
###############################################################################
#
# This file contains modified crystal structure data generated from the
# MOF subset of the Cambridge Structural Database (CSD) v543 
# hosted by the Cambridge Crystallographic Data Centre (CCDC).
#
# This work is licensed under the Creative Commons
# Attribution-NonCommercial-ShareAlike 4.0 International License.
# To view a copy of this license, visit
# http://creativecommons.org/licenses/by-nc-sa/4.0/
# or send a letter to
# Creative Commons, PO Box 1866, Mountain View, CA 94042, USA.
#
# CIF created using the CSD Python API on 29 September 2022
# The structure has been converted into the P1 space group
# The structure has a 3D framework
# The original CSD entry MUFYAP is in the triclinic crystal system
# The framework has been calculated to contain at least 10.0% void space
# The void calculation uses a probe of radius 1.32A, grid spacing 0.4
#
###############################################################################

data_MUFYAP
_chemical_formula_moiety         '(C48 H44 Gd8 N12 O70)n'
_symmetry_cell_setting           triclinic
_symmetry_space_group_name_H-M   'P 1'
_symmetry_Int_Tables_number      1
_space_group_name_Hall           'P 1'
loop_
_symmetry_equiv_pos_site_id
_symmetry_equiv_pos_as_xyz
1 x,y,z
_cell_length_a                   8.5607(10)
_cell_length_b                   14.1023(17)
_cell_length_c                   20.294(2)
_cell_angle_alpha                88.5392(17)
_cell_angle_beta                 86.4998(15)
_cell_angle_gamma                81.2519(16)
_cell_volume                     2416.66
loop_
_atom_site_label
_atom_site_type_symbol
_atom_site_fract_x
_atom_site_fract_y
_atom_site_fract_z
_atom_site_U_iso_or_equiv
_atom_site_thermal_displace_type
Gd15 Gd 0.11899(2) 0.75955(2) 0.51428(2) 0.0072 Uani
C37 C 0.1246(5) 0.1962(3) 0.00209(19) 0.0089 Uani
C38 C 0.0810(5) 0.2789(3) 0.0498(2) 0.0130 Uani
C40 C 0.4244(4) 0.1875(3) 0.00280(19) 0.0083 Uani
O51 O 0.1911(4) 0.3049(2) 0.07881(15) 0.0172 Uani
O58 O 0.5025(4) 0.1443(2) 0.04847(15) 0.0128 Uani
Gd13 Gd 0.72496(2) 0.23714(2) 0.01904(2) 0.0066 Uani
H1 H 0.407(2) 0.6487(8) 0.2692(3) 0.0230 Uiso
H2 H 0.2370(7) 0.9069(12) 0.6063(10) 0.0140 Uiso
H3 H 0.0534(4) 0.9276(4) 0.6101(5) 0.0200 Uiso
C1 C 0.2525(5) 0.5883(3) 0.09227(18) 0.0090 Uani
C2 C 0.3873(4) 0.5362(3) 0.04726(18) 0.0074 Uani
C3 C 0.4905(4) 0.4508(3) 0.05874(18) 0.0079 Uani
C4 C 0.5043(5) 0.3876(3) 0.12180(19) 0.0110 Uani
C5 C 0.1271(5) 0.9327(3) 0.09011(19) 0.0106 Uani
C13 C 0.2063(5) 0.5822(3) 0.40344(18) 0.0096 Uani
C14 C 0.0915(4) 0.5353(3) 0.45065(18) 0.0082 Uani
C18 C 0.4813(5) 0.9452(3) 0.4064(2) 0.0107 Uani
C19 C 0.3450(5) 0.9054(3) 0.42695(19) 0.0090 Uani
C20 C 0.4957(5) 0.7991(3) 0.49636(19) 0.0099 Uani
C21 C 0.6310(4) 0.8406(3) 0.47433(17) 0.0067 Uani
C22 C 0.7952(5) 0.8044(3) 0.4970(2) 0.0109 Uani
C23 C 0.4965(5) 0.7173(3) 0.54468(19) 0.0092 Uani
C24 C 0.1776(5) 0.9331(3) 0.40563(19) 0.0100 Uani
N1 N 0.0714(4) 0.5777(2) 0.50935(16) 0.0084 Uani
N2 N 0.3565(4) 0.8335(2) 0.47182(15) 0.0066 Uani
N3 N 0.0006(4) 0.8358(2) 0.02209(17) 0.0102 Uani
N5 N 0.6216(4) 0.9137(3) 0.43163(18) 0.0122 Uani
O1 O 0.2156(4) 0.6757(2) 0.07924(15) 0.0129 Uani
O2 O 0.0233(4) 0.6153(2) 0.26342(16) 0.0201 Uani
H5 H 0.0221(19) 0.6771(5) 0.2395(5) 0.0300 Uiso
O3 O 0.1857(4) 0.5426(2) 0.13631(14) 0.0123 Uani
O4 O 0.0935(4) 0.3794(2) 0.19628(16) 0.0236 Uani
H7 H 0.1167(15) 0.3437(19) 0.1547(4) 0.0350 Uiso
O5 O 0.3948(4) 0.6062(2) 0.23224(15) 0.0189 Uani
H8 H 0.4871(11) 0.6135(16) 0.2021(4) 0.0280 Uiso
O6 O 0.4383(4) 0.4198(2) 0.17464(15) 0.0164 Uani
O7 O 0.3606(5) 0.3473(3) 0.30224(15) 0.0247 Uani
H9 H 0.4571(12) 0.3094(10) 0.2826(5) 0.0370 Uiso
H10 H 0.376(2) 0.343(2) 0.3501(3) 0.0370 Uiso
O8 O 0.5868(4) 0.3067(2) 0.11474(15) 0.0139 Uani
O14 O 0.2549(3) 0.8912(2) 0.06385(15) 0.0130 Uani
O15 O 0.4387(4) 0.9450(2) 0.17100(15) 0.0176 Uani
H17 H 0.3875(10) 0.9304(9) 0.1304(4) 0.0260 Uiso
H18 H 0.5241(8) 0.9797(7) 0.1535(8) 0.0260 Uiso
O16 O 0.1098(4) 0.9893(2) 0.13775(15) 0.0140 Uani
O17 O 0.1438(3) 0.8825(2) 0.59091(15) 0.0138 Uani
O22 O 0.2785(4) 0.5362(2) 0.35698(14) 0.0120 Uani
O23 O 0.2246(3) 0.6660(2) 0.41849(15) 0.0121 Uani
O24 O 0.0332(4) 0.6811(2) 0.61352(14) 0.0134 Uani
O29 O 0.2232(4) 0.8605(2) 0.25715(17) 0.0182 Uani
H19 H 0.3177 0.8355 0.2638 0.0270 Uiso
H20 H 0.1936 0.8367 0.2227 0.0270 Uiso
O30 O 0.0767(4) 0.8865(2) 0.43284(15) 0.0136 Uani
O32 O 0.3618(4) 0.6906(2) 0.55860(15) 0.0132 Uani
O33 O 0.6244(4) 0.6812(2) 0.56684(15) 0.0141 Uani
O34 O 0.8457(4) 0.8405(2) 0.54451(15) 0.0139 Uani
O35 O 0.8761(4) 0.7411(2) 0.45989(15) 0.0137 Uani
Gd2 Gd 0.23167(2) 0.48581(2) 0.24766(2) 0.0089 Uani
N7 N 0.5994(4) 0.4174(2) 0.01093(16) 0.0088 Uani
C31 C 0.0175(4) 0.4548(3) 0.44098(18) 0.0075 Uani
C32 C 0.0101(5) 0.4001(3) 0.37807(19) 0.0111 Uani
O43 O 0.0379(4) 0.4397(2) 0.32381(15) 0.0176 Uani
C34 C 0.0224(4) 0.0895(3) 0.93810(19) 0.0089 Uani
C35 C 0.1784(5) 0.0434(3) 0.92235(18) 0.0085 Uani
C36 C 0.2762(5) 0.1516(3) 0.98406(19) 0.0085 Uani
N11 N 0.3036(4) 0.0764(2) 0.94439(17) 0.0103 Uani
H26 H 0.0702(10) 0.3705(12) 0.7039(4) 0.0300 Uiso
H28 H 0.0066(9) 0.6399(14) 0.7860(5) 0.0350 Uiso
O57 O 0.4694(3) 0.2557(2) 0.96959(15) 0.0114 Uani
O75 O 0.5306(3) 0.7443(2) 0.03041(15) 0.0114 Uani
O82 O 0.1543(4) 0.1595(2) 0.45549(15) 0.0139 Uani
O84 O 0.1239(4) 0.2589(2) 0.54011(15) 0.0137 Uani
N6 N 0.4006(4) 0.5826(2) 0.98907(16) 0.0088 Uani
O10 O 0.0650(3) 0.6882(2) 0.94271(15) 0.0119 Uani
Gd1 Gd 0.27504(2) 0.76286(2) 0.98096(2) 0.0066 Uani
C25 C 0.7475(5) 0.4117(3) 0.90773(18) 0.0090 Uani
C26 C 0.6127(4) 0.4638(3) 0.95274(18) 0.0074 Uani
C27 C 0.5095(4) 0.5492(3) 0.94126(18) 0.0079 Uani
C28 C 0.4957(5) 0.6124(3) 0.87820(19) 0.0110 Uani
O36 O 0.7844(4) 0.3243(2) 0.92076(15) 0.0129 Uani
O37 O 0.8143(4) 0.4574(2) 0.86369(14) 0.0123 Uani
O38 O 0.5617(4) 0.5802(2) 0.82536(15) 0.0164 Uani
O39 O 0.4132(4) 0.6933(2) 0.88526(15) 0.0139 Uani
O77 O 0.4975(4) 0.8557(2) 0.95153(15) 0.0128 Uani
O80 O 0.1699(4) 0.8790(2) 0.90449(14) 0.0114 Uani
Gd14 Gd 0.76833(2) 0.51419(2) 0.75234(2) 0.0089 Uani
C39 C 0.2177(5) 0.9545(3) 0.8811(2) 0.0108 Uani
H35 H 0.0437(12) 0.8477(10) 0.8405(4) 0.0320 Uiso
H36 H 0.0391(17) 0.7957(7) 0.7745(4) 0.0320 Uiso
O60 O 0.2979(4) 0.9610(2) 0.82837(15) 0.0173 Uani
O66 O 0.0608(3) 0.9947(2) 0.73160(13) 0.0193 Uani
H43 H 0.1374(6) 0.9943(6) 0.76528(18) 0.0290 Uiso
H44 H 0.1101(12) 0.9481(4) 0.6990(2) 0.0290 Uiso
C11 C 0.7823(5) 0.0455(3) 0.1189(2) 0.0108 Uani
H13 H 0.9563(12) 0.1523(10) 0.1595(4) 0.0320 Uiso
H14 H 0.9609(17) 0.2043(7) 0.2255(4) 0.0320 Uiso
O20 O 0.8301(4) 0.1210(2) 0.09551(14) 0.0114 Uani
O21 O 0.7021(4) 0.0390(2) 0.17163(15) 0.0173 Uani
O31 O 0.9392(3) 0.0053(2) 0.26840(13) 0.0193 Uani
H21 H 0.8626(6) 0.0057(6) 0.23472(18) 0.0290 Uiso
H22 H 0.8899(12) 0.0519(4) 0.3010(2) 0.0290 Uiso
O49 O 0.9350(3) 0.3118(2) 0.05729(15) 0.0119 Uani
C6 C 0.9776(4) 0.9105(3) 0.06190(19) 0.0089 Uani
C7 C 0.8216(5) 0.9566(3) 0.07765(18) 0.0085 Uani
C8 C 0.7238(5) 0.8484(3) 0.01594(19) 0.0085 Uani
C15 C 0.9825(4) 0.5452(3) 0.55902(18) 0.0075 Uani
C16 C 0.9899(5) 0.5999(3) 0.62193(19) 0.0111 Uani
N4 N 0.6964(4) 0.9236(2) 0.05561(17) 0.0103 Uani
H4 H 0.9298(10) 0.6295(12) 0.2961(4) 0.0300 Uiso
H6 H 0.9934(9) 0.3601(14) 0.2140(5) 0.0350 Uiso
O25 O 0.9621(4) 0.5603(2) 0.67619(15) 0.0176 Uani
C29 C 0.7937(5) 0.4178(3) 0.59656(18) 0.0096 Uani
C30 C 0.9085(4) 0.4647(3) 0.54935(18) 0.0082 Uani
N8 N 0.9286(4) 0.4223(2) 0.49065(16) 0.0084 Uani
O40 O 0.7215(4) 0.4638(2) 0.64302(14) 0.0120 Uani
O41 O 0.7754(3) 0.3340(2) 0.58151(15) 0.0121 Uani
O42 O 0.9668(4) 0.3189(2) 0.38648(14) 0.0134 Uani
H23 H 0.593(2) 0.3513(8) 0.7308(3) 0.0230 Uiso
H24 H 0.7630(7) 0.0931(12) 0.3937(10) 0.0140 Uiso
H25 H 0.9466(4) 0.0724(4) 0.3899(5) 0.0200 Uiso
C33 C 0.8729(5) 0.0673(3) 0.90989(19) 0.0106 Uani
C42 C 0.5187(5) 0.0548(3) 0.5936(2) 0.0107 Uani
C43 C 0.6550(5) 0.0946(3) 0.57305(19) 0.0090 Uani
C44 C 0.5043(5) 0.2009(3) 0.50364(19) 0.0099 Uani
C45 C 0.3690(4) 0.1594(3) 0.52567(17) 0.0067 Uani
C46 C 0.2048(5) 0.1956(3) 0.5030(2) 0.0109 Uani
C47 C 0.5035(5) 0.2827(3) 0.45532(19) 0.0092 Uani
C48 C 0.8224(5) 0.0669(3) 0.59437(19) 0.0100 Uani
N9 N 0.6435(4) 0.1665(2) 0.52818(15) 0.0066 Uani
N10 N 0.9994(4) 0.1642(2) 0.97791(17) 0.0102 Uani
N12 N 0.3784(4) 0.0863(3) 0.56837(18) 0.0122 Uani
O44 O 0.9767(4) 0.3847(2) 0.73658(16) 0.0201 Uani
H27 H 0.9779(19) 0.3229(5) 0.7605(5) 0.0300 Uiso
O45 O 0.9065(4) 0.6206(2) 0.80372(16) 0.0236 Uani
H29 H 0.8833(15) 0.6563(19) 0.8453(4) 0.0350 Uiso
O46 O 0.6052(4) 0.3938(2) 0.76776(15) 0.0189 Uani
H30 H 0.5129(11) 0.3865(16) 0.7979(4) 0.0280 Uiso
O47 O 0.6394(5) 0.6527(3) 0.69776(15) 0.0247 Uani
H31 H 0.5429(12) 0.6906(10) 0.7174(5) 0.0370 Uiso
H32 H 0.624(2) 0.657(2) 0.6499(3) 0.0370 Uiso
O53 O 0.7451(3) 0.1088(2) 0.93615(15) 0.0130 Uani
O54 O 0.5613(4) 0.0550(2) 0.82900(15) 0.0176 Uani
H39 H 0.6125(10) 0.0696(9) 0.8696(4) 0.0260 Uiso
H40 H 0.4759(8) 0.0203(7) 0.8465(8) 0.0260 Uiso
O55 O 0.8902(4) 0.0107(2) 0.86225(15) 0.0140 Uani
O56 O 0.8562(3) 0.1175(2) 0.40909(15) 0.0138 Uani
O64 O 0.7768(4) 0.1395(2) 0.74285(17) 0.0182 Uani
H41 H 0.6823 0.1645 0.7362 0.0270 Uiso
H42 H 0.8064 0.1633 0.7773 0.0270 Uiso
O65 O 0.9233(4) 0.1135(2) 0.56716(15) 0.0136 Uani
O67 O 0.6382(4) 0.3094(2) 0.44140(15) 0.0132 Uani
O68 O 0.3756(4) 0.3188(2) 0.43316(15) 0.0141 Uani
Gd7 Gd 0.88101(2) 0.24045(2) 0.48572(2) 0.0072 Uani
C9 C 0.8754(5) 0.8038(3) 0.99791(19) 0.0089 Uani
C10 C 0.9190(5) 0.7211(3) 0.9502(2) 0.0130 Uani
C12 C 0.5756(4) 0.8125(3) 0.99720(19) 0.0083 Uani
O12 O 0.8089(4) 0.6951(2) 0.92119(15) 0.0172 Uani
C17 C 0.4927(5) 0.0215(3) 0.3521(2) 0.0122 Uani
O9 O 0.3451(4) 0.1496(2) 0.17418(15) 0.0206 Uani
H11 H 0.4351(10) 0.1269(9) 0.1413(5) 0.0310 Uiso
H12 H 0.2858(8) 0.2021(4) 0.1464(3) 0.0310 Uiso
O11 O 0.0295(4) 0.1624(2) 0.19408(16) 0.0214 Uani
O13 O 0.1954(4) 0.1726(2) 0.30946(14) 0.0160 Uani
H15 H 0.2472(13) 0.2326(5) 0.3072(7) 0.0240 Uiso
H16 H 0.182(2) 0.1635(9) 0.3585(3) 0.0240 Uiso
O26 O 0.4455(4) 0.0039(2) 0.29744(15) 0.0162 Uani
O27 O 0.5576(4) 0.0920(2) 0.36598(17) 0.0166 Uani
O28 O 0.1493(3) 0.0005(2) 0.36364(14) 0.0120 Uani
Gd4 Gd 0.21156(2) 0.03019(2) 0.24149(2) 0.0098 Uani
C41 C 0.5073(5) 0.9785(3) 0.6479(2) 0.0122 Uani
O48 O 0.6549(4) 0.8504(2) 0.82582(15) 0.0206 Uani
H33 H 0.5649(10) 0.8731(9) 0.8587(5) 0.0310 Uiso
H34 H 0.7142(8) 0.7979(4) 0.8536(3) 0.0310 Uiso
O50 O 0.9705(4) 0.8376(2) 0.80592(16) 0.0214 Uani
O52 O 0.8046(4) 0.8274(2) 0.69054(14) 0.0160 Uani
H37 H 0.7528(13) 0.7674(5) 0.6928(7) 0.0240 Uiso
H38 H 0.818(2) 0.8365(9) 0.6415(3) 0.0240 Uiso
O61 O 0.5545(4) 0.9961(2) 0.70256(15) 0.0162 Uani
O62 O 0.4424(4) 0.9080(2) 0.63402(17) 0.0166 Uani
O63 O 0.8507(3) 0.9995(2) 0.63636(14) 0.0120 Uani
Gd8 Gd 0.78844(2) 0.96981(2) 0.75851(2) 0.0098 Uani
loop_
_atom_site_aniso_label
_atom_site_aniso_U_11
_atom_site_aniso_U_22
_atom_site_aniso_U_33
_atom_site_aniso_U_23
_atom_site_aniso_U_13
_atom_site_aniso_U_12
Gd15 0.00524 0.00871 0.00749 -0.00223 0.00082 -0.00035
C37 0.0092 0.0077 0.0096 -0.0026 0.0011 -0.0007
C38 0.0068 0.0139 0.017 -0.007 0.0045 0.0015
C40 0.0059 0.0094 0.0089 -0.0044 0.0011 0.0014
O51 0.0107 0.0201 0.0204 -0.0138 0.0008 0.0002
O58 0.0089 0.0156 0.0137 0.0005 -0.002 -0.0008
Gd13 0.00507 0.00772 0.00611 -0.00237 0.00093 0.00178
C1 0.0091 0.0117 0.0056 -0.0051 0.0002 0.0011
C2 0.0082 0.0083 0.0052 -0.0031 -0.0006 0.0009
C3 0.0074 0.0097 0.0066 -0.0029 0.0006 -0.0015
C4 0.0125 0.0114 0.0076 -0.0016 0.0028 0.0022
C5 0.0111 0.0112 0.0095 -0.0044 -0.0014 -0.001
C13 0.0107 0.0119 0.0059 -0.0018 0.0015 -0.0015
C14 0.0081 0.0086 0.0078 -0.0039 0.0013 -0.0007
C18 0.0102 0.0113 0.0106 -0.0005 -0.0015 -0.0013
C19 0.0074 0.01 0.0091 0.0002 -0.0011 0.0003
C20 0.0078 0.0116 0.0095 -0.0009 -0.0005 0.001
C21 0.0043 0.011 0.0044 -0.0032 -0.0006 0.0004
C22 0.0102 0.0123 0.0093 0.0021 0.0009 0.0006
C23 0.0067 0.0106 0.0102 -0.0008 0.0003 -0.0013
C24 0.01 0.0097 0.0095 -0.0019 -0.0021 0.0016
N1 0.0076 0.0111 0.0059 -0.0021 0.0003 0.0007
N2 0.0061 0.0068 0.0056 -0.0027 0.0008 0.003
N3 0.0111 0.0105 0.0092 -0.0035 0.0001 -0.0023
N5 0.0103 0.0155 0.0108 0.0011 -0.0012 -0.0022
O1 0.0137 0.0125 0.0104 -0.0029 0.0035 0.0036
O2 0.0165 0.0181 0.0209 0.0029 0.0093 0.0083
O3 0.0137 0.0159 0.0062 -0.0014 0.003 0
O4 0.0361 0.0269 0.0127 -0.0106 0.0036 -0.0207
O5 0.0222 0.0233 0.0132 -0.0076 0.0108 -0.0133
O6 0.0243 0.015 0.0058 -0.0017 0.0048 0.008
O7 0.036 0.024 0.0091 0.0003 0.0026 0.0102
O8 0.0159 0.0114 0.0119 -0.0012 0.0038 0.0045
O14 0.0068 0.0146 0.0172 -0.0085 0.0004 0.0005
O15 0.012 0.0256 0.0142 -0.0073 0.0015 0.001
O16 0.01 0.0194 0.0112 -0.0086 -0.0011 0.0035
O17 0.0114 0.0135 0.0163 -0.0106 0.0011 -0.0006
O22 0.0142 0.0146 0.0068 -0.0045 0.0024 -0.0017
O23 0.0103 0.0129 0.013 -0.0051 0.0047 -0.0025
O24 0.0193 0.0145 0.008 -0.0052 0.0016 -0.0077
O29 0.0196 0.0141 0.0205 -0.0021 -0.0022 -0.0003
O30 0.008 0.0188 0.0147 -0.0003 -0.0013 -0.0043
O32 0.0081 0.0153 0.0159 0.0035 -0.0009 -0.0011
O33 0.0113 0.0166 0.0128 0.0041 0.0001 0.0016
O34 0.0087 0.02 0.0129 -0.0061 0.0006 -0.0014
O35 0.0118 0.0151 0.013 -0.006 0.0016 0.0014
Gd2 0.01185 0.00861 0.00559 -0.00225 0.00275 -0.00041
N7 0.0076 0.0112 0.0067 -0.0021 0.0021 0.0004
C31 0.0082 0.0093 0.0047 -0.0021 0.0007 -0.0002
C32 0.0074 0.0191 0.0074 -0.0056 0.003 -0.0046
O43 0.0222 0.0245 0.0079 -0.0044 0.0039 -0.0102
C34 0.0065 0.0114 0.0084 -0.003 0.0002 0
C35 0.0084 0.0105 0.0059 -0.0023 0.0008 0.0004
C36 0.0073 0.0104 0.0075 -0.0018 0.0012 -0.0004
N11 0.0089 0.0115 0.01 -0.004 -0.0003 0.0005
O57 0.0076 0.0139 0.0131 0 -0.0028 -0.0016
O75 0.0076 0.0139 0.0131 0 -0.0028 -0.0016
O82 0.0087 0.02 0.0129 -0.0061 0.0006 -0.0014
O84 0.0118 0.0151 0.013 -0.006 0.0016 0.0014
N6 0.0076 0.0112 0.0067 -0.0021 0.0021 0.0004
O10 0.0061 0.0139 0.0151 -0.0077 0.0025 0.0002
Gd1 0.00507 0.00772 0.00611 -0.00237 0.00093 0.00178
C25 0.0091 0.0117 0.0056 -0.0051 0.0002 0.0011
C26 0.0082 0.0083 0.0052 -0.0031 -0.0006 0.0009
C27 0.0074 0.0097 0.0066 -0.0029 0.0006 -0.0015
C28 0.0125 0.0114 0.0076 -0.0016 0.0028 0.0022
O36 0.0137 0.0125 0.0104 -0.0029 0.0035 0.0036
O37 0.0137 0.0159 0.0062 -0.0014 0.003 0
O38 0.0243 0.015 0.0058 -0.0017 0.0048 0.008
O39 0.0159 0.0114 0.0119 -0.0012 0.0038 0.0045
O77 0.0089 0.0156 0.0137 0.0005 -0.002 -0.0008
O80 0.0129 0.0102 0.0106 -0.0005 -0.0045 0.0016
Gd14 0.01185 0.00861 0.00559 -0.00225 0.00275 -0.00041
C39 0.0054 0.0133 0.0129 -0.0064 -0.0016 0.0026
O60 0.0155 0.0207 0.0159 -0.0065 0.0059 -0.0046
O66 0.0143 0.0286 0.0156 -0.0022 -0.0043 -0.0039
C11 0.0054 0.0133 0.0129 -0.0064 -0.0016 0.0026
O20 0.0129 0.0102 0.0106 -0.0005 -0.0045 0.0016
O21 0.0155 0.0207 0.0159 -0.0065 0.0059 -0.0046
O31 0.0143 0.0286 0.0156 -0.0022 -0.0043 -0.0039
O49 0.0061 0.0139 0.0151 -0.0077 0.0025 0.0002
C6 0.0065 0.0114 0.0084 -0.003 0.0002 0
C7 0.0084 0.0105 0.0059 -0.0023 0.0008 0.0004
C8 0.0073 0.0104 0.0075 -0.0018 0.0012 -0.0004
C15 0.0082 0.0093 0.0047 -0.0021 0.0007 -0.0002
C16 0.0074 0.0191 0.0074 -0.0056 0.003 -0.0046
N4 0.0089 0.0115 0.01 -0.004 -0.0003 0.0005
O25 0.0222 0.0245 0.0079 -0.0044 0.0039 -0.0102
C29 0.0107 0.0119 0.0059 -0.0018 0.0015 -0.0015
C30 0.0081 0.0086 0.0078 -0.0039 0.0013 -0.0007
N8 0.0076 0.0111 0.0059 -0.0021 0.0003 0.0007
O40 0.0142 0.0146 0.0068 -0.0045 0.0024 -0.0017
O41 0.0103 0.0129 0.013 -0.0051 0.0047 -0.0025
O42 0.0193 0.0145 0.008 -0.0052 0.0016 -0.0077
C33 0.0111 0.0112 0.0095 -0.0044 -0.0014 -0.001
C42 0.0102 0.0113 0.0106 -0.0005 -0.0015 -0.0013
C43 0.0074 0.01 0.0091 0.0002 -0.0011 0.0003
C44 0.0078 0.0116 0.0095 -0.0009 -0.0005 0.001
C45 0.0043 0.011 0.0044 -0.0032 -0.0006 0.0004
C46 0.0102 0.0123 0.0093 0.0021 0.0009 0.0006
C47 0.0067 0.0106 0.0102 -0.0008 0.0003 -0.0013
C48 0.01 0.0097 0.0095 -0.0019 -0.0021 0.0016
N9 0.0061 0.0068 0.0056 -0.0027 0.0008 0.003
N10 0.0111 0.0105 0.0092 -0.0035 0.0001 -0.0023
N12 0.0103 0.0155 0.0108 0.0011 -0.0012 -0.0022
O44 0.0165 0.0181 0.0209 0.0029 0.0093 0.0083
O45 0.0361 0.0269 0.0127 -0.0106 0.0036 -0.0207
O46 0.0222 0.0233 0.0132 -0.0076 0.0108 -0.0133
O47 0.036 0.024 0.0091 0.0003 0.0026 0.0102
O53 0.0068 0.0146 0.0172 -0.0085 0.0004 0.0005
O54 0.012 0.0256 0.0142 -0.0073 0.0015 0.001
O55 0.01 0.0194 0.0112 -0.0086 -0.0011 0.0035
O56 0.0114 0.0135 0.0163 -0.0106 0.0011 -0.0006
O64 0.0196 0.0141 0.0205 -0.0021 -0.0022 -0.0003
O65 0.008 0.0188 0.0147 -0.0003 -0.0013 -0.0043
O67 0.0081 0.0153 0.0159 0.0035 -0.0009 -0.0011
O68 0.0113 0.0166 0.0128 0.0041 0.0001 0.0016
Gd7 0.00524 0.00871 0.00749 -0.00223 0.00082 -0.00035
C9 0.0092 0.0077 0.0096 -0.0026 0.0011 -0.0007
C10 0.0068 0.0139 0.017 -0.007 0.0045 0.0015
C12 0.0059 0.0094 0.0089 -0.0044 0.0011 0.0014
O12 0.0107 0.0201 0.0204 -0.0138 0.0008 0.0002
C17 0.0072 0.0168 0.0122 0.0012 0.0005 -0.0011
O9 0.0197 0.0214 0.0188 0.002 0.0051 -0.0002
O11 0.0256 0.0155 0.023 -0.0043 -0.0111 0.0021
O13 0.0191 0.0165 0.0126 -0.0048 0.0015 -0.0035
O26 0.0186 0.0204 0.0101 0.0005 -0.0019 -0.0041
O27 0.0177 0.0143 0.0192 0 -0.0076 -0.0047
O28 0.0132 0.0122 0.0103 -0.0005 -0.0029 0.0004
Gd4 0.00961 0.01039 0.00897 -0.00251 -0.00012 -0.00036
C41 0.0072 0.0168 0.0122 0.0012 0.0005 -0.0011
O48 0.0197 0.0214 0.0188 0.002 0.0051 -0.0002
O50 0.0256 0.0155 0.023 -0.0043 -0.0111 0.0021
O52 0.0191 0.0165 0.0126 -0.0048 0.0015 -0.0035
O61 0.0186 0.0204 0.0101 0.0005 -0.0019 -0.0041
O62 0.0177 0.0143 0.0192 0 -0.0076 -0.0047
O63 0.0132 0.0122 0.0103 -0.0005 -0.0029 0.0004
Gd8 0.00961 0.01039 0.00897 -0.00251 -0.00012 -0.00036
loop_
_geom_bond_atom_site_label_1
_geom_bond_atom_site_label_2
_geom_bond_site_symmetry_1
_geom_bond_site_symmetry_2
C37 C38 1_555 1_555
O51 C38 1_555 1_555
O58 C40 1_555 1_555
O58 Gd13 1_555 1_555
H1 O5 1_555 1_555
H2 O17 1_555 1_555
H3 O17 1_555 1_555
C1 C2 1_555 1_555
C2 C3 1_555 1_555
C3 C4 1_555 1_555
C4 O6 1_555 1_555
C13 C14 1_555 1_555
C14 N1 1_555 1_555
C18 C19 1_555 1_555
C19 C24 1_555 1_555
C20 C21 1_555 1_555
C21 C22 1_555 1_555
C22 O34 1_555 1_555
C23 C20 1_555 1_555
N2 C19 1_555 1_555
N5 C18 1_555 1_555
O1 C1 1_555 1_555
H5 O2 1_555 1_555
O3 C1 1_555 1_555
H7 O4 1_555 1_555
O5 H8 1_555 1_555
O6 Gd2 1_555 1_555
O7 H9 1_555 1_555
H10 O7 1_555 1_555
O8 C4 1_555 1_555
O14 C5 1_555 1_555
O15 H17 1_555 1_555
H18 O15 1_555 1_555
O16 C5 1_555 1_555
O17 Gd15 1_555 1_555
O22 C13 1_555 1_555
O23 C13 1_555 1_555
O24 Gd15 1_555 1_555
O29 H19 1_555 1_555
H20 O29 1_555 1_555
O30 C24 1_555 1_555
O32 C23 1_555 1_555
O33 C23 1_555 1_555
O35 C22 1_555 1_555
Gd2 O2 1_555 1_555
Gd15 N1 1_555 1_555
N7 C3 1_555 1_555
C31 C14 1_555 1_555
C32 C31 1_555 1_555
O43 Gd2 1_555 1_555
C34 C35 1_555 1_555
N11 C35 1_555 1_555
Gd13 O8 1_555 1_555
C20 N2 1_555 1_555
C21 N5 1_555 1_555
N2 Gd15 1_555 1_555
O3 Gd2 1_555 1_555
O4 Gd2 1_555 1_555
O5 Gd2 1_555 1_555
O7 Gd2 1_555 1_555
O22 Gd2 1_555 1_555
O23 Gd15 1_555 1_555
O30 Gd15 1_555 1_555
O32 Gd15 1_555 1_555
N7 Gd13 1_555 1_555
C32 O43 1_555 1_555
C36 N11 1_555 1_555
O10 Gd1 1_555 1_555
C25 C26 1_555 1_555
C26 C27 1_555 1_555
C27 N6 1_555 1_555
C28 C27 1_555 1_555
O36 C25 1_555 1_555
O37 C25 1_555 1_555
O38 C28 1_555 1_555
O39 Gd1 1_555 1_555
O77 Gd1 1_555 1_555
O80 Gd1 1_555 1_555
Gd14 O37 1_555 1_555
N6 Gd1 1_555 1_555
C28 O39 1_555 1_555
O38 Gd14 1_555 1_555
C39 O80 1_555 1_555
O60 C39 1_555 1_555
O66 H43 1_555 1_555
H44 O66 1_555 1_555
C11 O20 1_555 1_555
O20 Gd13 1_555 1_555
O21 C11 1_555 1_555
O31 H21 1_555 1_555
H22 O31 1_555 1_555
O49 Gd13 1_555 1_555
C6 C7 1_555 1_555
C15 C16 1_555 1_555
N4 C7 1_555 1_555
O25 C16 1_555 1_555
C29 C30 1_555 1_555
C30 C15 1_555 1_555
N8 C30 1_555 1_555
O40 C29 1_555 1_555
O41 C29 1_555 1_555
H23 O46 1_555 1_555
H24 O56 1_555 1_555
H25 O56 1_555 1_555
C42 C43 1_555 1_555
C43 C48 1_555 1_555
C44 C45 1_555 1_555
C45 C46 1_555 1_555
C46 O82 1_555 1_555
C47 C44 1_555 1_555
N9 C43 1_555 1_555
N12 C42 1_555 1_555
H27 O44 1_555 1_555
H29 O45 1_555 1_555
O46 H30 1_555 1_555
O47 H31 1_555 1_555
H32 O47 1_555 1_555
O53 C33 1_555 1_555
O54 H39 1_555 1_555
H40 O54 1_555 1_555
O55 C33 1_555 1_555
O56 Gd7 1_555 1_555
O64 H41 1_555 1_555
H42 O64 1_555 1_555
O65 C48 1_555 1_555
O67 C47 1_555 1_555
O68 C47 1_555 1_555
O84 C46 1_555 1_555
Gd14 O25 1_555 1_555
Gd7 N8 1_555 1_555
C8 N4 1_555 1_555
O40 Gd14 1_555 1_555
O41 Gd7 1_555 1_555
O42 Gd7 1_555 1_555
C44 N9 1_555 1_555
C45 N12 1_555 1_555
N9 Gd7 1_555 1_555
O44 Gd14 1_555 1_555
O45 Gd14 1_555 1_555
O46 Gd14 1_555 1_555
O47 Gd14 1_555 1_555
O65 Gd7 1_555 1_555
O67 Gd7 1_555 1_555
C9 C10 1_555 1_555
O12 C10 1_555 1_555
O77 C12 1_555 1_555
O9 H11 1_555 1_555
H12 O9 1_555 1_555
O13 H15 1_555 1_555
H16 O13 1_555 1_555
O26 C17 1_555 1_555
O27 C17 1_555 1_555
O28 Gd4 1_555 1_555
Gd4 O9 1_555 1_555
O11 Gd4 1_555 1_555
O13 Gd4 1_555 1_555
O26 Gd4 1_555 1_555
O48 H33 1_555 1_555
H34 O48 1_555 1_555
O52 H37 1_555 1_555
H38 O52 1_555 1_555
O61 C41 1_555 1_555
O62 C41 1_555 1_555
O63 Gd8 1_555 1_555
Gd8 O48 1_555 1_555
O50 Gd8 1_555 1_555
O52 Gd8 1_555 1_555
O61 Gd8 1_555 1_555

#END
