
###############################################################################
#
# This file contains modified crystal structure data generated from the
# MOF subset of the Cambridge Structural Database (CSD) v543 
# hosted by the Cambridge Crystallographic Data Centre (CCDC).
#
# This work is licensed under the Creative Commons
# Attribution-NonCommercial-ShareAlike 4.0 International License.
# To view a copy of this license, visit
# http://creativecommons.org/licenses/by-nc-sa/4.0/
# or send a letter to
# Creative Commons, PO Box 1866, Mountain View, CA 94042, USA.
#
# CIF created using the CSD Python API on 29 September 2022
# The structure has been converted into the P1 space group
# The structure has a 3D framework
# The original CSD entry MUGCAV is in the monoclinic crystal system
# The framework has been calculated to contain at least 10.0% void space
# The void calculation uses a probe of radius 1.32A, grid spacing 0.4
#
###############################################################################

data_MUGCAV
_chemical_formula_moiety         '(C140 H108 Cd2 N4 O18)n'
_symmetry_cell_setting           triclinic
_symmetry_space_group_name_H-M   'P 1'
_symmetry_Int_Tables_number      1
_space_group_name_Hall           'P 1'
loop_
_symmetry_equiv_pos_site_id
_symmetry_equiv_pos_as_xyz
1 x,y,z
_cell_length_a                   8.0584(2)
_cell_length_b                   9.4051(2)
_cell_length_c                   41.9284(8)
_cell_angle_alpha                90
_cell_angle_beta                 91.246(2)
_cell_angle_gamma                90
_cell_volume                     3177
loop_
_atom_site_label
_atom_site_type_symbol
_atom_site_fract_x
_atom_site_fract_y
_atom_site_fract_z
O3 O 0.6403(3) 0.2177(3) 0.96713(7)
O4 O 0.5008(3) 0.0148(3) 0.96576(6)
C17 C 0.0353(5) 0.2499(4) 0.78660(9)
C18 C 0.1267(4) 0.2264(4) 0.75896(9)
C19 C 0.2865(5) 0.1603(4) 0.75961(10)
H11 H 0.334243 0.132906 0.779604
C20 C 0.3721(5) 0.1353(4) 0.73285(10)
H12 H 0.477962 0.090923 0.734198
C21 C 0.3037(5) 0.1753(4) 0.70276(10)
H13 H 0.363781 0.157375 0.683933
C22 C 0.1532(5) 0.2391(4) 0.70069(9)
H14 H 0.109586 0.265618 0.680313
C23 C 0.0585(5) 0.2676(4) 0.72830(9)
C24 C 0.1097(5) 0.2119(4) 0.81916(9)
C25 C 0.1356(5) 0.0723(5) 0.82766(9)
C26 C 0.2086(5) 0.0395(5) 0.85708(9)
C27 C 0.2566(5) 0.1463(4) 0.87825(9)
C28 C 0.2253(5) 0.2870(5) 0.86958(10)
H17 H 0.253734 0.361526 0.883992
C29 C 0.1535(5) 0.3193(5) 0.84023(10)
H18 H 0.134048 0.415719 0.834516
C30 C 0.3420(5) 0.1077(5) 0.90836(9)
H19 H 0.332780 0.011590 0.915040
C31 C 0.4313(5) 0.1942(5) 0.92727(10)
H20 H 0.432354 0.293172 0.922732
C32 C 0.5290(5) 0.1404(5) 0.95519(10)
Cd4 Cd 0.73395(3) 0.02144(3) 0.99941(2)
O5 O 0.2401(3) 0.2181(3) 0.99622(7)
N1 N 0.1394(4) 0.4141(4) 0.97139(9)
C33 C 0.2809(6) 0.5008(5) 0.98041(17)
H22 H 0.285523 0.583913 0.966367
H23 H 0.382804 0.444963 0.978433
C34 C 0.0109(6) 0.4790(6) 0.95091(13)
H25 H 0.058633 0.505336 0.930438
C35 C 0.1310(5) 0.2793(4) 0.97966(11)
H27 H 0.036962 0.225883 0.972686
O2 O 0.9450(3) 0.0117(3) 0.96383(6)
H2 H 0.806072 0.020529 0.911340
H5 H 0.541382 0.041941 0.814096
C9 C 0.6816(5) 0.0038(4) 0.85403(9)
H6 H 0.643936 0.084338 0.865487
H24 H 0.920478 0.410839 0.947262
H26 H 0.967691 0.564126 0.961324
Cd2 Cd 0.26605(3) 0.97856(3) 0.00059(2)
O6 O 0.0550(3) 0.9883(3) 0.03617(6)
O7 O 0.3597(3) 0.7823(3) 0.03287(7)
O9 O 0.4992(3) 0.9852(3) 0.03424(6)
C17_2 C 0.9647(5) 0.7501(4) 0.21340(9)
C18_2 C 0.8733(4) 0.7736(4) 0.24104(9)
C19_2 C 0.7135(5) 0.8397(4) 0.24039(10)
H11_2 H 0.665757 0.867094 0.220396
C20_2 C 0.6279(5) 0.8647(4) 0.26715(10)
H12_2 H 0.522038 0.909077 0.265802
C21_2 C 0.6963(5) 0.8247(4) 0.29724(10)
H13_2 H 0.636219 0.842625 0.316067
C22_2 C 0.8468(5) 0.7609(4) 0.29931(9)
H14_2 H 0.890414 0.734382 0.319687
C23_2 C 0.9415(5) 0.7324(4) 0.27170(9)
C24_2 C 0.8903(5) 0.7881(4) 0.18084(9)
C25_2 C 0.8644(5) 0.9277(5) 0.17234(9)
C26_2 C 0.7914(5) 0.9605(5) 0.14292(9)
C27_2 C 0.7434(5) 0.8537(4) 0.12175(9)
C28_2 C 0.7747(5) 0.7130(5) 0.13042(10)
H17_2 H 0.746266 0.638474 0.116008
C29_2 C 0.8465(5) 0.6807(5) 0.15977(10)
H18_2 H 0.865952 0.584281 0.165484
C30_2 C 0.6580(5) 0.8923(5) 0.09164(9)
H19_2 H 0.667220 0.988410 0.084960
C31_2 C 0.5687(5) 0.8058(5) 0.07273(10)
H20_2 H 0.567646 0.706828 0.077268
C32_2 C 0.4710(5) 0.8596(5) 0.04481(10)
H2_2 H 0.193928 0.979471 0.088660
H5_2 H 0.458618 0.958059 0.185904
C9_2 C 0.3184(5) 0.9962(4) 0.14597(9)
H6_2 H 0.356064 0.915662 0.134513
H24_2 H 0.079522 0.589161 0.052738
H26_2 H 0.032309 0.435874 0.038676
O5_2 O 0.7599(3) 0.7819(3) 0.00378(7)
N1_2 N 0.8606(4) 0.5859(4) 0.02861(9)
C33_2 C 0.7191(6) 0.4992(5) 0.01959(17)
H22_2 H 0.714477 0.416087 0.033633
H23_2 H 0.617196 0.555037 0.021567
C34_2 C 0.9891(6) 0.5210(6) 0.04909(13)
H25_2 H 0.941367 0.494664 0.069562
C35_2 C 0.8690(5) 0.7207(4) 0.02034(11)
H27_2 H 0.963038 0.774117 0.027314
H15 H 0.103644 0.998212 0.813404
H16 H 0.225988 0.942819 0.862800
C33_3 C 0.2191(6) 0.0008(5) 0.51959(17)
H21 H 0.229866 0.032271 0.497450
H22_3 H 0.214477 0.083913 0.533633
H25_3 H 0.441367 0.005336 0.569562
H26_3 H 0.532309 0.064126 0.538676
Cd1 Cd 0.23395(3) 0.47856(3) 0.49941(2)
O1 O 0.3496(3) 0.3534(3) 0.53803(7)
O2_2 O 0.5550(3) 0.5117(3) 0.53617(6)
C1 C 0.4789(5) 0.4146(5) 0.54994(9)
C2 C 0.5313(5) 0.3691(5) 0.58232(10)
H1 H 0.482977 0.286636 0.591359
C3 C 0.6450(5) 0.4416(4) 0.59902(9)
H2_3 H 0.693928 0.520529 0.588660
C4 C 0.7029(5) 0.4124(4) 0.63179(9)
C5 C 0.6479(5) 0.2972(4) 0.64936(9)
H3 H 0.566016 0.235527 0.640395
C6 C 0.7109(5) 0.2711(4) 0.67987(9)
H4 H 0.675169 0.189839 0.691279
C7 C 0.8266(5) 0.3637(4) 0.69388(9)
C8 C 0.8793(5) 0.4786(5) 0.67666(10)
H5_3 H 0.958618 0.541941 0.685904
C9_3 C 0.8184(5) 0.5038(4) 0.64597(9)
H6_3 H 0.856064 0.584338 0.634513
C10 C 0.9004(5) 0.3289(4) 0.72615(9)
C11 C 0.8073(5) 0.3500(4) 0.75362(9)
C12 C 0.6449(5) 0.4110(4) 0.75249(10)
H7 H 0.600889 0.444017 0.732640
C13 C 0.5523(5) 0.4230(4) 0.77877(10)
H8 H 0.443548 0.461737 0.777138
C14 C 0.6165(5) 0.3784(5) 0.80862(10)
H9 H 0.550031 0.385535 0.826988
C15 C 0.7730(5) 0.3251(4) 0.81136(10)
H10 H 0.814996 0.297788 0.831805
C16 C 0.8750(5) 0.3092(4) 0.78451(9)
O5_3 O 0.2599(3) 0.7181(3) 0.50378(7)
N1_3 N 0.3606(4) 0.9141(4) 0.52861(9)
H23_3 H 0.117196 0.944963 0.521567
C34_3 C 0.4891(6) 0.9790(6) 0.54909(13)
H24_3 H 0.579522 0.910839 0.552738
C35_3 C 0.3690(5) 0.7793(4) 0.52034(11)
H27_3 H 0.463038 0.725883 0.527314
Cd3 Cd 0.76605(3) 0.52144(3) 0.50059(2)
O6_2 O 0.4450(3) 0.4883(3) 0.46383(6)
O7_2 O 0.1403(3) 0.2823(3) 0.46713(7)
O9_2 O 0.0008(3) 0.4852(3) 0.46576(6)
O8 O 0.9992(3) 0.5148(3) 0.53424(6)
C2_2 C 0.9687(5) 0.8691(5) 0.91768(10)
C3_2 C 0.8550(5) 0.9416(4) 0.90098(9)
C4_2 C 0.7971(5) 0.9124(4) 0.86821(9)
C5_2 C 0.8521(5) 0.7972(4) 0.85064(9)
H3_2 H 0.933984 0.735527 0.859605
C6_2 C 0.7891(5) 0.7711(4) 0.82013(9)
H4_2 H 0.824831 0.689839 0.808721
C7_2 C 0.6734(5) 0.8637(4) 0.80612(9)
C8_2 C 0.6207(5) 0.9786(5) 0.82334(10)
C10_2 C 0.5996(5) 0.8289(4) 0.77385(9)
C11_2 C 0.6927(5) 0.8500(4) 0.74638(9)
C12_2 C 0.8551(5) 0.9110(4) 0.74751(10)
H7_2 H 0.899111 0.944017 0.767360
C13_2 C 0.9477(5) 0.9230(4) 0.72123(10)
C14_2 C 0.8835(5) 0.8784(5) 0.69138(10)
H9_2 H 0.949969 0.885535 0.673012
C15_2 C 0.7270(5) 0.8251(4) 0.68864(10)
H10_2 H 0.685004 0.797788 0.668195
C16_2 C 0.6250(5) 0.8092(4) 0.71549(9)
C17_3 C 0.4647(5) 0.7499(4) 0.71340(9)
C18_3 C 0.3733(4) 0.7264(4) 0.74104(9)
C19_3 C 0.2135(5) 0.6603(4) 0.74039(10)
H11_3 H 0.165757 0.632906 0.720396
C20_3 C 0.1279(5) 0.6353(4) 0.76715(10)
H12_3 H 0.022038 0.590923 0.765802
C21_3 C 0.1963(5) 0.6753(4) 0.79724(10)
H13_3 H 0.136219 0.657375 0.816067
C22_3 C 0.3468(5) 0.7391(4) 0.79931(9)
H14_3 H 0.390414 0.765618 0.819687
C23_3 C 0.4415(5) 0.7676(4) 0.77170(9)
C24_3 C 0.3903(5) 0.7119(4) 0.68084(9)
C25_3 C 0.3644(5) 0.5723(5) 0.67234(9)
H15_2 H 0.396356 0.498212 0.686596
C26_3 C 0.2914(5) 0.5395(5) 0.64292(9)
H16_2 H 0.274012 0.442819 0.637200
C27_3 C 0.2434(5) 0.6463(4) 0.62175(9)
C28_3 C 0.2747(5) 0.7870(5) 0.63042(10)
H17_3 H 0.246266 0.861526 0.616008
C29_3 C 0.3465(5) 0.8193(5) 0.65977(10)
H18_3 H 0.365952 0.915719 0.665484
C30_3 C 0.1580(5) 0.6077(5) 0.59164(9)
H19_3 H 0.167220 0.511590 0.584960
C31_3 C 0.0687(5) 0.6942(5) 0.57273(10)
H20_3 H 0.067646 0.793172 0.577268
O3_2 O 0.8597(3) 0.7177(3) 0.53287(7)
C32_3 C 0.9710(5) 0.6404(5) 0.54481(10)
O1_2 O 0.6504(3) 0.6466(3) 0.46197(7)
C1_2 C 0.5211(5) 0.5854(5) 0.45006(9)
C2_3 C 0.4687(5) 0.6309(5) 0.41768(10)
H1_2 H 0.517023 0.713364 0.408641
C3_3 C 0.3550(5) 0.5584(4) 0.40098(9)
H2_4 H 0.306072 0.479471 0.411340
C4_3 C 0.2971(5) 0.5876(4) 0.36821(9)
C5_3 C 0.3521(5) 0.7028(4) 0.35064(9)
H3_3 H 0.433984 0.764473 0.359605
C6_3 C 0.2891(5) 0.7289(4) 0.32013(9)
H4_3 H 0.324831 0.810161 0.308721
C7_3 C 0.1734(5) 0.6363(4) 0.30612(9)
C8_3 C 0.1207(5) 0.5214(5) 0.32334(10)
H5_4 H 0.041382 0.458059 0.314096
C9_4 C 0.1816(5) 0.4962(4) 0.35403(9)
H6_4 H 0.143936 0.415662 0.365487
C10_3 C 0.0996(5) 0.6711(4) 0.27385(9)
C11_3 C 0.1927(5) 0.6500(4) 0.24638(9)
C12_3 C 0.3551(5) 0.5890(4) 0.24751(10)
H7_3 H 0.399111 0.555983 0.267360
C13_3 C 0.4477(5) 0.5770(4) 0.22123(10)
H8_2 H 0.556452 0.538263 0.222862
C14_3 C 0.3835(5) 0.6216(5) 0.19138(10)
H9_3 H 0.449969 0.614465 0.173012
C15_3 C 0.2270(5) 0.6749(4) 0.18864(10)
H10_3 H 0.185004 0.702212 0.168195
C16_3 C 0.1250(5) 0.6908(4) 0.21549(9)
O5_4 O 0.7401(3) 0.2819(3) 0.49622(7)
N1_4 N 0.6394(4) 0.0859(4) 0.47139(9)
H23_4 H 0.882804 0.055037 0.478433
C34_4 C 0.5109(6) 0.0210(6) 0.45091(13)
H24_4 H 0.420478 0.089161 0.447262
C35_4 C 0.6310(5) 0.2207(4) 0.47966(11)
H27_4 H 0.536962 0.274117 0.472686
C32_4 C 0.0290(5) 0.3596(5) 0.45519(10)
C2_4 C 0.0313(5) 0.1309(5) 0.08232(10)
C3_4 C 0.1450(5) 0.0584(4) 0.09902(9)
C4_4 C 0.2029(5) 0.0876(4) 0.13179(9)
C5_4 C 0.1479(5) 0.2028(4) 0.14936(9)
H3_4 H 0.066016 0.264473 0.140395
C6_4 C 0.2109(5) 0.2289(4) 0.17987(9)
H4_4 H 0.175169 0.310161 0.191279
C7_4 C 0.3266(5) 0.1363(4) 0.19388(9)
C8_4 C 0.3793(5) 0.0214(5) 0.17666(10)
C10_4 C 0.4004(5) 0.1711(4) 0.22615(9)
C11_4 C 0.3073(5) 0.1500(4) 0.25362(9)
C12_4 C 0.1449(5) 0.0890(4) 0.25249(10)
H7_4 H 0.100889 0.055983 0.232640
C13_4 C 0.0523(5) 0.0770(4) 0.27877(10)
C14_4 C 0.1165(5) 0.1216(5) 0.30862(10)
H9_4 H 0.050031 0.114465 0.326988
C15_4 C 0.2730(5) 0.1749(4) 0.31136(10)
H10_4 H 0.314996 0.202212 0.331805
C16_4 C 0.3750(5) 0.1908(4) 0.28451(9)
C17_4 C 0.5353(5) 0.2501(4) 0.28660(9)
C18_4 C 0.6267(4) 0.2736(4) 0.25896(9)
C19_4 C 0.7865(5) 0.3397(4) 0.25961(10)
H11_4 H 0.834243 0.367094 0.279604
C20_4 C 0.8721(5) 0.3647(4) 0.23285(10)
H12_4 H 0.977962 0.409077 0.234198
C21_4 C 0.8037(5) 0.3247(4) 0.20276(10)
H13_4 H 0.863781 0.342625 0.183933
C22_4 C 0.6532(5) 0.2609(4) 0.20069(9)
H14_4 H 0.609586 0.234382 0.180313
C23_4 C 0.5585(5) 0.2324(4) 0.22830(9)
C24_4 C 0.6097(5) 0.2881(4) 0.31916(9)
C25_4 C 0.6356(5) 0.4277(5) 0.32766(9)
H15_3 H 0.603644 0.501788 0.313404
C26_4 C 0.7086(5) 0.4605(5) 0.35708(9)
H16_3 H 0.725988 0.557181 0.362800
C27_4 C 0.7566(5) 0.3537(4) 0.37825(9)
C28_4 C 0.7253(5) 0.2130(5) 0.36958(10)
H17_4 H 0.753734 0.138474 0.383992
C29_4 C 0.6535(5) 0.1807(5) 0.34023(10)
H18_4 H 0.634048 0.084281 0.334516
C30_4 C 0.8420(5) 0.3923(5) 0.40836(9)
H19_4 H 0.832780 0.488410 0.415040
C31_4 C 0.9313(5) 0.3058(5) 0.42727(10)
H20_4 H 0.932354 0.206828 0.422732
H21_2 H 0.270134 0.532271 0.002550
O1_3 O 0.1504(3) 0.8534(3) 0.96197(7)
C1_3 C 0.0211(5) 0.9146(5) 0.95006(9)
H1_3 H 0.017023 0.786636 0.908641
H8_3 H 0.056452 0.961737 0.722862
C33_4 C 0.7809(6) 0.9992(5) 0.48041(17)
H21_3 H 0.770134 0.967729 0.502550
H22_4 H 0.785523 0.916087 0.466367
H25_4 H 0.558633 0.994664 0.430438
H26_4 H 0.467691 0.935874 0.461324
H15_4 H 0.896356 0.001788 0.186596
H16_4 H 0.774012 0.057181 0.137200
O1_4 O 0.8496(3) 0.1466(3) 0.03803(7)
C1_4 C 0.9789(5) 0.0854(5) 0.04994(9)
H1_4 H 0.982977 0.213364 0.091359
H8_4 H 0.943548 0.038263 0.277138
H21_4 H 0.729866 0.467729 0.997450
loop_
_geom_bond_atom_site_label_1
_geom_bond_atom_site_label_2
_geom_bond_site_symmetry_1
_geom_bond_site_symmetry_2
O3 C32 1_555 1_555
O4 C32 1_555 1_555
C18 C17 1_555 1_555
C19 C18 1_555 1_555
H11 C19 1_555 1_555
C20 C19 1_555 1_555
H12 C20 1_555 1_555
C21 C20 1_555 1_555
H13 C21 1_555 1_555
C22 C21 1_555 1_555
H14 C22 1_555 1_555
C24 C17 1_555 1_555
C25 C24 1_555 1_555
C26 C25 1_555 1_555
C27 C26 1_555 1_555
C28 C27 1_555 1_555
H17 C28 1_555 1_555
C29 C24 1_555 1_555
H18 C29 1_555 1_555
C30 C27 1_555 1_555
H19 C30 1_555 1_555
C31 C30 1_555 1_555
H20 C31 1_555 1_555
C32 C31 1_555 1_555
Cd4 O3 1_555 1_555
O4 Cd4 1_555 1_555
C18 C23 1_555 1_555
C22 C23 1_555 1_555
C28 C29 1_555 1_555
N1 C33 1_555 1_555
H22 C33 1_555 1_555
H23 C33 1_555 1_555
C34 N1 1_555 1_555
H25 C34 1_555 1_555
C35 O5 1_555 1_555
H27 C35 1_555 1_555
N1 C35 1_555 1_555
H6 C9 1_555 1_555
Cd4 O2 1_555 1_555
O6 Cd2 1_555 1_555
O7 Cd2 1_555 1_555
O9 Cd2 1_555 1_555
O7 C32_2 1_555 1_555
O9 C32_2 1_555 1_555
C18_2 C17_2 1_555 1_555
C19_2 C18_2 1_555 1_555
H11_2 C19_2 1_555 1_555
C20_2 C19_2 1_555 1_555
H12_2 C20_2 1_555 1_555
C21_2 C20_2 1_555 1_555
H13_2 C21_2 1_555 1_555
C22_2 C21_2 1_555 1_555
H14_2 C22_2 1_555 1_555
C24_2 C17_2 1_555 1_555
C25_2 C24_2 1_555 1_555
C26_2 C25_2 1_555 1_555
C27_2 C26_2 1_555 1_555
C28_2 C27_2 1_555 1_555
H17_2 C28_2 1_555 1_555
C29_2 C24_2 1_555 1_555
H18_2 C29_2 1_555 1_555
C30_2 C27_2 1_555 1_555
H19_2 C30_2 1_555 1_555
C31_2 C30_2 1_555 1_555
H20_2 C31_2 1_555 1_555
C32_2 C31_2 1_555 1_555
C18_2 C23_2 1_555 1_555
C22_2 C23_2 1_555 1_555
C28_2 C29_2 1_555 1_555
H6_2 C9_2 1_555 1_555
N1_2 C33_2 1_555 1_555
H22_2 C33_2 1_555 1_555
H23_2 C33_2 1_555 1_555
C34_2 N1_2 1_555 1_555
H25_2 C34_2 1_555 1_555
C35_2 O5_2 1_555 1_555
H27_2 C35_2 1_555 1_555
N1_2 C35_2 1_555 1_555
C33_3 H21 1_555 1_555
H22_3 C33_3 1_555 1_555
Cd1 O1 1_555 1_555
O1 C1 1_555 1_555
O2_2 C1 1_555 1_555
C1 C2 1_555 1_555
C2 H1 1_555 1_555
C3 C2 1_555 1_555
H2_3 C3 1_555 1_555
C4 C3 1_555 1_555
C5 C4 1_555 1_555
H3 C5 1_555 1_555
C6 C5 1_555 1_555
H4 C6 1_555 1_555
C7 C6 1_555 1_555
C8 C7 1_555 1_555
H5_3 C8 1_555 1_555
C9_3 C4 1_555 1_555
H6_3 C9_3 1_555 1_555
C10 C7 1_555 1_555
C11 C10 1_555 1_555
C12 C11 1_555 1_555
H7 C12 1_555 1_555
C13 C12 1_555 1_555
H8 C13 1_555 1_555
C14 C13 1_555 1_555
H9 C14 1_555 1_555
C15 C14 1_555 1_555
H10 C15 1_555 1_555
C16 C11 1_555 1_555
O5_3 Cd1 1_555 1_555
C34_3 N1_3 1_555 1_555
H24_3 C34_3 1_555 1_555
C35_3 O5_3 1_555 1_555
H27_3 C35_3 1_555 1_555
Cd3 O2_2 1_555 1_555
O6_2 Cd1 1_555 1_555
O7_2 Cd1 1_555 1_555
O9_2 Cd1 1_555 1_555
C8 C9_3 1_555 1_555
C15 C16 1_555 1_555
N1_3 C35_3 1_555 1_555
C3_2 C2_2 1_555 1_555
C4_2 C3_2 1_555 1_555
C5_2 C4_2 1_555 1_555
H3_2 C5_2 1_555 1_555
C6_2 C5_2 1_555 1_555
H4_2 C6_2 1_555 1_555
C7_2 C6_2 1_555 1_555
C8_2 C7_2 1_555 1_555
C10_2 C7_2 1_555 1_555
C11_2 C10_2 1_555 1_555
C12_2 C11_2 1_555 1_555
H7_2 C12_2 1_555 1_555
C13_2 C12_2 1_555 1_555
C14_2 C13_2 1_555 1_555
H9_2 C14_2 1_555 1_555
C15_2 C14_2 1_555 1_555
H10_2 C15_2 1_555 1_555
C16_2 C11_2 1_555 1_555
C17_3 C16_2 1_555 1_555
C18_3 C17_3 1_555 1_555
C19_3 C18_3 1_555 1_555
H11_3 C19_3 1_555 1_555
C20_3 C19_3 1_555 1_555
H12_3 C20_3 1_555 1_555
C21_3 C20_3 1_555 1_555
H13_3 C21_3 1_555 1_555
C22_3 C21_3 1_555 1_555
H14_3 C22_3 1_555 1_555
C23_3 C10_2 1_555 1_555
C24_3 C17_3 1_555 1_555
C25_3 C24_3 1_555 1_555
H15_2 C25_3 1_555 1_555
C26_3 C25_3 1_555 1_555
H16_2 C26_3 1_555 1_555
C27_3 C26_3 1_555 1_555
C28_3 C27_3 1_555 1_555
H17_3 C28_3 1_555 1_555
C29_3 C24_3 1_555 1_555
H18_3 C29_3 1_555 1_555
C30_3 C27_3 1_555 1_555
H19_3 C30_3 1_555 1_555
C31_3 C30_3 1_555 1_555
H20_3 C31_3 1_555 1_555
C15_2 C16_2 1_555 1_555
C18_3 C23_3 1_555 1_555
C22_3 C23_3 1_555 1_555
C28_3 C29_3 1_555 1_555
O3_2 C32_3 1_555 1_555
O8 C32_3 1_555 1_555
Cd3 O3_2 1_555 1_555
O8 Cd3 1_555 1_555
Cd3 O1_2 1_555 1_555
O1_2 C1_2 1_555 1_555
O6_2 C1_2 1_555 1_555
C1_2 C2_3 1_555 1_555
C2_3 H1_2 1_555 1_555
C3_3 C2_3 1_555 1_555
H2_4 C3_3 1_555 1_555
C4_3 C3_3 1_555 1_555
C5_3 C4_3 1_555 1_555
H3_3 C5_3 1_555 1_555
C6_3 C5_3 1_555 1_555
H4_3 C6_3 1_555 1_555
C7_3 C6_3 1_555 1_555
C8_3 C7_3 1_555 1_555
H5_4 C8_3 1_555 1_555
C9_4 C4_3 1_555 1_555
H6_4 C9_4 1_555 1_555
C10_3 C7_3 1_555 1_555
C11_3 C10_3 1_555 1_555
C12_3 C11_3 1_555 1_555
H7_3 C12_3 1_555 1_555
C13_3 C12_3 1_555 1_555
H8_2 C13_3 1_555 1_555
C14_3 C13_3 1_555 1_555
H9_3 C14_3 1_555 1_555
C15_3 C14_3 1_555 1_555
H10_3 C15_3 1_555 1_555
C16_3 C11_3 1_555 1_555
O5_4 Cd3 1_555 1_555
C34_4 N1_4 1_555 1_555
H24_4 C34_4 1_555 1_555
C35_4 O5_4 1_555 1_555
H27_4 C35_4 1_555 1_555
C8_3 C9_4 1_555 1_555
C15_3 C16_3 1_555 1_555
N1_4 C35_4 1_555 1_555
O7_2 C32_4 1_555 1_555
O9_2 C32_4 1_555 1_555
C3_4 C2_4 1_555 1_555
C4_4 C3_4 1_555 1_555
C5_4 C4_4 1_555 1_555
H3_4 C5_4 1_555 1_555
C6_4 C5_4 1_555 1_555
H4_4 C6_4 1_555 1_555
C7_4 C6_4 1_555 1_555
C8_4 C7_4 1_555 1_555
C10_4 C7_4 1_555 1_555
C11_4 C10_4 1_555 1_555
C12_4 C11_4 1_555 1_555
H7_4 C12_4 1_555 1_555
C13_4 C12_4 1_555 1_555
C14_4 C13_4 1_555 1_555
H9_4 C14_4 1_555 1_555
C15_4 C14_4 1_555 1_555
H10_4 C15_4 1_555 1_555
C16_4 C11_4 1_555 1_555
C17_4 C16_4 1_555 1_555
C18_4 C17_4 1_555 1_555
C19_4 C18_4 1_555 1_555
H11_4 C19_4 1_555 1_555
C20_4 C19_4 1_555 1_555
H12_4 C20_4 1_555 1_555
C21_4 C20_4 1_555 1_555
H13_4 C21_4 1_555 1_555
C22_4 C21_4 1_555 1_555
H14_4 C22_4 1_555 1_555
C23_4 C10_4 1_555 1_555
C24_4 C17_4 1_555 1_555
C25_4 C24_4 1_555 1_555
H15_3 C25_4 1_555 1_555
C26_4 C25_4 1_555 1_555
H16_3 C26_4 1_555 1_555
C27_4 C26_4 1_555 1_555
C28_4 C27_4 1_555 1_555
H17_4 C28_4 1_555 1_555
C29_4 C24_4 1_555 1_555
H18_4 C29_4 1_555 1_555
C30_4 C27_4 1_555 1_555
H19_4 C30_4 1_555 1_555
C31_4 C30_4 1_555 1_555
H20_4 C31_4 1_555 1_555
C15_4 C16_4 1_555 1_555
C18_4 C23_4 1_555 1_555
C22_4 C23_4 1_555 1_555
C28_4 C29_4 1_555 1_555
O1_3 C1_3 1_555 1_555
C33_4 H21_3 1_555 1_555
H22_4 C33_4 1_555 1_555
O1_4 C1_4 1_555 1_555

#END
