
###############################################################################
#
# This file contains modified crystal structure data generated from the
# MOF subset of the Cambridge Structural Database (CSD) v543 
# hosted by the Cambridge Crystallographic Data Centre (CCDC).
#
# This work is licensed under the Creative Commons
# Attribution-NonCommercial-ShareAlike 4.0 International License.
# To view a copy of this license, visit
# http://creativecommons.org/licenses/by-nc-sa/4.0/
# or send a letter to
# Creative Commons, PO Box 1866, Mountain View, CA 94042, USA.
#
# CIF created using the CSD Python API on 29 September 2022
# The structure has been converted into the P1 space group
# The structure has a 3D framework
# The original CSD entry MUGQAI is in the orthorhombic crystal system
# The framework has been calculated to contain at least 10.0% void space
# The void calculation uses a probe of radius 1.32A, grid spacing 0.4
#
###############################################################################

data_MUGQAI
_chemical_formula_moiety         '(C112 H64 Cu18 N58)n'
_symmetry_cell_setting           triclinic
_symmetry_space_group_name_H-M   'P 1'
_symmetry_Int_Tables_number      1
_space_group_name_Hall           'P 1'
loop_
_symmetry_equiv_pos_site_id
_symmetry_equiv_pos_as_xyz
1 x,y,z
_cell_length_a                   14.6978(14)
_cell_length_b                   19.3933(17)
_cell_length_c                   10.3560(9)
_cell_angle_alpha                90
_cell_angle_beta                 90
_cell_angle_gamma                90
_cell_volume                     2951.86
loop_
_atom_site_label
_atom_site_type_symbol
_atom_site_fract_x
_atom_site_fract_y
_atom_site_fract_z
Cu1 Cu 0.0000 0.26499(4) 0.2500
Cu2 Cu 0.5000 0.50941(4) 0.7500
Cu3 Cu 0.34552(5) 0.38215(3) 0.75452(6)
N1 N 0.0947(3) 0.33589(19) 0.3296(4)
N2 N 0.3276(3) 0.52242(17) 0.4449(3)
N3 N 0.3442(3) 0.45002(17) 0.6134(3)
N4 N 0.4065(3) 0.50304(17) 0.6251(3)
N5 N 0.5097(3) 0.62976(18) 0.5822(4)
N6 N 0.4423(3) 0.64023(16) 0.3883(3)
N7 N 0.5033(3) 0.69355(17) 0.4000(4)
N8 N 0.7421(3) 0.8177(2) 0.6824(4)
C1 C 0.1271(4) 0.3929(3) 0.2719(5)
H1 H 0.1037 0.4045 0.1913
C2 C 0.1930(4) 0.4353(2) 0.3247(5)
H2 H 0.2145 0.4730 0.2783
C3 C 0.2266(3) 0.4216(2) 0.4465(4)
C4 C 0.1894(4) 0.3653(3) 0.5104(5)
H3 H 0.2070 0.3553 0.5946
C5 C 0.1260(4) 0.3243(3) 0.4481(5)
H4 H 0.1038 0.2860 0.4921
C6 C 0.2992(3) 0.4642(2) 0.5036(4)
C7 C 0.3934(3) 0.5431(2) 0.5229(4)
C8 C 0.4486(3) 0.6049(2) 0.4978(4)
C9 C 0.5408(3) 0.6851(2) 0.5178(4)
C10 C 0.6086(3) 0.7319(2) 0.5737(4)
C11 C 0.6349(4) 0.7923(3) 0.5148(5)
H5 H 0.6089 0.8053 0.4367
C12 C 0.7005(4) 0.8339(3) 0.5722(5)
H6 H 0.7161 0.8750 0.5317
C13 C 0.7160(4) 0.7587(3) 0.7386(5)
H7 H 0.7440 0.7464 0.8158
C14 C 0.6505(4) 0.7150(3) 0.6896(5)
H8 H 0.6346 0.6749 0.7335
Cu6 Cu 0.5000 0.76499(4) 0.2500
Cu9 Cu 0.84552(5) 0.88215(3) 0.74548(6)
Cu11 Cu 0.34552(5) 0.61785(3) 0.25452(6)
N18 N 0.3276(3) 0.47758(17) 0.9449(3)
N19 N 0.5935(3) 0.50304(17) 0.8749(3)
N21 N 0.4423(3) 0.35977(16) 0.8883(3)
N22 N 0.0033(3) 0.19355(17) 0.1000(4)
N24 N 0.2421(3) 0.3177(2) 0.8176(4)
Cu1_2 Cu 1.0000 0.26499(4) 0.2500
N9 N 0.9053(3) 0.33589(19) 0.1704(4)
N10 N 0.6724(3) 0.52242(17) 0.0551(3)
N14 N 0.5577(3) 0.64023(16) 0.1117(3)
N15 N 0.4967(3) 0.69355(17) 0.1000(4)
C15 C 0.8729(4) 0.3929(3) 0.2281(5)
H9 H 0.8963 0.4045 0.3087
C16 C 0.8070(4) 0.4353(2) 0.1753(5)
H10 H 0.7855 0.4730 0.2217
C17 C 0.7734(3) 0.4216(2) 0.0535(4)
C19 C 0.8740(4) 0.3243(3) 0.0519(5)
H12 H 0.8962 0.2860 0.0079
C22 C 0.5514(3) 0.6049(2) 0.0022(4)
H13 H 0.3911 0.8053 0.0633
Cu8 Cu 0.65448(5) 0.61785(3) 0.24548(6)
N23 N 0.9967(3) 0.19355(17) 0.4000(4)
Cu4 Cu 0.65448(5) 0.38215(3) 0.74548(6)
N11 N 0.6558(3) 0.45002(17) 0.8866(3)
N13 N 0.4903(3) 0.62976(18) 0.9178(4)
N16 N 0.2579(3) 0.8177(2) 0.8176(4)
C18 C 0.8106(4) 0.3653(3) 0.9896(5)
H11 H 0.7930 0.3553 0.9054
C20 C 0.7008(3) 0.4642(2) 0.9964(4)
C21 C 0.6066(3) 0.5431(2) 0.9771(4)
C23 C 0.4592(3) 0.6851(2) 0.9822(4)
C24 C 0.3914(3) 0.7319(2) 0.9263(4)
C25 C 0.3651(4) 0.7923(3) 0.9852(5)
C26 C 0.2995(4) 0.8339(3) 0.9278(5)
H14 H 0.2839 0.8750 0.9683
C27 C 0.2840(4) 0.7587(3) 0.7614(5)
H15 H 0.2560 0.7464 0.6842
C28 C 0.3495(4) 0.7150(3) 0.8104(5)
H16 H 0.3654 0.6749 0.7665
Cu10 Cu 0.15448(5) 0.88215(3) 0.75452(6)
N17 N 0.6724(3) 0.47758(17) 0.5551(3)
N20 N 0.5577(3) 0.35977(16) 0.6117(3)
N25 N 0.7579(3) 0.3177(2) 0.6824(4)
N13_2 N 0.0097(3) 0.87024(18) 0.4178(4)
N15_2 N 0.0033(3) 0.80645(17) 0.6000(4)
N16_2 N 0.2421(3) 0.6823(2) 0.3176(4)
C23_2 C 0.0408(3) 0.8149(2) 0.4822(4)
C24_2 C 0.1086(3) 0.7681(2) 0.4263(4)
C25_2 C 0.1349(4) 0.7077(3) 0.4852(5)
H13_2 H 0.1089 0.6947 0.5633
C26_2 C 0.2005(4) 0.6661(3) 0.4278(5)
H14_2 H 0.2161 0.6250 0.4683
C27_2 C 0.2160(4) 0.7413(3) 0.2614(5)
H15_2 H 0.2440 0.7536 0.1842
C28_2 C 0.1505(4) 0.7850(3) 0.3104(5)
H16_2 H 0.1346 0.8251 0.2665
Cu5 Cu 0.0000 0.73501(4) 0.7500
Cu7 Cu -0.0000 0.99059(4) 0.2500
Cu3_2 Cu 0.15448(5) 0.11785(3) 0.25452(6)
N3_2 N 0.1558(3) 0.04998(17) 0.1134(3)
C4_2 C 0.3106(4) 0.1347(3) 0.0104(5)
H3_2 H 0.2930 0.1447 0.0946
C6_2 C 0.2008(3) 0.0358(2) 0.0036(4)
N18_2 N 0.1724(3) 0.02242(17) 0.4449(3)
N21_2 N 0.0577(3) 0.14023(16) 0.3883(3)
N24_2 N 0.2579(3) 0.1823(2) 0.3176(4)
Cu1_3 Cu 0.5000 0.23501(4) 0.7500
N1_2 N 0.4053(3) 0.16411(19) 0.8296(4)
C1_2 C 0.3729(4) 0.1071(3) 0.7719(5)
H1_2 H 0.3963 0.0955 0.6913
C2_2 C 0.3070(4) 0.0647(2) 0.8247(5)
H2_2 H 0.2855 0.0270 0.7783
C3_2 C 0.2734(3) 0.0784(2) 0.9465(4)
C5_2 C 0.3740(4) 0.1757(3) 0.9481(5)
H4_2 H 0.3962 0.2140 0.9921
Cu4_2 Cu 0.84552(5) 0.11785(3) 0.24548(6)
N9_2 N 0.5947(3) 0.16411(19) 0.6704(4)
N11_2 N 0.8442(3) 0.04998(17) 0.3866(3)
C15_2 C 0.6271(4) 0.1071(3) 0.7281(5)
H9_2 H 0.6037 0.0955 0.8087
C16_2 C 0.6930(4) 0.0647(2) 0.6753(5)
H10_2 H 0.7145 0.0270 0.7217
C17_2 C 0.7266(3) 0.0784(2) 0.5535(4)
C18_2 C 0.6894(4) 0.1347(3) 0.4896(5)
H11_2 H 0.7070 0.1447 0.4054
C19_2 C 0.6260(4) 0.1757(3) 0.5519(5)
H12_2 H 0.6038 0.2140 0.5079
C20_2 C 0.7992(3) 0.0358(2) 0.4964(4)
N17_2 N 0.8276(3) 0.02242(17) 0.0551(3)
N20_2 N 0.9423(3) 0.14023(16) 0.1117(3)
N22_2 N 0.4967(3) 0.30645(17) 0.6000(4)
N23_2 N 0.5033(3) 0.30645(17) 0.9000(4)
N25_2 N 0.7421(3) 0.1823(2) 0.1824(4)
N4_2 N 0.0935(3) 0.99696(17) 0.1251(3)
C7_2 C 0.1066(3) 0.9569(2) 0.0229(4)
N2_2 N 0.1724(3) 0.97758(17) 0.9449(3)
N6_2 N 0.0577(3) 0.85977(16) 0.8883(3)
C8_2 C 0.0514(3) 0.8951(2) 0.9978(4)
N10_2 N 0.8276(3) 0.97758(17) 0.5551(3)
N12 N 0.9065(3) 0.99696(17) 0.3749(3)
N14_2 N 0.9423(3) 0.85977(16) 0.6117(3)
C21_2 C 0.8934(3) 0.9569(2) 0.4771(4)
C22_2 C 0.9486(3) 0.8951(2) 0.5022(4)
Cu5_2 Cu 1.0000 0.73501(4) 0.7500
Cu7_2 Cu 1.0000 0.99059(4) 0.2500
N5_2 N 0.9903(3) 0.87024(18) 0.0822(4)
N8_2 N 0.7579(3) 0.6823(2) 0.1824(4)
C9_2 C 0.9592(3) 0.8149(2) 0.0178(4)
C10_2 C 0.8914(3) 0.7681(2) 0.0737(4)
C11_2 C 0.8651(4) 0.7077(3) 0.0148(5)
C12_2 C 0.7995(4) 0.6661(3) 0.0722(5)
H6_2 H 0.7839 0.6250 0.0317
C13_2 C 0.7840(4) 0.7413(3) 0.2386(5)
H7_2 H 0.7560 0.7536 0.3158
C14_2 C 0.8495(4) 0.7850(3) 0.1896(5)
H8_2 H 0.8654 0.8251 0.2335
N7_2 N 0.9967(3) 0.80645(17) 0.9000(4)
H5_2 H 0.8911 0.6947 0.9367
N11_3 N 0.3442(3) 0.54998(17) 0.1134(3)
N12_2 N 0.4065(3) 0.49696(17) 0.1251(3)
N13_3 N 0.5097(3) 0.37024(18) 0.0822(4)
C18_3 C 0.1894(4) 0.6347(3) 0.0104(5)
H11_3 H 0.2070 0.6447 0.0946
C20_3 C 0.2992(3) 0.5358(2) 0.0036(4)
C21_3 C 0.3934(3) 0.4569(2) 0.0229(4)
C23_3 C 0.5408(3) 0.3149(2) 0.0178(4)
C24_3 C 0.6086(3) 0.2681(2) 0.0737(4)
C25_3 C 0.6349(4) 0.2077(3) 0.0148(5)
C26_3 C 0.7005(4) 0.1661(3) 0.0722(5)
H14_3 H 0.7161 0.1250 0.0317
C27_3 C 0.7160(4) 0.2413(3) 0.2386(5)
H15_3 H 0.7440 0.2536 0.3158
C28_3 C 0.6505(4) 0.2850(3) 0.1896(5)
H16_3 H 0.6346 0.3251 0.2335
Cu7_3 Cu 0.5000 0.49059(4) 0.2500
N9_3 N 0.0947(3) 0.66411(19) 0.8296(4)
C15_3 C 0.1271(4) 0.6071(3) 0.7719(5)
H9_3 H 0.1037 0.5955 0.6913
C16_3 C 0.1930(4) 0.5647(2) 0.8247(5)
H10_3 H 0.2145 0.5270 0.7783
C17_3 C 0.2266(3) 0.5784(2) 0.9465(4)
C19_3 C 0.1260(4) 0.6757(3) 0.9481(5)
H12_3 H 0.1038 0.7140 0.9921
C22_3 C 0.4486(3) 0.3951(2) 0.9978(4)
H13_3 H 0.6089 0.1947 0.9367
N1_3 N 0.9053(3) 0.66411(19) 0.6704(4)
N3_3 N 0.6558(3) 0.54998(17) 0.3866(3)
N4_3 N 0.5935(3) 0.49696(17) 0.3749(3)
N5_3 N 0.4903(3) 0.37024(18) 0.4178(4)
C1_3 C 0.8729(4) 0.6071(3) 0.7281(5)
H1_3 H 0.8963 0.5955 0.8087
C2_3 C 0.8070(4) 0.5647(2) 0.6753(5)
H2_3 H 0.7855 0.5270 0.7217
C3_3 C 0.7734(3) 0.5784(2) 0.5535(4)
C4_3 C 0.8106(4) 0.6347(3) 0.4896(5)
H3_3 H 0.7930 0.6447 0.4054
C5_3 C 0.8740(4) 0.6757(3) 0.5519(5)
H4_3 H 0.8962 0.7140 0.5079
C6_3 C 0.7008(3) 0.5358(2) 0.4964(4)
C7_3 C 0.6066(3) 0.4569(2) 0.4771(4)
C8_3 C 0.5514(3) 0.3951(2) 0.5022(4)
C9_3 C 0.4592(3) 0.3149(2) 0.4822(4)
C10_3 C 0.3914(3) 0.2681(2) 0.4263(4)
C11_3 C 0.3651(4) 0.2077(3) 0.4852(5)
H5_3 H 0.3911 0.1947 0.5633
C12_3 C 0.2995(4) 0.1661(3) 0.4278(5)
H6_3 H 0.2839 0.1250 0.4683
C13_3 C 0.2840(4) 0.2413(3) 0.2614(5)
H7_3 H 0.2560 0.2536 0.1842
C14_3 C 0.3495(4) 0.2850(3) 0.3104(5)
H8_3 H 0.3654 0.3251 0.2665
H5_4 H 0.1089 0.3053 0.0633
Cu2_2 Cu 0.0000 0.00941(4) 0.7500
N5_4 N 0.0097(3) 0.12976(18) 0.9178(4)
C9_4 C 0.0408(3) 0.1851(2) 0.9822(4)
C10_4 C 0.1086(3) 0.2319(2) 0.9263(4)
C11_4 C 0.1349(4) 0.2923(3) 0.9852(5)
C12_4 C 0.2005(4) 0.3339(3) 0.9278(5)
H6_4 H 0.2161 0.3750 0.9683
C13_4 C 0.2160(4) 0.2587(3) 0.7614(5)
H7_4 H 0.2440 0.2464 0.6842
C14_4 C 0.1505(4) 0.2150(3) 0.8104(5)
H8_4 H 0.1346 0.1749 0.7665
N19_2 N 0.0935(3) 0.00304(17) 0.6251(3)
C8_4 C 0.9486(3) 0.1049(2) 0.0022(4)
C21_4 C 0.1066(3) 0.0431(2) 0.5229(4)
C22_4 C 0.0514(3) 0.1049(2) 0.4978(4)
Cu2_3 Cu 1.0000 0.00941(4) 0.7500
N4_4 N 0.9065(3) 0.00304(17) 0.8749(3)
C7_4 C 0.8934(3) 0.0431(2) 0.9771(4)
N1_4 N 0.5947(3) 0.83589(19) 0.1704(4)
C1_4 C 0.6271(4) 0.8929(3) 0.2281(5)
H1_4 H 0.6037 0.9045 0.3087
C2_4 C 0.6930(4) 0.9353(2) 0.1753(5)
H2_4 H 0.7145 0.9730 0.2217
C3_4 C 0.7266(3) 0.9216(2) 0.0535(4)
C5_4 C 0.6260(4) 0.8243(3) 0.0519(5)
H4_4 H 0.6038 0.7860 0.0079
N9_4 N 0.4053(3) 0.83589(19) 0.3296(4)
N11_4 N 0.1558(3) 0.95002(17) 0.6134(3)
C15_4 C 0.3729(4) 0.8929(3) 0.2719(5)
H9_4 H 0.3963 0.9045 0.1913
C16_4 C 0.3070(4) 0.9353(2) 0.3247(5)
H10_4 H 0.2855 0.9730 0.2783
C17_4 C 0.2734(3) 0.9216(2) 0.4465(4)
C18_4 C 0.3106(4) 0.8653(3) 0.5104(5)
H11_4 H 0.2930 0.8553 0.5946
C19_4 C 0.3740(4) 0.8243(3) 0.4481(5)
H12_4 H 0.3962 0.7860 0.4921
C20_4 C 0.2008(3) 0.9642(2) 0.5036(4)
N3_4 N 0.8442(3) 0.95002(17) 0.8866(3)
C4_4 C 0.6894(4) 0.8653(3) 0.9896(5)
H3_4 H 0.7070 0.8553 0.9054
C6_4 C 0.7992(3) 0.9642(2) 0.9964(4)
N13_4 N 0.9903(3) 0.12976(18) 0.5822(4)
C23_4 C 0.9592(3) 0.1851(2) 0.5178(4)
C24_4 C 0.8914(3) 0.2319(2) 0.5737(4)
C25_4 C 0.8651(4) 0.2923(3) 0.5148(5)
H13_4 H 0.8911 0.3053 0.4367
C26_4 C 0.7995(4) 0.3339(3) 0.5722(5)
H14_4 H 0.7839 0.3750 0.5317
C27_4 C 0.7840(4) 0.2587(3) 0.7386(5)
H15_4 H 0.7560 0.2464 0.8158
C28_4 C 0.8495(4) 0.2150(3) 0.6896(5)
H16_4 H 0.8654 0.1749 0.7335
loop_
_geom_bond_atom_site_label_1
_geom_bond_atom_site_label_2
_geom_bond_site_symmetry_1
_geom_bond_site_symmetry_2
Cu1 N1 1_555 1_555
Cu2 N4 1_555 1_555
Cu3 N3 1_555 1_555
N1 C1 1_555 1_555
N2 C6 1_555 1_555
N3 N4 1_555 1_555
N4 C7 1_555 1_555
N5 C8 1_555 1_555
N6 N7 1_555 1_555
N7 C9 1_555 1_555
N8 C12 1_555 1_555
C1 H1 1_555 1_555
C2 C1 1_555 1_555
H2 C2 1_555 1_555
C3 C2 1_555 1_555
C4 C3 1_555 1_555
H3 C4 1_555 1_555
C5 N1 1_555 1_555
H4 C5 1_555 1_555
C6 N3 1_555 1_555
C7 N2 1_555 1_555
C8 N6 1_555 1_555
C9 N5 1_555 1_555
C10 C9 1_555 1_555
C11 C10 1_555 1_555
H5 C11 1_555 1_555
C12 C11 1_555 1_555
H6 C12 1_555 1_555
C13 N8 1_555 1_555
H7 C13 1_555 1_555
C14 C10 1_555 1_555
H8 C14 1_555 1_555
Cu6 N7 1_555 1_555
Cu9 N8 1_555 1_555
Cu11 N2 1_555 1_555
N18 Cu3 1_555 1_555
N19 Cu2 1_555 1_555
N21 Cu3 1_555 1_555
N22 Cu1 1_555 1_555
N24 Cu3 1_555 1_555
N6 Cu11 1_555 1_555
C3 C6 1_555 1_555
C4 C5 1_555 1_555
C7 C8 1_555 1_555
C13 C14 1_555 1_555
N9 Cu1_2 1_555 1_555
N14 N15 1_555 1_555
C15 N9 1_555 1_555
H9 C15 1_555 1_555
C16 C15 1_555 1_555
H10 C16 1_555 1_555
C17 C16 1_555 1_555
C19 N9 1_555 1_555
H12 C19 1_555 1_555
C22 N14 1_555 1_555
Cu6 N15 1_555 1_555
Cu8 N10 1_555 1_555
N23 Cu1_2 1_555 1_555
N14 Cu8 1_555 1_555
Cu4 N11 1_555 1_555
N11 N19 1_555 1_555
N19 C21 1_555 1_555
N16 C26 1_555 1_555
H11 C18 1_555 1_555
C20 N11 1_555 1_555
C23 N13 1_555 1_555
C24 C23 1_555 1_555
C25 C24 1_555 1_555
C26 C25 1_555 1_555
H14 C26 1_555 1_555
C27 N16 1_555 1_555
H15 C27 1_555 1_555
C28 C24 1_555 1_555
H16 C28 1_555 1_555
Cu10 N16 1_555 1_555
N17 Cu4 1_555 1_555
N20 Cu4 1_555 1_555
N25 Cu4 1_555 1_555
C27 C28 1_555 1_555
N15_2 C23_2 1_555 1_555
N16_2 C26_2 1_555 1_555
C23_2 N13_2 1_555 1_555
C24_2 C23_2 1_555 1_555
C25_2 C24_2 1_555 1_555
H13_2 C25_2 1_555 1_555
C26_2 C25_2 1_555 1_555
H14_2 C26_2 1_555 1_555
C27_2 N16_2 1_555 1_555
H15_2 C27_2 1_555 1_555
C28_2 C24_2 1_555 1_555
H16_2 C28_2 1_555 1_555
Cu5 N15_2 1_555 1_555
Cu11 N16_2 1_555 1_555
C27_2 C28_2 1_555 1_555
Cu3_2 N3_2 1_555 1_555
H3_2 C4_2 1_555 1_555
C6_2 N3_2 1_555 1_555
N18_2 Cu3_2 1_555 1_555
N21_2 Cu3_2 1_555 1_555
N24_2 Cu3_2 1_555 1_555
Cu1_3 N1_2 1_555 1_555
N1_2 C1_2 1_555 1_555
C1_2 H1_2 1_555 1_555
C2_2 C1_2 1_555 1_555
H2_2 C2_2 1_555 1_555
C3_2 C2_2 1_555 1_555
C5_2 N1_2 1_555 1_555
H4_2 C5_2 1_555 1_555
Cu4_2 N11_2 1_555 1_555
N9_2 Cu1_3 1_555 1_555
C15_2 N9_2 1_555 1_555
H9_2 C15_2 1_555 1_555
C16_2 C15_2 1_555 1_555
H10_2 C16_2 1_555 1_555
C17_2 C16_2 1_555 1_555
C18_2 C17_2 1_555 1_555
H11_2 C18_2 1_555 1_555
C19_2 N9_2 1_555 1_555
H12_2 C19_2 1_555 1_555
C20_2 N11_2 1_555 1_555
N17_2 Cu4_2 1_555 1_555
N20_2 Cu4_2 1_555 1_555
N22_2 Cu1_3 1_555 1_555
N23_2 Cu1_3 1_555 1_555
N25_2 Cu4_2 1_555 1_555
C17_2 C20_2 1_555 1_555
C18_2 C19_2 1_555 1_555
Cu7 N4_2 1_555 1_555
N4_2 C7_2 1_555 1_555
C8_2 N6_2 1_555 1_555
N12 C21_2 1_555 1_555
C21_2 N10_2 1_555 1_555
C22_2 N14_2 1_555 1_555
Cu7_2 N12 1_555 1_555
Cu9 N10_2 1_555 1_555
Cu10 N2_2 1_555 1_555
N6_2 Cu10 1_555 1_555
N14_2 Cu9 1_555 1_555
C21_2 C22_2 1_555 1_555
N8_2 C12_2 1_555 1_555
C9_2 N5_2 1_555 1_555
C10_2 C9_2 1_555 1_555
C11_2 C10_2 1_555 1_555
C12_2 C11_2 1_555 1_555
H6_2 C12_2 1_555 1_555
C13_2 N8_2 1_555 1_555
H7_2 C13_2 1_555 1_555
C14_2 C10_2 1_555 1_555
H8_2 C14_2 1_555 1_555
Cu8 N8_2 1_555 1_555
C13_2 C14_2 1_555 1_555
Cu5_2 N7_2 1_555 1_555
Cu11 N11_3 1_555 1_555
N11_3 N12_2 1_555 1_555
N12_2 C21_3 1_555 1_555
N25_2 C26_3 1_555 1_555
H11_3 C18_3 1_555 1_555
C20_3 N11_3 1_555 1_555
C23_3 N13_3 1_555 1_555
C24_3 C23_3 1_555 1_555
C25_3 C24_3 1_555 1_555
C26_3 C25_3 1_555 1_555
H14_3 C26_3 1_555 1_555
C27_3 N25_2 1_555 1_555
H15_3 C27_3 1_555 1_555
C28_3 C24_3 1_555 1_555
H16_3 C28_3 1_555 1_555
Cu7_3 N12_2 1_555 1_555
C27_3 C28_3 1_555 1_555
N9_3 Cu5 1_555 1_555
N21 N23_2 1_555 1_555
C15_3 N9_3 1_555 1_555
H9_3 C15_3 1_555 1_555
C16_3 C15_3 1_555 1_555
H10_3 C16_3 1_555 1_555
C17_3 C16_3 1_555 1_555
C19_3 N9_3 1_555 1_555
H12_3 C19_3 1_555 1_555
C22_3 N21 1_555 1_555
Cu5_2 N1_3 1_555 1_555
Cu7_3 N4_3 1_555 1_555
Cu8 N3_3 1_555 1_555
N1_3 C1_3 1_555 1_555
N17 C6_3 1_555 1_555
N3_3 N4_3 1_555 1_555
N4_3 C7_3 1_555 1_555
N5_3 C8_3 1_555 1_555
N20 N22_2 1_555 1_555
N22_2 C9_3 1_555 1_555
N24_2 C12_3 1_555 1_555
C1_3 H1_3 1_555 1_555
C2_3 C1_3 1_555 1_555
H2_3 C2_3 1_555 1_555
C3_3 C2_3 1_555 1_555
C4_3 C3_3 1_555 1_555
H3_3 C4_3 1_555 1_555
C5_3 N1_3 1_555 1_555
H4_3 C5_3 1_555 1_555
C6_3 N3_3 1_555 1_555
C7_3 N17 1_555 1_555
C8_3 N20 1_555 1_555
C9_3 N5_3 1_555 1_555
C10_3 C9_3 1_555 1_555
C11_3 C10_3 1_555 1_555
H5_3 C11_3 1_555 1_555
C12_3 C11_3 1_555 1_555
H6_3 C12_3 1_555 1_555
C13_3 N24_2 1_555 1_555
H7_3 C13_3 1_555 1_555
C14_3 C10_3 1_555 1_555
H8_3 C14_3 1_555 1_555
C3_3 C6_3 1_555 1_555
C4_3 C5_3 1_555 1_555
C7_3 C8_3 1_555 1_555
C13_3 C14_3 1_555 1_555
N24 C12_4 1_555 1_555
C9_4 N5_4 1_555 1_555
C10_4 C9_4 1_555 1_555
C11_4 C10_4 1_555 1_555
C12_4 C11_4 1_555 1_555
H6_4 C12_4 1_555 1_555
C13_4 N24 1_555 1_555
H7_4 C13_4 1_555 1_555
C14_4 C10_4 1_555 1_555
H8_4 C14_4 1_555 1_555
N19_2 Cu2_2 1_555 1_555
C13_4 C14_4 1_555 1_555
C8_4 N20_2 1_555 1_555
N19_2 C21_4 1_555 1_555
C21_4 N18_2 1_555 1_555
C22_4 N21_2 1_555 1_555
C21_4 C22_4 1_555 1_555
Cu2_3 N4_4 1_555 1_555
N4_4 C7_4 1_555 1_555
Cu6 N1_4 1_555 1_555
N1_4 C1_4 1_555 1_555
C1_4 H1_4 1_555 1_555
C2_4 C1_4 1_555 1_555
H2_4 C2_4 1_555 1_555
C3_4 C2_4 1_555 1_555
C5_4 N1_4 1_555 1_555
H4_4 C5_4 1_555 1_555
Cu10 N11_4 1_555 1_555
N9_4 Cu6 1_555 1_555
C15_4 N9_4 1_555 1_555
H9_4 C15_4 1_555 1_555
C16_4 C15_4 1_555 1_555
H10_4 C16_4 1_555 1_555
C17_4 C16_4 1_555 1_555
C18_4 C17_4 1_555 1_555
H11_4 C18_4 1_555 1_555
C19_4 N9_4 1_555 1_555
H12_4 C19_4 1_555 1_555
C20_4 N11_4 1_555 1_555
C17_4 C20_4 1_555 1_555
C18_4 C19_4 1_555 1_555
Cu9 N3_4 1_555 1_555
H3_4 C4_4 1_555 1_555
C6_4 N3_4 1_555 1_555
N23 C23_4 1_555 1_555
N25 C26_4 1_555 1_555
C23_4 N13_4 1_555 1_555
C24_4 C23_4 1_555 1_555
C25_4 C24_4 1_555 1_555
H13_4 C25_4 1_555 1_555
C26_4 C25_4 1_555 1_555
H14_4 C26_4 1_555 1_555
C27_4 N25 1_555 1_555
H15_4 C27_4 1_555 1_555
C28_4 C24_4 1_555 1_555
H16_4 C28_4 1_555 1_555
C27_4 C28_4 1_555 1_555

#END
