
###############################################################################
#
# This file contains modified crystal structure data generated from the
# MOF subset of the Cambridge Structural Database (CSD) v543 
# hosted by the Cambridge Crystallographic Data Centre (CCDC).
#
# This work is licensed under the Creative Commons
# Attribution-NonCommercial-ShareAlike 4.0 International License.
# To view a copy of this license, visit
# http://creativecommons.org/licenses/by-nc-sa/4.0/
# or send a letter to
# Creative Commons, PO Box 1866, Mountain View, CA 94042, USA.
#
# CIF created using the CSD Python API on 29 September 2022
# The structure has been converted into the P1 space group
# The structure has a 3D framework
# The original CSD entry MUKHIM is in the tetragonal crystal system
# The framework has been calculated to contain at least 10.0% void space
# The void calculation uses a probe of radius 1.32A, grid spacing 0.4
# H atom positions have been added when not included in the experimental data
#
###############################################################################

data_MUKHIM
_chemical_formula_moiety         '(C96 H48 Ga13 O36)n'
_symmetry_cell_setting           triclinic
_symmetry_space_group_name_H-M   'P 1'
_symmetry_Int_Tables_number      1
_space_group_name_Hall           'P 1'
loop_
_symmetry_equiv_pos_site_id
_symmetry_equiv_pos_as_xyz
1 x,y,z
_cell_length_a                   21.3392(3)
_cell_length_b                   21.3392(3)
_cell_length_c                   6.71422(15)
_cell_angle_alpha                90
_cell_angle_beta                 90
_cell_angle_gamma                90
_cell_volume                     3057.4
loop_
_atom_site_label
_atom_site_type_symbol
_atom_site_fract_x
_atom_site_fract_y
_atom_site_fract_z
_atom_site_U_iso_or_equiv
_atom_site_thermal_displace_type
Ga1 Ga 0.500 0.500 0.000 0.0025 Uiso
O1 O 0.4720(5) 0.5280(5) 0.250 0.0127 Uiso
O2 O 0.4921(9) 0.4124(7) 0.070(3) 0.0127 Uiso
O3 O 0.4990(10) 0.4129(8) 0.407(3) 0.0127 Uiso
C1 C 0.4903(10) 0.3873(7) 0.240(5) 0.0025 Uiso
C2 C 0.47467 0.31697 0.27392 0.0025 Uiso
C3 C 0.50016 0.28316 0.1137 0.0025 Uiso
C4 C 0.44475 0.2834 0.43096 0.0025 Uiso
C5 C 0.41262 0.31502 0.58551 0.0025 Uiso
C6 C 0.38068 0.28183 0.73289 0.0025 Uiso
O4 O 0.4921(9) 0.0876(7) 0.070(3) 0.0127 Uiso
O5 O 0.4990(10) 0.0871(8) 0.407(3) 0.0127 Uiso
C7 C 0.4903(10) 0.1127(7) 0.240(5) 0.0025 Uiso
C8 C 0.47467 0.18303 0.27392 0.0025 Uiso
C9 C 0.50016 0.21684 0.1137 0.0025 Uiso
C10 C 0.44475 0.2166 0.43096 0.0025 Uiso
C11 C 0.41262 0.18498 0.58551 0.0025 Uiso
C12 C 0.38068 0.21817 0.73289 0.0025 Uiso
Ga2 Ga 0.500 0.000 0.000 0.0025 Uiso
Ga3 Ga 0.500 0.500 0.500 0.0025 Uiso
Ga4 Ga 0.500 0.000 0.500 0.0025 Uiso
O8 O 0.5871(8) 0.5010(10) 0.093(3) 0.0127 Uiso
H2 H 0.355545 0.192853 0.848869 . .
H4 H 0.412833 0.366037 0.589443 . .
H5 H 0.355545 0.307147 0.848869 . .
H6 H 0.412833 0.133963 0.589443 . .
Ga1_2 Ga 0.500 0.500 1.000 0.0025 Uiso
Ga2_2 Ga 0.500 0.000 1.000 0.0025 Uiso
O6 O 0.5280(5) 0.4720(5) 0.750 0.0127 Uiso
O7 O 0.5079(9) 0.5876(7) 0.930(3) 0.0127 Uiso
O9 O 0.4129(8) 0.4990(10) 0.907(3) 0.0127 Uiso
H1 H 0.520192 0.308328 0.987784 . .
H3 H 0.520192 0.191672 0.987784 . .
Ga2_3 Ga 0.500 1.000 0.000 0.0025 Uiso
Ga4_2 Ga 0.500 1.000 0.500 0.0025 Uiso
Ga2_4 Ga 0.500 1.000 1.000 0.0025 Uiso
O1_2 O 0.5280(5) 0.0280(5) 0.750 0.0127 Uiso
O8_2 O 0.4129(8) 0.0010(10) 0.907(3) 0.0127 Uiso
O6_2 O 0.4720(5) 0.9720(5) 0.250 0.0127 Uiso
O9_2 O 0.5871(8) 0.9990(10) 0.093(3) 0.0127 Uiso
H1_2 H 0.479808 0.808328 0.0122157 . .
H3_2 H 0.479808 0.691672 0.0122157 . .
O2_2 O 0.5079(9) 0.9124(7) 0.930(3) 0.0127 Uiso
O3_2 O 0.5010(10) 0.9129(8) 0.593(3) 0.0127 Uiso
C1_2 C 0.5097(10) 0.8873(7) 0.760(5) 0.0025 Uiso
C2_2 C 0.52533 0.81697 0.72608 0.0025 Uiso
C3_2 C 0.49984 0.78316 0.8863 0.0025 Uiso
C4_2 C 0.55525 0.7834 0.56904 0.0025 Uiso
C5_2 C 0.58738 0.81502 0.41449 0.0025 Uiso
C6_2 C 0.61932 0.78183 0.26711 0.0025 Uiso
O5_2 O 0.5010(10) 0.5871(8) 0.593(3) 0.0127 Uiso
C7_2 C 0.5097(10) 0.6127(7) 0.760(5) 0.0025 Uiso
C8_2 C 0.52533 0.68303 0.72608 0.0025 Uiso
C9_2 C 0.49984 0.71684 0.8863 0.0025 Uiso
C10_2 C 0.55525 0.7166 0.56904 0.0025 Uiso
C11_2 C 0.58738 0.68498 0.41449 0.0025 Uiso
C12_2 C 0.61932 0.71817 0.26711 0.0025 Uiso
H2_2 H 0.644455 0.692853 0.151131 . .
H4_2 H 0.587167 0.866037 0.410557 . .
H5_2 H 0.644455 0.807147 0.151131 . .
H6_2 H 0.587167 0.633963 0.410557 . .
Ga1_3 Ga 0.000 0.000 0.000 0.0025 Uiso
O2_3 O 0.0079(9) 0.0876(7) 0.070(3) 0.0127 Uiso
O3_3 O 0.0010(10) 0.0871(8) 0.407(3) 0.0127 Uiso
C1_3 C 0.0097(10) 0.1127(7) 0.240(5) 0.0025 Uiso
C2_3 C 0.02533 0.18303 0.27392 0.0025 Uiso
C4_3 C 0.05525 0.2166 0.43096 0.0025 Uiso
C5_3 C 0.08738 0.18498 0.58551 0.0025 Uiso
C6_3 C 0.11932 0.21817 0.73289 0.0025 Uiso
O4_2 O 0.0079(9) 0.4124(7) 0.070(3) 0.0127 Uiso
O5_3 O 0.0010(10) 0.4129(8) 0.407(3) 0.0127 Uiso
C7_3 C 0.0097(10) 0.3873(7) 0.240(5) 0.0025 Uiso
C8_3 C 0.02533 0.31697 0.27392 0.0025 Uiso
C10_3 C 0.05525 0.2834 0.43096 0.0025 Uiso
C11_3 C 0.08738 0.31502 0.58551 0.0025 Uiso
C12_3 C 0.11932 0.28183 0.73289 0.0025 Uiso
Ga2_5 Ga 0.000 0.500 0.000 0.0025 Uiso
Ga3_2 Ga 0.000 0.000 0.500 0.0025 Uiso
Ga4_3 Ga -0.000 0.500 0.500 0.0025 Uiso
H2_3 H 0.144455 0.307147 0.848869 . .
H4_3 H 0.0871667 0.133963 0.589443 . .
H5_3 H 0.144455 0.192853 0.848869 . .
H6_3 H 0.0871667 0.366037 0.589443 . .
Ga1_4 Ga 0.000 0.000 1.000 0.0025 Uiso
Ga2_6 Ga -0.000 0.500 1.000 0.0025 Uiso
O9_3 O 0.0871(8) 0.0010(10) 0.907(3) 0.0127 Uiso
Ga1_5 Ga 0.000 1.000 0.000 0.0025 Uiso
O1_3 O 0.0280(5) 0.9720(5) 0.250 0.0127 Uiso
Ga3_3 Ga 0.000 1.000 0.500 0.0025 Uiso
Ga1_6 Ga 0.000 1.000 1.000 0.0025 Uiso
Ga1_7 Ga 1.000 0.000 0.000 0.0025 Uiso
C3_3 C 0.99984 0.21684 0.1137 0.0025 Uiso
C9_3 C 0.99984 0.28316 0.1137 0.0025 Uiso
Ga2_7 Ga 1.000 0.500 0.000 0.0025 Uiso
Ga3_4 Ga 1.000 0.000 0.500 0.0025 Uiso
Ga4_4 Ga 1.000 0.500 0.500 0.0025 Uiso
Ga1_8 Ga 1.000 0.000 1.000 0.0025 Uiso
Ga2_8 Ga 1.000 0.500 1.000 0.0025 Uiso
O6_3 O 0.9720(5) 0.0280(5) 0.750 0.0127 Uiso
H1_3 H 0.979808 0.191672 0.987784 . .
H3_3 H 0.979808 0.308328 0.987784 . .
Ga1_9 Ga 1.000 1.000 0.000 0.0025 Uiso
Ga3_5 Ga 1.000 1.000 0.500 0.0025 Uiso
O8_3 O 0.9129(8) 0.9990(10) 0.093(3) 0.0127 Uiso
Ga1_10 Ga 1.000 1.000 1.000 0.0025 Uiso
O7_2 O 0.9921(9) 0.9124(7) 0.930(3) 0.0127 Uiso
O2_4 O 0.5876(7) 0.5079(9) 0.430(3) 0.0127 Uiso
C1_4 C 0.6127(7) 0.5097(10) 0.260(5) 0.0025 Uiso
C2_4 C 0.68303 0.52533 0.22608 0.0025 Uiso
C3_4 C 0.71684 0.49984 0.3863 0.0025 Uiso
C4_4 C 0.7166 0.55525 0.06904 0.0025 Uiso
O4_3 O 0.9124(7) 0.5079(9) 0.430(3) 0.0127 Uiso
O5_4 O 0.9129(8) 0.5010(10) 0.093(3) 0.0127 Uiso
C7_4 C 0.8873(7) 0.5097(10) 0.260(5) 0.0025 Uiso
C8_4 C 0.81697 0.52533 0.22608 0.0025 Uiso
C9_4 C 0.78316 0.49984 0.3863 0.0025 Uiso
C10_4 C 0.7834 0.55525 0.06904 0.0025 Uiso
O7_3 O 0.4124(7) 0.4921(9) 0.570(3) 0.0127 Uiso
H1_4 H 0.691672 0.479808 0.512216 . .
H3_4 H 0.808328 0.479808 0.512216 . .
C5_4 C 0.68498 0.58738 0.91449 0.0025 Uiso
C6_4 C 0.71817 0.61932 0.76711 0.0025 Uiso
C11_4 C 0.81502 0.58738 0.91449 0.0025 Uiso
C12_4 C 0.78183 0.61932 0.76711 0.0025 Uiso
H2_4 H 0.807147 0.644455 0.651131 . .
H4_4 H 0.633963 0.587167 0.910557 . .
H5_4 H 0.692853 0.644455 0.651131 . .
H6_4 H 0.866037 0.587167 0.910557 . .
C5_5 C 0.18498 0.41262 0.08551 0.0025 Uiso
C6_5 C 0.21817 0.38068 0.23289 0.0025 Uiso
C11_5 C 0.31502 0.41262 0.08551 0.0025 Uiso
C12_5 C 0.28183 0.38068 0.23289 0.0025 Uiso
H2_5 H 0.307147 0.355545 0.348869 . .
H4_5 H 0.133963 0.412833 0.0894433 . .
H5_5 H 0.192853 0.355545 0.348869 . .
H6_5 H 0.366037 0.412833 0.0894433 . .
O2_5 O 0.0876(7) 0.4921(9) 0.570(3) 0.0127 Uiso
O3_4 O 0.0871(8) 0.4990(10) 0.907(3) 0.0127 Uiso
C1_5 C 0.1127(7) 0.4903(10) 0.740(5) 0.0025 Uiso
C2_5 C 0.18303 0.47467 0.77392 0.0025 Uiso
C3_5 C 0.21684 0.50016 0.6137 0.0025 Uiso
C4_5 C 0.2166 0.44475 0.93096 0.0025 Uiso
C7_5 C 0.3873(7) 0.4903(10) 0.740(5) 0.0025 Uiso
C8_5 C 0.31697 0.47467 0.77392 0.0025 Uiso
C9_5 C 0.28316 0.50016 0.6137 0.0025 Uiso
C10_5 C 0.2834 0.44475 0.93096 0.0025 Uiso
O6_4 O 0.0280(5) 0.5280(5) 0.250 0.0127 Uiso
H1_5 H 0.191672 0.520192 0.487784 . .
H3_5 H 0.308328 0.520192 0.487784 . .
O1_4 O 0.9720(5) 0.4720(5) 0.750 0.0127 Uiso
O8_4 O 0.9990(10) 0.5871(8) 0.593(3) 0.0127 Uiso
C5_6 C 0.31502 0.08738 0.08551 0.0025 Uiso
C6_6 C 0.28183 0.11932 0.23289 0.0025 Uiso
C11_6 C 0.18498 0.08738 0.08551 0.0025 Uiso
C12_6 C 0.21817 0.11932 0.23289 0.0025 Uiso
H2_6 H 0.192853 0.144455 0.348869 . .
H4_6 H 0.366037 0.0871667 0.0894433 . .
H5_6 H 0.307147 0.144455 0.348869 . .
H6_6 H 0.133963 0.0871667 0.0894433 . .
O2_6 O 0.4124(7) 0.0079(9) 0.570(3) 0.0127 Uiso
C1_6 C 0.3873(7) 0.0097(10) 0.740(5) 0.0025 Uiso
C2_6 C 0.31697 0.02533 0.77392 0.0025 Uiso
C4_6 C 0.2834 0.05525 0.93096 0.0025 Uiso
O4_4 O 0.0876(7) 0.0079(9) 0.570(3) 0.0127 Uiso
C7_6 C 0.1127(7) 0.0097(10) 0.740(5) 0.0025 Uiso
C8_6 C 0.18303 0.02533 0.77392 0.0025 Uiso
C10_6 C 0.2166 0.05525 0.93096 0.0025 Uiso
C3_6 C 0.28316 0.99984 0.6137 0.0025 Uiso
C9_6 C 0.21684 0.99984 0.6137 0.0025 Uiso
O7_4 O 0.5876(7) 0.9921(9) 0.430(3) 0.0127 Uiso
H1_6 H 0.308328 0.979808 0.487784 . .
H3_6 H 0.191672 0.979808 0.487784 . .
C3_7 C 0.78316 0.00016 0.3863 0.0025 Uiso
C9_7 C 0.71684 0.00016 0.3863 0.0025 Uiso
H1_7 H 0.808328 0.0201924 0.512216 . .
H3_7 H 0.691672 0.0201924 0.512216 . .
O2_7 O 0.9124(7) 0.9921(9) 0.430(3) 0.0127 Uiso
C1_7 C 0.8873(7) 0.9903(10) 0.260(5) 0.0025 Uiso
C2_7 C 0.81697 0.97467 0.22608 0.0025 Uiso
C4_7 C 0.7834 0.94475 0.06904 0.0025 Uiso
C7_7 C 0.6127(7) 0.9903(10) 0.260(5) 0.0025 Uiso
C8_7 C 0.68303 0.97467 0.22608 0.0025 Uiso
C10_7 C 0.7166 0.94475 0.06904 0.0025 Uiso
O9_4 O 0.9990(10) 0.9129(8) 0.593(3) 0.0127 Uiso
C5_7 C 0.81502 0.91262 0.91449 0.0025 Uiso
C6_7 C 0.78183 0.88068 0.76711 0.0025 Uiso
C11_7 C 0.68498 0.91262 0.91449 0.0025 Uiso
C12_7 C 0.71817 0.88068 0.76711 0.0025 Uiso
H2_7 H 0.692853 0.855545 0.651131 . .
H4_7 H 0.866037 0.912833 0.910557 . .
H5_7 H 0.807147 0.855545 0.651131 . .
H6_7 H 0.633963 0.912833 0.910557 . .
H1_8 H 0.0201924 0.691672 0.0122157 . .
H3_8 H 0.0201924 0.808328 0.0122157 . .
C3_8 C 0.00016 0.71684 0.8863 0.0025 Uiso
C9_8 C 0.00016 0.78316 0.8863 0.0025 Uiso
O2_8 O 0.9921(9) 0.5876(7) 0.930(3) 0.0127 Uiso
C1_8 C 0.9903(10) 0.6127(7) 0.760(5) 0.0025 Uiso
C2_8 C 0.97467 0.68303 0.72608 0.0025 Uiso
C4_8 C 0.94475 0.7166 0.56904 0.0025 Uiso
C5_8 C 0.91262 0.68498 0.41449 0.0025 Uiso
C6_8 C 0.88068 0.71817 0.26711 0.0025 Uiso
C7_8 C 0.9903(10) 0.8873(7) 0.760(5) 0.0025 Uiso
C8_8 C 0.97467 0.81697 0.72608 0.0025 Uiso
C10_8 C 0.94475 0.7834 0.56904 0.0025 Uiso
C11_8 C 0.91262 0.81502 0.41449 0.0025 Uiso
C12_8 C 0.88068 0.78183 0.26711 0.0025 Uiso
H2_8 H 0.855545 0.807147 0.151131 . .
H4_8 H 0.912833 0.633963 0.410557 . .
H5_8 H 0.855545 0.692853 0.151131 . .
H6_8 H 0.912833 0.866037 0.410557 . .
loop_
_geom_bond_atom_site_label_1
_geom_bond_atom_site_label_2
_geom_bond_site_symmetry_1
_geom_bond_site_symmetry_2
Ga1 O1 1_555 1_555
O1 Ga3 1_555 1_555
O2 Ga1 1_555 1_555
O3 C1 1_555 1_555
C1 O2 1_555 1_555
C2 C1 1_555 1_555
C3 C2 1_555 1_555
C4 C2 1_555 1_555
C5 C4 1_555 1_555
C6 C5 1_555 1_555
O4 C7 1_555 1_555
O5 C7 1_555 1_555
C7 C8 1_555 1_555
C8 C9 1_555 1_555
C9 C3 1_555 1_555
C10 C4 1_555 1_555
C11 C10 1_555 1_555
C12 C6 1_555 1_555
Ga2 O4 1_555 1_555
Ga3 O3 1_555 1_555
Ga4 O5 1_555 1_555
O8 Ga1 1_555 1_555
C8 C10 1_555 1_555
C11 C12 1_555 1_555
C12 H2 1_555 1_555
C5 H4 1_555 1_555
C6 H5 1_555 1_555
C11 H6 1_555 1_555
O6 Ga1_2 1_555 1_555
O7 Ga1_2 1_555 1_555
O9 Ga1_2 1_555 1_555
Ga2_2 O1_2 1_555 1_555
O1_2 Ga4 1_555 1_555
O8_2 Ga2_2 1_555 1_555
O6_2 Ga2_3 1_555 1_555
O9_2 Ga2_3 1_555 1_555
O2_2 Ga2_4 1_555 1_555
O3_2 C1_2 1_555 1_555
C1_2 O2_2 1_555 1_555
C2_2 C1_2 1_555 1_555
C3_2 C2_2 1_555 1_555
C4_2 C2_2 1_555 1_555
C5_2 C4_2 1_555 1_555
C6_2 C5_2 1_555 1_555
O7 C7_2 1_555 1_555
O5_2 C7_2 1_555 1_555
C7_2 C8_2 1_555 1_555
C8_2 C9_2 1_555 1_555
C9_2 C3_2 1_555 1_555
C10_2 C4_2 1_555 1_555
C11_2 C10_2 1_555 1_555
C12_2 C6_2 1_555 1_555
Ga4_2 O3_2 1_555 1_555
Ga3 O5_2 1_555 1_555
C8_2 C10_2 1_555 1_555
C11_2 C12_2 1_555 1_555
C12_2 H2_2 1_555 1_555
C5_2 H4_2 1_555 1_555
C6_2 H5_2 1_555 1_555
C11_2 H6_2 1_555 1_555
O2_3 Ga1_3 1_555 1_555
O3_3 C1_3 1_555 1_555
C1_3 O2_3 1_555 1_555
C2_3 C1_3 1_555 1_555
C4_3 C2_3 1_555 1_555
C5_3 C4_3 1_555 1_555
C6_3 C5_3 1_555 1_555
O4_2 C7_3 1_555 1_555
O5_3 C7_3 1_555 1_555
C7_3 C8_3 1_555 1_555
C10_3 C4_3 1_555 1_555
C11_3 C10_3 1_555 1_555
C12_3 C6_3 1_555 1_555
Ga2_5 O4_2 1_555 1_555
Ga3_2 O3_3 1_555 1_555
Ga4_3 O5_3 1_555 1_555
C8_3 C10_3 1_555 1_555
C11_3 C12_3 1_555 1_555
C12_3 H2_3 1_555 1_555
C5_3 H4_3 1_555 1_555
C6_3 H5_3 1_555 1_555
C11_3 H6_3 1_555 1_555
O9_3 Ga1_4 1_555 1_555
Ga1_5 O1_3 1_555 1_555
O1_3 Ga3_3 1_555 1_555
C9_3 C3_3 1_555 1_555
O6_3 Ga1_8 1_555 1_555
O8_3 Ga1_9 1_555 1_555
O7_2 Ga1_10 1_555 1_555
O2_4 Ga3 1_555 1_555
O8 C1_4 1_555 1_555
C1_4 O2_4 1_555 1_555
C2_4 C1_4 1_555 1_555
C3_4 C2_4 1_555 1_555
C4_4 C2_4 1_555 1_555
O4_3 C7_4 1_555 1_555
O5_4 C7_4 1_555 1_555
C7_4 C8_4 1_555 1_555
C8_4 C9_4 1_555 1_555
C9_4 C3_4 1_555 1_555
C10_4 C4_4 1_555 1_555
Ga4_4 O4_3 1_555 1_555
Ga2_7 O5_4 1_555 1_555
O6 Ga3 1_555 1_555
O7_3 Ga3 1_555 1_555
C8_4 C10_4 1_555 1_555
C3_4 H1_4 1_555 1_555
C9_4 H3_4 1_555 1_555
C6_4 C5_4 1_555 1_555
C12_4 C6_4 1_555 1_555
C11_4 C12_4 1_555 1_555
C12_4 H2_4 1_555 1_555
C5_4 H4_4 1_555 1_555
C6_4 H5_4 1_555 1_555
C11_4 H6_4 1_555 1_555
C6_5 C5_5 1_555 1_555
C12_5 C6_5 1_555 1_555
C11_5 C12_5 1_555 1_555
C12_5 H2_5 1_555 1_555
C5_5 H4_5 1_555 1_555
C6_5 H5_5 1_555 1_555
C11_5 H6_5 1_555 1_555
O2_5 Ga4_3 1_555 1_555
O3_4 C1_5 1_555 1_555
C1_5 O2_5 1_555 1_555
C2_5 C1_5 1_555 1_555
C3_5 C2_5 1_555 1_555
C4_5 C2_5 1_555 1_555
O7_3 C7_5 1_555 1_555
O9 C7_5 1_555 1_555
C7_5 C8_5 1_555 1_555
C8_5 C9_5 1_555 1_555
C9_5 C3_5 1_555 1_555
C10_5 C4_5 1_555 1_555
Ga2_6 O3_4 1_555 1_555
O6_4 Ga4_3 1_555 1_555
C8_5 C10_5 1_555 1_555
C3_5 H1_5 1_555 1_555
C9_5 H3_5 1_555 1_555
Ga4_4 O1_4 1_555 1_555
O1_4 Ga2_8 1_555 1_555
O8_4 Ga4_4 1_555 1_555
C6_6 C5_6 1_555 1_555
C12_6 C6_6 1_555 1_555
C11_6 C12_6 1_555 1_555
C12_6 H2_6 1_555 1_555
C5_6 H4_6 1_555 1_555
C6_6 H5_6 1_555 1_555
C11_6 H6_6 1_555 1_555
O2_6 Ga4 1_555 1_555
O8_2 C1_6 1_555 1_555
C1_6 O2_6 1_555 1_555
C2_6 C1_6 1_555 1_555
C4_6 C2_6 1_555 1_555
O4_4 C7_6 1_555 1_555
O9_3 C7_6 1_555 1_555
C7_6 C8_6 1_555 1_555
C10_6 C4_6 1_555 1_555
Ga3_2 O4_4 1_555 1_555
C8_6 C10_6 1_555 1_555
C9_6 C3_6 1_555 1_555
O6_2 Ga4_2 1_555 1_555
O7_4 Ga4_2 1_555 1_555
C3_6 H1_6 1_555 1_555
C9_6 H3_6 1_555 1_555
C9_7 C3_7 1_555 1_555
O6_3 Ga3_4 1_555 1_555
C3_7 H1_7 1_555 1_555
C9_7 H3_7 1_555 1_555
O2_7 Ga3_5 1_555 1_555
O8_3 C1_7 1_555 1_555
C1_7 O2_7 1_555 1_555
C2_7 C1_7 1_555 1_555
C4_7 C2_7 1_555 1_555
O7_4 C7_7 1_555 1_555
O9_2 C7_7 1_555 1_555
C7_7 C8_7 1_555 1_555
C10_7 C4_7 1_555 1_555
O9_4 Ga3_5 1_555 1_555
C8_7 C10_7 1_555 1_555
C6_7 C5_7 1_555 1_555
C12_7 C6_7 1_555 1_555
C11_7 C12_7 1_555 1_555
C12_7 H2_7 1_555 1_555
C5_7 H4_7 1_555 1_555
C6_7 H5_7 1_555 1_555
C11_7 H6_7 1_555 1_555
O6_4 Ga2_5 1_555 1_555
C9_8 C3_8 1_555 1_555
O2_8 Ga2_8 1_555 1_555
O8_4 C1_8 1_555 1_555
C1_8 O2_8 1_555 1_555
C2_8 C1_8 1_555 1_555
C4_8 C2_8 1_555 1_555
C5_8 C4_8 1_555 1_555
C6_8 C5_8 1_555 1_555
O7_2 C7_8 1_555 1_555
O9_4 C7_8 1_555 1_555
C7_8 C8_8 1_555 1_555
C10_8 C4_8 1_555 1_555
C11_8 C10_8 1_555 1_555
C12_8 C6_8 1_555 1_555
C8_8 C10_8 1_555 1_555
C11_8 C12_8 1_555 1_555
C12_8 H2_8 1_555 1_555
C5_8 H4_8 1_555 1_555
C6_8 H5_8 1_555 1_555
C11_8 H6_8 1_555 1_555

#END
