
###############################################################################
#
# This file contains modified crystal structure data generated from the
# MOF subset of the Cambridge Structural Database (CSD) v543 
# hosted by the Cambridge Crystallographic Data Centre (CCDC).
#
# This work is licensed under the Creative Commons
# Attribution-NonCommercial-ShareAlike 4.0 International License.
# To view a copy of this license, visit
# http://creativecommons.org/licenses/by-nc-sa/4.0/
# or send a letter to
# Creative Commons, PO Box 1866, Mountain View, CA 94042, USA.
#
# CIF created using the CSD Python API on 29 September 2022
# The structure has been converted into the P1 space group
# The structure has a 3D framework
# The original CSD entry MULQOA is in the monoclinic crystal system
# The framework has been calculated to contain at least 10.0% void space
# The void calculation uses a probe of radius 1.32A, grid spacing 0.4
#
###############################################################################

data_MULQOA
_chemical_formula_moiety         '(C40 H24 N16 O40 Zn12)n'
_symmetry_cell_setting           triclinic
_symmetry_space_group_name_H-M   'P 1'
_symmetry_Int_Tables_number      1
_space_group_name_Hall           'P 1'
loop_
_symmetry_equiv_pos_site_id
_symmetry_equiv_pos_as_xyz
1 x,y,z
_cell_length_a                   11.7437(2)
_cell_length_b                   18.9251(3)
_cell_length_c                   13.0101(4)
_cell_angle_alpha                90
_cell_angle_beta                 112.316(3)
_cell_angle_gamma                90
_cell_volume                     2674.94
loop_
_atom_site_label
_atom_site_type_symbol
_atom_site_fract_x
_atom_site_fract_y
_atom_site_fract_z
C7 C 0.0821(6) 0.5191(4) 0.3517(6)
N4 N 0.0013(5) 0.5670(3) 0.3642(6)
C8 C 0.0708(7) 0.3797(5) 0.3353(9)
C9 C 0.0343(6) 0.4521(4) 0.3490(7)
O8 O 0.1733(5) 0.3648(3) 0.3323(7)
O9 O 0.2746(5) 0.5094(3) 0.3261(5)
C10 C 0.1949(7) 0.5492(5) 0.3397(8)
O10 O 0.2026(6) 0.6157(4) 0.3423(8)
Zn4 Zn 0.33880(9) 0.41437(6) 0.37745(11)
Zn6 Zn 0.05602(9) 0.66821(6) 0.37889(11)
Zn1 Zn 0.82390(8) 0.37185(5) 0.34921(9)
O1 O 0.6800(4) 0.4338(3) 0.3474(5)
O2 O 0.5138(4) 0.4587(3) 0.3816(5)
O3 O 0.6146(5) 0.2223(3) 0.1394(5)
O4 O 0.3947(6) 0.4159(3) 0.5401(6)
C1 C 0.9074(6) 0.5285(4) 0.3687(6)
H1 H 0.8393 0.5479 0.3783
C2 C 0.5764(6) 0.4180(4) 0.3467(7)
O5 O 0.7234(5) 0.3182(3) 0.2105(5)
O6 O 0.8442(6) 0.3069(4) 0.4694(7)
H2 H 0.7632 0.2946 0.4661
H3 H 0.8782 0.2636 0.4521
O7 O 0.9911(5) 0.3330(4) 0.3264(8)
N1 N 0.9219(5) 0.4603(3) 0.3583(5)
N2 N 0.4099(5) 0.3358(3) 0.3170(6)
C3 C 0.3726(6) 0.2727(4) 0.2714(7)
H4 H 0.3025 0.2498 0.2712
C4 C 0.5409(6) 0.2944(4) 0.2469(7)
N3 N 0.4477(5) 0.2463(3) 0.2261(6)
C5 C 0.6332(6) 0.2776(4) 0.1968(7)
C6 C 0.5168(6) 0.3500(4) 0.3031(6)
Zn3 Zn 0.44398(9) 0.16821(6) 0.12111(11)
H5 H 0.368(10) 0.446(5) 0.573(5)
H6 H 0.447(2) 0.3867(13) 0.578(2)
N5 N 0.4987(5) 0.0670(3) 0.1358(6)
Zn5 Zn 0.94398(9) 0.33179(6) 0.62111(11)
O14 O 0.2974(6) 0.1157(4) 0.1577(8)
O11 O 0.3442(6) 0.1931(4) 0.9694(7)
H7 H 0.2632 0.2054 0.9661
H8 H 0.3782 0.2364 0.9521
O13 O 0.2254(5) 0.0094(3) 0.1739(5)
Zn2 Zn 0.16120(9) 0.91437(6) 0.12255(11)
N2_2 N 0.0901(5) 0.8358(3) 0.1830(6)
C3_2 C 0.1274(6) 0.7727(4) 0.2286(7)
H4_2 H 0.1975 0.7498 0.2288
N3_2 N 0.0523(5) 0.7463(3) 0.2739(6)
O11_2 O 0.1558(6) 0.6931(4) 0.5306(7)
H7_2 H 0.2368 0.7054 0.5339
H8_2 H 0.1218 0.7364 0.5479
O12 O 0.3267(5) 0.8648(3) 0.1677(7)
C1_2 C 0.5926(6) 0.0285(4) 0.1313(6)
H1_2 H 0.6607 0.0479 0.1217
C7_2 C 0.4179(6) 0.0191(4) 0.1483(6)
C10_2 C 0.3051(7) 0.0492(5) 0.1603(8)
Zn1_2 Zn 0.67610(8) 0.87185(5) 0.15079(9)
O1_2 O 0.8200(4) 0.9338(3) 0.1526(5)
O2_2 O 0.9862(4) 0.9587(3) 0.1184(5)
O3_2 O 0.8854(5) 0.7223(3) 0.3606(5)
C2_2 C 0.9236(6) 0.9180(4) 0.1533(7)
O5_2 O 0.7766(5) 0.8182(3) 0.2895(5)
O6_2 O 0.6558(6) 0.8069(4) 0.0306(7)
H2_2 H 0.7368 0.7946 0.0339
H3_2 H 0.6218 0.7636 0.0479
O7_2 O 0.5089(5) 0.8330(4) 0.1736(8)
N1_2 N 0.5781(5) 0.9603(3) 0.1417(5)
C4_2 C 0.9591(6) 0.7944(4) 0.2531(7)
C5_2 C 0.8668(6) 0.7776(4) 0.3032(7)
C6_2 C 0.9832(6) 0.8500(4) 0.1969(6)
C8_2 C 0.4292(7) 0.8797(5) 0.1647(9)
C9_2 C 0.4657(6) 0.9521(4) 0.1510(7)
Zn5_2 Zn 0.55602(9) 0.83179(6) 0.87889(11)
Zn1_3 Zn 0.17610(8) 0.62815(5) 0.65079(9)
Zn2_2 Zn 0.66120(9) 0.58563(6) 0.62255(11)
O1_3 O 0.3200(4) 0.5662(3) 0.6526(5)
O2_3 O 0.4862(4) 0.5413(3) 0.6184(5)
O3_3 O 0.3854(5) 0.7777(3) 0.8606(5)
O4_2 O 0.6053(6) 0.5841(3) 0.4599(6)
C1_3 C 0.0926(6) 0.4715(4) 0.6313(6)
H1_3 H 0.1607 0.4521 0.6217
C2_3 C 0.4236(6) 0.5820(4) 0.6533(7)
O5_3 O 0.2766(5) 0.6818(3) 0.7895(5)
O7_3 O 0.0089(5) 0.6670(4) 0.6736(8)
N1_3 N 0.0781(5) 0.5397(3) 0.6417(5)
N2_3 N 0.5901(5) 0.6642(3) 0.6830(6)
C3_3 C 0.6274(6) 0.7273(4) 0.7286(7)
H4_3 H 0.6975 0.7502 0.7288
C4_3 C 0.4591(6) 0.7056(4) 0.7531(7)
N3_3 N 0.5523(5) 0.7537(3) 0.7739(6)
C5_3 C 0.3668(6) 0.7224(4) 0.8032(7)
C6_3 C 0.4832(6) 0.6500(4) 0.6969(6)
H5_2 H 0.632(10) 0.554(5) 0.427(5)
H6_2 H 0.553(2) 0.6133(13) 0.422(2)
N5_2 N 0.5013(5) 0.9330(3) 0.8642(6)
O12_2 O 0.8267(5) 0.6352(3) 0.6677(7)
O13_2 O 0.7254(5) 0.4906(3) 0.6739(5)
O14_2 O 0.7026(6) 0.8843(4) 0.8423(8)
C7_3 C 0.9179(6) 0.4809(4) 0.6483(6)
N4_2 N 0.9987(5) 0.4330(3) 0.6358(6)
C8_3 C 0.9292(7) 0.6203(5) 0.6647(9)
C9_3 C 0.9657(6) 0.5479(4) 0.6510(7)
C10_3 C 0.8051(7) 0.4508(5) 0.6603(8)
O10_2 O 0.7974(6) 0.3843(4) 0.6577(8)
Zn1_4 Zn 0.32390(8) 0.12815(5) 0.84921(9)
O1_4 O 0.1800(4) 0.0662(3) 0.8474(5)
O2_4 O 0.0138(4) 0.0413(3) 0.8816(5)
O3_4 O 0.1146(5) 0.2777(3) 0.6394(5)
C2_4 C 0.0764(6) 0.0820(4) 0.8467(7)
O5_4 O 0.2234(5) 0.1818(3) 0.7105(5)
O7_4 O 0.4911(5) 0.1670(4) 0.8264(8)
N1_4 N 0.4219(5) 0.0397(3) 0.8583(5)
C4_4 C 0.0409(6) 0.2056(4) 0.7469(7)
C5_4 C 0.1332(6) 0.2224(4) 0.6968(7)
C6_4 C 0.0168(6) 0.1500(4) 0.8031(6)
C8_4 C 0.5708(7) 0.1203(5) 0.8353(9)
C9_4 C 0.5343(6) 0.0479(4) 0.8490(7)
O8_2 O 0.6733(5) 0.1352(3) 0.8323(7)
Zn4_2 Zn 0.83880(9) 0.08563(6) 0.87745(11)
C1_4 C 0.4074(6) 0.9715(4) 0.8687(6)
H1_4 H 0.3393 0.9521 0.8783
C7_4 C 0.5821(6) 0.9809(4) 0.8517(6)
O9_2 O 0.7746(5) 0.9906(3) 0.8261(5)
C10_4 C 0.6949(7) 0.9508(5) 0.8397(8)
N2_4 N 0.9099(5) 0.1642(3) 0.8170(6)
C3_4 C 0.8726(6) 0.2273(4) 0.7714(7)
H4_4 H 0.8025 0.2502 0.7712
N3_4 N 0.9477(5) 0.2537(3) 0.7261(6)
O4_3 O 0.1053(6) 0.9159(3) 0.9599(6)
H5_3 H 0.132(10) 0.946(5) 0.927(5)
H6_3 H 0.053(2) 0.8867(13) 0.922(2)
O4_4 O 0.8947(6) 0.0841(3) 0.0401(6)
H5_4 H 0.868(10) 0.054(5) 0.073(5)
H6_4 H 0.947(2) 0.1133(13) 0.078(2)
loop_
_geom_bond_atom_site_label_1
_geom_bond_atom_site_label_2
_geom_bond_site_symmetry_1
_geom_bond_site_symmetry_2
C7 N4 1_555 1_555
O8 C8 1_555 1_555
O9 C10 1_555 1_555
C10 C7 1_555 1_555
O10 C10 1_555 1_555
Zn4 O8 1_555 1_555
Zn6 N4 1_555 1_555
C7 C9 1_555 1_555
C8 C9 1_555 1_555
O9 Zn4 1_555 1_555
O10 Zn6 1_555 1_555
Zn1 O1 1_555 1_555
Zn4 O2 1_555 1_555
O1 C2 1_555 1_555
O2 C2 1_555 1_555
O3 C5 1_555 1_555
O4 Zn4 1_555 1_555
C1 H1 1_555 1_555
C2 C6 1_555 1_555
O5 Zn1 1_555 1_555
O6 Zn1 1_555 1_555
H2 O6 1_555 1_555
H3 O6 1_555 1_555
O7 Zn1 1_555 1_555
N1 Zn1 1_555 1_555
N2 Zn4 1_555 1_555
C3 N2 1_555 1_555
H4 C3 1_555 1_555
C4 N3 1_555 1_555
N3 C3 1_555 1_555
C5 O5 1_555 1_555
C6 N2 1_555 1_555
Zn3 O3 1_555 1_555
H5 O4 1_555 1_555
H6 O4 1_555 1_555
N5 Zn3 1_555 1_555
Zn5 O6 1_555 1_555
O14 Zn3 1_555 1_555
C1 N1 1_555 1_555
C4 C5 1_555 1_555
C4 C6 1_555 1_555
N3 Zn3 1_555 1_555
H7 O11 1_555 1_555
H8 O11 1_555 1_555
N2_2 Zn2 1_555 1_555
C3_2 N2_2 1_555 1_555
H4_2 C3_2 1_555 1_555
N3_2 C3_2 1_555 1_555
O11_2 Zn6 1_555 1_555
H7_2 O11_2 1_555 1_555
H8_2 O11_2 1_555 1_555
O12 Zn2 1_555 1_555
N3_2 Zn6 1_555 1_555
C1_2 H1_2 1_555 1_555
C7_2 N5 1_555 1_555
N5 C1_2 1_555 1_555
O13 C10_2 1_555 1_555
C10_2 C7_2 1_555 1_555
O14 C10_2 1_555 1_555
Zn1_2 O1_2 1_555 1_555
O1_2 C2_2 1_555 1_555
O2_2 C2_2 1_555 1_555
O3_2 C5_2 1_555 1_555
C2_2 C6_2 1_555 1_555
O5_2 Zn1_2 1_555 1_555
O6_2 Zn1_2 1_555 1_555
H2_2 O6_2 1_555 1_555
H3_2 O6_2 1_555 1_555
O7_2 Zn1_2 1_555 1_555
N1_2 Zn1_2 1_555 1_555
C5_2 O5_2 1_555 1_555
C8_2 O7_2 1_555 1_555
C9_2 N1_2 1_555 1_555
O12 C8_2 1_555 1_555
C4_2 C5_2 1_555 1_555
C4_2 C6_2 1_555 1_555
C8_2 C9_2 1_555 1_555
Zn1_3 O1_3 1_555 1_555
Zn2_2 O2_3 1_555 1_555
O1_3 C2_3 1_555 1_555
O2_3 C2_3 1_555 1_555
O3_3 C5_3 1_555 1_555
O4_2 Zn2_2 1_555 1_555
C1_3 H1_3 1_555 1_555
C2_3 C6_3 1_555 1_555
O5_3 Zn1_3 1_555 1_555
O11_2 Zn1_3 1_555 1_555
O7_3 Zn1_3 1_555 1_555
N1_3 Zn1_3 1_555 1_555
N2_3 Zn2_2 1_555 1_555
C3_3 N2_3 1_555 1_555
H4_3 C3_3 1_555 1_555
C4_3 N3_3 1_555 1_555
N3_3 C3_3 1_555 1_555
C5_3 O5_3 1_555 1_555
C6_3 N2_3 1_555 1_555
Zn5_2 O3_3 1_555 1_555
H5_2 O4_2 1_555 1_555
H6_2 O4_2 1_555 1_555
N5_2 Zn5_2 1_555 1_555
O12_2 Zn2_2 1_555 1_555
O13_2 Zn2_2 1_555 1_555
O14_2 Zn5_2 1_555 1_555
C1_3 N1_3 1_555 1_555
C4_3 C5_3 1_555 1_555
C4_3 C6_3 1_555 1_555
N3_3 Zn5_2 1_555 1_555
C7_3 N4_2 1_555 1_555
O12_2 C8_3 1_555 1_555
O13_2 C10_3 1_555 1_555
C10_3 C7_3 1_555 1_555
O10_2 C10_3 1_555 1_555
Zn5 N4_2 1_555 1_555
C7_3 C9_3 1_555 1_555
C8_3 C9_3 1_555 1_555
O10_2 Zn5 1_555 1_555
Zn1_4 O1_4 1_555 1_555
O1_4 C2_4 1_555 1_555
O2_4 C2_4 1_555 1_555
O3_4 C5_4 1_555 1_555
C2_4 C6_4 1_555 1_555
O5_4 Zn1_4 1_555 1_555
O11 Zn1_4 1_555 1_555
O7_4 Zn1_4 1_555 1_555
N1_4 Zn1_4 1_555 1_555
C5_4 O5_4 1_555 1_555
C8_4 O7_4 1_555 1_555
C9_4 N1_4 1_555 1_555
O8_2 C8_4 1_555 1_555
Zn4_2 O8_2 1_555 1_555
C4_4 C5_4 1_555 1_555
C4_4 C6_4 1_555 1_555
C8_4 C9_4 1_555 1_555
C1_4 H1_4 1_555 1_555
C7_4 N5_2 1_555 1_555
N5_2 C1_4 1_555 1_555
O9_2 C10_4 1_555 1_555
C10_4 C7_4 1_555 1_555
O14_2 C10_4 1_555 1_555
N2_4 Zn4_2 1_555 1_555
C3_4 N2_4 1_555 1_555
H4_4 C3_4 1_555 1_555
N3_4 C3_4 1_555 1_555
N3_4 Zn5 1_555 1_555
H5_3 O4_3 1_555 1_555
H6_3 O4_3 1_555 1_555
H5_4 O4_4 1_555 1_555
H6_4 O4_4 1_555 1_555

#END
