
###############################################################################
#
# This file contains modified crystal structure data generated from the
# MOF subset of the Cambridge Structural Database (CSD) v543 
# hosted by the Cambridge Crystallographic Data Centre (CCDC).
#
# This work is licensed under the Creative Commons
# Attribution-NonCommercial-ShareAlike 4.0 International License.
# To view a copy of this license, visit
# http://creativecommons.org/licenses/by-nc-sa/4.0/
# or send a letter to
# Creative Commons, PO Box 1866, Mountain View, CA 94042, USA.
#
# CIF created using the CSD Python API on 29 September 2022
# The structure has been converted into the P1 space group
# The structure has a 3D framework
# The original CSD entry MUMLIR is in the monoclinic crystal system
# The framework has been calculated to contain at least 10.0% void space
# The void calculation uses a probe of radius 1.32A, grid spacing 0.4
#
###############################################################################

data_MUMLIR
_chemical_formula_moiety         '(C112 H72 N48 O32 Zn14)n'
_symmetry_cell_setting           triclinic
_symmetry_space_group_name_H-M   'P 1'
_symmetry_Int_Tables_number      1
_space_group_name_Hall           'P 1'
loop_
_symmetry_equiv_pos_site_id
_symmetry_equiv_pos_as_xyz
1 x,y,z
_cell_length_a                   20.861(5)
_cell_length_b                   15.959(5)
_cell_length_c                   13.286(5)
_cell_angle_alpha                90
_cell_angle_beta                 96.789(5)
_cell_angle_gamma                90
_cell_volume                     4392.17
loop_
_atom_site_label
_atom_site_type_symbol
_atom_site_fract_x
_atom_site_fract_y
_atom_site_fract_z
N9 N 0.39502(17) 0.0142(2) 0.4235(3)
N10 N 0.44827(18) 0.0618(2) 0.4119(3)
N11 N 0.48744(18) 0.0169(3) 0.3642(3)
Zn9 Zn 0.32918(2) 0.05632(3) 0.51080(4)
Zn1 Zn 0.0000 0.36265(5) 0.2500
Zn3 Zn 0.17082(2) 0.44368(3) 0.48920(4)
C15 C 0.1510(3) 0.5813(4) 0.3364(4)
H10 H 0.1111 0.5602 0.3094
C16 C 0.2427(2) 0.5931(3) 0.4277(4)
H11 H 0.2785 0.5825 0.4748
C17 C 0.1763(3) 0.6525(4) 0.3091(5)
H12 H 0.1580 0.6895 0.2598
C18 C 0.2777(2) 0.7321(3) 0.3711(4)
C19 C 0.3409(3) 0.7232(4) 0.4129(5)
H13 H 0.3556 0.6717 0.4390
C20 C 0.3826(2) 0.7906(3) 0.4162(5)
H14 H 0.4253 0.7841 0.4441
C21 C 0.3611(2) 0.8679(3) 0.3782(4)
C22 C 0.2973(2) 0.8751(3) 0.3367(4)
H15 H 0.2819 0.9265 0.3116
C23 C 0.2563(2) 0.8071(3) 0.3321(4)
H16 H 0.2139 0.8126 0.3023
C24 C 0.4050(2) 0.9391(3) 0.3825(3)
C25 C 0.1107(2) 0.3028(3) 0.3599(3)
C26 C 0.1630(2) 0.2417(3) 0.3925(4)
H17 H 0.1978 0.2605 0.4369
C27 C 0.1634(2) 0.1645(3) 0.3633(4)
H18 H 0.1290 0.1453 0.3185
C28 C 0.2159(3) 0.1055(4) 0.3976(5)
N7 N 0.19216(19) 0.5432(3) 0.4102(3)
N8 N 0.23522(19) 0.6617(3) 0.3677(3)
N12 N 0.46133(17) 0.9399(2) 0.3451(3)
O5 O 0.11588(14) 0.3782(2) 0.3866(2)
O6 O 0.06211(14) 0.2771(2) 0.3031(3)
O7 O 0.2096(2) 0.0306(3) 0.3774(3)
O8 O 0.2643(2) 0.1320(3) 0.4517(3)
Zn5 Zn 0.5000 0.86265(5) 0.2500
N14 N 0.10498(17) 0.4858(2) 0.5765(3)
N15 N 0.03867(17) 0.4399(2) 0.1549(3)
O10 O 0.2357(2) 0.3680(3) 0.5483(3)
N3 N 0.60498(17) 0.0142(2) 0.0765(3)
N4 N 0.55173(18) 0.0618(2) 0.0881(3)
N5 N 0.51256(18) 0.0169(3) 0.1358(3)
Zn7 Zn 0.67082(2) 0.05632(3) 0.98920(4)
Zn1_2 Zn 1.0000 0.36265(5) 0.2500
Zn2 Zn 0.82918(2) 0.44368(3) 0.01080(4)
C1 C 0.8490(3) 0.5813(4) 0.1636(4)
H1 H 0.8889 0.5602 0.1906
C2 C 0.7573(2) 0.5931(3) 0.0723(4)
H2 H 0.7215 0.5825 0.0252
C3 C 0.8237(3) 0.6525(4) 0.1909(5)
H3 H 0.8420 0.6895 0.2402
C4 C 0.7223(2) 0.7321(3) 0.1289(4)
C5 C 0.6591(3) 0.7232(4) 0.0871(5)
H4 H 0.6444 0.6717 0.0610
C6 C 0.6174(2) 0.7906(3) 0.0838(5)
H5 H 0.5747 0.7841 0.0559
C7 C 0.6389(2) 0.8679(3) 0.1218(4)
C8 C 0.7027(2) 0.8751(3) 0.1633(4)
H6 H 0.7181 0.9265 0.1884
C9 C 0.7437(2) 0.8071(3) 0.1679(4)
H7 H 0.7861 0.8126 0.1977
C10 C 0.5950(2) 0.9391(3) 0.1175(3)
C11 C 0.8893(2) 0.3028(3) 0.1401(3)
C12 C 0.8370(2) 0.2417(3) 0.1075(4)
H8 H 0.8022 0.2605 0.0631
C13 C 0.8366(2) 0.1645(3) 0.1367(4)
H9 H 0.8710 0.1453 0.1815
C14 C 0.7841(3) 0.1055(4) 0.1024(5)
N1 N 0.80784(19) 0.5432(3) 0.0898(3)
N2 N 0.76478(19) 0.6617(3) 0.1323(3)
N6 N 0.53867(17) 0.9399(2) 0.1549(3)
O1 O 0.88412(14) 0.3782(2) 0.1134(2)
O2 O 0.93789(14) 0.2771(2) 0.1969(3)
O3 O 0.7904(2) 0.0306(3) 0.1226(3)
O4 O 0.7357(2) 0.1320(3) 0.0483(3)
N16 N 0.96133(17) 0.4399(2) 0.3451(3)
N13 N 0.89502(17) 0.4858(2) 0.9235(3)
O9 O 0.7643(2) 0.3680(3) 0.9517(3)
C1_2 C 0.3490(3) 0.0813(4) 0.1636(4)
H1_2 H 0.3889 0.0602 0.1906
C2_2 C 0.2573(2) 0.0931(3) 0.0723(4)
H2_2 H 0.2215 0.0825 0.0252
C3_2 C 0.3237(3) 0.1525(4) 0.1909(5)
H3_2 H 0.3420 0.1895 0.2402
C4_2 C 0.2223(2) 0.2321(3) 0.1289(4)
C5_2 C 0.1591(3) 0.2232(4) 0.0871(5)
H4_2 H 0.1444 0.1717 0.0610
C6_2 C 0.1174(2) 0.2906(3) 0.0838(5)
H5_2 H 0.0747 0.2841 0.0559
C7_2 C 0.1389(2) 0.3679(3) 0.1218(4)
C8_2 C 0.2027(2) 0.3751(3) 0.1633(4)
H6_2 H 0.2181 0.4265 0.1884
C9_2 C 0.2437(2) 0.3071(3) 0.1679(4)
H7_2 H 0.2861 0.3126 0.1977
C10_2 C 0.0950(2) 0.4391(3) 0.1175(3)
N1_2 N 0.30784(19) 0.0432(3) 0.0898(3)
N2_2 N 0.26478(19) 0.1617(3) 0.1323(3)
N3_2 N 0.10498(17) 0.5142(2) 0.0765(3)
N4_2 N 0.05173(18) 0.5618(2) 0.0881(3)
N5_2 N 0.01256(18) 0.5169(3) 0.1358(3)
C15_2 C 0.6510(3) 0.0813(4) 0.3364(4)
H10_2 H 0.6111 0.0602 0.3094
C16_2 C 0.7427(2) 0.0931(3) 0.4277(4)
H11_2 H 0.7785 0.0825 0.4748
C17_2 C 0.6763(3) 0.1525(4) 0.3091(5)
H12_2 H 0.6580 0.1895 0.2598
C18_2 C 0.7777(2) 0.2321(3) 0.3711(4)
C19_2 C 0.8409(3) 0.2232(4) 0.4129(5)
H13_2 H 0.8556 0.1717 0.4390
C20_2 C 0.8826(2) 0.2906(3) 0.4162(5)
H14_2 H 0.9253 0.2841 0.4441
C21_2 C 0.8611(2) 0.3679(3) 0.3782(4)
C22_2 C 0.7973(2) 0.3751(3) 0.3367(4)
H15_2 H 0.7819 0.4265 0.3116
C23_2 C 0.7563(2) 0.3071(3) 0.3321(4)
H16_2 H 0.7139 0.3126 0.3023
C24_2 C 0.9050(2) 0.4391(3) 0.3825(3)
N7_2 N 0.69216(19) 0.0432(3) 0.4102(3)
N8_2 N 0.73522(19) 0.1617(3) 0.3677(3)
N9_2 N 0.89502(17) 0.5142(2) 0.4235(3)
N10_2 N 0.94827(18) 0.5618(2) 0.4119(3)
N11_2 N 0.98744(18) 0.5169(3) 0.3642(3)
Zn9_2 Zn 0.82918(2) 0.55632(3) 0.51080(4)
Zn7_2 Zn 0.17082(2) 0.55632(3) 0.98920(4)
Zn2_2 Zn 0.32918(2) 0.94368(3) 0.01080(4)
C11_2 C 0.3893(2) 0.8028(3) 0.1401(3)
C12_2 C 0.3370(2) 0.7417(3) 0.1075(4)
H8_2 H 0.3022 0.7605 0.0631
C13_2 C 0.3366(2) 0.6645(3) 0.1367(4)
H9_2 H 0.3710 0.6453 0.1815
C14_2 C 0.2841(3) 0.6055(4) 0.1024(5)
O1_2 O 0.38412(14) 0.8782(2) 0.1134(2)
O2_2 O 0.43789(14) 0.7771(2) 0.1969(3)
O3_2 O 0.2904(2) 0.5306(3) 0.1226(3)
O4_2 O 0.2357(2) 0.6320(3) 0.0483(3)
Zn3_2 Zn 0.67082(2) 0.94368(3) 0.48920(4)
C25_2 C 0.6107(2) 0.8028(3) 0.3599(3)
C26_2 C 0.6630(2) 0.7417(3) 0.3925(4)
H17_2 H 0.6978 0.7605 0.4369
C27_2 C 0.6634(2) 0.6645(3) 0.3633(4)
H18_2 H 0.6290 0.6453 0.3185
C28_2 C 0.7159(3) 0.6055(4) 0.3976(5)
O5_2 O 0.61588(14) 0.8782(2) 0.3866(2)
O6_2 O 0.56211(14) 0.7771(2) 0.3031(3)
O7_2 O 0.7096(2) 0.5306(3) 0.3774(3)
O8_2 O 0.7643(2) 0.6320(3) 0.4517(3)
N14_2 N 0.60498(17) 0.9858(2) 0.5765(3)
O10_2 O 0.7357(2) 0.8680(3) 0.5483(3)
N13_2 N 0.39502(17) 0.9858(2) 0.9235(3)
O9_2 O 0.2643(2) 0.8680(3) 0.9517(3)
Zn1_3 Zn 0.0000 0.63735(5) 0.7500
C1_3 C 0.1510(3) 0.4187(4) 0.8364(4)
H1_3 H 0.1111 0.4398 0.8094
C2_3 C 0.2427(2) 0.4069(3) 0.9277(4)
H2_3 H 0.2785 0.4175 0.9748
C3_3 C 0.1763(3) 0.3475(4) 0.8091(5)
H3_3 H 0.1580 0.3105 0.7598
C4_3 C 0.2777(2) 0.2679(3) 0.8711(4)
C5_3 C 0.3409(3) 0.2768(4) 0.9129(5)
H4_3 H 0.3556 0.3283 0.9390
C6_3 C 0.3826(2) 0.2094(3) 0.9162(5)
H5_3 H 0.4253 0.2159 0.9441
C7_3 C 0.3611(2) 0.1321(3) 0.8782(4)
C8_3 C 0.2973(2) 0.1249(3) 0.8367(4)
H6_3 H 0.2819 0.0735 0.8116
C9_3 C 0.2563(2) 0.1929(3) 0.8321(4)
H7_3 H 0.2139 0.1874 0.8023
C10_3 C 0.4050(2) 0.0609(3) 0.8825(3)
C11_3 C 0.1107(2) 0.6972(3) 0.8599(3)
C12_3 C 0.1630(2) 0.7583(3) 0.8925(4)
H8_3 H 0.1978 0.7395 0.9369
C13_3 C 0.1634(2) 0.8355(3) 0.8633(4)
H9_3 H 0.1290 0.8547 0.8185
C14_3 C 0.2159(3) 0.8945(4) 0.8976(5)
N1_3 N 0.19216(19) 0.4568(3) 0.9102(3)
N2_3 N 0.23522(19) 0.3383(3) 0.8677(3)
N6_2 N 0.46133(17) 0.0601(2) 0.8451(3)
O1_3 O 0.11588(14) 0.6218(2) 0.8866(2)
O2_3 O 0.06211(14) 0.7229(2) 0.8031(3)
O3_3 O 0.2096(2) 0.9694(3) 0.8774(3)
Zn4 Zn 0.5000 0.13735(5) 0.7500
N16_2 N 0.03867(17) 0.5601(2) 0.6549(3)
N4_3 N 0.44827(18) 0.9382(2) 0.9119(3)
N5_3 N 0.48744(18) 0.9831(3) 0.8642(3)
Zn1_4 Zn 1.0000 0.63735(5) 0.7500
C15_3 C 0.8490(3) 0.4187(4) 0.6636(4)
H10_3 H 0.8889 0.4398 0.6906
C16_3 C 0.7573(2) 0.4069(3) 0.5723(4)
H11_3 H 0.7215 0.4175 0.5252
C17_3 C 0.8237(3) 0.3475(4) 0.6909(5)
H12_3 H 0.8420 0.3105 0.7402
C18_3 C 0.7223(2) 0.2679(3) 0.6289(4)
C19_3 C 0.6591(3) 0.2768(4) 0.5871(5)
H13_3 H 0.6444 0.3283 0.5610
C20_3 C 0.6174(2) 0.2094(3) 0.5838(5)
H14_3 H 0.5747 0.2159 0.5559
C21_3 C 0.6389(2) 0.1321(3) 0.6218(4)
C22_3 C 0.7027(2) 0.1249(3) 0.6633(4)
H15_3 H 0.7181 0.0735 0.6884
C23_3 C 0.7437(2) 0.1929(3) 0.6679(4)
H16_3 H 0.7861 0.1874 0.6977
C24_3 C 0.5950(2) 0.0609(3) 0.6175(3)
C25_3 C 0.8893(2) 0.6972(3) 0.6401(3)
C26_3 C 0.8370(2) 0.7583(3) 0.6075(4)
H17_3 H 0.8022 0.7395 0.5631
C27_3 C 0.8366(2) 0.8355(3) 0.6367(4)
H18_3 H 0.8710 0.8547 0.6815
C28_3 C 0.7841(3) 0.8945(4) 0.6024(5)
N7_3 N 0.80784(19) 0.4568(3) 0.5898(3)
N8_3 N 0.76478(19) 0.3383(3) 0.6323(3)
N12_2 N 0.53867(17) 0.0601(2) 0.6549(3)
O5_3 O 0.88412(14) 0.6218(2) 0.6134(2)
O6_3 O 0.93789(14) 0.7229(2) 0.6969(3)
O7_3 O 0.7904(2) 0.9694(3) 0.6226(3)
N15_2 N 0.96133(17) 0.5601(2) 0.8451(3)
N10_3 N 0.55173(18) 0.9382(2) 0.5881(3)
N11_3 N 0.51256(18) 0.9831(3) 0.6358(3)
C11_4 C 0.6107(2) 0.1972(3) 0.8599(3)
C12_4 C 0.6630(2) 0.2583(3) 0.8925(4)
H8_4 H 0.6978 0.2395 0.9369
C13_4 C 0.6634(2) 0.3355(3) 0.8633(4)
H9_4 H 0.6290 0.3547 0.8185
C14_4 C 0.7159(3) 0.3945(4) 0.8976(5)
O1_4 O 0.61588(14) 0.1218(2) 0.8866(2)
O2_4 O 0.56211(14) 0.2229(2) 0.8031(3)
O3_4 O 0.7096(2) 0.4694(3) 0.8774(3)
C25_4 C 0.3893(2) 0.1972(3) 0.6401(3)
C26_4 C 0.3370(2) 0.2583(3) 0.6075(4)
H17_4 H 0.3022 0.2395 0.5631
C27_4 C 0.3366(2) 0.3355(3) 0.6367(4)
H18_4 H 0.3710 0.3547 0.6815
C28_4 C 0.2841(3) 0.3945(4) 0.6024(5)
O5_4 O 0.38412(14) 0.1218(2) 0.6134(2)
O6_4 O 0.43789(14) 0.2229(2) 0.6969(3)
O7_4 O 0.2904(2) 0.4694(3) 0.6226(3)
C1_4 C 0.6510(3) 0.9187(4) 0.8364(4)
H1_4 H 0.6111 0.9398 0.8094
C2_4 C 0.7427(2) 0.9069(3) 0.9277(4)
H2_4 H 0.7785 0.9175 0.9748
C3_4 C 0.6763(3) 0.8475(4) 0.8091(5)
H3_4 H 0.6580 0.8105 0.7598
C4_4 C 0.7777(2) 0.7679(3) 0.8711(4)
C5_4 C 0.8409(3) 0.7768(4) 0.9129(5)
H4_4 H 0.8556 0.8283 0.9390
C6_4 C 0.8826(2) 0.7094(3) 0.9162(5)
H5_4 H 0.9253 0.7159 0.9441
C7_4 C 0.8611(2) 0.6321(3) 0.8782(4)
C8_4 C 0.7973(2) 0.6249(3) 0.8367(4)
H6_4 H 0.7819 0.5735 0.8116
C9_4 C 0.7563(2) 0.6929(3) 0.8321(4)
H7_4 H 0.7139 0.6874 0.8023
C10_4 C 0.9050(2) 0.5609(3) 0.8825(3)
N1_4 N 0.69216(19) 0.9568(3) 0.9102(3)
N2_4 N 0.73522(19) 0.8383(3) 0.8677(3)
N4_4 N 0.94827(18) 0.4382(2) 0.9119(3)
N5_4 N 0.98744(18) 0.4831(3) 0.8642(3)
C15_4 C 0.3490(3) 0.9187(4) 0.6636(4)
H10_4 H 0.3889 0.9398 0.6906
C16_4 C 0.2573(2) 0.9069(3) 0.5723(4)
H11_4 H 0.2215 0.9175 0.5252
C17_4 C 0.3237(3) 0.8475(4) 0.6909(5)
H12_4 H 0.3420 0.8105 0.7402
C18_4 C 0.2223(2) 0.7679(3) 0.6289(4)
C19_4 C 0.1591(3) 0.7768(4) 0.5871(5)
H13_4 H 0.1444 0.8283 0.5610
C20_4 C 0.1174(2) 0.7094(3) 0.5838(5)
H14_4 H 0.0747 0.7159 0.5559
C21_4 C 0.1389(2) 0.6321(3) 0.6218(4)
C22_4 C 0.2027(2) 0.6249(3) 0.6633(4)
H15_4 H 0.2181 0.5735 0.6884
C23_4 C 0.2437(2) 0.6929(3) 0.6679(4)
H16_4 H 0.2861 0.6874 0.6977
C24_4 C 0.0950(2) 0.5609(3) 0.6175(3)
N7_4 N 0.30784(19) 0.9568(3) 0.5898(3)
N8_4 N 0.26478(19) 0.8383(3) 0.6323(3)
N10_4 N 0.05173(18) 0.4382(2) 0.5881(3)
N11_4 N 0.01256(18) 0.4831(3) 0.6358(3)
loop_
_geom_bond_atom_site_label_1
_geom_bond_atom_site_label_2
_geom_bond_site_symmetry_1
_geom_bond_site_symmetry_2
N10 N9 1_555 1_555
N11 N10 1_555 1_555
Zn9 N9 1_555 1_555
Zn3 N7 1_555 1_555
C15 H10 1_555 1_555
C16 H11 1_555 1_555
C17 C15 1_555 1_555
H12 C17 1_555 1_555
C18 C19 1_555 1_555
C19 H13 1_555 1_555
C20 C19 1_555 1_555
H14 C20 1_555 1_555
C21 C20 1_555 1_555
C22 C21 1_555 1_555
H15 C22 1_555 1_555
C23 C18 1_555 1_555
H16 C23 1_555 1_555
C24 C21 1_555 1_555
C25 C26 1_555 1_555
C26 H17 1_555 1_555
C27 C26 1_555 1_555
H18 C27 1_555 1_555
C28 C27 1_555 1_555
N7 C15 1_555 1_555
N8 C16 1_555 1_555
N12 C24 1_555 1_555
O5 Zn3 1_555 1_555
O6 Zn1 1_555 1_555
O7 C28 1_555 1_555
O8 C28 1_555 1_555
Zn5 N12 1_555 1_555
Zn9 O8 1_555 1_555
N14 Zn3 1_555 1_555
N15 Zn1 1_555 1_555
O10 Zn3 1_555 1_555
C16 N7 1_555 1_555
C17 N8 1_555 1_555
C18 N8 1_555 1_555
C22 C23 1_555 1_555
C25 O5 1_555 1_555
C25 O6 1_555 1_555
N4 N3 1_555 1_555
N5 N4 1_555 1_555
Zn1_2 O2 1_555 1_555
Zn2 N1 1_555 1_555
C1 H1 1_555 1_555
C2 H2 1_555 1_555
C3 C1 1_555 1_555
H3 C3 1_555 1_555
C4 C5 1_555 1_555
C5 H4 1_555 1_555
C6 C5 1_555 1_555
H5 C6 1_555 1_555
C7 C6 1_555 1_555
C8 C7 1_555 1_555
H6 C8 1_555 1_555
C9 C4 1_555 1_555
H7 C9 1_555 1_555
C10 C7 1_555 1_555
C11 C12 1_555 1_555
C12 H8 1_555 1_555
C13 C12 1_555 1_555
H9 C13 1_555 1_555
C14 C13 1_555 1_555
N1 C1 1_555 1_555
N2 C2 1_555 1_555
N6 C10 1_555 1_555
O1 Zn2 1_555 1_555
O2 C11 1_555 1_555
O3 C14 1_555 1_555
O4 C14 1_555 1_555
Zn5 N6 1_555 1_555
N16 Zn1_2 1_555 1_555
C2 N1 1_555 1_555
C3 N2 1_555 1_555
C4 N2 1_555 1_555
C8 C9 1_555 1_555
C11 O1 1_555 1_555
C1_2 H1_2 1_555 1_555
C2_2 H2_2 1_555 1_555
C3_2 C1_2 1_555 1_555
H3_2 C3_2 1_555 1_555
C4_2 C5_2 1_555 1_555
C5_2 H4_2 1_555 1_555
C6_2 C5_2 1_555 1_555
H5_2 C6_2 1_555 1_555
C7_2 C6_2 1_555 1_555
C8_2 C7_2 1_555 1_555
H6_2 C8_2 1_555 1_555
C9_2 C4_2 1_555 1_555
H7_2 C9_2 1_555 1_555
C10_2 C7_2 1_555 1_555
N1_2 C1_2 1_555 1_555
N2_2 C2_2 1_555 1_555
N3_2 C10_2 1_555 1_555
N4_2 N3_2 1_555 1_555
N5_2 N4_2 1_555 1_555
N15 C10_2 1_555 1_555
C15_2 H10_2 1_555 1_555
C16_2 H11_2 1_555 1_555
C17_2 C15_2 1_555 1_555
H12_2 C17_2 1_555 1_555
C18_2 C19_2 1_555 1_555
C19_2 H13_2 1_555 1_555
C20_2 C19_2 1_555 1_555
H14_2 C20_2 1_555 1_555
C21_2 C20_2 1_555 1_555
C22_2 C21_2 1_555 1_555
H15_2 C22_2 1_555 1_555
C23_2 C18_2 1_555 1_555
H16_2 C23_2 1_555 1_555
C24_2 C21_2 1_555 1_555
N7_2 C15_2 1_555 1_555
N8_2 C16_2 1_555 1_555
N9_2 C24_2 1_555 1_555
N10_2 N9_2 1_555 1_555
N11_2 N10_2 1_555 1_555
N16 C24_2 1_555 1_555
Zn9_2 N9_2 1_555 1_555
C2_2 N1_2 1_555 1_555
C3_2 N2_2 1_555 1_555
C4_2 N2_2 1_555 1_555
C8_2 C9_2 1_555 1_555
N5_2 N15 1_555 1_555
C16_2 N7_2 1_555 1_555
C17_2 N8_2 1_555 1_555
C18_2 N8_2 1_555 1_555
C22_2 C23_2 1_555 1_555
N11_2 N16 1_555 1_555
Zn5 O2_2 1_555 1_555
C11_2 C12_2 1_555 1_555
C12_2 H8_2 1_555 1_555
C13_2 C12_2 1_555 1_555
H9_2 C13_2 1_555 1_555
C14_2 C13_2 1_555 1_555
O1_2 Zn2_2 1_555 1_555
O2_2 C11_2 1_555 1_555
O3_2 C14_2 1_555 1_555
O4_2 C14_2 1_555 1_555
C25_2 C26_2 1_555 1_555
C26_2 H17_2 1_555 1_555
C27_2 C26_2 1_555 1_555
H18_2 C27_2 1_555 1_555
C28_2 C27_2 1_555 1_555
O5_2 Zn3_2 1_555 1_555
O6_2 Zn5 1_555 1_555
O7_2 C28_2 1_555 1_555
O8_2 C28_2 1_555 1_555
Zn9_2 O8_2 1_555 1_555
N14_2 Zn3_2 1_555 1_555
O10_2 Zn3_2 1_555 1_555
C11_2 O1_2 1_555 1_555
C25_2 O5_2 1_555 1_555
C25_2 O6_2 1_555 1_555
Zn1_3 O2_3 1_555 1_555
Zn7_2 N1_3 1_555 1_555
C1_3 H1_3 1_555 1_555
C2_3 H2_3 1_555 1_555
C3_3 C1_3 1_555 1_555
H3_3 C3_3 1_555 1_555
C4_3 C5_3 1_555 1_555
C5_3 H4_3 1_555 1_555
C6_3 C5_3 1_555 1_555
H5_3 C6_3 1_555 1_555
C7_3 C6_3 1_555 1_555
C8_3 C7_3 1_555 1_555
H6_3 C8_3 1_555 1_555
C9_3 C4_3 1_555 1_555
H7_3 C9_3 1_555 1_555
C10_3 C7_3 1_555 1_555
C11_3 C12_3 1_555 1_555
C12_3 H8_3 1_555 1_555
C13_3 C12_3 1_555 1_555
H9_3 C13_3 1_555 1_555
C14_3 C13_3 1_555 1_555
N1_3 C1_3 1_555 1_555
N2_3 C2_3 1_555 1_555
N6_2 C10_3 1_555 1_555
O1_3 Zn7_2 1_555 1_555
O2_3 C11_3 1_555 1_555
O3_3 C14_3 1_555 1_555
O9_2 C14_3 1_555 1_555
Zn4 N6_2 1_555 1_555
N16_2 Zn1_3 1_555 1_555
C2_3 N1_3 1_555 1_555
C3_3 N2_3 1_555 1_555
C4_3 N2_3 1_555 1_555
C8_3 C9_3 1_555 1_555
C11_3 O1_3 1_555 1_555
N4_3 N13_2 1_555 1_555
N5_3 N4_3 1_555 1_555
Zn9_2 N7_3 1_555 1_555
C15_3 H10_3 1_555 1_555
C16_3 H11_3 1_555 1_555
C17_3 C15_3 1_555 1_555
H12_3 C17_3 1_555 1_555
C18_3 C19_3 1_555 1_555
C19_3 H13_3 1_555 1_555
C20_3 C19_3 1_555 1_555
H14_3 C20_3 1_555 1_555
C21_3 C20_3 1_555 1_555
C22_3 C21_3 1_555 1_555
H15_3 C22_3 1_555 1_555
C23_3 C18_3 1_555 1_555
H16_3 C23_3 1_555 1_555
C24_3 C21_3 1_555 1_555
C25_3 C26_3 1_555 1_555
C26_3 H17_3 1_555 1_555
C27_3 C26_3 1_555 1_555
H18_3 C27_3 1_555 1_555
C28_3 C27_3 1_555 1_555
N7_3 C15_3 1_555 1_555
N8_3 C16_3 1_555 1_555
N12_2 C24_3 1_555 1_555
O5_3 Zn9_2 1_555 1_555
O6_3 Zn1_4 1_555 1_555
O7_3 C28_3 1_555 1_555
O10_2 C28_3 1_555 1_555
Zn4 N12_2 1_555 1_555
N15_2 Zn1_4 1_555 1_555
C16_3 N7_3 1_555 1_555
C17_3 N8_3 1_555 1_555
C18_3 N8_3 1_555 1_555
C22_3 C23_3 1_555 1_555
C25_3 O5_3 1_555 1_555
C25_3 O6_3 1_555 1_555
N10_3 N14_2 1_555 1_555
N11_3 N10_3 1_555 1_555
Zn4 O2_4 1_555 1_555
C11_4 C12_4 1_555 1_555
C12_4 H8_4 1_555 1_555
C13_4 C12_4 1_555 1_555
H9_4 C13_4 1_555 1_555
C14_4 C13_4 1_555 1_555
O1_4 Zn7 1_555 1_555
O2_4 C11_4 1_555 1_555
O3_4 C14_4 1_555 1_555
O9 C14_4 1_555 1_555
C25_4 C26_4 1_555 1_555
C26_4 H17_4 1_555 1_555
C27_4 C26_4 1_555 1_555
H18_4 C27_4 1_555 1_555
C28_4 C27_4 1_555 1_555
O5_4 Zn9 1_555 1_555
O6_4 Zn4 1_555 1_555
O7_4 C28_4 1_555 1_555
O10 C28_4 1_555 1_555
C11_4 O1_4 1_555 1_555
C25_4 O5_4 1_555 1_555
C25_4 O6_4 1_555 1_555
C1_4 H1_4 1_555 1_555
C2_4 H2_4 1_555 1_555
C3_4 C1_4 1_555 1_555
H3_4 C3_4 1_555 1_555
C4_4 C5_4 1_555 1_555
C5_4 H4_4 1_555 1_555
C6_4 C5_4 1_555 1_555
H5_4 C6_4 1_555 1_555
C7_4 C6_4 1_555 1_555
C8_4 C7_4 1_555 1_555
H6_4 C8_4 1_555 1_555
C9_4 C4_4 1_555 1_555
H7_4 C9_4 1_555 1_555
C10_4 C7_4 1_555 1_555
N1_4 C1_4 1_555 1_555
N2_4 C2_4 1_555 1_555
N13 C10_4 1_555 1_555
N4_4 N13 1_555 1_555
N5_4 N4_4 1_555 1_555
N15_2 C10_4 1_555 1_555
C15_4 H10_4 1_555 1_555
C16_4 H11_4 1_555 1_555
C17_4 C15_4 1_555 1_555
H12_4 C17_4 1_555 1_555
C18_4 C19_4 1_555 1_555
C19_4 H13_4 1_555 1_555
C20_4 C19_4 1_555 1_555
H14_4 C20_4 1_555 1_555
C21_4 C20_4 1_555 1_555
C22_4 C21_4 1_555 1_555
H15_4 C22_4 1_555 1_555
C23_4 C18_4 1_555 1_555
H16_4 C23_4 1_555 1_555
C24_4 C21_4 1_555 1_555
N7_4 C15_4 1_555 1_555
N8_4 C16_4 1_555 1_555
N14 C24_4 1_555 1_555
N10_4 N14 1_555 1_555
N11_4 N10_4 1_555 1_555
N16_2 C24_4 1_555 1_555
C2_4 N1_4 1_555 1_555
C3_4 N2_4 1_555 1_555
C4_4 N2_4 1_555 1_555
C8_4 C9_4 1_555 1_555
N5_4 N15_2 1_555 1_555
C16_4 N7_4 1_555 1_555
C17_4 N8_4 1_555 1_555
C18_4 N8_4 1_555 1_555
C22_4 C23_4 1_555 1_555
N11_4 N16_2 1_555 1_555

#END
