
###############################################################################
#
# This file contains modified crystal structure data generated from the
# MOF subset of the Cambridge Structural Database (CSD) v543 
# hosted by the Cambridge Crystallographic Data Centre (CCDC).
#
# This work is licensed under the Creative Commons
# Attribution-NonCommercial-ShareAlike 4.0 International License.
# To view a copy of this license, visit
# http://creativecommons.org/licenses/by-nc-sa/4.0/
# or send a letter to
# Creative Commons, PO Box 1866, Mountain View, CA 94042, USA.
#
# CIF created using the CSD Python API on 29 September 2022
# The structure has been converted into the P1 space group
# The structure has a 3D framework
# The original CSD entry MUNPOB is in the triclinic crystal system
# The framework has been calculated to contain at least 10.0% void space
# The void calculation uses a probe of radius 1.32A, grid spacing 0.4
#
###############################################################################

data_MUNPOB
_chemical_formula_moiety         '(C64 H50 Co1 N12 O9)n'
_symmetry_cell_setting           triclinic
_symmetry_space_group_name_H-M   'P 1'
_symmetry_Int_Tables_number      1
_space_group_name_Hall           'P 1'
loop_
_symmetry_equiv_pos_site_id
_symmetry_equiv_pos_as_xyz
1 x,y,z
_cell_length_a                   9.6164(19)
_cell_length_b                   11.627(2)
_cell_length_c                   17.788(4)
_cell_angle_alpha                99.10(3)
_cell_angle_beta                 95.66(3)
_cell_angle_gamma                101.70(3)
_cell_volume                     1905.39
loop_
_atom_site_label
_atom_site_type_symbol
_atom_site_fract_x
_atom_site_fract_y
_atom_site_fract_z
_atom_site_U_iso_or_equiv
_atom_site_thermal_displace_type
C9 C 0.0028(4) 0.2501(4) 0.0932(2) 0.0359 Uani
C10 C 0.0153(5) 0.3630(4) 0.1353(3) 0.0440 Uani
H5 H 0.0255 0.3742 0.1887 0.0520 Uiso
C11 C 0.0127(5) 0.4585(4) 0.0997(3) 0.0472 Uani
H6 H 0.0180 0.5328 0.1296 0.0570 Uiso
C12 C 0.0025(5) 0.4487(4) 0.0200(3) 0.0377 Uani
C21 C 0.2477(5) 0.2349(5) 0.3688(3) 0.0532 Uani
H14 H 0.2754 0.2687 0.3271 0.0640 Uiso
C22 C 0.1509(6) 0.1152(5) 0.4367(3) 0.0677 Uani
H15 H 0.0959 0.0484 0.4508 0.0810 Uiso
C23 C 0.2353(6) 0.2083(5) 0.4864(3) 0.0683 Uani
H16 H 0.2492 0.2178 0.5397 0.0820 Uiso
C24 C 0.3982(5) 0.3961(4) 0.4714(3) 0.0480 Uani
C25 C 0.5021(7) 0.4365(6) 0.4290(3) 0.0807 Uani
H17 H 0.5043 0.3937 0.3805 0.0960 Uiso
C26 C 0.3950(7) 0.4587(6) 0.5423(3) 0.0786 Uani
H18 H 0.3245 0.4317 0.5716 0.0940 Uiso
H19 H 0.1843 0.0177 0.1100 0.0530 Uiso
Co1 Co 0.02871(6) 0.01661(6) 0.26529(3) 0.0340 Uani
N3 N 0.1576(4) 0.1325(3) 0.3625(2) 0.0416 Uani
N4 N 0.2962(4) 0.2861(4) 0.4426(2) 0.0471 Uani
O3 O 0.0232(3) 0.1559(3) 0.20170(17) 0.0422 Uani
C45 C 0.0038(5) 0.6650(4) 0.0222(3) 0.0423 Uani
H32 H 0.0076 0.6754 0.0753 0.0510 Uiso
H33 H 0.0101 0.8365 0.0156 0.0500 Uiso
C53 C 0.7523(5) 0.7651(5) 0.6312(3) 0.0532 Uani
H39 H 0.7246 0.7313 0.6729 0.0640 Uiso
C54 C 0.8491(6) 0.8848(5) 0.5633(3) 0.0677 Uani
H40 H 0.9041 0.9516 0.5492 0.0810 Uiso
C55 C 0.7647(6) 0.7917(5) 0.5136(3) 0.0683 Uani
H41 H 0.7508 0.7822 0.4603 0.0820 Uiso
C56 C 0.6018(5) 0.6039(4) 0.5286(3) 0.0480 Uani
C57 C 0.4979(7) 0.5635(6) 0.5710(3) 0.0807 Uani
H42 H 0.4957 0.6063 0.6195 0.0960 Uiso
C58 C 0.6050(7) 0.5413(6) 0.4577(3) 0.0786 Uani
H43 H 0.6755 0.5683 0.4284 0.0940 Uiso
Co6 Co 0.97129(6) 0.98339(6) 0.73471(3) 0.0340 Uani
N9 N 0.8424(4) 0.8675(3) 0.6375(2) 0.0416 Uani
N11 N 0.7038(4) 0.7139(4) 0.5574(2) 0.0471 Uani
H44 H 0.8157 0.9823 0.8900 0.0530 Uiso
C13 C 0.9962(5) 0.3350(4) 0.9778(3) 0.0423 Uani
H7 H 0.9924 0.3246 0.9247 0.0510 Uiso
H8 H 0.9899 0.1635 0.9844 0.0500 Uiso
C41 C 0.9972(4) 0.7499(4) 0.9068(2) 0.0359 Uani
C42 C 0.9847(5) 0.6370(4) 0.8647(3) 0.0440 Uani
H30 H 0.9745 0.6258 0.8113 0.0520 Uiso
C43 C 0.9873(5) 0.5415(4) 0.9003(3) 0.0472 Uani
H31 H 0.9820 0.4672 0.8704 0.0570 Uiso
C44 C 0.9975(5) 0.5513(4) 0.9800(3) 0.0377 Uani
O9 O 0.9768(3) 0.8441(3) 0.79830(17) 0.0422 Uani
C40 C 0.0079(4) 0.8583(4) 0.8711(3) 0.0365 Uani
C46 C 0.0046(5) 0.7617(4) 0.9862(3) 0.0416 Uani
C59 C 0.7543(5) 0.0026(4) 0.8531(3) 0.0438 Uani
C60 C 0.6679(6) 0.0477(5) 0.7495(3) 0.0604 Uani
H45 H 0.6583 0.0647 0.7001 0.0730 Uiso
C61 C 0.5659(6) 0.0493(6) 0.7982(3) 0.0655 Uani
H46 H 0.4763 0.0665 0.7884 0.0790 Uiso
C62 C 0.5603(4) 0.0102(4) 0.9336(3) 0.0404 Uani
C63 C 0.6433(5) 0.0060(5) 0.9992(3) 0.0553 Uani
H47 H 0.7408 0.0098 0.9989 0.0660 Uiso
C64 C 0.4161(5) 0.0040(5) 0.9333(3) 0.0511 Uani
H48 H 0.3589 0.0066 0.8885 0.0620 Uiso
N12 N 0.7866(4) 0.0170(4) 0.7842(2) 0.0425 Uani
N14 N 0.6232(4) 0.0205(4) 0.8641(2) 0.0429 Uani
O11 O 0.0444(3) 0.9581(3) 0.91515(18) 0.0432 Uani
C6 C 0.9747(9) 0.4919(5) 0.3932(3) 0.0968 Uani
H3 H 0.9475 0.4095 0.3773 0.1160 Uiso
C7 C 0.9817(9) 0.5647(5) 0.3384(3) 0.0929 Uani
H4 H 0.9609 0.5296 0.2867 0.1110 Uiso
H9 H 0.7968 0.9386 0.3814 0.0610 Uiso
C20 C 0.5152(6) 0.9135(6) 0.4412(3) 0.0698 Uani
H13 H 0.5242 0.8550 0.4010 0.0840 Uiso
O2 O 0.9917(5) 0.7170(3) 0.2288(2) 0.0668 Uani
O5 O 0.8866(4) 0.8886(3) 0.1757(2) 0.0494 Uani
H24 H 0.924(6) 0.832(4) 0.188(4) 0.0900 Uiso
H25 H 0.895(9) 0.931(6) 0.141(4) 0.1500 Uiso
C33 C 0.9877(5) 0.2342(5) 0.7018(3) 0.0459 Uani
C34 C 0.9820(5) 0.3142(4) 0.6420(3) 0.0456 Uani
C35 C 0.9485(7) 0.2685(5) 0.5661(3) 0.0745 Uani
H26 H 0.9209 0.1861 0.5505 0.0890 Uiso
C36 C 0.9536(7) 0.3400(5) 0.5109(3) 0.0795 Uani
H27 H 0.9295 0.3042 0.4594 0.0950 Uiso
C37 C 0.9930(6) 0.4617(5) 0.5297(3) 0.0492 Uani
C47 C 0.2236(5) 0.9946(5) 0.6362(3) 0.0509 Uani
C48 C 0.2195(6) 0.8508(5) 0.6969(3) 0.0583 Uani
H35 H 0.1945 0.7978 0.7299 0.0700 Uiso
C49 C 0.3250(6) 0.8479(5) 0.6511(3) 0.0669 Uani
H36 H 0.3842 0.7938 0.6471 0.0810 Uiso
C50 C 0.4159(5) 0.9706(5) 0.5549(3) 0.0552 Uani
C51 C 0.4317(7) 0.8830(6) 0.4973(4) 0.0769 Uani
H37 H 0.3870 0.8037 0.4959 0.0920 Uiso
N7 N 0.1558(4) 0.9434(4) 0.6869(2) 0.0460 Uani
N8 N 0.3261(4) 0.9397(4) 0.6126(2) 0.0520 Uani
O6 O 0.9755(4) 0.1253(3) 0.67512(18) 0.0458 Uani
C1 C 0.0123(5) 0.7658(5) 0.2982(3) 0.0459 Uani
C2 C 0.0180(5) 0.6858(4) 0.3580(3) 0.0456 Uani
C3 C 0.0515(7) 0.7315(5) 0.4339(3) 0.0745 Uani
H1 H 0.0791 0.8139 0.4495 0.0890 Uiso
C4 C 0.0464(7) 0.6600(5) 0.4891(3) 0.0795 Uani
H2 H 0.0705 0.6958 0.5406 0.0950 Uiso
C5 C 0.0070(6) 0.5383(5) 0.4703(3) 0.0492 Uani
C27 C 0.2457(5) 0.9974(4) 0.1469(3) 0.0438 Uani
C28 C 0.3321(6) 0.9523(5) 0.2505(3) 0.0604 Uani
H20 H 0.3417 0.9353 0.2999 0.0730 Uiso
C29 C 0.4341(6) 0.9507(6) 0.2018(3) 0.0655 Uani
H21 H 0.5237 0.9335 0.2116 0.0790 Uiso
C30 C 0.4397(4) 0.9898(4) 0.0664(3) 0.0404 Uani
C31 C 0.3567(5) 0.9940(5) 0.0008(3) 0.0553 Uani
H22 H 0.2592 0.9902 0.0011 0.0660 Uiso
C32 C 0.5839(5) 0.9960(5) 0.0667(3) 0.0511 Uani
H23 H 0.6411 0.9934 0.1115 0.0620 Uiso
N5 N 0.2134(4) 0.9830(4) 0.2158(2) 0.0425 Uani
N6 N 0.3768(4) 0.9795(4) 0.1359(2) 0.0429 Uani
O1 O 0.0245(4) 0.8747(3) 0.32488(18) 0.0458 Uani
C38 C 0.0253(9) 0.5081(5) 0.6068(3) 0.0968 Uani
H28 H 0.0525 0.5905 0.6227 0.1160 Uiso
C39 C 0.0183(9) 0.4353(5) 0.6616(3) 0.0929 Uani
H29 H 0.0391 0.4704 0.7133 0.1110 Uiso
O8 O 0.0083(5) 0.2830(3) 0.7712(2) 0.0668 Uani
C8 C 0.9921(4) 0.1417(4) 0.1289(3) 0.0365 Uani
C14 C 0.9954(5) 0.2383(4) 0.0138(3) 0.0416 Uani
C15 C 0.7764(5) 0.0054(5) 0.3638(3) 0.0509 Uani
C16 C 0.7805(6) 0.1492(5) 0.3031(3) 0.0583 Uani
H10 H 0.8055 0.2022 0.2701 0.0700 Uiso
C17 C 0.6750(6) 0.1521(5) 0.3489(3) 0.0669 Uani
H11 H 0.6158 0.2062 0.3529 0.0810 Uiso
C18 C 0.5841(5) 0.0294(5) 0.4451(3) 0.0552 Uani
C19 C 0.5683(7) 0.1170(6) 0.5027(4) 0.0769 Uani
H12 H 0.6130 0.1963 0.5041 0.0920 Uiso
N1 N 0.8442(4) 0.0566(4) 0.3131(2) 0.0460 Uani
N2 N 0.6739(4) 0.0603(4) 0.3874(2) 0.0520 Uani
O4 O 0.9556(3) 0.0419(3) 0.08485(18) 0.0432 Uani
H34 H 0.2032 0.0614 0.6186 0.0610 Uiso
C52 C 0.4848(6) 0.0865(6) 0.5588(3) 0.0698 Uani
H38 H 0.4758 0.1450 0.5990 0.0840 Uiso
O12 O 0.1134(4) 0.1114(3) 0.8243(2) 0.0494 Uani
H49 H 0.076(6) 0.168(4) 0.812(4) 0.0900 Uiso
H50 H 0.105(9) 0.069(6) 0.859(4) 0.1500 Uiso
loop_
_atom_site_aniso_label
_atom_site_aniso_U_11
_atom_site_aniso_U_22
_atom_site_aniso_U_33
_atom_site_aniso_U_23
_atom_site_aniso_U_13
_atom_site_aniso_U_12
C9 0.037 0.037 0.034 0.008 0.008 0.006
C10 0.059 0.038 0.035 0.012 0.001 0.009
C11 0.068 0.034 0.037 0.007 0.003 0.007
C12 0.038 0.035 0.039 0.01 0.005 0.003
C21 0.061 0.043 0.042 0.001 0.001 -0.012
C22 0.097 0.047 0.041 0.01 0.001 -0.023
C23 0.098 0.048 0.04 0.009 -0.003 -0.022
C24 0.053 0.035 0.046 -0.004 0.006 -0.004
C25 0.094 0.064 0.059 -0.018 0.026 -0.025
C26 0.086 0.063 0.062 -0.008 0.02 -0.03
Co1 0.038 0.0277 0.0328 0.0056 0.0051 -0.0013
N3 0.044 0.032 0.041 0.0032 0.0012 -0.0045
N4 0.055 0.037 0.039 0.0001 0 -0.005
O3 0.053 0.037 0.037 0.0107 0.0063 0.0076
C45 0.053 0.037 0.037 0.009 0.007 0.008
C53 0.061 0.043 0.042 0.001 0.001 -0.012
C54 0.097 0.047 0.041 0.01 0.001 -0.023
C55 0.098 0.048 0.04 0.009 -0.003 -0.022
C56 0.053 0.035 0.046 -0.004 0.006 -0.004
C57 0.094 0.064 0.059 -0.018 0.026 -0.025
C58 0.086 0.063 0.062 -0.008 0.02 -0.03
Co6 0.038 0.0277 0.0328 0.0056 0.0051 -0.0013
N9 0.044 0.032 0.041 0.0032 0.0012 -0.0045
N11 0.055 0.037 0.039 0.0001 0 -0.005
C13 0.053 0.037 0.037 0.009 0.007 0.008
C41 0.037 0.037 0.034 0.008 0.008 0.006
C42 0.059 0.038 0.035 0.012 0.001 0.009
C43 0.068 0.034 0.037 0.007 0.003 0.007
C44 0.038 0.035 0.039 0.01 0.005 0.003
O9 0.053 0.037 0.037 0.0107 0.0063 0.0076
C40 0.033 0.034 0.041 0.009 0 0.005
C46 0.051 0.031 0.044 0.007 0.01 0.01
C59 0.039 0.05 0.047 0.019 0.007 0.012
C60 0.06 0.083 0.047 0.024 0.009 0.026
C61 0.049 0.102 0.055 0.02 0.01 0.033
C62 0.032 0.051 0.038 0.006 0.012 0.007
C63 0.033 0.08 0.053 0.014 0.008 0.01
C64 0.035 0.075 0.042 0.008 0.006 0.011
N12 0.048 0.042 0.036 0.0083 0.0079 0.0043
N14 0.0314 0.051 0.046 0.009 0.0063 0.0078
O11 0.0525 0.035 0.0401 0.0089 0.0023 0.0057
C6 0.204 0.028 0.055 0.015 0.009 0.016
C7 0.189 0.04 0.043 0.012 0.005 0.012
C20 0.085 0.059 0.067 0.006 0.039 0.01
O2 0.121 0.037 0.043 0.0109 0.01 0.017
O5 0.056 0.042 0.045 0.0139 -0.003 -0.0011
C33 0.058 0.039 0.039 0.007 0.008 0.006
C34 0.056 0.034 0.042 0.009 0.001 0
C35 0.123 0.032 0.054 0.011 -0.002 -0.012
C36 0.132 0.039 0.048 0.014 -0.014 -0.018
C37 0.064 0.034 0.047 0.015 -0.003 0.004
C47 0.048 0.048 0.062 0.01 0.026 0.014
C48 0.071 0.055 0.056 0.022 0.017 0.017
C49 0.069 0.063 0.086 0.028 0.041 0.029
C50 0.052 0.056 0.063 0.019 0.025 0.01
C51 0.093 0.061 0.079 0.01 0.049 0.007
N7 0.051 0.045 0.04 0.009 0.013 0.002
N8 0.054 0.053 0.051 0.013 0.017 0.009
O6 0.064 0.029 0.0416 0.0077 0.0044 0.0039
C1 0.058 0.039 0.039 0.007 0.008 0.006
C2 0.056 0.034 0.042 0.009 0.001 0
C3 0.123 0.032 0.054 0.011 -0.002 -0.012
C4 0.132 0.039 0.048 0.014 -0.014 -0.018
C5 0.064 0.034 0.047 0.015 -0.003 0.004
C27 0.039 0.05 0.047 0.019 0.007 0.012
C28 0.06 0.083 0.047 0.024 0.009 0.026
C29 0.049 0.102 0.055 0.02 0.01 0.033
C30 0.032 0.051 0.038 0.006 0.012 0.007
C31 0.033 0.08 0.053 0.014 0.008 0.01
C32 0.035 0.075 0.042 0.008 0.006 0.011
N5 0.048 0.042 0.036 0.0083 0.0079 0.0043
N6 0.0314 0.051 0.046 0.009 0.0063 0.0078
O1 0.064 0.029 0.0416 0.0077 0.0044 0.0039
C38 0.204 0.028 0.055 0.015 0.009 0.016
C39 0.189 0.04 0.043 0.012 0.005 0.012
O8 0.121 0.037 0.043 0.0109 0.01 0.017
C8 0.033 0.034 0.041 0.009 0 0.005
C14 0.051 0.031 0.044 0.007 0.01 0.01
C15 0.048 0.048 0.062 0.01 0.026 0.014
C16 0.071 0.055 0.056 0.022 0.017 0.017
C17 0.069 0.063 0.086 0.028 0.041 0.029
C18 0.052 0.056 0.063 0.019 0.025 0.01
C19 0.093 0.061 0.079 0.01 0.049 0.007
N1 0.051 0.045 0.04 0.009 0.013 0.002
N2 0.054 0.053 0.051 0.013 0.017 0.009
O4 0.0525 0.035 0.0401 0.0089 0.0023 0.0057
C52 0.085 0.059 0.067 0.006 0.039 0.01
O12 0.056 0.042 0.045 0.0139 -0.003 -0.0011
loop_
_geom_bond_atom_site_label_1
_geom_bond_atom_site_label_2
_geom_bond_site_symmetry_1
_geom_bond_site_symmetry_2
C9 C10 1_555 1_555
C10 H5 1_555 1_555
C11 C10 1_555 1_555
H6 C11 1_555 1_555
C12 C11 1_555 1_555
C21 H14 1_555 1_555
C22 H15 1_555 1_555
C23 C22 1_555 1_555
H16 C23 1_555 1_555
C24 C25 1_555 1_555
C25 H17 1_555 1_555
C26 C24 1_555 1_555
H18 C26 1_555 1_555
N3 C21 1_555 1_555
N4 C21 1_555 1_555
H32 C45 1_555 1_555
C53 H39 1_555 1_555
C54 H40 1_555 1_555
C55 C54 1_555 1_555
H41 C55 1_555 1_555
C56 C57 1_555 1_555
C57 C26 1_555 1_555
H42 C57 1_555 1_555
C58 C25 1_555 1_555
H43 C58 1_555 1_555
Co6 N9 1_555 1_555
N9 C53 1_555 1_555
N11 C53 1_555 1_555
C22 N3 1_555 1_555
C23 N4 1_555 1_555
C24 N4 1_555 1_555
Co1 N3 1_555 1_555
Co1 O3 1_555 1_555
C54 N9 1_555 1_555
C55 N11 1_555 1_555
C56 C58 1_555 1_555
C56 N11 1_555 1_555
H7 C13 1_555 1_555
C41 C42 1_555 1_555
C42 H30 1_555 1_555
C43 C42 1_555 1_555
H31 C43 1_555 1_555
Co6 O9 1_555 1_555
C43 C44 1_555 1_555
C60 H45 1_555 1_555
C61 C60 1_555 1_555
H46 C61 1_555 1_555
C62 C63 1_555 1_555
H47 C63 1_555 1_555
H48 C64 1_555 1_555
N12 C59 1_555 1_555
N14 C59 1_555 1_555
O11 C40 1_555 1_555
C60 N12 1_555 1_555
C61 N14 1_555 1_555
C62 C64 1_555 1_555
C62 N14 1_555 1_555
H3 C6 1_555 1_555
H4 C7 1_555 1_555
H13 C20 1_555 1_555
H24 O5 1_555 1_555
H25 O5 1_555 1_555
C33 C34 1_555 1_555
C34 C35 1_555 1_555
C35 H26 1_555 1_555
C36 C35 1_555 1_555
H27 C36 1_555 1_555
C48 H35 1_555 1_555
C49 C48 1_555 1_555
H36 C49 1_555 1_555
C50 C51 1_555 1_555
C51 C20 1_555 1_555
H37 C51 1_555 1_555
N7 C47 1_555 1_555
N8 C47 1_555 1_555
O6 C33 1_555 1_555
C6 C7 1_555 1_555
C36 C37 1_555 1_555
C48 N7 1_555 1_555
C49 N8 1_555 1_555
C50 N8 1_555 1_555
C1 C2 1_555 1_555
C2 C3 1_555 1_555
C3 H1 1_555 1_555
C4 C3 1_555 1_555
H2 C4 1_555 1_555
C5 C4 1_555 1_555
C28 H20 1_555 1_555
C29 C28 1_555 1_555
H21 C29 1_555 1_555
C30 C31 1_555 1_555
C31 H22 1_555 1_555
C32 C30 1_555 1_555
H23 C32 1_555 1_555
N5 C27 1_555 1_555
N6 C27 1_555 1_555
O1 C1 1_555 1_555
H28 C38 1_555 1_555
H29 C39 1_555 1_555
C28 N5 1_555 1_555
C29 N6 1_555 1_555
C30 N6 1_555 1_555
C38 C39 1_555 1_555
C16 H10 1_555 1_555
C17 C16 1_555 1_555
H11 C17 1_555 1_555
C18 C19 1_555 1_555
C19 H12 1_555 1_555
N1 C15 1_555 1_555
N2 C15 1_555 1_555
O4 C8 1_555 1_555
C52 C19 1_555 1_555
H38 C52 1_555 1_555
H49 O12 1_555 1_555
H50 O12 1_555 1_555
C16 N1 1_555 1_555
C17 N2 1_555 1_555
C18 N2 1_555 1_555

#END
