
###############################################################################
#
# This file contains modified crystal structure data generated from the
# MOF subset of the Cambridge Structural Database (CSD) v543 
# hosted by the Cambridge Crystallographic Data Centre (CCDC).
#
# This work is licensed under the Creative Commons
# Attribution-NonCommercial-ShareAlike 4.0 International License.
# To view a copy of this license, visit
# http://creativecommons.org/licenses/by-nc-sa/4.0/
# or send a letter to
# Creative Commons, PO Box 1866, Mountain View, CA 94042, USA.
#
# CIF created using the CSD Python API on 29 September 2022
# The structure has been converted into the P1 space group
# The structure has a 3D framework
# The original CSD entry MURBEI is in the orthorhombic crystal system
# The original CSD entry MURBEI is in a Sohncke space group
# The framework has been calculated to contain at least 10.0% void space
# The void calculation uses a probe of radius 1.32A, grid spacing 0.4
# The framework is charged, counterions have been retained in the structure
#
###############################################################################

data_MURBEI
_chemical_formula_moiety         '(C88 H76 In4 N8 O32)n'
_symmetry_cell_setting           triclinic
_symmetry_space_group_name_H-M   'P 1'
_symmetry_Int_Tables_number      1
_space_group_name_Hall           'P 1'
loop_
_symmetry_equiv_pos_site_id
_symmetry_equiv_pos_as_xyz
1 x,y,z
_cell_length_a                   19.72440(10)
_cell_length_b                   17.08140(10)
_cell_length_c                   9.95540(10)
_cell_angle_alpha                90
_cell_angle_beta                 90
_cell_angle_gamma                90
_cell_volume                     3354.18
loop_
_atom_site_label
_atom_site_type_symbol
_atom_site_fract_x
_atom_site_fract_y
_atom_site_fract_z
N2 N 0.0780(6) 0.1294(7) 0.0546(13)
H8 H 0.0759 0.2462 0.1106
H9 H 0.0048 0.2164 0.0513
C4 C 0.0546(7) 0.2135(6) 0.0402(12)
H10 H 0.1743 0.1616 0.1146
H11 H 0.1706 0.0729 0.0606
C5 C 0.1539(6) 0.1269(9) 0.0460(13)
N1 N 0.1100(4) 0.1775(4) 0.8342(7)
H1 H 0.1238 0.1957 0.7505
H2 H 0.2030 0.2000 0.9134
H3 H 0.1954 0.1123 0.8579
C1 C 0.1719(4) 0.1546(5) 0.9073(9)
H4 H 0.0338 0.2596 0.8503
H5 H 0.1050 0.2897 0.9100
C2 C 0.0745(5) 0.2439(6) 0.9019(12)
H6 H 0.0851 0.0710 0.7520
H7 H 0.0212 0.1294 0.7649
C3 C 0.0633(6) 0.1112(6) 0.8092(13)
H13 H 0.0674 0.0258 0.9536
C6 C 0.0485(7) 0.0794(7) 0.9463(14)
H12 H 0.9988 0.0759 0.9588
H12_2 H 0.0012 0.9241 0.9588
N2_2 N 0.9220(6) 0.8706(7) 0.0546(13)
H8_2 H 0.9241 0.7538 0.1106
H9_2 H 0.9952 0.7836 0.0513
C4_2 C 0.9454(7) 0.7865(6) 0.0402(12)
H10_2 H 0.8257 0.8384 0.1146
H11_2 H 0.8294 0.9271 0.0606
C5_2 C 0.8461(6) 0.8731(9) 0.0460(13)
N1_2 N 0.8900(4) 0.8225(4) 0.8342(7)
H1_2 H 0.8762 0.8043 0.7505
H2_2 H 0.7970 0.8000 0.9134
H3_2 H 0.8046 0.8877 0.8579
C1_2 C 0.8281(4) 0.8454(5) 0.9073(9)
H4_2 H 0.9662 0.7404 0.8503
H5_2 H 0.8950 0.7103 0.9100
C2_2 C 0.9255(5) 0.7561(6) 0.9019(12)
H6_2 H 0.9149 0.9290 0.7520
H7_2 H 0.9788 0.8706 0.7649
C3_2 C 0.9367(6) 0.8888(6) 0.8092(13)
H13_2 H 0.9326 0.9742 0.9536
C6_2 C 0.9515(7) 0.9206(7) 0.9463(14)
N1_3 N 0.6100(4) 0.3225(4) 0.1658(7)
H1_3 H 0.6238 0.3043 0.2495
H2_3 H 0.7030 0.3000 0.0866
H3_3 H 0.6954 0.3877 0.1421
C1_3 C 0.6719(4) 0.3454(5) 0.0927(9)
H4_3 H 0.5338 0.2404 0.1497
H5_3 H 0.6050 0.2103 0.0900
C2_3 C 0.5745(5) 0.2561(6) 0.0981(12)
H6_3 H 0.5851 0.4290 0.2480
H7_3 H 0.5212 0.3706 0.2351
C3_3 C 0.5633(6) 0.3888(6) 0.1908(13)
H12_3 H 0.4988 0.4241 0.0412
H13_3 H 0.5674 0.4742 0.0464
C6_3 C 0.5485(7) 0.4206(7) 0.0537(14)
N2_3 N 0.5780(6) 0.3706(7) 0.9454(13)
H8_3 H 0.5759 0.2538 0.8894
H9_3 H 0.5048 0.2836 0.9487
C4_3 C 0.5546(7) 0.2865(6) 0.9598(12)
H10_3 H 0.6743 0.3384 0.8854
H11_3 H 0.6706 0.4271 0.9394
C5_3 C 0.6539(6) 0.3731(9) 0.9540(13)
N1_4 N 0.3900(4) 0.6775(4) 0.1658(7)
H1_4 H 0.3762 0.6957 0.2495
H2_4 H 0.2970 0.7000 0.0866
H3_4 H 0.3046 0.6123 0.1421
C1_4 C 0.3281(4) 0.6546(5) 0.0927(9)
H4_4 H 0.4662 0.7596 0.1497
H5_4 H 0.3950 0.7897 0.0900
C2_4 C 0.4255(5) 0.7439(6) 0.0981(12)
H6_4 H 0.4149 0.5710 0.2480
H7_4 H 0.4788 0.6294 0.2351
C3_4 C 0.4367(6) 0.6112(6) 0.1908(13)
H12_4 H 0.5012 0.5759 0.0412
H13_4 H 0.4326 0.5258 0.0464
C6_4 C 0.4515(7) 0.5794(7) 0.0537(14)
N2_4 N 0.4220(6) 0.6294(7) 0.9454(13)
H8_4 H 0.4241 0.7462 0.8894
H9_4 H 0.4952 0.7164 0.9487
C4_4 C 0.4454(7) 0.7135(6) 0.9598(12)
H10_4 H 0.3257 0.6616 0.8854
H11_4 H 0.3294 0.5729 0.9394
C5_4 C 0.3461(6) 0.6269(9) 0.9540(13)
O3 O 0.29863(15) 0.21519(16) 0.0695(4)
O4 O 0.40554(17) 0.24392(19) 0.1003(6)
H15 H 0.2821 0.0761 0.0078
H16 H 0.4799 0.1259 0.0654
C7 C 0.4639(2) 0.0119(3) 0.0096(6)
C10 C 0.3281(2) 0.0599(3) 0.0083(5)
C11 C 0.3796(2) 0.1121(3) 0.0416(5)
C12 C 0.4456(2) 0.0892(2) 0.0423(6)
C14 C 0.3603(2) 0.1955(2) 0.0741(6)
In7 In 0.318721(11) 0.340141(13) 0.08612(3)
O9 O 0.70052(14) 0.14476(16) 0.9265(4)
O10 O 0.77064(14) 0.04504(16) 0.9302(4)
H20 H 0.5765 0.0932 0.9517
C24 C 0.5876(2) 0.0409(3) 0.9752(6)
C25 C 0.6541(2) 0.0172(3) 0.9754(5)
C29 C 0.7108(2) 0.0727(2) 0.9391(5)
In5 In 0.818721(11) 0.159859(13) 0.91388(3)
O11 O 0.70137(15) 0.78481(16) 0.0695(4)
O12 O 0.59446(17) 0.75608(19) 0.1003(6)
H21 H 0.7179 0.9239 0.0078
H22 H 0.5201 0.8741 0.0654
C23 C 0.5361(2) 0.9881(3) 0.0096(6)
C26 C 0.6719(2) 0.9401(3) 0.0083(5)
C27 C 0.6204(2) 0.8879(3) 0.0416(5)
C28 C 0.5544(2) 0.9108(2) 0.0423(6)
C30 C 0.6397(2) 0.8045(2) 0.0741(6)
In6 In 0.681279(11) 0.659859(13) 0.08612(3)
O23 O 0.1971(2) 0.8341(3) 0.1587(3)
O25 O 0.1104(2) 0.8881(3) 0.0619(3)
In1 In 0.181279(11) 0.840141(13) 0.91388(3)
O1 O 0.29948(14) 0.85524(16) 0.9265(4)
O2 O 0.22936(14) 0.95496(16) 0.9302(4)
O5 O 0.19374(16) 0.8345(2) 0.6838(3)
O6 O 0.11067(15) 0.90145(19) 0.7740(3)
H14 H 0.4235 0.9068 0.9517
H17 H 0.0395 0.9669 0.6140
H18 H 0.1833 0.8401 0.4175
H19 H 0.0418 0.9598 0.2082
C8 C 0.4124(2) 0.9591(3) 0.9752(6)
C9 C 0.3459(2) 0.9828(3) 0.9754(5)
C13 C 0.2892(2) 0.9273(2) 0.9391(5)
C15 C 0.0296(3) 0.9736(4) 0.4137(5)
C16 C 0.0589(3) 0.9494(4) 0.5320(5)
C17 C 0.1161(3) 0.9003(3) 0.5384(5)
C18 C 0.1447(3) 0.8734(3) 0.4174(5)
C19 C 0.1152(3) 0.8969(4) 0.2994(5)
C20 C 0.0599(3) 0.9452(5) 0.2930(5)
C21 C 0.1422(2) 0.8766(3) 0.6725(4)
C22 C 0.1429(4) 0.8703(4) 0.1664(5)
O20 O 0.20137(15) 0.71519(16) 0.9305(4)
O22 O 0.09446(17) 0.74392(19) 0.8997(6)
O24 O 0.8029(2) 0.1659(3) 0.1587(3)
O26 O 0.8896(2) 0.1119(3) 0.0619(3)
O13 O 0.80626(16) 0.1655(2) 0.6838(3)
O14 O 0.88933(15) 0.09855(19) 0.7740(3)
H23 H 0.9605 0.0331 0.6140
H24 H 0.8167 0.1599 0.4175
H25 H 0.9582 0.0402 0.2082
C31 C 0.9704(3) 0.0264(4) 0.4137(5)
C32 C 0.9411(3) 0.0506(4) 0.5320(5)
C33 C 0.8839(3) 0.0997(3) 0.5384(5)
C34 C 0.8553(3) 0.1266(3) 0.4174(5)
C35 C 0.8848(3) 0.1031(4) 0.2994(5)
C36 C 0.9401(3) 0.0548(5) 0.2930(5)
C37 C 0.8578(2) 0.1234(3) 0.6725(4)
C38 C 0.8571(4) 0.1297(4) 0.1664(5)
O19 O 0.79863(15) 0.28481(16) 0.9305(4)
O21 O 0.90554(17) 0.25608(19) 0.8997(6)
O9_2 O 0.20052(14) 0.35524(16) 0.0735(4)
O10_2 O 0.27064(14) 0.45496(16) 0.0698(4)
H20_2 H 0.0765 0.4068 0.0483
C24_2 C 0.0876(2) 0.4591(3) 0.0248(6)
C25_2 C 0.1541(2) 0.4828(3) 0.0246(5)
C29_2 C 0.2108(2) 0.4273(2) 0.0609(5)
H21_2 H 0.2179 0.5761 0.9922
H22_2 H 0.0201 0.6259 0.9346
C23_2 C 0.0361(2) 0.5119(3) 0.9904(6)
C26_2 C 0.1719(2) 0.5599(3) 0.9917(5)
C27_2 C 0.1204(2) 0.6121(3) 0.9584(5)
C28_2 C 0.0544(2) 0.5892(2) 0.9577(6)
C30_2 C 0.1397(2) 0.6955(2) 0.9259(6)
O1_2 O 0.79948(14) 0.64476(16) 0.0735(4)
O2_2 O 0.72936(14) 0.54504(16) 0.0698(4)
O5_2 O 0.69374(16) 0.6655(2) 0.3162(3)
O6_2 O 0.61067(15) 0.59855(19) 0.2260(3)
O7 O 0.6971(2) 0.6659(3) 0.8413(3)
O8 O 0.6104(2) 0.6119(3) 0.9381(3)
H14_2 H 0.9235 0.5932 0.0483
H17_2 H 0.5395 0.5331 0.3860
H18_2 H 0.6833 0.6599 0.5825
H19_2 H 0.5418 0.5402 0.7918
C8_2 C 0.9124(2) 0.5409(3) 0.0248(6)
C9_2 C 0.8459(2) 0.5172(3) 0.0246(5)
C13_2 C 0.7892(2) 0.5727(2) 0.0609(5)
C15_2 C 0.5296(3) 0.5264(4) 0.5863(5)
C16_2 C 0.5589(3) 0.5506(4) 0.4680(5)
C17_2 C 0.6161(3) 0.5997(3) 0.4616(5)
C18_2 C 0.6447(3) 0.6266(3) 0.5826(5)
C19_2 C 0.6152(3) 0.6031(4) 0.7006(5)
C20_2 C 0.5599(3) 0.5548(5) 0.7070(5)
C21_2 C 0.6422(2) 0.6234(3) 0.3275(4)
C22_2 C 0.6429(4) 0.6297(4) 0.8336(5)
O13_2 O 0.30626(16) 0.3345(2) 0.3162(3)
O14_2 O 0.38933(15) 0.40145(19) 0.2260(3)
O15 O 0.3029(2) 0.3341(3) 0.8413(3)
O16 O 0.3896(2) 0.3881(3) 0.9381(3)
H23_2 H 0.4605 0.4669 0.3860
H24_2 H 0.3167 0.3401 0.5825
H25_2 H 0.4582 0.4598 0.7918
C31_2 C 0.4704(3) 0.4736(4) 0.5863(5)
C32_2 C 0.4411(3) 0.4494(4) 0.4680(5)
C33_2 C 0.3839(3) 0.4003(3) 0.4616(5)
C34_2 C 0.3553(3) 0.3734(3) 0.5826(5)
C35_2 C 0.3848(3) 0.3969(4) 0.7006(5)
C36_2 C 0.4401(3) 0.4452(5) 0.7070(5)
C37_2 C 0.3578(2) 0.3766(3) 0.3275(4)
C38_2 C 0.3571(4) 0.3703(4) 0.8336(5)
H15_2 H 0.7821 0.4239 0.9922
H16_2 H 0.9799 0.3741 0.9346
C7_2 C 0.9639(2) 0.4881(3) 0.9904(6)
C10_2 C 0.8281(2) 0.4401(3) 0.9917(5)
C11_2 C 0.8796(2) 0.3879(3) 0.9584(5)
C12_2 C 0.9456(2) 0.4108(2) 0.9577(6)
C14_2 C 0.8603(2) 0.3045(2) 0.9259(6)
loop_
_geom_bond_atom_site_label_1
_geom_bond_atom_site_label_2
_geom_bond_site_symmetry_1
_geom_bond_site_symmetry_2
N2 C4 1_555 1_555
H8 C4 1_555 1_555
H9 C4 1_555 1_555
H10 C5 1_555 1_555
H11 C5 1_555 1_555
C5 N2 1_555 1_555
N1 H1 1_555 1_555
H2 C1 1_555 1_555
H3 C1 1_555 1_555
C1 N1 1_555 1_555
H4 C2 1_555 1_555
H5 C2 1_555 1_555
C2 N1 1_555 1_555
H6 C3 1_555 1_555
H7 C3 1_555 1_555
C3 N1 1_555 1_555
H13 C6 1_555 1_555
C3 C6 1_555 1_555
N2_2 C4_2 1_555 1_555
H8_2 C4_2 1_555 1_555
H9_2 C4_2 1_555 1_555
H10_2 C5_2 1_555 1_555
H11_2 C5_2 1_555 1_555
C5_2 N2_2 1_555 1_555
N1_2 H1_2 1_555 1_555
H2_2 C1_2 1_555 1_555
H3_2 C1_2 1_555 1_555
C1_2 N1_2 1_555 1_555
H4_2 C2_2 1_555 1_555
H5_2 C2_2 1_555 1_555
C2_2 N1_2 1_555 1_555
H6_2 C3_2 1_555 1_555
H7_2 C3_2 1_555 1_555
C3_2 N1_2 1_555 1_555
H13_2 C6_2 1_555 1_555
C3_2 C6_2 1_555 1_555
N1_3 H1_3 1_555 1_555
H2_3 C1_3 1_555 1_555
H3_3 C1_3 1_555 1_555
C1_3 N1_3 1_555 1_555
H4_3 C2_3 1_555 1_555
H5_3 C2_3 1_555 1_555
C2_3 N1_3 1_555 1_555
H6_3 C3_3 1_555 1_555
H7_3 C3_3 1_555 1_555
C3_3 N1_3 1_555 1_555
H12_3 C6_3 1_555 1_555
H13_3 C6_3 1_555 1_555
C3_3 C6_3 1_555 1_555
N2_3 C4_3 1_555 1_555
H8_3 C4_3 1_555 1_555
H9_3 C4_3 1_555 1_555
H10_3 C5_3 1_555 1_555
H11_3 C5_3 1_555 1_555
C5_3 N2_3 1_555 1_555
N1_4 H1_4 1_555 1_555
H2_4 C1_4 1_555 1_555
H3_4 C1_4 1_555 1_555
C1_4 N1_4 1_555 1_555
H4_4 C2_4 1_555 1_555
H5_4 C2_4 1_555 1_555
C2_4 N1_4 1_555 1_555
H6_4 C3_4 1_555 1_555
H7_4 C3_4 1_555 1_555
C3_4 N1_4 1_555 1_555
H12_4 C6_4 1_555 1_555
H13_4 C6_4 1_555 1_555
C3_4 C6_4 1_555 1_555
N2_4 C4_4 1_555 1_555
H8_4 C4_4 1_555 1_555
H9_4 C4_4 1_555 1_555
H10_4 C5_4 1_555 1_555
H11_4 C5_4 1_555 1_555
C5_4 N2_4 1_555 1_555
O3 C14 1_555 1_555
O4 C14 1_555 1_555
H15 C10 1_555 1_555
H16 C12 1_555 1_555
C10 C11 1_555 1_555
C11 C12 1_555 1_555
C12 C7 1_555 1_555
C14 C11 1_555 1_555
In7 O3 1_555 1_555
O4 In7 1_555 1_555
O9 C29 1_555 1_555
O10 C29 1_555 1_555
H20 C24 1_555 1_555
C25 C24 1_555 1_555
C29 C25 1_555 1_555
In5 O9 1_555 1_555
O10 In5 1_555 1_555
O11 C30 1_555 1_555
O12 C30 1_555 1_555
H21 C26 1_555 1_555
H22 C28 1_555 1_555
C27 C26 1_555 1_555
C28 C23 1_555 1_555
C30 C27 1_555 1_555
In6 O11 1_555 1_555
O12 In6 1_555 1_555
C27 C28 1_555 1_555
In1 O1 1_555 1_555
O1 C13 1_555 1_555
O2 In1 1_555 1_555
O5 In1 1_555 1_555
O6 In1 1_555 1_555
O23 C22 1_555 1_555
O25 C22 1_555 1_555
H14 C8 1_555 1_555
H17 C16 1_555 1_555
H18 C18 1_555 1_555
H19 C20 1_555 1_555
C8 C9 1_555 1_555
C13 O2 1_555 1_555
C15 C16 1_555 1_555
C16 C17 1_555 1_555
C17 C18 1_555 1_555
C18 C19 1_555 1_555
C19 C20 1_555 1_555
C20 C15 1_555 1_555
C21 O5 1_555 1_555
C22 C19 1_555 1_555
O20 In1 1_555 1_555
O22 In1 1_555 1_555
O6 C21 1_555 1_555
C9 C13 1_555 1_555
C17 C21 1_555 1_555
O13 C37 1_555 1_555
O14 C37 1_555 1_555
O24 C38 1_555 1_555
O26 C38 1_555 1_555
H23 C32 1_555 1_555
H24 C34 1_555 1_555
H25 C36 1_555 1_555
C32 C31 1_555 1_555
C33 C32 1_555 1_555
C34 C33 1_555 1_555
C35 C34 1_555 1_555
C36 C31 1_555 1_555
C37 C33 1_555 1_555
C38 C35 1_555 1_555
In5 O13 1_555 1_555
O19 In5 1_555 1_555
O21 In5 1_555 1_555
O14 In5 1_555 1_555
C35 C36 1_555 1_555
O9_2 C29_2 1_555 1_555
O10_2 C29_2 1_555 1_555
H20_2 C24_2 1_555 1_555
C25_2 C24_2 1_555 1_555
C29_2 C25_2 1_555 1_555
In7 O9_2 1_555 1_555
O10_2 In7 1_555 1_555
O20 C30_2 1_555 1_555
O22 C30_2 1_555 1_555
H21_2 C26_2 1_555 1_555
H22_2 C28_2 1_555 1_555
C27_2 C26_2 1_555 1_555
C28_2 C23_2 1_555 1_555
C30_2 C27_2 1_555 1_555
C27_2 C28_2 1_555 1_555
In6 O1_2 1_555 1_555
O1_2 C13_2 1_555 1_555
O2_2 In6 1_555 1_555
O5_2 In6 1_555 1_555
O6_2 In6 1_555 1_555
O7 C22_2 1_555 1_555
O8 C22_2 1_555 1_555
H14_2 C8_2 1_555 1_555
H17_2 C16_2 1_555 1_555
H18_2 C18_2 1_555 1_555
H19_2 C20_2 1_555 1_555
C8_2 C9_2 1_555 1_555
C13_2 O2_2 1_555 1_555
C15_2 C16_2 1_555 1_555
C16_2 C17_2 1_555 1_555
C17_2 C18_2 1_555 1_555
C18_2 C19_2 1_555 1_555
C19_2 C20_2 1_555 1_555
C20_2 C15_2 1_555 1_555
C21_2 O5_2 1_555 1_555
C22_2 C19_2 1_555 1_555
O13_2 C37_2 1_555 1_555
O14_2 C37_2 1_555 1_555
O15 C38_2 1_555 1_555
O16 C38_2 1_555 1_555
H23_2 C32_2 1_555 1_555
H24_2 C34_2 1_555 1_555
H25_2 C36_2 1_555 1_555
C31_2 C15_2 1_555 1_555
C32_2 C31_2 1_555 1_555
C33_2 C32_2 1_555 1_555
C34_2 C33_2 1_555 1_555
C35_2 C34_2 1_555 1_555
C36_2 C31_2 1_555 1_555
C37_2 C33_2 1_555 1_555
C38_2 C35_2 1_555 1_555
In7 O13_2 1_555 1_555
O6_2 C21_2 1_555 1_555
C9_2 C13_2 1_555 1_555
C17_2 C21_2 1_555 1_555
O14_2 In7 1_555 1_555
C35_2 C36_2 1_555 1_555
O19 C14_2 1_555 1_555
O21 C14_2 1_555 1_555
H15_2 C10_2 1_555 1_555
H16_2 C12_2 1_555 1_555
C10_2 C11_2 1_555 1_555
C11_2 C12_2 1_555 1_555
C12_2 C7_2 1_555 1_555
C14_2 C11_2 1_555 1_555

#END
