
###############################################################################
#
# This file contains modified crystal structure data generated from the
# MOF subset of the Cambridge Structural Database (CSD) v543 
# hosted by the Cambridge Crystallographic Data Centre (CCDC).
#
# This work is licensed under the Creative Commons
# Attribution-NonCommercial-ShareAlike 4.0 International License.
# To view a copy of this license, visit
# http://creativecommons.org/licenses/by-nc-sa/4.0/
# or send a letter to
# Creative Commons, PO Box 1866, Mountain View, CA 94042, USA.
#
# CIF created using the CSD Python API on 29 September 2022
# The structure has been converted into the P1 space group
# The structure has a 3D framework
# The original CSD entry MURCAD is in the monoclinic crystal system
# The framework has been calculated to contain at least 10.0% void space
# The void calculation uses a probe of radius 1.32A, grid spacing 0.4
# H atom positions have been added when not included in the experimental data
#
###############################################################################

data_MURCAD
_chemical_formula_moiety         '(C68 H88 Cu8 N16 O48)n'
_symmetry_cell_setting           triclinic
_symmetry_space_group_name_H-M   'P 1'
_symmetry_Int_Tables_number      1
_space_group_name_Hall           'P 1'
loop_
_symmetry_equiv_pos_site_id
_symmetry_equiv_pos_as_xyz
1 x,y,z
_cell_length_a                   14.7908(4)
_cell_length_b                   13.9157(3)
_cell_length_c                   15.5121(4)
_cell_angle_alpha                90
_cell_angle_beta                 114.9870(10)
_cell_angle_gamma                90
_cell_volume                     2893.94
loop_
_atom_site_label
_atom_site_type_symbol
_atom_site_fract_x
_atom_site_fract_y
_atom_site_fract_z
O3 O 0.1951(2) 0.1814(2) 0.0892(2)
O4 O 0.1767(3) 0.1229(3) 0.2131(3)
C2 C 0.0771(4) 0.0579(4) 0.0611(3)
C5 C 0.1556(4) 0.1239(4) 0.1285(4)
Cu3 Cu 0.28100(4) 0.27299(4) 0.18648(4)
Cu1 Cu 0.21900(4) 0.77299(4) 0.31352(4)
N1 N 0.0918(3) 0.6889(3) 0.2786(3)
N2 N 0.0090(3) 0.5660(3) 0.3313(4)
O1 O 0.1423(3) 0.8461(3) 0.1991(3)
O2 O 0.2513(3) 0.9377(4) 0.1731(3)
O5 O 0.1831(3) 0.8642(3) 0.4109(3)
O6 O 0.3409(3) 0.8486(4) 0.3341(3)
C1 C 0.0793(4) 0.9589(4) 0.0767(3)
C3 C 0.0018(4) 0.9037(4) 0.0159(4)
H1 H 0.004(4) 0.842(4) 0.026(4)
C4 C 0.1652(4) 0.9123(4) 0.1563(4)
C6 C 0.0000 0.7491(5) 0.2500
H2 H 0.012(4) 0.788(4) 0.311(4)
C7 C 0.0976(4) 0.6261(4) 0.3588(4)
H3 H 0.157(4) 0.586(3) 0.374(3)
H4 H 0.098(4) 0.670(4) 0.406(4)
C8 C 0.0788(4) 0.6258(4) 0.1964(4)
H5 H 0.142(5) 0.580(4) 0.217(4)
H6 H 0.077(5) 0.674(6) 0.154(5)
C9 C 0.0000 0.5058(6) 0.2500
H7 H 0.057(5) 0.459(5) 0.273(5)
O13 O 0.3049(2) 0.6814(2) 0.4108(2)
H15 H 0.179738 0.823891 0.462289
H16 H 0.235679 0.913828 0.439206
H17 H 0.325505 0.894646 0.28084
H18 H 0.363255 0.884506 0.394941
C12 C 0.9982(4) 0.0963(4) 0.9841(4)
C13 C 0.9207(4) 0.0411(4) 0.9233(3)
C16 C 0.8348(4) 0.0877(4) 0.8437(4)
O9 O 0.8577(3) 0.1539(3) 0.8009(3)
O10 O 0.7487(3) 0.0623(4) 0.8269(3)
H14 H 0.996(4) 0.158(4) 0.974(4)
Cu5 Cu 0.78100(4) 0.22701(4) 0.68648(4)
C6_2 C 1.0000 0.7491(5) 0.2500
C9_2 C 1.0000 0.5058(6) 0.2500
N3 N 0.9082(3) 0.6889(3) 0.2214(3)
C10 C 0.9024(4) 0.6261(4) 0.1412(4)
N4 N 0.9910(3) 0.5660(3) 0.1687(4)
C11 C 0.9212(4) 0.6258(4) 0.3036(4)
H8 H 0.858(5) 0.580(4) 0.283(4)
H9 H 0.923(5) 0.674(6) 0.346(5)
H10 H 0.943(5) 0.459(5) 0.227(5)
H11 H 0.843(4) 0.586(3) 0.126(3)
H12 H 0.902(4) 0.670(4) 0.094(4)
H13 H 0.988(4) 0.788(4) 0.189(4)
Cu2 Cu 0.78100(4) 0.77299(4) 0.18648(4)
O11 O 0.8169(3) 0.8642(3) 0.0891(3)
O12 O 0.6591(3) 0.8486(4) 0.1659(3)
O14 O 0.8577(3) 0.8461(3) 0.3009(3)
O15 O 0.6951(2) 0.6814(2) 0.0892(2)
H19 H 0.820262 0.823891 0.0377112
H20 H 0.764321 0.913828 0.060794
H21 H 0.674495 0.894646 0.21916
H22 H 0.636745 0.884506 0.105059
C14 C 0.9229(4) 0.9421(4) 0.9389(3)
C15 C 0.8444(4) 0.8761(4) 0.8715(4)
O7 O 0.8049(2) 0.8186(2) 0.9108(2)
O8 O 0.8233(3) 0.8771(3) 0.7869(3)
Cu4 Cu 0.71900(4) 0.72701(4) 0.81352(4)
Cu1_2 Cu 0.71900(4) 0.27299(4) 0.31352(4)
N1_2 N 0.5918(3) 0.1889(3) 0.2786(3)
N2_2 N 0.5090(3) 0.0660(3) 0.3313(4)
O1_2 O 0.6423(3) 0.3461(3) 0.1991(3)
O2_2 O 0.7513(3) 0.4377(4) 0.1731(3)
O4_2 O 0.6767(3) 0.6229(3) 0.2131(3)
O5_2 O 0.6831(3) 0.3642(3) 0.4109(3)
O6_2 O 0.8409(3) 0.3486(4) 0.3341(3)
C1_2 C 0.5793(4) 0.4589(4) 0.0767(3)
C2_2 C 0.5771(4) 0.5579(4) 0.0611(3)
C3_2 C 0.5018(4) 0.4037(4) 0.0159(4)
H1_2 H 0.504(4) 0.342(4) 0.026(4)
C4_2 C 0.6652(4) 0.4123(4) 0.1563(4)
C5_2 C 0.6556(4) 0.6239(4) 0.1285(4)
C6_3 C 0.5000 0.2491(5) 0.2500
H2_2 H 0.512(4) 0.288(4) 0.311(4)
C7_2 C 0.5976(4) 0.1261(4) 0.3588(4)
H3_2 H 0.657(4) 0.086(3) 0.374(3)
H4_2 H 0.598(4) 0.170(4) 0.406(4)
C8_2 C 0.5788(4) 0.1258(4) 0.1964(4)
H5_2 H 0.642(5) 0.080(4) 0.217(4)
H6_2 H 0.577(5) 0.174(6) 0.154(5)
C9_3 C 0.5000 0.0058(6) 0.2500
N3_2 N 0.4082(3) 0.1889(3) 0.2214(3)
C10_2 C 0.4024(4) 0.1261(4) 0.1412(4)
N4_2 N 0.4910(3) 0.0660(3) 0.1687(4)
C11_2 C 0.4212(4) 0.1258(4) 0.3036(4)
H8_2 H 0.358(5) 0.080(4) 0.283(4)
H9_2 H 0.423(5) 0.174(6) 0.346(5)
H11_2 H 0.343(4) 0.086(3) 0.126(3)
H12_2 H 0.402(4) 0.170(4) 0.094(4)
H13_2 H 0.488(4) 0.288(4) 0.189(4)
O11_2 O 0.3169(3) 0.3642(3) 0.0891(3)
O12_2 O 0.1591(3) 0.3486(4) 0.1659(3)
O13_2 O 0.8049(2) 0.1814(2) 0.4108(2)
O14_2 O 0.3577(3) 0.3461(3) 0.3009(3)
H15_2 H 0.679738 0.323891 0.462289
H16_2 H 0.735679 0.413828 0.439206
H17_2 H 0.825505 0.394646 0.28084
H18_2 H 0.863255 0.384506 0.394941
H19_2 H 0.320262 0.323891 0.0377112
H20_2 H 0.264321 0.413828 0.060794
H21_2 H 0.174495 0.394646 0.21916
H22_2 H 0.136745 0.384506 0.105059
C12_2 C 0.4982(4) 0.5963(4) 0.9841(4)
C13_2 C 0.4207(4) 0.5411(4) 0.9233(3)
C14_2 C 0.4229(4) 0.4421(4) 0.9389(3)
C15_2 C 0.3444(4) 0.3761(4) 0.8715(4)
O7_2 O 0.3049(2) 0.3186(2) 0.9108(2)
O8_2 O 0.3233(3) 0.3771(3) 0.7869(3)
C16_2 C 0.3348(4) 0.5877(4) 0.8437(4)
O9_2 O 0.3577(3) 0.6539(3) 0.8009(3)
O10_2 O 0.2487(3) 0.5623(4) 0.8269(3)
H14_2 H 0.496(4) 0.658(4) 0.974(4)
Cu4_2 Cu 0.21900(4) 0.22701(4) 0.81352(4)
Cu5_2 Cu 0.28100(4) 0.72701(4) 0.68648(4)
C12_3 C 0.0018(4) 0.0963(4) 0.5159(4)
C13_3 C 0.0793(4) 0.0411(4) 0.5767(3)
C16_3 C 0.1652(4) 0.0877(4) 0.6563(4)
O9_3 O 0.1423(3) 0.1539(3) 0.6991(3)
O10_3 O 0.2513(3) 0.0623(4) 0.6731(3)
H14_3 H 0.004(4) 0.158(4) 0.526(4)
C14_3 C 0.0771(4) 0.9421(4) 0.5611(3)
C15_3 C 0.1556(4) 0.8761(4) 0.6285(4)
O7_3 O 0.1951(2) 0.8186(2) 0.5892(2)
O8_3 O 0.1767(3) 0.8771(3) 0.7131(3)
O4_3 O 0.8233(3) 0.1229(3) 0.2869(3)
C2_3 C 0.9229(4) 0.0579(4) 0.4389(3)
C5_3 C 0.8444(4) 0.1239(4) 0.3715(4)
O2_3 O 0.7487(3) 0.9377(4) 0.3269(3)
C1_3 C 0.9207(4) 0.9589(4) 0.4233(3)
C3_3 C 0.9982(4) 0.9037(4) 0.4841(4)
H1_3 H 0.996(4) 0.842(4) 0.474(4)
C4_3 C 0.8348(4) 0.9123(4) 0.3437(4)
O2_4 O 0.2487(3) 0.4377(4) 0.3269(3)
O4_4 O 0.3233(3) 0.6229(3) 0.2869(3)
C1_4 C 0.4207(4) 0.4589(4) 0.4233(3)
C2_4 C 0.4229(4) 0.5579(4) 0.4389(3)
C3_4 C 0.4982(4) 0.4037(4) 0.4841(4)
H1_4 H 0.496(4) 0.342(4) 0.474(4)
C4_4 C 0.3348(4) 0.4123(4) 0.3437(4)
C5_4 C 0.3444(4) 0.6239(4) 0.3715(4)
C12_4 C 0.5018(4) 0.5963(4) 0.5159(4)
C13_4 C 0.5793(4) 0.5411(4) 0.5767(3)
C14_4 C 0.5771(4) 0.4421(4) 0.5611(3)
C15_4 C 0.6556(4) 0.3761(4) 0.6285(4)
O7_4 O 0.6951(2) 0.3186(2) 0.5892(2)
O8_4 O 0.6767(3) 0.3771(3) 0.7131(3)
C16_4 C 0.6652(4) 0.5877(4) 0.6563(4)
O9_4 O 0.6423(3) 0.6539(3) 0.6991(3)
O10_4 O 0.7513(3) 0.5623(4) 0.6731(3)
H14_4 H 0.504(4) 0.658(4) 0.526(4)
C6_4 C 0.0000 0.2509(5) 0.7500
C9_4 C -0.0000 0.4942(6) 0.7500
N3_3 N 0.0918(3) 0.3111(3) 0.7786(3)
C10_3 C 0.0976(4) 0.3739(4) 0.8588(4)
N4_3 N 0.0090(3) 0.4340(3) 0.8313(4)
C11_3 C 0.0788(4) 0.3742(4) 0.6964(4)
H8_3 H 0.142(5) 0.420(4) 0.717(4)
H9_3 H 0.077(5) 0.326(6) 0.654(5)
H10_2 H 0.057(5) 0.541(5) 0.773(5)
H11_3 H 0.157(4) 0.414(3) 0.874(3)
H12_3 H 0.098(4) 0.330(4) 0.906(4)
H13_3 H 0.012(4) 0.212(4) 0.811(4)
O11_3 O 0.1831(3) 0.1358(3) 0.9109(3)
O12_3 O 0.3409(3) 0.1514(4) 0.8341(3)
H19_3 H 0.179738 0.176109 0.962289
H20_3 H 0.235679 0.0861722 0.939206
H21_3 H 0.325505 0.105354 0.78084
H22_3 H 0.363255 0.115494 0.894941
N1_3 N 0.9082(3) 0.3111(3) 0.7214(3)
N2_3 N 0.9910(3) 0.4340(3) 0.6687(4)
O5_3 O 0.8169(3) 0.1358(3) 0.5891(3)
O6_3 O 0.6591(3) 0.1514(4) 0.6659(3)
C6_5 C 1.0000 0.2509(5) 0.7500
H2_3 H 0.988(4) 0.212(4) 0.689(4)
C7_3 C 0.9024(4) 0.3739(4) 0.6412(4)
H3_3 H 0.843(4) 0.414(3) 0.626(3)
H4_3 H 0.902(4) 0.330(4) 0.594(4)
C8_3 C 0.9212(4) 0.3742(4) 0.8036(4)
H5_3 H 0.858(5) 0.420(4) 0.783(4)
H6_3 H 0.923(5) 0.326(6) 0.846(5)
C9_5 C 1.0000 0.4942(6) 0.7500
H7_2 H 0.943(5) 0.541(5) 0.727(5)
H15_3 H 0.820262 0.176109 0.537711
H16_3 H 0.764321 0.0861722 0.560794
H17_3 H 0.674495 0.105354 0.71916
H18_3 H 0.636745 0.115494 0.605059
N1_4 N 0.4082(3) 0.8111(3) 0.7214(3)
N2_4 N 0.4910(3) 0.9340(3) 0.6687(4)
O5_4 O 0.3169(3) 0.6358(3) 0.5891(3)
O6_4 O 0.1591(3) 0.6514(4) 0.6659(3)
C6_6 C 0.5000 0.7509(5) 0.7500
H2_4 H 0.488(4) 0.712(4) 0.689(4)
C7_4 C 0.4024(4) 0.8739(4) 0.6412(4)
H3_4 H 0.343(4) 0.914(3) 0.626(3)
H4_4 H 0.402(4) 0.830(4) 0.594(4)
C8_4 C 0.4212(4) 0.8742(4) 0.8036(4)
H5_4 H 0.358(5) 0.920(4) 0.783(4)
H6_4 H 0.423(5) 0.826(6) 0.846(5)
C9_6 C 0.5000 0.9942(6) 0.7500
N3_4 N 0.5918(3) 0.8111(3) 0.7786(3)
C10_4 C 0.5976(4) 0.8739(4) 0.8588(4)
N4_4 N 0.5090(3) 0.9340(3) 0.8313(4)
C11_4 C 0.5788(4) 0.8742(4) 0.6964(4)
H8_4 H 0.642(5) 0.920(4) 0.717(4)
H9_4 H 0.577(5) 0.826(6) 0.654(5)
H11_4 H 0.657(4) 0.914(3) 0.874(3)
H12_4 H 0.598(4) 0.830(4) 0.906(4)
H13_4 H 0.512(4) 0.712(4) 0.811(4)
O11_4 O 0.6831(3) 0.6358(3) 0.9109(3)
O12_4 O 0.8409(3) 0.6514(4) 0.8341(3)
H15_4 H 0.320262 0.676109 0.537711
H16_4 H 0.264321 0.586172 0.560794
H17_4 H 0.174495 0.605354 0.71916
H18_4 H 0.136745 0.615494 0.605059
H19_4 H 0.679738 0.676109 0.962289
H20_4 H 0.735679 0.586172 0.939206
H21_4 H 0.825505 0.605354 0.78084
H22_4 H 0.863255 0.615494 0.894941
H7_3 H 0.557(5) 0.959(5) 0.273(5)
H10_3 H 0.443(5) 0.959(5) 0.227(5)
H7_4 H 0.443(5) 0.041(5) 0.727(5)
H10_4 H 0.557(5) 0.041(5) 0.773(5)
loop_
_geom_bond_atom_site_label_1
_geom_bond_atom_site_label_2
_geom_bond_site_symmetry_1
_geom_bond_site_symmetry_2
O3 C5 1_555 1_555
O4 C5 1_555 1_555
C2 C5 1_555 1_555
Cu3 O3 1_555 1_555
Cu1 N1 1_555 1_555
N1 C6 1_555 1_555
N2 C7 1_555 1_555
O1 Cu1 1_555 1_555
O2 C4 1_555 1_555
O5 Cu1 1_555 1_555
O6 Cu1 1_555 1_555
C3 C1 1_555 1_555
H1 C3 1_555 1_555
C4 O1 1_555 1_555
C6 H2 1_555 1_555
C7 N1 1_555 1_555
H3 C7 1_555 1_555
H4 C7 1_555 1_555
C8 N1 1_555 1_555
H5 C8 1_555 1_555
H6 C8 1_555 1_555
C9 N2 1_555 1_555
H7 C9 1_555 1_555
O13 Cu1 1_555 1_555
C1 C4 1_555 1_555
O5 H15 1_555 1_555
O5 H16 1_555 1_555
O6 H17 1_555 1_555
O6 H18 1_555 1_555
C13 C12 1_555 1_555
C16 C13 1_555 1_555
O9 C16 1_555 1_555
O10 C16 1_555 1_555
H14 C12 1_555 1_555
Cu5 O9 1_555 1_555
N3 C6_2 1_555 1_555
C10 N3 1_555 1_555
H8 C11 1_555 1_555
H9 C11 1_555 1_555
H10 C9_2 1_555 1_555
H11 C10 1_555 1_555
H12 C10 1_555 1_555
H13 C6_2 1_555 1_555
Cu2 N3 1_555 1_555
O11 Cu2 1_555 1_555
O12 Cu2 1_555 1_555
O14 Cu2 1_555 1_555
O15 Cu2 1_555 1_555
C9_2 N4 1_555 1_555
N3 C11 1_555 1_555
C10 N4 1_555 1_555
O11 H19 1_555 1_555
O11 H20 1_555 1_555
O12 H21 1_555 1_555
O12 H22 1_555 1_555
C15 C14 1_555 1_555
O7 C15 1_555 1_555
O8 C15 1_555 1_555
Cu4 O7 1_555 1_555
Cu1_2 N1_2 1_555 1_555
N1_2 C6_3 1_555 1_555
N2_2 C7_2 1_555 1_555
O1_2 Cu1_2 1_555 1_555
O2_2 C4_2 1_555 1_555
O15 C5_2 1_555 1_555
O4_2 C5_2 1_555 1_555
O5_2 Cu1_2 1_555 1_555
O6_2 Cu1_2 1_555 1_555
C1_2 C2_2 1_555 1_555
C2_2 C5_2 1_555 1_555
C3_2 C1_2 1_555 1_555
H1_2 C3_2 1_555 1_555
C4_2 O1_2 1_555 1_555
C6_3 H2_2 1_555 1_555
C7_2 N1_2 1_555 1_555
H3_2 C7_2 1_555 1_555
H4_2 C7_2 1_555 1_555
C8_2 N1_2 1_555 1_555
H5_2 C8_2 1_555 1_555
H6_2 C8_2 1_555 1_555
C9_3 N2_2 1_555 1_555
N3_2 C6_3 1_555 1_555
C10_2 N3_2 1_555 1_555
N4_2 C8_2 1_555 1_555
C11_2 N2_2 1_555 1_555
H8_2 C11_2 1_555 1_555
H9_2 C11_2 1_555 1_555
H11_2 C10_2 1_555 1_555
H12_2 C10_2 1_555 1_555
H13_2 C6_3 1_555 1_555
Cu3 N3_2 1_555 1_555
O11_2 Cu3 1_555 1_555
O12_2 Cu3 1_555 1_555
O13_2 Cu1_2 1_555 1_555
O14_2 Cu3 1_555 1_555
C1_2 C4_2 1_555 1_555
C9_3 N4_2 1_555 1_555
N3_2 C11_2 1_555 1_555
C10_2 N4_2 1_555 1_555
O5_2 H15_2 1_555 1_555
O5_2 H16_2 1_555 1_555
O6_2 H17_2 1_555 1_555
O6_2 H18_2 1_555 1_555
O11_2 H19_2 1_555 1_555
O11_2 H20_2 1_555 1_555
O12_2 H21_2 1_555 1_555
O12_2 H22_2 1_555 1_555
C13_2 C12_2 1_555 1_555
C15_2 C14_2 1_555 1_555
O7_2 C15_2 1_555 1_555
O8_2 C15_2 1_555 1_555
C16_2 C13_2 1_555 1_555
O9_2 C16_2 1_555 1_555
O10_2 C16_2 1_555 1_555
H14_2 C12_2 1_555 1_555
Cu4_2 O7_2 1_555 1_555
Cu5_2 O9_2 1_555 1_555
C13_2 C14_2 1_555 1_555
C13_3 C12_3 1_555 1_555
C16_3 C13_3 1_555 1_555
O9_3 C16_3 1_555 1_555
O10_3 C16_3 1_555 1_555
H14_3 C12_3 1_555 1_555
Cu4_2 O9_3 1_555 1_555
C15_3 C14_3 1_555 1_555
O7_3 C15_3 1_555 1_555
O8_3 C15_3 1_555 1_555
Cu5_2 O7_3 1_555 1_555
O13_2 C5_3 1_555 1_555
O4_3 C5_3 1_555 1_555
C2_3 C5_3 1_555 1_555
O2_3 C4_3 1_555 1_555
C3_3 C1_3 1_555 1_555
H1_3 C3_3 1_555 1_555
C4_3 O14 1_555 1_555
C1_3 C4_3 1_555 1_555
O2_4 C4_4 1_555 1_555
O13 C5_4 1_555 1_555
O4_4 C5_4 1_555 1_555
C1_4 C2_4 1_555 1_555
C2_4 C5_4 1_555 1_555
C3_4 C1_4 1_555 1_555
H1_4 C3_4 1_555 1_555
C4_4 O14_2 1_555 1_555
C12_4 C2_4 1_555 1_555
C13_4 C12_4 1_555 1_555
C14_4 C3_4 1_555 1_555
C15_4 C14_4 1_555 1_555
O7_4 C15_4 1_555 1_555
O8_4 C15_4 1_555 1_555
C16_4 C13_4 1_555 1_555
O9_4 C16_4 1_555 1_555
O10_4 C16_4 1_555 1_555
H14_4 C12_4 1_555 1_555
Cu5 O7_4 1_555 1_555
Cu4 O9_4 1_555 1_555
C1_4 C4_4 1_555 1_555
C13_4 C14_4 1_555 1_555
N3_3 C6_4 1_555 1_555
C10_3 N3_3 1_555 1_555
H8_3 C11_3 1_555 1_555
H9_3 C11_3 1_555 1_555
H10_2 C9_4 1_555 1_555
H11_3 C10_3 1_555 1_555
H12_3 C10_3 1_555 1_555
H13_3 C6_4 1_555 1_555
Cu4_2 N3_3 1_555 1_555
O11_3 Cu4_2 1_555 1_555
O12_3 Cu4_2 1_555 1_555
C9_4 N4_3 1_555 1_555
N3_3 C11_3 1_555 1_555
C10_3 N4_3 1_555 1_555
O11_3 H19_3 1_555 1_555
O11_3 H20_3 1_555 1_555
O12_3 H21_3 1_555 1_555
O12_3 H22_3 1_555 1_555
Cu5 N1_3 1_555 1_555
N1_3 C6_5 1_555 1_555
N2_3 C7_3 1_555 1_555
O5_3 Cu5 1_555 1_555
O6_3 Cu5 1_555 1_555
C6_5 H2_3 1_555 1_555
C7_3 N1_3 1_555 1_555
H3_3 C7_3 1_555 1_555
H4_3 C7_3 1_555 1_555
C8_3 N1_3 1_555 1_555
H5_3 C8_3 1_555 1_555
H6_3 C8_3 1_555 1_555
C9_5 N2_3 1_555 1_555
H7_2 C9_5 1_555 1_555
O5_3 H15_3 1_555 1_555
O5_3 H16_3 1_555 1_555
O6_3 H17_3 1_555 1_555
O6_3 H18_3 1_555 1_555
Cu5_2 N1_4 1_555 1_555
N1_4 C6_6 1_555 1_555
N2_4 C7_4 1_555 1_555
O5_4 Cu5_2 1_555 1_555
O6_4 Cu5_2 1_555 1_555
C6_6 H2_4 1_555 1_555
C7_4 N1_4 1_555 1_555
H3_4 C7_4 1_555 1_555
H4_4 C7_4 1_555 1_555
C8_4 N1_4 1_555 1_555
H5_4 C8_4 1_555 1_555
H6_4 C8_4 1_555 1_555
C9_6 N2_4 1_555 1_555
N3_4 C6_6 1_555 1_555
C10_4 N3_4 1_555 1_555
N4_4 C8_4 1_555 1_555
C11_4 N2_4 1_555 1_555
H8_4 C11_4 1_555 1_555
H9_4 C11_4 1_555 1_555
H11_4 C10_4 1_555 1_555
H12_4 C10_4 1_555 1_555
H13_4 C6_6 1_555 1_555
Cu4 N3_4 1_555 1_555
O11_4 Cu4 1_555 1_555
O12_4 Cu4 1_555 1_555
C9_6 N4_4 1_555 1_555
N3_4 C11_4 1_555 1_555
C10_4 N4_4 1_555 1_555
O5_4 H15_4 1_555 1_555
O5_4 H16_4 1_555 1_555
O6_4 H17_4 1_555 1_555
O6_4 H18_4 1_555 1_555
O11_4 H19_4 1_555 1_555
O11_4 H20_4 1_555 1_555
O12_4 H21_4 1_555 1_555
O12_4 H22_4 1_555 1_555

#END
