
###############################################################################
#
# This file contains modified crystal structure data generated from the
# MOF subset of the Cambridge Structural Database (CSD) v543 
# hosted by the Cambridge Crystallographic Data Centre (CCDC).
#
# This work is licensed under the Creative Commons
# Attribution-NonCommercial-ShareAlike 4.0 International License.
# To view a copy of this license, visit
# http://creativecommons.org/licenses/by-nc-sa/4.0/
# or send a letter to
# Creative Commons, PO Box 1866, Mountain View, CA 94042, USA.
#
# CIF created using the CSD Python API on 29 September 2022
# The structure has been converted into the P1 space group
# The structure has a 3D framework
# The original CSD entry MUSQEY is in the tetragonal crystal system
# The framework has been calculated to contain at least 10.0% void space
# The void calculation uses a probe of radius 1.32A, grid spacing 0.4
#
###############################################################################

data_MUSQEY
_chemical_formula_moiety         '(C117 H152 N24 Ni8 O16)n'
_symmetry_cell_setting           triclinic
_symmetry_space_group_name_H-M   'P 1'
_symmetry_Int_Tables_number      1
_space_group_name_Hall           'P 1'
loop_
_symmetry_equiv_pos_site_id
_symmetry_equiv_pos_as_xyz
1 x,y,z
_cell_length_a                   17.173(5)
_cell_length_b                   17.173(5)
_cell_length_c                   11.406(5)
_cell_angle_alpha                90
_cell_angle_beta                 90
_cell_angle_gamma                90
_cell_volume                     3363.77
loop_
_atom_site_label
_atom_site_type_symbol
_atom_site_fract_x
_atom_site_fract_y
_atom_site_fract_z
H41 H 0.0091 0.7102 0.1762
Ni2 Ni 0.68147(3) 0.18147(3) 0.0000
N7 N 0.5729(3) 0.2921(3) 0.1747(5)
N8 N 0.5822(2) 0.1582(3) 0.0936(4)
H47 H 0.5987 0.1344 0.1697
N9 N 0.7055(3) 0.2851(3) 0.0973(5)
C44 C 0.7637(4) 0.3225(3) 0.0215(7)
H49 H 0.7907 0.3640 0.0658
C45 C 0.7362(4) 0.2792(4) 0.2190(6)
H50 H 0.7840 0.2471 0.2183
H51 H 0.7506 0.3320 0.2466
C46 C 0.6779(3) 0.2434(4) 0.3063(6)
H52 H 0.6981 0.2497 0.3870
H53 H 0.6728 0.1870 0.2904
C47 C 0.5992(4) 0.2811(4) 0.2978(6)
H54 H 0.6009 0.3324 0.3373
H55 H 0.5607 0.2484 0.3397
C48 C 0.5327(3) 0.2271(3) 0.1221(5)
H56 H 0.4909 0.2102 0.1762
H57 H 0.5075 0.2453 0.0491
C49 C 0.6308(4) 0.3299(3) 0.1053(6)
H58 H 0.6101 0.3380 0.0253
H59 H 0.6418 0.3818 0.1394
C50 C 0.5404(3) 0.0980(3) 0.0272(4)
H60 H 0.5044 0.0699 0.0801
H63 H 0.8468 0.2373 0.0464
H76 H 0.6228 0.0092 0.0355
Ni4 Ni 0.31853(3) 0.81853(3) 0.0000
O9 O 0.7486(2) 0.1177(2) 0.1177(3)
N7_2 N 0.4271(3) 0.7079(3) 0.1747(5)
N8_2 N 0.4178(2) 0.8418(3) 0.0936(4)
H47_2 H 0.4013 0.8656 0.1697
N9_2 N 0.2945(3) 0.7149(3) 0.0973(5)
C44_2 C 0.2363(4) 0.6775(3) 0.0215(7)
H49_2 H 0.2093 0.6360 0.0658
C45_2 C 0.2638(4) 0.7208(4) 0.2190(6)
H50_2 H 0.2160 0.7529 0.2183
H51_2 H 0.2494 0.6680 0.2466
C46_2 C 0.3221(3) 0.7566(4) 0.3063(6)
H52_2 H 0.3019 0.7503 0.3870
H53_2 H 0.3272 0.8130 0.2904
C47_2 C 0.4008(4) 0.7189(4) 0.2978(6)
H54_2 H 0.3991 0.6676 0.3373
H55_2 H 0.4393 0.7516 0.3397
C48_2 C 0.4673(3) 0.7729(3) 0.1221(5)
H56_2 H 0.5091 0.7898 0.1762
H57_2 H 0.4925 0.7547 0.0491
C49_2 C 0.3692(4) 0.6701(3) 0.1053(6)
H58_2 H 0.3899 0.6620 0.0253
H59_2 H 0.3582 0.6182 0.1394
C50_2 C 0.4596(3) 0.9020(3) 0.0272(4)
H60_2 H 0.4956 0.9301 0.0801
H63_2 H 0.1532 0.7627 0.0464
H76_2 H 0.3772 0.9908 0.0355
O9_2 O 0.2514(2) 0.8823(2) 0.1177(3)
C1 C 0.0000 1.0000 0.5000
H22 H 0.0220 0.7450 0.6136
C21 C 0.0168(3) 0.8559(3) 0.5581(4)
H23 H 0.0507 0.8486 0.4931
O6 O 0.3300(2) 0.9576(2) 0.2258(4)
C23 C 0.0717(3) 0.9853(3) 0.4207(4)
C24 C 0.0625(3) 0.9370(3) 0.3233(4)
H24 H 0.0125 0.9162 0.3061
C25 C 0.1234(3) 0.9192(3) 0.2526(4)
H25 H 0.1161 0.8854 0.1875
C26 C 0.1973(3) 0.9505(3) 0.2755(5)
C27 C 0.2055(3) 0.9996(3) 0.3705(4)
C29 C 0.2653(3) 0.9292(3) 0.2004(5)
O2 O 0.6700(2) 0.0424(2) 0.2258(4)
C1_2 C 1.0000 -0.0000 0.5000
C2 C 0.9283(3) 0.0147(3) 0.4207(4)
C3 C 0.9375(3) 0.0630(3) 0.3233(4)
H2 H 0.9875 0.0838 0.3061
C4 C 0.8766(3) 0.0808(3) 0.2526(4)
H3 H 0.8839 0.1146 0.1875
C5 C 0.8027(3) 0.0495(3) 0.2755(5)
C6 C 0.7945(3) 0.0004(3) 0.3705(4)
C8 C 0.7347(3) 0.0708(3) 0.2004(5)
H30 H 0.9780 0.2550 0.6136
C35 C 0.9832(3) 0.1441(3) 0.5581(4)
H31 H 0.9493 0.1514 0.4931
Ni1 Ni 0.81853(3) 0.68147(3) 0.0000
O1 O 0.7514(2) 0.6177(2) 0.1177(3)
O2_2 O 0.8300(2) 0.5424(2) 0.2258(4)
C1_3 C 0.5000 0.5000 0.5000
C2_2 C 0.5717(3) 0.5147(3) 0.4207(4)
C3_2 C 0.5625(3) 0.5630(3) 0.3233(4)
H2_2 H 0.5125 0.5838 0.3061
C4_2 C 0.6234(3) 0.5808(3) 0.2526(4)
H3_2 H 0.6161 0.6146 0.1875
C5_2 C 0.6973(3) 0.5495(3) 0.2755(5)
C6_2 C 0.7055(3) 0.5004(3) 0.3705(4)
H4 H 0.7550 0.4780 0.3864
C7 C 0.6441(3) 0.4832(3) 0.4419(4)
H5 H 0.6514 0.4493 0.5069
C8_2 C 0.7653(3) 0.5708(3) 0.2004(5)
H6 H 0.6532 0.7373 0.0464
H19 H 0.8772 0.5092 0.0355
O3 O 0.6177(2) 0.2486(2) 0.8823(3)
O4 O 0.5424(2) 0.1700(2) 0.7742(4)
C16 C 0.5147(3) 0.4283(3) 0.5793(4)
C17 C 0.5630(3) 0.4375(3) 0.6767(4)
H20 H 0.5838 0.4875 0.6939
C18 C 0.5808(3) 0.3766(3) 0.7474(4)
H21 H 0.6146 0.3839 0.8125
C19 C 0.5495(3) 0.3027(3) 0.7245(5)
C20 C 0.5004(3) 0.2945(3) 0.6295(4)
H22_2 H 0.4780 0.2450 0.6136
C21_2 C 0.4832(3) 0.3559(3) 0.5581(4)
H23_2 H 0.4493 0.3486 0.4931
C22 C 0.5708(3) 0.2347(3) 0.7996(5)
O5 O 0.2486(2) 0.3823(2) 0.1177(3)
O6_2 O 0.1700(2) 0.4576(2) 0.2258(4)
C23_2 C 0.4283(3) 0.4853(3) 0.4207(4)
C24_2 C 0.4375(3) 0.4370(3) 0.3233(4)
H24_2 H 0.4875 0.4162 0.3061
C25_2 C 0.3766(3) 0.4192(3) 0.2526(4)
H25_2 H 0.3839 0.3854 0.1875
C26_2 C 0.3027(3) 0.4505(3) 0.2755(5)
C27_2 C 0.2945(3) 0.4996(3) 0.3705(4)
H26 H 0.2450 0.5220 0.3864
C28 C 0.3559(3) 0.5168(3) 0.4419(4)
H27 H 0.3486 0.5507 0.5069
C29_2 C 0.2347(3) 0.4292(3) 0.2004(5)
O7 O 0.3823(2) 0.7514(2) 0.8823(3)
O8 O 0.4576(2) 0.8300(2) 0.7742(4)
C30 C 0.4853(3) 0.5717(3) 0.5793(4)
C31 C 0.4370(3) 0.5625(3) 0.6767(4)
H28 H 0.4162 0.5125 0.6939
C32 C 0.4192(3) 0.6234(3) 0.7474(4)
H29 H 0.3854 0.6161 0.8125
C33 C 0.4505(3) 0.6973(3) 0.7245(5)
C34 C 0.4996(3) 0.7055(3) 0.6295(4)
H30_2 H 0.5220 0.7550 0.6136
C35_2 C 0.5168(3) 0.6441(3) 0.5581(4)
H31_2 H 0.5507 0.6514 0.4931
C36 C 0.4292(3) 0.7653(3) 0.7996(5)
N4 N 0.9271(3) 0.7921(3) 0.1747(5)
N5 N 0.9178(2) 0.6582(3) 0.0936(4)
H32 H 0.9013 0.6344 0.1697
N6 N 0.7945(3) 0.7851(3) 0.0973(5)
C37 C 0.7363(4) 0.8225(3) 0.0215(7)
H34 H 0.7093 0.8640 0.0658
C38 C 0.7638(4) 0.7792(4) 0.2190(6)
H35 H 0.7160 0.7471 0.2183
H36 H 0.7494 0.8320 0.2466
C39 C 0.8221(3) 0.7434(4) 0.3063(6)
H37 H 0.8019 0.7497 0.3870
H38 H 0.8272 0.6870 0.2904
C40 C 0.9008(4) 0.7811(4) 0.2978(6)
H39 H 0.8991 0.8324 0.3373
H40 H 0.9393 0.7484 0.3397
C41 C 0.9673(3) 0.7271(3) 0.1221(5)
H42 H 0.9925 0.7453 0.0491
C42 C 0.8692(4) 0.8299(3) 0.1053(6)
H43 H 0.8899 0.8380 0.0253
H44 H 0.8582 0.8818 0.1394
C43 C 0.9596(3) 0.5980(3) 0.0272(4)
H45 H 0.9956 0.5699 0.0801
Ni2_2 Ni 0.68147(3) 0.18147(3) 1.0000
H48 H 0.7373 0.3468 0.9536
H61 H 0.5092 0.1228 0.9645
N10 N 0.7921(3) 0.0729(3) 0.8253(5)
N11 N 0.6582(3) 0.0822(2) 0.9064(4)
H62 H 0.6344 0.0987 0.8303
N12 N 0.7851(3) 0.2055(3) 0.9027(5)
C51 C 0.8225(3) 0.2637(4) 0.9785(7)
H64 H 0.8640 0.2907 0.9342
C52 C 0.7792(4) 0.2362(4) 0.7810(6)
H65 H 0.7471 0.2840 0.7817
H66 H 0.8320 0.2506 0.7534
C53 C 0.7434(4) 0.1779(3) 0.6937(6)
H67 H 0.7497 0.1981 0.6130
H68 H 0.6870 0.1728 0.7096
C54 C 0.7811(4) 0.0992(4) 0.7022(6)
H69 H 0.8324 0.1009 0.6627
H70 H 0.7484 0.0607 0.6603
C55 C 0.7271(3) 0.0327(3) 0.8779(5)
H72 H 0.7453 0.0075 0.9509
C56 C 0.8299(3) 0.1308(4) 0.8947(6)
H73 H 0.8380 0.1101 0.9747
H74 H 0.8818 0.1418 0.8606
C57 C 0.5980(3) 0.0404(3) 0.9728(4)
H75 H 0.5699 0.0044 0.9199
Ni3 Ni 0.18147(3) 0.31853(3) 0.0000
Ni4_2 Ni 0.31853(3) 0.81853(3) 1.0000
H48_2 H 0.3468 0.2627 0.0464
H61_2 H 0.1228 0.4908 0.0355
N10_2 N 0.0729(3) 0.2079(3) 0.1747(5)
N11_2 N 0.0822(2) 0.3418(3) 0.0936(4)
H62_2 H 0.0987 0.3656 0.1697
N12_2 N 0.2055(3) 0.2149(3) 0.0973(5)
C51_2 C 0.2637(4) 0.1775(3) 0.0215(7)
H64_2 H 0.2907 0.1360 0.0658
C52_2 C 0.2362(4) 0.2208(4) 0.2190(6)
H65_2 H 0.2840 0.2529 0.2183
H66_2 H 0.2506 0.1680 0.2466
C53_2 C 0.1779(3) 0.2566(4) 0.3063(6)
H67_2 H 0.1981 0.2503 0.3870
H68_2 H 0.1728 0.3130 0.2904
C54_2 C 0.0992(4) 0.2189(4) 0.2978(6)
H69_2 H 0.1009 0.1676 0.3373
H70_2 H 0.0607 0.2516 0.3397
C55_2 C 0.0327(3) 0.2729(3) 0.1221(5)
H72_2 H 0.0075 0.2547 0.0491
C56_2 C 0.1308(4) 0.1701(3) 0.1053(6)
H73_2 H 0.1101 0.1620 0.0253
H74_2 H 0.1418 0.1182 0.1394
C57_2 C 0.0404(3) 0.4020(3) 0.0272(4)
H75_2 H 0.0044 0.4301 0.0801
H48_3 H 0.2627 0.6532 0.9536
H61_3 H 0.4908 0.8772 0.9645
N10_3 N 0.2079(3) 0.9271(3) 0.8253(5)
N11_3 N 0.3418(3) 0.9178(2) 0.9064(4)
H62_3 H 0.3656 0.9013 0.8303
N12_3 N 0.2149(3) 0.7945(3) 0.9027(5)
C51_3 C 0.1775(3) 0.7363(4) 0.9785(7)
H64_3 H 0.1360 0.7093 0.9342
C52_3 C 0.2208(4) 0.7638(4) 0.7810(6)
H65_3 H 0.2529 0.7160 0.7817
H66_3 H 0.1680 0.7494 0.7534
C53_3 C 0.2566(4) 0.8221(3) 0.6937(6)
H67_3 H 0.2503 0.8019 0.6130
H68_3 H 0.3130 0.8272 0.7096
C54_3 C 0.2189(4) 0.9008(4) 0.7022(6)
H69_3 H 0.1676 0.8991 0.6627
H70_3 H 0.2516 0.9393 0.6603
C55_3 C 0.2729(3) 0.9673(3) 0.8779(5)
H72_3 H 0.2547 0.9925 0.9509
C56_3 C 0.1701(3) 0.8692(4) 0.8947(6)
H73_3 H 0.1620 0.8899 0.9747
H74_3 H 0.1182 0.8582 0.8606
C57_3 C 0.4020(3) 0.9596(3) 0.9728(4)
H75_3 H 0.4301 0.9956 0.9199
Ni1_2 Ni 0.81853(3) 0.68147(3) 1.0000
N1 N 0.7079(3) 0.5729(3) 0.8253(5)
N2 N 0.8418(3) 0.5822(2) 0.9064(4)
H1 H 0.8656 0.5987 0.8303
N3 N 0.7149(3) 0.7055(3) 0.9027(5)
C9 C 0.6775(3) 0.7637(4) 0.9785(7)
H7 H 0.6360 0.7907 0.9342
C10 C 0.7208(4) 0.7362(4) 0.7810(6)
H8 H 0.7529 0.7840 0.7817
H9 H 0.6680 0.7506 0.7534
C11 C 0.7566(4) 0.6779(3) 0.6937(6)
H10 H 0.7503 0.6981 0.6130
H11 H 0.8130 0.6728 0.7096
C12 C 0.7189(4) 0.5992(4) 0.7022(6)
H12 H 0.6676 0.6009 0.6627
H13 H 0.7516 0.5607 0.6603
C13 C 0.7729(3) 0.5327(3) 0.8779(5)
H14 H 0.7898 0.4909 0.8238
H15 H 0.7547 0.5075 0.9509
C14 C 0.6701(3) 0.6308(4) 0.8947(6)
H16 H 0.6620 0.6101 0.9747
H17 H 0.6182 0.6418 0.8606
C15 C 0.9020(3) 0.5404(3) 0.9728(4)
H18 H 0.9301 0.5044 0.9199
H33 H 0.7627 0.8468 0.9536
H46 H 0.9908 0.6228 0.9645
Ni3_2 Ni 0.18147(3) 0.31853(3) 1.0000
O10 O 0.8823(2) 0.7486(2) 0.8823(3)
N7_3 N 0.2921(3) 0.4271(3) 0.8253(5)
N8_3 N 0.1582(3) 0.4178(2) 0.9064(4)
H47_3 H 0.1344 0.4013 0.8303
N9_3 N 0.2851(3) 0.2945(3) 0.9027(5)
C44_3 C 0.3225(3) 0.2363(4) 0.9785(7)
H49_3 H 0.3640 0.2093 0.9342
C45_3 C 0.2792(4) 0.2638(4) 0.7810(6)
H50_3 H 0.2471 0.2160 0.7817
H51_3 H 0.3320 0.2494 0.7534
C46_3 C 0.2434(4) 0.3221(3) 0.6937(6)
H52_3 H 0.2497 0.3019 0.6130
H53_3 H 0.1870 0.3272 0.7096
C47_3 C 0.2811(4) 0.4008(4) 0.7022(6)
H54_3 H 0.3324 0.3991 0.6627
H55_3 H 0.2484 0.4393 0.6603
C48_3 C 0.2271(3) 0.4673(3) 0.8779(5)
H56_3 H 0.2102 0.5091 0.8238
H57_3 H 0.2453 0.4925 0.9509
C49_3 C 0.3299(3) 0.3692(4) 0.8947(6)
H58_3 H 0.3380 0.3899 0.9747
H59_3 H 0.3818 0.3582 0.8606
C50_3 C 0.0980(3) 0.4596(3) 0.9728(4)
H60_3 H 0.0699 0.4956 0.9199
H63_3 H 0.2373 0.1532 0.9536
H76_3 H 0.0092 0.3772 0.9645
O9_3 O 0.1177(2) 0.2514(2) 0.8823(3)
C1_4 C 0.0000 -0.0000 0.5000
H26_2 H 0.2550 0.0220 0.3864
C28_2 C 0.1441(3) 0.0168(3) 0.4419(4)
H27_2 H 0.1514 0.0507 0.5069
O8_2 O 0.0424(2) 0.3300(2) 0.7742(4)
C30_2 C 0.0147(3) 0.0717(3) 0.5793(4)
C31_2 C 0.0630(3) 0.0625(3) 0.6767(4)
H28_2 H 0.0838 0.0125 0.6939
C32_2 C 0.0808(3) 0.1234(3) 0.7474(4)
H29_2 H 0.1146 0.1161 0.8125
C33_2 C 0.0495(3) 0.1973(3) 0.7245(5)
C34_2 C 0.0004(3) 0.2055(3) 0.6295(4)
C36_2 C 0.0708(3) 0.2653(3) 0.7996(5)
C1_5 C 1.0000 1.0000 0.5000
H4_2 H 0.7450 0.9780 0.3864
C7_2 C 0.8559(3) 0.9832(3) 0.4419(4)
H5_2 H 0.8486 0.9493 0.5069
O4_2 O 0.9576(2) 0.6700(2) 0.7742(4)
C16_2 C 0.9853(3) 0.9283(3) 0.5793(4)
C17_2 C 0.9370(3) 0.9375(3) 0.6767(4)
H20_2 H 0.9162 0.9875 0.6939
C18_2 C 0.9192(3) 0.8766(3) 0.7474(4)
H21_2 H 0.8854 0.8839 0.8125
C19_2 C 0.9505(3) 0.8027(3) 0.7245(5)
C20_2 C 0.9996(3) 0.7945(3) 0.6295(4)
C22_2 C 0.9292(3) 0.7347(3) 0.7996(5)
H71 H 0.7102 0.9909 0.8238
H71_2 H 0.9909 0.2898 0.1762
H71_3 H 0.2898 0.0091 0.8238
loop_
_geom_bond_atom_site_label_1
_geom_bond_atom_site_label_2
_geom_bond_site_symmetry_1
_geom_bond_site_symmetry_2
N7 C47 1_555 1_555
N8 Ni2 1_555 1_555
H47 N8 1_555 1_555
N9 Ni2 1_555 1_555
C44 N9 1_555 1_555
H49 C44 1_555 1_555
C45 N9 1_555 1_555
H50 C45 1_555 1_555
H51 C45 1_555 1_555
C46 C45 1_555 1_555
H52 C46 1_555 1_555
H53 C46 1_555 1_555
C47 C46 1_555 1_555
H54 C47 1_555 1_555
H55 C47 1_555 1_555
C48 N7 1_555 1_555
H56 C48 1_555 1_555
H57 C48 1_555 1_555
C49 N7 1_555 1_555
H58 C49 1_555 1_555
H59 C49 1_555 1_555
C50 N8 1_555 1_555
H60 C50 1_555 1_555
O9 Ni2 1_555 1_555
N8 C48 1_555 1_555
N9 C49 1_555 1_555
N7_2 C47_2 1_555 1_555
N8_2 Ni4 1_555 1_555
H47_2 N8_2 1_555 1_555
N9_2 Ni4 1_555 1_555
C44_2 N9_2 1_555 1_555
H49_2 C44_2 1_555 1_555
C45_2 N9_2 1_555 1_555
H50_2 C45_2 1_555 1_555
H51_2 C45_2 1_555 1_555
C46_2 C45_2 1_555 1_555
H52_2 C46_2 1_555 1_555
H53_2 C46_2 1_555 1_555
C47_2 C46_2 1_555 1_555
H54_2 C47_2 1_555 1_555
H55_2 C47_2 1_555 1_555
C48_2 N7_2 1_555 1_555
H56_2 C48_2 1_555 1_555
H57_2 C48_2 1_555 1_555
C49_2 N7_2 1_555 1_555
H58_2 C49_2 1_555 1_555
H59_2 C49_2 1_555 1_555
C50_2 N8_2 1_555 1_555
H60_2 C50_2 1_555 1_555
O9_2 Ni4 1_555 1_555
N8_2 C48_2 1_555 1_555
N9_2 C49_2 1_555 1_555
H23 C21 1_555 1_555
O9_2 C29 1_555 1_555
O6 C29 1_555 1_555
C23 C1 1_555 1_555
C24 C23 1_555 1_555
H24 C24 1_555 1_555
C25 C24 1_555 1_555
H25 C25 1_555 1_555
C26 C25 1_555 1_555
C27 C26 1_555 1_555
C29 C26 1_555 1_555
O9 C8 1_555 1_555
O2 C8 1_555 1_555
C1_2 C2 1_555 1_555
C2 C3 1_555 1_555
C3 H2 1_555 1_555
C4 C3 1_555 1_555
H3 C4 1_555 1_555
C5 C4 1_555 1_555
C6 C5 1_555 1_555
C8 C5 1_555 1_555
H31 C35 1_555 1_555
Ni1 O1 1_555 1_555
O1 C8_2 1_555 1_555
O2_2 C8_2 1_555 1_555
C1_3 C2_2 1_555 1_555
C2_2 C3_2 1_555 1_555
C3_2 H2_2 1_555 1_555
C4_2 C3_2 1_555 1_555
H3_2 C4_2 1_555 1_555
C5_2 C4_2 1_555 1_555
C6_2 C5_2 1_555 1_555
H4 C6_2 1_555 1_555
C7 C2_2 1_555 1_555
H5 C7 1_555 1_555
C8_2 C5_2 1_555 1_555
O3 C22 1_555 1_555
O4 C22 1_555 1_555
C16 C1_3 1_555 1_555
C17 C16 1_555 1_555
H20 C17 1_555 1_555
C18 C17 1_555 1_555
H21 C18 1_555 1_555
C19 C18 1_555 1_555
C20 C19 1_555 1_555
H22_2 C20 1_555 1_555
C21_2 C16 1_555 1_555
H23_2 C21_2 1_555 1_555
C22 C19 1_555 1_555
O5 C29_2 1_555 1_555
O6_2 C29_2 1_555 1_555
C23_2 C1_3 1_555 1_555
C24_2 C23_2 1_555 1_555
H24_2 C24_2 1_555 1_555
C25_2 C24_2 1_555 1_555
H25_2 C25_2 1_555 1_555
C26_2 C25_2 1_555 1_555
C27_2 C26_2 1_555 1_555
H26 C27_2 1_555 1_555
C28 C23_2 1_555 1_555
H27 C28 1_555 1_555
C29_2 C26_2 1_555 1_555
O7 C36 1_555 1_555
O8 C36 1_555 1_555
C30 C1_3 1_555 1_555
C31 C30 1_555 1_555
H28 C31 1_555 1_555
C32 C31 1_555 1_555
H29 C32 1_555 1_555
C33 C32 1_555 1_555
C34 C33 1_555 1_555
H30_2 C34 1_555 1_555
C35_2 C30 1_555 1_555
H31_2 C35_2 1_555 1_555
C36 C33 1_555 1_555
N4 C40 1_555 1_555
N5 Ni1 1_555 1_555
H32 N5 1_555 1_555
N6 Ni1 1_555 1_555
H34 C37 1_555 1_555
C38 N6 1_555 1_555
H35 C38 1_555 1_555
H36 C38 1_555 1_555
C39 C38 1_555 1_555
H37 C39 1_555 1_555
H38 C39 1_555 1_555
C40 C39 1_555 1_555
H39 C40 1_555 1_555
H40 C40 1_555 1_555
C41 N4 1_555 1_555
H42 C41 1_555 1_555
C42 N4 1_555 1_555
H43 C42 1_555 1_555
H44 C42 1_555 1_555
H45 C43 1_555 1_555
Ni2_2 O3 1_555 1_555
N10 C54 1_555 1_555
N11 Ni2_2 1_555 1_555
H62 N11 1_555 1_555
N12 Ni2_2 1_555 1_555
H64 C51 1_555 1_555
C52 N12 1_555 1_555
H65 C52 1_555 1_555
H66 C52 1_555 1_555
C53 C52 1_555 1_555
H67 C53 1_555 1_555
H68 C53 1_555 1_555
C54 C53 1_555 1_555
H69 C54 1_555 1_555
H70 C54 1_555 1_555
C55 N10 1_555 1_555
H72 C55 1_555 1_555
C56 N10 1_555 1_555
H73 C56 1_555 1_555
H74 C56 1_555 1_555
H75 C57 1_555 1_555
Ni3 O5 1_555 1_555
Ni4_2 O7 1_555 1_555
C6_2 C7 1_555 1_555
C20 C21_2 1_555 1_555
C27_2 C28 1_555 1_555
C34 C35_2 1_555 1_555
N5 C41 1_555 1_555
N5 C43 1_555 1_555
N6 C37 1_555 1_555
N6 C42 1_555 1_555
N11 C55 1_555 1_555
N11 C57 1_555 1_555
N12 C51 1_555 1_555
N12 C56 1_555 1_555
N10_2 C54_2 1_555 1_555
N11_2 Ni3 1_555 1_555
H62_2 N11_2 1_555 1_555
N12_2 Ni3 1_555 1_555
H64_2 C51_2 1_555 1_555
C52_2 N12_2 1_555 1_555
H65_2 C52_2 1_555 1_555
H66_2 C52_2 1_555 1_555
C53_2 C52_2 1_555 1_555
H67_2 C53_2 1_555 1_555
H68_2 C53_2 1_555 1_555
C54_2 C53_2 1_555 1_555
H69_2 C54_2 1_555 1_555
H70_2 C54_2 1_555 1_555
C55_2 N10_2 1_555 1_555
H72_2 C55_2 1_555 1_555
C56_2 N10_2 1_555 1_555
H73_2 C56_2 1_555 1_555
H74_2 C56_2 1_555 1_555
H75_2 C57_2 1_555 1_555
N11_2 C55_2 1_555 1_555
N11_2 C57_2 1_555 1_555
N12_2 C51_2 1_555 1_555
N12_2 C56_2 1_555 1_555
N10_3 C54_3 1_555 1_555
N11_3 Ni4_2 1_555 1_555
H62_3 N11_3 1_555 1_555
N12_3 Ni4_2 1_555 1_555
H64_3 C51_3 1_555 1_555
C52_3 N12_3 1_555 1_555
H65_3 C52_3 1_555 1_555
H66_3 C52_3 1_555 1_555
C53_3 C52_3 1_555 1_555
H67_3 C53_3 1_555 1_555
H68_3 C53_3 1_555 1_555
C54_3 C53_3 1_555 1_555
H69_3 C54_3 1_555 1_555
H70_3 C54_3 1_555 1_555
C55_3 N10_3 1_555 1_555
H72_3 C55_3 1_555 1_555
C56_3 N10_3 1_555 1_555
H73_3 C56_3 1_555 1_555
H74_3 C56_3 1_555 1_555
H75_3 C57_3 1_555 1_555
N11_3 C55_3 1_555 1_555
N11_3 C57_3 1_555 1_555
N12_3 C51_3 1_555 1_555
N12_3 C56_3 1_555 1_555
N1 C12 1_555 1_555
N2 Ni1_2 1_555 1_555
H1 N2 1_555 1_555
N3 Ni1_2 1_555 1_555
C9 N3 1_555 1_555
H7 C9 1_555 1_555
C10 N3 1_555 1_555
H8 C10 1_555 1_555
H9 C10 1_555 1_555
C11 C10 1_555 1_555
H10 C11 1_555 1_555
H11 C11 1_555 1_555
C12 C11 1_555 1_555
H12 C12 1_555 1_555
H13 C12 1_555 1_555
C13 N1 1_555 1_555
H14 C13 1_555 1_555
H15 C13 1_555 1_555
C14 N1 1_555 1_555
H16 C14 1_555 1_555
H17 C14 1_555 1_555
C15 N2 1_555 1_555
H18 C15 1_555 1_555
O10 Ni1_2 1_555 1_555
N2 C13 1_555 1_555
N3 C14 1_555 1_555
N7_3 C47_3 1_555 1_555
N8_3 Ni3_2 1_555 1_555
H47_3 N8_3 1_555 1_555
N9_3 Ni3_2 1_555 1_555
C44_3 N9_3 1_555 1_555
H49_3 C44_3 1_555 1_555
C45_3 N9_3 1_555 1_555
H50_3 C45_3 1_555 1_555
H51_3 C45_3 1_555 1_555
C46_3 C45_3 1_555 1_555
H52_3 C46_3 1_555 1_555
H53_3 C46_3 1_555 1_555
C47_3 C46_3 1_555 1_555
H54_3 C47_3 1_555 1_555
H55_3 C47_3 1_555 1_555
C48_3 N7_3 1_555 1_555
H56_3 C48_3 1_555 1_555
H57_3 C48_3 1_555 1_555
C49_3 N7_3 1_555 1_555
H58_3 C49_3 1_555 1_555
H59_3 C49_3 1_555 1_555
C50_3 N8_3 1_555 1_555
H60_3 C50_3 1_555 1_555
O9_3 Ni3_2 1_555 1_555
N8_3 C48_3 1_555 1_555
N9_3 C49_3 1_555 1_555
H27_2 C28_2 1_555 1_555
O9_3 C36_2 1_555 1_555
O8_2 C36_2 1_555 1_555
C30_2 C1_4 1_555 1_555
C31_2 C30_2 1_555 1_555
H28_2 C31_2 1_555 1_555
C32_2 C31_2 1_555 1_555
H29_2 C32_2 1_555 1_555
C33_2 C32_2 1_555 1_555
C34_2 C33_2 1_555 1_555
C36_2 C33_2 1_555 1_555
H5_2 C7_2 1_555 1_555
O10 C22_2 1_555 1_555
O4_2 C22_2 1_555 1_555
C16_2 C1_5 1_555 1_555
C17_2 C16_2 1_555 1_555
H20_2 C17_2 1_555 1_555
C18_2 C17_2 1_555 1_555
H21_2 C18_2 1_555 1_555
C19_2 C18_2 1_555 1_555
C20_2 C19_2 1_555 1_555
C22_2 C19_2 1_555 1_555

#END
