
###############################################################################
#
# This file contains modified crystal structure data generated from the
# MOF subset of the Cambridge Structural Database (CSD) v543 
# hosted by the Cambridge Crystallographic Data Centre (CCDC).
#
# This work is licensed under the Creative Commons
# Attribution-NonCommercial-ShareAlike 4.0 International License.
# To view a copy of this license, visit
# http://creativecommons.org/licenses/by-nc-sa/4.0/
# or send a letter to
# Creative Commons, PO Box 1866, Mountain View, CA 94042, USA.
#
# CIF created using the CSD Python API on 29 September 2022
# The structure has been converted into the P1 space group
# The structure has a 3D framework
# The original CSD entry MUSQIC is in the tetragonal crystal system
# The framework has been calculated to contain at least 10.0% void space
# The void calculation uses a probe of radius 1.32A, grid spacing 0.4
#
###############################################################################

data_MUSQIC
_chemical_formula_moiety         '(C109 H136 N24 Ni8 O16)n'
_symmetry_cell_setting           triclinic
_symmetry_space_group_name_H-M   'P 1'
_symmetry_Int_Tables_number      1
_space_group_name_Hall           'P 1'
loop_
_symmetry_equiv_pos_site_id
_symmetry_equiv_pos_as_xyz
1 x,y,z
_cell_length_a                   16.7806(6)
_cell_length_b                   16.7806(6)
_cell_length_c                   12.2501(13)
_cell_angle_alpha                90
_cell_angle_beta                 90
_cell_angle_gamma                90
_cell_volume                     3449.49
loop_
_atom_site_label
_atom_site_type_symbol
_atom_site_fract_x
_atom_site_fract_y
_atom_site_fract_z
Ni1 Ni 0.69405(3) 0.80595(3) -0.0000
N1 N 0.7113(3) 0.6942(2) 0.0739(4)
N2 N 0.5854(3) 0.6872(3) 0.1488(4)
N3 N 0.5899(2) 0.8265(2) 0.0821(4)
H1 H 0.6052 0.8509 0.1535
C9 C 0.6401(4) 0.7048(4) 0.2417(6)
H6 H 0.6318 0.6664 0.3019
H7 H 0.6310 0.7594 0.2697
C10 C 0.7241(4) 0.6968(3) 0.1947(5)
H8 H 0.7575 0.7430 0.2154
H9 H 0.7500 0.6474 0.2207
C11 C 0.7767(3) 0.6593(3) 0.0116(6)
H11 H 0.8006 0.6148 0.0534
C12 C 0.5490(3) 0.8898(3) 0.0190(5)
H12 H 0.5084 0.9161 0.0653
C13 C 0.5407(3) 0.7558(3) 0.1095(5)
H14 H 0.5015 0.7712 0.1661
H15 H 0.5105 0.7397 0.0437
C14 C 0.6347(3) 0.6488(3) 0.0699(5)
H17 H 0.6432 0.5921 0.0892
H34 H 0.8623 0.7439 0.0582
H36 H 0.8483 0.8895 0.0037
H40 H 0.6338 0.9782 0.0450
Ni3 Ni 0.30595(3) 0.19405(3) -0.0000
O10 O 0.75652(18) 0.86686(19) 0.1275(3)
N7 N 0.2887(3) 0.3058(2) 0.0739(4)
N8 N 0.4146(3) 0.3128(3) 0.1488(4)
N9 N 0.4101(2) 0.1735(2) 0.0821(4)
H43 H 0.3948 0.1491 0.1535
C42 C 0.3599(4) 0.2952(4) 0.2417(6)
H44 H 0.3682 0.3336 0.3019
H45 H 0.3690 0.2406 0.2697
C43 C 0.2759(4) 0.3032(3) 0.1947(5)
H46 H 0.2425 0.2570 0.2154
H47 H 0.2500 0.3526 0.2207
C44 C 0.2233(3) 0.3407(3) 0.0116(6)
H49 H 0.1994 0.3852 0.0534
C45 C 0.4510(3) 0.1102(3) 0.0190(5)
H50 H 0.4916 0.0839 0.0653
C46 C 0.4593(3) 0.2442(3) 0.1095(5)
H52 H 0.4985 0.2288 0.1661
H53 H 0.4895 0.2603 0.0437
C47 C 0.3653(3) 0.3512(3) 0.0699(5)
H55 H 0.3568 0.4079 0.0892
H60 H 0.1377 0.2561 0.0582
H62 H 0.1517 0.1105 0.0037
H66 H 0.3662 0.0218 0.0450
O9 O 0.24348(18) 0.13314(19) 0.1275(3)
C1 C 0.0000 -0.0000 0.5000
H2 H 0.0293 0.1596 0.4903
O8 O 0.3318(2) 0.0778(3) 0.2405(4)
C29 C 0.0702(2) 0.0239(2) 0.4251(4)
C30 C 0.1481(3) 0.0016(3) 0.4466(4)
C31 C 0.0568(3) 0.0699(3) 0.3319(3)
H27 H 0.0038 0.0857 0.3152
C32 C 0.1162(3) 0.0929(3) 0.2644(4)
H28 H 0.1045 0.1247 0.2023
C33 C 0.1954(3) 0.0697(3) 0.2857(4)
C34 C 0.2090(3) 0.0237(3) 0.3774(4)
H29 H 0.2619 0.0069 0.3932
C35 C 0.2620(3) 0.0957(3) 0.2135(5)
C1_2 C 1.0000 1.0000 0.5000
O4 O 0.6682(2) 0.9222(3) 0.2405(4)
C15 C 0.9298(2) 0.9761(2) 0.4251(4)
C16 C 0.8519(3) 0.9984(3) 0.4466(4)
C17 C 0.9432(3) 0.9301(3) 0.3319(3)
H19 H 0.9962 0.9143 0.3152
C18 C 0.8838(3) 0.9071(3) 0.2644(4)
H20 H 0.8955 0.8753 0.2023
C19 C 0.8046(3) 0.9303(3) 0.2857(4)
C20 C 0.7910(3) 0.9763(3) 0.3774(4)
H21 H 0.7381 0.9931 0.3932
C21 C 0.7380(3) 0.9043(3) 0.2135(5)
H22 H 0.9707 0.8404 0.4903
Ni1_2 Ni 0.69405(3) 0.80595(3) 1.0000
O1 O 0.63314(19) 0.74348(18) 0.8725(3)
O2 O 0.5778(3) 0.8318(2) 0.7595(4)
C1_3 C 0.5000 0.5000 0.5000
C2 C 0.5239(2) 0.5702(2) 0.5749(4)
C3 C 0.5016(3) 0.6481(3) 0.5534(4)
H2_2 H 0.4707 0.6596 0.4903
C4 C 0.5699(3) 0.5568(3) 0.6681(3)
H3 H 0.5857 0.5038 0.6848
C5 C 0.5929(3) 0.6162(3) 0.7356(4)
H4 H 0.6247 0.6045 0.7977
C6 C 0.5697(3) 0.6954(3) 0.7143(4)
C7 C 0.5237(3) 0.7090(3) 0.6226(4)
H5 H 0.5069 0.7619 0.6068
C8 C 0.5957(3) 0.7620(3) 0.7865(5)
H10 H 0.7561 0.6377 0.9418
H13 H 0.5218 0.8662 0.9550
H16 H 0.6105 0.6517 0.9963
O3 O 0.74348(18) 0.36686(19) 0.1275(3)
O4_2 O 0.8318(2) 0.4222(3) 0.2405(4)
C15_2 C 0.5702(2) 0.4761(2) 0.4251(4)
C16_2 C 0.6481(3) 0.4984(3) 0.4466(4)
H18 H 0.6596 0.5293 0.5097
C17_2 C 0.5568(3) 0.4301(3) 0.3319(3)
H19_2 H 0.5038 0.4143 0.3152
C18_2 C 0.6162(3) 0.4071(3) 0.2644(4)
H20_2 H 0.6045 0.3753 0.2023
C19_2 C 0.6954(3) 0.4303(3) 0.2857(4)
C20_2 C 0.7090(3) 0.4763(3) 0.3774(4)
H21_2 H 0.7619 0.4931 0.3932
C21_2 C 0.7620(3) 0.4043(3) 0.2135(5)
O5 O 0.36686(19) 0.25652(18) 0.8725(3)
O6 O 0.4222(3) 0.1682(2) 0.7595(4)
C22 C 0.4761(2) 0.4298(2) 0.5749(4)
C23 C 0.4984(3) 0.3519(3) 0.5534(4)
H22_2 H 0.5293 0.3404 0.4903
C24 C 0.4301(3) 0.4432(3) 0.6681(3)
H23 H 0.4143 0.4962 0.6848
C25 C 0.4071(3) 0.3838(3) 0.7356(4)
H24 H 0.3753 0.3955 0.7977
C26 C 0.4303(3) 0.3046(3) 0.7143(4)
C27 C 0.4763(3) 0.2910(3) 0.6226(4)
H25 H 0.4931 0.2381 0.6068
C28 C 0.4043(3) 0.2380(3) 0.7865(5)
O7 O 0.25652(18) 0.63314(19) 0.1275(3)
O8_2 O 0.1682(2) 0.5778(3) 0.2405(4)
C29_2 C 0.4298(2) 0.5239(2) 0.4251(4)
C30_2 C 0.3519(3) 0.5016(3) 0.4466(4)
H26 H 0.3404 0.4707 0.5097
C31_2 C 0.4432(3) 0.5699(3) 0.3319(3)
H27_2 H 0.4962 0.5857 0.3152
C32_2 C 0.3838(3) 0.5929(3) 0.2644(4)
H28_2 H 0.3955 0.6247 0.2023
C33_2 C 0.3046(3) 0.5697(3) 0.2857(4)
C34_2 C 0.2910(3) 0.5237(3) 0.3774(4)
H29_2 H 0.2381 0.5069 0.3932
C35_2 C 0.2380(3) 0.5957(3) 0.2135(5)
N4 N 0.8058(2) 0.7887(3) 0.9261(4)
N5 N 0.8128(3) 0.9146(3) 0.8512(4)
C36 C 0.7952(4) 0.8599(4) 0.7583(6)
H30 H 0.8336 0.8682 0.6981
H31 H 0.7406 0.8690 0.7303
C37 C 0.8032(3) 0.7759(4) 0.8053(5)
H32 H 0.7570 0.7425 0.7846
H33 H 0.8526 0.7500 0.7793
C38 C 0.8407(3) 0.7233(3) 0.9884(6)
H35 H 0.8852 0.6994 0.9466
C39 C 0.8512(3) 0.8653(3) 0.9301(5)
H37 H 0.9079 0.8568 0.9108
N6 N 0.6735(2) 0.9101(2) 0.9179(4)
H38 H 0.6491 0.8948 0.8465
C40 C 0.6102(3) 0.9510(3) 0.9810(5)
H39 H 0.5839 0.9916 0.9347
C41 C 0.7442(3) 0.9593(3) 0.8905(5)
H41 H 0.7288 0.9985 0.8339
H42 H 0.7603 0.9895 0.9563
Ni2 Ni 0.80595(3) 0.30595(3) 0.0000
H48 H 0.6377 0.2439 0.0582
H51 H 0.8662 0.4782 0.0450
H54 H 0.6517 0.3895 0.0037
N10 N 0.7887(3) 0.1942(2) 0.0739(4)
N11 N 0.9146(3) 0.1872(3) 0.1488(4)
C48 C 0.8599(4) 0.2048(4) 0.2417(6)
H56 H 0.8682 0.1664 0.3019
H57 H 0.8690 0.2594 0.2697
C49 C 0.7759(4) 0.1968(3) 0.1947(5)
H58 H 0.7425 0.2430 0.2154
H59 H 0.7500 0.1474 0.2207
C50 C 0.7233(3) 0.1593(3) 0.0116(6)
H61 H 0.6994 0.1148 0.0534
C51 C 0.8653(3) 0.1488(3) 0.0699(5)
H63 H 0.8568 0.0921 0.0892
N12 N 0.9101(2) 0.3265(2) 0.0821(4)
H64 H 0.8948 0.3509 0.1535
C52 C 0.9510(3) 0.3898(3) 0.0190(5)
H65 H 0.9916 0.4161 0.0653
C53 C 0.9593(3) 0.2558(3) 0.1095(5)
H67 H 0.9985 0.2712 0.1661
H68 H 0.9895 0.2397 0.0437
Ni3_2 Ni 0.30595(3) 0.19405(3) 1.0000
Ni4 Ni 0.19405(3) 0.69405(3) 0.0000
H48_2 H 0.2439 0.3623 0.9418
H51_2 H 0.4782 0.1338 0.9550
H54_2 H 0.3895 0.3483 0.9963
N10_2 N 0.1942(2) 0.2113(3) 0.9261(4)
N11_2 N 0.1872(3) 0.0854(3) 0.8512(4)
C48_2 C 0.2048(4) 0.1401(4) 0.7583(6)
H56_2 H 0.1664 0.1318 0.6981
H57_2 H 0.2594 0.1310 0.7303
C49_2 C 0.1968(3) 0.2241(4) 0.8053(5)
H58_2 H 0.2430 0.2575 0.7846
H59_2 H 0.1474 0.2500 0.7793
C50_2 C 0.1593(3) 0.2767(3) 0.9884(6)
H61_2 H 0.1148 0.3006 0.9466
C51_2 C 0.1488(3) 0.1347(3) 0.9301(5)
H63_2 H 0.0921 0.1432 0.9108
N12_2 N 0.3265(2) 0.0899(2) 0.9179(4)
H64_2 H 0.3509 0.1052 0.8465
C52_2 C 0.3898(3) 0.0490(3) 0.9810(5)
H65_2 H 0.4161 0.0084 0.9347
C53_2 C 0.2558(3) 0.0407(3) 0.8905(5)
H67_2 H 0.2712 0.0015 0.8339
H68_2 H 0.2397 0.0105 0.9563
H48_3 H 0.3623 0.7561 0.0582
H51_3 H 0.1338 0.5218 0.0450
H54_3 H 0.3483 0.6105 0.0037
N10_3 N 0.2113(3) 0.8058(2) 0.0739(4)
N11_3 N 0.0854(3) 0.8128(3) 0.1488(4)
C48_3 C 0.1401(4) 0.7952(4) 0.2417(6)
H56_3 H 0.1318 0.8336 0.3019
H57_3 H 0.1310 0.7406 0.2697
C49_3 C 0.2241(4) 0.8032(3) 0.1947(5)
H58_3 H 0.2575 0.7570 0.2154
H59_3 H 0.2500 0.8526 0.2207
C50_3 C 0.2767(3) 0.8407(3) 0.0116(6)
H61_3 H 0.3006 0.8852 0.0534
C51_3 C 0.1347(3) 0.8512(3) 0.0699(5)
H63_3 H 0.1432 0.9079 0.0892
N12_3 N 0.0899(2) 0.6735(2) 0.0821(4)
H64_3 H 0.1052 0.6491 0.1535
C52_3 C 0.0490(3) 0.6102(3) 0.0190(5)
H65_3 H 0.0084 0.5839 0.0653
C53_3 C 0.0407(3) 0.7442(3) 0.1095(5)
H67_3 H 0.0015 0.7288 0.1661
H68_3 H 0.0105 0.7603 0.0437
Ni2_2 Ni 0.80595(3) 0.30595(3) 1.0000
N7_2 N 0.6942(2) 0.2887(3) 0.9261(4)
N8_2 N 0.6872(3) 0.4146(3) 0.8512(4)
N9_2 N 0.8265(2) 0.4101(2) 0.9179(4)
H43_2 H 0.8509 0.3948 0.8465
C42_2 C 0.7048(4) 0.3599(4) 0.7583(6)
H44_2 H 0.6664 0.3682 0.6981
H45_2 H 0.7594 0.3690 0.7303
C43_2 C 0.6968(3) 0.2759(4) 0.8053(5)
H46_2 H 0.7430 0.2425 0.7846
H47_2 H 0.6474 0.2500 0.7793
C44_2 C 0.6593(3) 0.2233(3) 0.9884(6)
H49_2 H 0.6148 0.1994 0.9466
C45_2 C 0.8898(3) 0.4510(3) 0.9810(5)
H50_2 H 0.9161 0.4916 0.9347
C46_2 C 0.7558(3) 0.4593(3) 0.8905(5)
H52_2 H 0.7712 0.4985 0.8339
H53_2 H 0.7397 0.4895 0.9563
C47_2 C 0.6488(3) 0.3653(3) 0.9301(5)
H55_2 H 0.5921 0.3568 0.9108
H60_2 H 0.7439 0.1377 0.9418
H62_2 H 0.8895 0.1517 0.9963
H66_2 H 0.9782 0.3662 0.9550
Ni4_2 Ni 0.19405(3) 0.69405(3) 1.0000
O9_2 O 0.86686(19) 0.24348(18) 0.8725(3)
N7_3 N 0.3058(2) 0.7113(3) 0.9261(4)
N8_3 N 0.3128(3) 0.5854(3) 0.8512(4)
N9_3 N 0.1735(2) 0.5899(2) 0.9179(4)
H43_3 H 0.1491 0.6052 0.8465
C42_3 C 0.2952(4) 0.6401(4) 0.7583(6)
H44_3 H 0.3336 0.6318 0.6981
H45_3 H 0.2406 0.6310 0.7303
C43_3 C 0.3032(3) 0.7241(4) 0.8053(5)
H46_3 H 0.2570 0.7575 0.7846
H47_3 H 0.3526 0.7500 0.7793
C44_3 C 0.3407(3) 0.7767(3) 0.9884(6)
H49_3 H 0.3852 0.8006 0.9466
C45_3 C 0.1102(3) 0.5490(3) 0.9810(5)
H50_3 H 0.0839 0.5084 0.9347
C46_3 C 0.2442(3) 0.5407(3) 0.8905(5)
H52_3 H 0.2288 0.5015 0.8339
H53_3 H 0.2603 0.5105 0.9563
C47_3 C 0.3512(3) 0.6347(3) 0.9301(5)
H55_3 H 0.4079 0.6432 0.9108
H60_3 H 0.2561 0.8623 0.9418
H62_3 H 0.1105 0.8483 0.9963
H66_3 H 0.0218 0.6338 0.9550
O9_3 O 0.13314(19) 0.75652(18) 0.8725(3)
C1_4 C 0.0000 1.0000 0.5000
O6_2 O 0.0778(3) 0.6682(2) 0.7595(4)
C22_2 C 0.0239(2) 0.9298(2) 0.5749(4)
C23_2 C 0.0016(3) 0.8519(3) 0.5534(4)
C24_2 C 0.0699(3) 0.9432(3) 0.6681(3)
H23_2 H 0.0857 0.9962 0.6848
C25_2 C 0.0929(3) 0.8838(3) 0.7356(4)
H24_2 H 0.1247 0.8955 0.7977
C26_2 C 0.0697(3) 0.8046(3) 0.7143(4)
C27_2 C 0.0237(3) 0.7910(3) 0.6226(4)
H25_2 H 0.0069 0.7381 0.6068
C28_2 C 0.0957(3) 0.7380(3) 0.7865(5)
H26_2 H 0.1596 0.9707 0.5097
O2_2 O 0.9222(3) 0.3318(2) 0.7595(4)
C1_5 C 1.0000 -0.0000 0.5000
C2_2 C 0.9761(2) 0.0702(2) 0.5749(4)
C3_2 C 0.9984(3) 0.1481(3) 0.5534(4)
C4_2 C 0.9301(3) 0.0568(3) 0.6681(3)
H3_2 H 0.9143 0.0038 0.6848
C5_2 C 0.9071(3) 0.1162(3) 0.7356(4)
H4_2 H 0.8753 0.1045 0.7977
C6_2 C 0.9303(3) 0.1954(3) 0.7143(4)
C7_2 C 0.9763(3) 0.2090(3) 0.6226(4)
H5_2 H 0.9931 0.2619 0.6068
C8_2 C 0.9043(3) 0.2620(3) 0.7865(5)
H18_2 H 0.8404 0.0293 0.5097
loop_
_geom_bond_atom_site_label_1
_geom_bond_atom_site_label_2
_geom_bond_site_symmetry_1
_geom_bond_site_symmetry_2
N1 Ni1 1_555 1_555
N2 C9 1_555 1_555
N3 Ni1 1_555 1_555
H1 N3 1_555 1_555
C9 H6 1_555 1_555
H7 C9 1_555 1_555
C10 N1 1_555 1_555
H8 C10 1_555 1_555
H9 C10 1_555 1_555
C11 N1 1_555 1_555
H11 C11 1_555 1_555
C12 N3 1_555 1_555
H12 C12 1_555 1_555
C13 N2 1_555 1_555
H14 C13 1_555 1_555
H15 C13 1_555 1_555
C14 N1 1_555 1_555
H17 C14 1_555 1_555
O10 Ni1 1_555 1_555
N2 C14 1_555 1_555
N3 C13 1_555 1_555
C9 C10 1_555 1_555
N7 Ni3 1_555 1_555
N8 C42 1_555 1_555
N9 Ni3 1_555 1_555
H43 N9 1_555 1_555
C42 H44 1_555 1_555
H45 C42 1_555 1_555
C43 N7 1_555 1_555
H46 C43 1_555 1_555
H47 C43 1_555 1_555
C44 N7 1_555 1_555
H49 C44 1_555 1_555
C45 N9 1_555 1_555
H50 C45 1_555 1_555
C46 N8 1_555 1_555
H52 C46 1_555 1_555
H53 C46 1_555 1_555
C47 N7 1_555 1_555
H55 C47 1_555 1_555
O9 Ni3 1_555 1_555
N8 C47 1_555 1_555
N9 C46 1_555 1_555
C42 C43 1_555 1_555
O9 C35 1_555 1_555
O8 C35 1_555 1_555
C29 C1 1_555 1_555
C30 C29 1_555 1_555
C31 C29 1_555 1_555
H27 C31 1_555 1_555
C32 C31 1_555 1_555
H28 C32 1_555 1_555
C33 C32 1_555 1_555
C34 C30 1_555 1_555
H29 C34 1_555 1_555
C35 C33 1_555 1_555
C33 C34 1_555 1_555
O10 C21 1_555 1_555
O4 C21 1_555 1_555
C15 C1_2 1_555 1_555
C16 C15 1_555 1_555
C17 C15 1_555 1_555
H19 C17 1_555 1_555
C18 C17 1_555 1_555
H20 C18 1_555 1_555
C19 C18 1_555 1_555
C20 C16 1_555 1_555
H21 C20 1_555 1_555
C21 C19 1_555 1_555
C19 C20 1_555 1_555
Ni1_2 O1 1_555 1_555
O1 C8 1_555 1_555
O2 C8 1_555 1_555
C1_3 C2 1_555 1_555
C2 C3 1_555 1_555
C3 H2_2 1_555 1_555
C4 C2 1_555 1_555
H3 C4 1_555 1_555
C5 C4 1_555 1_555
H4 C5 1_555 1_555
C6 C5 1_555 1_555
C7 C3 1_555 1_555
H5 C7 1_555 1_555
C8 C6 1_555 1_555
O3 C21_2 1_555 1_555
O4_2 C21_2 1_555 1_555
C15_2 C1_3 1_555 1_555
C16_2 C15_2 1_555 1_555
H18 C16_2 1_555 1_555
C17_2 C15_2 1_555 1_555
H19_2 C17_2 1_555 1_555
C18_2 C17_2 1_555 1_555
H20_2 C18_2 1_555 1_555
C19_2 C18_2 1_555 1_555
C20_2 C16_2 1_555 1_555
H21_2 C20_2 1_555 1_555
C21_2 C19_2 1_555 1_555
O5 C28 1_555 1_555
O6 C28 1_555 1_555
C22 C1_3 1_555 1_555
C23 C22 1_555 1_555
H22_2 C23 1_555 1_555
C24 C22 1_555 1_555
H23 C24 1_555 1_555
C25 C24 1_555 1_555
H24 C25 1_555 1_555
C26 C25 1_555 1_555
C27 C23 1_555 1_555
H25 C27 1_555 1_555
C28 C26 1_555 1_555
O7 C35_2 1_555 1_555
O8_2 C35_2 1_555 1_555
C29_2 C1_3 1_555 1_555
C30_2 C29_2 1_555 1_555
H26 C30_2 1_555 1_555
C31_2 C29_2 1_555 1_555
H27_2 C31_2 1_555 1_555
C32_2 C31_2 1_555 1_555
H28_2 C32_2 1_555 1_555
C33_2 C32_2 1_555 1_555
C34_2 C30_2 1_555 1_555
H29_2 C34_2 1_555 1_555
C35_2 C33_2 1_555 1_555
N4 Ni1_2 1_555 1_555
N5 C36 1_555 1_555
C36 H30 1_555 1_555
H31 C36 1_555 1_555
C37 N4 1_555 1_555
H32 C37 1_555 1_555
H33 C37 1_555 1_555
H35 C38 1_555 1_555
C39 N4 1_555 1_555
H37 C39 1_555 1_555
N6 Ni1_2 1_555 1_555
H38 N6 1_555 1_555
H39 C40 1_555 1_555
C41 N5 1_555 1_555
H41 C41 1_555 1_555
H42 C41 1_555 1_555
Ni2 O3 1_555 1_555
N10 Ni2 1_555 1_555
N11 C48 1_555 1_555
C48 H56 1_555 1_555
H57 C48 1_555 1_555
C49 N10 1_555 1_555
H58 C49 1_555 1_555
H59 C49 1_555 1_555
H61 C50 1_555 1_555
C51 N10 1_555 1_555
H63 C51 1_555 1_555
N12 Ni2 1_555 1_555
H64 N12 1_555 1_555
H65 C52 1_555 1_555
C53 N11 1_555 1_555
H67 C53 1_555 1_555
H68 C53 1_555 1_555
Ni3_2 O5 1_555 1_555
Ni4 O7 1_555 1_555
C6 C7 1_555 1_555
C19_2 C20_2 1_555 1_555
C26 C27 1_555 1_555
C33_2 C34_2 1_555 1_555
N4 C38 1_555 1_555
N5 C39 1_555 1_555
C36 C37 1_555 1_555
N6 C40 1_555 1_555
N6 C41 1_555 1_555
N10 C50 1_555 1_555
N11 C51 1_555 1_555
C48 C49 1_555 1_555
N12 C52 1_555 1_555
N12 C53 1_555 1_555
N10_2 Ni3_2 1_555 1_555
N11_2 C48_2 1_555 1_555
C48_2 H56_2 1_555 1_555
H57_2 C48_2 1_555 1_555
C49_2 N10_2 1_555 1_555
H58_2 C49_2 1_555 1_555
H59_2 C49_2 1_555 1_555
H61_2 C50_2 1_555 1_555
C51_2 N10_2 1_555 1_555
H63_2 C51_2 1_555 1_555
N12_2 Ni3_2 1_555 1_555
H64_2 N12_2 1_555 1_555
H65_2 C52_2 1_555 1_555
C53_2 N11_2 1_555 1_555
H67_2 C53_2 1_555 1_555
H68_2 C53_2 1_555 1_555
N10_2 C50_2 1_555 1_555
N11_2 C51_2 1_555 1_555
C48_2 C49_2 1_555 1_555
N12_2 C52_2 1_555 1_555
N12_2 C53_2 1_555 1_555
N10_3 Ni4 1_555 1_555
N11_3 C48_3 1_555 1_555
C48_3 H56_3 1_555 1_555
H57_3 C48_3 1_555 1_555
C49_3 N10_3 1_555 1_555
H58_3 C49_3 1_555 1_555
H59_3 C49_3 1_555 1_555
H61_3 C50_3 1_555 1_555
C51_3 N10_3 1_555 1_555
H63_3 C51_3 1_555 1_555
N12_3 Ni4 1_555 1_555
H64_3 N12_3 1_555 1_555
H65_3 C52_3 1_555 1_555
C53_3 N11_3 1_555 1_555
H67_3 C53_3 1_555 1_555
H68_3 C53_3 1_555 1_555
N10_3 C50_3 1_555 1_555
N11_3 C51_3 1_555 1_555
C48_3 C49_3 1_555 1_555
N12_3 C52_3 1_555 1_555
N12_3 C53_3 1_555 1_555
N7_2 Ni2_2 1_555 1_555
N8_2 C42_2 1_555 1_555
N9_2 Ni2_2 1_555 1_555
H43_2 N9_2 1_555 1_555
C42_2 H44_2 1_555 1_555
H45_2 C42_2 1_555 1_555
C43_2 N7_2 1_555 1_555
H46_2 C43_2 1_555 1_555
H47_2 C43_2 1_555 1_555
C44_2 N7_2 1_555 1_555
H49_2 C44_2 1_555 1_555
C45_2 N9_2 1_555 1_555
H50_2 C45_2 1_555 1_555
C46_2 N8_2 1_555 1_555
H52_2 C46_2 1_555 1_555
H53_2 C46_2 1_555 1_555
C47_2 N7_2 1_555 1_555
H55_2 C47_2 1_555 1_555
O9_2 Ni2_2 1_555 1_555
N8_2 C47_2 1_555 1_555
N9_2 C46_2 1_555 1_555
C42_2 C43_2 1_555 1_555
N7_3 Ni4_2 1_555 1_555
N8_3 C42_3 1_555 1_555
N9_3 Ni4_2 1_555 1_555
H43_3 N9_3 1_555 1_555
C42_3 H44_3 1_555 1_555
H45_3 C42_3 1_555 1_555
C43_3 N7_3 1_555 1_555
H46_3 C43_3 1_555 1_555
H47_3 C43_3 1_555 1_555
C44_3 N7_3 1_555 1_555
H49_3 C44_3 1_555 1_555
C45_3 N9_3 1_555 1_555
H50_3 C45_3 1_555 1_555
C46_3 N8_3 1_555 1_555
H52_3 C46_3 1_555 1_555
H53_3 C46_3 1_555 1_555
C47_3 N7_3 1_555 1_555
H55_3 C47_3 1_555 1_555
O9_3 Ni4_2 1_555 1_555
N8_3 C47_3 1_555 1_555
N9_3 C46_3 1_555 1_555
C42_3 C43_3 1_555 1_555
O9_3 C28_2 1_555 1_555
O6_2 C28_2 1_555 1_555
C22_2 C1_4 1_555 1_555
C23_2 C22_2 1_555 1_555
C24_2 C22_2 1_555 1_555
H23_2 C24_2 1_555 1_555
C25_2 C24_2 1_555 1_555
H24_2 C25_2 1_555 1_555
C26_2 C25_2 1_555 1_555
C27_2 C23_2 1_555 1_555
H25_2 C27_2 1_555 1_555
C28_2 C26_2 1_555 1_555
C26_2 C27_2 1_555 1_555
O9_2 C8_2 1_555 1_555
O2_2 C8_2 1_555 1_555
C1_5 C2_2 1_555 1_555
C2_2 C3_2 1_555 1_555
C4_2 C2_2 1_555 1_555
H3_2 C4_2 1_555 1_555
C5_2 C4_2 1_555 1_555
H4_2 C5_2 1_555 1_555
C6_2 C5_2 1_555 1_555
C7_2 C3_2 1_555 1_555
H5_2 C7_2 1_555 1_555
C8_2 C6_2 1_555 1_555
C6_2 C7_2 1_555 1_555

#END
