
###############################################################################
#
# This file contains modified crystal structure data generated from the
# MOF subset of the Cambridge Structural Database (CSD) v543 
# hosted by the Cambridge Crystallographic Data Centre (CCDC).
#
# This work is licensed under the Creative Commons
# Attribution-NonCommercial-ShareAlike 4.0 International License.
# To view a copy of this license, visit
# http://creativecommons.org/licenses/by-nc-sa/4.0/
# or send a letter to
# Creative Commons, PO Box 1866, Mountain View, CA 94042, USA.
#
# CIF created using the CSD Python API on 29 September 2022
# The structure has been converted into the P1 space group
# The structure has a 3D framework
# The original CSD entry NABJUZ is in the monoclinic crystal system
# The framework has been calculated to contain at least 10.0% void space
# The void calculation uses a probe of radius 1.32A, grid spacing 0.4
#
###############################################################################

data_NABJUZ
_chemical_formula_moiety         '(C96 H64 Co4 N8 O14)n'
_symmetry_cell_setting           triclinic
_symmetry_space_group_name_H-M   'P 1'
_symmetry_Int_Tables_number      1
_space_group_name_Hall           'P 1'
loop_
_symmetry_equiv_pos_site_id
_symmetry_equiv_pos_as_xyz
1 x,y,z
_cell_length_a                   10.068(4)
_cell_length_b                   15.632(5)
_cell_length_c                   15.399(5)
_cell_angle_alpha                90
_cell_angle_beta                 98.588(7)
_cell_angle_gamma                90
_cell_volume                     2396.37
loop_
_atom_site_label
_atom_site_type_symbol
_atom_site_fract_x
_atom_site_fract_y
_atom_site_fract_z
O3 O 0.3447(3) 0.17909(17) 0.63054(15)
C13 C 0.2256(4) 0.1955(2) 0.5952(2)
O4 O 0.1810(3) 0.16765(17) 0.51957(15)
C14 C 0.1367(4) 0.2457(3) 0.6460(2)
C15 C 0.1827(4) 0.2705(3) 0.7312(2)
H9 H 0.2689 0.2547 0.7566
C16 C 0.1051(4) 0.3175(3) 0.7793(2)
H10 H 0.1399 0.3336 0.8363
C19 C 0.0055(5) 0.2655(3) 0.6116(2)
Co3 Co 0.36096(5) 0.08460(3) 0.53048(3)
O2 O 0.2766(3) 0.02240(16) 0.41924(14)
O1 O 0.4679(3) 0.95926(17) 0.39925(15)
N1 N 0.5211(3) 0.6655(2) 0.03986(18)
C1 C 0.3441(4) 0.9713(2) 0.3791(2)
C2 C 0.2709(4) 0.9250(2) 0.3008(2)
C3 C 0.3417(4) 0.8694(2) 0.2545(2)
H1 H 0.4323 0.8594 0.2743
C4 C 0.2800(4) 0.8284(3) 0.1792(2)
C5 C 0.1430(4) 0.8432(3) 0.1515(3)
H2 H 0.0998 0.8165 0.1011
C6 C 0.0718(5) 0.8972(3) 0.1985(3)
C7 C 0.1352(4) 0.9385(3) 0.2730(3)
H4 H 0.0869 0.9752 0.3041
C8 C 0.3590(4) 0.7703(2) 0.1307(2)
C9 C 0.4569(4) 0.7167(3) 0.1744(2)
H5 H 0.4702 0.7145 0.2355
C10 C 0.5346(4) 0.6667(2) 0.1278(2)
H6 H 0.6000 0.6320 0.1590
C12 C 0.3438(4) 0.7687(3) 0.0388(2)
H8 H 0.2791 0.8027 0.0059
Co4 Co 0.63904(5) 0.91540(3) 0.46952(3)
O6 O 0.7234(3) 0.52240(16) 0.08076(14)
Co1 Co 0.63904(5) 0.58460(3) 0.96952(3)
C11 C 0.4245(4) 0.7167(3) 0.9973(2)
H7 H 0.4121 0.7168 0.9363
N2 N 0.7431(3) 0.4973(2) 0.89611(18)
C17 C 0.9743(4) 0.3417(2) 0.7443(2)
C18 C 0.9260(5) 0.3131(3) 0.6599(2)
H11 H 0.8383 0.3263 0.6352
H12 H 0.9702 0.2467 0.5556
C20 C 0.8915(4) 0.3928(2) 0.7956(2)
C21 C 0.9210(4) 0.3979(3) 0.8873(2)
H13 H 0.9914 0.3660 0.9171
C22 C 0.8465(4) 0.4497(2) 0.9330(2)
H14 H 0.8695 0.4520 0.9937
C23 C 0.7132(4) 0.4919(3) 0.8080(2)
H15 H 0.6412 0.5239 0.7803
C24 C 0.7824(4) 0.4420(2) 0.7568(2)
H16 H 0.7569 0.4408 0.6962
O5 O 0.4679(3) 0.54074(17) 0.89925(15)
O7 O 0.6553(3) 0.67909(17) 0.86946(15)
O8 O 0.8190(3) 0.66765(17) 0.98043(15)
O1_2 O 0.5321(3) 0.45926(17) 0.10075(15)
N1_2 N 0.4789(3) 0.1655(2) 0.46014(18)
C1_2 C 0.6559(4) 0.4713(2) 0.1209(2)
C2_2 C 0.7291(4) 0.4250(2) 0.1992(2)
C3_2 C 0.6583(4) 0.3694(2) 0.2455(2)
H1_2 H 0.5677 0.3594 0.2257
C4_2 C 0.7200(4) 0.3284(3) 0.3208(2)
C5_2 C 0.8570(4) 0.3432(3) 0.3485(3)
H2_2 H 0.9002 0.3165 0.3989
C6_2 C 0.9282(5) 0.3972(3) 0.3015(3)
C7_2 C 0.8648(4) 0.4385(3) 0.2270(3)
H4_2 H 0.9131 0.4752 0.1959
C8_2 C 0.6410(4) 0.2703(2) 0.3693(2)
C9_2 C 0.5431(4) 0.2167(3) 0.3256(2)
H5_2 H 0.5298 0.2145 0.2645
C10_2 C 0.4654(4) 0.1667(2) 0.3722(2)
H6_2 H 0.4000 0.1320 0.3410
C11_2 C 0.5755(4) 0.2167(3) 0.5027(2)
H7_2 H 0.5879 0.2168 0.5637
C12_2 C 0.6562(4) 0.2687(3) 0.4612(2)
H8_2 H 0.7209 0.3027 0.4941
H15_2 H 0.3588 0.0239 0.7197
Co4_2 Co 0.36096(5) 0.41540(3) 0.03048(3)
O5_2 O 0.5321(3) 0.04074(17) 0.60075(15)
C13_2 C 0.7744(4) 0.6955(2) 0.9048(2)
C14_2 C 0.8633(4) 0.7457(3) 0.8540(2)
C15_2 C 0.8173(4) 0.7705(3) 0.7688(2)
H9_2 H 0.7311 0.7547 0.7434
C16_2 C 0.8949(4) 0.8175(3) 0.7207(2)
H10_2 H 0.8601 0.8336 0.6637
C19_2 C 0.9945(5) 0.7655(3) 0.8884(2)
C11_3 C 0.5755(4) 0.2833(3) 0.0027(2)
H7_3 H 0.5879 0.2832 0.0637
N2_2 N 0.2569(3) 0.5027(2) 0.10389(18)
C17_2 C 0.0257(4) 0.6583(2) 0.2557(2)
C18_2 C 0.0740(5) 0.6869(3) 0.3401(2)
H11_2 H 0.1617 0.6737 0.3648
H12_2 H 0.0298 0.7533 0.4444
C20_2 C 0.1085(4) 0.6072(2) 0.2044(2)
C21_2 C 0.0790(4) 0.6021(3) 0.1127(2)
H13_2 H 0.0086 0.6340 0.0829
C22_2 C 0.1535(4) 0.5503(2) 0.0670(2)
H14_2 H 0.1305 0.5480 0.0063
C23_2 C 0.2868(4) 0.5081(3) 0.1920(2)
H15_3 H 0.3588 0.4761 0.2197
C24_2 C 0.2176(4) 0.5580(2) 0.2432(2)
H16_2 H 0.2431 0.5592 0.3038
O7_2 O 0.3447(3) 0.32091(17) 0.13054(15)
O8_2 O 0.1810(3) 0.33235(17) 0.01957(15)
N1_3 N 0.4789(3) 0.3345(2) 0.96014(18)
C1_3 C 0.6559(4) 0.0287(2) 0.6209(2)
C2_3 C 0.7291(4) 0.0750(2) 0.6992(2)
C3_3 C 0.6583(4) 0.1306(2) 0.7455(2)
H1_3 H 0.5677 0.1406 0.7257
C4_3 C 0.7200(4) 0.1716(3) 0.8208(2)
C5_3 C 0.8570(4) 0.1568(3) 0.8485(3)
H2_3 H 0.9002 0.1835 0.8989
C6_3 C 0.9282(5) 0.1028(3) 0.8015(3)
C7_3 C 0.8648(4) 0.0615(3) 0.7270(3)
H4_3 H 0.9131 0.0248 0.6959
C8_3 C 0.6410(4) 0.2297(2) 0.8693(2)
C9_3 C 0.5431(4) 0.2833(3) 0.8256(2)
H5_3 H 0.5298 0.2855 0.7645
C10_3 C 0.4654(4) 0.3333(2) 0.8722(2)
H6_3 H 0.4000 0.3680 0.8410
C12_3 C 0.6562(4) 0.2313(3) 0.9612(2)
H8_3 H 0.7209 0.1973 0.9941
O6_2 O 0.2766(3) 0.47760(16) 0.91924(14)
O2_2 O 0.7234(3) 0.97760(16) 0.58076(14)
O3_2 O 0.6553(3) 0.82091(17) 0.36946(15)
C13_3 C 0.7744(4) 0.8045(2) 0.4048(2)
O4_2 O 0.8190(3) 0.83235(17) 0.48043(15)
C14_3 C 0.8633(4) 0.7543(3) 0.3540(2)
C15_3 C 0.8173(4) 0.7295(3) 0.2688(2)
H9_3 H 0.7311 0.7453 0.2434
C16_3 C 0.8949(4) 0.6825(3) 0.2207(2)
H10_3 H 0.8601 0.6664 0.1637
C19_3 C 0.9945(5) 0.7345(3) 0.3884(2)
C13_4 C 0.2256(4) 0.3045(2) 0.0952(2)
C14_4 C 0.1367(4) 0.2543(3) 0.1460(2)
C15_4 C 0.1827(4) 0.2295(3) 0.2312(2)
H9_4 H 0.2689 0.2453 0.2566
C16_4 C 0.1051(4) 0.1825(3) 0.2793(2)
H10_4 H 0.1399 0.1664 0.3363
C19_4 C 0.0055(5) 0.2345(3) 0.1116(2)
N1_4 N 0.5211(3) 0.8345(2) 0.53986(18)
C1_4 C 0.3441(4) 0.5287(2) 0.8791(2)
C2_4 C 0.2709(4) 0.5750(2) 0.8008(2)
C3_4 C 0.3417(4) 0.6306(2) 0.7545(2)
H1_4 H 0.4323 0.6406 0.7743
C4_4 C 0.2800(4) 0.6716(3) 0.6792(2)
C5_4 C 0.1430(4) 0.6568(3) 0.6515(3)
H2_4 H 0.0998 0.6835 0.6011
C6_4 C 0.0718(5) 0.6028(3) 0.6985(3)
C7_4 C 0.1352(4) 0.5615(3) 0.7730(3)
H4_4 H 0.0869 0.5248 0.8041
C8_4 C 0.3590(4) 0.7297(2) 0.6307(2)
C9_4 C 0.4569(4) 0.7833(3) 0.6744(2)
H5_4 H 0.4702 0.7855 0.7355
C10_4 C 0.5346(4) 0.8333(2) 0.6278(2)
H6_4 H 0.6000 0.8680 0.6590
C11_4 C 0.4245(4) 0.7833(3) 0.4973(2)
H7_4 H 0.4121 0.7832 0.4363
C12_4 C 0.3438(4) 0.7313(3) 0.5388(2)
H8_4 H 0.2791 0.6973 0.5059
H15_4 H 0.6412 0.9761 0.2803
H3 H 0.9806 0.9059 0.1801
H3_2 H 0.0194 0.4059 0.3199
N2_3 N 0.2569(3) 0.9973(2) 0.60389(18)
C17_3 C 0.0257(4) 0.8417(2) 0.7557(2)
C18_3 C 0.0740(5) 0.8131(3) 0.8401(2)
H11_3 H 0.1617 0.8263 0.8648
H12_3 H 0.0298 0.7467 0.9444
C20_3 C 0.1085(4) 0.8928(2) 0.7044(2)
C21_3 C 0.0790(4) 0.8979(3) 0.6127(2)
H13_3 H 0.0086 0.8660 0.5829
C22_3 C 0.1535(4) 0.9497(2) 0.5670(2)
H14_3 H 0.1305 0.9520 0.5063
C23_3 C 0.2868(4) 0.9919(3) 0.6920(2)
C24_3 C 0.2176(4) 0.9420(2) 0.7432(2)
H16_3 H 0.2431 0.9408 0.8038
H3_3 H 0.0194 0.0941 0.8199
N2_4 N 0.7431(3) 0.0027(2) 0.39611(18)
C17_4 C 0.9743(4) 0.1583(2) 0.2443(2)
C18_4 C 0.9260(5) 0.1869(3) 0.1599(2)
H11_4 H 0.8383 0.1737 0.1352
H12_4 H 0.9702 0.2533 0.0556
C20_4 C 0.8915(4) 0.1072(2) 0.2956(2)
C21_4 C 0.9210(4) 0.1021(3) 0.3873(2)
H13_4 H 0.9914 0.1340 0.4171
C22_4 C 0.8465(4) 0.0503(2) 0.4330(2)
H14_4 H 0.8695 0.0480 0.4937
C23_4 C 0.7132(4) 0.0081(3) 0.3080(2)
C24_4 C 0.7824(4) 0.0580(2) 0.2568(2)
H16_4 H 0.7569 0.0592 0.1962
H3_4 H 0.9806 0.5941 0.6801
loop_
_geom_bond_atom_site_label_1
_geom_bond_atom_site_label_2
_geom_bond_site_symmetry_1
_geom_bond_site_symmetry_2
O3 C13 1_555 1_555
C13 O4 1_555 1_555
O4 Co3 1_555 1_555
C14 C13 1_555 1_555
C15 C14 1_555 1_555
H9 C15 1_555 1_555
C16 C15 1_555 1_555
H10 C16 1_555 1_555
C19 C14 1_555 1_555
Co3 O3 1_555 1_555
O2 Co3 1_555 1_555
O1 C1 1_555 1_555
N1 C10 1_555 1_555
C2 C1 1_555 1_555
C3 C2 1_555 1_555
H1 C3 1_555 1_555
C4 C3 1_555 1_555
C5 C4 1_555 1_555
H2 C5 1_555 1_555
C6 C5 1_555 1_555
C7 C2 1_555 1_555
H4 C7 1_555 1_555
C8 C4 1_555 1_555
C9 C8 1_555 1_555
H5 C9 1_555 1_555
C10 C9 1_555 1_555
H6 C10 1_555 1_555
C12 C8 1_555 1_555
H8 C12 1_555 1_555
Co4 O1 1_555 1_555
C6 C7 1_555 1_555
H7 C11 1_555 1_555
N2 Co1 1_555 1_555
C18 C17 1_555 1_555
H11 C18 1_555 1_555
C20 C17 1_555 1_555
C21 C20 1_555 1_555
H13 C21 1_555 1_555
C22 N2 1_555 1_555
H14 C22 1_555 1_555
C23 N2 1_555 1_555
H15 C23 1_555 1_555
C24 C20 1_555 1_555
H16 C24 1_555 1_555
O5 Co1 1_555 1_555
O7 Co1 1_555 1_555
O8 Co1 1_555 1_555
C21 C22 1_555 1_555
C23 C24 1_555 1_555
Co3 N1_2 1_555 1_555
O1_2 C1_2 1_555 1_555
N1_2 C10_2 1_555 1_555
C1_2 O6 1_555 1_555
C2_2 C1_2 1_555 1_555
C3_2 C2_2 1_555 1_555
H1_2 C3_2 1_555 1_555
C4_2 C3_2 1_555 1_555
C5_2 C4_2 1_555 1_555
H2_2 C5_2 1_555 1_555
C6_2 C5_2 1_555 1_555
C7_2 C2_2 1_555 1_555
H4_2 C7_2 1_555 1_555
C8_2 C4_2 1_555 1_555
C9_2 C8_2 1_555 1_555
H5_2 C9_2 1_555 1_555
C10_2 C9_2 1_555 1_555
H6_2 C10_2 1_555 1_555
C11_2 N1_2 1_555 1_555
H7_2 C11_2 1_555 1_555
C12_2 C8_2 1_555 1_555
H8_2 C12_2 1_555 1_555
Co4_2 O1_2 1_555 1_555
O5_2 Co3 1_555 1_555
C6_2 C7_2 1_555 1_555
C11_2 C12_2 1_555 1_555
O7 C13_2 1_555 1_555
C13_2 O8 1_555 1_555
C14_2 C13_2 1_555 1_555
C15_2 C14_2 1_555 1_555
H9_2 C15_2 1_555 1_555
C16_2 C15_2 1_555 1_555
H10_2 C16_2 1_555 1_555
C19_2 C14_2 1_555 1_555
H7_3 C11_3 1_555 1_555
N2_2 Co4_2 1_555 1_555
C18_2 C17_2 1_555 1_555
H11_2 C18_2 1_555 1_555
C20_2 C17_2 1_555 1_555
C21_2 C20_2 1_555 1_555
H13_2 C21_2 1_555 1_555
C22_2 N2_2 1_555 1_555
H14_2 C22_2 1_555 1_555
C23_2 N2_2 1_555 1_555
H15_3 C23_2 1_555 1_555
C24_2 C20_2 1_555 1_555
H16_2 C24_2 1_555 1_555
O7_2 Co4_2 1_555 1_555
O8_2 Co4_2 1_555 1_555
C21_2 C22_2 1_555 1_555
C23_2 C24_2 1_555 1_555
O5_2 C1_3 1_555 1_555
N1_3 C10_3 1_555 1_555
C2_3 C1_3 1_555 1_555
C3_3 C2_3 1_555 1_555
H1_3 C3_3 1_555 1_555
C4_3 C3_3 1_555 1_555
C5_3 C4_3 1_555 1_555
H2_3 C5_3 1_555 1_555
C6_3 C5_3 1_555 1_555
C7_3 C2_3 1_555 1_555
H4_3 C7_3 1_555 1_555
C8_3 C4_3 1_555 1_555
C9_3 C8_3 1_555 1_555
H5_3 C9_3 1_555 1_555
C10_3 C9_3 1_555 1_555
H6_3 C10_3 1_555 1_555
C12_3 C8_3 1_555 1_555
H8_3 C12_3 1_555 1_555
C6_3 C7_3 1_555 1_555
O2_2 Co4 1_555 1_555
O3_2 C13_3 1_555 1_555
C13_3 O4_2 1_555 1_555
O4_2 Co4 1_555 1_555
C14_3 C13_3 1_555 1_555
C15_3 C14_3 1_555 1_555
H9_3 C15_3 1_555 1_555
C16_3 C15_3 1_555 1_555
H10_3 C16_3 1_555 1_555
C19_3 C14_3 1_555 1_555
Co4 O3_2 1_555 1_555
O7_2 C13_4 1_555 1_555
C13_4 O8_2 1_555 1_555
C14_4 C13_4 1_555 1_555
C15_4 C14_4 1_555 1_555
H9_4 C15_4 1_555 1_555
C16_4 C15_4 1_555 1_555
H10_4 C16_4 1_555 1_555
C19_4 C14_4 1_555 1_555
Co4 N1_4 1_555 1_555
O5 C1_4 1_555 1_555
N1_4 C10_4 1_555 1_555
C1_4 O6_2 1_555 1_555
C2_4 C1_4 1_555 1_555
C3_4 C2_4 1_555 1_555
H1_4 C3_4 1_555 1_555
C4_4 C3_4 1_555 1_555
C5_4 C4_4 1_555 1_555
H2_4 C5_4 1_555 1_555
C6_4 C5_4 1_555 1_555
C7_4 C2_4 1_555 1_555
H4_4 C7_4 1_555 1_555
C8_4 C4_4 1_555 1_555
C9_4 C8_4 1_555 1_555
H5_4 C9_4 1_555 1_555
C10_4 C9_4 1_555 1_555
H6_4 C10_4 1_555 1_555
C11_4 N1_4 1_555 1_555
H7_4 C11_4 1_555 1_555
C12_4 C8_4 1_555 1_555
H8_4 C12_4 1_555 1_555
C6_4 C7_4 1_555 1_555
C11_4 C12_4 1_555 1_555
C18_3 C17_3 1_555 1_555
H11_3 C18_3 1_555 1_555
C20_3 C17_3 1_555 1_555
C21_3 C20_3 1_555 1_555
H13_3 C21_3 1_555 1_555
C22_3 N2_3 1_555 1_555
H14_3 C22_3 1_555 1_555
C23_3 N2_3 1_555 1_555
C24_3 C20_3 1_555 1_555
H16_3 C24_3 1_555 1_555
C21_3 C22_3 1_555 1_555
C23_3 C24_3 1_555 1_555
C18_4 C17_4 1_555 1_555
H11_4 C18_4 1_555 1_555
C20_4 C17_4 1_555 1_555
C21_4 C20_4 1_555 1_555
H13_4 C21_4 1_555 1_555
C22_4 N2_4 1_555 1_555
H14_4 C22_4 1_555 1_555
C23_4 N2_4 1_555 1_555
C24_4 C20_4 1_555 1_555
H16_4 C24_4 1_555 1_555
C21_4 C22_4 1_555 1_555
C23_4 C24_4 1_555 1_555

#END
