
###############################################################################
#
# This file contains modified crystal structure data generated from the
# MOF subset of the Cambridge Structural Database (CSD) v543 
# hosted by the Cambridge Crystallographic Data Centre (CCDC).
#
# This work is licensed under the Creative Commons
# Attribution-NonCommercial-ShareAlike 4.0 International License.
# To view a copy of this license, visit
# http://creativecommons.org/licenses/by-nc-sa/4.0/
# or send a letter to
# Creative Commons, PO Box 1866, Mountain View, CA 94042, USA.
#
# CIF created using the CSD Python API on 29 September 2022
# The structure has been converted into the P1 space group
# The structure has a 3D framework
# The original CSD entry NABJOT is in the monoclinic crystal system
# The framework has been calculated to contain at least 10.0% void space
# The void calculation uses a probe of radius 1.32A, grid spacing 0.4
#
###############################################################################

data_NABJOT
_chemical_formula_moiety         '(C96 H64 Co4 N8 O14)n'
_symmetry_cell_setting           triclinic
_symmetry_space_group_name_H-M   'P 1'
_symmetry_Int_Tables_number      1
_space_group_name_Hall           'P 1'
loop_
_symmetry_equiv_pos_site_id
_symmetry_equiv_pos_as_xyz
1 x,y,z
_cell_length_a                   9.2030(18)
_cell_length_b                   17.823(4)
_cell_length_c                   14.718(3)
_cell_angle_alpha                90
_cell_angle_beta                 92.75(3)
_cell_angle_gamma                90
_cell_volume                     2411.34
loop_
_atom_site_label
_atom_site_type_symbol
_atom_site_fract_x
_atom_site_fract_y
_atom_site_fract_z
O3 O 0.34066(17) 0.16184(10) 0.64024(12)
C13 C 0.2201(3) 0.18318(15) 0.60481(18)
O4 O 0.17975(18) 0.16354(10) 0.52501(12)
C14 C 0.1244(3) 0.23229(15) 0.65899(18)
C15 C 0.1640(3) 0.24981(17) 0.7483(2)
H9 H 0.2467 0.2279 0.7758
C16 C 0.0834(3) 0.29903(16) 0.7973(2)
H10 H 0.1135 0.3103 0.8569
Co3 Co 0.37117(3) 0.09020(2) 0.52216(2)
O2 O 0.30522(19) 0.04656(10) 0.39824(12)
H4 H 0.1006 0.0164 0.2800
O1 O 0.43638(18) 0.94308(11) 0.41992(13)
N1 N 0.5052(2) 0.67329(12) 0.04601(15)
C1 C 0.3451(2) 0.98143(14) 0.37639(18)
C2 C 0.2720(3) 0.94617(15) 0.29306(19)
C3 C 0.3365(3) 0.88398(15) 0.25346(19)
H1 H 0.4241 0.8655 0.2784
C4 C 0.2711(3) 0.84924(16) 0.1770(2)
C5 C 0.1381(3) 0.8762(2) 0.1421(2)
H2 H 0.0917 0.8523 0.0925
C6 C 0.0736(3) 0.9387(2) 0.1807(3)
C7 C 0.1422(3) 0.97394(19) 0.2553(2)
C8 C 0.3473(3) 0.78607(16) 0.13247(19)
C9 C 0.4383(3) 0.73778(16) 0.1815(2)
H5 H 0.4486 0.7418 0.2444
C10 C 0.5142(3) 0.68332(16) 0.1361(2)
H6 H 0.5754 0.6517 0.1706
C12 C 0.3344(3) 0.77543(18) 0.0387(2)
H8 H 0.2738 0.8063 0.0029
H14 H 0.8610 0.4656 0.0088
Co4 Co 0.62883(3) 0.90980(2) 0.47784(2)
O6 O 0.69478(19) 0.54656(10) 0.10176(12)
Co1 Co 0.62883(3) 0.59020(2) 0.97784(2)
C11 C 0.4124(3) 0.71852(16) 0.9992(2)
H7 H 0.3997 0.7113 0.9367
N2 N 0.7382(2) 0.50378(12) 0.90674(15)
C17 C 0.9578(3) 0.33233(15) 0.75945(18)
C18 C 0.9156(3) 0.3121(2) 0.6716(2)
H11 H 0.8302 0.3319 0.6452
C19 C 0.9979(3) 0.2626(2) 0.6215(2)
H12 H 0.9669 0.2500 0.5624
C20 C 0.8774(3) 0.38943(14) 0.81041(18)
C21 C 0.9067(3) 0.40146(15) 0.90338(19)
H13 H 0.9731 0.3710 0.9355
C22 C 0.8375(3) 0.45827(15) 0.94731(18)
C23 C 0.7090(3) 0.49186(15) 0.81743(18)
H15 H 0.6404 0.5226 0.7875
C24 C 0.7745(3) 0.43673(15) 0.76741(19)
H16 H 0.7502 0.4312 0.7057
O5 O 0.43638(18) 0.55692(11) 0.91992(13)
O7 O 0.65934(17) 0.66184(10) 0.85976(12)
O8 O 0.82025(18) 0.66354(10) 0.97499(12)
O1_2 O 0.56362(18) 0.44308(11) 0.08008(13)
N1_2 N 0.4948(2) 0.17329(12) 0.45399(15)
C1_2 C 0.6549(2) 0.48143(14) 0.12361(18)
C2_2 C 0.7280(3) 0.44617(15) 0.20694(19)
C3_2 C 0.6635(3) 0.38398(15) 0.24654(19)
H1_2 H 0.5759 0.3655 0.2216
C4_2 C 0.7289(3) 0.34924(16) 0.3230(2)
C5_2 C 0.8619(3) 0.3762(2) 0.3579(2)
H2_2 H 0.9083 0.3523 0.4075
C6_2 C 0.9264(3) 0.4387(2) 0.3193(3)
C7_2 C 0.8578(3) 0.47394(19) 0.2447(2)
H4_2 H 0.8994 0.5164 0.2200
C8_2 C 0.6527(3) 0.28607(16) 0.36753(19)
C9_2 C 0.5617(3) 0.23778(16) 0.3185(2)
H5_2 H 0.5514 0.2418 0.2556
C10_2 C 0.4858(3) 0.18332(16) 0.3639(2)
H6_2 H 0.4246 0.1517 0.3294
C11_2 C 0.5876(3) 0.21852(16) 0.5008(2)
H7_2 H 0.6003 0.2113 0.5633
C12_2 C 0.6656(3) 0.27543(18) 0.4613(2)
H8_2 H 0.7262 0.3063 0.4971
N2_2 N 0.2618(2) 0.00378(12) 0.59326(15)
H15_2 H 0.3596 0.0226 0.7125
Co4_2 Co 0.37117(3) 0.40980(2) 0.02216(2)
O5_2 O 0.56362(18) 0.05692(11) 0.58008(13)
C13_2 C 0.7799(3) 0.68318(15) 0.89519(18)
C14_2 C 0.8756(3) 0.73229(15) 0.84101(18)
C15_2 C 0.8360(3) 0.74981(17) 0.7517(2)
H9_2 H 0.7533 0.7279 0.7242
C16_2 C 0.9166(3) 0.79903(16) 0.7027(2)
H10_2 H 0.8865 0.8103 0.6431
C11_3 C 0.5876(3) 0.28148(16) 0.0008(2)
H7_3 H 0.6003 0.2887 0.0633
N2_3 N 0.2618(2) 0.49622(12) 0.09326(15)
C17_2 C 0.0422(3) 0.66767(15) 0.24055(18)
C18_2 C 0.0844(3) 0.6879(2) 0.3284(2)
H11_2 H 0.1698 0.6681 0.3548
C19_2 C 0.0021(3) 0.7374(2) 0.3785(2)
H12_2 H 0.0331 0.7500 0.4376
C20_2 C 0.1226(3) 0.61057(14) 0.18959(18)
C21_2 C 0.0933(3) 0.59854(15) 0.09662(19)
H13_2 H 0.0269 0.6290 0.0645
C22_2 C 0.1625(3) 0.54173(15) 0.05269(18)
C23_2 C 0.2910(3) 0.50814(15) 0.18257(18)
H15_3 H 0.3596 0.4774 0.2125
C24_2 C 0.2255(3) 0.56327(15) 0.23259(19)
H16_2 H 0.2498 0.5688 0.2943
O7_2 O 0.34066(17) 0.33816(10) 0.14024(12)
O8_2 O 0.17975(18) 0.33646(10) 0.02501(12)
N1_3 N 0.4948(2) 0.32671(12) 0.95399(15)
C1_3 C 0.6549(2) 0.01857(14) 0.62361(18)
C2_3 C 0.7280(3) 0.05383(15) 0.70694(19)
C3_3 C 0.6635(3) 0.11602(15) 0.74654(19)
H1_3 H 0.5759 0.1345 0.7216
C4_3 C 0.7289(3) 0.15076(16) 0.8230(2)
C5_3 C 0.8619(3) 0.1238(2) 0.8579(2)
H2_3 H 0.9083 0.1477 0.9075
C6_3 C 0.9264(3) 0.0613(2) 0.8193(3)
C7_3 C 0.8578(3) 0.02606(19) 0.7447(2)
C8_3 C 0.6527(3) 0.21393(16) 0.86753(19)
C9_3 C 0.5617(3) 0.26222(16) 0.8185(2)
H5_3 H 0.5514 0.2582 0.7556
C10_3 C 0.4858(3) 0.31668(16) 0.8639(2)
H6_3 H 0.4246 0.3483 0.8294
C12_3 C 0.6656(3) 0.22457(18) 0.9613(2)
H8_3 H 0.7262 0.1937 0.9971
H14_2 H 0.1390 0.5344 0.9912
O6_2 O 0.30522(19) 0.45344(10) 0.89824(12)
O2_2 O 0.69478(19) 0.95344(10) 0.60176(12)
H4_3 H 0.8994 0.9836 0.7200
O3_2 O 0.65934(17) 0.83816(10) 0.35976(12)
C13_3 C 0.7799(3) 0.81682(15) 0.39519(18)
O4_2 O 0.82025(18) 0.83646(10) 0.47499(12)
C14_3 C 0.8756(3) 0.76771(15) 0.34101(18)
C15_3 C 0.8360(3) 0.75019(17) 0.2517(2)
H9_3 H 0.7533 0.7721 0.2242
C16_3 C 0.9166(3) 0.70097(16) 0.2027(2)
H10_3 H 0.8865 0.6897 0.1431
C13_4 C 0.2201(3) 0.31682(15) 0.10481(18)
C14_4 C 0.1244(3) 0.26771(15) 0.15899(18)
C15_4 C 0.1640(3) 0.25019(17) 0.2483(2)
H9_4 H 0.2467 0.2721 0.2758
C16_4 C 0.0834(3) 0.20097(16) 0.2973(2)
H10_4 H 0.1135 0.1897 0.3569
N1_4 N 0.5052(2) 0.82671(12) 0.54601(15)
C1_4 C 0.3451(2) 0.51857(14) 0.87639(18)
C2_4 C 0.2720(3) 0.55383(15) 0.79306(19)
C3_4 C 0.3365(3) 0.61602(15) 0.75346(19)
H1_4 H 0.4241 0.6345 0.7784
C4_4 C 0.2711(3) 0.65076(16) 0.6770(2)
C5_4 C 0.1381(3) 0.6238(2) 0.6421(2)
H2_4 H 0.0917 0.6477 0.5925
C6_4 C 0.0736(3) 0.5613(2) 0.6807(3)
C7_4 C 0.1422(3) 0.52606(19) 0.7553(2)
H4_4 H 0.1006 0.4836 0.7800
C8_4 C 0.3473(3) 0.71393(16) 0.63247(19)
C9_4 C 0.4383(3) 0.76222(16) 0.6815(2)
H5_4 H 0.4486 0.7582 0.7444
C10_4 C 0.5142(3) 0.81668(16) 0.6361(2)
H6_4 H 0.5754 0.8483 0.6706
C11_4 C 0.4124(3) 0.78148(16) 0.4992(2)
H7_4 H 0.3997 0.7887 0.4367
C12_4 C 0.3344(3) 0.72457(18) 0.5387(2)
H8_4 H 0.2738 0.6937 0.5029
N2_4 N 0.7382(2) 0.99622(12) 0.40674(15)
H15_4 H 0.6404 0.9774 0.2875
H3 H 0.9850 0.9566 0.1566
H3_2 H 0.0150 0.4566 0.3434
C17_3 C 0.0422(3) 0.83233(15) 0.74055(18)
C18_3 C 0.0844(3) 0.8121(2) 0.8284(2)
H11_3 H 0.1698 0.8319 0.8548
C19_3 C 0.0021(3) 0.7626(2) 0.8785(2)
H12_3 H 0.0331 0.7500 0.9376
C20_3 C 0.1226(3) 0.88943(14) 0.68959(18)
C21_3 C 0.0933(3) 0.90146(15) 0.59662(19)
H13_3 H 0.0269 0.8710 0.5645
C22_3 C 0.1625(3) 0.95827(15) 0.55269(18)
H14_3 H 0.1390 0.9656 0.4912
C23_3 C 0.2910(3) 0.99186(15) 0.68257(18)
C24_3 C 0.2255(3) 0.93673(15) 0.73259(19)
H16_3 H 0.2498 0.9312 0.7943
H3_3 H 0.0150 0.0434 0.8434
C17_4 C 0.9578(3) 0.16767(15) 0.25945(18)
C18_4 C 0.9156(3) 0.1879(2) 0.1716(2)
H11_4 H 0.8302 0.1681 0.1452
C19_4 C 0.9979(3) 0.2374(2) 0.1215(2)
H12_4 H 0.9669 0.2500 0.0624
C20_4 C 0.8774(3) 0.11057(14) 0.31041(18)
C21_4 C 0.9067(3) 0.09854(15) 0.40338(19)
H13_4 H 0.9731 0.1290 0.4355
C22_4 C 0.8375(3) 0.04173(15) 0.44731(18)
H14_4 H 0.8610 0.0344 0.5088
C23_4 C 0.7090(3) 0.00814(15) 0.31743(18)
C24_4 C 0.7745(3) 0.06327(15) 0.26741(19)
H16_4 H 0.7502 0.0688 0.2057
H3_4 H 0.9850 0.5434 0.6566
loop_
_geom_bond_atom_site_label_1
_geom_bond_atom_site_label_2
_geom_bond_site_symmetry_1
_geom_bond_site_symmetry_2
O3 C13 1_555 1_555
C13 O4 1_555 1_555
O4 Co3 1_555 1_555
C14 C13 1_555 1_555
C15 C14 1_555 1_555
H9 C15 1_555 1_555
C16 C15 1_555 1_555
H10 C16 1_555 1_555
Co3 O3 1_555 1_555
O2 Co3 1_555 1_555
O1 C1 1_555 1_555
N1 C10 1_555 1_555
C2 C1 1_555 1_555
C3 C2 1_555 1_555
H1 C3 1_555 1_555
C4 C3 1_555 1_555
C5 C4 1_555 1_555
H2 C5 1_555 1_555
C6 C5 1_555 1_555
C7 C2 1_555 1_555
C8 C4 1_555 1_555
C9 C8 1_555 1_555
H5 C9 1_555 1_555
C10 C9 1_555 1_555
H6 C10 1_555 1_555
C12 C8 1_555 1_555
H8 C12 1_555 1_555
Co4 O1 1_555 1_555
C6 C7 1_555 1_555
H7 C11 1_555 1_555
N2 Co1 1_555 1_555
C18 C17 1_555 1_555
H11 C18 1_555 1_555
H12 C19 1_555 1_555
C20 C17 1_555 1_555
C21 C20 1_555 1_555
H13 C21 1_555 1_555
C22 N2 1_555 1_555
C23 N2 1_555 1_555
H15 C23 1_555 1_555
C24 C20 1_555 1_555
H16 C24 1_555 1_555
O5 Co1 1_555 1_555
O7 Co1 1_555 1_555
O8 Co1 1_555 1_555
C18 C19 1_555 1_555
C21 C22 1_555 1_555
C23 C24 1_555 1_555
Co3 N1_2 1_555 1_555
O1_2 C1_2 1_555 1_555
N1_2 C10_2 1_555 1_555
C1_2 O6 1_555 1_555
C2_2 C1_2 1_555 1_555
C3_2 C2_2 1_555 1_555
H1_2 C3_2 1_555 1_555
C4_2 C3_2 1_555 1_555
C5_2 C4_2 1_555 1_555
H2_2 C5_2 1_555 1_555
C6_2 C5_2 1_555 1_555
C7_2 C2_2 1_555 1_555
H4_2 C7_2 1_555 1_555
C8_2 C4_2 1_555 1_555
C9_2 C8_2 1_555 1_555
H5_2 C9_2 1_555 1_555
C10_2 C9_2 1_555 1_555
H6_2 C10_2 1_555 1_555
C11_2 N1_2 1_555 1_555
H7_2 C11_2 1_555 1_555
C12_2 C8_2 1_555 1_555
H8_2 C12_2 1_555 1_555
N2_2 Co3 1_555 1_555
Co4_2 O1_2 1_555 1_555
O5_2 Co3 1_555 1_555
C6_2 C7_2 1_555 1_555
C11_2 C12_2 1_555 1_555
O7 C13_2 1_555 1_555
C13_2 O8 1_555 1_555
C14_2 C13_2 1_555 1_555
C15_2 C14_2 1_555 1_555
H9_2 C15_2 1_555 1_555
C16_2 C15_2 1_555 1_555
H10_2 C16_2 1_555 1_555
H7_3 C11_3 1_555 1_555
N2_3 Co4_2 1_555 1_555
C18_2 C17_2 1_555 1_555
H11_2 C18_2 1_555 1_555
H12_2 C19_2 1_555 1_555
C20_2 C17_2 1_555 1_555
C21_2 C20_2 1_555 1_555
H13_2 C21_2 1_555 1_555
C22_2 N2_3 1_555 1_555
C23_2 N2_3 1_555 1_555
H15_3 C23_2 1_555 1_555
C24_2 C20_2 1_555 1_555
H16_2 C24_2 1_555 1_555
O7_2 Co4_2 1_555 1_555
O8_2 Co4_2 1_555 1_555
C18_2 C19_2 1_555 1_555
C21_2 C22_2 1_555 1_555
C23_2 C24_2 1_555 1_555
O5_2 C1_3 1_555 1_555
N1_3 C10_3 1_555 1_555
C2_3 C1_3 1_555 1_555
C3_3 C2_3 1_555 1_555
H1_3 C3_3 1_555 1_555
C4_3 C3_3 1_555 1_555
C5_3 C4_3 1_555 1_555
H2_3 C5_3 1_555 1_555
C6_3 C5_3 1_555 1_555
C7_3 C2_3 1_555 1_555
C8_3 C4_3 1_555 1_555
C9_3 C8_3 1_555 1_555
H5_3 C9_3 1_555 1_555
C10_3 C9_3 1_555 1_555
H6_3 C10_3 1_555 1_555
C12_3 C8_3 1_555 1_555
H8_3 C12_3 1_555 1_555
C6_3 C7_3 1_555 1_555
O2_2 Co4 1_555 1_555
O3_2 C13_3 1_555 1_555
C13_3 O4_2 1_555 1_555
O4_2 Co4 1_555 1_555
C14_3 C13_3 1_555 1_555
C15_3 C14_3 1_555 1_555
H9_3 C15_3 1_555 1_555
C16_3 C15_3 1_555 1_555
H10_3 C16_3 1_555 1_555
Co4 O3_2 1_555 1_555
O7_2 C13_4 1_555 1_555
C13_4 O8_2 1_555 1_555
C14_4 C13_4 1_555 1_555
C15_4 C14_4 1_555 1_555
H9_4 C15_4 1_555 1_555
C16_4 C15_4 1_555 1_555
H10_4 C16_4 1_555 1_555
Co4 N1_4 1_555 1_555
O5 C1_4 1_555 1_555
N1_4 C10_4 1_555 1_555
C1_4 O6_2 1_555 1_555
C2_4 C1_4 1_555 1_555
C3_4 C2_4 1_555 1_555
H1_4 C3_4 1_555 1_555
C4_4 C3_4 1_555 1_555
C5_4 C4_4 1_555 1_555
H2_4 C5_4 1_555 1_555
C6_4 C5_4 1_555 1_555
C7_4 C2_4 1_555 1_555
H4_4 C7_4 1_555 1_555
C8_4 C4_4 1_555 1_555
C9_4 C8_4 1_555 1_555
H5_4 C9_4 1_555 1_555
C10_4 C9_4 1_555 1_555
H6_4 C10_4 1_555 1_555
C11_4 N1_4 1_555 1_555
H7_4 C11_4 1_555 1_555
C12_4 C8_4 1_555 1_555
H8_4 C12_4 1_555 1_555
N2_4 Co4 1_555 1_555
C6_4 C7_4 1_555 1_555
C11_4 C12_4 1_555 1_555
C18_3 C17_3 1_555 1_555
H11_3 C18_3 1_555 1_555
H12_3 C19_3 1_555 1_555
C20_3 C17_3 1_555 1_555
C21_3 C20_3 1_555 1_555
H13_3 C21_3 1_555 1_555
H14_3 C22_3 1_555 1_555
C24_3 C20_3 1_555 1_555
H16_3 C24_3 1_555 1_555
C18_3 C19_3 1_555 1_555
C21_3 C22_3 1_555 1_555
C23_3 C24_3 1_555 1_555
C18_4 C17_4 1_555 1_555
H11_4 C18_4 1_555 1_555
H12_4 C19_4 1_555 1_555
C20_4 C17_4 1_555 1_555
C21_4 C20_4 1_555 1_555
H13_4 C21_4 1_555 1_555
H14_4 C22_4 1_555 1_555
C24_4 C20_4 1_555 1_555
H16_4 C24_4 1_555 1_555
C18_4 C19_4 1_555 1_555
C21_4 C22_4 1_555 1_555
C23_4 C24_4 1_555 1_555

#END
