
###############################################################################
#
# This file contains modified crystal structure data generated from the
# MOF subset of the Cambridge Structural Database (CSD) v543 
# hosted by the Cambridge Crystallographic Data Centre (CCDC).
#
# This work is licensed under the Creative Commons
# Attribution-NonCommercial-ShareAlike 4.0 International License.
# To view a copy of this license, visit
# http://creativecommons.org/licenses/by-nc-sa/4.0/
# or send a letter to
# Creative Commons, PO Box 1866, Mountain View, CA 94042, USA.
#
# CIF created using the CSD Python API on 29 September 2022
# The structure has been converted into the P1 space group
# The structure has a 3D framework
# The original CSD entry NABKIO is in the monoclinic crystal system
# The framework has been calculated to contain at least 10.0% void space
# The void calculation uses a probe of radius 1.32A, grid spacing 0.4
#
###############################################################################

data_NABKIO
_chemical_formula_moiety         '(C96 H64 Co4 N8 O14)n'
_symmetry_cell_setting           triclinic
_symmetry_space_group_name_H-M   'P 1'
_symmetry_Int_Tables_number      1
_space_group_name_Hall           'P 1'
loop_
_symmetry_equiv_pos_site_id
_symmetry_equiv_pos_as_xyz
1 x,y,z
_cell_length_a                   10.0048(16)
_cell_length_b                   16.371(3)
_cell_length_c                   15.036(3)
_cell_angle_alpha                90
_cell_angle_beta                 97.402(3)
_cell_angle_gamma                90
_cell_volume                     2442.2
loop_
_atom_site_label
_atom_site_type_symbol
_atom_site_fract_x
_atom_site_fract_y
_atom_site_fract_z
H3 H 0.0244 0.8961 0.8129
O2 O 0.72169(18) 0.02377(11) 0.58464(12)
Co3 Co 0.63877(3) 0.08277(2) 0.47020(2)
Co1 Co 0.36123(3) 0.58277(2) 0.02980(2)
C11 C 0.5744(3) 0.71162(18) 0.00241(18)
H7 H 0.5837 0.7119 0.0648
N2 N 0.2558(2) 0.49871(14) 0.10610(15)
C17 C 0.0245(3) 0.34288(18) 0.25916(18)
C18 C 0.0776(3) 0.3087(2) 0.3414(2)
H11 H 0.1667 0.3192 0.3644
H12 H 0.0362 0.2370 0.4439
C20 C 0.1068(3) 0.39560(17) 0.20733(18)
C21 C 0.0788(3) 0.40069(18) 0.11403(18)
H13 H 0.0100 0.3694 0.0836
C22 C 0.1535(3) 0.45215(18) 0.06718(18)
H14 H 0.1321 0.4549 0.0052
C23 C 0.2127(3) 0.44400(19) 0.24804(19)
H15 H 0.2352 0.4431 0.3100
C24 C 0.2839(3) 0.49321(19) 0.19606(18)
H16 H 0.3548 0.5241 0.2246
O5 O 0.53181(18) 0.54089(12) 0.10203(12)
O7 O 0.34103(18) 0.67469(12) 0.13092(13)
O8 O 0.17785(19) 0.66078(13) 0.01930(13)
O1 O 0.53181(18) 0.95911(12) 0.60203(12)
N1 N 0.4821(2) 0.66171(14) 0.95812(14)
C1 C 0.6555(2) 0.97172(16) 0.62269(16)
C2 C 0.7283(2) 0.92351(17) 0.69927(17)
C3 C 0.6576(3) 0.86763(16) 0.74510(17)
H1 H 0.5661 0.8595 0.7271
C4 C 0.7223(3) 0.82361(17) 0.81783(18)
C5 C 0.8607(3) 0.8352(2) 0.8429(2)
H2 H 0.9049 0.8062 0.8912
C6 C 0.9323(3) 0.8895(2) 0.7962(2)
C7 C 0.8670(3) 0.93410(18) 0.72472(19)
H4 H 0.9152 0.9708 0.6939
C8 C 0.6429(3) 0.76589(17) 0.86652(18)
C9 C 0.5481(3) 0.71371(18) 0.82063(18)
H5 H 0.5360 0.7128 0.7583
C10 C 0.4719(3) 0.66327(18) 0.86790(18)
H6 H 0.4102 0.6284 0.8357
C12 C 0.6560(3) 0.76249(19) 0.95997(19)
H8 H 0.7201 0.7947 0.9938
Co4 Co 0.36123(3) 0.91723(2) 0.52980(2)
O6 O 0.27831(18) 0.52377(11) 0.91536(12)
O3 O 0.65897(18) 0.17469(12) 0.36908(13)
C13 C 0.7774(3) 0.19025(17) 0.40523(18)
O4 O 0.82215(19) 0.16078(13) 0.48070(13)
C14 C 0.8653(3) 0.24314(18) 0.35586(18)
C15 C 0.8135(3) 0.2755(2) 0.2733(2)
H9 H 0.7251 0.2637 0.2495
C16 C 0.8911(3) 0.3249(2) 0.2257(2)
H10 H 0.8541 0.3464 0.1707
C19 C 0.9992(3) 0.2593(2) 0.3893(2)
C13_2 C 0.2226(3) 0.69025(17) 0.09477(18)
C14_2 C 0.1347(3) 0.74314(18) 0.14414(18)
C15_2 C 0.1865(3) 0.7755(2) 0.2267(2)
H9_2 H 0.2749 0.7637 0.2505
C16_2 C 0.1089(3) 0.8249(2) 0.2743(2)
H10_2 H 0.1459 0.8464 0.3293
C19_2 C 0.0008(3) 0.7593(2) 0.1107(2)
O1_2 O 0.46819(18) 0.45911(12) 0.89797(12)
N1_2 N 0.5179(2) 0.16171(14) 0.54188(14)
C1_2 C 0.3445(2) 0.47172(16) 0.87731(16)
C2_2 C 0.2717(2) 0.42351(17) 0.80073(17)
C3_2 C 0.3424(3) 0.36763(16) 0.75490(17)
H1_2 H 0.4339 0.3595 0.7729
C4_2 C 0.2777(3) 0.32361(17) 0.68217(18)
C5_2 C 0.1393(3) 0.3352(2) 0.6571(2)
H2_2 H 0.0951 0.3062 0.6088
C6_2 C 0.0677(3) 0.3895(2) 0.7038(2)
C7_2 C 0.1330(3) 0.43410(18) 0.77528(19)
H4_2 H 0.0848 0.4708 0.8061
C8_2 C 0.3571(3) 0.26589(17) 0.63348(18)
C9_2 C 0.4519(3) 0.21371(18) 0.67937(18)
H5_2 H 0.4640 0.2128 0.7417
C10_2 C 0.5281(3) 0.16327(18) 0.63210(18)
H6_2 H 0.5898 0.1284 0.6643
C11_2 C 0.4256(3) 0.21162(18) 0.49759(18)
H7_2 H 0.4163 0.2119 0.4352
C12_2 C 0.3440(3) 0.26249(19) 0.54003(19)
H8_2 H 0.2799 0.2947 0.5062
H16_2 H 0.6452 0.0241 0.2754
Co4_2 Co 0.63877(3) 0.41723(2) 0.97020(2)
O5_2 O 0.46819(18) 0.04089(12) 0.39797(12)
O3_2 O 0.34103(18) 0.82531(12) 0.63092(13)
C13_3 C 0.2226(3) 0.80975(17) 0.59477(18)
O4_2 O 0.17785(19) 0.83922(13) 0.51930(13)
C14_3 C 0.1347(3) 0.75686(18) 0.64414(18)
C15_3 C 0.1865(3) 0.7245(2) 0.7267(2)
H9_3 H 0.2749 0.7363 0.7505
C16_3 C 0.1089(3) 0.6751(2) 0.7743(2)
H10_3 H 0.1459 0.6536 0.8293
C19_3 C 0.0008(3) 0.7407(2) 0.6107(2)
N1_3 N 0.5179(2) 0.33829(14) 0.04188(14)
C1_3 C 0.3445(2) 0.02828(16) 0.37731(16)
C2_3 C 0.2717(2) 0.07649(17) 0.30073(17)
C3_3 C 0.3424(3) 0.13237(16) 0.25490(17)
H1_3 H 0.4339 0.1405 0.2729
C4_3 C 0.2777(3) 0.17639(17) 0.18217(18)
C5_3 C 0.1393(3) 0.1648(2) 0.1571(2)
H2_3 H 0.0951 0.1938 0.1088
C6_3 C 0.0677(3) 0.1105(2) 0.2038(2)
C7_3 C 0.1330(3) 0.06590(18) 0.27528(19)
H4_3 H 0.0848 0.0292 0.3061
C8_3 C 0.3571(3) 0.23411(17) 0.13348(18)
C9_3 C 0.4519(3) 0.28629(18) 0.17937(18)
H5_3 H 0.4640 0.2872 0.2417
C10_3 C 0.5281(3) 0.33673(18) 0.13210(18)
H6_3 H 0.5898 0.3716 0.1643
C12_3 C 0.3440(3) 0.23751(19) 0.04003(19)
H8_3 H 0.2799 0.2053 0.0062
O6_2 O 0.72169(18) 0.47623(11) 0.08464(12)
C11_3 C 0.4256(3) 0.28838(18) 0.99759(18)
H7_3 H 0.4163 0.2881 0.9352
N2_2 N 0.7442(2) 0.50129(14) 0.89390(15)
C17_2 C 0.9755(3) 0.65712(18) 0.74084(18)
C18_2 C 0.9224(3) 0.6913(2) 0.6586(2)
H11_2 H 0.8333 0.6808 0.6356
H12_2 H 0.9638 0.7630 0.5561
C20_2 C 0.8932(3) 0.60440(17) 0.79267(18)
C21_2 C 0.9212(3) 0.59931(18) 0.88597(18)
H13_2 H 0.9900 0.6306 0.9164
C22_2 C 0.8465(3) 0.54785(18) 0.93282(18)
H14_2 H 0.8679 0.5451 0.9948
C23_2 C 0.7873(3) 0.55600(19) 0.75196(19)
H15_2 H 0.7648 0.5569 0.6900
C24_2 C 0.7161(3) 0.50679(19) 0.80394(18)
H16_3 H 0.6452 0.4759 0.7754
O7_2 O 0.65897(18) 0.32531(12) 0.86908(13)
O8_2 O 0.82215(19) 0.33922(13) 0.98070(13)
O2_2 O 0.27831(18) 0.97623(11) 0.41536(12)
N1_4 N 0.4821(2) 0.83829(14) 0.45812(14)
C1_4 C 0.6555(2) 0.52828(16) 0.12269(16)
C2_4 C 0.7283(2) 0.57649(17) 0.19927(17)
C3_4 C 0.6576(3) 0.63237(16) 0.24510(17)
H1_4 H 0.5661 0.6405 0.2271
C4_4 C 0.7223(3) 0.67639(17) 0.31783(18)
C5_4 C 0.8607(3) 0.6648(2) 0.3429(2)
H2_4 H 0.9049 0.6938 0.3912
C6_4 C 0.9323(3) 0.6105(2) 0.2962(2)
C7_4 C 0.8670(3) 0.56590(18) 0.22472(19)
H4_4 H 0.9152 0.5292 0.1939
C8_4 C 0.6429(3) 0.73411(17) 0.36652(18)
C9_4 C 0.5481(3) 0.78629(18) 0.32063(18)
H5_4 H 0.5360 0.7872 0.2583
C10_4 C 0.4719(3) 0.83673(18) 0.36790(18)
H6_4 H 0.4102 0.8716 0.3357
C11_4 C 0.5744(3) 0.78838(18) 0.50241(18)
H7_4 H 0.5837 0.7881 0.5648
C12_4 C 0.6560(3) 0.73751(19) 0.45997(19)
H8_4 H 0.7201 0.7053 0.4938
H16_4 H 0.3548 0.9759 0.7246
C13_4 C 0.7774(3) 0.30975(17) 0.90523(18)
C14_4 C 0.8653(3) 0.25686(18) 0.85586(18)
C15_4 C 0.8135(3) 0.2245(2) 0.7733(2)
H9_4 H 0.7251 0.2363 0.7495
C16_4 C 0.8911(3) 0.1751(2) 0.7257(2)
H10_4 H 0.8541 0.1536 0.6707
C19_4 C 0.9992(3) 0.2407(2) 0.8893(2)
N2_3 N 0.7442(2) 0.99871(14) 0.39390(15)
C17_3 C 0.9755(3) 0.84288(18) 0.24084(18)
C18_3 C 0.9224(3) 0.8087(2) 0.1586(2)
H11_3 H 0.8333 0.8192 0.1356
H12_3 H 0.9638 0.7370 0.0561
C20_3 C 0.8932(3) 0.89560(17) 0.29267(18)
C21_3 C 0.9212(3) 0.90069(18) 0.38597(18)
H13_3 H 0.9900 0.8694 0.4164
C22_3 C 0.8465(3) 0.95215(18) 0.43282(18)
H14_3 H 0.8679 0.9549 0.4948
C23_3 C 0.7873(3) 0.94400(19) 0.25196(19)
H15_3 H 0.7648 0.9431 0.1900
C24_3 C 0.7161(3) 0.99321(19) 0.30394(18)
H3_2 H 0.9756 0.3961 0.6871
H3_3 H 0.9756 0.1039 0.1871
H3_4 H 0.0244 0.6039 0.3129
N2_4 N 0.2558(2) 0.00129(14) 0.60610(15)
C17_4 C 0.0245(3) 0.15712(18) 0.75916(18)
C18_4 C 0.0776(3) 0.1913(2) 0.8414(2)
H11_4 H 0.1667 0.1808 0.8644
H12_4 H 0.0362 0.2630 0.9439
C20_4 C 0.1068(3) 0.10440(17) 0.70733(18)
C21_4 C 0.0788(3) 0.09931(18) 0.61403(18)
H13_4 H 0.0100 0.1306 0.5836
C22_4 C 0.1535(3) 0.04785(18) 0.56718(18)
H14_4 H 0.1321 0.0451 0.5052
C23_4 C 0.2127(3) 0.05600(19) 0.74804(19)
H15_4 H 0.2352 0.0569 0.8100
C24_4 C 0.2839(3) 0.00679(19) 0.69606(18)
loop_
_geom_bond_atom_site_label_1
_geom_bond_atom_site_label_2
_geom_bond_site_symmetry_1
_geom_bond_site_symmetry_2
O2 Co3 1_555 1_555
H7 C11 1_555 1_555
N2 Co1 1_555 1_555
C18 C17 1_555 1_555
H11 C18 1_555 1_555
C20 C17 1_555 1_555
C21 C20 1_555 1_555
H13 C21 1_555 1_555
C22 N2 1_555 1_555
H14 C22 1_555 1_555
C23 C20 1_555 1_555
H15 C23 1_555 1_555
C24 N2 1_555 1_555
H16 C24 1_555 1_555
O5 Co1 1_555 1_555
O7 Co1 1_555 1_555
O8 Co1 1_555 1_555
C21 C22 1_555 1_555
C23 C24 1_555 1_555
O1 C1 1_555 1_555
N1 C10 1_555 1_555
C2 C1 1_555 1_555
C3 C2 1_555 1_555
H1 C3 1_555 1_555
C4 C3 1_555 1_555
C5 C4 1_555 1_555
H2 C5 1_555 1_555
C6 C5 1_555 1_555
C7 C2 1_555 1_555
H4 C7 1_555 1_555
C8 C4 1_555 1_555
C9 C8 1_555 1_555
H5 C9 1_555 1_555
C10 C9 1_555 1_555
H6 C10 1_555 1_555
C12 C8 1_555 1_555
H8 C12 1_555 1_555
Co4 O1 1_555 1_555
C6 C7 1_555 1_555
O3 C13 1_555 1_555
C13 O4 1_555 1_555
O4 Co3 1_555 1_555
C14 C13 1_555 1_555
C15 C14 1_555 1_555
H9 C15 1_555 1_555
C16 C15 1_555 1_555
H10 C16 1_555 1_555
C19 C14 1_555 1_555
Co3 O3 1_555 1_555
O7 C13_2 1_555 1_555
C13_2 O8 1_555 1_555
C14_2 C13_2 1_555 1_555
C15_2 C14_2 1_555 1_555
H9_2 C15_2 1_555 1_555
C16_2 C15_2 1_555 1_555
H10_2 C16_2 1_555 1_555
C19_2 C14_2 1_555 1_555
Co3 N1_2 1_555 1_555
O1_2 C1_2 1_555 1_555
N1_2 C10_2 1_555 1_555
C1_2 O6 1_555 1_555
C2_2 C1_2 1_555 1_555
C3_2 C2_2 1_555 1_555
H1_2 C3_2 1_555 1_555
C4_2 C3_2 1_555 1_555
C5_2 C4_2 1_555 1_555
H2_2 C5_2 1_555 1_555
C6_2 C5_2 1_555 1_555
C7_2 C2_2 1_555 1_555
H4_2 C7_2 1_555 1_555
C8_2 C4_2 1_555 1_555
C9_2 C8_2 1_555 1_555
H5_2 C9_2 1_555 1_555
C10_2 C9_2 1_555 1_555
H6_2 C10_2 1_555 1_555
C11_2 N1_2 1_555 1_555
H7_2 C11_2 1_555 1_555
C12_2 C8_2 1_555 1_555
H8_2 C12_2 1_555 1_555
Co4_2 O1_2 1_555 1_555
O5_2 Co3 1_555 1_555
C6_2 C7_2 1_555 1_555
C11_2 C12_2 1_555 1_555
O3_2 C13_3 1_555 1_555
C13_3 O4_2 1_555 1_555
O4_2 Co4 1_555 1_555
C14_3 C13_3 1_555 1_555
C15_3 C14_3 1_555 1_555
H9_3 C15_3 1_555 1_555
C16_3 C15_3 1_555 1_555
H10_3 C16_3 1_555 1_555
C19_3 C14_3 1_555 1_555
Co4 O3_2 1_555 1_555
O5_2 C1_3 1_555 1_555
N1_3 C10_3 1_555 1_555
C2_3 C1_3 1_555 1_555
C3_3 C2_3 1_555 1_555
H1_3 C3_3 1_555 1_555
C4_3 C3_3 1_555 1_555
C5_3 C4_3 1_555 1_555
H2_3 C5_3 1_555 1_555
C6_3 C5_3 1_555 1_555
C7_3 C2_3 1_555 1_555
H4_3 C7_3 1_555 1_555
C8_3 C4_3 1_555 1_555
C9_3 C8_3 1_555 1_555
H5_3 C9_3 1_555 1_555
C10_3 C9_3 1_555 1_555
H6_3 C10_3 1_555 1_555
C12_3 C8_3 1_555 1_555
H8_3 C12_3 1_555 1_555
C6_3 C7_3 1_555 1_555
H7_3 C11_3 1_555 1_555
N2_2 Co4_2 1_555 1_555
C18_2 C17_2 1_555 1_555
H11_2 C18_2 1_555 1_555
C20_2 C17_2 1_555 1_555
C21_2 C20_2 1_555 1_555
H13_2 C21_2 1_555 1_555
C22_2 N2_2 1_555 1_555
H14_2 C22_2 1_555 1_555
C23_2 C20_2 1_555 1_555
H15_2 C23_2 1_555 1_555
C24_2 N2_2 1_555 1_555
H16_3 C24_2 1_555 1_555
O7_2 Co4_2 1_555 1_555
O8_2 Co4_2 1_555 1_555
C21_2 C22_2 1_555 1_555
C23_2 C24_2 1_555 1_555
O2_2 Co4 1_555 1_555
Co4 N1_4 1_555 1_555
O5 C1_4 1_555 1_555
N1_4 C10_4 1_555 1_555
C1_4 O6_2 1_555 1_555
C2_4 C1_4 1_555 1_555
C3_4 C2_4 1_555 1_555
H1_4 C3_4 1_555 1_555
C4_4 C3_4 1_555 1_555
C5_4 C4_4 1_555 1_555
H2_4 C5_4 1_555 1_555
C6_4 C5_4 1_555 1_555
C7_4 C2_4 1_555 1_555
H4_4 C7_4 1_555 1_555
C8_4 C4_4 1_555 1_555
C9_4 C8_4 1_555 1_555
H5_4 C9_4 1_555 1_555
C10_4 C9_4 1_555 1_555
H6_4 C10_4 1_555 1_555
C11_4 N1_4 1_555 1_555
H7_4 C11_4 1_555 1_555
C12_4 C8_4 1_555 1_555
H8_4 C12_4 1_555 1_555
C6_4 C7_4 1_555 1_555
C11_4 C12_4 1_555 1_555
O7_2 C13_4 1_555 1_555
C13_4 O8_2 1_555 1_555
C14_4 C13_4 1_555 1_555
C15_4 C14_4 1_555 1_555
H9_4 C15_4 1_555 1_555
C16_4 C15_4 1_555 1_555
H10_4 C16_4 1_555 1_555
C19_4 C14_4 1_555 1_555
C18_3 C17_3 1_555 1_555
H11_3 C18_3 1_555 1_555
C20_3 C17_3 1_555 1_555
C21_3 C20_3 1_555 1_555
H13_3 C21_3 1_555 1_555
C22_3 N2_3 1_555 1_555
H14_3 C22_3 1_555 1_555
C23_3 C20_3 1_555 1_555
H15_3 C23_3 1_555 1_555
C24_3 N2_3 1_555 1_555
C21_3 C22_3 1_555 1_555
C23_3 C24_3 1_555 1_555
C18_4 C17_4 1_555 1_555
H11_4 C18_4 1_555 1_555
C20_4 C17_4 1_555 1_555
C21_4 C20_4 1_555 1_555
H13_4 C21_4 1_555 1_555
C22_4 N2_4 1_555 1_555
H14_4 C22_4 1_555 1_555
C23_4 C20_4 1_555 1_555
H15_4 C23_4 1_555 1_555
C24_4 N2_4 1_555 1_555
C21_4 C22_4 1_555 1_555
C23_4 C24_4 1_555 1_555

#END
