
###############################################################################
#
# This file contains modified crystal structure data generated from the
# MOF subset of the Cambridge Structural Database (CSD) v543 
# hosted by the Cambridge Crystallographic Data Centre (CCDC).
#
# This work is licensed under the Creative Commons
# Attribution-NonCommercial-ShareAlike 4.0 International License.
# To view a copy of this license, visit
# http://creativecommons.org/licenses/by-nc-sa/4.0/
# or send a letter to
# Creative Commons, PO Box 1866, Mountain View, CA 94042, USA.
#
# CIF created using the CSD Python API on 29 September 2022
# The structure has been converted into the P1 space group
# The structure has a 3D framework
# The original CSD entry NABKOU is in the monoclinic crystal system
# The framework has been calculated to contain at least 10.0% void space
# The void calculation uses a probe of radius 1.32A, grid spacing 0.4
#
###############################################################################

data_NABKOU
_chemical_formula_moiety         '(C96 H64 Co4 N8 O14)n'
_symmetry_cell_setting           triclinic
_symmetry_space_group_name_H-M   'P 1'
_symmetry_Int_Tables_number      1
_space_group_name_Hall           'P 1'
loop_
_symmetry_equiv_pos_site_id
_symmetry_equiv_pos_as_xyz
1 x,y,z
_cell_length_a                   10.2944(16)
_cell_length_b                   16.272(3)
_cell_length_c                   15.248(3)
_cell_angle_alpha                90
_cell_angle_beta                 95.232(4)
_cell_angle_gamma                90
_cell_volume                     2543.56
loop_
_atom_site_label
_atom_site_type_symbol
_atom_site_fract_x
_atom_site_fract_y
_atom_site_fract_z
Co1 Co 0.13821(4) 0.08346(2) 0.46798(3)
N1 N 0.0157(2) 0.15855(16) 0.54302(16)
C10 C 0.0397(3) 0.1657(2) 0.6308(2)
H6 H 0.1086 0.1359 0.6588
N2 N 0.2516(2) 0.00291(16) 0.39242(17)
H15 H 0.1583 0.0277 0.2776
Co4 Co 0.13821(4) 0.41654(2) 0.96798(3)
O6 O 0.2096(2) 0.01941(13) 0.57730(14)
O7 O 0.1605(2) 0.17877(14) 0.37532(15)
O8 O 0.3146(2) 0.16661(15) 0.48429(15)
O3 O 0.8395(2) 0.67877(14) 0.12468(15)
C13 C 0.7272(3) 0.6969(2) 0.0887(2)
O4 O 0.6854(2) 0.66661(15) 0.01571(15)
C14 C 0.6431(3) 0.7535(2) 0.1374(2)
C15 C 0.6894(3) 0.7816(2) 0.2202(2)
H9 H 0.7728 0.7669 0.2435
C16 C 0.6132(3) 0.8311(3) 0.2689(3)
H10 H 0.6464 0.8498 0.3241
C17 C 0.4875(3) 0.8532(2) 0.2359(2)
C18 C 0.4410(4) 0.8238(3) 0.1529(2)
H11 H 0.3571 0.8376 0.1299
C19 C 0.5177(4) 0.7744(3) 0.1042(2)
H12 H 0.4847 0.7553 0.0491
C20 C 0.4051(3) 0.9040(2) 0.2897(2)
C21 C 0.4298(3) 0.9087(2) 0.3818(2)
H13 H 0.4977 0.8786 0.4107
C22 C 0.3527(3) 0.9581(2) 0.4291(2)
H14 H 0.3715 0.9608 0.4899
C23 C 0.2281(3) 0.9980(2) 0.3046(2)
C24 C 0.3016(3) 0.9514(2) 0.2523(2)
H16 H 0.2820 0.9515 0.1916
Co3 Co 0.86179(4) 0.58346(2) 0.03202(3)
O1 O 0.9777(2) 0.46035(13) 0.89558(14)
C1 C 0.8570(3) 0.46928(18) 0.88199(18)
O2 O 0.7904(2) 0.51941(13) 0.92270(14)
C2 C 0.7844(3) 0.41798(18) 0.81155(19)
C3 C 0.8523(3) 0.36305(19) 0.76198(19)
H1 H 0.9422 0.3578 0.7735
C4 C 0.7864(3) 0.31595(19) 0.6953(2)
C5 C 0.6511(3) 0.3228(2) 0.6801(2)
H2 H 0.6066 0.2918 0.6357
C6 C 0.5824(3) 0.3754(2) 0.7307(2)
H3 H 0.4920 0.3785 0.7212
C7 C 0.6489(3) 0.4234(2) 0.7956(2)
H4 H 0.6028 0.4594 0.8286
C8 C 0.8620(3) 0.2598(2) 0.6422(2)
C9 C 0.9671(3) 0.2151(2) 0.6815(2)
H5 H 0.9884 0.2186 0.7420
C11 C 0.9142(3) 0.2013(2) 0.5051(2)
H7 H 0.8959 0.1974 0.4444
C12 C 0.8360(3) 0.2507(2) 0.5509(2)
H8 H 0.7658 0.2780 0.5214
O5 O 0.9777(2) 0.03965(13) 0.39558(14)
H7_2 H 0.1041 0.6974 0.0556
O5_2 O 0.0223(2) 0.53965(13) 0.10442(14)
O1_2 O 0.0223(2) 0.96035(13) 0.60442(14)
C1_2 C 0.1430(3) 0.96928(18) 0.61801(18)
C2_2 C 0.2156(3) 0.91798(18) 0.68845(19)
C3_2 C 0.1477(3) 0.86305(19) 0.73802(19)
H1_2 H 0.0578 0.8578 0.7265
C4_2 C 0.2136(3) 0.81595(19) 0.8047(2)
C5_2 C 0.3489(3) 0.8228(2) 0.8199(2)
H2_2 H 0.3934 0.7918 0.8643
C6_2 C 0.4176(3) 0.8754(2) 0.7693(2)
H3_2 H 0.5080 0.8785 0.7788
C7_2 C 0.3511(3) 0.9234(2) 0.7044(2)
H4_2 H 0.3972 0.9594 0.6714
C8_2 C 0.1380(3) 0.7598(2) 0.8578(2)
C9_2 C 0.0329(3) 0.7151(2) 0.8185(2)
H5_2 H 0.0116 0.7186 0.7580
C11_2 C 0.0858(3) 0.7013(2) 0.9949(2)
C12_2 C 0.1640(3) 0.7507(2) 0.9491(2)
H8_2 H 0.2342 0.7780 0.9786
C13_2 C 0.2728(3) 0.1969(2) 0.4113(2)
N2_2 N 0.7484(2) 0.50291(16) 0.10758(17)
C14_2 C 0.3569(3) 0.2535(2) 0.3626(2)
C15_2 C 0.3106(3) 0.2816(2) 0.2798(2)
H9_2 H 0.2272 0.2669 0.2565
C16_2 C 0.3868(3) 0.3311(3) 0.2311(3)
H10_2 H 0.3536 0.3498 0.1759
C17_2 C 0.5125(3) 0.3532(2) 0.2641(2)
C18_2 C 0.5590(4) 0.3238(3) 0.3471(2)
H11_2 H 0.6429 0.3376 0.3701
C19_2 C 0.4823(4) 0.2744(3) 0.3958(2)
H12_2 H 0.5153 0.2553 0.4509
C20_2 C 0.5949(3) 0.4040(2) 0.2103(2)
C21_2 C 0.5702(3) 0.4087(2) 0.1182(2)
H13_2 H 0.5023 0.3786 0.0893
C22_2 C 0.6473(3) 0.4581(2) 0.0709(2)
H14_2 H 0.6285 0.4608 0.0101
C23_2 C 0.7719(3) 0.4980(2) 0.1954(2)
H15_2 H 0.8417 0.5277 0.2224
C24_2 C 0.6984(3) 0.4514(2) 0.2477(2)
H16_2 H 0.7180 0.4515 0.3084
N1_2 N 0.9843(2) 0.65855(16) 0.95698(16)
C10_2 C 0.9603(3) 0.6657(2) 0.8692(2)
H6_2 H 0.8914 0.6359 0.8412
Co4_2 Co 0.86179(4) 0.91654(2) 0.53202(3)
C1_3 C 0.1430(3) 0.53072(18) 0.11801(18)
O2_2 O 0.2096(2) 0.48059(13) 0.07730(14)
C2_3 C 0.2156(3) 0.58202(18) 0.18845(19)
C3_3 C 0.1477(3) 0.63695(19) 0.23802(19)
H1_3 H 0.0578 0.6422 0.2265
C4_3 C 0.2136(3) 0.68405(19) 0.3047(2)
C5_3 C 0.3489(3) 0.6772(2) 0.3199(2)
H2_3 H 0.3934 0.7082 0.3643
C6_3 C 0.4176(3) 0.6246(2) 0.2693(2)
H3_3 H 0.5080 0.6215 0.2788
C7_3 C 0.3511(3) 0.5766(2) 0.2044(2)
H4_3 H 0.3972 0.5406 0.1714
C8_3 C 0.1380(3) 0.7402(2) 0.3578(2)
C9_3 C 0.0329(3) 0.7849(2) 0.3185(2)
H5_3 H 0.0116 0.7814 0.2580
C11_3 C 0.0858(3) 0.7987(2) 0.4949(2)
H7_3 H 0.1041 0.8026 0.5556
C12_3 C 0.1640(3) 0.7493(2) 0.4491(2)
H8_3 H 0.2342 0.7220 0.4786
O3_2 O 0.1605(2) 0.32123(14) 0.87532(15)
C13_3 C 0.2728(3) 0.3031(2) 0.9113(2)
O4_2 O 0.3146(2) 0.33339(15) 0.98429(15)
C14_3 C 0.3569(3) 0.2465(2) 0.8626(2)
C15_3 C 0.3106(3) 0.2184(2) 0.7798(2)
H9_3 H 0.2272 0.2331 0.7565
C16_3 C 0.3868(3) 0.1689(3) 0.7311(3)
H10_3 H 0.3536 0.1502 0.6759
C17_3 C 0.5125(3) 0.1468(2) 0.7641(2)
C18_3 C 0.5590(4) 0.1762(3) 0.8471(2)
H11_3 H 0.6429 0.1624 0.8701
C19_3 C 0.4823(4) 0.2256(3) 0.8958(2)
H12_3 H 0.5153 0.2447 0.9509
C20_3 C 0.5949(3) 0.0960(2) 0.7103(2)
C21_3 C 0.5702(3) 0.0913(2) 0.6182(2)
H13_3 H 0.5023 0.1214 0.5893
C22_3 C 0.6473(3) 0.0419(2) 0.5709(2)
H14_3 H 0.6285 0.0392 0.5101
C23_3 C 0.7719(3) 0.0020(2) 0.6954(2)
C24_3 C 0.6984(3) 0.0486(2) 0.7477(2)
H16_3 H 0.7180 0.0485 0.8084
N1_3 N 0.9843(2) 0.84145(16) 0.45698(16)
C10_3 C 0.9603(3) 0.8343(2) 0.3692(2)
H6_3 H 0.8914 0.8641 0.3412
N2_3 N 0.7484(2) 0.99709(16) 0.60758(17)
H15_3 H 0.8417 0.9723 0.7224
O6_2 O 0.7904(2) 0.98059(13) 0.42270(14)
O7_2 O 0.8395(2) 0.82123(14) 0.62468(15)
O8_2 O 0.6854(2) 0.83339(15) 0.51571(15)
N1_4 N 0.0157(2) 0.34145(16) 0.04302(16)
C10_4 C 0.0397(3) 0.3343(2) 0.1308(2)
H6_4 H 0.1086 0.3641 0.1588
C13_4 C 0.7272(3) 0.8031(2) 0.5887(2)
N2_4 N 0.2516(2) 0.49709(16) 0.89242(17)
C14_4 C 0.6431(3) 0.7465(2) 0.6374(2)
C15_4 C 0.6894(3) 0.7184(2) 0.7202(2)
H9_4 H 0.7728 0.7331 0.7435
C16_4 C 0.6132(3) 0.6689(3) 0.7689(3)
H10_4 H 0.6464 0.6502 0.8241
C17_4 C 0.4875(3) 0.6468(2) 0.7359(2)
C18_4 C 0.4410(4) 0.6762(3) 0.6529(2)
H11_4 H 0.3571 0.6624 0.6299
C19_4 C 0.5177(4) 0.7256(3) 0.6042(2)
H12_4 H 0.4847 0.7447 0.5491
C20_4 C 0.4051(3) 0.5960(2) 0.7897(2)
C21_4 C 0.4298(3) 0.5913(2) 0.8818(2)
H13_4 H 0.4977 0.6214 0.9107
C22_4 C 0.3527(3) 0.5419(2) 0.9291(2)
H14_4 H 0.3715 0.5392 0.9899
C23_4 C 0.2281(3) 0.5020(2) 0.8046(2)
H15_4 H 0.1583 0.4723 0.7776
C24_4 C 0.3016(3) 0.5486(2) 0.7523(2)
H16_4 H 0.2820 0.5485 0.6916
C1_4 C 0.8570(3) 0.03072(18) 0.38199(18)
C2_4 C 0.7844(3) 0.08202(18) 0.31155(19)
C3_4 C 0.8523(3) 0.13695(19) 0.26198(19)
H1_4 H 0.9422 0.1422 0.2735
C4_4 C 0.7864(3) 0.18405(19) 0.1953(2)
C5_4 C 0.6511(3) 0.1772(2) 0.1801(2)
H2_4 H 0.6066 0.2082 0.1357
C6_4 C 0.5824(3) 0.1246(2) 0.2307(2)
H3_4 H 0.4920 0.1215 0.2212
C7_4 C 0.6489(3) 0.0766(2) 0.2956(2)
H4_4 H 0.6028 0.0406 0.3286
C8_4 C 0.8620(3) 0.2402(2) 0.1422(2)
C9_4 C 0.9671(3) 0.2849(2) 0.1815(2)
H5_4 H 0.9884 0.2814 0.2420
C11_4 C 0.9142(3) 0.2987(2) 0.0051(2)
C12_4 C 0.8360(3) 0.2493(2) 0.0509(2)
H8_4 H 0.7658 0.2220 0.0214
H7_4 H 0.8959 0.3026 0.9444
loop_
_geom_bond_atom_site_label_1
_geom_bond_atom_site_label_2
_geom_bond_site_symmetry_1
_geom_bond_site_symmetry_2
Co1 N1 1_555 1_555
N1 C10 1_555 1_555
H6 C10 1_555 1_555
N2 Co1 1_555 1_555
O6 Co1 1_555 1_555
O7 Co1 1_555 1_555
O8 Co1 1_555 1_555
O3 C13 1_555 1_555
C13 O4 1_555 1_555
O4 Co3 1_555 1_555
C14 C13 1_555 1_555
C15 C14 1_555 1_555
H9 C15 1_555 1_555
C16 C15 1_555 1_555
H10 C16 1_555 1_555
C17 C16 1_555 1_555
C18 C17 1_555 1_555
H11 C18 1_555 1_555
C19 C14 1_555 1_555
H12 C19 1_555 1_555
C20 C17 1_555 1_555
C21 C20 1_555 1_555
H13 C21 1_555 1_555
H14 C22 1_555 1_555
C24 C20 1_555 1_555
H16 C24 1_555 1_555
Co3 O3 1_555 1_555
C18 C19 1_555 1_555
C21 C22 1_555 1_555
C23 C24 1_555 1_555
O1 C1 1_555 1_555
C1 O2 1_555 1_555
C2 C1 1_555 1_555
C3 C2 1_555 1_555
H1 C3 1_555 1_555
C4 C3 1_555 1_555
C5 C4 1_555 1_555
H2 C5 1_555 1_555
C6 C5 1_555 1_555
H3 C6 1_555 1_555
C7 C2 1_555 1_555
H4 C7 1_555 1_555
C8 C4 1_555 1_555
C9 C8 1_555 1_555
H5 C9 1_555 1_555
H7 C11 1_555 1_555
C12 C8 1_555 1_555
H8 C12 1_555 1_555
C6 C7 1_555 1_555
C11 C12 1_555 1_555
O1_2 C1_2 1_555 1_555
C2_2 C1_2 1_555 1_555
C3_2 C2_2 1_555 1_555
H1_2 C3_2 1_555 1_555
C4_2 C3_2 1_555 1_555
C5_2 C4_2 1_555 1_555
H2_2 C5_2 1_555 1_555
C6_2 C5_2 1_555 1_555
H3_2 C6_2 1_555 1_555
C7_2 C2_2 1_555 1_555
H4_2 C7_2 1_555 1_555
C8_2 C4_2 1_555 1_555
C9_2 C8_2 1_555 1_555
H5_2 C9_2 1_555 1_555
C12_2 C8_2 1_555 1_555
H8_2 C12_2 1_555 1_555
C6_2 C7_2 1_555 1_555
C11_2 C12_2 1_555 1_555
O7 C13_2 1_555 1_555
C13_2 O8 1_555 1_555
N2_2 Co3 1_555 1_555
C14_2 C13_2 1_555 1_555
C15_2 C14_2 1_555 1_555
H9_2 C15_2 1_555 1_555
C16_2 C15_2 1_555 1_555
H10_2 C16_2 1_555 1_555
C17_2 C16_2 1_555 1_555
C18_2 C17_2 1_555 1_555
H11_2 C18_2 1_555 1_555
C19_2 C14_2 1_555 1_555
H12_2 C19_2 1_555 1_555
C20_2 C17_2 1_555 1_555
C21_2 C20_2 1_555 1_555
H13_2 C21_2 1_555 1_555
C22_2 N2_2 1_555 1_555
H14_2 C22_2 1_555 1_555
C23_2 N2_2 1_555 1_555
H15_2 C23_2 1_555 1_555
C24_2 C20_2 1_555 1_555
H16_2 C24_2 1_555 1_555
C18_2 C19_2 1_555 1_555
C21_2 C22_2 1_555 1_555
C23_2 C24_2 1_555 1_555
N1_2 C10_2 1_555 1_555
H6_2 C10_2 1_555 1_555
O5_2 C1_3 1_555 1_555
C1_3 O2_2 1_555 1_555
C2_3 C1_3 1_555 1_555
C3_3 C2_3 1_555 1_555
H1_3 C3_3 1_555 1_555
C4_3 C3_3 1_555 1_555
C5_3 C4_3 1_555 1_555
H2_3 C5_3 1_555 1_555
C6_3 C5_3 1_555 1_555
H3_3 C6_3 1_555 1_555
C7_3 C2_3 1_555 1_555
H4_3 C7_3 1_555 1_555
C8_3 C4_3 1_555 1_555
C9_3 C8_3 1_555 1_555
H5_3 C9_3 1_555 1_555
H7_3 C11_3 1_555 1_555
C12_3 C8_3 1_555 1_555
H8_3 C12_3 1_555 1_555
C6_3 C7_3 1_555 1_555
C11_3 C12_3 1_555 1_555
O3_2 C13_3 1_555 1_555
C13_3 O4_2 1_555 1_555
O4_2 Co4 1_555 1_555
C14_3 C13_3 1_555 1_555
C15_3 C14_3 1_555 1_555
H9_3 C15_3 1_555 1_555
C16_3 C15_3 1_555 1_555
H10_3 C16_3 1_555 1_555
C17_3 C16_3 1_555 1_555
C18_3 C17_3 1_555 1_555
H11_3 C18_3 1_555 1_555
C19_3 C14_3 1_555 1_555
H12_3 C19_3 1_555 1_555
C20_3 C17_3 1_555 1_555
C21_3 C20_3 1_555 1_555
H13_3 C21_3 1_555 1_555
H14_3 C22_3 1_555 1_555
C24_3 C20_3 1_555 1_555
H16_3 C24_3 1_555 1_555
Co4 O3_2 1_555 1_555
C18_3 C19_3 1_555 1_555
C21_3 C22_3 1_555 1_555
C23_3 C24_3 1_555 1_555
Co4_2 N1_3 1_555 1_555
N1_3 C10_3 1_555 1_555
H6_3 C10_3 1_555 1_555
N2_3 Co4_2 1_555 1_555
O6_2 Co4_2 1_555 1_555
O7_2 Co4_2 1_555 1_555
O8_2 Co4_2 1_555 1_555
N1_4 C10_4 1_555 1_555
H6_4 C10_4 1_555 1_555
O7_2 C13_4 1_555 1_555
C13_4 O8_2 1_555 1_555
N2_4 Co4 1_555 1_555
C14_4 C13_4 1_555 1_555
C15_4 C14_4 1_555 1_555
H9_4 C15_4 1_555 1_555
C16_4 C15_4 1_555 1_555
H10_4 C16_4 1_555 1_555
C17_4 C16_4 1_555 1_555
C18_4 C17_4 1_555 1_555
H11_4 C18_4 1_555 1_555
C19_4 C14_4 1_555 1_555
H12_4 C19_4 1_555 1_555
C20_4 C17_4 1_555 1_555
C21_4 C20_4 1_555 1_555
H13_4 C21_4 1_555 1_555
C22_4 N2_4 1_555 1_555
H14_4 C22_4 1_555 1_555
C23_4 N2_4 1_555 1_555
H15_4 C23_4 1_555 1_555
C24_4 C20_4 1_555 1_555
H16_4 C24_4 1_555 1_555
C18_4 C19_4 1_555 1_555
C21_4 C22_4 1_555 1_555
C23_4 C24_4 1_555 1_555
O5 C1_4 1_555 1_555
C2_4 C1_4 1_555 1_555
C3_4 C2_4 1_555 1_555
H1_4 C3_4 1_555 1_555
C4_4 C3_4 1_555 1_555
C5_4 C4_4 1_555 1_555
H2_4 C5_4 1_555 1_555
C6_4 C5_4 1_555 1_555
H3_4 C6_4 1_555 1_555
C7_4 C2_4 1_555 1_555
H4_4 C7_4 1_555 1_555
C8_4 C4_4 1_555 1_555
C9_4 C8_4 1_555 1_555
H5_4 C9_4 1_555 1_555
C12_4 C8_4 1_555 1_555
H8_4 C12_4 1_555 1_555
C6_4 C7_4 1_555 1_555
C11_4 C12_4 1_555 1_555

#END
