
###############################################################################
#
# This file contains modified crystal structure data generated from the
# MOF subset of the Cambridge Structural Database (CSD) v543 
# hosted by the Cambridge Crystallographic Data Centre (CCDC).
#
# This work is licensed under the Creative Commons
# Attribution-NonCommercial-ShareAlike 4.0 International License.
# To view a copy of this license, visit
# http://creativecommons.org/licenses/by-nc-sa/4.0/
# or send a letter to
# Creative Commons, PO Box 1866, Mountain View, CA 94042, USA.
#
# CIF created using the CSD Python API on 29 September 2022
# The structure has been converted into the P1 space group
# The structure has a 3D framework
# The original CSD entry NABKAG is in the monoclinic crystal system
# The framework has been calculated to contain at least 10.0% void space
# The void calculation uses a probe of radius 1.32A, grid spacing 0.4
#
###############################################################################

data_NABKAG
_chemical_formula_moiety         '(C96 H64 N8 O16 Zn4)n'
_symmetry_cell_setting           triclinic
_symmetry_space_group_name_H-M   'P 1'
_symmetry_Int_Tables_number      1
_space_group_name_Hall           'P 1'
loop_
_symmetry_equiv_pos_site_id
_symmetry_equiv_pos_as_xyz
1 x,y,z
_cell_length_a                   9.3389(15)
_cell_length_b                   17.677(3)
_cell_length_c                   14.735(3)
_cell_angle_alpha                90
_cell_angle_beta                 93.189(5)
_cell_angle_gamma                90
_cell_volume                     2428.74
loop_
_atom_site_label
_atom_site_type_symbol
_atom_site_fract_x
_atom_site_fract_y
_atom_site_fract_z
O2 O 0.2050(2) 0.04444(11) 0.10321(14)
H4 H 0.4038 0.0097 0.2179
Zn3 Zn 0.13358(4) 0.08853(2) 0.98004(2)
O1 O 0.0583(2) 0.94647(13) 0.08406(14)
C1 C 0.1571(3) 0.98079(17) 0.1264(2)
C2 C 0.2279(3) 0.94331(18) 0.2077(2)
C3 C 0.1620(3) 0.88214(17) 0.2472(2)
H1 H 0.0736 0.8654 0.2229
C4 C 0.2263(3) 0.84520(19) 0.3230(2)
C5 C 0.3606(4) 0.8702(2) 0.3570(3)
H2 H 0.4057 0.8459 0.4068
C6 C 0.4275(4) 0.9310(3) 0.3173(3)
H3 H 0.5174 0.9469 0.3401
C7 C 0.3600(4) 0.9682(2) 0.2434(3)
C8 C 0.1494(3) 0.78291(18) 0.3675(2)
C9 C 0.0581(4) 0.73513(19) 0.3191(2)
H5 H 0.0464 0.7396 0.2562
C11 C 0.0863(4) 0.71490(19) 0.5004(2)
H7 H 0.0996 0.7077 0.5628
C12 C 0.1631(4) 0.7713(2) 0.4605(2)
H8 H 0.2246 0.8018 0.4963
O5 O 0.0583(2) 0.55353(13) 0.58406(14)
Zn1 Zn 0.86642(4) 0.58853(2) 0.51996(2)
N1 N 0.9934(3) 0.67002(15) 0.45332(17)
C10 C 0.9835(4) 0.68037(18) 0.3639(2)
H6 H 0.9226 0.6487 0.3293
O3 O 0.1603(2) 0.16444(12) 0.86129(14)
N2 N 0.7608(3) 0.50197(14) 0.59213(17)
C13 C 0.2800(3) 0.18451(18) 0.8960(2)
O4 O 0.3223(2) 0.16370(13) 0.97469(15)
C14 C 0.3751(3) 0.23358(17) 0.8416(2)
C15 C 0.3351(3) 0.2513(2) 0.7528(2)
H9 H 0.2529 0.2296 0.7255
C16 C 0.4152(4) 0.3005(2) 0.7040(2)
H10 H 0.3855 0.3117 0.6442
C17 C 0.5390(3) 0.33363(18) 0.7418(2)
C18 C 0.5819(4) 0.3132(2) 0.8293(3)
H11 H 0.6666 0.3329 0.8559
C19 C 0.5001(4) 0.2636(3) 0.8784(3)
H12 H 0.5312 0.2506 0.9374
C20 C 0.6205(3) 0.38989(17) 0.6902(2)
C21 C 0.5914(3) 0.40009(18) 0.5972(2)
H13 H 0.5247 0.3695 0.5656
C22 C 0.6626(3) 0.45594(18) 0.5526(2)
H14 H 0.6407 0.4620 0.4907
C23 C 0.7891(3) 0.49172(18) 0.6822(2)
H15 H 0.8568 0.5229 0.7119
C24 C 0.7231(3) 0.43764(18) 0.7321(2)
H16 H 0.7468 0.4329 0.7940
Zn4 Zn 0.86642(4) 0.91147(2) 0.01996(2)
O6 O 0.7950(2) 0.54444(11) 0.39679(14)
O7 O 0.8397(2) 0.66444(12) 0.63871(14)
O8 O 0.6777(2) 0.66370(13) 0.52531(15)
N1_2 N 0.0066(3) 0.17002(15) 0.04668(17)
C10_2 C 0.0165(4) 0.18037(18) 0.1361(2)
H6_2 H 0.0774 0.1487 0.1707
Zn4_2 Zn 0.13358(4) 0.41147(2) 0.48004(2)
N2_2 N 0.2392(3) 0.00197(14) 0.90787(17)
H15_2 H 0.1432 0.0229 0.7881
C13_2 C 0.7200(3) 0.68451(18) 0.6040(2)
C14_2 C 0.6249(3) 0.73358(17) 0.6584(2)
C15_2 C 0.6649(3) 0.7513(2) 0.7472(2)
H9_2 H 0.7471 0.7296 0.7745
C16_2 C 0.5848(4) 0.8005(2) 0.7960(2)
H10_2 H 0.6145 0.8117 0.8558
C17_2 C 0.4610(3) 0.83363(18) 0.7582(2)
C18_2 C 0.4181(4) 0.8132(2) 0.6707(3)
H11_2 H 0.3334 0.8329 0.6441
C19_2 C 0.4999(4) 0.7636(3) 0.6216(3)
H12_2 H 0.4688 0.7506 0.5626
C20_2 C 0.3795(3) 0.88989(17) 0.8098(2)
C21_2 C 0.4086(3) 0.90009(18) 0.9028(2)
H13_2 H 0.4753 0.8695 0.9344
C22_2 C 0.3374(3) 0.95594(18) 0.9474(2)
C23_2 C 0.2109(3) 0.99172(18) 0.8178(2)
C24_2 C 0.2769(3) 0.93764(18) 0.7679(2)
H16_2 H 0.2532 0.9329 0.7060
O1_2 O 0.9417(2) 0.44647(13) 0.41594(14)
C1_2 C 0.8429(3) 0.48079(17) 0.3736(2)
C2_2 C 0.7721(3) 0.44331(18) 0.2923(2)
C3_2 C 0.8380(3) 0.38214(17) 0.2528(2)
H1_2 H 0.9264 0.3654 0.2771
C4_2 C 0.7737(3) 0.34520(19) 0.1770(2)
C5_2 C 0.6394(4) 0.3702(2) 0.1430(3)
H2_2 H 0.5943 0.3459 0.0932
C6_2 C 0.5725(4) 0.4310(3) 0.1827(3)
H3_2 H 0.4826 0.4469 0.1599
C7_2 C 0.6400(4) 0.4682(2) 0.2566(3)
H4_2 H 0.5962 0.5097 0.2821
C8_2 C 0.8506(3) 0.28291(18) 0.1325(2)
C9_2 C 0.9419(4) 0.23513(19) 0.1809(2)
H5_2 H 0.9536 0.2396 0.2438
C12_2 C 0.8369(4) 0.2713(2) 0.0395(2)
H8_2 H 0.7754 0.3018 0.0037
C11_2 C 0.9137(4) 0.21490(19) 0.9996(2)
H7_2 H 0.9004 0.2077 0.9372
O5_2 O 0.9417(2) 0.05353(13) 0.91594(14)
N1_3 N 0.0066(3) 0.32998(15) 0.54668(17)
C10_3 C 0.0165(4) 0.31963(18) 0.6361(2)
H6_3 H 0.0774 0.3513 0.6707
O3_2 O 0.8397(2) 0.83556(12) 0.13871(14)
N2_3 N 0.2392(3) 0.49803(14) 0.40787(17)
C13_3 C 0.7200(3) 0.81549(18) 0.1040(2)
O4_2 O 0.6777(2) 0.83630(13) 0.02531(15)
C14_3 C 0.6249(3) 0.76642(17) 0.1584(2)
C15_3 C 0.6649(3) 0.7487(2) 0.2472(2)
H9_3 H 0.7471 0.7704 0.2745
C16_3 C 0.5848(4) 0.6995(2) 0.2960(2)
H10_3 H 0.6145 0.6883 0.3558
C17_3 C 0.4610(3) 0.66637(18) 0.2582(2)
C18_3 C 0.4181(4) 0.6868(2) 0.1707(3)
H11_3 H 0.3334 0.6671 0.1441
C19_3 C 0.4999(4) 0.7364(3) 0.1216(3)
H12_3 H 0.4688 0.7494 0.0626
C20_3 C 0.3795(3) 0.61011(17) 0.3098(2)
C21_3 C 0.4086(3) 0.59991(18) 0.4028(2)
H13_3 H 0.4753 0.6305 0.4344
C22_3 C 0.3374(3) 0.54406(18) 0.4474(2)
H14_2 H 0.3593 0.5380 0.5093
C23_3 C 0.2109(3) 0.50828(18) 0.3178(2)
H15_3 H 0.1432 0.4771 0.2881
C24_3 C 0.2769(3) 0.56236(18) 0.2679(2)
H16_3 H 0.2532 0.5671 0.2060
O6_2 O 0.2050(2) 0.45556(11) 0.60321(14)
O7_2 O 0.1603(2) 0.33556(12) 0.36129(14)
O8_2 O 0.3223(2) 0.33630(13) 0.47469(15)
C1_3 C 0.8429(3) 0.01921(17) 0.8736(2)
C2_3 C 0.7721(3) 0.05669(18) 0.7923(2)
C3_3 C 0.8380(3) 0.11786(17) 0.7528(2)
H1_3 H 0.9264 0.1346 0.7771
C4_3 C 0.7737(3) 0.15480(19) 0.6770(2)
C5_3 C 0.6394(4) 0.1298(2) 0.6430(3)
H2_3 H 0.5943 0.1541 0.5932
C6_3 C 0.5725(4) 0.0690(3) 0.6827(3)
H3_3 H 0.4826 0.0531 0.6599
C7_3 C 0.6400(4) 0.0318(2) 0.7566(3)
C8_3 C 0.8506(3) 0.21709(18) 0.6325(2)
C9_3 C 0.9419(4) 0.26487(19) 0.6809(2)
H5_3 H 0.9536 0.2604 0.7438
C11_3 C 0.9137(4) 0.28510(19) 0.4996(2)
H7_3 H 0.9004 0.2923 0.4372
C12_3 C 0.8369(4) 0.2287(2) 0.5395(2)
H8_3 H 0.7754 0.1982 0.5037
O2_2 O 0.7950(2) 0.95556(11) 0.89679(14)
H4_3 H 0.5962 0.9903 0.7821
C11_4 C 0.0863(4) 0.78510(19) 0.0004(2)
H7_4 H 0.0996 0.7923 0.0628
C1_4 C 0.1571(3) 0.51921(17) 0.6264(2)
C2_4 C 0.2279(3) 0.55669(18) 0.7077(2)
C3_4 C 0.1620(3) 0.61786(17) 0.7472(2)
H1_4 H 0.0736 0.6346 0.7229
C4_4 C 0.2263(3) 0.65480(19) 0.8230(2)
C5_4 C 0.3606(4) 0.6298(2) 0.8570(3)
H2_4 H 0.4057 0.6541 0.9068
C6_4 C 0.4275(4) 0.5690(3) 0.8173(3)
H3_4 H 0.5174 0.5531 0.8401
C7_4 C 0.3600(4) 0.5318(2) 0.7434(3)
H4_4 H 0.4038 0.4903 0.7179
C8_4 C 0.1494(3) 0.71709(18) 0.8675(2)
C9_4 C 0.0581(4) 0.76487(19) 0.8191(2)
H5_4 H 0.0464 0.7604 0.7562
C12_4 C 0.1631(4) 0.7287(2) 0.9605(2)
H8_4 H 0.2246 0.6982 0.9963
C13_4 C 0.2800(3) 0.31549(18) 0.3960(2)
C14_4 C 0.3751(3) 0.26642(17) 0.3416(2)
C15_4 C 0.3351(3) 0.2487(2) 0.2528(2)
H9_4 H 0.2529 0.2704 0.2255
C16_4 C 0.4152(4) 0.1995(2) 0.2040(2)
H10_4 H 0.3855 0.1883 0.1442
C17_4 C 0.5390(3) 0.16637(18) 0.2418(2)
C18_4 C 0.5819(4) 0.1868(2) 0.3293(3)
H11_4 H 0.6666 0.1671 0.3559
C19_4 C 0.5001(4) 0.2364(3) 0.3784(3)
H12_4 H 0.5312 0.2494 0.4374
C20_4 C 0.6205(3) 0.11011(17) 0.1902(2)
C21_4 C 0.5914(3) 0.09991(18) 0.0972(2)
H13_4 H 0.5247 0.1305 0.0656
C22_4 C 0.6626(3) 0.04406(18) 0.0526(2)
C23_4 C 0.7891(3) 0.00828(18) 0.1822(2)
C24_4 C 0.7231(3) 0.06236(18) 0.2321(2)
H16_4 H 0.7468 0.0671 0.2940
N2_4 N 0.7608(3) 0.99803(14) 0.09213(17)
H15_4 H 0.8568 0.9771 0.2119
N1_4 N 0.9934(3) 0.82998(15) 0.95332(17)
C10_4 C 0.9835(4) 0.81963(18) 0.8639(2)
H6_4 H 0.9226 0.8513 0.8293
H14_3 H 0.3593 0.9620 0.0093
H14_4 H 0.6407 0.0380 0.9907
loop_
_geom_bond_atom_site_label_1
_geom_bond_atom_site_label_2
_geom_bond_site_symmetry_1
_geom_bond_site_symmetry_2
O1 C1 1_555 1_555
C2 C1 1_555 1_555
C3 C2 1_555 1_555
H1 C3 1_555 1_555
C4 C3 1_555 1_555
C5 C4 1_555 1_555
H2 C5 1_555 1_555
C6 C5 1_555 1_555
H3 C6 1_555 1_555
C7 C2 1_555 1_555
C8 C4 1_555 1_555
C9 C8 1_555 1_555
H5 C9 1_555 1_555
H7 C11 1_555 1_555
C12 C8 1_555 1_555
H8 C12 1_555 1_555
C6 C7 1_555 1_555
C11 C12 1_555 1_555
Zn1 N1 1_555 1_555
N1 C10 1_555 1_555
H6 C10 1_555 1_555
O3 C13 1_555 1_555
N2 Zn1 1_555 1_555
C13 O4 1_555 1_555
O4 Zn3 1_555 1_555
C14 C13 1_555 1_555
C15 C14 1_555 1_555
H9 C15 1_555 1_555
C16 C15 1_555 1_555
H10 C16 1_555 1_555
C17 C16 1_555 1_555
C18 C17 1_555 1_555
H11 C18 1_555 1_555
C19 C14 1_555 1_555
H12 C19 1_555 1_555
C20 C17 1_555 1_555
C21 C20 1_555 1_555
H13 C21 1_555 1_555
C22 N2 1_555 1_555
H14 C22 1_555 1_555
C23 N2 1_555 1_555
H15 C23 1_555 1_555
C24 C20 1_555 1_555
H16 C24 1_555 1_555
Zn3 O3 1_555 1_555
O6 Zn1 1_555 1_555
O7 Zn1 1_555 1_555
O8 Zn1 1_555 1_555
C18 C19 1_555 1_555
C21 C22 1_555 1_555
C23 C24 1_555 1_555
N1_2 C10_2 1_555 1_555
H6_2 C10_2 1_555 1_555
N2_2 Zn3 1_555 1_555
O7 C13_2 1_555 1_555
C13_2 O8 1_555 1_555
C14_2 C13_2 1_555 1_555
C15_2 C14_2 1_555 1_555
H9_2 C15_2 1_555 1_555
C16_2 C15_2 1_555 1_555
H10_2 C16_2 1_555 1_555
C17_2 C16_2 1_555 1_555
C18_2 C17_2 1_555 1_555
H11_2 C18_2 1_555 1_555
C19_2 C14_2 1_555 1_555
H12_2 C19_2 1_555 1_555
C20_2 C17_2 1_555 1_555
C21_2 C20_2 1_555 1_555
H13_2 C21_2 1_555 1_555
C24_2 C20_2 1_555 1_555
H16_2 C24_2 1_555 1_555
C18_2 C19_2 1_555 1_555
C21_2 C22_2 1_555 1_555
C23_2 C24_2 1_555 1_555
O1_2 C1_2 1_555 1_555
C1_2 O6 1_555 1_555
C2_2 C1_2 1_555 1_555
C3_2 C2_2 1_555 1_555
H1_2 C3_2 1_555 1_555
C4_2 C3_2 1_555 1_555
C5_2 C4_2 1_555 1_555
H2_2 C5_2 1_555 1_555
C6_2 C5_2 1_555 1_555
H3_2 C6_2 1_555 1_555
C7_2 C2_2 1_555 1_555
H4_2 C7_2 1_555 1_555
C8_2 C4_2 1_555 1_555
C9_2 C8_2 1_555 1_555
H5_2 C9_2 1_555 1_555
C12_2 C8_2 1_555 1_555
H8_2 C12_2 1_555 1_555
C6_2 C7_2 1_555 1_555
H7_2 C11_2 1_555 1_555
Zn4_2 N1_3 1_555 1_555
N1_3 C10_3 1_555 1_555
H6_3 C10_3 1_555 1_555
O3_2 C13_3 1_555 1_555
N2_3 Zn4_2 1_555 1_555
C13_3 O4_2 1_555 1_555
O4_2 Zn4 1_555 1_555
C14_3 C13_3 1_555 1_555
C15_3 C14_3 1_555 1_555
H9_3 C15_3 1_555 1_555
C16_3 C15_3 1_555 1_555
H10_3 C16_3 1_555 1_555
C17_3 C16_3 1_555 1_555
C18_3 C17_3 1_555 1_555
H11_3 C18_3 1_555 1_555
C19_3 C14_3 1_555 1_555
H12_3 C19_3 1_555 1_555
C20_3 C17_3 1_555 1_555
C21_3 C20_3 1_555 1_555
H13_3 C21_3 1_555 1_555
C22_3 N2_3 1_555 1_555
H14_2 C22_3 1_555 1_555
C23_3 N2_3 1_555 1_555
H15_3 C23_3 1_555 1_555
C24_3 C20_3 1_555 1_555
H16_3 C24_3 1_555 1_555
Zn4 O3_2 1_555 1_555
O6_2 Zn4_2 1_555 1_555
O7_2 Zn4_2 1_555 1_555
O8_2 Zn4_2 1_555 1_555
C18_3 C19_3 1_555 1_555
C21_3 C22_3 1_555 1_555
C23_3 C24_3 1_555 1_555
O5_2 C1_3 1_555 1_555
C2_3 C1_3 1_555 1_555
C3_3 C2_3 1_555 1_555
H1_3 C3_3 1_555 1_555
C4_3 C3_3 1_555 1_555
C5_3 C4_3 1_555 1_555
H2_3 C5_3 1_555 1_555
C6_3 C5_3 1_555 1_555
H3_3 C6_3 1_555 1_555
C7_3 C2_3 1_555 1_555
C8_3 C4_3 1_555 1_555
C9_3 C8_3 1_555 1_555
H5_3 C9_3 1_555 1_555
H7_3 C11_3 1_555 1_555
C12_3 C8_3 1_555 1_555
H8_3 C12_3 1_555 1_555
C6_3 C7_3 1_555 1_555
C11_3 C12_3 1_555 1_555
H7_4 C11_4 1_555 1_555
O5 C1_4 1_555 1_555
C1_4 O6_2 1_555 1_555
C2_4 C1_4 1_555 1_555
C3_4 C2_4 1_555 1_555
H1_4 C3_4 1_555 1_555
C4_4 C3_4 1_555 1_555
C5_4 C4_4 1_555 1_555
H2_4 C5_4 1_555 1_555
C6_4 C5_4 1_555 1_555
H3_4 C6_4 1_555 1_555
C7_4 C2_4 1_555 1_555
H4_4 C7_4 1_555 1_555
C8_4 C4_4 1_555 1_555
C9_4 C8_4 1_555 1_555
H5_4 C9_4 1_555 1_555
C12_4 C8_4 1_555 1_555
H8_4 C12_4 1_555 1_555
C6_4 C7_4 1_555 1_555
O7_2 C13_4 1_555 1_555
C13_4 O8_2 1_555 1_555
C14_4 C13_4 1_555 1_555
C15_4 C14_4 1_555 1_555
H9_4 C15_4 1_555 1_555
C16_4 C15_4 1_555 1_555
H10_4 C16_4 1_555 1_555
C17_4 C16_4 1_555 1_555
C18_4 C17_4 1_555 1_555
H11_4 C18_4 1_555 1_555
C19_4 C14_4 1_555 1_555
H12_4 C19_4 1_555 1_555
C20_4 C17_4 1_555 1_555
C21_4 C20_4 1_555 1_555
H13_4 C21_4 1_555 1_555
C24_4 C20_4 1_555 1_555
H16_4 C24_4 1_555 1_555
C18_4 C19_4 1_555 1_555
C21_4 C22_4 1_555 1_555
C23_4 C24_4 1_555 1_555
N2_4 Zn4 1_555 1_555
N1_4 C10_4 1_555 1_555
H6_4 C10_4 1_555 1_555

#END
