
###############################################################################
#
# This file contains modified crystal structure data generated from the
# MOF subset of the Cambridge Structural Database (CSD) v543 
# hosted by the Cambridge Crystallographic Data Centre (CCDC).
#
# This work is licensed under the Creative Commons
# Attribution-NonCommercial-ShareAlike 4.0 International License.
# To view a copy of this license, visit
# http://creativecommons.org/licenses/by-nc-sa/4.0/
# or send a letter to
# Creative Commons, PO Box 1866, Mountain View, CA 94042, USA.
#
# CIF created using the CSD Python API on 29 September 2022
# The structure has been converted into the P1 space group
# The structure has a 3D framework
# The original CSD entry NABKEK is in the monoclinic crystal system
# The framework has been calculated to contain at least 10.0% void space
# The void calculation uses a probe of radius 1.32A, grid spacing 0.4
#
###############################################################################

data_NABKEK
_chemical_formula_moiety         '(C96 H64 Co4 N8 O14)n'
_symmetry_cell_setting           triclinic
_symmetry_space_group_name_H-M   'P 1'
_symmetry_Int_Tables_number      1
_space_group_name_Hall           'P 1'
loop_
_symmetry_equiv_pos_site_id
_symmetry_equiv_pos_as_xyz
1 x,y,z
_cell_length_a                   10.5973(11)
_cell_length_b                   15.3082(15)
_cell_length_c                   14.8848(15)
_cell_angle_alpha                90
_cell_angle_beta                 99.964(2)
_cell_angle_gamma                90
_cell_volume                     2378.27
loop_
_atom_site_label
_atom_site_type_symbol
_atom_site_fract_x
_atom_site_fract_y
_atom_site_fract_z
O2 O 0.71438(16) 0.02649(11) 0.58351(11)
Co3 Co 0.63359(3) 0.07759(2) 0.45952(2)
Co1 Co 0.36641(3) 0.57759(2) 0.04048(2)
C11 C 0.5845(3) 0.70771(19) 0.02377(18)
H7 H 0.6108 0.6950 0.0852
H8 H 0.7340 0.7862 0.0163
N2 N 0.26069(19) 0.48039(14) 0.10159(14)
C17 C 0.0158(2) 0.32988(18) 0.24430(17)
C18 C 0.0280(3) 0.3349(2) 0.33904(19)
H11 H 0.0913 0.3703 0.3716
C20 C 0.1021(2) 0.37950(17) 0.19461(17)
C21 C 0.0651(2) 0.40186(19) 0.10293(17)
C22 C 0.1463(2) 0.45095(19) 0.05998(17)
C23 C 0.2973(3) 0.4568(2) 0.18916(18)
H15 H 0.3774 0.4749 0.2192
C24 C 0.2229(3) 0.4074(2) 0.23677(18)
H16 H 0.2533 0.3926 0.2972
O5 O 0.52693(15) 0.52226(11) 0.10935(11)
O7 O 0.34074(16) 0.65757(12) 0.15603(11)
O8 O 0.20281(17) 0.66946(13) 0.02873(11)
O1 O 0.52693(15) 0.97774(11) 0.60935(11)
N1 N 0.4761(2) 0.67111(14) 0.98058(14)
C1 C 0.6466(2) 0.98464(16) 0.63018(15)
C2 C 0.7123(2) 0.94155(16) 0.71625(16)
C3 C 0.6423(2) 0.88795(16) 0.76439(16)
H1 H 0.5547 0.8815 0.7441
C4 C 0.7000(2) 0.84357(18) 0.84248(17)
C5 C 0.8314(3) 0.8561(2) 0.8718(2)
H2 H 0.8724 0.8274 0.9239
C6 C 0.9014(3) 0.9101(2) 0.8248(2)
H3 H 0.9885 0.9180 0.8458
C7 C 0.8429(3) 0.9528(2) 0.74659(19)
H4 H 0.8905 0.9887 0.7147
C8 C 0.6237(2) 0.78435(17) 0.89093(17)
C9 C 0.5108(2) 0.74664(18) 0.84585(17)
H5 H 0.4820 0.7587 0.7845
C10 C 0.4420(3) 0.69170(18) 0.89200(17)
H6 H 0.3672 0.6672 0.8600
C12 C 0.6593(3) 0.7630(2) 0.98271(18)
H14 H 0.1201 0.4644 0.9987
Co4 Co 0.36641(3) 0.92241(2) 0.54048(2)
O6 O 0.28562(16) 0.52649(11) 0.91649(11)
O3 O 0.65926(16) 0.15757(12) 0.34397(11)
C13 C 0.7639(2) 0.18560(17) 0.38766(16)
O4 O 0.79719(17) 0.16946(13) 0.47127(11)
C14 C 0.8512(2) 0.23673(17) 0.33848(17)
C15 C 0.8359(2) 0.23293(19) 0.24418(17)
H9 H 0.7706 0.1991 0.2118
C16 C 0.9166(3) 0.2789(2) 0.19760(18)
H10 H 0.9046 0.2757 0.1343
C19 C 0.9476(3) 0.2882(2) 0.38529(19)
H12 H 0.9585 0.2916 0.4485
H13 H 0.9862 0.3838 0.0710
C13_2 C 0.2361(2) 0.68560(17) 0.11234(16)
C14_2 C 0.1488(2) 0.73673(17) 0.16152(17)
C15_2 C 0.1641(2) 0.73293(19) 0.25582(17)
H9_2 H 0.2294 0.6991 0.2882
C16_2 C 0.0834(3) 0.7789(2) 0.30240(18)
H10_2 H 0.0954 0.7757 0.3657
C19_2 C 0.0524(3) 0.7882(2) 0.11471(19)
H12_2 H 0.0415 0.7916 0.0515
H13_2 H 0.0138 0.8838 0.4290
O1_2 O 0.47307(15) 0.47774(11) 0.89065(11)
N1_2 N 0.5239(2) 0.17111(14) 0.51942(14)
C1_2 C 0.3534(2) 0.48464(16) 0.86982(15)
C2_2 C 0.2877(2) 0.44155(16) 0.78375(16)
C3_2 C 0.3577(2) 0.38795(16) 0.73561(16)
H1_2 H 0.4453 0.3815 0.7559
C4_2 C 0.3000(2) 0.34357(18) 0.65752(17)
C5_2 C 0.1686(3) 0.3561(2) 0.6282(2)
H2_2 H 0.1276 0.3274 0.5761
C6_2 C 0.0986(3) 0.4101(2) 0.6752(2)
H3_2 H 0.0115 0.4180 0.6542
C7_2 C 0.1571(3) 0.4528(2) 0.75341(19)
H4_2 H 0.1095 0.4887 0.7853
C8_2 C 0.3763(2) 0.28435(17) 0.60907(17)
C9_2 C 0.4892(2) 0.24664(18) 0.65415(17)
H5_2 H 0.5180 0.2587 0.7155
C10_2 C 0.5580(3) 0.19170(18) 0.60800(17)
H6_2 H 0.6328 0.1672 0.6400
C11_2 C 0.4155(3) 0.20771(19) 0.47623(18)
H7_2 H 0.3892 0.1950 0.4148
C12_2 C 0.3407(3) 0.2630(2) 0.51729(18)
H8_2 H 0.2660 0.2862 0.4837
Co4_2 Co 0.63359(3) 0.42241(2) 0.95952(2)
O5_2 O 0.47307(15) 0.02226(11) 0.39065(11)
O3_2 O 0.34074(16) 0.84243(12) 0.65603(11)
C13_3 C 0.2361(2) 0.81440(17) 0.61234(16)
O4_2 O 0.20281(17) 0.83054(13) 0.52873(11)
C14_3 C 0.1488(2) 0.76327(17) 0.66152(17)
C15_3 C 0.1641(2) 0.76707(19) 0.75582(17)
H9_3 H 0.2294 0.8009 0.7882
C16_3 C 0.0834(3) 0.7211(2) 0.80240(18)
H10_3 H 0.0954 0.7243 0.8657
C19_3 C 0.0524(3) 0.7118(2) 0.61471(19)
H12_3 H 0.0415 0.7084 0.5515
H13_3 H 0.0138 0.6162 0.9290
N1_3 N 0.5239(2) 0.32889(14) 0.01942(14)
C1_3 C 0.3534(2) 0.01536(16) 0.36982(15)
C2_3 C 0.2877(2) 0.05845(16) 0.28375(16)
C3_3 C 0.3577(2) 0.11205(16) 0.23561(16)
H1_3 H 0.4453 0.1185 0.2559
C4_3 C 0.3000(2) 0.15643(18) 0.15752(17)
C5_3 C 0.1686(3) 0.1439(2) 0.1282(2)
H2_3 H 0.1276 0.1726 0.0761
C6_3 C 0.0986(3) 0.0899(2) 0.1752(2)
H3_3 H 0.0115 0.0820 0.1542
C7_3 C 0.1571(3) 0.0472(2) 0.25341(19)
H4_3 H 0.1095 0.0113 0.2853
C8_3 C 0.3763(2) 0.21565(17) 0.10907(17)
C9_3 C 0.4892(2) 0.25336(18) 0.15415(17)
H5_3 H 0.5180 0.2413 0.2155
C10_3 C 0.5580(3) 0.30830(18) 0.10800(17)
H6_3 H 0.6328 0.3328 0.1400
C12_3 C 0.3407(3) 0.2370(2) 0.01729(18)
H14_2 H 0.8799 0.5356 0.0013
O6_2 O 0.71438(16) 0.47351(11) 0.08351(11)
C11_3 C 0.4155(3) 0.29229(19) 0.97623(18)
H7_3 H 0.3892 0.3050 0.9148
H8_3 H 0.2660 0.2138 0.9837
N2_2 N 0.73931(19) 0.51961(14) 0.89841(14)
C17_2 C 0.9842(2) 0.67012(18) 0.75570(17)
C18_2 C 0.9720(3) 0.6651(2) 0.66096(19)
H11_2 H 0.9087 0.6297 0.6284
C20_2 C 0.8979(2) 0.62050(17) 0.80539(17)
C21_2 C 0.9349(2) 0.59814(19) 0.89707(17)
C22_2 C 0.8537(2) 0.54905(19) 0.94002(17)
C23_2 C 0.7027(3) 0.5432(2) 0.81084(18)
H15_2 H 0.6226 0.5251 0.7808
C24_2 C 0.7771(3) 0.5926(2) 0.76323(18)
H16_2 H 0.7467 0.6074 0.7028
O7_2 O 0.65926(16) 0.34243(12) 0.84397(11)
O8_2 O 0.79719(17) 0.33054(13) 0.97127(11)
O2_2 O 0.28562(16) 0.97351(11) 0.41649(11)
N1_4 N 0.4761(2) 0.82889(14) 0.48058(14)
C1_4 C 0.6466(2) 0.51536(16) 0.13018(15)
C2_4 C 0.7123(2) 0.55845(16) 0.21625(16)
C3_4 C 0.6423(2) 0.61205(16) 0.26439(16)
H1_4 H 0.5547 0.6185 0.2441
C4_4 C 0.7000(2) 0.65643(18) 0.34248(17)
C5_4 C 0.8314(3) 0.6439(2) 0.3718(2)
H2_4 H 0.8724 0.6726 0.4239
C6_4 C 0.9014(3) 0.5899(2) 0.3248(2)
H3_4 H 0.9885 0.5820 0.3458
C7_4 C 0.8429(3) 0.5472(2) 0.24659(19)
H4_4 H 0.8905 0.5113 0.2147
C8_4 C 0.6237(2) 0.71565(17) 0.39093(17)
C9_4 C 0.5108(2) 0.75336(18) 0.34585(17)
H5_4 H 0.4820 0.7413 0.2845
C10_4 C 0.4420(3) 0.80830(18) 0.39200(17)
H6_4 H 0.3672 0.8328 0.3600
C11_4 C 0.5845(3) 0.79229(19) 0.52377(18)
H7_4 H 0.6108 0.8050 0.5852
C12_4 C 0.6593(3) 0.7370(2) 0.48271(18)
H8_4 H 0.7340 0.7138 0.5163
C13_4 C 0.7639(2) 0.31440(17) 0.88766(16)
C14_4 C 0.8512(2) 0.26327(17) 0.83848(17)
C15_4 C 0.8359(2) 0.26707(19) 0.74418(17)
H9_4 H 0.7706 0.3009 0.7118
C16_4 C 0.9166(3) 0.2211(2) 0.69760(18)
H10_4 H 0.9046 0.2243 0.6343
C19_4 C 0.9476(3) 0.2118(2) 0.88529(19)
H12_4 H 0.9585 0.2084 0.9485
H13_4 H 0.9862 0.1162 0.5710
N2_3 N 0.73931(19) 0.98039(14) 0.39841(14)
C17_3 C 0.9842(2) 0.82988(18) 0.25570(17)
C18_3 C 0.9720(3) 0.8349(2) 0.16096(19)
H11_3 H 0.9087 0.8703 0.1284
C20_3 C 0.8979(2) 0.87950(17) 0.30539(17)
C21_3 C 0.9349(2) 0.90186(19) 0.39707(17)
C22_3 C 0.8537(2) 0.95095(19) 0.44002(17)
H14_3 H 0.8799 0.9644 0.5013
C23_3 C 0.7027(3) 0.9568(2) 0.31084(18)
H15_3 H 0.6226 0.9749 0.2808
C24_3 C 0.7771(3) 0.9074(2) 0.26323(18)
H16_3 H 0.7467 0.8926 0.2028
N2_4 N 0.26069(19) 0.01961(14) 0.60159(14)
C17_4 C 0.0158(2) 0.17012(18) 0.74430(17)
C18_4 C 0.0280(3) 0.1651(2) 0.83904(19)
H11_4 H 0.0913 0.1297 0.8716
C20_4 C 0.1021(2) 0.12050(17) 0.69461(17)
C21_4 C 0.0651(2) 0.09814(19) 0.60293(17)
C22_4 C 0.1463(2) 0.04905(19) 0.55998(17)
H14_4 H 0.1201 0.0356 0.4987
C23_4 C 0.2973(3) 0.0432(2) 0.68916(18)
H15_4 H 0.3774 0.0251 0.7192
C24_4 C 0.2229(3) 0.0926(2) 0.73677(18)
H16_4 H 0.2533 0.1074 0.7972
loop_
_geom_bond_atom_site_label_1
_geom_bond_atom_site_label_2
_geom_bond_site_symmetry_1
_geom_bond_site_symmetry_2
O2 Co3 1_555 1_555
H7 C11 1_555 1_555
N2 Co1 1_555 1_555
C18 C17 1_555 1_555
H11 C18 1_555 1_555
C20 C17 1_555 1_555
C21 C20 1_555 1_555
C22 N2 1_555 1_555
C23 N2 1_555 1_555
H15 C23 1_555 1_555
C24 C20 1_555 1_555
H16 C24 1_555 1_555
O5 Co1 1_555 1_555
O7 Co1 1_555 1_555
O8 Co1 1_555 1_555
C21 C22 1_555 1_555
C23 C24 1_555 1_555
O1 C1 1_555 1_555
N1 C10 1_555 1_555
C2 C1 1_555 1_555
C3 C2 1_555 1_555
H1 C3 1_555 1_555
C4 C3 1_555 1_555
C5 C4 1_555 1_555
H2 C5 1_555 1_555
C6 C5 1_555 1_555
H3 C6 1_555 1_555
C7 C2 1_555 1_555
H4 C7 1_555 1_555
C8 C4 1_555 1_555
C9 C8 1_555 1_555
H5 C9 1_555 1_555
C10 C9 1_555 1_555
H6 C10 1_555 1_555
C12 C8 1_555 1_555
Co4 O1 1_555 1_555
C6 C7 1_555 1_555
O3 C13 1_555 1_555
C13 O4 1_555 1_555
O4 Co3 1_555 1_555
C14 C13 1_555 1_555
C15 C14 1_555 1_555
H9 C15 1_555 1_555
C16 C15 1_555 1_555
H10 C16 1_555 1_555
C19 C14 1_555 1_555
H12 C19 1_555 1_555
Co3 O3 1_555 1_555
O7 C13_2 1_555 1_555
C13_2 O8 1_555 1_555
C14_2 C13_2 1_555 1_555
C15_2 C14_2 1_555 1_555
H9_2 C15_2 1_555 1_555
C16_2 C15_2 1_555 1_555
H10_2 C16_2 1_555 1_555
C19_2 C14_2 1_555 1_555
H12_2 C19_2 1_555 1_555
Co3 N1_2 1_555 1_555
O1_2 C1_2 1_555 1_555
N1_2 C10_2 1_555 1_555
C1_2 O6 1_555 1_555
C2_2 C1_2 1_555 1_555
C3_2 C2_2 1_555 1_555
H1_2 C3_2 1_555 1_555
C4_2 C3_2 1_555 1_555
C5_2 C4_2 1_555 1_555
H2_2 C5_2 1_555 1_555
C6_2 C5_2 1_555 1_555
H3_2 C6_2 1_555 1_555
C7_2 C2_2 1_555 1_555
H4_2 C7_2 1_555 1_555
C8_2 C4_2 1_555 1_555
C9_2 C8_2 1_555 1_555
H5_2 C9_2 1_555 1_555
C10_2 C9_2 1_555 1_555
H6_2 C10_2 1_555 1_555
C11_2 N1_2 1_555 1_555
H7_2 C11_2 1_555 1_555
C12_2 C8_2 1_555 1_555
H8_2 C12_2 1_555 1_555
Co4_2 O1_2 1_555 1_555
O5_2 Co3 1_555 1_555
C6_2 C7_2 1_555 1_555
C11_2 C12_2 1_555 1_555
O3_2 C13_3 1_555 1_555
C13_3 O4_2 1_555 1_555
O4_2 Co4 1_555 1_555
C14_3 C13_3 1_555 1_555
C15_3 C14_3 1_555 1_555
H9_3 C15_3 1_555 1_555
C16_3 C15_3 1_555 1_555
H10_3 C16_3 1_555 1_555
C19_3 C14_3 1_555 1_555
H12_3 C19_3 1_555 1_555
Co4 O3_2 1_555 1_555
O5_2 C1_3 1_555 1_555
N1_3 C10_3 1_555 1_555
C2_3 C1_3 1_555 1_555
C3_3 C2_3 1_555 1_555
H1_3 C3_3 1_555 1_555
C4_3 C3_3 1_555 1_555
C5_3 C4_3 1_555 1_555
H2_3 C5_3 1_555 1_555
C6_3 C5_3 1_555 1_555
H3_3 C6_3 1_555 1_555
C7_3 C2_3 1_555 1_555
H4_3 C7_3 1_555 1_555
C8_3 C4_3 1_555 1_555
C9_3 C8_3 1_555 1_555
H5_3 C9_3 1_555 1_555
C10_3 C9_3 1_555 1_555
H6_3 C10_3 1_555 1_555
C12_3 C8_3 1_555 1_555
C6_3 C7_3 1_555 1_555
H7_3 C11_3 1_555 1_555
N2_2 Co4_2 1_555 1_555
C18_2 C17_2 1_555 1_555
H11_2 C18_2 1_555 1_555
C20_2 C17_2 1_555 1_555
C21_2 C20_2 1_555 1_555
C22_2 N2_2 1_555 1_555
C23_2 N2_2 1_555 1_555
H15_2 C23_2 1_555 1_555
C24_2 C20_2 1_555 1_555
H16_2 C24_2 1_555 1_555
O7_2 Co4_2 1_555 1_555
O8_2 Co4_2 1_555 1_555
C21_2 C22_2 1_555 1_555
C23_2 C24_2 1_555 1_555
O2_2 Co4 1_555 1_555
Co4 N1_4 1_555 1_555
O5 C1_4 1_555 1_555
N1_4 C10_4 1_555 1_555
C1_4 O6_2 1_555 1_555
C2_4 C1_4 1_555 1_555
C3_4 C2_4 1_555 1_555
H1_4 C3_4 1_555 1_555
C4_4 C3_4 1_555 1_555
C5_4 C4_4 1_555 1_555
H2_4 C5_4 1_555 1_555
C6_4 C5_4 1_555 1_555
H3_4 C6_4 1_555 1_555
C7_4 C2_4 1_555 1_555
H4_4 C7_4 1_555 1_555
C8_4 C4_4 1_555 1_555
C9_4 C8_4 1_555 1_555
H5_4 C9_4 1_555 1_555
C10_4 C9_4 1_555 1_555
H6_4 C10_4 1_555 1_555
C11_4 N1_4 1_555 1_555
H7_4 C11_4 1_555 1_555
C12_4 C8_4 1_555 1_555
H8_4 C12_4 1_555 1_555
C6_4 C7_4 1_555 1_555
C11_4 C12_4 1_555 1_555
O7_2 C13_4 1_555 1_555
C13_4 O8_2 1_555 1_555
C14_4 C13_4 1_555 1_555
C15_4 C14_4 1_555 1_555
H9_4 C15_4 1_555 1_555
C16_4 C15_4 1_555 1_555
H10_4 C16_4 1_555 1_555
C19_4 C14_4 1_555 1_555
H12_4 C19_4 1_555 1_555
C18_3 C17_3 1_555 1_555
H11_3 C18_3 1_555 1_555
C20_3 C17_3 1_555 1_555
C21_3 C20_3 1_555 1_555
C22_3 N2_3 1_555 1_555
H14_3 C22_3 1_555 1_555
C23_3 N2_3 1_555 1_555
H15_3 C23_3 1_555 1_555
C24_3 C20_3 1_555 1_555
H16_3 C24_3 1_555 1_555
C21_3 C22_3 1_555 1_555
C23_3 C24_3 1_555 1_555
C18_4 C17_4 1_555 1_555
H11_4 C18_4 1_555 1_555
C20_4 C17_4 1_555 1_555
C21_4 C20_4 1_555 1_555
C22_4 N2_4 1_555 1_555
H14_4 C22_4 1_555 1_555
C23_4 N2_4 1_555 1_555
H15_4 C23_4 1_555 1_555
C24_4 C20_4 1_555 1_555
H16_4 C24_4 1_555 1_555
C21_4 C22_4 1_555 1_555
C23_4 C24_4 1_555 1_555

#END
