
###############################################################################
#
# This file contains modified crystal structure data generated from the
# MOF subset of the Cambridge Structural Database (CSD) v543 
# hosted by the Cambridge Crystallographic Data Centre (CCDC).
#
# This work is licensed under the Creative Commons
# Attribution-NonCommercial-ShareAlike 4.0 International License.
# To view a copy of this license, visit
# http://creativecommons.org/licenses/by-nc-sa/4.0/
# or send a letter to
# Creative Commons, PO Box 1866, Mountain View, CA 94042, USA.
#
# CIF created using the CSD Python API on 29 September 2022
# The structure has been converted into the P1 space group
# The structure has a 3D framework
# The original CSD entry NABMOV is in the tetragonal crystal system
# The framework has been calculated to contain at least 10.0% void space
# The void calculation uses a probe of radius 1.32A, grid spacing 0.4
#
###############################################################################

data_NABMOV
_chemical_formula_moiety         '(C128 H96 Cu16 N32 S24 W4)n'
_symmetry_cell_setting           triclinic
_symmetry_space_group_name_H-M   'P 1'
_symmetry_Int_Tables_number      1
_space_group_name_Hall           'P 1'
loop_
_symmetry_equiv_pos_site_id
_symmetry_equiv_pos_as_xyz
1 x,y,z
_cell_length_a                   17.927(2)
_cell_length_b                   17.927(2)
_cell_length_c                   13.308(3)
_cell_angle_alpha                90
_cell_angle_beta                 90
_cell_angle_gamma                90
_cell_volume                     4276.89
loop_
_atom_site_label
_atom_site_type_symbol
_atom_site_fract_x
_atom_site_fract_y
_atom_site_fract_z
W1 W 0.2500 0.2500 0.7500
Cu1 Cu 0.24114(5) 0.10052(5) 0.73848(7)
S1 S 0.32123(9) 0.17812(10) 0.65296(13)
N1 N 0.1576(4) 0.0617(3) 0.6366(5)
N2 N 0.2772(4) 0.0064(4) 0.7931(6)
C1 C 0.1188(5) 0.1062(4) 0.5788(6)
H1 H 0.1337 0.1558 0.5746
C2 C 0.0571(5) 0.0846(4) 0.5236(6)
H2 H 0.0323 0.1188 0.4831
C3 C 0.0331(5) 0.0126(4) 0.5292(7)
Cu2 Cu 0.25886(5) 0.39948(5) 0.73848(7)
S3 S 0.17877(9) 0.32188(10) 0.65296(13)
S4 S 0.1744(3) 0.6219(2) 0.8822(4)
N4 N 0.3424(4) 0.4383(3) 0.6366(5)
N5 N 0.2228(4) 0.4936(4) 0.7931(6)
C12 C 0.3812(5) 0.3938(4) 0.5788(6)
H9 H 0.3663 0.3442 0.5746
C13 C 0.4429(5) 0.4154(4) 0.5236(6)
H10 H 0.4677 0.3812 0.4831
C14 C 0.4669(5) 0.4874(4) 0.5292(7)
C15 C 0.4247(8) 0.5344(5) 0.5885(10)
H11 H 0.4371 0.5847 0.5930
C16 C 0.3651(7) 0.5076(5) 0.6402(10)
H12 H 0.3387 0.5406 0.6808
C17 C 0.2023(5) 0.5469(5) 0.8299(8)
N6 N 0.6576(4) 0.5617(3) 0.3634(5)
C18 C 0.6188(5) 0.6062(4) 0.4212(6)
H13 H 0.6337 0.6558 0.4254
C19 C 0.5571(5) 0.5846(4) 0.4764(6)
H14 H 0.5323 0.6188 0.5169
C20 C 0.5331(5) 0.5126(4) 0.4708(7)
C21 C 0.5753(8) 0.4656(5) 0.4115(10)
H15 H 0.5629 0.4153 0.4070
C22 C 0.6349(7) 0.4924(5) 0.3598(10)
H16 H 0.6613 0.4594 0.3192
Cu3 Cu 0.10052(5) 0.25886(5) 0.76152(7)
S5 S 0.17812(10) 0.17877(9) 0.84704(13)
N7 N 0.0064(4) 0.2228(4) 0.7069(6)
Cu4 Cu 0.39948(5) 0.24114(5) 0.76152(7)
S7 S 0.32188(10) 0.32123(9) 0.84704(13)
S8 S 0.6219(2) 0.3256(3) 0.6178(4)
N8 N 0.4936(4) 0.2772(4) 0.7069(6)
C24 C 0.5469(5) 0.2977(5) 0.6701(8)
Cu6 Cu 0.74114(5) 0.60052(5) 0.26152(7)
N9 N 0.0617(3) 0.3424(4) 0.8634(5)
N10 N 0.4383(3) 0.1576(4) 0.8634(5)
N3 N 0.8424(4) 0.9383(3) 0.3634(5)
C7 C 0.8812(5) 0.8938(4) 0.4212(6)
H5 H 0.8663 0.8442 0.4254
C8 C 0.9429(5) 0.9154(4) 0.4764(6)
H6 H 0.9677 0.8812 0.5169
C9 C 0.9669(5) 0.9874(4) 0.4708(7)
Cu5 Cu 0.75886(5) 0.89948(5) 0.26152(7)
C7_2 C 0.1062(4) 0.3812(5) 0.9212(6)
H5_2 H 0.1558 0.3663 0.9254
C8_2 C 0.0846(4) 0.4429(5) 0.9764(6)
C9_2 C 0.0126(4) 0.4669(5) 0.9708(7)
C18_2 C 0.3938(4) 0.1188(5) 0.9212(6)
H13_2 H 0.3442 0.1337 0.9254
C19_2 C 0.4154(4) 0.0571(5) 0.9764(6)
C20_2 C 0.4874(4) 0.0331(5) 0.9708(7)
C21_2 C 0.5344(5) 0.0753(8) 0.9115(10)
H15_2 H 0.5847 0.0629 0.9070
C22_2 C 0.5076(5) 0.1349(7) 0.8598(10)
H16_2 H 0.5406 0.1613 0.8192
W1_2 W 0.7500 0.7500 0.2500
Cu1_2 Cu 0.89948(5) 0.74114(5) 0.23848(7)
S1_2 S 0.82188(10) 0.82123(9) 0.15296(13)
N1_2 N 0.9383(3) 0.6576(4) 0.1366(5)
N2_2 N 0.9936(4) 0.7772(4) 0.2931(6)
C1_2 C 0.8938(4) 0.6188(5) 0.0788(6)
H1_2 H 0.8442 0.6337 0.0746
C2_2 C 0.9154(4) 0.5571(5) 0.0236(6)
C3_2 C 0.9874(4) 0.5331(5) 0.0292(7)
Cu2_2 Cu 0.60052(5) 0.75886(5) 0.23848(7)
S3_2 S 0.67812(10) 0.67877(9) 0.15296(13)
S4_2 S 0.3781(2) 0.6744(3) 0.3822(4)
N4_2 N 0.5617(3) 0.8424(4) 0.1366(5)
N5_2 N 0.5064(4) 0.7228(4) 0.2931(6)
C12_2 C 0.6062(4) 0.8812(5) 0.0788(6)
H9_2 H 0.6558 0.8663 0.0746
C13_2 C 0.5846(4) 0.9429(5) 0.0236(6)
C14_2 C 0.5126(4) 0.9669(5) 0.0292(7)
C15_2 C 0.4656(5) 0.9247(8) 0.0885(10)
H11_2 H 0.4153 0.9371 0.0930
C16_2 C 0.4924(5) 0.8651(7) 0.1402(10)
H12_2 H 0.4594 0.8387 0.1808
C17_2 C 0.4531(5) 0.7023(5) 0.3299(8)
S5_2 S 0.82123(9) 0.67812(10) 0.34704(13)
S6 S 0.8256(3) 0.3781(2) 0.1178(4)
N7_2 N 0.7772(4) 0.5064(4) 0.2069(6)
C23 C 0.7977(5) 0.4531(5) 0.1701(8)
S7_2 S 0.67877(9) 0.82188(10) 0.34704(13)
N8_2 N 0.7228(4) 0.9936(4) 0.2069(6)
S2 S 0.3256(3) 0.8781(2) 0.8822(4)
C4 C 0.0753(8) 0.9656(5) 0.5885(10)
H3 H 0.0629 0.9153 0.5930
C5 C 0.1349(7) 0.9924(5) 0.6402(10)
H4 H 0.1613 0.9594 0.6808
C6 C 0.2977(5) 0.9531(5) 0.8299(8)
C10 C 0.9247(8) 0.0344(5) 0.4115(10)
H7 H 0.9371 0.0847 0.4070
C11 C 0.8651(7) 0.0076(5) 0.3598(10)
H8 H 0.8387 0.0406 0.3192
S6_2 S 0.8781(2) 0.1744(3) 0.6178(4)
C23_2 C 0.9531(5) 0.2023(5) 0.6701(8)
S2_2 S 0.1219(2) 0.8256(3) 0.3822(4)
C4_2 C 0.0344(5) 0.5753(8) 0.0885(10)
H3_2 H 0.0847 0.5629 0.0930
C5_2 C 0.0076(5) 0.6349(7) 0.1402(10)
H4_2 H 0.0406 0.6613 0.1808
C6_2 C 0.0469(5) 0.7977(5) 0.3299(8)
H6_2 H 0.1188 0.4677 0.0169
H14_2 H 0.3812 0.0323 0.0169
S8_2 S 0.6744(3) 0.1219(2) 0.1178(4)
C24_2 C 0.7023(5) 0.0469(5) 0.1701(8)
H2_2 H 0.8812 0.5323 0.9831
C10_2 C 0.9656(5) 0.4247(8) 0.9115(10)
H7_2 H 0.9153 0.4371 0.9070
C11_2 C 0.9924(5) 0.3651(7) 0.8598(10)
H8_2 H 0.9594 0.3387 0.8192
H10_2 H 0.6188 0.9677 0.9831
W2 W 0.2500 0.2500 0.2500
Cu7 Cu 0.23162(5) 0.10163(4) 0.25023(5)
S9 S 0.16994(9) 0.18733(8) 0.34637(13)
N11 N 0.2892(3) 0.0324(3) 0.3473(4)
C28 C 0.3569(6) 0.0177(5) 0.4977(6)
H19 H 0.3709 0.0386 0.5588
C29 C 0.3089(5) 0.0555(4) 0.4356(6)
H20 H 0.2894 0.1005 0.4583
Cu8 Cu 0.26838(5) 0.39837(4) 0.25023(5)
S10 S 0.33006(9) 0.31267(8) 0.34637(13)
N13 N 0.2108(3) 0.4676(3) 0.3473(4)
C35 C 0.1899(6) 0.5354(5) 0.3233(7)
H25 H 0.2082 0.5562 0.2643
C36 C 0.1421(7) 0.5774(5) 0.3813(7)
H26 H 0.1273 0.6245 0.3598
C37 C 0.1162(4) 0.5495(4) 0.4708(5)
C38 C 0.1431(6) 0.4823(5) 0.4977(6)
H27 H 0.1291 0.4614 0.5588
C39 C 0.1911(5) 0.4445(4) 0.4356(6)
H28 H 0.2106 0.3995 0.4583
C41 C 0.0191(5) 0.6461(4) 0.4987(5)
H30 H 0.0210 0.6580 0.4307
C42 C 0.0643(4) 0.5912(4) 0.5363(5)
C43 C 0.0603(5) 0.5787(5) 0.6384(6)
H31 H 0.0900 0.5423 0.6680
C44 C 0.0123(5) 0.6202(5) 0.6960(6)
H32 H 0.0120 0.6117 0.7650
Cu9 Cu 0.10163(4) 0.26838(5) 0.24977(5)
S11 S 0.18733(8) 0.33006(9) 0.15363(13)
N15 N 0.0324(3) 0.2108(3) 0.1527(4)
C48 C 0.0177(5) 0.1431(6) 0.0023(6)
C49 C 0.0555(4) 0.1911(5) 0.0644(6)
H36 H 0.1005 0.2106 0.0417
Cu10 Cu 0.39837(4) 0.23162(5) 0.24977(5)
S12 S 0.31267(8) 0.16994(9) 0.15363(13)
N17 N 0.4676(3) 0.2892(3) 0.1527(4)
C55 C 0.5354(5) 0.3101(6) 0.1767(7)
H41 H 0.5562 0.2918 0.2357
C56 C 0.5774(5) 0.3579(7) 0.1187(7)
H42 H 0.6245 0.3727 0.1402
C57 C 0.5495(4) 0.3838(4) 0.0292(5)
C58 C 0.4823(5) 0.3569(6) 0.0023(6)
C59 C 0.4445(4) 0.3089(5) 0.0644(6)
H44 H 0.3995 0.2894 0.0417
C61 C 0.6461(4) 0.4809(5) 0.0013(5)
H46 H 0.6580 0.4790 0.0693
N19 N 0.1714(3) 0.0334(3) 0.1604(4)
N20 N 0.3286(3) 0.4666(3) 0.1604(4)
N21 N 0.4666(3) 0.1714(3) 0.3396(4)
N22 N 0.0334(3) 0.3286(3) 0.3396(4)
C30 C 0.1835(4) 0.0289(4) 0.0612(6)
H21 H 0.2193 0.0602 0.0331
C25 C 0.0354(5) 0.8101(6) 0.8233(7)
H17 H 0.0562 0.7918 0.7643
C26 C 0.0774(5) 0.8579(7) 0.8813(7)
H18 H 0.1245 0.8727 0.8598
C27 C 0.0495(4) 0.8838(4) 0.9708(5)
C31 C 0.1461(4) 0.9809(5) 0.9987(5)
H22 H 0.1580 0.9790 0.9307
C50 C 0.0289(4) 0.3165(4) 0.4388(6)
H37 H 0.0602 0.2807 0.4669
C55_2 C 0.6899(6) 0.0354(5) 0.6767(7)
H41_2 H 0.7082 0.0562 0.7357
C56_2 C 0.6421(7) 0.0774(5) 0.6187(7)
H42_2 H 0.6273 0.1245 0.6402
C57_2 C 0.6162(4) 0.0495(4) 0.5292(5)
C60 C 0.4711(4) 0.1835(4) 0.4388(6)
H45 H 0.4398 0.2193 0.4669
C61_2 C 0.5191(5) 0.1461(4) 0.5013(5)
H46_2 H 0.5210 0.1580 0.5693
C62 C 0.5643(4) 0.0912(4) 0.4637(5)
C63 C 0.5603(5) 0.0787(5) 0.3616(6)
H47 H 0.5900 0.0423 0.3320
C64 C 0.5123(5) 0.1202(5) 0.3040(6)
H48 H 0.5120 0.1117 0.2350
H19_2 H 0.9614 0.8709 0.0588
H27_2 H 0.5386 0.6291 0.0588
C40 C 0.3165(4) 0.4711(4) 0.0612(6)
H29 H 0.2807 0.4398 0.0331
C42_2 C 0.4088(4) 0.5643(4) 0.0363(5)
C43_2 C 0.4213(5) 0.5603(5) 0.1384(6)
H31_2 H 0.4577 0.5900 0.1680
C44_2 C 0.3798(5) 0.5123(5) 0.1960(6)
H32_2 H 0.3883 0.5120 0.2650
H35 H 0.0386 0.1291 0.9412
N18 N 0.6714(3) 0.5334(3) 0.8396(4)
H43 H 0.4614 0.3709 0.9412
C60_2 C 0.6835(4) 0.5289(4) 0.9388(6)
H45_2 H 0.7193 0.5602 0.9669
C62_2 C 0.5912(4) 0.4357(4) 0.9637(5)
C63_2 C 0.5787(5) 0.4397(5) 0.8616(6)
H47_2 H 0.5423 0.4100 0.8320
C64_2 C 0.6202(5) 0.4877(5) 0.8040(6)
H48_2 H 0.6117 0.4880 0.7350
Cu14 Cu 0.73162(5) 0.60163(4) 0.74977(5)
N12 N 0.5334(3) 0.8286(3) 0.6604(4)
C25_2 C 0.3101(6) 0.9646(5) 0.3233(7)
H17_2 H 0.2918 0.9438 0.2643
C26_2 C 0.3579(7) 0.9226(5) 0.3813(7)
H18_2 H 0.3727 0.8755 0.3598
C27_2 C 0.3838(4) 0.9505(4) 0.4708(5)
C30_2 C 0.5289(4) 0.8165(4) 0.5612(6)
H21_2 H 0.5602 0.7807 0.5331
C31_2 C 0.4809(5) 0.8539(4) 0.4987(5)
H22_2 H 0.4790 0.8420 0.4307
C32 C 0.4357(4) 0.9088(4) 0.5363(5)
C33 C 0.4397(5) 0.9213(5) 0.6384(6)
H23 H 0.4100 0.9577 0.6680
C34 C 0.4877(5) 0.8798(5) 0.6960(6)
H24 H 0.4880 0.8883 0.7650
Cu12 Cu 0.60163(4) 0.76838(5) 0.75023(5)
N14 N 0.9666(3) 0.6714(3) 0.6604(4)
C40_2 C 0.9711(4) 0.6835(4) 0.5612(6)
H29_2 H 0.9398 0.7193 0.5331
C45 C 0.9646(5) 0.1899(6) 0.1767(7)
H33 H 0.9438 0.2082 0.2357
C46 C 0.9226(5) 0.1421(7) 0.1187(7)
H34 H 0.8755 0.1273 0.1402
C47 C 0.9505(4) 0.1162(4) 0.0292(5)
C51 C 0.8539(4) 0.0191(5) 0.0013(5)
H38 H 0.8420 0.0210 0.0693
Cu11 Cu 0.89837(4) 0.73162(5) 0.75023(5)
N16 N 0.8286(3) 0.9666(3) 0.8396(4)
C50_2 C 0.8165(4) 0.9711(4) 0.9388(6)
H37_2 H 0.7807 0.9398 0.9669
Cu13 Cu 0.76838(5) 0.89837(4) 0.74977(5)
W2_2 W 0.7500 0.7500 0.7500
S9_2 S 0.81267(8) 0.66994(9) 0.84637(13)
N11_2 N 0.9676(3) 0.7892(3) 0.8473(4)
C28_2 C 0.9823(5) 0.8569(6) 0.9977(6)
C29_2 C 0.9445(4) 0.8089(5) 0.9356(6)
H20_2 H 0.8995 0.7894 0.9583
S10_2 S 0.68733(8) 0.83006(9) 0.84637(13)
N13_2 N 0.5324(3) 0.7108(3) 0.8473(4)
C35_2 C 0.4646(5) 0.6899(6) 0.8233(7)
H25_2 H 0.4438 0.7082 0.7643
C36_2 C 0.4226(5) 0.6421(7) 0.8813(7)
H26_2 H 0.3755 0.6273 0.8598
C37_2 C 0.4505(4) 0.6162(4) 0.9708(5)
C38_2 C 0.5177(5) 0.6431(6) 0.9977(6)
C39_2 C 0.5555(4) 0.6911(5) 0.9356(6)
H28_2 H 0.6005 0.7106 0.9583
C41_2 C 0.3539(4) 0.5191(5) 0.9987(5)
H30_2 H 0.3420 0.5210 0.9307
S11_2 S 0.66994(9) 0.68733(8) 0.65363(13)
N15_2 N 0.7892(3) 0.5324(3) 0.6527(4)
C45_2 C 0.8101(6) 0.4646(5) 0.6767(7)
H33_2 H 0.7918 0.4438 0.7357
C46_2 C 0.8579(7) 0.4226(5) 0.6187(7)
H34_2 H 0.8727 0.3755 0.6402
C47_2 C 0.8838(4) 0.4505(4) 0.5292(5)
C48_2 C 0.8569(6) 0.5177(5) 0.5023(6)
H35_2 H 0.8709 0.5386 0.4412
C49_2 C 0.8089(5) 0.5555(4) 0.5644(6)
H36_2 H 0.7894 0.6005 0.5417
C51_2 C 0.9809(5) 0.3539(4) 0.5013(5)
H38_2 H 0.9790 0.3420 0.5693
C52 C 0.9357(4) 0.4088(4) 0.4637(5)
C53 C 0.9397(5) 0.4213(5) 0.3616(6)
H39 H 0.9100 0.4577 0.3320
C54 C 0.9877(5) 0.3798(5) 0.3040(6)
H40 H 0.9880 0.3883 0.2350
S12_2 S 0.83006(9) 0.81267(8) 0.65363(13)
N17_2 N 0.7108(3) 0.9676(3) 0.6527(4)
C58_2 C 0.6431(6) 0.9823(5) 0.5023(6)
H43_2 H 0.6291 0.9614 0.4412
C59_2 C 0.6911(5) 0.9445(4) 0.5644(6)
H44_2 H 0.7106 0.8995 0.5417
C52_2 C 0.9088(4) 0.0643(4) 0.9637(5)
C53_2 C 0.9213(5) 0.0603(5) 0.8616(6)
H39_2 H 0.9577 0.0900 0.8320
C54_2 C 0.8798(5) 0.0123(5) 0.8040(6)
H40_2 H 0.8883 0.0120 0.7350
C32_2 C 0.0912(4) 0.9357(4) 0.0363(5)
C33_2 C 0.0787(5) 0.9397(5) 0.1384(6)
H23_2 H 0.0423 0.9100 0.1680
C34_2 C 0.1202(5) 0.9877(5) 0.1960(6)
H24_2 H 0.1117 0.9880 0.2650
loop_
_geom_bond_atom_site_label_1
_geom_bond_atom_site_label_2
_geom_bond_site_symmetry_1
_geom_bond_site_symmetry_2
W1 S1 1_555 1_555
Cu1 S1 1_555 1_555
S1 Cu4 1_555 1_555
N1 Cu1 1_555 1_555
N2 Cu1 1_555 1_555
C1 N1 1_555 1_555
H1 C1 1_555 1_555
C2 C1 1_555 1_555
H2 C2 1_555 1_555
C3 C2 1_555 1_555
Cu2 S3 1_555 1_555
S3 W1 1_555 1_555
S4 C17 1_555 1_555
N4 Cu2 1_555 1_555
N5 Cu2 1_555 1_555
C12 N4 1_555 1_555
H9 C12 1_555 1_555
C13 C12 1_555 1_555
H10 C13 1_555 1_555
C14 C13 1_555 1_555
C15 C14 1_555 1_555
H11 C15 1_555 1_555
C16 N4 1_555 1_555
H12 C16 1_555 1_555
C17 N5 1_555 1_555
N6 C18 1_555 1_555
C18 H13 1_555 1_555
C19 C18 1_555 1_555
H14 C19 1_555 1_555
C20 C14 1_555 1_555
C21 C20 1_555 1_555
H15 C21 1_555 1_555
C22 N6 1_555 1_555
H16 C22 1_555 1_555
Cu3 S3 1_555 1_555
S5 W1 1_555 1_555
N7 Cu3 1_555 1_555
Cu4 S7 1_555 1_555
S7 W1 1_555 1_555
S8 C24 1_555 1_555
N8 Cu4 1_555 1_555
C24 N8 1_555 1_555
Cu6 N6 1_555 1_555
N9 Cu3 1_555 1_555
N10 Cu4 1_555 1_555
Cu1 S5 1_555 1_555
Cu2 S7 1_555 1_555
C15 C16 1_555 1_555
C19 C20 1_555 1_555
C21 C22 1_555 1_555
Cu3 S5 1_555 1_555
N3 C7 1_555 1_555
C7 H5 1_555 1_555
C8 C7 1_555 1_555
H6 C8 1_555 1_555
Cu5 N3 1_555 1_555
C8 C9 1_555 1_555
N9 C7_2 1_555 1_555
C7_2 H5_2 1_555 1_555
C8_2 C7_2 1_555 1_555
C8_2 C9_2 1_555 1_555
N10 C18_2 1_555 1_555
C18_2 H13_2 1_555 1_555
C19_2 C18_2 1_555 1_555
C21_2 C20_2 1_555 1_555
H15_2 C21_2 1_555 1_555
C22_2 N10 1_555 1_555
H16_2 C22_2 1_555 1_555
C19_2 C20_2 1_555 1_555
C21_2 C22_2 1_555 1_555
W1_2 S1_2 1_555 1_555
Cu1_2 S1_2 1_555 1_555
S1_2 Cu5 1_555 1_555
N1_2 Cu1_2 1_555 1_555
N2_2 Cu1_2 1_555 1_555
C1_2 N1_2 1_555 1_555
H1_2 C1_2 1_555 1_555
C2_2 C1_2 1_555 1_555
C3_2 C2_2 1_555 1_555
Cu2_2 S3_2 1_555 1_555
S3_2 W1_2 1_555 1_555
S4_2 C17_2 1_555 1_555
N4_2 Cu2_2 1_555 1_555
N5_2 Cu2_2 1_555 1_555
C12_2 N4_2 1_555 1_555
H9_2 C12_2 1_555 1_555
C13_2 C12_2 1_555 1_555
C14_2 C13_2 1_555 1_555
C15_2 C14_2 1_555 1_555
H11_2 C15_2 1_555 1_555
C16_2 N4_2 1_555 1_555
H12_2 C16_2 1_555 1_555
C17_2 N5_2 1_555 1_555
Cu6 S3_2 1_555 1_555
S5_2 W1_2 1_555 1_555
S6 C23 1_555 1_555
N7_2 Cu6 1_555 1_555
C23 N7_2 1_555 1_555
Cu5 S7_2 1_555 1_555
S7_2 W1_2 1_555 1_555
N8_2 Cu5 1_555 1_555
Cu1_2 S5_2 1_555 1_555
Cu2_2 S7_2 1_555 1_555
C15_2 C16_2 1_555 1_555
Cu6 S5_2 1_555 1_555
S2 C6 1_555 1_555
H3 C4 1_555 1_555
H4 C5 1_555 1_555
C4 C5 1_555 1_555
H7 C10 1_555 1_555
H8 C11 1_555 1_555
S6_2 C23_2 1_555 1_555
C10 C11 1_555 1_555
S2_2 C6_2 1_555 1_555
H3_2 C4_2 1_555 1_555
H4_2 C5_2 1_555 1_555
C4_2 C5_2 1_555 1_555
S8_2 C24_2 1_555 1_555
H7_2 C10_2 1_555 1_555
H8_2 C11_2 1_555 1_555
C10_2 C11_2 1_555 1_555
W2 S9 1_555 1_555
Cu7 S9 1_555 1_555
S9 Cu9 1_555 1_555
N11 Cu7 1_555 1_555
H19 C28 1_555 1_555
C29 N11 1_555 1_555
H20 C29 1_555 1_555
Cu8 S10 1_555 1_555
S10 W2 1_555 1_555
N13 Cu8 1_555 1_555
C35 N13 1_555 1_555
H25 C35 1_555 1_555
C36 C35 1_555 1_555
H26 C36 1_555 1_555
C37 C36 1_555 1_555
C38 C37 1_555 1_555
H27 C38 1_555 1_555
C39 N13 1_555 1_555
H28 C39 1_555 1_555
H30 C41 1_555 1_555
C42 C37 1_555 1_555
C43 C42 1_555 1_555
H31 C43 1_555 1_555
H32 C44 1_555 1_555
Cu9 S11 1_555 1_555
S11 W2 1_555 1_555
N15 Cu9 1_555 1_555
C49 N15 1_555 1_555
H36 C49 1_555 1_555
Cu10 S10 1_555 1_555
S12 W2 1_555 1_555
N17 Cu10 1_555 1_555
C55 N17 1_555 1_555
H41 C55 1_555 1_555
C56 C55 1_555 1_555
H42 C56 1_555 1_555
C57 C56 1_555 1_555
C58 C57 1_555 1_555
C59 N17 1_555 1_555
H44 C59 1_555 1_555
H46 C61 1_555 1_555
N19 Cu7 1_555 1_555
N20 Cu8 1_555 1_555
N21 Cu10 1_555 1_555
N22 Cu9 1_555 1_555
Cu7 S12 1_555 1_555
C28 C29 1_555 1_555
Cu8 S11 1_555 1_555
C38 C39 1_555 1_555
C41 C42 1_555 1_555
C43 C44 1_555 1_555
C48 C49 1_555 1_555
Cu10 S12 1_555 1_555
C58 C59 1_555 1_555
N19 C30 1_555 1_555
C30 H21 1_555 1_555
H17 C25 1_555 1_555
C26 C25 1_555 1_555
H18 C26 1_555 1_555
C27 C26 1_555 1_555
H22 C31 1_555 1_555
N22 C50 1_555 1_555
C50 H37 1_555 1_555
N21 C60 1_555 1_555
H41_2 C55_2 1_555 1_555
C56_2 C55_2 1_555 1_555
H42_2 C56_2 1_555 1_555
C57_2 C56_2 1_555 1_555
C60 H45 1_555 1_555
C61_2 C60 1_555 1_555
H46_2 C61_2 1_555 1_555
C62 C57_2 1_555 1_555
C63 C62 1_555 1_555
H47 C63 1_555 1_555
C64 N21 1_555 1_555
H48 C64 1_555 1_555
C61_2 C62 1_555 1_555
C63 C64 1_555 1_555
N20 C40 1_555 1_555
C40 H29 1_555 1_555
C43_2 C42_2 1_555 1_555
H31_2 C43_2 1_555 1_555
C44_2 N20 1_555 1_555
H32_2 C44_2 1_555 1_555
C43_2 C44_2 1_555 1_555
N18 C60_2 1_555 1_555
C60_2 H45_2 1_555 1_555
C63_2 C62_2 1_555 1_555
H47_2 C63_2 1_555 1_555
C64_2 N18 1_555 1_555
H48_2 C64_2 1_555 1_555
Cu14 N18 1_555 1_555
C63_2 C64_2 1_555 1_555
N12 C30_2 1_555 1_555
H17_2 C25_2 1_555 1_555
C26_2 C25_2 1_555 1_555
H18_2 C26_2 1_555 1_555
C27_2 C26_2 1_555 1_555
C30_2 H21_2 1_555 1_555
C31_2 C30_2 1_555 1_555
H22_2 C31_2 1_555 1_555
C32 C27_2 1_555 1_555
C33 C32 1_555 1_555
H23 C33 1_555 1_555
C34 N12 1_555 1_555
H24 C34 1_555 1_555
Cu12 N12 1_555 1_555
C31_2 C32 1_555 1_555
C33 C34 1_555 1_555
N14 C40_2 1_555 1_555
C40_2 H29_2 1_555 1_555
H33 C45 1_555 1_555
C46 C45 1_555 1_555
H34 C46 1_555 1_555
C47 C46 1_555 1_555
H38 C51 1_555 1_555
Cu11 N14 1_555 1_555
N16 C50_2 1_555 1_555
C50_2 H37_2 1_555 1_555
Cu13 N16 1_555 1_555
W2_2 S9_2 1_555 1_555
Cu11 S9_2 1_555 1_555
S9_2 Cu14 1_555 1_555
N11_2 Cu11 1_555 1_555
C29_2 N11_2 1_555 1_555
H20_2 C29_2 1_555 1_555
Cu12 S10_2 1_555 1_555
S10_2 W2_2 1_555 1_555
N13_2 Cu12 1_555 1_555
C35_2 N13_2 1_555 1_555
H25_2 C35_2 1_555 1_555
C36_2 C35_2 1_555 1_555
H26_2 C36_2 1_555 1_555
C37_2 C36_2 1_555 1_555
C38_2 C37_2 1_555 1_555
C39_2 N13_2 1_555 1_555
H28_2 C39_2 1_555 1_555
H30_2 C41_2 1_555 1_555
Cu14 S11_2 1_555 1_555
S11_2 W2_2 1_555 1_555
N15_2 Cu14 1_555 1_555
C45_2 N15_2 1_555 1_555
H33_2 C45_2 1_555 1_555
C46_2 C45_2 1_555 1_555
H34_2 C46_2 1_555 1_555
C47_2 C46_2 1_555 1_555
C48_2 C47_2 1_555 1_555
H35_2 C48_2 1_555 1_555
C49_2 N15_2 1_555 1_555
H36_2 C49_2 1_555 1_555
H38_2 C51_2 1_555 1_555
C52 C47_2 1_555 1_555
C53 C52 1_555 1_555
H39 C53 1_555 1_555
H40 C54 1_555 1_555
Cu13 S10_2 1_555 1_555
S12_2 W2_2 1_555 1_555
N17_2 Cu13 1_555 1_555
H43_2 C58_2 1_555 1_555
C59_2 N17_2 1_555 1_555
H44_2 C59_2 1_555 1_555
Cu11 S12_2 1_555 1_555
C28_2 C29_2 1_555 1_555
Cu12 S11_2 1_555 1_555
C38_2 C39_2 1_555 1_555
C48_2 C49_2 1_555 1_555
C51_2 C52 1_555 1_555
C53 C54 1_555 1_555
Cu13 S12_2 1_555 1_555
C58_2 C59_2 1_555 1_555
C53_2 C52_2 1_555 1_555
H39_2 C53_2 1_555 1_555
H40_2 C54_2 1_555 1_555
C53_2 C54_2 1_555 1_555
C33_2 C32_2 1_555 1_555
H23_2 C33_2 1_555 1_555
H24_2 C34_2 1_555 1_555
C33_2 C34_2 1_555 1_555

#END
