
###############################################################################
#
# This file contains modified crystal structure data generated from the
# MOF subset of the Cambridge Structural Database (CSD) v543 
# hosted by the Cambridge Crystallographic Data Centre (CCDC).
#
# This work is licensed under the Creative Commons
# Attribution-NonCommercial-ShareAlike 4.0 International License.
# To view a copy of this license, visit
# http://creativecommons.org/licenses/by-nc-sa/4.0/
# or send a letter to
# Creative Commons, PO Box 1866, Mountain View, CA 94042, USA.
#
# CIF created using the CSD Python API on 29 September 2022
# The structure has been converted into the P1 space group
# The structure has a 3D framework
# The original CSD entry NABTET is in the monoclinic crystal system
# The framework has been calculated to contain at least 10.0% void space
# The void calculation uses a probe of radius 1.32A, grid spacing 0.4
#
###############################################################################

data_NABTET
_chemical_formula_moiety         '(C128 H84 N12 O24 Zn2)n'
_symmetry_cell_setting           triclinic
_symmetry_space_group_name_H-M   'P 1'
_symmetry_Int_Tables_number      1
_space_group_name_Hall           'P 1'
loop_
_symmetry_equiv_pos_site_id
_symmetry_equiv_pos_as_xyz
1 x,y,z
_cell_length_a                   9.3019(7)
_cell_length_b                   11.1262(8)
_cell_length_c                   30.687(2)
_cell_angle_alpha                90
_cell_angle_beta                 94.0770(10)
_cell_angle_gamma                90
_cell_volume                     3167.91
loop_
_atom_site_label
_atom_site_type_symbol
_atom_site_fract_x
_atom_site_fract_y
_atom_site_fract_z
O11 O 0.8396(5) 0.2463(4) 0.44043(17)
O12 O 0.6506(5) 0.3672(3) 0.43509(12)
C60 C 0.6771(6) 0.0573(5) 0.39688(19)
H40 H 0.773815 0.042777 0.404979
C61 C 0.6190(7) 0.1688(5) 0.40517(17)
C62 C 0.4747(6) 0.1898(5) 0.39233(18)
H41 H 0.434145 0.264432 0.397395
C63 C 0.3916(6) 0.1009(5) 0.37222(18)
H42 H 0.295239 0.115953 0.363858
C64 C 0.7126(8) 0.2659(6) 0.42879(18)
Zn3 Zn 0.79920(7) 0.45284(5) 0.47193(2)
Zn4 Zn 0.79920(7) 0.04716(5) 0.97193(2)
O13 O 0.8396(5) 0.2537(4) 0.94043(17)
O15 O 0.6506(5) 0.1328(3) 0.93509(12)
O4 O 0.4862(4) 0.7702(3) 0.85883(13)
N2 N 0.3599(4) 0.5992(4) 0.84240(13)
H2 H 0.267149 0.573744 0.831361
C8 C 0.0341(6) 0.9934(5) 0.70987(18)
C9 C 0.1151(5) 0.9225(4) 0.74619(16)
C10 C 0.1611(6) 0.8100(5) 0.73660(17)
H7 H 0.139617 0.777920 0.708915
C11 C 0.2421(5) 0.7415(4) 0.76900(17)
H8 H 0.270295 0.663735 0.762452
C12 C 0.2792(5) 0.7876(4) 0.80932(16)
C13 C 0.2316(5) 0.9038(4) 0.82060(16)
C14 C 0.2613(6) 0.9566(5) 0.86266(17)
H9 H 0.318587 0.915478 0.883787
C18 C 0.1466(5) 0.9714(4) 0.78851(17)
C19 C 0.3852(6) 0.7200(5) 0.83992(17)
C20 C 0.4509(6) 0.5125(4) 0.86416(16)
C21 C 0.5951(6) 0.5320(5) 0.87696(18)
H13 H 0.636468 0.606419 0.871982
C22 C 0.6771(6) 0.4427(5) 0.89688(19)
H14 H 0.773815 0.457223 0.904979
C23 C 0.6190(7) 0.3312(5) 0.90517(17)
C24 C 0.4747(6) 0.3102(5) 0.89233(18)
H15 H 0.434145 0.235568 0.897395
C25 C 0.3916(6) 0.3991(5) 0.87222(18)
H16 H 0.295239 0.384047 0.863858
C26 C 0.7126(8) 0.2341(6) 0.92879(18)
O1 O 0.8391(4) 0.3734(3) 0.52916(11)
N3 N 0.7014(5) 0.6157(4) 0.48151(14)
C1 C 0.9469(6) 0.4016(5) 0.55338(16)
C2 C 0.9936(5) 0.3155(4) 0.58885(16)
C6 C 0.9766(6) 0.1209(5) 0.62307(17)
H5 H 0.940163 0.043059 0.622303
C7 C 0.9387(6) 0.1997(5) 0.58958(17)
H6 H 0.874473 0.174528 0.566798
C27 C 0.7677(7) 0.7052(5) 0.50267(19)
H17 H 0.860729 0.693421 0.515146
C28 C 0.7017(8) 0.8181(5) 0.5069(2)
H18 H 0.751456 0.880439 0.521460
C29 C 0.5601(8) 0.8360(6) 0.4890(2)
C30 C 0.4940(8) 0.7412(6) 0.4679(2)
H19 H 0.400058 0.748314 0.455629
C31 C 0.5673(7) 0.6358(5) 0.46489(19)
H20 H 0.519832 0.572782 0.450058
C32 C 0.4791(10) 0.9541(5) 0.4925(2)
H21 H 0.383625 0.953459 0.481232
O8 O 0.9865(4) 0.5011(3) 0.45009(11)
N5 N 0.8877(5) 0.9192(4) 0.30685(14)
H27 H 0.789817 0.911975 0.292812
C41 C 0.9091(6) 0.6506(5) 0.37688(17)
H29 H 0.867682 0.574542 0.377028
C42 C 0.8728(6) 0.7277(5) 0.34268(17)
H30 H 0.808875 0.702973 0.319754
C43 C 0.9322(5) 0.8426(4) 0.34252(17)
C53 C 0.7934(7) 0.9327(5) 0.12757(19)
H36 H 0.774913 0.901372 0.099632
C54 C 0.8767(7) 0.8659(5) 0.1589(2)
H37 H 0.911965 0.790607 0.151873
C55 C 0.9053(6) 0.9124(5) 0.1997(2)
H38 H 0.959978 0.867603 0.220380
N3_2 N 0.2986(5) 0.1157(4) 0.01849(14)
C29_2 C 0.4399(8) 0.3360(6) 0.0110(2)
C30_2 C 0.5060(8) 0.2412(6) 0.0321(2)
H19_2 H 0.599942 0.248314 0.044371
C31_2 C 0.4327(7) 0.1358(5) 0.03511(19)
H20_2 H 0.480168 0.072782 0.049942
C32_2 C 0.5209(10) 0.4541(5) 0.0075(2)
H21_2 H 0.616375 0.453459 0.018768
C33 C 0.7677(7) 0.7948(5) 0.00267(19)
H22 H 0.860729 0.806579 0.015146
C34 C 0.7017(8) 0.6819(5) 0.0069(2)
H23 H 0.751456 0.619561 0.021460
O8_2 O 0.0135(4) 0.0011(3) 0.04991(11)
O10 O 0.4862(4) 0.7298(3) 0.35883(13)
N5_2 N 0.1123(5) 0.4192(4) 0.19315(14)
H27_2 H 0.210183 0.411975 0.207188
N6 N 0.3599(4) 0.9008(4) 0.34240(13)
H28 H 0.267149 0.926256 0.331361
C41_2 C 0.0909(6) 0.1506(5) 0.12312(17)
H29_2 H 0.132318 0.074542 0.122972
C42_2 C 0.1272(6) 0.2277(5) 0.15732(17)
H30_2 H 0.191125 0.202973 0.180246
C43_2 C 0.0678(5) 0.3426(4) 0.15748(17)
C46 C 0.0341(6) 0.5066(5) 0.20987(18)
C47 C 0.1151(5) 0.5775(4) 0.24619(16)
C48 C 0.1611(6) 0.6900(5) 0.23660(17)
H33 H 0.139617 0.722080 0.208915
C49 C 0.2421(5) 0.7585(4) 0.26900(17)
H34 H 0.270295 0.836265 0.262452
C50 C 0.2792(5) 0.7124(4) 0.30932(16)
C51 C 0.2316(5) 0.5962(4) 0.32060(16)
C52 C 0.2613(6) 0.5434(5) 0.36266(17)
H35 H 0.318587 0.584522 0.383787
C53_2 C 0.2066(7) 0.4327(5) 0.37243(19)
H36_2 H 0.225087 0.401372 0.400368
C54_2 C 0.1233(7) 0.3659(5) 0.3411(2)
H37_2 H 0.088035 0.290607 0.348127
C55_2 C 0.0947(6) 0.4124(5) 0.3003(2)
H38_2 H 0.040022 0.367603 0.279620
C56 C 0.1466(5) 0.5286(4) 0.28851(17)
C57 C 0.3852(6) 0.7800(5) 0.33992(17)
C58 C 0.4509(6) 0.9875(4) 0.36416(16)
C59 C 0.5951(6) 0.9680(5) 0.37696(18)
H39 H 0.636468 0.893581 0.371982
C27_2 C 0.2323(7) 0.2052(5) 0.99733(19)
H17_2 H 0.139271 0.193421 0.984854
C28_2 C 0.2983(8) 0.3181(5) 0.9931(2)
H18_2 H 0.248544 0.380439 0.978540
N4 N 0.7014(5) 0.8843(4) 0.98151(14)
C35 C 0.5601(8) 0.6640(6) 0.9890(2)
C36 C 0.4940(8) 0.7588(6) 0.9679(2)
H24 H 0.400058 0.751686 0.955629
C37 C 0.5673(7) 0.8642(5) 0.96489(19)
H25 H 0.519832 0.927218 0.950058
C38 C 0.4791(10) 0.5459(5) 0.9925(2)
H26 H 0.383625 0.546541 0.981232
O2 O 0.9865(4) 0.9989(3) 0.95009(11)
O4_2 O 0.5138(4) 0.2702(3) 0.64117(13)
N1 N 0.8877(5) 0.5808(4) 0.80685(14)
H1 H 0.789817 0.588025 0.792812
N2_2 N 0.6401(4) 0.0992(4) 0.65760(13)
H2_2 H 0.732851 0.073744 0.668639
C3 C 0.9091(6) 0.8494(5) 0.87688(17)
H3 H 0.867682 0.925458 0.877028
C4 C 0.8728(6) 0.7723(5) 0.84268(17)
H4 H 0.808875 0.797027 0.819754
C5 C 0.9322(5) 0.6574(4) 0.84252(17)
C8_2 C 0.9659(6) 0.4934(5) 0.79013(18)
C9_2 C 0.8849(5) 0.4225(4) 0.75381(16)
C10_2 C 0.8389(6) 0.3100(5) 0.76340(17)
H7_2 H 0.860383 0.277920 0.791085
C11_2 C 0.7579(5) 0.2415(4) 0.73100(17)
H8_2 H 0.729705 0.163735 0.737548
C12_2 C 0.7208(5) 0.2876(4) 0.69068(16)
C13_2 C 0.7684(5) 0.4038(4) 0.67940(16)
C14_2 C 0.7387(6) 0.4566(5) 0.63734(17)
H9_2 H 0.681413 0.415478 0.616213
C15 C 0.7934(7) 0.5673(5) 0.62757(19)
H10 H 0.774913 0.598628 0.599632
C16 C 0.8767(7) 0.6341(5) 0.6589(2)
H11 H 0.911965 0.709393 0.651873
C17 C 0.9053(6) 0.5876(5) 0.6997(2)
H12 H 0.959978 0.632397 0.720380
C18_2 C 0.8534(5) 0.4714(4) 0.71149(17)
C19_2 C 0.6148(6) 0.2200(5) 0.66008(17)
C20_2 C 0.5491(6) 0.0125(4) 0.63584(16)
C21_2 C 0.4049(6) 0.0320(5) 0.62304(18)
H13_2 H 0.363532 0.106419 0.628018
Zn1 Zn 0.20080(7) 0.95284(5) 0.02807(2)
O14 O 0.1604(5) 0.7463(4) 0.05957(17)
O16 O 0.3494(5) 0.8672(3) 0.06491(12)
O5 O 0.1604(5) 0.7537(4) 0.55957(17)
O6 O 0.3494(5) 0.6328(3) 0.56491(12)
C22_2 C 0.3229(6) 0.9427(5) 0.60312(19)
H14_2 H 0.226185 0.957223 0.595021
C23_2 C 0.3810(7) 0.8312(5) 0.59483(17)
C24_2 C 0.5253(6) 0.8102(5) 0.60767(18)
H15_2 H 0.565855 0.735568 0.602605
C25_2 C 0.6084(6) 0.8991(5) 0.62778(18)
H16_2 H 0.704761 0.884047 0.636142
C26_2 C 0.2874(8) 0.7341(6) 0.57121(18)
Zn5 Zn 0.20080(7) 0.54716(5) 0.52807(2)
O2_2 O 0.0135(4) 0.4989(3) 0.54991(11)
N1_2 N 0.1123(5) 0.0808(4) 0.69315(14)
H1_2 H 0.210183 0.088025 0.707188
C3_2 C 0.0909(6) 0.3494(5) 0.62312(17)
H3_2 H 0.132318 0.425458 0.622972
C4_2 C 0.1272(6) 0.2723(5) 0.65732(17)
H4_2 H 0.191125 0.297027 0.680246
C5_2 C 0.0678(5) 0.1574(4) 0.65748(17)
C15_2 C 0.2066(7) 0.0673(5) 0.87243(19)
H10_2 H 0.225087 0.098628 0.900368
C16_2 C 0.1233(7) 0.1341(5) 0.8411(2)
H11_2 H 0.088035 0.209393 0.848127
C17_2 C 0.0947(6) 0.0876(5) 0.8003(2)
H12_2 H 0.040022 0.132397 0.779620
O7 O 0.1609(4) 0.6266(3) 0.47084(11)
C39 C 0.0531(6) 0.5984(5) 0.44662(16)
C40 C 0.0064(5) 0.6845(4) 0.41115(16)
C44 C 0.0234(6) 0.8791(5) 0.37693(17)
H31 H 0.059837 0.956941 0.377697
C45 C 0.0613(6) 0.8003(5) 0.41042(17)
H32 H 0.125527 0.825472 0.433202
N7 N 0.2986(5) 0.3843(4) 0.51849(14)
C33_2 C 0.2323(7) 0.2948(5) 0.49733(19)
H22_2 H 0.139271 0.306579 0.484854
C34_2 C 0.2983(8) 0.1819(5) 0.4931(2)
H23_2 H 0.248544 0.119561 0.478540
C35_2 C 0.4399(8) 0.1640(6) 0.5110(2)
C36_2 C 0.5060(8) 0.2588(6) 0.5321(2)
H24_2 H 0.599942 0.251686 0.544371
C37_2 C 0.4327(7) 0.3642(5) 0.53511(19)
H25_2 H 0.480168 0.427218 0.549942
C38_2 C 0.5209(10) 0.0459(5) 0.5075(2)
H26_2 H 0.616375 0.046541 0.518768
O10_2 O 0.5138(4) 0.2298(3) 0.14117(13)
N6_2 N 0.6401(4) 0.4008(4) 0.15760(13)
H28_2 H 0.732851 0.426256 0.168639
C46_2 C 0.9659(6) 0.0066(5) 0.29013(18)
C47_2 C 0.8849(5) 0.0775(4) 0.25381(16)
C48_2 C 0.8389(6) 0.1900(5) 0.26340(17)
H33_2 H 0.860383 0.222080 0.291085
C49_2 C 0.7579(5) 0.2585(4) 0.23100(17)
H34_2 H 0.729705 0.336265 0.237548
C50_2 C 0.7208(5) 0.2124(4) 0.19068(16)
C51_2 C 0.7684(5) 0.0962(4) 0.17940(16)
C52_2 C 0.7387(6) 0.0434(5) 0.13734(17)
H35_2 H 0.681413 0.084522 0.116213
C56_2 C 0.8534(5) 0.0286(4) 0.21149(17)
C57_2 C 0.6148(6) 0.2800(5) 0.16008(17)
C58_2 C 0.5491(6) 0.4875(4) 0.13584(16)
C59_2 C 0.4049(6) 0.4680(5) 0.12304(18)
H39_2 H 0.363532 0.393581 0.128018
C60_2 C 0.3229(6) 0.5573(5) 0.10312(19)
H40_2 H 0.226185 0.542777 0.095021
C61_2 C 0.3810(7) 0.6688(5) 0.09483(17)
C62_2 C 0.5253(6) 0.6898(5) 0.10767(18)
H41_2 H 0.565855 0.764432 0.102605
C63_2 C 0.6084(6) 0.6009(5) 0.12778(18)
H42_2 H 0.704761 0.615953 0.136142
C64_2 C 0.2874(8) 0.7659(6) 0.07121(18)
O1_2 O 0.1609(4) 0.8734(3) 0.97084(11)
O3 O 0.0914(4) 0.4675(3) 0.80290(13)
C1_2 C 0.0531(6) 0.9016(5) 0.94662(16)
C2_2 C 0.0064(5) 0.8155(4) 0.91115(16)
C6_2 C 0.0234(6) 0.6209(5) 0.87693(17)
H5_2 H 0.059837 0.543059 0.877697
C7_2 C 0.0613(6) 0.6997(5) 0.91042(17)
H6_2 H 0.125527 0.674528 0.933202
O7_2 O 0.8391(4) 0.1266(3) 0.02916(11)
O9 O 0.9086(4) 0.5325(3) 0.19710(13)
C39_2 C 0.9469(6) 0.0984(5) 0.05338(16)
C40_2 C 0.9936(5) 0.1845(4) 0.08885(16)
C44_2 C 0.9766(6) 0.3791(5) 0.12307(17)
H31_2 H 0.940163 0.456941 0.122303
C45_2 C 0.9387(6) 0.3003(5) 0.08958(17)
H32_2 H 0.874473 0.325472 0.066798
O9_2 O 0.0914(4) 0.0325(3) 0.30290(13)
O3_2 O 0.9086(4) 0.9675(3) 0.69710(13)
loop_
_geom_bond_atom_site_label_1
_geom_bond_atom_site_label_2
_geom_bond_site_symmetry_1
_geom_bond_site_symmetry_2
O11 C64 1_555 1_555
O12 C64 1_555 1_555
H40 C60 1_555 1_555
C61 C60 1_555 1_555
C62 C61 1_555 1_555
H41 C62 1_555 1_555
H42 C63 1_555 1_555
C64 C61 1_555 1_555
Zn3 O11 1_555 1_555
O12 Zn3 1_555 1_555
C62 C63 1_555 1_555
O13 Zn4 1_555 1_555
O15 Zn4 1_555 1_555
O4 C19 1_555 1_555
O13 C26 1_555 1_555
O15 C26 1_555 1_555
N2 H2 1_555 1_555
C9 C8 1_555 1_555
C10 C9 1_555 1_555
H7 C10 1_555 1_555
C11 C10 1_555 1_555
H8 C11 1_555 1_555
C12 C11 1_555 1_555
C13 C12 1_555 1_555
C14 C13 1_555 1_555
H9 C14 1_555 1_555
C18 C9 1_555 1_555
C19 N2 1_555 1_555
C20 N2 1_555 1_555
C21 C20 1_555 1_555
H13 C21 1_555 1_555
C22 C21 1_555 1_555
H14 C22 1_555 1_555
C23 C22 1_555 1_555
C24 C23 1_555 1_555
H15 C24 1_555 1_555
C25 C20 1_555 1_555
H16 C25 1_555 1_555
C26 C23 1_555 1_555
C12 C19 1_555 1_555
C13 C18 1_555 1_555
C24 C25 1_555 1_555
Zn3 O1 1_555 1_555
O1 C1 1_555 1_555
N3 Zn3 1_555 1_555
C1 C2 1_555 1_555
H5 C6 1_555 1_555
C7 C2 1_555 1_555
H6 C7 1_555 1_555
C27 N3 1_555 1_555
H17 C27 1_555 1_555
C28 C27 1_555 1_555
H18 C28 1_555 1_555
C29 C28 1_555 1_555
C30 C29 1_555 1_555
H19 C30 1_555 1_555
C31 N3 1_555 1_555
H20 C31 1_555 1_555
C32 C29 1_555 1_555
H21 C32 1_555 1_555
O8 Zn3 1_555 1_555
N5 H27 1_555 1_555
H29 C41 1_555 1_555
C42 C41 1_555 1_555
H30 C42 1_555 1_555
C43 N5 1_555 1_555
H36 C53 1_555 1_555
C54 C53 1_555 1_555
H37 C54 1_555 1_555
C55 C54 1_555 1_555
H38 C55 1_555 1_555
C6 C7 1_555 1_555
C30 C31 1_555 1_555
C42 C43 1_555 1_555
C30_2 C29_2 1_555 1_555
H19_2 C30_2 1_555 1_555
C31_2 N3_2 1_555 1_555
H20_2 C31_2 1_555 1_555
C32_2 C29_2 1_555 1_555
H21_2 C32_2 1_555 1_555
C33 H22 1_555 1_555
C34 C33 1_555 1_555
H23 C34 1_555 1_555
O10 C57 1_555 1_555
N5_2 H27_2 1_555 1_555
N6 H28 1_555 1_555
H29_2 C41_2 1_555 1_555
C42_2 C41_2 1_555 1_555
H30_2 C42_2 1_555 1_555
C43_2 N5_2 1_555 1_555
C46 N5_2 1_555 1_555
C47 C46 1_555 1_555
C48 C47 1_555 1_555
H33 C48 1_555 1_555
C49 C48 1_555 1_555
H34 C49 1_555 1_555
C50 C49 1_555 1_555
C51 C50 1_555 1_555
C52 C51 1_555 1_555
H35 C52 1_555 1_555
C53_2 C52 1_555 1_555
H36_2 C53_2 1_555 1_555
C54_2 C53_2 1_555 1_555
H37_2 C54_2 1_555 1_555
C55_2 C54_2 1_555 1_555
H38_2 C55_2 1_555 1_555
C56 C47 1_555 1_555
C57 N6 1_555 1_555
C58 N6 1_555 1_555
C59 C58 1_555 1_555
H39 C59 1_555 1_555
C30_2 C31_2 1_555 1_555
C42_2 C43_2 1_555 1_555
C50 C57 1_555 1_555
C51 C56 1_555 1_555
C55_2 C56 1_555 1_555
H17_2 C27_2 1_555 1_555
C28_2 C27_2 1_555 1_555
H18_2 C28_2 1_555 1_555
C36 C35 1_555 1_555
H24 C36 1_555 1_555
C37 N4 1_555 1_555
H25 C37 1_555 1_555
H26 C38 1_555 1_555
C35 C38 1_555 1_555
C36 C37 1_555 1_555
O4_2 C19_2 1_555 1_555
N1 H1 1_555 1_555
N2_2 H2_2 1_555 1_555
C3 H3 1_555 1_555
C4 C3 1_555 1_555
H4 C4 1_555 1_555
C5 N1 1_555 1_555
C8_2 N1 1_555 1_555
C9_2 C8_2 1_555 1_555
C10_2 C9_2 1_555 1_555
H7_2 C10_2 1_555 1_555
C11_2 C10_2 1_555 1_555
H8_2 C11_2 1_555 1_555
C12_2 C11_2 1_555 1_555
C13_2 C12_2 1_555 1_555
C14_2 C13_2 1_555 1_555
H9_2 C14_2 1_555 1_555
C15 C14_2 1_555 1_555
H10 C15 1_555 1_555
C16 C15 1_555 1_555
H11 C16 1_555 1_555
C17 C16 1_555 1_555
H12 C17 1_555 1_555
C18_2 C9_2 1_555 1_555
C19_2 N2_2 1_555 1_555
C20_2 N2_2 1_555 1_555
C21_2 C20_2 1_555 1_555
H13_2 C21_2 1_555 1_555
C4 C5 1_555 1_555
C12_2 C19_2 1_555 1_555
C13_2 C18_2 1_555 1_555
C17 C18_2 1_555 1_555
O14 Zn1 1_555 1_555
O16 Zn1 1_555 1_555
O5 C26_2 1_555 1_555
O6 C26_2 1_555 1_555
H14_2 C22_2 1_555 1_555
C23_2 C22_2 1_555 1_555
C24_2 C23_2 1_555 1_555
H15_2 C24_2 1_555 1_555
H16_2 C25_2 1_555 1_555
C26_2 C23_2 1_555 1_555
Zn5 O5 1_555 1_555
O6 Zn5 1_555 1_555
C24_2 C25_2 1_555 1_555
N1_2 H1_2 1_555 1_555
C3_2 H3_2 1_555 1_555
C4_2 C3_2 1_555 1_555
H4_2 C4_2 1_555 1_555
C5_2 N1_2 1_555 1_555
H10_2 C15_2 1_555 1_555
C16_2 C15_2 1_555 1_555
H11_2 C16_2 1_555 1_555
C17_2 C16_2 1_555 1_555
H12_2 C17_2 1_555 1_555
Zn5 O2_2 1_555 1_555
O7 Zn5 1_555 1_555
C39 O7 1_555 1_555
C40 C39 1_555 1_555
H31 C44 1_555 1_555
C45 C40 1_555 1_555
H32 C45 1_555 1_555
N7 Zn5 1_555 1_555
C4_2 C5_2 1_555 1_555
C44 C45 1_555 1_555
N7 C33_2 1_555 1_555
C33_2 H22_2 1_555 1_555
C34_2 C33_2 1_555 1_555
H23_2 C34_2 1_555 1_555
C35_2 C34_2 1_555 1_555
C36_2 C35_2 1_555 1_555
H24_2 C36_2 1_555 1_555
C37_2 N7 1_555 1_555
H25_2 C37_2 1_555 1_555
H26_2 C38_2 1_555 1_555
O10_2 C57_2 1_555 1_555
O14 C64_2 1_555 1_555
O16 C64_2 1_555 1_555
N6_2 H28_2 1_555 1_555
C47_2 C46_2 1_555 1_555
C48_2 C47_2 1_555 1_555
H33_2 C48_2 1_555 1_555
C49_2 C48_2 1_555 1_555
H34_2 C49_2 1_555 1_555
C50_2 C49_2 1_555 1_555
C51_2 C50_2 1_555 1_555
C52_2 C51_2 1_555 1_555
H35_2 C52_2 1_555 1_555
C56_2 C47_2 1_555 1_555
C57_2 N6_2 1_555 1_555
C58_2 N6_2 1_555 1_555
C59_2 C58_2 1_555 1_555
H39_2 C59_2 1_555 1_555
C60_2 C59_2 1_555 1_555
H40_2 C60_2 1_555 1_555
C61_2 C60_2 1_555 1_555
C62_2 C61_2 1_555 1_555
H41_2 C62_2 1_555 1_555
C63_2 C58_2 1_555 1_555
H42_2 C63_2 1_555 1_555
C64_2 C61_2 1_555 1_555
C35_2 C38_2 1_555 1_555
C36_2 C37_2 1_555 1_555
C50_2 C57_2 1_555 1_555
C51_2 C56_2 1_555 1_555
C62_2 C63_2 1_555 1_555
O1_2 C1_2 1_555 1_555
C1_2 C2_2 1_555 1_555
H5_2 C6_2 1_555 1_555
C7_2 C2_2 1_555 1_555
H6_2 C7_2 1_555 1_555
C6_2 C7_2 1_555 1_555
C39_2 O7_2 1_555 1_555
C40_2 C39_2 1_555 1_555
H31_2 C44_2 1_555 1_555
C45_2 C40_2 1_555 1_555
H32_2 C45_2 1_555 1_555
C44_2 C45_2 1_555 1_555

#END
