
###############################################################################
#
# This file contains modified crystal structure data generated from the
# MOF subset of the Cambridge Structural Database (CSD) v543 
# hosted by the Cambridge Crystallographic Data Centre (CCDC).
#
# This work is licensed under the Creative Commons
# Attribution-NonCommercial-ShareAlike 4.0 International License.
# To view a copy of this license, visit
# http://creativecommons.org/licenses/by-nc-sa/4.0/
# or send a letter to
# Creative Commons, PO Box 1866, Mountain View, CA 94042, USA.
#
# CIF created using the CSD Python API on 29 September 2022
# The structure has been converted into the P1 space group
# The structure has a 3D framework
# The original CSD entry NACYUM is in the monoclinic crystal system
# The framework has been calculated to contain at least 10.0% void space
# The void calculation uses a probe of radius 1.32A, grid spacing 0.4
#
###############################################################################

data_NACYUM
_chemical_formula_moiety         '(C62 H72 Co4 N12 O38 P4 V4)n'
_symmetry_cell_setting           triclinic
_symmetry_space_group_name_H-M   'P 1'
_symmetry_Int_Tables_number      1
_space_group_name_Hall           'P 1'
loop_
_symmetry_equiv_pos_site_id
_symmetry_equiv_pos_as_xyz
1 x,y,z
_cell_length_a                   8.7734(18)
_cell_length_b                   17.264(4)
_cell_length_c                   15.507(3)
_cell_angle_alpha                90
_cell_angle_beta                 93.94(3)
_cell_angle_gamma                90
_cell_volume                     2343.2
loop_
_atom_site_label
_atom_site_type_symbol
_atom_site_fract_x
_atom_site_fract_y
_atom_site_fract_z
N3 N 0.0028(3) 0.27198(17) 0.77273(18)
C11 C 0.0274(4) 0.2809(2) 0.6889(2)
H11 H 0.1288 0.2904 0.6739
Co4 Co 0.19178(5) 0.26042(3) 0.86555(3)
Co1 Co 0.19178(5) 0.23958(3) 0.36555(3)
V1 V 0.05877(6) 0.01800(3) 0.66584(4)
P1 P 0.05624(9) 0.10682(5) 0.48980(5)
N1 N 0.2837(3) 0.05061(16) 0.59954(17)
O1 O 0.0818(2) 0.19068(13) 0.46690(15)
O4 O 0.1490(3) 0.10604(14) 0.73947(15)
O5 O 0.3175(3) 0.20069(14) 0.76557(15)
C1 C 0.2414(4) 0.0574(2) 0.5055(2)
H1 H 0.2346 0.0052 0.4790
H2 H 0.3205 0.0872 0.4772
C2 C 0.3366(4) 0.1253(2) 0.6376(2)
H3 H 0.3130 0.1670 0.5949
H4 H 0.4490 0.1233 0.6488
C3 C 0.2652(4) 0.1456(2) 0.7211(2)
H5 H 0.4971 0.0080 0.6253
N2 N 0.3929(3) 0.25577(17) 0.44975(18)
C6 C 0.5262(4) 0.2201(2) 0.4390(2)
H7 H 0.5367 0.1922 0.3869
C7 C 0.6490(4) 0.2219(2) 0.5000(2)
H8 H 0.7409 0.1953 0.4899
C8 C 0.6361(4) 0.2630(2) 0.5763(2)
C9 C 0.4993(4) 0.3020(2) 0.5869(2)
H9 H 0.4864 0.3316 0.6376
C10 C 0.3829(4) 0.2969(2) 0.5223(2)
H10 H 0.2907 0.3241 0.5299
C12 C 0.9133(4) 0.2768(2) 0.6235(2)
H12 H 0.9365 0.2815 0.5647
C13 C 0.7637(4) 0.2658(2) 0.6450(2)
C14 C 0.7370(4) 0.2573(2) 0.7316(2)
H13 H 0.6360 0.2496 0.7485
C15 C 0.8585(4) 0.2602(2) 0.7930(2)
H14 H 0.8391 0.2536 0.8521
O9 O 0.1159(3) 0.35044(15) 0.40230(16)
H15 H 0.038(4) 0.366(2) 0.426(2)
H16 H 0.119(5) 0.375(3) 0.355(2)
O10 O 0.2697(3) 0.13255(15) 0.31659(17)
H17 H 0.209(4) 0.098(2) 0.302(3)
H18 H 0.357(4) 0.122(3) 0.301(4)
N4 N 0.2837(3) 0.44939(16) 0.09954(17)
O14 O 0.1490(3) 0.39396(14) 0.23947(15)
O15 O 0.3175(3) 0.29931(14) 0.26557(15)
O16 O 0.2242(3) 0.54514(14) 0.23063(15)
O17 O 0.4603(3) 0.59281(16) 0.24160(17)
C16 C 0.2414(4) 0.4426(2) 0.0055(2)
C17 C 0.3366(4) 0.3747(2) 0.1376(2)
H21 H 0.3130 0.3330 0.0949
H22 H 0.4490 0.3767 0.1488
C18 C 0.2652(4) 0.3544(2) 0.2211(2)
C19 C 0.3918(4) 0.5128(2) 0.1201(2)
H23 H 0.4971 0.4920 0.1253
H24 H 0.3853 0.5511 0.0725
C20 C 0.3581(4) 0.5531(2) 0.2043(2)
N6 N 0.0028(3) 0.22802(17) 0.27273(18)
C26 C 0.0274(4) 0.2191(2) 0.1889(2)
H29 H 0.1288 0.2096 0.1739
V2 V 0.05877(6) 0.48200(3) 0.16584(4)
O23 O 0.0421(3) 0.56552(14) 0.08096(15)
P2 P 0.05624(9) 0.39318(5) 0.98980(5)
O11 O 0.0818(2) 0.30932(13) 0.96690(15)
H19 H 0.2346 0.4948 0.9790
H20 H 0.3205 0.4128 0.9772
O18 O 0.1159(3) 0.14956(15) 0.90230(16)
H33 H 0.038(4) 0.134(2) 0.926(2)
H34 H 0.119(5) 0.125(3) 0.855(2)
O19 O 0.2697(3) 0.36745(15) 0.81659(17)
H35 H 0.209(4) 0.402(2) 0.802(3)
H36 H 0.357(4) 0.378(3) 0.801(4)
N7 N 0.3929(3) 0.24423(17) 0.94975(18)
O6 O 0.2242(3) 0.95486(14) 0.73063(15)
O7 O 0.4603(3) 0.90719(16) 0.74160(17)
C4 C 0.3918(4) 0.9872(2) 0.6201(2)
H6 H 0.3853 0.9489 0.5725
C5 C 0.3581(4) 0.9469(2) 0.7043(2)
O21 O 0.0421(3) 0.93448(14) 0.58096(15)
O2 O 0.9579(3) 0.06552(14) 0.41904(15)
O3 O 0.9871(2) 0.09689(14) 0.57726(15)
O8 O 0.9136(3) 0.00135(15) 0.72145(17)
O13 O 0.9871(2) 0.40311(14) 0.07726(15)
C22 C 0.6490(4) 0.2781(2) 0.0000(2)
C23 C 0.6361(4) 0.2370(2) 0.0763(2)
C24 C 0.4993(4) 0.1980(2) 0.0869(2)
H27 H 0.4864 0.1684 0.1376
C25 C 0.3829(4) 0.2031(2) 0.0223(2)
H28 H 0.2907 0.1759 0.0299
C27 C 0.9133(4) 0.2232(2) 0.1235(2)
H30 H 0.9365 0.2185 0.0647
C28 C 0.7637(4) 0.2342(2) 0.1450(2)
C29 C 0.7370(4) 0.2427(2) 0.2316(2)
H31 H 0.6360 0.2504 0.2485
C30 C 0.8585(4) 0.2398(2) 0.2930(2)
H32 H 0.8391 0.2464 0.3521
O20 O 0.9136(3) 0.49865(15) 0.22145(17)
O12 O 0.9579(3) 0.43448(14) 0.91904(15)
C21 C 0.5262(4) 0.2799(2) 0.9390(2)
H25 H 0.5367 0.3078 0.8869
C22_2 C 0.6490(4) 0.2781(2) 1.0000(2)
H26 H 0.7409 0.3047 0.9899
V4 V 0.94123(6) 0.51800(3) 0.83416(4)
V3 V 0.94123(6) 0.98200(3) 0.33416(4)
O13_2 O 0.0129(2) 0.90311(14) 0.42274(15)
N5 N 0.6071(3) 0.74423(17) 0.55025(18)
C21_2 C 0.4738(4) 0.7799(2) 0.5610(2)
H25_2 H 0.4633 0.8078 0.6131
C22_3 C 0.3510(4) 0.7781(2) 0.5000(2)
H26_2 H 0.2591 0.8047 0.5101
C23_2 C 0.3639(4) 0.7370(2) 0.4237(2)
C24_2 C 0.5007(4) 0.6980(2) 0.4131(2)
H27_2 H 0.5136 0.6684 0.3624
C25_2 C 0.6171(4) 0.7031(2) 0.4777(2)
H28_2 H 0.7093 0.6759 0.4701
C27_2 C 0.0867(4) 0.7232(2) 0.3765(2)
H30_2 H 0.0635 0.7185 0.4353
C28_2 C 0.2363(4) 0.7342(2) 0.3550(2)
C29_2 C 0.2630(4) 0.7427(2) 0.2684(2)
H31_2 H 0.3640 0.7504 0.2515
C30_2 C 0.1415(4) 0.7398(2) 0.2070(2)
H32_2 H 0.1609 0.7464 0.1479
O20_2 O 0.0864(3) 0.99865(15) 0.27855(17)
Co5 Co 0.80822(5) 0.76042(3) 0.63445(3)
O3_2 O 0.0129(2) 0.59689(14) 0.92274(15)
O8_2 O 0.0864(3) 0.50135(15) 0.77855(17)
O16_2 O 0.7758(3) 0.04514(14) 0.26937(15)
O17_2 O 0.5397(3) 0.09281(16) 0.25840(17)
C19_2 C 0.6082(4) 0.0128(2) 0.3799(2)
H24_2 H 0.6147 0.0511 0.4275
C20_2 C 0.6419(4) 0.0531(2) 0.2957(2)
Co1_2 Co 0.80822(5) 0.73958(3) 0.13445(3)
P1_2 P 0.94376(9) 0.60682(5) 0.01020(5)
O1_2 O 0.9182(2) 0.69068(13) 0.03310(15)
H1_2 H 0.7654 0.5052 0.0210
H2_2 H 0.6795 0.5872 0.0228
N2_2 N 0.6071(3) 0.75577(17) 0.05025(18)
C6_2 C 0.4738(4) 0.7201(2) 0.0610(2)
H7_2 H 0.4633 0.6922 0.1131
C7_2 C 0.3510(4) 0.7219(2) 0.0000(2)
H8_2 H 0.2591 0.6953 0.0101
O9_2 O 0.8841(3) 0.85044(15) 0.09770(16)
H15_2 H 0.962(4) 0.866(2) 0.074(2)
H16_2 H 0.881(5) 0.875(3) 0.145(2)
O10_2 O 0.7303(3) 0.63255(15) 0.18341(17)
H17_2 H 0.791(4) 0.598(2) 0.198(3)
H18_2 H 0.643(4) 0.622(3) 0.199(4)
P2_2 P 0.94376(9) 0.89318(5) 0.51020(5)
N4_2 N 0.7163(3) 0.94939(16) 0.40046(17)
O11_2 O 0.9182(2) 0.80932(13) 0.53310(15)
O14_2 O 0.8510(3) 0.89396(14) 0.26053(15)
O15_2 O 0.6825(3) 0.79931(14) 0.23443(15)
C16_2 C 0.7586(4) 0.9426(2) 0.4945(2)
H19_2 H 0.7654 0.9948 0.5210
H20_2 H 0.6795 0.9128 0.5228
C17_2 C 0.6634(4) 0.8747(2) 0.3624(2)
H21_2 H 0.6870 0.8330 0.4051
H22_2 H 0.5510 0.8767 0.3512
C18_2 C 0.7348(4) 0.8544(2) 0.2789(2)
H23_2 H 0.5029 0.9920 0.3747
N6_2 N 0.9972(3) 0.72802(17) 0.22727(18)
C26_2 C 0.9726(4) 0.7191(2) 0.3111(2)
H29_2 H 0.8712 0.7096 0.3261
O18_2 O 0.8841(3) 0.64956(15) 0.59770(16)
H33_2 H 0.962(4) 0.634(2) 0.574(2)
H34_2 H 0.881(5) 0.625(3) 0.645(2)
O19_2 O 0.7303(3) 0.86745(15) 0.68341(17)
H35_2 H 0.791(4) 0.902(2) 0.698(3)
H36_2 H 0.643(4) 0.878(3) 0.699(4)
O22 O 0.6825(3) 0.70069(14) 0.73443(15)
N8 N 0.9972(3) 0.77198(17) 0.72727(18)
N1_2 N 0.7163(3) 0.55061(16) 0.90046(17)
O4_2 O 0.8510(3) 0.60604(14) 0.76053(15)
O6_2 O 0.7758(3) 0.45486(14) 0.76937(15)
O7_2 O 0.5397(3) 0.40719(16) 0.75840(17)
C1_2 C 0.7586(4) 0.5574(2) 0.9945(2)
C2_2 C 0.6634(4) 0.6253(2) 0.8624(2)
H3_2 H 0.6870 0.6670 0.9051
H4_2 H 0.5510 0.6233 0.8512
C3_2 C 0.7348(4) 0.6456(2) 0.7789(2)
C4_2 C 0.6082(4) 0.4872(2) 0.8799(2)
H5_2 H 0.5029 0.5080 0.8747
H6_2 H 0.6147 0.4489 0.9275
C5_2 C 0.6419(4) 0.4469(2) 0.7957(2)
C7_3 C 0.3510(4) 0.7219(2) 1.0000(2)
C8_2 C 0.3639(4) 0.7630(2) 0.9237(2)
C9_2 C 0.5007(4) 0.8020(2) 0.9131(2)
H9_2 H 0.5136 0.8316 0.8624
C10_2 C 0.6171(4) 0.7969(2) 0.9777(2)
H10_2 H 0.7093 0.8241 0.9701
C12_2 C 0.0867(4) 0.7768(2) 0.8765(2)
H12_2 H 0.0635 0.7815 0.9353
C13_2 C 0.2363(4) 0.7658(2) 0.8550(2)
C14_2 C 0.2630(4) 0.7573(2) 0.7684(2)
H13_2 H 0.3640 0.7496 0.7515
C15_2 C 0.1415(4) 0.7602(2) 0.7070(2)
H14_2 H 0.1609 0.7536 0.6479
C11_2 C 0.9726(4) 0.7809(2) 0.8111(2)
H11_2 H 0.8712 0.7904 0.8261
loop_
_geom_bond_atom_site_label_1
_geom_bond_atom_site_label_2
_geom_bond_site_symmetry_1
_geom_bond_site_symmetry_2
N3 C11 1_555 1_555
C11 H11 1_555 1_555
Co4 N3 1_555 1_555
Co1 O1 1_555 1_555
V1 N1 1_555 1_555
P1 O1 1_555 1_555
N1 C1 1_555 1_555
O4 V1 1_555 1_555
O5 C3 1_555 1_555
C1 P1 1_555 1_555
H1 C1 1_555 1_555
H2 C1 1_555 1_555
C2 N1 1_555 1_555
H3 C2 1_555 1_555
H4 C2 1_555 1_555
C3 O4 1_555 1_555
N2 Co1 1_555 1_555
C6 N2 1_555 1_555
H7 C6 1_555 1_555
C7 C6 1_555 1_555
H8 C7 1_555 1_555
C8 C7 1_555 1_555
C9 C8 1_555 1_555
H9 C9 1_555 1_555
C10 N2 1_555 1_555
H10 C10 1_555 1_555
H12 C12 1_555 1_555
C13 C8 1_555 1_555
C14 C13 1_555 1_555
H13 C14 1_555 1_555
H14 C15 1_555 1_555
O9 Co1 1_555 1_555
H15 O9 1_555 1_555
H16 O9 1_555 1_555
O10 Co1 1_555 1_555
H17 O10 1_555 1_555
H18 O10 1_555 1_555
N4 C16 1_555 1_555
O14 C18 1_555 1_555
O15 Co1 1_555 1_555
O16 C20 1_555 1_555
O17 C20 1_555 1_555
C17 N4 1_555 1_555
H21 C17 1_555 1_555
H22 C17 1_555 1_555
C18 O15 1_555 1_555
C19 N4 1_555 1_555
H23 C19 1_555 1_555
H24 C19 1_555 1_555
C20 C19 1_555 1_555
N6 Co1 1_555 1_555
C26 N6 1_555 1_555
H29 C26 1_555 1_555
V2 N4 1_555 1_555
Co4 O5 1_555 1_555
O23 V2 1_555 1_555
C2 C3 1_555 1_555
C9 C10 1_555 1_555
C12 C13 1_555 1_555
C14 C15 1_555 1_555
O14 V2 1_555 1_555
O16 V2 1_555 1_555
C17 C18 1_555 1_555
P2 O11 1_555 1_555
O11 Co4 1_555 1_555
Co4 O18 1_555 1_555
O18 H33 1_555 1_555
H34 O18 1_555 1_555
O19 Co4 1_555 1_555
H35 O19 1_555 1_555
H36 O19 1_555 1_555
N7 Co4 1_555 1_555
O7 C5 1_555 1_555
H6 C4 1_555 1_555
C5 O6 1_555 1_555
C4 C5 1_555 1_555
C23 C22 1_555 1_555
C24 C23 1_555 1_555
H27 C24 1_555 1_555
H28 C25 1_555 1_555
H30 C27 1_555 1_555
C28 C23 1_555 1_555
C29 C28 1_555 1_555
H31 C29 1_555 1_555
H32 C30 1_555 1_555
C24 C25 1_555 1_555
C27 C28 1_555 1_555
C29 C30 1_555 1_555
N7 C21 1_555 1_555
C21 H25 1_555 1_555
C22_2 C21 1_555 1_555
H26 C22_2 1_555 1_555
V4 O12 1_555 1_555
N5 C21_2 1_555 1_555
C21_2 H25_2 1_555 1_555
C22_3 C21_2 1_555 1_555
H26_2 C22_3 1_555 1_555
C23_2 C22_3 1_555 1_555
C24_2 C23_2 1_555 1_555
H27_2 C24_2 1_555 1_555
C25_2 N5 1_555 1_555
H28_2 C25_2 1_555 1_555
H30_2 C27_2 1_555 1_555
C28_2 C23_2 1_555 1_555
C29_2 C28_2 1_555 1_555
H31_2 C29_2 1_555 1_555
H32_2 C30_2 1_555 1_555
Co5 N5 1_555 1_555
C24_2 C25_2 1_555 1_555
C27_2 C28_2 1_555 1_555
C29_2 C30_2 1_555 1_555
O16_2 C20_2 1_555 1_555
O17_2 C20_2 1_555 1_555
H24_2 C19_2 1_555 1_555
C20_2 C19_2 1_555 1_555
Co1_2 O1_2 1_555 1_555
P1_2 O1_2 1_555 1_555
N2_2 Co1_2 1_555 1_555
C6_2 N2_2 1_555 1_555
H7_2 C6_2 1_555 1_555
C7_2 C6_2 1_555 1_555
H8_2 C7_2 1_555 1_555
O9_2 Co1_2 1_555 1_555
H15_2 O9_2 1_555 1_555
H16_2 O9_2 1_555 1_555
O10_2 Co1_2 1_555 1_555
H17_2 O10_2 1_555 1_555
H18_2 O10_2 1_555 1_555
P2_2 O11_2 1_555 1_555
N4_2 C16_2 1_555 1_555
O11_2 Co5 1_555 1_555
O14_2 C18_2 1_555 1_555
O15_2 Co1_2 1_555 1_555
C16_2 P2_2 1_555 1_555
H19_2 C16_2 1_555 1_555
H20_2 C16_2 1_555 1_555
C17_2 N4_2 1_555 1_555
H21_2 C17_2 1_555 1_555
H22_2 C17_2 1_555 1_555
C18_2 O15_2 1_555 1_555
N6_2 Co1_2 1_555 1_555
C26_2 N6_2 1_555 1_555
H29_2 C26_2 1_555 1_555
Co5 O18_2 1_555 1_555
V3 N4_2 1_555 1_555
O18_2 H33_2 1_555 1_555
H34_2 O18_2 1_555 1_555
O19_2 Co5 1_555 1_555
H35_2 O19_2 1_555 1_555
H36_2 O19_2 1_555 1_555
O22 Co5 1_555 1_555
N8 Co5 1_555 1_555
O14_2 V3 1_555 1_555
C17_2 C18_2 1_555 1_555
V4 N1_2 1_555 1_555
N1_2 C1_2 1_555 1_555
O4_2 V4 1_555 1_555
O22 C3_2 1_555 1_555
O6_2 V4 1_555 1_555
O7_2 C5_2 1_555 1_555
C2_2 N1_2 1_555 1_555
H3_2 C2_2 1_555 1_555
H4_2 C2_2 1_555 1_555
C3_2 O4_2 1_555 1_555
C4_2 N1_2 1_555 1_555
H5_2 C4_2 1_555 1_555
H6_2 C4_2 1_555 1_555
C5_2 O6_2 1_555 1_555
C8_2 C7_3 1_555 1_555
C9_2 C8_2 1_555 1_555
H9_2 C9_2 1_555 1_555
H10_2 C10_2 1_555 1_555
H12_2 C12_2 1_555 1_555
C13_2 C8_2 1_555 1_555
C14_2 C13_2 1_555 1_555
H13_2 C14_2 1_555 1_555
H14_2 C15_2 1_555 1_555
C2_2 C3_2 1_555 1_555
C4_2 C5_2 1_555 1_555
C9_2 C10_2 1_555 1_555
C12_2 C13_2 1_555 1_555
C14_2 C15_2 1_555 1_555
N8 C11_2 1_555 1_555
C11_2 H11_2 1_555 1_555

#END
