
###############################################################################
#
# This file contains modified crystal structure data generated from the
# MOF subset of the Cambridge Structural Database (CSD) v543 
# hosted by the Cambridge Crystallographic Data Centre (CCDC).
#
# This work is licensed under the Creative Commons
# Attribution-NonCommercial-ShareAlike 4.0 International License.
# To view a copy of this license, visit
# http://creativecommons.org/licenses/by-nc-sa/4.0/
# or send a letter to
# Creative Commons, PO Box 1866, Mountain View, CA 94042, USA.
#
# CIF created using the CSD Python API on 29 September 2022
# The structure has been converted into the P1 space group
# The structure has a 3D framework
# The original CSD entry NACYOG is in the monoclinic crystal system
# The framework has been calculated to contain at least 10.0% void space
# The void calculation uses a probe of radius 1.32A, grid spacing 0.4
#
###############################################################################

data_NACYOG
_chemical_formula_moiety         '(C60 H72 Cd4 N12 O38 P4 V4)n'
_symmetry_cell_setting           triclinic
_symmetry_space_group_name_H-M   'P 1'
_symmetry_Int_Tables_number      1
_space_group_name_Hall           'P 1'
loop_
_symmetry_equiv_pos_site_id
_symmetry_equiv_pos_as_xyz
1 x,y,z
_cell_length_a                   9.1267(18)
_cell_length_b                   17.610(4)
_cell_length_c                   15.361(3)
_cell_angle_alpha                90
_cell_angle_beta                 93.06(3)
_cell_angle_gamma                90
_cell_volume                     2465.32
loop_
_atom_site_label
_atom_site_type_symbol
_atom_site_fract_x
_atom_site_fract_y
_atom_site_fract_z
O12 O 0.0491(3) 0.43022(15) 0.08080(17)
N5 N 0.6108(3) 0.24179(18) 0.0452(2)
C21 C 0.4853(4) 0.2788(2) 0.0576(3)
H25 H 0.4781 0.3077 0.1094
H26 H 0.2785 0.3035 0.0097
V4 V 0.07003(6) 0.51176(3) 0.16758(4)
Cd5 Cd 0.82055(3) 0.256855(15) 0.134090(16)
N8 N 0.0160(4) 0.2681(2) 0.2322(2)
O2 O 0.0491(3) 0.06978(15) 0.58080(17)
O3 O 0.0146(3) 0.08768(15) 0.41792(16)
O13 O 0.0146(3) 0.41232(15) 0.91792(16)
N6 N 0.0160(4) 0.2319(2) 0.7322(2)
C22 C 0.3659(4) 0.2768(2) 0.9984(3)
C23 C 0.3753(4) 0.2351(2) 0.9219(2)
C24 C 0.5050(4) 0.1960(2) 0.9090(3)
H27 H 0.5155 0.1668 0.8577
C25 C 0.6186(4) 0.2005(2) 0.9725(3)
H28 H 0.7061 0.1729 0.9640
C27 C 0.1079(4) 0.2273(2) 0.8807(3)
H30 H 0.0880 0.2242 0.9406
C28 C 0.2509(4) 0.2333(2) 0.8556(3)
C29 C 0.2742(5) 0.2391(3) 0.7668(3)
H31 H 0.3708 0.2435 0.7472
C30 C 0.1545(5) 0.2382(3) 0.7079(3)
H32 H 0.1709 0.2422 0.6475
O20 O 0.0631(3) 0.50637(17) 0.77033(18)
O8 O 0.0631(3) 0.99363(17) 0.27033(18)
V3 V 0.07003(6) 0.98824(3) 0.66758(4)
P2 P 0.95177(10) 0.39530(5) 0.00723(6)
O11 O 0.9290(3) 0.31133(15) 0.02150(17)
C16 C 0.7733(4) 0.4440(2) 0.0009(2)
H19 H 0.7826 0.4945 0.0289
H20 H 0.7004 0.4140 0.0318
O18 O 0.8942(3) 0.13713(16) 0.09144(19)
H33 H 0.975(5) 0.124(3) 0.070(3)
H34 H 0.889(7) 0.114(4) 0.141(3)
O19 O 0.7419(3) 0.36996(17) 0.1980(2)
H35 H 0.805(4) 0.404(2) 0.208(3)
H36 H 0.660(4) 0.384(3) 0.216(4)
O22 O 0.6867(3) 0.19560(16) 0.24235(18)
Cd1 Cd 0.82055(3) 0.243145(15) 0.634090(16)
V1 V 0.92997(6) 0.01176(3) 0.33242(4)
P1 P 0.95177(10) 0.10470(5) 0.50723(6)
N1 N 0.7242(3) 0.04732(17) 0.40745(19)
O1 O 0.9290(3) 0.18867(15) 0.52150(17)
O4 O 0.8451(3) 0.09997(16) 0.26091(17)
C1 C 0.7733(4) 0.0560(2) 0.5009(2)
H1 H 0.7826 0.0055 0.5289
H2 H 0.7004 0.0860 0.5318
C2 C 0.6694(4) 0.1198(2) 0.3693(2)
H3 H 0.6907 0.1612 0.4117
H4 H 0.5616 0.1165 0.3592
C3 C 0.7368(4) 0.1397(2) 0.2841(2)
H5 H 0.5169 0.0050 0.3941
N2 N 0.6108(3) 0.25821(18) 0.5452(2)
C6 C 0.4853(4) 0.2212(2) 0.5576(3)
H7 H 0.4781 0.1923 0.6094
C7 C 0.3659(4) 0.2232(2) 0.4984(3)
H8 H 0.2785 0.1965 0.5097
C8 C 0.3753(4) 0.2649(2) 0.4219(2)
C9 C 0.5050(4) 0.3040(2) 0.4090(3)
H9 H 0.5155 0.3332 0.3577
C10 C 0.6186(4) 0.2995(2) 0.4725(3)
H10 H 0.7061 0.3271 0.4640
C12 C 0.1079(4) 0.2727(2) 0.3807(3)
H12 H 0.0880 0.2758 0.4406
C13 C 0.2509(4) 0.2667(2) 0.3556(3)
C14 C 0.2742(5) 0.2609(3) 0.2668(3)
H13 H 0.3708 0.2565 0.2472
C15 C 0.1545(5) 0.2618(3) 0.2079(3)
H14 H 0.1709 0.2578 0.1475
O9 O 0.8942(3) 0.36287(16) 0.59144(19)
H15 H 0.975(5) 0.376(3) 0.570(3)
H16 H 0.889(7) 0.386(4) 0.641(3)
O10 O 0.7419(3) 0.13004(17) 0.6980(2)
H17 H 0.805(4) 0.096(2) 0.708(3)
H18 H 0.660(4) 0.116(3) 0.716(4)
N4 N 0.7242(3) 0.45268(17) 0.90745(19)
O14 O 0.8451(3) 0.40003(16) 0.76091(17)
O15 O 0.6867(3) 0.30440(16) 0.74235(18)
O16 O 0.7642(3) 0.54750(16) 0.77391(17)
O17 O 0.5337(3) 0.58834(18) 0.7692(2)
C17 C 0.6694(4) 0.3802(2) 0.8693(2)
H21 H 0.6907 0.3388 0.9117
H22 H 0.5616 0.3835 0.8592
C18 C 0.7368(4) 0.3603(2) 0.7841(2)
C19 C 0.6180(4) 0.5151(2) 0.8925(2)
H23 H 0.5169 0.4950 0.8941
H24 H 0.6320 0.5533 0.9396
C20 C 0.6380(4) 0.5530(2) 0.8047(2)
C26 C 0.9945(4) 0.2260(2) 0.8173(3)
H29 H 0.8969 0.2207 0.8351
V2 V 0.92997(6) 0.48824(3) 0.83242(4)
O23 O 0.9509(3) 0.56978(15) 0.91920(17)
O6 O 0.7642(3) 0.95250(16) 0.27391(17)
O7 O 0.5337(3) 0.91166(18) 0.2692(2)
C4 C 0.6180(4) 0.9849(2) 0.3925(2)
H6 H 0.6320 0.9467 0.4396
C5 C 0.6380(4) 0.9470(2) 0.3047(2)
O21 O 0.9509(3) 0.93022(15) 0.41920(17)
C11 C 0.9945(4) 0.2740(2) 0.3173(3)
H11 H 0.8969 0.2793 0.3351
C11_2 C 0.0055(4) 0.7740(2) 0.1827(3)
H11_2 H 0.1031 0.7793 0.1649
Cd4 Cd 0.17945(3) 0.756855(15) 0.365910(16)
O16_2 O 0.2358(3) 0.04750(16) 0.72609(17)
O17_2 O 0.4663(3) 0.08834(18) 0.7308(2)
C19_2 C 0.3820(4) 0.0151(2) 0.6075(2)
H24_2 H 0.3680 0.0533 0.5604
C20_2 C 0.3620(4) 0.0530(2) 0.6953(2)
N1_2 N 0.2758(3) 0.54732(17) 0.09255(19)
O4_2 O 0.1549(3) 0.59997(16) 0.23909(17)
O5 O 0.3133(3) 0.69560(16) 0.25765(18)
O6_2 O 0.2358(3) 0.45250(16) 0.22609(17)
O7_2 O 0.4663(3) 0.41166(18) 0.2308(2)
C2_2 C 0.3306(4) 0.6198(2) 0.1307(2)
H3_2 H 0.3093 0.6612 0.0883
H4_2 H 0.4384 0.6165 0.1408
C3_2 C 0.2632(4) 0.6397(2) 0.2159(2)
C4_2 C 0.3820(4) 0.4849(2) 0.1075(2)
H5_2 H 0.4831 0.5050 0.1059
H6_2 H 0.3680 0.4467 0.0604
C5_2 C 0.3620(4) 0.4470(2) 0.1953(2)
N3 N 0.9840(4) 0.7681(2) 0.2678(2)
C7_2 C 0.6341(4) 0.7232(2) 0.0016(3)
C8_2 C 0.6247(4) 0.7649(2) 0.0781(2)
C9_2 C 0.4950(4) 0.8040(2) 0.0910(3)
H9_2 H 0.4845 0.8332 0.1423
C10_2 C 0.3814(4) 0.7995(2) 0.0275(3)
H10_2 H 0.2939 0.8271 0.0360
C12_2 C 0.8921(4) 0.7727(2) 0.1193(3)
H12_2 H 0.9120 0.7758 0.0594
C13_2 C 0.7491(4) 0.7667(2) 0.1444(3)
C14_2 C 0.7258(5) 0.7609(3) 0.2332(3)
H13_2 H 0.6292 0.7565 0.2528
C15_2 C 0.8455(5) 0.7618(3) 0.2921(3)
H14_2 H 0.8291 0.7578 0.3525
Cd1_2 Cd 0.17945(3) 0.743145(15) 0.865910(16)
P1_2 P 0.04823(10) 0.60470(5) 0.99277(6)
O1_2 O 0.0710(3) 0.68867(15) 0.97850(17)
C1_2 C 0.2267(4) 0.5560(2) 0.9991(2)
H1_2 H 0.2174 0.5055 0.9711
H2_2 H 0.2996 0.5860 0.9682
N2_2 N 0.3892(3) 0.75821(18) 0.9548(2)
C6_2 C 0.5147(4) 0.7212(2) 0.9424(3)
H7_2 H 0.5219 0.6923 0.8906
H8_2 H 0.7215 0.6965 0.9903
O9_2 O 0.1058(3) 0.86287(16) 0.90856(19)
H15_2 H 0.025(5) 0.876(3) 0.930(3)
H16_2 H 0.111(7) 0.886(4) 0.859(3)
O10_2 O 0.2581(3) 0.63004(17) 0.8020(2)
H17_2 H 0.195(4) 0.596(2) 0.792(3)
H18_2 H 0.340(4) 0.616(3) 0.784(4)
P2_2 P 0.04823(10) 0.89530(5) 0.49277(6)
N4_2 N 0.2758(3) 0.95268(17) 0.59255(19)
O11_2 O 0.0710(3) 0.81133(15) 0.47850(17)
O14_2 O 0.1549(3) 0.90003(16) 0.73909(17)
O15_2 O 0.3133(3) 0.80440(16) 0.75765(18)
C16_2 C 0.2267(4) 0.9440(2) 0.4991(2)
H19_2 H 0.2174 0.9945 0.4711
H20_2 H 0.2996 0.9140 0.4682
C17_2 C 0.3306(4) 0.8802(2) 0.6307(2)
H21_2 H 0.3093 0.8388 0.5883
H22_2 H 0.4384 0.8835 0.6408
C18_2 C 0.2632(4) 0.8603(2) 0.7159(2)
H23_2 H 0.4831 0.9950 0.6059
C26_2 C 0.0055(4) 0.7260(2) 0.6827(3)
H29_2 H 0.1031 0.7207 0.6649
O18_2 O 0.1058(3) 0.63713(16) 0.40856(19)
H33_2 H 0.025(5) 0.624(3) 0.430(3)
H34_2 H 0.111(7) 0.614(4) 0.359(3)
O19_2 O 0.2581(3) 0.86996(17) 0.3020(2)
H35_2 H 0.195(4) 0.904(2) 0.292(3)
H36_2 H 0.340(4) 0.884(3) 0.284(4)
N7 N 0.3892(3) 0.74179(18) 0.4548(2)
O20_2 O 0.9369(3) 0.00637(17) 0.72967(18)
O3_2 O 0.9854(3) 0.58768(15) 0.08208(16)
O8_2 O 0.9369(3) 0.49363(17) 0.22967(18)
O13_2 O 0.9854(3) 0.91232(15) 0.58208(16)
N6_2 N 0.9840(4) 0.7319(2) 0.7678(2)
C21_2 C 0.5147(4) 0.7788(2) 0.4424(3)
H25_2 H 0.5219 0.8077 0.3906
C22_2 C 0.6341(4) 0.7768(2) 0.5016(3)
H26_2 H 0.7215 0.8035 0.4903
C23_2 C 0.6247(4) 0.7351(2) 0.5781(2)
C24_2 C 0.4950(4) 0.6960(2) 0.5910(3)
H27_2 H 0.4845 0.6668 0.6423
C25_2 C 0.3814(4) 0.7005(2) 0.5275(3)
H28_2 H 0.2939 0.6729 0.5360
C27_2 C 0.8921(4) 0.7273(2) 0.6193(3)
H30_2 H 0.9120 0.7242 0.5594
C28_2 C 0.7491(4) 0.7333(2) 0.6444(3)
C29_2 C 0.7258(5) 0.7391(3) 0.7332(3)
H31_2 H 0.6292 0.7435 0.7528
C30_2 C 0.8455(5) 0.7382(3) 0.7921(3)
H32_2 H 0.8291 0.7422 0.8525
loop_
_geom_bond_atom_site_label_1
_geom_bond_atom_site_label_2
_geom_bond_site_symmetry_1
_geom_bond_site_symmetry_2
N5 C21 1_555 1_555
C21 H25 1_555 1_555
V4 O12 1_555 1_555
Cd5 N5 1_555 1_555
C23 C22 1_555 1_555
C24 C23 1_555 1_555
H27 C24 1_555 1_555
H28 C25 1_555 1_555
H30 C27 1_555 1_555
C28 C23 1_555 1_555
C29 C28 1_555 1_555
H31 C29 1_555 1_555
C30 N6 1_555 1_555
H32 C30 1_555 1_555
C24 C25 1_555 1_555
C27 C28 1_555 1_555
C29 C30 1_555 1_555
P2 O11 1_555 1_555
O11 Cd5 1_555 1_555
C16 P2 1_555 1_555
H19 C16 1_555 1_555
H20 C16 1_555 1_555
Cd5 O18 1_555 1_555
O18 H33 1_555 1_555
H34 O18 1_555 1_555
O19 Cd5 1_555 1_555
H35 O19 1_555 1_555
H36 O19 1_555 1_555
O22 Cd5 1_555 1_555
Cd1 O1 1_555 1_555
V1 N1 1_555 1_555
P1 O1 1_555 1_555
N1 C1 1_555 1_555
O4 V1 1_555 1_555
O22 C3 1_555 1_555
C1 P1 1_555 1_555
H1 C1 1_555 1_555
H2 C1 1_555 1_555
C2 N1 1_555 1_555
H3 C2 1_555 1_555
H4 C2 1_555 1_555
C3 O4 1_555 1_555
N2 Cd1 1_555 1_555
C6 N2 1_555 1_555
H7 C6 1_555 1_555
C7 C6 1_555 1_555
H8 C7 1_555 1_555
C8 C7 1_555 1_555
C9 C8 1_555 1_555
H9 C9 1_555 1_555
C10 N2 1_555 1_555
H10 C10 1_555 1_555
H12 C12 1_555 1_555
C13 C8 1_555 1_555
C14 C13 1_555 1_555
H13 C14 1_555 1_555
C15 N8 1_555 1_555
H14 C15 1_555 1_555
O9 Cd1 1_555 1_555
H15 O9 1_555 1_555
H16 O9 1_555 1_555
O10 Cd1 1_555 1_555
H17 O10 1_555 1_555
H18 O10 1_555 1_555
O14 C18 1_555 1_555
O15 Cd1 1_555 1_555
O16 C20 1_555 1_555
O17 C20 1_555 1_555
C17 N4 1_555 1_555
H21 C17 1_555 1_555
H22 C17 1_555 1_555
C18 O15 1_555 1_555
C19 N4 1_555 1_555
H23 C19 1_555 1_555
H24 C19 1_555 1_555
C20 C19 1_555 1_555
H29 C26 1_555 1_555
V2 N4 1_555 1_555
O23 V2 1_555 1_555
C2 C3 1_555 1_555
C9 C10 1_555 1_555
C12 C13 1_555 1_555
C14 C15 1_555 1_555
O14 V2 1_555 1_555
O16 V2 1_555 1_555
C17 C18 1_555 1_555
O7 C5 1_555 1_555
H6 C4 1_555 1_555
C5 O6 1_555 1_555
C4 C5 1_555 1_555
C11 H11 1_555 1_555
C11_2 H11_2 1_555 1_555
O16_2 C20_2 1_555 1_555
O17_2 C20_2 1_555 1_555
H24_2 C19_2 1_555 1_555
C20_2 C19_2 1_555 1_555
V4 N1_2 1_555 1_555
O4_2 V4 1_555 1_555
O5 C3_2 1_555 1_555
O6_2 V4 1_555 1_555
O7_2 C5_2 1_555 1_555
C2_2 N1_2 1_555 1_555
H3_2 C2_2 1_555 1_555
H4_2 C2_2 1_555 1_555
C3_2 O4_2 1_555 1_555
C4_2 N1_2 1_555 1_555
H5_2 C4_2 1_555 1_555
H6_2 C4_2 1_555 1_555
C5_2 O6_2 1_555 1_555
C8_2 C7_2 1_555 1_555
C9_2 C8_2 1_555 1_555
H9_2 C9_2 1_555 1_555
H10_2 C10_2 1_555 1_555
H12_2 C12_2 1_555 1_555
C13_2 C8_2 1_555 1_555
C14_2 C13_2 1_555 1_555
H13_2 C14_2 1_555 1_555
C15_2 N3 1_555 1_555
H14_2 C15_2 1_555 1_555
Cd4 O5 1_555 1_555
C2_2 C3_2 1_555 1_555
C4_2 C5_2 1_555 1_555
C9_2 C10_2 1_555 1_555
C12_2 C13_2 1_555 1_555
C14_2 C15_2 1_555 1_555
Cd1_2 O1_2 1_555 1_555
P1_2 O1_2 1_555 1_555
C1_2 P1_2 1_555 1_555
H1_2 C1_2 1_555 1_555
H2_2 C1_2 1_555 1_555
N2_2 Cd1_2 1_555 1_555
C6_2 N2_2 1_555 1_555
H7_2 C6_2 1_555 1_555
O9_2 Cd1_2 1_555 1_555
H15_2 O9_2 1_555 1_555
H16_2 O9_2 1_555 1_555
O10_2 Cd1_2 1_555 1_555
H17_2 O10_2 1_555 1_555
H18_2 O10_2 1_555 1_555
P2_2 O11_2 1_555 1_555
N4_2 C16_2 1_555 1_555
O11_2 Cd4 1_555 1_555
O14_2 C18_2 1_555 1_555
O15_2 Cd1_2 1_555 1_555
C16_2 P2_2 1_555 1_555
H19_2 C16_2 1_555 1_555
H20_2 C16_2 1_555 1_555
C17_2 N4_2 1_555 1_555
H21_2 C17_2 1_555 1_555
H22_2 C17_2 1_555 1_555
C18_2 O15_2 1_555 1_555
H29_2 C26_2 1_555 1_555
Cd4 O18_2 1_555 1_555
V3 N4_2 1_555 1_555
O18_2 H33_2 1_555 1_555
H34_2 O18_2 1_555 1_555
O19_2 Cd4 1_555 1_555
H35_2 O19_2 1_555 1_555
H36_2 O19_2 1_555 1_555
N7 Cd4 1_555 1_555
O14_2 V3 1_555 1_555
C17_2 C18_2 1_555 1_555
N7 C21_2 1_555 1_555
C21_2 H25_2 1_555 1_555
C22_2 C21_2 1_555 1_555
H26_2 C22_2 1_555 1_555
C23_2 C22_2 1_555 1_555
C24_2 C23_2 1_555 1_555
H27_2 C24_2 1_555 1_555
C25_2 N7 1_555 1_555
H28_2 C25_2 1_555 1_555
H30_2 C27_2 1_555 1_555
C28_2 C23_2 1_555 1_555
C29_2 C28_2 1_555 1_555
H31_2 C29_2 1_555 1_555
C30_2 N6_2 1_555 1_555
H32_2 C30_2 1_555 1_555
C24_2 C25_2 1_555 1_555
C27_2 C28_2 1_555 1_555
C29_2 C30_2 1_555 1_555

#END
