
###############################################################################
#
# This file contains modified crystal structure data generated from the
# MOF subset of the Cambridge Structural Database (CSD) v543 
# hosted by the Cambridge Crystallographic Data Centre (CCDC).
#
# This work is licensed under the Creative Commons
# Attribution-NonCommercial-ShareAlike 4.0 International License.
# To view a copy of this license, visit
# http://creativecommons.org/licenses/by-nc-sa/4.0/
# or send a letter to
# Creative Commons, PO Box 1866, Mountain View, CA 94042, USA.
#
# CIF created using the CSD Python API on 29 September 2022
# The structure has been converted into the P1 space group
# The structure has a 3D framework
# The original CSD entry NADBED is in the triclinic crystal system
# The framework has been calculated to contain at least 10.0% void space
# The void calculation uses a probe of radius 1.32A, grid spacing 0.4
#
###############################################################################

data_NADBED
_chemical_formula_moiety         '(C96 H64 Co4 N8 O20)n'
_symmetry_cell_setting           triclinic
_symmetry_space_group_name_H-M   'P 1'
_symmetry_Int_Tables_number      1
_space_group_name_Hall           'P 1'
loop_
_symmetry_equiv_pos_site_id
_symmetry_equiv_pos_as_xyz
1 x,y,z
_cell_length_a                   12.068(2)
_cell_length_b                   14.523(3)
_cell_length_c                   14.662(3)
_cell_angle_alpha                68.654(3)
_cell_angle_beta                 79.061(3)
_cell_angle_gamma                75.130(3)
_cell_volume                     2299.99
loop_
_atom_site_label
_atom_site_type_symbol
_atom_site_fract_x
_atom_site_fract_y
_atom_site_fract_z
_atom_site_U_iso_or_equiv
_atom_site_thermal_displace_type
O9 O 0.0624(2) 0.36477(17) 0.54785(19) 0.0356 Uani
H1 H 0.0774(3) 0.3536(2) 0.6119(6) 0.0430 Uiso
H2 H 0.1103(5) 0.3440(2) 0.5142(3) 0.0430 Uiso
C64 C 0.0620(5) 0.4074(3) 0.0485(3) 0.0580 Uani
H44 H 0.1052 0.3444 0.0805 0.0690 Uiso
O22 O 0.0882(2) 0.16394(18) 0.52589(17) 0.0310 Uani
O23 O 0.0342(2) 0.09175(18) 0.92985(17) 0.0297 Uani
O25 O 0.0212(2) 0.18163(17) 0.72059(17) 0.0283 Uani
N6 N 0.0731(3) 0.6663(2) 0.5815(2) 0.0323 Uani
C57 C 0.0828(4) 0.5673(3) 0.6277(3) 0.0423 Uani
H39 H 0.1027 0.5252 0.5897 0.0510 Uiso
C58 C 0.0652(4) 0.5242(3) 0.7274(3) 0.0483 Uani
H40 H 0.0733 0.4545 0.7551 0.0570 Uiso
C59 C 0.0356(4) 0.5828(3) 0.7881(3) 0.0393 Uani
C60 C 0.0257(4) 0.6864(3) 0.7402(3) 0.0402 Uani
H41 H 0.0047 0.7304 0.7764 0.0480 Uiso
C61 C 0.0472(3) 0.7236(3) 0.6387(3) 0.0368 Uani
H42 H 0.0433 0.7927 0.6088 0.0440 Uiso
C62 C 0.0160(4) 0.5402(3) 0.8964(3) 0.0442 Uani
C63 C 0.0771(5) 0.4465(3) 0.9474(3) 0.0603 Uani
H43 H 0.1298 0.4090 0.9125 0.0720 Uiso
Co14 Co 0.04752(4) 0.73798(3) 0.42647(3) 0.0265 Uani
Co9 Co 0.06555(4) 0.92518(3) 0.16270(3) 0.0264 Uani
N10 N 0.0542(3) 0.9484(2) 0.8042(2) 0.0297 Uani
O7 O 0.1618(2) 0.0106(2) 0.03886(18) 0.0371 Uani
C32 C 0.4828(5) 0.4035(4) 0.0262(4) 0.0723 Uani
H21 H 0.4706 0.3382 0.0448 0.0860 Uiso
N5 N 0.1844(3) 0.7953(2) 0.1405(2) 0.0350 Uani
C49 C 0.2978(4) 0.7913(3) 0.1270(3) 0.0453 Uani
H33 H 0.3242 0.8400 0.1393 0.0540 Uiso
C50 C 0.3776(4) 0.7197(3) 0.0961(3) 0.0522 Uani
H34 H 0.4555 0.7216 0.0859 0.0620 Uiso
C51 C 0.3408(4) 0.6442(3) 0.0800(3) 0.0458 Uani
C52 C 0.2237(4) 0.6447(3) 0.0992(3) 0.0454 Uani
H35 H 0.1959 0.5936 0.0925 0.0540 Uiso
C53 C 0.1485(4) 0.7205(3) 0.1281(3) 0.0419 Uani
H36 H 0.0701 0.7201 0.1394 0.0510 Uiso
C54 C 0.4228(4) 0.5698(3) 0.0378(3) 0.0544 Uani
C56 C 0.4061(5) 0.4728(4) 0.0632(4) 0.0737 Uani
H38 H 0.3421 0.4539 0.1060 0.0890 Uiso
O14 O 0.2237(2) 0.2557(2) 0.4572(2) 0.0482 Uani
C67 C 0.1893(3) 0.0395(3) 0.4114(2) 0.0284 Uani
H47 H 0.1102 0.0453 0.4291 0.0340 Uiso
C68 C 0.2456(3) 0.1005(3) 0.4304(3) 0.0332 Uani
C69 C 0.3653(3) 0.0848(3) 0.4132(3) 0.0395 Uani
H48 H 0.4048 0.1236 0.4285 0.0480 Uiso
C70 C 0.4243(3) 0.0118(3) 0.3735(3) 0.0407 Uani
C72 C 0.1817(3) 0.1803(3) 0.4744(3) 0.0324 Uani
C77 C 0.6690(3) 0.0242(3) 0.1156(3) 0.0457 Uani
H51 H 0.6553 0.0652 0.0515 0.0550 Uiso
C78 C 0.5888(3) 0.0364(3) 0.1922(3) 0.0477 Uani
H52 H 0.5213 0.0854 0.1806 0.0570 Uiso
Co1 Co 0.93445(4) 0.07482(3) 0.83730(3) 0.0264 Uani
Co2 Co 0.95248(4) 0.26202(3) 0.57353(3) 0.0265 Uani
N1 N 0.8048(3) 0.3645(2) 0.6134(2) 0.0353 Uani
N2 N 0.8156(3) 0.2047(2) 0.8595(2) 0.0350 Uani
N4 N 0.9269(3) 0.3337(2) 0.4185(2) 0.0323 Uani
O1 O 0.8231(2) 0.0696(2) 0.74955(18) 0.0408 Uani
O2 O 0.8595(2) 0.15569(19) 0.59067(19) 0.0373 Uani
O5 O 0.4554(2) 0.0072(3) 0.6329(2) 0.0575 Uani
O10 O 0.1212(2) 0.28424(19) 0.7351(2) 0.0422 Uani
C1 C 0.8171(3) 0.0904(3) 0.6606(3) 0.0272 Uani
C2 C 0.7519(3) 0.0305(3) 0.6338(3) 0.0288 Uani
C7 C 0.6315(4) 0.0450(3) 0.6538(3) 0.0417 Uani
H5 H 0.5903 0.0913 0.6845 0.0500 Uiso
C9 C 0.3903(3) 0.0251(3) 0.7129(3) 0.0383 Uani
C10 C 0.2941(3) 0.1019(3) 0.6955(3) 0.0337 Uani
H6 H 0.2847 0.1463 0.6319 0.0400 Uiso
C11 C 0.2112(3) 0.1132(3) 0.7727(3) 0.0278 Uani
C12 C 0.2291(3) 0.0486(3) 0.8684(3) 0.0322 Uani
C15 C 0.1349(3) 0.0511(3) 0.9514(3) 0.0291 Uani
C16 C 0.6968(4) 0.3534(4) 0.6171(4) 0.0618 Uani
H9 H 0.6871 0.2977 0.6046 0.0740 Uiso
C17 C 0.5993(4) 0.4195(4) 0.6383(5) 0.0696 Uani
H10 H 0.5266 0.4067 0.6422 0.0830 Uiso
C18 C 0.6103(4) 0.5058(3) 0.6539(3) 0.0446 Uani
C19 C 0.7214(4) 0.5179(3) 0.6476(3) 0.0496 Uani
H11 H 0.7338 0.5749 0.6559 0.0600 Uiso
C20 C 0.8142(4) 0.4465(3) 0.6292(3) 0.0457 Uani
H12 H 0.8878 0.4562 0.6277 0.0550 Uiso
C21 C 0.5093(4) 0.5807(3) 0.6763(3) 0.0476 Uani
C22 C 0.5046(4) 0.6820(3) 0.6309(4) 0.0697 Uani
H13 H 0.5636 0.7042 0.5833 0.0840 Uiso
C23 C 0.4128(4) 0.7520(3) 0.6552(4) 0.0684 Uani
H14 H 0.4111 0.8204 0.6225 0.0820 Uiso
C24 C 0.3282(4) 0.6198(3) 0.7706(3) 0.0499 Uani
H15 H 0.2691 0.5978 0.8184 0.0600 Uiso
C25 C 0.4181(4) 0.5496(3) 0.7450(4) 0.0516 Uani
H16 H 0.4176 0.4811 0.7739 0.0620 Uiso
C26 C 0.7022(4) 0.2087(3) 0.8730(3) 0.0453 Uani
H17 H 0.6758 0.1600 0.8607 0.0540 Uiso
C27 C 0.6224(4) 0.2803(3) 0.9039(3) 0.0522 Uani
H18 H 0.5445 0.2784 0.9141 0.0620 Uiso
C28 C 0.6592(4) 0.3558(3) 0.9200(3) 0.0458 Uani
C29 C 0.7763(4) 0.3553(3) 0.9008(3) 0.0454 Uani
H19 H 0.8041 0.4064 0.9075 0.0540 Uiso
C30 C 0.8515(4) 0.2795(3) 0.8719(3) 0.0419 Uani
H20 H 0.9299 0.2799 0.8606 0.0510 Uiso
C31 C 0.5772(4) 0.4302(3) 0.9622(3) 0.0544 Uani
C33 C 0.5939(5) 0.5272(4) 0.9368(4) 0.0737 Uani
H22 H 0.6579 0.5461 0.8940 0.0890 Uiso
C34 C 0.0982(3) 0.9601(3) 0.7106(3) 0.0339 Uani
C35 C 0.1847(3) 0.8907(3) 0.6819(3) 0.0349 Uani
H24 H 0.2128 0.9039 0.6158 0.0420 Uiso
C36 C 0.2307(3) 0.8001(3) 0.7524(3) 0.0342 Uani
C37 C 0.1827(4) 0.7870(3) 0.8488(3) 0.0430 Uani
H25 H 0.2086 0.7277 0.8987 0.0520 Uiso
C38 C 0.0970(4) 0.8612(3) 0.8714(3) 0.0400 Uani
H26 H 0.0672 0.8501 0.9369 0.0480 Uiso
C39 C 0.9172(4) 0.4327(3) 0.3723(3) 0.0423 Uani
H27 H 0.8973 0.4748 0.4103 0.0510 Uiso
C40 C 0.9348(4) 0.4758(3) 0.2726(3) 0.0483 Uani
H28 H 0.9267 0.5455 0.2449 0.0570 Uiso
C41 C 0.9644(4) 0.4172(3) 0.2119(3) 0.0393 Uani
C42 C 0.9743(4) 0.3136(3) 0.2598(3) 0.0402 Uani
H29 H 0.9953 0.2696 0.2236 0.0480 Uiso
C43 C 0.9528(3) 0.2764(3) 0.3613(3) 0.0368 Uani
H30 H 0.9567 0.2073 0.3912 0.0440 Uiso
C44 C 0.9840(4) 0.4598(3) 0.1036(3) 0.0442 Uani
C45 C 0.9229(5) 0.5535(3) 0.0526(3) 0.0603 Uani
H31 H 0.8702 0.5910 0.0875 0.0720 Uiso
C47 C 0.3252(3) 0.7235(3) 0.7254(3) 0.0394 Uani
C48 C 0.1090(3) 0.1995(3) 0.7437(2) 0.0291 Uani
C55 C 0.5172(5) 0.5965(4) 0.9738(4) 0.0723 Uani
H37 H 0.5294 0.6618 0.9552 0.0860 Uiso
C46 C 0.9380(5) 0.5926(3) 0.9515(3) 0.0580 Uani
H32 H 0.8948 0.6556 0.9195 0.0690 Uiso
N7 N 0.1952(3) 0.6355(2) 0.3866(2) 0.0353 Uani
N8 N 0.9458(3) 0.0516(2) 0.1958(2) 0.0297 Uani
O11 O 0.1769(2) 0.9304(2) 0.25045(18) 0.0408 Uani
O12 O 0.1405(2) 0.84431(19) 0.40933(19) 0.0373 Uani
O15 O 0.5446(2) 0.9928(3) 0.3671(2) 0.0575 Uani
O16 O 0.9658(2) 0.90825(18) 0.07015(17) 0.0297 Uani
O18 O 0.9788(2) 0.81837(17) 0.27941(17) 0.0283 Uani
O20 O 0.8788(2) 0.71576(19) 0.2649(2) 0.0422 Uani
C65 C 0.1829(3) 0.9096(3) 0.3394(3) 0.0272 Uani
C66 C 0.2481(3) 0.9695(3) 0.3662(3) 0.0288 Uani
C71 C 0.3685(4) 0.9550(3) 0.3462(3) 0.0417 Uani
H49 H 0.4097 0.9087 0.3155 0.0500 Uiso
C73 C 0.6097(3) 0.9749(3) 0.2871(3) 0.0383 Uani
C74 C 0.7059(3) 0.8981(3) 0.3045(3) 0.0337 Uani
H50 H 0.7153 0.8537 0.3681 0.0400 Uiso
C75 C 0.7888(3) 0.8868(3) 0.2273(3) 0.0278 Uani
C76 C 0.7709(3) 0.9514(3) 0.1316(3) 0.0322 Uani
C79 C 0.8651(3) 0.9489(3) 0.0486(3) 0.0291 Uani
C80 C 0.3032(4) 0.6466(4) 0.3829(4) 0.0618 Uani
H53 H 0.3129 0.7023 0.3954 0.0740 Uiso
C81 C 0.4007(4) 0.5805(4) 0.3617(5) 0.0696 Uani
H54 H 0.4734 0.5933 0.3578 0.0830 Uiso
C82 C 0.3897(4) 0.4942(3) 0.3461(3) 0.0446 Uani
C83 C 0.2786(4) 0.4821(3) 0.3524(3) 0.0496 Uani
H55 H 0.2662 0.4251 0.3441 0.0600 Uiso
C84 C 0.1858(4) 0.5535(3) 0.3708(3) 0.0457 Uani
H56 H 0.1122 0.5438 0.3723 0.0550 Uiso
C85 C 0.4907(4) 0.4193(3) 0.3237(3) 0.0476 Uani
C86 C 0.4954(4) 0.3180(3) 0.3691(4) 0.0697 Uani
H57 H 0.4364 0.2958 0.4167 0.0840 Uiso
C87 C 0.5872(4) 0.2480(3) 0.3448(4) 0.0684 Uani
H58 H 0.5889 0.1796 0.3775 0.0820 Uiso
C88 C 0.6718(4) 0.3802(3) 0.2294(3) 0.0499 Uani
H59 H 0.7309 0.4022 0.1816 0.0600 Uiso
C89 C 0.5819(4) 0.4504(3) 0.2550(4) 0.0516 Uani
H60 H 0.5824 0.5189 0.2261 0.0620 Uiso
C90 C 0.9018(3) 0.0399(3) 0.2894(3) 0.0339 Uani
C91 C 0.8153(3) 0.1093(3) 0.3181(3) 0.0349 Uani
H62 H 0.7872 0.0961 0.3842 0.0420 Uiso
C92 C 0.7693(3) 0.1999(3) 0.2476(3) 0.0342 Uani
C93 C 0.8173(4) 0.2130(3) 0.1512(3) 0.0430 Uani
H63 H 0.7914 0.2723 0.1013 0.0520 Uiso
C94 C 0.9030(4) 0.1388(3) 0.1286(3) 0.0400 Uani
H64 H 0.9328 0.1499 0.0631 0.0480 Uiso
C95 C 0.6748(3) 0.2765(3) 0.2746(3) 0.0394 Uani
C96 C 0.8910(3) 0.8005(3) 0.2563(2) 0.0291 Uani
O3 O 0.9118(2) 0.83606(18) 0.47411(17) 0.0310 Uani
O4 O 0.7763(2) 0.7443(2) 0.5428(2) 0.0482 Uani
C3 C 0.8107(3) 0.9605(3) 0.5886(2) 0.0284 Uani
H3 H 0.8898 0.9547 0.5709 0.0340 Uiso
C4 C 0.7544(3) 0.8995(3) 0.5696(3) 0.0332 Uani
C5 C 0.6347(3) 0.9152(3) 0.5868(3) 0.0395 Uani
H4 H 0.5952 0.8764 0.5715 0.0480 Uiso
C6 C 0.5757(3) 0.9882(3) 0.6265(3) 0.0407 Uani
C8 C 0.8183(3) 0.8197(3) 0.5256(3) 0.0324 Uani
C13 C 0.3310(3) 0.9758(3) 0.8844(3) 0.0457 Uani
H7 H 0.3447 0.9348 0.9485 0.0550 Uiso
C14 C 0.4112(3) 0.9636(3) 0.8078(3) 0.0477 Uani
H8 H 0.4787 0.9146 0.8194 0.0570 Uiso
O17 O 0.8382(2) 0.9894(2) 0.96114(18) 0.0371 Uani
O19 O 0.9376(2) 0.63523(17) 0.45215(19) 0.0356 Uani
H45 H 0.9226(3) 0.6464(2) 0.3881(6) 0.0430 Uiso
H46 H 0.8897(5) 0.6560(2) 0.4858(3) 0.0430 Uiso
H23 H 0.0682 0.0189 0.6620 0.0410 Uiso
H61 H 0.9318 0.9811 0.3380 0.0410 Uiso
loop_
_atom_site_aniso_label
_atom_site_aniso_U_11
_atom_site_aniso_U_22
_atom_site_aniso_U_33
_atom_site_aniso_U_23
_atom_site_aniso_U_13
_atom_site_aniso_U_12
O9 0.0364 0.0277 0.0421 -0.0169 0.0062 -0.0053
C64 0.079 0.042 0.032 -0.0041 -0.004 0.01
O22 0.0313 0.0287 0.0323 -0.0145 0.0051 -0.0047
O23 0.0223 0.0346 0.0326 -0.0171 -0.0006 0.0004
O25 0.0225 0.0261 0.0341 -0.0118 -0.0015 0.0002
N6 0.0397 0.0275 0.0285 -0.0105 0.001 -0.0065
C57 0.059 0.03 0.038 -0.0162 -0.001 -0.005
C58 0.073 0.027 0.04 -0.0091 -0.002 -0.008
C59 0.048 0.038 0.03 -0.0108 -0.002 -0.008
C60 0.053 0.035 0.036 -0.0171 -0.0059 -0.006
C61 0.044 0.0278 0.041 -0.0114 -0.0098 -0.0077
C62 0.057 0.042 0.03 -0.01 -0.0006 -0.01
C63 0.081 0.048 0.039 -0.016 0.002 0.005
Co14 0.0256 0.0213 0.0305 -0.0112 0.0033 -0.0018
Co9 0.0227 0.0266 0.0297 -0.0142 0.0003 0.0004
N10 0.0264 0.0279 0.0355 -0.0167 0.0007 -0.0005
O7 0.029 0.0439 0.0333 -0.0093 -0.0027 -0.0045
C32 0.065 0.043 0.089 -0.026 0.029 0.002
N5 0.0316 0.0342 0.0347 -0.0155 0.0013 0.0033
C49 0.033 0.045 0.057 -0.027 -0.003 0.007
C50 0.033 0.051 0.061 -0.022 0.002 0.011
C51 0.046 0.039 0.039 -0.0162 0.0051 0.012
C52 0.05 0.034 0.047 -0.0203 0.005 0.003
C53 0.04 0.036 0.042 -0.0139 0.0009 0.003
C54 0.052 0.037 0.057 -0.019 0.008 0.015
C56 0.058 0.046 0.098 -0.029 0.028 0.003
O14 0.0375 0.0417 0.076 -0.0378 0.0154 -0.0152
C67 0.0209 0.031 0.0331 -0.0144 0.0023 -0.003
C68 0.0227 0.035 0.048 -0.025 0.0049 -0.0063
C69 0.035 0.05 0.043 -0.029 0.0085 -0.0141
C70 0.023 0.056 0.048 -0.025 0.0005 -0.008
C72 0.027 0.031 0.043 -0.0185 -0.0076 -0.0006
C77 0.03 0.047 0.045 -0.006 -0.0021 0.0026
C78 0.023 0.049 0.064 -0.021 0.002 0.0033
Co1 0.0227 0.0266 0.0297 -0.0142 0.0003 0.0004
Co2 0.0256 0.0213 0.0305 -0.0112 0.0033 -0.0018
N1 0.0343 0.0266 0.041 -0.0129 -0.0013 0.0011
N2 0.0316 0.0342 0.0347 -0.0155 0.0013 0.0033
N4 0.0397 0.0275 0.0285 -0.0105 0.001 -0.0065
O1 0.0386 0.0553 0.0313 -0.0151 -0.0043 -0.0131
O2 0.038 0.0347 0.0401 -0.0105 -0.0023 -0.0134
O5 0.0247 0.102 0.065 -0.059 0.0059 -0.0077
O10 0.043 0.028 0.0621 -0.0216 -0.0108 -0.0051
C1 0.0212 0.0242 0.033 -0.0144 0.0026 0.0042
C2 0.0238 0.0276 0.036 -0.0152 0.0025 -0.0042
C7 0.035 0.048 0.049 -0.031 0.0045 -0.005
C9 0.0199 0.053 0.052 -0.035 0.0048 -0.0051
C10 0.026 0.042 0.036 -0.0182 -0.0013 -0.0059
C11 0.0193 0.0316 0.036 -0.0174 0.0018 -0.0056
C12 0.0252 0.035 0.035 -0.0143 -0.0009 -0.0016
C15 0.027 0.0276 0.033 -0.0134 -0.0015 -0.0027
C16 0.033 0.049 0.118 -0.053 -0.008 0.004
C17 0.026 0.057 0.139 -0.059 -0.002 0.003
C18 0.037 0.033 0.057 -0.017 0.006 -0.0007
C19 0.043 0.034 0.073 -0.03 0.016 -0.008
C20 0.029 0.037 0.072 -0.028 0.012 -0.0064
C21 0.035 0.033 0.068 -0.022 0.006 0.0038
C22 0.05 0.043 0.094 -0.022 0.039 -0.007
C23 0.052 0.024 0.108 -0.018 0.028 -0.004
C24 0.036 0.04 0.063 -0.017 0.016 -0.005
C25 0.038 0.029 0.079 -0.019 0.01 -0.0022
C26 0.033 0.045 0.057 -0.027 -0.003 0.007
C27 0.033 0.051 0.061 -0.022 0.002 0.011
C28 0.046 0.039 0.039 -0.0162 0.0051 0.012
C29 0.05 0.034 0.047 -0.0203 0.005 0.003
C30 0.04 0.036 0.042 -0.0139 0.0009 0.003
C31 0.052 0.037 0.057 -0.019 0.008 0.015
C33 0.058 0.046 0.098 -0.029 0.028 0.003
C34 0.034 0.0253 0.041 -0.0143 0.0018 -0.0032
C35 0.037 0.031 0.035 -0.0155 0.0087 -0.0066
C36 0.026 0.031 0.049 -0.0207 -0.0024 -0.0018
C37 0.047 0.032 0.041 -0.0122 -0.008 0.0098
C38 0.047 0.038 0.032 -0.0175 -0.0006 0.0023
C39 0.059 0.03 0.038 -0.0162 -0.001 -0.005
C40 0.073 0.027 0.04 -0.0091 -0.002 -0.008
C41 0.048 0.038 0.03 -0.0108 -0.002 -0.008
C42 0.053 0.035 0.036 -0.0171 -0.0059 -0.006
C43 0.044 0.0278 0.041 -0.0114 -0.0098 -0.0077
C44 0.057 0.042 0.03 -0.01 -0.0006 -0.01
C45 0.081 0.048 0.039 -0.016 0.002 0.005
C47 0.033 0.033 0.05 -0.0205 0.0042 0.0004
C48 0.028 0.0295 0.0272 -0.0114 0.0013 -0.0014
C55 0.065 0.043 0.089 -0.026 0.029 0.002
C46 0.079 0.042 0.032 -0.0041 -0.004 0.01
N7 0.0343 0.0266 0.041 -0.0129 -0.0013 0.0011
N8 0.0264 0.0279 0.0355 -0.0167 0.0007 -0.0005
O11 0.0386 0.0553 0.0313 -0.0151 -0.0043 -0.0131
O12 0.038 0.0347 0.0401 -0.0105 -0.0023 -0.0134
O15 0.0247 0.102 0.065 -0.059 0.0059 -0.0077
O16 0.0223 0.0346 0.0326 -0.0171 -0.0006 0.0004
O18 0.0225 0.0261 0.0341 -0.0118 -0.0015 0.0002
O20 0.043 0.028 0.0621 -0.0216 -0.0108 -0.0051
C65 0.0212 0.0242 0.033 -0.0144 0.0026 0.0042
C66 0.0238 0.0276 0.036 -0.0152 0.0025 -0.0042
C71 0.035 0.048 0.049 -0.031 0.0045 -0.005
C73 0.0199 0.053 0.052 -0.035 0.0048 -0.0051
C74 0.026 0.042 0.036 -0.0182 -0.0013 -0.0059
C75 0.0193 0.0316 0.036 -0.0174 0.0018 -0.0056
C76 0.0252 0.035 0.035 -0.0143 -0.0009 -0.0016
C79 0.027 0.0276 0.033 -0.0134 -0.0015 -0.0027
C80 0.033 0.049 0.118 -0.053 -0.008 0.004
C81 0.026 0.057 0.139 -0.059 -0.002 0.003
C82 0.037 0.033 0.057 -0.017 0.006 -0.0007
C83 0.043 0.034 0.073 -0.03 0.016 -0.008
C84 0.029 0.037 0.072 -0.028 0.012 -0.0064
C85 0.035 0.033 0.068 -0.022 0.006 0.0038
C86 0.05 0.043 0.094 -0.022 0.039 -0.007
C87 0.052 0.024 0.108 -0.018 0.028 -0.004
C88 0.036 0.04 0.063 -0.017 0.016 -0.005
C89 0.038 0.029 0.079 -0.019 0.01 -0.0022
C90 0.034 0.0253 0.041 -0.0143 0.0018 -0.0032
C91 0.037 0.031 0.035 -0.0155 0.0087 -0.0066
C92 0.026 0.031 0.049 -0.0207 -0.0024 -0.0018
C93 0.047 0.032 0.041 -0.0122 -0.008 0.0098
C94 0.047 0.038 0.032 -0.0175 -0.0006 0.0023
C95 0.033 0.033 0.05 -0.0205 0.0042 0.0004
C96 0.028 0.0295 0.0272 -0.0114 0.0013 -0.0014
O3 0.0313 0.0287 0.0323 -0.0145 0.0051 -0.0047
O4 0.0375 0.0417 0.076 -0.0378 0.0154 -0.0152
C3 0.0209 0.031 0.0331 -0.0144 0.0023 -0.003
C4 0.0227 0.035 0.048 -0.025 0.0049 -0.0063
C5 0.035 0.05 0.043 -0.029 0.0085 -0.0141
C6 0.023 0.056 0.048 -0.025 0.0005 -0.008
C8 0.027 0.031 0.043 -0.0185 -0.0076 -0.0006
C13 0.03 0.047 0.045 -0.006 -0.0021 0.0026
C14 0.023 0.049 0.064 -0.021 0.002 0.0033
O17 0.029 0.0439 0.0333 -0.0093 -0.0027 -0.0045
O19 0.0364 0.0277 0.0421 -0.0169 0.0062 -0.0053
loop_
_geom_bond_atom_site_label_1
_geom_bond_atom_site_label_2
_geom_bond_site_symmetry_1
_geom_bond_site_symmetry_2
H1 O9 1_555 1_555
H2 O9 1_555 1_555
H44 C64 1_555 1_555
N6 C57 1_555 1_555
C57 H39 1_555 1_555
C58 C57 1_555 1_555
H40 C58 1_555 1_555
C59 C58 1_555 1_555
C60 C59 1_555 1_555
H41 C60 1_555 1_555
C61 N6 1_555 1_555
H42 C61 1_555 1_555
C63 C62 1_555 1_555
H43 C63 1_555 1_555
Co14 N6 1_555 1_555
C59 C62 1_555 1_555
C60 C61 1_555 1_555
H21 C32 1_555 1_555
N5 C49 1_555 1_555
C49 H33 1_555 1_555
C50 C49 1_555 1_555
H34 C50 1_555 1_555
C51 C50 1_555 1_555
C52 C51 1_555 1_555
H35 C52 1_555 1_555
C53 N5 1_555 1_555
H36 C53 1_555 1_555
C54 C51 1_555 1_555
C56 C32 1_555 1_555
H38 C56 1_555 1_555
O22 C72 1_555 1_555
O14 C72 1_555 1_555
H47 C67 1_555 1_555
C68 C67 1_555 1_555
C69 C68 1_555 1_555
H48 C69 1_555 1_555
C70 C69 1_555 1_555
C72 C68 1_555 1_555
H51 C77 1_555 1_555
H52 C78 1_555 1_555
Co9 N5 1_555 1_555
C52 C53 1_555 1_555
C54 C56 1_555 1_555
C77 C78 1_555 1_555
Co1 N2 1_555 1_555
Co2 N1 1_555 1_555
N1 C16 1_555 1_555
N2 C26 1_555 1_555
N10 C34 1_555 1_555
N4 Co2 1_555 1_555
O1 Co1 1_555 1_555
O2 Co2 1_555 1_555
O23 C15 1_555 1_555
O25 C48 1_555 1_555
O10 C48 1_555 1_555
C1 O1 1_555 1_555
C2 C1 1_555 1_555
C7 C2 1_555 1_555
H5 C7 1_555 1_555
C9 O5 1_555 1_555
C10 C9 1_555 1_555
H6 C10 1_555 1_555
C11 C10 1_555 1_555
C12 C11 1_555 1_555
C15 C12 1_555 1_555
C16 H9 1_555 1_555
C17 C16 1_555 1_555
H10 C17 1_555 1_555
C18 C17 1_555 1_555
C19 C18 1_555 1_555
H11 C19 1_555 1_555
C20 N1 1_555 1_555
H12 C20 1_555 1_555
C21 C18 1_555 1_555
C22 C21 1_555 1_555
H13 C22 1_555 1_555
C23 C22 1_555 1_555
H14 C23 1_555 1_555
C24 H15 1_555 1_555
C25 C21 1_555 1_555
H16 C25 1_555 1_555
C26 H17 1_555 1_555
C27 C26 1_555 1_555
H18 C27 1_555 1_555
C28 C27 1_555 1_555
C29 C28 1_555 1_555
H19 C29 1_555 1_555
C30 N2 1_555 1_555
H20 C30 1_555 1_555
C31 C28 1_555 1_555
C33 C31 1_555 1_555
H22 C33 1_555 1_555
C35 C34 1_555 1_555
H24 C35 1_555 1_555
C36 C35 1_555 1_555
C37 C36 1_555 1_555
H25 C37 1_555 1_555
C38 N10 1_555 1_555
H26 C38 1_555 1_555
C39 N4 1_555 1_555
H27 C39 1_555 1_555
C40 C39 1_555 1_555
H28 C40 1_555 1_555
C41 C40 1_555 1_555
C42 C41 1_555 1_555
H29 C42 1_555 1_555
C43 N4 1_555 1_555
H30 C43 1_555 1_555
C44 C41 1_555 1_555
C45 C44 1_555 1_555
H31 C45 1_555 1_555
C47 C23 1_555 1_555
C48 C11 1_555 1_555
C55 C33 1_555 1_555
H37 C55 1_555 1_555
O2 C1 1_555 1_555
C19 C20 1_555 1_555
C24 C25 1_555 1_555
C24 C47 1_555 1_555
C29 C30 1_555 1_555
C36 C47 1_555 1_555
C37 C38 1_555 1_555
C42 C43 1_555 1_555
H32 C46 1_555 1_555
Co14 N7 1_555 1_555
N7 C80 1_555 1_555
N8 C90 1_555 1_555
O11 Co9 1_555 1_555
O12 Co14 1_555 1_555
O16 C79 1_555 1_555
O18 C96 1_555 1_555
O20 C96 1_555 1_555
C65 O11 1_555 1_555
C66 C65 1_555 1_555
C71 C66 1_555 1_555
H49 C71 1_555 1_555
C73 O15 1_555 1_555
C74 C73 1_555 1_555
H50 C74 1_555 1_555
C75 C74 1_555 1_555
C76 C75 1_555 1_555
C80 H53 1_555 1_555
C81 C80 1_555 1_555
H54 C81 1_555 1_555
C82 C81 1_555 1_555
C83 C82 1_555 1_555
H55 C83 1_555 1_555
C84 N7 1_555 1_555
H56 C84 1_555 1_555
C85 C82 1_555 1_555
C86 C85 1_555 1_555
H57 C86 1_555 1_555
C87 C86 1_555 1_555
H58 C87 1_555 1_555
C88 H59 1_555 1_555
C89 C85 1_555 1_555
H60 C89 1_555 1_555
C91 C90 1_555 1_555
H62 C91 1_555 1_555
C92 C91 1_555 1_555
C93 C92 1_555 1_555
H63 C93 1_555 1_555
C94 N8 1_555 1_555
H64 C94 1_555 1_555
C95 C87 1_555 1_555
C96 C75 1_555 1_555
O12 C65 1_555 1_555
C76 C79 1_555 1_555
C83 C84 1_555 1_555
C88 C89 1_555 1_555
C88 C95 1_555 1_555
C92 C95 1_555 1_555
C93 C94 1_555 1_555
O3 C8 1_555 1_555
O4 C8 1_555 1_555
H3 C3 1_555 1_555
C4 C3 1_555 1_555
C5 C4 1_555 1_555
H4 C5 1_555 1_555
C6 C5 1_555 1_555
C8 C4 1_555 1_555
H7 C13 1_555 1_555
H8 C14 1_555 1_555
C13 C14 1_555 1_555
H45 O19 1_555 1_555
H46 O19 1_555 1_555

#END
