
###############################################################################
#
# This file contains modified crystal structure data generated from the
# MOF subset of the Cambridge Structural Database (CSD) v543 
# hosted by the Cambridge Crystallographic Data Centre (CCDC).
#
# This work is licensed under the Creative Commons
# Attribution-NonCommercial-ShareAlike 4.0 International License.
# To view a copy of this license, visit
# http://creativecommons.org/licenses/by-nc-sa/4.0/
# or send a letter to
# Creative Commons, PO Box 1866, Mountain View, CA 94042, USA.
#
# CIF created using the CSD Python API on 29 September 2022
# The structure has been converted into the P1 space group
# The structure has a 3D framework
# The original CSD entry NAGKOY is in the triclinic crystal system
# The framework has been calculated to contain at least 10.0% void space
# The void calculation uses a probe of radius 1.32A, grid spacing 0.4
# H atom positions have been added when not included in the experimental data
# Generated hydrogen atom positions removed from atoms on special positions
#
###############################################################################

data_NAGKOY
_chemical_formula_moiety         '(C64 H38 N8 O60 Zn14)n'
_symmetry_cell_setting           triclinic
_symmetry_space_group_name_H-M   'P 1'
_symmetry_Int_Tables_number      1
_space_group_name_Hall           'P 1'
loop_
_symmetry_equiv_pos_site_id
_symmetry_equiv_pos_as_xyz
1 x,y,z
_cell_length_a                   12.882(5)
_cell_length_b                   14.292(6)
_cell_length_c                   16.936(8)
_cell_angle_alpha                110.255(9)
_cell_angle_beta                 99.167(11)
_cell_angle_gamma                106.390(9)
_cell_volume                     2689.54
loop_
_atom_site_label
_atom_site_type_symbol
_atom_site_fract_x
_atom_site_fract_y
_atom_site_fract_z
Zn2 Zn 0.09795(15) 0.03329(15) 0.08876(12)
Zn4 Zn 0.15673(16) 0.20102(16) 0.00543(13)
O6 O 0.6448(14) 0.4252(13) 0.5153(11)
O7 O 0.5499(14) 0.2655(14) 0.4308(11)
O8 O 0.2609(12) 0.3040(11) 0.1221(9)
O9 O 0.2335(11) 0.1796(11) 0.1788(9)
O13 O 0.0261(8) 0.1071(8) 0.0196(6)
O14 O 0.2107(11) 0.0132(10) 0.0113(9)
O18 O 0.6091(13) 0.7115(13) 0.4384(11)
O29 O 0.512(2) 0.678(2) 0.3064(17)
C15 C 0.4328(15) 0.3177(15) 0.3180(12)
H7 H 0.4079 0.2465 0.3101
C16 C 0.5228(14) 0.3950(14) 0.3898(11)
C17 C 0.5555(15) 0.5015(15) 0.4083(13)
H8 H 0.6128 0.5512 0.4589
C18 C 0.5024(17) 0.5361(17) 0.3507(14)
C19 C 0.4182(17) 0.4560(17) 0.2731(14)
H9 H 0.3879 0.4769 0.2313
C20 C 0.3797(16) 0.3498(16) 0.2568(13)
N3 N 0.5756(13) 0.3573(13) 0.4491(11)
C21 C 0.2815(15) 0.2704(14) 0.1777(12)
C31 C 0.536(2) 0.651(2) 0.3713(18)
Zn24 Zn 0.6783(2) 0.8642(2) 0.48409(18)
Zn28 Zn 0.4604(3) 0.7833(3) 0.2866(2)
Zn3 Zn 0.07932(16) 0.88004(16) 0.20435(13)
O4 O 0.0442(16) 0.4199(16) 0.1958(13)
O12 O 0.1550(10) 0.9455(10) 0.1444(8)
O26 O 0.1766(12) 0.9123(11) 0.3202(9)
Zn20 Zn 0.32978(19) 0.9387(2) 0.32178(15)
O20 O 0.5851(11) 0.9949(11) 0.7437(9)
O22 O 0.3905(15) 0.7472(15) 0.9617(12)
O23 O 0.5081(14) 0.7488(14) 0.8852(12)
C26 C 0.3491(13) 0.9161(13) 0.9379(11)
H10 H 0.3114 0.8899 0.9726
C27 C 0.4626(13) 0.9930(13) 0.8331(10)
C28 C 0.4793(14) 0.9088(14) 0.8460(11)
H11 H 0.5269 0.8779 0.8204
C30 C 0.4221(13) 0.8693(13) 0.8998(11)
N4 N 0.4402(13) 0.7828(12) 0.9162(10)
Zn1 Zn 0.5000 1.0000 0.5000
O1 O 0.9665(11) 0.9468(11) 0.2348(9)
O3 O 0.9906(10) 0.7254(10) 0.1556(8)
O5 O 0.9451(14) 0.2663(15) 0.1147(12)
O16 O 0.8711(11) 0.6921(11) 0.0333(9)
O24 O 0.4096(10) 0.8665(10) 0.3798(8)
O25 O 0.3333(7) 0.7178(7) 0.3376(6)
O27 O 0.8266(18) 0.8918(18) 0.5606(15)
O28 O 0.7048(17) 0.9362(17) 0.4077(14)
H2 H 0.8324 0.9691 0.3226
C8 C 0.8960(14) 0.5472(14) 0.0546(11)
C9 C 0.9205(14) 0.6623(14) 0.0844(11)
C10 C 0.9487(16) 0.5111(15) 0.1088(13)
H4 H 0.9996 0.5579 0.1634
C11 C 0.9216(17) 0.4010(17) 0.0775(14)
N2 N 0.9782(16) 0.3601(16) 0.1335(13)
O41 O 0.3280(15) 0.6762(14) 0.1887(12)
O42 O 0.2545(13) 0.7949(13) 0.1874(10)
C44 C 0.1413(16) 0.6708(16) 0.0023(13)
H17 H 0.1523 0.7430 0.0200
C45 C 0.1905(15) 0.6331(15) 0.0587(12)
C46 C 0.1722(14) 0.5223(14) 0.0270(12)
H18 H 0.2077 0.4969 0.0628
C54 C 0.2622(17) 0.7071(17) 0.1502(14)
O68 O 0.5901(10) 0.9254(10) 0.5555(8)
O71 O 0.3683(9) 0.9421(9) 0.5524(7)
O75 O 0.5116(10) 0.8914(10) 0.2375(8)
O33 O 0.0061(9) 0.9352(9) 0.8273(8)
C33 C 0.0459(13) 0.9740(13) 0.7775(11)
N5 N 0.2155(13) 0.6986(13) 0.6981(11)
C34 C 0.1985(14) 0.7953(13) 0.6912(11)
C35 C 0.1307(13) 0.8341(13) 0.7332(11)
H13 H 0.0909 0.7989 0.7623
C36 C 0.1204(13) 0.9286(13) 0.7328(11)
C37 C 0.1760(15) 0.9702(15) 0.6818(12)
C38 C 0.2431(15) 0.9261(15) 0.6376(12)
C39 C 0.2569(15) 0.8381(15) 0.6430(12)
H15 H 0.3037 0.8079 0.6155
C64 C 0.3100(17) 0.9819(17) 0.5924(14)
O61 O 0.2672(14) 0.6558(14) 0.6548(12)
O62 O 0.1696(16) 0.6587(16) 0.7446(13)
O46 O 0.7550(10) 0.8729(10) 0.0550(8)
C55 C 0.4880(14) 0.9643(14) 0.2270(11)
C56 C 0.7430(15) 0.9514(15) 0.0371(12)
C57 C 0.6656(13) 0.9998(13) 0.0769(11)
C61 C 0.6095(14) 0.9594(14) 0.1270(11)
H24 H 0.6185 0.9006 0.1349
O15 O 0.2450(10) 0.1271(10) 0.9450(8)
O21 O 0.4884(10) 0.1086(10) 0.7625(8)
C23 C 0.5120(14) 0.0357(14) 0.7730(11)
C24 C 0.2570(15) 0.0486(15) 0.9629(12)
C25 C 0.3344(13) 0.0002(13) 0.9231(11)
C29 C 0.3905(14) 0.0406(14) 0.8730(11)
H12 H 0.3815 0.0994 0.8651
Zn22 Zn 0.67022(19) 0.0613(2) 0.67822(15)
Zn30 Zn 0.5396(3) 0.2167(3) 0.7134(2)
O66 O 0.1289(11) 0.3079(11) 0.9667(9)
Zn1_2 Zn 0.5000 -0.0000 0.5000
O2 O 0.9939(9) 0.0648(9) 0.1727(8)
O17 O 0.4099(10) 0.0746(10) 0.4445(8)
O19 O 0.6317(9) 0.0579(9) 0.4476(7)
C1 C 0.9541(13) 0.0260(13) 0.2225(11)
N1 N 0.7845(13) 0.3014(13) 0.3019(11)
C2 C 0.8015(14) 0.2047(13) 0.3088(11)
C3 C 0.8693(13) 0.1659(13) 0.2668(11)
H1 H 0.9091 0.2011 0.2377
C4 C 0.8796(13) 0.0714(13) 0.2672(11)
C5 C 0.8240(15) 0.0298(15) 0.3182(12)
C6 C 0.7569(15) 0.0739(15) 0.3624(12)
C7 C 0.7431(15) 0.1619(15) 0.3570(12)
H3 H 0.6963 0.1921 0.3845
C32 C 0.6900(17) 0.0181(17) 0.4076(14)
O30 O 0.7328(14) 0.3442(14) 0.3452(12)
O31 O 0.8304(16) 0.3413(16) 0.2554(13)
Zn26 Zn 0.3217(2) 0.1358(2) 0.51591(18)
O73 O 0.4149(11) 0.0051(11) 0.2563(9)
O76 O 0.5904(10) 0.1335(10) 0.6202(8)
O10 O 0.6720(15) 0.3238(14) 0.8113(12)
O11 O 0.7455(13) 0.2051(13) 0.8126(10)
C12 C 0.8587(16) 0.3292(16) 0.9977(13)
H5 H 0.8477 0.2570 0.9800
C13 C 0.8095(15) 0.3669(15) 0.9413(12)
C14 C 0.8278(14) 0.4777(14) 0.9730(12)
H6 H 0.7923 0.5031 0.9372
C22 C 0.7378(17) 0.2929(17) 0.8498(14)
O32 O 0.0335(11) 0.0532(11) 0.7652(9)
O34 O 0.0094(10) 0.2746(10) 0.8444(8)
O36 O 0.0549(14) 0.7337(15) 0.8853(12)
O56 O 0.6667(7) 0.2822(7) 0.6624(6)
O58 O 0.1734(18) 0.1082(18) 0.4394(15)
O59 O 0.2952(17) 0.0638(17) 0.5923(14)
H14 H 0.1676 0.0309 0.6774
C40 C 0.1040(14) 0.4528(14) 0.9454(11)
C41 C 0.0795(14) 0.3377(14) 0.9156(11)
C42 C 0.0513(16) 0.4889(15) 0.8912(13)
H16 H 0.0004 0.4421 0.8366
C43 C 0.0784(17) 0.5990(17) 0.9225(14)
N6 N 0.0218(16) 0.6399(16) 0.8665(13)
Zn16 Zn 0.90205(15) 0.96671(15) 0.91124(12)
Zn18 Zn 0.84327(16) 0.79898(16) 0.99457(13)
O64 O 0.9739(8) 0.8929(8) 0.9804(6)
O70 O 0.3909(13) 0.2885(13) 0.5616(11)
O78 O 0.8234(12) 0.0877(11) 0.6798(9)
O80 O 0.488(2) 0.322(2) 0.6936(17)
O53 O 0.6095(15) 0.2528(15) 0.0383(12)
O54 O 0.4919(14) 0.2512(14) 0.1148(12)
C58 C 0.6509(13) 0.0839(13) 0.0621(11)
H22 H 0.6886 0.1101 0.0274
C59 C 0.5374(13) 0.0070(13) 0.1669(10)
C60 C 0.5207(14) 0.0912(14) 0.1540(11)
H23 H 0.4731 0.1221 0.1796
C62 C 0.5779(13) 0.1307(13) 0.1002(11)
N8 N 0.5598(13) 0.2172(12) 0.0838(10)
Zn9 Zn 0.92068(16) 0.11996(16) 0.79565(13)
O35 O 0.9558(16) 0.5801(16) 0.8042(13)
O43 O 0.8450(10) 0.0545(10) 0.8556(8)
O37 O 0.3552(14) 0.5748(13) 0.4847(11)
O38 O 0.4501(14) 0.7345(14) 0.5692(11)
O39 O 0.7391(12) 0.6960(11) 0.8779(9)
O40 O 0.7665(11) 0.8204(11) 0.8212(9)
O45 O 0.7893(11) 0.9868(10) 0.9887(9)
C47 C 0.5672(15) 0.6823(15) 0.6820(12)
H19 H 0.5921 0.7535 0.6899
C48 C 0.4772(14) 0.6050(14) 0.6102(11)
C49 C 0.4445(15) 0.4985(15) 0.5917(13)
H20 H 0.3872 0.4488 0.5411
C50 C 0.4976(17) 0.4639(17) 0.6493(14)
C51 C 0.5818(17) 0.5440(17) 0.7269(14)
H21 H 0.6121 0.5231 0.7687
C52 C 0.6203(16) 0.6502(16) 0.7432(13)
N7 N 0.4244(13) 0.6427(13) 0.5509(11)
C53 C 0.7185(15) 0.7296(14) 0.8223(12)
C63 C 0.464(2) 0.349(2) 0.6287(18)
loop_
_geom_bond_atom_site_label_1
_geom_bond_atom_site_label_2
_geom_bond_site_symmetry_1
_geom_bond_site_symmetry_2
Zn4 O8 1_555 1_555
O6 N3 1_555 1_555
O7 N3 1_555 1_555
O8 C21 1_555 1_555
O9 Zn2 1_555 1_555
O13 Zn2 1_555 1_555
O14 Zn2 1_555 1_555
O18 C31 1_555 1_555
O29 C31 1_555 1_555
C15 H7 1_555 1_555
C16 C15 1_555 1_555
C17 C16 1_555 1_555
H8 C17 1_555 1_555
C18 C17 1_555 1_555
C19 C18 1_555 1_555
H9 C19 1_555 1_555
C20 C15 1_555 1_555
N3 C16 1_555 1_555
C21 O9 1_555 1_555
C31 C18 1_555 1_555
Zn24 O18 1_555 1_555
Zn28 O29 1_555 1_555
Zn4 O13 1_555 1_555
C19 C20 1_555 1_555
C20 C21 1_555 1_555
O26 Zn3 1_555 1_555
Zn20 O26 1_555 1_555
Zn3 O12 1_555 1_555
O22 N4 1_555 1_555
O23 N4 1_555 1_555
H10 C26 1_555 1_555
C27 C28 1_555 1_555
C28 H11 1_555 1_555
C30 C26 1_555 1_555
N4 C30 1_555 1_555
C28 C30 1_555 1_555
Zn24 O27 1_555 1_555
Zn28 O24 1_555 1_555
O5 N2 1_555 1_555
O16 C9 1_555 1_555
O24 Zn1 1_555 1_555
O25 Zn28 1_555 1_555
O28 Zn24 1_555 1_555
C8 C9 1_555 1_555
C9 O3 1_555 1_555
C10 C8 1_555 1_555
H4 C10 1_555 1_555
C11 C10 1_555 1_555
N2 C11 1_555 1_555
O41 Zn28 1_555 1_555
O42 Zn20 1_555 1_555
H17 C44 1_555 1_555
C45 C44 1_555 1_555
H18 C46 1_555 1_555
C54 O41 1_555 1_555
O68 Zn1 1_555 1_555
O71 Zn1 1_555 1_555
O75 Zn28 1_555 1_555
Zn20 O24 1_555 1_555
Zn24 O68 1_555 1_555
O42 C54 1_555 1_555
C45 C46 1_555 1_555
C45 C54 1_555 1_555
O33 C33 1_555 1_555
O71 C64 1_555 1_555
C33 C36 1_555 1_555
N5 C34 1_555 1_555
C34 C35 1_555 1_555
C35 H13 1_555 1_555
C36 C35 1_555 1_555
C37 C36 1_555 1_555
C38 C37 1_555 1_555
C39 C34 1_555 1_555
H15 C39 1_555 1_555
O61 N5 1_555 1_555
O62 N5 1_555 1_555
C38 C39 1_555 1_555
C38 C64 1_555 1_555
O75 C55 1_555 1_555
C57 C56 1_555 1_555
C61 C57 1_555 1_555
H24 C61 1_555 1_555
O46 C56 1_555 1_555
O21 C23 1_555 1_555
C25 C24 1_555 1_555
C29 C25 1_555 1_555
H12 C29 1_555 1_555
Zn30 O21 1_555 1_555
O15 C24 1_555 1_555
Zn1_2 O17 1_555 1_555
O2 C1 1_555 1_555
O17 Zn26 1_555 1_555
O19 Zn1_2 1_555 1_555
C1 C4 1_555 1_555
N1 C2 1_555 1_555
C2 C3 1_555 1_555
C3 H1 1_555 1_555
C4 C3 1_555 1_555
C5 C4 1_555 1_555
C6 C5 1_555 1_555
C7 C2 1_555 1_555
H3 C7 1_555 1_555
C32 O19 1_555 1_555
O30 N1 1_555 1_555
O31 N1 1_555 1_555
O76 Zn1_2 1_555 1_555
C6 C7 1_555 1_555
C6 C32 1_555 1_555
O10 C22 1_555 1_555
O11 C22 1_555 1_555
H5 C12 1_555 1_555
C13 C12 1_555 1_555
H6 C14 1_555 1_555
C22 C13 1_555 1_555
Zn22 O11 1_555 1_555
Zn26 O58 1_555 1_555
Zn30 O10 1_555 1_555
O36 N6 1_555 1_555
O66 C41 1_555 1_555
O76 Zn22 1_555 1_555
O56 Zn30 1_555 1_555
O59 Zn26 1_555 1_555
C40 C41 1_555 1_555
C41 O34 1_555 1_555
C42 C40 1_555 1_555
H16 C42 1_555 1_555
C43 C42 1_555 1_555
N6 C43 1_555 1_555
O70 Zn26 1_555 1_555
O78 Zn22 1_555 1_555
O80 Zn30 1_555 1_555
C13 C14 1_555 1_555
Zn30 O76 1_555 1_555
Zn16 O64 1_555 1_555
Zn18 O64 1_555 1_555
O53 N8 1_555 1_555
O54 N8 1_555 1_555
H22 C58 1_555 1_555
C59 C60 1_555 1_555
C60 H23 1_555 1_555
C62 C58 1_555 1_555
N8 C62 1_555 1_555
C60 C62 1_555 1_555
O78 Zn9 1_555 1_555
Zn9 O43 1_555 1_555
Zn18 O39 1_555 1_555
O37 N7 1_555 1_555
O38 N7 1_555 1_555
O39 C53 1_555 1_555
O40 Zn16 1_555 1_555
O45 Zn16 1_555 1_555
O70 C63 1_555 1_555
O80 C63 1_555 1_555
C47 H19 1_555 1_555
C48 C47 1_555 1_555
C49 C48 1_555 1_555
H20 C49 1_555 1_555
C50 C49 1_555 1_555
C51 C50 1_555 1_555
H21 C51 1_555 1_555
C52 C47 1_555 1_555
N7 C48 1_555 1_555
C53 O40 1_555 1_555
C63 C50 1_555 1_555
C51 C52 1_555 1_555
C52 C53 1_555 1_555

#END
