
###############################################################################
#
# This file contains modified crystal structure data generated from the
# MOF subset of the Cambridge Structural Database (CSD) v543 
# hosted by the Cambridge Crystallographic Data Centre (CCDC).
#
# This work is licensed under the Creative Commons
# Attribution-NonCommercial-ShareAlike 4.0 International License.
# To view a copy of this license, visit
# http://creativecommons.org/licenses/by-nc-sa/4.0/
# or send a letter to
# Creative Commons, PO Box 1866, Mountain View, CA 94042, USA.
#
# CIF created using the CSD Python API on 29 September 2022
# The structure has been converted into the P1 space group
# The structure has a 3D framework
# The original CSD entry NAHFOU is in the monoclinic crystal system
# The framework has been calculated to contain at least 10.0% void space
# The void calculation uses a probe of radius 1.32A, grid spacing 0.4
# The framework is charged, counterions have been retained in the structure
#
###############################################################################

data_NAHFOU
_chemical_formula_moiety         '(C72 H60 B4 Cd4 N32 O8 4+)n'
_symmetry_cell_setting           triclinic
_symmetry_space_group_name_H-M   'P 1'
_symmetry_Int_Tables_number      1
_space_group_name_Hall           'P 1'
loop_
_symmetry_equiv_pos_site_id
_symmetry_equiv_pos_as_xyz
1 x,y,z
_cell_length_a                   9.003(5)
_cell_length_b                   17.382(11)
_cell_length_c                   17.057(11)
_cell_angle_alpha                90
_cell_angle_beta                 104.595(10)
_cell_angle_gamma                90
_cell_volume                     2583.12
loop_
_atom_site_label
_atom_site_type_symbol
_atom_site_fract_x
_atom_site_fract_y
_atom_site_fract_z
Cd4 Cd 0.38438(5) 0.06015(3) 0.21475(3)
N3 N 0.0021(6) 0.8878(3) 0.1286(3)
C3 C 0.0714(9) 0.9514(4) 0.1689(5)
H3 H 0.0294 0.9813 0.2047
N6 N 0.2041(7) 0.9661(4) 0.1521(4)
H6 H 0.0826 0.7364 0.1780
C7 C 0.1003(9) 0.8623(4) 0.0834(5)
H7 H 0.0845 0.8192 0.0481
C12 C 0.2231(9) 0.9100(5) 0.0988(5)
H11 H 0.3089 0.9055 0.0762
Cd5 Cd 0.11562(5) 0.56015(3) 0.28525(3)
O1 O 0.2064(7) 0.0875(3) 0.2932(3)
O2 O 0.3884(7) 0.0052(4) 0.3466(4)
C10 C 0.0453(10) 0.0483(5) 0.4111(5)
C13 C 0.1867(9) 0.0185(5) 0.4116(5)
C17 C 0.2667(10) 0.0389(5) 0.3473(5)
N17 N 0.5423(7) 0.1614(3) 0.2743(4)
N22 N 0.3511(7) 0.1192(4) 0.0892(4)
N1 N 0.7621(7) 0.9050(3) 0.1794(3)
C1 C 0.6892(10) 0.9558(5) 0.2829(5)
H1 H 0.6827 0.9678 0.3363
C2 C 0.8072(8) 0.6675(4) 0.2302(5)
H2 H 0.7538 0.6302 0.2534
N2 N 0.9577(7) 0.6614(3) 0.2257(4)
N4 N 0.7450(7) 0.8485(3) 0.0408(3)
C4 C 0.6420(8) 0.9526(4) 0.1528(5)
H4 H 0.5967 0.9622 0.0971
N5 N 0.8619(6) 0.7723(3) 0.1698(3)
C5 C 0.7475(9) 0.7347(4) 0.1967(5)
H5 H 0.6462 0.7528 0.1923
C6 C 0.9868(8) 0.7251(4) 0.1892(4)
N8 N 0.5935(7) 0.9845(3) 0.2121(4)
C8 C 0.7936(9) 0.9079(5) 0.2637(4)
H8 H 0.8735 0.8813 0.3008
B1 B 0.8446(9) 0.8537(4) 0.1294(5)
C14 C 0.2570(10) 0.9653(6) 0.4737(5)
H12 H 0.3561 0.9453 0.4758
C16 C 0.6212(11) 0.8014(5) 0.0094(5)
H14 H 0.5829 0.7621 0.0377
C18 C 0.1807(11) 0.9431(5) 0.5306(6)
H15 H 0.2275 0.9069 0.5710
H16 H 0.0007 0.9158 0.6298
C20 C 0.0343(9) 0.9729(5) 0.5302(5)
N7 N 0.6489(7) 0.8808(4) 0.9108(4)
C9 C 0.7549(8) 0.8950(4) 0.9784(4)
H9 H 0.8306 0.9340 0.9828
C15 C 0.5639(11) 0.8215(5) 0.9306(5)
H13 H 0.4779 0.7981 0.8945
Cd7 Cd 0.61562(5) 0.93985(3) 0.78525(3)
C33 C 0.2451(8) 0.1050(4) 0.0216(4)
H27 H 0.1694 0.0660 0.0172
C35 C 0.4361(11) 0.1785(5) 0.0694(5)
H29 H 0.5221 0.2019 0.1055
H10 H 0.9993 0.0842 0.3702
C11 C 0.9657(9) 0.0271(5) 0.4698(5)
C22 C 0.7430(10) 0.0347(6) 0.5263(5)
H17 H 0.6439 0.0547 0.5242
C24 C 0.8193(11) 0.0569(5) 0.4694(6)
H18 H 0.7725 0.0931 0.4290
N9 N 0.2379(7) 0.0950(3) 0.8206(3)
C25 C 0.3108(10) 0.0442(5) 0.7171(5)
H19 H 0.3173 0.0322 0.6637
C26 C 0.1928(8) 0.3325(4) 0.7698(5)
H20 H 0.2462 0.3698 0.7466
N10 N 0.0423(7) 0.3386(3) 0.7743(4)
N12 N 0.2550(7) 0.1515(3) 0.9592(3)
C28 C 0.3580(8) 0.0474(4) 0.8472(5)
H22 H 0.4033 0.0378 0.9029
N13 N 0.1381(6) 0.2277(3) 0.8302(3)
C29 C 0.2525(9) 0.2653(4) 0.8033(5)
H23 H 0.3538 0.2472 0.8077
C30 C 0.0132(8) 0.2749(4) 0.8108(4)
N16 N 0.4065(7) 0.0155(3) 0.7879(4)
C32 C 0.2064(9) 0.0921(5) 0.7363(4)
H26 H 0.1265 0.1187 0.6992
B2 B 0.1554(9) 0.1463(4) 0.8706(5)
C36 C 0.3788(11) 0.1986(5) 0.9906(5)
H30 H 0.4171 0.2379 0.9623
N20 N 0.7959(7) 0.0339(4) 0.8479(4)
O3 O 0.7936(7) 0.9125(3) 0.7068(3)
O4 O 0.6116(7) 0.9948(4) 0.6534(4)
C19 C 0.9547(10) 0.9517(5) 0.5889(5)
C21 C 0.8133(9) 0.9815(5) 0.5884(5)
C23 C 0.7333(10) 0.9611(5) 0.6527(5)
N18 N 0.4577(7) 0.8386(3) 0.7257(4)
N11 N 0.9979(6) 0.1122(3) 0.8714(3)
C27 C 0.9286(9) 0.0486(4) 0.8311(5)
H21 H 0.9706 0.0187 0.7953
H24 H 0.9174 0.2636 0.8220
C31 C 0.8997(9) 0.1377(4) 0.9166(5)
H25 H 0.9155 0.1808 0.9519
C34 C 0.7769(9) 0.0900(5) 0.9012(5)
H28 H 0.6911 0.0945 0.9238
Cd8 Cd 0.88438(5) 0.43985(3) 0.71475(3)
N9_2 N 0.2621(7) 0.5950(3) 0.6794(3)
C25_2 C 0.1892(10) 0.5442(5) 0.7829(5)
H19_2 H 0.1827 0.5322 0.8363
C26_2 C 0.3072(8) 0.8325(4) 0.7302(5)
H20_2 H 0.2538 0.8698 0.7534
N11_2 N 0.5021(6) 0.6122(3) 0.6286(3)
N12_2 N 0.2450(7) 0.6515(3) 0.5408(3)
C27_2 C 0.5714(9) 0.5486(4) 0.6689(5)
H21_2 H 0.5294 0.5187 0.7047
C28_2 C 0.1420(8) 0.5474(4) 0.6528(5)
H22_2 H 0.0967 0.5378 0.5971
N13_2 N 0.3619(6) 0.7277(3) 0.6698(3)
C29_2 C 0.2475(9) 0.7653(4) 0.6967(5)
H23_2 H 0.1462 0.7472 0.6923
N14 N 0.7041(7) 0.5339(4) 0.6521(4)
C30_2 C 0.4868(8) 0.7749(4) 0.6892(4)
H24_2 H 0.5826 0.7636 0.6780
N15 N 0.1489(7) 0.6192(4) 0.4108(4)
N16_2 N 0.0935(7) 0.5155(3) 0.7121(4)
C31_2 C 0.6003(9) 0.6377(4) 0.5834(5)
H25_2 H 0.5845 0.6808 0.5481
C32_2 C 0.2936(9) 0.5921(5) 0.7637(4)
H26_2 H 0.3735 0.6187 0.8008
C33_2 C 0.2549(8) 0.6050(4) 0.4784(4)
H27_2 H 0.3306 0.5660 0.4828
C34_2 C 0.7231(9) 0.5900(5) 0.5988(5)
H28_2 H 0.8089 0.5945 0.5762
B2_2 B 0.3446(9) 0.6463(4) 0.6294(5)
C35_2 C 0.0639(11) 0.6785(5) 0.4306(5)
C36_2 C 0.1212(11) 0.6986(5) 0.5094(5)
H30_2 H 0.0829 0.7379 0.5377
O1_2 O 0.2936(7) 0.5875(3) 0.2068(3)
O2_2 O 0.1116(7) 0.5052(4) 0.1534(4)
C10_2 C 0.4547(10) 0.5483(5) 0.0889(5)
H10_2 H 0.5007 0.5842 0.1298
C11_2 C 0.5343(9) 0.5271(5) 0.0302(5)
C13_2 C 0.3133(9) 0.5185(5) 0.0884(5)
C14_2 C 0.2430(10) 0.4653(6) 0.0263(5)
H12_2 H 0.1439 0.4453 0.0242
H13_2 H 0.0221 0.2981 0.6055
C17_2 C 0.2333(10) 0.5389(5) 0.1527(5)
C24_2 C 0.6807(11) 0.5569(5) 0.0306(6)
H18_2 H 0.7275 0.5931 0.0710
N19 N 0.2959(7) 0.4661(4) 0.3479(4)
C18_2 C 0.3193(11) 0.4431(5) 0.9694(6)
H15_2 H 0.2725 0.4069 0.9290
O3_2 O 0.7064(7) 0.4125(3) 0.7932(3)
O4_2 O 0.8884(7) 0.4948(4) 0.8466(4)
C19_2 C 0.5453(10) 0.4517(5) 0.9111(5)
H16_2 H 0.4993 0.4158 0.8702
C20_2 C 0.4657(9) 0.4729(5) 0.9698(5)
C21_2 C 0.6867(9) 0.4815(5) 0.9116(5)
C22_2 C 0.7570(10) 0.5347(6) 0.9737(5)
H17_2 H 0.8561 0.5547 0.9758
C23_2 C 0.7667(10) 0.4611(5) 0.8473(5)
H29_2 H 0.9779 0.7019 0.3945
N21 N 0.8511(7) 0.3808(4) 0.5892(4)
N1_2 N 0.7379(7) 0.4050(3) 0.3206(3)
C1_2 C 0.8108(10) 0.4558(5) 0.2171(5)
H1_2 H 0.8173 0.4678 0.1637
C2_2 C 0.6928(8) 0.1675(4) 0.2698(5)
H2_2 H 0.7462 0.1302 0.2466
N3_2 N 0.4979(6) 0.3878(3) 0.3714(3)
N4_2 N 0.7550(7) 0.3485(3) 0.4592(3)
C3_2 C 0.4286(9) 0.4514(4) 0.3311(5)
H3_2 H 0.4706 0.4813 0.2953
C4_2 C 0.8580(8) 0.4526(4) 0.3472(5)
H4_2 H 0.9033 0.4622 0.4029
N5_2 N 0.6381(6) 0.2723(3) 0.3302(3)
C5_2 C 0.7525(9) 0.2347(4) 0.3033(5)
H5_2 H 0.8538 0.2528 0.3077
C6_2 C 0.5132(8) 0.2251(4) 0.3108(4)
H6_2 H 0.4174 0.2364 0.3220
N8_2 N 0.9065(7) 0.4845(3) 0.2879(4)
C7_2 C 0.3997(9) 0.3623(4) 0.4166(5)
H7_2 H 0.4155 0.3192 0.4519
C8_2 C 0.7064(9) 0.4079(5) 0.2363(4)
H8_2 H 0.6265 0.3813 0.1992
C9_2 C 0.7451(8) 0.3950(4) 0.5216(4)
H9_2 H 0.6694 0.4340 0.5172
C12_2 C 0.2769(9) 0.4100(5) 0.4012(5)
H11_2 H 0.1911 0.4055 0.4238
B1_2 B 0.6554(9) 0.3537(4) 0.3706(5)
C15_2 C 0.9361(11) 0.3215(5) 0.5694(5)
C16_2 C 0.8788(11) 0.3014(5) 0.4906(5)
H14_2 H 0.9171 0.2621 0.4623
loop_
_geom_bond_atom_site_label_1
_geom_bond_atom_site_label_2
_geom_bond_site_symmetry_1
_geom_bond_site_symmetry_2
N3 C3 1_555 1_555
C3 H3 1_555 1_555
N6 C3 1_555 1_555
C7 N3 1_555 1_555
H7 C7 1_555 1_555
C12 N6 1_555 1_555
H11 C12 1_555 1_555
C7 C12 1_555 1_555
Cd4 O1 1_555 1_555
O1 C17 1_555 1_555
O2 Cd4 1_555 1_555
C13 C10 1_555 1_555
C17 O2 1_555 1_555
N17 Cd4 1_555 1_555
N22 Cd4 1_555 1_555
C13 C17 1_555 1_555
N1 C4 1_555 1_555
C1 H1 1_555 1_555
C2 H2 1_555 1_555
N2 C2 1_555 1_555
C4 H4 1_555 1_555
N5 C5 1_555 1_555
C5 C2 1_555 1_555
H5 C5 1_555 1_555
C6 N2 1_555 1_555
C8 N1 1_555 1_555
H8 C8 1_555 1_555
B1 N1 1_555 1_555
H12 C14 1_555 1_555
C16 N4 1_555 1_555
H14 C16 1_555 1_555
C18 C14 1_555 1_555
H15 C18 1_555 1_555
C1 N8 1_555 1_555
C1 C8 1_555 1_555
N4 B1 1_555 1_555
C4 N8 1_555 1_555
N5 C6 1_555 1_555
N5 B1 1_555 1_555
C18 C20 1_555 1_555
N7 C9 1_555 1_555
C9 H9 1_555 1_555
C15 N7 1_555 1_555
H13 C15 1_555 1_555
Cd7 N7 1_555 1_555
N22 C33 1_555 1_555
C33 H27 1_555 1_555
C35 N22 1_555 1_555
H29 C35 1_555 1_555
H17 C22 1_555 1_555
C24 C11 1_555 1_555
H18 C24 1_555 1_555
N9 C28 1_555 1_555
C25 H19 1_555 1_555
C26 H20 1_555 1_555
N10 C26 1_555 1_555
C28 H22 1_555 1_555
N13 C29 1_555 1_555
C29 C26 1_555 1_555
H23 C29 1_555 1_555
C30 N10 1_555 1_555
C32 N9 1_555 1_555
H26 C32 1_555 1_555
B2 N9 1_555 1_555
C36 N12 1_555 1_555
H30 C36 1_555 1_555
C22 C24 1_555 1_555
C25 N16 1_555 1_555
C25 C32 1_555 1_555
N12 B2 1_555 1_555
C28 N16 1_555 1_555
N13 C30 1_555 1_555
N13 B2 1_555 1_555
O3 C23 1_555 1_555
O4 C23 1_555 1_555
C21 C19 1_555 1_555
C23 C21 1_555 1_555
Cd7 O3 1_555 1_555
N18 Cd7 1_555 1_555
O4 Cd7 1_555 1_555
N11 C27 1_555 1_555
C27 H21 1_555 1_555
N20 C27 1_555 1_555
C31 N11 1_555 1_555
H25 C31 1_555 1_555
C34 N20 1_555 1_555
H28 C34 1_555 1_555
C31 C34 1_555 1_555
N9_2 C28_2 1_555 1_555
C25_2 H19_2 1_555 1_555
C26_2 H20_2 1_555 1_555
N18 C26_2 1_555 1_555
N11_2 C27_2 1_555 1_555
N12_2 C33_2 1_555 1_555
C27_2 H21_2 1_555 1_555
C28_2 H22_2 1_555 1_555
N13_2 C29_2 1_555 1_555
C29_2 C26_2 1_555 1_555
H23_2 C29_2 1_555 1_555
N14 C27_2 1_555 1_555
C30_2 N18 1_555 1_555
H24_2 C30_2 1_555 1_555
N15 C33_2 1_555 1_555
C31_2 N11_2 1_555 1_555
H25_2 C31_2 1_555 1_555
C32_2 N9_2 1_555 1_555
H26_2 C32_2 1_555 1_555
C33_2 H27_2 1_555 1_555
C34_2 N14 1_555 1_555
H28_2 C34_2 1_555 1_555
B2_2 N9_2 1_555 1_555
C35_2 N15 1_555 1_555
C36_2 N12_2 1_555 1_555
H30_2 C36_2 1_555 1_555
Cd5 N15 1_555 1_555
Cd8 N14 1_555 1_555
C25_2 N16_2 1_555 1_555
C25_2 C32_2 1_555 1_555
N11_2 B2_2 1_555 1_555
N12_2 B2_2 1_555 1_555
C28_2 N16_2 1_555 1_555
N13_2 C30_2 1_555 1_555
N13_2 B2_2 1_555 1_555
C31_2 C34_2 1_555 1_555
C35_2 C36_2 1_555 1_555
Cd5 O1_2 1_555 1_555
O1_2 C17_2 1_555 1_555
O2_2 Cd5 1_555 1_555
C10_2 H10_2 1_555 1_555
C11_2 C10_2 1_555 1_555
C13_2 C10_2 1_555 1_555
C14_2 C13_2 1_555 1_555
H12_2 C14_2 1_555 1_555
C17_2 O2_2 1_555 1_555
C24_2 C11_2 1_555 1_555
H18_2 C24_2 1_555 1_555
N19 Cd5 1_555 1_555
C13_2 C17_2 1_555 1_555
H15_2 C18_2 1_555 1_555
O3_2 C23_2 1_555 1_555
O4_2 C23_2 1_555 1_555
C19_2 H16_2 1_555 1_555
C21_2 C19_2 1_555 1_555
C22_2 C21_2 1_555 1_555
H17_2 C22_2 1_555 1_555
C23_2 C21_2 1_555 1_555
Cd8 O3_2 1_555 1_555
N21 Cd8 1_555 1_555
C18_2 C20_2 1_555 1_555
O4_2 Cd8 1_555 1_555
C19_2 C20_2 1_555 1_555
N1_2 C4_2 1_555 1_555
C1_2 H1_2 1_555 1_555
C2_2 H2_2 1_555 1_555
N17 C2_2 1_555 1_555
N3_2 C3_2 1_555 1_555
N4_2 C9_2 1_555 1_555
C3_2 H3_2 1_555 1_555
C4_2 H4_2 1_555 1_555
N5_2 C5_2 1_555 1_555
C5_2 C2_2 1_555 1_555
H5_2 C5_2 1_555 1_555
N19 C3_2 1_555 1_555
C6_2 N17 1_555 1_555
H6_2 C6_2 1_555 1_555
N21 C9_2 1_555 1_555
C7_2 N3_2 1_555 1_555
H7_2 C7_2 1_555 1_555
C8_2 N1_2 1_555 1_555
H8_2 C8_2 1_555 1_555
C9_2 H9_2 1_555 1_555
C12_2 N19 1_555 1_555
H11_2 C12_2 1_555 1_555
B1_2 N1_2 1_555 1_555
C15_2 N21 1_555 1_555
C16_2 N4_2 1_555 1_555
H14_2 C16_2 1_555 1_555
C1_2 N8_2 1_555 1_555
C1_2 C8_2 1_555 1_555
N3_2 B1_2 1_555 1_555
N4_2 B1_2 1_555 1_555
C4_2 N8_2 1_555 1_555
N5_2 C6_2 1_555 1_555
N5_2 B1_2 1_555 1_555
C7_2 C12_2 1_555 1_555
C15_2 C16_2 1_555 1_555

#END
