
###############################################################################
#
# This file contains modified crystal structure data generated from the
# MOF subset of the Cambridge Structural Database (CSD) v543 
# hosted by the Cambridge Crystallographic Data Centre (CCDC).
#
# This work is licensed under the Creative Commons
# Attribution-NonCommercial-ShareAlike 4.0 International License.
# To view a copy of this license, visit
# http://creativecommons.org/licenses/by-nc-sa/4.0/
# or send a letter to
# Creative Commons, PO Box 1866, Mountain View, CA 94042, USA.
#
# CIF created using the CSD Python API on 29 September 2022
# The structure has been converted into the P1 space group
# The structure has a 3D framework
# The original CSD entry NAJQUN is in the triclinic crystal system
# The framework has been calculated to contain at least 10.0% void space
# The void calculation uses a probe of radius 1.32A, grid spacing 0.4
# H atom positions have been added when not included in the experimental data
# Generated hydrogen atom positions removed from atoms on special positions
#
###############################################################################

data_NAJQUN
_chemical_formula_moiety         '(C100 H102 Mn11 N4 O46)n'
_symmetry_cell_setting           triclinic
_symmetry_space_group_name_H-M   'P 1'
_symmetry_Int_Tables_number      1
_space_group_name_Hall           'P 1'
loop_
_symmetry_equiv_pos_site_id
_symmetry_equiv_pos_as_xyz
1 x,y,z
_cell_length_a                   8.8353(9)
_cell_length_b                   14.2682(14)
_cell_length_c                   22.808(2)
_cell_angle_alpha                92.4750(10)
_cell_angle_beta                 91.1010(10)
_cell_angle_gamma                105.4450(10)
_cell_volume                     2767.43
loop_
_atom_site_label
_atom_site_type_symbol
_atom_site_fract_x
_atom_site_fract_y
_atom_site_fract_z
Mn23 Mn -0.0000 -0.0000 0.5000
Mn1 Mn 0.00833(6) 0.54815(4) 0.07958(2)
H10 H 0.0084 0.5892 0.2964
O7 O 0.0247(3) 0.5751(2) 0.18502(12)
O19 O 0.1357(3) 0.44150(19) 0.09696(11)
O46 O 0.0151(4) 0.0433(3) 0.59562(14)
Mn23_2 Mn -0.0000 1.0000 0.5000
O50 O 0.2179(3) 0.11420(17) 0.48739(11)
O63 O 0.2413(3) 0.66299(17) 0.09214(10)
H69 H 0.0425748 0.0128036 0.382118
H82 H 0.0670738 0.000990525 0.617366
O61 O 0.1285(3) 0.56224(16) 0.98575(10)
O57 O 0.1131(3) 0.89228(17) 0.52218(12)
H70 H 0.0323964 0.901551 0.397773
Mn23_3 Mn 1.0000 -0.0000 0.5000
C1 C 0.6972(4) 0.8214(2) 0.47710(14)
C2 C 0.7121(4) 0.7198(2) 0.47833(14)
C3 C 0.6157(4) 0.6465(2) 0.44123(15)
H1 H 0.5405 0.6611 0.4168
C4 C 0.6308(4) 0.5528(2) 0.44054(15)
H2 H 0.5657 0.5045 0.4158
C5 C 0.7434(4) 0.5301(2) 0.47672(14)
C6 C 0.8373(4) 0.6021(2) 0.51422(15)
H3 H 0.9110 0.5871 0.5392
C7 C 0.8223(4) 0.6968(2) 0.51475(15)
H4 H 0.8868 0.7448 0.5398
C8 C 0.7571(4) 0.4280(2) 0.47723(13)
C9 C 0.7670(4) 0.3715(2) 0.42571(13)
C10 C 0.7664(4) 0.2742(2) 0.43073(14)
H5 H 0.7700 0.2362 0.3969
C11 C 0.7603(4) 0.2324(2) 0.48515(13)
C12 C 0.7567(4) 0.2898(2) 0.53588(13)
C13 C 0.7563(4) 0.3860(2) 0.53105(14)
H6 H 0.7554 0.4240 0.5651
C14 C 0.7512(4) 0.2489(2) 0.59546(14)
C15 C 0.7608(4) 0.1275(2) 0.48500(13)
C16 C 0.9002(4) 0.5000(3) 0.35771(15)
H7 H 0.9516 0.5382 0.3899
C17 C 0.7892(4) 0.4117(2) 0.36615(14)
C18 C 0.7119(4) 0.3584(3) 0.31754(15)
H8 H 0.6355 0.3006 0.3226
C19 C 0.7458(5) 0.3893(3) 0.26095(16)
H9 H 0.6925 0.3520 0.2287
C20 C 0.8588(4) 0.4757(3) 0.25269(14)
C21 C 0.9338(4) 0.5305(3) 0.30148(15)
C22 C 0.9034(4) 0.5066(3) 0.19132(15)
C23 C 0.7432(4) 0.3752(2) 0.02284(13)
C24 C 0.7455(4) 0.2698(2) 0.02497(14)
C27 C 0.7493(4) 0.0747(2) 0.03466(14)
C28 C 0.7391(4) 0.1317(2) 0.08553(13)
C29 C 0.7396(4) 0.2289(2) 0.07957(14)
H12 H 0.7359 0.2675 0.1131
C31 C 0.7151(4) 0.0899(2) 0.14516(15)
C32 C 0.7966(5) 0.1390(3) 0.19442(16)
H13 H 0.8717 0.1978 0.1907
C33 C 0.7674(5) 0.1011(3) 0.24965(16)
H14 H 0.8216 0.1353 0.2827
C34 C 0.6565(4) 0.0118(3) 0.25529(15)
C36 C 0.6057(4) 0.0004(3) 0.15104(15)
C48 C 0.2344(5) 0.0017(4) 0.2269(2)
C49 C 0.2648(8) 0.1219(5) 0.1528(2)
H29 H 0.2194 0.0655 0.1275
H30 H 0.3681 0.1533 0.1401
H31 H 0.2002 0.1663 0.1513
C50 C 0.3591(10) 0.1664(4) 0.2545(3)
H32 H 0.3226 0.1512 0.2932
H33 H 0.3422 0.2277 0.2447
H34 H 0.4692 0.1705 0.2533
N2 N 0.2751(5) 0.0922(3) 0.21338(16)
O1 O 0.5973(3) 0.83653(18) 0.44125(11)
O2 O 0.7821(3) 0.88580(17) 0.51261(11)
O3 O 0.7500(3) 0.30171(18) 0.64014(10)
O4 O 0.7443(3) 0.15869(17) 0.59958(10)
O5 O 0.6276(2) 0.06523(16) 0.48983(9)
O6 O 0.8869(3) 0.10772(17) 0.47782(12)
O8 O 0.8214(3) 0.4629(2) 0.14815(10)
O9 O 0.6148(3) 0.39331(16) 0.03158(10)
O10 O 0.8715(3) 0.43776(16) 0.01425(10)
O16 O 0.6937(3) 0.0179(2) 0.35958(11)
O20 O 0.3753(3) 0.05515(18) 0.39608(11)
Mn14 Mn 0.50575(6) 0.95296(3) 0.42616(2)
Mn16 Mn 0.49425(6) 0.04704(3) 0.57384(2)
Mn18 Mn 0.74340(7) 0.17366(4) 0.69819(2)
Mn20 Mn 0.5000 0.5000 0.0000
Mn23_4 Mn 1.0000 1.0000 0.5000
O64 O 0.8978(3) 0.65980(17) 0.06879(11)
H81 H 0.90769 0.0359255 0.610313
C25 C 0.7482(4) 0.2118(2) 0.97467(13)
C26 C 0.7495(4) 0.1152(2) 0.98069(14)
H11 H 0.7506 0.0764 0.9470
C30 C 0.7448(4) 0.2479(2) 0.91346(14)
O11 O 0.7587(3) 0.33701(17) 0.90786(10)
O12 O 0.7273(4) 0.18537(19) 0.87171(11)
Mn12 Mn 0.99167(6) 0.45185(4) 0.92042(2)
Mn20_2 Mn 0.5000 0.5000 1.0000
Mn3 Mn 0.25660(7) 0.82634(4) 0.30181(2)
C35 C 0.5779(4) 0.9620(3) 0.20590(15)
H15 H 0.5055 0.9019 0.2093
H16 H 0.5510 0.9663 0.1180
C37 C 0.7600(4) 0.9719(2) 0.03600(14)
C38 C 0.8727(4) 0.9476(2) 0.07145(15)
H17 H 0.9399 0.9955 0.0957
C39 C 0.8859(4) 0.8529(3) 0.07103(15)
H18 H 0.9614 0.8378 0.0951
C40 C 0.7864(4) 0.7801(2) 0.03470(14)
C43 C 0.8004(4) 0.6779(2) 0.03322(14)
C44 C 0.6154(4) 0.9759(3) 0.31516(16)
H28 H 0.1924 0.9551 0.1970
O15 O 0.4980(3) 0.9028(2) 0.32065(12)
O17 O 0.0059(3) 0.7943(3) 0.29660(15)
O18 O 0.2471(4) 0.9724(2) 0.27703(14)
O21 O 0.2653(3) 0.7360(2) 0.22686(11)
O22 O 0.4721(3) 0.55924(19) 0.08853(11)
O23 O 0.9849(4) 0.9567(3) 0.40438(14)
C91 C 0.3252(4) 0.1953(2) 0.00099(15)
H53 H 0.3921 0.2429 0.0256
C92 C 0.3374(4) 0.1006(2) 0.00013(15)
H54 H 0.4125 0.0854 0.0243
O36 O 0.2827(3) 0.38280(16) 0.00457(10)
O52 O 0.2500(3) 0.69829(18) 0.35986(10)
O54 O 0.2557(3) 0.84131(17) 0.40042(10)
O56 O 0.3724(2) 0.93477(16) 0.51017(9)
C41 C 0.6748(4) 0.8047(2) 0.99901(15)
H19 H 0.6079 0.7571 0.9744
C42 C 0.6626(4) 0.8994(2) 0.99987(15)
H20 H 0.5875 0.9146 0.9757
O13 O 0.7173(3) 0.61720(16) 0.99543(10)
C85 C 0.4221(4) 0.0380(3) 0.79410(15)
H49 H 0.4945 0.0981 0.7907
H50 H 0.4490 0.0337 0.8820
C87 C 0.2400(4) 0.0281(2) 0.96400(14)
C88 C 0.1273(4) 0.0524(2) 0.92855(15)
H51 H 0.0601 0.0045 0.9043
C89 C 0.1141(4) 0.1471(3) 0.92897(15)
H52 H 0.0386 0.1622 0.9049
C90 C 0.2136(4) 0.2199(2) 0.96530(14)
C93 C 0.1996(4) 0.3221(2) 0.96678(14)
C94 C 0.3846(4) 0.0241(3) 0.68484(16)
H62 H 0.8076 0.0449 0.8030
O37 O 0.1022(3) 0.34020(17) 0.93121(11)
O38 O 0.5020(3) 0.0972(2) 0.67935(12)
O40 O 0.9941(3) 0.2057(3) 0.70340(15)
O41 O 0.7529(4) 0.0276(2) 0.72297(14)
O44 O 0.7347(3) 0.2640(2) 0.77314(11)
O45 O 0.5279(3) 0.44076(19) 0.91147(11)
O48 O 0.4027(3) 0.16347(18) 0.55875(11)
O59 O 0.3852(3) 0.60669(16) 0.96842(10)
C75 C 0.2518(4) 0.7882(2) 0.02533(13)
C76 C 0.2505(4) 0.8848(2) 0.01931(14)
H45 H 0.2494 0.9236 0.0530
C80 C 0.2552(4) 0.7521(2) 0.08654(14)
O35 O 0.2727(4) 0.81463(19) 0.12829(11)
C51 C 0.3028(4) 0.1786(2) 0.52290(14)
C52 C 0.2879(4) 0.2802(2) 0.52167(14)
C53 C 0.3843(4) 0.3535(2) 0.55877(15)
H35 H 0.4595 0.3389 0.5832
C54 C 0.3692(4) 0.4472(2) 0.55946(15)
H36 H 0.4343 0.4955 0.5842
C55 C 0.2566(4) 0.4699(2) 0.52328(14)
C56 C 0.1627(4) 0.3979(2) 0.48578(15)
H37 H 0.0890 0.4129 0.4608
C57 C 0.1777(4) 0.3032(2) 0.48525(15)
H38 H 0.1132 0.2552 0.4602
C58 C 0.2429(4) 0.5720(2) 0.52277(13)
C59 C 0.2330(4) 0.6285(2) 0.57429(13)
C60 C 0.2336(4) 0.7258(2) 0.56927(14)
H39 H 0.2300 0.7638 0.6031
C61 C 0.2397(4) 0.7676(2) 0.51485(13)
C62 C 0.2433(4) 0.7102(2) 0.46412(13)
C63 C 0.2437(4) 0.6140(2) 0.46895(14)
H40 H 0.2446 0.5760 0.4349
C64 C 0.2488(4) 0.7511(2) 0.40454(14)
C65 C 0.2392(4) 0.8725(2) 0.51500(13)
C66 C 0.0998(4) 0.5000(3) 0.64229(15)
H41 H 0.0484 0.4618 0.6101
C67 C 0.2108(4) 0.5883(2) 0.63385(14)
C68 C 0.2881(4) 0.6416(3) 0.68246(15)
H42 H 0.3645 0.6994 0.6774
C69 C 0.2542(5) 0.6107(3) 0.73905(16)
H43 H 0.3075 0.6480 0.7713
C70 C 0.1412(4) 0.5243(3) 0.74731(14)
C71 C 0.0662(4) 0.4695(3) 0.69852(15)
C72 C 0.0966(4) 0.4934(3) 0.80868(15)
C73 C 0.2568(4) 0.6248(2) 0.97716(13)
C74 C 0.2545(4) 0.7302(2) 0.97503(14)
C77 C 0.2507(4) 0.9253(2) 0.96534(14)
C78 C 0.2609(4) 0.8683(2) 0.91447(13)
C79 C 0.2604(4) 0.7711(2) 0.92043(14)
H46 H 0.2641 0.7325 0.8869
C81 C 0.2849(4) 0.9101(2) 0.85484(15)
C82 C 0.2034(5) 0.8610(3) 0.80558(16)
H47 H 0.1283 0.8022 0.8093
C83 C 0.2326(5) 0.8989(3) 0.75035(16)
H48 H 0.1784 0.8647 0.7173
C84 C 0.3435(4) 0.9882(3) 0.74471(15)
C86 C 0.3943(4) 0.9996(3) 0.84896(15)
C98 C 0.7656(5) 0.9983(4) 0.7731(2)
C99 C 0.7352(8) 0.8781(5) 0.8472(2)
H63 H 0.7806 0.9345 0.8725
H64 H 0.6319 0.8467 0.8599
H65 H 0.7998 0.8337 0.8487
C100 C 0.6409(10) 0.8336(4) 0.7455(3)
H66 H 0.6774 0.8488 0.7068
H67 H 0.6578 0.7723 0.7553
H68 H 0.5308 0.8295 0.7467
N4 N 0.7249(5) 0.9078(3) 0.78662(16)
O31 O 0.1786(3) 0.5371(2) 0.85185(10)
O39 O 0.3063(3) 0.9821(2) 0.64042(11)
O43 O 0.6247(3) 0.94485(18) 0.60392(11)
H44 H 0.9916 0.4108 0.7036
O30 O 0.9753(3) 0.4249(2) 0.81498(12)
O42 O 0.8643(3) 0.55850(19) 0.90304(11)
H81_2 H 0.0923099 0.964074 0.389687
H70_2 H 0.967604 0.0984488 0.602227
H69_2 H 0.957425 0.987196 0.617882
H82_2 H 0.932926 0.999009 0.382634
C95 C 0.0780(6) 0.2350(4) 0.7499(2)
H55 H 0.0289 0.2321 0.7858
C96 C 0.3105(7) 0.2775(5) 0.6952(3)
H56 H 0.3261 0.3424 0.6822
H57 H 0.4105 0.2642 0.7010
H58 H 0.2490 0.2318 0.6661
C97 C 0.3201(7) 0.3067(5) 0.8038(2)
H59 H 0.3937 0.2695 0.8113
H60 H 0.3758 0.3737 0.8000
H61 H 0.2498 0.3018 0.8358
N3 N 0.2299(4) 0.2688(3) 0.74931(15)
C45 C 0.9220(6) 0.7650(4) 0.2501(2)
H21 H 0.9711 0.7679 0.2142
C46 C 0.6895(7) 0.7225(5) 0.3048(3)
H22 H 0.6739 0.6576 0.3178
H23 H 0.5895 0.7358 0.2990
H24 H 0.7510 0.7682 0.3339
C47 C 0.6799(7) 0.6933(5) 0.1962(2)
H25 H 0.6063 0.7305 0.1887
H26 H 0.6242 0.6263 0.2000
H27 H 0.7502 0.6982 0.1642
N1 N 0.7701(4) 0.7312(3) 0.25069(15)
loop_
_geom_bond_atom_site_label_1
_geom_bond_atom_site_label_2
_geom_bond_site_symmetry_1
_geom_bond_site_symmetry_2
Mn1 O7 1_555 1_555
O19 Mn1 1_555 1_555
O46 Mn23 1_555 1_555
O50 Mn23 1_555 1_555
O63 Mn1 1_555 1_555
O46 H82 1_555 1_555
O57 Mn23_2 1_555 1_555
Mn23_3 O6 1_555 1_555
C1 C2 1_555 1_555
C2 C3 1_555 1_555
C3 H1 1_555 1_555
C4 C3 1_555 1_555
H2 C4 1_555 1_555
C5 C4 1_555 1_555
C6 C5 1_555 1_555
H3 C6 1_555 1_555
C7 C2 1_555 1_555
H4 C7 1_555 1_555
C8 C5 1_555 1_555
C9 C8 1_555 1_555
C10 C9 1_555 1_555
H5 C10 1_555 1_555
C11 C10 1_555 1_555
C12 C11 1_555 1_555
C13 C8 1_555 1_555
H6 C13 1_555 1_555
C14 C12 1_555 1_555
C15 C11 1_555 1_555
C16 H7 1_555 1_555
C17 C9 1_555 1_555
C18 C17 1_555 1_555
H8 C18 1_555 1_555
C19 C18 1_555 1_555
H9 C19 1_555 1_555
C20 C19 1_555 1_555
C21 C16 1_555 1_555
C22 C20 1_555 1_555
C23 C24 1_555 1_555
C28 C27 1_555 1_555
C29 C24 1_555 1_555
H12 C29 1_555 1_555
C31 C28 1_555 1_555
C32 C31 1_555 1_555
H13 C32 1_555 1_555
C33 C32 1_555 1_555
H14 C33 1_555 1_555
C34 C33 1_555 1_555
C36 C31 1_555 1_555
C49 H29 1_555 1_555
H30 C49 1_555 1_555
H31 C49 1_555 1_555
C50 H32 1_555 1_555
H33 C50 1_555 1_555
H34 C50 1_555 1_555
N2 C48 1_555 1_555
O1 C1 1_555 1_555
O2 C1 1_555 1_555
O3 C14 1_555 1_555
O4 C14 1_555 1_555
O5 C15 1_555 1_555
O6 C15 1_555 1_555
O9 C23 1_555 1_555
Mn14 O1 1_555 1_555
Mn16 O4 1_555 1_555
Mn18 O3 1_555 1_555
Mn20 O9 1_555 1_555
Mn23_4 O2 1_555 1_555
C6 C7 1_555 1_555
C12 C13 1_555 1_555
C16 C17 1_555 1_555
C20 C21 1_555 1_555
C22 O8 1_555 1_555
C23 O10 1_555 1_555
C28 C29 1_555 1_555
C49 N2 1_555 1_555
C50 N2 1_555 1_555
O4 Mn18 1_555 1_555
O5 Mn16 1_555 1_555
C25 C26 1_555 1_555
C26 H11 1_555 1_555
C30 C25 1_555 1_555
O11 C30 1_555 1_555
O12 C30 1_555 1_555
O11 Mn12 1_555 1_555
Mn3 O15 1_555 1_555
H15 C35 1_555 1_555
C38 C37 1_555 1_555
H17 C38 1_555 1_555
C39 C38 1_555 1_555
H18 C39 1_555 1_555
C40 C39 1_555 1_555
C43 C40 1_555 1_555
O64 C43 1_555 1_555
O15 Mn14 1_555 1_555
O17 Mn3 1_555 1_555
O18 Mn3 1_555 1_555
O21 Mn3 1_555 1_555
O22 Mn20 1_555 1_555
O23 Mn23_4 1_555 1_555
H53 C91 1_555 1_555
H54 C92 1_555 1_555
O36 Mn20 1_555 1_555
O52 Mn3 1_555 1_555
O54 Mn14 1_555 1_555
O56 Mn14 1_555 1_555
Mn3 O54 1_555 1_555
C44 O15 1_555 1_555
C91 C92 1_555 1_555
Mn20_2 O13 1_555 1_555
H19 C41 1_555 1_555
H20 C42 1_555 1_555
Mn18 O38 1_555 1_555
H49 C85 1_555 1_555
C88 C87 1_555 1_555
H51 C88 1_555 1_555
C89 C88 1_555 1_555
H52 C89 1_555 1_555
C90 C89 1_555 1_555
C93 C90 1_555 1_555
O37 C93 1_555 1_555
O38 Mn16 1_555 1_555
O40 Mn18 1_555 1_555
O41 Mn18 1_555 1_555
O44 Mn18 1_555 1_555
O45 Mn20_2 1_555 1_555
O48 Mn16 1_555 1_555
O59 Mn20_2 1_555 1_555
C41 C42 1_555 1_555
C94 O38 1_555 1_555
C75 C76 1_555 1_555
C76 H45 1_555 1_555
C80 C75 1_555 1_555
O63 C80 1_555 1_555
O35 C80 1_555 1_555
C51 C52 1_555 1_555
C52 C53 1_555 1_555
C53 H35 1_555 1_555
C54 C53 1_555 1_555
H36 C54 1_555 1_555
C55 C54 1_555 1_555
C56 C55 1_555 1_555
H37 C56 1_555 1_555
C57 C52 1_555 1_555
H38 C57 1_555 1_555
C58 C55 1_555 1_555
C59 C58 1_555 1_555
C60 C59 1_555 1_555
H39 C60 1_555 1_555
C61 C60 1_555 1_555
C62 C61 1_555 1_555
C63 C58 1_555 1_555
H40 C63 1_555 1_555
C64 C62 1_555 1_555
C65 C61 1_555 1_555
C66 H41 1_555 1_555
C67 C59 1_555 1_555
C68 C67 1_555 1_555
H42 C68 1_555 1_555
C69 C68 1_555 1_555
H43 C69 1_555 1_555
C70 C69 1_555 1_555
C71 C66 1_555 1_555
C72 C70 1_555 1_555
C73 C74 1_555 1_555
C78 C77 1_555 1_555
C79 C74 1_555 1_555
H46 C79 1_555 1_555
C81 C78 1_555 1_555
C82 C81 1_555 1_555
H47 C82 1_555 1_555
C83 C82 1_555 1_555
H48 C83 1_555 1_555
C84 C83 1_555 1_555
C86 C81 1_555 1_555
C99 H63 1_555 1_555
H64 C99 1_555 1_555
H65 C99 1_555 1_555
C100 H66 1_555 1_555
H67 C100 1_555 1_555
H68 C100 1_555 1_555
N4 C98 1_555 1_555
O48 C51 1_555 1_555
O50 C51 1_555 1_555
O52 C64 1_555 1_555
O54 C64 1_555 1_555
O56 C65 1_555 1_555
O57 C65 1_555 1_555
O59 C73 1_555 1_555
C56 C57 1_555 1_555
C62 C63 1_555 1_555
C66 C67 1_555 1_555
C70 C71 1_555 1_555
C72 O31 1_555 1_555
C73 O61 1_555 1_555
C78 C79 1_555 1_555
C99 N4 1_555 1_555
C100 N4 1_555 1_555
Mn12 O30 1_555 1_555
O42 Mn12 1_555 1_555
O23 H82_2 1_555 1_555
C95 H55 1_555 1_555
C96 H56 1_555 1_555
H57 C96 1_555 1_555
H58 C96 1_555 1_555
C97 H59 1_555 1_555
H60 C97 1_555 1_555
H61 C97 1_555 1_555
N3 C95 1_555 1_555
C96 N3 1_555 1_555
C97 N3 1_555 1_555
C45 H21 1_555 1_555
C46 H22 1_555 1_555
H23 C46 1_555 1_555
H24 C46 1_555 1_555
C47 H25 1_555 1_555
H26 C47 1_555 1_555
H27 C47 1_555 1_555
N1 C45 1_555 1_555
C46 N1 1_555 1_555
C47 N1 1_555 1_555

#END
