
###############################################################################
#
# This file contains modified crystal structure data generated from the
# MOF subset of the Cambridge Structural Database (CSD) v543 
# hosted by the Cambridge Crystallographic Data Centre (CCDC).
#
# This work is licensed under the Creative Commons
# Attribution-NonCommercial-ShareAlike 4.0 International License.
# To view a copy of this license, visit
# http://creativecommons.org/licenses/by-nc-sa/4.0/
# or send a letter to
# Creative Commons, PO Box 1866, Mountain View, CA 94042, USA.
#
# CIF created using the CSD Python API on 29 September 2022
# The structure has been converted into the P1 space group
# The structure has a 3D framework
# The original CSD entry NAJRIC is in the triclinic crystal system
# The framework has been calculated to contain at least 10.0% void space
# The void calculation uses a probe of radius 1.32A, grid spacing 0.4
# H atom positions have been added when not included in the experimental data
#
###############################################################################

data_NAJRIC
_chemical_formula_moiety         '(C64 H52 Mn2 N8 O20)n'
_symmetry_cell_setting           triclinic
_symmetry_space_group_name_H-M   'P 1'
_symmetry_Int_Tables_number      1
_space_group_name_Hall           'P 1'
loop_
_symmetry_equiv_pos_site_id
_symmetry_equiv_pos_as_xyz
1 x,y,z
_cell_length_a                   10.245(3)
_cell_length_b                   13.308(4)
_cell_length_c                   14.140(4)
_cell_angle_alpha                62.591(3)
_cell_angle_beta                 72.370(3)
_cell_angle_gamma                80.428(4)
_cell_volume                     1630.23
loop_
_atom_site_label
_atom_site_type_symbol
_atom_site_fract_x
_atom_site_fract_y
_atom_site_fract_z
_atom_site_U_iso_or_equiv
_atom_site_thermal_displace_type
Mn12 Mn 0.02006(7) 0.09956(7) 0.04423(6) 0.0327 Uani
N4 N 0.0166(6) 0.5383(5) 0.5062(4) 0.0703 Uani
C38 C 0.1018(6) 0.3773(6) 0.2681(4) 0.0556 Uani
H23 H 0.1074 0.3112 0.2598 0.0680 Uiso
C39 C 0.0455(6) 0.3729(6) 0.3726(5) 0.0587 Uani
H24 H 0.0126 0.3057 0.4329 0.0710 Uiso
C40 C 0.0399(6) 0.4702(6) 0.3839(4) 0.0526 Uani
C41 C 0.0841(6) 0.5715(6) 0.2927(4) 0.0550 Uani
H25 H 0.0784 0.6388 0.2988 0.0660 Uiso
C42 C 0.1374(6) 0.5669(6) 0.1918(4) 0.0530 Uani
H26 H 0.1669 0.6340 0.1299 0.0630 Uiso
N7 N 0.1490(5) 0.4737(4) 0.1778(3) 0.0435 Uani
Mn8 Mn 0.27132(7) 0.47037(6) 0.01500(5) 0.0282 Uani
O24 O 0.0404(6) 0.0976(6) 0.2035(4) 0.0986 Uani
H44 H 0.230762 0.220392 0.0350914 . .
C2 C 0.8312(6) 0.0426(6) 0.6797(5) 0.0569 Uani
C4 C 0.7866(6) 0.0295(6) 0.5275(5) 0.0545 Uani
C5 C 0.7091(5) 0.1281(4) 0.5062(4) 0.0339 Uani
C6 C 0.6923(6) 0.1852(6) 0.5695(5) 0.0525 Uani
H3 H 0.6395 0.2521 0.5545 0.0630 Uiso
C7 C 0.7545(7) 0.1426(7) 0.6559(5) 0.0654 Uani
H4 H 0.7443 0.1817 0.6980 0.0780 Uiso
C8 C 0.6488(5) 0.1785(4) 0.4072(3) 0.0303 Uani
C9 C 0.5086(5) 0.2053(4) 0.4143(4) 0.0311 Uani
C10 C 0.4025(5) 0.1816(4) 0.5247(3) 0.0297 Uani
C11 C 0.3963(5) 0.0758(5) 0.6099(4) 0.0403 Uani
H5 H 0.4534 0.0175 0.5999 0.0480 Uiso
C12 C 0.3048(5) 0.0552(5) 0.7117(4) 0.0407 Uani
C13 C 0.2222(5) 0.1425(4) 0.7277(4) 0.0379 Uani
C14 C 0.2291(6) 0.2491(5) 0.6400(4) 0.0465 Uani
H7 H 0.1740 0.3084 0.6495 0.0560 Uiso
C15 C 0.3186(6) 0.2678(5) 0.5373(4) 0.0440 Uani
H8 H 0.3210 0.3388 0.4778 0.0530 Uiso
C16 C 0.1331(5) 0.1231(5) 0.8399(4) 0.0421 Uani
C17 C 0.4660(5) 0.2549(4) 0.3167(3) 0.0301 Uani
H9 H 0.3732 0.2713 0.3207 0.0360 Uiso
C18 C 0.5582(5) 0.2806(4) 0.2140(3) 0.0274 Uani
C19 C 0.5092(5) 0.3429(4) 0.1106(3) 0.0257 Uani
C20 C 0.6972(4) 0.2534(4) 0.2088(3) 0.0252 Uani
C21 C 0.7397(5) 0.2003(4) 0.3050(4) 0.0306 Uani
H10 H 0.8316 0.1787 0.3011 0.0370 Uiso
C22 C 0.8085(4) 0.2836(4) 0.1024(3) 0.0266 Uani
C23 C 0.7115(6) 0.4993(5) 0.2239(4) 0.0449 Uani
H11 H 0.8013 0.4747 0.2030 0.0540 Uiso
C24 C 0.6634(6) 0.4945(5) 0.3273(4) 0.0489 Uani
H12 H 0.7192 0.4664 0.3756 0.0590 Uiso
C25 C 0.5321(6) 0.5316(5) 0.3584(4) 0.0404 Uani
C26 C 0.4537(6) 0.5739(5) 0.2846(4) 0.0504 Uani
H13 H 0.3649 0.6017 0.3029 0.0600 Uiso
C27 C 0.5091(6) 0.5744(5) 0.1824(4) 0.0458 Uani
H14 H 0.4547 0.6019 0.1330 0.0550 Uiso
N1 N 0.6350(4) 0.5379(4) 0.1513(3) 0.0374 Uani
N2 N 0.4676(5) 0.5295(4) 0.4654(3) 0.0490 Uani
O1 O 0.8776(5) 0.0460(5) 0.8327(4) 0.0759 Uani
O3 O 0.1272(3) 0.0222(3) 0.9170(3) 0.0368 Uani
O4 O 0.0721(5) 0.2027(4) 0.8591(3) 0.0671 Uani
O5 O 0.3859(3) 0.3364(3) 0.1175(3) 0.0360 Uani
O6 O 0.5962(3) 0.3986(3) 0.0223(2) 0.0291 Uani
O7 O 0.8483(3) 0.2111(3) 0.0663(3) 0.0390 Uani
O8 O 0.8594(3) 0.3801(3) 0.0601(3) 0.0349 Uani
C33 C 0.2885(6) 0.5007(5) 0.7761(4) 0.0449 Uani
H19 H 0.1987 0.5253 0.7970 0.0540 Uiso
C34 C 0.3366(6) 0.5055(5) 0.6727(4) 0.0489 Uani
H20 H 0.2808 0.5336 0.6244 0.0590 Uiso
C35 C 0.4679(6) 0.4684(5) 0.6416(4) 0.0404 Uani
C36 C 0.5463(6) 0.4261(5) 0.7154(4) 0.0504 Uani
H21 H 0.6351 0.3983 0.6971 0.0600 Uiso
C37 C 0.4909(6) 0.4256(5) 0.8176(4) 0.0458 Uani
H22 H 0.5453 0.3981 0.8670 0.0550 Uiso
N5 N 0.3650(4) 0.4621(4) 0.8487(3) 0.0374 Uani
N6 N 0.5324(5) 0.4705(4) 0.5346(3) 0.0490 Uani
O20 O 0.2349(6) 0.1761(5) 0.9937(5) 0.0940 Uani
H37 H 0.922171 0.608146 0.0187536 . .
H43 H 0.259738 0.226478 0.913319 . .
Mn1 Mn 0.72868(7) 0.52963(6) 0.98500(5) 0.0282 Uani
C28 C 0.8982(6) 0.6227(6) 0.7319(4) 0.0556 Uani
H15 H 0.8926 0.6888 0.7402 0.0680 Uiso
C29 C 0.9545(6) 0.6271(6) 0.6274(5) 0.0587 Uani
H16 H 0.9874 0.6943 0.5671 0.0710 Uiso
C30 C 0.9601(6) 0.5298(6) 0.6161(4) 0.0526 Uani
C31 C 0.9159(6) 0.4285(6) 0.7073(4) 0.0550 Uani
H17 H 0.9216 0.3612 0.7012 0.0660 Uiso
C32 C 0.8626(6) 0.4331(6) 0.8082(4) 0.0530 Uani
H18 H 0.8331 0.3660 0.8701 0.0630 Uiso
N3 N 0.8510(5) 0.5263(4) 0.8222(3) 0.0435 Uani
O9 O 0.8729(4) 0.6443(4) 0.9598(4) 0.0565 Uani
N8 N 0.9834(6) 0.4617(5) 0.4938(4) 0.0703 Uani
O26 O 0.6141(3) 0.6636(3) 0.8825(3) 0.0360 Uani
H38 H 0.939779 0.663653 0.886837 . .
O22 O 0.1224(5) 0.9540(5) 0.1673(4) 0.0759 Uani
C1 C 0.8923(7) 0.9928(7) 0.7763(5) 0.0663 Uani
C3 C 0.8480(7) 0.9860(6) 0.6148(5) 0.0639 Uani
H1 H 0.9003 0.9189 0.6297 0.0760 Uiso
H2 H 0.7982 0.9918 0.4839 0.0660 Uiso
H6 H 0.2990 0.9826 0.7692 0.0480 Uiso
O2 O 0.9596(6) 0.9024(6) 0.7965(4) 0.0986 Uani
Mn10 Mn 0.97994(7) 0.90044(7) 0.95577(6) 0.0327 Uani
O28 O 0.1517(3) 0.7889(3) 0.9337(3) 0.0390 Uani
C43 C 0.1077(7) 0.0072(7) 0.2237(5) 0.0663 Uani
C45 C 0.1520(7) 0.0140(6) 0.3852(5) 0.0639 Uani
H27 H 0.0997 0.0811 0.3703 0.0760 Uiso
H28 H 0.2018 0.0082 0.5161 0.0660 Uiso
H32 H 0.7010 0.0174 0.2308 0.0480 Uiso
O19 O 0.1271(4) 0.3557(4) 0.0402(4) 0.0565 Uani
H42 H 0.151724 0.277498 0.0897505 . .
O10 O 0.7651(6) 0.8239(5) 0.0063(5) 0.0940 Uani
C44 C 0.1688(6) 0.9574(6) 0.3203(5) 0.0569 Uani
C46 C 0.2134(6) 0.9705(6) 0.4725(5) 0.0545 Uani
C47 C 0.2909(5) 0.8719(4) 0.4938(4) 0.0339 Uani
C48 C 0.3077(6) 0.8148(6) 0.4305(5) 0.0525 Uani
H29 H 0.3605 0.7479 0.4455 0.0630 Uiso
C49 C 0.2455(7) 0.8574(7) 0.3441(5) 0.0654 Uani
H30 H 0.2557 0.8183 0.3020 0.0780 Uiso
C50 C 0.3512(5) 0.8215(4) 0.5928(3) 0.0303 Uani
C51 C 0.4914(5) 0.7947(4) 0.5857(4) 0.0311 Uani
C52 C 0.5975(5) 0.8184(4) 0.4753(3) 0.0297 Uani
C53 C 0.6037(5) 0.9242(5) 0.3901(4) 0.0403 Uani
H31 H 0.5466 0.9825 0.4001 0.0480 Uiso
C54 C 0.6952(5) 0.9448(5) 0.2883(4) 0.0407 Uani
C55 C 0.7778(5) 0.8575(4) 0.2723(4) 0.0379 Uani
C56 C 0.7709(6) 0.7509(5) 0.3600(4) 0.0465 Uani
H33 H 0.8260 0.6916 0.3505 0.0560 Uiso
C57 C 0.6814(6) 0.7322(5) 0.4627(4) 0.0440 Uani
H34 H 0.6790 0.6612 0.5222 0.0530 Uiso
C58 C 0.8669(5) 0.8769(5) 0.1601(4) 0.0421 Uani
C59 C 0.5340(5) 0.7451(4) 0.6833(3) 0.0301 Uani
H35 H 0.6268 0.7287 0.6793 0.0360 Uiso
C60 C 0.4418(5) 0.7194(4) 0.7860(3) 0.0274 Uani
C61 C 0.4908(5) 0.6571(4) 0.8894(3) 0.0257 Uani
C62 C 0.3028(4) 0.7466(4) 0.7912(3) 0.0252 Uani
C63 C 0.2603(5) 0.7997(4) 0.6950(4) 0.0306 Uani
H36 H 0.1684 0.8213 0.6989 0.0370 Uiso
C64 C 0.1915(4) 0.7164(4) 0.8976(3) 0.0266 Uani
O13 O 0.8728(3) 0.9778(3) 0.0830(3) 0.0368 Uani
O14 O 0.9279(5) 0.7973(4) 0.1409(3) 0.0671 Uani
O16 O 0.4038(3) 0.6014(3) 0.9777(2) 0.0291 Uani
O18 O 0.1406(3) 0.6199(3) 0.9399(3) 0.0349 Uani
H40 H 0.778044 0.747478 0.00809066 . .
H41 H 0.128791 0.359078 0.968207 . .
H39 H 0.712736 0.873955 0.951705 . .
H39_2 H 0.287264 0.126045 0.0482953 . .
H40_2 H 0.221956 0.252522 0.991909 . .
H41_2 H 0.871209 0.640922 0.0317931 . .
H42_2 H 0.848276 0.722502 0.910249 . .
H38_2 H 0.0602215 0.336347 0.113163 . .
H37_2 H 0.0778287 0.391854 0.981246 . .
H43_2 H 0.740262 0.773522 0.0866811 . .
H44_2 H 0.769238 0.779608 0.964909 . .
loop_
_atom_site_aniso_label
_atom_site_aniso_U_11
_atom_site_aniso_U_22
_atom_site_aniso_U_33
_atom_site_aniso_U_23
_atom_site_aniso_U_13
_atom_site_aniso_U_12
Mn12 0.0324 0.0392 0.0256 -0.0147 -0.0082 0.004
N4 0.068 0.1 0.025 -0.021 0 0.001
C38 0.058 0.058 0.03 -0.011 -0.002 0.008
C39 0.055 0.073 0.029 -0.015 0.004 -0.004
C40 0.046 0.07 0.023 -0.015 -0.001 0.015
C41 0.057 0.065 0.029 -0.02 -0.003 0.017
C42 0.057 0.058 0.025 -0.012 -0.003 0.013
N7 0.042 0.051 0.023 -0.012 -0.0003 0.007
Mn8 0.0238 0.0379 0.0205 -0.0112 -0.0058 0.0009
O24 0.081 0.156 0.054 -0.049 -0.044 0.068
C2 0.048 0.088 0.037 -0.028 -0.022 0.015
C4 0.063 0.069 0.035 -0.025 -0.027 0.023
C5 0.028 0.047 0.023 -0.013 -0.0114 0.01
C6 0.056 0.064 0.04 -0.023 -0.026 0.018
C7 0.073 0.092 0.047 -0.042 -0.033 0.026
C8 0.031 0.038 0.018 -0.009 -0.0091 0.004
C9 0.027 0.042 0.019 -0.012 -0.0037 0.004
C10 0.03 0.036 0.017 -0.007 -0.0076 0.0036
C11 0.043 0.04 0.027 -0.013 0 0.004
C12 0.045 0.037 0.023 -0.005 0.002 -0.003
C13 0.04 0.036 0.027 -0.01 -0.001 0
C14 0.045 0.037 0.03 -0.005 0.004 0.013
C15 0.045 0.042 0.021 -0.001 -0.002 0.008
C16 0.038 0.047 0.029 -0.013 0.002 -0.001
C17 0.023 0.042 0.02 -0.01 -0.0069 0.0044
C18 0.027 0.034 0.017 -0.0083 -0.0071 0.0036
C19 0.029 0.028 0.02 -0.009 -0.0125 0.0065
C20 0.027 0.029 0.015 -0.0074 -0.0044 0.0018
C21 0.02 0.044 0.026 -0.014 -0.0104 0.0084
C22 0.022 0.037 0.018 -0.009 -0.0094 0.0053
C23 0.038 0.072 0.029 -0.027 -0.013 0.011
C24 0.053 0.072 0.032 -0.03 -0.023 0.017
C25 0.051 0.049 0.026 -0.021 -0.015 0.01
C26 0.048 0.074 0.036 -0.032 -0.019 0.021
C27 0.051 0.065 0.029 -0.026 -0.022 0.018
N1 0.036 0.052 0.027 -0.019 -0.0116 0.0036
N2 0.056 0.064 0.034 -0.029 -0.018 0.016
O1 0.076 0.113 0.052 -0.038 -0.039 0.012
O3 0.0357 0.044 0.0191 -0.0058 -0.0022 -0.0056
O4 0.076 0.055 0.04 -0.019 0.014 0.015
O5 0.0245 0.046 0.0275 -0.0046 -0.0115 -0.0019
O6 0.0272 0.04 0.0142 -0.0065 -0.0058 -0.0017
O7 0.038 0.048 0.0281 -0.0204 -0.0074 0.0158
O8 0.023 0.044 0.0314 -0.0133 -0.0043 0
C33 0.038 0.072 0.029 -0.027 -0.013 0.011
C34 0.053 0.072 0.032 -0.03 -0.023 0.017
C35 0.051 0.049 0.026 -0.021 -0.015 0.01
C36 0.048 0.074 0.036 -0.032 -0.019 0.021
C37 0.051 0.065 0.029 -0.026 -0.022 0.018
N5 0.036 0.052 0.027 -0.019 -0.0116 0.0036
N6 0.056 0.064 0.034 -0.029 -0.018 0.016
O20 0.08 0.091 0.121 -0.059 -0.011 -0.017
Mn1 0.0238 0.0379 0.0205 -0.0112 -0.0058 0.0009
C28 0.058 0.058 0.03 -0.011 -0.002 0.008
C29 0.055 0.073 0.029 -0.015 0.004 -0.004
C30 0.046 0.07 0.023 -0.015 -0.001 0.015
C31 0.057 0.065 0.029 -0.02 -0.003 0.017
C32 0.057 0.058 0.025 -0.012 -0.003 0.013
N3 0.042 0.051 0.023 -0.012 -0.0003 0.007
O9 0.031 0.057 0.094 -0.041 -0.021 0.0004
N8 0.068 0.1 0.025 -0.021 0 0.001
O26 0.0245 0.046 0.0275 -0.0046 -0.0115 -0.0019
O22 0.076 0.113 0.052 -0.038 -0.039 0.012
C1 0.047 0.112 0.041 -0.036 -0.023 0.025
C3 0.069 0.082 0.046 -0.034 -0.034 0.039
O2 0.081 0.156 0.054 -0.049 -0.044 0.068
Mn10 0.0324 0.0392 0.0256 -0.0147 -0.0082 0.004
O28 0.038 0.048 0.0281 -0.0204 -0.0074 0.0158
C43 0.047 0.112 0.041 -0.036 -0.023 0.025
C45 0.069 0.082 0.046 -0.034 -0.034 0.039
O19 0.031 0.057 0.094 -0.041 -0.021 0.0004
O10 0.08 0.091 0.121 -0.059 -0.011 -0.017
C44 0.048 0.088 0.037 -0.028 -0.022 0.015
C46 0.063 0.069 0.035 -0.025 -0.027 0.023
C47 0.028 0.047 0.023 -0.013 -0.0114 0.01
C48 0.056 0.064 0.04 -0.023 -0.026 0.018
C49 0.073 0.092 0.047 -0.042 -0.033 0.026
C50 0.031 0.038 0.018 -0.009 -0.0091 0.004
C51 0.027 0.042 0.019 -0.012 -0.0037 0.004
C52 0.03 0.036 0.017 -0.007 -0.0076 0.0036
C53 0.043 0.04 0.027 -0.013 0 0.004
C54 0.045 0.037 0.023 -0.005 0.002 -0.003
C55 0.04 0.036 0.027 -0.01 -0.001 0
C56 0.045 0.037 0.03 -0.005 0.004 0.013
C57 0.045 0.042 0.021 -0.001 -0.002 0.008
C58 0.038 0.047 0.029 -0.013 0.002 -0.001
C59 0.023 0.042 0.02 -0.01 -0.0069 0.0044
C60 0.027 0.034 0.017 -0.0083 -0.0071 0.0036
C61 0.029 0.028 0.02 -0.009 -0.0125 0.0065
C62 0.027 0.029 0.015 -0.0074 -0.0044 0.0018
C63 0.02 0.044 0.026 -0.014 -0.0104 0.0084
C64 0.022 0.037 0.018 -0.009 -0.0094 0.0053
O13 0.0357 0.044 0.0191 -0.0058 -0.0022 -0.0056
O14 0.076 0.055 0.04 -0.019 0.014 0.015
O16 0.0272 0.04 0.0142 -0.0065 -0.0058 -0.0017
O18 0.023 0.044 0.0314 -0.0133 -0.0043 0
loop_
_geom_bond_atom_site_label_1
_geom_bond_atom_site_label_2
_geom_bond_site_symmetry_1
_geom_bond_site_symmetry_2
C38 H23 1_555 1_555
C39 C38 1_555 1_555
H24 C39 1_555 1_555
C40 C39 1_555 1_555
C41 C40 1_555 1_555
H25 C41 1_555 1_555
C42 C41 1_555 1_555
H26 C42 1_555 1_555
N7 C38 1_555 1_555
Mn8 N7 1_555 1_555
C42 N7 1_555 1_555
O24 Mn12 1_555 1_555
C5 C4 1_555 1_555
C6 C5 1_555 1_555
H3 C6 1_555 1_555
C7 C2 1_555 1_555
H4 C7 1_555 1_555
C8 C5 1_555 1_555
C9 C8 1_555 1_555
C10 C9 1_555 1_555
C11 C10 1_555 1_555
H5 C11 1_555 1_555
C12 C11 1_555 1_555
C13 C12 1_555 1_555
C14 C13 1_555 1_555
H7 C14 1_555 1_555
C15 C10 1_555 1_555
H8 C15 1_555 1_555
C16 C13 1_555 1_555
C17 C9 1_555 1_555
H9 C17 1_555 1_555
C18 C17 1_555 1_555
C19 C18 1_555 1_555
C20 C18 1_555 1_555
C21 C8 1_555 1_555
H10 C21 1_555 1_555
C22 C20 1_555 1_555
C23 H11 1_555 1_555
C24 C23 1_555 1_555
H12 C24 1_555 1_555
C25 C24 1_555 1_555
C26 C25 1_555 1_555
H13 C26 1_555 1_555
C27 C26 1_555 1_555
H14 C27 1_555 1_555
N1 C23 1_555 1_555
N2 C25 1_555 1_555
O3 C16 1_555 1_555
O4 C16 1_555 1_555
O5 C19 1_555 1_555
O7 C22 1_555 1_555
C33 H19 1_555 1_555
C34 C33 1_555 1_555
H20 C34 1_555 1_555
C35 C34 1_555 1_555
C36 C35 1_555 1_555
H21 C36 1_555 1_555
C37 C36 1_555 1_555
H22 C37 1_555 1_555
N5 C33 1_555 1_555
N6 N2 1_555 1_555
Mn8 O5 1_555 1_555
C6 C7 1_555 1_555
C14 C15 1_555 1_555
C19 O6 1_555 1_555
C20 C21 1_555 1_555
C22 O8 1_555 1_555
C27 N1 1_555 1_555
C35 N6 1_555 1_555
C37 N5 1_555 1_555
O20 H43 1_555 1_555
C28 H15 1_555 1_555
C29 C28 1_555 1_555
H16 C29 1_555 1_555
C30 C29 1_555 1_555
C31 C30 1_555 1_555
H17 C31 1_555 1_555
C32 C31 1_555 1_555
H18 C32 1_555 1_555
N3 Mn1 1_555 1_555
O9 Mn1 1_555 1_555
O26 Mn1 1_555 1_555
C28 N3 1_555 1_555
C32 N3 1_555 1_555
O9 H38 1_555 1_555
C3 H1 1_555 1_555
O2 C1 1_555 1_555
O2 Mn10 1_555 1_555
C45 H27 1_555 1_555
O24 C43 1_555 1_555
O19 Mn8 1_555 1_555
O19 H42 1_555 1_555
C47 C46 1_555 1_555
C48 C47 1_555 1_555
H29 C48 1_555 1_555
C49 C44 1_555 1_555
H30 C49 1_555 1_555
C50 C47 1_555 1_555
C51 C50 1_555 1_555
C52 C51 1_555 1_555
C53 C52 1_555 1_555
H31 C53 1_555 1_555
C54 C53 1_555 1_555
C55 C54 1_555 1_555
C56 C55 1_555 1_555
H33 C56 1_555 1_555
C57 C52 1_555 1_555
H34 C57 1_555 1_555
C58 C55 1_555 1_555
C59 C51 1_555 1_555
H35 C59 1_555 1_555
C60 C59 1_555 1_555
C61 C60 1_555 1_555
C62 C60 1_555 1_555
C63 C50 1_555 1_555
H36 C63 1_555 1_555
C64 C62 1_555 1_555
O26 C61 1_555 1_555
O16 C61 1_555 1_555
O28 C64 1_555 1_555
C48 C49 1_555 1_555
C56 C57 1_555 1_555
C58 O13 1_555 1_555
C58 O14 1_555 1_555
C62 C63 1_555 1_555
C64 O18 1_555 1_555
O10 H40 1_555 1_555
O20 H40_2 1_555 1_555
O9 H42_2 1_555 1_555
O19 H38_2 1_555 1_555
O10 H43_2 1_555 1_555

#END
