
###############################################################################
#
# This file contains modified crystal structure data generated from the
# MOF subset of the Cambridge Structural Database (CSD) v543 
# hosted by the Cambridge Crystallographic Data Centre (CCDC).
#
# This work is licensed under the Creative Commons
# Attribution-NonCommercial-ShareAlike 4.0 International License.
# To view a copy of this license, visit
# http://creativecommons.org/licenses/by-nc-sa/4.0/
# or send a letter to
# Creative Commons, PO Box 1866, Mountain View, CA 94042, USA.
#
# CIF created using the CSD Python API on 29 September 2022
# The structure has been converted into the P1 space group
# The structure has a 3D framework
# The original CSD entry NAKNUK is in the orthorhombic crystal system
# The framework has been calculated to contain at least 10.0% void space
# The void calculation uses a probe of radius 1.32A, grid spacing 0.4
#
###############################################################################

data_NAKNUK
_chemical_formula_moiety         '(C112 H112 N16 Na4 O40 Tb4)n'
_symmetry_cell_setting           triclinic
_symmetry_space_group_name_H-M   'P 1'
_symmetry_Int_Tables_number      1
_space_group_name_Hall           'P 1'
loop_
_symmetry_equiv_pos_site_id
_symmetry_equiv_pos_as_xyz
1 x,y,z
_cell_length_a                   18.4662(6)
_cell_length_b                   18.5290(5)
_cell_length_c                   9.8939(3)
_cell_angle_alpha                90
_cell_angle_beta                 90
_cell_angle_gamma                90
_cell_volume                     3385.3
loop_
_atom_site_label
_atom_site_type_symbol
_atom_site_fract_x
_atom_site_fract_y
_atom_site_fract_z
C15 C 0.03261(16) 0.69539(16) 0.3236(3)
C16 C 0.08422(19) 0.64699(18) 0.3738(3)
C17 C 0.06794(18) 0.57326(18) 0.3599(3)
H13 H 0.1007 0.5391 0.3917
C18 C 0.00540(19) 0.55083(17) 0.3009(4)
C20 C 0.04130(17) 0.77676(15) 0.3275(3)
O6 O 0.09365(13) 0.80420(12) 0.3846(2)
C21 C 0.1533(2) 0.66829(19) 0.4411(4)
H16 H 0.1797 0.7007 0.3835
H17 H 0.182 0.626 0.4579
H18 H 0.1428 0.6919 0.5253
Na2 Na 0.15729(7) 0.91611(6) 0.40282(12)
Na1 Na 0.84271(7) 0.08389(6) 0.90282(12)
O9 O 0.77005(16) 0.07464(14) 0.7192(3)
H25 H 0.764(2) 0.058(2) 0.644(3)
H26 H 0.7432(18) 0.1072(16) 0.743(3)
O10 O 0.96139(14) 0.04567(12) 0.8109(2)
H27 H 0.9724(19) 0.0870(11) 0.791(3)
H28 H 0.9744(18) 0.0202(16) 0.750(3)
O11 O 0.90635(13) 0.19580(12) 0.8846(2)
Tb1 Tb 0.878991(6) 0.769501(6) 0.19856(3)
N1 N 0.75484(13) 0.80674(13) 0.1090(2)
C1 C 0.74647(16) 0.87607(16) 0.0698(3)
C2 C 0.68063(18) 0.90306(18) 0.0214(3)
C3 C 0.62409(18) 0.8540(2) 0.0116(4)
C4 C 0.63268(17) 0.7836(2) 0.0487(3)
H2 H 0.5945 0.751 0.0412
C5 C 0.69877(17) 0.76174(18) 0.0972(3)
H3 H 0.7047 0.7138 0.1227
C6 C 0.81601(17) 0.91984(16) 0.0816(3)
O1 O 0.86652(10) 0.89129(11) 0.1516(2)
O2 O 0.82067(13) 0.97871(12) 0.0241(3)
O3 O 0.85345(12) 0.67662(11) 0.0515(2)
N3 N 0.97062(13) 0.67355(13) 0.2657(2)
H14 H 0.9954 0.5019 0.2915
C19 C 0.95664(18) 0.60265(16) 0.2549(3)
H15 H 0.9133 0.5878 0.2157
O5 O 0.99116(11) 0.81287(11) 0.2681(2)
N4 N 0.85257(14) 0.81025(13) 0.4399(2)
C22 C 0.81292(16) 0.76643(16) 0.5184(3)
C23 C 0.79403(18) 0.78474(18) 0.6512(3)
C24 C 0.81700(15) 0.85172(17) 0.6973(5)
H19 H 0.8048 0.8663 0.7843
C25 C 0.85745(19) 0.8969(2) 0.6171(3)
H20 H 0.8725 0.9417 0.6486
C26 C 0.87514(16) 0.87394(18) 0.4880(4)
H21 H 0.9034 0.9035 0.4334
C27 C 0.78728(16) 0.69799(17) 0.4476(3)
O7 O 0.80812(12) 0.69262(11) 0.3243(2)
O8 O 0.74967(12) 0.65377(12) 0.5063(2)
C28 C 0.7506(2) 0.7367(2) 0.7431(3)
H22 H 0.748 0.7579 0.8315
H23 H 0.7734 0.6902 0.7491
H24 H 0.7025 0.7312 0.7075
Na3 Na 0.65729(7) 0.58389(6) 0.40282(12)
C22_2 C 0.18708(16) 0.23357(16) 0.0184(3)
C23_2 C 0.20597(18) 0.21526(18) 0.1512(3)
C24_2 C 0.18300(15) 0.14828(17) 0.1973(5)
H19_2 H 0.1952 0.1337 0.2843
C25_2 C 0.14255(19) 0.1031(2) 0.1171(3)
H20_2 H 0.1275 0.0583 0.1486
O8_2 O 0.25033(12) 0.34623(12) 0.0063(2)
C28_2 C 0.2494(2) 0.2633(2) 0.2431(3)
H22_2 H 0.252 0.2421 0.3315
H23_2 H 0.2266 0.3098 0.2491
H24_2 H 0.2975 0.2688 0.2075
Tb1_2 Tb 0.121009(6) 0.230499(6) 0.69856(3)
N1_2 N 0.24516(13) 0.19326(13) 0.6090(2)
C1_2 C 0.25353(16) 0.12393(16) 0.5698(3)
C2_2 C 0.31937(18) 0.09694(18) 0.5214(3)
C3_2 C 0.37591(18) 0.1460(2) 0.5116(4)
H1 H 0.4206 0.1305 0.4791
C4_2 C 0.36732(17) 0.2164(2) 0.5487(3)
H2_2 H 0.4055 0.249 0.5412
C5_2 C 0.30123(17) 0.23826(18) 0.5972(3)
H3_2 H 0.2953 0.2862 0.6227
C6_2 C 0.18399(17) 0.08016(16) 0.5816(3)
O1_2 O 0.13348(10) 0.10871(11) 0.6516(2)
O2_2 O 0.17933(13) 0.02129(12) 0.5241(3)
C7 C 0.3318(2) 0.0194(2) 0.4811(5)
H4 H 0.3114 0.011 0.3932
H6 H 0.3828 0.0096 0.4789
N2 N 0.05821(14) 0.22157(13) 0.4693(2)
C8 C 0.06556(17) 0.27945(16) 0.3864(3)
C9 C 0.0354(2) 0.28159(19) 0.2558(3)
C12 C 0.02101(18) 0.16434(18) 0.4267(3)
H9 H 0.0161 0.1248 0.4839
C13 C 0.10893(17) 0.34009(18) 0.4476(3)
O3_2 O 0.14655(12) 0.32338(11) 0.5515(2)
O4 O 0.10538(13) 0.40079(13) 0.3988(2)
C14 C 0.0448(2) 0.3436(2) 0.1604(3)
H10 H 0.0077 0.3789 0.1768
H11 H 0.0412 0.3266 0.069
H12 H 0.0915 0.3651 0.1743
N3_2 N 0.02938(13) 0.32645(13) 0.7657(2)
H14_2 H 0.0046 0.4981 0.7915
C19_2 C 0.04336(18) 0.39735(16) 0.7549(3)
H15_2 H 0.0867 0.4122 0.7157
O5_2 O 0.00884(11) 0.18713(11) 0.7681(2)
N4_2 N 0.14743(14) 0.18975(13) 0.9399(2)
C26_2 C 0.12486(16) 0.12606(18) 0.9880(4)
H21_2 H 0.0966 0.0965 0.9334
C27_2 C 0.21272(16) 0.30201(17) 0.9476(3)
O7_2 O 0.19188(12) 0.30738(11) 0.8243(2)
Na3_2 Na 0.34271(7) 0.41611(6) 0.90282(12)
H5 H 0.3089 0.9881 0.5457
O9_2 O 0.22995(16) 0.92536(14) 0.2192(3)
H25_2 H 0.236(2) 0.942(2) 0.144(3)
H26_2 H 0.2568(18) 0.8928(16) 0.243(3)
O10_2 O 0.03861(14) 0.95433(12) 0.3109(2)
H27_2 H 0.0276(19) 0.9130(11) 0.291(3)
H28_2 H 0.0256(18) 0.9798(16) 0.250(3)
O12 O 0.24967(12) 0.84623(12) 0.5063(2)
C10 C 0.9974(2) 0.22011(19) 0.2170(4)
H7 H 0.9767 0.2187 0.1313
C11 C 0.98937(19) 0.1620(2) 0.2995(4)
H8 H 0.9634 0.1217 0.2715
C15_2 C 0.96739(16) 0.30461(16) 0.8236(3)
C16_2 C 0.91578(19) 0.35301(18) 0.8738(3)
C17_2 C 0.93206(18) 0.42674(18) 0.8599(3)
H13_2 H 0.8993 0.4609 0.8917
C18_2 C 0.99460(19) 0.44917(17) 0.8009(4)
C20_2 C 0.95870(17) 0.22324(15) 0.8275(3)
C21_2 C 0.8467(2) 0.33171(19) 0.9411(4)
H16_2 H 0.8203 0.2993 0.8835
H17_2 H 0.818 0.374 0.9579
Tb1_3 Tb 0.378991(6) 0.730499(6) 0.19856(3)
N1_3 N 0.25484(13) 0.69326(13) 0.1090(2)
C1_3 C 0.24647(16) 0.62393(16) 0.0698(3)
C2_3 C 0.18063(18) 0.59694(18) 0.0214(3)
C3_3 C 0.12409(18) 0.6460(2) 0.0116(4)
C4_3 C 0.13268(17) 0.7164(2) 0.0487(3)
H2_3 H 0.0945 0.749 0.0412
C5_3 C 0.19877(17) 0.73826(18) 0.0972(3)
H3_3 H 0.2047 0.7862 0.1227
C6_3 C 0.31601(17) 0.58016(16) 0.0816(3)
O1_3 O 0.36652(10) 0.60871(11) 0.1516(2)
O2_3 O 0.32067(13) 0.52129(12) 0.0241(3)
H5_2 H 0.1911 0.4881 0.0457
O3_3 O 0.35345(12) 0.82338(11) 0.0515(2)
N3_3 N 0.47062(13) 0.82645(13) 0.2657(2)
C15_3 C 0.53261(16) 0.80461(16) 0.3236(3)
C16_3 C 0.58422(19) 0.85301(18) 0.3738(3)
C17_3 C 0.56794(18) 0.92674(18) 0.3599(3)
H13_3 H 0.6007 0.9609 0.3917
C18_3 C 0.50540(19) 0.94917(17) 0.3009(4)
H14_3 H 0.4954 0.9981 0.2915
C19_3 C 0.45664(18) 0.89735(16) 0.2549(3)
H15_3 H 0.4133 0.9122 0.2157
C20_3 C 0.54130(17) 0.72324(15) 0.3275(3)
O5_3 O 0.49116(11) 0.68713(11) 0.2681(2)
O6_2 O 0.59365(13) 0.69580(12) 0.3846(2)
C21_3 C 0.6533(2) 0.83171(19) 0.4411(4)
H16_3 H 0.6797 0.7993 0.3835
H17_3 H 0.682 0.874 0.4579
H18_2 H 0.6428 0.8081 0.5253
N4_3 N 0.35257(14) 0.68975(13) 0.4399(2)
C22_3 C 0.31292(16) 0.73357(16) 0.5184(3)
C23_3 C 0.29403(18) 0.71526(18) 0.6512(3)
C24_3 C 0.31700(15) 0.64828(17) 0.6973(5)
H19_3 H 0.3048 0.6337 0.7843
C25_3 C 0.35745(19) 0.6031(2) 0.6171(3)
H20_3 H 0.3725 0.5583 0.6486
C26_3 C 0.37514(16) 0.62606(18) 0.4880(4)
H21_3 H 0.4034 0.5965 0.4334
C27_3 C 0.28728(16) 0.80201(17) 0.4476(3)
O7_3 O 0.30812(12) 0.80738(11) 0.3243(2)
C28_3 C 0.2506(2) 0.7633(2) 0.7431(3)
H22_3 H 0.248 0.7421 0.8315
H23_3 H 0.2734 0.8098 0.7491
H24_3 H 0.2025 0.7688 0.7075
H1_2 H 0.0794 0.6305 0.9791
C7_2 C 0.1682(2) 0.5194(2) 0.9811(5)
H4_2 H 0.1886 0.511 0.8932
H6_2 H 0.1172 0.5096 0.9789
N2_2 N 0.44179(14) 0.72157(13) 0.9693(2)
C8_2 C 0.43444(17) 0.77945(16) 0.8864(3)
C9_2 C 0.4646(2) 0.78159(19) 0.7558(3)
C10_2 C 0.5026(2) 0.72011(19) 0.7170(4)
H7_2 H 0.5233 0.7187 0.6313
C11_2 C 0.51063(19) 0.6620(2) 0.7995(4)
H8_2 H 0.5366 0.6217 0.7715
C12_2 C 0.47899(18) 0.66434(18) 0.9267(3)
H9_2 H 0.4839 0.6248 0.9839
C13_2 C 0.39107(17) 0.84009(18) 0.9476(3)
O4_2 O 0.39462(13) 0.90079(13) 0.8988(2)
C14_2 C 0.4552(2) 0.8436(2) 0.6604(3)
H10_2 H 0.4923 0.8789 0.6768
H11_2 H 0.4588 0.8266 0.569
H12_2 H 0.4085 0.8651 0.6743
O9_3 O 0.27005(16) 0.42536(14) 0.7192(3)
H25_3 H 0.264(2) 0.442(2) 0.644(3)
H26_3 H 0.2432(18) 0.3928(16) 0.743(3)
O10_3 O 0.46139(14) 0.45433(12) 0.8109(2)
H27_3 H 0.4724(19) 0.4130(11) 0.791(3)
H28_3 H 0.4744(18) 0.4798(16) 0.750(3)
O11_2 O 0.40635(13) 0.30420(12) 0.8846(2)
Tb1_4 Tb 0.621009(6) 0.269501(6) 0.69856(3)
N1_4 N 0.74516(13) 0.30674(13) 0.6090(2)
C1_4 C 0.75353(16) 0.37607(16) 0.5698(3)
C2_4 C 0.81937(18) 0.40306(18) 0.5214(3)
C3_4 C 0.87591(18) 0.3540(2) 0.5116(4)
H1_3 H 0.9206 0.3695 0.4791
C4_4 C 0.86732(17) 0.2836(2) 0.5487(3)
H2_4 H 0.9055 0.251 0.5412
C5_4 C 0.80123(17) 0.26174(18) 0.5972(3)
H3_4 H 0.7953 0.2138 0.6227
C6_4 C 0.68399(17) 0.41984(16) 0.5816(3)
O1_4 O 0.63348(10) 0.39129(11) 0.6516(2)
O2_4 O 0.67933(13) 0.47871(12) 0.5241(3)
C7_3 C 0.8318(2) 0.4806(2) 0.4811(5)
H4_3 H 0.8114 0.489 0.3932
H5_3 H 0.8089 0.5119 0.5457
H6_3 H 0.8828 0.4904 0.4789
N2_3 N 0.55821(14) 0.27843(13) 0.4693(2)
C8_3 C 0.56556(17) 0.22055(16) 0.3864(3)
C9_3 C 0.5354(2) 0.21841(19) 0.2558(3)
C10_3 C 0.4974(2) 0.27989(19) 0.2170(4)
H7_3 H 0.4767 0.2813 0.1313
C11_3 C 0.48937(19) 0.3380(2) 0.2995(4)
H8_3 H 0.4634 0.3783 0.2715
C12_3 C 0.52101(18) 0.33566(18) 0.4267(3)
H9_3 H 0.5161 0.3752 0.4839
C13_3 C 0.60893(17) 0.15991(18) 0.4476(3)
O3_4 O 0.64655(12) 0.17662(11) 0.5515(2)
O4_3 O 0.60538(13) 0.09921(13) 0.3988(2)
C14_3 C 0.5448(2) 0.1564(2) 0.1604(3)
H10_3 H 0.5077 0.1211 0.1768
H11_3 H 0.5412 0.1734 0.069
H12_3 H 0.5915 0.1349 0.1743
N3_4 N 0.52938(13) 0.17355(13) 0.7657(2)
C15_4 C 0.46739(16) 0.19539(16) 0.8236(3)
C16_4 C 0.41578(19) 0.14699(18) 0.8738(3)
C17_4 C 0.43206(18) 0.07326(18) 0.8599(3)
H13_4 H 0.3993 0.0391 0.8917
C18_4 C 0.49460(19) 0.05083(17) 0.8009(4)
H14_4 H 0.5046 0.0019 0.7915
C19_4 C 0.54336(18) 0.10265(16) 0.7549(3)
H15_4 H 0.5867 0.0878 0.7157
C20_4 C 0.45870(17) 0.27676(15) 0.8275(3)
O5_4 O 0.50884(11) 0.31287(11) 0.7681(2)
C21_4 C 0.3467(2) 0.16829(19) 0.9411(4)
H16_4 H 0.3203 0.2007 0.8835
H17_4 H 0.318 0.126 0.9579
N4_4 N 0.64743(14) 0.31025(13) 0.9399(2)
C26_4 C 0.62486(16) 0.37394(18) 0.9880(4)
H21_4 H 0.5966 0.4035 0.9334
C27_4 C 0.71272(16) 0.19799(17) 0.9476(3)
O7_4 O 0.69188(12) 0.19262(11) 0.8243(2)
O9_4 O 0.72995(16) 0.57464(14) 0.2192(3)
H25_4 H 0.736(2) 0.558(2) 0.144(3)
H26_4 H 0.7568(18) 0.6072(16) 0.243(3)
O10_4 O 0.53861(14) 0.54567(12) 0.3109(2)
H27_4 H 0.5276(19) 0.5870(11) 0.291(3)
H28_4 H 0.5256(18) 0.5202(16) 0.250(3)
C10_4 C 0.0026(2) 0.77989(19) 0.7170(4)
H7_4 H 0.0233 0.7813 0.6313
C11_4 C 0.01063(19) 0.8380(2) 0.7995(4)
H8_4 H 0.0366 0.8783 0.7715
H5_4 H 0.6911 0.0119 0.0457
O12_2 O 0.75033(12) 0.15377(12) 0.0063(2)
H18_3 H 0.3572 0.1919 0.0253
C22_4 C 0.68708(16) 0.26643(16) 0.0184(3)
C23_4 C 0.70597(18) 0.28474(18) 0.1512(3)
C24_4 C 0.68300(15) 0.35172(17) 0.1973(5)
H19_4 H 0.6952 0.3663 0.2843
C25_4 C 0.64255(19) 0.3969(2) 0.1171(3)
H20_4 H 0.6275 0.4417 0.1486
C28_4 C 0.7494(2) 0.2367(2) 0.2431(3)
H22_4 H 0.752 0.2579 0.3315
H23_4 H 0.7266 0.1902 0.2491
H24_4 H 0.7975 0.2312 0.2075
H1_4 H 0.5794 0.8695 0.9791
C7_4 C 0.6682(2) 0.9806(2) 0.9811(5)
H4_4 H 0.6886 0.989 0.8932
H6_4 H 0.6172 0.9904 0.9789
N2_4 N 0.94179(14) 0.77843(13) 0.9693(2)
C8_4 C 0.93444(17) 0.72055(16) 0.8864(3)
C9_4 C 0.9646(2) 0.71841(19) 0.7558(3)
C12_4 C 0.97899(18) 0.83566(18) 0.9267(3)
H9_4 H 0.9839 0.8752 0.9839
C13_4 C 0.89107(17) 0.65991(18) 0.9476(3)
O4_4 O 0.89462(13) 0.59921(13) 0.8988(2)
C14_4 C 0.9552(2) 0.6564(2) 0.6604(3)
H10_4 H 0.9923 0.6211 0.6768
H11_4 H 0.9588 0.6734 0.569
H12_4 H 0.9085 0.6349 0.6743
H18_4 H 0.8572 0.3081 0.0253
loop_
_geom_bond_atom_site_label_1
_geom_bond_atom_site_label_2
_geom_bond_site_symmetry_1
_geom_bond_site_symmetry_2
C16 C15 1_555 1_555
C17 C16 1_555 1_555
H13 C17 1_555 1_555
C18 C17 1_555 1_555
C20 C15 1_555 1_555
O6 C20 1_555 1_555
C21 C16 1_555 1_555
H16 C21 1_555 1_555
H17 C21 1_555 1_555
H18 C21 1_555 1_555
Na2 O6 1_555 1_555
O9 Na1 1_555 1_555
H25 O9 1_555 1_555
H26 O9 1_555 1_555
O10 Na1 1_555 1_555
H27 O10 1_555 1_555
H28 O10 1_555 1_555
O11 Na1 1_555 1_555
Tb1 N1 1_555 1_555
N1 C1 1_555 1_555
C1 C2 1_555 1_555
C2 C3 1_555 1_555
C4 C3 1_555 1_555
H2 C4 1_555 1_555
C5 N1 1_555 1_555
H3 C5 1_555 1_555
C6 C1 1_555 1_555
O1 Tb1 1_555 1_555
O2 C6 1_555 1_555
O3 Tb1 1_555 1_555
N3 Tb1 1_555 1_555
C19 N3 1_555 1_555
H15 C19 1_555 1_555
O5 Tb1 1_555 1_555
N4 Tb1 1_555 1_555
C22 N4 1_555 1_555
C23 C22 1_555 1_555
C24 C23 1_555 1_555
H19 C24 1_555 1_555
C25 C24 1_555 1_555
H20 C25 1_555 1_555
C26 N4 1_555 1_555
H21 C26 1_555 1_555
C27 C22 1_555 1_555
O7 Tb1 1_555 1_555
O8 C27 1_555 1_555
C28 C23 1_555 1_555
H22 C28 1_555 1_555
H23 C28 1_555 1_555
H24 C28 1_555 1_555
Na3 O8 1_555 1_555
C4 C5 1_555 1_555
C6 O1 1_555 1_555
C25 C26 1_555 1_555
C27 O7 1_555 1_555
C23_2 C22_2 1_555 1_555
C24_2 C23_2 1_555 1_555
H19_2 C24_2 1_555 1_555
C25_2 C24_2 1_555 1_555
H20_2 C25_2 1_555 1_555
C28_2 C23_2 1_555 1_555
H22_2 C28_2 1_555 1_555
H23_2 C28_2 1_555 1_555
H24_2 C28_2 1_555 1_555
Tb1_2 N1_2 1_555 1_555
N1_2 C1_2 1_555 1_555
C1_2 C2_2 1_555 1_555
C2_2 C3_2 1_555 1_555
C3_2 H1 1_555 1_555
C4_2 C3_2 1_555 1_555
H2_2 C4_2 1_555 1_555
C5_2 N1_2 1_555 1_555
H3_2 C5_2 1_555 1_555
C6_2 C1_2 1_555 1_555
O1_2 Tb1_2 1_555 1_555
O2_2 C6_2 1_555 1_555
C7 C2_2 1_555 1_555
H4 C7 1_555 1_555
H6 C7 1_555 1_555
N2 Tb1_2 1_555 1_555
C8 N2 1_555 1_555
C9 C8 1_555 1_555
C12 N2 1_555 1_555
H9 C12 1_555 1_555
C13 C8 1_555 1_555
O3_2 Tb1_2 1_555 1_555
O4 C13 1_555 1_555
C14 C9 1_555 1_555
H10 C14 1_555 1_555
H11 C14 1_555 1_555
H12 C14 1_555 1_555
N3_2 Tb1_2 1_555 1_555
C19_2 N3_2 1_555 1_555
H15_2 C19_2 1_555 1_555
O5_2 Tb1_2 1_555 1_555
N4_2 Tb1_2 1_555 1_555
C26_2 N4_2 1_555 1_555
H21_2 C26_2 1_555 1_555
O7_2 Tb1_2 1_555 1_555
C4_2 C5_2 1_555 1_555
C6_2 O1_2 1_555 1_555
C13 O3_2 1_555 1_555
C27_2 O7_2 1_555 1_555
O9_2 Na2 1_555 1_555
H25_2 O9_2 1_555 1_555
H26_2 O9_2 1_555 1_555
O10_2 Na2 1_555 1_555
H27_2 O10_2 1_555 1_555
H28_2 O10_2 1_555 1_555
O12 Na2 1_555 1_555
H7 C10 1_555 1_555
C11 C10 1_555 1_555
H8 C11 1_555 1_555
C16_2 C15_2 1_555 1_555
C17_2 C16_2 1_555 1_555
H13_2 C17_2 1_555 1_555
C18_2 C17_2 1_555 1_555
C20_2 C15_2 1_555 1_555
O11 C20_2 1_555 1_555
C21_2 C16_2 1_555 1_555
H16_2 C21_2 1_555 1_555
H17_2 C21_2 1_555 1_555
Tb1_3 N1_3 1_555 1_555
N1_3 C1_3 1_555 1_555
C1_3 C2_3 1_555 1_555
C2_3 C3_3 1_555 1_555
C4_3 C3_3 1_555 1_555
H2_3 C4_3 1_555 1_555
C5_3 N1_3 1_555 1_555
H3_3 C5_3 1_555 1_555
C6_3 C1_3 1_555 1_555
O1_3 Tb1_3 1_555 1_555
O2_3 C6_3 1_555 1_555
O3_3 Tb1_3 1_555 1_555
N3_3 Tb1_3 1_555 1_555
C15_3 N3_3 1_555 1_555
C16_3 C15_3 1_555 1_555
C17_3 C16_3 1_555 1_555
H13_3 C17_3 1_555 1_555
C18_3 C17_3 1_555 1_555
H14_3 C18_3 1_555 1_555
C19_3 N3_3 1_555 1_555
H15_3 C19_3 1_555 1_555
C20_3 C15_3 1_555 1_555
O5_3 Tb1_3 1_555 1_555
O6_2 C20_3 1_555 1_555
C21_3 C16_3 1_555 1_555
H16_3 C21_3 1_555 1_555
H17_3 C21_3 1_555 1_555
H18_2 C21_3 1_555 1_555
N4_3 Tb1_3 1_555 1_555
C22_3 N4_3 1_555 1_555
C23_3 C22_3 1_555 1_555
C24_3 C23_3 1_555 1_555
H19_3 C24_3 1_555 1_555
C25_3 C24_3 1_555 1_555
H20_3 C25_3 1_555 1_555
C26_3 N4_3 1_555 1_555
H21_3 C26_3 1_555 1_555
C27_3 C22_3 1_555 1_555
O7_3 Tb1_3 1_555 1_555
O12 C27_3 1_555 1_555
C28_3 C23_3 1_555 1_555
H22_3 C28_3 1_555 1_555
H23_3 C28_3 1_555 1_555
H24_3 C28_3 1_555 1_555
Na3 O6_2 1_555 1_555
C4_3 C5_3 1_555 1_555
C6_3 O1_3 1_555 1_555
C18_3 C19_3 1_555 1_555
C20_3 O5_3 1_555 1_555
C25_3 C26_3 1_555 1_555
C27_3 O7_3 1_555 1_555
H4_2 C7_2 1_555 1_555
H6_2 C7_2 1_555 1_555
C8_2 N2_2 1_555 1_555
C9_2 C8_2 1_555 1_555
C10_2 C9_2 1_555 1_555
H7_2 C10_2 1_555 1_555
C11_2 C10_2 1_555 1_555
H8_2 C11_2 1_555 1_555
C12_2 N2_2 1_555 1_555
H9_2 C12_2 1_555 1_555
C13_2 C8_2 1_555 1_555
O4_2 C13_2 1_555 1_555
C14_2 C9_2 1_555 1_555
H10_2 C14_2 1_555 1_555
H11_2 C14_2 1_555 1_555
H12_2 C14_2 1_555 1_555
O9_3 Na3_2 1_555 1_555
H25_3 O9_3 1_555 1_555
H26_3 O9_3 1_555 1_555
O10_3 Na3_2 1_555 1_555
H27_3 O10_3 1_555 1_555
H28_3 O10_3 1_555 1_555
O11_2 Na3_2 1_555 1_555
C11_2 C12_2 1_555 1_555
Tb1_4 N1_4 1_555 1_555
N1_4 C1_4 1_555 1_555
C1_4 C2_4 1_555 1_555
C2_4 C3_4 1_555 1_555
C3_4 H1_3 1_555 1_555
C4_4 C3_4 1_555 1_555
H2_4 C4_4 1_555 1_555
C5_4 N1_4 1_555 1_555
H3_4 C5_4 1_555 1_555
C6_4 C1_4 1_555 1_555
O1_4 Tb1_4 1_555 1_555
O2_4 C6_4 1_555 1_555
C7_3 C2_4 1_555 1_555
H4_3 C7_3 1_555 1_555
H5_3 C7_3 1_555 1_555
H6_3 C7_3 1_555 1_555
N2_3 Tb1_4 1_555 1_555
C8_3 N2_3 1_555 1_555
C9_3 C8_3 1_555 1_555
C10_3 C9_3 1_555 1_555
H7_3 C10_3 1_555 1_555
C11_3 C10_3 1_555 1_555
H8_3 C11_3 1_555 1_555
C12_3 N2_3 1_555 1_555
H9_3 C12_3 1_555 1_555
C13_3 C8_3 1_555 1_555
O3_4 Tb1_4 1_555 1_555
O4_3 C13_3 1_555 1_555
C14_3 C9_3 1_555 1_555
H10_3 C14_3 1_555 1_555
H11_3 C14_3 1_555 1_555
H12_3 C14_3 1_555 1_555
N3_4 Tb1_4 1_555 1_555
C15_4 N3_4 1_555 1_555
C16_4 C15_4 1_555 1_555
C17_4 C16_4 1_555 1_555
H13_4 C17_4 1_555 1_555
C18_4 C17_4 1_555 1_555
H14_4 C18_4 1_555 1_555
C19_4 N3_4 1_555 1_555
H15_4 C19_4 1_555 1_555
C20_4 C15_4 1_555 1_555
O5_4 Tb1_4 1_555 1_555
O11_2 C20_4 1_555 1_555
C21_4 C16_4 1_555 1_555
H16_4 C21_4 1_555 1_555
H17_4 C21_4 1_555 1_555
N4_4 Tb1_4 1_555 1_555
C26_4 N4_4 1_555 1_555
H21_4 C26_4 1_555 1_555
O7_4 Tb1_4 1_555 1_555
Na3 O2_4 1_555 1_555
O9_4 Na3 1_555 1_555
H25_4 O9_4 1_555 1_555
H26_4 O9_4 1_555 1_555
O10_4 Na3 1_555 1_555
H27_4 O10_4 1_555 1_555
H28_4 O10_4 1_555 1_555
C4_4 C5_4 1_555 1_555
C6_4 O1_4 1_555 1_555
C11_3 C12_3 1_555 1_555
C13_3 O3_4 1_555 1_555
C18_4 C19_4 1_555 1_555
C20_4 O5_4 1_555 1_555
C27_4 O7_4 1_555 1_555
H7_4 C10_4 1_555 1_555
C11_4 C10_4 1_555 1_555
H8_4 C11_4 1_555 1_555
C23_4 C22_4 1_555 1_555
C24_4 C23_4 1_555 1_555
H19_4 C24_4 1_555 1_555
C25_4 C24_4 1_555 1_555
H20_4 C25_4 1_555 1_555
C28_4 C23_4 1_555 1_555
H22_4 C28_4 1_555 1_555
H23_4 C28_4 1_555 1_555
H24_4 C28_4 1_555 1_555
H4_4 C7_4 1_555 1_555
H6_4 C7_4 1_555 1_555
C8_4 N2_4 1_555 1_555
C9_4 C8_4 1_555 1_555
C12_4 N2_4 1_555 1_555
H9_4 C12_4 1_555 1_555
C13_4 C8_4 1_555 1_555
O4_4 C13_4 1_555 1_555
C14_4 C9_4 1_555 1_555
H10_4 C14_4 1_555 1_555
H11_4 C14_4 1_555 1_555
H12_4 C14_4 1_555 1_555

#END
