
###############################################################################
#
# This file contains modified crystal structure data generated from the
# MOF subset of the Cambridge Structural Database (CSD) v543 
# hosted by the Cambridge Crystallographic Data Centre (CCDC).
#
# This work is licensed under the Creative Commons
# Attribution-NonCommercial-ShareAlike 4.0 International License.
# To view a copy of this license, visit
# http://creativecommons.org/licenses/by-nc-sa/4.0/
# or send a letter to
# Creative Commons, PO Box 1866, Mountain View, CA 94042, USA.
#
# CIF created using the CSD Python API on 29 September 2022
# The structure has been converted into the P1 space group
# The structure has a 3D framework
# The original CSD entry NALVUV is in the orthorhombic crystal system
# The framework has been calculated to contain at least 10.0% void space
# The void calculation uses a probe of radius 1.32A, grid spacing 0.4
#
###############################################################################

data_NALVUV
_chemical_formula_moiety         '(C98 H61 O39 P6 Zn11)n'
_symmetry_cell_setting           triclinic
_symmetry_space_group_name_H-M   'P 1'
_symmetry_Int_Tables_number      1
_space_group_name_Hall           'P 1'
loop_
_symmetry_equiv_pos_site_id
_symmetry_equiv_pos_as_xyz
1 x,y,z
_cell_length_a                   17.7599(6)
_cell_length_b                   6.3178(2)
_cell_length_c                   25.7937(8)
_cell_angle_alpha                90
_cell_angle_beta                 90
_cell_angle_gamma                90
_cell_volume                     2894.14
loop_
_atom_site_label
_atom_site_type_symbol
_atom_site_fract_x
_atom_site_fract_y
_atom_site_fract_z
Zn10 Zn 0.40476(2) 0.000000 0.000000
Zn14 Zn 0.59524(2) 0.000000 0.000000
P1 P 0.500000 0.11272(13) 0.68838(3)
O3 O 0.500000 0.3482(4) 0.69032(10)
C3 C 0.41849(14) 0.0119(4) 0.65502(10)
C4 C 0.500000 0.0013(6) 0.75313(13)
C7 C 0.3055(2) 0.0956(5) 0.60812(16)
H2 H 0.271843 0.197035 0.595989
C9 C 0.3689(2) 0.1571(5) 0.63545(17)
H4 H 0.377948 0.300528 0.640650
C10 C 0.500000 0.1448(7) 0.79296(16)
H5 H 0.500000 0.288636 0.785325
C11 C 0.500000 0.0812(7) 0.84401(16)
H6 H 0.500000 0.182536 0.870159
C15 C 0.58151(14) 0.0119(4) 0.65502(10)
C18 C 0.6945(2) 0.0956(5) 0.60812(16)
H10 H 0.728157 0.197035 0.595989
C20 C 0.6311(2) 0.1571(5) 0.63545(17)
H12 H 0.622052 0.300528 0.640650
Zn9 Zn 0.09524(2) -0.000000 0.500000
Zn10_2 Zn 0.40476(2) -0.000000 1.000000
Zn12 Zn 0.90476(2) -0.000000 0.500000
Zn14_2 Zn 0.59524(2) -0.000000 1.000000
Zn1 Zn 0.500000 0.500000 0.000000
Zn5 Zn 0.33321(2) 0.500000 0.000000
O12 O 0.500000 0.0528(4) 0.05365(9)
O14 O 0.500000 0.3907(4) 0.07747(10)
O15 O 0.17575(13) 0.0568(4) 0.44269(10)
O16 O 0.22939(16) 0.3708(4) 0.44909(16)
C22 C 0.500000 0.1979(5) 0.08763(12)
C23 C 0.500000 0.1284(6) 0.14317(13)
C26 C 0.29231(16) 0.1139(5) 0.40103(13)
C27 C 0.22688(17) 0.1830(5) 0.43365(13)
C29 C 0.4029(2) 0.1992(5) 0.3524(2)
H18 H 0.434114 0.301852 0.338093
C33 C 0.3406(2) 0.2585(5) 0.3812(2)
H22 H 0.331655 0.401549 0.387131
C34 C 0.500000 0.2727(7) 0.18221(17)
H23 H 0.500000 0.416285 0.174275
C35 C 0.500000 0.2092(7) 0.23397(17)
H24 H 0.500000 0.310794 0.260053
O17 O 0.82425(13) 0.0568(4) 0.44269(10)
O18 O 0.77061(16) 0.3708(4) 0.44909(16)
C37 C 0.70769(16) 0.1139(5) 0.40103(13)
C38 C 0.77312(17) 0.1830(5) 0.43365(13)
C40 C 0.5971(2) 0.1992(5) 0.3524(2)
H26 H 0.565886 0.301852 0.338093
C42 C 0.6594(2) 0.2585(5) 0.3812(2)
H28 H 0.668345 0.401549 0.387131
Zn10_3 Zn 0.40476(2) 1.000000 0.000000
Zn14_3 Zn 0.59524(2) 1.000000 0.000000
Zn16 Zn 0.16679(2) 0.500000 0.500000
Zn18 Zn 0.83321(2) 0.500000 0.500000
O23 O 0.41074(9) 0.6973(3) 0.02460(7)
O25 O 0.58926(9) 0.6973(3) 0.02460(7)
O27 O 0.32425(13) 0.0568(4) 0.05731(10)
O30 O 0.27061(16) 0.3708(4) 0.05091(16)
Zn1_2 Zn 0.500000 0.500000 1.000000
O1 O 0.500000 0.9472(4) 0.94635(9)
O2 O 0.08926(9) 0.3027(3) 0.52460(7)
H1 H 0.088695 0.304417 0.558015
O4 O 0.500000 0.6093(4) 0.92253(10)
O5 O 0.17575(13) 0.9432(4) 0.55731(10)
O6 O 0.22939(16) 0.6292(4) 0.55091(16)
C1 C 0.500000 0.8021(5) 0.91237(12)
C2 C 0.500000 0.8716(6) 0.85683(13)
C5 C 0.29231(16) 0.8861(5) 0.59897(13)
C6 C 0.22688(17) 0.8170(5) 0.56635(13)
C8 C 0.4029(2) 0.8008(5) 0.6476(2)
H3 H 0.434114 0.698148 0.661907
C12 C 0.3406(2) 0.7415(5) 0.6188(2)
H7 H 0.331655 0.598451 0.612869
C13 C 0.500000 0.7273(7) 0.81779(17)
H8 H 0.500000 0.583715 0.825725
C14 C 0.500000 0.7908(7) 0.76603(17)
H9 H 0.500000 0.689206 0.739947
O7 O 0.82425(13) 0.9432(4) 0.55731(10)
O8 O 0.77061(16) 0.6292(4) 0.55091(16)
C16 C 0.70769(16) 0.8861(5) 0.59897(13)
C17 C 0.77312(17) 0.8170(5) 0.56635(13)
C19 C 0.5971(2) 0.8008(5) 0.6476(2)
H11 H 0.565886 0.698148 0.661907
C21 C 0.6594(2) 0.7415(5) 0.6188(2)
H13 H 0.668345 0.598451 0.612869
Zn5_2 Zn 0.33321(2) 0.500000 1.000000
O9 O 0.41074(9) 0.3027(3) 0.97540(7)
H14 H 0.411305 0.304417 0.941985
O11 O 0.08926(9) 0.6973(3) 0.47540(7)
H16 H 0.088695 0.695583 0.441985
Zn7 Zn 0.000000 0.500000 0.500000
Zn9_2 Zn 0.09524(2) 1.000000 0.500000
Zn10_4 Zn 0.40476(2) 1.000000 1.000000
Zn12_2 Zn 0.90476(2) 1.000000 0.500000
Zn14_4 Zn 0.59524(2) 1.000000 1.000000
O20 O 0.000000 0.0528(4) 0.44635(9)
O24 O 0.58926(9) 0.3027(3) 0.97540(7)
O31 O 0.27061(16) 0.6292(4) 0.94909(16)
P2 P 0.500000 0.88728(13) 0.31162(3)
O13 O 0.500000 0.6518(4) 0.30968(10)
C24 C 0.41849(14) 0.9881(4) 0.34498(10)
C25 C 0.500000 0.9987(6) 0.24687(13)
C28 C 0.3055(2) 0.9044(5) 0.39188(16)
H17 H 0.271843 0.802965 0.404011
C30 C 0.3689(2) 0.8429(5) 0.36455(17)
H19 H 0.377948 0.699472 0.359350
C31 C 0.500000 0.8552(7) 0.20704(16)
H20 H 0.500000 0.711364 0.214675
C32 C 0.500000 0.9188(7) 0.15599(16)
H21 H 0.500000 0.817464 0.129841
C36 C 0.58151(14) 0.9881(4) 0.34498(10)
C39 C 0.6945(2) 0.9044(5) 0.39188(16)
H25 H 0.728157 0.802965 0.404011
C41 C 0.6311(2) 0.8429(5) 0.36455(17)
H27 H 0.622052 0.699472 0.359350
O21 O -0.000000 0.9472(4) 0.55365(9)
O28 O 0.32425(13) 0.9432(4) 0.94269(10)
Zn7_2 Zn 1.000000 0.500000 0.500000
O20_2 O 1.000000 0.0528(4) 0.44635(9)
O21_2 O 1.000000 0.9472(4) 0.55365(9)
P2_2 P 0.000000 0.11272(13) 0.81162(3)
O13_2 O 0.000000 0.3482(4) 0.80968(10)
C24_2 C 0.08151(14) 0.0119(4) 0.84498(10)
C25_2 C -0.000000 0.0013(6) 0.74687(13)
C28_2 C 0.1945(2) 0.0956(5) 0.89188(16)
H17_2 H 0.228157 0.197035 0.904011
C30_2 C 0.1311(2) 0.1571(5) 0.86455(17)
H19_2 H 0.122052 0.300528 0.859350
C31_2 C 0.000000 0.1448(7) 0.70704(16)
H20_2 H 0.000000 0.288636 0.714675
C32_2 C -0.000000 0.0812(7) 0.65599(16)
H21_2 H 0.000000 0.182536 0.629841
H1_2 H 0.411305 0.695583 0.058015
O4_2 O 0.000000 0.3907(4) 0.42253(10)
C1_2 C -0.000000 0.1979(5) 0.41237(12)
C2_2 C -0.000000 0.1284(6) 0.35683(13)
C5_2 C 0.20769(16) 0.1139(5) 0.09897(13)
C6_2 C 0.27312(17) 0.1830(5) 0.06635(13)
C8_2 C 0.0971(2) 0.1992(5) 0.1476(2)
H3_2 H 0.065886 0.301852 0.161907
C12_2 C 0.1594(2) 0.2585(5) 0.1188(2)
H7_2 H 0.168345 0.401549 0.112869
C13_2 C 0.000000 0.2727(7) 0.31779(17)
H8_2 H 0.000000 0.416285 0.325725
C14_2 C 0.000000 0.2092(7) 0.26603(17)
H9_2 H 0.000000 0.310794 0.239947
O14_2 O 0.000000 0.6093(4) 0.57747(10)
C22_2 C 0.000000 0.8021(5) 0.58763(12)
C23_2 C 0.000000 0.8716(6) 0.64317(13)
C26_2 C 0.20769(16) 0.8861(5) 0.90103(13)
C27_2 C 0.27312(17) 0.8170(5) 0.93365(13)
C29_2 C 0.0971(2) 0.8008(5) 0.8524(2)
H18_2 H 0.065886 0.698148 0.838093
C33_2 C 0.1594(2) 0.7415(5) 0.8812(2)
H22_2 H 0.168345 0.598451 0.887131
C34_2 C 0.000000 0.7273(7) 0.68221(17)
H23_2 H -0.000000 0.583715 0.674275
C35_2 C 0.000000 0.7908(7) 0.73397(17)
H24_2 H 0.000000 0.689206 0.760053
P1_2 P -0.000000 0.88728(13) 0.18838(3)
O3_2 O 0.000000 0.6518(4) 0.19032(10)
C3_2 C 0.08151(14) 0.9881(4) 0.15502(10)
C4_2 C 0.000000 0.9987(6) 0.25313(13)
C7_2 C 0.1945(2) 0.9044(5) 0.10812(16)
H2_2 H 0.228157 0.802965 0.095989
C9_2 C 0.1311(2) 0.8429(5) 0.13545(17)
H4_2 H 0.122052 0.699472 0.140650
C10_2 C -0.000000 0.8552(7) 0.29296(16)
H5_2 H 0.000000 0.711364 0.285325
C11_2 C 0.000000 0.9188(7) 0.34401(16)
H6_2 H -0.000000 0.817464 0.370159
P2_3 P 1.000000 0.11272(13) 0.81162(3)
O13_3 O 1.000000 0.3482(4) 0.80968(10)
C25_3 C 1.000000 0.0013(6) 0.74687(13)
C31_3 C 1.000000 0.1448(7) 0.70704(16)
H20_3 H 1.000000 0.288636 0.714675
C32_3 C 1.000000 0.0812(7) 0.65599(16)
H21_3 H 1.000000 0.182536 0.629841
C36_2 C 0.91849(14) 0.0119(4) 0.84498(10)
C39_2 C 0.8055(2) 0.0956(5) 0.89188(16)
H25_2 H 0.771843 0.197035 0.904011
C41_2 C 0.8689(2) 0.1571(5) 0.86455(17)
H27_2 H 0.877948 0.300528 0.859350
Zn18_2 Zn 0.66679(2) 0.500000 0.000000
O4_3 O 1.000000 0.3907(4) 0.42253(10)
C1_3 C 1.000000 0.1979(5) 0.41237(12)
C2_3 C 1.000000 0.1284(6) 0.35683(13)
C13_3 C 1.000000 0.2727(7) 0.31779(17)
H8_3 H 1.000000 0.416285 0.325725
C14_3 C 1.000000 0.2092(7) 0.26603(17)
H9_3 H 1.000000 0.310794 0.239947
O7_2 O 0.67575(13) 0.0568(4) 0.05731(10)
O8_2 O 0.72939(16) 0.3708(4) 0.05091(16)
C16_2 C 0.79231(16) 0.1139(5) 0.09897(13)
C17_2 C 0.72688(17) 0.1830(5) 0.06635(13)
C19_2 C 0.9029(2) 0.1992(5) 0.1476(2)
H11_2 H 0.934114 0.301852 0.161907
C21_2 C 0.8406(2) 0.2585(5) 0.1188(2)
H13_2 H 0.831655 0.401549 0.112869
O14_3 O 1.000000 0.6093(4) 0.57747(10)
C22_3 C 1.000000 0.8021(5) 0.58763(12)
C23_3 C 1.000000 0.8716(6) 0.64317(13)
C34_3 C 1.000000 0.7273(7) 0.68221(17)
H23_3 H 1.000000 0.583715 0.674275
C35_3 C 1.000000 0.7908(7) 0.73397(17)
H24_3 H 1.000000 0.689206 0.760053
O17_2 O 0.67575(13) 0.9432(4) 0.94269(10)
O18_2 O 0.72939(16) 0.6292(4) 0.94909(16)
C37_2 C 0.79231(16) 0.8861(5) 0.90103(13)
C38_2 C 0.72688(17) 0.8170(5) 0.93365(13)
C40_2 C 0.9029(2) 0.8008(5) 0.8524(2)
H26_2 H 0.934114 0.698148 0.838093
C42_2 C 0.8406(2) 0.7415(5) 0.8812(2)
H28_2 H 0.831655 0.598451 0.887131
Zn18_3 Zn 0.66679(2) 0.500000 1.000000
O24_2 O 0.91074(9) 0.6973(3) 0.47540(7)
O25_2 O 0.91074(9) 0.3027(3) 0.52460(7)
P1_3 P 1.000000 0.88728(13) 0.18838(3)
O3_3 O 1.000000 0.6518(4) 0.19032(10)
C4_3 C 1.000000 0.9987(6) 0.25313(13)
C10_3 C 1.000000 0.8552(7) 0.29296(16)
H5_3 H 1.000000 0.711364 0.285325
C11_3 C 1.000000 0.9188(7) 0.34401(16)
H6_3 H 1.000000 0.817464 0.370159
C15_2 C 0.91849(14) 0.9881(4) 0.15502(10)
C18_2 C 0.8055(2) 0.9044(5) 0.10812(16)
H10_2 H 0.771843 0.802965 0.095989
C20_2 C 0.8689(2) 0.8429(5) 0.13545(17)
H12_2 H 0.877948 0.699472 0.140650
H15 H 0.911305 0.304417 0.558015
H1_3 H 0.911305 0.695583 0.441985
H14_2 H 0.588695 0.695583 0.058015
H1_4 H 0.588695 0.304417 0.941985
loop_
_geom_bond_atom_site_label_1
_geom_bond_atom_site_label_2
_geom_bond_site_symmetry_1
_geom_bond_site_symmetry_2
P1 O3 1_555 1_555
C3 P1 1_555 1_555
C4 P1 1_555 1_555
H2 C7 1_555 1_555
C9 C3 1_555 1_555
H4 C9 1_555 1_555
C10 C4 1_555 1_555
H5 C10 1_555 1_555
C11 C10 1_555 1_555
H6 C11 1_555 1_555
C15 P1 1_555 1_555
H10 C18 1_555 1_555
C20 C15 1_555 1_555
H12 C20 1_555 1_555
C7 C9 1_555 1_555
C18 C20 1_555 1_555
O12 Zn10 1_555 1_555
O14 Zn1 1_555 1_555
O15 C27 1_555 1_555
O16 C27 1_555 1_555
C22 O12 1_555 1_555
C23 C22 1_555 1_555
C26 C27 1_555 1_555
H18 C29 1_555 1_555
C33 C26 1_555 1_555
H22 C33 1_555 1_555
C34 C23 1_555 1_555
H23 C34 1_555 1_555
H24 C35 1_555 1_555
O17 C38 1_555 1_555
O18 C38 1_555 1_555
C37 C38 1_555 1_555
H26 C40 1_555 1_555
C42 C37 1_555 1_555
H28 C42 1_555 1_555
Zn9 O15 1_555 1_555
Zn12 O17 1_555 1_555
Zn14 O12 1_555 1_555
Zn16 O16 1_555 1_555
Zn18 O18 1_555 1_555
O23 Zn1 1_555 1_555
O25 Zn1 1_555 1_555
O27 Zn10 1_555 1_555
O30 Zn5 1_555 1_555
Zn5 O23 1_555 1_555
O14 C22 1_555 1_555
C29 C33 1_555 1_555
C34 C35 1_555 1_555
C40 C42 1_555 1_555
Zn10_3 O23 1_555 1_555
Zn14_3 O25 1_555 1_555
Zn1_2 O4 1_555 1_555
Zn9 O2 1_555 1_555
Zn16 O2 1_555 1_555
O1 C1 1_555 1_555
O2 H1 1_555 1_555
O4 C1 1_555 1_555
O5 C6 1_555 1_555
O6 Zn16 1_555 1_555
C1 C2 1_555 1_555
C5 C6 1_555 1_555
C6 O6 1_555 1_555
H3 C8 1_555 1_555
C12 C5 1_555 1_555
H7 C12 1_555 1_555
C13 C2 1_555 1_555
H8 C13 1_555 1_555
H9 C14 1_555 1_555
O7 C17 1_555 1_555
O8 C17 1_555 1_555
C16 C17 1_555 1_555
H11 C19 1_555 1_555
C21 C16 1_555 1_555
H13 C21 1_555 1_555
Zn10_2 O9 1_555 1_555
Zn5_2 O9 1_555 1_555
O9 Zn1_2 1_555 1_555
H14 O9 1_555 1_555
O11 Zn16 1_555 1_555
H16 O11 1_555 1_555
Zn7 O2 1_555 1_555
Zn9_2 O5 1_555 1_555
Zn10_4 O1 1_555 1_555
Zn12_2 O7 1_555 1_555
Zn14_4 O1 1_555 1_555
Zn18 O8 1_555 1_555
O20 Zn9 1_555 1_555
O24 Zn1_2 1_555 1_555
O31 Zn5_2 1_555 1_555
C8 C12 1_555 1_555
C13 C14 1_555 1_555
C19 C21 1_555 1_555
O11 Zn7 1_555 1_555
O11 Zn9_2 1_555 1_555
Zn14_2 O24 1_555 1_555
P2 O13 1_555 1_555
C24 P2 1_555 1_555
C25 P2 1_555 1_555
H17 C28 1_555 1_555
C30 C24 1_555 1_555
H19 C30 1_555 1_555
C31 C25 1_555 1_555
H20 C31 1_555 1_555
H21 C32 1_555 1_555
C36 P2 1_555 1_555
H25 C39 1_555 1_555
C41 C36 1_555 1_555
H27 C41 1_555 1_555
C28 C30 1_555 1_555
C31 C32 1_555 1_555
C39 C41 1_555 1_555
O21 Zn9_2 1_555 1_555
O28 Zn10_4 1_555 1_555
P2_2 O13_2 1_555 1_555
C24_2 P2_2 1_555 1_555
C25_2 P2_2 1_555 1_555
H17_2 C28_2 1_555 1_555
C30_2 C24_2 1_555 1_555
H19_2 C30_2 1_555 1_555
C31_2 C25_2 1_555 1_555
H20_2 C31_2 1_555 1_555
H21_2 C32_2 1_555 1_555
C28_2 C30_2 1_555 1_555
C31_2 C32_2 1_555 1_555
Zn7 O4_2 1_555 1_555
O20 C1_2 1_555 1_555
O23 H1_2 1_555 1_555
O4_2 C1_2 1_555 1_555
O27 C6_2 1_555 1_555
C1_2 C2_2 1_555 1_555
C5_2 C6_2 1_555 1_555
C6_2 O30 1_555 1_555
H3_2 C8_2 1_555 1_555
C12_2 C5_2 1_555 1_555
H7_2 C12_2 1_555 1_555
C13_2 C2_2 1_555 1_555
H8_2 C13_2 1_555 1_555
H9_2 C14_2 1_555 1_555
O14_2 Zn7 1_555 1_555
O28 C27_2 1_555 1_555
O31 C27_2 1_555 1_555
C22_2 O21 1_555 1_555
C23_2 C22_2 1_555 1_555
C26_2 C27_2 1_555 1_555
H18_2 C29_2 1_555 1_555
C33_2 C26_2 1_555 1_555
H22_2 C33_2 1_555 1_555
C34_2 C23_2 1_555 1_555
H23_2 C34_2 1_555 1_555
H24_2 C35_2 1_555 1_555
C8_2 C12_2 1_555 1_555
C13_2 C14_2 1_555 1_555
O14_2 C22_2 1_555 1_555
C29_2 C33_2 1_555 1_555
C34_2 C35_2 1_555 1_555
P1_2 O3_2 1_555 1_555
C3_2 P1_2 1_555 1_555
C4_2 P1_2 1_555 1_555
H2_2 C7_2 1_555 1_555
C9_2 C3_2 1_555 1_555
H4_2 C9_2 1_555 1_555
C10_2 C4_2 1_555 1_555
H5_2 C10_2 1_555 1_555
C11_2 C10_2 1_555 1_555
H6_2 C11_2 1_555 1_555
C7_2 C9_2 1_555 1_555
P2_3 O13_3 1_555 1_555
C25_3 P2_3 1_555 1_555
C31_3 C25_3 1_555 1_555
H20_3 C31_3 1_555 1_555
H21_3 C32_3 1_555 1_555
C36_2 P2_3 1_555 1_555
H25_2 C39_2 1_555 1_555
C41_2 C36_2 1_555 1_555
H27_2 C41_2 1_555 1_555
C31_3 C32_3 1_555 1_555
C39_2 C41_2 1_555 1_555
Zn12 O20_2 1_555 1_555
Zn7_2 O4_3 1_555 1_555
O20_2 C1_3 1_555 1_555
O4_3 C1_3 1_555 1_555
C1_3 C2_3 1_555 1_555
C13_3 C2_3 1_555 1_555
H8_3 C13_3 1_555 1_555
H9_3 C14_3 1_555 1_555
O7_2 C17_2 1_555 1_555
O8_2 C17_2 1_555 1_555
C16_2 C17_2 1_555 1_555
H11_2 C19_2 1_555 1_555
C21_2 C16_2 1_555 1_555
H13_2 C21_2 1_555 1_555
O14_3 Zn7_2 1_555 1_555
C22_3 O21_2 1_555 1_555
C23_3 C22_3 1_555 1_555
C34_3 C23_3 1_555 1_555
H23_3 C34_3 1_555 1_555
H24_3 C35_3 1_555 1_555
O17_2 C38_2 1_555 1_555
O18_2 C38_2 1_555 1_555
C37_2 C38_2 1_555 1_555
H26_2 C40_2 1_555 1_555
C42_2 C37_2 1_555 1_555
H28_2 C42_2 1_555 1_555
Zn14_4 O17_2 1_555 1_555
Zn14 O7_2 1_555 1_555
Zn12_2 O21_2 1_555 1_555
Zn18_2 O8_2 1_555 1_555
Zn18_3 O18_2 1_555 1_555
O24_2 Zn7_2 1_555 1_555
O25_2 Zn7_2 1_555 1_555
C13_3 C14_3 1_555 1_555
C19_2 C21_2 1_555 1_555
O14_3 C22_3 1_555 1_555
C34_3 C35_3 1_555 1_555
C40_2 C42_2 1_555 1_555
Zn12_2 O24_2 1_555 1_555
Zn12 O25_2 1_555 1_555
P1_3 O3_3 1_555 1_555
C4_3 P1_3 1_555 1_555
C10_3 C4_3 1_555 1_555
H5_3 C10_3 1_555 1_555
C11_3 C10_3 1_555 1_555
H6_3 C11_3 1_555 1_555
C15_2 P1_3 1_555 1_555
H10_2 C18_2 1_555 1_555
C20_2 C15_2 1_555 1_555
H12_2 C20_2 1_555 1_555
C18_2 C20_2 1_555 1_555
H15 O25_2 1_555 1_555
Zn18 O25_2 1_555 1_555
Zn18 O24_2 1_555 1_555
O24_2 H1_3 1_555 1_555
Zn18_2 O25 1_555 1_555
H14_2 O25 1_555 1_555
Zn18_3 O24 1_555 1_555
O24 H1_4 1_555 1_555

#END
