
###############################################################################
#
# This file contains modified crystal structure data generated from the
# MOF subset of the Cambridge Structural Database (CSD) v543 
# hosted by the Cambridge Crystallographic Data Centre (CCDC).
#
# This work is licensed under the Creative Commons
# Attribution-NonCommercial-ShareAlike 4.0 International License.
# To view a copy of this license, visit
# http://creativecommons.org/licenses/by-nc-sa/4.0/
# or send a letter to
# Creative Commons, PO Box 1866, Mountain View, CA 94042, USA.
#
# CIF created using the CSD Python API on 29 September 2022
# The structure has been converted into the P1 space group
# The structure has a 3D framework
# The original CSD entry NANNEZ is in the triclinic crystal system
# The framework has been calculated to contain at least 10.0% void space
# The void calculation uses a probe of radius 1.32A, grid spacing 0.4
#
###############################################################################

data_NANNEZ
_chemical_formula_moiety         '(C66 H40 N12 O10 Tb2)n'
_symmetry_cell_setting           triclinic
_symmetry_space_group_name_H-M   'P 1'
_symmetry_Int_Tables_number      1
_space_group_name_Hall           'P 1'
loop_
_symmetry_equiv_pos_site_id
_symmetry_equiv_pos_as_xyz
1 x,y,z
_cell_length_a                   8.6105(3)
_cell_length_b                   13.6163(5)
_cell_length_c                   13.6664(5)
_cell_angle_alpha                81.8330(10)
_cell_angle_beta                 81.4420(10)
_cell_angle_gamma                79.3540(10)
_cell_volume                     1546.32
loop_
_atom_site_label
_atom_site_type_symbol
_atom_site_fract_x
_atom_site_fract_y
_atom_site_fract_z
_atom_site_U_iso_or_equiv
_atom_site_thermal_displace_type
Tb6 Tb 0.08435(2) 0.29729(2) 0.55859(2) 0.0082 Uani
C11 C 0.0688(3) 0.87205(16) 0.55246(18) 0.0139 Uani
C12 C 0.1625(3) 0.93946(18) 0.5691(2) 0.0178 Uani
H8 H 0.135824 0.974849 0.626071 0.0210 Uiso
C13 C 0.2951(3) 0.9542(2) 0.5016(2) 0.0212 Uani
H9 H 0.361098 0.999697 0.511604 0.0250 Uiso
C14 C 0.3300(3) 0.9020(2) 0.4195(2) 0.0234 Uani
H10 H 0.420815 0.910317 0.372259 0.0280 Uiso
C15 C 0.2292(3) 0.83684(19) 0.4073(2) 0.0198 Uani
H11 H 0.253227 0.801476 0.350327 0.0240 Uiso
C16 C 0.1678(3) 0.64915(16) 0.28985(16) 0.0129 Uani
C17 C 0.2760(3) 0.60505(17) 0.20548(16) 0.0139 Uani
C18 C 0.2532(3) 0.6417(2) 0.10765(17) 0.0199 Uani
H12 H 0.171478 0.697773 0.096259 0.0240 Uiso
C19 C 0.4547(3) 0.52200(19) 0.04480(16) 0.0164 Uani
C20 C 0.4875(3) 0.4820(2) 0.14060(17) 0.0200 Uani
H13 H 0.571181 0.426702 0.150218 0.0240 Uiso
C21 C 0.3965(3) 0.5240(2) 0.22188(17) 0.0187 Uani
H14 H 0.416579 0.497448 0.287791 0.0220 Uiso
C24 C 0.0597(3) 0.4057(2) 0.20635(17) 0.0221 Uani
H15 H 0.117910 0.349443 0.242139 0.0260 Uiso
N3 N 0.1002(2) 0.82132(14) 0.47156(15) 0.0140 Uani
N4 N 0.3405(3) 0.60223(18) 0.02810(15) 0.0222 Uani
N5 N 0.0772(3) 0.4143(2) 0.10500(16) 0.0283 Uani
O1 O 0.0576(2) 0.72330(13) 0.27130(12) 0.0162 Uani
O2 O 0.1843(2) 0.61132(13) 0.37796(12) 0.0141 Uani
O4 O 0.00031(19) 0.38536(12) 0.41362(11) 0.0113 Uani
C34 C 0.8322(3) 0.35085(16) 0.71015(16) 0.0129 Uani
C35 C 0.7240(3) 0.39495(17) 0.79452(16) 0.0139 Uani
C36 C 0.7468(3) 0.3583(2) 0.89235(17) 0.0199 Uani
H21 H 0.828522 0.302227 0.903741 0.0240 Uiso
C37 C 0.5453(3) 0.47800(19) 0.95520(16) 0.0164 Uani
C38 C 0.5125(3) 0.5180(2) 0.85940(17) 0.0200 Uani
H22 H 0.428819 0.573298 0.849782 0.0240 Uiso
C39 C 0.6035(3) 0.4760(2) 0.77812(17) 0.0187 Uani
H23 H 0.583421 0.502552 0.712209 0.0220 Uiso
N7 N 0.6595(3) 0.39777(18) 0.97190(15) 0.0222 Uani
O7 O 0.9424(2) 0.27670(13) 0.72870(12) 0.0162 Uani
O8 O 0.8157(2) 0.38868(13) 0.62204(12) 0.0141 Uani
C40 C 0.0538(2) 0.53034(15) 0.63033(14) 0.0086 Uani
C41 C 0.0418(3) 0.52226(16) 0.74165(15) 0.0115 Uani
C43 C 0.0101(3) 0.50526(17) 0.94480(16) 0.0145 Uani
C44 C 0.1149(3) 0.43456(18) 0.89702(16) 0.0185 Uani
H25 H 0.176268 0.380408 0.933575 0.0220 Uiso
C45 C 0.1300(3) 0.44300(19) 0.79584(17) 0.0200 Uani
H26 H 0.202216 0.393806 0.761630 0.0240 Uiso
O9 O 0.11956(19) 0.45398(12) 0.58818(11) 0.0114 Uani
C32 C 0.6256(4) 0.02347(19) 0.09012(19) 0.0216 Uani
H19 H 0.646040 0.088626 0.062661 0.0260 Uiso
H20 H 0.752439 0.008777 0.205764 0.0290 Uiso
C46 C 0.2729(3) 0.17403(18) 0.69499(16) 0.0150 Uani
C47 C 0.3417(3) 0.1187(2) 0.78515(18) 0.0194 Uani
C48 C 0.4400(5) 0.1624(3) 0.8318(2) 0.0376 Uani
H27 H 0.461875 0.227526 0.805353 0.0450 Uiso
C49 C 0.4664(3) 0.0246(2) 0.95371(19) 0.0206 Uani
C51 C 0.3120(4) 0.0239(2) 0.82541(19) 0.0241 Uani
N9 N 0.5057(5) 0.1154(3) 0.9138(2) 0.0426 Uani
O11 O 0.1990(2) 0.13096(13) 0.64461(13) 0.0179 Uani
O12 O 0.2880(2) 0.26465(13) 0.67220(13) 0.0161 Uani
C52 C 0.4508(3) 0.36618(17) 0.49563(17) 0.0145 Uani
H30 H 0.409162 0.400452 0.552208 0.0170 Uiso
C53 C 0.6048(3) 0.37364(18) 0.45214(19) 0.0166 Uani
H31 H 0.667068 0.412203 0.478097 0.0200 Uiso
C54 C 0.6656(3) 0.32342(18) 0.36984(18) 0.0161 Uani
H32 H 0.770699 0.327052 0.338168 0.0190 Uiso
C55 C 0.5713(3) 0.26786(17) 0.33430(17) 0.0145 Uani
H33 H 0.611094 0.232740 0.278046 0.0170 Uiso
C56 C 0.4175(2) 0.26402(16) 0.38191(15) 0.0108 Uani
C57 C 0.3109(2) 0.20687(16) 0.34700(15) 0.0120 Uani
C58 C 0.3459(3) 0.1730(2) 0.25267(19) 0.0203 Uani
H34 H 0.442780 0.182114 0.211883 0.0240 Uiso
C59 C 0.2372(4) 0.1263(3) 0.2201(2) 0.0270 Uani
H35 H 0.256868 0.104274 0.155795 0.0320 Uiso
C60 C 0.0992(3) 0.1119(2) 0.2824(2) 0.0232 Uani
H36 H 0.022451 0.080292 0.261276 0.0280 Uiso
C61 C 0.0741(3) 0.14467(17) 0.37694(17) 0.0137 Uani
N10 N 0.3573(2) 0.31288(14) 0.46186(13) 0.0115 Uani
N11 N 0.1774(2) 0.19262(13) 0.40834(13) 0.0104 Uani
C1 C 0.5492(3) 0.63382(17) 0.50437(17) 0.0145 Uani
H1 H 0.590838 0.599548 0.447792 0.0170 Uiso
C2 C 0.3952(3) 0.62636(18) 0.54786(19) 0.0166 Uani
H2 H 0.332932 0.587797 0.521903 0.0200 Uiso
C3 C 0.3344(3) 0.67658(18) 0.63016(18) 0.0161 Uani
H3 H 0.229301 0.672948 0.661832 0.0190 Uiso
C4 C 0.4287(3) 0.73214(17) 0.66570(17) 0.0145 Uani
H4 H 0.388906 0.767260 0.721954 0.0170 Uiso
C5 C 0.5825(2) 0.73598(16) 0.61809(15) 0.0108 Uani
C6 C 0.6891(2) 0.79313(16) 0.65300(15) 0.0120 Uani
C7 C 0.6541(3) 0.8270(2) 0.74733(19) 0.0203 Uani
H5 H 0.557220 0.817886 0.788117 0.0240 Uiso
C8 C 0.7628(4) 0.8737(3) 0.7799(2) 0.0270 Uani
H6 H 0.743132 0.895726 0.844205 0.0320 Uiso
C9 C 0.9008(3) 0.8881(2) 0.7176(2) 0.0232 Uani
H7 H 0.977549 0.919708 0.738724 0.0280 Uiso
C10 C 0.9259(3) 0.85533(17) 0.62306(17) 0.0137 Uani
C22 C 0.9462(2) 0.46966(15) 0.36967(14) 0.0086 Uani
C23 C 0.9582(3) 0.47774(16) 0.25835(15) 0.0115 Uani
C25 C 0.9899(3) 0.49474(17) 0.05520(16) 0.0145 Uani
C26 C 0.8851(3) 0.56544(18) 0.10298(16) 0.0185 Uani
H16 H 0.823732 0.619592 0.066425 0.0220 Uiso
C27 C 0.8700(3) 0.55700(19) 0.20416(17) 0.0200 Uani
H17 H 0.797784 0.606194 0.238370 0.0240 Uiso
C28 C 0.7271(3) 0.82597(18) 0.30501(16) 0.0150 Uani
C29 C 0.6583(3) 0.8813(2) 0.21485(18) 0.0194 Uani
C30 C 0.5600(5) 0.8376(3) 0.1682(2) 0.0376 Uani
H18 H 0.538125 0.772474 0.194647 0.0450 Uiso
C31 C 0.5336(3) 0.9754(2) 0.04629(19) 0.0206 Uani
C33 C 0.6880(4) 0.9761(2) 0.17459(19) 0.0241 Uani
N1 N 0.6427(2) 0.68712(14) 0.53814(13) 0.0115 Uani
N2 N 0.8226(2) 0.80738(13) 0.59166(13) 0.0104 Uani
N6 N 0.4943(5) 0.8846(3) 0.0862(2) 0.0426 Uani
O3 O 0.88044(19) 0.54602(12) 0.41182(11) 0.0114 Uani
O5 O 0.8010(2) 0.86904(13) 0.35539(13) 0.0179 Uani
O6 O 0.7120(2) 0.73535(13) 0.32780(13) 0.0161 Uani
Tb1 Tb 0.91565(2) 0.70271(2) 0.44141(2) 0.0082 Uani
O17 O 0.99969(19) 0.61464(12) 0.58638(11) 0.0113 Uani
C42 C 0.9403(3) 0.5943(2) 0.79365(17) 0.0221 Uani
H24 H 0.882090 0.650557 0.757861 0.0260 Uiso
N8 N 0.9228(3) 0.5857(2) 0.89500(16) 0.0283 Uani
C50 C 0.3744(4) 0.97653(19) 0.90988(19) 0.0216 Uani
H28 H 0.353960 0.911374 0.937339 0.0260 Uiso
H29 H 0.247561 0.991223 0.794236 0.0290 Uiso
C62 C 0.9312(3) 0.12795(16) 0.44754(18) 0.0139 Uani
C63 C 0.8375(3) 0.06054(18) 0.4309(2) 0.0178 Uani
H37 H 0.864176 0.025151 0.373929 0.0210 Uiso
C64 C 0.7049(3) 0.0458(2) 0.4984(2) 0.0212 Uani
H38 H 0.638902 0.000303 0.488396 0.0250 Uiso
C65 C 0.6700(3) 0.0980(2) 0.5805(2) 0.0234 Uani
H39 H 0.579185 0.089683 0.627741 0.0280 Uiso
C66 C 0.7708(3) 0.16316(19) 0.5927(2) 0.0198 Uani
H40 H 0.746773 0.198524 0.649673 0.0240 Uiso
N12 N 0.8998(2) 0.17868(14) 0.52844(15) 0.0140 Uani
loop_
_atom_site_aniso_label
_atom_site_aniso_U_11
_atom_site_aniso_U_22
_atom_site_aniso_U_33
_atom_site_aniso_U_23
_atom_site_aniso_U_13
_atom_site_aniso_U_12
Tb6 0.00975 0.00817 0.00558 -0.00076 -0.00037 0.00114
C11 0.0129 0.0104 0.0186 -0.0027 -0.0038 -0.0002
C12 0.0164 0.0141 0.0239 -0.0033 -0.006 -0.0018
C13 0.0156 0.0183 0.0304 -0.0019 -0.004 -0.0047
C14 0.0164 0.0205 0.0312 -0.0009 0.0038 -0.0049
C15 0.0177 0.0183 0.022 -0.0032 0.0045 -0.0043
C16 0.0134 0.0138 0.0098 -0.0021 0.0027 -0.0009
C17 0.0142 0.0161 0.0088 -0.0007 0.0025 0.0006
C18 0.0205 0.0217 0.0108 0.001 0.0043 0.0066
C19 0.0151 0.0211 0.0093 -0.0026 0.0024 0.0041
C20 0.0193 0.0249 0.0106 -0.0027 0.0006 0.0081
C21 0.0189 0.0234 0.0091 -0.0026 0.0011 0.0068
C24 0.0305 0.0235 0.007 -0.0026 0.0009 0.007
N3 0.0124 0.0117 0.0169 -0.0017 0.0008 -0.0012
N4 0.022 0.0269 0.0096 -0.0001 0.0052 0.0093
N5 0.0395 0.0285 0.0086 -0.0024 0.0018 0.0123
O1 0.0177 0.0164 0.0105 -0.0005 0.0021 0.0034
O2 0.015 0.017 0.0079 -0.0009 0.0005 0.0013
O4 0.0132 0.0116 0.0082 -0.0005 -0.0023 0.0005
C34 0.0134 0.0138 0.0098 -0.0021 0.0027 -0.0009
C35 0.0142 0.0161 0.0088 -0.0007 0.0025 0.0006
C36 0.0205 0.0217 0.0108 0.001 0.0043 0.0066
C37 0.0151 0.0211 0.0093 -0.0026 0.0024 0.0041
C38 0.0193 0.0249 0.0106 -0.0027 0.0006 0.0081
C39 0.0189 0.0234 0.0091 -0.0026 0.0011 0.0068
N7 0.022 0.0269 0.0096 -0.0001 0.0052 0.0093
O7 0.0177 0.0164 0.0105 -0.0005 0.0021 0.0034
O8 0.015 0.017 0.0079 -0.0009 0.0005 0.0013
C40 0.0081 0.0115 0.006 -0.0014 -0.0008 -0.001
C41 0.0156 0.012 0.0064 -0.0014 -0.0012 -0.0009
C43 0.0199 0.0144 0.007 -0.0003 -0.0008 0.0011
C44 0.0297 0.0174 0.0051 -0.0019 -0.0051 0.0075
C45 0.031 0.0188 0.0082 -0.0026 -0.0073 0.0053
O9 0.014 0.0104 0.009 -0.0039 -0.0015 0.0018
C32 0.033 0.0142 0.0172 0.0017 -0.0119 0.0011
C46 0.0158 0.0179 0.0082 -0.0003 -0.0025 0.0047
C47 0.0199 0.0216 0.0139 0.0022 -0.0054 0.0034
C48 0.049 0.0432 0.0255 0.017 -0.0235 -0.0211
C49 0.0277 0.0193 0.0141 0.0017 -0.0088 -0.0001
C51 0.0375 0.0186 0.0144 -0.0001 -0.0088 0.0033
N9 0.058 0.0415 0.0348 0.0192 -0.032 -0.0225
O11 0.0241 0.0129 0.0161 -0.0027 -0.0065 0.0025
O12 0.0191 0.0165 0.0118 -0.0008 -0.0051 0.0009
C52 0.0125 0.0162 0.0161 -0.0047 -0.0033 -0.0024
C53 0.0113 0.0186 0.0205 -0.0016 -0.004 -0.0032
C54 0.0106 0.0175 0.0193 0.0002 -0.0008 -0.0028
C55 0.0114 0.0171 0.0132 -0.0017 0.0011 -0.0003
C56 0.0098 0.0128 0.0089 -0.0015 -0.0014 0.0006
C57 0.0109 0.0143 0.0103 -0.0045 -0.0006 0.001
C58 0.0183 0.029 0.0147 -0.0121 0.0019 -0.0027
C59 0.0257 0.0399 0.0195 -0.0184 0.0018 -0.0083
C60 0.0209 0.0332 0.0202 -0.0158 -0.0016 -0.0075
C61 0.0119 0.0138 0.016 -0.0058 -0.0029 0.0003
N10 0.0107 0.0144 0.0095 -0.0033 -0.0015 -0.0004
N11 0.0102 0.0107 0.0104 -0.0036 -0.0023 0.0008
C1 0.0125 0.0162 0.0161 -0.0047 -0.0033 -0.0024
C2 0.0113 0.0186 0.0205 -0.0016 -0.004 -0.0032
C3 0.0106 0.0175 0.0193 0.0002 -0.0008 -0.0028
C4 0.0114 0.0171 0.0132 -0.0017 0.0011 -0.0003
C5 0.0098 0.0128 0.0089 -0.0015 -0.0014 0.0006
C6 0.0109 0.0143 0.0103 -0.0045 -0.0006 0.001
C7 0.0183 0.029 0.0147 -0.0121 0.0019 -0.0027
C8 0.0257 0.0399 0.0195 -0.0184 0.0018 -0.0083
C9 0.0209 0.0332 0.0202 -0.0158 -0.0016 -0.0075
C10 0.0119 0.0138 0.016 -0.0058 -0.0029 0.0003
C22 0.0081 0.0115 0.006 -0.0014 -0.0008 -0.001
C23 0.0156 0.012 0.0064 -0.0014 -0.0012 -0.0009
C25 0.0199 0.0144 0.007 -0.0003 -0.0008 0.0011
C26 0.0297 0.0174 0.0051 -0.0019 -0.0051 0.0075
C27 0.031 0.0188 0.0082 -0.0026 -0.0073 0.0053
C28 0.0158 0.0179 0.0082 -0.0003 -0.0025 0.0047
C29 0.0199 0.0216 0.0139 0.0022 -0.0054 0.0034
C30 0.049 0.0432 0.0255 0.017 -0.0235 -0.0211
C31 0.0277 0.0193 0.0141 0.0017 -0.0088 -0.0001
C33 0.0375 0.0186 0.0144 -0.0001 -0.0088 0.0033
N1 0.0107 0.0144 0.0095 -0.0033 -0.0015 -0.0004
N2 0.0102 0.0107 0.0104 -0.0036 -0.0023 0.0008
N6 0.058 0.0415 0.0348 0.0192 -0.032 -0.0225
O3 0.014 0.0104 0.009 -0.0039 -0.0015 0.0018
O5 0.0241 0.0129 0.0161 -0.0027 -0.0065 0.0025
O6 0.0191 0.0165 0.0118 -0.0008 -0.0051 0.0009
Tb1 0.00975 0.00817 0.00558 -0.00076 -0.00037 0.00114
O17 0.0132 0.0116 0.0082 -0.0005 -0.0023 0.0005
C42 0.0305 0.0235 0.007 -0.0026 0.0009 0.007
N8 0.0395 0.0285 0.0086 -0.0024 0.0018 0.0123
C50 0.033 0.0142 0.0172 0.0017 -0.0119 0.0011
C62 0.0129 0.0104 0.0186 -0.0027 -0.0038 -0.0002
C63 0.0164 0.0141 0.0239 -0.0033 -0.006 -0.0018
C64 0.0156 0.0183 0.0304 -0.0019 -0.004 -0.0047
C65 0.0164 0.0205 0.0312 -0.0009 0.0038 -0.0049
C66 0.0177 0.0183 0.022 -0.0032 0.0045 -0.0043
N12 0.0124 0.0117 0.0169 -0.0017 0.0008 -0.0012
loop_
_geom_bond_atom_site_label_1
_geom_bond_atom_site_label_2
_geom_bond_site_symmetry_1
_geom_bond_site_symmetry_2
C12 C11 1_555 1_555
H8 C12 1_555 1_555
C13 C12 1_555 1_555
H9 C13 1_555 1_555
C14 C13 1_555 1_555
H10 C14 1_555 1_555
C15 C14 1_555 1_555
H11 C15 1_555 1_555
C16 C17 1_555 1_555
C17 C18 1_555 1_555
C18 H12 1_555 1_555
C19 C20 1_555 1_555
C20 H13 1_555 1_555
C21 C17 1_555 1_555
H14 C21 1_555 1_555
C24 H15 1_555 1_555
N3 C11 1_555 1_555
N4 C18 1_555 1_555
N5 C24 1_555 1_555
O1 C16 1_555 1_555
O2 C16 1_555 1_555
Tb6 O4 1_555 1_555
C15 N3 1_555 1_555
C19 N4 1_555 1_555
C20 C21 1_555 1_555
C34 C35 1_555 1_555
C35 C36 1_555 1_555
C36 H21 1_555 1_555
C38 C37 1_555 1_555
H22 C38 1_555 1_555
C39 C35 1_555 1_555
H23 C39 1_555 1_555
N7 C36 1_555 1_555
O7 C34 1_555 1_555
O8 C34 1_555 1_555
C40 C41 1_555 1_555
C44 C43 1_555 1_555
H25 C44 1_555 1_555
C45 C41 1_555 1_555
H26 C45 1_555 1_555
O9 C40 1_555 1_555
Tb6 O9 1_555 1_555
C37 N7 1_555 1_555
C38 C39 1_555 1_555
C44 C45 1_555 1_555
C32 H19 1_555 1_555
C46 C47 1_555 1_555
C47 C48 1_555 1_555
C48 H27 1_555 1_555
C51 C47 1_555 1_555
N9 C48 1_555 1_555
O11 C46 1_555 1_555
O12 C46 1_555 1_555
C52 H30 1_555 1_555
C53 C52 1_555 1_555
H31 C53 1_555 1_555
C54 C53 1_555 1_555
H32 C54 1_555 1_555
C55 C54 1_555 1_555
H33 C55 1_555 1_555
C56 C55 1_555 1_555
C57 C56 1_555 1_555
C58 C57 1_555 1_555
H34 C58 1_555 1_555
C59 C58 1_555 1_555
H35 C59 1_555 1_555
C60 C59 1_555 1_555
H36 C60 1_555 1_555
C61 C60 1_555 1_555
N10 C52 1_555 1_555
N11 C57 1_555 1_555
Tb6 O11 1_555 1_555
C49 N9 1_555 1_555
O12 Tb6 1_555 1_555
C56 N10 1_555 1_555
C61 N11 1_555 1_555
N10 Tb6 1_555 1_555
N11 Tb6 1_555 1_555
C1 H1 1_555 1_555
C2 C1 1_555 1_555
H2 C2 1_555 1_555
C3 C2 1_555 1_555
H3 C3 1_555 1_555
C4 C3 1_555 1_555
H4 C4 1_555 1_555
C5 C4 1_555 1_555
C6 C5 1_555 1_555
C7 C6 1_555 1_555
H5 C7 1_555 1_555
C8 C7 1_555 1_555
H6 C8 1_555 1_555
C9 C8 1_555 1_555
H7 C9 1_555 1_555
C10 C9 1_555 1_555
C22 C23 1_555 1_555
C25 C26 1_555 1_555
C26 H16 1_555 1_555
C27 C23 1_555 1_555
H17 C27 1_555 1_555
C28 C29 1_555 1_555
C29 C30 1_555 1_555
C30 H18 1_555 1_555
C33 C29 1_555 1_555
N1 C1 1_555 1_555
N2 C6 1_555 1_555
N6 C30 1_555 1_555
O3 C22 1_555 1_555
O5 C28 1_555 1_555
O6 C28 1_555 1_555
Tb1 N1 1_555 1_555
O17 Tb1 1_555 1_555
C5 N1 1_555 1_555
C10 N2 1_555 1_555
C26 C27 1_555 1_555
C31 N6 1_555 1_555
N2 Tb1 1_555 1_555
O3 Tb1 1_555 1_555
O5 Tb1 1_555 1_555
O6 Tb1 1_555 1_555
C42 H24 1_555 1_555
N8 C42 1_555 1_555
H28 C50 1_555 1_555
C63 C62 1_555 1_555
H37 C63 1_555 1_555
C64 C63 1_555 1_555
H38 C64 1_555 1_555
C65 C64 1_555 1_555
H39 C65 1_555 1_555
C66 C65 1_555 1_555
H40 C66 1_555 1_555
N12 C62 1_555 1_555
C66 N12 1_555 1_555

#END
