
###############################################################################
#
# This file contains modified crystal structure data generated from the
# MOF subset of the Cambridge Structural Database (CSD) v543 
# hosted by the Cambridge Crystallographic Data Centre (CCDC).
#
# This work is licensed under the Creative Commons
# Attribution-NonCommercial-ShareAlike 4.0 International License.
# To view a copy of this license, visit
# http://creativecommons.org/licenses/by-nc-sa/4.0/
# or send a letter to
# Creative Commons, PO Box 1866, Mountain View, CA 94042, USA.
#
# CIF created using the CSD Python API on 29 September 2022
# The structure has been converted into the P1 space group
# The structure has a 3D framework
# The original CSD entry NANYUX01 is in the monoclinic crystal system
# The framework has been calculated to contain at least 10.0% void space
# The void calculation uses a probe of radius 1.32A, grid spacing 0.4
# The framework is charged, counterions have been retained in the structure
#
###############################################################################

data_NANYUX01
_chemical_formula_moiety         '(C44 H44 N4 O24)n'
_symmetry_cell_setting           triclinic
_symmetry_space_group_name_H-M   'P 1'
_symmetry_Int_Tables_number      1
_space_group_name_Hall           'P 1'
loop_
_symmetry_equiv_pos_site_id
_symmetry_equiv_pos_as_xyz
1 x,y,z
_cell_length_a                   9.4469(4)
_cell_length_b                   16.2456(7)
_cell_length_c                   11.5176(8)
_cell_angle_alpha                90
_cell_angle_beta                 97.0270(10)
_cell_angle_gamma                90
_cell_volume                     1754.34
loop_
_atom_site_label
_atom_site_type_symbol
_atom_site_fract_x
_atom_site_fract_y
_atom_site_fract_z
O5 O 0.2620(2) 0.79690(14) 0.7124(2)
O6 O 0.20336(19) 0.91844(9) 0.63582(16)
H1 H 0.0643 0.7518 0.8316
C3 C 0.0263(2) 0.84478(14) 0.7166(2)
C4 C 0.1755(2) 0.85265(15) 0.6869(2)
Zn4 Zn 0.36352(2) 0.920283(15) 0.54689(2)
Zn1 Zn 0.63648(2) 0.079717(15) 0.45311(2)
O7 O 0.45829(18) 0.06762(11) 0.34747(15)
O8 O 0.5814(2) 0.16724(12) 0.55086(18)
O9 O 0.79664(19) 0.08156(9) 0.36418(16)
Zn3 Zn 0.86352(2) 0.579717(15) 0.04689(2)
O1 O 0.69815(19) 0.97980(12) 0.53983(18)
O2 O 0.54171(18) 0.93238(11) 0.65253(15)
O3 O 0.6902(2) 0.69239(19) 0.9054(3)
O4 O 0.9186(2) 0.66724(12) 0.94914(18)
C1 C 0.9928(3) 0.78525(15) 0.7944(2)
C2 C 0.8534(3) 0.77509(16) 0.8175(2)
C5 C 0.7795(2) 0.88552(15) 0.6844(2)
C6 C 0.9190(2) 0.89512(15) 0.6623(2)
H2 H 0.9414 0.9357 0.6105
C7 C 0.8150(3) 0.70747(18) 0.8977(3)
C8 C 0.7468(2) 0.82561(15) 0.7628(2)
H3 H 0.6532 0.8193 0.7787
C9 C 0.6638(2) 0.93719(15) 0.6209(2)
O7_2 O 0.04171(18) 0.56762(11) 0.15253(15)
Zn2 Zn 0.13648(2) 0.420283(15) 0.95311(2)
O9_2 O 0.70336(19) 0.58156(9) 0.13582(16)
O1_2 O 0.80185(19) 0.47980(12) 0.96017(18)
O2_2 O 0.95829(18) 0.43238(11) 0.84747(15)
O3_2 O 0.8098(2) 0.19239(19) 0.5946(3)
O5_2 O 0.2380(2) 0.29690(14) 0.7876(2)
O6_2 O 0.29664(19) 0.41844(9) 0.86418(16)
C1_2 C 0.5072(3) 0.28525(15) 0.7056(2)
H1_2 H 0.4357 0.2518 0.6684
C2_2 C 0.6466(3) 0.27509(16) 0.6825(2)
C3_2 C 0.4737(2) 0.34478(14) 0.7834(2)
C4_2 C 0.3245(2) 0.35265(15) 0.8131(2)
C5_2 C 0.7205(2) 0.38552(15) 0.8156(2)
C6_2 C 0.5810(2) 0.39512(15) 0.8377(2)
H2_2 H 0.5586 0.4357 0.8895
C7_2 C 0.6850(3) 0.20747(18) 0.6023(3)
C8_2 C 0.7532(2) 0.32561(15) 0.7372(2)
H3_2 H 0.8468 0.3193 0.7213
C9_2 C 0.8362(2) 0.43719(15) 0.8791(2)
O1_3 O 0.30185(19) 0.02020(12) 0.46017(18)
O3_3 O 0.3098(2) 0.30761(19) 0.0946(3)
O4_2 O 0.0814(2) 0.33276(12) 0.05086(18)
C1_3 C 0.0072(3) 0.21475(15) 0.2056(2)
C2_3 C 0.1466(3) 0.22491(16) 0.1825(2)
C5_3 C 0.2205(2) 0.11448(15) 0.3156(2)
C6_3 C 0.0810(2) 0.10488(15) 0.3377(2)
H2_3 H 0.0586 0.0643 0.3895
C7_3 C 0.1850(3) 0.29253(18) 0.1023(3)
C8_3 C 0.2532(2) 0.17439(15) 0.2372(2)
H3_3 H 0.3468 0.1807 0.2213
C9_3 C 0.3362(2) 0.06281(15) 0.3791(2)
O8_2 O 0.4186(2) 0.83276(12) 0.44914(18)
O5_3 O 0.7380(2) 0.20310(14) 0.2876(2)
H1_3 H 0.9357 0.2482 0.1684
C3_3 C 0.9737(2) 0.15522(14) 0.2834(2)
C4_3 C 0.8245(2) 0.14735(15) 0.3131(2)
O1_4 O 0.19815(19) 0.52020(12) 0.03983(18)
O3_4 O 0.1902(2) 0.80761(19) 0.4054(3)
O5_4 O 0.7620(2) 0.70310(14) 0.2124(2)
C1_4 C 0.4928(3) 0.71475(15) 0.2944(2)
H1_4 H 0.5643 0.7482 0.3316
C2_4 C 0.3534(3) 0.72491(16) 0.3175(2)
C3_4 C 0.5263(2) 0.65522(14) 0.2166(2)
C4_4 C 0.6755(2) 0.64735(15) 0.1869(2)
C5_4 C 0.2795(2) 0.61448(15) 0.1844(2)
C6_4 C 0.4190(2) 0.60488(15) 0.1623(2)
H2_4 H 0.4414 0.5643 0.1105
C7_4 C 0.3150(3) 0.79253(18) 0.3977(3)
C8_4 C 0.2468(2) 0.67439(15) 0.2628(2)
H3_4 H 0.1532 0.6807 0.2787
C9_4 C 0.1638(2) 0.56281(15) 0.1209(2)
N1 N 0.3585(8) 0.6419(3) 0.7093(5)
H4 H 0.3308 0.6949 0.7094
H5 H 0.2890 0.6144 0.6649
C10 C 0.4778(7) 0.6392(5) 0.6498(8)
H6 H 0.4524 0.6578 0.5709
H7 H 0.5126 0.5837 0.6491
H8 H 0.5508 0.6743 0.6884
C11 C 0.3581(7) 0.6136(3) 0.8221(6)
H9 H 0.2633 0.6172 0.8436
H10 H 0.4215 0.6465 0.8745
H11 H 0.3891 0.5573 0.8266
N1_2 N 0.1415(8) 0.1419(3) 0.7907(5)
H4_2 H 0.1692 0.1949 0.7906
H5_2 H 0.2110 0.1144 0.8351
C10_2 C 0.0222(7) 0.1392(5) 0.8502(8)
H6_2 H 0.0476 0.1578 0.9291
C11_2 C 0.1419(7) 0.1136(3) 0.6779(6)
H9_2 H 0.2367 0.1172 0.6564
H10_2 H 0.0785 0.1465 0.6255
H11_2 H 0.1109 0.0573 0.6734
H7_2 H 0.9874 0.0837 0.8509
H8_2 H 0.9492 0.1743 0.8116
N1_3 N 0.6415(8) 0.3581(3) 0.2907(5)
H4_3 H 0.6692 0.3051 0.2906
H5_3 H 0.7110 0.3856 0.3351
C10_3 C 0.5222(7) 0.3608(5) 0.3502(8)
H6_3 H 0.5476 0.3422 0.4291
H7_3 H 0.4874 0.4163 0.3509
H8_3 H 0.4492 0.3257 0.3116
C11_3 C 0.6419(7) 0.3864(3) 0.1779(6)
H9_3 H 0.7367 0.3828 0.1564
H10_3 H 0.5785 0.3535 0.1255
H11_3 H 0.6109 0.4427 0.1734
H7_4 H 0.0126 0.9163 0.1491
H8_4 H 0.0508 0.8257 0.1884
N1_4 N 0.8585(8) 0.8581(3) 0.2093(5)
H4_4 H 0.8308 0.8051 0.2094
H5_4 H 0.7890 0.8856 0.1649
C10_4 C 0.9778(7) 0.8608(5) 0.1498(8)
H6_4 H 0.9524 0.8422 0.0709
C11_4 C 0.8581(7) 0.8864(3) 0.3221(6)
H9_4 H 0.7633 0.8828 0.3436
H10_4 H 0.9215 0.8535 0.3745
H11_4 H 0.8891 0.9427 0.3266
loop_
_geom_bond_atom_site_label_1
_geom_bond_atom_site_label_2
_geom_bond_site_symmetry_1
_geom_bond_site_symmetry_2
O5 C4 1_555 1_555
O6 C4 1_555 1_555
C4 C3 1_555 1_555
Zn4 O6 1_555 1_555
O7 Zn1 1_555 1_555
O8 Zn1 1_555 1_555
O9 Zn1 1_555 1_555
O1 C9 1_555 1_555
O2 C9 1_555 1_555
O3 C7 1_555 1_555
O4 C7 1_555 1_555
C2 C1 1_555 1_555
C5 C6 1_555 1_555
H2 C6 1_555 1_555
C7 C2 1_555 1_555
C8 C2 1_555 1_555
H3 C8 1_555 1_555
C9 C5 1_555 1_555
Zn4 O2 1_555 1_555
C5 C8 1_555 1_555
O9_2 Zn3 1_555 1_555
O1_2 C9_2 1_555 1_555
O2_2 C9_2 1_555 1_555
O3_2 C7_2 1_555 1_555
O8 C7_2 1_555 1_555
O5_2 C4_2 1_555 1_555
O6_2 C4_2 1_555 1_555
C1_2 H1_2 1_555 1_555
C2_2 C1_2 1_555 1_555
C3_2 C1_2 1_555 1_555
C4_2 C3_2 1_555 1_555
C5_2 C6_2 1_555 1_555
C6_2 C3_2 1_555 1_555
H2_2 C6_2 1_555 1_555
C7_2 C2_2 1_555 1_555
C8_2 C2_2 1_555 1_555
H3_2 C8_2 1_555 1_555
C9_2 C5_2 1_555 1_555
Zn2 O6_2 1_555 1_555
C5_2 C8_2 1_555 1_555
O1_3 C9_3 1_555 1_555
O7 C9_3 1_555 1_555
O3_3 C7_3 1_555 1_555
O4_2 C7_3 1_555 1_555
C2_3 C1_3 1_555 1_555
C5_3 C6_3 1_555 1_555
H2_3 C6_3 1_555 1_555
C7_3 C2_3 1_555 1_555
C8_3 C2_3 1_555 1_555
H3_3 C8_3 1_555 1_555
C9_3 C5_3 1_555 1_555
C5_3 C8_3 1_555 1_555
O8_2 Zn4 1_555 1_555
O5_3 C4_3 1_555 1_555
O9 C4_3 1_555 1_555
C4_3 C3_3 1_555 1_555
O1_4 C9_4 1_555 1_555
O7_2 C9_4 1_555 1_555
O3_4 C7_4 1_555 1_555
O8_2 C7_4 1_555 1_555
O5_4 C4_4 1_555 1_555
O9_2 C4_4 1_555 1_555
C1_4 H1_4 1_555 1_555
C2_4 C1_4 1_555 1_555
C3_4 C1_4 1_555 1_555
C4_4 C3_4 1_555 1_555
C5_4 C6_4 1_555 1_555
C6_4 C3_4 1_555 1_555
H2_4 C6_4 1_555 1_555
C7_4 C2_4 1_555 1_555
C8_4 C2_4 1_555 1_555
H3_4 C8_4 1_555 1_555
C9_4 C5_4 1_555 1_555
C5_4 C8_4 1_555 1_555
N1 H4 1_555 1_555
H5 N1 1_555 1_555
C10 N1 1_555 1_555
H6 C10 1_555 1_555
H7 C10 1_555 1_555
H8 C10 1_555 1_555
C11 N1 1_555 1_555
H9 C11 1_555 1_555
H10 C11 1_555 1_555
H11 C11 1_555 1_555
N1_2 H4_2 1_555 1_555
H5_2 N1_2 1_555 1_555
C10_2 N1_2 1_555 1_555
H6_2 C10_2 1_555 1_555
C11_2 N1_2 1_555 1_555
H9_2 C11_2 1_555 1_555
H10_2 C11_2 1_555 1_555
H11_2 C11_2 1_555 1_555
N1_3 H4_3 1_555 1_555
H5_3 N1_3 1_555 1_555
C10_3 N1_3 1_555 1_555
H6_3 C10_3 1_555 1_555
H7_3 C10_3 1_555 1_555
H8_3 C10_3 1_555 1_555
C11_3 N1_3 1_555 1_555
H9_3 C11_3 1_555 1_555
H10_3 C11_3 1_555 1_555
H11_3 C11_3 1_555 1_555
N1_4 H4_4 1_555 1_555
H5_4 N1_4 1_555 1_555
C10_4 N1_4 1_555 1_555
H6_4 C10_4 1_555 1_555
C11_4 N1_4 1_555 1_555
H9_4 C11_4 1_555 1_555
H10_4 C11_4 1_555 1_555
H11_4 C11_4 1_555 1_555

#END
