
###############################################################################
#
# This file contains modified crystal structure data generated from the
# MOF subset of the Cambridge Structural Database (CSD) v543 
# hosted by the Cambridge Crystallographic Data Centre (CCDC).
#
# This work is licensed under the Creative Commons
# Attribution-NonCommercial-ShareAlike 4.0 International License.
# To view a copy of this license, visit
# http://creativecommons.org/licenses/by-nc-sa/4.0/
# or send a letter to
# Creative Commons, PO Box 1866, Mountain View, CA 94042, USA.
#
# CIF created using the CSD Python API on 29 September 2022
# The structure has been converted into the P1 space group
# The structure has a 3D framework
# The original CSD entry NANYUX04 is in the monoclinic crystal system
# The framework has been calculated to contain at least 10.0% void space
# The void calculation uses a probe of radius 1.32A, grid spacing 0.4
#
###############################################################################

data_NANYUX04
_chemical_formula_moiety         '(C44 H44 N4 O24 Zn2)n'
_symmetry_cell_setting           triclinic
_symmetry_space_group_name_H-M   'P 1'
_symmetry_Int_Tables_number      1
_space_group_name_Hall           'P 1'
loop_
_symmetry_equiv_pos_site_id
_symmetry_equiv_pos_as_xyz
1 x,y,z
_cell_length_a                   9.5077(5)
_cell_length_b                   16.3950(16)
_cell_length_c                   11.6119(9)
_cell_angle_alpha                90
_cell_angle_beta                 97.2200(10)
_cell_angle_gamma                90
_cell_volume                     1795.7
loop_
_atom_site_label
_atom_site_type_symbol
_atom_site_fract_x
_atom_site_fract_y
_atom_site_fract_z
O5 O 0.2039(3) 0.41816(16) 0.6353(2)
O6 O 0.2625(3) 0.2970(2) 0.7132(3)
C3 C 0.1760(4) 0.3525(3) 0.6868(3)
H2 H 0.0627 0.2523 0.8313
C8 C 0.0272(4) 0.3445(2) 0.7173(3)
Zn2 Zn 0.36389(4) 0.42021(3) 0.54690(4)
Zn4 Zn 0.86389(4) 0.07979(3) 0.04690(4)
O1 O 0.5420(3) 0.43250(16) 0.6525(2)
O2 O 0.6987(3) 0.48063(19) 0.5401(3)
O3 O 0.9191(3) 0.16711(19) 0.9492(3)
O4 O 0.6910(4) 0.1933(3) 0.9071(4)
C1 C 0.6646(4) 0.4375(2) 0.6211(3)
C2 C 0.8167(5) 0.2075(3) 0.8978(4)
C4 C 0.7799(4) 0.3856(2) 0.6850(3)
C5 C 0.7480(4) 0.3262(2) 0.7634(3)
H1 H 0.6552 0.3204 0.7798
C6 C 0.8538(4) 0.2753(3) 0.8176(4)
C7 C 0.9919(4) 0.2857(3) 0.7943(3)
C9 C 0.9198(4) 0.3949(2) 0.6625(3)
H3 H 0.9420 0.4349 0.6108
Zn3 Zn 0.63611(4) 0.57979(3) 0.45310(4)
O7 O 0.3013(3) 0.51937(19) 0.4599(3)
O8 O 0.4191(3) 0.33289(19) 0.4492(3)
O7_2 O 0.1987(3) 0.01937(19) 0.0401(3)
O8_2 O 0.0809(3) 0.83289(19) 0.0508(3)
Zn1 Zn 0.13611(4) 0.92021(3) 0.95310(4)
O9 O 0.2961(3) 0.91816(16) 0.8647(2)
O1_2 O 0.9580(3) 0.93250(16) 0.8475(2)
O2_2 O 0.8013(3) 0.98063(19) 0.9599(3)
O3_2 O 0.5809(3) 0.66711(19) 0.5508(3)
O4_2 O 0.8090(4) 0.6933(3) 0.5929(4)
O6_2 O 0.2375(3) 0.7970(2) 0.7868(3)
C1_2 C 0.8354(4) 0.9375(2) 0.8789(3)
C2_2 C 0.6833(5) 0.7075(3) 0.6022(4)
C3_2 C 0.3240(4) 0.8525(3) 0.8132(3)
C4_2 C 0.7201(4) 0.8856(2) 0.8150(3)
C5_2 C 0.7520(4) 0.8262(2) 0.7366(3)
H1_2 H 0.8448 0.8204 0.7202
C6_2 C 0.6462(4) 0.7753(3) 0.6824(4)
C7_2 C 0.5081(4) 0.7857(3) 0.7057(3)
H2_2 H 0.4373 0.7523 0.6687
C8_2 C 0.4728(4) 0.8445(2) 0.7827(3)
C9_2 C 0.5802(4) 0.8949(2) 0.8375(3)
H3_2 H 0.5580 0.9349 0.8892
O1_3 O 0.4580(3) 0.56750(16) 0.3475(2)
O4_3 O 0.3090(4) 0.8067(3) 0.0929(4)
C1_3 C 0.3354(4) 0.5625(2) 0.3789(3)
C2_3 C 0.1833(5) 0.7925(3) 0.1022(4)
C4_3 C 0.2201(4) 0.6144(2) 0.3150(3)
C5_3 C 0.2520(4) 0.6738(2) 0.2366(3)
H1_3 H 0.3448 0.6796 0.2202
C6_3 C 0.1462(4) 0.7247(3) 0.1824(4)
C7_3 C 0.0081(4) 0.7143(3) 0.2057(3)
C9_3 C 0.0802(4) 0.6051(2) 0.3375(3)
H3_3 H 0.0580 0.5651 0.3892
O9_2 O 0.7961(3) 0.58184(16) 0.3647(2)
O6_3 O 0.7375(3) 0.7030(2) 0.2868(3)
C3_3 C 0.8240(4) 0.6475(3) 0.3132(3)
H2_3 H 0.9373 0.7477 0.1687
C8_3 C 0.9728(4) 0.6555(2) 0.2827(3)
O1_4 O 0.0420(3) 0.06750(16) 0.1525(2)
O4_4 O 0.1910(4) 0.3067(3) 0.4071(4)
O5_2 O 0.7039(3) 0.08184(16) 0.1353(2)
O6_4 O 0.7625(3) 0.2030(2) 0.2132(3)
C1_4 C 0.1646(4) 0.0625(2) 0.1211(3)
C2_4 C 0.3167(5) 0.2925(3) 0.3978(4)
C3_4 C 0.6760(4) 0.1475(3) 0.1868(3)
C4_4 C 0.2799(4) 0.1144(2) 0.1850(3)
C5_4 C 0.2480(4) 0.1738(2) 0.2634(3)
H1_4 H 0.1552 0.1796 0.2798
C6_4 C 0.3538(4) 0.2247(3) 0.3176(4)
C7_4 C 0.4919(4) 0.2143(3) 0.2943(3)
H2_4 H 0.5627 0.2477 0.3313
C8_4 C 0.5272(4) 0.1555(2) 0.2173(3)
C9_4 C 0.4198(4) 0.1051(2) 0.1625(3)
H3_4 H 0.4420 0.0651 0.1108
H6 H 0.0289 0.4129 0.1696
H8 H 0.0413 0.3178 0.1813
N1 N 0.8541(10) 0.3603(4) 0.2079(7)
H4 H 0.7886 0.3908 0.1649
H5 H 0.8218 0.3087 0.2049
C10 C 0.9806(9) 0.3620(6) 0.1527(10)
H7 H 0.9562 0.3566 0.0703
C11 C 0.8602(9) 0.3871(5) 0.3246(8)
H9 H 0.9201 0.3511 0.3742
H10 H 0.7666 0.3869 0.3473
H11 H 0.8981 0.4414 0.3312
N1_2 N 0.6459(10) 0.8603(4) 0.2921(7)
H4_2 H 0.7114 0.8908 0.3351
H5_2 H 0.6782 0.8087 0.2951
C10_2 C 0.5194(9) 0.8620(6) 0.3473(10)
H6_2 H 0.4711 0.9129 0.3304
H7_2 H 0.5438 0.8566 0.4297
H8_2 H 0.4587 0.8178 0.3187
C11_2 C 0.6398(9) 0.8871(5) 0.1754(8)
H9_2 H 0.5799 0.8511 0.1258
H10_2 H 0.7334 0.8869 0.1527
H11_2 H 0.6019 0.9414 0.1688
N1_3 N 0.1459(10) 0.6397(4) 0.7921(7)
H4_3 H 0.2114 0.6092 0.8351
H5_3 H 0.1782 0.6913 0.7951
C10_3 C 0.0194(9) 0.6380(6) 0.8473(10)
H7_3 H 0.0438 0.6434 0.9297
C11_3 C 0.1398(9) 0.6129(5) 0.6754(8)
H9_3 H 0.0799 0.6489 0.6258
H10_3 H 0.2334 0.6131 0.6527
H11_3 H 0.1019 0.5586 0.6688
H6_3 H 0.9711 0.5871 0.8304
H8_3 H 0.9587 0.6822 0.8187
N1_4 N 0.3541(10) 0.1397(4) 0.7079(7)
H4_4 H 0.2886 0.1092 0.6649
H5_4 H 0.3218 0.1913 0.7049
C10_4 C 0.4806(9) 0.1380(6) 0.6527(10)
H6_4 H 0.5289 0.0871 0.6696
H7_4 H 0.4562 0.1434 0.5703
H8_4 H 0.5413 0.1822 0.6813
C11_4 C 0.3602(9) 0.1129(5) 0.8246(8)
H9_4 H 0.4201 0.1489 0.8742
H10_4 H 0.2666 0.1131 0.8473
H11_4 H 0.3981 0.0586 0.8312
loop_
_geom_bond_atom_site_label_1
_geom_bond_atom_site_label_2
_geom_bond_site_symmetry_1
_geom_bond_site_symmetry_2
O5 C3 1_555 1_555
O6 C3 1_555 1_555
C3 C8 1_555 1_555
Zn2 O5 1_555 1_555
Zn2 O1 1_555 1_555
O1 C1 1_555 1_555
O2 C1 1_555 1_555
O3 C2 1_555 1_555
O4 C2 1_555 1_555
C1 C4 1_555 1_555
C2 C6 1_555 1_555
C4 C5 1_555 1_555
C5 H1 1_555 1_555
C6 C5 1_555 1_555
C7 C6 1_555 1_555
C9 C4 1_555 1_555
H3 C9 1_555 1_555
Zn3 O2 1_555 1_555
O7 Zn2 1_555 1_555
O8 Zn2 1_555 1_555
O9 Zn1 1_555 1_555
O1_2 C1_2 1_555 1_555
O2_2 C1_2 1_555 1_555
O3_2 C2_2 1_555 1_555
O4_2 C2_2 1_555 1_555
O9 C3_2 1_555 1_555
O6_2 C3_2 1_555 1_555
C1_2 C4_2 1_555 1_555
C2_2 C6_2 1_555 1_555
C3_2 C8_2 1_555 1_555
C4_2 C5_2 1_555 1_555
C5_2 H1_2 1_555 1_555
C6_2 C5_2 1_555 1_555
C7_2 C6_2 1_555 1_555
H2_2 C7_2 1_555 1_555
C8_2 C7_2 1_555 1_555
C9_2 C4_2 1_555 1_555
H3_2 C9_2 1_555 1_555
Zn3 O3_2 1_555 1_555
C8_2 C9_2 1_555 1_555
Zn3 O1_3 1_555 1_555
O1_3 C1_3 1_555 1_555
O7 C1_3 1_555 1_555
O8_2 C2_3 1_555 1_555
O4_3 C2_3 1_555 1_555
C1_3 C4_3 1_555 1_555
C2_3 C6_3 1_555 1_555
C4_3 C5_3 1_555 1_555
C5_3 H1_3 1_555 1_555
C6_3 C5_3 1_555 1_555
C7_3 C6_3 1_555 1_555
C9_3 C4_3 1_555 1_555
H3_3 C9_3 1_555 1_555
O9_2 Zn3 1_555 1_555
O9_2 C3_3 1_555 1_555
O6_3 C3_3 1_555 1_555
C3_3 C8_3 1_555 1_555
O1_4 C1_4 1_555 1_555
O7_2 C1_4 1_555 1_555
O8 C2_4 1_555 1_555
O4_4 C2_4 1_555 1_555
O5_2 C3_4 1_555 1_555
O6_4 C3_4 1_555 1_555
C1_4 C4_4 1_555 1_555
C2_4 C6_4 1_555 1_555
C3_4 C8_4 1_555 1_555
C4_4 C5_4 1_555 1_555
C5_4 H1_4 1_555 1_555
C6_4 C5_4 1_555 1_555
C7_4 C6_4 1_555 1_555
H2_4 C7_4 1_555 1_555
C8_4 C7_4 1_555 1_555
C9_4 C4_4 1_555 1_555
H3_4 C9_4 1_555 1_555
Zn4 O5_2 1_555 1_555
C8_4 C9_4 1_555 1_555
N1 H4 1_555 1_555
H5 N1 1_555 1_555
C10 N1 1_555 1_555
H7 C10 1_555 1_555
C11 N1 1_555 1_555
H9 C11 1_555 1_555
H10 C11 1_555 1_555
H11 C11 1_555 1_555
N1_2 H4_2 1_555 1_555
H5_2 N1_2 1_555 1_555
C10_2 N1_2 1_555 1_555
H6_2 C10_2 1_555 1_555
H7_2 C10_2 1_555 1_555
H8_2 C10_2 1_555 1_555
C11_2 N1_2 1_555 1_555
H9_2 C11_2 1_555 1_555
H10_2 C11_2 1_555 1_555
H11_2 C11_2 1_555 1_555
N1_3 H4_3 1_555 1_555
H5_3 N1_3 1_555 1_555
C10_3 N1_3 1_555 1_555
H7_3 C10_3 1_555 1_555
C11_3 N1_3 1_555 1_555
H9_3 C11_3 1_555 1_555
H10_3 C11_3 1_555 1_555
H11_3 C11_3 1_555 1_555
N1_4 H4_4 1_555 1_555
H5_4 N1_4 1_555 1_555
C10_4 N1_4 1_555 1_555
H6_4 C10_4 1_555 1_555
H7_4 C10_4 1_555 1_555
H8_4 C10_4 1_555 1_555
C11_4 N1_4 1_555 1_555
H9_4 C11_4 1_555 1_555
H10_4 C11_4 1_555 1_555
H11_4 C11_4 1_555 1_555

#END
