
###############################################################################
#
# This file contains modified crystal structure data generated from the
# MOF subset of the Cambridge Structural Database (CSD) v543 
# hosted by the Cambridge Crystallographic Data Centre (CCDC).
#
# This work is licensed under the Creative Commons
# Attribution-NonCommercial-ShareAlike 4.0 International License.
# To view a copy of this license, visit
# http://creativecommons.org/licenses/by-nc-sa/4.0/
# or send a letter to
# Creative Commons, PO Box 1866, Mountain View, CA 94042, USA.
#
# CIF created using the CSD Python API on 29 September 2022
# The structure has been converted into the P1 space group
# The structure has a 3D framework
# The original CSD entry NAQKUP is in the monoclinic crystal system
# The framework has been calculated to contain at least 10.0% void space
# The void calculation uses a probe of radius 1.32A, grid spacing 0.4
#
###############################################################################

data_NAQKUP
_chemical_formula_moiety         '(C96 H80 Cd16 O80)n'
_symmetry_cell_setting           triclinic
_symmetry_space_group_name_H-M   'P 1'
_symmetry_Int_Tables_number      1
_space_group_name_Hall           'P 1'
loop_
_symmetry_equiv_pos_site_id
_symmetry_equiv_pos_as_xyz
1 x,y,z
_cell_length_a                   18.184(2)
_cell_length_b                   13.6565(13)
_cell_length_c                   14.5002(15)
_cell_angle_alpha                90
_cell_angle_beta                 113.959(3)
_cell_angle_gamma                90
_cell_volume                     3290.57
loop_
_atom_site_label
_atom_site_type_symbol
_atom_site_fract_x
_atom_site_fract_y
_atom_site_fract_z
Cd1 Cd 0.500000 0.000000 0.500000
O10 O 0.6070(3) 0.0628(3) 0.4826(3)
H9 H 0.598803 0.071937 0.415545
H10 H 0.656011 0.055201 0.542990
Cd6 Cd 0.500000 0.000000 0.000000
O25 O 0.5035(2) 0.1286(3) 0.6022(3)
O28 O 0.4191(3) 0.0905(3) 0.3600(3)
Cd6_2 Cd 0.500000 0.000000 1.000000
C1 C 0.6706(4) 0.5758(4) 0.5731(5)
C2 C 0.5905(3) 0.5915(4) 0.4865(4)
C3 C 0.5561(3) 0.6830(4) 0.4695(4)
H1 H 0.582622 0.734500 0.511938
C4 C 0.4824(3) 0.6995(4) 0.3900(4)
C5 C 0.4429(3) 0.6222(4) 0.3273(4)
H2 H 0.393096 0.631906 0.274073
C6 C 0.4783(3) 0.5308(4) 0.3448(4)
C7 C 0.5515(3) 0.5134(4) 0.4228(4)
H3 H 0.574493 0.451306 0.433161
C8 C 0.4486(4) 0.8007(4) 0.3686(4)
C9 C 0.4692(3) 0.3731(4) 0.2680(4)
C10 C 0.4390(3) 0.2851(4) 0.2848(4)
H4 H 0.397991 0.284965 0.307492
C11 C 0.4698(3) 0.1965(4) 0.2677(4)
C12 C 0.4290(3) 0.1048(4) 0.2810(4)
Cd1_2 Cd 0.500000 1.000000 0.500000
O1 O 0.7010(2) 0.6459(3) 0.6339(3)
O2 O 0.7068(3) 0.4964(3) 0.5829(3)
O3 O 0.4965(2) 0.8714(3) 0.3978(3)
O4 O 0.3737(3) 0.8091(3) 0.3217(3)
O5 O 0.4335(2) 0.4584(3) 0.2790(3)
O6 O 0.4032(3) 0.0462(3) 0.2068(3)
H6 H 0.240505 0.051516 0.324114
C14 C 0.4095(3) 0.5915(4) 0.0135(4)
C15 C 0.4439(3) 0.6830(4) 0.0305(4)
C16 C 0.5176(3) 0.6995(4) 0.1100(4)
C17 C 0.5571(3) 0.6222(4) 0.1727(4)
H12 H 0.606904 0.631906 0.225927
C18 C 0.5217(3) 0.5308(4) 0.1552(4)
C19 C 0.4485(3) 0.5134(4) 0.0772(4)
H13 H 0.425507 0.451306 0.066839
C20 C 0.5514(4) 0.8007(4) 0.1314(4)
C21 C 0.5308(3) 0.3731(4) 0.2320(4)
C22 C 0.5610(3) 0.2851(4) 0.2152(4)
H14 H 0.602009 0.284965 0.192508
C23 C 0.5302(3) 0.1965(4) 0.2323(4)
C24 C 0.5710(3) 0.1048(4) 0.2190(4)
O13 O 0.5035(2) 0.8714(3) 0.1022(3)
O14 O 0.6263(3) 0.8091(3) 0.1783(3)
O15 O 0.5665(2) 0.4584(3) 0.2210(3)
O16 O 0.5968(3) 0.0462(3) 0.2932(3)
O17 O 0.5809(3) 0.0905(3) 0.1400(3)
H16 H 0.759495 0.051516 0.175886
O20 O 0.3930(3) 0.9372(3) 0.5174(3)
H19 H 0.401197 0.928063 0.584455
H20 H 0.343989 0.944799 0.457010
Cd6_3 Cd 0.500000 1.000000 0.000000
Cd7 Cd 0.31942(3) 0.93904(3) 0.22550(3)
Cd8 Cd 0.68058(3) 0.93904(3) 0.27450(3)
Cd10 Cd 0.81942(3) 0.56096(3) 0.72550(3)
O23 O 0.7932(3) 0.0036(3) 0.4171(3)
O24 O 0.2068(3) 0.0036(3) 0.0829(3)
O29 O 0.5809(3) 0.9095(3) 0.6400(3)
C13 C 0.3294(4) 0.5758(4) 0.9269(5)
H11 H 0.417378 0.734500 0.988062
O11 O 0.2990(2) 0.6459(3) 0.8661(3)
O12 O 0.2932(3) 0.4964(3) 0.9171(3)
Cd6_4 Cd 0.500000 1.000000 1.000000
Cd9 Cd 0.18058(3) 0.56096(3) 0.77450(3)
O8 O 0.2560(3) 0.9840(4) 0.3295(4)
H5 H 0.204345 0.953948 0.312522
O9 O 0.3530(3) 0.8483(3) 0.1046(3)
H7 H 0.348656 0.783244 0.110801
H8 H 0.405287 0.855103 0.116757
O18 O 0.7440(3) 0.9840(4) 0.1705(4)
H15 H 0.795655 0.953948 0.187478
O19 O 0.6470(3) 0.8483(3) 0.3954(3)
H17 H 0.651344 0.783244 0.389199
H18 H 0.594713 0.855103 0.383243
O21 O 0.7990(2) 0.8541(3) 0.3661(3)
O22 O 0.2010(2) 0.8541(3) 0.1339(3)
O10_2 O 0.3930(3) 0.0628(3) 0.0174(3)
H9_2 H 0.401197 0.071937 0.084455
H10_2 H 0.343989 0.055201 0.957010
O25_2 O 0.4965(2) 0.1286(3) 0.8978(3)
H20_2 H 0.656011 0.944799 0.042990
O20_2 O 0.6070(3) 0.9372(3) 0.9826(3)
H19_2 H 0.598803 0.928063 0.915545
O29_2 O 0.4191(3) 0.9095(3) 0.8600(3)
C1_2 C 0.1706(4) 0.0758(4) 0.5731(5)
C2_2 C 0.0905(3) 0.0915(4) 0.4865(4)
C3_2 C 0.0561(3) 0.1830(4) 0.4695(4)
H1_2 H 0.082622 0.234500 0.511938
C7_2 C 0.0515(3) 0.0134(4) 0.4228(4)
Cd1_3 Cd 0.000000 0.500000 0.500000
O1_2 O 0.2010(2) 0.1459(3) 0.6339(3)
O10_3 O 0.1070(3) 0.5628(3) 0.4826(3)
H9_3 H 0.098803 0.571937 0.415545
H10_3 H 0.156011 0.555201 0.542990
C16_2 C 0.0176(3) 0.1995(4) 0.1100(4)
C17_2 C 0.0571(3) 0.1222(4) 0.1727(4)
H12_2 H 0.106904 0.131906 0.225927
C18_2 C 0.0217(3) 0.0308(4) 0.1552(4)
C20_2 C 0.0514(4) 0.3007(4) 0.1314(4)
O13_2 O 0.0035(2) 0.3714(3) 0.1022(3)
O14_2 O 0.1263(3) 0.3091(3) 0.1783(3)
Cd6_5 Cd -0.000000 0.500000 0.000000
Cd8_2 Cd 0.18058(3) 0.43904(3) 0.27450(3)
Cd10_2 Cd 0.31942(3) 0.06096(3) 0.72550(3)
O25_3 O 0.0035(2) 0.6286(3) 0.6022(3)
O29_3 O 0.0809(3) 0.4095(3) 0.6400(3)
Cd6_6 Cd 0.000000 0.500000 1.000000
H3_2 H 0.074493 0.951306 0.433161
O2_2 O 0.2068(3) 0.9964(3) 0.5829(3)
C21_2 C 0.0308(3) 0.8731(4) 0.2320(4)
C22_2 C 0.0610(3) 0.7851(4) 0.2152(4)
H14_2 H 0.102009 0.784965 0.192508
C23_2 C 0.0302(3) 0.6965(4) 0.2323(4)
C24_2 C 0.0710(3) 0.6048(4) 0.2190(4)
O15_2 O 0.0665(2) 0.9584(3) 0.2210(3)
O16_2 O 0.0968(3) 0.5462(3) 0.2932(3)
O17_2 O 0.0809(3) 0.5905(3) 0.1400(3)
O18_2 O 0.2440(3) 0.4840(4) 0.1705(4)
H15_2 H 0.295655 0.453948 0.187478
H16_2 H 0.259495 0.551516 0.175886
O19_2 O 0.1470(3) 0.3483(3) 0.3954(3)
H17_2 H 0.151344 0.283244 0.389199
H18_2 H 0.094713 0.355103 0.383243
O21_2 O 0.2990(2) 0.3541(3) 0.3661(3)
O23_2 O 0.2932(3) 0.5036(3) 0.4171(3)
C4_2 C 0.9824(3) 0.1995(4) 0.3900(4)
C5_2 C 0.9429(3) 0.1222(4) 0.3273(4)
H2_2 H 0.893096 0.131906 0.274073
C6_2 C 0.9783(3) 0.0308(4) 0.3448(4)
C8_2 C 0.9486(4) 0.3007(4) 0.3686(4)
Cd1_4 Cd 1.000000 0.500000 0.500000
O3_2 O 0.9965(2) 0.3714(3) 0.3978(3)
O4_2 O 0.8737(3) 0.3091(3) 0.3217(3)
C14_2 C 0.9095(3) 0.0915(4) 0.0135(4)
C15_2 C 0.9439(3) 0.1830(4) 0.0305(4)
C19_2 C 0.9485(3) 0.0134(4) 0.0772(4)
O20_3 O 0.8930(3) 0.4372(3) 0.5174(3)
H19_3 H 0.901197 0.428063 0.584455
H20_3 H 0.843989 0.444799 0.457010
Cd6_7 Cd 1.000000 0.500000 0.000000
Cd7_2 Cd 0.81942(3) 0.43904(3) 0.22550(3)
O28_2 O 0.9191(3) 0.5905(3) 0.3600(3)
C13_2 C 0.8294(4) 0.0758(4) 0.9269(5)
H11_2 H 0.917378 0.234500 0.988062
O11_2 O 0.7990(2) 0.1459(3) 0.8661(3)
Cd6_8 Cd 1.000000 0.500000 1.000000
Cd9_2 Cd 0.68058(3) 0.06096(3) 0.77450(3)
C9_2 C 0.9692(3) 0.8731(4) 0.2680(4)
C10_2 C 0.9390(3) 0.7851(4) 0.2848(4)
H4_2 H 0.897991 0.784965 0.307492
C11_2 C 0.9698(3) 0.6965(4) 0.2677(4)
C12_2 C 0.9290(3) 0.6048(4) 0.2810(4)
O5_2 O 0.9335(2) 0.9584(3) 0.2790(3)
O6_2 O 0.9032(3) 0.5462(3) 0.2068(3)
O8_2 O 0.7560(3) 0.4840(4) 0.3295(4)
H5_2 H 0.704345 0.453948 0.312522
H6_2 H 0.740505 0.551516 0.324114
O9_2 O 0.8530(3) 0.3483(3) 0.1046(3)
H7_2 H 0.848656 0.283244 0.110801
H8_2 H 0.905287 0.355103 0.116757
H13_2 H 0.925507 0.951306 0.066839
O22_2 O 0.7010(2) 0.3541(3) 0.1339(3)
O24_2 O 0.7068(3) 0.5036(3) 0.0829(3)
O12_2 O 0.7932(3) 0.9964(3) 0.9171(3)
H20_4 H 0.156011 0.444799 0.042990
O20_4 O 0.1070(3) 0.4372(3) 0.9826(3)
H19_4 H 0.098803 0.428063 0.915545
O10_4 O 0.8930(3) 0.5628(3) 0.0174(3)
H9_4 H 0.901197 0.571937 0.084455
H10_4 H 0.843989 0.555201 0.957010
O25_4 O 0.9965(2) 0.6286(3) 0.8978(3)
O29_4 O 0.9191(3) 0.4095(3) 0.8600(3)
O8_3 O 0.7440(3) 0.0160(4) 0.6705(4)
H5_3 H 0.795655 0.046052 0.687478
O9_3 O 0.6470(3) 0.1517(3) 0.8954(3)
H7_3 H 0.651344 0.216756 0.889199
H8_3 H 0.594713 0.144897 0.883243
O18_3 O 0.2560(3) 0.0160(4) 0.8295(4)
H15_3 H 0.204345 0.046052 0.812522
O19_3 O 0.3530(3) 0.1517(3) 0.6046(3)
H17_3 H 0.348656 0.216756 0.610801
H18_3 H 0.405287 0.144897 0.616757
O26 O 0.6263(3) 0.1909(3) 0.6783(3)
O27 O 0.3737(3) 0.1909(3) 0.8217(3)
C13_3 C 0.6706(4) 0.4242(4) 0.0731(5)
H11_3 H 0.582622 0.265500 0.011938
C1_3 C 0.3294(4) 0.4242(4) 0.4269(5)
C2_3 C 0.4095(3) 0.4085(4) 0.5135(4)
C3_3 C 0.4439(3) 0.3170(4) 0.5305(4)
H1_3 H 0.417378 0.265500 0.488062
C4_3 C 0.5176(3) 0.3005(4) 0.6100(4)
C5_3 C 0.5571(3) 0.3778(4) 0.6727(4)
H2_3 H 0.606904 0.368094 0.725927
C6_3 C 0.5217(3) 0.4692(4) 0.6552(4)
C7_3 C 0.4485(3) 0.4866(4) 0.5772(4)
H3_3 H 0.425507 0.548694 0.566839
C8_3 C 0.5514(4) 0.1993(4) 0.6314(4)
C9_3 C 0.5308(3) 0.6269(4) 0.7320(4)
C10_3 C 0.5610(3) 0.7149(4) 0.7152(4)
H4_3 H 0.602009 0.715035 0.692508
C11_3 C 0.5302(3) 0.8035(4) 0.7323(4)
C12_3 C 0.5710(3) 0.8952(4) 0.7190(4)
O5_3 O 0.5665(2) 0.5416(3) 0.7210(3)
O6_3 O 0.5968(3) 0.9538(3) 0.7932(3)
H6_3 H 0.759495 0.948484 0.675886
C14_3 C 0.5905(3) 0.4085(4) 0.9865(4)
C15_3 C 0.5561(3) 0.3170(4) 0.9695(4)
C16_3 C 0.4824(3) 0.3005(4) 0.8900(4)
C17_3 C 0.4429(3) 0.3778(4) 0.8273(4)
H12_3 H 0.393096 0.368094 0.774073
C18_3 C 0.4783(3) 0.4692(4) 0.8448(4)
C19_3 C 0.5515(3) 0.4866(4) 0.9228(4)
H13_3 H 0.574493 0.548694 0.933161
C20_3 C 0.4486(4) 0.1993(4) 0.8686(4)
C21_3 C 0.4692(3) 0.6269(4) 0.7680(4)
C22_3 C 0.4390(3) 0.7149(4) 0.7848(4)
H14_3 H 0.397991 0.715035 0.807492
C23_3 C 0.4698(3) 0.8035(4) 0.7677(4)
C24_3 C 0.4290(3) 0.8952(4) 0.7810(4)
O15_3 O 0.4335(2) 0.5416(3) 0.7790(3)
O16_3 O 0.4032(3) 0.9538(3) 0.7068(3)
H16_3 H 0.240505 0.948484 0.824114
C9_4 C 0.0308(3) 0.1269(4) 0.7320(4)
C10_4 C 0.0610(3) 0.2149(4) 0.7152(4)
H4_4 H 0.102009 0.215035 0.692508
C11_4 C 0.0302(3) 0.3035(4) 0.7323(4)
C12_4 C 0.0710(3) 0.3952(4) 0.7190(4)
O5_4 O 0.0665(2) 0.0416(3) 0.7210(3)
O6_4 O 0.0968(3) 0.4538(3) 0.7932(3)
O8_4 O 0.2440(3) 0.5160(4) 0.6705(4)
H5_4 H 0.295655 0.546052 0.687478
H6_4 H 0.259495 0.448484 0.675886
O9_4 O 0.1470(3) 0.6517(3) 0.8954(3)
H7_4 H 0.151344 0.716756 0.889199
H8_4 H 0.094713 0.644897 0.883243
H13_4 H 0.074493 0.048694 0.933161
O26_2 O 0.1263(3) 0.6909(3) 0.6783(3)
C13_4 C 0.1706(4) 0.9242(4) 0.0731(5)
H11_4 H 0.082622 0.765500 0.011938
C4_4 C 0.0176(3) 0.8005(4) 0.6100(4)
C5_4 C 0.0571(3) 0.8778(4) 0.6727(4)
H2_4 H 0.106904 0.868094 0.725927
C6_4 C 0.0217(3) 0.9692(4) 0.6552(4)
C8_4 C 0.0514(4) 0.6993(4) 0.6314(4)
C14_4 C 0.0905(3) 0.9085(4) 0.9865(4)
C15_4 C 0.0561(3) 0.8170(4) 0.9695(4)
C19_4 C 0.0515(3) 0.9866(4) 0.9228(4)
H3_4 H 0.925507 0.048694 0.566839
C21_4 C 0.9692(3) 0.1269(4) 0.7680(4)
C22_4 C 0.9390(3) 0.2149(4) 0.7848(4)
H14_4 H 0.897991 0.215035 0.807492
C23_4 C 0.9698(3) 0.3035(4) 0.7677(4)
C24_4 C 0.9290(3) 0.3952(4) 0.7810(4)
O15_4 O 0.9335(2) 0.0416(3) 0.7790(3)
O16_4 O 0.9032(3) 0.4538(3) 0.7068(3)
O18_4 O 0.7560(3) 0.5160(4) 0.8295(4)
H15_4 H 0.704345 0.546052 0.812522
H16_4 H 0.740505 0.448484 0.824114
O19_4 O 0.8530(3) 0.6517(3) 0.6046(3)
H17_4 H 0.848656 0.716756 0.610801
H18_4 H 0.905287 0.644897 0.616757
O27_2 O 0.8737(3) 0.6909(3) 0.8217(3)
C1_4 C 0.8294(4) 0.9242(4) 0.4269(5)
C2_4 C 0.9095(3) 0.9085(4) 0.5135(4)
C3_4 C 0.9439(3) 0.8170(4) 0.5305(4)
H1_4 H 0.917378 0.765500 0.488062
C7_4 C 0.9485(3) 0.9866(4) 0.5772(4)
C16_4 C 0.9824(3) 0.8005(4) 0.8900(4)
C17_4 C 0.9429(3) 0.8778(4) 0.8273(4)
H12_4 H 0.893096 0.868094 0.774073
C18_4 C 0.9783(3) 0.9692(4) 0.8448(4)
C20_4 C 0.9486(4) 0.6993(4) 0.8686(4)
loop_
_geom_bond_atom_site_label_1
_geom_bond_atom_site_label_2
_geom_bond_site_symmetry_1
_geom_bond_site_symmetry_2
O10 Cd1 1_555 1_555
H9 O10 1_555 1_555
H10 O10 1_555 1_555
O25 Cd1 1_555 1_555
O28 Cd1 1_555 1_555
C1 C2 1_555 1_555
C2 C3 1_555 1_555
C3 H1 1_555 1_555
C4 C3 1_555 1_555
C5 C4 1_555 1_555
H2 C5 1_555 1_555
C6 C5 1_555 1_555
C7 C2 1_555 1_555
H3 C7 1_555 1_555
C8 C4 1_555 1_555
C9 C10 1_555 1_555
C10 H4 1_555 1_555
C11 C10 1_555 1_555
C12 C11 1_555 1_555
Cd1_2 O3 1_555 1_555
O1 C1 1_555 1_555
O2 C1 1_555 1_555
O3 C8 1_555 1_555
O4 C8 1_555 1_555
O5 C6 1_555 1_555
O6 C12 1_555 1_555
O28 C12 1_555 1_555
C14 C15 1_555 1_555
C16 C15 1_555 1_555
C17 C16 1_555 1_555
H12 C17 1_555 1_555
C18 C17 1_555 1_555
C19 C14 1_555 1_555
H13 C19 1_555 1_555
C20 C16 1_555 1_555
C21 C9 1_555 1_555
C22 C21 1_555 1_555
H14 C22 1_555 1_555
C23 C11 1_555 1_555
C24 C23 1_555 1_555
O13 C20 1_555 1_555
O14 C20 1_555 1_555
O15 C18 1_555 1_555
O16 C24 1_555 1_555
O17 C24 1_555 1_555
O20 Cd1_2 1_555 1_555
H19 O20 1_555 1_555
H20 O20 1_555 1_555
Cd6 O17 1_555 1_555
Cd6_3 O13 1_555 1_555
Cd7 O4 1_555 1_555
Cd8 O14 1_555 1_555
Cd10 O1 1_555 1_555
O29 Cd1_2 1_555 1_555
C6 C7 1_555 1_555
C9 O5 1_555 1_555
O2 Cd10 1_555 1_555
C18 C19 1_555 1_555
C21 O15 1_555 1_555
C22 C23 1_555 1_555
O11 C13 1_555 1_555
O12 C13 1_555 1_555
Cd9 O11 1_555 1_555
O12 Cd9 1_555 1_555
O8 Cd7 1_555 1_555
H5 O8 1_555 1_555
O9 Cd7 1_555 1_555
H7 O9 1_555 1_555
H8 O9 1_555 1_555
O18 Cd8 1_555 1_555
H15 O18 1_555 1_555
O19 Cd8 1_555 1_555
H17 O19 1_555 1_555
H18 O19 1_555 1_555
O21 Cd8 1_555 1_555
O22 Cd7 1_555 1_555
O10_2 Cd6 1_555 1_555
H9_2 O10_2 1_555 1_555
O25_2 Cd6_2 1_555 1_555
O20_2 Cd6_4 1_555 1_555
H19_2 O20_2 1_555 1_555
O29_2 Cd6_4 1_555 1_555
C1_2 C2_2 1_555 1_555
C2_2 C3_2 1_555 1_555
C3_2 H1_2 1_555 1_555
C7_2 C2_2 1_555 1_555
O1_2 C1_2 1_555 1_555
O10_3 Cd1_3 1_555 1_555
H9_3 O10_3 1_555 1_555
H10_3 O10_3 1_555 1_555
C17_2 C16_2 1_555 1_555
H12_2 C17_2 1_555 1_555
C18_2 C17_2 1_555 1_555
C20_2 C16_2 1_555 1_555
O13_2 C20_2 1_555 1_555
O14_2 C20_2 1_555 1_555
Cd6_5 O13_2 1_555 1_555
Cd8_2 O14_2 1_555 1_555
Cd10_2 O1_2 1_555 1_555
O25_3 Cd1_3 1_555 1_555
O29_3 Cd1_3 1_555 1_555
C22_2 C21_2 1_555 1_555
H14_2 C22_2 1_555 1_555
C24_2 C23_2 1_555 1_555
O16_2 C24_2 1_555 1_555
O17_2 C24_2 1_555 1_555
Cd8_2 O16_2 1_555 1_555
O18_2 Cd8_2 1_555 1_555
H15_2 O18_2 1_555 1_555
H16_2 O18_2 1_555 1_555
O19_2 Cd8_2 1_555 1_555
H17_2 O19_2 1_555 1_555
H18_2 O19_2 1_555 1_555
Cd6_5 O17_2 1_555 1_555
O21_2 Cd8_2 1_555 1_555
O23_2 Cd8_2 1_555 1_555
C21_2 O15_2 1_555 1_555
C22_2 C23_2 1_555 1_555
C5_2 C4_2 1_555 1_555
H2_2 C5_2 1_555 1_555
C6_2 C5_2 1_555 1_555
C8_2 C4_2 1_555 1_555
Cd1_4 O3_2 1_555 1_555
O3_2 C8_2 1_555 1_555
O4_2 C8_2 1_555 1_555
C14_2 C15_2 1_555 1_555
C19_2 C14_2 1_555 1_555
O20_3 Cd1_4 1_555 1_555
H19_3 O20_3 1_555 1_555
H20_3 O20_3 1_555 1_555
Cd7_2 O4_2 1_555 1_555
O28_2 Cd1_4 1_555 1_555
O11_2 C13_2 1_555 1_555
Cd9_2 O11_2 1_555 1_555
C9_2 C10_2 1_555 1_555
C10_2 H4_2 1_555 1_555
C11_2 C10_2 1_555 1_555
C12_2 C11_2 1_555 1_555
Cd7_2 O6_2 1_555 1_555
O6_2 C12_2 1_555 1_555
O28_2 C12_2 1_555 1_555
O8_2 Cd7_2 1_555 1_555
H5_2 O8_2 1_555 1_555
H6_2 O8_2 1_555 1_555
O9_2 Cd7_2 1_555 1_555
H7_2 O9_2 1_555 1_555
H8_2 O9_2 1_555 1_555
O22_2 Cd7_2 1_555 1_555
O24_2 Cd7_2 1_555 1_555
C9_2 O5_2 1_555 1_555
O20_4 Cd6_6 1_555 1_555
H19_4 O20_4 1_555 1_555
O10_4 Cd6_7 1_555 1_555
H9_4 O10_4 1_555 1_555
O25_4 Cd6_8 1_555 1_555
O29_4 Cd6_8 1_555 1_555
O8_3 Cd9_2 1_555 1_555
H5_3 O8_3 1_555 1_555
O9_3 Cd9_2 1_555 1_555
H7_3 O9_3 1_555 1_555
H8_3 O9_3 1_555 1_555
O18_3 Cd10_2 1_555 1_555
H15_3 O18_3 1_555 1_555
O19_3 Cd10_2 1_555 1_555
H17_3 O19_3 1_555 1_555
H18_3 O19_3 1_555 1_555
O26 Cd9_2 1_555 1_555
O27 Cd10_2 1_555 1_555
O22_2 C13_3 1_555 1_555
O24_2 C13_3 1_555 1_555
C1_3 C2_3 1_555 1_555
C2_3 C3_3 1_555 1_555
C3_3 H1_3 1_555 1_555
C4_3 C3_3 1_555 1_555
C5_3 C4_3 1_555 1_555
H2_3 C5_3 1_555 1_555
C6_3 C5_3 1_555 1_555
C7_3 C2_3 1_555 1_555
H3_3 C7_3 1_555 1_555
C8_3 C4_3 1_555 1_555
C9_3 C10_3 1_555 1_555
C10_3 H4_3 1_555 1_555
C11_3 C10_3 1_555 1_555
C12_3 C11_3 1_555 1_555
O21_2 C1_3 1_555 1_555
O23_2 C1_3 1_555 1_555
O25 C8_3 1_555 1_555
O26 C8_3 1_555 1_555
O5_3 C6_3 1_555 1_555
O6_3 C12_3 1_555 1_555
O29 C12_3 1_555 1_555
C14_3 C15_3 1_555 1_555
C16_3 C15_3 1_555 1_555
C17_3 C16_3 1_555 1_555
H12_3 C17_3 1_555 1_555
C18_3 C17_3 1_555 1_555
C19_3 C14_3 1_555 1_555
H13_3 C19_3 1_555 1_555
C20_3 C16_3 1_555 1_555
C21_3 C9_3 1_555 1_555
C22_3 C21_3 1_555 1_555
H14_3 C22_3 1_555 1_555
C23_3 C11_3 1_555 1_555
C24_3 C23_3 1_555 1_555
O25_2 C20_3 1_555 1_555
O27 C20_3 1_555 1_555
O15_3 C18_3 1_555 1_555
O16_3 C24_3 1_555 1_555
O29_2 C24_3 1_555 1_555
C6_3 C7_3 1_555 1_555
C9_3 O5_3 1_555 1_555
C18_3 C19_3 1_555 1_555
C21_3 O15_3 1_555 1_555
C22_3 C23_3 1_555 1_555
C9_4 C10_4 1_555 1_555
C10_4 H4_4 1_555 1_555
C11_4 C10_4 1_555 1_555
C12_4 C11_4 1_555 1_555
Cd9 O6_4 1_555 1_555
O6_4 C12_4 1_555 1_555
O29_3 C12_4 1_555 1_555
O8_4 Cd9 1_555 1_555
H5_4 O8_4 1_555 1_555
H6_4 O8_4 1_555 1_555
O9_4 Cd9 1_555 1_555
H7_4 O9_4 1_555 1_555
H8_4 O9_4 1_555 1_555
O26_2 Cd9 1_555 1_555
C9_4 O5_4 1_555 1_555
O22 C13_4 1_555 1_555
C5_4 C4_4 1_555 1_555
H2_4 C5_4 1_555 1_555
C6_4 C5_4 1_555 1_555
C8_4 C4_4 1_555 1_555
O25_3 C8_4 1_555 1_555
O26_2 C8_4 1_555 1_555
C14_4 C15_4 1_555 1_555
C19_4 C14_4 1_555 1_555
C22_4 C21_4 1_555 1_555
H14_4 C22_4 1_555 1_555
C24_4 C23_4 1_555 1_555
O16_4 C24_4 1_555 1_555
O29_4 C24_4 1_555 1_555
Cd10 O16_4 1_555 1_555
O18_4 Cd10 1_555 1_555
H15_4 O18_4 1_555 1_555
H16_4 O18_4 1_555 1_555
O19_4 Cd10 1_555 1_555
H17_4 O19_4 1_555 1_555
H18_4 O19_4 1_555 1_555
O27_2 Cd10 1_555 1_555
C21_4 O15_4 1_555 1_555
C22_4 C23_4 1_555 1_555
C1_4 C2_4 1_555 1_555
C2_4 C3_4 1_555 1_555
C3_4 H1_4 1_555 1_555
C7_4 C2_4 1_555 1_555
O21 C1_4 1_555 1_555
C17_4 C16_4 1_555 1_555
H12_4 C17_4 1_555 1_555
C18_4 C17_4 1_555 1_555
C20_4 C16_4 1_555 1_555
O25_4 C20_4 1_555 1_555
O27_2 C20_4 1_555 1_555

#END
