
###############################################################################
#
# This file contains modified crystal structure data generated from the
# MOF subset of the Cambridge Structural Database (CSD) v543 
# hosted by the Cambridge Crystallographic Data Centre (CCDC).
#
# This work is licensed under the Creative Commons
# Attribution-NonCommercial-ShareAlike 4.0 International License.
# To view a copy of this license, visit
# http://creativecommons.org/licenses/by-nc-sa/4.0/
# or send a letter to
# Creative Commons, PO Box 1866, Mountain View, CA 94042, USA.
#
# CIF created using the CSD Python API on 29 September 2022
# The structure has been converted into the P1 space group
# The structure has a 3D framework
# The original CSD entry NAQLAW is in the monoclinic crystal system
# The framework has been calculated to contain at least 10.0% void space
# The void calculation uses a probe of radius 1.32A, grid spacing 0.4
# H atom positions have been added when not included in the experimental data
#
###############################################################################

data_NAQLAW
_chemical_formula_moiety         '(C96 H52 O68 Zn10)n'
_symmetry_cell_setting           triclinic
_symmetry_space_group_name_H-M   'P 1'
_symmetry_Int_Tables_number      1
_space_group_name_Hall           'P 1'
loop_
_symmetry_equiv_pos_site_id
_symmetry_equiv_pos_as_xyz
1 x,y,z
_cell_length_a                   10.2364(5)
_cell_length_b                   13.3601(8)
_cell_length_c                   29.3596(18)
_cell_angle_alpha                90
_cell_angle_beta                 93.623(2)
_cell_angle_gamma                90
_cell_volume                     4007.17
loop_
_atom_site_label
_atom_site_type_symbol
_atom_site_fract_x
_atom_site_fract_y
_atom_site_fract_z
Zn1 Zn 0.08190(5) 0.73718(4) 0.61969(2)
Zn11 Zn 0.12512(6) 0.09306(4) 0.35171(2)
O18 O 0.0649(3) 0.8850(2) 0.62903(11)
O21 O 0.2281(3) 0.6457(3) 0.60737(13)
O23 O 0.0807(4) 0.7120(3) 0.68901(12)
O24 O 0.0850(4) 0.7780(3) 0.54102(14)
Zn8 Zn 0.11874(5) 0.97569(4) 0.58192(2)
O22 O 0.0115(4) 0.9228(3) 0.43796(12)
Zn2 Zn 0.88126(5) 0.02431(4) 0.41808(2)
Zn3 Zn 0.62512(6) 0.40694(4) 0.85171(2)
O1 O 0.9351(3) 0.1150(2) 0.37097(11)
H1 H 0.877018 0.099234 0.343233
O2 O 0.2588(3) 0.0615(3) 0.61011(11)
O3 O 0.5516(3) 0.4136(3) 0.54248(12)
O4 O 0.9201(3) 0.6571(3) 0.60240(13)
O5 O 0.8151(4) 0.0784(3) 0.47371(12)
O6 O 0.5900(4) 0.3395(3) 0.62938(12)
O8 O 0.9885(4) 0.0772(3) 0.56204(12)
O9 O 0.4193(4) 0.2120(3) 0.81099(12)
O10 O 0.9150(4) 0.2220(3) 0.45898(14)
O11 O 0.5872(6) 0.3123(4) 0.7980(2)
O12 O 0.2333(5) 0.0047(4) 0.68068(14)
O13 O 0.3311(4) 0.7887(4) 0.6148(2)
C1 C 0.7854(5) 0.2136(4) 0.52280(17)
C2 C 0.6423(4) 0.3378(3) 0.55184(16)
C3 C 0.6887(5) 0.6472(4) 0.59155(16)
C4 C 0.7920(5) 0.1678(3) 0.56598(17)
C5 C 0.5666(5) 0.5050(4) 0.56496(16)
O14 O 0.8150(6) 0.4269(4) 0.8326(2)
C6 C 0.7096(5) 0.3001(4) 0.51641(16)
H2 H 0.704385 0.332867 0.487632
C7 C 0.6856(4) 0.5508(4) 0.57325(16)
H3 H 0.764311 0.517605 0.566677
C8 C 0.6530(5) 0.2938(4) 0.59477(16)
C9 C 0.7274(5) 0.2080(4) 0.60143(16)
H4 H 0.733896 0.176699 0.630538
C10 C 0.5719(5) 0.6941(4) 0.60175(18)
H5 H 0.574146 0.760374 0.613556
C11 C 0.8435(5) 0.1693(4) 0.48228(17)
C12 C 0.4499(5) 0.5503(4) 0.57612(16)
H6 H 0.368904 0.516219 0.570899
C13 C 0.4536(5) 0.6455(4) 0.59488(17)
C14 C 0.3299(5) 0.6971(5) 0.60647(18)
C15 C 0.8145(5) 0.7048(4) 0.60015(18)
C16 C 0.5246(5) 0.2770(4) 0.65835(18)
C17 C 0.2805(5) 0.0627(4) 0.65324(19)
C18 C 0.4386(5) 0.2042(4) 0.64112(17)
H7 H 0.424453 0.195040 0.609101
C19 C 0.5457(5) 0.2928(4) 0.70463(17)
H8 H 0.606993 0.341637 0.715883
C20 C 0.8762(5) 0.0762(4) 0.57517(19)
C21 C 0.3730(5) 0.1445(4) 0.67134(18)
C22 C 0.4755(5) 0.2357(5) 0.73488(18)
C23 C 0.4938(5) 0.2544(5) 0.78543(18)
C24 C 0.3900(5) 0.1618(5) 0.71816(19)
H9 H 0.342982 0.122899 0.738699
O15 O 0.5655(6) 0.5326(4) 0.8136(2)
O16 O 0.8054(4) 0.7945(3) 0.60278(18)
O17 O 0.8249(5) 0.0071(4) 0.5946(2)
Zn5 Zn 0.41810(5) 0.23718(4) 0.88031(2)
Zn6 Zn 0.91810(5) 0.26282(4) 0.38031(2)
Zn10 Zn 0.87488(6) 0.90694(4) 0.64829(2)
O19 O 0.4351(3) 0.3850(2) 0.87097(11)
O25 O 0.6946(4) 0.2945(3) 0.89722(18)
O26 O 0.6751(5) 0.5071(4) 0.9054(2)
H10 H 0.812878 0.455399 0.801325
H11 H 0.862165 0.473477 0.854263
H12 H 0.472518 0.524644 0.802384
H13 H 0.574794 0.593249 0.833087
O20 O 0.7412(3) 0.9385(3) 0.38989(11)
O7 O 0.2719(3) 0.1457(3) 0.89263(13)
O13_2 O 0.1689(4) 0.2887(4) 0.8852(2)
C12_2 C 0.0501(5) 0.0503(4) 0.92388(16)
H6_2 H 0.131096 0.016219 0.929101
C13_2 C 0.0464(5) 0.1455(4) 0.90512(17)
C14_2 C 0.1701(5) 0.1971(5) 0.89353(18)
H12_2 H 0.0274824 0.0246441 0.697616
O2_2 O 0.2412(3) 0.5615(3) 0.88989(11)
O12_2 O 0.2667(5) 0.5047(4) 0.81932(14)
C17_2 C 0.2195(5) 0.5627(4) 0.84676(19)
C18_2 C 0.0614(5) 0.7042(4) 0.85888(17)
H7_2 H 0.075547 0.695040 0.890899
C21_2 C 0.1270(5) 0.6445(4) 0.82866(18)
C22_2 C 0.0245(5) 0.7357(5) 0.76512(18)
C23_2 C 0.0062(5) 0.7544(5) 0.71457(18)
C24_2 C 0.1100(5) 0.6618(5) 0.78184(19)
H9_2 H 0.157018 0.622899 0.761301
Zn7 Zn 0.38126(5) 0.47569(4) 0.91808(2)
O4_2 O 0.5799(3) 0.1571(3) 0.89760(13)
C3_2 C 0.8113(5) 0.1472(4) 0.90845(16)
C5_2 C 0.9334(5) 0.0050(4) 0.93504(16)
C7_2 C 0.8144(4) 0.0508(4) 0.92675(16)
H3_2 H 0.735689 0.017605 0.933323
C10_2 C 0.9281(5) 0.1941(4) 0.89825(18)
H5_2 H 0.925854 0.260374 0.886444
C15_2 C 0.6855(5) 0.2048(4) 0.89985(18)
O15_2 O 0.9345(6) 0.0326(4) 0.6864(2)
O24_2 O 0.4150(4) 0.2780(3) 0.95898(14)
H13_2 H 0.925206 0.0932485 0.666913
Zn2_2 Zn 0.61874(5) 0.52431(4) 0.08192(2)
O1_2 O 0.5649(3) 0.6150(2) 0.12903(11)
H1_2 H 0.622982 0.599234 0.156767
O5_2 O 0.6849(4) 0.5784(3) 0.02629(12)
O10_2 O 0.5850(4) 0.7220(3) 0.04102(14)
H2_2 H 0.795615 0.832867 0.012368
C11_2 C 0.6565(5) 0.6693(4) 0.01772(17)
Zn6_2 Zn 0.58190(5) 0.76282(4) 0.11969(2)
Zn11_2 Zn 0.37488(6) 0.59306(4) 0.14829(2)
O20_2 O 0.7588(3) 0.4385(3) 0.11011(11)
O22_2 O 0.4885(4) 0.4228(3) 0.06204(12)
O3_2 O 0.9484(3) 0.9136(3) 0.95752(12)
O6_2 O 0.9100(4) 0.8395(3) 0.87062(12)
O8_2 O 0.5115(4) 0.5772(3) 0.93796(12)
O11_2 O 0.9128(6) 0.8123(4) 0.7020(2)
C1_2 C 0.7146(5) 0.7136(4) 0.97720(17)
C2_2 C 0.8577(4) 0.8378(3) 0.94816(16)
C4_2 C 0.7080(5) 0.6678(3) 0.93402(17)
O14_2 O 0.6850(6) 0.9269(4) 0.6674(2)
C6_2 C 0.7904(5) 0.8001(4) 0.98359(16)
C8_2 C 0.8470(5) 0.7938(4) 0.90523(16)
C9_2 C 0.7726(5) 0.7080(4) 0.89857(16)
H4_2 H 0.766104 0.676699 0.869462
C16_2 C 0.9754(5) 0.7770(4) 0.84165(18)
C19_2 C 0.9543(5) 0.7928(4) 0.79537(17)
H8_2 H 0.893007 0.841637 0.784117
C20_2 C 0.6238(5) 0.5762(4) 0.92483(19)
H10_2 H 0.687122 0.955399 0.698675
H11_2 H 0.637835 0.973477 0.645737
H1_3 H 0.122982 0.900766 0.656767
O3_3 O 0.4484(3) 0.5864(3) 0.45752(12)
O4_3 O 0.0799(3) 0.3429(3) 0.39760(13)
O5_3 O 0.1849(4) 0.9216(3) 0.52629(12)
O6_3 O 0.4100(4) 0.6605(3) 0.37062(12)
O7_2 O 0.7719(3) 0.3543(3) 0.39263(13)
O9_2 O 0.5807(4) 0.7880(3) 0.18901(12)
O11_3 O 0.4128(6) 0.6877(4) 0.2020(2)
O12_3 O 0.7667(5) 0.9953(4) 0.31932(14)
O13_3 O 0.6689(4) 0.2113(4) 0.3852(2)
C1_3 C 0.2146(5) 0.7864(4) 0.47720(17)
C2_3 C 0.3577(4) 0.6622(3) 0.44816(16)
C3_3 C 0.3113(5) 0.3528(4) 0.40845(16)
C4_3 C 0.2080(5) 0.8322(3) 0.43402(17)
C5_3 C 0.4334(5) 0.4950(4) 0.43504(16)
O14_3 O 0.1850(6) 0.5731(4) 0.1674(2)
C6_3 C 0.2904(5) 0.6999(4) 0.48359(16)
H2_3 H 0.295615 0.667133 0.512368
C7_3 C 0.3144(4) 0.4492(4) 0.42675(16)
H3_3 H 0.235689 0.482395 0.433323
C8_3 C 0.3470(5) 0.7062(4) 0.40523(16)
C9_3 C 0.2726(5) 0.7920(4) 0.39857(16)
H4_3 H 0.266104 0.823301 0.369462
C10_3 C 0.4281(5) 0.3059(4) 0.39825(18)
H5_3 H 0.425854 0.239626 0.386444
C11_3 C 0.1565(5) 0.8307(4) 0.51772(17)
C12_3 C 0.5501(5) 0.4497(4) 0.42388(16)
H6_3 H 0.631096 0.483781 0.429101
C13_3 C 0.5464(5) 0.3545(4) 0.40512(17)
C14_3 C 0.6701(5) 0.3029(5) 0.39353(18)
C15_3 C 0.1855(5) 0.2952(4) 0.39985(18)
C16_3 C 0.4754(5) 0.7230(4) 0.34165(18)
C17_3 C 0.7195(5) 0.9373(4) 0.34676(19)
C18_3 C 0.5614(5) 0.7958(4) 0.35888(17)
H7_3 H 0.575547 0.804960 0.390899
C19_3 C 0.4543(5) 0.7072(4) 0.29537(17)
H8_3 H 0.393007 0.658363 0.284117
C20_3 C 0.1238(5) 0.9238(4) 0.42483(19)
C21_3 C 0.6270(5) 0.8555(4) 0.32866(18)
C22_3 C 0.5245(5) 0.7643(5) 0.26512(18)
C23_3 C 0.5062(5) 0.7456(5) 0.21457(18)
C24_3 C 0.6100(5) 0.8382(5) 0.28184(19)
H9_3 H 0.657018 0.877101 0.261301
O15_3 O 0.4345(6) 0.4674(4) 0.1864(2)
O16_2 O 0.1946(4) 0.2055(3) 0.39722(18)
O17_2 O 0.1751(5) 0.9929(4) 0.4054(2)
O25_2 O 0.3054(4) 0.7055(3) 0.10278(18)
O26_2 O 0.3249(5) 0.4929(4) 0.0946(2)
H10_3 H 0.187122 0.544601 0.198675
H11_3 H 0.137835 0.526523 0.145737
H12_3 H 0.527482 0.475356 0.197616
H13_3 H 0.425206 0.406751 0.166913
O23_2 O 0.9193(4) 0.2880(3) 0.31099(12)
O3_4 O 0.0516(3) 0.0864(3) 0.04248(12)
O6_4 O 0.0900(4) 0.1605(3) 0.12938(12)
O11_4 O 0.0872(6) 0.1877(4) 0.2980(2)
C1_4 C 0.2854(5) 0.2864(4) 0.02280(17)
C2_4 C 0.1423(4) 0.1622(3) 0.05184(16)
C4_4 C 0.2920(5) 0.3322(3) 0.06598(17)
O14_4 O 0.3150(6) 0.0731(4) 0.3326(2)
C6_4 C 0.2096(5) 0.1999(4) 0.01641(16)
C8_4 C 0.1530(5) 0.2062(4) 0.09477(16)
C9_4 C 0.2274(5) 0.2920(4) 0.10143(16)
H4_4 H 0.233896 0.323301 0.130538
C16_4 C 0.0246(5) 0.2230(4) 0.15835(18)
C19_4 C 0.0457(5) 0.2072(4) 0.20463(17)
H8_4 H 0.106993 0.158363 0.215883
C20_4 C 0.3762(5) 0.4238(4) 0.07517(19)
H10_4 H 0.312878 0.044601 0.301325
H11_4 H 0.362165 0.026523 0.354263
H1_4 H 0.377018 0.400766 0.843233
O5_4 O 0.3151(4) 0.4216(3) 0.97371(12)
H2_4 H 0.204385 0.167133 0.987632
C11_4 C 0.3435(5) 0.3307(4) 0.98228(17)
O4_4 O 0.4201(3) 0.8429(3) 0.10240(13)
C3_4 C 0.1887(5) 0.8528(4) 0.09155(16)
C5_4 C 0.0666(5) 0.9950(4) 0.06496(16)
C7_4 C 0.1856(4) 0.9492(4) 0.07325(16)
H3_4 H 0.264311 0.982395 0.066677
C10_4 C 0.0719(5) 0.8059(4) 0.10175(18)
H5_4 H 0.074146 0.739626 0.113556
C15_4 C 0.3145(5) 0.7952(4) 0.10015(18)
O15_4 O 0.0655(6) 0.9674(4) 0.3136(2)
O21_2 O 0.7281(3) 0.8543(3) 0.10737(13)
H13_4 H 0.0747941 0.906751 0.333087
O12_4 O 0.7333(5) 0.4953(4) 0.18068(14)
C17_4 C 0.7805(5) 0.4373(4) 0.15324(19)
C18_4 C 0.9386(5) 0.2958(4) 0.14112(17)
H7_4 H 0.924453 0.304960 0.109101
C21_4 C 0.8730(5) 0.3555(4) 0.17134(18)
C22_4 C 0.9755(5) 0.2643(5) 0.23488(18)
C23_4 C 0.9938(5) 0.2456(5) 0.28543(18)
C24_4 C 0.8900(5) 0.3382(5) 0.21816(19)
H9_4 H 0.842982 0.377101 0.238699
O13_4 O 0.8311(4) 0.7113(4) 0.1148(2)
C12_4 C 0.9499(5) 0.9497(4) 0.07612(16)
H6_4 H 0.868904 0.983781 0.070899
C13_4 C 0.9536(5) 0.8545(4) 0.09488(17)
C14_4 C 0.8299(5) 0.8029(5) 0.10647(18)
H12_4 H 0.972518 0.975356 0.302384
loop_
_geom_bond_atom_site_label_1
_geom_bond_atom_site_label_2
_geom_bond_site_symmetry_1
_geom_bond_site_symmetry_2
O18 Zn1 1_555 1_555
O21 Zn1 1_555 1_555
O23 Zn1 1_555 1_555
O24 Zn1 1_555 1_555
Zn2 O1 1_555 1_555
Zn3 O11 1_555 1_555
O1 H1 1_555 1_555
O2 C17 1_555 1_555
O3 C2 1_555 1_555
O4 C15 1_555 1_555
O5 Zn2 1_555 1_555
O6 C8 1_555 1_555
O21 C14 1_555 1_555
O8 C20 1_555 1_555
O9 C23 1_555 1_555
O10 C11 1_555 1_555
O11 C23 1_555 1_555
O12 C17 1_555 1_555
O13 C14 1_555 1_555
C1 C4 1_555 1_555
C2 C6 1_555 1_555
C3 C7 1_555 1_555
C4 C9 1_555 1_555
C5 O3 1_555 1_555
O14 Zn3 1_555 1_555
C6 C1 1_555 1_555
H2 C6 1_555 1_555
C7 C5 1_555 1_555
H3 C7 1_555 1_555
C8 C2 1_555 1_555
C9 C8 1_555 1_555
H4 C9 1_555 1_555
C10 C3 1_555 1_555
H5 C10 1_555 1_555
C11 O5 1_555 1_555
C12 C5 1_555 1_555
H6 C12 1_555 1_555
C13 C10 1_555 1_555
C14 C13 1_555 1_555
C15 C3 1_555 1_555
C16 O6 1_555 1_555
C17 C21 1_555 1_555
C18 C16 1_555 1_555
H7 C18 1_555 1_555
C19 C16 1_555 1_555
H8 C19 1_555 1_555
C20 C4 1_555 1_555
C21 C18 1_555 1_555
C22 C19 1_555 1_555
C23 C22 1_555 1_555
C24 C21 1_555 1_555
H9 C24 1_555 1_555
O15 Zn3 1_555 1_555
O16 C15 1_555 1_555
O17 C20 1_555 1_555
Zn5 O9 1_555 1_555
Zn6 O1 1_555 1_555
Zn10 O16 1_555 1_555
O19 Zn3 1_555 1_555
O25 Zn3 1_555 1_555
O26 Zn3 1_555 1_555
O10 Zn6 1_555 1_555
C1 C11 1_555 1_555
C12 C13 1_555 1_555
C22 C24 1_555 1_555
Zn5 O19 1_555 1_555
O14 H10 1_555 1_555
O14 H11 1_555 1_555
O15 H12 1_555 1_555
O15 H13 1_555 1_555
O7 C14_2 1_555 1_555
O13_2 C14_2 1_555 1_555
H6_2 C12_2 1_555 1_555
C14_2 C13_2 1_555 1_555
Zn5 O7 1_555 1_555
C12_2 C13_2 1_555 1_555
O2_2 C17_2 1_555 1_555
O23 C23_2 1_555 1_555
O12_2 C17_2 1_555 1_555
C17_2 C21_2 1_555 1_555
H7_2 C18_2 1_555 1_555
C21_2 C18_2 1_555 1_555
C23_2 C22_2 1_555 1_555
C24_2 C21_2 1_555 1_555
H9_2 C24_2 1_555 1_555
Zn7 O2_2 1_555 1_555
C22_2 C24_2 1_555 1_555
Zn5 O4_2 1_555 1_555
O4_2 C15_2 1_555 1_555
C3_2 C7_2 1_555 1_555
C7_2 C5_2 1_555 1_555
H3_2 C7_2 1_555 1_555
C10_2 C3_2 1_555 1_555
H5_2 C10_2 1_555 1_555
C15_2 C3_2 1_555 1_555
O25 C15_2 1_555 1_555
O24_2 Zn5 1_555 1_555
O15_2 H13_2 1_555 1_555
Zn2_2 O1_2 1_555 1_555
O1_2 H1_2 1_555 1_555
O5_2 Zn2_2 1_555 1_555
O10_2 C11_2 1_555 1_555
C11_2 O5_2 1_555 1_555
Zn6_2 O1_2 1_555 1_555
Zn11_2 O1_2 1_555 1_555
O20_2 Zn2_2 1_555 1_555
O22_2 Zn2_2 1_555 1_555
O10_2 Zn6_2 1_555 1_555
Zn10 O11_2 1_555 1_555
O3_2 C2_2 1_555 1_555
O6_2 C8_2 1_555 1_555
O8_2 C20_2 1_555 1_555
C1_2 C4_2 1_555 1_555
C2_2 C6_2 1_555 1_555
C4_2 C9_2 1_555 1_555
O14_2 Zn10 1_555 1_555
C6_2 C1_2 1_555 1_555
C8_2 C2_2 1_555 1_555
C9_2 C8_2 1_555 1_555
H4_2 C9_2 1_555 1_555
C16_2 O6_2 1_555 1_555
C19_2 C16_2 1_555 1_555
H8_2 C19_2 1_555 1_555
C20_2 C4_2 1_555 1_555
O26 C20_2 1_555 1_555
Zn7 O8_2 1_555 1_555
O14_2 H10_2 1_555 1_555
O14_2 H11_2 1_555 1_555
Zn8 O18 1_555 1_555
Zn11_2 O11_3 1_555 1_555
O18 H1_3 1_555 1_555
O20 C17_3 1_555 1_555
O3_3 C2_3 1_555 1_555
O4_3 C15_3 1_555 1_555
O5_3 Zn8 1_555 1_555
O6_3 C8_3 1_555 1_555
O7_2 C14_3 1_555 1_555
O22 C20_3 1_555 1_555
O9_2 C23_3 1_555 1_555
O24 C11_3 1_555 1_555
O11_3 C23_3 1_555 1_555
O12_3 C17_3 1_555 1_555
O13_3 C14_3 1_555 1_555
C1_3 C4_3 1_555 1_555
C2_3 C6_3 1_555 1_555
C3_3 C7_3 1_555 1_555
C4_3 C9_3 1_555 1_555
C5_3 O3_3 1_555 1_555
O14_3 Zn11_2 1_555 1_555
C6_3 C1_3 1_555 1_555
H2_3 C6_3 1_555 1_555
C7_3 C5_3 1_555 1_555
H3_3 C7_3 1_555 1_555
C8_3 C2_3 1_555 1_555
C9_3 C8_3 1_555 1_555
H4_3 C9_3 1_555 1_555
C10_3 C3_3 1_555 1_555
H5_3 C10_3 1_555 1_555
C11_3 O5_3 1_555 1_555
C12_3 C5_3 1_555 1_555
H6_3 C12_3 1_555 1_555
C13_3 C10_3 1_555 1_555
C14_3 C13_3 1_555 1_555
C15_3 C3_3 1_555 1_555
C16_3 O6_3 1_555 1_555
C17_3 C21_3 1_555 1_555
C18_3 C16_3 1_555 1_555
H7_3 C18_3 1_555 1_555
C19_3 C16_3 1_555 1_555
H8_3 C19_3 1_555 1_555
C20_3 C4_3 1_555 1_555
C21_3 C18_3 1_555 1_555
C22_3 C19_3 1_555 1_555
C23_3 C22_3 1_555 1_555
C24_3 C21_3 1_555 1_555
H9_3 C24_3 1_555 1_555
O15_3 Zn11_2 1_555 1_555
O16_2 C15_3 1_555 1_555
O17_2 C20_3 1_555 1_555
Zn6 O7_2 1_555 1_555
Zn6_2 O9_2 1_555 1_555
Zn11 O16_2 1_555 1_555
O25_2 Zn11_2 1_555 1_555
O26_2 Zn11_2 1_555 1_555
C1_3 C11_3 1_555 1_555
C12_3 C13_3 1_555 1_555
C22_3 C24_3 1_555 1_555
O14_3 H10_3 1_555 1_555
O14_3 H11_3 1_555 1_555
O15_3 H12_3 1_555 1_555
O15_3 H13_3 1_555 1_555
O23_2 Zn6 1_555 1_555
Zn11 O11_4 1_555 1_555
O3_4 C2_4 1_555 1_555
O6_4 C8_4 1_555 1_555
O22_2 C20_4 1_555 1_555
C1_4 C4_4 1_555 1_555
C2_4 C6_4 1_555 1_555
C4_4 C9_4 1_555 1_555
O14_4 Zn11 1_555 1_555
C6_4 C1_4 1_555 1_555
C8_4 C2_4 1_555 1_555
C9_4 C8_4 1_555 1_555
H4_4 C9_4 1_555 1_555
C16_4 O6_4 1_555 1_555
C19_4 C16_4 1_555 1_555
H8_4 C19_4 1_555 1_555
C20_4 C4_4 1_555 1_555
O26_2 C20_4 1_555 1_555
O14_4 H10_4 1_555 1_555
O14_4 H11_4 1_555 1_555
Zn7 O19 1_555 1_555
O19 H1_4 1_555 1_555
O5_4 Zn7 1_555 1_555
O24_2 C11_4 1_555 1_555
C11_4 O5_4 1_555 1_555
Zn6_2 O4_4 1_555 1_555
O4_4 C15_4 1_555 1_555
C3_4 C7_4 1_555 1_555
C7_4 C5_4 1_555 1_555
H3_4 C7_4 1_555 1_555
C10_4 C3_4 1_555 1_555
H5_4 C10_4 1_555 1_555
C15_4 C3_4 1_555 1_555
O25_2 C15_4 1_555 1_555
O21_2 Zn6_2 1_555 1_555
O15_4 H13_4 1_555 1_555
O20_2 C17_4 1_555 1_555
O23_2 C23_4 1_555 1_555
O12_4 C17_4 1_555 1_555
C17_4 C21_4 1_555 1_555
H7_4 C18_4 1_555 1_555
C21_4 C18_4 1_555 1_555
C23_4 C22_4 1_555 1_555
C24_4 C21_4 1_555 1_555
H9_4 C24_4 1_555 1_555
C22_4 C24_4 1_555 1_555
O21_2 C14_4 1_555 1_555
O13_4 C14_4 1_555 1_555
H6_4 C12_4 1_555 1_555
C14_4 C13_4 1_555 1_555
C12_4 C13_4 1_555 1_555

#END
