
###############################################################################
#
# This file contains modified crystal structure data generated from the
# MOF subset of the Cambridge Structural Database (CSD) v543 
# hosted by the Cambridge Crystallographic Data Centre (CCDC).
#
# This work is licensed under the Creative Commons
# Attribution-NonCommercial-ShareAlike 4.0 International License.
# To view a copy of this license, visit
# http://creativecommons.org/licenses/by-nc-sa/4.0/
# or send a letter to
# Creative Commons, PO Box 1866, Mountain View, CA 94042, USA.
#
# CIF created using the CSD Python API on 29 September 2022
# The structure has been converted into the P1 space group
# The structure has a 3D framework
# The original CSD entry NARQIK is in the cubic crystal system
# The framework has been calculated to contain at least 10.0% void space
# The void calculation uses a probe of radius 1.32A, grid spacing 0.4
# The framework is charged, counterions have been retained in the structure
#
###############################################################################

data_NARQIK
_chemical_formula_moiety         '(C120 H96 Ag8 N24 Sb8 8+)n'
_symmetry_cell_setting           triclinic
_symmetry_space_group_name_H-M   'P 1'
_symmetry_Int_Tables_number      1
_space_group_name_Hall           'P 1'
loop_
_symmetry_equiv_pos_site_id
_symmetry_equiv_pos_as_xyz
1 x,y,z
_cell_length_a                   15.72180(15)
_cell_length_b                   15.72180(15)
_cell_length_c                   15.72180(15)
_cell_angle_alpha                90
_cell_angle_beta                 90
_cell_angle_gamma                90
_cell_volume                     3886.04
loop_
_atom_site_label
_atom_site_type_symbol
_atom_site_fract_x
_atom_site_fract_y
_atom_site_fract_z
Sb1 Sb 0.28658(3) 0.71342(3) 0.71342(3)
Ag1 Ag 0.18709(5) 0.81291(5) 0.81291(5)
N1 N 0.0573(5) 0.7496(5) 0.8401(5)
C1 C 0.0621(8) 0.6737(7) 0.8750(10)
H1 H 0.114596 0.652473 0.892260
N2 N 0.1599(5) 0.9427(5) 0.7496(5)
N3 N 0.2504(5) 0.8401(5) 0.9427(5)
N5 N 0.8401(5) 0.0573(5) 0.7496(5)
C15 C 0.8750(10) 0.0621(8) 0.6737(7)
Ag4 Ag 0.81291(5) 0.18709(5) 0.81291(5)
H12 H 0.892260 0.114596 0.652473
N4 N 0.7496(5) 0.8401(5) 0.0573(5)
C14 C 0.6737(7) 0.8750(10) 0.0621(8)
Ag3 Ag 0.81291(5) 0.81291(5) 0.18709(5)
H11 H 0.652473 0.892260 0.114596
C2 C 0.9817(6) 0.7805(6) 0.8189(6)
C3 C 0.9924(8) 0.6272(9) 0.8857(12)
C4 C 0.9059(5) 0.7367(5) 0.8236(6)
H2 H 0.979722 0.836184 0.799133
C5 C 0.9126(8) 0.6564(9) 0.8527(12)
H3 H 0.995359 0.575651 0.914582
H4 H 0.865872 0.620210 0.851302
Sb2 Sb 0.78658(3) 0.78658(3) 0.78658(3)
C6 C 0.7367(5) 0.8236(6) 0.9059(5)
Ag2 Ag 0.68709(5) 0.68709(5) 0.68709(5)
C7 C 0.8236(6) 0.9059(5) 0.7367(5)
C8 C 0.6564(9) 0.8527(12) 0.9126(8)
C9 C 0.7805(6) 0.8189(6) 0.9817(6)
C10 C 0.8527(12) 0.9126(8) 0.6564(9)
C11 C 0.8189(6) 0.9817(6) 0.7805(6)
C12 C 0.6272(9) 0.8857(12) 0.9924(8)
H5 H 0.620210 0.851302 0.865872
H6 H 0.836184 0.799133 0.979722
C13 C 0.8857(12) 0.9924(8) 0.6272(9)
H7 H 0.851302 0.865872 0.620210
H8 H 0.799133 0.979722 0.836184
H9 H 0.575651 0.914582 0.995359
H10 H 0.914582 0.995359 0.575651
N4_2 N 0.2504(5) 0.1599(5) 0.0573(5)
C14_2 C 0.3263(7) 0.1250(10) 0.0621(8)
Ag3_2 Ag 0.18709(5) 0.18709(5) 0.18709(5)
H11_2 H 0.347527 0.107740 0.114596
C2_2 C 0.0183(6) 0.2195(6) 0.8189(6)
C3_2 C 0.0076(8) 0.3728(9) 0.8857(12)
C4_2 C 0.0941(5) 0.2633(5) 0.8236(6)
H2_2 H 0.020278 0.163816 0.799133
C5_2 C 0.0874(8) 0.3436(9) 0.8527(12)
H3_2 H 0.004641 0.424349 0.914582
H4_2 H 0.134128 0.379790 0.851302
Sb2_2 Sb 0.21342(3) 0.21342(3) 0.78658(3)
C6_2 C 0.2633(5) 0.1764(6) 0.9059(5)
Ag2_2 Ag 0.31291(5) 0.31291(5) 0.68709(5)
C7_2 C 0.1764(6) 0.0941(5) 0.7367(5)
C8_2 C 0.3436(9) 0.1473(12) 0.9126(8)
C9_2 C 0.2195(6) 0.1811(6) 0.9817(6)
C10_2 C 0.1473(12) 0.0874(8) 0.6564(9)
C11_2 C 0.1811(6) 0.0183(6) 0.7805(6)
C12_2 C 0.3728(9) 0.1143(12) 0.9924(8)
H5_2 H 0.379790 0.148698 0.865872
H6_2 H 0.163816 0.200867 0.979722
C13_2 C 0.1143(12) 0.0076(8) 0.6272(9)
H7_2 H 0.148698 0.134128 0.620210
H8_2 H 0.200867 0.020278 0.836184
H9_2 H 0.424349 0.085418 0.995359
H10_2 H 0.085418 0.004641 0.575651
C15_2 C 0.1250(10) 0.9379(8) 0.6737(7)
H12_2 H 0.107740 0.885404 0.652473
Sb1_2 Sb 0.71342(3) 0.28658(3) 0.71342(3)
N1_2 N 0.9427(5) 0.2504(5) 0.8401(5)
C1_2 C 0.9379(8) 0.3263(7) 0.8750(10)
H1_2 H 0.885404 0.347527 0.892260
N3_2 N 0.7496(5) 0.1599(5) 0.9427(5)
N5_2 N 0.1599(5) 0.0573(5) 0.2504(5)
C15_3 C 0.1250(10) 0.0621(8) 0.3263(7)
H12_3 H 0.107740 0.114596 0.347527
C2_3 C 0.0183(6) 0.7805(6) 0.1811(6)
C3_3 C 0.0076(8) 0.6272(9) 0.1143(12)
C4_3 C 0.0941(5) 0.7367(5) 0.1764(6)
H2_3 H 0.020278 0.836184 0.200867
C5_3 C 0.0874(8) 0.6564(9) 0.1473(12)
H3_3 H 0.004641 0.575651 0.085418
H4_3 H 0.134128 0.620210 0.148698
Sb2_3 Sb 0.21342(3) 0.78658(3) 0.21342(3)
C6_3 C 0.2633(5) 0.8236(6) 0.0941(5)
Ag2_3 Ag 0.31291(5) 0.68709(5) 0.31291(5)
C7_3 C 0.1764(6) 0.9059(5) 0.2633(5)
C8_3 C 0.3436(9) 0.8527(12) 0.0874(8)
C9_3 C 0.2195(6) 0.8189(6) 0.0183(6)
C10_3 C 0.1473(12) 0.9126(8) 0.3436(9)
C11_3 C 0.1811(6) 0.9817(6) 0.2195(6)
C12_3 C 0.3728(9) 0.8857(12) 0.0076(8)
H5_3 H 0.379790 0.851302 0.134128
H6_3 H 0.163816 0.799133 0.020278
C13_3 C 0.1143(12) 0.9924(8) 0.3728(9)
H7_3 H 0.148698 0.865872 0.379790
H8_3 H 0.200867 0.979722 0.163816
H9_3 H 0.424349 0.914582 0.004641
H10_3 H 0.085418 0.995359 0.424349
C14_3 C 0.3263(7) 0.8750(10) 0.9379(8)
H11_3 H 0.347527 0.892260 0.885404
Sb1_3 Sb 0.71342(3) 0.71342(3) 0.28658(3)
N1_3 N 0.9427(5) 0.7496(5) 0.1599(5)
C1_3 C 0.9379(8) 0.6737(7) 0.1250(10)
H1_3 H 0.885404 0.652473 0.107740
N2_2 N 0.8401(5) 0.9427(5) 0.2504(5)
Sb1_4 Sb 0.28658(3) 0.28658(3) 0.28658(3)
N1_4 N 0.0573(5) 0.2504(5) 0.1599(5)
C1_4 C 0.0621(8) 0.3263(7) 0.1250(10)
H1_4 H 0.114596 0.347527 0.107740
C2_4 C 0.9817(6) 0.2195(6) 0.1811(6)
C3_4 C 0.9924(8) 0.3728(9) 0.1143(12)
C4_4 C 0.9059(5) 0.2633(5) 0.1764(6)
H2_4 H 0.979722 0.163816 0.200867
C5_4 C 0.9126(8) 0.3436(9) 0.1473(12)
H3_4 H 0.995359 0.424349 0.085418
H4_4 H 0.865872 0.379790 0.148698
Sb2_4 Sb 0.78658(3) 0.21342(3) 0.21342(3)
C6_4 C 0.7367(5) 0.1764(6) 0.0941(5)
Ag2_4 Ag 0.68709(5) 0.31291(5) 0.31291(5)
C7_4 C 0.8236(6) 0.0941(5) 0.2633(5)
C8_4 C 0.6564(9) 0.1473(12) 0.0874(8)
C9_4 C 0.7805(6) 0.1811(6) 0.0183(6)
C10_4 C 0.8527(12) 0.0874(8) 0.3436(9)
C11_4 C 0.8189(6) 0.0183(6) 0.2195(6)
C12_4 C 0.6272(9) 0.1143(12) 0.0076(8)
H5_4 H 0.620210 0.148698 0.134128
H6_4 H 0.836184 0.200867 0.020278
C13_4 C 0.8857(12) 0.0076(8) 0.3728(9)
H7_4 H 0.851302 0.134128 0.379790
H8_4 H 0.799133 0.020278 0.163816
H9_4 H 0.575651 0.085418 0.004641
H10_4 H 0.914582 0.004641 0.424349
C14_4 C 0.6737(7) 0.1250(10) 0.9379(8)
H11_4 H 0.652473 0.107740 0.885404
C15_4 C 0.8750(10) 0.9379(8) 0.3263(7)
H12_4 H 0.892260 0.885404 0.347527
N1_5 N 0.2496(5) 0.5573(5) 0.3401(5)
C1_5 C 0.1737(7) 0.5621(8) 0.3750(10)
C2_5 C 0.2805(6) 0.4817(6) 0.3189(6)
C3_5 C 0.1272(9) 0.4924(8) 0.3857(12)
H1_5 H 0.152473 0.614596 0.392260
C4_5 C 0.2367(5) 0.4059(5) 0.3236(6)
H2_5 H 0.336184 0.479722 0.299133
C5_5 C 0.1564(9) 0.4126(8) 0.3527(12)
H3_5 H 0.075651 0.495359 0.414582
H4_5 H 0.120210 0.365872 0.351302
N2_3 N 0.4427(5) 0.6599(5) 0.2496(5)
N3_3 N 0.3401(5) 0.7504(5) 0.4427(5)
C6_5 C 0.3236(6) 0.2367(5) 0.4059(5)
C7_5 C 0.4059(5) 0.3236(6) 0.2367(5)
C8_5 C 0.3527(12) 0.1564(9) 0.4126(8)
C9_5 C 0.3189(6) 0.2805(6) 0.4817(6)
C10_5 C 0.4126(8) 0.3527(12) 0.1564(9)
C11_5 C 0.4817(6) 0.3189(6) 0.2805(6)
C12_5 C 0.3857(12) 0.1272(9) 0.4924(8)
H5_5 H 0.351302 0.120210 0.365872
N4_3 N 0.3401(5) 0.2496(5) 0.5573(5)
H6_5 H 0.299133 0.336184 0.479722
C13_5 C 0.4924(8) 0.3857(12) 0.1272(9)
H7_5 H 0.365872 0.351302 0.120210
N5_3 N 0.5573(5) 0.3401(5) 0.2496(5)
H8_5 H 0.479722 0.299133 0.336184
H9_5 H 0.414582 0.075651 0.495359
C14_5 C 0.3750(10) 0.1737(7) 0.5621(8)
C15_5 C 0.5621(8) 0.3750(10) 0.1737(7)
H10_5 H 0.495359 0.414582 0.075651
H11_5 H 0.392260 0.152473 0.614596
H12_5 H 0.614596 0.392260 0.152473
N1_6 N 0.7504(5) 0.4427(5) 0.3401(5)
C1_6 C 0.8263(7) 0.4379(8) 0.3750(10)
C2_6 C 0.7195(6) 0.5183(6) 0.3189(6)
C3_6 C 0.8728(9) 0.5076(8) 0.3857(12)
H1_6 H 0.847527 0.385404 0.392260
C4_6 C 0.7633(5) 0.5941(5) 0.3236(6)
H2_6 H 0.663816 0.520278 0.299133
C5_6 C 0.8436(9) 0.5874(8) 0.3527(12)
H3_6 H 0.924349 0.504641 0.414582
H4_6 H 0.879790 0.634128 0.351302
N3_4 N 0.6599(5) 0.2496(5) 0.4427(5)
C6_6 C 0.6764(6) 0.7633(5) 0.4059(5)
C7_6 C 0.5941(5) 0.6764(6) 0.2367(5)
C8_6 C 0.6473(12) 0.8436(9) 0.4126(8)
C9_6 C 0.6811(6) 0.7195(6) 0.4817(6)
C10_6 C 0.5874(8) 0.6473(12) 0.1564(9)
C11_6 C 0.5183(6) 0.6811(6) 0.2805(6)
C12_6 C 0.6143(12) 0.8728(9) 0.4924(8)
H5_6 H 0.648698 0.879790 0.365872
N4_4 N 0.6599(5) 0.7504(5) 0.5573(5)
H6_6 H 0.700867 0.663816 0.479722
C13_6 C 0.5076(8) 0.6143(12) 0.1272(9)
H7_6 H 0.634128 0.648698 0.120210
H8_6 H 0.520278 0.700867 0.336184
H9_6 H 0.585418 0.924349 0.495359
C14_6 C 0.6250(10) 0.8263(7) 0.5621(8)
C15_6 C 0.4379(8) 0.6250(10) 0.1737(7)
H10_6 H 0.504641 0.585418 0.075651
H11_6 H 0.607740 0.847527 0.614596
H12_6 H 0.385404 0.607740 0.152473
N1_7 N 0.2496(5) 0.4427(5) 0.6599(5)
C1_7 C 0.1737(7) 0.4379(8) 0.6250(10)
C2_7 C 0.2805(6) 0.5183(6) 0.6811(6)
C3_7 C 0.1272(9) 0.5076(8) 0.6143(12)
H1_7 H 0.152473 0.385404 0.607740
C4_7 C 0.2367(5) 0.5941(5) 0.6764(6)
H2_7 H 0.336184 0.520278 0.700867
C5_7 C 0.1564(9) 0.5874(8) 0.6473(12)
H3_7 H 0.075651 0.504641 0.585418
H4_7 H 0.120210 0.634128 0.648698
N2_4 N 0.4427(5) 0.3401(5) 0.7504(5)
C6_7 C 0.3236(6) 0.7633(5) 0.5941(5)
C7_7 C 0.4059(5) 0.6764(6) 0.7633(5)
C8_7 C 0.3527(12) 0.8436(9) 0.5874(8)
C9_7 C 0.3189(6) 0.7195(6) 0.5183(6)
C10_7 C 0.4126(8) 0.6473(12) 0.8436(9)
C11_7 C 0.4817(6) 0.6811(6) 0.7195(6)
C12_7 C 0.3857(12) 0.8728(9) 0.5076(8)
H5_7 H 0.351302 0.879790 0.634128
H6_7 H 0.299133 0.663816 0.520278
C13_7 C 0.4924(8) 0.6143(12) 0.8728(9)
H7_7 H 0.365872 0.648698 0.879790
N5_4 N 0.5573(5) 0.6599(5) 0.7504(5)
H8_7 H 0.479722 0.700867 0.663816
H9_7 H 0.414582 0.924349 0.504641
C14_7 C 0.3750(10) 0.8263(7) 0.4379(8)
C15_7 C 0.5621(8) 0.6250(10) 0.8263(7)
H10_7 H 0.495359 0.585418 0.924349
H11_7 H 0.392260 0.847527 0.385404
H12_7 H 0.614596 0.607740 0.847527
N1_8 N 0.7504(5) 0.5573(5) 0.6599(5)
C1_8 C 0.8263(7) 0.5621(8) 0.6250(10)
C2_8 C 0.7195(6) 0.4817(6) 0.6811(6)
C3_8 C 0.8728(9) 0.4924(8) 0.6143(12)
H1_8 H 0.847527 0.614596 0.607740
C4_8 C 0.7633(5) 0.4059(5) 0.6764(6)
H2_8 H 0.663816 0.479722 0.700867
C5_8 C 0.8436(9) 0.4126(8) 0.6473(12)
H3_8 H 0.924349 0.495359 0.585418
H4_8 H 0.879790 0.365872 0.648698
C6_8 C 0.6764(6) 0.2367(5) 0.5941(5)
C7_8 C 0.5941(5) 0.3236(6) 0.7633(5)
C8_8 C 0.6473(12) 0.1564(9) 0.5874(8)
C9_8 C 0.6811(6) 0.2805(6) 0.5183(6)
C10_8 C 0.5874(8) 0.3527(12) 0.8436(9)
C11_8 C 0.5183(6) 0.3189(6) 0.7195(6)
C12_8 C 0.6143(12) 0.1272(9) 0.5076(8)
H5_8 H 0.648698 0.120210 0.634128
H6_8 H 0.700867 0.336184 0.520278
C13_8 C 0.5076(8) 0.3857(12) 0.8728(9)
H7_8 H 0.634128 0.351302 0.879790
H8_8 H 0.520278 0.299133 0.663816
H9_8 H 0.585418 0.075651 0.504641
C14_8 C 0.6250(10) 0.1737(7) 0.4379(8)
C15_8 C 0.4379(8) 0.3750(10) 0.8263(7)
H10_8 H 0.504641 0.414582 0.924349
H11_8 H 0.607740 0.152473 0.385404
H12_8 H 0.385404 0.392260 0.847527
loop_
_geom_bond_atom_site_label_1
_geom_bond_atom_site_label_2
_geom_bond_site_symmetry_1
_geom_bond_site_symmetry_2
Sb1 Ag1 1_555 1_555
Ag1 N1 1_555 1_555
N1 C1 1_555 1_555
H1 C1 1_555 1_555
N2 Ag1 1_555 1_555
N3 Ag1 1_555 1_555
Ag4 N5 1_555 1_555
H12 C15 1_555 1_555
N5 C15 1_555 1_555
Ag3 N4 1_555 1_555
H11 C14 1_555 1_555
N4 C14 1_555 1_555
C3 C5 1_555 1_555
C4 C2 1_555 1_555
H2 C2 1_555 1_555
C5 C4 1_555 1_555
H3 C3 1_555 1_555
H4 C5 1_555 1_555
Sb2 C4 1_555 1_555
C6 Sb2 1_555 1_555
Ag2 Sb2 1_555 1_555
C7 Sb2 1_555 1_555
C8 C6 1_555 1_555
C9 C6 1_555 1_555
C10 C7 1_555 1_555
C11 C7 1_555 1_555
C12 C8 1_555 1_555
H5 C8 1_555 1_555
H6 C9 1_555 1_555
C13 C10 1_555 1_555
H7 C10 1_555 1_555
H8 C11 1_555 1_555
H9 C12 1_555 1_555
H10 C13 1_555 1_555
Ag3_2 N4_2 1_555 1_555
H11_2 C14_2 1_555 1_555
N4_2 C14_2 1_555 1_555
C3_2 C5_2 1_555 1_555
C4_2 C2_2 1_555 1_555
H2_2 C2_2 1_555 1_555
C5_2 C4_2 1_555 1_555
H3_2 C3_2 1_555 1_555
H4_2 C5_2 1_555 1_555
Sb2_2 C4_2 1_555 1_555
C6_2 Sb2_2 1_555 1_555
Ag2_2 Sb2_2 1_555 1_555
C7_2 Sb2_2 1_555 1_555
C8_2 C6_2 1_555 1_555
C9_2 C6_2 1_555 1_555
C10_2 C7_2 1_555 1_555
C11_2 C7_2 1_555 1_555
C12_2 C8_2 1_555 1_555
H5_2 C8_2 1_555 1_555
H6_2 C9_2 1_555 1_555
C13_2 C10_2 1_555 1_555
H7_2 C10_2 1_555 1_555
H8_2 C11_2 1_555 1_555
H9_2 C12_2 1_555 1_555
H10_2 C13_2 1_555 1_555
H12_2 C15_2 1_555 1_555
N2 C15_2 1_555 1_555
Sb1_2 Ag4 1_555 1_555
Ag4 N1_2 1_555 1_555
N1_2 C1_2 1_555 1_555
H1_2 C1_2 1_555 1_555
N3_2 Ag4 1_555 1_555
Ag3_2 N5_2 1_555 1_555
H12_3 C15_3 1_555 1_555
N5_2 C15_3 1_555 1_555
C3_3 C5_3 1_555 1_555
C4_3 C2_3 1_555 1_555
H2_3 C2_3 1_555 1_555
C5_3 C4_3 1_555 1_555
H3_3 C3_3 1_555 1_555
H4_3 C5_3 1_555 1_555
Sb2_3 C4_3 1_555 1_555
C6_3 Sb2_3 1_555 1_555
Ag2_3 Sb2_3 1_555 1_555
C7_3 Sb2_3 1_555 1_555
C8_3 C6_3 1_555 1_555
C9_3 C6_3 1_555 1_555
C10_3 C7_3 1_555 1_555
C11_3 C7_3 1_555 1_555
C12_3 C8_3 1_555 1_555
H5_3 C8_3 1_555 1_555
H6_3 C9_3 1_555 1_555
C13_3 C10_3 1_555 1_555
H7_3 C10_3 1_555 1_555
H8_3 C11_3 1_555 1_555
H9_3 C12_3 1_555 1_555
H10_3 C13_3 1_555 1_555
H11_3 C14_3 1_555 1_555
N3 C14_3 1_555 1_555
Sb1_3 Ag3 1_555 1_555
Ag3 N1_3 1_555 1_555
N1_3 C1_3 1_555 1_555
H1_3 C1_3 1_555 1_555
N2_2 Ag3 1_555 1_555
Sb1_4 Ag3_2 1_555 1_555
Ag3_2 N1_4 1_555 1_555
N1_4 C1_4 1_555 1_555
H1_4 C1_4 1_555 1_555
C3_4 C5_4 1_555 1_555
C4_4 C2_4 1_555 1_555
H2_4 C2_4 1_555 1_555
C5_4 C4_4 1_555 1_555
H3_4 C3_4 1_555 1_555
H4_4 C5_4 1_555 1_555
Sb2_4 C4_4 1_555 1_555
C6_4 Sb2_4 1_555 1_555
Ag2_4 Sb2_4 1_555 1_555
C7_4 Sb2_4 1_555 1_555
C8_4 C6_4 1_555 1_555
C9_4 C6_4 1_555 1_555
C10_4 C7_4 1_555 1_555
C11_4 C7_4 1_555 1_555
C12_4 C8_4 1_555 1_555
H5_4 C8_4 1_555 1_555
H6_4 C9_4 1_555 1_555
C13_4 C10_4 1_555 1_555
H7_4 C10_4 1_555 1_555
H8_4 C11_4 1_555 1_555
H9_4 C12_4 1_555 1_555
H10_4 C13_4 1_555 1_555
H11_4 C14_4 1_555 1_555
N3_2 C14_4 1_555 1_555
H12_4 C15_4 1_555 1_555
N2_2 C15_4 1_555 1_555
Ag2_3 N1_5 1_555 1_555
N1_5 C1_5 1_555 1_555
C1_5 C3_5 1_555 1_555
C2_5 N1_5 1_555 1_555
C3_5 C5_5 1_555 1_555
H1_5 C1_5 1_555 1_555
C4_5 C2_5 1_555 1_555
H2_5 C2_5 1_555 1_555
C5_5 C4_5 1_555 1_555
H3_5 C3_5 1_555 1_555
H4_5 C5_5 1_555 1_555
N2_3 Ag2_3 1_555 1_555
N3_3 Ag2_3 1_555 1_555
Sb1_4 C4_5 1_555 1_555
C6_5 Sb1_4 1_555 1_555
C7_5 Sb1_4 1_555 1_555
C8_5 C6_5 1_555 1_555
C9_5 C6_5 1_555 1_555
C10_5 C7_5 1_555 1_555
C11_5 C7_5 1_555 1_555
C12_5 C8_5 1_555 1_555
H5_5 C8_5 1_555 1_555
N4_3 C9_5 1_555 1_555
H6_5 C9_5 1_555 1_555
C13_5 C10_5 1_555 1_555
H7_5 C10_5 1_555 1_555
N5_3 C11_5 1_555 1_555
H8_5 C11_5 1_555 1_555
H9_5 C12_5 1_555 1_555
C14_5 C12_5 1_555 1_555
Ag2_2 N4_3 1_555 1_555
C15_5 C13_5 1_555 1_555
H10_5 C13_5 1_555 1_555
Ag2_4 N5_3 1_555 1_555
H11_5 C14_5 1_555 1_555
H12_5 C15_5 1_555 1_555
N4_3 C14_5 1_555 1_555
N5_3 C15_5 1_555 1_555
Ag2_4 N1_6 1_555 1_555
N1_6 C1_6 1_555 1_555
C1_6 C3_6 1_555 1_555
C2_6 N1_6 1_555 1_555
C3_6 C5_6 1_555 1_555
H1_6 C1_6 1_555 1_555
C4_6 C2_6 1_555 1_555
H2_6 C2_6 1_555 1_555
C5_6 C4_6 1_555 1_555
H3_6 C3_6 1_555 1_555
H4_6 C5_6 1_555 1_555
N3_4 Ag2_4 1_555 1_555
Sb1_3 C4_6 1_555 1_555
C6_6 Sb1_3 1_555 1_555
C7_6 Sb1_3 1_555 1_555
C8_6 C6_6 1_555 1_555
C9_6 C6_6 1_555 1_555
C10_6 C7_6 1_555 1_555
C11_6 C7_6 1_555 1_555
C12_6 C8_6 1_555 1_555
H5_6 C8_6 1_555 1_555
N4_4 C9_6 1_555 1_555
H6_6 C9_6 1_555 1_555
C13_6 C10_6 1_555 1_555
H7_6 C10_6 1_555 1_555
N2_3 C11_6 1_555 1_555
H8_6 C11_6 1_555 1_555
H9_6 C12_6 1_555 1_555
C14_6 C12_6 1_555 1_555
Ag2 N4_4 1_555 1_555
C15_6 C13_6 1_555 1_555
H10_6 C13_6 1_555 1_555
H11_6 C14_6 1_555 1_555
H12_6 C15_6 1_555 1_555
N4_4 C14_6 1_555 1_555
N2_3 C15_6 1_555 1_555
Ag2_2 N1_7 1_555 1_555
N1_7 C1_7 1_555 1_555
C1_7 C3_7 1_555 1_555
C2_7 N1_7 1_555 1_555
C3_7 C5_7 1_555 1_555
H1_7 C1_7 1_555 1_555
C4_7 C2_7 1_555 1_555
H2_7 C2_7 1_555 1_555
C5_7 C4_7 1_555 1_555
H3_7 C3_7 1_555 1_555
H4_7 C5_7 1_555 1_555
N2_4 Ag2_2 1_555 1_555
Sb1 C4_7 1_555 1_555
C6_7 Sb1 1_555 1_555
C7_7 Sb1 1_555 1_555
C8_7 C6_7 1_555 1_555
C9_7 C6_7 1_555 1_555
C10_7 C7_7 1_555 1_555
C11_7 C7_7 1_555 1_555
C12_7 C8_7 1_555 1_555
H5_7 C8_7 1_555 1_555
N3_3 C9_7 1_555 1_555
H6_7 C9_7 1_555 1_555
C13_7 C10_7 1_555 1_555
H7_7 C10_7 1_555 1_555
N5_4 C11_7 1_555 1_555
H8_7 C11_7 1_555 1_555
H9_7 C12_7 1_555 1_555
C14_7 C12_7 1_555 1_555
C15_7 C13_7 1_555 1_555
H10_7 C13_7 1_555 1_555
Ag2 N5_4 1_555 1_555
H11_7 C14_7 1_555 1_555
H12_7 C15_7 1_555 1_555
N3_3 C14_7 1_555 1_555
N5_4 C15_7 1_555 1_555
Ag2 N1_8 1_555 1_555
N1_8 C1_8 1_555 1_555
C1_8 C3_8 1_555 1_555
C2_8 N1_8 1_555 1_555
C3_8 C5_8 1_555 1_555
H1_8 C1_8 1_555 1_555
C4_8 C2_8 1_555 1_555
H2_8 C2_8 1_555 1_555
C5_8 C4_8 1_555 1_555
H3_8 C3_8 1_555 1_555
H4_8 C5_8 1_555 1_555
Sb1_2 C4_8 1_555 1_555
C6_8 Sb1_2 1_555 1_555
C7_8 Sb1_2 1_555 1_555
C8_8 C6_8 1_555 1_555
C9_8 C6_8 1_555 1_555
C10_8 C7_8 1_555 1_555
C11_8 C7_8 1_555 1_555
C12_8 C8_8 1_555 1_555
H5_8 C8_8 1_555 1_555
N3_4 C9_8 1_555 1_555
H6_8 C9_8 1_555 1_555
C13_8 C10_8 1_555 1_555
H7_8 C10_8 1_555 1_555
N2_4 C11_8 1_555 1_555
H8_8 C11_8 1_555 1_555
H9_8 C12_8 1_555 1_555
C14_8 C12_8 1_555 1_555
C15_8 C13_8 1_555 1_555
H10_8 C13_8 1_555 1_555
H11_8 C14_8 1_555 1_555
H12_8 C15_8 1_555 1_555
N3_4 C14_8 1_555 1_555
N2_4 C15_8 1_555 1_555

#END
