
###############################################################################
#
# This file contains modified crystal structure data generated from the
# MOF subset of the Cambridge Structural Database (CSD) v543 
# hosted by the Cambridge Crystallographic Data Centre (CCDC).
#
# This work is licensed under the Creative Commons
# Attribution-NonCommercial-ShareAlike 4.0 International License.
# To view a copy of this license, visit
# http://creativecommons.org/licenses/by-nc-sa/4.0/
# or send a letter to
# Creative Commons, PO Box 1866, Mountain View, CA 94042, USA.
#
# CIF created using the CSD Python API on 29 September 2022
# The structure has been converted into the P1 space group
# The structure has a 3D framework
# The original CSD entry NARTIL is in the monoclinic crystal system
# The framework has been calculated to contain at least 10.0% void space
# The void calculation uses a probe of radius 1.32A, grid spacing 0.4
#
###############################################################################

data_NARTIL
_chemical_formula_moiety         '(C120 H88 Co4 N24 O16)n'
_symmetry_cell_setting           triclinic
_symmetry_space_group_name_H-M   'P 1'
_symmetry_Int_Tables_number      1
_space_group_name_Hall           'P 1'
loop_
_symmetry_equiv_pos_site_id
_symmetry_equiv_pos_as_xyz
1 x,y,z
_cell_length_a                   24.038(3)
_cell_length_b                   12.7537(16)
_cell_length_c                   11.8640(15)
_cell_angle_alpha                90
_cell_angle_beta                 110.073(2)
_cell_angle_gamma                90
_cell_volume                     3416.25
loop_
_atom_site_label
_atom_site_type_symbol
_atom_site_fract_x
_atom_site_fract_y
_atom_site_fract_z
Co1 Co 0.2500 0.2500 0.0000
N3 N 0.34668(9) 0.23442(15) 0.0766(2)
C11 C 0.37294(12) 0.1456(2) 0.1274(3)
H8 H 0.3499 0.0853 0.1168
C12 C 0.43221(13) 0.1382(2) 0.1945(3)
H9 H 0.4481 0.0743 0.2281
C13 C 0.46811(11) 0.2259(2) 0.2122(2)
C14 C 0.44132(12) 0.3167(2) 0.1569(3)
H10 H 0.4636 0.3775 0.1639
C15 C 0.38176(12) 0.3180(2) 0.0913(2)
H11 H 0.3650 0.3806 0.0552
Co3 Co 0.7500 0.2500 0.5000
O4 O 0.24513(7) 0.10057(12) 0.07896(15)
N5 N 0.25175(10) 0.33683(16) 0.15266(19)
N7 N 0.65332(9) 0.23442(15) 0.4234(2)
H13 H 0.2449 0.6090 0.0371
C17 C 0.16876(19) 0.6367(3) 0.0653(3)
H14 H 0.1850 0.6367 0.1487
C18 C 0.1099(2) 0.6520(4) 0.0107(4)
H15 H 0.0858 0.6616 0.0567
C26 C 0.62706(12) 0.1456(2) 0.3726(3)
H19 H 0.6501 0.0853 0.3832
C27 C 0.56779(13) 0.1382(2) 0.3055(3)
H20 H 0.5519 0.0743 0.2719
C28 C 0.53189(11) 0.2259(2) 0.2878(2)
C29 C 0.55868(12) 0.3167(2) 0.3431(3)
H21 H 0.5364 0.3775 0.3361
C30 C 0.61824(12) 0.3180(2) 0.4087(2)
H22 H 0.6350 0.3806 0.4448
Co1_2 Co 0.2500 0.2500 1.0000
N1 N 0.24825(10) 0.16317(16) 0.84734(19)
N2 N 0.28440(10) 0.18387(15) 0.78467(19)
H1 H 0.3073 0.2376 0.7976
C1 C 0.29532(15) 0.1212(3) 0.5013(3)
H2 H 0.2551 0.1090 0.4629
C2 C 0.33124(19) 0.1367(3) 0.4347(3)
H3 H 0.3150 0.1367 0.3513
C3 C 0.3901(2) 0.1520(4) 0.4893(4)
H4 H 0.4142 0.1616 0.4433
C4 C 0.41451(18) 0.1535(4) 0.6124(4)
H5 H 0.4550 0.1639 0.6498
C5 C 0.37836(14) 0.1394(3) 0.6804(3)
H6 H 0.3947 0.1405 0.7637
C6 C 0.31854(12) 0.12373(19) 0.6254(2)
C7 C 0.28080(11) 0.11187(18) 0.7000(2)
C8 C 0.22166(11) 0.07457(18) 0.8015(2)
H7 H 0.1943 0.0407 0.8283
C9 C 0.23924(11) 0.03761(17) 0.7083(2)
Co4 Co 0.2500 0.7500 0.5000
O3 O 0.25487(7) 0.39943(12) 0.92104(15)
O5 O 0.31724(8) 0.38539(13) 0.81928(18)
N4 N 0.25175(10) 0.66317(16) 0.65266(19)
N6 N 0.21560(10) 0.68387(15) 0.71533(19)
H12 H 0.1927 0.7376 0.7024
N8 N 0.15332(9) 0.26558(15) 0.9234(2)
C16 C 0.20468(15) 0.6212(3) 0.9987(3)
C19 C 0.08549(18) 0.6535(4) 0.8876(4)
H16 H 0.0450 0.6639 0.8502
C20 C 0.12164(14) 0.6394(3) 0.8196(3)
H17 H 0.1053 0.6405 0.7363
C21 C 0.18146(12) 0.62373(19) 0.8746(2)
C22 C 0.21920(11) 0.61187(18) 0.8000(2)
C23 C 0.27834(11) 0.57457(18) 0.6985(2)
H18 H 0.3057 0.5407 0.6717
C24 C 0.26076(11) 0.53761(17) 0.7917(2)
C25 C 0.27891(11) 0.43377(17) 0.8501(2)
O1 O 0.24513(7) 0.89943(12) 0.57896(15)
O2 O 0.18276(8) 0.88539(13) 0.68072(18)
C10 C 0.22109(11) 0.93377(17) 0.6499(2)
H2_2 H 0.7449 0.1090 0.0371
C2_2 C 0.66876(19) 0.1367(3) 0.0653(3)
H3_2 H 0.6850 0.1367 0.1487
C3_2 C 0.6099(2) 0.1520(4) 0.0107(4)
H4_2 H 0.5858 0.1616 0.0567
Co4_2 Co 0.7500 0.7500 0.0000
N1_2 N 0.75175(10) 0.16317(16) 0.65266(19)
N2_2 N 0.71560(10) 0.18387(15) 0.71533(19)
H1_2 H 0.6927 0.2376 0.7024
C1_2 C 0.70468(15) 0.1212(3) 0.9987(3)
C4_2 C 0.58549(18) 0.1535(4) 0.8876(4)
H5_2 H 0.5450 0.1639 0.8502
C5_2 C 0.62164(14) 0.1394(3) 0.8196(3)
H6_2 H 0.6053 0.1405 0.7363
C6_2 C 0.68146(12) 0.12373(19) 0.8746(2)
C7_2 C 0.71920(11) 0.11187(18) 0.8000(2)
C8_2 C 0.77834(11) 0.07457(18) 0.6985(2)
H7_2 H 0.8057 0.0407 0.6717
C9_2 C 0.76076(11) 0.03761(17) 0.7917(2)
Co4_3 Co 0.7500 0.7500 1.0000
O3_2 O 0.74513(7) 0.39943(12) 0.57896(15)
O4_2 O 0.75487(7) 0.10057(12) 0.42104(15)
O5_2 O 0.68276(8) 0.38539(13) 0.68072(18)
N4_2 N 0.74825(10) 0.66317(16) 0.84734(19)
N5_2 N 0.74825(10) 0.33683(16) 0.34734(19)
N6_2 N 0.78440(10) 0.68387(15) 0.78467(19)
H12_2 H 0.8073 0.7376 0.7976
N8_2 N 0.84668(9) 0.26558(15) 0.5766(2)
C16_2 C 0.79532(15) 0.6212(3) 0.5013(3)
H13_2 H 0.7551 0.6090 0.4629
C17_2 C 0.83124(19) 0.6367(3) 0.4347(3)
H14_2 H 0.8150 0.6367 0.3513
C18_2 C 0.8901(2) 0.6520(4) 0.4893(4)
H15_2 H 0.9142 0.6616 0.4433
C19_2 C 0.91451(18) 0.6535(4) 0.6124(4)
H16_2 H 0.9550 0.6639 0.6498
C20_2 C 0.87836(14) 0.6394(3) 0.6804(3)
H17_2 H 0.8947 0.6405 0.7637
C21_2 C 0.81854(12) 0.62373(19) 0.6254(2)
C22_2 C 0.78080(11) 0.61187(18) 0.7000(2)
C23_2 C 0.72166(11) 0.57457(18) 0.8015(2)
H18_2 H 0.6943 0.5407 0.8283
C24_2 C 0.73924(11) 0.53761(17) 0.7083(2)
C25_2 C 0.72109(11) 0.43377(17) 0.6499(2)
O1_2 O 0.75487(7) 0.89943(12) 0.92104(15)
O2_2 O 0.81724(8) 0.88539(13) 0.81928(18)
C10_2 C 0.77891(11) 0.93377(17) 0.8501(2)
N7_2 N 0.15332(9) 0.73442(15) 0.4234(2)
C26_2 C 0.12706(12) 0.6456(2) 0.3726(3)
H19_2 H 0.1501 0.5853 0.3832
C27_2 C 0.06779(13) 0.6382(2) 0.3055(3)
H20_2 H 0.0519 0.5743 0.2719
C28_2 C 0.03189(11) 0.7259(2) 0.2878(2)
C29_2 C 0.05868(12) 0.8167(2) 0.3431(3)
H21_2 H 0.0364 0.8775 0.3361
C30_2 C 0.11824(12) 0.8180(2) 0.4087(2)
H22_2 H 0.1350 0.8806 0.4448
N3_2 N 0.84668(9) 0.73442(15) 0.0766(2)
C11_2 C 0.87294(12) 0.6456(2) 0.1274(3)
H8_2 H 0.8499 0.5853 0.1168
C12_2 C 0.93221(13) 0.6382(2) 0.1945(3)
H9_2 H 0.9481 0.5743 0.2281
C13_2 C 0.96811(11) 0.7259(2) 0.2122(2)
C14_2 C 0.94132(12) 0.8167(2) 0.1569(3)
H10_2 H 0.9636 0.8775 0.1639
C15_2 C 0.88176(12) 0.8180(2) 0.0913(2)
H11_2 H 0.8650 0.8806 0.0552
O4_3 O 0.74513(7) 0.60057(12) 0.07896(15)
N5_3 N 0.75175(10) 0.83683(16) 0.15266(19)
N8_3 N 0.65332(9) 0.76558(15) 0.9234(2)
O4_4 O 0.25487(7) 0.60057(12) 0.42104(15)
N5_4 N 0.24825(10) 0.83683(16) 0.34734(19)
N8_4 N 0.34668(9) 0.76558(15) 0.5766(2)
O2_3 O 0.81724(8) 0.11461(13) 0.31928(18)
C10_3 C 0.77891(11) 0.06623(17) 0.3501(2)
N2_3 N 0.71560(10) 0.81613(15) 0.21533(19)
H1_3 H 0.6927 0.7624 0.2024
C1_3 C 0.70468(15) 0.8788(3) 0.4987(3)
H2_3 H 0.7449 0.8910 0.5371
C2_3 C 0.66876(19) 0.8633(3) 0.5653(3)
H3_3 H 0.6850 0.8633 0.6487
C3_3 C 0.6099(2) 0.8480(4) 0.5107(4)
H4_3 H 0.5858 0.8384 0.5567
C4_3 C 0.58549(18) 0.8465(4) 0.3876(4)
H5_3 H 0.5450 0.8361 0.3502
C5_3 C 0.62164(14) 0.8606(3) 0.3196(3)
H6_3 H 0.6053 0.8595 0.2363
C6_3 C 0.68146(12) 0.87627(19) 0.3746(2)
C7_3 C 0.71920(11) 0.88813(18) 0.3000(2)
C8_3 C 0.77834(11) 0.92543(18) 0.1985(2)
H7_3 H 0.8057 0.9593 0.1717
C9_3 C 0.76076(11) 0.96239(17) 0.2917(2)
O5_3 O 0.68276(8) 0.61461(13) 0.18072(18)
N6_3 N 0.78440(10) 0.31613(15) 0.28467(19)
H12_3 H 0.8073 0.2624 0.2976
C16_3 C 0.79532(15) 0.3788(3) 0.0013(3)
C19_3 C 0.91451(18) 0.3465(4) 0.1124(4)
H16_3 H 0.9550 0.3361 0.1498
C20_3 C 0.87836(14) 0.3606(3) 0.1804(3)
H17_3 H 0.8947 0.3595 0.2637
C21_3 C 0.81854(12) 0.37627(19) 0.1254(2)
C22_3 C 0.78080(11) 0.38813(18) 0.2000(2)
C23_3 C 0.72166(11) 0.42543(18) 0.3015(2)
H18_3 H 0.6943 0.4593 0.3283
C24_3 C 0.73924(11) 0.46239(17) 0.2083(2)
C25_3 C 0.72109(11) 0.56623(17) 0.1499(2)
C11_3 C 0.62706(12) 0.8544(2) 0.8726(3)
H8_3 H 0.6501 0.9147 0.8832
C12_3 C 0.56779(13) 0.8618(2) 0.8055(3)
H9_3 H 0.5519 0.9257 0.7719
C13_3 C 0.53189(11) 0.7741(2) 0.7878(2)
C14_3 C 0.55868(12) 0.6833(2) 0.8431(3)
H10_3 H 0.5364 0.6225 0.8361
C15_3 C 0.61824(12) 0.6820(2) 0.9087(2)
H11_3 H 0.6350 0.6194 0.9448
H13_3 H 0.7551 0.3910 0.9629
C17_3 C 0.83124(19) 0.3633(3) 0.9347(3)
H14_3 H 0.8150 0.3633 0.8513
C18_3 C 0.8901(2) 0.3480(4) 0.9893(4)
H15_3 H 0.9142 0.3384 0.9433
C26_3 C 0.37294(12) 0.8544(2) 0.6274(3)
H19_3 H 0.3499 0.9147 0.6168
C27_3 C 0.43221(13) 0.8618(2) 0.6945(3)
H20_3 H 0.4481 0.9257 0.7281
C28_3 C 0.46811(11) 0.7741(2) 0.7122(2)
C29_3 C 0.44132(12) 0.6833(2) 0.6569(3)
H21_3 H 0.4636 0.6225 0.6639
C30_3 C 0.38176(12) 0.6820(2) 0.5913(2)
H22_3 H 0.3650 0.6194 0.5552
O2_4 O 0.18276(8) 0.11461(13) 0.18072(18)
C10_4 C 0.22109(11) 0.06623(17) 0.1499(2)
N2_4 N 0.28440(10) 0.81613(15) 0.28467(19)
H1_4 H 0.3073 0.7624 0.2976
C1_4 C 0.29532(15) 0.8788(3) 0.0013(3)
C4_4 C 0.41451(18) 0.8465(4) 0.1124(4)
H5_4 H 0.4550 0.8361 0.1498
C5_4 C 0.37836(14) 0.8606(3) 0.1804(3)
H6_4 H 0.3947 0.8595 0.2637
C6_4 C 0.31854(12) 0.87627(19) 0.1254(2)
C7_4 C 0.28080(11) 0.88813(18) 0.2000(2)
C8_4 C 0.22166(11) 0.92543(18) 0.3015(2)
H7_4 H 0.1943 0.9593 0.3283
C9_4 C 0.23924(11) 0.96239(17) 0.2083(2)
O5_4 O 0.31724(8) 0.61461(13) 0.31928(18)
N6_4 N 0.21560(10) 0.31613(15) 0.21533(19)
H12_4 H 0.1927 0.2624 0.2024
C16_4 C 0.20468(15) 0.3788(3) 0.4987(3)
H13_4 H 0.2449 0.3910 0.5371
C17_4 C 0.16876(19) 0.3633(3) 0.5653(3)
H14_4 H 0.1850 0.3633 0.6487
C18_4 C 0.1099(2) 0.3480(4) 0.5107(4)
H15_4 H 0.0858 0.3384 0.5567
C19_4 C 0.08549(18) 0.3465(4) 0.3876(4)
H16_4 H 0.0450 0.3361 0.3502
C20_4 C 0.12164(14) 0.3606(3) 0.3196(3)
H17_4 H 0.1053 0.3595 0.2363
C21_4 C 0.18146(12) 0.37627(19) 0.3746(2)
C22_4 C 0.21920(11) 0.38813(18) 0.3000(2)
C23_4 C 0.27834(11) 0.42543(18) 0.1985(2)
H18_4 H 0.3057 0.4593 0.1717
C24_4 C 0.26076(11) 0.46239(17) 0.2917(2)
C25_4 C 0.27891(11) 0.56623(17) 0.3501(2)
H2_4 H 0.2551 0.8910 0.9629
C2_4 C 0.33124(19) 0.8633(3) 0.9347(3)
H3_4 H 0.3150 0.8633 0.8513
C3_4 C 0.3901(2) 0.8480(4) 0.9893(4)
H4_4 H 0.4142 0.8384 0.9433
C11_4 C 0.12706(12) 0.3544(2) 0.8726(3)
H8_4 H 0.1501 0.4147 0.8832
C12_4 C 0.06779(13) 0.3618(2) 0.8055(3)
H9_4 H 0.0519 0.4257 0.7719
C13_4 C 0.03189(11) 0.2741(2) 0.7878(2)
C14_4 C 0.05868(12) 0.1833(2) 0.8431(3)
H10_4 H 0.0364 0.1225 0.8361
C15_4 C 0.11824(12) 0.1820(2) 0.9087(2)
H11_4 H 0.1350 0.1194 0.9448
C26_4 C 0.87294(12) 0.3544(2) 0.6274(3)
H19_4 H 0.8499 0.4147 0.6168
C27_4 C 0.93221(13) 0.3618(2) 0.6945(3)
H20_4 H 0.9481 0.4257 0.7281
C28_4 C 0.96811(11) 0.2741(2) 0.7122(2)
C29_4 C 0.94132(12) 0.1833(2) 0.6569(3)
H21_4 H 0.9636 0.1225 0.6639
C30_4 C 0.88176(12) 0.1820(2) 0.5913(2)
H22_4 H 0.8650 0.1194 0.5552
loop_
_geom_bond_atom_site_label_1
_geom_bond_atom_site_label_2
_geom_bond_site_symmetry_1
_geom_bond_site_symmetry_2
N3 Co1 1_555 1_555
C11 N3 1_555 1_555
H8 C11 1_555 1_555
C12 C11 1_555 1_555
H9 C12 1_555 1_555
C13 C12 1_555 1_555
C14 C13 1_555 1_555
H10 C14 1_555 1_555
C15 N3 1_555 1_555
H11 C15 1_555 1_555
Co3 N7 1_555 1_555
O4 Co1 1_555 1_555
N5 Co1 1_555 1_555
N7 C26 1_555 1_555
H14 C17 1_555 1_555
C18 C17 1_555 1_555
H15 C18 1_555 1_555
C26 H19 1_555 1_555
C27 C26 1_555 1_555
H20 C27 1_555 1_555
C28 C13 1_555 1_555
C29 C28 1_555 1_555
H21 C29 1_555 1_555
C30 N7 1_555 1_555
H22 C30 1_555 1_555
C14 C15 1_555 1_555
C27 C28 1_555 1_555
C29 C30 1_555 1_555
Co1_2 N1 1_555 1_555
N1 N2 1_555 1_555
N2 H1 1_555 1_555
C1 H2 1_555 1_555
C2 C1 1_555 1_555
H3 C2 1_555 1_555
C3 C2 1_555 1_555
H4 C3 1_555 1_555
C4 C3 1_555 1_555
H5 C4 1_555 1_555
C5 C4 1_555 1_555
H6 C5 1_555 1_555
C6 C1 1_555 1_555
C7 N2 1_555 1_555
C8 N1 1_555 1_555
H7 C8 1_555 1_555
C9 C7 1_555 1_555
Co4 N4 1_555 1_555
O3 Co1_2 1_555 1_555
O5 C25 1_555 1_555
N4 N6 1_555 1_555
N6 H12 1_555 1_555
N8 Co1_2 1_555 1_555
H16 C19 1_555 1_555
C20 C19 1_555 1_555
H17 C20 1_555 1_555
C21 C16 1_555 1_555
C22 N6 1_555 1_555
C23 N4 1_555 1_555
H18 C23 1_555 1_555
C24 C22 1_555 1_555
C25 O3 1_555 1_555
C5 C6 1_555 1_555
C6 C7 1_555 1_555
C8 C9 1_555 1_555
C20 C21 1_555 1_555
C21 C22 1_555 1_555
C23 C24 1_555 1_555
C24 C25 1_555 1_555
O1 C10 1_555 1_555
O2 C10 1_555 1_555
Co4 O1 1_555 1_555
H3_2 C2_2 1_555 1_555
C3_2 C2_2 1_555 1_555
H4_2 C3_2 1_555 1_555
Co3 N1_2 1_555 1_555
N1_2 N2_2 1_555 1_555
N2_2 H1_2 1_555 1_555
H5_2 C4_2 1_555 1_555
C5_2 C4_2 1_555 1_555
H6_2 C5_2 1_555 1_555
C6_2 C1_2 1_555 1_555
C7_2 N2_2 1_555 1_555
C8_2 N1_2 1_555 1_555
H7_2 C8_2 1_555 1_555
C9_2 C7_2 1_555 1_555
Co4_3 N4_2 1_555 1_555
O3_2 Co3 1_555 1_555
O4_2 Co3 1_555 1_555
O5_2 C25_2 1_555 1_555
N4_2 N6_2 1_555 1_555
N5_2 Co3 1_555 1_555
N6_2 H12_2 1_555 1_555
N8_2 Co3 1_555 1_555
C16_2 H13_2 1_555 1_555
C17_2 C16_2 1_555 1_555
H14_2 C17_2 1_555 1_555
C18_2 C17_2 1_555 1_555
H15_2 C18_2 1_555 1_555
C19_2 C18_2 1_555 1_555
H16_2 C19_2 1_555 1_555
C20_2 C19_2 1_555 1_555
H17_2 C20_2 1_555 1_555
C21_2 C16_2 1_555 1_555
C22_2 N6_2 1_555 1_555
C23_2 N4_2 1_555 1_555
H18_2 C23_2 1_555 1_555
C24_2 C22_2 1_555 1_555
C25_2 O3_2 1_555 1_555
C5_2 C6_2 1_555 1_555
C6_2 C7_2 1_555 1_555
C8_2 C9_2 1_555 1_555
C20_2 C21_2 1_555 1_555
C21_2 C22_2 1_555 1_555
C23_2 C24_2 1_555 1_555
C24_2 C25_2 1_555 1_555
O1_2 C10_2 1_555 1_555
O2_2 C10_2 1_555 1_555
Co4_3 O1_2 1_555 1_555
Co4 N7_2 1_555 1_555
N7_2 C26_2 1_555 1_555
C26_2 H19_2 1_555 1_555
C27_2 C26_2 1_555 1_555
H20_2 C27_2 1_555 1_555
C29_2 C28_2 1_555 1_555
H21_2 C29_2 1_555 1_555
C30_2 N7_2 1_555 1_555
H22_2 C30_2 1_555 1_555
C27_2 C28_2 1_555 1_555
C29_2 C30_2 1_555 1_555
N3_2 Co4_2 1_555 1_555
C11_2 N3_2 1_555 1_555
H8_2 C11_2 1_555 1_555
C12_2 C11_2 1_555 1_555
H9_2 C12_2 1_555 1_555
C13_2 C12_2 1_555 1_555
C14_2 C13_2 1_555 1_555
H10_2 C14_2 1_555 1_555
C15_2 N3_2 1_555 1_555
H11_2 C15_2 1_555 1_555
O4_3 Co4_2 1_555 1_555
N5_3 Co4_2 1_555 1_555
C14_2 C15_2 1_555 1_555
N8_3 Co4_3 1_555 1_555
O4_4 Co4 1_555 1_555
N5_4 Co4 1_555 1_555
N8_4 Co4 1_555 1_555
O4_2 C10_3 1_555 1_555
O2_3 C10_3 1_555 1_555
N5_3 N2_3 1_555 1_555
N2_3 H1_3 1_555 1_555
C1_3 H2_3 1_555 1_555
C2_3 C1_3 1_555 1_555
H3_3 C2_3 1_555 1_555
C3_3 C2_3 1_555 1_555
H4_3 C3_3 1_555 1_555
C4_3 C3_3 1_555 1_555
H5_3 C4_3 1_555 1_555
C5_3 C4_3 1_555 1_555
H6_3 C5_3 1_555 1_555
C6_3 C1_3 1_555 1_555
C7_3 N2_3 1_555 1_555
C8_3 N5_3 1_555 1_555
H7_3 C8_3 1_555 1_555
C9_3 C7_3 1_555 1_555
O5_3 C25_3 1_555 1_555
N5_2 N6_3 1_555 1_555
N6_3 H12_3 1_555 1_555
H16_3 C19_3 1_555 1_555
C20_3 C19_3 1_555 1_555
H17_3 C20_3 1_555 1_555
C21_3 C16_3 1_555 1_555
C22_3 N6_3 1_555 1_555
C23_3 N5_2 1_555 1_555
H18_3 C23_3 1_555 1_555
C24_3 C22_3 1_555 1_555
C25_3 O4_3 1_555 1_555
C5_3 C6_3 1_555 1_555
C6_3 C7_3 1_555 1_555
C8_3 C9_3 1_555 1_555
C20_3 C21_3 1_555 1_555
C21_3 C22_3 1_555 1_555
C23_3 C24_3 1_555 1_555
C24_3 C25_3 1_555 1_555
C11_3 N8_3 1_555 1_555
H8_3 C11_3 1_555 1_555
C12_3 C11_3 1_555 1_555
H9_3 C12_3 1_555 1_555
C13_3 C12_3 1_555 1_555
C14_3 C13_3 1_555 1_555
H10_3 C14_3 1_555 1_555
C15_3 N8_3 1_555 1_555
H11_3 C15_3 1_555 1_555
N8_4 C26_3 1_555 1_555
H14_3 C17_3 1_555 1_555
C18_3 C17_3 1_555 1_555
H15_3 C18_3 1_555 1_555
C26_3 H19_3 1_555 1_555
C27_3 C26_3 1_555 1_555
H20_3 C27_3 1_555 1_555
C28_3 C13_3 1_555 1_555
C29_3 C28_3 1_555 1_555
H21_3 C29_3 1_555 1_555
C30_3 N8_4 1_555 1_555
H22_3 C30_3 1_555 1_555
C14_3 C15_3 1_555 1_555
C27_3 C28_3 1_555 1_555
C29_3 C30_3 1_555 1_555
O4 C10_4 1_555 1_555
O2_4 C10_4 1_555 1_555
N5_4 N2_4 1_555 1_555
N2_4 H1_4 1_555 1_555
H5_4 C4_4 1_555 1_555
C5_4 C4_4 1_555 1_555
H6_4 C5_4 1_555 1_555
C6_4 C1_4 1_555 1_555
C7_4 N2_4 1_555 1_555
C8_4 N5_4 1_555 1_555
H7_4 C8_4 1_555 1_555
C9_4 C7_4 1_555 1_555
O5_4 C25_4 1_555 1_555
N5 N6_4 1_555 1_555
N6_4 H12_4 1_555 1_555
C16_4 H13_4 1_555 1_555
C17_4 C16_4 1_555 1_555
H14_4 C17_4 1_555 1_555
C18_4 C17_4 1_555 1_555
H15_4 C18_4 1_555 1_555
C19_4 C18_4 1_555 1_555
H16_4 C19_4 1_555 1_555
C20_4 C19_4 1_555 1_555
H17_4 C20_4 1_555 1_555
C21_4 C16_4 1_555 1_555
C22_4 N6_4 1_555 1_555
C23_4 N5 1_555 1_555
H18_4 C23_4 1_555 1_555
C24_4 C22_4 1_555 1_555
C25_4 O4_4 1_555 1_555
C5_4 C6_4 1_555 1_555
C6_4 C7_4 1_555 1_555
C8_4 C9_4 1_555 1_555
C20_4 C21_4 1_555 1_555
C21_4 C22_4 1_555 1_555
C23_4 C24_4 1_555 1_555
C24_4 C25_4 1_555 1_555
H3_4 C2_4 1_555 1_555
C3_4 C2_4 1_555 1_555
H4_4 C3_4 1_555 1_555
C11_4 N8 1_555 1_555
H8_4 C11_4 1_555 1_555
C12_4 C11_4 1_555 1_555
H9_4 C12_4 1_555 1_555
C13_4 C12_4 1_555 1_555
C14_4 C13_4 1_555 1_555
H10_4 C14_4 1_555 1_555
C15_4 N8 1_555 1_555
H11_4 C15_4 1_555 1_555
C14_4 C15_4 1_555 1_555
N8_2 C26_4 1_555 1_555
C26_4 H19_4 1_555 1_555
C27_4 C26_4 1_555 1_555
H20_4 C27_4 1_555 1_555
C29_4 C28_4 1_555 1_555
H21_4 C29_4 1_555 1_555
C30_4 N8_2 1_555 1_555
H22_4 C30_4 1_555 1_555
C27_4 C28_4 1_555 1_555
C29_4 C30_4 1_555 1_555

#END
