
###############################################################################
#
# This file contains modified crystal structure data generated from the
# MOF subset of the Cambridge Structural Database (CSD) v543 
# hosted by the Cambridge Crystallographic Data Centre (CCDC).
#
# This work is licensed under the Creative Commons
# Attribution-NonCommercial-ShareAlike 4.0 International License.
# To view a copy of this license, visit
# http://creativecommons.org/licenses/by-nc-sa/4.0/
# or send a letter to
# Creative Commons, PO Box 1866, Mountain View, CA 94042, USA.
#
# CIF created using the CSD Python API on 29 September 2022
# The structure has been converted into the P1 space group
# The structure has a 3D framework
# The original CSD entry NASDIW is in the monoclinic crystal system
# The framework has been calculated to contain at least 10.0% void space
# The void calculation uses a probe of radius 1.32A, grid spacing 0.4
#
###############################################################################

data_NASDIW
_chemical_formula_moiety         '(C30 H6 Co10 Na1 O29)n'
_symmetry_cell_setting           triclinic
_symmetry_space_group_name_H-M   'P 1'
_symmetry_Int_Tables_number      1
_space_group_name_Hall           'P 1'
loop_
_symmetry_equiv_pos_site_id
_symmetry_equiv_pos_as_xyz
1 x,y,z
_cell_length_a                   9.678(4)
_cell_length_b                   21.742(8)
_cell_length_c                   7.707(3)
_cell_angle_alpha                90
_cell_angle_beta                 127.400(4)
_cell_angle_gamma                90
_cell_volume                     1288.3
loop_
_atom_site_label
_atom_site_type_symbol
_atom_site_fract_x
_atom_site_fract_y
_atom_site_fract_z
Co2 Co -0.0000 0.308843(15) 0.0000
Na2 Na 0.2500 0.2500 0.5000
O10 O 0.52550(18) 0.25891(7) 0.8207(2)
O15 O 0.27197(18) 0.29252(7) 0.2088(2)
O16 O 0.22803(18) 0.20748(7) 0.7912(2)
O28 O 0.1722(3) 0.34995(8) 0.5089(3)
O29 O 0.3278(3) 0.15005(8) 0.4911(3)
Co2_2 Co -0.0000 0.308843(15) 1.0000
O9 O 0.02550(18) 0.24109(7) 0.8207(2)
O21 O 0.0235(2) 0.37710(7) 0.8394(3)
Co3 Co 0.5000 0.191157(15) -0.0000
O3 O 0.4765(2) 0.12290(7) 0.1606(3)
O4 O 0.6722(3) 0.15005(8) 0.5089(3)
C2 C 0.5614(3) 0.11501(9) 0.3645(4)
C3 C 0.5242(3) 0.05566(9) 0.4309(3)
C4 C 0.5466(4) 0.0000 0.3625(5)
H1 H 0.5772 0.0000 0.2691
Co2_3 Co 1.0000 0.308843(15) 0.0000
Co3_2 Co 0.5000 0.191157(15) 1.0000
Na4 Na 0.7500 0.2500 0.5000
O5 O 0.97450(18) 0.24109(7) 0.1793(2)
O6 O 0.47450(18) 0.25891(7) 0.1793(2)
O11 O 0.77197(18) 0.20748(7) 0.2088(2)
O17 O 0.5235(2) 0.12290(7) 0.8394(3)
O22 O 0.9765(2) 0.37710(7) 0.1606(3)
C5 C 0.8210(2) 0.23526(9) 0.1126(3)
C6 C 0.3210(2) 0.26474(9) 0.1126(3)
C8 C 0.4386(3) 0.11501(9) 0.6355(4)
C11 C 0.4758(3) 0.05566(9) 0.5691(3)
C14 C 0.4534(4) 0.0000 0.6375(5)
H2 H 0.4228 0.0000 0.7309
O2 O 0.72803(18) 0.29252(7) 0.7912(2)
C1 C 0.6790(2) 0.26474(9) 0.8874(3)
Co2_4 Co 1.0000 0.308843(15) 1.0000
C7 C 0.1790(2) 0.23526(9) 0.8874(3)
Co4 Co 0.5000 0.808843(15) -0.0000
C4_2 C 0.5466(4) 1.0000 0.3625(5)
H1_2 H 0.5772 1.0000 0.2691
Co4_2 Co 0.5000 0.808843(15) 1.0000
Na6 Na 0.2500 0.7500 0.5000
Na7 Na 0.7500 0.7500 0.5000
O18 O 0.5235(2) 0.87710(7) 0.8394(3)
O19 O 0.4765(2) 0.87710(7) 0.1606(3)
O24 O 0.3278(3) 0.84995(8) 0.4911(3)
O25 O 0.6722(3) 0.84995(8) 0.5089(3)
C9 C 0.4386(3) 0.88499(9) 0.6355(4)
C10 C 0.5614(3) 0.88499(9) 0.3645(4)
C12 C 0.4758(3) 0.94434(9) 0.5691(3)
C13 C 0.5242(3) 0.94434(9) 0.4309(3)
C14_2 C 0.4534(4) 1.0000 0.6375(5)
H2_2 H 0.4228 1.0000 0.7309
O27 O 0.8278(3) 0.34995(8) 0.4911(3)
O10_2 O 0.02550(18) 0.75891(7) 0.8207(2)
Co3_3 Co -0.0000 0.691157(15) -0.0000
O4_2 O 0.1722(3) 0.65005(8) 0.5089(3)
C2_2 C 0.0614(3) 0.61501(9) 0.3645(4)
C3_2 C 0.0242(3) 0.55566(9) 0.4309(3)
C4_3 C 0.0466(4) 0.5000 0.3625(5)
H1_3 H 0.0772 0.5000 0.2691
Co3_4 Co -0.0000 0.691157(15) 1.0000
O5_2 O 0.47450(18) 0.74109(7) 0.1793(2)
O11_2 O 0.27197(18) 0.70748(7) 0.2088(2)
O15_2 O 0.77197(18) 0.79252(7) 0.2088(2)
O16_2 O 0.72803(18) 0.70748(7) 0.7912(2)
O17_2 O 0.0235(2) 0.62290(7) 0.8394(3)
O29_2 O 0.8278(3) 0.65005(8) 0.4911(3)
C5_2 C 0.3210(2) 0.73526(9) 0.1126(3)
C10_2 C 0.0614(3) 0.38499(9) 0.3645(4)
C13_2 C 0.0242(3) 0.44434(9) 0.4309(3)
O2_2 O 0.22803(18) 0.79252(7) 0.7912(2)
C1_2 C 0.1790(2) 0.76474(9) 0.8874(3)
O9_2 O 0.52550(18) 0.74109(7) 0.8207(2)
Co3_5 Co 1.0000 0.691157(15) -0.0000
O3_2 O 0.9765(2) 0.62290(7) 0.1606(3)
Co3_6 Co 1.0000 0.691157(15) 1.0000
O6_2 O 0.97450(18) 0.75891(7) 0.1793(2)
C6_2 C 0.8210(2) 0.76474(9) 0.1126(3)
C8_2 C 0.9386(3) 0.61501(9) 0.6355(4)
C9_2 C 0.9386(3) 0.38499(9) 0.6355(4)
C11_2 C 0.9758(3) 0.55566(9) 0.5691(3)
C12_2 C 0.9758(3) 0.44434(9) 0.5691(3)
C14_3 C 0.9534(4) 0.5000 0.6375(5)
H2_3 H 0.9228 0.5000 0.7309
C7_2 C 0.6790(2) 0.73526(9) 0.8874(3)
loop_
_geom_bond_atom_site_label_1
_geom_bond_atom_site_label_2
_geom_bond_site_symmetry_1
_geom_bond_site_symmetry_2
O10 Na2 1_555 1_555
O15 Co2 1_555 1_555
O16 Na2 1_555 1_555
O28 Na2 1_555 1_555
O29 Na2 1_555 1_555
Na2 O15 1_555 1_555
O9 Co2_2 1_555 1_555
O21 Co2_2 1_555 1_555
O3 Co3 1_555 1_555
O4 C2 1_555 1_555
C2 O3 1_555 1_555
C3 C2 1_555 1_555
C4 C3 1_555 1_555
H1 C4 1_555 1_555
Co3_2 O17 1_555 1_555
Na4 O4 1_555 1_555
O5 Co2_3 1_555 1_555
O6 Co3 1_555 1_555
O11 Co3 1_555 1_555
O17 C8 1_555 1_555
O22 Co2_3 1_555 1_555
C5 O5 1_555 1_555
C6 O6 1_555 1_555
C8 O29 1_555 1_555
C11 C3 1_555 1_555
C14 C11 1_555 1_555
H2 C14 1_555 1_555
Na4 O6 1_555 1_555
Na4 O11 1_555 1_555
O11 C5 1_555 1_555
O15 C6 1_555 1_555
C8 C11 1_555 1_555
Co3_2 O10 1_555 1_555
O10 C1 1_555 1_555
O2 C1 1_555 1_555
Co2_4 O2 1_555 1_555
Na4 O2 1_555 1_555
O9 C7 1_555 1_555
O16 Co3_2 1_555 1_555
C7 O16 1_555 1_555
H1_2 C4_2 1_555 1_555
Co4_2 O18 1_555 1_555
Co4 O19 1_555 1_555
Na6 O24 1_555 1_555
Na7 O25 1_555 1_555
O18 C9 1_555 1_555
O19 C10 1_555 1_555
O24 C9 1_555 1_555
O25 C10 1_555 1_555
C9 C12 1_555 1_555
C10 C13 1_555 1_555
C12 C13 1_555 1_555
C13 C4_2 1_555 1_555
H2_2 C14_2 1_555 1_555
C12 C14_2 1_555 1_555
O27 Na4 1_555 1_555
O4_2 C2_2 1_555 1_555
C3_2 C2_2 1_555 1_555
C4_3 C3_2 1_555 1_555
H1_3 C4_3 1_555 1_555
Co3_4 O17_2 1_555 1_555
Na7 O5_2 1_555 1_555
Na6 O4_2 1_555 1_555
O5_2 Co4 1_555 1_555
O11_2 Co3_3 1_555 1_555
O15_2 Co4 1_555 1_555
O16_2 Na7 1_555 1_555
O28 C10_2 1_555 1_555
O29_2 Na7 1_555 1_555
C5_2 O5_2 1_555 1_555
C10_2 C13_2 1_555 1_555
C13_2 C4_3 1_555 1_555
Na7 O15_2 1_555 1_555
Na6 O11_2 1_555 1_555
O11_2 C5_2 1_555 1_555
Co3_4 O10_2 1_555 1_555
O10_2 C1_2 1_555 1_555
O2_2 C1_2 1_555 1_555
Co4_2 O2_2 1_555 1_555
Na6 O2_2 1_555 1_555
O9_2 Co4_2 1_555 1_555
Na6 O9_2 1_555 1_555
O3_2 Co3_5 1_555 1_555
O6_2 Co3_5 1_555 1_555
O27 C9_2 1_555 1_555
C6_2 O6_2 1_555 1_555
C8_2 O29_2 1_555 1_555
C9_2 C12_2 1_555 1_555
C14_3 C11_2 1_555 1_555
H2_3 C14_3 1_555 1_555
O15_2 C6_2 1_555 1_555
C8_2 C11_2 1_555 1_555
C12_2 C14_3 1_555 1_555
O9_2 C7_2 1_555 1_555
O16_2 Co3_6 1_555 1_555
C7_2 O16_2 1_555 1_555

#END
