
###############################################################################
#
# This file contains modified crystal structure data generated from the
# MOF subset of the Cambridge Structural Database (CSD) v543 
# hosted by the Cambridge Crystallographic Data Centre (CCDC).
#
# This work is licensed under the Creative Commons
# Attribution-NonCommercial-ShareAlike 4.0 International License.
# To view a copy of this license, visit
# http://creativecommons.org/licenses/by-nc-sa/4.0/
# or send a letter to
# Creative Commons, PO Box 1866, Mountain View, CA 94042, USA.
#
# CIF created using the CSD Python API on 29 September 2022
# The structure has been converted into the P1 space group
# The structure has a 3D framework
# The original CSD entry NASRUY is in the triclinic crystal system
# The framework has been calculated to contain at least 10.0% void space
# The void calculation uses a probe of radius 1.32A, grid spacing 0.4
#
###############################################################################

data_NASRUY
_chemical_formula_moiety         '(C24 H26 Eu1 O22)n'
_symmetry_cell_setting           triclinic
_symmetry_space_group_name_H-M   'P 1'
_symmetry_Int_Tables_number      1
_space_group_name_Hall           'P 1'
loop_
_symmetry_equiv_pos_site_id
_symmetry_equiv_pos_as_xyz
1 x,y,z
_cell_length_a                   8.8291(6)
_cell_length_b                   9.9655(5)
_cell_length_c                   10.3690(7)
_cell_angle_alpha                77.569(5)
_cell_angle_beta                 83.197(6)
_cell_angle_gamma                87.193(5)
_cell_volume                     884.41
loop_
_atom_site_label
_atom_site_type_symbol
_atom_site_fract_x
_atom_site_fract_y
_atom_site_fract_z
Eu2 Eu 0.25059(3) 0.00441(3) 0.51502(3)
O5 O 0.0333(6) 0.8690(5) 0.5797(5)
C11 C 0.0222(8) 0.6508(6) 0.7227(7)
H12 H 0.115763 0.623375 0.675078
H13 H 0.049033 0.680932 0.799800
O1 O 0.4821(5) 0.0691(5) 0.3785(5)
O2 O 0.7002(5) 0.1222(5) 0.2569(5)
O3 O 0.6687(5) 0.8120(5) 0.3654(5)
O4 O 0.9042(5) 0.8818(5) 0.3225(5)
O7 O 0.5624(5) 0.2589(5) 0.0436(5)
O8 O 0.7200(6) 0.6444(6) 0.1917(6)
C1 C 0.6483(9) 0.3740(7) 0.0302(7)
C2 C 0.6429(9) 0.4542(8) 0.1227(8)
H5 H 0.580227 0.432302 0.202578
C3 C 0.7345(9) 0.5702(8) 0.0934(8)
C7 C 0.4703(8) 0.2114(7) 0.1639(7)
H8 H 0.391560 0.154295 0.147902
H9 H 0.420252 0.289611 0.194312
C8 C 0.5594(7) 0.1292(6) 0.2726(6)
C9 C 0.8291(8) 0.7450(7) 0.1843(8)
H10 H 0.826043 0.812701 0.101905
H11 H 0.930152 0.702220 0.184014
C10 C 0.7990(7) 0.8149(6) 0.2995(7)
Eu5 Eu 0.74941(3) 0.99559(3) 0.48498(3)
O14 O 0.3313(5) 0.1880(5) 0.6346(5)
O15 O 0.0958(5) 0.1182(5) 0.6775(5)
O17 O 0.1877(5) 0.2347(5) 0.3847(5)
O6 O 0.8123(5) 0.7653(5) 0.6153(5)
O9 O 0.9268(6) 0.5342(4) 0.7666(5)
C4 C 0.8307(9) 0.6047(8) 0.9760(8)
H6 H 0.890295 0.682340 0.957738
C5 C 0.8341(9) 0.5178(7) 0.8864(7)
C6 C 0.7436(9) 0.4057(8) 0.9106(7)
H7 H 0.745338 0.351117 0.848088
C12 C 0.9494(7) 0.7685(6) 0.6348(7)
O10 O 0.3554(6) 0.7699(6) 0.4925(6)
H1 H 0.332934 0.700850 0.484403
H2 H 0.433444 0.780880 0.460803
O11 O 0.2005(5) 0.9665(5) 0.3002(5)
H3 H 0.108505 0.940812 0.307337
H4 H 0.271795 0.940852 0.262737
O12 O 0.5179(5) 0.9309(5) 0.6215(5)
O13 O 0.2998(5) 0.8778(5) 0.7431(5)
O10_2 O 0.6446(6) 0.2301(6) 0.5075(6)
H1_2 H 0.667066 0.299150 0.515597
H2_2 H 0.566556 0.219120 0.539197
O11_2 O 0.7995(5) 0.0335(5) 0.6998(5)
H3_2 H 0.891495 0.059188 0.692663
H4_2 H 0.728205 0.059148 0.737263
O16 O 0.9667(6) 0.1310(5) 0.4203(5)
O9_2 O 0.0732(6) 0.4658(4) 0.2334(5)
C4_2 C 0.1693(9) 0.3953(8) 0.0240(8)
H6_2 H 0.109705 0.317660 0.042262
C5_2 C 0.1659(9) 0.4822(7) 0.1136(7)
C6_2 C 0.2564(9) 0.5943(8) 0.0894(7)
H7_2 H 0.254662 0.648883 0.151912
C12_2 C 0.0506(7) 0.2315(6) 0.3652(7)
O7_2 O 0.4376(5) 0.7411(5) 0.9564(5)
O8_2 O 0.2800(6) 0.3556(6) 0.8083(6)
C1_2 C 0.3517(9) 0.6260(7) 0.9698(7)
C2_2 C 0.3571(9) 0.5458(8) 0.8773(8)
H5_2 H 0.419773 0.567698 0.797422
C3_2 C 0.2655(9) 0.4298(8) 0.9066(8)
C7_2 C 0.5297(8) 0.7886(7) 0.8361(7)
H8_2 H 0.608440 0.845705 0.852098
H9_2 H 0.579748 0.710389 0.805688
C8_2 C 0.4406(7) 0.8708(6) 0.7274(6)
C9_2 C 0.1709(8) 0.2550(7) 0.8157(8)
H10_2 H 0.173957 0.187299 0.898095
H11_2 H 0.069848 0.297780 0.815986
C10_2 C 0.2010(7) 0.1851(6) 0.7005(7)
C11_2 C 0.9778(8) 0.3492(6) 0.2773(7)
H12_2 H 0.884237 0.376625 0.324922
H13_2 H 0.950967 0.319068 0.200200
loop_
_geom_bond_atom_site_label_1
_geom_bond_atom_site_label_2
_geom_bond_site_symmetry_1
_geom_bond_site_symmetry_2
H12 C11 1_555 1_555
H13 C11 1_555 1_555
Eu2 O1 1_555 1_555
O1 C8 1_555 1_555
O2 C8 1_555 1_555
O3 C10 1_555 1_555
O4 C10 1_555 1_555
O7 C1 1_555 1_555
O8 C3 1_555 1_555
C1 C2 1_555 1_555
C2 H5 1_555 1_555
C3 C2 1_555 1_555
C7 O7 1_555 1_555
H8 C7 1_555 1_555
H9 C7 1_555 1_555
C8 C7 1_555 1_555
C9 O8 1_555 1_555
H10 C9 1_555 1_555
H11 C9 1_555 1_555
C10 C9 1_555 1_555
Eu5 O3 1_555 1_555
O14 Eu2 1_555 1_555
O15 Eu2 1_555 1_555
O17 Eu2 1_555 1_555
O4 Eu5 1_555 1_555
O6 C12 1_555 1_555
O9 C5 1_555 1_555
H6 C4 1_555 1_555
C5 C4 1_555 1_555
H7 C6 1_555 1_555
Eu5 O6 1_555 1_555
C5 C6 1_555 1_555
H1 O10 1_555 1_555
H2 O10 1_555 1_555
H3 O11 1_555 1_555
H4 O11 1_555 1_555
Eu5 O12 1_555 1_555
H1_2 O10_2 1_555 1_555
H2_2 O10_2 1_555 1_555
H3_2 O11_2 1_555 1_555
H4_2 O11_2 1_555 1_555
O17 C12_2 1_555 1_555
O9_2 C5_2 1_555 1_555
H6_2 C4_2 1_555 1_555
C5_2 C4_2 1_555 1_555
H7_2 C6_2 1_555 1_555
C5_2 C6_2 1_555 1_555
O12 C8_2 1_555 1_555
O13 C8_2 1_555 1_555
O14 C10_2 1_555 1_555
O15 C10_2 1_555 1_555
O7_2 C1_2 1_555 1_555
O8_2 C3_2 1_555 1_555
C1_2 C2_2 1_555 1_555
C2_2 H5_2 1_555 1_555
C3_2 C2_2 1_555 1_555
C7_2 O7_2 1_555 1_555
H8_2 C7_2 1_555 1_555
H9_2 C7_2 1_555 1_555
C8_2 C7_2 1_555 1_555
C9_2 O8_2 1_555 1_555
H10_2 C9_2 1_555 1_555
H11_2 C9_2 1_555 1_555
C10_2 C9_2 1_555 1_555
H12_2 C11_2 1_555 1_555
H13_2 C11_2 1_555 1_555

#END
