
###############################################################################
#
# This file contains modified crystal structure data generated from the
# MOF subset of the Cambridge Structural Database (CSD) v543 
# hosted by the Cambridge Crystallographic Data Centre (CCDC).
#
# This work is licensed under the Creative Commons
# Attribution-NonCommercial-ShareAlike 4.0 International License.
# To view a copy of this license, visit
# http://creativecommons.org/licenses/by-nc-sa/4.0/
# or send a letter to
# Creative Commons, PO Box 1866, Mountain View, CA 94042, USA.
#
# CIF created using the CSD Python API on 29 September 2022
# The structure has been converted into the P1 space group
# The structure has a 3D framework
# The original CSD entry NASZOA is in the triclinic crystal system
# The framework has been calculated to contain at least 10.0% void space
# The void calculation uses a probe of radius 1.32A, grid spacing 0.4
#
###############################################################################

data_NASZOA
_chemical_formula_moiety         '(C24 H26 O22)n'
_symmetry_cell_setting           triclinic
_symmetry_space_group_name_H-M   'P 1'
_symmetry_Int_Tables_number      1
_space_group_name_Hall           'P 1'
loop_
_symmetry_equiv_pos_site_id
_symmetry_equiv_pos_as_xyz
1 x,y,z
_cell_length_a                   8.8972(5)
_cell_length_b                   9.8820(7)
_cell_length_c                   10.3341(5)
_cell_angle_alpha                77.792(5)
_cell_angle_beta                 82.691(4)
_cell_angle_gamma                86.712(5)
_cell_volume                     880.399
loop_
_atom_site_label
_atom_site_type_symbol
_atom_site_fract_x
_atom_site_fract_y
_atom_site_fract_z
O10 O 0.7986(4) 0.0391(4) 0.1946(4)
H1 H 0.884860 0.063831 0.195371
H2 H 0.739330 0.077501 0.243901
O11 O 0.6357(5) 0.2317(4) 0.0074(5)
H3 H 0.660042 0.303834 0.025122
H4 H 0.545412 0.238874 0.034272
Tb5 Tb 0.25338(2) 0.00101(2) 0.01611(2)
O12 O 0.4776(4) 0.0675(4) 0.8788(4)
O13 O 0.6947(4) 0.1223(4) 0.7590(4)
O16 O 0.9567(4) 0.1329(4) 0.9203(4)
O1 O 0.5224(4) 0.9325(4) 0.1212(4)
O2 O 0.3053(4) 0.8777(4) 0.2410(4)
O3 O 0.3271(4) 0.1884(4) 0.1319(4)
O4 O 0.0968(4) 0.1116(4) 0.1784(4)
O6 O 0.1811(4) 0.2268(4) 0.8884(4)
O7 O 0.4396(4) 0.7407(4) 0.4560(4)
O8 O 0.2770(4) 0.3570(4) 0.3060(5)
O9 O 0.0796(4) 0.4649(4) 0.7371(4)
C1 C 0.3536(6) 0.6267(6) 0.4693(6)
C2 C 0.3560(7) 0.5464(6) 0.3752(6)
H5 H 0.417150 0.568286 0.294117
C3 C 0.2642(6) 0.4310(6) 0.4045(6)
C4 C 0.1694(7) 0.3963(6) 0.5243(7)
H6 H 0.108667 0.319484 0.542649
C5 C 0.1700(7) 0.4829(6) 0.6160(6)
C6 C 0.2604(7) 0.5950(6) 0.5906(6)
H7 H 0.259936 0.649817 0.653606
C7 C 0.5331(6) 0.7871(5) 0.3341(6)
H8 H 0.581522 0.707431 0.303117
H9 H 0.612243 0.843024 0.350111
C8 C 0.4464(5) 0.8709(5) 0.2270(6)
C9 C 0.1662(6) 0.2558(6) 0.3147(7)
H10 H 0.066228 0.300319 0.312956
H11 H 0.167008 0.188893 0.398113
C10 C 0.1996(5) 0.1832(5) 0.2002(6)
C12 C 0.0451(5) 0.2310(5) 0.8683(6)
O17 O 0.8189(4) 0.7732(4) 0.1116(4)
Tb1 Tb 0.74662(2) 0.99899(2) 0.98389(2)
O14 O 0.6729(4) 0.8116(4) 0.8681(4)
O15 O 0.9032(4) 0.8884(4) 0.8216(4)
C11 C 0.9789(5) 0.3528(5) 0.7803(6)
H12 H 0.950649 0.324231 0.702772
H13 H 0.887299 0.384819 0.828029
O5 O 0.0433(4) 0.8671(4) 0.0797(4)
C11_2 C 0.0211(5) 0.6472(5) 0.2197(6)
H12_2 H 0.049351 0.675769 0.297228
H13_2 H 0.112701 0.615181 0.171971
O7_2 O 0.5604(4) 0.2593(4) 0.5440(4)
O8_2 O 0.7230(4) 0.6430(4) 0.6940(5)
O9_2 O 0.9204(4) 0.5351(4) 0.2629(4)
C1_2 C 0.6464(6) 0.3733(6) 0.5307(6)
C2_2 C 0.6440(7) 0.4536(6) 0.6248(6)
H5_2 H 0.582850 0.431714 0.705883
C3_2 C 0.7358(6) 0.5690(6) 0.5955(6)
C4_2 C 0.8306(7) 0.6037(6) 0.4757(7)
H6_2 H 0.891333 0.680516 0.457351
C5_2 C 0.8300(7) 0.5171(6) 0.3840(6)
C6_2 C 0.7396(7) 0.4050(6) 0.4094(6)
H7_2 H 0.740064 0.350183 0.346394
C7_2 C 0.4669(6) 0.2129(5) 0.6659(6)
H8_2 H 0.418478 0.292569 0.696883
H9_2 H 0.387757 0.156976 0.649889
C8_2 C 0.5536(5) 0.1291(5) 0.7730(6)
C9_2 C 0.8338(6) 0.7442(6) 0.6853(7)
H10_2 H 0.933772 0.699681 0.687044
H11_2 H 0.832992 0.811107 0.601887
C10_2 C 0.8004(5) 0.8168(5) 0.7998(6)
C12_2 C 0.9549(5) 0.7690(5) 0.1317(6)
O10_2 O 0.2014(4) 0.9609(4) 0.8054(4)
H1_2 H 0.115140 0.936169 0.804629
H2_2 H 0.260670 0.922499 0.756099
O11_2 O 0.3643(5) 0.7683(4) 0.9926(5)
H3_2 H 0.339958 0.696166 0.974878
H4_2 H 0.454588 0.761126 0.965728
loop_
_geom_bond_atom_site_label_1
_geom_bond_atom_site_label_2
_geom_bond_site_symmetry_1
_geom_bond_site_symmetry_2
H1 O10 1_555 1_555
H2 O10 1_555 1_555
H3 O11 1_555 1_555
H4 O11 1_555 1_555
O1 C8 1_555 1_555
O2 C8 1_555 1_555
O3 C10 1_555 1_555
O4 C10 1_555 1_555
O6 C12 1_555 1_555
O7 C1 1_555 1_555
O8 C3 1_555 1_555
O9 C5 1_555 1_555
C1 C2 1_555 1_555
C2 H5 1_555 1_555
C3 C2 1_555 1_555
C4 C3 1_555 1_555
H6 C4 1_555 1_555
C5 C4 1_555 1_555
C6 C1 1_555 1_555
H7 C6 1_555 1_555
C7 O7 1_555 1_555
H8 C7 1_555 1_555
H9 C7 1_555 1_555
C8 C7 1_555 1_555
C9 O8 1_555 1_555
H10 C9 1_555 1_555
H11 C9 1_555 1_555
C10 C9 1_555 1_555
Tb5 O3 1_555 1_555
O4 Tb5 1_555 1_555
C5 C6 1_555 1_555
O14 Tb1 1_555 1_555
O15 Tb1 1_555 1_555
H12 C11 1_555 1_555
H13 C11 1_555 1_555
H12_2 C11_2 1_555 1_555
H13_2 C11_2 1_555 1_555
O12 C8_2 1_555 1_555
O13 C8_2 1_555 1_555
O14 C10_2 1_555 1_555
O15 C10_2 1_555 1_555
O17 C12_2 1_555 1_555
O7_2 C1_2 1_555 1_555
O8_2 C3_2 1_555 1_555
O9_2 C5_2 1_555 1_555
C1_2 C2_2 1_555 1_555
C2_2 H5_2 1_555 1_555
C3_2 C2_2 1_555 1_555
C4_2 C3_2 1_555 1_555
H6_2 C4_2 1_555 1_555
C5_2 C4_2 1_555 1_555
C6_2 C1_2 1_555 1_555
H7_2 C6_2 1_555 1_555
C7_2 O7_2 1_555 1_555
H8_2 C7_2 1_555 1_555
H9_2 C7_2 1_555 1_555
C8_2 C7_2 1_555 1_555
C9_2 O8_2 1_555 1_555
H10_2 C9_2 1_555 1_555
H11_2 C9_2 1_555 1_555
C10_2 C9_2 1_555 1_555
C5_2 C6_2 1_555 1_555
H1_2 O10_2 1_555 1_555
H2_2 O10_2 1_555 1_555
H3_2 O11_2 1_555 1_555
H4_2 O11_2 1_555 1_555

#END
