
###############################################################################
#
# This file contains modified crystal structure data generated from the
# MOF subset of the Cambridge Structural Database (CSD) v543 
# hosted by the Cambridge Crystallographic Data Centre (CCDC).
#
# This work is licensed under the Creative Commons
# Attribution-NonCommercial-ShareAlike 4.0 International License.
# To view a copy of this license, visit
# http://creativecommons.org/licenses/by-nc-sa/4.0/
# or send a letter to
# Creative Commons, PO Box 1866, Mountain View, CA 94042, USA.
#
# CIF created using the CSD Python API on 29 September 2022
# The structure has been converted into the P1 space group
# The structure has a 3D framework
# The original CSD entry NATKAX is in the orthorhombic crystal system
# The framework has been calculated to contain at least 10.0% void space
# The void calculation uses a probe of radius 1.32A, grid spacing 0.4
#
###############################################################################

data_NATKAX
_chemical_formula_moiety         '(C160 H96 Cu6 F32 N16 Si6)n'
_symmetry_cell_setting           triclinic
_symmetry_space_group_name_H-M   'P 1'
_symmetry_Int_Tables_number      1
_space_group_name_Hall           'P 1'
loop_
_symmetry_equiv_pos_site_id
_symmetry_equiv_pos_as_xyz
1 x,y,z
_cell_length_a                   29.9341(13)
_cell_length_b                   28.0390(13)
_cell_length_c                   7.9233(4)
_cell_angle_alpha                90
_cell_angle_beta                 90
_cell_angle_gamma                90
_cell_volume                     6650.2
loop_
_atom_site_label
_atom_site_type_symbol
_atom_site_fract_x
_atom_site_fract_y
_atom_site_fract_z
Cu4 Cu 0.0000 0.67641(4) 0.7500
H3 H 0.7259 0.3919 0.0027
H4 H 0.7828 0.4486 0.0047
H5 H 0.8936 0.5600 0.0013
H15 H 0.2741 0.3919 0.0027
H16 H 0.2172 0.4486 0.0047
H17 H 0.1064 0.5600 0.0013
F7 F 0.5000 0.17722(13) 0.0375(5)
Cu1 Cu 0.5000 0.17641(4) 0.7500
Si1 Si 0.5000 0.17744(9) 0.2500
F1 F 0.5000 0.17722(13) 0.4625(5)
F2 F 0.5000 0.11778(17) 0.2500
F3 F 0.44469(16) 0.1760(2) 0.2500
F4 F 0.5000 0.2361(3) 0.2500
N1 N 0.54803(17) 0.22690(19) 0.7500
N2 N 0.95164(16) 0.62508(18) 0.7500
C1 C 0.5670(3) 0.2423(3) 0.8845(11)
H1 H 0.5574 0.2292 0.9889
C2 C 0.5999(4) 0.2762(4) 0.8901(13)
H2 H 0.6117 0.2860 0.9957
C3 C 0.6150(3) 0.2950(3) 0.7500
C4 C 0.6505(4) 0.3286(4) 0.7500
C5 C 0.6818(4) 0.3570(4) 0.7500
C6 C 0.7171(3) 0.3908(4) 0.7500
C7 C 0.7364(3) 0.4048(3) 0.8992(12)
C8 C 0.7711(3) 0.4376(3) 0.9004(11)
C9 C 0.7887(3) 0.4543(3) 0.7500
C10 C 0.8231(3) 0.4883(3) 0.7500
C11 C 0.8526(3) 0.5183(3) 0.7500
C12 C 0.8857(2) 0.5540(3) 0.7500
C13 C 0.9035(2) 0.5719(2) 0.8954(9)
C14 C 0.9353(2) 0.6068(2) 0.8900(8)
H6 H 0.9464 0.6186 0.9943
F6 F 0.55531(16) 0.1760(2) 0.2500
C15 C 0.5670(3) 0.2423(3) 0.6155(11)
H7 H 0.5574 0.2292 0.5111
C16 C 0.5999(4) 0.2762(4) 0.6099(13)
H8 H 0.6117 0.2860 0.5043
C17 C 0.7364(3) 0.4048(3) 0.6008(12)
H9 H 0.7259 0.3919 0.4973
C18 C 0.7711(3) 0.4376(3) 0.5996(11)
H10 H 0.7828 0.4486 0.4953
C19 C 0.9035(2) 0.5719(2) 0.6046(9)
H11 H 0.8936 0.5600 0.4987
C20 C 0.9353(2) 0.6068(2) 0.6100(8)
H12 H 0.9464 0.6186 0.5057
N3 N 0.45197(17) 0.22690(19) 0.7500
N4 N 0.04836(16) 0.62508(18) 0.7500
C21 C 0.4330(3) 0.2423(3) 0.8845(11)
H13 H 0.4426 0.2292 0.9889
C22 C 0.4001(4) 0.2762(4) 0.8901(13)
H14 H 0.3883 0.2860 0.9957
C23 C 0.3850(3) 0.2950(3) 0.7500
C24 C 0.3495(4) 0.3286(4) 0.7500
C25 C 0.3182(4) 0.3570(4) 0.7500
C26 C 0.2829(3) 0.3908(4) 0.7500
C27 C 0.2636(3) 0.4048(3) 0.8992(12)
C28 C 0.2289(3) 0.4376(3) 0.9004(11)
C29 C 0.2113(3) 0.4543(3) 0.7500
C30 C 0.1769(3) 0.4883(3) 0.7500
C31 C 0.1474(3) 0.5183(3) 0.7500
C32 C 0.1143(2) 0.5540(3) 0.7500
C33 C 0.0965(2) 0.5719(2) 0.8954(9)
C34 C 0.0647(2) 0.6068(2) 0.8900(8)
H18 H 0.0536 0.6186 0.9943
C35 C 0.4330(3) 0.2423(3) 0.6155(11)
H19 H 0.4426 0.2292 0.5111
C36 C 0.4001(4) 0.2762(4) 0.6099(13)
H20 H 0.3883 0.2860 0.5043
C37 C 0.2636(3) 0.4048(3) 0.6008(12)
H21 H 0.2741 0.3919 0.4973
C38 C 0.2289(3) 0.4376(3) 0.5996(11)
H22 H 0.2172 0.4486 0.4953
C39 C 0.0965(2) 0.5719(2) 0.6046(9)
H23 H 0.1064 0.5600 0.4987
C40 C 0.0647(2) 0.6068(2) 0.6100(8)
H24 H 0.0536 0.6186 0.5057
Cu4_2 Cu 1.0000 0.67641(4) 0.7500
N5 N 0.45164(16) 0.12508(18) 0.7500
N6 N 0.54836(16) 0.12508(18) 0.7500
C11_2 C 0.3526(3) 0.0183(3) 0.7500
C12_2 C 0.3857(2) 0.0540(3) 0.7500
C13_2 C 0.4035(2) 0.0719(2) 0.8954(9)
C14_2 C 0.4353(2) 0.1068(2) 0.8900(8)
H6_2 H 0.4464 0.1186 0.9943
C19_2 C 0.4035(2) 0.0719(2) 0.6046(9)
H11_2 H 0.3936 0.0600 0.4987
C20_2 C 0.4353(2) 0.1068(2) 0.6100(8)
H12_2 H 0.4464 0.1186 0.5057
H3_2 H 0.2259 0.8919 0.0027
H4_2 H 0.2828 0.9486 0.0047
F7_2 F 0.0000 0.67722(13) 0.0375(5)
Si1_2 Si -0.0000 0.67744(9) 0.2500
F1_2 F 0.0000 0.67722(13) 0.4625(5)
F2_2 F -0.0000 0.61778(17) 0.2500
F4_2 F -0.0000 0.7361(3) 0.2500
N1_2 N 0.04803(17) 0.72690(19) 0.7500
C1_2 C 0.0670(3) 0.7423(3) 0.8845(11)
H1_2 H 0.0574 0.7292 0.9889
C2_2 C 0.0999(4) 0.7762(4) 0.8901(13)
H2_2 H 0.1117 0.7860 0.9957
C3_2 C 0.1150(3) 0.7950(3) 0.7500
C4_2 C 0.1505(4) 0.8286(4) 0.7500
C5_2 C 0.1818(4) 0.8570(4) 0.7500
C6_2 C 0.2171(3) 0.8908(4) 0.7500
C7_2 C 0.2364(3) 0.9048(3) 0.8992(12)
C8_2 C 0.2711(3) 0.9376(3) 0.9004(11)
C9_2 C 0.2887(3) 0.9543(3) 0.7500
C10_2 C 0.3231(3) 0.9883(3) 0.7500
F6_2 F 0.05531(16) 0.6760(2) 0.2500
C15_2 C 0.0670(3) 0.7423(3) 0.6155(11)
H7_2 H 0.0574 0.7292 0.5111
C16_2 C 0.0999(4) 0.7762(4) 0.6099(13)
H8_2 H 0.1117 0.7860 0.5043
C17_2 C 0.2364(3) 0.9048(3) 0.6008(12)
H9_2 H 0.2259 0.8919 0.4973
C18_2 C 0.2711(3) 0.9376(3) 0.5996(11)
H10_2 H 0.2828 0.9486 0.4953
C31_2 C 0.6474(3) 0.0183(3) 0.7500
C32_2 C 0.6143(2) 0.0540(3) 0.7500
C33_2 C 0.5965(2) 0.0719(2) 0.8954(9)
C34_2 C 0.5647(2) 0.1068(2) 0.8900(8)
H18_2 H 0.5536 0.1186 0.9943
C39_2 C 0.5965(2) 0.0719(2) 0.6046(9)
H23_2 H 0.6064 0.0600 0.4987
C40_2 C 0.5647(2) 0.1068(2) 0.6100(8)
H24_2 H 0.5536 0.1186 0.5057
H15_2 H 0.7741 0.8919 0.0027
H16_2 H 0.7172 0.9486 0.0047
F7_3 F 1.0000 0.67722(13) 0.0375(5)
Si1_3 Si 1.0000 0.67744(9) 0.2500
F1_3 F 1.0000 0.67722(13) 0.4625(5)
F2_3 F 1.0000 0.61778(17) 0.2500
F3_2 F 0.94469(16) 0.6760(2) 0.2500
F4_3 F 1.0000 0.7361(3) 0.2500
N3_2 N 0.95197(17) 0.72690(19) 0.7500
C21_2 C 0.9330(3) 0.7423(3) 0.8845(11)
H13_2 H 0.9426 0.7292 0.9889
C22_2 C 0.9001(4) 0.7762(4) 0.8901(13)
H14_2 H 0.8883 0.7860 0.9957
C23_2 C 0.8850(3) 0.7950(3) 0.7500
C24_2 C 0.8495(4) 0.8286(4) 0.7500
C25_2 C 0.8182(4) 0.8570(4) 0.7500
C26_2 C 0.7829(3) 0.8908(4) 0.7500
C27_2 C 0.7636(3) 0.9048(3) 0.8992(12)
C28_2 C 0.7289(3) 0.9376(3) 0.9004(11)
C29_2 C 0.7113(3) 0.9543(3) 0.7500
C30_2 C 0.6769(3) 0.9883(3) 0.7500
C35_2 C 0.9330(3) 0.7423(3) 0.6155(11)
H19_2 H 0.9426 0.7292 0.5111
C36_2 C 0.9001(4) 0.7762(4) 0.6099(13)
H20_2 H 0.8883 0.7860 0.5043
C37_2 C 0.7636(3) 0.9048(3) 0.6008(12)
H21_2 H 0.7741 0.8919 0.4973
C38_2 C 0.7289(3) 0.9376(3) 0.5996(11)
H22_2 H 0.7172 0.9486 0.4953
Cu3 Cu -0.0000 0.32359(4) 0.2500
Cu1_2 Cu 0.5000 0.82359(4) 0.2500
N1_3 N 0.45197(17) 0.77310(19) 0.2500
N2_2 N 0.04836(16) 0.37492(18) 0.2500
C1_3 C 0.4330(3) 0.7577(3) 0.3845(11)
H1_3 H 0.4426 0.7708 0.4889
C2_3 C 0.4001(4) 0.7238(4) 0.3901(13)
H2_3 H 0.3883 0.7140 0.4957
C3_3 C 0.3850(3) 0.7050(3) 0.2500
C4_3 C 0.3495(4) 0.6714(4) 0.2500
C5_3 C 0.3182(4) 0.6430(4) 0.2500
C6_3 C 0.2829(3) 0.6092(4) 0.2500
C7_3 C 0.2636(3) 0.5952(3) 0.3992(12)
H3_3 H 0.2741 0.6081 0.5027
C8_3 C 0.2289(3) 0.5624(3) 0.4004(11)
H4_3 H 0.2172 0.5514 0.5047
C9_3 C 0.2113(3) 0.5457(3) 0.2500
C10_3 C 0.1769(3) 0.5117(3) 0.2500
C11_3 C 0.1474(3) 0.4817(3) 0.2500
C12_3 C 0.1143(2) 0.4460(3) 0.2500
C13_3 C 0.0965(2) 0.4281(2) 0.3954(9)
H5_2 H 0.1064 0.4400 0.5013
C14_3 C 0.0647(2) 0.3932(2) 0.3900(8)
H6_3 H 0.0536 0.3814 0.4943
C15_3 C 0.4330(3) 0.7577(3) 0.1155(11)
H7_3 H 0.4426 0.7708 0.0111
C16_3 C 0.4001(4) 0.7238(4) 0.1099(13)
H8_3 H 0.3883 0.7140 0.0043
C17_3 C 0.2636(3) 0.5952(3) 0.1008(12)
C18_3 C 0.2289(3) 0.5624(3) 0.0996(11)
C19_3 C 0.0965(2) 0.4281(2) 0.1046(9)
C20_3 C 0.0647(2) 0.3932(2) 0.1100(8)
H12_3 H 0.0536 0.3814 0.0057
N3_3 N 0.54803(17) 0.77310(19) 0.2500
N4_2 N 0.95164(16) 0.37492(18) 0.2500
C21_3 C 0.5670(3) 0.7577(3) 0.3845(11)
H13_3 H 0.5574 0.7708 0.4889
C22_3 C 0.5999(4) 0.7238(4) 0.3901(13)
H14_3 H 0.6117 0.7140 0.4957
C23_3 C 0.6150(3) 0.7050(3) 0.2500
C24_3 C 0.6505(4) 0.6714(4) 0.2500
C25_3 C 0.6818(4) 0.6430(4) 0.2500
C26_3 C 0.7171(3) 0.6092(4) 0.2500
C27_3 C 0.7364(3) 0.5952(3) 0.3992(12)
H15_3 H 0.7259 0.6081 0.5027
C28_3 C 0.7711(3) 0.5624(3) 0.4004(11)
H16_3 H 0.7828 0.5514 0.5047
C29_3 C 0.7887(3) 0.5457(3) 0.2500
C30_3 C 0.8231(3) 0.5117(3) 0.2500
C31_3 C 0.8526(3) 0.4817(3) 0.2500
C32_3 C 0.8857(2) 0.4460(3) 0.2500
C33_3 C 0.9035(2) 0.4281(2) 0.3954(9)
H17_2 H 0.8936 0.4400 0.5013
C34_3 C 0.9353(2) 0.3932(2) 0.3900(8)
H18_3 H 0.9464 0.3814 0.4943
C35_3 C 0.5670(3) 0.7577(3) 0.1155(11)
H19_3 H 0.5574 0.7708 0.0111
C36_3 C 0.5999(4) 0.7238(4) 0.1099(13)
H20_3 H 0.6117 0.7140 0.0043
C37_3 C 0.7364(3) 0.5952(3) 0.1008(12)
C38_3 C 0.7711(3) 0.5624(3) 0.0996(11)
C39_3 C 0.9035(2) 0.4281(2) 0.1046(9)
C40_3 C 0.9353(2) 0.3932(2) 0.1100(8)
H24_3 H 0.9464 0.3814 0.0057
Cu3_2 Cu 1.0000 0.32359(4) 0.2500
F7_4 F 0.5000 0.82278(13) 0.5375(5)
N5_2 N 0.54836(16) 0.87492(18) 0.2500
N6_2 N 0.45164(16) 0.87492(18) 0.2500
Si1_4 Si 0.5000 0.82256(9) 0.7500
F1_4 F 0.5000 0.82278(13) 0.9625(5)
F2_4 F 0.5000 0.88222(17) 0.7500
F3_3 F 0.55531(16) 0.8240(2) 0.7500
F4_4 F 0.5000 0.7639(3) 0.7500
F6_3 F 0.44469(16) 0.8240(2) 0.7500
H9_3 H 0.2741 0.6081 0.9973
H10_3 H 0.2172 0.5514 0.9953
H11_3 H 0.1064 0.4400 0.9987
H21_3 H 0.7259 0.6081 0.9973
H22_3 H 0.7828 0.5514 0.9953
H23_3 H 0.8936 0.4400 0.9987
N3_4 N 0.04803(17) 0.27310(19) 0.2500
C21_4 C 0.0670(3) 0.2577(3) 0.3845(11)
H13_4 H 0.0574 0.2708 0.4889
C22_4 C 0.0999(4) 0.2238(4) 0.3901(13)
H14_4 H 0.1117 0.2140 0.4957
C23_4 C 0.1150(3) 0.2050(3) 0.2500
C24_4 C 0.1505(4) 0.1714(4) 0.2500
C25_4 C 0.1818(4) 0.1430(4) 0.2500
C26_4 C 0.2171(3) 0.1092(4) 0.2500
C27_4 C 0.2364(3) 0.0952(3) 0.3992(12)
H15_4 H 0.2259 0.1081 0.5027
C28_4 C 0.2711(3) 0.0624(3) 0.4004(11)
H16_4 H 0.2828 0.0514 0.5047
C29_4 C 0.2887(3) 0.0457(3) 0.2500
C30_4 C 0.3231(3) 0.0117(3) 0.2500
C35_4 C 0.0670(3) 0.2577(3) 0.1155(11)
H19_4 H 0.0574 0.2708 0.0111
C36_4 C 0.0999(4) 0.2238(4) 0.1099(13)
H20_4 H 0.1117 0.2140 0.0043
C37_4 C 0.2364(3) 0.0952(3) 0.1008(12)
C38_4 C 0.2711(3) 0.0624(3) 0.0996(11)
F7_5 F 0.0000 0.32278(13) 0.5375(5)
Si1_5 Si 0.0000 0.32256(9) 0.7500
F1_5 F 0.0000 0.32278(13) 0.9625(5)
F2_5 F 0.0000 0.38222(17) 0.7500
F3_4 F 0.05531(16) 0.3240(2) 0.7500
F4_5 F 0.0000 0.2639(3) 0.7500
H21_4 H 0.2259 0.1081 0.9973
H22_4 H 0.2828 0.0514 0.9953
C31_4 C 0.3526(3) 0.9817(3) 0.2500
C32_4 C 0.3857(2) 0.9460(3) 0.2500
C33_4 C 0.4035(2) 0.9281(2) 0.3954(9)
H17_3 H 0.3936 0.9400 0.5013
C34_4 C 0.4353(2) 0.8932(2) 0.3900(8)
H18_4 H 0.4464 0.8814 0.4943
C39_4 C 0.4035(2) 0.9281(2) 0.1046(9)
C40_4 C 0.4353(2) 0.8932(2) 0.1100(8)
H24_4 H 0.4464 0.8814 0.0057
N1_4 N 0.95197(17) 0.27310(19) 0.2500
C1_4 C 0.9330(3) 0.2577(3) 0.3845(11)
H1_4 H 0.9426 0.2708 0.4889
C2_4 C 0.9001(4) 0.2238(4) 0.3901(13)
H2_4 H 0.8883 0.2140 0.4957
C3_4 C 0.8850(3) 0.2050(3) 0.2500
C4_4 C 0.8495(4) 0.1714(4) 0.2500
C5_4 C 0.8182(4) 0.1430(4) 0.2500
C6_4 C 0.7829(3) 0.1092(4) 0.2500
C7_4 C 0.7636(3) 0.0952(3) 0.3992(12)
H3_4 H 0.7741 0.1081 0.5027
C8_4 C 0.7289(3) 0.0624(3) 0.4004(11)
H4_4 H 0.7172 0.0514 0.5047
C9_4 C 0.7113(3) 0.0457(3) 0.2500
C10_4 C 0.6769(3) 0.0117(3) 0.2500
C15_4 C 0.9330(3) 0.2577(3) 0.1155(11)
H7_4 H 0.9426 0.2708 0.0111
C16_4 C 0.9001(4) 0.2238(4) 0.1099(13)
H8_4 H 0.8883 0.2140 0.0043
C17_4 C 0.7636(3) 0.0952(3) 0.1008(12)
C18_4 C 0.7289(3) 0.0624(3) 0.0996(11)
F7_6 F 1.0000 0.32278(13) 0.5375(5)
Si1_6 Si 1.0000 0.32256(9) 0.7500
F1_6 F 1.0000 0.32278(13) 0.9625(5)
F2_6 F 1.0000 0.38222(17) 0.7500
F4_6 F 1.0000 0.2639(3) 0.7500
F6_4 F 0.94469(16) 0.3240(2) 0.7500
H9_4 H 0.7741 0.1081 0.9973
H10_4 H 0.7172 0.0514 0.9953
C11_4 C 0.6474(3) 0.9817(3) 0.2500
C12_4 C 0.6143(2) 0.9460(3) 0.2500
C13_4 C 0.5965(2) 0.9281(2) 0.3954(9)
H5_3 H 0.6064 0.9400 0.5013
C14_4 C 0.5647(2) 0.8932(2) 0.3900(8)
H6_4 H 0.5536 0.8814 0.4943
C19_4 C 0.5965(2) 0.9281(2) 0.1046(9)
C20_4 C 0.5647(2) 0.8932(2) 0.1100(8)
H12_4 H 0.5536 0.8814 0.0057
H5_4 H 0.3936 0.0600 0.0013
H17_4 H 0.6064 0.0600 0.0013
H23_4 H 0.3936 0.9400 0.9987
H11_4 H 0.6064 0.9400 0.9987
loop_
_geom_bond_atom_site_label_1
_geom_bond_atom_site_label_2
_geom_bond_site_symmetry_1
_geom_bond_site_symmetry_2
Cu1 F1 1_555 1_555
Si1 F1 1_555 1_555
F2 Si1 1_555 1_555
F3 Si1 1_555 1_555
F4 Si1 1_555 1_555
N1 Cu1 1_555 1_555
N2 C14 1_555 1_555
C1 N1 1_555 1_555
H1 C1 1_555 1_555
C2 C1 1_555 1_555
H2 C2 1_555 1_555
C3 C2 1_555 1_555
C4 C3 1_555 1_555
C5 C4 1_555 1_555
C6 C5 1_555 1_555
C7 C6 1_555 1_555
C8 C7 1_555 1_555
C9 C8 1_555 1_555
C10 C9 1_555 1_555
C11 C10 1_555 1_555
C12 C11 1_555 1_555
C13 C12 1_555 1_555
C14 C13 1_555 1_555
H6 C14 1_555 1_555
F7 Si1 1_555 1_555
F6 Si1 1_555 1_555
C15 N1 1_555 1_555
H7 C15 1_555 1_555
C16 C3 1_555 1_555
H8 C16 1_555 1_555
C17 C6 1_555 1_555
H9 C17 1_555 1_555
C18 C9 1_555 1_555
H10 C18 1_555 1_555
C19 C12 1_555 1_555
H11 C19 1_555 1_555
C20 N2 1_555 1_555
H12 C20 1_555 1_555
N3 Cu1 1_555 1_555
N4 C34 1_555 1_555
C21 N3 1_555 1_555
H13 C21 1_555 1_555
C22 C21 1_555 1_555
H14 C22 1_555 1_555
C23 C22 1_555 1_555
C24 C23 1_555 1_555
C25 C24 1_555 1_555
C26 C25 1_555 1_555
C27 C26 1_555 1_555
C28 C27 1_555 1_555
C29 C28 1_555 1_555
C30 C29 1_555 1_555
C31 C30 1_555 1_555
C32 C31 1_555 1_555
C33 C32 1_555 1_555
C34 C33 1_555 1_555
H18 C34 1_555 1_555
C35 N3 1_555 1_555
H19 C35 1_555 1_555
C36 C23 1_555 1_555
H20 C36 1_555 1_555
C37 C26 1_555 1_555
H21 C37 1_555 1_555
C38 C29 1_555 1_555
H22 C38 1_555 1_555
C39 C32 1_555 1_555
H23 C39 1_555 1_555
C40 N4 1_555 1_555
H24 C40 1_555 1_555
Cu4 N4 1_555 1_555
Cu4_2 N2 1_555 1_555
N5 Cu1 1_555 1_555
N6 Cu1 1_555 1_555
C15 C16 1_555 1_555
C17 C18 1_555 1_555
C19 C20 1_555 1_555
C35 C36 1_555 1_555
C37 C38 1_555 1_555
C39 C40 1_555 1_555
N5 C14_2 1_555 1_555
C12_2 C11_2 1_555 1_555
C13_2 C12_2 1_555 1_555
C14_2 C13_2 1_555 1_555
H6_2 C14_2 1_555 1_555
C19_2 C12_2 1_555 1_555
H11_2 C19_2 1_555 1_555
C20_2 N5 1_555 1_555
H12_2 C20_2 1_555 1_555
C19_2 C20_2 1_555 1_555
Cu4 F1_2 1_555 1_555
Si1_2 F1_2 1_555 1_555
F2_2 Si1_2 1_555 1_555
F4_2 Si1_2 1_555 1_555
N1_2 Cu4 1_555 1_555
C1_2 N1_2 1_555 1_555
H1_2 C1_2 1_555 1_555
C2_2 C1_2 1_555 1_555
H2_2 C2_2 1_555 1_555
C3_2 C2_2 1_555 1_555
C4_2 C3_2 1_555 1_555
C5_2 C4_2 1_555 1_555
C6_2 C5_2 1_555 1_555
C7_2 C6_2 1_555 1_555
C8_2 C7_2 1_555 1_555
C9_2 C8_2 1_555 1_555
C10_2 C9_2 1_555 1_555
F7_2 Si1_2 1_555 1_555
F6_2 Si1_2 1_555 1_555
C15_2 N1_2 1_555 1_555
H7_2 C15_2 1_555 1_555
C16_2 C3_2 1_555 1_555
H8_2 C16_2 1_555 1_555
C17_2 C6_2 1_555 1_555
H9_2 C17_2 1_555 1_555
C18_2 C9_2 1_555 1_555
H10_2 C18_2 1_555 1_555
C15_2 C16_2 1_555 1_555
C17_2 C18_2 1_555 1_555
N6 C34_2 1_555 1_555
C32_2 C31_2 1_555 1_555
C33_2 C32_2 1_555 1_555
C34_2 C33_2 1_555 1_555
H18_2 C34_2 1_555 1_555
C39_2 C32_2 1_555 1_555
H23_2 C39_2 1_555 1_555
C40_2 N6 1_555 1_555
H24_2 C40_2 1_555 1_555
C39_2 C40_2 1_555 1_555
Cu4_2 F1_3 1_555 1_555
Si1_3 F1_3 1_555 1_555
F2_3 Si1_3 1_555 1_555
F3_2 Si1_3 1_555 1_555
F4_3 Si1_3 1_555 1_555
F7_3 Si1_3 1_555 1_555
N3_2 Cu4_2 1_555 1_555
C21_2 N3_2 1_555 1_555
H13_2 C21_2 1_555 1_555
C22_2 C21_2 1_555 1_555
H14_2 C22_2 1_555 1_555
C23_2 C22_2 1_555 1_555
C24_2 C23_2 1_555 1_555
C25_2 C24_2 1_555 1_555
C26_2 C25_2 1_555 1_555
C27_2 C26_2 1_555 1_555
C28_2 C27_2 1_555 1_555
C29_2 C28_2 1_555 1_555
C30_2 C29_2 1_555 1_555
C35_2 N3_2 1_555 1_555
H19_2 C35_2 1_555 1_555
C36_2 C23_2 1_555 1_555
H20_2 C36_2 1_555 1_555
C37_2 C26_2 1_555 1_555
H21_2 C37_2 1_555 1_555
C38_2 C29_2 1_555 1_555
H22_2 C38_2 1_555 1_555
C35_2 C36_2 1_555 1_555
C37_2 C38_2 1_555 1_555
N1_3 Cu1_2 1_555 1_555
N2_2 C14_3 1_555 1_555
C1_3 N1_3 1_555 1_555
H1_3 C1_3 1_555 1_555
C2_3 C1_3 1_555 1_555
H2_3 C2_3 1_555 1_555
C3_3 C2_3 1_555 1_555
C4_3 C3_3 1_555 1_555
C5_3 C4_3 1_555 1_555
C6_3 C5_3 1_555 1_555
C7_3 C6_3 1_555 1_555
H3_3 C7_3 1_555 1_555
C8_3 C7_3 1_555 1_555
H4_3 C8_3 1_555 1_555
C9_3 C8_3 1_555 1_555
C10_3 C9_3 1_555 1_555
C11_3 C10_3 1_555 1_555
C12_3 C11_3 1_555 1_555
C13_3 C12_3 1_555 1_555
H5_2 C13_3 1_555 1_555
C14_3 C13_3 1_555 1_555
H6_3 C14_3 1_555 1_555
C15_3 N1_3 1_555 1_555
H7_3 C15_3 1_555 1_555
C16_3 C3_3 1_555 1_555
H8_3 C16_3 1_555 1_555
C17_3 C6_3 1_555 1_555
C18_3 C9_3 1_555 1_555
C19_3 C12_3 1_555 1_555
C20_3 N2_2 1_555 1_555
H12_3 C20_3 1_555 1_555
N3_3 Cu1_2 1_555 1_555
N4_2 C34_3 1_555 1_555
C21_3 N3_3 1_555 1_555
H13_3 C21_3 1_555 1_555
C22_3 C21_3 1_555 1_555
H14_3 C22_3 1_555 1_555
C23_3 C22_3 1_555 1_555
C24_3 C23_3 1_555 1_555
C25_3 C24_3 1_555 1_555
C26_3 C25_3 1_555 1_555
C27_3 C26_3 1_555 1_555
H15_3 C27_3 1_555 1_555
C28_3 C27_3 1_555 1_555
H16_3 C28_3 1_555 1_555
C29_3 C28_3 1_555 1_555
C30_3 C29_3 1_555 1_555
C31_3 C30_3 1_555 1_555
C32_3 C31_3 1_555 1_555
C33_3 C32_3 1_555 1_555
H17_2 C33_3 1_555 1_555
C34_3 C33_3 1_555 1_555
H18_3 C34_3 1_555 1_555
C35_3 N3_3 1_555 1_555
H19_3 C35_3 1_555 1_555
C36_3 C23_3 1_555 1_555
H20_3 C36_3 1_555 1_555
C37_3 C26_3 1_555 1_555
C38_3 C29_3 1_555 1_555
C39_3 C32_3 1_555 1_555
C40_3 N4_2 1_555 1_555
H24_3 C40_3 1_555 1_555
Cu3_2 N4_2 1_555 1_555
Cu3 N2_2 1_555 1_555
F7_4 Cu1_2 1_555 1_555
N5_2 Cu1_2 1_555 1_555
N6_2 Cu1_2 1_555 1_555
C15_3 C16_3 1_555 1_555
C17_3 C18_3 1_555 1_555
C19_3 C20_3 1_555 1_555
C35_3 C36_3 1_555 1_555
C37_3 C38_3 1_555 1_555
C39_3 C40_3 1_555 1_555
Si1_4 F1_4 1_555 1_555
F2_4 Si1_4 1_555 1_555
F3_3 Si1_4 1_555 1_555
F4_4 Si1_4 1_555 1_555
F7_4 Si1_4 1_555 1_555
F6_3 Si1_4 1_555 1_555
N3_4 Cu3 1_555 1_555
C21_4 N3_4 1_555 1_555
H13_4 C21_4 1_555 1_555
C22_4 C21_4 1_555 1_555
H14_4 C22_4 1_555 1_555
C23_4 C22_4 1_555 1_555
C24_4 C23_4 1_555 1_555
C25_4 C24_4 1_555 1_555
C26_4 C25_4 1_555 1_555
C27_4 C26_4 1_555 1_555
H15_4 C27_4 1_555 1_555
C28_4 C27_4 1_555 1_555
H16_4 C28_4 1_555 1_555
C29_4 C28_4 1_555 1_555
C30_4 C29_4 1_555 1_555
C35_4 N3_4 1_555 1_555
H19_4 C35_4 1_555 1_555
C36_4 C23_4 1_555 1_555
H20_4 C36_4 1_555 1_555
C37_4 C26_4 1_555 1_555
C38_4 C29_4 1_555 1_555
F7_5 Cu3 1_555 1_555
C35_4 C36_4 1_555 1_555
C37_4 C38_4 1_555 1_555
Si1_5 F1_5 1_555 1_555
F2_5 Si1_5 1_555 1_555
F3_4 Si1_5 1_555 1_555
F4_5 Si1_5 1_555 1_555
F7_5 Si1_5 1_555 1_555
N6_2 C34_4 1_555 1_555
C32_4 C31_4 1_555 1_555
C33_4 C32_4 1_555 1_555
H17_3 C33_4 1_555 1_555
C34_4 C33_4 1_555 1_555
H18_4 C34_4 1_555 1_555
C39_4 C32_4 1_555 1_555
C40_4 N6_2 1_555 1_555
H24_4 C40_4 1_555 1_555
C39_4 C40_4 1_555 1_555
N1_4 Cu3_2 1_555 1_555
C1_4 N1_4 1_555 1_555
H1_4 C1_4 1_555 1_555
C2_4 C1_4 1_555 1_555
H2_4 C2_4 1_555 1_555
C3_4 C2_4 1_555 1_555
C4_4 C3_4 1_555 1_555
C5_4 C4_4 1_555 1_555
C6_4 C5_4 1_555 1_555
C7_4 C6_4 1_555 1_555
H3_4 C7_4 1_555 1_555
C8_4 C7_4 1_555 1_555
H4_4 C8_4 1_555 1_555
C9_4 C8_4 1_555 1_555
C10_4 C9_4 1_555 1_555
C15_4 N1_4 1_555 1_555
H7_4 C15_4 1_555 1_555
C16_4 C3_4 1_555 1_555
H8_4 C16_4 1_555 1_555
C17_4 C6_4 1_555 1_555
C18_4 C9_4 1_555 1_555
F7_6 Cu3_2 1_555 1_555
C15_4 C16_4 1_555 1_555
C17_4 C18_4 1_555 1_555
Si1_6 F1_6 1_555 1_555
F2_6 Si1_6 1_555 1_555
F4_6 Si1_6 1_555 1_555
F7_6 Si1_6 1_555 1_555
F6_4 Si1_6 1_555 1_555
N5_2 C14_4 1_555 1_555
C12_4 C11_4 1_555 1_555
C13_4 C12_4 1_555 1_555
H5_3 C13_4 1_555 1_555
C14_4 C13_4 1_555 1_555
H6_4 C14_4 1_555 1_555
C19_4 C12_4 1_555 1_555
C20_4 N5_2 1_555 1_555
H12_4 C20_4 1_555 1_555
C19_4 C20_4 1_555 1_555

#END
