
###############################################################################
#
# This file contains modified crystal structure data generated from the
# MOF subset of the Cambridge Structural Database (CSD) v543 
# hosted by the Cambridge Crystallographic Data Centre (CCDC).
#
# This work is licensed under the Creative Commons
# Attribution-NonCommercial-ShareAlike 4.0 International License.
# To view a copy of this license, visit
# http://creativecommons.org/licenses/by-nc-sa/4.0/
# or send a letter to
# Creative Commons, PO Box 1866, Mountain View, CA 94042, USA.
#
# CIF created using the CSD Python API on 29 September 2022
# The structure has been converted into the P1 space group
# The structure has a 3D framework
# The original CSD entry NATPEH is in the orthorhombic crystal system
# The original CSD entry NATPEH is in a Sohncke space group
# The framework has been calculated to contain at least 10.0% void space
# The void calculation uses a probe of radius 1.32A, grid spacing 0.4
#
###############################################################################

data_NATPEH
_chemical_formula_moiety         '(C48 H24 Fe12 N8 O14 S8)n'
_symmetry_cell_setting           triclinic
_symmetry_space_group_name_H-M   'P 1'
_symmetry_Int_Tables_number      1
_space_group_name_Hall           'P 1'
loop_
_symmetry_equiv_pos_site_id
_symmetry_equiv_pos_as_xyz
1 x,y,z
_cell_length_a                   11.809(5)
_cell_length_b                   13.220(6)
_cell_length_c                   12.317(6)
_cell_angle_alpha                90
_cell_angle_beta                 90
_cell_angle_gamma                90
_cell_volume                     1922.87
loop_
_atom_site_label
_atom_site_type_symbol
_atom_site_fract_x
_atom_site_fract_y
_atom_site_fract_z
Fe3 Fe 0.10928(6) -0.000000 0.000000
Fe3_2 Fe 0.10928(6) -0.000000 1.000000
O5 O 0.0110(3) 0.1107(2) 0.5265(3)
O4 O 0.4473(3) 0.6949(2) 0.1268(3)
C11 C 0.3036(4) 0.8223(3) 0.0131(4)
H6 H 0.303574 0.823497 0.088611
C12 C 0.4410(4) 0.6788(3) 0.0244(3)
Fe3_3 Fe 0.10928(6) 1.000000 0.000000
Fe5 Fe 0.60928(6) 0.500000 0.000000
Fe7 Fe 0.500000 0.61376(6) 0.250000
Fe2 Fe -0.000000 0.88624(6) 0.750000
S2 S 0.15656(9) 0.98765(7) 0.79427(8)
N2 N 0.2390(3) 0.8894(2) 0.9601(3)
O3 O 0.4890(3) 0.6107(2) 0.9735(3)
C7 C 0.2421(3) 0.8911(3) 0.8507(3)
C8 C 0.3081(4) 0.8227(3) 0.7917(4)
H4 H 0.310336 0.825127 0.716247
C9 C 0.3697(4) 0.7518(3) 0.8480(4)
H5 H 0.411601 0.703386 0.810708
C10 C 0.3693(3) 0.7524(3) 0.9617(3)
Fe3_4 Fe 0.10928(6) 1.000000 1.000000
Fe5_2 Fe 0.60928(6) 0.500000 1.000000
O6 O 0.0110(3) 0.8893(2) 0.4735(3)
O8 O 0.0527(3) 0.8051(2) 0.6268(3)
Fe1 Fe 0.89072(6) -0.000000 0.500000
S3 S 0.84344(9) 0.01235(7) 0.29427(8)
N3 N 0.7610(3) 0.1106(2) 0.4601(3)
Fe1_2 Fe 0.89072(6) 1.000000 0.500000
Fe2_2 Fe 1.000000 0.88624(6) 0.750000
S1 S 0.84344(9) 0.98765(7) 0.70573(8)
N1 N 0.7610(3) 0.8894(2) 0.5399(3)
O1 O 0.5110(3) 0.6107(2) 0.5265(3)
O2 O 0.5527(3) 0.6949(2) 0.3732(3)
C1 C 0.7579(3) 0.8911(3) 0.6493(3)
C2 C 0.6919(4) 0.8227(3) 0.7083(4)
H1 H 0.689664 0.825127 0.783753
C3 C 0.6303(4) 0.7518(3) 0.6520(4)
H2 H 0.588399 0.703386 0.689292
C4 C 0.6307(3) 0.7524(3) 0.5383(3)
C5 C 0.6964(4) 0.8223(3) 0.4869(4)
H3 H 0.696426 0.823497 0.411389
C6 C 0.5590(4) 0.6788(3) 0.4756(3)
Fe4 Fe 0.39072(6) 0.500000 0.500000
O7 O 0.9473(3) 0.8051(2) 0.8732(3)
Fe2_3 Fe 0.000000 0.11376(6) 0.250000
S1_2 S 0.15656(9) 0.01235(7) 0.20573(8)
N1_2 N 0.2390(3) 0.1106(2) 0.0399(3)
O1_2 O 0.4890(3) 0.3893(2) 0.0265(3)
C1_2 C 0.2421(3) 0.1089(3) 0.1493(3)
C2_2 C 0.3081(4) 0.1773(3) 0.2083(4)
H1_2 H 0.310336 0.174873 0.283753
C3_2 C 0.3697(4) 0.2482(3) 0.1520(4)
H2_2 H 0.411601 0.296614 0.189292
C4_2 C 0.3693(3) 0.2476(3) 0.0383(3)
O7_2 O 0.0527(3) 0.1949(2) 0.3732(3)
O2_2 O 0.4473(3) 0.3051(2) 0.8732(3)
C5_2 C 0.3036(4) 0.1777(3) 0.9869(4)
H3_2 H 0.303574 0.176503 0.911389
C6_2 C 0.4410(4) 0.3212(3) 0.9756(3)
Fe6 Fe 0.500000 0.38624(6) 0.750000
Fe2_4 Fe 1.000000 0.11376(6) 0.250000
O3_2 O 0.5110(3) 0.3893(2) 0.4735(3)
O4_2 O 0.5527(3) 0.3051(2) 0.6268(3)
C7_2 C 0.7579(3) 0.1089(3) 0.3507(3)
C8_2 C 0.6919(4) 0.1773(3) 0.2917(4)
H4_2 H 0.689664 0.174873 0.216247
C9_2 C 0.6303(4) 0.2482(3) 0.3480(4)
H5_2 H 0.588399 0.296614 0.310708
C10_2 C 0.6307(3) 0.2476(3) 0.4617(3)
C11_2 C 0.6964(4) 0.1777(3) 0.5131(4)
H6_2 H 0.696426 0.176503 0.588611
C12_2 C 0.5590(4) 0.3212(3) 0.5244(3)
O8_2 O 0.9473(3) 0.1949(2) 0.1268(3)
O6_2 O 0.9890(3) 0.1107(2) 0.9735(3)
O5_2 O 0.9890(3) 0.8893(2) 0.0265(3)
C11_3 C 0.8036(4) 0.3223(3) 0.0131(4)
H6_3 H 0.803574 0.323497 0.088611
C12_3 C 0.9410(4) 0.1788(3) 0.0244(3)
S1_3 S 0.34344(9) 0.48765(7) 0.70573(8)
N1_3 N 0.2610(3) 0.3894(2) 0.5399(3)
C1_3 C 0.2579(3) 0.3911(3) 0.6493(3)
C2_3 C 0.1919(4) 0.3227(3) 0.7083(4)
H1_3 H 0.189664 0.325127 0.783753
C3_3 C 0.1303(4) 0.2518(3) 0.6520(4)
H2_3 H 0.088399 0.203386 0.689292
C4_3 C 0.1307(3) 0.2524(3) 0.5383(3)
C5_3 C 0.1964(4) 0.3223(3) 0.4869(4)
H3_3 H 0.196426 0.323497 0.411389
C6_3 C 0.0590(4) 0.1788(3) 0.4756(3)
S2_2 S 0.65656(9) 0.48765(7) 0.79427(8)
N2_2 N 0.7390(3) 0.3894(2) 0.9601(3)
C7_3 C 0.7421(3) 0.3911(3) 0.8507(3)
C8_3 C 0.8081(4) 0.3227(3) 0.7917(4)
H4_3 H 0.810336 0.325127 0.716247
C9_3 C 0.8697(4) 0.2518(3) 0.8480(4)
H5_3 H 0.911601 0.203386 0.810708
C10_3 C 0.8693(3) 0.2524(3) 0.9617(3)
S3_2 S 0.34344(9) 0.51235(7) 0.29427(8)
N3_2 N 0.2610(3) 0.6106(2) 0.4601(3)
S1_4 S 0.65656(9) 0.51235(7) 0.20573(8)
N1_4 N 0.7390(3) 0.6106(2) 0.0399(3)
C1_4 C 0.7421(3) 0.6089(3) 0.1493(3)
C2_4 C 0.8081(4) 0.6773(3) 0.2083(4)
H1_4 H 0.810336 0.674873 0.283753
C3_4 C 0.8697(4) 0.7482(3) 0.1520(4)
H2_4 H 0.911601 0.796614 0.189292
C4_4 C 0.8693(3) 0.7476(3) 0.0383(3)
C7_4 C 0.2579(3) 0.6089(3) 0.3507(3)
C8_4 C 0.1919(4) 0.6773(3) 0.2917(4)
H4_4 H 0.189664 0.674873 0.216247
C9_4 C 0.1303(4) 0.7482(3) 0.3480(4)
H5_4 H 0.088399 0.796614 0.310708
C10_4 C 0.1307(3) 0.7476(3) 0.4617(3)
C11_4 C 0.1964(4) 0.6777(3) 0.5131(4)
H6_4 H 0.196426 0.676503 0.588611
C12_4 C 0.0590(4) 0.8212(3) 0.5244(3)
C5_4 C 0.8036(4) 0.6777(3) 0.9869(4)
H3_4 H 0.803574 0.676503 0.911389
C6_4 C 0.9410(4) 0.8212(3) 0.9756(3)
loop_
_geom_bond_atom_site_label_1
_geom_bond_atom_site_label_2
_geom_bond_site_symmetry_1
_geom_bond_site_symmetry_2
O4 C12 1_555 1_555
H6 C11 1_555 1_555
Fe7 O4 1_555 1_555
S2 Fe2 1_555 1_555
N2 C7 1_555 1_555
C7 S2 1_555 1_555
C8 C7 1_555 1_555
H4 C8 1_555 1_555
C9 C8 1_555 1_555
H5 C9 1_555 1_555
C10 C9 1_555 1_555
Fe3_4 S2 1_555 1_555
Fe5_2 O3 1_555 1_555
O8 Fe2 1_555 1_555
N2 Fe3_4 1_555 1_555
S3 Fe1 1_555 1_555
N3 Fe1 1_555 1_555
Fe1_2 S1 1_555 1_555
Fe2_2 S1 1_555 1_555
S1 C1 1_555 1_555
N1 Fe1_2 1_555 1_555
O1 C6 1_555 1_555
O2 C6 1_555 1_555
C1 N1 1_555 1_555
C2 C1 1_555 1_555
H1 C2 1_555 1_555
C3 C2 1_555 1_555
H2 C3 1_555 1_555
C4 C3 1_555 1_555
C5 N1 1_555 1_555
H3 C5 1_555 1_555
C6 C4 1_555 1_555
Fe4 O1 1_555 1_555
Fe7 O2 1_555 1_555
O7 Fe2_2 1_555 1_555
C4 C5 1_555 1_555
Fe3 S1_2 1_555 1_555
Fe2_3 S1_2 1_555 1_555
S1_2 C1_2 1_555 1_555
N1_2 Fe3 1_555 1_555
C1_2 N1_2 1_555 1_555
C2_2 C1_2 1_555 1_555
H1_2 C2_2 1_555 1_555
C3_2 C2_2 1_555 1_555
H2_2 C3_2 1_555 1_555
C4_2 C3_2 1_555 1_555
Fe5 O1_2 1_555 1_555
O7_2 Fe2_3 1_555 1_555
O2_2 C6_2 1_555 1_555
H3_2 C5_2 1_555 1_555
Fe6 O2_2 1_555 1_555
S3 Fe2_4 1_555 1_555
N3 C7_2 1_555 1_555
O3_2 C12_2 1_555 1_555
O4_2 C12_2 1_555 1_555
C7_2 S3 1_555 1_555
C8_2 C7_2 1_555 1_555
H4_2 C8_2 1_555 1_555
C9_2 C8_2 1_555 1_555
H5_2 C9_2 1_555 1_555
C10_2 C9_2 1_555 1_555
C11_2 N3 1_555 1_555
H6_2 C11_2 1_555 1_555
C12_2 C10_2 1_555 1_555
Fe4 O3_2 1_555 1_555
Fe6 O4_2 1_555 1_555
O8_2 Fe2_4 1_555 1_555
C10_2 C11_2 1_555 1_555
O8_2 C12_3 1_555 1_555
H6_3 C11_3 1_555 1_555
Fe4 S1_3 1_555 1_555
Fe6 S1_3 1_555 1_555
S1_3 C1_3 1_555 1_555
N1_3 Fe4 1_555 1_555
O5 C6_3 1_555 1_555
O7_2 C6_3 1_555 1_555
C1_3 N1_3 1_555 1_555
C2_3 C1_3 1_555 1_555
H1_3 C2_3 1_555 1_555
C3_3 C2_3 1_555 1_555
H2_3 C3_3 1_555 1_555
C4_3 C3_3 1_555 1_555
C5_3 N1_3 1_555 1_555
H3_3 C5_3 1_555 1_555
C6_3 C4_3 1_555 1_555
S2_2 Fe6 1_555 1_555
N2_2 C7_3 1_555 1_555
C7_3 S2_2 1_555 1_555
C8_3 C7_3 1_555 1_555
H4_3 C8_3 1_555 1_555
C9_3 C8_3 1_555 1_555
H5_3 C9_3 1_555 1_555
C10_3 C9_3 1_555 1_555
Fe5_2 S2_2 1_555 1_555
S3_2 Fe4 1_555 1_555
N3_2 Fe4 1_555 1_555
C4_3 C5_3 1_555 1_555
N2_2 Fe5_2 1_555 1_555
Fe5 S1_4 1_555 1_555
Fe7 S1_4 1_555 1_555
S1_4 C1_4 1_555 1_555
N1_4 Fe5 1_555 1_555
C1_4 N1_4 1_555 1_555
C2_4 C1_4 1_555 1_555
H1_4 C2_4 1_555 1_555
C3_4 C2_4 1_555 1_555
H2_4 C3_4 1_555 1_555
C4_4 C3_4 1_555 1_555
S3_2 Fe7 1_555 1_555
N3_2 C7_4 1_555 1_555
O6 C12_4 1_555 1_555
O8 C12_4 1_555 1_555
C7_4 S3_2 1_555 1_555
C8_4 C7_4 1_555 1_555
H4_4 C8_4 1_555 1_555
C9_4 C8_4 1_555 1_555
H5_4 C9_4 1_555 1_555
C10_4 C9_4 1_555 1_555
C11_4 N3_2 1_555 1_555
H6_4 C11_4 1_555 1_555
C12_4 C10_4 1_555 1_555
C10_4 C11_4 1_555 1_555
O7 C6_4 1_555 1_555
H3_4 C5_4 1_555 1_555

#END
