
###############################################################################
#
# This file contains modified crystal structure data generated from the
# MOF subset of the Cambridge Structural Database (CSD) v543 
# hosted by the Cambridge Crystallographic Data Centre (CCDC).
#
# This work is licensed under the Creative Commons
# Attribution-NonCommercial-ShareAlike 4.0 International License.
# To view a copy of this license, visit
# http://creativecommons.org/licenses/by-nc-sa/4.0/
# or send a letter to
# Creative Commons, PO Box 1866, Mountain View, CA 94042, USA.
#
# CIF created using the CSD Python API on 29 September 2022
# The structure has been converted into the P1 space group
# The structure has a 3D framework
# The original CSD entry NATXIR is in the monoclinic crystal system
# The framework has been calculated to contain at least 10.0% void space
# The void calculation uses a probe of radius 1.32A, grid spacing 0.4
# H atom positions have been added when not included in the experimental data
#
###############################################################################

data_NATXIR
_chemical_formula_moiety         '(C24 H20 Er4 N8 O21)n'
_symmetry_cell_setting           triclinic
_symmetry_space_group_name_H-M   'P 1'
_symmetry_Int_Tables_number      1
_space_group_name_Hall           'P 1'
loop_
_symmetry_equiv_pos_site_id
_symmetry_equiv_pos_as_xyz
1 x,y,z
_cell_length_a                   11.706(4)
_cell_length_b                   6.151(2)
_cell_length_c                   14.063(5)
_cell_angle_alpha                90
_cell_angle_beta                 92.255(3)
_cell_angle_gamma                90
_cell_volume                     1011.8
loop_
_atom_site_label
_atom_site_type_symbol
_atom_site_fract_x
_atom_site_fract_y
_atom_site_fract_z
C10 C 0.0178(4) 0.1779(7) 0.1449(3)
C11 C 0.0078(4) 0.3462(7) 0.0668(3)
O13 O 0.0796(3) 0.0184(5) 0.1311(2)
Er1 Er 0.153730(15) 0.49333(3) 0.754169(11)
C1 C 0.1592(4) 0.1768(7) 0.5654(3)
C2 C 0.0748(4) 0.3473(7) 0.5304(3)
C3 C 0.0195(4) 0.3339(7) 0.4416(3)
H1 H 0.0349 0.2169 0.4022
H5 H 0.234(4) 0.778(7) 0.620(2)
N1 N 0.0550(3) 0.5157(5) 0.5886(2)
N2 N 0.0627(3) 0.4868(5) 0.9190(2)
O1 O 0.2111(2) 0.2167(5) 0.64540(19)
O2 O 0.1721(3) 0.0156(5) 0.5166(2)
O3 O 0.0379(3) 0.7851(5) 0.7820(2)
O6 O 0.2533(3) 0.7300(5) 0.67104(19)
Er4 Er 0.346270(15) 0.99333(3) 0.745831(11)
C12 C 0.0699(4) 0.3342(7) 0.9852(3)
H7 H 0.1180 0.2160 0.9768
H8 H 0.032(4) 0.806(6) 0.217(3)
H9 H 0.072(3) 0.669(8) 0.293(3)
H10 H 0.266(4) 0.278(7) 0.880(2)
O8 O 0.2889(2) 0.7167(5) 0.85460(19)
O14 O 0.0174(3) 0.7033(6) 0.2543(2)
O15 O 0.2467(3) 0.2300(5) 0.82896(19)
Er5 Er 0.653730(15) 0.00667(3) 0.254169(11)
C6 C 0.9301(4) 0.6658(7) 0.0148(3)
H2 H 0.8820 0.7840 0.0232
Er6 Er 0.846270(15) 0.50667(3) 0.245831(11)
N4 N 0.9373(3) 0.5132(5) 0.0810(2)
O11 O 0.9621(3) 0.2149(5) 0.2180(2)
C4 C 0.9822(4) 0.8221(7) 0.8551(3)
C5 C 0.9922(4) 0.6538(7) 0.9332(3)
H3 H 0.968(4) 0.194(6) 0.783(3)
H4 H 0.928(3) 0.331(8) 0.707(3)
O4 O 0.9204(3) 0.9816(5) 0.8689(2)
O5 O 0.9826(3) 0.2967(6) 0.7457(2)
C7 C 0.8408(4) 0.8232(7) 0.4346(3)
C8 C 0.9252(4) 0.6527(7) 0.4696(3)
C9 C 0.9805(4) 0.6661(7) 0.5584(3)
H6 H 0.9651 0.7831 0.5978
H11 H 0.766(4) 0.222(7) 0.380(2)
H12 H 0.734(4) 0.722(7) 0.120(2)
N3 N 0.9450(3) 0.4843(5) 0.4114(2)
O7 O 0.7889(2) 0.7833(5) 0.35460(19)
O9 O 0.7111(2) 0.2833(5) 0.14540(19)
O10 O 0.8279(3) 0.9844(5) 0.4834(2)
O16 O 0.7467(3) 0.2700(5) 0.32896(19)
O17 O 0.7533(3) 0.7700(5) 0.17104(19)
H13 H 0.735855 0.141395 0.286886
C7_2 C 0.6592(4) 0.3232(7) 0.0654(3)
C8_2 C 0.5748(4) 0.1527(7) 0.0304(3)
H8_2 H 0.468(4) 0.306(6) 0.283(3)
H9_2 H 0.428(3) 0.169(8) 0.207(3)
N5 N 0.5627(3) 0.0132(5) 0.4190(2)
O10_2 O 0.6721(3) 0.4844(5) 0.0166(2)
O14_2 O 0.4826(3) 0.2033(6) 0.2457(2)
C4_2 C 0.5178(4) 0.3221(7) 0.6449(3)
C5_2 C 0.5078(4) 0.1538(7) 0.5668(3)
C6_2 C 0.5699(4) 0.1658(7) 0.4852(3)
H2_2 H 0.6180 0.2840 0.4768
N1_2 N 0.4450(3) 0.0157(5) 0.9114(2)
O3_2 O 0.4621(3) 0.2851(5) 0.7180(2)
O4_2 O 0.5796(3) 0.4816(5) 0.6311(2)
C9_2 C 0.5195(4) 0.1661(7) 0.9416(3)
H6_2 H 0.5349 0.2831 0.9022
C3_2 C 0.4805(4) 0.8339(7) 0.0584(3)
H1_2 H 0.4651 0.7169 0.0978
N3_2 N 0.5550(3) 0.9843(5) 0.0886(2)
O12 O 0.5379(3) 0.7149(5) 0.2820(2)
H13_2 H 0.764145 0.641395 0.213114
C1_2 C 0.3408(4) 0.6768(7) 0.9346(3)
C2_2 C 0.4252(4) 0.8473(7) 0.9696(3)
H3_2 H 0.532(4) 0.694(6) 0.717(3)
H4_2 H 0.572(3) 0.831(8) 0.793(3)
N2_2 N 0.4373(3) 0.9868(5) 0.5810(2)
O2_2 O 0.3279(3) 0.5156(5) 0.9834(2)
O5_2 O 0.5174(3) 0.7967(6) 0.7543(2)
C10_2 C 0.4822(4) 0.6779(7) 0.3551(3)
C11_2 C 0.4922(4) 0.8462(7) 0.4332(3)
C12_2 C 0.4301(4) 0.8342(7) 0.5148(3)
H7_2 H 0.3820 0.7160 0.5232
O13_2 O 0.4204(3) 0.5184(5) 0.3689(2)
H13_3 H 0.264145 0.858605 0.713114
H13_4 H 0.235855 0.358605 0.786886
loop_
_geom_bond_atom_site_label_1
_geom_bond_atom_site_label_2
_geom_bond_site_symmetry_1
_geom_bond_site_symmetry_2
C10 C11 1_555 1_555
O13 C10 1_555 1_555
Er1 N1 1_555 1_555
C1 C2 1_555 1_555
C2 C3 1_555 1_555
C3 H1 1_555 1_555
H5 O6 1_555 1_555
N1 C2 1_555 1_555
N2 Er1 1_555 1_555
O1 Er1 1_555 1_555
O2 C1 1_555 1_555
O3 Er1 1_555 1_555
O6 Er1 1_555 1_555
Er4 O6 1_555 1_555
C12 N2 1_555 1_555
H7 C12 1_555 1_555
H8 O14 1_555 1_555
H9 O14 1_555 1_555
H10 O15 1_555 1_555
O8 Er1 1_555 1_555
O15 Er1 1_555 1_555
C1 O1 1_555 1_555
Er4 O8 1_555 1_555
C6 H2 1_555 1_555
Er6 N4 1_555 1_555
N4 C6 1_555 1_555
O11 Er6 1_555 1_555
C4 C5 1_555 1_555
H3 O5 1_555 1_555
H4 O5 1_555 1_555
O4 C4 1_555 1_555
Er6 N3 1_555 1_555
C7 C8 1_555 1_555
C8 C9 1_555 1_555
H6 C9 1_555 1_555
H11 O16 1_555 1_555
H12 O17 1_555 1_555
O7 Er6 1_555 1_555
O9 Er6 1_555 1_555
O10 C7 1_555 1_555
O16 Er6 1_555 1_555
O17 Er6 1_555 1_555
C7 O7 1_555 1_555
C8 N3 1_555 1_555
O16 H13 1_555 1_555
C7_2 C8_2 1_555 1_555
H8_2 O14_2 1_555 1_555
H9_2 O14_2 1_555 1_555
N5 Er5 1_555 1_555
O9 Er5 1_555 1_555
O10_2 C7_2 1_555 1_555
O14_2 Er5 1_555 1_555
O16 Er5 1_555 1_555
C7_2 O9 1_555 1_555
C4_2 C5_2 1_555 1_555
C5_2 C6_2 1_555 1_555
C6_2 H2_2 1_555 1_555
O4_2 C4_2 1_555 1_555
C9_2 N1_2 1_555 1_555
H6_2 C9_2 1_555 1_555
N5 C6_2 1_555 1_555
C4_2 O3_2 1_555 1_555
C3_2 H1_2 1_555 1_555
N3_2 C3_2 1_555 1_555
O17 H13_2 1_555 1_555
C1_2 C2_2 1_555 1_555
H3_2 O5_2 1_555 1_555
H4_2 O5_2 1_555 1_555
N2_2 Er4 1_555 1_555
O2_2 C1_2 1_555 1_555
O5_2 Er4 1_555 1_555
C10_2 C11_2 1_555 1_555
C11_2 C12_2 1_555 1_555
C12_2 N2_2 1_555 1_555
H7_2 C12_2 1_555 1_555
O13_2 C10_2 1_555 1_555
C1_2 O8 1_555 1_555
C10_2 O12 1_555 1_555
O6 H13_3 1_555 1_555
O15 H13_4 1_555 1_555

#END
