
###############################################################################
#
# This file contains modified crystal structure data generated from the
# MOF subset of the Cambridge Structural Database (CSD) v543 
# hosted by the Cambridge Crystallographic Data Centre (CCDC).
#
# This work is licensed under the Creative Commons
# Attribution-NonCommercial-ShareAlike 4.0 International License.
# To view a copy of this license, visit
# http://creativecommons.org/licenses/by-nc-sa/4.0/
# or send a letter to
# Creative Commons, PO Box 1866, Mountain View, CA 94042, USA.
#
# CIF created using the CSD Python API on 29 September 2022
# The structure has been converted into the P1 space group
# The structure has a 3D framework
# The original CSD entry NAVJAW01 is in the rhombohedral crystal system
# The framework has been calculated to contain at least 10.0% void space
# The void calculation uses a probe of radius 1.32A, grid spacing 0.4
# H atom positions have been added when not included in the experimental data
# Generated hydrogen atom positions removed from atoms on special positions
#
###############################################################################

data_NAVJAW01
_chemical_formula_moiety         '(C72 H72 Co18 O72)n'
_symmetry_cell_setting           triclinic
_symmetry_space_group_name_H-M   'P 1'
_symmetry_Int_Tables_number      1
_space_group_name_Hall           'P 1'
loop_
_symmetry_equiv_pos_site_id
_symmetry_equiv_pos_as_xyz
1 x,y,z
_cell_length_a                   26.15786(84)
_cell_length_b                   26.15786(84)
_cell_length_c                   6.71822(25)
_cell_angle_alpha                90
_cell_angle_beta                 90
_cell_angle_gamma                120
_cell_volume                     3980.97
loop_
_atom_site_label
_atom_site_type_symbol
_atom_site_fract_x
_atom_site_fract_y
_atom_site_fract_z
C3 C 0.55586(5) 0.54358(6) 0.07727(13)
O3 O 0.61013(3) 0.58590(5) 0.15260(19)
C5 C 0.41990(6) 0.40723(6) 0.24771(17)
C6 C 0.45813(4) 0.45523(6) 0.12525(12)
C8 C 0.51828(4) 0.49431(6) 0.19306(13)
H2 H 0.52981(14) 0.48930(22) 0.32521(50)
Co2 Co 0.38521(2) 0.35037(2) 0.65455(7)
Co4 Co 0.68370(2) 0.63183(3) 0.01212(7)
Co5 Co 0.61479(2) 0.64963(2) 0.34545(7)
Co7 Co 0.29849(3) 0.28146(2) 0.32122(7)
O5 O 0.43975(6) 0.39953(5) 0.41024(17)
O6 O 0.37254(4) 0.36601(4) 0.17522(24)
O9 O 0.30066(4) 0.33986(6) 0.50855(24)
O10 O 0.32680(6) 0.29413(4) 0.84189(24)
O14 O 0.38987(3) 0.41410(5) 0.84740(19)
O15 O 0.35756(6) 0.27680(3) 0.51407(19)
O16 O 0.45835(7) 0.33840(8) 0.80439(27)
C1 C 0.58010(6) 0.59277(6) 0.75229(17)
C2 C 0.54187(4) 0.54477(6) 0.87475(12)
C4 C 0.48172(4) 0.50569(6) 0.80694(13)
H1 H 0.47019(14) 0.51070(22) 0.67479(50)
O1 O 0.56025(6) 0.60047(5) 0.58976(17)
O2 O 0.62746(4) 0.63399(4) 0.82478(24)
O4 O 0.54165(7) 0.66160(8) 0.19561(27)
C7 C 0.44414(5) 0.45642(6) 0.92273(13)
Co3 Co 0.70151(3) 0.71854(2) 0.67878(7)
Co6 Co 0.31630(2) 0.36817(3) 0.98788(7)
O7 O 0.67320(6) 0.70587(4) 0.15811(24)
O8 O 0.69934(4) 0.66014(6) 0.49145(24)
O13 O 0.64244(6) 0.72320(3) 0.48593(19)
Co3_2 Co 0.03484(3) 0.38521(2) 0.34545(7)
Co4_2 Co 0.01704(2) 0.29849(3) 0.67878(7)
O8_2 O 0.03268(4) 0.32680(6) 0.15811(24)
O7_2 O 0.00653(6) 0.37254(4) 0.82478(24)
Co2_2 Co 0.71854(2) 0.01704(2) 0.32122(7)
Co5_2 Co 0.94812(2) 0.31630(2) 0.01212(7)
O5_2 O 0.77308(6) 0.06620(5) 0.07691(17)
O9_2 O 0.63399(4) 0.00653(6) 0.17522(24)
O14_2 O 0.72320(3) 0.08077(5) 0.51407(19)
O16_2 O 0.79168(7) 0.00507(8) 0.47106(27)
H5 H 0.826065 0.0443907 0.502361
C1_2 C 0.91343(6) 0.25944(6) 0.41896(17)
C2_2 C 0.87520(4) 0.21144(6) 0.54142(12)
C3_2 C 0.88919(5) 0.21025(6) 0.74394(13)
C4_2 C 0.81505(4) 0.17236(6) 0.47361(13)
H1_2 H 0.80352(14) 0.17737(22) 0.34146(50)
O1_2 O 0.89358(6) 0.26714(5) 0.25643(17)
O2_2 O 0.96079(4) 0.30066(4) 0.49145(24)
O3_2 O 0.94346(3) 0.25257(5) 0.81927(19)
C5_2 C 0.75323(6) 0.07390(6) 0.91438(17)
C6_2 C 0.79146(4) 0.12190(6) 0.79192(12)
C7_2 C 0.77747(5) 0.12309(6) 0.58940(13)
C8_2 C 0.85161(4) 0.16098(6) 0.85973(13)
H2_2 H 0.86314(14) 0.15597(22) 0.99188(50)
Co6_2 Co 0.64963(2) 0.03484(3) 0.65455(7)
O6_2 O 0.70587(4) 0.03268(4) 0.84189(24)
O13_2 O 0.97577(6) 0.38987(3) 0.15260(19)
O4_2 O 0.87498(7) 0.32827(8) 0.86228(27)
O10_2 O 0.66014(6) 0.96079(4) 0.50855(24)
O15_2 O 0.69090(6) 0.94346(3) 0.18073(19)
H6 H 0.776143 0.982053 0.595871
Co7_2 Co 0.63183(3) 0.94812(2) 0.98788(7)
Co3_3 Co 0.36817(3) 0.05188(2) 0.01212(7)
O7_3 O 0.33986(6) 0.03921(4) 0.49145(24)
O13_3 O 0.30910(6) 0.05654(3) 0.81927(19)
H3 H 0.195819 0.0163731 0.620859
H4 H 0.223857 0.0179465 0.404129
O14_3 O 0.05654(3) 0.74743(5) 0.18073(19)
O16_3 O 0.12502(7) 0.67173(8) 0.13772(27)
C1_3 C 0.24677(6) 0.92610(6) 0.08562(17)
C2_3 C 0.20854(4) 0.87810(6) 0.20808(12)
C3_3 C 0.22253(5) 0.87691(6) 0.41060(13)
C4_3 C 0.14839(4) 0.83902(6) 0.14027(13)
H1_3 H 0.13686(14) 0.84403(22) 0.00812(50)
O2_3 O 0.29413(4) 0.96732(4) 0.15811(24)
O3_3 O 0.27680(3) 0.91923(5) 0.48593(19)
C5_3 C 0.08657(6) 0.74056(6) 0.58104(17)
C6_3 C 0.12480(4) 0.78856(6) 0.45858(12)
C7_3 C 0.11081(5) 0.78975(6) 0.25606(13)
C8_3 C 0.18495(4) 0.82764(6) 0.52639(13)
H2_3 H 0.19648(14) 0.82263(22) 0.65854(50)
Co2_3 Co 0.05188(2) 0.68370(2) 0.98788(7)
Co4_3 Co 0.35037(2) 0.96516(3) 0.34545(7)
Co5_3 Co 0.28146(2) 0.98296(2) 0.67878(7)
O5_3 O 0.10642(6) 0.73286(5) 0.74357(17)
O6_3 O 0.03921(4) 0.69934(4) 0.50855(24)
O15_3 O 0.02423(6) 0.61013(3) 0.84740(19)
O1_3 O 0.22692(6) 0.93380(5) 0.92309(17)
O4_3 O 0.20832(7) 0.99493(8) 0.52894(27)
O8_3 O 0.36601(4) 0.99347(6) 0.82478(24)
O10_3 O 0.99347(6) 0.62746(4) 0.17522(24)
Co6_3 Co 0.98296(2) 0.70151(3) 0.32122(7)
Co7_3 Co 0.96516(3) 0.61479(2) 0.65455(7)
O9_3 O 0.96732(4) 0.67320(6) 0.84189(24)
C3_4 C 0.45642(6) 0.01228(8) 0.07727(13)
O3_4 O 0.41410(5) 0.02423(6) 0.15260(19)
C5_4 C 0.59277(6) 0.01267(8) 0.24771(17)
C6_4 C 0.54477(6) 0.00290(7) 0.12525(12)
C8_4 C 0.50569(6) 0.02397(7) 0.19306(13)
H2_4 H 0.51070(22) 0.04051(26) 0.32521(50)
O5_4 O 0.60047(5) 0.04022(8) 0.41024(17)
O16_4 O 0.66160(8) 0.11995(11) 0.80439(27)
O14_4 O 0.58590(5) 0.97577(6) 0.84740(19)
C1_4 C 0.40723(6) 0.98733(8) 0.75229(17)
C2_4 C 0.45523(6) 0.99710(7) 0.87475(12)
C4_4 C 0.49431(6) 0.97603(7) 0.80694(13)
H1_4 H 0.48930(22) 0.95949(26) 0.67479(50)
O1_4 O 0.39953(5) 0.95978(8) 0.58976(17)
O4_4 O 0.33840(8) 0.88005(11) 0.19561(27)
C7_4 C 0.54358(6) 0.98772(8) 0.92273(13)
C1_5 C 0.01267(8) 0.41990(6) 0.75229(17)
C2_5 C 0.00290(7) 0.45813(4) 0.87475(12)
C4_5 C 0.02397(7) 0.51828(4) 0.80694(13)
H1_5 H 0.04051(26) 0.52981(14) 0.67479(50)
O1_5 O 0.04022(8) 0.43975(6) 0.58976(17)
O4_5 O 0.11995(11) 0.45835(7) 0.19561(27)
C7_5 C 0.01228(8) 0.55586(5) 0.92273(13)
O13_4 O 0.08077(7) 0.35756(6) 0.48593(19)
C3_5 C 0.98772(8) 0.44414(5) 0.07727(13)
C5_5 C 0.98733(8) 0.58010(6) 0.24771(17)
C6_5 C 0.99710(7) 0.54187(4) 0.12525(12)
C8_5 C 0.97603(7) 0.48172(4) 0.19306(13)
H2_5 H 0.95949(26) 0.47019(14) 0.32521(50)
O5_5 O 0.95978(8) 0.56025(6) 0.41024(17)
O15_4 O 0.91923(7) 0.64244(6) 0.51407(19)
O16_5 O 0.88005(11) 0.54165(7) 0.80439(27)
O14_5 O 0.25257(5) 0.30910(6) 0.18073(19)
O16_6 O 0.32827(8) 0.45328(11) 0.13772(27)
C1_6 C 0.07390(6) 0.32066(8) 0.08562(17)
C2_6 C 0.12190(6) 0.33043(7) 0.20808(12)
C3_6 C 0.12309(6) 0.34561(8) 0.41060(13)
C4_6 C 0.16098(6) 0.30936(7) 0.14027(13)
H1_6 H 0.15597(22) 0.29282(26) 0.00812(50)
C5_6 C 0.25944(6) 0.34600(8) 0.58104(17)
C6_6 C 0.21144(6) 0.33623(7) 0.45858(12)
C7_6 C 0.21025(6) 0.32105(8) 0.25606(13)
C8_6 C 0.17236(6) 0.35730(7) 0.52639(13)
H2_6 H 0.17737(22) 0.37384(26) 0.65854(50)
O5_6 O 0.26714(5) 0.37355(8) 0.74357(17)
O1_6 O 0.06620(5) 0.29311(8) 0.92309(17)
O4_6 O 0.00507(8) 0.21338(11) 0.52894(27)
H3_2 H 0.983627 0.179446 0.620859
H4_2 H 0.982053 0.205911 0.404129
O16_7 O 0.54672(11) 0.87498(7) 0.13772(27)
C1_7 C 0.67934(8) 0.75323(6) 0.08562(17)
C2_7 C 0.66957(7) 0.79146(4) 0.20808(12)
C3_7 C 0.65439(8) 0.77747(5) 0.41060(13)
C4_7 C 0.69064(7) 0.85161(4) 0.14027(13)
H1_7 H 0.70718(26) 0.86314(14) 0.00812(50)
C5_7 C 0.65400(8) 0.91343(6) 0.58104(17)
C6_7 C 0.66377(7) 0.87520(4) 0.45858(12)
C7_7 C 0.67895(8) 0.88919(5) 0.25606(13)
C8_7 C 0.64270(7) 0.81505(4) 0.52639(13)
H2_7 H 0.62616(26) 0.80352(14) 0.65854(50)
O5_7 O 0.62645(8) 0.89358(6) 0.74357(17)
O1_7 O 0.70689(8) 0.77308(6) 0.92309(17)
O4_7 O 0.78662(11) 0.79168(7) 0.52894(27)
O13_5 O 0.74743(7) 0.69090(6) 0.81927(19)
H6_2 H 0.0179465 0.794089 0.595871
O5_8 O 0.93380(5) 0.70689(8) 0.07691(17)
O16_8 O 0.99493(8) 0.78662(11) 0.47106(27)
H5_2 H 0.955609 0.781674 0.502361
C1_8 C 0.74056(6) 0.65400(8) 0.41896(17)
C2_8 C 0.78856(6) 0.66377(7) 0.54142(12)
C3_8 C 0.78975(6) 0.67895(8) 0.74394(13)
C4_8 C 0.82764(6) 0.64270(7) 0.47361(13)
H1_8 H 0.82263(22) 0.62616(26) 0.34146(50)
O1_8 O 0.73286(5) 0.62645(8) 0.25643(17)
C5_8 C 0.92610(6) 0.67934(8) 0.91438(17)
C6_8 C 0.87810(6) 0.66957(7) 0.79192(12)
C7_8 C 0.87691(6) 0.65439(8) 0.58940(13)
C8_8 C 0.83902(6) 0.69064(7) 0.85973(13)
H2_8 H 0.84403(22) 0.70718(26) 0.99188(50)
O4_8 O 0.67173(8) 0.54672(11) 0.86228(27)
O5_9 O 0.29311(8) 0.22692(6) 0.07691(17)
O16_9 O 0.21338(11) 0.20832(7) 0.47106(27)
C1_9 C 0.34600(8) 0.08657(6) 0.41896(17)
C2_9 C 0.33623(7) 0.12480(4) 0.54142(12)
C3_9 C 0.32105(8) 0.11081(5) 0.74394(13)
C4_9 C 0.35730(7) 0.18495(4) 0.47361(13)
H1_9 H 0.37384(26) 0.19648(14) 0.34146(50)
O1_9 O 0.37355(8) 0.10642(6) 0.25643(17)
C5_9 C 0.32066(8) 0.24677(6) 0.91438(17)
C6_9 C 0.33043(7) 0.20854(4) 0.79192(12)
C7_9 C 0.34561(8) 0.22253(5) 0.58940(13)
C8_9 C 0.30936(7) 0.14839(4) 0.85973(13)
H2_9 H 0.29282(26) 0.13686(14) 0.99188(50)
O4_9 O 0.45328(11) 0.12502(7) 0.86228(27)
H5_3 H 0.173935 0.955609 0.497639
H3_3 H 0.804181 0.983627 0.379141
H3_4 H 0.0163731 0.820554 0.379141
H5_4 H 0.0443907 0.218326 0.497639
loop_
_geom_bond_atom_site_label_1
_geom_bond_atom_site_label_2
_geom_bond_site_symmetry_1
_geom_bond_site_symmetry_2
C3 O3 1_555 1_555
O3 Co4 1_555 1_555
C5 C6 1_555 1_555
C8 C3 1_555 1_555
H2 C8 1_555 1_555
Co2 O5 1_555 1_555
Co5 O3 1_555 1_555
Co7 O6 1_555 1_555
O5 C5 1_555 1_555
O6 C5 1_555 1_555
O9 Co2 1_555 1_555
O10 Co2 1_555 1_555
O14 Co2 1_555 1_555
O15 Co2 1_555 1_555
O16 Co2 1_555 1_555
C6 C8 1_555 1_555
Co7 O9 1_555 1_555
Co7 O15 1_555 1_555
C1 C2 1_555 1_555
C4 C2 1_555 1_555
H1 C4 1_555 1_555
Co5 O1 1_555 1_555
O1 C1 1_555 1_555
O2 C1 1_555 1_555
O4 Co5 1_555 1_555
C7 C4 1_555 1_555
Co3 O2 1_555 1_555
O7 Co5 1_555 1_555
O8 Co5 1_555 1_555
O14 C7 1_555 1_555
O13 Co5 1_555 1_555
Co3 O8 1_555 1_555
Co3 O13 1_555 1_555
Co6 O14 1_555 1_555
Co3_2 O8_2 1_555 1_555
Co2_2 O5_2 1_555 1_555
O9_2 Co2_2 1_555 1_555
O14_2 Co2_2 1_555 1_555
O16_2 Co2_2 1_555 1_555
O16_2 H5 1_555 1_555
C1_2 C2_2 1_555 1_555
C2_2 C3_2 1_555 1_555
C3_2 O3_2 1_555 1_555
C4_2 C2_2 1_555 1_555
H1_2 C4_2 1_555 1_555
Co5_2 O1_2 1_555 1_555
O1_2 C1_2 1_555 1_555
O2_2 C1_2 1_555 1_555
C5_2 C6_2 1_555 1_555
C6_2 C7_2 1_555 1_555
C7_2 C4_2 1_555 1_555
C8_2 C3_2 1_555 1_555
H2_2 C8_2 1_555 1_555
Co6_2 O6_2 1_555 1_555
O6_2 C5_2 1_555 1_555
O14_2 C7_2 1_555 1_555
O13_2 Co5_2 1_555 1_555
C6_2 C8_2 1_555 1_555
Co6_2 O14_2 1_555 1_555
C1_3 C2_3 1_555 1_555
C2_3 C3_3 1_555 1_555
C3_3 O3_3 1_555 1_555
C4_3 C2_3 1_555 1_555
H1_3 C4_3 1_555 1_555
O2_3 C1_3 1_555 1_555
O3_3 Co4_3 1_555 1_555
C5_3 C6_3 1_555 1_555
C6_3 C7_3 1_555 1_555
C7_3 C4_3 1_555 1_555
C8_3 C3_3 1_555 1_555
H2_3 C8_3 1_555 1_555
Co2_3 O5_3 1_555 1_555
Co4_3 O2_3 1_555 1_555
Co5_3 O3_3 1_555 1_555
O5_3 C5_3 1_555 1_555
O6_3 C5_3 1_555 1_555
O14_3 C7_3 1_555 1_555
O15_3 Co2_3 1_555 1_555
C6_3 C8_3 1_555 1_555
Co5_3 O1_3 1_555 1_555
O4_3 Co5_3 1_555 1_555
O8_3 Co5_3 1_555 1_555
Co7_3 O9_3 1_555 1_555
C3_4 O3_4 1_555 1_555
O3_4 Co3_3 1_555 1_555
C5_4 C6_4 1_555 1_555
C8_4 C3_4 1_555 1_555
H2_4 C8_4 1_555 1_555
Co6_2 O5_4 1_555 1_555
O5_4 C5_4 1_555 1_555
O9_2 C5_4 1_555 1_555
O16_4 Co6_2 1_555 1_555
C6_4 C8_4 1_555 1_555
C1_4 C2_4 1_555 1_555
C4_4 C2_4 1_555 1_555
H1_4 C4_4 1_555 1_555
Co4_3 O1_4 1_555 1_555
O1_4 C1_4 1_555 1_555
O8_3 C1_4 1_555 1_555
O4_4 Co4_3 1_555 1_555
C7_4 C4_4 1_555 1_555
O14_4 C7_4 1_555 1_555
Co7_2 O14_4 1_555 1_555
C1_5 C2_5 1_555 1_555
C4_5 C2_5 1_555 1_555
H1_5 C4_5 1_555 1_555
Co3_2 O1_5 1_555 1_555
O1_5 C1_5 1_555 1_555
O7_2 C1_5 1_555 1_555
O4_5 Co3_2 1_555 1_555
C7_5 C4_5 1_555 1_555
Co4_2 O7_2 1_555 1_555
O15_3 C7_5 1_555 1_555
O13_4 Co3_2 1_555 1_555
Co4_2 O13_4 1_555 1_555
C3_5 O13_2 1_555 1_555
C5_5 C6_5 1_555 1_555
C8_5 C3_5 1_555 1_555
H2_5 C8_5 1_555 1_555
Co7_3 O5_5 1_555 1_555
Co6_3 O10_3 1_555 1_555
O5_5 C5_5 1_555 1_555
O10_3 C5_5 1_555 1_555
O15_4 Co7_3 1_555 1_555
O16_5 Co7_3 1_555 1_555
C6_5 C8_5 1_555 1_555
Co6_3 O15_4 1_555 1_555
C1_6 C2_6 1_555 1_555
C2_6 C3_6 1_555 1_555
C3_6 O13_4 1_555 1_555
C4_6 C2_6 1_555 1_555
H1_6 C4_6 1_555 1_555
O8_2 C1_6 1_555 1_555
C5_6 C6_6 1_555 1_555
C6_6 C7_6 1_555 1_555
C7_6 C4_6 1_555 1_555
C8_6 C3_6 1_555 1_555
H2_6 C8_6 1_555 1_555
Co6 O5_6 1_555 1_555
O5_6 C5_6 1_555 1_555
O9 C5_6 1_555 1_555
O10 Co6 1_555 1_555
O14_5 C7_6 1_555 1_555
C6_6 C8_6 1_555 1_555
Co7 O14_5 1_555 1_555
Co4_2 O1_6 1_555 1_555
O4_6 Co4_2 1_555 1_555
C1_7 C2_7 1_555 1_555
C2_7 C3_7 1_555 1_555
C3_7 O13 1_555 1_555
C4_7 C2_7 1_555 1_555
H1_7 C4_7 1_555 1_555
O7 C1_7 1_555 1_555
C5_7 C6_7 1_555 1_555
C6_7 C7_7 1_555 1_555
C7_7 C4_7 1_555 1_555
C8_7 C3_7 1_555 1_555
H2_7 C8_7 1_555 1_555
Co7_2 O5_7 1_555 1_555
Co4 O7 1_555 1_555
O5_7 C5_7 1_555 1_555
O10_2 C5_7 1_555 1_555
O15_2 C7_7 1_555 1_555
C6_7 C8_7 1_555 1_555
Co3 O1_7 1_555 1_555
O4_7 Co3 1_555 1_555
O13_5 Co3 1_555 1_555
Co6_3 O5_8 1_555 1_555
O16_8 Co6_3 1_555 1_555
O16_8 H5_2 1_555 1_555
C1_8 C2_8 1_555 1_555
C2_8 C3_8 1_555 1_555
C3_8 O13_5 1_555 1_555
C4_8 C2_8 1_555 1_555
H1_8 C4_8 1_555 1_555
Co4 O1_8 1_555 1_555
O1_8 C1_8 1_555 1_555
O8 C1_8 1_555 1_555
C5_8 C6_8 1_555 1_555
C6_8 C7_8 1_555 1_555
C7_8 C4_8 1_555 1_555
C8_8 C3_8 1_555 1_555
H2_8 C8_8 1_555 1_555
O9_3 C5_8 1_555 1_555
O15_4 C7_8 1_555 1_555
C6_8 C8_8 1_555 1_555
Co7 O5_9 1_555 1_555
O16_9 Co7 1_555 1_555
C1_9 C2_9 1_555 1_555
C2_9 C3_9 1_555 1_555
C3_9 O13_3 1_555 1_555
C4_9 C2_9 1_555 1_555
H1_9 C4_9 1_555 1_555
Co3_3 O1_9 1_555 1_555
O1_9 C1_9 1_555 1_555
O7_3 C1_9 1_555 1_555
C5_9 C6_9 1_555 1_555
C6_9 C7_9 1_555 1_555
C7_9 C4_9 1_555 1_555
C8_9 C3_9 1_555 1_555
H2_9 C8_9 1_555 1_555
O10 C5_9 1_555 1_555
O15 C7_9 1_555 1_555
C6_9 C8_9 1_555 1_555
O4_3 H5_3 1_555 1_555
O4_6 H5_4 1_555 1_555

#END
