
###############################################################################
#
# This file contains modified crystal structure data generated from the
# MOF subset of the Cambridge Structural Database (CSD) v543 
# hosted by the Cambridge Crystallographic Data Centre (CCDC).
#
# This work is licensed under the Creative Commons
# Attribution-NonCommercial-ShareAlike 4.0 International License.
# To view a copy of this license, visit
# http://creativecommons.org/licenses/by-nc-sa/4.0/
# or send a letter to
# Creative Commons, PO Box 1866, Mountain View, CA 94042, USA.
#
# CIF created using the CSD Python API on 29 September 2022
# The structure has been converted into the P1 space group
# The structure has a 3D framework
# The original CSD entry NAVJAW is in the rhombohedral crystal system
# The framework has been calculated to contain at least 10.0% void space
# The void calculation uses a probe of radius 1.32A, grid spacing 0.4
#
###############################################################################

data_NAVJAW
_chemical_formula_moiety         '(C72 H54 Co13 O66)n'
_symmetry_cell_setting           triclinic
_symmetry_space_group_name_H-M   'P 1'
_symmetry_Int_Tables_number      1
_space_group_name_Hall           'P 1'
loop_
_symmetry_equiv_pos_site_id
_symmetry_equiv_pos_as_xyz
1 x,y,z
_cell_length_a                   26.1102(19)
_cell_length_b                   26.1102(19)
_cell_length_c                   6.7192(10)
_cell_angle_alpha                90
_cell_angle_beta                 90
_cell_angle_gamma                120
_cell_volume                     3967.06
loop_
_atom_site_label
_atom_site_type_symbol
_atom_site_fract_x
_atom_site_fract_y
_atom_site_fract_z
Co1 Co 0.36892(5) 0.05204(5) 0.01489(16)
O9 O 0.3690(4) 0.1056(3) 0.2352(8)
O13 O 0.4172(2) 0.0237(3) 0.1708(8)
H1 H 0.453(5) 0.123(5) 0.751(7)
H2 H 0.453(5) 0.147(4) 0.968(13)
O4 O 0.4464(3) 0.1231(3) 0.8755(10)
O12 O 0.3097(3) 0.0602(2) 0.8374(8)
C1 C 0.2460(3) 0.9294(3) 0.0767(11)
C2 C 0.2072(3) 0.8801(3) 0.2136(11)
C3 C 0.2218(3) 0.8774(3) 0.4156(12)
C4 C 0.1535(3) 0.8361(3) 0.1384(12)
H3 H 0.1452 0.8382 0.0049
O1 O 0.2956(2) 0.9707(2) 0.1384(8)
O3 O 0.2731(2) 0.9161(2) 0.5041(8)
Co3 Co 0.34979(7) 0.96441(5) 0.34822(16)
Co5 Co 0.28129(5) 0.98355(7) 0.68156(16)
Co7 Co 0.05204(5) 0.68312(7) 0.98511(16)
C5 C 0.0873(3) 0.7373(3) 0.5900(11)
C6 C 0.1261(3) 0.7866(3) 0.4531(11)
C7 C 0.1115(3) 0.7893(3) 0.2511(12)
C8 C 0.1798(3) 0.8306(3) 0.5283(12)
H6 H 0.1881 0.8285 0.6618
O5 O 0.0377(2) 0.6960(2) 0.5283(8)
O8 O 0.1056(3) 0.7367(2) 0.7648(8)
O11 O 0.0602(2) 0.7506(2) 0.1626(8)
O14 O 0.0237(3) 0.6064(2) 0.8292(8)
O2 O 0.2277(3) 0.9300(2) 0.9019(8)
O6 O 0.3626(2) 0.9916(3) 0.8051(8)
H4 H 0.880(5) 0.544(5) 0.916(7)
H5 H 0.880(5) 0.520(4) 0.699(13)
Co2 Co 0.96441(5) 0.61463(5) 0.65178(16)
Co6 Co 0.98355(7) 0.70225(5) 0.31844(16)
O7 O 0.9707(2) 0.6751(3) 0.8616(8)
O10 O 0.9644(4) 0.5610(3) 0.4314(8)
O15 O 0.9161(2) 0.6430(3) 0.4959(8)
O16 O 0.8869(3) 0.5436(3) 0.7912(10)
C1_2 C 0.0706(3) 0.3166(4) 0.0767(11)
C2_2 C 0.1199(3) 0.3271(4) 0.2136(11)
C3_2 C 0.1226(3) 0.3444(4) 0.4156(12)
C4_2 C 0.1639(3) 0.3174(4) 0.1384(12)
H3_2 H 0.1618 0.3070 0.0049
O1_2 O 0.0293(2) 0.3249(3) 0.1384(8)
O3_2 O 0.0839(2) 0.3570(3) 0.5041(8)
H4_2 H 0.456(5) 0.337(7) 0.916(7)
H5_2 H 0.480(4) 0.361(6) 0.699(13)
Co2_2 Co 0.38537(5) 0.34979(7) 0.65178(16)
Co3_2 Co 0.03559(5) 0.38537(9) 0.34822(16)
Co5_2 Co 0.01645(7) 0.29775(9) 0.68156(16)
Co6_2 Co 0.29775(5) 0.28129(9) 0.31844(16)
Co7_2 Co 0.31688(7) 0.36892(9) 0.98511(16)
C5_2 C 0.2627(3) 0.3501(4) 0.5900(11)
C6_2 C 0.2134(3) 0.3396(4) 0.4531(11)
C7_2 C 0.2107(3) 0.3223(4) 0.2511(12)
C8_2 C 0.1694(3) 0.3493(4) 0.5283(12)
H6_2 H 0.1715 0.3597 0.6618
O5_2 O 0.3040(2) 0.3418(3) 0.5283(8)
O7_2 O 0.3249(3) 0.2956(4) 0.8616(8)
O8_2 O 0.2633(2) 0.3690(4) 0.7648(8)
O10_2 O 0.4390(3) 0.4033(5) 0.4314(8)
O11_2 O 0.2494(2) 0.3097(3) 0.1626(8)
O14_2 O 0.3936(2) 0.4172(4) 0.8292(8)
O15_2 O 0.3570(3) 0.2731(4) 0.4959(8)
O16_2 O 0.4564(3) 0.3434(4) 0.7912(10)
O2_2 O 0.0700(2) 0.2977(4) 0.9019(8)
O6_2 O 0.0084(3) 0.3711(4) 0.8051(8)
Co1_2 Co 0.94796(5) 0.31688(7) 0.01489(16)
O9_2 O 0.8944(3) 0.2633(5) 0.2352(8)
O13_2 O 0.9763(3) 0.3936(4) 0.1708(8)
H1_2 H 0.877(5) 0.330(7) 0.751(7)
H2_2 H 0.853(4) 0.306(6) 0.968(13)
O4_2 O 0.8769(3) 0.3233(4) 0.8755(10)
O12_2 O 0.9398(2) 0.2494(4) 0.8374(8)
H4_3 H 0.663(7) 0.120(5) 0.916(7)
H5_3 H 0.639(6) 0.120(5) 0.699(13)
Co2_3 Co 0.65021(7) 0.03559(5) 0.65178(16)
Co6_3 Co 0.71871(9) 0.01645(7) 0.31844(16)
O7_3 O 0.7044(4) 0.0293(2) 0.8616(8)
O10_3 O 0.5967(5) 0.0356(4) 0.4314(8)
O15_3 O 0.7269(4) 0.0839(2) 0.4959(8)
O16_3 O 0.6566(4) 0.1131(3) 0.7912(10)
Co1_3 Co 0.68312(7) 0.63108(5) 0.01489(16)
C1_3 C 0.6834(4) 0.7540(3) 0.0767(11)
C2_3 C 0.6729(4) 0.7928(3) 0.2136(11)
C3_3 C 0.6556(4) 0.7782(3) 0.4156(12)
C4_3 C 0.6826(4) 0.8465(3) 0.1384(12)
H3_3 H 0.6930 0.8548 0.0049
O1_3 O 0.6751(3) 0.7044(2) 0.1384(8)
O3_3 O 0.6430(3) 0.7269(2) 0.5041(8)
Co3_3 Co 0.61463(9) 0.65021(7) 0.34822(16)
Co5_3 Co 0.70225(9) 0.71871(5) 0.68156(16)
Co7_3 Co 0.63108(9) 0.94796(5) 0.98511(16)
C5_3 C 0.6499(4) 0.9127(3) 0.5900(11)
C6_3 C 0.6604(4) 0.8739(3) 0.4531(11)
C7_3 C 0.6777(4) 0.8885(3) 0.2511(12)
C8_3 C 0.6507(4) 0.8202(3) 0.5283(12)
H6_3 H 0.6403 0.8119 0.6618
O5_3 O 0.6582(3) 0.9623(2) 0.5283(8)
O8_3 O 0.6310(4) 0.8944(3) 0.7648(8)
O9_3 O 0.7367(5) 0.6310(4) 0.2352(8)
O11_3 O 0.6903(3) 0.9398(2) 0.1626(8)
O13_3 O 0.6064(4) 0.5828(2) 0.1708(8)
O14_3 O 0.5828(4) 0.9763(3) 0.8292(8)
H1_3 H 0.670(7) 0.547(5) 0.751(7)
H2_3 H 0.694(6) 0.547(5) 0.968(13)
O2_3 O 0.7023(4) 0.7723(3) 0.9019(8)
O4_3 O 0.6767(4) 0.5536(3) 0.8755(10)
O6_3 O 0.6289(4) 0.6374(2) 0.8051(8)
O12_3 O 0.7506(4) 0.6903(3) 0.8374(8)
H1_4 H 0.120(5) 0.456(5) 0.084(7)
H2_4 H 0.120(5) 0.480(4) 0.301(13)
O4_4 O 0.1131(3) 0.4564(3) 0.2088(10)
O9_4 O 0.0356(4) 0.4390(3) 0.5686(8)
O7_4 O 0.6374(2) 0.0084(3) 0.1949(8)
O8_4 O 0.7723(3) 0.0700(2) 0.0981(8)
C1_4 C 0.9127(3) 0.2627(3) 0.4100(11)
C2_4 C 0.8739(3) 0.2134(3) 0.5469(11)
C3_4 C 0.8885(3) 0.2107(3) 0.7489(12)
C4_4 C 0.8202(3) 0.1694(3) 0.4717(12)
H3_4 H 0.8119 0.1715 0.3382
O1_4 O 0.9623(2) 0.3040(2) 0.4717(8)
C5_4 C 0.7540(3) 0.0706(3) 0.9233(11)
C6_4 C 0.7928(3) 0.1199(3) 0.7864(11)
C7_4 C 0.7782(3) 0.1226(3) 0.5844(12)
C8_4 C 0.8465(3) 0.1639(3) 0.8616(12)
H6_4 H 0.8548 0.1618 0.9951
H4_4 H 0.547(5) 0.877(5) 0.249(7)
H5_4 H 0.547(5) 0.853(4) 0.032(13)
O16_4 O 0.5536(3) 0.8769(3) 0.1245(10)
H4_5 H 0.123(5) 0.670(7) 0.249(7)
H5_5 H 0.147(4) 0.694(6) 0.032(13)
O16_5 O 0.1231(3) 0.6767(4) 0.1245(10)
O7_5 O 0.9916(3) 0.6289(4) 0.1949(8)
O8_5 O 0.9300(2) 0.7023(4) 0.0981(8)
H1_5 H 0.544(5) 0.663(7) 0.084(7)
H2_5 H 0.520(4) 0.639(6) 0.301(13)
C1_5 C 0.7373(3) 0.6499(4) 0.4100(11)
C2_5 C 0.7866(3) 0.6604(4) 0.5469(11)
C3_5 C 0.7893(3) 0.6777(4) 0.7489(12)
C4_5 C 0.8306(3) 0.6507(4) 0.4717(12)
H3_5 H 0.8285 0.6403 0.3382
O1_5 O 0.6960(2) 0.6582(3) 0.4717(8)
O4_5 O 0.5436(3) 0.6566(4) 0.2088(10)
C5_5 C 0.9294(3) 0.6834(4) 0.9233(11)
C6_5 C 0.8801(3) 0.6729(4) 0.7864(11)
C7_5 C 0.8774(3) 0.6556(4) 0.5844(12)
C8_5 C 0.8361(3) 0.6826(4) 0.8616(12)
H6_5 H 0.8382 0.6930 0.9951
O9_5 O 0.5610(3) 0.5967(5) 0.5686(8)
H4_6 H 0.330(7) 0.453(5) 0.249(7)
H5_6 H 0.306(6) 0.453(5) 0.032(13)
O7_6 O 0.3711(4) 0.3626(2) 0.1949(8)
O8_6 O 0.2977(4) 0.2277(3) 0.0981(8)
O16_6 O 0.3233(4) 0.4464(3) 0.1245(10)
C1_6 C 0.3501(4) 0.0873(3) 0.4100(11)
C2_6 C 0.3396(4) 0.1261(3) 0.5469(11)
C3_6 C 0.3223(4) 0.1115(3) 0.7489(12)
C4_6 C 0.3493(4) 0.1798(3) 0.4717(12)
H3_6 H 0.3597 0.1881 0.3382
O1_6 O 0.3418(3) 0.0377(2) 0.4717(8)
C5_6 C 0.3166(4) 0.2460(3) 0.9233(11)
C6_6 C 0.3271(4) 0.2072(3) 0.7864(11)
C7_6 C 0.3444(4) 0.2218(3) 0.5844(12)
C8_6 C 0.3174(4) 0.1535(3) 0.8616(12)
H6_6 H 0.3070 0.1452 0.9951
H1_6 H 0.337(7) 0.880(5) 0.084(7)
H2_6 H 0.361(6) 0.880(5) 0.301(13)
O4_6 O 0.3434(4) 0.8869(3) 0.2088(10)
O9_6 O 0.4033(5) 0.9644(4) 0.5686(8)
C3_7 C 0.5551(3) 0.5441(3) 0.0823(12)
H4_7 H 0.214(5) 0.210(5) 0.582(7)
H5_7 H 0.214(5) 0.186(4) 0.365(13)
C5_7 C 0.4207(3) 0.4039(3) 0.2566(11)
C6_7 C 0.4595(3) 0.4532(3) 0.1197(11)
C8_7 C 0.5132(3) 0.4972(3) 0.1949(12)
H6_7 H 0.5215 0.4951 0.3284
O16_7 O 0.2203(3) 0.2102(3) 0.4578(10)
H1_7 H 0.786(5) 0.790(5) 0.418(7)
H2_7 H 0.786(5) 0.814(4) 0.635(13)
C1_7 C 0.5793(3) 0.5961(3) 0.7434(11)
C2_7 C 0.5405(3) 0.5468(3) 0.8803(11)
C4_7 C 0.4868(3) 0.5028(3) 0.8051(12)
H3_7 H 0.4785 0.5049 0.6716
O4_7 O 0.7797(3) 0.7898(3) 0.5422(10)
C7_7 C 0.4449(3) 0.4559(3) 0.9177(12)
C3_8 C 0.4559(3) 0.0111(4) 0.0823(12)
H4_8 H 0.790(5) 0.003(7) 0.582(7)
H5_8 H 0.814(4) 0.027(6) 0.365(13)
C5_8 C 0.5961(3) 0.0167(4) 0.2566(11)
C6_8 C 0.5468(3) 0.0062(4) 0.1197(11)
C8_8 C 0.5028(3) 0.0159(4) 0.1949(12)
H6_8 H 0.5049 0.0263 0.3284
O16_8 O 0.7898(3) 0.0100(4) 0.4578(10)
H1_8 H 0.210(5) 0.997(7) 0.418(7)
H2_8 H 0.186(4) 0.973(6) 0.635(13)
C1_8 C 0.4039(3) 0.9833(4) 0.7434(11)
C2_8 C 0.4532(3) 0.9938(4) 0.8803(11)
C4_8 C 0.4972(3) 0.9841(4) 0.8051(12)
H3_8 H 0.4951 0.9737 0.6716
O4_8 O 0.2102(3) 0.9900(4) 0.5422(10)
C7_8 C 0.5441(3) 0.9889(4) 0.9177(12)
H1_9 H 0.003(7) 0.214(5) 0.418(7)
H2_9 H 0.027(6) 0.214(5) 0.635(13)
C1_9 C 0.0167(4) 0.4207(3) 0.7434(11)
C2_9 C 0.0062(4) 0.4595(3) 0.8803(11)
C4_9 C 0.0159(4) 0.5132(3) 0.8051(12)
H3_9 H 0.0263 0.5215 0.6716
O4_9 O 0.0100(4) 0.2203(3) 0.5422(10)
C7_9 C 0.0111(4) 0.5551(3) 0.9177(12)
C3_9 C 0.9889(4) 0.4449(3) 0.0823(12)
H4_9 H 0.997(7) 0.786(5) 0.582(7)
H5_9 H 0.973(6) 0.786(5) 0.365(13)
C5_9 C 0.9833(4) 0.5793(3) 0.2566(11)
C6_9 C 0.9938(4) 0.5405(3) 0.1197(11)
C8_9 C 0.9841(4) 0.4868(3) 0.1949(12)
H6_9 H 0.9737 0.4785 0.3284
O16_9 O 0.9900(4) 0.7797(3) 0.4578(10)
loop_
_geom_bond_atom_site_label_1
_geom_bond_atom_site_label_2
_geom_bond_site_symmetry_1
_geom_bond_site_symmetry_2
O9 Co1 1_555 1_555
O13 Co1 1_555 1_555
H1 O4 1_555 1_555
H2 O4 1_555 1_555
C1 C2 1_555 1_555
C2 C3 1_555 1_555
C3 O3 1_555 1_555
C4 C2 1_555 1_555
H3 C4 1_555 1_555
O1 C1 1_555 1_555
O3 Co3 1_555 1_555
Co3 O1 1_555 1_555
Co5 O3 1_555 1_555
C5 C6 1_555 1_555
C6 C7 1_555 1_555
C7 C4 1_555 1_555
C8 C3 1_555 1_555
H6 C8 1_555 1_555
O5 C5 1_555 1_555
O8 Co7 1_555 1_555
Co7 O14 1_555 1_555
C5 O8 1_555 1_555
C6 C8 1_555 1_555
C7 O11 1_555 1_555
Co5 O2 1_555 1_555
Co5 O6 1_555 1_555
H4 O16 1_555 1_555
H5 O16 1_555 1_555
O7 Co2 1_555 1_555
O10 Co2 1_555 1_555
O15 Co2 1_555 1_555
O16 Co2 1_555 1_555
Co6 O15 1_555 1_555
C1_2 C2_2 1_555 1_555
C2_2 C3_2 1_555 1_555
C3_2 O3_2 1_555 1_555
C4_2 C2_2 1_555 1_555
H3_2 C4_2 1_555 1_555
O1_2 C1_2 1_555 1_555
O3_2 Co3_2 1_555 1_555
H4_2 O16_2 1_555 1_555
H5_2 O16_2 1_555 1_555
Co2_2 O5_2 1_555 1_555
Co3_2 O1_2 1_555 1_555
Co5_2 O3_2 1_555 1_555
Co6_2 O5_2 1_555 1_555
Co7_2 O7_2 1_555 1_555
C5_2 C6_2 1_555 1_555
C6_2 C7_2 1_555 1_555
C7_2 C4_2 1_555 1_555
C8_2 C3_2 1_555 1_555
H6_2 C8_2 1_555 1_555
O5_2 C5_2 1_555 1_555
O7_2 Co2_2 1_555 1_555
O8_2 Co7_2 1_555 1_555
O10_2 Co2_2 1_555 1_555
O11_2 Co6_2 1_555 1_555
O14_2 Co2_2 1_555 1_555
O15_2 Co2_2 1_555 1_555
O16_2 Co2_2 1_555 1_555
Co6_2 O15_2 1_555 1_555
Co7_2 O14_2 1_555 1_555
C5_2 O8_2 1_555 1_555
C6_2 C8_2 1_555 1_555
C7_2 O11_2 1_555 1_555
Co5_2 O2_2 1_555 1_555
Co5_2 O6_2 1_555 1_555
O9_2 Co1_2 1_555 1_555
O13_2 Co1_2 1_555 1_555
H1_2 O4_2 1_555 1_555
H2_2 O4_2 1_555 1_555
H4_3 O16_3 1_555 1_555
H5_3 O16_3 1_555 1_555
O7_3 Co2_3 1_555 1_555
O10_3 Co2_3 1_555 1_555
O15_3 Co2_3 1_555 1_555
O16_3 Co2_3 1_555 1_555
Co6_3 O15_3 1_555 1_555
Co1_3 O1_3 1_555 1_555
C1_3 C2_3 1_555 1_555
C2_3 C3_3 1_555 1_555
C3_3 O3_3 1_555 1_555
C4_3 C2_3 1_555 1_555
H3_3 C4_3 1_555 1_555
O1_3 C1_3 1_555 1_555
O3_3 Co3_3 1_555 1_555
Co3_3 O1_3 1_555 1_555
Co5_3 O3_3 1_555 1_555
C5_3 C6_3 1_555 1_555
C6_3 C7_3 1_555 1_555
C7_3 C4_3 1_555 1_555
C8_3 C3_3 1_555 1_555
H6_3 C8_3 1_555 1_555
O5_3 C5_3 1_555 1_555
O8_3 Co7_3 1_555 1_555
O9_3 Co1_3 1_555 1_555
O13_3 Co1_3 1_555 1_555
Co3_3 O13_3 1_555 1_555
Co7_3 O14_3 1_555 1_555
C5_3 O8_3 1_555 1_555
C6_3 C8_3 1_555 1_555
C7_3 O11_3 1_555 1_555
H1_3 O4_3 1_555 1_555
H2_3 O4_3 1_555 1_555
Co5_3 O2_3 1_555 1_555
Co5_3 O6_3 1_555 1_555
Co5_3 O12_3 1_555 1_555
H1_4 O4_4 1_555 1_555
H2_4 O4_4 1_555 1_555
O4_4 Co3_2 1_555 1_555
O9_4 Co3_2 1_555 1_555
Co6_3 O7_4 1_555 1_555
O8_4 Co6_3 1_555 1_555
C1_4 C2_4 1_555 1_555
C2_4 C3_4 1_555 1_555
C3_4 O12_2 1_555 1_555
C4_4 C2_4 1_555 1_555
H3_4 C4_4 1_555 1_555
O1_4 C1_4 1_555 1_555
O9_2 C1_4 1_555 1_555
C5_4 C6_4 1_555 1_555
C6_4 C7_4 1_555 1_555
C7_4 C4_4 1_555 1_555
C8_4 C3_4 1_555 1_555
H6_4 C8_4 1_555 1_555
O7_3 C5_4 1_555 1_555
C6_4 C8_4 1_555 1_555
C7_4 O15_3 1_555 1_555
H4_4 O16_4 1_555 1_555
H5_4 O16_4 1_555 1_555
H4_5 O16_5 1_555 1_555
H5_5 O16_5 1_555 1_555
Co6 O7_5 1_555 1_555
O8_5 Co6 1_555 1_555
H1_5 O4_5 1_555 1_555
H2_5 O4_5 1_555 1_555
Co3_3 O1_5 1_555 1_555
C1_5 C2_5 1_555 1_555
C2_5 C3_5 1_555 1_555
C3_5 O12_3 1_555 1_555
C4_5 C2_5 1_555 1_555
H3_5 C4_5 1_555 1_555
O1_5 C1_5 1_555 1_555
O9_3 C1_5 1_555 1_555
O4_5 Co3_3 1_555 1_555
Co5_3 O1_5 1_555 1_555
C5_5 C6_5 1_555 1_555
C6_5 C7_5 1_555 1_555
C7_5 C4_5 1_555 1_555
C8_5 C3_5 1_555 1_555
H6_5 C8_5 1_555 1_555
O7 C5_5 1_555 1_555
O9_5 Co3_3 1_555 1_555
C6_5 C8_5 1_555 1_555
C7_5 O15 1_555 1_555
H4_6 O16_6 1_555 1_555
H5_6 O16_6 1_555 1_555
Co6_2 O7_6 1_555 1_555
O8_6 Co6_2 1_555 1_555
C1_6 C2_6 1_555 1_555
C2_6 C3_6 1_555 1_555
C3_6 O12 1_555 1_555
C4_6 C2_6 1_555 1_555
H3_6 C4_6 1_555 1_555
O1_6 C1_6 1_555 1_555
O9 C1_6 1_555 1_555
C5_6 C6_6 1_555 1_555
C6_6 C7_6 1_555 1_555
C7_6 C4_6 1_555 1_555
C8_6 C3_6 1_555 1_555
H6_6 C8_6 1_555 1_555
O7_2 C5_6 1_555 1_555
C6_6 C8_6 1_555 1_555
C7_6 O15_2 1_555 1_555
H1_6 O4_6 1_555 1_555
H2_6 O4_6 1_555 1_555
O4_6 Co3 1_555 1_555
O9_6 Co3 1_555 1_555
C3_7 O13_3 1_555 1_555
H4_7 O16_7 1_555 1_555
H5_7 O16_7 1_555 1_555
C5_7 C6_7 1_555 1_555
C8_7 C3_7 1_555 1_555
H6_7 C8_7 1_555 1_555
O7_6 C5_7 1_555 1_555
O16_7 Co6_2 1_555 1_555
C5_7 O10_2 1_555 1_555
C6_7 C8_7 1_555 1_555
H1_7 O4_7 1_555 1_555
H2_7 O4_7 1_555 1_555
C1_7 C2_7 1_555 1_555
C4_7 C2_7 1_555 1_555
H3_7 C4_7 1_555 1_555
O6_3 C1_7 1_555 1_555
O9_5 C1_7 1_555 1_555
O4_7 Co5_3 1_555 1_555
C7_7 C4_7 1_555 1_555
C7_7 O14_2 1_555 1_555
C3_8 O13 1_555 1_555
H4_8 O16_8 1_555 1_555
H5_8 O16_8 1_555 1_555
C5_8 C6_8 1_555 1_555
C8_8 C3_8 1_555 1_555
H6_8 C8_8 1_555 1_555
O7_4 C5_8 1_555 1_555
O16_8 Co6_3 1_555 1_555
C5_8 O10_3 1_555 1_555
C6_8 C8_8 1_555 1_555
H1_8 O4_8 1_555 1_555
H2_8 O4_8 1_555 1_555
C1_8 C2_8 1_555 1_555
C4_8 C2_8 1_555 1_555
H3_8 C4_8 1_555 1_555
O6 C1_8 1_555 1_555
O9_6 C1_8 1_555 1_555
O4_8 Co5 1_555 1_555
C7_8 C4_8 1_555 1_555
C7_8 O14_3 1_555 1_555
H1_9 O4_9 1_555 1_555
H2_9 O4_9 1_555 1_555
C1_9 C2_9 1_555 1_555
C4_9 C2_9 1_555 1_555
H3_9 C4_9 1_555 1_555
O6_2 C1_9 1_555 1_555
O9_4 C1_9 1_555 1_555
O4_9 Co5_2 1_555 1_555
C7_9 C4_9 1_555 1_555
C7_9 O14 1_555 1_555
C3_9 O13_2 1_555 1_555
H4_9 O16_9 1_555 1_555
H5_9 O16_9 1_555 1_555
C5_9 C6_9 1_555 1_555
C8_9 C3_9 1_555 1_555
H6_9 C8_9 1_555 1_555
O7_5 C5_9 1_555 1_555
O16_9 Co6 1_555 1_555
C5_9 O10 1_555 1_555
C6_9 C8_9 1_555 1_555

#END
