
###############################################################################
#
# This file contains modified crystal structure data generated from the
# MOF subset of the Cambridge Structural Database (CSD) v543 
# hosted by the Cambridge Crystallographic Data Centre (CCDC).
#
# This work is licensed under the Creative Commons
# Attribution-NonCommercial-ShareAlike 4.0 International License.
# To view a copy of this license, visit
# http://creativecommons.org/licenses/by-nc-sa/4.0/
# or send a letter to
# Creative Commons, PO Box 1866, Mountain View, CA 94042, USA.
#
# CIF created using the CSD Python API on 29 September 2022
# The structure has been converted into the P1 space group
# The structure has a 3D framework
# The original CSD entry NAWHOL01 is in the triclinic crystal system
# The framework has been calculated to contain at least 10.0% void space
# The void calculation uses a probe of radius 1.32A, grid spacing 0.4
#
###############################################################################

data_NAWHOL01
_chemical_formula_moiety         '(C30 H50 La4 O30)n'
_symmetry_cell_setting           triclinic
_symmetry_space_group_name_H-M   'P 1'
_symmetry_Int_Tables_number      1
_space_group_name_Hall           'P 1'
loop_
_symmetry_equiv_pos_site_id
_symmetry_equiv_pos_as_xyz
1 x,y,z
_cell_length_a                   9.0304(7)
_cell_length_b                   9.8208(8)
_cell_length_c                   16.1928(12)
_cell_angle_alpha                103.5646(19)
_cell_angle_beta                 103.8727(18)
_cell_angle_gamma                98.589(2)
_cell_volume                     1322.75
loop_
_atom_site_label
_atom_site_type_symbol
_atom_site_fract_x
_atom_site_fract_y
_atom_site_fract_z
H5 H 0.0384 0.2545 0.3429
C5 C 0.0508(2) 0.0796(2) 0.24837(14)
O3 O 0.18387(17) 0.05186(18) 0.27612(11)
H17 H 0.0093 0.6302 0.4850
H18 H 0.0001 0.5444 0.3864
C15 C 0.1158(2) 0.7550(2) 0.42120(14)
O11 O 0.08188(18) 0.85823(18) 0.39271(11)
O12 O 0.25895(17) 0.74344(18) 0.44615(11)
La4 La 0.19289(2) 0.95166(2) 0.09802(2)
La6 La 0.34751(2) 0.92512(2) 0.36470(2)
C2 C 0.7013(2) 0.0088(2) 0.25094(14)
C3 C 0.8059(2) 0.1587(2) 0.27692(14)
H3 H 0.7725 0.2251 0.3215
H4 H 0.7950 0.1949 0.2241
C4 C 0.9771(2) 0.1547(2) 0.31526(14)
H6 H 0.9840 0.1059 0.3626
O2 O 0.50207(17) 0.04528(18) 0.13383(10)
O4 O 0.98592(17) 0.05113(18) 0.16671(10)
O15 O 0.5225(2) 0.1677(2) 0.39044(11)
H23 H 0.516(4) 0.233(3) 0.365(2)
H24 H 0.583(3) 0.211(3) 0.4396(14)
O18 O 0.06254(17) 0.14149(17) 0.02510(10)
O20 O 0.26359(17) 0.22660(17) 0.14378(10)
O21 O 0.39294(17) 0.07509(18) 0.52480(10)
La7 La 0.65249(2) 0.07488(2) 0.63530(2)
C1 C 0.5335(2) 0.9981(2) 0.20079(14)
H1 H 0.7459 0.9405 0.2139
H2 H 0.7026 0.9791 0.3054
C6 C 0.0650(2) 0.6816(2) 0.18413(14)
C8 C 0.0232(3) 0.4167(2) 0.17089(15)
H10 H 0.0971 0.4331 0.2301
C9 C 0.1107(2) 0.3922(2) 0.10028(14)
H11 H 0.0448 0.3982 0.0434
H12 H 0.2079 0.4672 0.1189
C10 C 0.1496(2) 0.2469(2) 0.08847(13)
C11 C 0.6352(2) 0.8164(2) 0.42479(14)
C12 C 0.7856(2) 0.7717(3) 0.45775(14)
H13 H 0.7813 0.7375 0.5101
H14 H 0.8724 0.8573 0.4776
C13 C 0.8230(2) 0.6554(3) 0.39080(16)
H15 H 0.8092 0.6805 0.3341
H16 H 0.7490 0.5635 0.3796
C14 C 0.9904(2) 0.6366(2) 0.42337(17)
H18_2 H 1.0001 0.5444 0.3864
O1 O 0.42338(18) 0.93545(19) 0.22470(10)
O5 O 0.02940(18) 0.75967(18) 0.13365(11)
O6 O 0.19095(19) 0.71002(19) 0.24484(11)
O9 O 0.53987(18) 0.7527(2) 0.35026(11)
O10 O 0.60706(17) 0.92491(18) 0.47520(10)
O14 O 0.28996(19) 0.72030(18) 0.04603(11)
H21 H 0.329(3) 0.716(4) 0.0047(17)
H22 H 0.335(3) 0.681(3) 0.0807(19)
O19 O 0.93746(17) 0.85851(17) 0.97490(10)
La5 La 0.80711(2) 0.04834(2) 0.90198(2)
O17 O 0.01408(17) 0.94887(18) 0.83329(10)
C1_2 C 0.4665(2) 0.0019(2) 0.79921(14)
H1_2 H 0.2541 0.0595 0.7861
H2_2 H 0.2974 0.0209 0.6946
C6_2 C 0.9350(2) 0.3184(2) 0.81587(14)
C8_2 C 0.9768(3) 0.5833(2) 0.82911(15)
H10_2 H 0.9029 0.5669 0.7699
C9_2 C 0.8893(2) 0.6078(2) 0.89972(14)
H11_2 H 0.9552 0.6018 0.9566
H12_2 H 0.7921 0.5328 0.8811
C10_2 C 0.8504(2) 0.7531(2) 0.91153(13)
C11_2 C 0.3648(2) 0.1836(2) 0.57521(14)
C12_2 C 0.2144(2) 0.2283(3) 0.54225(14)
H13_2 H 0.2187 0.2625 0.4899
H14_2 H 0.1276 0.1427 0.5224
C13_2 C 0.1770(2) 0.3446(3) 0.60920(16)
H15_2 H 0.1908 0.3195 0.6659
H16_2 H 0.2510 0.4365 0.6204
C14_2 C 0.0096(2) 0.3634(2) 0.57663(17)
H18_3 H -0.0001 0.4556 0.6136
O1_2 O 0.57662(18) 0.06455(19) 0.77530(10)
O5_2 O 0.97060(18) 0.24033(18) 0.86635(11)
O6_2 O 0.80905(19) 0.28998(19) 0.75516(11)
O8 O 0.73641(17) 0.77340(17) 0.85622(10)
O9_2 O 0.46013(18) 0.2473(2) 0.64974(11)
O14_2 O 0.71004(19) 0.27970(18) 0.95397(11)
H21_2 H 0.671(3) 0.284(4) 0.9953(17)
H22_2 H 0.665(3) 0.319(3) 0.9193(19)
O22 O 0.91812(18) 0.14177(18) 0.60729(11)
O23 O 0.74105(17) 0.25656(18) 0.55385(11)
C2_2 C 0.2987(2) 0.9912(2) 0.74906(14)
C3_2 C 0.1941(2) 0.8413(2) 0.72308(14)
H3_2 H 0.2275 0.7749 0.6785
H4_2 H 0.2050 0.8051 0.7759
C4_2 C 0.0229(2) 0.8453(2) 0.68474(14)
H6_2 H 0.0160 0.8941 0.6374
O2_2 O 0.49793(17) 0.95472(18) 0.86617(10)
O15_2 O 0.4775(2) 0.8323(2) 0.60956(11)
H23_2 H 0.484(4) 0.767(3) 0.635(2)
H24_2 H 0.417(3) 0.789(3) 0.5604(14)
O16 O 0.81613(17) 0.94814(18) 0.72388(11)
H17_2 H 0.9907 0.3698 0.5150
H18_4 H 0.9999 0.4556 0.6136
C15_2 C 0.8842(2) 0.2450(2) 0.57880(14)
H5_2 H 0.9616 0.7455 0.6571
C5_2 C 0.9492(2) 0.9204(2) 0.75163(14)
O13 O 0.26741(18) 0.9499(2) 0.95768(11)
H19 H 0.344(3) 0.953(4) 0.937(2)
H20 H 0.196(3) 0.954(4) 0.9157(16)
C7 C 0.9476(2) 0.5451(2) 0.16993(15)
H7 H 0.8675 0.5248 0.1123
H8 H 0.8943 0.5591 0.2171
H9 H 0.9415 0.3298 0.1598
C7_2 C 0.0524(2) 0.4549(2) 0.83007(15)
H7_2 H 0.1325 0.4752 0.8877
H8_2 H 0.1057 0.4409 0.7829
H9_2 H 0.0585 0.6702 0.8402
O13_2 O 0.73259(18) 0.0501(2) 0.04232(11)
H19_2 H 0.656(3) 0.047(4) 0.063(2)
H20_2 H 0.804(3) 0.046(4) 0.0843(16)
loop_
_geom_bond_atom_site_label_1
_geom_bond_atom_site_label_2
_geom_bond_site_symmetry_1
_geom_bond_site_symmetry_2
O3 C5 1_555 1_555
O11 C15 1_555 1_555
O12 C15 1_555 1_555
O11 La6 1_555 1_555
O12 La6 1_555 1_555
C3 C2 1_555 1_555
H3 C3 1_555 1_555
H4 C3 1_555 1_555
C4 C3 1_555 1_555
H6 C4 1_555 1_555
O15 H23 1_555 1_555
H24 O15 1_555 1_555
O21 La7 1_555 1_555
H10 C8 1_555 1_555
C9 C8 1_555 1_555
H11 C9 1_555 1_555
H12 C9 1_555 1_555
C10 C9 1_555 1_555
C11 C12 1_555 1_555
C12 H13 1_555 1_555
H14 C12 1_555 1_555
C13 C12 1_555 1_555
H15 C13 1_555 1_555
H16 C13 1_555 1_555
C14 C13 1_555 1_555
H18_2 C14 1_555 1_555
O1 C1 1_555 1_555
O5 C6 1_555 1_555
O6 C6 1_555 1_555
O18 C10 1_555 1_555
O20 C10 1_555 1_555
O9 C11 1_555 1_555
O10 C11 1_555 1_555
O14 H21 1_555 1_555
H22 O14 1_555 1_555
La4 O1 1_555 1_555
La6 O1 1_555 1_555
O5 La4 1_555 1_555
O6 La6 1_555 1_555
O9 La6 1_555 1_555
O10 La6 1_555 1_555
O14 La4 1_555 1_555
H10_2 C8_2 1_555 1_555
C9_2 C8_2 1_555 1_555
H11_2 C9_2 1_555 1_555
H12_2 C9_2 1_555 1_555
C10_2 C9_2 1_555 1_555
C11_2 C12_2 1_555 1_555
C12_2 H13_2 1_555 1_555
H14_2 C12_2 1_555 1_555
C13_2 C12_2 1_555 1_555
H15_2 C13_2 1_555 1_555
H16_2 C13_2 1_555 1_555
C14_2 C13_2 1_555 1_555
H18_3 C14_2 1_555 1_555
O1_2 C1_2 1_555 1_555
O5_2 C6_2 1_555 1_555
O6_2 C6_2 1_555 1_555
O19 C10_2 1_555 1_555
O8 C10_2 1_555 1_555
O9_2 C11_2 1_555 1_555
O21 C11_2 1_555 1_555
O14_2 H21_2 1_555 1_555
H22_2 O14_2 1_555 1_555
La5 O1_2 1_555 1_555
La7 O1_2 1_555 1_555
O22 La7 1_555 1_555
O23 La7 1_555 1_555
O5_2 La5 1_555 1_555
O6_2 La7 1_555 1_555
O9_2 La7 1_555 1_555
O14_2 La5 1_555 1_555
C3_2 C2_2 1_555 1_555
H3_2 C3_2 1_555 1_555
H4_2 C3_2 1_555 1_555
C4_2 C3_2 1_555 1_555
H6_2 C4_2 1_555 1_555
O15_2 H23_2 1_555 1_555
H24_2 O15_2 1_555 1_555
O22 C15_2 1_555 1_555
O23 C15_2 1_555 1_555
O16 C5_2 1_555 1_555
O13 H19 1_555 1_555
H20 O13 1_555 1_555
C7 H7 1_555 1_555
H8 C7 1_555 1_555
C7_2 H7_2 1_555 1_555
H8_2 C7_2 1_555 1_555
O13_2 H19_2 1_555 1_555
H20_2 O13_2 1_555 1_555

#END
