
###############################################################################
#
# This file contains modified crystal structure data generated from the
# MOF subset of the Cambridge Structural Database (CSD) v543 
# hosted by the Cambridge Crystallographic Data Centre (CCDC).
#
# This work is licensed under the Creative Commons
# Attribution-NonCommercial-ShareAlike 4.0 International License.
# To view a copy of this license, visit
# http://creativecommons.org/licenses/by-nc-sa/4.0/
# or send a letter to
# Creative Commons, PO Box 1866, Mountain View, CA 94042, USA.
#
# CIF created using the CSD Python API on 29 September 2022
# The structure has been converted into the P1 space group
# The structure has a 3D framework
# The original CSD entry NAWHOL is in the triclinic crystal system
# The framework has been calculated to contain at least 10.0% void space
# The void calculation uses a probe of radius 1.32A, grid spacing 0.4
#
###############################################################################

data_NAWHOL
_chemical_formula_moiety         '(C30 H48 La4 O28)n'
_symmetry_cell_setting           triclinic
_symmetry_space_group_name_H-M   'P 1'
_symmetry_Int_Tables_number      1
_space_group_name_Hall           'P 1'
loop_
_symmetry_equiv_pos_site_id
_symmetry_equiv_pos_as_xyz
1 x,y,z
_cell_length_a                   9.076(2)
_cell_length_b                   9.867(3)
_cell_length_c                   16.303(4)
_cell_angle_alpha                103.349(16)
_cell_angle_beta                 104.110(9)
_cell_angle_gamma                98.526(10)
_cell_volume                     1344.92
loop_
_atom_site_label
_atom_site_type_symbol
_atom_site_fract_x
_atom_site_fract_y
_atom_site_fract_z
O1 O 0.0202(4) 0.6711(4) 0.8933(2)
H1 H 0.0711 0.6683 0.8558
H2 H 0.0848 0.6945 0.9444
O19 O 0.1082(3) 0.4269(3) 0.97591(18)
O21 O 0.0446(3) 0.2608(3) 0.85126(18)
O23 O 0.0021(3) 0.5417(3) 0.63185(19)
H15 H 0.2874 0.2497 0.0099
La7 La 0.15158(2) 0.57330(2) 0.135673(12)
O20 O 0.8918(3) 0.5731(3) 0.02409(18)
La1 La 0.69213(2) 0.45144(2) 0.598112(12)
La2 La 0.84842(2) 0.42670(2) 0.864327(12)
O2 O 0.6981(4) 0.2153(3) 0.7428(2)
O3 O 0.7914(4) 0.2230(3) 0.5464(2)
H3 H 0.8546 0.2074 0.5893
H4 H 0.8363 0.2300 0.5071
O4 O 0.5332(4) 0.2580(3) 0.6325(2)
O6 O 0.7649(4) 0.4550(4) 0.4585(2)
O8 O 0.7584(3) 0.2440(3) 0.94335(19)
O9 O 0.5833(3) 0.3571(3) 0.8898(2)
O12 O 0.6818(3) 0.5521(3) 0.7778(2)
O13 O 0.4860(3) 0.5471(3) 0.66773(17)
C1 C 0.5718(4) 0.1837(4) 0.6833(2)
C2 C 0.4583(5) 0.0484(4) 0.6722(3)
H5 H 0.3774 0.0275 0.6169
H6 H 0.4095 0.0631 0.7193
C6 C 0.6177(4) 0.2572(4) 0.9198(2)
C7 C 0.4925(5) 0.1436(4) 0.9256(3)
H11 H 0.5125 0.1417 0.9865
H12 H 0.5005 0.0517 0.8917
C8 C 0.3257(5) 0.1624(4) 0.8929(3)
H13 H 0.3114 0.1844 0.8369
H14 H 0.2535 0.0734 0.8835
C9 C 0.2889(5) 0.2800(5) 0.9575(3)
H16 H 0.3726 0.3636 0.9747
C10 C 0.1385(4) 0.3222(4) 0.9249(2)
C11 C 0.5500(4) 0.5787(4) 0.7489(2)
C12 C 0.4742(5) 0.6530(5) 0.8133(3)
H17 H 0.5339 0.7501 0.8404
H18 H 0.4795 0.6056 0.8595
C13 C 0.3051(4) 0.6579(4) 0.7745(3)
H19 H 0.2953 0.6926 0.7228
H20 H 0.2725 0.7233 0.8173
C14 C 0.1998(4) 0.5092(5) 0.7490(3)
H21 H 0.2422 0.4420 0.7129
H22 H 0.2011 0.4804 0.8021
C15 C 0.0342(4) 0.5010(4) 0.6998(2)
H23 H 0.681(7) 0.445(6) 0.411(4)
H24 H 0.837(7) 0.448(6) 0.446(3)
O16 O 0.7621(3) 0.7253(3) 0.64299(18)
O17 O 0.5595(3) 0.6420(3) 0.52672(16)
O18 O 0.4405(3) 0.3580(3) 0.47328(16)
O22 O 0.9242(3) 0.4445(3) 0.72570(18)
C3 C 0.5334(6) 0.9209(4) 0.6728(3)
H7 H 0.6093 0.9386 0.7296
H8 H 0.4543 0.8374 0.6649
C4 C 0.6130(5) 0.8914(4) 0.6010(3)
H9 H 0.5459 0.8973 0.5463
H10 H 0.7087 0.9625 0.6168
C5 C 0.6486(4) 0.7455(4) 0.5888(2)
La5 La 0.30787(2) 0.54856(2) 0.401888(12)
O14 O 0.0758(3) 0.5555(3) 0.27430(18)
O5 O 0.2379(3) 0.2747(3) 0.35701(18)
C3_2 C 0.4666(6) 0.0791(4) 0.3272(3)
H7_2 H 0.3907 0.0614 0.2704
H8_2 H 0.5457 0.1626 0.3351
C4_2 C 0.3870(5) 0.1086(4) 0.3990(3)
H9_2 H 0.4541 0.1027 0.4537
H10_2 H 0.2913 0.0375 0.3832
C5_2 C 0.3514(4) 0.2545(4) 0.4112(2)
O2_2 O 0.3019(4) 0.7847(3) 0.2572(2)
O3_2 O 0.2086(4) 0.7770(3) 0.4536(2)
H3_2 H 0.1454 0.7926 0.4107
H4_2 H 0.1637 0.7700 0.4929
O4_2 O 0.4668(4) 0.7420(3) 0.3675(2)
O6_2 O 0.2351(4) 0.5450(4) 0.5415(2)
O8_2 O 0.2416(3) 0.7560(3) 0.05665(19)
O9_2 O 0.4167(3) 0.6429(3) 0.1102(2)
O11 O 0.9554(3) 0.7392(3) 0.14874(18)
O12_2 O 0.3182(3) 0.4479(3) 0.2222(2)
O13_2 O 0.5140(3) 0.4529(3) 0.33227(17)
O15 O 0.9979(3) 0.4583(3) 0.36815(19)
C1_2 C 0.4282(4) 0.8163(4) 0.3167(2)
C2_2 C 0.5417(5) 0.9516(4) 0.3278(3)
H5_2 H 0.6226 0.9725 0.3831
H6_2 H 0.5905 0.9369 0.2807
C6_2 C 0.3823(4) 0.7428(4) 0.0802(2)
C7_2 C 0.5075(5) 0.8564(4) 0.0744(3)
H11_2 H 0.4875 0.8583 0.0135
H12_2 H 0.4995 0.9483 0.1083
C8_2 C 0.6743(5) 0.8376(4) 0.1071(3)
H13_2 H 0.6886 0.8156 0.1631
H14_2 H 0.7465 0.9266 0.1165
C9_2 C 0.7111(5) 0.7200(5) 0.0425(3)
H16_2 H 0.6274 0.6364 0.0253
C10_2 C 0.8615(4) 0.6778(4) 0.0751(2)
C11_2 C 0.4500(4) 0.4213(4) 0.2511(2)
C12_2 C 0.5258(5) 0.3470(5) 0.1867(3)
H17_2 H 0.4661 0.2499 0.1596
H18_2 H 0.5205 0.3944 0.1405
C13_2 C 0.6949(4) 0.3421(4) 0.2255(3)
H19_2 H 0.7047 0.3074 0.2772
H20_2 H 0.7275 0.2767 0.1827
C14_2 C 0.8002(4) 0.4908(5) 0.2510(3)
H21_2 H 0.7578 0.5580 0.2871
H22_2 H 0.7989 0.5196 0.1979
C15_2 C 0.9658(4) 0.4990(4) 0.3002(2)
H23_2 H 0.319(7) 0.555(6) 0.589(4)
H24_2 H 0.163(7) 0.552(6) 0.554(3)
H15_2 H 0.7126 0.7503 0.9901
O1_2 O 0.9798(4) 0.3289(4) 0.1067(2)
H1_2 H 0.9289 0.3317 0.1442
H2_2 H 0.9152 0.3055 0.0556
loop_
_geom_bond_atom_site_label_1
_geom_bond_atom_site_label_2
_geom_bond_site_symmetry_1
_geom_bond_site_symmetry_2
O1 H1 1_555 1_555
H2 O1 1_555 1_555
La1 O3 1_555 1_555
O2 La2 1_555 1_555
O3 H3 1_555 1_555
H4 O3 1_555 1_555
O4 La1 1_555 1_555
O6 La1 1_555 1_555
O8 La2 1_555 1_555
O9 La2 1_555 1_555
O19 C10 1_555 1_555
O21 C10 1_555 1_555
O12 La1 1_555 1_555
O13 La1 1_555 1_555
O23 C15 1_555 1_555
C1 O2 1_555 1_555
C2 C1 1_555 1_555
H5 C2 1_555 1_555
H6 C2 1_555 1_555
C6 O8 1_555 1_555
C7 C6 1_555 1_555
H11 C7 1_555 1_555
H12 C7 1_555 1_555
C8 C7 1_555 1_555
H13 C8 1_555 1_555
H14 C8 1_555 1_555
C9 C8 1_555 1_555
H16 C9 1_555 1_555
C10 C9 1_555 1_555
C11 O12 1_555 1_555
C12 C11 1_555 1_555
H17 C12 1_555 1_555
H18 C12 1_555 1_555
C13 C12 1_555 1_555
H19 C13 1_555 1_555
H20 C13 1_555 1_555
C14 C13 1_555 1_555
H21 C14 1_555 1_555
H22 C14 1_555 1_555
C15 C14 1_555 1_555
H23 O6 1_555 1_555
H24 O6 1_555 1_555
O16 La1 1_555 1_555
O17 La1 1_555 1_555
O18 La1 1_555 1_555
O22 La1 1_555 1_555
La2 O12 1_555 1_555
La2 O22 1_555 1_555
O4 C1 1_555 1_555
O9 C6 1_555 1_555
O13 C11 1_555 1_555
O16 C5 1_555 1_555
O17 C5 1_555 1_555
H7 C3 1_555 1_555
H8 C3 1_555 1_555
C4 C3 1_555 1_555
H9 C4 1_555 1_555
H10 C4 1_555 1_555
C5 C4 1_555 1_555
La5 O17 1_555 1_555
La5 O14 1_555 1_555
O14 La7 1_555 1_555
O5 C5_2 1_555 1_555
O18 C5_2 1_555 1_555
H7_2 C3_2 1_555 1_555
H8_2 C3_2 1_555 1_555
C4_2 C3_2 1_555 1_555
H9_2 C4_2 1_555 1_555
H10_2 C4_2 1_555 1_555
C5_2 C4_2 1_555 1_555
La5 O5 1_555 1_555
O18 La5 1_555 1_555
La5 O3_2 1_555 1_555
O2_2 La7 1_555 1_555
O3_2 H3_2 1_555 1_555
H4_2 O3_2 1_555 1_555
O4_2 La5 1_555 1_555
O6_2 La5 1_555 1_555
O8_2 La7 1_555 1_555
O9_2 La7 1_555 1_555
O20 C10_2 1_555 1_555
O11 C10_2 1_555 1_555
O12_2 La5 1_555 1_555
O13_2 La5 1_555 1_555
O15 C15_2 1_555 1_555
C1_2 O2_2 1_555 1_555
C2_2 C1_2 1_555 1_555
H5_2 C2_2 1_555 1_555
H6_2 C2_2 1_555 1_555
C6_2 O8_2 1_555 1_555
C7_2 C6_2 1_555 1_555
H11_2 C7_2 1_555 1_555
H12_2 C7_2 1_555 1_555
C8_2 C7_2 1_555 1_555
H13_2 C8_2 1_555 1_555
H14_2 C8_2 1_555 1_555
C9_2 C8_2 1_555 1_555
H16_2 C9_2 1_555 1_555
C10_2 C9_2 1_555 1_555
C11_2 O12_2 1_555 1_555
C12_2 C11_2 1_555 1_555
H17_2 C12_2 1_555 1_555
H18_2 C12_2 1_555 1_555
C13_2 C12_2 1_555 1_555
H19_2 C13_2 1_555 1_555
H20_2 C13_2 1_555 1_555
C14_2 C13_2 1_555 1_555
H21_2 C14_2 1_555 1_555
H22_2 C14_2 1_555 1_555
C15_2 C14_2 1_555 1_555
H23_2 O6_2 1_555 1_555
H24_2 O6_2 1_555 1_555
La7 O12_2 1_555 1_555
O4_2 C1_2 1_555 1_555
O9_2 C6_2 1_555 1_555
O13_2 C11_2 1_555 1_555
O1_2 H1_2 1_555 1_555
H2_2 O1_2 1_555 1_555

#END
