
###############################################################################
#
# This file contains modified crystal structure data generated from the
# MOF subset of the Cambridge Structural Database (CSD) v543 
# hosted by the Cambridge Crystallographic Data Centre (CCDC).
#
# This work is licensed under the Creative Commons
# Attribution-NonCommercial-ShareAlike 4.0 International License.
# To view a copy of this license, visit
# http://creativecommons.org/licenses/by-nc-sa/4.0/
# or send a letter to
# Creative Commons, PO Box 1866, Mountain View, CA 94042, USA.
#
# CIF created using the CSD Python API on 29 September 2022
# The structure has been converted into the P1 space group
# The structure has a 3D framework
# The original CSD entry NAWWUG is in the monoclinic crystal system
# The framework has been calculated to contain at least 10.0% void space
# The void calculation uses a probe of radius 1.32A, grid spacing 0.4
#
###############################################################################

data_NAWWUG
_chemical_formula_moiety         '(C60 H44 N16 Ni8 O24)n'
_symmetry_cell_setting           triclinic
_symmetry_space_group_name_H-M   'P 1'
_symmetry_Int_Tables_number      1
_space_group_name_Hall           'P 1'
loop_
_symmetry_equiv_pos_site_id
_symmetry_equiv_pos_as_xyz
1 x,y,z
_cell_length_a                   20.395(4)
_cell_length_b                   6.9410(14)
_cell_length_c                   20.070(4)
_cell_angle_alpha                90
_cell_angle_beta                 119.18(3)
_cell_angle_gamma                90
_cell_volume                     2480.58
loop_
_atom_site_label
_atom_site_type_symbol
_atom_site_fract_x
_atom_site_fract_y
_atom_site_fract_z
Ni1 Ni 0.42071(6) 0.51044(14) 0.13041(5)
Ni2 Ni -0.0000 0.4023(2) 0.2500
O1 O 0.4340(3) 0.4888(7) 0.5329(3)
O2 O 0.3218(3) 0.4842(8) 0.5211(3)
C1 C 0.3648(5) 0.4848(11) 0.4912(4)
C2 C 0.3314(5) 0.4825(10) 0.4051(5)
C3 C 0.3781(4) 0.4932(10) 0.3743(4)
H1 H 0.4310 0.5009 0.4062
C4 C 0.2559(4) 0.4650(9) 0.3613(4)
H2 H 0.2255 0.4557 0.3850
O3 O 0.3646(3) 0.5067(7) 0.1882(3)
O4 O 0.4652(3) 0.5114(8) 0.3035(3)
O5 O 0.1069(3) 0.4040(9) 0.2753(3)
O6 O 0.1054(3) 0.4577(12) 0.1657(3)
C5 C 0.3972(4) 0.5053(10) 0.2613(4)
C6 C 0.3466(4) 0.4927(10) 0.2951(5)
C7 C 0.2687(4) 0.4766(9) 0.2491(5)
H3 H 0.2476 0.4767 0.1951
C8 C 0.2217(4) 0.4603(10) 0.2810(4)
C9 C 0.1392(5) 0.4396(11) 0.2373(4)
C10 C 0.4799(6) 0.1078(13) 0.1421(8)
H4 H 0.5237 0.1744 0.1497
N1 N 0.4196(3) 0.2112(11) 0.1311(3)
C13 C 0.3631(5) 0.1065(13) 0.1257(6)
H7 H 0.3199 0.1715 0.1207
N3 N 0.0000 0.1002(14) 0.2500
C14 C 0.0554(5) 0.0021(12) 0.3077(5)
H8 H 0.0950 0.0683 0.3493
O7 O 0.0376(3) 0.3921(9) 0.3660(3)
H10 H 0.003(4) 0.424(15) 0.376(6)
H11 H 0.075(4) 0.445(13) 0.403(4)
Ni7 Ni 0.57929(6) 0.51044(14) 0.36959(5)
Ni9 Ni 0.42071(6) 0.48956(14) 0.63041(5)
O16 O 0.4340(3) 0.5112(7) 0.0329(3)
O18 O 0.3218(3) 0.5158(8) 0.0211(3)
O20 O 0.5348(3) 0.5114(8) 0.1965(3)
N7 N 0.4211(3) 0.8059(12) 0.1324(3)
N9 N 0.0000 0.6929(13) 0.2500
C11 C 0.4807(7) 0.9145(16) 0.1429(8)
H5 H 0.5252 0.8506 0.1511
C12 C 0.3635(5) 0.9136(14) 0.1268(6)
H6 H 0.3209 0.8490 0.1234
C15 C 0.0536(4) 0.8012(13) 0.3056(4)
H9 H 0.0936 0.7351 0.3468
Ni2_2 Ni 1.0000 0.4023(2) 0.2500
N3_2 N 1.0000 0.1002(14) 0.2500
C16 C 0.9446(5) 0.0021(12) 0.1923(5)
H12 H 0.9050 0.0683 0.1507
C18 C 0.6352(5) 0.4848(11) 0.0088(4)
C19 C 0.6686(5) 0.4825(10) 0.0949(5)
C20 C 0.6219(4) 0.4932(10) 0.1257(4)
H14 H 0.5690 0.5009 0.0938
C21 C 0.7441(4) 0.4650(9) 0.1387(4)
H15 H 0.7745 0.4557 0.1150
O10 O 0.6354(3) 0.5067(7) 0.3118(3)
O12 O 0.8931(3) 0.4040(9) 0.2247(3)
O13 O 0.8946(3) 0.4577(12) 0.3343(3)
C22 C 0.6028(4) 0.5053(10) 0.2387(4)
C23 C 0.6534(4) 0.4927(10) 0.2049(5)
C24 C 0.7313(4) 0.4766(9) 0.2509(5)
H16 H 0.7524 0.4767 0.3049
C25 C 0.7783(4) 0.4603(10) 0.2190(4)
C26 C 0.8608(5) 0.4396(11) 0.2627(4)
C27 C 0.5201(6) 0.1078(13) 0.3579(8)
H17 H 0.4763 0.1744 0.3503
N5 N 0.5804(3) 0.2112(11) 0.3689(3)
C30 C 0.6369(5) 0.1065(13) 0.3743(6)
H20 H 0.6801 0.1715 0.3793
O14 O 0.9624(3) 0.3921(9) 0.1340(3)
H21 H 0.997(4) 0.424(15) 0.124(6)
H22 H 0.925(4) 0.445(13) 0.097(4)
O15 O 0.5660(3) 0.5112(7) 0.4671(3)
O17 O 0.6782(3) 0.5158(8) 0.4789(3)
N8 N 0.5789(3) 0.8059(12) 0.3676(3)
N9_2 N 1.0000 0.6929(13) 0.2500
O8 O 0.5660(3) 0.4888(7) 0.9671(3)
O9 O 0.6782(3) 0.4842(8) 0.9789(3)
Ni8 Ni 0.57929(6) 0.48956(14) 0.86959(5)
C17 C 0.9464(4) 0.8012(13) 0.1944(4)
H13 H 0.9064 0.7351 0.1532
C28 C 0.5193(7) 0.9145(16) 0.3571(8)
H18 H 0.4748 0.8506 0.3489
C29 C 0.6365(5) 0.9136(14) 0.3732(6)
H19 H 0.6791 0.8490 0.3766
N4 N 0.0000 0.3071(13) 0.7500
C17_2 C 0.0536(4) 0.1988(13) 0.8056(4)
H13_2 H 0.0936 0.2649 0.8468
N6 N 0.4211(3) 0.1941(12) 0.6324(3)
C28_2 C 0.4807(7) 0.0855(16) 0.6429(8)
H18_2 H 0.5252 0.1494 0.6511
C29_2 C 0.3635(5) 0.0864(14) 0.6268(6)
H19_2 H 0.3209 0.1510 0.6234
Ni10 Ni 0.0000 0.5977(2) 0.7500
N3_3 N 0.0000 0.8998(14) 0.7500
C16_2 C 0.0554(5) 0.9979(12) 0.8077(5)
H12_2 H 0.0950 0.9317 0.8493
C18_2 C 0.3648(5) 0.5152(11) 0.9912(4)
C19_2 C 0.3314(5) 0.5175(10) 0.9051(5)
C20_2 C 0.3781(4) 0.5068(10) 0.8743(4)
H14_2 H 0.4310 0.4991 0.9062
C21_2 C 0.2559(4) 0.5350(9) 0.8613(4)
H15_2 H 0.2255 0.5443 0.8850
O10_2 O 0.3646(3) 0.4933(7) 0.6882(3)
O11 O 0.4652(3) 0.4886(8) 0.8035(3)
O12_2 O 0.1069(3) 0.5960(9) 0.7753(3)
O13_2 O 0.1054(3) 0.5423(12) 0.6657(3)
C22_2 C 0.3972(4) 0.4947(10) 0.7613(4)
C23_2 C 0.3466(4) 0.5073(10) 0.7951(5)
C24_2 C 0.2687(4) 0.5234(9) 0.7491(5)
H16_2 H 0.2476 0.5233 0.6951
C25_2 C 0.2217(4) 0.5397(10) 0.7810(4)
C26_2 C 0.1392(5) 0.5604(11) 0.7373(4)
C27_2 C 0.4799(6) 0.8922(13) 0.6421(8)
H17_2 H 0.5237 0.8256 0.6497
N5_2 N 0.4196(3) 0.7888(11) 0.6311(3)
C30_2 C 0.3631(5) 0.8935(13) 0.6257(6)
H20_2 H 0.3199 0.8285 0.6207
O14_2 O 0.0376(3) 0.6079(9) 0.8660(3)
H21_2 H 0.003(4) 0.576(15) 0.876(6)
H22_2 H 0.075(4) 0.555(13) 0.903(4)
O19 O 0.5348(3) 0.4886(8) 0.6965(3)
N2 N 0.5789(3) 0.1941(12) 0.8676(3)
C11_2 C 0.5193(7) 0.0855(16) 0.8571(8)
H5_2 H 0.4748 0.1494 0.8489
C12_2 C 0.6365(5) 0.0864(14) 0.8732(6)
H6_2 H 0.6791 0.1510 0.8766
N4_2 N 1.0000 0.3071(13) 0.7500
C15_2 C 0.9464(4) 0.1988(13) 0.6944(4)
H9_2 H 0.9064 0.2649 0.6532
Ni10_2 Ni 1.0000 0.5977(2) 0.7500
C1_2 C 0.6352(5) 0.5152(11) 0.5088(4)
C2_2 C 0.6686(5) 0.5175(10) 0.5949(5)
C3_2 C 0.6219(4) 0.5068(10) 0.6257(4)
H1_2 H 0.5690 0.4991 0.5938
C4_2 C 0.7441(4) 0.5350(9) 0.6387(4)
H2_2 H 0.7745 0.5443 0.6150
O3_2 O 0.6354(3) 0.4933(7) 0.8118(3)
O5_2 O 0.8931(3) 0.5960(9) 0.7247(3)
O6_2 O 0.8946(3) 0.5423(12) 0.8343(3)
C5_2 C 0.6028(4) 0.4947(10) 0.7387(4)
C6_2 C 0.6534(4) 0.5073(10) 0.7049(5)
C7_2 C 0.7313(4) 0.5234(9) 0.7509(5)
H3_2 H 0.7524 0.5233 0.8049
C8_2 C 0.7783(4) 0.5397(10) 0.7190(4)
C9_2 C 0.8608(5) 0.5604(11) 0.7627(4)
C10_2 C 0.5201(6) 0.8922(13) 0.8579(8)
H4_2 H 0.4763 0.8256 0.8503
N1_2 N 0.5804(3) 0.7888(11) 0.8689(3)
C13_2 C 0.6369(5) 0.8935(13) 0.8743(6)
H7_2 H 0.6801 0.8285 0.8793
N3_4 N 1.0000 0.8998(14) 0.7500
C14_2 C 0.9446(5) 0.9979(12) 0.6923(5)
H8_2 H 0.9050 0.9317 0.6507
O7_2 O 0.9624(3) 0.6079(9) 0.6340(3)
H10_2 H 0.997(4) 0.576(15) 0.624(6)
H11_2 H 0.925(4) 0.555(13) 0.597(4)
loop_
_geom_bond_atom_site_label_1
_geom_bond_atom_site_label_2
_geom_bond_site_symmetry_1
_geom_bond_site_symmetry_2
Ni1 O3 1_555 1_555
Ni2 O5 1_555 1_555
O1 C1 1_555 1_555
O2 C1 1_555 1_555
C1 C2 1_555 1_555
C2 C3 1_555 1_555
C3 H1 1_555 1_555
C4 C2 1_555 1_555
H2 C4 1_555 1_555
O3 C5 1_555 1_555
O4 C5 1_555 1_555
O5 C9 1_555 1_555
O6 C9 1_555 1_555
C5 C6 1_555 1_555
C6 C3 1_555 1_555
C7 C6 1_555 1_555
H3 C7 1_555 1_555
C8 C4 1_555 1_555
C9 C8 1_555 1_555
C10 H4 1_555 1_555
N1 Ni1 1_555 1_555
C13 N1 1_555 1_555
H7 C13 1_555 1_555
N3 Ni2 1_555 1_555
C14 N3 1_555 1_555
H8 C14 1_555 1_555
O7 Ni2 1_555 1_555
H10 O7 1_555 1_555
H11 O7 1_555 1_555
Ni7 O4 1_555 1_555
Ni9 O1 1_555 1_555
O16 Ni1 1_555 1_555
O18 Ni1 1_555 1_555
O20 Ni1 1_555 1_555
N7 Ni1 1_555 1_555
N9 Ni2 1_555 1_555
O2 Ni9 1_555 1_555
C7 C8 1_555 1_555
C10 N1 1_555 1_555
N7 C11 1_555 1_555
H5 C11 1_555 1_555
C12 N7 1_555 1_555
H6 C12 1_555 1_555
N9 C15 1_555 1_555
H9 C15 1_555 1_555
N3_2 Ni2_2 1_555 1_555
C16 N3_2 1_555 1_555
H12 C16 1_555 1_555
Ni7 O10 1_555 1_555
C18 C19 1_555 1_555
C19 C20 1_555 1_555
C20 H14 1_555 1_555
C21 C19 1_555 1_555
H15 C21 1_555 1_555
O10 C22 1_555 1_555
O20 C22 1_555 1_555
O12 Ni2_2 1_555 1_555
O13 C26 1_555 1_555
C22 C23 1_555 1_555
C23 C20 1_555 1_555
C24 C23 1_555 1_555
H16 C24 1_555 1_555
C25 C21 1_555 1_555
C26 O12 1_555 1_555
C27 H17 1_555 1_555
N5 Ni7 1_555 1_555
C30 N5 1_555 1_555
H20 C30 1_555 1_555
O14 Ni2_2 1_555 1_555
H21 O14 1_555 1_555
H22 O14 1_555 1_555
O15 Ni7 1_555 1_555
O17 Ni7 1_555 1_555
N8 Ni7 1_555 1_555
N9_2 Ni2_2 1_555 1_555
C24 C25 1_555 1_555
C25 C26 1_555 1_555
C27 N5 1_555 1_555
Ni8 O8 1_555 1_555
O9 Ni8 1_555 1_555
C17 N9_2 1_555 1_555
H13 C17 1_555 1_555
N8 C28 1_555 1_555
H18 C28 1_555 1_555
C29 N8 1_555 1_555
H19 C29 1_555 1_555
C17_2 N4 1_555 1_555
H13_2 C17_2 1_555 1_555
N6 C28_2 1_555 1_555
H18_2 C28_2 1_555 1_555
C29_2 N6 1_555 1_555
H19_2 C29_2 1_555 1_555
Ni9 N6 1_555 1_555
Ni10 N4 1_555 1_555
N3_3 Ni10 1_555 1_555
C16_2 N3_3 1_555 1_555
H12_2 C16_2 1_555 1_555
Ni9 O10_2 1_555 1_555
C18_2 C19_2 1_555 1_555
C19_2 C20_2 1_555 1_555
C20_2 H14_2 1_555 1_555
C21_2 C19_2 1_555 1_555
H15_2 C21_2 1_555 1_555
O10_2 C22_2 1_555 1_555
O11 C22_2 1_555 1_555
O12_2 Ni10 1_555 1_555
O13_2 C26_2 1_555 1_555
C22_2 C23_2 1_555 1_555
C23_2 C20_2 1_555 1_555
C24_2 C23_2 1_555 1_555
H16_2 C24_2 1_555 1_555
C25_2 C21_2 1_555 1_555
C26_2 O12_2 1_555 1_555
C27_2 H17_2 1_555 1_555
N5_2 Ni9 1_555 1_555
C30_2 N5_2 1_555 1_555
H20_2 C30_2 1_555 1_555
O14_2 Ni10 1_555 1_555
H21_2 O14_2 1_555 1_555
H22_2 O14_2 1_555 1_555
Ni8 O11 1_555 1_555
O19 Ni9 1_555 1_555
C24_2 C25_2 1_555 1_555
C25_2 C26_2 1_555 1_555
C27_2 N5_2 1_555 1_555
N2 C11_2 1_555 1_555
H5_2 C11_2 1_555 1_555
C12_2 N2 1_555 1_555
H6_2 C12_2 1_555 1_555
N4_2 C15_2 1_555 1_555
H9_2 C15_2 1_555 1_555
Ni8 N2 1_555 1_555
Ni10_2 N4_2 1_555 1_555
Ni8 O3_2 1_555 1_555
Ni10_2 O5_2 1_555 1_555
O15 C1_2 1_555 1_555
O17 C1_2 1_555 1_555
C1_2 C2_2 1_555 1_555
C2_2 C3_2 1_555 1_555
C3_2 H1_2 1_555 1_555
C4_2 C2_2 1_555 1_555
H2_2 C4_2 1_555 1_555
O3_2 C5_2 1_555 1_555
O19 C5_2 1_555 1_555
O5_2 C9_2 1_555 1_555
O6_2 C9_2 1_555 1_555
C5_2 C6_2 1_555 1_555
C6_2 C3_2 1_555 1_555
C7_2 C6_2 1_555 1_555
H3_2 C7_2 1_555 1_555
C8_2 C4_2 1_555 1_555
C9_2 C8_2 1_555 1_555
C10_2 H4_2 1_555 1_555
N1_2 Ni8 1_555 1_555
C13_2 N1_2 1_555 1_555
H7_2 C13_2 1_555 1_555
N3_4 Ni10_2 1_555 1_555
C14_2 N3_4 1_555 1_555
H8_2 C14_2 1_555 1_555
O7_2 Ni10_2 1_555 1_555
H10_2 O7_2 1_555 1_555
H11_2 O7_2 1_555 1_555
C7_2 C8_2 1_555 1_555
C10_2 N1_2 1_555 1_555

#END
