
###############################################################################
#
# This file contains modified crystal structure data generated from the
# MOF subset of the Cambridge Structural Database (CSD) v543 
# hosted by the Cambridge Crystallographic Data Centre (CCDC).
#
# This work is licensed under the Creative Commons
# Attribution-NonCommercial-ShareAlike 4.0 International License.
# To view a copy of this license, visit
# http://creativecommons.org/licenses/by-nc-sa/4.0/
# or send a letter to
# Creative Commons, PO Box 1866, Mountain View, CA 94042, USA.
#
# CIF created using the CSD Python API on 29 September 2022
# The structure has been converted into the P1 space group
# The structure has a 3D framework
# The original CSD entry NAXVOY04 is in the monoclinic crystal system
# The framework has been calculated to contain at least 10.0% void space
# The void calculation uses a probe of radius 1.32A, grid spacing 0.4
#
###############################################################################

data_NAXVOY04
_chemical_formula_moiety         '(C24 H24 Mg22 O47)n'
_symmetry_cell_setting           triclinic
_symmetry_space_group_name_H-M   'P 1'
_symmetry_Int_Tables_number      1
_space_group_name_Hall           'P 1'
loop_
_symmetry_equiv_pos_site_id
_symmetry_equiv_pos_as_xyz
1 x,y,z
_cell_length_a                   11.3630(5)
_cell_length_b                   9.8950(5)
_cell_length_c                   14.6054(8)
_cell_angle_alpha                90
_cell_angle_beta                 91.441(4)
_cell_angle_gamma                90
_cell_volume                     1641.67
loop_
_atom_site_label
_atom_site_type_symbol
_atom_site_fract_x
_atom_site_fract_y
_atom_site_fract_z
Mg4 Mg 0.0000 0.5000 0.5000
O8 O 0.01595(16) 0.3927(2) 0.62026(13)
H6 H 0.002(3) 0.785(4) 0.513(3)
O27 O 0.15000(15) 0.60429(19) 0.53283(13)
O31 O 0.10179(14) 0.34868(16) 0.43683(11)
Mg1 Mg 0.5000 0.5000 0.5000
Mg2 Mg 0.75628(6) 0.57723(7) 0.63466(5)
Mg3 Mg 0.73969(6) 0.38627(7) 0.80907(5)
Mg4_2 Mg 1.0000 0.5000 0.5000
O1 O 0.46423(15) 0.4975(2) 0.63725(12)
O2 O 0.63073(14) 0.49082(16) 0.71938(11)
O3 O 0.51990(16) 0.70672(17) 0.50456(13)
O4 O 0.65658(14) 0.75412(15) 0.61164(11)
O5 O 0.68338(13) 0.47396(16) 0.52458(11)
O6 O 0.85000(15) 0.39571(19) 0.46717(13)
O7 O 0.84944(14) 0.41714(16) 0.69582(11)
O9 O 0.81433(16) 0.55463(17) 0.86521(11)
O10 O 0.80694(14) 0.69801(15) 0.74719(11)
O11 O 0.89821(14) 0.65132(16) 0.56317(11)
O12 O 0.88869(15) 0.87071(17) 0.59768(12)
C1 C 0.5200(2) 0.4812(3) 0.70880(17)
C2 C 0.5785(2) 0.7851(2) 0.55169(18)
C3 C 0.7427(2) 0.4019(3) 0.47029(17)
C4 C 0.9507(2) 0.3678(3) 0.68320(18)
C5 C 0.8292(2) 0.6666(2) 0.82991(16)
C6 C 0.9304(2) 0.7742(3) 0.55654(17)
H1 H 0.479(3) 0.468(4) 0.763(2)
H2 H 0.566(3) 0.888(3) 0.543(2)
H3 H 0.700(3) 0.342(3) 0.430(2)
H4 H 0.979(3) 0.305(4) 0.729(2)
H5 H 0.863(3) 0.735(3) 0.871(2)
Mg5 Mg 0.24372(6) 0.42277(7) 0.36534(5)
Mg6 Mg 0.26031(6) 0.61373(7) 0.19093(5)
O13 O 0.53577(15) 0.5025(2) 0.36275(12)
O14 O 0.36927(14) 0.50918(16) 0.28062(11)
O15 O 0.48010(16) 0.29328(17) 0.49544(13)
O16 O 0.34342(14) 0.24588(15) 0.38836(11)
O17 O 0.31662(13) 0.52604(16) 0.47542(11)
O19 O 0.15056(14) 0.58286(16) 0.30418(11)
O21 O 0.18567(16) 0.44537(17) 0.13479(11)
O22 O 0.19306(14) 0.30199(15) 0.25281(11)
O24 O 0.11131(15) 0.12929(17) 0.40232(12)
C7 C 0.4800(2) 0.5188(3) 0.29120(17)
C8 C 0.4215(2) 0.2149(2) 0.44831(18)
C9 C 0.2573(2) 0.5981(3) 0.52971(17)
C10 C 0.0493(2) 0.6322(3) 0.31680(18)
C11 C 0.1708(2) 0.3334(2) 0.17009(16)
C12 C 0.0696(2) 0.2258(3) 0.44346(17)
H7 H 0.521(3) 0.532(4) 0.237(2)
H8 H 0.434(3) 0.112(3) 0.457(2)
H9 H 0.300(3) 0.658(3) 0.570(2)
H10 H 0.021(3) 0.695(4) 0.271(2)
H11 H 0.137(3) 0.265(3) 0.129(2)
Mg7 Mg 0.76031(6) 0.88627(7) 0.69093(5)
Mg8 Mg 0.23969(6) 0.11373(7) 0.30907(5)
O25 O 0.84342(14) 0.25412(15) 0.88836(11)
O26 O 0.15658(14) 0.74588(15) 0.11164(11)
O28 O 0.98405(16) 0.6073(2) 0.37974(13)
O29 O 0.69306(14) 0.19801(15) 0.75281(11)
O30 O 0.30694(14) 0.80199(15) 0.24719(11)
O32 O 0.61131(15) 0.37071(17) 0.90232(12)
O33 O 0.38869(15) 0.62929(17) 0.09768(12)
H12 H 0.998(3) 0.215(4) 0.487(3)
Mg1_2 Mg 0.0000 0.0000 0.0000
O14_2 O 0.13073(14) 0.00918(16) 0.21938(11)
O17_2 O 0.18338(13) 0.02604(16) 0.02458(11)
O19_2 O 0.34944(14) 0.08286(16) 0.19582(11)
O20 O 0.51595(16) 0.1073(2) 0.12026(13)
C7_2 C 0.0200(2) 0.0188(3) 0.20880(17)
C10_2 C 0.4507(2) 0.1322(3) 0.18320(18)
H10_2 H 0.479(3) 0.195(4) 0.229(2)
Mg9 Mg 0.5000 0.0000 0.0000
Mg1_3 Mg 0.0000 0.0000 1.0000
O18 O 0.35000(15) 0.10429(19) 0.96717(13)
C9_2 C 0.2427(2) 0.0981(3) 0.97029(17)
H9_2 H 0.200(3) 0.158(3) 0.930(2)
Mg9_2 Mg 0.5000 0.0000 1.0000
Mg1_4 Mg 0.0000 1.0000 0.0000
Mg5_2 Mg 0.25628(6) 0.92277(7) 0.13466(5)
O15_2 O 0.01990(16) 0.79328(17) 0.00456(13)
O21_2 O 0.31433(16) 0.94537(17) 0.36521(11)
O23 O 0.39821(14) 0.84868(16) 0.06317(11)
C8_2 C 0.0785(2) 0.7149(2) 0.05169(18)
C11_2 C 0.3292(2) 0.8334(2) 0.32991(16)
C12_2 C 0.4304(2) 0.7258(3) 0.05654(17)
H8_2 H 0.066(3) 0.612(3) 0.043(2)
H11_2 H 0.363(3) 0.765(3) 0.371(2)
H12_2 H 0.502(3) 0.715(4) 0.013(3)
Mg9_3 Mg 0.5000 1.0000 0.0000
Mg1_5 Mg 0.0000 1.0000 1.0000
O1_2 O 0.03577(15) 0.9975(2) 0.86275(12)
H1_2 H 0.021(3) 0.968(4) 0.737(2)
Mg9_4 Mg 0.5000 1.0000 1.0000
Mg1_6 Mg 1.0000 0.0000 0.0000
O13_2 O 0.96423(15) 0.0025(2) 0.13725(12)
H7_2 H 0.979(3) 0.032(4) 0.263(2)
Mg1_7 Mg 1.0000 0.0000 1.0000
Mg2_2 Mg 0.74372(6) 0.07723(7) 0.86534(5)
O3_2 O 0.98010(16) 0.20672(17) 0.99544(13)
O9_2 O 0.68567(16) 0.05463(17) 0.63479(11)
O11_2 O 0.60179(14) 0.15132(16) 0.93683(11)
C2_2 C 0.9215(2) 0.2851(2) 0.94831(18)
C5_2 C 0.6708(2) 0.1666(2) 0.67009(16)
C6_2 C 0.5696(2) 0.2742(3) 0.94346(17)
H2_2 H 0.934(3) 0.388(3) 0.957(2)
H5_2 H 0.637(3) 0.235(3) 0.629(2)
H6_2 H 0.498(3) 0.285(4) 0.987(3)
Mg1_8 Mg 1.0000 1.0000 0.0000
O6_2 O 0.65000(15) 0.89571(19) 0.03283(13)
C3_2 C 0.7573(2) 0.9019(3) 0.02971(17)
H3_2 H 0.800(3) 0.842(3) 0.070(2)
Mg1_9 Mg 1.0000 1.0000 1.0000
O2_2 O 0.86927(14) 0.99082(16) 0.78062(11)
O5_2 O 0.81662(13) 0.97396(16) 0.97542(11)
O7_2 O 0.65056(14) 0.91714(16) 0.80418(11)
O8_2 O 0.48405(16) 0.8927(2) 0.87974(13)
C1_2 C 0.9800(2) 0.9812(3) 0.79120(17)
C4_2 C 0.5493(2) 0.8678(3) 0.81680(18)
H4_2 H 0.521(3) 0.805(4) 0.771(2)
loop_
_geom_bond_atom_site_label_1
_geom_bond_atom_site_label_2
_geom_bond_site_symmetry_1
_geom_bond_site_symmetry_2
O8 Mg4 1_555 1_555
O27 Mg4 1_555 1_555
O31 Mg4 1_555 1_555
Mg1 O1 1_555 1_555
Mg2 O2 1_555 1_555
Mg3 O2 1_555 1_555
Mg4_2 O6 1_555 1_555
O1 C1 1_555 1_555
O2 C1 1_555 1_555
O3 Mg1 1_555 1_555
O4 Mg2 1_555 1_555
O5 Mg1 1_555 1_555
O6 C3 1_555 1_555
O7 Mg2 1_555 1_555
O9 Mg3 1_555 1_555
O10 Mg2 1_555 1_555
O11 Mg2 1_555 1_555
O12 C6 1_555 1_555
C1 H1 1_555 1_555
C2 O3 1_555 1_555
C3 O5 1_555 1_555
C4 O7 1_555 1_555
C5 O9 1_555 1_555
C6 O11 1_555 1_555
H2 C2 1_555 1_555
H3 C3 1_555 1_555
H4 C4 1_555 1_555
H5 C5 1_555 1_555
Mg5 O14 1_555 1_555
Mg6 O14 1_555 1_555
O13 Mg1 1_555 1_555
O14 C7 1_555 1_555
O15 Mg1 1_555 1_555
O16 Mg5 1_555 1_555
O17 Mg1 1_555 1_555
O27 C9 1_555 1_555
O19 Mg5 1_555 1_555
O21 Mg6 1_555 1_555
O22 Mg5 1_555 1_555
O31 Mg5 1_555 1_555
O24 C12 1_555 1_555
C7 O13 1_555 1_555
C8 O15 1_555 1_555
C9 O17 1_555 1_555
C10 O19 1_555 1_555
C11 O21 1_555 1_555
C12 O31 1_555 1_555
H7 C7 1_555 1_555
H8 C8 1_555 1_555
H9 C9 1_555 1_555
H10 C10 1_555 1_555
H11 C11 1_555 1_555
Mg7 O4 1_555 1_555
Mg8 O16 1_555 1_555
O25 Mg3 1_555 1_555
O26 Mg6 1_555 1_555
O28 Mg4_2 1_555 1_555
O29 Mg3 1_555 1_555
O30 Mg6 1_555 1_555
O32 Mg3 1_555 1_555
O33 Mg6 1_555 1_555
Mg2 O5 1_555 1_555
Mg3 O7 1_555 1_555
Mg4_2 O11 1_555 1_555
O4 C2 1_555 1_555
O10 C5 1_555 1_555
O10 Mg7 1_555 1_555
O12 Mg7 1_555 1_555
Mg5 O17 1_555 1_555
Mg6 O19 1_555 1_555
O16 C8 1_555 1_555
O22 C11 1_555 1_555
O22 Mg8 1_555 1_555
O24 Mg8 1_555 1_555
Mg8 O14_2 1_555 1_555
O14_2 C7_2 1_555 1_555
O17_2 Mg1_2 1_555 1_555
O20 C10_2 1_555 1_555
C10_2 O19_2 1_555 1_555
H10_2 C10_2 1_555 1_555
Mg8 O19_2 1_555 1_555
O20 Mg9 1_555 1_555
O18 C9_2 1_555 1_555
H9_2 C9_2 1_555 1_555
Mg9_2 O18 1_555 1_555
O15_2 Mg1_4 1_555 1_555
O26 Mg5_2 1_555 1_555
O30 Mg5_2 1_555 1_555
O23 Mg5_2 1_555 1_555
O33 C12_2 1_555 1_555
C8_2 O15_2 1_555 1_555
C11_2 O21_2 1_555 1_555
C12_2 O23 1_555 1_555
H8_2 C8_2 1_555 1_555
H11_2 C11_2 1_555 1_555
H12_2 C12_2 1_555 1_555
O26 C8_2 1_555 1_555
O30 C11_2 1_555 1_555
O23 Mg9_3 1_555 1_555
Mg1_5 O1_2 1_555 1_555
O13_2 Mg1_6 1_555 1_555
O3_2 Mg1_7 1_555 1_555
O25 Mg2_2 1_555 1_555
O29 Mg2_2 1_555 1_555
O11_2 Mg2_2 1_555 1_555
O32 C6_2 1_555 1_555
C2_2 O3_2 1_555 1_555
C5_2 O9_2 1_555 1_555
C6_2 O11_2 1_555 1_555
H2_2 C2_2 1_555 1_555
H5_2 C5_2 1_555 1_555
H6_2 C6_2 1_555 1_555
Mg9_2 O11_2 1_555 1_555
O25 C2_2 1_555 1_555
O29 C5_2 1_555 1_555
Mg9_3 O6_2 1_555 1_555
O6_2 C3_2 1_555 1_555
H3_2 C3_2 1_555 1_555
Mg7 O2_2 1_555 1_555
O2_2 C1_2 1_555 1_555
O5_2 Mg1_9 1_555 1_555
O8_2 Mg9_4 1_555 1_555
C4_2 O7_2 1_555 1_555
H4_2 C4_2 1_555 1_555
Mg7 O7_2 1_555 1_555
O8_2 C4_2 1_555 1_555

#END
