
###############################################################################
#
# This file contains modified crystal structure data generated from the
# MOF subset of the Cambridge Structural Database (CSD) v543 
# hosted by the Cambridge Crystallographic Data Centre (CCDC).
#
# This work is licensed under the Creative Commons
# Attribution-NonCommercial-ShareAlike 4.0 International License.
# To view a copy of this license, visit
# http://creativecommons.org/licenses/by-nc-sa/4.0/
# or send a letter to
# Creative Commons, PO Box 1866, Mountain View, CA 94042, USA.
#
# CIF created using the CSD Python API on 29 September 2022
# The structure has been converted into the P1 space group
# The structure has a 3D framework
# The original CSD entry NEBNOB is in the hexagonal crystal system
# The original CSD entry NEBNOB is in a Sohncke space group
# The framework has been calculated to contain at least 10.0% void space
# The void calculation uses a probe of radius 1.32A, grid spacing 0.4
#
###############################################################################

data_NEBNOB
_chemical_formula_moiety         '(C66 H84 Ca2 Cu12 N12 O34 S12)n'
_symmetry_cell_setting           triclinic
_symmetry_space_group_name_H-M   'P 1'
_symmetry_Int_Tables_number      1
_space_group_name_Hall           'P 1'
loop_
_symmetry_equiv_pos_site_id
_symmetry_equiv_pos_as_xyz
1 x,y,z
_cell_length_a                   17.8511(7)
_cell_length_b                   17.8511(7)
_cell_length_c                   12.8014(8)
_cell_angle_alpha                90
_cell_angle_beta                 90
_cell_angle_gamma                120
_cell_volume                     3532.79
loop_
_atom_site_label
_atom_site_type_symbol
_atom_site_fract_x
_atom_site_fract_y
_atom_site_fract_z
O2 O 0.2338(6) 0.5629(6) 0.4802(8)
O3 O 0.2934(7) 0.4936(9) 0.5775(10)
O4 O 0.0187(7) 0.5675(8) 0.4972(9)
N1 N 0.0980(9) 0.5018(9) 0.5915(11)
C1 C 0.2336(11) 0.5125(13) 0.5517(14)
C2 C 0.1599(12) 0.4739(15) 0.6246(15)
H1 H 0.185312 0.509335 0.687113
C3 C 0.0192(9) 0.4838(11) 0.6323(11)
C10 C 0.134(5) 0.384(2) 0.666(3)
H10 H 0.089108 0.363344 0.718915
H11 H 0.181999 0.377300 0.687333
S2 S 0.0934(7) 0.3426(7) 0.5355(8)
Ca4 Ca 0.333333 0.666667 0.3467(6)
Cu8 Cu 0.13640(11) 0.58147(12) 0.47925(10)
Cu10 Cu 0.41853(12) 0.55493(16) 0.47925(10)
O25 O 0.7066(7) 0.5064(9) 0.0775(10)
O26 O 0.4936(9) 0.2002(11) 0.0775(10)
O27 O 0.7998(11) 0.2934(7) 0.0775(10)
N7 N 0.9020(9) 0.4982(9) 0.0915(11)
N8 N 0.5018(9) 0.4038(13) 0.0915(11)
N9 N 0.5962(13) 0.0980(9) 0.0915(11)
Ca1 Ca 0.666667 0.333333 0.8467(6)
Cu1 Cu 0.86360(11) 0.41853(12) 0.97925(10)
Cu2 Cu 0.86456(12) 0.41987(13) 0.72056(10)
O1 O 0.8242(4) 0.3581(4) 0.8509(10)
O5 O 0.7599(6) 0.4388(7) 0.7117(8)
O6 O 0.7132(9) 0.5075(13) 0.6287(11)
O7 O 0.9788(6) 0.4223(6) 0.7028(10)
N2 N 0.9053(10) 0.5020(11) 0.6060(12)
C4 C 0.7680(13) 0.4888(13) 0.6356(14)
C5 C 0.8487(11) 0.5313(12) 0.5686(14)
H2 H 0.876665 0.594510 0.572437
C6 C 0.9769(11) 0.5263(10) 0.5768(14)
C7 C 0.8175(12) 0.4986(15) 0.4552(13)
H3 H 0.762781 0.496849 0.445592
H4 H 0.858553 0.542290 0.407885
C8 C 0.805(6) 0.413(3) 0.419(4)
H5 H 0.761710 0.368862 0.464612
H6 H 0.858881 0.413332 0.433428
C9 C 0.866(4) 0.353(5) 0.272(6)
H7 H 0.865020 0.331200 0.203455
H8 H 0.919370 0.406450 0.282161
H9 H 0.860385 0.311962 0.323491
C11 C 0.976(2) 0.298(4) 0.559(5)
H12 H 0.944825 0.273213 0.496000
H13 H 0.957076 0.254879 0.612681
H14 H 0.966501 0.344109 0.581427
S1 S 0.7743(16) 0.3743(16) 0.2851(19)
Cu3 Cu 0.58147(12) 0.44507(16) 0.97925(10)
Cu4 Cu 0.58013(13) 0.44469(18) 0.72056(10)
O8 O 0.6419(4) 0.4661(6) 0.8509(10)
O9 O 0.4371(6) 0.6709(8) 0.4802(8)
O10 O 0.5064(9) 0.7998(11) 0.5775(10)
O11 O 0.4325(8) 0.4512(11) 0.4972(9)
O12 O 0.5612(7) 0.3211(9) 0.7117(8)
O13 O 0.4925(13) 0.2057(16) 0.6287(11)
O14 O 0.5777(6) 0.5565(8) 0.7028(10)
N3 N 0.4982(9) 0.5962(13) 0.5915(11)
N4 N 0.4980(11) 0.4033(15) 0.6060(12)
C12 C 0.4875(13) 0.7211(17) 0.5517(14)
C13 C 0.5261(15) 0.6860(19) 0.6246(15)
H15 H 0.490665 0.675977 0.687113
C14 C 0.5162(11) 0.5354(14) 0.6323(11)
C15 C 0.5112(13) 0.2792(18) 0.6356(14)
C16 C 0.4687(12) 0.3174(16) 0.5686(14)
H16 H 0.405490 0.282155 0.572437
C17 C 0.4737(10) 0.4506(15) 0.5768(14)
C18 C 0.5014(15) 0.3189(19) 0.4552(13)
H17 H 0.503151 0.265932 0.445592
H18 H 0.457710 0.316263 0.407885
C19 C 0.587(3) 0.392(7) 0.419(4)
H19 H 0.631138 0.392848 0.464612
H20 H 0.586668 0.445549 0.433428
C20 C 0.647(5) 0.513(6) 0.272(6)
H21 H 0.668800 0.533820 0.203455
H22 H 0.593550 0.512920 0.282161
H23 H 0.688038 0.548423 0.323491
C21 C 0.616(2) 0.750(5) 0.666(3)
H24 H 0.636656 0.725764 0.718915
H25 H 0.622700 0.804699 0.687333
C22 C 0.702(4) 0.678(4) 0.559(5)
H26 H 0.726787 0.671612 0.496000
H27 H 0.745121 0.702197 0.612681
H28 H 0.655891 0.622392 0.581427
S3 S 0.6257(16) 0.4000(23) 0.2851(19)
S4 S 0.6574(7) 0.7508(10) 0.5355(8)
Cu5 Cu 0.55493(16) 0.13640(11) 0.97925(10)
Cu6 Cu 0.55531(18) 0.13544(12) 0.72056(10)
O15 O 0.5339(6) 0.1758(4) 0.8509(10)
O19 O 0.6789(9) 0.2401(6) 0.7117(8)
O20 O 0.7943(16) 0.2868(9) 0.6287(11)
O21 O 0.4435(8) 0.0212(6) 0.7028(10)
N6 N 0.5967(15) 0.0947(10) 0.6060(12)
C26 C 0.7208(18) 0.2320(13) 0.6356(14)
C27 C 0.6826(16) 0.1513(11) 0.5686(14)
H30 H 0.717845 0.123335 0.572437
C28 C 0.5494(15) 0.0231(11) 0.5768(14)
C29 C 0.6811(19) 0.1825(12) 0.4552(13)
H31 H 0.734068 0.237219 0.445592
H32 H 0.683737 0.141447 0.407885
C30 C 0.608(7) 0.195(6) 0.419(4)
H33 H 0.607152 0.238290 0.464612
H34 H 0.554451 0.141119 0.433428
C31 C 0.487(6) 0.134(4) 0.272(6)
H35 H 0.466180 0.134980 0.203455
H36 H 0.487080 0.080630 0.282161
H37 H 0.451577 0.139615 0.323491
C33 C 0.322(4) 0.024(2) 0.559(5)
H40 H 0.328388 0.055175 0.496000
H41 H 0.297803 0.042924 0.612681
H42 H 0.377608 0.033499 0.581427
S5 S 0.6000(23) 0.2257(16) 0.2851(19)
Cu12 Cu 0.44507(16) 0.86360(11) 0.47925(10)
O22 O 0.7662(6) 0.4371(6) 0.9802(8)
O23 O 0.5629(6) 0.3291(8) 0.9802(8)
O24 O 0.6709(8) 0.2338(6) 0.9802(8)
O28 O 0.9813(7) 0.4325(8) 0.9972(9)
O29 O 0.5675(8) 0.5488(11) 0.9972(9)
O30 O 0.4512(11) 0.0187(7) 0.9972(9)
O16 O 0.3291(8) 0.7662(6) 0.4802(8)
O17 O 0.2002(11) 0.7066(7) 0.5775(10)
O18 O 0.5488(11) 0.9813(7) 0.4972(9)
N5 N 0.4038(13) 0.9020(9) 0.5915(11)
C23 C 0.2789(17) 0.7664(11) 0.5517(14)
C24 C 0.3140(19) 0.8401(12) 0.6246(15)
H29 H 0.324023 0.814688 0.687113
C25 C 0.4646(14) 0.9808(9) 0.6323(11)
C32 C 0.250(5) 0.866(5) 0.666(3)
H38 H 0.274236 0.910892 0.718915
H39 H 0.195301 0.818001 0.687333
S6 S 0.2492(10) 0.9066(7) 0.5355(8)
C23_2 C 0.7211(17) 0.2336(11) 0.0517(14)
C24_2 C 0.6860(19) 0.1599(12) 0.1246(15)
H29_2 H 0.675977 0.185312 0.187113
C25_2 C 0.5354(14) 0.0192(9) 0.1323(11)
C32_2 C 0.750(5) 0.134(5) 0.166(3)
H38_2 H 0.725764 0.089108 0.218915
H39_2 H 0.804699 0.181999 0.187333
S6_2 S 0.7508(10) 0.0934(7) 0.0355(8)
Cu2_2 Cu 0.13544(12) 0.58013(13) 0.22056(10)
O1_2 O 0.1758(4) 0.6419(4) 0.3509(10)
O5_2 O 0.2401(6) 0.5612(7) 0.2117(8)
O6_2 O 0.2868(9) 0.4925(13) 0.1287(11)
O7_2 O 0.0212(6) 0.5777(6) 0.2028(10)
N2_2 N 0.0947(10) 0.4980(11) 0.1060(12)
C4_2 C 0.2320(13) 0.5112(13) 0.1356(14)
C5_2 C 0.1513(11) 0.4687(12) 0.0686(14)
H2_2 H 0.123335 0.405490 0.072437
C6_2 C 0.0231(11) 0.4737(10) 0.0768(14)
C11_2 C 0.024(2) 0.702(4) 0.059(5)
H13_2 H 0.042924 0.745121 0.112681
H14_2 H 0.033499 0.655891 0.081427
Cu4_2 Cu 0.41987(13) 0.55531(18) 0.22056(10)
O8_2 O 0.3581(4) 0.5339(6) 0.3509(10)
O12_2 O 0.4388(7) 0.6789(9) 0.2117(8)
O13_2 O 0.5075(13) 0.7943(16) 0.1287(11)
O14_2 O 0.4223(6) 0.4435(8) 0.2028(10)
N4_2 N 0.5020(11) 0.5967(15) 0.1060(12)
C12_2 C 0.5125(13) 0.2789(17) 0.0517(14)
C13_2 C 0.4739(15) 0.3140(19) 0.1246(15)
H15_2 H 0.509335 0.324023 0.187113
C14_2 C 0.4838(11) 0.4646(14) 0.1323(11)
C15_2 C 0.4888(13) 0.7208(18) 0.1356(14)
C16_2 C 0.5313(12) 0.6826(16) 0.0686(14)
H16_2 H 0.594510 0.717845 0.072437
C17_2 C 0.5263(10) 0.5494(15) 0.0768(14)
C21_2 C 0.384(2) 0.250(5) 0.166(3)
H24_2 H 0.363344 0.274236 0.218915
H25_2 H 0.377300 0.195301 0.187333
C22_2 C 0.298(4) 0.322(4) 0.059(5)
H27_2 H 0.254879 0.297803 0.112681
H28_2 H 0.344109 0.377608 0.081427
S4_2 S 0.3426(7) 0.2492(10) 0.0355(8)
Cu6_2 Cu 0.44469(18) 0.86456(12) 0.22056(10)
O15_2 O 0.4661(6) 0.8242(4) 0.3509(10)
O19_2 O 0.3211(9) 0.7599(6) 0.2117(8)
O20_2 O 0.2057(16) 0.7132(9) 0.1287(11)
O21_2 O 0.5565(8) 0.9788(6) 0.2028(10)
N6_2 N 0.4033(15) 0.9053(10) 0.1060(12)
C26_2 C 0.2792(18) 0.7680(13) 0.1356(14)
C27_2 C 0.3174(16) 0.8487(11) 0.0686(14)
H30_2 H 0.282155 0.876665 0.072437
C28_2 C 0.4506(15) 0.9769(11) 0.0768(14)
C33_2 C 0.678(4) 0.976(2) 0.059(5)
H41_2 H 0.702197 0.957076 0.112681
H42_2 H 0.622392 0.966501 0.081427
C7_2 C 0.1825(12) 0.5014(15) 0.9552(13)
H3_2 H 0.237219 0.503151 0.945592
H4_2 H 0.141447 0.457710 0.907885
C8_2 C 0.195(6) 0.587(3) 0.919(4)
H5_2 H 0.238290 0.631138 0.964612
H6_2 H 0.141119 0.586668 0.933428
C9_2 C 0.134(4) 0.647(5) 0.772(6)
H7_2 H 0.134980 0.668800 0.703455
H8_2 H 0.080630 0.593550 0.782161
H9_2 H 0.139615 0.688038 0.823491
H12_2 H 0.055175 0.726787 0.996000
S1_2 S 0.2257(16) 0.6257(16) 0.7851(19)
C18_2 C 0.4986(15) 0.6811(19) 0.9552(13)
H17_2 H 0.496849 0.734068 0.945592
H18_2 H 0.542290 0.683737 0.907885
C19_2 C 0.413(3) 0.608(7) 0.919(4)
H19_2 H 0.368862 0.607152 0.964612
H20_2 H 0.413332 0.554451 0.933428
C20_2 C 0.353(5) 0.487(6) 0.772(6)
H21_2 H 0.331200 0.466180 0.703455
H22_2 H 0.406450 0.487080 0.782161
H23_2 H 0.311962 0.451577 0.823491
H26_2 H 0.273213 0.328388 0.996000
S3_2 S 0.3743(16) 0.6000(23) 0.7851(19)
C29_2 C 0.3189(19) 0.8175(12) 0.9552(13)
H31_2 H 0.265932 0.762781 0.945592
H32_2 H 0.316263 0.858553 0.907885
C30_2 C 0.392(7) 0.805(6) 0.919(4)
H33_2 H 0.392848 0.761710 0.964612
H34_2 H 0.445549 0.858881 0.933428
C31_2 C 0.513(6) 0.866(4) 0.772(6)
H35_2 H 0.533820 0.865020 0.703455
H36_2 H 0.512920 0.919370 0.782161
H37_2 H 0.548423 0.860385 0.823491
H40_2 H 0.671612 0.944825 0.996000
S5_2 S 0.4000(23) 0.7743(16) 0.7851(19)
C1_2 C 0.7664(11) 0.4875(13) 0.0517(14)
C2_2 C 0.8401(12) 0.5261(15) 0.1246(15)
H1_2 H 0.814688 0.490665 0.187113
C3_2 C 0.9808(9) 0.5162(11) 0.1323(11)
C10_2 C 0.866(5) 0.616(2) 0.166(3)
H10_2 H 0.910892 0.636656 0.218915
H11_2 H 0.818001 0.622700 0.187333
S2_2 S 0.9066(7) 0.6574(7) 0.0355(8)
loop_
_geom_bond_atom_site_label_1
_geom_bond_atom_site_label_2
_geom_bond_site_symmetry_1
_geom_bond_site_symmetry_2
O2 C1 1_555 1_555
O3 C1 1_555 1_555
N1 C2 1_555 1_555
C1 C2 1_555 1_555
C2 H1 1_555 1_555
C10 C2 1_555 1_555
H10 C10 1_555 1_555
H11 C10 1_555 1_555
S2 C10 1_555 1_555
Ca4 O2 1_555 1_555
Cu8 O2 1_555 1_555
Cu10 O3 1_555 1_555
O4 Cu8 1_555 1_555
N1 C3 1_555 1_555
N1 Cu8 1_555 1_555
Ca1 O1 1_555 1_555
Cu1 O1 1_555 1_555
Cu2 O1 1_555 1_555
O5 Ca1 1_555 1_555
O6 C4 1_555 1_555
O7 Cu2 1_555 1_555
N2 Cu2 1_555 1_555
C4 O5 1_555 1_555
C5 N2 1_555 1_555
H2 C5 1_555 1_555
C6 N2 1_555 1_555
C7 C5 1_555 1_555
H3 C7 1_555 1_555
H4 C7 1_555 1_555
C8 C7 1_555 1_555
H5 C8 1_555 1_555
H6 C8 1_555 1_555
C9 H7 1_555 1_555
H8 C9 1_555 1_555
H9 C9 1_555 1_555
C11 H12 1_555 1_555
H13 C11 1_555 1_555
H14 C11 1_555 1_555
S1 C8 1_555 1_555
Cu3 O8 1_555 1_555
Cu4 O6 1_555 1_555
O8 Ca1 1_555 1_555
O9 C12 1_555 1_555
O10 C12 1_555 1_555
O11 C17 1_555 1_555
O12 Ca1 1_555 1_555
O13 C15 1_555 1_555
O14 Cu4 1_555 1_555
N3 C13 1_555 1_555
N4 Cu4 1_555 1_555
C12 C13 1_555 1_555
C13 H15 1_555 1_555
C14 O14 1_555 1_555
C15 O12 1_555 1_555
C16 N4 1_555 1_555
H16 C16 1_555 1_555
C17 N4 1_555 1_555
C18 C16 1_555 1_555
H17 C18 1_555 1_555
H18 C18 1_555 1_555
C19 C18 1_555 1_555
H19 C19 1_555 1_555
H20 C19 1_555 1_555
C20 H21 1_555 1_555
H22 C20 1_555 1_555
H23 C20 1_555 1_555
C21 C13 1_555 1_555
H24 C21 1_555 1_555
H25 C21 1_555 1_555
C22 H26 1_555 1_555
H27 C22 1_555 1_555
H28 C22 1_555 1_555
S3 C19 1_555 1_555
S4 C21 1_555 1_555
Cu5 O15 1_555 1_555
Cu6 O13 1_555 1_555
O15 Ca1 1_555 1_555
O19 Ca1 1_555 1_555
O20 Cu2 1_555 1_555
O21 Cu6 1_555 1_555
N6 Cu6 1_555 1_555
C26 O19 1_555 1_555
C27 N6 1_555 1_555
H30 C27 1_555 1_555
C28 N6 1_555 1_555
C29 C27 1_555 1_555
H31 C29 1_555 1_555
H32 C29 1_555 1_555
C30 C29 1_555 1_555
H33 C30 1_555 1_555
H34 C30 1_555 1_555
C31 H35 1_555 1_555
H36 C31 1_555 1_555
H37 C31 1_555 1_555
C33 H40 1_555 1_555
H41 C33 1_555 1_555
H42 C33 1_555 1_555
S5 C30 1_555 1_555
Ca4 O9 1_555 1_555
Cu10 O9 1_555 1_555
Cu12 O10 1_555 1_555
O22 Ca1 1_555 1_555
O23 Ca1 1_555 1_555
O24 Ca1 1_555 1_555
O28 Cu1 1_555 1_555
O29 Cu3 1_555 1_555
O30 Cu5 1_555 1_555
Cu1 O22 1_555 1_555
Cu2 O5 1_555 1_555
C4 C5 1_555 1_555
C9 S1 1_555 1_555
Cu3 O23 1_555 1_555
Cu4 O8 1_555 1_555
Cu4 O12 1_555 1_555
O11 Cu10 1_555 1_555
N3 C14 1_555 1_555
N3 Cu10 1_555 1_555
C14 C17 1_555 1_555
C15 C16 1_555 1_555
C20 S3 1_555 1_555
C22 S4 1_555 1_555
Cu5 O24 1_555 1_555
Cu6 O15 1_555 1_555
Cu6 O19 1_555 1_555
O20 C26 1_555 1_555
C26 C27 1_555 1_555
C31 S5 1_555 1_555
O16 C23 1_555 1_555
O17 C23 1_555 1_555
N5 C24 1_555 1_555
C23 C24 1_555 1_555
C24 H29 1_555 1_555
C32 C24 1_555 1_555
H38 C32 1_555 1_555
H39 C32 1_555 1_555
S6 C32 1_555 1_555
Ca4 O16 1_555 1_555
Cu8 O17 1_555 1_555
Cu12 O16 1_555 1_555
O18 Cu12 1_555 1_555
N5 C25 1_555 1_555
N5 Cu12 1_555 1_555
O27 C23_2 1_555 1_555
N9 C24_2 1_555 1_555
C23_2 C24_2 1_555 1_555
C24_2 H29_2 1_555 1_555
C32_2 C24_2 1_555 1_555
H38_2 C32_2 1_555 1_555
H39_2 C32_2 1_555 1_555
S6_2 C32_2 1_555 1_555
N9 C25_2 1_555 1_555
Ca4 O1_2 1_555 1_555
Cu8 O1_2 1_555 1_555
Cu2_2 O1_2 1_555 1_555
O5_2 Ca4 1_555 1_555
O6_2 C4_2 1_555 1_555
O7_2 Cu2_2 1_555 1_555
N2_2 Cu2_2 1_555 1_555
C4_2 O5_2 1_555 1_555
C5_2 N2_2 1_555 1_555
H2_2 C5_2 1_555 1_555
C6_2 N2_2 1_555 1_555
H13_2 C11_2 1_555 1_555
H14_2 C11_2 1_555 1_555
Cu10 O8_2 1_555 1_555
Cu4_2 O6_2 1_555 1_555
O8_2 Ca4 1_555 1_555
O26 C12_2 1_555 1_555
O12_2 Ca4 1_555 1_555
O13_2 C15_2 1_555 1_555
O14_2 Cu4_2 1_555 1_555
N8 C13_2 1_555 1_555
N4_2 Cu4_2 1_555 1_555
C12_2 C13_2 1_555 1_555
C13_2 H15_2 1_555 1_555
C14_2 O14_2 1_555 1_555
C15_2 O12_2 1_555 1_555
C16_2 N4_2 1_555 1_555
H16_2 C16_2 1_555 1_555
C17_2 N4_2 1_555 1_555
C21_2 C13_2 1_555 1_555
H24_2 C21_2 1_555 1_555
H25_2 C21_2 1_555 1_555
H27_2 C22_2 1_555 1_555
H28_2 C22_2 1_555 1_555
S4_2 C21_2 1_555 1_555
Cu12 O15_2 1_555 1_555
Cu6_2 O13_2 1_555 1_555
O15_2 Ca4 1_555 1_555
O19_2 Ca4 1_555 1_555
O20_2 Cu2_2 1_555 1_555
O21_2 Cu6_2 1_555 1_555
N6_2 Cu6_2 1_555 1_555
C26_2 O19_2 1_555 1_555
C27_2 N6_2 1_555 1_555
H30_2 C27_2 1_555 1_555
C28_2 N6_2 1_555 1_555
H41_2 C33_2 1_555 1_555
H42_2 C33_2 1_555 1_555
Cu2_2 O5_2 1_555 1_555
C4_2 C5_2 1_555 1_555
Cu4_2 O8_2 1_555 1_555
Cu4_2 O12_2 1_555 1_555
N8 C14_2 1_555 1_555
C14_2 C17_2 1_555 1_555
C15_2 C16_2 1_555 1_555
C22_2 S4_2 1_555 1_555
Cu6_2 O15_2 1_555 1_555
Cu6_2 O19_2 1_555 1_555
O20_2 C26_2 1_555 1_555
C26_2 C27_2 1_555 1_555
H3_2 C7_2 1_555 1_555
H4_2 C7_2 1_555 1_555
C8_2 C7_2 1_555 1_555
H5_2 C8_2 1_555 1_555
H6_2 C8_2 1_555 1_555
C9_2 H7_2 1_555 1_555
H8_2 C9_2 1_555 1_555
H9_2 C9_2 1_555 1_555
S1_2 C8_2 1_555 1_555
H17_2 C18_2 1_555 1_555
H18_2 C18_2 1_555 1_555
C19_2 C18_2 1_555 1_555
H19_2 C19_2 1_555 1_555
H20_2 C19_2 1_555 1_555
C20_2 H21_2 1_555 1_555
H22_2 C20_2 1_555 1_555
H23_2 C20_2 1_555 1_555
S3_2 C19_2 1_555 1_555
H31_2 C29_2 1_555 1_555
H32_2 C29_2 1_555 1_555
C30_2 C29_2 1_555 1_555
H33_2 C30_2 1_555 1_555
H34_2 C30_2 1_555 1_555
C31_2 H35_2 1_555 1_555
H36_2 C31_2 1_555 1_555
H37_2 C31_2 1_555 1_555
S5_2 C30_2 1_555 1_555
C9_2 S1_2 1_555 1_555
C20_2 S3_2 1_555 1_555
C31_2 S5_2 1_555 1_555
O25 C1_2 1_555 1_555
N7 C2_2 1_555 1_555
C1_2 C2_2 1_555 1_555
C2_2 H1_2 1_555 1_555
C10_2 C2_2 1_555 1_555
H10_2 C10_2 1_555 1_555
H11_2 C10_2 1_555 1_555
S2_2 C10_2 1_555 1_555
N7 C3_2 1_555 1_555

#END
