
###############################################################################
#
# This file contains modified crystal structure data generated from the
# MOF subset of the Cambridge Structural Database (CSD) v543 
# hosted by the Cambridge Crystallographic Data Centre (CCDC).
#
# This work is licensed under the Creative Commons
# Attribution-NonCommercial-ShareAlike 4.0 International License.
# To view a copy of this license, visit
# http://creativecommons.org/licenses/by-nc-sa/4.0/
# or send a letter to
# Creative Commons, PO Box 1866, Mountain View, CA 94042, USA.
#
# CIF created using the CSD Python API on 29 September 2022
# The structure has been converted into the P1 space group
# The structure has a 3D framework
# The original CSD entry NEBQOD is in the monoclinic crystal system
# The framework has been calculated to contain at least 10.0% void space
# The void calculation uses a probe of radius 1.32A, grid spacing 0.4
#
###############################################################################

data_NEBQOD
_chemical_formula_moiety         '(C120 H88 Cd14 O64)n'
_symmetry_cell_setting           triclinic
_symmetry_space_group_name_H-M   'P 1'
_symmetry_Int_Tables_number      1
_space_group_name_Hall           'P 1'
loop_
_symmetry_equiv_pos_site_id
_symmetry_equiv_pos_as_xyz
1 x,y,z
_cell_length_a                   28.356(13)
_cell_length_b                   6.551(3)
_cell_length_c                   23.770(10)
_cell_angle_alpha                90
_cell_angle_beta                 123.958(6)
_cell_angle_gamma                90
_cell_volume                     3662.44
loop_
_atom_site_label
_atom_site_type_symbol
_atom_site_fract_x
_atom_site_fract_y
_atom_site_fract_z
Cd7 Cd 0.111017(16) 0.03936(6) 0.25985(2)
Cd1 Cd -0.0000 0.52509(8) 0.2500
Cd3 Cd 0.388983(16) 0.53936(6) 0.24015(2)
C16 C 0.3049(2) 0.5330(7) 0.2578(3)
C17 C 0.2545(2) 0.5325(7) 0.2626(2)
C18 C 0.2607(2) 0.5408(8) 0.3237(3)
H12 H 0.2969 0.5446 0.3635
C19 C 0.2139(2) 0.5435(8) 0.3274(3)
H13 H 0.2185 0.5496 0.3693
C20 C 0.16035(19) 0.5373(7) 0.2684(2)
C21 C 0.1546(2) 0.5275(7) 0.2069(2)
C22 C 0.2006(2) 0.5263(7) 0.2037(3)
H14 H 0.1961 0.5213 0.1618
C23 C 0.1072(2) 0.5402(8) 0.2676(2)
C24 C 0.0881(2) 0.5166(9) 0.0873(3)
C25 C 0.0916(2) 0.6928(9) 0.0591(3)
H15 H 0.1039 0.8133 0.0840
C29 C 0.0718(3) 0.3374(9) 0.0529(3)
H18 H 0.0705 0.2183 0.0733
O10 O 0.35386(15) 0.5297(5) 0.31022(18)
O11 O 0.47549(18) 0.5175(6) 0.3342(2)
H19 H 0.4931 0.4074 0.3369
H20 H 0.5022 0.5793 0.3340
O12 O 0.29664(15) 0.5377(5) 0.20037(18)
O13 O 0.37410(19) 0.5764(6) 0.1358(2)
H21 H 0.4006 0.6421 0.1363
H22 H 0.3758 0.4689 0.1164
O14 O 0.08120(14) 0.3743(5) 0.25924(16)
O15 O 0.08894(14) 0.7057(5) 0.27392(17)
O16 O 0.09920(15) 0.5201(6) 0.15198(17)
Cd5 Cd -0.0000 0.47491(8) 0.7500
O19 O 0.41880(14) 0.8743(5) 0.24076(16)
O21 O 0.41106(14) 0.2057(5) 0.22608(17)
O23 O 0.04516(15) 0.3331(5) 0.35826(16)
O25 O 0.02844(15) 0.6591(5) 0.35335(16)
C26 C 0.0766(2) 0.6887(9) 0.9932(3)
H16 H 0.0779 0.8083 0.9730
C27 C 0.0598(2) 0.5088(8) 0.9567(2)
C28 C 0.0572(3) 0.3354(9) 0.9873(3)
H17 H 0.0453 0.2138 0.9630
C30 C 0.0437(2) 0.5051(8) 0.8857(2)
O17 O 0.04516(15) 0.6669(5) 0.85826(16)
O18 O 0.02844(15) 0.3409(5) 0.85335(16)
Cd9 Cd 0.888983(16) 0.03936(6) 0.24015(2)
Cd1_2 Cd 1.0000 0.52509(8) 0.2500
Cd2 Cd 0.611017(16) 0.53936(6) 0.25985(2)
C1 C 0.6951(2) 0.5330(7) 0.2422(3)
C2 C 0.7455(2) 0.5325(7) 0.2374(2)
C3 C 0.7393(2) 0.5408(8) 0.1763(3)
H1 H 0.7031 0.5446 0.1365
C4 C 0.7861(2) 0.5435(8) 0.1726(3)
H2 H 0.7815 0.5496 0.1307
C5 C 0.83965(19) 0.5373(7) 0.2316(2)
C6 C 0.8454(2) 0.5275(7) 0.2931(2)
C7 C 0.7994(2) 0.5263(7) 0.2963(3)
H3 H 0.8039 0.5213 0.3382
C8 C 0.8928(2) 0.5402(8) 0.2324(2)
C9 C 0.9119(2) 0.5166(9) 0.4127(3)
C10 C 0.9084(2) 0.6928(9) 0.4409(3)
H4 H 0.8961 0.8133 0.4160
C11 C 0.9234(2) 0.6887(9) 0.5068(3)
H5 H 0.9221 0.8083 0.5270
C12 C 0.9402(2) 0.5088(8) 0.5433(2)
C13 C 0.9428(3) 0.3354(9) 0.5127(3)
H6 H 0.9547 0.2138 0.5370
C14 C 0.9282(3) 0.3374(9) 0.4471(3)
H7 H 0.9295 0.2183 0.4267
C15 C 0.9563(2) 0.5051(8) 0.6143(2)
O1 O 0.64614(15) 0.5297(5) 0.18978(18)
O2 O 0.52451(18) 0.5175(6) 0.1658(2)
H8 H 0.5069 0.4074 0.1631
H9 H 0.4978 0.5793 0.1660
O3 O 0.70336(15) 0.5377(5) 0.29963(18)
O4 O 0.62590(19) 0.5764(6) 0.3642(2)
H10 H 0.5994 0.6421 0.3637
H11 H 0.6242 0.4689 0.3836
O5 O 0.91880(14) 0.3743(5) 0.24076(16)
O6 O 0.91106(14) 0.7057(5) 0.22608(17)
O7 O 0.90080(15) 0.5201(6) 0.34802(17)
O8 O 0.95484(15) 0.6669(5) 0.64174(16)
O9 O 0.97156(15) 0.3409(5) 0.64665(16)
Cd5_2 Cd 1.0000 0.47491(8) 0.7500
O20 O 0.58120(14) 0.8743(5) 0.25924(16)
O22 O 0.58894(14) 0.2057(5) 0.27392(17)
O24 O 0.95484(15) 0.3331(5) 0.14174(16)
O26 O 0.97156(15) 0.6591(5) 0.14665(16)
Cd1_3 Cd 0.5000 0.02509(8) 0.2500
C1_2 C 0.1951(2) 0.0330(7) 0.2422(3)
C2_2 C 0.2455(2) 0.0325(7) 0.2374(2)
C3_2 C 0.2393(2) 0.0408(8) 0.1763(3)
H1_2 H 0.2031 0.0446 0.1365
C4_2 C 0.2861(2) 0.0435(8) 0.1726(3)
H2_2 H 0.2815 0.0496 0.1307
C5_2 C 0.33965(19) 0.0373(7) 0.2316(2)
C6_2 C 0.3454(2) 0.0275(7) 0.2931(2)
C7_2 C 0.2994(2) 0.0263(7) 0.2963(3)
H3_2 H 0.3039 0.0213 0.3382
C8_2 C 0.3928(2) 0.0402(8) 0.2324(2)
C9_2 C 0.4119(2) 0.0166(9) 0.4127(3)
C10_2 C 0.4084(2) 0.1928(9) 0.4409(3)
H4_2 H 0.3961 0.3133 0.4160
C11_2 C 0.4234(2) 0.1887(9) 0.5068(3)
H5_2 H 0.4221 0.3083 0.5270
C12_2 C 0.4402(2) 0.0088(8) 0.5433(2)
C15_2 C 0.4563(2) 0.0051(8) 0.6143(2)
O1_2 O 0.14614(15) 0.0297(5) 0.18978(18)
O2_2 O 0.02451(18) 0.0175(6) 0.1658(2)
O3_2 O 0.20336(15) 0.0377(5) 0.29963(18)
O4_2 O 0.12590(19) 0.0764(6) 0.3642(2)
H10_2 H 0.0994 0.1421 0.3637
O7_2 O 0.40080(15) 0.0201(6) 0.34802(17)
O8_2 O 0.45484(15) 0.1669(5) 0.64174(16)
C16_2 C 0.8049(2) 0.0330(7) 0.2578(3)
C17_2 C 0.7545(2) 0.0325(7) 0.2626(2)
C18_2 C 0.7607(2) 0.0408(8) 0.3237(3)
H12_2 H 0.7969 0.0446 0.3635
C19_2 C 0.7139(2) 0.0435(8) 0.3274(3)
H13_2 H 0.7185 0.0496 0.3693
C20_2 C 0.66035(19) 0.0373(7) 0.2684(2)
C21_2 C 0.6546(2) 0.0275(7) 0.2069(2)
C22_2 C 0.7006(2) 0.0263(7) 0.2037(3)
H14_2 H 0.6961 0.0213 0.1618
C23_2 C 0.6072(2) 0.0402(8) 0.2676(2)
C24_2 C 0.5881(2) 0.0166(9) 0.0873(3)
C25_2 C 0.5916(2) 0.1928(9) 0.0591(3)
H15_2 H 0.6039 0.3133 0.0840
O10_2 O 0.85386(15) 0.0297(5) 0.31022(18)
O11_2 O 0.97549(18) 0.0175(6) 0.3342(2)
O12_2 O 0.79664(15) 0.0377(5) 0.20037(18)
O13_2 O 0.87410(19) 0.0764(6) 0.1358(2)
H21_2 H 0.9006 0.1421 0.1363
O16_2 O 0.59920(15) 0.0201(6) 0.15198(17)
O25_2 O 0.52844(15) 0.1591(5) 0.35335(16)
O26_2 O 0.47156(15) 0.1591(5) 0.14665(16)
C26_2 C 0.5766(2) 0.1887(9) 0.9932(3)
H16_2 H 0.5779 0.3083 0.9730
C27_2 C 0.5598(2) 0.0088(8) 0.9567(2)
C30_2 C 0.5437(2) 0.0051(8) 0.8857(2)
O17_2 O 0.54516(15) 0.1669(5) 0.85826(16)
C13_2 C 0.4428(3) 0.8354(9) 0.5127(3)
H6_2 H 0.4547 0.7138 0.5370
C14_2 C 0.4282(3) 0.8374(9) 0.4471(3)
H7_2 H 0.4295 0.7183 0.4267
H8_2 H 0.0069 0.9074 0.1631
H11_2 H 0.1242 0.9689 0.3836
O9_2 O 0.47156(15) 0.8409(5) 0.64665(16)
C29_2 C 0.5718(3) 0.8374(9) 0.0529(3)
H18_2 H 0.5705 0.7183 0.0733
H19_2 H 0.9931 0.9074 0.3369
H22_2 H 0.8758 0.9689 0.1164
Cd5_3 Cd 0.5000 0.97491(8) 0.7500
O23_2 O 0.54516(15) 0.8331(5) 0.35826(16)
O24_2 O 0.45484(15) 0.8331(5) 0.14174(16)
C28_2 C 0.5572(3) 0.8354(9) 0.9873(3)
H17_2 H 0.5453 0.7138 0.9630
O18_2 O 0.52844(15) 0.8409(5) 0.85335(16)
Cd2_2 Cd 0.388983(16) 0.46064(6) 0.74015(2)
C1_3 C 0.3049(2) 0.4670(7) 0.7578(3)
C2_3 C 0.2545(2) 0.4675(7) 0.7626(2)
C3_3 C 0.2607(2) 0.4592(8) 0.8237(3)
H1_3 H 0.2969 0.4554 0.8635
C4_3 C 0.2139(2) 0.4565(8) 0.8274(3)
H2_3 H 0.2185 0.4504 0.8693
C5_3 C 0.16035(19) 0.4627(7) 0.7684(2)
C6_3 C 0.1546(2) 0.4725(7) 0.7069(2)
C7_3 C 0.2006(2) 0.4737(7) 0.7037(3)
H3_3 H 0.1961 0.4787 0.6618
C8_3 C 0.1072(2) 0.4598(8) 0.7676(2)
C9_3 C 0.0881(2) 0.4834(9) 0.5873(3)
C10_3 C 0.0916(2) 0.3072(9) 0.5591(3)
H4_3 H 0.1039 0.1867 0.5840
C11_3 C 0.0766(2) 0.3113(9) 0.4932(3)
H5_3 H 0.0779 0.1917 0.4730
C12_3 C 0.0598(2) 0.4912(8) 0.4567(2)
C13_3 C 0.0572(3) 0.6646(9) 0.4873(3)
H6_3 H 0.0453 0.7862 0.4630
C14_3 C 0.0718(3) 0.6626(9) 0.5529(3)
H7_3 H 0.0705 0.7817 0.5733
C15_3 C 0.0437(2) 0.4949(8) 0.3857(2)
O1_3 O 0.35386(15) 0.4703(5) 0.81022(18)
O2_3 O 0.47549(18) 0.4825(6) 0.8342(2)
H8_3 H 0.4931 0.5926 0.8369
H9_2 H 0.5022 0.4207 0.8340
O3_3 O 0.29664(15) 0.4623(5) 0.70037(18)
O4_3 O 0.37410(19) 0.4236(6) 0.6358(2)
H10_3 H 0.4006 0.3579 0.6363
H11_3 H 0.3758 0.5311 0.6164
O5_2 O 0.08120(14) 0.6257(5) 0.75924(16)
O6_2 O 0.08894(14) 0.2943(5) 0.77392(17)
O7_3 O 0.09920(15) 0.4799(6) 0.65198(17)
Cd8 Cd 0.111017(16) 0.96064(6) 0.75985(2)
O20_2 O 0.41880(14) 0.1257(5) 0.74076(16)
O22_2 O 0.41106(14) 0.7943(5) 0.72608(17)
C26_3 C 0.9234(2) 0.3113(9) 0.0068(3)
H16_3 H 0.9221 0.1917 0.0270
C27_3 C 0.9402(2) 0.4912(8) 0.0433(2)
C28_3 C 0.9428(3) 0.6646(9) 0.0127(3)
H17_3 H 0.9547 0.7862 0.0370
C30_3 C 0.9563(2) 0.4949(8) 0.1143(2)
Cd3_2 Cd 0.611017(16) 0.46064(6) 0.75985(2)
C16_3 C 0.6951(2) 0.4670(7) 0.7422(3)
C17_3 C 0.7455(2) 0.4675(7) 0.7374(2)
C18_3 C 0.7393(2) 0.4592(8) 0.6763(3)
H12_3 H 0.7031 0.4554 0.6365
C19_3 C 0.7861(2) 0.4565(8) 0.6726(3)
H13_3 H 0.7815 0.4504 0.6307
C20_3 C 0.83965(19) 0.4627(7) 0.7316(2)
C21_3 C 0.8454(2) 0.4725(7) 0.7931(2)
C22_3 C 0.7994(2) 0.4737(7) 0.7963(3)
H14_3 H 0.8039 0.4787 0.8382
C23_3 C 0.8928(2) 0.4598(8) 0.7324(2)
C24_3 C 0.9119(2) 0.4834(9) 0.9127(3)
C25_3 C 0.9084(2) 0.3072(9) 0.9409(3)
H15_3 H 0.8961 0.1867 0.9160
C29_3 C 0.9282(3) 0.6626(9) 0.9471(3)
H18_3 H 0.9295 0.7817 0.9267
O10_3 O 0.64614(15) 0.4703(5) 0.68978(18)
O11_3 O 0.52451(18) 0.4825(6) 0.6658(2)
H19_3 H 0.5069 0.5926 0.6631
H20_2 H 0.4978 0.4207 0.6660
O12_3 O 0.70336(15) 0.4623(5) 0.79963(18)
O13_3 O 0.62590(19) 0.4236(6) 0.8642(2)
H21_3 H 0.5994 0.3579 0.8637
H22_3 H 0.6242 0.5311 0.8836
O14_2 O 0.91880(14) 0.6257(5) 0.74076(16)
O15_2 O 0.91106(14) 0.2943(5) 0.72608(17)
O16_3 O 0.90080(15) 0.4799(6) 0.84802(17)
Cd6 Cd 0.888983(16) 0.96064(6) 0.74015(2)
O19_2 O 0.58120(14) 0.1257(5) 0.75924(16)
O21_2 O 0.58894(14) 0.7943(5) 0.77392(17)
C28_4 C 0.4428(3) 0.1646(9) 0.0127(3)
H17_4 H 0.4547 0.2862 0.0370
C13_4 C 0.5572(3) 0.1646(9) 0.4873(3)
H6_4 H 0.5453 0.2862 0.4630
C14_4 C 0.5718(3) 0.1626(9) 0.5529(3)
H7_4 H 0.5705 0.2817 0.5733
H8_4 H 0.9931 0.0926 0.8369
H11_4 H 0.8758 0.0311 0.6164
C29_4 C 0.4282(3) 0.1626(9) 0.9471(3)
H18_4 H 0.4295 0.2817 0.9267
H19_4 H 0.0069 0.0926 0.6631
H22_4 H 0.1242 0.0311 0.8836
C26_4 C 0.4234(2) 0.8113(9) 0.0068(3)
H16_4 H 0.4221 0.6917 0.0270
C27_4 C 0.4402(2) 0.9912(8) 0.0433(2)
C30_4 C 0.4563(2) 0.9949(8) 0.1143(2)
C1_4 C 0.8049(2) 0.9670(7) 0.7578(3)
C2_4 C 0.7545(2) 0.9675(7) 0.7626(2)
C3_4 C 0.7607(2) 0.9592(8) 0.8237(3)
H1_4 H 0.7969 0.9554 0.8635
C4_4 C 0.7139(2) 0.9565(8) 0.8274(3)
H2_4 H 0.7185 0.9504 0.8693
C5_4 C 0.66035(19) 0.9627(7) 0.7684(2)
C6_4 C 0.6546(2) 0.9725(7) 0.7069(2)
C7_4 C 0.7006(2) 0.9737(7) 0.7037(3)
H3_4 H 0.6961 0.9787 0.6618
C8_4 C 0.6072(2) 0.9598(8) 0.7676(2)
C9_4 C 0.5881(2) 0.9834(9) 0.5873(3)
C10_4 C 0.5916(2) 0.8072(9) 0.5591(3)
H4_4 H 0.6039 0.6867 0.5840
C11_4 C 0.5766(2) 0.8113(9) 0.4932(3)
H5_4 H 0.5779 0.6917 0.4730
C12_4 C 0.5598(2) 0.9912(8) 0.4567(2)
C15_4 C 0.5437(2) 0.9949(8) 0.3857(2)
O1_4 O 0.85386(15) 0.9703(5) 0.81022(18)
O2_4 O 0.97549(18) 0.9825(6) 0.8342(2)
O3_4 O 0.79664(15) 0.9623(5) 0.70037(18)
O4_4 O 0.87410(19) 0.9236(6) 0.6358(2)
H10_4 H 0.9006 0.8579 0.6363
O7_4 O 0.59920(15) 0.9799(6) 0.65198(17)
C16_4 C 0.1951(2) 0.9670(7) 0.7422(3)
C17_4 C 0.2455(2) 0.9675(7) 0.7374(2)
C18_4 C 0.2393(2) 0.9592(8) 0.6763(3)
H12_4 H 0.2031 0.9554 0.6365
C19_4 C 0.2861(2) 0.9565(8) 0.6726(3)
H13_4 H 0.2815 0.9504 0.6307
C20_4 C 0.33965(19) 0.9627(7) 0.7316(2)
C21_4 C 0.3454(2) 0.9725(7) 0.7931(2)
C22_4 C 0.2994(2) 0.9737(7) 0.7963(3)
H14_4 H 0.3039 0.9787 0.8382
C23_4 C 0.3928(2) 0.9598(8) 0.7324(2)
C24_4 C 0.4119(2) 0.9834(9) 0.9127(3)
C25_4 C 0.4084(2) 0.8072(9) 0.9409(3)
H15_4 H 0.3961 0.6867 0.9160
O10_4 O 0.14614(15) 0.9703(5) 0.68978(18)
O11_4 O 0.02451(18) 0.9825(6) 0.6658(2)
O12_4 O 0.20336(15) 0.9623(5) 0.79963(18)
O13_4 O 0.12590(19) 0.9236(6) 0.8642(2)
H21_4 H 0.0994 0.8579 0.8637
O16_4 O 0.40080(15) 0.9799(6) 0.84802(17)
H20_3 H 0.0022 0.0793 0.3340
H9_3 H 0.9978 0.0793 0.1660
H9_4 H 0.0022 0.9207 0.8340
H20_4 H 0.9978 0.9207 0.6660
loop_
_geom_bond_atom_site_label_1
_geom_bond_atom_site_label_2
_geom_bond_site_symmetry_1
_geom_bond_site_symmetry_2
Cd3 O10 1_555 1_555
C16 C17 1_555 1_555
C17 C18 1_555 1_555
C18 H12 1_555 1_555
C19 C18 1_555 1_555
H13 C19 1_555 1_555
C20 C19 1_555 1_555
C21 C20 1_555 1_555
C22 C17 1_555 1_555
H14 C22 1_555 1_555
C23 C20 1_555 1_555
C24 C25 1_555 1_555
C25 H15 1_555 1_555
C29 C24 1_555 1_555
H18 C29 1_555 1_555
O10 C16 1_555 1_555
O11 Cd3 1_555 1_555
H19 O11 1_555 1_555
H20 O11 1_555 1_555
O12 Cd3 1_555 1_555
O13 Cd3 1_555 1_555
H21 O13 1_555 1_555
H22 O13 1_555 1_555
O14 Cd1 1_555 1_555
O15 Cd1 1_555 1_555
O16 C21 1_555 1_555
Cd7 O14 1_555 1_555
O19 Cd3 1_555 1_555
O21 Cd3 1_555 1_555
O23 Cd1 1_555 1_555
O25 Cd1 1_555 1_555
C16 O12 1_555 1_555
C21 C22 1_555 1_555
C23 O14 1_555 1_555
C23 O15 1_555 1_555
C24 O16 1_555 1_555
H16 C26 1_555 1_555
C27 C26 1_555 1_555
C28 C27 1_555 1_555
H17 C28 1_555 1_555
C30 C27 1_555 1_555
O17 C30 1_555 1_555
O18 C30 1_555 1_555
Cd5 O17 1_555 1_555
O18 Cd5 1_555 1_555
Cd1_2 O5 1_555 1_555
Cd2 O1 1_555 1_555
C1 C2 1_555 1_555
C2 C3 1_555 1_555
C3 H1 1_555 1_555
C4 C3 1_555 1_555
H2 C4 1_555 1_555
C5 C4 1_555 1_555
C6 C5 1_555 1_555
C7 C2 1_555 1_555
H3 C7 1_555 1_555
C8 C5 1_555 1_555
C9 C10 1_555 1_555
C10 H4 1_555 1_555
C11 C10 1_555 1_555
H5 C11 1_555 1_555
C12 C11 1_555 1_555
C13 C12 1_555 1_555
H6 C13 1_555 1_555
C14 C9 1_555 1_555
H7 C14 1_555 1_555
C15 C12 1_555 1_555
O1 C1 1_555 1_555
O2 Cd2 1_555 1_555
H8 O2 1_555 1_555
H9 O2 1_555 1_555
O3 Cd2 1_555 1_555
O4 Cd2 1_555 1_555
H10 O4 1_555 1_555
H11 O4 1_555 1_555
O5 C8 1_555 1_555
O6 Cd1_2 1_555 1_555
O7 C6 1_555 1_555
O8 C15 1_555 1_555
O9 C15 1_555 1_555
Cd5_2 O8 1_555 1_555
Cd9 O5 1_555 1_555
O20 Cd2 1_555 1_555
O22 Cd2 1_555 1_555
O24 Cd1_2 1_555 1_555
O26 Cd1_2 1_555 1_555
C1 O3 1_555 1_555
C6 C7 1_555 1_555
C8 O6 1_555 1_555
C9 O7 1_555 1_555
C13 C14 1_555 1_555
O9 Cd5_2 1_555 1_555
Cd7 O1_2 1_555 1_555
C1_2 C2_2 1_555 1_555
C2_2 C3_2 1_555 1_555
C3_2 H1_2 1_555 1_555
C4_2 C3_2 1_555 1_555
H2_2 C4_2 1_555 1_555
C5_2 C4_2 1_555 1_555
C6_2 C5_2 1_555 1_555
C7_2 C2_2 1_555 1_555
H3_2 C7_2 1_555 1_555
C8_2 C5_2 1_555 1_555
C9_2 C10_2 1_555 1_555
C10_2 H4_2 1_555 1_555
C11_2 C10_2 1_555 1_555
H5_2 C11_2 1_555 1_555
C12_2 C11_2 1_555 1_555
C15_2 C12_2 1_555 1_555
O1_2 C1_2 1_555 1_555
O2_2 Cd7 1_555 1_555
O3_2 Cd7 1_555 1_555
O4_2 Cd7 1_555 1_555
H10_2 O4_2 1_555 1_555
O21 Cd1_3 1_555 1_555
O7_2 C6_2 1_555 1_555
O8_2 C15_2 1_555 1_555
Cd9 O10_2 1_555 1_555
C16_2 C17_2 1_555 1_555
C17_2 C18_2 1_555 1_555
C18_2 H12_2 1_555 1_555
C19_2 C18_2 1_555 1_555
H13_2 C19_2 1_555 1_555
C20_2 C19_2 1_555 1_555
C21_2 C20_2 1_555 1_555
C22_2 C17_2 1_555 1_555
H14_2 C22_2 1_555 1_555
C23_2 C20_2 1_555 1_555
C24_2 C25_2 1_555 1_555
C25_2 H15_2 1_555 1_555
O10_2 C16_2 1_555 1_555
O11_2 Cd9 1_555 1_555
O12_2 Cd9 1_555 1_555
O13_2 Cd9 1_555 1_555
H21_2 O13_2 1_555 1_555
O22 Cd1_3 1_555 1_555
O16_2 C21_2 1_555 1_555
O25_2 Cd1_3 1_555 1_555
O26_2 Cd1_3 1_555 1_555
C1_2 O3_2 1_555 1_555
C6_2 C7_2 1_555 1_555
C8_2 O21 1_555 1_555
C9_2 O7_2 1_555 1_555
C16_2 O12_2 1_555 1_555
C21_2 C22_2 1_555 1_555
C23_2 O22 1_555 1_555
C24_2 O16_2 1_555 1_555
H16_2 C26_2 1_555 1_555
C27_2 C26_2 1_555 1_555
C30_2 C27_2 1_555 1_555
O17_2 C30_2 1_555 1_555
H6_2 C13_2 1_555 1_555
H7_2 C14_2 1_555 1_555
H18_2 C29_2 1_555 1_555
C13_2 C14_2 1_555 1_555
O9_2 Cd5_3 1_555 1_555
H17_2 C28_2 1_555 1_555
O18_2 Cd5_3 1_555 1_555
Cd5 O5_2 1_555 1_555
Cd2_2 O1_3 1_555 1_555
C1_3 C2_3 1_555 1_555
C2_3 C3_3 1_555 1_555
C3_3 H1_3 1_555 1_555
C4_3 C3_3 1_555 1_555
H2_3 C4_3 1_555 1_555
C5_3 C4_3 1_555 1_555
C6_3 C5_3 1_555 1_555
C7_3 C2_3 1_555 1_555
H3_3 C7_3 1_555 1_555
C8_3 C5_3 1_555 1_555
C9_3 C10_3 1_555 1_555
C10_3 H4_3 1_555 1_555
C11_3 C10_3 1_555 1_555
H5_3 C11_3 1_555 1_555
C12_3 C11_3 1_555 1_555
C13_3 C12_3 1_555 1_555
H6_3 C13_3 1_555 1_555
C14_3 C9_3 1_555 1_555
H7_3 C14_3 1_555 1_555
C15_3 C12_3 1_555 1_555
O1_3 C1_3 1_555 1_555
O2_3 Cd2_2 1_555 1_555
H8_3 O2_3 1_555 1_555
H9_2 O2_3 1_555 1_555
O3_3 Cd2_2 1_555 1_555
O4_3 Cd2_2 1_555 1_555
H10_3 O4_3 1_555 1_555
H11_3 O4_3 1_555 1_555
O5_2 C8_3 1_555 1_555
O6_2 Cd5 1_555 1_555
O7_3 C6_3 1_555 1_555
O23 C15_3 1_555 1_555
O25 C15_3 1_555 1_555
Cd8 O5_2 1_555 1_555
O20_2 Cd2_2 1_555 1_555
O22_2 Cd2_2 1_555 1_555
C1_3 O3_3 1_555 1_555
C6_3 C7_3 1_555 1_555
C8_3 O6_2 1_555 1_555
C9_3 O7_3 1_555 1_555
C13_3 C14_3 1_555 1_555
H16_3 C26_3 1_555 1_555
C27_3 C26_3 1_555 1_555
C28_3 C27_3 1_555 1_555
H17_3 C28_3 1_555 1_555
C30_3 C27_3 1_555 1_555
O24 C30_3 1_555 1_555
O26 C30_3 1_555 1_555
Cd3_2 O10_3 1_555 1_555
C16_3 C17_3 1_555 1_555
C17_3 C18_3 1_555 1_555
C18_3 H12_3 1_555 1_555
C19_3 C18_3 1_555 1_555
H13_3 C19_3 1_555 1_555
C20_3 C19_3 1_555 1_555
C21_3 C20_3 1_555 1_555
C22_3 C17_3 1_555 1_555
H14_3 C22_3 1_555 1_555
C23_3 C20_3 1_555 1_555
C24_3 C25_3 1_555 1_555
C25_3 H15_3 1_555 1_555
C29_3 C24_3 1_555 1_555
H18_3 C29_3 1_555 1_555
O10_3 C16_3 1_555 1_555
O11_3 Cd3_2 1_555 1_555
H19_3 O11_3 1_555 1_555
H20_2 O11_3 1_555 1_555
O12_3 Cd3_2 1_555 1_555
O13_3 Cd3_2 1_555 1_555
H21_3 O13_3 1_555 1_555
H22_3 O13_3 1_555 1_555
O14_2 Cd5_2 1_555 1_555
O15_2 Cd5_2 1_555 1_555
O16_3 C21_3 1_555 1_555
Cd6 O14_2 1_555 1_555
O19_2 Cd3_2 1_555 1_555
O21_2 Cd3_2 1_555 1_555
C16_3 O12_3 1_555 1_555
C21_3 C22_3 1_555 1_555
C23_3 O14_2 1_555 1_555
C23_3 O15_2 1_555 1_555
C24_3 O16_3 1_555 1_555
H17_4 C28_4 1_555 1_555
H6_4 C13_4 1_555 1_555
H7_4 C14_4 1_555 1_555
H18_4 C29_4 1_555 1_555
C13_4 C14_4 1_555 1_555
H16_4 C26_4 1_555 1_555
C27_4 C26_4 1_555 1_555
C30_4 C27_4 1_555 1_555
O24_2 C30_4 1_555 1_555
Cd6 O1_4 1_555 1_555
C1_4 C2_4 1_555 1_555
C2_4 C3_4 1_555 1_555
C3_4 H1_4 1_555 1_555
C4_4 C3_4 1_555 1_555
H2_4 C4_4 1_555 1_555
C5_4 C4_4 1_555 1_555
C6_4 C5_4 1_555 1_555
C7_4 C2_4 1_555 1_555
H3_4 C7_4 1_555 1_555
C8_4 C5_4 1_555 1_555
C9_4 C10_4 1_555 1_555
C10_4 H4_4 1_555 1_555
C11_4 C10_4 1_555 1_555
H5_4 C11_4 1_555 1_555
C12_4 C11_4 1_555 1_555
C15_4 C12_4 1_555 1_555
O1_4 C1_4 1_555 1_555
O2_4 Cd6 1_555 1_555
O3_4 Cd6 1_555 1_555
O4_4 Cd6 1_555 1_555
H10_4 O4_4 1_555 1_555
O21_2 Cd5_3 1_555 1_555
O7_4 C6_4 1_555 1_555
O23_2 C15_4 1_555 1_555
Cd8 O10_4 1_555 1_555
C16_4 C17_4 1_555 1_555
C17_4 C18_4 1_555 1_555
C18_4 H12_4 1_555 1_555
C19_4 C18_4 1_555 1_555
H13_4 C19_4 1_555 1_555
C20_4 C19_4 1_555 1_555
C21_4 C20_4 1_555 1_555
C22_4 C17_4 1_555 1_555
H14_4 C22_4 1_555 1_555
C23_4 C20_4 1_555 1_555
C24_4 C25_4 1_555 1_555
C25_4 H15_4 1_555 1_555
O10_4 C16_4 1_555 1_555
O11_4 Cd8 1_555 1_555
O12_4 Cd8 1_555 1_555
O13_4 Cd8 1_555 1_555
H21_4 O13_4 1_555 1_555
O22_2 Cd5_3 1_555 1_555
O16_4 C21_4 1_555 1_555
C1_4 O3_4 1_555 1_555
C6_4 C7_4 1_555 1_555
C8_4 O21_2 1_555 1_555
C9_4 O7_4 1_555 1_555
C16_4 O12_4 1_555 1_555
C21_4 C22_4 1_555 1_555
C23_4 O22_2 1_555 1_555
C24_4 O16_4 1_555 1_555

#END
