
###############################################################################
#
# This file contains modified crystal structure data generated from the
# MOF subset of the Cambridge Structural Database (CSD) v543 
# hosted by the Cambridge Crystallographic Data Centre (CCDC).
#
# This work is licensed under the Creative Commons
# Attribution-NonCommercial-ShareAlike 4.0 International License.
# To view a copy of this license, visit
# http://creativecommons.org/licenses/by-nc-sa/4.0/
# or send a letter to
# Creative Commons, PO Box 1866, Mountain View, CA 94042, USA.
#
# CIF created using the CSD Python API on 29 September 2022
# The structure has been converted into the P1 space group
# The structure has a 3D framework
# The original CSD entry NEBTAS is in the orthorhombic crystal system
# The framework has been calculated to contain at least 10.0% void space
# The void calculation uses a probe of radius 1.32A, grid spacing 0.4
#
###############################################################################

data_NEBTAS
_chemical_formula_moiety         '(C96 H80 Cd8 N16 O40)n'
_symmetry_cell_setting           triclinic
_symmetry_space_group_name_H-M   'P 1'
_symmetry_Int_Tables_number      1
_space_group_name_Hall           'P 1'
loop_
_symmetry_equiv_pos_site_id
_symmetry_equiv_pos_as_xyz
1 x,y,z
_cell_length_a                   12.2494(10)
_cell_length_b                   15.4646(13)
_cell_length_c                   18.8445(17)
_cell_angle_alpha                90
_cell_angle_beta                 90
_cell_angle_gamma                90
_cell_volume                     3569.75
loop_
_atom_site_label
_atom_site_type_symbol
_atom_site_fract_x
_atom_site_fract_y
_atom_site_fract_z
Cd1 Cd 0.306907(9) 0.215820(7) 0.684118(6)
O1 O 0.34571(10) 0.06810(8) 0.69523(7)
O2 O 0.47374(10) 0.15049(7) 0.74275(7)
O3 O 0.18766(9) 0.31186(9) 0.61727(7)
O4 O 0.14978(10) 0.17176(8) 0.61742(6)
O5 O 0.19223(10) 0.20257(9) 0.78052(7)
C1 C 0.43490(13) 0.07822(11) 0.72671(9)
C7 C 0.13436(12) 0.24729(11) 0.59614(8)
C8 C 0.05014(13) 0.26152(11) 0.53874(9)
C9 C 0.06080(15) 0.33060(12) 0.49279(10)
H1 H 0.1308(15) 0.1867(15) 0.7721(12)
H2 H 0.212(2) 0.1664(15) 0.8070(11)
H6 H 0.6012 0.0509 0.8184
H7 H 0.1165 0.3715 0.4994
H8 H 0.0002 0.3814 0.4037
N3 N 0.38582(11) 0.34637(9) 0.72188(8)
N4 N 0.40890(13) 0.21977(9) 0.57602(9)
N1 N 0.61418(11) 0.84637(9) 0.77812(8)
C2 C 0.49951(13) 0.99763(11) 0.74502(8)
C3 C 0.47483(14) 0.91946(11) 0.71155(10)
C4 C 0.53417(15) 0.84640(11) 0.72949(10)
C5 C 0.63744(15) 0.92226(13) 0.80969(9)
C6 C 0.58348(14) 0.99881(11) 0.79495(10)
H3 H 0.4197 0.9167 0.6768
H4 H 0.5173 0.7945 0.7080
H5 H 0.6934 0.9210 0.8425
Cd2 Cd 0.693093(9) 0.715820(7) 0.815882(6)
N2 N 0.90890(13) 0.28023(9) 0.42398(9)
C10 C 0.98943(17) 0.33711(12) 0.43588(11)
C11 C 0.89685(16) 0.21572(11) 0.47065(12)
C12 C 0.96564(16) 0.20362(12) 0.52790(11)
H9 H 0.8380 0.1766 0.4627
H10 H 0.9548 0.1569 0.5593
Cd3 Cd 0.806907(9) 0.284180(7) 0.315882(6)
O1_2 O 0.65429(10) 0.56810(8) 0.80477(7)
O2_2 O 0.52626(10) 0.65049(7) 0.75725(7)
O3_2 O 0.81234(9) 0.81186(9) 0.88273(7)
O4_2 O 0.85022(10) 0.67176(8) 0.88258(6)
O5_2 O 0.80777(10) 0.70257(9) 0.71948(7)
C1_2 C 0.56510(13) 0.57822(11) 0.77329(9)
C2_2 C 0.50049(13) 0.49763(11) 0.75498(8)
C3_2 C 0.52517(14) 0.41946(11) 0.78845(10)
C4_2 C 0.46583(15) 0.34640(11) 0.77051(10)
C5_2 C 0.36256(15) 0.42226(13) 0.69031(9)
C6_2 C 0.41652(14) 0.49881(11) 0.70505(10)
C7_2 C 0.86564(12) 0.74729(11) 0.90386(8)
C8_2 C 0.94986(13) 0.76152(11) 0.96126(9)
H1_2 H 0.8692(15) 0.6867(15) 0.7279(12)
H2_2 H 0.788(2) 0.6664(15) 0.6930(11)
H3_2 H 0.5803 0.4167 0.8232
H4_2 H 0.4827 0.2945 0.7920
H5_2 H 0.3066 0.4210 0.6575
H6_2 H 0.3988 0.5509 0.6816
N4_2 N 0.59110(13) 0.71977(9) 0.92398(9)
C9_2 C 0.43920(15) 0.66940(12) 0.99279(10)
C10_2 C 0.51057(17) 0.66289(12) 0.93588(11)
C11_2 C 0.60315(16) 0.78428(11) 0.97065(12)
H7_2 H 0.3835 0.6285 0.9994
H8_2 H 0.4998 0.6186 0.9037
H9_2 H 0.6620 0.8234 0.9627
N1_2 N 0.88582(11) 0.15363(9) 0.27812(8)
C4_3 C 0.96583(15) 0.15360(11) 0.22949(10)
C5_3 C 0.86256(15) 0.07774(13) 0.30969(9)
C6_3 C 0.91652(14) 0.00119(11) 0.29495(10)
H4_3 H 0.9827 0.2055 0.2080
H5_3 H 0.8066 0.0790 0.3425
O1_3 O 0.84571(10) 0.43190(8) 0.30477(7)
O2_3 O 0.97374(10) 0.34951(7) 0.25725(7)
O3_3 O 0.68766(9) 0.18814(9) 0.38273(7)
O4_3 O 0.64978(10) 0.32824(8) 0.38258(6)
O5_3 O 0.69223(10) 0.29743(9) 0.21948(7)
C1_3 C 0.93490(13) 0.42178(11) 0.27329(9)
C2_3 C 0.99951(13) 0.50237(11) 0.25498(8)
C3_3 C 0.97483(14) 0.58054(11) 0.28845(10)
C7_3 C 0.63436(12) 0.25271(11) 0.40386(8)
C8_3 C 0.55014(13) 0.23848(11) 0.46126(9)
C9_3 C 0.56080(15) 0.16940(12) 0.50721(10)
C10_3 C 0.48943(17) 0.16289(12) 0.56412(11)
C11_3 C 0.39685(16) 0.28428(11) 0.52935(12)
C12_2 C 0.46564(16) 0.29638(12) 0.47210(11)
H1_3 H 0.6308(15) 0.3133(15) 0.2279(12)
H2_3 H 0.712(2) 0.3336(15) 0.1930(11)
H3_3 H 0.9197 0.5833 0.3232
H7_3 H 0.6165 0.1285 0.5006
H8_3 H 0.5002 0.1186 0.5963
H9_3 H 0.3380 0.3234 0.5373
H10_2 H 0.4548 0.3431 0.4407
N2_2 N 0.09110(13) 0.78023(9) 0.07602(9)
C10_4 C 0.01057(17) 0.83711(12) 0.06412(11)
C11_4 C 0.10315(16) 0.71572(11) 0.02935(12)
H9_4 H 0.1620 0.6766 0.0373
Cd3_2 Cd 0.193093(9) 0.784180(7) 0.184118(6)
O1_4 O 0.15429(10) 0.93190(8) 0.19523(7)
O2_4 O 0.02626(10) 0.84951(7) 0.24275(7)
O3_4 O 0.31234(9) 0.68814(9) 0.11727(7)
O4_4 O 0.35022(10) 0.82824(8) 0.11742(6)
O5_4 O 0.30777(10) 0.79743(9) 0.28052(7)
C1_4 C 0.06510(13) 0.92178(11) 0.22671(9)
C7_4 C 0.36564(12) 0.75271(11) 0.09614(8)
C8_4 C 0.44986(13) 0.73848(11) 0.03874(9)
C12_3 C 0.53436(16) 0.79638(12) 0.02790(11)
H1_4 H 0.3692(15) 0.8133(15) 0.2721(12)
H2_4 H 0.288(2) 0.8336(15) 0.3070(11)
H10_3 H 0.5452 0.8431 0.0593
N3_2 N 0.11418(11) 0.65363(9) 0.22188(8)
C4_4 C 0.03417(15) 0.65360(11) 0.27051(10)
C5_4 C 0.13744(15) 0.57774(13) 0.19031(9)
C6_4 C 0.08348(14) 0.50119(11) 0.20505(10)
H4_4 H 0.0173 0.7055 0.2920
H5_4 H 0.1934 0.5790 0.1575
H6_3 H 0.1012 0.4491 0.1816
C12_4 C 0.03436(16) 0.70362(12) 0.97210(11)
H10_4 H 0.0452 0.6569 0.9407
C9_4 C 0.93920(15) 0.83060(12) 0.00721(10)
H7_4 H 0.8835 0.8715 0.0006
H8_4 H 0.9998 0.8814 0.0963
C2_4 C 0.00049(13) 0.00237(11) 0.24502(8)
C3_4 C 0.02517(14) 0.08054(11) 0.21155(10)
H3_4 H 0.0803 0.0833 0.1768
H6_4 H 0.8988 0.9491 0.3184
N2_3 N 0.09110(13) 0.71977(9) 0.57602(9)
C10_5 C 0.01057(17) 0.66289(12) 0.56412(11)
C11_5 C 0.10315(16) 0.78428(11) 0.52935(12)
C12_5 C 0.03436(16) 0.79638(12) 0.47210(11)
H9_5 H 0.1620 0.8234 0.5373
H10_5 H 0.0452 0.8431 0.4407
Cd3_3 Cd 0.193093(9) 0.715820(7) 0.684118(6)
N1_3 N 0.38582(11) 0.15363(9) 0.22188(8)
C2_5 C 0.50049(13) 0.00237(11) 0.25498(8)
C3_5 C 0.52517(14) 0.08054(11) 0.28845(10)
C4_5 C 0.46583(15) 0.15360(11) 0.27051(10)
C5_5 C 0.36256(15) 0.07774(13) 0.19031(9)
C6_5 C 0.41652(14) 0.00119(11) 0.20505(10)
H3_5 H 0.5803 0.0833 0.3232
H4_5 H 0.4827 0.2055 0.2920
H5_5 H 0.3066 0.0790 0.1575
Cd2_2 Cd 0.306907(9) 0.284180(7) 0.184118(6)
Cd1_2 Cd 0.693093(9) 0.784180(7) 0.315882(6)
O1_5 O 0.65429(10) 0.93190(8) 0.30477(7)
O2_5 O 0.52626(10) 0.84951(7) 0.25725(7)
O3_5 O 0.81234(9) 0.68814(9) 0.38273(7)
O4_5 O 0.85022(10) 0.82824(8) 0.38258(6)
O5_5 O 0.80777(10) 0.79743(9) 0.21948(7)
C1_5 C 0.56510(13) 0.92178(11) 0.27329(9)
C7_5 C 0.86564(12) 0.75271(11) 0.40386(8)
C8_5 C 0.94986(13) 0.73848(11) 0.46126(9)
C9_5 C 0.93920(15) 0.66940(12) 0.50721(10)
H1_5 H 0.8692(15) 0.8133(15) 0.2279(12)
H2_5 H 0.788(2) 0.8336(15) 0.1930(11)
H6_5 H 0.3988 0.9491 0.1816
H7_5 H 0.8835 0.6285 0.5006
H8_5 H 0.9998 0.6186 0.5963
N3_3 N 0.61418(11) 0.65363(9) 0.27812(8)
N4_3 N 0.59110(13) 0.78023(9) 0.42398(9)
O1_6 O 0.34571(10) 0.43190(8) 0.19523(7)
O2_6 O 0.47374(10) 0.34951(7) 0.24275(7)
O3_6 O 0.18766(9) 0.18814(9) 0.11727(7)
O4_6 O 0.14978(10) 0.32824(8) 0.11742(6)
O5_6 O 0.19223(10) 0.29743(9) 0.28052(7)
C1_6 C 0.43490(13) 0.42178(11) 0.22671(9)
C2_6 C 0.49951(13) 0.50237(11) 0.24502(8)
C3_6 C 0.47483(14) 0.58054(11) 0.21155(10)
C4_6 C 0.53417(15) 0.65360(11) 0.22949(10)
C5_6 C 0.63744(15) 0.57774(13) 0.30969(9)
C6_6 C 0.58348(14) 0.50119(11) 0.29495(10)
C7_6 C 0.13436(12) 0.25271(11) 0.09614(8)
C8_6 C 0.05014(13) 0.23848(11) 0.03874(9)
H1_6 H 0.1308(15) 0.3133(15) 0.2721(12)
H2_6 H 0.212(2) 0.3336(15) 0.3070(11)
H3_6 H 0.4197 0.5833 0.1768
H4_6 H 0.5173 0.7055 0.2080
H5_6 H 0.6934 0.5790 0.3425
H6_6 H 0.6012 0.4491 0.3184
N4_4 N 0.40890(13) 0.28023(9) 0.07602(9)
N1_4 N 0.11418(11) 0.84637(9) 0.72188(8)
C4_7 C 0.03417(15) 0.84640(11) 0.77051(10)
C5_7 C 0.13744(15) 0.92226(13) 0.69031(9)
C6_7 C 0.08348(14) 0.99881(11) 0.70505(10)
H4_7 H 0.0173 0.7945 0.7920
H5_7 H 0.1934 0.9210 0.6575
C9_6 C 0.56080(15) 0.33060(12) 0.00721(10)
C10_6 C 0.48943(17) 0.33711(12) 0.06412(11)
C11_6 C 0.39685(16) 0.21572(11) 0.02935(12)
H7_6 H 0.6165 0.3715 0.0006
H8_6 H 0.5002 0.3814 0.0963
H9_6 H 0.3380 0.1766 0.0373
O1_7 O 0.15429(10) 0.56810(8) 0.69523(7)
O2_7 O 0.02626(10) 0.65049(7) 0.74275(7)
O3_7 O 0.31234(9) 0.81186(9) 0.61727(7)
O4_7 O 0.35022(10) 0.67176(8) 0.61742(6)
O5_7 O 0.30777(10) 0.70257(9) 0.78052(7)
C1_7 C 0.06510(13) 0.57822(11) 0.72671(9)
C2_7 C 0.00049(13) 0.49763(11) 0.74502(8)
C3_7 C 0.02517(14) 0.41946(11) 0.71155(10)
C7_7 C 0.36564(12) 0.74729(11) 0.59614(8)
C8_7 C 0.44986(13) 0.76152(11) 0.53874(9)
C9_7 C 0.43920(15) 0.83060(12) 0.49279(10)
C10_7 C 0.51057(17) 0.83711(12) 0.43588(11)
C11_7 C 0.60315(16) 0.71572(11) 0.47065(12)
C12_6 C 0.53436(16) 0.70362(12) 0.52790(11)
H1_7 H 0.3692(15) 0.6867(15) 0.7721(12)
H2_7 H 0.288(2) 0.6664(15) 0.8070(11)
H3_7 H 0.0803 0.4167 0.6768
H7_7 H 0.3835 0.8715 0.4994
H8_7 H 0.4998 0.8814 0.4037
H9_7 H 0.6620 0.6766 0.4627
H10_6 H 0.5452 0.6569 0.5593
C9_8 C 0.06080(15) 0.16940(12) 0.99279(10)
H7_8 H 0.1165 0.1285 0.9994
H8_8 H 0.0002 0.1186 0.9037
C12_7 C 0.96564(16) 0.29638(12) 0.02790(11)
H10_7 H 0.9548 0.3431 0.0593
N2_4 N 0.90890(13) 0.21977(9) 0.92398(9)
C10_8 C 0.98943(17) 0.16289(12) 0.93588(11)
C11_8 C 0.89685(16) 0.28428(11) 0.97065(12)
H9_8 H 0.8380 0.3234 0.9627
Cd3_4 Cd 0.806907(9) 0.215820(7) 0.815882(6)
O1_8 O 0.84571(10) 0.06810(8) 0.80477(7)
O2_8 O 0.97374(10) 0.15049(7) 0.75725(7)
O3_8 O 0.68766(9) 0.31186(9) 0.88273(7)
O4_8 O 0.64978(10) 0.17176(8) 0.88258(6)
O5_8 O 0.69223(10) 0.20257(9) 0.71948(7)
C1_8 C 0.93490(13) 0.07822(11) 0.77329(9)
C7_8 C 0.63436(12) 0.24729(11) 0.90386(8)
C8_8 C 0.55014(13) 0.26152(11) 0.96126(9)
C12_8 C 0.46564(16) 0.20362(12) 0.97210(11)
H1_8 H 0.6308(15) 0.1867(15) 0.7279(12)
H2_8 H 0.712(2) 0.1664(15) 0.6930(11)
H10_8 H 0.4548 0.1569 0.9407
N3_4 N 0.88582(11) 0.34637(9) 0.77812(8)
C4_8 C 0.96583(15) 0.34640(11) 0.72949(10)
C5_8 C 0.86256(15) 0.42226(13) 0.80969(9)
C6_8 C 0.91652(14) 0.49881(11) 0.79495(10)
H4_8 H 0.9827 0.2945 0.7080
H5_8 H 0.8066 0.4210 0.8425
H6_7 H 0.8988 0.5509 0.8184
H6_8 H 0.1012 0.0509 0.6816
C2_8 C 0.99951(13) 0.99763(11) 0.75498(8)
C3_8 C 0.97483(14) 0.91946(11) 0.78845(10)
H3_8 H 0.9197 0.9167 0.8232
loop_
_geom_bond_atom_site_label_1
_geom_bond_atom_site_label_2
_geom_bond_site_symmetry_1
_geom_bond_site_symmetry_2
Cd1 O1 1_555 1_555
O1 C1 1_555 1_555
O2 Cd1 1_555 1_555
O3 Cd1 1_555 1_555
O4 Cd1 1_555 1_555
O5 Cd1 1_555 1_555
C1 O2 1_555 1_555
C7 O3 1_555 1_555
C8 C7 1_555 1_555
C9 C8 1_555 1_555
H1 O5 1_555 1_555
H2 O5 1_555 1_555
H7 C9 1_555 1_555
N3 Cd1 1_555 1_555
N4 Cd1 1_555 1_555
O4 C7 1_555 1_555
N1 C4 1_555 1_555
C3 C2 1_555 1_555
C4 C3 1_555 1_555
C5 N1 1_555 1_555
C6 C2 1_555 1_555
H3 C3 1_555 1_555
H4 C4 1_555 1_555
H5 C5 1_555 1_555
Cd2 N1 1_555 1_555
C5 C6 1_555 1_555
N2 C10 1_555 1_555
C11 N2 1_555 1_555
H9 C11 1_555 1_555
H10 C12 1_555 1_555
Cd3 N2 1_555 1_555
C11 C12 1_555 1_555
Cd2 O1_2 1_555 1_555
O1_2 C1_2 1_555 1_555
O2_2 Cd2 1_555 1_555
O3_2 Cd2 1_555 1_555
O4_2 Cd2 1_555 1_555
O5_2 Cd2 1_555 1_555
N3 C4_2 1_555 1_555
C1_2 O2_2 1_555 1_555
C2_2 C1_2 1_555 1_555
C3_2 C2_2 1_555 1_555
C4_2 C3_2 1_555 1_555
C5_2 N3 1_555 1_555
C6_2 C2_2 1_555 1_555
C7_2 O3_2 1_555 1_555
C8_2 C7_2 1_555 1_555
H1_2 O5_2 1_555 1_555
H2_2 O5_2 1_555 1_555
H3_2 C3_2 1_555 1_555
H4_2 C4_2 1_555 1_555
H5_2 C5_2 1_555 1_555
H6_2 C6_2 1_555 1_555
N4_2 Cd2 1_555 1_555
O4_2 C7_2 1_555 1_555
C5_2 C6_2 1_555 1_555
N4_2 C10_2 1_555 1_555
C10_2 C9_2 1_555 1_555
C11_2 N4_2 1_555 1_555
H7_2 C9_2 1_555 1_555
H8_2 C10_2 1_555 1_555
H9_2 C11_2 1_555 1_555
N1_2 C4_3 1_555 1_555
C5_3 N1_2 1_555 1_555
H4_3 C4_3 1_555 1_555
H5_3 C5_3 1_555 1_555
Cd3 N1_2 1_555 1_555
C5_3 C6_3 1_555 1_555
Cd3 O1_3 1_555 1_555
O1_3 C1_3 1_555 1_555
O2_3 Cd3 1_555 1_555
O3_3 Cd3 1_555 1_555
O4_3 Cd3 1_555 1_555
O5_3 Cd3 1_555 1_555
N4 C10_3 1_555 1_555
C1_3 O2_3 1_555 1_555
C2_3 C1_3 1_555 1_555
C3_3 C2_3 1_555 1_555
C7_3 O3_3 1_555 1_555
C8_3 C7_3 1_555 1_555
C9_3 C8_3 1_555 1_555
C10_3 C9_3 1_555 1_555
C11_3 N4 1_555 1_555
C12_2 C8_3 1_555 1_555
H1_3 O5_3 1_555 1_555
H2_3 O5_3 1_555 1_555
H3_3 C3_3 1_555 1_555
H7_3 C9_3 1_555 1_555
H8_3 C10_3 1_555 1_555
H9_3 C11_3 1_555 1_555
H10_2 C12_2 1_555 1_555
O4_3 C7_3 1_555 1_555
C11_3 C12_2 1_555 1_555
N2_2 C10_4 1_555 1_555
C11_4 N2_2 1_555 1_555
H9_4 C11_4 1_555 1_555
Cd3_2 N2_2 1_555 1_555
Cd3_2 O1_4 1_555 1_555
O1_4 C1_4 1_555 1_555
O2_4 Cd3_2 1_555 1_555
O3_4 Cd3_2 1_555 1_555
O4_4 Cd3_2 1_555 1_555
O5_4 Cd3_2 1_555 1_555
C1_4 O2_4 1_555 1_555
C7_4 O3_4 1_555 1_555
C8_4 C7_4 1_555 1_555
C12_3 C8_4 1_555 1_555
H1_4 O5_4 1_555 1_555
H2_4 O5_4 1_555 1_555
H10_3 C12_3 1_555 1_555
N3_2 Cd3_2 1_555 1_555
O4_4 C7_4 1_555 1_555
N3_2 C4_4 1_555 1_555
C5_4 N3_2 1_555 1_555
H4_4 C4_4 1_555 1_555
H5_4 C5_4 1_555 1_555
H6_3 C6_4 1_555 1_555
C5_4 C6_4 1_555 1_555
H10_4 C12_4 1_555 1_555
H7_4 C9_4 1_555 1_555
C3_4 C2_4 1_555 1_555
H3_4 C3_4 1_555 1_555
N2_3 C10_5 1_555 1_555
C11_5 N2_3 1_555 1_555
H9_5 C11_5 1_555 1_555
H10_5 C12_5 1_555 1_555
Cd3_3 N2_3 1_555 1_555
C11_5 C12_5 1_555 1_555
N1_3 C4_5 1_555 1_555
C3_5 C2_5 1_555 1_555
C4_5 C3_5 1_555 1_555
C5_5 N1_3 1_555 1_555
C6_5 C2_5 1_555 1_555
H3_5 C3_5 1_555 1_555
H4_5 C4_5 1_555 1_555
H5_5 C5_5 1_555 1_555
Cd2_2 N1_3 1_555 1_555
C5_5 C6_5 1_555 1_555
Cd1_2 O1_5 1_555 1_555
O1_5 C1_5 1_555 1_555
O2_5 Cd1_2 1_555 1_555
O3_5 Cd1_2 1_555 1_555
O4_5 Cd1_2 1_555 1_555
O5_5 Cd1_2 1_555 1_555
C1_5 O2_5 1_555 1_555
C7_5 O3_5 1_555 1_555
C8_5 C7_5 1_555 1_555
C9_5 C8_5 1_555 1_555
H1_5 O5_5 1_555 1_555
H2_5 O5_5 1_555 1_555
H7_5 C9_5 1_555 1_555
N3_3 Cd1_2 1_555 1_555
N4_3 Cd1_2 1_555 1_555
O4_5 C7_5 1_555 1_555
Cd2_2 O1_6 1_555 1_555
O1_6 C1_6 1_555 1_555
O2_6 Cd2_2 1_555 1_555
O3_6 Cd2_2 1_555 1_555
O4_6 Cd2_2 1_555 1_555
O5_6 Cd2_2 1_555 1_555
N3_3 C4_6 1_555 1_555
C1_6 O2_6 1_555 1_555
C2_6 C1_6 1_555 1_555
C3_6 C2_6 1_555 1_555
C4_6 C3_6 1_555 1_555
C5_6 N3_3 1_555 1_555
C6_6 C2_6 1_555 1_555
C7_6 O3_6 1_555 1_555
C8_6 C7_6 1_555 1_555
H1_6 O5_6 1_555 1_555
H2_6 O5_6 1_555 1_555
H3_6 C3_6 1_555 1_555
H4_6 C4_6 1_555 1_555
H5_6 C5_6 1_555 1_555
H6_6 C6_6 1_555 1_555
N4_4 Cd2_2 1_555 1_555
O4_6 C7_6 1_555 1_555
C5_6 C6_6 1_555 1_555
N1_4 C4_7 1_555 1_555
C5_7 N1_4 1_555 1_555
H4_7 C4_7 1_555 1_555
H5_7 C5_7 1_555 1_555
Cd3_3 N1_4 1_555 1_555
C5_7 C6_7 1_555 1_555
N4_4 C10_6 1_555 1_555
C10_6 C9_6 1_555 1_555
C11_6 N4_4 1_555 1_555
H7_6 C9_6 1_555 1_555
H8_6 C10_6 1_555 1_555
H9_6 C11_6 1_555 1_555
Cd3_3 O1_7 1_555 1_555
O1_7 C1_7 1_555 1_555
O2_7 Cd3_3 1_555 1_555
O3_7 Cd3_3 1_555 1_555
O4_7 Cd3_3 1_555 1_555
O5_7 Cd3_3 1_555 1_555
N4_3 C10_7 1_555 1_555
C1_7 O2_7 1_555 1_555
C2_7 C1_7 1_555 1_555
C3_7 C2_7 1_555 1_555
C7_7 O3_7 1_555 1_555
C8_7 C7_7 1_555 1_555
C9_7 C8_7 1_555 1_555
C10_7 C9_7 1_555 1_555
C11_7 N4_3 1_555 1_555
C12_6 C8_7 1_555 1_555
H1_7 O5_7 1_555 1_555
H2_7 O5_7 1_555 1_555
H3_7 C3_7 1_555 1_555
H7_7 C9_7 1_555 1_555
H8_7 C10_7 1_555 1_555
H9_7 C11_7 1_555 1_555
H10_6 C12_6 1_555 1_555
O4_7 C7_7 1_555 1_555
C11_7 C12_6 1_555 1_555
H7_8 C9_8 1_555 1_555
H10_7 C12_7 1_555 1_555
N2_4 C10_8 1_555 1_555
C11_8 N2_4 1_555 1_555
H9_8 C11_8 1_555 1_555
Cd3_4 N2_4 1_555 1_555
Cd3_4 O1_8 1_555 1_555
O1_8 C1_8 1_555 1_555
O2_8 Cd3_4 1_555 1_555
O3_8 Cd3_4 1_555 1_555
O4_8 Cd3_4 1_555 1_555
O5_8 Cd3_4 1_555 1_555
C1_8 O2_8 1_555 1_555
C7_8 O3_8 1_555 1_555
C8_8 C7_8 1_555 1_555
C12_8 C8_8 1_555 1_555
H1_8 O5_8 1_555 1_555
H2_8 O5_8 1_555 1_555
H10_8 C12_8 1_555 1_555
N3_4 Cd3_4 1_555 1_555
O4_8 C7_8 1_555 1_555
N3_4 C4_8 1_555 1_555
C5_8 N3_4 1_555 1_555
H4_8 C4_8 1_555 1_555
H5_8 C5_8 1_555 1_555
H6_7 C6_8 1_555 1_555
C5_8 C6_8 1_555 1_555
C3_8 C2_8 1_555 1_555
H3_8 C3_8 1_555 1_555

#END
