
###############################################################################
#
# This file contains modified crystal structure data generated from the
# MOF subset of the Cambridge Structural Database (CSD) v543 
# hosted by the Cambridge Crystallographic Data Centre (CCDC).
#
# This work is licensed under the Creative Commons
# Attribution-NonCommercial-ShareAlike 4.0 International License.
# To view a copy of this license, visit
# http://creativecommons.org/licenses/by-nc-sa/4.0/
# or send a letter to
# Creative Commons, PO Box 1866, Mountain View, CA 94042, USA.
#
# CIF created using the CSD Python API on 29 September 2022
# The structure has been converted into the P1 space group
# The structure has a 3D framework
# The original CSD entry NEDKAL is in the monoclinic crystal system
# The framework has been calculated to contain at least 10.0% void space
# The void calculation uses a probe of radius 1.32A, grid spacing 0.4
#
###############################################################################

data_NEDKAL
_chemical_formula_moiety         '(C84 H76 Cu12 I8 N16 O24 Tb4)n'
_symmetry_cell_setting           triclinic
_symmetry_space_group_name_H-M   'P 1'
_symmetry_Int_Tables_number      1
_space_group_name_Hall           'P 1'
loop_
_symmetry_equiv_pos_site_id
_symmetry_equiv_pos_as_xyz
1 x,y,z
_cell_length_a                   15.3681(11)
_cell_length_b                   8.1281(6)
_cell_length_c                   28.608(2)
_cell_angle_alpha                90
_cell_angle_beta                 101.7850(10)
_cell_angle_gamma                90
_cell_volume                     3498.2
loop_
_atom_site_label
_atom_site_type_symbol
_atom_site_fract_x
_atom_site_fract_y
_atom_site_fract_z
I4 I 0.00949(3) 0.75585(5) 0.32989(2)
Cu10 Cu 0.00497(5) 0.43335(10) 0.33088(3)
O6 O 0.0610(4) 0.1245(6) 0.08936(19)
C12 C 0.0021(5) 0.0169(10) 0.0808(2)
H7 H 0.3066 0.0297 0.1313
Tb3 Tb 0.04945(2) 0.25134(4) 0.01245(2)
Cu6 Cu 0.64511(5) 0.11018(9) 0.17402(3)
Cu9 Cu 0.57660(5) 0.08215(10) 0.24929(3)
I5 I 0.75383(2) 0.04215(4) 0.25885(2)
I8 I 0.49051(3) 0.25585(5) 0.17011(2)
O10 O 0.0416(4) 0.0121(7) 0.96083(17)
Cu1 Cu 0.64303(5) 0.80276(9) 0.21383(3)
Cu2 Cu 0.85489(5) 0.61018(9) 0.32598(3)
Cu3 Cu 0.92340(5) 0.58215(10) 0.25071(3)
Cu4 Cu 0.49503(5) 0.93335(10) 0.16912(3)
I1 I 0.74617(2) 0.54215(4) 0.24115(2)
I2 I 0.61753(3) 0.82395(5) 0.11999(2)
I3 I 0.50573(3) 0.78385(5) 0.25471(2)
O2 O 0.1332(3) 0.4541(6) 0.05791(17)
O3 O 0.0688(3) 0.7046(7) 0.05079(16)
N3 N 0.3798(4) 0.8311(7) 0.1350(2)
C5 C 0.1326(4) 0.6061(9) 0.0648(2)
C6 C 0.2191(4) 0.6839(8) 0.0914(2)
C13 C 0.3045(5) 0.9180(9) 0.1242(3)
C14 C 0.2957(5) 0.5929(10) 0.1042(3)
H8 H 0.2951 0.4801 0.0986
C15 C 0.2243(4) 0.8505(9) 0.1031(3)
H9 H 0.1735 0.9157 0.0966
C16 C 0.0442(5) 0.8986(10) 0.1633(3)
H10 H 0.0994 0.9492 0.1667
C17 C 0.0242(5) 0.8031(10) 0.1994(3)
H11 H 0.0681 0.7878 0.2267
C18 C 0.3738(5) 0.6714(9) 0.1255(3)
H12 H 0.4251 0.6082 0.1336
Cu5 Cu 0.85697(5) 0.30276(9) 0.28617(3)
I6 I 0.88247(3) 0.32395(5) 0.38001(2)
I7 I 0.99427(3) 0.28385(5) 0.24529(2)
N5 N 0.7799(3) 0.7460(6) 0.36213(18)
N6 N 0.9447(4) 0.7304(7) 0.19747(19)
O1 O 0.0541(3) 0.6093(6) 0.95668(16)
N1 N 0.2799(3) 0.7540(6) 0.86213(18)
O4 O 0.1321(3) 0.3766(6) 0.96177(17)
C1 C 0.1384(4) 0.7168(8) 0.8831(2)
H1 H 0.0787 0.7459 0.8786
C3 C 0.1155(4) 0.5205(8) 0.9469(2)
C7 C 0.2613(4) 0.5511(8) 0.9198(2)
H3 H 0.2859 0.4670 0.9404
C8 C 0.1734(4) 0.5968(7) 0.9161(2)
C10 C 0.3121(4) 0.6328(8) 0.8924(2)
H5 H 0.3712 0.6020 0.8951
C11 C 0.1937(4) 0.7922(8) 0.8574(2)
H6 H 0.1700 0.8737 0.8356
Cu7 Cu 0.35489(5) 0.88982(9) 0.82598(3)
O5 O 0.9584(4) 0.9879(7) 0.03917(17)
C2 C 0.9802(5) 0.9178(8) 0.1218(2)
C4 C 0.8977(5) 0.8465(9) 0.1200(2)
H2 H 0.8527 0.8598 0.0931
C9 C 0.8828(4) 0.7552(8) 0.1585(2)
H4 H 0.8268 0.7092 0.1569
H15 H 0.5623 0.8319 0.0001
O9 O 0.8679(3) 0.6234(6) 0.03823(17)
Tb1 Tb 0.95055(2) 0.74866(4) 0.98755(2)
O7 O 0.8112(3) 0.8740(7) 0.9734(2)
N4 N 0.6729(6) 0.9287(15) 0.9836(3)
C19 C 0.7370(9) 0.8272(17) 0.9712(4)
H13 H 0.7220 0.7174 0.9600
C20 C 0.5863(12) 0.843(3) 0.9718(6)
H14 H 0.5945 0.7353 0.9593
H16 H 0.5459 0.9047 0.9483
O8 O 0.8668(3) 0.5459(6) 0.94209(17)
O11 O 0.9390(4) 0.8755(6) 0.91064(19)
Tb1_2 Tb 0.54945(2) 0.24866(4) 0.51245(2)
O1_2 O 0.4459(3) 0.1093(6) 0.54332(16)
O3_2 O 0.4312(3) 0.2046(7) 0.44921(16)
N1_2 N 0.2201(3) 0.2540(6) 0.63787(18)
O5_2 O 0.5416(4) 0.4879(7) 0.46083(17)
N2 N 0.5553(4) 0.2304(7) 0.30253(19)
N3_2 N 0.1202(4) 0.3311(7) 0.3650(2)
O6_2 O 0.4390(4) 0.6245(6) 0.41064(19)
C1_2 C 0.3616(4) 0.2168(8) 0.6169(2)
H1_2 H 0.4213 0.2459 0.6214
C2_2 C 0.5198(5) 0.4178(8) 0.3782(2)
O7_2 O 0.6888(3) 0.3740(7) 0.5266(2)
C3_2 C 0.3845(4) 0.0205(8) 0.5531(2)
C4_2 C 0.6023(5) 0.3465(9) 0.3800(2)
H2_2 H 0.6473 0.3598 0.4069
C5_2 C 0.3674(4) 0.1061(9) 0.4352(2)
C6_2 C 0.2809(4) 0.1839(8) 0.4086(2)
C7_2 C 0.2387(4) 0.0511(8) 0.5802(2)
C8_2 C 0.3266(4) 0.0968(7) 0.5839(2)
C9_2 C 0.6172(4) 0.2552(8) 0.3415(2)
H4_2 H 0.6732 0.2092 0.3431
C10_2 C 0.1879(4) 0.1328(8) 0.6076(2)
H5_2 H 0.1288 0.1020 0.6049
C11_2 C 0.3063(4) 0.2922(8) 0.6426(2)
H6_2 H 0.3300 0.3737 0.6644
C12_2 C 0.4979(5) 0.5169(10) 0.4192(2)
C13_2 C 0.1955(5) 0.4180(9) 0.3758(3)
H7_2 H 0.1934 0.5297 0.3687
C14_2 C 0.2043(5) 0.0929(10) 0.3958(3)
C15_2 C 0.2757(4) 0.3505(9) 0.3969(3)
H9_2 H 0.3265 0.4157 0.4034
C16_2 C 0.4558(5) 0.3986(10) 0.3367(3)
H10_2 H 0.4006 0.4492 0.3333
C17_2 C 0.4758(5) 0.3031(10) 0.3006(3)
H11_2 H 0.4319 0.2878 0.2733
C18_2 C 0.1262(5) 0.1714(9) 0.3745(3)
H12_2 H 0.0749 0.1082 0.3664
N4_2 N 0.8271(6) 0.4287(15) 0.5164(3)
C19_2 C 0.7630(9) 0.3272(17) 0.5288(4)
H13_2 H 0.7780 0.2174 0.5400
C20_2 C 0.9137(12) 0.343(3) 0.5282(6)
H14_2 H 0.9055 0.2353 0.5407
H15_2 H 0.9377 0.3319 0.4999
H16_2 H 0.9541 0.4047 0.5517
C21 C 0.8269(13) 0.5848(19) 0.4980(5)
H17 H 0.8858 0.6128 0.4943
H18 H 0.7869 0.5893 0.4675
H19 H 0.8079 0.6616 0.5194
Tb3_2 Tb 0.45055(2) 0.75134(4) 0.48755(2)
Cu7_2 Cu 0.14511(5) 0.38982(9) 0.67402(3)
O8_2 O 0.6332(3) 0.0459(6) 0.55791(17)
O9_2 O 0.6321(3) 0.1234(6) 0.46177(17)
O10_2 O 0.4584(4) 0.5121(7) 0.53917(17)
O11_2 O 0.5610(4) 0.3755(6) 0.58936(19)
O2_2 O 0.3668(3) 0.9541(6) 0.44209(17)
O4_2 O 0.3679(3) 0.8766(6) 0.53823(17)
H3_2 H 0.2141 0.9670 0.5596
H8_2 H 0.2049 0.9801 0.4014
N5_2 N 0.7201(3) 0.2460(6) 0.13787(18)
O7_3 O 0.1888(3) 0.1260(7) 0.0266(2)
N4_3 N 0.3271(6) 0.0713(15) 0.0164(3)
C19_3 C 0.2630(9) 0.1728(17) 0.0288(4)
H13_3 H 0.2780 0.2826 0.0400
C20_3 C 0.4137(12) 0.157(3) 0.0282(6)
H14_3 H 0.4055 0.2647 0.0407
H16_3 H 0.4541 0.0953 0.0517
N2_2 N 0.0553(4) 0.2696(7) 0.80253(19)
C2_3 C 0.0198(5) 0.0822(8) 0.8782(2)
C4_3 C 0.1023(5) 0.1535(9) 0.8800(2)
H2_3 H 0.1473 0.1402 0.9069
C9_3 C 0.1172(4) 0.2448(8) 0.8415(2)
H4_3 H 0.1732 0.2908 0.8431
H15_3 H 0.4377 0.1681 0.9999
Cu8 Cu 0.07660(5) 0.41785(10) 0.74929(3)
O1_3 O 0.9459(3) 0.3907(6) 0.04332(16)
C1_3 C 0.8616(4) 0.2832(8) 0.1169(2)
H1_3 H 0.9213 0.2541 0.1214
C3_3 C 0.8845(4) 0.4795(8) 0.0531(2)
C7_3 C 0.7387(4) 0.4489(8) 0.0802(2)
H3_3 H 0.7141 0.5330 0.0596
C8_3 C 0.8266(4) 0.4032(7) 0.0839(2)
C10_3 C 0.6879(4) 0.3672(8) 0.1076(2)
H5_3 H 0.6288 0.3980 0.1049
C11_3 C 0.8063(4) 0.2078(8) 0.1426(2)
H6_3 H 0.8300 0.1263 0.1644
Cu1_2 Cu 0.35697(5) 0.19724(9) 0.78617(3)
Cu4_2 Cu 0.50497(5) 0.06665(10) 0.83088(3)
I1_2 I 0.25383(2) 0.45785(4) 0.75885(2)
I2_2 I 0.38247(3) 0.17605(5) 0.88001(2)
I3_2 I 0.49427(3) 0.21615(5) 0.74529(2)
O3_3 O 0.9312(3) 0.2954(7) 0.94921(16)
N3_3 N 0.6202(4) 0.1689(7) 0.8650(2)
C5_3 C 0.8674(4) 0.3939(9) 0.9352(2)
C6_3 C 0.7809(4) 0.3161(8) 0.9086(2)
C13_3 C 0.6955(5) 0.0820(9) 0.8758(3)
C14_3 C 0.7043(5) 0.4071(10) 0.8958(3)
H8_3 H 0.7049 0.5199 0.9014
C15_3 C 0.7757(4) 0.1495(9) 0.8969(3)
H9_3 H 0.8265 0.0843 0.9034
C16_3 C 0.9558(5) 0.1014(10) 0.8367(3)
H10_3 H 0.9006 0.0508 0.8333
C17_3 C 0.9758(5) 0.1969(10) 0.8006(3)
H11_3 H 0.9319 0.2122 0.7733
C18_3 C 0.6262(5) 0.3286(9) 0.8745(3)
H12_3 H 0.5749 0.3918 0.8664
Cu5_2 Cu 0.14303(5) 0.69724(9) 0.71383(3)
I6_2 I 0.11753(3) 0.67605(5) 0.61999(2)
I7_2 I 0.00573(3) 0.71615(5) 0.75471(2)
C12_3 C 0.9979(5) 0.9831(10) 0.9192(2)
H7_3 H 0.6934 0.9703 0.8687
Cu9_2 Cu 0.42340(5) 0.91785(10) 0.75071(3)
I5_2 I 0.24617(2) 0.95785(4) 0.74115(2)
I8_2 I 0.50949(3) 0.74415(5) 0.82989(2)
I4_2 I 0.99051(3) 0.24415(5) 0.67011(2)
Cu10_2 Cu 0.99503(5) 0.56665(10) 0.66912(3)
N6_2 N 0.4447(4) 0.7696(7) 0.69747(19)
H3_4 H 0.7859 0.0330 0.4404
H8_4 H 0.7951 0.0199 0.5986
O1_4 O 0.5541(3) 0.8907(6) 0.45668(16)
O3_4 O 0.5688(3) 0.7954(7) 0.55079(16)
N3_4 N 0.8798(4) 0.6689(7) 0.6350(2)
C1_4 C 0.6384(4) 0.7832(8) 0.3831(2)
H1_4 H 0.5787 0.7541 0.3786
C2_4 C 0.4802(5) 0.5822(8) 0.6218(2)
O7_4 O 0.3112(3) 0.6260(7) 0.4734(2)
C3_4 C 0.6155(4) 0.9795(8) 0.4469(2)
C4_4 C 0.3977(5) 0.6535(9) 0.6200(2)
H2_4 H 0.3527 0.6402 0.5931
C5_4 C 0.6326(4) 0.8939(9) 0.5648(2)
C6_4 C 0.7191(4) 0.8161(8) 0.5914(2)
C7_4 C 0.7613(4) 0.9489(8) 0.4198(2)
C8_4 C 0.6734(4) 0.9032(7) 0.4161(2)
C9_4 C 0.3828(4) 0.7448(8) 0.6585(2)
H4_4 H 0.3268 0.7908 0.6569
C10_4 C 0.8121(4) 0.8672(8) 0.3924(2)
H5_4 H 0.8712 0.8980 0.3951
C11_4 C 0.6937(4) 0.7078(8) 0.3574(2)
H6_4 H 0.6700 0.6263 0.3356
C12_4 C 0.5021(5) 0.4831(10) 0.5808(2)
C13_4 C 0.8045(5) 0.5820(9) 0.6242(3)
H7_4 H 0.8066 0.4703 0.6313
C14_4 C 0.7957(5) 0.9071(10) 0.6042(3)
C15_4 C 0.7243(4) 0.6495(9) 0.6031(3)
H9_4 H 0.6735 0.5843 0.5966
C16_4 C 0.5442(5) 0.6014(10) 0.6633(3)
H10_4 H 0.5994 0.5508 0.6667
C17_4 C 0.5242(5) 0.6969(10) 0.6994(3)
H11_4 H 0.5681 0.7122 0.7267
C18_4 C 0.8738(5) 0.8286(9) 0.6255(3)
H12_4 H 0.9251 0.8918 0.6336
N4_4 N 0.1729(6) 0.5713(15) 0.4836(3)
C19_4 C 0.2370(9) 0.6728(17) 0.4712(4)
H13_4 H 0.2220 0.7826 0.4600
C20_4 C 0.0863(12) 0.657(3) 0.4718(6)
H14_4 H 0.0945 0.7647 0.4593
H15_4 H 0.0623 0.6681 0.5001
H16_4 H 0.0459 0.5953 0.4483
C21_2 C 0.1731(13) 0.4152(19) 0.5020(5)
H17_2 H 0.1142 0.3872 0.5057
H18_2 H 0.2131 0.4107 0.5325
H19_2 H 0.1921 0.3384 0.4806
C21_3 C 0.6731(13) 0.0848(19) 0.0020(5)
H17_3 H 0.6142 0.1128 0.0057
H18_3 H 0.7131 0.0893 0.0325
H19_3 H 0.6921 0.1616 0.9806
H19_4 H 0.3079 0.8384 0.0194
C21_4 C 0.3269(13) 0.9152(19) 0.9980(5)
H17_4 H 0.3858 0.8872 0.9943
H18_4 H 0.2869 0.9107 0.9675
loop_
_geom_bond_atom_site_label_1
_geom_bond_atom_site_label_2
_geom_bond_site_symmetry_1
_geom_bond_site_symmetry_2
Cu10 I4 1_555 1_555
O6 C12 1_555 1_555
O6 Tb3 1_555 1_555
Cu6 I5 1_555 1_555
Cu6 I8 1_555 1_555
Cu9 I5 1_555 1_555
Cu9 I8 1_555 1_555
Cu1 I1 1_555 1_555
Cu2 I1 1_555 1_555
Cu3 I1 1_555 1_555
Cu4 I2 1_555 1_555
I1 Cu5 1_555 1_555
I2 Cu1 1_555 1_555
I3 Cu1 1_555 1_555
O2 C5 1_555 1_555
N3 Cu4 1_555 1_555
C5 O3 1_555 1_555
C6 C5 1_555 1_555
C13 N3 1_555 1_555
C14 C6 1_555 1_555
H8 C14 1_555 1_555
C15 C6 1_555 1_555
H9 C15 1_555 1_555
H10 C16 1_555 1_555
H11 C17 1_555 1_555
C18 N3 1_555 1_555
H12 C18 1_555 1_555
Tb3 O2 1_555 1_555
Cu5 I6 1_555 1_555
I6 Cu2 1_555 1_555
I7 Cu3 1_555 1_555
N5 Cu2 1_555 1_555
N6 Cu3 1_555 1_555
Cu4 I3 1_555 1_555
C13 C15 1_555 1_555
C14 C18 1_555 1_555
C16 C17 1_555 1_555
Cu5 I7 1_555 1_555
O1 C3 1_555 1_555
N1 C10 1_555 1_555
O4 C3 1_555 1_555
C1 H1 1_555 1_555
C3 C8 1_555 1_555
C7 H3 1_555 1_555
C8 C1 1_555 1_555
C10 C7 1_555 1_555
H5 C10 1_555 1_555
C11 N1 1_555 1_555
H6 C11 1_555 1_555
Cu7 N1 1_555 1_555
C1 C11 1_555 1_555
C7 C8 1_555 1_555
N6 C9 1_555 1_555
C2 C4 1_555 1_555
C4 H2 1_555 1_555
C9 C4 1_555 1_555
H4 C9 1_555 1_555
O7 Tb1 1_555 1_555
N4 C19 1_555 1_555
C19 O7 1_555 1_555
H13 C19 1_555 1_555
C20 N4 1_555 1_555
H14 C20 1_555 1_555
H16 C20 1_555 1_555
O8 Tb1 1_555 1_555
O11 Tb1 1_555 1_555
Tb1_2 O1_2 1_555 1_555
O1_2 C3_2 1_555 1_555
O3_2 Tb1_2 1_555 1_555
N1_2 C10_2 1_555 1_555
O5_2 Tb1_2 1_555 1_555
N2 C9_2 1_555 1_555
N3_2 Cu10 1_555 1_555
O6_2 C12_2 1_555 1_555
C1_2 H1_2 1_555 1_555
C2_2 C4_2 1_555 1_555
O7_2 Tb1_2 1_555 1_555
C3_2 C8_2 1_555 1_555
C4_2 H2_2 1_555 1_555
C5_2 O3_2 1_555 1_555
C6_2 C5_2 1_555 1_555
C8_2 C1_2 1_555 1_555
C9_2 C4_2 1_555 1_555
H4_2 C9_2 1_555 1_555
C10_2 C7_2 1_555 1_555
H5_2 C10_2 1_555 1_555
C11_2 N1_2 1_555 1_555
H6_2 C11_2 1_555 1_555
C12_2 O5_2 1_555 1_555
C13_2 N3_2 1_555 1_555
H7_2 C13_2 1_555 1_555
C14_2 C6_2 1_555 1_555
C15_2 C6_2 1_555 1_555
H9_2 C15_2 1_555 1_555
C16_2 C2_2 1_555 1_555
H10_2 C16_2 1_555 1_555
C17_2 N2 1_555 1_555
H11_2 C17_2 1_555 1_555
C18_2 N3_2 1_555 1_555
H12_2 C18_2 1_555 1_555
N4_2 C19_2 1_555 1_555
C19_2 O7_2 1_555 1_555
H13_2 C19_2 1_555 1_555
C20_2 N4_2 1_555 1_555
H14_2 C20_2 1_555 1_555
H15_2 C20_2 1_555 1_555
H16_2 C20_2 1_555 1_555
C21 N4_2 1_555 1_555
H17 C21 1_555 1_555
H18 C21 1_555 1_555
H19 C21 1_555 1_555
Tb3_2 O5_2 1_555 1_555
Cu7_2 N1_2 1_555 1_555
Cu9 N2 1_555 1_555
O8_2 Tb1_2 1_555 1_555
O9_2 Tb1_2 1_555 1_555
O10_2 Tb1_2 1_555 1_555
O11_2 Tb1_2 1_555 1_555
O6_2 Tb3_2 1_555 1_555
C1_2 C11_2 1_555 1_555
C2_2 C12_2 1_555 1_555
C7_2 C8_2 1_555 1_555
C13_2 C15_2 1_555 1_555
C14_2 C18_2 1_555 1_555
C16_2 C17_2 1_555 1_555
Tb3_2 O10_2 1_555 1_555
Tb3_2 O2_2 1_555 1_555
O4_2 Tb3_2 1_555 1_555
Cu5 I5 1_555 1_555
N5_2 Cu6 1_555 1_555
O7_3 Tb3 1_555 1_555
N4_3 C19_3 1_555 1_555
C19_3 O7_3 1_555 1_555
H13_3 C19_3 1_555 1_555
C20_3 N4_3 1_555 1_555
H14_3 C20_3 1_555 1_555
H16_3 C20_3 1_555 1_555
N2_2 C9_3 1_555 1_555
C2_3 C4_3 1_555 1_555
C4_3 H2_3 1_555 1_555
C9_3 C4_3 1_555 1_555
H4_3 C9_3 1_555 1_555
Cu8 N2_2 1_555 1_555
O1_3 C3_3 1_555 1_555
N5_2 C10_3 1_555 1_555
O9 C3_3 1_555 1_555
C1_3 H1_3 1_555 1_555
C3_3 C8_3 1_555 1_555
C7_3 H3_3 1_555 1_555
C8_3 C1_3 1_555 1_555
C10_3 C7_3 1_555 1_555
H5_3 C10_3 1_555 1_555
C11_3 N5_2 1_555 1_555
H6_3 C11_3 1_555 1_555
C1_3 C11_3 1_555 1_555
C7_3 C8_3 1_555 1_555
Cu1_2 I1_2 1_555 1_555
Cu7_2 I1_2 1_555 1_555
Cu8 I1_2 1_555 1_555
Cu4_2 I2_2 1_555 1_555
I1_2 Cu5_2 1_555 1_555
I2_2 Cu1_2 1_555 1_555
I3_2 Cu1_2 1_555 1_555
O8 C5_3 1_555 1_555
N3_3 Cu4_2 1_555 1_555
C5_3 O3_3 1_555 1_555
C6_3 C5_3 1_555 1_555
C13_3 N3_3 1_555 1_555
C14_3 C6_3 1_555 1_555
H8_3 C14_3 1_555 1_555
C15_3 C6_3 1_555 1_555
H9_3 C15_3 1_555 1_555
H10_3 C16_3 1_555 1_555
H11_3 C17_3 1_555 1_555
C18_3 N3_3 1_555 1_555
H12_3 C18_3 1_555 1_555
Cu5_2 I6_2 1_555 1_555
I6_2 Cu7_2 1_555 1_555
I7_2 Cu8 1_555 1_555
Cu4_2 I3_2 1_555 1_555
C13_3 C15_3 1_555 1_555
C14_3 C18_3 1_555 1_555
C16_3 C17_3 1_555 1_555
Cu5_2 I7_2 1_555 1_555
O11 C12_3 1_555 1_555
Cu7 I5_2 1_555 1_555
Cu7 I8_2 1_555 1_555
Cu9_2 I5_2 1_555 1_555
Cu9_2 I8_2 1_555 1_555
Cu10_2 I4_2 1_555 1_555
Cu5_2 I5_2 1_555 1_555
N6_2 Cu9_2 1_555 1_555
Tb3_2 O1_4 1_555 1_555
O1_4 C3_4 1_555 1_555
O3_4 Tb3_2 1_555 1_555
N5 C10_4 1_555 1_555
N6_2 C9_4 1_555 1_555
N3_4 Cu10_2 1_555 1_555
O11_2 C12_4 1_555 1_555
C1_4 H1_4 1_555 1_555
C2_4 C4_4 1_555 1_555
O7_4 Tb3_2 1_555 1_555
C3_4 C8_4 1_555 1_555
C4_4 H2_4 1_555 1_555
C5_4 O3_4 1_555 1_555
C6_4 C5_4 1_555 1_555
C8_4 C1_4 1_555 1_555
C9_4 C4_4 1_555 1_555
H4_4 C9_4 1_555 1_555
C10_4 C7_4 1_555 1_555
H5_4 C10_4 1_555 1_555
C11_4 N5 1_555 1_555
H6_4 C11_4 1_555 1_555
C12_4 O10_2 1_555 1_555
C13_4 N3_4 1_555 1_555
H7_4 C13_4 1_555 1_555
C14_4 C6_4 1_555 1_555
C15_4 C6_4 1_555 1_555
H9_4 C15_4 1_555 1_555
C16_4 C2_4 1_555 1_555
H10_4 C16_4 1_555 1_555
C17_4 N6_2 1_555 1_555
H11_4 C17_4 1_555 1_555
C18_4 N3_4 1_555 1_555
H12_4 C18_4 1_555 1_555
N4_4 C19_4 1_555 1_555
C19_4 O7_4 1_555 1_555
H13_4 C19_4 1_555 1_555
C20_4 N4_4 1_555 1_555
H14_4 C20_4 1_555 1_555
H15_4 C20_4 1_555 1_555
H16_4 C20_4 1_555 1_555
C21_2 N4_4 1_555 1_555
H17_2 C21_2 1_555 1_555
H18_2 C21_2 1_555 1_555
H19_2 C21_2 1_555 1_555
C1_4 C11_4 1_555 1_555
C2_4 C12_4 1_555 1_555
C7_4 C8_4 1_555 1_555
C13_4 C15_4 1_555 1_555
C14_4 C18_4 1_555 1_555
C16_4 C17_4 1_555 1_555
H17_3 C21_3 1_555 1_555
H18_3 C21_3 1_555 1_555
H17_4 C21_4 1_555 1_555
H18_4 C21_4 1_555 1_555

#END
