
###############################################################################
#
# This file contains modified crystal structure data generated from the
# MOF subset of the Cambridge Structural Database (CSD) v543 
# hosted by the Cambridge Crystallographic Data Centre (CCDC).
#
# This work is licensed under the Creative Commons
# Attribution-NonCommercial-ShareAlike 4.0 International License.
# To view a copy of this license, visit
# http://creativecommons.org/licenses/by-nc-sa/4.0/
# or send a letter to
# Creative Commons, PO Box 1866, Mountain View, CA 94042, USA.
#
# CIF created using the CSD Python API on 29 September 2022
# The structure has been converted into the P1 space group
# The structure has a 3D framework
# The original CSD entry NEDTIC is in the triclinic crystal system
# The framework has been calculated to contain at least 10.0% void space
# The void calculation uses a probe of radius 1.32A, grid spacing 0.4
# H atom positions have been added when not included in the experimental data
#
###############################################################################

data_NEDTIC
_chemical_formula_moiety         '(C48 H48 Cd2 N7 O10 S2)n'
_symmetry_cell_setting           triclinic
_symmetry_space_group_name_H-M   'P 1'
_symmetry_Int_Tables_number      1
_space_group_name_Hall           'P 1'
loop_
_symmetry_equiv_pos_site_id
_symmetry_equiv_pos_as_xyz
1 x,y,z
_cell_length_a                   10.1132(7)
_cell_length_b                   11.5388(8)
_cell_length_c                   12.6022(8)
_cell_angle_alpha                70.930(1)
_cell_angle_beta                 85.489(1)
_cell_angle_gamma                81.688(1)
_cell_volume                     1374.52
loop_
_atom_site_label
_atom_site_type_symbol
_atom_site_fract_x
_atom_site_fract_y
_atom_site_fract_z
_atom_site_U_iso_or_equiv
_atom_site_thermal_displace_type
O7 O 0.1339(2) 0.6326(2) 0.0700(2) 0.0457 Uani
C8 C 0.0237(3) 0.6946(3) 0.0311(3) 0.0369 Uani
Cd1 Cd 0.74128(2) 0.206714(19) 0.026376(18) 0.0341 Uani
S1 S 0.80169(8) 0.29747(7) 0.25723(7) 0.0375 Uani
O1 O 0.7281(2) 0.2292(2) 0.2069(2) 0.0409 Uani
N1 N 0.7546(3) 0.0027(3) 0.1345(2) 0.0376 Uani
O2 O 0.7323(3) 0.3135(2) 0.3583(2) 0.0492 Uani
H2 H 0.9238 0.0108 0.1984 0.0490 Uiso
O3 O 0.9409(2) 0.2472(2) 0.2738(2) 0.0478 Uani
O5 O 0.4291(2) 0.6418(2) 0.0448(2) 0.0438 Uani
C9 C 0.9019(3) 0.6290(3) 0.0593(3) 0.0357 Uani
C10 C 0.9111(3) 0.5066(3) 0.1302(3) 0.0352 Uani
H8 H 0.9951 0.4637 0.1581 0.0420 Uiso
C11 C 0.6735(3) 0.5087(3) 0.1186(3) 0.0359 Uani
H9 H 0.5960 0.4675 0.1388 0.0430 Uiso
C12 C 0.7785(3) 0.6897(3) 0.0177(3) 0.0349 Uani
C13 C 0.6644(3) 0.6307(3) 0.0471(3) 0.0341 Uani
C14 C 0.5289(3) 0.6984(3) 0.0094(3) 0.0362 Uani
C15 C 0.7967(3) 0.4483(3) 0.1596(3) 0.0337 Uani
O16 O 0.4808(2) 0.1916(2) 0.0543(2) 0.0439 Uani
O20 O 0.9853(2) 0.1952(2) 0.0284(2) 0.0445 Uani
H5 H 0.625(4) 0.935(2) 0.610(2) 0.0460 Uiso
H13 H 0.8335 0.9785 0.9242 0.0490 Uiso
C20 C 0.6246(4) 0.9702(3) 0.4465(3) 0.0427 Uani
H16 H 0.7056 0.9119 0.4427 0.0510 Uiso
H18 H 0.8380 0.9218 0.7647 0.0500 Uiso
N7 N 0.2506(3) 0.8485(3) 0.1398(2) 0.0381 Uani
N8 N 0.3767(3) 0.9972(3) 0.4476(2) 0.0384 Uani
C33 C 0.2011(3) 0.9621(3) 0.1427(3) 0.0407 Uani
C34 C 0.2950(4) 0.7647(3) 0.2369(3) 0.0426 Uani
H31 H 0.3275 0.6831 0.2374 0.0510 Uiso
C35 C 0.2953(4) 0.7922(3) 0.3349(3) 0.0428 Uani
H32 H 0.3277 0.7303 0.4013 0.0510 Uiso
H34 H 0.3719 0.9542 0.6192 0.0510 Uiso
C37 C 0.1979(3) 0.9968(3) 0.2374(3) 0.0413 Uani
C38 C 0.2479(3) 0.9111(3) 0.3367(3) 0.0396 Uani
C39 C 0.2496(4) 0.9443(3) 0.4427(3) 0.0430 Uani
C40 C 0.5015(4) 0.9117(3) 0.4419(3) 0.0447 Uani
H36 H 0.5003 0.8338 0.5055 0.0540 Uiso
H37 H 0.5046 0.8912 0.3712 0.0540 Uiso
H40 H 0.2279 0.2275 0.0314 0.0420 Uiso
H46 H 0.835988 0.987315 0.555056 . .
H48 H 0.243179 0.861573 0.515003 . .
O6 O 0.0147(2) 0.8048(2) 0.9716(2) 0.0445 Uani
Cd7 Cd 0.25872(2) 0.793286(19) 0.973624(18) 0.0341 Uani
N5 N 0.2454(3) 0.9973(3) 0.8655(2) 0.0376 Uani
H22 H 0.0762 0.9892 0.8016 0.0490 Uiso
O4 O 0.5192(2) 0.8084(2) 0.9457(2) 0.0439 Uani
N3 N 0.7494(3) 0.1515(3) 0.8602(2) 0.0381 Uani
N4 N 0.6233(3) 0.0028(3) 0.5524(2) 0.0384 Uani
H10 H 0.7721 0.7725 0.9686 0.0420 Uiso
C17 C 0.7989(3) 0.0379(3) 0.8573(3) 0.0407 Uani
C18 C 0.7050(4) 0.2353(3) 0.7631(3) 0.0426 Uani
H14 H 0.6725 0.3169 0.7626 0.0510 Uiso
C19 C 0.7047(4) 0.2078(3) 0.6651(3) 0.0428 Uani
H15 H 0.6723 0.2697 0.5987 0.0510 Uiso
H17 H 0.6281 0.0458 0.3808 0.0510 Uiso
C21 C 0.8021(3) 0.0032(3) 0.7626(3) 0.0413 Uani
C22 C 0.7521(3) 0.0889(3) 0.6633(3) 0.0396 Uani
C23 C 0.7504(4) 0.0557(3) 0.5573(3) 0.0430 Uani
C24 C 0.4985(4) 0.0883(3) 0.5581(3) 0.0447 Uani
H19 H 0.4997 0.1662 0.4945 0.0540 Uiso
H20 H 0.4954 0.1088 0.6288 0.0540 Uiso
H29 H 0.375(4) 0.065(2) 0.390(2) 0.0460 Uiso
H30 H 0.1665 0.0215 0.0758 0.0490 Uiso
C36 C 0.3754(4) 0.0298(3) 0.5535(3) 0.0427 Uani
H33 H 0.2944 0.0881 0.5573 0.0510 Uiso
H35 H 0.1620 0.0782 0.2353 0.0500 Uiso
O18 O 0.5709(2) 0.3582(2) 0.9552(2) 0.0438 Uani
O22 O 0.8661(2) 0.3674(2) 0.9300(2) 0.0457 Uani
H45 H 0.756821 0.138427 0.484997 . .
H47 H 0.164012 0.0126851 0.444944 . .
S2 S 0.19831(8) 0.70253(7) 0.74277(7) 0.0375 Uani
O8 O 0.2719(2) 0.7708(2) 0.7931(2) 0.0409 Uani
O9 O 0.2677(3) 0.6865(2) 0.6417(2) 0.0492 Uani
O10 O 0.0591(2) 0.7528(2) 0.7262(2) 0.0478 Uani
C42 C 0.0981(3) 0.3710(3) 0.9407(3) 0.0357 Uani
C43 C 0.0889(3) 0.4934(3) 0.8698(3) 0.0352 Uani
H38 H 0.0049 0.5363 0.8419 0.0420 Uiso
C44 C 0.3265(3) 0.4913(3) 0.8814(3) 0.0359 Uani
H39 H 0.4040 0.5325 0.8612 0.0430 Uiso
C45 C 0.2215(3) 0.3103(3) 0.9823(3) 0.0349 Uani
C46 C 0.3356(3) 0.3693(3) 0.9529(3) 0.0341 Uani
C47 C 0.4711(3) 0.3016(3) 0.9906(3) 0.0362 Uani
C48 C 0.2033(3) 0.5517(3) 0.8404(3) 0.0337 Uani
C41 C 0.9763(3) 0.3054(3) 0.9689(3) 0.0369 Uani
C16 C 0.0108(4) 0.5515(3) 0.3820(3) 0.0409 Uani
H11 H 0.0307 0.6196 0.3134 0.0490 Uiso
C25 C 0.3388(3) 0.0725(3) 0.8571(3) 0.0394 Uani
H21 H 0.4129 0.0427 0.9047 0.0470 Uiso
N6 N 0.1050(3) 0.4056(3) 0.5560(2) 0.0381 Uani
C26 C 0.1424(3) 0.0413(3) 0.7971(3) 0.0411 Uani
C27 C 0.1277(3) 0.1592(3) 0.7199(3) 0.0390 Uani
H23 H 0.0520 0.1870 0.6739 0.0470 Uiso
C28 C 0.2243(3) 0.2368(3) 0.7102(3) 0.0364 Uani
C29 C 0.3310(3) 0.1906(3) 0.7821(3) 0.0369 Uani
H24 H 0.3987 0.2408 0.7794 0.0440 Uiso
C30 C 0.2241(3) 0.3638(3) 0.6239(3) 0.0407 Uani
C31 C 0.1317(4) 0.5090(3) 0.4548(3) 0.0422 Uani
H25 H 0.1538 0.5785 0.4770 0.0510 Uiso
H26 H 0.2094 0.4823 0.4117 0.0510 Uiso
H28 H 0.0105 0.5176 0.6413 0.0490 Uiso
H43 H 0.230945 0.429765 0.667765 . .
H44 H 0.311322 0.361927 0.567728 . .
C1 C 0.6612(3) 0.9275(3) 0.1429(3) 0.0394 Uani
H1 H 0.5871 0.9573 0.0953 0.0470 Uiso
N2 N 0.8950(3) 0.5944(3) 0.4440(2) 0.0381 Uani
C2 C 0.8576(3) 0.9587(3) 0.2029(3) 0.0411 Uani
C3 C 0.8723(3) 0.8408(3) 0.2801(3) 0.0390 Uani
H3 H 0.9480 0.8130 0.3261 0.0470 Uiso
C4 C 0.7757(3) 0.7632(3) 0.2898(3) 0.0364 Uani
C5 C 0.6690(3) 0.8094(3) 0.2179(3) 0.0369 Uani
H4 H 0.6013 0.7592 0.2206 0.0440 Uiso
C6 C 0.7759(3) 0.6362(3) 0.3761(3) 0.0407 Uani
C7 C 0.8683(4) 0.4910(3) 0.5452(3) 0.0422 Uani
H6 H 0.8462 0.4215 0.5230 0.0510 Uiso
H7 H 0.7906 0.5177 0.5883 0.0510 Uiso
H12 H 0.9895 0.4824 0.3587 0.0490 Uiso
C32 C 0.9892(4) 0.4485(3) 0.6180(3) 0.0409 Uani
H27 H 0.9693 0.3804 0.6866 0.0490 Uiso
H41 H 0.688678 0.638073 0.432272 . .
H42 H 0.769055 0.570235 0.332235 . .
loop_
_atom_site_aniso_label
_atom_site_aniso_U_11
_atom_site_aniso_U_22
_atom_site_aniso_U_33
_atom_site_aniso_U_23
_atom_site_aniso_U_13
_atom_site_aniso_U_12
O7 0.0327 0.0417 0.0617 -0.0145 -0.0041 -0.0045
C8 0.0334 0.0403 0.0391 -0.016 0.002 -0.0057
Cd1 0.03066 0.03273 0.0368 -0.00775 -0.00381 -0.00356
S1 0.041 0.0337 0.036 -0.0085 -0.0052 -0.0026
O1 0.0471 0.0344 0.042 -0.0115 -0.0031 -0.0082
N1 0.0347 0.0385 0.0382 -0.01 -0.0032 -0.0046
O2 0.0649 0.0418 0.037 -0.0094 0.0011 -0.0036
O3 0.044 0.0413 0.0544 -0.0102 -0.0137 0.0013
O5 0.0305 0.0415 0.053 -0.0065 -0.0031 -0.0032
C9 0.0349 0.0381 0.036 -0.0143 0.0015 -0.006
C10 0.0297 0.0374 0.0386 -0.0135 -0.0045 0.0001
C11 0.0338 0.0362 0.0391 -0.0132 0.0004 -0.0071
C12 0.0338 0.0338 0.0357 -0.0102 -0.0009 -0.0018
C13 0.0318 0.0352 0.0358 -0.0123 -0.0036 -0.0021
C14 0.0331 0.0389 0.0365 -0.0132 -0.0045 0.0006
C15 0.0363 0.0296 0.0333 -0.0087 -0.0025 -0.001
O16 0.034 0.0408 0.05 -0.0065 -0.0047 0.0006
O20 0.0376 0.0403 0.0507 -0.0058 -0.0044 -0.0084
C20 0.0442 0.051 0.035 -0.0199 -0.0015 0.0019
N7 0.0381 0.0381 0.0382 -0.0119 -0.005 -0.0038
N8 0.0444 0.038 0.0329 -0.0126 -0.0019 -0.0018
C33 0.0385 0.0395 0.0412 -0.0091 -0.0027 -0.0043
C34 0.0433 0.0364 0.047 -0.0118 -0.0039 -0.0043
C35 0.049 0.0361 0.04 -0.0068 -0.0063 -0.0052
C37 0.0418 0.0368 0.0426 -0.0097 -0.0019 -0.0028
C38 0.0406 0.0393 0.039 -0.0109 -0.0001 -0.0096
C39 0.045 0.047 0.0379 -0.0137 0.0005 -0.0091
C40 0.047 0.046 0.0437 -0.0215 -0.0043 0.0046
O6 0.0376 0.0403 0.0507 -0.0058 -0.0044 -0.0084
Cd7 0.03066 0.03273 0.0368 -0.00775 -0.00381 -0.00356
N5 0.0347 0.0385 0.0382 -0.01 -0.0032 -0.0046
O4 0.034 0.0408 0.05 -0.0065 -0.0047 0.0006
N3 0.0381 0.0381 0.0382 -0.0119 -0.005 -0.0038
N4 0.0444 0.038 0.0329 -0.0126 -0.0019 -0.0018
C17 0.0385 0.0395 0.0412 -0.0091 -0.0027 -0.0043
C18 0.0433 0.0364 0.047 -0.0118 -0.0039 -0.0043
C19 0.049 0.0361 0.04 -0.0068 -0.0063 -0.0052
C21 0.0418 0.0368 0.0426 -0.0097 -0.0019 -0.0028
C22 0.0406 0.0393 0.039 -0.0109 -0.0001 -0.0096
C23 0.045 0.047 0.0379 -0.0137 0.0005 -0.0091
C24 0.047 0.046 0.0437 -0.0215 -0.0043 0.0046
C36 0.0442 0.051 0.035 -0.0199 -0.0015 0.0019
O18 0.0305 0.0415 0.053 -0.0065 -0.0031 -0.0032
O22 0.0327 0.0417 0.0617 -0.0145 -0.0041 -0.0045
S2 0.041 0.0337 0.036 -0.0085 -0.0052 -0.0026
O8 0.0471 0.0344 0.042 -0.0115 -0.0031 -0.0082
O9 0.0649 0.0418 0.037 -0.0094 0.0011 -0.0036
O10 0.044 0.0413 0.0544 -0.0102 -0.0137 0.0013
C42 0.0349 0.0381 0.036 -0.0143 0.0015 -0.006
C43 0.0297 0.0374 0.0386 -0.0135 -0.0045 0.0001
C44 0.0338 0.0362 0.0391 -0.0132 0.0004 -0.0071
C45 0.0338 0.0338 0.0357 -0.0102 -0.0009 -0.0018
C46 0.0318 0.0352 0.0358 -0.0123 -0.0036 -0.0021
C47 0.0331 0.0389 0.0365 -0.0132 -0.0045 0.0006
C48 0.0363 0.0296 0.0333 -0.0087 -0.0025 -0.001
C41 0.0334 0.0403 0.0391 -0.016 0.002 -0.0057
C16 0.0453 0.0386 0.0349 -0.0079 -0.0016 -0.002
C25 0.0377 0.0416 0.0394 -0.0139 -0.0071 -0.0009
N6 0.0405 0.0351 0.0349 -0.0071 -0.0016 -0.0024
C26 0.0359 0.0428 0.0442 -0.0123 -0.0015 -0.0076
C27 0.0355 0.0378 0.0404 -0.0086 -0.0077 0.0001
C28 0.0382 0.0348 0.0348 -0.011 -0.0001 -0.0014
C29 0.0375 0.0364 0.0382 -0.0129 -0.0018 -0.0065
C30 0.0403 0.0364 0.041 -0.0046 -0.008 -0.0057
C31 0.0427 0.0402 0.0368 -0.0049 0.0025 -0.0023
C1 0.0377 0.0416 0.0394 -0.0139 -0.0071 -0.0009
N2 0.0405 0.0351 0.0349 -0.0071 -0.0016 -0.0024
C2 0.0359 0.0428 0.0442 -0.0123 -0.0015 -0.0076
C3 0.0355 0.0378 0.0404 -0.0086 -0.0077 0.0001
C4 0.0382 0.0348 0.0348 -0.011 -0.0001 -0.0014
C5 0.0375 0.0364 0.0382 -0.0129 -0.0018 -0.0065
C6 0.0403 0.0364 0.041 -0.0046 -0.008 -0.0057
C7 0.0427 0.0402 0.0368 -0.0049 0.0025 -0.0023
C32 0.0453 0.0386 0.0349 -0.0079 -0.0016 -0.002
loop_
_geom_bond_atom_site_label_1
_geom_bond_atom_site_label_2
_geom_bond_site_symmetry_1
_geom_bond_site_symmetry_2
O7 C8 1_555 1_555
Cd1 O1 1_555 1_555
S1 O1 1_555 1_555
N1 Cd1 1_555 1_555
O2 S1 1_555 1_555
O3 S1 1_555 1_555
O5 C14 1_555 1_555
C9 C10 1_555 1_555
C10 H8 1_555 1_555
C11 H9 1_555 1_555
C12 C9 1_555 1_555
C13 C11 1_555 1_555
C14 C13 1_555 1_555
C15 S1 1_555 1_555
O16 Cd1 1_555 1_555
O20 Cd1 1_555 1_555
C10 C15 1_555 1_555
C11 C15 1_555 1_555
C12 C13 1_555 1_555
H16 C20 1_555 1_555
N7 C33 1_555 1_555
C34 N7 1_555 1_555
H31 C34 1_555 1_555
C35 C34 1_555 1_555
H32 C35 1_555 1_555
C37 C33 1_555 1_555
C38 C35 1_555 1_555
C39 N8 1_555 1_555
C40 C20 1_555 1_555
H36 C40 1_555 1_555
H37 C40 1_555 1_555
N8 C40 1_555 1_555
C37 C38 1_555 1_555
C38 C39 1_555 1_555
C39 H48 1_555 1_555
Cd7 O6 1_555 1_555
Cd7 N5 1_555 1_555
C17 N3 1_555 1_555
C18 N3 1_555 1_555
H14 C18 1_555 1_555
C19 C18 1_555 1_555
H15 C19 1_555 1_555
C21 C17 1_555 1_555
C22 C19 1_555 1_555
C23 N4 1_555 1_555
C24 N4 1_555 1_555
H19 C24 1_555 1_555
H20 C24 1_555 1_555
C36 C24 1_555 1_555
H33 C36 1_555 1_555
Cd7 O4 1_555 1_555
C21 C22 1_555 1_555
C22 C23 1_555 1_555
C23 H45 1_555 1_555
S2 O8 1_555 1_555
O8 Cd7 1_555 1_555
O9 S2 1_555 1_555
O10 S2 1_555 1_555
O18 C47 1_555 1_555
C42 C43 1_555 1_555
C43 H38 1_555 1_555
C44 H39 1_555 1_555
C45 C42 1_555 1_555
C46 C44 1_555 1_555
C47 C46 1_555 1_555
C48 S2 1_555 1_555
C43 C48 1_555 1_555
C44 C48 1_555 1_555
C45 C46 1_555 1_555
O22 C41 1_555 1_555
H11 C16 1_555 1_555
C25 H21 1_555 1_555
N6 C30 1_555 1_555
C27 C26 1_555 1_555
H23 C27 1_555 1_555
C28 C27 1_555 1_555
C29 C25 1_555 1_555
H24 C29 1_555 1_555
C30 C28 1_555 1_555
C31 C16 1_555 1_555
H25 C31 1_555 1_555
H26 C31 1_555 1_555
N6 C31 1_555 1_555
C28 C29 1_555 1_555
C30 H43 1_555 1_555
C30 H44 1_555 1_555
H1 C1 1_555 1_555
N2 C6 1_555 1_555
C3 C2 1_555 1_555
H3 C3 1_555 1_555
C4 C3 1_555 1_555
C5 C1 1_555 1_555
H4 C5 1_555 1_555
C6 C4 1_555 1_555
C7 N2 1_555 1_555
H6 C7 1_555 1_555
H7 C7 1_555 1_555
C32 C7 1_555 1_555
H27 C32 1_555 1_555
C4 C5 1_555 1_555
C6 H41 1_555 1_555
C6 H42 1_555 1_555

#END
