
###############################################################################
#
# This file contains modified crystal structure data generated from the
# MOF subset of the Cambridge Structural Database (CSD) v543 
# hosted by the Cambridge Crystallographic Data Centre (CCDC).
#
# This work is licensed under the Creative Commons
# Attribution-NonCommercial-ShareAlike 4.0 International License.
# To view a copy of this license, visit
# http://creativecommons.org/licenses/by-nc-sa/4.0/
# or send a letter to
# Creative Commons, PO Box 1866, Mountain View, CA 94042, USA.
#
# CIF created using the CSD Python API on 29 September 2022
# The structure has been converted into the P1 space group
# The structure has a 3D framework
# The original CSD entry NEHGEP is in the monoclinic crystal system
# The original CSD entry NEHGEP is in a Sohncke space group
# The framework has been calculated to contain at least 10.0% void space
# The void calculation uses a probe of radius 1.32A, grid spacing 0.4
# The framework is charged, counterions have been retained in the structure
#
###############################################################################

data_NEHGEP
_chemical_formula_moiety         '(C96 H76 Co2 F12 N12 O24 S4 2-)n'
_symmetry_cell_setting           triclinic
_symmetry_space_group_name_H-M   'P 1'
_symmetry_Int_Tables_number      1
_space_group_name_Hall           'P 1'
loop_
_symmetry_equiv_pos_site_id
_symmetry_equiv_pos_as_xyz
1 x,y,z
_cell_length_a                   10.2015(8)
_cell_length_b                   25.484(2)
_cell_length_c                   11.4374(11)
_cell_angle_alpha                90
_cell_angle_beta                 91.804(6)
_cell_angle_gamma                90
_cell_volume                     2971.96
loop_
_atom_site_label
_atom_site_type_symbol
_atom_site_fract_x
_atom_site_fract_y
_atom_site_fract_z
N3 N 0.0708(9) 0.3714(4) 0.1328(8)
N4 N 0.0683(9) 0.3751(4) 0.7551(8)
C2 C 0.1836(11) 0.3671(6) 0.5753(10)
H4 H 0.2634 0.3597 0.5380
C4 C 0.1808(12) 0.3663(6) 0.6955(11)
H6 H 0.2599 0.3595 0.7389
C12 C 0.0712(11) 0.3769(5) 0.3788(10)
C13 C 0.0727(11) 0.3782(5) 0.5083(10)
C14 C 0.1788(11) 0.3858(5) 0.1969(10)
H10 H 0.2554 0.3948 0.1564
C24 C 0.1842(12) 0.3881(6) 0.3157(11)
H20 H 0.2638 0.3973 0.3560
Co5 Co 0.06999(16) 0.36945(7) 0.94384(15)
O7 O 0.2554(7) 0.3367(3) 0.9480(7)
O8 O 0.0296(7) 0.2859(3) 0.9394(7)
N9 N 0.1375(9) 0.4477(4) 0.9547(8)
C16 C 0.9609(12) 0.3615(5) 0.1930(10)
H12 H 0.8821 0.3526 0.1511
C17 C 0.9608(12) 0.3642(6) 0.3136(10)
H13 H 0.8819 0.3570 0.3525
C18 C 0.9616(12) 0.3874(5) 0.6891(11)
H14 H 0.8833 0.3956 0.7280
C22 C 0.9582(12) 0.3887(6) 0.5682(11)
H18 H 0.8789 0.3967 0.5262
C26 C 0.7729(11) 0.0518(5) 0.0131(11)
C31 C 0.9076(12) 0.0387(6) 0.0106(12)
C32 C 0.6074(12) 0.1225(5) 0.0341(11)
H26 H 0.5553 0.0990 0.0774
C33 C 0.6858(11) 0.0107(5) 0.0282(12)
H27 H 0.5939 0.0168 0.0256
C34 C 0.5657(12) 0.1721(5) 0.0130(11)
H28 H 0.4816 0.1818 0.0390
C38 C 0.5887(16) 0.4311(6) 0.1145(14)
H31 H 0.5635 0.3959 0.1295
C40 C 0.6385(13) 0.4438(6) 0.0064(14)
C43 C 0.574(2) 0.4698(8) 0.204(2)
H35 H 0.5376 0.4614 0.2770
C45 C 0.6692(19) 0.5338(8) 0.077(2)
H37 H 0.6984 0.5688 0.0657
C46 C 0.615(2) 0.5186(9) 0.180(2)
H38 H 0.6062 0.5445 0.2390
N7 N 0.5627(9) 0.2880(4) 0.1280(8)
Co1 Co 0.56721(17) 0.28694(7) 0.93776(15)
O1 O 0.8783(7) 0.3912(3) 0.9416(7)
O2 O 0.3756(7) 0.2638(3) 0.9336(7)
O3 O 0.7539(8) 0.3185(3) 0.9519(7)
O6 O 0.5354(7) 0.3700(3) 0.9060(7)
H2 H 0.4702 0.3821 0.8725
N1 N 0.5736(9) 0.2782(4) 0.7494(8)
N6 N 0.6362(9) 0.2085(4) 0.9572(8)
C1 C 0.4516(12) 0.2934(6) 0.3087(11)
H3 H 0.3728 0.2996 0.3487
C3 C 0.4515(13) 0.2971(6) 0.1894(11)
H5 H 0.3726 0.3063 0.1481
C5 C 0.7688(11) 0.3674(5) 0.9374(9)
C6 C 0.5669(11) 0.2804(5) 0.3729(10)
C7 C 0.4691(12) 0.2613(5) 0.6842(11)
H7 H 0.3956 0.2485 0.7244
C8 C 0.6828(11) 0.2916(5) 0.5668(10)
H8 H 0.7607 0.3011 0.5286
C9 C 0.6787(10) 0.2913(5) 0.6877(10)
H9 H 0.7562 0.3011 0.7304
C10 C 0.2686(10) 0.2878(5) 0.9365(10)
C11 C 0.5700(11) 0.2778(5) 0.5028(11)
C15 C 0.6508(11) 0.4023(5) 0.9143(12)
H11 H 0.6615 0.4201 0.8372
C19 C 0.7538(11) 0.1926(5) 0.9185(11)
H15 H 0.8062 0.2172 0.8785
C21 C 0.6782(11) 0.2712(5) 0.3092(10)
H17 H 0.7586 0.2619 0.3479
C23 C 0.4616(12) 0.2614(6) 0.5636(11)
H19 H 0.3838 0.2504 0.5228
C25 C 0.6708(12) 0.2759(5) 0.1890(11)
H21 H 0.7485 0.2701 0.1473
C27 C 0.8002(11) 0.1432(5) 0.9341(10)
H22 H 0.8833 0.1339 0.9051
C28 C 0.7272(11) 0.1062(5) 0.9920(10)
C30 C 0.1507(10) 0.2521(4) 0.9259(10)
H24 H 0.1554 0.2261 0.9913
H25 H 0.9711 0.0651 0.9974
C35 C 0.1405(11) 0.2233(5) 0.8135(11)
C36 C 0.0696(13) 0.2409(5) 0.7158(10)
H29 H 0.0187 0.2720 0.7214
C37 C 0.2121(14) 0.1759(6) 0.8051(13)
H30 H 0.2579 0.1618 0.8715
C39 C 0.2139(17) 0.1504(7) 0.6966(15)
H32 H 0.2644 0.1193 0.6896
C41 C 0.6806(15) 0.4947(6) 0.9838(18)
H33 H 0.7156 0.5038 0.9105
C42 C 0.0715(18) 0.2140(7) 0.6092(15)
H34 H 0.0222 0.2268 0.5434
C44 C 0.1447(18) 0.1690(7) 0.5996(15)
H36 H 0.1476 0.1509 0.5271
N5 N 0.8625(9) 0.9477(4) 0.0453(8)
C20 C 0.9455(11) 0.9878(6) 0.0271(12)
C29 C 0.7351(13) 0.9604(6) 0.0471(13)
H23 H 0.6743 0.9333 0.0624
Co6 Co 0.93001(16) 0.86945(7) 0.05616(15)
Co3 Co 0.43279(17) 0.78694(7) 0.06224(15)
O1_2 O 0.1217(7) 0.8912(3) 0.0584(7)
O2_2 O 0.6244(7) 0.7638(3) 0.0664(7)
O3_2 O 0.2461(8) 0.8185(3) 0.0481(7)
O4 O 0.7446(7) 0.8367(3) 0.0520(7)
O5 O 0.9704(7) 0.7859(3) 0.0606(7)
O6_2 O 0.4646(7) 0.8700(3) 0.0940(7)
H2_2 H 0.5298 0.8821 0.1275
N1_2 N 0.4264(9) 0.7782(4) 0.2506(8)
N2 N 0.4373(9) 0.7880(4) 0.8720(8)
N6_2 N 0.3638(9) 0.7085(4) 0.0428(8)
C1_2 C 0.5484(12) 0.7934(6) 0.6913(11)
H3_2 H 0.6272 0.7996 0.6513
C3_2 C 0.5485(13) 0.7971(6) 0.8106(11)
H5_2 H 0.6274 0.8063 0.8519
C5_2 C 0.2312(11) 0.8674(5) 0.0626(9)
C6_2 C 0.4331(11) 0.7804(5) 0.6271(10)
C7_2 C 0.5309(12) 0.7613(5) 0.3158(11)
H7_2 H 0.6044 0.7485 0.2756
C8_2 C 0.3172(11) 0.7916(5) 0.4332(10)
H8_2 H 0.2393 0.8011 0.4714
C9_2 C 0.3213(10) 0.7913(5) 0.3123(10)
H9_2 H 0.2438 0.8011 0.2696
C10_2 C 0.7314(10) 0.7878(5) 0.0635(10)
C11_2 C 0.4300(11) 0.7778(5) 0.4972(11)
C15_2 C 0.3492(11) 0.9023(5) 0.0857(12)
H11_2 H 0.3385 0.9201 0.1628
C19_2 C 0.2462(11) 0.6926(5) 0.0815(11)
H15_2 H 0.1938 0.7172 0.1215
C21_2 C 0.3218(11) 0.7712(5) 0.6908(10)
H17_2 H 0.2414 0.7619 0.6521
C23_2 C 0.5384(12) 0.7614(6) 0.4364(11)
H19_2 H 0.6162 0.7504 0.4772
C25_2 C 0.3292(12) 0.7759(5) 0.8110(11)
H21_2 H 0.2515 0.7701 0.8527
C27_2 C 0.1998(11) 0.6432(5) 0.0659(10)
H22_2 H 0.1167 0.6339 0.0949
C28_2 C 0.2728(11) 0.6062(5) 0.0080(10)
C30_2 C 0.8493(10) 0.7521(4) 0.0741(10)
H24_2 H 0.8446 0.7261 0.0087
H25_2 H 0.0289 0.5651 0.0026
C35_2 C 0.8595(11) 0.7233(5) 0.1865(11)
C36_2 C 0.9304(13) 0.7409(5) 0.2842(10)
H29_2 H 0.9813 0.7720 0.2786
C37_2 C 0.7879(14) 0.6759(6) 0.1949(13)
H30_2 H 0.7421 0.6618 0.1285
C39_2 C 0.7861(17) 0.6504(7) 0.3034(15)
H32_2 H 0.7356 0.6193 0.3104
C41_2 C 0.3194(15) 0.9947(6) 0.0162(18)
C42_2 C 0.9285(18) 0.7140(7) 0.3908(15)
H34_2 H 0.9778 0.7268 0.4566
C44_2 C 0.8553(18) 0.6690(7) 0.4004(15)
H36_2 H 0.8524 0.6509 0.4729
C16_2 C 0.0391(12) 0.8615(5) 0.8070(10)
H12_2 H 0.1179 0.8526 0.8489
C17_2 C 0.0392(12) 0.8642(6) 0.6864(10)
H13_2 H 0.1181 0.8570 0.6475
C18_2 C 0.0384(12) 0.8874(5) 0.3109(11)
H14_2 H 0.1167 0.8956 0.2720
C20_2 C 0.0545(11) 0.4878(6) 0.9729(12)
C22_2 C 0.0418(12) 0.8887(6) 0.4318(11)
H18_2 H 0.1211 0.8967 0.4738
C26_2 C 0.2271(11) 0.5518(5) 0.9869(11)
C29_2 C 0.2649(13) 0.4604(6) 0.9529(13)
H23_2 H 0.3257 0.4333 0.9376
C31_2 C 0.0924(12) 0.5387(6) 0.9894(12)
C32_2 C 0.3926(12) 0.6225(5) 0.9659(11)
H26_2 H 0.4447 0.5990 0.9226
C33_2 C 0.3142(11) 0.5107(5) 0.9718(12)
H27_2 H 0.4061 0.5168 0.9744
C34_2 C 0.4343(12) 0.6721(5) 0.9870(11)
H28_2 H 0.5184 0.6818 0.9610
C38_2 C 0.4113(16) 0.9311(6) 0.8855(14)
H31_2 H 0.4365 0.8959 0.8705
C40_2 C 0.3615(13) 0.9438(6) 0.9936(14)
C43_2 C 0.426(2) 0.9698(8) 0.796(2)
H35_2 H 0.4624 0.9614 0.7230
N8 N 0.9317(9) 0.8751(4) 0.2449(8)
N3_2 N 0.9292(9) 0.8714(4) 0.8672(8)
C2_2 C 0.8164(11) 0.8671(6) 0.4247(10)
H4_2 H 0.7366 0.8597 0.4620
C4_2 C 0.8192(12) 0.8663(6) 0.3045(11)
H6_2 H 0.7401 0.8595 0.2611
C12_2 C 0.9288(11) 0.8769(5) 0.6212(10)
C13_2 C 0.9273(11) 0.8782(5) 0.4917(10)
C14_2 C 0.8212(11) 0.8858(5) 0.8031(10)
H10_2 H 0.7446 0.8948 0.8436
H16 H 0.9634 0.4802 0.9744
C24_2 C 0.8158(12) 0.8881(6) 0.6843(11)
H20_2 H 0.7362 0.8973 0.6440
H16_2 H 0.0366 0.9802 0.0256
H1 H 0.9911 0.2694 0.9954
H1_2 H 0.0089 0.7694 0.0046
H33_2 H 0.2844 0.0038 0.0895
C45_2 C 0.3308(19) 0.0338(8) 0.923(2)
H37_2 H 0.3016 0.0688 0.9343
C46_2 C 0.385(2) 0.0186(9) 0.820(2)
H38_2 H 0.3938 0.0445 0.7610
S1 S 0.5335(3) 0.42221(14) 0.5912(3)
F1 F 0.5217(13) 0.5198(5) 0.5250(12)
F2 F 0.3410(11) 0.4892(5) 0.5896(14)
F3 F 0.5011(13) 0.5088(4) 0.7078(12)
O9 O 0.4674(9) 0.3946(4) 0.6848(8)
O10 O 0.6735(8) 0.4276(4) 0.6116(9)
O11 O 0.4904(10) 0.4060(5) 0.4764(8)
C47 C 0.4694(17) 0.4883(7) 0.6022(19)
F1_2 F 0.4783(13) 0.0198(5) 0.4750(12)
F3_2 F 0.4989(13) 0.0088(4) 0.2922(12)
S1_2 S 0.4665(3) 0.92221(14) 0.4088(3)
F2_2 F 0.6590(11) 0.9892(5) 0.4104(14)
O9_2 O 0.5326(9) 0.8946(4) 0.3152(8)
O10_2 O 0.3265(8) 0.9276(4) 0.3884(9)
O11_2 O 0.5096(10) 0.9060(5) 0.5236(8)
C47_2 C 0.5306(17) 0.9883(7) 0.3978(19)
S2 S 0.0415(3) 0.22140(15) 0.2277(3)
F4 F 0.1410(12) 0.1439(4) 0.1095(9)
F5 F 0.1689(12) 0.1372(5) 0.2972(9)
O14 O 0.1675(9) 0.2473(4) 0.2234(9)
C48 C 0.0852(19) 0.1538(7) 0.2100(16)
F6 F 0.9756(12) 0.1227(4) 0.2121(10)
O12 O 0.9570(8) 0.2311(4) 0.1270(7)
O13 O 0.9780(10) 0.2225(5) 0.3379(8)
F6_2 F 0.0244(12) 0.6227(4) 0.7879(10)
O12_2 O 0.0430(8) 0.7311(4) 0.8730(7)
O13_2 O 0.0220(10) 0.7225(5) 0.6621(8)
S2_2 S 0.9585(3) 0.72140(15) 0.7723(3)
F4_2 F 0.8590(12) 0.6439(4) 0.8905(9)
F5_2 F 0.8311(12) 0.6372(5) 0.7028(9)
O14_2 O 0.8325(9) 0.7473(4) 0.7766(9)
C48_2 C 0.9148(19) 0.6538(7) 0.7900(16)
loop_
_geom_bond_atom_site_label_1
_geom_bond_atom_site_label_2
_geom_bond_site_symmetry_1
_geom_bond_site_symmetry_2
N4 C4 1_555 1_555
C2 H4 1_555 1_555
C4 C2 1_555 1_555
H6 C4 1_555 1_555
C12 C13 1_555 1_555
C13 C2 1_555 1_555
C14 N3 1_555 1_555
H10 C14 1_555 1_555
C24 C12 1_555 1_555
H20 C24 1_555 1_555
Co5 N4 1_555 1_555
C14 C24 1_555 1_555
O7 Co5 1_555 1_555
O8 Co5 1_555 1_555
N9 Co5 1_555 1_555
H12 C16 1_555 1_555
H13 C17 1_555 1_555
H14 C18 1_555 1_555
H18 C22 1_555 1_555
H26 C32 1_555 1_555
C33 C26 1_555 1_555
H27 C33 1_555 1_555
H28 C34 1_555 1_555
C38 H31 1_555 1_555
C43 C38 1_555 1_555
H35 C43 1_555 1_555
H37 C45 1_555 1_555
C46 C43 1_555 1_555
H38 C46 1_555 1_555
C16 C17 1_555 1_555
C18 C22 1_555 1_555
C26 C31 1_555 1_555
C32 C34 1_555 1_555
C38 C40 1_555 1_555
C45 C46 1_555 1_555
Co1 O2 1_555 1_555
O1 C5 1_555 1_555
O2 C10 1_555 1_555
O3 Co1 1_555 1_555
O7 C10 1_555 1_555
O6 Co1 1_555 1_555
H2 O6 1_555 1_555
N1 Co1 1_555 1_555
N7 C3 1_555 1_555
N6 Co1 1_555 1_555
C1 H3 1_555 1_555
C3 C1 1_555 1_555
H5 C3 1_555 1_555
C5 O3 1_555 1_555
C6 C1 1_555 1_555
C7 N1 1_555 1_555
H7 C7 1_555 1_555
C8 H8 1_555 1_555
C9 N1 1_555 1_555
H9 C9 1_555 1_555
C10 C30 1_555 1_555
C11 C6 1_555 1_555
C15 O6 1_555 1_555
H11 C15 1_555 1_555
C19 N6 1_555 1_555
H15 C19 1_555 1_555
C21 C6 1_555 1_555
H17 C21 1_555 1_555
C23 C7 1_555 1_555
H19 C23 1_555 1_555
C25 N7 1_555 1_555
H21 C25 1_555 1_555
C27 C19 1_555 1_555
H22 C27 1_555 1_555
C28 C27 1_555 1_555
C30 O8 1_555 1_555
H24 C30 1_555 1_555
C35 C30 1_555 1_555
C36 C35 1_555 1_555
H29 C36 1_555 1_555
C37 C35 1_555 1_555
H30 C37 1_555 1_555
C39 C37 1_555 1_555
H32 C39 1_555 1_555
H33 C41 1_555 1_555
C42 C36 1_555 1_555
H34 C42 1_555 1_555
C44 C39 1_555 1_555
H36 C44 1_555 1_555
C5 C15 1_555 1_555
C8 C9 1_555 1_555
C8 C11 1_555 1_555
C11 C23 1_555 1_555
C21 C25 1_555 1_555
C42 C44 1_555 1_555
N5 C20 1_555 1_555
C29 N5 1_555 1_555
H23 C29 1_555 1_555
Co6 N5 1_555 1_555
Co3 O2_2 1_555 1_555
O1_2 C5_2 1_555 1_555
O2_2 C10_2 1_555 1_555
O3_2 Co3 1_555 1_555
O4 C10_2 1_555 1_555
O6_2 Co3 1_555 1_555
H2_2 O6_2 1_555 1_555
N1_2 Co3 1_555 1_555
N2 C3_2 1_555 1_555
N6_2 Co3 1_555 1_555
C1_2 H3_2 1_555 1_555
C3_2 C1_2 1_555 1_555
H5_2 C3_2 1_555 1_555
C5_2 O3_2 1_555 1_555
C6_2 C1_2 1_555 1_555
C7_2 N1_2 1_555 1_555
H7_2 C7_2 1_555 1_555
C8_2 H8_2 1_555 1_555
C9_2 N1_2 1_555 1_555
H9_2 C9_2 1_555 1_555
C10_2 C30_2 1_555 1_555
C11_2 C6_2 1_555 1_555
C15_2 O6_2 1_555 1_555
H11_2 C15_2 1_555 1_555
C19_2 N6_2 1_555 1_555
H15_2 C19_2 1_555 1_555
C21_2 C6_2 1_555 1_555
H17_2 C21_2 1_555 1_555
C23_2 C7_2 1_555 1_555
H19_2 C23_2 1_555 1_555
C25_2 N2 1_555 1_555
H21_2 C25_2 1_555 1_555
C27_2 C19_2 1_555 1_555
H22_2 C27_2 1_555 1_555
C28_2 C27_2 1_555 1_555
C30_2 O5 1_555 1_555
H24_2 C30_2 1_555 1_555
C35_2 C30_2 1_555 1_555
C36_2 C35_2 1_555 1_555
H29_2 C36_2 1_555 1_555
C37_2 C35_2 1_555 1_555
H30_2 C37_2 1_555 1_555
C39_2 C37_2 1_555 1_555
H32_2 C39_2 1_555 1_555
C42_2 C36_2 1_555 1_555
H34_2 C42_2 1_555 1_555
C44_2 C39_2 1_555 1_555
H36_2 C44_2 1_555 1_555
Co6 O4 1_555 1_555
O5 Co6 1_555 1_555
C5_2 C15_2 1_555 1_555
C8_2 C9_2 1_555 1_555
C8_2 C11_2 1_555 1_555
C11_2 C23_2 1_555 1_555
C21_2 C25_2 1_555 1_555
C42_2 C44_2 1_555 1_555
N9 C20_2 1_555 1_555
H12_2 C16_2 1_555 1_555
H13_2 C17_2 1_555 1_555
H14_2 C18_2 1_555 1_555
H18_2 C22_2 1_555 1_555
C29_2 N9 1_555 1_555
H23_2 C29_2 1_555 1_555
C31_2 C20_2 1_555 1_555
H26_2 C32_2 1_555 1_555
C33_2 C26_2 1_555 1_555
H27_2 C33_2 1_555 1_555
H28_2 C34_2 1_555 1_555
C38_2 H31_2 1_555 1_555
C43_2 C38_2 1_555 1_555
H35_2 C43_2 1_555 1_555
C16_2 C17_2 1_555 1_555
C18_2 C22_2 1_555 1_555
C26_2 C31_2 1_555 1_555
C29_2 C33_2 1_555 1_555
C32_2 C34_2 1_555 1_555
C38_2 C40_2 1_555 1_555
N8 Co6 1_555 1_555
N8 C4_2 1_555 1_555
C2_2 H4_2 1_555 1_555
C4_2 C2_2 1_555 1_555
H6_2 C4_2 1_555 1_555
C12_2 C13_2 1_555 1_555
C13_2 C2_2 1_555 1_555
C14_2 N3_2 1_555 1_555
H10_2 C14_2 1_555 1_555
C24_2 C12_2 1_555 1_555
H20_2 C24_2 1_555 1_555
C14_2 C24_2 1_555 1_555
H37_2 C45_2 1_555 1_555
H38_2 C46_2 1_555 1_555
C45_2 C46_2 1_555 1_555
S1 O9 1_555 1_555
F1 C47 1_555 1_555
F2 C47 1_555 1_555
F3 C47 1_555 1_555
O10 S1 1_555 1_555
O11 S1 1_555 1_555
C47 S1 1_555 1_555
S1_2 O9_2 1_555 1_555
F2_2 C47_2 1_555 1_555
O10_2 S1_2 1_555 1_555
O11_2 S1_2 1_555 1_555
C47_2 S1_2 1_555 1_555
F4 C48 1_555 1_555
F5 C48 1_555 1_555
O14 S2 1_555 1_555
C48 S2 1_555 1_555
F4_2 C48_2 1_555 1_555
F5_2 C48_2 1_555 1_555
O14_2 S2_2 1_555 1_555
C48_2 S2_2 1_555 1_555

#END
