
###############################################################################
#
# This file contains modified crystal structure data generated from the
# MOF subset of the Cambridge Structural Database (CSD) v543 
# hosted by the Cambridge Crystallographic Data Centre (CCDC).
#
# This work is licensed under the Creative Commons
# Attribution-NonCommercial-ShareAlike 4.0 International License.
# To view a copy of this license, visit
# http://creativecommons.org/licenses/by-nc-sa/4.0/
# or send a letter to
# Creative Commons, PO Box 1866, Mountain View, CA 94042, USA.
#
# CIF created using the CSD Python API on 29 September 2022
# The structure has been converted into the P1 space group
# The structure has a 3D framework
# The original CSD entry NEHHUG is in the monoclinic crystal system
# The original CSD entry NEHHUG is in a Sohncke space group
# The framework has been calculated to contain at least 10.0% void space
# The void calculation uses a probe of radius 1.32A, grid spacing 0.4
# The framework is charged, counterions have been retained in the structure
#
###############################################################################

data_NEHHUG
_chemical_formula_moiety         '(C96 H76 Co4 F12 N12 O24 S4)n'
_symmetry_cell_setting           triclinic
_symmetry_space_group_name_H-M   'P 1'
_symmetry_Int_Tables_number      1
_space_group_name_Hall           'P 1'
loop_
_symmetry_equiv_pos_site_id
_symmetry_equiv_pos_as_xyz
1 x,y,z
_cell_length_a                   10.2270(4)
_cell_length_b                   25.3057(9)
_cell_length_c                   11.4193(4)
_cell_angle_alpha                90
_cell_angle_beta                 91.298(2)
_cell_angle_gamma                90
_cell_volume                     2954.57
loop_
_atom_site_label
_atom_site_type_symbol
_atom_site_fract_x
_atom_site_fract_y
_atom_site_fract_z
N1 N 0.4506(4) 0.70673(17) 0.3377(3)
C22 C 0.4529(5) 0.7115(2) 0.0916(4)
C23 C 0.3442(5) 0.7218(2) 0.2747(5)
H20 H 0.2676 0.7311 0.3155
C28 C 0.5587(5) 0.6950(2) 0.2776(5)
H23 H 0.6356 0.6850 0.3203
C32 C 0.5632(5) 0.6968(2) 0.1571(5)
H26 H 0.6417 0.6879 0.1188
C35 C 0.3406(5) 0.7244(2) 0.1535(4)
H29 H 0.2627 0.7349 0.1128
Co4 Co 0.45196(7) 0.70441(3) 0.52662(6)
C1 C 0.4511(7) 0.5727(2) 0.7474(6)
H1 H 0.4965 0.6054 0.7447
C3 C 0.3950(11) 0.4958(4) 0.8543(8)
H3 H 0.4009 0.4753 0.9239
O1 O 0.2655(3) 0.67144(13) 0.5258(3)
C4 C 0.4527(10) 0.5437(4) 0.8499(7)
H4 H 0.4949 0.5576 0.9181
C8 C 0.3846(5) 0.55472(19) 0.6492(5)
N4 N 0.4564(4) 0.70831(17) 0.7168(4)
C12 C 0.3218(6) 0.5060(2) 0.6530(6)
H10 H 0.2760 0.4927 0.5859
H11 H 0.037(4) 0.709(2) 0.622(3)
O4 O 0.4881(3) 0.62017(15) 0.5264(3)
H12 H 0.530(4) 0.619(2) 0.461(3)
O5 O 0.1459(3) 0.59809(13) 0.5378(3)
C13 C 0.2526(4) 0.6222(2) 0.5339(4)
C16 C 0.3401(5) 0.7030(3) 0.8964(5)
H15 H 0.2589 0.6978 0.9335
C17 C 0.4530(5) 0.7119(2) 0.9622(4)
C18 C 0.0704(6) 0.6302(3) 0.1652(5)
H16 H 0.1490 0.6382 0.1262
C19 C 0.5648(5) 0.7192(2) 0.7813(4)
H17 H 0.6438 0.7260 0.7418
C20 C 0.5667(5) 0.7210(2) 0.9013(5)
H18 H 0.6461 0.7285 0.9428
C24 C 0.3468(5) 0.7019(3) 0.7755(4)
H21 H 0.2681 0.6961 0.7317
C27 C 0.0662(5) 0.6327(2) 0.2853(5)
H22 H 0.1435 0.6428 0.3273
C30 C 0.3270(8) 0.4766(3) 0.7571(8)
H25 H 0.2838 0.4434 0.7609
C33 C 0.3751(5) 0.58759(18) 0.5378(4)
H27 H 0.3706 0.5629 0.4695
H33 H 0.0278 0.5121 0.4434
O7 O 0.6445(3) 0.72714(13) 0.5263(3)
N9 N 0.3790(4) 0.78350(16) 0.5249(3)
C2 C 0.8454(6) 0.8306(2) 0.4764(7)
H2 H 0.8083 0.8404 0.5488
Co2 Co 0.95367(7) 0.62103(3) 0.53513(6)
C5 C 0.9320(6) 0.7651(2) 0.3499(5)
H5 H 0.9578 0.7296 0.3362
O2 O 0.7649(3) 0.65365(13) 0.5225(3)
C7 C 0.8834(5) 0.77862(19) 0.4571(5)
N2 N 0.9600(4) 0.62168(17) 0.3460(3)
C9 C 0.9097(9) 0.8554(3) 0.2839(8)
H7 H 0.9200 0.8818 0.2257
C10 C 0.9442(8) 0.8023(3) 0.2608(6)
H8 H 0.9750 0.7922 0.1862
C11 C 0.8621(8) 0.8681(3) 0.3889(8)
H9 H 0.8392 0.9038 0.4039
O3 O 0.9858(3) 0.70524(14) 0.5601(3)
N5 N 0.8760(4) 0.54303(15) 0.5229(3)
N6 N 0.6210(4) 0.28350(16) 0.4751(3)
C14 C 0.8479(5) 0.6029(3) 0.1648(5)
H13 H 0.7699 0.5915 0.1257
C25 C 0.7506(4) 0.70258(19) 0.5311(4)
C26 C 0.9575(5) 0.6157(2) 0.1006(4)
C29 C 0.7569(5) 0.53105(19) 0.5606(5)
H24 H 0.7076 0.5582 0.5964
C34 C 0.7482(5) 0.2933(2) 0.4812(5)
H28 H 0.8069 0.2641 0.4812
C36 C 0.8531(5) 0.6067(2) 0.2854(4)
H30 H 0.7767 0.5983 0.3274
C37 C 0.7017(5) 0.4818(2) 0.5505(5)
H31 H 0.6166 0.4754 0.5792
C38 C 0.7177(5) 0.3869(2) 0.4873(5)
C40 C 0.9434(5) 0.5044(2) 0.4718(5)
C41 C 0.5855(6) 0.3774(2) 0.4762(7)
H34 H 0.5256 0.4060 0.4716
C42 C 0.8711(5) 0.73791(19) 0.5522(4)
H35 H 0.8612 0.7567 0.6285
C43 C 0.7711(5) 0.4411(2) 0.4979(5)
C44 C 0.5403(5) 0.3256(2) 0.4718(6)
H36 H 0.4486 0.3196 0.4663
C45 C 0.7999(5) 0.3436(2) 0.4878(5)
H37 H 0.8920 0.3484 0.4925
C46 C 0.8948(5) 0.4535(2) 0.4587(5)
H38 H 0.9463 0.4271 0.4228
Co5 Co 0.54804(7) 0.20441(3) 0.47338(6)
N8 N 0.9529(4) 0.61413(18) 0.7245(3)
C15 C 0.8449(5) 0.6241(2) 0.7858(4)
H14 H 0.7660 0.6318 0.7437
C21 C 0.8424(5) 0.6237(2) 0.9070(4)
H19 H 0.7629 0.6303 0.9458
C31 C 0.9560(5) 0.6139(2) 0.9712(4)
N3 N 0.0471(4) 0.11413(18) 0.2755(3)
C15_2 C 0.1551(5) 0.1241(2) 0.2142(4)
H14_2 H 0.2340 0.1318 0.2563
C21_2 C 0.1576(5) 0.1237(2) 0.0930(4)
H19_2 H 0.2371 0.1303 0.0542
C31_2 C 0.0440(5) 0.1139(2) 0.0288(4)
Co6 Co 0.04633(7) 0.12103(3) 0.46487(6)
C2_2 C 0.1546(6) 0.3306(2) 0.5236(7)
H2_2 H 0.1917 0.3404 0.4512
C5_2 C 0.0680(6) 0.2651(2) 0.6501(5)
H5_2 H 0.0422 0.2296 0.6638
O2_2 O 0.2351(3) 0.15365(13) 0.4775(3)
C7_2 C 0.1166(5) 0.27862(19) 0.5429(5)
N2_2 N 0.0400(4) 0.12168(17) 0.6540(3)
C9_2 C 0.0903(9) 0.3554(3) 0.7161(8)
H7_2 H 0.0800 0.3818 0.7743
C10_2 C 0.0558(8) 0.3023(3) 0.7392(6)
H8_2 H 0.0250 0.2922 0.8138
C11_2 C 0.1379(8) 0.3681(3) 0.6111(8)
H9_2 H 0.1608 0.4038 0.5961
O3_2 O 0.0142(3) 0.20524(14) 0.4399(3)
O6 O 0.3555(3) 0.22714(13) 0.4737(3)
N5_2 N 0.1240(4) 0.04303(15) 0.4771(3)
C14_2 C 0.1521(5) 0.1029(3) 0.8352(5)
H13_2 H 0.2301 0.0915 0.8743
C25_2 C 0.2494(4) 0.20258(19) 0.4689(4)
C26_2 C 0.0425(5) 0.1157(2) 0.8994(4)
C29_2 C 0.2431(5) 0.03105(19) 0.4394(5)
H24_2 H 0.2924 0.0582 0.4036
C36_2 C 0.1469(5) 0.1067(2) 0.7146(4)
H30_2 H 0.2233 0.0983 0.6726
C40_2 C 0.0566(5) 0.0044(2) 0.5282(5)
C42_2 C 0.1289(5) 0.23791(19) 0.4478(4)
H35_2 H 0.1388 0.2567 0.3715
C34_2 C 0.2518(5) 0.7933(2) 0.5188(5)
H28_2 H 0.1931 0.7641 0.5188
C37_2 C 0.2983(5) 0.9818(2) 0.4495(5)
H31_2 H 0.3834 0.9754 0.4208
C38_2 C 0.2823(5) 0.8869(2) 0.5127(5)
C41_2 C 0.4145(6) 0.8774(2) 0.5238(7)
H34_2 H 0.4744 0.9060 0.5284
C43_2 C 0.2289(5) 0.9411(2) 0.5021(5)
C44_2 C 0.4597(5) 0.8256(2) 0.5282(6)
H36_2 H 0.5514 0.8196 0.5337
C45_2 C 0.2001(5) 0.8436(2) 0.5122(5)
H37_2 H 0.1080 0.8484 0.5075
C46_2 C 0.1052(5) 0.9535(2) 0.5413(5)
H38_2 H 0.0537 0.9271 0.5772
C1_2 C 0.5489(7) 0.0727(2) 0.2526(6)
H1_2 H 0.5035 0.1054 0.2553
O1_2 O 0.7345(3) 0.17144(13) 0.4742(3)
C4_2 C 0.5473(10) 0.0437(4) 0.1501(7)
H4_2 H 0.5051 0.0576 0.0819
C8_2 C 0.6154(5) 0.05472(19) 0.3508(5)
N4_2 N 0.5436(4) 0.20831(17) 0.2832(4)
C12_2 C 0.6782(6) 0.0060(2) 0.3470(6)
H11_2 H 0.963(4) 0.209(2) 0.378(3)
O4_2 O 0.5119(3) 0.12017(15) 0.4736(3)
H12_2 H 0.470(4) 0.119(2) 0.539(3)
O5_2 O 0.8541(3) 0.09809(13) 0.4622(3)
C13_2 C 0.7474(4) 0.1222(2) 0.4661(4)
C16_2 C 0.6599(5) 0.2030(3) 0.1036(5)
H15_2 H 0.7411 0.1978 0.0665
C17_2 C 0.5470(5) 0.2119(2) 0.0378(4)
C18_2 C 0.9296(6) 0.1302(3) 0.8348(5)
H16_2 H 0.8510 0.1382 0.8738
C19_2 C 0.4352(5) 0.2192(2) 0.2187(4)
H17_2 H 0.3562 0.2260 0.2582
C20_2 C 0.4333(5) 0.2210(2) 0.0987(5)
H18_2 H 0.3539 0.2285 0.0572
C24_2 C 0.6532(5) 0.2019(3) 0.2245(4)
H21_2 H 0.7319 0.1961 0.2683
C27_2 C 0.9338(5) 0.1327(2) 0.7147(5)
H22_2 H 0.8565 0.1428 0.6727
C33_2 C 0.6249(5) 0.08759(18) 0.4622(4)
H27_2 H 0.6294 0.0629 0.5305
H33_2 H 0.9722 0.0121 0.5566
N7 N 0.5494(4) 0.20673(17) 0.6623(3)
C22_2 C 0.5471(5) 0.2115(2) 0.9084(4)
C23_2 C 0.6558(5) 0.2218(2) 0.7253(5)
H20_2 H 0.7324 0.2311 0.6845
C28_2 C 0.4413(5) 0.1950(2) 0.7224(5)
H23_2 H 0.3644 0.1850 0.6797
C32_2 C 0.4368(5) 0.1968(2) 0.8429(5)
H26_2 H 0.3583 0.1879 0.8812
C35_2 C 0.6594(5) 0.2244(2) 0.8465(4)
H29_2 H 0.7373 0.2349 0.8872
C6 C 0.0623(6) 0.6017(3) 0.7880(5)
H6 H 0.1388 0.5922 0.7472
C39 C 0.0680(6) 0.6022(3) 0.9087(5)
H32 H 0.1479 0.5945 0.9492
C6_2 C 0.9377(6) 0.1017(3) 0.2120(5)
H6_2 H 0.8612 0.0922 0.2528
C39_2 C 0.9320(6) 0.1022(3) 0.0913(5)
H32_2 H 0.8521 0.0945 0.0508
C3_2 C 0.6050(11) 0.9958(4) 0.1457(8)
H3_2 H 0.5991 0.9753 0.0761
H10_2 H 0.7240 0.9927 0.4141
C30_2 C 0.6730(8) 0.9766(3) 0.2429(8)
H25_2 H 0.7162 0.9434 0.2391
O8 O 0.5674(7) 0.5630(3) 0.3406(6)
O9 O 0.5421(7) 0.5622(5) 0.1227(6)
O10 O 0.3561(6) 0.5823(3) 0.2384(7)
S1 S 0.4834(2) 0.55459(9) 0.23454(18)
C47 C 0.4384(13) 0.4857(4) 0.2492(10)
F1 F 0.5468(9) 0.4555(3) 0.2519(8)
F2 F 0.3597(11) 0.4696(4) 0.1628(8)
F3 F 0.3801(11) 0.4770(3) 0.3486(6)
O8_2 O 0.4326(7) 0.0630(3) 0.6594(6)
O9_2 O 0.4579(7) 0.0622(5) 0.8773(6)
O10_2 O 0.6439(6) 0.0823(3) 0.7616(7)
S1_2 S 0.5166(2) 0.05459(9) 0.76546(18)
C47_2 C 0.5616(13) 0.9857(4) 0.7508(10)
F1_2 F 0.4532(9) 0.9555(3) 0.7481(8)
F2_2 F 0.6403(11) 0.9696(4) 0.8372(8)
F3_2 F 0.6199(11) 0.9770(3) 0.6514(6)
C48 C 0.0253(14) 0.8329(5) 0.8421(11)
O12 O 0.0605(9) 0.7384(5) 0.7738(9)
O13 O 0.0462(11) 0.7531(5) 0.9837(8)
F6 F 0.1517(11) 0.8419(5) 0.8436(9)
F4 F 0.9790(12) 0.8477(3) 0.7401(7)
O11 O 0.8546(4) 0.7610(2) 0.8584(4)
F5 F 0.9732(14) 0.8614(4) 0.9283(9)
S2 S 0.9931(6) 0.7630(3) 0.8690(7)
F4_2 F 0.0210(12) 0.3477(3) 0.2599(7)
O11_2 O 0.1454(4) 0.2610(2) 0.1416(4)
F5_2 F 0.0268(14) 0.3614(4) 0.0717(9)
S2_2 S 0.0069(6) 0.2630(3) 0.1310(7)
C48_2 C 0.9747(14) 0.3329(5) 0.1579(11)
O12_2 O 0.9395(9) 0.2384(5) 0.2262(9)
O13_2 O 0.9538(11) 0.2531(5) 0.0163(8)
F6_2 F 0.8483(11) 0.3419(5) 0.1564(9)
loop_
_geom_bond_atom_site_label_1
_geom_bond_atom_site_label_2
_geom_bond_site_symmetry_1
_geom_bond_site_symmetry_2
N1 C23 1_555 1_555
C23 H20 1_555 1_555
C28 N1 1_555 1_555
H23 C28 1_555 1_555
C32 C22 1_555 1_555
H26 C32 1_555 1_555
C35 C22 1_555 1_555
H29 C35 1_555 1_555
Co4 N1 1_555 1_555
C23 C35 1_555 1_555
C28 C32 1_555 1_555
C1 H1 1_555 1_555
C3 H3 1_555 1_555
Co4 O1 1_555 1_555
O1 C13 1_555 1_555
C4 C1 1_555 1_555
H4 C4 1_555 1_555
C8 C1 1_555 1_555
N4 Co4 1_555 1_555
C12 C8 1_555 1_555
H10 C12 1_555 1_555
O4 Co4 1_555 1_555
H12 O4 1_555 1_555
C13 O5 1_555 1_555
C16 H15 1_555 1_555
C17 C16 1_555 1_555
C18 H16 1_555 1_555
C19 N4 1_555 1_555
H17 C19 1_555 1_555
C20 C17 1_555 1_555
H18 C20 1_555 1_555
C24 N4 1_555 1_555
H21 C24 1_555 1_555
H22 C27 1_555 1_555
C30 C3 1_555 1_555
H25 C30 1_555 1_555
C33 C8 1_555 1_555
H27 C33 1_555 1_555
O7 Co4 1_555 1_555
N9 Co4 1_555 1_555
C3 C4 1_555 1_555
C12 C30 1_555 1_555
O4 C33 1_555 1_555
C13 C33 1_555 1_555
C16 C24 1_555 1_555
C18 C27 1_555 1_555
C19 C20 1_555 1_555
C2 H2 1_555 1_555
Co2 O2 1_555 1_555
C5 H5 1_555 1_555
O2 C25 1_555 1_555
C7 C2 1_555 1_555
N2 Co2 1_555 1_555
C9 H7 1_555 1_555
C10 C5 1_555 1_555
H8 C10 1_555 1_555
C11 C2 1_555 1_555
H9 C11 1_555 1_555
O3 Co2 1_555 1_555
O7 C25 1_555 1_555
N5 Co2 1_555 1_555
N6 C34 1_555 1_555
C14 H13 1_555 1_555
C25 C42 1_555 1_555
C26 C14 1_555 1_555
C29 N5 1_555 1_555
H24 C29 1_555 1_555
C34 H28 1_555 1_555
C36 N2 1_555 1_555
H30 C36 1_555 1_555
C37 C29 1_555 1_555
H31 C37 1_555 1_555
C38 C41 1_555 1_555
C40 N5 1_555 1_555
C41 H34 1_555 1_555
C42 C7 1_555 1_555
H35 C42 1_555 1_555
C43 C37 1_555 1_555
C44 N6 1_555 1_555
H36 C44 1_555 1_555
C45 C34 1_555 1_555
H37 C45 1_555 1_555
C46 C40 1_555 1_555
H38 C46 1_555 1_555
Co5 N6 1_555 1_555
N8 Co2 1_555 1_555
C5 C7 1_555 1_555
C9 C10 1_555 1_555
C9 C11 1_555 1_555
O3 C42 1_555 1_555
C14 C36 1_555 1_555
C38 C43 1_555 1_555
C38 C45 1_555 1_555
C41 C44 1_555 1_555
C43 C46 1_555 1_555
C15 N8 1_555 1_555
H14 C15 1_555 1_555
C21 C15 1_555 1_555
H19 C21 1_555 1_555
C31 C21 1_555 1_555
C15_2 N3 1_555 1_555
H14_2 C15_2 1_555 1_555
C21_2 C15_2 1_555 1_555
H19_2 C21_2 1_555 1_555
C31_2 C21_2 1_555 1_555
Co6 N3 1_555 1_555
C2_2 H2_2 1_555 1_555
Co6 O2_2 1_555 1_555
C5_2 H5_2 1_555 1_555
O2_2 C25_2 1_555 1_555
C7_2 C2_2 1_555 1_555
N2_2 Co6 1_555 1_555
C9_2 H7_2 1_555 1_555
C10_2 C5_2 1_555 1_555
H8_2 C10_2 1_555 1_555
C11_2 C2_2 1_555 1_555
H9_2 C11_2 1_555 1_555
O3_2 Co6 1_555 1_555
O6 C25_2 1_555 1_555
N5_2 Co6 1_555 1_555
C14_2 H13_2 1_555 1_555
C25_2 C42_2 1_555 1_555
C26_2 C14_2 1_555 1_555
C29_2 N5_2 1_555 1_555
H24_2 C29_2 1_555 1_555
C36_2 N2_2 1_555 1_555
H30_2 C36_2 1_555 1_555
C40_2 N5_2 1_555 1_555
C42_2 C7_2 1_555 1_555
H35_2 C42_2 1_555 1_555
Co5 O6 1_555 1_555
C5_2 C7_2 1_555 1_555
C9_2 C10_2 1_555 1_555
C9_2 C11_2 1_555 1_555
O3_2 C42_2 1_555 1_555
C14_2 C36_2 1_555 1_555
N9 C34_2 1_555 1_555
C34_2 H28_2 1_555 1_555
H31_2 C37_2 1_555 1_555
C38_2 C41_2 1_555 1_555
C41_2 H34_2 1_555 1_555
C43_2 C37_2 1_555 1_555
C44_2 N9 1_555 1_555
H36_2 C44_2 1_555 1_555
C45_2 C34_2 1_555 1_555
H37_2 C45_2 1_555 1_555
H38_2 C46_2 1_555 1_555
C38_2 C43_2 1_555 1_555
C38_2 C45_2 1_555 1_555
C41_2 C44_2 1_555 1_555
C43_2 C46_2 1_555 1_555
C1_2 H1_2 1_555 1_555
Co5 O1_2 1_555 1_555
O1_2 C13_2 1_555 1_555
C4_2 C1_2 1_555 1_555
H4_2 C4_2 1_555 1_555
C8_2 C1_2 1_555 1_555
N4_2 Co5 1_555 1_555
C12_2 C8_2 1_555 1_555
O4_2 Co5 1_555 1_555
H12_2 O4_2 1_555 1_555
C13_2 O5_2 1_555 1_555
C16_2 H15_2 1_555 1_555
C17_2 C16_2 1_555 1_555
C18_2 H16_2 1_555 1_555
C19_2 N4_2 1_555 1_555
H17_2 C19_2 1_555 1_555
C20_2 C17_2 1_555 1_555
H18_2 C20_2 1_555 1_555
C24_2 N4_2 1_555 1_555
H21_2 C24_2 1_555 1_555
H22_2 C27_2 1_555 1_555
C33_2 C8_2 1_555 1_555
H27_2 C33_2 1_555 1_555
N7 Co5 1_555 1_555
O4_2 C33_2 1_555 1_555
C13_2 C33_2 1_555 1_555
C16_2 C24_2 1_555 1_555
C18_2 C27_2 1_555 1_555
C19_2 C20_2 1_555 1_555
N7 C23_2 1_555 1_555
C23_2 H20_2 1_555 1_555
C28_2 N7 1_555 1_555
H23_2 C28_2 1_555 1_555
C32_2 C22_2 1_555 1_555
H26_2 C32_2 1_555 1_555
C35_2 C22_2 1_555 1_555
H29_2 C35_2 1_555 1_555
C23_2 C35_2 1_555 1_555
C28_2 C32_2 1_555 1_555
C6 H6 1_555 1_555
C39 C6 1_555 1_555
H32 C39 1_555 1_555
C6_2 H6_2 1_555 1_555
C39_2 C6_2 1_555 1_555
H32_2 C39_2 1_555 1_555
C3_2 H3_2 1_555 1_555
C30_2 C3_2 1_555 1_555
H25_2 C30_2 1_555 1_555
O8 S1 1_555 1_555
O9 S1 1_555 1_555
O10 S1 1_555 1_555
S1 C47 1_555 1_555
C47 F1 1_555 1_555
F2 C47 1_555 1_555
F3 C47 1_555 1_555
O8_2 S1_2 1_555 1_555
O9_2 S1_2 1_555 1_555
O10_2 S1_2 1_555 1_555
C47_2 F1_2 1_555 1_555
F2_2 C47_2 1_555 1_555
F3_2 C47_2 1_555 1_555
F6 C48 1_555 1_555
O11 S2 1_555 1_555
O11_2 S2_2 1_555 1_555
F6_2 C48_2 1_555 1_555

#END
