
###############################################################################
#
# This file contains modified crystal structure data generated from the
# MOF subset of the Cambridge Structural Database (CSD) v543 
# hosted by the Cambridge Crystallographic Data Centre (CCDC).
#
# This work is licensed under the Creative Commons
# Attribution-NonCommercial-ShareAlike 4.0 International License.
# To view a copy of this license, visit
# http://creativecommons.org/licenses/by-nc-sa/4.0/
# or send a letter to
# Creative Commons, PO Box 1866, Mountain View, CA 94042, USA.
#
# CIF created using the CSD Python API on 29 September 2022
# The structure has been converted into the P1 space group
# The structure has a 3D framework
# The original CSD entry NEHHAM is in the monoclinic crystal system
# The original CSD entry NEHHAM is in a Sohncke space group
# The framework has been calculated to contain at least 10.0% void space
# The void calculation uses a probe of radius 1.32A, grid spacing 0.4
# The framework is charged, counterions have been retained in the structure
#
###############################################################################

data_NEHHAM
_chemical_formula_moiety         '(C96 H76 Co4 F12 N12 O24 S4)n'
_symmetry_cell_setting           triclinic
_symmetry_space_group_name_H-M   'P 1'
_symmetry_Int_Tables_number      1
_space_group_name_Hall           'P 1'
loop_
_symmetry_equiv_pos_site_id
_symmetry_equiv_pos_as_xyz
1 x,y,z
_cell_length_a                   10.2063(5)
_cell_length_b                   25.4370(11)
_cell_length_c                   11.4178(5)
_cell_angle_alpha                90
_cell_angle_beta                 91.890(2)
_cell_angle_gamma                90
_cell_volume                     2962.65
loop_
_atom_site_label
_atom_site_type_symbol
_atom_site_fract_x
_atom_site_fract_y
_atom_site_fract_z
O4 O 0.3596(6) 0.0133(2) 0.5064(5)
C28 C 0.1333(9) 0.0242(4) 0.4869(9)
H22 H 0.1409 0.0431 0.4107
C39 C 0.1215(9) 0.0643(4) 0.5813(9)
C40 C 0.1500(11) 0.1160(4) 0.5601(11)
H32 H 0.1778 0.1259 0.4846
H34 H 0.0237 0.2954 0.4226
C43 C 0.0803(11) 0.0502(5) 0.6914(10)
H35 H 0.0588 0.0146 0.7069
C44 C 0.0971(14) 0.1397(5) 0.7554(12)
H36 H 0.0869 0.1658 0.8140
C45 C 0.1393(15) 0.1541(5) 0.6451(14)
H37 H 0.1603 0.1897 0.6287
C46 C 0.0701(13) 0.0878(6) 0.7799(12)
H38 H 0.0449 0.0777 0.8560
Co1 Co 0.05072(13) 0.90712(5) 0.49995(11)
O2 O 0.2397(6) 0.9400(3) 0.5136(5)
N4 N 0.0496(7) 0.9025(3) 0.3086(6)
C1 C 0.0477(9) 0.9010(4) 0.0631(7)
C3 C 0.1604(10) 0.9110(4) 0.1289(8)
H1 H 0.2403 0.9175 0.0910
O5 O 0.0171(6) 0.9911(3) 0.4790(5)
C4 C 0.1581(10) 0.9118(4) 0.2486(8)
H3 H 0.2373 0.9193 0.2914
C17 C 0.2523(8) 0.9889(4) 0.5037(7)
Co6 Co 0.55256(13) 0.99020(5) 0.50636(11)
N8 N 0.0439(7) 0.9067(3) 0.6879(6)
N9 N 0.1305(7) 0.8301(3) 0.5062(6)
C2 C 0.0460(9) 0.9021(4) 0.9339(7)
C16 C 0.1503(10) 0.8907(4) 0.7512(9)
H11 H 0.2262 0.8810 0.7103
C29 C 0.1554(9) 0.8876(4) 0.8714(8)
H23 H 0.2327 0.8757 0.9117
N5 N 0.6235(8) 0.0689(3) 0.5045(7)
H2 H 0.968(9) 0.001(4) 0.417(6)
N6 N 0.8695(7) 0.3301(3) 0.4938(6)
C9 C 0.6626(10) 0.0115(4) 0.8801(8)
H7 H 0.7401 0.0225 0.9216
C10 C 0.7192(9) 0.1721(4) 0.4964(8)
C22 C 0.7538(10) 0.0799(4) 0.5123(9)
H17 H 0.8138 0.0515 0.5196
C23 C 0.8896(10) 0.2387(4) 0.4498(9)
H18 H 0.9403 0.2114 0.4173
C24 C 0.7691(9) 0.2266(4) 0.4937(8)
C26 C 0.5420(10) 0.1104(4) 0.4914(10)
H20 H 0.4503 0.1040 0.4859
C27 C 0.6595(9) 0.0088(4) 0.7592(7)
H21 H 0.7354 0.0194 0.7192
C30 C 0.8025(9) 0.1297(4) 0.5102(9)
H24 H 0.8944 0.1352 0.5183
C31 C 0.6987(9) 0.2690(4) 0.5364(9)
H25 H 0.6144 0.2636 0.5671
C32 C 0.5858(10) 0.1616(4) 0.4856(11)
H26 H 0.5250 0.1896 0.4743
C41 C 0.7521(9) 0.3192(4) 0.5339(9)
H33 H 0.7014 0.3474 0.5628
C42 C 0.9390(10) 0.2892(4) 0.4516(9)
Co4 Co 0.94928(13) 0.40712(5) 0.50005(11)
N1 N 0.5460(7) 0.9942(3) 0.3156(6)
C13 C 0.6642(9) 0.9895(5) 0.1376(8)
H9 H 0.7459 0.9852 0.1012
C15 C 0.5501(9) 0.9985(4) 0.0705(8)
C25 C 0.6565(9) 0.9870(5) 0.2585(8)
H19 H 0.7345 0.9796 0.3033
N2 N 0.5550(7) 0.9920(3) 0.6950(6)
O1 O 0.8587(6) 0.8836(2) 0.4939(5)
O3 O 0.7378(6) 0.9573(2) 0.5077(5)
C5 C 0.4488(10) 0.9788(5) 0.7539(9)
H4 H 0.3735 0.9668 0.7107
C6 C 0.4433(10) 0.9818(5) 0.8737(8)
H5 H 0.3647 0.9726 0.9109
C7 C 0.9417(11) 0.8905(5) 0.2451(9)
H6 H 0.8648 0.8818 0.2855
C8 C 0.5509(9) 0.9981(4) 0.9408(8)
C12 C 0.7508(8) 0.9084(4) 0.4977(6)
C14 C 0.9353(10) 0.8901(4) 0.1241(9)
H10 H 0.8550 0.8825 0.0831
O6 O 0.5156(6) 0.9067(3) 0.5065(5)
H12 H 0.472(9) 0.899(4) 0.570(6)
C21 C 0.6269(8) 0.8736(4) 0.4914(8)
H16 H 0.6321 0.8475 0.5569
C33 C 0.6144(9) 0.8441(4) 0.3757(8)
C34 C 0.5334(11) 0.8619(4) 0.2849(9)
H27 H 0.4839 0.8931 0.2948
C35 C 0.6753(14) 0.7729(5) 0.2475(12)
H28 H 0.7246 0.7419 0.2343
C36 C 0.5932(13) 0.7920(6) 0.1617(11)
H29 H 0.5859 0.7744 0.0884
C37 C 0.6877(11) 0.7995(5) 0.3578(10)
H30 H 0.7457 0.7865 0.4179
C38 C 0.5233(14) 0.8350(6) 0.1795(11)
H31 H 0.4652 0.8475 0.1191
Co2 Co 0.44744(13) 0.49020(5) 0.49364(11)
N2_2 N 0.4450(7) 0.4920(3) 0.3050(6)
O1_2 O 0.1413(6) 0.3836(2) 0.5061(5)
O3_2 O 0.2622(6) 0.4573(2) 0.4923(5)
N5_2 N 0.3765(8) 0.5689(3) 0.4955(7)
H2_2 H 0.032(9) 0.501(4) 0.583(6)
C5_2 C 0.5512(10) 0.4788(5) 0.2461(9)
H4_2 H 0.6265 0.4668 0.2893
C6_2 C 0.5567(10) 0.4818(5) 0.1263(8)
H5_2 H 0.6353 0.4726 0.0891
C7_2 C 0.0583(11) 0.3905(5) 0.7549(9)
H6_2 H 0.1352 0.3818 0.7145
C8_2 C 0.4491(9) 0.4981(4) 0.0592(8)
C9_2 C 0.3374(10) 0.5115(4) 0.1199(8)
H7_2 H 0.2599 0.5225 0.0784
C10_2 C 0.2808(9) 0.6721(4) 0.5036(8)
C12_2 C 0.2492(8) 0.4084(4) 0.5023(6)
C14_2 C 0.0647(10) 0.3901(4) 0.8759(9)
H10_2 H 0.1450 0.3825 0.9169
O6_2 O 0.4844(6) 0.4067(3) 0.4935(5)
H12_2 H 0.528(9) 0.399(4) 0.430(6)
C21_2 C 0.3731(8) 0.3736(4) 0.5086(8)
H16_2 H 0.3679 0.3475 0.4431
C22_2 C 0.2462(10) 0.5799(4) 0.4877(9)
H17_2 H 0.1862 0.5515 0.4804
C23_2 C 0.1104(10) 0.7387(4) 0.5502(9)
H18_2 H 0.0597 0.7114 0.5827
C24_2 C 0.2309(9) 0.7266(4) 0.5063(8)
C26_2 C 0.4580(10) 0.6104(4) 0.5086(10)
H20_2 H 0.5497 0.6040 0.5141
C27_2 C 0.3405(9) 0.5088(4) 0.2408(7)
H21_2 H 0.2646 0.5194 0.2808
C30_2 C 0.1975(9) 0.6297(4) 0.4898(9)
H24_2 H 0.1056 0.6352 0.4817
C31_2 C 0.3013(9) 0.7690(4) 0.4636(9)
H25_2 H 0.3856 0.7636 0.4329
C32_2 C 0.4142(10) 0.6616(4) 0.5144(11)
H26_2 H 0.4750 0.6896 0.5257
C33_2 C 0.3856(9) 0.3441(4) 0.6243(8)
C34_2 C 0.4666(11) 0.3619(4) 0.7151(9)
H27_2 H 0.5161 0.3931 0.7052
C35_2 C 0.3247(14) 0.2729(5) 0.7525(12)
H28_2 H 0.2754 0.2419 0.7657
C36_2 C 0.4068(13) 0.2920(6) 0.8383(11)
H29_2 H 0.4141 0.2744 0.9116
C37_2 C 0.3123(11) 0.2995(5) 0.6422(10)
H30_2 H 0.2543 0.2865 0.5821
C38_2 C 0.4767(14) 0.3350(6) 0.8205(11)
H31_2 H 0.5348 0.3475 0.8809
C41_2 C 0.2479(9) 0.8192(4) 0.4661(9)
H33_2 H 0.2986 0.8474 0.4372
C42_2 C 0.0610(10) 0.7892(4) 0.5484(9)
N7 N 0.4540(7) 0.4942(3) 0.6844(6)
O7 O 0.6404(6) 0.5133(2) 0.4936(5)
C11 C 0.5616(10) 0.5051(4) 0.7475(8)
H8 H 0.6405 0.5114 0.7078
C13_2 C 0.3358(9) 0.4895(5) 0.8624(8)
H9_2 H 0.2541 0.4852 0.8988
C15_2 C 0.4499(9) 0.4985(4) 0.9295(8)
C19 C 0.5646(10) 0.5077(5) 0.8694(8)
H14 H 0.6441 0.5157 0.9114
C25_2 C 0.3435(9) 0.4870(5) 0.7415(8)
H19_2 H 0.2655 0.4796 0.6967
N3 N 0.9561(7) 0.4067(3) 0.3121(6)
C2_2 C 0.9540(9) 0.4021(4) 0.0661(7)
C16_2 C 0.8497(10) 0.3907(4) 0.2488(9)
H11_2 H 0.7738 0.3810 0.2897
C29_2 C 0.8446(9) 0.3876(4) 0.1286(8)
H23_2 H 0.7673 0.3757 0.0883
O2_2 O 0.7603(6) 0.4400(3) 0.4864(5)
N4_2 N 0.9504(7) 0.4025(3) 0.6914(6)
C1_2 C 0.9523(9) 0.4010(4) 0.9369(7)
C3_2 C 0.8396(10) 0.4110(4) 0.8711(8)
H1_2 H 0.7597 0.4175 0.9090
O5_2 O 0.9829(6) 0.4911(3) 0.5210(5)
C4_2 C 0.8419(10) 0.4118(4) 0.7514(8)
H3_2 H 0.7627 0.4193 0.7086
C17_2 C 0.7477(8) 0.4889(4) 0.4963(7)
C28_2 C 0.8667(9) 0.5242(4) 0.5131(9)
H22_2 H 0.8591 0.5431 0.5893
C39_2 C 0.8785(9) 0.5643(4) 0.4187(9)
C40_2 C 0.8500(11) 0.6160(4) 0.4399(11)
H32_2 H 0.8222 0.6259 0.5154
H34_2 H 0.9763 0.7954 0.5774
C43_2 C 0.9197(11) 0.5502(5) 0.3086(10)
H35_2 H 0.9412 0.5146 0.2931
C44_2 C 0.9029(14) 0.6397(5) 0.2446(12)
H36_2 H 0.9131 0.6658 0.1860
C45_2 C 0.8607(15) 0.6541(5) 0.3549(14)
H37_2 H 0.8397 0.6897 0.3713
C46_2 C 0.9299(13) 0.5878(6) 0.2201(12)
H38_2 H 0.9551 0.5777 0.1440
C11_2 C 0.4384(10) 0.0051(4) 0.2525(8)
H8_2 H 0.3595 0.0114 0.2922
C19_2 C 0.4354(10) 0.0077(5) 0.1306(8)
H14_2 H 0.3559 0.0157 0.0886
C18 C 0.9385(10) 0.9191(5) 0.7489(9)
H13 H 0.8607 0.9289 0.7063
C20 C 0.9353(10) 0.9186(4) 0.8680(8)
H15 H 0.8585 0.9294 0.9062
C18_2 C 0.0615(10) 0.4191(5) 0.2511(9)
H13_2 H 0.1393 0.4289 0.2937
C20_2 C 0.0647(10) 0.4186(4) 0.1320(8)
H15_2 H 0.1415 0.4294 0.0938
S1 S 0.0105(2) 0.04334(11) 0.1644(2)
O8 O 0.1521(7) 0.0425(4) 0.1799(7)
F1 F 0.0236(11) 0.1377(3) 0.0854(8)
F2 F 0.0170(13) 0.1320(3) 0.2743(8)
O9 O 0.9427(7) 0.0206(3) 0.2607(6)
O10 O 0.9623(8) 0.0274(3) 0.0502(6)
F3 F 0.8423(12) 0.1187(5) 0.1687(9)
C47 C 0.9680(15) 0.1123(6) 0.1726(12)
O9_2 O 0.0573(7) 0.5206(3) 0.7393(6)
O10_2 O 0.0377(8) 0.5274(3) 0.9498(6)
F3_2 F 0.1577(12) 0.6187(5) 0.8313(9)
C47_2 C 0.0320(15) 0.6123(6) 0.8274(12)
S1_2 S 0.9895(2) 0.54334(11) 0.8356(2)
O8_2 O 0.8479(7) 0.5425(4) 0.8201(7)
F1_2 F 0.9764(11) 0.6377(3) 0.9146(8)
F2_2 F 0.9830(13) 0.6320(3) 0.7257(8)
S2 S 0.5186(3) 0.83683(15) 0.7953(3)
O11 O 0.4418(8) 0.8539(4) 0.6956(7)
O12 O 0.6542(8) 0.8547(4) 0.7953(8)
O13 O 0.4545(10) 0.8403(5) 0.9036(8)
F4 F 0.5936(12) 0.7571(4) 0.6680(9)
F5 F 0.6078(13) 0.7447(5) 0.8542(10)
C48 C 0.5350(17) 0.7663(7) 0.7655(15)
F6 F 0.4218(12) 0.7430(4) 0.7613(9)
S2_2 S 0.4814(3) 0.33683(15) 0.2047(3)
O11_2 O 0.5582(8) 0.3539(4) 0.3044(7)
O12_2 O 0.3458(8) 0.3547(4) 0.2047(8)
O13_2 O 0.5455(10) 0.3403(5) 0.0964(8)
F4_2 F 0.4064(12) 0.2571(4) 0.3320(9)
F5_2 F 0.3922(13) 0.2447(5) 0.1458(10)
C48_2 C 0.4650(17) 0.2663(7) 0.2345(15)
F6_2 F 0.5782(12) 0.2430(4) 0.2387(9)
loop_
_geom_bond_atom_site_label_1
_geom_bond_atom_site_label_2
_geom_bond_site_symmetry_1
_geom_bond_site_symmetry_2
H22 C28 1_555 1_555
C39 C28 1_555 1_555
C40 C39 1_555 1_555
H32 C40 1_555 1_555
C43 C39 1_555 1_555
H35 C43 1_555 1_555
C44 H36 1_555 1_555
C45 C40 1_555 1_555
H37 C45 1_555 1_555
C46 C43 1_555 1_555
H38 C46 1_555 1_555
C44 C45 1_555 1_555
C44 C46 1_555 1_555
O2 Co1 1_555 1_555
N4 Co1 1_555 1_555
C3 C1 1_555 1_555
H1 C3 1_555 1_555
O5 Co1 1_555 1_555
C4 N4 1_555 1_555
H3 C4 1_555 1_555
C17 O2 1_555 1_555
N8 Co1 1_555 1_555
N9 Co1 1_555 1_555
C3 C4 1_555 1_555
N8 C16 1_555 1_555
C16 H11 1_555 1_555
C29 C2 1_555 1_555
H23 C29 1_555 1_555
C16 C29 1_555 1_555
N6 C41 1_555 1_555
H7 C9 1_555 1_555
C10 C24 1_555 1_555
C22 N5 1_555 1_555
H17 C22 1_555 1_555
C23 H18 1_555 1_555
C24 C23 1_555 1_555
C26 N5 1_555 1_555
H20 C26 1_555 1_555
H21 C27 1_555 1_555
C30 C10 1_555 1_555
H24 C30 1_555 1_555
C31 C24 1_555 1_555
H25 C31 1_555 1_555
C32 C10 1_555 1_555
H26 C32 1_555 1_555
C41 C31 1_555 1_555
H33 C41 1_555 1_555
C42 N6 1_555 1_555
Co4 N6 1_555 1_555
C9 C27 1_555 1_555
C22 C30 1_555 1_555
C23 C42 1_555 1_555
C26 C32 1_555 1_555
C13 H9 1_555 1_555
C25 N1 1_555 1_555
H19 C25 1_555 1_555
Co6 N1 1_555 1_555
C13 C15 1_555 1_555
C13 C25 1_555 1_555
Co6 N2 1_555 1_555
N2 C5 1_555 1_555
O1 C12 1_555 1_555
O3 Co6 1_555 1_555
C5 H4 1_555 1_555
C6 C5 1_555 1_555
H5 C6 1_555 1_555
H6 C7 1_555 1_555
C8 C6 1_555 1_555
C12 O3 1_555 1_555
H10 C14 1_555 1_555
O6 Co6 1_555 1_555
H12 O6 1_555 1_555
C21 C12 1_555 1_555
H16 C21 1_555 1_555
C33 C21 1_555 1_555
C34 C33 1_555 1_555
H27 C34 1_555 1_555
C35 H28 1_555 1_555
C36 C35 1_555 1_555
H29 C36 1_555 1_555
C37 C33 1_555 1_555
H30 C37 1_555 1_555
C38 C34 1_555 1_555
H31 C38 1_555 1_555
C7 C14 1_555 1_555
O6 C21 1_555 1_555
C35 C37 1_555 1_555
C36 C38 1_555 1_555
Co2 N2_2 1_555 1_555
N2_2 C5_2 1_555 1_555
O1_2 C12_2 1_555 1_555
O3_2 Co2 1_555 1_555
N5_2 Co2 1_555 1_555
N9 C41_2 1_555 1_555
C5_2 H4_2 1_555 1_555
C6_2 C5_2 1_555 1_555
H5_2 C6_2 1_555 1_555
H6_2 C7_2 1_555 1_555
C8_2 C6_2 1_555 1_555
C9_2 C8_2 1_555 1_555
H7_2 C9_2 1_555 1_555
C10_2 C24_2 1_555 1_555
C12_2 O3_2 1_555 1_555
H10_2 C14_2 1_555 1_555
O6_2 Co2 1_555 1_555
H12_2 O6_2 1_555 1_555
C21_2 C12_2 1_555 1_555
H16_2 C21_2 1_555 1_555
C22_2 N5_2 1_555 1_555
H17_2 C22_2 1_555 1_555
C23_2 H18_2 1_555 1_555
C24_2 C23_2 1_555 1_555
C26_2 N5_2 1_555 1_555
H20_2 C26_2 1_555 1_555
C27_2 N2_2 1_555 1_555
H21_2 C27_2 1_555 1_555
C30_2 C10_2 1_555 1_555
H24_2 C30_2 1_555 1_555
C31_2 C24_2 1_555 1_555
H25_2 C31_2 1_555 1_555
C32_2 C10_2 1_555 1_555
H26_2 C32_2 1_555 1_555
C33_2 C21_2 1_555 1_555
C34_2 C33_2 1_555 1_555
H27_2 C34_2 1_555 1_555
C35_2 H28_2 1_555 1_555
C36_2 C35_2 1_555 1_555
H29_2 C36_2 1_555 1_555
C37_2 C33_2 1_555 1_555
H30_2 C37_2 1_555 1_555
C38_2 C34_2 1_555 1_555
H31_2 C38_2 1_555 1_555
C41_2 C31_2 1_555 1_555
H33_2 C41_2 1_555 1_555
C42_2 N9 1_555 1_555
N7 Co2 1_555 1_555
O7 Co2 1_555 1_555
C7_2 C14_2 1_555 1_555
C9_2 C27_2 1_555 1_555
O6_2 C21_2 1_555 1_555
C22_2 C30_2 1_555 1_555
C23_2 C42_2 1_555 1_555
C26_2 C32_2 1_555 1_555
C35_2 C37_2 1_555 1_555
C36_2 C38_2 1_555 1_555
N7 C11 1_555 1_555
C11 H8 1_555 1_555
C13_2 H9_2 1_555 1_555
C19 C11 1_555 1_555
H14 C19 1_555 1_555
C25_2 N7 1_555 1_555
H19_2 C25_2 1_555 1_555
C13_2 C15_2 1_555 1_555
C13_2 C25_2 1_555 1_555
C15_2 C19 1_555 1_555
N3 C16_2 1_555 1_555
C16_2 H11_2 1_555 1_555
C29_2 C2_2 1_555 1_555
H23_2 C29_2 1_555 1_555
Co4 N3 1_555 1_555
C16_2 C29_2 1_555 1_555
O2_2 Co4 1_555 1_555
N4_2 Co4 1_555 1_555
O7 C17_2 1_555 1_555
C3_2 C1_2 1_555 1_555
H1_2 C3_2 1_555 1_555
O5_2 Co4 1_555 1_555
C4_2 N4_2 1_555 1_555
H3_2 C4_2 1_555 1_555
C17_2 O2_2 1_555 1_555
C28_2 O5_2 1_555 1_555
H22_2 C28_2 1_555 1_555
C39_2 C28_2 1_555 1_555
C40_2 C39_2 1_555 1_555
H32_2 C40_2 1_555 1_555
C43_2 C39_2 1_555 1_555
H35_2 C43_2 1_555 1_555
C44_2 H36_2 1_555 1_555
C45_2 C40_2 1_555 1_555
H37_2 C45_2 1_555 1_555
C46_2 C43_2 1_555 1_555
H38_2 C46_2 1_555 1_555
C3_2 C4_2 1_555 1_555
C17_2 C28_2 1_555 1_555
C44_2 C45_2 1_555 1_555
C44_2 C46_2 1_555 1_555
C11_2 H8_2 1_555 1_555
C19_2 C11_2 1_555 1_555
H14_2 C19_2 1_555 1_555
H13 C18 1_555 1_555
C20 C18 1_555 1_555
H15 C20 1_555 1_555
H13_2 C18_2 1_555 1_555
C20_2 C18_2 1_555 1_555
H15_2 C20_2 1_555 1_555
S1 O8 1_555 1_555
F3 C47 1_555 1_555
F3_2 C47_2 1_555 1_555
S1_2 O8_2 1_555 1_555
S2 O11 1_555 1_555
O12 S2 1_555 1_555
O13 S2 1_555 1_555
F4 C48 1_555 1_555
F5 C48 1_555 1_555
C48 S2 1_555 1_555
F6 C48 1_555 1_555
S2_2 O11_2 1_555 1_555
O12_2 S2_2 1_555 1_555
O13_2 S2_2 1_555 1_555
F4_2 C48_2 1_555 1_555
F5_2 C48_2 1_555 1_555
C48_2 S2_2 1_555 1_555
F6_2 C48_2 1_555 1_555

#END
