
###############################################################################
#
# This file contains modified crystal structure data generated from the
# MOF subset of the Cambridge Structural Database (CSD) v543 
# hosted by the Cambridge Crystallographic Data Centre (CCDC).
#
# This work is licensed under the Creative Commons
# Attribution-NonCommercial-ShareAlike 4.0 International License.
# To view a copy of this license, visit
# http://creativecommons.org/licenses/by-nc-sa/4.0/
# or send a letter to
# Creative Commons, PO Box 1866, Mountain View, CA 94042, USA.
#
# CIF created using the CSD Python API on 29 September 2022
# The structure has been converted into the P1 space group
# The structure has a 3D framework
# The original CSD entry NEHJAO is in the monoclinic crystal system
# The original CSD entry NEHJAO is in a Sohncke space group
# The framework has been calculated to contain at least 10.0% void space
# The void calculation uses a probe of radius 1.32A, grid spacing 0.4
# The framework is charged, counterions have been retained in the structure
#
###############################################################################

data_NEHJAO
_chemical_formula_moiety         '(C96 H76 Co4 F12 N12 O24 S4)n'
_symmetry_cell_setting           triclinic
_symmetry_space_group_name_H-M   'P 1'
_symmetry_Int_Tables_number      1
_space_group_name_Hall           'P 1'
loop_
_symmetry_equiv_pos_site_id
_symmetry_equiv_pos_as_xyz
1 x,y,z
_cell_length_a                   10.2062(3)
_cell_length_b                   25.3253(6)
_cell_length_c                   11.4262(3)
_cell_angle_alpha                90
_cell_angle_beta                 91.2550(16)
_cell_angle_gamma                90
_cell_volume                     2952.68
loop_
_atom_site_label
_atom_site_type_symbol
_atom_site_fract_x
_atom_site_fract_y
_atom_site_fract_z
N3 N 0.0440(7) 0.4064(3) 0.2915(6)
C6 C 0.1549(10) 0.3972(5) 0.2331(8)
H7 H 0.2331 0.3889 0.2759
C8 C 0.1577(10) 0.3997(5) 0.1114(8)
H9 H 0.2384 0.3938 0.0735
C12 C 0.0475(9) 0.4102(4) 0.0446(7)
Co4 Co 0.04701(13) 0.40221(5) 0.48105(11)
N2 N 0.0483(7) 0.4046(3) 0.6687(6)
C7 C 0.1571(9) 0.4181(4) 0.7334(8)
H8 H 0.2349 0.4260 0.6928
C13 C 0.0484(9) 0.4089(4) 0.9162(8)
C23 C 0.1613(9) 0.4211(4) 0.8538(7)
H19 H 0.2397 0.4312 0.8941
H20 H 0.0535 0.0168 0.5190
O7 O 0.2326(6) 0.3691(2) 0.4814(5)
O8 O 0.0090(6) 0.3182(3) 0.4808(5)
N8 N 0.1194(7) 0.4811(3) 0.4834(6)
Co2 Co 0.54446(13) 0.31882(5) 0.47341(11)
O1 O 0.3531(6) 0.2952(2) 0.4689(5)
O2 O 0.8538(6) 0.4254(2) 0.4812(5)
O4 O 0.7343(6) 0.3515(2) 0.4868(5)
O6 O 0.5127(6) 0.4029(3) 0.4491(6)
H2 H 0.454(5) 0.409(3) 0.390(6)
N1 N 0.5461(7) 0.3125(3) 0.2831(6)
N5 N 0.6255(7) 0.2408(3) 0.4846(6)
C1 C 0.6509(9) 0.3237(4) 0.2217(8)
H3 H 0.7289 0.3327 0.2641
C2 C 0.9350(10) 0.3959(5) 0.8508(8)
H4 H 0.8551 0.3884 0.8887
C3 C 0.9417(9) 0.3941(5) 0.7313(8)
H5 H 0.8641 0.3845 0.6891
C4 C 0.6561(10) 0.3234(4) 0.1009(8)
H6 H 0.7356 0.3307 0.0624
C5 C 0.7491(8) 0.3999(3) 0.4763(6)
C10 C 0.5430(9) 0.3121(4) 0.0378(8)
C14 C 0.4341(10) 0.2980(5) 0.0999(9)
H11 H 0.3555 0.2880 0.0597
C19 C 0.2446(8) 0.3188(4) 0.4727(6)
C20 C 0.1228(9) 0.2849(3) 0.4681(8)
H16 H 0.1269 0.2601 0.5362
C21 C 0.4396(10) 0.2984(5) 0.2204(9)
H17 H 0.3637 0.2880 0.2611
C24 C 0.9616(10) 0.0229(4) 0.5171(11)
C26 C 0.7834(9) 0.0849(3) 0.5083(8)
C27 C 0.7293(8) 0.1394(3) 0.5012(8)
C28 C 0.7011(9) 0.0410(4) 0.5078(11)
H22 H 0.6088 0.0459 0.5044
C29 C 0.6257(9) 0.4355(3) 0.4572(9)
H23 H 0.6345 0.4543 0.3808
C30 C 0.7420(8) 0.2301(3) 0.4441(8)
H24 H 0.7907 0.2579 0.4101
C31 C 0.9161(10) 0.0753(4) 0.5151(12)
H25 H 0.9765 0.1038 0.5184
C32 C 0.5584(9) 0.2020(3) 0.5341(9)
H26 H 0.4742 0.2095 0.5637
C33 C 0.6071(9) 0.1507(3) 0.5442(9)
H27 H 0.5568 0.1239 0.5801
C34 C 0.7973(8) 0.1798(3) 0.4489(9)
H28 H 0.8808 0.1734 0.4165
C35 C 0.1119(8) 0.2525(3) 0.3586(8)
C36 C 0.0451(12) 0.2707(4) 0.2602(10)
H29 H 0.0035 0.3042 0.2623
C37 C 0.0374(15) 0.2408(6) 0.1578(12)
C38 C 0.0972(19) 0.1935(8) 0.1521(18)
H31 H 0.0912 0.1731 0.0825
C39 C 0.1684(18) 0.1746(6) 0.2498(16)
H32 H 0.2117 0.1415 0.2460
C40 C 0.1757(13) 0.2042(5) 0.3520(13)
H33 H 0.2245 0.1913 0.4178
C41 C 0.5663(10) 0.4625(4) 0.6603(9)
H34 H 0.5389 0.4272 0.6740
C42 C 0.5574(14) 0.4999(6) 0.7501(12)
H35 H 0.5301 0.4898 0.8258
C43 C 0.5895(18) 0.5526(7) 0.7259(17)
H36 H 0.5796 0.5790 0.7841
C44 C 0.6349(17) 0.5657(5) 0.6186(16)
H37 H 0.6555 0.6016 0.6030
C45 C 0.6527(11) 0.5277(4) 0.5289(12)
H38 H 0.6894 0.5372 0.4562
C46 C 0.6146(9) 0.4762(3) 0.5512(9)
N9 N 0.5370(7) 0.3193(3) 0.6618(6)
C9 C 0.6515(10) 0.3032(5) 0.8444(9)
H10 H 0.7316 0.2942 0.8833
C11 C 0.5403(9) 0.3134(4) 0.9086(7)
C15 C 0.4264(10) 0.3252(5) 0.8416(9)
H12 H 0.3461 0.3310 0.8801
C16 C 0.4290(9) 0.3283(5) 0.7241(9)
H13 H 0.3502 0.3372 0.6829
C25 C 0.6451(10) 0.3064(5) 0.7236(8)
H21 H 0.7224 0.2989 0.6819
N4 N 0.8806(7) 0.9811(3) 0.5166(6)
C18 C 0.7513(9) 0.9912(4) 0.5122(10)
H15 H 0.6921 0.9623 0.5123
Co5 Co 0.95299(13) 0.90221(5) 0.51895(11)
N6 N 0.4630(7) 0.8193(3) 0.3382(6)
C9_2 C 0.3485(10) 0.8032(5) 0.1556(9)
H10_2 H 0.2684 0.7942 0.1167
C11_2 C 0.4597(9) 0.8134(4) 0.0914(7)
C15_2 C 0.5736(10) 0.8252(5) 0.1584(9)
H12_2 H 0.6539 0.8310 0.1199
C16_2 C 0.5710(9) 0.8283(5) 0.2759(9)
H13_2 H 0.6498 0.8372 0.3171
C25_2 C 0.3549(10) 0.8064(5) 0.2764(8)
H21_2 H 0.2776 0.7989 0.3181
Co6 Co 0.45554(13) 0.81882(5) 0.52659(11)
O1_2 O 0.6469(6) 0.7952(2) 0.5311(5)
O2_2 O 0.1462(6) 0.9254(2) 0.5188(5)
O3 O 0.7674(6) 0.8691(2) 0.5186(5)
O4_2 O 0.2657(6) 0.8515(2) 0.5132(5)
O5 O 0.9910(6) 0.8182(3) 0.5192(5)
O6_2 O 0.4873(6) 0.9029(3) 0.5509(6)
H2_2 H 0.546(5) 0.909(3) 0.610(6)
N1_2 N 0.4539(7) 0.8125(3) 0.7169(6)
N5_2 N 0.3745(7) 0.7408(3) 0.5154(6)
C1_2 C 0.3491(9) 0.8237(4) 0.7783(8)
H3_2 H 0.2711 0.8327 0.7359
C2_2 C 0.0650(10) 0.8959(5) 0.1492(8)
H4_2 H 0.1449 0.8884 0.1113
C3_2 C 0.0583(9) 0.8941(5) 0.2687(8)
H5_2 H 0.1359 0.8845 0.3109
C4_2 C 0.3439(10) 0.8234(4) 0.8991(8)
H6_2 H 0.2644 0.8307 0.9376
C5_2 C 0.2509(8) 0.8999(3) 0.5237(6)
C10_2 C 0.4570(9) 0.8121(4) 0.9622(8)
C14_2 C 0.5659(10) 0.7980(5) 0.9001(9)
H11_2 H 0.6445 0.7880 0.9403
C18_2 C 0.2487(9) 0.4912(4) 0.4878(10)
H15_2 H 0.3079 0.4623 0.4877
C19_2 C 0.7554(8) 0.8188(4) 0.5273(6)
C20_2 C 0.8772(9) 0.7849(3) 0.5319(8)
H16_2 H 0.8731 0.7601 0.4638
C21_2 C 0.5604(10) 0.7984(5) 0.7796(9)
H17_2 H 0.6363 0.7880 0.7389
C24_2 C 0.0384(10) 0.5229(4) 0.4829(11)
C26_2 C 0.2166(9) 0.5849(3) 0.4917(8)
C27_2 C 0.2707(8) 0.6394(3) 0.4988(8)
C28_2 C 0.2989(9) 0.5410(4) 0.4922(11)
H22_2 H 0.3912 0.5459 0.4956
C29_2 C 0.3743(9) 0.9355(3) 0.5428(9)
H23_2 H 0.3655 0.9543 0.6192
C30_2 C 0.2580(8) 0.7301(3) 0.5559(8)
H24_2 H 0.2093 0.7579 0.5899
C31_2 C 0.0839(10) 0.5753(4) 0.4849(12)
H25_2 H 0.0235 0.6038 0.4816
C32_2 C 0.4416(9) 0.7020(3) 0.4659(9)
H26_2 H 0.5258 0.7095 0.4363
C33_2 C 0.3929(9) 0.6507(3) 0.4558(9)
H27_2 H 0.4432 0.6239 0.4199
C34_2 C 0.2027(8) 0.6798(3) 0.5511(9)
H28_2 H 0.1192 0.6734 0.5835
C35_2 C 0.8881(8) 0.7525(3) 0.6414(8)
C36_2 C 0.9549(12) 0.7707(4) 0.7398(10)
H29_2 H 0.9965 0.8042 0.7377
C37_2 C 0.9626(15) 0.7408(6) 0.8422(12)
C38_2 C 0.9028(19) 0.6935(8) 0.8479(18)
H31_2 H 0.9088 0.6731 0.9175
C39_2 C 0.8316(18) 0.6746(6) 0.7502(16)
H32_2 H 0.7883 0.6415 0.7540
C40_2 C 0.8243(13) 0.7042(5) 0.6480(13)
H33_2 H 0.7755 0.6913 0.5822
C41_2 C 0.4337(10) 0.9625(4) 0.3397(9)
H34_2 H 0.4611 0.9272 0.3260
C42_2 C 0.4426(14) 0.9999(6) 0.2499(12)
H35_2 H 0.4699 0.9898 0.1742
C46_2 C 0.3854(9) 0.9762(3) 0.4488(9)
N2_2 N 0.9517(7) 0.9046(3) 0.3313(6)
C7_2 C 0.8429(9) 0.9181(4) 0.2666(8)
H8_2 H 0.7651 0.9260 0.3072
C13_2 C 0.9516(9) 0.9089(4) 0.0838(8)
C23_2 C 0.8387(9) 0.9211(4) 0.1462(7)
H19_2 H 0.7603 0.9312 0.1059
H20_2 H 0.9465 0.5168 0.4810
N7 N 0.9560(7) 0.9064(3) 0.7085(6)
C6_2 C 0.8451(10) 0.8972(5) 0.7669(8)
H7_2 H 0.7669 0.8889 0.7241
C8_2 C 0.8423(10) 0.8997(5) 0.8886(8)
H9_2 H 0.7616 0.8938 0.9265
C12_2 C 0.9525(9) 0.9102(4) 0.9554(7)
C17 C 0.9358(10) 0.4189(4) 0.2261(9)
H14 H 0.8566 0.4262 0.2652
C22 C 0.9353(10) 0.4214(4) 0.1085(8)
H18 H 0.8568 0.4310 0.0677
H1 H 0.934(6) 0.318(5) 0.521(8)
H30 H 0.9897 0.2539 0.0917
H1_2 H 0.066(6) 0.818(5) 0.479(8)
H30_2 H 0.0103 0.7539 0.9083
C43_2 C 0.4105(18) 0.0526(7) 0.2741(17)
H36_2 H 0.4204 0.0790 0.2159
C44_2 C 0.3651(17) 0.0657(5) 0.3814(16)
H37_2 H 0.3445 0.1016 0.3970
C45_2 C 0.3473(11) 0.0277(4) 0.4711(12)
H38_2 H 0.3106 0.0372 0.5438
C17_2 C 0.0642(10) 0.9189(4) 0.7739(9)
H14_2 H 0.1434 0.9262 0.7348
C22_2 C 0.0647(10) 0.9214(4) 0.8915(8)
H18_2 H 0.1432 0.9310 0.9323
S1 S 0.0140(3) 0.25390(14) 0.7731(3)
O11 O 0.1460(10) 0.2768(5) 0.7666(10)
C47 C 0.055(2) 0.1823(8) 0.7530(17)
F1 F 0.1384(17) 0.1680(6) 0.8426(13)
F2 F 0.1174(19) 0.1742(5) 0.6556(12)
O9 O 0.9313(7) 0.2648(3) 0.6729(7)
O10 O 0.9576(10) 0.2636(7) 0.8853(9)
F3 F 0.9450(13) 0.1555(5) 0.7498(13)
O9_2 O 0.0687(7) 0.7648(3) 0.3271(7)
O10_2 O 0.0424(10) 0.7636(7) 0.1147(9)
F3_2 F 0.0550(13) 0.6555(5) 0.2502(13)
S1_2 S 0.9860(3) 0.75390(14) 0.2269(3)
O11_2 O 0.8540(10) 0.7768(5) 0.2334(10)
C47_2 C 0.945(2) 0.6823(8) 0.2470(17)
F1_2 F 0.8616(17) 0.6680(6) 0.1574(13)
F2_2 F 0.8826(19) 0.6742(5) 0.3444(12)
S2 S 0.5052(3) 0.45677(12) 0.1367(2)
F4 F 0.3333(15) 0.5313(6) 0.1456(16)
F5 F 0.5117(18) 0.5529(5) 0.0660(14)
F6 F 0.5035(19) 0.5436(5) 0.2556(15)
O12 O 0.6445(8) 0.4574(4) 0.1505(7)
O13 O 0.4388(8) 0.4323(4) 0.2325(7)
O14 O 0.4578(10) 0.4427(5) 0.0240(8)
C48 C 0.462(2) 0.5241(8) 0.151(2)
F4_2 F 0.6667(15) 0.0313(6) 0.8544(16)
F5_2 F 0.4883(18) 0.0529(5) 0.9340(14)
F6_2 F 0.4965(19) 0.0436(5) 0.7444(15)
C48_2 C 0.538(2) 0.0241(8) 0.849(2)
S2_2 S 0.4948(3) 0.95677(12) 0.8633(2)
O12_2 O 0.3555(8) 0.9574(4) 0.8495(7)
O13_2 O 0.5612(8) 0.9323(4) 0.7675(7)
O14_2 O 0.5422(10) 0.9427(5) 0.9760(8)
loop_
_geom_bond_atom_site_label_1
_geom_bond_atom_site_label_2
_geom_bond_site_symmetry_1
_geom_bond_site_symmetry_2
N3 C6 1_555 1_555
C6 H7 1_555 1_555
C8 C6 1_555 1_555
H9 C8 1_555 1_555
C12 C8 1_555 1_555
Co4 N3 1_555 1_555
N2 Co4 1_555 1_555
C7 N2 1_555 1_555
H8 C7 1_555 1_555
C23 C7 1_555 1_555
H19 C23 1_555 1_555
O7 Co4 1_555 1_555
O8 Co4 1_555 1_555
N8 Co4 1_555 1_555
C13 C23 1_555 1_555
Co2 O1 1_555 1_555
O1 C19 1_555 1_555
O2 C5 1_555 1_555
O7 C19 1_555 1_555
O4 Co2 1_555 1_555
O6 Co2 1_555 1_555
H2 O6 1_555 1_555
N1 Co2 1_555 1_555
N5 Co2 1_555 1_555
C1 N1 1_555 1_555
H3 C1 1_555 1_555
C2 H4 1_555 1_555
H5 C3 1_555 1_555
C4 C1 1_555 1_555
H6 C4 1_555 1_555
C5 O4 1_555 1_555
C10 C4 1_555 1_555
C14 C10 1_555 1_555
H11 C14 1_555 1_555
C19 C20 1_555 1_555
C20 O8 1_555 1_555
H16 C20 1_555 1_555
C21 N1 1_555 1_555
H17 C21 1_555 1_555
C26 C27 1_555 1_555
C27 C33 1_555 1_555
H22 C28 1_555 1_555
C29 O6 1_555 1_555
H23 C29 1_555 1_555
C30 N5 1_555 1_555
H24 C30 1_555 1_555
C31 C24 1_555 1_555
H25 C31 1_555 1_555
C32 N5 1_555 1_555
H26 C32 1_555 1_555
C33 C32 1_555 1_555
H27 C33 1_555 1_555
C34 C27 1_555 1_555
H28 C34 1_555 1_555
C35 C20 1_555 1_555
C36 C35 1_555 1_555
H29 C36 1_555 1_555
C37 C36 1_555 1_555
C38 C37 1_555 1_555
H31 C38 1_555 1_555
C39 C38 1_555 1_555
H32 C39 1_555 1_555
C40 C35 1_555 1_555
H33 C40 1_555 1_555
C41 H34 1_555 1_555
C42 C41 1_555 1_555
H35 C42 1_555 1_555
C43 C42 1_555 1_555
H36 C43 1_555 1_555
C44 C43 1_555 1_555
H37 C44 1_555 1_555
C45 C44 1_555 1_555
H38 C45 1_555 1_555
C46 C29 1_555 1_555
N9 Co2 1_555 1_555
C2 C3 1_555 1_555
C5 C29 1_555 1_555
C14 C21 1_555 1_555
C26 C28 1_555 1_555
C26 C31 1_555 1_555
C30 C34 1_555 1_555
C39 C40 1_555 1_555
C41 C46 1_555 1_555
C45 C46 1_555 1_555
N9 C16 1_555 1_555
C9 H10 1_555 1_555
C11 C9 1_555 1_555
C15 C11 1_555 1_555
H12 C15 1_555 1_555
C16 C15 1_555 1_555
H13 C16 1_555 1_555
C25 N9 1_555 1_555
H21 C25 1_555 1_555
C9 C25 1_555 1_555
N4 C18 1_555 1_555
C18 H15 1_555 1_555
Co5 N4 1_555 1_555
N6 C16_2 1_555 1_555
C9_2 H10_2 1_555 1_555
C11_2 C9_2 1_555 1_555
C15_2 C11_2 1_555 1_555
H12_2 C15_2 1_555 1_555
C16_2 C15_2 1_555 1_555
H13_2 C16_2 1_555 1_555
C25_2 N6 1_555 1_555
H21_2 C25_2 1_555 1_555
Co6 N6 1_555 1_555
C9_2 C25_2 1_555 1_555
Co6 O1_2 1_555 1_555
O1_2 C19_2 1_555 1_555
O2_2 C5_2 1_555 1_555
O3 C19_2 1_555 1_555
O4_2 Co6 1_555 1_555
O6_2 Co6 1_555 1_555
H2_2 O6_2 1_555 1_555
N1_2 Co6 1_555 1_555
N8 C18_2 1_555 1_555
N5_2 Co6 1_555 1_555
C1_2 N1_2 1_555 1_555
H3_2 C1_2 1_555 1_555
C2_2 H4_2 1_555 1_555
H5_2 C3_2 1_555 1_555
C4_2 C1_2 1_555 1_555
H6_2 C4_2 1_555 1_555
C5_2 O4_2 1_555 1_555
C10_2 C4_2 1_555 1_555
C14_2 C10_2 1_555 1_555
H11_2 C14_2 1_555 1_555
C18_2 H15_2 1_555 1_555
C19_2 C20_2 1_555 1_555
C20_2 O5 1_555 1_555
H16_2 C20_2 1_555 1_555
C21_2 N1_2 1_555 1_555
H17_2 C21_2 1_555 1_555
C24_2 N8 1_555 1_555
C26_2 C27_2 1_555 1_555
C27_2 C33_2 1_555 1_555
C28_2 C18_2 1_555 1_555
H22_2 C28_2 1_555 1_555
C29_2 O6_2 1_555 1_555
H23_2 C29_2 1_555 1_555
C30_2 N5_2 1_555 1_555
H24_2 C30_2 1_555 1_555
C31_2 C24_2 1_555 1_555
H25_2 C31_2 1_555 1_555
C32_2 N5_2 1_555 1_555
H26_2 C32_2 1_555 1_555
C33_2 C32_2 1_555 1_555
H27_2 C33_2 1_555 1_555
C34_2 C27_2 1_555 1_555
H28_2 C34_2 1_555 1_555
C35_2 C20_2 1_555 1_555
C36_2 C35_2 1_555 1_555
H29_2 C36_2 1_555 1_555
C37_2 C36_2 1_555 1_555
C38_2 C37_2 1_555 1_555
H31_2 C38_2 1_555 1_555
C39_2 C38_2 1_555 1_555
H32_2 C39_2 1_555 1_555
C40_2 C35_2 1_555 1_555
H33_2 C40_2 1_555 1_555
C41_2 H34_2 1_555 1_555
C42_2 C41_2 1_555 1_555
H35_2 C42_2 1_555 1_555
C46_2 C29_2 1_555 1_555
Co5 O3 1_555 1_555
O5 Co5 1_555 1_555
C2_2 C3_2 1_555 1_555
C5_2 C29_2 1_555 1_555
C14_2 C21_2 1_555 1_555
C26_2 C28_2 1_555 1_555
C26_2 C31_2 1_555 1_555
C30_2 C34_2 1_555 1_555
C39_2 C40_2 1_555 1_555
C41_2 C46_2 1_555 1_555
N2_2 Co5 1_555 1_555
C7_2 N2_2 1_555 1_555
H8_2 C7_2 1_555 1_555
C23_2 C7_2 1_555 1_555
H19_2 C23_2 1_555 1_555
N7 Co5 1_555 1_555
C13_2 C23_2 1_555 1_555
N7 C6_2 1_555 1_555
C6_2 H7_2 1_555 1_555
C8_2 C6_2 1_555 1_555
H9_2 C8_2 1_555 1_555
C12_2 C8_2 1_555 1_555
H14 C17 1_555 1_555
H18 C22 1_555 1_555
C17 C22 1_555 1_555
H36_2 C43_2 1_555 1_555
C44_2 C43_2 1_555 1_555
H37_2 C44_2 1_555 1_555
C45_2 C44_2 1_555 1_555
H38_2 C45_2 1_555 1_555
H14_2 C17_2 1_555 1_555
H18_2 C22_2 1_555 1_555
C17_2 C22_2 1_555 1_555
O11 S1 1_555 1_555
C47 S1 1_555 1_555
F1 C47 1_555 1_555
F2 C47 1_555 1_555
O11_2 S1_2 1_555 1_555
C47_2 S1_2 1_555 1_555
F1_2 C47_2 1_555 1_555
F2_2 C47_2 1_555 1_555
S2 O12 1_555 1_555
F4 C48 1_555 1_555
F5 C48 1_555 1_555
F6 C48 1_555 1_555
O13 S2 1_555 1_555
O14 S2 1_555 1_555
C48 S2 1_555 1_555
F4_2 C48_2 1_555 1_555
F5_2 C48_2 1_555 1_555
F6_2 C48_2 1_555 1_555
S2_2 O12_2 1_555 1_555
O13_2 S2_2 1_555 1_555
O14_2 S2_2 1_555 1_555

#END
