
###############################################################################
#
# This file contains modified crystal structure data generated from the
# MOF subset of the Cambridge Structural Database (CSD) v543 
# hosted by the Cambridge Crystallographic Data Centre (CCDC).
#
# This work is licensed under the Creative Commons
# Attribution-NonCommercial-ShareAlike 4.0 International License.
# To view a copy of this license, visit
# http://creativecommons.org/licenses/by-nc-sa/4.0/
# or send a letter to
# Creative Commons, PO Box 1866, Mountain View, CA 94042, USA.
#
# CIF created using the CSD Python API on 29 September 2022
# The structure has been converted into the P1 space group
# The structure has a 3D framework
# The original CSD entry NEHLOC is in the monoclinic crystal system
# The framework has been calculated to contain at least 10.0% void space
# The void calculation uses a probe of radius 1.32A, grid spacing 0.4
# The framework is charged, counterions have been retained in the structure
#
###############################################################################

data_NEHLOC
_chemical_formula_moiety         '(C144 H96 Ag4 Cl4 N24 O16)n'
_symmetry_cell_setting           triclinic
_symmetry_space_group_name_H-M   'P 1'
_symmetry_Int_Tables_number      1
_space_group_name_Hall           'P 1'
loop_
_symmetry_equiv_pos_site_id
_symmetry_equiv_pos_as_xyz
1 x,y,z
_cell_length_a                   11.147(2)
_cell_length_b                   25.605(4)
_cell_length_c                   13.295(3)
_cell_angle_alpha                90
_cell_angle_beta                 107.341(9)
_cell_angle_gamma                90
_cell_volume                     3622.17
loop_
_atom_site_label
_atom_site_type_symbol
_atom_site_fract_x
_atom_site_fract_y
_atom_site_fract_z
Ag2 Ag 0.09470(3) 0.07819(1) 0.15404(4)
N1 N 0.2703(3) 0.0293(1) 0.1620(3)
N2 N 0.9625(3) 0.0176(1) 0.2184(3)
C10 C 0.3564(4) 0.0444(2) 0.1161(4)
C11 C 0.4696(4) 0.0188(2) 0.1297(3)
C13 C 0.7690(4) 0.0176(1) 0.2627(3)
C14 C 0.8833(4) 0.0392(2) 0.2649(3)
H3 H 0.3388 0.0746 0.0718
H4 H 0.5288 0.0317 0.0963
H5 H 0.7149 0.0352 0.2952
H6 H 0.9079 0.0710 0.3026
N8 N 0.0700(4) 0.1569(1) 0.2407(3)
N4 N 0.7666(4) 0.6492(2) 0.2242(4)
N5 N 0.4300(4) 0.6569(1) 0.2593(3)
N6 N 0.0955(3) 0.9019(1) 0.0064(3)
C1 C 0.6097(3) 0.8910(1) 0.2135(3)
C2 C 0.6729(3) 0.8422(1) 0.2386(3)
C3 C 0.5393(3) 0.8435(1) 0.1999(3)
C4 C 0.6135(3) 0.9439(1) 0.2070(3)
C5 C 0.7813(3) 0.8146(1) 0.2739(3)
C6 C 0.4279(3) 0.8178(1) 0.1704(3)
C7 C 0.4972(3) 0.9745(1) 0.1923(3)
C8 C 0.4074(4) 0.9588(2) 0.2400(3)
C9 C 0.2975(4) 0.9868(2) 0.2232(4)
C12 C 0.7335(3) 0.9699(1) 0.2123(3)
C15 C 0.9272(4) 0.9722(2) 0.1690(3)
C16 C 0.8170(3) 0.9471(1) 0.1650(3)
C17 C 0.8992(3) 0.8421(2) 0.3244(3)
C18 C 0.8999(4) 0.8865(2) 0.3851(4)
C22 C 0.7782(3) 0.7575(1) 0.2597(3)
C23 C 0.8566(4) 0.7236(2) 0.3319(4)
C24 C 0.8458(5) 0.6702(2) 0.3092(5)
C25 C 0.6940(5) 0.6817(2) 0.1575(4)
C26 C 0.6953(4) 0.7355(2) 0.1703(4)
C27 C 0.4252(3) 0.7622(1) 0.1983(3)
C28 C 0.5013(4) 0.7450(2) 0.2953(3)
C29 C 0.5006(4) 0.6931(2) 0.3217(4)
C30 C 0.3573(4) 0.6734(2) 0.1662(4)
C31 C 0.3514(4) 0.7246(2) 0.1325(4)
C32 C 0.3133(3) 0.8457(1) 0.1137(3)
C33 C 0.1961(4) 0.8343(2) 0.1267(3)
C34 C 0.0925(4) 0.8633(2) 0.0733(4)
C36 C 0.3164(4) 0.8862(2) 0.0450(3)
H1 H 0.4219 0.9287 0.2842
H2 H 0.2373 0.9755 0.2566
H7 H 0.9817 0.9563 0.1342
H8 H 0.7977 0.9141 0.1301
H9 H 0.8242 0.8984 0.3975
H13 H 0.9150 0.7366 0.3952
H14 H 0.9009 0.6471 0.3583
H15 H 0.6352 0.6674 0.0945
H16 H 0.6394 0.7574 0.1191
H17 H 0.5541 0.7690 0.3435
H18 H 0.5548 0.6825 0.3893
H19 H 0.3064 0.6482 0.1193
H20 H 0.2975 0.7341 0.0641
H21 H 0.1886 0.8069 0.1733
H22 H 0.0141 0.8554 0.0850
H24 H 0.3942 0.8958 0.0336
Ag3 Ag 0.40530(3) 0.57819(1) 0.34596(4)
N9 N 0.9045(3) 0.0981(1) 0.9936(3)
Ag4 Ag 0.90530(3) 0.92181(1) 0.84596(4)
N1_2 N 0.2297(3) 0.5293(1) 0.3380(3)
N6_2 N 0.4045(3) 0.4019(1) 0.4936(3)
C6_2 C 0.0721(3) 0.3178(1) 0.3296(3)
C7_2 C 0.0028(3) 0.4745(1) 0.3077(3)
C8_2 C 0.0926(4) 0.4588(2) 0.2600(3)
C9_2 C 0.2025(4) 0.4868(2) 0.2768(4)
C10_2 C 0.1436(4) 0.5444(2) 0.3839(4)
C11_2 C 0.0304(4) 0.5188(2) 0.3703(3)
C27_2 C 0.0748(3) 0.2622(1) 0.3017(3)
C30_2 C 0.1427(4) 0.1734(2) 0.3338(4)
C31_2 C 0.1486(4) 0.2246(2) 0.3675(4)
C32_2 C 0.1867(3) 0.3457(1) 0.3863(3)
C33_2 C 0.3039(4) 0.3343(2) 0.3733(3)
C34_2 C 0.4075(4) 0.3633(2) 0.4267(4)
C35 C 0.2924(4) 0.4128(2) 0.5063(3)
C36_2 C 0.1836(4) 0.3862(2) 0.4550(3)
H1_2 H 0.0781 0.4287 0.2158
H2_2 H 0.2627 0.4755 0.2434
H3_2 H 0.1612 0.5746 0.4282
H19_2 H 0.1936 0.1482 0.3807
H20_2 H 0.2025 0.2341 0.4359
H21_2 H 0.3114 0.3069 0.3267
H22_2 H 0.4859 0.3554 0.4150
H23 H 0.2871 0.4405 0.5532
H24_2 H 0.1058 0.3958 0.4664
Ag4_2 Ag 0.59470(3) 0.42181(1) 0.65404(4)
N7 N 0.5375(3) 0.5176(1) 0.2816(3)
N9_2 N 0.5955(3) 0.5981(1) 0.5064(3)
N3 N 0.3795(4) 0.3986(2) 0.0836(4)
N4_2 N 0.7334(4) 0.1492(2) 0.2758(4)
C1_2 C 0.8903(3) 0.3910(1) 0.2865(3)
C2_2 C 0.8271(3) 0.3422(1) 0.2614(3)
C3_2 C 0.9607(3) 0.3435(1) 0.3001(3)
C4_2 C 0.8865(3) 0.4439(1) 0.2930(3)
C5_2 C 0.7187(3) 0.3146(1) 0.2261(3)
C12_2 C 0.7665(3) 0.4699(1) 0.2877(3)
C13_2 C 0.7310(4) 0.5176(1) 0.2373(3)
C14_2 C 0.6167(4) 0.5392(2) 0.2351(3)
C15_2 C 0.5728(4) 0.4722(2) 0.3310(3)
C16_2 C 0.6830(3) 0.4471(1) 0.3350(3)
C17_2 C 0.6008(3) 0.3421(2) 0.1756(3)
C18_2 C 0.6001(4) 0.3865(2) 0.1149(4)
C19 C 0.4890(5) 0.4130(2) 0.0719(4)
C20 C 0.3798(4) 0.3555(2) 0.1386(5)
C21 C 0.4858(4) 0.3261(2) 0.1857(4)
C22_2 C 0.7218(3) 0.2575(1) 0.2403(3)
C23_2 C 0.6434(4) 0.2236(2) 0.1681(4)
C24_2 C 0.6542(5) 0.1702(2) 0.1908(5)
C25_2 C 0.8060(5) 0.1817(2) 0.3425(4)
C26_2 C 0.8047(4) 0.2355(2) 0.3297(4)
C28_2 C 0.9987(4) 0.2450(2) 0.2047(3)
C29_2 C 0.9994(4) 0.1931(2) 0.1783(4)
H4_2 H 0.9712 0.5317 0.4037
H5_2 H 0.7851 0.5352 0.2048
H6_2 H 0.5921 0.5710 0.1974
H7_2 H 0.5183 0.4563 0.3658
H8_2 H 0.7023 0.4141 0.3699
H9_2 H 0.6758 0.3984 0.1025
H10 H 0.4909 0.4439 0.0318
H11 H 0.3005 0.3439 0.1465
H12 H 0.4800 0.2951 0.2245
H13_2 H 0.5850 0.2366 0.1048
H14_2 H 0.5991 0.1471 0.1417
H15_2 H 0.8648 0.1674 0.4055
H16_2 H 0.8606 0.2574 0.3809
H17_2 H 0.9459 0.2690 0.1565
H18_2 H 0.9452 0.1825 0.1107
N7_2 N 0.0375(3) 0.9824(1) 0.7816(3)
N4_3 N 0.2334(4) 0.3508(2) 0.7758(4)
N5_2 N 0.5700(4) 0.3431(1) 0.7407(3)
C1_3 C 0.3903(3) 0.1090(1) 0.7865(3)
C2_3 C 0.3271(3) 0.1578(1) 0.7614(3)
C3_3 C 0.4607(3) 0.1565(1) 0.8001(3)
C4_3 C 0.3865(3) 0.0561(1) 0.7930(3)
C5_3 C 0.2187(3) 0.1854(1) 0.7261(3)
C6_3 C 0.5721(3) 0.1822(1) 0.8296(3)
C7_3 C 0.5028(3) 0.0255(1) 0.8077(3)
C8_3 C 0.5926(4) 0.0412(2) 0.7600(3)
C9_3 C 0.7025(4) 0.0132(2) 0.7768(4)
C12_3 C 0.2665(3) 0.0301(1) 0.7877(3)
C15_3 C 0.0728(4) 0.0278(2) 0.8310(3)
C16_3 C 0.1830(3) 0.0529(1) 0.8350(3)
C17_3 C 0.1008(3) 0.1579(2) 0.6756(3)
C18_3 C 0.1001(4) 0.1135(2) 0.6149(4)
C22_3 C 0.2218(3) 0.2425(1) 0.7403(3)
C23_3 C 0.1434(4) 0.2764(2) 0.6681(4)
C24_3 C 0.1542(5) 0.3298(2) 0.6908(5)
C25_3 C 0.3060(5) 0.3183(2) 0.8425(4)
C26_3 C 0.3047(4) 0.2645(2) 0.8297(4)
C27_3 C 0.5748(3) 0.2378(1) 0.8017(3)
C28_3 C 0.4987(4) 0.2550(2) 0.7047(3)
C29_3 C 0.4994(4) 0.3069(2) 0.6783(4)
C30_3 C 0.6427(4) 0.3266(2) 0.8338(4)
C31_3 C 0.6486(4) 0.2754(2) 0.8675(4)
C32_3 C 0.6867(3) 0.1543(1) 0.8863(3)
C33_3 C 0.8039(4) 0.1657(2) 0.8733(3)
C34_3 C 0.9075(4) 0.1367(2) 0.9267(4)
C36_3 C 0.6836(4) 0.1138(2) 0.9550(3)
H1_3 H 0.5781 0.0713 0.7158
H2_3 H 0.7627 0.0245 0.7434
H7_3 H 0.0183 0.0437 0.8658
H8_3 H 0.2023 0.0859 0.8699
H9_3 H 0.1758 0.1016 0.6025
H13_3 H 0.0850 0.2634 0.6048
H14_3 H 0.0991 0.3529 0.6417
H15_3 H 0.3648 0.3326 0.9055
H16_3 H 0.3606 0.2426 0.8809
H17_3 H 0.4459 0.2310 0.6565
H18_3 H 0.4452 0.3175 0.6107
H19_3 H 0.6936 0.3518 0.8807
H20_3 H 0.7025 0.2659 0.9359
H21_3 H 0.8114 0.1931 0.8267
H22_3 H 0.9859 0.1446 0.9150
H24_3 H 0.6058 0.1042 0.9664
N1_3 N 0.7297(3) 0.9707(1) 0.8380(3)
C10_3 C 0.6436(4) 0.9556(2) 0.8839(4)
C11_3 C 0.5304(4) 0.9812(2) 0.8703(3)
C13_3 C 0.2310(4) 0.9824(1) 0.7373(3)
C14_3 C 0.1167(4) 0.9608(2) 0.7351(3)
H3_3 H 0.6612 0.9254 0.9282
H4_3 H 0.4712 0.9683 0.9037
H5_3 H 0.2851 0.9648 0.7048
H6_3 H 0.0921 0.9290 0.6974
N8_2 N 0.9300(4) 0.8431(1) 0.7593(3)
N2_2 N 0.4625(3) 0.4824(1) 0.7184(3)
N3_2 N 0.6205(4) 0.6014(2) 0.9164(4)
N4_4 N 0.2666(4) 0.8508(2) 0.7242(4)
C1_4 C 0.1097(3) 0.6090(1) 0.7135(3)
C2_4 C 0.1729(3) 0.6578(1) 0.7386(3)
C3_4 C 0.0393(3) 0.6565(1) 0.6999(3)
C4_4 C 0.1135(3) 0.5561(1) 0.7070(3)
C5_4 C 0.2813(3) 0.6854(1) 0.7739(3)
C12_4 C 0.2335(3) 0.5301(1) 0.7123(3)
C13_4 C 0.2690(4) 0.4824(1) 0.7627(3)
C14_4 C 0.3833(4) 0.4608(2) 0.7649(3)
C15_4 C 0.4272(4) 0.5278(2) 0.6690(3)
C16_4 C 0.3170(3) 0.5529(1) 0.6650(3)
C17_4 C 0.3992(3) 0.6579(2) 0.8244(3)
C18_4 C 0.3999(4) 0.6135(2) 0.8851(4)
C19_2 C 0.5110(5) 0.5870(2) 0.9281(4)
C20_2 C 0.6202(4) 0.6445(2) 0.8614(5)
C21_2 C 0.5142(4) 0.6739(2) 0.8143(4)
C22_4 C 0.2782(3) 0.7425(1) 0.7597(3)
C23_4 C 0.3566(4) 0.7764(2) 0.8319(4)
C24_4 C 0.3458(5) 0.8298(2) 0.8092(5)
C25_4 C 0.1940(5) 0.8183(2) 0.6575(4)
C26_4 C 0.1953(4) 0.7645(2) 0.6703(4)
C28_4 C 0.0013(4) 0.7550(2) 0.7953(3)
C29_4 C 0.0006(4) 0.8069(2) 0.8217(4)
H4_4 H 0.0288 0.4683 0.5963
H5_4 H 0.2149 0.4648 0.7952
H6_4 H 0.4079 0.4290 0.8026
H7_4 H 0.4817 0.5437 0.6342
H8_4 H 0.2977 0.5859 0.6301
H9_4 H 0.3242 0.6016 0.8975
H10_2 H 0.5091 0.5561 0.9682
H11_2 H 0.6995 0.6561 0.8535
H12_2 H 0.5200 0.7049 0.7755
H13_4 H 0.4150 0.7634 0.8952
H14_4 H 0.4009 0.8529 0.8583
H15_4 H 0.1352 0.8326 0.5945
H16_4 H 0.1394 0.7426 0.6191
H17_4 H 0.0541 0.7310 0.8435
H18_4 H 0.0548 0.8175 0.8893
N1_4 N 0.7703(3) 0.4707(1) 0.6620(3)
C6_4 C 0.9279(3) 0.6822(1) 0.6704(3)
C7_4 C 0.9972(3) 0.5255(1) 0.6923(3)
C8_4 C 0.9074(4) 0.5412(2) 0.7400(3)
C9_4 C 0.7975(4) 0.5132(2) 0.7232(4)
C10_4 C 0.8564(4) 0.4556(2) 0.6161(4)
C11_4 C 0.9696(4) 0.4812(2) 0.6297(3)
C27_4 C 0.9252(3) 0.7378(1) 0.6983(3)
C30_4 C 0.8573(4) 0.8266(2) 0.6662(4)
C31_4 C 0.8514(4) 0.7754(2) 0.6325(4)
C32_4 C 0.8133(3) 0.6543(1) 0.6137(3)
C33_4 C 0.6961(4) 0.6657(2) 0.6267(3)
C34_4 C 0.5925(4) 0.6367(2) 0.5733(4)
C35_2 C 0.7076(4) 0.5872(2) 0.4937(3)
C36_4 C 0.8164(4) 0.6138(2) 0.5450(3)
H1_4 H 0.9219 0.5713 0.7842
H2_4 H 0.7373 0.5245 0.7566
H3_4 H 0.8388 0.4254 0.5718
H19_4 H 0.8064 0.8518 0.6193
H20_4 H 0.7975 0.7659 0.5641
H21_4 H 0.6886 0.6931 0.6733
H22_4 H 0.5141 0.6446 0.5850
H23_2 H 0.7129 0.5595 0.4468
H24_4 H 0.8942 0.6042 0.5336
N3_3 N 0.1205(4) 0.8986(2) 0.4164(4)
C19_3 C 0.0110(5) 0.9130(2) 0.4281(4)
C20_3 C 0.1202(4) 0.8555(2) 0.3614(5)
C21_3 C 0.0142(4) 0.8261(2) 0.3143(4)
H10_3 H 0.0091 0.9439 0.4682
H11_3 H 0.1995 0.8439 0.3535
H12_3 H 0.0200 0.7951 0.2755
C35_3 C 0.2076(4) 0.9128(2) 0.9937(3)
H23_3 H 0.2129 0.9405 0.9468
C35_4 C 0.7924(4) 0.0872(2) 0.0063(3)
H23_4 H 0.7871 0.0595 0.0532
N3_4 N 0.8795(4) 0.1014(2) 0.5836(4)
C19_4 C 0.9890(5) 0.0870(2) 0.5719(4)
C20_4 C 0.8798(4) 0.1445(2) 0.6386(5)
C21_4 C 0.9858(4) 0.1739(2) 0.6857(4)
H10_4 H 0.9909 0.0561 0.5318
H11_4 H 0.8005 0.1561 0.6465
H12_4 H 0.9800 0.2049 0.7245
Cl1 Cl 0.2919(1) 0.18584(5) 0.0701(1)
O1 O 0.3821(4) 0.1709(2) 0.0177(4)
O2 O 0.1853(5) 0.1581(3) 0.0273(6)
O3 O 0.2802(9) 0.2388(2) 0.0716(7)
O4 O 0.3390(7) 0.1686(3) 0.1778(4)
Cl1_2 Cl 0.2081(1) 0.68584(5) 0.4299(1)
O1_2 O 0.1179(4) 0.6709(2) 0.4823(4)
O2_2 O 0.3147(5) 0.6581(3) 0.4727(6)
O3_2 O 0.2198(9) 0.7388(2) 0.4284(7)
O4_2 O 0.1610(7) 0.6686(3) 0.3222(4)
Cl1_3 Cl 0.7081(1) 0.81416(5) 0.9299(1)
O1_3 O 0.6179(4) 0.8291(2) 0.9823(4)
O2_3 O 0.8147(5) 0.8419(3) 0.9727(6)
O3_3 O 0.7198(9) 0.7612(2) 0.9284(7)
O4_3 O 0.6610(7) 0.8314(3) 0.8222(4)
Cl1_4 Cl 0.7919(1) 0.31416(5) 0.5701(1)
O1_4 O 0.8821(4) 0.3291(2) 0.5177(4)
O2_4 O 0.6853(5) 0.3419(3) 0.5273(6)
O3_4 O 0.7802(9) 0.2612(2) 0.5716(7)
O4_4 O 0.8390(7) 0.3314(3) 0.6778(4)
loop_
_geom_bond_atom_site_label_1
_geom_bond_atom_site_label_2
_geom_bond_site_symmetry_1
_geom_bond_site_symmetry_2
Ag2 N1 1_555 1_555
N2 C14 1_555 1_555
C10 N1 1_555 1_555
C14 C13 1_555 1_555
H3 C10 1_555 1_555
H4 C11 1_555 1_555
H5 C13 1_555 1_555
H6 C14 1_555 1_555
N8 Ag2 1_555 1_555
C10 C11 1_555 1_555
N4 C24 1_555 1_555
N5 C29 1_555 1_555
N6 C34 1_555 1_555
C1 C2 1_555 1_555
C2 C3 1_555 1_555
C3 C1 1_555 1_555
C4 C1 1_555 1_555
C5 C2 1_555 1_555
C6 C3 1_555 1_555
C7 C4 1_555 1_555
C8 C7 1_555 1_555
C9 C8 1_555 1_555
C12 C4 1_555 1_555
C16 C12 1_555 1_555
C17 C5 1_555 1_555
C18 C17 1_555 1_555
C22 C5 1_555 1_555
C23 C22 1_555 1_555
C24 C23 1_555 1_555
C25 N4 1_555 1_555
C26 C22 1_555 1_555
C27 C6 1_555 1_555
C28 C27 1_555 1_555
C29 C28 1_555 1_555
C30 N5 1_555 1_555
C31 C27 1_555 1_555
C32 C6 1_555 1_555
C33 C32 1_555 1_555
C34 C33 1_555 1_555
C36 C32 1_555 1_555
H1 C8 1_555 1_555
H2 C9 1_555 1_555
H7 C15 1_555 1_555
H8 C16 1_555 1_555
H9 C18 1_555 1_555
H13 C23 1_555 1_555
H14 C24 1_555 1_555
H15 C25 1_555 1_555
H16 C26 1_555 1_555
H17 C28 1_555 1_555
H18 C29 1_555 1_555
H19 C30 1_555 1_555
H20 C31 1_555 1_555
H21 C33 1_555 1_555
H22 C34 1_555 1_555
H24 C36 1_555 1_555
Ag3 N5 1_555 1_555
C15 C16 1_555 1_555
C25 C26 1_555 1_555
C30 C31 1_555 1_555
Ag3 N1_2 1_555 1_555
N1_2 C9_2 1_555 1_555
N6_2 C34_2 1_555 1_555
C8_2 C7_2 1_555 1_555
C9_2 C8_2 1_555 1_555
C10_2 N1_2 1_555 1_555
C11_2 C7_2 1_555 1_555
C27_2 C6_2 1_555 1_555
C30_2 N8 1_555 1_555
C31_2 C27_2 1_555 1_555
C32_2 C6_2 1_555 1_555
C33_2 C32_2 1_555 1_555
C34_2 C33_2 1_555 1_555
C35 N6_2 1_555 1_555
C36_2 C32_2 1_555 1_555
H1_2 C8_2 1_555 1_555
H2_2 C9_2 1_555 1_555
H3_2 C10_2 1_555 1_555
H19_2 C30_2 1_555 1_555
H20_2 C31_2 1_555 1_555
H21_2 C33_2 1_555 1_555
H22_2 C34_2 1_555 1_555
H23 C35 1_555 1_555
H24_2 C36_2 1_555 1_555
Ag4_2 N6_2 1_555 1_555
N7 Ag3 1_555 1_555
N9_2 Ag3 1_555 1_555
C10_2 C11_2 1_555 1_555
C30_2 C31_2 1_555 1_555
C35 C36_2 1_555 1_555
N7 C14_2 1_555 1_555
N3 C19 1_555 1_555
N4_2 C24_2 1_555 1_555
C1_2 C2_2 1_555 1_555
C2_2 C3_2 1_555 1_555
C3_2 C1_2 1_555 1_555
C4_2 C1_2 1_555 1_555
C5_2 C2_2 1_555 1_555
C12_2 C4_2 1_555 1_555
C13_2 C12_2 1_555 1_555
C14_2 C13_2 1_555 1_555
C15_2 N7 1_555 1_555
C16_2 C12_2 1_555 1_555
C17_2 C5_2 1_555 1_555
C18_2 C17_2 1_555 1_555
C19 C18_2 1_555 1_555
C20 N3 1_555 1_555
C21 C17_2 1_555 1_555
C22_2 C5_2 1_555 1_555
C23_2 C22_2 1_555 1_555
C24_2 C23_2 1_555 1_555
C25_2 N4_2 1_555 1_555
C26_2 C22_2 1_555 1_555
C29_2 C28_2 1_555 1_555
H5_2 C13_2 1_555 1_555
H6_2 C14_2 1_555 1_555
H7_2 C15_2 1_555 1_555
H8_2 C16_2 1_555 1_555
H9_2 C18_2 1_555 1_555
H10 C19 1_555 1_555
H11 C20 1_555 1_555
H12 C21 1_555 1_555
H13_2 C23_2 1_555 1_555
H14_2 C24_2 1_555 1_555
H15_2 C25_2 1_555 1_555
H16_2 C26_2 1_555 1_555
H17_2 C28_2 1_555 1_555
H18_2 C29_2 1_555 1_555
C15_2 C16_2 1_555 1_555
C20 C21 1_555 1_555
C25_2 C26_2 1_555 1_555
N4_3 C24_3 1_555 1_555
N5_2 C29_3 1_555 1_555
N9 C34_3 1_555 1_555
C1_3 C2_3 1_555 1_555
C2_3 C3_3 1_555 1_555
C3_3 C1_3 1_555 1_555
C4_3 C1_3 1_555 1_555
C5_3 C2_3 1_555 1_555
C6_3 C3_3 1_555 1_555
C7_3 C4_3 1_555 1_555
C8_3 C7_3 1_555 1_555
C9_3 C8_3 1_555 1_555
C12_3 C4_3 1_555 1_555
C16_3 C12_3 1_555 1_555
C17_3 C5_3 1_555 1_555
C18_3 C17_3 1_555 1_555
C22_3 C5_3 1_555 1_555
C23_3 C22_3 1_555 1_555
C24_3 C23_3 1_555 1_555
C25_3 N4_3 1_555 1_555
C26_3 C22_3 1_555 1_555
C27_3 C6_3 1_555 1_555
C28_3 C27_3 1_555 1_555
C29_3 C28_3 1_555 1_555
C30_3 N5_2 1_555 1_555
C31_3 C27_3 1_555 1_555
C32_3 C6_3 1_555 1_555
C33_3 C32_3 1_555 1_555
C34_3 C33_3 1_555 1_555
C36_3 C32_3 1_555 1_555
H1_3 C8_3 1_555 1_555
H2_3 C9_3 1_555 1_555
H7_3 C15_3 1_555 1_555
H8_3 C16_3 1_555 1_555
H9_3 C18_3 1_555 1_555
H13_3 C23_3 1_555 1_555
H14_3 C24_3 1_555 1_555
H15_3 C25_3 1_555 1_555
H16_3 C26_3 1_555 1_555
H17_3 C28_3 1_555 1_555
H18_3 C29_3 1_555 1_555
H19_3 C30_3 1_555 1_555
H20_3 C31_3 1_555 1_555
H21_3 C33_3 1_555 1_555
H22_3 C34_3 1_555 1_555
H24_3 C36_3 1_555 1_555
Ag4_2 N5_2 1_555 1_555
C15_3 C16_3 1_555 1_555
C25_3 C26_3 1_555 1_555
C30_3 C31_3 1_555 1_555
Ag4 N1_3 1_555 1_555
N7_2 C14_3 1_555 1_555
C10_3 N1_3 1_555 1_555
C14_3 C13_3 1_555 1_555
H3_3 C10_3 1_555 1_555
H4_3 C11_3 1_555 1_555
H5_3 C13_3 1_555 1_555
H6_3 C14_3 1_555 1_555
N8_2 Ag4 1_555 1_555
C10_3 C11_3 1_555 1_555
N2_2 C14_4 1_555 1_555
N3_2 C19_2 1_555 1_555
N4_4 C24_4 1_555 1_555
C1_4 C2_4 1_555 1_555
C2_4 C3_4 1_555 1_555
C3_4 C1_4 1_555 1_555
C4_4 C1_4 1_555 1_555
C5_4 C2_4 1_555 1_555
C12_4 C4_4 1_555 1_555
C13_4 C12_4 1_555 1_555
C14_4 C13_4 1_555 1_555
C15_4 N2_2 1_555 1_555
C16_4 C12_4 1_555 1_555
C17_4 C5_4 1_555 1_555
C18_4 C17_4 1_555 1_555
C19_2 C18_4 1_555 1_555
C20_2 N3_2 1_555 1_555
C21_2 C17_4 1_555 1_555
C22_4 C5_4 1_555 1_555
C23_4 C22_4 1_555 1_555
C24_4 C23_4 1_555 1_555
C25_4 N4_4 1_555 1_555
C26_4 C22_4 1_555 1_555
C29_4 C28_4 1_555 1_555
H5_4 C13_4 1_555 1_555
H6_4 C14_4 1_555 1_555
H7_4 C15_4 1_555 1_555
H8_4 C16_4 1_555 1_555
H9_4 C18_4 1_555 1_555
H10_2 C19_2 1_555 1_555
H11_2 C20_2 1_555 1_555
H12_2 C21_2 1_555 1_555
H13_4 C23_4 1_555 1_555
H14_4 C24_4 1_555 1_555
H15_4 C25_4 1_555 1_555
H16_4 C26_4 1_555 1_555
H17_4 C28_4 1_555 1_555
H18_4 C29_4 1_555 1_555
Ag4_2 N2_2 1_555 1_555
C15_4 C16_4 1_555 1_555
C20_2 C21_2 1_555 1_555
C25_4 C26_4 1_555 1_555
Ag4_2 N1_4 1_555 1_555
N1_4 C9_4 1_555 1_555
N9_2 C34_4 1_555 1_555
C8_4 C7_4 1_555 1_555
C9_4 C8_4 1_555 1_555
C10_4 N1_4 1_555 1_555
C11_4 C7_4 1_555 1_555
C27_4 C6_4 1_555 1_555
C30_4 N8_2 1_555 1_555
C31_4 C27_4 1_555 1_555
C32_4 C6_4 1_555 1_555
C33_4 C32_4 1_555 1_555
C34_4 C33_4 1_555 1_555
C35_2 N9_2 1_555 1_555
C36_4 C32_4 1_555 1_555
H1_4 C8_4 1_555 1_555
H2_4 C9_4 1_555 1_555
H3_4 C10_4 1_555 1_555
H19_4 C30_4 1_555 1_555
H20_4 C31_4 1_555 1_555
H21_4 C33_4 1_555 1_555
H22_4 C34_4 1_555 1_555
H23_2 C35_2 1_555 1_555
H24_4 C36_4 1_555 1_555
C10_4 C11_4 1_555 1_555
C30_4 C31_4 1_555 1_555
C35_2 C36_4 1_555 1_555
N3_3 C19_3 1_555 1_555
C20_3 N3_3 1_555 1_555
H10_3 C19_3 1_555 1_555
H11_3 C20_3 1_555 1_555
H12_3 C21_3 1_555 1_555
C20_3 C21_3 1_555 1_555
H23_3 C35_3 1_555 1_555
H23_4 C35_4 1_555 1_555
N3_4 C19_4 1_555 1_555
C20_4 N3_4 1_555 1_555
H10_4 C19_4 1_555 1_555
H11_4 C20_4 1_555 1_555
H12_4 C21_4 1_555 1_555
C20_4 C21_4 1_555 1_555
Cl1 O1 1_555 1_555
O2 Cl1 1_555 1_555
O3 Cl1 1_555 1_555
O4 Cl1 1_555 1_555
Cl1_2 O1_2 1_555 1_555
O2_2 Cl1_2 1_555 1_555
O3_2 Cl1_2 1_555 1_555
O4_2 Cl1_2 1_555 1_555
Cl1_3 O1_3 1_555 1_555
O2_3 Cl1_3 1_555 1_555
O3_3 Cl1_3 1_555 1_555
O4_3 Cl1_3 1_555 1_555
Cl1_4 O1_4 1_555 1_555
O2_4 Cl1_4 1_555 1_555
O3_4 Cl1_4 1_555 1_555
O4_4 Cl1_4 1_555 1_555

#END
