
###############################################################################
#
# This file contains modified crystal structure data generated from the
# MOF subset of the Cambridge Structural Database (CSD) v543 
# hosted by the Cambridge Crystallographic Data Centre (CCDC).
#
# This work is licensed under the Creative Commons
# Attribution-NonCommercial-ShareAlike 4.0 International License.
# To view a copy of this license, visit
# http://creativecommons.org/licenses/by-nc-sa/4.0/
# or send a letter to
# Creative Commons, PO Box 1866, Mountain View, CA 94042, USA.
#
# CIF created using the CSD Python API on 29 September 2022
# The structure has been converted into the P1 space group
# The structure has a 3D framework
# The original CSD entry NEHPIC is in the monoclinic crystal system
# The original CSD entry NEHPIC is in a Sohncke space group
# The framework has been calculated to contain at least 10.0% void space
# The void calculation uses a probe of radius 1.32A, grid spacing 0.4
# The framework is charged, counterions have been retained in the structure
#
###############################################################################

data_NEHPIC
_chemical_formula_moiety         '(C96 H76 Co4 F12 N12 O24 S4)n'
_symmetry_cell_setting           triclinic
_symmetry_space_group_name_H-M   'P 1'
_symmetry_Int_Tables_number      1
_space_group_name_Hall           'P 1'
loop_
_symmetry_equiv_pos_site_id
_symmetry_equiv_pos_as_xyz
1 x,y,z
_cell_length_a                   10.2257(3)
_cell_length_b                   25.2473(8)
_cell_length_c                   11.4244(4)
_cell_angle_alpha                90
_cell_angle_beta                 90.970(2)
_cell_angle_gamma                90
_cell_volume                     2949.03
loop_
_atom_site_label
_atom_site_type_symbol
_atom_site_fract_x
_atom_site_fract_y
_atom_site_fract_z
N3 N 0.0461(6) 0.6975(3) 0.2739(6)
C2 C 0.1534(8) 0.7092(4) 0.0900(8)
H3 H 0.2318 0.7179 0.0508
C3 C 0.1506(8) 0.7094(4) 0.2121(7)
H4 H 0.2287 0.7186 0.2535
C17 C 0.0427(8) 0.6965(3) 0.0269(8)
Co4 Co 0.04465(11) 0.70500(5) 0.46393(11)
N1 N 0.0373(7) 0.7057(3) 0.6535(6)
N5 N 0.1252(6) 0.6272(3) 0.4777(6)
N6 N 0.3835(6) 0.3667(3) 0.5263(6)
C11 C 0.1464(8) 0.6920(4) 0.7130(8)
H10 H 0.2234 0.6849 0.6703
C12 C 0.2428(8) 0.6149(4) 0.4343(8)
H11 H 0.2891 0.6415 0.3934
C13 C 0.0402(8) 0.6988(4) 0.8985(8)
C16 C 0.1517(8) 0.6877(4) 0.8332(8)
H13 H 0.2308 0.6774 0.8717
C22 C 0.4616(9) 0.4092(4) 0.5210(10)
H18 H 0.5534 0.4033 0.5221
C29 C 0.1089(8) 0.5379(4) 0.5474(10)
H24 H 0.0603 0.5118 0.5875
C30 C 0.2990(8) 0.5659(4) 0.4463(9)
H25 H 0.3840 0.5595 0.4173
C33 C 0.0602(8) 0.5884(3) 0.5343(9)
C36 C 0.2851(8) 0.4708(3) 0.5119(8)
C37 C 0.2305(8) 0.5256(3) 0.5013(8)
C38 C 0.4182(9) 0.4604(4) 0.5141(10)
H31 H 0.4791 0.4888 0.5107
C39 C 0.2534(9) 0.3776(4) 0.5249(10)
H32 H 0.1941 0.3487 0.5275
C40 C 0.2022(9) 0.4280(4) 0.5199(11)
H33 H 0.1103 0.4332 0.5220
Co6 Co 0.45259(11) 0.28815(5) 0.52830(11)
O7 O 0.2330(5) 0.7375(2) 0.4759(5)
O8 O 0.0140(5) 0.7890(2) 0.4362(5)
N4 N 0.5445(6) 0.7922(3) 0.2815(6)
C7 C 0.9321(8) 0.6819(5) 0.0895(8)
H8 H 0.8535 0.6722 0.0494
C8 C 0.5483(8) 0.7948(4) 0.0355(7)
C10 C 0.9389(8) 0.6816(4) 0.2115(8)
H9 H 0.8647 0.6697 0.2531
C15 C 0.6596(9) 0.7849(4) 0.1021(8)
H12 H 0.7406 0.7795 0.0644
C18 C 0.6547(9) 0.7828(4) 0.2213(8)
H14 H 0.7325 0.7743 0.2640
C19 C 0.4342(9) 0.8056(4) 0.0973(8)
H15 H 0.3555 0.8146 0.0565
C25 C 0.4371(9) 0.8032(4) 0.2183(8)
H20 H 0.3582 0.8097 0.2586
Co5 Co 0.54741(11) 0.78815(5) 0.47170(11)
O2 O 0.7331(5) 0.7552(2) 0.4725(5)
O3 O 0.5108(5) 0.7037(2) 0.4727(5)
H1 H 0.454(5) 0.696(3) 0.529(6)
O4 O 0.8531(5) 0.6812(2) 0.4613(5)
O5 O 0.3552(5) 0.8108(2) 0.4732(5)
N2 N 0.5475(6) 0.7908(3) 0.6609(6)
C1 C 0.7467(7) 0.7053(3) 0.4653(7)
C4 C 0.6603(9) 0.8067(3) 0.8438(8)
H5 H 0.7390 0.8162 0.8839
C5 C 0.9252(9) 0.7105(5) 0.8348(8)
H6 H 0.8456 0.7160 0.8747
C6 C 0.9275(8) 0.7139(4) 0.7159(8)
H7 H 0.8487 0.7225 0.6748
C9 C 0.5477(8) 0.7946(4) 0.9065(8)
C14 C 0.2480(7) 0.7863(3) 0.4653(7)
C20 C 0.6557(8) 0.8047(3) 0.7219(8)
H16 H 0.7322 0.8135 0.6801
C21 C 0.4367(8) 0.7802(4) 0.8419(8)
H17 H 0.3583 0.7711 0.8805
C23 C 0.6145(8) 0.6385(3) 0.3478(8)
C24 C 0.4415(8) 0.7791(4) 0.7214(8)
H19 H 0.3643 0.7695 0.6791
C26 C 0.6238(8) 0.6703(3) 0.4601(8)
H21 H 0.6275 0.6450 0.5276
C27 C 0.5455(9) 0.6561(4) 0.2526(9)
H22 H 0.4988 0.6886 0.2563
C28 C 0.1296(7) 0.8216(3) 0.4422(9)
H23 H 0.1403 0.8397 0.3651
C31 C 0.6097(12) 0.5787(6) 0.1432(13)
H26 H 0.6085 0.5587 0.0727
C32 C 0.6824(10) 0.5900(4) 0.3420(11)
H27 H 0.7313 0.5776 0.4080
H28 H 0.9773 0.5964 0.5663
C34 C 0.5434(13) 0.6263(5) 0.1489(11)
H29 H 0.4961 0.6389 0.0822
C35 C 0.6776(13) 0.5603(5) 0.2402(12)
H30 H 0.7213 0.5272 0.2372
C41 C 0.1124(9) 0.8634(4) 0.5362(11)
C42 C 0.0564(11) 0.8502(5) 0.6428(11)
H34 H 0.0290 0.8148 0.6570
C43 C 0.1526(12) 0.9149(4) 0.5172(15)
H35 H 0.1948 0.9234 0.4461
C44 C 0.0715(16) 0.9389(7) 0.7039(18)
H36 H 0.0509 0.9653 0.7601
C45 C 0.1326(15) 0.9553(6) 0.6004(19)
H37 H 0.1585 0.9910 0.5876
C46 C 0.0406(16) 0.8886(6) 0.7281(16)
H38 H 0.0082 0.8794 0.8028
N9 N 0.6165(6) 0.8667(3) 0.4737(6)
O1 O 0.7670(5) 0.2375(2) 0.5241(5)
O2_2 O 0.2669(5) 0.2552(2) 0.5275(5)
O3_2 O 0.4892(5) 0.2037(2) 0.5273(5)
H1_2 H 0.546(5) 0.196(3) 0.471(6)
O4_2 O 0.1469(5) 0.1812(2) 0.5387(5)
O5_2 O 0.6448(5) 0.3108(2) 0.5268(5)
O6 O 0.9860(5) 0.2890(2) 0.5638(5)
N2_2 N 0.4525(6) 0.2908(3) 0.3391(6)
C1_2 C 0.2533(7) 0.2053(3) 0.5347(7)
C4_2 C 0.3397(9) 0.3067(3) 0.1562(8)
H5_2 H 0.2610 0.3162 0.1161
C5_2 C 0.0748(9) 0.2105(5) 0.1652(8)
H6_2 H 0.1544 0.2160 0.1253
C6_2 C 0.0725(8) 0.2139(4) 0.2841(8)
H7_2 H 0.1513 0.2225 0.3252
C9_2 C 0.4523(8) 0.2946(4) 0.0935(8)
C14_2 C 0.7520(7) 0.2863(3) 0.5347(7)
C20_2 C 0.3443(8) 0.3047(3) 0.2781(8)
H16_2 H 0.2678 0.3135 0.3199
C21_2 C 0.5633(8) 0.2802(4) 0.1581(8)
H17_2 H 0.6417 0.2711 0.1195
C23_2 C 0.3855(8) 0.1385(3) 0.6522(8)
C24_2 C 0.5585(8) 0.2791(4) 0.2786(8)
H19_2 H 0.6357 0.2695 0.3209
C26_2 C 0.3762(8) 0.1703(3) 0.5399(8)
H21_2 H 0.3725 0.1450 0.4724
C27_2 C 0.4545(9) 0.1561(4) 0.7474(9)
H22_2 H 0.5012 0.1886 0.7437
C28_2 C 0.8704(7) 0.3216(3) 0.5578(9)
H23_2 H 0.8597 0.3397 0.6349
C31_2 C 0.3903(12) 0.0787(6) 0.8568(13)
H26_2 H 0.3915 0.0587 0.9273
C32_2 C 0.3176(10) 0.0900(4) 0.6580(11)
H27_2 H 0.2687 0.0776 0.5920
H28_2 H 0.0227 0.0964 0.4337
C34_2 C 0.4566(13) 0.1263(5) 0.8511(11)
H29_2 H 0.5039 0.1389 0.9178
C35_2 C 0.3224(13) 0.0603(5) 0.7598(12)
H30_2 H 0.2787 0.0272 0.7628
C41_2 C 0.8876(9) 0.3634(4) 0.4638(11)
C42_2 C 0.9436(11) 0.3502(5) 0.3572(11)
H34_2 H 0.9710 0.3148 0.3430
C43_2 C 0.8474(12) 0.4149(4) 0.4828(15)
H35_2 H 0.8052 0.4234 0.5539
C44_2 C 0.9285(16) 0.4389(7) 0.2961(18)
H36_2 H 0.9491 0.4653 0.2399
C45_2 C 0.8674(15) 0.4553(6) 0.3996(19)
H37_2 H 0.8415 0.4910 0.4124
C46_2 C 0.9594(16) 0.3886(6) 0.2719(16)
H38_2 H 0.9918 0.3794 0.1972
Co3 Co 0.95535(11) 0.20500(5) 0.53607(11)
N8 N 0.4555(6) 0.2922(3) 0.7185(6)
C7_2 C 0.0679(8) 0.1819(5) 0.9105(8)
H8_2 H 0.1465 0.1722 0.9506
C8_2 C 0.4517(8) 0.2948(4) 0.9645(7)
C10_2 C 0.0611(8) 0.1816(4) 0.7885(8)
H9_2 H 0.1353 0.1697 0.7469
C15_2 C 0.3404(9) 0.2849(4) 0.8979(8)
H12_2 H 0.2594 0.2795 0.9356
C18_2 C 0.3453(9) 0.2828(4) 0.7787(8)
H14_2 H 0.2675 0.2743 0.7360
C19_2 C 0.5658(9) 0.3056(4) 0.9027(8)
H15_2 H 0.6445 0.3146 0.9435
C25_2 C 0.5629(9) 0.3032(4) 0.7817(8)
H20_2 H 0.6418 0.3097 0.7414
N1_2 N 0.9627(7) 0.2057(3) 0.3465(6)
N5_2 N 0.8748(6) 0.1272(3) 0.5223(6)
C11_2 C 0.8536(8) 0.1920(4) 0.2870(8)
H10_2 H 0.7766 0.1849 0.3297
C12_2 C 0.7572(8) 0.1149(4) 0.5657(8)
H11_2 H 0.7109 0.1415 0.6066
C13_2 C 0.9598(8) 0.1988(4) 0.1015(8)
C16_2 C 0.8483(8) 0.1877(4) 0.1668(8)
H13_2 H 0.7692 0.1774 0.1283
C29_2 C 0.8911(8) 0.0379(4) 0.4526(10)
H24_2 H 0.9397 0.0118 0.4125
C30_2 C 0.7010(8) 0.0659(4) 0.5537(9)
H25_2 H 0.6160 0.0595 0.5827
C33_2 C 0.9398(8) 0.0884(3) 0.4657(9)
C37_2 C 0.7695(8) 0.0256(3) 0.4987(8)
N7 N 0.9539(6) 0.1975(3) 0.7261(6)
C2_2 C 0.8466(8) 0.2092(4) 0.9100(8)
H3_2 H 0.7682 0.2179 0.9492
C3_2 C 0.8494(8) 0.2094(4) 0.7879(7)
H4_2 H 0.7713 0.2186 0.7465
C17_2 C 0.9573(8) 0.1965(3) 0.9731(8)
C22_2 C 0.5384(9) 0.9092(4) 0.4790(10)
H18_2 H 0.4466 0.9033 0.4779
C36_2 C 0.7149(8) 0.9708(3) 0.4881(8)
C38_2 C 0.5818(9) 0.9604(4) 0.4859(10)
H31_2 H 0.5209 0.9888 0.4893
C39_2 C 0.7466(9) 0.8776(4) 0.4751(10)
H32_2 H 0.8059 0.8487 0.4725
C40_2 C 0.7978(9) 0.9280(4) 0.4801(11)
H33_2 H 0.8897 0.9332 0.4780
H2 H 0.952(2) 0.8003(14) 0.385(3)
H2_2 H 0.048(2) 0.3003(14) 0.615(3)
S1 S 0.0096(15) 0.8402(5) 0.1180(12)
O10 O 0.147(2) 0.8410(11) 0.143(3)
F1 F 0.976(2) 0.9323(7) 0.2216(18)
F2 F 0.8173(15) 0.9094(7) 0.113(2)
F3 F 0.996(2) 0.9351(7) 0.0316(18)
O9 O 0.9433(12) 0.8121(6) 0.2098(12)
O11 O 0.9658(16) 0.8216(8) 0.0050(13)
C47 C 0.9460(19) 0.9071(6) 0.1203(19)
F1_2 F 0.024(2) 0.4323(7) 0.7784(18)
F2_2 F 0.1827(15) 0.4094(7) 0.887(2)
F3_2 F 0.004(2) 0.4351(7) 0.9684(18)
O9_2 O 0.0567(12) 0.3121(6) 0.7902(12)
O11_2 O 0.0342(16) 0.3216(8) 0.9950(13)
C47_2 C 0.0540(19) 0.4071(6) 0.8797(19)
S1_2 S 0.9904(15) 0.3402(5) 0.8820(12)
O10_2 O 0.853(2) 0.3410(11) 0.857(3)
S2 S 0.5167(2) 0.64049(11) 0.7638(2)
F4 F 0.6172(8) 0.5604(3) 0.6479(7)
F5 F 0.6379(9) 0.5544(3) 0.8352(8)
F6 F 0.4497(9) 0.5406(3) 0.7488(9)
O12 O 0.4318(6) 0.6497(3) 0.6640(6)
O13 O 0.6430(6) 0.6661(3) 0.7563(7)
O14 O 0.4520(7) 0.6434(4) 0.8746(7)
C48 C 0.5565(14) 0.5712(5) 0.7494(11)
S2_2 S 0.4833(2) 0.14049(11) 0.2362(2)
F4_2 F 0.3828(8) 0.0604(3) 0.3521(7)
F5_2 F 0.3621(9) 0.0544(3) 0.1648(8)
F6_2 F 0.5503(9) 0.0406(3) 0.2512(9)
O12_2 O 0.5682(6) 0.1497(3) 0.3360(6)
O13_2 O 0.3570(6) 0.1661(3) 0.2437(7)
O14_2 O 0.5480(7) 0.1434(4) 0.1254(7)
C48_2 C 0.4435(14) 0.0712(5) 0.2506(11)
loop_
_geom_bond_atom_site_label_1
_geom_bond_atom_site_label_2
_geom_bond_site_symmetry_1
_geom_bond_site_symmetry_2
N3 C3 1_555 1_555
C2 H3 1_555 1_555
C3 C2 1_555 1_555
H4 C3 1_555 1_555
C17 C2 1_555 1_555
Co4 N3 1_555 1_555
N1 Co4 1_555 1_555
N5 Co4 1_555 1_555
N6 C22 1_555 1_555
C11 N1 1_555 1_555
H10 C11 1_555 1_555
C12 N5 1_555 1_555
H11 C12 1_555 1_555
C16 C11 1_555 1_555
H13 C16 1_555 1_555
C22 H18 1_555 1_555
C29 H24 1_555 1_555
C30 C12 1_555 1_555
H25 C30 1_555 1_555
C33 N5 1_555 1_555
C36 C37 1_555 1_555
C37 C29 1_555 1_555
C38 C22 1_555 1_555
H31 C38 1_555 1_555
C39 N6 1_555 1_555
H32 C39 1_555 1_555
C40 C36 1_555 1_555
H33 C40 1_555 1_555
Co6 N6 1_555 1_555
O7 Co4 1_555 1_555
O8 Co4 1_555 1_555
C13 C16 1_555 1_555
C29 C33 1_555 1_555
C30 C37 1_555 1_555
C36 C38 1_555 1_555
C39 C40 1_555 1_555
N4 C18 1_555 1_555
C7 H8 1_555 1_555
H9 C10 1_555 1_555
C15 C8 1_555 1_555
H12 C15 1_555 1_555
C18 C15 1_555 1_555
H14 C18 1_555 1_555
C19 C8 1_555 1_555
H15 C19 1_555 1_555
C25 N4 1_555 1_555
H20 C25 1_555 1_555
Co5 N4 1_555 1_555
C7 C10 1_555 1_555
C19 C25 1_555 1_555
Co5 O2 1_555 1_555
O7 C14 1_555 1_555
O2 C1 1_555 1_555
O3 Co5 1_555 1_555
H1 O3 1_555 1_555
O4 C1 1_555 1_555
O5 Co5 1_555 1_555
N2 Co5 1_555 1_555
C1 C26 1_555 1_555
C4 H5 1_555 1_555
C5 H6 1_555 1_555
H7 C6 1_555 1_555
C9 C4 1_555 1_555
C14 O5 1_555 1_555
C20 N2 1_555 1_555
H16 C20 1_555 1_555
C21 C9 1_555 1_555
H17 C21 1_555 1_555
C23 C26 1_555 1_555
C24 N2 1_555 1_555
H19 C24 1_555 1_555
C26 O3 1_555 1_555
H21 C26 1_555 1_555
C27 C23 1_555 1_555
H22 C27 1_555 1_555
C28 O8 1_555 1_555
H23 C28 1_555 1_555
C31 H26 1_555 1_555
C32 C23 1_555 1_555
H27 C32 1_555 1_555
C34 C27 1_555 1_555
H29 C34 1_555 1_555
C35 C31 1_555 1_555
H30 C35 1_555 1_555
C41 C28 1_555 1_555
C42 C41 1_555 1_555
H34 C42 1_555 1_555
C43 C41 1_555 1_555
H35 C43 1_555 1_555
C44 H36 1_555 1_555
C45 C43 1_555 1_555
H37 C45 1_555 1_555
C46 C42 1_555 1_555
H38 C46 1_555 1_555
N9 Co5 1_555 1_555
C4 C20 1_555 1_555
C5 C6 1_555 1_555
C14 C28 1_555 1_555
C21 C24 1_555 1_555
C31 C34 1_555 1_555
C32 C35 1_555 1_555
C44 C45 1_555 1_555
C44 C46 1_555 1_555
Co6 O2_2 1_555 1_555
O1 C14_2 1_555 1_555
O2_2 C1_2 1_555 1_555
O3_2 Co6 1_555 1_555
H1_2 O3_2 1_555 1_555
O4_2 C1_2 1_555 1_555
O5_2 Co6 1_555 1_555
N2_2 Co6 1_555 1_555
C1_2 C26_2 1_555 1_555
C4_2 H5_2 1_555 1_555
C5_2 H6_2 1_555 1_555
H7_2 C6_2 1_555 1_555
C9_2 C4_2 1_555 1_555
C14_2 O5_2 1_555 1_555
C20_2 N2_2 1_555 1_555
H16_2 C20_2 1_555 1_555
C21_2 C9_2 1_555 1_555
H17_2 C21_2 1_555 1_555
C23_2 C26_2 1_555 1_555
C24_2 N2_2 1_555 1_555
H19_2 C24_2 1_555 1_555
C26_2 O3_2 1_555 1_555
H21_2 C26_2 1_555 1_555
C27_2 C23_2 1_555 1_555
H22_2 C27_2 1_555 1_555
C28_2 O6 1_555 1_555
H23_2 C28_2 1_555 1_555
C31_2 H26_2 1_555 1_555
C32_2 C23_2 1_555 1_555
H27_2 C32_2 1_555 1_555
C34_2 C27_2 1_555 1_555
H29_2 C34_2 1_555 1_555
C35_2 C31_2 1_555 1_555
H30_2 C35_2 1_555 1_555
C41_2 C28_2 1_555 1_555
C42_2 C41_2 1_555 1_555
H34_2 C42_2 1_555 1_555
C43_2 C41_2 1_555 1_555
H35_2 C43_2 1_555 1_555
C44_2 H36_2 1_555 1_555
C45_2 C43_2 1_555 1_555
H37_2 C45_2 1_555 1_555
C46_2 C42_2 1_555 1_555
H38_2 C46_2 1_555 1_555
Co3 O1 1_555 1_555
N8 Co6 1_555 1_555
O6 Co3 1_555 1_555
C4_2 C20_2 1_555 1_555
C5_2 C6_2 1_555 1_555
C14_2 C28_2 1_555 1_555
C21_2 C24_2 1_555 1_555
C31_2 C34_2 1_555 1_555
C32_2 C35_2 1_555 1_555
C44_2 C45_2 1_555 1_555
C44_2 C46_2 1_555 1_555
N8 C18_2 1_555 1_555
C7_2 H8_2 1_555 1_555
H9_2 C10_2 1_555 1_555
C15_2 C8_2 1_555 1_555
H12_2 C15_2 1_555 1_555
C18_2 C15_2 1_555 1_555
H14_2 C18_2 1_555 1_555
C19_2 C8_2 1_555 1_555
H15_2 C19_2 1_555 1_555
C25_2 N8 1_555 1_555
H20_2 C25_2 1_555 1_555
C7_2 C10_2 1_555 1_555
C19_2 C25_2 1_555 1_555
N1_2 Co3 1_555 1_555
N5_2 Co3 1_555 1_555
C11_2 N1_2 1_555 1_555
H10_2 C11_2 1_555 1_555
C12_2 N5_2 1_555 1_555
H11_2 C12_2 1_555 1_555
C16_2 C11_2 1_555 1_555
H13_2 C16_2 1_555 1_555
C29_2 H24_2 1_555 1_555
C30_2 C12_2 1_555 1_555
H25_2 C30_2 1_555 1_555
C33_2 N5_2 1_555 1_555
C37_2 C29_2 1_555 1_555
N7 Co3 1_555 1_555
C13_2 C16_2 1_555 1_555
C29_2 C33_2 1_555 1_555
C30_2 C37_2 1_555 1_555
N7 C3_2 1_555 1_555
C2_2 H3_2 1_555 1_555
C3_2 C2_2 1_555 1_555
H4_2 C3_2 1_555 1_555
C17_2 C2_2 1_555 1_555
N9 C22_2 1_555 1_555
C22_2 H18_2 1_555 1_555
C38_2 C22_2 1_555 1_555
H31_2 C38_2 1_555 1_555
C39_2 N9 1_555 1_555
H32_2 C39_2 1_555 1_555
C40_2 C36_2 1_555 1_555
H33_2 C40_2 1_555 1_555
C36_2 C38_2 1_555 1_555
C39_2 C40_2 1_555 1_555
O10 S1 1_555 1_555
F1 C47 1_555 1_555
F2 C47 1_555 1_555
F3 C47 1_555 1_555
F1_2 C47_2 1_555 1_555
F2_2 C47_2 1_555 1_555
F3_2 C47_2 1_555 1_555
O10_2 S1_2 1_555 1_555
S2 O12 1_555 1_555
F4 C48 1_555 1_555
F5 C48 1_555 1_555
F6 C48 1_555 1_555
O13 S2 1_555 1_555
O14 S2 1_555 1_555
C48 S2 1_555 1_555
S2_2 O12_2 1_555 1_555
F4_2 C48_2 1_555 1_555
F5_2 C48_2 1_555 1_555
F6_2 C48_2 1_555 1_555
O13_2 S2_2 1_555 1_555
O14_2 S2_2 1_555 1_555
C48_2 S2_2 1_555 1_555

#END
