
###############################################################################
#
# This file contains modified crystal structure data generated from the
# MOF subset of the Cambridge Structural Database (CSD) v543 
# hosted by the Cambridge Crystallographic Data Centre (CCDC).
#
# This work is licensed under the Creative Commons
# Attribution-NonCommercial-ShareAlike 4.0 International License.
# To view a copy of this license, visit
# http://creativecommons.org/licenses/by-nc-sa/4.0/
# or send a letter to
# Creative Commons, PO Box 1866, Mountain View, CA 94042, USA.
#
# CIF created using the CSD Python API on 29 September 2022
# The structure has been converted into the P1 space group
# The structure has a 3D framework
# The original CSD entry NEHRIE is in the monoclinic crystal system
# The framework has been calculated to contain at least 10.0% void space
# The void calculation uses a probe of radius 1.32A, grid spacing 0.4
#
###############################################################################

data_NEHRIE
_chemical_formula_moiety         '(C88 H96 Cu8 N8 O28)n'
_symmetry_cell_setting           triclinic
_symmetry_space_group_name_H-M   'P 1'
_symmetry_Int_Tables_number      1
_space_group_name_Hall           'P 1'
loop_
_symmetry_equiv_pos_site_id
_symmetry_equiv_pos_as_xyz
1 x,y,z
_cell_length_a                   23.720(9)
_cell_length_b                   11.800(4)
_cell_length_c                   9.239(4)
_cell_angle_alpha                90
_cell_angle_beta                 90.476(4)
_cell_angle_gamma                90
_cell_volume                     2585.87
loop_
_atom_site_label
_atom_site_type_symbol
_atom_site_fract_x
_atom_site_fract_y
_atom_site_fract_z
O7 O 0.23519(11) 0.0733(2) 0.4540(3)
O8 O 0.31266(11) 0.1102(2) 0.5862(3)
C19 C 0.27904(16) 0.0425(3) 0.5207(4)
Cu3 Cu 0.29463(2) 0.27285(4) 0.57960(5)
Cu8 Cu 0.20537(2) 0.22715(4) 0.42040(5)
O1 O 0.66248(10) 0.2743(2) 0.1024(3)
O2 O 0.74003(10) 0.2499(2) 0.2367(3)
C1 C 0.68753(16) 0.2580(3) 0.2226(4)
C6 C 0.65212(16) 0.2411(3) 0.3554(4)
H3 H 0.612770 0.264473 0.334916
H4 H 0.666892 0.288556 0.435563
C8 C 0.70860(17) 0.0818(3) 0.4735(4)
H6 H 0.708237 0.111189 0.573849
H7 H 0.739955 0.119749 0.422641
C10 C 0.65356(16) 0.1159(3) 0.3997(4)
H9 H 0.621954 0.100700 0.466251
H10 H 0.647914 0.068462 0.312412
Cu7 Cu 0.79463(2) 0.22715(4) 0.07960(5)
Cu1 Cu 0.70537(2) 0.27285(4) 0.92040(5)
N1 N 0.64017(12) 0.3307(3) 0.7738(3)
C2 C 0.59780(15) 0.2661(3) 0.7284(4)
H1 H 0.595096 0.191515 0.766378
C4 C 0.56141(15) 0.4083(3) 0.5715(4)
C5 C 0.55725(16) 0.3007(3) 0.6291(4)
H2 H 0.527320 0.251606 0.601287
C7 C 0.64437(16) 0.4340(3) 0.7151(4)
H5 H 0.674978 0.480815 0.744337
C9 C 0.60619(15) 0.4763(3) 0.6134(4)
H8 H 0.610773 0.549977 0.573796
C11 C 0.51800(16) 0.4544(3) 0.4639(4)
H11 H 0.493513 0.391986 0.429217
H12 H 0.537502 0.487176 0.379296
N2 N 0.35983(12) 0.6693(3) 0.2262(3)
C12 C 0.40220(15) 0.7339(3) 0.2716(4)
H13 H 0.404904 0.808485 0.233622
C13 C 0.43859(15) 0.5917(3) 0.4285(4)
C14 C 0.44275(16) 0.6993(3) 0.3709(4)
H14 H 0.472680 0.748394 0.398713
C15 C 0.35563(16) 0.5660(3) 0.2849(4)
H15 H 0.325022 0.519185 0.255663
C16 C 0.39381(15) 0.5237(3) 0.3866(4)
H16 H 0.389227 0.450023 0.426204
C17 C 0.48200(16) 0.5456(3) 0.5361(4)
H17 H 0.506487 0.608014 0.570783
H18 H 0.462498 0.512824 0.620704
Cu2 Cu 0.29463(2) 0.72715(4) 0.07960(5)
O9 O 0.24003(10) 0.7499(2) 0.2367(3)
O10 O 0.75997(10) 0.2501(2) 0.7633(3)
O11 O 0.73519(11) 0.4267(2) 0.9540(3)
O12 O 0.26481(11) 0.5733(2) 0.0460(3)
O13 O 0.31266(11) 0.8898(2) 0.0862(3)
O14 O 0.68734(11) 0.1102(2) 0.9138(3)
O5 O 0.33752(10) 0.7257(2) 0.8976(3)
O6 O 0.25997(10) 0.7501(2) 0.7633(3)
C18 C 0.31247(16) 0.7420(3) 0.7774(4)
C20 C 0.34788(16) 0.7589(3) 0.6446(4)
H19 H 0.387230 0.735527 0.665084
H20 H 0.333108 0.711444 0.564437
C21 C 0.29140(17) 0.9182(3) 0.5265(4)
H21 H 0.291763 0.888811 0.426151
H22 H 0.260045 0.880251 0.577359
C22 C 0.34644(16) 0.8841(3) 0.6003(4)
H23 H 0.378046 0.899300 0.533749
H24 H 0.352086 0.931538 0.687588
Cu4 Cu 0.20537(2) 0.77285(4) 0.92040(5)
O3 O 0.76481(11) 0.9267(2) 0.5460(3)
O4 O 0.68734(11) 0.8898(2) 0.4138(3)
C3 C 0.72096(16) 0.9575(3) 0.4793(4)
Cu5 Cu 0.79463(2) 0.77285(4) 0.57960(5)
Cu6 Cu 0.70537(2) 0.72715(4) 0.42040(5)
O7_2 O 0.76481(11) 0.0733(2) 0.0460(3)
C19_2 C 0.72096(16) 0.0425(3) 0.9793(4)
C11_2 C 0.48200(16) 0.4544(3) 0.0361(4)
H11_2 H 0.506487 0.391986 0.070783
H12_2 H 0.462498 0.487176 0.120704
N2_2 N 0.64017(12) 0.6693(3) 0.2738(3)
C12_2 C 0.59780(15) 0.7339(3) 0.2284(4)
H13_2 H 0.595096 0.808485 0.266378
C13_2 C 0.56141(15) 0.5917(3) 0.0715(4)
C14_2 C 0.55725(16) 0.6993(3) 0.1291(4)
H14_2 H 0.527320 0.748394 0.101287
C15_2 C 0.64437(16) 0.5660(3) 0.2151(4)
H15_2 H 0.674978 0.519185 0.244337
C16_2 C 0.60619(15) 0.5237(3) 0.1134(4)
H16_2 H 0.610773 0.450023 0.073796
O5_2 O 0.66248(10) 0.7257(2) 0.6024(3)
O6_2 O 0.74003(10) 0.7501(2) 0.7367(3)
C18_2 C 0.68753(16) 0.7420(3) 0.7226(4)
C20_2 C 0.65212(16) 0.7589(3) 0.8554(4)
H19_2 H 0.612770 0.735527 0.834916
H20_2 H 0.666892 0.711444 0.935563
C21_2 C 0.70860(17) 0.9182(3) 0.9735(4)
H22_2 H 0.739955 0.880251 0.922641
C22_2 C 0.65356(16) 0.8841(3) 0.8997(4)
H23_2 H 0.621954 0.899300 0.966251
H24_2 H 0.647914 0.931538 0.812412
O9_2 O 0.75997(10) 0.7499(2) 0.2633(3)
O12_2 O 0.73519(11) 0.5733(2) 0.4540(3)
O1_2 O 0.33752(10) 0.2743(2) 0.3976(3)
O2_2 O 0.25997(10) 0.2499(2) 0.2633(3)
N1_2 N 0.35983(12) 0.3307(3) 0.7262(3)
C1_2 C 0.31247(16) 0.2580(3) 0.2774(4)
C2_2 C 0.40220(15) 0.2661(3) 0.7716(4)
H1_2 H 0.404904 0.191515 0.733622
C4_2 C 0.43859(15) 0.4083(3) 0.9285(4)
C5_2 C 0.44275(16) 0.3007(3) 0.8709(4)
H2_2 H 0.472680 0.251606 0.898713
C6_2 C 0.34788(16) 0.2411(3) 0.1446(4)
H3_2 H 0.387230 0.264473 0.165084
H4_2 H 0.333108 0.288556 0.064437
C7_2 C 0.35563(16) 0.4340(3) 0.7849(4)
H5_2 H 0.325022 0.480815 0.755663
C8_2 C 0.29140(17) 0.0818(3) 0.0265(4)
H7_2 H 0.260045 0.119749 0.077359
C9_2 C 0.39381(15) 0.4763(3) 0.8866(4)
H8_2 H 0.389227 0.549977 0.926204
C10_2 C 0.34644(16) 0.1159(3) 0.1003(4)
H9_2 H 0.378046 0.100700 0.033749
H10_2 H 0.352086 0.068462 0.187588
C17_2 C 0.51800(16) 0.5456(3) 0.9639(4)
H17_2 H 0.493513 0.608014 0.929217
H18_2 H 0.537502 0.512824 0.879296
O10_2 O 0.24003(10) 0.2501(2) 0.7367(3)
O11_2 O 0.26481(11) 0.4267(2) 0.5460(3)
C3_2 C 0.27904(16) 0.9575(3) 0.0207(4)
O3_2 O 0.23519(11) 0.9267(2) 0.9540(3)
O1_3 O 0.16248(10) 0.7743(2) 0.1024(3)
C1_3 C 0.18753(16) 0.7580(3) 0.2226(4)
O4_2 O 0.18734(11) 0.3898(2) 0.4138(3)
C3_3 C 0.22096(16) 0.4575(3) 0.4793(4)
C6_3 C 0.15212(16) 0.7411(3) 0.3554(4)
H3_3 H 0.112770 0.764473 0.334916
H4_3 H 0.166892 0.788556 0.435563
C8_3 C 0.20860(17) 0.5818(3) 0.4735(4)
H6_2 H 0.208237 0.611189 0.573849
H7_3 H 0.239955 0.619749 0.422641
C10_3 C 0.15356(16) 0.6159(3) 0.3997(4)
H9_3 H 0.121954 0.600700 0.466251
H10_3 H 0.147914 0.568462 0.312412
N1_3 N 0.14017(12) 0.8307(3) 0.7738(3)
C2_3 C 0.09780(15) 0.7661(3) 0.7284(4)
H1_3 H 0.095096 0.691515 0.766378
C4_3 C 0.06141(15) 0.9083(3) 0.5715(4)
C5_3 C 0.05725(16) 0.8007(3) 0.6291(4)
H2_3 H 0.027320 0.751606 0.601287
C7_3 C 0.14437(16) 0.9340(3) 0.7151(4)
H5_3 H 0.174978 0.980815 0.744337
C9_3 C 0.10619(15) 0.9763(3) 0.6134(4)
C11_3 C 0.01800(16) 0.9544(3) 0.4639(4)
H12_3 H 0.037502 0.987176 0.379296
O14_2 O 0.18734(11) 0.6102(2) 0.9138(3)
N2_3 N 0.85983(12) 0.1693(3) 0.2262(3)
C12_3 C 0.90220(15) 0.2339(3) 0.2716(4)
H13_3 H 0.904904 0.308485 0.233622
C13_3 C 0.93859(15) 0.0917(3) 0.4285(4)
C14_3 C 0.94275(16) 0.1993(3) 0.3709(4)
H14_3 H 0.972680 0.248394 0.398713
C15_3 C 0.85563(16) 0.0660(3) 0.2849(4)
H15_3 H 0.825022 0.019185 0.255663
C16_3 C 0.89381(15) 0.0237(3) 0.3866(4)
C17_3 C 0.98200(16) 0.0456(3) 0.5361(4)
H18_3 H 0.962498 0.012824 0.620704
O13_2 O 0.81266(11) 0.3898(2) 0.0862(3)
O5_3 O 0.83752(10) 0.2257(2) 0.8976(3)
C18_3 C 0.81247(16) 0.2420(3) 0.7774(4)
O8_2 O 0.81266(11) 0.6102(2) 0.5862(3)
C19_3 C 0.77904(16) 0.5425(3) 0.5207(4)
C20_3 C 0.84788(16) 0.2589(3) 0.6446(4)
H19_3 H 0.887230 0.235527 0.665084
H20_3 H 0.833108 0.211444 0.564437
C21_3 C 0.79140(17) 0.4182(3) 0.5265(4)
H21_2 H 0.791763 0.388811 0.426151
H22_3 H 0.760045 0.380251 0.577359
C22_3 C 0.84644(16) 0.3841(3) 0.6003(4)
H23_3 H 0.878046 0.399300 0.533749
H24_3 H 0.852086 0.431538 0.687588
H21_3 H 0.208237 0.388811 0.073849
N2_4 N 0.14017(12) 0.1693(3) 0.2738(3)
C12_4 C 0.09780(15) 0.2339(3) 0.2284(4)
H13_4 H 0.095096 0.308485 0.266378
C13_4 C 0.06141(15) 0.0917(3) 0.0715(4)
C14_4 C 0.05725(16) 0.1993(3) 0.1291(4)
H14_4 H 0.027320 0.248394 0.101287
C15_4 C 0.14437(16) 0.0660(3) 0.2151(4)
H15_4 H 0.174978 0.019185 0.244337
C16_4 C 0.10619(15) 0.0237(3) 0.1134(4)
O5_4 O 0.16248(10) 0.2257(2) 0.6024(3)
C18_4 C 0.18753(16) 0.2420(3) 0.7226(4)
C19_4 C 0.22096(16) 0.5425(3) 0.9793(4)
C20_4 C 0.15212(16) 0.2589(3) 0.8554(4)
H19_4 H 0.112770 0.235527 0.834916
H20_4 H 0.166892 0.211444 0.935563
C21_4 C 0.20860(17) 0.4182(3) 0.9735(4)
H22_4 H 0.239955 0.380251 0.922641
C22_4 C 0.15356(16) 0.3841(3) 0.8997(4)
H23_4 H 0.121954 0.399300 0.966251
H24_4 H 0.147914 0.431538 0.812412
O1_4 O 0.83752(10) 0.7743(2) 0.3976(3)
N1_4 N 0.85983(12) 0.8307(3) 0.7262(3)
C1_4 C 0.81247(16) 0.7580(3) 0.2774(4)
C2_4 C 0.90220(15) 0.7661(3) 0.7716(4)
H1_4 H 0.904904 0.691515 0.733622
C3_4 C 0.77904(16) 0.4575(3) 0.0207(4)
C4_4 C 0.93859(15) 0.9083(3) 0.9285(4)
C5_4 C 0.94275(16) 0.8007(3) 0.8709(4)
H2_4 H 0.972680 0.751606 0.898713
C6_4 C 0.84788(16) 0.7411(3) 0.1446(4)
H3_4 H 0.887230 0.764473 0.165084
H4_4 H 0.833108 0.788556 0.064437
C7_4 C 0.85563(16) 0.9340(3) 0.7849(4)
H5_4 H 0.825022 0.980815 0.755663
C8_4 C 0.79140(17) 0.5818(3) 0.0265(4)
H7_4 H 0.760045 0.619749 0.077359
C9_4 C 0.89381(15) 0.9763(3) 0.8866(4)
C10_4 C 0.84644(16) 0.6159(3) 0.1003(4)
H9_4 H 0.878046 0.600700 0.033749
H10_4 H 0.852086 0.568462 0.187588
H6_3 H 0.791763 0.611189 0.926151
H21_4 H 0.708237 0.888811 0.073849
H6_4 H 0.291763 0.111189 0.926151
H8_3 H 0.110773 0.049977 0.573796
H17_3 H 0.006487 0.108014 0.570783
H11_3 H 0.993513 0.891986 0.429217
H16_3 H 0.889227 0.950023 0.426204
C17_4 C 0.01800(16) 0.0456(3) 0.9639(4)
H18_4 H 0.037502 0.012824 0.879296
H11_4 H 0.006487 0.891986 0.070783
H16_4 H 0.110773 0.950023 0.073796
H8_4 H 0.889227 0.049977 0.926204
H17_4 H 0.993513 0.108014 0.929217
C11_4 C 0.98200(16) 0.9544(3) 0.0361(4)
H12_4 H 0.962498 0.987176 0.120704
loop_
_geom_bond_atom_site_label_1
_geom_bond_atom_site_label_2
_geom_bond_site_symmetry_1
_geom_bond_site_symmetry_2
O7 C19 1_555 1_555
O8 C19 1_555 1_555
Cu3 O8 1_555 1_555
Cu8 O7 1_555 1_555
Cu3 Cu8 1_555 1_555
O1 C1 1_555 1_555
O2 C1 1_555 1_555
C1 C6 1_555 1_555
C6 H3 1_555 1_555
H4 C6 1_555 1_555
C8 H6 1_555 1_555
H7 C8 1_555 1_555
C10 C6 1_555 1_555
H9 C10 1_555 1_555
H10 C10 1_555 1_555
O2 Cu7 1_555 1_555
C8 C10 1_555 1_555
N1 Cu1 1_555 1_555
C2 N1 1_555 1_555
H1 C2 1_555 1_555
C4 C5 1_555 1_555
C5 C2 1_555 1_555
H2 C5 1_555 1_555
C7 N1 1_555 1_555
H5 C7 1_555 1_555
C9 C4 1_555 1_555
H8 C9 1_555 1_555
C11 C4 1_555 1_555
H11 C11 1_555 1_555
H12 C11 1_555 1_555
N2 C12 1_555 1_555
C12 H13 1_555 1_555
C13 C14 1_555 1_555
C14 C12 1_555 1_555
H14 C14 1_555 1_555
C15 N2 1_555 1_555
H15 C15 1_555 1_555
C16 C13 1_555 1_555
H16 C16 1_555 1_555
C17 C11 1_555 1_555
H17 C17 1_555 1_555
H18 C17 1_555 1_555
Cu2 N2 1_555 1_555
O9 Cu2 1_555 1_555
O10 Cu1 1_555 1_555
O11 Cu1 1_555 1_555
O12 Cu2 1_555 1_555
O13 Cu2 1_555 1_555
O14 Cu1 1_555 1_555
C7 C9 1_555 1_555
C13 C17 1_555 1_555
C15 C16 1_555 1_555
O6 C18 1_555 1_555
C18 O5 1_555 1_555
C20 C18 1_555 1_555
H19 C20 1_555 1_555
H20 C20 1_555 1_555
C21 H21 1_555 1_555
H22 C21 1_555 1_555
C22 C20 1_555 1_555
H23 C22 1_555 1_555
H24 C22 1_555 1_555
O6 Cu4 1_555 1_555
C21 C22 1_555 1_555
O3 C3 1_555 1_555
O4 C3 1_555 1_555
Cu5 O3 1_555 1_555
Cu6 O4 1_555 1_555
Cu5 Cu6 1_555 1_555
Cu7 O7_2 1_555 1_555
O14 C19_2 1_555 1_555
H11_2 C11_2 1_555 1_555
H12_2 C11_2 1_555 1_555
N2_2 C12_2 1_555 1_555
C12_2 H13_2 1_555 1_555
C13_2 C14_2 1_555 1_555
C14_2 C12_2 1_555 1_555
H14_2 C14_2 1_555 1_555
C15_2 N2_2 1_555 1_555
H15_2 C15_2 1_555 1_555
C16_2 C13_2 1_555 1_555
H16_2 C16_2 1_555 1_555
Cu6 N2_2 1_555 1_555
O5_2 Cu6 1_555 1_555
O6_2 C18_2 1_555 1_555
C18_2 O5_2 1_555 1_555
C20_2 C18_2 1_555 1_555
H19_2 C20_2 1_555 1_555
H20_2 C20_2 1_555 1_555
H22_2 C21_2 1_555 1_555
C22_2 C20_2 1_555 1_555
H23_2 C22_2 1_555 1_555
H24_2 C22_2 1_555 1_555
O9_2 Cu6 1_555 1_555
O12_2 Cu6 1_555 1_555
C15_2 C16_2 1_555 1_555
O6_2 Cu5 1_555 1_555
C21_2 C22_2 1_555 1_555
Cu3 O1_2 1_555 1_555
O1_2 C1_2 1_555 1_555
O2_2 C1_2 1_555 1_555
N1_2 Cu3 1_555 1_555
C1_2 C6_2 1_555 1_555
C2_2 N1_2 1_555 1_555
H1_2 C2_2 1_555 1_555
C4_2 C5_2 1_555 1_555
C5_2 C2_2 1_555 1_555
H2_2 C5_2 1_555 1_555
C6_2 H3_2 1_555 1_555
H4_2 C6_2 1_555 1_555
C7_2 N1_2 1_555 1_555
H5_2 C7_2 1_555 1_555
H7_2 C8_2 1_555 1_555
C9_2 C4_2 1_555 1_555
H8_2 C9_2 1_555 1_555
C10_2 C6_2 1_555 1_555
H9_2 C10_2 1_555 1_555
H10_2 C10_2 1_555 1_555
H17_2 C17_2 1_555 1_555
H18_2 C17_2 1_555 1_555
O10_2 Cu3 1_555 1_555
O11_2 Cu3 1_555 1_555
O2_2 Cu8 1_555 1_555
C7_2 C9_2 1_555 1_555
C8_2 C10_2 1_555 1_555
O13 C3_2 1_555 1_555
Cu4 O3_2 1_555 1_555
O1_3 C1_3 1_555 1_555
O9 C1_3 1_555 1_555
O11_2 C3_3 1_555 1_555
C1_3 C6_3 1_555 1_555
O4_2 C3_3 1_555 1_555
C3_3 C8_3 1_555 1_555
C6_3 H3_3 1_555 1_555
H4_3 C6_3 1_555 1_555
C8_3 H6_2 1_555 1_555
H7_3 C8_3 1_555 1_555
C10_3 C6_3 1_555 1_555
H9_3 C10_3 1_555 1_555
H10_3 C10_3 1_555 1_555
Cu8 O4_2 1_555 1_555
C8_3 C10_3 1_555 1_555
N1_3 Cu4 1_555 1_555
C2_3 N1_3 1_555 1_555
H1_3 C2_3 1_555 1_555
C4_3 C5_3 1_555 1_555
C5_3 C2_3 1_555 1_555
H2_3 C5_3 1_555 1_555
C7_3 N1_3 1_555 1_555
H5_3 C7_3 1_555 1_555
C9_3 C4_3 1_555 1_555
C11_3 C4_3 1_555 1_555
H12_3 C11_3 1_555 1_555
O14_2 Cu4 1_555 1_555
C7_3 C9_3 1_555 1_555
N2_3 C12_3 1_555 1_555
C12_3 H13_3 1_555 1_555
C13_3 C14_3 1_555 1_555
C14_3 C12_3 1_555 1_555
H14_3 C14_3 1_555 1_555
C15_3 N2_3 1_555 1_555
H15_3 C15_3 1_555 1_555
C16_3 C13_3 1_555 1_555
H18_3 C17_3 1_555 1_555
Cu7 N2_3 1_555 1_555
O13_2 Cu7 1_555 1_555
C13_3 C17_3 1_555 1_555
C15_3 C16_3 1_555 1_555
O10 C18_3 1_555 1_555
O12_2 C19_3 1_555 1_555
C18_3 O5_3 1_555 1_555
O8_2 C19_3 1_555 1_555
C19_3 C21_3 1_555 1_555
C20_3 C18_3 1_555 1_555
H19_3 C20_3 1_555 1_555
H20_3 C20_3 1_555 1_555
C21_3 H21_2 1_555 1_555
H22_3 C21_3 1_555 1_555
C22_3 C20_3 1_555 1_555
H23_3 C22_3 1_555 1_555
H24_3 C22_3 1_555 1_555
Cu5 O8_2 1_555 1_555
C21_3 C22_3 1_555 1_555
N2_4 C12_4 1_555 1_555
C12_4 H13_4 1_555 1_555
C13_4 C14_4 1_555 1_555
C14_4 C12_4 1_555 1_555
H14_4 C14_4 1_555 1_555
C15_4 N2_4 1_555 1_555
H15_4 C15_4 1_555 1_555
C16_4 C13_4 1_555 1_555
Cu8 N2_4 1_555 1_555
O5_4 Cu8 1_555 1_555
O10_2 C18_4 1_555 1_555
C18_4 O5_4 1_555 1_555
O14_2 C19_4 1_555 1_555
C19_4 C21_4 1_555 1_555
C20_4 C18_4 1_555 1_555
H19_4 C20_4 1_555 1_555
H20_4 C20_4 1_555 1_555
H22_4 C21_4 1_555 1_555
C22_4 C20_4 1_555 1_555
H23_4 C22_4 1_555 1_555
H24_4 C22_4 1_555 1_555
C15_4 C16_4 1_555 1_555
C21_4 C22_4 1_555 1_555
Cu5 O1_4 1_555 1_555
O1_4 C1_4 1_555 1_555
O9_2 C1_4 1_555 1_555
N1_4 Cu5 1_555 1_555
C1_4 C6_4 1_555 1_555
O13_2 C3_4 1_555 1_555
C2_4 N1_4 1_555 1_555
H1_4 C2_4 1_555 1_555
C3_4 C8_4 1_555 1_555
C4_4 C5_4 1_555 1_555
C5_4 C2_4 1_555 1_555
H2_4 C5_4 1_555 1_555
C6_4 H3_4 1_555 1_555
H4_4 C6_4 1_555 1_555
C7_4 N1_4 1_555 1_555
H5_4 C7_4 1_555 1_555
H7_4 C8_4 1_555 1_555
C9_4 C4_4 1_555 1_555
C10_4 C6_4 1_555 1_555
H9_4 C10_4 1_555 1_555
H10_4 C10_4 1_555 1_555
C7_4 C9_4 1_555 1_555
C8_4 C10_4 1_555 1_555
H18_4 C17_4 1_555 1_555
H12_4 C11_4 1_555 1_555

#END
