
###############################################################################
#
# This file contains modified crystal structure data generated from the
# MOF subset of the Cambridge Structural Database (CSD) v543 
# hosted by the Cambridge Crystallographic Data Centre (CCDC).
#
# This work is licensed under the Creative Commons
# Attribution-NonCommercial-ShareAlike 4.0 International License.
# To view a copy of this license, visit
# http://creativecommons.org/licenses/by-nc-sa/4.0/
# or send a letter to
# Creative Commons, PO Box 1866, Mountain View, CA 94042, USA.
#
# CIF created using the CSD Python API on 29 September 2022
# The structure has been converted into the P1 space group
# The structure has a 3D framework
# The original CSD entry NEHRUQ is in the monoclinic crystal system
# The framework has been calculated to contain at least 10.0% void space
# The void calculation uses a probe of radius 1.32A, grid spacing 0.4
#
###############################################################################

data_NEHRUQ
_chemical_formula_moiety         '(C88 H96 Cu8 N8 O32)n'
_symmetry_cell_setting           triclinic
_symmetry_space_group_name_H-M   'P 1'
_symmetry_Int_Tables_number      1
_space_group_name_Hall           'P 1'
loop_
_symmetry_equiv_pos_site_id
_symmetry_equiv_pos_as_xyz
1 x,y,z
_cell_length_a                   24.556(2)
_cell_length_b                   12.9794(12)
_cell_length_c                   8.6609(8)
_cell_angle_alpha                90
_cell_angle_beta                 91.796(2)
_cell_angle_gamma                90
_cell_volume                     2759.06
loop_
_atom_site_label
_atom_site_type_symbol
_atom_site_fract_x
_atom_site_fract_y
_atom_site_fract_z
Cu8 Cu 0.29397(2) 0.20332(2) 0.05542(3)
O6 O 0.25595(6) 0.07424(11) 0.99631(17)
O8 O 0.18083(6) 0.15461(11) 0.90765(18)
C19 C 0.20876(8) 0.07542(15) 0.9347(2)
Cu3 Cu 0.20603(2) 0.29668(2) 0.94458(3)
N2 N 0.13992(6) 0.63905(12) 0.30273(18)
C12 C 0.09880(8) 0.69805(16) 0.2496(2)
H13 H 0.095426 0.765706 0.289986
C14 C 0.10833(8) 0.50542(17) 0.1308(2)
H16 H 0.112831 0.437583 0.092069
C15 C 0.14446(8) 0.54439(16) 0.2419(2)
H17 H 0.173917 0.502097 0.276922
C16 C 0.06528(8) 0.56677(17) 0.0764(2)
C17 C 0.06098(8) 0.66527(17) 0.1386(2)
H18 H 0.032231 0.709671 0.104943
Cu2 Cu 0.20603(2) 0.70332(2) 0.44458(3)
O5 O 0.17492(6) 0.71370(12) 0.65210(17)
O7 O 0.25064(6) 0.79052(11) 0.74376(16)
C18 C 0.20259(8) 0.75965(14) 0.7568(2)
C20 C 0.19586(9) 0.88129(15) 0.9848(2)
C21 C 0.17580(9) 0.78090(15) 0.9093(2)
H21 H 0.135837 0.784820 0.891382
H22 H 0.183502 0.722890 0.980922
C22 C 0.18385(9) 0.97426(15) 0.8815(2)
H23 H 0.143841 0.983197 0.872146
H24 H 0.196936 0.958833 0.777010
Cu4 Cu 0.29397(2) 0.79668(2) 0.55542(3)
O10 O 0.24405(6) 0.57424(11) 0.50369(17)
O11 O 0.24936(6) 0.70948(11) 0.25624(16)
O13 O 0.18083(6) 0.84539(11) 0.40765(18)
O1 O 0.17492(6) 0.28630(12) 0.15210(17)
O3 O 0.25064(6) 0.20948(11) 0.24376(16)
C1 C 0.20259(8) 0.24035(14) 0.2568(2)
C4 C 0.19586(9) 0.11871(15) 0.4848(2)
H2 H 0.235611 0.123371 0.506323
H3 H 0.177834 0.109295 0.584447
C10 C 0.17580(9) 0.21910(15) 0.4093(2)
H9 H 0.135837 0.215180 0.391382
H10 H 0.183502 0.277110 0.480922
C11 C 0.18385(9) 0.02574(15) 0.3815(2)
H11 H 0.143841 0.016803 0.372146
H12 H 0.196936 0.041167 0.277010
O9 O 0.24405(6) 0.42576(11) 0.00369(17)
N1 N 0.13992(6) 0.36095(12) 0.80273(18)
C3 C 0.09880(8) 0.30195(16) 0.7496(2)
H1 H 0.095426 0.234294 0.789986
C5 C 0.02361(8) 0.47366(19) 0.4608(2)
H4 H 0.009403 0.415903 0.396657
H5 H 0.041228 0.523462 0.391602
C6 C 0.10833(8) 0.49458(17) 0.6308(2)
H6 H 0.112831 0.562417 0.592069
C7 C 0.14446(8) 0.45561(16) 0.7419(2)
H7 H 0.173917 0.497903 0.776922
C8 C 0.06528(8) 0.43323(17) 0.5764(2)
C9 C 0.06098(8) 0.33473(17) 0.6386(2)
H8 H 0.032231 0.290329 0.604943
O12 O 0.24936(6) 0.29052(11) 0.75624(16)
O2 O 0.25595(6) 0.92576(11) 0.49631(17)
C2 C 0.20876(8) 0.92458(15) 0.4347(2)
O1_2 O 0.32508(6) 0.78630(12) 0.34790(17)
N1_2 N 0.36008(6) 0.86095(12) 0.69727(18)
O4 O 0.31917(6) 0.34539(11) 0.09235(18)
C1_2 C 0.29741(8) 0.74035(14) 0.2432(2)
C2_2 C 0.29124(8) 0.42458(15) 0.0653(2)
C3_2 C 0.40120(8) 0.80195(16) 0.7504(2)
H1_2 H 0.404574 0.734294 0.710014
C4_2 C 0.30414(9) 0.61871(15) 0.0152(2)
C6_2 C 0.39167(8) 0.99458(17) 0.8692(2)
C7_2 C 0.35554(8) 0.95561(16) 0.7581(2)
H7_2 H 0.326083 0.997903 0.723078
C8_2 C 0.43472(8) 0.93323(17) 0.9236(2)
C9_2 C 0.43902(8) 0.83473(17) 0.8614(2)
H8_2 H 0.467769 0.790329 0.895057
C10_2 C 0.32420(9) 0.71910(15) 0.0907(2)
H9_2 H 0.364163 0.715180 0.108618
H10_2 H 0.316498 0.777110 0.019078
C11_2 C 0.31615(9) 0.52574(15) 0.1185(2)
H11_2 H 0.356159 0.516803 0.127854
H12_2 H 0.303064 0.541167 0.222990
H15 H 0.541228 0.976538 0.891602
O14 O 0.31917(6) 0.65461(11) 0.59235(18)
H2_2 H 0.264389 0.623371 0.993677
H3_2 H 0.322166 0.609295 0.915553
H5_2 H 0.541228 0.023462 0.391602
H6_2 H 0.612831 0.062417 0.592069
N2_2 N 0.36008(6) 0.13905(12) 0.19727(18)
C12_2 C 0.40120(8) 0.19805(16) 0.2504(2)
H13_2 H 0.404574 0.265706 0.210014
C13 C 0.47639(8) 0.02634(19) 0.5392(2)
H14 H 0.490597 0.084097 0.603343
C14_2 C 0.39167(8) 0.00542(17) 0.3692(2)
C15_2 C 0.35554(8) 0.04439(16) 0.2581(2)
H17_2 H 0.326083 0.002097 0.223078
C16_2 C 0.43472(8) 0.06677(17) 0.4236(2)
C17_2 C 0.43902(8) 0.16527(17) 0.3614(2)
H18_2 H 0.467769 0.209671 0.395057
O5_2 O 0.32508(6) 0.21370(12) 0.84790(17)
C18_2 C 0.29741(8) 0.25965(14) 0.7432(2)
C19_2 C 0.29124(8) 0.57542(15) 0.5653(2)
C20_2 C 0.30414(9) 0.38129(15) 0.5152(2)
H19 H 0.264389 0.376629 0.493677
H20 H 0.322166 0.390705 0.415553
C21_2 C 0.32420(9) 0.28090(15) 0.5907(2)
H21_2 H 0.364163 0.284820 0.608618
H22_2 H 0.316498 0.222890 0.519078
C22_2 C 0.31615(9) 0.47426(15) 0.6185(2)
H23_2 H 0.356159 0.483197 0.627854
H24_2 H 0.303064 0.458833 0.722990
H19_2 H 0.235611 0.876629 0.006323
H20_2 H 0.177834 0.890705 0.084447
C13_2 C 0.02361(8) 0.52634(19) 0.9608(2)
H14_2 H 0.009403 0.584097 0.896657
H15_2 H 0.041228 0.476538 0.891602
C5_2 C 0.97639(8) 0.47366(19) 0.0392(2)
H4_2 H 0.990597 0.415903 0.103343
H5_3 H 0.958772 0.523462 0.108398
Cu1 Cu 0.79397(2) 0.29668(2) 0.55542(3)
O1_3 O 0.82508(6) 0.28630(12) 0.34790(17)
O3_2 O 0.74936(6) 0.20948(11) 0.25624(16)
N1_3 N 0.86008(6) 0.36095(12) 0.69727(18)
C1_3 C 0.79741(8) 0.24035(14) 0.2432(2)
C3_3 C 0.90120(8) 0.30195(16) 0.7504(2)
H1_3 H 0.904574 0.234294 0.710014
C4_3 C 0.80414(9) 0.11871(15) 0.0152(2)
C6_3 C 0.89167(8) 0.49458(17) 0.8692(2)
H6_3 H 0.887169 0.562417 0.907931
C7_3 C 0.85554(8) 0.45561(16) 0.7581(2)
H7_3 H 0.826083 0.497903 0.723078
C8_3 C 0.93472(8) 0.43323(17) 0.9236(2)
C9_3 C 0.93902(8) 0.33473(17) 0.8614(2)
H8_3 H 0.967769 0.290329 0.895057
C10_3 C 0.82420(9) 0.21910(15) 0.0907(2)
H9_3 H 0.864163 0.215180 0.108618
H10_3 H 0.816498 0.277110 0.019078
C11_3 C 0.81615(9) 0.02574(15) 0.1185(2)
H11_3 H 0.856159 0.016803 0.127854
H12_3 H 0.803064 0.041167 0.222990
Cu7 Cu 0.70603(2) 0.20332(2) 0.44458(3)
O9_2 O 0.75595(6) 0.42576(11) 0.49631(17)
O12_2 O 0.75064(6) 0.29052(11) 0.74376(16)
O14_2 O 0.81917(6) 0.15461(11) 0.59235(18)
O2_2 O 0.74405(6) 0.92576(11) 0.00369(17)
O4_2 O 0.81917(6) 0.84539(11) 0.09235(18)
C2_3 C 0.79124(8) 0.92458(15) 0.0653(2)
Cu6 Cu 0.79397(2) 0.70332(2) 0.05542(3)
Cu5 Cu 0.70603(2) 0.79668(2) 0.94458(3)
O6_2 O 0.74405(6) 0.07424(11) 0.50369(17)
C19_3 C 0.79124(8) 0.07542(15) 0.5653(2)
N2_3 N 0.86008(6) 0.63905(12) 0.19727(18)
C12_3 C 0.90120(8) 0.69805(16) 0.2504(2)
H13_3 H 0.904574 0.765706 0.210014
C13_3 C 0.97639(8) 0.52634(19) 0.5392(2)
H14_3 H 0.990597 0.584097 0.603343
H15_3 H 0.958772 0.476538 0.608398
C14_3 C 0.89167(8) 0.50542(17) 0.3692(2)
H16_2 H 0.887169 0.437583 0.407931
C15_3 C 0.85554(8) 0.54439(16) 0.2581(2)
H17_3 H 0.826083 0.502097 0.223078
C16_3 C 0.93472(8) 0.56677(17) 0.4236(2)
C17_3 C 0.93902(8) 0.66527(17) 0.3614(2)
H18_3 H 0.967769 0.709671 0.395057
O11_2 O 0.75064(6) 0.70948(11) 0.24376(16)
O5_3 O 0.82508(6) 0.71370(12) 0.84790(17)
O7_2 O 0.74936(6) 0.79052(11) 0.75624(16)
C18_3 C 0.79741(8) 0.75965(14) 0.7432(2)
C20_3 C 0.80414(9) 0.88129(15) 0.5152(2)
H19_3 H 0.764389 0.876629 0.493677
H20_3 H 0.822166 0.890705 0.415553
C21_3 C 0.82420(9) 0.78090(15) 0.5907(2)
H21_3 H 0.864163 0.784820 0.608618
H22_3 H 0.816498 0.722890 0.519078
C22_3 C 0.81615(9) 0.97426(15) 0.6185(2)
H23_3 H 0.856159 0.983197 0.627854
H24_3 H 0.803064 0.958833 0.722990
O10_2 O 0.75595(6) 0.57424(11) 0.99631(17)
H19_4 H 0.735611 0.376629 0.006323
H20_4 H 0.677834 0.390705 0.084447
H5_4 H 0.458772 0.023462 0.108398
N2_4 N 0.63992(6) 0.13905(12) 0.30273(18)
C12_4 C 0.59880(8) 0.19805(16) 0.2496(2)
H13_4 H 0.595426 0.265706 0.289986
C14_4 C 0.60833(8) 0.00542(17) 0.1308(2)
C15_4 C 0.64446(8) 0.04439(16) 0.2419(2)
H17_4 H 0.673917 0.002097 0.276922
C16_4 C 0.56528(8) 0.06677(17) 0.0764(2)
C17_4 C 0.56098(8) 0.16527(17) 0.1386(2)
H18_4 H 0.532231 0.209671 0.104943
O5_4 O 0.67492(6) 0.21370(12) 0.65210(17)
O8_2 O 0.68083(6) 0.65461(11) 0.90765(18)
C18_4 C 0.70259(8) 0.25965(14) 0.7568(2)
C19_4 C 0.70876(8) 0.57542(15) 0.9347(2)
C20_4 C 0.69586(9) 0.38129(15) 0.9848(2)
C21_4 C 0.67580(9) 0.28090(15) 0.9093(2)
H21_4 H 0.635837 0.284820 0.891382
H22_4 H 0.683502 0.222890 0.980922
C22_4 C 0.68385(9) 0.47426(15) 0.8815(2)
H23_4 H 0.643841 0.483197 0.872146
H24_4 H 0.696936 0.458833 0.777010
O13_2 O 0.68083(6) 0.34539(11) 0.40765(18)
O1_4 O 0.67492(6) 0.78630(12) 0.15210(17)
C1_4 C 0.70259(8) 0.74035(14) 0.2568(2)
C2_4 C 0.70876(8) 0.42458(15) 0.4347(2)
C4_4 C 0.69586(9) 0.61871(15) 0.4848(2)
H2_3 H 0.735611 0.623371 0.506323
H3_3 H 0.677834 0.609295 0.584447
C10_4 C 0.67580(9) 0.71910(15) 0.4093(2)
H9_4 H 0.635837 0.715180 0.391382
H10_4 H 0.683502 0.777110 0.480922
C11_4 C 0.68385(9) 0.52574(15) 0.3815(2)
H11_4 H 0.643841 0.516803 0.372146
H12_4 H 0.696936 0.541167 0.277010
N1_4 N 0.63992(6) 0.86095(12) 0.80273(18)
C3_4 C 0.59880(8) 0.80195(16) 0.7496(2)
H1_4 H 0.595426 0.734294 0.789986
C5_3 C 0.52361(8) 0.97366(19) 0.4608(2)
H4_3 H 0.509403 0.915903 0.396657
C6_4 C 0.60833(8) 0.99458(17) 0.6308(2)
C7_4 C 0.64446(8) 0.95561(16) 0.7419(2)
H7_4 H 0.673917 0.997903 0.776922
C8_4 C 0.56528(8) 0.93323(17) 0.5764(2)
C9_4 C 0.56098(8) 0.83473(17) 0.6386(2)
H8_4 H 0.532231 0.790329 0.604943
H15_4 H 0.458772 0.976538 0.608398
H16_3 H 0.387169 0.937583 0.407931
H2_4 H 0.764389 0.123371 0.993677
H3_4 H 0.822166 0.109295 0.915553
H6_4 H 0.387169 0.062417 0.907931
C13_4 C 0.52361(8) 0.02634(19) 0.9608(2)
H14_4 H 0.509403 0.084097 0.896657
C5_4 C 0.47639(8) 0.97366(19) 0.0392(2)
H4_4 H 0.490597 0.915903 0.103343
H16_4 H 0.612831 0.937583 0.092069
loop_
_geom_bond_atom_site_label_1
_geom_bond_atom_site_label_2
_geom_bond_site_symmetry_1
_geom_bond_site_symmetry_2
O6 C19 1_555 1_555
O8 C19 1_555 1_555
Cu3 O8 1_555 1_555
N2 C12 1_555 1_555
C12 H13 1_555 1_555
C14 H16 1_555 1_555
C15 N2 1_555 1_555
H17 C15 1_555 1_555
C17 C12 1_555 1_555
H18 C17 1_555 1_555
Cu2 N2 1_555 1_555
O5 Cu2 1_555 1_555
O7 C18 1_555 1_555
C18 O5 1_555 1_555
C21 C18 1_555 1_555
H21 C21 1_555 1_555
H22 C21 1_555 1_555
C22 C20 1_555 1_555
H23 C22 1_555 1_555
H24 C22 1_555 1_555
Cu4 Cu2 1_555 1_555
O10 Cu2 1_555 1_555
O11 Cu2 1_555 1_555
O13 Cu2 1_555 1_555
C14 C15 1_555 1_555
C14 C16 1_555 1_555
C16 C17 1_555 1_555
O7 Cu4 1_555 1_555
C20 C21 1_555 1_555
O1 C1 1_555 1_555
O3 C1 1_555 1_555
C1 C10 1_555 1_555
C4 H2 1_555 1_555
H3 C4 1_555 1_555
C10 C4 1_555 1_555
H9 C10 1_555 1_555
H10 C10 1_555 1_555
C11 C4 1_555 1_555
H11 C11 1_555 1_555
H12 C11 1_555 1_555
O3 Cu8 1_555 1_555
N1 Cu3 1_555 1_555
C3 N1 1_555 1_555
H1 C3 1_555 1_555
C5 H4 1_555 1_555
H5 C5 1_555 1_555
C6 H6 1_555 1_555
C7 N1 1_555 1_555
H7 C7 1_555 1_555
C8 C5 1_555 1_555
C9 C3 1_555 1_555
H8 C9 1_555 1_555
O12 Cu3 1_555 1_555
C6 C7 1_555 1_555
C6 C8 1_555 1_555
C8 C9 1_555 1_555
O2 C2 1_555 1_555
O13 C2 1_555 1_555
Cu4 O2 1_555 1_555
Cu4 O1_2 1_555 1_555
O1_2 C1_2 1_555 1_555
O9 C2_2 1_555 1_555
O11 C1_2 1_555 1_555
N1_2 Cu4 1_555 1_555
O4 C2_2 1_555 1_555
C1_2 C10_2 1_555 1_555
C2_2 C11_2 1_555 1_555
C3_2 N1_2 1_555 1_555
H1_2 C3_2 1_555 1_555
C7_2 N1_2 1_555 1_555
H7_2 C7_2 1_555 1_555
C9_2 C3_2 1_555 1_555
H8_2 C9_2 1_555 1_555
C10_2 C4_2 1_555 1_555
H9_2 C10_2 1_555 1_555
H10_2 C10_2 1_555 1_555
C11_2 C4_2 1_555 1_555
H11_2 C11_2 1_555 1_555
H12_2 C11_2 1_555 1_555
Cu8 O4 1_555 1_555
O14 Cu4 1_555 1_555
C6_2 C7_2 1_555 1_555
C6_2 C8_2 1_555 1_555
C8_2 C9_2 1_555 1_555
N2_2 C12_2 1_555 1_555
C12_2 H13_2 1_555 1_555
H14 C13 1_555 1_555
C15_2 N2_2 1_555 1_555
H17_2 C15_2 1_555 1_555
C16_2 C13 1_555 1_555
C17_2 C12_2 1_555 1_555
H18_2 C17_2 1_555 1_555
Cu8 N2_2 1_555 1_555
C14_2 C15_2 1_555 1_555
C14_2 C16_2 1_555 1_555
C16_2 C17_2 1_555 1_555
O10 C19_2 1_555 1_555
O12 C18_2 1_555 1_555
O14 C19_2 1_555 1_555
C18_2 O5_2 1_555 1_555
C19_2 C22_2 1_555 1_555
C20_2 H19 1_555 1_555
H20 C20_2 1_555 1_555
C21_2 C18_2 1_555 1_555
H21_2 C21_2 1_555 1_555
H22_2 C21_2 1_555 1_555
C22_2 C20_2 1_555 1_555
H23_2 C22_2 1_555 1_555
H24_2 C22_2 1_555 1_555
C20_2 C21_2 1_555 1_555
H14_2 C13_2 1_555 1_555
H15_2 C13_2 1_555 1_555
C5_2 H4_2 1_555 1_555
H5_3 C5_2 1_555 1_555
Cu1 O1_3 1_555 1_555
O1_3 C1_3 1_555 1_555
O3_2 C1_3 1_555 1_555
N1_3 Cu1 1_555 1_555
C1_3 C10_3 1_555 1_555
C3_3 N1_3 1_555 1_555
H1_3 C3_3 1_555 1_555
C6_3 H6_3 1_555 1_555
C7_3 N1_3 1_555 1_555
H7_3 C7_3 1_555 1_555
C9_3 C3_3 1_555 1_555
H8_3 C9_3 1_555 1_555
C10_3 C4_3 1_555 1_555
H9_3 C10_3 1_555 1_555
H10_3 C10_3 1_555 1_555
C11_3 C4_3 1_555 1_555
H11_3 C11_3 1_555 1_555
H12_3 C11_3 1_555 1_555
Cu7 Cu1 1_555 1_555
O9_2 Cu1 1_555 1_555
O12_2 Cu1 1_555 1_555
O14_2 Cu1 1_555 1_555
O3_2 Cu7 1_555 1_555
C6_3 C7_3 1_555 1_555
C6_3 C8_3 1_555 1_555
C8_3 C9_3 1_555 1_555
O2_2 C2_3 1_555 1_555
O4_2 C2_3 1_555 1_555
Cu6 O4_2 1_555 1_555
O6_2 C19_3 1_555 1_555
O14_2 C19_3 1_555 1_555
Cu7 O6_2 1_555 1_555
N2_3 C12_3 1_555 1_555
C12_3 H13_3 1_555 1_555
H14_3 C13_3 1_555 1_555
H15_3 C13_3 1_555 1_555
C14_3 H16_2 1_555 1_555
C15_3 N2_3 1_555 1_555
H17_3 C15_3 1_555 1_555
C16_3 C13_3 1_555 1_555
C17_3 C12_3 1_555 1_555
H18_3 C17_3 1_555 1_555
Cu6 N2_3 1_555 1_555
O11_2 Cu6 1_555 1_555
C14_3 C15_3 1_555 1_555
C14_3 C16_3 1_555 1_555
C16_3 C17_3 1_555 1_555
O7_2 C18_3 1_555 1_555
C18_3 O5_3 1_555 1_555
C20_3 H19_3 1_555 1_555
H20_3 C20_3 1_555 1_555
C21_3 C18_3 1_555 1_555
H21_3 C21_3 1_555 1_555
H22_3 C21_3 1_555 1_555
C22_3 C20_3 1_555 1_555
H23_3 C22_3 1_555 1_555
H24_3 C22_3 1_555 1_555
O7_2 Cu5 1_555 1_555
C20_3 C21_3 1_555 1_555
N2_4 C12_4 1_555 1_555
C12_4 H13_4 1_555 1_555
C15_4 N2_4 1_555 1_555
H17_4 C15_4 1_555 1_555
C17_4 C12_4 1_555 1_555
H18_4 C17_4 1_555 1_555
Cu7 N2_4 1_555 1_555
O5_4 Cu7 1_555 1_555
O10_2 C19_4 1_555 1_555
O12_2 C18_4 1_555 1_555
O8_2 C19_4 1_555 1_555
C18_4 O5_4 1_555 1_555
C19_4 C22_4 1_555 1_555
C21_4 C18_4 1_555 1_555
H21_4 C21_4 1_555 1_555
H22_4 C21_4 1_555 1_555
C22_4 C20_4 1_555 1_555
H23_4 C22_4 1_555 1_555
H24_4 C22_4 1_555 1_555
Cu5 O8_2 1_555 1_555
O13_2 Cu7 1_555 1_555
C14_4 C15_4 1_555 1_555
C14_4 C16_4 1_555 1_555
C16_4 C17_4 1_555 1_555
C20_4 C21_4 1_555 1_555
O1_4 C1_4 1_555 1_555
O9_2 C2_4 1_555 1_555
O11_2 C1_4 1_555 1_555
O13_2 C2_4 1_555 1_555
C1_4 C10_4 1_555 1_555
C2_4 C11_4 1_555 1_555
C4_4 H2_3 1_555 1_555
H3_3 C4_4 1_555 1_555
C10_4 C4_4 1_555 1_555
H9_4 C10_4 1_555 1_555
H10_4 C10_4 1_555 1_555
C11_4 C4_4 1_555 1_555
H11_4 C11_4 1_555 1_555
H12_4 C11_4 1_555 1_555
N1_4 Cu5 1_555 1_555
C3_4 N1_4 1_555 1_555
H1_4 C3_4 1_555 1_555
C5_3 H4_3 1_555 1_555
C7_4 N1_4 1_555 1_555
H7_4 C7_4 1_555 1_555
C8_4 C5_3 1_555 1_555
C9_4 C3_4 1_555 1_555
H8_4 C9_4 1_555 1_555
C6_4 C7_4 1_555 1_555
C6_4 C8_4 1_555 1_555
C8_4 C9_4 1_555 1_555
H14_4 C13_4 1_555 1_555
C5_4 H4_4 1_555 1_555

#END
