
###############################################################################
#
# This file contains modified crystal structure data generated from the
# MOF subset of the Cambridge Structural Database (CSD) v543 
# hosted by the Cambridge Crystallographic Data Centre (CCDC).
#
# This work is licensed under the Creative Commons
# Attribution-NonCommercial-ShareAlike 4.0 International License.
# To view a copy of this license, visit
# http://creativecommons.org/licenses/by-nc-sa/4.0/
# or send a letter to
# Creative Commons, PO Box 1866, Mountain View, CA 94042, USA.
#
# CIF created using the CSD Python API on 29 September 2022
# The structure has been converted into the P1 space group
# The structure has a 3D framework
# The original CSD entry NEHSIF is in the monoclinic crystal system
# The framework has been calculated to contain at least 10.0% void space
# The void calculation uses a probe of radius 1.32A, grid spacing 0.4
#
###############################################################################

data_NEHSIF
_chemical_formula_moiety         '(C88 H96 Cu8 N8 O32)n'
_symmetry_cell_setting           triclinic
_symmetry_space_group_name_H-M   'P 1'
_symmetry_Int_Tables_number      1
_space_group_name_Hall           'P 1'
loop_
_symmetry_equiv_pos_site_id
_symmetry_equiv_pos_as_xyz
1 x,y,z
_cell_length_a                   24.535(12)
_cell_length_b                   12.985(7)
_cell_length_c                   8.660(5)
_cell_angle_alpha                90
_cell_angle_beta                 91.822(17)
_cell_angle_gamma                90
_cell_volume                     2757.57
loop_
_atom_site_label
_atom_site_type_symbol
_atom_site_fract_x
_atom_site_fract_y
_atom_site_fract_z
O6 O 0.24938(9) 0.20931(15) 0.2558(2)
O7 O 0.32496(9) 0.28648(16) 0.3482(2)
C19 C 0.30416(13) 0.1187(2) 0.0153(3)
C20 C 0.32410(13) 0.2191(2) 0.0919(3)
H21 H 0.316509 0.277121 0.020324
H22 H 0.364092 0.215067 0.110036
C21 C 0.31643(13) 0.0259(2) 0.1190(3)
H23 H 0.303528 0.041357 0.223630
H24 H 0.356472 0.016829 0.127695
C22 C 0.29755(13) 0.2407(2) 0.2433(3)
Cu3 Cu 0.29388(2) 0.29672(3) 0.55570(4)
Cu8 Cu 0.20612(2) 0.20328(3) 0.44430(4)
Cu7 Cu 0.79388(2) 0.20328(3) 0.05570(4)
O12 O 0.67504(9) 0.28648(16) 0.1518(2)
O14 O 0.74421(9) 0.42568(15) 0.0035(2)
Cu1 Cu 0.70612(2) 0.29672(3) 0.94430(4)
O1 O 0.68080(9) 0.15485(16) 0.9072(2)
O4 O 0.75579(9) 0.07432(15) 0.9965(2)
N1 N 0.64011(10) 0.36108(18) 0.8024(3)
C1 C 0.56571(13) 0.4335(2) 0.5754(3)
C2 C 0.56140(13) 0.3347(2) 0.6368(3)
H1 H 0.532908 0.290029 0.602051
C3 C 0.70894(13) 0.0756(2) 0.9346(3)
C4 C 0.59886(12) 0.3024(2) 0.7485(3)
H2 H 0.595217 0.234977 0.789376
C6 C 0.60853(13) 0.4942(2) 0.6305(3)
H5 H 0.613096 0.562021 0.591732
C7 C 0.52375(13) 0.4743(2) 0.4605(3)
H6 H 0.509751 0.416882 0.395364
H7 H 0.541188 0.524859 0.392196
C11 C 0.64441(13) 0.4560(2) 0.7418(3)
H12 H 0.673614 0.498696 0.777462
N2 N 0.35989(10) 0.63892(18) 0.1976(3)
C12 C 0.43429(13) 0.5665(2) 0.4246(3)
C13 C 0.43860(13) 0.6653(2) 0.3632(3)
H13 H 0.467092 0.709971 0.397949
C14 C 0.40114(12) 0.6976(2) 0.2515(3)
H14 H 0.404783 0.765023 0.210624
C15 C 0.39147(13) 0.5058(2) 0.3695(3)
H15 H 0.386904 0.437979 0.408268
C16 C 0.47625(13) 0.5257(2) 0.5395(3)
H16 H 0.490249 0.583118 0.604636
H17 H 0.458812 0.475141 0.607804
C17 C 0.35559(13) 0.5440(2) 0.2582(3)
H18 H 0.326386 0.501304 0.222538
Cu2 Cu 0.29388(2) 0.70328(3) 0.05570(4)
O5 O 0.31920(9) 0.84515(16) 0.0928(2)
O8 O 0.24421(9) 0.92568(15) 0.0035(2)
C18 C 0.29106(13) 0.9244(2) 0.0654(3)
O9 O 0.74938(9) 0.29069(15) 0.7558(2)
O10 O 0.25062(9) 0.70931(15) 0.2442(2)
Cu4 Cu 0.20612(2) 0.79672(3) 0.94430(4)
O11 O 0.32496(9) 0.71352(16) 0.8482(2)
O13 O 0.25579(9) 0.57432(15) 0.9965(2)
O2 O 0.75062(9) 0.79069(15) 0.7442(2)
O3 O 0.67504(9) 0.71352(16) 0.6518(2)
C5 C 0.69584(13) 0.8813(2) 0.9847(3)
C8 C 0.67590(13) 0.7809(2) 0.9081(3)
H8 H 0.683491 0.722879 0.979676
H9 H 0.635908 0.784933 0.889964
C9 C 0.68357(13) 0.9741(2) 0.8810(3)
H10 H 0.696472 0.958643 0.776370
H11 H 0.643528 0.983171 0.872305
C10 C 0.70245(13) 0.7593(2) 0.7567(3)
Cu5 Cu 0.79388(2) 0.79672(3) 0.55570(4)
Cu6 Cu 0.70612(2) 0.70328(3) 0.44430(4)
O6_2 O 0.75062(9) 0.20931(15) 0.2442(2)
C19_2 C 0.69584(13) 0.1187(2) 0.4847(3)
H19 H 0.677706 0.109609 0.584256
H20 H 0.735632 0.123127 0.506402
C20_2 C 0.67590(13) 0.2191(2) 0.4081(3)
H21_2 H 0.683491 0.277121 0.479676
H22_2 H 0.635908 0.215067 0.389964
C21_2 C 0.68357(13) 0.0259(2) 0.3810(3)
H23_2 H 0.696472 0.041357 0.276370
H24_2 H 0.643528 0.016829 0.372305
C22_2 C 0.70245(13) 0.2407(2) 0.2567(3)
C7_2 C 0.47625(13) 0.4743(2) 0.0395(3)
H6_2 H 0.490249 0.416882 0.104636
H7_2 H 0.458812 0.524859 0.107804
N2_2 N 0.64011(10) 0.63892(18) 0.3024(3)
C12_2 C 0.56571(13) 0.5665(2) 0.0754(3)
C13_2 C 0.56140(13) 0.6653(2) 0.1368(3)
H13_2 H 0.532908 0.709971 0.102051
C14_2 C 0.59886(12) 0.6976(2) 0.2485(3)
H14_2 H 0.595217 0.765023 0.289376
C15_2 C 0.60853(13) 0.5058(2) 0.1305(3)
H15_2 H 0.613096 0.437979 0.091732
C17_2 C 0.64441(13) 0.5440(2) 0.2418(3)
H18_2 H 0.673614 0.501304 0.277462
O5_2 O 0.68080(9) 0.84515(16) 0.4072(2)
O8_2 O 0.75579(9) 0.92568(15) 0.4965(2)
C18_2 C 0.70894(13) 0.9244(2) 0.4346(3)
O10_2 O 0.74938(9) 0.70931(15) 0.2558(2)
O13_2 O 0.74421(9) 0.57432(15) 0.5035(2)
O1_2 O 0.31920(9) 0.15485(16) 0.5928(2)
O4_2 O 0.24421(9) 0.07432(15) 0.5035(2)
N1_2 N 0.35989(10) 0.36108(18) 0.6976(3)
C1_2 C 0.43429(13) 0.4335(2) 0.9246(3)
C2_2 C 0.43860(13) 0.3347(2) 0.8632(3)
H1_2 H 0.467092 0.290029 0.897949
C3_2 C 0.29106(13) 0.0756(2) 0.5654(3)
C4_2 C 0.40114(12) 0.3024(2) 0.7515(3)
H2_2 H 0.404783 0.234977 0.710624
C6_2 C 0.39147(13) 0.4942(2) 0.8695(3)
H5_2 H 0.386904 0.562021 0.908268
C11_2 C 0.35559(13) 0.4560(2) 0.7582(3)
H12_2 H 0.326386 0.498696 0.722538
C16_2 C 0.52375(13) 0.5257(2) 0.9605(3)
H16_2 H 0.509751 0.583118 0.895364
H17_2 H 0.541188 0.475141 0.892196
O9_2 O 0.25062(9) 0.29069(15) 0.7442(2)
O14_2 O 0.25579(9) 0.42568(15) 0.4965(2)
O2_2 O 0.24938(9) 0.79069(15) 0.7558(2)
C5_2 C 0.30416(13) 0.8813(2) 0.5153(3)
H3 H 0.322294 0.890391 0.415744
H4 H 0.264368 0.876873 0.493598
C8_2 C 0.32410(13) 0.7809(2) 0.5919(3)
H8_2 H 0.316509 0.722879 0.520324
H9_2 H 0.364092 0.784933 0.610036
C9_2 C 0.31643(13) 0.9741(2) 0.6190(3)
H10_2 H 0.303528 0.958643 0.723630
H11_2 H 0.356472 0.983171 0.627695
C10_2 C 0.29755(13) 0.7593(2) 0.7433(3)
H3_2 H 0.177706 0.390391 0.084256
H4_2 H 0.235632 0.376873 0.006402
O12_2 O 0.17504(9) 0.78648(16) 0.1518(2)
O1_3 O 0.18080(9) 0.65485(16) 0.9072(2)
O3_2 O 0.17504(9) 0.21352(16) 0.6518(2)
N1_3 N 0.14011(10) 0.86108(18) 0.8024(3)
C1_3 C 0.06571(13) 0.9335(2) 0.5754(3)
C2_3 C 0.06140(13) 0.8347(2) 0.6368(3)
H1_3 H 0.032908 0.790029 0.602051
C3_3 C 0.20894(13) 0.5756(2) 0.9346(3)
C4_3 C 0.09886(12) 0.8024(2) 0.7485(3)
H2_3 H 0.095217 0.734977 0.789376
C5_3 C 0.19584(13) 0.3813(2) 0.9847(3)
C6_3 C 0.10853(13) 0.9942(2) 0.6305(3)
C7_3 C 0.02375(13) 0.9743(2) 0.4605(3)
H6_3 H 0.009751 0.916882 0.395364
C8_3 C 0.17590(13) 0.2809(2) 0.9081(3)
H8_3 H 0.183491 0.222879 0.979676
H9_3 H 0.135908 0.284933 0.889964
C9_3 C 0.18357(13) 0.4741(2) 0.8810(3)
H10_3 H 0.196472 0.458643 0.776370
H11_3 H 0.143528 0.483171 0.872305
C10_3 C 0.20245(13) 0.2593(2) 0.7567(3)
C11_3 C 0.14441(13) 0.9560(2) 0.7418(3)
H12_3 H 0.173614 0.998696 0.777462
N2_3 N 0.85989(10) 0.13892(18) 0.1976(3)
C12_3 C 0.93429(13) 0.0665(2) 0.4246(3)
C13_3 C 0.93860(13) 0.1653(2) 0.3632(3)
H13_3 H 0.967092 0.209971 0.397949
C14_3 C 0.90114(12) 0.1976(2) 0.2515(3)
H14_3 H 0.904783 0.265023 0.210624
C15_3 C 0.89147(13) 0.0058(2) 0.3695(3)
C16_3 C 0.97625(13) 0.0257(2) 0.5395(3)
H16_3 H 0.990249 0.083118 0.604636
C17_3 C 0.85559(13) 0.0440(2) 0.2582(3)
H18_3 H 0.826386 0.001304 0.222538
O5_3 O 0.81920(9) 0.34515(16) 0.0928(2)
O7_2 O 0.82496(9) 0.78648(16) 0.3482(2)
C18_3 C 0.79106(13) 0.4244(2) 0.0654(3)
C19_3 C 0.80416(13) 0.6187(2) 0.0153(3)
C20_3 C 0.82410(13) 0.7191(2) 0.0919(3)
H21_3 H 0.816509 0.777121 0.020324
H22_3 H 0.864092 0.715067 0.110036
C21_3 C 0.81643(13) 0.5259(2) 0.1190(3)
H23_3 H 0.803528 0.541357 0.223630
H24_3 H 0.856472 0.516829 0.127695
C22_3 C 0.79755(13) 0.7407(2) 0.2433(3)
H19_2 H 0.822294 0.609609 0.915744
H20_2 H 0.764368 0.623127 0.993598
O11_2 O 0.82496(9) 0.21352(16) 0.8482(2)
N2_4 N 0.14011(10) 0.13892(18) 0.3024(3)
C12_4 C 0.06571(13) 0.0665(2) 0.0754(3)
C13_4 C 0.06140(13) 0.1653(2) 0.1368(3)
H13_4 H 0.032908 0.209971 0.102051
C14_4 C 0.09886(12) 0.1976(2) 0.2485(3)
H14_4 H 0.095217 0.265023 0.289376
C15_4 C 0.10853(13) 0.0058(2) 0.1305(3)
C17_4 C 0.14441(13) 0.0440(2) 0.2418(3)
H18_4 H 0.173614 0.001304 0.277462
O5_4 O 0.18080(9) 0.34515(16) 0.4072(2)
C18_4 C 0.20894(13) 0.4244(2) 0.4346(3)
C19_4 C 0.19584(13) 0.6187(2) 0.4847(3)
H19_3 H 0.177706 0.609609 0.584256
H20_3 H 0.235632 0.623127 0.506402
C20_4 C 0.17590(13) 0.7191(2) 0.4081(3)
H21_4 H 0.183491 0.777121 0.479676
H22_4 H 0.135908 0.715067 0.389964
C21_4 C 0.18357(13) 0.5259(2) 0.3810(3)
H23_4 H 0.196472 0.541357 0.276370
H24_4 H 0.143528 0.516829 0.372305
C22_4 C 0.20245(13) 0.7407(2) 0.2567(3)
C16_4 C 0.02375(13) 0.0257(2) 0.9605(3)
H16_4 H 0.009751 0.083118 0.895364
C7_4 C 0.97625(13) 0.9743(2) 0.0395(3)
H6_4 H 0.990249 0.916882 0.104636
O1_4 O 0.81920(9) 0.65485(16) 0.5928(2)
N1_4 N 0.85989(10) 0.86108(18) 0.6976(3)
C1_4 C 0.93429(13) 0.9335(2) 0.9246(3)
C2_4 C 0.93860(13) 0.8347(2) 0.8632(3)
H1_4 H 0.967092 0.790029 0.897949
C3_4 C 0.79106(13) 0.5756(2) 0.5654(3)
C4_4 C 0.90114(12) 0.8024(2) 0.7515(3)
H2_4 H 0.904783 0.734977 0.710624
C5_4 C 0.80416(13) 0.3813(2) 0.5153(3)
H3_3 H 0.822294 0.390391 0.415744
H4_3 H 0.764368 0.376873 0.493598
C6_4 C 0.89147(13) 0.9942(2) 0.8695(3)
C8_4 C 0.82410(13) 0.2809(2) 0.5919(3)
H8_4 H 0.816509 0.222879 0.520324
H9_4 H 0.864092 0.284933 0.610036
C9_4 C 0.81643(13) 0.4741(2) 0.6190(3)
H10_4 H 0.803528 0.458643 0.723630
H11_4 H 0.856472 0.483171 0.627695
C10_4 C 0.79755(13) 0.2593(2) 0.7433(3)
C11_4 C 0.85559(13) 0.9560(2) 0.7582(3)
H12_4 H 0.826386 0.998696 0.722538
H19_4 H 0.322294 0.109609 0.915744
H20_4 H 0.264368 0.123127 0.993598
H3_4 H 0.677706 0.890391 0.084256
H4_4 H 0.735632 0.876873 0.006402
H5_3 H 0.113096 0.062021 0.591732
H7_3 H 0.041188 0.024859 0.392196
H15_3 H 0.886904 0.937979 0.408268
H17_3 H 0.958812 0.975141 0.607804
H15_4 H 0.113096 0.937979 0.091732
H17_4 H 0.041188 0.975141 0.892196
H7_4 H 0.958812 0.024859 0.107804
H5_4 H 0.886904 0.062021 0.908268
loop_
_geom_bond_atom_site_label_1
_geom_bond_atom_site_label_2
_geom_bond_site_symmetry_1
_geom_bond_site_symmetry_2
O6 C22 1_555 1_555
O7 C22 1_555 1_555
C20 C19 1_555 1_555
H21 C20 1_555 1_555
H22 C20 1_555 1_555
H23 C21 1_555 1_555
H24 C21 1_555 1_555
C22 C20 1_555 1_555
Cu3 O7 1_555 1_555
Cu8 O6 1_555 1_555
C19 C21 1_555 1_555
Cu3 Cu8 1_555 1_555
Cu1 O1 1_555 1_555
O1 C3 1_555 1_555
O4 C3 1_555 1_555
N1 Cu1 1_555 1_555
C1 C2 1_555 1_555
C2 H1 1_555 1_555
C4 N1 1_555 1_555
H2 C4 1_555 1_555
C6 C1 1_555 1_555
H5 C6 1_555 1_555
C7 C1 1_555 1_555
H6 C7 1_555 1_555
H7 C7 1_555 1_555
C11 N1 1_555 1_555
H12 C11 1_555 1_555
N2 C14 1_555 1_555
C12 C13 1_555 1_555
C13 H13 1_555 1_555
C14 C13 1_555 1_555
H14 C14 1_555 1_555
C15 C12 1_555 1_555
H15 C15 1_555 1_555
C16 C7 1_555 1_555
H16 C16 1_555 1_555
H17 C16 1_555 1_555
C17 N2 1_555 1_555
H18 C17 1_555 1_555
Cu2 N2 1_555 1_555
O5 Cu2 1_555 1_555
O8 C18 1_555 1_555
C18 O5 1_555 1_555
O9 Cu1 1_555 1_555
O10 Cu2 1_555 1_555
C2 C4 1_555 1_555
C6 C11 1_555 1_555
C12 C16 1_555 1_555
C15 C17 1_555 1_555
O2 C10 1_555 1_555
O3 C10 1_555 1_555
C8 C5 1_555 1_555
H8 C8 1_555 1_555
H9 C8 1_555 1_555
C9 C5 1_555 1_555
H10 C9 1_555 1_555
H11 C9 1_555 1_555
C10 C8 1_555 1_555
Cu5 O2 1_555 1_555
Cu6 O3 1_555 1_555
Cu5 Cu6 1_555 1_555
O6_2 C22_2 1_555 1_555
O12 C22_2 1_555 1_555
C19_2 H19 1_555 1_555
H20 C19_2 1_555 1_555
C20_2 C19_2 1_555 1_555
H21_2 C20_2 1_555 1_555
H22_2 C20_2 1_555 1_555
H23_2 C21_2 1_555 1_555
H24_2 C21_2 1_555 1_555
C22_2 C20_2 1_555 1_555
Cu7 O6_2 1_555 1_555
C19_2 C21_2 1_555 1_555
H6_2 C7_2 1_555 1_555
H7_2 C7_2 1_555 1_555
N2_2 C14_2 1_555 1_555
C12_2 C13_2 1_555 1_555
C13_2 H13_2 1_555 1_555
C14_2 C13_2 1_555 1_555
H14_2 C14_2 1_555 1_555
C15_2 C12_2 1_555 1_555
H15_2 C15_2 1_555 1_555
C17_2 N2_2 1_555 1_555
H18_2 C17_2 1_555 1_555
Cu6 N2_2 1_555 1_555
O5_2 Cu6 1_555 1_555
O8_2 C18_2 1_555 1_555
C18_2 O5_2 1_555 1_555
O10_2 Cu6 1_555 1_555
O13_2 Cu6 1_555 1_555
C15_2 C17_2 1_555 1_555
O8_2 Cu5 1_555 1_555
Cu3 O1_2 1_555 1_555
O1_2 C3_2 1_555 1_555
O4_2 C3_2 1_555 1_555
N1_2 Cu3 1_555 1_555
C1_2 C2_2 1_555 1_555
C2_2 H1_2 1_555 1_555
C4_2 N1_2 1_555 1_555
H2_2 C4_2 1_555 1_555
C6_2 C1_2 1_555 1_555
H5_2 C6_2 1_555 1_555
C11_2 N1_2 1_555 1_555
H12_2 C11_2 1_555 1_555
H16_2 C16_2 1_555 1_555
H17_2 C16_2 1_555 1_555
O9_2 Cu3 1_555 1_555
O14_2 Cu3 1_555 1_555
O4_2 Cu8 1_555 1_555
C2_2 C4_2 1_555 1_555
C6_2 C11_2 1_555 1_555
O2_2 C10_2 1_555 1_555
O11 C10_2 1_555 1_555
C5_2 H3 1_555 1_555
H4 C5_2 1_555 1_555
C8_2 C5_2 1_555 1_555
H8_2 C8_2 1_555 1_555
H9_2 C8_2 1_555 1_555
C9_2 C5_2 1_555 1_555
H10_2 C9_2 1_555 1_555
H11_2 C9_2 1_555 1_555
C10_2 C8_2 1_555 1_555
Cu4 O2_2 1_555 1_555
Cu4 O1_3 1_555 1_555
O1_3 C3_3 1_555 1_555
O9_2 C10_3 1_555 1_555
O3_2 C10_3 1_555 1_555
O13 C3_3 1_555 1_555
N1_3 Cu4 1_555 1_555
C1_3 C2_3 1_555 1_555
C2_3 H1_3 1_555 1_555
C3_3 C9_3 1_555 1_555
C4_3 N1_3 1_555 1_555
H2_3 C4_3 1_555 1_555
C6_3 C1_3 1_555 1_555
C7_3 C1_3 1_555 1_555
H6_3 C7_3 1_555 1_555
C8_3 C5_3 1_555 1_555
H8_3 C8_3 1_555 1_555
H9_3 C8_3 1_555 1_555
C9_3 C5_3 1_555 1_555
H10_3 C9_3 1_555 1_555
H11_3 C9_3 1_555 1_555
C10_3 C8_3 1_555 1_555
C11_3 N1_3 1_555 1_555
H12_3 C11_3 1_555 1_555
Cu8 O3_2 1_555 1_555
C2_3 C4_3 1_555 1_555
C6_3 C11_3 1_555 1_555
N2_3 C14_3 1_555 1_555
C12_3 C13_3 1_555 1_555
C13_3 H13_3 1_555 1_555
C14_3 C13_3 1_555 1_555
H14_3 C14_3 1_555 1_555
C15_3 C12_3 1_555 1_555
H16_3 C16_3 1_555 1_555
C17_3 N2_3 1_555 1_555
H18_3 C17_3 1_555 1_555
Cu7 N2_3 1_555 1_555
O5_3 Cu7 1_555 1_555
O10_2 C22_3 1_555 1_555
O7_2 C22_3 1_555 1_555
O14 C18_3 1_555 1_555
C18_3 O5_3 1_555 1_555
C20_3 C19_3 1_555 1_555
H21_3 C20_3 1_555 1_555
H22_3 C20_3 1_555 1_555
C21_3 C18_3 1_555 1_555
H23_3 C21_3 1_555 1_555
H24_3 C21_3 1_555 1_555
C22_3 C20_3 1_555 1_555
Cu5 O7_2 1_555 1_555
C12_3 C16_3 1_555 1_555
C15_3 C17_3 1_555 1_555
C19_3 C21_3 1_555 1_555
N2_4 C14_4 1_555 1_555
C12_4 C13_4 1_555 1_555
C13_4 H13_4 1_555 1_555
C14_4 C13_4 1_555 1_555
H14_4 C14_4 1_555 1_555
C15_4 C12_4 1_555 1_555
C17_4 N2_4 1_555 1_555
H18_4 C17_4 1_555 1_555
Cu8 N2_4 1_555 1_555
O5_4 Cu8 1_555 1_555
O10 C22_4 1_555 1_555
O12_2 C22_4 1_555 1_555
O14_2 C18_4 1_555 1_555
C18_4 O5_4 1_555 1_555
C19_4 H19_3 1_555 1_555
H20_3 C19_4 1_555 1_555
C20_4 C19_4 1_555 1_555
H21_4 C20_4 1_555 1_555
H22_4 C20_4 1_555 1_555
C21_4 C18_4 1_555 1_555
H23_4 C21_4 1_555 1_555
H24_4 C21_4 1_555 1_555
C22_4 C20_4 1_555 1_555
C15_4 C17_4 1_555 1_555
C19_4 C21_4 1_555 1_555
H16_4 C16_4 1_555 1_555
H6_4 C7_4 1_555 1_555
Cu5 O1_4 1_555 1_555
O1_4 C3_4 1_555 1_555
O9 C10_4 1_555 1_555
O11_2 C10_4 1_555 1_555
O13_2 C3_4 1_555 1_555
N1_4 Cu5 1_555 1_555
C1_4 C2_4 1_555 1_555
C2_4 H1_4 1_555 1_555
C3_4 C9_4 1_555 1_555
C4_4 N1_4 1_555 1_555
H2_4 C4_4 1_555 1_555
C5_4 H3_3 1_555 1_555
H4_3 C5_4 1_555 1_555
C6_4 C1_4 1_555 1_555
C8_4 C5_4 1_555 1_555
H8_4 C8_4 1_555 1_555
H9_4 C8_4 1_555 1_555
C9_4 C5_4 1_555 1_555
H10_4 C9_4 1_555 1_555
H11_4 C9_4 1_555 1_555
C10_4 C8_4 1_555 1_555
C11_4 N1_4 1_555 1_555
H12_4 C11_4 1_555 1_555
C2_4 C4_4 1_555 1_555
C6_4 C11_4 1_555 1_555

#END
