
###############################################################################
#
# This file contains modified crystal structure data generated from the
# MOF subset of the Cambridge Structural Database (CSD) v543 
# hosted by the Cambridge Crystallographic Data Centre (CCDC).
#
# This work is licensed under the Creative Commons
# Attribution-NonCommercial-ShareAlike 4.0 International License.
# To view a copy of this license, visit
# http://creativecommons.org/licenses/by-nc-sa/4.0/
# or send a letter to
# Creative Commons, PO Box 1866, Mountain View, CA 94042, USA.
#
# CIF created using the CSD Python API on 29 September 2022
# The structure has been converted into the P1 space group
# The structure has a 3D framework
# The original CSD entry NEJKOG is in the monoclinic crystal system
# The framework has been calculated to contain at least 10.0% void space
# The void calculation uses a probe of radius 1.32A, grid spacing 0.4
#
###############################################################################

data_NEJKOG
_chemical_formula_moiety         '(C36 H16 N16 O6 Zn2)n'
_symmetry_cell_setting           triclinic
_symmetry_space_group_name_H-M   'P 1'
_symmetry_Int_Tables_number      1
_space_group_name_Hall           'P 1'
loop_
_symmetry_equiv_pos_site_id
_symmetry_equiv_pos_as_xyz
1 x,y,z
_cell_length_a                   9.5815(3)
_cell_length_b                   8.7149(3)
_cell_length_c                   14.5663(5)
_cell_angle_alpha                90
_cell_angle_beta                 100.456(3)
_cell_angle_gamma                90
_cell_volume                     1196.12
loop_
_atom_site_label
_atom_site_type_symbol
_atom_site_fract_x
_atom_site_fract_y
_atom_site_fract_z
Zn1 Zn 0.14982(3) 0.40622(4) 0.36384(2)
O3 O 0.26983(18) 0.4711(3) 0.48512(13)
N5 N 0.2806(2) 0.2631(3) 0.31418(16)
N6 N 0.1400(2) 0.5957(3) 0.28368(16)
O1 O 0.73017(18) 0.5289(3) 0.51488(13)
N2 N 0.3600(2) 0.0957(3) 0.21632(16)
N3 N 0.9005(2) 0.4337(3) 0.44347(18)
N4 N 0.9535(2) 0.3485(3) 0.37566(16)
O2 O 0.91383(19) 0.1929(3) 0.25091(16)
C1 C 0.6623(3) 0.3609(4) 0.38384(19)
C2 C 0.7663(3) 0.4443(4) 0.44975(19)
C3 C 0.4273(3) 0.2799(4) 0.32585(19)
C4 C 0.7129(3) 0.2631(4) 0.31856(19)
C5 C 0.4766(3) 0.1755(4) 0.26460(19)
C6 C 0.2506(3) 0.1542(4) 0.2502(2)
H1 H 0.158232 0.120097 0.229828
C7 C 0.5177(3) 0.3711(4) 0.3859(2)
H2 H 0.483856 0.437689 0.426672
C8 C 0.6201(3) 0.1699(4) 0.2592(2)
H3 H 0.652745 0.105328 0.216902
C9 C 0.8660(3) 0.2655(4) 0.3135(2)
H4 H 0.950(4) 0.393(2) 0.492(2)
Zn4 Zn 0.85018(3) 0.59378(4) 0.63616(2)
Zn3 Zn 0.35018(3) 0.90622(4) 0.13616(2)
N1 N 0.2194(2) 0.7631(3) 0.18582(16)
C3_2 C 0.0727(3) 0.7799(4) 0.17415(19)
C5_2 C 0.0234(3) 0.6755(4) 0.23540(19)
C6_2 C 0.2494(3) 0.6542(4) 0.2498(2)
H1_2 H 0.341768 0.620097 0.270172
H2_2 H 0.016144 0.937689 0.073328
O1_2 O 0.76983(18) 0.0289(3) 0.98512(13)
Zn4_2 Zn 0.64982(3) 0.09378(4) 0.86384(2)
N3_2 N 0.5995(2) 0.9337(3) 0.05653(18)
N4_2 N 0.5465(2) 0.8485(3) 0.12434(16)
O2_2 O 0.58617(19) 0.6929(3) 0.24909(16)
C1_2 C 0.8377(3) 0.8609(4) 0.11616(19)
C2_2 C 0.7337(3) 0.9443(4) 0.05025(19)
C4_2 C 0.7871(3) 0.7631(4) 0.18144(19)
C7_2 C 0.9823(3) 0.8711(4) 0.1141(2)
C8_2 C 0.8799(3) 0.6699(4) 0.2408(2)
H3_2 H 0.847255 0.605328 0.283098
C9_2 C 0.6340(3) 0.7655(4) 0.1865(2)
H4_2 H 0.550(4) 0.893(2) 0.008(2)
O3_2 O 0.23017(18) 0.9711(3) 0.01488(13)
N1_2 N 0.7194(2) 0.7369(3) 0.68582(16)
N2_2 N 0.6400(2) 0.9043(3) 0.78368(16)
N3_3 N 0.0995(2) 0.5663(3) 0.55653(18)
N4_3 N 0.0465(2) 0.6515(3) 0.62434(16)
O2_3 O 0.08617(19) 0.8071(3) 0.74909(16)
C1_3 C 0.3377(3) 0.6391(4) 0.61616(19)
C2_3 C 0.2337(3) 0.5557(4) 0.55025(19)
C3_3 C 0.5727(3) 0.7201(4) 0.67415(19)
C4_3 C 0.2871(3) 0.7369(4) 0.68144(19)
C5_3 C 0.5234(3) 0.8245(4) 0.73540(19)
C6_3 C 0.7494(3) 0.8458(4) 0.7498(2)
H1_3 H 0.841768 0.879903 0.770172
C7_3 C 0.4823(3) 0.6289(4) 0.6141(2)
H2_3 H 0.516144 0.562311 0.573328
C8_3 C 0.3799(3) 0.8301(4) 0.7408(2)
H3_3 H 0.347255 0.894672 0.783098
C9_3 C 0.1340(3) 0.7345(4) 0.6865(2)
H4_3 H 0.050(4) 0.607(2) 0.508(2)
N6_2 N 0.8600(2) 0.4043(3) 0.71632(16)
N3_4 N 0.4005(2) 0.0663(3) 0.94347(18)
N4_4 N 0.4535(2) 0.1515(3) 0.87566(16)
O2_4 O 0.41383(19) 0.3071(3) 0.75091(16)
C1_4 C 0.1623(3) 0.1391(4) 0.88384(19)
C2_4 C 0.2663(3) 0.0557(4) 0.94975(19)
C4_4 C 0.2129(3) 0.2369(4) 0.81856(19)
C7_4 C 0.0177(3) 0.1289(4) 0.8859(2)
C8_4 C 0.1201(3) 0.3301(4) 0.7592(2)
H3_4 H 0.152745 0.394672 0.716902
C9_4 C 0.3660(3) 0.2345(4) 0.8135(2)
H4_4 H 0.450(4) 0.107(2) 0.992(2)
N5_2 N 0.7806(2) 0.2369(3) 0.81418(16)
C3_4 C 0.9273(3) 0.2201(4) 0.82585(19)
C5_4 C 0.9766(3) 0.3245(4) 0.76460(19)
C6_4 C 0.7506(3) 0.3458(4) 0.7502(2)
H1_4 H 0.658232 0.379903 0.729828
H2_4 H 0.983856 0.062311 0.926672
loop_
_geom_bond_atom_site_label_1
_geom_bond_atom_site_label_2
_geom_bond_site_symmetry_1
_geom_bond_site_symmetry_2
O3 Zn1 1_555 1_555
N5 Zn1 1_555 1_555
N6 Zn1 1_555 1_555
O1 C2 1_555 1_555
N5 C3 1_555 1_555
N2 C5 1_555 1_555
N3 N4 1_555 1_555
N4 C9 1_555 1_555
O2 C9 1_555 1_555
C1 C2 1_555 1_555
C2 N3 1_555 1_555
C3 C5 1_555 1_555
C4 C1 1_555 1_555
C5 C8 1_555 1_555
C6 N5 1_555 1_555
H1 C6 1_555 1_555
C7 C1 1_555 1_555
H2 C7 1_555 1_555
C8 C4 1_555 1_555
H3 C8 1_555 1_555
C9 C4 1_555 1_555
H4 N3 1_555 1_555
Zn4 O1 1_555 1_555
N2 C6 1_555 1_555
C3 C7 1_555 1_555
N1 C3_2 1_555 1_555
N6 C5_2 1_555 1_555
C3_2 C5_2 1_555 1_555
C6_2 N1 1_555 1_555
H1_2 C6_2 1_555 1_555
Zn3 N1 1_555 1_555
N6 C6_2 1_555 1_555
Zn4_2 O1_2 1_555 1_555
Zn3 N4_2 1_555 1_555
N3_2 N4_2 1_555 1_555
N4_2 C9_2 1_555 1_555
O2_2 C9_2 1_555 1_555
C1_2 C2_2 1_555 1_555
C2_2 N3_2 1_555 1_555
C4_2 C1_2 1_555 1_555
C7_2 C1_2 1_555 1_555
C8_2 C4_2 1_555 1_555
H3_2 C8_2 1_555 1_555
C9_2 C4_2 1_555 1_555
H4_2 N3_2 1_555 1_555
O3_2 Zn3 1_555 1_555
O3 C2_3 1_555 1_555
N1_2 C3_3 1_555 1_555
N2_2 C5_3 1_555 1_555
N3_3 N4_3 1_555 1_555
N4_3 C9_3 1_555 1_555
O2_3 C9_3 1_555 1_555
C1_3 C2_3 1_555 1_555
C2_3 N3_3 1_555 1_555
C3_3 C5_3 1_555 1_555
C4_3 C1_3 1_555 1_555
C5_3 C8_3 1_555 1_555
C6_3 N1_2 1_555 1_555
H1_3 C6_3 1_555 1_555
C7_3 C1_3 1_555 1_555
H2_3 C7_3 1_555 1_555
C8_3 C4_3 1_555 1_555
H3_3 C8_3 1_555 1_555
C9_3 C4_3 1_555 1_555
H4_3 N3_3 1_555 1_555
Zn4 N1_2 1_555 1_555
N2_2 C6_3 1_555 1_555
C3_3 C7_3 1_555 1_555
N6_2 Zn4 1_555 1_555
Zn4_2 N4_4 1_555 1_555
N3_4 N4_4 1_555 1_555
N4_4 C9_4 1_555 1_555
O2_4 C9_4 1_555 1_555
C1_4 C2_4 1_555 1_555
C2_4 N3_4 1_555 1_555
C4_4 C1_4 1_555 1_555
C7_4 C1_4 1_555 1_555
C8_4 C4_4 1_555 1_555
H3_4 C8_4 1_555 1_555
C9_4 C4_4 1_555 1_555
H4_4 N3_4 1_555 1_555
N5_2 Zn4_2 1_555 1_555
N5_2 C3_4 1_555 1_555
N6_2 C5_4 1_555 1_555
C3_4 C5_4 1_555 1_555
C6_4 N5_2 1_555 1_555
H1_4 C6_4 1_555 1_555
N6_2 C6_4 1_555 1_555

#END
