
###############################################################################
#
# This file contains modified crystal structure data generated from the
# MOF subset of the Cambridge Structural Database (CSD) v543 
# hosted by the Cambridge Crystallographic Data Centre (CCDC).
#
# This work is licensed under the Creative Commons
# Attribution-NonCommercial-ShareAlike 4.0 International License.
# To view a copy of this license, visit
# http://creativecommons.org/licenses/by-nc-sa/4.0/
# or send a letter to
# Creative Commons, PO Box 1866, Mountain View, CA 94042, USA.
#
# CIF created using the CSD Python API on 29 September 2022
# The structure has been converted into the P1 space group
# The structure has a 3D framework
# The original CSD entry NELWIL is in the monoclinic crystal system
# The framework has been calculated to contain at least 10.0% void space
# The void calculation uses a probe of radius 1.32A, grid spacing 0.4
#
###############################################################################

data_NELWIL
_chemical_formula_moiety         '(C32 H16 Cu4 N12 O16)n'
_symmetry_cell_setting           triclinic
_symmetry_space_group_name_H-M   'P 1'
_symmetry_Int_Tables_number      1
_space_group_name_Hall           'P 1'
loop_
_symmetry_equiv_pos_site_id
_symmetry_equiv_pos_as_xyz
1 x,y,z
_cell_length_a                   4.7094(1)
_cell_length_b                   20.2467(5)
_cell_length_c                   11.2824(4)
_cell_angle_alpha                90
_cell_angle_beta                 98.827(4)
_cell_angle_gamma                90
_cell_volume                     1063.03
loop_
_atom_site_label
_atom_site_type_symbol
_atom_site_fract_x
_atom_site_fract_y
_atom_site_fract_z
_atom_site_U_iso_or_equiv
_atom_site_thermal_displace_type
Cu3 Cu 0.6758(10) 0.1625(1) 0.0551(4) 0.0139 Uiso
O2 O 0.127(3) 0.3214(4) 0.8764(8) 0.0127 Uiso
O3 O 0.475(3) 0.1925(7) 0.892(1) 0.0127 Uiso
O4 O 0.116(3) 0.1686(7) 0.9864(9) 0.0127 Uiso
C2 C 0.017(3) 0.1891(3) 0.7795(9) 0.0317 Uiso
C6 C 0.216(2) 0.1815(5) 0.8948(7) 0.0317 Uiso
O10 O 0.116(3) 0.3314(7) 0.4864(9) 0.0127 Uiso
Cu1 Cu 0.6758(10) 0.3375(1) 0.5551(4) 0.0139 Uiso
O1 O 0.851(3) 0.3608(3) 0.7184(6) 0.0127 Uiso
N1 N 0.732(3) 0.2469(1) 0.6226(7) 0.0152 Uiso
N2 N 0.920(3) 0.1320(3) 0.732(1) 0.0152 Uiso
N3 N 0.574(3) 0.4341(3) 0.5193(6) 0.0152 Uiso
C1 C 0.912(4) 0.2470(2) 0.7263(10) 0.0317 Uiso
C3 C 0.757(4) 0.1321(2) 0.627(1) 0.0317 Uiso
C4 C 0.646(4) 0.1889(1) 0.571(1) 0.0317 Uiso
C5 C 0.980(2) 0.3159(3) 0.7783(7) 0.0317 Uiso
C7 C 0.484(5) 0.4690(3) 0.6036(7) 0.0317 Uiso
C8 C 0.608(4) 0.4644(3) 0.4180(8) 0.0317 Uiso
H1 H 0.72(2) 0.0905(7) 0.583(4) 0.0317 Uiso
H2 H 0.524(8) 0.1887(2) 0.495(2) 0.0317 Uiso
H3 H 0.461(8) 0.4492(5) 0.680(1) 0.0317 Uiso
H4 H 0.677(7) 0.4401(5) 0.355(1) 0.0317 Uiso
Cu5 Cu 0.3242(10) 0.6625(1) 0.4449(4) 0.0139 Uiso
O6 O 0.127(3) 0.1786(4) 0.3764(8) 0.0127 Uiso
O7 O 0.475(3) 0.3075(7) 0.392(1) 0.0127 Uiso
N6 N 0.426(3) 0.5659(3) 0.4807(6) 0.0152 Uiso
C10 C 0.017(3) 0.3109(3) 0.2795(9) 0.0317 Uiso
C14 C 0.216(2) 0.3185(5) 0.3948(7) 0.0317 Uiso
C15 C 0.516(5) 0.5310(3) 0.3964(7) 0.0317 Uiso
C16 C 0.392(4) 0.5356(3) 0.5820(8) 0.0317 Uiso
H7 H 0.539(8) 0.5508(5) 0.320(1) 0.0317 Uiso
H8 H 0.323(7) 0.5599(5) 0.645(1) 0.0317 Uiso
O5 O 0.851(3) 0.1392(3) 0.2184(6) 0.0127 Uiso
N4 N 0.732(3) 0.2531(1) 0.1226(7) 0.0152 Uiso
N5 N 0.920(3) 0.3680(3) 0.232(1) 0.0152 Uiso
N7 N 0.574(3) 0.0659(3) 0.0193(6) 0.0152 Uiso
C9 C 0.912(4) 0.2530(2) 0.2263(10) 0.0317 Uiso
C11 C 0.757(4) 0.3679(2) 0.127(1) 0.0317 Uiso
C12 C 0.646(4) 0.3111(1) 0.071(1) 0.0317 Uiso
C13 C 0.980(2) 0.1841(3) 0.2783(7) 0.0317 Uiso
H5 H 0.72(2) 0.4095(7) 0.083(4) 0.0317 Uiso
H6 H 0.524(8) 0.3113(2) 0.995(2) 0.0317 Uiso
O5_2 O 0.149(3) 0.6392(3) 0.2816(6) 0.0127 Uiso
O8 O 0.525(3) 0.6925(7) 0.608(1) 0.0127 Uiso
N4_2 N 0.268(3) 0.7531(1) 0.3774(7) 0.0152 Uiso
N5_2 N 0.080(3) 0.8680(3) 0.268(1) 0.0152 Uiso
C9_2 C 0.088(4) 0.7530(2) 0.2737(10) 0.0317 Uiso
C11_2 C 0.243(4) 0.8679(2) 0.373(1) 0.0317 Uiso
C12_2 C 0.354(4) 0.8111(1) 0.429(1) 0.0317 Uiso
C13_2 C 0.020(2) 0.6841(3) 0.2217(7) 0.0317 Uiso
H5_2 H 0.28(2) 0.9095(7) 0.417(4) 0.0317 Uiso
H6_2 H 0.476(8) 0.8113(2) 0.505(2) 0.0317 Uiso
Cu6 Cu 0.3242(10) 0.8375(1) 0.9449(4) 0.0139 Uiso
C15_2 C 0.484(5) 0.0310(3) 0.1036(7) 0.0317 Uiso
H7_2 H 0.461(8) 0.0508(5) 0.180(1) 0.0317 Uiso
C16_2 C 0.608(4) 0.0356(3) 0.9180(8) 0.0317 Uiso
H8_2 H 0.677(7) 0.0599(5) 0.855(1) 0.0317 Uiso
C8_2 C 0.392(4) 0.9644(3) 0.0820(8) 0.0317 Uiso
H2_2 H 0.476(8) 0.6887(2) 0.005(2) 0.0317 Uiso
H4_2 H 0.323(7) 0.9401(5) 0.145(1) 0.0317 Uiso
O6_2 O 0.873(3) 0.6786(4) 0.1236(8) 0.0127 Uiso
O7_2 O 0.525(3) 0.8075(7) 0.108(1) 0.0127 Uiso
O9 O 0.884(3) 0.8314(7) 0.0136(9) 0.0127 Uiso
O11 O 0.884(3) 0.6686(7) 0.5136(9) 0.0127 Uiso
C10_2 C 0.983(3) 0.8109(3) 0.2205(9) 0.0317 Uiso
C14_2 C 0.784(2) 0.8185(5) 0.1052(7) 0.0317 Uiso
O1_2 O 0.149(3) 0.8608(3) 0.7816(6) 0.0127 Uiso
N1_2 N 0.268(3) 0.7469(1) 0.8774(7) 0.0152 Uiso
N2_2 N 0.080(3) 0.6320(3) 0.768(1) 0.0152 Uiso
N3_2 N 0.426(3) 0.9341(3) 0.9807(6) 0.0152 Uiso
C1_2 C 0.088(4) 0.7470(2) 0.7737(10) 0.0317 Uiso
C3_2 C 0.243(4) 0.6321(2) 0.873(1) 0.0317 Uiso
C4_2 C 0.354(4) 0.6889(1) 0.929(1) 0.0317 Uiso
C5_2 C 0.020(2) 0.8159(3) 0.7217(7) 0.0317 Uiso
C7_2 C 0.516(5) 0.9690(3) 0.8964(7) 0.0317 Uiso
H1_2 H 0.28(2) 0.5905(7) 0.917(4) 0.0317 Uiso
H3_2 H 0.539(8) 0.9492(5) 0.820(1) 0.0317 Uiso
O2_2 O 0.873(3) 0.8214(4) 0.6236(8) 0.0127 Uiso
C2_2 C 0.983(3) 0.6891(3) 0.7205(9) 0.0317 Uiso
C6_2 C 0.784(2) 0.6815(5) 0.6052(7) 0.0317 Uiso
loop_
_geom_bond_atom_site_label_1
_geom_bond_atom_site_label_2
_geom_bond_site_symmetry_1
_geom_bond_site_symmetry_2
O3 C6 1_555 1_555
O4 C6 1_555 1_555
C6 C2 1_555 1_555
Cu1 O1 1_555 1_555
O1 C5 1_555 1_555
N1 Cu1 1_555 1_555
N3 Cu1 1_555 1_555
C1 N1 1_555 1_555
C3 N2 1_555 1_555
C4 N1 1_555 1_555
C5 C1 1_555 1_555
C7 N3 1_555 1_555
C8 N3 1_555 1_555
H1 C3 1_555 1_555
H2 C4 1_555 1_555
H3 C7 1_555 1_555
H4 C8 1_555 1_555
Cu5 N6 1_555 1_555
O7 Cu1 1_555 1_555
O10 C14 1_555 1_555
N6 C15 1_555 1_555
C14 O7 1_555 1_555
C15 C8 1_555 1_555
C16 C7 1_555 1_555
H7 C15 1_555 1_555
H8 C16 1_555 1_555
C3 C4 1_555 1_555
N6 C16 1_555 1_555
C10 C14 1_555 1_555
Cu3 O5 1_555 1_555
O5 C13 1_555 1_555
N4 Cu3 1_555 1_555
N7 Cu3 1_555 1_555
C9 N4 1_555 1_555
C11 N5 1_555 1_555
C12 N4 1_555 1_555
C13 C9 1_555 1_555
H5 C11 1_555 1_555
C11 C12 1_555 1_555
Cu5 O5_2 1_555 1_555
O5_2 C13_2 1_555 1_555
O8 Cu5 1_555 1_555
N4_2 Cu5 1_555 1_555
C9_2 N4_2 1_555 1_555
C11_2 N5_2 1_555 1_555
C12_2 N4_2 1_555 1_555
C13_2 C9_2 1_555 1_555
H5_2 C11_2 1_555 1_555
H6_2 C12_2 1_555 1_555
C11_2 C12_2 1_555 1_555
N7 C15_2 1_555 1_555
H7_2 C15_2 1_555 1_555
H8_2 C16_2 1_555 1_555
H4_2 C8_2 1_555 1_555
O9 C14_2 1_555 1_555
C14_2 O7_2 1_555 1_555
C10_2 C14_2 1_555 1_555
Cu6 O1_2 1_555 1_555
O1_2 C5_2 1_555 1_555
N1_2 Cu6 1_555 1_555
N3_2 Cu6 1_555 1_555
C1_2 N1_2 1_555 1_555
C3_2 N2_2 1_555 1_555
C4_2 N1_2 1_555 1_555
C5_2 C1_2 1_555 1_555
C7_2 N3_2 1_555 1_555
H1_2 C3_2 1_555 1_555
H3_2 C7_2 1_555 1_555
C3_2 C4_2 1_555 1_555
O8 C6_2 1_555 1_555
O11 C6_2 1_555 1_555
C6_2 C2_2 1_555 1_555

#END
