
###############################################################################
#
# This file contains modified crystal structure data generated from the
# MOF subset of the Cambridge Structural Database (CSD) v543 
# hosted by the Cambridge Crystallographic Data Centre (CCDC).
#
# This work is licensed under the Creative Commons
# Attribution-NonCommercial-ShareAlike 4.0 International License.
# To view a copy of this license, visit
# http://creativecommons.org/licenses/by-nc-sa/4.0/
# or send a letter to
# Creative Commons, PO Box 1866, Mountain View, CA 94042, USA.
#
# CIF created using the CSD Python API on 29 September 2022
# The structure has been converted into the P1 space group
# The structure has a 3D framework
# The original CSD entry NEMXUB is in the triclinic crystal system
# The framework has been calculated to contain at least 10.0% void space
# The void calculation uses a probe of radius 1.32A, grid spacing 0.4
#
###############################################################################

data_NEMXUB
_chemical_formula_moiety         '(C30 H48 O30 Pr4)n'
_symmetry_cell_setting           triclinic
_symmetry_space_group_name_H-M   'P 1'
_symmetry_Int_Tables_number      1
_space_group_name_Hall           'P 1'
loop_
_symmetry_equiv_pos_site_id
_symmetry_equiv_pos_as_xyz
1 x,y,z
_cell_length_a                   8.97150(10)
_cell_length_b                   9.7838(2)
_cell_length_c                   16.0593(3)
_cell_angle_alpha                103.3733(7)
_cell_angle_beta                 103.9324(7)
_cell_angle_gamma                98.5385(14)
_cell_volume                     1299.56
loop_
_atom_site_label
_atom_site_type_symbol
_atom_site_fract_x
_atom_site_fract_y
_atom_site_fract_z
H5 H 0.0375 0.2554 0.3436
C5 C 0.0528(10) 0.0793(10) 0.2490(6)
O3 O 0.1845(7) 0.0519(7) 0.2787(4)
H17 H 0.0118 0.6310 0.4859
H18 H 0.0018 0.5453 0.3864
C15 C 0.1186(12) 0.7568(10) 0.4213(6)
O11 O 0.0835(8) 0.8609(7) 0.3922(5)
O12 O 0.2621(8) 0.7460(7) 0.4459(4)
Pr4 Pr 0.19230(6) 0.95147(5) 0.09783(3)
Pr6 Pr 0.34825(6) 0.92547(5) 0.36490(3)
C2 C 0.6986(11) 0.0095(11) 0.2516(6)
C3 C 0.8035(11) 0.1584(11) 0.2760(6)
H3 H 0.7695 0.2265 0.3199
H4 H 0.7931 0.1928 0.2220
C4 C 0.9765(11) 0.1552(10) 0.3160(6)
H6 H 0.9828 0.1066 0.3640
O2 O 0.4979(8) 0.0418(7) 0.1318(4)
O4 O 0.9900(8) 0.0520(8) 0.1671(4)
O15 O 0.5207(8) 0.1637(8) 0.3902(5)
H23 H 0.509(15) 0.234(9) 0.371(8)
H24 H 0.595(11) 0.207(13) 0.436(5)
O18 O 0.0609(8) 0.1410(7) 0.0246(4)
O20 O 0.2626(8) 0.2214(7) 0.1432(4)
O21 O 0.3937(8) 0.0721(8) 0.5240(4)
Pr7 Pr 0.65175(6) 0.07453(5) 0.63510(3)
C1 C 0.5298(11) 0.9967(10) 0.1997(6)
H1 H 0.7443 0.9398 0.2158
H2 H 0.6991 0.9822 0.3073
C6 C 0.0692(11) 0.6834(10) 0.1857(6)
C8 C 0.0249(12) 0.4165(10) 0.1710(7)
H10 H 0.0984 0.4322 0.2310
C9 C 0.1150(11) 0.3919(11) 0.1005(6)
H11 H 0.0508 0.4006 0.0432
H12 H 0.2144 0.4653 0.1204
C10 C 0.1492(11) 0.2457(10) 0.0882(6)
C11 C 0.6350(11) 0.8200(11) 0.4251(6)
C12 C 0.7861(11) 0.7744(11) 0.4578(6)
H13 H 0.7820 0.7401 0.5108
H14 H 0.8736 0.8600 0.4777
C13 C 0.8238(12) 0.6583(11) 0.3911(7)
H15 H 0.8102 0.6837 0.3340
H16 H 0.7488 0.5664 0.3798
C14 C 0.9925(12) 0.6378(11) 0.4238(7)
O1 O 0.4199(8) 0.9337(8) 0.2246(4)
O5 O 0.0354(8) 0.7632(7) 0.1351(5)
O6 O 0.1934(8) 0.7109(7) 0.2478(4)
O9 O 0.5388(8) 0.7553(8) 0.3498(4)
O10 O 0.6063(8) 0.9279(8) 0.4760(4)
O14 O 0.2866(8) 0.7220(7) 0.0449(5)
H21 H 0.329(13) 0.717(13) 0.003(6)
H22 H 0.343(12) 0.679(12) 0.073(7)
O19 O 0.9391(8) 0.8590(7) 0.9754(4)
Pr5 Pr 0.80770(6) 0.04853(5) 0.90217(3)
O17 O 0.0100(8) 0.9480(8) 0.8329(4)
C1_2 C 0.4702(11) 0.0033(10) 0.8003(6)
H1_2 H 0.2557 0.0602 0.7842
H2_2 H 0.3009 0.0178 0.6927
C6_2 C 0.9308(11) 0.3166(10) 0.8143(6)
C8_2 C 0.9751(12) 0.5835(10) 0.8290(7)
H10_2 H 0.9016 0.5678 0.7690
C9_2 C 0.8850(11) 0.6081(11) 0.8995(6)
H11_2 H 0.9492 0.5994 0.9568
H12_2 H 0.7856 0.5347 0.8796
C10_2 C 0.8508(11) 0.7543(10) 0.9118(6)
C11_2 C 0.3650(11) 0.1800(11) 0.5749(6)
C12_2 C 0.2139(11) 0.2256(11) 0.5422(6)
H13_2 H 0.2180 0.2599 0.4892
H14_2 H 0.1264 0.1400 0.5223
C13_2 C 0.1762(12) 0.3417(11) 0.6089(7)
H15_2 H 0.1898 0.3163 0.6660
H16_2 H 0.2512 0.4336 0.6202
C14_2 C 0.0075(12) 0.3622(11) 0.5762(7)
O1_2 O 0.5801(8) 0.0663(8) 0.7754(4)
O5_2 O 0.9646(8) 0.2368(7) 0.8649(5)
O6_2 O 0.8066(8) 0.2891(7) 0.7522(4)
O8 O 0.7374(8) 0.7786(7) 0.8568(4)
O9_2 O 0.4612(8) 0.2447(8) 0.6502(4)
O14_2 O 0.7134(8) 0.2780(7) 0.9551(5)
H21_2 H 0.671(13) 0.283(13) 0.997(6)
H22_2 H 0.657(12) 0.321(12) 0.927(7)
O22 O 0.9165(8) 0.1391(7) 0.6078(5)
O23 O 0.7379(8) 0.2540(7) 0.5541(4)
C2_2 C 0.3014(11) 0.9905(11) 0.7484(6)
C3_2 C 0.1965(11) 0.8416(11) 0.7240(6)
H3_2 H 0.2305 0.7735 0.6801
H4_2 H 0.2069 0.8072 0.7780
C4_2 C 0.0235(11) 0.8448(10) 0.6840(6)
H6_2 H 0.0172 0.8934 0.6360
O2_2 O 0.5021(8) 0.9582(7) 0.8682(4)
O15_2 O 0.4793(8) 0.8363(8) 0.6098(5)
H23_2 H 0.491(15) 0.766(9) 0.629(8)
H24_2 H 0.405(11) 0.793(13) 0.564(5)
O16 O 0.8155(7) 0.9481(7) 0.7213(4)
H17_2 H 0.9882 0.3690 0.5141
H18_2 H 0.9982 0.4547 0.6136
C15_2 C 0.8814(12) 0.2432(10) 0.5787(6)
H5_2 H 0.9625 0.7446 0.6564
C5_2 C 0.9472(10) 0.9207(10) 0.7510(6)
O13 O 0.2659(8) 0.9526(8) 0.9589(4)
H19 H 0.337(11) 0.956(14) 0.935(8)
H20 H 0.202(12) 0.973(14) 0.918(6)
C7 C 0.9493(12) 0.5457(10) 0.1701(7)
H7 H 0.8945 0.5591 0.2170
H8 H 0.8697 0.5265 0.1117
H9 H 0.9423 0.3295 0.1593
C7_2 C 0.0507(12) 0.4543(10) 0.8299(7)
H7_2 H 0.1055 0.4409 0.7830
H8_2 H 0.1303 0.4735 0.8883
H9_2 H 0.0577 0.6705 0.8407
O13_2 O 0.7341(8) 0.0474(8) 0.0411(4)
H19_2 H 0.663(11) 0.044(14) 0.065(8)
H20_2 H 0.798(12) 0.027(14) 0.082(6)
loop_
_geom_bond_atom_site_label_1
_geom_bond_atom_site_label_2
_geom_bond_site_symmetry_1
_geom_bond_site_symmetry_2
O3 C5 1_555 1_555
O11 C15 1_555 1_555
O12 C15 1_555 1_555
O11 Pr6 1_555 1_555
O12 Pr6 1_555 1_555
C3 C2 1_555 1_555
H3 C3 1_555 1_555
H4 C3 1_555 1_555
C4 C3 1_555 1_555
H6 C4 1_555 1_555
O15 H23 1_555 1_555
H24 O15 1_555 1_555
O21 Pr7 1_555 1_555
H10 C8 1_555 1_555
C9 C8 1_555 1_555
H11 C9 1_555 1_555
H12 C9 1_555 1_555
C10 C9 1_555 1_555
C11 C12 1_555 1_555
C12 H13 1_555 1_555
H14 C12 1_555 1_555
C13 C12 1_555 1_555
H15 C13 1_555 1_555
H16 C13 1_555 1_555
C14 C13 1_555 1_555
O1 C1 1_555 1_555
O5 C6 1_555 1_555
O6 C6 1_555 1_555
O18 C10 1_555 1_555
O20 C10 1_555 1_555
O9 C11 1_555 1_555
O10 C11 1_555 1_555
O14 H21 1_555 1_555
H22 O14 1_555 1_555
Pr4 O1 1_555 1_555
Pr6 O1 1_555 1_555
O5 Pr4 1_555 1_555
O6 Pr6 1_555 1_555
O9 Pr6 1_555 1_555
O10 Pr6 1_555 1_555
O14 Pr4 1_555 1_555
H10_2 C8_2 1_555 1_555
C9_2 C8_2 1_555 1_555
H11_2 C9_2 1_555 1_555
H12_2 C9_2 1_555 1_555
C10_2 C9_2 1_555 1_555
C11_2 C12_2 1_555 1_555
C12_2 H13_2 1_555 1_555
H14_2 C12_2 1_555 1_555
C13_2 C12_2 1_555 1_555
H15_2 C13_2 1_555 1_555
H16_2 C13_2 1_555 1_555
C14_2 C13_2 1_555 1_555
O1_2 C1_2 1_555 1_555
O5_2 C6_2 1_555 1_555
O6_2 C6_2 1_555 1_555
O19 C10_2 1_555 1_555
O8 C10_2 1_555 1_555
O9_2 C11_2 1_555 1_555
O21 C11_2 1_555 1_555
O14_2 H21_2 1_555 1_555
H22_2 O14_2 1_555 1_555
Pr5 O1_2 1_555 1_555
Pr7 O1_2 1_555 1_555
O22 Pr7 1_555 1_555
O23 Pr7 1_555 1_555
O5_2 Pr5 1_555 1_555
O6_2 Pr7 1_555 1_555
O9_2 Pr7 1_555 1_555
O14_2 Pr5 1_555 1_555
C3_2 C2_2 1_555 1_555
H3_2 C3_2 1_555 1_555
H4_2 C3_2 1_555 1_555
C4_2 C3_2 1_555 1_555
H6_2 C4_2 1_555 1_555
O15_2 H23_2 1_555 1_555
H24_2 O15_2 1_555 1_555
O22 C15_2 1_555 1_555
O23 C15_2 1_555 1_555
O16 C5_2 1_555 1_555
O13 H19 1_555 1_555
H20 O13 1_555 1_555
C7 H7 1_555 1_555
H8 C7 1_555 1_555
C7_2 H7_2 1_555 1_555
H8_2 C7_2 1_555 1_555
O13_2 H19_2 1_555 1_555
H20_2 O13_2 1_555 1_555

#END
