
###############################################################################
#
# This file contains modified crystal structure data generated from the
# MOF subset of the Cambridge Structural Database (CSD) v543 
# hosted by the Cambridge Crystallographic Data Centre (CCDC).
#
# This work is licensed under the Creative Commons
# Attribution-NonCommercial-ShareAlike 4.0 International License.
# To view a copy of this license, visit
# http://creativecommons.org/licenses/by-nc-sa/4.0/
# or send a letter to
# Creative Commons, PO Box 1866, Mountain View, CA 94042, USA.
#
# CIF created using the CSD Python API on 29 September 2022
# The structure has been converted into the P1 space group
# The structure has a 3D framework
# The original CSD entry NEMXEL is in the triclinic crystal system
# The framework has been calculated to contain at least 10.0% void space
# The void calculation uses a probe of radius 1.32A, grid spacing 0.4
#
###############################################################################

data_NEMXEL
_chemical_formula_moiety         '(C30 H48 Ce4 O30)n'
_symmetry_cell_setting           triclinic
_symmetry_space_group_name_H-M   'P 1'
_symmetry_Int_Tables_number      1
_space_group_name_Hall           'P 1'
loop_
_symmetry_equiv_pos_site_id
_symmetry_equiv_pos_as_xyz
1 x,y,z
_cell_length_a                   9.0090(8)
_cell_length_b                   9.8135(10)
_cell_length_c                   16.1296(15)
_cell_angle_alpha                103.478(3)
_cell_angle_beta                 103.852(5)
_cell_angle_gamma                98.566(3)
_cell_volume                     1314.37
loop_
_atom_site_label
_atom_site_type_symbol
_atom_site_fract_x
_atom_site_fract_y
_atom_site_fract_z
H5 H 0.0368 0.2555 0.3420
C5 C 0.0508(6) 0.0790(5) 0.2487(3)
O3 O 0.1850(5) 0.0521(4) 0.2777(3)
H17 H 0.0112 0.6322 0.4862
H18 H 0.0020 0.5461 0.3873
C15 C 0.1179(6) 0.7572(5) 0.4217(3)
O11 O 0.0818(5) 0.8595(4) 0.3926(3)
O12 O 0.2612(4) 0.7457(4) 0.4468(2)
Ce4 Ce 0.19253(3) 0.95143(3) 0.09779(2)
Ce6 Ce 0.34754(3) 0.92543(3) 0.36481(2)
C2 C 0.6990(6) 0.0075(6) 0.2505(3)
C3 C 0.8042(6) 0.1587(5) 0.2760(3)
H3 H 0.7935 0.1941 0.2226
H4 H 0.7702 0.2255 0.3202
C4 C 0.9758(6) 0.1554(5) 0.3150(3)
H6 H 0.9826 0.1079 0.3632
O2 O 0.4995(4) 0.0428(4) 0.1325(2)
O4 O 0.9874(4) 0.0509(4) 0.1670(2)
O15 O 0.5212(5) 0.1656(5) 0.3896(3)
H23 H 0.509(9) 0.234(6) 0.368(5)
H24 H 0.601(6) 0.198(8) 0.433(4)
O18 O 0.0614(5) 0.1400(4) 0.0240(2)
O20 O 0.2641(4) 0.2248(4) 0.1433(2)
O21 O 0.3944(5) 0.0745(4) 0.5250(2)
Ce7 Ce 0.65246(3) 0.07457(3) 0.63519(2)
C1 C 0.5313(6) 0.9967(5) 0.2006(3)
H1 H 0.7435 0.9390 0.2133
H2 H 0.7008 0.9783 0.3054
C6 C 0.0682(6) 0.6828(5) 0.1850(3)
C8 C 0.0240(7) 0.4167(5) 0.1711(4)
H10 H 0.0982 0.4329 0.2304
C9 C 0.1114(6) 0.3927(5) 0.0997(3)
H11 H 0.0451 0.3989 0.0427
H12 H 0.2090 0.4675 0.1182
C10 C 0.1501(6) 0.2452(5) 0.0881(3)
C11 C 0.6348(6) 0.8180(5) 0.4248(3)
C12 C 0.7858(6) 0.7729(5) 0.4588(3)
H13 H 0.7803 0.7380 0.5111
H14 H 0.8729 0.8584 0.4792
C13 C 0.8238(6) 0.6567(6) 0.3914(4)
H15 H 0.8098 0.6820 0.3345
H16 H 0.7500 0.5645 0.3802
C14 C 0.9921(6) 0.6383(5) 0.4242(4)
O1 O 0.4206(4) 0.9345(4) 0.2243(2)
O5 O 0.0326(5) 0.7615(4) 0.1344(2)
O6 O 0.1923(5) 0.7101(4) 0.2466(2)
O9 O 0.5393(5) 0.7542(5) 0.3504(3)
O10 O 0.6056(5) 0.9255(4) 0.4750(2)
O14 O 0.2887(5) 0.7209(4) 0.0460(3)
H22 H 0.346(8) 0.689(8) 0.083(4)
O19 O 0.9386(5) 0.8600(4) 0.9760(2)
Ce5 Ce 0.80747(3) 0.04857(3) 0.90221(2)
O17 O 0.0126(4) 0.9491(4) 0.8330(2)
C1_2 C 0.4687(6) 0.0033(5) 0.7994(3)
H1_2 H 0.2565 0.0610 0.7867
H2_2 H 0.2992 0.0217 0.6946
C6_2 C 0.9318(6) 0.3172(5) 0.8150(3)
C8_2 C 0.9760(7) 0.5833(5) 0.8289(4)
H10_2 H 0.9018 0.5671 0.7696
C9_2 C 0.8886(6) 0.6073(5) 0.9003(3)
H11_2 H 0.9549 0.6011 0.9573
H12_2 H 0.7910 0.5325 0.8818
C10_2 C 0.8499(6) 0.7548(5) 0.9119(3)
C11_2 C 0.3652(6) 0.1820(5) 0.5752(3)
C12_2 C 0.2142(6) 0.2271(5) 0.5412(3)
H13_2 H 0.2197 0.2620 0.4889
H14_2 H 0.1271 0.1416 0.5208
C13_2 C 0.1762(6) 0.3433(6) 0.6086(4)
H15_2 H 0.1902 0.3180 0.6655
H16_2 H 0.2500 0.4355 0.6198
C14_2 C 0.0079(6) 0.3617(5) 0.5758(4)
O1_2 O 0.5794(4) 0.0655(4) 0.7757(2)
O5_2 O 0.9674(5) 0.2385(4) 0.8656(2)
O6_2 O 0.8077(5) 0.2899(4) 0.7534(2)
O8 O 0.7359(4) 0.7752(4) 0.8567(2)
O9_2 O 0.4607(5) 0.2458(5) 0.6496(3)
O14_2 O 0.7113(5) 0.2791(4) 0.9540(3)
H22_2 H 0.654(8) 0.311(8) 0.917(4)
O22 O 0.9182(5) 0.1405(4) 0.6074(3)
O23 O 0.7388(4) 0.2543(4) 0.5532(2)
C2_2 C 0.3010(6) 0.9925(6) 0.7495(3)
C3_2 C 0.1958(6) 0.8413(5) 0.7240(3)
H3_2 H 0.2065 0.8059 0.7774
H4_2 H 0.2298 0.7745 0.6798
C4_2 C 0.0242(6) 0.8446(5) 0.6850(3)
H6_2 H 0.0174 0.8921 0.6368
O2_2 O 0.5005(4) 0.9572(4) 0.8675(2)
O15_2 O 0.4788(5) 0.8344(5) 0.6104(3)
H23_2 H 0.491(9) 0.766(6) 0.632(5)
H24_2 H 0.399(6) 0.802(8) 0.567(4)
O16 O 0.8150(5) 0.9479(4) 0.7223(3)
H17_2 H 0.9888 0.3678 0.5138
H18_2 H 0.9980 0.4539 0.6127
C15_2 C 0.8821(6) 0.2428(5) 0.5783(3)
H5_2 H 0.9632 0.7445 0.6580
C5_2 C 0.9492(6) 0.9210(5) 0.7513(3)
O13 O 0.2674(5) 0.9514(4) 0.9585(2)
H19 H 0.348(5) 0.947(8) 0.941(4)
H20 H 0.204(7) 0.958(8) 0.913(3)
H21 H 0.311(9) 0.713(8) 0.997(3)
C7 C 0.9488(7) 0.5456(5) 0.1698(4)
H7 H 0.8943 0.5594 0.2167
H8 H 0.8695 0.5259 0.1117
H9 H 0.9420 0.3299 0.1599
C7_2 C 0.0512(7) 0.4544(5) 0.8302(4)
H7_2 H 0.1057 0.4406 0.7833
H8_2 H 0.1305 0.4741 0.8883
H9_2 H 0.0580 0.6701 0.8401
O13_2 O 0.7326(5) 0.0486(4) 0.0415(2)
H19_2 H 0.652(5) 0.053(8) 0.059(4)
H20_2 H 0.796(7) 0.042(8) 0.087(3)
H21_2 H 0.689(9) 0.287(8) 0.003(3)
loop_
_geom_bond_atom_site_label_1
_geom_bond_atom_site_label_2
_geom_bond_site_symmetry_1
_geom_bond_site_symmetry_2
O3 C5 1_555 1_555
O11 C15 1_555 1_555
O12 C15 1_555 1_555
O11 Ce6 1_555 1_555
O12 Ce6 1_555 1_555
C3 C2 1_555 1_555
H3 C3 1_555 1_555
H4 C3 1_555 1_555
C4 C3 1_555 1_555
H6 C4 1_555 1_555
O15 H23 1_555 1_555
H24 O15 1_555 1_555
O21 Ce7 1_555 1_555
H10 C8 1_555 1_555
C9 C8 1_555 1_555
H11 C9 1_555 1_555
H12 C9 1_555 1_555
C10 C9 1_555 1_555
C11 C12 1_555 1_555
C12 H13 1_555 1_555
H14 C12 1_555 1_555
C13 C12 1_555 1_555
H15 C13 1_555 1_555
H16 C13 1_555 1_555
C14 C13 1_555 1_555
O1 C1 1_555 1_555
O5 C6 1_555 1_555
O6 C6 1_555 1_555
O18 C10 1_555 1_555
O20 C10 1_555 1_555
O9 C11 1_555 1_555
O10 C11 1_555 1_555
H22 O14 1_555 1_555
Ce4 O1 1_555 1_555
Ce6 O1 1_555 1_555
O5 Ce4 1_555 1_555
O6 Ce6 1_555 1_555
O9 Ce6 1_555 1_555
O10 Ce6 1_555 1_555
O14 Ce4 1_555 1_555
H10_2 C8_2 1_555 1_555
C9_2 C8_2 1_555 1_555
H11_2 C9_2 1_555 1_555
H12_2 C9_2 1_555 1_555
C10_2 C9_2 1_555 1_555
C11_2 C12_2 1_555 1_555
C12_2 H13_2 1_555 1_555
H14_2 C12_2 1_555 1_555
C13_2 C12_2 1_555 1_555
H15_2 C13_2 1_555 1_555
H16_2 C13_2 1_555 1_555
C14_2 C13_2 1_555 1_555
O1_2 C1_2 1_555 1_555
O5_2 C6_2 1_555 1_555
O6_2 C6_2 1_555 1_555
O19 C10_2 1_555 1_555
O8 C10_2 1_555 1_555
O9_2 C11_2 1_555 1_555
O21 C11_2 1_555 1_555
H22_2 O14_2 1_555 1_555
Ce5 O1_2 1_555 1_555
Ce7 O1_2 1_555 1_555
O22 Ce7 1_555 1_555
O23 Ce7 1_555 1_555
O5_2 Ce5 1_555 1_555
O6_2 Ce7 1_555 1_555
O9_2 Ce7 1_555 1_555
O14_2 Ce5 1_555 1_555
C3_2 C2_2 1_555 1_555
H3_2 C3_2 1_555 1_555
H4_2 C3_2 1_555 1_555
C4_2 C3_2 1_555 1_555
H6_2 C4_2 1_555 1_555
O15_2 H23_2 1_555 1_555
H24_2 O15_2 1_555 1_555
O22 C15_2 1_555 1_555
O23 C15_2 1_555 1_555
O16 C5_2 1_555 1_555
O13 H19 1_555 1_555
H20 O13 1_555 1_555
C7 H7 1_555 1_555
H8 C7 1_555 1_555
C7_2 H7_2 1_555 1_555
H8_2 C7_2 1_555 1_555
O13_2 H19_2 1_555 1_555
H20_2 O13_2 1_555 1_555

#END
