
###############################################################################
#
# This file contains modified crystal structure data generated from the
# MOF subset of the Cambridge Structural Database (CSD) v543 
# hosted by the Cambridge Crystallographic Data Centre (CCDC).
#
# This work is licensed under the Creative Commons
# Attribution-NonCommercial-ShareAlike 4.0 International License.
# To view a copy of this license, visit
# http://creativecommons.org/licenses/by-nc-sa/4.0/
# or send a letter to
# Creative Commons, PO Box 1866, Mountain View, CA 94042, USA.
#
# CIF created using the CSD Python API on 29 September 2022
# The structure has been converted into the P1 space group
# The structure has a 3D framework
# The original CSD entry NEMZIR is in the triclinic crystal system
# The framework has been calculated to contain at least 10.0% void space
# The void calculation uses a probe of radius 1.32A, grid spacing 0.4
#
###############################################################################

data_NEMZIR
_chemical_formula_moiety         '(C68 H48 Cd6 N12 O32)n'
_symmetry_cell_setting           triclinic
_symmetry_space_group_name_H-M   'P 1'
_symmetry_Int_Tables_number      1
_space_group_name_Hall           'P 1'
loop_
_symmetry_equiv_pos_site_id
_symmetry_equiv_pos_as_xyz
1 x,y,z
_cell_length_a                   9.027(5)
_cell_length_b                   14.262(5)
_cell_length_c                   15.548(5)
_cell_angle_alpha                92.420(5)
_cell_angle_beta                 101.491(5)
_cell_angle_gamma                96.540(5)
_cell_volume                     1944.47
loop_
_atom_site_label
_atom_site_type_symbol
_atom_site_fract_x
_atom_site_fract_y
_atom_site_fract_z
Cd1 Cd 0.62335(2) 0.62298(2) 0.16534(2)
C18 C 0.2191(3) 0.4134(2) 0.12507(19)
C19 C 0.1243(3) 0.4798(2) 0.14058(19)
H8 H 0.1639 0.5348 0.1759
C22 C 0.0069(3) 0.3178(2) 0.02942(19)
C23 C 0.1603(3) 0.3330(2) 0.06959(19)
H10 H 0.2243 0.2889 0.0593
C24 C 0.3844(3) 0.4243(2) 0.16975(19)
O7 O 0.4574(2) 0.35625(17) 0.16071(17)
O8 O 0.4446(2) 0.50036(15) 0.21459(14)
O14 O 0.4901(3) 0.6081(2) 0.01961(17)
O15 O 0.7042(3) 0.77005(19) 0.1253(2)
H21 H 0.7717 0.7825 0.0949
H22 H 0.7273 0.8043 0.1731
O16 O 0.4257(3) 0.70378(18) 0.18439(16)
H23 H 0.3747 0.6739 0.2265
H24 H 0.4648 0.7678 0.2055
Cd8 Cd 0.69719(2) 0.39502(2) 0.23752(2)
Cd10 Cd 0.43419(2) 0.51179(2) 0.37409(2)
O17 O 0.7287(3) 0.64027(18) 0.31045(15)
O24 O 0.9076(3) 0.61406(15) 0.14727(16)
O25 O 0.7242(2) 0.49303(16) 0.12163(14)
Cd2 Cd 0.30281(2) 0.60498(2) 0.76248(2)
C1 C 0.0528(3) 0.36502(19) 0.57649(18)
C6 C 0.0677(3) 0.2792(2) 0.53478(19)
H3 H 0.1531 0.2489 0.5540
C7 C 0.1682(3) 0.4076(2) 0.65579(19)
C10 C 0.0367(3) 0.0167(2) 0.3857(2)
C31 C 0.0816(4) 0.8432(2) 0.8149(2)
C32 C 0.1853(4) 0.9147(3) 0.8634(3)
H13 H 0.2883 0.9074 0.8760
C33 C 0.1384(4) 0.9964(2) 0.8932(3)
C34 C 0.1366(4) 0.7544(2) 0.7849(2)
N3 N 0.0896(3) 0.10204(17) 0.43063(17)
O1 O 0.2713(3) 0.35973(18) 0.68955(15)
O2 O 0.1507(2) 0.48846(15) 0.68297(14)
O11 O 0.2806(3) 0.75200(18) 0.8026(2)
O12 O 0.0494(3) 0.68695(16) 0.74525(17)
Cd5 Cd 0.37665(2) 0.37702(2) 0.83466(2)
O21 O 0.4027(2) 0.60710(15) 0.63395(13)
O22 O 0.5426(2) 0.64375(17) 0.83929(17)
O26 O 0.2758(2) 0.50697(16) 0.87837(14)
C11 C 0.1308(4) 0.9405(2) 0.3773(2)
C12 C 0.0747(4) 0.8627(2) 0.3183(2)
C13 C 0.1567(4) 0.7863(2) 0.3168(2)
H5 H 0.1188 0.7346 0.2769
C14 C 0.2953(4) 0.7869(2) 0.3750(2)
C15 C 0.3548(4) 0.8669(2) 0.4309(2)
H6 H 0.4499 0.8690 0.4678
C16 C 0.2738(4) 0.9432(2) 0.4320(2)
H7 H 0.3148 0.9966 0.4693
C17 C 0.3736(4) 0.6995(2) 0.3819(2)
O5 O 0.4834(3) 0.69211(17) 0.44212(18)
O6 O 0.3163(3) 0.63089(15) 0.32518(15)
O13 O 0.2550(3) 0.38397(18) 0.33835(18)
H17 H 0.1658 0.3747 0.3072
H18 H 0.2856 0.3321 0.3537
O18 O 0.6496(2) 0.48968(14) 0.48447(14)
O19 O 0.3504(2) 0.51032(14) 0.51553(14)
O20 O 0.5973(2) 0.39290(15) 0.36605(13)
C20 C 0.9694(3) 0.4632(2) 0.10269(18)
C21 C 0.9111(3) 0.3826(2) 0.04716(19)
H9 H 0.8077 0.3722 0.0219
C25 C 0.8645(3) 0.5301(2) 0.12506(19)
C2 C 0.9262(3) 0.41119(19) 0.54638(18)
H1 H 0.9161 0.4685 0.5741
C3 C 0.8150(3) 0.37166(19) 0.47517(18)
C4 C 0.8289(3) 0.28539(19) 0.43499(18)
H2 H 0.7534 0.2584 0.3880
C5 C 0.9552(3) 0.23878(19) 0.46453(18)
C8 C 0.6805(3) 0.42077(19) 0.44090(19)
C9 C 0.9647(3) 0.1454(2) 0.42423(19)
C29 C 0.8818(4) 0.9382(2) 0.8250(2)
H11 H 0.7791 0.9461 0.8115
C30 C 0.9290(4) 0.8551(2) 0.7961(2)
H12 H 0.8578 0.8075 0.7642
H15 H 0.749(3) 0.100(3) 0.362(3)
N1 N 0.8442(3) 0.08923(17) 0.37836(18)
N2 N 0.8882(3) 0.00593(17) 0.35315(19)
Cd11 Cd 0.56581(2) 0.48821(2) 0.62591(2)
C2_2 C 0.0738(3) 0.58881(19) 0.45362(18)
H1_2 H 0.0839 0.5315 0.4259
C3_2 C 0.1850(3) 0.62834(19) 0.52483(18)
C4_2 C 0.1711(3) 0.71461(19) 0.56501(18)
H2_2 H 0.2466 0.7416 0.6120
C5_2 C 0.0448(3) 0.76122(19) 0.53547(18)
C8_2 C 0.3195(3) 0.57923(19) 0.55910(19)
C9_2 C 0.0353(3) 0.8546(2) 0.57577(19)
C29_2 C 0.1182(4) 0.0618(2) 0.1750(2)
H11_2 H 0.2209 0.0539 0.1885
C30_2 C 0.0710(4) 0.1449(2) 0.2039(2)
H12_2 H 0.1422 0.1925 0.2358
H15_2 H 0.251(3) 0.900(3) 0.638(3)
N1_2 N 0.1558(3) 0.91077(17) 0.62164(18)
N2_2 N 0.1118(3) 0.99407(17) 0.64685(19)
C20_2 C 0.0306(3) 0.5368(2) 0.89731(18)
C21_2 C 0.0889(3) 0.6174(2) 0.95284(19)
H9_2 H 0.1923 0.6278 0.9781
C25_2 C 0.1355(3) 0.4699(2) 0.87494(19)
O9 O 0.0924(3) 0.38594(15) 0.85273(16)
C11_2 C 0.8692(4) 0.0595(2) 0.6227(2)
C12_2 C 0.9253(4) 0.1373(2) 0.6817(2)
C13_2 C 0.8433(4) 0.2137(2) 0.6832(2)
H5_2 H 0.8812 0.2654 0.7231
C14_2 C 0.7047(4) 0.2131(2) 0.6250(2)
C15_2 C 0.6452(4) 0.1331(2) 0.5691(2)
H6_2 H 0.5501 0.1310 0.5322
C16_2 C 0.7262(4) 0.0568(2) 0.5680(2)
H7_2 H 0.6852 0.0034 0.5307
C17_2 C 0.6264(4) 0.3005(2) 0.6181(2)
O5_2 O 0.5166(3) 0.30789(17) 0.55788(18)
O6_2 O 0.6837(3) 0.36911(15) 0.67482(15)
O13_2 O 0.7450(3) 0.61603(18) 0.66165(18)
H17_2 H 0.8342 0.6253 0.6928
H18_2 H 0.7144 0.6679 0.6463
O23 O 0.5554(2) 0.49964(15) 0.78541(14)
C1_2 C 0.9472(3) 0.63498(19) 0.42351(18)
C6_2 C 0.9323(3) 0.7208(2) 0.46522(19)
H3_2 H 0.8469 0.7511 0.4460
C7_2 C 0.8318(3) 0.5924(2) 0.34421(19)
C10_2 C 0.9633(3) 0.9833(2) 0.6143(2)
C31_2 C 0.9184(4) 0.1568(2) 0.1851(2)
C32_2 C 0.8147(4) 0.0853(3) 0.1366(3)
H13_2 H 0.7117 0.0926 0.1240
C33_2 C 0.8616(4) 0.0036(2) 0.1068(3)
C34_2 C 0.8634(4) 0.2456(2) 0.2151(2)
N3_2 N 0.9104(3) 0.89796(17) 0.56937(17)
O2_2 O 0.8493(2) 0.51154(15) 0.31703(14)
O11_2 O 0.7194(3) 0.24800(18) 0.1974(2)
O12_2 O 0.9506(3) 0.31305(16) 0.25475(17)
C18_2 C 0.7809(3) 0.5866(2) 0.87493(19)
C19_2 C 0.8757(3) 0.5202(2) 0.85942(19)
H8_2 H 0.8361 0.4652 0.8241
C22_2 C 0.9931(3) 0.6822(2) 0.97058(19)
C23_2 C 0.8397(3) 0.6670(2) 0.93041(19)
H10_2 H 0.7757 0.7111 0.9407
C24_2 C 0.6156(3) 0.5757(2) 0.83025(19)
O14_2 O 0.5099(3) 0.3919(2) 0.98039(17)
O15_2 O 0.2958(3) 0.22995(19) 0.8747(2)
H21_2 H 0.2283 0.2175 0.9051
H22_2 H 0.2727 0.1957 0.8269
O16_2 O 0.5743(3) 0.29622(18) 0.81561(16)
H23_2 H 0.6253 0.3261 0.7735
H24_2 H 0.5352 0.2322 0.7945
H14 H 0.2093 0.0431 0.9265
N6 N 0.0383(3) 0.16708(18) 0.95403(18)
H19 H 0.5460 0.5753 0.9841
H20 H 0.4143 0.5629 0.9802
C26 C 0.9477(3) 0.2314(2) 0.97230(19)
C27 C 0.9416(3) 0.0975(2) 0.9066(2)
C28 C 0.9851(4) 0.0090(2) 0.8734(2)
N4 N 0.8027(3) 0.20666(19) 0.9368(2)
H16 H 0.7272 0.2376 0.9396
N5 N 0.7999(3) 0.1204(2) 0.8946(2)
H4 H 0.9816 0.8618 0.2795
H4_2 H 0.0184 0.1382 0.7205
C26_2 C 0.0523(3) 0.7686(2) 0.02770(19)
C27_2 C 0.0584(3) 0.9025(2) 0.0934(2)
C28_2 C 0.0149(4) 0.9910(2) 0.1266(2)
N4_2 N 0.1973(3) 0.79334(19) 0.0632(2)
H16_2 H 0.2728 0.7624 0.0604
N5_2 N 0.2001(3) 0.8796(2) 0.1054(2)
H14_2 H 0.7907 0.9569 0.0735
N6_2 N 0.9617(3) 0.83292(18) 0.04597(18)
H19_2 H 0.4540 0.4247 0.0159
H20_2 H 0.5857 0.4371 0.0198
loop_
_geom_bond_atom_site_label_1
_geom_bond_atom_site_label_2
_geom_bond_site_symmetry_1
_geom_bond_site_symmetry_2
Cd1 O8 1_555 1_555
C18 C19 1_555 1_555
C19 H8 1_555 1_555
C23 C18 1_555 1_555
H10 C23 1_555 1_555
C24 C18 1_555 1_555
O7 C24 1_555 1_555
O8 C24 1_555 1_555
O14 Cd1 1_555 1_555
O15 Cd1 1_555 1_555
H21 O15 1_555 1_555
H22 O15 1_555 1_555
O16 Cd1 1_555 1_555
H23 O16 1_555 1_555
H24 O16 1_555 1_555
Cd8 O7 1_555 1_555
Cd10 O8 1_555 1_555
O17 Cd1 1_555 1_555
O24 Cd1 1_555 1_555
O25 Cd1 1_555 1_555
C22 C23 1_555 1_555
Cd8 O25 1_555 1_555
Cd2 O2 1_555 1_555
C6 C1 1_555 1_555
H3 C6 1_555 1_555
C7 C1 1_555 1_555
C32 C31 1_555 1_555
H13 C32 1_555 1_555
C34 C31 1_555 1_555
O1 C7 1_555 1_555
O2 C7 1_555 1_555
O11 Cd2 1_555 1_555
O12 Cd2 1_555 1_555
Cd5 O1 1_555 1_555
O21 Cd2 1_555 1_555
O22 Cd2 1_555 1_555
O26 Cd2 1_555 1_555
C10 N3 1_555 1_555
C32 C33 1_555 1_555
C34 O11 1_555 1_555
C34 O12 1_555 1_555
Cd5 O26 1_555 1_555
Cd10 O5 1_555 1_555
C11 C12 1_555 1_555
C13 C12 1_555 1_555
H5 C13 1_555 1_555
C14 C13 1_555 1_555
C15 C14 1_555 1_555
H6 C15 1_555 1_555
C16 C11 1_555 1_555
H7 C16 1_555 1_555
C17 C14 1_555 1_555
O5 C17 1_555 1_555
O6 Cd10 1_555 1_555
O13 Cd10 1_555 1_555
H17 O13 1_555 1_555
H18 O13 1_555 1_555
O18 Cd10 1_555 1_555
O19 Cd10 1_555 1_555
O20 Cd10 1_555 1_555
C15 C16 1_555 1_555
C17 O6 1_555 1_555
C21 C20 1_555 1_555
H9 C21 1_555 1_555
C25 C20 1_555 1_555
O24 C25 1_555 1_555
O25 C25 1_555 1_555
C2 H1 1_555 1_555
C3 C2 1_555 1_555
C4 C3 1_555 1_555
H2 C4 1_555 1_555
C5 C4 1_555 1_555
C8 C3 1_555 1_555
C9 C5 1_555 1_555
C29 H11 1_555 1_555
C30 C29 1_555 1_555
H12 C30 1_555 1_555
H15 N1 1_555 1_555
N1 C9 1_555 1_555
O18 C8 1_555 1_555
O20 C8 1_555 1_555
Cd8 O20 1_555 1_555
Cd11 O18 1_555 1_555
N1 N2 1_555 1_555
C2_2 H1_2 1_555 1_555
C3_2 C2_2 1_555 1_555
C4_2 C3_2 1_555 1_555
H2_2 C4_2 1_555 1_555
C5_2 C4_2 1_555 1_555
C8_2 C3_2 1_555 1_555
C9_2 C5_2 1_555 1_555
C29_2 H11_2 1_555 1_555
C30_2 C29_2 1_555 1_555
H12_2 C30_2 1_555 1_555
H15_2 N1_2 1_555 1_555
N1_2 C9_2 1_555 1_555
O19 C8_2 1_555 1_555
O21 C8_2 1_555 1_555
Cd11 O19 1_555 1_555
N1_2 N2_2 1_555 1_555
O21 Cd11 1_555 1_555
C21_2 C20_2 1_555 1_555
H9_2 C21_2 1_555 1_555
C25_2 C20_2 1_555 1_555
O9 C25_2 1_555 1_555
O26 C25_2 1_555 1_555
Cd5 O9 1_555 1_555
Cd11 O5_2 1_555 1_555
C11_2 C12_2 1_555 1_555
C13_2 C12_2 1_555 1_555
H5_2 C13_2 1_555 1_555
C14_2 C13_2 1_555 1_555
C15_2 C14_2 1_555 1_555
H6_2 C15_2 1_555 1_555
C16_2 C11_2 1_555 1_555
H7_2 C16_2 1_555 1_555
C17_2 C14_2 1_555 1_555
O5_2 C17_2 1_555 1_555
O6_2 Cd11 1_555 1_555
O13_2 Cd11 1_555 1_555
H17_2 O13_2 1_555 1_555
H18_2 O13_2 1_555 1_555
O23 Cd11 1_555 1_555
C15_2 C16_2 1_555 1_555
C17_2 O6_2 1_555 1_555
Cd8 O2_2 1_555 1_555
C6_2 C1_2 1_555 1_555
H3_2 C6_2 1_555 1_555
C7_2 C1_2 1_555 1_555
C32_2 C31_2 1_555 1_555
H13_2 C32_2 1_555 1_555
C34_2 C31_2 1_555 1_555
O17 C7_2 1_555 1_555
O2_2 C7_2 1_555 1_555
O11_2 Cd8 1_555 1_555
O12_2 Cd8 1_555 1_555
C10_2 N3_2 1_555 1_555
C32_2 C33_2 1_555 1_555
C34_2 O11_2 1_555 1_555
C34_2 O12_2 1_555 1_555
Cd5 O23 1_555 1_555
C18_2 C19_2 1_555 1_555
C19_2 H8_2 1_555 1_555
C23_2 C18_2 1_555 1_555
H10_2 C23_2 1_555 1_555
C24_2 C18_2 1_555 1_555
O22 C24_2 1_555 1_555
O23 C24_2 1_555 1_555
O14_2 Cd5 1_555 1_555
O15_2 Cd5 1_555 1_555
H21_2 O15_2 1_555 1_555
H22_2 O15_2 1_555 1_555
O16_2 Cd5 1_555 1_555
H23_2 O16_2 1_555 1_555
H24_2 O16_2 1_555 1_555
C22_2 C23_2 1_555 1_555
C27 C28 1_555 1_555
N4 C26 1_555 1_555
H16 N4 1_555 1_555
N5 C27 1_555 1_555
N4 N5 1_555 1_555
C27_2 C28_2 1_555 1_555
N4_2 C26_2 1_555 1_555
H16_2 N4_2 1_555 1_555
N5_2 C27_2 1_555 1_555
N4_2 N5_2 1_555 1_555

#END
