
###############################################################################
#
# This file contains modified crystal structure data generated from the
# MOF subset of the Cambridge Structural Database (CSD) v543 
# hosted by the Cambridge Crystallographic Data Centre (CCDC).
#
# This work is licensed under the Creative Commons
# Attribution-NonCommercial-ShareAlike 4.0 International License.
# To view a copy of this license, visit
# http://creativecommons.org/licenses/by-nc-sa/4.0/
# or send a letter to
# Creative Commons, PO Box 1866, Mountain View, CA 94042, USA.
#
# CIF created using the CSD Python API on 29 September 2022
# The structure has been converted into the P1 space group
# The structure has a 3D framework
# The original CSD entry NENMUR is in the triclinic crystal system
# The framework has been calculated to contain at least 10.0% void space
# The void calculation uses a probe of radius 1.32A, grid spacing 0.4
#
###############################################################################

data_NENMUR
_chemical_formula_moiety         '(C108 H74 Cd4 Eu2 N12 O24)n'
_symmetry_cell_setting           triclinic
_symmetry_space_group_name_H-M   'P 1'
_symmetry_Int_Tables_number      1
_space_group_name_Hall           'P 1'
loop_
_symmetry_equiv_pos_site_id
_symmetry_equiv_pos_as_xyz
1 x,y,z
_cell_length_a                   13.4612(10)
_cell_length_b                   15.3926(12)
_cell_length_c                   16.8521(13)
_cell_angle_alpha                63.4790(10)
_cell_angle_beta                 72.9440(10)
_cell_angle_gamma                71.8580(10)
_cell_volume                     2919.77
loop_
_atom_site_label
_atom_site_type_symbol
_atom_site_fract_x
_atom_site_fract_y
_atom_site_fract_z
H18 H 0.0080 0.3469 0.0279
O16 O 0.1029(2) 0.9890(2) 0.0016(2)
N8 N 0.0363(3) 0.7653(3) 0.0742(3)
N11 N 0.1204(3) 0.8597(3) 0.1750(2)
C23 C 0.0138(4) 0.2585(4) 0.9687(4)
H17 H 0.0810 0.2211 0.9801
Cd8 Cd 0.03025(2) 0.09858(2) 0.88021(2)
O1 O 0.6344(3) 0.0856(3) 0.0716(2)
O3 O 0.4845(2) 0.0418(2) 0.1585(2)
N1 N 0.4220(4) 0.5930(3) 0.2749(3)
N3 N 0.6118(4) 0.1778(3) 0.6051(3)
C1 C 0.5464(4) 0.1027(3) 0.1219(3)
C2 C 0.5179(4) 0.1927(3) 0.1427(3)
C3 C 0.5720(4) 0.2685(4) 0.0912(3)
H3 H 0.6242 0.2645 0.0419
C4 C 0.5484(4) 0.3522(4) 0.1130(3)
H4 H 0.5844 0.4036 0.0774
C5 C 0.4715(4) 0.3582(3) 0.1876(3)
C6 C 0.4167(4) 0.2808(4) 0.2381(4)
H5 H 0.3640 0.2843 0.2872
C7 C 0.4396(4) 0.1993(4) 0.2162(4)
H6 H 0.4025 0.1486 0.2508
C8 C 0.4524(4) 0.4402(4) 0.2166(4)
C9 C 0.4144(6) 0.4274(4) 0.3067(4)
H7 H 0.3981 0.3672 0.3496
C10 C 0.4012(6) 0.5046(4) 0.3315(4)
H8 H 0.3760 0.4943 0.3919
C11 C 0.4590(6) 0.6043(4) 0.1889(4)
H9 H 0.4761 0.6649 0.1481
C12 C 0.4735(5) 0.5342(4) 0.1566(4)
H10 H 0.4971 0.5480 0.0953
C28 C 0.5947(4) 0.0189(4) 0.3986(3)
H20 H 0.5271 0.0574 0.4075
C29 C 0.6721(4) 0.0107(4) 0.4439(3)
C32 C 0.6489(4) 0.0658(4) 0.5020(3)
C33 C 0.5808(4) 0.1604(4) 0.4814(4)
H23 H 0.5466 0.1879 0.4323
C34 C 0.5652(5) 0.2116(4) 0.5344(3)
H24 H 0.5194 0.2736 0.5201
C35 C 0.6743(5) 0.0878(4) 0.6264(3)
H25 H 0.7069 0.0628 0.6761
C36 C 0.6933(5) 0.0296(4) 0.5784(4)
Cd3 Cd 0.39324(3) 0.71841(2) 0.32644(2)
Cd4 Cd 0.60676(3) 0.28159(2) 0.67356(2)
N10 N 0.9228(3) 0.0429(3) 0.1652(3)
O12 O 0.2239(2) 0.0643(2) 0.9957(2)
Eu2 Eu 0.393062(15) 0.075995(14) 0.908602(13)
O14 O 0.5780(2) 0.0404(2) 0.94107(19)
O17 O 0.8971(2) 0.0110(2) 0.9984(2)
Eu1 Eu 0.606938(15) 0.924005(14) 0.091398(13)
Cd2 Cd 0.96975(2) 0.90142(2) 0.11979(2)
O2 O 0.5731(3) 0.6722(3) 0.3270(3)
H1 H 0.6087 0.6594 0.2794
H2 H 0.5872 0.6186 0.3750
O4 O 0.6923(3) 0.7405(2) 0.1411(2)
O5 O 0.6245(3) 0.8127(2) 0.0172(2)
O6 O 0.6768(3) 0.8810(3) 0.2183(2)
O7 O 0.8460(3) 0.8351(3) 0.2342(2)
O8 O 0.2956(3) 0.6288(3) 0.4525(2)
O9 O 0.3368(10) 0.4969(5) 0.5680(4)
O10 O 0.4581(2) 0.8406(2) 0.1873(2)
O11 O 0.4220(2) 0.9596(2) 0.05893(19)
N4 N 0.0772(3) 0.9571(3) 0.8348(3)
N5 N 0.2590(3) 0.8016(3) 0.2454(2)
C13 C 0.6783(4) 0.7380(3) 0.0712(3)
C14 C 0.7281(4) 0.6482(3) 0.0497(3)
C15 C 0.7957(4) 0.5687(4) 0.1011(3)
H11 H 0.8102 0.5699 0.1512
C16 C 0.8427(4) 0.4856(3) 0.0782(4)
H12 H 0.8882 0.4325 0.1134
C17 C 0.8226(4) 0.4812(4) 0.0047(3)
C25 C 0.7495(4) 0.8728(3) 0.2549(3)
C26 C 0.7207(4) 0.9132(4) 0.3263(3)
C27 C 0.6177(4) 0.9707(4) 0.3412(3)
H19 H 0.5655 0.9760 0.3124
C30 C 0.7704(4) 0.9500(5) 0.4313(4)
H21 H 0.8216 0.9407 0.4629
C31 C 0.7946(4) 0.9024(4) 0.3725(4)
H22 H 0.8617 0.8629 0.3647
H26 H 0.7359 0.9662 0.5972
C37 C 0.3025(5) 0.5866(4) 0.5326(4)
C38 C 0.2595(4) 0.6437(4) 0.5918(3)
C39 C 0.1835(4) 0.7319(4) 0.5652(3)
H27 H 0.1567 0.7519 0.5133
C40 C 0.1478(4) 0.7897(4) 0.6155(4)
H28 H 0.0970 0.8481 0.5971
C41 C 0.1870(4) 0.7615(4) 0.6940(3)
C42 C 0.2611(4) 0.6747(4) 0.7195(3)
H29 H 0.2887 0.6555 0.7707
C43 C 0.2962(5) 0.6145(4) 0.6706(3)
H30 H 0.3443 0.5545 0.6909
C44 C 0.1481(4) 0.8261(4) 0.7452(3)
C45 C 0.0450(4) 0.8837(5) 0.7484(4)
C46 C 0.0142(4) 0.9472(4) 0.7923(4)
C47 C 0.1728(4) 0.8996(4) 0.8347(3)
H33 H 0.2173 0.9034 0.8656
C48 C 0.2117(4) 0.8346(4) 0.7925(4)
H34 H 0.2803 0.7961 0.7953
C49 C 0.3918(3) 0.8946(3) 0.1337(3)
C50 C 0.2847(3) 0.8764(3) 0.1618(3)
C51 C 0.1976(3) 0.9116(3) 0.1192(3)
C52 C 0.1760(3) 0.9938(3) 0.0319(3)
C53 C 0.1019(5) 0.7237(5) 0.3278(4)
H35 H 0.1419 0.6572 0.3376
H36 H 0.0337 0.7310 0.3158
H37 H 0.0925 0.7365 0.3806
C54 C 0.1602(3) 0.7952(3) 0.2496(3)
O15 O 0.7761(2) 0.9357(2) 0.0043(2)
N9 N 0.3882(4) 0.8222(3) 0.3949(3)
N2 N 0.9637(3) 0.2347(3) 0.9258(3)
C18 C 0.7527(5) 0.5623(4) 0.9540(4)
H13 H 0.7371 0.5609 0.9044
C19 C 0.7064(5) 0.6444(4) 0.9758(4)
H14 H 0.6604 0.6974 0.9409
C20 C 0.8718(4) 0.3957(3) 0.9785(3)
C21 C 0.8192(4) 0.3680(4) 0.9363(5)
H15 H 0.7513 0.4028 0.9249
C22 C 0.8681(5) 0.2895(5) 0.9117(5)
H16 H 0.8316 0.2732 0.8829
C24 C 0.9709(4) 0.3348(4) 0.9964(4)
H31 H 0.9973 0.8792 0.7209
H32 H 0.9455 0.9856 0.7925
H31_2 H 0.0027 0.1208 0.2791
H32_2 H 0.0545 0.0144 0.2075
C18_2 C 0.2473(5) 0.4377(4) 0.0460(4)
H13_2 H 0.2629 0.4391 0.0956
C19_2 C 0.2936(5) 0.3556(4) 0.0242(4)
H14_2 H 0.3396 0.3026 0.0591
C20_2 C 0.1282(4) 0.6043(3) 0.0215(3)
C21_2 C 0.1808(4) 0.6320(4) 0.0637(5)
H15_2 H 0.2487 0.5972 0.0751
C22_2 C 0.1319(5) 0.7105(5) 0.0883(5)
H16_2 H 0.1684 0.7268 0.1171
C24_2 C 0.0291(4) 0.6652(4) 0.0036(4)
O2_2 O 0.4269(3) 0.3278(3) 0.6730(3)
H1_2 H 0.3913 0.3406 0.7206
H2_2 H 0.4128 0.3814 0.6250
O4_2 O 0.3077(3) 0.2595(2) 0.8589(2)
O5_2 O 0.3755(3) 0.1873(2) 0.9828(2)
O6_2 O 0.3232(3) 0.1190(3) 0.7817(2)
O7_2 O 0.1540(3) 0.1649(3) 0.7658(2)
O8_2 O 0.7044(3) 0.3712(3) 0.5475(2)
O9_2 O 0.6632(10) 0.5031(5) 0.4320(4)
O10_2 O 0.5419(2) 0.1594(2) 0.8127(2)
N5_2 N 0.7410(3) 0.1984(3) 0.7546(2)
N6 N 0.8796(3) 0.1403(3) 0.8250(2)
C13_2 C 0.3217(4) 0.2620(3) 0.9288(3)
C14_2 C 0.2719(4) 0.3518(3) 0.9503(3)
C15_2 C 0.2043(4) 0.4313(4) 0.8989(3)
H11_2 H 0.1898 0.4301 0.8488
C16_2 C 0.1573(4) 0.5144(3) 0.9218(4)
H12_2 H 0.1118 0.5675 0.8866
C17_2 C 0.1774(4) 0.5188(4) 0.9953(3)
C25_2 C 0.2505(4) 0.1272(3) 0.7451(3)
C26_2 C 0.2793(4) 0.0868(4) 0.6737(3)
C27_2 C 0.3823(4) 0.0293(4) 0.6588(3)
H19_2 H 0.4345 0.0240 0.6876
C30_2 C 0.2296(4) 0.0500(5) 0.5687(4)
H21_2 H 0.1784 0.0593 0.5371
C31_2 C 0.2054(4) 0.0976(4) 0.6275(4)
H22_2 H 0.1383 0.1371 0.6353
H26_2 H 0.2641 0.0338 0.4028
C37_2 C 0.6975(5) 0.4134(4) 0.4674(4)
C38_2 C 0.7405(4) 0.3563(4) 0.4082(3)
C39_2 C 0.8165(4) 0.2681(4) 0.4348(3)
H27_2 H 0.8433 0.2481 0.4867
C40_2 C 0.8522(4) 0.2103(4) 0.3845(4)
H28_2 H 0.9030 0.1519 0.4029
C41_2 C 0.8130(4) 0.2385(4) 0.3060(3)
C42_2 C 0.7389(4) 0.3253(4) 0.2805(3)
H29_2 H 0.7113 0.3445 0.2293
C43_2 C 0.7038(5) 0.3855(4) 0.3294(3)
H30_2 H 0.6557 0.4455 0.3091
C44_2 C 0.8519(4) 0.1739(4) 0.2548(3)
C45_2 C 0.9550(4) 0.1163(5) 0.2516(4)
C46_2 C 0.9858(4) 0.0528(4) 0.2077(4)
C47_2 C 0.8272(4) 0.1004(4) 0.1653(3)
H33_2 H 0.7827 0.0966 0.1344
C48_2 C 0.7883(4) 0.1654(4) 0.2075(4)
H34_2 H 0.7197 0.2039 0.2047
C49_2 C 0.6082(3) 0.1054(3) 0.8663(3)
C50_2 C 0.7153(3) 0.1236(3) 0.8382(3)
C51_2 C 0.8024(3) 0.0884(3) 0.8808(3)
C52_2 C 0.8240(3) 0.0062(3) 0.9681(3)
C53_2 C 0.8981(5) 0.2763(5) 0.6722(4)
H35_2 H 0.8581 0.3428 0.6624
H36_2 H 0.9663 0.2690 0.6842
H37_2 H 0.9075 0.2635 0.6194
C54_2 C 0.8398(3) 0.2048(3) 0.7504(3)
N7 N 0.5780(4) 0.4070(3) 0.7251(3)
O1_2 O 0.3656(3) 0.9144(3) 0.9284(2)
O3_2 O 0.5155(2) 0.9582(2) 0.8415(2)
C1_2 C 0.4536(4) 0.8973(3) 0.8781(3)
C2_2 C 0.4821(4) 0.8073(3) 0.8573(3)
C3_2 C 0.4280(4) 0.7315(4) 0.9088(3)
H3_2 H 0.3758 0.7355 0.9581
C4_2 C 0.4516(4) 0.6478(4) 0.8870(3)
H4_2 H 0.4156 0.5964 0.9226
C5_2 C 0.5285(4) 0.6418(3) 0.8124(3)
C6_2 C 0.5833(4) 0.7192(4) 0.7619(4)
H5_2 H 0.6360 0.7157 0.7128
C7_2 C 0.5604(4) 0.8007(4) 0.7838(4)
H6_2 H 0.5975 0.8514 0.7492
C8_2 C 0.5476(4) 0.5598(4) 0.7834(4)
C9_2 C 0.5856(6) 0.5726(4) 0.6933(4)
H7_2 H 0.6019 0.6328 0.6504
C10_2 C 0.5988(6) 0.4954(4) 0.6685(4)
H8_2 H 0.6240 0.5057 0.6081
C11_2 C 0.5410(6) 0.3957(4) 0.8111(4)
H9_2 H 0.5239 0.3351 0.8519
C12_2 C 0.5265(5) 0.4658(4) 0.8434(4)
H10_2 H 0.5029 0.4520 0.9047
C28_2 C 0.4053(4) 0.9811(4) 0.6014(3)
H20_2 H 0.4729 0.9426 0.5925
C29_2 C 0.3279(4) 0.9893(4) 0.5561(3)
C32_2 C 0.3511(4) 0.9342(4) 0.4980(3)
C33_2 C 0.4192(4) 0.8396(4) 0.5186(4)
H23_2 H 0.4534 0.8121 0.5677
C34_2 C 0.4348(5) 0.7884(4) 0.4656(3)
H24_2 H 0.4806 0.7264 0.4799
C35_2 C 0.3257(5) 0.9122(4) 0.3736(3)
H25_2 H 0.2931 0.9372 0.3239
C36_2 C 0.3067(5) 0.9704(4) 0.4216(4)
C23_2 C 0.9862(4) 0.7415(4) 0.0313(4)
H17_2 H 0.9190 0.7789 0.0199
H18_2 H 0.9920 0.6531 0.9721
loop_
_geom_bond_atom_site_label_1
_geom_bond_atom_site_label_2
_geom_bond_site_symmetry_1
_geom_bond_site_symmetry_2
H17 C23 1_555 1_555
O1 C1 1_555 1_555
N1 C10 1_555 1_555
N3 C34 1_555 1_555
C1 O3 1_555 1_555
C2 C1 1_555 1_555
C3 C2 1_555 1_555
H3 C3 1_555 1_555
C4 C3 1_555 1_555
H4 C4 1_555 1_555
C5 C4 1_555 1_555
C6 C5 1_555 1_555
H5 C6 1_555 1_555
C7 C2 1_555 1_555
H6 C7 1_555 1_555
C8 C5 1_555 1_555
C9 C8 1_555 1_555
H7 C9 1_555 1_555
C10 C9 1_555 1_555
H8 C10 1_555 1_555
C11 N1 1_555 1_555
H9 C11 1_555 1_555
C12 C8 1_555 1_555
H10 C12 1_555 1_555
H20 C28 1_555 1_555
C29 C28 1_555 1_555
C32 C29 1_555 1_555
C33 C32 1_555 1_555
H23 C33 1_555 1_555
C34 C33 1_555 1_555
H24 C34 1_555 1_555
C35 N3 1_555 1_555
H25 C35 1_555 1_555
C36 C32 1_555 1_555
Cd3 N1 1_555 1_555
Cd4 N3 1_555 1_555
C6 C7 1_555 1_555
C11 C12 1_555 1_555
C35 C36 1_555 1_555
O12 Eu2 1_555 1_555
Eu2 O14 1_555 1_555
Cd3 O2 1_555 1_555
Cd2 O7 1_555 1_555
O2 H1 1_555 1_555
H2 O2 1_555 1_555
O4 Eu1 1_555 1_555
O5 Eu1 1_555 1_555
O6 Eu1 1_555 1_555
O7 C25 1_555 1_555
O8 Cd3 1_555 1_555
O9 C37 1_555 1_555
O10 Eu1 1_555 1_555
O11 Eu1 1_555 1_555
O16 C52 1_555 1_555
N4 C46 1_555 1_555
N5 Cd3 1_555 1_555
N11 C51 1_555 1_555
C13 O4 1_555 1_555
C14 C13 1_555 1_555
C15 C14 1_555 1_555
H11 C15 1_555 1_555
C16 C15 1_555 1_555
H12 C16 1_555 1_555
C17 C16 1_555 1_555
C25 O6 1_555 1_555
C26 C25 1_555 1_555
C27 C26 1_555 1_555
H19 C27 1_555 1_555
H21 C30 1_555 1_555
C31 C26 1_555 1_555
H22 C31 1_555 1_555
C37 O8 1_555 1_555
C38 C37 1_555 1_555
C39 C38 1_555 1_555
H27 C39 1_555 1_555
C40 C39 1_555 1_555
H28 C40 1_555 1_555
C41 C40 1_555 1_555
C42 C41 1_555 1_555
H29 C42 1_555 1_555
C43 C38 1_555 1_555
H30 C43 1_555 1_555
C44 C41 1_555 1_555
C45 C44 1_555 1_555
C46 C45 1_555 1_555
C47 N4 1_555 1_555
H33 C47 1_555 1_555
C48 C44 1_555 1_555
H34 C48 1_555 1_555
C49 O10 1_555 1_555
C50 N5 1_555 1_555
C51 C50 1_555 1_555
C52 C51 1_555 1_555
C53 H35 1_555 1_555
H36 C53 1_555 1_555
H37 C53 1_555 1_555
C54 N5 1_555 1_555
O15 Eu1 1_555 1_555
N9 Cd3 1_555 1_555
Cd3 O10 1_555 1_555
O5 C13 1_555 1_555
O11 C49 1_555 1_555
N11 C54 1_555 1_555
C30 C31 1_555 1_555
C42 C43 1_555 1_555
C47 C48 1_555 1_555
C49 C50 1_555 1_555
C53 C54 1_555 1_555
N2 C22 1_555 1_555
H13 C18 1_555 1_555
H14 C19 1_555 1_555
C21 C20 1_555 1_555
H15 C21 1_555 1_555
C22 C21 1_555 1_555
H16 C22 1_555 1_555
C24 C20 1_555 1_555
C18 C19 1_555 1_555
N8 C22_2 1_555 1_555
H13_2 C18_2 1_555 1_555
H14_2 C19_2 1_555 1_555
C21_2 C20_2 1_555 1_555
H15_2 C21_2 1_555 1_555
C22_2 C21_2 1_555 1_555
H16_2 C22_2 1_555 1_555
C24_2 C20_2 1_555 1_555
C18_2 C19_2 1_555 1_555
Cd4 O2_2 1_555 1_555
Cd8 O7_2 1_555 1_555
O2_2 H1_2 1_555 1_555
H2_2 O2_2 1_555 1_555
O4_2 Eu2 1_555 1_555
O5_2 Eu2 1_555 1_555
O6_2 Eu2 1_555 1_555
O7_2 C25_2 1_555 1_555
O8_2 Cd4 1_555 1_555
O9_2 C37_2 1_555 1_555
O10_2 Eu2 1_555 1_555
O17 C52_2 1_555 1_555
N10 C46_2 1_555 1_555
N5_2 Cd4 1_555 1_555
N6 C51_2 1_555 1_555
C13_2 O4_2 1_555 1_555
C14_2 C13_2 1_555 1_555
C15_2 C14_2 1_555 1_555
H11_2 C15_2 1_555 1_555
C16_2 C15_2 1_555 1_555
H12_2 C16_2 1_555 1_555
C17_2 C16_2 1_555 1_555
C25_2 O6_2 1_555 1_555
C26_2 C25_2 1_555 1_555
C27_2 C26_2 1_555 1_555
H19_2 C27_2 1_555 1_555
H21_2 C30_2 1_555 1_555
C31_2 C26_2 1_555 1_555
H22_2 C31_2 1_555 1_555
C37_2 O8_2 1_555 1_555
C38_2 C37_2 1_555 1_555
C39_2 C38_2 1_555 1_555
H27_2 C39_2 1_555 1_555
C40_2 C39_2 1_555 1_555
H28_2 C40_2 1_555 1_555
C41_2 C40_2 1_555 1_555
C42_2 C41_2 1_555 1_555
H29_2 C42_2 1_555 1_555
C43_2 C38_2 1_555 1_555
H30_2 C43_2 1_555 1_555
C44_2 C41_2 1_555 1_555
C45_2 C44_2 1_555 1_555
C46_2 C45_2 1_555 1_555
C47_2 N10 1_555 1_555
H33_2 C47_2 1_555 1_555
C48_2 C44_2 1_555 1_555
H34_2 C48_2 1_555 1_555
C49_2 O10_2 1_555 1_555
C50_2 N5_2 1_555 1_555
C51_2 C50_2 1_555 1_555
C52_2 C51_2 1_555 1_555
C53_2 H35_2 1_555 1_555
H36_2 C53_2 1_555 1_555
H37_2 C53_2 1_555 1_555
C54_2 N5_2 1_555 1_555
N7 Cd4 1_555 1_555
Cd4 O10_2 1_555 1_555
O5_2 C13_2 1_555 1_555
O14 C49_2 1_555 1_555
N6 C54_2 1_555 1_555
C30_2 C31_2 1_555 1_555
C42_2 C43_2 1_555 1_555
C47_2 C48_2 1_555 1_555
C49_2 C50_2 1_555 1_555
C53_2 C54_2 1_555 1_555
O1_2 C1_2 1_555 1_555
N7 C10_2 1_555 1_555
N9 C34_2 1_555 1_555
C1_2 O3_2 1_555 1_555
C2_2 C1_2 1_555 1_555
C3_2 C2_2 1_555 1_555
H3_2 C3_2 1_555 1_555
C4_2 C3_2 1_555 1_555
H4_2 C4_2 1_555 1_555
C5_2 C4_2 1_555 1_555
C6_2 C5_2 1_555 1_555
H5_2 C6_2 1_555 1_555
C7_2 C2_2 1_555 1_555
H6_2 C7_2 1_555 1_555
C8_2 C5_2 1_555 1_555
C9_2 C8_2 1_555 1_555
H7_2 C9_2 1_555 1_555
C10_2 C9_2 1_555 1_555
H8_2 C10_2 1_555 1_555
C11_2 N7 1_555 1_555
H9_2 C11_2 1_555 1_555
C12_2 C8_2 1_555 1_555
H10_2 C12_2 1_555 1_555
H20_2 C28_2 1_555 1_555
C29_2 C28_2 1_555 1_555
C32_2 C29_2 1_555 1_555
C33_2 C32_2 1_555 1_555
H23_2 C33_2 1_555 1_555
C34_2 C33_2 1_555 1_555
H24_2 C34_2 1_555 1_555
C35_2 N9 1_555 1_555
H25_2 C35_2 1_555 1_555
C36_2 C32_2 1_555 1_555
C6_2 C7_2 1_555 1_555
C11_2 C12_2 1_555 1_555
C35_2 C36_2 1_555 1_555
H17_2 C23_2 1_555 1_555

#END
