
###############################################################################
#
# This file contains modified crystal structure data generated from the
# MOF subset of the Cambridge Structural Database (CSD) v543 
# hosted by the Cambridge Crystallographic Data Centre (CCDC).
#
# This work is licensed under the Creative Commons
# Attribution-NonCommercial-ShareAlike 4.0 International License.
# To view a copy of this license, visit
# http://creativecommons.org/licenses/by-nc-sa/4.0/
# or send a letter to
# Creative Commons, PO Box 1866, Mountain View, CA 94042, USA.
#
# CIF created using the CSD Python API on 29 September 2022
# The structure has been converted into the P1 space group
# The structure has a 3D framework
# The original CSD entry NENMOL is in the triclinic crystal system
# The framework has been calculated to contain at least 10.0% void space
# The void calculation uses a probe of radius 1.32A, grid spacing 0.4
#
###############################################################################

data_NENMOL
_chemical_formula_moiety         '(C108 H74 Cd4 Dy2 N12 O24)n'
_symmetry_cell_setting           triclinic
_symmetry_space_group_name_H-M   'P 1'
_symmetry_Int_Tables_number      1
_space_group_name_Hall           'P 1'
loop_
_symmetry_equiv_pos_site_id
_symmetry_equiv_pos_as_xyz
1 x,y,z
_cell_length_a                   13.3800(8)
_cell_length_b                   15.3579(10)
_cell_length_c                   16.8416(11)
_cell_angle_alpha                63.5430(10)
_cell_angle_beta                 72.9260(10)
_cell_angle_gamma                71.8680(10)
_cell_volume                     2895.21
loop_
_atom_site_label
_atom_site_type_symbol
_atom_site_fract_x
_atom_site_fract_y
_atom_site_fract_z
H18 H 0.0075 0.3469 0.0306
C23 C 0.0132(6) 0.2593(5) 0.9688(5)
H17 H 0.0818 0.2233 0.9782
Cd5 Cd 0.03040(3) 0.09954(3) 0.88046(3)
O1 O 0.4834(3) 0.0427(3) 0.1564(3)
O3 O 0.6339(3) 0.0858(3) 0.0701(3)
O6 O 0.1564(3) 0.1646(3) 0.7675(3)
O7 O 0.3270(4) 0.1162(4) 0.7843(3)
N1 N 0.4239(5) 0.5930(4) 0.2750(4)
C1 C 0.5471(5) 0.1019(4) 0.1207(4)
C2 C 0.5176(5) 0.1930(4) 0.1422(4)
C3 C 0.5727(5) 0.2692(5) 0.0906(4)
H3 H 0.6254 0.2652 0.0412
C4 C 0.5496(6) 0.3512(5) 0.1123(5)
H4 H 0.5856 0.4027 0.0762
C5 C 0.4742(5) 0.3578(4) 0.1863(5)
C6 C 0.4167(5) 0.2802(5) 0.2390(5)
H5 H 0.3650 0.2834 0.2891
C7 C 0.4383(5) 0.1997(5) 0.2149(5)
H6 H 0.3992 0.1500 0.2478
C8 C 0.4529(5) 0.4396(5) 0.2160(4)
C9 C 0.4153(8) 0.4276(5) 0.3073(5)
H7 H 0.4014 0.3669 0.3513
C10 C 0.3998(7) 0.5072(6) 0.3296(5)
H8 H 0.3693 0.4991 0.3890
C11 C 0.4624(7) 0.6051(5) 0.1886(5)
H9 H 0.4804 0.6656 0.1479
C12 C 0.4768(7) 0.5325(6) 0.1569(5)
H10 H 0.5025 0.5454 0.0959
C25 C 0.2517(4) 0.1259(4) 0.7482(4)
C26 C 0.2811(5) 0.0851(4) 0.6748(4)
C27 C 0.2051(5) 0.0965(5) 0.6288(5)
H19 H 0.1369 0.1345 0.6383
C28 C 0.2304(6) 0.0512(6) 0.5685(5)
H20 H 0.1797 0.0621 0.5355
C31 C 0.3822(5) 0.0284(5) 0.6593(4)
H22 H 0.4348 0.0232 0.6879
H26 H 0.2635 0.0343 0.4042
Dy3 Dy 0.393512(16) 0.074178(16) 0.910058(15)
Cd3 Cd 0.39543(3) 0.71906(3) 0.32572(3)
O11 O 0.2253(3) 0.0638(3) 0.9949(3)
O15 O 0.5767(3) 0.0392(3) 0.9418(3)
O16 O 0.1035(3) 0.9894(3) 0.0014(3)
Dy1 Dy 0.606488(16) 0.925822(16) 0.089942(15)
O2 O 0.5760(4) 0.6742(4) 0.3261(4)
H1 H 0.6070 0.7193 0.2832
H2 H 0.6020 0.6193 0.3188
O4 O 0.6251(4) 0.8150(3) 0.0169(3)
O5 O 0.6913(4) 0.7452(3) 0.1412(3)
O8 O 0.4233(3) 0.9608(3) 0.0582(3)
O9 O 0.4599(3) 0.8420(3) 0.1861(3)
N3 N 0.3889(5) 0.8234(4) 0.3943(4)
N4 N 0.2611(4) 0.8016(4) 0.2446(3)
N5 N 0.1216(4) 0.8590(3) 0.1742(3)
C13 C 0.6784(5) 0.7414(5) 0.0724(4)
C14 C 0.7276(5) 0.6500(4) 0.0500(4)
C17 C 0.8229(5) 0.4833(5) 0.0060(4)
C18 C 0.8423(5) 0.4881(4) 0.0799(5)
H13 H 0.8882 0.4354 0.1153
C19 C 0.7941(6) 0.5704(5) 0.1022(5)
H14 H 0.8070 0.5715 0.1530
C29 C 0.3302(5) 0.9896(5) 0.5560(4)
C30 C 0.4062(5) 0.9796(5) 0.6024(4)
H21 H 0.4737 0.9397 0.5950
C32 C 0.3517(5) 0.9340(5) 0.4994(4)
C33 C 0.4190(6) 0.8423(5) 0.5178(5)
H23 H 0.4544 0.8158 0.5662
C34 C 0.4355(6) 0.7878(5) 0.4663(4)
H24 H 0.4802 0.7250 0.4820
C35 C 0.3250(6) 0.9140(5) 0.3743(4)
H25 H 0.2915 0.9395 0.3249
C36 C 0.3065(6) 0.9708(5) 0.4225(4)
C37 C 0.1763(4) 0.9931(4) 0.0318(4)
C38 C 0.3940(4) 0.8946(4) 0.1328(4)
C39 C 0.2866(4) 0.8753(4) 0.1617(4)
C40 C 0.1991(4) 0.9110(4) 0.1183(4)
C41 C 0.1612(4) 0.7938(4) 0.2492(4)
C42 C 0.1024(6) 0.7214(6) 0.3268(5)
H27 H 0.1497 0.6574 0.3461
H28 H 0.0433 0.7163 0.3087
H29 H 0.0760 0.7436 0.3756
O12 O 0.2946(4) 0.6294(4) 0.4508(3)
O13 O 0.3327(12) 0.4930(6) 0.5716(6)
N6 N 0.0771(4) 0.9581(4) 0.8349(4)
C43 C 0.3005(7) 0.5859(5) 0.5319(5)
C44 C 0.2590(5) 0.6437(4) 0.5913(4)
C45 C 0.2962(6) 0.6141(5) 0.6707(4)
H30 H 0.3441 0.5537 0.6914
C46 C 0.2616(6) 0.6747(5) 0.7179(5)
H31 H 0.2907 0.6563 0.7683
C47 C 0.1842(5) 0.7632(5) 0.6932(5)
C48 C 0.1459(5) 0.7905(5) 0.6144(5)
H32 H 0.0946 0.8487 0.5956
C49 C 0.1831(6) 0.7323(5) 0.5642(5)
H33 H 0.1573 0.7524 0.5117
C50 C 0.1468(5) 0.8264(5) 0.7453(4)
C51 C 0.2111(5) 0.8348(5) 0.7925(5)
H34 H 0.2796 0.7954 0.7956
C52 C 0.1743(5) 0.9003(5) 0.8339(4)
H35 H 0.2202 0.9048 0.8633
C53 C 0.0119(5) 0.9505(6) 0.7905(5)
C54 C 0.0446(5) 0.8841(6) 0.7479(5)
O14 O 0.6730(4) 0.8838(4) 0.2157(3)
O18 O 0.7747(3) 0.9362(3) 0.0051(3)
N2 N 0.9638(4) 0.2336(4) 0.9276(4)
C15 C 0.7079(6) 0.6454(5) 0.9764(5)
H11 H 0.6630 0.6989 0.9404
C16 C 0.7530(7) 0.5637(6) 0.9550(5)
H12 H 0.7368 0.5617 0.9058
C20 C 0.8711(5) 0.3955(5) 0.9810(5)
C21 C 0.8189(6) 0.3706(6) 0.9371(6)
H15 H 0.7516 0.4074 0.9243
C22 C 0.8671(6) 0.2909(6) 0.9123(6)
H16 H 0.8301 0.2756 0.8829
C24 C 0.9702(5) 0.3356(5) 0.9986(5)
O17 O 0.8965(3) 0.0106(3) 0.9986(3)
N9 N 0.8784(4) 0.1410(3) 0.8258(3)
H36 H 0.9437 0.9909 0.7885
H37 H 0.9968 0.8786 0.7208
Cd6 Cd 0.96960(3) 0.90046(3) 0.11954(3)
H36_2 H 0.0563 0.0091 0.2115
H37_2 H 0.0032 0.1214 0.2792
N8 N 0.0362(4) 0.7664(4) 0.0724(4)
C15_2 C 0.2921(6) 0.3546(5) 0.0236(5)
H11_2 H 0.3370 0.3011 0.0596
C16_2 C 0.2470(7) 0.4363(6) 0.0450(5)
H12_2 H 0.2632 0.4383 0.0942
C20_2 C 0.1289(5) 0.6045(5) 0.0190(5)
C21_2 C 0.1811(6) 0.6294(6) 0.0629(6)
H15_2 H 0.2484 0.5926 0.0757
C22_2 C 0.1329(6) 0.7091(6) 0.0877(6)
H16_2 H 0.1699 0.7244 0.1171
C24_2 C 0.0298(5) 0.6644(5) 0.0014(5)
Cd1 Cd 0.60457(3) 0.28094(3) 0.67428(3)
O2_2 O 0.4240(4) 0.3258(4) 0.6739(4)
H1_2 H 0.3930 0.2807 0.7168
H2_2 H 0.3980 0.3807 0.6812
O4_2 O 0.3749(4) 0.1850(3) 0.9831(3)
O5_2 O 0.3087(4) 0.2548(3) 0.8588(3)
O9_2 O 0.5401(3) 0.1580(3) 0.8139(3)
N3_2 N 0.6111(5) 0.1766(4) 0.6057(4)
N4_2 N 0.7389(4) 0.1984(4) 0.7554(3)
C13_2 C 0.3216(5) 0.2586(5) 0.9276(4)
C14_2 C 0.2724(5) 0.3500(4) 0.9500(4)
C17_2 C 0.1771(5) 0.5167(5) 0.9940(4)
C18_2 C 0.1577(5) 0.5119(4) 0.9201(5)
H13_2 H 0.1118 0.5646 0.8847
C19_2 C 0.2059(6) 0.4296(5) 0.8978(5)
H14_2 H 0.1930 0.4285 0.8470
C29_2 C 0.6698(5) 0.0104(5) 0.4440(4)
C30_2 C 0.5938(5) 0.0204(5) 0.3976(4)
H21_2 H 0.5263 0.0603 0.4050
C32_2 C 0.6483(5) 0.0660(5) 0.5006(4)
C33_2 C 0.5810(6) 0.1577(5) 0.4822(5)
H23_2 H 0.5456 0.1842 0.4338
C34_2 C 0.5645(6) 0.2122(5) 0.5337(4)
H24_2 H 0.5198 0.2750 0.5180
C35_2 C 0.6750(6) 0.0860(5) 0.6257(4)
H25_2 H 0.7085 0.0605 0.6751
C36_2 C 0.6935(6) 0.0292(5) 0.5775(4)
C37_2 C 0.8237(4) 0.0069(4) 0.9682(4)
C38_2 C 0.6060(4) 0.1054(4) 0.8672(4)
C39_2 C 0.7134(4) 0.1247(4) 0.8383(4)
C40_2 C 0.8009(4) 0.0890(4) 0.8817(4)
C41_2 C 0.8388(4) 0.2062(4) 0.7508(4)
C42_2 C 0.8976(6) 0.2786(6) 0.6732(5)
H27_2 H 0.8503 0.3426 0.6539
H28_2 H 0.9567 0.2837 0.6913
H29_2 H 0.9240 0.2564 0.6244
O12_2 O 0.7054(4) 0.3706(4) 0.5492(3)
O13_2 O 0.6673(12) 0.5070(6) 0.4284(6)
N6_2 N 0.9229(4) 0.0419(4) 0.1651(4)
C43_2 C 0.6995(7) 0.4141(5) 0.4681(5)
C44_2 C 0.7410(5) 0.3563(4) 0.4087(4)
C45_2 C 0.7038(6) 0.3859(5) 0.3293(4)
H30_2 H 0.6559 0.4463 0.3086
C46_2 C 0.7384(6) 0.3253(5) 0.2821(5)
H31_2 H 0.7093 0.3437 0.2317
C47_2 C 0.8158(5) 0.2368(5) 0.3068(5)
C48_2 C 0.8541(5) 0.2095(5) 0.3856(5)
H32_2 H 0.9054 0.1513 0.4044
C49_2 C 0.8169(6) 0.2677(5) 0.4358(5)
H33_2 H 0.8427 0.2476 0.4883
C50_2 C 0.8532(5) 0.1736(5) 0.2547(4)
C51_2 C 0.7889(5) 0.1652(5) 0.2075(5)
H34_2 H 0.7204 0.2046 0.2044
C52_2 C 0.8257(5) 0.0997(5) 0.1661(4)
H35_2 H 0.7798 0.0952 0.1367
C53_2 C 0.9881(5) 0.0495(6) 0.2095(5)
C54_2 C 0.9554(5) 0.1159(6) 0.2521(5)
N7 N 0.5761(5) 0.4070(4) 0.7250(4)
O1_2 O 0.5166(3) 0.9573(3) 0.8436(3)
O3_2 O 0.3661(3) 0.9142(3) 0.9299(3)
O6_2 O 0.8436(3) 0.8354(3) 0.2325(3)
C1_2 C 0.4529(5) 0.8981(4) 0.8793(4)
C2_2 C 0.4824(5) 0.8070(4) 0.8578(4)
C3_2 C 0.4273(5) 0.7308(5) 0.9094(4)
H3_2 H 0.3746 0.7348 0.9588
C4_2 C 0.4504(6) 0.6488(5) 0.8877(5)
H4_2 H 0.4144 0.5973 0.9238
C5_2 C 0.5258(5) 0.6422(4) 0.8137(5)
C6_2 C 0.5833(5) 0.7198(5) 0.7610(5)
H5_2 H 0.6350 0.7166 0.7109
C7_2 C 0.5617(5) 0.8003(5) 0.7851(5)
H6_2 H 0.6008 0.8500 0.7522
C8_2 C 0.5471(5) 0.5604(5) 0.7840(4)
C9_2 C 0.5847(8) 0.5724(5) 0.6927(5)
H7_2 H 0.5986 0.6331 0.6487
C10_2 C 0.6002(7) 0.4928(6) 0.6704(5)
H8_2 H 0.6307 0.5009 0.6110
C11_2 C 0.5376(7) 0.3949(5) 0.8114(5)
H9_2 H 0.5196 0.3344 0.8521
C12_2 C 0.5232(7) 0.4675(6) 0.8431(5)
H10_2 H 0.4975 0.4546 0.9041
C25_2 C 0.7483(4) 0.8741(4) 0.2518(4)
C26_2 C 0.7189(5) 0.9149(4) 0.3252(4)
C27_2 C 0.7949(5) 0.9035(5) 0.3712(5)
H19_2 H 0.8631 0.8655 0.3617
C28_2 C 0.7696(6) 0.9488(6) 0.4315(5)
H20_2 H 0.8203 0.9379 0.4645
C31_2 C 0.6178(5) 0.9716(5) 0.3407(4)
H22_2 H 0.5652 0.9768 0.3121
H26_2 H 0.7365 0.9657 0.5958
C23_2 C 0.9868(6) 0.7407(5) 0.0312(5)
H17_2 H 0.9182 0.7767 0.0218
H18_2 H 0.9925 0.6531 0.9694
loop_
_geom_bond_atom_site_label_1
_geom_bond_atom_site_label_2
_geom_bond_site_symmetry_1
_geom_bond_site_symmetry_2
H17 C23 1_555 1_555
O1 C1 1_555 1_555
O6 C25 1_555 1_555
O7 C25 1_555 1_555
N1 C10 1_555 1_555
C1 O3 1_555 1_555
C2 C1 1_555 1_555
C3 C2 1_555 1_555
H3 C3 1_555 1_555
C4 C3 1_555 1_555
H4 C4 1_555 1_555
C5 C4 1_555 1_555
C6 C5 1_555 1_555
H5 C6 1_555 1_555
C7 C2 1_555 1_555
H6 C7 1_555 1_555
C8 C5 1_555 1_555
C9 C8 1_555 1_555
H7 C9 1_555 1_555
C10 C9 1_555 1_555
H8 C10 1_555 1_555
C11 N1 1_555 1_555
H9 C11 1_555 1_555
C12 C8 1_555 1_555
H10 C12 1_555 1_555
C25 C26 1_555 1_555
C26 C27 1_555 1_555
C27 H19 1_555 1_555
C28 C27 1_555 1_555
H20 C28 1_555 1_555
C31 C26 1_555 1_555
H22 C31 1_555 1_555
Cd5 O6 1_555 1_555
Dy3 O7 1_555 1_555
Cd3 N1 1_555 1_555
C6 C7 1_555 1_555
C11 C12 1_555 1_555
O11 Dy3 1_555 1_555
Dy3 O15 1_555 1_555
Cd3 O2 1_555 1_555
O2 H1 1_555 1_555
H2 O2 1_555 1_555
O4 Dy1 1_555 1_555
O5 Dy1 1_555 1_555
O8 Dy1 1_555 1_555
O9 Dy1 1_555 1_555
O16 C37 1_555 1_555
N3 Cd3 1_555 1_555
N4 Cd3 1_555 1_555
N5 C40 1_555 1_555
C13 O4 1_555 1_555
C14 C13 1_555 1_555
C18 C17 1_555 1_555
H13 C18 1_555 1_555
C19 C14 1_555 1_555
H14 C19 1_555 1_555
C30 C29 1_555 1_555
H21 C30 1_555 1_555
C32 C29 1_555 1_555
C33 C32 1_555 1_555
H23 C33 1_555 1_555
C34 N3 1_555 1_555
H24 C34 1_555 1_555
C35 N3 1_555 1_555
H25 C35 1_555 1_555
C36 C32 1_555 1_555
C37 C40 1_555 1_555
C38 O8 1_555 1_555
C39 N4 1_555 1_555
C40 C39 1_555 1_555
C41 N4 1_555 1_555
C42 C41 1_555 1_555
H27 C42 1_555 1_555
H28 C42 1_555 1_555
H29 C42 1_555 1_555
O12 Cd3 1_555 1_555
O13 C43 1_555 1_555
C43 O12 1_555 1_555
C44 C43 1_555 1_555
C45 C44 1_555 1_555
H30 C45 1_555 1_555
C46 C45 1_555 1_555
H31 C46 1_555 1_555
C47 C46 1_555 1_555
C48 C47 1_555 1_555
H32 C48 1_555 1_555
C49 C44 1_555 1_555
H33 C49 1_555 1_555
C50 C47 1_555 1_555
C51 C50 1_555 1_555
H34 C51 1_555 1_555
C52 N6 1_555 1_555
H35 C52 1_555 1_555
C53 N6 1_555 1_555
C54 C50 1_555 1_555
O14 Dy1 1_555 1_555
O18 Dy1 1_555 1_555
Cd3 O9 1_555 1_555
O5 C13 1_555 1_555
O9 C38 1_555 1_555
N5 C41 1_555 1_555
C18 C19 1_555 1_555
C33 C34 1_555 1_555
C35 C36 1_555 1_555
C38 C39 1_555 1_555
C48 C49 1_555 1_555
C51 C52 1_555 1_555
C53 C54 1_555 1_555
N2 C22 1_555 1_555
H11 C15 1_555 1_555
C16 C15 1_555 1_555
H12 C16 1_555 1_555
C21 C20 1_555 1_555
H15 C21 1_555 1_555
C22 C21 1_555 1_555
H16 C22 1_555 1_555
C24 C20 1_555 1_555
N8 C22_2 1_555 1_555
H11_2 C15_2 1_555 1_555
C16_2 C15_2 1_555 1_555
H12_2 C16_2 1_555 1_555
C21_2 C20_2 1_555 1_555
H15_2 C21_2 1_555 1_555
C22_2 C21_2 1_555 1_555
H16_2 C22_2 1_555 1_555
C24_2 C20_2 1_555 1_555
Cd1 O2_2 1_555 1_555
O2_2 H1_2 1_555 1_555
H2_2 O2_2 1_555 1_555
O4_2 Dy3 1_555 1_555
O5_2 Dy3 1_555 1_555
O9_2 Dy3 1_555 1_555
O17 C37_2 1_555 1_555
N3_2 Cd1 1_555 1_555
N4_2 Cd1 1_555 1_555
N9 C40_2 1_555 1_555
C13_2 O4_2 1_555 1_555
C14_2 C13_2 1_555 1_555
C18_2 C17_2 1_555 1_555
H13_2 C18_2 1_555 1_555
C19_2 C14_2 1_555 1_555
H14_2 C19_2 1_555 1_555
C30_2 C29_2 1_555 1_555
H21_2 C30_2 1_555 1_555
C32_2 C29_2 1_555 1_555
C33_2 C32_2 1_555 1_555
H23_2 C33_2 1_555 1_555
C34_2 N3_2 1_555 1_555
H24_2 C34_2 1_555 1_555
C35_2 N3_2 1_555 1_555
H25_2 C35_2 1_555 1_555
C36_2 C32_2 1_555 1_555
C37_2 C40_2 1_555 1_555
C38_2 O15 1_555 1_555
C39_2 N4_2 1_555 1_555
C40_2 C39_2 1_555 1_555
C41_2 N4_2 1_555 1_555
C42_2 C41_2 1_555 1_555
H27_2 C42_2 1_555 1_555
H28_2 C42_2 1_555 1_555
H29_2 C42_2 1_555 1_555
O12_2 Cd1 1_555 1_555
O13_2 C43_2 1_555 1_555
C43_2 O12_2 1_555 1_555
C44_2 C43_2 1_555 1_555
C45_2 C44_2 1_555 1_555
H30_2 C45_2 1_555 1_555
C46_2 C45_2 1_555 1_555
H31_2 C46_2 1_555 1_555
C47_2 C46_2 1_555 1_555
C48_2 C47_2 1_555 1_555
H32_2 C48_2 1_555 1_555
C49_2 C44_2 1_555 1_555
H33_2 C49_2 1_555 1_555
C50_2 C47_2 1_555 1_555
C51_2 C50_2 1_555 1_555
H34_2 C51_2 1_555 1_555
C52_2 N6_2 1_555 1_555
H35_2 C52_2 1_555 1_555
C53_2 N6_2 1_555 1_555
C54_2 C50_2 1_555 1_555
N7 Cd1 1_555 1_555
Cd1 O9_2 1_555 1_555
O5_2 C13_2 1_555 1_555
O9_2 C38_2 1_555 1_555
N9 C41_2 1_555 1_555
C18_2 C19_2 1_555 1_555
C33_2 C34_2 1_555 1_555
C35_2 C36_2 1_555 1_555
C38_2 C39_2 1_555 1_555
C48_2 C49_2 1_555 1_555
C51_2 C52_2 1_555 1_555
C53_2 C54_2 1_555 1_555
O1_2 C1_2 1_555 1_555
O6_2 C25_2 1_555 1_555
O14 C25_2 1_555 1_555
N7 C10_2 1_555 1_555
C1_2 O3_2 1_555 1_555
C2_2 C1_2 1_555 1_555
C3_2 C2_2 1_555 1_555
H3_2 C3_2 1_555 1_555
C4_2 C3_2 1_555 1_555
H4_2 C4_2 1_555 1_555
C5_2 C4_2 1_555 1_555
C6_2 C5_2 1_555 1_555
H5_2 C6_2 1_555 1_555
C7_2 C2_2 1_555 1_555
H6_2 C7_2 1_555 1_555
C8_2 C5_2 1_555 1_555
C9_2 C8_2 1_555 1_555
H7_2 C9_2 1_555 1_555
C10_2 C9_2 1_555 1_555
H8_2 C10_2 1_555 1_555
C11_2 N7 1_555 1_555
H9_2 C11_2 1_555 1_555
C12_2 C8_2 1_555 1_555
H10_2 C12_2 1_555 1_555
C25_2 C26_2 1_555 1_555
C26_2 C27_2 1_555 1_555
C27_2 H19_2 1_555 1_555
C28_2 C27_2 1_555 1_555
H20_2 C28_2 1_555 1_555
C31_2 C26_2 1_555 1_555
H22_2 C31_2 1_555 1_555
Cd6 O6_2 1_555 1_555
C6_2 C7_2 1_555 1_555
C11_2 C12_2 1_555 1_555
H17_2 C23_2 1_555 1_555

#END
