
###############################################################################
#
# This file contains modified crystal structure data generated from the
# MOF subset of the Cambridge Structural Database (CSD) v543 
# hosted by the Cambridge Crystallographic Data Centre (CCDC).
#
# This work is licensed under the Creative Commons
# Attribution-NonCommercial-ShareAlike 4.0 International License.
# To view a copy of this license, visit
# http://creativecommons.org/licenses/by-nc-sa/4.0/
# or send a letter to
# Creative Commons, PO Box 1866, Mountain View, CA 94042, USA.
#
# CIF created using the CSD Python API on 29 September 2022
# The structure has been converted into the P1 space group
# The structure has a 3D framework
# The original CSD entry NENNAY is in the triclinic crystal system
# The framework has been calculated to contain at least 10.0% void space
# The void calculation uses a probe of radius 1.32A, grid spacing 0.4
#
###############################################################################

data_NENNAY
_chemical_formula_moiety         '(C108 H74 Cd4 N12 O22 Sm2)n'
_symmetry_cell_setting           triclinic
_symmetry_space_group_name_H-M   'P 1'
_symmetry_Int_Tables_number      1
_space_group_name_Hall           'P 1'
loop_
_symmetry_equiv_pos_site_id
_symmetry_equiv_pos_as_xyz
1 x,y,z
_cell_length_a                   13.4705(9)
_cell_length_b                   15.4240(11)
_cell_length_c                   16.8302(12)
_cell_angle_alpha                63.4350(10)
_cell_angle_beta                 72.9640(10)
_cell_angle_gamma                71.7740(10)
_cell_volume                     2922.08
loop_
_atom_site_label
_atom_site_type_symbol
_atom_site_fract_x
_atom_site_fract_y
_atom_site_fract_z
Cd1 Cd 0.10661(3) 0.28219(3) 0.17313(2)
O8 O 0.0782(2) 0.0405(2) 0.4407(2)
O9 O 0.0422(3) 0.1599(2) 0.3122(2)
O11 O 0.3964(3) 0.0113(3) 0.4988(2)
N1 N 0.2408(3) 0.1990(3) 0.2543(3)
N2 N 0.3792(3) 0.1417(3) 0.3249(3)
C49 C 0.1091(3) 0.1061(3) 0.3658(3)
C50 C 0.2160(4) 0.1251(3) 0.3374(3)
C51 C 0.3020(3) 0.0887(3) 0.3807(3)
C52 C 0.3249(3) 0.0071(3) 0.4675(3)
C53 C 0.3391(4) 0.2050(4) 0.2505(3)
C54 C 0.3978(5) 0.2779(5) 0.1720(4)
H35 H 0.4681 0.2668 0.1822
H36 H 0.3605 0.3441 0.1658
H37 H 0.4024 0.2695 0.1177
Cd5 Cd 0.53008(3) 0.09897(3) 0.38022(2)
O18 O 0.2059(4) 0.3706(3) 0.0481(3)
N9 N 0.0783(4) 0.4076(3) 0.2244(3)
N10 N 0.1122(4) 0.1781(4) 0.1052(3)
O7 O 0.0155(3) 0.9573(3) 0.3408(3)
O10 O 0.2773(2) 0.9359(2) 0.5045(2)
C41 C 0.0289(4) 0.6430(4) 0.3108(4)
C42 C 0.0830(5) 0.7190(4) 0.2611(4)
H29 H 0.1356 0.7154 0.2119
C43 C 0.0609(5) 0.7999(4) 0.2829(4)
H30 H 0.0987 0.8500 0.2484
C44 C 0.0474(5) 0.5599(4) 0.2827(4)
C45 C 0.0252(6) 0.4682(5) 0.3415(4)
C46 C 0.0402(6) 0.3955(5) 0.3106(5)
H32 H 0.0231 0.3350 0.3516
C47 C 0.0993(7) 0.4953(5) 0.1669(5)
H33 H 0.1262 0.5055 0.1065
C48 C 0.0827(6) 0.5716(5) 0.1936(5)
H34 H 0.0956 0.6328 0.1504
Sm2 Sm 0.107306(17) 0.923496(16) 0.592077(15)
Cd7 Cd 0.46992(3) 0.90103(3) 0.61978(2)
Sm1 Sm 0.892694(17) 0.076504(16) 0.407923(15)
O1 O 0.8743(3) 0.1887(3) 0.4822(3)
O2 O 0.9273(4) 0.3281(4) 0.1727(3)
H1 H 0.8908 0.2726 0.1994
H2 H 0.9059 0.3658 0.1130
O3 O 0.8082(3) 0.2606(3) 0.3582(3)
O4 O 0.6531(3) 0.1658(3) 0.2651(3)
O5 O 0.8223(3) 0.1195(3) 0.2811(3)
N3 N 0.5362(4) 0.7669(3) 0.5729(3)
C1 C 0.8214(4) 0.2621(4) 0.4285(4)
C2 C 0.7723(4) 0.3525(4) 0.4500(4)
C3 C 0.7043(5) 0.4330(4) 0.3984(4)
H3 H 0.6906 0.4325 0.3475
C4 C 0.6563(5) 0.5144(4) 0.4217(4)
H4 H 0.6095 0.5668 0.3872
C5 C 0.6772(4) 0.5185(4) 0.4948(4)
C6 C 0.7475(5) 0.4388(5) 0.5448(5)
H5 H 0.7641 0.4408 0.5937
C7 C 0.7929(5) 0.3573(4) 0.5235(4)
H6 H 0.8383 0.3043 0.5591
C8 C 0.6282(4) 0.6056(4) 0.5195(4)
C9 C 0.5290(5) 0.6651(5) 0.5026(5)
H7 H 0.4909 0.6522 0.4726
C10 C 0.4871(5) 0.7422(5) 0.5295(5)
H8 H 0.4205 0.7802 0.5170
C11 C 0.6320(5) 0.7123(5) 0.5867(5)
H9 H 0.6696 0.7294 0.6140
C12 C 0.6798(5) 0.6317(5) 0.5632(6)
H10 H 0.7465 0.5949 0.5767
C13 C 0.7490(4) 0.1274(4) 0.2446(3)
C14 C 0.7788(4) 0.0865(4) 0.1730(3)
C15 C 0.8798(4) 0.0306(4) 0.1582(4)
H11 H 0.9317 0.0259 0.1871
C18 C 0.7278(5) 0.0494(5) 0.0681(4)
H13 H 0.6768 0.0580 0.0365
C19 C 0.7035(5) 0.0961(5) 0.1267(4)
H14 H 0.6359 0.1346 0.1352
O15 O 0.7227(2) 0.0641(2) 0.4955(2)
N8 N 0.4638(4) 0.2331(3) 0.4271(3)
O6 O 0.8669(3) 0.9135(3) 0.4273(3)
O13 O 0.8399(10) 0.4981(5) 0.0684(5)
N5 N 0.5760(4) 0.9585(4) 0.3344(3)
C16 C 0.9042(4) 0.9820(4) 0.1012(4)
H12 H 0.9721 0.9437 0.0929
C17 C 0.8282(5) 0.9892(4) 0.0555(4)
C21 C 0.9191(5) 0.8404(5) 0.0179(4)
H15 H 0.9544 0.8137 0.0664
C25 C 0.8014(6) 0.5866(5) 0.0332(4)
C26 C 0.7578(5) 0.6452(4) 0.0920(4)
C27 C 0.6827(5) 0.7325(5) 0.0654(4)
H19 H 0.6566 0.7526 0.0130
C28 C 0.6462(5) 0.7899(5) 0.1157(4)
H20 H 0.5950 0.8480 0.0972
C29 C 0.6849(5) 0.7624(4) 0.1940(4)
C30 C 0.7611(5) 0.6751(4) 0.2191(4)
H21 H 0.7901 0.6561 0.2697
C31 C 0.7945(5) 0.6162(4) 0.1704(4)
H22 H 0.8424 0.5561 0.1906
C32 C 0.6480(4) 0.8271(4) 0.2449(4)
C33 C 0.5439(5) 0.8847(5) 0.2484(5)
H23 H 0.4961 0.8795 0.2214
C34 C 0.5129(5) 0.9485(5) 0.2918(5)
H24 H 0.4442 0.9871 0.2916
C35 C 0.6736(5) 0.9007(4) 0.3346(4)
H25 H 0.7181 0.9045 0.3654
C36 C 0.7115(5) 0.8358(4) 0.2914(4)
H26 H 0.7802 0.7977 0.2935
C37 C 0.9533(4) 0.8977(4) 0.3773(4)
C38 C 0.9825(4) 0.8074(4) 0.3561(4)
C39 C 0.9281(5) 0.7308(4) 0.4078(4)
H27 H 0.8757 0.7347 0.4571
C40 C 0.9514(5) 0.6488(4) 0.3865(4)
H28 H 0.9157 0.5974 0.4224
H31 H 0.9999 0.4556 0.4025
O14 O 0.9218(2) 0.9595(2) 0.5593(2)
O17 O 0.6036(3) 0.9887(3) 0.5012(2)
O12 O 0.7941(4) 0.6294(3) 0.9519(3)
N6 N 0.8878(4) 0.8219(4) 0.8948(3)
C20 C 0.8503(5) 0.9335(4) 0.9979(4)
C22 C 0.9342(5) 0.7885(4) 0.9657(4)
H16 H 0.9795 0.7263 0.9807
C23 C 0.8259(5) 0.9121(4) 0.8731(4)
H17 H 0.7948 0.9379 0.8224
C24 C 0.8055(5) 0.9696(5) 0.9220(4)
Cd4 Cd 0.89339(3) 0.71781(3) 0.82687(2)
C20_2 C 0.1497(5) 0.0665(4) 0.0021(4)
C22_2 C 0.0658(5) 0.2115(4) 0.0343(4)
H16_2 H 0.0205 0.2737 0.0193
C23_2 C 0.1741(5) 0.0879(4) 0.1269(4)
H17_2 H 0.2052 0.0621 0.1776
C24_2 C 0.1945(5) 0.0304(5) 0.0780(4)
O6_2 O 0.1331(3) 0.0865(3) 0.5727(3)
O13_2 O 0.1601(10) 0.5019(5) 0.9316(5)
N5_2 N 0.4240(4) 0.0415(4) 0.6656(3)
C16_2 C 0.0958(4) 0.0180(4) 0.8988(4)
H12_2 H 0.0279 0.0563 0.9071
C17_2 C 0.1718(5) 0.0108(4) 0.9445(4)
C21_2 C 0.0809(5) 0.1596(5) 0.9821(4)
H15_2 H 0.0456 0.1863 0.9336
C25_2 C 0.1986(6) 0.4134(5) 0.9668(4)
C26_2 C 0.2422(5) 0.3548(4) 0.9080(4)
C27_2 C 0.3173(5) 0.2675(5) 0.9346(4)
H19_2 H 0.3434 0.2474 0.9870
C28_2 C 0.3538(5) 0.2101(5) 0.8843(4)
H20_2 H 0.4050 0.1520 0.9028
C29_2 C 0.3151(5) 0.2376(4) 0.8060(4)
C30_2 C 0.2389(5) 0.3249(4) 0.7809(4)
H21_2 H 0.2099 0.3439 0.7303
C31_2 C 0.2055(5) 0.3838(4) 0.8296(4)
H22_2 H 0.1576 0.4439 0.8094
C32_2 C 0.3520(4) 0.1729(4) 0.7551(4)
C33_2 C 0.4561(5) 0.1153(5) 0.7516(5)
H23_2 H 0.5039 0.1205 0.7786
C34_2 C 0.4871(5) 0.0515(5) 0.7082(5)
H24_2 H 0.5558 0.0129 0.7084
C35_2 C 0.3264(5) 0.0993(4) 0.6654(4)
H25_2 H 0.2819 0.0955 0.6346
C36_2 C 0.2885(5) 0.1642(4) 0.7086(4)
H26_2 H 0.2198 0.2023 0.7065
C37_2 C 0.0467(4) 0.1023(4) 0.6227(4)
C38_2 C 0.0175(4) 0.1926(4) 0.6439(4)
C39_2 C 0.0719(5) 0.2692(4) 0.5922(4)
H27_2 H 0.1243 0.2653 0.5429
C40_2 C 0.0486(5) 0.3512(4) 0.6135(4)
H28_2 H 0.0843 0.4026 0.5776
H31_2 H 0.0001 0.5444 0.5975
O1_2 O 0.1257(3) 0.8113(3) 0.5178(3)
O2_2 O 0.0727(4) 0.6719(4) 0.8273(3)
H1_2 H 0.1092 0.7274 0.8006
H2_2 H 0.0941 0.6342 0.8870
O3_2 O 0.1918(3) 0.7394(3) 0.6418(3)
O4_2 O 0.3469(3) 0.8342(3) 0.7349(3)
O5_2 O 0.1777(3) 0.8805(3) 0.7189(3)
C1_2 C 0.1786(4) 0.7379(4) 0.5715(4)
C2_2 C 0.2277(4) 0.6475(4) 0.5500(4)
C3_2 C 0.2957(5) 0.5670(4) 0.6016(4)
H3_2 H 0.3094 0.5675 0.6525
C4_2 C 0.3437(5) 0.4856(4) 0.5783(4)
H4_2 H 0.3905 0.4332 0.6128
C5_2 C 0.3228(4) 0.4815(4) 0.5052(4)
C6_2 C 0.2525(5) 0.5612(5) 0.4552(5)
H5_2 H 0.2359 0.5592 0.4063
C7_2 C 0.2071(5) 0.6427(4) 0.4765(4)
H6_2 H 0.1617 0.6957 0.4409
C8_2 C 0.3718(4) 0.3944(4) 0.4805(4)
C9_2 C 0.4710(5) 0.3349(5) 0.4974(5)
H7_2 H 0.5091 0.3478 0.5274
C10_2 C 0.5129(5) 0.2578(5) 0.4705(5)
H8_2 H 0.5795 0.2198 0.4830
C11_2 C 0.3680(5) 0.2877(5) 0.4133(5)
H9_2 H 0.3304 0.2706 0.3860
C12_2 C 0.3202(5) 0.3683(5) 0.4368(6)
H10_2 H 0.2535 0.4051 0.4233
C13_2 C 0.2510(4) 0.8726(4) 0.7554(3)
C14_2 C 0.2212(4) 0.9135(4) 0.8270(3)
C15_2 C 0.1202(4) 0.9694(4) 0.8418(4)
H11_2 H 0.0683 0.9741 0.8129
C18_2 C 0.2722(5) 0.9506(5) 0.9319(4)
H13_2 H 0.3232 0.9420 0.9635
C19_2 C 0.2965(5) 0.9039(5) 0.8733(4)
H14_2 H 0.3641 0.8654 0.8648
N7 N 0.6208(3) 0.8583(3) 0.6751(3)
O7_2 O 0.9845(3) 0.0427(3) 0.6592(3)
N4 N 0.9217(4) 0.5924(3) 0.7756(3)
C41_2 C 0.9711(4) 0.3570(4) 0.6892(4)
C42_2 C 0.9170(5) 0.2810(4) 0.7389(4)
H29_2 H 0.8644 0.2846 0.7881
C43_2 C 0.9391(5) 0.2001(4) 0.7171(4)
H30_2 H 0.9013 0.1500 0.7516
C44_2 C 0.9526(5) 0.4401(4) 0.7173(4)
C45_2 C 0.9748(6) 0.5318(5) 0.6585(4)
C46_2 C 0.9598(6) 0.6045(5) 0.6894(5)
H32_2 H 0.9769 0.6650 0.6484
C47_2 C 0.9007(7) 0.5047(5) 0.8331(5)
H33_2 H 0.8738 0.4945 0.8935
C48_2 C 0.9173(6) 0.4284(5) 0.8064(5)
H34_2 H 0.9044 0.3672 0.8496
O9_2 O 0.9578(3) 0.8401(2) 0.6878(2)
N1_2 N 0.7592(3) 0.8010(3) 0.7457(3)
C49_2 C 0.8909(3) 0.8939(3) 0.6342(3)
C50_2 C 0.7840(4) 0.8749(3) 0.6626(3)
C51_2 C 0.6980(3) 0.9113(3) 0.6193(3)
C52_2 C 0.6751(3) 0.9929(3) 0.5325(3)
C53_2 C 0.6609(4) 0.7950(4) 0.7495(3)
C54_2 C 0.6022(5) 0.7221(5) 0.8280(4)
H35_2 H 0.5319 0.7332 0.8178
H36_2 H 0.6395 0.6559 0.8342
H37_2 H 0.5976 0.7305 0.8823
H18 H 0.7617 0.0325 0.9040
H18_2 H 0.2383 0.9675 0.0960
loop_
_geom_bond_atom_site_label_1
_geom_bond_atom_site_label_2
_geom_bond_site_symmetry_1
_geom_bond_site_symmetry_2
O11 C52 1_555 1_555
N1 Cd1 1_555 1_555
N2 C51 1_555 1_555
C49 O8 1_555 1_555
C50 N1 1_555 1_555
C51 C50 1_555 1_555
C52 C51 1_555 1_555
C53 N1 1_555 1_555
C54 C53 1_555 1_555
H35 C54 1_555 1_555
H36 C54 1_555 1_555
H37 C54 1_555 1_555
Cd5 O11 1_555 1_555
O18 Cd1 1_555 1_555
N9 Cd1 1_555 1_555
N10 Cd1 1_555 1_555
Cd1 O9 1_555 1_555
O9 C49 1_555 1_555
N2 C53 1_555 1_555
N2 Cd5 1_555 1_555
C49 C50 1_555 1_555
N9 C46 1_555 1_555
C42 C41 1_555 1_555
H29 C42 1_555 1_555
H30 C43 1_555 1_555
C44 C41 1_555 1_555
C45 C44 1_555 1_555
C46 C45 1_555 1_555
H32 C46 1_555 1_555
C47 N9 1_555 1_555
H33 C47 1_555 1_555
C48 C44 1_555 1_555
H34 C48 1_555 1_555
O10 Sm2 1_555 1_555
C42 C43 1_555 1_555
C47 C48 1_555 1_555
Sm1 O1 1_555 1_555
Cd5 O4 1_555 1_555
O1 C1 1_555 1_555
O2 H1 1_555 1_555
H2 O2 1_555 1_555
O3 Sm1 1_555 1_555
O4 C13 1_555 1_555
O5 Sm1 1_555 1_555
N3 C10 1_555 1_555
C1 O3 1_555 1_555
C2 C1 1_555 1_555
C3 C2 1_555 1_555
H3 C3 1_555 1_555
C4 C3 1_555 1_555
H4 C4 1_555 1_555
C5 C4 1_555 1_555
C6 C5 1_555 1_555
H5 C6 1_555 1_555
C7 C2 1_555 1_555
H6 C7 1_555 1_555
C8 C5 1_555 1_555
C9 C8 1_555 1_555
H7 C9 1_555 1_555
C10 C9 1_555 1_555
H8 C10 1_555 1_555
C11 N3 1_555 1_555
H9 C11 1_555 1_555
C12 C8 1_555 1_555
H10 C12 1_555 1_555
C13 O5 1_555 1_555
C14 C13 1_555 1_555
C15 C14 1_555 1_555
H11 C15 1_555 1_555
H13 C18 1_555 1_555
C19 C14 1_555 1_555
H14 C19 1_555 1_555
Cd7 N3 1_555 1_555
O15 Sm1 1_555 1_555
N8 Cd5 1_555 1_555
C6 C7 1_555 1_555
C11 C12 1_555 1_555
C18 C19 1_555 1_555
O13 C25 1_555 1_555
H12 C16 1_555 1_555
C17 C16 1_555 1_555
H15 C21 1_555 1_555
C25 C26 1_555 1_555
C26 C27 1_555 1_555
C27 H19 1_555 1_555
C28 C27 1_555 1_555
H20 C28 1_555 1_555
C29 C28 1_555 1_555
C30 C29 1_555 1_555
H21 C30 1_555 1_555
C31 C26 1_555 1_555
H22 C31 1_555 1_555
C32 C29 1_555 1_555
C33 C32 1_555 1_555
H23 C33 1_555 1_555
C34 N5 1_555 1_555
H24 C34 1_555 1_555
C35 N5 1_555 1_555
H25 C35 1_555 1_555
C36 C32 1_555 1_555
H26 C36 1_555 1_555
C37 O6 1_555 1_555
C38 C37 1_555 1_555
C39 C38 1_555 1_555
H27 C39 1_555 1_555
C40 C39 1_555 1_555
H28 C40 1_555 1_555
C30 C31 1_555 1_555
C33 C34 1_555 1_555
C35 C36 1_555 1_555
N6 C22 1_555 1_555
H16 C22 1_555 1_555
C23 N6 1_555 1_555
H17 C23 1_555 1_555
C24 C20 1_555 1_555
Cd4 O12 1_555 1_555
N6 Cd4 1_555 1_555
C23 C24 1_555 1_555
N10 C22_2 1_555 1_555
H16_2 C22_2 1_555 1_555
C23_2 N10 1_555 1_555
H17_2 C23_2 1_555 1_555
C24_2 C20_2 1_555 1_555
C23_2 C24_2 1_555 1_555
O13_2 C25_2 1_555 1_555
H12_2 C16_2 1_555 1_555
C17_2 C16_2 1_555 1_555
H15_2 C21_2 1_555 1_555
C25_2 C26_2 1_555 1_555
C26_2 C27_2 1_555 1_555
C27_2 H19_2 1_555 1_555
C28_2 C27_2 1_555 1_555
H20_2 C28_2 1_555 1_555
C29_2 C28_2 1_555 1_555
C30_2 C29_2 1_555 1_555
H21_2 C30_2 1_555 1_555
C31_2 C26_2 1_555 1_555
H22_2 C31_2 1_555 1_555
C32_2 C29_2 1_555 1_555
C33_2 C32_2 1_555 1_555
H23_2 C33_2 1_555 1_555
C34_2 N5_2 1_555 1_555
H24_2 C34_2 1_555 1_555
C35_2 N5_2 1_555 1_555
H25_2 C35_2 1_555 1_555
C36_2 C32_2 1_555 1_555
H26_2 C36_2 1_555 1_555
C37_2 O6_2 1_555 1_555
C38_2 C37_2 1_555 1_555
C39_2 C38_2 1_555 1_555
H27_2 C39_2 1_555 1_555
C40_2 C39_2 1_555 1_555
H28_2 C40_2 1_555 1_555
C30_2 C31_2 1_555 1_555
C33_2 C34_2 1_555 1_555
C35_2 C36_2 1_555 1_555
Sm2 O1_2 1_555 1_555
Cd7 O4_2 1_555 1_555
O1_2 C1_2 1_555 1_555
O2_2 H1_2 1_555 1_555
H2_2 O2_2 1_555 1_555
O3_2 Sm2 1_555 1_555
O4_2 C13_2 1_555 1_555
O5_2 Sm2 1_555 1_555
N8 C10_2 1_555 1_555
C1_2 O3_2 1_555 1_555
C2_2 C1_2 1_555 1_555
C3_2 C2_2 1_555 1_555
H3_2 C3_2 1_555 1_555
C4_2 C3_2 1_555 1_555
H4_2 C4_2 1_555 1_555
C5_2 C4_2 1_555 1_555
C6_2 C5_2 1_555 1_555
H5_2 C6_2 1_555 1_555
C7_2 C2_2 1_555 1_555
H6_2 C7_2 1_555 1_555
C8_2 C5_2 1_555 1_555
C9_2 C8_2 1_555 1_555
H7_2 C9_2 1_555 1_555
C10_2 C9_2 1_555 1_555
H8_2 C10_2 1_555 1_555
C11_2 N8 1_555 1_555
H9_2 C11_2 1_555 1_555
C12_2 C8_2 1_555 1_555
H10_2 C12_2 1_555 1_555
C13_2 O5_2 1_555 1_555
C14_2 C13_2 1_555 1_555
C15_2 C14_2 1_555 1_555
H11_2 C15_2 1_555 1_555
H13_2 C18_2 1_555 1_555
C19_2 C14_2 1_555 1_555
H14_2 C19_2 1_555 1_555
O17 Cd7 1_555 1_555
N7 Cd7 1_555 1_555
C6_2 C7_2 1_555 1_555
C11_2 C12_2 1_555 1_555
C18_2 C19_2 1_555 1_555
N4 C46_2 1_555 1_555
C42_2 C41_2 1_555 1_555
H29_2 C42_2 1_555 1_555
H30_2 C43_2 1_555 1_555
C44_2 C41_2 1_555 1_555
C45_2 C44_2 1_555 1_555
C46_2 C45_2 1_555 1_555
H32_2 C46_2 1_555 1_555
C47_2 N4 1_555 1_555
H33_2 C47_2 1_555 1_555
C48_2 C44_2 1_555 1_555
H34_2 C48_2 1_555 1_555
Cd4 N4 1_555 1_555
C42_2 C43_2 1_555 1_555
C47_2 C48_2 1_555 1_555
O17 C52_2 1_555 1_555
N1_2 Cd4 1_555 1_555
N7 C51_2 1_555 1_555
C49_2 O14 1_555 1_555
C50_2 N1_2 1_555 1_555
C51_2 C50_2 1_555 1_555
C52_2 C51_2 1_555 1_555
C53_2 N1_2 1_555 1_555
C54_2 C53_2 1_555 1_555
H35_2 C54_2 1_555 1_555
H36_2 C54_2 1_555 1_555
H37_2 C54_2 1_555 1_555
Cd4 O9_2 1_555 1_555
O9_2 C49_2 1_555 1_555
N7 C53_2 1_555 1_555
C49_2 C50_2 1_555 1_555

#END
