
###############################################################################
#
# This file contains modified crystal structure data generated from the
# MOF subset of the Cambridge Structural Database (CSD) v543 
# hosted by the Cambridge Crystallographic Data Centre (CCDC).
#
# This work is licensed under the Creative Commons
# Attribution-NonCommercial-ShareAlike 4.0 International License.
# To view a copy of this license, visit
# http://creativecommons.org/licenses/by-nc-sa/4.0/
# or send a letter to
# Creative Commons, PO Box 1866, Mountain View, CA 94042, USA.
#
# CIF created using the CSD Python API on 29 September 2022
# The structure has been converted into the P1 space group
# The structure has a 3D framework
# The original CSD entry NEVBIB is in the monoclinic crystal system
# The framework has been calculated to contain at least 10.0% void space
# The void calculation uses a probe of radius 1.32A, grid spacing 0.4
#
###############################################################################

data_NEVBIB
_chemical_formula_moiety         '(C128 H96 N8 Ni6 O40)n'
_symmetry_cell_setting           triclinic
_symmetry_space_group_name_H-M   'P 1'
_symmetry_Int_Tables_number      1
_space_group_name_Hall           'P 1'
loop_
_symmetry_equiv_pos_site_id
_symmetry_equiv_pos_as_xyz
1 x,y,z
_cell_length_a                   16.886(8)
_cell_length_b                   12.392(8)
_cell_length_c                   14.274(7)
_cell_angle_alpha                90
_cell_angle_beta                 91.696(7)
_cell_angle_gamma                90
_cell_volume                     2985.54
loop_
_atom_site_label
_atom_site_type_symbol
_atom_site_fract_x
_atom_site_fract_y
_atom_site_fract_z
C1 C 0.2855(3) 0.4506(4) 0.1086(3)
C2 C 0.2981(3) 0.5703(4) 0.1092(3)
C3 C 0.2392(3) 0.6361(4) 0.1438(3)
H1 H 0.1940 0.6044 0.1673
C4 C 0.2460(4) 0.7478(3) 0.1444(4)
H2 H 0.2060 0.7902 0.1685
C5 C 0.3128(3) 0.7951(4) 0.1089(3)
C6 C 0.3707(3) 0.7298(4) 0.0708(4)
H3 H 0.4145 0.7625 0.0447
C7 C 0.3660(3) 0.6184(4) 0.0700(3)
C8 C 0.4326(3) 0.5553(3) 0.0335(3)
C9 C 0.4628(3) 0.4630(4) 0.0783(4)
H4 H 0.4383 0.4373 0.1314
C11 C 0.3286(3) 0.9149(4) 0.1105(4)
C12 C 0.1107(3) 0.3385(4) 0.1022(4)
H6 H 0.1213 0.4008 0.0684
C13 C 0.0511(3) 0.3422(4) 0.1650(4)
H7 H 0.0236 0.4064 0.1734
C14 C 0.0305(3) 0.2498(3) 0.2177(4)
C15 C 0.0753(3) 0.1568(4) 0.1980(3)
H8 H 0.0643 0.0927 0.2289
C16 C 0.1347(3) 0.1588(4) 0.1343(4)
H9 H 0.1621 0.0951 0.1235
N1 N 0.1557(3) 0.2488(2) 0.0859(3)
Ni1 Ni 0.2500 0.2500 0.0000
O1 O 0.27465(19) 0.4073(2) 0.0302(2)
O2 O 0.2852(3) 0.4019(3) 0.1855(3)
O3 O 0.3772(3) 0.9561(3) 0.0621(3)
O4 O 0.2883(3) 0.9755(3) 0.1674(3)
H10 H 0.2594 0.9373 0.1986
O5 O 0.3244(2) 0.1979(3) 0.1122(2)
H11 H 0.323(4) 0.138(2) 0.136(4)
H12 H 0.310(5) 0.247(3) 0.146(4)
C26 C 0.5280(3) 0.4090(4) 0.0458(4)
H17 H 0.5463 0.3477 0.0772
Ni2 Ni 0.7500 0.7500 0.0000
C10 C 0.4720(3) 0.5910(4) 0.9542(4)
H5 H 0.4537 0.6523 0.9228
Ni1_2 Ni 0.2500 0.2500 1.0000
C17 C 0.7145(3) 0.5494(4) 0.8914(3)
C18 C 0.7019(3) 0.4297(4) 0.8908(3)
C19 C 0.7608(3) 0.3639(4) 0.8562(3)
H13 H 0.8060 0.3956 0.8327
C20 C 0.7540(4) 0.2522(3) 0.8556(4)
H14 H 0.7940 0.2098 0.8315
C21 C 0.6872(3) 0.2049(4) 0.8911(3)
C22 C 0.6293(3) 0.2702(4) 0.9292(4)
H15 H 0.5855 0.2375 0.9553
C23 C 0.6340(3) 0.3816(4) 0.9300(3)
C24 C 0.5674(3) 0.4447(3) 0.9665(3)
C25 C 0.5372(3) 0.5370(4) 0.9217(4)
H16 H 0.5617 0.5627 0.8686
C27 C 0.6714(3) 0.0851(4) 0.8895(4)
N3 N 0.3443(3) 0.2512(2) 0.9141(3)
Ni2_2 Ni 0.7500 0.7500 1.0000
O6 O 0.72535(19) 0.5927(2) 0.9698(2)
O7 O 0.22535(19) 0.0927(2) 0.9698(2)
O8 O 0.7148(3) 0.5981(3) 0.8145(3)
O9 O 0.6228(3) 0.0439(3) 0.9379(3)
O10 O 0.7117(3) 0.0245(3) 0.8326(3)
H22 H 0.7406 0.0627 0.8014
O11 O 0.1756(2) 0.3021(3) 0.8878(2)
H23 H 0.177(4) 0.362(2) 0.864(4)
H24 H 0.190(5) 0.253(3) 0.854(4)
C28 C 0.8893(3) 0.3385(4) 0.3978(4)
H18 H 0.8787 0.4008 0.4316
C29 C 0.9489(3) 0.3422(4) 0.3350(4)
H19 H 0.9764 0.4064 0.3266
C30 C 0.9695(3) 0.2498(3) 0.2823(4)
C31 C 0.9247(3) 0.1568(4) 0.3020(3)
H20 H 0.9357 0.0927 0.2711
C32 C 0.8653(3) 0.1588(4) 0.3657(4)
H21 H 0.8379 0.0951 0.3765
N2 N 0.8443(3) 0.2488(2) 0.4141(3)
Ni3 Ni 0.7500 0.2500 0.5000
C1_2 C 0.7145(3) 0.4506(4) 0.3914(3)
C2_2 C 0.7019(3) 0.5703(4) 0.3908(3)
C3_2 C 0.7608(3) 0.6361(4) 0.3562(3)
H1_2 H 0.8060 0.6044 0.3327
C4_2 C 0.7540(4) 0.7478(3) 0.3556(4)
H2_2 H 0.7940 0.7902 0.3315
C5_2 C 0.6872(3) 0.7951(4) 0.3911(3)
C6_2 C 0.6293(3) 0.7298(4) 0.4292(4)
H3_2 H 0.5855 0.7625 0.4553
C7_2 C 0.6340(3) 0.6184(4) 0.4300(3)
C8_2 C 0.5674(3) 0.5553(3) 0.4665(3)
C9_2 C 0.5372(3) 0.4630(4) 0.4217(4)
H4_2 H 0.5617 0.4373 0.3686
C10_2 C 0.5280(3) 0.5910(4) 0.5458(4)
H5_2 H 0.5463 0.6523 0.5772
C11_2 C 0.6714(3) 0.9149(4) 0.3895(4)
O1_2 O 0.72535(19) 0.4073(2) 0.4698(2)
O2_2 O 0.7148(3) 0.4019(3) 0.3145(3)
O3_2 O 0.6228(3) 0.9561(3) 0.4379(3)
O4_2 O 0.7117(3) 0.9755(3) 0.3326(3)
H10_2 H 0.7406 0.9373 0.3014
O5_2 O 0.6756(2) 0.1979(3) 0.3878(2)
H11_2 H 0.677(4) 0.138(2) 0.364(4)
H12_2 H 0.690(5) 0.247(3) 0.354(4)
C17_2 C 0.2855(3) 0.5494(4) 0.6086(3)
C18_2 C 0.2981(3) 0.4297(4) 0.6092(3)
C19_2 C 0.2392(3) 0.3639(4) 0.6438(3)
H13_2 H 0.1940 0.3956 0.6673
C20_2 C 0.2460(4) 0.2522(3) 0.6444(4)
H14_2 H 0.2060 0.2098 0.6685
C21_2 C 0.3128(3) 0.2049(4) 0.6089(3)
C22_2 C 0.3707(3) 0.2702(4) 0.5708(4)
H15_2 H 0.4145 0.2375 0.5447
C23_2 C 0.3660(3) 0.3816(4) 0.5700(3)
C24_2 C 0.4326(3) 0.4447(3) 0.5335(3)
C25_2 C 0.4628(3) 0.5370(4) 0.5783(4)
H16_2 H 0.4383 0.5627 0.6314
C26_2 C 0.4720(3) 0.4090(4) 0.4542(4)
H17_2 H 0.4537 0.3477 0.4228
C27_2 C 0.3286(3) 0.0851(4) 0.6105(4)
N3_2 N 0.6557(3) 0.2512(2) 0.5859(3)
Ni2_3 Ni 0.2500 0.7500 0.5000
O6_2 O 0.27465(19) 0.5927(2) 0.5302(2)
O7_2 O 0.77465(19) 0.0927(2) 0.5302(2)
O8_2 O 0.2852(3) 0.5981(3) 0.6855(3)
O9_2 O 0.3772(3) 0.0439(3) 0.5621(3)
O10_2 O 0.2883(3) 0.0245(3) 0.6674(3)
H22_2 H 0.2594 0.0627 0.6986
O11_2 O 0.8244(2) 0.3021(3) 0.6122(2)
H23_2 H 0.823(4) 0.362(2) 0.636(4)
H24_2 H 0.810(5) 0.253(3) 0.646(4)
C17_3 C 0.2145(3) 0.0494(4) 0.8914(3)
C25_3 C 0.0372(3) 0.0370(4) 0.9217(4)
H16_3 H 0.0617 0.0627 0.8686
O8_3 O 0.2148(3) 0.0981(3) 0.8145(3)
C1_3 C 0.7855(3) 0.9506(4) 0.1086(3)
C9_3 C 0.9628(3) 0.9630(4) 0.0783(4)
H4_3 H 0.9383 0.9373 0.1314
C12_2 C 0.6107(3) 0.8385(4) 0.1022(4)
H6_2 H 0.6213 0.9008 0.0684
C13_2 C 0.5511(3) 0.8422(4) 0.1650(4)
H7_2 H 0.5236 0.9064 0.1734
C14_2 C 0.5305(3) 0.7498(3) 0.2177(4)
C15_2 C 0.5753(3) 0.6568(4) 0.1980(3)
H8_2 H 0.5643 0.5927 0.2289
C16_2 C 0.6347(3) 0.6588(4) 0.1343(4)
H9_2 H 0.6621 0.5951 0.1235
N1_2 N 0.6557(3) 0.7488(2) 0.0859(3)
O1_3 O 0.77465(19) 0.9073(2) 0.0302(2)
O2_3 O 0.7852(3) 0.9019(3) 0.1855(3)
O5_3 O 0.8244(2) 0.6979(3) 0.1122(2)
H11_3 H 0.823(4) 0.638(2) 0.136(4)
H12_3 H 0.810(5) 0.747(3) 0.146(4)
C28_2 C 0.3893(3) 0.8385(4) 0.3978(4)
H18_2 H 0.3787 0.9008 0.4316
C29_2 C 0.4489(3) 0.8422(4) 0.3350(4)
H19_2 H 0.4764 0.9064 0.3266
C30_2 C 0.4695(3) 0.7498(3) 0.2823(4)
C31_2 C 0.4247(3) 0.6568(4) 0.3020(3)
H20_2 H 0.4357 0.5927 0.2711
C32_2 C 0.3653(3) 0.6588(4) 0.3657(4)
H21_2 H 0.3379 0.5951 0.3765
N2_2 N 0.3443(3) 0.7488(2) 0.4141(3)
N3_3 N 0.8443(3) 0.7512(2) 0.9141(3)
O11_3 O 0.6756(2) 0.8021(3) 0.8878(2)
H23_3 H 0.677(4) 0.862(2) 0.864(4)
H24_3 H 0.690(5) 0.753(3) 0.854(4)
C1_4 C 0.2145(3) 0.9506(4) 0.3914(3)
C9_4 C 0.0372(3) 0.9630(4) 0.4217(4)
H4_4 H 0.0617 0.9373 0.3686
O1_4 O 0.22535(19) 0.9073(2) 0.4698(2)
O2_4 O 0.2148(3) 0.9019(3) 0.3145(3)
O5_4 O 0.1756(2) 0.6979(3) 0.3878(2)
H11_4 H 0.177(4) 0.638(2) 0.364(4)
H12_4 H 0.190(5) 0.747(3) 0.354(4)
N3_4 N 0.1557(3) 0.7512(2) 0.5859(3)
O11_4 O 0.3244(2) 0.8021(3) 0.6122(2)
H23_4 H 0.323(4) 0.862(2) 0.636(4)
H24_4 H 0.310(5) 0.753(3) 0.646(4)
C17_4 C 0.7855(3) 0.0494(4) 0.6086(3)
C25_4 C 0.9628(3) 0.0370(4) 0.5783(4)
H16_4 H 0.9383 0.0627 0.6314
O8_4 O 0.7852(3) 0.0981(3) 0.6855(3)
C28_3 C 0.1107(3) 0.6615(4) 0.6022(4)
H18_3 H 0.1213 0.5992 0.5684
C29_3 C 0.0511(3) 0.6578(4) 0.6650(4)
H19_3 H 0.0236 0.5936 0.6734
C30_3 C 0.0305(3) 0.7502(3) 0.7177(4)
C31_3 C 0.0753(3) 0.8432(4) 0.6980(3)
H20_3 H 0.0643 0.9073 0.7289
C32_3 C 0.1347(3) 0.8412(4) 0.6343(4)
H21_3 H 0.1621 0.9049 0.6235
C12_3 C 0.8893(3) 0.6615(4) 0.8978(4)
H6_3 H 0.8787 0.5992 0.9316
C13_3 C 0.9489(3) 0.6578(4) 0.8350(4)
H7_3 H 0.9764 0.5936 0.8266
C14_3 C 0.9695(3) 0.7502(3) 0.7823(4)
C15_3 C 0.9247(3) 0.8432(4) 0.8020(3)
H8_3 H 0.9357 0.9073 0.7711
C16_3 C 0.8653(3) 0.8412(4) 0.8657(4)
H9_3 H 0.8379 0.9049 0.8765
C12_4 C 0.3893(3) 0.1615(4) 0.8978(4)
H6_4 H 0.3787 0.0992 0.9316
C13_4 C 0.4489(3) 0.1578(4) 0.8350(4)
H7_4 H 0.4764 0.0936 0.8266
C14_4 C 0.4695(3) 0.2502(3) 0.7823(4)
C15_4 C 0.4247(3) 0.3432(4) 0.8020(3)
H8_4 H 0.4357 0.4073 0.7711
C16_4 C 0.3653(3) 0.3412(4) 0.8657(4)
H9_4 H 0.3379 0.4049 0.8765
C28_4 C 0.6107(3) 0.1615(4) 0.6022(4)
H18_4 H 0.6213 0.0992 0.5684
C29_4 C 0.5511(3) 0.1578(4) 0.6650(4)
H19_4 H 0.5236 0.0936 0.6734
C30_4 C 0.5305(3) 0.2502(3) 0.7177(4)
C31_4 C 0.5753(3) 0.3432(4) 0.6980(3)
H20_4 H 0.5643 0.4073 0.7289
C32_4 C 0.6347(3) 0.3412(4) 0.6343(4)
H21_4 H 0.6621 0.4049 0.6235
C26_3 C 0.0280(3) 0.9090(4) 0.0458(4)
H17_3 H 0.0463 0.8477 0.0772
C18_3 C 0.2019(3) 0.9297(4) 0.8908(3)
C19_3 C 0.2608(3) 0.8639(4) 0.8562(3)
H13_3 H 0.3060 0.8956 0.8327
C20_3 C 0.2540(4) 0.7522(3) 0.8556(4)
H14_3 H 0.2940 0.7098 0.8315
C21_3 C 0.1872(3) 0.7049(4) 0.8911(3)
C22_3 C 0.1293(3) 0.7702(4) 0.9292(4)
H15_3 H 0.0855 0.7375 0.9553
C23_3 C 0.1340(3) 0.8816(4) 0.9300(3)
C24_3 C 0.0674(3) 0.9447(3) 0.9665(3)
C27_3 C 0.1714(3) 0.5851(4) 0.8895(4)
O9_3 O 0.1228(3) 0.5439(3) 0.9379(3)
O10_3 O 0.2117(3) 0.5245(3) 0.8326(3)
H22_3 H 0.2406 0.5627 0.8014
C2_3 C 0.7981(3) 0.0703(4) 0.1092(3)
C3_3 C 0.7392(3) 0.1361(4) 0.1438(3)
H1_3 H 0.6940 0.1044 0.1673
C4_3 C 0.7460(4) 0.2478(3) 0.1444(4)
H2_3 H 0.7060 0.2902 0.1685
C5_3 C 0.8128(3) 0.2951(4) 0.1089(3)
C6_3 C 0.8707(3) 0.2298(4) 0.0708(4)
H3_3 H 0.9145 0.2625 0.0447
C7_3 C 0.8660(3) 0.1184(4) 0.0700(3)
C8_3 C 0.9326(3) 0.0553(3) 0.0335(3)
C11_3 C 0.8286(3) 0.4149(4) 0.1105(4)
O3_3 O 0.8772(3) 0.4561(3) 0.0621(3)
O4_3 O 0.7883(3) 0.4755(3) 0.1674(3)
H10_3 H 0.7594 0.4373 0.1986
C10_3 C 0.9720(3) 0.0910(4) 0.9542(4)
H5_3 H 0.9537 0.1523 0.9228
C2_4 C 0.2019(3) 0.0703(4) 0.3908(3)
C3_4 C 0.2608(3) 0.1361(4) 0.3562(3)
H1_4 H 0.3060 0.1044 0.3327
C4_4 C 0.2540(4) 0.2478(3) 0.3556(4)
H2_4 H 0.2940 0.2902 0.3315
C5_4 C 0.1872(3) 0.2951(4) 0.3911(3)
C6_4 C 0.1293(3) 0.2298(4) 0.4292(4)
H3_4 H 0.0855 0.2625 0.4553
C7_4 C 0.1340(3) 0.1184(4) 0.4300(3)
C8_4 C 0.0674(3) 0.0553(3) 0.4665(3)
C10_4 C 0.0280(3) 0.0910(4) 0.5458(4)
H5_4 H 0.0463 0.1523 0.5772
C11_4 C 0.1714(3) 0.4149(4) 0.3895(4)
O3_4 O 0.1228(3) 0.4561(3) 0.4379(3)
O4_4 O 0.2117(3) 0.4755(3) 0.3326(3)
H10_4 H 0.2406 0.4373 0.3014
C18_4 C 0.7981(3) 0.9297(4) 0.6092(3)
C19_4 C 0.7392(3) 0.8639(4) 0.6438(3)
H13_4 H 0.6940 0.8956 0.6673
C20_4 C 0.7460(4) 0.7522(3) 0.6444(4)
H14_4 H 0.7060 0.7098 0.6685
C21_4 C 0.8128(3) 0.7049(4) 0.6089(3)
C22_4 C 0.8707(3) 0.7702(4) 0.5708(4)
H15_4 H 0.9145 0.7375 0.5447
C23_4 C 0.8660(3) 0.8816(4) 0.5700(3)
C24_4 C 0.9326(3) 0.9447(3) 0.5335(3)
C26_4 C 0.9720(3) 0.9090(4) 0.4542(4)
H17_4 H 0.9537 0.8477 0.4228
C27_4 C 0.8286(3) 0.5851(4) 0.6105(4)
O9_4 O 0.8772(3) 0.5439(3) 0.5621(3)
O10_4 O 0.7883(3) 0.5245(3) 0.6674(3)
H22_4 H 0.7594 0.5627 0.6986
loop_
_geom_bond_atom_site_label_1
_geom_bond_atom_site_label_2
_geom_bond_site_symmetry_1
_geom_bond_site_symmetry_2
C1 C2 1_555 1_555
C2 C3 1_555 1_555
C3 H1 1_555 1_555
C4 C3 1_555 1_555
H2 C4 1_555 1_555
C5 C4 1_555 1_555
C6 C5 1_555 1_555
H3 C6 1_555 1_555
C7 C2 1_555 1_555
C8 C7 1_555 1_555
C9 C8 1_555 1_555
H4 C9 1_555 1_555
C11 C5 1_555 1_555
C12 H6 1_555 1_555
C13 C12 1_555 1_555
H7 C13 1_555 1_555
C14 C13 1_555 1_555
C15 C14 1_555 1_555
H8 C15 1_555 1_555
C16 C15 1_555 1_555
H9 C16 1_555 1_555
N1 C12 1_555 1_555
Ni1 N1 1_555 1_555
O1 C1 1_555 1_555
O2 C1 1_555 1_555
O3 C11 1_555 1_555
O4 C11 1_555 1_555
H10 O4 1_555 1_555
O5 Ni1 1_555 1_555
H11 O5 1_555 1_555
H12 O5 1_555 1_555
C26 C9 1_555 1_555
H17 C26 1_555 1_555
C6 C7 1_555 1_555
C16 N1 1_555 1_555
Ni1 O1 1_555 1_555
H5 C10 1_555 1_555
C17 C18 1_555 1_555
C18 C19 1_555 1_555
C19 H13 1_555 1_555
C20 C19 1_555 1_555
H14 C20 1_555 1_555
C21 C20 1_555 1_555
C22 C21 1_555 1_555
H15 C22 1_555 1_555
C23 C18 1_555 1_555
C24 C23 1_555 1_555
C25 C10 1_555 1_555
H16 C25 1_555 1_555
C27 C21 1_555 1_555
N3 Ni1_2 1_555 1_555
Ni2_2 O6 1_555 1_555
O6 C17 1_555 1_555
O7 Ni1_2 1_555 1_555
O8 C17 1_555 1_555
O9 C27 1_555 1_555
O10 C27 1_555 1_555
H22 O10 1_555 1_555
O11 Ni1_2 1_555 1_555
H23 O11 1_555 1_555
H24 O11 1_555 1_555
C22 C23 1_555 1_555
C24 C25 1_555 1_555
C28 H18 1_555 1_555
C29 C28 1_555 1_555
H19 C29 1_555 1_555
C31 C30 1_555 1_555
H20 C31 1_555 1_555
C32 C31 1_555 1_555
H21 C32 1_555 1_555
N2 C28 1_555 1_555
Ni3 N2 1_555 1_555
C29 C30 1_555 1_555
C32 N2 1_555 1_555
C1_2 C2_2 1_555 1_555
C2_2 C3_2 1_555 1_555
C3_2 H1_2 1_555 1_555
C4_2 C3_2 1_555 1_555
H2_2 C4_2 1_555 1_555
C5_2 C4_2 1_555 1_555
C6_2 C5_2 1_555 1_555
H3_2 C6_2 1_555 1_555
C7_2 C2_2 1_555 1_555
C8_2 C7_2 1_555 1_555
C9_2 C8_2 1_555 1_555
H4_2 C9_2 1_555 1_555
C10_2 C8_2 1_555 1_555
H5_2 C10_2 1_555 1_555
C11_2 C5_2 1_555 1_555
O1_2 C1_2 1_555 1_555
O2_2 C1_2 1_555 1_555
O3_2 C11_2 1_555 1_555
O4_2 C11_2 1_555 1_555
H10_2 O4_2 1_555 1_555
O5_2 Ni3 1_555 1_555
H11_2 O5_2 1_555 1_555
H12_2 O5_2 1_555 1_555
C17_2 C18_2 1_555 1_555
C18_2 C19_2 1_555 1_555
C19_2 H13_2 1_555 1_555
C20_2 C19_2 1_555 1_555
H14_2 C20_2 1_555 1_555
C21_2 C20_2 1_555 1_555
C22_2 C21_2 1_555 1_555
H15_2 C22_2 1_555 1_555
C23_2 C18_2 1_555 1_555
C24_2 C23_2 1_555 1_555
C25_2 C10_2 1_555 1_555
H16_2 C25_2 1_555 1_555
C26_2 C9_2 1_555 1_555
H17_2 C26_2 1_555 1_555
C27_2 C21_2 1_555 1_555
N3_2 Ni3 1_555 1_555
Ni2_3 O6_2 1_555 1_555
O6_2 C17_2 1_555 1_555
O7_2 Ni3 1_555 1_555
O8_2 C17_2 1_555 1_555
O9_2 C27_2 1_555 1_555
O10_2 C27_2 1_555 1_555
H22_2 O10_2 1_555 1_555
O11_2 Ni3 1_555 1_555
H23_2 O11_2 1_555 1_555
H24_2 O11_2 1_555 1_555
C6_2 C7_2 1_555 1_555
Ni3 O1_2 1_555 1_555
C22_2 C23_2 1_555 1_555
C24_2 C25_2 1_555 1_555
C24_2 C26_2 1_555 1_555
H16_3 C25_3 1_555 1_555
O7 C17_3 1_555 1_555
O8_3 C17_3 1_555 1_555
H4_3 C9_3 1_555 1_555
C12_2 H6_2 1_555 1_555
C13_2 C12_2 1_555 1_555
H7_2 C13_2 1_555 1_555
C14_2 C13_2 1_555 1_555
C15_2 C14_2 1_555 1_555
H8_2 C15_2 1_555 1_555
C16_2 C15_2 1_555 1_555
H9_2 C16_2 1_555 1_555
N1_2 C12_2 1_555 1_555
Ni2 N1_2 1_555 1_555
O1_3 C1_3 1_555 1_555
O2_3 C1_3 1_555 1_555
O5_3 Ni2 1_555 1_555
H11_3 O5_3 1_555 1_555
H12_3 O5_3 1_555 1_555
C28_2 H18_2 1_555 1_555
C29_2 C28_2 1_555 1_555
H19_2 C29_2 1_555 1_555
C30_2 C14_2 1_555 1_555
C31_2 C30_2 1_555 1_555
H20_2 C31_2 1_555 1_555
C32_2 C31_2 1_555 1_555
H21_2 C32_2 1_555 1_555
N2_2 C28_2 1_555 1_555
Ni2_3 N2_2 1_555 1_555
C16_2 N1_2 1_555 1_555
Ni2 O1_3 1_555 1_555
C29_2 C30_2 1_555 1_555
C32_2 N2_2 1_555 1_555
N3_3 Ni2_2 1_555 1_555
O11_3 Ni2_2 1_555 1_555
H23_3 O11_3 1_555 1_555
H24_3 O11_3 1_555 1_555
H4_4 C9_4 1_555 1_555
O1_4 C1_4 1_555 1_555
O2_4 C1_4 1_555 1_555
O5_4 Ni2_3 1_555 1_555
H11_4 O5_4 1_555 1_555
H12_4 O5_4 1_555 1_555
N3_4 Ni2_3 1_555 1_555
O11_4 Ni2_3 1_555 1_555
H23_4 O11_4 1_555 1_555
H24_4 O11_4 1_555 1_555
Ni2_3 O1_4 1_555 1_555
H16_4 C25_4 1_555 1_555
O7_2 C17_4 1_555 1_555
O8_4 C17_4 1_555 1_555
C28_3 H18_3 1_555 1_555
C29_3 C28_3 1_555 1_555
H19_3 C29_3 1_555 1_555
C31_3 C30_3 1_555 1_555
H20_3 C31_3 1_555 1_555
C32_3 C31_3 1_555 1_555
H21_3 C32_3 1_555 1_555
N3_4 C28_3 1_555 1_555
C29_3 C30_3 1_555 1_555
C32_3 N3_4 1_555 1_555
C12_3 H6_3 1_555 1_555
C13_3 C12_3 1_555 1_555
H7_3 C13_3 1_555 1_555
C14_3 C13_3 1_555 1_555
C15_3 C14_3 1_555 1_555
H8_3 C15_3 1_555 1_555
C16_3 C15_3 1_555 1_555
H9_3 C16_3 1_555 1_555
N3_3 C12_3 1_555 1_555
C16_3 N3_3 1_555 1_555
C12_4 H6_4 1_555 1_555
C13_4 C12_4 1_555 1_555
H7_4 C13_4 1_555 1_555
C14_4 C13_4 1_555 1_555
C15_4 C14_4 1_555 1_555
H8_4 C15_4 1_555 1_555
C16_4 C15_4 1_555 1_555
H9_4 C16_4 1_555 1_555
N3 C12_4 1_555 1_555
C28_4 H18_4 1_555 1_555
C29_4 C28_4 1_555 1_555
H19_4 C29_4 1_555 1_555
C30_4 C14_4 1_555 1_555
C31_4 C30_4 1_555 1_555
H20_4 C31_4 1_555 1_555
C32_4 C31_4 1_555 1_555
H21_4 C32_4 1_555 1_555
N3_2 C28_4 1_555 1_555
C16_4 N3 1_555 1_555
C29_4 C30_4 1_555 1_555
C32_4 N3_2 1_555 1_555
H17_3 C26_3 1_555 1_555
C18_3 C19_3 1_555 1_555
C19_3 H13_3 1_555 1_555
C20_3 C19_3 1_555 1_555
H14_3 C20_3 1_555 1_555
C21_3 C20_3 1_555 1_555
C22_3 C21_3 1_555 1_555
H15_3 C22_3 1_555 1_555
C23_3 C18_3 1_555 1_555
C24_3 C23_3 1_555 1_555
C27_3 C21_3 1_555 1_555
O9_3 C27_3 1_555 1_555
O10_3 C27_3 1_555 1_555
H22_3 O10_3 1_555 1_555
C22_3 C23_3 1_555 1_555
C2_3 C3_3 1_555 1_555
C3_3 H1_3 1_555 1_555
C4_3 C3_3 1_555 1_555
H2_3 C4_3 1_555 1_555
C5_3 C4_3 1_555 1_555
C6_3 C5_3 1_555 1_555
H3_3 C6_3 1_555 1_555
C7_3 C2_3 1_555 1_555
C8_3 C7_3 1_555 1_555
C11_3 C5_3 1_555 1_555
O3_3 C11_3 1_555 1_555
O4_3 C11_3 1_555 1_555
H10_3 O4_3 1_555 1_555
C6_3 C7_3 1_555 1_555
H5_3 C10_3 1_555 1_555
C2_4 C3_4 1_555 1_555
C3_4 H1_4 1_555 1_555
C4_4 C3_4 1_555 1_555
H2_4 C4_4 1_555 1_555
C5_4 C4_4 1_555 1_555
C6_4 C5_4 1_555 1_555
H3_4 C6_4 1_555 1_555
C7_4 C2_4 1_555 1_555
C8_4 C7_4 1_555 1_555
C10_4 C8_4 1_555 1_555
H5_4 C10_4 1_555 1_555
C11_4 C5_4 1_555 1_555
O3_4 C11_4 1_555 1_555
O4_4 C11_4 1_555 1_555
H10_4 O4_4 1_555 1_555
C6_4 C7_4 1_555 1_555
C18_4 C19_4 1_555 1_555
C19_4 H13_4 1_555 1_555
C20_4 C19_4 1_555 1_555
H14_4 C20_4 1_555 1_555
C21_4 C20_4 1_555 1_555
C22_4 C21_4 1_555 1_555
H15_4 C22_4 1_555 1_555
C23_4 C18_4 1_555 1_555
C24_4 C23_4 1_555 1_555
H17_4 C26_4 1_555 1_555
C27_4 C21_4 1_555 1_555
O9_4 C27_4 1_555 1_555
O10_4 C27_4 1_555 1_555
H22_4 O10_4 1_555 1_555
C22_4 C23_4 1_555 1_555
C24_4 C26_4 1_555 1_555

#END
