
###############################################################################
#
# This file contains modified crystal structure data generated from the
# MOF subset of the Cambridge Structural Database (CSD) v543 
# hosted by the Cambridge Crystallographic Data Centre (CCDC).
#
# This work is licensed under the Creative Commons
# Attribution-NonCommercial-ShareAlike 4.0 International License.
# To view a copy of this license, visit
# http://creativecommons.org/licenses/by-nc-sa/4.0/
# or send a letter to
# Creative Commons, PO Box 1866, Mountain View, CA 94042, USA.
#
# CIF created using the CSD Python API on 29 September 2022
# The structure has been converted into the P1 space group
# The structure has a 3D framework
# The original CSD entry NEVVIU02 is in the monoclinic crystal system
# The framework has been calculated to contain at least 10.0% void space
# The void calculation uses a probe of radius 1.32A, grid spacing 0.4
#
###############################################################################

data_NEVVIU02
_chemical_formula_moiety         '(C56 H32 Co14 N8 O40)n'
_symmetry_cell_setting           triclinic
_symmetry_space_group_name_H-M   'P 1'
_symmetry_Int_Tables_number      1
_space_group_name_Hall           'P 1'
loop_
_symmetry_equiv_pos_site_id
_symmetry_equiv_pos_as_xyz
1 x,y,z
_cell_length_a                   18.102(10)
_cell_length_b                   12.789(7)
_cell_length_c                   10.954(6)
_cell_angle_alpha                90
_cell_angle_beta                 103.535(8)
_cell_angle_gamma                90
_cell_volume                     2465.49
loop_
_atom_site_label
_atom_site_type_symbol
_atom_site_fract_x
_atom_site_fract_y
_atom_site_fract_z
Co1 Co 0.087979(17) 0.03269(3) 0.04456(3)
Co2 Co 0.0000 0.09853(3) 0.2500
O1 O 0.42452(10) 0.48056(14) 0.27778(16)
O2 O 0.36564(11) 0.40664(14) 0.09752(16)
O3 O 0.14854(11) 0.16113(15) 0.13698(17)
O4 O 0.08303(10) 0.21136(15) 0.27761(18)
N1 N 0.31552(12) 0.43239(17) 0.38783(19)
C1 C 0.31138(14) 0.39061(19) 0.2732(3)
C2 C 0.25538(15) 0.3217(2) 0.2181(3)
C3 C 0.19905(15) 0.2949(2) 0.2800(3)
C4 C 0.20135(16) 0.3407(3) 0.3949(3)
C5 C 0.26041(17) 0.4081(3) 0.4464(3)
C6 C 0.37213(14) 0.42811(19) 0.2094(3)
C7 C 0.13780(14) 0.2160(2) 0.2261(3)
H1 H 0.2554 0.2940 0.1447
H2 H 0.1666 0.3168 0.4430
H3 H 0.2641 0.4437 0.5246
O10 O 0.02042(10) 0.08825(13) 0.44734(16)
H8 H 0.0360 0.1460 0.4727
Co7 Co 0.412021(17) 0.53269(3) 0.45544(3)
Co11 Co 0.5000 0.59853(3) 0.2500
Co8 Co 0.412021(17) 0.46731(3) 0.95544(3)
O13 O 0.13436(11) 0.09336(14) 0.90248(16)
Co5 Co 0.087979(17) 0.96731(3) 0.54456(3)
O12 O 0.07548(10) 0.98056(14) 0.22222(16)
N4 N 0.18448(12) 0.93239(17) 0.11217(19)
O15 O 0.02042(10) 0.91175(13) 0.94734(16)
Co2_2 Co 1.0000 0.09853(3) 0.2500
O5 O 0.97958(10) 0.08825(13) 0.05266(16)
H4 H 0.9640 0.1460 0.0273
Co3 Co 0.912021(17) 0.03269(3) 0.45544(3)
O6 O 0.57548(10) 0.48056(14) 0.22222(16)
O7 O 0.63436(11) 0.40664(14) 0.40248(16)
O8 O 0.85146(11) 0.16113(15) 0.36302(17)
O9 O 0.91697(10) 0.21136(15) 0.22239(18)
N2 N 0.68448(12) 0.43239(17) 0.11217(19)
C8 C 0.68862(14) 0.39061(19) 0.2268(3)
C9 C 0.74462(15) 0.3217(2) 0.2819(3)
C10 C 0.80095(15) 0.2949(2) 0.2200(3)
C11 C 0.79865(16) 0.3407(3) 0.1051(3)
C12 C 0.73959(17) 0.4081(3) 0.0536(3)
C13 C 0.62787(14) 0.42811(19) 0.2906(3)
C14 C 0.86220(14) 0.2160(2) 0.2739(3)
H5 H 0.7446 0.2940 0.3553
H6 H 0.8334 0.3168 0.0570
Co6 Co 0.587979(17) 0.53269(3) 0.04456(3)
Co9 Co 0.587979(17) 0.46731(3) 0.54456(3)
O14 O 0.86564(11) 0.09336(14) 0.59752(16)
O11 O 0.92452(10) 0.98056(14) 0.27778(16)
O16 O 0.97958(10) 0.91175(13) 0.55266(16)
N3 N 0.81552(12) 0.93239(17) 0.38783(19)
Co4 Co 0.912021(17) 0.96731(3) 0.95544(3)
O2_2 O 0.86564(11) 0.90664(14) 0.09752(16)
O3_2 O 0.64854(11) 0.66113(15) 0.13698(17)
O4_2 O 0.58303(10) 0.71136(15) 0.27761(18)
O5_2 O 0.47958(10) 0.58825(13) 0.05266(16)
C1_2 C 0.81138(14) 0.89061(19) 0.2732(3)
C2_2 C 0.75538(15) 0.8217(2) 0.2181(3)
C3_2 C 0.69905(15) 0.7949(2) 0.2800(3)
C4_2 C 0.70135(16) 0.8407(3) 0.3949(3)
C5_2 C 0.76041(17) 0.9081(3) 0.4464(3)
C6_2 C 0.87213(14) 0.92811(19) 0.2094(3)
C7_2 C 0.63780(14) 0.7160(2) 0.2261(3)
H1_2 H 0.7554 0.7940 0.1447
H2_2 H 0.6666 0.8168 0.4430
H3_2 H 0.7641 0.9437 0.5246
H4_2 H 0.4640 0.6460 0.0273
O7_2 O 0.13436(11) 0.90664(14) 0.40248(16)
O8_2 O 0.35146(11) 0.66113(15) 0.36302(17)
O9_2 O 0.41697(10) 0.71136(15) 0.22239(18)
O10_2 O 0.52042(10) 0.58825(13) 0.44734(16)
C8_2 C 0.18862(14) 0.89061(19) 0.2268(3)
C9_2 C 0.24462(15) 0.8217(2) 0.2819(3)
C10_2 C 0.30095(15) 0.7949(2) 0.2200(3)
C11_2 C 0.29865(16) 0.8407(3) 0.1051(3)
C12_2 C 0.23959(17) 0.9081(3) 0.0536(3)
C13_2 C 0.12787(14) 0.92811(19) 0.2906(3)
C14_2 C 0.36220(14) 0.7160(2) 0.2739(3)
H5_2 H 0.2446 0.7940 0.3553
H6_2 H 0.3334 0.8168 0.0570
H8_2 H 0.5360 0.6460 0.4727
O14_2 O 0.36564(11) 0.59336(14) 0.59752(16)
O16_2 O 0.47958(10) 0.41175(13) 0.55266(16)
H7 H 0.2359 0.9437 0.9754
O13_2 O 0.63436(11) 0.59336(14) 0.90248(16)
O15_2 O 0.52042(10) 0.41175(13) 0.94734(16)
O11_2 O 0.07548(10) 0.01944(14) 0.72222(16)
N3_2 N 0.18448(12) 0.06761(17) 0.61217(19)
Co2_3 Co 0.0000 0.90147(3) 0.7500
H4_3 H 0.0360 0.8540 0.9727
O6_2 O 0.42452(10) 0.51944(14) 0.77778(16)
O8_3 O 0.14854(11) 0.83887(15) 0.63698(17)
O9_3 O 0.08303(10) 0.78864(15) 0.77761(18)
N2_2 N 0.31552(12) 0.56761(17) 0.88783(19)
C8_3 C 0.31138(14) 0.60939(19) 0.7732(3)
C9_3 C 0.25538(15) 0.6783(2) 0.7181(3)
C10_3 C 0.19905(15) 0.7051(2) 0.7800(3)
C11_3 C 0.20135(16) 0.6593(3) 0.8949(3)
C12_3 C 0.26041(17) 0.5919(3) 0.9464(3)
C13_3 C 0.37213(14) 0.57189(19) 0.7094(3)
C14_3 C 0.13780(14) 0.7840(2) 0.7261(3)
H5_3 H 0.2554 0.7060 0.6447
H6_3 H 0.1666 0.6832 0.9430
Co10 Co 0.5000 0.40147(3) 0.7500
O12_2 O 0.92452(10) 0.01944(14) 0.77778(16)
N4_2 N 0.81552(12) 0.06761(17) 0.88783(19)
Co2_4 Co 1.0000 0.90147(3) 0.7500
O1_2 O 0.57548(10) 0.51944(14) 0.72222(16)
O3_3 O 0.85146(11) 0.83887(15) 0.86302(17)
O4_3 O 0.91697(10) 0.78864(15) 0.72239(18)
N1_2 N 0.68448(12) 0.56761(17) 0.61217(19)
C1_3 C 0.68862(14) 0.60939(19) 0.7268(3)
C2_3 C 0.74462(15) 0.6783(2) 0.7819(3)
C3_3 C 0.80095(15) 0.7051(2) 0.7200(3)
C4_3 C 0.79865(16) 0.6593(3) 0.6051(3)
C5_3 C 0.73959(17) 0.5919(3) 0.5536(3)
C6_3 C 0.62787(14) 0.57189(19) 0.7906(3)
C7_3 C 0.86220(14) 0.7840(2) 0.7739(3)
H1_3 H 0.7446 0.7060 0.8553
H2_3 H 0.8334 0.6832 0.5570
H3_3 H 0.7359 0.5563 0.4754
H8_3 H 0.9640 0.8540 0.5273
H7_2 H 0.7641 0.0563 0.0246
O3_4 O 0.35146(11) 0.33887(15) 0.86302(17)
O4_4 O 0.41697(10) 0.28864(15) 0.72239(18)
C1_4 C 0.18862(14) 0.10939(19) 0.7268(3)
C2_4 C 0.24462(15) 0.1783(2) 0.7819(3)
C3_4 C 0.30095(15) 0.2051(2) 0.7200(3)
C4_4 C 0.29865(16) 0.1593(3) 0.6051(3)
C5_4 C 0.23959(17) 0.0919(3) 0.5536(3)
C6_4 C 0.12787(14) 0.07189(19) 0.7906(3)
C7_4 C 0.36220(14) 0.2840(2) 0.7739(3)
H1_4 H 0.2446 0.2060 0.8553
H2_4 H 0.3334 0.1832 0.5570
H3_4 H 0.2359 0.0563 0.4754
H4_4 H 0.5360 0.3540 0.9727
O8_4 O 0.64854(11) 0.33887(15) 0.63698(17)
O9_4 O 0.58303(10) 0.28864(15) 0.77761(18)
C8_4 C 0.81138(14) 0.10939(19) 0.7732(3)
C9_4 C 0.75538(15) 0.1783(2) 0.7181(3)
C10_4 C 0.69905(15) 0.2051(2) 0.7800(3)
C11_4 C 0.70135(16) 0.1593(3) 0.8949(3)
C12_4 C 0.76041(17) 0.0919(3) 0.9464(3)
C13_4 C 0.87213(14) 0.07189(19) 0.7094(3)
C14_4 C 0.63780(14) 0.2840(2) 0.7261(3)
H5_4 H 0.7554 0.2060 0.6447
H6_4 H 0.6666 0.1832 0.9430
H8_4 H 0.4640 0.3540 0.5273
H7_3 H 0.7359 0.4437 0.9754
H7_4 H 0.2641 0.5563 0.0246
loop_
_geom_bond_atom_site_label_1
_geom_bond_atom_site_label_2
_geom_bond_site_symmetry_1
_geom_bond_site_symmetry_2
Co1 O3 1_555 1_555
Co2 O4 1_555 1_555
O1 C6 1_555 1_555
O2 C6 1_555 1_555
O3 C7 1_555 1_555
O4 C7 1_555 1_555
N1 C1 1_555 1_555
C1 C2 1_555 1_555
C2 C3 1_555 1_555
C3 C4 1_555 1_555
C4 C5 1_555 1_555
C5 N1 1_555 1_555
C6 C1 1_555 1_555
C7 C3 1_555 1_555
H1 C2 1_555 1_555
H2 C4 1_555 1_555
H3 C5 1_555 1_555
O10 Co2 1_555 1_555
H8 O10 1_555 1_555
Co7 O1 1_555 1_555
Co11 O1 1_555 1_555
N1 Co7 1_555 1_555
H4 O5 1_555 1_555
Co3 O8 1_555 1_555
O6 C13 1_555 1_555
O7 C13 1_555 1_555
O8 C14 1_555 1_555
O9 Co2_2 1_555 1_555
N2 C8 1_555 1_555
C8 C9 1_555 1_555
C9 C10 1_555 1_555
C10 C11 1_555 1_555
C11 C12 1_555 1_555
C12 N2 1_555 1_555
C13 C8 1_555 1_555
C14 O9 1_555 1_555
H5 C9 1_555 1_555
H6 C11 1_555 1_555
Co6 O6 1_555 1_555
Co9 O7 1_555 1_555
Co11 O6 1_555 1_555
O14 Co3 1_555 1_555
Co2_2 O5 1_555 1_555
N2 Co6 1_555 1_555
C10 C14 1_555 1_555
Co6 O3_2 1_555 1_555
Co11 O4_2 1_555 1_555
O11 C6_2 1_555 1_555
O2_2 C6_2 1_555 1_555
O3_2 C7_2 1_555 1_555
O4_2 C7_2 1_555 1_555
O5_2 Co6 1_555 1_555
N3 C1_2 1_555 1_555
C1_2 C2_2 1_555 1_555
C2_2 C3_2 1_555 1_555
C3_2 C4_2 1_555 1_555
C4_2 C5_2 1_555 1_555
C5_2 N3 1_555 1_555
C6_2 C1_2 1_555 1_555
C7_2 C3_2 1_555 1_555
H1_2 C2_2 1_555 1_555
H2_2 C4_2 1_555 1_555
H3_2 C5_2 1_555 1_555
H4_2 O5_2 1_555 1_555
Co7 O8_2 1_555 1_555
O12 C13_2 1_555 1_555
O7_2 C13_2 1_555 1_555
O8_2 C14_2 1_555 1_555
O9_2 Co11 1_555 1_555
O10_2 Co11 1_555 1_555
N4 C8_2 1_555 1_555
C8_2 C9_2 1_555 1_555
C9_2 C10_2 1_555 1_555
C10_2 C11_2 1_555 1_555
C11_2 C12_2 1_555 1_555
C12_2 N4 1_555 1_555
C13_2 C8_2 1_555 1_555
C14_2 O9_2 1_555 1_555
H5_2 C9_2 1_555 1_555
H6_2 C11_2 1_555 1_555
H8_2 O10_2 1_555 1_555
Co9 O10_2 1_555 1_555
Co5 O7_2 1_555 1_555
O14_2 Co7 1_555 1_555
O16_2 Co7 1_555 1_555
Co11 O5_2 1_555 1_555
Co7 O10_2 1_555 1_555
C10_2 C14_2 1_555 1_555
Co9 O16_2 1_555 1_555
Co8 O15_2 1_555 1_555
H4_3 O15 1_555 1_555
Co5 O8_3 1_555 1_555
O6_2 C13_3 1_555 1_555
O14_2 C13_3 1_555 1_555
O8_3 C14_3 1_555 1_555
O9_3 Co2_3 1_555 1_555
N2_2 C8_3 1_555 1_555
C8_3 C9_3 1_555 1_555
C9_3 C10_3 1_555 1_555
C10_3 C11_3 1_555 1_555
C11_3 C12_3 1_555 1_555
C12_3 N2_2 1_555 1_555
C13_3 C8_3 1_555 1_555
C14_3 O9_3 1_555 1_555
H5_3 C9_3 1_555 1_555
H6_3 C11_3 1_555 1_555
Co8 O6_2 1_555 1_555
Co10 O6_2 1_555 1_555
Co2_3 O15 1_555 1_555
N2_2 Co8 1_555 1_555
C10_3 C14_3 1_555 1_555
Co4 O3_3 1_555 1_555
Co2_4 O4_3 1_555 1_555
O1_2 C6_3 1_555 1_555
O13_2 C6_3 1_555 1_555
O3_3 C7_3 1_555 1_555
O4_3 C7_3 1_555 1_555
N1_2 C1_3 1_555 1_555
C1_3 C2_3 1_555 1_555
C2_3 C3_3 1_555 1_555
C3_3 C4_3 1_555 1_555
C4_3 C5_3 1_555 1_555
C5_3 N1_2 1_555 1_555
C6_3 C1_3 1_555 1_555
C7_3 C3_3 1_555 1_555
H1_3 C2_3 1_555 1_555
H2_3 C4_3 1_555 1_555
H3_3 C5_3 1_555 1_555
O16 Co2_4 1_555 1_555
H8_3 O16 1_555 1_555
Co9 O1_2 1_555 1_555
Co10 O1_2 1_555 1_555
N1_2 Co9 1_555 1_555
Co8 O3_4 1_555 1_555
Co10 O4_4 1_555 1_555
O11_2 C6_4 1_555 1_555
O13 C6_4 1_555 1_555
O3_4 C7_4 1_555 1_555
O4_4 C7_4 1_555 1_555
N3_2 C1_4 1_555 1_555
C1_4 C2_4 1_555 1_555
C2_4 C3_4 1_555 1_555
C3_4 C4_4 1_555 1_555
C4_4 C5_4 1_555 1_555
C5_4 N3_2 1_555 1_555
C6_4 C1_4 1_555 1_555
C7_4 C3_4 1_555 1_555
H1_4 C2_4 1_555 1_555
H2_4 C4_4 1_555 1_555
H3_4 C5_4 1_555 1_555
H4_4 O15_2 1_555 1_555
Co9 O8_4 1_555 1_555
O12_2 C13_4 1_555 1_555
O14 C13_4 1_555 1_555
O8_4 C14_4 1_555 1_555
O9_4 Co10 1_555 1_555
O16_2 Co10 1_555 1_555
N4_2 C8_4 1_555 1_555
C8_4 C9_4 1_555 1_555
C9_4 C10_4 1_555 1_555
C10_4 C11_4 1_555 1_555
C11_4 C12_4 1_555 1_555
C12_4 N4_2 1_555 1_555
C13_4 C8_4 1_555 1_555
C14_4 O9_4 1_555 1_555
H5_4 C9_4 1_555 1_555
H6_4 C11_4 1_555 1_555
H8_4 O16_2 1_555 1_555
Co10 O15_2 1_555 1_555
C10_4 C14_4 1_555 1_555

#END
