
###############################################################################
#
# This file contains modified crystal structure data generated from the
# MOF subset of the Cambridge Structural Database (CSD) v543 
# hosted by the Cambridge Crystallographic Data Centre (CCDC).
#
# This work is licensed under the Creative Commons
# Attribution-NonCommercial-ShareAlike 4.0 International License.
# To view a copy of this license, visit
# http://creativecommons.org/licenses/by-nc-sa/4.0/
# or send a letter to
# Creative Commons, PO Box 1866, Mountain View, CA 94042, USA.
#
# CIF created using the CSD Python API on 29 September 2022
# The structure has been converted into the P1 space group
# The structure has a 3D framework
# The original CSD entry NEVVIU is in the monoclinic crystal system
# The framework has been calculated to contain at least 10.0% void space
# The void calculation uses a probe of radius 1.32A, grid spacing 0.4
#
###############################################################################

data_NEVVIU
_chemical_formula_moiety         '(C56 H32 Co12 N8 O40)n'
_symmetry_cell_setting           triclinic
_symmetry_space_group_name_H-M   'P 1'
_symmetry_Int_Tables_number      1
_space_group_name_Hall           'P 1'
loop_
_symmetry_equiv_pos_site_id
_symmetry_equiv_pos_as_xyz
1 x,y,z
_cell_length_a                   18.1020(7)
_cell_length_b                   12.7694(5)
_cell_length_c                   10.9701(5)
_cell_angle_alpha                90
_cell_angle_beta                 103.4004(16)
_cell_angle_gamma                90
_cell_volume                     2466.72
loop_
_atom_site_label
_atom_site_type_symbol
_atom_site_fract_x
_atom_site_fract_y
_atom_site_fract_z
Co1 Co 0.087999(16) 0.53295(2) 0.04450(3)
Co2 Co -0.0000 0.59863(3) 0.2500
N1 N 0.18470(11) 0.43269(16) 0.11278(18)
O1 O 0.07548(9) 0.48081(13) 0.22217(15)
O2 O 0.13438(10) 0.40694(14) 0.40230(15)
O3 O 0.35188(10) 0.16194(15) 0.36347(17)
O4 O 0.41681(10) 0.21131(14) 0.22289(18)
C1 C 0.18868(13) 0.39084(18) 0.2264(2)
C2 C 0.24497(14) 0.3213(2) 0.2829(2)
H2 H 0.2458(14) 0.2943(19) 0.362(3)
C3 C 0.30116(14) 0.2954(2) 0.2206(2)
C4 C 0.29865(16) 0.3413(2) 0.1058(3)
H3 H 0.3366(17) 0.328(2) 0.060(3)
C5 C 0.23959(16) 0.4083(2) 0.0545(3)
C6 C 0.12775(13) 0.42810(18) 0.2904(2)
C7 C 0.36227(14) 0.21611(19) 0.2744(2)
Co4 Co 0.087999(16) 0.46705(2) 0.54450(3)
Co5 Co 0.412001(16) 0.03295(2) 0.45550(3)
Co8 Co 0.5000 0.09863(3) 0.2500
O11 O 0.14812(10) 0.66194(15) 0.13653(17)
O15 O 0.08319(10) 0.71131(14) 0.27711(18)
O16 O 0.02039(9) 0.58800(14) 0.44720(15)
H5 H 0.0331(17) 0.638(2) 0.474(3)
H4 H 0.2363(16) 0.437(2) 0.968(3)
O8 O 0.13438(10) 0.59306(14) 0.90230(15)
O17 O 0.02039(9) 0.41200(14) 0.94720(15)
H6 H 0.0331(17) 0.362(2) 0.974(3)
Co2_2 Co 1.0000 0.59863(3) 0.2500
O5 O 0.97961(9) 0.58800(14) 0.05280(15)
H1 H 0.9669(17) 0.638(2) 0.026(3)
Co3 Co 0.912001(16) 0.53295(2) 0.45550(3)
Co7 Co 0.587999(16) 0.03295(2) 0.04450(3)
N2 N 0.81530(11) 0.43269(16) 0.38722(18)
O6 O 0.92452(9) 0.48081(13) 0.27783(15)
O7 O 0.86562(10) 0.40694(14) 0.09770(15)
O9 O 0.86562(10) 0.59306(14) 0.59770(15)
O10 O 0.64812(10) 0.16194(15) 0.13653(17)
O12 O 0.85188(10) 0.66194(15) 0.36347(17)
O13 O 0.58319(10) 0.21131(14) 0.27711(18)
O14 O 0.91681(10) 0.71131(14) 0.22289(18)
O18 O 0.97961(9) 0.41200(14) 0.55280(15)
H7 H 0.9669(17) 0.362(2) 0.526(3)
C8 C 0.81132(13) 0.39084(18) 0.2736(2)
C9 C 0.75503(14) 0.3213(2) 0.2171(2)
H8 H 0.7542(14) 0.2943(19) 0.138(3)
C10 C 0.69884(14) 0.2954(2) 0.2794(2)
C11 C 0.70135(16) 0.3413(2) 0.3942(3)
H9 H 0.6634(17) 0.328(2) 0.440(3)
C12 C 0.76041(16) 0.4083(2) 0.4455(3)
H10 H 0.7637(16) 0.437(2) 0.532(3)
C13 C 0.87225(13) 0.42810(18) 0.2096(2)
C14 C 0.63773(14) 0.21611(19) 0.2256(2)
Co6 Co 0.912001(16) 0.46705(2) 0.95550(3)
O5_2 O 0.47961(9) 0.08800(14) 0.05280(15)
H1_2 H 0.4669(17) 0.138(2) 0.026(3)
O9_2 O 0.36562(10) 0.09306(14) 0.59770(15)
O16_2 O 0.52039(9) 0.08800(14) 0.44720(15)
H5_2 H 0.5331(17) 0.138(2) 0.474(3)
O8_2 O 0.63438(10) 0.09306(14) 0.90230(15)
N1_2 N 0.68470(11) 0.93269(16) 0.11278(18)
O1_2 O 0.57548(9) 0.98081(13) 0.22217(15)
O2_2 O 0.63438(10) 0.90694(14) 0.40230(15)
C1_2 C 0.68868(13) 0.89084(18) 0.2264(2)
C2_2 C 0.74497(14) 0.8213(2) 0.2829(2)
H2_2 H 0.7458(14) 0.7943(19) 0.362(3)
C3_2 C 0.80116(14) 0.7954(2) 0.2206(2)
C4_2 C 0.79865(16) 0.8413(2) 0.1058(3)
H3_2 H 0.8366(17) 0.828(2) 0.060(3)
C5_2 C 0.73959(16) 0.9083(2) 0.0545(3)
C6_2 C 0.62775(13) 0.92810(18) 0.2904(2)
C7_2 C 0.86227(14) 0.71611(19) 0.2744(2)
Co4_2 Co 0.587999(16) 0.96705(2) 0.54450(3)
N2_2 N 0.31530(11) 0.93269(16) 0.38722(18)
O6_2 O 0.42452(9) 0.98081(13) 0.27783(15)
O7_2 O 0.36562(10) 0.90694(14) 0.09770(15)
O18_2 O 0.47961(9) 0.91200(14) 0.55280(15)
H7_2 H 0.4669(17) 0.862(2) 0.526(3)
C8_2 C 0.31132(13) 0.89084(18) 0.2736(2)
C9_2 C 0.25503(14) 0.8213(2) 0.2171(2)
H8_2 H 0.2542(14) 0.7943(19) 0.138(3)
C10_2 C 0.19884(14) 0.7954(2) 0.2794(2)
C11_2 C 0.20135(16) 0.8413(2) 0.3942(3)
H9_2 H 0.1634(17) 0.828(2) 0.440(3)
C12_2 C 0.26041(16) 0.9083(2) 0.4455(3)
H10_2 H 0.2637(16) 0.937(2) 0.532(3)
C13_2 C 0.37225(13) 0.92810(18) 0.2096(2)
C14_2 C 0.13773(14) 0.71611(19) 0.2256(2)
H4_2 H 0.7363(16) 0.937(2) 0.968(3)
Co6_2 Co 0.412001(16) 0.96705(2) 0.95550(3)
O17_2 O 0.52039(9) 0.91200(14) 0.94720(15)
H6_2 H 0.5331(17) 0.862(2) 0.974(3)
Co2_3 Co 0.0000 0.40137(3) 0.7500
Co9 Co 0.5000 0.90137(3) 0.7500
N2_3 N 0.18470(11) 0.56731(16) 0.61278(18)
O6_3 O 0.07548(9) 0.51919(13) 0.72217(15)
O10_2 O 0.35188(10) 0.83806(15) 0.86347(17)
O12_2 O 0.14812(10) 0.33806(15) 0.63653(17)
O13_2 O 0.41681(10) 0.78869(14) 0.72289(18)
O14_2 O 0.08319(10) 0.28869(14) 0.77711(18)
C8_3 C 0.18868(13) 0.60916(18) 0.7264(2)
C9_3 C 0.24497(14) 0.6787(2) 0.7829(2)
H8_3 H 0.2458(14) 0.7057(19) 0.862(3)
C10_3 C 0.30116(14) 0.7046(2) 0.7206(2)
C11_3 C 0.29865(16) 0.6587(2) 0.6058(3)
H9_3 H 0.3366(17) 0.672(2) 0.560(3)
C12_3 C 0.23959(16) 0.5917(2) 0.5545(3)
H10_3 H 0.2363(16) 0.563(2) 0.468(3)
C13_3 C 0.12775(13) 0.57190(18) 0.7904(2)
C14_3 C 0.36227(14) 0.78389(19) 0.7744(2)
H4_3 H 0.7637(16) 0.563(2) 0.032(3)
Co2_4 Co 1.0000 0.40137(3) 0.7500
N1_3 N 0.81530(11) 0.56731(16) 0.88722(18)
O1_3 O 0.92452(9) 0.51919(13) 0.77783(15)
O3_2 O 0.64812(10) 0.83806(15) 0.63653(17)
O4_2 O 0.58319(10) 0.78869(14) 0.77711(18)
C1_3 C 0.81132(13) 0.60916(18) 0.7736(2)
C2_3 C 0.75503(14) 0.6787(2) 0.7171(2)
H2_3 H 0.7542(14) 0.7057(19) 0.638(3)
C3_3 C 0.69884(14) 0.7046(2) 0.7794(2)
C4_3 C 0.70135(16) 0.6587(2) 0.8942(3)
H3_3 H 0.6634(17) 0.672(2) 0.940(3)
C5_3 C 0.76041(16) 0.5917(2) 0.9455(3)
C6_3 C 0.87225(13) 0.57190(18) 0.7096(2)
C7_3 C 0.63773(14) 0.78389(19) 0.7256(2)
O11_2 O 0.85188(10) 0.33806(15) 0.86347(17)
O15_2 O 0.91681(10) 0.28869(14) 0.72289(18)
H4_4 H 0.2637(16) 0.063(2) 0.032(3)
N1_4 N 0.31530(11) 0.06731(16) 0.88722(18)
O1_4 O 0.42452(9) 0.01919(13) 0.77783(15)
C1_4 C 0.31132(13) 0.10916(18) 0.7736(2)
C2_4 C 0.25503(14) 0.1787(2) 0.7171(2)
H2_4 H 0.2542(14) 0.2057(19) 0.638(3)
C3_4 C 0.19884(14) 0.2046(2) 0.7794(2)
C4_4 C 0.20135(16) 0.1587(2) 0.8942(3)
H3_4 H 0.1634(17) 0.172(2) 0.940(3)
C5_4 C 0.26041(16) 0.0917(2) 0.9455(3)
C6_4 C 0.37225(13) 0.07190(18) 0.7096(2)
C7_4 C 0.13773(14) 0.28389(19) 0.7256(2)
N2_4 N 0.68470(11) 0.06731(16) 0.61278(18)
O6_4 O 0.57548(9) 0.01919(13) 0.72217(15)
C8_4 C 0.68868(13) 0.10916(18) 0.7264(2)
C9_4 C 0.74497(14) 0.1787(2) 0.7829(2)
H8_4 H 0.7458(14) 0.2057(19) 0.862(3)
C10_4 C 0.80116(14) 0.2046(2) 0.7206(2)
C11_4 C 0.79865(16) 0.1587(2) 0.6058(3)
H9_4 H 0.8366(17) 0.172(2) 0.560(3)
C12_4 C 0.73959(16) 0.0917(2) 0.5545(3)
H10_4 H 0.7363(16) 0.063(2) 0.468(3)
C13_4 C 0.62775(13) 0.07190(18) 0.7904(2)
C14_4 C 0.86227(14) 0.28389(19) 0.7744(2)
loop_
_geom_bond_atom_site_label_1
_geom_bond_atom_site_label_2
_geom_bond_site_symmetry_1
_geom_bond_site_symmetry_2
Co1 N1 1_555 1_555
Co2 O1 1_555 1_555
N1 C1 1_555 1_555
O1 Co1 1_555 1_555
O2 C6 1_555 1_555
O3 C7 1_555 1_555
O4 C7 1_555 1_555
C1 C2 1_555 1_555
C2 H2 1_555 1_555
C3 C2 1_555 1_555
C4 C3 1_555 1_555
H3 C4 1_555 1_555
C5 N1 1_555 1_555
C6 O1 1_555 1_555
C7 C3 1_555 1_555
Co4 O2 1_555 1_555
Co5 O3 1_555 1_555
Co8 O4 1_555 1_555
O11 Co1 1_555 1_555
O15 Co2 1_555 1_555
O16 Co2 1_555 1_555
H5 O16 1_555 1_555
C1 C6 1_555 1_555
C4 C5 1_555 1_555
Co4 O16 1_555 1_555
H6 O17 1_555 1_555
H1 O5 1_555 1_555
Co3 N2 1_555 1_555
Co7 O10 1_555 1_555
Co8 O13 1_555 1_555
N2 C8 1_555 1_555
O6 Co2_2 1_555 1_555
O9 Co3 1_555 1_555
O10 C14 1_555 1_555
O12 Co3 1_555 1_555
O13 C14 1_555 1_555
O14 Co2_2 1_555 1_555
O18 Co3 1_555 1_555
H7 O18 1_555 1_555
C8 C9 1_555 1_555
C9 H8 1_555 1_555
C10 C9 1_555 1_555
C11 C10 1_555 1_555
H9 C11 1_555 1_555
C12 N2 1_555 1_555
H10 C12 1_555 1_555
C13 O6 1_555 1_555
C14 C10 1_555 1_555
Co2_2 O5 1_555 1_555
Co3 O6 1_555 1_555
O7 C13 1_555 1_555
C8 C13 1_555 1_555
C11 C12 1_555 1_555
O5_2 Co7 1_555 1_555
H1_2 O5_2 1_555 1_555
O9_2 Co5 1_555 1_555
O16_2 Co8 1_555 1_555
H5_2 O16_2 1_555 1_555
Co8 O5_2 1_555 1_555
Co5 O16_2 1_555 1_555
N1_2 C1_2 1_555 1_555
O2_2 C6_2 1_555 1_555
O12 C7_2 1_555 1_555
O14 C7_2 1_555 1_555
C1_2 C2_2 1_555 1_555
C2_2 H2_2 1_555 1_555
C3_2 C2_2 1_555 1_555
C4_2 C3_2 1_555 1_555
H3_2 C4_2 1_555 1_555
C5_2 N1_2 1_555 1_555
C6_2 O1_2 1_555 1_555
C7_2 C3_2 1_555 1_555
Co4_2 O2_2 1_555 1_555
N2_2 C8_2 1_555 1_555
O11 C14_2 1_555 1_555
O15 C14_2 1_555 1_555
H7_2 O18_2 1_555 1_555
C8_2 C9_2 1_555 1_555
C9_2 H8_2 1_555 1_555
C10_2 C9_2 1_555 1_555
C11_2 C10_2 1_555 1_555
H9_2 C11_2 1_555 1_555
C12_2 N2_2 1_555 1_555
H10_2 C12_2 1_555 1_555
C13_2 O6_2 1_555 1_555
C14_2 C10_2 1_555 1_555
C1_2 C6_2 1_555 1_555
C4_2 C5_2 1_555 1_555
Co4_2 O18_2 1_555 1_555
O7_2 C13_2 1_555 1_555
C8_2 C13_2 1_555 1_555
C11_2 C12_2 1_555 1_555
H6_2 O17_2 1_555 1_555
Co6_2 O17_2 1_555 1_555
Co4 N2_3 1_555 1_555
Co6_2 O10_2 1_555 1_555
Co9 O13_2 1_555 1_555
N2_3 C8_3 1_555 1_555
O6_3 Co2_3 1_555 1_555
O10_2 C14_3 1_555 1_555
O12_2 Co4 1_555 1_555
O13_2 C14_3 1_555 1_555
O14_2 Co2_3 1_555 1_555
C8_3 C9_3 1_555 1_555
C9_3 H8_3 1_555 1_555
C10_3 C9_3 1_555 1_555
C11_3 C10_3 1_555 1_555
H9_3 C11_3 1_555 1_555
C12_3 N2_3 1_555 1_555
H10_3 C12_3 1_555 1_555
C13_3 O6_3 1_555 1_555
C14_3 C10_3 1_555 1_555
Co2_3 O17 1_555 1_555
Co4 O6_3 1_555 1_555
O8 C13_3 1_555 1_555
C8_3 C13_3 1_555 1_555
C11_3 C12_3 1_555 1_555
Co6 N1_3 1_555 1_555
Co2_4 O1_3 1_555 1_555
N1_3 C1_3 1_555 1_555
O1_3 Co6 1_555 1_555
O9 C6_3 1_555 1_555
O3_2 C7_3 1_555 1_555
O4_2 C7_3 1_555 1_555
C1_3 C2_3 1_555 1_555
C2_3 H2_3 1_555 1_555
C3_3 C2_3 1_555 1_555
C4_3 C3_3 1_555 1_555
H3_3 C4_3 1_555 1_555
C5_3 N1_3 1_555 1_555
C6_3 O1_3 1_555 1_555
C7_3 C3_3 1_555 1_555
Co4_2 O3_2 1_555 1_555
Co9 O4_2 1_555 1_555
O11_2 Co6 1_555 1_555
O15_2 Co2_4 1_555 1_555
O18 Co2_4 1_555 1_555
C1_3 C6_3 1_555 1_555
C4_3 C5_3 1_555 1_555
N1_4 C1_4 1_555 1_555
O9_2 C6_4 1_555 1_555
O12_2 C7_4 1_555 1_555
O14_2 C7_4 1_555 1_555
C1_4 C2_4 1_555 1_555
C2_4 H2_4 1_555 1_555
C3_4 C2_4 1_555 1_555
C4_4 C3_4 1_555 1_555
H3_4 C4_4 1_555 1_555
C5_4 N1_4 1_555 1_555
C6_4 O1_4 1_555 1_555
C7_4 C3_4 1_555 1_555
N2_4 C8_4 1_555 1_555
O11_2 C14_4 1_555 1_555
O15_2 C14_4 1_555 1_555
C8_4 C9_4 1_555 1_555
C9_4 H8_4 1_555 1_555
C10_4 C9_4 1_555 1_555
C11_4 C10_4 1_555 1_555
H9_4 C11_4 1_555 1_555
C12_4 N2_4 1_555 1_555
H10_4 C12_4 1_555 1_555
C13_4 O6_4 1_555 1_555
C14_4 C10_4 1_555 1_555
C1_4 C6_4 1_555 1_555
C4_4 C5_4 1_555 1_555
O8_2 C13_4 1_555 1_555
C8_4 C13_4 1_555 1_555
C11_4 C12_4 1_555 1_555
O18_2 Co9 1_555 1_555
Co9 O17_2 1_555 1_555

#END
