
###############################################################################
#
# This file contains modified crystal structure data generated from the
# MOF subset of the Cambridge Structural Database (CSD) v543 
# hosted by the Cambridge Crystallographic Data Centre (CCDC).
#
# This work is licensed under the Creative Commons
# Attribution-NonCommercial-ShareAlike 4.0 International License.
# To view a copy of this license, visit
# http://creativecommons.org/licenses/by-nc-sa/4.0/
# or send a letter to
# Creative Commons, PO Box 1866, Mountain View, CA 94042, USA.
#
# CIF created using the CSD Python API on 29 September 2022
# The structure has been converted into the P1 space group
# The structure has a 3D framework
# The original CSD entry NEVVIU01 is in the monoclinic crystal system
# The framework has been calculated to contain at least 10.0% void space
# The void calculation uses a probe of radius 1.32A, grid spacing 0.4
#
###############################################################################

data_NEVVIU01
_chemical_formula_moiety         '(C56 H32 Co14 N8 O40)n'
_symmetry_cell_setting           triclinic
_symmetry_space_group_name_H-M   'P 1'
_symmetry_Int_Tables_number      1
_space_group_name_Hall           'P 1'
loop_
_symmetry_equiv_pos_site_id
_symmetry_equiv_pos_as_xyz
1 x,y,z
_cell_length_a                   18.217(13)
_cell_length_b                   12.610(9)
_cell_length_c                   10.976(8)
_cell_angle_alpha                90
_cell_angle_beta                 103.195(10)
_cell_angle_gamma                90
_cell_volume                     2454.8
loop_
_atom_site_label
_atom_site_type_symbol
_atom_site_fract_x
_atom_site_fract_y
_atom_site_fract_z
Co1 Co 0.087485(14) 0.03230(2) 0.04392(2)
Co2 Co 0.0000 0.09888(3) 0.2500
O1 O 0.42530(8) 0.47968(11) 0.27886(13)
O2 O 0.36597(8) 0.40566(11) 0.09799(13)
O3 O 0.14820(8) 0.16098(12) 0.13713(13)
O4 O 0.08265(8) 0.21320(11) 0.27794(14)
N1 N 0.31636(9) 0.43147(14) 0.39006(16)
C1 C 0.31193(11) 0.38994(16) 0.27483(18)
C2 C 0.25529(12) 0.32089(16) 0.21838(19)
C3 C 0.19926(11) 0.29521(16) 0.28099(19)
C4 C 0.20193(12) 0.34119(17) 0.3972(2)
C5 C 0.26138(12) 0.40773(17) 0.4487(2)
C6 C 0.37289(11) 0.42720(15) 0.21051(19)
C7 C 0.13763(11) 0.21640(16) 0.22662(19)
H1 H 0.2531 0.2915 0.1392
H2 H 0.1672 0.3221 0.4456
H3 H 0.2680 0.4362 0.5313
O10 O 0.02037(8) 0.08912(11) 0.44691(13)
H8 H 0.0368 0.1490 0.4698
Co7 Co 0.412515(14) 0.53230(2) 0.45608(2)
Co11 Co 0.5000 0.59888(3) 0.2500
Co8 Co 0.412515(14) 0.46770(2) 0.95608(2)
O13 O 0.13403(8) 0.09434(11) 0.90201(13)
Co5 Co 0.087485(14) 0.96770(2) 0.54392(2)
O12 O 0.07470(8) 0.97968(11) 0.22114(13)
N4 N 0.18364(9) 0.93147(14) 0.10994(16)
O15 O 0.02037(8) 0.91088(11) 0.94691(13)
Co2_2 Co 1.0000 0.09888(3) 0.2500
O5 O 0.97963(8) 0.08912(11) 0.05309(13)
H4 H 0.9632 0.1490 0.0302
Co3 Co 0.912515(14) 0.03230(2) 0.45608(2)
O6 O 0.57470(8) 0.47968(11) 0.22114(13)
O7 O 0.63403(8) 0.40566(11) 0.40201(13)
O8 O 0.85180(8) 0.16098(12) 0.36287(13)
O9 O 0.91735(8) 0.21320(11) 0.22206(14)
N2 N 0.68364(9) 0.43147(14) 0.10994(16)
C8 C 0.68807(11) 0.38994(16) 0.22517(18)
C9 C 0.74471(12) 0.32089(16) 0.28162(19)
C10 C 0.80074(11) 0.29521(16) 0.21901(19)
C11 C 0.79807(12) 0.34119(17) 0.1028(2)
C12 C 0.73862(12) 0.40773(17) 0.0513(2)
C13 C 0.62711(11) 0.42720(15) 0.28949(19)
C14 C 0.86237(11) 0.21640(16) 0.27338(19)
H5 H 0.7469 0.2915 0.3608
H6 H 0.8328 0.3221 0.0544
Co6 Co 0.587485(14) 0.53230(2) 0.04392(2)
Co9 Co 0.587485(14) 0.46770(2) 0.54392(2)
O14 O 0.86597(8) 0.09434(11) 0.59799(13)
O11 O 0.92530(8) 0.97968(11) 0.27886(13)
O16 O 0.97963(8) 0.91088(11) 0.55309(13)
N3 N 0.81636(9) 0.93147(14) 0.39006(16)
Co4 Co 0.912515(14) 0.96770(2) 0.95608(2)
O2_2 O 0.86597(8) 0.90566(11) 0.09799(13)
O3_2 O 0.64820(8) 0.66098(12) 0.13713(13)
O4_2 O 0.58265(8) 0.71320(11) 0.27794(14)
O5_2 O 0.47963(8) 0.58912(11) 0.05309(13)
C1_2 C 0.81193(11) 0.88994(16) 0.27483(18)
C2_2 C 0.75529(12) 0.82089(16) 0.21838(19)
C3_2 C 0.69926(11) 0.79521(16) 0.28099(19)
C4_2 C 0.70193(12) 0.84119(17) 0.3972(2)
C5_2 C 0.76138(12) 0.90773(17) 0.4487(2)
C6_2 C 0.87289(11) 0.92720(15) 0.21051(19)
C7_2 C 0.63763(11) 0.71640(16) 0.22662(19)
H1_2 H 0.7531 0.7915 0.1392
H2_2 H 0.6672 0.8221 0.4456
H3_2 H 0.7680 0.9362 0.5313
H4_2 H 0.4632 0.6490 0.0302
O7_2 O 0.13403(8) 0.90566(11) 0.40201(13)
O8_2 O 0.35180(8) 0.66098(12) 0.36287(13)
O9_2 O 0.41735(8) 0.71320(11) 0.22206(14)
O10_2 O 0.52037(8) 0.58912(11) 0.44691(13)
C8_2 C 0.18807(11) 0.88994(16) 0.22517(18)
C9_2 C 0.24471(12) 0.82089(16) 0.28162(19)
C10_2 C 0.30074(11) 0.79521(16) 0.21901(19)
C11_2 C 0.29807(12) 0.84119(17) 0.1028(2)
C12_2 C 0.23862(12) 0.90773(17) 0.0513(2)
C13_2 C 0.12711(11) 0.92720(15) 0.28949(19)
C14_2 C 0.36237(11) 0.71640(16) 0.27338(19)
H5_2 H 0.2469 0.7915 0.3608
H6_2 H 0.3328 0.8221 0.0544
H8_2 H 0.5368 0.6490 0.4698
O14_2 O 0.36597(8) 0.59434(11) 0.59799(13)
O16_2 O 0.47963(8) 0.41088(11) 0.55309(13)
H7 H 0.2320 0.9362 0.9687
O13_2 O 0.63403(8) 0.59434(11) 0.90201(13)
O15_2 O 0.52037(8) 0.41088(11) 0.94691(13)
O11_2 O 0.07470(8) 0.02032(11) 0.72114(13)
N3_2 N 0.18364(9) 0.06853(14) 0.60994(16)
Co2_3 Co 0.0000 0.90112(3) 0.7500
H4_3 H 0.0368 0.8510 0.9698
O6_2 O 0.42530(8) 0.52032(11) 0.77886(13)
O8_3 O 0.14820(8) 0.83902(12) 0.63713(13)
O9_3 O 0.08265(8) 0.78680(11) 0.77794(14)
N2_2 N 0.31636(9) 0.56853(14) 0.89006(16)
C8_3 C 0.31193(11) 0.61006(16) 0.77483(18)
C9_3 C 0.25529(12) 0.67911(16) 0.71838(19)
C10_3 C 0.19926(11) 0.70479(16) 0.78099(19)
C11_3 C 0.20193(12) 0.65881(17) 0.8972(2)
C12_3 C 0.26138(12) 0.59227(17) 0.9487(2)
C13_3 C 0.37289(11) 0.57280(15) 0.71051(19)
C14_3 C 0.13763(11) 0.78360(16) 0.72662(19)
H5_3 H 0.2531 0.7085 0.6392
H6_3 H 0.1672 0.6779 0.9456
Co10 Co 0.5000 0.40112(3) 0.7500
O12_2 O 0.92530(8) 0.02032(11) 0.77886(13)
N4_2 N 0.81636(9) 0.06853(14) 0.89006(16)
Co2_4 Co 1.0000 0.90112(3) 0.7500
O1_2 O 0.57470(8) 0.52032(11) 0.72114(13)
O3_3 O 0.85180(8) 0.83902(12) 0.86287(13)
O4_3 O 0.91735(8) 0.78680(11) 0.72206(14)
N1_2 N 0.68364(9) 0.56853(14) 0.60994(16)
C1_3 C 0.68807(11) 0.61006(16) 0.72517(18)
C2_3 C 0.74471(12) 0.67911(16) 0.78162(19)
C3_3 C 0.80074(11) 0.70479(16) 0.71901(19)
C4_3 C 0.79807(12) 0.65881(17) 0.6028(2)
C5_3 C 0.73862(12) 0.59227(17) 0.5513(2)
C6_3 C 0.62711(11) 0.57280(15) 0.78949(19)
C7_3 C 0.86237(11) 0.78360(16) 0.77338(19)
H1_3 H 0.7469 0.7085 0.8608
H2_3 H 0.8328 0.6779 0.5544
H3_3 H 0.7320 0.5638 0.4687
H8_3 H 0.9632 0.8510 0.5302
H7_2 H 0.7680 0.0638 0.0313
O3_4 O 0.35180(8) 0.33902(12) 0.86287(13)
O4_4 O 0.41735(8) 0.28680(11) 0.72206(14)
C1_4 C 0.18807(11) 0.11006(16) 0.72517(18)
C2_4 C 0.24471(12) 0.17911(16) 0.78162(19)
C3_4 C 0.30074(11) 0.20479(16) 0.71901(19)
C4_4 C 0.29807(12) 0.15881(17) 0.6028(2)
C5_4 C 0.23862(12) 0.09227(17) 0.5513(2)
C6_4 C 0.12711(11) 0.07280(15) 0.78949(19)
C7_4 C 0.36237(11) 0.28360(16) 0.77338(19)
H1_4 H 0.2469 0.2085 0.8608
H2_4 H 0.3328 0.1779 0.5544
H3_4 H 0.2320 0.0638 0.4687
H4_4 H 0.5368 0.3510 0.9698
O8_4 O 0.64820(8) 0.33902(12) 0.63713(13)
O9_4 O 0.58265(8) 0.28680(11) 0.77794(14)
C8_4 C 0.81193(11) 0.11006(16) 0.77483(18)
C9_4 C 0.75529(12) 0.17911(16) 0.71838(19)
C10_4 C 0.69926(11) 0.20479(16) 0.78099(19)
C11_4 C 0.70193(12) 0.15881(17) 0.8972(2)
C12_4 C 0.76138(12) 0.09227(17) 0.9487(2)
C13_4 C 0.87289(11) 0.07280(15) 0.71051(19)
C14_4 C 0.63763(11) 0.28360(16) 0.72662(19)
H5_4 H 0.7531 0.2085 0.6392
H6_4 H 0.6672 0.1779 0.9456
H8_4 H 0.4632 0.3510 0.5302
H7_3 H 0.7320 0.4362 0.9687
H7_4 H 0.2680 0.5638 0.0313
loop_
_geom_bond_atom_site_label_1
_geom_bond_atom_site_label_2
_geom_bond_site_symmetry_1
_geom_bond_site_symmetry_2
Co1 O3 1_555 1_555
Co2 O4 1_555 1_555
O1 C6 1_555 1_555
O2 C6 1_555 1_555
O3 C7 1_555 1_555
O4 C7 1_555 1_555
N1 C1 1_555 1_555
C1 C2 1_555 1_555
C2 C3 1_555 1_555
C3 C4 1_555 1_555
C4 C5 1_555 1_555
C5 N1 1_555 1_555
C6 C1 1_555 1_555
C7 C3 1_555 1_555
H1 C2 1_555 1_555
H2 C4 1_555 1_555
H3 C5 1_555 1_555
O10 Co2 1_555 1_555
H8 O10 1_555 1_555
Co7 O1 1_555 1_555
Co11 O1 1_555 1_555
N1 Co7 1_555 1_555
H4 O5 1_555 1_555
Co3 O8 1_555 1_555
O6 C13 1_555 1_555
O7 C13 1_555 1_555
O8 C14 1_555 1_555
O9 Co2_2 1_555 1_555
N2 C8 1_555 1_555
C8 C9 1_555 1_555
C9 C10 1_555 1_555
C10 C11 1_555 1_555
C11 C12 1_555 1_555
C12 N2 1_555 1_555
C13 C8 1_555 1_555
C14 O9 1_555 1_555
H5 C9 1_555 1_555
H6 C11 1_555 1_555
Co6 O6 1_555 1_555
Co9 O7 1_555 1_555
Co11 O6 1_555 1_555
O14 Co3 1_555 1_555
Co2_2 O5 1_555 1_555
N2 Co6 1_555 1_555
C10 C14 1_555 1_555
Co6 O3_2 1_555 1_555
Co11 O4_2 1_555 1_555
O11 C6_2 1_555 1_555
O2_2 C6_2 1_555 1_555
O3_2 C7_2 1_555 1_555
O4_2 C7_2 1_555 1_555
O5_2 Co6 1_555 1_555
N3 C1_2 1_555 1_555
C1_2 C2_2 1_555 1_555
C2_2 C3_2 1_555 1_555
C3_2 C4_2 1_555 1_555
C4_2 C5_2 1_555 1_555
C5_2 N3 1_555 1_555
C6_2 C1_2 1_555 1_555
C7_2 C3_2 1_555 1_555
H1_2 C2_2 1_555 1_555
H2_2 C4_2 1_555 1_555
H3_2 C5_2 1_555 1_555
H4_2 O5_2 1_555 1_555
Co7 O8_2 1_555 1_555
O12 C13_2 1_555 1_555
O7_2 C13_2 1_555 1_555
O8_2 C14_2 1_555 1_555
O9_2 Co11 1_555 1_555
O10_2 Co11 1_555 1_555
N4 C8_2 1_555 1_555
C8_2 C9_2 1_555 1_555
C9_2 C10_2 1_555 1_555
C10_2 C11_2 1_555 1_555
C11_2 C12_2 1_555 1_555
C12_2 N4 1_555 1_555
C13_2 C8_2 1_555 1_555
C14_2 O9_2 1_555 1_555
H5_2 C9_2 1_555 1_555
H6_2 C11_2 1_555 1_555
H8_2 O10_2 1_555 1_555
Co9 O10_2 1_555 1_555
Co5 O7_2 1_555 1_555
O14_2 Co7 1_555 1_555
O16_2 Co7 1_555 1_555
Co11 O5_2 1_555 1_555
Co7 O10_2 1_555 1_555
C10_2 C14_2 1_555 1_555
Co9 O16_2 1_555 1_555
Co8 O15_2 1_555 1_555
H4_3 O15 1_555 1_555
Co5 O8_3 1_555 1_555
O6_2 C13_3 1_555 1_555
O14_2 C13_3 1_555 1_555
O8_3 C14_3 1_555 1_555
O9_3 Co2_3 1_555 1_555
N2_2 C8_3 1_555 1_555
C8_3 C9_3 1_555 1_555
C9_3 C10_3 1_555 1_555
C10_3 C11_3 1_555 1_555
C11_3 C12_3 1_555 1_555
C12_3 N2_2 1_555 1_555
C13_3 C8_3 1_555 1_555
C14_3 O9_3 1_555 1_555
H5_3 C9_3 1_555 1_555
H6_3 C11_3 1_555 1_555
Co8 O6_2 1_555 1_555
Co10 O6_2 1_555 1_555
Co2_3 O15 1_555 1_555
N2_2 Co8 1_555 1_555
C10_3 C14_3 1_555 1_555
Co4 O3_3 1_555 1_555
Co2_4 O4_3 1_555 1_555
O1_2 C6_3 1_555 1_555
O13_2 C6_3 1_555 1_555
O3_3 C7_3 1_555 1_555
O4_3 C7_3 1_555 1_555
N1_2 C1_3 1_555 1_555
C1_3 C2_3 1_555 1_555
C2_3 C3_3 1_555 1_555
C3_3 C4_3 1_555 1_555
C4_3 C5_3 1_555 1_555
C5_3 N1_2 1_555 1_555
C6_3 C1_3 1_555 1_555
C7_3 C3_3 1_555 1_555
H1_3 C2_3 1_555 1_555
H2_3 C4_3 1_555 1_555
H3_3 C5_3 1_555 1_555
O16 Co2_4 1_555 1_555
H8_3 O16 1_555 1_555
Co9 O1_2 1_555 1_555
Co10 O1_2 1_555 1_555
N1_2 Co9 1_555 1_555
Co8 O3_4 1_555 1_555
Co10 O4_4 1_555 1_555
O11_2 C6_4 1_555 1_555
O13 C6_4 1_555 1_555
O3_4 C7_4 1_555 1_555
O4_4 C7_4 1_555 1_555
N3_2 C1_4 1_555 1_555
C1_4 C2_4 1_555 1_555
C2_4 C3_4 1_555 1_555
C3_4 C4_4 1_555 1_555
C4_4 C5_4 1_555 1_555
C5_4 N3_2 1_555 1_555
C6_4 C1_4 1_555 1_555
C7_4 C3_4 1_555 1_555
H1_4 C2_4 1_555 1_555
H2_4 C4_4 1_555 1_555
H3_4 C5_4 1_555 1_555
H4_4 O15_2 1_555 1_555
Co9 O8_4 1_555 1_555
O12_2 C13_4 1_555 1_555
O14 C13_4 1_555 1_555
O8_4 C14_4 1_555 1_555
O9_4 Co10 1_555 1_555
O16_2 Co10 1_555 1_555
N4_2 C8_4 1_555 1_555
C8_4 C9_4 1_555 1_555
C9_4 C10_4 1_555 1_555
C10_4 C11_4 1_555 1_555
C11_4 C12_4 1_555 1_555
C12_4 N4_2 1_555 1_555
C13_4 C8_4 1_555 1_555
C14_4 O9_4 1_555 1_555
H5_4 C9_4 1_555 1_555
H6_4 C11_4 1_555 1_555
H8_4 O16_2 1_555 1_555
Co10 O15_2 1_555 1_555
C10_4 C14_4 1_555 1_555

#END
