
###############################################################################
#
# This file contains modified crystal structure data generated from the
# MOF subset of the Cambridge Structural Database (CSD) v543 
# hosted by the Cambridge Crystallographic Data Centre (CCDC).
#
# This work is licensed under the Creative Commons
# Attribution-NonCommercial-ShareAlike 4.0 International License.
# To view a copy of this license, visit
# http://creativecommons.org/licenses/by-nc-sa/4.0/
# or send a letter to
# Creative Commons, PO Box 1866, Mountain View, CA 94042, USA.
#
# CIF created using the CSD Python API on 29 September 2022
# The structure has been converted into the P1 space group
# The structure has a 3D framework
# The original CSD entry NEYROY is in the orthorhombic crystal system
# The framework has been calculated to contain at least 10.0% void space
# The void calculation uses a probe of radius 1.32A, grid spacing 0.4
# The framework is charged, counterions have been retained in the structure
#
###############################################################################

data_NEYROY
_chemical_formula_moiety         '(C128 H64 Ag3 N16 3+)n'
_symmetry_cell_setting           triclinic
_symmetry_space_group_name_H-M   'P 1'
_symmetry_Int_Tables_number      1
_space_group_name_Hall           'P 1'
loop_
_symmetry_equiv_pos_site_id
_symmetry_equiv_pos_as_xyz
1 x,y,z
_cell_length_a                   13.1609(4)
_cell_length_b                   15.9101(2)
_cell_length_c                   14.5790(4)
_cell_angle_alpha                90
_cell_angle_beta                 90
_cell_angle_gamma                90
_cell_volume                     3052.71
loop_
_atom_site_label
_atom_site_type_symbol
_atom_site_fract_x
_atom_site_fract_y
_atom_site_fract_z
Ag1 Ag 0.0000 0.2500 0.2500
C19 C 0.8061(2) 0.6538(2) 0.0706(2)
C20 C 0.7423(2) 0.6287(2) 0.1402(2)
C21 C 0.6537(2) 0.5857(2) 0.1209(2)
C22 C 0.6267(2) 0.5679(2) 0.0305(2)
C24 C 0.5366(2) 0.5205(2) 0.0095(2)
C30 C 0.2205(2) 0.3637(2) 0.0196(2)
C31 C 0.3105(2) 0.4057(2) 0.0403(2)
H7 H 0.3283(20) 0.4137(16) 0.1001(19)
C32 C 0.1540(2) 0.3397(2) 0.0929(2)
N4 N 0.1008(2) 0.3216(2) 0.1515(2)
H11 H 0.6145(21) 0.5678(17) 0.1671(20)
H12 H 0.7611(22) 0.6419(20) 0.1956(23)
H13 H 0.8643(23) 0.6790(18) 0.0821(20)
C25 C 0.4634(2) 0.0205(2) 0.5095(2)
C26 C 0.3733(2) 0.0679(2) 0.5305(2)
C27 C 0.3463(2) 0.0857(2) 0.6209(2)
C28 C 0.2577(2) 0.1287(2) 0.6402(2)
C29 C 0.1939(2) 0.1538(2) 0.5706(2)
C30_2 C 0.2205(2) 0.1363(2) 0.4804(2)
C31_2 C 0.3105(2) 0.0943(2) 0.4597(2)
H7_2 H 0.3283(20) 0.0863(16) 0.3999(19)
C32_2 C 0.1540(2) 0.1603(2) 0.4071(2)
N4_2 N 0.1008(2) 0.1784(2) 0.3485(2)
H8 H 0.1357(23) 0.1790(18) 0.5821(20)
H9 H 0.2389(22) 0.1419(20) 0.6956(23)
H10 H 0.3855(21) 0.0678(17) 0.6671(20)
Ag1_2 Ag 1.0000 0.2500 0.2500
N1 N 0.8992(2) 0.1784(2) 0.1515(2)
C1 C 0.7795(2) 0.1363(2) 0.0196(2)
C6 C 0.6895(2) 0.0943(2) 0.0403(2)
C7 C 0.8460(2) 0.1603(2) 0.0929(2)
H4 H 0.6717(20) 0.0863(16) 0.1001(19)
C14 C 0.2205(2) 0.8637(2) 0.9804(2)
C15 C 0.3105(2) 0.9057(2) 0.9597(2)
H5 H 0.3283(20) 0.9137(16) 0.8999(19)
C16 C 0.1540(2) 0.8397(2) 0.9071(2)
N2 N 0.1008(2) 0.8216(2) 0.8485(2)
Ag2 Ag 0.0000 0.7500 0.7500
N5 N 0.1008(2) 0.6784(2) 0.6515(2)
N1_2 N 0.8992(2) 0.3216(2) 0.3485(2)
C1_2 C 0.7795(2) 0.3637(2) 0.4804(2)
C2 C 0.8061(2) 0.3462(2) 0.5706(2)
C3 C 0.7423(2) 0.3713(2) 0.6402(2)
C4 C 0.6537(2) 0.4143(2) 0.6209(2)
C5 C 0.6267(2) 0.4321(2) 0.5305(2)
C6_2 C 0.6895(2) 0.4057(2) 0.4597(2)
C7_2 C 0.8460(2) 0.3397(2) 0.4071(2)
C8 C 0.5366(2) 0.4795(2) 0.5095(2)
H1 H 0.8643(23) 0.3210(18) 0.5821(20)
H2 H 0.7611(22) 0.3581(20) 0.6956(23)
H3 H 0.6145(21) 0.4322(17) 0.6671(20)
H4_2 H 0.6717(20) 0.4137(16) 0.3999(19)
C9 C 0.4634(2) 0.5205(2) 0.4905(2)
C10 C 0.3733(2) 0.5679(2) 0.4695(2)
C11 C 0.3463(2) 0.5857(2) 0.3791(2)
C12 C 0.2577(2) 0.6287(2) 0.3598(2)
C13 C 0.1939(2) 0.6538(2) 0.4294(2)
C14_2 C 0.2205(2) 0.6363(2) 0.5196(2)
C15_2 C 0.3105(2) 0.5943(2) 0.5403(2)
H5_2 H 0.3283(20) 0.5863(16) 0.6001(19)
C16_2 C 0.1540(2) 0.6603(2) 0.5929(2)
H14 H 0.1357(23) 0.6790(18) 0.4179(20)
H15 H 0.2389(22) 0.6419(20) 0.3044(23)
H16 H 0.3855(21) 0.5678(17) 0.3329(20)
C2_2 C 0.8061(2) 0.1538(2) 0.9294(2)
C3_2 C 0.7423(2) 0.1287(2) 0.8598(2)
C4_2 C 0.6537(2) 0.0857(2) 0.8791(2)
C5_2 C 0.6267(2) 0.0679(2) 0.9695(2)
C8_2 C 0.5366(2) 0.0205(2) 0.9905(2)
H1_2 H 0.8643(23) 0.1790(18) 0.9179(20)
H2_2 H 0.7611(22) 0.1419(20) 0.8044(23)
H3_2 H 0.6145(21) 0.0678(17) 0.8329(20)
C9_2 C 0.4634(2) 0.9795(2) 0.0095(2)
C10_2 C 0.3733(2) 0.9321(2) 0.0305(2)
C11_2 C 0.3463(2) 0.9143(2) 0.1209(2)
C12_2 C 0.2577(2) 0.8713(2) 0.1402(2)
C13_2 C 0.1939(2) 0.8462(2) 0.0706(2)
H14_2 H 0.1357(23) 0.8210(18) 0.0821(20)
H15_2 H 0.2389(22) 0.8581(20) 0.1956(23)
H16_2 H 0.3855(21) 0.9322(17) 0.1671(20)
Ag2_2 Ag 1.0000 0.7500 0.7500
N3 N 0.8992(2) 0.6784(2) 0.8485(2)
C17 C 0.8460(2) 0.6603(2) 0.9071(2)
C18 C 0.7795(2) 0.6363(2) 0.9804(2)
C23 C 0.6895(2) 0.5943(2) 0.9597(2)
H6 H 0.6717(20) 0.5863(16) 0.8999(19)
C25_2 C 0.4634(2) 0.4795(2) 0.9905(2)
C26_2 C 0.3733(2) 0.4321(2) 0.9695(2)
C27_2 C 0.3463(2) 0.4143(2) 0.8791(2)
C28_2 C 0.2577(2) 0.3713(2) 0.8598(2)
C29_2 C 0.1939(2) 0.3462(2) 0.9294(2)
H8_2 H 0.1357(23) 0.3210(18) 0.9179(20)
H9_2 H 0.2389(22) 0.3581(20) 0.8044(23)
H10_2 H 0.3855(21) 0.4322(17) 0.8329(20)
N6 N 0.8992(2) 0.8216(2) 0.6515(2)
C17_2 C 0.8460(2) 0.8397(2) 0.5929(2)
C18_2 C 0.7795(2) 0.8637(2) 0.5196(2)
C19_2 C 0.8061(2) 0.8462(2) 0.4294(2)
C20_2 C 0.7423(2) 0.8713(2) 0.3598(2)
C21_2 C 0.6537(2) 0.9143(2) 0.3791(2)
C22_2 C 0.6267(2) 0.9321(2) 0.4695(2)
C23_2 C 0.6895(2) 0.9057(2) 0.5403(2)
H6_2 H 0.6717(20) 0.9137(16) 0.6001(19)
C24_2 C 0.5366(2) 0.9795(2) 0.4905(2)
H11_2 H 0.6145(21) 0.9322(17) 0.3329(20)
H12_2 H 0.7611(22) 0.8581(20) 0.3044(23)
H13_2 H 0.8643(23) 0.8210(18) 0.4179(20)
Ag1_3 Ag 0.5000 0.7500 0.2500
N1_3 N 0.3992(2) 0.8216(2) 0.3485(2)
C1_3 C 0.2795(2) 0.8637(2) 0.4804(2)
C2_3 C 0.3061(2) 0.8462(2) 0.5706(2)
C3_3 C 0.2423(2) 0.8713(2) 0.6402(2)
C4_3 C 0.1537(2) 0.9143(2) 0.6209(2)
C5_3 C 0.1267(2) 0.9321(2) 0.5305(2)
C6_3 C 0.1895(2) 0.9057(2) 0.4597(2)
C7_3 C 0.3460(2) 0.8397(2) 0.4071(2)
C8_3 C 0.0366(2) 0.9795(2) 0.5095(2)
H1_3 H 0.3643(23) 0.8210(18) 0.5821(20)
H2_3 H 0.2611(22) 0.8581(20) 0.6956(23)
H3_3 H 0.1145(21) 0.9322(17) 0.6671(20)
H4_3 H 0.1717(20) 0.9137(16) 0.3999(19)
C25_3 C 0.9634(2) 0.5205(2) 0.5095(2)
C26_3 C 0.8733(2) 0.5679(2) 0.5305(2)
C27_3 C 0.8463(2) 0.5857(2) 0.6209(2)
C28_3 C 0.7577(2) 0.6287(2) 0.6402(2)
C29_3 C 0.6939(2) 0.6538(2) 0.5706(2)
C30_3 C 0.7205(2) 0.6363(2) 0.4804(2)
C31_3 C 0.8105(2) 0.5943(2) 0.4597(2)
H7_3 H 0.8283(20) 0.5863(16) 0.3999(19)
C32_3 C 0.6540(2) 0.6603(2) 0.4071(2)
N4_3 N 0.6008(2) 0.6784(2) 0.3485(2)
H8_3 H 0.6357(23) 0.6790(18) 0.5821(20)
H9_3 H 0.7389(22) 0.6419(20) 0.6956(23)
H10_3 H 0.8855(21) 0.5678(17) 0.6671(20)
N1_4 N 0.3992(2) 0.6784(2) 0.1515(2)
C1_4 C 0.2795(2) 0.6363(2) 0.0196(2)
C6_4 C 0.1895(2) 0.5943(2) 0.0403(2)
C7_4 C 0.3460(2) 0.6603(2) 0.0929(2)
H4_4 H 0.1717(20) 0.5863(16) 0.1001(19)
C30_4 C 0.7205(2) 0.8637(2) 0.0196(2)
C31_4 C 0.8105(2) 0.9057(2) 0.0403(2)
H7_4 H 0.8283(20) 0.9137(16) 0.1001(19)
C32_4 C 0.6540(2) 0.8397(2) 0.0929(2)
N4_4 N 0.6008(2) 0.8216(2) 0.1515(2)
C9_3 C 0.9634(2) 0.0205(2) 0.4905(2)
C10_3 C 0.8733(2) 0.0679(2) 0.4695(2)
C11_3 C 0.8463(2) 0.0857(2) 0.3791(2)
C12_3 C 0.7577(2) 0.1287(2) 0.3598(2)
C13_3 C 0.6939(2) 0.1538(2) 0.4294(2)
C14_3 C 0.7205(2) 0.1363(2) 0.5196(2)
C15_3 C 0.8105(2) 0.0943(2) 0.5403(2)
H5_3 H 0.8283(20) 0.0863(16) 0.6001(19)
C16_3 C 0.6540(2) 0.1603(2) 0.5929(2)
N2_2 N 0.6008(2) 0.1784(2) 0.6515(2)
Ag2_3 Ag 0.5000 0.2500 0.7500
N3_2 N 0.3992(2) 0.3216(2) 0.6515(2)
C17_3 C 0.3460(2) 0.3397(2) 0.5929(2)
C18_3 C 0.2795(2) 0.3637(2) 0.5196(2)
C19_3 C 0.3061(2) 0.3462(2) 0.4294(2)
C20_3 C 0.2423(2) 0.3713(2) 0.3598(2)
C21_3 C 0.1537(2) 0.4143(2) 0.3791(2)
C22_3 C 0.1267(2) 0.4321(2) 0.4695(2)
C23_3 C 0.1895(2) 0.4057(2) 0.5403(2)
H6_3 H 0.1717(20) 0.4137(16) 0.6001(19)
C24_3 C 0.0366(2) 0.4795(2) 0.4905(2)
H11_3 H 0.1145(21) 0.4322(17) 0.3329(20)
H12_3 H 0.2611(22) 0.3581(20) 0.3044(23)
H13_3 H 0.3643(23) 0.3210(18) 0.4179(20)
N5_2 N 0.6008(2) 0.3216(2) 0.8485(2)
N6_2 N 0.3992(2) 0.1784(2) 0.8485(2)
H14_3 H 0.6357(23) 0.1790(18) 0.4179(20)
H15_3 H 0.7389(22) 0.1419(20) 0.3044(23)
H16_3 H 0.8855(21) 0.0678(17) 0.3329(20)
C14_4 C 0.7205(2) 0.3637(2) 0.9804(2)
C15_4 C 0.8105(2) 0.4057(2) 0.9597(2)
H5_4 H 0.8283(20) 0.4137(16) 0.8999(19)
C16_4 C 0.6540(2) 0.3397(2) 0.9071(2)
C17_4 C 0.3460(2) 0.1603(2) 0.9071(2)
C18_4 C 0.2795(2) 0.1363(2) 0.9804(2)
C23_4 C 0.1895(2) 0.0943(2) 0.9597(2)
H6_4 H 0.1717(20) 0.0863(16) 0.8999(19)
C2_4 C 0.3061(2) 0.6538(2) 0.9294(2)
C3_4 C 0.2423(2) 0.6287(2) 0.8598(2)
C4_4 C 0.1537(2) 0.5857(2) 0.8791(2)
C5_4 C 0.1267(2) 0.5679(2) 0.9695(2)
C8_4 C 0.0366(2) 0.5205(2) 0.9905(2)
H1_4 H 0.3643(23) 0.6790(18) 0.9179(20)
H2_4 H 0.2611(22) 0.6419(20) 0.8044(23)
H3_4 H 0.1145(21) 0.5678(17) 0.8329(20)
C25_4 C 0.9634(2) 0.9795(2) 0.9905(2)
C26_4 C 0.8733(2) 0.9321(2) 0.9695(2)
C27_4 C 0.8463(2) 0.9143(2) 0.8791(2)
C28_4 C 0.7577(2) 0.8713(2) 0.8598(2)
C29_4 C 0.6939(2) 0.8462(2) 0.9294(2)
H8_4 H 0.6357(23) 0.8210(18) 0.9179(20)
H9_4 H 0.7389(22) 0.8581(20) 0.8044(23)
H10_4 H 0.8855(21) 0.9322(17) 0.8329(20)
C9_4 C 0.9634(2) 0.4795(2) 0.0095(2)
C10_4 C 0.8733(2) 0.4321(2) 0.0305(2)
C11_4 C 0.8463(2) 0.4143(2) 0.1209(2)
C12_4 C 0.7577(2) 0.3713(2) 0.1402(2)
C13_4 C 0.6939(2) 0.3462(2) 0.0706(2)
C19_4 C 0.3061(2) 0.1538(2) 0.0706(2)
C20_4 C 0.2423(2) 0.1287(2) 0.1402(2)
C21_4 C 0.1537(2) 0.0857(2) 0.1209(2)
C22_4 C 0.1267(2) 0.0679(2) 0.0305(2)
C24_4 C 0.0366(2) 0.0205(2) 0.0095(2)
H11_4 H 0.1145(21) 0.0678(17) 0.1671(20)
H12_4 H 0.2611(22) 0.1419(20) 0.1956(23)
H13_4 H 0.3643(23) 0.1790(18) 0.0821(20)
H14_4 H 0.6357(23) 0.3210(18) 0.0821(20)
H15_4 H 0.7389(22) 0.3581(20) 0.1956(23)
H16_4 H 0.8855(21) 0.4322(17) 0.1671(20)
loop_
_geom_bond_atom_site_label_1
_geom_bond_atom_site_label_2
_geom_bond_site_symmetry_1
_geom_bond_site_symmetry_2
C20 C19 1_555 1_555
C21 C20 1_555 1_555
C22 C21 1_555 1_555
C24 C22 1_555 1_555
H7 C31 1_555 1_555
C32 C30 1_555 1_555
N4 C32 1_555 1_555
Ag1 N4 1_555 1_555
H11 C21 1_555 1_555
H12 C20 1_555 1_555
H13 C19 1_555 1_555
C30 C31 1_555 1_555
C26 C25 1_555 1_555
C27 C26 1_555 1_555
C28 C27 1_555 1_555
C29 C28 1_555 1_555
C30_2 C29 1_555 1_555
C31_2 C26 1_555 1_555
H7_2 C31_2 1_555 1_555
C32_2 C30_2 1_555 1_555
N4_2 C32_2 1_555 1_555
Ag1 N4_2 1_555 1_555
H8 C29 1_555 1_555
H9 C28 1_555 1_555
H10 C27 1_555 1_555
C30_2 C31_2 1_555 1_555
Ag1_2 N1 1_555 1_555
N1 C7 1_555 1_555
C6 C1 1_555 1_555
C7 C1 1_555 1_555
H4 C6 1_555 1_555
H5 C15 1_555 1_555
C16 C14 1_555 1_555
N2 C16 1_555 1_555
Ag2 N2 1_555 1_555
N5 Ag2 1_555 1_555
C14 C15 1_555 1_555
Ag1_2 N1_2 1_555 1_555
N1_2 C7_2 1_555 1_555
C1_2 C2 1_555 1_555
C2 C3 1_555 1_555
C3 C4 1_555 1_555
C4 C5 1_555 1_555
C5 C6_2 1_555 1_555
C6_2 C1_2 1_555 1_555
C7_2 C1_2 1_555 1_555
C8 C5 1_555 1_555
H1 C2 1_555 1_555
H2 C3 1_555 1_555
H3 C4 1_555 1_555
H4_2 C6_2 1_555 1_555
C9 C8 1_555 1_555
C10 C9 1_555 1_555
C11 C10 1_555 1_555
C12 C11 1_555 1_555
C13 C12 1_555 1_555
C14_2 C13 1_555 1_555
C15_2 C10 1_555 1_555
H5_2 C15_2 1_555 1_555
C16_2 C14_2 1_555 1_555
N5 C16_2 1_555 1_555
H14 C13 1_555 1_555
H15 C12 1_555 1_555
H16 C11 1_555 1_555
C14_2 C15_2 1_555 1_555
C2_2 C3_2 1_555 1_555
C3_2 C4_2 1_555 1_555
C4_2 C5_2 1_555 1_555
C8_2 C5_2 1_555 1_555
H1_2 C2_2 1_555 1_555
H2_2 C3_2 1_555 1_555
H3_2 C4_2 1_555 1_555
C10_2 C9_2 1_555 1_555
C11_2 C10_2 1_555 1_555
C12_2 C11_2 1_555 1_555
C13_2 C12_2 1_555 1_555
H14_2 C13_2 1_555 1_555
H15_2 C12_2 1_555 1_555
H16_2 C11_2 1_555 1_555
N3 Ag2_2 1_555 1_555
C17 N3 1_555 1_555
C18 C17 1_555 1_555
C23 C18 1_555 1_555
H6 C23 1_555 1_555
C26_2 C25_2 1_555 1_555
C27_2 C26_2 1_555 1_555
C28_2 C27_2 1_555 1_555
C29_2 C28_2 1_555 1_555
H8_2 C29_2 1_555 1_555
H9_2 C28_2 1_555 1_555
H10_2 C27_2 1_555 1_555
N6 Ag2_2 1_555 1_555
C17_2 N6 1_555 1_555
C18_2 C17_2 1_555 1_555
C19_2 C18_2 1_555 1_555
C20_2 C19_2 1_555 1_555
C21_2 C20_2 1_555 1_555
C22_2 C21_2 1_555 1_555
C23_2 C18_2 1_555 1_555
H6_2 C23_2 1_555 1_555
C24_2 C22_2 1_555 1_555
H11_2 C21_2 1_555 1_555
H12_2 C20_2 1_555 1_555
H13_2 C19_2 1_555 1_555
C22_2 C23_2 1_555 1_555
Ag1_3 N1_3 1_555 1_555
N1_3 C7_3 1_555 1_555
C1_3 C2_3 1_555 1_555
C2_3 C3_3 1_555 1_555
C3_3 C4_3 1_555 1_555
C4_3 C5_3 1_555 1_555
C5_3 C6_3 1_555 1_555
C6_3 C1_3 1_555 1_555
C7_3 C1_3 1_555 1_555
C8_3 C5_3 1_555 1_555
H1_3 C2_3 1_555 1_555
H2_3 C3_3 1_555 1_555
H3_3 C4_3 1_555 1_555
H4_3 C6_3 1_555 1_555
C26_3 C25_3 1_555 1_555
C27_3 C26_3 1_555 1_555
C28_3 C27_3 1_555 1_555
C29_3 C28_3 1_555 1_555
C30_3 C29_3 1_555 1_555
C31_3 C26_3 1_555 1_555
H7_3 C31_3 1_555 1_555
C32_3 C30_3 1_555 1_555
N4_3 C32_3 1_555 1_555
Ag1_3 N4_3 1_555 1_555
H8_3 C29_3 1_555 1_555
H9_3 C28_3 1_555 1_555
H10_3 C27_3 1_555 1_555
C30_3 C31_3 1_555 1_555
Ag1_3 N1_4 1_555 1_555
N1_4 C7_4 1_555 1_555
C6_4 C1_4 1_555 1_555
C7_4 C1_4 1_555 1_555
H4_4 C6_4 1_555 1_555
H7_4 C31_4 1_555 1_555
C32_4 C30_4 1_555 1_555
N4_4 C32_4 1_555 1_555
Ag1_3 N4_4 1_555 1_555
C30_4 C31_4 1_555 1_555
C10_3 C9_3 1_555 1_555
C11_3 C10_3 1_555 1_555
C12_3 C11_3 1_555 1_555
C13_3 C12_3 1_555 1_555
C14_3 C13_3 1_555 1_555
C15_3 C10_3 1_555 1_555
H5_3 C15_3 1_555 1_555
C16_3 C14_3 1_555 1_555
N2_2 C16_3 1_555 1_555
Ag2_3 N2_2 1_555 1_555
N3_2 Ag2_3 1_555 1_555
C17_3 N3_2 1_555 1_555
C18_3 C17_3 1_555 1_555
C19_3 C18_3 1_555 1_555
C20_3 C19_3 1_555 1_555
C21_3 C20_3 1_555 1_555
C22_3 C21_3 1_555 1_555
C23_3 C18_3 1_555 1_555
H6_3 C23_3 1_555 1_555
C24_3 C22_3 1_555 1_555
H11_3 C21_3 1_555 1_555
H12_3 C20_3 1_555 1_555
H13_3 C19_3 1_555 1_555
N5_2 Ag2_3 1_555 1_555
N6_2 Ag2_3 1_555 1_555
H14_3 C13_3 1_555 1_555
H15_3 C12_3 1_555 1_555
H16_3 C11_3 1_555 1_555
C14_3 C15_3 1_555 1_555
C22_3 C23_3 1_555 1_555
H5_4 C15_4 1_555 1_555
C16_4 C14_4 1_555 1_555
N5_2 C16_4 1_555 1_555
C17_4 N6_2 1_555 1_555
C18_4 C17_4 1_555 1_555
C23_4 C18_4 1_555 1_555
H6_4 C23_4 1_555 1_555
C14_4 C15_4 1_555 1_555
C2_4 C3_4 1_555 1_555
C3_4 C4_4 1_555 1_555
C4_4 C5_4 1_555 1_555
C8_4 C5_4 1_555 1_555
H1_4 C2_4 1_555 1_555
H2_4 C3_4 1_555 1_555
H3_4 C4_4 1_555 1_555
C26_4 C25_4 1_555 1_555
C27_4 C26_4 1_555 1_555
C28_4 C27_4 1_555 1_555
C29_4 C28_4 1_555 1_555
H8_4 C29_4 1_555 1_555
H9_4 C28_4 1_555 1_555
H10_4 C27_4 1_555 1_555
C10_4 C9_4 1_555 1_555
C11_4 C10_4 1_555 1_555
C12_4 C11_4 1_555 1_555
C13_4 C12_4 1_555 1_555
C20_4 C19_4 1_555 1_555
C21_4 C20_4 1_555 1_555
C22_4 C21_4 1_555 1_555
C24_4 C22_4 1_555 1_555
H11_4 C21_4 1_555 1_555
H12_4 C20_4 1_555 1_555
H13_4 C19_4 1_555 1_555
H14_4 C13_4 1_555 1_555
H15_4 C12_4 1_555 1_555
H16_4 C11_4 1_555 1_555

#END
