
###############################################################################
#
# This file contains modified crystal structure data generated from the
# MOF subset of the Cambridge Structural Database (CSD) v543 
# hosted by the Cambridge Crystallographic Data Centre (CCDC).
#
# This work is licensed under the Creative Commons
# Attribution-NonCommercial-ShareAlike 4.0 International License.
# To view a copy of this license, visit
# http://creativecommons.org/licenses/by-nc-sa/4.0/
# or send a letter to
# Creative Commons, PO Box 1866, Mountain View, CA 94042, USA.
#
# CIF created using the CSD Python API on 29 September 2022
# The structure has been converted into the P1 space group
# The structure has a 3D framework
# The original CSD entry NEZPOA is in the triclinic crystal system
# The framework has been calculated to contain at least 10.0% void space
# The void calculation uses a probe of radius 1.32A, grid spacing 0.4
# H atom positions have been added when not included in the experimental data
#
###############################################################################

data_NEZPOA
_chemical_formula_moiety         '(C102 H70 N10 O20 Ru6)n'
_symmetry_cell_setting           triclinic
_symmetry_space_group_name_H-M   'P 1'
_symmetry_Int_Tables_number      1
_space_group_name_Hall           'P 1'
loop_
_symmetry_equiv_pos_site_id
_symmetry_equiv_pos_as_xyz
1 x,y,z
_cell_length_a                   8.7321(11)
_cell_length_b                   21.947(3)
_cell_length_c                   22.807(3)
_cell_angle_alpha                90.743(2)
_cell_angle_beta                 93.980(3)
_cell_angle_gamma                92.211(3)
_cell_volume                     4356.49
loop_
_atom_site_label
_atom_site_type_symbol
_atom_site_fract_x
_atom_site_fract_y
_atom_site_fract_z
H4 H 0.0334 0.4108 0.3089
O5 O 0.0273(18) 0.3031(6) 0.2690(7)
C48 C 0.016(3) 0.7171(10) 0.2887(8)
N5 N 0.1720(18) 0.7240(8) 0.2927(8)
C49 C 0.231(3) 0.7766(10) 0.2680(18)
H26 H 0.1482 0.7983 0.2491
H27 H 0.3016 0.7659 0.2396
H28 H 0.2829 0.8019 0.2983
C50 C 0.265(3) 0.6832(14) 0.3236(11)
H29 H 0.2016 0.6511 0.3387
H30 H 0.3222 0.7043 0.3556
H31 H 0.3345 0.6660 0.2977
O11 O 0.043(2) 0.8444(10) 0.8033(10)
Ru9 Ru 0.1404(4) 0.21302(12) 0.25305(14)
H33 H 0.0951799 0.818011 0.832882
H35 H 0.0603615 0.848985 0.674908
Ru2 Ru 0.5772(2) 0.25231(6) 0.25059(5)
O1 O 0.5790(13) 0.1619(5) 0.2497(5)
C26 C 0.3685(8) 0.0189(4) 0.2491(5)
H13 H 0.2686 0.0319 0.2501
C27 C 0.4901(10) 0.0614(2) 0.2467(4)
C28 C 0.6394(9) 0.0419(3) 0.2452(5)
H14 H 0.7207 0.0703 0.2436
C39 C 0.4654(19) 0.1287(7) 0.2448(6)
O8 O 0.3310(18) 0.1414(7) 0.2413(7)
O12 O 0.7955(14) 0.2703(5) 0.2399(4)
O13 O 0.5683(16) 0.2801(4) 0.3313(4)
O15 O 0.495(2) 0.2796(6) 0.1751(5)
Ru1 Ru 0.68571(16) 0.72133(5) 0.25270(5)
C1 C 0.7349(14) 0.5664(5) 0.2544(5)
C2 C 0.6581(18) 0.7172(5) 0.1012(5)
N1 N 0.6205(10) 0.7839(4) 0.3137(4)
C3 C 0.6354(14) 0.7188(5) 0.4013(5)
N2 N 0.6928(11) 0.6543(4) 0.1914(4)
N3 N 0.6244(10) 0.7817(4) 0.1889(4)
N4 N 0.6847(10) 0.6553(4) 0.3152(4)
C4 C 0.7130(10) 0.3958(3) 0.2279(4)
H1 H 0.6486 0.3666 0.2079
C5 C 0.6752(8) 0.4568(3) 0.2271(4)
H2 H 0.5854 0.4683 0.2066
C6 C 0.7715(9) 0.5005(2) 0.2569(4)
C7 C 0.9057(9) 0.4832(3) 0.2876(4)
H3 H 0.9702 0.5125 0.3075
C8 C 0.9436(9) 0.4223(4) 0.2884(4)
C9 C 0.8472(11) 0.3786(3) 0.2585(4)
C10 C 0.5928(13) 0.8421(5) 0.1963(5)
C11 C 0.6161(15) 0.7200(5) 0.4655(5)
C12 C 0.5799(13) 0.8711(5) 0.2495(5)
C13 C 0.6158(13) 0.7740(5) 0.3734(5)
C14 C 0.6522(13) 0.7170(5) 0.0363(3)
C15 C 0.5138(11) 0.7059(6) 0.0033(4)
H5 H 0.4247 0.6967 0.0221
C19 C 0.7854(11) 0.7308(7) 0.0082(4)
H8 H 0.8780 0.7382 0.0303
C20 C 0.7123(14) 0.5949(5) 0.3086(5)
C21 C 0.5826(14) 0.8304(6) 0.3998(6)
H9 H 0.5717 0.8368 0.4397
C22 C 0.5664(16) 0.8697(6) 0.1377(6)
H10 H 0.5422 0.9099 0.1302
C23 C 0.6875(16) 0.6612(5) 0.1303(5)
C24 C 0.720(2) 0.6058(7) 0.1021(7)
H11 H 0.7238 0.5991 0.0618
C25 C 0.3963(8) 0.9569(3) 0.2501(5)
H12 H 0.3150 0.9285 0.2517
C29 C 0.6672(8) 0.9800(3) 0.2462(5)
H15 H 0.7671 0.9670 0.2452
C30 C 0.5457(10) 0.9375(2) 0.2486(4)
C31 C 0.5698(15) 0.8720(6) 0.3597(5)
H16 H 0.5494 0.9128 0.3660
C32 C 0.6790(14) 0.6072(5) 0.4033(5)
H17 H 0.6715 0.6008 0.4433
C33 C 0.5926(13) 0.8439(5) 0.3045(5)
C34 C 0.7247(14) 0.5933(5) 0.2005(5)
C35 C 0.6260(16) 0.7730(6) 0.1286(5)
C36 C 0.580(2) 0.7243(6) 0.5868(5)
C37 C 0.7054(13) 0.5640(5) 0.3638(5)
H18 H 0.7169 0.5226 0.3705
C38 C 0.6645(13) 0.6633(5) 0.3760(5)
C40 C 0.5838(16) 0.8262(5) 0.0979(6)
H19 H 0.5707 0.8301 0.0573
C41 C 0.7434(18) 0.5647(6) 0.1445(6)
H20 H 0.7679 0.5243 0.1387
C42 C 0.717(2) 0.7316(10) 0.5667(7)
H21 H 0.8024 0.7390 0.5931
C43 C 0.738(2) 0.7282(11) 0.5045(7)
H22 H 0.8363 0.7317 0.4913
C44 C 0.463(2) 0.7160(10) 0.5487(8)
H23 H 0.3659 0.7106 0.5625
C45 C 0.477(2) 0.7150(12) 0.4856(7)
H24 H 0.3904 0.7108 0.4597
O2 O 0.9250(12) 0.7429(5) 0.2605(5)
O4 O 0.4317(16) 0.7199(4) 0.6687(4)
O6 O 0.6736(16) 0.7483(7) 0.6836(5)
C46 C 0.559(2) 0.7291(6) 0.6522(6)
C47 C 0.892(2) 0.3106(6) 0.2569(6)
H25 H 0.9770 0.6869 0.3123
Ru3 Ru 0.8596(4) 0.78698(12) 0.74695(14)
O10 O 0.963(3) 0.8256(11) 0.6635(8)
Ru6 Ru 0.4228(2) 0.74769(6) 0.74941(5)
O14 O 0.9727(18) 0.6969(6) 0.7310(7)
O16 O 0.6690(18) 0.8586(7) 0.7587(7)
O17 O 0.769(2) 0.7420(6) 0.8281(5)
H32 H 0.992985 0.877729 0.823689
H34 H 0.889001 0.852921 0.643249
C16 C 0.5085(12) 0.7085(6) 0.9424(4)
H6 H 0.4158 0.7011 0.9203
C17 C 0.6416(14) 0.7223(6) 0.9143(3)
C18 C 0.7801(12) 0.7334(8) 0.9473(4)
H7 H 0.8691 0.7426 0.9285
O7 O 0.505(2) 0.7204(6) 0.8249(5)
C51 C 0.628(3) 0.7225(9) 0.8428(10)
C16_2 C 0.4915(12) 0.2915(6) 0.0576(4)
H6_2 H 0.5842 0.2989 0.0797
C17_2 C 0.3584(14) 0.2777(6) 0.0857(3)
C18_2 C 0.2199(12) 0.2666(8) 0.0527(4)
H7_2 H 0.1309 0.2574 0.0715
C51_2 C 0.372(3) 0.2775(9) 0.1572(10)
O9 O 0.231(2) 0.2580(6) 0.1719(5)
Ru1_2 Ru 0.31429(16) 0.27867(5) 0.74730(5)
C1_2 C 0.2651(14) 0.4336(5) 0.7456(5)
C2_2 C 0.3419(18) 0.2828(5) 0.8988(5)
N1_2 N 0.3795(10) 0.2161(4) 0.6863(4)
C3_2 C 0.3646(14) 0.2812(5) 0.5987(5)
N2_2 N 0.3072(11) 0.3457(4) 0.8086(4)
N3_2 N 0.3756(10) 0.2183(4) 0.8111(4)
N4_2 N 0.3153(10) 0.3447(4) 0.6848(4)
C4_2 C 0.2870(10) 0.6042(3) 0.7721(4)
H1_2 H 0.3514 0.6334 0.7921
C5_2 C 0.3248(8) 0.5432(3) 0.7729(4)
H2_2 H 0.4146 0.5317 0.7934
C6_2 C 0.2285(9) 0.4995(2) 0.7431(4)
C7_2 C 0.0943(9) 0.5168(3) 0.7124(4)
H3_2 H 0.0298 0.4875 0.6925
C8_2 C 0.0564(9) 0.5777(4) 0.7116(4)
C9_2 C 0.1528(11) 0.6214(3) 0.7415(4)
C10_2 C 0.4072(13) 0.1579(5) 0.8037(5)
C11_2 C 0.3839(15) 0.2800(5) 0.5345(5)
C12_2 C 0.4201(13) 0.1289(5) 0.7505(5)
C13_2 C 0.3842(13) 0.2260(5) 0.6266(5)
C14_2 C 0.3478(13) 0.2830(5) 0.9637(3)
C15_2 C 0.4862(11) 0.2941(6) 0.9967(4)
H5_2 H 0.5753 0.3033 0.9779
C19_2 C 0.2146(11) 0.2692(7) 0.9918(4)
H8_2 H 0.1220 0.2618 0.9697
C20_2 C 0.2877(14) 0.4051(5) 0.6914(5)
C21_2 C 0.4174(14) 0.1696(6) 0.6002(6)
H9_2 H 0.4283 0.1632 0.5603
C22_2 C 0.4336(16) 0.1303(6) 0.8623(6)
H10_2 H 0.4578 0.0901 0.8698
C23_2 C 0.3125(16) 0.3388(5) 0.8697(5)
C24_2 C 0.280(2) 0.3942(7) 0.8979(7)
H11_2 H 0.2762 0.4009 0.9382
C25_2 C 0.6037(8) 0.0431(3) 0.7499(5)
H12_2 H 0.6850 0.0715 0.7483
C29_2 C 0.3328(8) 0.0200(3) 0.7538(5)
H15_2 H 0.2329 0.0330 0.7548
C30_2 C 0.4543(10) 0.0625(2) 0.7514(4)
C31_2 C 0.4302(15) 0.1280(6) 0.6403(5)
H16_2 H 0.4506 0.0872 0.6340
C32_2 C 0.3210(14) 0.3928(5) 0.5967(5)
H17_2 H 0.3285 0.3992 0.5567
C33_2 C 0.4074(13) 0.1561(5) 0.6955(5)
C34_2 C 0.2753(14) 0.4067(5) 0.7995(5)
C35_2 C 0.3740(16) 0.2270(6) 0.8714(5)
C36_2 C 0.420(2) 0.2757(6) 0.4132(5)
C37_2 C 0.2946(13) 0.4360(5) 0.6362(5)
H18_2 H 0.2831 0.4774 0.6295
C38_2 C 0.3355(13) 0.3367(5) 0.6240(5)
C40_2 C 0.4162(16) 0.1738(5) 0.9021(6)
H19_2 H 0.4293 0.1699 0.9427
C41_2 C 0.2566(18) 0.4353(6) 0.8555(6)
H20_2 H 0.2321 0.4757 0.8613
C42_2 C 0.283(2) 0.2684(10) 0.4333(7)
H21_2 H 0.1976 0.2610 0.4069
C43_2 C 0.262(2) 0.2718(11) 0.4955(7)
H22_2 H 0.1637 0.2683 0.5087
C44_2 C 0.537(2) 0.2840(10) 0.4513(8)
H23_2 H 0.6341 0.2894 0.4375
C45_2 C 0.523(2) 0.2850(12) 0.5144(7)
H24_2 H 0.6096 0.2892 0.5403
O2_2 O 0.0750(12) 0.2571(5) 0.7395(5)
O3 O 0.2045(14) 0.7297(5) 0.7601(4)
O6_2 O 0.3264(16) 0.2517(7) 0.3164(5)
C46_2 C 0.441(2) 0.2709(6) 0.3478(6)
C47_2 C 0.108(2) 0.6894(6) 0.7431(6)
H25_2 H 0.0230 0.3131 0.6877
O10_2 O 0.037(3) 0.1744(11) 0.3365(8)
H32_2 H 0.00701472 0.122271 0.176311
H34_2 H 0.110999 0.147079 0.356751
O1_2 O 0.4210(13) 0.8381(5) 0.7503(5)
C26_2 C 0.6315(8) 0.9811(4) 0.7509(5)
H13_2 H 0.7314 0.9681 0.7499
C27_2 C 0.5099(10) 0.9386(2) 0.7533(4)
C28_2 C 0.3606(9) 0.9581(3) 0.7548(5)
H14_2 H 0.2793 0.9297 0.7564
C39_2 C 0.5346(19) 0.8713(7) 0.7552(6)
H4_2 H 0.9666 0.5892 0.6911
C48_2 C 0.984(3) 0.2829(10) 0.7113(8)
N5_2 N 0.8280(18) 0.2760(8) 0.7073(8)
C49_2 C 0.769(3) 0.2234(10) 0.7320(18)
H26_2 H 0.8518 0.2017 0.7509
H27_2 H 0.6984 0.2341 0.7604
H28_2 H 0.7171 0.1981 0.7017
C50_2 C 0.735(3) 0.3168(14) 0.6764(11)
H29_2 H 0.7984 0.3489 0.6613
H30_2 H 0.6778 0.2957 0.6444
H31_2 H 0.6655 0.3340 0.7023
O11_2 O 0.957(2) 0.1556(10) 0.1967(10)
H33_2 H 0.90482 0.181989 0.167118
H35_2 H 0.939638 0.151015 0.325092
loop_
_geom_bond_atom_site_label_1
_geom_bond_atom_site_label_2
_geom_bond_site_symmetry_1
_geom_bond_site_symmetry_2
N5 C48 1_555 1_555
C49 N5 1_555 1_555
H26 C49 1_555 1_555
H27 C49 1_555 1_555
H28 C49 1_555 1_555
C50 N5 1_555 1_555
H29 C50 1_555 1_555
H30 C50 1_555 1_555
H31 C50 1_555 1_555
Ru9 O5 1_555 1_555
O11 H33 1_555 1_555
Ru2 O1 1_555 1_555
O1 C39 1_555 1_555
H13 C26 1_555 1_555
C27 C26 1_555 1_555
C28 C27 1_555 1_555
H14 C28 1_555 1_555
C39 C27 1_555 1_555
O8 C39 1_555 1_555
O12 Ru2 1_555 1_555
O13 Ru2 1_555 1_555
Ru9 O8 1_555 1_555
O15 Ru2 1_555 1_555
Ru1 N1 1_555 1_555
C1 C6 1_555 1_555
C2 C14 1_555 1_555
N1 C13 1_555 1_555
C3 C11 1_555 1_555
N2 Ru1 1_555 1_555
N3 Ru1 1_555 1_555
N4 Ru1 1_555 1_555
C4 H1 1_555 1_555
C5 C4 1_555 1_555
H2 C5 1_555 1_555
C6 C5 1_555 1_555
C7 C6 1_555 1_555
H3 C7 1_555 1_555
C8 C7 1_555 1_555
C9 C4 1_555 1_555
C10 N3 1_555 1_555
C11 C43 1_555 1_555
C12 C10 1_555 1_555
C13 C3 1_555 1_555
C14 C15 1_555 1_555
C15 H5 1_555 1_555
C19 C14 1_555 1_555
H8 C19 1_555 1_555
C20 C1 1_555 1_555
C21 C13 1_555 1_555
H9 C21 1_555 1_555
C22 C10 1_555 1_555
H10 C22 1_555 1_555
C23 C2 1_555 1_555
C24 C23 1_555 1_555
H11 C24 1_555 1_555
C25 H12 1_555 1_555
H15 C29 1_555 1_555
C30 C12 1_555 1_555
C31 C21 1_555 1_555
H16 C31 1_555 1_555
C32 H17 1_555 1_555
C33 N1 1_555 1_555
C34 C1 1_555 1_555
C35 C2 1_555 1_555
C36 C42 1_555 1_555
C37 C20 1_555 1_555
H18 C37 1_555 1_555
C38 C3 1_555 1_555
C40 C22 1_555 1_555
H19 C40 1_555 1_555
C41 C24 1_555 1_555
H20 C41 1_555 1_555
C42 H21 1_555 1_555
C43 C42 1_555 1_555
H22 C43 1_555 1_555
C44 C36 1_555 1_555
H23 C44 1_555 1_555
C45 C11 1_555 1_555
H24 C45 1_555 1_555
O2 Ru1 1_555 1_555
O12 C47 1_555 1_555
O4 C46 1_555 1_555
O6 C46 1_555 1_555
C46 C36 1_555 1_555
C47 C9 1_555 1_555
Ru3 O6 1_555 1_555
O10 Ru3 1_555 1_555
Ru6 O4 1_555 1_555
O14 Ru3 1_555 1_555
O16 Ru3 1_555 1_555
O17 Ru3 1_555 1_555
N2 C23 1_555 1_555
N2 C34 1_555 1_555
N3 C35 1_555 1_555
N4 C20 1_555 1_555
N4 C38 1_555 1_555
C8 C9 1_555 1_555
C12 C33 1_555 1_555
C25 C30 1_555 1_555
C29 C30 1_555 1_555
C31 C33 1_555 1_555
C32 C37 1_555 1_555
C32 C38 1_555 1_555
C34 C41 1_555 1_555
C35 C40 1_555 1_555
C44 C45 1_555 1_555
O10 H34 1_555 1_555
H6 C16 1_555 1_555
C17 C16 1_555 1_555
C18 C17 1_555 1_555
H7 C18 1_555 1_555
O7 C51 1_555 1_555
C51 C17 1_555 1_555
O17 C51 1_555 1_555
Ru6 O7 1_555 1_555
H6_2 C16_2 1_555 1_555
C17_2 C16_2 1_555 1_555
C18_2 C17_2 1_555 1_555
H7_2 C18_2 1_555 1_555
O15 C51_2 1_555 1_555
C51_2 C17_2 1_555 1_555
O9 C51_2 1_555 1_555
Ru9 O9 1_555 1_555
Ru1_2 N1_2 1_555 1_555
C1_2 C6_2 1_555 1_555
C2_2 C14_2 1_555 1_555
N1_2 C13_2 1_555 1_555
C3_2 C11_2 1_555 1_555
N2_2 Ru1_2 1_555 1_555
N3_2 Ru1_2 1_555 1_555
N4_2 Ru1_2 1_555 1_555
C4_2 H1_2 1_555 1_555
C5_2 C4_2 1_555 1_555
H2_2 C5_2 1_555 1_555
C6_2 C5_2 1_555 1_555
C7_2 C6_2 1_555 1_555
H3_2 C7_2 1_555 1_555
C8_2 C7_2 1_555 1_555
C9_2 C4_2 1_555 1_555
C10_2 N3_2 1_555 1_555
C11_2 C43_2 1_555 1_555
C12_2 C10_2 1_555 1_555
C13_2 C3_2 1_555 1_555
C14_2 C15_2 1_555 1_555
C15_2 H5_2 1_555 1_555
C19_2 C14_2 1_555 1_555
H8_2 C19_2 1_555 1_555
C20_2 C1_2 1_555 1_555
C21_2 C13_2 1_555 1_555
H9_2 C21_2 1_555 1_555
C22_2 C10_2 1_555 1_555
H10_2 C22_2 1_555 1_555
C23_2 C2_2 1_555 1_555
C24_2 C23_2 1_555 1_555
H11_2 C24_2 1_555 1_555
C25_2 H12_2 1_555 1_555
H15_2 C29_2 1_555 1_555
C30_2 C12_2 1_555 1_555
C31_2 C21_2 1_555 1_555
H16_2 C31_2 1_555 1_555
C32_2 H17_2 1_555 1_555
C33_2 N1_2 1_555 1_555
C34_2 C1_2 1_555 1_555
C35_2 C2_2 1_555 1_555
C36_2 C42_2 1_555 1_555
C37_2 C20_2 1_555 1_555
H18_2 C37_2 1_555 1_555
C38_2 C3_2 1_555 1_555
C40_2 C22_2 1_555 1_555
H19_2 C40_2 1_555 1_555
C41_2 C24_2 1_555 1_555
H20_2 C41_2 1_555 1_555
C42_2 H21_2 1_555 1_555
C43_2 C42_2 1_555 1_555
H22_2 C43_2 1_555 1_555
C44_2 C36_2 1_555 1_555
H23_2 C44_2 1_555 1_555
C45_2 C11_2 1_555 1_555
H24_2 C45_2 1_555 1_555
O2_2 Ru1_2 1_555 1_555
O3 C47_2 1_555 1_555
O13 C46_2 1_555 1_555
O6_2 C46_2 1_555 1_555
C46_2 C36_2 1_555 1_555
C47_2 C9_2 1_555 1_555
Ru9 O6_2 1_555 1_555
O10_2 Ru9 1_555 1_555
Ru6 O3 1_555 1_555
N2_2 C23_2 1_555 1_555
N2_2 C34_2 1_555 1_555
N3_2 C35_2 1_555 1_555
N4_2 C20_2 1_555 1_555
N4_2 C38_2 1_555 1_555
C8_2 C9_2 1_555 1_555
C12_2 C33_2 1_555 1_555
C25_2 C30_2 1_555 1_555
C29_2 C30_2 1_555 1_555
C31_2 C33_2 1_555 1_555
C32_2 C37_2 1_555 1_555
C32_2 C38_2 1_555 1_555
C34_2 C41_2 1_555 1_555
C35_2 C40_2 1_555 1_555
C44_2 C45_2 1_555 1_555
O10_2 H34_2 1_555 1_555
Ru6 O1_2 1_555 1_555
O1_2 C39_2 1_555 1_555
H13_2 C26_2 1_555 1_555
C27_2 C26_2 1_555 1_555
C28_2 C27_2 1_555 1_555
H14_2 C28_2 1_555 1_555
C39_2 C27_2 1_555 1_555
O16 C39_2 1_555 1_555
N5_2 C48_2 1_555 1_555
C49_2 N5_2 1_555 1_555
H26_2 C49_2 1_555 1_555
H27_2 C49_2 1_555 1_555
H28_2 C49_2 1_555 1_555
C50_2 N5_2 1_555 1_555
H29_2 C50_2 1_555 1_555
H30_2 C50_2 1_555 1_555
H31_2 C50_2 1_555 1_555
O11_2 H33_2 1_555 1_555

#END
