
###############################################################################
#
# This file contains modified crystal structure data generated from the
# MOF subset of the Cambridge Structural Database (CSD) v543 
# hosted by the Cambridge Crystallographic Data Centre (CCDC).
#
# This work is licensed under the Creative Commons
# Attribution-NonCommercial-ShareAlike 4.0 International License.
# To view a copy of this license, visit
# http://creativecommons.org/licenses/by-nc-sa/4.0/
# or send a letter to
# Creative Commons, PO Box 1866, Mountain View, CA 94042, USA.
#
# CIF created using the CSD Python API on 29 September 2022
# The structure has been converted into the P1 space group
# The structure has a 3D framework
# The original CSD entry NICZAA01 is in the rhombohedral crystal system
# The framework has been calculated to contain at least 10.0% void space
# The void calculation uses a probe of radius 1.32A, grid spacing 0.4
# The framework is charged, counterions have been retained in the structure
#
###############################################################################

data_NICZAA01
_chemical_formula_moiety         '(C90 H90 Cd4 F12 N36 4-)n'
_symmetry_cell_setting           triclinic
_symmetry_space_group_name_H-M   'P 1'
_symmetry_Int_Tables_number      1
_space_group_name_Hall           'P 1'
loop_
_symmetry_equiv_pos_site_id
_symmetry_equiv_pos_as_xyz
1 x,y,z
_cell_length_a                   11.989(2)
_cell_length_b                   11.989(2)
_cell_length_c                   25.362(5)
_cell_angle_alpha                90
_cell_angle_beta                 90
_cell_angle_gamma                120.00
_cell_volume                     3157.04
loop_
_atom_site_label
_atom_site_type_symbol
_atom_site_fract_x
_atom_site_fract_y
_atom_site_fract_z
Cd5 Cd -0.0000 0.0000 0.0000
Cd5_2 Cd -0.0000 -0.0000 1.0000
Cd5_3 Cd -0.0000 1.0000 0.0000
Cd5_4 Cd -0.0000 1.0000 1.0000
N1 N 0.0946(2) 0.1893(4) 0.05083(13)
Cd5_5 Cd 1.0000 0.0000 0.0000
C23 C 0.5616(4) 0.1233(2) 0.2313(2)
N12 N 0.5721(2) 0.1440(4) 0.28250(13)
C24 C 0.5123(6) 0.0247(3) 0.3042(2)
H20 H 0.5039(6) 0.0078(3) 0.3402(2)
Cd6 Cd 0.6667 0.3333 0.3333
H22 H 0.5942(2) 0.1884(4) 0.2061(2)
Cd5_6 Cd 1.0000 -0.0000 1.0000
N15 N 0.1893(4) 0.0946(2) 0.94917(13)
N2 N 0.0010(2) 0.5004(4) 0.21986(13)
H1 H 0.0725(2) 0.1449(4) 0.1272(2)
C3 C 0.0650(3) 0.5325(5) 0.2665(2)
H3 H 0.1539(3) 0.5769(5) 0.2712(2)
C4 C 0.0547(2) 0.5273(5) 0.1660(2)
H4 H 0.0243(2) 0.5775(5) 0.1472(2)
H5 H 0.0243(2) 0.4466(5) 0.1472(2)
C5 C 0.1997(2) 0.5998(4) 0.16648(14)
C6 C 0.2665(4) 0.5330(2) 0.16685(14)
C7 C 0.1940(5) 0.3880(2) 0.1673(2)
N5 N 0.1671(4) 0.3343(2) 0.11347(13)
C8 C 0.1050(4) 0.2100(2) 0.1020(2)
C9 C 0.1543(5) 0.3086(3) 0.0291(2)
C10 C 0.1992(5) 0.3983(3) 0.0668(2)
H7 H 0.2436(5) 0.4872(3) 0.0621(2)
H8 H 0.2442(5) 0.3576(2) 0.1861(2)
H9 H 0.1133(5) 0.3576(2) 0.1861(2)
C11 C 0.4002(4) 0.5999(4) 0.16648(14)
C12 C 0.4727(5) 0.5274(5) 0.1660(2)
N7 N 0.4996(4) 0.5006(4) 0.21986(13)
C13 C 0.5617(4) 0.4384(4) 0.2313(2)
N8 N 0.5720(4) 0.4279(2) 0.28250(13)
C14 C 0.5124(5) 0.4877(6) 0.3042(2)
H10 H 0.5039(5) 0.4961(6) 0.3402(2)
C15 C 0.4675(5) 0.5325(6) 0.2665(2)
H11 H 0.4231(5) 0.5770(6) 0.2712(2)
H12 H 0.5943(4) 0.4058(2) 0.2061(2)
H13 H 0.5532(5) 0.5775(5) 0.1472(2)
H14 H 0.4223(5) 0.4466(5) 0.1472(2)
C16 C 0.4670(2) 0.7335(4) 0.16685(14)
C17 C 0.6120(2) 0.8060(5) 0.1673(2)
N9 N 0.6657(2) 0.8329(4) 0.11347(13)
C18 C 0.7900(2) 0.8950(4) 0.1020(2)
N10 N 0.8107(4) 0.9053(4) 0.05083(13)
C19 C 0.6914(3) 0.8457(5) 0.0291(2)
C20 C 0.6017(3) 0.8008(5) 0.0668(2)
H16 H 0.5128(3) 0.7564(5) 0.0621(2)
Cd5_7 Cd 1.0000 1.0000 0.0000
H17 H 0.8551(4) 0.9276(4) 0.1272(2)
H18 H 0.6424(2) 0.8865(5) 0.1861(2)
H19 H 0.6424(2) 0.7556(5) 0.1861(2)
C21 C 0.4001(4) 0.8003(2) 0.16648(14)
C22 C 0.4726(5) 0.9453(2) 0.1660(2)
N11 N 0.4994(4) 0.9990(2) 0.21986(13)
C25 C 0.4675(6) 0.9350(3) 0.2665(2)
H21 H 0.4230(6) 0.8461(3) 0.2712(2)
H23 H 0.4225(5) 0.9757(2) 0.1472(2)
H24 H 0.5534(5) 0.9757(2) 0.1472(2)
C26 C 0.2665(4) 0.7334(4) 0.16685(14)
N13 N 0.0947(4) 0.9054(2) 0.05083(13)
C27 C 0.1050(4) 0.8949(4) 0.1020(2)
N14 N 0.1671(4) 0.8327(4) 0.11347(13)
C28 C 0.1992(5) 0.8008(6) 0.0668(2)
C29 C 0.1543(5) 0.8456(6) 0.0291(2)
H27 H 0.2436(5) 0.7563(6) 0.0621(2)
C30 C 0.1940(5) 0.8059(5) 0.1673(2)
H28 H 0.1135(5) 0.7558(5) 0.1861(2)
H29 H 0.2444(5) 0.8867(5) 0.1861(2)
H30 H 0.0724(4) 0.9275(2) 0.1272(2)
H6 H 0.1628(5) 0.3255(3) 0.9931(2)
H15 H 0.6745(3) 0.8372(5) 0.9931(2)
Cd5_8 Cd 1.0000 1.0000 1.0000
H26 H 0.1628(5) 0.8372(6) 0.9931(2)
N17 N 0.9053(4) 0.0946(2) 0.94917(13)
C1 C 0.8767(2) 0.4383(4) 0.2313(2)
C2 C 0.9753(3) 0.4876(5) 0.3042(2)
H2 H 0.9922(3) 0.4961(5) 0.3402(2)
N4 N 0.8560(4) 0.4279(2) 0.28250(13)
H25 H 0.8116(4) 0.4058(2) 0.2061(2)
N16 N 0.9054(2) 0.8107(4) 0.94917(13)
C23_2 C 0.1233(2) 0.5616(4) 0.7687(2)
N12_2 N 0.1440(4) 0.5721(2) 0.71750(13)
C24_2 C 0.0247(3) 0.5123(6) 0.6958(2)
H20_2 H 0.0078(3) 0.5039(6) 0.6598(2)
Cd6_2 Cd 0.3333 0.6667 0.6667
H22_2 H 0.1884(4) 0.5942(2) 0.7939(2)
H6_2 H 0.3255(3) 0.1628(5) 0.0069(2)
H15_2 H 0.8372(5) 0.6745(3) 0.0069(2)
H26_2 H 0.8372(6) 0.1628(5) 0.0069(2)
N2_2 N 0.5004(4) 0.0010(2) 0.78014(13)
H1_2 H 0.1449(4) 0.0725(2) 0.8728(2)
C3_2 C 0.5325(5) 0.0650(3) 0.7335(2)
H3_2 H 0.5769(5) 0.1539(3) 0.7288(2)
C4_2 C 0.5273(5) 0.0547(2) 0.8340(2)
H4_2 H 0.5775(5) 0.0243(2) 0.8528(2)
H5_2 H 0.4466(5) 0.0243(2) 0.8528(2)
C5_2 C 0.5998(4) 0.1997(2) 0.83352(14)
C6_2 C 0.5330(2) 0.2665(4) 0.83315(14)
C7_2 C 0.3880(2) 0.1940(5) 0.8327(2)
N5_2 N 0.3343(2) 0.1671(4) 0.88653(13)
C8_2 C 0.2100(2) 0.1050(4) 0.8980(2)
C9_2 C 0.3086(3) 0.1543(5) 0.9709(2)
C10_2 C 0.3983(3) 0.1992(5) 0.9332(2)
H7_2 H 0.4872(3) 0.2436(5) 0.9379(2)
H8_2 H 0.3576(2) 0.2442(5) 0.8139(2)
H9_2 H 0.3576(2) 0.1133(5) 0.8139(2)
C11_2 C 0.5999(4) 0.4002(4) 0.83352(14)
C12_2 C 0.5274(5) 0.4727(5) 0.8340(2)
N7_2 N 0.5006(4) 0.4996(4) 0.78014(13)
C13_2 C 0.4384(4) 0.5617(4) 0.7687(2)
N8_2 N 0.4279(2) 0.5720(4) 0.71750(13)
C14_2 C 0.4877(6) 0.5124(5) 0.6958(2)
H10_2 H 0.4961(6) 0.5039(5) 0.6598(2)
C15_2 C 0.5325(6) 0.4675(5) 0.7335(2)
H11_2 H 0.5770(6) 0.4231(5) 0.7288(2)
H12_2 H 0.4058(2) 0.5943(4) 0.7939(2)
H13_2 H 0.5775(5) 0.5532(5) 0.8528(2)
H14_2 H 0.4466(5) 0.4223(5) 0.8528(2)
C16_2 C 0.7335(4) 0.4670(2) 0.83315(14)
C17_2 C 0.8060(5) 0.6120(2) 0.8327(2)
N9_2 N 0.8329(4) 0.6657(2) 0.88653(13)
C18_2 C 0.8950(4) 0.7900(2) 0.8980(2)
C19_2 C 0.8457(5) 0.6914(3) 0.9709(2)
C20_2 C 0.8008(5) 0.6017(3) 0.9332(2)
H16_2 H 0.7564(5) 0.5128(3) 0.9379(2)
H17_2 H 0.9276(4) 0.8551(4) 0.8728(2)
H18_2 H 0.8865(5) 0.6424(2) 0.8139(2)
H19_2 H 0.7556(5) 0.6424(2) 0.8139(2)
C21_2 C 0.8003(2) 0.4001(4) 0.83352(14)
C22_2 C 0.9453(2) 0.4726(5) 0.8340(2)
N11_2 N 0.9990(2) 0.4994(4) 0.78014(13)
C25_2 C 0.9350(3) 0.4675(6) 0.7335(2)
H21_2 H 0.8461(3) 0.4230(6) 0.7288(2)
H23_2 H 0.9757(2) 0.4225(5) 0.8528(2)
H24_2 H 0.9757(2) 0.5534(5) 0.8528(2)
C26_2 C 0.7334(4) 0.2665(4) 0.83315(14)
C27_2 C 0.8949(4) 0.1050(4) 0.8980(2)
N14_2 N 0.8327(4) 0.1671(4) 0.88653(13)
C28_2 C 0.8008(6) 0.1992(5) 0.9332(2)
C29_2 C 0.8456(6) 0.1543(5) 0.9709(2)
H27_2 H 0.7563(6) 0.2436(5) 0.9379(2)
C30_2 C 0.8059(5) 0.1940(5) 0.8327(2)
H28_2 H 0.7558(5) 0.1135(5) 0.8139(2)
H29_2 H 0.8867(5) 0.2444(5) 0.8139(2)
H30_2 H 0.9275(2) 0.0724(4) 0.8728(2)
C1_2 C 0.4383(4) 0.8767(2) 0.7687(2)
C2_2 C 0.4876(5) 0.9753(3) 0.6958(2)
H2_2 H 0.4961(5) 0.9922(3) 0.6598(2)
N4_2 N 0.4279(2) 0.8560(4) 0.71750(13)
H25_2 H 0.4058(2) 0.8116(4) 0.7939(2)
C16_3 C 0.1336(2) 0.0669(4) 0.50019(14)
C17_3 C 0.2786(2) 0.1394(5) 0.5007(2)
N9_3 N 0.3323(2) 0.1663(4) 0.44681(13)
C18_3 C 0.4566(2) 0.2284(4) 0.4354(2)
N10_2 N 0.4774(4) 0.2386(4) 0.38416(13)
C19_3 C 0.3580(3) 0.1791(5) 0.3625(2)
H15_3 H 0.3411(3) 0.1706(5) 0.3265(2)
C20_3 C 0.2683(3) 0.1342(5) 0.4002(2)
H16_3 H 0.1794(3) 0.0898(5) 0.3955(2)
H17_3 H 0.5218(4) 0.2609(4) 0.4605(2)
H18_3 H 0.3090(2) 0.2199(5) 0.5195(2)
H19_3 H 0.3090(2) 0.0890(5) 0.5195(2)
C21_3 C 0.0668(4) 0.1336(2) 0.49981(14)
C22_3 C 0.1393(5) 0.2786(2) 0.4993(2)
N11_3 N 0.1661(4) 0.3323(2) 0.55319(13)
C23_3 C 0.2283(4) 0.4566(2) 0.5646(2)
N12_3 N 0.2387(2) 0.4774(4) 0.61584(13)
C24_3 C 0.1790(6) 0.3580(3) 0.6375(2)
H20_3 H 0.1706(6) 0.3411(3) 0.6735(2)
C25_3 C 0.1342(6) 0.2683(3) 0.5998(2)
H21_3 H 0.0897(6) 0.1794(3) 0.6045(2)
H22_3 H 0.2608(2) 0.5218(4) 0.5395(2)
H23_3 H 0.0892(5) 0.3090(2) 0.4805(2)
H24_3 H 0.2201(5) 0.3090(2) 0.4805(2)
C11_3 C 0.0669(4) 0.9332(4) 0.49981(14)
C12_3 C 0.1394(5) 0.8607(5) 0.4993(2)
N7_3 N 0.1663(4) 0.8339(4) 0.55319(13)
C13_3 C 0.2284(4) 0.7717(4) 0.5646(2)
N8_3 N 0.2386(4) 0.7613(2) 0.61584(13)
C14_3 C 0.1791(5) 0.8210(6) 0.6375(2)
H10_3 H 0.1706(5) 0.8294(6) 0.6735(2)
C15_3 C 0.1342(5) 0.8658(6) 0.5998(2)
H11_3 H 0.0898(5) 0.9103(6) 0.6045(2)
H12_3 H 0.2609(4) 0.7392(2) 0.5395(2)
H13_3 H 0.2199(5) 0.9108(5) 0.4805(2)
H14_3 H 0.0890(5) 0.7799(5) 0.4805(2)
N1_2 N 0.7613(2) 0.5226(4) 0.38416(13)
C26_3 C 0.9331(4) 0.0668(4) 0.50019(14)
N13_2 N 0.7614(4) 0.2387(2) 0.38416(13)
C27_3 C 0.7716(4) 0.2283(4) 0.4354(2)
N14_3 N 0.8337(4) 0.1661(4) 0.44681(13)
C28_3 C 0.8658(5) 0.1342(6) 0.4002(2)
C29_3 C 0.8209(5) 0.1790(6) 0.3625(2)
H26_3 H 0.8294(5) 0.1706(6) 0.3265(2)
H27_3 H 0.9102(5) 0.0897(6) 0.3955(2)
C30_3 C 0.8606(5) 0.1393(5) 0.5007(2)
H28_3 H 0.7801(5) 0.0892(5) 0.5195(2)
H29_3 H 0.9110(5) 0.2201(5) 0.5195(2)
H30_3 H 0.7391(4) 0.2608(2) 0.4605(2)
N2_3 N 0.6677(2) 0.8337(4) 0.55319(13)
C1_3 C 0.5434(2) 0.7716(4) 0.5646(2)
H1_3 H 0.7392(2) 0.4782(4) 0.4605(2)
C2_3 C 0.6420(3) 0.8209(5) 0.6375(2)
H2_3 H 0.6589(3) 0.8294(5) 0.6735(2)
C3_3 C 0.7317(3) 0.8658(5) 0.5998(2)
H3_3 H 0.8206(3) 0.9102(5) 0.6045(2)
C4_3 C 0.7214(2) 0.8606(5) 0.4993(2)
H4_3 H 0.6910(2) 0.9108(5) 0.4805(2)
H5_3 H 0.6910(2) 0.7799(5) 0.4805(2)
C5_3 C 0.8664(2) 0.9331(4) 0.49981(14)
N4_3 N 0.5226(4) 0.7613(2) 0.61584(13)
C6_3 C 0.9331(4) 0.8664(2) 0.50019(14)
C7_3 C 0.8606(5) 0.7214(2) 0.5007(2)
N5_3 N 0.8337(4) 0.6677(2) 0.44681(13)
C8_3 C 0.7716(4) 0.5434(2) 0.4354(2)
C9_3 C 0.8209(5) 0.6420(3) 0.3625(2)
H6_3 H 0.8294(5) 0.6589(3) 0.3265(2)
C10_3 C 0.8658(5) 0.7317(3) 0.4002(2)
H7_3 H 0.9102(5) 0.8206(3) 0.3955(2)
H8_3 H 0.9108(5) 0.6910(2) 0.5195(2)
H9_3 H 0.7799(5) 0.6910(2) 0.5195(2)
H25_3 H 0.4782(4) 0.7392(2) 0.5395(2)
F1 F 0.6667 0.3333 0.1383(3)
F1_2 F 0.3333 0.6667 0.8617(3)
F1_3 F 0.3334 0.6666 0.4716(3)
F1_4 F -0.0000 0.0000 0.1950(3)
F1_5 F -0.0000 1.0000 0.1950(3)
F1_6 F 1.0000 0.0000 0.1950(3)
F1_7 F 1.0000 1.0000 0.1950(3)
F1_8 F 0.0000 -0.0000 0.8050(3)
F1_9 F 0.0000 1.0000 0.8050(3)
F1_10 F 1.0000 -0.0000 0.8050(3)
F1_11 F 1.0000 1.0000 0.8050(3)
F1_12 F 0.6666 0.3334 0.5284(3)
loop_
_geom_bond_atom_site_label_1
_geom_bond_atom_site_label_2
_geom_bond_site_symmetry_1
_geom_bond_site_symmetry_2
N1 Cd5 1_555 1_555
N12 C23 1_555 1_555
C24 N12 1_555 1_555
H20 C24 1_555 1_555
Cd6 N12 1_555 1_555
H22 C23 1_555 1_555
N15 Cd5_2 1_555 1_555
H1 C8 1_555 1_555
C3 N2 1_555 1_555
H3 C3 1_555 1_555
C4 N2 1_555 1_555
H4 C4 1_555 1_555
H5 C4 1_555 1_555
C5 C4 1_555 1_555
C6 C5 1_555 1_555
C7 C6 1_555 1_555
N5 C7 1_555 1_555
C8 N5 1_555 1_555
N1 C8 1_555 1_555
C9 N1 1_555 1_555
C10 N5 1_555 1_555
H7 C10 1_555 1_555
H8 C7 1_555 1_555
H9 C7 1_555 1_555
C11 C6 1_555 1_555
C12 C11 1_555 1_555
N7 C12 1_555 1_555
C13 N7 1_555 1_555
N8 C13 1_555 1_555
C14 N8 1_555 1_555
H10 C14 1_555 1_555
C15 N7 1_555 1_555
H11 C15 1_555 1_555
Cd6 N8 1_555 1_555
H12 C13 1_555 1_555
H13 C12 1_555 1_555
H14 C12 1_555 1_555
C16 C11 1_555 1_555
C17 C16 1_555 1_555
N9 C17 1_555 1_555
C18 N9 1_555 1_555
N10 C18 1_555 1_555
C19 N10 1_555 1_555
C20 N9 1_555 1_555
H16 C20 1_555 1_555
Cd5_7 N10 1_555 1_555
H17 C18 1_555 1_555
H18 C17 1_555 1_555
H19 C17 1_555 1_555
C21 C16 1_555 1_555
C22 C21 1_555 1_555
N11 C22 1_555 1_555
C25 N11 1_555 1_555
H21 C25 1_555 1_555
H23 C22 1_555 1_555
H24 C22 1_555 1_555
C26 C5 1_555 1_555
N13 Cd5_3 1_555 1_555
C27 N13 1_555 1_555
N14 C27 1_555 1_555
C28 N14 1_555 1_555
C29 N13 1_555 1_555
H27 C28 1_555 1_555
C30 C26 1_555 1_555
H28 C30 1_555 1_555
H29 C30 1_555 1_555
H30 C27 1_555 1_555
C9 C10 1_555 1_555
C14 C15 1_555 1_555
C19 C20 1_555 1_555
C21 C26 1_555 1_555
N14 C30 1_555 1_555
C28 C29 1_555 1_555
N17 Cd5_6 1_555 1_555
C1 N4 1_555 1_555
C2 H2 1_555 1_555
Cd6 N4 1_555 1_555
N4 C2 1_555 1_555
H25 C1 1_555 1_555
N16 Cd5_8 1_555 1_555
N12_2 C23_2 1_555 1_555
C24_2 N12_2 1_555 1_555
H20_2 C24_2 1_555 1_555
Cd6_2 N12_2 1_555 1_555
H22_2 C23_2 1_555 1_555
H1_2 C8_2 1_555 1_555
C3_2 N2_2 1_555 1_555
H3_2 C3_2 1_555 1_555
C4_2 N2_2 1_555 1_555
H4_2 C4_2 1_555 1_555
H5_2 C4_2 1_555 1_555
C5_2 C4_2 1_555 1_555
C6_2 C5_2 1_555 1_555
C7_2 C6_2 1_555 1_555
N5_2 C7_2 1_555 1_555
C8_2 N5_2 1_555 1_555
N15 C8_2 1_555 1_555
C9_2 N15 1_555 1_555
C10_2 N5_2 1_555 1_555
H7_2 C10_2 1_555 1_555
H8_2 C7_2 1_555 1_555
H9_2 C7_2 1_555 1_555
C11_2 C6_2 1_555 1_555
C12_2 C11_2 1_555 1_555
N7_2 C12_2 1_555 1_555
C13_2 N7_2 1_555 1_555
N8_2 C13_2 1_555 1_555
C14_2 N8_2 1_555 1_555
H10_2 C14_2 1_555 1_555
C15_2 N7_2 1_555 1_555
H11_2 C15_2 1_555 1_555
Cd6_2 N8_2 1_555 1_555
H12_2 C13_2 1_555 1_555
H13_2 C12_2 1_555 1_555
H14_2 C12_2 1_555 1_555
C16_2 C11_2 1_555 1_555
C17_2 C16_2 1_555 1_555
N9_2 C17_2 1_555 1_555
C18_2 N9_2 1_555 1_555
N16 C18_2 1_555 1_555
C19_2 N16 1_555 1_555
C20_2 N9_2 1_555 1_555
H16_2 C20_2 1_555 1_555
H17_2 C18_2 1_555 1_555
H18_2 C17_2 1_555 1_555
H19_2 C17_2 1_555 1_555
C21_2 C16_2 1_555 1_555
C22_2 C21_2 1_555 1_555
N11_2 C22_2 1_555 1_555
C25_2 N11_2 1_555 1_555
H21_2 C25_2 1_555 1_555
H23_2 C22_2 1_555 1_555
H24_2 C22_2 1_555 1_555
C26_2 C5_2 1_555 1_555
C27_2 N17 1_555 1_555
N14_2 C27_2 1_555 1_555
C28_2 N14_2 1_555 1_555
C29_2 N17 1_555 1_555
H27_2 C28_2 1_555 1_555
C30_2 C26_2 1_555 1_555
H28_2 C30_2 1_555 1_555
H29_2 C30_2 1_555 1_555
H30_2 C27_2 1_555 1_555
C9_2 C10_2 1_555 1_555
C14_2 C15_2 1_555 1_555
C19_2 C20_2 1_555 1_555
C21_2 C26_2 1_555 1_555
N14_2 C30_2 1_555 1_555
C28_2 C29_2 1_555 1_555
C1_2 N4_2 1_555 1_555
C2_2 H2_2 1_555 1_555
Cd6_2 N4_2 1_555 1_555
N4_2 C2_2 1_555 1_555
H25_2 C1_2 1_555 1_555
C17_3 C16_3 1_555 1_555
N9_3 C17_3 1_555 1_555
C18_3 N9_3 1_555 1_555
N10_2 C18_3 1_555 1_555
C19_3 N10_2 1_555 1_555
H15_3 C19_3 1_555 1_555
C20_3 N9_3 1_555 1_555
H16_3 C20_3 1_555 1_555
Cd6 N10_2 1_555 1_555
H17_3 C18_3 1_555 1_555
H18_3 C17_3 1_555 1_555
H19_3 C17_3 1_555 1_555
C21_3 C16_3 1_555 1_555
C22_3 C21_3 1_555 1_555
N11_3 C22_3 1_555 1_555
C23_3 N11_3 1_555 1_555
N12_3 C23_3 1_555 1_555
C24_3 N12_3 1_555 1_555
H20_3 C24_3 1_555 1_555
C25_3 N11_3 1_555 1_555
H21_3 C25_3 1_555 1_555
Cd6_2 N12_3 1_555 1_555
H22_3 C23_3 1_555 1_555
H23_3 C22_3 1_555 1_555
H24_3 C22_3 1_555 1_555
C19_3 C20_3 1_555 1_555
C24_3 C25_3 1_555 1_555
C12_3 C11_3 1_555 1_555
N7_3 C12_3 1_555 1_555
C13_3 N7_3 1_555 1_555
N8_3 C13_3 1_555 1_555
C14_3 N8_3 1_555 1_555
H10_3 C14_3 1_555 1_555
C15_3 N7_3 1_555 1_555
H11_3 C15_3 1_555 1_555
Cd6_2 N8_3 1_555 1_555
H12_3 C13_3 1_555 1_555
H13_3 C12_3 1_555 1_555
H14_3 C12_3 1_555 1_555
C14_3 C15_3 1_555 1_555
N1_2 Cd6 1_555 1_555
N13_2 Cd6 1_555 1_555
C27_3 N13_2 1_555 1_555
N14_3 C27_3 1_555 1_555
C28_3 N14_3 1_555 1_555
C29_3 N13_2 1_555 1_555
H26_3 C29_3 1_555 1_555
H27_3 C28_3 1_555 1_555
C30_3 C26_3 1_555 1_555
H28_3 C30_3 1_555 1_555
H29_3 C30_3 1_555 1_555
H30_3 C27_3 1_555 1_555
N14_3 C30_3 1_555 1_555
C28_3 C29_3 1_555 1_555
N2_3 C1_3 1_555 1_555
C1_3 N4_3 1_555 1_555
H1_3 C8_3 1_555 1_555
C2_3 H2_3 1_555 1_555
C3_3 N2_3 1_555 1_555
H3_3 C3_3 1_555 1_555
C4_3 N2_3 1_555 1_555
H4_3 C4_3 1_555 1_555
H5_3 C4_3 1_555 1_555
C5_3 C4_3 1_555 1_555
Cd6_2 N4_3 1_555 1_555
N4_3 C2_3 1_555 1_555
C6_3 C5_3 1_555 1_555
C7_3 C6_3 1_555 1_555
N5_3 C7_3 1_555 1_555
C8_3 N5_3 1_555 1_555
N1_2 C8_3 1_555 1_555
C9_3 N1_2 1_555 1_555
H6_3 C9_3 1_555 1_555
C10_3 N5_3 1_555 1_555
H7_3 C10_3 1_555 1_555
H8_3 C7_3 1_555 1_555
H9_3 C7_3 1_555 1_555
H25_3 C1_3 1_555 1_555
C2_3 C3_3 1_555 1_555
C9_3 C10_3 1_555 1_555

#END
