
###############################################################################
#
# This file contains modified crystal structure data generated from the
# MOF subset of the Cambridge Structural Database (CSD) v543 
# hosted by the Cambridge Crystallographic Data Centre (CCDC).
#
# This work is licensed under the Creative Commons
# Attribution-NonCommercial-ShareAlike 4.0 International License.
# To view a copy of this license, visit
# http://creativecommons.org/licenses/by-nc-sa/4.0/
# or send a letter to
# Creative Commons, PO Box 1866, Mountain View, CA 94042, USA.
#
# CIF created using the CSD Python API on 29 September 2022
# The structure has been converted into the P1 space group
# The structure has a 3D framework
# The original CSD entry NIFPIE is in the cubic crystal system
# The framework has been calculated to contain at least 10.0% void space
# The void calculation uses a probe of radius 1.32A, grid spacing 0.4
#
###############################################################################

data_NIFPIE
_chemical_formula_moiety         '(C96 H120 N48 Zn18)n'
_symmetry_cell_setting           triclinic
_symmetry_space_group_name_H-M   'P 1'
_symmetry_Int_Tables_number      1
_space_group_name_Hall           'P 1'
loop_
_symmetry_equiv_pos_site_id
_symmetry_equiv_pos_as_xyz
1 x,y,z
_cell_length_a                   17.0943(4)
_cell_length_b                   17.0943(4)
_cell_length_c                   17.0943(4)
_cell_angle_alpha                90
_cell_angle_beta                 90
_cell_angle_gamma                90
_cell_volume                     4995.21
loop_
_atom_site_label
_atom_site_type_symbol
_atom_site_fract_x
_atom_site_fract_y
_atom_site_fract_z
Zn1 Zn 0.5000 0.0000 0.7500
C1 C 0.36697(4) 0.0104(9) 0.63303(4)
C3 C 0.36782(4) 0.1001(4) 0.63218(4)
H1 H 0.3175 0.1188 0.6187
H2 H 0.4046 0.1186 0.5954
H4 H 0.3813 0.1188 0.6825
C6 C 0.6075(4) 0.1080(5) 0.6615(4)
N3 N 0.5883(4) 0.0339(5) 0.6798(4)
H8 H 0.5823 0.1513 0.6840
C8 C 0.6615(4) 0.1080(5) 0.6075(4)
N4 N 0.6798(4) 0.0339(5) 0.5883(4)
H10 H 0.6840 0.1513 0.5823
Zn2 Zn 0.2500 0.0000 0.5000
Zn3 Zn 0.7500 0.0000 0.5000
N5 N 0.4661(5) 0.0883(4) 0.8202(4)
Zn1_2 Zn 0.5000 1.0000 0.7500
C2 C 0.3925(4) 0.8920(5) 0.6615(4)
N1 N 0.4117(4) 0.9661(5) 0.6798(4)
H3 H 0.4177 0.8487 0.6840
C4 C 0.3385(4) 0.8920(5) 0.6075(4)
N2 N 0.3202(4) 0.9661(5) 0.5883(4)
H5 H 0.3160 0.8487 0.5823
C5 C 0.63303(4) 0.9896(9) 0.63303(4)
C7 C 0.63218(4) 0.8999(4) 0.63218(4)
H6 H 0.6825 0.8812 0.6187
H7 H 0.5954 0.8814 0.5954
H9 H 0.6187 0.8812 0.6825
Zn2_2 Zn 0.2500 1.0000 0.5000
Zn3_2 Zn 0.7500 1.0000 0.5000
N6 N 0.5339(5) 0.9117(4) 0.8202(4)
Zn1_3 Zn -0.0000 0.5000 0.2500
C5_2 C 0.13303(4) 0.4896(9) 0.13303(4)
C6_2 C 0.1075(4) 0.6080(5) 0.1615(4)
C7_2 C 0.13218(4) 0.3999(4) 0.13218(4)
N3_2 N 0.0883(4) 0.5339(5) 0.1798(4)
H6_2 H 0.1825 0.3812 0.1187
H7_2 H 0.0954 0.3814 0.0954
H8_2 H 0.0823 0.6513 0.1840
C8_2 C 0.1615(4) 0.6080(5) 0.1075(4)
N4_2 N 0.1798(4) 0.5339(5) 0.0883(4)
H9_2 H 0.1187 0.3812 0.1825
H10_2 H 0.1840 0.6513 0.0823
Zn3_3 Zn 0.2500 0.5000 0.0000
N6_2 N 0.0339(5) 0.4117(4) 0.3202(4)
Zn3_4 Zn 0.2500 0.5000 1.0000
Zn1_4 Zn 1.0000 0.5000 0.2500
C1_2 C 0.86697(4) 0.5104(9) 0.13303(4)
C2_2 C 0.8925(4) 0.3920(5) 0.1615(4)
C3_2 C 0.86782(4) 0.6001(4) 0.13218(4)
N1_2 N 0.9117(4) 0.4661(5) 0.1798(4)
H1_2 H 0.8175 0.6188 0.1187
H2_2 H 0.9046 0.6186 0.0954
H3_2 H 0.9177 0.3487 0.1840
C4_2 C 0.8385(4) 0.3920(5) 0.1075(4)
N2_2 N 0.8202(4) 0.4661(5) 0.0883(4)
H4_2 H 0.8813 0.6188 0.1825
H5_2 H 0.8160 0.3487 0.0823
Zn2_3 Zn 0.7500 0.5000 0.0000
N5_2 N 0.9661(5) 0.5883(4) 0.3202(4)
Zn2_4 Zn 0.7500 0.5000 1.0000
Zn1_5 Zn 0.0000 0.7500 0.5000
C1_3 C 0.0104(9) 0.63303(4) 0.36697(4)
C3_3 C 0.1001(4) 0.63218(4) 0.36782(4)
H1_3 H 0.1188 0.6187 0.3175
H2_3 H 0.1186 0.5954 0.4046
H4_3 H 0.1188 0.6825 0.3813
C6_3 C 0.1080(5) 0.6615(4) 0.6075(4)
N3_3 N 0.0339(5) 0.6798(4) 0.5883(4)
H8_3 H 0.1513 0.6840 0.5823
C8_3 C 0.1080(5) 0.6075(4) 0.6615(4)
N4_3 N 0.0339(5) 0.5883(4) 0.6798(4)
H10_3 H 0.1513 0.5823 0.6840
Zn3_5 Zn 0.0000 0.5000 0.7500
N5_3 N 0.0883(4) 0.8202(4) 0.4661(5)
Zn1_6 Zn 1.0000 0.7500 0.5000
C2_3 C 0.8920(5) 0.6615(4) 0.3925(4)
N1_3 N 0.9661(5) 0.6798(4) 0.4117(4)
H3_3 H 0.8487 0.6840 0.4177
C4_3 C 0.8920(5) 0.6075(4) 0.3385(4)
H5_3 H 0.8487 0.5823 0.3160
C5_3 C 0.9896(9) 0.63303(4) 0.63303(4)
C7_3 C 0.8999(4) 0.63218(4) 0.63218(4)
H6_3 H 0.8812 0.6187 0.6825
H7_3 H 0.8814 0.5954 0.5954
H9_3 H 0.8812 0.6825 0.6187
Zn3_6 Zn 1.0000 0.5000 0.7500
N6_3 N 0.9117(4) 0.8202(4) 0.5339(5)
Zn1_7 Zn 0.5000 0.2500 -0.0000
C5_4 C 0.4896(9) 0.13303(4) 0.13303(4)
C6_4 C 0.6080(5) 0.1615(4) 0.1075(4)
C7_4 C 0.3999(4) 0.13218(4) 0.13218(4)
N3_4 N 0.5339(5) 0.1798(4) 0.0883(4)
H6_4 H 0.3812 0.1187 0.1825
H7_4 H 0.3814 0.0954 0.0954
H8_4 H 0.6513 0.1840 0.0823
C8_4 C 0.6080(5) 0.1075(4) 0.1615(4)
N4_4 N 0.5339(5) 0.0883(4) 0.1798(4)
H9_4 H 0.3812 0.1825 0.1187
H10_4 H 0.6513 0.0823 0.1840
Zn3_7 Zn 0.5000 0.0000 0.2500
N6_4 N 0.4117(4) 0.3202(4) 0.0339(5)
Zn1_8 Zn 0.5000 0.2500 1.0000
C1_4 C 0.5104(9) 0.13303(4) 0.86697(4)
C2_4 C 0.3920(5) 0.1615(4) 0.8925(4)
C3_4 C 0.6001(4) 0.13218(4) 0.86782(4)
N1_4 N 0.4661(5) 0.1798(4) 0.9117(4)
H1_4 H 0.6188 0.1187 0.8175
H2_4 H 0.6186 0.0954 0.9046
H3_4 H 0.3487 0.1840 0.9177
C4_4 C 0.3920(5) 0.1075(4) 0.8385(4)
H4_4 H 0.6188 0.1825 0.8813
H5_4 H 0.3487 0.0823 0.8160
N5_4 N 0.5883(4) 0.3202(4) 0.9661(5)
Zn3_8 Zn 0.5000 1.0000 0.2500
C1_5 C 0.63303(4) 0.36697(4) 0.0104(9)
C3_5 C 0.63218(4) 0.36782(4) 0.1001(4)
H1_5 H 0.6187 0.3175 0.1188
H2_5 H 0.5954 0.4046 0.1186
H4_5 H 0.6825 0.3813 0.1188
C6_5 C 0.6615(4) 0.6075(4) 0.1080(5)
N3_5 N 0.6798(4) 0.5883(4) 0.0339(5)
H8_5 H 0.6840 0.5823 0.1513
C8_5 C 0.6075(4) 0.6615(4) 0.1080(5)
N4_5 N 0.5883(4) 0.6798(4) 0.0339(5)
H10_5 H 0.5823 0.6840 0.1513
Zn3_9 Zn 0.5000 0.7500 0.0000
C2_5 C 0.6615(4) 0.3925(4) 0.8920(5)
N1_5 N 0.6798(4) 0.4117(4) 0.9661(5)
H3_5 H 0.6840 0.4177 0.8487
C4_5 C 0.6075(4) 0.3385(4) 0.8920(5)
H5_5 H 0.5823 0.3160 0.8487
C5_5 C 0.63303(4) 0.63303(4) 0.9896(9)
C7_5 C 0.63218(4) 0.63218(4) 0.8999(4)
H6_5 H 0.6187 0.6825 0.8812
H7_5 H 0.5954 0.5954 0.8814
H9_5 H 0.6825 0.6187 0.8812
Zn3_10 Zn 0.5000 0.7500 1.0000
N6_5 N 0.8202(4) 0.5339(5) 0.9117(4)
C5_6 C 0.13303(4) 0.13303(4) 0.4896(9)
C6_6 C 0.1615(4) 0.1075(4) 0.6080(5)
C7_6 C 0.13218(4) 0.13218(4) 0.3999(4)
N3_6 N 0.1798(4) 0.0883(4) 0.5339(5)
H6_6 H 0.1187 0.1825 0.3812
H7_6 H 0.0954 0.0954 0.3814
H8_6 H 0.1840 0.0823 0.6513
C8_6 C 0.1075(4) 0.1615(4) 0.6080(5)
N4_6 N 0.0883(4) 0.1798(4) 0.5339(5)
H9_6 H 0.1825 0.1187 0.3812
H10_6 H 0.0823 0.1840 0.6513
Zn3_11 Zn -0.0000 0.2500 0.5000
N6_6 N 0.3202(4) 0.0339(5) 0.4117(4)
C1_6 C 0.13303(4) 0.86697(4) 0.5104(9)
C2_6 C 0.1615(4) 0.8925(4) 0.3920(5)
C3_6 C 0.13218(4) 0.86782(4) 0.6001(4)
N1_6 N 0.1798(4) 0.9117(4) 0.4661(5)
H1_6 H 0.1187 0.8175 0.6188
H2_6 H 0.0954 0.9046 0.6186
H3_6 H 0.1840 0.9177 0.3487
C4_6 C 0.1075(4) 0.8385(4) 0.3920(5)
H4_6 H 0.1825 0.8813 0.6188
H5_6 H 0.0823 0.8160 0.3487
Zn3_12 Zn 1.0000 0.2500 0.5000
C6_7 C 0.1080(5) 0.3925(4) 0.3385(4)
H8_7 H 0.1513 0.4177 0.3160
C8_7 C 0.1080(5) 0.3385(4) 0.3925(4)
N4_7 N 0.0339(5) 0.3202(4) 0.4117(4)
H10_7 H 0.1513 0.3160 0.4177
C5_7 C 0.9896(9) 0.36697(4) 0.36697(4)
C7_7 C 0.8999(4) 0.36782(4) 0.36782(4)
H6_7 H 0.8812 0.3175 0.3813
H7_7 H 0.8814 0.4046 0.4046
H9_7 H 0.8812 0.3813 0.3175
C5_8 C 0.4896(9) 0.86697(4) 0.86697(4)
C6_8 C 0.6080(5) 0.8925(4) 0.8385(4)
C7_8 C 0.3999(4) 0.86782(4) 0.86782(4)
H6_8 H 0.3812 0.8175 0.8813
H7_8 H 0.3814 0.9046 0.9046
H8_8 H 0.6513 0.9177 0.8160
C8_8 C 0.6080(5) 0.8385(4) 0.8925(4)
N4_8 N 0.5339(5) 0.8202(4) 0.9117(4)
H9_8 H 0.3812 0.8813 0.8175
H10_8 H 0.6513 0.8160 0.9177
C5_9 C 0.63303(4) 0.0104(9) 0.36697(4)
C7_9 C 0.63218(4) 0.1001(4) 0.36782(4)
H6_9 H 0.6187 0.1188 0.3175
H7_9 H 0.5954 0.1186 0.4046
H9_9 H 0.6825 0.1188 0.3813
N6_7 N 0.8202(4) 0.0883(4) 0.4661(5)
C6_9 C 0.6615(4) 0.8920(5) 0.3925(4)
N3_7 N 0.6798(4) 0.9661(5) 0.4117(4)
H8_9 H 0.6840 0.8487 0.4177
C8_9 C 0.6075(4) 0.8920(5) 0.3385(4)
N4_9 N 0.5883(4) 0.9661(5) 0.3202(4)
H10_9 H 0.5823 0.8487 0.3160
N5_5 N 0.8202(4) 0.9117(4) 0.5339(5)
N5_6 N 0.3202(4) 0.4117(4) 0.0339(5)
C5_10 C 0.13303(4) 0.5104(9) 0.86697(4)
C6_10 C 0.1615(4) 0.3920(5) 0.8925(4)
C7_10 C 0.13218(4) 0.6001(4) 0.86782(4)
N3_8 N 0.1798(4) 0.4661(5) 0.9117(4)
H6_10 H 0.1187 0.6188 0.8175
H7_10 H 0.0954 0.6186 0.9046
H8_10 H 0.1840 0.3487 0.9177
C8_10 C 0.1075(4) 0.3920(5) 0.8385(4)
N4_10 N 0.0883(4) 0.4661(5) 0.8202(4)
H9_10 H 0.1825 0.6188 0.8813
H10_10 H 0.0823 0.3487 0.8160
N6_8 N 0.3202(4) 0.5883(4) 0.9661(5)
C2_7 C 0.3925(4) 0.3385(4) 0.1080(5)
H3_7 H 0.4177 0.3160 0.1513
C4_7 C 0.3385(4) 0.3925(4) 0.1080(5)
H5_7 H 0.3160 0.4177 0.1513
C1_7 C 0.36697(4) 0.36697(4) 0.9896(9)
C3_7 C 0.36782(4) 0.36782(4) 0.8999(4)
H1_7 H 0.3175 0.3813 0.8812
H2_7 H 0.4046 0.4046 0.8814
H4_7 H 0.3813 0.3175 0.8812
C1_8 C 0.86697(4) 0.86697(4) 0.4896(9)
C2_8 C 0.8925(4) 0.8385(4) 0.6080(5)
C3_8 C 0.86782(4) 0.86782(4) 0.3999(4)
H1_8 H 0.8175 0.8813 0.3812
H2_8 H 0.9046 0.9046 0.3814
H3_8 H 0.9177 0.8160 0.6513
C4_8 C 0.8385(4) 0.8925(4) 0.6080(5)
H4_8 H 0.8813 0.8175 0.3812
H5_8 H 0.8160 0.9177 0.6513
C5_11 C 0.36697(4) 0.63303(4) 0.0104(9)
C7_11 C 0.36782(4) 0.63218(4) 0.1001(4)
H6_11 H 0.3813 0.6825 0.1188
H7_11 H 0.4046 0.5954 0.1186
H9_11 H 0.3175 0.6187 0.1188
C6_11 C 0.3385(4) 0.6075(4) 0.8920(5)
H8_11 H 0.3160 0.5823 0.8487
C8_11 C 0.3925(4) 0.6615(4) 0.8920(5)
N4_11 N 0.4117(4) 0.6798(4) 0.9661(5)
H10_11 H 0.4177 0.6840 0.8487
C5_12 C 0.86697(4) 0.13303(4) 0.5104(9)
C6_12 C 0.8385(4) 0.1075(4) 0.3920(5)
C7_12 C 0.86782(4) 0.13218(4) 0.6001(4)
H6_12 H 0.8813 0.1825 0.6188
H7_12 H 0.9046 0.0954 0.6186
H8_12 H 0.8160 0.0823 0.3487
C8_12 C 0.8925(4) 0.1615(4) 0.3920(5)
N4_12 N 0.9117(4) 0.1798(4) 0.4661(5)
H9_12 H 0.8175 0.1187 0.6188
H10_12 H 0.9177 0.1840 0.3487
C6_13 C 0.3925(4) 0.1080(5) 0.3385(4)
N3_9 N 0.4117(4) 0.0339(5) 0.3202(4)
H8_13 H 0.4177 0.1513 0.3160
C8_13 C 0.3385(4) 0.1080(5) 0.3925(4)
H10_13 H 0.3160 0.1513 0.4177
C5_13 C 0.36697(4) 0.9896(9) 0.36697(4)
C7_13 C 0.36782(4) 0.8999(4) 0.36782(4)
H6_13 H 0.3175 0.8812 0.3813
H7_13 H 0.4046 0.8814 0.4046
H9_13 H 0.3813 0.8812 0.3175
N6_9 N 0.4661(5) 0.9117(4) 0.1798(4)
C5_14 C 0.86697(4) 0.4896(9) 0.86697(4)
C6_14 C 0.8925(4) 0.6080(5) 0.8385(4)
C7_14 C 0.86782(4) 0.3999(4) 0.86782(4)
N3_10 N 0.9117(4) 0.5339(5) 0.8202(4)
H6_14 H 0.8175 0.3812 0.8813
H7_14 H 0.9046 0.3814 0.9046
H8_14 H 0.9177 0.6513 0.8160
C8_14 C 0.8385(4) 0.6080(5) 0.8925(4)
H9_14 H 0.8813 0.3812 0.8175
H10_14 H 0.8160 0.6513 0.9177
N6_10 N 0.9661(5) 0.4117(4) 0.6798(4)
C5_15 C 0.0104(9) 0.36697(4) 0.63303(4)
C7_15 C 0.1001(4) 0.36782(4) 0.63218(4)
H6_15 H 0.1188 0.3813 0.6825
H7_15 H 0.1186 0.4046 0.5954
H9_15 H 0.1188 0.3175 0.6187
C6_15 C 0.8920(5) 0.3385(4) 0.6075(4)
N3_11 N 0.9661(5) 0.3202(4) 0.5883(4)
H8_15 H 0.8487 0.3160 0.5823
C8_15 C 0.8920(5) 0.3925(4) 0.6615(4)
H10_15 H 0.8487 0.4177 0.6840
C5_16 C 0.5104(9) 0.86697(4) 0.13303(4)
C6_16 C 0.3920(5) 0.8385(4) 0.1075(4)
C7_16 C 0.6001(4) 0.86782(4) 0.13218(4)
N3_12 N 0.4661(5) 0.8202(4) 0.0883(4)
H6_16 H 0.6188 0.8813 0.1825
H7_16 H 0.6186 0.9046 0.0954
H8_16 H 0.3487 0.8160 0.0823
C8_16 C 0.3920(5) 0.8925(4) 0.1615(4)
H9_16 H 0.6188 0.8175 0.1187
H10_16 H 0.3487 0.9177 0.1840
loop_
_geom_bond_atom_site_label_1
_geom_bond_atom_site_label_2
_geom_bond_site_symmetry_1
_geom_bond_site_symmetry_2
C1 C3 1_555 1_555
C3 H1 1_555 1_555
H2 C3 1_555 1_555
H4 C3 1_555 1_555
C6 N3 1_555 1_555
N3 Zn1 1_555 1_555
H8 C6 1_555 1_555
C8 C6 1_555 1_555
H10 C8 1_555 1_555
Zn3 N4 1_555 1_555
N5 Zn1 1_555 1_555
C8 N4 1_555 1_555
Zn1_2 N1 1_555 1_555
C2 N1 1_555 1_555
H3 C2 1_555 1_555
C4 C2 1_555 1_555
H5 C4 1_555 1_555
C5 C7 1_555 1_555
C7 H6 1_555 1_555
H7 C7 1_555 1_555
H9 C7 1_555 1_555
Zn2_2 N2 1_555 1_555
N6 Zn1_2 1_555 1_555
C4 N2 1_555 1_555
C5_2 C7_2 1_555 1_555
C6_2 N3_2 1_555 1_555
C7_2 H6_2 1_555 1_555
N3_2 Zn1_3 1_555 1_555
H7_2 C7_2 1_555 1_555
H8_2 C6_2 1_555 1_555
C8_2 C6_2 1_555 1_555
N4_2 C5_2 1_555 1_555
H9_2 C7_2 1_555 1_555
H10_2 C8_2 1_555 1_555
Zn3_3 N4_2 1_555 1_555
N6_2 Zn1_3 1_555 1_555
C5_2 N3_2 1_555 1_555
C8_2 N4_2 1_555 1_555
Zn1_4 N1_2 1_555 1_555
C1_2 C3_2 1_555 1_555
C2_2 N1_2 1_555 1_555
C3_2 H1_2 1_555 1_555
N1_2 C1_2 1_555 1_555
H2_2 C3_2 1_555 1_555
H3_2 C2_2 1_555 1_555
C4_2 C2_2 1_555 1_555
N2_2 C1_2 1_555 1_555
H4_2 C3_2 1_555 1_555
H5_2 C4_2 1_555 1_555
Zn2_3 N2_2 1_555 1_555
N5_2 Zn1_4 1_555 1_555
C4_2 N2_2 1_555 1_555
C1_3 C3_3 1_555 1_555
C3_3 H1_3 1_555 1_555
H2_3 C3_3 1_555 1_555
H4_3 C3_3 1_555 1_555
C6_3 N3_3 1_555 1_555
N3_3 Zn1_5 1_555 1_555
H8_3 C6_3 1_555 1_555
C8_3 C6_3 1_555 1_555
H10_3 C8_3 1_555 1_555
Zn3_5 N4_3 1_555 1_555
N5_3 Zn1_5 1_555 1_555
C8_3 N4_3 1_555 1_555
Zn1_6 N1_3 1_555 1_555
C2_3 N1_3 1_555 1_555
H3_3 C2_3 1_555 1_555
C4_3 C2_3 1_555 1_555
H5_3 C4_3 1_555 1_555
C5_3 C7_3 1_555 1_555
C7_3 H6_3 1_555 1_555
H7_3 C7_3 1_555 1_555
H9_3 C7_3 1_555 1_555
N6_3 Zn1_6 1_555 1_555
C4_3 N5_2 1_555 1_555
C5_4 C7_4 1_555 1_555
C6_4 N3_4 1_555 1_555
C7_4 H6_4 1_555 1_555
N3_4 Zn1_7 1_555 1_555
H7_4 C7_4 1_555 1_555
H8_4 C6_4 1_555 1_555
C8_4 C6_4 1_555 1_555
N4_4 C5_4 1_555 1_555
H9_4 C7_4 1_555 1_555
H10_4 C8_4 1_555 1_555
Zn3_7 N4_4 1_555 1_555
N6_4 Zn1_7 1_555 1_555
C5_4 N3_4 1_555 1_555
C8_4 N4_4 1_555 1_555
Zn1_8 N1_4 1_555 1_555
C1_4 C3_4 1_555 1_555
C2_4 N1_4 1_555 1_555
C3_4 H1_4 1_555 1_555
N1_4 C1_4 1_555 1_555
H2_4 C3_4 1_555 1_555
H3_4 C2_4 1_555 1_555
C4_4 C2_4 1_555 1_555
N5 C1_4 1_555 1_555
H4_4 C3_4 1_555 1_555
H5_4 C4_4 1_555 1_555
N5_4 Zn1_8 1_555 1_555
C4_4 N5 1_555 1_555
C1_5 C3_5 1_555 1_555
C3_5 H1_5 1_555 1_555
H2_5 C3_5 1_555 1_555
H4_5 C3_5 1_555 1_555
C6_5 N3_5 1_555 1_555
N3_5 Zn2_3 1_555 1_555
H8_5 C6_5 1_555 1_555
C8_5 C6_5 1_555 1_555
H10_5 C8_5 1_555 1_555
Zn3_9 N4_5 1_555 1_555
C8_5 N4_5 1_555 1_555
Zn2_4 N1_5 1_555 1_555
C2_5 N1_5 1_555 1_555
H3_5 C2_5 1_555 1_555
C4_5 C2_5 1_555 1_555
H5_5 C4_5 1_555 1_555
C5_5 C7_5 1_555 1_555
C7_5 H6_5 1_555 1_555
H7_5 C7_5 1_555 1_555
H9_5 C7_5 1_555 1_555
N6_5 Zn2_4 1_555 1_555
C4_5 N5_4 1_555 1_555
C5_6 C7_6 1_555 1_555
C6_6 N3_6 1_555 1_555
C7_6 H6_6 1_555 1_555
N3_6 Zn2 1_555 1_555
H7_6 C7_6 1_555 1_555
H8_6 C6_6 1_555 1_555
C8_6 C6_6 1_555 1_555
N4_6 C5_6 1_555 1_555
H9_6 C7_6 1_555 1_555
H10_6 C8_6 1_555 1_555
Zn3_11 N4_6 1_555 1_555
N6_6 Zn2 1_555 1_555
C5_6 N3_6 1_555 1_555
C8_6 N4_6 1_555 1_555
Zn2_2 N1_6 1_555 1_555
C1_6 C3_6 1_555 1_555
C2_6 N1_6 1_555 1_555
C3_6 H1_6 1_555 1_555
N1_6 C1_6 1_555 1_555
H2_6 C3_6 1_555 1_555
H3_6 C2_6 1_555 1_555
C4_6 C2_6 1_555 1_555
N5_3 C1_6 1_555 1_555
H4_6 C3_6 1_555 1_555
H5_6 C4_6 1_555 1_555
C4_6 N5_3 1_555 1_555
C6_7 N6_2 1_555 1_555
H8_7 C6_7 1_555 1_555
C8_7 C6_7 1_555 1_555
H10_7 C8_7 1_555 1_555
Zn3_11 N4_7 1_555 1_555
C8_7 N4_7 1_555 1_555
C5_7 C7_7 1_555 1_555
C7_7 H6_7 1_555 1_555
H7_7 C7_7 1_555 1_555
H9_7 C7_7 1_555 1_555
C5_8 C7_8 1_555 1_555
C6_8 N6 1_555 1_555
C7_8 H6_8 1_555 1_555
H7_8 C7_8 1_555 1_555
H8_8 C6_8 1_555 1_555
C8_8 C6_8 1_555 1_555
N4_8 C5_8 1_555 1_555
H9_8 C7_8 1_555 1_555
H10_8 C8_8 1_555 1_555
Zn3_10 N4_8 1_555 1_555
C5_8 N6 1_555 1_555
C8_8 N4_8 1_555 1_555
C5_9 C7_9 1_555 1_555
C7_9 H6_9 1_555 1_555
H7_9 C7_9 1_555 1_555
H9_9 C7_9 1_555 1_555
N6_7 Zn3 1_555 1_555
C6_9 N3_7 1_555 1_555
N3_7 Zn3_2 1_555 1_555
H8_9 C6_9 1_555 1_555
C8_9 C6_9 1_555 1_555
H10_9 C8_9 1_555 1_555
Zn3_8 N4_9 1_555 1_555
N5_5 Zn3_2 1_555 1_555
C8_9 N4_9 1_555 1_555
N5_6 Zn3_3 1_555 1_555
C5_10 C7_10 1_555 1_555
C6_10 N3_8 1_555 1_555
C7_10 H6_10 1_555 1_555
N3_8 Zn3_4 1_555 1_555
H7_10 C7_10 1_555 1_555
H8_10 C6_10 1_555 1_555
C8_10 C6_10 1_555 1_555
N4_10 C5_10 1_555 1_555
H9_10 C7_10 1_555 1_555
H10_10 C8_10 1_555 1_555
Zn3_5 N4_10 1_555 1_555
N6_8 Zn3_4 1_555 1_555
C5_10 N3_8 1_555 1_555
C8_10 N4_10 1_555 1_555
C2_7 N6_4 1_555 1_555
H3_7 C2_7 1_555 1_555
C4_7 C2_7 1_555 1_555
H5_7 C4_7 1_555 1_555
C4_7 N5_6 1_555 1_555
C1_7 C3_7 1_555 1_555
C3_7 H1_7 1_555 1_555
H2_7 C3_7 1_555 1_555
H4_7 C3_7 1_555 1_555
C1_8 C3_8 1_555 1_555
C2_8 N6_3 1_555 1_555
C3_8 H1_8 1_555 1_555
N6_3 C1_8 1_555 1_555
H2_8 C3_8 1_555 1_555
H3_8 C2_8 1_555 1_555
C4_8 C2_8 1_555 1_555
N5_5 C1_8 1_555 1_555
H4_8 C3_8 1_555 1_555
H5_8 C4_8 1_555 1_555
C4_8 N5_5 1_555 1_555
C5_11 C7_11 1_555 1_555
C7_11 H6_11 1_555 1_555
H7_11 C7_11 1_555 1_555
H9_11 C7_11 1_555 1_555
C6_11 N6_8 1_555 1_555
H8_11 C6_11 1_555 1_555
C8_11 C6_11 1_555 1_555
H10_11 C8_11 1_555 1_555
Zn3_10 N4_11 1_555 1_555
C8_11 N4_11 1_555 1_555
C5_12 C7_12 1_555 1_555
C6_12 N6_7 1_555 1_555
C7_12 H6_12 1_555 1_555
H7_12 C7_12 1_555 1_555
H8_12 C6_12 1_555 1_555
C8_12 C6_12 1_555 1_555
N4_12 C5_12 1_555 1_555
H9_12 C7_12 1_555 1_555
H10_12 C8_12 1_555 1_555
Zn3_12 N4_12 1_555 1_555
C5_12 N6_7 1_555 1_555
C8_12 N4_12 1_555 1_555
C6_13 N3_9 1_555 1_555
N3_9 Zn3_7 1_555 1_555
H8_13 C6_13 1_555 1_555
C8_13 C6_13 1_555 1_555
H10_13 C8_13 1_555 1_555
C8_13 N6_6 1_555 1_555
C5_13 C7_13 1_555 1_555
C7_13 H6_13 1_555 1_555
H7_13 C7_13 1_555 1_555
H9_13 C7_13 1_555 1_555
N6_9 Zn3_8 1_555 1_555
C5_14 C7_14 1_555 1_555
C6_14 N3_10 1_555 1_555
C7_14 H6_14 1_555 1_555
N3_10 Zn3_6 1_555 1_555
H7_14 C7_14 1_555 1_555
H8_14 C6_14 1_555 1_555
C8_14 C6_14 1_555 1_555
N6_5 C5_14 1_555 1_555
H9_14 C7_14 1_555 1_555
H10_14 C8_14 1_555 1_555
N6_10 Zn3_6 1_555 1_555
C5_14 N3_10 1_555 1_555
C8_14 N6_5 1_555 1_555
C5_15 C7_15 1_555 1_555
C7_15 H6_15 1_555 1_555
H7_15 C7_15 1_555 1_555
H9_15 C7_15 1_555 1_555
C6_15 N3_11 1_555 1_555
N3_11 Zn3_12 1_555 1_555
H8_15 C6_15 1_555 1_555
C8_15 C6_15 1_555 1_555
H10_15 C8_15 1_555 1_555
C8_15 N6_10 1_555 1_555
C5_16 C7_16 1_555 1_555
C6_16 N3_12 1_555 1_555
C7_16 H6_16 1_555 1_555
N3_12 Zn3_9 1_555 1_555
H7_16 C7_16 1_555 1_555
H8_16 C6_16 1_555 1_555
C8_16 C6_16 1_555 1_555
N6_9 C5_16 1_555 1_555
H9_16 C7_16 1_555 1_555
H10_16 C8_16 1_555 1_555
C5_16 N3_12 1_555 1_555
C8_16 N6_9 1_555 1_555

#END
