
###############################################################################
#
# This file contains modified crystal structure data generated from the
# MOF subset of the Cambridge Structural Database (CSD) v543 
# hosted by the Cambridge Crystallographic Data Centre (CCDC).
#
# This work is licensed under the Creative Commons
# Attribution-NonCommercial-ShareAlike 4.0 International License.
# To view a copy of this license, visit
# http://creativecommons.org/licenses/by-nc-sa/4.0/
# or send a letter to
# Creative Commons, PO Box 1866, Mountain View, CA 94042, USA.
#
# CIF created using the CSD Python API on 29 September 2022
# The structure has been converted into the P1 space group
# The structure has a 3D framework
# The original CSD entry NIFSIH is in the cubic crystal system
# The framework has been calculated to contain at least 10.0% void space
# The void calculation uses a probe of radius 1.32A, grid spacing 0.4
#
###############################################################################

data_NIFSIH
_chemical_formula_moiety         '(C96 H120 N48 Zn18)n'
_symmetry_cell_setting           triclinic
_symmetry_space_group_name_H-M   'P 1'
_symmetry_Int_Tables_number      1
_space_group_name_Hall           'P 1'
loop_
_symmetry_equiv_pos_site_id
_symmetry_equiv_pos_as_xyz
1 x,y,z
_cell_length_a                   16.8475(10)
_cell_length_b                   16.8475(10)
_cell_length_c                   16.8475(10)
_cell_angle_alpha                90
_cell_angle_beta                 90
_cell_angle_gamma                90
_cell_volume                     4781.97
loop_
_atom_site_label
_atom_site_type_symbol
_atom_site_fract_x
_atom_site_fract_y
_atom_site_fract_z
Zn1 Zn 0.5000 -0.0000 0.7500
C1 C 0.36846(4) 0.0036(14) 0.63154(4)
C3 C 0.36877(4) 0.0906(4) 0.63123(4)
H1 H 0.3154 0.1093 0.6173
H2 H 0.4074 0.1109 0.5926
H4 H 0.3827 0.1093 0.6846
C6 C 0.6057(5) 0.1148(7) 0.6608(6)
N3 N 0.5869(4) 0.0372(6) 0.6807(5)
H8 H 0.5832 0.1593 0.6820
C8 C 0.6608(6) 0.1148(7) 0.6057(5)
N4 N 0.6807(5) 0.0372(6) 0.5869(4)
H10 H 0.6820 0.1593 0.5832
Zn2 Zn 0.2500 -0.0000 0.5000
Zn3 Zn 0.7500 -0.0000 0.5000
N5 N 0.4628(6) 0.0869(4) 0.8193(5)
Zn1_2 Zn 0.5000 1.0000 0.7500
C2 C 0.3943(5) 0.8852(7) 0.6608(6)
N1 N 0.4131(4) 0.9628(6) 0.6807(5)
H3 H 0.4168 0.8407 0.6820
C4 C 0.3392(6) 0.8852(7) 0.6057(5)
N2 N 0.3193(5) 0.9628(6) 0.5869(4)
H5 H 0.3180 0.8407 0.5832
C5 C 0.63154(4) 0.9964(14) 0.63154(4)
C7 C 0.63123(4) 0.9094(4) 0.63123(4)
H6 H 0.6846 0.8907 0.6173
H7 H 0.5926 0.8891 0.5926
H9 H 0.6173 0.8907 0.6846
Zn2_2 Zn 0.2500 1.0000 0.5000
Zn3_2 Zn 0.7500 1.0000 0.5000
N6 N 0.5372(6) 0.9131(4) 0.8193(5)
Zn1_3 Zn -0.0000 0.5000 0.2500
C5_2 C 0.13154(4) 0.4964(14) 0.13154(4)
C6_2 C 0.1057(5) 0.6148(7) 0.1608(6)
C7_2 C 0.13123(4) 0.4094(4) 0.13123(4)
N3_2 N 0.0869(4) 0.5372(6) 0.1807(5)
H6_2 H 0.1846 0.3907 0.1173
H7_2 H 0.0926 0.3891 0.0926
H8_2 H 0.0832 0.6593 0.1820
C8_2 C 0.1608(6) 0.6148(7) 0.1057(5)
N4_2 N 0.1807(5) 0.5372(6) 0.0869(4)
H9_2 H 0.1173 0.3907 0.1846
H10_2 H 0.1820 0.6593 0.0832
Zn3_3 Zn 0.2500 0.5000 -0.0000
N6_2 N 0.0372(6) 0.4131(4) 0.3193(5)
Zn3_4 Zn 0.2500 0.5000 1.0000
Zn1_4 Zn 1.0000 0.5000 0.2500
C1_2 C 0.86846(4) 0.5036(14) 0.13154(4)
C2_2 C 0.8943(5) 0.3852(7) 0.1608(6)
C3_2 C 0.86877(4) 0.5906(4) 0.13123(4)
N1_2 N 0.9131(4) 0.4628(6) 0.1807(5)
H1_2 H 0.8154 0.6093 0.1173
H2_2 H 0.9074 0.6109 0.0926
H3_2 H 0.9168 0.3407 0.1820
C4_2 C 0.8392(6) 0.3852(7) 0.1057(5)
N2_2 N 0.8193(5) 0.4628(6) 0.0869(4)
H4_2 H 0.8827 0.6093 0.1846
H5_2 H 0.8180 0.3407 0.0832
Zn2_3 Zn 0.7500 0.5000 -0.0000
N5_2 N 0.9628(6) 0.5869(4) 0.3193(5)
Zn2_4 Zn 0.7500 0.5000 1.0000
Zn1_5 Zn -0.0000 0.7500 0.5000
C1_3 C 0.0036(14) 0.63154(4) 0.36846(4)
C3_3 C 0.0906(4) 0.63123(4) 0.36877(4)
H1_3 H 0.1093 0.6173 0.3154
H2_3 H 0.1109 0.5926 0.4074
H4_3 H 0.1093 0.6846 0.3827
C6_3 C 0.1148(7) 0.6608(6) 0.6057(5)
N3_3 N 0.0372(6) 0.6807(5) 0.5869(4)
H8_3 H 0.1593 0.6820 0.5832
C8_3 C 0.1148(7) 0.6057(5) 0.6608(6)
N4_3 N 0.0372(6) 0.5869(4) 0.6807(5)
H10_3 H 0.1593 0.5832 0.6820
Zn3_5 Zn -0.0000 0.5000 0.7500
N5_3 N 0.0869(4) 0.8193(5) 0.4628(6)
Zn1_6 Zn 1.0000 0.7500 0.5000
C2_3 C 0.8852(7) 0.6608(6) 0.3943(5)
N1_3 N 0.9628(6) 0.6807(5) 0.4131(4)
H3_3 H 0.8407 0.6820 0.4168
C4_3 C 0.8852(7) 0.6057(5) 0.3392(6)
H5_3 H 0.8407 0.5832 0.3180
C5_3 C 0.9964(14) 0.63154(4) 0.63154(4)
C7_3 C 0.9094(4) 0.63123(4) 0.63123(4)
H6_3 H 0.8907 0.6173 0.6846
H7_3 H 0.8891 0.5926 0.5926
H9_3 H 0.8907 0.6846 0.6173
Zn3_6 Zn 1.0000 0.5000 0.7500
N6_3 N 0.9131(4) 0.8193(5) 0.5372(6)
Zn1_7 Zn 0.5000 0.2500 -0.0000
C5_4 C 0.4964(14) 0.13154(4) 0.13154(4)
C6_4 C 0.6148(7) 0.1608(6) 0.1057(5)
C7_4 C 0.4094(4) 0.13123(4) 0.13123(4)
N3_4 N 0.5372(6) 0.1807(5) 0.0869(4)
H6_4 H 0.3907 0.1173 0.1846
H7_4 H 0.3891 0.0926 0.0926
H8_4 H 0.6593 0.1820 0.0832
C8_4 C 0.6148(7) 0.1057(5) 0.1608(6)
N4_4 N 0.5372(6) 0.0869(4) 0.1807(5)
H9_4 H 0.3907 0.1846 0.1173
H10_4 H 0.6593 0.0832 0.1820
Zn3_7 Zn 0.5000 -0.0000 0.2500
N6_4 N 0.4131(4) 0.3193(5) 0.0372(6)
Zn1_8 Zn 0.5000 0.2500 1.0000
C1_4 C 0.5036(14) 0.13154(4) 0.86846(4)
C2_4 C 0.3852(7) 0.1608(6) 0.8943(5)
C3_4 C 0.5906(4) 0.13123(4) 0.86877(4)
N1_4 N 0.4628(6) 0.1807(5) 0.9131(4)
H1_4 H 0.6093 0.1173 0.8154
H2_4 H 0.6109 0.0926 0.9074
H3_4 H 0.3407 0.1820 0.9168
C4_4 C 0.3852(7) 0.1057(5) 0.8392(6)
H4_4 H 0.6093 0.1846 0.8827
H5_4 H 0.3407 0.0832 0.8180
N5_4 N 0.5869(4) 0.3193(5) 0.9628(6)
Zn3_8 Zn 0.5000 1.0000 0.2500
C1_5 C 0.63154(4) 0.36846(4) 0.0036(14)
C3_5 C 0.63123(4) 0.36877(4) 0.0906(4)
H1_5 H 0.6173 0.3154 0.1093
H2_5 H 0.5926 0.4074 0.1109
H4_5 H 0.6846 0.3827 0.1093
C6_5 C 0.6608(6) 0.6057(5) 0.1148(7)
N3_5 N 0.6807(5) 0.5869(4) 0.0372(6)
H8_5 H 0.6820 0.5832 0.1593
C8_5 C 0.6057(5) 0.6608(6) 0.1148(7)
N4_5 N 0.5869(4) 0.6807(5) 0.0372(6)
H10_5 H 0.5832 0.6820 0.1593
Zn3_9 Zn 0.5000 0.7500 -0.0000
C2_5 C 0.6608(6) 0.3943(5) 0.8852(7)
N1_5 N 0.6807(5) 0.4131(4) 0.9628(6)
H3_5 H 0.6820 0.4168 0.8407
C4_5 C 0.6057(5) 0.3392(6) 0.8852(7)
H5_5 H 0.5832 0.3180 0.8407
C5_5 C 0.63154(4) 0.63154(4) 0.9964(14)
C7_5 C 0.63123(4) 0.63123(4) 0.9094(4)
H6_5 H 0.6173 0.6846 0.8907
H7_5 H 0.5926 0.5926 0.8891
H9_5 H 0.6846 0.6173 0.8907
Zn3_10 Zn 0.5000 0.7500 1.0000
N6_5 N 0.8193(5) 0.5372(6) 0.9131(4)
C5_6 C 0.13154(4) 0.13154(4) 0.4964(14)
C6_6 C 0.1608(6) 0.1057(5) 0.6148(7)
C7_6 C 0.13123(4) 0.13123(4) 0.4094(4)
N3_6 N 0.1807(5) 0.0869(4) 0.5372(6)
H6_6 H 0.1173 0.1846 0.3907
H7_6 H 0.0926 0.0926 0.3891
H8_6 H 0.1820 0.0832 0.6593
C8_6 C 0.1057(5) 0.1608(6) 0.6148(7)
N4_6 N 0.0869(4) 0.1807(5) 0.5372(6)
H9_6 H 0.1846 0.1173 0.3907
H10_6 H 0.0832 0.1820 0.6593
Zn3_11 Zn -0.0000 0.2500 0.5000
N6_6 N 0.3193(5) 0.0372(6) 0.4131(4)
C1_6 C 0.13154(4) 0.86846(4) 0.5036(14)
C2_6 C 0.1608(6) 0.8943(5) 0.3852(7)
C3_6 C 0.13123(4) 0.86877(4) 0.5906(4)
N1_6 N 0.1807(5) 0.9131(4) 0.4628(6)
H1_6 H 0.1173 0.8154 0.6093
H2_6 H 0.0926 0.9074 0.6109
H3_6 H 0.1820 0.9168 0.3407
C4_6 C 0.1057(5) 0.8392(6) 0.3852(7)
H4_6 H 0.1846 0.8827 0.6093
H5_6 H 0.0832 0.8180 0.3407
Zn3_12 Zn 1.0000 0.2500 0.5000
C6_7 C 0.1148(7) 0.3943(5) 0.3392(6)
H8_7 H 0.1593 0.4168 0.3180
C8_7 C 0.1148(7) 0.3392(6) 0.3943(5)
N4_7 N 0.0372(6) 0.3193(5) 0.4131(4)
H10_7 H 0.1593 0.3180 0.4168
C5_7 C 0.9964(14) 0.36846(4) 0.36846(4)
C7_7 C 0.9094(4) 0.36877(4) 0.36877(4)
H6_7 H 0.8907 0.3154 0.3827
H7_7 H 0.8891 0.4074 0.4074
H9_7 H 0.8907 0.3827 0.3154
C5_8 C 0.4964(14) 0.86846(4) 0.86846(4)
C6_8 C 0.6148(7) 0.8943(5) 0.8392(6)
C7_8 C 0.4094(4) 0.86877(4) 0.86877(4)
H6_8 H 0.3907 0.8154 0.8827
H7_8 H 0.3891 0.9074 0.9074
H8_8 H 0.6593 0.9168 0.8180
C8_8 C 0.6148(7) 0.8392(6) 0.8943(5)
N4_8 N 0.5372(6) 0.8193(5) 0.9131(4)
H9_8 H 0.3907 0.8827 0.8154
H10_8 H 0.6593 0.8180 0.9168
C5_9 C 0.63154(4) 0.0036(14) 0.36846(4)
C7_9 C 0.63123(4) 0.0906(4) 0.36877(4)
H6_9 H 0.6173 0.1093 0.3154
H7_9 H 0.5926 0.1109 0.4074
H9_9 H 0.6846 0.1093 0.3827
N6_7 N 0.8193(5) 0.0869(4) 0.4628(6)
C6_9 C 0.6608(6) 0.8852(7) 0.3943(5)
N3_7 N 0.6807(5) 0.9628(6) 0.4131(4)
H8_9 H 0.6820 0.8407 0.4168
C8_9 C 0.6057(5) 0.8852(7) 0.3392(6)
N4_9 N 0.5869(4) 0.9628(6) 0.3193(5)
H10_9 H 0.5832 0.8407 0.3180
N5_5 N 0.8193(5) 0.9131(4) 0.5372(6)
N5_6 N 0.3193(5) 0.4131(4) 0.0372(6)
C5_10 C 0.13154(4) 0.5036(14) 0.86846(4)
C6_10 C 0.1608(6) 0.3852(7) 0.8943(5)
C7_10 C 0.13123(4) 0.5906(4) 0.86877(4)
N3_8 N 0.1807(5) 0.4628(6) 0.9131(4)
H6_10 H 0.1173 0.6093 0.8154
H7_10 H 0.0926 0.6109 0.9074
H8_10 H 0.1820 0.3407 0.9168
C8_10 C 0.1057(5) 0.3852(7) 0.8392(6)
N4_10 N 0.0869(4) 0.4628(6) 0.8193(5)
H9_10 H 0.1846 0.6093 0.8827
H10_10 H 0.0832 0.3407 0.8180
N6_8 N 0.3193(5) 0.5869(4) 0.9628(6)
C2_7 C 0.3943(5) 0.3392(6) 0.1148(7)
H3_7 H 0.4168 0.3180 0.1593
C4_7 C 0.3392(6) 0.3943(5) 0.1148(7)
H5_7 H 0.3180 0.4168 0.1593
C1_7 C 0.36846(4) 0.36846(4) 0.9964(14)
C3_7 C 0.36877(4) 0.36877(4) 0.9094(4)
H1_7 H 0.3154 0.3827 0.8907
H2_7 H 0.4074 0.4074 0.8891
H4_7 H 0.3827 0.3154 0.8907
C1_8 C 0.86846(4) 0.86846(4) 0.4964(14)
C2_8 C 0.8943(5) 0.8392(6) 0.6148(7)
C3_8 C 0.86877(4) 0.86877(4) 0.4094(4)
H1_8 H 0.8154 0.8827 0.3907
H2_8 H 0.9074 0.9074 0.3891
H3_8 H 0.9168 0.8180 0.6593
C4_8 C 0.8392(6) 0.8943(5) 0.6148(7)
H4_8 H 0.8827 0.8154 0.3907
H5_8 H 0.8180 0.9168 0.6593
C5_11 C 0.36846(4) 0.63154(4) 0.0036(14)
C7_11 C 0.36877(4) 0.63123(4) 0.0906(4)
H6_11 H 0.3827 0.6846 0.1093
H7_11 H 0.4074 0.5926 0.1109
H9_11 H 0.3154 0.6173 0.1093
C6_11 C 0.3392(6) 0.6057(5) 0.8852(7)
H8_11 H 0.3180 0.5832 0.8407
C8_11 C 0.3943(5) 0.6608(6) 0.8852(7)
N4_11 N 0.4131(4) 0.6807(5) 0.9628(6)
H10_11 H 0.4168 0.6820 0.8407
C5_12 C 0.86846(4) 0.13154(4) 0.5036(14)
C6_12 C 0.8392(6) 0.1057(5) 0.3852(7)
C7_12 C 0.86877(4) 0.13123(4) 0.5906(4)
H6_12 H 0.8827 0.1846 0.6093
H7_12 H 0.9074 0.0926 0.6109
H8_12 H 0.8180 0.0832 0.3407
C8_12 C 0.8943(5) 0.1608(6) 0.3852(7)
N4_12 N 0.9131(4) 0.1807(5) 0.4628(6)
H9_12 H 0.8154 0.1173 0.6093
H10_12 H 0.9168 0.1820 0.3407
C6_13 C 0.3943(5) 0.1148(7) 0.3392(6)
N3_9 N 0.4131(4) 0.0372(6) 0.3193(5)
H8_13 H 0.4168 0.1593 0.3180
C8_13 C 0.3392(6) 0.1148(7) 0.3943(5)
H10_13 H 0.3180 0.1593 0.4168
C5_13 C 0.36846(4) 0.9964(14) 0.36846(4)
C7_13 C 0.36877(4) 0.9094(4) 0.36877(4)
H6_13 H 0.3154 0.8907 0.3827
H7_13 H 0.4074 0.8891 0.4074
H9_13 H 0.3827 0.8907 0.3154
N6_9 N 0.4628(6) 0.9131(4) 0.1807(5)
C5_14 C 0.86846(4) 0.4964(14) 0.86846(4)
C6_14 C 0.8943(5) 0.6148(7) 0.8392(6)
C7_14 C 0.86877(4) 0.4094(4) 0.86877(4)
N3_10 N 0.9131(4) 0.5372(6) 0.8193(5)
H6_14 H 0.8154 0.3907 0.8827
H7_14 H 0.9074 0.3891 0.9074
H8_14 H 0.9168 0.6593 0.8180
C8_14 C 0.8392(6) 0.6148(7) 0.8943(5)
H9_14 H 0.8827 0.3907 0.8154
H10_14 H 0.8180 0.6593 0.9168
N6_10 N 0.9628(6) 0.4131(4) 0.6807(5)
C5_15 C 0.0036(14) 0.36846(4) 0.63154(4)
C7_15 C 0.0906(4) 0.36877(4) 0.63123(4)
H6_15 H 0.1093 0.3827 0.6846
H7_15 H 0.1109 0.4074 0.5926
H9_15 H 0.1093 0.3154 0.6173
C6_15 C 0.8852(7) 0.3392(6) 0.6057(5)
N3_11 N 0.9628(6) 0.3193(5) 0.5869(4)
H8_15 H 0.8407 0.3180 0.5832
C8_15 C 0.8852(7) 0.3943(5) 0.6608(6)
H10_15 H 0.8407 0.4168 0.6820
C5_16 C 0.5036(14) 0.86846(4) 0.13154(4)
C6_16 C 0.3852(7) 0.8392(6) 0.1057(5)
C7_16 C 0.5906(4) 0.86877(4) 0.13123(4)
N3_12 N 0.4628(6) 0.8193(5) 0.0869(4)
H6_16 H 0.6093 0.8827 0.1846
H7_16 H 0.6109 0.9074 0.0926
H8_16 H 0.3407 0.8180 0.0832
C8_16 C 0.3852(7) 0.8943(5) 0.1608(6)
H9_16 H 0.6093 0.8154 0.1173
H10_16 H 0.3407 0.9168 0.1820
loop_
_geom_bond_atom_site_label_1
_geom_bond_atom_site_label_2
_geom_bond_site_symmetry_1
_geom_bond_site_symmetry_2
C1 C3 1_555 1_555
C3 H1 1_555 1_555
H2 C3 1_555 1_555
H4 C3 1_555 1_555
C6 N3 1_555 1_555
N3 Zn1 1_555 1_555
H8 C6 1_555 1_555
C8 C6 1_555 1_555
H10 C8 1_555 1_555
Zn3 N4 1_555 1_555
N5 Zn1 1_555 1_555
C8 N4 1_555 1_555
Zn1_2 N1 1_555 1_555
C2 N1 1_555 1_555
H3 C2 1_555 1_555
C4 C2 1_555 1_555
H5 C4 1_555 1_555
C5 C7 1_555 1_555
C7 H6 1_555 1_555
H7 C7 1_555 1_555
H9 C7 1_555 1_555
Zn2_2 N2 1_555 1_555
N6 Zn1_2 1_555 1_555
C4 N2 1_555 1_555
C5_2 C7_2 1_555 1_555
C6_2 N3_2 1_555 1_555
C7_2 H6_2 1_555 1_555
N3_2 Zn1_3 1_555 1_555
H7_2 C7_2 1_555 1_555
H8_2 C6_2 1_555 1_555
C8_2 C6_2 1_555 1_555
N4_2 C5_2 1_555 1_555
H9_2 C7_2 1_555 1_555
H10_2 C8_2 1_555 1_555
Zn3_3 N4_2 1_555 1_555
N6_2 Zn1_3 1_555 1_555
C5_2 N3_2 1_555 1_555
C8_2 N4_2 1_555 1_555
Zn1_4 N1_2 1_555 1_555
C1_2 C3_2 1_555 1_555
C2_2 N1_2 1_555 1_555
C3_2 H1_2 1_555 1_555
N1_2 C1_2 1_555 1_555
H2_2 C3_2 1_555 1_555
H3_2 C2_2 1_555 1_555
C4_2 C2_2 1_555 1_555
N2_2 C1_2 1_555 1_555
H4_2 C3_2 1_555 1_555
H5_2 C4_2 1_555 1_555
Zn2_3 N2_2 1_555 1_555
N5_2 Zn1_4 1_555 1_555
C4_2 N2_2 1_555 1_555
C1_3 C3_3 1_555 1_555
C3_3 H1_3 1_555 1_555
H2_3 C3_3 1_555 1_555
H4_3 C3_3 1_555 1_555
C6_3 N3_3 1_555 1_555
N3_3 Zn1_5 1_555 1_555
H8_3 C6_3 1_555 1_555
C8_3 C6_3 1_555 1_555
H10_3 C8_3 1_555 1_555
Zn3_5 N4_3 1_555 1_555
N5_3 Zn1_5 1_555 1_555
C8_3 N4_3 1_555 1_555
Zn1_6 N1_3 1_555 1_555
C2_3 N1_3 1_555 1_555
H3_3 C2_3 1_555 1_555
C4_3 C2_3 1_555 1_555
H5_3 C4_3 1_555 1_555
C5_3 C7_3 1_555 1_555
C7_3 H6_3 1_555 1_555
H7_3 C7_3 1_555 1_555
H9_3 C7_3 1_555 1_555
N6_3 Zn1_6 1_555 1_555
C4_3 N5_2 1_555 1_555
C5_4 C7_4 1_555 1_555
C6_4 N3_4 1_555 1_555
C7_4 H6_4 1_555 1_555
N3_4 Zn1_7 1_555 1_555
H7_4 C7_4 1_555 1_555
H8_4 C6_4 1_555 1_555
C8_4 C6_4 1_555 1_555
N4_4 C5_4 1_555 1_555
H9_4 C7_4 1_555 1_555
H10_4 C8_4 1_555 1_555
Zn3_7 N4_4 1_555 1_555
N6_4 Zn1_7 1_555 1_555
C5_4 N3_4 1_555 1_555
C8_4 N4_4 1_555 1_555
Zn1_8 N1_4 1_555 1_555
C1_4 C3_4 1_555 1_555
C2_4 N1_4 1_555 1_555
C3_4 H1_4 1_555 1_555
N1_4 C1_4 1_555 1_555
H2_4 C3_4 1_555 1_555
H3_4 C2_4 1_555 1_555
C4_4 C2_4 1_555 1_555
N5 C1_4 1_555 1_555
H4_4 C3_4 1_555 1_555
H5_4 C4_4 1_555 1_555
N5_4 Zn1_8 1_555 1_555
C4_4 N5 1_555 1_555
C1_5 C3_5 1_555 1_555
C3_5 H1_5 1_555 1_555
H2_5 C3_5 1_555 1_555
H4_5 C3_5 1_555 1_555
C6_5 N3_5 1_555 1_555
N3_5 Zn2_3 1_555 1_555
H8_5 C6_5 1_555 1_555
C8_5 C6_5 1_555 1_555
H10_5 C8_5 1_555 1_555
Zn3_9 N4_5 1_555 1_555
C8_5 N4_5 1_555 1_555
Zn2_4 N1_5 1_555 1_555
C2_5 N1_5 1_555 1_555
H3_5 C2_5 1_555 1_555
C4_5 C2_5 1_555 1_555
H5_5 C4_5 1_555 1_555
C5_5 C7_5 1_555 1_555
C7_5 H6_5 1_555 1_555
H7_5 C7_5 1_555 1_555
H9_5 C7_5 1_555 1_555
N6_5 Zn2_4 1_555 1_555
C4_5 N5_4 1_555 1_555
C5_6 C7_6 1_555 1_555
C6_6 N3_6 1_555 1_555
C7_6 H6_6 1_555 1_555
N3_6 Zn2 1_555 1_555
H7_6 C7_6 1_555 1_555
H8_6 C6_6 1_555 1_555
C8_6 C6_6 1_555 1_555
N4_6 C5_6 1_555 1_555
H9_6 C7_6 1_555 1_555
H10_6 C8_6 1_555 1_555
Zn3_11 N4_6 1_555 1_555
N6_6 Zn2 1_555 1_555
C5_6 N3_6 1_555 1_555
C8_6 N4_6 1_555 1_555
Zn2_2 N1_6 1_555 1_555
C1_6 C3_6 1_555 1_555
C2_6 N1_6 1_555 1_555
C3_6 H1_6 1_555 1_555
N1_6 C1_6 1_555 1_555
H2_6 C3_6 1_555 1_555
H3_6 C2_6 1_555 1_555
C4_6 C2_6 1_555 1_555
N5_3 C1_6 1_555 1_555
H4_6 C3_6 1_555 1_555
H5_6 C4_6 1_555 1_555
C4_6 N5_3 1_555 1_555
C6_7 N6_2 1_555 1_555
H8_7 C6_7 1_555 1_555
C8_7 C6_7 1_555 1_555
H10_7 C8_7 1_555 1_555
Zn3_11 N4_7 1_555 1_555
C8_7 N4_7 1_555 1_555
C5_7 C7_7 1_555 1_555
C7_7 H6_7 1_555 1_555
H7_7 C7_7 1_555 1_555
H9_7 C7_7 1_555 1_555
C5_8 C7_8 1_555 1_555
C6_8 N6 1_555 1_555
C7_8 H6_8 1_555 1_555
H7_8 C7_8 1_555 1_555
H8_8 C6_8 1_555 1_555
C8_8 C6_8 1_555 1_555
N4_8 C5_8 1_555 1_555
H9_8 C7_8 1_555 1_555
H10_8 C8_8 1_555 1_555
Zn3_10 N4_8 1_555 1_555
C5_8 N6 1_555 1_555
C8_8 N4_8 1_555 1_555
C5_9 C7_9 1_555 1_555
C7_9 H6_9 1_555 1_555
H7_9 C7_9 1_555 1_555
H9_9 C7_9 1_555 1_555
N6_7 Zn3 1_555 1_555
C6_9 N3_7 1_555 1_555
N3_7 Zn3_2 1_555 1_555
H8_9 C6_9 1_555 1_555
C8_9 C6_9 1_555 1_555
H10_9 C8_9 1_555 1_555
Zn3_8 N4_9 1_555 1_555
N5_5 Zn3_2 1_555 1_555
C8_9 N4_9 1_555 1_555
N5_6 Zn3_3 1_555 1_555
C5_10 C7_10 1_555 1_555
C6_10 N3_8 1_555 1_555
C7_10 H6_10 1_555 1_555
N3_8 Zn3_4 1_555 1_555
H7_10 C7_10 1_555 1_555
H8_10 C6_10 1_555 1_555
C8_10 C6_10 1_555 1_555
N4_10 C5_10 1_555 1_555
H9_10 C7_10 1_555 1_555
H10_10 C8_10 1_555 1_555
Zn3_5 N4_10 1_555 1_555
N6_8 Zn3_4 1_555 1_555
C5_10 N3_8 1_555 1_555
C8_10 N4_10 1_555 1_555
C2_7 N6_4 1_555 1_555
H3_7 C2_7 1_555 1_555
C4_7 C2_7 1_555 1_555
H5_7 C4_7 1_555 1_555
C4_7 N5_6 1_555 1_555
C1_7 C3_7 1_555 1_555
C3_7 H1_7 1_555 1_555
H2_7 C3_7 1_555 1_555
H4_7 C3_7 1_555 1_555
C1_8 C3_8 1_555 1_555
C2_8 N6_3 1_555 1_555
C3_8 H1_8 1_555 1_555
N6_3 C1_8 1_555 1_555
H2_8 C3_8 1_555 1_555
H3_8 C2_8 1_555 1_555
C4_8 C2_8 1_555 1_555
N5_5 C1_8 1_555 1_555
H4_8 C3_8 1_555 1_555
H5_8 C4_8 1_555 1_555
C4_8 N5_5 1_555 1_555
C5_11 C7_11 1_555 1_555
C7_11 H6_11 1_555 1_555
H7_11 C7_11 1_555 1_555
H9_11 C7_11 1_555 1_555
C6_11 N6_8 1_555 1_555
H8_11 C6_11 1_555 1_555
C8_11 C6_11 1_555 1_555
H10_11 C8_11 1_555 1_555
Zn3_10 N4_11 1_555 1_555
C8_11 N4_11 1_555 1_555
C5_12 C7_12 1_555 1_555
C6_12 N6_7 1_555 1_555
C7_12 H6_12 1_555 1_555
H7_12 C7_12 1_555 1_555
H8_12 C6_12 1_555 1_555
C8_12 C6_12 1_555 1_555
N4_12 C5_12 1_555 1_555
H9_12 C7_12 1_555 1_555
H10_12 C8_12 1_555 1_555
Zn3_12 N4_12 1_555 1_555
C5_12 N6_7 1_555 1_555
C8_12 N4_12 1_555 1_555
C6_13 N3_9 1_555 1_555
N3_9 Zn3_7 1_555 1_555
H8_13 C6_13 1_555 1_555
C8_13 C6_13 1_555 1_555
H10_13 C8_13 1_555 1_555
C8_13 N6_6 1_555 1_555
C5_13 C7_13 1_555 1_555
C7_13 H6_13 1_555 1_555
H7_13 C7_13 1_555 1_555
H9_13 C7_13 1_555 1_555
N6_9 Zn3_8 1_555 1_555
C5_14 C7_14 1_555 1_555
C6_14 N3_10 1_555 1_555
C7_14 H6_14 1_555 1_555
N3_10 Zn3_6 1_555 1_555
H7_14 C7_14 1_555 1_555
H8_14 C6_14 1_555 1_555
C8_14 C6_14 1_555 1_555
N6_5 C5_14 1_555 1_555
H9_14 C7_14 1_555 1_555
H10_14 C8_14 1_555 1_555
N6_10 Zn3_6 1_555 1_555
C5_14 N3_10 1_555 1_555
C8_14 N6_5 1_555 1_555
C5_15 C7_15 1_555 1_555
C7_15 H6_15 1_555 1_555
H7_15 C7_15 1_555 1_555
H9_15 C7_15 1_555 1_555
C6_15 N3_11 1_555 1_555
N3_11 Zn3_12 1_555 1_555
H8_15 C6_15 1_555 1_555
C8_15 C6_15 1_555 1_555
H10_15 C8_15 1_555 1_555
C8_15 N6_10 1_555 1_555
C5_16 C7_16 1_555 1_555
C6_16 N3_12 1_555 1_555
C7_16 H6_16 1_555 1_555
N3_12 Zn3_9 1_555 1_555
H7_16 C7_16 1_555 1_555
H8_16 C6_16 1_555 1_555
C8_16 C6_16 1_555 1_555
N6_9 C5_16 1_555 1_555
H9_16 C7_16 1_555 1_555
H10_16 C8_16 1_555 1_555
C5_16 N3_12 1_555 1_555
C8_16 N6_9 1_555 1_555

#END
