
###############################################################################
#
# This file contains modified crystal structure data generated from the
# MOF subset of the Cambridge Structural Database (CSD) v543 
# hosted by the Cambridge Crystallographic Data Centre (CCDC).
#
# This work is licensed under the Creative Commons
# Attribution-NonCommercial-ShareAlike 4.0 International License.
# To view a copy of this license, visit
# http://creativecommons.org/licenses/by-nc-sa/4.0/
# or send a letter to
# Creative Commons, PO Box 1866, Mountain View, CA 94042, USA.
#
# CIF created using the CSD Python API on 29 September 2022
# The structure has been converted into the P1 space group
# The structure has a 3D framework
# The original CSD entry NIFXIM is in the triclinic crystal system
# The framework has been calculated to contain at least 10.0% void space
# The void calculation uses a probe of radius 1.32A, grid spacing 0.4
#
###############################################################################

data_NIFXIM
_chemical_formula_moiety         '(C132 H84 N6 O24 Zn5)n'
_symmetry_cell_setting           triclinic
_symmetry_space_group_name_H-M   'P 1'
_symmetry_Int_Tables_number      1
_space_group_name_Hall           'P 1'
loop_
_symmetry_equiv_pos_site_id
_symmetry_equiv_pos_as_xyz
1 x,y,z
_cell_length_a                   15.130(2)
_cell_length_b                   15.231(2)
_cell_length_c                   18.253(3)
_cell_angle_alpha                84.956(5)
_cell_angle_beta                 74.141(4)
_cell_angle_gamma                83.962(5)
_cell_volume                     4016.06
loop_
_atom_site_label
_atom_site_type_symbol
_atom_site_fract_x
_atom_site_fract_y
_atom_site_fract_z
O7 O 0.7624(2) 0.2049(2) 0.27791(19)
O8 O 0.7361(3) 0.1905(2) 0.40491(19)
C24 C 0.7482(3) 0.0252(3) 0.2700(3)
H14 H 0.752237 0.062528 0.224849
C25 C 0.7431(3) 0.0620(3) 0.3389(3)
C26 C 0.7353(4) 0.0069(3) 0.4038(3)
H15 H 0.729391 0.031335 0.451230
C28 C 0.7475(3) 0.1598(3) 0.3404(3)
Zn4 Zn 0.73078(4) 0.32292(4) 0.41442(3)
Zn7 Zn 0.78317(4) 0.33415(4) 0.24535(3)
N2 N 0.7778(3) 0.3331(2) 0.1360(2)
C41 C 0.7673(4) 0.4124(3) 0.0192(3)
C42 C 0.7727(4) 0.4088(3) 0.0937(3)
H26 H 0.772689 0.462831 0.116114
C43 C 0.7777(3) 0.2579(3) 0.1033(3)
H27 H 0.781622 0.203503 0.132460
C44 C 0.7723(4) 0.2558(3) 0.0298(3)
H28 H 0.771909 0.200663 0.009313
O1 O 0.5978(2) 0.3323(2) 0.4099(2)
O2 O 0.6426(2) 0.3636(2) 0.2842(2)
O5 O 0.7349(2) 0.4553(2) 0.38437(19)
O6 O 0.7939(2) 0.4652(2) 0.25748(19)
N1 N 0.7294(3) 0.3276(3) 0.5257(2)
C1 C 0.5823(3) 0.3500(3) 0.3451(3)
C2 C 0.4850(3) 0.3540(3) 0.3409(3)
C3 C 0.4125(3) 0.3456(4) 0.4060(3)
H1 H 0.424301 0.340972 0.454747
C4 C 0.3239(4) 0.3439(4) 0.4010(3)
H2 H 0.275333 0.338944 0.446497
C5 C 0.3035(3) 0.3494(3) 0.3309(3)
C6 C 0.3762(4) 0.3619(4) 0.2659(3)
H3 H 0.364445 0.368601 0.217126
C7 C 0.4649(3) 0.3646(4) 0.2714(3)
H4 H 0.513119 0.374060 0.226371
C8 C 0.2081(3) 0.3416(3) 0.3251(3)
C9 C 0.1368(3) 0.3210(4) 0.3902(3)
H5 H 0.149512 0.313557 0.438584
C10 C 0.0492(3) 0.3114(3) 0.3857(3)
H6 H 0.002133 0.298340 0.430660
C11 C 0.0294(3) 0.3207(3) 0.3150(3)
C12 C 0.0990(3) 0.3403(3) 0.2503(3)
H7 H 0.086430 0.346068 0.201804
C13 C 0.1869(3) 0.3515(3) 0.2554(3)
H8 H 0.233288 0.366110 0.210424
C15 C 0.7627(3) 0.4982(3) 0.3213(3)
C16 C 0.7584(3) 0.5968(3) 0.3229(3)
C17 C 0.7947(4) 0.6493(4) 0.2589(3)
H9 H 0.822628 0.622716 0.211984
C18 C 0.7914(4) 0.7403(3) 0.2615(3)
H10 H 0.819123 0.775047 0.216866
C19 C 0.7478(3) 0.7814(3) 0.3289(3)
C20 C 0.7091(4) 0.7279(3) 0.3931(3)
H11 H 0.677611 0.754072 0.439496
C21 C 0.7159(4) 0.6367(3) 0.3899(3)
H12 H 0.690847 0.601160 0.434685
C22 C 0.7424(3) 0.8788(3) 0.3329(3)
C23 C 0.7476(3) 0.9354(3) 0.2674(3)
H13 H 0.750651 0.911327 0.220395
C27 C 0.7358(4) 0.9166(3) 0.4010(3)
H16 H 0.731677 0.879650 0.446279
C29 C 0.7482(4) 0.4009(3) 0.5518(3)
H17 H 0.756780 0.452481 0.518283
C30 C 0.7556(4) 0.4053(4) 0.6244(3)
H18 H 0.769202 0.459032 0.640097
C31 C 0.7435(4) 0.3316(3) 0.6750(3)
C32 C 0.7231(5) 0.2557(4) 0.6476(3)
H19 H 0.713984 0.203233 0.679952
C33 C 0.7162(4) 0.2565(3) 0.5744(3)
H20 H 0.701292 0.204051 0.557428
C34 C 0.7507(4) 0.3327(3) 0.7544(3)
C35 C 0.7191(4) 0.4072(4) 0.7960(3)
H21 H 0.693082 0.458209 0.773134
C36 C 0.7250(4) 0.4084(4) 0.8703(3)
H22 H 0.702257 0.459698 0.897994
C37 C 0.7640(4) 0.3351(3) 0.9043(3)
C38 C 0.7963(4) 0.2607(3) 0.8628(3)
H23 H 0.823296 0.210130 0.885494
C39 C 0.7895(4) 0.2594(3) 0.7884(3)
H24 H 0.811660 0.207937 0.760828
C40 C 0.7674(3) 0.3342(3) 0.9850(3)
H25 H 0.763602 0.467820 0.991470
O10 O 0.8713(2) 0.3135(2) 0.37411(19)
O3 O 0.9179(2) 0.3127(2) 0.24700(19)
C14 C 0.9318(3) 0.3148(3) 0.3117(3)
Zn2 Zn 0.21683(4) 0.66585(4) 0.75465(3)
O3_2 O 0.0821(2) 0.6873(2) 0.75300(19)
O4 O 0.1287(2) 0.6865(2) 0.62589(19)
C14_2 C 0.0682(3) 0.6852(3) 0.6883(3)
Zn3 Zn 0.26922(4) 0.67708(4) 0.58558(3)
O9 O 0.3574(2) 0.6364(2) 0.7158(2)
O11 O 0.2061(2) 0.5348(2) 0.74252(19)
O12 O 0.2376(2) 0.7951(2) 0.72209(19)
N3 N 0.2222(3) 0.6669(2) 0.8640(2)
O1_2 O 0.4022(2) 0.6677(2) 0.5901(2)
O5_2 O 0.2651(2) 0.5447(2) 0.61563(19)
N1_2 N 0.2706(3) 0.6724(3) 0.4743(2)
C1_2 C 0.4177(3) 0.6500(3) 0.6549(3)
C2_2 C 0.5150(3) 0.6460(3) 0.6591(3)
C3_2 C 0.5875(3) 0.6544(4) 0.5940(3)
H1_2 H 0.575699 0.659028 0.545253
C4_2 C 0.6761(4) 0.6561(4) 0.5990(3)
H2_2 H 0.724667 0.661056 0.553503
C5_2 C 0.6965(3) 0.6506(3) 0.6691(3)
C6_2 C 0.6238(4) 0.6381(4) 0.7341(3)
H3_2 H 0.635555 0.631399 0.782874
C7_2 C 0.5351(3) 0.6354(4) 0.7286(3)
H4_2 H 0.486881 0.625940 0.773629
C8_2 C 0.7919(3) 0.6584(3) 0.6749(3)
C9_2 C 0.8632(3) 0.6790(4) 0.6098(3)
H5_2 H 0.850488 0.686443 0.561416
C10_2 C 0.9508(3) 0.6886(3) 0.6143(3)
H6_2 H 0.997867 0.701660 0.569340
C11_2 C 0.9706(3) 0.6793(3) 0.6850(3)
C12_2 C 0.9010(3) 0.6597(3) 0.7497(3)
H7_2 H 0.913570 0.653932 0.798196
C13_2 C 0.8131(3) 0.6485(3) 0.7446(3)
H8_2 H 0.766712 0.633890 0.789576
C15_2 C 0.2373(3) 0.5018(3) 0.6787(3)
C16_2 C 0.2416(3) 0.4032(3) 0.6771(3)
C17_2 C 0.2053(4) 0.3507(4) 0.7411(3)
H9_2 H 0.177372 0.377284 0.788016
C18_2 C 0.2086(4) 0.2597(3) 0.7385(3)
H10_2 H 0.180877 0.224953 0.783134
C19_2 C 0.2522(3) 0.2186(3) 0.6711(3)
C20_2 C 0.2909(4) 0.2721(3) 0.6069(3)
H11_2 H 0.322389 0.245928 0.560504
C21_2 C 0.2841(4) 0.3633(3) 0.6101(3)
H12_2 H 0.309153 0.398840 0.565315
C22_2 C 0.2576(3) 0.1212(3) 0.6671(3)
C23_2 C 0.2524(3) 0.0646(3) 0.7326(3)
H13_2 H 0.249349 0.088673 0.779605
C27_2 C 0.2642(4) 0.0834(3) 0.5990(3)
H16_2 H 0.268323 0.120350 0.553721
C29_2 C 0.2518(4) 0.5991(3) 0.4482(3)
H17_2 H 0.243220 0.547519 0.481717
C30_2 C 0.2444(4) 0.5947(4) 0.3756(3)
H18_2 H 0.230798 0.540968 0.359903
C31_2 C 0.2565(4) 0.6684(3) 0.3250(3)
C32_2 C 0.2769(5) 0.7443(4) 0.3524(3)
H19_2 H 0.286016 0.796767 0.320048
C33_2 C 0.2838(4) 0.7435(3) 0.4256(3)
H20_2 H 0.298708 0.795949 0.442572
C34_2 C 0.2493(4) 0.6673(3) 0.2456(3)
C35_2 C 0.2809(4) 0.5928(4) 0.2040(3)
H21_2 H 0.306918 0.541791 0.226866
C36_2 C 0.2750(4) 0.5916(4) 0.1297(3)
H22_2 H 0.297743 0.540302 0.102006
C37_2 C 0.2360(4) 0.6649(3) 0.0957(3)
C38_2 C 0.2037(4) 0.7393(3) 0.1372(3)
H23_2 H 0.176704 0.789870 0.114506
C39_2 C 0.2105(4) 0.7406(3) 0.2116(3)
H24_2 H 0.188340 0.792063 0.239172
C40_2 C 0.2326(3) 0.6658(3) 0.0150(3)
H25_2 H 0.236398 0.532180 0.008530
O13 O 0.2639(3) 0.8095(2) 0.59509(19)
C41_2 C 0.2327(4) 0.5876(3) 0.9808(3)
C42_2 C 0.2273(4) 0.5912(3) 0.9063(3)
H26_2 H 0.227311 0.537169 0.883886
C43_2 C 0.2223(3) 0.7421(3) 0.8967(3)
H27_2 H 0.218378 0.796497 0.867540
C44_2 C 0.2277(4) 0.7442(3) 0.9702(3)
H28_2 H 0.228091 0.799337 0.990687
C24_2 C 0.2518(3) 0.9748(3) 0.7300(3)
H14_2 H 0.247763 0.937472 0.775151
C25_2 C 0.2569(3) 0.9380(3) 0.6611(3)
C26_2 C 0.2647(4) 0.9931(3) 0.5962(3)
H15_2 H 0.270609 0.968665 0.548770
C28_2 C 0.2525(3) 0.8402(3) 0.6596(3)
Zn14 Zn 0.02549(4) 0.00516(4) 0.91545(3)
C58 C 0.0043(3) 0.3039(3) 0.0580(3)
H36 H 0.000738 0.266592 0.103095
N5 N 0.0242(3) 0.0001(3) 0.8051(2)
C84 C 0.0216(4) 0.0773(3) 0.6864(3)
H53 H 0.023885 0.131921 0.656708
C85 C 0.0262(3) 0.0745(3) 0.7602(3)
H54 H 0.031120 0.128343 0.780750
O17 O 0.0330(3) 0.1375(2) 0.9219(2)
C52 C 0.0140(3) 0.1688(3) 0.9869(3)
C53 C 0.0144(3) 0.2667(3) 0.9895(3)
C54 C 0.0214(5) 0.3222(4) 0.9250(3)
H33 H 0.029115 0.298073 0.877131
C55 C 0.0173(5) 0.4128(4) 0.9291(3)
H34 H 0.023043 0.449699 0.883626
C56 C 0.0050(4) 0.4513(3) 0.9975(3)
O20 O 0.0058(2) 0.8758(2) 0.95071(19)
C79 C 0.0006(3) 0.6057(3) 0.9381(3)
H49 H 0.007943 0.581832 0.890251
C65 C 0.0340(4) 0.9270(3) 0.4578(3)
H41 H 0.057778 0.876645 0.429067
C66 C 0.0409(4) 0.9268(3) 0.5320(3)
H42 H 0.068995 0.876150 0.553724
C81 C 0.0177(3) 0.9249(3) 0.7750(3)
H51 H 0.017448 0.871259 0.805868
C82 C 0.0114(4) 0.9214(3) 0.7016(3)
H52 H 0.005849 0.866615 0.682891
C83 C 0.0134(3) 0.9992(3) 0.6548(3)
C86 C 0.0073(4) 0.9998(3) 0.5749(3)
O23 O 0.1152(2) 0.9685(2) 0.0468(2)
O14 O 0.8412(2) 0.0134(2) 0.0799(2)
O16 O 0.9942(2) 0.1242(2) 0.04929(19)
C45 C 0.8254(3) 0.0221(3) 0.0153(3)
C46 C 0.7280(3) 0.0204(3) 0.0118(3)
C49 C 0.5472(3) 0.0049(3) 0.0027(3)
C57 C 0.9994(3) 0.3943(3) 0.0619(3)
H35 H 0.992057 0.418168 0.109749
C59 C 0.9823(3) 0.0751(3) 0.2250(3)
H37 H 0.982552 0.128741 0.194132
C60 C 0.9886(4) 0.0786(3) 0.2984(3)
H38 H 0.994151 0.133385 0.317109
C61 C 0.9866(3) 0.0008(3) 0.3452(3)
C64 C 0.9927(4) 0.0002(3) 0.4251(3)
O21 O 0.9670(3) 0.8625(2) 0.0781(2)
C74 C 0.9860(3) 0.8312(3) 0.0131(3)
C75 C 0.9856(3) 0.7333(3) 0.0105(3)
C76 C 0.9786(5) 0.6778(4) 0.0750(3)
H47 H 0.970885 0.701927 0.122869
C77 C 0.9827(5) 0.5872(4) 0.0709(3)
H48 H 0.976957 0.550301 0.116374
C78 C 0.9950(4) 0.5487(3) 0.0025(3)
C87 C 0.9660(4) 0.0730(3) 0.5422(3)
H55 H 0.942222 0.123355 0.570933
C88 C 0.9591(4) 0.0732(3) 0.4680(3)
H56 H 0.931005 0.123850 0.446276
Zn11 Zn 0.97451(4) 0.99484(4) 0.08455(3)
O15 O 0.8848(2) 0.0315(2) 0.9532(2)
C50 C 0.6169(3) 0.0293(3) 0.9387(3)
H31 H 0.603188 0.041418 0.890883
C51 C 0.7053(4) 0.0361(3) 0.9434(3)
H32 H 0.751410 0.051988 0.898677
C69 C 0.3412(4) 0.0014(5) 0.9240(3)
H43 H 0.328340 0.010415 0.875606
C70 C 0.4288(4) 0.0102(6) 0.9299(4)
H44 H 0.474441 0.027432 0.885259
C80 C 0.9957(3) 0.6961(3) 0.9420(3)
H50 H 0.999262 0.733408 0.896905
N4 N 0.9758(3) 0.9999(3) 0.1949(2)
C47 C 0.6588(4) 0.9986(5) 0.0760(3)
H29 H 0.671660 0.989585 0.124394
C48 C 0.5712(4) 0.9898(6) 0.0701(4)
H30 H 0.525559 0.972568 0.114741
C62 C 0.9784(4) 0.9227(3) 0.3136(3)
H39 H 0.976115 0.868079 0.343292
C63 C 0.9738(3) 0.9255(3) 0.2398(3)
H40 H 0.968880 0.871657 0.219250
C72 C 0.3831(3) 0.9707(3) 0.0613(3)
H45 H 0.396812 0.958582 0.109117
C73 C 0.2947(4) 0.9639(3) 0.0566(3)
H46 H 0.248590 0.948012 0.101323
O18 O 0.1588(2) 0.9866(2) 0.9201(2)
C67 C 0.1746(3) 0.9779(3) 0.9847(3)
C68 C 0.2720(3) 0.9796(3) 0.9882(3)
C71 C 0.4528(3) 0.9951(3) 0.9973(3)
loop_
_geom_bond_atom_site_label_1
_geom_bond_atom_site_label_2
_geom_bond_site_symmetry_1
_geom_bond_site_symmetry_2
O7 C28 1_555 1_555
O8 C28 1_555 1_555
H14 C24 1_555 1_555
C25 C24 1_555 1_555
C26 C25 1_555 1_555
H15 C26 1_555 1_555
C28 C25 1_555 1_555
Zn4 O8 1_555 1_555
Zn7 O7 1_555 1_555
N2 C42 1_555 1_555
C42 C41 1_555 1_555
H26 C42 1_555 1_555
C43 N2 1_555 1_555
H27 C43 1_555 1_555
H28 C44 1_555 1_555
Zn7 N2 1_555 1_555
C43 C44 1_555 1_555
Zn4 O1 1_555 1_555
O1 C1 1_555 1_555
O2 C1 1_555 1_555
O5 Zn4 1_555 1_555
O6 C15 1_555 1_555
N1 Zn4 1_555 1_555
C1 C2 1_555 1_555
C2 C3 1_555 1_555
C3 H1 1_555 1_555
C4 C3 1_555 1_555
H2 C4 1_555 1_555
C5 C4 1_555 1_555
C6 C5 1_555 1_555
H3 C6 1_555 1_555
C7 C2 1_555 1_555
H4 C7 1_555 1_555
C8 C5 1_555 1_555
C9 C8 1_555 1_555
H5 C9 1_555 1_555
C10 C9 1_555 1_555
H6 C10 1_555 1_555
C11 C10 1_555 1_555
C12 C11 1_555 1_555
H7 C12 1_555 1_555
C13 C8 1_555 1_555
H8 C13 1_555 1_555
C15 O5 1_555 1_555
C16 C15 1_555 1_555
C17 C16 1_555 1_555
H9 C17 1_555 1_555
C18 C17 1_555 1_555
H10 C18 1_555 1_555
C19 C18 1_555 1_555
C20 C19 1_555 1_555
H11 C20 1_555 1_555
C21 C16 1_555 1_555
H12 C21 1_555 1_555
C22 C19 1_555 1_555
C23 C22 1_555 1_555
H13 C23 1_555 1_555
C27 C22 1_555 1_555
H16 C27 1_555 1_555
C29 N1 1_555 1_555
H17 C29 1_555 1_555
C30 C29 1_555 1_555
H18 C30 1_555 1_555
C31 C30 1_555 1_555
C32 C31 1_555 1_555
H19 C32 1_555 1_555
C33 N1 1_555 1_555
H20 C33 1_555 1_555
C34 C31 1_555 1_555
C35 C34 1_555 1_555
H21 C35 1_555 1_555
C36 C35 1_555 1_555
H22 C36 1_555 1_555
C37 C36 1_555 1_555
C38 C37 1_555 1_555
H23 C38 1_555 1_555
C39 C34 1_555 1_555
H24 C39 1_555 1_555
C40 C37 1_555 1_555
Zn7 O2 1_555 1_555
O10 Zn4 1_555 1_555
O6 Zn7 1_555 1_555
C6 C7 1_555 1_555
C12 C13 1_555 1_555
C20 C21 1_555 1_555
C32 C33 1_555 1_555
C38 C39 1_555 1_555
Zn7 O3 1_555 1_555
O3 C14 1_555 1_555
O10 C14 1_555 1_555
Zn2 O3_2 1_555 1_555
O3_2 C14_2 1_555 1_555
O4 C14_2 1_555 1_555
Zn3 O4 1_555 1_555
O9 Zn2 1_555 1_555
O11 Zn2 1_555 1_555
O12 Zn2 1_555 1_555
N3 Zn2 1_555 1_555
Zn3 O1_2 1_555 1_555
O1_2 C1_2 1_555 1_555
O9 C1_2 1_555 1_555
O5_2 Zn3 1_555 1_555
O11 C15_2 1_555 1_555
N1_2 Zn3 1_555 1_555
C1_2 C2_2 1_555 1_555
C2_2 C3_2 1_555 1_555
C3_2 H1_2 1_555 1_555
C4_2 C3_2 1_555 1_555
H2_2 C4_2 1_555 1_555
C5_2 C4_2 1_555 1_555
C6_2 C5_2 1_555 1_555
H3_2 C6_2 1_555 1_555
C7_2 C2_2 1_555 1_555
H4_2 C7_2 1_555 1_555
C8_2 C5_2 1_555 1_555
C9_2 C8_2 1_555 1_555
H5_2 C9_2 1_555 1_555
C10_2 C9_2 1_555 1_555
H6_2 C10_2 1_555 1_555
C11_2 C10_2 1_555 1_555
C12_2 C11_2 1_555 1_555
H7_2 C12_2 1_555 1_555
C13_2 C8_2 1_555 1_555
H8_2 C13_2 1_555 1_555
C15_2 O5_2 1_555 1_555
C16_2 C15_2 1_555 1_555
C17_2 C16_2 1_555 1_555
H9_2 C17_2 1_555 1_555
C18_2 C17_2 1_555 1_555
H10_2 C18_2 1_555 1_555
C19_2 C18_2 1_555 1_555
C20_2 C19_2 1_555 1_555
H11_2 C20_2 1_555 1_555
C21_2 C16_2 1_555 1_555
H12_2 C21_2 1_555 1_555
C22_2 C19_2 1_555 1_555
C23_2 C22_2 1_555 1_555
H13_2 C23_2 1_555 1_555
C27_2 C22_2 1_555 1_555
H16_2 C27_2 1_555 1_555
C29_2 N1_2 1_555 1_555
H17_2 C29_2 1_555 1_555
C30_2 C29_2 1_555 1_555
H18_2 C30_2 1_555 1_555
C31_2 C30_2 1_555 1_555
C32_2 C31_2 1_555 1_555
H19_2 C32_2 1_555 1_555
C33_2 N1_2 1_555 1_555
H20_2 C33_2 1_555 1_555
C34_2 C31_2 1_555 1_555
C35_2 C34_2 1_555 1_555
H21_2 C35_2 1_555 1_555
C36_2 C35_2 1_555 1_555
H22_2 C36_2 1_555 1_555
C37_2 C36_2 1_555 1_555
C38_2 C37_2 1_555 1_555
H23_2 C38_2 1_555 1_555
C39_2 C34_2 1_555 1_555
H24_2 C39_2 1_555 1_555
C40_2 C37_2 1_555 1_555
O13 Zn3 1_555 1_555
C6_2 C7_2 1_555 1_555
C12_2 C13_2 1_555 1_555
C20_2 C21_2 1_555 1_555
C32_2 C33_2 1_555 1_555
C38_2 C39_2 1_555 1_555
N3 C42_2 1_555 1_555
C42_2 C41_2 1_555 1_555
H26_2 C42_2 1_555 1_555
C43_2 N3 1_555 1_555
H27_2 C43_2 1_555 1_555
H28_2 C44_2 1_555 1_555
C43_2 C44_2 1_555 1_555
O12 C28_2 1_555 1_555
O13 C28_2 1_555 1_555
H14_2 C24_2 1_555 1_555
C25_2 C24_2 1_555 1_555
C26_2 C25_2 1_555 1_555
H15_2 C26_2 1_555 1_555
C28_2 C25_2 1_555 1_555
H36 C58 1_555 1_555
H53 C84 1_555 1_555
C85 N5 1_555 1_555
H54 C85 1_555 1_555
Zn14 N5 1_555 1_555
C84 C85 1_555 1_555
O17 C52 1_555 1_555
C53 C52 1_555 1_555
C54 C53 1_555 1_555
H33 C54 1_555 1_555
C55 C54 1_555 1_555
H34 C55 1_555 1_555
C56 C55 1_555 1_555
H49 C79 1_555 1_555
O17 Zn14 1_555 1_555
H41 C65 1_555 1_555
C66 C65 1_555 1_555
H42 C66 1_555 1_555
C81 H51 1_555 1_555
C82 C81 1_555 1_555
H52 C82 1_555 1_555
C83 C82 1_555 1_555
C86 C66 1_555 1_555
C83 C86 1_555 1_555
O14 C45 1_555 1_555
C45 C46 1_555 1_555
H35 C57 1_555 1_555
H37 C59 1_555 1_555
C60 C59 1_555 1_555
H38 C60 1_555 1_555
C61 C60 1_555 1_555
C64 C61 1_555 1_555
O21 C74 1_555 1_555
C74 C75 1_555 1_555
C75 C76 1_555 1_555
C76 H47 1_555 1_555
C77 C76 1_555 1_555
H48 C77 1_555 1_555
H55 C87 1_555 1_555
C88 C64 1_555 1_555
H56 C88 1_555 1_555
Zn11 O21 1_555 1_555
C77 C78 1_555 1_555
C87 C88 1_555 1_555
H31 C50 1_555 1_555
H32 C51 1_555 1_555
C69 H43 1_555 1_555
C70 C69 1_555 1_555
H44 C70 1_555 1_555
H50 C80 1_555 1_555
C50 C51 1_555 1_555
N4 Zn11 1_555 1_555
C47 H29 1_555 1_555
C48 C47 1_555 1_555
H30 C48 1_555 1_555
H39 C62 1_555 1_555
C63 N4 1_555 1_555
H40 C63 1_555 1_555
H45 C72 1_555 1_555
H46 C73 1_555 1_555
C62 C63 1_555 1_555
C72 C73 1_555 1_555
O18 C67 1_555 1_555
C67 C68 1_555 1_555

#END
