
###############################################################################
#
# This file contains modified crystal structure data generated from the
# MOF subset of the Cambridge Structural Database (CSD) v543 
# hosted by the Cambridge Crystallographic Data Centre (CCDC).
#
# This work is licensed under the Creative Commons
# Attribution-NonCommercial-ShareAlike 4.0 International License.
# To view a copy of this license, visit
# http://creativecommons.org/licenses/by-nc-sa/4.0/
# or send a letter to
# Creative Commons, PO Box 1866, Mountain View, CA 94042, USA.
#
# CIF created using the CSD Python API on 29 September 2022
# The structure has been converted into the P1 space group
# The structure has a 3D framework
# The original CSD entry NIFXEI is in the triclinic crystal system
# The framework has been calculated to contain at least 10.0% void space
# The void calculation uses a probe of radius 1.32A, grid spacing 0.4
#
###############################################################################

data_NIFXEI
_chemical_formula_moiety         '(C44 H28 N2 O8 Zn2)n'
_symmetry_cell_setting           triclinic
_symmetry_space_group_name_H-M   'P 1'
_symmetry_Int_Tables_number      1
_space_group_name_Hall           'P 1'
loop_
_symmetry_equiv_pos_site_id
_symmetry_equiv_pos_as_xyz
1 x,y,z
_cell_length_a                   9.4920(19)
_cell_length_b                   10.295(2)
_cell_length_c                   11.107(2)
_cell_angle_alpha                91.229(7)
_cell_angle_beta                 101.020(7)
_cell_angle_gamma                99.072(7)
_cell_volume                     1050.55
loop_
_atom_site_label
_atom_site_type_symbol
_atom_site_fract_x
_atom_site_fract_y
_atom_site_fract_z
_atom_site_U_iso_or_equiv
_atom_site_thermal_displace_type
H12 H 0.1940 0.0500 0.4110 0.0700 Uiso
H15 H 0.0800 0.1959 0.4283 0.0360 Uiso
C16 C 0.0441(6) 0.1348(6) 0.0216(5) 0.0510 Uani
H8 H 0.0743 0.2271 0.0365 0.0610 Uiso
Zn1 Zn 0.39959(6) 0.40360(5) 0.55308(5) 0.0234 Uani
O1 O 0.4116(3) 0.6717(3) 0.4226(3) 0.0343 Uani
O2 O 0.2538(3) 0.5258(3) 0.4987(3) 0.0347 Uani
O3 O 0.4994(4) 0.4443(3) 0.3177(3) 0.0399 Uani
N1 N 0.2965(4) 0.2953(4) 0.6705(3) 0.0285 Uani
O4 O 0.3456(3) 0.2929(3) 0.3904(3) 0.0350 Uani
C1 C 0.2952(5) 0.6376(4) 0.4612(5) 0.0306 Uani
C2 C 0.2050(5) 0.3483(5) 0.7272(5) 0.0375 Uani
H1 H 0.1912 0.4364 0.7121 0.0450 Uiso
C3 C 0.0025(5) 0.8210(4) 0.5342(4) 0.0301 Uani
C4 C 0.0413(5) 0.9452(4) 0.4930(5) 0.0331 Uani
C5 C 0.0819(5) 0.7202(4) 0.5217(5) 0.0317 Uani
H3 H 0.0526 0.6359 0.5505 0.0380 Uiso
C6 C 0.2031(5) 0.7417(4) 0.4678(5) 0.0312 Uani
C7 C 0.3149(5) 0.1713(5) 0.6928(5) 0.0370 Uani
H4 H 0.3805 0.1337 0.6533 0.0440 Uiso
C8 C 0.4860(5) 0.0487(5) 0.0443(5) 0.0368 Uani
C9 C 0.0717(5) 0.0717(6) 0.9175(5) 0.0454 Uani
C10 C 0.1501(5) 0.1497(5) 0.8310(5) 0.0420 Uani
C11 C 0.4253(5) 0.3318(5) 0.3148(4) 0.0333 Uani
C12 C 0.4391(5) 0.2346(5) 0.2161(4) 0.0347 Uani
C13 C 0.1300(6) 0.2789(5) 0.8069(5) 0.0423 Uani
H5 H 0.0651 0.3188 0.8452 0.0510 Uiso
C14 C 0.4047(6) 0.0133(5) 0.1306(5) 0.0443 Uani
C17 C 0.2436(5) 0.0959(5) 0.7702(5) 0.0467 Uani
H9 H 0.2583 0.0075 0.7820 0.0560 Uiso
C18 C 0.2419(6) 0.8659(5) 0.4260(6) 0.0525 Uani
H10 H 0.3238 0.8824 0.3877 0.0630 Uiso
C19 C 0.3816(7) 0.1050(5) 0.2146(5) 0.0465 Uani
H11 H 0.3237 0.0764 0.2730 0.0560 Uiso
C20 C 0.1638(7) 0.9656(5) 0.4392(7) 0.0587 Uani
C21 C 0.5185(12) 0.2719(7) 0.1296(8) 0.1184 Uani
H13 H 0.5587 0.3620 0.1265 0.1420 Uiso
C22 C 0.5417(12) 0.1795(7) 0.0451(9) 0.1310 Uani
Zn7 Zn 0.60041(6) 0.59640(5) 0.44692(5) 0.0234 Uani
O10 O 0.5884(3) 0.3283(3) 0.5774(3) 0.0343 Uani
O13 O 0.5006(4) 0.5557(3) 0.6823(3) 0.0399 Uani
O8 O 0.6544(3) 0.7071(3) 0.6096(3) 0.0350 Uani
C30 C 0.5140(5) 0.9513(5) 0.9557(5) 0.0368 Uani
C31 C 0.5747(5) 0.6682(5) 0.6852(4) 0.0333 Uani
C32 C 0.5609(5) 0.7654(5) 0.7839(4) 0.0347 Uani
C33 C 0.5953(6) 0.9867(5) 0.8694(5) 0.0443 Uani
C34 C 0.6184(7) 0.8950(5) 0.7854(5) 0.0465 Uani
H20 H 0.6763 0.9236 0.7270 0.0560 Uiso
C35 C 0.4815(12) 0.7281(7) 0.8704(8) 0.1184 Uani
H21 H 0.4413 0.6380 0.8735 0.1420 Uiso
C36 C 0.4583(12) 0.8205(7) 0.9549(9) 0.1310 Uani
O6 O 0.7462(3) 0.4742(3) 0.5013(3) 0.0347 Uani
C23 C 0.7048(5) 0.3624(4) 0.5388(5) 0.0306 Uani
C24 C 0.9975(5) 0.1790(4) 0.4658(4) 0.0301 Uani
C25 C 0.9587(5) 0.0548(4) 0.5070(5) 0.0331 Uani
C26 C 0.9181(5) 0.2798(4) 0.4783(5) 0.0317 Uani
H16 H 0.9474 0.3641 0.4495 0.0380 Uiso
C27 C 0.7969(5) 0.2583(4) 0.5322(5) 0.0312 Uani
C28 C 0.7581(6) 0.1341(5) 0.5740(6) 0.0525 Uani
H17 H 0.6762 0.1176 0.6123 0.0630 Uiso
C29 C 0.8362(7) 0.0344(5) 0.5608(7) 0.0587 Uani
N2 N 0.7035(4) 0.7047(4) 0.3295(3) 0.0285 Uani
C37 C 0.7950(5) 0.6517(5) 0.2728(5) 0.0375 Uani
H23 H 0.8088 0.5636 0.2879 0.0450 Uiso
C38 C 0.6851(5) 0.8287(5) 0.3072(5) 0.0370 Uani
H24 H 0.6195 0.8663 0.3467 0.0440 Uiso
C39 C 0.9283(5) 0.9283(6) 0.0825(5) 0.0454 Uani
C40 C 0.8499(5) 0.8503(5) 0.1690(5) 0.0420 Uani
C41 C 0.8700(6) 0.7211(5) 0.1931(5) 0.0423 Uani
H25 H 0.9349 0.6812 0.1548 0.0510 Uiso
C44 C 0.7564(5) 0.9041(5) 0.2298(5) 0.0467 Uani
H28 H 0.7417 0.9925 0.2180 0.0560 Uiso
H14 H 0.5984 0.2085 0.9859 0.1570 Uiso
H19 H 0.6372 0.0765 0.8669 0.0530 Uiso
C42 C 0.9726(6) 0.0627(6) 0.1031(5) 0.0502 Uani
H26 H 0.9541 0.1061 0.1734 0.0610 Uiso
H6 H 0.3628 0.9235 0.1331 0.0530 Uiso
C15 C 0.0274(6) 0.9373(6) 0.8969(5) 0.0502 Uani
H7 H 0.0459 0.8939 0.8266 0.0610 Uiso
H22 H 0.4016 0.7915 0.0141 0.1570 Uiso
H2 H 0.9200 0.8041 0.5717 0.0360 Uiso
H18 H 0.8060 0.9500 0.5890 0.0700 Uiso
C43 C 0.9559(6) 0.8652(6) 0.9784(5) 0.0510 Uani
H27 H 0.9257 0.7729 0.9635 0.0610 Uiso
loop_
_atom_site_aniso_label
_atom_site_aniso_U_11
_atom_site_aniso_U_22
_atom_site_aniso_U_33
_atom_site_aniso_U_23
_atom_site_aniso_U_13
_atom_site_aniso_U_12
C16 0.047 0.06 0.043 0.022 0.014 -0.009
Zn1 0.0288 0.0155 0.032 0.0059 0.0189 0.0062
O1 0.0321 0.0257 0.054 0.013 0.0234 0.012
O2 0.0342 0.0211 0.056 0.0114 0.0215 0.0101
O3 0.047 0.0298 0.046 -0.0053 0.0239 -0.0012
N1 0.0272 0.027 0.035 0.0103 0.0144 0.0048
O4 0.038 0.0286 0.044 -0.002 0.0238 0.0041
C1 0.032 0.023 0.042 0.005 0.015 0.0103
C2 0.042 0.033 0.045 0.012 0.026 0.006
C3 0.027 0.022 0.046 0.007 0.016 0.007
C4 0.033 0.023 0.05 0.01 0.018 0.012
C5 0.029 0.02 0.051 0.009 0.016 0.0083
C6 0.032 0.022 0.046 0.01 0.017 0.011
C7 0.03 0.034 0.056 0.022 0.024 0.011
C8 0.039 0.035 0.037 -0.009 0.016 -0.001
C9 0.031 0.065 0.037 0.025 0.008 -0.006
C10 0.03 0.056 0.041 0.024 0.014 -0.001
C11 0.035 0.032 0.035 -0.003 0.013 0.005
C12 0.04 0.031 0.033 -0.005 0.013 -0.001
C13 0.041 0.048 0.046 0.014 0.027 0.008
C14 0.064 0.024 0.055 0.001 0.034 0.011
C17 0.034 0.045 0.068 0.036 0.019 0.012
C18 0.048 0.032 0.099 0.031 0.052 0.022
C19 0.072 0.029 0.053 0.007 0.042 0.015
C20 0.062 0.03 0.109 0.035 0.061 0.025
C21 0.195 0.046 0.128 -0.045 0.137 -0.06
C22 0.222 0.048 0.141 -0.056 0.16 -0.067
Zn7 0.0288 0.0155 0.032 0.0059 0.0189 0.0062
O10 0.0321 0.0257 0.054 0.013 0.0234 0.012
O13 0.047 0.0298 0.046 -0.0053 0.0239 -0.0012
O8 0.038 0.0286 0.044 -0.002 0.0238 0.0041
C30 0.039 0.035 0.037 -0.009 0.016 -0.001
C31 0.035 0.032 0.035 -0.003 0.013 0.005
C32 0.04 0.031 0.033 -0.005 0.013 -0.001
C33 0.064 0.024 0.055 0.001 0.034 0.011
C34 0.072 0.029 0.053 0.007 0.042 0.015
C35 0.195 0.046 0.128 -0.045 0.137 -0.06
C36 0.222 0.048 0.141 -0.056 0.16 -0.067
O6 0.0342 0.0211 0.056 0.0114 0.0215 0.0101
C23 0.032 0.023 0.042 0.005 0.015 0.0103
C24 0.027 0.022 0.046 0.007 0.016 0.007
C25 0.033 0.023 0.05 0.01 0.018 0.012
C26 0.029 0.02 0.051 0.009 0.016 0.0083
C27 0.032 0.022 0.046 0.01 0.017 0.011
C28 0.048 0.032 0.099 0.031 0.052 0.022
C29 0.062 0.03 0.109 0.035 0.061 0.025
N2 0.0272 0.027 0.035 0.0103 0.0144 0.0048
C37 0.042 0.033 0.045 0.012 0.026 0.006
C38 0.03 0.034 0.056 0.022 0.024 0.011
C39 0.031 0.065 0.037 0.025 0.008 -0.006
C40 0.03 0.056 0.041 0.024 0.014 -0.001
C41 0.041 0.048 0.046 0.014 0.027 0.008
C44 0.034 0.045 0.068 0.036 0.019 0.012
C42 0.045 0.06 0.044 0.019 0.018 -0.01
C15 0.045 0.06 0.044 0.019 0.018 -0.01
C43 0.047 0.06 0.043 0.022 0.014 -0.009
loop_
_geom_bond_atom_site_label_1
_geom_bond_atom_site_label_2
_geom_bond_site_symmetry_1
_geom_bond_site_symmetry_2
H8 C16 1_555 1_555
Zn1 O2 1_555 1_555
O1 C1 1_555 1_555
O2 C1 1_555 1_555
O3 C11 1_555 1_555
N1 Zn1 1_555 1_555
O4 Zn1 1_555 1_555
C1 C6 1_555 1_555
C2 N1 1_555 1_555
H1 C2 1_555 1_555
C4 C3 1_555 1_555
C5 C3 1_555 1_555
H3 C5 1_555 1_555
C6 C5 1_555 1_555
C7 N1 1_555 1_555
H4 C7 1_555 1_555
C8 C14 1_555 1_555
C9 C10 1_555 1_555
C10 C13 1_555 1_555
C11 O4 1_555 1_555
C12 C11 1_555 1_555
C13 C2 1_555 1_555
H5 C13 1_555 1_555
C17 C7 1_555 1_555
H9 C17 1_555 1_555
C18 C6 1_555 1_555
H10 C18 1_555 1_555
C19 C12 1_555 1_555
H11 C19 1_555 1_555
C20 C4 1_555 1_555
C21 C12 1_555 1_555
H13 C21 1_555 1_555
C22 C8 1_555 1_555
Zn7 O1 1_555 1_555
O10 Zn1 1_555 1_555
O13 Zn1 1_555 1_555
O3 Zn7 1_555 1_555
C10 C17 1_555 1_555
C14 C19 1_555 1_555
C18 C20 1_555 1_555
C21 C22 1_555 1_555
O13 C31 1_555 1_555
O8 C31 1_555 1_555
C31 C32 1_555 1_555
C32 C34 1_555 1_555
C33 C30 1_555 1_555
C34 C33 1_555 1_555
H20 C34 1_555 1_555
C35 C32 1_555 1_555
H21 C35 1_555 1_555
C36 C30 1_555 1_555
Zn7 O8 1_555 1_555
C35 C36 1_555 1_555
O10 C23 1_555 1_555
O6 C23 1_555 1_555
C23 C27 1_555 1_555
C26 C24 1_555 1_555
H16 C26 1_555 1_555
C27 C26 1_555 1_555
C28 C27 1_555 1_555
H17 C28 1_555 1_555
C29 C25 1_555 1_555
Zn7 O6 1_555 1_555
C24 C25 1_555 1_555
C28 C29 1_555 1_555
N2 C37 1_555 1_555
C37 H23 1_555 1_555
C38 N2 1_555 1_555
H24 C38 1_555 1_555
C39 C40 1_555 1_555
C40 C41 1_555 1_555
C41 C37 1_555 1_555
H25 C41 1_555 1_555
C44 C38 1_555 1_555
H28 C44 1_555 1_555
Zn7 N2 1_555 1_555
C40 C44 1_555 1_555
H26 C42 1_555 1_555
H7 C15 1_555 1_555
H27 C43 1_555 1_555

#END
