
###############################################################################
#
# This file contains modified crystal structure data generated from the
# MOF subset of the Cambridge Structural Database (CSD) v543 
# hosted by the Cambridge Crystallographic Data Centre (CCDC).
#
# This work is licensed under the Creative Commons
# Attribution-NonCommercial-ShareAlike 4.0 International License.
# To view a copy of this license, visit
# http://creativecommons.org/licenses/by-nc-sa/4.0/
# or send a letter to
# Creative Commons, PO Box 1866, Mountain View, CA 94042, USA.
#
# CIF created using the CSD Python API on 29 September 2022
# The structure has been converted into the P1 space group
# The structure has a 3D framework
# The original CSD entry NIHBAI01 is in the monoclinic crystal system
# The framework has been calculated to contain at least 10.0% void space
# The void calculation uses a probe of radius 1.32A, grid spacing 0.4
#
###############################################################################

data_NIHBAI01
_chemical_formula_moiety         '(C24 H24 Fe19 O48)n'
_symmetry_cell_setting           triclinic
_symmetry_space_group_name_H-M   'P 1'
_symmetry_Int_Tables_number      1
_space_group_name_Hall           'P 1'
loop_
_symmetry_equiv_pos_site_id
_symmetry_equiv_pos_as_xyz
1 x,y,z
_cell_length_a                   11.3806(2)
_cell_length_b                   9.8451(2)
_cell_length_c                   18.3883(4)
_cell_angle_alpha                90
_cell_angle_beta                 126.9090(10)
_cell_angle_gamma                90
_cell_volume                     1647.38
loop_
_atom_site_label
_atom_site_type_symbol
_atom_site_fract_x
_atom_site_fract_y
_atom_site_fract_z
Fe14 Fe 0.0000 0.0000 0.0000
Fe14_2 Fe 0.0000 0.0000 1.0000
Fe14_3 Fe 0.0000 1.0000 0.0000
Fe14_4 Fe 0.0000 1.0000 1.0000
Fe1 Fe 0.37754(6) 0.08403(5) 0.13308(3)
Fe3 Fe 0.5000 0.0000 0.0000
O1 O 0.4354(3) 0.2058(3) 0.24569(17)
O2 O 0.5505(3) 0.0683(3) 0.36690(18)
O3 O 0.5910(3) 0.0015(2) 0.21935(18)
O4 O 0.6783(3) 0.0016(3) 0.13836(19)
O5 O 0.4544(3) 0.2618(2) 0.10717(17)
O6 O 0.4825(3) 0.2103(3) 0.00019(19)
O11 O 0.1594(3) 0.1568(3) 0.05986(17)
O12 O 0.2010(3) 0.3800(3) 0.09198(19)
C1 C 0.4956(5) 0.1778(4) 0.3291(3)
H1 H 0.4981 0.2482 0.3653
C3 C 0.4740(4) 0.2917(4) 0.0479(3)
H3 H 0.4830 0.3853 0.0396
C6 C 0.1187(5) 0.2822(4) 0.0510(3)
H6 H 0.0165 0.3007 0.0092
Fe7 Fe 0.62246(6) 0.58403(5) 0.36692(3)
Fe9 Fe 0.42651(6) 0.39620(5) 0.18738(3)
Fe12 Fe 0.57349(6) 0.89620(5) 0.31262(3)
Fe13 Fe 0.5000 0.5000 0.5000
Fe14_5 Fe 1.0000 0.0000 0.0000
O15 O 0.5646(3) 0.7058(3) 0.25431(17)
O17 O 0.4495(3) 0.5683(3) 0.13310(18)
O19 O 0.4090(3) 0.5015(2) 0.28065(18)
O21 O 0.3217(3) 0.5016(3) 0.36164(19)
O26 O 0.6545(3) 0.4201(3) 0.30406(17)
O29 O 0.8851(3) 0.1077(3) 0.0328(2)
C7 C 0.5044(5) 0.6778(4) 0.1709(3)
H7 H 0.5019 0.7482 0.1347
C9 C 0.3066(5) 0.4901(4) 0.2893(3)
H9 H 0.2107 0.4713 0.2360
C11 C 0.7758(5) 0.1002(4) 0.0307(3)
H11 H 0.7741 0.1549 0.0726
Fe2 Fe 0.42651(6) 0.10380(5) 0.68738(3)
Fe3_2 Fe 0.5000 0.0000 1.0000
Fe14_6 Fe 1.0000 0.0000 1.0000
O14 O 0.4354(3) 0.2942(3) 0.74569(17)
O23 O 0.4544(3) 0.2382(2) 0.60717(17)
O25 O 0.6545(3) 0.0799(3) 0.80406(17)
O28 O 0.6633(3) 0.0250(3) 0.97691(19)
O33 O 0.2010(3) 0.1200(3) 0.59198(19)
C8 C 0.3066(5) 0.0099(4) 0.7893(3)
H8 H 0.2107 0.0287 0.7360
Fe3_3 Fe 0.5000 1.0000 0.0000
O7 O 0.3455(3) 0.9201(3) 0.19594(17)
O8 O 0.1038(3) 0.8968(3) 0.1206(2)
O9 O 0.3367(3) 0.9750(3) 0.02309(19)
C2 C 0.6934(5) 0.9901(4) 0.2107(3)
H2 H 0.7893 0.9713 0.2640
C4 C 0.2323(5) 0.8726(4) 0.1849(3)
H4 H 0.2480 0.8127 0.2305
Fe14_7 Fe 1.0000 1.0000 0.0000
Fe3_4 Fe 0.5000 1.0000 1.0000
O10 O 0.1149(3) 0.8923(3) 0.9672(2)
C5 C 0.2242(5) 0.8998(4) 0.9693(3)
H5 H 0.2259 0.8451 0.9274
Fe5 Fe 0.62246(6) 0.91597(5) 0.86692(3)
Fe10 Fe 0.57349(6) 0.60380(5) 0.81262(3)
Fe14_8 Fe 1.0000 1.0000 1.0000
O13 O 0.5646(3) 0.7942(3) 0.75431(17)
O16 O 0.4495(3) 0.9317(3) 0.63310(18)
O18 O 0.4090(3) 0.9985(2) 0.78065(18)
O20 O 0.3217(3) 0.9984(3) 0.86164(19)
O22 O 0.5456(3) 0.7382(2) 0.89283(17)
O24 O 0.5175(3) 0.7897(3) 0.99981(19)
O32 O 0.8406(3) 0.8432(3) 0.94014(17)
C10 C 0.5260(4) 0.7083(4) 0.9521(3)
H10 H 0.5170 0.6147 0.9604
O27 O 0.8962(3) 0.1032(3) 0.8794(2)
O34 O 0.7990(3) 0.6200(3) 0.90802(19)
C12 C 0.8813(5) 0.7178(4) 0.9490(3)
H12 H 0.9835 0.6993 0.9908
Fe4 Fe 0.0000 0.5000 0.5000
Fe6 Fe 0.37754(6) 0.41597(5) 0.63308(3)
O27_2 O 0.1038(3) 0.6032(3) 0.6206(2)
O30 O 0.1149(3) 0.6077(3) 0.4672(2)
O31 O 0.1594(3) 0.3432(3) 0.55986(17)
C12_2 C 0.1187(5) 0.2178(4) 0.5510(3)
H12_2 H 0.0165 0.1993 0.5092
Fe4_2 Fe 1.0000 0.5000 0.5000
O5_2 O 0.5456(3) 0.7618(2) 0.39283(17)
O6_2 O 0.5175(3) 0.7103(3) 0.49981(19)
O8_2 O 0.8962(3) 0.3968(3) 0.3794(2)
O9_2 O 0.6633(3) 0.4750(3) 0.47691(19)
O10_2 O 0.8851(3) 0.3923(3) 0.5328(2)
O11_2 O 0.8406(3) 0.6568(3) 0.44014(17)
O12_2 O 0.7990(3) 0.8800(3) 0.40802(19)
C3_2 C 0.5260(4) 0.7917(4) 0.4521(3)
H3_2 H 0.5170 0.8853 0.4604
C4_2 C 0.7677(5) 0.3726(4) 0.3151(3)
H4_2 H 0.7520 0.3127 0.2695
C5_2 C 0.7758(5) 0.3998(4) 0.5307(3)
H5_2 H 0.7741 0.3451 0.5726
C6_2 C 0.8813(5) 0.7822(4) 0.4490(3)
H6_2 H 0.9835 0.8007 0.4908
O16_2 O 0.5505(3) 0.4317(3) 0.86690(18)
O18_2 O 0.5910(3) 0.4985(2) 0.71935(18)
O20_2 O 0.6783(3) 0.4984(3) 0.63836(19)
O24_2 O 0.4825(3) 0.2897(3) 0.50019(19)
O25_2 O 0.3455(3) 0.5799(3) 0.69594(17)
O28_2 O 0.3367(3) 0.5250(3) 0.52309(19)
C8_2 C 0.6934(5) 0.5099(4) 0.7107(3)
H8_2 H 0.7893 0.5287 0.7640
C10_2 C 0.4740(4) 0.2083(4) 0.5479(3)
H10_2 H 0.4830 0.1147 0.5396
C11_2 C 0.2242(5) 0.6002(4) 0.4693(3)
H11_2 H 0.2259 0.6549 0.4274
C4_3 C 0.7677(5) 0.1274(4) 0.8151(3)
H4_3 H 0.7520 0.1873 0.7695
C1_2 C 0.5044(5) 0.8222(4) 0.6709(3)
H1_2 H 0.5019 0.7518 0.6347
C7_2 C 0.4956(5) 0.3222(4) 0.8291(3)
H7_2 H 0.4981 0.2518 0.8653
C4_4 C 0.2323(5) 0.6274(4) 0.6849(3)
H4_4 H 0.2480 0.6873 0.7305
loop_
_geom_bond_atom_site_label_1
_geom_bond_atom_site_label_2
_geom_bond_site_symmetry_1
_geom_bond_site_symmetry_2
Fe1 O1 1_555 1_555
Fe3 O4 1_555 1_555
O1 C1 1_555 1_555
O2 C1 1_555 1_555
O3 Fe1 1_555 1_555
O5 Fe1 1_555 1_555
O6 Fe3 1_555 1_555
O11 Fe1 1_555 1_555
O12 C6 1_555 1_555
C1 H1 1_555 1_555
C3 O5 1_555 1_555
H3 C3 1_555 1_555
C6 O11 1_555 1_555
H6 C6 1_555 1_555
Fe7 O15 1_555 1_555
Fe9 O1 1_555 1_555
Fe12 O15 1_555 1_555
Fe13 O21 1_555 1_555
Fe14_5 O29 1_555 1_555
O15 C7 1_555 1_555
O17 Fe9 1_555 1_555
O19 Fe7 1_555 1_555
O21 C9 1_555 1_555
O26 Fe7 1_555 1_555
O29 C11 1_555 1_555
C7 O17 1_555 1_555
H7 C7 1_555 1_555
C9 O19 1_555 1_555
H9 C9 1_555 1_555
H11 C11 1_555 1_555
Fe14 O11 1_555 1_555
O5 Fe9 1_555 1_555
O6 C3 1_555 1_555
O12 Fe9 1_555 1_555
Fe9 O19 1_555 1_555
Fe9 O26 1_555 1_555
Fe2 O14 1_555 1_555
O23 Fe2 1_555 1_555
O25 Fe2 1_555 1_555
O28 Fe3_2 1_555 1_555
O33 Fe2 1_555 1_555
H8 C8 1_555 1_555
Fe14_3 O8 1_555 1_555
O8 C4 1_555 1_555
H2 C2 1_555 1_555
C4 O7 1_555 1_555
H4 C4 1_555 1_555
Fe3_3 O9 1_555 1_555
O7 Fe12 1_555 1_555
O10 Fe14_4 1_555 1_555
H5 C5 1_555 1_555
Fe5 O13 1_555 1_555
Fe10 O13 1_555 1_555
O20 Fe3_4 1_555 1_555
O22 Fe5 1_555 1_555
O24 Fe3_4 1_555 1_555
O32 Fe5 1_555 1_555
C10 O22 1_555 1_555
H10 C10 1_555 1_555
O10 C5 1_555 1_555
Fe5 O18 1_555 1_555
Fe10 O22 1_555 1_555
Fe14_8 O32 1_555 1_555
O24 C10 1_555 1_555
O27 Fe14_6 1_555 1_555
Fe10 O34 1_555 1_555
O34 C12 1_555 1_555
C12 O32 1_555 1_555
H12 C12 1_555 1_555
Fe6 O31 1_555 1_555
O27_2 Fe4 1_555 1_555
O30 Fe4 1_555 1_555
O31 Fe4 1_555 1_555
O33 C12_2 1_555 1_555
C12_2 O31 1_555 1_555
H12_2 C12_2 1_555 1_555
Fe4_2 O8_2 1_555 1_555
O5_2 Fe7 1_555 1_555
O6_2 Fe13 1_555 1_555
O8_2 C4_2 1_555 1_555
O9_2 Fe7 1_555 1_555
O10_2 Fe4_2 1_555 1_555
O11_2 Fe7 1_555 1_555
O12_2 C6_2 1_555 1_555
C3_2 O5_2 1_555 1_555
H3_2 C3_2 1_555 1_555
C4_2 O26 1_555 1_555
H4_2 C4_2 1_555 1_555
C5_2 O9_2 1_555 1_555
H5_2 C5_2 1_555 1_555
C6_2 O11_2 1_555 1_555
H6_2 C6_2 1_555 1_555
Fe6 O14 1_555 1_555
O16_2 Fe10 1_555 1_555
O18_2 Fe10 1_555 1_555
O20_2 Fe13 1_555 1_555
O23 Fe6 1_555 1_555
O24_2 Fe13 1_555 1_555
O25_2 Fe10 1_555 1_555
O28_2 Fe13 1_555 1_555
O30 C11_2 1_555 1_555
C8_2 O18_2 1_555 1_555
H8_2 C8_2 1_555 1_555
C10_2 O23 1_555 1_555
H10_2 C10_2 1_555 1_555
C11_2 O28_2 1_555 1_555
H11_2 C11_2 1_555 1_555
Fe13 O9_2 1_555 1_555
Fe4_2 O11_2 1_555 1_555
O5_2 Fe12 1_555 1_555
O6_2 C3_2 1_555 1_555
O10_2 C5_2 1_555 1_555
O12_2 Fe12 1_555 1_555
Fe6 O18_2 1_555 1_555
Fe6 O25_2 1_555 1_555
Fe6 O28_2 1_555 1_555
O20_2 C8_2 1_555 1_555
O24_2 C10_2 1_555 1_555
O27 C4_3 1_555 1_555
C4_3 O25 1_555 1_555
H4_3 C4_3 1_555 1_555
O13 C1_2 1_555 1_555
O16 C1_2 1_555 1_555
C1_2 H1_2 1_555 1_555
O14 C7_2 1_555 1_555
C7_2 O16_2 1_555 1_555
H7_2 C7_2 1_555 1_555
O27_2 C4_4 1_555 1_555
C4_4 O25_2 1_555 1_555
H4_4 C4_4 1_555 1_555

#END
