
###############################################################################
#
# This file contains modified crystal structure data generated from the
# MOF subset of the Cambridge Structural Database (CSD) v543 
# hosted by the Cambridge Crystallographic Data Centre (CCDC).
#
# This work is licensed under the Creative Commons
# Attribution-NonCommercial-ShareAlike 4.0 International License.
# To view a copy of this license, visit
# http://creativecommons.org/licenses/by-nc-sa/4.0/
# or send a letter to
# Creative Commons, PO Box 1866, Mountain View, CA 94042, USA.
#
# CIF created using the CSD Python API on 29 September 2022
# The structure has been converted into the P1 space group
# The structure has a 3D framework
# The original CSD entry NIHDIU is in the orthorhombic crystal system
# The original CSD entry NIHDIU is in a Sohncke space group
# The framework has been calculated to contain at least 10.0% void space
# The void calculation uses a probe of radius 1.32A, grid spacing 0.4
#
###############################################################################

data_NIHDIU
_chemical_formula_moiety         '(C48 H32 Cl10 Cu8 N8 O25)n'
_symmetry_cell_setting           triclinic
_symmetry_space_group_name_H-M   'P 1'
_symmetry_Int_Tables_number      1
_space_group_name_Hall           'P 1'
loop_
_symmetry_equiv_pos_site_id
_symmetry_equiv_pos_as_xyz
1 x,y,z
_cell_length_a                   11.6840(10)
_cell_length_b                   12.8660(12)
_cell_length_c                   14.0116(12)
_cell_angle_alpha                90
_cell_angle_beta                 90
_cell_angle_gamma                90
_cell_volume                     2106.31
loop_
_atom_site_label
_atom_site_type_symbol
_atom_site_fract_x
_atom_site_fract_y
_atom_site_fract_z
Cu1 Cu 0.594063(11) 0.411360(9) 0.423921(8)
Cl1 Cl 0.5000 0.27256(3) 0.5000
O1 O 0.5000 0.5000 0.5000
O2 O 0.64226(8) 0.53035(7) 0.34485(6)
N1 N 0.83625(9) 0.81623(8) 0.17086(6)
O3 O 0.73413(8) 0.61366(7) 0.46319(6)
C1 C 0.85091(12) 0.83357(10) 0.26480(9)
H1 H 0.8903 0.8928 0.2841
C2 C 0.73367(12) 0.66110(10) 0.20845(9)
H2 H 0.6925 0.6036 0.1874
C3 C 0.70596(10) 0.60134(10) 0.37851(8)
C4 C 0.75047(11) 0.67811(10) 0.30535(8)
C5 C 0.77902(11) 0.73086(10) 0.14385(9)
H3 H 0.7695 0.7181 0.0790
C6 C 0.80962(12) 0.76665(11) 0.33332(9)
H4 H 0.8212 0.7806 0.3977
Cu2 Cu 0.405937(11) 0.588640(9) 0.423921(8)
Cl2 Cl 0.5000 0.72744(3) 0.5000
O4 O 0.35774(8) 0.46965(7) 0.34485(6)
N2 N 0.16375(9) 0.18377(8) 0.17086(6)
O5 O 0.26587(8) 0.38634(7) 0.46319(6)
C7 C 0.14909(12) 0.16643(10) 0.26480(9)
H5 H 0.1097 0.1072 0.2841
C8 C 0.26633(12) 0.33890(10) 0.20845(9)
H6 H 0.3075 0.3964 0.1874
C9 C 0.29404(10) 0.39866(10) 0.37851(8)
C10 C 0.24953(11) 0.32189(10) 0.30535(8)
C11 C 0.22098(11) 0.26914(10) 0.14385(9)
H7 H 0.2305 0.2819 0.0790
C12 C 0.19038(12) 0.23335(11) 0.33332(9)
H8 H 0.1788 0.2194 0.3977
Cu3 Cu 0.405937(11) 0.411360(9) 0.576079(8)
O6 O 0.35774(8) 0.53035(7) 0.65515(6)
N3 N 0.16375(9) 0.81623(8) 0.82914(6)
O7 O 0.26587(8) 0.61366(7) 0.53681(6)
C13 C 0.14909(12) 0.83357(10) 0.73520(9)
H9 H 0.1097 0.8928 0.7159
C14 C 0.26633(12) 0.66110(10) 0.79155(9)
H10 H 0.3075 0.6036 0.8126
C15 C 0.29404(10) 0.60134(10) 0.62149(8)
C16 C 0.24953(11) 0.67811(10) 0.69465(8)
C17 C 0.22098(11) 0.73086(10) 0.85615(9)
H11 H 0.2305 0.7181 0.9210
C18 C 0.19038(12) 0.76665(11) 0.66668(9)
H12 H 0.1788 0.7806 0.6023
Cu4 Cu 0.594063(11) 0.588640(9) 0.576079(8)
O8 O 0.64226(8) 0.46965(7) 0.65515(6)
N4 N 0.83625(9) 0.18377(8) 0.82914(6)
O9 O 0.73413(8) 0.38634(7) 0.53681(6)
C19 C 0.85091(12) 0.16643(10) 0.73520(9)
H13 H 0.8903 0.1072 0.7159
C20 C 0.73367(12) 0.33890(10) 0.79155(9)
H14 H 0.6925 0.3964 0.8126
C21 C 0.70596(10) 0.39866(10) 0.62149(8)
C22 C 0.75047(11) 0.32189(10) 0.69465(8)
C23 C 0.77902(11) 0.26914(10) 0.85615(9)
H15 H 0.7695 0.2819 0.9210
C24 C 0.80962(12) 0.23335(11) 0.66668(9)
H16 H 0.8212 0.2194 0.6023
Cu5 Cu 0.094063(11) 0.911360(9) 0.923921(8)
Cu6 Cu 0.905937(11) 0.088640(9) 0.923921(8)
Cu7 Cu 0.905937(11) 0.911360(9) 0.076079(8)
Cu8 Cu 0.094063(11) 0.088640(9) 0.076079(8)
N5 N 0.33625(9) 0.31623(8) 0.67086(6)
N6 N 0.66375(9) 0.68377(8) 0.67086(6)
N7 N 0.66375(9) 0.31623(8) 0.32914(6)
N8 N 0.33625(9) 0.68377(8) 0.32914(6)
O1_2 O 0.0000 0.0000 0.0000
Cl2_2 Cl 0.0000 0.22744(3) 0.0000
O1_3 O 0.0000 0.0000 1.0000
O2_2 O 0.14226(8) 0.03035(7) 0.84485(6)
O3_2 O 0.23413(8) 0.11366(7) 0.96319(6)
C1_2 C 0.35091(12) 0.33357(10) 0.76480(9)
H1_2 H 0.3903 0.3928 0.7841
C2_2 C 0.23367(12) 0.16110(10) 0.70845(9)
H2_2 H 0.1925 0.1036 0.6874
C3_2 C 0.20596(10) 0.10134(10) 0.87851(8)
C4_2 C 0.25047(11) 0.17811(10) 0.80535(8)
C5_2 C 0.27902(11) 0.23086(10) 0.64385(9)
H3_2 H 0.2695 0.2181 0.5790
C6_2 C 0.30962(12) 0.26665(11) 0.83332(9)
H4_2 H 0.3212 0.2806 0.8977
Cl2_3 Cl 0.0000 0.22744(3) 1.0000
Cl1_2 Cl 0.0000 0.77256(3) 0.0000
O1_4 O 0.0000 1.0000 0.0000
O8_2 O 0.14226(8) 0.96965(7) 0.15515(6)
O9_2 O 0.23413(8) 0.88634(7) 0.03681(6)
C19_2 C 0.35091(12) 0.66643(10) 0.23520(9)
H13_2 H 0.3903 0.6072 0.2159
C20_2 C 0.23367(12) 0.83890(10) 0.29155(9)
H14_2 H 0.1925 0.8964 0.3126
C21_2 C 0.20596(10) 0.89866(10) 0.12149(8)
C22_2 C 0.25047(11) 0.82189(10) 0.19465(8)
C23_2 C 0.27902(11) 0.76914(10) 0.35615(9)
H15_2 H 0.2695 0.7819 0.4210
C24_2 C 0.30962(12) 0.73335(11) 0.16668(9)
H16_2 H 0.3212 0.7194 0.1023
Cl1_3 Cl 0.0000 0.77256(3) 1.0000
O1_5 O 0.0000 1.0000 1.0000
O1_6 O 1.0000 0.0000 0.0000
Cl2_4 Cl 1.0000 0.22744(3) 0.0000
O6_2 O 0.85774(8) 0.03035(7) 0.15515(6)
O7_2 O 0.76587(8) 0.11366(7) 0.03681(6)
C13_2 C 0.64909(12) 0.33357(10) 0.23520(9)
H9_2 H 0.6097 0.3928 0.2159
C14_2 C 0.76633(12) 0.16110(10) 0.29155(9)
H10_2 H 0.8075 0.1036 0.3126
C15_2 C 0.79404(10) 0.10134(10) 0.12149(8)
C16_2 C 0.74953(11) 0.17811(10) 0.19465(8)
C17_2 C 0.72098(11) 0.23086(10) 0.35615(9)
H11_2 H 0.7305 0.2181 0.4210
C18_2 C 0.69038(12) 0.26665(11) 0.16668(9)
H12_2 H 0.6788 0.2806 0.1023
O1_7 O 1.0000 0.0000 1.0000
Cl2_5 Cl 1.0000 0.22744(3) 1.0000
Cl1_4 Cl 1.0000 0.77256(3) 0.0000
O1_8 O 1.0000 1.0000 0.0000
Cl1_5 Cl 1.0000 0.77256(3) 1.0000
O1_9 O 1.0000 1.0000 1.0000
O4_2 O 0.85774(8) 0.96965(7) 0.84485(6)
O5_2 O 0.76587(8) 0.88634(7) 0.96319(6)
C7_2 C 0.64909(12) 0.66643(10) 0.76480(9)
H5_2 H 0.6097 0.6072 0.7841
C8_2 C 0.76633(12) 0.83890(10) 0.70845(9)
H6_2 H 0.8075 0.8964 0.6874
C9_2 C 0.79404(10) 0.89866(10) 0.87851(8)
C10_2 C 0.74953(11) 0.82189(10) 0.80535(8)
C11_2 C 0.72098(11) 0.76914(10) 0.64385(9)
H7_2 H 0.7305 0.7819 0.5790
C12_2 C 0.69038(12) 0.73335(11) 0.83332(9)
H8_2 H 0.6788 0.7194 0.8977
loop_
_geom_bond_atom_site_label_1
_geom_bond_atom_site_label_2
_geom_bond_site_symmetry_1
_geom_bond_site_symmetry_2
Cu1 Cl1 1_555 1_555
Cl1 Cu3 1_555 1_555
O1 Cu1 1_555 1_555
O2 Cu1 1_555 1_555
N1 C1 1_555 1_555
O3 C3 1_555 1_555
C1 H1 1_555 1_555
C2 H2 1_555 1_555
C3 O2 1_555 1_555
C4 C2 1_555 1_555
C5 N1 1_555 1_555
H3 C5 1_555 1_555
C6 C1 1_555 1_555
H4 C6 1_555 1_555
Cu2 O1 1_555 1_555
Cl2 Cu2 1_555 1_555
O4 Cu2 1_555 1_555
N2 C7 1_555 1_555
O5 C9 1_555 1_555
C7 H5 1_555 1_555
C8 H6 1_555 1_555
C9 O4 1_555 1_555
C10 C8 1_555 1_555
C11 N2 1_555 1_555
H7 C11 1_555 1_555
C12 C7 1_555 1_555
H8 C12 1_555 1_555
Cu3 O1 1_555 1_555
O6 Cu3 1_555 1_555
N3 C13 1_555 1_555
O7 Cu2 1_555 1_555
C13 H9 1_555 1_555
C14 H10 1_555 1_555
C15 O6 1_555 1_555
C16 C14 1_555 1_555
C17 N3 1_555 1_555
H11 C17 1_555 1_555
C18 C13 1_555 1_555
H12 C18 1_555 1_555
Cu4 O1 1_555 1_555
O8 Cu4 1_555 1_555
N4 C19 1_555 1_555
O9 Cu1 1_555 1_555
C19 H13 1_555 1_555
C20 H14 1_555 1_555
C21 O8 1_555 1_555
C22 C20 1_555 1_555
C23 N4 1_555 1_555
H15 C23 1_555 1_555
C24 C19 1_555 1_555
H16 C24 1_555 1_555
Cu5 N3 1_555 1_555
Cu6 N4 1_555 1_555
Cu7 N1 1_555 1_555
Cu8 N2 1_555 1_555
N5 Cu3 1_555 1_555
N6 Cu4 1_555 1_555
N7 Cu1 1_555 1_555
N8 Cu2 1_555 1_555
O3 Cu4 1_555 1_555
C2 C5 1_555 1_555
C3 C4 1_555 1_555
C4 C6 1_555 1_555
Cl2 Cu4 1_555 1_555
O5 Cu3 1_555 1_555
C8 C11 1_555 1_555
C9 C10 1_555 1_555
C10 C12 1_555 1_555
O7 C15 1_555 1_555
C14 C17 1_555 1_555
C15 C16 1_555 1_555
C16 C18 1_555 1_555
O9 C21 1_555 1_555
C20 C23 1_555 1_555
C21 C22 1_555 1_555
C22 C24 1_555 1_555
Cu8 O1_2 1_555 1_555
Cl2_2 Cu8 1_555 1_555
N5 C1_2 1_555 1_555
O3_2 C3_2 1_555 1_555
C1_2 H1_2 1_555 1_555
C2_2 H2_2 1_555 1_555
C3_2 O2_2 1_555 1_555
C4_2 C2_2 1_555 1_555
C5_2 N5 1_555 1_555
H3_2 C5_2 1_555 1_555
C6_2 C1_2 1_555 1_555
H4_2 C6_2 1_555 1_555
C2_2 C5_2 1_555 1_555
C3_2 C4_2 1_555 1_555
C4_2 C6_2 1_555 1_555
N8 C19_2 1_555 1_555
C19_2 H13_2 1_555 1_555
C20_2 H14_2 1_555 1_555
C21_2 O8_2 1_555 1_555
C22_2 C20_2 1_555 1_555
C23_2 N8 1_555 1_555
H15_2 C23_2 1_555 1_555
C24_2 C19_2 1_555 1_555
H16_2 C24_2 1_555 1_555
O9_2 C21_2 1_555 1_555
C20_2 C23_2 1_555 1_555
C21_2 C22_2 1_555 1_555
C22_2 C24_2 1_555 1_555
Cu5 Cl1_3 1_555 1_555
O1_5 Cu5 1_555 1_555
N7 C13_2 1_555 1_555
C13_2 H9_2 1_555 1_555
C14_2 H10_2 1_555 1_555
C15_2 O6_2 1_555 1_555
C16_2 C14_2 1_555 1_555
C17_2 N7 1_555 1_555
H11_2 C17_2 1_555 1_555
C18_2 C13_2 1_555 1_555
H12_2 C18_2 1_555 1_555
O7_2 C15_2 1_555 1_555
C14_2 C17_2 1_555 1_555
C15_2 C16_2 1_555 1_555
C16_2 C18_2 1_555 1_555
Cu6 O1_7 1_555 1_555
Cl2_5 Cu6 1_555 1_555
Cl1_4 Cu7 1_555 1_555
Cu7 O1_8 1_555 1_555
N6 C7_2 1_555 1_555
O5_2 C9_2 1_555 1_555
C7_2 H5_2 1_555 1_555
C8_2 H6_2 1_555 1_555
C9_2 O4_2 1_555 1_555
C10_2 C8_2 1_555 1_555
C11_2 N6 1_555 1_555
H7_2 C11_2 1_555 1_555
C12_2 C7_2 1_555 1_555
H8_2 C12_2 1_555 1_555
C8_2 C11_2 1_555 1_555
C9_2 C10_2 1_555 1_555
C10_2 C12_2 1_555 1_555

#END
