
###############################################################################
#
# This file contains modified crystal structure data generated from the
# MOF subset of the Cambridge Structural Database (CSD) v543 
# hosted by the Cambridge Crystallographic Data Centre (CCDC).
#
# This work is licensed under the Creative Commons
# Attribution-NonCommercial-ShareAlike 4.0 International License.
# To view a copy of this license, visit
# http://creativecommons.org/licenses/by-nc-sa/4.0/
# or send a letter to
# Creative Commons, PO Box 1866, Mountain View, CA 94042, USA.
#
# CIF created using the CSD Python API on 29 September 2022
# The structure has been converted into the P1 space group
# The structure has a 3D framework
# The original CSD entry NIHVUX is in the triclinic crystal system
# The framework has been calculated to contain at least 10.0% void space
# The void calculation uses a probe of radius 1.32A, grid spacing 0.4
# H atom positions have been added when not included in the experimental data
# Generated hydrogen atom positions removed from atoms on special positions
#
###############################################################################

data_NIHVUX
_chemical_formula_moiety         '(C50 H116 Ce4 Mn4 N10 Na2 O143 P4 W30)n'
_symmetry_cell_setting           triclinic
_symmetry_space_group_name_H-M   'P 1'
_symmetry_Int_Tables_number      1
_space_group_name_Hall           'P 1'
loop_
_symmetry_equiv_pos_site_id
_symmetry_equiv_pos_as_xyz
1 x,y,z
_cell_length_a                   15.369(5)
_cell_length_b                   15.403(5)
_cell_length_c                   20.104(5)
_cell_angle_alpha                84.835(5)
_cell_angle_beta                 89.828(5)
_cell_angle_gamma                74.460(5)
_cell_volume                     4565.49
loop_
_atom_site_label
_atom_site_type_symbol
_atom_site_fract_x
_atom_site_fract_y
_atom_site_fract_z
W3 W 0.04839(5) 0.24887(5) 0.36902(4)
W5 W 0.07833(5) 0.07725(5) 0.25027(4)
H6 H 0.0093 0.4703 0.3852
O10 O 0.1313(9) 0.3060(9) 0.3585(8)
O47 O 0.1043(9) 0.1542(8) 0.4224(7)
O59 O 0.1701(10) 0.0805(11) 0.2017(8)
O60 O 0.0600(9) 0.1890(9) 0.2910(7)
O63 O 0.1303(8) 0.0072(9) 0.3222(7)
C13 C 0.0661(15) 0.5997(14) 0.3230(13)
C17 C 0.0801(17) 0.6770(18) 0.2935(15)
H12 H 0.0436 0.7318 0.3053
C23 C 0.147(2) 0.6791(18) 0.2459(19)
H18 H 0.1584 0.7332 0.2293
N5 N 0.1959(14) 0.5968(14) 0.2249(14)
O71 O 0.2515(12) 0.5959(12) 0.1710(14)
C24 C 0.182(3) 0.524(2) 0.252(2)
H19 H 0.2153 0.4689 0.2380
C25 C 0.118(3) 0.5217(19) 0.301(3)
H20 H 0.1116 0.4663 0.3191
Ce8 Ce 0.35328(10) 0.69119(10) 0.13822(8)
Mn6 Mn 0.06931(18) 0.06923(17) 0.49905(15)
Mn2 Mn 0.09486(19) 0.91384(18) 0.39160(15)
O38 O 0.2163(11) 0.8016(11) 0.3668(10)
O51 O 0.0523(8) 0.8332(8) 0.4730(7)
O57 O 0.0362(10) 0.9838(9) 0.2132(9)
O61 O 0.0064(9) 0.8839(9) 0.3248(8)
W32 W 0.11925(5) 0.73004(5) 0.52015(4)
O148 O 0.1687(8) 0.9483(8) 0.4708(7)
O152 O 0.0182(8) 0.9757(8) 0.5731(7)
C1 C 0.5845(13) 0.0503(13) 0.6740(11)
H1 H 0.4620 0.0036 0.6080
C4 C 0.1096(19) 0.0007(17) 0.0478(13)
H2 H 0.1160 0.0575 0.0327
C15 C 0.5086(18) 0.125(2) 0.6751(16)
H11 H 0.4619 0.1358 0.6436
C19 C 0.506(2) 0.181(2) 0.7231(18)
H14 H 0.4586 0.2339 0.7222
C21 C 0.647(2) 0.039(2) 0.724(2)
N4 N 0.566(2) 0.1642(15) 0.7709(13)
O70 O 0.5567(19) 0.2192(19) 0.8160(15)
C22 C 0.642(2) 0.099(2) 0.769(2)
H17 H 0.6892 0.0944 0.7990
Ce10 Ce 0.64672(10) 0.30881(10) 0.86178(8)
W1 W 0.73096(5) 0.12197(5) 0.48225(4)
W2 W 0.88075(5) 0.26996(5) 0.47985(4)
W6 W 0.56760(5) 0.29456(5) 0.36079(4)
W7 W 0.54956(6) 0.47398(6) 0.21977(5)
W9 W 0.59544(5) 0.13632(5) 0.25302(5)
W10 W 0.88562(5) 0.42177(5) 0.24583(5)
W11 W 0.72002(5) 0.44364(5) 0.35752(4)
W12 W 0.91534(6) 0.24716(6) 0.12614(5)
W13 W 0.77758(6) 0.11163(6) 0.12939(5)
Ce1 Ce 0.64025(8) 0.63752(7) 0.49849(7)
W14 W 0.57670(6) 0.31230(6) 0.10984(5)
W15 W 0.71866(6) 0.45067(6) 0.10585(5)
P1 P 0.7361(3) 0.2849(3) 0.2406(2)
P2 P 0.9144(3) 0.0960(3) 0.3742(2)
C2 C 0.5938(13) 0.9837(13) 0.6262(12)
N1 N 0.6071(14) 0.8556(12) 0.5353(11)
C3 C 0.5189(15) 0.9690(15) 0.5972(12)
C5 C 0.093(2) 0.839(2) 0.0996(17)
H3 H 0.0872 0.7842 0.1193
C6 C 0.5253(14) 0.9040(14) 0.5520(14)
H4 H 0.4734 0.8944 0.5338
C7 C 0.9490(14) 0.6803(16) 0.3949(13)
H5 H 0.9626 0.7338 0.3796
C8 C 0.9771(16) 0.5261(15) 0.3984(14)
C9 C 0.9970(16) 0.6029(17) 0.3710(16)
C10 C 0.8783(16) 0.6852(15) 0.4423(13)
H7 H 0.8451 0.7398 0.4568
O1 O 0.9554(9) 0.3530(9) 0.3105(7)
O2 O 0.8096(9) 0.3483(9) 0.0903(7)
O3 O 0.6815(10) 0.2223(11) 0.0915(9)
O4 O 0.9453(12) 0.4985(11) 0.2238(8)
O5 O 0.8040(8) 0.4894(9) 0.3049(8)
O6 O 0.551(4) 0.518(3) 0.506(3)
O7 O 0.5176(9) 0.0767(11) 0.2331(9)
O8 O 0.8075(8) 0.3687(8) 0.4129(6)
O9 O 0.698(2) 0.4821(15) 0.5702(18)
O11 O 0.5006(10) 0.3044(11) 0.0483(8)
O12 O 0.8185(9) 0.0860(8) 0.3870(8)
O13 O 0.8592(11) 0.1709(11) 0.0816(8)
O14 O 0.5097(14) 0.6684(14) 0.0876(11)
O15 O 0.9427(9) 0.0735(8) 0.3027(7)
O16 O 0.6317(9) 0.4943(8) 0.2803(7)
O17 O 0.6843(11) 0.7077(9) 0.3867(9)
O19 O 0.6460(10) 0.3892(10) 0.0651(8)
O20 O 0.6999(11) 0.6663(13) 0.6157(9)
O21 O 0.8010(10) 0.6093(11) 0.5089(9)
O22 O 0.5232(9) 0.3887(9) 0.2836(7)
C11 C 0.6843(15) 0.8708(13) 0.5620(10)
H8 H 0.7411 0.8373 0.5501
O23 O 0.4895(11) 0.6941(13) 0.4381(9)
O24 O 0.9791(8) 0.3069(8) 0.4426(7)
O25 O 0.6975(9) 0.0254(8) 0.4468(8)
O26 O 0.8636(10) 0.0338(9) 0.1810(7)
O27 O 0.3559(14) 0.8204(15) 0.0473(11)
O28 O 0.8000(9) 0.2207(8) 0.1990(8)
O29 O 0.3896(14) 0.5479(13) 0.0743(10)
O30 O 0.7845(8) 0.3392(8) 0.2774(7)
O31 O 0.4761(10) 0.3334(10) 0.4088(8)
O32 O 0.6410(9) 0.3686(9) 0.3752(7)
O33 O 0.2426(13) 0.7043(15) 0.0370(10)
O34 O 0.5528(9) 0.2401(9) 0.1842(8)
O35 O 0.6687(8) 0.3545(8) 0.1870(7)
O36 O 0.2235(13) 0.8162(13) 0.1593(10)
O37 O 0.9850(10) 0.2675(12) 0.0641(10)
O39 O 0.6796(11) 0.5291(9) 0.4088(8)
O40 O 0.8313(8) 0.0517(8) 0.5292(7)
O41 O 0.8497(10) 0.3402(9) 0.5452(8)
O42 O 0.7293(11) 0.5308(12) 0.0433(10)
O43 O 0.6583(10) 0.1457(9) 0.5470(7)
O44 O 0.6366(9) 0.2031(10) 0.4150(7)
O45 O 0.6779(9) 0.2382(9) 0.2832(7)
O46 O 0.9885(10) 0.1572(11) 0.1796(8)
O48 O 0.7805(10) 0.2231(8) 0.4755(7)
O49 O 0.9818(8) 0.0243(8) 0.4269(7)
O50 O 0.5215(9) 0.2161(8) 0.3095(6)
N2 N 0.8640(13) 0.6078(12) 0.4637(11)
O53 O 0.6609(9) 0.0605(9) 0.3185(7)
O54 O 0.9264(9) 0.3335(9) 0.1849(7)
O55 O 0.6876(11) 0.0997(10) 0.1911(9)
O58 O 0.6129(11) 0.7979(10) 0.4884(9)
O62 O 0.7881(9) 0.4716(9) 0.1747(8)
O65 O 0.7610(11) 0.0469(11) 0.0678(9)
O66 O 0.4584(11) 0.5668(10) 0.2188(8)
N3 N 0.1606(13) 0.8680(13) 0.1173(12)
C12 C 0.6771(15) 0.9307(16) 0.6030(13)
H9 H 0.7301 0.9406 0.6188
C14 C 0.9107(17) 0.5291(15) 0.4450(14)
H10 H 0.8988 0.4759 0.4631
C16 C 0.039(2) 0.974(2) 0.0246(18)
O67 O 0.3255(19) 0.7096(19) 0.2629(13)
C18 C 0.168(2) 0.9497(17) 0.0904(15)
H13 H 0.2175 0.9694 0.1031
C20 C 0.027(2) 0.889(2) 0.0518(18)
H16 H 0.6966 0.9881 0.7259
O68 O 0.9232(8) 0.1891(8) 0.3848(6)
O69 O 0.5035(11) 0.4093(11) 0.1586(9)
O72 O 0.6193(10) 0.5221(10) 0.1563(8)
Ce6 Ce 0.35975(8) 0.36248(7) 0.50151(7)
Mn8 Mn 0.90514(19) 0.08616(18) 0.60840(15)
O146 O 0.5239(10) 0.6666(10) 0.5912(8)
O154 O 0.9477(8) 0.1668(8) 0.5270(7)
O156 O 0.4433(19) 0.7808(19) 0.1840(15)
W4 W 0.94101(5) 0.94043(5) 0.25268(4)
W8 W 0.76012(5) 0.96264(5) 0.37390(4)
Mn1 Mn 0.93069(18) 0.93077(17) 0.50095(15)
O18 O 0.9455(10) 0.8493(10) 0.2080(8)
O52 O 0.8507(9) 0.9007(9) 0.4285(7)
O56 O 0.6995(10) 0.8819(9) 0.3671(8)
O64 O 0.8243(9) 0.9555(9) 0.2953(7)
O150 O 0.8957(9) 0.8458(8) 0.5776(7)
W19 W 0.05899(5) 0.05957(5) 0.74732(4)
W23 W 0.23988(5) 0.03736(5) 0.62610(4)
O91 O 0.0545(10) 0.1507(10) 0.7920(8)
O124 O 0.1493(9) 0.0993(9) 0.5715(7)
O128 O 0.3005(10) 0.1181(9) 0.6329(8)
O136 O 0.1757(9) 0.0445(9) 0.7047(7)
C27 C 0.907(2) 0.161(2) 0.9004(17)
H22 H 0.9128 0.2158 0.8807
O73 O 0.7765(13) 0.1838(13) 0.8407(10)
N6 N 0.8394(13) 0.1320(13) 0.8827(12)
C28 C 0.961(2) 0.026(2) 0.9754(18)
C29 C 0.832(2) 0.0503(17) 0.9096(15)
H23 H 0.7825 0.0306 0.8969
C30 C 0.973(2) 0.111(2) 0.9482(18)
W16 W 0.26904(5) 0.87803(5) 0.51775(4)
W21 W 0.43240(5) 0.70544(5) 0.63921(4)
W22 W 0.45044(6) 0.52602(6) 0.78023(5)
W24 W 0.40456(5) 0.86368(5) 0.74698(5)
W25 W 0.11438(5) 0.57823(5) 0.75417(5)
W26 W 0.27998(5) 0.55636(5) 0.64248(4)
W27 W 0.08466(6) 0.75284(6) 0.87386(5)
W28 W 0.22242(6) 0.88837(6) 0.87061(5)
W29 W 0.42330(6) 0.68770(6) 0.89016(5)
W30 W 0.28134(6) 0.54933(6) 0.89415(5)
P3 P 0.2639(3) 0.7151(3) 0.7594(2)
P4 P 0.0856(3) 0.9040(3) 0.6258(2)
C32 C 0.4062(13) 0.0163(13) 0.3738(12)
N7 N 0.3929(14) 0.1444(12) 0.4647(11)
C33 C 0.4811(15) 0.0310(15) 0.4028(12)
C34 C 0.4747(14) 0.0960(14) 0.4480(14)
H26 H 0.5266 0.1056 0.4662
C35 C 0.0510(14) 0.3197(16) 0.6051(13)
H27 H 0.0374 0.2662 0.6204
C36 C 0.0229(16) 0.4739(15) 0.6016(14)
C37 C 0.0030(16) 0.3971(17) 0.6290(16)
C38 C 0.1217(16) 0.3148(15) 0.5577(13)
H29 H 0.1549 0.2602 0.5432
O74 O 0.0446(9) 0.6470(9) 0.6895(7)
O75 O 0.1904(9) 0.6517(9) 0.9097(7)
O76 O 0.3185(10) 0.7777(11) 0.9085(9)
O77 O 0.0547(12) 0.5015(11) 0.7762(8)
O78 O 0.1960(8) 0.5106(9) 0.6951(8)
O79 O 0.449(4) 0.482(3) 0.494(3)
O80 O 0.4824(9) 0.9233(11) 0.7669(9)
O81 O 0.1925(8) 0.6313(8) 0.5871(6)
O82 O 0.302(2) 0.5179(15) 0.4298(18)
O84 O 0.4994(10) 0.6956(11) 0.9517(8)
O85 O 0.1815(9) 0.9140(8) 0.6130(8)
O86 O 0.1408(11) 0.8291(11) 0.9184(8)
O87 O 0.4903(14) 0.3316(14) 0.9124(11)
O88 O 0.0573(9) 0.9265(8) 0.6973(7)
O89 O 0.3683(9) 0.5057(8) 0.7197(7)
O90 O 0.3157(11) 0.2923(9) 0.6133(9)
O92 O 0.3540(10) 0.6108(10) 0.9349(8)
O93 O 0.3001(11) 0.3337(13) 0.3843(9)
O94 O 0.1990(10) 0.3907(11) 0.4911(9)
O95 O 0.4768(9) 0.6113(9) 0.7164(7)
C39 C 0.3157(15) 0.1292(13) 0.4380(10)
H30 H 0.2589 0.1627 0.4499
O96 O 0.5105(11) 0.3059(13) 0.5619(9)
O97 O 0.0209(8) 0.6931(8) 0.5574(7)
O98 O 0.3025(9) 0.9746(8) 0.5532(8)
O99 O 0.1364(10) 0.9662(9) 0.8190(7)
O100 O 0.6441(14) 0.1796(15) 0.9527(11)
O101 O 0.2000(9) 0.7793(8) 0.8010(8)
O102 O 0.6104(14) 0.4521(13) 0.9257(10)
O103 O 0.2155(8) 0.6608(8) 0.7226(7)
O105 O 0.3590(9) 0.6314(9) 0.6248(7)
O106 O 0.7574(13) 0.2957(15) 0.9630(10)
O107 O 0.4472(9) 0.7599(9) 0.8158(8)
O108 O 0.3313(8) 0.6455(8) 0.8130(7)
O109 O 0.0150(10) 0.7325(12) 0.9359(10)
O111 O 0.3204(11) 0.4709(9) 0.5912(8)
O113 O 0.1503(10) 0.6598(9) 0.4548(8)
O114 O 0.2707(11) 0.4692(12) 0.9567(10)
O115 O 0.3417(10) 0.8543(9) 0.4530(7)
O116 O 0.3634(9) 0.7969(10) 0.5850(7)
O117 O 0.3221(9) 0.7618(9) 0.7168(7)
O118 O 0.0115(10) 0.8428(11) 0.8204(8)
O120 O 0.2195(10) 0.7769(8) 0.5245(7)
O122 O 0.4785(9) 0.7839(8) 0.6905(6)
N8 N 0.1360(13) 0.3922(12) 0.5363(11)
O125 O 0.3391(9) 0.9395(9) 0.6815(7)
O126 O 0.0736(9) 0.6665(9) 0.8151(7)
O127 O 0.3124(11) 0.9003(10) 0.8089(9)
O130 O 0.3871(11) 0.2021(10) 0.5116(9)
O134 O 0.2119(9) 0.5284(9) 0.8253(8)
O137 O 0.2390(11) 0.9531(11) 0.9322(9)
O138 O 0.5416(11) 0.4332(10) 0.7812(8)
C40 C 0.3229(15) 0.0693(16) 0.3970(13)
H31 H 0.2699 0.0594 0.3812
C42 C 0.0893(17) 0.4709(15) 0.5550(14)
H32 H 0.1012 0.5241 0.5369
O139 O 0.6745(19) 0.2904(19) 0.7371(13)
H36 H 0.3034 0.0119 0.2741
O140 O 0.0768(8) 0.8109(8) 0.6152(6)
O141 O 0.4965(11) 0.5907(11) 0.8414(9)
O144 O 0.3807(10) 0.4779(10) 0.8437(8)
O158 O 0.7485(12) 0.4041(12) 0.8290(14)
C26 C 0.8904(19) 0.9993(17) 0.9522(13)
H21 H 0.8840 0.9425 0.9673
C31 C 0.4155(13) 0.9497(13) 0.3260(11)
H25 H 0.5380 0.9964 0.3920
C43 C 0.4914(18) 0.875(2) 0.3249(16)
H33 H 0.5381 0.8642 0.3564
C45 C 0.494(2) 0.819(2) 0.2769(18)
H35 H 0.5414 0.7661 0.2778
C46 C 0.353(2) 0.961(2) 0.276(2)
N9 N 0.434(2) 0.8358(15) 0.2291(13)
C47 C 0.358(2) 0.901(2) 0.231(2)
H37 H 0.3108 0.9056 0.2010
O110 O 0.7837(11) 0.1984(11) 0.6332(10)
O129 O 0.9638(10) 0.0162(9) 0.7868(9)
O133 O 0.9936(9) 0.1161(9) 0.6752(8)
W18 W 0.95161(5) 0.75113(5) 0.63098(4)
W20 W 0.92167(5) 0.92275(5) 0.74973(4)
H28 H 0.9907 0.5297 0.6148
O83 O 0.8687(9) 0.6940(9) 0.6415(8)
O131 O 0.8299(10) 0.9195(11) 0.7983(8)
O132 O 0.9400(9) 0.8110(9) 0.7090(7)
O135 O 0.8697(8) 0.9928(9) 0.6778(7)
C41 C 0.9339(15) 0.4003(14) 0.6770(13)
C44 C 0.9199(17) 0.3230(18) 0.7065(15)
H34 H 0.9564 0.2682 0.6947
C48 C 0.853(2) 0.3209(18) 0.7541(19)
H38 H 0.8416 0.2668 0.7707
N10 N 0.8041(14) 0.4032(14) 0.7751(14)
C49 C 0.818(3) 0.476(2) 0.748(2)
H39 H 0.7847 0.5311 0.7620
C50 C 0.882(3) 0.4783(19) 0.699(3)
H40 H 0.8884 0.5337 0.6809
H24 H 0.0211 0.1323 0.9613
Na1 Na 0.8142(8) 0.6083(8) 0.9764(6)
Na2 Na 0.1858(8) 0.3917(8) 0.0236(6)
H15 H 0.9789 0.8677 0.0387
loop_
_geom_bond_atom_site_label_1
_geom_bond_atom_site_label_2
_geom_bond_site_symmetry_1
_geom_bond_site_symmetry_2
O10 W3 1_555 1_555
O47 W3 1_555 1_555
O59 W5 1_555 1_555
O60 W3 1_555 1_555
O63 W5 1_555 1_555
C17 C13 1_555 1_555
H12 C17 1_555 1_555
C23 C17 1_555 1_555
H18 C23 1_555 1_555
N5 C23 1_555 1_555
O71 N5 1_555 1_555
C24 N5 1_555 1_555
H19 C24 1_555 1_555
C25 C13 1_555 1_555
H20 C25 1_555 1_555
Ce8 O71 1_555 1_555
Mn6 O47 1_555 1_555
W5 O60 1_555 1_555
C24 C25 1_555 1_555
Mn2 O38 1_555 1_555
W32 O51 1_555 1_555
O148 Mn2 1_555 1_555
Mn2 O51 1_555 1_555
Mn2 O61 1_555 1_555
C4 H2 1_555 1_555
C15 C1 1_555 1_555
H11 C15 1_555 1_555
C19 C15 1_555 1_555
H14 C19 1_555 1_555
C21 C1 1_555 1_555
N4 C19 1_555 1_555
O70 N4 1_555 1_555
C22 C21 1_555 1_555
H17 C22 1_555 1_555
Ce10 O70 1_555 1_555
N4 C22 1_555 1_555
W1 O12 1_555 1_555
W2 O8 1_555 1_555
W6 O22 1_555 1_555
W7 O16 1_555 1_555
W9 O7 1_555 1_555
W10 O1 1_555 1_555
W11 O5 1_555 1_555
W12 O2 1_555 1_555
W13 O3 1_555 1_555
Ce1 O6 1_555 1_555
W14 O3 1_555 1_555
W15 O2 1_555 1_555
Ce8 O14 1_555 1_555
P1 O28 1_555 1_555
P2 O12 1_555 1_555
C2 C3 1_555 1_555
N1 C6 1_555 1_555
C5 H3 1_555 1_555
C6 C3 1_555 1_555
H4 C6 1_555 1_555
C7 H5 1_555 1_555
C9 C7 1_555 1_555
C10 C7 1_555 1_555
H7 C10 1_555 1_555
O4 W10 1_555 1_555
O5 W10 1_555 1_555
O8 W11 1_555 1_555
O9 Ce1 1_555 1_555
O11 W14 1_555 1_555
O13 W12 1_555 1_555
O15 P2 1_555 1_555
O16 W11 1_555 1_555
O17 Ce1 1_555 1_555
O19 W14 1_555 1_555
O20 Ce1 1_555 1_555
O21 Ce1 1_555 1_555
O22 W7 1_555 1_555
C11 N1 1_555 1_555
H8 C11 1_555 1_555
O23 Ce1 1_555 1_555
O24 W2 1_555 1_555
O25 W1 1_555 1_555
O27 Ce8 1_555 1_555
O28 W12 1_555 1_555
O29 Ce8 1_555 1_555
O30 W10 1_555 1_555
O31 W6 1_555 1_555
O32 W6 1_555 1_555
O33 Ce8 1_555 1_555
O34 W9 1_555 1_555
O35 W7 1_555 1_555
O36 Ce8 1_555 1_555
O37 W12 1_555 1_555
O39 W11 1_555 1_555
O40 W1 1_555 1_555
O41 W2 1_555 1_555
O42 W15 1_555 1_555
O43 W1 1_555 1_555
O44 W1 1_555 1_555
O45 W6 1_555 1_555
O48 W1 1_555 1_555
O50 W6 1_555 1_555
N2 C10 1_555 1_555
O54 W10 1_555 1_555
O55 W9 1_555 1_555
O58 Ce1 1_555 1_555
O62 W10 1_555 1_555
O65 W13 1_555 1_555
O66 W7 1_555 1_555
N3 C5 1_555 1_555
C12 C2 1_555 1_555
H9 C12 1_555 1_555
C14 C8 1_555 1_555
H10 C14 1_555 1_555
O67 Ce8 1_555 1_555
H13 C18 1_555 1_555
C20 C5 1_555 1_555
O68 W2 1_555 1_555
O69 W7 1_555 1_555
O72 W7 1_555 1_555
Ce6 O31 1_555 1_555
Mn8 O40 1_555 1_555
O146 Ce1 1_555 1_555
O154 W2 1_555 1_555
O156 Ce8 1_555 1_555
W2 O48 1_555 1_555
W6 O44 1_555 1_555
W9 O45 1_555 1_555
W9 O50 1_555 1_555
W9 O53 1_555 1_555
W11 O30 1_555 1_555
W11 O32 1_555 1_555
W12 O46 1_555 1_555
W12 O54 1_555 1_555
W13 O13 1_555 1_555
W13 O26 1_555 1_555
W13 O28 1_555 1_555
W13 O55 1_555 1_555
Ce1 O39 1_555 1_555
W14 O34 1_555 1_555
W14 O35 1_555 1_555
W14 O69 1_555 1_555
W15 O19 1_555 1_555
W15 O35 1_555 1_555
W15 O62 1_555 1_555
W15 O72 1_555 1_555
Ce8 O66 1_555 1_555
P1 O30 1_555 1_555
P1 O35 1_555 1_555
P1 O45 1_555 1_555
P2 O49 1_555 1_555
P2 O68 1_555 1_555
N1 O58 1_555 1_555
C8 C9 1_555 1_555
O21 N2 1_555 1_555
C11 C12 1_555 1_555
O36 N3 1_555 1_555
N2 C14 1_555 1_555
N3 C18 1_555 1_555
C16 C20 1_555 1_555
Mn8 O154 1_555 1_555
O18 W4 1_555 1_555
O52 W8 1_555 1_555
O56 W8 1_555 1_555
O64 W4 1_555 1_555
O150 Mn1 1_555 1_555
W8 O64 1_555 1_555
Mn1 O52 1_555 1_555
O91 W19 1_555 1_555
O124 W23 1_555 1_555
O128 W23 1_555 1_555
O136 W19 1_555 1_555
W23 O136 1_555 1_555
Mn6 O124 1_555 1_555
C27 H22 1_555 1_555
O73 N6 1_555 1_555
N6 C27 1_555 1_555
H23 C29 1_555 1_555
C30 C27 1_555 1_555
W16 O85 1_555 1_555
W32 O81 1_555 1_555
W21 O95 1_555 1_555
W22 O89 1_555 1_555
W24 O80 1_555 1_555
W25 O74 1_555 1_555
W26 O78 1_555 1_555
W27 O75 1_555 1_555
W28 O76 1_555 1_555
Ce6 O79 1_555 1_555
W29 O76 1_555 1_555
W30 O75 1_555 1_555
Ce10 O73 1_555 1_555
P3 O101 1_555 1_555
P4 O85 1_555 1_555
C32 C33 1_555 1_555
N7 C34 1_555 1_555
C34 C33 1_555 1_555
H26 C34 1_555 1_555
C35 H27 1_555 1_555
C37 C35 1_555 1_555
C38 C35 1_555 1_555
H29 C38 1_555 1_555
O77 W25 1_555 1_555
O78 W25 1_555 1_555
O81 W26 1_555 1_555
O82 Ce6 1_555 1_555
O84 W29 1_555 1_555
O86 W27 1_555 1_555
O87 Ce10 1_555 1_555
O88 P4 1_555 1_555
O89 W26 1_555 1_555
O90 Ce6 1_555 1_555
O92 W29 1_555 1_555
O93 Ce6 1_555 1_555
O94 Ce6 1_555 1_555
O95 W22 1_555 1_555
C39 N7 1_555 1_555
H30 C39 1_555 1_555
O96 Ce6 1_555 1_555
O97 W32 1_555 1_555
O98 W16 1_555 1_555
O100 Ce10 1_555 1_555
O101 W27 1_555 1_555
O102 Ce10 1_555 1_555
O103 W25 1_555 1_555
O146 W21 1_555 1_555
O105 W21 1_555 1_555
O106 Ce10 1_555 1_555
O107 W24 1_555 1_555
O108 W22 1_555 1_555
O109 W27 1_555 1_555
O111 W26 1_555 1_555
O148 W16 1_555 1_555
O113 W32 1_555 1_555
O114 W30 1_555 1_555
O115 W16 1_555 1_555
O116 W16 1_555 1_555
O117 W21 1_555 1_555
O120 W16 1_555 1_555
O122 W21 1_555 1_555
N8 C38 1_555 1_555
O126 W25 1_555 1_555
O127 W24 1_555 1_555
O130 Ce6 1_555 1_555
O134 W25 1_555 1_555
O137 W28 1_555 1_555
O138 W22 1_555 1_555
C40 C32 1_555 1_555
H31 C40 1_555 1_555
C42 C36 1_555 1_555
H32 C42 1_555 1_555
O139 Ce10 1_555 1_555
O140 W32 1_555 1_555
O141 W22 1_555 1_555
O144 W22 1_555 1_555
O158 Ce10 1_555 1_555
N6 C29 1_555 1_555
C28 C30 1_555 1_555
W32 O120 1_555 1_555
W21 O116 1_555 1_555
W24 O117 1_555 1_555
W24 O122 1_555 1_555
W24 O125 1_555 1_555
W26 O103 1_555 1_555
W26 O105 1_555 1_555
W27 O118 1_555 1_555
W27 O126 1_555 1_555
W28 O86 1_555 1_555
W28 O99 1_555 1_555
W28 O101 1_555 1_555
W28 O127 1_555 1_555
Ce6 O111 1_555 1_555
W29 O107 1_555 1_555
W29 O108 1_555 1_555
W29 O141 1_555 1_555
W30 O92 1_555 1_555
W30 O108 1_555 1_555
W30 O134 1_555 1_555
W30 O144 1_555 1_555
Ce10 O138 1_555 1_555
P3 O103 1_555 1_555
P3 O108 1_555 1_555
P3 O117 1_555 1_555
P4 O152 1_555 1_555
P4 O140 1_555 1_555
N7 O130 1_555 1_555
C36 C37 1_555 1_555
O94 N8 1_555 1_555
C39 C40 1_555 1_555
N8 C42 1_555 1_555
C26 H21 1_555 1_555
C43 C31 1_555 1_555
H33 C43 1_555 1_555
C45 C43 1_555 1_555
H35 C45 1_555 1_555
C46 C31 1_555 1_555
N9 C45 1_555 1_555
O156 N9 1_555 1_555
C47 C46 1_555 1_555
H37 C47 1_555 1_555
N9 C47 1_555 1_555
Mn8 O110 1_555 1_555
Mn8 O133 1_555 1_555
O83 W18 1_555 1_555
O150 W18 1_555 1_555
O131 W20 1_555 1_555
O132 W18 1_555 1_555
O135 W20 1_555 1_555
C44 C41 1_555 1_555
H34 C44 1_555 1_555
C48 C44 1_555 1_555
H38 C48 1_555 1_555
N10 C48 1_555 1_555
O158 N10 1_555 1_555
C49 N10 1_555 1_555
H39 C49 1_555 1_555
C50 C41 1_555 1_555
H40 C50 1_555 1_555
W20 O132 1_555 1_555
C49 C50 1_555 1_555

#END
