
###############################################################################
#
# This file contains modified crystal structure data generated from the
# MOF subset of the Cambridge Structural Database (CSD) v543 
# hosted by the Cambridge Crystallographic Data Centre (CCDC).
#
# This work is licensed under the Creative Commons
# Attribution-NonCommercial-ShareAlike 4.0 International License.
# To view a copy of this license, visit
# http://creativecommons.org/licenses/by-nc-sa/4.0/
# or send a letter to
# Creative Commons, PO Box 1866, Mountain View, CA 94042, USA.
#
# CIF created using the CSD Python API on 29 September 2022
# The structure has been converted into the P1 space group
# The structure has a 3D framework
# The original CSD entry NIJKID is in the triclinic crystal system
# The framework has been calculated to contain at least 10.0% void space
# The void calculation uses a probe of radius 1.32A, grid spacing 0.4
#
###############################################################################

data_NIJKID
_chemical_formula_moiety         '(C48 H30 Co2 Li2 N2 O12)n'
_symmetry_cell_setting           triclinic
_symmetry_space_group_name_H-M   'P 1'
_symmetry_Int_Tables_number      1
_space_group_name_Hall           'P 1'
loop_
_symmetry_equiv_pos_site_id
_symmetry_equiv_pos_as_xyz
1 x,y,z
_cell_length_a                   12.6810(4)
_cell_length_b                   12.7327(5)
_cell_length_c                   13.8107(5)
_cell_angle_alpha                103.371(3)
_cell_angle_beta                 104.596(3)
_cell_angle_gamma                95.429(3)
_cell_volume                     2071.59
loop_
_atom_site_label
_atom_site_type_symbol
_atom_site_fract_x
_atom_site_fract_y
_atom_site_fract_z
O6 O 0.3995(2) 0.4762(3) 0.0179(3)
O7 O 0.3828(3) 0.5380(3) 0.8013(3)
O8 O 0.2010(3) 0.5033(4) 0.7366(3)
N1 N 0.3908(3) 0.2659(3) 0.2906(3)
C1 C 0.3033(3) 0.4738(4) 0.0273(4)
C2 C 0.2696(3) 0.4144(4) 0.0982(4)
C3 C 0.3443(3) 0.3663(4) 0.1588(3)
H1 H 0.4162 0.3702 0.1537
C4 C 0.3141(3) 0.3115(4) 0.2283(3)
C5 C 0.1605(3) 0.4095(4) 0.1058(4)
H2 H 0.1095 0.4406 0.0647
C6 C 0.1299(3) 0.3582(5) 0.1749(4)
C7 C 0.2060(3) 0.3089(5) 0.2344(4)
H3 H 0.1838 0.2733 0.2794
C8 C 0.0159(4) 0.3540(6) 0.1859(5)
C9 C 0.4829(3) 0.2252(4) 0.2551(4)
H4 H 0.5426 0.2262 0.3152
H5 H 0.5097 0.2748 0.2196
C10 C 0.4536(3) 0.1103(4) 0.1827(3)
C11 C 0.3461(3) 0.0645(5) 0.1261(4)
H6 H 0.2896 0.1052 0.1313
C15 C 0.5359(3) 0.0488(5) 0.1718(4)
H9 H 0.6087 0.0791 0.2083
C17 C 0.3525(4) 0.2083(5) 0.3587(4)
H10 H 0.4061 0.1632 0.3815
H11 H 0.2833 0.1604 0.3198
C18 C 0.2983(4) 0.4910(5) 0.7281(4)
C19 C 0.3091(3) 0.4243(4) 0.6315(4)
C20 C 0.2278(4) 0.3346(6) 0.5708(4)
H12 H 0.1631 0.3216 0.5892
C21 C 0.2427(4) 0.2653(5) 0.4841(4)
H13 H 0.1893 0.2045 0.4467
C22 C 0.3362(4) 0.2850(4) 0.4516(4)
C23 C 0.4151(4) 0.3755(5) 0.5105(4)
H14 H 0.4778 0.3908 0.4896
C24 C 0.4029(4) 0.4435(5) 0.5996(4)
H15 H 0.4580 0.5026 0.6383
Co3 Co 0.20410(4) 0.59836(6) 0.87127(5)
Li3 Li 0.4574(4) 0.5720(6) 0.9447(6)
Li4 Li 0.5426(4) 0.4280(6) 0.0553(6)
O5 O 0.2299(2) 0.5172(3) 0.9788(3)
C12 C 0.3212(3) 0.9588(5) 0.0618(4)
H7 H 0.2483 0.9294 0.0247
C13 C 0.4053(3) 0.8952(4) 0.0520(4)
C14 C 0.5131(3) 0.9446(5) 0.1088(4)
H8 H 0.5709 0.9057 0.1037
O1 O 0.4530(2) 0.7221(3) 0.9951(3)
O2 O 0.2803(2) 0.7501(3) 0.9290(3)
C16 C 0.3797(3) 0.7813(4) 0.9873(4)
O9 O 0.0503(2) 0.6061(3) 0.8712(3)
O12 O 0.6005(2) 0.5238(3) 0.9821(3)
O3 O 0.9920(4) 0.3177(6) 0.2548(5)
O4 O 0.9497(2) 0.3939(3) 0.1288(3)
Co4 Co 0.79590(4) 0.40164(6) 0.12873(5)
O3_2 O 0.0080(4) 0.6823(6) 0.7452(5)
O1_2 O 0.5470(2) 0.2779(3) 0.0049(3)
O2_2 O 0.7197(2) 0.2499(3) 0.0710(3)
C16_2 C 0.6203(3) 0.2187(4) 0.0127(4)
O10 O 0.7701(2) 0.4828(3) 0.0212(3)
O13 O 0.6172(3) 0.4620(3) 0.1987(3)
O14 O 0.7990(3) 0.4967(4) 0.2634(3)
C12_2 C 0.6788(3) 0.0412(5) 0.9382(4)
H7_2 H 0.7517 0.0706 0.9753
C13_2 C 0.5947(3) 0.1048(4) 0.9480(4)
C14_2 C 0.4869(3) 0.0554(5) 0.8912(4)
H8_2 H 0.4291 0.0943 0.8963
N1_2 N 0.6092(3) 0.7341(3) 0.7094(3)
C1_2 C 0.6967(3) 0.5262(4) 0.9727(4)
C2_2 C 0.7304(3) 0.5856(4) 0.9018(4)
C3_2 C 0.6557(3) 0.6337(4) 0.8412(3)
H1_2 H 0.5838 0.6298 0.8463
C4_2 C 0.6859(3) 0.6885(4) 0.7717(3)
C5_2 C 0.8395(3) 0.5905(4) 0.8942(4)
H2_2 H 0.8905 0.5594 0.9353
C6_2 C 0.8701(3) 0.6418(5) 0.8251(4)
C7_2 C 0.7940(3) 0.6911(5) 0.7656(4)
H3_2 H 0.8162 0.7267 0.7206
C8_2 C 0.9841(4) 0.6460(6) 0.8141(5)
C9_2 C 0.5171(3) 0.7748(4) 0.7449(4)
H4_2 H 0.4574 0.7738 0.6848
H5_2 H 0.4903 0.7252 0.7804
C10_2 C 0.5464(3) 0.8897(4) 0.8173(3)
C11_2 C 0.6539(3) 0.9355(5) 0.8739(4)
H6_2 H 0.7104 0.8948 0.8687
C15_2 C 0.4641(3) 0.9512(5) 0.8282(4)
H9_2 H 0.3913 0.9209 0.7917
C17_2 C 0.6475(4) 0.7917(5) 0.6413(4)
H10_2 H 0.5939 0.8368 0.6185
H11_2 H 0.7167 0.8396 0.6802
C18_2 C 0.7017(4) 0.5090(5) 0.2719(4)
C19_2 C 0.6909(3) 0.5757(4) 0.3685(4)
C20_2 C 0.7722(4) 0.6654(6) 0.4292(4)
H12_2 H 0.8369 0.6784 0.4108
C21_2 C 0.7573(4) 0.7347(5) 0.5159(4)
H13_2 H 0.8107 0.7955 0.5533
C22_2 C 0.6638(4) 0.7150(4) 0.5484(4)
C23_2 C 0.5849(4) 0.6245(5) 0.4895(4)
H14_2 H 0.5222 0.6092 0.5104
C24_2 C 0.5971(4) 0.5565(5) 0.4004(4)
H15_2 H 0.5420 0.4974 0.3617
loop_
_geom_bond_atom_site_label_1
_geom_bond_atom_site_label_2
_geom_bond_site_symmetry_1
_geom_bond_site_symmetry_2
O6 C1 1_555 1_555
O7 C18 1_555 1_555
O8 C18 1_555 1_555
N1 C4 1_555 1_555
C1 C2 1_555 1_555
C2 C3 1_555 1_555
C3 H1 1_555 1_555
C4 C3 1_555 1_555
C5 C2 1_555 1_555
H2 C5 1_555 1_555
C6 C5 1_555 1_555
C7 C4 1_555 1_555
H3 C7 1_555 1_555
C8 C6 1_555 1_555
C9 N1 1_555 1_555
H4 C9 1_555 1_555
H5 C9 1_555 1_555
C10 C9 1_555 1_555
C11 C10 1_555 1_555
H6 C11 1_555 1_555
C15 C10 1_555 1_555
H9 C15 1_555 1_555
C17 N1 1_555 1_555
H10 C17 1_555 1_555
H11 C17 1_555 1_555
C18 C19 1_555 1_555
C19 C20 1_555 1_555
C20 H12 1_555 1_555
C21 C20 1_555 1_555
H13 C21 1_555 1_555
C22 C17 1_555 1_555
C23 C22 1_555 1_555
H14 C23 1_555 1_555
C24 C19 1_555 1_555
H15 C24 1_555 1_555
Co3 O8 1_555 1_555
Li3 O7 1_555 1_555
Li4 O6 1_555 1_555
C6 C7 1_555 1_555
C21 C22 1_555 1_555
C23 C24 1_555 1_555
Co3 O5 1_555 1_555
H7 C12 1_555 1_555
C13 C12 1_555 1_555
C14 C13 1_555 1_555
H8 C14 1_555 1_555
Co3 O2 1_555 1_555
O1 C16 1_555 1_555
O2 C16 1_555 1_555
Li3 O1 1_555 1_555
O9 Co3 1_555 1_555
O12 Li3 1_555 1_555
Co4 O4 1_555 1_555
Co4 O2_2 1_555 1_555
O1_2 C16_2 1_555 1_555
O2_2 C16_2 1_555 1_555
Li4 O1_2 1_555 1_555
O10 Co4 1_555 1_555
O13 Li4 1_555 1_555
O14 Co4 1_555 1_555
H7_2 C12_2 1_555 1_555
C13_2 C12_2 1_555 1_555
C14_2 C13_2 1_555 1_555
H8_2 C14_2 1_555 1_555
O12 C1_2 1_555 1_555
O13 C18_2 1_555 1_555
O14 C18_2 1_555 1_555
N1_2 C4_2 1_555 1_555
C1_2 C2_2 1_555 1_555
C2_2 C3_2 1_555 1_555
C3_2 H1_2 1_555 1_555
C4_2 C3_2 1_555 1_555
C5_2 C2_2 1_555 1_555
H2_2 C5_2 1_555 1_555
C6_2 C5_2 1_555 1_555
C7_2 C4_2 1_555 1_555
H3_2 C7_2 1_555 1_555
C8_2 C6_2 1_555 1_555
C9_2 N1_2 1_555 1_555
H4_2 C9_2 1_555 1_555
H5_2 C9_2 1_555 1_555
C10_2 C9_2 1_555 1_555
C11_2 C10_2 1_555 1_555
H6_2 C11_2 1_555 1_555
C15_2 C10_2 1_555 1_555
H9_2 C15_2 1_555 1_555
C17_2 N1_2 1_555 1_555
H10_2 C17_2 1_555 1_555
H11_2 C17_2 1_555 1_555
C18_2 C19_2 1_555 1_555
C19_2 C20_2 1_555 1_555
C20_2 H12_2 1_555 1_555
C21_2 C20_2 1_555 1_555
H13_2 C21_2 1_555 1_555
C22_2 C17_2 1_555 1_555
C23_2 C22_2 1_555 1_555
H14_2 C23_2 1_555 1_555
C24_2 C19_2 1_555 1_555
H15_2 C24_2 1_555 1_555
C6_2 C7_2 1_555 1_555
C21_2 C22_2 1_555 1_555
C23_2 C24_2 1_555 1_555

#END
