
###############################################################################
#
# This file contains modified crystal structure data generated from the
# MOF subset of the Cambridge Structural Database (CSD) v543 
# hosted by the Cambridge Crystallographic Data Centre (CCDC).
#
# This work is licensed under the Creative Commons
# Attribution-NonCommercial-ShareAlike 4.0 International License.
# To view a copy of this license, visit
# http://creativecommons.org/licenses/by-nc-sa/4.0/
# or send a letter to
# Creative Commons, PO Box 1866, Mountain View, CA 94042, USA.
#
# CIF created using the CSD Python API on 29 September 2022
# The structure has been converted into the P1 space group
# The structure has a 3D framework
# The original CSD entry NIJMOL is in the triclinic crystal system
# The framework has been calculated to contain at least 10.0% void space
# The void calculation uses a probe of radius 1.32A, grid spacing 0.4
#
###############################################################################

data_NIJMOL
_chemical_formula_moiety         '(C60 H58 Co2 Li4 N6 O18)n'
_symmetry_cell_setting           triclinic
_symmetry_space_group_name_H-M   'P 1'
_symmetry_Int_Tables_number      1
_space_group_name_Hall           'P 1'
loop_
_symmetry_equiv_pos_site_id
_symmetry_equiv_pos_as_xyz
1 x,y,z
_cell_length_a                   12.3488(2)
_cell_length_b                   12.5754(2)
_cell_length_c                   14.1896(2)
_cell_angle_alpha                106.0160(10)
_cell_angle_beta                 103.8640(10)
_cell_angle_gamma                99.0180(10)
_cell_volume                     1996.79
loop_
_atom_site_label
_atom_site_type_symbol
_atom_site_fract_x
_atom_site_fract_y
_atom_site_fract_z
C15 C 0.0567(3) 0.0361(3) 0.1790(3)
H9 H 0.0905 0.1105 0.2224
H19 H 0.2900 0.0128 0.2328
H20 H 0.2353 0.0405 0.3228
Li6 Li 0.4346(5) 0.0435(4) 0.0602(4)
O4 O 0.4309(2) 0.45973(19) 0.15039(19)
O5 O 0.2982(3) 0.4740(2) 0.2310(3)
O7 O 0.47091(19) 0.89798(18) 0.01594(18)
O9 O 0.4713(2) 0.6922(2) 0.72602(19)
O10 O 0.5197(2) 0.8796(2) 0.79765(18)
N1 N 0.2673(2) 0.8859(2) 0.2904(2)
C1 C 0.4712(3) 0.8022(3) 0.0269(2)
C2 C 0.4206(3) 0.7699(3) 0.1042(2)
C3 C 0.4240(3) 0.6645(3) 0.1161(3)
H1 H 0.4619 0.6171 0.0803
C4 C 0.3704(3) 0.6307(3) 0.1820(3)
C5 C 0.3169(3) 0.7029(3) 0.2380(3)
H2 H 0.2806 0.6785 0.2813
C6 C 0.3681(3) 0.8432(3) 0.1610(2)
H3 H 0.3672 0.9139 0.1527
C7 C 0.3167(3) 0.8118(3) 0.2304(2)
C8 C 0.2743(3) 0.8266(3) 0.4443(2)
C9 C 0.2499(3) 0.7259(3) 0.4660(3)
H4 H 0.1887 0.6666 0.4209
C10 C 0.3662(3) 0.9152(3) 0.5130(3)
H5 H 0.3851 0.9819 0.4978
C11 C 0.4294(3) 0.9047(3) 0.6034(3)
H6 H 0.4886 0.9652 0.6498
C12 C 0.3161(3) 0.7130(3) 0.5545(3)
H7 H 0.3013 0.6440 0.5666
C13 C 0.1158(3) 0.9517(3) 0.1842(2)
C14 C 0.0635(3) 0.8414(3) 0.1177(3)
H8 H 0.1016 0.7836 0.1198
C16 C 0.3665(3) 0.5135(3) 0.1901(3)
C21 C 0.4699(3) 0.7922(3) 0.7230(3)
C22 C 0.4042(3) 0.8030(3) 0.6249(3)
C26 C 0.2336(3) 0.9815(3) 0.2613(3)
C27 C 0.2009(3) 0.8418(3) 0.3491(3)
H21 H 0.1498 0.7688 0.3053
H22 H 0.1537 0.8935 0.3693
Co3 Co 0.57266(4) 0.69952(4) 0.85828(4)
Co4 Co 0.42734(4) 0.30048(4) 0.14172(4)
Li3 Li 0.2141(6) 0.3248(6) 0.2131(6)
Li5 Li 0.5654(5) 0.9565(4) 0.9398(4)
O6 O 0.5102(2) 0.72711(19) 0.97562(19)
N2 N 0.1236(4) 0.6953(4) 0.7990(4)
C23 C 0.0103(4) 0.6739(5) 0.7608(4)
C24 C 0.1790(6) 0.7256(7) 0.9053(5)
H13 H 0.1308 0.7582 0.9433
H14 H 0.2506 0.7802 0.9233
H15 H 0.1934 0.6589 0.9216
C25 C 0.1962(8) 0.6891(13) 0.7347(9)
H16 H 0.1545 0.6909 0.6689
H17 H 0.2213 0.6195 0.7262
H18 H 0.2617 0.7528 0.7656
O15 O 0.52909(19) 0.10202(18) 0.98406(18)
C18 C 0.8957(3) 0.9009(3) 0.0441(3)
C20 C 0.9553(3) 0.8167(3) 0.0481(3)
H11 H 0.9223 0.7427 0.0035
O1 O 0.73841(19) 0.77455(19) 0.90582(19)
O2 O 0.7192(2) 0.9469(2) 0.98824(19)
O3 O 0.9440(3) 0.6782(4) 0.8108(3)
O8 O 0.7311(4) 0.7123(3) 0.6639(3)
N3 N 0.6442(8) 0.6573(7) 0.4958(5)
C17 C 0.7765(3) 0.8752(3) 0.9749(3)
H12 H 0.9798 0.6541 0.6900
C28 C 0.7127(11) 0.6577(10) 0.5755(8)
H23 H 0.7584 0.6061 0.5648
C29 C 0.6043(13) 0.7371(11) 0.4741(11)
H24 H 0.5926 0.7861 0.5341
H25 H 0.5324 0.7057 0.4207
H26 H 0.6576 0.7802 0.4512
Li1 Li 0.7859(6) 0.6752(6) 0.7869(6)
C30 C 0.6955(19) 0.5905(15) 0.3771(15)
H27 H 0.7234 0.5252 0.3843
H28 H 0.7560 0.6459 0.3734
H29 H 0.6323 0.5677 0.3154
O11 O 0.5691(2) 0.54027(19) 0.84961(19)
O12 O 0.7018(3) 0.5260(2) 0.7690(3)
O1_2 O 0.26159(19) 0.22545(19) 0.09418(19)
O2_2 O 0.2808(2) 0.0531(2) 0.01176(19)
O3_2 O 0.0560(3) 0.3218(4) 0.1892(3)
O8_2 O 0.2689(4) 0.2877(3) 0.3361(3)
N3_2 N 0.3558(8) 0.3427(7) 0.5042(5)
C17_2 C 0.2235(3) 0.1248(3) 0.0251(3)
H12_2 H 0.0202 0.3459 0.3100
C28_2 C 0.2873(11) 0.3423(10) 0.4245(8)
H23_2 H 0.2416 0.3939 0.4352
C29_2 C 0.3957(13) 0.2629(11) 0.5259(11)
H24_2 H 0.4074 0.2139 0.4659
H25_2 H 0.4676 0.2943 0.5793
H26_2 H 0.3424 0.2198 0.5488
C30_2 C 0.3045(19) 0.4095(15) 0.6229(15)
H27_2 H 0.2766 0.4748 0.6157
H28_2 H 0.2440 0.3541 0.6266
H29_2 H 0.3677 0.4323 0.6846
O13 O 0.4898(2) 0.27289(19) 0.02438(19)
O16 O 0.5287(2) 0.3078(2) 0.27398(19)
O17 O 0.4803(2) 0.1204(2) 0.20235(18)
C18_2 C 0.1043(3) 0.0991(3) 0.9559(3)
C20_2 C 0.0447(3) 0.1833(3) 0.9519(3)
H11_2 H 0.0777 0.2573 0.9965
N2_2 N 0.8764(4) 0.3047(4) 0.2010(4)
C23_2 C 0.9897(4) 0.3261(5) 0.2392(4)
C24_2 C 0.8210(6) 0.2744(7) 0.0947(5)
H13_2 H 0.8692 0.2418 0.0567
H14_2 H 0.7494 0.2198 0.0767
H15_2 H 0.8066 0.3411 0.0784
C25_2 C 0.8038(8) 0.3109(13) 0.2653(9)
H16_2 H 0.8455 0.3091 0.3311
H17_2 H 0.7787 0.3805 0.2738
H18_2 H 0.7383 0.2472 0.2344
N1_2 N 0.7327(2) 0.1141(2) 0.7096(2)
C1_2 C 0.5288(3) 0.1978(3) 0.9731(2)
C2_2 C 0.5794(3) 0.2301(3) 0.8958(2)
C3_2 C 0.5760(3) 0.3355(3) 0.8839(3)
H1_2 H 0.5381 0.3829 0.9197
C4_2 C 0.6296(3) 0.3693(3) 0.8180(3)
C5_2 C 0.6831(3) 0.2971(3) 0.7620(3)
H2_2 H 0.7194 0.3215 0.7187
C6_2 C 0.6319(3) 0.1568(3) 0.8390(2)
H3_2 H 0.6328 0.0861 0.8473
C7_2 C 0.6833(3) 0.1882(3) 0.7696(2)
C8_2 C 0.7257(3) 0.1734(3) 0.5557(2)
C9_2 C 0.7501(3) 0.2741(3) 0.5340(3)
H4_2 H 0.8113 0.3334 0.5791
C10_2 C 0.6338(3) 0.0848(3) 0.4870(3)
H5_2 H 0.6149 0.0181 0.5022
C11_2 C 0.5706(3) 0.0953(3) 0.3966(3)
H6_2 H 0.5114 0.0348 0.3502
C12_2 C 0.6839(3) 0.2870(3) 0.4455(3)
H7_2 H 0.6987 0.3560 0.4334
C13_2 C 0.8842(3) 0.0483(3) 0.8158(2)
C14_2 C 0.9365(3) 0.1586(3) 0.8823(3)
H8_2 H 0.8984 0.2164 0.8802
C16_2 C 0.6335(3) 0.4865(3) 0.8099(3)
C21_2 C 0.5301(3) 0.2078(3) 0.2770(3)
C22_2 C 0.5958(3) 0.1970(3) 0.3751(3)
C26_2 C 0.7664(3) 0.0185(3) 0.7387(3)
C27_2 C 0.7991(3) 0.1582(3) 0.6509(3)
H21_2 H 0.8502 0.2312 0.6947
H22_2 H 0.8463 0.1065 0.6307
C15_2 C 0.9433(3) 0.9639(3) 0.8210(3)
H9_2 H 0.9095 0.8895 0.7776
H19_2 H 0.7100 0.9872 0.7672
H20_2 H 0.7647 0.9595 0.6772
C19 C 0.9483(3) 0.0117(3) 0.1103(3)
H10 H 0.9102 0.0696 0.1082
C19_2 C 0.0517(3) 0.9883(3) 0.8897(3)
H10_2 H 0.0898 0.9304 0.8918
loop_
_geom_bond_atom_site_label_1
_geom_bond_atom_site_label_2
_geom_bond_site_symmetry_1
_geom_bond_site_symmetry_2
H9 C15 1_555 1_555
O4 C16 1_555 1_555
O5 C16 1_555 1_555
O7 C1 1_555 1_555
O9 C21 1_555 1_555
O10 C21 1_555 1_555
N1 C7 1_555 1_555
C1 C2 1_555 1_555
C2 C3 1_555 1_555
C3 H1 1_555 1_555
C4 C3 1_555 1_555
C5 C4 1_555 1_555
H2 C5 1_555 1_555
C6 C2 1_555 1_555
H3 C6 1_555 1_555
C7 C5 1_555 1_555
C8 C9 1_555 1_555
C9 H4 1_555 1_555
C10 C8 1_555 1_555
H5 C10 1_555 1_555
C11 C10 1_555 1_555
H6 C11 1_555 1_555
C12 C9 1_555 1_555
H7 C12 1_555 1_555
C13 C14 1_555 1_555
C14 H8 1_555 1_555
C16 C4 1_555 1_555
C21 C22 1_555 1_555
C22 C11 1_555 1_555
C26 N1 1_555 1_555
C27 N1 1_555 1_555
H21 C27 1_555 1_555
H22 C27 1_555 1_555
Co3 O9 1_555 1_555
Co4 O4 1_555 1_555
Li3 O5 1_555 1_555
Li5 O10 1_555 1_555
C6 C7 1_555 1_555
C8 C27 1_555 1_555
C12 C22 1_555 1_555
C13 C26 1_555 1_555
N2 C23 1_555 1_555
C24 N2 1_555 1_555
H13 C24 1_555 1_555
H14 C24 1_555 1_555
H15 C24 1_555 1_555
C25 N2 1_555 1_555
H16 C25 1_555 1_555
H17 C25 1_555 1_555
H18 C25 1_555 1_555
Co3 O6 1_555 1_555
H11 C20 1_555 1_555
C18 C20 1_555 1_555
Co3 O1 1_555 1_555
O1 C17 1_555 1_555
O2 C17 1_555 1_555
O8 C28 1_555 1_555
N3 C28 1_555 1_555
C28 H23 1_555 1_555
C29 N3 1_555 1_555
H24 C29 1_555 1_555
H25 C29 1_555 1_555
H26 C29 1_555 1_555
Li1 O1 1_555 1_555
Li5 O2 1_555 1_555
C30 N3 1_555 1_555
H27 C30 1_555 1_555
H28 C30 1_555 1_555
H29 C30 1_555 1_555
O11 Co3 1_555 1_555
O12 Li1 1_555 1_555
O3 Li1 1_555 1_555
O8 Li1 1_555 1_555
Co4 O1_2 1_555 1_555
O1_2 C17_2 1_555 1_555
O2_2 C17_2 1_555 1_555
O8_2 C28_2 1_555 1_555
N3_2 C28_2 1_555 1_555
C28_2 H23_2 1_555 1_555
C29_2 N3_2 1_555 1_555
H24_2 C29_2 1_555 1_555
H25_2 C29_2 1_555 1_555
H26_2 C29_2 1_555 1_555
Li3 O1_2 1_555 1_555
Li6 O2_2 1_555 1_555
C30_2 N3_2 1_555 1_555
H27_2 C30_2 1_555 1_555
H28_2 C30_2 1_555 1_555
H29_2 C30_2 1_555 1_555
O13 Co4 1_555 1_555
O16 Co4 1_555 1_555
O17 Li6 1_555 1_555
O3_2 Li3 1_555 1_555
O8_2 Li3 1_555 1_555
H11_2 C20_2 1_555 1_555
C18_2 C20_2 1_555 1_555
N2_2 C23_2 1_555 1_555
C24_2 N2_2 1_555 1_555
H13_2 C24_2 1_555 1_555
H14_2 C24_2 1_555 1_555
H15_2 C24_2 1_555 1_555
C25_2 N2_2 1_555 1_555
H16_2 C25_2 1_555 1_555
H17_2 C25_2 1_555 1_555
H18_2 C25_2 1_555 1_555
O11 C16_2 1_555 1_555
O12 C16_2 1_555 1_555
O15 C1_2 1_555 1_555
O16 C21_2 1_555 1_555
O17 C21_2 1_555 1_555
N1_2 C7_2 1_555 1_555
C1_2 C2_2 1_555 1_555
C2_2 C3_2 1_555 1_555
C3_2 H1_2 1_555 1_555
C4_2 C3_2 1_555 1_555
C5_2 C4_2 1_555 1_555
H2_2 C5_2 1_555 1_555
C6_2 C2_2 1_555 1_555
H3_2 C6_2 1_555 1_555
C7_2 C5_2 1_555 1_555
C8_2 C9_2 1_555 1_555
C9_2 H4_2 1_555 1_555
C10_2 C8_2 1_555 1_555
H5_2 C10_2 1_555 1_555
C11_2 C10_2 1_555 1_555
H6_2 C11_2 1_555 1_555
C12_2 C9_2 1_555 1_555
H7_2 C12_2 1_555 1_555
C13_2 C14_2 1_555 1_555
C14_2 H8_2 1_555 1_555
C16_2 C4_2 1_555 1_555
C21_2 C22_2 1_555 1_555
C22_2 C11_2 1_555 1_555
C26_2 N1_2 1_555 1_555
C27_2 N1_2 1_555 1_555
H21_2 C27_2 1_555 1_555
H22_2 C27_2 1_555 1_555
C6_2 C7_2 1_555 1_555
C8_2 C27_2 1_555 1_555
C12_2 C22_2 1_555 1_555
C13_2 C26_2 1_555 1_555
H9_2 C15_2 1_555 1_555
H10 C19 1_555 1_555
H10_2 C19_2 1_555 1_555

#END
