
###############################################################################
#
# This file contains modified crystal structure data generated from the
# MOF subset of the Cambridge Structural Database (CSD) v543 
# hosted by the Cambridge Crystallographic Data Centre (CCDC).
#
# This work is licensed under the Creative Commons
# Attribution-NonCommercial-ShareAlike 4.0 International License.
# To view a copy of this license, visit
# http://creativecommons.org/licenses/by-nc-sa/4.0/
# or send a letter to
# Creative Commons, PO Box 1866, Mountain View, CA 94042, USA.
#
# CIF created using the CSD Python API on 29 September 2022
# The structure has been converted into the P1 space group
# The structure has a 3D framework
# The original CSD entry NIKYUC is in the monoclinic crystal system
# The framework has been calculated to contain at least 10.0% void space
# The void calculation uses a probe of radius 1.32A, grid spacing 0.4
#
###############################################################################

data_NIKYUC
_chemical_formula_moiety         '(C24 H24 Fe20 O48)n'
_symmetry_cell_setting           triclinic
_symmetry_space_group_name_H-M   'P 1'
_symmetry_Int_Tables_number      1
_space_group_name_Hall           'P 1'
loop_
_symmetry_equiv_pos_site_id
_symmetry_equiv_pos_as_xyz
1 x,y,z
_cell_length_a                   11.4081(2)
_cell_length_b                   9.9146(2)
_cell_length_c                   18.5364(4)
_cell_angle_alpha                90
_cell_angle_beta                 126.8090(10)
_cell_angle_gamma                90
_cell_volume                     1678.61
loop_
_atom_site_label
_atom_site_type_symbol
_atom_site_fract_x
_atom_site_fract_y
_atom_site_fract_z
Fe14 Fe 0.0000 0.0000 0.0000
Fe14_2 Fe 0.0000 0.0000 1.0000
Fe14_3 Fe 0.0000 1.0000 0.0000
Fe14_4 Fe 0.0000 1.0000 1.0000
Fe1 Fe 0.37776(3) 0.07838(3) 0.133810(18)
Fe3 Fe 0.5000 0.0000 0.0000
O1 O 0.44507(13) 0.19698(12) 0.24930(8)
O2 O 0.56641(14) 0.06108(13) 0.37006(8)
O5 O 0.45443(13) 0.25750(12) 0.10893(8)
O6 O 0.49472(14) 0.21053(13) 0.00726(9)
O11 O 0.16414(13) 0.15555(13) 0.06591(8)
O12 O 0.20264(13) 0.37562(13) 0.10176(9)
C1 C 0.51332(19) 0.1715(2) 0.33303(13)
C3 C 0.4846(2) 0.2900(2) 0.05510(13)
C6 C 0.1226(2) 0.2771(2) 0.06112(13)
H1 H 0.5237(18) 0.2472(18) 0.3700(12)
H3 H 0.503(2) 0.385(2) 0.0538(14)
H6 H 0.021(2) 0.2931(19) 0.0227(13)
Fe7 Fe 0.62224(3) 0.57838(3) 0.366190(18)
Fe9 Fe 0.43011(3) 0.38796(3) 0.190970(17)
Fe12 Fe 0.56989(3) 0.88796(3) 0.309030(17)
Fe13 Fe 0.5000 0.5000 0.5000
Fe14_5 Fe 1.0000 0.0000 0.0000
O15 O 0.55493(13) 0.69698(12) 0.25070(8)
O17 O 0.43359(14) 0.56108(13) 0.12994(8)
O19 O 0.41066(13) 0.48987(12) 0.28444(8)
O21 O 0.31881(14) 0.48591(14) 0.36235(9)
O26 O 0.65581(13) 0.41637(12) 0.30353(8)
O29 O 0.89007(14) 0.10511(13) 0.04152(9)
C7 C 0.48668(19) 0.6715(2) 0.16697(13)
C9 C 0.3088(2) 0.4719(2) 0.29270(14)
C11 C 0.7757(2) 0.09772(19) 0.03373(13)
H7 H 0.4763(18) 0.7472(18) 0.1300(12)
H9 H 0.210(2) 0.446(2) 0.2389(14)
H11 H 0.7631(19) 0.1544(18) 0.0701(12)
Fe2 Fe 0.43011(3) 0.11204(3) 0.690970(17)
Fe3_2 Fe 0.5000 0.0000 1.0000
Fe14_6 Fe 1.0000 0.0000 1.0000
O14 O 0.44507(13) 0.30302(12) 0.74930(8)
O18 O 0.41066(13) 0.01013(12) 0.78444(8)
O20 O 0.31881(14) 0.01409(14) 0.86235(9)
O23 O 0.45443(13) 0.24250(12) 0.60893(8)
O25 O 0.65581(13) 0.08363(12) 0.80353(8)
O28 O 0.66387(13) 0.02456(13) 0.97707(8)
O33 O 0.20264(13) 0.12438(13) 0.60176(9)
C8 C 0.3088(2) 0.0281(2) 0.79270(14)
H8 H 0.210(2) 0.054(2) 0.7389(14)
Fe3_3 Fe 0.5000 1.0000 0.0000
O3 O 0.58934(13) 0.98987(12) 0.21556(8)
O4 O 0.68119(14) 0.98591(14) 0.13765(9)
O7 O 0.34419(13) 0.91637(12) 0.19647(8)
O8 O 0.10272(14) 0.88542(13) 0.11868(9)
O9 O 0.33613(13) 0.97544(13) 0.02293(8)
C2 C 0.6912(2) 0.9719(2) 0.20730(14)
C4 C 0.2307(2) 0.8640(2) 0.18343(13)
H2 H 0.790(2) 0.946(2) 0.2611(14)
H4 H 0.252(2) 0.800(2) 0.2288(13)
Fe14_7 Fe 1.0000 1.0000 0.0000
Fe3_4 Fe 0.5000 1.0000 1.0000
O10 O 0.10993(14) 0.89489(13) 0.95848(9)
C5 C 0.2243(2) 0.90228(19) 0.96627(13)
H5 H 0.2369(19) 0.8456(18) 0.9299(12)
Fe5 Fe 0.62224(3) 0.92162(3) 0.866190(18)
Fe10 Fe 0.56989(3) 0.61204(3) 0.809030(17)
Fe14_8 Fe 1.0000 1.0000 1.0000
O13 O 0.55493(13) 0.80302(12) 0.75070(8)
O16 O 0.43359(14) 0.93892(13) 0.62994(8)
O22 O 0.54557(13) 0.74250(12) 0.89107(8)
O24 O 0.50528(14) 0.78947(13) 0.99274(9)
O32 O 0.83586(13) 0.84445(13) 0.93409(8)
C10 C 0.5154(2) 0.7100(2) 0.94490(13)
H10 H 0.497(2) 0.615(2) 0.9462(14)
O27 O 0.89728(14) 0.11458(13) 0.88132(9)
O34 O 0.79736(13) 0.62438(13) 0.89824(9)
C12 C 0.8774(2) 0.7229(2) 0.93888(13)
H12 H 0.979(2) 0.7069(19) 0.9773(13)
Fe4 Fe 0.0000 0.5000 0.5000
Fe6 Fe 0.37776(3) 0.42162(3) 0.633810(18)
O27_2 O 0.10272(14) 0.61458(13) 0.61868(9)
O30 O 0.10993(14) 0.60511(13) 0.45848(9)
O31 O 0.16414(13) 0.34445(13) 0.56591(8)
C12_2 C 0.1226(2) 0.2229(2) 0.56112(13)
H12_2 H 0.021(2) 0.2069(19) 0.5227(13)
Fe4_2 Fe 1.0000 0.5000 0.5000
O5_2 O 0.54557(13) 0.75750(12) 0.39107(8)
O6_2 O 0.50528(14) 0.71053(13) 0.49274(9)
O8_2 O 0.89728(14) 0.38542(13) 0.38132(9)
O9_2 O 0.66387(13) 0.47544(13) 0.47707(8)
O10_2 O 0.89007(14) 0.39489(13) 0.54152(9)
O11_2 O 0.83586(13) 0.65555(13) 0.43409(8)
O12_2 O 0.79736(13) 0.87562(13) 0.39824(9)
C3_2 C 0.5154(2) 0.7900(2) 0.44490(13)
C4_2 C 0.7693(2) 0.3640(2) 0.31657(13)
C5_2 C 0.7757(2) 0.40228(19) 0.53373(13)
C6_2 C 0.8774(2) 0.7771(2) 0.43888(13)
H3_2 H 0.497(2) 0.885(2) 0.4462(14)
H4_2 H 0.748(2) 0.300(2) 0.2712(13)
H5_2 H 0.7631(19) 0.3456(18) 0.5701(12)
H6_2 H 0.979(2) 0.7931(19) 0.4773(13)
O16_2 O 0.56641(14) 0.43892(13) 0.87006(8)
O18_2 O 0.58934(13) 0.51013(12) 0.71556(8)
O20_2 O 0.68119(14) 0.51409(14) 0.63765(9)
O24_2 O 0.49472(14) 0.28947(13) 0.50726(9)
O25_2 O 0.34419(13) 0.58363(12) 0.69647(8)
O28_2 O 0.33613(13) 0.52456(13) 0.52293(8)
C8_2 C 0.6912(2) 0.5281(2) 0.70730(14)
C10_2 C 0.4846(2) 0.2100(2) 0.55510(13)
C11_2 C 0.2243(2) 0.59772(19) 0.46627(13)
H8_2 H 0.790(2) 0.554(2) 0.7611(14)
H10_2 H 0.503(2) 0.115(2) 0.5538(14)
H11_2 H 0.2369(19) 0.6544(18) 0.4299(12)
C4_3 C 0.7693(2) 0.1360(2) 0.81657(13)
H4_3 H 0.748(2) 0.200(2) 0.7712(13)
C1_2 C 0.48668(19) 0.8285(2) 0.66697(13)
H1_2 H 0.4763(18) 0.7528(18) 0.6300(12)
C7_2 C 0.51332(19) 0.3285(2) 0.83303(13)
H7_2 H 0.5237(18) 0.2528(18) 0.8700(12)
C4_4 C 0.2307(2) 0.6360(2) 0.68343(13)
H4_4 H 0.252(2) 0.700(2) 0.7288(13)
loop_
_geom_bond_atom_site_label_1
_geom_bond_atom_site_label_2
_geom_bond_site_symmetry_1
_geom_bond_site_symmetry_2
Fe1 O1 1_555 1_555
O1 C1 1_555 1_555
O2 C1 1_555 1_555
O5 Fe1 1_555 1_555
O6 Fe3 1_555 1_555
O11 Fe1 1_555 1_555
O12 C6 1_555 1_555
C1 H1 1_555 1_555
C3 O5 1_555 1_555
C6 O11 1_555 1_555
H3 C3 1_555 1_555
H6 C6 1_555 1_555
Fe7 O15 1_555 1_555
Fe9 O1 1_555 1_555
Fe12 O15 1_555 1_555
Fe13 O21 1_555 1_555
Fe14_5 O29 1_555 1_555
O15 C7 1_555 1_555
O17 Fe9 1_555 1_555
O19 Fe7 1_555 1_555
O21 C9 1_555 1_555
O26 Fe7 1_555 1_555
O29 C11 1_555 1_555
C7 O17 1_555 1_555
C9 O19 1_555 1_555
H7 C7 1_555 1_555
H9 C9 1_555 1_555
H11 C11 1_555 1_555
Fe14 O11 1_555 1_555
O5 Fe9 1_555 1_555
O6 C3 1_555 1_555
O12 Fe9 1_555 1_555
Fe9 O19 1_555 1_555
Fe9 O26 1_555 1_555
Fe2 O14 1_555 1_555
O18 Fe2 1_555 1_555
O20 Fe3_2 1_555 1_555
O23 Fe2 1_555 1_555
O25 Fe2 1_555 1_555
O28 Fe3_2 1_555 1_555
O33 Fe2 1_555 1_555
C8 O18 1_555 1_555
H8 C8 1_555 1_555
O20 C8 1_555 1_555
Fe3_3 O4 1_555 1_555
Fe14_3 O8 1_555 1_555
O4 C2 1_555 1_555
O8 C4 1_555 1_555
C2 O3 1_555 1_555
C4 O7 1_555 1_555
H2 C2 1_555 1_555
H4 C4 1_555 1_555
Fe3_3 O9 1_555 1_555
O3 Fe12 1_555 1_555
O7 Fe12 1_555 1_555
O10 Fe14_4 1_555 1_555
H5 C5 1_555 1_555
Fe5 O13 1_555 1_555
Fe10 O13 1_555 1_555
O22 Fe5 1_555 1_555
O24 Fe3_4 1_555 1_555
O32 Fe5 1_555 1_555
C10 O22 1_555 1_555
H10 C10 1_555 1_555
O10 C5 1_555 1_555
Fe10 O22 1_555 1_555
Fe14_8 O32 1_555 1_555
O24 C10 1_555 1_555
O27 Fe14_6 1_555 1_555
Fe10 O34 1_555 1_555
O34 C12 1_555 1_555
C12 O32 1_555 1_555
H12 C12 1_555 1_555
Fe6 O31 1_555 1_555
O27_2 Fe4 1_555 1_555
O30 Fe4 1_555 1_555
O31 Fe4 1_555 1_555
O33 C12_2 1_555 1_555
C12_2 O31 1_555 1_555
H12_2 C12_2 1_555 1_555
Fe4_2 O8_2 1_555 1_555
O5_2 Fe7 1_555 1_555
O6_2 Fe13 1_555 1_555
O8_2 C4_2 1_555 1_555
O9_2 Fe7 1_555 1_555
O10_2 Fe4_2 1_555 1_555
O11_2 Fe7 1_555 1_555
O12_2 C6_2 1_555 1_555
C3_2 O5_2 1_555 1_555
C4_2 O26 1_555 1_555
C5_2 O9_2 1_555 1_555
C6_2 O11_2 1_555 1_555
H3_2 C3_2 1_555 1_555
H4_2 C4_2 1_555 1_555
H5_2 C5_2 1_555 1_555
H6_2 C6_2 1_555 1_555
Fe6 O14 1_555 1_555
O16_2 Fe10 1_555 1_555
O18_2 Fe10 1_555 1_555
O20_2 Fe13 1_555 1_555
O23 Fe6 1_555 1_555
O24_2 Fe13 1_555 1_555
O25_2 Fe10 1_555 1_555
O28_2 Fe13 1_555 1_555
O30 C11_2 1_555 1_555
C8_2 O18_2 1_555 1_555
C10_2 O23 1_555 1_555
C11_2 O28_2 1_555 1_555
H8_2 C8_2 1_555 1_555
H10_2 C10_2 1_555 1_555
H11_2 C11_2 1_555 1_555
Fe13 O9_2 1_555 1_555
Fe4_2 O11_2 1_555 1_555
O5_2 Fe12 1_555 1_555
O6_2 C3_2 1_555 1_555
O10_2 C5_2 1_555 1_555
O12_2 Fe12 1_555 1_555
Fe6 O18_2 1_555 1_555
Fe6 O25_2 1_555 1_555
Fe6 O28_2 1_555 1_555
O20_2 C8_2 1_555 1_555
O24_2 C10_2 1_555 1_555
O27 C4_3 1_555 1_555
C4_3 O25 1_555 1_555
H4_3 C4_3 1_555 1_555
O13 C1_2 1_555 1_555
O16 C1_2 1_555 1_555
C1_2 H1_2 1_555 1_555
O14 C7_2 1_555 1_555
C7_2 O16_2 1_555 1_555
H7_2 C7_2 1_555 1_555
O27_2 C4_4 1_555 1_555
C4_4 O25_2 1_555 1_555
H4_4 C4_4 1_555 1_555

#END
