
###############################################################################
#
# This file contains modified crystal structure data generated from the
# MOF subset of the Cambridge Structural Database (CSD) v543 
# hosted by the Cambridge Crystallographic Data Centre (CCDC).
#
# This work is licensed under the Creative Commons
# Attribution-NonCommercial-ShareAlike 4.0 International License.
# To view a copy of this license, visit
# http://creativecommons.org/licenses/by-nc-sa/4.0/
# or send a letter to
# Creative Commons, PO Box 1866, Mountain View, CA 94042, USA.
#
# CIF created using the CSD Python API on 29 September 2022
# The structure has been converted into the P1 space group
# The structure has a 3D framework
# The original CSD entry NIKZEN is in the monoclinic crystal system
# The framework has been calculated to contain at least 10.0% void space
# The void calculation uses a probe of radius 1.32A, grid spacing 0.4
#
###############################################################################

data_NIKZEN
_chemical_formula_moiety         '(C24 H24 Fe20 O48)n'
_symmetry_cell_setting           triclinic
_symmetry_space_group_name_H-M   'P 1'
_symmetry_Int_Tables_number      1
_space_group_name_Hall           'P 1'
loop_
_symmetry_equiv_pos_site_id
_symmetry_equiv_pos_as_xyz
1 x,y,z
_cell_length_a                   11.4082(2)
_cell_length_b                   9.8855(2)
_cell_length_c                   18.4668(4)
_cell_angle_alpha                90
_cell_angle_beta                 126.7290(10)
_cell_angle_gamma                90
_cell_volume                     1669.15
loop_
_atom_site_label
_atom_site_type_symbol
_atom_site_fract_x
_atom_site_fract_y
_atom_site_fract_z
Fe14 Fe 0.0000 0.0000 0.0000
Fe14_2 Fe 0.0000 0.0000 1.0000
Fe14_3 Fe 0.0000 1.0000 0.0000
Fe14_4 Fe 0.0000 1.0000 1.0000
Fe1 Fe 0.37637(4) 0.07608(4) 0.13291(3)
Fe3 Fe 0.5000 0.0000 0.0000
O1 O 0.44128(19) 0.19516(17) 0.24872(12)
O2 O 0.5614(2) 0.05822(17) 0.36939(13)
O5 O 0.45421(19) 0.25583(17) 0.10850(12)
O6 O 0.4810(2) 0.20969(18) 0.00025(13)
O11 O 0.16428(19) 0.15517(17) 0.06470(13)
O12 O 0.2036(2) 0.37597(17) 0.09990(13)
C1 C 0.5065(3) 0.1682(3) 0.33204(19)
H1 H 0.5135 0.2379 0.3683
C3 C 0.4748(3) 0.2882(3) 0.0501(2)
H3 H 0.4862 0.3798 0.0443
C6 C 0.1238(3) 0.2776(3) 0.05849(19)
H6 H 0.0239 0.2946 0.0187
Fe7 Fe 0.62363(4) 0.57608(4) 0.36709(3)
Fe9 Fe 0.43157(4) 0.38601(3) 0.19176(3)
Fe12 Fe 0.56843(4) 0.88601(3) 0.30824(3)
Fe13 Fe 0.5000 0.5000 0.5000
Fe14_5 Fe 1.0000 0.0000 0.0000
O15 O 0.55872(19) 0.69516(17) 0.25128(12)
O17 O 0.4386(2) 0.55822(17) 0.13061(13)
O19 O 0.4120(2) 0.48988(17) 0.28454(13)
O21 O 0.3170(2) 0.49604(19) 0.36088(14)
O26 O 0.65635(19) 0.41248(17) 0.30495(13)
O29 O 0.8901(2) 0.10852(18) 0.04095(14)
C7 C 0.4935(3) 0.6682(3) 0.16796(19)
H7 H 0.4865 0.7379 0.1317
C9 C 0.3080(3) 0.4795(3) 0.2919(2)
H9 H 0.2163 0.4571 0.2398
C11 C 0.7747(3) 0.1042(3) 0.0329(2)
H11 H 0.7672 0.1603 0.0704
Fe2 Fe 0.43157(4) 0.11399(3) 0.69176(3)
Fe3_2 Fe 0.5000 0.0000 1.0000
Fe14_6 Fe 1.0000 0.0000 1.0000
O14 O 0.44128(19) 0.30484(17) 0.74872(12)
O18 O 0.4120(2) 0.01012(17) 0.78454(13)
O20 O 0.3170(2) 0.00396(19) 0.86088(14)
O23 O 0.45421(19) 0.24417(17) 0.60850(12)
O25 O 0.65635(19) 0.08752(17) 0.80495(13)
O28 O 0.6638(2) 0.02909(18) 0.97721(13)
O33 O 0.2036(2) 0.12403(17) 0.59990(13)
C8 C 0.3080(3) 0.0205(3) 0.7919(2)
H8 H 0.2163 0.0429 0.7398
Fe3_3 Fe 0.5000 1.0000 0.0000
O3 O 0.5880(2) 0.98988(17) 0.21546(13)
O4 O 0.6830(2) 0.99604(19) 0.13912(14)
O7 O 0.34365(19) 0.91248(17) 0.19505(13)
O8 O 0.1023(2) 0.88292(19) 0.11844(14)
O9 O 0.3362(2) 0.97091(18) 0.02279(13)
C2 C 0.6920(3) 0.9795(3) 0.2081(2)
H2 H 0.7837 0.9571 0.2602
C4 C 0.2305(3) 0.8587(3) 0.1815(2)
H4 H 0.2464 0.7947 0.2234
Fe14_7 Fe 1.0000 1.0000 0.0000
Fe3_4 Fe 0.5000 1.0000 1.0000
O10 O 0.1099(2) 0.89148(18) 0.95905(14)
C5 C 0.2253(3) 0.8958(3) 0.9671(2)
H5 H 0.2328 0.8397 0.9296
Fe5 Fe 0.62363(4) 0.92392(4) 0.86709(3)
Fe10 Fe 0.56843(4) 0.61399(3) 0.80824(3)
Fe14_8 Fe 1.0000 1.0000 1.0000
O13 O 0.55872(19) 0.80484(17) 0.75128(12)
O16 O 0.4386(2) 0.94178(17) 0.63061(13)
O22 O 0.54579(19) 0.74417(17) 0.89150(12)
O24 O 0.5190(2) 0.79031(18) 0.99975(13)
O32 O 0.83572(19) 0.84483(17) 0.93530(13)
C10 C 0.5252(3) 0.7118(3) 0.9499(2)
H10 H 0.5138 0.6202 0.9557
O27 O 0.8977(2) 0.11708(19) 0.88156(14)
O34 O 0.7964(2) 0.62403(17) 0.90010(13)
C12 C 0.8762(3) 0.7224(3) 0.94151(19)
H12 H 0.9761 0.7054 0.9813
Fe4 Fe 0.0000 0.5000 0.5000
Fe6 Fe 0.37637(4) 0.42392(4) 0.63291(3)
O27_2 O 0.1023(2) 0.61708(19) 0.61844(14)
O30 O 0.1099(2) 0.60852(18) 0.45905(14)
O31 O 0.16428(19) 0.34483(17) 0.56470(13)
C12_2 C 0.1238(3) 0.2224(3) 0.55849(19)
H12_2 H 0.0239 0.2054 0.5187
Fe4_2 Fe 1.0000 0.5000 0.5000
O5_2 O 0.54579(19) 0.75583(17) 0.39150(12)
O6_2 O 0.5190(2) 0.70969(18) 0.49975(13)
O8_2 O 0.8977(2) 0.38292(19) 0.38156(14)
O9_2 O 0.6638(2) 0.47091(18) 0.47721(13)
O10_2 O 0.8901(2) 0.39148(18) 0.54095(14)
O11_2 O 0.83572(19) 0.65517(17) 0.43530(13)
O12_2 O 0.7964(2) 0.87597(17) 0.40010(13)
C3_2 C 0.5252(3) 0.7882(3) 0.4499(2)
H3_2 H 0.5138 0.8798 0.4557
C4_2 C 0.7695(3) 0.3587(3) 0.3185(2)
H4_2 H 0.7536 0.2947 0.2766
C5_2 C 0.7747(3) 0.3958(3) 0.5329(2)
H5_2 H 0.7672 0.3397 0.5704
C6_2 C 0.8762(3) 0.7776(3) 0.44151(19)
H6_2 H 0.9761 0.7946 0.4813
O16_2 O 0.5614(2) 0.44178(17) 0.86939(13)
O18_2 O 0.5880(2) 0.51012(17) 0.71546(13)
O20_2 O 0.6830(2) 0.50396(19) 0.63912(14)
O24_2 O 0.4810(2) 0.29031(18) 0.50025(13)
O25_2 O 0.34365(19) 0.58752(17) 0.69505(13)
O28_2 O 0.3362(2) 0.52909(18) 0.52279(13)
C8_2 C 0.6920(3) 0.5205(3) 0.7081(2)
H8_2 H 0.7837 0.5429 0.7602
C10_2 C 0.4748(3) 0.2118(3) 0.5501(2)
H10_2 H 0.4862 0.1202 0.5443
C11_2 C 0.2253(3) 0.6042(3) 0.4671(2)
H11_2 H 0.2328 0.6603 0.4296
C4_3 C 0.7695(3) 0.1413(3) 0.8185(2)
H4_3 H 0.7536 0.2053 0.7766
C1_2 C 0.4935(3) 0.8318(3) 0.66796(19)
H1_2 H 0.4865 0.7621 0.6317
C7_2 C 0.5065(3) 0.3318(3) 0.83204(19)
H7_2 H 0.5135 0.2621 0.8683
C4_4 C 0.2305(3) 0.6413(3) 0.6815(2)
H4_4 H 0.2464 0.7053 0.7234
loop_
_geom_bond_atom_site_label_1
_geom_bond_atom_site_label_2
_geom_bond_site_symmetry_1
_geom_bond_site_symmetry_2
Fe1 O1 1_555 1_555
O1 C1 1_555 1_555
O2 C1 1_555 1_555
O5 Fe1 1_555 1_555
O6 Fe3 1_555 1_555
O11 Fe1 1_555 1_555
O12 C6 1_555 1_555
C1 H1 1_555 1_555
C3 O5 1_555 1_555
H3 C3 1_555 1_555
C6 O11 1_555 1_555
H6 C6 1_555 1_555
Fe7 O15 1_555 1_555
Fe9 O1 1_555 1_555
Fe12 O15 1_555 1_555
Fe13 O21 1_555 1_555
Fe14_5 O29 1_555 1_555
O15 C7 1_555 1_555
O17 Fe9 1_555 1_555
O19 Fe7 1_555 1_555
O21 C9 1_555 1_555
O26 Fe7 1_555 1_555
O29 C11 1_555 1_555
C7 O17 1_555 1_555
H7 C7 1_555 1_555
C9 O19 1_555 1_555
H9 C9 1_555 1_555
H11 C11 1_555 1_555
Fe14 O11 1_555 1_555
O5 Fe9 1_555 1_555
O6 C3 1_555 1_555
O12 Fe9 1_555 1_555
Fe9 O19 1_555 1_555
Fe9 O26 1_555 1_555
Fe2 O14 1_555 1_555
O18 Fe2 1_555 1_555
O20 Fe3_2 1_555 1_555
O23 Fe2 1_555 1_555
O25 Fe2 1_555 1_555
O28 Fe3_2 1_555 1_555
O33 Fe2 1_555 1_555
C8 O18 1_555 1_555
H8 C8 1_555 1_555
O20 C8 1_555 1_555
Fe3_3 O4 1_555 1_555
Fe14_3 O8 1_555 1_555
O4 C2 1_555 1_555
O8 C4 1_555 1_555
C2 O3 1_555 1_555
H2 C2 1_555 1_555
C4 O7 1_555 1_555
H4 C4 1_555 1_555
Fe3_3 O9 1_555 1_555
O3 Fe12 1_555 1_555
O7 Fe12 1_555 1_555
O10 Fe14_4 1_555 1_555
H5 C5 1_555 1_555
Fe5 O13 1_555 1_555
Fe10 O13 1_555 1_555
O22 Fe5 1_555 1_555
O24 Fe3_4 1_555 1_555
O32 Fe5 1_555 1_555
C10 O22 1_555 1_555
H10 C10 1_555 1_555
O10 C5 1_555 1_555
Fe10 O22 1_555 1_555
Fe14_8 O32 1_555 1_555
O24 C10 1_555 1_555
O27 Fe14_6 1_555 1_555
Fe10 O34 1_555 1_555
O34 C12 1_555 1_555
C12 O32 1_555 1_555
H12 C12 1_555 1_555
Fe6 O31 1_555 1_555
O27_2 Fe4 1_555 1_555
O30 Fe4 1_555 1_555
O31 Fe4 1_555 1_555
O33 C12_2 1_555 1_555
C12_2 O31 1_555 1_555
H12_2 C12_2 1_555 1_555
Fe4_2 O8_2 1_555 1_555
O5_2 Fe7 1_555 1_555
O6_2 Fe13 1_555 1_555
O8_2 C4_2 1_555 1_555
O9_2 Fe7 1_555 1_555
O10_2 Fe4_2 1_555 1_555
O11_2 Fe7 1_555 1_555
O12_2 C6_2 1_555 1_555
C3_2 O5_2 1_555 1_555
H3_2 C3_2 1_555 1_555
C4_2 O26 1_555 1_555
H4_2 C4_2 1_555 1_555
C5_2 O9_2 1_555 1_555
H5_2 C5_2 1_555 1_555
C6_2 O11_2 1_555 1_555
H6_2 C6_2 1_555 1_555
Fe6 O14 1_555 1_555
O16_2 Fe10 1_555 1_555
O18_2 Fe10 1_555 1_555
O20_2 Fe13 1_555 1_555
O23 Fe6 1_555 1_555
O24_2 Fe13 1_555 1_555
O25_2 Fe10 1_555 1_555
O28_2 Fe13 1_555 1_555
O30 C11_2 1_555 1_555
C8_2 O18_2 1_555 1_555
H8_2 C8_2 1_555 1_555
C10_2 O23 1_555 1_555
H10_2 C10_2 1_555 1_555
C11_2 O28_2 1_555 1_555
H11_2 C11_2 1_555 1_555
Fe13 O9_2 1_555 1_555
Fe4_2 O11_2 1_555 1_555
O5_2 Fe12 1_555 1_555
O6_2 C3_2 1_555 1_555
O10_2 C5_2 1_555 1_555
O12_2 Fe12 1_555 1_555
Fe6 O18_2 1_555 1_555
Fe6 O25_2 1_555 1_555
Fe6 O28_2 1_555 1_555
O20_2 C8_2 1_555 1_555
O24_2 C10_2 1_555 1_555
O27 C4_3 1_555 1_555
C4_3 O25 1_555 1_555
H4_3 C4_3 1_555 1_555
O13 C1_2 1_555 1_555
O16 C1_2 1_555 1_555
C1_2 H1_2 1_555 1_555
O14 C7_2 1_555 1_555
C7_2 O16_2 1_555 1_555
H7_2 C7_2 1_555 1_555
O27_2 C4_4 1_555 1_555
C4_4 O25_2 1_555 1_555
H4_4 C4_4 1_555 1_555

#END
