
###############################################################################
#
# This file contains modified crystal structure data generated from the
# MOF subset of the Cambridge Structural Database (CSD) v543 
# hosted by the Cambridge Crystallographic Data Centre (CCDC).
#
# This work is licensed under the Creative Commons
# Attribution-NonCommercial-ShareAlike 4.0 International License.
# To view a copy of this license, visit
# http://creativecommons.org/licenses/by-nc-sa/4.0/
# or send a letter to
# Creative Commons, PO Box 1866, Mountain View, CA 94042, USA.
#
# CIF created using the CSD Python API on 29 September 2022
# The structure has been converted into the P1 space group
# The structure has a 3D framework
# The original CSD entry NIMKAW is in the orthorhombic crystal system
# The framework has been calculated to contain at least 10.0% void space
# The void calculation uses a probe of radius 1.32A, grid spacing 0.4
#
###############################################################################

data_NIMKAW
_chemical_formula_moiety         '(C64 H88 Ag2 N4 O12 S8)n'
_symmetry_cell_setting           triclinic
_symmetry_space_group_name_H-M   'P 1'
_symmetry_Int_Tables_number      1
_space_group_name_Hall           'P 1'
loop_
_symmetry_equiv_pos_site_id
_symmetry_equiv_pos_as_xyz
1 x,y,z
_cell_length_a                   8.8595(6)
_cell_length_b                   12.6901(9)
_cell_length_c                   19.8449(14)
_cell_angle_alpha                90
_cell_angle_beta                 90
_cell_angle_gamma                90
_cell_volume                     2231.12
loop_
_atom_site_label
_atom_site_type_symbol
_atom_site_fract_x
_atom_site_fract_y
_atom_site_fract_z
N1 N 0.0735(3) 0.6286(3) 0.02672(18)
O2 O 0.2119(3) 0.6430(3) 0.0332(2)
O3 O 0.0116(4) 0.5495(3) 0.0472(3)
Ag3 Ag 0.23346(3) 0.84443(2) 0.01651(3)
Ag1 Ag 0.73346(3) 0.65557(2) 0.01651(3)
S3 S 0.61352(11) 0.57987(7) 0.11964(5)
O4 O 0.7119(3) 0.8570(3) 0.0332(2)
S1 S 0.67255(10) 0.60319(7) 0.89678(5)
S2 S 0.38648(11) 0.42013(7) 0.61964(5)
O1 O 0.9966(3) 0.6997(3) 0.99962(16)
C1 C 0.4764(4) 0.5588(3) 0.8973(2)
H1 H 0.4710 0.4903 0.8757
H2 H 0.4440 0.5502 0.9436
C2 C 0.3673(5) 0.6334(3) 0.8618(2)
H3 H 0.3577 0.6969 0.8895
C3 C 0.2109(5) 0.5798(4) 0.8586(3)
H4 H 0.1352 0.6321 0.8472
H5 H 0.1861 0.5514 0.9026
C4 C 0.2070(4) 0.4913(4) 0.8065(2)
H6 H 0.2697 0.4337 0.8224
H7 H 0.1044 0.4651 0.8030
C5 C 0.2612(4) 0.5243(4) 0.7360(3)
H8 H 0.1893 0.5758 0.7180
C6 C 0.4131(4) 0.5773(3) 0.7414(2)
H9 H 0.4878 0.5255 0.7550
H10 H 0.4419 0.6040 0.6975
C7 C 0.4137(6) 0.6671(3) 0.7915(3)
H11 H 0.5142 0.6973 0.7934
H12 H 0.3452 0.7216 0.7759
C8 C 0.2553(4) 0.4257(4) 0.6912(2)
H13 H 0.1535 0.4191 0.6737
H14 H 0.2740 0.3647 0.7194
C9 C 0.5157(4) 0.3147(3) 0.6447(2)
H15 H 0.4584 0.2510 0.6532
H16 H 0.5852 0.3005 0.6080
C10 C 0.6036(5) 0.3431(3) 0.7066(2)
C11 C 0.5656(5) 0.3015(3) 0.7686(2)
H17 H 0.4954 0.2471 0.7711
C12 C 0.6312(5) 0.3400(3) 0.8275(2)
H18 H 0.6060 0.3106 0.8689
C13 C 0.7342(4) 0.4220(4) 0.8242(3)
C14 C 0.7798(4) 0.4581(4) 0.7621(3)
H19 H 0.8534 0.5101 0.7593
C15 C 0.7167(4) 0.4175(4) 0.7031(2)
H20 H 0.7510 0.4406 0.6614
C16 C 0.7773(5) 0.4786(4) 0.8882(2)
H21 H 0.8848 0.4932 0.8878
H22 H 0.7559 0.4338 0.9266
Ag2 Ag 0.26654(3) 0.34443(2) 0.51651(3)
S1_2 S 0.32745(10) 0.39681(7) 0.39678(5)
O1_2 O 0.0034(3) 0.3003(3) 0.49962(16)
C1_2 C 0.5236(4) 0.4412(3) 0.3973(2)
H1_2 H 0.5290 0.5097 0.3757
H2_2 H 0.5560 0.4498 0.4436
C2_2 C 0.6327(5) 0.3666(3) 0.3618(2)
H3_2 H 0.6423 0.3031 0.3895
C3_2 C 0.7891(5) 0.4202(4) 0.3586(3)
H4_2 H 0.8648 0.3679 0.3472
H5_2 H 0.8139 0.4486 0.4026
C4_2 C 0.7930(4) 0.5087(4) 0.3065(2)
H6_2 H 0.7303 0.5663 0.3224
H7_2 H 0.8956 0.5349 0.3030
C5_2 C 0.7388(4) 0.4757(4) 0.2360(3)
H8_2 H 0.8107 0.4242 0.2180
C6_2 C 0.5869(4) 0.4227(3) 0.2414(2)
H9_2 H 0.5122 0.4745 0.2550
H10_2 H 0.5581 0.3960 0.1975
C7_2 C 0.5863(6) 0.3329(3) 0.2915(3)
H11_2 H 0.4858 0.3027 0.2934
H12_2 H 0.6548 0.2784 0.2759
C8_2 C 0.7447(4) 0.5743(4) 0.1912(2)
H13_2 H 0.8465 0.5809 0.1737
H14_2 H 0.7260 0.6353 0.2194
C9_2 C 0.4843(4) 0.6853(3) 0.1447(2)
H15_2 H 0.5416 0.7490 0.1532
H16_2 H 0.4148 0.6995 0.1080
C10_2 C 0.3964(5) 0.6569(3) 0.2066(2)
C11_2 C 0.4344(5) 0.6985(3) 0.2686(2)
H17_2 H 0.5046 0.7529 0.2711
C12_2 C 0.3688(5) 0.6600(3) 0.3275(2)
H18_2 H 0.3940 0.6894 0.3689
C13_2 C 0.2658(4) 0.5780(4) 0.3242(3)
C14_2 C 0.2202(4) 0.5419(4) 0.2621(3)
H19_2 H 0.1466 0.4899 0.2593
C15_2 C 0.2833(4) 0.5825(4) 0.2031(2)
H20_2 H 0.2490 0.5594 0.1614
C16_2 C 0.2227(5) 0.5214(4) 0.3882(2)
H21_2 H 0.1152 0.5068 0.3878
H22_2 H 0.2441 0.5662 0.4266
O4_2 O 0.2881(3) 0.1430(3) 0.5332(2)
N1_2 N 0.9265(3) 0.3714(3) 0.52672(18)
O2_2 O 0.7881(3) 0.3570(3) 0.5332(2)
O3_2 O 0.9884(4) 0.4505(3) 0.5472(3)
Ag3_2 Ag 0.76654(3) 0.15557(2) 0.51651(3)
S2_2 S 0.11352(11) 0.92013(7) 0.11964(5)
H1_3 H 0.0290 0.9903 0.3757
C4_3 C 0.2930(4) 0.9913(4) 0.3065(2)
H6_3 H 0.2303 0.9337 0.3224
H7_3 H 0.3956 0.9651 0.3030
C8_3 C 0.2447(4) 0.9257(4) 0.1912(2)
H13_3 H 0.3465 0.9191 0.1737
H14_3 H 0.2260 0.8647 0.2194
H15_3 H 0.0416 0.7510 0.1532
H17_3 H 0.0046 0.7471 0.2711
S1_3 S 0.82745(10) 0.10319(7) 0.39678(5)
N1_3 N 0.4265(3) 0.1286(3) 0.52672(18)
O1_3 O 0.5034(3) 0.1997(3) 0.49962(16)
O3_3 O 0.4884(4) 0.0495(3) 0.5472(3)
H11_3 H 0.9858 0.1973 0.2934
H19_3 H 0.6466 0.0101 0.2593
S3_2 S 0.88648(11) 0.07987(7) 0.61964(5)
N1_4 N 0.5735(3) 0.8714(3) 0.02672(18)
O3_4 O 0.5116(4) 0.9505(3) 0.0472(3)
H1_4 H 0.9710 0.0097 0.8757
C4_4 C 0.7070(4) 0.0087(4) 0.8065(2)
H6_4 H 0.7697 0.0663 0.8224
H7_4 H 0.6044 0.0349 0.8030
C8_4 C 0.7553(4) 0.0743(4) 0.6912(2)
H13_4 H 0.6535 0.0809 0.6737
H14_4 H 0.7740 0.1353 0.7194
H15_4 H 0.9584 0.2490 0.6532
H17_4 H 0.9954 0.2529 0.7711
C1_3 C 0.0236(4) 0.0588(3) 0.3973(2)
H2_3 H 0.0560 0.0502 0.4436
C2_3 C 0.1327(5) 0.1334(3) 0.3618(2)
H3_3 H 0.1423 0.1969 0.3895
C3_3 C 0.2891(5) 0.0798(4) 0.3586(3)
H4_3 H 0.3648 0.1321 0.3472
H5_3 H 0.3139 0.0514 0.4026
C5_3 C 0.2388(4) 0.0243(4) 0.2360(3)
H8_3 H 0.3107 0.0758 0.2180
C6_3 C 0.0869(4) 0.0773(3) 0.2414(2)
H9_3 H 0.0122 0.0255 0.2550
H10_3 H 0.0581 0.1040 0.1975
C7_3 C 0.0863(6) 0.1671(3) 0.2915(3)
H12_3 H 0.1548 0.2216 0.2759
C9_3 C 0.9843(4) 0.8147(3) 0.1447(2)
H16_3 H 0.9148 0.8005 0.1080
C10_3 C 0.8964(5) 0.8431(3) 0.2066(2)
C11_3 C 0.9344(5) 0.8015(3) 0.2686(2)
C12_3 C 0.8688(5) 0.8400(3) 0.3275(2)
H18_3 H 0.8940 0.8106 0.3689
C13_3 C 0.7658(4) 0.9220(4) 0.3242(3)
C14_3 C 0.7202(4) 0.9581(4) 0.2621(3)
C15_3 C 0.7833(4) 0.9175(4) 0.2031(2)
H20_3 H 0.7490 0.9406 0.1614
C16_3 C 0.7227(5) 0.9786(4) 0.3882(2)
H21_3 H 0.6152 0.9932 0.3878
H22_3 H 0.7441 0.9338 0.4266
C9_4 C 0.0157(4) 0.1853(3) 0.6447(2)
H16_4 H 0.0852 0.1995 0.6080
C10_4 C 0.1036(5) 0.1569(3) 0.7066(2)
C11_4 C 0.0656(5) 0.1985(3) 0.7686(2)
C12_4 C 0.1312(5) 0.1600(3) 0.8275(2)
H18_4 H 0.1060 0.1894 0.8689
C13_4 C 0.2342(4) 0.0780(4) 0.8242(3)
C14_4 C 0.2798(4) 0.0419(4) 0.7621(3)
C15_4 C 0.2167(4) 0.0825(4) 0.7031(2)
H20_4 H 0.2510 0.0594 0.6614
C16_4 C 0.2773(5) 0.0214(4) 0.8882(2)
H21_4 H 0.3848 0.0068 0.8878
H22_4 H 0.2559 0.0662 0.9266
S1_4 S 0.17255(10) 0.89681(7) 0.89678(5)
O1_4 O 0.4966(3) 0.8003(3) 0.99962(16)
H11_4 H 0.0142 0.8027 0.7934
H19_4 H 0.3534 0.9899 0.7593
C1_4 C 0.9764(4) 0.9412(3) 0.8973(2)
H2_4 H 0.9440 0.9498 0.9436
C2_4 C 0.8673(5) 0.8666(3) 0.8618(2)
H3_4 H 0.8577 0.8031 0.8895
C3_4 C 0.7109(5) 0.9202(4) 0.8586(3)
H4_4 H 0.6352 0.8679 0.8472
H5_4 H 0.6861 0.9486 0.9026
C5_4 C 0.7612(4) 0.9757(4) 0.7360(3)
H8_4 H 0.6893 0.9242 0.7180
C6_4 C 0.9131(4) 0.9227(3) 0.7414(2)
H9_4 H 0.9878 0.9745 0.7550
H10_4 H 0.9419 0.8960 0.6975
C7_4 C 0.9137(6) 0.8329(3) 0.7915(3)
H12_4 H 0.8452 0.7784 0.7759
loop_
_geom_bond_atom_site_label_1
_geom_bond_atom_site_label_2
_geom_bond_site_symmetry_1
_geom_bond_site_symmetry_2
O2 N1 1_555 1_555
O3 N1 1_555 1_555
Ag3 O2 1_555 1_555
S3 Ag1 1_555 1_555
O4 Ag1 1_555 1_555
S1 C1 1_555 1_555
S2 C8 1_555 1_555
C1 H1 1_555 1_555
H2 C1 1_555 1_555
C2 C1 1_555 1_555
H3 C2 1_555 1_555
C3 C2 1_555 1_555
H4 C3 1_555 1_555
H5 C3 1_555 1_555
C4 C3 1_555 1_555
H6 C4 1_555 1_555
H7 C4 1_555 1_555
C5 C4 1_555 1_555
H8 C5 1_555 1_555
C6 C5 1_555 1_555
H9 C6 1_555 1_555
H10 C6 1_555 1_555
C7 C2 1_555 1_555
H11 C7 1_555 1_555
H12 C7 1_555 1_555
C8 C5 1_555 1_555
H13 C8 1_555 1_555
H14 C8 1_555 1_555
C9 S2 1_555 1_555
H15 C9 1_555 1_555
H16 C9 1_555 1_555
C10 C9 1_555 1_555
C11 C10 1_555 1_555
H17 C11 1_555 1_555
C12 C11 1_555 1_555
H18 C12 1_555 1_555
C13 C12 1_555 1_555
C14 C13 1_555 1_555
H19 C14 1_555 1_555
C15 C10 1_555 1_555
H20 C15 1_555 1_555
C16 S1 1_555 1_555
H21 C16 1_555 1_555
H22 C16 1_555 1_555
Ag2 S2 1_555 1_555
C6 C7 1_555 1_555
C13 C16 1_555 1_555
C14 C15 1_555 1_555
Ag2 S1_2 1_555 1_555
S1_2 C1_2 1_555 1_555
S3 C8_2 1_555 1_555
O1_2 Ag2 1_555 1_555
C1_2 H1_2 1_555 1_555
H2_2 C1_2 1_555 1_555
C2_2 C1_2 1_555 1_555
H3_2 C2_2 1_555 1_555
C3_2 C2_2 1_555 1_555
H4_2 C3_2 1_555 1_555
H5_2 C3_2 1_555 1_555
C4_2 C3_2 1_555 1_555
H6_2 C4_2 1_555 1_555
H7_2 C4_2 1_555 1_555
C5_2 C4_2 1_555 1_555
H8_2 C5_2 1_555 1_555
C6_2 C5_2 1_555 1_555
H9_2 C6_2 1_555 1_555
H10_2 C6_2 1_555 1_555
C7_2 C2_2 1_555 1_555
H11_2 C7_2 1_555 1_555
H12_2 C7_2 1_555 1_555
C8_2 C5_2 1_555 1_555
H13_2 C8_2 1_555 1_555
H14_2 C8_2 1_555 1_555
C9_2 S3 1_555 1_555
H15_2 C9_2 1_555 1_555
H16_2 C9_2 1_555 1_555
C10_2 C9_2 1_555 1_555
C11_2 C10_2 1_555 1_555
H17_2 C11_2 1_555 1_555
C12_2 C11_2 1_555 1_555
H18_2 C12_2 1_555 1_555
C13_2 C12_2 1_555 1_555
C14_2 C13_2 1_555 1_555
H19_2 C14_2 1_555 1_555
C15_2 C10_2 1_555 1_555
H20_2 C15_2 1_555 1_555
C16_2 S1_2 1_555 1_555
H21_2 C16_2 1_555 1_555
H22_2 C16_2 1_555 1_555
O4_2 Ag2 1_555 1_555
C6_2 C7_2 1_555 1_555
C13_2 C16_2 1_555 1_555
C14_2 C15_2 1_555 1_555
O2_2 N1_2 1_555 1_555
O3_2 N1_2 1_555 1_555
Ag3_2 O2_2 1_555 1_555
S2_2 C8_3 1_555 1_555
H6_3 C4_3 1_555 1_555
H7_3 C4_3 1_555 1_555
H13_3 C8_3 1_555 1_555
H14_3 C8_3 1_555 1_555
Ag3 S2_2 1_555 1_555
Ag3_2 S1_3 1_555 1_555
N1_3 O1_3 1_555 1_555
O1_3 Ag3_2 1_555 1_555
O4_2 N1_3 1_555 1_555
O3_3 N1_3 1_555 1_555
S3_2 Ag3_2 1_555 1_555
O4 N1_4 1_555 1_555
O3_4 N1_4 1_555 1_555
S3_2 C8_4 1_555 1_555
H6_4 C4_4 1_555 1_555
H7_4 C4_4 1_555 1_555
H13_4 C8_4 1_555 1_555
H14_4 C8_4 1_555 1_555
H2_3 C1_3 1_555 1_555
C2_3 C1_3 1_555 1_555
H3_3 C2_3 1_555 1_555
C3_3 C2_3 1_555 1_555
H4_3 C3_3 1_555 1_555
H5_3 C3_3 1_555 1_555
H8_3 C5_3 1_555 1_555
C6_3 C5_3 1_555 1_555
H9_3 C6_3 1_555 1_555
H10_3 C6_3 1_555 1_555
C7_3 C2_3 1_555 1_555
H12_3 C7_3 1_555 1_555
C6_3 C7_3 1_555 1_555
H16_3 C9_3 1_555 1_555
C10_3 C9_3 1_555 1_555
C11_3 C10_3 1_555 1_555
C12_3 C11_3 1_555 1_555
H18_3 C12_3 1_555 1_555
C13_3 C12_3 1_555 1_555
C14_3 C13_3 1_555 1_555
C15_3 C10_3 1_555 1_555
H20_3 C15_3 1_555 1_555
H21_3 C16_3 1_555 1_555
H22_3 C16_3 1_555 1_555
C13_3 C16_3 1_555 1_555
C14_3 C15_3 1_555 1_555
H16_4 C9_4 1_555 1_555
C10_4 C9_4 1_555 1_555
C11_4 C10_4 1_555 1_555
C12_4 C11_4 1_555 1_555
H18_4 C12_4 1_555 1_555
C13_4 C12_4 1_555 1_555
C14_4 C13_4 1_555 1_555
C15_4 C10_4 1_555 1_555
H20_4 C15_4 1_555 1_555
H21_4 C16_4 1_555 1_555
H22_4 C16_4 1_555 1_555
C13_4 C16_4 1_555 1_555
C14_4 C15_4 1_555 1_555
H2_4 C1_4 1_555 1_555
C2_4 C1_4 1_555 1_555
H3_4 C2_4 1_555 1_555
C3_4 C2_4 1_555 1_555
H4_4 C3_4 1_555 1_555
H5_4 C3_4 1_555 1_555
H8_4 C5_4 1_555 1_555
C6_4 C5_4 1_555 1_555
H9_4 C6_4 1_555 1_555
H10_4 C6_4 1_555 1_555
C7_4 C2_4 1_555 1_555
H12_4 C7_4 1_555 1_555
C6_4 C7_4 1_555 1_555

#END
