
###############################################################################
#
# This file contains modified crystal structure data generated from the
# MOF subset of the Cambridge Structural Database (CSD) v543 
# hosted by the Cambridge Crystallographic Data Centre (CCDC).
#
# This work is licensed under the Creative Commons
# Attribution-NonCommercial-ShareAlike 4.0 International License.
# To view a copy of this license, visit
# http://creativecommons.org/licenses/by-nc-sa/4.0/
# or send a letter to
# Creative Commons, PO Box 1866, Mountain View, CA 94042, USA.
#
# CIF created using the CSD Python API on 29 September 2022
# The structure has been converted into the P1 space group
# The structure has a 3D framework
# The original CSD entry NIMPEG01 is in the triclinic crystal system
# The framework has been calculated to contain at least 10.0% void space
# The void calculation uses a probe of radius 1.32A, grid spacing 0.4
# H atom positions have been added when not included in the experimental data
#
###############################################################################

data_NIMPEG01
_chemical_formula_moiety         '(C94 H80 Cu4 O24)n'
_symmetry_cell_setting           triclinic
_symmetry_space_group_name_H-M   'P 1'
_symmetry_Int_Tables_number      1
_space_group_name_Hall           'P 1'
loop_
_symmetry_equiv_pos_site_id
_symmetry_equiv_pos_as_xyz
1 x,y,z
_cell_length_a                   15.01(2)
_cell_length_b                   16.62(2)
_cell_length_c                   19.29(3)
_cell_angle_alpha                102.288(19)
_cell_angle_beta                 91.786(18)
_cell_angle_gamma                93.300(18)
_cell_volume                     4689.51
loop_
_atom_site_label
_atom_site_type_symbol
_atom_site_fract_x
_atom_site_fract_y
_atom_site_fract_z
Cu1 Cu 0.54358(10) 0.50664(9) 0.44229(8)
C1 C 0.4310(9) 0.3623(8) 0.4348(8)
C2 C 0.3925(5) 0.2782(3) 0.3975(4)
C3 C 0.3966(5) 0.2486(4) 0.3247(4)
H1 H 0.4282 0.2803 0.2968
C4 C 0.3542(5) 0.1725(5) 0.2928(3)
H2 H 0.3570 0.1523 0.2431
C5 C 0.3079(5) 0.1261(3) 0.3337(4)
C6 C 0.3039(5) 0.1557(4) 0.4064(4)
H3 H 0.2722 0.1240 0.4344
C7 C 0.3462(5) 0.2318(5) 0.4383(3)
H4 H 0.3435 0.2520 0.4881
C8 C 0.2614(5) 0.0444(4) 0.3030(5)
C13 C 0.1774(5) 0.0264(4) 0.3263(4)
H6 H 0.1496 0.0670 0.3594
H13 H 0.0434 0.0256 0.4126
H28 H 0.4460 0.0124 0.3304
C45 C 0.5424(11) 0.0316(11) 0.2464(10)
H29 H 0.5981 0.0246 0.2718
H30 H 0.5336 0.0906 0.2519
H31 H 0.5458 0.0063 0.1959
O1 O 0.4872(5) 0.3988(4) 0.3960(5)
O4 O 0.6208(5) 0.5297(5) 0.3580(4)
O9 O 0.4175(5) 0.3871(5) 0.4956(5)
O11 O 0.3844(7) 0.0001(7) 0.2323(7)
Cu5 Cu 0.45642(10) 0.49336(9) 0.55771(8)
O13 O 0.4358(6) 0.5556(6) 0.4165(5)
O14 O 0.6433(5) 0.4574(6) 0.4829(5)
O17 O 0.5825(5) 0.6129(5) 0.5044(5)
H37 H 0.580756 0.530335 0.316188
H38 H 0.65489 0.58398 0.373044
C9 C 0.3020(4) 0.9849(5) 0.2546(5)
C10 C 0.2587(5) 0.9075(4) 0.2296(4)
C11 C 0.1747(5) 0.8895(4) 0.2530(5)
H5 H 0.1451 0.8366 0.2359
C12 C 0.1340(4) 0.9490(5) 0.3013(5)
C14 C 0.3044(5) 0.8337(5) 0.1872(5)
C15 C 0.3463(6) 0.8391(4) 0.1250(5)
H7 H 0.3494 0.8897 0.1095
C16 C 0.3837(6) 0.7704(6) 0.0853(4)
H8 H 0.4124 0.7741 0.0428
C17 C 0.3792(5) 0.6963(5) 0.1079(5)
C18 C 0.3373(6) 0.6909(4) 0.1702(5)
H9 H 0.3341 0.6402 0.1856
C19 C 0.2999(6) 0.7595(6) 0.2098(4)
H10 H 0.2712 0.7559 0.2523
C20 C 0.4205(11) 0.6266(9) 0.0686(9)
C21 C 0.0385(9) 0.9275(7) 0.3294(9)
C22 C 0.0287(9) 0.9661(8) 0.4049(7)
H11 H 0.0691 0.9420 0.4345
C24 C 0.0165(5) 0.8366(4) 0.3193(4)
C25 C 0.0765(4) 0.7954(5) 0.3531(4)
H17 H 0.1238 0.8256 0.3832
C26 C 0.0674(5) 0.7099(5) 0.3428(4)
C30 C 0.1396(5) 0.6647(5) 0.3734(6)
C31 C 0.2117(7) 0.6459(6) 0.3307(4)
H19 H 0.2105 0.6557 0.2840
C32 C 0.2854(5) 0.6126(6) 0.3564(5)
H20 H 0.3347 0.5997 0.3273
C33 C 0.2871(5) 0.5981(5) 0.4248(6)
C34 C 0.2150(7) 0.6170(6) 0.4674(4)
H21 H 0.2161 0.6071 0.5142
C35 C 0.1412(5) 0.6503(6) 0.4417(5)
H22 H 0.0920 0.6632 0.4709
C36 C 0.3612(10) 0.5651(10) 0.4517(9)
C44 C 0.4552(5) 0.9854(11) 0.2805(10)
H27 H 0.4621 0.9257 0.2769
C46 C 0.0221(12) 0.5416(10) 0.2294(10)
H32 H 0.0848 0.5610 0.2249
C47 C 0.0116(10) 0.4418(8) 0.2435(8)
H34 H 0.0374 0.4040 0.2043
H36 H 0.0433 0.4397 0.2882
O5 O 0.3567(5) 0.5426(6) 0.5171(5)
O6 O 0.4620(5) 0.6349(4) 0.0091(4)
O8 O 0.4196(5) 0.5579(5) 0.0903(4)
Cu8 Cu 0.47274(10) 0.45714(9) 0.04716(9)
Cu6 Cu 0.52726(10) 0.54286(9) 0.95284(9)
H12 H 0.9669 0.9562 0.4176
C23 C 0.9671(9) 0.9650(8) 0.2820(8)
H14 H 0.9066 0.9542 0.2969
H15 H 0.9714 0.9387 0.2318
C27 C 0.9983(6) 0.6657(4) 0.2987(5)
C28 C 0.9382(4) 0.7070(5) 0.2649(4)
C29 C 0.9473(5) 0.7924(5) 0.2752(4)
H18 H 0.9063 0.8206 0.2522
C37 C 0.8619(4) 0.6656(4) 0.2148(4)
C38 C 0.8027(5) 0.6088(5) 0.2356(3)
H23 H 0.8112 0.5953 0.2807
C39 C 0.7310(4) 0.5717(4) 0.1905(4)
H24 H 0.6905 0.5329 0.2048
C40 C 0.7185(4) 0.5915(4) 0.1246(4)
C41 C 0.7778(5) 0.6483(5) 0.1038(3)
H25 H 0.7693 0.6618 0.0587
C42 C 0.8494(5) 0.6854(4) 0.1489(4)
H26 H 0.8899 0.7243 0.1346
C43 C 0.6403(9) 0.5577(8) 0.0723(7)
H33 H 0.9843 0.5492 0.1886
H35 H 0.9483 0.4252 0.2460
O2 O 0.6305(5) 0.5787(5) 0.0171(4)
O10 O 0.5851(5) 0.5026(5) 0.1037(4)
O12 O 0.9878(8) 0.5765(7) 0.2957(7)
O7 O 0.5858(5) 0.6109(5) 0.8732(5)
O16 O 0.5804(5) 0.4421(5) 0.9097(4)
O18 O 0.4149(5) 0.4974(5) 0.8963(4)
H39 H 0.643971 0.588811 0.858449
H40 H 0.544112 0.603122 0.830967
O7_2 O 0.4142(5) 0.3891(5) 0.1268(5)
H39_2 H 0.356029 0.411189 0.141551
H40_2 H 0.455888 0.396878 0.169033
H12_2 H 0.0331 0.0438 0.5824
C23_2 C 0.0329(9) 0.0350(8) 0.7180(8)
H14_2 H 0.0934 0.0458 0.7031
H15_2 H 0.0286 0.0613 0.7682
C27_2 C 0.0017(6) 0.3343(4) 0.7013(5)
C28_2 C 0.0618(4) 0.2930(5) 0.7351(4)
C29_2 C 0.0527(5) 0.2076(5) 0.7248(4)
H18_2 H 0.0937 0.1794 0.7478
C37_2 C 0.1381(4) 0.3344(4) 0.7852(4)
C38_2 C 0.1973(5) 0.3912(5) 0.7644(3)
H23_2 H 0.1888 0.4047 0.7193
C39_2 C 0.2690(4) 0.4283(4) 0.8095(4)
H24_2 H 0.3095 0.4671 0.7952
C40_2 C 0.2815(4) 0.4085(4) 0.8754(4)
C41_2 C 0.2222(5) 0.3517(5) 0.8962(3)
H25_2 H 0.2307 0.3382 0.9413
C42_2 C 0.1506(5) 0.3146(4) 0.8511(4)
H26_2 H 0.1101 0.2757 0.8654
C43_2 C 0.3597(9) 0.4423(8) 0.9277(7)
H33_2 H 0.0157 0.4508 0.8114
H35_2 H 0.0517 0.5748 0.7540
O2_2 O 0.3695(5) 0.4213(5) 0.9829(4)
O12_2 O 0.0122(8) 0.4235(7) 0.7043(7)
O15 O 0.5380(5) 0.3651(4) 0.9909(4)
C9_2 C 0.6980(4) 0.0151(5) 0.7454(5)
C10_2 C 0.7413(5) 0.0925(4) 0.7704(4)
C11_2 C 0.8253(5) 0.1105(4) 0.7470(5)
H5_2 H 0.8549 0.1634 0.7641
C12_2 C 0.8660(4) 0.0510(5) 0.6987(5)
C14_2 C 0.6956(5) 0.1663(5) 0.8128(5)
C15_2 C 0.6537(6) 0.1609(4) 0.8750(5)
H7_2 H 0.6506 0.1103 0.8905
C16_2 C 0.6163(6) 0.2296(6) 0.9147(4)
H8_2 H 0.5876 0.2259 0.9572
C17_2 C 0.6208(5) 0.3037(5) 0.8921(5)
C18_2 C 0.6627(6) 0.3091(4) 0.8298(5)
H9_2 H 0.6659 0.3598 0.8144
C19_2 C 0.7001(6) 0.2405(6) 0.7902(4)
H10_2 H 0.7288 0.2441 0.7477
C20_2 C 0.5795(11) 0.3734(9) 0.9314(9)
C21_2 C 0.9615(9) 0.0725(7) 0.6706(9)
C22_2 C 0.9713(9) 0.0339(8) 0.5951(7)
H11_2 H 0.9309 0.0580 0.5655
C24_2 C 0.9835(5) 0.1634(4) 0.6807(4)
C25_2 C 0.9235(4) 0.2046(5) 0.6469(4)
H17_2 H 0.8762 0.1744 0.6168
C26_2 C 0.9326(5) 0.2901(5) 0.6572(4)
C30_2 C 0.8604(5) 0.3353(5) 0.6266(6)
C31_2 C 0.7883(7) 0.3541(6) 0.6693(4)
H19_2 H 0.7895 0.3443 0.7160
C32_2 C 0.7146(5) 0.3874(6) 0.6436(5)
H20_2 H 0.6653 0.4003 0.6727
C33_2 C 0.7129(5) 0.4019(5) 0.5752(6)
C34_2 C 0.7850(7) 0.3830(6) 0.5326(4)
H21_2 H 0.7839 0.3929 0.4858
C35_2 C 0.8588(5) 0.3497(6) 0.5583(5)
H22_2 H 0.9080 0.3368 0.5291
C36_2 C 0.6388(10) 0.4349(10) 0.5483(9)
C44_2 C 0.5448(5) 0.0146(11) 0.7195(10)
H27_2 H 0.5379 0.0743 0.7231
C46_2 C 0.9779(12) 0.4584(10) 0.7706(10)
H32_2 H 0.9152 0.4390 0.7751
C47_2 C 0.9884(10) 0.5582(8) 0.7565(8)
H34_2 H 0.9626 0.5960 0.7957
H36_2 H 0.9567 0.5603 0.7118
O3 O 0.5642(6) 0.4444(6) 0.5835(5)
C1_2 C 0.5690(9) 0.6377(8) 0.5652(8)
C2_2 C 0.6075(5) 0.7218(3) 0.6025(4)
C3_2 C 0.6034(5) 0.7514(4) 0.6753(4)
H1_2 H 0.5718 0.7197 0.7032
C4_2 C 0.6458(5) 0.8275(5) 0.7072(3)
H2_2 H 0.6430 0.8477 0.7569
C5_2 C 0.6921(5) 0.8739(3) 0.6663(4)
C6_2 C 0.6961(5) 0.8443(4) 0.5936(4)
H3_2 H 0.7278 0.8760 0.5656
C7_2 C 0.6538(5) 0.7682(5) 0.5617(3)
H4_2 H 0.6565 0.7480 0.5119
C8_2 C 0.7386(5) 0.9556(4) 0.6970(5)
C13_2 C 0.8226(5) 0.9736(4) 0.6737(4)
H6_2 H 0.8504 0.9330 0.6406
H13_2 H 0.9566 0.9744 0.5874
H28_2 H 0.5540 0.9876 0.6696
C45_2 C 0.4576(11) 0.9684(11) 0.7536(10)
H29_2 H 0.4019 0.9754 0.7282
H30_2 H 0.4664 0.9094 0.7481
H31_2 H 0.4542 0.9937 0.8041
O1_2 O 0.5128(5) 0.6012(4) 0.6040(5)
O4_2 O 0.3792(5) 0.4703(5) 0.6420(4)
O11_2 O 0.6156(7) 0.9999(7) 0.7677(7)
H37_2 H 0.419244 0.469665 0.683812
H38_2 H 0.34511 0.41602 0.626956
H16 H 0.9802 0.0246 0.2885
H16_2 H 0.0198 0.9754 0.7115
loop_
_geom_bond_atom_site_label_1
_geom_bond_atom_site_label_2
_geom_bond_site_symmetry_1
_geom_bond_site_symmetry_2
Cu1 O1 1_555 1_555
C1 C2 1_555 1_555
C2 C3 1_555 1_555
C3 H1 1_555 1_555
C4 C3 1_555 1_555
H2 C4 1_555 1_555
C5 C4 1_555 1_555
C6 C5 1_555 1_555
H3 C6 1_555 1_555
C7 C2 1_555 1_555
H4 C7 1_555 1_555
C8 C5 1_555 1_555
C13 C8 1_555 1_555
H6 C13 1_555 1_555
H29 C45 1_555 1_555
H30 C45 1_555 1_555
H31 C45 1_555 1_555
O1 C1 1_555 1_555
O4 Cu1 1_555 1_555
O9 C1 1_555 1_555
Cu5 O9 1_555 1_555
O13 Cu1 1_555 1_555
O14 Cu1 1_555 1_555
O17 Cu1 1_555 1_555
C6 C7 1_555 1_555
O4 H37 1_555 1_555
O4 H38 1_555 1_555
C10 C9 1_555 1_555
C11 C10 1_555 1_555
H5 C11 1_555 1_555
C12 C11 1_555 1_555
C14 C10 1_555 1_555
C15 C14 1_555 1_555
H7 C15 1_555 1_555
C16 C15 1_555 1_555
H8 C16 1_555 1_555
C17 C16 1_555 1_555
C18 C17 1_555 1_555
H9 C18 1_555 1_555
C19 C14 1_555 1_555
H10 C19 1_555 1_555
C20 C17 1_555 1_555
C21 C12 1_555 1_555
C22 C21 1_555 1_555
H11 C22 1_555 1_555
C24 C21 1_555 1_555
C25 C24 1_555 1_555
H17 C25 1_555 1_555
C26 C25 1_555 1_555
C30 C26 1_555 1_555
C31 C30 1_555 1_555
H19 C31 1_555 1_555
C32 C31 1_555 1_555
H20 C32 1_555 1_555
C33 C32 1_555 1_555
C34 C33 1_555 1_555
H21 C34 1_555 1_555
C35 C30 1_555 1_555
H22 C35 1_555 1_555
C36 C33 1_555 1_555
C44 H27 1_555 1_555
C46 H32 1_555 1_555
C47 C46 1_555 1_555
H34 C47 1_555 1_555
H36 C47 1_555 1_555
O13 C36 1_555 1_555
O5 C36 1_555 1_555
O6 C20 1_555 1_555
O8 C20 1_555 1_555
Cu5 O5 1_555 1_555
Cu8 O8 1_555 1_555
C18 C19 1_555 1_555
C34 C35 1_555 1_555
H14 C23 1_555 1_555
H15 C23 1_555 1_555
C28 C27 1_555 1_555
H18 C29 1_555 1_555
C37 C28 1_555 1_555
C38 C37 1_555 1_555
H23 C38 1_555 1_555
C39 C38 1_555 1_555
H24 C39 1_555 1_555
C40 C39 1_555 1_555
C41 C40 1_555 1_555
H25 C41 1_555 1_555
C42 C37 1_555 1_555
H26 C42 1_555 1_555
C43 C40 1_555 1_555
O2 C43 1_555 1_555
O10 C43 1_555 1_555
O12 C27 1_555 1_555
Cu8 O10 1_555 1_555
C28 C29 1_555 1_555
C41 C42 1_555 1_555
O7 Cu6 1_555 1_555
O16 Cu6 1_555 1_555
O18 Cu6 1_555 1_555
O7 H39 1_555 1_555
O7 H40 1_555 1_555
O7_2 Cu8 1_555 1_555
O7_2 H39_2 1_555 1_555
O7_2 H40_2 1_555 1_555
H14_2 C23_2 1_555 1_555
H15_2 C23_2 1_555 1_555
C28_2 C27_2 1_555 1_555
H18_2 C29_2 1_555 1_555
C37_2 C28_2 1_555 1_555
C38_2 C37_2 1_555 1_555
H23_2 C38_2 1_555 1_555
C39_2 C38_2 1_555 1_555
H24_2 C39_2 1_555 1_555
C40_2 C39_2 1_555 1_555
C41_2 C40_2 1_555 1_555
H25_2 C41_2 1_555 1_555
C42_2 C37_2 1_555 1_555
H26_2 C42_2 1_555 1_555
C43_2 C40_2 1_555 1_555
O2_2 C43_2 1_555 1_555
O18 C43_2 1_555 1_555
O12_2 C27_2 1_555 1_555
C28_2 C29_2 1_555 1_555
C41_2 C42_2 1_555 1_555
C10_2 C9_2 1_555 1_555
C11_2 C10_2 1_555 1_555
H5_2 C11_2 1_555 1_555
C12_2 C11_2 1_555 1_555
C14_2 C10_2 1_555 1_555
C15_2 C14_2 1_555 1_555
H7_2 C15_2 1_555 1_555
C16_2 C15_2 1_555 1_555
H8_2 C16_2 1_555 1_555
C17_2 C16_2 1_555 1_555
C18_2 C17_2 1_555 1_555
H9_2 C18_2 1_555 1_555
C19_2 C14_2 1_555 1_555
H10_2 C19_2 1_555 1_555
C20_2 C17_2 1_555 1_555
C21_2 C12_2 1_555 1_555
C22_2 C21_2 1_555 1_555
H11_2 C22_2 1_555 1_555
C24_2 C21_2 1_555 1_555
C25_2 C24_2 1_555 1_555
H17_2 C25_2 1_555 1_555
C26_2 C25_2 1_555 1_555
C30_2 C26_2 1_555 1_555
C31_2 C30_2 1_555 1_555
H19_2 C31_2 1_555 1_555
C32_2 C31_2 1_555 1_555
H20_2 C32_2 1_555 1_555
C33_2 C32_2 1_555 1_555
C34_2 C33_2 1_555 1_555
H21_2 C34_2 1_555 1_555
C35_2 C30_2 1_555 1_555
H22_2 C35_2 1_555 1_555
C36_2 C33_2 1_555 1_555
C44_2 H27_2 1_555 1_555
C46_2 H32_2 1_555 1_555
C47_2 C46_2 1_555 1_555
H34_2 C47_2 1_555 1_555
H36_2 C47_2 1_555 1_555
O3 C36_2 1_555 1_555
O14 C36_2 1_555 1_555
O15 C20_2 1_555 1_555
O16 C20_2 1_555 1_555
Cu5 O3 1_555 1_555
C18_2 C19_2 1_555 1_555
C34_2 C35_2 1_555 1_555
Cu5 O1_2 1_555 1_555
C1_2 C2_2 1_555 1_555
C2_2 C3_2 1_555 1_555
C3_2 H1_2 1_555 1_555
C4_2 C3_2 1_555 1_555
H2_2 C4_2 1_555 1_555
C5_2 C4_2 1_555 1_555
C6_2 C5_2 1_555 1_555
H3_2 C6_2 1_555 1_555
C7_2 C2_2 1_555 1_555
H4_2 C7_2 1_555 1_555
C8_2 C5_2 1_555 1_555
C13_2 C8_2 1_555 1_555
H6_2 C13_2 1_555 1_555
H29_2 C45_2 1_555 1_555
H30_2 C45_2 1_555 1_555
H31_2 C45_2 1_555 1_555
O1_2 C1_2 1_555 1_555
O4_2 Cu5 1_555 1_555
O17 C1_2 1_555 1_555
C6_2 C7_2 1_555 1_555
O4_2 H37_2 1_555 1_555
O4_2 H38_2 1_555 1_555

#END
