
###############################################################################
#
# This file contains modified crystal structure data generated from the
# MOF subset of the Cambridge Structural Database (CSD) v543 
# hosted by the Cambridge Crystallographic Data Centre (CCDC).
#
# This work is licensed under the Creative Commons
# Attribution-NonCommercial-ShareAlike 4.0 International License.
# To view a copy of this license, visit
# http://creativecommons.org/licenses/by-nc-sa/4.0/
# or send a letter to
# Creative Commons, PO Box 1866, Mountain View, CA 94042, USA.
#
# CIF created using the CSD Python API on 29 September 2022
# The structure has been converted into the P1 space group
# The structure has a 3D framework
# The original CSD entry NIMROT is in the triclinic crystal system
# The framework has been calculated to contain at least 10.0% void space
# The void calculation uses a probe of radius 1.32A, grid spacing 0.4
# H atom positions have been added when not included in the experimental data
#
###############################################################################

data_NIMROT
_chemical_formula_moiety         '(C120 H72 Cd4 Fe4 N8 O30)n'
_symmetry_cell_setting           triclinic
_symmetry_space_group_name_H-M   'P 1'
_symmetry_Int_Tables_number      1
_space_group_name_Hall           'P 1'
loop_
_symmetry_equiv_pos_site_id
_symmetry_equiv_pos_as_xyz
1 x,y,z
_cell_length_a                   11.7597(10)
_cell_length_b                   14.8279(11)
_cell_length_c                   22.2202(18)
_cell_angle_alpha                89.653(7)
_cell_angle_beta                 75.944(7)
_cell_angle_gamma                66.887(8)
_cell_volume                     3439.52
loop_
_atom_site_label
_atom_site_type_symbol
_atom_site_fract_x
_atom_site_fract_y
_atom_site_fract_z
C56 C 0.0190(7) 0.2025(5) 0.0109(3)
C58 C 0.1587(9) 0.2718(7) 0.0342(4)
H30 H 0.2274 0.2898 0.0209
C59 C 0.0919(9) 0.2895(7) 0.0963(4)
H31 H 0.1131 0.3230 0.1240
Cd1 Cd 0.34179(6) 0.03161(5) 0.48104(3)
H14 H 0.0311 0.4234 0.8196
H15 H 0.0383 0.4763 0.9137
C44 C 0.0376(6) 0.1029(5) 0.8011(3)
C45 C 0.0980(7) 0.1643(6) 0.7775(3)
H23 H 0.1057 0.2073 0.8050
C46 C 0.1468(7) 0.1631(6) 0.7142(3)
H24 H 0.1842 0.2068 0.7000
C47 C 0.1413(7) 0.0991(6) 0.6718(3)
C48 C 0.0790(7) 0.0392(6) 0.6936(3)
C49 C 0.0246(7) 0.0404(5) 0.7583(4)
C53 C 0.0141(7) 0.1518(5) 0.9118(3)
H28 H 0.0668 0.1842 0.8961
C54 C 0.2036(8) 0.0883(7) 0.6042(3)
C57 C 0.1238(8) 0.2277(7) 0.9920(4)
H29 H 0.1704 0.2144 0.9504
O3 O 0.2266(8) 0.1794(6) 0.4395(4)
O12 O 0.2693(6) 0.1364(5) 0.5835(3)
O13 O 0.1954(6) 0.0273(5) 0.5679(3)
Cd7 Cd 0.38332(7) 0.23281(5) 0.56768(3)
O22 O 0.5090(5) 0.0786(4) 0.4645(3)
H35 H 0.262405 0.228839 0.443746
H36 H 0.234896 0.164382 0.394757
H25 H 0.0724 0.9968 0.6653
O18 O 0.2596(8) 0.9568(7) 0.4181(3)
O20 O 0.4694(6) 0.9009(4) 0.3979(3)
O23 O 0.4910(5) 0.9214(4) 0.5355(3)
Fe2 Fe 0.81777(10) 0.12330(7) 0.01750(5)
C1 C 0.6070(8) 0.4448(5) 0.1277(4)
C2 C 0.6215(8) 0.4795(5) 0.1857(3)
C3 C 0.7327(8) 0.4856(6) 0.1929(4)
H1 H 0.8074 0.4578 0.1609
C4 C 0.7358(8) 0.5309(7) 0.2454(4)
H2 H 0.8097 0.5384 0.2475
C5 C 0.6266(8) 0.5661(6) 0.2962(4)
C6 C 0.5237(8) 0.5521(6) 0.2939(4)
H3 H 0.4538 0.5720 0.3287
C7 C 0.5181(8) 0.5073(6) 0.2394(4)
C8 C 0.4074(8) 0.4913(7) 0.2363(4)
H4 H 0.3408 0.5053 0.2722
C9 C 0.3960(8) 0.4566(6) 0.1832(4)
H5 H 0.3223 0.4471 0.1836
C10 C 0.4948(7) 0.4341(5) 0.1262(4)
C11 C 0.7027(7) 0.4387(5) 0.0722(3)
H6 H 0.7698 0.4543 0.0764
C12 C 0.6239(9) 0.6310(6) 0.3499(4)
H16 H 0.8869 0.4820 0.0038
C31 C 0.7218(7) 0.1311(5) 0.1739(3)
C32 C 0.6675(7) 0.1419(5) 0.2413(3)
C33 C 0.6685(9) 0.2127(7) 0.2828(4)
H17 H 0.6992 0.2594 0.2669
C34 C 0.6260(10) 0.2146(6) 0.3450(4)
H18 H 0.6307 0.2614 0.3709
C35 C 0.5751(8) 0.1487(7) 0.3718(4)
C36 C 0.5688(8) 0.0790(6) 0.3330(3)
H19 H 0.5356 0.0340 0.3496
C37 C 0.6138(7) 0.0775(5) 0.2676(4)
C38 C 0.5984(8) 0.0109(6) 0.2279(4)
C39 C 0.6455(8) 0.0033(6) 0.1651(4)
C40 C 0.7120(7) 0.0596(5) 0.1364(3)
C41 C 0.8054(7) 0.1783(5) 0.1504(3)
H22 H 0.8216 0.2134 0.1795
C42 C 0.5307(10) 0.1479(7) 0.4404(4)
C55 C 0.9567(7) 0.2160(5) 0.0758(3)
C60 C 0.9963(8) 0.2591(6) 0.1174(4)
H32 H 0.9570 0.2670 0.1599
N1 N 0.7030(5) 0.4126(4) 0.0154(3)
N3 N 0.8625(5) 0.1770(4) 0.0910(2)
O1 O 0.4727(5) 0.4088(4) 0.0759(2)
O4 O 0.6770(5) 0.2176(3) 0.0096(2)
O5 O 0.2228(8) 0.3272(7) 0.5183(5)
O6 O 0.7626(5) 0.0415(3) 0.0759(2)
O8 O 0.7123(6) 0.6625(5) 0.3411(3)
O9 O 0.5339(7) 0.6543(5) 0.3992(3)
O15 O 0.5195(7) 0.2226(5) 0.4739(4)
Cd8 Cd 0.61668(7) 0.76719(5) 0.43232(3)
O16 O 0.2877(6) 0.3375(5) 0.6589(3)
O17 O 0.4661(7) 0.3457(5) 0.6008(3)
O19 O 0.5306(6) 0.0991(4) 0.6021(3)
H33 H 0.226413 0.286477 0.482002
H34 H 0.137215 0.348469 0.548396
Fe1 Fe 0.59060(9) 0.34203(7) 0.99679(5)
C13 C 0.5915(6) 0.2812(5) 0.8522(3)
C14 C 0.6029(7) 0.2343(5) 0.7933(3)
C15 C 0.7166(7) 0.1962(6) 0.7447(4)
H7 H 0.7896 0.2012 0.7506
C16 C 0.7233(8) 0.1530(7) 0.6902(4)
H8 H 0.8017 0.1263 0.6604
C17 C 0.6162(8) 0.1467(6) 0.6768(4)
C18 C 0.5038(8) 0.1816(6) 0.7227(4)
H9 H 0.4319 0.1762 0.7156
C19 C 0.4952(7) 0.2250(6) 0.7796(3)
C20 C 0.3803(8) 0.2583(6) 0.8294(4)
H10 H 0.3079 0.2535 0.8225
C21 C 0.3729(7) 0.2959(5) 0.8851(4)
H11 H 0.2961 0.3149 0.9159
C22 C 0.4763(7) 0.3083(5) 0.8996(3)
C23 C 0.6916(7) 0.3084(5) 0.8593(4)
H12 H 0.7593 0.2959 0.8240
C24 C 0.6340(10) 0.0927(7) 0.6142(4)
C25 C 0.7981(7) 0.4175(5) 0.9642(3)
C26 C 0.7945(6) 0.3844(5) 0.9058(3)
C27 C 0.8805(7) 0.3896(6) 0.8525(4)
H13 H 0.8759 0.3702 0.8138
C28 C 0.9717(8) 0.4227(7) 0.8556(4)
C29 C 0.9751(10) 0.4545(8) 0.9115(5)
C30 C 0.8864(8) 0.4555(7) 0.9661(4)
C43 C 0.9846(6) 0.1006(5) 0.8682(3)
C52 C 0.9206(6) 0.0388(5) 0.8878(3)
N2 N 0.6994(5) 0.3481(4) 0.9086(2)
N4 N 0.9721(5) 0.1569(4) 0.9732(3)
O2 O 0.4612(4) 0.3459(3) 0.9549(2)
O7 O 0.8757(5) 0.0305(4) 0.9457(2)
O10 O 0.7404(8) 0.0432(7) 0.5819(3)
H20 H 0.5555 0.9720 0.2451
H21 H 0.6334 0.9594 0.1402
Cd5 Cd 0.65821(6) 0.96839(5) 0.51896(3)
C50 C 0.9595(7) 0.9791(6) 0.7794(4)
H26 H 0.9518 0.9382 0.7505
C51 C 0.9076(7) 0.9790(5) 0.8416(4)
H27 H 0.8632 0.9393 0.8541
C50_2 C 0.0405(7) 0.0209(6) 0.2206(4)
H26_2 H 0.0482 0.0618 0.2495
C51_2 C 0.0924(7) 0.0210(5) 0.1584(4)
H27_2 H 0.1368 0.0607 0.1459
H20_2 H 0.4445 0.0280 0.7549
H21_2 H 0.3666 0.0406 0.8598
Fe1_2 Fe 0.40940(9) 0.65797(7) 0.00321(5)
C13_2 C 0.4085(6) 0.7188(5) 0.1478(3)
C14_2 C 0.3971(7) 0.7657(5) 0.2067(3)
C15_2 C 0.2834(7) 0.8038(6) 0.2553(4)
H7_2 H 0.2104 0.7988 0.2494
C16_2 C 0.2767(8) 0.8470(7) 0.3098(4)
H8_2 H 0.1983 0.8737 0.3396
C17_2 C 0.3838(8) 0.8533(6) 0.3232(4)
C18_2 C 0.4962(8) 0.8184(6) 0.2773(4)
H9_2 H 0.5681 0.8238 0.2844
C19_2 C 0.5048(7) 0.7750(6) 0.2204(3)
C20_2 C 0.6197(8) 0.7417(6) 0.1706(4)
H10_2 H 0.6921 0.7465 0.1775
C21_2 C 0.6271(7) 0.7041(5) 0.1149(4)
H11_2 H 0.7039 0.6851 0.0841
C22_2 C 0.5237(7) 0.6917(5) 0.1004(3)
C23_2 C 0.3084(7) 0.6916(5) 0.1407(4)
H12_2 H 0.2407 0.7041 0.1760
C24_2 C 0.3660(10) 0.9073(7) 0.3858(4)
C25_2 C 0.2019(7) 0.5825(5) 0.0358(3)
C26_2 C 0.2055(6) 0.6156(5) 0.0942(3)
C27_2 C 0.1195(7) 0.6104(6) 0.1475(4)
H13_2 H 0.1241 0.6298 0.1862
C28_2 C 0.0283(8) 0.5773(7) 0.1444(4)
C29_2 C 0.0249(10) 0.5455(8) 0.0885(5)
C30_2 C 0.1136(8) 0.5445(7) 0.0339(4)
C43_2 C 0.0154(6) 0.8994(5) 0.1318(3)
C52_2 C 0.0794(6) 0.9612(5) 0.1122(3)
N2_2 N 0.3006(5) 0.6519(4) 0.0914(2)
N4_2 N 0.0279(5) 0.8431(4) 0.0268(3)
O2_2 O 0.5388(4) 0.6541(3) 0.0451(2)
O7_2 O 0.1243(5) 0.9695(4) 0.0543(2)
Fe2_2 Fe 0.18223(10) 0.87670(7) 0.98250(5)
C1_2 C 0.3930(8) 0.5552(5) 0.8723(4)
C2_2 C 0.3785(8) 0.5205(5) 0.8143(3)
C3_2 C 0.2673(8) 0.5144(6) 0.8071(4)
H1_2 H 0.1926 0.5422 0.8391
C4_2 C 0.2642(8) 0.4691(7) 0.7546(4)
H2_2 H 0.1903 0.4616 0.7525
C5_2 C 0.3734(8) 0.4339(6) 0.7038(4)
C6_2 C 0.4763(8) 0.4479(6) 0.7061(4)
H3_2 H 0.5462 0.4280 0.6713
C7_2 C 0.4819(8) 0.4927(6) 0.7606(4)
C8_2 C 0.5926(8) 0.5087(7) 0.7637(4)
H4_2 H 0.6592 0.4947 0.7278
C9_2 C 0.6040(8) 0.5434(6) 0.8168(4)
H5_2 H 0.6777 0.5529 0.8164
C10_2 C 0.5052(7) 0.5659(5) 0.8738(4)
C11_2 C 0.2973(7) 0.5613(5) 0.9278(3)
H6_2 H 0.2302 0.5457 0.9236
C12_2 C 0.3761(9) 0.3690(6) 0.6501(4)
H16_2 H 0.1131 0.5180 0.9962
C31_2 C 0.2782(7) 0.8689(5) 0.8261(3)
C32_2 C 0.3325(7) 0.8581(5) 0.7587(3)
C33_2 C 0.3315(9) 0.7873(7) 0.7172(4)
H17_2 H 0.3008 0.7406 0.7331
C34_2 C 0.3740(10) 0.7854(6) 0.6550(4)
H18_2 H 0.3693 0.7386 0.6291
C35_2 C 0.4249(8) 0.8513(7) 0.6282(4)
C36_2 C 0.4312(8) 0.9210(6) 0.6670(3)
H19_2 H 0.4644 0.9660 0.6504
C37_2 C 0.3862(7) 0.9225(5) 0.7324(4)
C38_2 C 0.4016(8) 0.9891(6) 0.7721(4)
C39_2 C 0.3545(8) 0.9967(6) 0.8349(4)
C40_2 C 0.2880(7) 0.9404(5) 0.8636(3)
C41_2 C 0.1946(7) 0.8217(5) 0.8496(3)
H22_2 H 0.1784 0.7866 0.8205
C42_2 C 0.4693(10) 0.8521(7) 0.5596(4)
C55_2 C 0.0433(7) 0.7840(5) 0.9242(3)
C60_2 C 0.0037(8) 0.7409(6) 0.8826(4)
H32_2 H 0.0430 0.7330 0.8401
N1_2 N 0.2970(5) 0.5874(4) 0.9846(3)
N3_2 N 0.1375(5) 0.8230(4) 0.9090(2)
O1_2 O 0.5273(5) 0.5912(4) 0.9241(2)
O4_2 O 0.3230(5) 0.7824(3) 0.9904(2)
O5_2 O 0.7772(8) 0.6728(7) 0.4817(5)
O6_2 O 0.2374(5) 0.9585(3) 0.9241(2)
O15_2 O 0.4805(7) 0.7774(5) 0.5261(4)
O21 O 0.7307(6) 0.8636(5) 0.4165(3)
H33_2 H 0.773587 0.713523 0.517998
H34_2 H 0.862785 0.651531 0.451604
H25_2 H 0.9276 0.0032 0.3347
H14_2 H 0.9689 0.5766 0.1804
H15_2 H 0.9617 0.5237 0.0863
C44_2 C 0.9624(6) 0.8971(5) 0.1989(3)
C45_2 C 0.9020(7) 0.8357(6) 0.2225(3)
H23_2 H 0.8943 0.7927 0.1950
C46_2 C 0.8532(7) 0.8369(6) 0.2858(3)
H24_2 H 0.8158 0.7932 0.3000
C47_2 C 0.8587(7) 0.9009(6) 0.3282(3)
C48_2 C 0.9210(7) 0.9608(6) 0.3064(3)
C49_2 C 0.9754(7) 0.9596(5) 0.2417(4)
C53_2 C 0.9859(7) 0.8482(5) 0.0882(3)
H28_2 H 0.9332 0.8158 0.1039
C54_2 C 0.7964(8) 0.9117(7) 0.3958(3)
C57_2 C 0.8762(8) 0.7723(7) 0.0080(4)
H29_2 H 0.8296 0.7856 0.0496
O3_2 O 0.7734(8) 0.8206(6) 0.5605(4)
O13_2 O 0.8046(6) 0.9727(5) 0.4321(3)
H35_2 H 0.737595 0.771161 0.556254
H36_2 H 0.765104 0.835618 0.605243
C56_2 C 0.9810(7) 0.7975(5) 0.9891(3)
C58_2 C 0.8413(9) 0.7282(7) 0.9658(4)
H30_2 H 0.7726 0.7102 0.9791
C59_2 C 0.9081(9) 0.7105(7) 0.9037(4)
H31_2 H 0.8869 0.6770 0.8760
loop_
_geom_bond_atom_site_label_1
_geom_bond_atom_site_label_2
_geom_bond_site_symmetry_1
_geom_bond_site_symmetry_2
H30 C58 1_555 1_555
C59 C58 1_555 1_555
H31 C59 1_555 1_555
Cd1 O3 1_555 1_555
C44 C45 1_555 1_555
C45 H23 1_555 1_555
C46 C45 1_555 1_555
H24 C46 1_555 1_555
C47 C46 1_555 1_555
C48 C47 1_555 1_555
C49 C44 1_555 1_555
H28 C53 1_555 1_555
C54 C47 1_555 1_555
C57 H29 1_555 1_555
O12 Cd1 1_555 1_555
O13 Cd1 1_555 1_555
Cd7 O12 1_555 1_555
O22 Cd1 1_555 1_555
C48 C49 1_555 1_555
C54 O12 1_555 1_555
C54 O13 1_555 1_555
O3 H35 1_555 1_555
O3 H36 1_555 1_555
Fe2 N3 1_555 1_555
Cd7 O5 1_555 1_555
C1 C2 1_555 1_555
C2 C3 1_555 1_555
C3 H1 1_555 1_555
C4 C3 1_555 1_555
H2 C4 1_555 1_555
C5 C4 1_555 1_555
C6 C5 1_555 1_555
H3 C6 1_555 1_555
C7 C2 1_555 1_555
C8 C7 1_555 1_555
H4 C8 1_555 1_555
C9 C8 1_555 1_555
H5 C9 1_555 1_555
C10 C1 1_555 1_555
C11 C1 1_555 1_555
H6 C11 1_555 1_555
C12 C5 1_555 1_555
C31 C32 1_555 1_555
C32 C33 1_555 1_555
C33 H17 1_555 1_555
C34 C33 1_555 1_555
H18 C34 1_555 1_555
C35 C34 1_555 1_555
C36 C35 1_555 1_555
H19 C36 1_555 1_555
C37 C32 1_555 1_555
C38 C37 1_555 1_555
C39 C38 1_555 1_555
C40 C31 1_555 1_555
C41 C31 1_555 1_555
H22 C41 1_555 1_555
C42 C35 1_555 1_555
C60 C55 1_555 1_555
H32 C60 1_555 1_555
N1 C11 1_555 1_555
N3 C41 1_555 1_555
O6 Fe2 1_555 1_555
O8 C12 1_555 1_555
O9 C12 1_555 1_555
O22 C42 1_555 1_555
O15 Cd7 1_555 1_555
Cd8 O8 1_555 1_555
O16 Cd7 1_555 1_555
O17 Cd7 1_555 1_555
O19 Cd7 1_555 1_555
Fe2 O4 1_555 1_555
C6 C7 1_555 1_555
C9 C10 1_555 1_555
C10 O1 1_555 1_555
C36 C37 1_555 1_555
C39 C40 1_555 1_555
C40 O6 1_555 1_555
C42 O15 1_555 1_555
C55 N3 1_555 1_555
O9 Cd8 1_555 1_555
O5 H33 1_555 1_555
O5 H34 1_555 1_555
C13 C14 1_555 1_555
C14 C15 1_555 1_555
C15 H7 1_555 1_555
C16 C15 1_555 1_555
H8 C16 1_555 1_555
C17 C16 1_555 1_555
C18 C17 1_555 1_555
H9 C18 1_555 1_555
C19 C14 1_555 1_555
C20 C19 1_555 1_555
H10 C20 1_555 1_555
C21 C20 1_555 1_555
H11 C21 1_555 1_555
C22 C13 1_555 1_555
C23 C13 1_555 1_555
H12 C23 1_555 1_555
C24 C17 1_555 1_555
C25 C26 1_555 1_555
C26 C27 1_555 1_555
C27 H13 1_555 1_555
C28 C27 1_555 1_555
C29 C28 1_555 1_555
C30 C25 1_555 1_555
C52 C43 1_555 1_555
N2 Fe1 1_555 1_555
O2 Fe1 1_555 1_555
O10 C24 1_555 1_555
O19 C24 1_555 1_555
C18 C19 1_555 1_555
C21 C22 1_555 1_555
C22 O2 1_555 1_555
C23 N2 1_555 1_555
C26 N2 1_555 1_555
C29 C30 1_555 1_555
C52 O7 1_555 1_555
H26 C50 1_555 1_555
C51 C50 1_555 1_555
H27 C51 1_555 1_555
H26_2 C50_2 1_555 1_555
C51_2 C50_2 1_555 1_555
H27_2 C51_2 1_555 1_555
C13_2 C14_2 1_555 1_555
C14_2 C15_2 1_555 1_555
C15_2 H7_2 1_555 1_555
C16_2 C15_2 1_555 1_555
H8_2 C16_2 1_555 1_555
C17_2 C16_2 1_555 1_555
C18_2 C17_2 1_555 1_555
H9_2 C18_2 1_555 1_555
C19_2 C14_2 1_555 1_555
C20_2 C19_2 1_555 1_555
H10_2 C20_2 1_555 1_555
C21_2 C20_2 1_555 1_555
H11_2 C21_2 1_555 1_555
C22_2 C13_2 1_555 1_555
C23_2 C13_2 1_555 1_555
H12_2 C23_2 1_555 1_555
C24_2 C17_2 1_555 1_555
C25_2 C26_2 1_555 1_555
C26_2 C27_2 1_555 1_555
C27_2 H13_2 1_555 1_555
C28_2 C27_2 1_555 1_555
C29_2 C28_2 1_555 1_555
C30_2 C25_2 1_555 1_555
C52_2 C43_2 1_555 1_555
N2_2 Fe1_2 1_555 1_555
O2_2 Fe1_2 1_555 1_555
O18 C24_2 1_555 1_555
O20 C24_2 1_555 1_555
Cd8 O20 1_555 1_555
C18_2 C19_2 1_555 1_555
C21_2 C22_2 1_555 1_555
C22_2 O2_2 1_555 1_555
C23_2 N2_2 1_555 1_555
C26_2 N2_2 1_555 1_555
C29_2 C30_2 1_555 1_555
C52_2 O7_2 1_555 1_555
Fe2_2 N3_2 1_555 1_555
Cd8 O5_2 1_555 1_555
C1_2 C2_2 1_555 1_555
C2_2 C3_2 1_555 1_555
C3_2 H1_2 1_555 1_555
C4_2 C3_2 1_555 1_555
H2_2 C4_2 1_555 1_555
C5_2 C4_2 1_555 1_555
C6_2 C5_2 1_555 1_555
H3_2 C6_2 1_555 1_555
C7_2 C2_2 1_555 1_555
C8_2 C7_2 1_555 1_555
H4_2 C8_2 1_555 1_555
C9_2 C8_2 1_555 1_555
H5_2 C9_2 1_555 1_555
C10_2 C1_2 1_555 1_555
C11_2 C1_2 1_555 1_555
H6_2 C11_2 1_555 1_555
C12_2 C5_2 1_555 1_555
C31_2 C32_2 1_555 1_555
C32_2 C33_2 1_555 1_555
C33_2 H17_2 1_555 1_555
C34_2 C33_2 1_555 1_555
H18_2 C34_2 1_555 1_555
C35_2 C34_2 1_555 1_555
C36_2 C35_2 1_555 1_555
H19_2 C36_2 1_555 1_555
C37_2 C32_2 1_555 1_555
C38_2 C37_2 1_555 1_555
C39_2 C38_2 1_555 1_555
C40_2 C31_2 1_555 1_555
C41_2 C31_2 1_555 1_555
H22_2 C41_2 1_555 1_555
C42_2 C35_2 1_555 1_555
C60_2 C55_2 1_555 1_555
H32_2 C60_2 1_555 1_555
N1_2 C11_2 1_555 1_555
N3_2 C41_2 1_555 1_555
O6_2 Fe2_2 1_555 1_555
O16 C12_2 1_555 1_555
O17 C12_2 1_555 1_555
O23 C42_2 1_555 1_555
O15_2 Cd8 1_555 1_555
Cd5 O23 1_555 1_555
O21 Cd8 1_555 1_555
Fe2_2 O4_2 1_555 1_555
C6_2 C7_2 1_555 1_555
C9_2 C10_2 1_555 1_555
C10_2 O1_2 1_555 1_555
C36_2 C37_2 1_555 1_555
C39_2 C40_2 1_555 1_555
C40_2 O6_2 1_555 1_555
C42_2 O15_2 1_555 1_555
C55_2 N3_2 1_555 1_555
Cd5 O21 1_555 1_555
O5_2 H33_2 1_555 1_555
O5_2 H34_2 1_555 1_555
Cd5 O3_2 1_555 1_555
C44_2 C45_2 1_555 1_555
C45_2 H23_2 1_555 1_555
C46_2 C45_2 1_555 1_555
H24_2 C46_2 1_555 1_555
C47_2 C46_2 1_555 1_555
C48_2 C47_2 1_555 1_555
C49_2 C44_2 1_555 1_555
H28_2 C53_2 1_555 1_555
C54_2 C47_2 1_555 1_555
C57_2 H29_2 1_555 1_555
O13_2 Cd5 1_555 1_555
C48_2 C49_2 1_555 1_555
C54_2 O21 1_555 1_555
C54_2 O13_2 1_555 1_555
O3_2 H35_2 1_555 1_555
O3_2 H36_2 1_555 1_555
H30_2 C58_2 1_555 1_555
C59_2 C58_2 1_555 1_555
H31_2 C59_2 1_555 1_555

#END
