
###############################################################################
#
# This file contains modified crystal structure data generated from the
# MOF subset of the Cambridge Structural Database (CSD) v543 
# hosted by the Cambridge Crystallographic Data Centre (CCDC).
#
# This work is licensed under the Creative Commons
# Attribution-NonCommercial-ShareAlike 4.0 International License.
# To view a copy of this license, visit
# http://creativecommons.org/licenses/by-nc-sa/4.0/
# or send a letter to
# Creative Commons, PO Box 1866, Mountain View, CA 94042, USA.
#
# CIF created using the CSD Python API on 29 September 2022
# The structure has been converted into the P1 space group
# The structure has a 3D framework
# The original CSD entry NIMZUF is in the monoclinic crystal system
# The original CSD entry NIMZUF is in a Sohncke space group
# The framework has been calculated to contain at least 10.0% void space
# The void calculation uses a probe of radius 1.32A, grid spacing 0.4
# H atom positions have been added when not included in the experimental data
#
###############################################################################

data_NIMZUF
_chemical_formula_moiety         '(C80 H84 Cu6 N16 O34 S14)n'
_symmetry_cell_setting           triclinic
_symmetry_space_group_name_H-M   'P 1'
_symmetry_Int_Tables_number      1
_space_group_name_Hall           'P 1'
loop_
_symmetry_equiv_pos_site_id
_symmetry_equiv_pos_as_xyz
1 x,y,z
_cell_length_a                   11.809(2)
_cell_length_b                   22.188(3)
_cell_length_c                   12.509(2)
_cell_angle_alpha                90
_cell_angle_beta                 112.777(4)
_cell_angle_gamma                90
_cell_volume                     3021.99
loop_
_atom_site_label
_atom_site_type_symbol
_atom_site_fract_x
_atom_site_fract_y
_atom_site_fract_z
Cu5 Cu 0.20262(8) 0.81654(4) 0.03543(8)
Cu1 Cu 0.26839(9) 0.67092(4) 0.49449(8)
Cu3 Cu 0.33682(8) 0.52001(4) 0.95453(8)
S1 S 0.4383(2) 0.39418(9) 0.43794(16)
S3 S 0.07472(19) 0.94316(9) 0.55478(18)
S4 S 0.7962(2) 0.77481(12) 0.50851(18)
S5 S 0.38875(17) 0.65630(8) 0.82606(15)
S6 S 0.15596(17) 0.68044(9) 0.17001(16)
O1 O 0.3607(5) 0.6582(3) 0.7027(4)
O2 O 0.2781(5) 0.6750(3) 0.8467(4)
O3 O 0.4216(5) 0.5951(2) 0.8708(5)
O4 O 0.4902(5) 0.6972(3) 0.8900(6)
O5 O 0.1864(5) 0.6878(3) 0.2947(4)
O6 O 0.0647(6) 0.6319(3) 0.1229(6)
O7 O 0.2696(5) 0.6639(2) 0.1502(5)
O8 O 0.1058(5) 0.7376(3) 0.1087(5)
O11 O 0.1645(7) 0.3743(4) 0.9411(7)
O13 O 0.3158(5) 0.7515(2) 0.0275(5)
O14 O 0.1046(5) 0.8844(3) 0.0548(6)
O15 O 0.4427(6) 0.4561(3) 0.9160(6)
O16 O 0.2236(6) 0.5886(3) 0.9646(5)
N1 N 0.3305(6) 0.5872(3) 0.4748(5)
N2 N 0.6804(6) 0.3329(3) 0.8018(5)
N3 N 0.1029(6) 0.6359(3) 0.4836(6)
N5 N 0.2031(5) 0.7536(3) 0.5165(5)
N7 N 0.4329(6) 0.7039(3) 0.5053(5)
C1 C 0.4242(7) 0.5621(4) 0.5624(7)
H1 H 0.4649 0.5846 0.6313
C2 C 0.4633(7) 0.5032(3) 0.5543(7)
H2 H 0.5320 0.4868 0.6160
C3 C 0.4017(7) 0.4692(3) 0.4564(6)
C4 C 0.3071(8) 0.4958(4) 0.3680(7)
H3 H 0.2633 0.4735 0.2995
C5 C 0.2754(7) 0.5529(4) 0.3768(6)
H4 H 0.2117 0.5706 0.3122
C6 C 0.7241(7) 0.3361(4) 0.7185(7)
H5 H 0.8068 0.3246 0.7353
C7 C 0.6519(8) 0.3557(4) 0.6079(7)
H6 H 0.6851 0.3579 0.5500
C8 C 0.5327(7) 0.3719(3) 0.5825(6)
C9 C 0.4859(7) 0.3681(4) 0.6680(7)
H7 H 0.4032 0.3789 0.6527
C10 C 0.5635(7) 0.3483(3) 0.7764(6)
H8 H 0.5322 0.3455 0.8357
C11 C 0.0169(7) 0.6174(4) 0.3847(7)
H9 H 0.0343 0.6194 0.3167
C15 C 0.0790(7) 0.6351(3) 0.5811(6)
H12 H 0.1400 0.6484 0.6523
C21 C 0.1042(7) 0.7768(4) 0.4330(7)
H17 H 0.0636 0.7529 0.3660
C22 C 0.0567(7) 0.8330(3) 0.4371(7)
C23 C 0.1168(7) 0.8692(4) 0.5325(7)
C24 C 0.2175(8) 0.8442(4) 0.6229(6)
H19 H 0.2586 0.8665 0.6919
C25 C 0.2562(7) 0.7879(4) 0.6115(7)
H20 H 0.3245 0.7718 0.6741
H23 H 0.0740 0.9564 0.3222
C31 C 0.5211(8) 0.7258(4) 0.6051(6)
H25 H 0.5036 0.7261 0.6731
C32 C 0.6332(7) 0.7472(4) 0.6135(7)
H26 H 0.6904 0.7625 0.6849
C33 C 0.6607(7) 0.7461(3) 0.5185(6)
C34 C 0.5724(7) 0.7251(4) 0.4121(7)
H27 H 0.5887 0.7256 0.3434
C35 C 0.4639(7) 0.7043(3) 0.4104(7)
H28 H 0.4058 0.6890 0.3394
C37 C 0.9308(8) 0.7383(4) 0.7327(7)
H30 H 0.8952 0.6995 0.7106
C38 C 0.8960(7) 0.7851(4) 0.6570(7)
C39 C 0.9495(7) 0.8409(4) 0.6913(8)
H31 H 0.9234 0.8744 0.6401
Cu4 Cu 0.79738(8) 0.31654(4) 0.96457(8)
N9 N 0.3196(6) 0.8329(3) 0.1982(5)
N11 N 0.2070(6) 0.5021(3) 0.7977(5)
H33 H 0.117235 0.888064 0.137766
H34 H 0.130884 0.922267 0.0288133
H35 H 0.530929 0.466519 0.956142
H36 H 0.42722 0.415867 0.942395
H39 H 0.175082 0.604139 0.885561
H40 H 0.167001 0.573014 0.999684
N6 N 0.7930(6) 0.0021(3) 0.2023(5)
C26 C 0.7647(7) 0.0006(3) 0.2986(7)
H21 H 0.6844 0.0118 0.2914
Cu7 Cu 0.66318(8) 0.02001(4) 0.04547(8)
S2 S 0.26097(19) 0.06994(10) 0.51860(17)
N4 N 0.5315(6) 0.0360(3) 0.8904(6)
C12 C 0.0940(8) 0.0960(4) 0.6258(7)
H10 H 0.1514 0.0816 0.6979
C13 C 0.1218(7) 0.0958(4) 0.5237(7)
C14 C 0.0314(7) 0.1154(3) 0.4217(7)
H11 H 0.0463 0.1152 0.3524
C17 C 0.4107(7) 0.0026(4) 0.6965(7)
C18 C 0.3576(7) 0.0567(4) 0.6649(7)
C19 C 0.3907(7) 0.1022(4) 0.7515(7)
H15 H 0.3540 0.1410 0.7341
C20 C 0.4743(7) 0.0900(3) 0.8583(6)
H16 H 0.4946 0.1212 0.9147
H18 H 0.0157 0.3467 0.6242
C26_2 C 0.2353(7) 0.5006(3) 0.7014(7)
H21_2 H 0.3156 0.5118 0.7086
C27 C 0.1504(8) 0.4832(4) 0.5935(7)
H22 H 0.1708 0.4844 0.5272
C28 C 0.0350(7) 0.4639(3) 0.5843(7)
C29 C 0.0057(8) 0.4671(4) 0.6824(7)
C30 C 0.0946(7) 0.4861(3) 0.7861(7)
H24 H 0.0742 0.4879 0.8524
Cu1_2 Cu 0.73161(9) 0.17092(4) 0.50551(8)
S3_2 S 0.92528(19) 0.44316(9) 0.44522(18)
S4_2 S 0.2038(2) 0.27481(12) 0.49149(18)
S5_2 S 0.61125(17) 0.15630(8) 0.17394(15)
S6_2 S 0.84404(17) 0.18044(9) 0.82999(16)
O1_2 O 0.6393(5) 0.1582(3) 0.2973(4)
O2_2 O 0.7219(5) 0.1750(3) 0.1533(4)
O3_2 O 0.5784(5) 0.0951(2) 0.1292(5)
O4_2 O 0.5098(5) 0.1972(3) 0.1100(6)
O5_2 O 0.8136(5) 0.1878(3) 0.7053(4)
O6_2 O 0.9353(6) 0.1319(3) 0.8771(6)
O7_2 O 0.7304(5) 0.1639(2) 0.8498(5)
O8_2 O 0.8942(5) 0.2376(3) 0.8913(5)
O13_2 O 0.6842(5) 0.2515(2) 0.9725(5)
O14_2 O 0.8954(5) 0.3844(3) 0.9452(6)
O16_2 O 0.7764(6) 0.0886(3) 0.0354(5)
N1_2 N 0.6695(6) 0.0872(3) 0.5252(5)
N3_2 N 0.8971(6) 0.1359(3) 0.5164(6)
N5_2 N 0.7969(5) 0.2536(3) 0.4835(5)
N7_2 N 0.5671(6) 0.2039(3) 0.4947(5)
C1_2 C 0.5758(7) 0.0621(4) 0.4376(7)
H1_2 H 0.5351 0.0846 0.3687
C2_2 C 0.5367(7) 0.0032(3) 0.4457(7)
C5_2 C 0.7246(7) 0.0529(4) 0.6232(6)
H4_2 H 0.7883 0.0706 0.6878
C11_2 C 0.9831(7) 0.1174(4) 0.6153(7)
H9_2 H 0.9657 0.1194 0.6833
C15_2 C 0.9210(7) 0.1351(3) 0.4189(6)
H12_2 H 0.8600 0.1484 0.3477
C21_2 C 0.8958(7) 0.2768(4) 0.5670(7)
H17_2 H 0.9364 0.2529 0.6340
C22_2 C 0.9433(7) 0.3330(3) 0.5629(7)
C23_2 C 0.8832(7) 0.3692(4) 0.4675(7)
C24_2 C 0.7825(8) 0.3442(4) 0.3771(6)
H19_2 H 0.7414 0.3665 0.3081
C25_2 C 0.7438(7) 0.2879(4) 0.3885(7)
H20_2 H 0.6755 0.2718 0.3259
H23_2 H 0.9260 0.4564 0.6778
C31_2 C 0.4789(8) 0.2258(4) 0.3949(6)
H25_2 H 0.4964 0.2261 0.3269
C32_2 C 0.3668(7) 0.2472(4) 0.3865(7)
H26_2 H 0.3096 0.2625 0.3151
C33_2 C 0.3393(7) 0.2461(3) 0.4815(6)
C34_2 C 0.4276(7) 0.2251(4) 0.5879(7)
H27_2 H 0.4113 0.2256 0.6566
C35_2 C 0.5361(7) 0.2043(3) 0.5896(7)
H28_2 H 0.5942 0.1890 0.6606
C37_2 C 0.0692(8) 0.2383(4) 0.2673(7)
H30_2 H 0.1048 0.1995 0.2894
C38_2 C 0.1040(7) 0.2851(4) 0.3430(7)
C39_2 C 0.0505(7) 0.3409(4) 0.3087(8)
H31_2 H 0.0766 0.3744 0.3599
H33_2 H 0.882765 0.388064 0.862234
H34_2 H 0.869116 0.422267 0.971187
H39_2 H 0.824918 0.104139 0.114439
H40_2 H 0.832999 0.073014 0.000315604
S1_2 S 0.5617(2) 0.89418(9) 0.56206(16)
O11_2 O 0.8355(7) 0.8743(4) 0.0589(7)
O15_2 O 0.5573(6) 0.9561(3) 0.0840(6)
H2_2 H 0.4680 0.9868 0.3840
C3_2 C 0.5983(7) 0.9692(3) 0.5436(6)
C4_2 C 0.6929(8) 0.9958(4) 0.6320(7)
H3_2 H 0.7367 0.9735 0.7005
C6_2 C 0.2759(7) 0.8361(4) 0.2815(7)
H5_2 H 0.1932 0.8246 0.2647
C7_2 C 0.3481(8) 0.8557(4) 0.3921(7)
H6_2 H 0.3149 0.8579 0.4500
C8_2 C 0.4673(7) 0.8719(3) 0.4175(6)
C9_2 C 0.5141(7) 0.8681(4) 0.3320(7)
H7_2 H 0.5968 0.8789 0.3473
C10_2 C 0.4365(7) 0.8483(3) 0.2236(6)
H8_2 H 0.4678 0.8455 0.1643
H35_2 H 0.469071 0.966519 0.0438578
H36_2 H 0.57278 0.915867 0.0576048
N8 N 0.0760(6) 0.8018(3) 0.8755(5)
C36 C 0.0207(7) 0.7481(4) 0.8447(7)
H29 H 0.0426 0.7161 0.8995
C40 C 0.0388(8) 0.8477(4) 0.7976(7)
H32 H 0.0772 0.8860 0.8188
O17 O 0.3274(6) 0.8884(3) 0.9636(6)
H37 H 0.267547 0.71916 0.97455
H38 H 0.375863 0.768472 0.997855
H41 H 0.338733 0.870257 0.895849
H42 H 0.282987 0.927291 0.940402
S7 S 0.21671(18) 0.40285(10) 0.05635(19)
O9 O 0.2483(6) 0.4644(3) 0.0442(6)
O10 O 0.3211(6) 0.3698(4) 0.1334(8)
O12 O 0.1183(6) 0.4023(3) 0.1010(6)
N10 N 0.4685(6) 0.5360(3) 0.1096(6)
S2_2 S 0.73903(19) 0.56994(10) 0.48140(17)
C12_2 C 0.9060(8) 0.5960(4) 0.3742(7)
H10_2 H 0.8486 0.5816 0.3021
C13_2 C 0.8782(7) 0.5958(4) 0.4763(7)
C14_2 C 0.9686(7) 0.6154(3) 0.5783(7)
H11_2 H 0.9537 0.6152 0.6476
C16 C 0.5031(7) 0.4929(4) 0.1897(7)
H13 H 0.4683 0.4538 0.1693
C17_2 C 0.5893(7) 0.5026(4) 0.3035(7)
H14 H 0.6099 0.4706 0.3582
C18_2 C 0.6424(7) 0.5567(4) 0.3351(7)
C19_2 C 0.6093(7) 0.6022(4) 0.2485(7)
H15_2 H 0.6460 0.6410 0.2659
C20_2 C 0.5257(7) 0.5900(3) 0.1417(6)
H16_2 H 0.5054 0.6212 0.0853
H18_2 H 0.9843 0.8467 0.3758
C27_2 C 0.8496(8) 0.9832(4) 0.4065(7)
H22_2 H 0.8292 0.9844 0.4728
C28_2 C 0.9650(7) 0.9639(3) 0.4157(7)
C29_2 C 0.9943(8) 0.9671(4) 0.3176(7)
C30_2 C 0.9054(7) 0.9861(3) 0.2139(7)
H24_2 H 0.9258 0.9879 0.1476
C16_2 C 0.4969(7) 0.9929(4) 0.8103(7)
H13_2 H 0.5317 0.9538 0.8307
H14_2 H 0.3901 0.9706 0.6418
O17_2 O 0.6726(6) 0.3884(3) 0.0364(6)
N12 N 0.9240(6) 0.3018(3) 0.1245(5)
H37_2 H 0.732453 0.21916 0.0254496
H38_2 H 0.624137 0.268472 0.00214477
H41_2 H 0.661267 0.370257 0.104151
H42_2 H 0.717013 0.427291 0.0595983
C36_2 C 0.9793(7) 0.2481(4) 0.1553(7)
H29_2 H 0.9574 0.2161 0.1005
C40_2 C 0.9612(8) 0.3477(4) 0.2024(7)
H32_2 H 0.9228 0.3860 0.1812
S7_2 S 0.78329(18) 0.90285(10) 0.94365(19)
O9_2 O 0.7517(6) 0.9644(3) 0.9558(6)
O10_2 O 0.6789(6) 0.8698(4) 0.8666(8)
O12_2 O 0.8817(6) 0.9023(3) 0.8990(6)
loop_
_geom_bond_atom_site_label_1
_geom_bond_atom_site_label_2
_geom_bond_site_symmetry_1
_geom_bond_site_symmetry_2
Cu1 O1 1_555 1_555
Cu5 O8 1_555 1_555
Cu3 O3 1_555 1_555
S1 C3 1_555 1_555
S3 C23 1_555 1_555
S4 C33 1_555 1_555
S5 O1 1_555 1_555
S6 O5 1_555 1_555
O2 S5 1_555 1_555
O3 S5 1_555 1_555
O4 S5 1_555 1_555
O5 Cu1 1_555 1_555
O6 S6 1_555 1_555
O7 S6 1_555 1_555
O8 S6 1_555 1_555
O13 Cu5 1_555 1_555
O14 Cu5 1_555 1_555
O15 Cu3 1_555 1_555
O16 Cu3 1_555 1_555
N1 Cu1 1_555 1_555
N2 C6 1_555 1_555
N3 Cu1 1_555 1_555
N5 Cu1 1_555 1_555
N7 Cu1 1_555 1_555
C1 N1 1_555 1_555
H1 C1 1_555 1_555
C2 C1 1_555 1_555
H2 C2 1_555 1_555
C3 C2 1_555 1_555
C4 C3 1_555 1_555
H3 C4 1_555 1_555
C5 N1 1_555 1_555
H4 C5 1_555 1_555
C6 H5 1_555 1_555
C7 C6 1_555 1_555
H6 C7 1_555 1_555
C8 S1 1_555 1_555
C9 C8 1_555 1_555
H7 C9 1_555 1_555
C10 N2 1_555 1_555
H8 C10 1_555 1_555
C11 N3 1_555 1_555
H9 C11 1_555 1_555
C15 N3 1_555 1_555
H12 C15 1_555 1_555
C21 N5 1_555 1_555
H17 C21 1_555 1_555
C22 C21 1_555 1_555
C23 C22 1_555 1_555
C24 C23 1_555 1_555
H19 C24 1_555 1_555
C25 N5 1_555 1_555
H20 C25 1_555 1_555
C31 N7 1_555 1_555
H25 C31 1_555 1_555
C32 C31 1_555 1_555
H26 C32 1_555 1_555
C33 C32 1_555 1_555
C34 C33 1_555 1_555
H27 C34 1_555 1_555
C35 N7 1_555 1_555
H28 C35 1_555 1_555
H30 C37 1_555 1_555
C38 S4 1_555 1_555
C39 C38 1_555 1_555
H31 C39 1_555 1_555
Cu4 N2 1_555 1_555
N9 Cu5 1_555 1_555
N11 Cu3 1_555 1_555
C4 C5 1_555 1_555
C7 C8 1_555 1_555
C9 C10 1_555 1_555
C24 C25 1_555 1_555
C34 C35 1_555 1_555
C37 C38 1_555 1_555
O14 H33 1_555 1_555
O14 H34 1_555 1_555
O15 H35 1_555 1_555
O15 H36 1_555 1_555
O16 H39 1_555 1_555
O16 H40 1_555 1_555
N6 C26 1_555 1_555
C26 H21 1_555 1_555
Cu7 N6 1_555 1_555
S2 C13 1_555 1_555
N11 C26_2 1_555 1_555
H10 C12 1_555 1_555
C13 C12 1_555 1_555
C14 C13 1_555 1_555
H11 C14 1_555 1_555
C18 S2 1_555 1_555
C19 C18 1_555 1_555
H15 C19 1_555 1_555
C20 N4 1_555 1_555
H16 C20 1_555 1_555
C26_2 H21_2 1_555 1_555
C27 C26_2 1_555 1_555
H22 C27 1_555 1_555
C29 C28 1_555 1_555
C30 N11 1_555 1_555
H24 C30 1_555 1_555
C17 C18 1_555 1_555
C19 C20 1_555 1_555
C27 C28 1_555 1_555
C29 C30 1_555 1_555
Cu1_2 O1_2 1_555 1_555
Cu4 O8_2 1_555 1_555
Cu7 O3_2 1_555 1_555
S3_2 C23_2 1_555 1_555
S4_2 C33_2 1_555 1_555
S5_2 O1_2 1_555 1_555
S6_2 O5_2 1_555 1_555
O2_2 S5_2 1_555 1_555
O3_2 S5_2 1_555 1_555
O4_2 S5_2 1_555 1_555
O5_2 Cu1_2 1_555 1_555
O6_2 S6_2 1_555 1_555
O7_2 S6_2 1_555 1_555
O8_2 S6_2 1_555 1_555
O13_2 Cu4 1_555 1_555
O14_2 Cu4 1_555 1_555
O16_2 Cu7 1_555 1_555
N1_2 Cu1_2 1_555 1_555
N3_2 Cu1_2 1_555 1_555
N5_2 Cu1_2 1_555 1_555
N7_2 Cu1_2 1_555 1_555
C1_2 N1_2 1_555 1_555
H1_2 C1_2 1_555 1_555
C2_2 C1_2 1_555 1_555
C5_2 N1_2 1_555 1_555
H4_2 C5_2 1_555 1_555
C11_2 N3_2 1_555 1_555
H9_2 C11_2 1_555 1_555
C15_2 N3_2 1_555 1_555
H12_2 C15_2 1_555 1_555
C21_2 N5_2 1_555 1_555
H17_2 C21_2 1_555 1_555
C22_2 C21_2 1_555 1_555
C23_2 C22_2 1_555 1_555
C24_2 C23_2 1_555 1_555
H19_2 C24_2 1_555 1_555
C25_2 N5_2 1_555 1_555
H20_2 C25_2 1_555 1_555
C31_2 N7_2 1_555 1_555
H25_2 C31_2 1_555 1_555
C32_2 C31_2 1_555 1_555
H26_2 C32_2 1_555 1_555
C33_2 C32_2 1_555 1_555
C34_2 C33_2 1_555 1_555
H27_2 C34_2 1_555 1_555
C35_2 N7_2 1_555 1_555
H28_2 C35_2 1_555 1_555
H30_2 C37_2 1_555 1_555
C38_2 S4_2 1_555 1_555
C39_2 C38_2 1_555 1_555
H31_2 C39_2 1_555 1_555
C24_2 C25_2 1_555 1_555
C34_2 C35_2 1_555 1_555
C37_2 C38_2 1_555 1_555
O14_2 H33_2 1_555 1_555
O14_2 H34_2 1_555 1_555
O16_2 H39_2 1_555 1_555
O16_2 H40_2 1_555 1_555
S1_2 C3_2 1_555 1_555
N9 C6_2 1_555 1_555
C4_2 C3_2 1_555 1_555
H3_2 C4_2 1_555 1_555
C6_2 H5_2 1_555 1_555
C7_2 C6_2 1_555 1_555
H6_2 C7_2 1_555 1_555
C8_2 S1_2 1_555 1_555
C9_2 C8_2 1_555 1_555
H7_2 C9_2 1_555 1_555
C10_2 N9 1_555 1_555
H8_2 C10_2 1_555 1_555
C7_2 C8_2 1_555 1_555
C9_2 C10_2 1_555 1_555
O15_2 H35_2 1_555 1_555
O15_2 H36_2 1_555 1_555
N8 C36 1_555 1_555
C36 H29 1_555 1_555
C40 N8 1_555 1_555
H32 C40 1_555 1_555
O17 H41 1_555 1_555
O17 H42 1_555 1_555
S7 O9 1_555 1_555
O10 S7 1_555 1_555
O12 S7 1_555 1_555
S2_2 C13_2 1_555 1_555
N10 C16 1_555 1_555
H10_2 C12_2 1_555 1_555
C13_2 C12_2 1_555 1_555
C14_2 C13_2 1_555 1_555
H11_2 C14_2 1_555 1_555
C16 H13 1_555 1_555
C17_2 C16 1_555 1_555
H14 C17_2 1_555 1_555
C18_2 S2_2 1_555 1_555
C19_2 C18_2 1_555 1_555
H15_2 C19_2 1_555 1_555
C20_2 N10 1_555 1_555
H16_2 C20_2 1_555 1_555
H22_2 C27_2 1_555 1_555
C29_2 C28_2 1_555 1_555
H24_2 C30_2 1_555 1_555
C17_2 C18_2 1_555 1_555
C19_2 C20_2 1_555 1_555
C27_2 C28_2 1_555 1_555
C29_2 C30_2 1_555 1_555
C16_2 H13_2 1_555 1_555
O17_2 H41_2 1_555 1_555
O17_2 H42_2 1_555 1_555
N12 C36_2 1_555 1_555
C36_2 H29_2 1_555 1_555
C40_2 N12 1_555 1_555
H32_2 C40_2 1_555 1_555
S7_2 O9_2 1_555 1_555
O10_2 S7_2 1_555 1_555
O12_2 S7_2 1_555 1_555

#END
