
###############################################################################
#
# This file contains modified crystal structure data generated from the
# MOF subset of the Cambridge Structural Database (CSD) v543 
# hosted by the Cambridge Crystallographic Data Centre (CCDC).
#
# This work is licensed under the Creative Commons
# Attribution-NonCommercial-ShareAlike 4.0 International License.
# To view a copy of this license, visit
# http://creativecommons.org/licenses/by-nc-sa/4.0/
# or send a letter to
# Creative Commons, PO Box 1866, Mountain View, CA 94042, USA.
#
# CIF created using the CSD Python API on 29 September 2022
# The structure has been converted into the P1 space group
# The structure has a 3D framework
# The original CSD entry NINBEU is in the orthorhombic crystal system
# The framework has been calculated to contain at least 10.0% void space
# The void calculation uses a probe of radius 1.32A, grid spacing 0.4
#
###############################################################################

data_NINBEU
_chemical_formula_moiety         '(C120 H88 Co8 Li8 N8 O68 S16)n'
_symmetry_cell_setting           triclinic
_symmetry_space_group_name_H-M   'P 1'
_symmetry_Int_Tables_number      1
_space_group_name_Hall           'P 1'
loop_
_symmetry_equiv_pos_site_id
_symmetry_equiv_pos_as_xyz
1 x,y,z
_cell_length_a                   22.0036(15)
_cell_length_b                   17.1855(11)
_cell_length_c                   18.8229(15)
_cell_angle_alpha                90
_cell_angle_beta                 90
_cell_angle_gamma                90
_cell_volume                     7117.75
loop_
_atom_site_label
_atom_site_type_symbol
_atom_site_fract_x
_atom_site_fract_y
_atom_site_fract_z
Co1 Co 0.631802(17) 0.07352(2) 0.23533(2)
S2 S 0.49790(4) 0.35386(5) 0.24695(4)
O1 O 0.61047(10) 0.17981(12) 0.26320(12)
O2 O 0.43443(10) 0.49796(13) 0.27021(12)
O4 O 0.63055(10) 0.12892(13) 0.08459(13)
O5 O 0.68749(10) 0.05465(13) 0.15613(12)
O6 O 0.48250(11) 0.53543(12) 0.36931(13)
O7 O 0.53696(10) 0.20527(12) 0.18435(12)
C2 C 0.56783(14) 0.22107(18) 0.23735(17)
C3 C 0.55582(14) 0.29454(18) 0.27538(17)
C4 C 0.67440(15) 0.08587(18) 0.09607(17)
C5 C 0.71633(14) 0.06664(17) 0.03659(16)
O9 O 0.50128(12) 0.17512(15) 0.02358(14)
C7 C 0.76253(17) 0.0134(2) 0.03574(18)
C8 C 0.47437(15) 0.49108(17) 0.31910(17)
C9 C 0.51225(14) 0.41964(17) 0.31272(17)
C10 C 0.55984(17) 0.3972(2) 0.3549(2)
H2 H 0.5744 0.4264 0.3943
C11 C 0.58466(17) 0.3255(2) 0.3327(2)
H3 H 0.6182 0.3013 0.3555
Li1 Li 0.5456(2) 0.1374(3) 0.1045(3)
C15 C 0.4068(3) 0.0632(4) 0.0100(4)
H9 H 0.4398 0.0597 0.0447
H11 H 0.3678 0.0672 0.0349
Co2 Co 0.368198(17) 0.57352(2) 0.26467(2)
O11 O 0.66815(10) 0.03588(12) 0.32458(11)
O12 O 0.51750(11) 0.03543(12) 0.13069(13)
Li2 Li 0.4544(2) 0.6374(3) 0.3955(3)
S1 S 0.70797(3) 0.11205(4) 0.95643(4)
O3 O 0.83185(10) 0.03588(12) 0.82458(11)
C1 C 0.78747(14) 0.07608(16) 0.84732(16)
O8 O 0.76085(10) 0.12670(12) 0.81198(11)
C6 C 0.76703(13) 0.06058(16) 0.92108(16)
N1 N 0.41631(19) 0.1374(3) 0.9619(2)
C12 C 0.79205(17) 0.0110(2) 0.96963(18)
C13 C 0.4610(3) 0.1711(5) 0.9801(4)
H5 H 0.4677 0.2115 0.9466
C14 C 0.3710(3) 0.1374(4) 0.9107(3)
H6 H 0.3318 0.1490 0.9331
H7 H 0.3691 0.0862 0.8880
H8 H 0.3800 0.1771 0.8748
H10 H 0.4068 0.0165 0.9801
Co3 Co 0.868198(17) 0.07352(2) 0.73533(2)
H1 H 0.7734 0.9819 0.0752
O10 O 0.56557(10) 0.99796(13) 0.22979(12)
S1_2 S 0.29203(3) 0.61205(4) 0.54357(4)
S2_2 S 0.50210(4) 0.85386(5) 0.25305(4)
O1_2 O 0.38953(10) 0.67981(12) 0.23680(12)
O3_2 O 0.16815(10) 0.53588(12) 0.67542(11)
O4_2 O 0.36945(10) 0.62892(13) 0.41541(13)
C1_2 C 0.21253(14) 0.57608(16) 0.65268(16)
O5_2 O 0.31251(10) 0.55465(13) 0.34387(12)
O7_2 O 0.46304(10) 0.70527(12) 0.31565(12)
O8_2 O 0.23915(10) 0.62670(12) 0.68802(11)
C2_2 C 0.43217(14) 0.72107(18) 0.26265(17)
C3_2 C 0.44418(14) 0.79454(18) 0.22462(17)
C4_2 C 0.32560(15) 0.58587(18) 0.40393(17)
C5_2 C 0.28367(14) 0.56664(17) 0.46341(16)
O9_2 O 0.49872(12) 0.67512(15) 0.47642(14)
C6_2 C 0.23297(13) 0.56058(16) 0.57892(16)
C7_2 C 0.23747(17) 0.5134(2) 0.46426(18)
H1_2 H 0.2266 0.4819 0.4248
C8_2 C 0.52563(15) 0.99108(17) 0.18090(17)
C9_2 C 0.48775(14) 0.91964(17) 0.18728(17)
C10_2 C 0.44016(17) 0.8972(2) 0.1451(2)
H2_2 H 0.4256 0.9264 0.1057
N1_2 N 0.58369(19) 0.6374(3) 0.5381(2)
C11_2 C 0.41534(17) 0.8255(2) 0.1673(2)
H3_2 H 0.3818 0.8013 0.1445
C12_2 C 0.20795(17) 0.5110(2) 0.53037(18)
H4 H 0.1742 0.4783 0.5403
C13_2 C 0.5390(3) 0.6711(5) 0.5199(4)
H5_2 H 0.5323 0.7115 0.5534
C14_2 C 0.6290(3) 0.6374(4) 0.5893(3)
H6_2 H 0.6682 0.6490 0.5669
H7_2 H 0.6309 0.5862 0.6120
H8_2 H 0.6200 0.6771 0.6252
C15_2 C 0.5932(3) 0.5632(4) 0.4900(4)
H9_2 H 0.5602 0.5597 0.4553
H10_2 H 0.5932 0.5165 0.5199
H11_2 H 0.6322 0.5672 0.4651
Co3_2 Co 0.131802(17) 0.57352(2) 0.76467(2)
O11_2 O 0.33185(10) 0.53588(12) 0.17542(11)
S1_3 S 0.20797(3) 0.61205(4) 0.04357(4)
C1_3 C 0.28747(14) 0.57608(16) 0.15268(16)
O8_3 O 0.26085(10) 0.62670(12) 0.18802(11)
C6_3 C 0.26703(13) 0.56058(16) 0.07892(16)
C12_3 C 0.29205(17) 0.5110(2) 0.03037(18)
H4_2 H 0.3258 0.4783 0.0403
O1_3 O 0.11047(10) 0.67981(12) 0.73680(12)
O4_3 O 0.13055(10) 0.62892(13) 0.91541(13)
O5_3 O 0.18749(10) 0.55465(13) 0.84387(12)
O7_3 O 0.03696(10) 0.70527(12) 0.81565(12)
C2_3 C 0.06783(14) 0.72107(18) 0.76265(17)
C3_3 C 0.05582(14) 0.79454(18) 0.72462(17)
C4_3 C 0.17440(15) 0.58587(18) 0.90393(17)
C5_3 C 0.21633(14) 0.56664(17) 0.96341(16)
O9_3 O 0.00128(12) 0.67512(15) 0.97642(14)
C7_3 C 0.26253(17) 0.5134(2) 0.96426(18)
H1_3 H 0.2734 0.4819 0.9248
C9_3 C 0.01225(14) 0.91964(17) 0.68728(17)
C10_3 C 0.05984(17) 0.8972(2) 0.6451(2)
H2_3 H 0.0744 0.9264 0.6057
C11_3 C 0.08466(17) 0.8255(2) 0.6673(2)
H3_3 H 0.1182 0.8013 0.6445
Li1_2 Li 0.0456(2) 0.6374(3) 0.8955(3)
O10_2 O 0.06557(10) 0.49796(13) 0.77021(12)
O12_2 O 0.01750(11) 0.53543(12) 0.86931(13)
O6_2 O 0.98250(11) 0.03543(12) 0.63069(13)
Li2_2 Li 0.9544(2) 0.1374(3) 0.6045(3)
S2_3 S 0.00210(4) 0.35386(5) 0.74695(4)
C8_3 C 0.02563(15) 0.49108(17) 0.81910(17)
N1_3 N 0.08369(19) 0.1374(3) 0.4619(2)
C13_3 C 0.0390(3) 0.1711(5) 0.4801(4)
H5_3 H 0.0323 0.2115 0.4466
C14_3 C 0.1290(3) 0.1374(4) 0.4107(3)
H6_3 H 0.1682 0.1490 0.4331
H7_3 H 0.1309 0.0862 0.3880
H8_3 H 0.1200 0.1771 0.3748
C15_3 C 0.0932(3) 0.0632(4) 0.5100(4)
H9_3 H 0.0602 0.0597 0.5447
H10_3 H 0.0932 0.0165 0.4801
H11_3 H 0.1322 0.0672 0.5349
S1_4 S 0.79203(3) 0.11205(4) 0.45643(4)
O1_4 O 0.88953(10) 0.17981(12) 0.76320(12)
O4_4 O 0.86945(10) 0.12892(13) 0.58459(13)
C1_4 C 0.71253(14) 0.07608(16) 0.34732(16)
O5_4 O 0.81251(10) 0.05465(13) 0.65613(12)
O7_4 O 0.96304(10) 0.20527(12) 0.68435(12)
O8_4 O 0.73915(10) 0.12670(12) 0.31198(11)
C2_4 C 0.93217(14) 0.22107(18) 0.73735(17)
C3_4 C 0.94418(14) 0.29454(18) 0.77538(17)
C4_4 C 0.82560(15) 0.08587(18) 0.59607(17)
C5_4 C 0.78367(14) 0.06664(17) 0.53659(16)
O9_4 O 0.99872(12) 0.17512(15) 0.52358(14)
C6_4 C 0.73297(13) 0.06058(16) 0.42108(16)
C7_4 C 0.73747(17) 0.0134(2) 0.53574(18)
C9_4 C 0.98775(14) 0.41964(17) 0.81272(17)
C10_4 C 0.94016(17) 0.3972(2) 0.8549(2)
H2_4 H 0.9256 0.4264 0.8943
C11_4 C 0.91534(17) 0.3255(2) 0.8327(2)
H3_4 H 0.8818 0.3013 0.8555
C12_4 C 0.70795(17) 0.0110(2) 0.46963(18)
H4_3 H 0.8258 0.9783 0.9597
S2_4 S 0.00210(4) 0.14614(5) 0.24695(4)
O2_2 O 0.06557(10) 0.00204(13) 0.27021(12)
C8_4 C 0.02563(15) 0.00892(17) 0.31910(17)
C15_4 C 0.0932(3) 0.4368(4) 0.0100(4)
H9_4 H 0.0602 0.4403 0.0447
H11_4 H 0.1322 0.4328 0.0349
H1_4 H 0.2734 0.0181 0.4248
H4_4 H 0.3258 0.0217 0.5403
N1_4 N 0.08369(19) 0.3626(3) 0.9619(2)
C13_4 C 0.0390(3) 0.3289(5) 0.9801(4)
H5_4 H 0.0323 0.2885 0.9466
C14_4 C 0.1290(3) 0.3626(4) 0.9107(3)
H6_4 H 0.1682 0.3510 0.9331
H7_4 H 0.1309 0.4138 0.8880
H8_4 H 0.1200 0.3229 0.8748
H10_4 H 0.0932 0.4835 0.9801
O6_3 O 0.01750(11) 0.96457(12) 0.36931(13)
Co2_2 Co 0.131802(17) 0.92648(2) 0.26467(2)
Li2_3 Li 0.0456(2) 0.8626(3) 0.3955(3)
Co1_2 Co 0.868198(17) 0.42648(2) 0.23533(2)
O1_5 O 0.88953(10) 0.32019(12) 0.26320(12)
O4_5 O 0.86945(10) 0.37108(13) 0.08459(13)
O5_5 O 0.81251(10) 0.44535(13) 0.15613(12)
O7_5 O 0.96304(10) 0.29473(12) 0.18435(12)
C2_5 C 0.93217(14) 0.27893(18) 0.23735(17)
C3_5 C 0.94418(14) 0.20546(18) 0.27538(17)
C4_5 C 0.82560(15) 0.41413(18) 0.09607(17)
C5_5 C 0.78367(14) 0.43336(17) 0.03659(16)
O9_5 O 0.99872(12) 0.32488(15) 0.02358(14)
C7_5 C 0.73747(17) 0.4866(2) 0.03574(18)
H1_5 H 0.7266 0.5181 0.0752
C9_5 C 0.98775(14) 0.08036(17) 0.31272(17)
C10_5 C 0.94016(17) 0.1028(2) 0.3549(2)
H2_5 H 0.9256 0.0736 0.3943
C11_5 C 0.91534(17) 0.1745(2) 0.3327(2)
H3_5 H 0.8818 0.1987 0.3555
Li1_3 Li 0.9544(2) 0.3626(3) 0.1045(3)
O10_3 O 0.93443(10) 0.50204(13) 0.22979(12)
O11_3 O 0.83185(10) 0.46412(12) 0.32458(11)
O12_3 O 0.98250(11) 0.46457(12) 0.13069(13)
S1_5 S 0.79203(3) 0.38795(4) 0.95643(4)
O3_3 O 0.66815(10) 0.46412(12) 0.82458(11)
C1_5 C 0.71253(14) 0.42392(16) 0.84732(16)
O8_5 O 0.73915(10) 0.37330(12) 0.81198(11)
C6_5 C 0.73297(13) 0.43942(16) 0.92108(16)
C12_5 C 0.70795(17) 0.4890(2) 0.96963(18)
H4_5 H 0.6742 0.5217 0.9597
Co3_3 Co 0.631802(17) 0.42648(2) 0.73533(2)
S1_6 S 0.20797(3) 0.88795(4) 0.54357(4)
O1_6 O 0.11047(10) 0.82019(12) 0.23680(12)
O3_4 O 0.33185(10) 0.96412(12) 0.67542(11)
O4_6 O 0.13055(10) 0.87108(13) 0.41541(13)
C1_6 C 0.28747(14) 0.92392(16) 0.65268(16)
O5_6 O 0.18749(10) 0.94535(13) 0.34387(12)
O7_6 O 0.03696(10) 0.79473(12) 0.31565(12)
O8_6 O 0.26085(10) 0.87330(12) 0.68802(11)
C2_6 C 0.06783(14) 0.77893(18) 0.26265(17)
C3_6 C 0.05582(14) 0.70546(18) 0.22462(17)
C4_6 C 0.17440(15) 0.91413(18) 0.40393(17)
C5_6 C 0.21633(14) 0.93336(17) 0.46341(16)
O9_6 O 0.00128(12) 0.82488(15) 0.47642(14)
C6_6 C 0.26703(13) 0.93942(16) 0.57892(16)
C7_6 C 0.26253(17) 0.9866(2) 0.46426(18)
C9_6 C 0.01225(14) 0.58036(17) 0.18728(17)
C10_6 C 0.05984(17) 0.6028(2) 0.1451(2)
H2_6 H 0.0744 0.5736 0.1057
C11_6 C 0.08466(17) 0.6745(2) 0.1673(2)
H3_6 H 0.1182 0.6987 0.1445
C12_6 C 0.29205(17) 0.9890(2) 0.53037(18)
Co3_4 Co 0.368198(17) 0.92648(2) 0.76467(2)
O11_4 O 0.16815(10) 0.96412(12) 0.17542(11)
S2_5 S 0.99790(4) 0.64614(5) 0.25305(4)
C8_5 C 0.97437(15) 0.50892(17) 0.18090(17)
N1_5 N 0.91631(19) 0.8626(3) 0.5381(2)
C13_5 C 0.9610(3) 0.8289(5) 0.5199(4)
H5_5 H 0.9677 0.7885 0.5534
C14_5 C 0.8710(3) 0.8626(4) 0.5893(3)
H6_5 H 0.8318 0.8510 0.5669
H7_5 H 0.8691 0.9138 0.6120
H8_5 H 0.8800 0.8229 0.6252
C15_5 C 0.9068(3) 0.9368(4) 0.4900(4)
H9_5 H 0.9398 0.9403 0.4553
H10_5 H 0.9068 0.9835 0.5199
H11_5 H 0.8678 0.9328 0.4651
H1_6 H 0.2266 0.0181 0.9248
O10_4 O 0.43443(10) 0.00204(13) 0.77021(12)
S1_7 S 0.29203(3) 0.88795(4) 0.04357(4)
C1_7 C 0.21253(14) 0.92392(16) 0.15268(16)
O8_7 O 0.23915(10) 0.87330(12) 0.18802(11)
C6_7 C 0.23297(13) 0.93942(16) 0.07892(16)
N1_6 N 0.58369(19) 0.8626(3) 0.0381(2)
C12_7 C 0.20795(17) 0.9890(2) 0.03037(18)
C13_6 C 0.5390(3) 0.8289(5) 0.0199(4)
H5_6 H 0.5323 0.7885 0.0534
C14_6 C 0.6290(3) 0.8626(4) 0.0893(3)
H6_6 H 0.6682 0.8510 0.0669
H7_6 H 0.6309 0.9138 0.1120
H8_6 H 0.6200 0.8229 0.1252
H10_6 H 0.5932 0.9835 0.0199
S2_6 S 0.50210(4) 0.64614(5) 0.75305(4)
O1_7 O 0.38953(10) 0.82019(12) 0.73680(12)
O2_3 O 0.56557(10) 0.50204(13) 0.72979(12)
O4_7 O 0.36945(10) 0.87108(13) 0.91541(13)
O5_7 O 0.31251(10) 0.94535(13) 0.84387(12)
O6_4 O 0.51750(11) 0.46457(12) 0.63069(13)
O7_7 O 0.46304(10) 0.79473(12) 0.81565(12)
C2_7 C 0.43217(14) 0.77893(18) 0.76265(17)
C3_7 C 0.44418(14) 0.70546(18) 0.72462(17)
C4_7 C 0.32560(15) 0.91413(18) 0.90393(17)
C5_7 C 0.28367(14) 0.93336(17) 0.96341(16)
O9_7 O 0.49872(12) 0.82488(15) 0.97642(14)
C7_7 C 0.23747(17) 0.9866(2) 0.96426(18)
C8_6 C 0.52563(15) 0.50892(17) 0.68090(17)
C9_7 C 0.48775(14) 0.58036(17) 0.68728(17)
C10_7 C 0.44016(17) 0.6028(2) 0.6451(2)
H2_7 H 0.4256 0.5736 0.6057
C11_7 C 0.41534(17) 0.6745(2) 0.6673(2)
H3_7 H 0.3818 0.6987 0.6445
Li1_4 Li 0.4544(2) 0.8626(3) 0.8955(3)
C15_6 C 0.5932(3) 0.9368(4) 0.9900(4)
H9_6 H 0.5602 0.9403 0.9553
H11_6 H 0.6322 0.9328 0.9651
O12_4 O 0.48250(11) 0.96457(12) 0.86931(13)
Li2_4 Li 0.5456(2) 0.3626(3) 0.6045(3)
S1_8 S 0.70797(3) 0.38795(4) 0.45643(4)
S2_7 S 0.49790(4) 0.14614(5) 0.74695(4)
O1_8 O 0.61047(10) 0.32019(12) 0.76320(12)
O4_8 O 0.63055(10) 0.37108(13) 0.58459(13)
C1_8 C 0.78747(14) 0.42392(16) 0.34732(16)
O5_8 O 0.68749(10) 0.44535(13) 0.65613(12)
O7_8 O 0.53696(10) 0.29473(12) 0.68435(12)
O8_8 O 0.76085(10) 0.37330(12) 0.31198(11)
C2_8 C 0.56783(14) 0.27893(18) 0.73735(17)
C3_8 C 0.55582(14) 0.20546(18) 0.77538(17)
C4_8 C 0.67440(15) 0.41413(18) 0.59607(17)
C5_8 C 0.71633(14) 0.43336(17) 0.53659(16)
O9_8 O 0.50128(12) 0.32488(15) 0.52358(14)
C6_8 C 0.76703(13) 0.43942(16) 0.42108(16)
C7_8 C 0.76253(17) 0.4866(2) 0.53574(18)
H1_7 H 0.7734 0.5181 0.5752
C8_7 C 0.47437(15) 0.00892(17) 0.81910(17)
C9_8 C 0.51225(14) 0.08036(17) 0.81272(17)
C10_8 C 0.55984(17) 0.1028(2) 0.8549(2)
H2_8 H 0.5744 0.0736 0.8943
N1_7 N 0.41631(19) 0.3626(3) 0.4619(2)
C11_8 C 0.58466(17) 0.1745(2) 0.8327(2)
H3_8 H 0.6182 0.1987 0.8555
C12_8 C 0.79205(17) 0.4890(2) 0.46963(18)
H4_6 H 0.8258 0.5217 0.4597
C13_7 C 0.4610(3) 0.3289(5) 0.4801(4)
H5_7 H 0.4677 0.2885 0.4466
C14_7 C 0.3710(3) 0.3626(4) 0.4107(3)
H6_7 H 0.3318 0.3510 0.4331
H7_7 H 0.3691 0.4138 0.3880
H8_7 H 0.3800 0.3229 0.3748
C15_7 C 0.4068(3) 0.4368(4) 0.5100(4)
H9_7 H 0.4398 0.4403 0.5447
H10_7 H 0.4068 0.4835 0.4801
H11_7 H 0.3678 0.4328 0.5349
H4_7 H 0.1742 0.0217 0.0403
N1_8 N 0.91631(19) 0.6374(3) 0.0381(2)
C13_8 C 0.9610(3) 0.6711(5) 0.0199(4)
H5_8 H 0.9677 0.7115 0.0534
C14_8 C 0.8710(3) 0.6374(4) 0.0893(3)
H6_8 H 0.8318 0.6490 0.0669
H7_8 H 0.8691 0.5862 0.1120
H8_8 H 0.8800 0.6771 0.1252
H10_8 H 0.9068 0.5165 0.0199
S2_8 S 0.99790(4) 0.85386(5) 0.75305(4)
O2_4 O 0.93443(10) 0.99796(13) 0.72979(12)
C8_8 C 0.97437(15) 0.99108(17) 0.68090(17)
C15_8 C 0.9068(3) 0.5632(4) 0.9900(4)
H9_8 H 0.9398 0.5597 0.9553
H11_8 H 0.8678 0.5672 0.9651
H1_8 H 0.7266 0.9819 0.5752
H4_8 H 0.6742 0.9783 0.4597
loop_
_geom_bond_atom_site_label_1
_geom_bond_atom_site_label_2
_geom_bond_site_symmetry_1
_geom_bond_site_symmetry_2
Co1 O1 1_555 1_555
S2 C3 1_555 1_555
O1 C2 1_555 1_555
O2 C8 1_555 1_555
O4 C4 1_555 1_555
O5 Co1 1_555 1_555
O6 C8 1_555 1_555
O7 C2 1_555 1_555
C2 C3 1_555 1_555
C3 C11 1_555 1_555
C4 O5 1_555 1_555
C5 C4 1_555 1_555
O9 Li1 1_555 1_555
C7 C5 1_555 1_555
C8 C9 1_555 1_555
C9 S2 1_555 1_555
C10 C9 1_555 1_555
H2 C10 1_555 1_555
C11 C10 1_555 1_555
H3 C11 1_555 1_555
Li1 O4 1_555 1_555
H9 C15 1_555 1_555
H11 C15 1_555 1_555
Co2 O2 1_555 1_555
O11 Co1 1_555 1_555
O12 Li1 1_555 1_555
Li2 O6 1_555 1_555
O7 Li1 1_555 1_555
O3 C1 1_555 1_555
C1 O8 1_555 1_555
C6 S1 1_555 1_555
N1 C13 1_555 1_555
C12 C6 1_555 1_555
H5 C13 1_555 1_555
C14 N1 1_555 1_555
H6 C14 1_555 1_555
H7 C14 1_555 1_555
H8 C14 1_555 1_555
Co3 O3 1_555 1_555
C1 C6 1_555 1_555
Co2 O1_2 1_555 1_555
S1_2 C5_2 1_555 1_555
S2_2 C3_2 1_555 1_555
O1_2 C2_2 1_555 1_555
O10 C8_2 1_555 1_555
O3_2 C1_2 1_555 1_555
O4_2 C4_2 1_555 1_555
C1_2 O8_2 1_555 1_555
O5_2 Co2 1_555 1_555
O7_2 C2_2 1_555 1_555
C2_2 C3_2 1_555 1_555
C3_2 C11_2 1_555 1_555
C4_2 O5_2 1_555 1_555
C5_2 C4_2 1_555 1_555
O9_2 Li2 1_555 1_555
C6_2 S1_2 1_555 1_555
C7_2 C5_2 1_555 1_555
H1_2 C7_2 1_555 1_555
C8_2 C9_2 1_555 1_555
C9_2 S2_2 1_555 1_555
C10_2 C9_2 1_555 1_555
H2_2 C10_2 1_555 1_555
N1_2 C13_2 1_555 1_555
C11_2 C10_2 1_555 1_555
H3_2 C11_2 1_555 1_555
C12_2 C6_2 1_555 1_555
H4 C12_2 1_555 1_555
Li2 O4_2 1_555 1_555
C13_2 O9_2 1_555 1_555
H5_2 C13_2 1_555 1_555
C14_2 N1_2 1_555 1_555
H6_2 C14_2 1_555 1_555
H7_2 C14_2 1_555 1_555
H8_2 C14_2 1_555 1_555
C15_2 N1_2 1_555 1_555
H9_2 C15_2 1_555 1_555
H10_2 C15_2 1_555 1_555
H11_2 C15_2 1_555 1_555
Co3_2 O3_2 1_555 1_555
O11_2 Co2 1_555 1_555
C1_2 C6_2 1_555 1_555
O7_2 Li2 1_555 1_555
C7_2 C12_2 1_555 1_555
O11_2 C1_3 1_555 1_555
C1_3 O8_3 1_555 1_555
C6_3 S1_3 1_555 1_555
C12_3 C6_3 1_555 1_555
H4_2 C12_3 1_555 1_555
C1_3 C6_3 1_555 1_555
Co3_2 O1_3 1_555 1_555
O1_3 C2_3 1_555 1_555
O4_3 C4_3 1_555 1_555
O5_3 Co3_2 1_555 1_555
O7_3 C2_3 1_555 1_555
C2_3 C3_3 1_555 1_555
C3_3 C11_3 1_555 1_555
C4_3 O5_3 1_555 1_555
C5_3 C4_3 1_555 1_555
O9_3 Li1_2 1_555 1_555
C7_3 C5_3 1_555 1_555
H1_3 C7_3 1_555 1_555
C10_3 C9_3 1_555 1_555
H2_3 C10_3 1_555 1_555
C11_3 C10_3 1_555 1_555
H3_3 C11_3 1_555 1_555
Li1_2 O4_3 1_555 1_555
O10_2 Co3_2 1_555 1_555
O12_2 Li1_2 1_555 1_555
O7_3 Li1_2 1_555 1_555
Li2_2 O6_2 1_555 1_555
O10_2 C8_3 1_555 1_555
O12_2 C8_3 1_555 1_555
N1_3 C13_3 1_555 1_555
H5_3 C13_3 1_555 1_555
C14_3 N1_3 1_555 1_555
H6_3 C14_3 1_555 1_555
H7_3 C14_3 1_555 1_555
H8_3 C14_3 1_555 1_555
C15_3 N1_3 1_555 1_555
H9_3 C15_3 1_555 1_555
H10_3 C15_3 1_555 1_555
H11_3 C15_3 1_555 1_555
Co3 O1_4 1_555 1_555
S1_4 C5_4 1_555 1_555
O1_4 C2_4 1_555 1_555
O11 C1_4 1_555 1_555
O4_4 C4_4 1_555 1_555
C1_4 O8_4 1_555 1_555
O5_4 Co3 1_555 1_555
O7_4 C2_4 1_555 1_555
C2_4 C3_4 1_555 1_555
C3_4 C11_4 1_555 1_555
C4_4 O5_4 1_555 1_555
C5_4 C4_4 1_555 1_555
O9_4 Li2_2 1_555 1_555
C6_4 S1_4 1_555 1_555
C7_4 C5_4 1_555 1_555
C10_4 C9_4 1_555 1_555
H2_4 C10_4 1_555 1_555
C11_4 C10_4 1_555 1_555
H3_4 C11_4 1_555 1_555
C12_4 C6_4 1_555 1_555
Li2_2 O4_4 1_555 1_555
C1_4 C6_4 1_555 1_555
O7_4 Li2_2 1_555 1_555
C7_4 C12_4 1_555 1_555
O2_2 C8_4 1_555 1_555
H9_4 C15_4 1_555 1_555
H11_4 C15_4 1_555 1_555
N1_4 C13_4 1_555 1_555
H5_4 C13_4 1_555 1_555
C14_4 N1_4 1_555 1_555
H6_4 C14_4 1_555 1_555
H7_4 C14_4 1_555 1_555
H8_4 C14_4 1_555 1_555
Li2_3 O6_3 1_555 1_555
Co1_2 O1_5 1_555 1_555
O1_5 C2_5 1_555 1_555
O4_5 C4_5 1_555 1_555
O5_5 Co1_2 1_555 1_555
O7_5 C2_5 1_555 1_555
C2_5 C3_5 1_555 1_555
C3_5 C11_5 1_555 1_555
C4_5 O5_5 1_555 1_555
C5_5 C4_5 1_555 1_555
O9_5 Li1_3 1_555 1_555
C7_5 C5_5 1_555 1_555
H1_5 C7_5 1_555 1_555
C10_5 C9_5 1_555 1_555
H2_5 C10_5 1_555 1_555
C11_5 C10_5 1_555 1_555
H3_5 C11_5 1_555 1_555
Li1_3 O4_5 1_555 1_555
O10_3 Co1_2 1_555 1_555
O11_3 Co1_2 1_555 1_555
O12_3 Li1_3 1_555 1_555
O7_5 Li1_3 1_555 1_555
O3_3 C1_5 1_555 1_555
C1_5 O8_5 1_555 1_555
C6_5 S1_5 1_555 1_555
C12_5 C6_5 1_555 1_555
H4_5 C12_5 1_555 1_555
Co3_3 O3_3 1_555 1_555
C1_5 C6_5 1_555 1_555
Co2_2 O1_6 1_555 1_555
S1_6 C5_6 1_555 1_555
O1_6 C2_6 1_555 1_555
O3_4 C1_6 1_555 1_555
O4_6 C4_6 1_555 1_555
C1_6 O8_6 1_555 1_555
O5_6 Co2_2 1_555 1_555
O7_6 C2_6 1_555 1_555
C2_6 C3_6 1_555 1_555
C3_6 C11_6 1_555 1_555
C4_6 O5_6 1_555 1_555
C5_6 C4_6 1_555 1_555
O9_6 Li2_3 1_555 1_555
C6_6 S1_6 1_555 1_555
C7_6 C5_6 1_555 1_555
C10_6 C9_6 1_555 1_555
H2_6 C10_6 1_555 1_555
C11_6 C10_6 1_555 1_555
H3_6 C11_6 1_555 1_555
C12_6 C6_6 1_555 1_555
Li2_3 O4_6 1_555 1_555
Co3_4 O3_4 1_555 1_555
O11_4 Co2_2 1_555 1_555
C1_6 C6_6 1_555 1_555
O7_6 Li2_3 1_555 1_555
C7_6 C12_6 1_555 1_555
O10_3 C8_5 1_555 1_555
O12_3 C8_5 1_555 1_555
N1_5 C13_5 1_555 1_555
H5_5 C13_5 1_555 1_555
C14_5 N1_5 1_555 1_555
H6_5 C14_5 1_555 1_555
H7_5 C14_5 1_555 1_555
H8_5 C14_5 1_555 1_555
C15_5 N1_5 1_555 1_555
H9_5 C15_5 1_555 1_555
H10_5 C15_5 1_555 1_555
H11_5 C15_5 1_555 1_555
O11_4 C1_7 1_555 1_555
C1_7 O8_7 1_555 1_555
C6_7 S1_7 1_555 1_555
N1_6 C13_6 1_555 1_555
C12_7 C6_7 1_555 1_555
H5_6 C13_6 1_555 1_555
C14_6 N1_6 1_555 1_555
H6_6 C14_6 1_555 1_555
H7_6 C14_6 1_555 1_555
H8_6 C14_6 1_555 1_555
C1_7 C6_7 1_555 1_555
Co3_4 O1_7 1_555 1_555
S2_6 C3_7 1_555 1_555
O1_7 C2_7 1_555 1_555
O2_3 C8_6 1_555 1_555
O4_7 C4_7 1_555 1_555
O5_7 Co3_4 1_555 1_555
O6_4 C8_6 1_555 1_555
O7_7 C2_7 1_555 1_555
C2_7 C3_7 1_555 1_555
C3_7 C11_7 1_555 1_555
C4_7 O5_7 1_555 1_555
C5_7 C4_7 1_555 1_555
O9_7 Li1_4 1_555 1_555
C7_7 C5_7 1_555 1_555
C8_6 C9_7 1_555 1_555
C9_7 S2_6 1_555 1_555
C10_7 C9_7 1_555 1_555
H2_7 C10_7 1_555 1_555
C11_7 C10_7 1_555 1_555
H3_7 C11_7 1_555 1_555
Li1_4 O4_7 1_555 1_555
H9_6 C15_6 1_555 1_555
H11_6 C15_6 1_555 1_555
Co3_3 O2_3 1_555 1_555
O12_4 Li1_4 1_555 1_555
Li2_4 O6_4 1_555 1_555
O7_7 Li1_4 1_555 1_555
Co3_3 O1_8 1_555 1_555
S1_8 C5_8 1_555 1_555
S2_7 C3_8 1_555 1_555
O1_8 C2_8 1_555 1_555
O10_4 C8_7 1_555 1_555
O11_3 C1_8 1_555 1_555
O4_8 C4_8 1_555 1_555
C1_8 O8_8 1_555 1_555
O5_8 Co3_3 1_555 1_555
O7_8 C2_8 1_555 1_555
C2_8 C3_8 1_555 1_555
C3_8 C11_8 1_555 1_555
C4_8 O5_8 1_555 1_555
C5_8 C4_8 1_555 1_555
O9_8 Li2_4 1_555 1_555
C6_8 S1_8 1_555 1_555
C7_8 C5_8 1_555 1_555
H1_7 C7_8 1_555 1_555
C8_7 C9_8 1_555 1_555
C9_8 S2_7 1_555 1_555
C10_8 C9_8 1_555 1_555
H2_8 C10_8 1_555 1_555
N1_7 C13_7 1_555 1_555
C11_8 C10_8 1_555 1_555
H3_8 C11_8 1_555 1_555
C12_8 C6_8 1_555 1_555
H4_6 C12_8 1_555 1_555
Li2_4 O4_8 1_555 1_555
C13_7 O9_8 1_555 1_555
H5_7 C13_7 1_555 1_555
C14_7 N1_7 1_555 1_555
H6_7 C14_7 1_555 1_555
H7_7 C14_7 1_555 1_555
H8_7 C14_7 1_555 1_555
C15_7 N1_7 1_555 1_555
H9_7 C15_7 1_555 1_555
H10_7 C15_7 1_555 1_555
H11_7 C15_7 1_555 1_555
C1_8 C6_8 1_555 1_555
O7_8 Li2_4 1_555 1_555
C7_8 C12_8 1_555 1_555
N1_8 C13_8 1_555 1_555
H5_8 C13_8 1_555 1_555
C14_8 N1_8 1_555 1_555
H6_8 C14_8 1_555 1_555
H7_8 C14_8 1_555 1_555
H8_8 C14_8 1_555 1_555
O2_4 C8_8 1_555 1_555
H9_8 C15_8 1_555 1_555
H11_8 C15_8 1_555 1_555

#END
