
###############################################################################
#
# This file contains modified crystal structure data generated from the
# MOF subset of the Cambridge Structural Database (CSD) v543 
# hosted by the Cambridge Crystallographic Data Centre (CCDC).
#
# This work is licensed under the Creative Commons
# Attribution-NonCommercial-ShareAlike 4.0 International License.
# To view a copy of this license, visit
# http://creativecommons.org/licenses/by-nc-sa/4.0/
# or send a letter to
# Creative Commons, PO Box 1866, Mountain View, CA 94042, USA.
#
# CIF created using the CSD Python API on 29 September 2022
# The structure has been converted into the P1 space group
# The structure has a 3D framework
# The original CSD entry NIPFUQ is in the monoclinic crystal system
# The framework has been calculated to contain at least 10.0% void space
# The void calculation uses a probe of radius 1.32A, grid spacing 0.4
#
###############################################################################

data_NIPFUQ
_chemical_formula_moiety         '(C84 H60 N8 O18 Zn3)n'
_symmetry_cell_setting           triclinic
_symmetry_space_group_name_H-M   'P 1'
_symmetry_Int_Tables_number      1
_space_group_name_Hall           'P 1'
loop_
_symmetry_equiv_pos_site_id
_symmetry_equiv_pos_as_xyz
1 x,y,z
_cell_length_a                   10.537(2)
_cell_length_b                   10.348(2)
_cell_length_c                   22.250(4)
_cell_angle_alpha                90
_cell_angle_beta                 93.133(2)
_cell_angle_gamma                90
_cell_volume                     2422.44
loop_
_atom_site_label
_atom_site_type_symbol
_atom_site_fract_x
_atom_site_fract_y
_atom_site_fract_z
H16 H 0.0630 0.6579 0.9283
H17 H 0.0271 0.4488 0.8989
C29 C 0.2193(3) 0.9476(4) 0.95748(16)
C30 C 0.3345(3) 0.8931(4) 0.92897(16)
C31 C 0.3291(4) 0.7709(4) 0.9028(2)
H23 H 0.2548 0.7225 0.9035
C32 C 0.4334(4) 0.7212(5) 0.8757(2)
H24 H 0.4299 0.6394 0.8583
C33 C 0.5416(3) 0.7936(5) 0.87459(16)
C34 C 0.5506(4) 0.9121(5) 0.90106(17)
H25 H 0.6259 0.9590 0.9009
C35 C 0.4460(3) 0.9618(4) 0.92831(16)
C36 C 0.6279(4) 0.7067(5) 0.78784(17)
C37 C 0.5445(4) 0.7703(4) 0.74834(18)
H27 H 0.4987 0.8409 0.7612
C38 C 0.5294(4) 0.7287(4) 0.68972(16)
H28 H 0.4735 0.7725 0.6631
C39 C 0.5955(4) 0.6231(3) 0.66945(16)
C40 C 0.6799(4) 0.5603(5) 0.70974(18)
H29 H 0.7261 0.4901 0.6966
C41 C 0.6964(4) 0.5996(5) 0.76835(19)
H30 H 0.7524 0.5559 0.7950
C42 C 0.5709(3) 0.5777(4) 0.60608(16)
O6 O 0.1232(3) 0.8770(3) 0.95816(14)
O8 O 0.6475(3) 0.7438(4) 0.84717(12)
O9 O 0.5075(3) 0.6513(3) 0.57108(12)
O10 O 0.6138(3) 0.4688(3) 0.59266(11)
Zn4 Zn 0.43552(3) 0.62352(4) 0.485425(16)
Zn7 Zn 0.56448(3) 0.37648(4) 0.514575(16)
C1 C 0.7807(3) 0.0524(4) 0.04252(16)
C2 C 0.6655(3) 0.1069(4) 0.07103(16)
C3 C 0.6709(4) 0.2291(4) 0.0972(2)
H1 H 0.7452 0.2775 0.0965
C4 C 0.5666(4) 0.2788(5) 0.1243(2)
H2 H 0.5701 0.3606 0.1417
C5 C 0.4584(3) 0.2064(5) 0.12541(16)
C6 C 0.4494(4) 0.0879(5) 0.09894(17)
H3 H 0.3741 0.0410 0.0991
C7 C 0.5540(3) 0.0382(4) 0.07169(16)
C8 C 0.3721(4) 0.2933(5) 0.21216(17)
C9 C 0.4555(4) 0.2297(4) 0.25166(18)
H5 H 0.5013 0.1591 0.2388
C10 C 0.4706(4) 0.2713(4) 0.31028(16)
H6 H 0.5265 0.2275 0.3369
C11 C 0.4045(4) 0.3769(3) 0.33055(16)
C12 C 0.3201(4) 0.4397(5) 0.29026(18)
H7 H 0.2739 0.5099 0.3034
C13 C 0.3036(4) 0.4004(5) 0.23165(19)
H8 H 0.2476 0.4441 0.2050
C14 C 0.4291(3) 0.4223(4) 0.39392(16)
H9 H 0.9370 0.3421 0.0717
H10 H 0.9729 0.5512 0.1011
O1 O 0.8768(3) 0.1230(3) 0.04184(14)
O3 O 0.3525(3) 0.2562(4) 0.15283(12)
O4 O 0.4925(3) 0.3487(3) 0.42892(12)
O5 O 0.3862(3) 0.5312(3) 0.40734(11)
C1_2 C 0.7193(3) 0.5524(4) 0.45748(16)
C2_2 C 0.8345(3) 0.6069(4) 0.42897(16)
C3_2 C 0.8291(4) 0.7291(4) 0.4028(2)
H1_2 H 0.7548 0.7775 0.4035
C4_2 C 0.9334(4) 0.7788(5) 0.3757(2)
H2_2 H 0.9299 0.8606 0.3583
C7_2 C 0.9460(3) 0.5382(4) 0.42831(16)
H4 H 0.9513 0.4572 0.4464
H5_2 H 0.9987 0.6591 0.2612
H6_2 H 0.9735 0.7275 0.1631
C15 C 0.4845(5) 0.8795(5) 0.4345(3)
H9_2 H 0.5630 0.8421 0.4283
C18 C 0.2553(4) 0.9897(4) 0.45215(18)
C19 C 0.2849(3) 0.8636(3) 0.46919(17)
H12 H 0.2236 0.8153 0.4876
N1 N 0.3960(3) 0.8088(3) 0.46049(14)
N2 N 0.0602(3) 0.9746(4) 0.4963(2)
O1_2 O 0.6232(3) 0.6230(3) 0.45816(14)
O2 O 0.7273(2) 0.4404(3) 0.47889(12)
C29_2 C 0.2807(3) 0.4476(4) 0.54252(16)
C30_2 C 0.1655(3) 0.3931(4) 0.57103(16)
C31_2 C 0.1709(4) 0.2709(4) 0.5972(2)
H23_2 H 0.2452 0.2225 0.5965
C32_2 C 0.0666(4) 0.2212(5) 0.6243(2)
H24_2 H 0.0701 0.1394 0.6417
C35_2 C 0.0540(3) 0.4618(4) 0.57169(16)
H26 H 0.0487 0.5428 0.5536
H27_2 H 0.0013 0.3409 0.7388
H28_2 H 0.0265 0.2725 0.8369
O6_2 O 0.3768(3) 0.3770(3) 0.54184(14)
O7 O 0.2727(2) 0.5596(3) 0.52111(12)
N5 N 0.6040(3) 0.1912(3) 0.53951(14)
C22 C 0.5155(5) 0.1205(5) 0.5655(3)
H16_2 H 0.4370 0.1579 0.5717
C25 C 0.7447(4) 0.0103(4) 0.54785(18)
C26 C 0.7151(3) 0.1364(3) 0.53081(17)
H19 H 0.7764 0.1847 0.5124
N4 N 0.9398(3) 0.0254(4) 0.5037(2)
Zn1 Zn 0.06448(3) 0.12352(4) 0.014575(16)
C15_2 C 0.0155(5) 0.3795(5) 0.0655(3)
C16 C 0.0363(5) 0.5045(5) 0.0834(3)
C17 C 0.1519(5) 0.5600(4) 0.0747(3)
H11 H 0.1679 0.6447 0.0869
C18_2 C 0.2447(4) 0.4897(4) 0.04785(18)
C19_2 C 0.2151(3) 0.3636(3) 0.03081(17)
H12_2 H 0.2764 0.3153 0.0124
C20 C 0.3709(4) 0.5434(4) 0.0368(2)
C21 C 0.4094(6) 0.6692(6) 0.0648(3)
H13 H 0.4952 0.6888 0.0555
H14 H 0.4042 0.6636 0.1077
H15 H 0.3538 0.7362 0.0493
N1_2 N 0.1040(3) 0.3088(3) 0.03951(14)
N2_2 N 0.4398(3) 0.4746(4) 0.0037(2)
O13 O 0.1138(3) 0.0312(3) 0.09266(11)
H4_2 H 0.5487 0.9572 0.0536
O2_2 O 0.7727(2) 0.9404(3) 0.02111(12)
H7_2 H 0.2261 0.0099 0.1966
C22_2 C 0.9845(5) 0.6205(5) 0.9345(3)
C23 C 0.9637(5) 0.4955(5) 0.9166(3)
C24 C 0.8481(5) 0.4400(4) 0.9253(3)
H18 H 0.8321 0.3553 0.9131
C25_2 C 0.7553(4) 0.5103(4) 0.95215(18)
C26_2 C 0.7849(3) 0.6364(3) 0.96919(17)
H19_2 H 0.7236 0.6847 0.9876
C27 C 0.6291(4) 0.4566(4) 0.9632(2)
C28 C 0.5906(6) 0.3308(6) 0.9352(3)
H20 H 0.5048 0.3112 0.9445
H21 H 0.5958 0.3364 0.8923
H22 H 0.6462 0.2638 0.9507
N3 N 0.8960(3) 0.6912(3) 0.96049(14)
N4_2 N 0.5602(3) 0.5254(4) 0.9963(2)
H26_2 H 0.4513 0.0428 0.9464
O7_2 O 0.2273(2) 0.0596(3) 0.97889(12)
Zn5 Zn 0.93552(3) 0.87648(4) 0.985425(16)
O14 O 0.8862(3) 0.9688(3) 0.90734(11)
H29_2 H 0.7739 0.9901 0.8034
O11 O 0.0075(3) 0.8487(3) 0.07108(12)
C5_2 C 0.0416(3) 0.7064(5) 0.37459(16)
C6_2 C 0.0506(4) 0.5879(5) 0.40106(17)
H3_2 H 0.1259 0.5410 0.4009
C8_2 C 0.1279(4) 0.7933(5) 0.28784(17)
C9_2 C 0.0445(4) 0.7297(4) 0.24834(18)
C10_2 C 0.0294(4) 0.7713(4) 0.18972(16)
C11_2 C 0.0955(4) 0.8769(3) 0.16945(16)
C12_2 C 0.1799(4) 0.9397(5) 0.20974(18)
C13_2 C 0.1964(4) 0.9004(5) 0.26835(19)
H8_2 H 0.2524 0.9441 0.2950
C14_2 C 0.0709(3) 0.9223(4) 0.10608(16)
O3_2 O 0.1475(3) 0.7562(4) 0.34717(12)
C16_2 C 0.4637(5) 0.0045(5) 0.4166(3)
H10_2 H 0.5271 0.0512 0.3989
C17_2 C 0.3481(5) 0.0600(4) 0.4253(3)
H11_2 H 0.3321 0.1447 0.4131
C20_2 C 0.1291(4) 0.0434(4) 0.4632(2)
C21_2 C 0.0906(6) 0.1692(6) 0.4352(3)
H13_2 H 0.0048 0.1888 0.4445
H14_2 H 0.0958 0.1636 0.3923
H15_2 H 0.1462 0.2362 0.4507
O12 O 0.9925(3) 0.1513(3) 0.92892(12)
C23_2 C 0.5363(5) 0.9955(5) 0.5834(3)
H17_2 H 0.4729 0.9488 0.6011
C24_2 C 0.6519(5) 0.9400(4) 0.5747(3)
H18_2 H 0.6679 0.8553 0.5869
C27_2 C 0.8709(4) 0.9566(4) 0.5368(2)
C28_2 C 0.9094(6) 0.8308(6) 0.5648(3)
H20_2 H 0.9952 0.8112 0.5555
H21_2 H 0.9042 0.8364 0.6077
H22_2 H 0.8538 0.7638 0.5493
C33_2 C 0.9584(3) 0.2936(5) 0.62541(16)
C34_2 C 0.9494(4) 0.4121(5) 0.59894(17)
H25_2 H 0.8741 0.4590 0.5991
C36_2 C 0.8721(4) 0.2067(5) 0.71216(17)
C37_2 C 0.9555(4) 0.2703(4) 0.75166(18)
C38_2 C 0.9706(4) 0.2287(4) 0.81028(16)
C39_2 C 0.9045(4) 0.1231(3) 0.83055(16)
C40_2 C 0.8201(4) 0.0603(5) 0.79026(18)
C41_2 C 0.8036(4) 0.0996(5) 0.73165(19)
H30_2 H 0.7476 0.0559 0.7050
C42_2 C 0.9291(3) 0.0777(4) 0.89392(16)
O8_2 O 0.8525(3) 0.2438(4) 0.65283(12)
loop_
_geom_bond_atom_site_label_1
_geom_bond_atom_site_label_2
_geom_bond_site_symmetry_1
_geom_bond_site_symmetry_2
C29 C30 1_555 1_555
C30 C31 1_555 1_555
C31 H23 1_555 1_555
C32 C31 1_555 1_555
H24 C32 1_555 1_555
C33 C32 1_555 1_555
C34 C33 1_555 1_555
H25 C34 1_555 1_555
C35 C30 1_555 1_555
C36 C37 1_555 1_555
C37 H27 1_555 1_555
C38 C37 1_555 1_555
H28 C38 1_555 1_555
C39 C38 1_555 1_555
C40 C39 1_555 1_555
H29 C40 1_555 1_555
C41 C36 1_555 1_555
H30 C41 1_555 1_555
C42 C39 1_555 1_555
O8 C33 1_555 1_555
O9 C42 1_555 1_555
O10 C42 1_555 1_555
Zn4 O9 1_555 1_555
Zn7 O10 1_555 1_555
C29 O6 1_555 1_555
C34 C35 1_555 1_555
C36 O8 1_555 1_555
C40 C41 1_555 1_555
C1 C2 1_555 1_555
C2 C3 1_555 1_555
C3 H1 1_555 1_555
C4 C3 1_555 1_555
H2 C4 1_555 1_555
C5 C4 1_555 1_555
C6 C5 1_555 1_555
H3 C6 1_555 1_555
C7 C2 1_555 1_555
C8 C9 1_555 1_555
C9 H5 1_555 1_555
C10 C9 1_555 1_555
H6 C10 1_555 1_555
C11 C10 1_555 1_555
C12 C11 1_555 1_555
H7 C12 1_555 1_555
C13 C8 1_555 1_555
H8 C13 1_555 1_555
C14 C11 1_555 1_555
O3 C5 1_555 1_555
O4 C14 1_555 1_555
O5 C14 1_555 1_555
Zn4 O5 1_555 1_555
Zn7 O4 1_555 1_555
C1 O1 1_555 1_555
C6 C7 1_555 1_555
C8 O3 1_555 1_555
C12 C13 1_555 1_555
Zn4 N1 1_555 1_555
C1_2 C2_2 1_555 1_555
C2_2 C3_2 1_555 1_555
C3_2 H1_2 1_555 1_555
C4_2 C3_2 1_555 1_555
H2_2 C4_2 1_555 1_555
C7_2 C2_2 1_555 1_555
H4 C7_2 1_555 1_555
C15 H9_2 1_555 1_555
C19 C18 1_555 1_555
H12 C19 1_555 1_555
N1 C15 1_555 1_555
O1_2 Zn4 1_555 1_555
O2 C1_2 1_555 1_555
Zn7 O2 1_555 1_555
C29_2 C30_2 1_555 1_555
C30_2 C31_2 1_555 1_555
C31_2 H23_2 1_555 1_555
C32_2 C31_2 1_555 1_555
H24_2 C32_2 1_555 1_555
C35_2 C30_2 1_555 1_555
H26 C35_2 1_555 1_555
O6_2 Zn7 1_555 1_555
O7 Zn4 1_555 1_555
N5 Zn7 1_555 1_555
C1_2 O1_2 1_555 1_555
C19 N1 1_555 1_555
C29_2 O6_2 1_555 1_555
C29_2 O7 1_555 1_555
C22 H16_2 1_555 1_555
C26 C25 1_555 1_555
H19 C26 1_555 1_555
N5 C22 1_555 1_555
C26 N5 1_555 1_555
Zn1 N1_2 1_555 1_555
C16 C15_2 1_555 1_555
C17 C16 1_555 1_555
H11 C17 1_555 1_555
C18_2 C17 1_555 1_555
C19_2 C18_2 1_555 1_555
H12_2 C19_2 1_555 1_555
C20 C18_2 1_555 1_555
C21 C20 1_555 1_555
H13 C21 1_555 1_555
H14 C21 1_555 1_555
H15 C21 1_555 1_555
N1_2 C15_2 1_555 1_555
N2_2 C20 1_555 1_555
O13 Zn1 1_555 1_555
C19_2 N1_2 1_555 1_555
C23 C22_2 1_555 1_555
C24 C23 1_555 1_555
H18 C24 1_555 1_555
C25_2 C24 1_555 1_555
C26_2 C25_2 1_555 1_555
H19_2 C26_2 1_555 1_555
C27 C25_2 1_555 1_555
C28 C27 1_555 1_555
H20 C28 1_555 1_555
H21 C28 1_555 1_555
H22 C28 1_555 1_555
N3 C22_2 1_555 1_555
Zn5 N3 1_555 1_555
C26_2 N3 1_555 1_555
C27 N4_2 1_555 1_555
O14 Zn5 1_555 1_555
C6_2 C5_2 1_555 1_555
H3_2 C6_2 1_555 1_555
C8_2 C9_2 1_555 1_555
C10_2 C9_2 1_555 1_555
C11_2 C10_2 1_555 1_555
C12_2 C11_2 1_555 1_555
C13_2 C8_2 1_555 1_555
H8_2 C13_2 1_555 1_555
C14_2 C11_2 1_555 1_555
O3_2 C5_2 1_555 1_555
O11 C14_2 1_555 1_555
C8_2 O3_2 1_555 1_555
C12_2 C13_2 1_555 1_555
H10_2 C16_2 1_555 1_555
C17_2 C16_2 1_555 1_555
H11_2 C17_2 1_555 1_555
C21_2 C20_2 1_555 1_555
H13_2 C21_2 1_555 1_555
H14_2 C21_2 1_555 1_555
H15_2 C21_2 1_555 1_555
H17_2 C23_2 1_555 1_555
C24_2 C23_2 1_555 1_555
H18_2 C24_2 1_555 1_555
C28_2 C27_2 1_555 1_555
H20_2 C28_2 1_555 1_555
H21_2 C28_2 1_555 1_555
H22_2 C28_2 1_555 1_555
C34_2 C33_2 1_555 1_555
H25_2 C34_2 1_555 1_555
C36_2 C37_2 1_555 1_555
C38_2 C37_2 1_555 1_555
C39_2 C38_2 1_555 1_555
C40_2 C39_2 1_555 1_555
C41_2 C36_2 1_555 1_555
H30_2 C41_2 1_555 1_555
C42_2 C39_2 1_555 1_555
O8_2 C33_2 1_555 1_555
O12 C42_2 1_555 1_555
C36_2 O8_2 1_555 1_555
C40_2 C41_2 1_555 1_555

#END
