
###############################################################################
#
# This file contains modified crystal structure data generated from the
# MOF subset of the Cambridge Structural Database (CSD) v543 
# hosted by the Cambridge Crystallographic Data Centre (CCDC).
#
# This work is licensed under the Creative Commons
# Attribution-NonCommercial-ShareAlike 4.0 International License.
# To view a copy of this license, visit
# http://creativecommons.org/licenses/by-nc-sa/4.0/
# or send a letter to
# Creative Commons, PO Box 1866, Mountain View, CA 94042, USA.
#
# CIF created using the CSD Python API on 29 September 2022
# The structure has been converted into the P1 space group
# The structure has a 3D framework
# The original CSD entry NIQDEZ is in the triclinic crystal system
# The framework has been calculated to contain at least 10.0% void space
# The void calculation uses a probe of radius 1.32A, grid spacing 0.4
# The framework is charged, counterions have been retained in the structure
#
###############################################################################

data_NIQDEZ
_chemical_formula_moiety         '(C48 H44 Cl2 Dy2 N10 O19 1+)n'
_symmetry_cell_setting           triclinic
_symmetry_space_group_name_H-M   'P 1'
_symmetry_Int_Tables_number      1
_space_group_name_Hall           'P 1'
loop_
_symmetry_equiv_pos_site_id
_symmetry_equiv_pos_as_xyz
1 x,y,z
_cell_length_a                   11.8598(6)
_cell_length_b                   12.0997(7)
_cell_length_c                   13.4297(7)
_cell_angle_alpha                102.794(5)
_cell_angle_beta                 98.239(4)
_cell_angle_gamma                117.449(5)
_cell_volume                     1599.3
loop_
_atom_site_label
_atom_site_type_symbol
_atom_site_fract_x
_atom_site_fract_y
_atom_site_fract_z
N1 N 0.0009(4) 0.2915(4) 0.5114(4)
C2 C 0.0473(5) 0.2764(6) 0.6010(5)
H4 H 0.0785 0.3434 0.6655
C12 C 0.0496(5) 0.1645(5) 0.5994(5)
H13 H 0.0832 0.1558 0.6623
C13 C 0.0007(6) 0.0617(6) 0.5017(5)
Dy7 Dy 0.19973(3) 0.58711(3) 0.50067(2)
O15 O 0.0003(4) 0.5972(4) 0.4850(3)
C25 C 0.0436(5) 0.8022(5) 0.5846(5)
H23 H 0.0731 0.7888 0.6463
C27 C 0.0445(5) 0.9179(5) 0.5896(5)
H25 H 0.0760 0.9831 0.6552
Dy1 Dy 0.80027(3) 0.41289(3) 0.49933(2)
O1 O 0.8630(4) 0.5642(4) 0.6530(4)
O2 O 0.9997(4) 0.4028(4) 0.5150(3)
O3 O 0.7159(4) 0.1873(4) 0.4358(3)
O4 O 0.7191(4) 0.5498(4) 0.4509(3)
H1 H 0.683(5) 0.535(4) 0.3855(9)
O5 O 0.7734(4) 0.3773(4) 0.3186(3)
N3 N 0.6976(5) 0.2731(5) 0.2316(4)
N4 N 0.7904(5) 0.3054(5) 0.6391(4)
N5 N 0.7361(5) 0.1682(5) 0.6040(4)
H2 H 0.7278 0.1216 0.6454
C1 C 0.9564(5) 0.1978(5) 0.4154(5)
H3 H 0.9269 0.2112 0.3537
C3 C 0.6997(5) 0.1207(6) 0.4993(5)
C4 C 0.9555(5) 0.0821(5) 0.4104(5)
H5 H 0.9240 0.0169 0.3448
C5 C 0.8892(6) 0.5893(6) 0.7545(5)
C7 C 0.6920(6) 0.6390(6) 0.5184(5)
H7 H 0.7212 0.7174 0.4990
H8 H 0.7382 0.6616 0.5913
H9 H 0.5984 0.5976 0.5102
C8 C 0.5721(6) 0.1849(6) 0.2260(5)
H10 H 0.5387 0.1968 0.2835
C9 C 0.8226(6) 0.3554(6) 0.7418(5)
H11 H 0.8129 0.2983 0.7805
C11 C 0.5408(6) 0.0575(6) 0.0490(5)
C15 C 0.4938(6) 0.0777(7) 0.1357(5)
H14 H 0.4077 0.0176 0.1327
C16 C 0.9364(6) 0.7192(6) 0.8230(5)
H15 H 0.9472 0.7846 0.7932
C17 C 0.8727(6) 0.4927(7) 0.8025(5)
C20 C 0.9662(7) 0.7500(7) 0.9306(6)
H18 H 0.9956 0.8353 0.9732
C21 C 0.7472(7) 0.2571(7) 0.1497(6)
H19 H 0.8341 0.3178 0.1549
C22 C 0.6709(6) 0.1520(7) 0.0584(6)
H20 H 0.7061 0.1432 0.0015
C23 C 0.9530(8) 0.6555(8) 0.9770(6)
C24 C 0.9025(8) 0.5272(8) 0.9137(6)
H22 H 0.8881 0.4625 0.9453
O17 O 0.5715(4) 0.3179(4) 0.4873(3)
N8 N 0.5084(5) 0.2402(5) 0.5406(4)
C37 C 0.4333(5) 0.1077(5) 0.4920(5)
H33 H 0.4221 0.0716 0.4201
C40 C 0.5209(6) 0.2949(6) 0.6443(5)
H38 H 0.5695 0.3861 0.6755
C41 C 0.3734(5) 0.0263(6) 0.5495(5)
C44 C 0.3900(6) 0.0826(6) 0.6572(5)
H40 H 0.3522 0.0292 0.6973
C45 C 0.4626(6) 0.2174(6) 0.7037(5)
H41 H 0.4721 0.2558 0.7748
O6 O 0.4285(4) 0.6821(4) 0.5127(3)
N2 N 0.4916(5) 0.7598(5) 0.4594(4)
C6 C 0.5667(5) 0.8923(5) 0.5080(5)
H6 H 0.5779 0.9284 0.5799
C10 C 0.4791(6) 0.7051(6) 0.3557(5)
H12 H 0.4305 0.6139 0.3245
C14 C 0.6266(5) 0.9737(6) 0.4505(5)
C18 C 0.6100(6) 0.9174(6) 0.3428(5)
H16 H 0.6478 0.9708 0.3027
C19 C 0.5374(6) 0.7826(6) 0.2963(5)
H17 H 0.5279 0.7442 0.2252
N6 N 0.9991(4) 0.7085(4) 0.4886(4)
C26 C 0.9527(5) 0.7236(6) 0.3990(5)
H24 H 0.9215 0.6566 0.3345
C28 C 0.9504(5) 0.8355(5) 0.4006(5)
H26 H 0.9168 0.8442 0.3377
C29 C 0.9993(6) 0.9383(6) 0.4983(5)
O8 O 0.2266(4) 0.6227(4) 0.6814(3)
N7 N 0.3024(5) 0.7269(5) 0.7684(4)
C30 C 0.4279(6) 0.8151(6) 0.7740(5)
H27 H 0.4613 0.8032 0.7165
C31 C 0.4592(6) 0.9425(6) 0.9510(5)
C32 C 0.5062(6) 0.9223(7) 0.8643(5)
H28 H 0.5923 0.9824 0.8673
C33 C 0.2528(7) 0.7429(7) 0.8503(6)
H29 H 0.1659 0.6822 0.8451
C34 C 0.3291(6) 0.8480(7) 0.9416(6)
H30 H 0.2939 0.8568 0.9985
O9 O 0.1370(4) 0.4358(4) 0.3470(4)
O10 O 0.2841(4) 0.8127(4) 0.5642(3)
O11 O 0.2809(4) 0.4502(4) 0.5491(3)
H31 H 0.317(5) 0.465(4) 0.6145(9)
N9 N 0.2096(5) 0.6946(5) 0.3609(4)
N10 N 0.2639(5) 0.8318(5) 0.3960(4)
H32 H 0.2722 0.8784 0.3546
C35 C 0.3003(5) 0.8793(6) 0.5007(5)
C36 C 0.1108(6) 0.4107(6) 0.2455(5)
C38 C 0.3080(6) 0.3610(6) 0.4816(5)
H34 H 0.2788 0.2826 0.5010
H35 H 0.2618 0.3384 0.4087
H36 H 0.4016 0.4024 0.4898
C39 C 0.1774(6) 0.6446(6) 0.2582(5)
H37 H 0.1871 0.7017 0.2195
C42 C 0.0636(6) 0.2808(6) 0.1770(5)
H39 H 0.0528 0.2154 0.2068
C43 C 0.1273(6) 0.5073(7) 0.1975(5)
C46 C 0.0338(7) 0.2500(7) 0.0694(6)
H42 H 0.0044 0.1647 0.0268
C47 C 0.0470(8) 0.3445(8) 0.0230(6)
C48 C 0.0975(8) 0.4728(8) 0.0863(6)
H44 H 0.1119 0.5375 0.0547
H21 H 0.9781 0.6781 0.0507
H43 H 0.0219 0.3219 0.9493
O19 O 0.7912(5) 0.0186(5) 0.1790(4)
Cl1 Cl 0.75707(17) 0.89467(17) 0.10349(14)
O18 O 0.8195(5) 0.8356(5) 0.1550(4)
O20 O 0.8012(5) 0.9158(5) 0.0129(4)
O21 O 0.6163(5) 0.8079(5) 0.0717(4)
Cl1_2 Cl 0.24293(17) 0.10533(17) 0.89651(14)
O18_2 O 0.1805(5) 0.1644(5) 0.8450(4)
O20_2 O 0.1988(5) 0.0842(5) 0.9871(4)
O21_2 O 0.3837(5) 0.1921(5) 0.9283(4)
O19_2 O 0.2088(5) 0.9814(5) 0.8210(4)
loop_
_geom_bond_atom_site_label_1
_geom_bond_atom_site_label_2
_geom_bond_site_symmetry_1
_geom_bond_site_symmetry_2
C2 N1 1_555 1_555
H4 C2 1_555 1_555
C12 C2 1_555 1_555
H13 C12 1_555 1_555
C12 C13 1_555 1_555
Dy7 O15 1_555 1_555
C25 H23 1_555 1_555
C27 C25 1_555 1_555
H25 C27 1_555 1_555
Dy1 O1 1_555 1_555
O1 C5 1_555 1_555
O2 Dy1 1_555 1_555
O3 Dy1 1_555 1_555
O4 Dy1 1_555 1_555
H1 O4 1_555 1_555
O5 Dy1 1_555 1_555
N3 O5 1_555 1_555
N4 Dy1 1_555 1_555
N5 N4 1_555 1_555
H2 N5 1_555 1_555
H3 C1 1_555 1_555
C3 O3 1_555 1_555
C4 C1 1_555 1_555
H5 C4 1_555 1_555
C5 C16 1_555 1_555
C7 O4 1_555 1_555
H7 C7 1_555 1_555
H8 C7 1_555 1_555
H9 C7 1_555 1_555
C8 N3 1_555 1_555
H10 C8 1_555 1_555
C9 N4 1_555 1_555
H11 C9 1_555 1_555
C11 C15 1_555 1_555
C15 C8 1_555 1_555
H14 C15 1_555 1_555
C16 H15 1_555 1_555
C17 C5 1_555 1_555
C20 C16 1_555 1_555
H18 C20 1_555 1_555
C21 N3 1_555 1_555
H19 C21 1_555 1_555
C22 C11 1_555 1_555
H20 C22 1_555 1_555
C23 C20 1_555 1_555
C24 C17 1_555 1_555
H22 C24 1_555 1_555
O17 Dy1 1_555 1_555
N5 C3 1_555 1_555
C9 C17 1_555 1_555
C21 C22 1_555 1_555
C23 C24 1_555 1_555
O17 N8 1_555 1_555
N8 C37 1_555 1_555
C37 H33 1_555 1_555
C40 N8 1_555 1_555
H38 C40 1_555 1_555
C44 C41 1_555 1_555
H40 C44 1_555 1_555
C45 C40 1_555 1_555
H41 C45 1_555 1_555
C37 C41 1_555 1_555
C44 C45 1_555 1_555
O6 N2 1_555 1_555
N2 C6 1_555 1_555
C6 H6 1_555 1_555
C10 N2 1_555 1_555
H12 C10 1_555 1_555
C18 C14 1_555 1_555
H16 C18 1_555 1_555
C19 C10 1_555 1_555
H17 C19 1_555 1_555
C26 N6 1_555 1_555
H24 C26 1_555 1_555
C28 C26 1_555 1_555
H26 C28 1_555 1_555
Dy7 O6 1_555 1_555
C6 C14 1_555 1_555
C18 C19 1_555 1_555
C28 C29 1_555 1_555
O8 N7 1_555 1_555
N7 C30 1_555 1_555
C30 H27 1_555 1_555
C32 C30 1_555 1_555
H28 C32 1_555 1_555
C33 N7 1_555 1_555
H29 C33 1_555 1_555
C34 C31 1_555 1_555
H30 C34 1_555 1_555
Dy7 O8 1_555 1_555
O9 Dy7 1_555 1_555
O10 Dy7 1_555 1_555
O11 Dy7 1_555 1_555
H31 O11 1_555 1_555
N9 Dy7 1_555 1_555
N10 N9 1_555 1_555
H32 N10 1_555 1_555
C35 O10 1_555 1_555
C36 O9 1_555 1_555
C38 O11 1_555 1_555
H34 C38 1_555 1_555
H35 C38 1_555 1_555
H36 C38 1_555 1_555
C39 N9 1_555 1_555
H37 C39 1_555 1_555
C42 C36 1_555 1_555
H39 C42 1_555 1_555
C43 C36 1_555 1_555
C46 C42 1_555 1_555
H42 C46 1_555 1_555
C47 C46 1_555 1_555
C48 C43 1_555 1_555
H44 C48 1_555 1_555
C31 C32 1_555 1_555
C33 C34 1_555 1_555
N10 C35 1_555 1_555
C39 C43 1_555 1_555
C47 C48 1_555 1_555
Cl1 O18 1_555 1_555
O20 Cl1 1_555 1_555
O21 Cl1 1_555 1_555
Cl1_2 O18_2 1_555 1_555
O20_2 Cl1_2 1_555 1_555
O21_2 Cl1_2 1_555 1_555

#END
