
###############################################################################
#
# This file contains modified crystal structure data generated from the
# MOF subset of the Cambridge Structural Database (CSD) v543 
# hosted by the Cambridge Crystallographic Data Centre (CCDC).
#
# This work is licensed under the Creative Commons
# Attribution-NonCommercial-ShareAlike 4.0 International License.
# To view a copy of this license, visit
# http://creativecommons.org/licenses/by-nc-sa/4.0/
# or send a letter to
# Creative Commons, PO Box 1866, Mountain View, CA 94042, USA.
#
# CIF created using the CSD Python API on 29 September 2022
# The structure has been converted into the P1 space group
# The structure has a 3D framework
# The original CSD entry NIQGUS is in the triclinic crystal system
# The framework has been calculated to contain at least 10.0% void space
# The void calculation uses a probe of radius 1.32A, grid spacing 0.4
# The framework is charged, counterions have been retained in the structure
#
###############################################################################

data_NIQGUS
_chemical_formula_moiety         '(C48 H42 Dy2 N10 O10 4+)n'
_symmetry_cell_setting           triclinic
_symmetry_space_group_name_H-M   'P 1'
_symmetry_Int_Tables_number      1
_space_group_name_Hall           'P 1'
loop_
_symmetry_equiv_pos_site_id
_symmetry_equiv_pos_as_xyz
1 x,y,z
_cell_length_a                   11.0697(15)
_cell_length_b                   11.7807(16)
_cell_length_c                   12.2202(17)
_cell_angle_alpha                62.152(14)
_cell_angle_beta                 71.245(12)
_cell_angle_gamma                81.049(11)
_cell_volume                     1334.22
loop_
_atom_site_label
_atom_site_type_symbol
_atom_site_fract_x
_atom_site_fract_y
_atom_site_fract_z
_atom_site_U_iso_or_equiv
_atom_site_thermal_displace_type
O8 O 0.3114(11) 0.2888(13) 0.6084(11) 0.0949 Uani
N7 N 0.2217(12) 0.2093(13) 0.7192(11) 0.0934 Uani
C30 C 0.1235(16) 0.2617(12) 0.7867(16) 0.1557 Uani
H26 H 0.1171 0.3502 0.7573 0.1870 Uiso
C31 C 0.0349(15) 0.1818(16) 0.8980(16) 0.1334 Uani
C32 C 0.0445(14) 0.0495(15) 0.9419(13) 0.1224 Uani
C34 C 0.2313(12) 0.0770(14) 0.7631(15) 0.1244 Uani
H29 H 0.2969 0.0420 0.7179 0.1490 Uiso
Dy7 Dy 0.52369(6) 0.30118(7) 0.58891(5) 0.0571 Uani
H5 H 0.0308 0.7832 0.0568 0.1600 Uiso
O3 O 0.5497(12) 0.0783(11) 0.6672(8) 0.0803 Uani
H16 H 0.7749 0.0002 0.6283 0.1200 Uiso
H27 H 0.9692 0.2168 0.9432 0.1600 Uiso
Dy1 Dy 0.47631(6) 0.69882(7) 0.41109(5) 0.0571 Uani
O1 O 0.5858(8) 0.7585(8) 0.1947(7) 0.0595 Uani
O2 O 0.4911(9) 0.4965(9) 0.4009(7) 0.0653 Uani
N1 N 0.4938(11) 0.4924(10) 0.2908(9) 0.0610 Uani
N2 N 0.3386(11) 0.7573(13) 0.2662(11) 0.0718 Uani
N3 N 0.4020(12) 0.7995(12) 0.1331(10) 0.0691 Uani
C1 C 0.6057(15) 0.5040(13) 0.2015(12) 0.0690 Uani
H1 H 0.6802 0.5126 0.2164 0.0830 Uiso
C2 C 0.5251(13) 0.7987(11) 0.1105(11) 0.0582 Uani
O4 O 0.6886(11) 0.7112(13) 0.3916(11) 0.0949 Uani
C4 C 0.6112(16) 0.5034(14) 0.0905(14) 0.0704 Uani
H3 H 0.6896 0.5070 0.0306 0.0840 Uiso
N4 N 0.7783(12) 0.7907(13) 0.2808(11) 0.0934 Uani
C5 C 0.8765(16) 0.7383(12) 0.2133(16) 0.1557 Uani
H4 H 0.8829 0.6498 0.2427 0.1870 Uiso
C6 C 0.9651(15) 0.8182(16) 0.1020(16) 0.1334 Uani
C7 C 0.9555(14) 0.9505(15) 0.0581(13) 0.1224 Uani
C9 C 0.7687(12) 0.9230(14) 0.2369(15) 0.1244 Uani
H7 H 0.7031 0.9580 0.2821 0.1490 Uiso
C10 C 0.4945(15) 0.8552(13) 0.5897(13) 0.0649 Uani
H8 H 0.5646 0.9100 0.5261 0.0970 Uiso
H9 H 0.5068 0.8216 0.6737 0.0970 Uiso
H10 H 0.4164 0.9038 0.5881 0.0970 Uiso
C11 C 0.4959(15) 0.4970(13) 0.0648(12) 0.0675 Uani
C13 C 0.3887(16) 0.4759(18) 0.2720(13) 0.0808 Uani
H12 H 0.3132 0.4600 0.3386 0.0970 Uiso
C15 C 0.3855(15) 0.4809(17) 0.1603(12) 0.0787 Uani
H13 H 0.3084 0.4735 0.1489 0.0940 Uiso
O5 O 0.4892(17) 0.7688(16) 0.5664(13) 0.1152 Uani
H14 H 0.5291 0.7000 0.6023 0.1380 Uiso
O6 O 0.2820(15) 0.6657(19) 0.5307(15) 0.1321 Uani
C16 C 0.2144(16) 0.768(2) 0.2919(18) 0.0960 Uani
H15 H 0.1805 0.8004 0.2224 0.1150 Uiso
C18 C 0.1272(16) 0.7350(18) 0.4150(18) 0.0875 Uani
C20 C 0.161(2) 0.678(2) 0.528(2) 0.1058 Uani
C21 C 0.0642(19) 0.654(2) 0.638(2) 0.1025 Uani
H18 H 0.0829 0.6112 0.7166 0.1230 Uiso
C24 C 0.001(3) 0.768(3) 0.417(3) 0.1289 Uani
C36 C 0.2734(16) 0.1665(16) 0.0683(13) 0.0741 Uani
H30 H 0.2319 0.2209 0.0069 0.0890 Uiso
C38 C 0.4605(15) 0.0636(11) 0.1190(11) 0.0590 Uani
H34 H 0.5479 0.0492 0.0935 0.0710 Uiso
N10 N 0.3903(13) 0.0049(12) 0.2446(9) 0.0696 Uani
C39 C 0.3958(15) 0.1461(12) 0.0303(11) 0.0620 Uani
C41 C 0.2672(19) 0.033(2) 0.2838(14) 0.1003 Uani
C43 C 0.203(2) 0.109(2) 0.1979(15) 0.1070 Uani
H38 H 0.1158 0.1229 0.2238 0.1280 Uiso
O14 O 0.5089(9) 0.5035(9) 0.5991(7) 0.0653 Uani
O16 O 0.4503(12) 0.9217(11) 0.3328(8) 0.0803 Uani
C3 C 0.7266(16) 0.8335(16) 0.9317(13) 0.0741 Uani
H2 H 0.7681 0.7791 0.9931 0.0890 Uiso
C12 C 0.5395(15) 0.9364(11) 0.8810(11) 0.0590 Uani
H11 H 0.4521 0.9508 0.9065 0.0710 Uiso
N5 N 0.6097(13) 0.9951(12) 0.7554(9) 0.0696 Uani
C14 C 0.6042(15) 0.8539(12) 0.9697(11) 0.0620 Uani
C17 C 0.7328(19) 0.967(2) 0.7162(14) 0.1003 Uani
C19 C 0.797(2) 0.891(2) 0.8021(15) 0.1070 Uani
H17 H 0.8842 0.8771 0.7762 0.1280 Uiso
N6 N 0.5062(11) 0.5076(10) 0.7092(9) 0.0610 Uani
C25 C 0.3943(15) 0.4960(13) 0.7985(12) 0.0690 Uani
H22 H 0.3198 0.4874 0.7836 0.0830 Uiso
C26 C 0.3888(16) 0.4966(14) 0.9095(14) 0.0704 Uani
H23 H 0.3104 0.4930 0.9694 0.0840 Uiso
C27 C 0.5041(15) 0.5030(13) 0.9352(12) 0.0675 Uani
C28 C 0.6113(16) 0.5241(18) 0.7280(13) 0.0808 Uani
H24 H 0.6868 0.5400 0.6614 0.0970 Uiso
C29 C 0.6145(15) 0.5191(17) 0.8397(12) 0.0787 Uani
H25 H 0.6916 0.5265 0.8511 0.0940 Uiso
O9 O 0.4142(8) 0.2415(8) 0.8053(7) 0.0595 Uani
N8 N 0.6614(11) 0.2427(13) 0.7338(11) 0.0718 Uani
N9 N 0.5980(12) 0.2005(12) 0.8669(10) 0.0691 Uani
C35 C 0.4749(13) 0.2013(11) 0.8895(11) 0.0582 Uani
C37 C 0.5055(15) 0.1448(13) 0.4103(13) 0.0649 Uani
H31 H 0.4354 0.0900 0.4739 0.0970 Uiso
H32 H 0.4932 0.1784 0.3263 0.0970 Uiso
H33 H 0.5836 0.0962 0.4119 0.0970 Uiso
O11 O 0.5108(17) 0.2312(16) 0.4336(13) 0.1152 Uani
H35 H 0.4709 0.3000 0.3977 0.1380 Uiso
O12 O 0.7180(15) 0.3343(19) 0.4693(15) 0.1321 Uani
C40 C 0.7856(16) 0.232(2) 0.7081(18) 0.0960 Uani
H36 H 0.8195 0.1996 0.7776 0.1150 Uiso
C42 C 0.8728(16) 0.2650(18) 0.5850(18) 0.0875 Uani
C44 C 0.839(2) 0.322(2) 0.472(2) 0.1058 Uani
C45 C 0.9358(19) 0.346(2) 0.362(2) 0.1025 Uani
H39 H 0.9171 0.3888 0.2834 0.1230 Uiso
C48 C 0.999(3) 0.232(3) 0.583(3) 0.1289 Uani
H37 H 0.2251 0.9998 0.3717 0.1200 Uiso
C33 C 0.1427(15) 0.9971(11) 0.8744(16) 0.1170 Uani
H28 H 0.1491 0.9086 0.9038 0.1410 Uiso
C46 C 0.058(3) 0.312(3) 0.362(3) 0.1219 Uani
H40 H 0.1196 0.3223 0.2851 0.1460 Uiso
C47 C 0.090(3) 0.260(3) 0.476(3) 0.1352 Uani
H41 H 0.1749 0.2457 0.4760 0.1620 Uiso
H42 H 0.0192 0.1884 0.6610 0.1550 Uiso
C8 C 0.8573(15) 0.0029(11) 0.1256(16) 0.1170 Uani
H6 H 0.8509 0.0914 0.0962 0.1410 Uiso
C22 C 0.942(3) 0.688(3) 0.638(3) 0.1219 Uani
H19 H 0.8804 0.6777 0.7149 0.1460 Uiso
C23 C 0.910(3) 0.740(3) 0.524(3) 0.1352 Uani
H20 H 0.8251 0.7543 0.5240 0.1620 Uiso
H21 H 0.9808 0.8116 0.3390 0.1550 Uiso
loop_
_atom_site_aniso_label
_atom_site_aniso_U_11
_atom_site_aniso_U_22
_atom_site_aniso_U_33
_atom_site_aniso_U_23
_atom_site_aniso_U_13
_atom_site_aniso_U_12
O8 0.081 0.12 0.063 -0.007 -0.037 -0.023
N7 0.09 0.121 0.077 -0.043 -0.033 -0.006
C30 0.152 0.156 0.147 -0.055 -0.039 -0.018
C31 0.137 0.133 0.136 -0.065 -0.029 -0.021
C32 0.136 0.131 0.118 -0.06 -0.052 0
C34 0.106 0.137 0.109 -0.031 -0.039 -0.006
Dy7 0.0592 0.069 0.0242 0.0001 -0.0185 -0.005
O3 0.109 0.091 0.026 -0.011 -0.032 0.016
Dy1 0.0592 0.069 0.0242 0.0001 -0.0185 -0.005
O1 0.07 0.063 0.024 0.006 -0.022 -0.009
O2 0.093 0.071 0.026 0.003 -0.038 -0.022
N1 0.077 0.066 0.03 0.002 -0.032 -0.016
N2 0.065 0.091 0.042 -0.004 -0.032 -0.004
N3 0.081 0.083 0.032 -0.007 -0.029 -0.005
C1 0.091 0.063 0.043 0.007 -0.044 -0.023
C2 0.087 0.047 0.027 0 -0.023 -0.005
O4 0.081 0.12 0.063 -0.007 -0.037 -0.023
C4 0.086 0.073 0.053 -0.012 -0.041 -0.011
N4 0.09 0.121 0.077 -0.043 -0.033 -0.006
C5 0.152 0.156 0.147 -0.055 -0.039 -0.018
C6 0.137 0.133 0.136 -0.065 -0.029 -0.021
C7 0.136 0.131 0.118 -0.06 -0.052 0
C9 0.106 0.137 0.109 -0.031 -0.039 -0.006
C10 0.093 0.053 0.041 -0.006 -0.034 0.002
C11 0.095 0.066 0.047 -0.005 -0.049 -0.021
C13 0.085 0.116 0.034 -0.011 -0.023 -0.043
C15 0.089 0.107 0.035 -0.014 -0.019 -0.043
O5 0.168 0.12 0.067 -0.04 -0.057 0.019
O6 0.095 0.164 0.09 -0.007 -0.046 0.002
C16 0.074 0.129 0.078 -0.022 -0.044 -0.015
C18 0.07 0.097 0.079 -0.022 -0.026 -0.004
C20 0.083 0.11 0.095 -0.021 -0.027 -0.001
C21 0.084 0.115 0.096 -0.036 -0.027 -0.001
C24 0.109 0.145 0.127 -0.051 -0.042 0
C36 0.089 0.079 0.034 -0.011 -0.021 0.014
C38 0.096 0.048 0.027 -0.012 -0.017 -0.001
N10 0.098 0.081 0.029 -0.02 -0.028 0.008
C39 0.099 0.05 0.026 -0.004 -0.022 -0.005
C41 0.107 0.124 0.028 -0.007 -0.015 0.013
C43 0.11 0.105 0.038 0.005 -0.005 0.024
O14 0.093 0.071 0.026 0.003 -0.038 -0.022
O16 0.109 0.091 0.026 -0.011 -0.032 0.016
C3 0.089 0.079 0.034 -0.011 -0.021 0.014
C12 0.096 0.048 0.027 -0.012 -0.017 -0.001
N5 0.098 0.081 0.029 -0.02 -0.028 0.008
C14 0.099 0.05 0.026 -0.004 -0.022 -0.005
C17 0.107 0.124 0.028 -0.007 -0.015 0.013
C19 0.11 0.105 0.038 0.005 -0.005 0.024
N6 0.077 0.066 0.03 0.002 -0.032 -0.016
C25 0.091 0.063 0.043 0.007 -0.044 -0.023
C26 0.086 0.073 0.053 -0.012 -0.041 -0.011
C27 0.095 0.066 0.047 -0.005 -0.049 -0.021
C28 0.085 0.116 0.034 -0.011 -0.023 -0.043
C29 0.089 0.107 0.035 -0.014 -0.019 -0.043
O9 0.07 0.063 0.024 0.006 -0.022 -0.009
N8 0.065 0.091 0.042 -0.004 -0.032 -0.004
N9 0.081 0.083 0.032 -0.007 -0.029 -0.005
C35 0.087 0.047 0.027 0 -0.023 -0.005
C37 0.093 0.053 0.041 -0.006 -0.034 0.002
O11 0.168 0.12 0.067 -0.04 -0.057 0.019
O12 0.095 0.164 0.09 -0.007 -0.046 0.002
C40 0.074 0.129 0.078 -0.022 -0.044 -0.015
C42 0.07 0.097 0.079 -0.022 -0.026 -0.004
C44 0.083 0.11 0.095 -0.021 -0.027 -0.001
C45 0.084 0.115 0.096 -0.036 -0.027 -0.001
C48 0.109 0.145 0.127 -0.051 -0.042 0
C33 0.099 0.123 0.116 -0.037 -0.039 -0.002
C46 0.112 0.125 0.114 -0.044 -0.029 0.001
C47 0.114 0.14 0.131 -0.047 -0.036 0.012
C8 0.099 0.123 0.116 -0.037 -0.039 -0.002
C22 0.112 0.125 0.114 -0.044 -0.029 0.001
C23 0.114 0.14 0.131 -0.047 -0.036 0.012
loop_
_geom_bond_atom_site_label_1
_geom_bond_atom_site_label_2
_geom_bond_site_symmetry_1
_geom_bond_site_symmetry_2
O8 N7 1_555 1_555
N7 C30 1_555 1_555
C30 H26 1_555 1_555
C31 C30 1_555 1_555
C34 N7 1_555 1_555
H29 C34 1_555 1_555
Dy7 O8 1_555 1_555
C31 C32 1_555 1_555
Dy7 O3 1_555 1_555
Dy1 O1 1_555 1_555
O1 C2 1_555 1_555
O2 Dy1 1_555 1_555
N1 O2 1_555 1_555
N2 Dy1 1_555 1_555
N3 N2 1_555 1_555
C1 N1 1_555 1_555
H1 C1 1_555 1_555
C2 N3 1_555 1_555
O4 Dy1 1_555 1_555
C4 C1 1_555 1_555
H3 C4 1_555 1_555
N4 O4 1_555 1_555
C5 N4 1_555 1_555
H4 C5 1_555 1_555
C6 C5 1_555 1_555
C7 C6 1_555 1_555
C9 N4 1_555 1_555
H7 C9 1_555 1_555
C10 H8 1_555 1_555
H9 C10 1_555 1_555
H10 C10 1_555 1_555
C11 C4 1_555 1_555
C13 N1 1_555 1_555
H12 C13 1_555 1_555
C15 C11 1_555 1_555
H13 C15 1_555 1_555
O5 Dy1 1_555 1_555
H14 O5 1_555 1_555
O6 Dy1 1_555 1_555
C16 N2 1_555 1_555
H15 C16 1_555 1_555
C18 C16 1_555 1_555
C20 O6 1_555 1_555
C21 C20 1_555 1_555
H18 C21 1_555 1_555
C24 C18 1_555 1_555
C36 H30 1_555 1_555
C38 H34 1_555 1_555
N10 C38 1_555 1_555
C41 N10 1_555 1_555
C43 C36 1_555 1_555
H38 C43 1_555 1_555
Dy7 O2 1_555 1_555
O14 Dy1 1_555 1_555
O16 Dy1 1_555 1_555
C10 O5 1_555 1_555
C13 C15 1_555 1_555
C18 C20 1_555 1_555
C36 C39 1_555 1_555
C38 C39 1_555 1_555
C41 C43 1_555 1_555
Dy7 O14 1_555 1_555
C3 H2 1_555 1_555
C12 H11 1_555 1_555
N5 C12 1_555 1_555
C17 N5 1_555 1_555
C19 C3 1_555 1_555
H17 C19 1_555 1_555
O14 N6 1_555 1_555
N6 C25 1_555 1_555
C25 H22 1_555 1_555
C26 C25 1_555 1_555
H23 C26 1_555 1_555
C28 N6 1_555 1_555
H24 C28 1_555 1_555
C29 C27 1_555 1_555
H25 C29 1_555 1_555
O9 Dy7 1_555 1_555
N8 Dy7 1_555 1_555
N9 N8 1_555 1_555
C35 O9 1_555 1_555
C37 H31 1_555 1_555
H32 C37 1_555 1_555
H33 C37 1_555 1_555
O11 Dy7 1_555 1_555
H35 O11 1_555 1_555
O12 Dy7 1_555 1_555
C40 N8 1_555 1_555
H36 C40 1_555 1_555
C42 C40 1_555 1_555
C44 O12 1_555 1_555
C45 C44 1_555 1_555
H39 C45 1_555 1_555
C48 C42 1_555 1_555
C3 C14 1_555 1_555
C12 C14 1_555 1_555
C17 C19 1_555 1_555
C26 C27 1_555 1_555
C28 C29 1_555 1_555
N9 C35 1_555 1_555
C37 O11 1_555 1_555
C42 C44 1_555 1_555
H28 C33 1_555 1_555
H40 C46 1_555 1_555
C47 C46 1_555 1_555
H41 C47 1_555 1_555
H6 C8 1_555 1_555
H19 C22 1_555 1_555
C23 C22 1_555 1_555
H20 C23 1_555 1_555

#END
