
###############################################################################
#
# This file contains modified crystal structure data generated from the
# MOF subset of the Cambridge Structural Database (CSD) v543 
# hosted by the Cambridge Crystallographic Data Centre (CCDC).
#
# This work is licensed under the Creative Commons
# Attribution-NonCommercial-ShareAlike 4.0 International License.
# To view a copy of this license, visit
# http://creativecommons.org/licenses/by-nc-sa/4.0/
# or send a letter to
# Creative Commons, PO Box 1866, Mountain View, CA 94042, USA.
#
# CIF created using the CSD Python API on 29 September 2022
# The structure has been converted into the P1 space group
# The structure has a 3D framework
# The original CSD entry NIRCUP is in the monoclinic crystal system
# The original CSD entry NIRCUP is in a Sohncke space group
# The framework has been calculated to contain at least 10.0% void space
# The void calculation uses a probe of radius 1.32A, grid spacing 0.4
# The framework is charged, counterions have been retained in the structure
#
###############################################################################

data_NIRCUP
_chemical_formula_moiety         '(C96 H72 Cl4 Co4 F12 N12 O24 S4)n'
_symmetry_cell_setting           triclinic
_symmetry_space_group_name_H-M   'P 1'
_symmetry_Int_Tables_number      1
_space_group_name_Hall           'P 1'
loop_
_symmetry_equiv_pos_site_id
_symmetry_equiv_pos_as_xyz
1 x,y,z
_cell_length_a                   10.1623(4)
_cell_length_b                   25.6092(11)
_cell_length_c                   11.4729(5)
_cell_angle_alpha                90
_cell_angle_beta                 90.244(3)
_cell_angle_gamma                90
_cell_volume                     2985.78
loop_
_atom_site_label
_atom_site_type_symbol
_atom_site_fract_x
_atom_site_fract_y
_atom_site_fract_z
Co6 Co 0.04375(19) 0.83219(6) 0.01584(17)
N6 N 0.3801(11) 0.1671(4) 0.9805(8)
C9 C 0.4585(13) 0.1248(5) 0.9977(12)
C17 C 0.2525(12) 0.1583(5) 0.9597(12)
H13 H 0.1962 0.1870 0.9432
C18 C 0.2230(13) 0.0115(5) 0.9883(11)
C23 C 0.2788(12) 0.0655(5) 0.9821(11)
H25 H 0.7737 0.0024 0.8236
C44 C 0.2002(11) 0.1083(5) 0.9615(11)
H34 H 0.1086 0.1035 0.9484
Co4 Co 0.45845(19) 0.24486(6) 0.98245(16)
Co1 Co 0.54155(19) 0.74486(6) 0.01755(16)
Cl1 Cl 0.2069(4) 0.61690(13) 0.4912(3)
O1 O 0.8475(8) 0.8519(3) 0.0141(8)
O2 O 0.3471(8) 0.7252(3) 0.0133(7)
O3 O 0.7283(8) 0.7790(3) 0.0210(7)
O4 O 0.0027(8) 0.7481(3) 0.0144(8)
O5 O 0.2299(8) 0.7980(3) 0.0223(7)
O6 O 0.5035(8) 0.8298(3) 0.0195(7)
H1 H 0.452(8) 0.839(4) 0.077(8)
N5 N 0.1238(10) 0.9096(4) 0.0074(9)
C3 C 0.2403(11) 0.7502(5) 0.0184(9)
C15 C 0.1167(11) 0.7143(4) 0.0240(10)
C26 C 0.0515(13) 0.9503(5) 0.0379(12)
C27 C 0.1204(12) 0.6855(5) 0.1368(10)
C28 C 0.0828(14) 0.6836(5) 0.3468(11)
H21 H 0.0398 0.6970 0.4137
C29 C 0.0607(12) 0.7062(5) 0.2349(11)
H22 H 0.0048 0.7358 0.2275
C30 C 0.2222(14) 0.6186(5) 0.2556(11)
H23 H 0.2758 0.5883 0.2613
C31 C 0.1955(13) 0.6411(5) 0.1471(12)
H24 H 0.2302 0.6254 0.0788
C32 C 0.1687(14) 0.6414(5) 0.3560(12)
C38 C 0.6168(11) 0.8621(5) 0.0195(11)
H28 H 0.6172 0.8838 0.0920
C46 C 0.7404(10) 0.8280(5) 0.0183(9)
N7 N 0.5374(11) 0.7438(4) 0.2085(9)
N8 N 0.0342(10) 0.8386(4) 0.2052(8)
N9 N 0.6199(11) 0.6671(4) 0.0195(8)
Cl2 Cl 0.7073(4) 0.98765(15) 0.5870(3)
N1 N 0.5376(9) 0.7428(4) 0.8271(8)
N3 N 0.0445(10) 0.8333(4) 0.8245(9)
C1 C 0.5371(14) 0.7417(5) 0.5821(11)
C2 C 0.0399(12) 0.8392(5) 0.4496(10)
C4 C 0.1464(13) 0.8159(5) 0.7623(11)
H2 H 0.2208 0.8021 0.8023
C5 C 0.6427(15) 0.7616(6) 0.6458(12)
H3 H 0.7174 0.7753 0.6069
C6 C 0.1550(12) 0.8403(5) 0.3860(12)
H4 H 0.2382 0.8414 0.4240
C10 C 0.4360(13) 0.7232(5) 0.7659(10)
H8 H 0.3627 0.7097 0.8074
C11 C 0.0434(13) 0.8384(5) 0.5800(10)
C12 C 0.4331(14) 0.7217(6) 0.6465(11)
H9 H 0.3594 0.7068 0.6075
C13 C 0.6551(12) 0.7440(6) 0.3913(11)
H10 H 0.7366 0.7453 0.4320
H12 H 0.1177 0.6890 0.9577
C16 C 0.5370(12) 0.7410(5) 0.4524(10)
C19 C 0.4221(12) 0.7401(6) 0.3888(11)
H14 H 0.3398 0.7395 0.4277
C20 C 0.4259(13) 0.7400(5) 0.2693(10)
H15 H 0.3452 0.7371 0.2277
C22 C 0.2987(12) 0.9683(4) 0.9550(10)
H17 H 0.3849 0.9730 0.9253
C24 C 0.1464(11) 0.8398(5) 0.2661(11)
H18 H 0.2263 0.8404 0.2236
C25 C 0.1476(14) 0.8172(5) 0.6417(11)
H19 H 0.2208 0.8033 0.6009
C33 C 0.6194(12) 0.8979(5) 0.9146(10)
C34 C 0.7213(13) 0.9717(5) 0.8197(12)
C35 C 0.5622(12) 0.8837(4) 0.8102(11)
H26 H 0.5068 0.8538 0.8074
C36 C 0.6961(11) 0.9432(4) 0.9184(12)
H27 H 0.7316 0.9544 0.9909
C37 C 0.6689(14) 0.9549(5) 0.7137(12)
C39 C 0.5844(12) 0.9124(5) 0.7079(12)
H29 H 0.5426 0.9030 0.6366
C40 C 0.2463(11) 0.9184(4) 0.9660(11)
H30 H 0.2985 0.8894 0.9435
C41 C 0.6377(13) 0.7610(5) 0.7670(12)
H31 H 0.7109 0.7747 0.8089
C43 C 0.6522(13) 0.7451(5) 0.2703(11)
H33 H 0.7331 0.7468 0.2291
H20 H 0.9653 0.9445 0.0668
H20_2 H 0.0347 0.4445 0.9332
O7 O 0.1525(8) 0.3519(3) 0.9859(8)
Cl2_2 Cl 0.2927(4) 0.48765(15) 0.4130(3)
N1_2 N 0.4624(9) 0.2428(4) 0.1729(8)
N2 N 0.4626(11) 0.2438(4) 0.7915(9)
N3_2 N 0.9555(10) 0.3333(4) 0.1755(9)
N4 N 0.9658(10) 0.3386(4) 0.7948(8)
C1_2 C 0.4629(14) 0.2417(5) 0.4179(11)
C2_2 C 0.9601(12) 0.3392(5) 0.5504(10)
C4_2 C 0.8536(13) 0.3159(5) 0.2377(11)
H2_2 H 0.7792 0.3021 0.1977
C5_2 C 0.3573(15) 0.2616(6) 0.3542(12)
H3_2 H 0.2826 0.2753 0.3931
C6_2 C 0.8450(12) 0.3403(5) 0.6140(12)
H4_2 H 0.7618 0.3414 0.5760
C9_2 C 0.5415(13) 0.6248(5) 0.0023(12)
C10_2 C 0.5640(13) 0.2232(5) 0.2341(10)
H8_2 H 0.6373 0.2097 0.1926
C11_2 C 0.9566(13) 0.3384(5) 0.4200(10)
C12_2 C 0.5669(14) 0.2217(6) 0.3535(11)
H9_2 H 0.6406 0.2068 0.3925
C13_2 C 0.3449(12) 0.2440(6) 0.6087(11)
H10_2 H 0.2634 0.2453 0.5680
H12_2 H 0.8823 0.1890 0.0423
C16_2 C 0.4630(12) 0.2410(5) 0.5476(10)
C17_2 C 0.7475(12) 0.6583(5) 0.0403(12)
H13_2 H 0.8038 0.6870 0.0568
C18_2 C 0.7770(13) 0.5115(5) 0.0117(11)
C19_2 C 0.5779(12) 0.2401(6) 0.6112(11)
H14_2 H 0.6602 0.2395 0.5723
C20_2 C 0.5741(13) 0.2400(5) 0.7307(10)
H15_2 H 0.6548 0.2371 0.7723
C22_2 C 0.7013(12) 0.4683(4) 0.0450(10)
H17_2 H 0.6151 0.4730 0.0747
C23_2 C 0.7212(12) 0.5655(5) 0.0179(11)
C24_2 C 0.8536(11) 0.3398(5) 0.7339(11)
H18_2 H 0.7737 0.3404 0.7764
C25_2 C 0.8524(14) 0.3172(5) 0.3583(11)
H19_2 H 0.7792 0.3033 0.3991
C33_2 C 0.3806(12) 0.3979(5) 0.0854(10)
C34_2 C 0.2787(13) 0.4717(5) 0.1803(12)
H25_2 H 0.2263 0.5024 0.1764
C35_2 C 0.4378(12) 0.3837(4) 0.1898(11)
H26_2 H 0.4932 0.3538 0.1926
C36_2 C 0.3039(11) 0.4432(4) 0.0816(12)
H27_2 H 0.2684 0.4544 0.0091
C37_2 C 0.3311(14) 0.4549(5) 0.2863(12)
C39_2 C 0.4156(12) 0.4124(5) 0.2921(12)
H29_2 H 0.4574 0.4030 0.3634
C40_2 C 0.7537(11) 0.4184(4) 0.0340(11)
H30_2 H 0.7015 0.3894 0.0565
C41_2 C 0.3623(13) 0.2610(5) 0.2330(12)
H31_2 H 0.2891 0.2747 0.1911
C43_2 C 0.3478(13) 0.2451(5) 0.7297(11)
H33_2 H 0.2669 0.2468 0.7709
C44_2 C 0.7998(11) 0.6083(5) 0.0385(11)
H34_2 H 0.8914 0.6035 0.0516
Co5 Co 0.95625(19) 0.33219(6) 0.98416(17)
Cl1_2 Cl 0.7931(4) 0.11690(13) 0.5088(3)
O2_2 O 0.6529(8) 0.2252(3) 0.9867(7)
O3_2 O 0.2717(8) 0.2790(3) 0.9790(7)
O4_2 O 0.9973(8) 0.2481(3) 0.9856(8)
O5_2 O 0.7701(8) 0.2980(3) 0.9777(7)
O6_2 O 0.4965(8) 0.3298(3) 0.9805(7)
H1_2 H 0.548(8) 0.339(4) 0.923(8)
N5_2 N 0.8762(10) 0.4096(4) 0.9926(9)
C3_2 C 0.7597(11) 0.2502(5) 0.9816(9)
H7 H 0.4498 0.6306 0.9926
C15_2 C 0.8833(11) 0.2143(4) 0.9760(10)
C21 C 0.9019(13) 0.5018(5) 0.9712(12)
H16 H 0.9570 0.5301 0.9492
C26_2 C 0.9485(13) 0.4503(5) 0.9621(12)
C27_2 C 0.8796(12) 0.1855(5) 0.8632(10)
C28_2 C 0.9172(14) 0.1836(5) 0.6532(11)
H21_2 H 0.9602 0.1970 0.5863
C29_2 C 0.9393(12) 0.2062(5) 0.7651(11)
H22_2 H 0.9952 0.2358 0.7725
C30_2 C 0.7778(14) 0.1186(5) 0.7444(11)
H23_2 H 0.7242 0.0883 0.7387
C31_2 C 0.8045(13) 0.1411(5) 0.8529(12)
H24_2 H 0.7698 0.1254 0.9212
C32_2 C 0.8313(14) 0.1414(5) 0.6440(12)
C38_2 C 0.3832(11) 0.3621(5) 0.9805(11)
H28_2 H 0.3828 0.3838 0.9080
C45 C 0.5863(13) 0.5747(5) 0.9981(13)
H35 H 0.5279 0.5466 0.9822
C46_2 C 0.2596(10) 0.3280(5) 0.9817(9)
H7_2 H 0.5502 0.1306 0.0074
C21_2 C 0.0981(13) 0.0018(5) 0.0288(12)
H16_2 H 0.0430 0.0301 0.0508
C45_2 C 0.4137(13) 0.0747(5) 0.0019(13)
H35_2 H 0.4721 0.0466 0.0178
C7 C 0.9234(13) 0.8391(5) 0.2655(10)
H5 H 0.8421 0.8391 0.2243
C8 C 0.9211(13) 0.8396(5) 0.3874(10)
H6 H 0.8396 0.8402 0.4277
C14 C 0.9428(13) 0.8542(5) 0.7665(11)
H11 H 0.8705 0.8675 0.8097
C42 C 0.9387(14) 0.8573(5) 0.6447(11)
H32 H 0.8646 0.8722 0.6065
H36 H 0.965(10) 0.743(5) 0.947(7)
C7_2 C 0.0766(13) 0.3391(5) 0.7345(10)
H5_2 H 0.1579 0.3391 0.7757
C8_2 C 0.0789(13) 0.3396(5) 0.6126(10)
H6_2 H 0.1604 0.3402 0.5723
C14_2 C 0.0572(13) 0.3542(5) 0.2335(11)
H11_2 H 0.1295 0.3675 0.1903
C42_2 C 0.0613(14) 0.3573(5) 0.3553(11)
H32_2 H 0.1354 0.3722 0.3935
H36_2 H 0.035(10) 0.243(5) 0.053(7)
S1 S 0.5051(3) 0.89477(13) 0.3292(3)
F1 F 0.4884(11) 0.9731(4) 0.1839(8)
F2 F 0.3164(9) 0.9625(4) 0.2908(11)
F3 F 0.4941(12) 0.9960(4) 0.3676(10)
O8 O 0.6447(8) 0.8980(4) 0.3175(9)
O9 O 0.4425(9) 0.8634(4) 0.2383(8)
O10 O 0.4580(11) 0.8863(5) 0.4457(7)
C47 C 0.4474(15) 0.9607(6) 0.2947(15)
S1_2 S 0.4949(3) 0.39477(13) 0.6708(3)
F1_2 F 0.5116(11) 0.4731(4) 0.8161(8)
F2_2 F 0.6836(9) 0.4625(4) 0.7092(11)
F3_2 F 0.5059(12) 0.4960(4) 0.6324(10)
O8_2 O 0.3553(8) 0.3980(4) 0.6825(9)
O9_2 O 0.5575(9) 0.3634(4) 0.7617(8)
O10_2 O 0.5420(11) 0.3863(5) 0.5543(7)
C47_2 C 0.5526(15) 0.4607(6) 0.7053(15)
O11 O 0.1020(11) 0.6845(6) 0.7227(12)
S2 S 0.9686(4) 0.69590(14) 0.7067(3)
F4 F 0.9183(13) 0.6056(4) 0.6070(9)
F5 F 0.7600(11) 0.6375(4) 0.7030(11)
F6 F 0.9220(17) 0.6021(4) 0.7920(10)
O12 O 0.9068(9) 0.7185(4) 0.8112(9)
O13 O 0.9345(11) 0.7189(4) 0.5982(8)
C48 C 0.8911(16) 0.6318(6) 0.7024(16)
S2_2 S 0.0314(4) 0.19590(14) 0.2933(3)
F4_2 F 0.0817(13) 0.1056(4) 0.3930(9)
F5_2 F 0.2400(11) 0.1375(4) 0.2970(11)
F6_2 F 0.0780(17) 0.1021(4) 0.2080(10)
O12_2 O 0.0932(9) 0.2185(4) 0.1888(9)
O13_2 O 0.0655(11) 0.2189(4) 0.4018(8)
C48_2 C 0.1089(16) 0.1318(6) 0.2976(16)
O11_2 O 0.8980(11) 0.1845(6) 0.2773(12)
loop_
_geom_bond_atom_site_label_1
_geom_bond_atom_site_label_2
_geom_bond_site_symmetry_1
_geom_bond_site_symmetry_2
N6 C9 1_555 1_555
C17 N6 1_555 1_555
H13 C17 1_555 1_555
C23 C18 1_555 1_555
C44 C17 1_555 1_555
H34 C44 1_555 1_555
Co4 N6 1_555 1_555
C23 C44 1_555 1_555
Co1 O2 1_555 1_555
Co6 O4 1_555 1_555
Cl1 C32 1_555 1_555
O1 C46 1_555 1_555
O2 C3 1_555 1_555
O3 Co1 1_555 1_555
O4 C15 1_555 1_555
O5 Co6 1_555 1_555
O6 Co1 1_555 1_555
H1 O6 1_555 1_555
N5 Co6 1_555 1_555
C3 O5 1_555 1_555
C15 C3 1_555 1_555
C26 N5 1_555 1_555
C27 C15 1_555 1_555
C28 H21 1_555 1_555
C29 C27 1_555 1_555
H22 C29 1_555 1_555
C30 H23 1_555 1_555
C31 C27 1_555 1_555
H24 C31 1_555 1_555
C32 C28 1_555 1_555
C38 O6 1_555 1_555
H28 C38 1_555 1_555
C46 O3 1_555 1_555
N7 Co1 1_555 1_555
N8 Co6 1_555 1_555
N9 Co1 1_555 1_555
C28 C29 1_555 1_555
C30 C31 1_555 1_555
C30 C32 1_555 1_555
C38 C46 1_555 1_555
Cl2 C37 1_555 1_555
N7 C20 1_555 1_555
C1 C5 1_555 1_555
C2 C6 1_555 1_555
C4 N3 1_555 1_555
H2 C4 1_555 1_555
C5 H3 1_555 1_555
C6 H4 1_555 1_555
C10 N1 1_555 1_555
H8 C10 1_555 1_555
C11 C2 1_555 1_555
C12 C1 1_555 1_555
H9 C12 1_555 1_555
C13 H10 1_555 1_555
C16 C1 1_555 1_555
C19 C16 1_555 1_555
H14 C19 1_555 1_555
C20 C19 1_555 1_555
H15 C20 1_555 1_555
H17 C22 1_555 1_555
C24 N8 1_555 1_555
H18 C24 1_555 1_555
C25 C4 1_555 1_555
H19 C25 1_555 1_555
C33 C35 1_555 1_555
C35 H26 1_555 1_555
C36 C33 1_555 1_555
H27 C36 1_555 1_555
C37 C34 1_555 1_555
C39 C35 1_555 1_555
H29 C39 1_555 1_555
H30 C40 1_555 1_555
C41 N1 1_555 1_555
H31 C41 1_555 1_555
C43 N7 1_555 1_555
H33 C43 1_555 1_555
C5 C41 1_555 1_555
C6 C24 1_555 1_555
C10 C12 1_555 1_555
C11 C25 1_555 1_555
C13 C16 1_555 1_555
C13 C43 1_555 1_555
C22 C40 1_555 1_555
C34 C36 1_555 1_555
C37 C39 1_555 1_555
Cl2_2 C37_2 1_555 1_555
N2 C20_2 1_555 1_555
N9 C9_2 1_555 1_555
C1_2 C5_2 1_555 1_555
C2_2 C6_2 1_555 1_555
C4_2 N3_2 1_555 1_555
H2_2 C4_2 1_555 1_555
C5_2 H3_2 1_555 1_555
C6_2 H4_2 1_555 1_555
C10_2 N1_2 1_555 1_555
H8_2 C10_2 1_555 1_555
C11_2 C2_2 1_555 1_555
C12_2 C1_2 1_555 1_555
H9_2 C12_2 1_555 1_555
C13_2 H10_2 1_555 1_555
C16_2 C1_2 1_555 1_555
C17_2 N9 1_555 1_555
H13_2 C17_2 1_555 1_555
C19_2 C16_2 1_555 1_555
H14_2 C19_2 1_555 1_555
C20_2 C19_2 1_555 1_555
H15_2 C20_2 1_555 1_555
C22_2 C18_2 1_555 1_555
H17_2 C22_2 1_555 1_555
C23_2 C18_2 1_555 1_555
C24_2 N4 1_555 1_555
H18_2 C24_2 1_555 1_555
C25_2 C4_2 1_555 1_555
H19_2 C25_2 1_555 1_555
C33_2 C35_2 1_555 1_555
C34_2 H25_2 1_555 1_555
C35_2 H26_2 1_555 1_555
C36_2 C33_2 1_555 1_555
H27_2 C36_2 1_555 1_555
C37_2 C34_2 1_555 1_555
C39_2 C35_2 1_555 1_555
H29_2 C39_2 1_555 1_555
H30_2 C40_2 1_555 1_555
C41_2 N1_2 1_555 1_555
H31_2 C41_2 1_555 1_555
C43_2 N2 1_555 1_555
H33_2 C43_2 1_555 1_555
C44_2 C17_2 1_555 1_555
H34_2 C44_2 1_555 1_555
Co4 N2 1_555 1_555
Co5 N4 1_555 1_555
C5_2 C41_2 1_555 1_555
C6_2 C24_2 1_555 1_555
C10_2 C12_2 1_555 1_555
C11_2 C25_2 1_555 1_555
C13_2 C16_2 1_555 1_555
C13_2 C43_2 1_555 1_555
C22_2 C40_2 1_555 1_555
C23_2 C44_2 1_555 1_555
C34_2 C36_2 1_555 1_555
C37_2 C39_2 1_555 1_555
Co4 O2_2 1_555 1_555
Co5 O4_2 1_555 1_555
Cl1_2 C32_2 1_555 1_555
O7 C46_2 1_555 1_555
O2_2 C3_2 1_555 1_555
O3_2 Co4 1_555 1_555
O4_2 C15_2 1_555 1_555
O5_2 Co5 1_555 1_555
O6_2 Co4 1_555 1_555
H1_2 O6_2 1_555 1_555
N5_2 Co5 1_555 1_555
C3_2 O5_2 1_555 1_555
C15_2 C3_2 1_555 1_555
C21 H16 1_555 1_555
C26_2 N5_2 1_555 1_555
C27_2 C15_2 1_555 1_555
C28_2 H21_2 1_555 1_555
C29_2 C27_2 1_555 1_555
H22_2 C29_2 1_555 1_555
C30_2 H23_2 1_555 1_555
C31_2 C27_2 1_555 1_555
H24_2 C31_2 1_555 1_555
C32_2 C28_2 1_555 1_555
C38_2 O6_2 1_555 1_555
H28_2 C38_2 1_555 1_555
H35 C45 1_555 1_555
C46_2 O3_2 1_555 1_555
C21 C26_2 1_555 1_555
C28_2 C29_2 1_555 1_555
C30_2 C31_2 1_555 1_555
C30_2 C32_2 1_555 1_555
C38_2 C46_2 1_555 1_555
C21_2 H16_2 1_555 1_555
H35_2 C45_2 1_555 1_555
C7 H5 1_555 1_555
H6 C8 1_555 1_555
H11 C14 1_555 1_555
H32 C42 1_555 1_555
C7 C8 1_555 1_555
C14 C42 1_555 1_555
C7_2 H5_2 1_555 1_555
H6_2 C8_2 1_555 1_555
H11_2 C14_2 1_555 1_555
H32_2 C42_2 1_555 1_555
C7_2 C8_2 1_555 1_555
C14_2 C42_2 1_555 1_555
S1 O8 1_555 1_555
F1 C47 1_555 1_555
F2 C47 1_555 1_555
F3 C47 1_555 1_555
O9 S1 1_555 1_555
O10 S1 1_555 1_555
C47 S1 1_555 1_555
S1_2 O8_2 1_555 1_555
F1_2 C47_2 1_555 1_555
F2_2 C47_2 1_555 1_555
F3_2 C47_2 1_555 1_555
O9_2 S1_2 1_555 1_555
O10_2 S1_2 1_555 1_555
C47_2 S1_2 1_555 1_555
F4 C48 1_555 1_555
F5 C48 1_555 1_555
F6 C48 1_555 1_555
O12 S2 1_555 1_555
O13 S2 1_555 1_555
C48 S2 1_555 1_555
F4_2 C48_2 1_555 1_555
F5_2 C48_2 1_555 1_555
F6_2 C48_2 1_555 1_555
O12_2 S2_2 1_555 1_555
O13_2 S2_2 1_555 1_555
C48_2 S2_2 1_555 1_555

#END
