
###############################################################################
#
# This file contains modified crystal structure data generated from the
# MOF subset of the Cambridge Structural Database (CSD) v543 
# hosted by the Cambridge Crystallographic Data Centre (CCDC).
#
# This work is licensed under the Creative Commons
# Attribution-NonCommercial-ShareAlike 4.0 International License.
# To view a copy of this license, visit
# http://creativecommons.org/licenses/by-nc-sa/4.0/
# or send a letter to
# Creative Commons, PO Box 1866, Mountain View, CA 94042, USA.
#
# CIF created using the CSD Python API on 29 September 2022
# The structure has been converted into the P1 space group
# The structure has a 3D framework
# The original CSD entry NIRCEZ is in the monoclinic crystal system
# The original CSD entry NIRCEZ is in a Sohncke space group
# The framework has been calculated to contain at least 10.0% void space
# The void calculation uses a probe of radius 1.32A, grid spacing 0.4
# The framework is charged, counterions have been retained in the structure
#
###############################################################################

data_NIRCEZ
_chemical_formula_moiety         '(C100 H84 Co4 F12 N12 O24 S4)n'
_symmetry_cell_setting           triclinic
_symmetry_space_group_name_H-M   'P 1'
_symmetry_Int_Tables_number      1
_space_group_name_Hall           'P 1'
loop_
_symmetry_equiv_pos_site_id
_symmetry_equiv_pos_as_xyz
1 x,y,z
_cell_length_a                   10.1791(3)
_cell_length_b                   25.6037(8)
_cell_length_c                   11.4781(4)
_cell_angle_alpha                90
_cell_angle_beta                 90.4539(18)
_cell_angle_gamma                90
_cell_volume                     2991.36
loop_
_atom_site_label
_atom_site_type_symbol
_atom_site_fract_x
_atom_site_fract_y
_atom_site_fract_z
Co1 Co 0.45984(13) 0.30223(5) 0.48589(12)
Co2 Co 0.03863(13) 0.71447(5) 0.51554(12)
O3 O 0.0009(6) 0.7993(3) 0.5195(5)
O5 O 0.2241(6) 0.7481(2) 0.5183(5)
O6 O 0.3448(6) 0.8209(2) 0.5117(5)
N1 N 0.0345(7) 0.7120(3) 0.3261(6)
N3 N 0.4697(7) 0.3079(3) 0.2971(7)
N5 N 0.1166(7) 0.6368(3) 0.5194(6)
N6 N 0.3768(8) 0.3785(3) 0.4941(6)
C2 C 0.0325(9) 0.7107(4) 0.0803(8)
C6 C 0.5822(10) 0.3074(4) 0.1144(8)
H4 H 0.6640 0.3068 0.0751
C9 C 0.0782(11) 0.8787(4) 0.2044(10)
H7 H 0.0361 0.8682 0.1340
C10 C 0.0408(10) 0.5950(4) 0.5002(9)
C13 C 0.4662(9) 0.3083(4) 0.0507(8)
C14 C 0.1398(10) 0.7293(4) 0.1432(9)
H11 H 0.2144 0.7426 0.1038
C17 C 0.3581(9) 0.3105(4) 0.2352(8)
H14 H 0.2780 0.3121 0.2770
C18 C 0.2770(10) 0.4809(4) 0.5099(8)
C20 C 0.5800(9) 0.3072(4) 0.2350(8)
H16 H 0.6616 0.3066 0.2758
C22 C 0.1125(8) 0.8313(4) 0.5174(8)
H18 H 0.1142 0.8535 0.5891
C23 C 0.2131(10) 0.9394(4) 0.3106(9)
H19 H 0.2638 0.9705 0.3132
C25 C 0.2455(9) 0.6277(4) 0.5402(8)
H21 H 0.3015 0.6566 0.5556
C26 C 0.2198(9) 0.5349(4) 0.5165(8)
C27 C 0.0867(10) 0.5443(4) 0.4978(9)
H22 H 0.0280 0.5161 0.4836
C28 C 0.2378(8) 0.7969(4) 0.5151(7)
C29 C 0.0573(9) 0.8514(4) 0.3061(8)
H23 H 0.0014 0.8217 0.3053
C30 C 0.3506(9) 0.3109(4) 0.1156(8)
H24 H 0.2677 0.3130 0.0773
C31 C 0.1915(10) 0.9119(4) 0.4127(9)
H25 H 0.2275 0.9240 0.4843
C32 C 0.1631(11) 0.9225(4) 0.2061(10)
C33 C 0.2560(8) 0.3879(3) 0.5299(8)
H26 H 0.2029 0.3588 0.5500
C34 C 0.2013(9) 0.4374(3) 0.5400(8)
H27 H 0.1139 0.4416 0.5670
C35 C 0.4032(10) 0.4716(4) 0.4751(9)
H28 H 0.4594 0.5001 0.4573
C36 C 0.4497(9) 0.4208(4) 0.4657(9)
H29 H 0.5364 0.4155 0.4381
C37 C 0.2993(8) 0.5780(4) 0.5403(8)
H30 H 0.3903 0.5733 0.5564
C38 C 0.1172(9) 0.8668(4) 0.4096(8)
C39 C 0.1943(13) 0.9496(5) 0.0923(10)
H31 H 0.1778 0.9256 0.0273
H32 H 0.2868 0.9602 0.0924
H33 H 0.1385 0.9806 0.0835
C47 C 0.1370(10) 0.7284(4) 0.2642(8)
H39 H 0.2127 0.7401 0.3054
Co5 Co 0.54016(13) 0.80223(5) 0.51411(12)
O7 O 0.4993(6) 0.2180(3) 0.4892(5)
O8 O 0.2730(6) 0.2677(2) 0.4785(5)
O9 O 0.6552(6) 0.3209(2) 0.4883(5)
N7 N 0.0328(7) 0.7136(3) 0.7061(6)
N8 N 0.4611(7) 0.3033(3) 0.6767(6)
C3 C 0.0331(9) 0.7109(4) 0.9496(8)
C4 C 0.4636(9) 0.3073(4) 0.9217(8)
C7 C 0.3563(10) 0.2888(4) 0.8598(8)
H5 H 0.2808 0.2767 0.8998
C12 C 0.1495(10) 0.7135(4) 0.8884(8)
H10 H 0.2314 0.7141 0.9286
C15 C 0.5630(9) 0.3231(4) 0.7373(8)
H12 H 0.6352 0.3365 0.6947
C16 C 0.5696(10) 0.3252(4) 0.8577(8)
H13 H 0.6455 0.3387 0.8960
C19 C 0.3593(9) 0.2879(4) 0.7377(8)
H15 H 0.2839 0.2755 0.6969
C24 C 0.1451(10) 0.7151(4) 0.7672(8)
H20 H 0.2255 0.7175 0.7261
O1 O 0.5007(6) 0.7180(3) 0.5108(5)
H1 H 0.461(8) 0.718(3) 0.448(10)
O2 O 0.8450(5) 0.6943(2) 0.5113(5)
H2 H 0.924(3) 0.806(3) 0.545(8)
O4 O 0.7270(6) 0.7677(2) 0.5215(5)
C5 C 0.7384(8) 0.7189(4) 0.5155(7)
H8 H 0.9495 0.6005 0.4873
C11 C 0.9315(11) 0.6938(4) 0.2646(9)
H9 H 0.8576 0.6810 0.3058
C21 C 0.6167(8) 0.6846(4) 0.5184(8)
H17 H 0.6177 0.6596 0.4514
C40 C 0.5602(9) 0.6744(4) 0.7330(8)
H34 H 0.5049 0.7042 0.7278
C41 C 0.6922(9) 0.6095(3) 0.6419(9)
H35 H 0.7271 0.5938 0.5739
C42 C 0.6169(8) 0.6548(3) 0.6323(8)
C43 C 0.5823(10) 0.6517(4) 0.8403(9)
H36 H 0.5406 0.6656 0.9072
C44 C 0.7166(10) 0.5875(4) 0.7495(9)
H37 H 0.7701 0.5571 0.7544
C45 C 0.6643(11) 0.6087(4) 0.8519(10)
C46 C 0.9277(11) 0.6929(4) 0.1431(9)
H38 H 0.8520 0.6800 0.1037
C48 C 0.6971(12) 0.5858(4) 0.9684(10)
H41 H 0.7921 0.5800 0.9743
H42 H 0.6512 0.5524 0.9775
H1_2 H 0.539(8) 0.218(3) 0.552(10)
O2_2 O 0.1550(5) 0.1943(2) 0.4887(5)
H2_2 H 0.076(3) 0.306(3) 0.455(8)
C5_2 C 0.2616(8) 0.2189(4) 0.4845(7)
H8_2 H 0.0505 0.1005 0.5127
C11_2 C 0.0685(11) 0.1938(4) 0.7354(9)
H9_2 H 0.1424 0.1810 0.6942
C21_2 C 0.3833(8) 0.1846(4) 0.4816(8)
H17_2 H 0.3823 0.1596 0.5486
C40_2 C 0.4398(9) 0.1744(4) 0.2670(8)
H34_2 H 0.4951 0.2042 0.2722
C41_2 C 0.3078(9) 0.1095(3) 0.3581(9)
H35_2 H 0.2729 0.0938 0.4261
C42_2 C 0.3831(8) 0.1548(3) 0.3677(8)
C43_2 C 0.4177(10) 0.1517(4) 0.1597(9)
H36_2 H 0.4594 0.1656 0.0928
C44_2 C 0.2834(10) 0.0875(4) 0.2505(9)
H37_2 H 0.2299 0.0571 0.2456
C45_2 C 0.3357(11) 0.1087(4) 0.1481(10)
C46_2 C 0.0723(11) 0.1929(4) 0.8569(9)
H38_2 H 0.1480 0.1800 0.8963
C48_2 C 0.3029(12) 0.0858(4) 0.0316(10)
H41_2 H 0.2079 0.0800 0.0257
H42_2 H 0.3488 0.0524 0.0225
N2 N 0.9672(7) 0.2136(3) 0.2939(6)
C3_2 C 0.9669(9) 0.2109(4) 0.0504(8)
C12_2 C 0.8505(10) 0.2135(4) 0.1116(8)
H10_2 H 0.7686 0.2141 0.0714
C24_2 C 0.8549(10) 0.2151(4) 0.2328(8)
H20_2 H 0.7745 0.2175 0.2739
Co6 Co 0.96137(13) 0.21447(5) 0.48446(12)
O3_2 O 0.9991(6) 0.2993(3) 0.4805(5)
O5_2 O 0.7759(6) 0.2481(2) 0.4817(5)
N1_2 N 0.9655(7) 0.2120(3) 0.6739(6)
N5_2 N 0.8834(7) 0.1368(3) 0.4806(6)
C2_2 C 0.9675(9) 0.2107(4) 0.9197(8)
C9_2 C 0.9218(11) 0.3787(4) 0.7956(10)
H7_2 H 0.9639 0.3682 0.8660
C10_2 C 0.9592(10) 0.0950(4) 0.4998(9)
C14_2 C 0.8602(10) 0.2293(4) 0.8568(9)
H11_2 H 0.7856 0.2426 0.8962
C22_2 C 0.8875(8) 0.3313(4) 0.4826(8)
H18_2 H 0.8858 0.3535 0.4109
C23_2 C 0.7869(10) 0.4394(4) 0.6894(9)
H19_2 H 0.7362 0.4705 0.6868
C25_2 C 0.7545(9) 0.1277(4) 0.4598(8)
H21_2 H 0.6985 0.1566 0.4444
C26_2 C 0.7802(9) 0.0349(4) 0.4835(8)
C27_2 C 0.9133(10) 0.0443(4) 0.5022(9)
H22_2 H 0.9720 0.0161 0.5164
C28_2 C 0.7622(8) 0.2969(4) 0.4849(7)
C29_2 C 0.9427(9) 0.3514(4) 0.6939(8)
H23_2 H 0.9986 0.3217 0.6947
C31_2 C 0.8085(10) 0.4119(4) 0.5873(9)
H25_2 H 0.7725 0.4240 0.5157
C32_2 C 0.8369(11) 0.4225(4) 0.7939(10)
H28_2 H 0.5406 0.0001 0.5427
C37_2 C 0.7007(8) 0.0780(4) 0.4597(8)
H30_2 H 0.6097 0.0733 0.4436
C38_2 C 0.8828(9) 0.3668(4) 0.5904(8)
C39_2 C 0.8057(13) 0.4496(5) 0.9077(10)
H31_2 H 0.8222 0.4256 0.9727
H32_2 H 0.7132 0.4602 0.9076
H33_2 H 0.8615 0.4806 0.9165
C47_2 C 0.8630(10) 0.2284(4) 0.7358(8)
H39_2 H 0.7873 0.2401 0.6946
N4 N 0.5389(7) 0.8033(3) 0.3233(6)
C4_2 C 0.5364(9) 0.8073(4) 0.0783(8)
C7_2 C 0.6437(10) 0.7888(4) 0.1402(8)
H5_2 H 0.7192 0.7767 0.1002
C15_2 C 0.4370(9) 0.8231(4) 0.2627(8)
H12_2 H 0.3648 0.8365 0.3053
C16_2 C 0.4304(10) 0.8252(4) 0.1423(8)
H13_2 H 0.3545 0.8387 0.1040
C19_2 C 0.6407(9) 0.7879(4) 0.2623(8)
H15_2 H 0.7161 0.7755 0.3031
N3_2 N 0.5303(7) 0.8079(3) 0.7029(7)
N6_2 N 0.6232(8) 0.8785(3) 0.5059(6)
C6_2 C 0.4178(10) 0.8074(4) 0.8856(8)
H4_2 H 0.3360 0.8068 0.9249
C13_2 C 0.5338(9) 0.8083(4) 0.9493(8)
C17_2 C 0.6419(9) 0.8105(4) 0.7648(8)
H14_2 H 0.7220 0.8121 0.7230
C18_2 C 0.7230(10) 0.9809(4) 0.4901(8)
C20_2 C 0.4200(9) 0.8072(4) 0.7650(8)
H16_2 H 0.3384 0.8066 0.7242
C30_2 C 0.6494(9) 0.8109(4) 0.8844(8)
H24_2 H 0.7323 0.8130 0.9227
C33_2 C 0.7440(8) 0.8879(3) 0.4701(8)
H26_2 H 0.7971 0.8588 0.4500
C34_2 C 0.7987(9) 0.9374(3) 0.4600(8)
H27_2 H 0.8861 0.9416 0.4330
C35_2 C 0.5968(10) 0.9716(4) 0.5249(9)
C36_2 C 0.5503(9) 0.9208(4) 0.5343(9)
H29_2 H 0.4636 0.9155 0.5619
H40 H 0.6696 0.6099 0.0299
C1 C 0.9182(9) 0.7093(4) 0.8865(8)
H3 H 0.8362 0.7076 0.9252
C8 C 0.9224(9) 0.7101(4) 0.7664(8)
H6 H 0.8417 0.7079 0.7244
C1_2 C 0.0818(9) 0.2093(4) 0.1135(8)
H3_2 H 0.1638 0.2076 0.0748
C8_2 C 0.0776(9) 0.2101(4) 0.2336(8)
H6_2 H 0.1583 0.2079 0.2756
H40_2 H 0.3304 0.1099 0.9701
S1 S 0.4692(3) 0.66585(10) 0.2012(2)
F1 F 0.4304(8) 0.5722(3) 0.1150(7)
F2 F 0.2695(8) 0.6022(3) 0.2131(8)
F3 F 0.4446(10) 0.5754(3) 0.3025(7)
O10 O 0.4105(8) 0.6903(3) 0.3016(7)
O11 O 0.6071(8) 0.6579(4) 0.2118(7)
O12 O 0.4249(8) 0.6858(3) 0.0909(7)
C49 C 0.3987(12) 0.6001(4) 0.2079(11)
S1_2 S 0.5308(3) 0.16585(10) 0.7988(2)
F1_2 F 0.5696(8) 0.0722(3) 0.8850(7)
F2_2 F 0.7305(8) 0.1022(3) 0.7869(8)
F3_2 F 0.5554(10) 0.0754(3) 0.6975(7)
O10_2 O 0.5895(8) 0.1903(3) 0.6984(7)
O11_2 O 0.3929(8) 0.1579(4) 0.7882(7)
O12_2 O 0.5751(8) 0.1858(3) 0.9091(7)
C49_2 C 0.6013(12) 0.1001(4) 0.7921(11)
S2 S 0.0014(2) 0.36433(10) 0.1719(2)
F4 F 0.1870(7) 0.4317(3) 0.2128(9)
F5 F 0.0160(11) 0.4645(3) 0.1328(9)
F6 F 0.0124(9) 0.4427(3) 0.3143(8)
O14 O 0.0598(7) 0.3334(3) 0.2648(6)
O15 O 0.0524(8) 0.3548(4) 0.0592(6)
C50 C 0.0590(12) 0.4298(4) 0.2088(12)
O13 O 0.8634(7) 0.3688(3) 0.1772(7)
O13_2 O 0.1366(7) 0.8688(3) 0.8228(7)
S2_2 S 0.9986(2) 0.86433(10) 0.8281(2)
F4_2 F 0.8130(7) 0.9317(3) 0.7872(9)
F5_2 F 0.9840(11) 0.9645(3) 0.8672(9)
F6_2 F 0.9876(9) 0.9427(3) 0.6857(8)
O14_2 O 0.9402(7) 0.8334(3) 0.7352(6)
O15_2 O 0.9476(8) 0.8548(4) 0.9408(6)
C50_2 C 0.9410(12) 0.9298(4) 0.7912(12)
loop_
_geom_bond_atom_site_label_1
_geom_bond_atom_site_label_2
_geom_bond_site_symmetry_1
_geom_bond_site_symmetry_2
Co1 N3 1_555 1_555
O3 Co2 1_555 1_555
O5 Co2 1_555 1_555
O6 C28 1_555 1_555
N1 Co2 1_555 1_555
N3 C17 1_555 1_555
N5 Co2 1_555 1_555
N6 Co1 1_555 1_555
C6 H4 1_555 1_555
C9 H7 1_555 1_555
C10 N5 1_555 1_555
C14 C2 1_555 1_555
H11 C14 1_555 1_555
C17 H14 1_555 1_555
C18 C26 1_555 1_555
C20 N3 1_555 1_555
H16 C20 1_555 1_555
C22 O3 1_555 1_555
H18 C22 1_555 1_555
C23 H19 1_555 1_555
C25 N5 1_555 1_555
H21 C25 1_555 1_555
C26 C27 1_555 1_555
C27 C10 1_555 1_555
H22 C27 1_555 1_555
C28 O5 1_555 1_555
C29 C9 1_555 1_555
H23 C29 1_555 1_555
C30 C13 1_555 1_555
H24 C30 1_555 1_555
C31 C23 1_555 1_555
H25 C31 1_555 1_555
C32 C9 1_555 1_555
C33 N6 1_555 1_555
H26 C33 1_555 1_555
C34 C18 1_555 1_555
H27 C34 1_555 1_555
C35 C18 1_555 1_555
H28 C35 1_555 1_555
C36 N6 1_555 1_555
H29 C36 1_555 1_555
C37 C25 1_555 1_555
H30 C37 1_555 1_555
C38 C22 1_555 1_555
C39 C32 1_555 1_555
H31 C39 1_555 1_555
H32 C39 1_555 1_555
H33 C39 1_555 1_555
C47 N1 1_555 1_555
H39 C47 1_555 1_555
Co5 O6 1_555 1_555
O7 Co1 1_555 1_555
O8 Co1 1_555 1_555
O9 Co1 1_555 1_555
N7 Co2 1_555 1_555
N8 Co1 1_555 1_555
C6 C13 1_555 1_555
C6 C20 1_555 1_555
C14 C47 1_555 1_555
C17 C30 1_555 1_555
C22 C28 1_555 1_555
C23 C32 1_555 1_555
C26 C37 1_555 1_555
C29 C38 1_555 1_555
C31 C38 1_555 1_555
C33 C34 1_555 1_555
C35 C36 1_555 1_555
N8 C15 1_555 1_555
C4 C7 1_555 1_555
C7 H5 1_555 1_555
C12 C3 1_555 1_555
H10 C12 1_555 1_555
C15 H12 1_555 1_555
C16 C4 1_555 1_555
H13 C16 1_555 1_555
C19 N8 1_555 1_555
H15 C19 1_555 1_555
C24 N7 1_555 1_555
H20 C24 1_555 1_555
C7 C19 1_555 1_555
C12 C24 1_555 1_555
C15 C16 1_555 1_555
O1 H1 1_555 1_555
O2 C5 1_555 1_555
O4 C5 1_555 1_555
C5 C21 1_555 1_555
H9 C11 1_555 1_555
C21 O1 1_555 1_555
H17 C21 1_555 1_555
C40 H34 1_555 1_555
C41 H35 1_555 1_555
C42 C21 1_555 1_555
C43 C40 1_555 1_555
H36 C43 1_555 1_555
C44 C41 1_555 1_555
H37 C44 1_555 1_555
C45 C43 1_555 1_555
H38 C46 1_555 1_555
C48 C45 1_555 1_555
H41 C48 1_555 1_555
H42 C48 1_555 1_555
Co5 O1 1_555 1_555
O4 Co5 1_555 1_555
C11 C46 1_555 1_555
C40 C42 1_555 1_555
C41 C42 1_555 1_555
C44 C45 1_555 1_555
O7 H1_2 1_555 1_555
O2_2 C5_2 1_555 1_555
O8 C5_2 1_555 1_555
C5_2 C21_2 1_555 1_555
H9_2 C11_2 1_555 1_555
C21_2 O7 1_555 1_555
H17_2 C21_2 1_555 1_555
C40_2 H34_2 1_555 1_555
C41_2 H35_2 1_555 1_555
C42_2 C21_2 1_555 1_555
C43_2 C40_2 1_555 1_555
H36_2 C43_2 1_555 1_555
C44_2 C41_2 1_555 1_555
H37_2 C44_2 1_555 1_555
C45_2 C43_2 1_555 1_555
H38_2 C46_2 1_555 1_555
C48_2 C45_2 1_555 1_555
H41_2 C48_2 1_555 1_555
H42_2 C48_2 1_555 1_555
C11_2 C46_2 1_555 1_555
C40_2 C42_2 1_555 1_555
C41_2 C42_2 1_555 1_555
C44_2 C45_2 1_555 1_555
C12_2 C3_2 1_555 1_555
H10_2 C12_2 1_555 1_555
C24_2 N2 1_555 1_555
H20_2 C24_2 1_555 1_555
Co6 N2 1_555 1_555
C12_2 C24_2 1_555 1_555
O3_2 Co6 1_555 1_555
O5_2 Co6 1_555 1_555
O9 C28_2 1_555 1_555
N1_2 Co6 1_555 1_555
N5_2 Co6 1_555 1_555
C9_2 H7_2 1_555 1_555
C10_2 N5_2 1_555 1_555
C14_2 C2_2 1_555 1_555
H11_2 C14_2 1_555 1_555
C22_2 O3_2 1_555 1_555
H18_2 C22_2 1_555 1_555
C23_2 H19_2 1_555 1_555
C25_2 N5_2 1_555 1_555
H21_2 C25_2 1_555 1_555
C26_2 C27_2 1_555 1_555
C27_2 C10_2 1_555 1_555
H22_2 C27_2 1_555 1_555
C28_2 O5_2 1_555 1_555
C29_2 C9_2 1_555 1_555
H23_2 C29_2 1_555 1_555
C31_2 C23_2 1_555 1_555
H25_2 C31_2 1_555 1_555
C32_2 C9_2 1_555 1_555
C37_2 C25_2 1_555 1_555
H30_2 C37_2 1_555 1_555
C38_2 C22_2 1_555 1_555
C39_2 C32_2 1_555 1_555
H31_2 C39_2 1_555 1_555
H32_2 C39_2 1_555 1_555
H33_2 C39_2 1_555 1_555
C47_2 N1_2 1_555 1_555
H39_2 C47_2 1_555 1_555
C14_2 C47_2 1_555 1_555
C22_2 C28_2 1_555 1_555
C23_2 C32_2 1_555 1_555
C26_2 C37_2 1_555 1_555
C29_2 C38_2 1_555 1_555
C31_2 C38_2 1_555 1_555
N4 C15_2 1_555 1_555
C4_2 C7_2 1_555 1_555
C7_2 H5_2 1_555 1_555
C15_2 H12_2 1_555 1_555
C16_2 C4_2 1_555 1_555
H13_2 C16_2 1_555 1_555
C19_2 N4 1_555 1_555
H15_2 C19_2 1_555 1_555
Co5 N4 1_555 1_555
C7_2 C19_2 1_555 1_555
C15_2 C16_2 1_555 1_555
Co5 N3_2 1_555 1_555
N3_2 C17_2 1_555 1_555
N6_2 Co5 1_555 1_555
C6_2 H4_2 1_555 1_555
C17_2 H14_2 1_555 1_555
C20_2 N3_2 1_555 1_555
H16_2 C20_2 1_555 1_555
C30_2 C13_2 1_555 1_555
H24_2 C30_2 1_555 1_555
C33_2 N6_2 1_555 1_555
H26_2 C33_2 1_555 1_555
C34_2 C18_2 1_555 1_555
H27_2 C34_2 1_555 1_555
C35_2 C18_2 1_555 1_555
C36_2 N6_2 1_555 1_555
H29_2 C36_2 1_555 1_555
C6_2 C13_2 1_555 1_555
C6_2 C20_2 1_555 1_555
C17_2 C30_2 1_555 1_555
C33_2 C34_2 1_555 1_555
C35_2 C36_2 1_555 1_555
C1 H3 1_555 1_555
C8 C1 1_555 1_555
H6 C8 1_555 1_555
C1_2 H3_2 1_555 1_555
C8_2 C1_2 1_555 1_555
H6_2 C8_2 1_555 1_555
S1 O10 1_555 1_555
F1 C49 1_555 1_555
F2 C49 1_555 1_555
F3 C49 1_555 1_555
O11 S1 1_555 1_555
O12 S1 1_555 1_555
C49 S1 1_555 1_555
S1_2 O10_2 1_555 1_555
F1_2 C49_2 1_555 1_555
F2_2 C49_2 1_555 1_555
F3_2 C49_2 1_555 1_555
O11_2 S1_2 1_555 1_555
O12_2 S1_2 1_555 1_555
C49_2 S1_2 1_555 1_555
F4 C50 1_555 1_555
F5 C50 1_555 1_555
F6 C50 1_555 1_555
O14 S2 1_555 1_555
O15 S2 1_555 1_555
C50 S2 1_555 1_555
F4_2 C50_2 1_555 1_555
F5_2 C50_2 1_555 1_555
F6_2 C50_2 1_555 1_555
O14_2 S2_2 1_555 1_555
O15_2 S2_2 1_555 1_555
C50_2 S2_2 1_555 1_555

#END
