
###############################################################################
#
# This file contains modified crystal structure data generated from the
# MOF subset of the Cambridge Structural Database (CSD) v543 
# hosted by the Cambridge Crystallographic Data Centre (CCDC).
#
# This work is licensed under the Creative Commons
# Attribution-NonCommercial-ShareAlike 4.0 International License.
# To view a copy of this license, visit
# http://creativecommons.org/licenses/by-nc-sa/4.0/
# or send a letter to
# Creative Commons, PO Box 1866, Mountain View, CA 94042, USA.
#
# CIF created using the CSD Python API on 29 September 2022
# The structure has been converted into the P1 space group
# The structure has a 3D framework
# The original CSD entry NIRCID is in the monoclinic crystal system
# The original CSD entry NIRCID is in a Sohncke space group
# The framework has been calculated to contain at least 10.0% void space
# The void calculation uses a probe of radius 1.32A, grid spacing 0.4
# The framework is charged, counterions have been retained in the structure
#
###############################################################################

data_NIRCID
_chemical_formula_moiety         '(C96 H72 Cl4 Co4 F12 N12 O24 S4)n'
_symmetry_cell_setting           triclinic
_symmetry_space_group_name_H-M   'P 1'
_symmetry_Int_Tables_number      1
_space_group_name_Hall           'P 1'
loop_
_symmetry_equiv_pos_site_id
_symmetry_equiv_pos_as_xyz
1 x,y,z
_cell_length_a                   10.3260(5)
_cell_length_b                   25.5247(11)
_cell_length_c                   11.4411(5)
_cell_angle_alpha                90
_cell_angle_beta                 91.155(2)
_cell_angle_gamma                90
_cell_volume                     3014.9
loop_
_atom_site_label
_atom_site_type_symbol
_atom_site_fract_x
_atom_site_fract_y
_atom_site_fract_z
N6 N 0.0411(11) 0.4691(4) 0.2699(9)
C20 C 0.1500(13) 0.4580(6) 0.0877(12)
H15 H 0.2284 0.4512 0.0484
C32 C 0.0344(13) 0.4686(5) 0.0234(12)
C35 C 0.1472(13) 0.4578(6) 0.2102(11)
H28 H 0.2243 0.4491 0.2526
Co5 Co 0.03923(19) 0.46092(7) 0.46006(16)
N4 N 0.0283(9) 0.4607(4) 0.6469(9)
C4 C 0.1433(13) 0.4739(5) 0.8300(12)
H4 H 0.2230 0.4808 0.8700
C15 C 0.1393(14) 0.4715(6) 0.7119(12)
H11 H 0.2173 0.4776 0.6713
H21 H 0.0292 0.0710 0.4450
C39 C 0.0308(14) 0.4664(6) 0.8931(12)
O7 O 0.2265(8) 0.4269(3) 0.4734(7)
O8 O 0.0082(8) 0.3772(3) 0.4332(7)
N8 N 0.1221(11) 0.5376(4) 0.4749(9)
Co1 Co 0.54003(19) 0.37373(7) 0.46969(16)
Cl1 Cl 0.1894(4) 0.22607(13) 0.4131(3)
Cl2 Cl 0.7152(5) 0.60530(14) 0.4674(5)
O2 O 0.3471(8) 0.3546(3) 0.4713(7)
O4 O 0.8439(8) 0.4807(3) 0.4536(7)
O5 O 0.7263(9) 0.4071(3) 0.4671(7)
O6 O 0.5059(8) 0.4568(4) 0.4743(7)
H2 H 0.447(5) 0.4743(12) 0.513(8)
N1 N 0.5342(10) 0.3695(4) 0.2796(9)
N3 N 0.8779(11) 0.0376(4) 0.5251(9)
N5 N 0.6151(10) 0.2948(4) 0.4698(9)
C1 C 0.6164(12) 0.4906(5) 0.4623(12)
H3 H 0.6222 0.5146 0.5313
C2 C 0.7144(13) 0.1921(5) 0.4824(11)
C3 C 0.2421(12) 0.3780(6) 0.4666(10)
C5 C 0.7699(12) 0.1383(5) 0.4952(11)
C7 C 0.4289(14) 0.3606(6) 0.2157(11)
H5 H 0.3509 0.3535 0.2554
C8 C 0.7373(12) 0.4562(5) 0.4605(10)
C9 C 0.7605(13) 0.0496(5) 0.5614(12)
H6 H 0.7120 0.0228 0.5978
C10 C 0.7028(14) 0.0991(6) 0.5498(13)
H7 H 0.6189 0.1054 0.5793
C12 C 0.6445(14) 0.3757(6) 0.2210(12)
H9 H 0.7224 0.3805 0.2652
C13 C 0.5994(13) 0.5234(5) 0.3506(12)
C16 C 0.0992(12) 0.3063(5) 0.5474(11)
C18 C 0.8922(13) 0.1265(5) 0.4563(13)
H13 H 0.9411 0.1527 0.4181
C19 C 0.0446(17) 0.2410(6) 0.7325(13)
H14 H 0.0232 0.2185 0.7954
C21 C 0.5812(13) 0.2027(5) 0.4784(15)
H16 H 0.5200 0.1749 0.4793
C22 C 0.9196(14) 0.4573(7) 0.8312(12)
H17 H 0.8406 0.4529 0.8710
C23 C 0.0462(14) 0.3248(5) 0.6498(11)
H18 H 0.0261 0.3609 0.6572
C24 C 0.0221(17) 0.2906(6) 0.7424(13)
C26 C 0.9443(15) 0.0776(6) 0.4719(13)
C27 C 0.5389(12) 0.3691(5) 0.0357(10)
C28 C 0.1208(12) 0.3445(5) 0.4468(10)
H22 H 0.1313 0.3238 0.3733
C29 C 0.4241(14) 0.3608(6) 0.0947(11)
H23 H 0.3447 0.3554 0.0531
C30 C 0.5378(16) 0.5042(6) 0.2549(13)
H24 H 0.5068 0.4691 0.2560
C31 C 0.7967(15) 0.2360(6) 0.4762(14)
H25 H 0.8880 0.2315 0.4759
C33 C 0.9206(13) 0.4545(6) 0.7107(12)
H26 H 0.8410 0.4477 0.6703
C34 C 0.7423(14) 0.2865(6) 0.4705(14)
H27 H 0.7986 0.3158 0.4670
C36 C 0.0999(16) 0.2189(6) 0.6312(13)
H29 H 0.1173 0.1825 0.6253
C37 C 0.6523(15) 0.3756(6) 0.1001(11)
H30 H 0.7330 0.3798 0.0629
C41 C 0.1273(14) 0.2535(6) 0.5406(12)
C42 C 0.5413(15) 0.2530(6) 0.4732(15)
H33 H 0.4504 0.2588 0.4719
C43 C 0.6380(15) 0.5764(6) 0.3475(14)
C44 C 0.518(2) 0.5341(7) 0.1544(17)
H34 H 0.4861 0.5181 0.0847
C45 C 0.600(2) 0.6067(7) 0.262(2)
H35 H 0.6082 0.6436 0.2701
C46 C 0.545(2) 0.5861(9) 0.156(2)
H36 H 0.5278 0.6078 0.0899
N7 N 0.5432(11) 0.3719(4) 0.6594(9)
C6 C 0.5400(13) 0.3689(5) 0.9044(11)
C14 C 0.6482(15) 0.3588(5) 0.7219(11)
H10 H 0.7257 0.3512 0.6820
C25 C 0.6496(15) 0.3558(6) 0.8425(13)
H20 H 0.7259 0.3448 0.8832
C38 C 0.4296(14) 0.3813(6) 0.8390(12)
H31 H 0.3503 0.3881 0.8768
C40 C 0.4360(16) 0.3837(6) 0.7168(12)
H32 H 0.3610 0.3941 0.6733
Co6 Co 0.96077(19) 0.96092(7) 0.53994(16)
N2 N 0.4568(11) 0.8719(4) 0.3406(9)
C6_2 C 0.4600(13) 0.8689(5) 0.0956(11)
C14_2 C 0.3518(15) 0.8588(5) 0.2781(11)
H10_2 H 0.2743 0.8512 0.3180
C25_2 C 0.3504(15) 0.8558(6) 0.1575(13)
H20_2 H 0.2741 0.8448 0.1168
C38_2 C 0.5704(14) 0.8813(6) 0.1610(12)
H31_2 H 0.6497 0.8881 0.1232
C40_2 C 0.5640(16) 0.8837(6) 0.2832(12)
H32_2 H 0.6390 0.8941 0.3267
Co3 Co 0.45997(19) 0.87373(7) 0.53031(16)
Cl1_2 Cl 0.8106(4) 0.72607(13) 0.5869(3)
O1 O 0.7735(8) 0.9269(3) 0.5266(7)
O2_2 O 0.6529(8) 0.8546(3) 0.5287(7)
O3 O 0.9918(8) 0.8772(3) 0.5668(7)
O4_2 O 0.1561(8) 0.9807(3) 0.5464(7)
O5_2 O 0.2737(9) 0.9071(3) 0.5329(7)
O6_2 O 0.4941(8) 0.9568(4) 0.5257(7)
H2_2 H 0.553(5) 0.9743(12) 0.487(8)
N1_2 N 0.4658(10) 0.8695(4) 0.7204(9)
N5_2 N 0.3849(10) 0.7948(4) 0.5302(9)
C1_2 C 0.3836(12) 0.9906(5) 0.5377(12)
C2_2 C 0.2856(13) 0.6921(5) 0.5176(11)
C3_2 C 0.7579(12) 0.8780(6) 0.5334(10)
C5_2 C 0.2301(12) 0.6383(5) 0.5048(11)
C7_2 C 0.5711(14) 0.8606(6) 0.7843(11)
H5_2 H 0.6491 0.8535 0.7446
C8_2 C 0.2627(12) 0.9562(5) 0.5395(10)
C9_2 C 0.2395(13) 0.5496(5) 0.4386(12)
H6_2 H 0.2880 0.5228 0.4022
C10_2 C 0.2972(14) 0.5991(6) 0.4502(13)
H7_2 H 0.3811 0.6054 0.4207
C12_2 C 0.3555(14) 0.8757(6) 0.7790(12)
H9_2 H 0.2776 0.8805 0.7348
C16_2 C 0.9008(12) 0.8063(5) 0.4526(11)
C18_2 C 0.1078(13) 0.6265(5) 0.5437(13)
H13_2 H 0.0589 0.6527 0.5819
C19_2 C 0.9554(17) 0.7410(6) 0.2675(13)
H14_2 H 0.9768 0.7185 0.2046
C21_2 C 0.4188(13) 0.7027(5) 0.5216(15)
H16_2 H 0.4800 0.6749 0.5207
C22_2 C 0.0804(14) 0.9573(7) 0.1688(12)
H17_2 H 0.1594 0.9529 0.1290
C23_2 C 0.9538(14) 0.8248(5) 0.3502(11)
H18_2 H 0.9739 0.8609 0.3428
C24_2 C 0.9779(17) 0.7906(6) 0.2576(13)
C26_2 C 0.0557(15) 0.5776(6) 0.5281(13)
C27_2 C 0.4611(12) 0.8691(5) 0.9643(10)
C28_2 C 0.8792(12) 0.8445(5) 0.5532(10)
H22_2 H 0.8687 0.8238 0.6267
C29_2 C 0.5759(14) 0.8608(6) 0.9053(11)
H23_2 H 0.6553 0.8554 0.9469
H24_2 H 0.4932 0.9691 0.7440
C31_2 C 0.2033(15) 0.7360(6) 0.5238(14)
H25_2 H 0.1120 0.7315 0.5241
C33_2 C 0.0794(13) 0.9545(6) 0.2893(12)
H26_2 H 0.1590 0.9477 0.3297
C34_2 C 0.2577(14) 0.7865(6) 0.5295(14)
H27_2 H 0.2014 0.8158 0.5330
C36_2 C 0.9001(16) 0.7189(6) 0.3688(13)
H29_2 H 0.8827 0.6825 0.3747
C37_2 C 0.3477(15) 0.8756(6) 0.8999(11)
H30_2 H 0.2670 0.8798 0.9371
C41_2 C 0.8727(14) 0.7535(6) 0.4594(12)
C42_2 C 0.4587(15) 0.7530(6) 0.5268(15)
H33_2 H 0.5496 0.7588 0.5281
N4_2 N 0.9717(9) 0.9607(4) 0.3531(9)
C4_2 C 0.8567(13) 0.9739(5) 0.1700(12)
H4_2 H 0.7770 0.9808 0.1300
C15_2 C 0.8607(14) 0.9715(6) 0.2881(12)
H11_2 H 0.7827 0.9776 0.3287
H21_2 H 0.9708 0.5710 0.5550
C39_2 C 0.9692(14) 0.9664(6) 0.1069(12)
N9 N 0.9589(11) 0.9691(4) 0.7301(9)
C20_2 C 0.8500(13) 0.9580(6) 0.9123(12)
H15_2 H 0.7716 0.9512 0.9516
C32_2 C 0.9656(13) 0.9686(5) 0.9766(12)
C35_2 C 0.8528(13) 0.9578(6) 0.7898(11)
H28_2 H 0.7757 0.9491 0.7474
C11 C 0.9260(13) 0.4815(6) 0.0876(13)
H8 H 0.8478 0.4911 0.0480
C17 C 0.9307(14) 0.4805(6) 0.2078(13)
H12 H 0.8540 0.4880 0.2492
H1 H 0.966(8) 0.377(4) 0.364(5)
H19 H 0.9889 0.3040 0.8133
H1_2 H 0.034(8) 0.877(4) 0.636(5)
H19_2 H 0.0111 0.8040 0.1867
Cl2_2 Cl 0.2848(5) 0.10530(14) 0.5326(5)
H3_2 H 0.3778 0.0146 0.4687
C13_2 C 0.4006(13) 0.0234(5) 0.6494(12)
C30_2 C 0.4622(16) 0.0042(6) 0.7451(13)
C43_2 C 0.3620(15) 0.0764(6) 0.6525(14)
C44_2 C 0.482(2) 0.0341(7) 0.8456(17)
H34_2 H 0.5139 0.0181 0.9153
C45_2 C 0.400(2) 0.1067(7) 0.738(2)
H35_2 H 0.3918 0.1436 0.7299
C46_2 C 0.455(2) 0.0861(9) 0.844(2)
H36_2 H 0.4722 0.1078 0.9101
C11_2 C 0.0740(13) 0.9815(6) 0.9124(13)
H8_2 H 0.1522 0.9911 0.9520
C17_2 C 0.0693(14) 0.9805(6) 0.7922(13)
H12_2 H 0.1460 0.9880 0.7508
S1 S 0.5082(4) 0.5134(3) 0.7717(4)
F1 F 0.5903(18) 0.5974(6) 0.8817(13)
F2 F 0.602(3) 0.6026(7) 0.7027(15)
F3 F 0.418(2) 0.6108(6) 0.7677(16)
O9 O 0.4288(10) 0.5087(5) 0.6656(9)
O10 O 0.4468(15) 0.5021(7) 0.8784(12)
O11 O 0.6365(14) 0.4936(7) 0.7570(16)
C47 C 0.527(2) 0.5832(6) 0.7824(17)
S1_2 S 0.4918(4) 0.0134(3) 0.2283(4)
F1_2 F 0.4097(18) 0.0974(6) 0.1183(13)
F2_2 F 0.398(3) 0.1026(7) 0.2973(15)
F3_2 F 0.582(2) 0.1108(6) 0.2323(16)
O9_2 O 0.5712(10) 0.0087(5) 0.3344(9)
O10_2 O 0.5532(15) 0.0021(7) 0.1216(12)
C47_2 C 0.473(2) 0.0832(6) 0.2176(17)
O11_2 O 0.3635(14) 0.9936(7) 0.2430(16)
S2 S 0.0002(3) 0.32809(14) 0.1198(3)
O12 O 0.1357(9) 0.3221(4) 0.1377(10)
F4 F 0.9858(13) 0.2336(4) 0.0310(9)
F5 F 0.9647(13) 0.2363(4) 0.2167(10)
F6 F 0.8105(10) 0.2609(5) 0.1046(14)
O13 O 0.9568(11) 0.3489(4) 0.0075(8)
C48 C 0.9365(15) 0.2617(7) 0.1193(15)
O14 O 0.9351(10) 0.3506(4) 0.2169(8)
F4_2 F 0.0142(13) 0.7336(4) 0.9690(9)
F5_2 F 0.0353(13) 0.7363(4) 0.7833(10)
F6_2 F 0.1895(10) 0.7609(5) 0.8954(14)
O13_2 O 0.0432(11) 0.8489(4) 0.9925(8)
C48_2 C 0.0635(15) 0.7617(7) 0.8807(15)
O14_2 O 0.0649(10) 0.8506(4) 0.7831(8)
S2_2 S 0.9998(3) 0.82809(14) 0.8802(3)
O12_2 O 0.8643(9) 0.8221(4) 0.8623(10)
loop_
_geom_bond_atom_site_label_1
_geom_bond_atom_site_label_2
_geom_bond_site_symmetry_1
_geom_bond_site_symmetry_2
C20 H15 1_555 1_555
C35 N6 1_555 1_555
H28 C35 1_555 1_555
Co5 N6 1_555 1_555
C20 C32 1_555 1_555
C20 C35 1_555 1_555
N4 Co5 1_555 1_555
C4 H4 1_555 1_555
C15 N4 1_555 1_555
H11 C15 1_555 1_555
C39 C4 1_555 1_555
O7 Co5 1_555 1_555
O8 Co5 1_555 1_555
N8 Co5 1_555 1_555
C4 C15 1_555 1_555
Co1 O2 1_555 1_555
Cl1 C41 1_555 1_555
Cl2 C43 1_555 1_555
O7 C3 1_555 1_555
O2 C3 1_555 1_555
O4 C8 1_555 1_555
O5 Co1 1_555 1_555
O6 Co1 1_555 1_555
H2 O6 1_555 1_555
N1 Co1 1_555 1_555
N3 C9 1_555 1_555
N5 Co1 1_555 1_555
C1 O6 1_555 1_555
H3 C1 1_555 1_555
C2 C5 1_555 1_555
C3 C28 1_555 1_555
C5 C10 1_555 1_555
C7 N1 1_555 1_555
H5 C7 1_555 1_555
C8 O5 1_555 1_555
C9 H6 1_555 1_555
C10 C9 1_555 1_555
H7 C10 1_555 1_555
C12 N1 1_555 1_555
H9 C12 1_555 1_555
C13 C1 1_555 1_555
C16 C23 1_555 1_555
C18 C5 1_555 1_555
H13 C18 1_555 1_555
C19 H14 1_555 1_555
C21 C2 1_555 1_555
H16 C21 1_555 1_555
C22 H17 1_555 1_555
C23 H18 1_555 1_555
C24 C19 1_555 1_555
C26 N3 1_555 1_555
C28 O8 1_555 1_555
H22 C28 1_555 1_555
C29 C7 1_555 1_555
H23 C29 1_555 1_555
C30 C13 1_555 1_555
H24 C30 1_555 1_555
C31 C2 1_555 1_555
H25 C31 1_555 1_555
H26 C33 1_555 1_555
C34 N5 1_555 1_555
H27 C34 1_555 1_555
C36 C19 1_555 1_555
H29 C36 1_555 1_555
C37 C12 1_555 1_555
H30 C37 1_555 1_555
C41 C16 1_555 1_555
C42 N5 1_555 1_555
H33 C42 1_555 1_555
C43 C13 1_555 1_555
C44 C30 1_555 1_555
H34 C44 1_555 1_555
C45 C43 1_555 1_555
H35 C45 1_555 1_555
C46 C44 1_555 1_555
H36 C46 1_555 1_555
N7 Co1 1_555 1_555
C1 C8 1_555 1_555
C16 C28 1_555 1_555
C18 C26 1_555 1_555
C21 C42 1_555 1_555
C22 C33 1_555 1_555
C23 C24 1_555 1_555
C27 C29 1_555 1_555
C27 C37 1_555 1_555
C31 C34 1_555 1_555
C36 C41 1_555 1_555
C45 C46 1_555 1_555
N7 C14 1_555 1_555
C6 C25 1_555 1_555
C14 H10 1_555 1_555
C25 C14 1_555 1_555
H20 C25 1_555 1_555
C38 C6 1_555 1_555
H31 C38 1_555 1_555
C40 N7 1_555 1_555
H32 C40 1_555 1_555
C38 C40 1_555 1_555
N2 C14_2 1_555 1_555
C6_2 C25_2 1_555 1_555
C14_2 H10_2 1_555 1_555
C25_2 C14_2 1_555 1_555
H20_2 C25_2 1_555 1_555
C38_2 C6_2 1_555 1_555
H31_2 C38_2 1_555 1_555
C40_2 N2 1_555 1_555
H32_2 C40_2 1_555 1_555
Co3 N2 1_555 1_555
C38_2 C40_2 1_555 1_555
Co3 O2_2 1_555 1_555
Cl1_2 C41_2 1_555 1_555
O1 C3_2 1_555 1_555
O2_2 C3_2 1_555 1_555
O4_2 C8_2 1_555 1_555
O5_2 Co3 1_555 1_555
O6_2 Co3 1_555 1_555
H2_2 O6_2 1_555 1_555
N1_2 Co3 1_555 1_555
N8 C9_2 1_555 1_555
N5_2 Co3 1_555 1_555
C1_2 O6_2 1_555 1_555
C2_2 C5_2 1_555 1_555
C3_2 C28_2 1_555 1_555
C5_2 C10_2 1_555 1_555
C7_2 N1_2 1_555 1_555
H5_2 C7_2 1_555 1_555
C8_2 O5_2 1_555 1_555
C9_2 H6_2 1_555 1_555
C10_2 C9_2 1_555 1_555
H7_2 C10_2 1_555 1_555
C12_2 N1_2 1_555 1_555
H9_2 C12_2 1_555 1_555
C16_2 C23_2 1_555 1_555
C18_2 C5_2 1_555 1_555
H13_2 C18_2 1_555 1_555
C19_2 H14_2 1_555 1_555
C21_2 C2_2 1_555 1_555
H16_2 C21_2 1_555 1_555
C22_2 H17_2 1_555 1_555
C23_2 H18_2 1_555 1_555
C24_2 C19_2 1_555 1_555
C26_2 N8 1_555 1_555
C28_2 O3 1_555 1_555
H22_2 C28_2 1_555 1_555
C29_2 C7_2 1_555 1_555
H23_2 C29_2 1_555 1_555
C31_2 C2_2 1_555 1_555
H25_2 C31_2 1_555 1_555
H26_2 C33_2 1_555 1_555
C34_2 N5_2 1_555 1_555
H27_2 C34_2 1_555 1_555
C36_2 C19_2 1_555 1_555
H29_2 C36_2 1_555 1_555
C37_2 C12_2 1_555 1_555
H30_2 C37_2 1_555 1_555
C41_2 C16_2 1_555 1_555
C42_2 N5_2 1_555 1_555
H33_2 C42_2 1_555 1_555
Co6 O1 1_555 1_555
O3 Co6 1_555 1_555
C1_2 C8_2 1_555 1_555
C16_2 C28_2 1_555 1_555
C18_2 C26_2 1_555 1_555
C21_2 C42_2 1_555 1_555
C22_2 C33_2 1_555 1_555
C23_2 C24_2 1_555 1_555
C27_2 C29_2 1_555 1_555
C27_2 C37_2 1_555 1_555
C31_2 C34_2 1_555 1_555
C36_2 C41_2 1_555 1_555
N4_2 Co6 1_555 1_555
C4_2 H4_2 1_555 1_555
C15_2 N4_2 1_555 1_555
H11_2 C15_2 1_555 1_555
C39_2 C4_2 1_555 1_555
N9 Co6 1_555 1_555
C4_2 C15_2 1_555 1_555
C20_2 H15_2 1_555 1_555
C35_2 N9 1_555 1_555
H28_2 C35_2 1_555 1_555
C20_2 C32_2 1_555 1_555
C20_2 C35_2 1_555 1_555
C11 H8 1_555 1_555
C17 C11 1_555 1_555
H12 C17 1_555 1_555
Cl2_2 C43_2 1_555 1_555
C30_2 C13_2 1_555 1_555
C43_2 C13_2 1_555 1_555
C44_2 C30_2 1_555 1_555
H34_2 C44_2 1_555 1_555
C45_2 C43_2 1_555 1_555
H35_2 C45_2 1_555 1_555
C46_2 C44_2 1_555 1_555
H36_2 C46_2 1_555 1_555
C45_2 C46_2 1_555 1_555
C11_2 H8_2 1_555 1_555
C17_2 C11_2 1_555 1_555
H12_2 C17_2 1_555 1_555
S1 O9 1_555 1_555
F1 C47 1_555 1_555
F2 C47 1_555 1_555
F3 C47 1_555 1_555
O10 S1 1_555 1_555
O11 S1 1_555 1_555
C47 S1 1_555 1_555
S1_2 O9_2 1_555 1_555
F1_2 C47_2 1_555 1_555
F2_2 C47_2 1_555 1_555
F3_2 C47_2 1_555 1_555
O10_2 S1_2 1_555 1_555
C47_2 S1_2 1_555 1_555
S2 O12 1_555 1_555
F4 C48 1_555 1_555
F5 C48 1_555 1_555
F6 C48 1_555 1_555
F4_2 C48_2 1_555 1_555
F5_2 C48_2 1_555 1_555
F6_2 C48_2 1_555 1_555
S2_2 O12_2 1_555 1_555

#END
