
###############################################################################
#
# This file contains modified crystal structure data generated from the
# MOF subset of the Cambridge Structural Database (CSD) v543 
# hosted by the Cambridge Crystallographic Data Centre (CCDC).
#
# This work is licensed under the Creative Commons
# Attribution-NonCommercial-ShareAlike 4.0 International License.
# To view a copy of this license, visit
# http://creativecommons.org/licenses/by-nc-sa/4.0/
# or send a letter to
# Creative Commons, PO Box 1866, Mountain View, CA 94042, USA.
#
# CIF created using the CSD Python API on 29 September 2022
# The structure has been converted into the P1 space group
# The structure has a 3D framework
# The original CSD entry NIRDEX is in the orthorhombic crystal system
# The framework has been calculated to contain at least 10.0% void space
# The void calculation uses a probe of radius 1.32A, grid spacing 0.4
# H atom positions have been added when not included in the experimental data
# Generated hydrogen atom positions removed from atoms on special positions
#
###############################################################################

data_NIRDEX
_chemical_formula_moiety         '(C24 H38 Cd8 O60 Zr4)n'
_symmetry_cell_setting           triclinic
_symmetry_space_group_name_H-M   'P 1'
_symmetry_Int_Tables_number      1
_space_group_name_Hall           'P 1'
loop_
_symmetry_equiv_pos_site_id
_symmetry_equiv_pos_as_xyz
1 x,y,z
_cell_length_a                   11.2089(7)
_cell_length_b                   11.2083(6)
_cell_length_c                   8.4747(5)
_cell_angle_alpha                90
_cell_angle_beta                 90
_cell_angle_gamma                90
_cell_volume                     1064.7
loop_
_atom_site_label
_atom_site_type_symbol
_atom_site_fract_x
_atom_site_fract_y
_atom_site_fract_z
Cd5 Cd 0.0000 0.0000 0.42336(14)
Cd6 Cd 0.0000 0.0000 0.9248(3)
Cd5_2 Cd 0.0000 1.0000 0.42336(14)
Cd6_2 Cd 0.0000 1.0000 0.9248(3)
Zr1 Zr 0.5000 0.0000 0.1723(5)
O1 O 0.1218(7) 0.0000 0.157(3)
O3 O 0.1982(16) -0.0000 0.486(3)
O4 O 0.3848(9) 0.0000 0.3808(14)
O6 O 0.3139(9) -0.0000 0.0934(16)
C1 C 0.2288(12) 0.0000 0.189(3)
C2 C 0.2707(11) -0.0000 0.3650(17)
O11 O 0.8782(7) 0.0000 0.157(3)
O12 O 0.8018(16) -0.0000 0.486(3)
O13 O 0.6152(9) 0.0000 0.3808(14)
O14 O 0.6861(9) -0.0000 0.0934(16)
C5 C 0.7712(12) 0.0000 0.189(3)
C6 C 0.7293(11) -0.0000 0.3650(17)
O15 O 0.5000 0.3785(6) 0.179(3)
O17 O 0.5000 0.1864(9) 0.2460(15)
C7 C 0.5000 0.2713(11) 0.154(5)
O22 O 0.0000 0.1215(6) 0.679(3)
O25 O -0.0000 0.1967(13) 0.352(3)
Cd5_3 Cd 1.0000 0.0000 0.42336(14)
Cd8 Cd 0.5000 0.5000 0.4248(3)
O8 O 0.196(2) -0.0000 0.845(2)
O9 O 0.0000 0.195(3) 0.995(3)
O16 O 0.5000 0.3033(13) 0.852(3)
O18 O 0.5000 0.1136(10) 0.9616(16)
C8 C 0.5000 0.2298(14) 0.977(2)
Cd6_3 Cd 1.0000 0.0000 0.9248(3)
Cd7 Cd 0.5000 0.5000 0.92336(14)
H2 H 0.19965 -1.02293e-17 0.727927
H3 H 0.0831083 0.22568 0.99464
Zr1_2 Zr 0.5000 1.0000 0.1723(5)
O1_2 O 0.1218(7) 1.0000 0.157(3)
O2 O 0.5000 0.6215(6) 0.179(3)
O3_2 O 0.1982(16) 1.0000 0.486(3)
O4_2 O 0.3848(9) 1.0000 0.3808(14)
O6_2 O 0.3139(9) 1.0000 0.0934(16)
O7 O 0.5000 0.8136(9) 0.2460(15)
C1_2 C 0.2288(12) 1.0000 0.189(3)
C2_2 C 0.2707(11) 1.0000 0.3650(17)
C3 C 0.5000 0.7287(11) 0.154(5)
O11_2 O 0.8782(7) 1.0000 0.157(3)
O12_2 O 0.8018(16) 1.0000 0.486(3)
O13_2 O 0.6152(9) 1.0000 0.3808(14)
O14_2 O 0.6861(9) 1.0000 0.0934(16)
C5_2 C 0.7712(12) 1.0000 0.189(3)
C6_2 C 0.7293(11) 1.0000 0.3650(17)
O23 O 0.0000 0.8785(6) 0.679(3)
O26 O -0.0000 0.8033(13) 0.352(3)
Cd5_4 Cd 1.0000 1.0000 0.42336(14)
O5 O 0.5000 0.6967(13) 0.852(3)
O8_2 O 0.196(2) 1.0000 0.845(2)
O10 O 0.5000 0.8864(10) 0.9616(16)
C4 C 0.5000 0.7702(14) 0.977(2)
O20 O 0.0000 0.805(3) 0.995(3)
Cd6_4 Cd 1.0000 1.0000 0.9248(3)
H1 H 0.23651 0.927662 0.8863
H2_2 H 0.19965 1 0.727927
O22_2 O 1.0000 0.1215(6) 0.679(3)
O25_2 O 1.0000 0.1967(13) 0.352(3)
O9_2 O 1.0000 0.195(3) 0.995(3)
O19 O 0.804(2) -0.0000 0.845(2)
H4 H 0.95124 0.241307 0.918715
H5 H 0.76349 0.0723376 0.8863
H6 H 0.80035 1.02293e-17 0.727927
O23_2 O 1.0000 0.8785(6) 0.679(3)
O26_2 O 1.0000 0.8033(13) 0.352(3)
H7 H 0.965652 0.796502 0.10242
O19_2 O 0.804(2) 1.0000 0.845(2)
O20_2 O 1.0000 0.805(3) 0.995(3)
H6_2 H 0.80035 1 0.727927
H8 H 0.95124 0.758693 0.918715
H7_2 H 0.0343485 0.203498 0.10242
H8_2 H 0.0487598 0.241307 0.918715
H4_2 H 0.0487598 0.758693 0.918715
H3_2 H 0.916892 0.77432 0.99464
H5_2 H 0.23651 0.0723376 0.8863
H7_3 H 0.0343485 0.796502 0.10242
H3_3 H 0.916892 0.22568 0.99464
H1_2 H 0.76349 0.927662 0.8863
H3_4 H 0.0831083 0.77432 0.99464
H7_4 H 0.965652 0.203498 0.10242
Zr1_3 Zr 0.0000 0.5000 0.6723(5)
O7_2 O 0.0000 0.3136(9) 0.7460(15)
O10_2 O -0.0000 0.3864(10) 0.4616(16)
C3_2 C 0.0000 0.2287(11) 0.654(5)
C4_2 C -0.0000 0.2702(14) 0.477(2)
O11_3 O 0.3782(7) 0.5000 0.657(3)
O12_3 O 0.3018(16) 0.5000 0.986(3)
O13_3 O 0.1152(9) 0.5000 0.8808(14)
O14_3 O 0.1861(9) 0.5000 0.5934(16)
C5_3 C 0.2712(12) 0.5000 0.689(3)
C6_3 C 0.2293(11) 0.5000 0.8650(17)
O17_2 O -0.0000 0.6864(9) 0.7460(15)
O18_2 O -0.0000 0.6136(10) 0.4616(16)
C7_2 C 0.0000 0.7713(11) 0.654(5)
C8_2 C -0.0000 0.7298(14) 0.477(2)
Zr1_4 Zr 1.0000 0.5000 0.6723(5)
O1_3 O 0.6218(7) 0.5000 0.657(3)
O3_3 O 0.6982(16) 0.5000 0.986(3)
O4_3 O 0.8848(9) 0.5000 0.8808(14)
O6_3 O 0.8139(9) 0.5000 0.5934(16)
O7_3 O 1.0000 0.3136(9) 0.7460(15)
O8_3 O 0.696(2) 0.5000 0.345(2)
O9_3 O 0.5000 0.695(3) 0.495(3)
O10_3 O 1.0000 0.3864(10) 0.4616(16)
C1_3 C 0.7288(12) 0.5000 0.689(3)
C2_3 C 0.7707(11) 0.5000 0.8650(17)
C3_3 C 1.0000 0.2287(11) 0.654(5)
C4_3 C 1.0000 0.2702(14) 0.477(2)
O17_3 O 1.0000 0.6864(9) 0.7460(15)
O18_3 O 1.0000 0.6136(10) 0.4616(16)
C7_3 C 1.0000 0.7713(11) 0.654(5)
C8_3 C 1.0000 0.7298(14) 0.477(2)
O19_3 O 0.304(2) 0.5000 0.345(2)
O20_3 O 0.5000 0.305(3) 0.495(3)
loop_
_geom_bond_atom_site_label_1
_geom_bond_atom_site_label_2
_geom_bond_site_symmetry_1
_geom_bond_site_symmetry_2
Zr1 O4 1_555 1_555
Cd5 O1 1_555 1_555
O1 C1 1_555 1_555
O3 Cd5 1_555 1_555
O4 C2 1_555 1_555
O6 Zr1 1_555 1_555
C1 O6 1_555 1_555
C2 O3 1_555 1_555
O11 C5 1_555 1_555
O12 C6 1_555 1_555
O13 Zr1 1_555 1_555
O14 Zr1 1_555 1_555
C5 O14 1_555 1_555
C6 O13 1_555 1_555
O15 C7 1_555 1_555
O17 Zr1 1_555 1_555
C7 O17 1_555 1_555
O22 Cd5 1_555 1_555
O25 Cd5 1_555 1_555
Cd5_3 O11 1_555 1_555
Cd8 O15 1_555 1_555
C1 C2 1_555 1_555
O12 Cd5_3 1_555 1_555
C5 C6 1_555 1_555
O8 Cd6 1_555 1_555
O9 Cd6 1_555 1_555
O16 C8 1_555 1_555
C8 O18 1_555 1_555
O22 Cd6 1_555 1_555
O16 Cd7 1_555 1_555
O8 H2 1_555 1_555
O9 H3 1_555 1_555
Zr1_2 O4_2 1_555 1_555
Cd5_2 O1_2 1_555 1_555
O1_2 C1_2 1_555 1_555
O2 C3 1_555 1_555
O3_2 Cd5_2 1_555 1_555
O4_2 C2_2 1_555 1_555
O6_2 Zr1_2 1_555 1_555
O7 Zr1_2 1_555 1_555
C1_2 O6_2 1_555 1_555
C2_2 O3_2 1_555 1_555
C3 O7 1_555 1_555
O11_2 C5_2 1_555 1_555
O12_2 C6_2 1_555 1_555
O13_2 Zr1_2 1_555 1_555
O14_2 Zr1_2 1_555 1_555
C5_2 O14_2 1_555 1_555
C6_2 O13_2 1_555 1_555
O23 Cd5_2 1_555 1_555
O26 Cd5_2 1_555 1_555
Cd8 O2 1_555 1_555
Cd5_4 O11_2 1_555 1_555
C1_2 C2_2 1_555 1_555
O12_2 Cd5_4 1_555 1_555
C5_2 C6_2 1_555 1_555
O5 C4 1_555 1_555
O8_2 Cd6_2 1_555 1_555
C4 O10 1_555 1_555
O20 Cd6_2 1_555 1_555
O23 Cd6_2 1_555 1_555
O5 Cd7 1_555 1_555
O8_2 H1 1_555 1_555
O8_2 H2_2 1_555 1_555
O22_2 Cd5_3 1_555 1_555
O25_2 Cd5_3 1_555 1_555
O9_2 Cd6_3 1_555 1_555
O19 Cd6_3 1_555 1_555
O22_2 Cd6_3 1_555 1_555
O9_2 H4 1_555 1_555
O19 H5 1_555 1_555
O19 H6 1_555 1_555
O23_2 Cd5_4 1_555 1_555
O26_2 Cd5_4 1_555 1_555
O19_2 Cd6_4 1_555 1_555
O20_2 Cd6_4 1_555 1_555
O23_2 Cd6_4 1_555 1_555
O19_2 H6_2 1_555 1_555
O20_2 H8 1_555 1_555
O9 H8_2 1_555 1_555
O20 H4_2 1_555 1_555
O20_2 H3_2 1_555 1_555
O8 H5_2 1_555 1_555
O9_2 H3_3 1_555 1_555
O19_2 H1_2 1_555 1_555
O20 H3_4 1_555 1_555
O22 C3_2 1_555 1_555
O25 C4_2 1_555 1_555
O7_2 Zr1_3 1_555 1_555
O10_2 Zr1_3 1_555 1_555
C3_2 O7_2 1_555 1_555
C4_2 O10_2 1_555 1_555
O11_3 C5_3 1_555 1_555
O12_3 C6_3 1_555 1_555
O13_3 Zr1_3 1_555 1_555
O14_3 Zr1_3 1_555 1_555
C5_3 O14_3 1_555 1_555
C6_3 O13_3 1_555 1_555
O23 C7_2 1_555 1_555
O26 C8_2 1_555 1_555
O17_2 Zr1_3 1_555 1_555
O18_2 Zr1_3 1_555 1_555
C7_2 O17_2 1_555 1_555
C8_2 O18_2 1_555 1_555
Cd7 O11_3 1_555 1_555
Cd8 O11_3 1_555 1_555
C3_2 C4_2 1_555 1_555
O12_3 Cd7 1_555 1_555
C5_3 C6_3 1_555 1_555
C7_2 C8_2 1_555 1_555
Zr1_4 O4_3 1_555 1_555
Cd7 O1_3 1_555 1_555
Cd8 O1_3 1_555 1_555
O1_3 C1_3 1_555 1_555
O22_2 C3_3 1_555 1_555
O3_3 Cd7 1_555 1_555
O4_3 C2_3 1_555 1_555
O25_2 C4_3 1_555 1_555
O6_3 Zr1_4 1_555 1_555
O7_3 Zr1_4 1_555 1_555
O8_3 Cd8 1_555 1_555
O9_3 Cd8 1_555 1_555
O10_3 Zr1_4 1_555 1_555
C1_3 O6_3 1_555 1_555
C2_3 O3_3 1_555 1_555
C3_3 O7_3 1_555 1_555
C4_3 O10_3 1_555 1_555
O23_2 C7_3 1_555 1_555
O26_2 C8_3 1_555 1_555
O17_3 Zr1_4 1_555 1_555
O18_3 Zr1_4 1_555 1_555
C7_3 O17_3 1_555 1_555
C8_3 O18_3 1_555 1_555
O19_3 Cd8 1_555 1_555
O20_3 Cd8 1_555 1_555
C1_3 C2_3 1_555 1_555
C3_3 C4_3 1_555 1_555
C7_3 C8_3 1_555 1_555

#END
