
###############################################################################
#
# This file contains modified crystal structure data generated from the
# MOF subset of the Cambridge Structural Database (CSD) v543 
# hosted by the Cambridge Crystallographic Data Centre (CCDC).
#
# This work is licensed under the Creative Commons
# Attribution-NonCommercial-ShareAlike 4.0 International License.
# To view a copy of this license, visit
# http://creativecommons.org/licenses/by-nc-sa/4.0/
# or send a letter to
# Creative Commons, PO Box 1866, Mountain View, CA 94042, USA.
#
# CIF created using the CSD Python API on 29 September 2022
# The structure has been converted into the P1 space group
# The structure has a 3D framework
# The original CSD entry NIRPAI is in the tetragonal crystal system
# The original CSD entry NIRPAI is in a Sohncke space group
# The framework has been calculated to contain at least 10.0% void space
# The void calculation uses a probe of radius 1.32A, grid spacing 0.4
#
###############################################################################

data_NIRPAI
_chemical_formula_moiety         '(C84 H40 Al6 O38)n'
_symmetry_cell_setting           triclinic
_symmetry_space_group_name_H-M   'P 1'
_symmetry_Int_Tables_number      1
_space_group_name_Hall           'P 1'
loop_
_symmetry_equiv_pos_site_id
_symmetry_equiv_pos_as_xyz
1 x,y,z
_cell_length_a                   14.807(13)
_cell_length_b                   14.807(13)
_cell_length_c                   11.778(11)
_cell_angle_alpha                90
_cell_angle_beta                 90
_cell_angle_gamma                90
_cell_volume                     2582.29
loop_
_atom_site_label
_atom_site_type_symbol
_atom_site_fract_x
_atom_site_fract_y
_atom_site_fract_z
O4 O 0.6164(11) 0.3756(10) 0.3953(9)
O5 O 0.7156(7) 0.3945(11) 0.2541(9)
C6 C 0.6418(7) 0.4061(8) 0.3022(6)
C7 C 0.5749(2) 0.4641(3) 0.2403(5)
C8 C 0.500 0.500 0.3006(6)
C9 C 0.5749(2) 0.4641(3) 0.1197(3)
C10 C 0.500 0.500 0.0594(3)
H4 H 0.500 0.500 0.3897(10)
H5 H 0.6303(6) 0.4376(6) 0.0751(5)
O6 O 0.3836(11) 0.6244(10) 0.3953(9)
O7 O 0.2844(7) 0.6055(11) 0.2541(9)
C11 C 0.3582(7) 0.5939(8) 0.3022(6)
C12 C 0.4251(2) 0.5359(3) 0.2403(5)
C13 C 0.4251(2) 0.5359(3) 0.1197(3)
H6 H 0.3697(6) 0.5624(6) 0.0751(5)
Al2 Al 0.8054(7) 0.3054(7) 0.250
O10 O 0.7509(8) 0.250 0.125
H8 H 0.678(3) 0.250 0.125
Al3 Al 0.6946(7) 0.3054(7) 0.500
Al5 Al 0.8054(7) 0.1946(7) -0.000
Al7 Al 0.1946(7) 0.6946(7) 0.250
Al9 Al 0.3054(7) 0.6946(7) 0.500
O12 O 0.750 0.2509(8) 0.375
O13 O 0.8756(10) 0.3836(11) 0.1453(9)
O15 O 0.8836(11) 0.3756(10) 0.3547(9)
O18 O 0.8945(11) 0.2156(7) 0.2459(9)
O1 O 0.7491(8) 0.250 0.625
O2 O 0.6244(10) 0.3836(11) 0.6047(9)
O3 O 0.6055(11) 0.2844(7) 0.7459(9)
C1 C 0.5939(8) 0.3582(7) 0.6978(6)
C2 C 0.5359(3) 0.4251(2) 0.7597(5)
C3 C 0.500 0.500 0.6994(6)
C4 C 0.5359(3) 0.4251(2) 0.8803(3)
C5 C 0.500 0.500 0.9406(3)
H1 H 0.500 0.500 0.6103(10)
H2 H 0.5624(6) 0.3697(6) 0.9249(5)
H3 H 0.822(3) 0.250 0.625
O8 O 0.3756(10) 0.6164(11) 0.6047(9)
O9 O 0.3945(11) 0.7156(7) 0.7459(9)
C14 C 0.4061(8) 0.6418(7) 0.6978(6)
C15 C 0.4641(3) 0.5749(2) 0.7597(5)
C16 C 0.4641(3) 0.5749(2) 0.8803(3)
H7 H 0.4376(6) 0.6303(6) 0.9249(5)
Al4 Al 0.6946(7) 0.1946(7) 0.750
Al5_2 Al 0.8054(7) 0.1946(7) 1.000
Al6 Al 0.3054(7) 0.8054(7) 0.750
O16 O 0.7844(7) 0.3945(11) 0.4959(9)
O17 O 0.6055(11) 0.2156(7) 0.5041(9)
C3_2 C -0.000 0.500 0.0506(6)
H1_2 H -0.000 0.500 0.1397(10)
O8_2 O 0.1244(10) 0.6164(11) 0.1453(9)
O9_2 O 0.1055(11) 0.7156(7) 0.0041(9)
C14_2 C 0.0939(8) 0.6418(7) 0.0522(6)
Al6_2 Al 0.1946(7) 0.8054(7) 0.000
C5_2 C -0.000 0.500 0.8094(3)
C8_2 C 0.000 0.500 0.4494(6)
C10_2 C -0.000 0.500 0.6906(3)
H4_2 H 0.000 0.500 0.3603(10)
O6_2 O 0.1164(11) 0.6244(10) 0.3547(9)
O7_2 O 0.2156(7) 0.6055(11) 0.4959(9)
C11_2 C 0.1418(7) 0.5939(8) 0.4478(6)
C12_2 C 0.0749(2) 0.5359(3) 0.5097(5)
C13_2 C 0.0749(2) 0.5359(3) 0.6303(3)
H6_2 H 0.1303(6) 0.5624(6) 0.6749(5)
C15_2 C 0.0359(3) 0.5749(2) 0.9903(5)
C16_2 C 0.0359(3) 0.5749(2) 0.8697(3)
H7_2 H 0.0624(6) 0.6303(6) 0.8251(5)
Al6_3 Al 0.1946(7) 0.8054(7) 1.000
O3_2 O 0.8945(11) 0.2844(7) 0.0041(9)
C1_2 C 0.9061(8) 0.3582(7) 0.0522(6)
C3_3 C 1.000 0.500 0.0506(6)
H1_3 H 1.000 0.500 0.1397(10)
C2_2 C 0.9641(3) 0.4251(2) 0.9903(5)
C4_2 C 0.9641(3) 0.4251(2) 0.8697(3)
C5_3 C 1.000 0.500 0.8094(3)
H2_2 H 0.9376(6) 0.3697(6) 0.8251(5)
C6_2 C 0.8582(7) 0.4061(8) 0.4478(6)
C7_2 C 0.9251(2) 0.4641(3) 0.5097(5)
C8_3 C 1.000 0.500 0.4494(6)
C9_2 C 0.9251(2) 0.4641(3) 0.6303(3)
C10_3 C 1.000 0.500 0.6906(3)
H4_3 H 1.000 0.500 0.3603(10)
H5_2 H 0.8697(6) 0.4376(6) 0.6749(5)
H3_2 H 0.750 0.178(3) 0.375
O10_2 O 0.750 0.2491(8) 0.875
H8_2 H 0.750 0.322(3) 0.875
O13_2 O 0.6164(11) 0.1244(10) 0.8547(9)
O15_2 O 0.6244(10) 0.1164(11) 0.6453(9)
O18_2 O 0.7844(7) 0.1055(11) 0.7541(9)
C2_3 C 0.5749(2) 0.0359(3) 0.0097(5)
C4_3 C 0.5749(2) 0.0359(3) 0.1303(3)
C5_4 C 0.500 0.000 0.1906(3)
H2_3 H 0.6303(6) 0.0624(6) 0.1749(5)
C6_3 C 0.5939(8) 0.1418(7) 0.5522(6)
C7_3 C 0.5359(3) 0.0749(2) 0.4903(5)
C8_4 C 0.500 0.000 0.5506(6)
C9_3 C 0.5359(3) 0.0749(2) 0.3697(3)
C10_4 C 0.500 0.000 0.3094(3)
H4_4 H 0.500 0.000 0.6397(10)
H5_3 H 0.5624(6) 0.1303(6) 0.3251(5)
O3_3 O 0.7156(7) 0.1055(11) 0.9959(9)
C1_3 C 0.6418(7) 0.0939(8) 0.9478(6)
C3_4 C 0.500 0.000 0.9494(6)
H1_4 H 0.500 0.000 0.8603(10)
C5_5 C 0.500 1.000 0.1906(3)
C8_5 C 0.500 1.000 0.5506(6)
C10_5 C 0.500 1.000 0.3094(3)
H4_5 H 0.500 1.000 0.6397(10)
O6_3 O 0.3756(10) 0.8836(11) 0.6453(9)
O7_3 O 0.3945(11) 0.7844(7) 0.5041(9)
C11_3 C 0.4061(8) 0.8582(7) 0.5522(6)
C12_3 C 0.4641(3) 0.9251(2) 0.4903(5)
C13_3 C 0.4641(3) 0.9251(2) 0.3697(3)
H6_3 H 0.4376(6) 0.8697(6) 0.3251(5)
C15_3 C 0.4251(2) 0.9641(3) 0.0097(5)
C16_3 C 0.4251(2) 0.9641(3) 0.1303(3)
H7_3 H 0.3697(6) 0.9376(6) 0.1749(5)
C3_5 C 0.500 1.000 0.9494(6)
H1_5 H 0.500 1.000 0.8603(10)
O8_3 O 0.3836(11) 0.8756(10) 0.8547(9)
O9_3 O 0.2844(7) 0.8945(11) 0.9959(9)
C14_3 C 0.3582(7) 0.9061(8) 0.9478(6)
O15_3 O 0.8756(10) 0.1164(11) 0.1047(9)
O13_3 O 0.8836(11) 0.1244(10) 0.8953(9)
C3_6 C 0.000 1.000 0.8006(6)
C5_6 C 0.000 1.000 0.5594(3)
H1_6 H -0.000 1.000 0.8897(10)
C8_6 C -0.000 1.000 0.1994(6)
C10_6 C 0.000 1.000 0.4406(3)
H4_6 H -0.000 1.000 0.1103(10)
O6_4 O 0.1244(10) 0.8836(11) 0.1047(9)
O7_4 O 0.1055(11) 0.7844(7) 0.2459(9)
C11_4 C 0.0939(8) 0.8582(7) 0.1978(6)
C12_4 C 0.0359(3) 0.9251(2) 0.2597(5)
C13_4 C 0.0359(3) 0.9251(2) 0.3803(3)
H6_4 H 0.0624(6) 0.8697(6) 0.4249(5)
O8_4 O 0.1164(11) 0.8756(10) 0.8953(9)
O9_4 O 0.2156(7) 0.8945(11) 0.7541(9)
C14_4 C 0.1418(7) 0.9061(8) 0.8022(6)
C15_4 C 0.0749(2) 0.9641(3) 0.7403(5)
C16_4 C 0.0749(2) 0.9641(3) 0.6197(3)
H7_4 H 0.1303(6) 0.9376(6) 0.5751(5)
C1_4 C 0.8582(7) 0.0939(8) 0.8022(6)
C2_4 C 0.9251(2) 0.0359(3) 0.7403(5)
C3_7 C 1.000 0.000 0.8006(6)
C4_4 C 0.9251(2) 0.0359(3) 0.6197(3)
C5_7 C 1.000 0.000 0.5594(3)
H1_7 H 1.000 0.000 0.8897(10)
H2_4 H 0.8697(6) 0.0624(6) 0.5751(5)
C6_4 C 0.9061(8) 0.1418(7) 0.1978(6)
C7_4 C 0.9641(3) 0.0749(2) 0.2597(5)
C8_7 C 1.000 0.000 0.1994(6)
C9_4 C 0.9641(3) 0.0749(2) 0.3803(3)
C10_7 C 1.000 0.000 0.4406(3)
H4_7 H 1.000 -0.000 0.1103(10)
H5_4 H 0.9376(6) 0.1303(6) 0.4249(5)
O1_2 O 0.2491(8) 0.750 0.125
H3_3 H 0.322(3) 0.750 0.125
O10_3 O 0.2509(8) 0.750 0.625
H8_3 H 0.178(3) 0.750 0.625
O12_2 O 0.250 0.7509(8) 0.875
H3_4 H 0.250 0.678(3) 0.875
O10_4 O 0.250 0.7491(8) 0.375
H8_4 H 0.250 0.822(3) 0.375
C3_8 C 0.000 0.000 0.8006(6)
C5_8 C 0.000 0.000 0.5594(3)
H1_8 H -0.000 0.000 0.8897(10)
C8_8 C 0.000 0.000 0.1994(6)
C10_8 C 0.000 0.000 0.4406(3)
H4_8 H -0.000 -0.000 0.1103(10)
C3_9 C 1.000 1.000 0.8006(6)
C5_9 C 1.000 1.000 0.5594(3)
H1_9 H 1.000 1.000 0.8897(10)
C8_9 C 1.000 1.000 0.1994(6)
C10_9 C 1.000 1.000 0.4406(3)
H4_9 H 1.000 1.000 0.1103(10)
loop_
_geom_bond_atom_site_label_1
_geom_bond_atom_site_label_2
_geom_bond_site_symmetry_1
_geom_bond_site_symmetry_2
O4 C6 1_555 1_555
O5 C6 1_555 1_555
C6 C7 1_555 1_555
C7 C8 1_555 1_555
C8 H4 1_555 1_555
C9 C7 1_555 1_555
H5 C9 1_555 1_555
O6 C11 1_555 1_555
O7 C11 1_555 1_555
C11 C12 1_555 1_555
C12 C8 1_555 1_555
C13 C10 1_555 1_555
H6 C13 1_555 1_555
Al2 O5 1_555 1_555
O10 Al2 1_555 1_555
H8 O10 1_555 1_555
Al3 O4 1_555 1_555
Al5 O10 1_555 1_555
Al7 O7 1_555 1_555
Al9 O6 1_555 1_555
O12 Al2 1_555 1_555
O13 Al2 1_555 1_555
O15 Al2 1_555 1_555
O18 Al2 1_555 1_555
C9 C10 1_555 1_555
C12 C13 1_555 1_555
Al3 O12 1_555 1_555
Al3 O1 1_555 1_555
O1 H3 1_555 1_555
O2 Al3 1_555 1_555
O3 C1 1_555 1_555
C1 O2 1_555 1_555
C2 C1 1_555 1_555
C3 C2 1_555 1_555
C4 C2 1_555 1_555
C5 C4 1_555 1_555
H1 C3 1_555 1_555
H2 C4 1_555 1_555
O8 C14 1_555 1_555
O9 C14 1_555 1_555
C14 C15 1_555 1_555
C15 C3 1_555 1_555
C16 C5 1_555 1_555
H7 C16 1_555 1_555
Al4 O1 1_555 1_555
Al6 O9 1_555 1_555
Al9 O8 1_555 1_555
O16 Al3 1_555 1_555
O17 Al3 1_555 1_555
O3 Al4 1_555 1_555
C15 C16 1_555 1_555
H1_2 C3_2 1_555 1_555
O8_2 C14_2 1_555 1_555
O9_2 C14_2 1_555 1_555
Al6_2 O9_2 1_555 1_555
Al7 O8_2 1_555 1_555
C8_2 H4_2 1_555 1_555
C10_2 C5_2 1_555 1_555
O6_2 C11_2 1_555 1_555
O7_2 C11_2 1_555 1_555
C11_2 C12_2 1_555 1_555
C12_2 C8_2 1_555 1_555
C13_2 C10_2 1_555 1_555
H6_2 C13_2 1_555 1_555
C16_2 C5_2 1_555 1_555
H7_2 C16_2 1_555 1_555
Al9 O7_2 1_555 1_555
Al7 O6_2 1_555 1_555
C12_2 C13_2 1_555 1_555
C15_2 C16_2 1_555 1_555
O3_2 C1_2 1_555 1_555
C1_2 O13 1_555 1_555
H1_3 C3_3 1_555 1_555
O3_2 Al5 1_555 1_555
C4_2 C2_2 1_555 1_555
C5_3 C4_2 1_555 1_555
H2_2 C4_2 1_555 1_555
O15 C6_2 1_555 1_555
O16 C6_2 1_555 1_555
C6_2 C7_2 1_555 1_555
C7_2 C8_3 1_555 1_555
C8_3 H4_3 1_555 1_555
C9_2 C7_2 1_555 1_555
C10_3 C5_3 1_555 1_555
H5_2 C9_2 1_555 1_555
C9_2 C10_3 1_555 1_555
O12 H3_2 1_555 1_555
O10_2 Al4 1_555 1_555
H8_2 O10_2 1_555 1_555
Al5_2 O10_2 1_555 1_555
O13_2 Al4 1_555 1_555
O15_2 Al4 1_555 1_555
O18_2 Al4 1_555 1_555
C4_3 C2_3 1_555 1_555
C5_4 C4_3 1_555 1_555
H2_3 C4_3 1_555 1_555
O15_2 C6_3 1_555 1_555
O17 C6_3 1_555 1_555
C6_3 C7_3 1_555 1_555
C7_3 C8_4 1_555 1_555
C8_4 H4_4 1_555 1_555
C9_3 C7_3 1_555 1_555
C10_4 C5_4 1_555 1_555
H5_3 C9_3 1_555 1_555
C9_3 C10_4 1_555 1_555
O3_3 C1_3 1_555 1_555
C1_3 O13_2 1_555 1_555
H1_4 C3_4 1_555 1_555
O3_3 Al5_2 1_555 1_555
C8_5 H4_5 1_555 1_555
C10_5 C5_5 1_555 1_555
O6_3 C11_3 1_555 1_555
O7_3 C11_3 1_555 1_555
C11_3 C12_3 1_555 1_555
C12_3 C8_5 1_555 1_555
C13_3 C10_5 1_555 1_555
H6_3 C13_3 1_555 1_555
C16_3 C5_5 1_555 1_555
H7_3 C16_3 1_555 1_555
Al9 O7_3 1_555 1_555
Al6 O6_3 1_555 1_555
C12_3 C13_3 1_555 1_555
C15_3 C16_3 1_555 1_555
H1_5 C3_5 1_555 1_555
O8_3 C14_3 1_555 1_555
O9_3 C14_3 1_555 1_555
Al6_3 O9_3 1_555 1_555
Al6 O8_3 1_555 1_555
O15_3 Al5 1_555 1_555
O13_3 Al5_2 1_555 1_555
H1_6 C3_6 1_555 1_555
C8_6 H4_6 1_555 1_555
C10_6 C5_6 1_555 1_555
O6_4 C11_4 1_555 1_555
O7_4 C11_4 1_555 1_555
C11_4 C12_4 1_555 1_555
C12_4 C8_6 1_555 1_555
C13_4 C10_6 1_555 1_555
H6_4 C13_4 1_555 1_555
O8_4 C14_4 1_555 1_555
O9_4 C14_4 1_555 1_555
C14_4 C15_4 1_555 1_555
C15_4 C3_6 1_555 1_555
C16_4 C5_6 1_555 1_555
H7_4 C16_4 1_555 1_555
Al6 O9_4 1_555 1_555
Al7 O7_4 1_555 1_555
Al6_3 O8_4 1_555 1_555
Al6_2 O6_4 1_555 1_555
C12_4 C13_4 1_555 1_555
C15_4 C16_4 1_555 1_555
O18_2 C1_4 1_555 1_555
C1_4 O13_3 1_555 1_555
C2_4 C1_4 1_555 1_555
C3_7 C2_4 1_555 1_555
C4_4 C2_4 1_555 1_555
C5_7 C4_4 1_555 1_555
H1_7 C3_7 1_555 1_555
H2_4 C4_4 1_555 1_555
O15_3 C6_4 1_555 1_555
O18 C6_4 1_555 1_555
C6_4 C7_4 1_555 1_555
C7_4 C8_7 1_555 1_555
C8_7 H4_7 1_555 1_555
C9_4 C7_4 1_555 1_555
C10_7 C5_7 1_555 1_555
H5_4 C9_4 1_555 1_555
C9_4 C10_7 1_555 1_555
Al6_2 O1_2 1_555 1_555
O1_2 H3_3 1_555 1_555
O10_3 Al6 1_555 1_555
H8_3 O10_3 1_555 1_555
Al7 O1_2 1_555 1_555
Al9 O10_3 1_555 1_555
O12_2 Al6 1_555 1_555
Al6_3 O12_2 1_555 1_555
O12_2 H3_4 1_555 1_555
O10_4 Al7 1_555 1_555
H8_4 O10_4 1_555 1_555
Al9 O10_4 1_555 1_555
H1_8 C3_8 1_555 1_555
C8_8 H4_8 1_555 1_555
C10_8 C5_8 1_555 1_555
H1_9 C3_9 1_555 1_555
C8_9 H4_9 1_555 1_555
C10_9 C5_9 1_555 1_555

#END
