
###############################################################################
#
# This file contains modified crystal structure data generated from the
# MOF subset of the Cambridge Structural Database (CSD) v543 
# hosted by the Cambridge Crystallographic Data Centre (CCDC).
#
# This work is licensed under the Creative Commons
# Attribution-NonCommercial-ShareAlike 4.0 International License.
# To view a copy of this license, visit
# http://creativecommons.org/licenses/by-nc-sa/4.0/
# or send a letter to
# Creative Commons, PO Box 1866, Mountain View, CA 94042, USA.
#
# CIF created using the CSD Python API on 29 September 2022
# The structure has been converted into the P1 space group
# The structure has a 3D framework
# The original CSD entry NIRROY is in the triclinic crystal system
# The framework has been calculated to contain at least 10.0% void space
# The void calculation uses a probe of radius 1.32A, grid spacing 0.4
# H atom positions have been added when not included in the experimental data
#
###############################################################################

data_NIRROY
_chemical_formula_moiety         '(C104 H84 N4 O32 Zn8)n'
_symmetry_cell_setting           triclinic
_symmetry_space_group_name_H-M   'P 1'
_symmetry_Int_Tables_number      1
_space_group_name_Hall           'P 1'
loop_
_symmetry_equiv_pos_site_id
_symmetry_equiv_pos_as_xyz
1 x,y,z
_cell_length_a                   14.158(3)
_cell_length_b                   15.074(3)
_cell_length_c                   15.307(3)
_cell_angle_alpha                94.191(4)
_cell_angle_beta                 103.288(4)
_cell_angle_gamma                100.238(3)
_cell_volume                     3106.48
loop_
_atom_site_label
_atom_site_type_symbol
_atom_site_fract_x
_atom_site_fract_y
_atom_site_fract_z
N1 N 0.0160(12) 0.1600(11) 0.0967(10)
C3 C 0.058(2) 0.116(2) 0.1730(19)
H5 H 0.0743 0.1564 0.2308
H6 H 0.1176 0.0934 0.1655
C52 C 0.0709(19) 0.2433(19) 0.0836(17)
H39 H 0.1003 0.2351 0.0338
H40 H 0.1220 0.2665 0.1376
H41 H 0.0274 0.2854 0.0713
C1 C 0.9393(6) 0.1021(7) 0.0341(5)
C2 C 0.9036(13) 0.0239(11) 0.0711(12)
H4 H 0.8319 0.0189 0.0667
C4 C 0.9547(16) 0.0273(15) 0.1633(12)
H8 H 0.9135 0.0418 0.2044
O23 O 0.7886(5) 0.2694(4) 0.0511(3)
O24 O 0.6650(4) 0.1486(4) 0.0355(3)
Zn1 Zn 0.79846(5) 0.09917(5) 0.85028(5)
Zn2 Zn 0.58661(5) 0.12975(4) 0.89753(5)
Zn3 Zn 0.66120(5) 0.19874(6) 0.72182(5)
Zn4 Zn 0.76570(5) 0.29043(5) 0.92192(5)
O1 O 0.7012(3) 0.1759(3) 0.8454(3)
O4 O 0.4815(4) 0.0969(4) 0.7683(4)
O5 O 0.5210(4) 0.1795(6) 0.6624(4)
O14 O 0.9103(9) 0.1335(12) 0.9552(8)
O15 O 0.7105(6) 0.3288(5) 0.7159(5)
O16 O 0.4546(4) 0.0931(4) 0.9479(4)
H1 H 0.4496 0.1464 0.9691
H2 H 0.4638 0.0560 0.9901
N2 N 0.7221(8) 0.4845(7) 0.7206(8)
C26 C 0.4574(5) 0.1395(6) 0.7026(5)
C27 C 0.3515(5) 0.1384(6) 0.6684(5)
C28 C 0.2891(6) 0.1191(7) 0.7210(5)
H20 H 0.3140 0.1093 0.7819
C29 C 0.1877(6) 0.1134(8) 0.6872(6)
H21 H 0.1452 0.0929 0.7245
C30 C 0.1457(5) 0.1350(7) 0.6050(5)
C31 C 0.2203(9) 0.1989(11) 0.5686(9)
H22 H 0.1980 0.2369 0.5247
C32 C 0.3237(10) 0.2008(12) 0.6015(10)
H23 H 0.3721 0.2404 0.5812
C33 C 0.0396(5) 0.1329(6) 0.5711(5)
H26 H 0.0398 0.1632 0.4443
C47 C 0.6680(9) 0.3968(7) 0.6966(8)
C48 C 0.6533(10) 0.5453(7) 0.6817(11)
H30 H 0.6496 0.5910 0.7300
H31 H 0.6788 0.5778 0.6353
C49 C 0.5542(10) 0.4896(9) 0.6408(11)
H32 H 0.5303 0.5018 0.5776
H33 H 0.5065 0.5033 0.6754
C50 C 0.5649(8) 0.3931(7) 0.6435(10)
H34 H 0.5165 0.3599 0.6731
H35 H 0.5542 0.3623 0.5816
C51 C 0.8286(11) 0.5110(12) 0.7814(14)
H36 H 0.8247 0.5343 0.8402
H37 H 0.8688 0.5565 0.7575
H38 H 0.8577 0.4581 0.7859
O17 O 0.6692(3) 0.3697(3) 0.9035(4)
O18 O 0.5382(4) 0.2574(3) 0.9026(4)
O19 O 0.8970(4) 0.3582(4) 0.9216(4)
O20 O 0.9148(9) 0.2266(8) 0.8676(9)
O21 O 0.8390(3) 0.0734(4) 0.7359(3)
O22 O 0.7298(3) 0.1384(4) 0.6435(3)
O2 O 0.7294(4) 0.9702(3) 0.8558(4)
O3 O 0.5908(4) 0.9938(3) 0.8937(4)
C5 C 0.6495(5) 0.9437(4) 0.8734(4)
C6 C 0.6121(5) 0.8440(4) 0.8698(5)
C7 C 0.5110(5) 0.8080(5) 0.8353(6)
H9 H 0.4674 0.8464 0.8114
C8 C 0.4742(5) 0.7166(5) 0.8357(6)
H10 H 0.4059 0.6928 0.8091
C9 C 0.5328(5) 0.6595(4) 0.8731(5)
C10 C 0.6345(5) 0.6979(5) 0.9130(6)
H11 H 0.6768 0.6602 0.9408
C11 C 0.6730(5) 0.7880(5) 0.9125(6)
H12 H 0.7407 0.8123 0.9410
C12 C 0.4903(5) 0.5622(4) 0.8778(5)
C13 C 0.5516(4) 0.4975(4) 0.8844(5)
H13 H 0.6198 0.5157 0.8862
C14 C 0.5115(5) 0.4063(4) 0.8882(5)
C15 C 0.5778(5) 0.3393(4) 0.8986(4)
C16 C 0.4115(5) 0.3791(4) 0.8820(5)
H14 H 0.3844 0.3166 0.8807
C17 C 0.3499(4) 0.4416(4) 0.8774(5)
C18 C 0.2433(5) 0.4129(5) 0.8766(6)
C19 C 0.1947(5) 0.4658(5) 0.9219(6)
H15 H 0.2288 0.5239 0.9520
C20 C 0.0986(5) 0.4355(5) 0.9238(6)
H16 H 0.0677 0.4713 0.9578
C21 C 0.0445(5) 0.3511(5) 0.8755(6)
C23 C 0.0938(5) 0.2996(6) 0.8316(7)
H17 H 0.0589 0.2425 0.7993
C24 C 0.1958(6) 0.3285(6) 0.8326(8)
H18 H 0.2296 0.2908 0.8038
C25 C 0.3915(5) 0.5335(4) 0.8761(5)
H19 H 0.3504 0.5771 0.8740
C34 C 0.9733(5) 0.1164(6) 0.6280(4)
H24 H 0.9990 0.1053 0.6883
C35 C 0.8754(5) 0.1160(5) 0.6001(4)
C36 C 0.8110(4) 0.1081(5) 0.6664(4)
C37 C 0.8361(5) 0.1349(5) 0.5116(4)
H25 H 0.7675 0.1354 0.4919
C38 C 0.8979(5) 0.1531(5) 0.4529(4)
C39 C 0.9979(5) 0.1513(6) 0.4842(4)
C40 C 0.8547(5) 0.1693(5) 0.3579(4)
C41 C 0.9041(6) 0.2378(7) 0.3183(5)
H27 H 0.9648 0.2752 0.3517
C42 C 0.8641(6) 0.2506(6) 0.2310(5)
H28 H 0.8960 0.2995 0.2057
C43 C 0.7792(5) 0.1949(5) 0.1788(5)
C44 C 0.7358(5) 0.2037(5) 0.0789(4)
C45 C 0.7258(6) 0.1235(6) 0.2163(5)
C46 C 0.7700(5) 0.1147(6) 0.3088(5)
H29 H 0.7381 0.0681 0.3368
H42 H 0.657107 0.0794179 0.177631
C22 C 0.9380(6) 0.3117(6) 0.8788(7)
H3 H 0.9122 0.9693 0.0361
H7 H 0.9756 0.9692 0.1759
O8 O 0.1030(4) 0.6418(4) 0.0784(4)
O9 O 0.0852(9) 0.7734(8) 0.1324(9)
C22_2 C 0.0620(6) 0.6883(6) 0.1212(7)
Zn5 Zn 0.20154(5) 0.90083(5) 0.14972(5)
Zn10 Zn 0.23430(5) 0.70957(5) 0.07808(5)
Zn7 Zn 0.41339(5) 0.87025(4) 0.10247(5)
O10 O 0.1610(3) 0.9266(4) 0.2641(3)
O11 O 0.2702(3) 0.8616(4) 0.3565(3)
O12 O 0.2114(5) 0.7306(4) 0.9489(3)
O13 O 0.3350(4) 0.8514(4) 0.9645(3)
C34_2 C 0.0267(5) 0.8836(6) 0.3720(4)
H24_2 H 0.0010 0.8947 0.3117
C35_2 C 0.1246(5) 0.8840(5) 0.3999(4)
C36_2 C 0.1890(4) 0.8919(5) 0.3336(4)
C37_2 C 0.1639(5) 0.8651(5) 0.4884(4)
H25_2 H 0.2325 0.8646 0.5081
C38_2 C 0.1021(5) 0.8469(5) 0.5471(4)
C39_2 C 0.0021(5) 0.8487(6) 0.5158(4)
C40_2 C 0.1453(5) 0.8307(5) 0.6421(4)
C41_2 C 0.0959(6) 0.7622(7) 0.6817(5)
H27_2 H 0.0352 0.7248 0.6483
C42_2 C 0.1359(6) 0.7494(6) 0.7690(5)
H28_2 H 0.1040 0.7005 0.7943
C43_2 C 0.2208(5) 0.8051(5) 0.8212(5)
C44_2 C 0.2642(5) 0.7963(5) 0.9211(4)
C45_2 C 0.2742(6) 0.8765(6) 0.7837(5)
C46_2 C 0.2300(5) 0.8853(6) 0.6912(5)
H29_2 H 0.2619 0.9319 0.6632
Zn9 Zn 0.33880(5) 0.80126(6) 0.27818(5)
H42_2 H 0.342893 0.920582 0.822369
O2_2 O 0.2706(4) 0.0298(3) 0.1442(4)
O3_2 O 0.4092(4) 0.0062(3) 0.1063(4)
O6 O 0.3308(3) 0.6303(3) 0.0965(4)
O7 O 0.4618(4) 0.7426(3) 0.0974(4)
C5_2 C 0.3505(5) 0.0563(4) 0.1266(4)
C6_2 C 0.3879(5) 0.1560(4) 0.1302(5)
C7_2 C 0.4890(5) 0.1920(5) 0.1647(6)
H9_2 H 0.5326 0.1536 0.1886
C8_2 C 0.5258(5) 0.2834(5) 0.1643(6)
H10_2 H 0.5941 0.3072 0.1909
C9_2 C 0.4672(5) 0.3405(4) 0.1269(5)
C10_2 C 0.3655(5) 0.3021(5) 0.0870(6)
H11_2 H 0.3232 0.3398 0.0592
C11_2 C 0.3270(5) 0.2120(5) 0.0875(6)
H12_2 H 0.2593 0.1877 0.0590
C12_2 C 0.5097(5) 0.4378(4) 0.1222(5)
C13_2 C 0.4484(4) 0.5025(4) 0.1156(5)
H13_2 H 0.3802 0.4843 0.1138
C14_2 C 0.4885(5) 0.5937(4) 0.1118(5)
C15_2 C 0.4222(5) 0.6607(4) 0.1014(4)
C16_2 C 0.5885(5) 0.6209(4) 0.1180(5)
H14_2 H 0.6156 0.6834 0.1193
C17_2 C 0.6501(4) 0.5584(4) 0.1226(5)
C18_2 C 0.7567(5) 0.5871(5) 0.1234(6)
C19_2 C 0.8053(5) 0.5342(5) 0.0781(6)
H15_2 H 0.7712 0.4761 0.0480
C20_2 C 0.9014(5) 0.5645(5) 0.0762(6)
H16_2 H 0.9323 0.5287 0.0422
C21_2 C 0.9555(5) 0.6489(5) 0.1245(6)
C23_2 C 0.9062(5) 0.7004(6) 0.1684(7)
H17_2 H 0.9411 0.7575 0.2007
C24_2 C 0.8042(6) 0.6715(6) 0.1674(8)
H18_2 H 0.7704 0.7092 0.1962
C25_2 C 0.6085(5) 0.4665(4) 0.1239(5)
H19_2 H 0.6496 0.4229 0.1260
O1_2 O 0.2988(3) 0.8241(3) 0.1546(3)
O4_2 O 0.5185(4) 0.9031(4) 0.2317(4)
O5_2 O 0.4790(4) 0.8205(6) 0.3376(4)
O14_2 O 0.0897(9) 0.8665(12) 0.0448(8)
O15_2 O 0.2895(6) 0.6712(5) 0.2841(5)
O16_2 O 0.5454(4) 0.9069(4) 0.0521(4)
H1_2 H 0.5504 0.8536 0.0309
H2_2 H 0.5362 0.9440 0.0099
N2_2 N 0.2779(8) 0.5155(7) 0.2794(8)
C26_2 C 0.5426(5) 0.8605(6) 0.2974(5)
C27_2 C 0.6485(5) 0.8616(6) 0.3316(5)
C28_2 C 0.7109(6) 0.8809(7) 0.2790(5)
H20_2 H 0.6860 0.8907 0.2181
C29_2 C 0.8123(6) 0.8866(8) 0.3128(6)
H21_2 H 0.8548 0.9071 0.2755
C30_2 C 0.8543(5) 0.8650(7) 0.3950(5)
C31_2 C 0.7797(9) 0.8011(11) 0.4314(9)
H22_2 H 0.8020 0.7631 0.4753
C32_2 C 0.6763(10) 0.7992(12) 0.3985(10)
H23_2 H 0.6279 0.7596 0.4188
C33_2 C 0.9604(5) 0.8671(6) 0.4289(5)
H26_2 H 0.9602 0.8368 0.5557
C47_2 C 0.3320(9) 0.6032(7) 0.3034(8)
C48_2 C 0.3467(10) 0.4547(7) 0.3183(11)
H30_2 H 0.3504 0.4090 0.2700
H31_2 H 0.3212 0.4222 0.3647
C49_2 C 0.4458(10) 0.5104(9) 0.3592(11)
H32_2 H 0.4697 0.4982 0.4224
H33_2 H 0.4935 0.4967 0.3246
C50_2 C 0.4351(8) 0.6069(7) 0.3565(10)
H34_2 H 0.4835 0.6401 0.3269
H35_2 H 0.4458 0.6377 0.4184
C51_2 C 0.1714(11) 0.4890(12) 0.2186(14)
H36_2 H 0.1753 0.4657 0.1598
H37_2 H 0.1312 0.4435 0.2425
H38_2 H 0.1423 0.5419 0.2141
C1_2 C 0.0607(6) 0.8979(7) 0.9659(5)
C2_2 C 0.0964(13) 0.9761(11) 0.9289(12)
H4_2 H 0.1681 0.9811 0.9333
C4_2 C 0.0453(16) 0.9727(15) 0.8367(12)
H8_2 H 0.0865 0.9582 0.7956
H3_2 H 0.0878 0.0307 0.9639
H7_2 H 0.0244 0.0308 0.8241
N1_2 N 0.9840(12) 0.8400(11) 0.9033(10)
C3_2 C 0.942(2) 0.884(2) 0.8270(19)
H5_2 H 0.9257 0.8436 0.7692
H6_2 H 0.8824 0.9066 0.8345
C52_2 C 0.9291(19) 0.7567(19) 0.9164(17)
H39_2 H 0.8997 0.7649 0.9662
H40_2 H 0.8780 0.7335 0.8624
H41_2 H 0.9726 0.7146 0.9287
loop_
_geom_bond_atom_site_label_1
_geom_bond_atom_site_label_2
_geom_bond_site_symmetry_1
_geom_bond_site_symmetry_2
C3 N1 1_555 1_555
H5 C3 1_555 1_555
H6 C3 1_555 1_555
C52 N1 1_555 1_555
H39 C52 1_555 1_555
H40 C52 1_555 1_555
H41 C52 1_555 1_555
C2 C1 1_555 1_555
H4 C2 1_555 1_555
C4 C2 1_555 1_555
H8 C4 1_555 1_555
Zn1 O1 1_555 1_555
Zn2 O1 1_555 1_555
Zn3 O1 1_555 1_555
Zn4 O1 1_555 1_555
O4 Zn2 1_555 1_555
O5 Zn3 1_555 1_555
O14 Zn1 1_555 1_555
O15 Zn3 1_555 1_555
O16 Zn2 1_555 1_555
H1 O16 1_555 1_555
H2 O16 1_555 1_555
N2 C47 1_555 1_555
C26 O4 1_555 1_555
C27 C26 1_555 1_555
C28 C27 1_555 1_555
H20 C28 1_555 1_555
C29 C28 1_555 1_555
H21 C29 1_555 1_555
C30 C29 1_555 1_555
C31 C30 1_555 1_555
H22 C31 1_555 1_555
C32 C27 1_555 1_555
H23 C32 1_555 1_555
C33 C30 1_555 1_555
C47 O15 1_555 1_555
C48 N2 1_555 1_555
H30 C48 1_555 1_555
H31 C48 1_555 1_555
C49 C48 1_555 1_555
H32 C49 1_555 1_555
H33 C49 1_555 1_555
C50 C47 1_555 1_555
H34 C50 1_555 1_555
H35 C50 1_555 1_555
C51 N2 1_555 1_555
H36 C51 1_555 1_555
H37 C51 1_555 1_555
H38 C51 1_555 1_555
O17 Zn4 1_555 1_555
O18 Zn2 1_555 1_555
O19 Zn4 1_555 1_555
O20 Zn1 1_555 1_555
O21 Zn1 1_555 1_555
O22 Zn3 1_555 1_555
O5 C26 1_555 1_555
C31 C32 1_555 1_555
C49 C50 1_555 1_555
O17 C15 1_555 1_555
O18 C15 1_555 1_555
C5 O2 1_555 1_555
C6 C5 1_555 1_555
C7 C6 1_555 1_555
H9 C7 1_555 1_555
C8 C7 1_555 1_555
H10 C8 1_555 1_555
C9 C8 1_555 1_555
C10 C9 1_555 1_555
H11 C10 1_555 1_555
C11 C6 1_555 1_555
H12 C11 1_555 1_555
C12 C9 1_555 1_555
C13 C12 1_555 1_555
H13 C13 1_555 1_555
C14 C13 1_555 1_555
C15 C14 1_555 1_555
C16 C14 1_555 1_555
H14 C16 1_555 1_555
C17 C16 1_555 1_555
C18 C17 1_555 1_555
C19 C18 1_555 1_555
H15 C19 1_555 1_555
C20 C19 1_555 1_555
H16 C20 1_555 1_555
C21 C20 1_555 1_555
C23 C21 1_555 1_555
H17 C23 1_555 1_555
C24 C18 1_555 1_555
H18 C24 1_555 1_555
C25 C12 1_555 1_555
H19 C25 1_555 1_555
O3 C5 1_555 1_555
C10 C11 1_555 1_555
C17 C25 1_555 1_555
C23 C24 1_555 1_555
O21 C36 1_555 1_555
O22 C36 1_555 1_555
O23 C44 1_555 1_555
O24 C44 1_555 1_555
H24 C34 1_555 1_555
C35 C34 1_555 1_555
C36 C35 1_555 1_555
C37 C35 1_555 1_555
H25 C37 1_555 1_555
C38 C37 1_555 1_555
C40 C38 1_555 1_555
C41 C40 1_555 1_555
H27 C41 1_555 1_555
C42 C41 1_555 1_555
H28 C42 1_555 1_555
C43 C42 1_555 1_555
C44 C43 1_555 1_555
C45 C43 1_555 1_555
C46 C40 1_555 1_555
H29 C46 1_555 1_555
C38 C39 1_555 1_555
C45 C46 1_555 1_555
C45 H42 1_555 1_555
O19 C22 1_555 1_555
O20 C22 1_555 1_555
O8 C22_2 1_555 1_555
O9 C22_2 1_555 1_555
Zn5 O9 1_555 1_555
Zn10 O8 1_555 1_555
O10 C36_2 1_555 1_555
O11 C36_2 1_555 1_555
O12 C44_2 1_555 1_555
O13 C44_2 1_555 1_555
H24_2 C34_2 1_555 1_555
C35_2 C34_2 1_555 1_555
C36_2 C35_2 1_555 1_555
C37_2 C35_2 1_555 1_555
H25_2 C37_2 1_555 1_555
C38_2 C37_2 1_555 1_555
C40_2 C38_2 1_555 1_555
C41_2 C40_2 1_555 1_555
H27_2 C41_2 1_555 1_555
C42_2 C41_2 1_555 1_555
H28_2 C42_2 1_555 1_555
C43_2 C42_2 1_555 1_555
C44_2 C43_2 1_555 1_555
C45_2 C43_2 1_555 1_555
C46_2 C40_2 1_555 1_555
H29_2 C46_2 1_555 1_555
Zn5 O10 1_555 1_555
Zn9 O11 1_555 1_555
C38_2 C39_2 1_555 1_555
C45_2 C46_2 1_555 1_555
C45_2 H42_2 1_555 1_555
O6 C15_2 1_555 1_555
O7 C15_2 1_555 1_555
C5_2 O2_2 1_555 1_555
C6_2 C5_2 1_555 1_555
C7_2 C6_2 1_555 1_555
H9_2 C7_2 1_555 1_555
C8_2 C7_2 1_555 1_555
H10_2 C8_2 1_555 1_555
C9_2 C8_2 1_555 1_555
C10_2 C9_2 1_555 1_555
H11_2 C10_2 1_555 1_555
C11_2 C6_2 1_555 1_555
H12_2 C11_2 1_555 1_555
C12_2 C9_2 1_555 1_555
C13_2 C12_2 1_555 1_555
H13_2 C13_2 1_555 1_555
C14_2 C13_2 1_555 1_555
C15_2 C14_2 1_555 1_555
C16_2 C14_2 1_555 1_555
H14_2 C16_2 1_555 1_555
C17_2 C16_2 1_555 1_555
C18_2 C17_2 1_555 1_555
C19_2 C18_2 1_555 1_555
H15_2 C19_2 1_555 1_555
C20_2 C19_2 1_555 1_555
H16_2 C20_2 1_555 1_555
C21_2 C20_2 1_555 1_555
C23_2 C21_2 1_555 1_555
H17_2 C23_2 1_555 1_555
C24_2 C18_2 1_555 1_555
H18_2 C24_2 1_555 1_555
C25_2 C12_2 1_555 1_555
H19_2 C25_2 1_555 1_555
Zn7 O7 1_555 1_555
Zn10 O6 1_555 1_555
O3_2 C5_2 1_555 1_555
C10_2 C11_2 1_555 1_555
C17_2 C25_2 1_555 1_555
C23_2 C24_2 1_555 1_555
Zn5 O1_2 1_555 1_555
Zn7 O1_2 1_555 1_555
Zn9 O1_2 1_555 1_555
Zn10 O1_2 1_555 1_555
O4_2 Zn7 1_555 1_555
O5_2 Zn9 1_555 1_555
O14_2 Zn5 1_555 1_555
O15_2 Zn9 1_555 1_555
O16_2 Zn7 1_555 1_555
H1_2 O16_2 1_555 1_555
H2_2 O16_2 1_555 1_555
N2_2 C47_2 1_555 1_555
C26_2 O4_2 1_555 1_555
C27_2 C26_2 1_555 1_555
C28_2 C27_2 1_555 1_555
H20_2 C28_2 1_555 1_555
C29_2 C28_2 1_555 1_555
H21_2 C29_2 1_555 1_555
C30_2 C29_2 1_555 1_555
C31_2 C30_2 1_555 1_555
H22_2 C31_2 1_555 1_555
C32_2 C27_2 1_555 1_555
H23_2 C32_2 1_555 1_555
C33_2 C30_2 1_555 1_555
C47_2 O15_2 1_555 1_555
C48_2 N2_2 1_555 1_555
H30_2 C48_2 1_555 1_555
H31_2 C48_2 1_555 1_555
C49_2 C48_2 1_555 1_555
H32_2 C49_2 1_555 1_555
H33_2 C49_2 1_555 1_555
C50_2 C47_2 1_555 1_555
H34_2 C50_2 1_555 1_555
H35_2 C50_2 1_555 1_555
C51_2 N2_2 1_555 1_555
H36_2 C51_2 1_555 1_555
H37_2 C51_2 1_555 1_555
H38_2 C51_2 1_555 1_555
O5_2 C26_2 1_555 1_555
C31_2 C32_2 1_555 1_555
C49_2 C50_2 1_555 1_555
C2_2 C1_2 1_555 1_555
H4_2 C2_2 1_555 1_555
C4_2 C2_2 1_555 1_555
H8_2 C4_2 1_555 1_555
C3_2 N1_2 1_555 1_555
H5_2 C3_2 1_555 1_555
H6_2 C3_2 1_555 1_555
C52_2 N1_2 1_555 1_555
H39_2 C52_2 1_555 1_555
H40_2 C52_2 1_555 1_555
H41_2 C52_2 1_555 1_555

#END
