
###############################################################################
#
# This file contains modified crystal structure data generated from the
# MOF subset of the Cambridge Structural Database (CSD) v543 
# hosted by the Cambridge Crystallographic Data Centre (CCDC).
#
# This work is licensed under the Creative Commons
# Attribution-NonCommercial-ShareAlike 4.0 International License.
# To view a copy of this license, visit
# http://creativecommons.org/licenses/by-nc-sa/4.0/
# or send a letter to
# Creative Commons, PO Box 1866, Mountain View, CA 94042, USA.
#
# CIF created using the CSD Python API on 29 September 2022
# The structure has been converted into the P1 space group
# The structure has a 3D framework
# The original CSD entry NISCOJ is in the orthorhombic crystal system
# The framework has been calculated to contain at least 10.0% void space
# The void calculation uses a probe of radius 1.32A, grid spacing 0.4
#
###############################################################################

data_NISCOJ
_chemical_formula_moiety         '(C88 H80 N24 O14 Zn6)n'
_symmetry_cell_setting           triclinic
_symmetry_space_group_name_H-M   'P 1'
_symmetry_Int_Tables_number      1
_space_group_name_Hall           'P 1'
loop_
_symmetry_equiv_pos_site_id
_symmetry_equiv_pos_as_xyz
1 x,y,z
_cell_length_a                   18.3139(11)
_cell_length_b                   7.8463(6)
_cell_length_c                   19.3760(11)
_cell_angle_alpha                90
_cell_angle_beta                 90
_cell_angle_gamma                90
_cell_volume                     2784.26
loop_
_atom_site_label
_atom_site_type_symbol
_atom_site_fract_x
_atom_site_fract_y
_atom_site_fract_z
C1 C 0.13057(11) 0.3773(3) 0.4989(2)
C2 C 0.18100(12) 0.2280(3) 0.51217(14)
C3 C 0.25554(13) 0.2535(3) 0.52138(16)
H1 H 0.2747 0.3646 0.5192
C4 C 0.30198(13) 0.1174(3) 0.53368(16)
H2 H 0.3520 0.1356 0.5414
C7 C 0.15310(12) 0.0630(3) 0.51461(13)
H4 H 0.1026 0.0451 0.5094
O1 O 0.06279(8) 0.34072(19) 0.49404(14)
O2 O 0.15606(9) 0.5232(2) 0.49280(19)
C12 C 0.01722(16) 0.7266(4) 0.60235(17)
C13 C 0.02338(15) 0.8735(3) 0.65301(15)
C14 C 0.0506(2) 0.8379(4) 0.71766(18)
H11 H 0.0651 0.7263 0.7289
C15 C 0.0568(2) 0.9679(4) 0.76637(17)
H12 H 0.0765 0.9446 0.8101
O4 O 0.03342(15) 0.5803(3) 0.62061(13)
H13 H 0.0063 0.7188 0.1743
H14 H 0.0150 0.9375 0.0921
C19 C 0.06594(16) 0.8147(4) 0.37767(17)
H15 H 0.0936 0.7536 0.4125
H16 H 0.0951 0.8260 0.3362
H17 H 0.0534 0.9271 0.3949
C5 C 0.27311(13) 0.9532(3) 0.53433(14)
C6 C 0.19926(13) 0.9250(3) 0.52463(14)
H3 H 0.1805 0.8134 0.5248
C8 C 0.41014(15) 0.8617(4) 0.44834(15)
H5 H 0.4388 0.9563 0.4658
H6 H 0.3705 0.9049 0.4201
H7 H 0.4410 0.7879 0.4207
C9 C 0.37945(11) 0.7629(3) 0.50756(16)
C10 C 0.31138(14) 0.6822(3) 0.59400(15)
C11 C 0.25289(19) 0.6794(5) 0.6477(2)
H8 H 0.2075 0.6408 0.6272
H9 H 0.2463 0.7933 0.6663
H10 H 0.2669 0.6025 0.6846
C16 C 0.46612(15) 0.1304(3) 0.25041(14)
C17 C 0.49221(17) 0.1693(3) 0.18549(15)
H13_2 H 0.5063 0.2812 0.1743
C18 C 0.49729(16) 0.0382(4) 0.13660(14)
H14_2 H 0.5150 0.0625 0.0921
C19_2 C 0.56594(16) 0.1853(4) 0.37767(17)
H15_2 H 0.5936 0.2464 0.4125
H16_2 H 0.5951 0.1740 0.3362
H17_2 H 0.5534 0.0729 0.3949
C20 C 0.49791(14) 0.2809(3) 0.36157(14)
C21 C 0.39993(16) 0.3716(4) 0.30845(15)
C22 C 0.3428(2) 0.3895(6) 0.2549(2)
H18 H 0.3067 0.4721 0.2699
H19 H 0.3193 0.2802 0.2475
H20 H 0.3649 0.4279 0.2121
N1 N 0.40469(10) 0.6166(2) 0.53102(11)
N2 N 0.36175(11) 0.5660(3) 0.58678(12)
N3 N 0.32045(10) 0.8089(2) 0.54593(12)
N4 N 0.46740(12) 0.3979(3) 0.39988(12)
N5 N 0.40464(13) 0.4563(3) 0.36612(13)
N6 N 0.45757(12) 0.2603(3) 0.30237(11)
Zn1 Zn 0.491856(10) 0.47462(3) 0.500008(18)
O5 O 0.56279(8) 0.65928(19) 0.49404(14)
O6 O 0.49379(11) 0.2400(2) 0.54185(11)
O7 O 0.53342(15) 0.4197(3) 0.62061(13)
C12_2 C 0.51722(16) 0.2734(4) 0.60235(17)
C13_2 C 0.52338(15) 0.1265(3) 0.65301(15)
C14_2 C 0.5506(2) 0.1621(4) 0.71766(18)
H11_2 H 0.5651 0.2737 0.7289
C15_2 C 0.5568(2) 0.0321(4) 0.76637(17)
H12_2 H 0.5765 0.0554 0.8101
C1_2 C 0.63057(11) 0.6227(3) 0.4989(2)
C2_2 C 0.68100(12) 0.7720(3) 0.51217(14)
C3_2 C 0.75554(13) 0.7465(3) 0.52138(16)
H1_2 H 0.7747 0.6354 0.5192
C4_2 C 0.80198(13) 0.8826(3) 0.53368(16)
H2_2 H 0.8520 0.8644 0.5414
C7_2 C 0.65310(12) 0.9370(3) 0.51461(13)
H4_2 H 0.6026 0.9549 0.5094
O2_2 O 0.65606(9) 0.4768(2) 0.49280(19)
C12_3 C 0.48278(16) 0.7266(4) 0.10235(17)
C13_3 C 0.47662(15) 0.8735(3) 0.15301(15)
C14_3 C 0.4494(2) 0.8379(4) 0.21766(18)
H11_3 H 0.4349 0.7263 0.2289
C15_3 C 0.4432(2) 0.9679(4) 0.26637(17)
H12_3 H 0.4235 0.9446 0.3101
O3 O 0.50621(11) 0.7600(2) 0.04185(11)
O4_2 O 0.46658(15) 0.5803(3) 0.12061(13)
Zn2 Zn 0.508144(10) 0.52538(3) 0.000008(18)
C5_2 C 0.72689(13) 0.0468(3) 0.03433(14)
C6_2 C 0.80074(13) 0.0750(3) 0.02463(14)
H3_2 H 0.8195 0.1866 0.0248
C9_2 C 0.62055(11) 0.2371(3) 0.00756(16)
C10_2 C 0.68862(14) 0.3178(3) 0.09400(15)
C11_2 C 0.74711(19) 0.3206(5) 0.1477(2)
H8_2 H 0.7925 0.3592 0.1272
H9_2 H 0.7537 0.2067 0.1663
H10_2 H 0.7331 0.3975 0.1846
N1_2 N 0.59531(10) 0.3834(2) 0.03102(11)
N2_2 N 0.63825(11) 0.4340(3) 0.08678(12)
N3_2 N 0.67955(10) 0.1911(2) 0.04593(12)
C2_3 C 0.31900(12) 0.2280(3) 0.01217(14)
C3_3 C 0.24446(13) 0.2535(3) 0.02138(16)
H1_3 H 0.2253 0.3646 0.0192
C4_3 C 0.19802(13) 0.1174(3) 0.03368(16)
H2_3 H 0.1480 0.1356 0.0414
C7_3 C 0.34690(12) 0.0630(3) 0.01461(13)
H4_3 H 0.3974 0.0451 0.0094
Zn2_2 Zn 0.508144(10) 0.52538(3) 1.000008(18)
C8_2 C 0.58986(15) 0.1383(4) 0.94834(15)
H5_2 H 0.5612 0.0437 0.9658
H6_2 H 0.6295 0.0951 0.9201
H7_2 H 0.5590 0.2121 0.9207
C16_2 C 0.53388(15) 0.8696(3) 0.75041(14)
C17_2 C 0.50779(17) 0.8307(3) 0.68549(15)
H13_3 H 0.4937 0.7188 0.6743
C18_2 C 0.50271(16) 0.9618(4) 0.63660(14)
H14_3 H 0.4850 0.9375 0.5921
C19_3 C 0.43406(16) 0.8147(4) 0.87767(17)
H15_3 H 0.4064 0.7536 0.9125
H16_3 H 0.4049 0.8260 0.8362
H17_3 H 0.4466 0.9271 0.8949
C20_2 C 0.50209(14) 0.7191(3) 0.86157(14)
C21_2 C 0.60007(16) 0.6284(4) 0.80845(15)
C22_2 C 0.6572(2) 0.6105(6) 0.7549(2)
H18_2 H 0.6933 0.5279 0.7699
H19_2 H 0.6807 0.7198 0.7475
H20_2 H 0.6351 0.5721 0.7121
N4_2 N 0.53260(12) 0.6021(3) 0.89988(12)
N5_2 N 0.59536(13) 0.5437(3) 0.86612(13)
N6_2 N 0.54243(12) 0.7397(3) 0.80237(11)
O5_2 O 0.43721(8) 0.34072(19) 0.99404(14)
C1_3 C 0.36943(11) 0.3773(3) 0.9989(2)
O2_3 O 0.34394(9) 0.5232(2) 0.99280(19)
Zn3 Zn 0.991856(10) 0.52538(3) 0.500008(18)
O3_2 O 0.99379(11) 0.7600(2) 0.54185(11)
C5_3 C 0.77311(13) 0.0468(3) 0.53433(14)
C6_3 C 0.69926(13) 0.0750(3) 0.52463(14)
H3_3 H 0.6805 0.1866 0.5248
C8_3 C 0.91014(15) 0.1383(4) 0.44834(15)
H5_3 H 0.9388 0.0437 0.4658
H6_3 H 0.8705 0.0951 0.4201
H7_3 H 0.9410 0.2121 0.4207
C9_3 C 0.87945(11) 0.2371(3) 0.50756(16)
C10_3 C 0.81138(14) 0.3178(3) 0.59400(15)
C11_3 C 0.75289(19) 0.3206(5) 0.6477(2)
H8_3 H 0.7075 0.3592 0.6272
H9_3 H 0.7463 0.2067 0.6663
H10_3 H 0.7669 0.3975 0.6846
C16_3 C 0.96612(15) 0.8696(3) 0.25041(14)
C17_3 C 0.99221(17) 0.8307(3) 0.18549(15)
C18_3 C 0.99729(16) 0.9618(4) 0.13660(14)
C20_3 C 0.99791(14) 0.7191(3) 0.36157(14)
C21_3 C 0.89993(16) 0.6284(4) 0.30845(15)
C22_3 C 0.8428(2) 0.6105(6) 0.2549(2)
H18_3 H 0.8067 0.5279 0.2699
H19_3 H 0.8193 0.7198 0.2475
H20_3 H 0.8649 0.5721 0.2121
N1_3 N 0.90469(10) 0.3834(2) 0.53102(11)
N2_3 N 0.86175(11) 0.4340(3) 0.58678(12)
N3_3 N 0.82045(10) 0.1911(2) 0.54593(12)
N4_3 N 0.96740(12) 0.6021(3) 0.39988(12)
N5_3 N 0.90464(13) 0.5437(3) 0.36612(13)
N6_3 N 0.95757(12) 0.7397(3) 0.30237(11)
Zn3_2 Zn 0.008144(10) 0.47462(3) 0.000008(18)
C5_4 C 0.22689(13) 0.9532(3) 0.03433(14)
C6_4 C 0.30074(13) 0.9250(3) 0.02463(14)
H3_4 H 0.3195 0.8134 0.0248
C9_4 C 0.12055(11) 0.7629(3) 0.00756(16)
C10_4 C 0.18862(14) 0.6822(3) 0.09400(15)
C11_4 C 0.24711(19) 0.6794(5) 0.1477(2)
H8_4 H 0.2925 0.6408 0.1272
H9_4 H 0.2537 0.7933 0.1663
H10_4 H 0.2331 0.6025 0.1846
N1_4 N 0.09531(10) 0.6166(2) 0.03102(11)
N2_4 N 0.13825(11) 0.5660(3) 0.08678(12)
N3_4 N 0.17955(10) 0.8089(2) 0.04593(12)
O6_2 O 0.00621(11) 0.2400(2) 0.04185(11)
Zn3_3 Zn 0.008144(10) 0.47462(3) 1.000008(18)
C8_4 C 0.08986(15) 0.8617(4) 0.94834(15)
H5_4 H 0.0612 0.9563 0.9658
H6_4 H 0.1295 0.9049 0.9201
H7_4 H 0.0590 0.7879 0.9207
C16_4 C 0.03388(15) 0.1304(3) 0.75041(14)
C17_4 C 0.00779(17) 0.1693(3) 0.68549(15)
C18_4 C 0.00271(16) 0.0382(4) 0.63660(14)
C20_4 C 0.00209(14) 0.2809(3) 0.86157(14)
C21_4 C 0.10007(16) 0.3716(4) 0.80845(15)
C22_4 C 0.1572(2) 0.3895(6) 0.7549(2)
H18_4 H 0.1933 0.4721 0.7699
H19_4 H 0.1807 0.2802 0.7475
H20_4 H 0.1351 0.4279 0.7121
N4_4 N 0.03260(12) 0.3979(3) 0.89988(12)
N5_4 N 0.09536(13) 0.4563(3) 0.86612(13)
N6_4 N 0.04243(12) 0.2603(3) 0.80237(11)
C2_4 C 0.81900(12) 0.7720(3) 0.01217(14)
C3_4 C 0.74446(13) 0.7465(3) 0.02138(16)
H1_4 H 0.7253 0.6354 0.0192
C4_4 C 0.69802(13) 0.8826(3) 0.03368(16)
H2_4 H 0.6480 0.8644 0.0414
C7_4 C 0.84690(12) 0.9370(3) 0.01461(13)
H4_4 H 0.8974 0.9549 0.0094
C1_4 C 0.86943(11) 0.6227(3) 0.9989(2)
O1_2 O 0.93721(8) 0.65928(19) 0.99404(14)
O2_4 O 0.84394(9) 0.4768(2) 0.99280(19)
H13_4 H 0.9937 0.2812 0.6743
H14_4 H 0.9850 0.0625 0.5921
C19_4 C 0.93406(16) 0.1853(4) 0.87767(17)
H15_4 H 0.9064 0.2464 0.9125
H16_4 H 0.9049 0.1740 0.8362
H17_4 H 0.9466 0.0729 0.8949
O7_2 O 0.96658(15) 0.4197(3) 0.12061(13)
C12_4 C 0.98278(16) 0.2734(4) 0.10235(17)
C13_4 C 0.97662(15) 0.1265(3) 0.15301(15)
C14_4 C 0.9494(2) 0.1621(4) 0.21766(18)
H11_4 H 0.9349 0.2737 0.2289
C15_4 C 0.9432(2) 0.0321(4) 0.26637(17)
H12_4 H 0.9235 0.0554 0.3101
loop_
_geom_bond_atom_site_label_1
_geom_bond_atom_site_label_2
_geom_bond_site_symmetry_1
_geom_bond_site_symmetry_2
C1 C2 1_555 1_555
C2 C3 1_555 1_555
C3 H1 1_555 1_555
C4 C3 1_555 1_555
H2 C4 1_555 1_555
C7 C2 1_555 1_555
H4 C7 1_555 1_555
O1 C1 1_555 1_555
O2 C1 1_555 1_555
C12 C13 1_555 1_555
C13 C14 1_555 1_555
C14 H11 1_555 1_555
C15 C14 1_555 1_555
H12 C15 1_555 1_555
O4 C12 1_555 1_555
C19 H15 1_555 1_555
H16 C19 1_555 1_555
H17 C19 1_555 1_555
C6 C5 1_555 1_555
H3 C6 1_555 1_555
C8 H5 1_555 1_555
H6 C8 1_555 1_555
H7 C8 1_555 1_555
C9 C8 1_555 1_555
C10 C11 1_555 1_555
C11 H8 1_555 1_555
H9 C11 1_555 1_555
H10 C11 1_555 1_555
C17 C16 1_555 1_555
H13_2 C17 1_555 1_555
H14_2 C18 1_555 1_555
C19_2 H15_2 1_555 1_555
H16_2 C19_2 1_555 1_555
H17_2 C19_2 1_555 1_555
C20 C19_2 1_555 1_555
C21 C22 1_555 1_555
C22 H18 1_555 1_555
H19 C22 1_555 1_555
H20 C22 1_555 1_555
N1 C9 1_555 1_555
N2 C10 1_555 1_555
N3 C5 1_555 1_555
N4 C20 1_555 1_555
N5 C21 1_555 1_555
N6 C16 1_555 1_555
Zn1 N1 1_555 1_555
O5 Zn1 1_555 1_555
O6 Zn1 1_555 1_555
O7 Zn1 1_555 1_555
C9 N3 1_555 1_555
C10 N3 1_555 1_555
C17 C18 1_555 1_555
C20 N6 1_555 1_555
C21 N6 1_555 1_555
N1 N2 1_555 1_555
N4 N5 1_555 1_555
N4 Zn1 1_555 1_555
C12_2 C13_2 1_555 1_555
C13_2 C14_2 1_555 1_555
C14_2 H11_2 1_555 1_555
C15_2 C14_2 1_555 1_555
H12_2 C15_2 1_555 1_555
O6 C12_2 1_555 1_555
O7 C12_2 1_555 1_555
C1_2 C2_2 1_555 1_555
C2_2 C3_2 1_555 1_555
C3_2 H1_2 1_555 1_555
C4_2 C3_2 1_555 1_555
H2_2 C4_2 1_555 1_555
C7_2 C2_2 1_555 1_555
H4_2 C7_2 1_555 1_555
O5 C1_2 1_555 1_555
O2_2 C1_2 1_555 1_555
C12_3 C13_3 1_555 1_555
C13_3 C14_3 1_555 1_555
C14_3 H11_3 1_555 1_555
C15_3 C14_3 1_555 1_555
H12_3 C15_3 1_555 1_555
O3 C12_3 1_555 1_555
O4_2 C12_3 1_555 1_555
Zn2 O3 1_555 1_555
O4_2 Zn2 1_555 1_555
C6_2 C5_2 1_555 1_555
H3_2 C6_2 1_555 1_555
C10_2 C11_2 1_555 1_555
C11_2 H8_2 1_555 1_555
H9_2 C11_2 1_555 1_555
H10_2 C11_2 1_555 1_555
N1_2 C9_2 1_555 1_555
N2_2 C10_2 1_555 1_555
N3_2 C5_2 1_555 1_555
Zn2 N1_2 1_555 1_555
C9_2 N3_2 1_555 1_555
C10_2 N3_2 1_555 1_555
N1_2 N2_2 1_555 1_555
C2_3 C3_3 1_555 1_555
C3_3 H1_3 1_555 1_555
C4_3 C3_3 1_555 1_555
H2_3 C4_3 1_555 1_555
C7_3 C2_3 1_555 1_555
H4_3 C7_3 1_555 1_555
C8_2 H5_2 1_555 1_555
H6_2 C8_2 1_555 1_555
H7_2 C8_2 1_555 1_555
C17_2 C16_2 1_555 1_555
H13_3 C17_2 1_555 1_555
H14_3 C18_2 1_555 1_555
C19_3 H15_3 1_555 1_555
H16_3 C19_3 1_555 1_555
H17_3 C19_3 1_555 1_555
C20_2 C19_3 1_555 1_555
C21_2 C22_2 1_555 1_555
C22_2 H18_2 1_555 1_555
H19_2 C22_2 1_555 1_555
H20_2 C22_2 1_555 1_555
N4_2 C20_2 1_555 1_555
N5_2 C21_2 1_555 1_555
N6_2 C16_2 1_555 1_555
O5_2 Zn2_2 1_555 1_555
C17_2 C18_2 1_555 1_555
C20_2 N6_2 1_555 1_555
C21_2 N6_2 1_555 1_555
N4_2 N5_2 1_555 1_555
N4_2 Zn2_2 1_555 1_555
O5_2 C1_3 1_555 1_555
O2_3 C1_3 1_555 1_555
Zn3 O3_2 1_555 1_555
C6_3 C5_3 1_555 1_555
H3_3 C6_3 1_555 1_555
C8_3 H5_3 1_555 1_555
H6_3 C8_3 1_555 1_555
H7_3 C8_3 1_555 1_555
C9_3 C8_3 1_555 1_555
C10_3 C11_3 1_555 1_555
C11_3 H8_3 1_555 1_555
H9_3 C11_3 1_555 1_555
H10_3 C11_3 1_555 1_555
C17_3 C16_3 1_555 1_555
C21_3 C22_3 1_555 1_555
C22_3 H18_3 1_555 1_555
H19_3 C22_3 1_555 1_555
H20_3 C22_3 1_555 1_555
N1_3 C9_3 1_555 1_555
N2_3 C10_3 1_555 1_555
N3_3 C5_3 1_555 1_555
N4_3 C20_3 1_555 1_555
N5_3 C21_3 1_555 1_555
N6_3 C16_3 1_555 1_555
Zn3 N1_3 1_555 1_555
C9_3 N3_3 1_555 1_555
C10_3 N3_3 1_555 1_555
C17_3 C18_3 1_555 1_555
C20_3 N6_3 1_555 1_555
C21_3 N6_3 1_555 1_555
N1_3 N2_3 1_555 1_555
N4_3 N5_3 1_555 1_555
N4_3 Zn3 1_555 1_555
C6_4 C5_4 1_555 1_555
H3_4 C6_4 1_555 1_555
C10_4 C11_4 1_555 1_555
C11_4 H8_4 1_555 1_555
H9_4 C11_4 1_555 1_555
H10_4 C11_4 1_555 1_555
N1_4 C9_4 1_555 1_555
N2_4 C10_4 1_555 1_555
N3_4 C5_4 1_555 1_555
Zn3_2 N1_4 1_555 1_555
O6_2 Zn3_2 1_555 1_555
C9_4 N3_4 1_555 1_555
C10_4 N3_4 1_555 1_555
N1_4 N2_4 1_555 1_555
C8_4 H5_4 1_555 1_555
H6_4 C8_4 1_555 1_555
H7_4 C8_4 1_555 1_555
C17_4 C16_4 1_555 1_555
C21_4 C22_4 1_555 1_555
C22_4 H18_4 1_555 1_555
H19_4 C22_4 1_555 1_555
H20_4 C22_4 1_555 1_555
N4_4 C20_4 1_555 1_555
N5_4 C21_4 1_555 1_555
N6_4 C16_4 1_555 1_555
C17_4 C18_4 1_555 1_555
C20_4 N6_4 1_555 1_555
C21_4 N6_4 1_555 1_555
N4_4 N5_4 1_555 1_555
N4_4 Zn3_3 1_555 1_555
C2_4 C3_4 1_555 1_555
C3_4 H1_4 1_555 1_555
C4_4 C3_4 1_555 1_555
H2_4 C4_4 1_555 1_555
C7_4 C2_4 1_555 1_555
H4_4 C7_4 1_555 1_555
O1_2 C1_4 1_555 1_555
O2_4 C1_4 1_555 1_555
C19_4 H15_4 1_555 1_555
H16_4 C19_4 1_555 1_555
H17_4 C19_4 1_555 1_555
C12_4 C13_4 1_555 1_555
C13_4 C14_4 1_555 1_555
C14_4 H11_4 1_555 1_555
C15_4 C14_4 1_555 1_555
H12_4 C15_4 1_555 1_555
O7_2 C12_4 1_555 1_555

#END
