
###############################################################################
#
# This file contains modified crystal structure data generated from the
# MOF subset of the Cambridge Structural Database (CSD) v543 
# hosted by the Cambridge Crystallographic Data Centre (CCDC).
#
# This work is licensed under the Creative Commons
# Attribution-NonCommercial-ShareAlike 4.0 International License.
# To view a copy of this license, visit
# http://creativecommons.org/licenses/by-nc-sa/4.0/
# or send a letter to
# Creative Commons, PO Box 1866, Mountain View, CA 94042, USA.
#
# CIF created using the CSD Python API on 29 September 2022
# The structure has been converted into the P1 space group
# The structure has a 3D framework
# The original CSD entry NIVNOW is in the monoclinic crystal system
# The framework has been calculated to contain at least 10.0% void space
# The void calculation uses a probe of radius 1.32A, grid spacing 0.4
# H atom positions have been added when not included in the experimental data
# Generated hydrogen atom positions removed from atoms on special positions
#
###############################################################################

data_NIVNOW
_chemical_formula_moiety         '(C104 H64 Cu20 N88 O8 W12)n'
_symmetry_cell_setting           triclinic
_symmetry_space_group_name_H-M   'P 1'
_symmetry_Int_Tables_number      1
_space_group_name_Hall           'P 1'
loop_
_symmetry_equiv_pos_site_id
_symmetry_equiv_pos_as_xyz
1 x,y,z
_cell_length_a                   26.507(7)
_cell_length_b                   14.780(3)
_cell_length_c                   11.512(2)
_cell_angle_alpha                90
_cell_angle_beta                 108.359(10)
_cell_angle_gamma                90
_cell_volume                     4280.54
loop_
_atom_site_label
_atom_site_type_symbol
_atom_site_fract_x
_atom_site_fract_y
_atom_site_fract_z
Cu2 Cu 0.2500 0.2500 -0.0000
Cu3 Cu 0.5000 0.26450(5) -0.0000
N10 N 0.4122(4) 0.0000 0.1602(7)
C10 C 0.3945(3) 0.0000 0.0573(7)
W5 W 0.638316(9) 0.0000 0.14186(2)
Cu5 Cu 0.2500 0.7500 -0.0000
Cu7 Cu 0.5000 0.73550(5) -0.0000
O2 O 0.4743(3) 0.2529(6) 0.1879(6)
N16 N 0.55288(16) 0.3588(2) 0.0730(4)
N18 N 0.18708(18) 0.1469(2) 0.0275(4)
N19 N 0.55476(17) 0.1703(2) 0.0648(4)
N21 N 0.21105(16) 0.3534(2) 0.0474(3)
N24 N 0.29386(15) 0.2316(2) 0.1789(3)
C19 C 0.58445(18) 0.1131(3) 0.0930(4)
W1 W 0.349647(9) 0.5000 0.79936(2)
W2 W 0.361684(9) 0.0000 0.85814(2)
Cu1 Cu 0.2500 0.2500 0.5000
Cu2_2 Cu 0.2500 0.2500 1.0000
Cu3_2 Cu 0.5000 0.26450(5) 1.0000
O1 O 0.5257(3) 0.2529(6) 0.8121(6)
N1 N 0.30332(16) 0.3371(2) 0.6000(3)
N2 N 0.4266(3) 0.5000 0.6239(8)
N3 N 0.44712(16) 0.3588(2) 0.9270(4)
N4 N 0.31292(18) 0.3531(2) 0.9725(4)
N5 N 0.2180(3) 0.5000 0.7123(8)
N6 N 0.44524(17) 0.1703(2) 0.9352(4)
N7 N 0.4316(4) 0.0000 0.6675(10)
N8 N 0.29866(18) 0.1353(2) 0.6315(3)
N9 N 0.28895(16) 0.1466(2) 0.9526(3)
N11 N 0.20624(14) 0.2693(2) 0.6167(3)
N12 N 0.20614(15) 0.2684(2) 0.8211(3)
C1 C 0.32190(17) 0.3925(3) 0.6684(3)
C2 C 0.4010(3) 0.5000 0.6842(7)
C3 C 0.41368(18) 0.4085(3) 0.8837(4)
C4 C 0.32631(18) 0.4065(3) 0.9173(4)
C5 C 0.2637(3) 0.5000 0.7427(6)
C6 C 0.41555(18) 0.1131(3) 0.9070(4)
C7 C 0.4072(3) 0.0000 0.7335(8)
C8 C 0.32018(19) 0.0885(3) 0.7097(4)
C9 C 0.31251(17) 0.0930(2) 0.9208(3)
C11 C 0.1545(2) 0.2876(4) 0.5793(4)
H1 H 0.1366 0.2934 0.4960
C12 C 0.1269(2) 0.2982(6) 0.6615(5)
H2 H 0.0910 0.3127 0.6355
C13 C 0.1543(2) 0.2868(4) 0.7829(4)
H3 H 0.1363 0.2920 0.8400
C14 C 0.23009(17) 0.2612(2) 0.7357(3)
H4 H 0.2664 0.2495 0.7619
W3 W 0.150353(9) 0.0000 0.20064(2)
W4 W 0.138316(9) 0.5000 0.14186(2)
Cu4 Cu 0.2500 0.7500 0.5000
Cu5_2 Cu 0.2500 0.7500 1.0000
Cu7_2 Cu 0.5000 0.73550(5) 1.0000
N13 N 0.30332(16) 0.6629(2) 0.6000(3)
N14 N 0.19668(16) 0.1629(2) 0.4000(3)
N15 N 0.44712(16) 0.6412(2) 0.9270(4)
N17 N 0.31292(18) 0.6469(2) 0.9725(4)
N20 N 0.20134(18) 0.3647(2) 0.3685(3)
N22 N 0.29376(14) 0.2307(2) 0.3833(3)
C15 C 0.32190(17) 0.6075(3) 0.6684(3)
C16 C 0.17810(17) 0.1075(3) 0.3316(3)
C17 C 0.41368(18) 0.5915(3) 0.8837(4)
C18 C 0.32631(18) 0.5935(3) 0.9173(4)
C21 C 0.17982(19) 0.4115(3) 0.2903(4)
C24 C 0.3455(2) 0.2124(4) 0.4207(4)
H5 H 0.3634 0.2066 0.5040
C25 C 0.3731(2) 0.2018(6) 0.3385(5)
H6 H 0.4090 0.1873 0.3645
C26 C 0.3457(2) 0.2132(4) 0.2171(4)
H7 H 0.3637 0.2080 0.1600
C27 C 0.26991(17) 0.2388(2) 0.2643(3)
H8 H 0.2336 0.2505 0.2381
N10_2 N 0.4122(4) 1.0000 0.1602(7)
C10_2 C 0.3945(3) 1.0000 0.0573(7)
W5_2 W 0.638316(9) 1.0000 0.14186(2)
W2_2 W 0.361684(9) 1.0000 0.85814(2)
N7_2 N 0.4316(4) 1.0000 0.6675(10)
C7_2 C 0.4072(3) 1.0000 0.7335(8)
W3_2 W 0.150353(9) 1.0000 0.20064(2)
C20 C 0.41555(18) 0.8869(3) 0.9070(4)
C22 C 0.32018(19) 0.9115(3) 0.7097(4)
C23 C 0.31251(17) 0.9070(2) 0.9208(3)
Cu7_3 Cu -0.0000 0.23550(5) -0.0000
Cu7_4 Cu -0.0000 0.23550(5) 1.0000
Cu3_3 Cu -0.0000 0.76450(5) -0.0000
N16_2 N 0.05288(16) 0.8588(2) 0.0730(4)
N19_2 N 0.05476(17) 0.6703(2) 0.0648(4)
C19_2 C 0.08445(18) 0.6131(3) 0.0930(4)
H11 H 0.00229334 0.71975 0.251637
Cu3_4 Cu 0.0000 0.76450(5) 1.0000
O1_2 O 0.0257(3) 0.7529(6) 0.8121(6)
Cu5_3 Cu 0.7500 0.2500 -0.0000
Cu7_5 Cu 1.0000 0.23550(5) -0.0000
W1_2 W 0.849647(9) 0.0000 0.79936(2)
N2_2 N 0.9266(3) 0.0000 0.6239(8)
N5_2 N 0.7180(3) 0.0000 0.7123(8)
C2_2 C 0.9010(3) 0.0000 0.6842(7)
C5_2 C 0.7637(3) 0.0000 0.7427(6)
Cu4_2 Cu 0.7500 0.2500 0.5000
Cu5_4 Cu 0.7500 0.2500 1.0000
Cu7_6 Cu 1.0000 0.23550(5) 1.0000
N13_2 N 0.80332(16) 0.1629(2) 0.6000(3)
N15_2 N 0.94712(16) 0.1412(2) 0.9270(4)
N17_2 N 0.81292(18) 0.1469(2) 0.9725(4)
C15_2 C 0.82190(17) 0.1075(3) 0.6684(3)
C17_2 C 0.91368(18) 0.0915(3) 0.8837(4)
C18_2 C 0.82631(18) 0.0935(3) 0.9173(4)
Cu2_3 Cu 0.7500 0.7500 -0.0000
Cu3_5 Cu 1.0000 0.76450(5) -0.0000
N10_3 N 0.9122(4) 0.5000 0.1602(7)
C10_3 C 0.8945(3) 0.5000 0.0573(7)
O2_2 O 0.9743(3) 0.7529(6) 0.1879(6)
N18_2 N 0.68708(18) 0.6469(2) 0.0275(4)
N21_2 N 0.71105(16) 0.8534(2) 0.0474(3)
N24_2 N 0.79386(15) 0.7316(2) 0.1789(3)
W1_3 W 0.849647(9) 1.0000 0.79936(2)
W2_3 W 0.861684(9) 0.5000 0.85814(2)
Cu1_2 Cu 0.7500 0.7500 0.5000
Cu2_4 Cu 0.7500 0.7500 1.0000
Cu3_6 Cu 1.0000 0.76450(5) 1.0000
N1_2 N 0.80332(16) 0.8371(2) 0.6000(3)
N2_3 N 0.9266(3) 1.0000 0.6239(8)
N3_2 N 0.94712(16) 0.8588(2) 0.9270(4)
N4_2 N 0.81292(18) 0.8531(2) 0.9725(4)
N5_3 N 0.7180(3) 1.0000 0.7123(8)
N6_2 N 0.94524(17) 0.6703(2) 0.9352(4)
N7_3 N 0.9316(4) 0.5000 0.6675(10)
N8_2 N 0.79866(18) 0.6353(2) 0.6315(3)
N9_2 N 0.78895(16) 0.6466(2) 0.9526(3)
N11_2 N 0.70624(14) 0.7693(2) 0.6167(3)
N12_2 N 0.70614(15) 0.7684(2) 0.8211(3)
C1_2 C 0.82190(17) 0.8925(3) 0.6684(3)
C2_3 C 0.9010(3) 1.0000 0.6842(7)
C3_2 C 0.91368(18) 0.9085(3) 0.8837(4)
C4_2 C 0.82631(18) 0.9065(3) 0.9173(4)
C5_3 C 0.7637(3) 1.0000 0.7427(6)
C6_2 C 0.91555(18) 0.6131(3) 0.9070(4)
C7_3 C 0.9072(3) 0.5000 0.7335(8)
C8_2 C 0.82018(19) 0.5885(3) 0.7097(4)
C9_2 C 0.81251(17) 0.5930(2) 0.9208(3)
C11_2 C 0.6545(2) 0.7876(4) 0.5793(4)
H1_2 H 0.6366 0.7934 0.4960
C12_2 C 0.6269(2) 0.7982(6) 0.6615(5)
H2_2 H 0.5910 0.8127 0.6355
C13_2 C 0.6543(2) 0.7868(4) 0.7829(4)
H3_2 H 0.6363 0.7920 0.8400
C14_2 C 0.73009(17) 0.7612(2) 0.7357(3)
H4_2 H 0.7664 0.7495 0.7619
W3_3 W 0.650353(9) 0.5000 0.20064(2)
N14_2 N 0.69668(16) 0.6629(2) 0.4000(3)
N20_2 N 0.70134(18) 0.8647(2) 0.3685(3)
N22_2 N 0.79376(14) 0.7307(2) 0.3833(3)
C16_2 C 0.67810(17) 0.6075(3) 0.3316(3)
C20_2 C 0.91555(18) 0.3869(3) 0.9070(4)
C21_2 C 0.67982(19) 0.9115(3) 0.2903(4)
C22_2 C 0.82018(19) 0.4115(3) 0.7097(4)
C23_2 C 0.81251(17) 0.4070(2) 0.9208(3)
C24_2 C 0.8455(2) 0.7124(4) 0.4207(4)
H5_2 H 0.8634 0.7066 0.5040
C25_2 C 0.8731(2) 0.7018(6) 0.3385(5)
H6_2 H 0.9090 0.6873 0.3645
C26_2 C 0.8457(2) 0.7132(4) 0.2171(4)
H7_2 H 0.8637 0.7080 0.1600
C27_2 C 0.76991(17) 0.7388(2) 0.2643(3)
H8_2 H 0.7336 0.7505 0.2381
N1_3 N 0.69668(16) 0.3371(2) 0.4000(3)
N2_4 N 0.5734(3) 0.5000 0.3761(8)
N4_3 N 0.68708(18) 0.3531(2) 0.0275(4)
N5_4 N 0.7820(3) 0.5000 0.2877(8)
N7_4 N 0.5684(4) 0.0000 0.3325(10)
N8_3 N 0.70134(18) 0.1353(2) 0.3685(3)
N9_3 N 0.71105(16) 0.1466(2) 0.0474(3)
N11_3 N 0.79376(14) 0.2693(2) 0.3833(3)
N12_3 N 0.79386(15) 0.2684(2) 0.1789(3)
C1_3 C 0.67810(17) 0.3925(3) 0.3316(3)
C2_4 C 0.5990(3) 0.5000 0.3158(7)
C3_3 C 0.58632(18) 0.4085(3) 0.1163(4)
C4_3 C 0.67369(18) 0.4065(3) 0.0827(4)
C5_4 C 0.7363(3) 0.5000 0.2573(6)
C7_4 C 0.5928(3) 0.0000 0.2665(8)
C8_3 C 0.67982(19) 0.0885(3) 0.2903(4)
C9_3 C 0.68749(17) 0.0930(2) 0.0792(3)
C11_3 C 0.8455(2) 0.2876(4) 0.4207(4)
H1_3 H 0.8634 0.2934 0.5040
C12_3 C 0.8731(2) 0.2982(6) 0.3385(5)
H2_3 H 0.9090 0.3127 0.3645
C13_3 C 0.8457(2) 0.2868(4) 0.2171(4)
H3_3 H 0.8637 0.2920 0.1600
C14_3 C 0.76991(17) 0.2612(2) 0.2643(3)
H4_3 H 0.7336 0.2495 0.2381
N15_3 N 0.55288(16) 0.6412(2) 0.0730(4)
N20_3 N 0.79866(18) 0.3647(2) 0.6315(3)
N22_3 N 0.70624(14) 0.2307(2) 0.6167(3)
N23 N 0.70614(15) 0.2316(2) 0.8211(3)
C17_3 C 0.58632(18) 0.5915(3) 0.1163(4)
C18_3 C 0.67369(18) 0.5935(3) 0.0827(4)
C24_3 C 0.6545(2) 0.2124(4) 0.5793(4)
H5_3 H 0.6366 0.2066 0.4960
C25_3 C 0.6269(2) 0.2018(6) 0.6615(5)
H6_3 H 0.5910 0.1873 0.6355
C26_3 C 0.6543(2) 0.2132(4) 0.7829(4)
H7_3 H 0.6363 0.2080 0.8400
C27_3 C 0.73009(17) 0.2388(2) 0.7357(3)
H8_3 H 0.7664 0.2505 0.7619
N10_4 N 0.5878(4) 0.0000 0.8398(7)
C10_4 C 0.6055(3) 0.0000 0.9427(7)
N21_3 N 0.78895(16) 0.3534(2) 0.9526(3)
N7_5 N 0.5684(4) 1.0000 0.3325(10)
C7_5 C 0.5928(3) 1.0000 0.2665(8)
C20_3 C 0.58445(18) 0.8869(3) 0.0930(4)
C23_3 C 0.68749(17) 0.9070(2) 0.0792(3)
N10_5 N 0.5878(4) 1.0000 0.8398(7)
C10_5 C 0.6055(3) 1.0000 0.9427(7)
N2_5 N 0.0734(3) 0.0000 0.3761(8)
N5_5 N 0.2820(3) 0.0000 0.2877(8)
C2_5 C 0.0990(3) 0.0000 0.3158(7)
C5_5 C 0.2363(3) 0.0000 0.2573(6)
N15_4 N 0.05288(16) 0.1412(2) 0.0730(4)
C17_4 C 0.08632(18) 0.0915(3) 0.1163(4)
C18_4 C 0.17369(18) 0.0935(3) 0.0827(4)
N1_4 N 0.19668(16) 0.8371(2) 0.4000(3)
N2_6 N 0.0734(3) 1.0000 0.3761(8)
N4_4 N 0.18708(18) 0.8531(2) 0.0275(4)
N5_6 N 0.2820(3) 1.0000 0.2877(8)
N7_6 N 0.0684(4) 0.5000 0.3325(10)
N8_4 N 0.20134(18) 0.6353(2) 0.3685(3)
N9_4 N 0.21105(16) 0.6466(2) 0.0474(3)
N11_4 N 0.29376(14) 0.7693(2) 0.3833(3)
N12_4 N 0.29386(15) 0.7684(2) 0.1789(3)
C1_4 C 0.17810(17) 0.8925(3) 0.3316(3)
C2_6 C 0.0990(3) 1.0000 0.3158(7)
C3_4 C 0.08632(18) 0.9085(3) 0.1163(4)
C4_4 C 0.17369(18) 0.9065(3) 0.0827(4)
C5_6 C 0.2363(3) 1.0000 0.2573(6)
C7_6 C 0.0928(3) 0.5000 0.2665(8)
C8_4 C 0.17982(19) 0.5885(3) 0.2903(4)
C9_4 C 0.18749(17) 0.5930(2) 0.0792(3)
C11_4 C 0.3455(2) 0.7876(4) 0.4207(4)
H1_4 H 0.3634 0.7934 0.5040
C12_4 C 0.3731(2) 0.7982(6) 0.3385(5)
H2_4 H 0.4090 0.8127 0.3645
C13_4 C 0.3457(2) 0.7868(4) 0.2171(4)
H3_4 H 0.3637 0.7920 0.1600
C14_4 C 0.26991(17) 0.7612(2) 0.2643(3)
H4_4 H 0.2336 0.7495 0.2381
N20_4 N 0.29866(18) 0.8647(2) 0.6315(3)
N22_4 N 0.20624(14) 0.7307(2) 0.6167(3)
N23_2 N 0.20614(15) 0.7316(2) 0.8211(3)
C20_4 C 0.08445(18) 0.3869(3) 0.0930(4)
C23_4 C 0.18749(17) 0.4070(2) 0.0792(3)
C24_4 C 0.1545(2) 0.7124(4) 0.5793(4)
H5_4 H 0.1366 0.7066 0.4960
C25_4 C 0.1269(2) 0.7018(6) 0.6615(5)
H6_4 H 0.0910 0.6873 0.6355
C26_4 C 0.1543(2) 0.7132(4) 0.7829(4)
H7_4 H 0.1363 0.7080 0.8400
C27_4 C 0.23009(17) 0.7388(2) 0.7357(3)
H8_4 H 0.2664 0.7505 0.7619
N10_6 N 0.0878(4) 0.5000 0.8398(7)
C10_6 C 0.1055(3) 0.5000 0.9427(7)
N21_4 N 0.28895(16) 0.8534(2) 0.9526(3)
H11_2 H 0.997707 0.71975 0.748363
O1_3 O 0.4743(3) 0.7471(6) 0.1879(6)
N6_3 N 0.55476(17) 0.8297(2) 0.0648(4)
O2_3 O 0.5257(3) 0.7471(6) 0.8121(6)
N19_3 N 0.44524(17) 0.8297(2) 0.9352(4)
N6_4 N 0.05476(17) 0.3297(2) 0.0648(4)
O2_4 O 0.0257(3) 0.2471(6) 0.8121(6)
O1_4 O 0.9743(3) 0.2471(6) 0.1879(6)
N19_4 N 0.94524(17) 0.3297(2) 0.9352(4)
H11_3 H 0.997707 0.28025 0.748363
H11_4 H 0.00229334 0.28025 0.251637
loop_
_geom_bond_atom_site_label_1
_geom_bond_atom_site_label_2
_geom_bond_site_symmetry_1
_geom_bond_site_symmetry_2
N10 C10 1_555 1_555
W5 C19 1_555 1_555
O2 Cu3 1_555 1_555
N16 Cu3 1_555 1_555
N18 Cu2 1_555 1_555
N19 Cu3 1_555 1_555
N21 Cu2 1_555 1_555
N24 Cu2 1_555 1_555
C19 N19 1_555 1_555
W1 C1 1_555 1_555
W2 C6 1_555 1_555
Cu1 N1 1_555 1_555
Cu2_2 N4 1_555 1_555
Cu3_2 O1 1_555 1_555
N1 C1 1_555 1_555
N2 C2 1_555 1_555
N3 Cu3_2 1_555 1_555
N4 C4 1_555 1_555
N5 C5 1_555 1_555
N6 Cu3_2 1_555 1_555
N7 C7 1_555 1_555
N8 Cu1 1_555 1_555
N9 Cu2_2 1_555 1_555
N11 Cu1 1_555 1_555
N12 Cu2_2 1_555 1_555
C2 W1 1_555 1_555
C3 W1 1_555 1_555
C4 W1 1_555 1_555
C5 W1 1_555 1_555
C6 N6 1_555 1_555
C7 W2 1_555 1_555
C8 W2 1_555 1_555
C9 W2 1_555 1_555
C11 N11 1_555 1_555
H1 C11 1_555 1_555
C12 C11 1_555 1_555
H2 C12 1_555 1_555
C13 N12 1_555 1_555
H3 C13 1_555 1_555
C14 N11 1_555 1_555
H4 C14 1_555 1_555
W3 C16 1_555 1_555
W4 C21 1_555 1_555
Cu4 N13 1_555 1_555
Cu5_2 N17 1_555 1_555
Cu7_2 N15 1_555 1_555
N13 C15 1_555 1_555
N14 Cu1 1_555 1_555
N15 C17 1_555 1_555
N17 C18 1_555 1_555
N20 Cu1 1_555 1_555
N22 Cu1 1_555 1_555
N24 C26 1_555 1_555
C15 W1 1_555 1_555
C16 N14 1_555 1_555
C17 W1 1_555 1_555
C18 W1 1_555 1_555
C21 N20 1_555 1_555
C24 N22 1_555 1_555
H5 C24 1_555 1_555
C25 C24 1_555 1_555
H6 C25 1_555 1_555
C26 C25 1_555 1_555
H7 C26 1_555 1_555
C27 N22 1_555 1_555
H8 C27 1_555 1_555
N3 C3 1_555 1_555
N8 C8 1_555 1_555
N9 C9 1_555 1_555
N12 C14 1_555 1_555
C12 C13 1_555 1_555
N24 C27 1_555 1_555
N10_2 C10_2 1_555 1_555
N7_2 C7_2 1_555 1_555
C7_2 W2_2 1_555 1_555
C20 W2_2 1_555 1_555
C22 W2_2 1_555 1_555
C23 W2_2 1_555 1_555
W4 C19_2 1_555 1_555
N16_2 Cu3_3 1_555 1_555
N19_2 Cu3_3 1_555 1_555
C19_2 N19_2 1_555 1_555
Cu3_4 O1_2 1_555 1_555
N2_2 C2_2 1_555 1_555
N5_2 C5_2 1_555 1_555
C2_2 W1_2 1_555 1_555
C5_2 W1_2 1_555 1_555
Cu4_2 N13_2 1_555 1_555
Cu5_4 N17_2 1_555 1_555
Cu7_6 N15_2 1_555 1_555
N13_2 C15_2 1_555 1_555
N15_2 C17_2 1_555 1_555
N17_2 C18_2 1_555 1_555
C15_2 W1_2 1_555 1_555
C17_2 W1_2 1_555 1_555
C18_2 W1_2 1_555 1_555
N10_3 C10_3 1_555 1_555
O2_2 Cu3_5 1_555 1_555
N18_2 Cu2_3 1_555 1_555
N21_2 Cu2_3 1_555 1_555
N24_2 Cu2_3 1_555 1_555
W1_3 C1_2 1_555 1_555
W2_3 C6_2 1_555 1_555
Cu1_2 N1_2 1_555 1_555
Cu2_4 N4_2 1_555 1_555
N1_2 C1_2 1_555 1_555
N2_3 C2_3 1_555 1_555
N3_2 Cu3_6 1_555 1_555
N4_2 C4_2 1_555 1_555
N5_3 C5_3 1_555 1_555
N6_2 Cu3_6 1_555 1_555
N7_3 C7_3 1_555 1_555
N8_2 Cu1_2 1_555 1_555
N9_2 Cu2_4 1_555 1_555
N11_2 Cu1_2 1_555 1_555
N12_2 Cu2_4 1_555 1_555
C2_3 W1_3 1_555 1_555
C3_2 W1_3 1_555 1_555
C4_2 W1_3 1_555 1_555
C5_3 W1_3 1_555 1_555
C6_2 N6_2 1_555 1_555
C7_3 W2_3 1_555 1_555
C8_2 W2_3 1_555 1_555
C9_2 W2_3 1_555 1_555
C11_2 N11_2 1_555 1_555
H1_2 C11_2 1_555 1_555
C12_2 C11_2 1_555 1_555
H2_2 C12_2 1_555 1_555
C13_2 N12_2 1_555 1_555
H3_2 C13_2 1_555 1_555
C14_2 N11_2 1_555 1_555
H4_2 C14_2 1_555 1_555
W3_3 C16_2 1_555 1_555
W5_2 C21_2 1_555 1_555
N14_2 Cu1_2 1_555 1_555
N20_2 Cu1_2 1_555 1_555
N22_2 Cu1_2 1_555 1_555
N24_2 C26_2 1_555 1_555
C16_2 N14_2 1_555 1_555
C20_2 W2_3 1_555 1_555
C21_2 N20_2 1_555 1_555
C22_2 W2_3 1_555 1_555
C23_2 W2_3 1_555 1_555
C24_2 N22_2 1_555 1_555
H5_2 C24_2 1_555 1_555
C25_2 C24_2 1_555 1_555
H6_2 C25_2 1_555 1_555
C26_2 C25_2 1_555 1_555
H7_2 C26_2 1_555 1_555
C27_2 N22_2 1_555 1_555
H8_2 C27_2 1_555 1_555
N3_2 C3_2 1_555 1_555
N8_2 C8_2 1_555 1_555
N9_2 C9_2 1_555 1_555
N12_2 C14_2 1_555 1_555
C12_2 C13_2 1_555 1_555
N24_2 C27_2 1_555 1_555
W3_3 C1_3 1_555 1_555
Cu4_2 N1_3 1_555 1_555
Cu5_3 N4_3 1_555 1_555
N1_3 C1_3 1_555 1_555
N2_4 C2_4 1_555 1_555
N4_3 C4_3 1_555 1_555
N5_4 C5_4 1_555 1_555
N7_4 C7_4 1_555 1_555
N8_3 Cu4_2 1_555 1_555
N9_3 Cu5_3 1_555 1_555
N11_3 Cu4_2 1_555 1_555
N12_3 Cu5_3 1_555 1_555
C2_4 W3_3 1_555 1_555
C3_3 W3_3 1_555 1_555
C4_3 W3_3 1_555 1_555
C5_4 W3_3 1_555 1_555
C7_4 W5 1_555 1_555
C8_3 W5 1_555 1_555
C9_3 W5 1_555 1_555
C11_3 N11_3 1_555 1_555
H1_3 C11_3 1_555 1_555
C12_3 C11_3 1_555 1_555
H2_3 C12_3 1_555 1_555
C13_3 N12_3 1_555 1_555
H3_3 C13_3 1_555 1_555
C14_3 N11_3 1_555 1_555
H4_3 C14_3 1_555 1_555
Cu5_4 N23 1_555 1_555
Cu7 N15_3 1_555 1_555
N15_3 C17_3 1_555 1_555
N18_2 C18_3 1_555 1_555
N20_3 Cu4_2 1_555 1_555
N22_3 Cu4_2 1_555 1_555
N23 C26_3 1_555 1_555
C17_3 W3_3 1_555 1_555
C18_3 W3_3 1_555 1_555
C22_2 N20_3 1_555 1_555
C24_3 N22_3 1_555 1_555
H5_3 C24_3 1_555 1_555
C25_3 C24_3 1_555 1_555
H6_3 C25_3 1_555 1_555
C26_3 C25_3 1_555 1_555
H7_3 C26_3 1_555 1_555
C27_3 N22_3 1_555 1_555
H8_3 C27_3 1_555 1_555
N16 C3_3 1_555 1_555
N8_3 C8_3 1_555 1_555
N9_3 C9_3 1_555 1_555
N12_3 C14_3 1_555 1_555
C12_3 C13_3 1_555 1_555
N23 C27_3 1_555 1_555
N10_4 C10_4 1_555 1_555
N21_3 Cu5_4 1_555 1_555
N7_5 C7_5 1_555 1_555
C7_5 W5_2 1_555 1_555
C20_3 W5_2 1_555 1_555
C23_3 W5_2 1_555 1_555
N10_5 C10_5 1_555 1_555
N2_5 C2_5 1_555 1_555
N5_5 C5_5 1_555 1_555
C2_5 W3 1_555 1_555
C5_5 W3 1_555 1_555
Cu7_3 N15_4 1_555 1_555
N15_4 C17_4 1_555 1_555
N18 C18_4 1_555 1_555
C17_4 W3 1_555 1_555
C18_4 W3 1_555 1_555
W3_2 C1_4 1_555 1_555
Cu4 N1_4 1_555 1_555
Cu5 N4_4 1_555 1_555
N1_4 C1_4 1_555 1_555
N2_6 C2_6 1_555 1_555
N4_4 C4_4 1_555 1_555
N5_6 C5_6 1_555 1_555
N7_6 C7_6 1_555 1_555
N8_4 Cu4 1_555 1_555
N9_4 Cu5 1_555 1_555
N11_4 Cu4 1_555 1_555
N12_4 Cu5 1_555 1_555
C2_6 W3_2 1_555 1_555
C3_4 W3_2 1_555 1_555
C4_4 W3_2 1_555 1_555
C5_6 W3_2 1_555 1_555
C7_6 W4 1_555 1_555
C8_4 W4 1_555 1_555
C9_4 W4 1_555 1_555
C11_4 N11_4 1_555 1_555
H1_4 C11_4 1_555 1_555
C12_4 C11_4 1_555 1_555
H2_4 C12_4 1_555 1_555
C13_4 N12_4 1_555 1_555
H3_4 C13_4 1_555 1_555
C14_4 N11_4 1_555 1_555
H4_4 C14_4 1_555 1_555
Cu5_2 N23_2 1_555 1_555
N20_4 Cu4 1_555 1_555
N22_4 Cu4 1_555 1_555
N23_2 C26_4 1_555 1_555
C20_4 W4 1_555 1_555
C22 N20_4 1_555 1_555
C23_4 W4 1_555 1_555
C24_4 N22_4 1_555 1_555
H5_4 C24_4 1_555 1_555
C25_4 C24_4 1_555 1_555
H6_4 C25_4 1_555 1_555
C26_4 C25_4 1_555 1_555
H7_4 C26_4 1_555 1_555
C27_4 N22_4 1_555 1_555
H8_4 C27_4 1_555 1_555
N16_2 C3_4 1_555 1_555
N8_4 C8_4 1_555 1_555
N9_4 C9_4 1_555 1_555
N12_4 C14_4 1_555 1_555
C12_4 C13_4 1_555 1_555
N23_2 C27_4 1_555 1_555
N10_6 C10_6 1_555 1_555
N21_4 Cu5_2 1_555 1_555
Cu7 O1_3 1_555 1_555
N6_3 Cu7 1_555 1_555
C20_3 N6_3 1_555 1_555
N21_2 C23_3 1_555 1_555
O2_3 Cu7_2 1_555 1_555
N19_3 Cu7_2 1_555 1_555
C20 N19_3 1_555 1_555
N6_4 Cu7_3 1_555 1_555
C20_4 N6_4 1_555 1_555
N21 C23_4 1_555 1_555
O2_4 Cu7_4 1_555 1_555
Cu7_5 O1_4 1_555 1_555
N19_4 Cu7_6 1_555 1_555
C20_2 N19_4 1_555 1_555
N21_4 C23 1_555 1_555
N21_3 C23_2 1_555 1_555

#END
