
###############################################################################
#
# This file contains modified crystal structure data generated from the
# MOF subset of the Cambridge Structural Database (CSD) v543 
# hosted by the Cambridge Crystallographic Data Centre (CCDC).
#
# This work is licensed under the Creative Commons
# Attribution-NonCommercial-ShareAlike 4.0 International License.
# To view a copy of this license, visit
# http://creativecommons.org/licenses/by-nc-sa/4.0/
# or send a letter to
# Creative Commons, PO Box 1866, Mountain View, CA 94042, USA.
#
# CIF created using the CSD Python API on 29 September 2022
# The structure has been converted into the P1 space group
# The structure has a 3D framework
# The original CSD entry NIXPUG is in the monoclinic crystal system
# The framework has been calculated to contain at least 10.0% void space
# The void calculation uses a probe of radius 1.32A, grid spacing 0.4
# The framework is charged, counterions have been retained in the structure
#
###############################################################################

data_NIXPUG
_chemical_formula_moiety         '(C40 H48 Ag8 F48 S40 Sb8)n'
_symmetry_cell_setting           triclinic
_symmetry_space_group_name_H-M   'P 1'
_symmetry_Int_Tables_number      1
_space_group_name_Hall           'P 1'
loop_
_symmetry_equiv_pos_site_id
_symmetry_equiv_pos_as_xyz
1 x,y,z
_cell_length_a                   18.6584(5)
_cell_length_b                   8.8969(2)
_cell_length_c                   20.1351(6)
_cell_angle_alpha                90.00
_cell_angle_beta                 101.7620(10)
_cell_angle_gamma                90.00
_cell_volume                     3272.28
loop_
_atom_site_label
_atom_site_type_symbol
_atom_site_fract_x
_atom_site_fract_y
_atom_site_fract_z
Sb1 Sb 0.706563(14) 0.30663(3) 0.051134(14)
F1 F 0.7091(2) 0.4342(5) 0.1241(2)
F4 F 0.77859(15) 0.1896(4) 0.10474(16)
F5 F 0.77871(16) 0.4223(4) 0.02408(19)
F6 F 0.63573(15) 0.1877(4) 0.07837(17)
F2 F 0.7070(2) 0.1749(5) 0.97979(17)
F3 F 0.63467(18) 0.4215(4) 0.9979(2)
Sb1_2 Sb 0.793437(14) 0.80663(3) 0.448866(14)
F1_2 F 0.7909(2) 0.9342(5) 0.3759(2)
F2_2 F 0.7930(2) 0.6749(5) 0.52021(17)
F3_2 F 0.86533(18) 0.9215(4) 0.5021(2)
F4_2 F 0.72141(15) 0.6896(4) 0.39526(16)
F5_2 F 0.72129(16) 0.9223(4) 0.47592(19)
F6_2 F 0.86427(15) 0.6877(4) 0.42163(17)
F2_3 F 0.2930(2) 0.8251(5) 0.02021(17)
F3_3 F 0.36533(18) 0.5785(4) 0.0021(2)
Sb1_3 Sb 0.293437(14) 0.69337(3) 0.948866(14)
F1_3 F 0.2909(2) 0.5658(5) 0.8759(2)
F4_3 F 0.22141(15) 0.8104(4) 0.89526(16)
F5_3 F 0.22129(16) 0.5777(4) 0.97592(19)
F6_3 F 0.36427(15) 0.8123(4) 0.92163(17)
Sb1_4 Sb 0.206563(14) 0.19337(3) 0.551134(14)
F1_4 F 0.2091(2) 0.0658(5) 0.6241(2)
F2_4 F 0.2070(2) 0.3251(5) 0.47979(17)
F3_4 F 0.13467(18) 0.0785(4) 0.4979(2)
F4_4 F 0.27859(15) 0.3104(4) 0.60474(16)
F5_4 F 0.27871(16) 0.0777(4) 0.52408(19)
F6_4 F 0.13573(15) 0.3123(4) 0.57837(17)
Sb2 Sb 0.593658(17) 0.67889(4) 0.683126(15)
F7 F 0.5832(2) 0.8502(5) 0.6292(2)
F8 F 0.6001(2) 0.5154(4) 0.74115(19)
F9 F 0.6776(4) 0.7606(8) 0.7441(3)
F10 F 0.6570(6) 0.6164(13) 0.6326(4)
F11 F 0.5399(6) 0.7607(11) 0.7429(5)
F12 F 0.5164(6) 0.6058(14) 0.6281(5)
Sb2_2 Sb 0.906342(17) 0.17889(4) 0.816874(15)
F7_2 F 0.9168(2) 0.3502(5) 0.8708(2)
F8_2 F 0.8999(2) 0.0154(4) 0.75885(19)
F9_2 F 0.8224(4) 0.2606(8) 0.7559(3)
F10_2 F 0.8430(6) 0.1164(13) 0.8674(4)
F11_2 F 0.9601(6) 0.2607(11) 0.7571(5)
F12_2 F 0.9836(6) 0.1058(14) 0.8719(5)
Sb2_3 Sb 0.406342(17) 0.32111(4) 0.316874(15)
F7_3 F 0.4168(2) 0.1498(5) 0.3708(2)
F8_3 F 0.3999(2) 0.4846(4) 0.25885(19)
F9_3 F 0.3224(4) 0.2394(8) 0.2559(3)
F10_3 F 0.3430(6) 0.3836(13) 0.3674(4)
F11_3 F 0.4601(6) 0.2393(11) 0.2571(5)
F12_3 F 0.4836(6) 0.3942(14) 0.3719(5)
Sb2_4 Sb 0.093658(17) 0.82111(4) 0.183126(15)
F7_4 F 0.0832(2) 0.6498(5) 0.1292(2)
F8_4 F 0.1001(2) 0.9846(4) 0.24115(19)
F9_4 F 0.1776(4) 0.7394(8) 0.2441(3)
F10_4 F 0.1570(6) 0.8836(13) 0.1326(4)
F11_4 F 0.0399(6) 0.7393(11) 0.2429(5)
F12_4 F 0.0164(6) 0.8942(14) 0.1281(5)
S7 S 0.06641(7) 0.3111(2) 0.32931(6)
S8 S 0.03738(6) 0.28587(14) 0.17901(5)
C6 C 0.1531(3) 0.3917(8) 0.3233(3)
H7 H 0.1748 0.3336 0.2923
H8 H 0.1850 0.3912 0.3672
H9 H 0.1460 0.4932 0.3071
C8 C 0.0132(2) 0.3653(5) 0.2505(2)
Ag3 Ag 0.020894(19) 0.58079(5) 0.593014(16)
Ag4 Ag 0.091195(18) 0.41137(4) 0.013488(16)
S11 S 0.03178(5) 0.68575(12) 0.48267(5)
Ag1 Ag 0.979106(19) 0.41921(5) 0.406986(16)
Ag2 Ag 0.591195(18) 0.08863(4) 0.513488(16)
S1 S 0.70041(5) 0.17069(14) 0.60944(5)
S2 S 0.64872(5) 0.29133(11) 0.44550(5)
S3 S 0.85288(5) 0.23010(12) 0.58963(5)
S4 S 0.80857(5) 0.32906(11) 0.45224(5)
S5 S 0.96822(5) 0.31425(12) 0.51733(5)
S6 S 0.91833(6) 0.55936(12) 0.29840(5)
S9 S 0.91102(5) 0.47387(12) 0.15433(5)
S10 S 0.96143(5) 0.34035(12) 0.03640(5)
H1 H 0.7850 0.0231 0.6808
C2 C 0.6191(3) 0.4673(6) 0.4768(3)
H4 H 0.6377 0.5498 0.4546
H5 H 0.6374 0.4741 0.5248
H6 H 0.5666 0.4712 0.4675
C3 C 0.75919(19) 0.2284(4) 0.55697(18)
C4 C 0.73866(19) 0.2780(4) 0.49268(18)
C5 C 0.8792(2) 0.2925(4) 0.51788(18)
C7 C 0.8220(2) 0.5104(6) 0.2770(2)
H10 H 0.7991 0.5626 0.2365
H11 H 0.7989 0.5389 0.3136
H12 H 0.8170 0.4040 0.2697
C9 C 0.9534(2) 0.4531(4) 0.23886(19)
C10 C 0.9705(2) 0.3682(4) 0.12039(19)
S12 S 0.46143(5) 0.15965(12) 0.53640(5)
Ag5 Ag 0.908805(18) 0.58863(4) 0.986512(16)
C1 C 0.7442(3) 0.9990(6) 0.6451(2)
H2 H 0.7611 0.9436 0.6103
H3 H 0.7097 0.9392 0.6629
S13 S 0.53857(5) 0.84035(12) 0.46360(5)
S12_2 S 0.03857(5) 0.65965(12) 0.96360(5)
S6_2 S 0.58167(6) 0.05936(12) 0.20160(5)
H4_2 H 0.8623 0.0498 0.0454
C7_2 C 0.6780(2) 0.0104(6) 0.2230(2)
H10_2 H 0.7009 0.0626 0.2635
H11_2 H 0.7011 0.0389 0.1864
S11_2 S 0.46822(5) 0.18575(12) 0.01733(5)
Ag3_2 Ag 0.479106(19) 0.08079(5) 0.906986(16)
Ag1_2 Ag 0.520894(19) 0.91921(5) 0.093014(16)
S2_2 S 0.85128(5) 0.79133(11) 0.05450(5)
S4_2 S 0.69143(5) 0.82906(11) 0.04776(5)
S7_2 S 0.43359(7) 0.8111(2) 0.17069(6)
S8_2 S 0.46262(6) 0.78587(14) 0.32099(5)
S9_2 S 0.58898(5) 0.97387(12) 0.34567(5)
C2_2 C 0.8809(3) 0.9673(6) 0.0232(3)
H6_2 H 0.9334 0.9712 0.0325
C4_2 C 0.76134(19) 0.7780(4) 0.00732(18)
C6_2 C 0.3469(3) 0.8917(8) 0.1767(3)
H7_2 H 0.3252 0.8336 0.2077
H8_2 H 0.3150 0.8912 0.1328
H9_2 H 0.3540 0.9932 0.1929
H12_2 H 0.6830 0.9040 0.2303
C8_2 C 0.4868(2) 0.8653(5) 0.2495(2)
C9_2 C 0.5466(2) 0.9531(4) 0.26114(19)
C10_2 C 0.5295(2) 0.8682(4) 0.37961(19)
Ag4_2 Ag 0.408805(18) 0.91137(4) 0.486512(16)
S1_2 S 0.79959(5) 0.67069(14) 0.89056(5)
S3_2 S 0.64712(5) 0.73010(12) 0.91037(5)
S5_2 S 0.53178(5) 0.81425(12) 0.98267(5)
C1_2 C 0.7558(3) 0.4990(6) 0.8549(2)
H1_2 H 0.7150 0.5231 0.8192
H2_2 H 0.7389 0.4436 0.8897
H3_2 H 0.7903 0.4392 0.8371
H5_2 H 0.8626 0.9741 0.9752
C3_2 C 0.74081(19) 0.7284(4) 0.94303(18)
C5_2 C 0.6208(2) 0.7925(4) 0.98212(18)
C1_3 C 0.2558(3) 0.0010(6) 0.3549(2)
H2_3 H 0.2389 0.0564 0.3897
H3_3 H 0.2903 0.0608 0.3371
S1_3 S 0.29959(5) 0.82931(14) 0.39056(5)
S2_3 S 0.35128(5) 0.70867(11) 0.55450(5)
S3_3 S 0.14712(5) 0.76990(12) 0.41037(5)
S4_3 S 0.19143(5) 0.67094(11) 0.54776(5)
S6_3 S 0.08167(6) 0.44064(12) 0.70160(5)
S9_3 S 0.08898(5) 0.52613(12) 0.84567(5)
H1_3 H 0.2150 0.9769 0.3192
C2_3 C 0.3809(3) 0.5327(6) 0.5232(3)
H4_3 H 0.3623 0.4502 0.5454
H5_3 H 0.3626 0.5259 0.4752
H6_3 H 0.4334 0.5288 0.5325
C3_3 C 0.24081(19) 0.7716(4) 0.44303(18)
C4_3 C 0.26134(19) 0.7220(4) 0.50732(18)
C5_3 C 0.1208(2) 0.7075(4) 0.48212(18)
C7_3 C 0.1780(2) 0.4896(6) 0.7230(2)
H10_3 H 0.2009 0.4374 0.7635
H11_3 H 0.2011 0.4611 0.6864
H12_3 H 0.1830 0.5960 0.7303
C9_3 C 0.0466(2) 0.5469(4) 0.76114(19)
C10_3 C 0.0295(2) 0.6318(4) 0.87961(19)
S7_3 S 0.93359(7) 0.6889(2) 0.67069(6)
S8_3 S 0.96262(6) 0.71413(14) 0.82099(5)
C6_3 C 0.8469(3) 0.6083(8) 0.6767(3)
H7_3 H 0.8252 0.6664 0.7077
H8_3 H 0.8150 0.6088 0.6328
H9_3 H 0.8540 0.5068 0.6929
C8_3 C 0.9868(2) 0.6347(5) 0.7495(2)
S1_4 S 0.20041(5) 0.32931(14) 0.10944(5)
S3_4 S 0.35288(5) 0.26990(12) 0.08963(5)
C1_4 C 0.2442(3) 0.5010(6) 0.1451(2)
H1_4 H 0.2850 0.4769 0.1808
H2_4 H 0.2611 0.5564 0.1103
H3_4 H 0.2097 0.5608 0.1629
H5_4 H 0.1374 0.0259 0.0248
C3_4 C 0.25919(19) 0.2716(4) 0.05697(18)
C5_4 C 0.3792(2) 0.2075(4) 0.01788(18)
S2_4 S 0.14872(5) 0.20867(11) 0.94550(5)
S4_4 S 0.30857(5) 0.17094(11) 0.95224(5)
S7_4 S 0.56641(7) 0.1889(2) 0.82931(6)
S8_4 S 0.53738(6) 0.21413(14) 0.67901(5)
S9_4 S 0.41102(5) 0.02613(12) 0.65433(5)
C2_4 C 0.1191(3) 0.0327(6) 0.9768(3)
H6_4 H 0.0666 0.0288 0.9675
C4_4 C 0.23866(19) 0.2220(4) 0.99268(18)
C6_4 C 0.6531(3) 0.1083(8) 0.8233(3)
H7_4 H 0.6748 0.1664 0.7923
H8_4 H 0.6850 0.1088 0.8672
H9_4 H 0.6460 0.0068 0.8071
H12_4 H 0.3170 0.0960 0.7697
C8_4 C 0.5132(2) 0.1347(5) 0.7505(2)
C9_4 C 0.4534(2) 0.0469(4) 0.73886(19)
C10_4 C 0.4705(2) 0.1318(4) 0.62039(19)
S6_4 S 0.41833(6) 0.94064(12) 0.79840(5)
H4_4 H 0.1377 0.9502 0.9546
C7_4 C 0.3220(2) 0.9896(6) 0.7770(2)
H10_4 H 0.2991 0.9374 0.7365
H11_4 H 0.2989 0.9611 0.8136
loop_
_geom_bond_atom_site_label_1
_geom_bond_atom_site_label_2
_geom_bond_site_symmetry_1
_geom_bond_site_symmetry_2
Sb1 F1 1_555 1_555
F4 Sb1 1_555 1_555
F5 Sb1 1_555 1_555
F6 Sb1 1_555 1_555
Sb1_2 F1_2 1_555 1_555
F2_2 Sb1_2 1_555 1_555
F3_2 Sb1_2 1_555 1_555
F4_2 Sb1_2 1_555 1_555
F5_2 Sb1_2 1_555 1_555
F6_2 Sb1_2 1_555 1_555
Sb1_3 F1_3 1_555 1_555
F4_3 Sb1_3 1_555 1_555
F5_3 Sb1_3 1_555 1_555
F6_3 Sb1_3 1_555 1_555
Sb1_4 F1_4 1_555 1_555
F2_4 Sb1_4 1_555 1_555
F3_4 Sb1_4 1_555 1_555
F4_4 Sb1_4 1_555 1_555
F5_4 Sb1_4 1_555 1_555
F6_4 Sb1_4 1_555 1_555
Sb2 F7 1_555 1_555
F8 Sb2 1_555 1_555
F9 Sb2 1_555 1_555
F10 Sb2 1_555 1_555
F11 Sb2 1_555 1_555
F12 Sb2 1_555 1_555
Sb2_2 F7_2 1_555 1_555
F8_2 Sb2_2 1_555 1_555
F9_2 Sb2_2 1_555 1_555
F10_2 Sb2_2 1_555 1_555
F11_2 Sb2_2 1_555 1_555
F12_2 Sb2_2 1_555 1_555
Sb2_3 F7_3 1_555 1_555
F8_3 Sb2_3 1_555 1_555
F9_3 Sb2_3 1_555 1_555
F10_3 Sb2_3 1_555 1_555
F11_3 Sb2_3 1_555 1_555
F12_3 Sb2_3 1_555 1_555
Sb2_4 F7_4 1_555 1_555
F8_4 Sb2_4 1_555 1_555
F9_4 Sb2_4 1_555 1_555
F10_4 Sb2_4 1_555 1_555
F11_4 Sb2_4 1_555 1_555
F12_4 Sb2_4 1_555 1_555
S8 C8 1_555 1_555
C6 S7 1_555 1_555
H7 C6 1_555 1_555
H8 C6 1_555 1_555
H9 C6 1_555 1_555
C8 S7 1_555 1_555
Ag3 S11 1_555 1_555
Ag1 S5 1_555 1_555
Ag2 S1 1_555 1_555
S2 Ag2 1_555 1_555
S3 C3 1_555 1_555
S4 C4 1_555 1_555
S5 C5 1_555 1_555
S6 Ag1 1_555 1_555
S9 C9 1_555 1_555
S10 C10 1_555 1_555
C2 S2 1_555 1_555
H4 C2 1_555 1_555
H5 C2 1_555 1_555
H6 C2 1_555 1_555
C3 S1 1_555 1_555
C4 S2 1_555 1_555
C5 S3 1_555 1_555
C7 S6 1_555 1_555
H10 C7 1_555 1_555
H11 C7 1_555 1_555
H12 C7 1_555 1_555
C9 S6 1_555 1_555
S12 Ag2 1_555 1_555
S4 C5 1_555 1_555
S9 C10 1_555 1_555
C3 C4 1_555 1_555
H2 C1 1_555 1_555
H3 C1 1_555 1_555
C7_2 S6_2 1_555 1_555
H10_2 C7_2 1_555 1_555
H11_2 C7_2 1_555 1_555
S4_2 C4_2 1_555 1_555
S7_2 Ag1_2 1_555 1_555
S8_2 C8_2 1_555 1_555
S9_2 C9_2 1_555 1_555
S13 C10_2 1_555 1_555
C2_2 S2_2 1_555 1_555
H6_2 C2_2 1_555 1_555
C4_2 S2_2 1_555 1_555
C6_2 S7_2 1_555 1_555
H7_2 C6_2 1_555 1_555
H8_2 C6_2 1_555 1_555
H9_2 C6_2 1_555 1_555
C8_2 S7_2 1_555 1_555
C10_2 S8_2 1_555 1_555
Ag4_2 S13 1_555 1_555
S9_2 C10_2 1_555 1_555
C8_2 C9_2 1_555 1_555
Ag5 S1_2 1_555 1_555
S1_2 C1_2 1_555 1_555
S3_2 C3_2 1_555 1_555
S5_2 C5_2 1_555 1_555
C1_2 H1_2 1_555 1_555
H2_2 C1_2 1_555 1_555
H3_2 C1_2 1_555 1_555
C3_2 S1_2 1_555 1_555
C5_2 S3_2 1_555 1_555
H2_3 C1_3 1_555 1_555
H3_3 C1_3 1_555 1_555
Ag4_2 S1_3 1_555 1_555
S2_3 Ag4_2 1_555 1_555
S3_3 C3_3 1_555 1_555
S4_3 C4_3 1_555 1_555
S11 C5_3 1_555 1_555
S6_3 Ag3 1_555 1_555
S9_3 C9_3 1_555 1_555
S12_2 C10_3 1_555 1_555
C2_3 S2_3 1_555 1_555
H4_3 C2_3 1_555 1_555
H5_3 C2_3 1_555 1_555
H6_3 C2_3 1_555 1_555
C3_3 S1_3 1_555 1_555
C4_3 S2_3 1_555 1_555
C5_3 S3_3 1_555 1_555
C7_3 S6_3 1_555 1_555
H10_3 C7_3 1_555 1_555
H11_3 C7_3 1_555 1_555
H12_3 C7_3 1_555 1_555
C9_3 S6_3 1_555 1_555
S4_3 C5_3 1_555 1_555
S9_3 C10_3 1_555 1_555
C3_3 C4_3 1_555 1_555
S8_3 C8_3 1_555 1_555
C6_3 S7_3 1_555 1_555
H7_3 C6_3 1_555 1_555
H8_3 C6_3 1_555 1_555
H9_3 C6_3 1_555 1_555
C8_3 S7_3 1_555 1_555
Ag4 S1_4 1_555 1_555
S1_4 C1_4 1_555 1_555
S3_4 C3_4 1_555 1_555
S11_2 C5_4 1_555 1_555
C1_4 H1_4 1_555 1_555
H2_4 C1_4 1_555 1_555
H3_4 C1_4 1_555 1_555
C3_4 S1_4 1_555 1_555
C5_4 S3_4 1_555 1_555
S4_4 C4_4 1_555 1_555
S7_4 Ag3_2 1_555 1_555
S8_4 C8_4 1_555 1_555
S9_4 C9_4 1_555 1_555
S12 C10_4 1_555 1_555
C2_4 S2_4 1_555 1_555
H6_4 C2_4 1_555 1_555
C4_4 S2_4 1_555 1_555
C6_4 S7_4 1_555 1_555
H7_4 C6_4 1_555 1_555
H8_4 C6_4 1_555 1_555
H9_4 C6_4 1_555 1_555
C8_4 S7_4 1_555 1_555
C10_4 S8_4 1_555 1_555
S9_4 C10_4 1_555 1_555
C8_4 C9_4 1_555 1_555
C7_4 S6_4 1_555 1_555
H10_4 C7_4 1_555 1_555
H11_4 C7_4 1_555 1_555

#END
