
###############################################################################
#
# This file contains modified crystal structure data generated from the
# MOF subset of the Cambridge Structural Database (CSD) v543 
# hosted by the Cambridge Crystallographic Data Centre (CCDC).
#
# This work is licensed under the Creative Commons
# Attribution-NonCommercial-ShareAlike 4.0 International License.
# To view a copy of this license, visit
# http://creativecommons.org/licenses/by-nc-sa/4.0/
# or send a letter to
# Creative Commons, PO Box 1866, Mountain View, CA 94042, USA.
#
# CIF created using the CSD Python API on 29 September 2022
# The structure has been converted into the P1 space group
# The structure has a 3D framework
# The original CSD entry NIZDEI is in the orthorhombic crystal system
# The original CSD entry NIZDEI is in a Sohncke space group
# The framework has been calculated to contain at least 10.0% void space
# The void calculation uses a probe of radius 1.32A, grid spacing 0.4
# H atom positions have been added when not included in the experimental data
#
###############################################################################

data_NIZDEI
_chemical_formula_moiety         '(C124 H76 N12 Ni8 O36)n'
_symmetry_cell_setting           triclinic
_symmetry_space_group_name_H-M   'P 1'
_symmetry_Int_Tables_number      1
_space_group_name_Hall           'P 1'
loop_
_symmetry_equiv_pos_site_id
_symmetry_equiv_pos_as_xyz
1 x,y,z
_cell_length_a                   16.992(3)
_cell_length_b                   19.329(4)
_cell_length_c                   10.0813(18)
_cell_angle_alpha                90
_cell_angle_beta                 90
_cell_angle_gamma                90
_cell_volume                     3311.09
loop_
_atom_site_label
_atom_site_type_symbol
_atom_site_fract_x
_atom_site_fract_y
_atom_site_fract_z
N1 N 0.2437(4) 0.0187(4) 0.1485(7)
C1 C 0.2482(7) 0.0840(5) 0.1914(9)
H1 H 0.2809 0.1146 0.1464
C2 C 0.2065(7) 0.1082(5) 0.2996(10)
H2 H 0.2094 0.1544 0.3243
C3 C 0.1600(7) 0.0620(5) 0.3710(10)
H3 H 0.1319 0.0770 0.4447
O10 O 0.4114(4) 0.0086(4) 0.0543(8)
O15 O 0.2942(4) 0.0836(3) 0.9014(6)
N2 N 0.0838(5) 0.8865(4) 0.3269(7)
O1 O 0.1940(4) 0.8861(3) 0.7374(5)
O2 O 0.1931(4) 0.9600(3) 0.9077(6)
C4 C 0.1559(5) 0.9936(5) 0.3316(8)
C5 C 0.1982(5) 0.9745(4) 0.2170(8)
H4 H 0.1945 0.9291 0.1874
C6 C 0.1078(6) 0.9396(4) 0.4012(9)
C7 C 0.0887(5) 0.9469(5) 0.5344(9)
H5 H 0.1049 0.9857 0.5816
C8 C 0.0445(5) 0.8950(5) 0.5966(8)
C9 C 0.0196(5) 0.8401(5) 0.5180(9)
C10 C 0.0402(5) 0.8365(4) 0.3851(9)
C12 C 0.0161(5) 0.7788(5) 0.2993(9)
C13 C 0.0598(6) 0.7606(5) 0.1885(10)
H8 H 0.1049 0.7854 0.1669
C14 C 0.0364(7) 0.7050(6) 0.1093(11)
H9 H 0.0671 0.6903 0.0383
C16 C 0.0201(5) 0.8991(4) 0.7406(9)
C20 C 0.0466(6) 0.9160(6) 0.9729(11)
C21 C 0.0728(6) 0.9137(5) 0.8417(9)
C22 C 0.1612(5) 0.9221(4) 0.8267(9)
Ni4 Ni 0.30048(7) 0.98604(5) 0.97438(9)
Ni7 Ni 0.30711(7) 0.85224(5) 0.73981(9)
O13 O 0.3204(4) 0.8919(3) 0.0558(5)
H18 H 0.41977 0.980636 0.135715
O3 O 0.2653(4) 0.7675(3) 0.6216(6)
O4 O 0.3141(4) 0.8612(3) 0.5311(5)
O7 O 0.2058(4) 0.5836(3) 0.0986(6)
O8 O 0.2092(5) 0.5633(3) 0.3164(6)
C23 C 0.2835(5) 0.8021(4) 0.5187(8)
C24 C 0.2714(5) 0.7718(4) 0.3842(8)
C25 C 0.2885(5) 0.8131(4) 0.2741(8)
H15 H 0.3060 0.8583 0.2854
C26 C 0.2789(5) 0.7853(4) 0.1449(8)
C27 C 0.2540(5) 0.7182(5) 0.1294(8)
H16 H 0.2468 0.7006 0.0444
C28 C 0.2393(5) 0.6765(4) 0.2377(9)
C29 C 0.2471(6) 0.7040(4) 0.3666(9)
H17 H 0.2359 0.6765 0.4400
C30 C 0.2956(6) 0.8334(4) 0.0298(7)
C31 C 0.2156(5) 0.6021(4) 0.2158(8)
O9 O 0.3492(3) 0.9526(3) 0.7851(6)
Ni5 Ni 0.19952(7) 0.48604(5) 0.02562(9)
N4 N 0.4213(4) 0.8108(4) 0.7552(7)
O14 O 0.2841(4) 0.8085(3) 0.9165(6)
H19 H 0.452791 0.997303 0.988225
N3 N 0.9213(4) 0.6892(4) 0.2448(7)
H6 H 0.9886 0.8054 0.5550
C11 C 0.9474(6) 0.7418(5) 0.3218(9)
H7 H 0.9172 0.7540 0.3951
C15 C 0.9667(6) 0.6725(6) 0.1393(11)
H10 H 0.9497 0.6370 0.0840
C17 C 0.9413(5) 0.8888(5) 0.7699(9)
H11 H 0.9057 0.8795 0.7020
C18 C 0.9152(6) 0.8923(6) 0.9001(10)
H12 H 0.8622 0.8855 0.9189
Ni8 Ni 0.80711(7) 0.64776(5) 0.26019(9)
N3_2 N 0.0787(4) 0.3108(4) 0.2448(7)
H6_2 H 0.0114 0.1946 0.5550
C11_2 C 0.0526(6) 0.2582(5) 0.3218(9)
H7_2 H 0.0828 0.2460 0.3951
C15_2 C 0.0333(6) 0.3275(6) 0.1393(11)
H10_2 H 0.0503 0.3630 0.0840
C17_2 C 0.0587(5) 0.1112(5) 0.7699(9)
H11_2 H 0.0943 0.1205 0.7020
C18_2 C 0.0848(6) 0.1077(6) 0.9001(10)
H12_2 H 0.1378 0.1145 0.9189
Ni8_2 Ni 0.19289(7) 0.35224(5) 0.26019(9)
N2_2 N 0.9162(5) 0.1135(4) 0.3269(7)
O1_2 O 0.8060(4) 0.1139(3) 0.7374(5)
O2_2 O 0.8069(4) 0.0400(3) 0.9077(6)
C4_2 C 0.8441(5) 0.0064(5) 0.3316(8)
C5_2 C 0.8018(5) 0.0255(4) 0.2170(8)
H4_2 H 0.8055 0.0709 0.1874
C6_2 C 0.8922(6) 0.0604(4) 0.4012(9)
C7_2 C 0.9113(5) 0.0531(5) 0.5344(9)
H5_2 H 0.8951 0.0143 0.5816
C8_2 C 0.9555(5) 0.1050(5) 0.5966(8)
C9_2 C 0.9804(5) 0.1599(5) 0.5180(9)
C10_2 C 0.9598(5) 0.1635(4) 0.3851(9)
C12_2 C 0.9839(5) 0.2212(5) 0.2993(9)
C13_2 C 0.9402(6) 0.2394(5) 0.1885(10)
H8_2 H 0.8951 0.2146 0.1669
C14_2 C 0.9636(7) 0.2950(6) 0.1093(11)
H9_2 H 0.9329 0.3097 0.0383
C16_2 C 0.9799(5) 0.1009(4) 0.7406(9)
C20_2 C 0.9534(6) 0.0840(6) 0.9729(11)
C21_2 C 0.9272(6) 0.0863(5) 0.8417(9)
C22_2 C 0.8388(5) 0.0779(4) 0.8267(9)
Ni4_2 Ni 0.69952(7) 0.01396(5) 0.97438(9)
Ni7_2 Ni 0.69289(7) 0.14776(5) 0.73981(9)
O13_2 O 0.6796(4) 0.1081(3) 0.0558(5)
H18_2 H 0.58023 0.0193638 0.135715
O3_2 O 0.7347(4) 0.2325(3) 0.6216(6)
O4_2 O 0.6859(4) 0.1388(3) 0.5311(5)
O7_2 O 0.7942(4) 0.4164(3) 0.0986(6)
O8_2 O 0.7908(5) 0.4367(3) 0.3164(6)
C23_2 C 0.7165(5) 0.1979(4) 0.5187(8)
C24_2 C 0.7286(5) 0.2282(4) 0.3842(8)
C25_2 C 0.7115(5) 0.1869(4) 0.2741(8)
H15_2 H 0.6940 0.1417 0.2854
C26_2 C 0.7211(5) 0.2147(4) 0.1449(8)
C27_2 C 0.7460(5) 0.2818(5) 0.1294(8)
H16_2 H 0.7532 0.2994 0.0444
C28_2 C 0.7607(5) 0.3235(4) 0.2377(9)
C29_2 C 0.7529(6) 0.2960(4) 0.3666(9)
H17_2 H 0.7641 0.3235 0.4400
C30_2 C 0.7044(6) 0.1666(4) 0.0298(7)
C31_2 C 0.7844(5) 0.3979(4) 0.2158(8)
O9_2 O 0.6508(3) 0.0474(3) 0.7851(6)
Ni5_2 Ni 0.80048(7) 0.51396(5) 0.02562(9)
N4_2 N 0.5787(4) 0.1892(4) 0.7552(7)
O14_2 O 0.7159(4) 0.1915(3) 0.9165(6)
H19_2 H 0.547209 0.00269734 0.988225
O15_2 O 0.7058(4) 0.9164(3) 0.9014(6)
O6 O 0.2159(4) 0.3085(3) 0.0835(6)
O3_3 O 0.2347(4) 0.2675(3) 0.3784(6)
O4_3 O 0.1859(4) 0.3612(3) 0.4689(5)
O5 O 0.1796(4) 0.3919(3) 0.9442(5)
O8_3 O 0.2908(5) 0.0633(3) 0.6836(6)
C23_3 C 0.2165(5) 0.3021(4) 0.4813(8)
C24_3 C 0.2286(5) 0.2718(4) 0.6158(8)
C25_3 C 0.2115(5) 0.3131(4) 0.7259(8)
H15_3 H 0.1940 0.3583 0.7146
C26_3 C 0.2211(5) 0.2853(4) 0.8551(8)
C27_3 C 0.2460(5) 0.2182(5) 0.8706(8)
H16_3 H 0.2532 0.2006 0.9556
C28_3 C 0.2607(5) 0.1765(4) 0.7623(9)
C29_3 C 0.2529(6) 0.2040(4) 0.6334(9)
H17_3 H 0.2641 0.1765 0.5600
C30_3 C 0.2044(6) 0.3334(4) 0.9702(7)
C31_3 C 0.2844(5) 0.1021(4) 0.7842(8)
O9_3 O 0.1508(3) 0.4526(3) 0.2149(6)
O11 O 0.3060(4) 0.3861(3) 0.2626(5)
O12 O 0.3069(4) 0.4600(3) 0.0923(6)
H19_3 H 0.0472094 0.497303 0.0117752
N1_2 N 0.2563(4) 0.5187(4) 0.8515(7)
N2_3 N 0.4162(5) 0.3865(4) 0.6731(7)
C1_2 C 0.2518(7) 0.5840(5) 0.8086(9)
H1_2 H 0.2191 0.6146 0.8536
C2_2 C 0.2935(7) 0.6082(5) 0.7004(10)
H2_2 H 0.2906 0.6544 0.6757
C3_2 C 0.3400(7) 0.5620(5) 0.6290(10)
H3_2 H 0.3681 0.5770 0.5553
C4_3 C 0.3441(5) 0.4936(5) 0.6684(8)
C5_3 C 0.3018(5) 0.4745(4) 0.7830(8)
H4_3 H 0.3055 0.4291 0.8126
C6_3 C 0.3922(6) 0.4396(4) 0.5988(9)
C7_3 C 0.4113(5) 0.4469(5) 0.4656(9)
H5_3 H 0.3951 0.4857 0.4184
C8_3 C 0.4555(5) 0.3950(5) 0.4034(8)
C9_3 C 0.4804(5) 0.3401(5) 0.4820(9)
H6_3 H 0.5114 0.3054 0.4450
C10_3 C 0.4598(5) 0.3365(4) 0.6149(9)
C11_3 C 0.5526(6) 0.2418(5) 0.6782(9)
H7_3 H 0.5828 0.2540 0.6049
C12_3 C 0.4839(5) 0.2788(5) 0.7007(9)
C13_3 C 0.4402(6) 0.2606(5) 0.8115(10)
H8_3 H 0.3951 0.2854 0.8331
C14_3 C 0.4636(7) 0.2050(6) 0.8907(11)
H9_3 H 0.4329 0.1903 0.9617
C15_3 C 0.5333(6) 0.1725(6) 0.8607(11)
H10_3 H 0.5503 0.1370 0.9160
C16_3 C 0.4799(5) 0.3991(4) 0.2594(9)
C17_3 C 0.5587(5) 0.3888(5) 0.2301(9)
H11_3 H 0.5943 0.3795 0.2980
C18_3 C 0.5848(6) 0.3923(6) 0.0999(10)
H12_3 H 0.6378 0.3855 0.0811
C20_3 C 0.4534(6) 0.4160(6) 0.0271(11)
C21_3 C 0.4272(6) 0.4137(5) 0.1583(9)
C22_3 C 0.3388(5) 0.4221(4) 0.1733(9)
O10_2 O 0.0886(4) 0.5086(4) 0.9457(8)
H18_3 H 0.0802302 0.480636 0.864285
O6_2 O 0.7841(4) 0.6915(3) 0.0835(6)
O3_4 O 0.7653(4) 0.7325(3) 0.3784(6)
O4_4 O 0.8141(4) 0.6388(3) 0.4689(5)
O5_2 O 0.8204(4) 0.6081(3) 0.9442(5)
O8_4 O 0.7092(5) 0.9367(3) 0.6836(6)
C23_4 C 0.7835(5) 0.6979(4) 0.4813(8)
C24_4 C 0.7714(5) 0.7282(4) 0.6158(8)
C25_4 C 0.7885(5) 0.6869(4) 0.7259(8)
H15_4 H 0.8060 0.6417 0.7146
C26_4 C 0.7789(5) 0.7147(4) 0.8551(8)
C27_4 C 0.7540(5) 0.7818(5) 0.8706(8)
H16_4 H 0.7468 0.7994 0.9556
C28_4 C 0.7393(5) 0.8235(4) 0.7623(9)
C29_4 C 0.7471(6) 0.7960(4) 0.6334(9)
H17_4 H 0.7359 0.8235 0.5600
C30_4 C 0.7956(6) 0.6666(4) 0.9702(7)
C31_4 C 0.7156(5) 0.8979(4) 0.7842(8)
O9_4 O 0.8492(3) 0.5474(3) 0.2149(6)
O11_2 O 0.6940(4) 0.6139(3) 0.2626(5)
O12_2 O 0.6931(4) 0.5400(3) 0.0923(6)
H19_4 H 0.952791 0.502697 0.0117752
N1_3 N 0.7437(4) 0.4813(4) 0.8515(7)
N2_4 N 0.5838(5) 0.6135(4) 0.6731(7)
C1_3 C 0.7482(7) 0.4160(5) 0.8086(9)
H1_3 H 0.7809 0.3854 0.8536
C2_3 C 0.7065(7) 0.3918(5) 0.7004(10)
H2_3 H 0.7094 0.3456 0.6757
C3_3 C 0.6600(7) 0.4380(5) 0.6290(10)
H3_3 H 0.6319 0.4230 0.5553
C4_4 C 0.6559(5) 0.5064(5) 0.6684(8)
C5_4 C 0.6982(5) 0.5255(4) 0.7830(8)
H4_4 H 0.6945 0.5709 0.8126
C6_4 C 0.6078(6) 0.5604(4) 0.5988(9)
C7_4 C 0.5887(5) 0.5531(5) 0.4656(9)
H5_4 H 0.6049 0.5143 0.4184
C8_4 C 0.5445(5) 0.6050(5) 0.4034(8)
C9_4 C 0.5196(5) 0.6599(5) 0.4820(9)
H6_4 H 0.4886 0.6946 0.4450
C10_4 C 0.5402(5) 0.6635(4) 0.6149(9)
C11_4 C 0.4474(6) 0.7582(5) 0.6782(9)
H7_4 H 0.4172 0.7460 0.6049
C12_4 C 0.5161(5) 0.7212(5) 0.7007(9)
C13_4 C 0.5598(6) 0.7394(5) 0.8115(10)
H8_4 H 0.6049 0.7146 0.8331
C14_4 C 0.5364(7) 0.7950(6) 0.8907(11)
H9_4 H 0.5671 0.8097 0.9617
C15_4 C 0.4667(6) 0.8275(6) 0.8607(11)
H10_4 H 0.4497 0.8630 0.9160
C16_4 C 0.5201(5) 0.6009(4) 0.2594(9)
C17_4 C 0.4413(5) 0.6112(5) 0.2301(9)
H11_4 H 0.4057 0.6205 0.2980
C18_4 C 0.4152(6) 0.6077(6) 0.0999(10)
H12_4 H 0.3622 0.6145 0.0811
C20_4 C 0.5466(6) 0.5840(6) 0.0271(11)
C21_4 C 0.5728(6) 0.5863(5) 0.1583(9)
C22_4 C 0.6612(5) 0.5779(4) 0.1733(9)
O10_3 O 0.9114(4) 0.4914(4) 0.9457(8)
H18_4 H 0.91977 0.519364 0.864285
H14 H 0.0821 0.9243 0.0414
C19 C 0.9669(6) 0.9057(6) 0.0012(10)
H13 H 0.9490 0.9078 0.0883
C19_2 C 0.0331(6) 0.0943(6) 0.0012(10)
H13_2 H 0.0510 0.0922 0.0883
H14_2 H 0.9179 0.0757 0.0414
N1_4 N 0.7563(4) 0.9813(4) 0.1485(7)
C1_4 C 0.7518(7) 0.9160(5) 0.1914(9)
H1_4 H 0.7191 0.8854 0.1464
C2_4 C 0.7935(7) 0.8918(5) 0.2996(10)
H2_4 H 0.7906 0.8456 0.3243
C3_4 C 0.8400(7) 0.9380(5) 0.3710(10)
H3_4 H 0.8681 0.9230 0.4447
O10_4 O 0.5886(4) 0.9914(4) 0.0543(8)
C19_3 C 0.5331(6) 0.4057(6) 0.9988(10)
H13_3 H 0.5510 0.4078 0.9117
H14_3 H 0.4179 0.4243 0.9586
C19_4 C 0.4669(6) 0.5943(6) 0.9988(10)
H13_4 H 0.4490 0.5922 0.9117
H14_4 H 0.5821 0.5757 0.9586
loop_
_geom_bond_atom_site_label_1
_geom_bond_atom_site_label_2
_geom_bond_site_symmetry_1
_geom_bond_site_symmetry_2
N1 C1 1_555 1_555
C1 H1 1_555 1_555
C2 C1 1_555 1_555
H2 C2 1_555 1_555
C3 C2 1_555 1_555
H3 C3 1_555 1_555
N2 C6 1_555 1_555
O1 C22 1_555 1_555
O2 C22 1_555 1_555
H4 C5 1_555 1_555
C6 C4 1_555 1_555
C7 C6 1_555 1_555
H5 C7 1_555 1_555
C8 C7 1_555 1_555
C9 C8 1_555 1_555
C10 N2 1_555 1_555
C12 C10 1_555 1_555
C13 C12 1_555 1_555
H8 C13 1_555 1_555
C14 C13 1_555 1_555
H9 C14 1_555 1_555
C16 C8 1_555 1_555
C21 C16 1_555 1_555
C22 C21 1_555 1_555
Ni4 O2 1_555 1_555
Ni7 O1 1_555 1_555
C4 C5 1_555 1_555
C9 C10 1_555 1_555
C20 C21 1_555 1_555
Ni7 O3 1_555 1_555
O3 C23 1_555 1_555
O4 Ni7 1_555 1_555
O13 C30 1_555 1_555
O7 C31 1_555 1_555
O8 C31 1_555 1_555
C23 O4 1_555 1_555
C24 C23 1_555 1_555
C25 C24 1_555 1_555
H15 C25 1_555 1_555
C26 C25 1_555 1_555
C27 C26 1_555 1_555
H16 C27 1_555 1_555
C28 C27 1_555 1_555
C29 C24 1_555 1_555
H17 C29 1_555 1_555
C30 C26 1_555 1_555
C31 C28 1_555 1_555
O9 Ni4 1_555 1_555
Ni5 O7 1_555 1_555
N4 Ni7 1_555 1_555
O14 Ni7 1_555 1_555
Ni7 O9 1_555 1_555
C28 C29 1_555 1_555
N3 C11 1_555 1_555
C11 H7 1_555 1_555
C15 N3 1_555 1_555
H10 C15 1_555 1_555
H11 C17 1_555 1_555
C18 C17 1_555 1_555
H12 C18 1_555 1_555
Ni8 N3 1_555 1_555
N3_2 C11_2 1_555 1_555
C11_2 H7_2 1_555 1_555
C15_2 N3_2 1_555 1_555
H10_2 C15_2 1_555 1_555
H11_2 C17_2 1_555 1_555
C18_2 C17_2 1_555 1_555
H12_2 C18_2 1_555 1_555
Ni8_2 N3_2 1_555 1_555
N2_2 C6_2 1_555 1_555
O1_2 C22_2 1_555 1_555
O2_2 C22_2 1_555 1_555
H4_2 C5_2 1_555 1_555
C6_2 C4_2 1_555 1_555
C7_2 C6_2 1_555 1_555
H5_2 C7_2 1_555 1_555
C8_2 C7_2 1_555 1_555
C9_2 C8_2 1_555 1_555
C10_2 N2_2 1_555 1_555
C12_2 C10_2 1_555 1_555
C13_2 C12_2 1_555 1_555
H8_2 C13_2 1_555 1_555
C14_2 C13_2 1_555 1_555
H9_2 C14_2 1_555 1_555
C16_2 C8_2 1_555 1_555
C21_2 C16_2 1_555 1_555
C22_2 C21_2 1_555 1_555
Ni4_2 O2_2 1_555 1_555
Ni7_2 O1_2 1_555 1_555
C4_2 C5_2 1_555 1_555
C9_2 C10_2 1_555 1_555
C20_2 C21_2 1_555 1_555
Ni7_2 O3_2 1_555 1_555
O3_2 C23_2 1_555 1_555
O4_2 Ni7_2 1_555 1_555
O13_2 C30_2 1_555 1_555
O7_2 C31_2 1_555 1_555
O8_2 C31_2 1_555 1_555
C23_2 O4_2 1_555 1_555
C24_2 C23_2 1_555 1_555
C25_2 C24_2 1_555 1_555
H15_2 C25_2 1_555 1_555
C26_2 C25_2 1_555 1_555
C27_2 C26_2 1_555 1_555
H16_2 C27_2 1_555 1_555
C28_2 C27_2 1_555 1_555
C29_2 C24_2 1_555 1_555
H17_2 C29_2 1_555 1_555
C30_2 C26_2 1_555 1_555
C31_2 C28_2 1_555 1_555
O9_2 Ni4_2 1_555 1_555
Ni5_2 O7_2 1_555 1_555
N4_2 Ni7_2 1_555 1_555
O14_2 Ni7_2 1_555 1_555
Ni7_2 O9_2 1_555 1_555
C28_2 C29_2 1_555 1_555
Ni8_2 O6 1_555 1_555
Ni8_2 O3_3 1_555 1_555
O3_3 C23_3 1_555 1_555
O4_3 Ni8_2 1_555 1_555
O5 C30_3 1_555 1_555
O15 C31_3 1_555 1_555
O8_3 C31_3 1_555 1_555
C23_3 O4_3 1_555 1_555
C24_3 C23_3 1_555 1_555
C25_3 C24_3 1_555 1_555
H15_3 C25_3 1_555 1_555
C26_3 C25_3 1_555 1_555
C27_3 C26_3 1_555 1_555
H16_3 C27_3 1_555 1_555
C28_3 C27_3 1_555 1_555
C29_3 C24_3 1_555 1_555
H17_3 C29_3 1_555 1_555
C30_3 C26_3 1_555 1_555
C31_3 C28_3 1_555 1_555
O9_3 Ni5 1_555 1_555
O11 Ni8_2 1_555 1_555
O12 Ni5 1_555 1_555
Ni8_2 O9_3 1_555 1_555
C28_3 C29_3 1_555 1_555
N1_2 C1_2 1_555 1_555
N2_3 C6_3 1_555 1_555
N4_2 C11_3 1_555 1_555
O11 C22_3 1_555 1_555
O12 C22_3 1_555 1_555
C1_2 H1_2 1_555 1_555
C2_2 C1_2 1_555 1_555
H2_2 C2_2 1_555 1_555
C3_2 C2_2 1_555 1_555
H3_2 C3_2 1_555 1_555
C4_3 C3_2 1_555 1_555
C5_3 N1_2 1_555 1_555
H4_3 C5_3 1_555 1_555
C6_3 C4_3 1_555 1_555
C7_3 C6_3 1_555 1_555
H5_3 C7_3 1_555 1_555
C8_3 C7_3 1_555 1_555
C9_3 C8_3 1_555 1_555
H6_3 C9_3 1_555 1_555
C10_3 N2_3 1_555 1_555
C11_3 H7_3 1_555 1_555
C12_3 C10_3 1_555 1_555
C13_3 C12_3 1_555 1_555
H8_3 C13_3 1_555 1_555
C14_3 C13_3 1_555 1_555
H9_3 C14_3 1_555 1_555
C15_3 N4_2 1_555 1_555
H10_3 C15_3 1_555 1_555
C16_3 C8_3 1_555 1_555
C17_3 C16_3 1_555 1_555
H11_3 C17_3 1_555 1_555
C18_3 C17_3 1_555 1_555
H12_3 C18_3 1_555 1_555
C21_3 C16_3 1_555 1_555
C22_3 C21_3 1_555 1_555
C4_3 C5_3 1_555 1_555
C9_3 C10_3 1_555 1_555
C11_3 C12_3 1_555 1_555
C14_3 C15_3 1_555 1_555
C20_3 C21_3 1_555 1_555
O10_2 H18_3 1_555 1_555
Ni8 O6_2 1_555 1_555
Ni8 O3_4 1_555 1_555
O3_4 C23_4 1_555 1_555
O4_4 Ni8 1_555 1_555
O5_2 C30_4 1_555 1_555
O15_2 C31_4 1_555 1_555
O8_4 C31_4 1_555 1_555
C23_4 O4_4 1_555 1_555
C24_4 C23_4 1_555 1_555
C25_4 C24_4 1_555 1_555
H15_4 C25_4 1_555 1_555
C26_4 C25_4 1_555 1_555
C27_4 C26_4 1_555 1_555
H16_4 C27_4 1_555 1_555
C28_4 C27_4 1_555 1_555
C29_4 C24_4 1_555 1_555
H17_4 C29_4 1_555 1_555
C30_4 C26_4 1_555 1_555
C31_4 C28_4 1_555 1_555
O9_4 Ni5_2 1_555 1_555
O11_2 Ni8 1_555 1_555
O12_2 Ni5_2 1_555 1_555
Ni8 O9_4 1_555 1_555
C28_4 C29_4 1_555 1_555
N1_3 C1_3 1_555 1_555
N2_4 C6_4 1_555 1_555
N4 C11_4 1_555 1_555
O11_2 C22_4 1_555 1_555
O12_2 C22_4 1_555 1_555
C1_3 H1_3 1_555 1_555
C2_3 C1_3 1_555 1_555
H2_3 C2_3 1_555 1_555
C3_3 C2_3 1_555 1_555
H3_3 C3_3 1_555 1_555
C4_4 C3_3 1_555 1_555
C5_4 N1_3 1_555 1_555
H4_4 C5_4 1_555 1_555
C6_4 C4_4 1_555 1_555
C7_4 C6_4 1_555 1_555
H5_4 C7_4 1_555 1_555
C8_4 C7_4 1_555 1_555
C9_4 C8_4 1_555 1_555
H6_4 C9_4 1_555 1_555
C10_4 N2_4 1_555 1_555
C11_4 H7_4 1_555 1_555
C12_4 C10_4 1_555 1_555
C13_4 C12_4 1_555 1_555
H8_4 C13_4 1_555 1_555
C14_4 C13_4 1_555 1_555
H9_4 C14_4 1_555 1_555
C15_4 N4 1_555 1_555
H10_4 C15_4 1_555 1_555
C16_4 C8_4 1_555 1_555
C17_4 C16_4 1_555 1_555
H11_4 C17_4 1_555 1_555
C18_4 C17_4 1_555 1_555
H12_4 C18_4 1_555 1_555
C21_4 C16_4 1_555 1_555
C22_4 C21_4 1_555 1_555
C4_4 C5_4 1_555 1_555
C9_4 C10_4 1_555 1_555
C11_4 C12_4 1_555 1_555
C14_4 C15_4 1_555 1_555
C20_4 C21_4 1_555 1_555
O10_3 H18_4 1_555 1_555
H13 C19 1_555 1_555
H13_2 C19_2 1_555 1_555
N1_4 C1_4 1_555 1_555
C1_4 H1_4 1_555 1_555
C2_4 C1_4 1_555 1_555
H2_4 C2_4 1_555 1_555
C3_4 C2_4 1_555 1_555
H3_4 C3_4 1_555 1_555
H13_3 C19_3 1_555 1_555
H13_4 C19_4 1_555 1_555

#END
