
###############################################################################
#
# This file contains modified crystal structure data generated from the
# MOF subset of the Cambridge Structural Database (CSD) v543 
# hosted by the Cambridge Crystallographic Data Centre (CCDC).
#
# This work is licensed under the Creative Commons
# Attribution-NonCommercial-ShareAlike 4.0 International License.
# To view a copy of this license, visit
# http://creativecommons.org/licenses/by-nc-sa/4.0/
# or send a letter to
# Creative Commons, PO Box 1866, Mountain View, CA 94042, USA.
#
# CIF created using the CSD Python API on 29 September 2022
# The structure has been converted into the P1 space group
# The structure has a 3D framework
# The original CSD entry NIZGIP is in the hexagonal crystal system
# The framework has been calculated to contain at least 10.0% void space
# The void calculation uses a probe of radius 1.32A, grid spacing 0.4
#
###############################################################################

data_NIZGIP
_chemical_formula_moiety         '(C78 H54 Cl2 N48 Ni4 2-)n'
_symmetry_cell_setting           triclinic
_symmetry_space_group_name_H-M   'P 1'
_symmetry_Int_Tables_number      1
_space_group_name_Hall           'P 1'
loop_
_symmetry_equiv_pos_site_id
_symmetry_equiv_pos_as_xyz
1 x,y,z
_cell_length_a                   18.686(6)
_cell_length_b                   18.686(6)
_cell_length_c                   13.836(6)
_cell_angle_alpha                90
_cell_angle_beta                 90
_cell_angle_gamma                120
_cell_volume                     4183.83
loop_
_atom_site_label
_atom_site_type_symbol
_atom_site_fract_x
_atom_site_fract_y
_atom_site_fract_z
N19 N 0.1475(3) 0.6556(2) 0.0744(2)
C29 C 0.0170(3) 0.5834(2) 0.1626(2)
C30 C 0.1022(3) 0.6328(2) 0.1645(2)
C31 C 0.1460(6) 0.6600(4) 0.2500
H20 H 0.2029 0.6952 0.2500
C32 C 0.2162(3) 0.6535(2) 0.0547(3)
H21 H 0.2427 0.6373 0.0992
N23 N 0.1475(3) 0.6556(2) 0.4256(2)
N24 N 0.24252(25) 0.67648(18) 0.5331(2)
C35 C 0.0170(3) 0.5834(2) 0.3374(2)
C36 C 0.1022(3) 0.6328(2) 0.3355(2)
C37 C 0.2162(3) 0.6535(2) 0.4453(3)
H25 H 0.2427 0.6373 0.4008
C38 C 0.1281(4) 0.6826(3) 0.5083(3)
H26 H 0.0835 0.6909 0.5172
C39 C 0.1863(4) 0.6947(3) 0.5745(3)
H27 H 0.1882 0.7124 0.6377
Ni5 Ni 0.3334 0.6667 0.61279(5)
N20 N 0.24252(25) 0.67648(18) 0.9669(2)
C33 C 0.1281(4) 0.6826(3) 0.9917(3)
H22 H 0.0835 0.6909 0.9828
C34 C 0.1863(4) 0.6947(3) 0.9255(3)
H23 H 0.1882 0.7124 0.8623
Ni7 Ni 0.3333 0.6667 0.88721(5)
Ni1 Ni 0.6667 0.3333 0.11279(5)
N1 N 0.52846(18) 0.36883(19) 0.1696(2)
N2 N 0.58336(17) 0.34665(18) 0.20190(19)
N3 N 0.3444(2) 0.4919(2) 0.0744(2)
C1 C 0.4970(3) 0.3824(3) 0.2500
C2 C 0.4411(3) 0.4149(3) 0.2500
C3 C 0.4166(2) 0.4336(2) 0.1626(2)
H1 H 0.4333 0.4223 0.1040
C4 C 0.3672(2) 0.4694(2) 0.1645(2)
C5 C 0.3400(4) 0.4860(4) 0.2500
H2 H 0.3048 0.5077 0.2500
C6 C 0.3465(2) 0.5627(2) 0.0547(3)
H3 H 0.3627 0.6054 0.0992
N5 N 0.52846(18) 0.36883(19) 0.3304(2)
N6 N 0.58336(17) 0.34665(18) 0.29810(19)
N7 N 0.3444(2) 0.4919(2) 0.4256(2)
N8 N 0.32352(18) 0.56604(18) 0.5331(2)
C9 C 0.4166(2) 0.4336(2) 0.3374(2)
H6 H 0.4333 0.4223 0.3960
C10 C 0.3672(2) 0.4694(2) 0.3355(2)
C11 C 0.3465(2) 0.5627(2) 0.4453(3)
H7 H 0.3627 0.6054 0.4008
C12 C 0.3174(3) 0.4455(3) 0.5083(3)
H8 H 0.3091 0.3926 0.5172
C13 C 0.3053(3) 0.4916(3) 0.5745(3)
H9 H 0.2876 0.4758 0.6377
N9 N 0.63117(19) 0.15963(26) 0.1696(2)
N10 N 0.65335(18) 0.23671(25) 0.20190(19)
C14 C 0.6176(3) 0.1146(4) 0.2500
C15 C 0.5851(3) 0.0262(4) 0.2500
H10 H 0.5777 0.0110 0.1040
N13 N 0.63117(19) 0.15963(26) 0.3304(2)
N14 N 0.65335(18) 0.23671(25) 0.29810(19)
H15 H 0.5777 0.0110 0.3960
N17 N 0.84037(26) 0.47154(18) 0.1696(2)
N18 N 0.76329(25) 0.41664(17) 0.20190(19)
C27 C 0.8854(4) 0.5030(3) 0.2500
C28 C 0.9738(4) 0.5589(3) 0.2500
H19 H 0.9890 0.5667 0.1040
N21 N 0.84037(26) 0.47154(18) 0.3304(2)
N22 N 0.76329(25) 0.41664(17) 0.29810(19)
H24 H 0.9890 0.5667 0.3960
Ni8 Ni 0.6666 0.3333 0.38721(5)
N30 N 0.67648(18) 0.43396(18) 0.0331(2)
N31 N 0.56604(18) 0.24252(25) 0.0331(2)
N32 N 0.75748(25) 0.32352(18) 0.0331(2)
N4 N 0.32352(18) 0.56604(18) 0.9669(2)
C7 C 0.3174(3) 0.4455(3) 0.9917(3)
H4 H 0.3091 0.3926 0.9828
C8 C 0.3053(3) 0.4916(3) 0.9255(3)
H5 H 0.2876 0.4758 0.8623
N25 N 0.41664(17) 0.65335(18) 0.79810(19)
N26 N 0.34665(18) 0.76329(25) 0.79810(19)
N27 N 0.23671(25) 0.58336(17) 0.79810(19)
N28 N 0.43396(18) 0.75748(25) 0.9669(2)
N11 N 0.5081(2) 0.8525(3) 0.0744(2)
C16 C 0.5664(2) 0.9830(3) 0.1626(2)
C17 C 0.5306(2) 0.8978(3) 0.1645(2)
C18 C 0.5140(4) 0.8540(6) 0.2500
H11 H 0.4923 0.7971 0.2500
C19 C 0.4373(2) 0.7838(3) 0.0547(3)
H12 H 0.3946 0.7573 0.0992
N15 N 0.5081(2) 0.8525(3) 0.4256(2)
N16 N 0.43396(18) 0.75748(25) 0.5331(2)
C22 C 0.5664(2) 0.9830(3) 0.3374(2)
C23 C 0.5306(2) 0.8978(3) 0.3355(2)
C24 C 0.4373(2) 0.7838(3) 0.4453(3)
H16 H 0.3946 0.7573 0.4008
C25 C 0.5545(3) 0.8719(4) 0.5083(3)
H17 H 0.6074 0.9165 0.5172
C26 C 0.5084(3) 0.8137(4) 0.5745(3)
H18 H 0.5242 0.8118 0.6377
C20 C 0.5545(3) 0.8719(4) 0.9917(3)
H13 H 0.6074 0.9165 0.9828
C21 C 0.5084(3) 0.8137(4) 0.9255(3)
H14 H 0.5242 0.8118 0.8623
C38_2 C 0.4455(5) 0.1281(4) 0.0083(3)
H26_2 H 0.3926 0.0835 0.0172
C39_2 C 0.4916(5) 0.1863(4) 0.0745(3)
H27_2 H 0.4758 0.1882 0.1377
N19_2 N 0.4919(4) 0.1475(3) 0.5744(2)
N20_2 N 0.56604(31) 0.24252(25) 0.4669(2)
C29_2 C 0.4336(4) 0.0170(3) 0.6626(2)
C30_2 C 0.4694(4) 0.1022(3) 0.6645(2)
C31_2 C 0.4860(7) 0.1460(6) 0.7500
H20_2 H 0.5077 0.2029 0.7500
C32_2 C 0.5627(4) 0.2162(3) 0.5547(3)
H21_2 H 0.6054 0.2427 0.5992
C33_2 C 0.4455(5) 0.1281(4) 0.4917(3)
H22_2 H 0.3926 0.0835 0.4828
C34_2 C 0.4916(5) 0.1863(4) 0.4255(3)
H23_2 H 0.4758 0.1882 0.3623
N23_2 N 0.4919(4) 0.1475(3) 0.9256(2)
C35_2 C 0.4336(4) 0.0170(3) 0.8374(2)
C36_2 C 0.4694(4) 0.1022(3) 0.8355(2)
C37_2 C 0.5627(4) 0.2162(3) 0.9453(3)
H25_2 H 0.6054 0.2427 0.9008
C25_2 C 0.6826(5) 0.5545(3) 0.0083(3)
H17_2 H 0.6909 0.6074 0.0172
C26_2 C 0.6947(5) 0.5084(3) 0.0745(3)
H18_2 H 0.7124 0.5242 0.1377
N1_2 N 0.15963(26) 0.52846(18) 0.6696(2)
N2_2 N 0.23671(25) 0.58336(17) 0.70190(19)
C1_2 C 0.1146(4) 0.4970(3) 0.7500
C2_2 C 0.0262(4) 0.4411(3) 0.7500
H1_2 H 0.0110 0.4333 0.6040
N5_2 N 0.15963(26) 0.52846(18) 0.8304(2)
H6_2 H 0.0110 0.4333 0.8960
N9_2 N 0.47154(32) 0.63117(19) 0.6696(2)
N10_2 N 0.41664(31) 0.65335(18) 0.70190(19)
N11_2 N 0.6556(4) 0.5081(2) 0.5744(2)
N12 N 0.67648(31) 0.43396(18) 0.4669(2)
C14_2 C 0.5030(5) 0.6176(3) 0.7500
C15_2 C 0.5589(5) 0.5851(3) 0.7500
C16_2 C 0.5834(4) 0.5664(2) 0.6626(2)
H10_2 H 0.5667 0.5777 0.6040
C17_2 C 0.6328(4) 0.5306(2) 0.6645(2)
C18_2 C 0.6600(7) 0.5140(4) 0.7500
H11_2 H 0.6952 0.4923 0.7500
C19_2 C 0.6535(4) 0.4373(2) 0.5547(3)
H12_2 H 0.6373 0.3946 0.5992
C20_2 C 0.6826(5) 0.5545(3) 0.4917(3)
H13_2 H 0.6909 0.6074 0.4828
C21_2 C 0.6947(5) 0.5084(3) 0.4255(3)
H14_2 H 0.7124 0.5242 0.3623
N13_2 N 0.47154(32) 0.63117(19) 0.8304(2)
N15_2 N 0.6556(4) 0.5081(2) 0.9256(2)
C22_2 C 0.5834(4) 0.5664(2) 0.8374(2)
H15_2 H 0.5667 0.5777 0.8960
C23_2 C 0.6328(4) 0.5306(2) 0.8355(2)
C24_2 C 0.6535(4) 0.4373(2) 0.9453(3)
H16_2 H 0.6373 0.3946 0.9008
N17_2 N 0.36883(32) 0.84037(26) 0.6696(2)
N18_2 N 0.34665(30) 0.76329(25) 0.70190(19)
C27_2 C 0.3824(5) 0.8854(4) 0.7500
C28_2 C 0.4149(5) 0.9738(4) 0.7500
H19_2 H 0.4223 0.9890 0.6040
N21_2 N 0.36883(32) 0.84037(26) 0.8304(2)
H24_2 H 0.4223 0.9890 0.8960
C12_2 C 0.8719(4) 0.3174(3) 0.0083(3)
H8_2 H 0.9165 0.3091 0.0172
C13_2 C 0.8137(4) 0.3053(3) 0.0745(3)
H9_2 H 0.8118 0.2876 0.1377
N3_2 N 0.8525(3) 0.3444(2) 0.5744(2)
N4_2 N 0.75748(25) 0.32352(18) 0.4669(2)
C3_2 C 0.9830(3) 0.4166(2) 0.6626(2)
C4_2 C 0.8978(3) 0.3672(2) 0.6645(2)
C5_2 C 0.8540(6) 0.3400(4) 0.7500
H2_2 H 0.7971 0.3048 0.7500
C6_2 C 0.7838(3) 0.3465(2) 0.5547(3)
H3_2 H 0.7573 0.3627 0.5992
C7_2 C 0.8719(4) 0.3174(3) 0.4917(3)
H4_2 H 0.9165 0.3091 0.4828
C8_2 C 0.8137(4) 0.3053(3) 0.4255(3)
H5_2 H 0.8118 0.2876 0.3623
N7_2 N 0.8525(3) 0.3444(2) 0.9256(2)
C9_2 C 0.9830(3) 0.4166(2) 0.8374(2)
C10_2 C 0.8978(3) 0.3672(2) 0.8355(2)
C11_2 C 0.7838(3) 0.3465(2) 0.9453(3)
H7_2 H 0.7573 0.3627 0.9008
Cl1 Cl 0.3333 0.6667 0.2500
Cl1_2 Cl 0.6666 0.3333 0.7500
loop_
_geom_bond_atom_site_label_1
_geom_bond_atom_site_label_2
_geom_bond_site_symmetry_1
_geom_bond_site_symmetry_2
N19 C30 1_555 1_555
C30 C29 1_555 1_555
C31 C30 1_555 1_555
H20 C31 1_555 1_555
C32 N19 1_555 1_555
H21 C32 1_555 1_555
N23 C36 1_555 1_555
N24 C37 1_555 1_555
C36 C31 1_555 1_555
C37 N23 1_555 1_555
H25 C37 1_555 1_555
C38 N23 1_555 1_555
H26 C38 1_555 1_555
C39 N24 1_555 1_555
H27 C39 1_555 1_555
Ni5 N24 1_555 1_555
C35 C36 1_555 1_555
C38 C39 1_555 1_555
H22 C33 1_555 1_555
C34 N20 1_555 1_555
H23 C34 1_555 1_555
Ni7 N20 1_555 1_555
C33 C34 1_555 1_555
Ni1 N2 1_555 1_555
N1 N2 1_555 1_555
N2 N6 1_555 1_555
N3 C4 1_555 1_555
C1 N1 1_555 1_555
C2 C1 1_555 1_555
C3 C2 1_555 1_555
H1 C3 1_555 1_555
C4 C3 1_555 1_555
C5 C4 1_555 1_555
H2 C5 1_555 1_555
C6 N3 1_555 1_555
H3 C6 1_555 1_555
N5 C1 1_555 1_555
N6 N5 1_555 1_555
N7 C10 1_555 1_555
N8 C11 1_555 1_555
C9 C2 1_555 1_555
H6 C9 1_555 1_555
C10 C5 1_555 1_555
C11 N7 1_555 1_555
H7 C11 1_555 1_555
C12 N7 1_555 1_555
H8 C12 1_555 1_555
C13 N8 1_555 1_555
H9 C13 1_555 1_555
N9 N10 1_555 1_555
N10 Ni1 1_555 1_555
C14 N9 1_555 1_555
C15 C14 1_555 1_555
N13 C14 1_555 1_555
N14 N10 1_555 1_555
N17 N18 1_555 1_555
N18 Ni1 1_555 1_555
C27 N17 1_555 1_555
C28 C27 1_555 1_555
N21 C27 1_555 1_555
N22 N18 1_555 1_555
Ni5 N8 1_555 1_555
Ni8 N6 1_555 1_555
N30 Ni1 1_555 1_555
N31 Ni1 1_555 1_555
N32 Ni1 1_555 1_555
C9 C10 1_555 1_555
C12 C13 1_555 1_555
N13 N14 1_555 1_555
N14 Ni8 1_555 1_555
N21 N22 1_555 1_555
N22 Ni8 1_555 1_555
H4 C7 1_555 1_555
C8 N4 1_555 1_555
H5 C8 1_555 1_555
Ni7 N4 1_555 1_555
N25 Ni7 1_555 1_555
N26 Ni7 1_555 1_555
N27 Ni7 1_555 1_555
N28 Ni7 1_555 1_555
C7 C8 1_555 1_555
N11 C17 1_555 1_555
C17 C16 1_555 1_555
C18 C17 1_555 1_555
H11 C18 1_555 1_555
C19 N11 1_555 1_555
H12 C19 1_555 1_555
N15 C23 1_555 1_555
N16 C24 1_555 1_555
C23 C18 1_555 1_555
C24 N15 1_555 1_555
H16 C24 1_555 1_555
C25 N15 1_555 1_555
H17 C25 1_555 1_555
C26 N16 1_555 1_555
H18 C26 1_555 1_555
Ni5 N16 1_555 1_555
C22 C23 1_555 1_555
C25 C26 1_555 1_555
H13 C20 1_555 1_555
C21 N28 1_555 1_555
H14 C21 1_555 1_555
C20 C21 1_555 1_555
H26_2 C38_2 1_555 1_555
C39_2 N31 1_555 1_555
H27_2 C39_2 1_555 1_555
C38_2 C39_2 1_555 1_555
N19_2 C30_2 1_555 1_555
N20_2 C32_2 1_555 1_555
C30_2 C29_2 1_555 1_555
C31_2 C30_2 1_555 1_555
H20_2 C31_2 1_555 1_555
C32_2 N19_2 1_555 1_555
H21_2 C32_2 1_555 1_555
C33_2 N19_2 1_555 1_555
H22_2 C33_2 1_555 1_555
C34_2 N20_2 1_555 1_555
H23_2 C34_2 1_555 1_555
N23_2 C36_2 1_555 1_555
C36_2 C31_2 1_555 1_555
C37_2 N23_2 1_555 1_555
H25_2 C37_2 1_555 1_555
Ni8 N20_2 1_555 1_555
C33_2 C34_2 1_555 1_555
C35_2 C36_2 1_555 1_555
H17_2 C25_2 1_555 1_555
C26_2 N30 1_555 1_555
H18_2 C26_2 1_555 1_555
C25_2 C26_2 1_555 1_555
Ni5 N2_2 1_555 1_555
N1_2 N2_2 1_555 1_555
N2_2 N27 1_555 1_555
C1_2 N1_2 1_555 1_555
C2_2 C1_2 1_555 1_555
N5_2 C1_2 1_555 1_555
N27 N5_2 1_555 1_555
N9_2 N10_2 1_555 1_555
N10_2 Ni5 1_555 1_555
N11_2 C17_2 1_555 1_555
N12 C19_2 1_555 1_555
C14_2 N9_2 1_555 1_555
C15_2 C14_2 1_555 1_555
C16_2 C15_2 1_555 1_555
H10_2 C16_2 1_555 1_555
C17_2 C16_2 1_555 1_555
C18_2 C17_2 1_555 1_555
H11_2 C18_2 1_555 1_555
C19_2 N11_2 1_555 1_555
H12_2 C19_2 1_555 1_555
C20_2 N11_2 1_555 1_555
H13_2 C20_2 1_555 1_555
C21_2 N12 1_555 1_555
H14_2 C21_2 1_555 1_555
N13_2 C14_2 1_555 1_555
N25 N10_2 1_555 1_555
N15_2 C23_2 1_555 1_555
C22_2 C15_2 1_555 1_555
H15_2 C22_2 1_555 1_555
C23_2 C18_2 1_555 1_555
C24_2 N15_2 1_555 1_555
H16_2 C24_2 1_555 1_555
N17_2 N18_2 1_555 1_555
N18_2 Ni5 1_555 1_555
C27_2 N17_2 1_555 1_555
C28_2 C27_2 1_555 1_555
N21_2 C27_2 1_555 1_555
N26 N18_2 1_555 1_555
Ni8 N12 1_555 1_555
C20_2 C21_2 1_555 1_555
N13_2 N25 1_555 1_555
C22_2 C23_2 1_555 1_555
N21_2 N26 1_555 1_555
H8_2 C12_2 1_555 1_555
C13_2 N32 1_555 1_555
H9_2 C13_2 1_555 1_555
C12_2 C13_2 1_555 1_555
N3_2 C4_2 1_555 1_555
N4_2 C6_2 1_555 1_555
C4_2 C3_2 1_555 1_555
C5_2 C4_2 1_555 1_555
H2_2 C5_2 1_555 1_555
C6_2 N3_2 1_555 1_555
H3_2 C6_2 1_555 1_555
C7_2 N3_2 1_555 1_555
H4_2 C7_2 1_555 1_555
C8_2 N4_2 1_555 1_555
H5_2 C8_2 1_555 1_555
N7_2 C10_2 1_555 1_555
C10_2 C5_2 1_555 1_555
C11_2 N7_2 1_555 1_555
H7_2 C11_2 1_555 1_555
Ni8 N4_2 1_555 1_555
C7_2 C8_2 1_555 1_555
C9_2 C10_2 1_555 1_555

#END
