
###############################################################################
#
# This file contains modified crystal structure data generated from the
# MOF subset of the Cambridge Structural Database (CSD) v543 
# hosted by the Cambridge Crystallographic Data Centre (CCDC).
#
# This work is licensed under the Creative Commons
# Attribution-NonCommercial-ShareAlike 4.0 International License.
# To view a copy of this license, visit
# http://creativecommons.org/licenses/by-nc-sa/4.0/
# or send a letter to
# Creative Commons, PO Box 1866, Mountain View, CA 94042, USA.
#
# CIF created using the CSD Python API on 29 September 2022
# The structure has been converted into the P1 space group
# The structure has a 3D framework
# The original CSD entry NIZNAN is in the monoclinic crystal system
# The framework has been calculated to contain at least 10.0% void space
# The void calculation uses a probe of radius 1.32A, grid spacing 0.4
# H atom positions have been added when not included in the experimental data
#
###############################################################################

data_NIZNAN
_chemical_formula_moiety         '(C84 H116 N24 O24 Tb4)n'
_symmetry_cell_setting           triclinic
_symmetry_space_group_name_H-M   'P 1'
_symmetry_Int_Tables_number      1
_space_group_name_Hall           'P 1'
loop_
_symmetry_equiv_pos_site_id
_symmetry_equiv_pos_as_xyz
1 x,y,z
_cell_length_a                   16.176
_cell_length_b                   7.948
_cell_length_c                   27.278
_cell_angle_alpha                90
_cell_angle_beta                 93.50
_cell_angle_gamma                90
_cell_volume                     3500.51
loop_
_atom_site_label
_atom_site_type_symbol
_atom_site_fract_x
_atom_site_fract_y
_atom_site_fract_z
Tb1 Tb 0.72311(2) 0.15649(4) 0.732799(13)
O6 O 0.5941(3) 0.1055(5) 0.78052(18)
H7 H 0.4480 0.0055 0.7975
H14 H 0.0388 0.0234 0.7719
C15 C 0.0705(4) 0.0291(10) 0.9103(3)
H17 H 0.0754 0.1504 0.9133
C17 C 0.1277(4) 0.0234(10) 0.8289(3)
H22 H 0.1351 0.1444 0.8282
O8 O 0.8508(3) 0.1239(5) 0.78765(17)
O9 O 0.6331(3) 0.3573(6) 0.68805(18)
O10 O 0.7152(3) 0.3747(5) 0.79657(16)
O12 O 0.8168(2) 0.3981(5) 0.71513(16)
O13 O 0.7892(3) 0.0850(6) 0.65204(17)
H29 H 0.60598 0.0280917 0.648719
O3 O 0.2848(3) 0.6253(5) 0.20343(16)
O5 O 0.2892(3) 0.4150(6) 0.15204(17)
N6 N 0.2930(3) 0.7839(8) 0.0154(2)
C8 C 0.3645(4) 0.6231(10) 0.0821(2)
H9 H 0.4185 0.6031 0.0986
H10 H 0.3434 0.5161 0.0697
C10 C 0.2340(5) 0.8520(10) 0.0487(3)
H11 H 0.1809 0.8694 0.0309
H12 H 0.2537 0.9601 0.0611
C14 C 0.2941(4) 0.5709(8) 0.1602(2)
C18 C 0.3071(4) 0.6910(8) 0.1186(2)
H23 H 0.331(4) 0.795(8) 0.132(3)
C19 C 0.3743(4) 0.7429(11) 0.0388(3)
H24 H 0.4018 0.8452 0.0504
H25 H 0.4084 0.6903 0.0151
C20 C 0.2232(4) 0.7319(10) 0.0918(3)
H26 H 0.1974 0.6286 0.0797
H27 H 0.1871 0.7831 0.1147
Tb5 Tb 0.27689(2) 0.84351(4) 0.267201(13)
Tb6 Tb 0.22311(2) 0.34351(4) 0.232799(13)
C1 C 0.3923(4) 0.7764(9) 0.8096(2)
H1 H 0.3378 0.8168 0.7985
H2 H 0.3983 0.6627 0.7974
N1 N 0.2646(3) 0.8580(7) 0.86892(19)
C2 C 0.5484(4) 0.8408(9) 0.8652(2)
H3 H 0.6026 0.8045 0.8783
H4 H 0.5393 0.9546 0.8765
O4 O 0.6832(2) 0.8981(5) 0.78487(16)
C3 C 0.5456(4) 0.8385(9) 0.8092(2)
H5 H 0.557(4) 0.724(8) 0.798(2)
N2 N 0.2104(3) 0.8713(8) 0.9487(2)
N3 N 0.4000(3) 0.7750(8) 0.8634(2)
C4 C 0.2851(4) 0.8142(8) 0.9661(2)
N4 N 0.1350(3) 0.9643(8) 0.8796(2)
C6 C 0.3367(4) 0.8066(8) 0.8917(2)
O7 O 0.6174(3) 0.9754(6) 0.68144(19)
C7 C 0.4584(4) 0.8894(9) 0.7888(2)
H8 H 0.4553 0.8808 0.7533
N5 N 0.3507(3) 0.7864(7) 0.9405(2)
C9 C 0.2065(4) 0.8968(9) 0.8999(2)
C11 C 0.6106(4) 0.9547(8) 0.7909(2)
C12 C 0.0437(4) 0.9787(9) 0.8050(3)
H13 H 0.0381 0.8573 0.8031
H18 H 0.0772 0.9805 0.9429
C16 C 0.4825(4) 0.7253(10) 0.8836(3)
H19 H 0.4937 0.6104 0.8740
H20 H 0.4841 0.7296 0.9192
H21 H 0.1707 0.9724 0.8106
Tb4 Tb 0.77689(2) 0.65649(4) 0.767201(13)
O11 O 0.7848(3) 0.8747(5) 0.70343(16)
H28 H 0.565148 0.967621 0.698614
C5 C 0.9743(4) 0.0516(8) 0.8349(2)
H6 H 0.980(4) 0.174(8) 0.836(2)
H16 H 0.9429 0.0293 0.9063
C21 C 0.8908(4) 0.0071(8) 0.8099(2)
O2 O 0.8669(3) 0.8573(6) 0.81195(18)
C13 C 0.9856(4) 0.9835(10) 0.8867(3)
H15 H 0.9795 0.8621 0.8860
C1_2 C 0.1077(4) 0.2764(9) 0.6904(2)
H1_2 H 0.1622 0.3168 0.7015
H2_2 H 0.1017 0.1627 0.7026
O1 O 0.6492(3) 0.6239(5) 0.71235(17)
O3_2 O 0.2152(3) 0.1253(5) 0.29657(16)
N1_2 N 0.2354(3) 0.3580(7) 0.63108(19)
N2_2 N 0.2896(3) 0.3713(8) 0.5513(2)
N3_2 N 0.1000(3) 0.2750(8) 0.6366(2)
C4_2 C 0.2149(4) 0.3142(8) 0.5339(2)
N4_2 N 0.3650(3) 0.4643(8) 0.6204(2)
C5_2 C 0.5257(4) 0.5516(8) 0.6651(2)
H6_2 H 0.520(4) 0.674(8) 0.664(2)
C6_2 C 0.1633(4) 0.3066(8) 0.6083(2)
C7_2 C 0.0416(4) 0.3894(9) 0.7112(2)
H7_2 H 0.0520 0.5055 0.7025
H8_2 H 0.0447 0.3808 0.7467
N5_2 N 0.1493(3) 0.2864(7) 0.5595(2)
N6_2 N 0.2070(3) 0.2839(8) 0.4846(2)
C8_2 C 0.1355(4) 0.1231(10) 0.4179(2)
H9_2 H 0.0815 0.1031 0.4014
H10_2 H 0.1566 0.0161 0.4303
C9_2 C 0.2935(4) 0.3968(9) 0.6001(2)
C10_2 C 0.2660(5) 0.3520(10) 0.4513(3)
H11_2 H 0.3191 0.3694 0.4691
H12_2 H 0.2463 0.4601 0.4389
C12_2 C 0.4563(4) 0.4787(9) 0.6950(3)
H13_2 H 0.4619 0.3573 0.6969
H14_2 H 0.4612 0.5234 0.7281
C13_2 C 0.5144(4) 0.4835(10) 0.6133(3)
H15_2 H 0.5205 0.3621 0.6140
H16_2 H 0.5571 0.5293 0.5937
C14_2 C 0.2059(4) 0.0709(8) 0.3398(2)
C15_2 C 0.4295(4) 0.5291(10) 0.5897(3)
H17_2 H 0.4246 0.6504 0.5867
H18_2 H 0.4228 0.4805 0.5571
C16_2 C 0.0175(4) 0.2253(10) 0.6164(3)
H19_2 H 0.0063 0.1104 0.6260
H20_2 H 0.0159 0.2296 0.5808
C17_2 C 0.3723(4) 0.5234(10) 0.6711(3)
H21_2 H 0.3293 0.4724 0.6894
H22_2 H 0.3649 0.6444 0.6718
C18_2 C 0.1929(4) 0.1910(8) 0.3814(2)
H23_2 H 0.169(4) 0.295(8) 0.368(3)
C19_2 C 0.1257(4) 0.2429(11) 0.4612(3)
H24_2 H 0.0982 0.3452 0.4496
H25_2 H 0.0916 0.1903 0.4849
C20_2 C 0.2768(4) 0.2319(10) 0.4082(3)
H26_2 H 0.3026 0.1286 0.4203
H27_2 H 0.3129 0.2831 0.3853
C21_2 C 0.6092(4) 0.5071(8) 0.6901(2)
O5_2 O 0.2108(3) 0.9150(6) 0.34796(17)
C2_2 C 0.9516(4) 0.3408(9) 0.6348(2)
H3_2 H 0.8974 0.3045 0.6217
H4_2 H 0.9607 0.4546 0.6235
C3_2 C 0.9544(4) 0.3385(9) 0.6908(2)
H5_2 H 0.943(4) 0.224(8) 0.702(2)
O6_2 O 0.9059(3) 0.6055(5) 0.71948(18)
O7_2 O 0.8826(3) 0.4754(6) 0.81856(19)
C11_2 C 0.8894(4) 0.4547(8) 0.7091(2)
O13_2 O 0.7108(3) 0.5850(6) 0.84796(17)
H28_2 H 0.934852 0.467621 0.801386
H29_2 H 0.89402 0.528092 0.851281
O2_2 O 0.1331(3) 0.1427(6) 0.18805(18)
C13_3 C 0.0144(4) 0.0165(10) 0.1133(3)
H15_3 H 0.0205 0.1379 0.1140
O1_2 O 0.1492(3) 0.8761(5) 0.21235(17)
C5_3 C 0.0257(4) 0.9484(8) 0.1651(2)
H6_3 H 0.020(4) 0.826(8) 0.164(2)
H16_3 H 0.0571 0.9707 0.0937
C21_3 C 0.1092(4) 0.9929(8) 0.1901(2)
C1_3 C 0.6077(4) 0.2236(9) 0.1904(2)
H1_3 H 0.6622 0.1832 0.2015
H2_3 H 0.6017 0.3373 0.2026
N1_3 N 0.7354(3) 0.1420(7) 0.13108(19)
C2_3 C 0.4516(4) 0.1592(9) 0.1348(2)
H3_3 H 0.3974 0.1955 0.1217
H4_3 H 0.4607 0.0454 0.1235
O4_2 O 0.3168(2) 0.1019(5) 0.21513(16)
C3_3 C 0.4544(4) 0.1615(9) 0.1908(2)
H5_3 H 0.443(4) 0.276(8) 0.202(2)
N2_3 N 0.7896(3) 0.1287(8) 0.0513(2)
N3_3 N 0.6000(3) 0.2250(8) 0.1366(2)
C4_3 C 0.7149(4) 0.1858(8) 0.0339(2)
N4_3 N 0.8650(3) 0.0357(8) 0.1204(2)
C6_3 C 0.6633(4) 0.1934(8) 0.1083(2)
O7_3 O 0.3826(3) 0.0246(6) 0.31856(19)
C7_3 C 0.5416(4) 0.1106(9) 0.2112(2)
H8_3 H 0.5447 0.1192 0.2467
N5_3 N 0.6493(3) 0.2136(7) 0.0595(2)
C9_3 C 0.7935(4) 0.1032(9) 0.1001(2)
C11_3 C 0.3894(4) 0.0453(8) 0.2091(2)
C12_3 C 0.9563(4) 0.0213(9) 0.1950(3)
H13_3 H 0.9619 0.1427 0.1969
H18_3 H 0.9228 0.0195 0.0571
C16_3 C 0.5175(4) 0.2747(10) 0.1164(3)
H19_3 H 0.5063 0.3896 0.1260
H20_3 H 0.5159 0.2704 0.0808
H21_3 H 0.8293 0.0276 0.1894
H28_3 H 0.434852 0.0323794 0.301386
N6_3 N 0.7070(3) 0.2161(8) 0.9846(2)
C8_3 C 0.6355(4) 0.3769(10) 0.9179(2)
H9_3 H 0.5815 0.3969 0.9014
H10_3 H 0.6566 0.4839 0.9303
C10_3 C 0.7660(5) 0.1480(10) 0.9513(3)
H11_3 H 0.8191 0.1306 0.9691
H12_3 H 0.7463 0.0399 0.9389
C14_3 C 0.7059(4) 0.4291(8) 0.8398(2)
C18_3 C 0.6929(4) 0.3090(8) 0.8814(2)
H23_3 H 0.669(4) 0.205(8) 0.868(3)
C19_3 C 0.6257(4) 0.2571(11) 0.9612(3)
H24_3 H 0.5982 0.1548 0.9496
H25_3 H 0.5916 0.3097 0.9849
C20_3 C 0.7768(4) 0.2681(10) 0.9082(3)
H26_3 H 0.8026 0.3714 0.9203
H27_3 H 0.8129 0.2169 0.8853
O6_3 O 0.4059(3) 0.8945(5) 0.21948(18)
H7_3 H 0.5520 0.9945 0.2025
H14_3 H 0.9612 0.9766 0.2281
C15_3 C 0.9295(4) 0.9709(10) 0.0897(3)
H17_3 H 0.9246 0.8496 0.0867
C17_3 C 0.8723(4) 0.9766(10) 0.1711(3)
H22_3 H 0.8649 0.8556 0.1718
O9_2 O 0.3669(3) 0.6427(6) 0.31195(18)
O12_2 O 0.1832(2) 0.6019(5) 0.28487(16)
H29_3 H 0.39402 0.971908 0.351281
C2_4 C 0.0484(4) 0.6592(9) 0.3652(2)
H3_4 H 0.1026 0.6955 0.3783
H4_4 H 0.0393 0.5454 0.3765
C3_4 C 0.0456(4) 0.6615(9) 0.3092(2)
H5_4 H 0.057(4) 0.776(8) 0.298(2)
O6_4 O 0.0941(3) 0.3945(5) 0.28052(18)
O7_4 O 0.1174(3) 0.5246(6) 0.18144(19)
C11_4 C 0.1106(4) 0.5453(8) 0.2909(2)
O8_2 O 0.3508(3) 0.3761(5) 0.28765(17)
H28_4 H 0.0651483 0.532379 0.198614
H29_4 H 0.10598 0.471908 0.148719
C1_4 C 0.8923(4) 0.7236(9) 0.3096(2)
H1_4 H 0.8378 0.6832 0.2985
H2_4 H 0.8983 0.8373 0.2974
N1_4 N 0.7646(3) 0.6420(7) 0.36892(19)
N2_4 N 0.7104(3) 0.6287(8) 0.4487(2)
N3_4 N 0.9000(3) 0.7250(8) 0.3634(2)
C4_4 C 0.7851(4) 0.6858(8) 0.4661(2)
N4_4 N 0.6350(3) 0.5357(8) 0.3796(2)
C5_4 C 0.4743(4) 0.4484(8) 0.3349(2)
H6_4 H 0.480(4) 0.326(8) 0.336(2)
C6_4 C 0.8367(4) 0.6934(8) 0.3917(2)
C7_4 C 0.9584(4) 0.6106(9) 0.2888(2)
H7_4 H 0.9480 0.4945 0.2975
H8_4 H 0.9553 0.6192 0.2533
N5_4 N 0.8507(3) 0.7136(7) 0.4405(2)
N6_4 N 0.7930(3) 0.7161(8) 0.5154(2)
C8_4 C 0.8645(4) 0.8769(10) 0.5821(2)
H9_4 H 0.9185 0.8969 0.5986
H10_4 H 0.8434 0.9839 0.5697
C9_4 C 0.7065(4) 0.6032(9) 0.3999(2)
C10_4 C 0.7340(5) 0.6480(10) 0.5487(3)
H11_4 H 0.6809 0.6306 0.5309
H12_4 H 0.7537 0.5399 0.5611
C12_4 C 0.5437(4) 0.5213(9) 0.3050(3)
H13_4 H 0.5381 0.6427 0.3031
H14_4 H 0.5388 0.4766 0.2719
C13_4 C 0.4856(4) 0.5165(10) 0.3867(3)
H15_4 H 0.4795 0.6379 0.3860
H16_4 H 0.4429 0.4707 0.4063
C14_4 C 0.7941(4) 0.9291(8) 0.6602(2)
C15_4 C 0.5705(4) 0.4709(10) 0.4103(3)
H17_4 H 0.5754 0.3496 0.4133
H18_4 H 0.5772 0.5195 0.4429
C16_4 C 0.9825(4) 0.7747(10) 0.3836(3)
H19_4 H 0.9937 0.8896 0.3740
H20_4 H 0.9841 0.7704 0.4192
C17_4 C 0.6277(4) 0.4766(10) 0.3289(3)
H21_4 H 0.6707 0.5276 0.3106
H22_4 H 0.6351 0.3556 0.3282
C18_4 C 0.8071(4) 0.8090(8) 0.6186(2)
H23_4 H 0.831(4) 0.705(8) 0.632(3)
C19_4 C 0.8743(4) 0.7571(11) 0.5388(3)
H24_4 H 0.9018 0.6548 0.5504
H25_4 H 0.9084 0.8097 0.5151
C20_4 C 0.7232(4) 0.7681(10) 0.5918(3)
H26_4 H 0.6974 0.8714 0.5797
H27_4 H 0.6871 0.7169 0.6147
C21_4 C 0.3908(4) 0.4929(8) 0.3099(2)
loop_
_geom_bond_atom_site_label_1
_geom_bond_atom_site_label_2
_geom_bond_site_symmetry_1
_geom_bond_site_symmetry_2
O6 Tb1 1_555 1_555
H17 C15 1_555 1_555
H22 C17 1_555 1_555
O8 Tb1 1_555 1_555
O9 Tb1 1_555 1_555
O10 Tb1 1_555 1_555
O12 Tb1 1_555 1_555
O13 Tb1 1_555 1_555
O3 C14 1_555 1_555
O5 C14 1_555 1_555
C8 H9 1_555 1_555
H10 C8 1_555 1_555
C10 N6 1_555 1_555
H11 C10 1_555 1_555
H12 C10 1_555 1_555
C14 C18 1_555 1_555
C18 C8 1_555 1_555
H23 C18 1_555 1_555
C19 N6 1_555 1_555
H24 C19 1_555 1_555
H25 C19 1_555 1_555
C20 C10 1_555 1_555
H26 C20 1_555 1_555
H27 C20 1_555 1_555
Tb5 O3 1_555 1_555
Tb6 O3 1_555 1_555
O5 Tb6 1_555 1_555
C8 C19 1_555 1_555
C18 C20 1_555 1_555
C1 H1 1_555 1_555
H2 C1 1_555 1_555
N1 C6 1_555 1_555
C2 H3 1_555 1_555
H4 C2 1_555 1_555
O4 C11 1_555 1_555
C3 C2 1_555 1_555
H5 C3 1_555 1_555
N2 C4 1_555 1_555
N3 C1 1_555 1_555
C4 N5 1_555 1_555
N4 C9 1_555 1_555
C6 N3 1_555 1_555
C7 C1 1_555 1_555
H8 C7 1_555 1_555
N5 C6 1_555 1_555
C9 N1 1_555 1_555
C11 C3 1_555 1_555
H13 C12 1_555 1_555
C16 C2 1_555 1_555
H19 C16 1_555 1_555
H20 C16 1_555 1_555
Tb4 O4 1_555 1_555
C3 C7 1_555 1_555
N2 C9 1_555 1_555
N3 C16 1_555 1_555
Tb4 O11 1_555 1_555
O7 H28 1_555 1_555
O8 C21 1_555 1_555
C5 H6 1_555 1_555
C21 C5 1_555 1_555
H15 C13 1_555 1_555
Tb4 O2 1_555 1_555
C1_2 H1_2 1_555 1_555
H2_2 C1_2 1_555 1_555
O1 C21_2 1_555 1_555
O9 C21_2 1_555 1_555
O3_2 C14_2 1_555 1_555
N1_2 C6_2 1_555 1_555
N2_2 C4_2 1_555 1_555
N3_2 C1_2 1_555 1_555
C4_2 N5_2 1_555 1_555
N4_2 C9_2 1_555 1_555
C5_2 H6_2 1_555 1_555
C6_2 N3_2 1_555 1_555
C7_2 C1_2 1_555 1_555
H7_2 C7_2 1_555 1_555
H8_2 C7_2 1_555 1_555
N5_2 C6_2 1_555 1_555
N6_2 C4_2 1_555 1_555
C8_2 H9_2 1_555 1_555
H10_2 C8_2 1_555 1_555
C9_2 N1_2 1_555 1_555
C10_2 N6_2 1_555 1_555
H11_2 C10_2 1_555 1_555
H12_2 C10_2 1_555 1_555
C12_2 C5_2 1_555 1_555
H13_2 C12_2 1_555 1_555
H14_2 C12_2 1_555 1_555
C13_2 C5_2 1_555 1_555
H15_2 C13_2 1_555 1_555
H16_2 C13_2 1_555 1_555
C14_2 C18_2 1_555 1_555
C15_2 N4_2 1_555 1_555
H17_2 C15_2 1_555 1_555
H18_2 C15_2 1_555 1_555
H19_2 C16_2 1_555 1_555
H20_2 C16_2 1_555 1_555
C17_2 N4_2 1_555 1_555
H21_2 C17_2 1_555 1_555
H22_2 C17_2 1_555 1_555
C18_2 C8_2 1_555 1_555
H23_2 C18_2 1_555 1_555
C19_2 N6_2 1_555 1_555
H24_2 C19_2 1_555 1_555
H25_2 C19_2 1_555 1_555
C20_2 C10_2 1_555 1_555
H26_2 C20_2 1_555 1_555
H27_2 C20_2 1_555 1_555
C21_2 C5_2 1_555 1_555
Tb4 O1 1_555 1_555
Tb6 O3_2 1_555 1_555
N2_2 C9_2 1_555 1_555
N3_2 C16_2 1_555 1_555
C8_2 C19_2 1_555 1_555
C12_2 C17_2 1_555 1_555
C13_2 C15_2 1_555 1_555
C18_2 C20_2 1_555 1_555
O5_2 Tb5 1_555 1_555
Tb4 O12 1_555 1_555
C2_2 H3_2 1_555 1_555
H4_2 C2_2 1_555 1_555
O12 C11_2 1_555 1_555
C3_2 C2_2 1_555 1_555
H5_2 C3_2 1_555 1_555
O6_2 Tb4 1_555 1_555
O7_2 Tb4 1_555 1_555
C11_2 C3_2 1_555 1_555
O10 Tb4 1_555 1_555
O13_2 Tb4 1_555 1_555
O6_2 C11_2 1_555 1_555
O7_2 H28_2 1_555 1_555
O7_2 H29_2 1_555 1_555
H15_3 C13_3 1_555 1_555
Tb6 O2_2 1_555 1_555
O1_2 C21_3 1_555 1_555
C5_3 H6_3 1_555 1_555
C21_3 C5_3 1_555 1_555
Tb5 O1_2 1_555 1_555
C1_3 H1_3 1_555 1_555
H2_3 C1_3 1_555 1_555
N1_3 C6_3 1_555 1_555
C2_3 H3_3 1_555 1_555
H4_3 C2_3 1_555 1_555
O4_2 C11_3 1_555 1_555
C3_3 C2_3 1_555 1_555
H5_3 C3_3 1_555 1_555
N2_3 C4_3 1_555 1_555
N3_3 C1_3 1_555 1_555
C4_3 N5_3 1_555 1_555
N4_3 C9_3 1_555 1_555
C6_3 N3_3 1_555 1_555
C7_3 C1_3 1_555 1_555
H8_3 C7_3 1_555 1_555
N5_3 C6_3 1_555 1_555
C9_3 N1_3 1_555 1_555
C11_3 C3_3 1_555 1_555
H13_3 C12_3 1_555 1_555
C16_3 C2_3 1_555 1_555
H19_3 C16_3 1_555 1_555
H20_3 C16_3 1_555 1_555
Tb6 O4_2 1_555 1_555
C3_3 C7_3 1_555 1_555
N2_3 C9_3 1_555 1_555
N3_3 C16_3 1_555 1_555
O7_3 H28_3 1_555 1_555
O10 C14_3 1_555 1_555
O13_2 C14_3 1_555 1_555
C8_3 H9_3 1_555 1_555
H10_3 C8_3 1_555 1_555
C10_3 N6_3 1_555 1_555
H11_3 C10_3 1_555 1_555
H12_3 C10_3 1_555 1_555
C14_3 C18_3 1_555 1_555
C18_3 C8_3 1_555 1_555
H23_3 C18_3 1_555 1_555
C19_3 N6_3 1_555 1_555
H24_3 C19_3 1_555 1_555
H25_3 C19_3 1_555 1_555
C20_3 C10_3 1_555 1_555
H26_3 C20_3 1_555 1_555
H27_3 C20_3 1_555 1_555
C8_3 C19_3 1_555 1_555
C18_3 C20_3 1_555 1_555
O6_3 Tb5 1_555 1_555
H17_3 C15_3 1_555 1_555
H22_3 C17_3 1_555 1_555
O9_2 Tb5 1_555 1_555
O12_2 Tb5 1_555 1_555
Tb6 O12_2 1_555 1_555
C2_4 H3_4 1_555 1_555
H4_4 C2_4 1_555 1_555
O12_2 C11_4 1_555 1_555
C3_4 C2_4 1_555 1_555
H5_4 C3_4 1_555 1_555
O6_4 Tb6 1_555 1_555
O7_4 Tb6 1_555 1_555
C11_4 C3_4 1_555 1_555
O8_2 Tb6 1_555 1_555
O6_4 C11_4 1_555 1_555
O7_4 H28_4 1_555 1_555
O7_4 H29_4 1_555 1_555
C1_4 H1_4 1_555 1_555
H2_4 C1_4 1_555 1_555
O8_2 C21_4 1_555 1_555
O9_2 C21_4 1_555 1_555
O11 C14_4 1_555 1_555
N1_4 C6_4 1_555 1_555
N2_4 C4_4 1_555 1_555
N3_4 C1_4 1_555 1_555
C4_4 N5_4 1_555 1_555
N4_4 C9_4 1_555 1_555
C5_4 H6_4 1_555 1_555
C6_4 N3_4 1_555 1_555
C7_4 C1_4 1_555 1_555
H7_4 C7_4 1_555 1_555
H8_4 C7_4 1_555 1_555
N5_4 C6_4 1_555 1_555
N6_4 C4_4 1_555 1_555
C8_4 H9_4 1_555 1_555
H10_4 C8_4 1_555 1_555
C9_4 N1_4 1_555 1_555
C10_4 N6_4 1_555 1_555
H11_4 C10_4 1_555 1_555
H12_4 C10_4 1_555 1_555
C12_4 C5_4 1_555 1_555
H13_4 C12_4 1_555 1_555
H14_4 C12_4 1_555 1_555
C13_4 C5_4 1_555 1_555
H15_4 C13_4 1_555 1_555
H16_4 C13_4 1_555 1_555
C14_4 C18_4 1_555 1_555
C15_4 N4_4 1_555 1_555
H17_4 C15_4 1_555 1_555
H18_4 C15_4 1_555 1_555
H19_4 C16_4 1_555 1_555
H20_4 C16_4 1_555 1_555
C17_4 N4_4 1_555 1_555
H21_4 C17_4 1_555 1_555
H22_4 C17_4 1_555 1_555
C18_4 C8_4 1_555 1_555
H23_4 C18_4 1_555 1_555
C19_4 N6_4 1_555 1_555
H24_4 C19_4 1_555 1_555
H25_4 C19_4 1_555 1_555
C20_4 C10_4 1_555 1_555
H26_4 C20_4 1_555 1_555
H27_4 C20_4 1_555 1_555
C21_4 C5_4 1_555 1_555
N2_4 C9_4 1_555 1_555
N3_4 C16_4 1_555 1_555
C8_4 C19_4 1_555 1_555
C12_4 C17_4 1_555 1_555
C13_4 C15_4 1_555 1_555
C18_4 C20_4 1_555 1_555

#END
