
###############################################################################
#
# This file contains modified crystal structure data generated from the
# MOF subset of the Cambridge Structural Database (CSD) v543 
# hosted by the Cambridge Crystallographic Data Centre (CCDC).
#
# This work is licensed under the Creative Commons
# Attribution-NonCommercial-ShareAlike 4.0 International License.
# To view a copy of this license, visit
# http://creativecommons.org/licenses/by-nc-sa/4.0/
# or send a letter to
# Creative Commons, PO Box 1866, Mountain View, CA 94042, USA.
#
# CIF created using the CSD Python API on 29 September 2022
# The structure has been converted into the P1 space group
# The structure has a 3D framework
# The original CSD entry NOCZIQ01 is in the triclinic crystal system
# The framework has been calculated to contain at least 10.0% void space
# The void calculation uses a probe of radius 1.32A, grid spacing 0.4
#
###############################################################################

data_NOCZIQ01
_chemical_formula_moiety         '(C28 H24 Cu4 N4 O22 Sr2)n'
_symmetry_cell_setting           triclinic
_symmetry_space_group_name_H-M   'P 1'
_symmetry_Int_Tables_number      1
_space_group_name_Hall           'P 1'
loop_
_symmetry_equiv_pos_site_id
_symmetry_equiv_pos_as_xyz
1 x,y,z
_cell_length_a                   6.5997(13)
_cell_length_b                   10.739(2)
_cell_length_c                   14.062(3)
_cell_angle_alpha                94.34(3)
_cell_angle_beta                 102.00(3)
_cell_angle_gamma                92.38(3)
_cell_volume                     970.382
loop_
_atom_site_label
_atom_site_type_symbol
_atom_site_fract_x
_atom_site_fract_y
_atom_site_fract_z
Cu2 Cu 0.5000 0.0000 0.5000
O3 O 0.318(2) 0.1136(12) 0.4246(9)
O5 O 0.016(2) 0.1169(12) 0.3233(9)
C4 C 0.141(3) 0.0649(17) 0.3809(12)
O10 O 0.282(2) 0.0019(18) 0.1830(11)
Cu4 Cu 0.5000 0.5000 0.0000
O29 O 0.439(2) 0.0667(17) 0.6676(10)
N5 N 0.748(2) 0.1144(14) 0.5323(10)
O2 O 0.1074(19) 0.1245(10) 0.9883(8)
O7 O 0.3272(19) 0.2874(12) 0.9951(10)
C3 C 0.154(3) 0.2347(16) 0.9757(13)
H3 H 0.0553 0.2834 0.7916
Cu4_2 Cu 0.5000 0.5000 1.0000
Cu2_2 Cu 0.5000 1.0000 0.5000
N2 N 0.252(2) 0.8856(14) 0.4677(10)
C5 C 0.092(3) 0.9319(16) 0.4047(12)
C9 C 0.225(3) 0.7680(19) 0.4935(15)
H2 H 0.3369 0.7316 0.5304
C12 C 0.041(3) 0.7024(19) 0.4675(15)
H4 H 0.0231 0.6251 0.4912
H10 H 0.3866 0.9720 0.1652
H12 H 0.3553 0.9830 0.2379
O25 O 0.682(2) 0.8864(12) 0.5754(9)
O28 O 0.561(2) 0.9333(17) 0.3324(10)
Sr4 Sr 0.0840(2) 0.92493(14) 0.86609(11)
O15 O 0.2663(19) 0.0888(11) 0.7865(9)
C15 C 0.277(3) 0.0889(16) 0.7010(12)
C22 C 0.095(3) 0.1331(16) 0.6274(12)
C28 C 0.115(3) 0.2499(19) 0.5932(14)
H18 H 0.2413 0.2964 0.6129
Sr1 Sr 0.9160(2) 0.07507(14) 0.13391(11)
O1 O 0.706(2) 0.4387(12) 0.1047(9)
O6 O 0.9725(19) 0.3151(12) 0.1291(9)
C2 C 0.842(3) 0.3739(15) 0.0744(12)
O11 O 0.602(3) 0.1980(18) 0.1949(15)
H7 H 0.5821 0.1104 0.0429
H8 H 0.5611 0.2627 0.1670
H9 H 0.5018 0.1438 0.1877
O20 O 0.383(2) 0.8935(13) 0.0123(10)
N3 N 0.323(2) 0.5735(13) 0.0830(10)
C20 C 0.347(3) 0.5739(18) 0.1797(13)
H13 H 0.4601 0.5364 0.2148
C21 C 0.163(3) 0.6320(15) 0.0321(13)
C24 C 0.023(3) 0.6922(16) 0.0770(13)
C25 C 0.043(3) 0.6840(19) 0.1764(14)
C27 C 0.211(4) 0.627(2) 0.2278(14)
H17 H 0.2304 0.6260 0.2951
H23 H 0.4345 0.8230 0.0226
O27 O 0.6728(19) 0.7126(12) 0.0049(10)
O9 O 0.617(2) 0.1065(13) 0.9877(10)
N1 N 0.677(2) 0.4265(13) 0.9170(10)
C6 C 0.653(3) 0.4261(18) 0.8203(13)
H1 H 0.5399 0.4636 0.7852
C7 C 0.837(3) 0.3680(15) 0.9679(13)
C10 C 0.977(3) 0.3078(16) 0.9230(13)
C11 C 0.957(3) 0.3160(19) 0.8236(14)
C13 C 0.789(4) 0.373(2) 0.7722(14)
H5 H 0.7696 0.3740 0.7049
H11 H 0.5655 0.1770 0.9774
O12 O 0.294(2) 0.5613(12) 0.8953(9)
O17 O 0.0275(19) 0.6849(12) 0.8709(9)
C16 C 0.158(3) 0.6261(15) 0.9256(12)
O22 O 0.398(3) 0.8020(18) 0.8051(15)
H19 H 0.4179 0.8896 0.9571
H20 H 0.4389 0.7373 0.8330
H21 H 0.4982 0.8562 0.8123
O4 O 0.7337(19) 0.9112(11) 0.2135(9)
C1 C 0.723(3) 0.9111(16) 0.2990(12)
C8 C 0.905(3) 0.8669(16) 0.3726(12)
C14 C 0.885(3) 0.7501(19) 0.4068(14)
H6 H 0.7587 0.7036 0.3871
O24 O 0.8926(19) 0.8755(10) 0.0117(8)
C19 C 0.908(3) 0.0681(16) 0.5953(12)
C23 C 0.775(3) 0.2320(19) 0.5065(15)
H14 H 0.6631 0.2684 0.4696
C26 C 0.959(3) 0.2976(19) 0.5325(15)
H16 H 0.9769 0.3749 0.5088
H22 H 0.6134 0.0280 0.8348
H24 H 0.6447 0.0170 0.7621
C17 C 0.846(3) 0.7653(16) 0.0243(13)
H15 H 0.9447 0.7166 0.2084
O16 O 0.984(2) 0.8831(12) 0.6767(9)
C18 C 0.859(3) 0.9351(17) 0.6191(12)
O21 O 0.718(2) 0.9981(18) 0.8170(11)
loop_
_geom_bond_atom_site_label_1
_geom_bond_atom_site_label_2
_geom_bond_site_symmetry_1
_geom_bond_site_symmetry_2
Cu2 O3 1_555 1_555
O3 C4 1_555 1_555
C4 O5 1_555 1_555
O29 Cu2 1_555 1_555
N5 Cu2 1_555 1_555
O2 C3 1_555 1_555
O7 C3 1_555 1_555
Cu4_2 O7 1_555 1_555
N2 Cu2_2 1_555 1_555
C5 N2 1_555 1_555
C9 N2 1_555 1_555
H2 C9 1_555 1_555
C12 C9 1_555 1_555
H4 C12 1_555 1_555
O25 Cu2_2 1_555 1_555
O28 Cu2_2 1_555 1_555
C15 O15 1_555 1_555
O29 C15 1_555 1_555
C22 C15 1_555 1_555
C28 C22 1_555 1_555
H18 C28 1_555 1_555
Cu4 O1 1_555 1_555
O1 C2 1_555 1_555
O6 Sr1 1_555 1_555
C2 O6 1_555 1_555
O11 Sr1 1_555 1_555
H8 O11 1_555 1_555
H9 O11 1_555 1_555
N3 Cu4 1_555 1_555
C20 N3 1_555 1_555
H13 C20 1_555 1_555
C21 N3 1_555 1_555
C24 C21 1_555 1_555
C25 C24 1_555 1_555
C27 C20 1_555 1_555
H17 C27 1_555 1_555
H23 O20 1_555 1_555
O27 Cu4 1_555 1_555
C25 C27 1_555 1_555
N1 Cu4_2 1_555 1_555
C6 N1 1_555 1_555
H1 C6 1_555 1_555
C7 N1 1_555 1_555
C10 C7 1_555 1_555
C11 C10 1_555 1_555
C13 C6 1_555 1_555
H5 C13 1_555 1_555
H11 O9 1_555 1_555
O12 Cu4_2 1_555 1_555
O17 Sr4 1_555 1_555
C16 O12 1_555 1_555
O22 Sr4 1_555 1_555
H20 O22 1_555 1_555
H21 O22 1_555 1_555
C11 C13 1_555 1_555
O17 C16 1_555 1_555
C1 O4 1_555 1_555
O28 C1 1_555 1_555
C8 C1 1_555 1_555
C14 C8 1_555 1_555
H6 C14 1_555 1_555
N5 C19 1_555 1_555
C23 N5 1_555 1_555
H14 C23 1_555 1_555
C26 C23 1_555 1_555
H16 C26 1_555 1_555
O24 C17 1_555 1_555
O27 C17 1_555 1_555
O25 C18 1_555 1_555
C18 O16 1_555 1_555

#END
