
###############################################################################
#
# This file contains modified crystal structure data generated from the
# MOF subset of the Cambridge Structural Database (CSD) v543 
# hosted by the Cambridge Crystallographic Data Centre (CCDC).
#
# This work is licensed under the Creative Commons
# Attribution-NonCommercial-ShareAlike 4.0 International License.
# To view a copy of this license, visit
# http://creativecommons.org/licenses/by-nc-sa/4.0/
# or send a letter to
# Creative Commons, PO Box 1866, Mountain View, CA 94042, USA.
#
# CIF created using the CSD Python API on 29 September 2022
# The structure has been converted into the P1 space group
# The structure has a 3D framework
# The original CSD entry NOCZIQ is in the triclinic crystal system
# The framework has been calculated to contain at least 10.0% void space
# The void calculation uses a probe of radius 1.32A, grid spacing 0.4
#
###############################################################################

data_NOCZIQ
_chemical_formula_moiety         '(C28 H24 Cu6 N4 O22 Sr2)n'
_symmetry_cell_setting           triclinic
_symmetry_space_group_name_H-M   'P 1'
_symmetry_Int_Tables_number      1
_space_group_name_Hall           'P 1'
loop_
_symmetry_equiv_pos_site_id
_symmetry_equiv_pos_as_xyz
1 x,y,z
_cell_length_a                   6.593(4)
_cell_length_b                   10.723(7)
_cell_length_c                   14.033(9)
_cell_angle_alpha                94.269(12)
_cell_angle_beta                 101.964(12)
_cell_angle_gamma                92.428(11)
_cell_volume                     966.145
loop_
_atom_site_label
_atom_site_type_symbol
_atom_site_fract_x
_atom_site_fract_y
_atom_site_fract_z
Cu1 Cu -0.0000 0.0000 0.0000
O28 O 0.1713(15) 0.2120(9) 0.0048(9)
Cu1_2 Cu -0.0000 0.0000 1.0000
Cu7 Cu -0.0000 0.5000 0.5000
Cu1_3 Cu -0.0000 1.0000 0.0000
O25 O 0.2064(17) 0.9386(10) 0.1051(8)
Cu1_4 Cu -0.0000 1.0000 1.0000
N5 N 0.1778(19) 0.9256(10) 0.9171(9)
Cu1_5 Cu 1.0000 0.0000 0.0000
N2 N 0.8222(19) 0.0744(10) 0.0829(9)
O7 O 0.3950(15) 0.3750(8) 0.0128(7)
C8 C 0.664(2) 0.1324(12) 0.0324(10)
C9 C 0.522(2) 0.1920(13) 0.0772(11)
O10 O 0.8833(16) 0.3920(10) 0.0111(8)
H6 H 0.9789 0.4283 0.0565
H7 H 0.9159 0.3170 0.0012
C10 C 0.547(3) 0.1869(15) 0.1779(11)
H8 H 0.4534 0.2244 0.2108
C11 C 0.708(3) 0.1268(16) 0.2277(13)
H9 H 0.7240 0.1224 0.2948
C12 C 0.844(2) 0.0733(16) 0.1792(11)
H12 H 0.9562 0.0347 0.2143
C14 C 0.344(2) 0.2666(13) 0.0233(11)
Sr4 Sr 0.4155(2) 0.57511(12) 0.13391(10)
Sr1 Sr 0.5845(2) 0.42489(12) 0.86609(10)
C1 C 0.408(2) 0.5683(14) 0.5951(11)
N1 N 0.2498(18) 0.6150(11) 0.5332(9)
O1 O 0.1816(15) 0.3871(10) 0.5758(8)
Cu1_6 Cu 1.0000 0.0000 1.0000
O2 O 0.4860(17) 0.3833(9) 0.6764(7)
C2 C 0.598(2) 0.6334(13) 0.6284(10)
O3 O 0.7644(15) 0.5872(10) 0.7864(7)
C3 C 0.617(2) 0.7504(15) 0.5932(12)
H1 H 0.7431 0.7968 0.6118
O4 O 0.9407(17) 0.5693(13) 0.6678(9)
C4 C 0.457(3) 0.7995(15) 0.5329(13)
H2 H 0.4721 0.8784 0.5109
O5 O 0.7936(17) 0.0614(10) 0.8949(8)
C5 C 0.276(2) 0.7293(16) 0.5057(14)
H3 H 0.1638 0.7628 0.4660
O6 O 0.5268(15) 0.1846(9) 0.8715(7)
C6 C 0.357(2) 0.4352(13) 0.6187(10)
C7 C 0.776(2) 0.5912(13) 0.6995(11)
O9 O 0.897(2) 0.3036(13) 0.8061(12)
H4 H 0.9982 0.3557 0.8070
H5 H 0.8871 0.2318 0.8273
O11 O 0.2144(19) 0.4954(14) 0.8156(9)
H10 H 0.1769 0.5447 0.7709
H11 H 0.2048 0.5337 0.8695
C13 C 0.658(2) 0.1248(12) 0.9241(11)
O24 O 0.0593(17) 0.4307(13) 0.3322(9)
O27 O 0.6050(15) 0.6250(8) 0.9872(7)
Cu7_2 Cu 1.0000 0.5000 0.5000
Cu1_7 Cu 1.0000 1.0000 0.0000
Cu1_8 Cu 1.0000 1.0000 1.0000
O29 O 0.8287(15) 0.7880(9) 0.9952(9)
C15 C 0.592(2) 0.4317(14) 0.4049(11)
N3 N 0.7502(18) 0.3850(11) 0.4668(9)
O12 O 0.8184(15) 0.6129(10) 0.4242(8)
O13 O 0.5140(17) 0.6167(9) 0.3236(7)
C16 C 0.402(2) 0.3666(13) 0.3716(10)
O14 O 0.2356(15) 0.4128(10) 0.2136(7)
C17 C 0.383(2) 0.2496(15) 0.4068(12)
H13 H 0.2569 0.2032 0.3882
C18 C 0.543(3) 0.2005(15) 0.4671(13)
H14 H 0.5279 0.1216 0.4891
C19 C 0.724(2) 0.2707(16) 0.4943(14)
H15 H 0.8362 0.2372 0.5340
O17 O 0.4732(15) 0.8154(9) 0.1285(7)
C20 C 0.643(2) 0.5648(13) 0.3813(10)
C21 C 0.224(2) 0.4088(13) 0.3005(11)
O20 O 0.103(2) 0.6964(13) 0.1939(12)
H16 H 0.0018 0.6443 0.1930
H17 H 0.1129 0.7682 0.1727
O22 O 0.7856(19) 0.5046(14) 0.1844(9)
H22 H 0.8231 0.4553 0.2291
H23 H 0.7952 0.4663 0.1305
C27 C 0.342(2) 0.8752(12) 0.0759(11)
C22 C 0.336(2) 0.8676(12) 0.9676(10)
C23 C 0.478(2) 0.8080(13) 0.9228(11)
O21 O 0.1167(16) 0.6080(10) 0.9889(8)
H18 H 0.0211 0.5717 0.9435
H19 H 0.0841 0.6830 0.9988
C24 C 0.453(3) 0.8131(15) 0.8221(11)
H20 H 0.5466 0.7756 0.7892
C25 C 0.292(3) 0.8732(16) 0.7723(13)
H21 H 0.2760 0.8776 0.7052
C26 C 0.156(2) 0.9267(16) 0.8208(11)
H24 H 0.0438 0.9653 0.7857
C28 C 0.656(2) 0.7334(13) 0.9767(11)
loop_
_geom_bond_atom_site_label_1
_geom_bond_atom_site_label_2
_geom_bond_site_symmetry_1
_geom_bond_site_symmetry_2
O28 Cu1 1_555 1_555
O25 Cu1_3 1_555 1_555
N5 Cu1_4 1_555 1_555
Cu1_5 N2 1_555 1_555
N2 C8 1_555 1_555
C8 C9 1_555 1_555
O28 C14 1_555 1_555
C9 C10 1_555 1_555
H6 O10 1_555 1_555
H7 O10 1_555 1_555
C10 H8 1_555 1_555
C11 C10 1_555 1_555
H9 C11 1_555 1_555
C12 N2 1_555 1_555
H12 C12 1_555 1_555
C14 O7 1_555 1_555
Sr4 O7 1_555 1_555
C9 C14 1_555 1_555
C11 C12 1_555 1_555
Sr1 O2 1_555 1_555
C1 N1 1_555 1_555
N1 C5 1_555 1_555
O1 C6 1_555 1_555
O2 C6 1_555 1_555
C2 C1 1_555 1_555
O3 Sr1 1_555 1_555
C3 C2 1_555 1_555
H1 C3 1_555 1_555
O4 C7 1_555 1_555
C4 C3 1_555 1_555
H2 C4 1_555 1_555
O5 Cu1_6 1_555 1_555
C5 C4 1_555 1_555
H3 C5 1_555 1_555
O6 Sr1 1_555 1_555
C6 C1 1_555 1_555
C7 C2 1_555 1_555
O9 Sr1 1_555 1_555
H4 O9 1_555 1_555
H5 O9 1_555 1_555
O11 Sr1 1_555 1_555
H10 O11 1_555 1_555
H11 O11 1_555 1_555
C13 O5 1_555 1_555
Cu7 N1 1_555 1_555
O24 Cu7 1_555 1_555
O27 Sr1 1_555 1_555
Cu7_2 O4 1_555 1_555
O1 Cu7 1_555 1_555
O3 C7 1_555 1_555
O6 C13 1_555 1_555
O29 Cu1_8 1_555 1_555
Sr4 O13 1_555 1_555
C15 N3 1_555 1_555
N3 Cu7_2 1_555 1_555
O12 Cu7_2 1_555 1_555
O13 C20 1_555 1_555
C16 C15 1_555 1_555
O14 Sr4 1_555 1_555
C17 C16 1_555 1_555
H13 C17 1_555 1_555
O24 C21 1_555 1_555
C18 C17 1_555 1_555
H14 C18 1_555 1_555
O25 C27 1_555 1_555
C19 N3 1_555 1_555
H15 C19 1_555 1_555
O17 Sr4 1_555 1_555
C20 C15 1_555 1_555
C21 C16 1_555 1_555
O20 Sr4 1_555 1_555
H16 O20 1_555 1_555
H17 O20 1_555 1_555
O22 Sr4 1_555 1_555
H22 O22 1_555 1_555
H23 O22 1_555 1_555
C27 O17 1_555 1_555
O12 C20 1_555 1_555
O14 C21 1_555 1_555
C18 C19 1_555 1_555
N5 C22 1_555 1_555
C22 C23 1_555 1_555
O29 C28 1_555 1_555
C23 C24 1_555 1_555
H18 O21 1_555 1_555
H19 O21 1_555 1_555
C24 H20 1_555 1_555
C25 C24 1_555 1_555
H21 C25 1_555 1_555
C26 N5 1_555 1_555
H24 C26 1_555 1_555
C28 O27 1_555 1_555
C23 C28 1_555 1_555
C25 C26 1_555 1_555

#END
