
###############################################################################
#
# This file contains modified crystal structure data generated from the
# MOF subset of the Cambridge Structural Database (CSD) v543 
# hosted by the Cambridge Crystallographic Data Centre (CCDC).
#
# This work is licensed under the Creative Commons
# Attribution-NonCommercial-ShareAlike 4.0 International License.
# To view a copy of this license, visit
# http://creativecommons.org/licenses/by-nc-sa/4.0/
# or send a letter to
# Creative Commons, PO Box 1866, Mountain View, CA 94042, USA.
#
# CIF created using the CSD Python API on 29 September 2022
# The structure has been converted into the P1 space group
# The structure has a 3D framework
# The original CSD entry NOFMIG is in the orthorhombic crystal system
# The framework has been calculated to contain at least 10.0% void space
# The void calculation uses a probe of radius 1.32A, grid spacing 0.4
#
###############################################################################

data_NOFMIG
_chemical_formula_moiety         '(C92 H64 Cd2 O32)n'
_symmetry_cell_setting           triclinic
_symmetry_space_group_name_H-M   'P 1'
_symmetry_Int_Tables_number      1
_space_group_name_Hall           'P 1'
loop_
_symmetry_equiv_pos_site_id
_symmetry_equiv_pos_as_xyz
1 x,y,z
_cell_length_a                   19.0064(19)
_cell_length_b                   24.517(2)
_cell_length_c                   4.6956(5)
_cell_angle_alpha                90
_cell_angle_beta                 90
_cell_angle_gamma                90
_cell_volume                     2188.06
loop_
_atom_site_label
_atom_site_type_symbol
_atom_site_fract_x
_atom_site_fract_y
_atom_site_fract_z
Cd6 Cd 0.05288(3) 0.04590(2) 0.7515(3)
H13 H 0.7299 0.7935 0.0012
C23 C 0.8060(5) 0.8849(4) 0.071(2)
O7 O 0.8379(4) 0.9276(3) 0.0673(18)
O8 O 0.8263(4) 0.8440(3) 0.229(2)
H16 H 0.8647 0.8509 0.2998
Cd4 Cd 0.94712(3) 0.95410(2) 0.2515(3)
H2 H 0.4641 0.8415 0.0296
C6 C 0.5101(5) 0.7719(4) 0.094(2)
C7 C 0.5108(5) 0.7158(4) 0.038(2)
H3 H 0.5418 0.6926 0.1319
C16 C 0.5667(6) 0.8423(5) 0.347(3)
H10 H 0.5243 0.8547 0.4424
H11 H 0.5720 0.8629 0.1723
C17 C 0.6299(5) 0.8515(5) 0.538(2)
C18 C 0.6561(6) 0.8113(4) 0.708(3)
H12 H 0.6357 0.7768 0.7041
C19 C 0.7124(6) 0.8212(5) 0.886(3)
C20 C 0.7436(5) 0.8739(4) 0.892(2)
C21 C 0.7184(6) 0.9145(4) 0.715(3)
H14 H 0.7397 0.9487 0.7095
C22 C 0.6611(6) 0.9029(4) 0.549(3)
H15 H 0.6421 0.9307 0.4377
Cd1 Cd 0.44712(3) 0.54590(2) 0.2515(3)
O3 O 0.5614(4) 0.7866(3) 0.286(3)
O9 O 0.4330(4) 0.6221(3) 0.5332(17)
O10 O 0.3790(4) 0.4922(3) 0.5087(17)
O11 O 0.5565(3) 0.5219(3) 0.3907(18)
O13 O 0.3379(4) 0.5724(3) 0.0673(18)
C1 C 0.4613(5) 0.6346(3) 0.764(3)
C2 C 0.4638(5) 0.6960(4) 0.838(2)
C3 C 0.4144(5) 0.7305(3) 0.712(2)
H1 H 0.3824 0.7174 0.5784
C4 C 0.4144(5) 0.7856(4) 0.793(2)
C5 C 0.4637(5) 0.8047(4) 0.981(2)
C8 C 0.3092(6) 0.7989(5) 0.521(3)
H4 H 0.2863 0.7704 0.6304
H5 H 0.3265 0.7830 0.3449
C9 C 0.2579(6) 0.8442(4) 0.457(3)
C10 C 0.1960(7) 0.8492(5) 0.599(3)
H6 H 0.1856 0.8242 0.7419
C11 C 0.1477(6) 0.8902(4) 0.541(3)
H7 H 0.1060 0.8925 0.6442
C12 C 0.1626(5) 0.9287(4) 0.322(2)
C13 C 0.2267(6) 0.9258(5) 0.185(2)
H8 H 0.2379 0.9521 0.0497
C14 C 0.2748(5) 0.8850(5) 0.244(4)
H9 H 0.3176 0.8838 0.1483
C15 C 0.1093(5) 0.9686(3) 0.231(3)
O2 O 0.4934(7) 0.6027(12) 0.916(4)
O4 O 0.3668(4) 0.8218(3) 0.6813(17)
O5 O 0.1210(4) 0.9922(3) 0.0087(17)
O6 O 0.0565(3) 0.9781(3) 0.3907(18)
O12 O 0.4435(3) 0.4781(3) 0.8907(18)
C17_2 C 0.3701(5) 0.1485(5) 0.038(2)
C18_2 C 0.3439(6) 0.1887(4) 0.208(3)
H12_2 H 0.3643 0.2232 0.2041
C19_2 C 0.2876(6) 0.1788(5) 0.386(3)
H13_2 H 0.2701 0.2065 0.5012
C20_2 C 0.2564(5) 0.1261(4) 0.392(2)
C21_2 C 0.2816(6) 0.0855(4) 0.215(3)
H14_2 H 0.2603 0.0513 0.2095
C22_2 C 0.3389(6) 0.0971(4) 0.049(3)
C23_2 C 0.1940(5) 0.1151(4) 0.571(2)
O7_2 O 0.1621(4) 0.0724(3) 0.5673(18)
O8_2 O 0.1737(4) 0.1560(3) 0.729(2)
H16_2 H 0.1353 0.1491 0.7998
O9_2 O 0.5670(4) 0.3779(3) 0.0332(17)
O10_2 O 0.6210(4) 0.5078(3) 0.0087(17)
C1_2 C 0.5387(5) 0.3654(3) 0.264(3)
C2_2 C 0.5362(5) 0.3040(4) 0.338(2)
C3_2 C 0.5856(5) 0.2695(3) 0.212(2)
H1_2 H 0.6176 0.2826 0.0784
C4_2 C 0.5856(5) 0.2144(4) 0.293(2)
C5_2 C 0.5363(5) 0.1953(4) 0.481(2)
H2_2 H 0.5359 0.1585 0.5296
C6_2 C 0.4899(5) 0.2281(4) 0.594(2)
C7_2 C 0.4892(5) 0.2842(4) 0.538(2)
H3_2 H 0.4582 0.3074 0.6319
C8_2 C 0.6908(6) 0.2011(5) 0.021(3)
H4_2 H 0.7137 0.2296 0.1304
C10_2 C 0.8040(7) 0.1508(5) 0.099(3)
H6_2 H 0.8144 0.1758 0.2419
C11_2 C 0.8523(6) 0.1098(4) 0.041(3)
H7_2 H 0.8940 0.1075 0.1442
C16_2 C 0.4333(6) 0.1577(5) 0.847(3)
H10_2 H 0.4757 0.1453 0.9424
H11_2 H 0.4280 0.1371 0.6723
H15_2 H 0.3579 0.0693 0.9377
Cd1_2 Cd 0.55288(3) 0.45410(2) 0.7515(3)
O2_2 O 0.5066(7) 0.3973(12) 0.416(4)
O3_2 O 0.4386(4) 0.2134(3) 0.786(3)
O4_2 O 0.6332(4) 0.1782(3) 0.1813(17)
O13_2 O 0.6621(4) 0.4276(3) 0.5673(18)
H5_2 H 0.6735 0.2170 0.8449
C9_2 C 0.7421(6) 0.1558(4) 0.957(3)
C12_2 C 0.8374(5) 0.0713(4) 0.822(2)
C13_2 C 0.7733(6) 0.0742(5) 0.685(2)
H8_2 H 0.7621 0.0479 0.5497
C14_2 C 0.7252(5) 0.1150(5) 0.744(4)
H9_2 H 0.6824 0.1162 0.6483
C15_2 C 0.8907(5) 0.0314(3) 0.731(3)
O5_2 O 0.8790(4) 0.0078(3) 0.5087(17)
O6_2 O 0.9435(3) 0.0219(3) 0.8907(18)
H13_3 H 0.2299 0.7065 0.0012
C23_3 C 0.3060(5) 0.6151(4) 0.071(2)
O8_3 O 0.3263(4) 0.6560(3) 0.229(2)
H16_3 H 0.3647 0.6491 0.2998
C6_3 C 0.0101(5) 0.7281(4) 0.094(2)
C7_3 C 0.0108(5) 0.7842(4) 0.038(2)
H3_3 H 0.0418 0.8074 0.1319
C16_3 C 0.0667(6) 0.6577(5) 0.347(3)
H10_3 H 0.0243 0.6453 0.4424
H11_3 H 0.0720 0.6371 0.1723
C17_3 C 0.1299(5) 0.6485(5) 0.538(2)
C18_3 C 0.1561(6) 0.6887(4) 0.708(3)
H12_3 H 0.1357 0.7232 0.7041
C19_3 C 0.2124(6) 0.6788(5) 0.886(3)
C20_3 C 0.2436(5) 0.6261(4) 0.892(2)
C21_3 C 0.2184(6) 0.5855(4) 0.715(3)
H14_3 H 0.2397 0.5513 0.7095
C22_3 C 0.1611(6) 0.5971(4) 0.549(3)
H15_3 H 0.1421 0.5693 0.4377
O3_3 O 0.0614(4) 0.7134(3) 0.286(3)
H2_3 H 0.9641 0.6585 0.0296
O9_3 O 0.9330(4) 0.8779(3) 0.5332(17)
C1_3 C 0.9613(5) 0.8654(3) 0.764(3)
C2_3 C 0.9638(5) 0.8040(4) 0.838(2)
C3_3 C 0.9144(5) 0.7695(3) 0.712(2)
H1_3 H 0.8824 0.7826 0.5784
C4_3 C 0.9144(5) 0.7144(4) 0.793(2)
C5_3 C 0.9637(5) 0.6953(4) 0.981(2)
C8_3 C 0.8092(6) 0.7011(5) 0.521(3)
H4_3 H 0.7863 0.7296 0.6304
H5_3 H 0.8265 0.7170 0.3449
C9_3 C 0.7579(6) 0.6558(4) 0.457(3)
C10_3 C 0.6960(7) 0.6508(5) 0.599(3)
H6_3 H 0.6856 0.6758 0.7419
C11_3 C 0.6477(6) 0.6098(4) 0.541(3)
H7_3 H 0.6060 0.6075 0.6442
C12_3 C 0.6626(5) 0.5713(4) 0.322(2)
C13_3 C 0.7267(6) 0.5742(5) 0.185(2)
H8_3 H 0.7379 0.5479 0.0497
C14_3 C 0.7748(5) 0.6150(5) 0.244(4)
H9_3 H 0.8176 0.6162 0.1483
C15_3 C 0.6093(5) 0.5314(3) 0.231(3)
O2_3 O 0.9934(7) 0.8973(12) 0.916(4)
O4_3 O 0.8668(4) 0.6782(3) 0.6813(17)
O9_4 O 0.0670(4) 0.1221(3) 0.0332(17)
C1_4 C 0.0387(5) 0.1346(3) 0.264(3)
C2_4 C 0.0362(5) 0.1960(4) 0.338(2)
C3_4 C 0.0856(5) 0.2305(3) 0.212(2)
H1_4 H 0.1176 0.2174 0.0784
C4_4 C 0.0856(5) 0.2856(4) 0.293(2)
C5_4 C 0.0363(5) 0.3047(4) 0.481(2)
H2_4 H 0.0359 0.3415 0.5296
C8_4 C 0.1908(6) 0.2989(5) 0.021(3)
H4_4 H 0.2137 0.2704 0.1304
C10_4 C 0.3040(7) 0.3492(5) 0.099(3)
H6_4 H 0.3144 0.3242 0.2419
C11_4 C 0.3523(6) 0.3902(4) 0.041(3)
H7_4 H 0.3940 0.3925 0.1442
O2_4 O 0.0066(7) 0.1027(12) 0.416(4)
O4_4 O 0.1332(4) 0.3218(3) 0.1813(17)
H5_4 H 0.1735 0.2830 0.8449
C9_4 C 0.2421(6) 0.3442(4) 0.957(3)
C12_4 C 0.3374(5) 0.4287(4) 0.822(2)
C13_4 C 0.2733(6) 0.4258(5) 0.685(2)
H8_4 H 0.2621 0.4521 0.5497
C14_4 C 0.2252(5) 0.3850(5) 0.744(4)
H9_4 H 0.1824 0.3838 0.6483
C15_4 C 0.3907(5) 0.4686(3) 0.731(3)
C17_4 C 0.8701(5) 0.3515(5) 0.038(2)
C18_4 C 0.8439(6) 0.3113(4) 0.208(3)
H12_4 H 0.8643 0.2768 0.2041
C19_4 C 0.7876(6) 0.3212(5) 0.386(3)
H13_4 H 0.7701 0.2935 0.5012
C20_4 C 0.7564(5) 0.3739(4) 0.392(2)
C21_4 C 0.7816(6) 0.4145(4) 0.215(3)
H14_4 H 0.7603 0.4487 0.2095
C22_4 C 0.8389(6) 0.4029(4) 0.049(3)
C23_4 C 0.6940(5) 0.3849(4) 0.571(2)
O8_4 O 0.6737(4) 0.3440(3) 0.729(2)
H16_4 H 0.6353 0.3509 0.7998
C6_4 C 0.9899(5) 0.2719(4) 0.594(2)
C7_4 C 0.9892(5) 0.2158(4) 0.538(2)
H3_4 H 0.9582 0.1926 0.6319
C16_4 C 0.9333(6) 0.3423(5) 0.847(3)
H10_4 H 0.9757 0.3547 0.9424
H11_4 H 0.9280 0.3629 0.6723
H15_4 H 0.8579 0.4307 0.9377
O3_4 O 0.9386(4) 0.2866(3) 0.786(3)
loop_
_geom_bond_atom_site_label_1
_geom_bond_atom_site_label_2
_geom_bond_site_symmetry_1
_geom_bond_site_symmetry_2
O7 C23 1_555 1_555
O8 C23 1_555 1_555
H16 O8 1_555 1_555
Cd4 O7 1_555 1_555
H3 C7 1_555 1_555
C16 H10 1_555 1_555
H11 C16 1_555 1_555
C17 C16 1_555 1_555
C18 C17 1_555 1_555
H12 C18 1_555 1_555
C19 C18 1_555 1_555
C20 C19 1_555 1_555
C21 C20 1_555 1_555
H14 C21 1_555 1_555
C22 C17 1_555 1_555
H15 C22 1_555 1_555
O3 C6 1_555 1_555
O9 Cd1 1_555 1_555
O10 Cd1 1_555 1_555
O11 Cd1 1_555 1_555
O13 Cd1 1_555 1_555
C6 C7 1_555 1_555
C16 O3 1_555 1_555
C21 C22 1_555 1_555
C1 C2 1_555 1_555
C2 C3 1_555 1_555
C3 H1 1_555 1_555
C4 C3 1_555 1_555
C5 C4 1_555 1_555
C8 H4 1_555 1_555
H5 C8 1_555 1_555
C9 C8 1_555 1_555
C10 C9 1_555 1_555
H6 C10 1_555 1_555
C11 C10 1_555 1_555
H7 C11 1_555 1_555
C12 C11 1_555 1_555
C13 C12 1_555 1_555
H8 C13 1_555 1_555
C14 C9 1_555 1_555
H9 C14 1_555 1_555
C15 C12 1_555 1_555
O9 C1 1_555 1_555
O2 C1 1_555 1_555
O4 C4 1_555 1_555
O5 C15 1_555 1_555
O6 C15 1_555 1_555
C8 O4 1_555 1_555
C13 C14 1_555 1_555
C18_2 C17_2 1_555 1_555
H12_2 C18_2 1_555 1_555
C19_2 C18_2 1_555 1_555
H13_2 C19_2 1_555 1_555
C20_2 C19_2 1_555 1_555
C21_2 C20_2 1_555 1_555
H14_2 C21_2 1_555 1_555
C22_2 C17_2 1_555 1_555
C23_2 C20_2 1_555 1_555
O7_2 C23_2 1_555 1_555
O8_2 C23_2 1_555 1_555
H16_2 O8_2 1_555 1_555
Cd6 O7_2 1_555 1_555
C21_2 C22_2 1_555 1_555
C1_2 C2_2 1_555 1_555
C2_2 C3_2 1_555 1_555
C3_2 H1_2 1_555 1_555
C4_2 C3_2 1_555 1_555
C5_2 C4_2 1_555 1_555
H2_2 C5_2 1_555 1_555
C6_2 C5_2 1_555 1_555
C7_2 C2_2 1_555 1_555
H3_2 C7_2 1_555 1_555
C8_2 H4_2 1_555 1_555
H6_2 C10_2 1_555 1_555
C11_2 C10_2 1_555 1_555
H7_2 C11_2 1_555 1_555
C16_2 H10_2 1_555 1_555
H11_2 C16_2 1_555 1_555
Cd1_2 O2_2 1_555 1_555
O9_2 C1_2 1_555 1_555
O2_2 C1_2 1_555 1_555
O3_2 C6_2 1_555 1_555
O4_2 C4_2 1_555 1_555
O12 Cd1_2 1_555 1_555
O11 Cd1_2 1_555 1_555
O13_2 Cd1_2 1_555 1_555
C6_2 C7_2 1_555 1_555
C8_2 O4_2 1_555 1_555
C16_2 O3_2 1_555 1_555
C13_2 C12_2 1_555 1_555
H8_2 C13_2 1_555 1_555
C14_2 C9_2 1_555 1_555
H9_2 C14_2 1_555 1_555
C15_2 C12_2 1_555 1_555
O5_2 C15_2 1_555 1_555
O6_2 C15_2 1_555 1_555
C13_2 C14_2 1_555 1_555
O13 C23_3 1_555 1_555
O8_3 C23_3 1_555 1_555
H16_3 O8_3 1_555 1_555
H3_3 C7_3 1_555 1_555
C16_3 H10_3 1_555 1_555
H11_3 C16_3 1_555 1_555
C17_3 C16_3 1_555 1_555
C18_3 C17_3 1_555 1_555
H12_3 C18_3 1_555 1_555
C19_3 C18_3 1_555 1_555
C20_3 C19_3 1_555 1_555
C21_3 C20_3 1_555 1_555
H14_3 C21_3 1_555 1_555
C22_3 C17_3 1_555 1_555
H15_3 C22_3 1_555 1_555
O3_3 C6_3 1_555 1_555
C6_3 C7_3 1_555 1_555
C16_3 O3_3 1_555 1_555
C21_3 C22_3 1_555 1_555
O9_3 Cd4 1_555 1_555
C1_3 C2_3 1_555 1_555
C2_3 C3_3 1_555 1_555
C3_3 H1_3 1_555 1_555
C4_3 C3_3 1_555 1_555
C5_3 C4_3 1_555 1_555
C8_3 H4_3 1_555 1_555
H5_3 C8_3 1_555 1_555
C9_3 C8_3 1_555 1_555
C10_3 C9_3 1_555 1_555
H6_3 C10_3 1_555 1_555
C11_3 C10_3 1_555 1_555
H7_3 C11_3 1_555 1_555
C12_3 C11_3 1_555 1_555
C13_3 C12_3 1_555 1_555
H8_3 C13_3 1_555 1_555
C14_3 C9_3 1_555 1_555
H9_3 C14_3 1_555 1_555
C15_3 C12_3 1_555 1_555
O9_3 C1_3 1_555 1_555
O2_3 C1_3 1_555 1_555
O4_3 C4_3 1_555 1_555
O10_2 C15_3 1_555 1_555
O11 C15_3 1_555 1_555
C8_3 O4_3 1_555 1_555
C13_3 C14_3 1_555 1_555
C1_4 C2_4 1_555 1_555
C2_4 C3_4 1_555 1_555
C3_4 H1_4 1_555 1_555
C4_4 C3_4 1_555 1_555
C5_4 C4_4 1_555 1_555
H2_4 C5_4 1_555 1_555
C8_4 H4_4 1_555 1_555
H6_4 C10_4 1_555 1_555
C11_4 C10_4 1_555 1_555
H7_4 C11_4 1_555 1_555
Cd6 O2_4 1_555 1_555
O9_4 C1_4 1_555 1_555
O2_4 C1_4 1_555 1_555
O4_4 C4_4 1_555 1_555
C8_4 O4_4 1_555 1_555
C13_4 C12_4 1_555 1_555
H8_4 C13_4 1_555 1_555
C14_4 C9_4 1_555 1_555
H9_4 C14_4 1_555 1_555
C15_4 C12_4 1_555 1_555
O10 C15_4 1_555 1_555
O12 C15_4 1_555 1_555
C13_4 C14_4 1_555 1_555
C18_4 C17_4 1_555 1_555
H12_4 C18_4 1_555 1_555
C19_4 C18_4 1_555 1_555
H13_4 C19_4 1_555 1_555
C20_4 C19_4 1_555 1_555
C21_4 C20_4 1_555 1_555
H14_4 C21_4 1_555 1_555
C22_4 C17_4 1_555 1_555
C23_4 C20_4 1_555 1_555
O13_2 C23_4 1_555 1_555
O8_4 C23_4 1_555 1_555
H16_4 O8_4 1_555 1_555
C21_4 C22_4 1_555 1_555
H3_4 C7_4 1_555 1_555
C16_4 H10_4 1_555 1_555
H11_4 C16_4 1_555 1_555
O3_4 C6_4 1_555 1_555
C6_4 C7_4 1_555 1_555
C16_4 O3_4 1_555 1_555

#END
