
###############################################################################
#
# This file contains modified crystal structure data generated from the
# MOF subset of the Cambridge Structural Database (CSD) v543 
# hosted by the Cambridge Crystallographic Data Centre (CCDC).
#
# This work is licensed under the Creative Commons
# Attribution-NonCommercial-ShareAlike 4.0 International License.
# To view a copy of this license, visit
# http://creativecommons.org/licenses/by-nc-sa/4.0/
# or send a letter to
# Creative Commons, PO Box 1866, Mountain View, CA 94042, USA.
#
# CIF created using the CSD Python API on 29 September 2022
# The structure has been converted into the P1 space group
# The structure has a 3D framework
# The original CSD entry NOFMIG01 is in the orthorhombic crystal system
# The framework has been calculated to contain at least 10.0% void space
# The void calculation uses a probe of radius 1.32A, grid spacing 0.4
#
###############################################################################

data_NOFMIG01
_chemical_formula_moiety         '(C92 H64 Cd4 O29)n'
_symmetry_cell_setting           triclinic
_symmetry_space_group_name_H-M   'P 1'
_symmetry_Int_Tables_number      1
_space_group_name_Hall           'P 1'
loop_
_symmetry_equiv_pos_site_id
_symmetry_equiv_pos_as_xyz
1 x,y,z
_cell_length_a                   18.9360(3)
_cell_length_b                   24.5848(4)
_cell_length_c                   4.70537(8)
_cell_angle_alpha                90
_cell_angle_beta                 90
_cell_angle_gamma                90
_cell_volume                     2190.53
loop_
_atom_site_label
_atom_site_type_symbol
_atom_site_fract_x
_atom_site_fract_y
_atom_site_fract_z
O9 O 0.0564(2) 0.4777(2) 0.0492(12)
H16 H 0.868(4) 0.357(4) 0.03(2)
O11 O 0.8785(3) 0.5074(2) 0.1617(11)
O12 O 0.9331(3) 0.3784(2) 0.1906(12)
Cd1 Cd 0.94712(2) 0.45458(2) 0.90812(18)
O2 O 0.8272(3) 0.34428(19) 0.8915(19)
C2 C 0.6571(4) 0.3110(3) 0.371(2)
H1 H 0.6366 0.2766 0.3691
C7 C 0.7182(4) 0.4127(3) 0.381(3)
H4 H 0.7392 0.4469 0.3826
O6 O 0.8373(3) 0.4278(2) 0.7202(12)
C13 C 0.6297(4) 0.3512(3) 0.1971(17)
C16 C 0.7139(4) 0.3208(3) 0.5463(18)
H8 H 0.7318 0.2933 0.6611
C17 C 0.8069(3) 0.3846(3) 0.7301(15)
C18 C 0.7446(3) 0.3730(3) 0.5498(16)
C19 C 0.5660(4) 0.3418(3) 0.0071(18)
H9 H 0.5233 0.3538 0.1023
C22 C 0.6604(4) 0.4034(3) 0.205(2)
H13 H 0.6422 0.4313 0.0942
O10 O 0.9436(2) 0.5223(2) 0.5492(12)
O13 O 0.9948(3) 0.39663(19) 0.5800(11)
O1 O 0.5621(2) 0.2855(2) 0.9476(15)
C1 C 0.4639(3) 0.1351(2) 0.419(2)
C4 C 0.4151(3) 0.2292(2) 0.3661(18)
H2 H 0.3831 0.2158 0.2335
C5 C 0.4144(3) 0.2837(3) 0.4395(19)
O4 O 0.3670(3) 0.3211(2) 0.3392(12)
C8 C 0.4642(3) 0.1946(3) 0.4925(14)
C10 C 0.4634(4) 0.3046(3) 0.6369(18)
H6 H 0.4635 0.3414 0.6828
C11 C 0.5119(3) 0.2139(3) 0.6892(15)
H7 H 0.5443 0.1905 0.7740
C12 C 0.5110(3) 0.2695(3) 0.7602(16)
C15 C 0.2601(4) 0.3457(3) 0.1069(18)
H10 H 0.5710 0.3623 0.8319
C20 C 0.1961(4) 0.3492(3) 0.2521(18)
H11 H 0.1851 0.3235 0.3901
C21 C 0.1488(4) 0.3908(3) 0.1927(18)
H12 H 0.1068 0.3933 0.2941
C23 C 0.3103(4) 0.2999(3) 0.168(2)
H14 H 0.2860 0.2709 0.2685
O7 O 0.4331(3) 0.1216(2) 0.1906(12)
O8 O 0.4948(3) 0.10337(19) 0.5800(11)
Cd4 Cd 0.05288(2) 0.54542(2) 0.40812(18)
Cd6 Cd 0.44712(2) 0.04542(2) 0.90812(18)
C3 C 0.1109(3) 0.4692(2) 0.896(2)
C6 C 0.2758(3) 0.3841(3) 0.905(3)
H3 H 0.3189 0.3824 0.8102
O5 O 0.1215(3) 0.4926(2) 0.6617(11)
C9 C 0.2290(4) 0.4250(3) 0.8389(17)
H5 H 0.2402 0.4503 0.6993
C14 C 0.1639(3) 0.4284(3) 0.9833(14)
H15 H 0.3287 0.2852 0.9914
O2_2 O 0.1728(3) 0.65572(19) 0.3915(19)
O6_2 O 0.1627(3) 0.5722(2) 0.2202(12)
C16_2 C 0.2861(4) 0.6792(3) 0.0463(18)
H8_2 H 0.2682 0.7067 0.1611
C17_2 C 0.1931(3) 0.6154(3) 0.2301(15)
C18_2 C 0.2554(3) 0.6270(3) 0.0498(16)
H16_2 H 0.132(4) 0.643(4) 0.53(2)
O12_2 O 0.0669(3) 0.6216(2) 0.6906(12)
O13_2 O 0.0052(3) 0.60337(19) 0.0800(11)
O1_2 O 0.4379(2) 0.7145(2) 0.4476(15)
C2_2 C 0.3429(4) 0.6890(3) 0.871(2)
H1_2 H 0.3634 0.7234 0.8691
C7_2 C 0.2818(4) 0.5873(3) 0.881(3)
H4_2 H 0.2608 0.5531 0.8826
C10_2 C 0.5366(4) 0.6954(3) 0.1369(18)
H6_2 H 0.5365 0.6586 0.1828
C11_2 C 0.4881(3) 0.7861(3) 0.1892(15)
H7_2 H 0.4557 0.8095 0.2740
C12_2 C 0.4890(3) 0.7305(3) 0.2602(16)
C13_2 C 0.3703(4) 0.6488(3) 0.6971(17)
C19_2 C 0.4340(4) 0.6582(3) 0.5071(18)
H9_2 H 0.4767 0.6462 0.6023
H10_2 H 0.4290 0.6377 0.3319
C22_2 C 0.3396(4) 0.5966(3) 0.705(2)
H13_2 H 0.3578 0.5687 0.5942
O8_2 O 0.5052(3) 0.89663(19) 0.0800(11)
Cd6_2 Cd 0.55288(2) 0.95458(2) 0.40812(18)
C1_2 C 0.5361(3) 0.8649(2) 0.919(2)
C3_2 C 0.8891(3) 0.5308(2) 0.396(2)
C4_2 C 0.5849(3) 0.7708(2) 0.8661(18)
H2_2 H 0.6169 0.7842 0.7335
C5_2 C 0.5856(3) 0.7163(3) 0.9395(19)
C6_2 C 0.7242(3) 0.6159(3) 0.405(3)
H3_2 H 0.6811 0.6176 0.3102
O4_2 O 0.6330(3) 0.6789(2) 0.8392(12)
C8_2 C 0.5358(3) 0.8054(3) 0.9925(14)
C9_2 C 0.7710(4) 0.5750(3) 0.3389(17)
H5_2 H 0.7598 0.5497 0.1993
C14_2 C 0.8361(3) 0.5716(3) 0.4833(14)
C15_2 C 0.7399(4) 0.6543(3) 0.6069(18)
C20_2 C 0.8039(4) 0.6508(3) 0.7521(18)
H11_2 H 0.8149 0.6765 0.8901
C21_2 C 0.8512(4) 0.6092(3) 0.6927(18)
H12_2 H 0.8932 0.6067 0.7941
C23_2 C 0.6897(4) 0.7001(3) 0.668(2)
H14_2 H 0.7140 0.7291 0.7685
H15_2 H 0.6713 0.7148 0.4914
O7_2 O 0.5669(3) 0.8784(2) 0.6906(12)
C10_3 C 0.0366(4) 0.8046(3) 0.1369(18)
H6_3 H 0.0365 0.8414 0.1828
C1_3 C 0.0361(3) 0.6351(2) 0.919(2)
O3 O 0.4436(2) 0.9777(2) 0.5492(12)
C3_3 C 0.3891(3) 0.9692(2) 0.396(2)
C4_3 C 0.0849(3) 0.7292(2) 0.8661(18)
H2_3 H 0.1169 0.7158 0.7335
C5_3 C 0.0856(3) 0.7837(3) 0.9395(19)
C6_3 C 0.2242(3) 0.8841(3) 0.405(3)
H3_3 H 0.1811 0.8824 0.3102
O4_3 O 0.1330(3) 0.8211(2) 0.8392(12)
O5_2 O 0.3785(3) 0.9926(2) 0.1617(11)
C8_3 C 0.0358(3) 0.6946(3) 0.9925(14)
C9_3 C 0.2710(4) 0.9250(3) 0.3389(17)
H5_3 H 0.2598 0.9503 0.1993
C14_3 C 0.3361(3) 0.9284(3) 0.4833(14)
C15_3 C 0.2399(4) 0.8457(3) 0.6069(18)
C20_3 C 0.3039(4) 0.8492(3) 0.7521(18)
H11_3 H 0.3149 0.8235 0.8901
C21_3 C 0.3512(4) 0.8908(3) 0.6927(18)
H12_3 H 0.3932 0.8933 0.7941
C23_3 C 0.1897(4) 0.7999(3) 0.668(2)
H14_3 H 0.2140 0.7709 0.7685
H15_3 H 0.1713 0.7852 0.4914
O10_2 O 0.5564(2) 0.0223(2) 0.0492(12)
O11_2 O 0.6215(3) 0.0074(2) 0.6617(11)
O2_3 O 0.6728(3) 0.84428(19) 0.3915(19)
O6_3 O 0.6627(3) 0.9278(2) 0.2202(12)
C16_3 C 0.7861(4) 0.8208(3) 0.0463(18)
H8_3 H 0.7682 0.7933 0.1611
C17_3 C 0.6931(3) 0.8846(3) 0.2301(15)
C18_3 C 0.7554(3) 0.8730(3) 0.0498(16)
H16_3 H 0.632(4) 0.857(4) 0.53(2)
H16_4 H 0.368(4) 0.143(4) 0.03(2)
O2_4 O 0.3272(3) 0.15572(19) 0.8915(19)
C2_3 C 0.1571(4) 0.1890(3) 0.371(2)
H1_3 H 0.1366 0.2234 0.3691
C7_3 C 0.2182(4) 0.0873(3) 0.381(3)
H4_3 H 0.2392 0.0531 0.3826
O6_4 O 0.3373(3) 0.0722(2) 0.7202(12)
C13_3 C 0.1297(4) 0.1488(3) 0.1971(17)
C16_4 C 0.2139(4) 0.1792(3) 0.5463(18)
H8_4 H 0.2318 0.2067 0.6611
C17_4 C 0.3069(3) 0.1154(3) 0.7301(15)
C18_4 C 0.2446(3) 0.1270(3) 0.5498(16)
C19_3 C 0.0660(4) 0.1582(3) 0.0071(18)
H9_3 H 0.0233 0.1462 0.1023
C22_3 C 0.1604(4) 0.0966(3) 0.205(2)
H13_3 H 0.1422 0.0687 0.0942
C1_4 C 0.9639(3) 0.3649(2) 0.419(2)
C4_4 C 0.9151(3) 0.2708(2) 0.3661(18)
H2_4 H 0.8831 0.2842 0.2335
C5_4 C 0.9144(3) 0.2163(3) 0.4395(19)
O4_4 O 0.8670(3) 0.1789(2) 0.3392(12)
C8_4 C 0.9642(3) 0.3054(3) 0.4925(14)
C10_4 C 0.9634(4) 0.1954(3) 0.6369(18)
H6_4 H 0.9635 0.1586 0.6828
C15_4 C 0.7601(4) 0.1543(3) 0.1069(18)
C20_4 C 0.6961(4) 0.1508(3) 0.2521(18)
H11_4 H 0.6851 0.1765 0.3901
C21_4 C 0.6488(4) 0.1092(3) 0.1927(18)
H12_4 H 0.6068 0.1067 0.2941
C23_4 C 0.8103(4) 0.2001(3) 0.168(2)
H14_4 H 0.7860 0.2291 0.2685
C3_4 C 0.6109(3) 0.0308(2) 0.896(2)
C6_4 C 0.7758(3) 0.1159(3) 0.905(3)
H3_4 H 0.8189 0.1176 0.8102
C9_4 C 0.7290(4) 0.0750(3) 0.8389(17)
H5_4 H 0.7402 0.0497 0.6993
C14_4 C 0.6639(3) 0.0716(3) 0.9833(14)
H15_4 H 0.8287 0.2148 0.9914
O1_3 O 0.9379(2) 0.7855(2) 0.4476(15)
C2_4 C 0.8429(4) 0.8110(3) 0.871(2)
H1_4 H 0.8634 0.7766 0.8691
C7_4 C 0.7818(4) 0.9127(3) 0.881(3)
H4_4 H 0.7608 0.9469 0.8826
C11_3 C 0.9881(3) 0.7139(3) 0.1892(15)
H7_3 H 0.9557 0.6905 0.2740
C12_3 C 0.9890(3) 0.7695(3) 0.2602(16)
C13_4 C 0.8703(4) 0.8512(3) 0.6971(17)
C19_4 C 0.9340(4) 0.8418(3) 0.5071(18)
H9_4 H 0.9767 0.8538 0.6023
H10_3 H 0.9290 0.8623 0.3319
C22_4 C 0.8396(4) 0.9034(3) 0.705(2)
H13_4 H 0.8578 0.9313 0.5942
O1_4 O 0.0621(2) 0.2145(2) 0.9476(15)
C11_4 C 0.0119(3) 0.2861(3) 0.6892(15)
H7_4 H 0.0443 0.3095 0.7740
C12_4 C 0.0110(3) 0.2305(3) 0.7602(16)
H10_4 H 0.0710 0.1377 0.8319
loop_
_geom_bond_atom_site_label_1
_geom_bond_atom_site_label_2
_geom_bond_site_symmetry_1
_geom_bond_site_symmetry_2
Cd1 O6 1_555 1_555
O2 C17 1_555 1_555
C2 H1 1_555 1_555
C7 H4 1_555 1_555
O6 C17 1_555 1_555
C13 C2 1_555 1_555
C16 C2 1_555 1_555
H8 C16 1_555 1_555
C17 C18 1_555 1_555
C18 C7 1_555 1_555
H9 C19 1_555 1_555
C22 C7 1_555 1_555
H13 C22 1_555 1_555
O10 Cd1 1_555 1_555
O13 Cd1 1_555 1_555
C13 C19 1_555 1_555
C13 C22 1_555 1_555
C16 C18 1_555 1_555
O1 C12 1_555 1_555
C1 C8 1_555 1_555
C4 H2 1_555 1_555
C5 C4 1_555 1_555
O4 C5 1_555 1_555
C8 C4 1_555 1_555
C10 C5 1_555 1_555
H6 C10 1_555 1_555
C11 C8 1_555 1_555
H7 C11 1_555 1_555
C12 C10 1_555 1_555
C20 C15 1_555 1_555
H11 C20 1_555 1_555
H12 C21 1_555 1_555
C23 O4 1_555 1_555
H14 C23 1_555 1_555
O7 C1 1_555 1_555
O8 C1 1_555 1_555
Cd4 O9 1_555 1_555
Cd6 O8 1_555 1_555
C11 C12 1_555 1_555
C15 C23 1_555 1_555
C20 C21 1_555 1_555
C3 O5 1_555 1_555
C6 H3 1_555 1_555
O5 Cd4 1_555 1_555
C9 C6 1_555 1_555
H5 C9 1_555 1_555
C14 C3 1_555 1_555
C9 C14 1_555 1_555
Cd4 O6_2 1_555 1_555
O2_2 C17_2 1_555 1_555
O6_2 C17_2 1_555 1_555
H8_2 C16_2 1_555 1_555
C17_2 C18_2 1_555 1_555
H16_2 O2_2 1_555 1_555
O12_2 Cd4 1_555 1_555
O13_2 Cd4 1_555 1_555
C16_2 C18_2 1_555 1_555
O1_2 C12_2 1_555 1_555
C2_2 H1_2 1_555 1_555
C7_2 H4_2 1_555 1_555
H6_2 C10_2 1_555 1_555
H7_2 C11_2 1_555 1_555
C12_2 C10_2 1_555 1_555
C13_2 C2_2 1_555 1_555
C19_2 O1_2 1_555 1_555
H9_2 C19_2 1_555 1_555
H10_2 C19_2 1_555 1_555
C22_2 C7_2 1_555 1_555
H13_2 C22_2 1_555 1_555
Cd6_2 O8_2 1_555 1_555
C11_2 C12_2 1_555 1_555
C13_2 C19_2 1_555 1_555
C13_2 C22_2 1_555 1_555
C1_2 C8_2 1_555 1_555
O10 C3_2 1_555 1_555
C3_2 O11 1_555 1_555
C4_2 H2_2 1_555 1_555
C5_2 C4_2 1_555 1_555
C6_2 H3_2 1_555 1_555
O4_2 C5_2 1_555 1_555
C8_2 C4_2 1_555 1_555
C9_2 C6_2 1_555 1_555
H5_2 C9_2 1_555 1_555
C14_2 C3_2 1_555 1_555
C15_2 C6_2 1_555 1_555
C20_2 C15_2 1_555 1_555
H11_2 C20_2 1_555 1_555
C21_2 C14_2 1_555 1_555
H12_2 C21_2 1_555 1_555
C23_2 O4_2 1_555 1_555
H14_2 C23_2 1_555 1_555
H15_2 C23_2 1_555 1_555
O7_2 C1_2 1_555 1_555
Cd6_2 O7_2 1_555 1_555
C9_2 C14_2 1_555 1_555
C15_2 C23_2 1_555 1_555
C20_2 C21_2 1_555 1_555
H6_3 C10_3 1_555 1_555
C1_3 C8_3 1_555 1_555
O3 C3_3 1_555 1_555
C3_3 O5_2 1_555 1_555
C4_3 H2_3 1_555 1_555
C5_3 C4_3 1_555 1_555
C6_3 H3_3 1_555 1_555
O4_3 C5_3 1_555 1_555
C8_3 C4_3 1_555 1_555
C9_3 C6_3 1_555 1_555
H5_3 C9_3 1_555 1_555
C14_3 C3_3 1_555 1_555
C15_3 C6_3 1_555 1_555
C20_3 C15_3 1_555 1_555
H11_3 C20_3 1_555 1_555
C21_3 C14_3 1_555 1_555
H12_3 C21_3 1_555 1_555
C23_3 O4_3 1_555 1_555
H14_3 C23_3 1_555 1_555
H15_3 C23_3 1_555 1_555
O12_2 C1_3 1_555 1_555
Cd6_2 O3 1_555 1_555
C9_3 C14_3 1_555 1_555
C15_3 C23_3 1_555 1_555
C20_3 C21_3 1_555 1_555
Cd6_2 O6_3 1_555 1_555
O2_3 C17_3 1_555 1_555
O6_3 C17_3 1_555 1_555
H8_3 C16_3 1_555 1_555
C17_3 C18_3 1_555 1_555
H16_3 O2_3 1_555 1_555
C16_3 C18_3 1_555 1_555
Cd6 O6_4 1_555 1_555
O2_4 C17_4 1_555 1_555
C2_3 H1_3 1_555 1_555
C7_3 H4_3 1_555 1_555
O6_4 C17_4 1_555 1_555
C13_3 C2_3 1_555 1_555
C16_4 C2_3 1_555 1_555
H8_4 C16_4 1_555 1_555
C17_4 C18_4 1_555 1_555
C18_4 C7_3 1_555 1_555
H9_3 C19_3 1_555 1_555
C22_3 C7_3 1_555 1_555
H13_3 C22_3 1_555 1_555
C13_3 C19_3 1_555 1_555
C13_3 C22_3 1_555 1_555
C16_4 C18_4 1_555 1_555
C1_4 C8_4 1_555 1_555
C4_4 H2_4 1_555 1_555
C5_4 C4_4 1_555 1_555
O4_4 C5_4 1_555 1_555
C8_4 C4_4 1_555 1_555
C10_4 C5_4 1_555 1_555
H6_4 C10_4 1_555 1_555
C20_4 C15_4 1_555 1_555
H11_4 C20_4 1_555 1_555
H12_4 C21_4 1_555 1_555
C23_4 O4_4 1_555 1_555
H14_4 C23_4 1_555 1_555
O12 C1_4 1_555 1_555
O13 C1_4 1_555 1_555
C15_4 C23_4 1_555 1_555
C20_4 C21_4 1_555 1_555
C3_4 O11_2 1_555 1_555
C6_4 H3_4 1_555 1_555
C9_4 C6_4 1_555 1_555
H5_4 C9_4 1_555 1_555
C14_4 C3_4 1_555 1_555
C9_4 C14_4 1_555 1_555
O1_3 C12_3 1_555 1_555
C2_4 H1_4 1_555 1_555
C7_4 H4_4 1_555 1_555
H7_3 C11_3 1_555 1_555
C13_4 C2_4 1_555 1_555
C19_4 O1_3 1_555 1_555
H9_4 C19_4 1_555 1_555
H10_3 C19_4 1_555 1_555
C22_4 C7_4 1_555 1_555
H13_4 C22_4 1_555 1_555
C11_3 C12_3 1_555 1_555
C13_4 C19_4 1_555 1_555
C13_4 C22_4 1_555 1_555
O1_4 C12_4 1_555 1_555
H7_4 C11_4 1_555 1_555
C11_4 C12_4 1_555 1_555

#END
