
###############################################################################
#
# This file contains modified crystal structure data generated from the
# MOF subset of the Cambridge Structural Database (CSD) v543 
# hosted by the Cambridge Crystallographic Data Centre (CCDC).
#
# This work is licensed under the Creative Commons
# Attribution-NonCommercial-ShareAlike 4.0 International License.
# To view a copy of this license, visit
# http://creativecommons.org/licenses/by-nc-sa/4.0/
# or send a letter to
# Creative Commons, PO Box 1866, Mountain View, CA 94042, USA.
#
# CIF created using the CSD Python API on 29 September 2022
# The structure has been converted into the P1 space group
# The structure has a 3D framework
# The original CSD entry NOKLIJ is in the rhombohedral crystal system
# The framework has been calculated to contain at least 10.0% void space
# The void calculation uses a probe of radius 1.32A, grid spacing 0.4
#
###############################################################################

data_NOKLIJ
_chemical_formula_moiety         '(C72 H24 Ni18 O54)n'
_symmetry_cell_setting           triclinic
_symmetry_space_group_name_H-M   'P 1'
_symmetry_Int_Tables_number      1
_space_group_name_Hall           'P 1'
loop_
_symmetry_equiv_pos_site_id
_symmetry_equiv_pos_as_xyz
1 x,y,z
_cell_length_a                   25.7836(11)
_cell_length_b                   25.7836(11)
_cell_length_c                   6.7474(3)
_cell_angle_alpha                90
_cell_angle_beta                 90
_cell_angle_gamma                120
_cell_volume                     3884.67
loop_
_atom_site_label
_atom_site_type_symbol
_atom_site_fract_x
_atom_site_fract_y
_atom_site_fract_z
_atom_site_U_iso_or_equiv
_atom_site_thermal_displace_type
C1 C 0.4152(7) 0.4047(7) 0.2551(17) 0.0030 Uiso
C2 C 0.4593(6) 0.4517(6) 0.1202(19) 0.0030 Uiso
C4 C 0.5145(6) 0.4955(6) 0.1970(14) 0.0030 Uiso
H1 H 0.52573 0.49429 0.33325 0.0030 Uiso
Ni1 Ni 0.38094(13) 0.35079(13) 0.6469(4) 0.0102 Uiso
O1 O 0.4357(4) 0.4041(5) 0.4355(16) 0.0020 Uiso
O2 O 0.3663(5) 0.3629(5) 0.2172(14) 0.0020 Uiso
C7 C 0.5557(4) 0.5478(5) 0.0841(18) 0.0030 Uiso
Ni4 Ni 0.30318(18) 0.28573(13) 0.3136(4) 0.0102 Uiso
Ni6 Ni 0.68412(13) 0.63652(18) 0.0198(4) 0.0102 Uiso
Ni8 Ni 0.61906(13) 0.64921(13) 0.3531(4) 0.0102 Uiso
O6 O 0.3299(7) 0.3004(5) 0.8839(14) 0.0020 Uiso
O7 O 0.3038(5) 0.3367(7) 0.5505(14) 0.0020 Uiso
O10 O 0.6103(3) 0.5825(4) 0.1623(17) 0.0020 Uiso
O11 O 0.3897(3) 0.4175(4) 0.8377(17) 0.0020 Uiso
O12 O 0.3611(5) 0.2770(3) 0.5044(17) 0.0020 Uiso
C3 C 0.4443(4) 0.4522(5) 0.9159(18) 0.0030 Uiso
C5 C 0.5848(7) 0.5953(7) 0.7449(17) 0.0030 Uiso
C6 C 0.5407(6) 0.5483(6) 0.8798(19) 0.0030 Uiso
C8 C 0.4855(6) 0.5045(6) 0.8030(14) 0.0030 Uiso
H2 H 0.47427 0.50571 0.66675 0.0030 Uiso
Ni3 Ni 0.31588(13) 0.36348(18) 0.9802(4) 0.0102 Uiso
Ni7 Ni 0.69682(18) 0.71427(13) 0.6864(4) 0.0102 Uiso
O4 O 0.5643(4) 0.5959(5) 0.5645(16) 0.0020 Uiso
O5 O 0.6337(5) 0.6371(5) 0.7828(14) 0.0020 Uiso
O8 O 0.6701(7) 0.6996(5) 0.1161(14) 0.0020 Uiso
O9 O 0.6962(5) 0.6633(7) 0.4495(14) 0.0020 Uiso
O14 O 0.6389(5) 0.7230(3) 0.4956(17) 0.0020 Uiso
Ni6_2 Ni 0.01746(13) 0.30318(18) 0.6864(4) 0.0102 Uiso
Ni7_2 Ni 0.03015(18) 0.38094(13) 0.3531(4) 0.0102 Uiso
O9_2 O 0.0296(5) 0.3299(7) 0.1161(14) 0.0020 Uiso
O8_2 O 0.0034(7) 0.3663(5) 0.7828(14) 0.0020 Uiso
H1_2 H 0.85906 0.16096 -0.00008 0.0030 Uiso
Ni1_2 Ni 0.71427(13) 0.01746(13) 0.3136(4) 0.0102 Uiso
O1_2 O 0.7690(4) 0.0708(5) 0.1022(16) 0.0020 Uiso
Ni8_2 Ni 0.95239(13) 0.31588(13) 0.0198(4) 0.0102 Uiso
O7_2 O 0.6371(5) 0.0034(7) 0.2172(14) 0.0020 Uiso
O11_2 O 0.7230(3) 0.0842(4) 0.5044(17) 0.0020 Uiso
C1_2 C 0.7485(7) 0.0714(7) 0.9218(17) 0.0030 Uiso
C2_2 C 0.7926(6) 0.1184(6) 0.7869(19) 0.0030 Uiso
C3_2 C 0.7776(4) 0.1189(5) 0.5826(18) 0.0030 Uiso
C4_2 C 0.8478(6) 0.1622(6) 0.8637(14) 0.0030 Uiso
H1_3 H 0.85906 0.16096 0.99992 0.0030 Uiso
O2_2 O 0.6996(5) 0.0296(5) 0.8839(14) 0.0020 Uiso
C5_2 C 0.9181(7) 0.2620(7) 0.4116(17) 0.0030 Uiso
C6_2 C 0.8740(6) 0.2150(6) 0.5465(19) 0.0030 Uiso
C7_2 C 0.8890(4) 0.2145(5) 0.7508(18) 0.0030 Uiso
C8_2 C 0.8188(6) 0.1712(6) 0.4697(14) 0.0030 Uiso
H2_2 H 0.80760 0.17238 0.33342 0.0030 Uiso
Ni3_2 Ni 0.64921(13) 0.03015(18) 0.6469(4) 0.0102 Uiso
O4_2 O 0.8976(4) 0.2626(5) 0.2312(16) 0.0020 Uiso
O5_2 O 0.9670(5) 0.3038(5) 0.4495(14) 0.0020 Uiso
O10_2 O 0.9436(3) 0.2492(4) 0.8290(17) 0.0020 Uiso
O14_2 O 0.9722(5) 0.3897(3) 0.1623(17) 0.0020 Uiso
O6_2 O 0.6633(7) 0.9670(5) 0.5505(14) 0.0020 Uiso
O12_2 O 0.6945(5) 0.9436(3) 0.1710(17) 0.0020 Uiso
Ni4_2 Ni 0.63652(18) 0.95239(13) 0.9802(4) 0.0102 Uiso
Ni7_3 Ni 0.36348(18) 0.04761(13) 0.0198(4) 0.0102 Uiso
O8_3 O 0.3367(7) 0.0330(5) 0.4495(14) 0.0020 Uiso
O14_3 O 0.3055(5) 0.0564(3) 0.8290(17) 0.0020 Uiso
O11_3 O 0.0564(3) 0.7508(4) 0.1710(17) 0.0020 Uiso
C1_3 C 0.0819(7) 0.7380(7) 0.5884(17) 0.0030 Uiso
C2_3 C 0.1260(6) 0.7850(6) 0.4535(19) 0.0030 Uiso
C3_3 C 0.1110(4) 0.7855(5) 0.2492(18) 0.0030 Uiso
C4_3 C 0.1812(6) 0.8288(6) 0.5303(14) 0.0030 Uiso
H1_4 H 0.19240 0.82762 0.66658 0.0030 Uiso
Ni1_3 Ni 0.04761(13) 0.68412(13) 0.9802(4) 0.0102 Uiso
O1_3 O 0.1024(4) 0.7374(5) 0.7688(16) 0.0020 Uiso
O2_3 O 0.0330(5) 0.6962(5) 0.5505(14) 0.0020 Uiso
C5_3 C 0.2515(7) 0.9286(7) 0.0782(17) 0.0030 Uiso
C6_3 C 0.2074(6) 0.8816(6) 0.2131(19) 0.0030 Uiso
C7_3 C 0.2224(4) 0.8811(5) 0.4174(18) 0.0030 Uiso
C8_3 C 0.1522(6) 0.8378(6) 0.1363(14) 0.0030 Uiso
H2_3 H 0.14094 0.83904 0.00008 0.0030 Uiso
Ni6_3 Ni 0.35079(13) 0.96985(18) 0.3531(4) 0.0102 Uiso
Ni8_3 Ni 0.28573(13) 0.98254(13) 0.6864(4) 0.0102 Uiso
O5_3 O 0.3004(5) 0.9704(5) 0.1161(14) 0.0020 Uiso
O10_3 O 0.2770(3) 0.9158(4) 0.4956(17) 0.0020 Uiso
O12_3 O 0.0278(5) 0.6103(3) 0.8377(17) 0.0020 Uiso
H2_4 H 0.14094 0.83904 1.00008 0.0030 Uiso
O4_3 O 0.2310(4) 0.9292(5) 0.8978(16) 0.0020 Uiso
O9_3 O 0.3629(5) 0.9966(7) 0.7828(14) 0.0020 Uiso
O6_3 O 0.9966(7) 0.6337(5) 0.2172(14) 0.0020 Uiso
Ni3_3 Ni 0.98254(13) 0.69682(18) 0.3136(4) 0.0102 Uiso
Ni4_3 Ni 0.96985(18) 0.61906(13) 0.6469(4) 0.0102 Uiso
O7_3 O 0.9704(5) 0.6701(7) 0.8839(14) 0.0020 Uiso
C1_4 C 0.5953(7) 0.0105(10) 0.2551(17) 0.0030 Uiso
C2_4 C 0.5483(6) 0.0076(8) 0.1202(19) 0.0030 Uiso
C4_4 C 0.5045(6) 0.0190(8) 0.1970(14) 0.0030 Uiso
H1_5 H 0.50571 0.03144 0.33325 0.0030 Uiso
O1_4 O 0.5959(5) 0.0316(6) 0.4355(16) 0.0020 Uiso
C7_4 C 0.4522(5) 0.0079(6) 0.0841(18) 0.0030 Uiso
O10_4 O 0.4175(4) 0.0278(5) 0.1623(17) 0.0020 Uiso
O11_4 O 0.5825(4) 0.9722(5) 0.8377(17) 0.0020 Uiso
C3_4 C 0.5478(5) 0.9921(6) 0.9159(18) 0.0030 Uiso
C5_4 C 0.4047(7) 0.9895(10) 0.7449(17) 0.0030 Uiso
C6_4 C 0.4517(6) 0.9924(8) 0.8798(19) 0.0030 Uiso
C8_4 C 0.4955(6) 0.9810(8) 0.8030(14) 0.0030 Uiso
H2_5 H 0.49429 0.96856 0.66675 0.0030 Uiso
O4_4 O 0.4041(5) 0.9684(6) 0.5645(16) 0.0020 Uiso
C3_5 C 0.0079(6) 0.5557(4) 0.9159(18) 0.0030 Uiso
C5_5 C 0.0105(10) 0.4152(7) 0.7449(17) 0.0030 Uiso
C6_5 C 0.0076(8) 0.4593(6) 0.8798(19) 0.0030 Uiso
C8_5 C 0.0190(8) 0.5145(6) 0.8030(14) 0.0030 Uiso
H2_6 H 0.03144 0.52573 0.66675 0.0030 Uiso
O4_5 O 0.0316(6) 0.4357(4) 0.5645(16) 0.0020 Uiso
O14_4 O 0.0842(6) 0.3611(5) 0.4956(17) 0.0020 Uiso
C1_5 C 0.9895(10) 0.5848(7) 0.2551(17) 0.0030 Uiso
C2_5 C 0.9924(8) 0.5407(6) 0.1202(19) 0.0030 Uiso
C4_5 C 0.9810(8) 0.4855(6) 0.1970(14) 0.0030 Uiso
H1_6 H 0.96856 0.47427 0.33325 0.0030 Uiso
O1_5 O 0.9684(6) 0.5643(4) 0.4355(16) 0.0020 Uiso
C7_5 C 0.9921(6) 0.4443(4) 0.0841(18) 0.0030 Uiso
O12_4 O 0.9158(6) 0.6389(5) 0.5044(17) 0.0020 Uiso
H1_7 H 0.83904 0.69811 -0.00008 0.0030 Uiso
O1_6 O 0.9292(5) 0.6983(6) 0.1022(16) 0.0020 Uiso
C1_6 C 0.9286(7) 0.6772(10) 0.9218(17) 0.0030 Uiso
C2_6 C 0.8816(6) 0.6743(8) 0.7869(19) 0.0030 Uiso
C3_6 C 0.8811(5) 0.6588(6) 0.5826(18) 0.0030 Uiso
C4_6 C 0.8378(6) 0.6857(8) 0.8637(14) 0.0030 Uiso
H1_8 H 0.83904 0.69811 0.99992 0.0030 Uiso
C5_6 C 0.7380(7) 0.6562(10) 0.4116(17) 0.0030 Uiso
C6_6 C 0.7850(6) 0.6591(8) 0.5465(19) 0.0030 Uiso
C7_6 C 0.7855(5) 0.6746(6) 0.7508(18) 0.0030 Uiso
C8_6 C 0.8288(6) 0.6477(8) 0.4697(14) 0.0030 Uiso
H2_7 H 0.82762 0.63523 0.33342 0.0030 Uiso
O4_6 O 0.7374(5) 0.6351(6) 0.2312(16) 0.0020 Uiso
O10_5 O 0.7508(4) 0.6945(5) 0.8290(17) 0.0020 Uiso
H1_9 H 0.30189 0.14094 -0.00008 0.0030 Uiso
O1_7 O 0.3017(6) 0.2310(4) 0.1022(16) 0.0020 Uiso
O12_5 O 0.2492(6) 0.3055(5) 0.1710(17) 0.0020 Uiso
C1_7 C 0.3228(10) 0.2515(7) 0.9218(17) 0.0030 Uiso
C2_7 C 0.3257(8) 0.2074(6) 0.7869(19) 0.0030 Uiso
C3_7 C 0.3412(6) 0.2224(4) 0.5826(18) 0.0030 Uiso
C4_7 C 0.3143(8) 0.1522(6) 0.8637(14) 0.0030 Uiso
H1_10 H 0.30189 0.14094 0.99992 0.0030 Uiso
C5_7 C 0.3438(10) 0.0819(7) 0.4116(17) 0.0030 Uiso
C6_7 C 0.3409(8) 0.1260(6) 0.5465(19) 0.0030 Uiso
C7_7 C 0.3254(6) 0.1110(4) 0.7508(18) 0.0030 Uiso
C8_7 C 0.3523(8) 0.1812(6) 0.4697(14) 0.0030 Uiso
H2_8 H 0.36477 0.19240 0.33342 0.0030 Uiso
O4_7 O 0.3649(6) 0.1024(4) 0.2312(16) 0.0020 Uiso
C1_8 C 0.2620(7) 0.3438(10) 0.5884(17) 0.0030 Uiso
C2_8 C 0.2150(6) 0.3409(8) 0.4535(19) 0.0030 Uiso
C3_8 C 0.2145(5) 0.3254(6) 0.2492(18) 0.0030 Uiso
C4_8 C 0.1712(6) 0.3523(8) 0.5303(14) 0.0030 Uiso
H1_11 H 0.17238 0.36477 0.66658 0.0030 Uiso
O1_8 O 0.2626(5) 0.3649(6) 0.7688(16) 0.0020 Uiso
C5_8 C 0.0714(7) 0.3228(10) 0.0782(17) 0.0030 Uiso
C6_8 C 0.1184(6) 0.3257(8) 0.2131(19) 0.0030 Uiso
C7_8 C 0.1189(5) 0.3412(6) 0.4174(18) 0.0030 Uiso
C8_8 C 0.1622(6) 0.3143(8) 0.1363(14) 0.0030 Uiso
H2_9 H 0.16096 0.30189 0.00008 0.0030 Uiso
H2_10 H 0.16096 0.30189 1.00008 0.0030 Uiso
O4_8 O 0.0708(5) 0.3017(6) 0.8978(16) 0.0020 Uiso
C1_9 C 0.6562(10) 0.9181(7) 0.5884(17) 0.0030 Uiso
C2_9 C 0.6591(8) 0.8740(6) 0.4535(19) 0.0030 Uiso
C3_9 C 0.6746(6) 0.8890(4) 0.2492(18) 0.0030 Uiso
C4_9 C 0.6477(8) 0.8188(6) 0.5303(14) 0.0030 Uiso
H1_12 H 0.63523 0.80760 0.66658 0.0030 Uiso
O1_9 O 0.6351(6) 0.8976(4) 0.7688(16) 0.0020 Uiso
C5_9 C 0.6772(10) 0.7485(7) 0.0782(17) 0.0030 Uiso
C6_9 C 0.6743(8) 0.7926(6) 0.2131(19) 0.0030 Uiso
C7_9 C 0.6588(6) 0.7776(4) 0.4174(18) 0.0030 Uiso
C8_9 C 0.6857(8) 0.8478(6) 0.1363(14) 0.0030 Uiso
H2_11 H 0.69811 0.85906 0.00008 0.0030 Uiso
H2_12 H 0.69811 0.85906 1.00008 0.0030 Uiso
O4_9 O 0.6983(6) 0.7690(4) 0.8978(16) 0.0020 Uiso
loop_
_geom_bond_atom_site_label_1
_geom_bond_atom_site_label_2
_geom_bond_site_symmetry_1
_geom_bond_site_symmetry_2
C1 C2 1_555 1_555
C4 C2 1_555 1_555
H1 C4 1_555 1_555
Ni1 O1 1_555 1_555
O1 C1 1_555 1_555
O2 C1 1_555 1_555
C7 C4 1_555 1_555
Ni4 O2 1_555 1_555
Ni8 O10 1_555 1_555
O6 Ni1 1_555 1_555
O7 Ni1 1_555 1_555
O10 C7 1_555 1_555
O11 Ni1 1_555 1_555
O12 Ni1 1_555 1_555
Ni4 O7 1_555 1_555
Ni4 O12 1_555 1_555
Ni6 O10 1_555 1_555
C3 O11 1_555 1_555
O11 Ni3 1_555 1_555
C5 C6 1_555 1_555
C8 C3 1_555 1_555
H2 C8 1_555 1_555
Ni8 O4 1_555 1_555
Ni7 O5 1_555 1_555
O4 C5 1_555 1_555
O5 C5 1_555 1_555
O8 Ni8 1_555 1_555
O9 Ni8 1_555 1_555
O14 Ni8 1_555 1_555
C6 C8 1_555 1_555
Ni7 O9 1_555 1_555
Ni7 O14 1_555 1_555
Ni7_2 O9_2 1_555 1_555
Ni1_2 O1_2 1_555 1_555
O7_2 Ni1_2 1_555 1_555
O11_2 Ni1_2 1_555 1_555
C1_2 C2_2 1_555 1_555
C2_2 C3_2 1_555 1_555
C3_2 O11_2 1_555 1_555
C4_2 C2_2 1_555 1_555
H1_3 C4_2 1_555 1_555
O2_2 C1_2 1_555 1_555
O11_2 Ni3_2 1_555 1_555
C5_2 C6_2 1_555 1_555
C6_2 C7_2 1_555 1_555
C7_2 C4_2 1_555 1_555
C8_2 C3_2 1_555 1_555
H2_2 C8_2 1_555 1_555
Ni8_2 O4_2 1_555 1_555
Ni3_2 O2_2 1_555 1_555
O4_2 C5_2 1_555 1_555
O5_2 C5_2 1_555 1_555
O10_2 C7_2 1_555 1_555
O14_2 Ni8_2 1_555 1_555
C6_2 C8_2 1_555 1_555
C1_3 C2_3 1_555 1_555
C2_3 C3_3 1_555 1_555
C3_3 O11_3 1_555 1_555
C4_3 C2_3 1_555 1_555
H1_4 C4_3 1_555 1_555
Ni1_3 O1_3 1_555 1_555
O1_3 C1_3 1_555 1_555
O2_3 C1_3 1_555 1_555
C5_3 C6_3 1_555 1_555
C6_3 C7_3 1_555 1_555
C7_3 C4_3 1_555 1_555
C8_3 C3_3 1_555 1_555
H2_3 C8_3 1_555 1_555
Ni6_3 O5_3 1_555 1_555
Ni8_3 O10_3 1_555 1_555
O5_3 C5_3 1_555 1_555
O10_3 C7_3 1_555 1_555
O12_3 Ni1_3 1_555 1_555
C6_3 C8_3 1_555 1_555
Ni6_3 O10_3 1_555 1_555
Ni8_3 O4_3 1_555 1_555
O9_3 Ni8_3 1_555 1_555
Ni4_3 O7_3 1_555 1_555
C1_4 C2_4 1_555 1_555
C4_4 C2_4 1_555 1_555
H1_5 C4_4 1_555 1_555
Ni3_2 O1_4 1_555 1_555
O1_4 C1_4 1_555 1_555
O7_2 C1_4 1_555 1_555
C7_4 C4_4 1_555 1_555
O10_4 C7_4 1_555 1_555
Ni7_3 O10_4 1_555 1_555
C3_4 O11_4 1_555 1_555
O11_4 Ni4_2 1_555 1_555
C5_4 C6_4 1_555 1_555
C8_4 C3_4 1_555 1_555
H2_5 C8_4 1_555 1_555
Ni6_3 O4_4 1_555 1_555
O4_4 C5_4 1_555 1_555
O9_3 C5_4 1_555 1_555
C6_4 C8_4 1_555 1_555
C3_5 O12_3 1_555 1_555
C5_5 C6_5 1_555 1_555
C8_5 C3_5 1_555 1_555
H2_6 C8_5 1_555 1_555
Ni7_2 O4_5 1_555 1_555
Ni6_2 O8_2 1_555 1_555
O4_5 C5_5 1_555 1_555
O8_2 C5_5 1_555 1_555
O14_4 Ni7_2 1_555 1_555
C6_5 C8_5 1_555 1_555
Ni6_2 O14_4 1_555 1_555
C1_5 C2_5 1_555 1_555
C4_5 C2_5 1_555 1_555
H1_6 C4_5 1_555 1_555
Ni4_3 O1_5 1_555 1_555
O1_5 C1_5 1_555 1_555
O6_3 C1_5 1_555 1_555
C7_5 C4_5 1_555 1_555
Ni3_3 O6_3 1_555 1_555
O14_2 C7_5 1_555 1_555
O12_4 Ni4_3 1_555 1_555
Ni3_3 O12_4 1_555 1_555
Ni3_3 O1_6 1_555 1_555
C1_6 C2_6 1_555 1_555
C2_6 C3_6 1_555 1_555
C3_6 O12_4 1_555 1_555
C4_6 C2_6 1_555 1_555
H1_8 C4_6 1_555 1_555
O7_3 C1_6 1_555 1_555
C5_6 C6_6 1_555 1_555
C6_6 C7_6 1_555 1_555
C7_6 C4_6 1_555 1_555
C8_6 C3_6 1_555 1_555
H2_7 C8_6 1_555 1_555
Ni6 O4_6 1_555 1_555
O4_6 C5_6 1_555 1_555
O9 C5_6 1_555 1_555
O8 Ni6 1_555 1_555
O10_5 C7_6 1_555 1_555
C6_6 C8_6 1_555 1_555
Ni7 O10_5 1_555 1_555
Ni4 O1_7 1_555 1_555
O12_5 Ni4 1_555 1_555
C1_7 C2_7 1_555 1_555
C2_7 C3_7 1_555 1_555
C3_7 O12 1_555 1_555
C4_7 C2_7 1_555 1_555
H1_10 C4_7 1_555 1_555
O6 C1_7 1_555 1_555
C5_7 C6_7 1_555 1_555
C6_7 C7_7 1_555 1_555
C7_7 C4_7 1_555 1_555
C8_7 C3_7 1_555 1_555
H2_8 C8_7 1_555 1_555
Ni7_3 O4_7 1_555 1_555
Ni3 O6 1_555 1_555
O4_7 C5_7 1_555 1_555
O8_3 C5_7 1_555 1_555
O14_3 C7_7 1_555 1_555
C6_7 C8_7 1_555 1_555
C1_8 C2_8 1_555 1_555
C2_8 C3_8 1_555 1_555
C3_8 O12_5 1_555 1_555
C4_8 C2_8 1_555 1_555
H1_11 C4_8 1_555 1_555
Ni3 O1_8 1_555 1_555
O1_8 C1_8 1_555 1_555
O7 C1_8 1_555 1_555
C5_8 C6_8 1_555 1_555
C6_8 C7_8 1_555 1_555
C7_8 C4_8 1_555 1_555
C8_8 C3_8 1_555 1_555
H2_9 C8_8 1_555 1_555
O9_2 C5_8 1_555 1_555
O14_4 C7_8 1_555 1_555
C6_8 C8_8 1_555 1_555
Ni6_2 O4_8 1_555 1_555
C1_9 C2_9 1_555 1_555
C2_9 C3_9 1_555 1_555
C3_9 O12_2 1_555 1_555
C4_9 C2_9 1_555 1_555
H1_12 C4_9 1_555 1_555
Ni4_2 O1_9 1_555 1_555
O1_9 C1_9 1_555 1_555
O6_2 C1_9 1_555 1_555
C5_9 C6_9 1_555 1_555
C6_9 C7_9 1_555 1_555
C7_9 C4_9 1_555 1_555
C8_9 C3_9 1_555 1_555
H2_11 C8_9 1_555 1_555
O8 C5_9 1_555 1_555
O14 C7_9 1_555 1_555
C6_9 C8_9 1_555 1_555
Ni7 O4_9 1_555 1_555

#END
