
###############################################################################
#
# This file contains modified crystal structure data generated from the
# MOF subset of the Cambridge Structural Database (CSD) v543 
# hosted by the Cambridge Crystallographic Data Centre (CCDC).
#
# This work is licensed under the Creative Commons
# Attribution-NonCommercial-ShareAlike 4.0 International License.
# To view a copy of this license, visit
# http://creativecommons.org/licenses/by-nc-sa/4.0/
# or send a letter to
# Creative Commons, PO Box 1866, Mountain View, CA 94042, USA.
#
# CIF created using the CSD Python API on 29 September 2022
# The structure has been converted into the P1 space group
# The structure has a 3D framework
# The original CSD entry NOMDUR is in the hexagonal crystal system
# The original CSD entry NOMDUR is in a Sohncke space group
# The framework has been calculated to contain at least 10.0% void space
# The void calculation uses a probe of radius 1.32A, grid spacing 0.4
#
###############################################################################

data_NOMDUR
_chemical_formula_moiety         '(C126 H54 In6 N6 O48)n'
_symmetry_cell_setting           triclinic
_symmetry_space_group_name_H-M   'P 1'
_symmetry_Int_Tables_number      1
_space_group_name_Hall           'P 1'
loop_
_symmetry_equiv_pos_site_id
_symmetry_equiv_pos_as_xyz
1 x,y,z
_cell_length_a                   27.6664(5)
_cell_length_b                   27.6664(5)
_cell_length_c                   9.2605(3)
_cell_angle_alpha                90
_cell_angle_beta                 90
_cell_angle_gamma                120
_cell_volume                     6138.61
loop_
_atom_site_label
_atom_site_type_symbol
_atom_site_fract_x
_atom_site_fract_y
_atom_site_fract_z
In1 In 0.79688(2) 0.55083(2) 0.47972(11)
C1 C 0.6964(4) 0.6005(3) 0.1429(12)
C3 C 0.6573(4) 0.6934(4) 0.3528(11)
C4 C 0.6007(5) 0.3412(4) 0.1703(15)
H1 H 0.5830 0.3028 0.1947
C5 C 0.7213(5) 0.4773(4) 0.299(2)
C6 C 0.6945(4) 0.6352(4) 0.2617(11)
C7 C 0.6531(4) 0.4540(4) 0.0943(12)
C8 C 0.7541(4) 0.6139(4) 0.4309(12)
C9 C 0.6832(5) 0.6994(4) 0.4823(14)
H2 H 0.6797 0.7210 0.5569
C10 C 0.7206(4) 0.6417(4) 0.3962(12)
C11 C 0.6763(4) 0.5133(4) 0.0610(12)
C12 C 0.5797(4) 0.3583(4) 0.0611(12)
C13 C 0.6211(4) 0.7177(4) 0.3302(11)
C14 C 0.6626(4) 0.6615(4) 0.2412(11)
H3 H 0.6444 0.6577 0.1514
C15 C 0.7130(6) 0.6228(5) 0.0037(14)
C16 C 0.6060(4) 0.4142(4) 0.0201(11)
C17 C 0.6470(6) 0.3791(4) 0.2453(17)
H6 H 0.6615 0.3671 0.3213
C18 C 0.7154(5) 0.6735(5) 0.5048(14)
H7 H 0.7336 0.6777 0.5947
C20 C 0.6728(5) 0.4361(4) 0.2084(15)
O1 O 0.5934(3) 0.7094(3) 0.2165(8)
O2 O 0.6155(3) 0.7455(3) 0.4308(8)
O3 O 0.4985(3) 0.2674(3) 0.0285(9)
O4 O 0.7490(3) 0.5918(3) 0.5532(8)
O6 O 0.7117(3) 0.4821(3) 0.4289(12)
O7 O 0.7692(4) 0.5045(4) 0.2470(12)
O8 O 0.7860(3) 0.6123(3) 0.3362(8)
N1 N 0.6784(3) 0.5469(3) 0.1719(9)
In3 In 0.55083(2) 0.75395(3) 0.31305(11)
O9 O 0.8840(4) 0.5934(3) 0.3832(8)
O10 O 0.8700(4) 0.6155(3) 0.5975(8)
O11 O 0.7689(4) 0.5015(3) 0.6952(9)
O12 O 0.8156(4) 0.4838(3) 0.5314(8)
C2 C 0.5283(4) 0.3169(4) 0.9831(13)
H4 H 0.7258 0.6612 0.9858
H5 H 0.5918 0.4252 0.9412
C19 C 0.6924(6) 0.5334(5) 0.9222(13)
H8 H 0.6909 0.5094 0.8469
C21 C 0.7106(7) 0.5887(5) 0.8950(16)
H9 H 0.7215 0.6030 0.8001
O5 O 0.5162(3) 0.3318(3) 0.8647(8)
In2 In 0.44917(2) 0.24605(3) 0.81305(11)
H9_2 H 0.1185 0.7215 0.9668
In2_2 In 0.20312(4) 0.44917(2) 0.97972(11)
C3_2 C 0.9639(6) 0.6573(4) 0.5195(11)
C9_2 C 0.9838(6) 0.6832(5) 0.6490(14)
H2_2 H 0.9587 0.6797 0.7236
C13_2 C 0.9034(6) 0.6211(4) 0.4969(11)
H3_2 H 0.9867 0.6444 0.3181
C1_2 C 0.3995(3) 0.0959(5) 0.4762(12)
C2_2 C 0.6831(4) 0.2114(6) 0.3164(13)
C4_2 C 0.6588(4) 0.2595(6) 0.5036(15)
H1_2 H 0.6972 0.2802 0.5280
C5_2 C 0.5227(4) 0.2440(6) 0.632(2)
C6_2 C 0.3648(4) 0.0593(6) 0.5950(11)
C7_2 C 0.5460(4) 0.1991(6) 0.4276(12)
C8_2 C 0.3861(4) 0.1402(6) 0.7642(12)
C10_2 C 0.3583(4) 0.0789(6) 0.7295(12)
C11_2 C 0.4867(4) 0.1630(6) 0.3943(12)
C12_2 C 0.6417(4) 0.2214(6) 0.3944(12)
C14_2 C 0.3385(4) 0.0011(6) 0.5745(11)
C15_2 C 0.3772(5) 0.0902(8) 0.3370(14)
H4_2 H 0.3388 0.0646 0.3191
C16_2 C 0.5858(4) 0.1918(6) 0.3534(11)
H5_2 H 0.5748 0.1666 0.2745
C17_2 C 0.6209(4) 0.2679(7) 0.5786(17)
H6_2 H 0.6329 0.2944 0.6546
C18_2 C 0.3265(5) 0.0419(7) 0.8381(14)
H7_2 H 0.3223 0.0559 0.9280
C19_2 C 0.4666(5) 0.1590(8) 0.2555(13)
H8_2 H 0.4906 0.1815 0.1802
C20_2 C 0.5639(4) 0.2367(6) 0.5417(15)
C21_2 C 0.4113(5) 0.1219(9) 0.2283(16)
H9_3 H 0.3970 0.1185 0.1334
O3_2 O 0.7326(3) 0.2311(4) 0.3618(9)
O4_2 O 0.4082(3) 0.1572(4) 0.8865(8)
O5_2 O 0.6682(3) 0.1844(4) 0.1980(8)
O6_2 O 0.5179(3) 0.2296(4) 0.7622(12)
O7_2 O 0.4955(4) 0.2647(6) 0.5803(12)
O8_2 O 0.3877(3) 0.1737(4) 0.6695(8)
N1_2 N 0.4531(3) 0.1315(4) 0.5052(9)
In2_3 In 0.75395(3) 0.20312(4) 0.14639(11)
O9_2 O 0.4066(3) 0.2906(5) 0.7165(8)
O10_2 O 0.3845(3) 0.2545(5) 0.9308(8)
C1_3 C 0.3036(4) 0.3995(3) 0.6429(12)
C2_3 C 0.4717(4) 0.6831(4) 0.4831(13)
C3_3 C 0.3427(4) 0.3066(4) 0.8528(11)
C4_3 C 0.3993(5) 0.6588(4) 0.6703(15)
H1_3 H 0.4170 0.6972 0.6947
C5_3 C 0.2787(5) 0.5227(4) 0.799(2)
C6_3 C 0.3055(4) 0.3648(4) 0.7617(11)
C7_3 C 0.3469(4) 0.5460(4) 0.5943(12)
C8_3 C 0.2459(4) 0.3861(4) 0.9309(12)
C9_3 C 0.3168(5) 0.3006(4) 0.9823(14)
C10_3 C 0.2794(4) 0.3583(4) 0.8962(12)
C11_3 C 0.3237(4) 0.4867(4) 0.5610(12)
C12_3 C 0.4203(4) 0.6417(4) 0.5611(12)
C13_3 C 0.3789(4) 0.2823(4) 0.8302(11)
C14_3 C 0.3374(4) 0.3385(4) 0.7412(11)
H3_3 H 0.3556 0.3423 0.6514
C15_3 C 0.2870(6) 0.3772(5) 0.5037(14)
H4_3 H 0.2742 0.3388 0.4858
C16_3 C 0.3940(4) 0.5858(4) 0.5201(11)
H5_3 H 0.4082 0.5748 0.4412
C17_3 C 0.3530(6) 0.6209(4) 0.7453(17)
H6_3 H 0.3385 0.6329 0.8213
C19_3 C 0.3076(6) 0.4666(5) 0.4222(13)
H8_3 H 0.3091 0.4906 0.3469
C20_3 C 0.3272(5) 0.5639(4) 0.7084(15)
C21_3 C 0.2894(7) 0.4113(5) 0.3950(16)
H9_4 H 0.2785 0.3970 0.3001
O3_3 O 0.5015(3) 0.7326(3) 0.5285(9)
O5_3 O 0.4838(3) 0.6682(3) 0.3647(8)
O6_3 O 0.2883(3) 0.5179(3) 0.9289(12)
O7_3 O 0.2308(4) 0.4955(4) 0.7470(12)
O8_3 O 0.2140(3) 0.3877(3) 0.8362(8)
N1_3 N 0.3216(3) 0.4531(3) 0.6719(9)
O9_3 O 0.1160(4) 0.4066(3) 0.8832(8)
C13_4 C 0.0966(6) 0.3789(4) 0.9969(11)
H3_4 H 0.0133 0.3556 0.8181
C8_4 C 0.8598(6) 0.2459(4) 0.0976(12)
C10_4 C 0.9211(6) 0.2794(4) 0.0629(12)
C18_3 C 0.9581(7) 0.2846(5) 0.1715(14)
H7_3 H 0.9441 0.2664 0.2614
O4_3 O 0.8428(4) 0.2510(3) 0.2199(8)
O6_4 O 0.7704(4) 0.2883(3) 0.0956(12)
O8_4 O 0.8263(4) 0.2140(3) 0.0029(8)
O9_4 O 0.7094(5) 0.1160(4) 0.0498(8)
O10_3 O 0.7455(5) 0.1300(4) 0.2641(8)
C1_4 C 0.9041(5) 0.3036(4) 0.8096(12)
C2_4 C 0.7886(6) 0.4717(4) 0.6498(13)
C4_4 C 0.7405(6) 0.3993(5) 0.8370(15)
H1_4 H 0.7198 0.4170 0.8614
C5_4 C 0.7560(6) 0.2787(5) 0.966(2)
C6_4 C 0.9407(6) 0.3055(4) 0.9284(11)
C7_4 C 0.8009(6) 0.3469(4) 0.7610(12)
C11_4 C 0.8370(6) 0.3237(4) 0.7277(12)
C12_4 C 0.7786(6) 0.4203(4) 0.7278(12)
C14_4 C 0.9989(6) 0.3374(4) 0.9079(11)
C15_4 C 0.9098(8) 0.2870(6) 0.6704(14)
H4_4 H 0.9354 0.2742 0.6525
C16_4 C 0.8082(6) 0.3940(4) 0.6868(11)
H5_4 H 0.8334 0.4082 0.6079
C17_4 C 0.7321(7) 0.3530(6) 0.9120(17)
H6_4 H 0.7056 0.3385 0.9880
C19_4 C 0.8410(8) 0.3076(6) 0.5889(13)
H8_4 H 0.8185 0.3091 0.5136
C20_4 C 0.7633(6) 0.3272(5) 0.8751(15)
C21_4 C 0.8781(9) 0.2894(7) 0.5617(16)
H9_5 H 0.8815 0.2785 0.4668
O7_4 O 0.7353(6) 0.2308(4) 0.9137(12)
N1_4 N 0.8685(4) 0.3216(3) 0.8386(9)
C3_4 C 0.6934(4) 0.0361(6) 0.1861(11)
C9_4 C 0.6994(4) 0.0162(6) 0.3156(14)
H2_3 H 0.7210 0.0413 0.3902
C13_5 C 0.7177(4) 0.0966(6) 0.1635(11)
C4_5 C 0.3412(4) 0.7405(6) 0.0036(15)
H1_5 H 0.3028 0.7198 0.0280
C5_5 C 0.4773(4) 0.7560(6) 0.132(2)
C6_5 C 0.6352(4) 0.9407(6) 0.0950(11)
C8_5 C 0.6139(4) 0.8598(6) 0.2642(12)
C10_5 C 0.6417(4) 0.9211(6) 0.2295(12)
C14_5 C 0.6615(4) 0.9989(6) 0.0745(11)
C17_5 C 0.3791(4) 0.7321(7) 0.0786(17)
H6_5 H 0.3671 0.7056 0.1546
C18_4 C 0.6735(5) 0.9581(7) 0.3381(14)
H7_4 H 0.6777 0.9441 0.4280
C20_5 C 0.4361(4) 0.7633(6) 0.0417(15)
O4_4 O 0.5918(3) 0.8428(4) 0.3865(8)
O6_5 O 0.4821(3) 0.7704(4) 0.2622(12)
O7_5 O 0.5045(4) 0.7353(6) 0.0803(12)
O8_5 O 0.6123(3) 0.8263(4) 0.1695(8)
N1_5 N 0.5469(3) 0.8685(4) 0.0052(9)
In1_2 In 0.24605(3) 0.79688(2) 0.64639(11)
C1_5 C 0.0959(5) 0.6964(4) 0.3096(12)
C2_5 C 0.2114(6) 0.5283(4) 0.1498(13)
C4_6 C 0.2595(6) 0.6007(5) 0.3370(15)
H1_6 H 0.2802 0.5830 0.3614
C5_6 C 0.2440(6) 0.7213(5) 0.466(2)
C6_6 C 0.0593(6) 0.6945(4) 0.4284(11)
C7_5 C 0.1991(6) 0.6531(4) 0.2610(12)
C8_6 C 0.1402(6) 0.7541(4) 0.5976(12)
C10_6 C 0.0789(6) 0.7206(4) 0.5629(12)
C11_5 C 0.1630(6) 0.6763(4) 0.2277(12)
C12_5 C 0.2214(6) 0.5797(4) 0.2278(12)
C14_6 C 0.0011(6) 0.6626(4) 0.4079(11)
C15_5 C 0.0902(8) 0.7130(6) 0.1704(14)
H4_5 H 0.0646 0.7258 0.1525
C16_5 C 0.1918(6) 0.6060(4) 0.1868(11)
H5_5 H 0.1666 0.5918 0.1079
C17_6 C 0.2679(7) 0.6470(6) 0.4120(17)
H6_6 H 0.2944 0.6615 0.4880
C18_5 C 0.0419(7) 0.7154(5) 0.6715(14)
H7_5 H 0.0559 0.7336 0.7614
C19_5 C 0.1590(8) 0.6924(6) 0.0889(13)
H8_5 H 0.1815 0.6909 0.0136
C20_6 C 0.2367(6) 0.6728(5) 0.3751(15)
C21_5 C 0.1219(9) 0.7106(7) 0.0617(16)
O3_4 O 0.2311(4) 0.4985(3) 0.1952(9)
O4_5 O 0.1572(4) 0.7490(3) 0.7199(8)
O5_4 O 0.1844(4) 0.5162(3) 0.0314(8)
O6_6 O 0.2296(4) 0.7117(3) 0.5956(12)
O7_6 O 0.2647(6) 0.7692(4) 0.4137(12)
O8_6 O 0.1737(4) 0.7860(3) 0.5029(8)
N1_6 N 0.1315(4) 0.6784(3) 0.3386(9)
O9_5 O 0.2906(5) 0.8840(4) 0.5498(8)
O10_4 O 0.2545(5) 0.8700(4) 0.7641(8)
O11_2 O 0.2674(5) 0.7689(4) 0.8618(9)
O12_2 O 0.3318(5) 0.8156(4) 0.6980(8)
C3_5 C 0.3066(4) 0.9639(6) 0.6861(11)
C9_5 C 0.3006(4) 0.9838(6) 0.8156(14)
H2_4 H 0.2790 0.9587 0.8902
C13_6 C 0.2823(4) 0.9034(6) 0.6635(11)
H3_5 H 0.3423 0.9867 0.4847
H2_5 H 0.3203 0.2790 0.0569
C18_6 C 0.2846(5) 0.3265(5) 0.0048(14)
H7_6 H 0.2664 0.3223 0.0947
O4_6 O 0.2510(3) 0.4082(3) 0.0532(8)
O10_5 O 0.1300(4) 0.3845(3) 0.0975(8)
C3_6 C 0.0361(6) 0.3427(4) 0.0195(11)
C9_6 C 0.0162(6) 0.3168(5) 0.1490(14)
H2_6 H 0.0413 0.3203 0.2236
C1_6 C 0.6005(3) 0.9041(5) 0.9762(12)
C2_6 C 0.3169(4) 0.7886(6) 0.8164(13)
C7_6 C 0.4540(4) 0.8009(6) 0.9276(12)
C11_6 C 0.5133(4) 0.8370(6) 0.8943(12)
C12_6 C 0.3583(4) 0.7786(6) 0.8944(12)
C15_6 C 0.6228(5) 0.9098(8) 0.8370(14)
H4_6 H 0.6612 0.9354 0.8191
C16_6 C 0.4142(4) 0.8082(6) 0.8534(11)
H5_6 H 0.4252 0.8334 0.7745
C19_6 C 0.5334(5) 0.8410(8) 0.7555(13)
H8_6 H 0.5094 0.8185 0.6802
C21_6 C 0.5887(5) 0.8781(9) 0.7283(16)
H9_6 H 0.6030 0.8815 0.6334
H3_6 H 0.6577 0.0133 0.9847
loop_
_geom_bond_atom_site_label_1
_geom_bond_atom_site_label_2
_geom_bond_site_symmetry_1
_geom_bond_site_symmetry_2
In1 O4 1_555 1_555
C1 C6 1_555 1_555
C3 C9 1_555 1_555
C4 H1 1_555 1_555
C5 C20 1_555 1_555
C6 C10 1_555 1_555
C7 C11 1_555 1_555
C8 C10 1_555 1_555
C9 H2 1_555 1_555
C10 C18 1_555 1_555
C12 C4 1_555 1_555
C13 C3 1_555 1_555
C14 C3 1_555 1_555
H3 C14 1_555 1_555
C15 C1 1_555 1_555
C16 C7 1_555 1_555
C17 C4 1_555 1_555
H6 C17 1_555 1_555
C18 C9 1_555 1_555
H7 C18 1_555 1_555
C20 C7 1_555 1_555
O1 C13 1_555 1_555
O2 C13 1_555 1_555
O4 C8 1_555 1_555
O6 In1 1_555 1_555
O7 In1 1_555 1_555
O8 In1 1_555 1_555
N1 C1 1_555 1_555
In3 O1 1_555 1_555
O9 In1 1_555 1_555
O10 In1 1_555 1_555
O11 In1 1_555 1_555
O12 In1 1_555 1_555
C5 O6 1_555 1_555
C5 O7 1_555 1_555
C6 C14 1_555 1_555
C8 O8 1_555 1_555
C11 N1 1_555 1_555
C12 C16 1_555 1_555
C17 C20 1_555 1_555
O2 In3 1_555 1_555
C19 H8 1_555 1_555
H9 C21 1_555 1_555
O5 C2 1_555 1_555
C19 C21 1_555 1_555
O5 In2 1_555 1_555
C3_2 C9_2 1_555 1_555
C9_2 H2_2 1_555 1_555
C13_2 C3_2 1_555 1_555
O9 C13_2 1_555 1_555
O10 C13_2 1_555 1_555
In2 O4_2 1_555 1_555
C1_2 C6_2 1_555 1_555
C2_2 C12_2 1_555 1_555
C4_2 H1_2 1_555 1_555
C5_2 C20_2 1_555 1_555
C6_2 C10_2 1_555 1_555
C7_2 C11_2 1_555 1_555
C8_2 C10_2 1_555 1_555
C10_2 C18_2 1_555 1_555
C11_2 C19_2 1_555 1_555
C12_2 C4_2 1_555 1_555
C15_2 C1_2 1_555 1_555
H4_2 C15_2 1_555 1_555
C16_2 C7_2 1_555 1_555
H5_2 C16_2 1_555 1_555
C17_2 C4_2 1_555 1_555
H6_2 C17_2 1_555 1_555
H7_2 C18_2 1_555 1_555
C19_2 H8_2 1_555 1_555
C20_2 C7_2 1_555 1_555
C21_2 C15_2 1_555 1_555
H9_3 C21_2 1_555 1_555
O3_2 C2_2 1_555 1_555
O4_2 C8_2 1_555 1_555
O5_2 C2_2 1_555 1_555
O6_2 In2 1_555 1_555
O7_2 In2 1_555 1_555
O8_2 In2 1_555 1_555
N1_2 C1_2 1_555 1_555
In2_3 O3_2 1_555 1_555
O9_2 In2 1_555 1_555
O10_2 In2 1_555 1_555
C5_2 O6_2 1_555 1_555
C5_2 O7_2 1_555 1_555
C6_2 C14_2 1_555 1_555
C8_2 O8_2 1_555 1_555
C11_2 N1_2 1_555 1_555
C12_2 C16_2 1_555 1_555
C17_2 C20_2 1_555 1_555
C19_2 C21_2 1_555 1_555
O5_2 In2_3 1_555 1_555
C1_3 C6_3 1_555 1_555
C2_3 C12_3 1_555 1_555
C3_3 C9_3 1_555 1_555
C4_3 H1_3 1_555 1_555
C5_3 C20_3 1_555 1_555
C6_3 C10_3 1_555 1_555
C7_3 C11_3 1_555 1_555
C8_3 C10_3 1_555 1_555
C11_3 C19_3 1_555 1_555
C12_3 C4_3 1_555 1_555
C13_3 C3_3 1_555 1_555
C14_3 C3_3 1_555 1_555
H3_3 C14_3 1_555 1_555
C15_3 C1_3 1_555 1_555
H4_3 C15_3 1_555 1_555
C16_3 C7_3 1_555 1_555
H5_3 C16_3 1_555 1_555
C17_3 C4_3 1_555 1_555
H6_3 C17_3 1_555 1_555
C19_3 H8_3 1_555 1_555
C20_3 C7_3 1_555 1_555
C21_3 C15_3 1_555 1_555
H9_4 C21_3 1_555 1_555
O9_2 C13_3 1_555 1_555
O10_2 C13_3 1_555 1_555
O3_3 C2_3 1_555 1_555
O5_3 C2_3 1_555 1_555
O6_3 In2_2 1_555 1_555
O7_3 In2_2 1_555 1_555
O8_3 In2_2 1_555 1_555
N1_3 C1_3 1_555 1_555
In3 O3_3 1_555 1_555
O9_3 In2_2 1_555 1_555
C5_3 O6_3 1_555 1_555
C5_3 O7_3 1_555 1_555
C6_3 C14_3 1_555 1_555
C8_3 O8_3 1_555 1_555
C11_3 N1_3 1_555 1_555
C12_3 C16_3 1_555 1_555
C17_3 C20_3 1_555 1_555
C19_3 C21_3 1_555 1_555
O5_3 In3 1_555 1_555
O9_3 C13_4 1_555 1_555
In2_3 O4_3 1_555 1_555
C8_4 C10_4 1_555 1_555
C10_4 C18_3 1_555 1_555
H7_3 C18_3 1_555 1_555
O4_3 C8_4 1_555 1_555
O6_4 In2_3 1_555 1_555
O8_4 In2_3 1_555 1_555
O9_4 In2_3 1_555 1_555
O10_3 In2_3 1_555 1_555
C8_4 O8_4 1_555 1_555
C1_4 C6_4 1_555 1_555
C2_4 C12_4 1_555 1_555
C4_4 H1_4 1_555 1_555
C5_4 C20_4 1_555 1_555
C7_4 C11_4 1_555 1_555
C11_4 C19_4 1_555 1_555
C12_4 C4_4 1_555 1_555
C15_4 C1_4 1_555 1_555
H4_4 C15_4 1_555 1_555
C16_4 C7_4 1_555 1_555
H5_4 C16_4 1_555 1_555
C17_4 C4_4 1_555 1_555
H6_4 C17_4 1_555 1_555
C19_4 H8_4 1_555 1_555
C20_4 C7_4 1_555 1_555
C21_4 C15_4 1_555 1_555
H9_5 C21_4 1_555 1_555
O11 C2_4 1_555 1_555
O12 C2_4 1_555 1_555
N1_4 C1_4 1_555 1_555
C5_4 O7_4 1_555 1_555
C6_4 C14_4 1_555 1_555
C11_4 N1_4 1_555 1_555
C12_4 C16_4 1_555 1_555
C17_4 C20_4 1_555 1_555
C19_4 C21_4 1_555 1_555
C3_4 C9_4 1_555 1_555
C9_4 H2_3 1_555 1_555
C13_5 C3_4 1_555 1_555
O9_4 C13_5 1_555 1_555
O10_3 C13_5 1_555 1_555
In3 O4_4 1_555 1_555
C4_5 H1_5 1_555 1_555
C5_5 C20_5 1_555 1_555
C6_5 C10_5 1_555 1_555
C8_5 C10_5 1_555 1_555
C10_5 C18_4 1_555 1_555
C17_5 C4_5 1_555 1_555
H6_5 C17_5 1_555 1_555
H7_4 C18_4 1_555 1_555
O4_4 C8_5 1_555 1_555
O6_5 In3 1_555 1_555
O7_5 In3 1_555 1_555
O8_5 In3 1_555 1_555
C5_5 O6_5 1_555 1_555
C5_5 O7_5 1_555 1_555
C6_5 C14_5 1_555 1_555
C8_5 O8_5 1_555 1_555
C17_5 C20_5 1_555 1_555
In1_2 O4_5 1_555 1_555
C1_5 C6_6 1_555 1_555
C2_5 C12_5 1_555 1_555
C4_6 H1_6 1_555 1_555
C5_6 C20_6 1_555 1_555
C6_6 C10_6 1_555 1_555
C7_5 C11_5 1_555 1_555
C8_6 C10_6 1_555 1_555
C10_6 C18_5 1_555 1_555
C11_5 C19_5 1_555 1_555
C12_5 C4_6 1_555 1_555
C15_5 C1_5 1_555 1_555
H4_5 C15_5 1_555 1_555
C16_5 C7_5 1_555 1_555
H5_5 C16_5 1_555 1_555
C17_6 C4_6 1_555 1_555
H6_6 C17_6 1_555 1_555
H7_5 C18_5 1_555 1_555
C19_5 H8_5 1_555 1_555
C20_6 C7_5 1_555 1_555
C21_5 C15_5 1_555 1_555
O3_4 C2_5 1_555 1_555
O4_5 C8_6 1_555 1_555
O5_4 C2_5 1_555 1_555
O6_6 In1_2 1_555 1_555
O7_6 In1_2 1_555 1_555
O8_6 In1_2 1_555 1_555
N1_6 C1_5 1_555 1_555
O9_5 In1_2 1_555 1_555
O10_4 In1_2 1_555 1_555
O11_2 In1_2 1_555 1_555
O12_2 In1_2 1_555 1_555
C5_6 O6_6 1_555 1_555
C5_6 O7_6 1_555 1_555
C6_6 C14_6 1_555 1_555
C8_6 O8_6 1_555 1_555
C11_5 N1_6 1_555 1_555
C12_5 C16_5 1_555 1_555
C17_6 C20_6 1_555 1_555
C19_5 C21_5 1_555 1_555
C3_5 C9_5 1_555 1_555
C9_5 H2_4 1_555 1_555
C13_6 C3_5 1_555 1_555
O9_5 C13_6 1_555 1_555
O10_4 C13_6 1_555 1_555
H7_6 C18_6 1_555 1_555
C3_6 C9_6 1_555 1_555
C9_6 H2_6 1_555 1_555
C2_6 C12_6 1_555 1_555
C7_6 C11_6 1_555 1_555
C11_6 C19_6 1_555 1_555
C15_6 C1_6 1_555 1_555
H4_6 C15_6 1_555 1_555
C16_6 C7_6 1_555 1_555
H5_6 C16_6 1_555 1_555
C19_6 H8_6 1_555 1_555
C21_6 C15_6 1_555 1_555
H9_6 C21_6 1_555 1_555
O11_2 C2_6 1_555 1_555
O12_2 C2_6 1_555 1_555
C12_6 C16_6 1_555 1_555
C19_6 C21_6 1_555 1_555

#END
