
###############################################################################
#
# This file contains modified crystal structure data generated from the
# MOF subset of the Cambridge Structural Database (CSD) v543 
# hosted by the Cambridge Crystallographic Data Centre (CCDC).
#
# This work is licensed under the Creative Commons
# Attribution-NonCommercial-ShareAlike 4.0 International License.
# To view a copy of this license, visit
# http://creativecommons.org/licenses/by-nc-sa/4.0/
# or send a letter to
# Creative Commons, PO Box 1866, Mountain View, CA 94042, USA.
#
# CIF created using the CSD Python API on 29 September 2022
# The structure has been converted into the P1 space group
# The structure has a 3D framework
# The original CSD entry NOMDIF is in the hexagonal crystal system
# The original CSD entry NOMDIF is in a Sohncke space group
# The framework has been calculated to contain at least 10.0% void space
# The void calculation uses a probe of radius 1.32A, grid spacing 0.4
#
###############################################################################

data_NOMDIF
_chemical_formula_moiety         '(C126 H54 In6 N6 O47)n'
_symmetry_cell_setting           triclinic
_symmetry_space_group_name_H-M   'P 1'
_symmetry_Int_Tables_number      1
_space_group_name_Hall           'P 1'
loop_
_symmetry_equiv_pos_site_id
_symmetry_equiv_pos_as_xyz
1 x,y,z
_cell_length_a                   27.6459(3)
_cell_length_b                   27.6459(3)
_cell_length_c                   9.28990(10)
_cell_angle_alpha                90
_cell_angle_beta                 90
_cell_angle_gamma                120
_cell_volume                     6148.98
loop_
_atom_site_label
_atom_site_type_symbol
_atom_site_fract_x
_atom_site_fract_y
_atom_site_fract_z
C1 C 0.4703(2) 0.68285(19) 0.0783(7)
C2 C 0.4195(2) 0.6425(2) 0.0007(6)
C7 C 0.39262(19) 0.58682(19) 0.0405(5)
H3 H 0.4059 0.5757 0.1210
C10 C 0.3052(3) 0.4664(2) 0.1380(7)
H4 H 0.3031 0.4891 0.2117
C11 C 0.29151(9) 0.41171(8) 0.1633(2)
H5 H 0.2853 0.3983 0.2595
O3 O 0.50077(9) 0.73278(8) 0.0307(2)
C12 C 0.2867(3) 0.3769(2) 0.0563(7)
H6 H 0.2730 0.3383 0.0740
O8 O 0.48339(16) 0.66764(14) 0.1934(4)
In2 In 0.550626(12) 0.753078(16) 0.24874(5)
In1 In 0.202452(11) 0.449374(12) 0.58207(5)
N1 N 0.31995(15) 0.45407(16) 0.8893(5)
C3 C 0.3997(2) 0.6599(2) 0.8865(7)
H1 H 0.4180 0.6980 0.8587
C4 C 0.3526(3) 0.6205(2) 0.8138(8)
H2 H 0.3382 0.6320 0.7365
C5 C 0.3260(2) 0.5643(2) 0.8516(7)
C6 C 0.3457(2) 0.5463(2) 0.9638(6)
C8 C 0.2770(2) 0.5226(2) 0.7624(8)
C9 C 0.3222(2) 0.4865(2) 0.9983(6)
O1 O 0.21187(9) 0.38818(8) 0.7262(2)
O2 O 0.25277(9) 0.40868(8) 0.5045(2)
C13 C 0.30287(19) 0.39959(19) 0.9164(6)
C14 C 0.30498(19) 0.3653(2) 0.7973(6)
C15 C 0.2796(2) 0.35973(19) 0.6628(6)
C16 C 0.2455(2) 0.3878(2) 0.6307(6)
C17 C 0.2844(2) 0.3272(2) 0.5550(6)
H7 H 0.2664 0.3232 0.4650
C18 C 0.3155(3) 0.3005(2) 0.5785(7)
H8 H 0.3180 0.2779 0.5052
C19 C 0.3425(2) 0.3072(2) 0.7082(6)
C20 C 0.3375(2) 0.33941(18) 0.8189(5)
H9 H 0.3560 0.3438 0.9081
O4 O 0.40681(14) 0.29197(15) 0.8464(4)
C21 C 0.3795(2) 0.28333(19) 0.7306(6)
O5 O 0.38471(16) 0.25648(15) 0.6294(4)
O6 O 0.22927(16) 0.49620(17) 0.8138(6)
O7 O 0.28721(17) 0.51818(16) 0.6333(5)
In3 In 0.449374(12) 0.246922(16) 0.74874(5)
O9 O 0.23201(12) 0.49923(9) 0.3640(2)
O10 O 0.11484(21) 0.40681(14) 0.6797(4)
O11 O 0.12823(22) 0.38471(16) 0.4627(4)
O12 O 0.18425(21) 0.51661(16) 0.5267(4)
C18_2 C 0.0150(4) 0.3155(3) 0.4118(7)
H8_2 H 0.0401 0.3180 0.3385
C19_2 C 0.0353(3) 0.3425(2) 0.5415(6)
H9_2 H 0.0122 0.3560 0.7414
C21_2 C 0.09617(28) 0.3795(2) 0.5639(6)
H4_2 H 0.8140 0.3031 0.0450
H5_2 H 0.8870 0.2853 0.0928
O8_2 O 0.81575(21) 0.48339(16) 0.0267(4)
In2_2 In 0.797548(20) 0.550626(12) 0.08207(5)
N1_2 N 0.54593(16) 0.86588(22) 0.5560(5)
C1_2 C 0.31715(19) 0.78745(28) 0.7450(7)
C2_2 C 0.3575(2) 0.7770(3) 0.6674(6)
C3_2 C 0.3401(2) 0.7398(3) 0.5532(7)
H1_2 H 0.3020 0.7200 0.5254
C4_2 C 0.3795(2) 0.7321(4) 0.4805(8)
H2_2 H 0.3680 0.7062 0.4032
C5_2 C 0.4357(2) 0.7617(3) 0.5183(7)
C6_2 C 0.4537(2) 0.7994(3) 0.6305(6)
C7_2 C 0.41318(19) 0.80580(27) 0.7072(5)
H3_2 H 0.4243 0.8302 0.7877
C8_2 C 0.4774(2) 0.7544(3) 0.4291(8)
C9_2 C 0.5135(2) 0.8357(3) 0.6650(6)
C10_2 C 0.5336(2) 0.8388(4) 0.8047(7)
H4_3 H 0.5109 0.8140 0.8784
C11_2 C 0.58829(8) 0.87980(12) 0.8300(2)
H5_3 H 0.6017 0.8870 0.9262
O1_2 O 0.61182(8) 0.82369(12) 0.3929(2)
O2_2 O 0.59132(8) 0.84409(12) 0.1712(2)
O3_2 O 0.26722(8) 0.76799(12) 0.6974(2)
C12_2 C 0.6231(2) 0.9098(4) 0.7230(7)
H6_2 H 0.6617 0.9347 0.7407
C13_2 C 0.60041(19) 0.90328(27) 0.5831(6)
C14_2 C 0.6347(2) 0.93968(28) 0.4640(6)
C15_2 C 0.64027(19) 0.91987(28) 0.3295(6)
C16_2 C 0.6122(2) 0.8577(3) 0.2974(6)
C17_2 C 0.6728(2) 0.9572(3) 0.2217(6)
H7_2 H 0.6768 0.9432 0.1317
C20_2 C 0.66059(18) 0.99809(27) 0.4856(5)
O6_2 O 0.50380(17) 0.73307(23) 0.4805(6)
O7_2 O 0.48182(16) 0.76903(23) 0.3000(5)
O8_3 O 0.33236(14) 0.81575(21) 0.8601(4)
In2_3 In 0.246922(16) 0.797548(20) 0.91540(5)
O10_2 O 0.59319(14) 0.70803(25) 0.3464(4)
O11_2 O 0.61529(16) 0.74352(27) 0.1294(4)
N1_3 N 0.68005(15) 0.54593(16) 0.3893(5)
C1_3 C 0.5297(2) 0.31715(19) 0.5783(7)
C2_3 C 0.5805(2) 0.3575(2) 0.5007(6)
C3_3 C 0.6003(2) 0.3401(2) 0.3865(7)
H1_3 H 0.5820 0.3020 0.3587
C4_3 C 0.6474(3) 0.3795(2) 0.3138(8)
H2_3 H 0.6618 0.3680 0.2365
C5_3 C 0.6740(2) 0.4357(2) 0.3516(7)
C6_3 C 0.6543(2) 0.4537(2) 0.4638(6)
C7_3 C 0.60738(19) 0.41318(19) 0.5405(5)
H3_3 H 0.5941 0.4243 0.6210
C8_3 C 0.7230(2) 0.4774(2) 0.2624(8)
C9_3 C 0.6778(2) 0.5135(2) 0.4983(6)
C10_3 C 0.6948(3) 0.5336(2) 0.6380(7)
H4_4 H 0.6969 0.5109 0.7117
C11_3 C 0.70849(9) 0.58829(8) 0.6633(2)
H5_4 H 0.7147 0.6017 0.7595
O1_3 O 0.78813(9) 0.61182(8) 0.2262(2)
O2_3 O 0.74723(9) 0.59132(8) 0.0045(2)
O3_3 O 0.49923(9) 0.26722(8) 0.5307(2)
C12_3 C 0.7133(3) 0.6231(2) 0.5563(7)
H6_3 H 0.7270 0.6617 0.5740
C13_3 C 0.69713(19) 0.60041(19) 0.4164(6)
C14_3 C 0.69502(19) 0.6347(2) 0.2973(6)
C15_3 C 0.7204(2) 0.64027(19) 0.1628(6)
C16_3 C 0.7545(2) 0.6122(2) 0.1307(6)
C17_3 C 0.7156(2) 0.6728(2) 0.0550(6)
C18_3 C 0.6845(3) 0.6995(2) 0.0785(7)
H8_3 H 0.6820 0.7221 0.0052
C19_3 C 0.6575(2) 0.6928(2) 0.2082(6)
C20_3 C 0.6625(2) 0.66059(18) 0.3189(5)
H9_3 H 0.6440 0.6562 0.4081
C21_3 C 0.6205(2) 0.71667(19) 0.2306(6)
O6_3 O 0.77073(16) 0.50380(17) 0.3138(6)
O7_3 O 0.71279(17) 0.48182(16) 0.1333(5)
O8_4 O 0.51661(16) 0.33236(14) 0.6934(4)
O10_3 O 0.88516(21) 0.59319(14) 0.1797(4)
N1_4 N 0.13412(22) 0.68005(15) 0.2226(5)
C1_4 C 0.21255(28) 0.5297(2) 0.4116(7)
C2_4 C 0.2230(3) 0.5805(2) 0.3340(6)
C3_4 C 0.2602(3) 0.6003(2) 0.2198(7)
H1_4 H 0.2800 0.5820 0.1920
C4_4 C 0.2679(4) 0.6474(3) 0.1471(8)
H2_4 H 0.2938 0.6618 0.0698
C5_4 C 0.2383(3) 0.6740(2) 0.1849(7)
C6_4 C 0.2006(3) 0.6543(2) 0.2971(6)
C7_4 C 0.19420(27) 0.60738(19) 0.3738(5)
H3_4 H 0.1698 0.5941 0.4543
C8_4 C 0.2456(3) 0.7230(2) 0.0957(8)
C9_4 C 0.1643(3) 0.6778(2) 0.3316(6)
C10_4 C 0.1612(4) 0.6948(3) 0.4713(7)
H4_5 H 0.1860 0.6969 0.5450
C11_4 C 0.12020(12) 0.70849(9) 0.4966(2)
H5_5 H 0.1130 0.7147 0.5928
O1_4 O 0.17631(12) 0.78813(9) 0.0595(2)
C12_4 C 0.0902(4) 0.7133(3) 0.3896(7)
H6_4 H 0.0653 0.7270 0.4073
C13_4 C 0.09672(27) 0.69713(19) 0.2497(6)
C14_4 C 0.06032(28) 0.69502(19) 0.1306(6)
C20_4 C 0.00191(27) 0.6625(2) 0.1522(5)
O6_4 O 0.26693(23) 0.77073(16) 0.1471(6)
O10_4 O 0.29197(25) 0.88516(21) 0.0131(4)
O2_4 O 0.15591(12) 0.74723(9) 0.8378(2)
C15_4 C 0.08013(28) 0.7204(2) 0.9961(6)
C16_4 C 0.1423(3) 0.7545(2) 0.9640(6)
C17_4 C 0.0428(3) 0.7156(2) 0.8883(6)
H7_3 H 0.0568 0.7336 0.7983
O7_4 O 0.23097(23) 0.71279(17) 0.9666(5)
O11_3 O 0.25648(27) 0.87177(22) 0.7961(4)
C19_4 C 0.9647(3) 0.6575(2) 0.0415(6)
H9_4 H 0.9878 0.6440 0.2414
C21_4 C 0.90383(28) 0.6205(2) 0.0639(6)
C4_5 C 0.6205(2) 0.2679(4) 0.9805(8)
H2_5 H 0.6320 0.2938 0.9032
C8_5 C 0.5226(2) 0.2456(3) 0.9291(8)
O1_5 O 0.38818(8) 0.17631(12) 0.8929(2)
O2_5 O 0.40868(8) 0.15591(12) 0.6712(2)
C14_5 C 0.3653(2) 0.06032(28) 0.9640(6)
C15_5 C 0.35973(19) 0.08013(28) 0.8295(6)
C16_5 C 0.3878(2) 0.1423(3) 0.7974(6)
C17_5 C 0.3272(2) 0.0428(3) 0.7217(6)
H7_4 H 0.3232 0.0568 0.6317
C20_5 C 0.33941(18) 0.00191(27) 0.9856(5)
O6_5 O 0.49620(17) 0.26693(23) 0.9805(6)
O7_5 O 0.51818(16) 0.23097(23) 0.8000(5)
H9_5 H 0.3438 0.9878 0.0748
C18_4 C 0.3005(2) 0.9850(4) 0.7452(7)
H8_4 H 0.2779 0.9599 0.6719
C19_5 C 0.3072(2) 0.9647(3) 0.8749(6)
C21_5 C 0.28333(19) 0.90383(28) 0.8973(6)
In1_2 In 0.753078(16) 0.202452(11) 0.41540(5)
N1_5 N 0.86588(22) 0.31995(15) 0.7226(5)
C1_5 C 0.78745(28) 0.4703(2) 0.9116(7)
C2_5 C 0.7770(3) 0.4195(2) 0.8340(6)
C3_5 C 0.7398(3) 0.3997(2) 0.7198(7)
H1_5 H 0.7200 0.4180 0.6920
C4_6 C 0.7321(4) 0.3526(3) 0.6471(8)
H2_6 H 0.7062 0.3382 0.5698
C5_5 C 0.7617(3) 0.3260(2) 0.6849(7)
C6_5 C 0.7994(3) 0.3457(2) 0.7971(6)
C7_5 C 0.80580(27) 0.39262(19) 0.8738(5)
H3_5 H 0.8302 0.4059 0.9543
C8_6 C 0.7544(3) 0.2770(2) 0.5957(8)
C9_5 C 0.8357(3) 0.3222(2) 0.8316(6)
C10_5 C 0.8388(4) 0.3052(3) 0.9713(7)
C11_5 C 0.87980(12) 0.29151(9) 0.9966(2)
O1_6 O 0.82369(12) 0.21187(9) 0.5595(2)
O2_6 O 0.84409(12) 0.25277(9) 0.3378(2)
O3_4 O 0.76799(12) 0.50077(9) 0.8640(2)
C12_5 C 0.9098(4) 0.2867(3) 0.8896(7)
H6_5 H 0.9347 0.2730 0.9073
C13_5 C 0.90328(27) 0.30287(19) 0.7497(6)
C14_6 C 0.93968(28) 0.30498(19) 0.6306(6)
C15_6 C 0.91987(28) 0.2796(2) 0.4961(6)
C16_6 C 0.8577(3) 0.2455(2) 0.4640(6)
C17_6 C 0.9572(3) 0.2844(2) 0.3883(6)
H7_5 H 0.9432 0.2664 0.2983
C20_6 C 0.99809(27) 0.3375(2) 0.6522(5)
O6_6 O 0.73307(23) 0.22927(16) 0.6471(6)
O7_6 O 0.76903(23) 0.28721(17) 0.4666(5)
O9_2 O 0.73278(15) 0.23201(12) 0.1974(2)
O10_5 O 0.70803(25) 0.11484(21) 0.5131(4)
O11_4 O 0.74352(27) 0.12823(22) 0.2961(4)
O12_2 O 0.66764(26) 0.18425(21) 0.3601(4)
C18_5 C 0.6995(2) 0.0150(4) 0.2452(7)
H8_5 H 0.7221 0.0401 0.1719
C19_6 C 0.6928(2) 0.0353(3) 0.3749(6)
H9_6 H 0.6562 0.0122 0.5748
C21_6 C 0.71667(19) 0.09617(28) 0.3973(6)
H7_6 H 0.7336 0.6768 0.9650
O11_5 O 0.87177(22) 0.61529(16) 0.9627(4)
C18_6 C 0.9850(4) 0.6845(3) 0.9118(7)
H8_6 H 0.9599 0.6820 0.8385
N1_6 N 0.45407(16) 0.13412(22) 0.0560(5)
C1_6 C 0.68285(19) 0.21255(28) 0.2450(7)
C2_6 C 0.6425(2) 0.2230(3) 0.1674(6)
C3_6 C 0.6599(2) 0.2602(3) 0.0532(7)
H1_6 H 0.6980 0.2800 0.0254
C5_6 C 0.5643(2) 0.2383(3) 0.0183(7)
C6_6 C 0.5463(2) 0.2006(3) 0.1305(6)
C7_6 C 0.58682(19) 0.19420(27) 0.2072(5)
H3_6 H 0.5757 0.1698 0.2877
C9_6 C 0.4865(2) 0.1643(3) 0.1650(6)
C10_6 C 0.4664(2) 0.1612(4) 0.3047(7)
H4_6 H 0.4891 0.1860 0.3784
C11_6 C 0.41171(8) 0.12020(12) 0.3300(2)
H5_6 H 0.3983 0.1130 0.4262
C12_6 C 0.3769(2) 0.0902(4) 0.2230(7)
H6_6 H 0.3383 0.0653 0.2407
C13_6 C 0.39959(19) 0.09672(27) 0.0831(6)
loop_
_geom_bond_atom_site_label_1
_geom_bond_atom_site_label_2
_geom_bond_site_symmetry_1
_geom_bond_site_symmetry_2
C1 C2 1_555 1_555
C7 C2 1_555 1_555
H3 C7 1_555 1_555
H4 C10 1_555 1_555
C11 C10 1_555 1_555
H5 C11 1_555 1_555
O3 C1 1_555 1_555
C12 C11 1_555 1_555
H6 C12 1_555 1_555
O8 C1 1_555 1_555
In2 O3 1_555 1_555
O8 In2 1_555 1_555
In1 O1 1_555 1_555
N1 C9 1_555 1_555
C3 H1 1_555 1_555
C4 C3 1_555 1_555
H2 C4 1_555 1_555
C5 C4 1_555 1_555
C6 C5 1_555 1_555
C8 C5 1_555 1_555
C9 C6 1_555 1_555
O1 C16 1_555 1_555
O2 In1 1_555 1_555
C13 N1 1_555 1_555
C14 C13 1_555 1_555
C15 C14 1_555 1_555
C16 O2 1_555 1_555
C17 C15 1_555 1_555
H7 C17 1_555 1_555
C18 C17 1_555 1_555
H8 C18 1_555 1_555
C19 C18 1_555 1_555
C20 C14 1_555 1_555
H9 C20 1_555 1_555
O4 C21 1_555 1_555
C21 C19 1_555 1_555
O5 C21 1_555 1_555
O6 In1 1_555 1_555
O7 In1 1_555 1_555
In3 O4 1_555 1_555
O9 In1 1_555 1_555
O10 In1 1_555 1_555
O11 In1 1_555 1_555
O12 In1 1_555 1_555
C8 O6 1_555 1_555
C8 O7 1_555 1_555
C15 C16 1_555 1_555
C19 C20 1_555 1_555
O5 In3 1_555 1_555
H8_2 C18_2 1_555 1_555
C19_2 C18_2 1_555 1_555
O10 C21_2 1_555 1_555
C21_2 C19_2 1_555 1_555
O11 C21_2 1_555 1_555
O8_2 In2_2 1_555 1_555
In2 O1_2 1_555 1_555
N1_2 C9_2 1_555 1_555
C1_2 C2_2 1_555 1_555
C2_2 C3_2 1_555 1_555
C3_2 H1_2 1_555 1_555
C4_2 C3_2 1_555 1_555
H2_2 C4_2 1_555 1_555
C5_2 C4_2 1_555 1_555
C6_2 C5_2 1_555 1_555
C7_2 C2_2 1_555 1_555
H3_2 C7_2 1_555 1_555
C8_2 C5_2 1_555 1_555
C9_2 C6_2 1_555 1_555
C10_2 C9_2 1_555 1_555
H4_3 C10_2 1_555 1_555
C11_2 C10_2 1_555 1_555
H5_3 C11_2 1_555 1_555
O1_2 C16_2 1_555 1_555
O2_2 In2 1_555 1_555
O3_2 C1_2 1_555 1_555
C12_2 C11_2 1_555 1_555
H6_2 C12_2 1_555 1_555
C13_2 N1_2 1_555 1_555
C14_2 C13_2 1_555 1_555
C15_2 C14_2 1_555 1_555
C16_2 O2_2 1_555 1_555
C17_2 C15_2 1_555 1_555
H7_2 C17_2 1_555 1_555
C20_2 C14_2 1_555 1_555
O6_2 In2 1_555 1_555
O7_2 In2 1_555 1_555
O8_3 C1_2 1_555 1_555
In2_3 O3_2 1_555 1_555
O10_2 In2 1_555 1_555
O11_2 In2 1_555 1_555
C6_2 C7_2 1_555 1_555
C8_2 O6_2 1_555 1_555
C8_2 O7_2 1_555 1_555
C12_2 C13_2 1_555 1_555
C15_2 C16_2 1_555 1_555
O8_3 In2_3 1_555 1_555
In2_2 O1_3 1_555 1_555
N1_3 C9_3 1_555 1_555
C1_3 C2_3 1_555 1_555
C2_3 C3_3 1_555 1_555
C3_3 H1_3 1_555 1_555
C4_3 C3_3 1_555 1_555
H2_3 C4_3 1_555 1_555
C5_3 C4_3 1_555 1_555
C6_3 C5_3 1_555 1_555
C7_3 C2_3 1_555 1_555
H3_3 C7_3 1_555 1_555
C8_3 C5_3 1_555 1_555
C9_3 C6_3 1_555 1_555
C10_3 C9_3 1_555 1_555
H4_4 C10_3 1_555 1_555
C11_3 C10_3 1_555 1_555
H5_4 C11_3 1_555 1_555
O1_3 C16_3 1_555 1_555
O2_3 In2_2 1_555 1_555
O3_3 C1_3 1_555 1_555
C12_3 C11_3 1_555 1_555
H6_3 C12_3 1_555 1_555
C13_3 N1_3 1_555 1_555
C14_3 C13_3 1_555 1_555
C15_3 C14_3 1_555 1_555
C16_3 O2_3 1_555 1_555
C17_3 C15_3 1_555 1_555
C18_3 C17_3 1_555 1_555
H8_3 C18_3 1_555 1_555
C19_3 C18_3 1_555 1_555
C20_3 C14_3 1_555 1_555
H9_3 C20_3 1_555 1_555
O10_2 C21_3 1_555 1_555
C21_3 C19_3 1_555 1_555
O11_2 C21_3 1_555 1_555
O6_3 In2_2 1_555 1_555
O7_3 In2_2 1_555 1_555
O8_4 C1_3 1_555 1_555
In3 O3_3 1_555 1_555
O10_3 In2_2 1_555 1_555
C6_3 C7_3 1_555 1_555
C8_3 O6_3 1_555 1_555
C8_3 O7_3 1_555 1_555
C12_3 C13_3 1_555 1_555
C15_3 C16_3 1_555 1_555
C19_3 C20_3 1_555 1_555
O8_4 In3 1_555 1_555
N1_4 C9_4 1_555 1_555
C1_4 C2_4 1_555 1_555
C2_4 C3_4 1_555 1_555
C3_4 H1_4 1_555 1_555
C4_4 C3_4 1_555 1_555
H2_4 C4_4 1_555 1_555
C5_4 C4_4 1_555 1_555
C6_4 C5_4 1_555 1_555
C7_4 C2_4 1_555 1_555
H3_4 C7_4 1_555 1_555
C8_4 C5_4 1_555 1_555
C9_4 C6_4 1_555 1_555
C10_4 C9_4 1_555 1_555
H4_5 C10_4 1_555 1_555
C11_4 C10_4 1_555 1_555
H5_5 C11_4 1_555 1_555
O9 C1_4 1_555 1_555
C12_4 C11_4 1_555 1_555
H6_4 C12_4 1_555 1_555
C13_4 N1_4 1_555 1_555
C14_4 C13_4 1_555 1_555
C20_4 C14_4 1_555 1_555
O12 C1_4 1_555 1_555
C6_4 C7_4 1_555 1_555
C8_4 O6_4 1_555 1_555
C12_4 C13_4 1_555 1_555
O2_4 In2_3 1_555 1_555
C16_4 O2_4 1_555 1_555
C17_4 C15_4 1_555 1_555
H7_3 C17_4 1_555 1_555
O7_4 In2_3 1_555 1_555
O11_3 In2_3 1_555 1_555
C15_4 C16_4 1_555 1_555
O10_3 C21_4 1_555 1_555
C21_4 C19_4 1_555 1_555
In3 O1_5 1_555 1_555
H2_5 C4_5 1_555 1_555
O1_5 C16_5 1_555 1_555
O2_5 In3 1_555 1_555
C15_5 C14_5 1_555 1_555
C16_5 O2_5 1_555 1_555
C17_5 C15_5 1_555 1_555
H7_4 C17_5 1_555 1_555
C20_5 C14_5 1_555 1_555
O6_5 In3 1_555 1_555
O7_5 In3 1_555 1_555
C8_5 O6_5 1_555 1_555
C8_5 O7_5 1_555 1_555
C15_5 C16_5 1_555 1_555
H8_4 C18_4 1_555 1_555
C19_5 C18_4 1_555 1_555
C21_5 C19_5 1_555 1_555
O11_3 C21_5 1_555 1_555
In1_2 O1_6 1_555 1_555
N1_5 C9_5 1_555 1_555
C1_5 C2_5 1_555 1_555
C2_5 C3_5 1_555 1_555
C3_5 H1_5 1_555 1_555
C4_6 C3_5 1_555 1_555
H2_6 C4_6 1_555 1_555
C5_5 C4_6 1_555 1_555
C6_5 C5_5 1_555 1_555
C7_5 C2_5 1_555 1_555
H3_5 C7_5 1_555 1_555
C8_6 C5_5 1_555 1_555
C9_5 C6_5 1_555 1_555
C10_5 C9_5 1_555 1_555
C11_5 C10_5 1_555 1_555
O1_6 C16_6 1_555 1_555
O2_6 In1_2 1_555 1_555
O3_4 C1_5 1_555 1_555
C12_5 C11_5 1_555 1_555
H6_5 C12_5 1_555 1_555
C13_5 N1_5 1_555 1_555
C14_6 C13_5 1_555 1_555
C15_6 C14_6 1_555 1_555
C16_6 O2_6 1_555 1_555
C17_6 C15_6 1_555 1_555
H7_5 C17_6 1_555 1_555
C20_6 C14_6 1_555 1_555
O6_6 In1_2 1_555 1_555
O7_6 In1_2 1_555 1_555
O9_2 In1_2 1_555 1_555
O10_5 In1_2 1_555 1_555
O11_4 In1_2 1_555 1_555
O12_2 In1_2 1_555 1_555
C6_5 C7_5 1_555 1_555
C8_6 O6_6 1_555 1_555
C8_6 O7_6 1_555 1_555
C12_5 C13_5 1_555 1_555
C15_6 C16_6 1_555 1_555
H8_5 C18_5 1_555 1_555
C19_6 C18_5 1_555 1_555
O10_5 C21_6 1_555 1_555
C21_6 C19_6 1_555 1_555
O11_4 C21_6 1_555 1_555
H8_6 C18_6 1_555 1_555
N1_6 C9_6 1_555 1_555
C1_6 C2_6 1_555 1_555
C2_6 C3_6 1_555 1_555
C3_6 H1_6 1_555 1_555
C6_6 C5_6 1_555 1_555
C7_6 C2_6 1_555 1_555
H3_6 C7_6 1_555 1_555
C9_6 C6_6 1_555 1_555
C10_6 C9_6 1_555 1_555
H4_6 C10_6 1_555 1_555
C11_6 C10_6 1_555 1_555
H5_6 C11_6 1_555 1_555
O9_2 C1_6 1_555 1_555
C12_6 C11_6 1_555 1_555
H6_6 C12_6 1_555 1_555
C13_6 N1_6 1_555 1_555
O12_2 C1_6 1_555 1_555
C6_6 C7_6 1_555 1_555
C12_6 C13_6 1_555 1_555

#END
