
###############################################################################
#
# This file contains modified crystal structure data generated from the
# MOF subset of the Cambridge Structural Database (CSD) v543 
# hosted by the Cambridge Crystallographic Data Centre (CCDC).
#
# This work is licensed under the Creative Commons
# Attribution-NonCommercial-ShareAlike 4.0 International License.
# To view a copy of this license, visit
# http://creativecommons.org/licenses/by-nc-sa/4.0/
# or send a letter to
# Creative Commons, PO Box 1866, Mountain View, CA 94042, USA.
#
# CIF created using the CSD Python API on 29 September 2022
# The structure has been converted into the P1 space group
# The structure has a 3D framework
# The original CSD entry NOMQAJ is in the monoclinic crystal system
# The framework has been calculated to contain at least 10.0% void space
# The void calculation uses a probe of radius 1.32A, grid spacing 0.4
#
###############################################################################

data_NOMQAJ
_chemical_formula_moiety         '(C78 H46 N6 O10 Zn4)n'
_symmetry_cell_setting           triclinic
_symmetry_space_group_name_H-M   'P 1'
_symmetry_Int_Tables_number      1
_space_group_name_Hall           'P 1'
loop_
_symmetry_equiv_pos_site_id
_symmetry_equiv_pos_as_xyz
1 x,y,z
_cell_length_a                   17.343(17)
_cell_length_b                   15.231(15)
_cell_length_c                   8.426(12)
_cell_angle_alpha                90
_cell_angle_beta                 117.09(2)
_cell_angle_gamma                90
_cell_volume                     1981.56
loop_
_atom_site_label
_atom_site_type_symbol
_atom_site_fract_x
_atom_site_fract_y
_atom_site_fract_z
O2 O 0.41367(13) 0.09173(15) 0.0637(3)
Zn4 Zn 0.5000 0.01704(3) 0.2500
N1 N 0.0000 0.38132(19) 0.2500
C1 C 0.07085(15) 0.24414(16) 0.3812(3)
C2 C 0.37521(17) 0.06017(19) 0.9069(4)
C3 C 0.14865(15) 0.19749(16) 0.5187(3)
C4 C 0.0000 0.1983(2) 0.2500
H1 H 0.0000 0.1372 0.2500
C5 C 0.06650(15) 0.33542(16) 0.3773(3)
H2 H 0.1115 0.3666 0.4665
C6 C 0.24637(17) 0.07252(19) 0.6025(4)
H3 H 0.2623 0.0190 0.5728
C7 C 0.29547(16) 0.10814(18) 0.7740(3)
C8 C 0.19808(17) 0.23327(18) 0.6892(3)
H4 H 0.1826 0.2871 0.7184
C9 C 0.27036(17) 0.1884(2) 0.8151(3)
H5 H 0.3022 0.2125 0.9279
C10 C 0.17434(17) 0.11695(19) 0.4776(4)
H6 H 0.1426 0.0928 0.3648
Zn5 Zn 0.0000 0.51704(3) 0.2500
N2 N 0.5000 0.11868(19) 0.7500
O4 O 0.58633(13) 0.09173(15) 0.4363(3)
C12 C 0.62479(17) 0.06017(19) 0.5931(4)
C13 C 0.85135(15) 0.19749(16) 0.9813(3)
C15 C 0.75363(17) 0.07252(19) 0.8975(4)
H8 H 0.7377 0.0190 0.9272
C16 C 0.70453(16) 0.10814(18) 0.7260(3)
C17 C 0.80192(17) 0.23327(18) 0.8108(3)
H9 H 0.8174 0.2871 0.7816
C18 C 0.72964(17) 0.1884(2) 0.6849(3)
H10 H 0.6978 0.2125 0.5721
Zn1 Zn -0.0000 0.48296(3) 0.7500
O5 O 0.10079(13) 0.49134(13) 0.6424(3)
O6 O 0.08633(13) 0.40827(15) 0.9363(3)
N2_2 N -0.0000 0.61868(19) 0.7500
O4_2 O 0.08633(13) 0.59173(15) 0.4363(3)
C12_2 C 0.12479(17) 0.56017(19) 0.5931(4)
C13_2 C 0.35135(15) 0.69749(16) 0.9813(3)
C15_2 C 0.25363(17) 0.57252(19) 0.8975(4)
H8_2 H 0.2377 0.5190 0.9272
C16_2 C 0.20453(16) 0.60814(18) 0.7260(3)
C17_2 C 0.30192(17) 0.73327(18) 0.8108(3)
H9_2 H 0.3174 0.7871 0.7816
C18_2 C 0.22964(17) 0.6884(2) 0.6849(3)
H10_2 H 0.1978 0.7125 0.5721
O3 O 0.39921(13) 0.00866(13) 0.3576(3)
C4_2 C -0.0000 0.8017(2) 0.7500
H1_2 H -0.0000 0.8628 0.7500
C11 C 0.07085(15) 0.75586(16) 0.8812(3)
C14 C 0.06650(15) 0.66458(16) 0.8773(3)
H7 H 0.1115 0.6334 0.9665
C19 C 0.17434(17) 0.88305(19) 0.9776(4)
H11 H 0.1426 0.9072 0.8648
O1 O 0.60079(13) 0.00866(13) 0.1424(3)
O1_2 O 0.10079(13) 0.50866(13) 0.1424(3)
C1_2 C 0.42915(15) 0.25586(16) 0.6188(3)
C2_2 C 0.12479(17) 0.43983(19) 0.0931(4)
C3_2 C 0.35135(15) 0.30251(16) 0.4813(3)
C4_3 C 0.5000 0.3017(2) 0.7500
H1_3 H 0.5000 0.3628 0.7500
C5_2 C 0.43350(15) 0.16458(16) 0.6227(3)
H2_2 H 0.3885 0.1334 0.5335
C6_2 C 0.25363(17) 0.42748(19) 0.3975(4)
H3_2 H 0.2377 0.4810 0.4272
C7_2 C 0.20453(16) 0.39186(18) 0.2260(3)
C8_2 C 0.30192(17) 0.26673(18) 0.3108(3)
H4_2 H 0.3174 0.2129 0.2816
C9_2 C 0.22964(17) 0.3116(2) 0.1849(3)
H5_2 H 0.1978 0.2875 0.0721
C10_2 C 0.32566(17) 0.38305(19) 0.5224(4)
H6_2 H 0.3574 0.4072 0.6352
C11_2 C 0.57085(15) 0.25586(16) 0.8812(3)
C14_2 C 0.56650(15) 0.16458(16) 0.8773(3)
H7_2 H 0.6115 0.1334 0.9665
C19_2 C 0.67434(17) 0.38305(19) 0.9776(4)
H11_2 H 0.6426 0.4072 0.8648
Zn1_2 Zn 0.5000 0.98296(3) 0.7500
O1_3 O 0.39921(13) 0.99134(13) 0.8576(3)
O5_2 O 0.60079(13) 0.99134(13) 0.6424(3)
O6_2 O 0.58633(13) 0.90827(15) 0.9363(3)
O7 O 0.41367(13) 0.90827(15) 0.5637(3)
N1_2 N 1.0000 0.38132(19) 0.2500
C4_4 C 1.0000 0.1983(2) 0.2500
H1_4 H 1.0000 0.1372 0.2500
C11_3 C 0.92915(15) 0.24414(16) 0.1188(3)
C14_3 C 0.93350(15) 0.33542(16) 0.1227(3)
H7_3 H 0.8885 0.3666 0.0335
C19_3 C 0.82566(17) 0.11695(19) 0.0224(4)
H11_3 H 0.8574 0.0928 0.1352
Zn5_2 Zn 1.0000 0.51704(3) 0.2500
O2_2 O 0.91367(13) 0.59173(15) 0.0637(3)
Zn1_3 Zn 1.0000 0.48296(3) 0.7500
O1_4 O 0.89921(13) 0.49134(13) 0.8576(3)
N1_3 N 0.5000 0.88132(19) 0.2500
C1_3 C 0.57085(15) 0.74414(16) 0.3812(3)
C2_3 C 0.87521(17) 0.56017(19) 0.9069(4)
C3_3 C 0.64865(15) 0.69749(16) 0.5187(3)
C4_5 C 0.5000 0.6983(2) 0.2500
H1_5 H 0.5000 0.6372 0.2500
C5_3 C 0.56650(15) 0.83542(16) 0.3773(3)
H2_3 H 0.6115 0.8666 0.4665
C6_3 C 0.74637(17) 0.57252(19) 0.6025(4)
H3_3 H 0.7623 0.5190 0.5728
C7_3 C 0.79547(16) 0.60814(18) 0.7740(3)
C8_3 C 0.69808(17) 0.73327(18) 0.6892(3)
H4_3 H 0.6826 0.7871 0.7184
C9_3 C 0.77036(17) 0.6884(2) 0.8151(3)
H5_3 H 0.8022 0.7125 0.9279
C10_3 C 0.67434(17) 0.61695(19) 0.4776(4)
H6_3 H 0.6426 0.5928 0.3648
C11_4 C 0.42915(15) 0.74414(16) 0.1188(3)
C14_4 C 0.43350(15) 0.83542(16) 0.1227(3)
H7_4 H 0.3885 0.8666 0.0335
C19_4 C 0.32566(17) 0.61695(19) 0.0224(4)
H11_4 H 0.3574 0.5928 0.1352
O7_2 O 0.91367(13) 0.40827(15) 0.5637(3)
N2_3 N 1.0000 0.61868(19) 0.7500
C12_3 C 0.37521(17) 0.93983(19) 0.4069(4)
C13_3 C 0.14865(15) 0.80251(16) 0.0187(3)
C15_3 C 0.24637(17) 0.92748(19) 0.1025(4)
H8_3 H 0.2623 0.9810 0.0728
C16_3 C 0.29547(16) 0.89186(18) 0.2740(3)
C17_3 C 0.19808(17) 0.76673(18) 0.1892(3)
H9_3 H 0.1826 0.7129 0.2184
C18_3 C 0.27036(17) 0.8116(2) 0.3151(3)
H10_3 H 0.3022 0.7875 0.4279
C1_4 C 0.92915(15) 0.75586(16) 0.6188(3)
C2_4 C 0.62479(17) 0.93983(19) 0.0931(4)
C3_4 C 0.85135(15) 0.80251(16) 0.4813(3)
C4_6 C 1.0000 0.8017(2) 0.7500
H1_6 H 1.0000 0.8628 0.7500
C5_4 C 0.93350(15) 0.66458(16) 0.6227(3)
H2_4 H 0.8885 0.6334 0.5335
C6_4 C 0.75363(17) 0.92748(19) 0.3975(4)
H3_4 H 0.7377 0.9810 0.4272
C7_4 C 0.70453(16) 0.89186(18) 0.2260(3)
C8_4 C 0.80192(17) 0.76673(18) 0.3108(3)
H4_4 H 0.8174 0.7129 0.2816
C9_4 C 0.72964(17) 0.8116(2) 0.1849(3)
H5_4 H 0.6978 0.7875 0.0721
C10_4 C 0.82566(17) 0.88305(19) 0.5224(4)
H6_4 H 0.8574 0.9072 0.6352
O3_2 O 0.89921(13) 0.50866(13) 0.3576(3)
C12_4 C 0.87521(17) 0.43983(19) 0.4069(4)
C13_4 C 0.64865(15) 0.30251(16) 0.0187(3)
C15_4 C 0.74637(17) 0.42748(19) 0.1025(4)
H8_4 H 0.7623 0.4810 0.0728
C16_4 C 0.79547(16) 0.39186(18) 0.2740(3)
C17_4 C 0.69808(17) 0.26673(18) 0.1892(3)
H9_4 H 0.6826 0.2129 0.2184
C18_4 C 0.77036(17) 0.3116(2) 0.3151(3)
H10_4 H 0.8022 0.2875 0.4279
loop_
_geom_bond_atom_site_label_1
_geom_bond_atom_site_label_2
_geom_bond_site_symmetry_1
_geom_bond_site_symmetry_2
Zn4 O2 1_555 1_555
N1 C5 1_555 1_555
C1 C3 1_555 1_555
C2 C7 1_555 1_555
C3 C8 1_555 1_555
C4 C1 1_555 1_555
H1 C4 1_555 1_555
C5 C1 1_555 1_555
H2 C5 1_555 1_555
C6 H3 1_555 1_555
C7 C6 1_555 1_555
C8 H4 1_555 1_555
C9 C7 1_555 1_555
H5 C9 1_555 1_555
C10 C3 1_555 1_555
H6 C10 1_555 1_555
Zn5 N1 1_555 1_555
C6 C10 1_555 1_555
C8 C9 1_555 1_555
O4 C12 1_555 1_555
C12 C16 1_555 1_555
C15 H8 1_555 1_555
C16 C15 1_555 1_555
C17 C13 1_555 1_555
H9 C17 1_555 1_555
C18 C16 1_555 1_555
H10 C18 1_555 1_555
Zn4 O4 1_555 1_555
C17 C18 1_555 1_555
O5 Zn1 1_555 1_555
O6 Zn1 1_555 1_555
N2_2 Zn1 1_555 1_555
O5 C12_2 1_555 1_555
O4_2 C12_2 1_555 1_555
C12_2 C16_2 1_555 1_555
C15_2 H8_2 1_555 1_555
C16_2 C15_2 1_555 1_555
C17_2 C13_2 1_555 1_555
H9_2 C17_2 1_555 1_555
C18_2 C16_2 1_555 1_555
H10_2 C18_2 1_555 1_555
Zn5 O4_2 1_555 1_555
C17_2 C18_2 1_555 1_555
Zn4 O3 1_555 1_555
H1_2 C4_2 1_555 1_555
C11 C4_2 1_555 1_555
C14 N2_2 1_555 1_555
H7 C14 1_555 1_555
H11 C19 1_555 1_555
C11 C14 1_555 1_555
Zn4 O1 1_555 1_555
Zn5 O1_2 1_555 1_555
O1_2 C2_2 1_555 1_555
N2 C5_2 1_555 1_555
C1_2 C3_2 1_555 1_555
C2_2 C7_2 1_555 1_555
C3_2 C8_2 1_555 1_555
C4_3 C1_2 1_555 1_555
H1_3 C4_3 1_555 1_555
C5_2 C1_2 1_555 1_555
H2_2 C5_2 1_555 1_555
C6_2 H3_2 1_555 1_555
C7_2 C6_2 1_555 1_555
C8_2 H4_2 1_555 1_555
C9_2 C7_2 1_555 1_555
H5_2 C9_2 1_555 1_555
C10_2 C3_2 1_555 1_555
H6_2 C10_2 1_555 1_555
C11_2 C4_3 1_555 1_555
C14_2 N2 1_555 1_555
H7_2 C14_2 1_555 1_555
H11_2 C19_2 1_555 1_555
C6_2 C10_2 1_555 1_555
C8_2 C9_2 1_555 1_555
C11_2 C14_2 1_555 1_555
Zn1_2 O1_3 1_555 1_555
O5_2 Zn1_2 1_555 1_555
O6_2 Zn1_2 1_555 1_555
O7 Zn1_2 1_555 1_555
H1_4 C4_4 1_555 1_555
C11_3 C4_4 1_555 1_555
C14_3 N1_2 1_555 1_555
H7_3 C14_3 1_555 1_555
H11_3 C19_3 1_555 1_555
Zn5_2 N1_2 1_555 1_555
C11_3 C14_3 1_555 1_555
Zn5_2 O2_2 1_555 1_555
Zn1_3 O1_4 1_555 1_555
O1_4 C2_3 1_555 1_555
N1_3 C5_3 1_555 1_555
C1_3 C3_3 1_555 1_555
C2_3 C7_3 1_555 1_555
C3_3 C8_3 1_555 1_555
C4_5 C1_3 1_555 1_555
H1_5 C4_5 1_555 1_555
C5_3 C1_3 1_555 1_555
H2_3 C5_3 1_555 1_555
C6_3 H3_3 1_555 1_555
C7_3 C6_3 1_555 1_555
C8_3 H4_3 1_555 1_555
C9_3 C7_3 1_555 1_555
H5_3 C9_3 1_555 1_555
C10_3 C3_3 1_555 1_555
H6_3 C10_3 1_555 1_555
C11_4 C4_5 1_555 1_555
C14_4 N1_3 1_555 1_555
H7_4 C14_4 1_555 1_555
H11_4 C19_4 1_555 1_555
O7_2 Zn1_3 1_555 1_555
N2_3 Zn1_3 1_555 1_555
C6_3 C10_3 1_555 1_555
C8_3 C9_3 1_555 1_555
C11_4 C14_4 1_555 1_555
O7 C12_3 1_555 1_555
C12_3 C16_3 1_555 1_555
C15_3 H8_3 1_555 1_555
C16_3 C15_3 1_555 1_555
C17_3 C13_3 1_555 1_555
H9_3 C17_3 1_555 1_555
C18_3 C16_3 1_555 1_555
H10_3 C18_3 1_555 1_555
C17_3 C18_3 1_555 1_555
N2_3 C5_4 1_555 1_555
C1_4 C3_4 1_555 1_555
C2_4 C7_4 1_555 1_555
C3_4 C8_4 1_555 1_555
C4_6 C1_4 1_555 1_555
H1_6 C4_6 1_555 1_555
C5_4 C1_4 1_555 1_555
H2_4 C5_4 1_555 1_555
C6_4 H3_4 1_555 1_555
C7_4 C6_4 1_555 1_555
C8_4 H4_4 1_555 1_555
C9_4 C7_4 1_555 1_555
H5_4 C9_4 1_555 1_555
C10_4 C3_4 1_555 1_555
H6_4 C10_4 1_555 1_555
C6_4 C10_4 1_555 1_555
C8_4 C9_4 1_555 1_555
O3_2 C12_4 1_555 1_555
O7_2 C12_4 1_555 1_555
C12_4 C16_4 1_555 1_555
C15_4 H8_4 1_555 1_555
C16_4 C15_4 1_555 1_555
C17_4 C13_4 1_555 1_555
H9_4 C17_4 1_555 1_555
C18_4 C16_4 1_555 1_555
H10_4 C18_4 1_555 1_555
Zn5_2 O3_2 1_555 1_555
C17_4 C18_4 1_555 1_555

#END
