
###############################################################################
#
# This file contains modified crystal structure data generated from the
# MOF subset of the Cambridge Structural Database (CSD) v543 
# hosted by the Cambridge Crystallographic Data Centre (CCDC).
#
# This work is licensed under the Creative Commons
# Attribution-NonCommercial-ShareAlike 4.0 International License.
# To view a copy of this license, visit
# http://creativecommons.org/licenses/by-nc-sa/4.0/
# or send a letter to
# Creative Commons, PO Box 1866, Mountain View, CA 94042, USA.
#
# CIF created using the CSD Python API on 29 September 2022
# The structure has been converted into the P1 space group
# The structure has a 3D framework
# The original CSD entry NOPDUU is in the trigonal crystal system
# The framework has been calculated to contain at least 10.0% void space
# The void calculation uses a probe of radius 1.32A, grid spacing 0.4
#
###############################################################################

data_NOPDUU
_chemical_formula_moiety         '(C48 H60 Cu12 N12 O48 Yb4)n'
_symmetry_cell_setting           triclinic
_symmetry_space_group_name_H-M   'P 1'
_symmetry_Int_Tables_number      1
_space_group_name_Hall           'P 1'
loop_
_symmetry_equiv_pos_site_id
_symmetry_equiv_pos_as_xyz
1 x,y,z
_cell_length_a                   13.2638(3)
_cell_length_b                   13.2638(3)
_cell_length_c                   14.1414(3)
_cell_angle_alpha                90
_cell_angle_beta                 90
_cell_angle_gamma                120
_cell_volume                     2154.56
loop_
_atom_site_label
_atom_site_type_symbol
_atom_site_fract_x
_atom_site_fract_y
_atom_site_fract_z
Cu3 Cu -0.000000 0.500000 0.500000
H11 H 0.030218 0.680770 0.583097
O26 O 0.0734(4) 0.5991(3) 0.3892(2)
O30 O 0.1919(4) 0.5503(3) 0.5580(2)
N7 N 0.0424(4) 0.3890(3) 0.4401(2)
Yb1 Yb 0.666667 0.333333 0.83403(2)
Cu1 Cu 0.500000 0.500000 0.500000
O1 O 0.6220(2) 0.4350(2) 0.73244(19)
O2 O 0.5991(3) 0.5257(2) 0.6108(2)
O3 O 0.5503(3) 0.3584(3) 0.4420(2)
O4 O 0.4393(3) 0.1919(3) 0.3716(2)
N1 N 0.3890(3) 0.3466(3) 0.5599(2)
H1 H 0.319230 0.349448 0.583097
C1 C 0.4488(4) 0.3295(4) 0.6422(3)
H2 H 0.461969 0.263643 0.629045
H3 H 0.398107 0.309211 0.698635
C2 C 0.5640(4) 0.4370(4) 0.6630(2)
C3 C 0.3512(4) 0.2524(3) 0.4895(3)
H4 H 0.291396 0.252743 0.447764
H5 H 0.315663 0.176382 0.522333
C4 C 0.4532(4) 0.2677(4) 0.4302(3)
Cu2 Cu 0.500000 0.000000 0.500000
O5 O 0.5650(2) 0.1870(3) 0.73244(19)
O6 O 0.4743(2) 0.0734(4) 0.6108(2)
O7 O 0.6416(3) 0.1919(4) 0.4420(2)
O8 O 0.8081(3) 0.2474(4) 0.3716(2)
N2 N 0.6534(3) 0.0424(4) 0.5599(2)
C5 C 0.6705(4) 0.1193(6) 0.6422(3)
H7 H 0.736357 0.198326 0.629045
H8 H 0.690789 0.088896 0.698635
C6 C 0.5630(4) 0.1270(6) 0.6630(2)
C7 C 0.7476(3) 0.0988(5) 0.4895(3)
H9 H 0.747257 0.038653 0.447764
H10 H 0.823618 0.139281 0.522333
C8 C 0.7323(4) 0.1855(6) 0.4302(3)
Cu3_2 Cu 1.000000 0.500000 0.500000
O9 O 0.8130(3) 0.3780(2) 0.73244(19)
O10 O 0.9266(4) 0.4009(3) 0.6108(2)
O11 O 0.8081(4) 0.4497(3) 0.4420(2)
O12 O 0.7526(4) 0.5607(3) 0.3716(2)
N3 N 0.9576(4) 0.6110(3) 0.5599(2)
C9 C 0.8807(6) 0.5512(4) 0.6422(3)
H12 H 0.801674 0.538031 0.629045
H13 H 0.911104 0.601893 0.698635
C10 C 0.8730(6) 0.4360(4) 0.6630(2)
C11 C 0.9012(5) 0.6488(4) 0.4895(3)
H14 H 0.961347 0.708604 0.447764
H15 H 0.860719 0.684337 0.522333
C12 C 0.8145(6) 0.5468(4) 0.4302(3)
Yb2 Yb 0.333333 0.666667 0.16597(2)
O13 O 0.3780(2) 0.5650(2) 0.26756(19)
O14 O 0.4009(3) 0.4743(2) 0.3892(2)
O15 O 0.4497(3) 0.6416(3) 0.5580(2)
O16 O 0.5607(3) 0.8081(3) 0.6284(2)
N4 N 0.6110(3) 0.6534(3) 0.4401(2)
H16 H 0.680770 0.650552 0.416903
C13 C 0.5512(4) 0.6705(4) 0.3578(3)
H17 H 0.538031 0.736357 0.370955
H18 H 0.601893 0.690789 0.301365
C14 C 0.4360(4) 0.5630(4) 0.3370(2)
C15 C 0.6488(4) 0.7476(3) 0.5105(3)
H19 H 0.708604 0.747257 0.552236
H20 H 0.684337 0.823618 0.477667
C16 C 0.5468(4) 0.7323(4) 0.5698(3)
H21 H 0.349448 0.030218 0.416903
O21 O 0.1870(3) 0.6220(2) 0.26756(19)
O24 O 0.2474(4) 0.4393(3) 0.6284(2)
C21 C 0.1193(6) 0.4488(4) 0.3578(3)
H27 H 0.198326 0.461969 0.370955
H28 H 0.088896 0.398107 0.301365
C22 C 0.1270(6) 0.5640(4) 0.3370(2)
C23 C 0.0988(5) 0.3512(4) 0.5105(3)
H29 H 0.038653 0.291396 0.552236
H30 H 0.139281 0.315663 0.477667
C24 C 0.1855(6) 0.4532(4) 0.5698(3)
Yb4 Yb 0.333333 0.666667 0.66597(2)
Yb6 Yb 0.666667 0.333333 0.33403(2)
O25 O 0.4350(2) 0.8130(3) 0.26756(19)
O27 O 0.3584(3) 0.5503(3) 0.0580(2)
O28 O 0.1919(4) 0.6416(3) 0.0580(2)
O29 O 0.4497(3) 0.8081(4) 0.0580(2)
O31 O 0.6416(3) 0.4497(3) 0.9420(2)
O32 O 0.8081(4) 0.3584(3) 0.9420(2)
O33 O 0.5503(3) 0.1919(4) 0.9420(2)
O34 O 0.1919(3) 0.4393(3) 0.1284(2)
O35 O 0.2474(4) 0.8081(3) 0.1284(2)
O36 O 0.5607(3) 0.7526(4) 0.1284(2)
O37 O 0.8081(3) 0.5607(3) 0.8716(2)
O38 O 0.7526(4) 0.1919(3) 0.8716(2)
O39 O 0.4393(3) 0.2474(4) 0.8716(2)
Cu2_2 Cu 0.500000 1.000000 0.500000
H6 H 0.650552 0.969782 0.583097
O18 O 0.5257(2) 0.9266(4) 0.3892(2)
O19 O 0.3584(3) 0.8081(4) 0.5580(2)
O20 O 0.1919(3) 0.7526(4) 0.6284(2)
N5 N 0.3466(3) 0.9576(4) 0.4401(2)
C17 C 0.3295(4) 0.8807(6) 0.3578(3)
H22 H 0.263643 0.801674 0.370955
H23 H 0.309211 0.911104 0.301365
C18 C 0.4370(4) 0.8730(6) 0.3370(2)
C19 C 0.2524(3) 0.9012(5) 0.5105(3)
H24 H 0.252743 0.961347 0.552236
H25 H 0.176382 0.860719 0.477667
C20 C 0.2677(4) 0.8145(6) 0.5698(3)
H26 H 0.969782 0.319230 0.416903
Cu3_3 Cu 0.500000 -0.000000 0.000000
O26_2 O 0.5991(3) 0.0734(4) 0.1108(2)
N7_2 N 0.3890(3) 0.0424(4) 0.0599(2)
Cu3_4 Cu 0.500000 -0.000000 1.000000
H11_2 H 0.680770 0.030218 0.916903
Cu1_2 Cu 0.500000 0.500000 0.000000
C3_2 C 0.2524(3) 0.3512(4) 0.0105(3)
H4_2 H 0.252743 0.291396 0.052236
C4_2 C 0.2677(4) 0.4532(4) 0.0698(3)
Cu2_3 Cu 0.000000 0.500000 0.000000
C7_2 C 0.0988(5) 0.7476(3) 0.0105(3)
H9_2 H 0.038653 0.747257 0.052236
C8_2 C 0.1855(6) 0.7323(4) 0.0698(3)
Cu3_5 Cu 0.500000 1.000000 0.000000
C11_2 C 0.6488(4) 0.9012(5) 0.0105(3)
H14_2 H 0.708604 0.961347 0.052236
C12_2 C 0.5468(4) 0.8145(6) 0.0698(3)
O13_2 O 0.5650(2) 0.3780(2) 0.23244(19)
O14_2 O 0.4743(2) 0.4009(3) 0.1108(2)
N4_2 N 0.6534(3) 0.6110(3) 0.0599(2)
H16_2 H 0.650552 0.680770 0.083097
C13_2 C 0.6705(4) 0.5512(4) 0.1422(3)
H17_2 H 0.736357 0.538031 0.129045
H18_2 H 0.690789 0.601893 0.198635
C14_2 C 0.5630(4) 0.4360(4) 0.1630(2)
H20_2 H 0.823618 0.684337 0.022333
H21_2 H 0.030218 0.349448 0.083097
O21_2 O 0.6220(2) 0.1870(3) 0.23244(19)
C21_2 C 0.4488(4) 0.1193(6) 0.1422(3)
H27_2 H 0.461969 0.198326 0.129045
H28_2 H 0.398107 0.088896 0.198635
C22_2 C 0.5640(4) 0.1270(6) 0.1630(2)
H30_2 H 0.315663 0.139281 0.022333
O25_2 O 0.8130(3) 0.4350(2) 0.23244(19)
Cu1_3 Cu 0.500000 0.500000 1.000000
O1_2 O 0.4350(2) 0.6220(2) 0.76756(19)
O2_2 O 0.5257(2) 0.5991(3) 0.8892(2)
N1_2 N 0.3466(3) 0.3890(3) 0.9401(2)
H1_2 H 0.349448 0.319230 0.916903
C1_2 C 0.3295(4) 0.4488(4) 0.8578(3)
H2_2 H 0.263643 0.461969 0.870955
H3_2 H 0.309211 0.398107 0.801365
C2_2 C 0.4370(4) 0.5640(4) 0.8370(2)
H5_2 H 0.176382 0.315663 0.977667
Cu2_4 Cu 0.000000 0.500000 1.000000
O5_2 O 0.1870(3) 0.5650(2) 0.76756(19)
O6_2 O 0.0734(4) 0.4743(2) 0.8892(2)
N2_2 N 0.0424(4) 0.6534(3) 0.9401(2)
C5_2 C 0.1193(6) 0.6705(4) 0.8578(3)
H7_2 H 0.198326 0.736357 0.870955
H8_2 H 0.088896 0.690789 0.801365
C6_2 C 0.1270(6) 0.5630(4) 0.8370(2)
H10_2 H 0.139281 0.823618 0.977667
Cu3_6 Cu 0.500000 1.000000 1.000000
O9_2 O 0.3780(2) 0.8130(3) 0.76756(19)
O10_2 O 0.4009(3) 0.9266(4) 0.8892(2)
N3_2 N 0.6110(3) 0.9576(4) 0.9401(2)
C9_2 C 0.5512(4) 0.8807(6) 0.8578(3)
H12_2 H 0.538031 0.801674 0.870955
H13_2 H 0.601893 0.911104 0.801365
C10_2 C 0.4360(4) 0.8730(6) 0.8370(2)
H15_2 H 0.684337 0.860719 0.977667
C15_2 C 0.7476(3) 0.6488(4) 0.9895(3)
H19_2 H 0.747257 0.708604 0.947764
C16_2 C 0.7323(4) 0.5468(4) 0.9302(3)
C23_2 C 0.3512(4) 0.0988(5) 0.9895(3)
H29_2 H 0.291396 0.038653 0.947764
C24_2 C 0.4532(4) 0.1855(6) 0.9302(3)
H26_2 H 0.319230 0.969782 0.083097
Cu2_5 Cu 1.000000 0.500000 0.000000
O18_2 O 0.9266(4) 0.5257(2) 0.1108(2)
N5_2 N 0.9576(4) 0.3466(3) 0.0599(2)
C17_2 C 0.8807(6) 0.3295(4) 0.1422(3)
H22_2 H 0.801674 0.263643 0.129045
H23_2 H 0.911104 0.309211 0.198635
C18_2 C 0.8730(6) 0.4370(4) 0.1630(2)
H25_2 H 0.860719 0.176382 0.022333
Cu2_6 Cu 1.000000 0.500000 1.000000
H6_2 H 0.969782 0.650552 0.916903
C19_2 C 0.9012(5) 0.2524(3) 0.9895(3)
H24_2 H 0.961347 0.252743 0.947764
C20_2 C 0.8145(6) 0.2677(4) 0.9302(3)
loop_
_geom_bond_atom_site_label_1
_geom_bond_atom_site_label_2
_geom_bond_site_symmetry_1
_geom_bond_site_symmetry_2
O26 Cu3 1_555 1_555
O30 Cu3 1_555 1_555
N7 Cu3 1_555 1_555
Yb1 O1 1_555 1_555
Cu1 O2 1_555 1_555
O1 C2 1_555 1_555
O2 C2 1_555 1_555
O3 Cu1 1_555 1_555
O4 C4 1_555 1_555
N1 Cu1 1_555 1_555
H1 N1 1_555 1_555
C1 N1 1_555 1_555
H2 C1 1_555 1_555
H3 C1 1_555 1_555
C2 C1 1_555 1_555
C3 N1 1_555 1_555
H4 C3 1_555 1_555
H5 C3 1_555 1_555
C4 O3 1_555 1_555
Cu2 O6 1_555 1_555
O5 Yb1 1_555 1_555
O6 C6 1_555 1_555
O7 Cu2 1_555 1_555
O8 C8 1_555 1_555
N2 Cu2 1_555 1_555
C5 N2 1_555 1_555
H7 C5 1_555 1_555
H8 C5 1_555 1_555
C6 O5 1_555 1_555
C7 N2 1_555 1_555
H9 C7 1_555 1_555
H10 C7 1_555 1_555
C8 O7 1_555 1_555
Cu3_2 O10 1_555 1_555
O9 Yb1 1_555 1_555
O10 C10 1_555 1_555
O11 Cu3_2 1_555 1_555
O12 C12 1_555 1_555
N3 Cu3_2 1_555 1_555
C9 N3 1_555 1_555
H12 C9 1_555 1_555
H13 C9 1_555 1_555
C10 O9 1_555 1_555
C11 N3 1_555 1_555
H14 C11 1_555 1_555
H15 C11 1_555 1_555
C12 O11 1_555 1_555
Yb2 O13 1_555 1_555
O13 C14 1_555 1_555
O14 Cu1 1_555 1_555
O15 Cu1 1_555 1_555
O16 C16 1_555 1_555
N4 Cu1 1_555 1_555
H16 N4 1_555 1_555
C13 N4 1_555 1_555
H17 C13 1_555 1_555
H18 C13 1_555 1_555
C14 O14 1_555 1_555
C15 N4 1_555 1_555
H19 C15 1_555 1_555
H20 C15 1_555 1_555
C16 O15 1_555 1_555
O21 Yb2 1_555 1_555
O26 C22 1_555 1_555
O30 C24 1_555 1_555
O24 C24 1_555 1_555
C21 N7 1_555 1_555
H27 C21 1_555 1_555
H28 C21 1_555 1_555
C22 O21 1_555 1_555
C23 N7 1_555 1_555
H29 C23 1_555 1_555
H30 C23 1_555 1_555
C24 C23 1_555 1_555
Yb4 O15 1_555 1_555
Yb6 O3 1_555 1_555
O25 Yb2 1_555 1_555
O27 Yb2 1_555 1_555
O28 Yb2 1_555 1_555
O29 Yb2 1_555 1_555
O31 Yb1 1_555 1_555
O32 Yb1 1_555 1_555
O33 Yb1 1_555 1_555
O34 Yb2 1_555 1_555
O35 Yb2 1_555 1_555
O36 Yb2 1_555 1_555
O37 Yb1 1_555 1_555
O38 Yb1 1_555 1_555
O39 Yb1 1_555 1_555
O4 Yb6 1_555 1_555
C3 C4 1_555 1_555
O7 Yb6 1_555 1_555
O8 Yb6 1_555 1_555
C5 C6 1_555 1_555
C7 C8 1_555 1_555
O11 Yb6 1_555 1_555
O12 Yb6 1_555 1_555
C9 C10 1_555 1_555
C11 C12 1_555 1_555
O16 Yb4 1_555 1_555
C13 C14 1_555 1_555
C15 C16 1_555 1_555
O30 Yb4 1_555 1_555
O24 Yb4 1_555 1_555
C21 C22 1_555 1_555
O25 C18 1_555 1_555
O18 Cu2_2 1_555 1_555
O19 Cu2_2 1_555 1_555
O20 C20 1_555 1_555
N5 Cu2_2 1_555 1_555
C17 N5 1_555 1_555
H22 C17 1_555 1_555
H23 C17 1_555 1_555
C18 O18 1_555 1_555
C19 N5 1_555 1_555
H24 C19 1_555 1_555
H25 C19 1_555 1_555
C20 O19 1_555 1_555
Yb4 O19 1_555 1_555
O20 Yb4 1_555 1_555
C17 C18 1_555 1_555
C19 C20 1_555 1_555
O26_2 Cu3_3 1_555 1_555
N7_2 Cu3_3 1_555 1_555
O33 Cu3_4 1_555 1_555
O27 Cu1_2 1_555 1_555
O34 C4_2 1_555 1_555
H4_2 C3_2 1_555 1_555
C4_2 O27 1_555 1_555
O28 Cu2_3 1_555 1_555
O35 C8_2 1_555 1_555
H9_2 C7_2 1_555 1_555
C8_2 O28 1_555 1_555
O29 Cu3_5 1_555 1_555
O36 C12_2 1_555 1_555
H14_2 C11_2 1_555 1_555
C12_2 O29 1_555 1_555
Yb6 O13_2 1_555 1_555
O13_2 C14_2 1_555 1_555
O14_2 Cu1_2 1_555 1_555
N4_2 Cu1_2 1_555 1_555
H16_2 N4_2 1_555 1_555
C13_2 N4_2 1_555 1_555
H17_2 C13_2 1_555 1_555
H18_2 C13_2 1_555 1_555
C14_2 O14_2 1_555 1_555
O21_2 Yb6 1_555 1_555
O26_2 C22_2 1_555 1_555
C21_2 N7_2 1_555 1_555
H27_2 C21_2 1_555 1_555
H28_2 C21_2 1_555 1_555
C22_2 O21_2 1_555 1_555
O25_2 Yb6 1_555 1_555
C3_2 C4_2 1_555 1_555
C7_2 C8_2 1_555 1_555
C11_2 C12_2 1_555 1_555
C13_2 C14_2 1_555 1_555
C21_2 C22_2 1_555 1_555
Yb4 O1_2 1_555 1_555
Cu1_3 O2_2 1_555 1_555
O1_2 C2_2 1_555 1_555
O2_2 C2_2 1_555 1_555
N1_2 Cu1_3 1_555 1_555
H1_2 N1_2 1_555 1_555
C1_2 N1_2 1_555 1_555
H2_2 C1_2 1_555 1_555
H3_2 C1_2 1_555 1_555
C2_2 C1_2 1_555 1_555
Cu2_4 O6_2 1_555 1_555
O5_2 Yb4 1_555 1_555
O6_2 C6_2 1_555 1_555
N2_2 Cu2_4 1_555 1_555
C5_2 N2_2 1_555 1_555
H7_2 C5_2 1_555 1_555
H8_2 C5_2 1_555 1_555
C6_2 O5_2 1_555 1_555
Cu3_6 O10_2 1_555 1_555
O9_2 Yb4 1_555 1_555
O10_2 C10_2 1_555 1_555
N3_2 Cu3_6 1_555 1_555
C9_2 N3_2 1_555 1_555
H12_2 C9_2 1_555 1_555
H13_2 C9_2 1_555 1_555
C10_2 O9_2 1_555 1_555
O31 Cu1_3 1_555 1_555
O37 C16_2 1_555 1_555
H19_2 C15_2 1_555 1_555
C16_2 O31 1_555 1_555
O33 C24_2 1_555 1_555
O39 C24_2 1_555 1_555
H29_2 C23_2 1_555 1_555
C24_2 C23_2 1_555 1_555
C5_2 C6_2 1_555 1_555
C9_2 C10_2 1_555 1_555
C15_2 C16_2 1_555 1_555
O25_2 C18_2 1_555 1_555
O18_2 Cu2_5 1_555 1_555
N5_2 Cu2_5 1_555 1_555
C17_2 N5_2 1_555 1_555
H22_2 C17_2 1_555 1_555
H23_2 C17_2 1_555 1_555
C18_2 O18_2 1_555 1_555
C17_2 C18_2 1_555 1_555
O32 Cu2_6 1_555 1_555
O38 C20_2 1_555 1_555
H24_2 C19_2 1_555 1_555
C20_2 O32 1_555 1_555
C19_2 C20_2 1_555 1_555

#END
