
###############################################################################
#
# This file contains modified crystal structure data generated from the
# MOF subset of the Cambridge Structural Database (CSD) v543 
# hosted by the Cambridge Crystallographic Data Centre (CCDC).
#
# This work is licensed under the Creative Commons
# Attribution-NonCommercial-ShareAlike 4.0 International License.
# To view a copy of this license, visit
# http://creativecommons.org/licenses/by-nc-sa/4.0/
# or send a letter to
# Creative Commons, PO Box 1866, Mountain View, CA 94042, USA.
#
# CIF created using the CSD Python API on 29 September 2022
# The structure has been converted into the P1 space group
# The structure has a 3D framework
# The original CSD entry NORCIJ is in the tetragonal crystal system
# The framework has been calculated to contain at least 10.0% void space
# The void calculation uses a probe of radius 1.32A, grid spacing 0.4
#
###############################################################################

data_NORCIJ
_chemical_formula_moiety         '(C92 H76 N76 O32 Zn16)n'
_symmetry_cell_setting           triclinic
_symmetry_space_group_name_H-M   'P 1'
_symmetry_Int_Tables_number      1
_space_group_name_Hall           'P 1'
loop_
_symmetry_equiv_pos_site_id
_symmetry_equiv_pos_as_xyz
1 x,y,z
_cell_length_a                   12.5250(5)
_cell_length_b                   12.5250(5)
_cell_length_c                   25.7921(10)
_cell_angle_alpha                90
_cell_angle_beta                 90
_cell_angle_gamma                90
_cell_volume                     4046.15
loop_
_atom_site_label
_atom_site_type_symbol
_atom_site_fract_x
_atom_site_fract_y
_atom_site_fract_z
Zn1 Zn 0.20803(5) 0.68629(4) 0.68717(2)
O1 O 0.2224(4) 0.6759(3) 0.59748(19)
O2 O 0.0709(5) 0.6861(4) 0.63672(15)
N1 N 0.2252(3) 0.5275(3) 0.70152(13)
N2 N 0.2252(3) 0.3827(3) 0.75100(12)
N3 N 0.2511(3) 0.3514(3) 0.70079(11)
N4 N 0.2744(3) 0.4454(3) 0.62156(13)
H1 H 0.265065 0.382857 0.608397
H2 H 0.232316 0.490151 0.606498
C1 C 0.1268(7) 0.6800(5) 0.5972(2)
C2 C 0.0677(5) 0.6711(5) 0.54558(17)
C3 C 0.1214(6) 0.6781(6) 0.500000
H3 H 0.195073 0.687719 0.500000
C5 C 0.2108(3) 0.4860(4) 0.74958(16)
H5 H 0.192721 0.526681 0.778430
C6 C 0.2509(3) 0.4397(4) 0.67354(15)
O3 O 0.2224(4) 0.6759(3) 0.40252(19)
O4 O 0.0709(5) 0.6861(4) 0.36328(15)
C7 C 0.1268(7) 0.6800(5) 0.4028(2)
C8 C 0.0677(5) 0.6711(5) 0.45442(17)
Zn2 Zn 0.31371(4) 0.20803(5) 0.68717(2)
N6 N 0.4725(3) 0.2252(3) 0.70152(13)
N7 N 0.6173(3) 0.2252(3) 0.75100(12)
N8 N 0.6486(3) 0.2511(3) 0.70079(11)
N9 N 0.5546(3) 0.2744(3) 0.62156(13)
H7 H 0.617143 0.265065 0.608397
H8 H 0.509849 0.232316 0.606498
C10 C 0.5140(4) 0.2108(3) 0.74958(16)
H9 H 0.473319 0.192721 0.778430
C11 C 0.5603(4) 0.2509(3) 0.67354(15)
Zn3 Zn 0.79197(5) 0.31371(4) 0.68717(2)
Zn4 Zn 0.20803(5) 0.68629(4) 0.31283(2)
Zn5 Zn 0.18629(4) 0.29197(5) 0.81283(2)
Zn6 Zn 0.70803(5) 0.18629(4) 0.81283(2)
O5 O 0.3241(3) 0.2224(4) 0.59748(19)
O6 O 0.3139(4) 0.0709(5) 0.63672(15)
N10 N 0.2748(3) 0.1173(3) 0.74900(12)
N11 N 0.1173(3) 0.7252(3) 0.74900(12)
N12 N 0.3514(3) 0.7489(3) 0.70079(11)
C1_2 C 0.3200(5) 0.1268(7) 0.5972(2)
C2_2 C 0.3289(5) 0.0677(5) 0.54558(17)
C3_2 C 0.3219(6) 0.1214(6) 0.500000
H3_2 H 0.312281 0.195073 0.500000
O3_2 O 0.3241(3) 0.2224(4) 0.40252(19)
O4_2 O 0.3139(4) 0.0709(5) 0.36328(15)
C7_2 C 0.3200(5) 0.1268(7) 0.4028(2)
C8_2 C 0.3289(5) 0.0677(5) 0.45442(17)
N6_2 N 0.7748(3) 0.4725(3) 0.70152(13)
N7_2 N 0.7748(3) 0.6173(3) 0.75100(12)
N8_2 N 0.7489(3) 0.6486(3) 0.70079(11)
N9_2 N 0.7256(3) 0.5546(3) 0.62156(13)
H7_2 H 0.734935 0.617143 0.608397
H8_2 H 0.767684 0.509849 0.606498
C10_2 C 0.7892(3) 0.5140(4) 0.74958(16)
H9_2 H 0.807279 0.473319 0.778430
C11_2 C 0.7491(3) 0.5603(4) 0.67354(15)
Zn3_2 Zn 0.68629(4) 0.79197(5) 0.68717(2)
Zn4_2 Zn 0.31371(4) 0.20803(5) 0.31283(2)
Zn6_2 Zn 0.81371(4) 0.70803(5) 0.81283(2)
O5_2 O 0.7776(4) 0.3241(3) 0.59748(19)
O6_2 O 0.9291(5) 0.3139(4) 0.63672(15)
N10_2 N 0.8827(3) 0.2748(3) 0.74900(12)
C1_3 C 0.8732(7) 0.3200(5) 0.5972(2)
C2_3 C 0.9323(5) 0.3289(5) 0.54558(17)
C3_3 C 0.8786(6) 0.3219(6) 0.500000
H3_3 H 0.804927 0.312281 0.500000
O3_3 O 0.7776(4) 0.3241(3) 0.40252(19)
O4_3 O 0.9291(5) 0.3139(4) 0.36328(15)
C7_3 C 0.8732(7) 0.3200(5) 0.4028(2)
C8_3 C 0.9323(5) 0.3289(5) 0.45442(17)
N6_3 N 0.5275(3) 0.7748(3) 0.70152(13)
N7_3 N 0.3827(3) 0.7748(3) 0.75100(12)
N9_3 N 0.4454(3) 0.7256(3) 0.62156(13)
H7_3 H 0.382857 0.734935 0.608397
H8_3 H 0.490151 0.767684 0.606498
C10_3 C 0.4860(4) 0.7892(3) 0.74958(16)
H9_3 H 0.526681 0.807279 0.778430
C11_3 C 0.4397(4) 0.7491(3) 0.67354(15)
Zn4_3 Zn 0.79197(5) 0.31371(4) 0.31283(2)
Zn6_3 Zn 0.29197(5) 0.81371(4) 0.81283(2)
O5_3 O 0.6759(3) 0.7776(4) 0.59748(19)
O6_3 O 0.6861(4) 0.9291(5) 0.63672(15)
N10_3 N 0.7252(3) 0.8827(3) 0.74900(12)
C1_4 C 0.6800(5) 0.8732(7) 0.5972(2)
C2_4 C 0.6711(5) 0.9323(5) 0.54558(17)
C3_4 C 0.6781(6) 0.8786(6) 0.500000
H3_4 H 0.687719 0.804927 0.500000
O3_4 O 0.6759(3) 0.7776(4) 0.40252(19)
O4_4 O 0.6861(4) 0.9291(5) 0.36328(15)
C7_4 C 0.6800(5) 0.8732(7) 0.4028(2)
C8_4 C 0.6711(5) 0.9323(5) 0.45442(17)
Zn4_4 Zn 0.68629(4) 0.79197(5) 0.31283(2)
N7_4 N 0.1173(3) 0.7252(3) 0.25100(12)
N8_3 N 0.1486(3) 0.7511(3) 0.20079(11)
N9_4 N 0.0546(3) 0.7744(3) 0.12156(13)
H7_4 H 0.117143 0.765065 0.108397
H8_4 H 0.009849 0.732316 0.106498
C10_4 C 0.0140(4) 0.7108(3) 0.24958(16)
C11_4 C 0.0603(4) 0.7509(3) 0.17354(15)
Zn3_3 Zn 0.29197(5) 0.81371(4) 0.18717(2)
Zn1_2 Zn 0.70803(5) 0.18629(4) 0.18717(2)
O1_2 O 0.7224(4) 0.1759(3) 0.09748(19)
O2_2 O 0.5709(5) 0.1861(4) 0.13672(15)
N1_2 N 0.7252(3) 0.0275(3) 0.20152(13)
N5 N 0.4025(6) 0.1419(8) 0.000000
C1_5 C 0.6268(7) 0.1800(5) 0.0972(2)
C2_5 C 0.5677(5) 0.1711(5) 0.04558(17)
C3_5 C 0.6214(6) 0.1781(6) 0.000000
H3_5 H 0.695073 0.187719 0.000000
C4 C 0.4586(6) 0.1532(6) 0.0437(2)
H4 H 0.421969 0.148775 0.074968
H5_2 H 0.692721 0.026681 0.278430
N11_2 N 0.6173(3) 0.2252(3) 0.24900(12)
N12_2 N 0.8514(3) 0.2489(3) 0.20079(11)
N5_2 N 0.4025(6) 0.1419(8) 1.000000
C3_6 C 0.6214(6) 0.1781(6) 1.000000
H3_6 H 0.695073 0.187719 1.000000
O3_5 O 0.7224(4) 0.1759(3) 0.90252(19)
O4_5 O 0.5709(5) 0.1861(4) 0.86328(15)
C7_5 C 0.6268(7) 0.1800(5) 0.9028(2)
C8_5 C 0.5677(5) 0.1711(5) 0.95442(17)
C9 C 0.4586(6) 0.1532(6) 0.9563(2)
H6 H 0.421969 0.148775 0.925032
N2_2 N 0.7252(3) 0.8827(3) 0.25100(12)
N3_2 N 0.7511(3) 0.8514(3) 0.20079(11)
N4_2 N 0.7744(3) 0.9454(3) 0.12156(13)
H1_2 H 0.765065 0.882857 0.108397
H2_2 H 0.732316 0.990151 0.106498
C5_2 C 0.7108(3) 0.9860(4) 0.24958(16)
C6_2 C 0.7509(3) 0.9397(4) 0.17354(15)
Zn2_2 Zn 0.81371(4) 0.70803(5) 0.18717(2)
N6_4 N 0.9725(3) 0.7252(3) 0.20152(13)
H9_4 H 0.973319 0.692721 0.278430
O5_4 O 0.8241(3) 0.7224(4) 0.09748(19)
O6_4 O 0.8139(4) 0.5709(5) 0.13672(15)
N10_4 N 0.7748(3) 0.6173(3) 0.24900(12)
N7_5 N 0.2748(3) 0.1173(3) 0.25100(12)
N8_4 N 0.2489(3) 0.1486(3) 0.20079(11)
N9_5 N 0.2256(3) 0.0546(3) 0.12156(13)
H7_5 H 0.234935 0.117143 0.108397
H8_5 H 0.267684 0.009849 0.106498
C10_5 C 0.2892(3) 0.0140(4) 0.24958(16)
C11_5 C 0.2491(3) 0.0603(4) 0.17354(15)
Zn3_4 Zn 0.18629(4) 0.29197(5) 0.18717(2)
N6_5 N 0.2748(3) 0.9725(3) 0.20152(13)
H9_5 H 0.307279 0.973319 0.278430
O5_5 O 0.2776(4) 0.8241(3) 0.09748(19)
O6_5 O 0.4291(5) 0.8139(4) 0.13672(15)
N10_5 N 0.3827(3) 0.7748(3) 0.24900(12)
N5_3 N 0.8581(8) 0.4025(6) 0.000000
C1_6 C 0.8200(5) 0.6268(7) 0.0972(2)
C2_6 C 0.8289(5) 0.5677(5) 0.04558(17)
C3_7 C 0.8219(6) 0.6214(6) 0.000000
H3_7 H 0.812281 0.695073 0.000000
C4_2 C 0.8468(6) 0.4586(6) 0.0437(2)
H4_2 H 0.851225 0.421969 0.074968
N5_4 N 0.8581(8) 0.4025(6) 1.000000
C3_8 C 0.8219(6) 0.6214(6) 1.000000
H3_8 H 0.812281 0.695073 1.000000
O3_6 O 0.8241(3) 0.7224(4) 0.90252(19)
O4_6 O 0.8139(4) 0.5709(5) 0.86328(15)
C7_6 C 0.8200(5) 0.6268(7) 0.9028(2)
C8_6 C 0.8289(5) 0.5677(5) 0.95442(17)
C9_2 C 0.8468(6) 0.4586(6) 0.9563(2)
H6_2 H 0.851225 0.421969 0.925032
N6_6 N 0.0275(3) 0.2748(3) 0.20152(13)
H9_6 H 0.026681 0.307279 0.278430
O5_6 O 0.1759(3) 0.2776(4) 0.09748(19)
O6_6 O 0.1861(4) 0.4291(5) 0.13672(15)
N10_6 N 0.2252(3) 0.3827(3) 0.24900(12)
N5_5 N 0.5975(6) 0.8581(8) 0.000000
C1_7 C 0.3732(7) 0.8200(5) 0.0972(2)
C2_7 C 0.4323(5) 0.8289(5) 0.04558(17)
C3_9 C 0.3786(6) 0.8219(6) 0.000000
H3_9 H 0.304927 0.812281 0.000000
C4_3 C 0.5414(6) 0.8468(6) 0.0437(2)
H4_3 H 0.578031 0.851225 0.074968
N5_6 N 0.5975(6) 0.8581(8) 1.000000
C3_10 C 0.3786(6) 0.8219(6) 1.000000
H3_10 H 0.304927 0.812281 1.000000
O3_7 O 0.2776(4) 0.8241(3) 0.90252(19)
O4_7 O 0.4291(5) 0.8139(4) 0.86328(15)
C7_7 C 0.3732(7) 0.8200(5) 0.9028(2)
C8_7 C 0.4323(5) 0.8289(5) 0.95442(17)
C9_3 C 0.5414(6) 0.8468(6) 0.9563(2)
H6_3 H 0.578031 0.851225 0.925032
N7_6 N 0.8827(3) 0.2748(3) 0.25100(12)
N9_6 N 0.9454(3) 0.2256(3) 0.12156(13)
H7_6 H 0.882857 0.234935 0.108397
H8_6 H 0.990151 0.267684 0.106498
C10_6 C 0.9860(4) 0.2892(3) 0.24958(16)
C11_6 C 0.9397(4) 0.2491(3) 0.17354(15)
N5_7 N 0.1419(8) 0.5975(6) 0.000000
C1_8 C 0.1800(5) 0.3732(7) 0.0972(2)
C2_8 C 0.1711(5) 0.4323(5) 0.04558(17)
C3_11 C 0.1781(6) 0.3786(6) 0.000000
H3_11 H 0.187719 0.304927 0.000000
C4_4 C 0.1532(6) 0.5414(6) 0.0437(2)
H4_4 H 0.148775 0.578031 0.074968
N5_8 N 0.1419(8) 0.5975(6) 1.000000
C3_12 C 0.1781(6) 0.3786(6) 1.000000
H3_12 H 0.187719 0.304927 1.000000
O3_8 O 0.1759(3) 0.2776(4) 0.90252(19)
O4_8 O 0.1861(4) 0.4291(5) 0.86328(15)
C7_8 C 0.1800(5) 0.3732(7) 0.9028(2)
C8_8 C 0.1711(5) 0.4323(5) 0.95442(17)
C9_4 C 0.1532(6) 0.5414(6) 0.9563(2)
H6_4 H 0.148775 0.578031 0.925032
N1_3 N 0.7748(3) 0.4725(3) 0.29848(13)
N3_3 N 0.7489(3) 0.6486(3) 0.29921(11)
N4_3 N 0.7256(3) 0.5546(3) 0.37844(13)
H1_3 H 0.734935 0.617143 0.391603
H2_3 H 0.767684 0.509849 0.393502
C5_3 C 0.7892(3) 0.5140(4) 0.25042(16)
H5_3 H 0.807279 0.473319 0.221570
C6_3 C 0.7491(3) 0.5603(4) 0.32646(15)
N6_7 N 0.5275(3) 0.7748(3) 0.29848(13)
N8_5 N 0.3514(3) 0.7489(3) 0.29921(11)
N9_7 N 0.4454(3) 0.7256(3) 0.37844(13)
H7_7 H 0.382857 0.734935 0.391603
H8_7 H 0.490151 0.767684 0.393502
C10_7 C 0.4860(4) 0.7892(3) 0.25042(16)
H9_7 H 0.526681 0.807279 0.221570
C11_7 C 0.4397(4) 0.7491(3) 0.32646(15)
N12_3 N 0.6486(3) 0.2511(3) 0.29921(11)
N6_8 N 0.2252(3) 0.5275(3) 0.29848(13)
N8_6 N 0.2511(3) 0.3514(3) 0.29921(11)
N9_8 N 0.2744(3) 0.4454(3) 0.37844(13)
H7_8 H 0.265065 0.382857 0.391603
H8_8 H 0.232316 0.490151 0.393502
C10_8 C 0.2108(3) 0.4860(4) 0.25042(16)
H9_8 H 0.192721 0.526681 0.221570
C11_8 C 0.2509(3) 0.4397(4) 0.32646(15)
N6_9 N 0.4725(3) 0.2252(3) 0.29848(13)
N9_9 N 0.5546(3) 0.2744(3) 0.37844(13)
H7_9 H 0.617143 0.265065 0.391603
H8_9 H 0.509849 0.232316 0.393502
C10_9 C 0.5140(4) 0.2108(3) 0.25042(16)
H9_9 H 0.473319 0.192721 0.221570
C11_9 C 0.5603(4) 0.2509(3) 0.32646(15)
N3_4 N 0.2489(3) 0.1486(3) 0.79921(11)
N4_4 N 0.2256(3) 0.0546(3) 0.87844(13)
H1_4 H 0.234935 0.117143 0.891603
H2_4 H 0.267684 0.009849 0.893502
C5_4 C 0.2892(3) 0.0140(4) 0.75042(16)
C6_4 C 0.2491(3) 0.0603(4) 0.82646(15)
N6_10 N 0.0275(3) 0.2748(3) 0.79848(13)
H9_10 H 0.026681 0.307279 0.721570
N1_4 N 0.2748(3) 0.9725(3) 0.79848(13)
H5_4 H 0.307279 0.973319 0.721570
N12_4 N 0.1486(3) 0.7511(3) 0.79921(11)
N8_7 N 0.8514(3) 0.2489(3) 0.79921(11)
N9_10 N 0.9454(3) 0.2256(3) 0.87844(13)
H7_10 H 0.882857 0.234935 0.891603
H8_10 H 0.990151 0.267684 0.893502
C10_10 C 0.9860(4) 0.2892(3) 0.75042(16)
C11_10 C 0.9397(4) 0.2491(3) 0.82646(15)
N6_11 N 0.7252(3) 0.0275(3) 0.79848(13)
H9_11 H 0.692721 0.026681 0.721570
N8_8 N 0.7511(3) 0.8514(3) 0.79921(11)
N9_11 N 0.7744(3) 0.9454(3) 0.87844(13)
H7_11 H 0.765065 0.882857 0.891603
H8_11 H 0.732316 0.990151 0.893502
C10_11 C 0.7108(3) 0.9860(4) 0.75042(16)
C11_11 C 0.7509(3) 0.9397(4) 0.82646(15)
N9_12 N 0.0546(3) 0.7744(3) 0.87844(13)
H7_12 H 0.117143 0.765065 0.891603
H8_12 H 0.009849 0.732316 0.893502
C10_12 C 0.0140(4) 0.7108(3) 0.75042(16)
C11_12 C 0.0603(4) 0.7509(3) 0.82646(15)
N6_12 N 0.9725(3) 0.7252(3) 0.79848(13)
H9_12 H 0.973319 0.692721 0.721570
N5_9 N 0.9025(6) 0.6419(8) 0.500000
C4_5 C 0.9586(6) 0.6532(6) 0.5437(2)
H4_5 H 0.921969 0.648775 0.574968
C9_5 C 0.9586(6) 0.6532(6) 0.4563(2)
H6_5 H 0.921969 0.648775 0.425032
N5_10 N 0.3581(8) 0.9025(6) 0.500000
C4_6 C 0.3468(6) 0.9586(6) 0.5437(2)
H4_6 H 0.351225 0.921969 0.574968
C9_6 C 0.3468(6) 0.9586(6) 0.4563(2)
H6_6 H 0.351225 0.921969 0.425032
N5_11 N 0.0975(6) 0.3581(8) 0.500000
C4_7 C 0.0414(6) 0.3468(6) 0.5437(2)
H4_7 H 0.078031 0.351225 0.574968
C9_7 C 0.0414(6) 0.3468(6) 0.4563(2)
H6_7 H 0.078031 0.351225 0.425032
N5_12 N 0.6419(8) 0.0975(6) 0.500000
C4_8 C 0.6532(6) 0.0414(6) 0.5437(2)
H4_8 H 0.648775 0.078031 0.574968
C9_8 C 0.6532(6) 0.0414(6) 0.4563(2)
H6_8 H 0.648775 0.078031 0.425032
loop_
_geom_bond_atom_site_label_1
_geom_bond_atom_site_label_2
_geom_bond_site_symmetry_1
_geom_bond_site_symmetry_2
Zn1 O1 1_555 1_555
O1 C1 1_555 1_555
O2 Zn1 1_555 1_555
N1 Zn1 1_555 1_555
N2 N3 1_555 1_555
N3 C6 1_555 1_555
N4 H1 1_555 1_555
H2 N4 1_555 1_555
C1 O2 1_555 1_555
C2 C1 1_555 1_555
C3 C2 1_555 1_555
H3 C3 1_555 1_555
C5 N1 1_555 1_555
H5 C5 1_555 1_555
C6 N1 1_555 1_555
O3 C7 1_555 1_555
O4 C7 1_555 1_555
C7 C8 1_555 1_555
C8 C3 1_555 1_555
Zn2 N3 1_555 1_555
N6 Zn2 1_555 1_555
N7 N8 1_555 1_555
N8 C11 1_555 1_555
N9 H7 1_555 1_555
H8 N9 1_555 1_555
C10 N6 1_555 1_555
H9 C10 1_555 1_555
C11 N6 1_555 1_555
Zn3 N8 1_555 1_555
Zn4 O3 1_555 1_555
Zn5 N2 1_555 1_555
Zn6 N7 1_555 1_555
O5 Zn2 1_555 1_555
O6 Zn2 1_555 1_555
N10 Zn2 1_555 1_555
N11 Zn1 1_555 1_555
N12 Zn1 1_555 1_555
N2 C5 1_555 1_555
N4 C6 1_555 1_555
O4 Zn4 1_555 1_555
N7 C10 1_555 1_555
N9 C11 1_555 1_555
O5 C1_2 1_555 1_555
C1_2 O6 1_555 1_555
C2_2 C1_2 1_555 1_555
C3_2 C2_2 1_555 1_555
H3_2 C3_2 1_555 1_555
O3_2 C7_2 1_555 1_555
O4_2 C7_2 1_555 1_555
C7_2 C8_2 1_555 1_555
C8_2 C3_2 1_555 1_555
N6_2 Zn3 1_555 1_555
N7_2 N8_2 1_555 1_555
N8_2 C11_2 1_555 1_555
N9_2 H7_2 1_555 1_555
H8_2 N9_2 1_555 1_555
C10_2 N6_2 1_555 1_555
H9_2 C10_2 1_555 1_555
C11_2 N6_2 1_555 1_555
Zn3_2 N8_2 1_555 1_555
Zn4_2 O3_2 1_555 1_555
Zn6_2 N7_2 1_555 1_555
O5_2 Zn3 1_555 1_555
O6_2 Zn3 1_555 1_555
N10_2 Zn3 1_555 1_555
O4_2 Zn4_2 1_555 1_555
N7_2 C10_2 1_555 1_555
N9_2 C11_2 1_555 1_555
O5_2 C1_3 1_555 1_555
C1_3 O6_2 1_555 1_555
C2_3 C1_3 1_555 1_555
C3_3 C2_3 1_555 1_555
H3_3 C3_3 1_555 1_555
O3_3 C7_3 1_555 1_555
O4_3 C7_3 1_555 1_555
C7_3 C8_3 1_555 1_555
C8_3 C3_3 1_555 1_555
N6_3 Zn3_2 1_555 1_555
N7_3 N12 1_555 1_555
N12 C11_3 1_555 1_555
N9_3 H7_3 1_555 1_555
H8_3 N9_3 1_555 1_555
C10_3 N6_3 1_555 1_555
H9_3 C10_3 1_555 1_555
C11_3 N6_3 1_555 1_555
Zn4_3 O3_3 1_555 1_555
Zn6_3 N7_3 1_555 1_555
O5_3 Zn3_2 1_555 1_555
O6_3 Zn3_2 1_555 1_555
N10_3 Zn3_2 1_555 1_555
O4_3 Zn4_3 1_555 1_555
N7_3 C10_3 1_555 1_555
N9_3 C11_3 1_555 1_555
O5_3 C1_4 1_555 1_555
C1_4 O6_3 1_555 1_555
C2_4 C1_4 1_555 1_555
C3_4 C2_4 1_555 1_555
H3_4 C3_4 1_555 1_555
O3_4 C7_4 1_555 1_555
O4_4 C7_4 1_555 1_555
C7_4 C8_4 1_555 1_555
C8_4 C3_4 1_555 1_555
Zn4_4 O3_4 1_555 1_555
O4_4 Zn4_4 1_555 1_555
N7_4 N8_3 1_555 1_555
N8_3 C11_4 1_555 1_555
N9_4 H7_4 1_555 1_555
H8_4 N9_4 1_555 1_555
Zn3_3 N8_3 1_555 1_555
Zn4 N7_4 1_555 1_555
N7_4 C10_4 1_555 1_555
N9_4 C11_4 1_555 1_555
Zn1_2 O1_2 1_555 1_555
O1_2 C1_5 1_555 1_555
O2_2 Zn1_2 1_555 1_555
N1_2 Zn1_2 1_555 1_555
N5 C4 1_555 1_555
C1_5 O2_2 1_555 1_555
C2_5 C1_5 1_555 1_555
C3_5 C2_5 1_555 1_555
H3_5 C3_5 1_555 1_555
C4 C2_5 1_555 1_555
H4 C4 1_555 1_555
N11_2 Zn1_2 1_555 1_555
N12_2 Zn1_2 1_555 1_555
H3_6 C3_6 1_555 1_555
O3_5 C7_5 1_555 1_555
O4_5 C7_5 1_555 1_555
C7_5 C8_5 1_555 1_555
C8_5 C3_6 1_555 1_555
C9 N5_2 1_555 1_555
H6 C9 1_555 1_555
Zn6 O3_5 1_555 1_555
O4_5 Zn6 1_555 1_555
C8_5 C9 1_555 1_555
N2_2 N3_2 1_555 1_555
N3_2 C6_2 1_555 1_555
N4_2 H1_2 1_555 1_555
H2_2 N4_2 1_555 1_555
Zn2_2 N3_2 1_555 1_555
N6_4 Zn2_2 1_555 1_555
Zn4_4 N2_2 1_555 1_555
O5_4 Zn2_2 1_555 1_555
O6_4 Zn2_2 1_555 1_555
N10_4 Zn2_2 1_555 1_555
N2_2 C5_2 1_555 1_555
N4_2 C6_2 1_555 1_555
N7_5 N8_4 1_555 1_555
N8_4 C11_5 1_555 1_555
N9_5 H7_5 1_555 1_555
H8_5 N9_5 1_555 1_555
Zn3_4 N8_4 1_555 1_555
Zn4_2 N7_5 1_555 1_555
N7_5 C10_5 1_555 1_555
N9_5 C11_5 1_555 1_555
N6_5 Zn3_3 1_555 1_555
O5_5 Zn3_3 1_555 1_555
O6_5 Zn3_3 1_555 1_555
N10_5 Zn3_3 1_555 1_555
O5_4 C1_6 1_555 1_555
N5_3 C4_2 1_555 1_555
C1_6 O6_4 1_555 1_555
C2_6 C1_6 1_555 1_555
C3_7 C2_6 1_555 1_555
H3_7 C3_7 1_555 1_555
C4_2 C2_6 1_555 1_555
H4_2 C4_2 1_555 1_555
H3_8 C3_8 1_555 1_555
O3_6 C7_6 1_555 1_555
O4_6 C7_6 1_555 1_555
C7_6 C8_6 1_555 1_555
C8_6 C3_8 1_555 1_555
C9_2 N5_4 1_555 1_555
H6_2 C9_2 1_555 1_555
Zn6_2 O3_6 1_555 1_555
O4_6 Zn6_2 1_555 1_555
C8_6 C9_2 1_555 1_555
N6_6 Zn3_4 1_555 1_555
O5_6 Zn3_4 1_555 1_555
O6_6 Zn3_4 1_555 1_555
N10_6 Zn3_4 1_555 1_555
O5_5 C1_7 1_555 1_555
N5_5 C4_3 1_555 1_555
C1_7 O6_5 1_555 1_555
C2_7 C1_7 1_555 1_555
C3_9 C2_7 1_555 1_555
H3_9 C3_9 1_555 1_555
C4_3 C2_7 1_555 1_555
H4_3 C4_3 1_555 1_555
H3_10 C3_10 1_555 1_555
O3_7 C7_7 1_555 1_555
O4_7 C7_7 1_555 1_555
C7_7 C8_7 1_555 1_555
C8_7 C3_10 1_555 1_555
C9_3 N5_6 1_555 1_555
H6_3 C9_3 1_555 1_555
Zn6_3 O3_7 1_555 1_555
O4_7 Zn6_3 1_555 1_555
C8_7 C9_3 1_555 1_555
N7_6 N12_2 1_555 1_555
N12_2 C11_6 1_555 1_555
N9_6 H7_6 1_555 1_555
H8_6 N9_6 1_555 1_555
Zn4_3 N7_6 1_555 1_555
N7_6 C10_6 1_555 1_555
N9_6 C11_6 1_555 1_555
O5_6 C1_8 1_555 1_555
N5_7 C4_4 1_555 1_555
C1_8 O6_6 1_555 1_555
C2_8 C1_8 1_555 1_555
C3_11 C2_8 1_555 1_555
H3_11 C3_11 1_555 1_555
C4_4 C2_8 1_555 1_555
H4_4 C4_4 1_555 1_555
H3_12 C3_12 1_555 1_555
O3_8 C7_8 1_555 1_555
O4_8 C7_8 1_555 1_555
C7_8 C8_8 1_555 1_555
C8_8 C3_12 1_555 1_555
C9_4 N5_8 1_555 1_555
H6_4 C9_4 1_555 1_555
Zn5 O3_8 1_555 1_555
O4_8 Zn5 1_555 1_555
C8_8 C9_4 1_555 1_555
N1_3 Zn4_3 1_555 1_555
N10_4 N3_3 1_555 1_555
N3_3 C6_3 1_555 1_555
N4_3 H1_3 1_555 1_555
H2_3 N4_3 1_555 1_555
C5_3 N1_3 1_555 1_555
H5_3 C5_3 1_555 1_555
C6_3 N1_3 1_555 1_555
Zn4_4 N3_3 1_555 1_555
N6_7 Zn4_4 1_555 1_555
N10_5 N8_5 1_555 1_555
N8_5 C11_7 1_555 1_555
N9_7 H7_7 1_555 1_555
H8_7 N9_7 1_555 1_555
C10_7 N6_7 1_555 1_555
H9_7 C10_7 1_555 1_555
C11_7 N6_7 1_555 1_555
Zn4 N8_5 1_555 1_555
N12_3 Zn4_3 1_555 1_555
N10_4 C5_3 1_555 1_555
N4_3 C6_3 1_555 1_555
N10_5 C10_7 1_555 1_555
N9_7 C11_7 1_555 1_555
N6_8 Zn4 1_555 1_555
N10_6 N8_6 1_555 1_555
N8_6 C11_8 1_555 1_555
N9_8 H7_8 1_555 1_555
H8_8 N9_8 1_555 1_555
C10_8 N6_8 1_555 1_555
H9_8 C10_8 1_555 1_555
C11_8 N6_8 1_555 1_555
Zn4_2 N8_6 1_555 1_555
N10_6 C10_8 1_555 1_555
N9_8 C11_8 1_555 1_555
N6_9 Zn4_2 1_555 1_555
N11_2 N12_3 1_555 1_555
N12_3 C11_9 1_555 1_555
N9_9 H7_9 1_555 1_555
H8_9 N9_9 1_555 1_555
C10_9 N6_9 1_555 1_555
H9_9 C10_9 1_555 1_555
C11_9 N6_9 1_555 1_555
N11_2 C10_9 1_555 1_555
N9_9 C11_9 1_555 1_555
N10 N3_4 1_555 1_555
N3_4 C6_4 1_555 1_555
N4_4 H1_4 1_555 1_555
H2_4 N4_4 1_555 1_555
Zn5 N3_4 1_555 1_555
N6_10 Zn5 1_555 1_555
N10 C5_4 1_555 1_555
N4_4 C6_4 1_555 1_555
N1_4 Zn6_3 1_555 1_555
N12_4 Zn6_3 1_555 1_555
N10_2 N8_7 1_555 1_555
N8_7 C11_10 1_555 1_555
N9_10 H7_10 1_555 1_555
H8_10 N9_10 1_555 1_555
Zn6 N8_7 1_555 1_555
N10_2 C10_10 1_555 1_555
N9_10 C11_10 1_555 1_555
N6_11 Zn6 1_555 1_555
N10_3 N8_8 1_555 1_555
N8_8 C11_11 1_555 1_555
N9_11 H7_11 1_555 1_555
H8_11 N9_11 1_555 1_555
Zn6_2 N8_8 1_555 1_555
N10_3 C10_11 1_555 1_555
N9_11 C11_11 1_555 1_555
N11 N12_4 1_555 1_555
N12_4 C11_12 1_555 1_555
N9_12 H7_12 1_555 1_555
H8_12 N9_12 1_555 1_555
N11 C10_12 1_555 1_555
N9_12 C11_12 1_555 1_555
N6_12 Zn6_2 1_555 1_555
N5_9 C4_5 1_555 1_555
H4_5 C4_5 1_555 1_555
C9_5 N5_9 1_555 1_555
H6_5 C9_5 1_555 1_555
N5_10 C4_6 1_555 1_555
H4_6 C4_6 1_555 1_555
C9_6 N5_10 1_555 1_555
H6_6 C9_6 1_555 1_555
N5_11 C4_7 1_555 1_555
H4_7 C4_7 1_555 1_555
C9_7 N5_11 1_555 1_555
H6_7 C9_7 1_555 1_555
N5_12 C4_8 1_555 1_555
H4_8 C4_8 1_555 1_555
C9_8 N5_12 1_555 1_555
H6_8 C9_8 1_555 1_555

#END
