
###############################################################################
#
# This file contains modified crystal structure data generated from the
# MOF subset of the Cambridge Structural Database (CSD) v543 
# hosted by the Cambridge Crystallographic Data Centre (CCDC).
#
# This work is licensed under the Creative Commons
# Attribution-NonCommercial-ShareAlike 4.0 International License.
# To view a copy of this license, visit
# http://creativecommons.org/licenses/by-nc-sa/4.0/
# or send a letter to
# Creative Commons, PO Box 1866, Mountain View, CA 94042, USA.
#
# CIF created using the CSD Python API on 29 September 2022
# The structure has been converted into the P1 space group
# The structure has a 3D framework
# The original CSD entry NOSTUM is in the monoclinic crystal system
# The framework has been calculated to contain at least 10.0% void space
# The void calculation uses a probe of radius 1.32A, grid spacing 0.4
#
###############################################################################

data_NOSTUM
_chemical_formula_moiety         '(C32 H32 Mg6 O30)n'
_symmetry_cell_setting           triclinic
_symmetry_space_group_name_H-M   'P 1'
_symmetry_Int_Tables_number      1
_space_group_name_Hall           'P 1'
loop_
_symmetry_equiv_pos_site_id
_symmetry_equiv_pos_as_xyz
1 x,y,z
_cell_length_a                   13.5104(4)
_cell_length_b                   14.1107(4)
_cell_length_c                   8.8000(3)
_cell_angle_alpha                90
_cell_angle_beta                 114.617(2)
_cell_angle_gamma                90
_cell_volume                     1525.17
loop_
_atom_site_label
_atom_site_type_symbol
_atom_site_fract_x
_atom_site_fract_y
_atom_site_fract_z
Mg2 Mg 0.5000 0.07867(5) 0.2500
Mg1 Mg -0.0000 0.57867(5) 0.2500
O1 O 0.09186(10) 0.57597(8) 0.11542(14)
O4 O 0.09882(11) 0.68374(8) 0.40520(15)
C1 C 0.12247(11) 0.58460(9) 0.00145(17)
C3 C 0.21846(12) 0.73508(10) 0.12985(17)
H2 H 0.1971 0.7253 0.2164
H3 H 0.066(2) 0.7375(12) 0.373(3)
H4 H 0.136(2) 0.6657(18) 0.352(4)
O6 O 0.39485(10) 0.97553(8) 0.11460(14)
O7 O 0.30672(10) 0.87519(8) 0.26505(13)
H5 H 0.3490 0.9155 0.2602
C6 C 0.31204(11) 0.83010(9) 0.00134(16)
C8 C 0.28015(12) 0.81431(9) 0.13280(17)
O11 O 0.10515(10) 0.47553(8) 0.38540(14)
O2 O 0.10515(10) 0.52447(8) 0.88540(14)
O3 O 0.19328(10) 0.62481(8) 0.73495(13)
H1 H 0.1510 0.5845 0.7398
C2 C 0.18796(11) 0.66990(9) 0.99866(16)
C4 C 0.21985(12) 0.68569(9) 0.86720(17)
O5 O 0.40814(10) 0.92403(8) 0.88458(14)
C5 C 0.37753(11) 0.91540(9) 0.99855(17)
C7 C 0.28154(12) 0.76492(10) 0.87015(17)
H6 H 0.3029 0.7747 0.7836
Mg3 Mg 0.0000 0.42133(5) 0.7500
Mg4 Mg 0.5000 0.92133(5) 0.7500
Mg1_2 Mg 1.0000 0.57867(5) 0.2500
O8 O 0.90118(11) 0.68374(8) 0.09480(15)
H7 H 0.934(2) 0.7375(12) 0.127(3)
H8 H 0.864(2) 0.6657(18) 0.148(4)
O9 O 0.90814(10) 0.57597(8) 0.38458(14)
O10 O 0.89485(10) 0.47553(8) 0.11460(14)
Mg3_2 Mg 1.0000 0.42133(5) 0.7500
O2_2 O 0.89485(10) 0.52447(8) 0.61460(14)
O3_2 O 0.80672(10) 0.62481(8) 0.76505(13)
H1_2 H 0.8490 0.5845 0.7602
C1_2 C 0.87753(11) 0.58460(9) 0.49855(17)
C2_2 C 0.81204(11) 0.66990(9) 0.50134(16)
C3_2 C 0.78154(12) 0.73508(10) 0.37015(17)
H2_2 H 0.8029 0.7253 0.2836
C4_2 C 0.78015(12) 0.68569(9) 0.63280(17)
O5_2 O 0.59186(10) 0.92403(8) 0.61542(14)
O6_2 O 0.60515(10) 0.97553(8) 0.38540(14)
O7_2 O 0.69328(10) 0.87519(8) 0.23495(13)
H5_2 H 0.6510 0.9155 0.2398
C5_2 C 0.62247(11) 0.91540(9) 0.50145(17)
C6_2 C 0.68796(11) 0.83010(9) 0.49866(16)
C7_2 C 0.71846(12) 0.76492(10) 0.62985(17)
H6_2 H 0.6971 0.7747 0.7164
C8_2 C 0.71985(12) 0.81431(9) 0.36720(17)
O1_2 O 0.59186(10) 0.07597(8) 0.11542(14)
O4_2 O 0.59882(11) 0.18374(8) 0.40520(15)
C1_3 C 0.62247(11) 0.08460(9) 0.00145(17)
C3_3 C 0.71846(12) 0.23508(10) 0.12985(17)
H2_3 H 0.6971 0.2253 0.2164
H3_2 H 0.566(2) 0.2375(12) 0.373(3)
H4_2 H 0.636(2) 0.1657(18) 0.352(4)
O7_3 O 0.80672(10) 0.37519(8) 0.26505(13)
H5_3 H 0.8490 0.4155 0.2602
C6_3 C 0.81204(11) 0.33010(9) 0.00134(16)
C8_3 C 0.78015(12) 0.31431(9) 0.13280(17)
O8_2 O 0.40118(11) 0.18374(8) 0.09480(15)
H7_2 H 0.434(2) 0.2375(12) 0.127(3)
H8_2 H 0.364(2) 0.1657(18) 0.148(4)
O9_2 O 0.40814(10) 0.07597(8) 0.38458(14)
O2_3 O 0.60515(10) 0.02447(8) 0.88540(14)
O3_3 O 0.69328(10) 0.12481(8) 0.73495(13)
H1_3 H 0.6510 0.0845 0.7398
C2_3 C 0.68796(11) 0.16990(9) 0.99866(16)
C4_3 C 0.71985(12) 0.18569(9) 0.86720(17)
O5_3 O 0.90814(10) 0.42403(8) 0.88458(14)
C5_3 C 0.87753(11) 0.41540(9) 0.99855(17)
C7_3 C 0.78154(12) 0.26492(10) 0.87015(17)
H6_3 H 0.8029 0.2747 0.7836
O2_4 O 0.39485(10) 0.02447(8) 0.61460(14)
O3_4 O 0.30672(10) 0.12481(8) 0.76505(13)
H1_4 H 0.3490 0.0845 0.7602
C1_4 C 0.37753(11) 0.08460(9) 0.49855(17)
C2_4 C 0.31204(11) 0.16990(9) 0.50134(16)
C3_4 C 0.28154(12) 0.23508(10) 0.37015(17)
H2_4 H 0.3029 0.2253 0.2836
C4_4 C 0.28015(12) 0.18569(9) 0.63280(17)
O5_4 O 0.09186(10) 0.42403(8) 0.61542(14)
O7_4 O 0.19328(10) 0.37519(8) 0.23495(13)
H5_4 H 0.1510 0.4155 0.2398
C5_4 C 0.12247(11) 0.41540(9) 0.50145(17)
C6_4 C 0.18796(11) 0.33010(9) 0.49866(16)
C7_4 C 0.21846(12) 0.26492(10) 0.62985(17)
H6_4 H 0.1971 0.2747 0.7164
C8_4 C 0.21985(12) 0.31431(9) 0.36720(17)
O8_3 O 0.09882(11) 0.31626(8) 0.90520(15)
H7_3 H 0.066(2) 0.2625(12) 0.873(3)
H8_3 H 0.136(2) 0.3343(18) 0.852(4)
O4_3 O 0.90118(11) 0.31626(8) 0.59480(15)
H3_3 H 0.934(2) 0.2625(12) 0.627(3)
H4_3 H 0.864(2) 0.3343(18) 0.648(4)
O4_4 O 0.40118(11) 0.81626(8) 0.59480(15)
H3_4 H 0.434(2) 0.7625(12) 0.627(3)
H4_4 H 0.364(2) 0.8343(18) 0.648(4)
O8_4 O 0.59882(11) 0.81626(8) 0.90520(15)
H7_4 H 0.566(2) 0.7625(12) 0.873(3)
H8_4 H 0.636(2) 0.8343(18) 0.852(4)
loop_
_geom_bond_atom_site_label_1
_geom_bond_atom_site_label_2
_geom_bond_site_symmetry_1
_geom_bond_site_symmetry_2
Mg1 O1 1_555 1_555
O1 C1 1_555 1_555
O4 Mg1 1_555 1_555
C3 H2 1_555 1_555
H3 O4 1_555 1_555
H4 O4 1_555 1_555
O7 H5 1_555 1_555
C8 C3 1_555 1_555
O11 Mg1 1_555 1_555
O7 C8 1_555 1_555
C6 C8 1_555 1_555
O3 H1 1_555 1_555
C4 O3 1_555 1_555
O5 C5 1_555 1_555
C7 C4 1_555 1_555
H6 C7 1_555 1_555
Mg3 O2 1_555 1_555
Mg4 O5 1_555 1_555
C2 C4 1_555 1_555
O8 Mg1_2 1_555 1_555
H7 O8 1_555 1_555
H8 O8 1_555 1_555
O9 Mg1_2 1_555 1_555
O10 Mg1_2 1_555 1_555
O9 C1_2 1_555 1_555
O2_2 C1_2 1_555 1_555
O3_2 H1_2 1_555 1_555
C1_2 C2_2 1_555 1_555
C2_2 C3_2 1_555 1_555
C3_2 H2_2 1_555 1_555
C4_2 O3_2 1_555 1_555
O5_2 C5_2 1_555 1_555
O6_2 C5_2 1_555 1_555
O7_2 H5_2 1_555 1_555
C5_2 C6_2 1_555 1_555
C6_2 C7_2 1_555 1_555
C7_2 C4_2 1_555 1_555
H6_2 C7_2 1_555 1_555
C8_2 C3_2 1_555 1_555
Mg3_2 O2_2 1_555 1_555
Mg4 O5_2 1_555 1_555
C2_2 C4_2 1_555 1_555
O7_2 C8_2 1_555 1_555
C6_2 C8_2 1_555 1_555
Mg2 O1_2 1_555 1_555
O1_2 C1_3 1_555 1_555
O4_2 Mg2 1_555 1_555
C3_3 H2_3 1_555 1_555
H3_2 O4_2 1_555 1_555
H4_2 O4_2 1_555 1_555
O7_3 H5_3 1_555 1_555
C8_3 C3_3 1_555 1_555
O8_2 Mg2 1_555 1_555
H7_2 O8_2 1_555 1_555
H8_2 O8_2 1_555 1_555
O9_2 Mg2 1_555 1_555
O7_3 C8_3 1_555 1_555
C6_3 C8_3 1_555 1_555
O3_3 H1_3 1_555 1_555
C4_3 O3_3 1_555 1_555
O5_3 C5_3 1_555 1_555
C7_3 C4_3 1_555 1_555
H6_3 C7_3 1_555 1_555
Mg3_2 O5_3 1_555 1_555
C2_3 C4_3 1_555 1_555
O9_2 C1_4 1_555 1_555
O2_4 C1_4 1_555 1_555
O3_4 H1_4 1_555 1_555
C1_4 C2_4 1_555 1_555
C2_4 C3_4 1_555 1_555
C3_4 H2_4 1_555 1_555
C4_4 O3_4 1_555 1_555
O5_4 C5_4 1_555 1_555
O11 C5_4 1_555 1_555
O7_4 H5_4 1_555 1_555
C5_4 C6_4 1_555 1_555
C6_4 C7_4 1_555 1_555
C7_4 C4_4 1_555 1_555
H6_4 C7_4 1_555 1_555
C8_4 C3_4 1_555 1_555
Mg3 O5_4 1_555 1_555
C2_4 C4_4 1_555 1_555
O7_4 C8_4 1_555 1_555
C6_4 C8_4 1_555 1_555
O8_3 Mg3 1_555 1_555
H7_3 O8_3 1_555 1_555
H8_3 O8_3 1_555 1_555
O4_3 Mg3_2 1_555 1_555
H3_3 O4_3 1_555 1_555
H4_3 O4_3 1_555 1_555
O4_4 Mg4 1_555 1_555
H3_4 O4_4 1_555 1_555
H4_4 O4_4 1_555 1_555
O8_4 Mg4 1_555 1_555
H7_4 O8_4 1_555 1_555
H8_4 O8_4 1_555 1_555

#END
