
###############################################################################
#
# This file contains modified crystal structure data generated from the
# MOF subset of the Cambridge Structural Database (CSD) v543 
# hosted by the Cambridge Crystallographic Data Centre (CCDC).
#
# This work is licensed under the Creative Commons
# Attribution-NonCommercial-ShareAlike 4.0 International License.
# To view a copy of this license, visit
# http://creativecommons.org/licenses/by-nc-sa/4.0/
# or send a letter to
# Creative Commons, PO Box 1866, Mountain View, CA 94042, USA.
#
# CIF created using the CSD Python API on 29 September 2022
# The structure has been converted into the P1 space group
# The structure has a 3D framework
# The original CSD entry NOWPEX01 is in the tetragonal crystal system
# The original CSD entry NOWPEX01 is in a Sohncke space group
# The framework has been calculated to contain at least 10.0% void space
# The void calculation uses a probe of radius 1.32A, grid spacing 0.4
#
###############################################################################

data_NOWPEX01
_chemical_formula_moiety         '(C88 H72 Cd8 N16 O16)n'
_symmetry_cell_setting           triclinic
_symmetry_space_group_name_H-M   'P 1'
_symmetry_Int_Tables_number      1
_space_group_name_Hall           'P 1'
loop_
_symmetry_equiv_pos_site_id
_symmetry_equiv_pos_as_xyz
1 x,y,z
_cell_length_a                   18.636(3)
_cell_length_b                   18.636(3)
_cell_length_c                   8.2243(15)
_cell_angle_alpha                90
_cell_angle_beta                 90
_cell_angle_gamma                90
_cell_volume                     2856.3
loop_
_atom_site_label
_atom_site_type_symbol
_atom_site_fract_x
_atom_site_fract_y
_atom_site_fract_z
H1 H 0.6170 0.1273 0.0688
Cd3 Cd 0.76345(5) 0.23655(5) -0.0000
H10 H 0.8830 0.6273 0.9312
Cd2 Cd 0.73655(5) 0.73655(5) 1.0000
O3 O 0.7360 0.6177 0.9006
O4 O 0.7504(7) 0.7007(7) 0.7350(13)
N3 N 0.7827(6) 0.3503(5) 0.0671(11)
C12 C 0.8427(6) 0.3923(6) 0.0190(13)
C13 C 0.8486(6) 0.4509(5) 0.1285(15)
H11 H 0.8833 0.4867 0.1251
N4 N 0.7924(6) 0.4451(5) 0.2442(11)
C14 C 0.7516(5) 0.3829(5) 0.2063(11)
C15 C 0.6869(13) 0.3603(11) 0.285(3)
H12 H 0.6845 0.3811 0.3918
H13 H 0.6865 0.3090 0.2937
H14 H 0.6462 0.3758 0.2224
C16 C 0.7816(8) 0.4895(4) 0.3718(8)
C17 C 0.7802(7) 0.4647(4) 0.5311(9)
H15 H 0.7870 0.4162 0.5526
C18 C 0.7686(7) 0.5124(4) 0.6584(7)
H16 H 0.7677 0.4958 0.7650
C19 C 0.7584(8) 0.5849(4) 0.6264(8)
C20 C 0.7598(6) 0.6097(3) 0.4671(9)
H17 H 0.7530 0.6583 0.4456
C21 C 0.7714(7) 0.5621(4) 0.3398(7)
H18 H 0.7723 0.5787 0.2332
C22 C 0.7578 0.6367 0.7627
N5 N 0.7173(6) 0.8503(5) 0.9329(11)
O1 O 0.7640 0.1177 0.0994
O2 O 0.7496(7) 0.2007(7) 0.2650(13)
C7 C 0.7314(7) 0.0124(4) 0.3416(7)
C8 C 0.7416(8) 0.0849(4) 0.3736(8)
C9 C 0.7402(6) 0.1097(3) 0.5329(9)
H8 H 0.7470 0.1583 0.5544
C10 C 0.7286(7) 0.0621(4) 0.6602(7)
H9 H 0.7277 0.0787 0.7668
C11 C 0.7422 0.1367 0.2373
C1 C 0.6573(6) 0.8923(6) 0.9810(13)
C2 C 0.6514(6) 0.9509(5) 0.8715(15)
H2 H 0.6167 0.9867 0.8749
N2 N 0.7076(6) 0.9451(5) 0.7558(11)
C3 C 0.7484(5) 0.8829(5) 0.7937(11)
C4 C 0.8131(13) 0.8603(11) 0.715(3)
H3 H 0.8155 0.8811 0.6082
H4 H 0.8135 0.8090 0.7063
H5 H 0.8538 0.8758 0.7776
C5 C 0.7184(8) 0.9895(4) 0.6282(8)
C6 C 0.7198(7) 0.9647(4) 0.4689(9)
H6 H 0.7130 0.9162 0.4474
H7 H 0.7323 0.9958 0.2350
Cd1 Cd 0.26345(5) 0.26345(5) 0.0000
O1_2 O 0.3823 0.2640 0.0994
O2_2 O 0.2993(7) 0.2496(7) 0.2650(13)
N1 N 0.6497(5) 0.2173(6) 0.9329(11)
C1_2 C 0.6077(6) 0.1573(6) 0.9810(13)
C2_2 C 0.5491(5) 0.1514(6) 0.8715(15)
H2_2 H 0.5133 0.1167 0.8749
N2_2 N 0.5549(5) 0.2076(6) 0.7558(11)
C3_2 C 0.6171(5) 0.2484(5) 0.7937(11)
C4_2 C 0.6397(11) 0.3131(13) 0.715(3)
H3_2 H 0.6189 0.3155 0.6082
H4_2 H 0.6910 0.3135 0.7063
H5_2 H 0.6242 0.3538 0.7776
C5_2 C 0.5105(4) 0.2184(8) 0.6282(8)
C6_2 C 0.5353(4) 0.2198(7) 0.4689(9)
H6_2 H 0.5838 0.2130 0.4474
C7_2 C 0.4876(4) 0.2314(7) 0.3416(7)
H7_2 H 0.5042 0.2323 0.2350
C8_2 C 0.4151(4) 0.2416(8) 0.3736(8)
C9_2 C 0.3903(3) 0.2402(6) 0.5329(9)
H8_2 H 0.3417 0.2470 0.5544
C10_2 C 0.4379(4) 0.2286(7) 0.6602(7)
H9_2 H 0.4213 0.2277 0.7668
C11_2 C 0.3633 0.2422 0.2373
Cd3_2 Cd 0.76345(5) 0.23655(5) 1.0000
N6 N 0.1497(5) 0.2827(6) 0.0671(11)
H1_2 H 0.3727 0.1170 0.0688
H10_2 H 0.8727 0.3830 0.9312
C12_2 C 0.1077(6) 0.3427(6) 0.0190(13)
C13_2 C 0.0491(5) 0.3486(6) 0.1285(15)
H11_2 H 0.0133 0.3833 0.1251
N4_2 N 0.0549(5) 0.2924(6) 0.2442(11)
C14_2 C 0.1171(5) 0.2516(5) 0.2063(11)
C15_2 C 0.1397(11) 0.1869(13) 0.285(3)
H12_2 H 0.1189 0.1845 0.3918
H13_2 H 0.1910 0.1865 0.2937
H14_2 H 0.1242 0.1462 0.2224
C16_2 C 0.0105(4) 0.2816(8) 0.3718(8)
C17_2 C 0.0353(4) 0.2802(7) 0.5311(9)
H15_2 H 0.0838 0.2870 0.5526
H16_2 H 0.0042 0.2677 0.7650
O3_2 O 0.8823 0.2360 0.9006
O4_2 O 0.7993(7) 0.2504(7) 0.7350(13)
C18_2 C 0.9876(4) 0.2686(7) 0.6584(7)
C19_2 C 0.9151(4) 0.2584(8) 0.6264(8)
C20_2 C 0.8903(3) 0.2598(6) 0.4671(9)
H17_2 H 0.8417 0.2530 0.4456
C21_2 C 0.9379(4) 0.2714(7) 0.3398(7)
H18_2 H 0.9213 0.2723 0.2332
C22_2 C 0.8633 0.2578 0.7627
Cd1_2 Cd 0.26345(5) 0.26345(5) 1.0000
O3_3 O 0.2640 0.3823 0.9006
O4_3 O 0.2496(7) 0.2993(7) 0.7350(13)
N3_2 N 0.2173(6) 0.6497(5) 0.0671(11)
C12_3 C 0.1573(6) 0.6077(6) 0.0190(13)
C13_3 C 0.1514(6) 0.5491(5) 0.1285(15)
H11_3 H 0.1167 0.5133 0.1251
N4_3 N 0.2076(6) 0.5549(5) 0.2442(11)
C14_3 C 0.2484(5) 0.6171(5) 0.2063(11)
C15_3 C 0.3131(13) 0.6397(11) 0.285(3)
H12_3 H 0.3155 0.6189 0.3918
H13_3 H 0.3135 0.6910 0.2937
H14_3 H 0.3538 0.6242 0.2224
C16_3 C 0.2184(8) 0.5105(4) 0.3718(8)
C17_3 C 0.2198(7) 0.5353(4) 0.5311(9)
H15_3 H 0.2130 0.5838 0.5526
C18_3 C 0.2314(7) 0.4876(4) 0.6584(7)
H16_3 H 0.2323 0.5042 0.7650
C19_3 C 0.2416(8) 0.4151(4) 0.6264(8)
C20_3 C 0.2402(6) 0.3903(3) 0.4671(9)
H17_3 H 0.2470 0.3417 0.4456
C21_3 C 0.2286(7) 0.4379(4) 0.3398(7)
H18_3 H 0.2277 0.4213 0.2332
C22_3 C 0.2422 0.3633 0.7627
Cd2_2 Cd 0.23655(5) 0.76345(5) 0.0000
N5_2 N 0.2827(6) 0.1497(5) 0.9329(11)
C1_3 C 0.3427(6) 0.1077(6) 0.9810(13)
C2_3 C 0.3486(6) 0.0491(5) 0.8715(15)
H2_3 H 0.3833 0.0133 0.8749
N2_3 N 0.2924(6) 0.0549(5) 0.7558(11)
C3_3 C 0.2516(5) 0.1171(5) 0.7937(11)
C4_3 C 0.1869(13) 0.1397(11) 0.715(3)
H3_3 H 0.1845 0.1189 0.6082
H4_3 H 0.1865 0.1910 0.7063
H5_3 H 0.1462 0.1242 0.7776
C5_3 C 0.2816(8) 0.0105(4) 0.6282(8)
C6_3 C 0.2802(7) 0.0353(4) 0.4689(9)
H6_3 H 0.2870 0.0838 0.4474
H7_3 H 0.2677 0.0042 0.2350
O1_3 O 0.2360 0.8823 0.0994
O2_3 O 0.2504(7) 0.7993(7) 0.2650(13)
C7_3 C 0.2686(7) 0.9876(4) 0.3416(7)
C8_3 C 0.2584(8) 0.9151(4) 0.3736(8)
C9_3 C 0.2598(6) 0.8903(3) 0.5329(9)
H8_3 H 0.2530 0.8417 0.5544
C10_3 C 0.2714(7) 0.9379(4) 0.6602(7)
H9_3 H 0.2723 0.9213 0.7668
C11_3 C 0.2578 0.8633 0.2373
H1_3 H 0.3830 0.8727 0.0688
H10_3 H 0.1170 0.3727 0.9312
H10_4 H 0.1273 0.6170 0.9312
Cd2_3 Cd 0.23655(5) 0.76345(5) 1.0000
O3_4 O 0.1177 0.7640 0.9006
O4_4 O 0.2007(7) 0.7496(7) 0.7350(13)
C18_4 C 0.0124(4) 0.7314(7) 0.6584(7)
C19_4 C 0.0849(4) 0.7416(8) 0.6264(8)
C20_4 C 0.1097(3) 0.7402(6) 0.4671(9)
H17_4 H 0.1583 0.7470 0.4456
C21_4 C 0.0621(4) 0.7286(7) 0.3398(7)
H18_4 H 0.0787 0.7277 0.2332
C22_4 C 0.1367 0.7422 0.7627
N5_3 N 0.3503(5) 0.7827(6) 0.9329(11)
N3_3 N 0.8503(5) 0.7173(6) 0.0671(11)
C12_4 C 0.8923(6) 0.6573(6) 0.0190(13)
C13_4 C 0.9509(5) 0.6514(6) 0.1285(15)
H11_4 H 0.9867 0.6167 0.1251
N4_4 N 0.9451(5) 0.7076(6) 0.2442(11)
C14_4 C 0.8829(5) 0.7484(5) 0.2063(11)
C15_4 C 0.8603(11) 0.8131(13) 0.285(3)
H12_4 H 0.8811 0.8155 0.3918
H13_4 H 0.8090 0.8135 0.2937
H14_4 H 0.8758 0.8538 0.2224
C16_4 C 0.9895(4) 0.7184(8) 0.3718(8)
C17_4 C 0.9647(4) 0.7198(7) 0.5311(9)
H15_4 H 0.9162 0.7130 0.5526
H16_4 H 0.9958 0.7323 0.7650
Cd2_4 Cd 0.73655(5) 0.73655(5) 0.0000
O1_4 O 0.6177 0.7360 0.0994
O2_4 O 0.7007(7) 0.7504(7) 0.2650(13)
C1_4 C 0.3923(6) 0.8427(6) 0.9810(13)
C2_4 C 0.4509(5) 0.8486(6) 0.8715(15)
H2_4 H 0.4867 0.8833 0.8749
N2_4 N 0.4451(5) 0.7924(6) 0.7558(11)
C3_4 C 0.3829(5) 0.7516(5) 0.7937(11)
C4_4 C 0.3603(11) 0.6869(13) 0.715(3)
H3_4 H 0.3811 0.6845 0.6082
H4_4 H 0.3090 0.6865 0.7063
H5_4 H 0.3758 0.6462 0.7776
C5_4 C 0.4895(4) 0.7816(8) 0.6282(8)
C6_4 C 0.4647(4) 0.7802(7) 0.4689(9)
H6_4 H 0.4162 0.7870 0.4474
C7_4 C 0.5124(4) 0.7686(7) 0.3416(7)
H7_4 H 0.4958 0.7677 0.2350
C8_4 C 0.5849(4) 0.7584(8) 0.3736(8)
C9_4 C 0.6097(3) 0.7598(6) 0.5329(9)
H8_4 H 0.6583 0.7530 0.5544
C10_4 C 0.5621(4) 0.7714(7) 0.6602(7)
H9_4 H 0.5787 0.7723 0.7668
C11_4 C 0.6367 0.7578 0.2373
H1_4 H 0.6273 0.8830 0.0688
loop_
_geom_bond_atom_site_label_1
_geom_bond_atom_site_label_2
_geom_bond_site_symmetry_1
_geom_bond_site_symmetry_2
O3 Cd2 1_555 1_555
O4 Cd2 1_555 1_555
N3 C12 1_555 1_555
C13 C12 1_555 1_555
H11 C13 1_555 1_555
N4 C13 1_555 1_555
C14 N3 1_555 1_555
C15 C14 1_555 1_555
H12 C15 1_555 1_555
H13 C15 1_555 1_555
H14 C15 1_555 1_555
C16 N4 1_555 1_555
C17 C16 1_555 1_555
H15 C17 1_555 1_555
C18 C17 1_555 1_555
H16 C18 1_555 1_555
C19 C18 1_555 1_555
C20 C19 1_555 1_555
H17 C20 1_555 1_555
C21 C16 1_555 1_555
H18 C21 1_555 1_555
C22 O3 1_555 1_555
Cd3 N3 1_555 1_555
N5 Cd2 1_555 1_555
O4 C22 1_555 1_555
N4 C14 1_555 1_555
C19 C22 1_555 1_555
C20 C21 1_555 1_555
Cd3 O1 1_555 1_555
O1 C11 1_555 1_555
O2 Cd3 1_555 1_555
C8 C7 1_555 1_555
C9 C8 1_555 1_555
H8 C9 1_555 1_555
H9 C10 1_555 1_555
C11 O2 1_555 1_555
C8 C11 1_555 1_555
C9 C10 1_555 1_555
N5 C1 1_555 1_555
C2 C1 1_555 1_555
H2 C2 1_555 1_555
N2 C2 1_555 1_555
C3 N5 1_555 1_555
C4 C3 1_555 1_555
H3 C4 1_555 1_555
H4 C4 1_555 1_555
H5 C4 1_555 1_555
C5 N2 1_555 1_555
C6 C5 1_555 1_555
H6 C6 1_555 1_555
N2 C3 1_555 1_555
Cd1 O1_2 1_555 1_555
O1_2 C11_2 1_555 1_555
O2_2 Cd1 1_555 1_555
N1 C1_2 1_555 1_555
C2_2 C1_2 1_555 1_555
H2_2 C2_2 1_555 1_555
N2_2 C2_2 1_555 1_555
C3_2 N1 1_555 1_555
C4_2 C3_2 1_555 1_555
H3_2 C4_2 1_555 1_555
H4_2 C4_2 1_555 1_555
H5_2 C4_2 1_555 1_555
C5_2 N2_2 1_555 1_555
C6_2 C5_2 1_555 1_555
H6_2 C6_2 1_555 1_555
C7_2 C6_2 1_555 1_555
H7_2 C7_2 1_555 1_555
C8_2 C7_2 1_555 1_555
C9_2 C8_2 1_555 1_555
H8_2 C9_2 1_555 1_555
C10_2 C5_2 1_555 1_555
H9_2 C10_2 1_555 1_555
C11_2 O2_2 1_555 1_555
Cd3_2 N1 1_555 1_555
N6 Cd1 1_555 1_555
N2_2 C3_2 1_555 1_555
C8_2 C11_2 1_555 1_555
C9_2 C10_2 1_555 1_555
N6 C12_2 1_555 1_555
C13_2 C12_2 1_555 1_555
H11_2 C13_2 1_555 1_555
N4_2 C13_2 1_555 1_555
C14_2 N6 1_555 1_555
C15_2 C14_2 1_555 1_555
H12_2 C15_2 1_555 1_555
H13_2 C15_2 1_555 1_555
H14_2 C15_2 1_555 1_555
C16_2 N4_2 1_555 1_555
C17_2 C16_2 1_555 1_555
H15_2 C17_2 1_555 1_555
N4_2 C14_2 1_555 1_555
O3_2 Cd3_2 1_555 1_555
O4_2 Cd3_2 1_555 1_555
C19_2 C18_2 1_555 1_555
C20_2 C19_2 1_555 1_555
H17_2 C20_2 1_555 1_555
H18_2 C21_2 1_555 1_555
C22_2 O3_2 1_555 1_555
O4_2 C22_2 1_555 1_555
C19_2 C22_2 1_555 1_555
C20_2 C21_2 1_555 1_555
O3_3 Cd1_2 1_555 1_555
O4_3 Cd1_2 1_555 1_555
N3_2 C12_3 1_555 1_555
C13_3 C12_3 1_555 1_555
H11_3 C13_3 1_555 1_555
N4_3 C13_3 1_555 1_555
C14_3 N3_2 1_555 1_555
C15_3 C14_3 1_555 1_555
H12_3 C15_3 1_555 1_555
H13_3 C15_3 1_555 1_555
H14_3 C15_3 1_555 1_555
C16_3 N4_3 1_555 1_555
C17_3 C16_3 1_555 1_555
H15_3 C17_3 1_555 1_555
C18_3 C17_3 1_555 1_555
H16_3 C18_3 1_555 1_555
C19_3 C18_3 1_555 1_555
C20_3 C19_3 1_555 1_555
H17_3 C20_3 1_555 1_555
C21_3 C16_3 1_555 1_555
H18_3 C21_3 1_555 1_555
C22_3 O3_3 1_555 1_555
Cd2_2 N3_2 1_555 1_555
N5_2 Cd1_2 1_555 1_555
O4_3 C22_3 1_555 1_555
N4_3 C14_3 1_555 1_555
C19_3 C22_3 1_555 1_555
C20_3 C21_3 1_555 1_555
N5_2 C1_3 1_555 1_555
C2_3 C1_3 1_555 1_555
H2_3 C2_3 1_555 1_555
N2_3 C2_3 1_555 1_555
C3_3 N5_2 1_555 1_555
C4_3 C3_3 1_555 1_555
H3_3 C4_3 1_555 1_555
H4_3 C4_3 1_555 1_555
H5_3 C4_3 1_555 1_555
C5_3 N2_3 1_555 1_555
C6_3 C5_3 1_555 1_555
H6_3 C6_3 1_555 1_555
N2_3 C3_3 1_555 1_555
Cd2_2 O1_3 1_555 1_555
O1_3 C11_3 1_555 1_555
O2_3 Cd2_2 1_555 1_555
C8_3 C7_3 1_555 1_555
C9_3 C8_3 1_555 1_555
H8_3 C9_3 1_555 1_555
H9_3 C10_3 1_555 1_555
C11_3 O2_3 1_555 1_555
C8_3 C11_3 1_555 1_555
C9_3 C10_3 1_555 1_555
O3_4 Cd2_3 1_555 1_555
O4_4 Cd2_3 1_555 1_555
C19_4 C18_4 1_555 1_555
C20_4 C19_4 1_555 1_555
H17_4 C20_4 1_555 1_555
H18_4 C21_4 1_555 1_555
C22_4 O3_4 1_555 1_555
N5_3 Cd2_3 1_555 1_555
O4_4 C22_4 1_555 1_555
C19_4 C22_4 1_555 1_555
C20_4 C21_4 1_555 1_555
N3_3 C12_4 1_555 1_555
C13_4 C12_4 1_555 1_555
H11_4 C13_4 1_555 1_555
N4_4 C13_4 1_555 1_555
C14_4 N3_3 1_555 1_555
C15_4 C14_4 1_555 1_555
H12_4 C15_4 1_555 1_555
H13_4 C15_4 1_555 1_555
H14_4 C15_4 1_555 1_555
C16_4 N4_4 1_555 1_555
C17_4 C16_4 1_555 1_555
H15_4 C17_4 1_555 1_555
Cd2_4 N3_3 1_555 1_555
N4_4 C14_4 1_555 1_555
Cd2_4 O1_4 1_555 1_555
O1_4 C11_4 1_555 1_555
O2_4 Cd2_4 1_555 1_555
N5_3 C1_4 1_555 1_555
C2_4 C1_4 1_555 1_555
H2_4 C2_4 1_555 1_555
N2_4 C2_4 1_555 1_555
C3_4 N5_3 1_555 1_555
C4_4 C3_4 1_555 1_555
H3_4 C4_4 1_555 1_555
H4_4 C4_4 1_555 1_555
H5_4 C4_4 1_555 1_555
C5_4 N2_4 1_555 1_555
C6_4 C5_4 1_555 1_555
H6_4 C6_4 1_555 1_555
C7_4 C6_4 1_555 1_555
H7_4 C7_4 1_555 1_555
C8_4 C7_4 1_555 1_555
C9_4 C8_4 1_555 1_555
H8_4 C9_4 1_555 1_555
C10_4 C5_4 1_555 1_555
H9_4 C10_4 1_555 1_555
C11_4 O2_4 1_555 1_555
N2_4 C3_4 1_555 1_555
C8_4 C11_4 1_555 1_555
C9_4 C10_4 1_555 1_555

#END
