
###############################################################################
#
# This file contains modified crystal structure data generated from the
# MOF subset of the Cambridge Structural Database (CSD) v543 
# hosted by the Cambridge Crystallographic Data Centre (CCDC).
#
# This work is licensed under the Creative Commons
# Attribution-NonCommercial-ShareAlike 4.0 International License.
# To view a copy of this license, visit
# http://creativecommons.org/licenses/by-nc-sa/4.0/
# or send a letter to
# Creative Commons, PO Box 1866, Mountain View, CA 94042, USA.
#
# CIF created using the CSD Python API on 29 September 2022
# The structure has been converted into the P1 space group
# The structure has a 3D framework
# The original CSD entry NOWPAT is in the tetragonal crystal system
# The original CSD entry NOWPAT is in a Sohncke space group
# The framework has been calculated to contain at least 10.0% void space
# The void calculation uses a probe of radius 1.32A, grid spacing 0.4
#
###############################################################################

data_NOWPAT
_chemical_formula_moiety         '(C88 H72 Cd4 N16 O16)n'
_symmetry_cell_setting           triclinic
_symmetry_space_group_name_H-M   'P 1'
_symmetry_Int_Tables_number      1
_space_group_name_Hall           'P 1'
loop_
_symmetry_equiv_pos_site_id
_symmetry_equiv_pos_as_xyz
1 x,y,z
_cell_length_a                   18.855(4)
_cell_length_b                   18.855(4)
_cell_length_c                   8.0473(19)
_cell_angle_alpha                90
_cell_angle_beta                 90
_cell_angle_gamma                90
_cell_volume                     2860.9
loop_
_atom_site_label
_atom_site_type_symbol
_atom_site_fract_x
_atom_site_fract_y
_atom_site_fract_z
C20 C 0.2474(3) 0.0885(2) 0.0384(5)
H17 H 0.2381 0.1359 0.0626
C21 C 0.2628(3) 0.0419(2) 0.1661(7)
H18 H 0.2641 0.0580 0.2753
Cd1 Cd 0.215630(13) 0.215630(13) 0.5000
O1 O 0.1807(2) 0.22884(19) 0.2280(4)
O2 O 0.09278(18) 0.22165(19) 0.4093(4)
C8 C 0.0654(3) 0.2455(3) 0.1267(6)
C11 C 0.1155(3) 0.2298(3) 0.2645(6)
O3 O 0.22884(19) 0.1807(2) 0.7720(4)
O4 O 0.22165(19) 0.09278(18) 0.5907(4)
C19 C 0.2455(3) 0.0654(3) 0.8733(6)
C22 C 0.2298(3) 0.1155(3) 0.7355(6)
N5 N 0.20223(19) 0.33146(17) 0.5744(4)
N6 N 0.33146(17) 0.20223(19) 0.4256(4)
N2 N 0.2054(2) 0.42507(19) 0.7338(4)
C1 C 0.1488(2) 0.3765(2) 0.5281(6)
H1 H 0.1169 0.3685 0.4420
C2 C 0.1496(3) 0.4345(3) 0.6273(6)
H2 H 0.1186 0.4729 0.6238
C3 C 0.2373(2) 0.3631(2) 0.6943(5)
C4 C 0.3024(3) 0.3354(3) 0.7728(8)
H3 H 0.2909 0.2948 0.8394
H4 H 0.3230 0.3714 0.8418
H5 H 0.3357 0.3219 0.6881
C5 C 0.2240(3) 0.4724(2) 0.8677(6)
C9 C 0.2526(3) 0.5885(2) 0.9616(5)
H8 H 0.2619 0.6359 0.9374
C10 C 0.2372(3) 0.5419(2) 0.8339(7)
H9 H 0.2359 0.5580 0.7247
N4 N 0.42507(19) 0.2054(2) 0.2662(4)
C12 C 0.3765(2) 0.1488(2) 0.4719(6)
H10 H 0.3685 0.1169 0.5580
C13 C 0.4345(3) 0.1496(3) 0.3727(6)
H11 H 0.4729 0.1186 0.3762
C14 C 0.3631(2) 0.2373(2) 0.3057(5)
C15 C 0.3354(3) 0.3024(3) 0.2272(8)
H12 H 0.2948 0.2909 0.1606
H13 H 0.3714 0.3230 0.1582
H14 H 0.3219 0.3357 0.3119
C16 C 0.4724(2) 0.2240(3) 0.1323(6)
C20_2 C 0.5885(2) 0.2526(3) 0.0384(5)
H17_2 H 0.6359 0.2619 0.0626
C21_2 C 0.5419(2) 0.2372(3) 0.1661(7)
H18_2 H 0.5580 0.2359 0.2753
C9_2 C 0.0885(2) 0.2474(3) 0.9616(5)
H8_2 H 0.1359 0.2381 0.9374
C10_2 C 0.0419(2) 0.2628(3) 0.8339(7)
H9_2 H 0.0580 0.2641 0.7247
N3 N 0.29777(19) 0.83146(17) 0.4256(4)
N4_2 N 0.2946(2) 0.92507(19) 0.2662(4)
C12_2 C 0.3512(2) 0.8765(2) 0.4719(6)
H10_2 H 0.3831 0.8685 0.5580
C13_2 C 0.3504(3) 0.9345(3) 0.3727(6)
H11_2 H 0.3814 0.9729 0.3762
C14_2 C 0.2627(2) 0.8631(2) 0.3057(5)
C15_2 C 0.1976(3) 0.8354(3) 0.2272(8)
H12_2 H 0.2091 0.7948 0.1606
H13_2 H 0.1770 0.8714 0.1582
H14_2 H 0.1643 0.8219 0.3119
C16_2 C 0.2760(3) 0.9724(2) 0.1323(6)
Cd2 Cd 0.284370(13) 0.715630(13) 0.5000
O1_2 O 0.27116(19) 0.6807(2) 0.2280(4)
O2_2 O 0.27835(19) 0.59278(18) 0.4093(4)
C6 C 0.2257(3) 0.4479(3) 0.0303(6)
H6 H 0.2156 0.4006 0.0529
C7 C 0.2422(3) 0.4931(3) 0.1572(6)
H7 H 0.2453 0.4758 0.2652
C8_2 C 0.2545(3) 0.5654(3) 0.1267(6)
C11_2 C 0.2702(3) 0.6155(3) 0.2645(6)
O3_2 O 0.3193(2) 0.72884(19) 0.7720(4)
O4_2 O 0.40722(18) 0.72165(19) 0.5907(4)
C17 C 0.5521(3) 0.7743(3) 0.9697(6)
H15 H 0.5994 0.7844 0.9471
C18 C 0.5069(3) 0.7578(3) 0.8428(6)
H16 H 0.5242 0.7547 0.7348
C19_2 C 0.4346(3) 0.7455(3) 0.8733(6)
C22_2 C 0.3845(3) 0.7298(3) 0.7355(6)
N5_2 N 0.16854(17) 0.70223(19) 0.5744(4)
N2_2 N 0.07493(19) 0.7054(2) 0.7338(4)
C1_2 C 0.1235(2) 0.6488(2) 0.5281(6)
H1_2 H 0.1315 0.6169 0.4420
C2_2 C 0.0655(3) 0.6496(3) 0.6273(6)
H2_2 H 0.0271 0.6186 0.6238
C3_2 C 0.1369(2) 0.7373(2) 0.6943(5)
C4_2 C 0.1646(3) 0.8024(3) 0.7728(8)
H3_2 H 0.2052 0.7909 0.8394
H4_2 H 0.1286 0.8230 0.8418
H5_2 H 0.1781 0.8357 0.6881
C5_2 C 0.0276(2) 0.7240(3) 0.8677(6)
C17_2 C 0.2743(3) 0.9479(3) 0.9697(6)
H15_2 H 0.2844 0.9006 0.9471
C18_2 C 0.2578(3) 0.9931(3) 0.8428(6)
H16_2 H 0.2547 0.9758 0.7348
C6_2 C 0.9479(3) 0.2743(3) 0.0303(6)
H6_2 H 0.9006 0.2844 0.0529
C7_2 C 0.9931(3) 0.2578(3) 0.1572(6)
H7_2 H 0.9758 0.2547 0.2652
N1 N 0.83146(17) 0.29777(19) 0.5744(4)
N2_3 N 0.92507(19) 0.2946(2) 0.7338(4)
C1_3 C 0.8765(2) 0.3512(2) 0.5281(6)
H1_3 H 0.8685 0.3831 0.4420
C2_3 C 0.9345(3) 0.3504(3) 0.6273(6)
H2_3 H 0.9729 0.3814 0.6238
C3_3 C 0.8631(2) 0.2627(2) 0.6943(5)
C4_3 C 0.8354(3) 0.1976(3) 0.7728(8)
H3_3 H 0.7948 0.2091 0.8394
H4_3 H 0.8714 0.1770 0.8418
H5_3 H 0.8219 0.1643 0.6881
C5_3 C 0.9724(2) 0.2760(3) 0.8677(6)
Cd3 Cd 0.715630(13) 0.284370(13) 0.5000
N3_2 N 0.70223(19) 0.16854(17) 0.4256(4)
N4_3 N 0.7054(2) 0.07493(19) 0.2662(4)
C12_3 C 0.6488(2) 0.1235(2) 0.4719(6)
H10_3 H 0.6169 0.1315 0.5580
C13_3 C 0.6496(3) 0.0655(3) 0.3727(6)
H11_3 H 0.6186 0.0271 0.3762
C14_3 C 0.7373(2) 0.1369(2) 0.3057(5)
C15_3 C 0.8024(3) 0.1646(3) 0.2272(8)
H12_3 H 0.7909 0.2052 0.1606
H13_3 H 0.8230 0.1286 0.1582
H14_3 H 0.8357 0.1781 0.3119
C16_3 C 0.7240(3) 0.0276(2) 0.1323(6)
O1_3 O 0.72884(19) 0.3193(2) 0.2280(4)
O2_3 O 0.72165(19) 0.40722(18) 0.4093(4)
C6_3 C 0.7743(3) 0.5521(3) 0.0303(6)
H6_3 H 0.7844 0.5994 0.0529
C7_3 C 0.7578(3) 0.5069(3) 0.1572(6)
H7_3 H 0.7547 0.5242 0.2652
C8_3 C 0.7455(3) 0.4346(3) 0.1267(6)
C11_3 C 0.7298(3) 0.3845(3) 0.2645(6)
O3_3 O 0.6807(2) 0.27116(19) 0.7720(4)
O4_3 O 0.59278(18) 0.27835(19) 0.5907(4)
C17_3 C 0.4479(3) 0.2257(3) 0.9697(6)
H15_3 H 0.4006 0.2156 0.9471
C18_3 C 0.4931(3) 0.2422(3) 0.8428(6)
H16_3 H 0.4758 0.2453 0.7348
C19_3 C 0.5654(3) 0.2545(3) 0.8733(6)
C22_3 C 0.6155(3) 0.2702(3) 0.7355(6)
N3_3 N 0.66854(17) 0.79777(19) 0.4256(4)
N4_4 N 0.57493(19) 0.7946(2) 0.2662(4)
C12_4 C 0.6235(2) 0.8512(2) 0.4719(6)
H10_4 H 0.6315 0.8831 0.5580
C13_4 C 0.5655(3) 0.8504(3) 0.3727(6)
H11_4 H 0.5271 0.8814 0.3762
C14_4 C 0.6369(2) 0.7627(2) 0.3057(5)
C15_4 C 0.6646(3) 0.6976(3) 0.2272(8)
H12_4 H 0.7052 0.7091 0.1606
H13_4 H 0.6286 0.6770 0.1582
H14_4 H 0.6781 0.6643 0.3119
C16_4 C 0.5276(2) 0.7760(3) 0.1323(6)
C20_3 C 0.4115(2) 0.7474(3) 0.0384(5)
H17_3 H 0.3641 0.7381 0.0626
C21_3 C 0.4581(2) 0.7628(3) 0.1661(7)
H18_3 H 0.4420 0.7641 0.2753
Cd2_2 Cd 0.784370(13) 0.784370(13) 0.5000
O1_4 O 0.8193(2) 0.77116(19) 0.2280(4)
O2_4 O 0.90722(18) 0.77835(19) 0.4093(4)
C8_4 C 0.9346(3) 0.7545(3) 0.1267(6)
C11_4 C 0.8845(3) 0.7702(3) 0.2645(6)
O3_4 O 0.77116(19) 0.8193(2) 0.7720(4)
O4_4 O 0.77835(19) 0.90722(18) 0.5907(4)
C19_4 C 0.7545(3) 0.9346(3) 0.8733(6)
C22_4 C 0.7702(3) 0.8845(3) 0.7355(6)
N5_3 N 0.79777(19) 0.66854(17) 0.5744(4)
N2_4 N 0.7946(2) 0.57493(19) 0.7338(4)
C1_4 C 0.8512(2) 0.6235(2) 0.5281(6)
H1_4 H 0.8831 0.6315 0.4420
C2_4 C 0.8504(3) 0.5655(3) 0.6273(6)
H2_4 H 0.8814 0.5271 0.6238
C3_4 C 0.7627(2) 0.6369(2) 0.6943(5)
C4_4 C 0.6976(3) 0.6646(3) 0.7728(8)
H3_4 H 0.7091 0.7052 0.8394
H4_4 H 0.6770 0.6286 0.8418
H5_4 H 0.6643 0.6781 0.6881
C5_4 C 0.7760(3) 0.5276(2) 0.8677(6)
C9_3 C 0.7474(3) 0.4115(2) 0.9616(5)
H8_3 H 0.7381 0.3641 0.9374
C10_3 C 0.7628(3) 0.4581(2) 0.8339(7)
H9_3 H 0.7641 0.4420 0.7247
C6_4 C 0.0521(3) 0.7257(3) 0.0303(6)
H6_4 H 0.0994 0.7156 0.0529
C7_4 C 0.0069(3) 0.7422(3) 0.1572(6)
H7_4 H 0.0242 0.7453 0.2652
C17_4 C 0.7257(3) 0.0521(3) 0.9697(6)
H15_4 H 0.7156 0.0994 0.9471
C18_4 C 0.7422(3) 0.0069(3) 0.8428(6)
H16_4 H 0.7453 0.0242 0.7348
C20_4 C 0.7526(3) 0.9115(2) 0.0384(5)
H17_4 H 0.7619 0.8641 0.0626
C21_4 C 0.7372(3) 0.9581(2) 0.1661(7)
H18_4 H 0.7359 0.9420 0.2753
C9_4 C 0.9115(2) 0.7526(3) 0.9616(5)
H8_4 H 0.8641 0.7619 0.9374
C10_4 C 0.9581(2) 0.7372(3) 0.8339(7)
H9_4 H 0.9420 0.7359 0.7247
loop_
_geom_bond_atom_site_label_1
_geom_bond_atom_site_label_2
_geom_bond_site_symmetry_1
_geom_bond_site_symmetry_2
H17 C20 1_555 1_555
H18 C21 1_555 1_555
C20 C21 1_555 1_555
Cd1 O1 1_555 1_555
O1 C11 1_555 1_555
O2 Cd1 1_555 1_555
C11 O2 1_555 1_555
O3 Cd1 1_555 1_555
O4 Cd1 1_555 1_555
C22 O3 1_555 1_555
N5 Cd1 1_555 1_555
N6 Cd1 1_555 1_555
C8 C11 1_555 1_555
O4 C22 1_555 1_555
C19 C22 1_555 1_555
N5 C1 1_555 1_555
N2 C2 1_555 1_555
C1 H1 1_555 1_555
C2 C1 1_555 1_555
H2 C2 1_555 1_555
C3 N5 1_555 1_555
C4 C3 1_555 1_555
H3 C4 1_555 1_555
H4 C4 1_555 1_555
H5 C4 1_555 1_555
C5 N2 1_555 1_555
H8 C9 1_555 1_555
C10 C5 1_555 1_555
H9 C10 1_555 1_555
N2 C3 1_555 1_555
C9 C10 1_555 1_555
N6 C12 1_555 1_555
N4 C13 1_555 1_555
C12 H10 1_555 1_555
C13 C12 1_555 1_555
H11 C13 1_555 1_555
C14 N6 1_555 1_555
C15 C14 1_555 1_555
H12 C15 1_555 1_555
H13 C15 1_555 1_555
H14 C15 1_555 1_555
C16 N4 1_555 1_555
H17_2 C20_2 1_555 1_555
C21_2 C16 1_555 1_555
H18_2 C21_2 1_555 1_555
N4 C14 1_555 1_555
C20_2 C21_2 1_555 1_555
H8_2 C9_2 1_555 1_555
H9_2 C10_2 1_555 1_555
C9_2 C10_2 1_555 1_555
N3 C12_2 1_555 1_555
N4_2 C13_2 1_555 1_555
C12_2 H10_2 1_555 1_555
C13_2 C12_2 1_555 1_555
H11_2 C13_2 1_555 1_555
C14_2 N3 1_555 1_555
C15_2 C14_2 1_555 1_555
H12_2 C15_2 1_555 1_555
H13_2 C15_2 1_555 1_555
H14_2 C15_2 1_555 1_555
C16_2 N4_2 1_555 1_555
Cd2 N3 1_555 1_555
N4_2 C14_2 1_555 1_555
Cd2 O1_2 1_555 1_555
O1_2 C11_2 1_555 1_555
O2_2 Cd2 1_555 1_555
H6 C6 1_555 1_555
C7 C6 1_555 1_555
H7 C7 1_555 1_555
C8_2 C7 1_555 1_555
C11_2 O2_2 1_555 1_555
O3_2 Cd2 1_555 1_555
O4_2 Cd2 1_555 1_555
H15 C17 1_555 1_555
C18 C17 1_555 1_555
H16 C18 1_555 1_555
C19_2 C18 1_555 1_555
C22_2 O3_2 1_555 1_555
N5_2 Cd2 1_555 1_555
C8_2 C11_2 1_555 1_555
O4_2 C22_2 1_555 1_555
C19_2 C22_2 1_555 1_555
N5_2 C1_2 1_555 1_555
N2_2 C2_2 1_555 1_555
C1_2 H1_2 1_555 1_555
C2_2 C1_2 1_555 1_555
H2_2 C2_2 1_555 1_555
C3_2 N5_2 1_555 1_555
C4_2 C3_2 1_555 1_555
H3_2 C4_2 1_555 1_555
H4_2 C4_2 1_555 1_555
H5_2 C4_2 1_555 1_555
C5_2 N2_2 1_555 1_555
N2_2 C3_2 1_555 1_555
H15_2 C17_2 1_555 1_555
C18_2 C17_2 1_555 1_555
H16_2 C18_2 1_555 1_555
H6_2 C6_2 1_555 1_555
C7_2 C6_2 1_555 1_555
H7_2 C7_2 1_555 1_555
N1 C1_3 1_555 1_555
N2_3 C2_3 1_555 1_555
C1_3 H1_3 1_555 1_555
C2_3 C1_3 1_555 1_555
H2_3 C2_3 1_555 1_555
C3_3 N1 1_555 1_555
C4_3 C3_3 1_555 1_555
H3_3 C4_3 1_555 1_555
H4_3 C4_3 1_555 1_555
H5_3 C4_3 1_555 1_555
C5_3 N2_3 1_555 1_555
Cd3 N1 1_555 1_555
N2_3 C3_3 1_555 1_555
N3_2 C12_3 1_555 1_555
N4_3 C13_3 1_555 1_555
C12_3 H10_3 1_555 1_555
C13_3 C12_3 1_555 1_555
H11_3 C13_3 1_555 1_555
C14_3 N3_2 1_555 1_555
C15_3 C14_3 1_555 1_555
H12_3 C15_3 1_555 1_555
H13_3 C15_3 1_555 1_555
H14_3 C15_3 1_555 1_555
C16_3 N4_3 1_555 1_555
Cd3 N3_2 1_555 1_555
N4_3 C14_3 1_555 1_555
Cd3 O1_3 1_555 1_555
O1_3 C11_3 1_555 1_555
O2_3 Cd3 1_555 1_555
H6_3 C6_3 1_555 1_555
C7_3 C6_3 1_555 1_555
H7_3 C7_3 1_555 1_555
C8_3 C7_3 1_555 1_555
C11_3 O2_3 1_555 1_555
O3_3 Cd3 1_555 1_555
O4_3 Cd3 1_555 1_555
H15_3 C17_3 1_555 1_555
C18_3 C17_3 1_555 1_555
H16_3 C18_3 1_555 1_555
C19_3 C18_3 1_555 1_555
C22_3 O3_3 1_555 1_555
C8_3 C11_3 1_555 1_555
O4_3 C22_3 1_555 1_555
C19_3 C22_3 1_555 1_555
N3_3 C12_4 1_555 1_555
N4_4 C13_4 1_555 1_555
C12_4 H10_4 1_555 1_555
C13_4 C12_4 1_555 1_555
H11_4 C13_4 1_555 1_555
C14_4 N3_3 1_555 1_555
C15_4 C14_4 1_555 1_555
H12_4 C15_4 1_555 1_555
H13_4 C15_4 1_555 1_555
H14_4 C15_4 1_555 1_555
C16_4 N4_4 1_555 1_555
H17_3 C20_3 1_555 1_555
C21_3 C16_4 1_555 1_555
H18_3 C21_3 1_555 1_555
Cd2_2 N3_3 1_555 1_555
N4_4 C14_4 1_555 1_555
C20_3 C21_3 1_555 1_555
Cd2_2 O1_4 1_555 1_555
O1_4 C11_4 1_555 1_555
O2_4 Cd2_2 1_555 1_555
C11_4 O2_4 1_555 1_555
O3_4 Cd2_2 1_555 1_555
O4_4 Cd2_2 1_555 1_555
C22_4 O3_4 1_555 1_555
N5_3 Cd2_2 1_555 1_555
C8_4 C11_4 1_555 1_555
O4_4 C22_4 1_555 1_555
C19_4 C22_4 1_555 1_555
N5_3 C1_4 1_555 1_555
N2_4 C2_4 1_555 1_555
C1_4 H1_4 1_555 1_555
C2_4 C1_4 1_555 1_555
H2_4 C2_4 1_555 1_555
C3_4 N5_3 1_555 1_555
C4_4 C3_4 1_555 1_555
H3_4 C4_4 1_555 1_555
H4_4 C4_4 1_555 1_555
H5_4 C4_4 1_555 1_555
C5_4 N2_4 1_555 1_555
H8_3 C9_3 1_555 1_555
C10_3 C5_4 1_555 1_555
H9_3 C10_3 1_555 1_555
N2_4 C3_4 1_555 1_555
C9_3 C10_3 1_555 1_555
H6_4 C6_4 1_555 1_555
C7_4 C6_4 1_555 1_555
H7_4 C7_4 1_555 1_555
H15_4 C17_4 1_555 1_555
C18_4 C17_4 1_555 1_555
H16_4 C18_4 1_555 1_555
H17_4 C20_4 1_555 1_555
H18_4 C21_4 1_555 1_555
C20_4 C21_4 1_555 1_555
H8_4 C9_4 1_555 1_555
H9_4 C10_4 1_555 1_555
C9_4 C10_4 1_555 1_555

#END
