
###############################################################################
#
# This file contains modified crystal structure data generated from the
# MOF subset of the Cambridge Structural Database (CSD) v543 
# hosted by the Cambridge Crystallographic Data Centre (CCDC).
#
# This work is licensed under the Creative Commons
# Attribution-NonCommercial-ShareAlike 4.0 International License.
# To view a copy of this license, visit
# http://creativecommons.org/licenses/by-nc-sa/4.0/
# or send a letter to
# Creative Commons, PO Box 1866, Mountain View, CA 94042, USA.
#
# CIF created using the CSD Python API on 29 September 2022
# The structure has been converted into the P1 space group
# The structure has a 3D framework
# The original CSD entry NOWPEX02 is in the tetragonal crystal system
# The original CSD entry NOWPEX02 is in a Sohncke space group
# The framework has been calculated to contain at least 10.0% void space
# The void calculation uses a probe of radius 1.32A, grid spacing 0.4
#
###############################################################################

data_NOWPEX02
_chemical_formula_moiety         '(C88 H72 Cd4 N16 O16)n'
_symmetry_cell_setting           triclinic
_symmetry_space_group_name_H-M   'P 1'
_symmetry_Int_Tables_number      1
_space_group_name_Hall           'P 1'
loop_
_symmetry_equiv_pos_site_id
_symmetry_equiv_pos_as_xyz
1 x,y,z
_cell_length_a                   18.6204(14)
_cell_length_b                   18.6204(14)
_cell_length_c                   8.2532(6)
_cell_angle_alpha                90
_cell_angle_beta                 90
_cell_angle_gamma                90
_cell_volume                     2861.54
loop_
_atom_site_label
_atom_site_type_symbol
_atom_site_fract_x
_atom_site_fract_y
_atom_site_fract_z
C20 C 0.1087(4) 0.2593(7) 0.0304(11)
H17 H 0.1573 0.2521 0.0501
C21 C 0.0620(5) 0.2720(7) 0.1587(9)
H18 H 0.0794 0.2733 0.2642
Cd1 Cd 0.23518(6) 0.23518(6) 0.5000
O1 O 0.2492(8) 0.2002(6) 0.2355(14)
O2 O 0.2360(8) 0.1131(7) 0.4031(11)
C7 C 0.2681(7) 0.0099(5) 0.1569(9)
C8 C 0.2573(7) 0.0826(5) 0.1274(10)
C11 C 0.2451(10) 0.1338(9) 0.2635(19)
O3 O 0.2002(6) 0.2492(8) 0.7645(14)
O4 O 0.1131(7) 0.2360(8) 0.5969(11)
C18 C 0.0099(5) 0.2681(7) 0.8431(9)
C19 C 0.0826(5) 0.2573(7) 0.8726(10)
C22 C 0.1338(9) 0.2451(10) 0.7365(19)
N5 N 0.3494(4) 0.2174(6) 0.5669(11)
N6 N 0.2174(6) 0.3494(4) 0.4331(11)
C12 C 0.1568(6) 0.3910(6) 0.4787(14)
H10 H 0.1262 0.3816 0.5653
C13 C 0.1511(6) 0.4495(5) 0.3690(15)
H11 H 0.1161 0.4851 0.3711
N4 N 0.2081(6) 0.4440(5) 0.2556(11)
C14 C 0.2491(5) 0.3821(6) 0.2952(11)
C15 C 0.3120(11) 0.3589(12) 0.215(3)
H12 H 0.3127 0.3779 0.1069
H13 H 0.3127 0.3074 0.2107
H14 H 0.3534 0.3757 0.2730
C16 C 0.2172(8) 0.4893(5) 0.1291(11)
C20_2 C 0.2407(7) 0.6087(4) 0.0304(11)
H17_2 H 0.2479 0.6573 0.0501
C21_2 C 0.2280(7) 0.5620(5) 0.1587(9)
H18_2 H 0.2267 0.5794 0.2642
C1 C 0.3910(6) 0.1568(6) 0.5213(14)
H1 H 0.3816 0.1262 0.4347
C2 C 0.4495(5) 0.1511(6) 0.6310(15)
H2 H 0.4851 0.1161 0.6289
N2 N 0.4440(5) 0.2081(6) 0.7444(11)
C3 C 0.3821(6) 0.2491(5) 0.7048(11)
C4 C 0.3589(12) 0.3120(11) 0.785(3)
H3 H 0.3779 0.3127 0.8931
H4 H 0.3074 0.3127 0.7893
H5 H 0.3757 0.3534 0.7270
C5 C 0.4893(5) 0.2172(8) 0.8709(11)
C9 C 0.6087(4) 0.2407(7) 0.9696(11)
H8 H 0.6573 0.2479 0.9499
C10 C 0.5620(5) 0.2280(7) 0.8413(9)
H9 H 0.5794 0.2267 0.7358
C9_2 C 0.2593(7) 0.1087(4) 0.9696(11)
H8_2 H 0.2521 0.1573 0.9499
C10_2 C 0.2720(7) 0.0620(5) 0.8413(9)
H9_2 H 0.2733 0.0794 0.7358
C6 C 0.2808(7) 0.9633(4) 0.0287(12)
H6 H 0.2880 0.9146 0.0484
H7 H 0.2668 0.9925 0.2625
N1 N 0.2826(6) 0.8494(4) 0.5669(11)
C1_2 C 0.3432(6) 0.8910(6) 0.5213(14)
H1_2 H 0.3738 0.8816 0.4347
C2_2 C 0.3489(6) 0.9495(5) 0.6310(15)
H2_2 H 0.3839 0.9851 0.6289
N2_2 N 0.2919(6) 0.9440(5) 0.7444(11)
C3_2 C 0.2509(5) 0.8821(6) 0.7048(11)
C4_2 C 0.1880(11) 0.8589(12) 0.785(3)
H3_2 H 0.1873 0.8779 0.8931
H4_2 H 0.1873 0.8074 0.7893
H5_2 H 0.1466 0.8757 0.7270
C5_2 C 0.2828(8) 0.9893(5) 0.8709(11)
Cd2 Cd 0.26482(6) 0.73518(6) 0.5000
O1_2 O 0.2998(6) 0.7492(8) 0.2355(14)
O2_2 O 0.3869(7) 0.7360(8) 0.4031(11)
C6_2 C 0.5367(4) 0.7808(7) 0.0287(12)
H6_2 H 0.5854 0.7880 0.0484
C7_2 C 0.4901(5) 0.7681(7) 0.1569(9)
H7_2 H 0.5075 0.7668 0.2625
C8_2 C 0.4174(5) 0.7573(7) 0.1274(10)
C11_2 C 0.3662(9) 0.7451(10) 0.2635(19)
O3_2 O 0.2508(8) 0.7002(6) 0.7645(14)
O4_2 O 0.2640(8) 0.6131(7) 0.5969(11)
C17 C 0.2192(7) 0.4633(4) 0.9713(12)
H15 H 0.2120 0.4146 0.9516
C18_2 C 0.2319(7) 0.5099(5) 0.8431(9)
H16 H 0.2332 0.4925 0.7375
C19_2 C 0.2427(7) 0.5826(5) 0.8726(10)
C22_2 C 0.2549(10) 0.6338(9) 0.7365(19)
N6_2 N 0.1506(4) 0.7174(6) 0.4331(11)
C12_2 C 0.1090(6) 0.6568(6) 0.4787(14)
H10_2 H 0.1184 0.6262 0.5653
C13_2 C 0.0505(5) 0.6511(6) 0.3690(15)
H11_2 H 0.0149 0.6161 0.3711
N4_2 N 0.0560(5) 0.7081(6) 0.2556(11)
C14_2 C 0.1179(6) 0.7491(5) 0.2952(11)
C15_2 C 0.1411(12) 0.8120(11) 0.215(3)
H12_2 H 0.1221 0.8127 0.1069
H13_2 H 0.1926 0.8127 0.2107
H14_2 H 0.1243 0.8534 0.2730
C16_2 C 0.0107(5) 0.7172(8) 0.1291(11)
N3 N 0.8494(4) 0.2826(6) 0.4331(11)
C12_3 C 0.8910(6) 0.3432(6) 0.4787(14)
H10_3 H 0.8816 0.3738 0.5653
C13_3 C 0.9495(5) 0.3489(6) 0.3690(15)
H11_3 H 0.9851 0.3839 0.3711
N4_3 N 0.9440(5) 0.2919(6) 0.2556(11)
C14_3 C 0.8821(6) 0.2509(5) 0.2952(11)
C15_3 C 0.8589(12) 0.1880(11) 0.215(3)
H12_3 H 0.8779 0.1873 0.1069
H13_3 H 0.8074 0.1873 0.2107
H14_3 H 0.8757 0.1466 0.2730
C16_3 C 0.9893(5) 0.2828(8) 0.1291(11)
Cd3 Cd 0.73518(6) 0.26482(6) 0.5000
N1_2 N 0.7174(6) 0.1506(4) 0.5669(11)
C1_3 C 0.6568(6) 0.1090(6) 0.5213(14)
H1_3 H 0.6262 0.1184 0.4347
C2_3 C 0.6511(6) 0.0505(5) 0.6310(15)
H2_3 H 0.6161 0.0149 0.6289
N2_3 N 0.7081(6) 0.0560(5) 0.7444(11)
C3_3 C 0.7491(5) 0.1179(6) 0.7048(11)
C4_3 C 0.8120(11) 0.1411(12) 0.785(3)
H3_3 H 0.8127 0.1221 0.8931
H4_3 H 0.8127 0.1926 0.7893
H5_3 H 0.8534 0.1243 0.7270
C5_3 C 0.7172(8) 0.0107(5) 0.8709(11)
O1_3 O 0.7002(6) 0.2508(8) 0.2355(14)
O2_3 O 0.6131(7) 0.2640(8) 0.4031(11)
C6_3 C 0.4633(4) 0.2192(7) 0.0287(12)
H6_3 H 0.4146 0.2120 0.0484
C7_3 C 0.5099(5) 0.2319(7) 0.1569(9)
H7_3 H 0.4925 0.2332 0.2625
C8_3 C 0.5826(5) 0.2427(7) 0.1274(10)
C11_3 C 0.6338(9) 0.2549(10) 0.2635(19)
O3_3 O 0.7492(8) 0.2998(6) 0.7645(14)
O4_3 O 0.7360(8) 0.3869(7) 0.5969(11)
C17_2 C 0.7808(7) 0.5367(4) 0.9713(12)
H15_2 H 0.7880 0.5854 0.9516
C18_3 C 0.7681(7) 0.4901(5) 0.8431(9)
H16_2 H 0.7668 0.5075 0.7375
C19_3 C 0.7573(7) 0.4174(5) 0.8726(10)
C22_3 C 0.7451(10) 0.3662(9) 0.7365(19)
C17_3 C 0.9633(4) 0.2808(7) 0.9713(12)
H15_3 H 0.9146 0.2880 0.9516
H16_3 H 0.9925 0.2668 0.7375
N1_3 N 0.6506(4) 0.7826(6) 0.5669(11)
C1_4 C 0.6090(6) 0.8432(6) 0.5213(14)
H1_4 H 0.6184 0.8738 0.4347
C2_4 C 0.5505(5) 0.8489(6) 0.6310(15)
H2_4 H 0.5149 0.8839 0.6289
N2_4 N 0.5560(5) 0.7919(6) 0.7444(11)
C3_4 C 0.6179(6) 0.7509(5) 0.7048(11)
C4_4 C 0.6411(12) 0.6880(11) 0.785(3)
H3_4 H 0.6221 0.6873 0.8931
H4_4 H 0.6926 0.6873 0.7893
H5_4 H 0.6243 0.6466 0.7270
C5_4 C 0.5107(5) 0.7828(8) 0.8709(11)
C9_3 C 0.3913(4) 0.7593(7) 0.9696(11)
H8_3 H 0.3427 0.7521 0.9499
C10_3 C 0.4380(5) 0.7720(7) 0.8413(9)
H9_3 H 0.4206 0.7733 0.7358
Cd2_2 Cd 0.76482(6) 0.76482(6) 0.5000
O1_4 O 0.7508(8) 0.7998(6) 0.2355(14)
O2_4 O 0.7640(8) 0.8869(7) 0.4031(11)
C7_4 C 0.7319(7) 0.9901(5) 0.1569(9)
C8_4 C 0.7427(7) 0.9174(5) 0.1274(10)
C11_4 C 0.7549(10) 0.8662(9) 0.2635(19)
O3_4 O 0.7998(6) 0.7508(8) 0.7645(14)
O4_4 O 0.8869(7) 0.7640(8) 0.5969(11)
C18_4 C 0.9901(5) 0.7319(7) 0.8431(9)
C19_4 C 0.9174(5) 0.7427(7) 0.8726(10)
C22_4 C 0.8662(9) 0.7549(10) 0.7365(19)
N6_3 N 0.7826(6) 0.6506(4) 0.4331(11)
C12_4 C 0.8432(6) 0.6090(6) 0.4787(14)
H10_4 H 0.8738 0.6184 0.5653
C13_4 C 0.8489(6) 0.5505(5) 0.3690(15)
H11_4 H 0.8839 0.5149 0.3711
N4_4 N 0.7919(6) 0.5560(5) 0.2556(11)
C14_4 C 0.7509(5) 0.6179(6) 0.2952(11)
C15_4 C 0.6880(11) 0.6411(12) 0.215(3)
H12_4 H 0.6873 0.6221 0.1069
H13_4 H 0.6873 0.6926 0.2107
H14_4 H 0.6466 0.6243 0.2730
C16_4 C 0.7828(8) 0.5107(5) 0.1291(11)
C20_3 C 0.7593(7) 0.3913(4) 0.0304(11)
H17_3 H 0.7521 0.3427 0.0501
C21_3 C 0.7720(7) 0.4380(5) 0.1587(9)
H18_3 H 0.7733 0.4206 0.2642
C17_4 C 0.0367(4) 0.7192(7) 0.9713(12)
H15_4 H 0.0854 0.7120 0.9516
H16_4 H 0.0075 0.7332 0.7375
C6_4 C 0.7192(7) 0.0367(4) 0.0287(12)
H6_4 H 0.7120 0.0854 0.0484
H7_4 H 0.7332 0.0075 0.2625
C20_4 C 0.8913(4) 0.7407(7) 0.0304(11)
H17_4 H 0.8427 0.7479 0.0501
C21_4 C 0.9380(5) 0.7280(7) 0.1587(9)
H18_4 H 0.9206 0.7267 0.2642
C9_4 C 0.7407(7) 0.8913(4) 0.9696(11)
H8_4 H 0.7479 0.8427 0.9499
C10_4 C 0.7280(7) 0.9380(5) 0.8413(9)
H9_4 H 0.7267 0.9206 0.7358
loop_
_geom_bond_atom_site_label_1
_geom_bond_atom_site_label_2
_geom_bond_site_symmetry_1
_geom_bond_site_symmetry_2
H17 C20 1_555 1_555
H18 C21 1_555 1_555
C20 C21 1_555 1_555
Cd1 O1 1_555 1_555
O1 C11 1_555 1_555
O2 Cd1 1_555 1_555
C8 C7 1_555 1_555
C11 O2 1_555 1_555
O3 Cd1 1_555 1_555
O4 Cd1 1_555 1_555
C19 C18 1_555 1_555
C22 O3 1_555 1_555
N5 Cd1 1_555 1_555
N6 Cd1 1_555 1_555
C8 C11 1_555 1_555
O4 C22 1_555 1_555
C19 C22 1_555 1_555
N6 C12 1_555 1_555
C12 H10 1_555 1_555
C13 C12 1_555 1_555
H11 C13 1_555 1_555
N4 C13 1_555 1_555
C14 N6 1_555 1_555
C15 C14 1_555 1_555
H12 C15 1_555 1_555
H13 C15 1_555 1_555
H14 C15 1_555 1_555
C16 N4 1_555 1_555
H17_2 C20_2 1_555 1_555
C21_2 C16 1_555 1_555
H18_2 C21_2 1_555 1_555
N4 C14 1_555 1_555
C20_2 C21_2 1_555 1_555
N5 C1 1_555 1_555
C1 H1 1_555 1_555
C2 C1 1_555 1_555
H2 C2 1_555 1_555
N2 C2 1_555 1_555
C3 N5 1_555 1_555
C4 C3 1_555 1_555
H3 C4 1_555 1_555
H4 C4 1_555 1_555
H5 C4 1_555 1_555
C5 N2 1_555 1_555
H8 C9 1_555 1_555
C10 C5 1_555 1_555
H9 C10 1_555 1_555
N2 C3 1_555 1_555
C9 C10 1_555 1_555
H8_2 C9_2 1_555 1_555
H9_2 C10_2 1_555 1_555
C9_2 C10_2 1_555 1_555
H6 C6 1_555 1_555
N1 C1_2 1_555 1_555
C1_2 H1_2 1_555 1_555
C2_2 C1_2 1_555 1_555
H2_2 C2_2 1_555 1_555
N2_2 C2_2 1_555 1_555
C3_2 N1 1_555 1_555
C4_2 C3_2 1_555 1_555
H3_2 C4_2 1_555 1_555
H4_2 C4_2 1_555 1_555
H5_2 C4_2 1_555 1_555
C5_2 N2_2 1_555 1_555
Cd2 N1 1_555 1_555
N2_2 C3_2 1_555 1_555
Cd2 O1_2 1_555 1_555
O1_2 C11_2 1_555 1_555
O2_2 Cd2 1_555 1_555
H6_2 C6_2 1_555 1_555
C7_2 C6_2 1_555 1_555
H7_2 C7_2 1_555 1_555
C8_2 C7_2 1_555 1_555
C11_2 O2_2 1_555 1_555
O3_2 Cd2 1_555 1_555
O4_2 Cd2 1_555 1_555
H15 C17 1_555 1_555
C18_2 C17 1_555 1_555
H16 C18_2 1_555 1_555
C19_2 C18_2 1_555 1_555
C22_2 O3_2 1_555 1_555
N6_2 Cd2 1_555 1_555
C8_2 C11_2 1_555 1_555
O4_2 C22_2 1_555 1_555
C19_2 C22_2 1_555 1_555
N6_2 C12_2 1_555 1_555
C12_2 H10_2 1_555 1_555
C13_2 C12_2 1_555 1_555
H11_2 C13_2 1_555 1_555
N4_2 C13_2 1_555 1_555
C14_2 N6_2 1_555 1_555
C15_2 C14_2 1_555 1_555
H12_2 C15_2 1_555 1_555
H13_2 C15_2 1_555 1_555
H14_2 C15_2 1_555 1_555
C16_2 N4_2 1_555 1_555
N4_2 C14_2 1_555 1_555
N3 C12_3 1_555 1_555
C12_3 H10_3 1_555 1_555
C13_3 C12_3 1_555 1_555
H11_3 C13_3 1_555 1_555
N4_3 C13_3 1_555 1_555
C14_3 N3 1_555 1_555
C15_3 C14_3 1_555 1_555
H12_3 C15_3 1_555 1_555
H13_3 C15_3 1_555 1_555
H14_3 C15_3 1_555 1_555
C16_3 N4_3 1_555 1_555
Cd3 N3 1_555 1_555
N4_3 C14_3 1_555 1_555
N1_2 C1_3 1_555 1_555
C1_3 H1_3 1_555 1_555
C2_3 C1_3 1_555 1_555
H2_3 C2_3 1_555 1_555
N2_3 C2_3 1_555 1_555
C3_3 N1_2 1_555 1_555
C4_3 C3_3 1_555 1_555
H3_3 C4_3 1_555 1_555
H4_3 C4_3 1_555 1_555
H5_3 C4_3 1_555 1_555
C5_3 N2_3 1_555 1_555
Cd3 N1_2 1_555 1_555
N2_3 C3_3 1_555 1_555
Cd3 O1_3 1_555 1_555
O1_3 C11_3 1_555 1_555
O2_3 Cd3 1_555 1_555
H6_3 C6_3 1_555 1_555
C7_3 C6_3 1_555 1_555
H7_3 C7_3 1_555 1_555
C8_3 C7_3 1_555 1_555
C11_3 O2_3 1_555 1_555
O3_3 Cd3 1_555 1_555
O4_3 Cd3 1_555 1_555
H15_2 C17_2 1_555 1_555
C18_3 C17_2 1_555 1_555
H16_2 C18_3 1_555 1_555
C19_3 C18_3 1_555 1_555
C22_3 O3_3 1_555 1_555
C8_3 C11_3 1_555 1_555
O4_3 C22_3 1_555 1_555
C19_3 C22_3 1_555 1_555
H15_3 C17_3 1_555 1_555
N1_3 C1_4 1_555 1_555
C1_4 H1_4 1_555 1_555
C2_4 C1_4 1_555 1_555
H2_4 C2_4 1_555 1_555
N2_4 C2_4 1_555 1_555
C3_4 N1_3 1_555 1_555
C4_4 C3_4 1_555 1_555
H3_4 C4_4 1_555 1_555
H4_4 C4_4 1_555 1_555
H5_4 C4_4 1_555 1_555
C5_4 N2_4 1_555 1_555
H8_3 C9_3 1_555 1_555
C10_3 C5_4 1_555 1_555
H9_3 C10_3 1_555 1_555
Cd2_2 N1_3 1_555 1_555
N2_4 C3_4 1_555 1_555
C9_3 C10_3 1_555 1_555
Cd2_2 O1_4 1_555 1_555
O1_4 C11_4 1_555 1_555
O2_4 Cd2_2 1_555 1_555
C8_4 C7_4 1_555 1_555
C11_4 O2_4 1_555 1_555
O3_4 Cd2_2 1_555 1_555
O4_4 Cd2_2 1_555 1_555
C19_4 C18_4 1_555 1_555
C22_4 O3_4 1_555 1_555
N6_3 Cd2_2 1_555 1_555
C8_4 C11_4 1_555 1_555
O4_4 C22_4 1_555 1_555
C19_4 C22_4 1_555 1_555
N6_3 C12_4 1_555 1_555
C12_4 H10_4 1_555 1_555
C13_4 C12_4 1_555 1_555
H11_4 C13_4 1_555 1_555
N4_4 C13_4 1_555 1_555
C14_4 N6_3 1_555 1_555
C15_4 C14_4 1_555 1_555
H12_4 C15_4 1_555 1_555
H13_4 C15_4 1_555 1_555
H14_4 C15_4 1_555 1_555
C16_4 N4_4 1_555 1_555
H17_3 C20_3 1_555 1_555
C21_3 C16_4 1_555 1_555
H18_3 C21_3 1_555 1_555
N4_4 C14_4 1_555 1_555
C20_3 C21_3 1_555 1_555
H15_4 C17_4 1_555 1_555
H6_4 C6_4 1_555 1_555
H17_4 C20_4 1_555 1_555
H18_4 C21_4 1_555 1_555
C20_4 C21_4 1_555 1_555
H8_4 C9_4 1_555 1_555
H9_4 C10_4 1_555 1_555
C9_4 C10_4 1_555 1_555

#END
