
###############################################################################
#
# This file contains modified crystal structure data generated from the
# MOF subset of the Cambridge Structural Database (CSD) v543 
# hosted by the Cambridge Crystallographic Data Centre (CCDC).
#
# This work is licensed under the Creative Commons
# Attribution-NonCommercial-ShareAlike 4.0 International License.
# To view a copy of this license, visit
# http://creativecommons.org/licenses/by-nc-sa/4.0/
# or send a letter to
# Creative Commons, PO Box 1866, Mountain View, CA 94042, USA.
#
# CIF created using the CSD Python API on 29 September 2022
# The structure has been converted into the P1 space group
# The structure has a 3D framework
# The original CSD entry NOXPOI is in the hexagonal crystal system
# The original CSD entry NOXPOI is in a Sohncke space group
# The framework has been calculated to contain at least 10.0% void space
# The void calculation uses a probe of radius 1.32A, grid spacing 0.4
#
###############################################################################

data_NOXPOI
_chemical_formula_moiety         '(C36 H30 N12 O12 Zn3)n'
_symmetry_cell_setting           triclinic
_symmetry_space_group_name_H-M   'P 1'
_symmetry_Int_Tables_number      1
_space_group_name_Hall           'P 1'
loop_
_symmetry_equiv_pos_site_id
_symmetry_equiv_pos_as_xyz
1 x,y,z
_cell_length_a                   15.465(3)
_cell_length_b                   15.465(3)
_cell_length_c                   6.3597(13)
_cell_angle_alpha                90
_cell_angle_beta                 90
_cell_angle_gamma                120
_cell_volume                     1317.25
loop_
_atom_site_label
_atom_site_type_symbol
_atom_site_fract_x
_atom_site_fract_y
_atom_site_fract_z
Zn3 Zn -0.000000 0.500000 0.81397(9)
N1 N 0.09808(14) 0.48235(16) 0.9959(4)
C5 C 0.19342(19) 0.5215(2) 0.9329(5)
H5 H 0.213471 0.555414 0.805534
N3 N 0.90192(14) 0.51765(16) 0.9959(4)
C11 C 0.80658(19) 0.4785(2) 0.9329(5)
H10 H 0.786529 0.444586 0.805534
Zn3_2 Zn 1.000000 0.500000 0.81397(9)
Zn3_3 Zn 0.500000 0.000000 0.14731(9)
O3 O 0.13159(27) 0.70489(18) 0.8908(4)
O4 O 0.08654(20) 0.60499(13) 0.6162(3)
N3_2 N 0.38427(21) 0.90192(14) 0.3292(4)
N4 N 0.27341(28) 0.89981(19) 0.8297(5)
H6 H 0.311641 0.961461 0.863015
H7 H 0.226279 0.860613 0.913363
C7 C 0.36411(27) 0.92891(18) 0.5115(5)
H8 H 0.403624 0.995060 0.553188
C8 C 0.28740(27) 0.86440(18) 0.6453(5)
C9 C 0.22807(28) 0.76517(19) 0.5800(4)
C10 C 0.24989(28) 0.73819(19) 0.3884(5)
H9 H 0.211314 0.672823 0.341254
C11_2 C 0.32808(28) 0.80658(19) 0.2662(5)
H10_2 H 0.341943 0.786529 0.138867
C12 C 0.1423(3) 0.6882(2) 0.7080(5)
Zn3_4 Zn 0.500000 1.000000 0.14731(9)
O1 O 0.86841(27) 0.29511(18) 0.8908(4)
O2 O 0.91346(20) 0.39501(13) 0.6162(3)
N1_2 N 0.61573(21) 0.09808(14) 0.3292(4)
N2 N 0.72659(28) 0.10019(19) 0.8297(5)
H1 H 0.688359 0.038539 0.863015
H2 H 0.773721 0.139387 0.913363
C1 C 0.63589(27) 0.07109(18) 0.5115(5)
H3 H 0.596376 0.004940 0.553188
C2 C 0.71260(27) 0.13560(18) 0.6453(5)
C3 C 0.77193(28) 0.23483(19) 0.5800(4)
C4 C 0.75011(28) 0.26181(19) 0.3884(5)
H4 H 0.788686 0.327177 0.341254
C5_2 C 0.67192(28) 0.19342(19) 0.2662(5)
H5_2 H 0.658057 0.213471 0.138867
C6 C 0.8577(3) 0.3118(2) 0.7080(5)
O3_2 O 0.4267(2) 0.13159(27) 0.2242(4)
N4_2 N 0.3736(2) 0.27341(28) 0.1631(5)
H6_2 H 0.350180 0.311641 0.196349
H7_2 H 0.365666 0.226279 0.246697
C12_2 C 0.4541(2) 0.1423(3) 0.0414(5)
O1_2 O 0.5733(2) 0.86841(27) 0.2242(4)
N2_2 N 0.6264(2) 0.72659(28) 0.1631(5)
H1_2 H 0.649820 0.688359 0.196349
H2_2 H 0.634334 0.773721 0.246697
C6_2 C 0.5459(2) 0.8577(3) 0.0414(5)
Zn1 Zn 0.500000 0.500000 0.48064(9)
O1_3 O 0.29511(18) 0.4267(2) 0.5575(4)
O2_2 O 0.39501(13) 0.48155(15) 0.2829(3)
N2_3 N 0.10019(19) 0.3736(2) 0.4964(5)
H1_3 H 0.038539 0.350180 0.529682
H2_3 H 0.139387 0.365666 0.580030
C1_2 C 0.07109(18) 0.4352(2) 0.1782(5)
H3_2 H 0.004940 0.408564 0.219855
C2_2 C 0.13560(18) 0.4230(2) 0.3120(5)
C3_2 C 0.23483(19) 0.4629(2) 0.2467(4)
C4_2 C 0.26181(19) 0.5117(2) 0.0551(5)
H4_2 H 0.327177 0.538491 0.007921
C6_3 C 0.3118(2) 0.4541(2) 0.3747(5)
O3_3 O 0.70489(18) 0.5733(2) 0.5575(4)
O4_2 O 0.60499(13) 0.51845(15) 0.2829(3)
N4_3 N 0.89981(19) 0.6264(2) 0.4964(5)
H6_3 H 0.961461 0.649820 0.529682
H7_3 H 0.860613 0.634334 0.580030
C7_2 C 0.92891(18) 0.5648(2) 0.1782(5)
H8_2 H 0.995060 0.591436 0.219855
C8_2 C 0.86440(18) 0.5770(2) 0.3120(5)
C9_2 C 0.76517(19) 0.5371(2) 0.2467(4)
C10_2 C 0.73819(19) 0.4883(2) 0.0551(5)
H9_2 H 0.672823 0.461509 0.007921
C12_3 C 0.6882(2) 0.5459(2) 0.3747(5)
N5 N 0.51765(16) 0.61573(21) 0.6626(4)
N6 N 0.48235(16) 0.38427(21) 0.6626(4)
O4_3 O 0.48155(15) 0.08654(20) 0.9496(3)
C7_3 C 0.4352(2) 0.36411(27) 0.8449(5)
H8_3 H 0.408564 0.403624 0.886522
C8_3 C 0.4230(2) 0.28740(27) 0.9787(5)
C9_3 C 0.4629(2) 0.22807(28) 0.9134(4)
C10_3 C 0.5117(2) 0.24989(28) 0.7218(5)
H9_3 H 0.538491 0.211314 0.674588
C11_3 C 0.5215(2) 0.32808(28) 0.5996(5)
H10_3 H 0.555414 0.341943 0.472201
O2_3 O 0.51845(15) 0.91346(20) 0.9496(3)
C1_3 C 0.5648(2) 0.63589(27) 0.8449(5)
H3_3 H 0.591436 0.596376 0.886522
C2_3 C 0.5770(2) 0.71260(27) 0.9787(5)
C3_3 C 0.5371(2) 0.77193(28) 0.9134(4)
C4_3 C 0.4883(2) 0.75011(28) 0.7218(5)
H4_3 H 0.461509 0.788686 0.674588
C5_3 C 0.4785(2) 0.67192(28) 0.5996(5)
H5_3 H 0.444586 0.658057 0.472201
loop_
_geom_bond_atom_site_label_1
_geom_bond_atom_site_label_2
_geom_bond_site_symmetry_1
_geom_bond_site_symmetry_2
C5 N1 1_555 1_555
H5 C5 1_555 1_555
C11 N3 1_555 1_555
H10 C11 1_555 1_555
Zn3 N1 1_555 1_555
Zn3_2 N3 1_555 1_555
O3 C12 1_555 1_555
O4 Zn3 1_555 1_555
N3_2 C7 1_555 1_555
N4 H6 1_555 1_555
H7 N4 1_555 1_555
C7 H8 1_555 1_555
C8 N4 1_555 1_555
C9 C8 1_555 1_555
C10 C9 1_555 1_555
H9 C10 1_555 1_555
C11_2 N3_2 1_555 1_555
H10_2 C11_2 1_555 1_555
C12 O4 1_555 1_555
Zn3_4 N3_2 1_555 1_555
C7 C8 1_555 1_555
C9 C12 1_555 1_555
C10 C11_2 1_555 1_555
Zn3_2 O2 1_555 1_555
O1 C6 1_555 1_555
O2 C6 1_555 1_555
N1_2 C1 1_555 1_555
N2 H1 1_555 1_555
H2 N2 1_555 1_555
C1 H3 1_555 1_555
C2 N2 1_555 1_555
C3 C2 1_555 1_555
C4 C3 1_555 1_555
H4 C4 1_555 1_555
C5_2 N1_2 1_555 1_555
H5_2 C5_2 1_555 1_555
C6 C3 1_555 1_555
Zn3_3 N1_2 1_555 1_555
C1 C2 1_555 1_555
C4 C5_2 1_555 1_555
O3_2 C12_2 1_555 1_555
N4_2 H6_2 1_555 1_555
H7_2 N4_2 1_555 1_555
O1_2 C6_2 1_555 1_555
N2_2 H1_2 1_555 1_555
H2_2 N2_2 1_555 1_555
Zn1 O2_2 1_555 1_555
O1_3 C6_3 1_555 1_555
O2_2 C6_3 1_555 1_555
N2_3 H1_3 1_555 1_555
H2_3 N2_3 1_555 1_555
C1_2 H3_2 1_555 1_555
C2_2 N2_3 1_555 1_555
C3_2 C2_2 1_555 1_555
C4_2 C3_2 1_555 1_555
H4_2 C4_2 1_555 1_555
C6_3 C3_2 1_555 1_555
O3_3 C12_3 1_555 1_555
O4_2 Zn1 1_555 1_555
N4_3 H6_3 1_555 1_555
H7_3 N4_3 1_555 1_555
C7_2 H8_2 1_555 1_555
C8_2 N4_3 1_555 1_555
C9_2 C8_2 1_555 1_555
C10_2 C9_2 1_555 1_555
H9_2 C10_2 1_555 1_555
C12_3 O4_2 1_555 1_555
N5 Zn1 1_555 1_555
N6 Zn1 1_555 1_555
C1_2 C2_2 1_555 1_555
C7_2 C8_2 1_555 1_555
C9_2 C12_3 1_555 1_555
N6 C7_3 1_555 1_555
C7_3 H8_3 1_555 1_555
C9_3 C8_3 1_555 1_555
C10_3 C9_3 1_555 1_555
H9_3 C10_3 1_555 1_555
C11_3 N6 1_555 1_555
H10_3 C11_3 1_555 1_555
C7_3 C8_3 1_555 1_555
C10_3 C11_3 1_555 1_555
N5 C1_3 1_555 1_555
C1_3 H3_3 1_555 1_555
C3_3 C2_3 1_555 1_555
C4_3 C3_3 1_555 1_555
H4_3 C4_3 1_555 1_555
C5_3 N5 1_555 1_555
H5_3 C5_3 1_555 1_555
C1_3 C2_3 1_555 1_555
C4_3 C5_3 1_555 1_555

#END
