
###############################################################################
#
# This file contains modified crystal structure data generated from the
# MOF subset of the Cambridge Structural Database (CSD) v543 
# hosted by the Cambridge Crystallographic Data Centre (CCDC).
#
# This work is licensed under the Creative Commons
# Attribution-NonCommercial-ShareAlike 4.0 International License.
# To view a copy of this license, visit
# http://creativecommons.org/licenses/by-nc-sa/4.0/
# or send a letter to
# Creative Commons, PO Box 1866, Mountain View, CA 94042, USA.
#
# CIF created using the CSD Python API on 29 September 2022
# The structure has been converted into the P1 space group
# The structure has a 3D framework
# The original CSD entry NOXPUO is in the orthorhombic crystal system
# The original CSD entry NOXPUO is in a Sohncke space group
# The framework has been calculated to contain at least 10.0% void space
# The void calculation uses a probe of radius 1.32A, grid spacing 0.4
#
###############################################################################

data_NOXPUO
_chemical_formula_moiety         '(C48 H40 N16 O16 Zn4)n'
_symmetry_cell_setting           triclinic
_symmetry_space_group_name_H-M   'P 1'
_symmetry_Int_Tables_number      1
_space_group_name_Hall           'P 1'
loop_
_symmetry_equiv_pos_site_id
_symmetry_equiv_pos_as_xyz
1 x,y,z
_cell_length_a                   14.7391(5)
_cell_length_b                   14.7855(5)
_cell_length_c                   9.8812(4)
_cell_angle_alpha                90
_cell_angle_beta                 90
_cell_angle_gamma                90
_cell_volume                     2153.36
loop_
_atom_site_label
_atom_site_type_symbol
_atom_site_fract_x
_atom_site_fract_y
_atom_site_fract_z
O3 O 0.7760(2) 0.13763(17) 0.3524(3)
O4 O 0.6523(2) 0.18481(18) 0.4617(3)
N4 N 0.5927(3) 0.0792(2) 0.6661(5)
H3 H 0.5584 0.0655 0.7335
H4 H 0.5879 0.1313 0.6281
C8 C 0.6523(3) 0.0204(2) 0.6210(4)
C9 C 0.7132(2) 0.0379(2) 0.5110(3)
C12 C 0.7122(3) 0.1267(2) 0.4390(4)
Zn2 Zn 0.77929(2) 0.25207(2) 0.25485(3)
Zn1 Zn 0.72071(2) 0.75207(2) 0.74515(3)
O1 O 0.52564(16) 0.7455(3) 0.7042(2)
O2 O 0.62103(13) 0.7555(2) 0.8762(2)
N2 N 0.3509(2) 0.6960(3) 0.7598(3)
H1 H 0.2960 0.6796 0.7433
H2 H 0.3906 0.6956 0.6961
N3 N 0.7210(2) 0.87202(18) 0.6445(3)
C3 C 0.4648(2) 0.7451(2) 0.9285(3)
C4 C 0.3750(2) 0.7229(2) 0.8880(3)
C5 C 0.3102(2) 0.7236(3) 0.9921(3)
H7 H 0.2511 0.7074 0.9697
C6 C 0.5408(2) 0.7491(3) 0.8266(3)
C7 C 0.6604(3) 0.9340(2) 0.6836(4)
H8 H 0.6217 0.9201 0.7549
C10 C 0.7717(3) 0.9714(2) 0.4725(4)
H9 H 0.8099 0.9811 0.3990
C11 C 0.7755(3) 0.8887(2) 0.5410(4)
H10 H 0.8169 0.8450 0.5135
O5 O 0.7240(2) 0.63763(17) 0.6476(3)
N5 N 0.82659(17) 0.7547(2) 0.8816(2)
N1 N 0.67341(17) 0.2547(2) 0.1184(2)
C1 C 0.5887(2) 0.2331(3) 0.1539(4)
H5 H 0.5763 0.2168 0.2429
C2 C 0.5200(2) 0.2346(3) 0.0611(4)
H6 H 0.4612 0.2213 0.0891
O1_2 O 0.97436(16) 0.2455(3) 0.2958(2)
O2_2 O 0.87897(13) 0.2555(2) 0.1238(2)
O4_2 O 0.8477(2) 0.68481(18) 0.5383(3)
N3_2 N 0.7790(2) 0.37202(18) 0.3555(3)
N4_2 N 0.9073(3) 0.5792(2) 0.3339(5)
H3_2 H 0.9416 0.5655 0.2665
H4_2 H 0.9121 0.6313 0.3719
C6_2 C 0.9592(2) 0.2491(3) 0.1734(3)
C7_2 C 0.8396(3) 0.4340(2) 0.3164(4)
H8_2 H 0.8783 0.4201 0.2451
C8_2 C 0.8477(3) 0.5204(2) 0.3790(4)
C9_2 C 0.7868(2) 0.5379(2) 0.4890(3)
C10_2 C 0.7283(3) 0.4714(2) 0.5275(4)
H9_2 H 0.6901 0.4811 0.6010
C11_2 C 0.7245(3) 0.3887(2) 0.4590(4)
H10_2 H 0.6831 0.3450 0.4865
C12_2 C 0.7878(3) 0.6267(2) 0.5610(4)
C1_2 C 0.9113(2) 0.7331(3) 0.8461(4)
H5_2 H 0.9237 0.7168 0.7571
C2_2 C 0.9800(2) 0.7346(3) 0.9389(4)
N1_2 N 0.32659(17) 0.7453(2) 0.1184(2)
C1_3 C 0.4113(2) 0.7669(3) 0.1539(4)
H5_3 H 0.4237 0.7832 0.2429
C2_3 C 0.4800(2) 0.7654(3) 0.0611(4)
H6_2 H 0.5388 0.7787 0.0891
Zn3 Zn 0.22071(2) 0.74793(2) 0.25485(3)
Zn1_2 Zn 0.27929(2) 0.24793(2) 0.74515(3)
O1_3 O 0.47436(16) 0.2545(3) 0.7042(2)
O2_3 O 0.37897(13) 0.2445(2) 0.8762(2)
N2_2 N 0.6491(2) 0.3040(3) 0.7598(3)
H1_2 H 0.7040 0.3204 0.7433
H2_2 H 0.6094 0.3044 0.6961
N3_3 N 0.2790(2) 0.12798(18) 0.6445(3)
C3_2 C 0.5352(2) 0.2549(2) 0.9285(3)
C4_2 C 0.6250(2) 0.2771(2) 0.8880(3)
C5_2 C 0.6898(2) 0.2764(3) 0.9921(3)
H7_2 H 0.7489 0.2926 0.9697
C6_3 C 0.4592(2) 0.2509(3) 0.8266(3)
C7_3 C 0.3396(3) 0.0660(2) 0.6836(4)
H8_3 H 0.3783 0.0799 0.7549
C10_3 C 0.2283(3) 0.0286(2) 0.4725(4)
H9_3 H 0.1901 0.0189 0.3990
C11_3 C 0.2245(3) 0.1113(2) 0.5410(4)
H10_3 H 0.1831 0.1550 0.5135
O5_2 O 0.2760(2) 0.36237(17) 0.6476(3)
N5_2 N 0.17341(17) 0.2453(2) 0.8816(2)
O3_2 O 0.2240(2) 0.86237(17) 0.3524(3)
O4_3 O 0.3477(2) 0.81519(18) 0.4617(3)
N4_3 N 0.4073(3) 0.9208(2) 0.6661(5)
H3_3 H 0.4416 0.9345 0.7335
H4_3 H 0.4121 0.8687 0.6281
C8_3 C 0.3477(3) 0.9796(2) 0.6210(4)
C9_3 C 0.2868(2) 0.9621(2) 0.5110(3)
C12_3 C 0.2878(3) 0.8733(2) 0.4390(4)
C1_4 C 0.0887(2) 0.2669(3) 0.8461(4)
H5_4 H 0.0763 0.2832 0.7571
C2_4 C 0.0200(2) 0.2654(3) 0.9389(4)
O1_4 O 0.02564(16) 0.7545(3) 0.2958(2)
O2_4 O 0.12103(13) 0.7445(2) 0.1238(2)
O4_4 O 0.1523(2) 0.31519(18) 0.5383(3)
N3_4 N 0.2210(2) 0.62798(18) 0.3555(3)
N4_4 N 0.0927(3) 0.4208(2) 0.3339(5)
H3_4 H 0.0584 0.4345 0.2665
H4_4 H 0.0879 0.3687 0.3719
C6_4 C 0.0408(2) 0.7509(3) 0.1734(3)
C7_4 C 0.1604(3) 0.5660(2) 0.3164(4)
H8_4 H 0.1217 0.5799 0.2451
C8_4 C 0.1523(3) 0.4796(2) 0.3790(4)
C9_4 C 0.2132(2) 0.4621(2) 0.4890(3)
C10_4 C 0.2717(3) 0.5286(2) 0.5275(4)
H9_4 H 0.3099 0.5189 0.6010
C11_4 C 0.2755(3) 0.6113(2) 0.4590(4)
H10_4 H 0.3169 0.6550 0.4865
C12_4 C 0.2122(3) 0.3733(2) 0.5610(4)
N2_3 N 0.1491(2) 0.1960(3) 0.2402(3)
H1_3 H 0.2040 0.1796 0.2567
H2_3 H 0.1094 0.1956 0.3039
C3_3 C 0.0352(2) 0.2451(2) 0.0715(3)
C4_3 C 0.1250(2) 0.2229(2) 0.1120(3)
C5_3 C 0.1898(2) 0.2236(3) 0.0079(3)
H7_3 H 0.2489 0.2074 0.0303
H6_3 H 0.9612 0.2787 0.9109
H6_4 H 0.0388 0.7213 0.9109
N2_4 N 0.8509(2) 0.8040(3) 0.2402(3)
H1_4 H 0.7960 0.8204 0.2567
H2_4 H 0.8906 0.8044 0.3039
C3_4 C 0.9648(2) 0.7549(2) 0.0715(3)
C4_4 C 0.8750(2) 0.7771(2) 0.1120(3)
C5_4 C 0.8102(2) 0.7764(3) 0.0079(3)
H7_4 H 0.7511 0.7926 0.0303
loop_
_geom_bond_atom_site_label_1
_geom_bond_atom_site_label_2
_geom_bond_site_symmetry_1
_geom_bond_site_symmetry_2
O3 C12 1_555 1_555
O4 C12 1_555 1_555
N4 H3 1_555 1_555
H4 N4 1_555 1_555
C8 N4 1_555 1_555
C9 C8 1_555 1_555
C12 C9 1_555 1_555
Zn2 O3 1_555 1_555
Zn1 O2 1_555 1_555
O1 C6 1_555 1_555
O2 C6 1_555 1_555
N2 H1 1_555 1_555
H2 N2 1_555 1_555
N3 Zn1 1_555 1_555
C4 N2 1_555 1_555
H7 C5 1_555 1_555
C6 C3 1_555 1_555
C7 N3 1_555 1_555
H8 C7 1_555 1_555
H9 C10 1_555 1_555
C11 N3 1_555 1_555
H10 C11 1_555 1_555
O5 Zn1 1_555 1_555
N5 Zn1 1_555 1_555
C3 C4 1_555 1_555
C4 C5 1_555 1_555
C10 C11 1_555 1_555
N1 C1 1_555 1_555
C1 H5 1_555 1_555
C2 C1 1_555 1_555
H6 C2 1_555 1_555
Zn2 N1 1_555 1_555
Zn2 O2_2 1_555 1_555
O1_2 C6_2 1_555 1_555
O2_2 C6_2 1_555 1_555
O5 C12_2 1_555 1_555
O4_2 C12_2 1_555 1_555
N3_2 Zn2 1_555 1_555
N4_2 H3_2 1_555 1_555
H4_2 N4_2 1_555 1_555
C7_2 N3_2 1_555 1_555
H8_2 C7_2 1_555 1_555
C8_2 N4_2 1_555 1_555
C9_2 C8_2 1_555 1_555
C10_2 C9_2 1_555 1_555
H9_2 C10_2 1_555 1_555
C11_2 N3_2 1_555 1_555
H10_2 C11_2 1_555 1_555
C12_2 C9_2 1_555 1_555
C7_2 C8_2 1_555 1_555
C10_2 C11_2 1_555 1_555
N5 C1_2 1_555 1_555
C1_2 H5_2 1_555 1_555
C2_2 C1_2 1_555 1_555
N1_2 C1_3 1_555 1_555
C1_3 H5_3 1_555 1_555
C2_3 C1_3 1_555 1_555
H6_2 C2_3 1_555 1_555
Zn3 N1_2 1_555 1_555
Zn1_2 O2_3 1_555 1_555
O1_3 C6_3 1_555 1_555
O2_3 C6_3 1_555 1_555
N2_2 H1_2 1_555 1_555
H2_2 N2_2 1_555 1_555
N3_3 Zn1_2 1_555 1_555
C4_2 N2_2 1_555 1_555
H7_2 C5_2 1_555 1_555
C6_3 C3_2 1_555 1_555
C7_3 N3_3 1_555 1_555
H8_3 C7_3 1_555 1_555
H9_3 C10_3 1_555 1_555
C11_3 N3_3 1_555 1_555
H10_3 C11_3 1_555 1_555
O5_2 Zn1_2 1_555 1_555
N5_2 Zn1_2 1_555 1_555
C3_2 C4_2 1_555 1_555
C4_2 C5_2 1_555 1_555
C10_3 C11_3 1_555 1_555
O3_2 C12_3 1_555 1_555
O4_3 C12_3 1_555 1_555
N4_3 H3_3 1_555 1_555
H4_3 N4_3 1_555 1_555
C8_3 N4_3 1_555 1_555
C9_3 C8_3 1_555 1_555
C12_3 C9_3 1_555 1_555
Zn3 O3_2 1_555 1_555
N5_2 C1_4 1_555 1_555
C1_4 H5_4 1_555 1_555
C2_4 C1_4 1_555 1_555
Zn3 O2_4 1_555 1_555
O1_4 C6_4 1_555 1_555
O2_4 C6_4 1_555 1_555
O5_2 C12_4 1_555 1_555
O4_4 C12_4 1_555 1_555
N3_4 Zn3 1_555 1_555
N4_4 H3_4 1_555 1_555
H4_4 N4_4 1_555 1_555
C7_4 N3_4 1_555 1_555
H8_4 C7_4 1_555 1_555
C8_4 N4_4 1_555 1_555
C9_4 C8_4 1_555 1_555
C10_4 C9_4 1_555 1_555
H9_4 C10_4 1_555 1_555
C11_4 N3_4 1_555 1_555
H10_4 C11_4 1_555 1_555
C12_4 C9_4 1_555 1_555
C7_4 C8_4 1_555 1_555
C10_4 C11_4 1_555 1_555
N2_3 H1_3 1_555 1_555
H2_3 N2_3 1_555 1_555
C4_3 N2_3 1_555 1_555
H7_3 C5_3 1_555 1_555
C3_3 C4_3 1_555 1_555
C4_3 C5_3 1_555 1_555
N2_4 H1_4 1_555 1_555
H2_4 N2_4 1_555 1_555
C4_4 N2_4 1_555 1_555
H7_4 C5_4 1_555 1_555
C3_4 C4_4 1_555 1_555
C4_4 C5_4 1_555 1_555

#END
