
###############################################################################
#
# This file contains modified crystal structure data generated from the
# MOF subset of the Cambridge Structural Database (CSD) v543 
# hosted by the Cambridge Crystallographic Data Centre (CCDC).
#
# This work is licensed under the Creative Commons
# Attribution-NonCommercial-ShareAlike 4.0 International License.
# To view a copy of this license, visit
# http://creativecommons.org/licenses/by-nc-sa/4.0/
# or send a letter to
# Creative Commons, PO Box 1866, Mountain View, CA 94042, USA.
#
# CIF created using the CSD Python API on 29 September 2022
# The structure has been converted into the P1 space group
# The structure has a 3D framework
# The original CSD entry NUDPAE05 is in the rhombohedral crystal system
# The framework has been calculated to contain at least 10.0% void space
# The void calculation uses a probe of radius 1.32A, grid spacing 0.4
# The framework is charged, counterions have been retained in the structure
#
###############################################################################

data_NUDPAE05
_chemical_formula_moiety         '(C22 H22 Fe7 O30 7-)n'
_symmetry_cell_setting           triclinic
_symmetry_space_group_name_H-M   'P 1'
_symmetry_Int_Tables_number      1
_space_group_name_Hall           'P 1'
loop_
_symmetry_equiv_pos_site_id
_symmetry_equiv_pos_as_xyz
1 x,y,z
_cell_length_a                   8.1069(2)
_cell_length_b                   8.1069(2)
_cell_length_c                   21.6257(8)
_cell_angle_alpha                90
_cell_angle_beta                 90
_cell_angle_gamma                120
_cell_volume                     1230.87
loop_
_atom_site_label
_atom_site_type_symbol
_atom_site_fract_x
_atom_site_fract_y
_atom_site_fract_z
C1 C -0.000000 0.4485(5) 0.250000
H1 H 0.000002 0.563228 0.250000
O2 O 0.1297(3) 0.4432(4) 0.22177(10)
Fe4 Fe 0.333333 0.666667 0.166667
Fe1 Fe 0.666667 0.333333 0.333333
O1 O 0.8703(3) 0.3135(3) 0.27823(10)
C1_2 C 1.000000 0.4485(5) 0.250000
H1_2 H 1.000002 0.563228 0.250000
O3 O 0.6865(3) 0.5568(4) 0.27823(10)
C2 C 0.5515(5) 0.55150(50) 0.250000
H2 H 0.436772 0.436774 0.250000
O4 O 0.5568(4) 0.6865(3) 0.22177(10)
O5 O 0.4432(4) 0.1297(3) 0.27823(10)
C3 C 0.44850(50) -0.000000 0.250000
H3 H 0.563226 -0.000002 0.250000
O7 O 0.4630(3) 0.3532(3) 0.38844(10)
O8 O 0.6468(3) 0.1099(4) 0.38844(10)
O9 O 0.8901(4) 0.5370(3) 0.38844(10)
C3_2 C 0.44850(50) 1.000000 0.250000
H3_2 H 0.563226 0.999998 0.250000
O6 O 0.3135(3) 0.8703(3) 0.22177(10)
O7_2 O 0.3532(3) 0.4630(3) 0.11156(10)
O8_2 O 0.1099(4) 0.6468(3) 0.11156(10)
O9_2 O 0.5370(3) 0.8901(4) 0.11156(10)
Fe4_2 Fe -0.000000 0.000000 0.500000
Fe4_3 Fe -0.000000 1.000000 0.500000
O4_2 O 0.2235(4) 0.0198(3) 0.55510(10)
Fe4_4 Fe 1.000000 0.000000 0.500000
Fe1_2 Fe 0.333334 0.666666 0.666666
O1_2 O 0.5370(3) 0.6468(3) 0.61156(10)
C1_3 C 0.666667 0.7818(5) 0.583333
H1_3 H 0.666669 0.896561 0.583333
O2_2 O 0.7964(3) 0.7765(4) 0.55510(10)
O3_2 O 0.3532(3) 0.8901(4) 0.61156(10)
C2_2 C 0.2182(5) 0.88483(50) 0.583333
H2_2 H 0.103439 0.770107 0.583333
O5_2 O 0.1099(4) 0.4630(3) 0.61156(10)
C3_3 C 0.11517(50) 0.333333 0.583333
H3_3 H 0.229893 0.333331 0.583333
Fe4_5 Fe 1.000000 1.000000 0.500000
O7_3 O 0.1297(3) 0.6865(3) 0.72177(10)
O8_3 O 0.3135(3) 0.4432(4) 0.72177(10)
O9_3 O 0.5568(4) 0.8703(3) 0.72177(10)
O6_2 O 0.9802(3) 0.2036(3) 0.55510(10)
O9_4 O 0.2036(3) 0.2235(4) 0.44490(10)
O7_4 O 0.0198(3) 0.7964(3) 0.44490(10)
O8_4 O 0.7765(4) 0.9802(3) 0.44490(10)
Fe1_3 Fe 0.000000 -0.000000 -0.000000
O9_5 O 0.2235(4) 0.2036(3) 0.05510(10)
Fe1_4 Fe 0.000000 -0.000000 1.000000
C1_4 C 0.333333 0.1152(5) 0.916667
H1_4 H 0.333335 0.229895 0.916667
O2_3 O 0.4630(3) 0.1099(4) 0.88844(10)
O3_3 O 0.0198(3) 0.2235(4) 0.94490(10)
Fe4_6 Fe 0.666666 0.333334 0.833334
Fe1_5 Fe 0.000000 1.000000 -0.000000
Fe1_6 Fe 0.000000 1.000000 1.000000
O1_3 O 0.2036(3) 0.9802(3) 0.94490(10)
Fe1_7 Fe 1.000000 -0.000000 -0.000000
O7_5 O 0.7964(3) 0.0198(3) 0.05510(10)
Fe1_8 Fe 1.000000 -0.000000 1.000000
C2_3 C 0.8848(5) 0.21817(50) 0.916667
H2_3 H 0.770105 0.103441 0.916667
O4_3 O 0.8901(4) 0.3532(3) 0.88844(10)
Fe1_9 Fe 1.000000 1.000000 -0.000000
O8_5 O 0.9802(3) 0.7765(4) 0.05510(10)
Fe1_10 Fe 1.000000 1.000000 1.000000
O5_3 O 0.7765(4) 0.7964(3) 0.94490(10)
C3_4 C 0.78183(50) 0.666667 0.916667
H3_4 H 0.896559 0.666665 0.916667
O6_3 O 0.6468(3) 0.5370(3) 0.88844(10)
O7_6 O 0.6865(3) 0.1297(3) 0.77823(10)
O8_6 O 0.4432(4) 0.3135(3) 0.77823(10)
O9_6 O 0.8703(3) 0.5568(4) 0.77823(10)
C3_5 C 0.55150(50) -0.000000 0.750000
H3_5 H 0.436774 0.000002 0.750000
C1_5 C 0.000000 0.5515(5) 0.750000
H1_5 H -0.000002 0.436772 0.750000
C2_4 C 0.4485(5) 0.44850(50) 0.750000
H2_4 H 0.563228 0.563226 0.750000
C3_6 C 0.55150(50) 1.000000 0.750000
H3_6 H 0.436774 1.000002 0.750000
C1_6 C 1.000000 0.5515(5) 0.750000
H1_6 H 0.999998 0.436772 0.750000
C1_7 C 0.333333 0.2182(5) 0.416667
H1_7 H 0.333331 0.103439 0.416667
C2_5 C 0.7818(5) 0.11517(50) 0.416667
H2_5 H 0.896561 0.229893 0.416667
C3_7 C 0.88483(50) 0.666667 0.416667
H3_7 H 0.770107 0.666669 0.416667
C3_8 C 0.21817(50) 0.333333 0.083333
H3_8 H 0.103441 0.333335 0.083333
C2_6 C 0.1152(5) 0.78183(50) 0.083333
H2_6 H 0.229895 0.896559 0.083333
C1_8 C 0.666667 0.8848(5) 0.083333
H1_8 H 0.666665 0.770105 0.083333
loop_
_geom_bond_atom_site_label_1
_geom_bond_atom_site_label_2
_geom_bond_site_symmetry_1
_geom_bond_site_symmetry_2
C1 H1 1_555 1_555
O2 C1 1_555 1_555
Fe4 O2 1_555 1_555
Fe1 O1 1_555 1_555
O1 C1_2 1_555 1_555
C1_2 H1_2 1_555 1_555
O3 Fe1 1_555 1_555
C2 O3 1_555 1_555
H2 C2 1_555 1_555
O4 C2 1_555 1_555
O5 Fe1 1_555 1_555
C3 O5 1_555 1_555
H3 C3 1_555 1_555
Fe4 O4 1_555 1_555
O7 Fe1 1_555 1_555
O8 Fe1 1_555 1_555
O9 Fe1 1_555 1_555
H3_2 C3_2 1_555 1_555
O6 C3_2 1_555 1_555
Fe4 O6 1_555 1_555
O7_2 Fe4 1_555 1_555
O8_2 Fe4 1_555 1_555
O9_2 Fe4 1_555 1_555
Fe4_2 O4_2 1_555 1_555
Fe1_2 O1_2 1_555 1_555
O1_2 C1_3 1_555 1_555
C1_3 H1_3 1_555 1_555
O2_2 C1_3 1_555 1_555
O3_2 Fe1_2 1_555 1_555
C2_2 O3_2 1_555 1_555
H2_2 C2_2 1_555 1_555
O5_2 Fe1_2 1_555 1_555
C3_3 O5_2 1_555 1_555
H3_3 C3_3 1_555 1_555
Fe4_5 O2_2 1_555 1_555
O7_3 Fe1_2 1_555 1_555
O8_3 Fe1_2 1_555 1_555
O9_3 Fe1_2 1_555 1_555
Fe4_4 O6_2 1_555 1_555
O9_4 Fe4_2 1_555 1_555
O7_4 Fe4_3 1_555 1_555
O8_4 Fe4_5 1_555 1_555
O9_5 Fe1_3 1_555 1_555
C1_4 H1_4 1_555 1_555
O2_3 C1_4 1_555 1_555
O3_3 Fe1_4 1_555 1_555
Fe4_6 O2_3 1_555 1_555
Fe1_6 O1_3 1_555 1_555
O7_5 Fe1_7 1_555 1_555
H2_3 C2_3 1_555 1_555
O4_3 C2_3 1_555 1_555
Fe4_6 O4_3 1_555 1_555
O8_5 Fe1_9 1_555 1_555
O5_3 Fe1_10 1_555 1_555
C3_4 O5_3 1_555 1_555
H3_4 C3_4 1_555 1_555
O6_3 C3_4 1_555 1_555
Fe4_6 O6_3 1_555 1_555
O7_6 Fe4_6 1_555 1_555
O8_6 Fe4_6 1_555 1_555
O9_6 Fe4_6 1_555 1_555
H3_5 C3_5 1_555 1_555
O7_6 C3_5 1_555 1_555
O7_3 C1_5 1_555 1_555
C1_5 H1_5 1_555 1_555
C2_4 O8_3 1_555 1_555
H2_4 C2_4 1_555 1_555
O8_6 C2_4 1_555 1_555
C3_6 O9_3 1_555 1_555
H3_6 C3_6 1_555 1_555
C1_6 H1_6 1_555 1_555
O9_6 C1_6 1_555 1_555
O7 C1_7 1_555 1_555
C1_7 H1_7 1_555 1_555
O9_4 C1_7 1_555 1_555
C2_5 O8 1_555 1_555
H2_5 C2_5 1_555 1_555
C3_7 O9 1_555 1_555
H3_7 C3_7 1_555 1_555
C3_8 O9_5 1_555 1_555
H3_8 C3_8 1_555 1_555
O7_2 C3_8 1_555 1_555
H2_6 C2_6 1_555 1_555
O8_2 C2_6 1_555 1_555
C1_8 H1_8 1_555 1_555
O9_2 C1_8 1_555 1_555

#END
