
###############################################################################
#
# This file contains modified crystal structure data generated from the
# MOF subset of the Cambridge Structural Database (CSD) v543 
# hosted by the Cambridge Crystallographic Data Centre (CCDC).
#
# This work is licensed under the Creative Commons
# Attribution-NonCommercial-ShareAlike 4.0 International License.
# To view a copy of this license, visit
# http://creativecommons.org/licenses/by-nc-sa/4.0/
# or send a letter to
# Creative Commons, PO Box 1866, Mountain View, CA 94042, USA.
#
# CIF created using the CSD Python API on 29 September 2022
# The structure has been converted into the P1 space group
# The structure has a 3D framework
# The original CSD entry NUDPAE08 is in the rhombohedral crystal system
# The framework has been calculated to contain at least 10.0% void space
# The void calculation uses a probe of radius 1.32A, grid spacing 0.4
# The framework is charged, counterions have been retained in the structure
#
###############################################################################

data_NUDPAE08
_chemical_formula_moiety         '(C22 H22 Fe7 O30 7-)n'
_symmetry_cell_setting           triclinic
_symmetry_space_group_name_H-M   'P 1'
_symmetry_Int_Tables_number      1
_space_group_name_Hall           'P 1'
loop_
_symmetry_equiv_pos_site_id
_symmetry_equiv_pos_as_xyz
1 x,y,z
_cell_length_a                   7.9888(10)
_cell_length_b                   7.9888(10)
_cell_length_c                   20.926(2)
_cell_angle_alpha                90
_cell_angle_beta                 90
_cell_angle_gamma                120
_cell_volume                     1156.59
loop_
_atom_site_label
_atom_site_type_symbol
_atom_site_fract_x
_atom_site_fract_y
_atom_site_fract_z
C1 C -0.000000 0.4423(10) 0.250000
H1 H 0.000001 0.558716 0.250002
O2 O 0.1342(5) 0.4382(7) 0.22246(17)
Fe4 Fe 0.333333 0.666667 0.166667
Fe1 Fe 0.666667 0.333333 0.333333
O1 O 0.8658(5) 0.3040(5) 0.27754(17)
C1_2 C 1.000000 0.4423(10) 0.250000
H1_2 H 1.000001 0.558716 0.250002
O3 O 0.6960(5) 0.5618(7) 0.27754(17)
C2 C 0.5577(10) 0.5577(10) 0.250000
H2 H 0.441284 0.441285 0.250002
O4 O 0.5618(7) 0.6960(5) 0.22246(17)
O5 O 0.4382(7) 0.1342(5) 0.27754(17)
C3 C 0.4423(10) -0.000000 0.250000
H3 H 0.558715 -0.000001 0.250002
O7 O 0.4675(5) 0.3627(5) 0.38913(17)
O8 O 0.6373(5) 0.1049(7) 0.38913(17)
O9 O 0.8951(7) 0.5325(5) 0.38913(17)
C3_2 C 0.4423(10) 1.000000 0.250000
H3_2 H 0.558715 0.999999 0.250002
O6 O 0.3040(5) 0.8658(5) 0.22246(17)
O7_2 O 0.3627(5) 0.4675(5) 0.11087(17)
O8_2 O 0.1049(7) 0.6373(5) 0.11087(17)
O9_2 O 0.5325(5) 0.8951(7) 0.11087(17)
Fe4_2 Fe -0.000000 0.000000 0.500000
Fe4_3 Fe -0.000000 1.000000 0.500000
O4_2 O 0.2285(7) 0.0293(5) 0.55579(17)
Fe4_4 Fe 1.000000 0.000000 0.500000
Fe1_2 Fe 0.333334 0.666666 0.666666
O1_2 O 0.5325(5) 0.6373(5) 0.61087(17)
C1_3 C 0.666667 0.7756(10) 0.583333
H1_3 H 0.666668 0.892049 0.583335
O2_2 O 0.8009(5) 0.7715(7) 0.55579(17)
O3_2 O 0.3627(5) 0.8951(7) 0.61087(17)
C2_2 C 0.2244(10) 0.8910(10) 0.583333
H2_2 H 0.107951 0.774618 0.583335
O5_2 O 0.1049(7) 0.4675(5) 0.61087(17)
C3_3 C 0.1090(10) 0.333333 0.583333
H3_3 H 0.225382 0.333332 0.583335
Fe4_5 Fe 1.000000 1.000000 0.500000
O7_3 O 0.1342(5) 0.6960(5) 0.72246(17)
O8_3 O 0.3040(5) 0.4382(7) 0.72246(17)
O9_3 O 0.5618(7) 0.8658(5) 0.72246(17)
O6_2 O 0.9707(5) 0.1991(5) 0.55579(17)
O9_4 O 0.1991(5) 0.2285(7) 0.44421(17)
O7_4 O 0.0293(5) 0.8009(5) 0.44421(17)
O8_4 O 0.7715(7) 0.9707(5) 0.44421(17)
Fe1_3 Fe 0.000000 -0.000000 -0.000000
O9_5 O 0.2285(7) 0.1991(5) 0.05579(17)
Fe1_4 Fe 0.000000 -0.000000 1.000000
C1_4 C 0.333333 0.1090(10) 0.916667
H1_4 H 0.333334 0.225383 0.916669
O2_3 O 0.4675(5) 0.1049(7) 0.88913(17)
O3_3 O 0.0293(5) 0.2285(7) 0.94421(17)
Fe4_6 Fe 0.666666 0.333334 0.833334
Fe1_5 Fe 0.000000 1.000000 -0.000000
Fe1_6 Fe 0.000000 1.000000 1.000000
O1_3 O 0.1991(5) 0.9707(5) 0.94421(17)
Fe1_7 Fe 1.000000 -0.000000 -0.000000
O7_5 O 0.8009(5) 0.0293(5) 0.05579(17)
Fe1_8 Fe 1.000000 -0.000000 1.000000
C2_3 C 0.8910(10) 0.2244(10) 0.916667
H2_3 H 0.774617 0.107952 0.916669
O4_3 O 0.8951(7) 0.3627(5) 0.88913(17)
Fe1_9 Fe 1.000000 1.000000 -0.000000
O8_5 O 0.9707(5) 0.7715(7) 0.05579(17)
Fe1_10 Fe 1.000000 1.000000 1.000000
O5_3 O 0.7715(7) 0.8009(5) 0.94421(17)
C3_4 C 0.7756(10) 0.666667 0.916667
H3_4 H 0.892048 0.666666 0.916669
O6_3 O 0.6373(5) 0.5325(5) 0.88913(17)
O7_6 O 0.6960(5) 0.1342(5) 0.77754(17)
O8_6 O 0.4382(7) 0.3040(5) 0.77754(17)
O9_6 O 0.8658(5) 0.5618(7) 0.77754(17)
C3_5 C 0.5577(10) -0.000000 0.750000
H3_5 H 0.441285 0.000001 0.749998
C1_5 C 0.000000 0.5577(10) 0.750000
H1_5 H -0.000001 0.441284 0.749998
C2_4 C 0.4423(10) 0.4423(10) 0.750000
H2_4 H 0.558716 0.558715 0.749998
C3_6 C 0.5577(10) 1.000000 0.750000
H3_6 H 0.441285 1.000001 0.749998
C1_6 C 1.000000 0.5577(10) 0.750000
H1_6 H 0.999999 0.441284 0.749998
C1_7 C 0.333333 0.2244(10) 0.416667
H1_7 H 0.333332 0.107951 0.416665
C2_5 C 0.7756(10) 0.1090(10) 0.416667
H2_5 H 0.892049 0.225382 0.416665
C3_7 C 0.8910(10) 0.666667 0.416667
H3_7 H 0.774618 0.666668 0.416665
C3_8 C 0.2244(10) 0.333333 0.083333
H3_8 H 0.107952 0.333334 0.083331
C2_6 C 0.1090(10) 0.7756(10) 0.083333
H2_6 H 0.225383 0.892048 0.083331
C1_8 C 0.666667 0.8910(10) 0.083333
H1_8 H 0.666666 0.774617 0.083331
loop_
_geom_bond_atom_site_label_1
_geom_bond_atom_site_label_2
_geom_bond_site_symmetry_1
_geom_bond_site_symmetry_2
C1 H1 1_555 1_555
O2 C1 1_555 1_555
Fe4 O2 1_555 1_555
Fe1 O1 1_555 1_555
O1 C1_2 1_555 1_555
C1_2 H1_2 1_555 1_555
O3 Fe1 1_555 1_555
C2 O3 1_555 1_555
H2 C2 1_555 1_555
O4 C2 1_555 1_555
O5 Fe1 1_555 1_555
C3 O5 1_555 1_555
H3 C3 1_555 1_555
Fe4 O4 1_555 1_555
O7 Fe1 1_555 1_555
O8 Fe1 1_555 1_555
O9 Fe1 1_555 1_555
H3_2 C3_2 1_555 1_555
O6 C3_2 1_555 1_555
Fe4 O6 1_555 1_555
O7_2 Fe4 1_555 1_555
O8_2 Fe4 1_555 1_555
O9_2 Fe4 1_555 1_555
Fe4_2 O4_2 1_555 1_555
Fe1_2 O1_2 1_555 1_555
O1_2 C1_3 1_555 1_555
C1_3 H1_3 1_555 1_555
O2_2 C1_3 1_555 1_555
O3_2 Fe1_2 1_555 1_555
C2_2 O3_2 1_555 1_555
H2_2 C2_2 1_555 1_555
O5_2 Fe1_2 1_555 1_555
C3_3 O5_2 1_555 1_555
H3_3 C3_3 1_555 1_555
Fe4_5 O2_2 1_555 1_555
O7_3 Fe1_2 1_555 1_555
O8_3 Fe1_2 1_555 1_555
O9_3 Fe1_2 1_555 1_555
Fe4_4 O6_2 1_555 1_555
O9_4 Fe4_2 1_555 1_555
O7_4 Fe4_3 1_555 1_555
O8_4 Fe4_5 1_555 1_555
O9_5 Fe1_3 1_555 1_555
C1_4 H1_4 1_555 1_555
O2_3 C1_4 1_555 1_555
O3_3 Fe1_4 1_555 1_555
Fe4_6 O2_3 1_555 1_555
Fe1_6 O1_3 1_555 1_555
O7_5 Fe1_7 1_555 1_555
H2_3 C2_3 1_555 1_555
O4_3 C2_3 1_555 1_555
Fe4_6 O4_3 1_555 1_555
O8_5 Fe1_9 1_555 1_555
O5_3 Fe1_10 1_555 1_555
C3_4 O5_3 1_555 1_555
H3_4 C3_4 1_555 1_555
O6_3 C3_4 1_555 1_555
Fe4_6 O6_3 1_555 1_555
O7_6 Fe4_6 1_555 1_555
O8_6 Fe4_6 1_555 1_555
O9_6 Fe4_6 1_555 1_555
H3_5 C3_5 1_555 1_555
O7_6 C3_5 1_555 1_555
O7_3 C1_5 1_555 1_555
C1_5 H1_5 1_555 1_555
C2_4 O8_3 1_555 1_555
H2_4 C2_4 1_555 1_555
O8_6 C2_4 1_555 1_555
C3_6 O9_3 1_555 1_555
H3_6 C3_6 1_555 1_555
C1_6 H1_6 1_555 1_555
O9_6 C1_6 1_555 1_555
O7 C1_7 1_555 1_555
C1_7 H1_7 1_555 1_555
O9_4 C1_7 1_555 1_555
C2_5 O8 1_555 1_555
H2_5 C2_5 1_555 1_555
C3_7 O9 1_555 1_555
H3_7 C3_7 1_555 1_555
C3_8 O9_5 1_555 1_555
H3_8 C3_8 1_555 1_555
O7_2 C3_8 1_555 1_555
H2_6 C2_6 1_555 1_555
O8_2 C2_6 1_555 1_555
C1_8 H1_8 1_555 1_555
O9_2 C1_8 1_555 1_555

#END
