
###############################################################################
#
# This file contains modified crystal structure data generated from the
# MOF subset of the Cambridge Structural Database (CSD) v543 
# hosted by the Cambridge Crystallographic Data Centre (CCDC).
#
# This work is licensed under the Creative Commons
# Attribution-NonCommercial-ShareAlike 4.0 International License.
# To view a copy of this license, visit
# http://creativecommons.org/licenses/by-nc-sa/4.0/
# or send a letter to
# Creative Commons, PO Box 1866, Mountain View, CA 94042, USA.
#
# CIF created using the CSD Python API on 29 September 2022
# The structure has been converted into the P1 space group
# The structure has a 3D framework
# The original CSD entry NUDPAE02 is in the rhombohedral crystal system
# The framework has been calculated to contain at least 10.0% void space
# The void calculation uses a probe of radius 1.32A, grid spacing 0.4
# The framework is charged, counterions have been retained in the structure
#
###############################################################################

data_NUDPAE02
_chemical_formula_moiety         '(C22 H30 Fe10 O31 3-)n'
_symmetry_cell_setting           triclinic
_symmetry_space_group_name_H-M   'P 1'
_symmetry_Int_Tables_number      1
_space_group_name_Hall           'P 1'
loop_
_symmetry_equiv_pos_site_id
_symmetry_equiv_pos_as_xyz
1 x,y,z
_cell_length_a                   8.2410(20)
_cell_length_b                   8.2410
_cell_length_c                   22.5450(60)
_cell_angle_alpha                90
_cell_angle_beta                 90
_cell_angle_gamma                120
_cell_volume                     1325.99
loop_
_atom_site_label
_atom_site_type_symbol
_atom_site_fract_x
_atom_site_fract_y
_atom_site_fract_z
Fe1 Fe -0.0000 0.0000 0.0000
O7 O 0.2170 0.2086 0.0543
Fe1_2 Fe -0.0000 0.0000 1.0000
O3 O 0.0084 0.2170 0.9457
C1 C 0.1217 0.7884 0.0833
H1 H 0.2310 0.8980 0.0833
Fe1_3 Fe -0.0000 1.0000 0.0000
O2 O 0.1163 0.6583 0.1124
Fe4 Fe 0.3333 0.6667 0.1667
Fe1_4 Fe -0.0000 1.0000 1.0000
O8 O 0.2086 0.9916 0.9457
Fe1_5 Fe 1.0000 0.0000 0.0000
O9 O 0.7914 0.0084 0.0543
Fe1_6 Fe 1.0000 0.0000 1.0000
C2 C 0.8783 0.2116 0.9167
H2 H 0.7690 0.1020 0.9167
O4 O 0.8837 0.3417 0.8876
Fe3 Fe 0.6667 0.3333 0.8333
O1 O 0.9916 0.7830 0.0543
Fe1_7 Fe 1.0000 1.0000 0.0000
Fe1_8 Fe 1.0000 1.0000 1.0000
C3 C 0.7884 0.6666 0.9166
H3 H 0.8977 0.6663 0.9166
O5 O 0.7830 0.7914 0.9457
O6 O 0.6583 0.5419 0.8876
Fe4_2 Fe -0.0000 0.0000 0.5000
Fe4_3 Fe -0.0000 1.0000 0.5000
C1_2 C 0.7884 0.1217 0.4166
H1_2 H 0.8977 0.2313 0.4166
O1_2 O 0.6583 0.1163 0.3876
Fe1_9 Fe 0.6667 0.3333 0.3333
C2_2 C 0.5450 0.5449 0.2500
H2_2 H 0.4357 0.4353 0.2500
O3_2 O 0.6751 0.5503 0.2790
O4_2 O 0.5503 0.6751 0.2210
C3_2 C 0.4550 -0.0000 0.2500
O5_2 O 0.4497 0.1247 0.2790
O7_2 O 0.8837 0.5419 0.3876
O8_2 O 0.8753 0.3249 0.2790
O9_2 O 0.4581 0.3417 0.3876
Fe4_4 Fe 1.0000 0.0000 0.5000
O2_2 O 0.7830 0.9916 0.4457
C3_3 C 0.4550 1.0000 0.2500
H3_2 H 0.5643 0.9997 0.2500
O6_2 O 0.3249 0.8753 0.2210
Fe4_5 Fe 1.0000 1.0000 0.5000
O4_3 O 0.2170 0.0084 0.5543
C1_3 C 0.4550 0.4551 0.7500
H1_3 H 0.5643 0.5647 0.7500
O1_3 O 0.3249 0.4497 0.7210
Fe1_10 Fe 0.3333 0.6667 0.6667
O2_3 O 0.4497 0.3249 0.7790
C2_3 C 0.2116 0.8783 0.5834
H2_3 H 0.1023 0.7687 0.5834
O3_3 O 0.3417 0.8837 0.6124
C3_4 C 0.1217 0.3333 0.5833
H3_3 H 0.2310 0.3330 0.5833
O5_3 O 0.1163 0.4581 0.6124
O7_3 O 0.5503 0.8753 0.7210
O8_3 O 0.5419 0.6583 0.6124
O9_3 O 0.1247 0.6751 0.7210
O6_3 O 0.9916 0.2086 0.5543
O9_4 O 0.2086 0.2170 0.4457
O1_4 O 0.0084 0.7914 0.4457
C1_4 C 0.8783 0.6667 0.4167
H1_4 H 0.7690 0.6670 0.4167
O8_4 O 0.7914 0.7830 0.5543
C1_5 C 0.5450 0.0000 0.7500
H1_5 H 0.4357 0.0003 0.7500
O1_5 O 0.6751 0.1247 0.7790
O8_5 O 0.4581 0.1163 0.8876
O9_5 O 0.8753 0.5503 0.7790
C1_6 C 0.5450 1.0000 0.7500
C1_7 C 0.2116 0.3334 0.0834
H1_6 H 0.1023 0.3337 0.0834
O1_6 O 0.3417 0.4581 0.1124
O8_6 O 0.1247 0.4497 0.2210
O9_6 O 0.5419 0.8837 0.1124
C3_5 C 0.6666 0.7884 0.5834
H3_4 H 0.6663 0.8977 0.5834
C3_6 C 0.3333 0.1217 0.9167
H3_5 H 0.3330 0.2310 0.9167
C3_7 C -0.0000 0.4550 0.2500
C3_8 C 1.0000 0.4550 0.2500
H3_6 H 0.9997 0.5643 0.2500
H1_7 H 0.1020 0.3330 0.0833
H3_7 H 0.3337 0.2313 0.9166
H2_4 H 0.8980 0.6670 0.9167
H3_8 H 0.0003 0.5647 0.2500
H1_8 H 0.7687 0.6663 0.4166
H2_5 H 0.5647 0.0003 0.2500
H1_9 H 0.4353 0.9997 0.7500
H2_6 H 0.2313 0.3337 0.5834
H3_9 H 0.6670 0.8980 0.5833
C1_8 C 0.3333 0.2116 0.4167
H1_10 H 0.3330 0.1020 0.4167
C1_9 C -0.0000 0.5449 0.7500
C1_10 C 1.0000 0.5449 0.7500
H1_11 H 0.9997 0.4353 0.7500
C1_11 C 0.6666 0.8783 0.0834
H1_12 H 0.6663 0.7687 0.0834
H1_13 H 0.6670 0.7690 0.0833
H1_14 H 0.3337 0.1023 0.4166
H1_15 H 0.0003 0.4357 0.7500
loop_
_geom_bond_atom_site_label_1
_geom_bond_atom_site_label_2
_geom_bond_site_symmetry_1
_geom_bond_site_symmetry_2
O7 Fe1 1_555 1_555
O3 Fe1_2 1_555 1_555
C1 H1 1_555 1_555
O2 C1 1_555 1_555
Fe4 O2 1_555 1_555
O8 Fe1_4 1_555 1_555
O9 Fe1_5 1_555 1_555
C2 H2 1_555 1_555
O4 C2 1_555 1_555
Fe3 O4 1_555 1_555
Fe1_7 O1 1_555 1_555
C3 H3 1_555 1_555
O5 Fe1_8 1_555 1_555
O6 C3 1_555 1_555
Fe3 O6 1_555 1_555
C3 O5 1_555 1_555
C1_2 H1_2 1_555 1_555
O1_2 C1_2 1_555 1_555
Fe1_9 O1_2 1_555 1_555
C2_2 H2_2 1_555 1_555
O3_2 Fe1_9 1_555 1_555
O4_2 C2_2 1_555 1_555
O5_2 Fe1_9 1_555 1_555
O7_2 Fe1_9 1_555 1_555
O8_2 Fe1_9 1_555 1_555
O9_2 Fe1_9 1_555 1_555
Fe4 O4_2 1_555 1_555
C2_2 O3_2 1_555 1_555
C3_2 O5_2 1_555 1_555
C3_3 H3_2 1_555 1_555
O6_2 C3_3 1_555 1_555
Fe4 O6_2 1_555 1_555
Fe4_5 O2_2 1_555 1_555
Fe4_2 O4_3 1_555 1_555
C1_3 H1_3 1_555 1_555
O1_3 C1_3 1_555 1_555
Fe1_10 O1_3 1_555 1_555
O2_3 C1_3 1_555 1_555
C2_3 H2_3 1_555 1_555
O3_3 Fe1_10 1_555 1_555
C3_4 H3_3 1_555 1_555
O5_3 Fe1_10 1_555 1_555
O7_3 Fe1_10 1_555 1_555
O8_3 Fe1_10 1_555 1_555
O9_3 Fe1_10 1_555 1_555
Fe3 O2_3 1_555 1_555
C2_3 O3_3 1_555 1_555
C3_4 O5_3 1_555 1_555
Fe4_4 O6_3 1_555 1_555
O9_4 Fe4_2 1_555 1_555
Fe4_3 O1_4 1_555 1_555
C1_4 H1_4 1_555 1_555
O7_2 C1_4 1_555 1_555
O8_4 Fe4_5 1_555 1_555
C1_5 H1_5 1_555 1_555
O1_5 C1_5 1_555 1_555
Fe3 O1_5 1_555 1_555
O8_5 Fe3 1_555 1_555
O9_5 Fe3 1_555 1_555
O7_3 C1_6 1_555 1_555
C1_7 H1_6 1_555 1_555
O1_6 C1_7 1_555 1_555
Fe4 O1_6 1_555 1_555
O7 C1_7 1_555 1_555
O8_6 Fe4 1_555 1_555
O9_6 Fe4 1_555 1_555
C3_5 H3_4 1_555 1_555
O8_3 C3_5 1_555 1_555
C3_5 O8_4 1_555 1_555
C3_6 H3_5 1_555 1_555
C3_6 O8_5 1_555 1_555
C3_7 O8_6 1_555 1_555
C3_8 H3_6 1_555 1_555
O8_2 C3_8 1_555 1_555
C1_7 H1_7 1_555 1_555
C3_6 H3_7 1_555 1_555
C3 H2_4 1_555 1_555
C3_7 H3_8 1_555 1_555
C1_4 H1_8 1_555 1_555
C3_2 H2_5 1_555 1_555
C1_6 H1_9 1_555 1_555
C3_4 H2_6 1_555 1_555
C3_5 H3_9 1_555 1_555
C1_8 H1_10 1_555 1_555
O9_4 C1_8 1_555 1_555
O9_2 C1_8 1_555 1_555
O9_3 C1_9 1_555 1_555
C1_10 H1_11 1_555 1_555
O9_5 C1_10 1_555 1_555
C1_11 H1_12 1_555 1_555
O9_6 C1_11 1_555 1_555
C1_11 H1_13 1_555 1_555
C1_8 H1_14 1_555 1_555
C1_9 H1_15 1_555 1_555

#END
