
###############################################################################
#
# This file contains modified crystal structure data generated from the
# MOF subset of the Cambridge Structural Database (CSD) v543 
# hosted by the Cambridge Crystallographic Data Centre (CCDC).
#
# This work is licensed under the Creative Commons
# Attribution-NonCommercial-ShareAlike 4.0 International License.
# To view a copy of this license, visit
# http://creativecommons.org/licenses/by-nc-sa/4.0/
# or send a letter to
# Creative Commons, PO Box 1866, Mountain View, CA 94042, USA.
#
# CIF created using the CSD Python API on 29 September 2022
# The structure has been converted into the P1 space group
# The structure has a 3D framework
# The original CSD entry NUHNAI is in the triclinic crystal system
# The framework has been calculated to contain at least 10.0% void space
# The void calculation uses a probe of radius 1.32A, grid spacing 0.4
#
###############################################################################

data_NUHNAI
_chemical_formula_moiety         '(C80 H52 N14 O18 Zn4)n'
_symmetry_cell_setting           triclinic
_symmetry_space_group_name_H-M   'P 1'
_symmetry_Int_Tables_number      1
_space_group_name_Hall           'P 1'
loop_
_symmetry_equiv_pos_site_id
_symmetry_equiv_pos_as_xyz
1 x,y,z
_cell_length_a                   9.134(2)
_cell_length_b                   13.201(3)
_cell_length_c                   19.206(4)
_cell_angle_alpha                90.485(4)
_cell_angle_beta                 98.302(4)
_cell_angle_gamma                100.789(4)
_cell_volume                     2249.54
loop_
_atom_site_label
_atom_site_type_symbol
_atom_site_fract_x
_atom_site_fract_y
_atom_site_fract_z
_atom_site_U_iso_or_equiv
_atom_site_thermal_displace_type
H13 H 0.0480 0.6913 0.1120 0.0470 Uiso
C38 C 0.1147(9) 0.0120(6) 0.8091(4) 0.0524 Uani
H25 H 0.2102 0.0404 0.8324 0.0630 Uiso
C39 C 0.0459(9) 0.0668(6) 0.7546(4) 0.0492 Uani
H26 H 0.0978 0.1299 0.7420 0.0590 Uiso
N3 N 0.0329(7) 0.8077(4) 0.0497(3) 0.0409 Uani
Zn6 Zn 0.23897(9) 0.83483(5) 0.01551(4) 0.0325 Uani
C2 C 0.3890(9) 0.8728(5) 0.1640(3) 0.0470 Uani
H2 H 0.3585 0.8029 0.1711 0.0570 Uiso
C3 C 0.4643(9) 0.9410(5) 0.2129(4) 0.0483 Uani
H3 H 0.4957 0.9286 0.2597 0.0580 Uiso
C25 C 0.3778(11) 0.6828(7) 0.0158(4) 0.0613 Uani
C26 C 0.4407(8) 0.5882(6) 0.0088(4) 0.0466 Uani
C28 C 0.3872(9) 0.4976(6) 0.0414(4) 0.0489 Uani
H20 H 0.3120 0.4964 0.0694 0.0590 Uiso
C32 C 0.0457(10) 0.9723(6) 0.5674(4) 0.0565 Uani
H22 H 0.0756 0.9527 0.6129 0.0680 Uiso
C35 C 0.8317(9) 0.9330(6) 0.7400(4) 0.0573 Uani
H23 H 0.7352 0.9049 0.7177 0.0690 Uiso
C36 C 0.9037(10) 0.8802(7) 0.7931(4) 0.0652 Uani
H24 H 0.8551 0.8160 0.8055 0.0780 Uiso
N1 N 0.3622(6) 0.9193(4) 0.1014(3) 0.0364 Uani
O2 O 0.2643(8) 0.6792(4) 0.0438(4) 0.0772 Uani
C43 C 0.4450(9) 0.4091(6) 0.0325(4) 0.0472 Uani
H27 H 0.4079 0.3486 0.0538 0.0570 Uiso
O10 O 0.5648(8) 0.2330(5) 0.0082(3) 0.0694 Uani
O22 O 0.7861(6) 0.0772(4) 0.0665(2) 0.0437 Uani
C77 C 0.9548(9) 0.0786(6) 0.1728(4) 0.0450 Uani
C80 C 0.8850(9) 0.1320(6) 0.1119(3) 0.0426 Uani
O16 O 0.9294(7) 0.2271(4) 0.1048(3) 0.0641 Uani
C37 C 0.0452(9) 0.9214(6) 0.8272(4) 0.0450 Uani
C40 C 0.1150(9) 0.8680(6) 0.8881(3) 0.0426 Uani
O7 O 0.0706(7) 0.7729(4) 0.8952(3) 0.0641 Uani
O8 O 0.2139(6) 0.9228(4) 0.9335(2) 0.0437 Uani
C27 C 0.5550(9) 0.5909(6) 0.9675(4) 0.0472 Uani
H19 H 0.5921 0.6514 0.9462 0.0570 Uiso
O1 O 0.4352(8) 0.7670(5) 0.9918(3) 0.0694 Uani
C41 C 0.6222(11) 0.3172(7) 0.9842(4) 0.0613 Uani
C42 C 0.5593(8) 0.4118(6) 0.9912(4) 0.0466 Uani
C44 C 0.6128(9) 0.5024(6) 0.9586(4) 0.0489 Uani
H28 H 0.6880 0.5036 0.9306 0.0590 Uiso
O11 O 0.7357(8) 0.3208(4) 0.9562(4) 0.0772 Uani
Zn9 Zn 0.76103(9) 0.16517(5) 0.98449(4) 0.0325 Uani
C48 C 0.9543(10) 0.0277(6) 0.4326(4) 0.0565 Uani
H30 H 0.9244 0.0473 0.3871 0.0680 Uiso
C50 C 0.6110(9) 0.1272(5) 0.8360(3) 0.0470 Uani
H32 H 0.6415 0.1971 0.8289 0.0570 Uiso
C51 C 0.5357(9) 0.0590(5) 0.7871(4) 0.0483 Uani
H33 H 0.5043 0.0714 0.7403 0.0580 Uiso
C75 C 0.1683(9) 0.0670(6) 0.2600(4) 0.0573 Uani
H49 H 0.2648 0.0951 0.2823 0.0690 Uiso
C76 C 0.0963(10) 0.1198(7) 0.2069(4) 0.0652 Uani
H50 H 0.1449 0.1840 0.1945 0.0780 Uiso
N9 N 0.6378(6) 0.0807(4) 0.8986(3) 0.0364 Uani
N18 N 0.9671(7) 0.1923(4) 0.9503(3) 0.0409 Uani
H43 H 0.9520 0.3087 0.8880 0.0470 Uiso
C78 C 0.8853(9) 0.9880(6) 0.1909(4) 0.0524 Uani
H51 H 0.7898 0.9596 0.1676 0.0630 Uiso
C79 C 0.9541(9) 0.9332(6) 0.2454(4) 0.0492 Uani
H52 H 0.9022 0.8701 0.2580 0.0590 Uiso
C1 C 0.4241(8) 0.0161(5) 0.1130(3) 0.0411 Uani
H1 H 0.4244 0.0657 0.0789 0.0490 Uiso
C4 C 0.5629(8) 0.1325(5) 0.2140(3) 0.0327 Uani
C5 C 0.5987(8) 0.1369(5) 0.2863(3) 0.0381 Uani
H4 H 0.5723 0.0796 0.3128 0.0460 Uiso
C6 C 0.6775(8) 0.2323(5) 0.3185(3) 0.0404 Uani
C7 C 0.7153(9) 0.3176(5) 0.2793(3) 0.0418 Uani
H5 H 0.7665 0.3805 0.3003 0.0500 Uiso
C8 C 0.6737(8) 0.3052(5) 0.2082(3) 0.0364 Uani
C9 C 0.6019(8) 0.2172(5) 0.1741(3) 0.0373 Uani
H6 H 0.5790 0.2131 0.1252 0.0450 Uiso
C10 C 0.8377(11) 0.2936(7) 0.4323(4) 0.0691 Uani
H7 H 0.9160 0.3368 0.4151 0.0830 Uiso
C11 C 0.8254(11) 0.2765(7) 0.4989(4) 0.0738 Uani
H8 H 0.8959 0.3056 0.5370 0.0890 Uiso
C12 C 0.6299(8) 0.1870(5) 0.4395(3) 0.0390 Uani
H9 H 0.5377 0.1426 0.4270 0.0470 Uiso
C13 C 0.6989(8) 0.4846(5) 0.1744(3) 0.0392 Uani
C14 C 0.5987(8) 0.5114(5) 0.2144(3) 0.0379 Uani
H10 H 0.5423 0.4618 0.2389 0.0460 Uiso
C15 C 0.5825(8) 0.6124(5) 0.2179(3) 0.0350 Uani
C16 C 0.6628(8) 0.6882(5) 0.1804(4) 0.0409 Uani
H11 H 0.6499 0.7563 0.1823 0.0490 Uiso
C17 C 0.7620(7) 0.6578(4) 0.1405(3) 0.0312 Uani
C18 C 0.7797(7) 0.5564(5) 0.1373(3) 0.0344 Uani
H12 H 0.8466 0.5372 0.1098 0.0410 Uiso
C19 C 0.9874(8) 0.7352(5) 0.0910(4) 0.0387 Uani
C20 C 0.7928(9) 0.8075(5) 0.0585(4) 0.0468 Uani
H14 H 0.6964 0.8224 0.0532 0.0560 Uiso
C21 C 0.9118(9) 0.8569(5) 0.0265(4) 0.0508 Uani
C22 C 0.5159(8) 0.7218(5) 0.3089(3) 0.0383 Uani
H16 H 0.6098 0.7651 0.3183 0.0460 Uiso
C23 C 0.2867(11) 0.6520(7) 0.3114(5) 0.0807 Uani
H17 H 0.1900 0.6389 0.3233 0.0970 Uiso
C24 C 0.3370(10) 0.5969(7) 0.2636(5) 0.0715 Uani
H18 H 0.2825 0.5390 0.2373 0.0860 Uiso
C29 C 0.3056(10) 0.0691(6) 0.5699(4) 0.0521 Uani
C30 C 0.1468(8) 0.0339(5) 0.5326(4) 0.0424 Uani
C31 C 0.1017(10) 0.0609(6) 0.4651(4) 0.0591 Uani
H21 H 0.1706 0.1018 0.4409 0.0710 Uiso
C33 C 0.8268(9) 0.0949(7) 0.6662(3) 0.0490 Uani
C34 C 0.9064(8) 0.0290(5) 0.7208(3) 0.0408 Uani
N2 N 0.4873(6) 0.0351(4) 0.1804(3) 0.0331 Uani
N4 N 0.8440(6) 0.7303(4) 0.1004(3) 0.0372 Uani
N5 N 0.6946(7) 0.2100(4) 0.5037(3) 0.0388 Uani
N6 N 0.7136(7) 0.2356(4) 0.3938(3) 0.0428 Uani
N7 N 0.4016(7) 0.7308(5) 0.3396(3) 0.0436 Uani
N8 N 0.4821(7) 0.6419(4) 0.2614(3) 0.0399 Uani
O3 O 0.3993(7) 0.1065(5) 0.5352(3) 0.0688 Uani
O4 O 0.3357(7) 0.0612(5) 0.6345(3) 0.0662 Uani
O5 O 0.6896(6) 0.0475(4) 0.6422(2) 0.0519 Uani
O6 O 0.8908(7) 0.1780(4) 0.6514(3) 0.0603 Uani
O9 O 0.7230(6) 0.3857(3) 0.1645(2) 0.0500 Uani
Zn2 Zn 0.60284(9) 0.15585(6) 0.58863(4) 0.0377 Uani
N20 N 0.5984(7) 0.2692(5) 0.6604(3) 0.0436 Uani
Zn11 Zn 0.39716(9) 0.84415(6) 0.41137(4) 0.0377 Uani
C45 C 0.6944(10) 0.9309(6) 0.4301(4) 0.0521 Uani
C46 C 0.8532(8) 0.9661(5) 0.4674(4) 0.0424 Uani
C47 C 0.8983(10) 0.9391(6) 0.5349(4) 0.0591 Uani
H29 H 0.8294 0.8982 0.5591 0.0710 Uiso
O12 O 0.6007(7) 0.8935(5) 0.4648(3) 0.0688 Uani
O13 O 0.6643(7) 0.9388(5) 0.3655(3) 0.0662 Uani
C49 C 0.5759(8) 0.9839(5) 0.8870(3) 0.0411 Uani
H31 H 0.5756 0.9343 0.9211 0.0490 Uiso
C52 C 0.4371(8) 0.8675(5) 0.7860(3) 0.0327 Uani
C53 C 0.4013(8) 0.8631(5) 0.7137(3) 0.0381 Uani
H34 H 0.4277 0.9204 0.6872 0.0460 Uiso
C54 C 0.3225(8) 0.7677(5) 0.6815(3) 0.0404 Uani
C55 C 0.2847(9) 0.6824(5) 0.7207(3) 0.0418 Uani
H35 H 0.2335 0.6195 0.6997 0.0500 Uiso
C56 C 0.3263(8) 0.6948(5) 0.7918(3) 0.0364 Uani
C57 C 0.3981(8) 0.7828(5) 0.8259(3) 0.0373 Uani
H36 H 0.4210 0.7869 0.8748 0.0450 Uiso
C58 C 0.1623(11) 0.7064(7) 0.5677(4) 0.0691 Uani
H37 H 0.0840 0.6632 0.5849 0.0830 Uiso
C59 C 0.1746(11) 0.7235(7) 0.5011(4) 0.0738 Uani
H38 H 0.1041 0.6944 0.4630 0.0890 Uiso
C60 C 0.3701(8) 0.8130(5) 0.5605(3) 0.0390 Uani
H39 H 0.4623 0.8574 0.5730 0.0470 Uiso
C61 C 0.3011(8) 0.5154(5) 0.8256(3) 0.0392 Uani
C62 C 0.4013(8) 0.4886(5) 0.7856(3) 0.0379 Uani
H40 H 0.4577 0.5382 0.7611 0.0460 Uiso
C63 C 0.4175(8) 0.3876(5) 0.7821(3) 0.0350 Uani
C64 C 0.3372(8) 0.3118(5) 0.8196(4) 0.0409 Uani
H41 H 0.3501 0.2437 0.8177 0.0490 Uiso
C65 C 0.2380(7) 0.3422(4) 0.8595(3) 0.0312 Uani
C66 C 0.2203(7) 0.4436(5) 0.8627(3) 0.0344 Uani
H42 H 0.1534 0.4628 0.8902 0.0410 Uiso
C67 C 0.0126(8) 0.2648(5) 0.9090(4) 0.0387 Uani
C68 C 0.2072(9) 0.1925(5) 0.9415(4) 0.0468 Uani
H44 H 0.3036 0.1776 0.9468 0.0560 Uiso
C69 C 0.0882(9) 0.1431(5) 0.9735(4) 0.0508 Uani
C70 C 0.4841(8) 0.2782(5) 0.6911(3) 0.0383 Uani
H46 H 0.3902 0.2349 0.6817 0.0460 Uiso
C71 C 0.7133(11) 0.3480(7) 0.6886(5) 0.0807 Uani
H47 H 0.8100 0.3611 0.6767 0.0970 Uiso
C72 C 0.6630(10) 0.4031(7) 0.7364(5) 0.0715 Uani
H48 H 0.7175 0.4610 0.7627 0.0860 Uiso
C73 C 0.1732(9) 0.9051(7) 0.3338(3) 0.0490 Uani
C74 C 0.0936(8) 0.9710(5) 0.2792(3) 0.0408 Uani
N10 N 0.5127(6) 0.9649(4) 0.8196(3) 0.0331 Uani
N12 N 0.1560(6) 0.2697(4) 0.8996(3) 0.0372 Uani
N13 N 0.3054(7) 0.7900(4) 0.4963(3) 0.0388 Uani
N14 N 0.2864(7) 0.7644(4) 0.6062(3) 0.0428 Uani
N16 N 0.5179(7) 0.3581(4) 0.7386(3) 0.0399 Uani
O14 O 0.3104(6) 0.9525(4) 0.3578(2) 0.0519 Uani
O15 O 0.1092(7) 0.8220(4) 0.3486(3) 0.0603 Uani
O18 O 0.2770(6) 0.6143(3) 0.8355(2) 0.0500 Uani
H15 H 0.9116 0.9114 0.9961 0.0610 Uiso
H45 H 0.0884 0.0886 0.0039 0.0610 Uiso
loop_
_atom_site_aniso_label
_atom_site_aniso_U_11
_atom_site_aniso_U_22
_atom_site_aniso_U_33
_atom_site_aniso_U_23
_atom_site_aniso_U_13
_atom_site_aniso_U_12
C38 0.041 0.071 0.043 0.004 -0.008 0.016
C39 0.051 0.049 0.046 0.034 0.007 0.004
N3 0.043 0.038 0.044 -0.001 0.01 0.011
Zn6 0.0385 0.0312 0.0293 0 0.0023 0.0125
C2 0.069 0.036 0.032 -0.004 -0.003 0.008
C3 0.071 0.036 0.035 0.003 0.001 0.008
C25 0.063 0.068 0.053 -0.031 -0.024 0.039
C26 0.044 0.053 0.043 -0.023 -0.012 0.025
C28 0.043 0.061 0.046 -0.019 -0.001 0.025
C32 0.062 0.073 0.031 0.001 -0.005 0.013
C35 0.047 0.073 0.046 0.019 -0.003 0.003
C36 0.061 0.058 0.067 0.019 -0.013 0.003
N1 0.045 0.038 0.026 -0.009 0.004 0.009
O2 0.076 0.036 0.131 -0.002 0.019 0.037
C43 0.053 0.046 0.042 -0.007 -0.008 0.02
O10 0.094 0.075 0.056 -0.012 -0.001 0.069
O22 0.057 0.048 0.029 0.02 0.006 0.017
C77 0.051 0.051 0.037 0.001 0.006 0.02
C80 0.051 0.057 0.028 0.015 0.014 0.024
O16 0.083 0.056 0.053 0.013 0.001 0.019
C37 0.051 0.051 0.037 0.001 0.006 0.02
C40 0.051 0.057 0.028 0.015 0.014 0.024
O7 0.083 0.056 0.053 0.013 0.001 0.019
O8 0.057 0.048 0.029 0.02 0.006 0.017
C27 0.053 0.046 0.042 -0.007 -0.008 0.02
O1 0.094 0.075 0.056 -0.012 -0.001 0.069
C41 0.063 0.068 0.053 -0.031 -0.024 0.039
C42 0.044 0.053 0.043 -0.023 -0.012 0.025
C44 0.043 0.061 0.046 -0.019 -0.001 0.025
O11 0.076 0.036 0.131 -0.002 0.019 0.037
Zn9 0.0385 0.0312 0.0293 0 0.0023 0.0125
C48 0.062 0.073 0.031 0.001 -0.005 0.013
C50 0.069 0.036 0.032 -0.004 -0.003 0.008
C51 0.071 0.036 0.035 0.003 0.001 0.008
C75 0.047 0.073 0.046 0.019 -0.003 0.003
C76 0.061 0.058 0.067 0.019 -0.013 0.003
N9 0.045 0.038 0.026 -0.009 0.004 0.009
N18 0.043 0.038 0.044 -0.001 0.01 0.011
C78 0.041 0.071 0.043 0.004 -0.008 0.016
C79 0.051 0.049 0.046 0.034 0.007 0.004
C1 0.06 0.044 0.02 0.004 0.001 0.015
C4 0.041 0.031 0.028 -0.002 0.004 0.013
C5 0.056 0.032 0.026 0.004 0.011 0.004
C6 0.054 0.042 0.026 -0.008 0.004 0.013
C7 0.059 0.031 0.033 -0.005 0.009 0.001
C8 0.056 0.025 0.035 0.009 0.021 0.014
C9 0.054 0.037 0.025 0.001 0.006 0.019
C10 0.064 0.09 0.039 -0.006 0.003 -0.018
C11 0.079 0.093 0.033 -0.018 -0.013 -0.008
C12 0.046 0.043 0.028 0.005 0.006 0.008
C13 0.058 0.022 0.037 -0.01 -0.001 0.013
C14 0.05 0.035 0.028 0.004 0.015 -0.001
C15 0.04 0.035 0.033 -0.005 0.008 0.013
C16 0.039 0.036 0.05 -0.01 0.003 0.016
C17 0.036 0.022 0.036 0.006 0.012 0.001
C18 0.036 0.033 0.035 -0.001 0.006 0.008
C19 0.031 0.034 0.054 0.005 0.006 0.014
C20 0.051 0.036 0.058 0.013 0.011 0.017
C21 0.049 0.037 0.07 0.019 0.016 0.011
C22 0.041 0.035 0.039 -0.005 -0.001 0.013
C23 0.051 0.081 0.106 -0.038 0.029 -0.009
C24 0.06 0.068 0.083 -0.033 0.018 -0.001
C29 0.05 0.05 0.056 -0.017 0.018 0.002
C30 0.042 0.047 0.038 -0.01 -0.001 0.014
C31 0.06 0.059 0.05 0.009 0.013 -0.014
C33 0.042 0.086 0.024 0.003 0.001 0.028
C34 0.044 0.054 0.025 0.021 0.008 0.008
N2 0.048 0.029 0.024 0.007 0.012 0.006
N4 0.042 0.022 0.048 0.004 0.008 0.006
N5 0.049 0.048 0.017 0.005 0.005 0.003
N6 0.055 0.042 0.03 -0.003 0 0.011
N7 0.042 0.06 0.034 -0.005 0.013 0.018
N8 0.043 0.038 0.04 -0.007 0.013 0.006
O3 0.048 0.082 0.069 -0.01 -0.006 0.005
O4 0.066 0.079 0.044 0.006 -0.011 0.004
O5 0.054 0.064 0.042 0.006 -0.002 0.029
O6 0.06 0.061 0.061 0.02 0.003 0.018
O9 0.089 0.031 0.038 0.003 0.027 0.018
Zn2 0.0378 0.0529 0.0244 -0.0031 0 0.0172
N20 0.042 0.06 0.034 -0.005 0.013 0.018
Zn11 0.0378 0.0529 0.0244 -0.0031 0 0.0172
C45 0.05 0.05 0.056 -0.017 0.018 0.002
C46 0.042 0.047 0.038 -0.01 -0.001 0.014
C47 0.06 0.059 0.05 0.009 0.013 -0.014
O12 0.048 0.082 0.069 -0.01 -0.006 0.005
O13 0.066 0.079 0.044 0.006 -0.011 0.004
C49 0.06 0.044 0.02 0.004 0.001 0.015
C52 0.041 0.031 0.028 -0.002 0.004 0.013
C53 0.056 0.032 0.026 0.004 0.011 0.004
C54 0.054 0.042 0.026 -0.008 0.004 0.013
C55 0.059 0.031 0.033 -0.005 0.009 0.001
C56 0.056 0.025 0.035 0.009 0.021 0.014
C57 0.054 0.037 0.025 0.001 0.006 0.019
C58 0.064 0.09 0.039 -0.006 0.003 -0.018
C59 0.079 0.093 0.033 -0.018 -0.013 -0.008
C60 0.046 0.043 0.028 0.005 0.006 0.008
C61 0.058 0.022 0.037 -0.01 -0.001 0.013
C62 0.05 0.035 0.028 0.004 0.015 -0.001
C63 0.04 0.035 0.033 -0.005 0.008 0.013
C64 0.039 0.036 0.05 -0.01 0.003 0.016
C65 0.036 0.022 0.036 0.006 0.012 0.001
C66 0.036 0.033 0.035 -0.001 0.006 0.008
C67 0.031 0.034 0.054 0.005 0.006 0.014
C68 0.051 0.036 0.058 0.013 0.011 0.017
C69 0.049 0.037 0.07 0.019 0.016 0.011
C70 0.041 0.035 0.039 -0.005 -0.001 0.013
C71 0.051 0.081 0.106 -0.038 0.029 -0.009
C72 0.06 0.068 0.083 -0.033 0.018 -0.001
C73 0.042 0.086 0.024 0.003 0.001 0.028
C74 0.044 0.054 0.025 0.021 0.008 0.008
N10 0.048 0.029 0.024 0.007 0.012 0.006
N12 0.042 0.022 0.048 0.004 0.008 0.006
N13 0.049 0.048 0.017 0.005 0.005 0.003
N14 0.055 0.042 0.03 -0.003 0 0.011
N16 0.043 0.038 0.04 -0.007 0.013 0.006
O14 0.054 0.064 0.042 0.006 -0.002 0.029
O15 0.06 0.061 0.061 0.02 0.003 0.018
O18 0.089 0.031 0.038 0.003 0.027 0.018
loop_
_geom_bond_atom_site_label_1
_geom_bond_atom_site_label_2
_geom_bond_site_symmetry_1
_geom_bond_site_symmetry_2
H25 C38 1_555 1_555
H26 C39 1_555 1_555
Zn6 N3 1_555 1_555
C38 C39 1_555 1_555
C2 H2 1_555 1_555
C3 C2 1_555 1_555
H3 C3 1_555 1_555
C25 C26 1_555 1_555
C28 C26 1_555 1_555
H20 C28 1_555 1_555
H22 C32 1_555 1_555
C35 H23 1_555 1_555
C36 C35 1_555 1_555
H24 C36 1_555 1_555
O2 C25 1_555 1_555
Zn6 N1 1_555 1_555
C43 C28 1_555 1_555
H27 C43 1_555 1_555
C2 N1 1_555 1_555
O2 Zn6 1_555 1_555
C80 C77 1_555 1_555
O16 C80 1_555 1_555
O22 C80 1_555 1_555
C40 C37 1_555 1_555
O7 C40 1_555 1_555
O8 C40 1_555 1_555
C27 H19 1_555 1_555
C41 C42 1_555 1_555
C44 C27 1_555 1_555
H28 C44 1_555 1_555
O11 C41 1_555 1_555
C42 C44 1_555 1_555
O11 Zn9 1_555 1_555
H30 C48 1_555 1_555
C50 H32 1_555 1_555
C51 C50 1_555 1_555
H33 C51 1_555 1_555
C75 H49 1_555 1_555
C76 C75 1_555 1_555
H50 C76 1_555 1_555
Zn9 N9 1_555 1_555
N18 Zn9 1_555 1_555
C50 N9 1_555 1_555
H51 C78 1_555 1_555
H52 C79 1_555 1_555
C78 C79 1_555 1_555
C1 H1 1_555 1_555
C4 C5 1_555 1_555
C5 H4 1_555 1_555
C6 C5 1_555 1_555
C7 C6 1_555 1_555
H5 C7 1_555 1_555
C8 C7 1_555 1_555
C9 C4 1_555 1_555
H6 C9 1_555 1_555
C10 H7 1_555 1_555
C11 C10 1_555 1_555
H8 C11 1_555 1_555
C12 H9 1_555 1_555
C13 C14 1_555 1_555
C14 H10 1_555 1_555
C15 C14 1_555 1_555
C16 C15 1_555 1_555
H11 C16 1_555 1_555
C17 C16 1_555 1_555
C18 C13 1_555 1_555
H12 C18 1_555 1_555
C20 H14 1_555 1_555
C21 C20 1_555 1_555
C22 H16 1_555 1_555
C23 H17 1_555 1_555
C24 C23 1_555 1_555
H18 C24 1_555 1_555
C29 C30 1_555 1_555
C30 C31 1_555 1_555
C31 H21 1_555 1_555
C33 C34 1_555 1_555
N2 C1 1_555 1_555
N4 C17 1_555 1_555
N5 C11 1_555 1_555
N6 C6 1_555 1_555
N7 C22 1_555 1_555
N8 C15 1_555 1_555
O3 C29 1_555 1_555
O4 C29 1_555 1_555
O5 C33 1_555 1_555
O6 C33 1_555 1_555
O9 C8 1_555 1_555
Zn2 N5 1_555 1_555
N20 Zn2 1_555 1_555
Zn11 N7 1_555 1_555
C4 N2 1_555 1_555
C8 C9 1_555 1_555
C10 N6 1_555 1_555
C12 N5 1_555 1_555
C12 N6 1_555 1_555
C13 O9 1_555 1_555
C17 C18 1_555 1_555
C19 N4 1_555 1_555
C20 N4 1_555 1_555
C22 N8 1_555 1_555
C23 N7 1_555 1_555
C24 N8 1_555 1_555
O3 Zn2 1_555 1_555
O5 Zn2 1_555 1_555
C45 C46 1_555 1_555
C46 C47 1_555 1_555
H29 C47 1_555 1_555
O12 C45 1_555 1_555
O13 C45 1_555 1_555
C49 H31 1_555 1_555
C52 C53 1_555 1_555
C53 H34 1_555 1_555
C54 C53 1_555 1_555
C55 C54 1_555 1_555
H35 C55 1_555 1_555
C56 C55 1_555 1_555
C57 C52 1_555 1_555
H36 C57 1_555 1_555
C58 H37 1_555 1_555
C59 C58 1_555 1_555
H38 C59 1_555 1_555
C60 H39 1_555 1_555
C61 C62 1_555 1_555
C62 H40 1_555 1_555
C63 C62 1_555 1_555
C64 C63 1_555 1_555
H41 C64 1_555 1_555
C65 C64 1_555 1_555
C66 C61 1_555 1_555
H42 C66 1_555 1_555
C68 H44 1_555 1_555
C69 C68 1_555 1_555
C70 H46 1_555 1_555
C71 H47 1_555 1_555
C72 C71 1_555 1_555
H48 C72 1_555 1_555
C73 C74 1_555 1_555
N10 C49 1_555 1_555
N12 C65 1_555 1_555
N13 C59 1_555 1_555
N14 C54 1_555 1_555
N20 C70 1_555 1_555
N16 C63 1_555 1_555
O14 C73 1_555 1_555
O15 C73 1_555 1_555
O18 C56 1_555 1_555
Zn11 O12 1_555 1_555
C52 N10 1_555 1_555
C56 C57 1_555 1_555
C58 N14 1_555 1_555
C60 N13 1_555 1_555
C60 N14 1_555 1_555
C61 O18 1_555 1_555
C65 C66 1_555 1_555
C67 N12 1_555 1_555
C68 N12 1_555 1_555
C70 N16 1_555 1_555
C71 N20 1_555 1_555
C72 N16 1_555 1_555
N13 Zn11 1_555 1_555
O14 Zn11 1_555 1_555

#END
