
###############################################################################
#
# This file contains modified crystal structure data generated from the
# MOF subset of the Cambridge Structural Database (CSD) v543 
# hosted by the Cambridge Crystallographic Data Centre (CCDC).
#
# This work is licensed under the Creative Commons
# Attribution-NonCommercial-ShareAlike 4.0 International License.
# To view a copy of this license, visit
# http://creativecommons.org/licenses/by-nc-sa/4.0/
# or send a letter to
# Creative Commons, PO Box 1866, Mountain View, CA 94042, USA.
#
# CIF created using the CSD Python API on 29 September 2022
# The structure has been converted into the P1 space group
# The structure has a 3D framework
# The original CSD entry NUHVUK is in the hexagonal crystal system
# The framework has been calculated to contain at least 10.0% void space
# The void calculation uses a probe of radius 1.32A, grid spacing 0.4
# H atom positions have been added when not included in the experimental data
# Generated hydrogen atom positions removed from atoms on special positions
#
###############################################################################

data_NUHVUK
_chemical_formula_moiety         '(C72 H78 Eu6 O44)n'
_symmetry_cell_setting           triclinic
_symmetry_space_group_name_H-M   'P 1'
_symmetry_Int_Tables_number      1
_space_group_name_Hall           'P 1'
loop_
_symmetry_equiv_pos_site_id
_symmetry_equiv_pos_as_xyz
1 x,y,z
_cell_length_a                   10.55890(10)
_cell_length_b                   10.55890(10)
_cell_length_c                   24.8011(4)
_cell_angle_alpha                90
_cell_angle_beta                 90
_cell_angle_gamma                120
_cell_volume                     2394.63
loop_
_atom_site_label
_atom_site_type_symbol
_atom_site_fract_x
_atom_site_fract_y
_atom_site_fract_z
O10 O 0.010(2) 0.240(3) 0.250000
C27 C 0.0610(21) 0.6076(14) 0.4082(5)
H13 H 0.094443 0.668514 0.378227
C28 C 0.1126(21) 0.6642(14) 0.4571(4)
H14 H 0.186283 0.761126 0.460607
C29 C 0.0538(16) 0.5752(11) 0.5031(4)
O16 O 0.0547(20) 0.5118(16) 0.6937(3)
C31 C 0.0940(24) 0.602(2) 0.6559(4)
C32 C 0.0436(16) 0.5433(13) 0.5990(4)
C36 C 0.1009(19) 0.6318(15) 0.5570(4)
H18 H 0.170981 0.729557 0.562166
O17 O 0.1721(21) 0.7356(17) 0.6622(4)
Eu7 Eu 0.24429(7) 0.82973(10) 0.750000
Eu9 Eu 0.17027(10) 0.41456(7) 0.750000
Eu1 Eu 0.41456(7) 0.24429(7) 0.250000
O1 O 0.666667 0.333333 0.250000
O2 O 0.5118(16) 0.4571(12) 0.3063(3)
O3 O 0.7356(17) 0.5635(12) 0.3378(4)
C1 C 0.602(2) 0.5080(14) 0.3441(4)
C2 C 0.5433(13) 0.4997(10) 0.4010(4)
C3 C 0.3924(14) 0.4534(15) 0.4082(5)
H1 H 0.331486 0.425929 0.378227
C4 C 0.3358(14) 0.4484(15) 0.4571(4)
H2 H 0.238874 0.425157 0.460607
C5 C 0.4248(11) 0.4786(12) 0.5031(4)
C6 C 0.6318(15) 0.5309(12) 0.4430(4)
H3 H 0.729557 0.558576 0.437834
O5 O 0.226(3) 0.284(2) 0.2247(8)
O6 O 0.4882(16) 0.5429(12) 0.6937(3)
C7 C 0.398(2) 0.4920(14) 0.6559(4)
C8 C 0.4567(13) 0.5003(10) 0.5990(4)
C9 C 0.6076(14) 0.5466(15) 0.5918(5)
H4 H 0.668514 0.574071 0.621773
C10 C 0.6642(14) 0.5516(15) 0.5429(4)
H5 H 0.761126 0.574843 0.539393
C11 C 0.5752(11) 0.5214(12) 0.4969(4)
C12 C 0.3682(15) 0.4691(12) 0.5570(4)
H6 H 0.270443 0.441424 0.562166
O7 O 0.2644(17) 0.4365(12) 0.6622(4)
Eu2 Eu 0.75571(7) 0.17027(10) 0.250000
O8 O 0.5429(12) 0.0547(20) 0.3063(3)
O9 O 0.4365(12) 0.1721(21) 0.3378(4)
C13 C 0.4920(14) 0.0940(24) 0.3441(4)
C14 C 0.5003(10) 0.0436(16) 0.4010(4)
C18 C 0.4691(12) 0.1009(19) 0.4430(4)
H9 H 0.441424 0.170981 0.437834
C21 C 0.4534(15) 0.0610(21) 0.5918(5)
H10 H 0.425929 0.094443 0.621773
C22 C 0.4484(15) 0.1126(21) 0.5429(4)
H11 H 0.425157 0.186283 0.539393
C23 C 0.4786(12) 0.0538(16) 0.4969(4)
Eu3 Eu 0.82973(10) 0.58544(7) 0.250000
O13 O 0.9453(20) 0.4882(16) 0.3063(3)
O14 O 0.8279(21) 0.2644(17) 0.3378(4)
C25 C 0.9060(24) 0.398(2) 0.3441(4)
C26 C 0.9564(16) 0.4567(13) 0.4010(4)
C30 C 0.8991(19) 0.3682(15) 0.4430(4)
H15 H 0.829019 0.270443 0.437834
O15 O 0.760(3) 0.770(2) 0.250000
C33 C 0.9390(21) 0.3924(14) 0.5918(5)
H16 H 0.905557 0.331486 0.621773
C34 C 0.8874(21) 0.3358(14) 0.5429(4)
H17 H 0.813717 0.238874 0.539393
C35 C 0.9462(16) 0.4248(11) 0.4969(4)
Eu5 Eu 0.58544(7) 0.75571(7) 0.750000
O18 O 0.5118(16) 0.4571(12) 0.1937(3)
O19 O 0.5429(12) 0.0547(20) 0.1937(3)
O20 O 0.9453(20) 0.4882(16) 0.1937(3)
O21 O 0.7356(17) 0.5635(12) 0.1622(4)
O22 O 0.4365(12) 0.1721(21) 0.1622(4)
O23 O 0.8279(21) 0.2644(17) 0.1622(4)
H19 H 0.225687 0.293356 0.184867
H20 H 0.131196 0.20032 0.236646
O4 O 0.230(2) 0.990(2) 0.250000
C15 C 0.5466(15) 0.9390(21) 0.4082(5)
H7 H 0.574071 0.905557 0.378227
C16 C 0.5516(15) 0.8874(21) 0.4571(4)
H8 H 0.574843 0.813717 0.460607
C17 C 0.5214(12) 0.9462(16) 0.5031(4)
O11 O 0.4571(12) 0.9453(20) 0.6937(3)
C19 C 0.5080(14) 0.9060(24) 0.6559(4)
C20 C 0.4997(10) 0.9564(16) 0.5990(4)
C24 C 0.5309(12) 0.8991(19) 0.5570(4)
H12 H 0.558576 0.829019 0.562166
O12 O 0.5635(12) 0.8279(21) 0.6622(4)
O5_2 O 0.716(2) 0.942(4) 0.2247(8)
H19_2 H 0.706644 0.932331 0.184867
H20_2 H 0.79968 0.930877 0.236646
O5_3 O 0.058(4) 0.774(3) 0.2247(8)
H19_3 H 0.0676691 0.774313 0.184867
H20_3 H 0.0691235 0.868804 0.236646
C17_2 C 0.4786(12) 0.0538(16) 0.0031(4)
C19_2 C 0.4920(14) 0.0940(24) 0.1559(4)
C20_2 C 0.5003(10) 0.0436(16) 0.0990(4)
C24_2 C 0.4691(12) 0.1009(19) 0.0570(4)
H12_2 H 0.441424 0.170981 0.062166
O4_2 O 0.770(2) 0.010(2) 0.750000
C15_2 C 0.4534(15) 0.0610(21) 0.9082(5)
H7_2 H 0.425929 0.094443 0.878227
C16_2 C 0.4484(15) 0.1126(21) 0.9571(4)
H8_2 H 0.425157 0.186283 0.960607
C5_2 C 0.5752(11) 0.5214(12) 0.0031(4)
C7_2 C 0.602(2) 0.5080(14) 0.1559(4)
C8_2 C 0.5433(13) 0.4997(10) 0.0990(4)
C9_2 C 0.3924(14) 0.4534(15) 0.0918(5)
H4_2 H 0.331486 0.425929 0.121773
C10_2 C 0.3358(14) 0.4484(15) 0.0429(4)
H5_2 H 0.238874 0.425157 0.039393
C12_2 C 0.6318(15) 0.5309(12) 0.0570(4)
H6_2 H 0.729557 0.558576 0.062166
C21_2 C 0.5466(15) 0.9390(21) 0.0918(5)
H10_2 H 0.574071 0.905557 0.121773
C22_2 C 0.5516(15) 0.8874(21) 0.0429(4)
H11_2 H 0.574843 0.813717 0.039393
C33_2 C 0.0610(21) 0.6076(14) 0.0918(5)
H16_2 H 0.094443 0.668514 0.121773
C34_2 C 0.1126(21) 0.6642(14) 0.0429(4)
H17_2 H 0.186283 0.761126 0.039393
O1_2 O 0.333333 0.666667 0.750000
O2_2 O 0.4882(16) 0.5429(12) 0.8063(3)
O3_2 O 0.2644(17) 0.4365(12) 0.8378(4)
C1_2 C 0.398(2) 0.4920(14) 0.8441(4)
C2_2 C 0.4567(13) 0.5003(10) 0.9010(4)
C3_2 C 0.6076(14) 0.5466(15) 0.9082(5)
H1_2 H 0.668514 0.574071 0.878227
C4_2 C 0.6642(14) 0.5516(15) 0.9571(4)
H2_2 H 0.761126 0.574843 0.960607
C6_2 C 0.3682(15) 0.4691(12) 0.9430(4)
H3_2 H 0.270443 0.441424 0.937834
O5_4 O 0.774(3) 0.716(2) 0.7247(8)
C11_2 C 0.4248(11) 0.4786(12) 0.9969(4)
O8_2 O 0.4571(12) 0.9453(20) 0.8063(3)
O9_2 O 0.5635(12) 0.8279(21) 0.8378(4)
C13_2 C 0.5080(14) 0.9060(24) 0.8441(4)
C14_2 C 0.4997(10) 0.9564(16) 0.9010(4)
C18_2 C 0.5309(12) 0.8991(19) 0.9430(4)
H9_2 H 0.558576 0.829019 0.937834
C23_2 C 0.5214(12) 0.9462(16) 0.9969(4)
O13_2 O 0.0547(20) 0.5118(16) 0.8063(3)
O14_2 O 0.1721(21) 0.7356(17) 0.8378(4)
C25_2 C 0.0940(24) 0.602(2) 0.8441(4)
C26_2 C 0.0436(16) 0.5433(13) 0.9010(4)
C30_2 C 0.1009(19) 0.6318(15) 0.9430(4)
H15_2 H 0.170981 0.729557 0.937834
O15_2 O 0.240(3) 0.230(2) 0.750000
C35_2 C 0.0538(16) 0.5752(11) 0.9969(4)
H19_4 H 0.774313 0.706644 0.684867
H20_4 H 0.868804 0.79968 0.736646
C29_2 C 0.9462(16) 0.4248(11) 0.0031(4)
C31_2 C 0.9060(24) 0.398(2) 0.1559(4)
C32_2 C 0.9564(16) 0.4567(13) 0.0990(4)
C36_2 C 0.8991(19) 0.3682(15) 0.0570(4)
H18_2 H 0.829019 0.270443 0.062166
O10_2 O 0.990(2) 0.760(3) 0.750000
C27_2 C 0.9390(21) 0.3924(14) 0.9082(5)
H13_2 H 0.905557 0.331486 0.878227
C28_2 C 0.8874(21) 0.3358(14) 0.9571(4)
H14_2 H 0.813717 0.238874 0.960607
O5_5 O 0.284(2) 0.058(4) 0.7247(8)
H19_5 H 0.293356 0.0676691 0.684867
H20_5 H 0.20032 0.0691235 0.736646
O5_6 O 0.942(4) 0.226(3) 0.7247(8)
H19_6 H 0.932331 0.225687 0.684867
H20_6 H 0.930877 0.131196 0.736646
O5_7 O 0.774(3) 0.716(2) 0.7753(8)
H19_7 H 0.774313 0.706644 0.815133
H20_7 H 0.868804 0.79968 0.763354
O5_8 O 0.284(2) 0.058(4) 0.7753(8)
H19_8 H 0.293356 0.0676691 0.815133
H20_8 H 0.20032 0.0691235 0.763354
O5_9 O 0.942(4) 0.226(3) 0.7753(8)
H19_9 H 0.932331 0.225687 0.815133
H20_9 H 0.930877 0.131196 0.763354
O5_10 O 0.226(3) 0.284(2) 0.2753(8)
H19_10 H 0.225687 0.293356 0.315133
H20_10 H 0.131196 0.20032 0.263354
O5_11 O 0.716(2) 0.942(4) 0.2753(8)
H19_11 H 0.706644 0.932331 0.315133
H20_11 H 0.79968 0.930877 0.263354
O5_12 O 0.058(4) 0.774(3) 0.2753(8)
H19_12 H 0.0676691 0.774313 0.315133
H20_12 H 0.0691235 0.868804 0.263354
loop_
_geom_bond_atom_site_label_1
_geom_bond_atom_site_label_2
_geom_bond_site_symmetry_1
_geom_bond_site_symmetry_2
H13 C27 1_555 1_555
C28 C27 1_555 1_555
H14 C28 1_555 1_555
C29 C28 1_555 1_555
O16 C31 1_555 1_555
C31 C32 1_555 1_555
C36 C29 1_555 1_555
H18 C36 1_555 1_555
O17 C31 1_555 1_555
Eu7 O17 1_555 1_555
Eu9 O16 1_555 1_555
C32 C36 1_555 1_555
Eu1 O1 1_555 1_555
O1 Eu2 1_555 1_555
O2 Eu1 1_555 1_555
O3 C1 1_555 1_555
C1 O2 1_555 1_555
C2 C1 1_555 1_555
C3 C2 1_555 1_555
H1 C3 1_555 1_555
C4 C3 1_555 1_555
H2 C4 1_555 1_555
C5 C4 1_555 1_555
C6 C2 1_555 1_555
H3 C6 1_555 1_555
O5 Eu1 1_555 1_555
O6 C7 1_555 1_555
C7 C8 1_555 1_555
C8 C9 1_555 1_555
C9 H4 1_555 1_555
C10 C9 1_555 1_555
H5 C10 1_555 1_555
C11 C5 1_555 1_555
C12 C5 1_555 1_555
H6 C12 1_555 1_555
O7 C7 1_555 1_555
Eu2 O8 1_555 1_555
O8 C13 1_555 1_555
O9 Eu1 1_555 1_555
C13 O9 1_555 1_555
C14 C13 1_555 1_555
C18 C14 1_555 1_555
H9 C18 1_555 1_555
C21 H10 1_555 1_555
C22 C21 1_555 1_555
H11 C22 1_555 1_555
Eu3 O1 1_555 1_555
O13 Eu3 1_555 1_555
O14 Eu2 1_555 1_555
C25 O13 1_555 1_555
C26 C25 1_555 1_555
C30 C26 1_555 1_555
H15 C30 1_555 1_555
O15 Eu3 1_555 1_555
C33 H16 1_555 1_555
C34 C33 1_555 1_555
H17 C34 1_555 1_555
Eu5 O6 1_555 1_555
Eu9 O7 1_555 1_555
O18 Eu1 1_555 1_555
O19 Eu2 1_555 1_555
O20 Eu3 1_555 1_555
O21 Eu3 1_555 1_555
O22 Eu1 1_555 1_555
O23 Eu2 1_555 1_555
O3 Eu3 1_555 1_555
C6 C11 1_555 1_555
C8 C12 1_555 1_555
C10 C11 1_555 1_555
C18 C23 1_555 1_555
C22 C23 1_555 1_555
O14 C25 1_555 1_555
C30 C35 1_555 1_555
C34 C35 1_555 1_555
O5 H19 1_555 1_555
O5 H20 1_555 1_555
H7 C15 1_555 1_555
C16 C15 1_555 1_555
H8 C16 1_555 1_555
C17 C16 1_555 1_555
O11 C19 1_555 1_555
C19 C20 1_555 1_555
C24 C17 1_555 1_555
H12 C24 1_555 1_555
O12 C19 1_555 1_555
Eu5 O12 1_555 1_555
Eu7 O11 1_555 1_555
C20 C24 1_555 1_555
O5_2 H19_2 1_555 1_555
O5_2 H20_2 1_555 1_555
O5_3 H19_3 1_555 1_555
O5_3 H20_3 1_555 1_555
O19 C19_2 1_555 1_555
C19_2 C20_2 1_555 1_555
C24_2 C17_2 1_555 1_555
H12_2 C24_2 1_555 1_555
O22 C19_2 1_555 1_555
C20_2 C24_2 1_555 1_555
H7_2 C15_2 1_555 1_555
C16_2 C15_2 1_555 1_555
H8_2 C16_2 1_555 1_555
O18 C7_2 1_555 1_555
C7_2 C8_2 1_555 1_555
C8_2 C9_2 1_555 1_555
C9_2 H4_2 1_555 1_555
C10_2 C9_2 1_555 1_555
H5_2 C10_2 1_555 1_555
C12_2 C5_2 1_555 1_555
H6_2 C12_2 1_555 1_555
O21 C7_2 1_555 1_555
C21_2 H10_2 1_555 1_555
C22_2 C21_2 1_555 1_555
H11_2 C22_2 1_555 1_555
C33_2 H16_2 1_555 1_555
C34_2 C33_2 1_555 1_555
H17_2 C34_2 1_555 1_555
C8_2 C12_2 1_555 1_555
Eu5 O1_2 1_555 1_555
O1_2 Eu7 1_555 1_555
O2_2 Eu5 1_555 1_555
O3_2 C1_2 1_555 1_555
C1_2 O2_2 1_555 1_555
C2_2 C1_2 1_555 1_555
C3_2 C2_2 1_555 1_555
H1_2 C3_2 1_555 1_555
C4_2 C3_2 1_555 1_555
H2_2 C4_2 1_555 1_555
C6_2 C2_2 1_555 1_555
H3_2 C6_2 1_555 1_555
O5_4 Eu5 1_555 1_555
Eu7 O8_2 1_555 1_555
O8_2 C13_2 1_555 1_555
O9_2 Eu5 1_555 1_555
C13_2 O9_2 1_555 1_555
C14_2 C13_2 1_555 1_555
C18_2 C14_2 1_555 1_555
H9_2 C18_2 1_555 1_555
Eu9 O1_2 1_555 1_555
O13_2 Eu9 1_555 1_555
O14_2 Eu7 1_555 1_555
C25_2 O13_2 1_555 1_555
C26_2 C25_2 1_555 1_555
C30_2 C26_2 1_555 1_555
H15_2 C30_2 1_555 1_555
O15_2 Eu9 1_555 1_555
O3_2 Eu9 1_555 1_555
C6_2 C11_2 1_555 1_555
C18_2 C23_2 1_555 1_555
O14_2 C25_2 1_555 1_555
C30_2 C35_2 1_555 1_555
O5_4 H19_4 1_555 1_555
O5_4 H20_4 1_555 1_555
O20 C31_2 1_555 1_555
C31_2 C32_2 1_555 1_555
C36_2 C29_2 1_555 1_555
H18_2 C36_2 1_555 1_555
O23 C31_2 1_555 1_555
C32_2 C36_2 1_555 1_555
H13_2 C27_2 1_555 1_555
C28_2 C27_2 1_555 1_555
H14_2 C28_2 1_555 1_555
O5_5 H19_5 1_555 1_555
O5_5 H20_5 1_555 1_555
O5_6 H19_6 1_555 1_555
O5_6 H20_6 1_555 1_555
O5_7 Eu5 1_555 1_555
O5_7 H19_7 1_555 1_555
O5_7 H20_7 1_555 1_555
O5_8 H19_8 1_555 1_555
O5_8 H20_8 1_555 1_555
O5_9 H19_9 1_555 1_555
O5_9 H20_9 1_555 1_555
O5_10 Eu1 1_555 1_555
O5_10 H19_10 1_555 1_555
O5_10 H20_10 1_555 1_555
O5_11 H19_11 1_555 1_555
O5_11 H20_11 1_555 1_555
O5_12 H19_12 1_555 1_555
O5_12 H20_12 1_555 1_555

#END
