
###############################################################################
#
# This file contains modified crystal structure data generated from the
# MOF subset of the Cambridge Structural Database (CSD) v543 
# hosted by the Cambridge Crystallographic Data Centre (CCDC).
#
# This work is licensed under the Creative Commons
# Attribution-NonCommercial-ShareAlike 4.0 International License.
# To view a copy of this license, visit
# http://creativecommons.org/licenses/by-nc-sa/4.0/
# or send a letter to
# Creative Commons, PO Box 1866, Mountain View, CA 94042, USA.
#
# CIF created using the CSD Python API on 29 September 2022
# The structure has been converted into the P1 space group
# The structure has a 3D framework
# The original CSD entry NUHVOE is in the hexagonal crystal system
# The framework has been calculated to contain at least 10.0% void space
# The void calculation uses a probe of radius 1.32A, grid spacing 0.4
# H atom positions have been added when not included in the experimental data
# Generated hydrogen atom positions removed from atoms on special positions
#
###############################################################################

data_NUHVOE
_chemical_formula_moiety         '(C72 H78 Eu6 O44)n'
_symmetry_cell_setting           triclinic
_symmetry_space_group_name_H-M   'P 1'
_symmetry_Int_Tables_number      1
_space_group_name_Hall           'P 1'
loop_
_symmetry_equiv_pos_site_id
_symmetry_equiv_pos_as_xyz
1 x,y,z
_cell_length_a                   10.5515(5)
_cell_length_b                   10.5515(5)
_cell_length_c                   24.7960(13)
_cell_angle_alpha                90
_cell_angle_beta                 90
_cell_angle_gamma                120
_cell_volume                     2390.79
loop_
_atom_site_label
_atom_site_type_symbol
_atom_site_fract_x
_atom_site_fract_y
_atom_site_fract_z
C15 C 0.0628(17) 0.6087(24) 0.0916(5)
H7 H 0.097429 0.669882 0.121533
C16 C 0.1127(15) 0.6645(22) 0.0428(4)
H8 H 0.186261 0.761563 0.039026
O10 O 0.014(3) 0.251(4) 0.250000
O11 O 0.1724(12) 0.7379(18) 0.8376(4)
C19 C 0.0963(16) 0.6048(22) 0.8440(3)
C20 C 0.0439(13) 0.5444(17) 0.9007(4)
C23 C 0.0528(12) 0.5747(18) 0.9970(4)
C24 C 0.0999(14) 0.6306(18) 0.9435(3)
H12 H 0.170418 0.728401 0.938752
O12 O 0.0555(21) 0.5115(24) 0.8062(3)
Eu7 Eu 0.24384(8) 0.82944(11) 0.750000
Eu9 Eu 0.17056(11) 0.41440(7) 0.750000
Eu1 Eu 0.41440(7) 0.24384(8) 0.250000
O1 O 0.666667 0.333333 0.250000
O2 O 0.4345(13) 0.1724(12) 0.1624(4)
O3 O 0.5440(12) 0.0555(21) 0.1938(3)
C1 C 0.4915(15) 0.0963(16) 0.1560(3)
C2 C 0.4995(11) 0.0439(13) 0.0993(4)
C5 C 0.4781(13) 0.0528(12) 0.0030(4)
C6 C 0.4693(12) 0.0999(14) 0.0565(3)
H3 H 0.442017 0.170418 0.061248
O5 O 0.220(3) 0.283(4) 0.2234(10)
Eu2 Eu 0.75616(8) 0.17056(11) 0.250000
O8 O 0.8276(12) 0.2621(18) 0.1624(4)
O9 O 0.9445(21) 0.4885(24) 0.1938(3)
C13 C 0.9037(16) 0.3952(22) 0.1560(3)
C14 C 0.9561(13) 0.4556(17) 0.0993(4)
C17 C 0.9472(12) 0.4253(18) 0.0030(4)
C18 C 0.9001(14) 0.3694(18) 0.0565(3)
H9 H 0.829582 0.271599 0.061248
Eu3 Eu 0.82944(11) 0.58560(7) 0.250000
O13 O 0.7379(18) 0.5655(13) 0.1624(4)
O14 O 0.5115(24) 0.4560(12) 0.1938(3)
C25 C 0.6048(22) 0.5085(15) 0.1560(3)
C26 C 0.5444(17) 0.5005(11) 0.0993(4)
C27 C 0.3913(24) 0.4541(17) 0.0916(5)
H13 H 0.330118 0.427547 0.121533
C28 C 0.3355(22) 0.4482(16) 0.0428(4)
H14 H 0.238437 0.424698 0.039026
C29 C 0.5747(18) 0.5219(13) 0.0030(4)
C30 C 0.6306(18) 0.5307(12) 0.0565(3)
H15 H 0.728401 0.557983 0.061248
O15 O 0.749(4) 0.763(3) 0.250000
O18 O 0.4345(13) 0.1724(12) 0.3376(4)
O19 O 0.8276(12) 0.2621(18) 0.3376(4)
O20 O 0.7379(18) 0.5655(13) 0.3376(4)
O21 O 0.5440(12) 0.0555(21) 0.3062(3)
O22 O 0.9445(21) 0.4885(24) 0.3062(3)
O23 O 0.5115(24) 0.4560(12) 0.3062(3)
H25 H 0.219341 0.290863 0.183506
H26 H 0.125339 0.199547 0.235669
C9 C 0.4541(17) 0.0628(17) 0.9084(5)
H4 H 0.427547 0.097429 0.878467
C10 C 0.4482(16) 0.1127(15) 0.9572(4)
H5 H 0.424698 0.186261 0.960974
C21 C 0.9372(17) 0.3913(24) 0.9084(5)
H10 H 0.902571 0.330118 0.878467
C22 C 0.8873(15) 0.3355(22) 0.9572(4)
H11 H 0.813739 0.238437 0.960974
O16 O 0.2621(18) 0.4345(13) 0.8376(4)
C31 C 0.3952(22) 0.4915(15) 0.8440(3)
C32 C 0.4556(17) 0.4995(11) 0.9007(4)
C33 C 0.6087(24) 0.5459(17) 0.9084(5)
H16 H 0.669882 0.572453 0.878467
C34 C 0.6645(22) 0.5518(16) 0.9572(4)
H17 H 0.761563 0.575302 0.960974
C35 C 0.4253(18) 0.4781(13) 0.9970(4)
C36 C 0.3694(18) 0.4693(12) 0.9435(3)
H18 H 0.271599 0.442017 0.938752
O17 O 0.4885(24) 0.5440(12) 0.8062(3)
Eu5 Eu 0.58560(7) 0.75616(8) 0.750000
C3 C 0.5459(17) 0.9372(17) 0.0916(5)
H1 H 0.572453 0.902571 0.121533
C4 C 0.5518(16) 0.8873(15) 0.0428(4)
H2 H 0.575302 0.813739 0.039026
O4 O 0.237(3) 0.986(3) 0.250000
O6 O 0.5655(13) 0.8276(12) 0.8376(4)
C7 C 0.5085(15) 0.9037(16) 0.8440(3)
C8 C 0.5005(11) 0.9561(13) 0.9007(4)
C11 C 0.5219(13) 0.9472(12) 0.9970(4)
C12 C 0.5307(12) 0.9001(14) 0.9435(3)
H6 H 0.557983 0.829582 0.938752
O7 O 0.4560(12) 0.9445(21) 0.8062(3)
O5_2 O 0.717(4) 0.937(5) 0.2234(10)
H25_2 H 0.709137 0.928478 0.183506
H26_2 H 0.800453 0.925792 0.235669
O5_3 O 0.063(5) 0.780(3) 0.2234(10)
H25_3 H 0.0715221 0.780659 0.183506
H26_3 H 0.0742078 0.874661 0.235669
C3_2 C 0.4541(17) 0.0628(17) 0.5916(5)
H1_2 H 0.427547 0.097429 0.621533
C4_2 C 0.4482(16) 0.1127(15) 0.5428(4)
H2_2 H 0.424698 0.186261 0.539026
O4_2 O 0.763(3) 0.014(3) 0.750000
C7_2 C 0.4915(15) 0.0963(16) 0.3440(3)
C8_2 C 0.4995(11) 0.0439(13) 0.4007(4)
C11_2 C 0.4781(13) 0.0528(12) 0.4970(4)
C12_2 C 0.4693(12) 0.0999(14) 0.4435(3)
H6_2 H 0.442017 0.170418 0.438752
O1_2 O 0.333333 0.666667 0.750000
O2_2 O 0.5655(13) 0.8276(12) 0.6624(4)
O3_2 O 0.4560(12) 0.9445(21) 0.6938(3)
C1_2 C 0.5085(15) 0.9037(16) 0.6560(3)
C2_2 C 0.5005(11) 0.9561(13) 0.5993(4)
C5_2 C 0.5219(13) 0.9472(12) 0.5030(4)
C6_2 C 0.5307(12) 0.9001(14) 0.5565(3)
H3_2 H 0.557983 0.829582 0.561248
O5_4 O 0.780(3) 0.717(4) 0.7234(10)
C9_2 C 0.5459(17) 0.9372(17) 0.4084(5)
H4_2 H 0.572453 0.902571 0.378467
C10_2 C 0.5518(16) 0.8873(15) 0.4572(4)
H5_2 H 0.575302 0.813739 0.460974
O8_2 O 0.1724(12) 0.7379(18) 0.6624(4)
O9_2 O 0.0555(21) 0.5115(24) 0.6938(3)
C13_2 C 0.0963(16) 0.6048(22) 0.6560(3)
C14_2 C 0.0439(13) 0.5444(17) 0.5993(4)
C17_2 C 0.0528(12) 0.5747(18) 0.5030(4)
C18_2 C 0.0999(14) 0.6306(18) 0.5565(3)
H9_2 H 0.170418 0.728401 0.561248
C21_2 C 0.0628(17) 0.6087(24) 0.4084(5)
H10_2 H 0.097429 0.669882 0.378467
C22_2 C 0.1127(15) 0.6645(22) 0.4572(4)
H11_2 H 0.186261 0.761563 0.460974
O13_2 O 0.2621(18) 0.4345(13) 0.6624(4)
O14_2 O 0.4885(24) 0.5440(12) 0.6938(3)
C25_2 C 0.3952(22) 0.4915(15) 0.6560(3)
C26_2 C 0.4556(17) 0.4995(11) 0.5993(4)
C27_2 C 0.6087(24) 0.5459(17) 0.5916(5)
H13_2 H 0.669882 0.572453 0.621533
C28_2 C 0.6645(22) 0.5518(16) 0.5428(4)
H14_2 H 0.761563 0.575302 0.539026
C29_2 C 0.4253(18) 0.4781(13) 0.5030(4)
C30_2 C 0.3694(18) 0.4693(12) 0.5565(3)
H15_2 H 0.271599 0.442017 0.561248
O15_2 O 0.251(4) 0.237(3) 0.750000
C31_2 C 0.6048(22) 0.5085(15) 0.3440(3)
C32_2 C 0.5444(17) 0.5005(11) 0.4007(4)
C33_2 C 0.3913(24) 0.4541(17) 0.4084(5)
H16_2 H 0.330118 0.427547 0.378467
C34_2 C 0.3355(22) 0.4482(16) 0.4572(4)
H17_2 H 0.238437 0.424698 0.460974
C35_2 C 0.5747(18) 0.5219(13) 0.4970(4)
C36_2 C 0.6306(18) 0.5307(12) 0.4435(3)
H18_2 H 0.728401 0.557983 0.438752
H25_4 H 0.780659 0.709137 0.683506
H26_4 H 0.874661 0.800453 0.735669
C15_2 C 0.9372(17) 0.3913(24) 0.5916(5)
H7_2 H 0.902571 0.330118 0.621533
C16_2 C 0.8873(15) 0.3355(22) 0.5428(4)
H8_2 H 0.813739 0.238437 0.539026
O10_2 O 0.986(3) 0.749(4) 0.750000
C19_2 C 0.9037(16) 0.3952(22) 0.3440(3)
C20_2 C 0.9561(13) 0.4556(17) 0.4007(4)
C23_2 C 0.9472(12) 0.4253(18) 0.4970(4)
C24_2 C 0.9001(14) 0.3694(18) 0.4435(3)
H12_2 H 0.829582 0.271599 0.438752
O5_5 O 0.283(4) 0.063(5) 0.7234(10)
H25_5 H 0.290863 0.0715221 0.683506
H26_5 H 0.199547 0.0742078 0.735669
O5_6 O 0.937(5) 0.220(3) 0.7234(10)
H25_6 H 0.928478 0.219341 0.683506
H26_6 H 0.925792 0.125339 0.735669
O5_7 O 0.780(3) 0.717(4) 0.7766(10)
H25_7 H 0.780659 0.709137 0.816494
H26_7 H 0.874661 0.800453 0.764331
O5_8 O 0.283(4) 0.063(5) 0.7766(10)
H25_8 H 0.290863 0.0715221 0.816494
H26_8 H 0.199547 0.0742078 0.764331
O5_9 O 0.937(5) 0.220(3) 0.7766(10)
H25_9 H 0.928478 0.219341 0.816494
H26_9 H 0.925792 0.125339 0.764331
O5_10 O 0.220(3) 0.283(4) 0.2766(10)
H25_10 H 0.219341 0.290863 0.316494
H26_10 H 0.125339 0.199547 0.264331
O5_11 O 0.717(4) 0.937(5) 0.2766(10)
H25_11 H 0.709137 0.928478 0.316494
H26_11 H 0.800453 0.925792 0.264331
O5_12 O 0.063(5) 0.780(3) 0.2766(10)
H25_12 H 0.0715221 0.780659 0.316494
H26_12 H 0.0742078 0.874661 0.264331
loop_
_geom_bond_atom_site_label_1
_geom_bond_atom_site_label_2
_geom_bond_site_symmetry_1
_geom_bond_site_symmetry_2
H7 C15 1_555 1_555
C16 C15 1_555 1_555
H8 C16 1_555 1_555
O11 C19 1_555 1_555
C19 C20 1_555 1_555
C24 C20 1_555 1_555
H12 C24 1_555 1_555
O12 C19 1_555 1_555
Eu7 O11 1_555 1_555
Eu9 O12 1_555 1_555
C23 C24 1_555 1_555
Eu1 O1 1_555 1_555
O1 Eu2 1_555 1_555
O2 Eu1 1_555 1_555
O3 C1 1_555 1_555
C1 O2 1_555 1_555
C2 C1 1_555 1_555
C5 C6 1_555 1_555
C6 C2 1_555 1_555
H3 C6 1_555 1_555
O5 Eu1 1_555 1_555
Eu2 O3 1_555 1_555
O8 Eu2 1_555 1_555
O9 C13 1_555 1_555
C13 O8 1_555 1_555
C14 C13 1_555 1_555
C17 C18 1_555 1_555
C18 C14 1_555 1_555
H9 C18 1_555 1_555
Eu3 O1 1_555 1_555
O13 Eu3 1_555 1_555
O14 Eu1 1_555 1_555
C25 O13 1_555 1_555
C26 C25 1_555 1_555
C27 C26 1_555 1_555
H13 C27 1_555 1_555
C28 C27 1_555 1_555
H14 C28 1_555 1_555
C29 C30 1_555 1_555
C30 C26 1_555 1_555
H15 C30 1_555 1_555
O15 Eu3 1_555 1_555
O18 Eu1 1_555 1_555
O19 Eu2 1_555 1_555
O20 Eu3 1_555 1_555
O21 Eu2 1_555 1_555
O22 Eu3 1_555 1_555
O23 Eu1 1_555 1_555
O9 Eu3 1_555 1_555
O14 C25 1_555 1_555
O5 H25 1_555 1_555
O5 H26 1_555 1_555
C9 H4 1_555 1_555
H5 C10 1_555 1_555
C21 H10 1_555 1_555
H11 C22 1_555 1_555
O16 C31 1_555 1_555
C31 C32 1_555 1_555
C32 C33 1_555 1_555
C33 H16 1_555 1_555
H17 C34 1_555 1_555
C36 C32 1_555 1_555
H18 C36 1_555 1_555
O17 C31 1_555 1_555
Eu5 O17 1_555 1_555
Eu9 O16 1_555 1_555
C9 C10 1_555 1_555
C21 C22 1_555 1_555
C33 C34 1_555 1_555
C35 C36 1_555 1_555
H1 C3 1_555 1_555
C4 C3 1_555 1_555
H2 C4 1_555 1_555
O6 C7 1_555 1_555
C7 C8 1_555 1_555
C12 C8 1_555 1_555
H6 C12 1_555 1_555
O7 C7 1_555 1_555
Eu5 O6 1_555 1_555
Eu7 O7 1_555 1_555
C11 C12 1_555 1_555
O5_2 H25_2 1_555 1_555
O5_2 H26_2 1_555 1_555
O5_3 H25_3 1_555 1_555
O5_3 H26_3 1_555 1_555
H1_2 C3_2 1_555 1_555
C4_2 C3_2 1_555 1_555
H2_2 C4_2 1_555 1_555
O18 C7_2 1_555 1_555
C7_2 C8_2 1_555 1_555
C11_2 C4_2 1_555 1_555
C12_2 C8_2 1_555 1_555
H6_2 C12_2 1_555 1_555
O21 C7_2 1_555 1_555
C11_2 C12_2 1_555 1_555
Eu5 O1_2 1_555 1_555
O1_2 Eu7 1_555 1_555
O2_2 Eu5 1_555 1_555
O3_2 C1_2 1_555 1_555
C1_2 O2_2 1_555 1_555
C2_2 C1_2 1_555 1_555
C5_2 C6_2 1_555 1_555
C6_2 C2_2 1_555 1_555
H3_2 C6_2 1_555 1_555
O5_4 Eu5 1_555 1_555
C9_2 H4_2 1_555 1_555
C10_2 C5_2 1_555 1_555
H5_2 C10_2 1_555 1_555
Eu7 O3_2 1_555 1_555
O8_2 Eu7 1_555 1_555
O9_2 C13_2 1_555 1_555
C13_2 O8_2 1_555 1_555
C14_2 C13_2 1_555 1_555
C17_2 C18_2 1_555 1_555
C18_2 C14_2 1_555 1_555
H9_2 C18_2 1_555 1_555
C21_2 H10_2 1_555 1_555
C22_2 C17_2 1_555 1_555
H11_2 C22_2 1_555 1_555
Eu9 O1_2 1_555 1_555
O13_2 Eu9 1_555 1_555
O14_2 Eu5 1_555 1_555
C25_2 O13_2 1_555 1_555
C26_2 C25_2 1_555 1_555
C27_2 C26_2 1_555 1_555
H13_2 C27_2 1_555 1_555
C28_2 C27_2 1_555 1_555
H14_2 C28_2 1_555 1_555
C29_2 C30_2 1_555 1_555
C30_2 C26_2 1_555 1_555
H15_2 C30_2 1_555 1_555
O15_2 Eu9 1_555 1_555
O20 C31_2 1_555 1_555
C31_2 C32_2 1_555 1_555
C32_2 C33_2 1_555 1_555
C33_2 H16_2 1_555 1_555
C34_2 C29_2 1_555 1_555
H17_2 C34_2 1_555 1_555
C35_2 C28_2 1_555 1_555
C36_2 C32_2 1_555 1_555
H18_2 C36_2 1_555 1_555
O23 C31_2 1_555 1_555
C9_2 C10_2 1_555 1_555
O9_2 Eu9 1_555 1_555
C21_2 C22_2 1_555 1_555
O14_2 C25_2 1_555 1_555
C29_2 C35_2 1_555 1_555
C33_2 C34_2 1_555 1_555
C35_2 C36_2 1_555 1_555
O5_4 H25_4 1_555 1_555
O5_4 H26_4 1_555 1_555
H7_2 C15_2 1_555 1_555
C16_2 C15_2 1_555 1_555
H8_2 C16_2 1_555 1_555
O19 C19_2 1_555 1_555
C19_2 C20_2 1_555 1_555
C23_2 C16_2 1_555 1_555
C24_2 C20_2 1_555 1_555
H12_2 C24_2 1_555 1_555
O22 C19_2 1_555 1_555
C23_2 C24_2 1_555 1_555
O5_5 H25_5 1_555 1_555
O5_5 H26_5 1_555 1_555
O5_6 H25_6 1_555 1_555
O5_6 H26_6 1_555 1_555
O5_7 Eu5 1_555 1_555
O5_7 H25_7 1_555 1_555
O5_7 H26_7 1_555 1_555
O5_8 H25_8 1_555 1_555
O5_8 H26_8 1_555 1_555
O5_9 H25_9 1_555 1_555
O5_9 H26_9 1_555 1_555
O5_10 Eu1 1_555 1_555
O5_10 H25_10 1_555 1_555
O5_10 H26_10 1_555 1_555
O5_11 H25_11 1_555 1_555
O5_11 H26_11 1_555 1_555
O5_12 H25_12 1_555 1_555
O5_12 H26_12 1_555 1_555

#END
