
###############################################################################
#
# This file contains modified crystal structure data generated from the
# MOF subset of the Cambridge Structural Database (CSD) v543 
# hosted by the Cambridge Crystallographic Data Centre (CCDC).
#
# This work is licensed under the Creative Commons
# Attribution-NonCommercial-ShareAlike 4.0 International License.
# To view a copy of this license, visit
# http://creativecommons.org/licenses/by-nc-sa/4.0/
# or send a letter to
# Creative Commons, PO Box 1866, Mountain View, CA 94042, USA.
#
# CIF created using the CSD Python API on 29 September 2022
# The structure has been converted into the P1 space group
# The structure has a 3D framework
# The original CSD entry NUMMOX is in the hexagonal crystal system
# The original CSD entry NUMMOX is in a Sohncke space group
# The framework has been calculated to contain at least 10.0% void space
# The void calculation uses a probe of radius 1.32A, grid spacing 0.4
#
###############################################################################

data_NUMMOX
_chemical_formula_moiety         '(C24 H30 Hg7 N6 O23)n'
_symmetry_cell_setting           triclinic
_symmetry_space_group_name_H-M   'P 1'
_symmetry_Int_Tables_number      1
_space_group_name_Hall           'P 1'
loop_
_symmetry_equiv_pos_site_id
_symmetry_equiv_pos_as_xyz
1 x,y,z
_cell_length_a                   13.669(2)
_cell_length_b                   13.669(2)
_cell_length_c                   7.031(1)
_cell_angle_alpha                90
_cell_angle_beta                 90
_cell_angle_gamma                120
_cell_volume                     1137.68
loop_
_atom_site_label
_atom_site_type_symbol
_atom_site_fract_x
_atom_site_fract_y
_atom_site_fract_z
Hg1 Hg 0.39986(11) 0.57545(12) 0.00000
O1 O 0.0301(24) 0.4786(23) 0.9247(29)
O3 O 0.2876(26) 0.5877(27) 0.3709(26)
O4 O 0.2454(21) 0.4606(22) 0.1418(28)
N1 N 0.1171(26) 0.4216(26) 0.6058(30)
H1 H 0.1709(26) 0.4021(26) 0.6678(30)
C2 C 0.0081(31) 0.3480(30) 0.6877(32)
H2 H 0.0026(31) 0.2737(30) 0.7157(32)
C3 C 0.2295(27) 0.4916(30) 0.2971(25)
C4 C 0.1205(29) 0.4013(30) 0.4009(33)
H4 H 0.0556(29) 0.4040(30) 0.3406(33)
H5 H 0.1091(29) 0.3240(30) 0.3783(33)
O5 O 0.2152(30) 0.7546(21) 0.8085(28)
Hg2 Hg 0.17559(16) 0.60014(11) 0.66667
O6 O 0.1172(28) 0.6944(27) 0.4337(32)
Hg1_2 Hg 0.39986(11) 0.57545(12) 1.00000
O2 O 0.8828(28) 0.3056(27) 0.9337(32)
C1 C 0.9764(31) 0.3833(31) 0.8588(36)
H3 H 0.9516(31) 0.3350(30) 0.5863(32)
O2_2 O 0.5772(39) 0.8828(28) 0.1004(32)
C1_2 C 0.5931(44) 0.9764(31) 0.0255(36)
Hg3 Hg 0.42455(19) 0.82441(16) 0.33333
O1_2 O 0.5214(23) 0.5515(33) 0.2580(29)
O2_3 O 0.6944(27) 0.5772(39) 0.2670(32)
H1_2 H 0.5979(26) 0.7688(37) 0.0011(30)
C1_3 C 0.6167(31) 0.5931(44) 0.1921(36)
C2_2 C 0.6520(30) 0.6601(43) 0.0210(32)
H2_2 H 0.7263(30) 0.7289(43) 0.0490(32)
Hg3_2 Hg 0.60014(11) 0.42455(19) 0.50000
O3_2 O 0.4123(27) 0.6999(37) 0.7042(26)
O4_2 O 0.5394(22) 0.7848(30) 0.4751(28)
N1_2 N 0.5784(26) 0.6955(37) 0.9391(30)
H3_2 H 0.6650(30) 0.6166(43) 0.9196(32)
C3_2 C 0.5084(30) 0.7379(40) 0.6304(25)
C4_2 C 0.5987(30) 0.7192(42) 0.7342(33)
H4_2 H 0.5960(30) 0.6516(42) 0.6739(33)
H5_2 H 0.6760(30) 0.7851(42) 0.7116(33)
O6_2 O 0.3056(27) 0.4228(39) 0.7670(32)
C1_4 C 0.0236(31) 0.6167(31) 0.3588(36)
H3_3 H 0.0484(31) 0.6650(30) 0.0863(32)
O3_3 O 0.7124(26) 0.4123(27) 0.8709(26)
O4_3 O 0.7546(21) 0.5394(22) 0.6418(28)
C3_3 C 0.7705(27) 0.5084(30) 0.7971(25)
C4_3 C 0.8795(29) 0.5987(30) 0.9009(33)
H4_3 H 0.9444(29) 0.5960(30) 0.8406(33)
H5_3 H 0.8909(29) 0.6760(30) 0.8783(33)
O1_3 O 0.4485(33) 0.9699(24) 0.5914(29)
O3_4 O 0.3001(37) 0.7124(26) 0.0376(26)
N1_3 N 0.3045(37) 0.8829(26) 0.2725(30)
H1_3 H 0.2312(37) 0.8291(26) 0.3345(30)
C2_3 C 0.3399(43) 0.9919(31) 0.3544(32)
H2_3 H 0.2711(43) 0.9974(31) 0.3824(32)
C4_4 C 0.2808(42) 0.8795(29) 0.0676(33)
H4_4 H 0.3484(42) 0.9444(29) 0.0073(33)
H5_4 H 0.2149(42) 0.8909(29) 0.0450(33)
C3_4 C 0.2621(40) 0.7705(27) 0.9638(25)
O1_4 O 0.4786(23) 0.4485(33) 0.7580(29)
O3_5 O 0.5877(27) 0.3001(37) 0.2042(26)
N1_4 N 0.4216(26) 0.3045(37) 0.4391(30)
H1_4 H 0.4021(26) 0.2312(37) 0.5011(30)
C1_5 C 0.3833(31) 0.4069(44) 0.6921(36)
C2_4 C 0.3480(30) 0.3399(43) 0.5210(32)
H2_4 H 0.2737(30) 0.2711(43) 0.5490(32)
H3_4 H 0.3350(30) 0.3834(43) 0.4196(32)
C3_5 C 0.4916(30) 0.2621(40) 0.1304(25)
C4_5 C 0.4013(30) 0.2808(42) 0.2342(33)
H4_5 H 0.4040(30) 0.3484(42) 0.1739(33)
H5_5 H 0.3240(30) 0.2149(42) 0.2116(33)
Hg3_3 Hg 0.82441(16) 0.39986(11) 0.16667
O3_6 O 0.6999(37) 0.2876(26) 0.5376(26)
O4_4 O 0.7848(30) 0.2454(21) 0.3085(28)
N1_5 N 0.6955(37) 0.1171(26) 0.7725(30)
H1_5 H 0.7688(37) 0.1709(26) 0.8345(30)
C2_5 C 0.6601(43) 0.0081(31) 0.8544(32)
H2_5 H 0.7289(43) 0.0026(31) 0.8824(32)
C3_6 C 0.7379(40) 0.2295(27) 0.4638(25)
C4_6 C 0.7192(42) 0.1205(29) 0.5676(33)
H4_6 H 0.6516(42) 0.0556(29) 0.5073(33)
H5_6 H 0.7851(42) 0.1091(29) 0.5450(33)
O5_2 O 0.4606(37) 0.2152(30) 0.9751(28)
Hg2_2 Hg 0.57545(19) 0.17559(16) 0.83333
O6_3 O 0.4228(39) 0.1172(28) 0.6004(32)
O1_5 O 0.9699(24) 0.5214(23) 0.4247(29)
N1_6 N 0.8829(26) 0.5784(26) 0.1058(30)
H1_6 H 0.8291(26) 0.5979(26) 0.1678(30)
C2_6 C 0.9919(31) 0.6520(30) 0.1877(32)
H2_6 H 0.9974(31) 0.7263(30) 0.2157(32)
C1_6 C 0.4069(44) 0.0236(31) 0.5255(36)
H3_5 H 0.3834(43) 0.0484(31) 0.2530(32)
O1_6 O 0.5515(33) 0.0301(24) 0.0914(29)
H3_6 H 0.6166(43) 0.9516(31) 0.7530(32)
loop_
_geom_bond_atom_site_label_1
_geom_bond_atom_site_label_2
_geom_bond_site_symmetry_1
_geom_bond_site_symmetry_2
Hg1 O4 1_555 1_555
O3 C3 1_555 1_555
O4 C3 1_555 1_555
N1 H1 1_555 1_555
C2 N1 1_555 1_555
H2 C2 1_555 1_555
C3 C4 1_555 1_555
C4 N1 1_555 1_555
H4 C4 1_555 1_555
H5 C4 1_555 1_555
O5 Hg2 1_555 1_555
Hg2 O1 1_555 1_555
O6 Hg2 1_555 1_555
O3 Hg2 1_555 1_555
N1 Hg2 1_555 1_555
O2 C1 1_555 1_555
O2_2 C1_2 1_555 1_555
Hg3 O2_2 1_555 1_555
O1_2 C1_3 1_555 1_555
O2_3 C1_3 1_555 1_555
C1_3 C2_2 1_555 1_555
H2_2 C2_2 1_555 1_555
Hg1 O1_2 1_555 1_555
Hg3_2 O2_3 1_555 1_555
Hg3 O4_2 1_555 1_555
O3_2 C3_2 1_555 1_555
O4_2 C3_2 1_555 1_555
C3_2 C4_2 1_555 1_555
C4_2 N1_2 1_555 1_555
H4_2 C4_2 1_555 1_555
H5_2 C4_2 1_555 1_555
O6_2 Hg1_2 1_555 1_555
O3_2 Hg1_2 1_555 1_555
N1_2 Hg1_2 1_555 1_555
O6 C1_4 1_555 1_555
Hg3_2 O4_3 1_555 1_555
O3_3 C3_3 1_555 1_555
O4_3 C3_3 1_555 1_555
C3_3 C4_3 1_555 1_555
H4_3 C4_3 1_555 1_555
H5_3 C4_3 1_555 1_555
N1_3 H1_3 1_555 1_555
C2_3 N1_3 1_555 1_555
H2_3 C2_3 1_555 1_555
C4_4 N1_3 1_555 1_555
H4_4 C4_4 1_555 1_555
H5_4 C4_4 1_555 1_555
Hg3 O1_3 1_555 1_555
O3_4 Hg3 1_555 1_555
N1_3 Hg3 1_555 1_555
O5 C3_4 1_555 1_555
O1_4 C1_5 1_555 1_555
O6_2 C1_5 1_555 1_555
O3_5 C3_5 1_555 1_555
N1_4 H1_4 1_555 1_555
C1_5 C2_4 1_555 1_555
C2_4 N1_4 1_555 1_555
H2_4 C2_4 1_555 1_555
H3_4 C2_4 1_555 1_555
C3_5 C4_5 1_555 1_555
C4_5 N1_4 1_555 1_555
H4_5 C4_5 1_555 1_555
H5_5 C4_5 1_555 1_555
Hg3_2 O1_4 1_555 1_555
O3_5 Hg3_2 1_555 1_555
N1_4 Hg3_2 1_555 1_555
Hg3_3 O4_4 1_555 1_555
O3_6 C3_6 1_555 1_555
O4_4 C3_6 1_555 1_555
N1_5 H1_5 1_555 1_555
C2_5 N1_5 1_555 1_555
H2_5 C2_5 1_555 1_555
C3_6 C4_6 1_555 1_555
C4_6 N1_5 1_555 1_555
H4_6 C4_6 1_555 1_555
H5_6 C4_6 1_555 1_555
O5_2 Hg2_2 1_555 1_555
O6_3 Hg2_2 1_555 1_555
O3_6 Hg2_2 1_555 1_555
N1_5 Hg2_2 1_555 1_555
N1_6 H1_6 1_555 1_555
C2_6 N1_6 1_555 1_555
H2_6 C2_6 1_555 1_555
Hg3_3 O1_5 1_555 1_555
N1_6 Hg3_3 1_555 1_555
O6_3 C1_6 1_555 1_555

#END
