
###############################################################################
#
# This file contains modified crystal structure data generated from the
# MOF subset of the Cambridge Structural Database (CSD) v543 
# hosted by the Cambridge Crystallographic Data Centre (CCDC).
#
# This work is licensed under the Creative Commons
# Attribution-NonCommercial-ShareAlike 4.0 International License.
# To view a copy of this license, visit
# http://creativecommons.org/licenses/by-nc-sa/4.0/
# or send a letter to
# Creative Commons, PO Box 1866, Mountain View, CA 94042, USA.
#
# CIF created using the CSD Python API on 29 September 2022
# The structure has been converted into the P1 space group
# The structure has a 3D framework
# The original CSD entry NUPKAN is in the triclinic crystal system
# The framework has been calculated to contain at least 10.0% void space
# The void calculation uses a probe of radius 1.32A, grid spacing 0.4
#
###############################################################################

data_NUPKAN
_chemical_formula_moiety         '(C18 H8 Ca2 O12)n'
_symmetry_cell_setting           triclinic
_symmetry_space_group_name_H-M   'P 1'
_symmetry_Int_Tables_number      1
_space_group_name_Hall           'P 1'
loop_
_symmetry_equiv_pos_site_id
_symmetry_equiv_pos_as_xyz
1 x,y,z
_cell_length_a                   6.821143
_cell_length_b                   9.294042
_cell_length_c                   9.897172
_cell_angle_alpha                101.7602
_cell_angle_beta                 99.148
_cell_angle_gamma                112.7765
_cell_volume                     546.349
loop_
_atom_site_label
_atom_site_type_symbol
_atom_site_fract_x
_atom_site_fract_y
_atom_site_fract_z
_atom_site_U_iso_or_equiv
_atom_site_thermal_displace_type
Ca3 Ca 0.3000(22) 0.5688(14) 0.1010(13) 0.0240 Uiso
O1 O 0.333(4) 0.5520(21) 0.3460(21) 0.0370 Uiso
O2 O 0.020(4) 0.3832(30) 0.8924(27) 0.0370 Uiso
O4 O 0.360(3) 0.451(4) 0.8786(24) 0.0370 Uiso
O6 O 0.112(5) 0.3377(27) 0.1673(15) 0.0370 Uiso
C1 C 0.108(6) 0.3130(28) 0.4079(15) 0.1660 Uiso
C2 C 0.073(5) 0.3086(20) 0.6464(15) 0.1660 Uiso
C6 C 0.207(3) 0.4022(20) 0.3002(16) 0.0570 Uiso
C7 C 0.158(3) 0.3936(28) 0.8188(20) 0.0570 Uiso
C8 C 0.176(11) 0.390(4) 0.5551(15) 0.1660 Uiso
H4 H 0.29(8) 0.49(4) 0.593(9) 0.3000 Uiso
Ca5 Ca 0.7000(22) 0.4312(14) 0.8990(13) 0.0240 Uiso
O10 O 0.640(3) 0.549(4) 0.1214(24) 0.0370 Uiso
O11 O 0.490(4) 0.8558(30) 0.2504(24) 0.0370 Uiso
C3 C 0.934(7) 0.161(4) 0.3532(16) 0.1660 Uiso
H2 H 0.894(29) 0.107(14) 0.255(5) 0.3000 Uiso
C5 C 0.911(8) 0.1494(28) 0.5909(18) 0.1660 Uiso
H3 H 0.84(7) 0.096(25) 0.651(12) 0.3000 Uiso
C9 C 0.833(5) 0.0799(27) 0.4430(18) 0.1660 Uiso
O8 O 0.980(4) 0.6168(30) 0.1076(27) 0.0370 Uiso
O3 O 0.595(6) 0.7910(25) 0.4412(21) 0.0370 Uiso
H1 H 0.57(10) 0.697(21) 0.404(20) 0.3000 Uiso
C4 C 0.627(4) 0.8906(26) 0.3694(24) 0.0570 Uiso
O3_2 O 0.405(6) 0.2090(25) 0.5588(21) 0.0370 Uiso
H1_2 H 0.43(10) 0.303(21) 0.596(20) 0.3000 Uiso
O5 O 0.510(4) 0.1442(30) 0.7496(24) 0.0370 Uiso
C4_2 C 0.373(4) 0.1094(26) 0.6306(24) 0.0570 Uiso
C3_2 C 0.066(7) 0.839(4) 0.6468(16) 0.1660 Uiso
H2_2 H 0.106(29) 0.893(14) 0.745(5) 0.3000 Uiso
C5_2 C 0.089(8) 0.8506(28) 0.4091(18) 0.1660 Uiso
H3_2 H 0.16(7) 0.904(25) 0.349(12) 0.3000 Uiso
C9_2 C 0.167(5) 0.9201(27) 0.5570(18) 0.1660 Uiso
O1_2 O 0.667(4) 0.4480(21) 0.6540(21) 0.0370 Uiso
O6_2 O 0.888(5) 0.6623(27) 0.8327(15) 0.0370 Uiso
C1_2 C 0.892(6) 0.6870(28) 0.5921(15) 0.1660 Uiso
C2_2 C 0.927(5) 0.6914(20) 0.3536(15) 0.1660 Uiso
C6_2 C 0.793(3) 0.5978(20) 0.6998(16) 0.0570 Uiso
C7_2 C 0.842(3) 0.6064(28) 0.1812(20) 0.0570 Uiso
C8_2 C 0.824(11) 0.610(4) 0.4449(15) 0.1660 Uiso
H4_2 H 0.71(8) 0.51(4) 0.407(9) 0.3000 Uiso
loop_
_geom_bond_atom_site_label_1
_geom_bond_atom_site_label_2
_geom_bond_site_symmetry_1
_geom_bond_site_symmetry_2
Ca3 O1 1_555 1_555
O1 C6 1_555 1_555
O2 C7 1_555 1_555
O4 C7 1_555 1_555
O6 Ca3 1_555 1_555
C6 O6 1_555 1_555
C7 C2 1_555 1_555
C8 C1 1_555 1_555
H4 C8 1_555 1_555
Ca5 O4 1_555 1_555
O10 Ca3 1_555 1_555
O11 Ca3 1_555 1_555
C1 C6 1_555 1_555
C2 C8 1_555 1_555
C3 H2 1_555 1_555
C5 H3 1_555 1_555
C9 C3 1_555 1_555
C5 C9 1_555 1_555
O3 H1 1_555 1_555
O11 C4 1_555 1_555
C4 O3 1_555 1_555
O3_2 H1_2 1_555 1_555
O5 C4_2 1_555 1_555
C4_2 O3_2 1_555 1_555
Ca5 O5 1_555 1_555
C3_2 H2_2 1_555 1_555
C5_2 H3_2 1_555 1_555
C9_2 C3_2 1_555 1_555
C5_2 C9_2 1_555 1_555
Ca5 O1_2 1_555 1_555
O1_2 C6_2 1_555 1_555
O8 C7_2 1_555 1_555
O10 C7_2 1_555 1_555
O6_2 Ca5 1_555 1_555
C6_2 O6_2 1_555 1_555
C7_2 C2_2 1_555 1_555
C8_2 C1_2 1_555 1_555
H4_2 C8_2 1_555 1_555
C1_2 C6_2 1_555 1_555
C2_2 C8_2 1_555 1_555

#END
