
###############################################################################
#
# This file contains modified crystal structure data generated from the
# MOF subset of the Cambridge Structural Database (CSD) v543 
# hosted by the Cambridge Crystallographic Data Centre (CCDC).
#
# This work is licensed under the Creative Commons
# Attribution-NonCommercial-ShareAlike 4.0 International License.
# To view a copy of this license, visit
# http://creativecommons.org/licenses/by-nc-sa/4.0/
# or send a letter to
# Creative Commons, PO Box 1866, Mountain View, CA 94042, USA.
#
# CIF created using the CSD Python API on 29 September 2022
# The structure has been converted into the P1 space group
# The structure has a 3D framework
# The original CSD entry NURSIF is in the monoclinic crystal system
# The framework has been calculated to contain at least 10.0% void space
# The void calculation uses a probe of radius 1.32A, grid spacing 0.4
#
###############################################################################

data_NURSIF
_chemical_formula_moiety         '(C48 H64 Cu16 N32 O36)n'
_symmetry_cell_setting           triclinic
_symmetry_space_group_name_H-M   'P 1'
_symmetry_Int_Tables_number      1
_space_group_name_Hall           'P 1'
loop_
_symmetry_equiv_pos_site_id
_symmetry_equiv_pos_as_xyz
1 x,y,z
_cell_length_a                   8.0789(5)
_cell_length_b                   17.0871(6)
_cell_length_c                   17.6377(6)
_cell_angle_alpha                90
_cell_angle_beta                 102.180(2)
_cell_angle_gamma                90
_cell_volume                     2379.99
loop_
_atom_site_label
_atom_site_type_symbol
_atom_site_fract_x
_atom_site_fract_y
_atom_site_fract_z
Cu1 Cu 0.49486(7) 0.20874(4) 0.21581(3)
Cu2 Cu 0.29737(6) 0.10484(3) 0.33190(3)
Cu4 Cu 0.08769(7) 0.07590(4) 0.70174(4)
N1 N 0.2913(4) 0.16571(19) 0.23997(17)
H1 H 0.253372 0.214361 0.260329
N2 N 0.6063(5) 0.1916(2) 0.3253(2)
N3 N 0.5116(5) 0.1597(2) 0.3734(2)
N4 N 0.7644(5) 0.1847(3) 0.4442(2)
N8 N 0.1109(5) 0.1008(2) 0.5965(2)
H2 H 0.194107 0.142325 0.613530
O1 O 0.6162(7) 0.1009(3) 0.1656(3)
H3 H 0.685430 0.070880 0.194990
H4 H 0.593510 0.091560 0.117160
O2 O 0.2435(12) 0.1750(6) 0.7830(5)
H5 H 0.195810 0.217590 0.791230
H6 H 0.346050 0.168370 0.806150
O3 O 0.3464(4) 0.2281(2) 0.11459(18)
O4 O 0.0849(4) 0.2103(2) 0.04715(19)
O5 O 0.0859(4) 0.0531(2) 0.28919(19)
O7 O 0.3063(4) 0.0592(2) 0.43508(18)
O8 O 0.1009(4) 0.1367(2) 0.45409(18)
O9 O 0.2970(5) 0.0168(3) 0.7219(2)
O10 O 0.5566(5) 0.0002(3) 0.7130(2)
C1 C 0.1980(6) 0.2022(3) 0.1063(3)
C2 C 0.1533(6) 0.1593(3) 0.1758(3)
H7 H 0.053798 0.184234 0.188915
C3 C 0.1129(8) 0.0745(3) 0.1559(3)
H8 H 0.213635 0.049073 0.146089
H9 H 0.026649 0.072077 0.108435
C4 C 0.0510(6) 0.0299(3) 0.2191(3)
C5 C 0.6116(6) 0.1567(3) 0.4436(3)
H10 H 0.578062 0.137136 0.487195
C6 C 0.7575(6) 0.2051(3) 0.3693(3)
H11 H 0.847966 0.226102 0.351123
C9 C 0.2111(6) 0.0860(3) 0.4765(3)
C10 C 0.2261(8) 0.0552(5) 0.5581(3)
H14 H 0.190457 0.000237 0.555236
C11 C 0.3928(10) 0.0604(6) 0.6055(4)
H15 H 0.423541 0.115255 0.612448
H16 H 0.471660 0.035957 0.578278
C12 C 0.4139(7) 0.0221(3) 0.6863(3)
Cu7 Cu 0.96445(7) 0.16589(3) 0.52915(3)
N10 N 0.6745(5) 0.2760(2) 0.1888(2)
O11 O 0.0849(4) 0.2897(2) 0.54715(19)
O13 O 0.0322(4) 0.0317(2) 0.79860(19)
Cu6 Cu 0.70263(6) 0.89516(3) 0.66810(3)
O14 O 0.4434(5) 0.9998(3) 0.2870(2)
N5 N 0.8407(5) 0.1833(2) 0.6129(2)
N6 N 0.8820(5) 0.1428(2) 0.6811(2)
N7 N 0.6745(5) 0.2240(2) 0.6888(2)
C7 C 0.7802(6) 0.1681(3) 0.7240(3)
H12 H 0.780587 0.149377 0.773521
C8 C 0.7177(5) 0.2305(3) 0.6196(3)
H13 H 0.665796 0.264773 0.580834
Cu5 Cu 0.49486(7) 0.29126(4) 0.71581(3)
Cu8 Cu 0.96445(7) 0.33411(3) 0.02915(3)
O6 O 0.9678(4) 0.9683(2) 0.20140(19)
Cu9 Cu 0.91231(7) 0.92410(4) 0.29826(4)
O12 O 0.9141(4) 0.9469(2) 0.71081(19)
O6_2 O 0.0322(4) 0.4683(2) 0.29860(19)
Cu8_2 Cu 0.03555(7) 0.83411(3) 0.47085(3)
Cu9_2 Cu 0.08769(7) 0.42410(4) 0.20174(4)
N9 N 0.2356(5) 0.6847(3) 0.0558(2)
Cu3 Cu 0.03555(7) 0.66589(3) 0.97085(3)
N5_2 N 0.1593(5) 0.6833(2) 0.8871(2)
N6_2 N 0.1180(5) 0.6428(2) 0.8189(2)
N7_2 N 0.3255(5) 0.7240(2) 0.8112(2)
C7_2 C 0.2198(6) 0.6681(3) 0.7760(3)
H12_2 H 0.219413 0.649377 0.726479
C8_2 C 0.2823(5) 0.7305(3) 0.8804(3)
H13_2 H 0.334204 0.764773 0.919166
Cu5_2 Cu 0.50514(7) 0.79126(4) 0.78419(3)
O12_2 O 0.0859(4) 0.4469(2) 0.78919(19)
Cu1_2 Cu 0.50514(7) 0.70874(4) 0.28419(3)
Cu2_2 Cu 0.70263(6) 0.60484(3) 0.16810(3)
N1_2 N 0.7087(4) 0.66571(19) 0.26003(17)
H1_2 H 0.746628 0.714361 0.239671
N2_2 N 0.3937(5) 0.6916(2) 0.1747(2)
N3_2 N 0.4884(5) 0.6597(2) 0.1266(2)
O1_2 O 0.3838(7) 0.6009(3) 0.3344(3)
H3_2 H 0.314570 0.570880 0.305010
H4_2 H 0.406490 0.591560 0.382840
O3_2 O 0.6536(4) 0.7281(2) 0.38541(18)
O4_2 O 0.9151(4) 0.7103(2) 0.45285(19)
O5_2 O 0.9141(4) 0.5531(2) 0.21081(19)
O7_2 O 0.6937(4) 0.5592(2) 0.06492(18)
O8_2 O 0.8991(4) 0.6367(2) 0.04591(18)
C1_2 C 0.8020(6) 0.7022(3) 0.3937(3)
C2_2 C 0.8467(6) 0.6593(3) 0.3242(3)
H7_2 H 0.946202 0.684234 0.311085
C3_2 C 0.8871(8) 0.5745(3) 0.3441(3)
H8_2 H 0.786365 0.549073 0.353911
H9_2 H 0.973351 0.572077 0.391565
C4_2 C 0.9490(6) 0.5299(3) 0.2809(3)
C5_2 C 0.3884(6) 0.6567(3) 0.0564(3)
H10_2 H 0.421938 0.637136 0.012805
C6_2 C 0.2425(6) 0.7051(3) 0.1307(3)
H11_2 H 0.152034 0.726102 0.148877
C9_2 C 0.7889(6) 0.5860(3) 0.0235(3)
N10_2 N 0.3255(5) 0.7760(2) 0.3112(2)
O14_2 O 0.5566(5) 0.4998(3) 0.2130(2)
Cu4_2 Cu 0.91231(7) 0.57590(4) 0.79826(4)
N8_2 N 0.8891(5) 0.6008(2) 0.9035(2)
H2_2 H 0.805893 0.642325 0.886470
O2_2 O 0.7565(12) 0.6750(6) 0.7170(5)
H5_2 H 0.804190 0.717590 0.708770
H6_2 H 0.653950 0.668370 0.693850
O9_2 O 0.7030(5) 0.5168(3) 0.7781(2)
O10_2 O 0.4434(5) 0.5002(3) 0.7870(2)
C10_2 C 0.7739(8) 0.5552(5) 0.9419(3)
H14_2 H 0.809543 0.500237 0.944764
C11_2 C 0.6072(10) 0.5604(6) 0.8945(4)
H15_2 H 0.576459 0.615255 0.887552
H16_2 H 0.528340 0.535957 0.921722
C12_2 C 0.5861(7) 0.5221(3) 0.8137(3)
Cu6_2 Cu 0.29737(6) 0.39516(3) 0.83190(3)
O11_2 O 0.9151(4) 0.7897(2) 0.95285(19)
O13_2 O 0.9678(4) 0.5317(2) 0.70140(19)
N5_3 N 0.1593(5) 0.8167(2) 0.3871(2)
N6_3 N 0.1180(5) 0.8572(2) 0.3189(2)
C7_3 C 0.2198(6) 0.8319(3) 0.2760(3)
H12_3 H 0.219413 0.850623 0.226479
C8_3 C 0.2823(5) 0.7695(3) 0.3804(3)
H13_3 H 0.334204 0.735227 0.419166
N9_2 N 0.2356(5) 0.8153(3) 0.5558(2)
N1_3 N 0.7087(4) 0.83429(19) 0.76003(17)
H1_3 H 0.746628 0.785639 0.739671
N2_3 N 0.3937(5) 0.8084(2) 0.6747(2)
N3_3 N 0.4884(5) 0.8403(2) 0.6266(2)
N8_3 N 0.8891(5) 0.8992(2) 0.4035(2)
H2_3 H 0.805893 0.857675 0.386470
O1_3 O 0.3838(7) 0.8991(3) 0.8344(3)
H3_3 H 0.314570 0.929120 0.805010
H4_3 H 0.406490 0.908440 0.882840
O2_3 O 0.7565(12) 0.8250(6) 0.2170(5)
H5_3 H 0.804190 0.782410 0.208770
H6_3 H 0.653950 0.831630 0.193850
O3_3 O 0.6536(4) 0.7719(2) 0.88541(18)
O7_3 O 0.6937(4) 0.9408(2) 0.56492(18)
O8_3 O 0.8991(4) 0.8633(2) 0.54591(18)
O9_3 O 0.7030(5) 0.9832(3) 0.2781(2)
C1_3 C 0.8020(6) 0.7978(3) 0.8937(3)
C2_3 C 0.8467(6) 0.8407(3) 0.8242(3)
H7_3 H 0.946202 0.815766 0.811085
C3_3 C 0.8871(8) 0.9255(3) 0.8441(3)
H8_3 H 0.786365 0.950927 0.853911
H9_3 H 0.973351 0.927923 0.891565
C4_3 C 0.9490(6) 0.9701(3) 0.7809(3)
C5_3 C 0.3884(6) 0.8433(3) 0.5564(3)
H10_3 H 0.421938 0.862864 0.512805
C6_3 C 0.2425(6) 0.7949(3) 0.6307(3)
H11_3 H 0.152034 0.773898 0.648877
C9_3 C 0.7889(6) 0.9140(3) 0.5235(3)
C10_3 C 0.7739(8) 0.9448(5) 0.4419(3)
H14_3 H 0.809543 0.999763 0.444764
C11_3 C 0.6072(10) 0.9396(6) 0.3945(4)
H15_3 H 0.576459 0.884745 0.387552
H16_3 H 0.528340 0.964043 0.421722
C12_3 C 0.5861(7) 0.9779(3) 0.3137(3)
N8_4 N 0.1109(5) 0.3992(2) 0.0965(2)
H2_4 H 0.194107 0.357675 0.113530
O2_4 O 0.2435(12) 0.3250(6) 0.2830(5)
H5_4 H 0.195810 0.282410 0.291230
H6_4 H 0.346050 0.331630 0.306150
O9_4 O 0.2970(5) 0.4832(3) 0.2219(2)
C10_4 C 0.2261(8) 0.4448(5) 0.0581(3)
H14_4 H 0.190457 0.499763 0.055236
C11_4 C 0.3928(10) 0.4396(6) 0.1055(4)
H15_4 H 0.423541 0.384745 0.112448
H16_4 H 0.471660 0.464043 0.078278
C12_4 C 0.4139(7) 0.4779(3) 0.1863(3)
N1_4 N 0.2913(4) 0.33429(19) 0.73997(17)
H1_4 H 0.253372 0.285639 0.760329
N2_4 N 0.6063(5) 0.3084(2) 0.8253(2)
N3_4 N 0.5116(5) 0.3403(2) 0.8734(2)
N4_2 N 0.7644(5) 0.3153(3) 0.9442(2)
O1_4 O 0.6162(7) 0.3991(3) 0.6656(3)
H3_4 H 0.685430 0.429120 0.694990
H4_4 H 0.593510 0.408440 0.617160
O3_4 O 0.3464(4) 0.2719(2) 0.61459(18)
O7_4 O 0.3063(4) 0.4408(2) 0.93508(18)
O8_4 O 0.1009(4) 0.3633(2) 0.95409(18)
C1_4 C 0.1980(6) 0.2978(3) 0.6063(3)
C2_4 C 0.1533(6) 0.3407(3) 0.6758(3)
H7_4 H 0.053798 0.315766 0.688915
C3_4 C 0.1129(8) 0.4255(3) 0.6559(3)
H8_4 H 0.213635 0.450927 0.646089
H9_4 H 0.026649 0.427923 0.608435
C4_4 C 0.0510(6) 0.4701(3) 0.7191(3)
C5_4 C 0.6116(6) 0.3433(3) 0.9436(3)
H10_4 H 0.578062 0.362864 0.987195
C6_4 C 0.7575(6) 0.2949(3) 0.8693(3)
H11_4 H 0.847966 0.273898 0.851123
C9_4 C 0.2111(6) 0.4140(3) 0.9765(3)
N5_4 N 0.8407(5) 0.3167(2) 0.1129(2)
N6_4 N 0.8820(5) 0.3572(2) 0.1811(2)
C7_4 C 0.7802(6) 0.3319(3) 0.2240(3)
H12_4 H 0.780587 0.350623 0.273521
C8_4 C 0.7177(5) 0.2695(3) 0.1196(3)
H13_4 H 0.665796 0.235227 0.080834
loop_
_geom_bond_atom_site_label_1
_geom_bond_atom_site_label_2
_geom_bond_site_symmetry_1
_geom_bond_site_symmetry_2
Cu1 N1 1_555 1_555
Cu2 N1 1_555 1_555
N1 H1 1_555 1_555
N2 Cu1 1_555 1_555
N3 Cu2 1_555 1_555
N4 C5 1_555 1_555
H2 N8 1_555 1_555
O1 Cu1 1_555 1_555
H3 O1 1_555 1_555
H4 O1 1_555 1_555
O2 Cu4 1_555 1_555
H5 O2 1_555 1_555
H6 O2 1_555 1_555
O3 Cu1 1_555 1_555
O4 C1 1_555 1_555
O5 Cu2 1_555 1_555
O7 Cu2 1_555 1_555
O9 Cu4 1_555 1_555
O10 C12 1_555 1_555
C1 O3 1_555 1_555
C2 N1 1_555 1_555
H7 C2 1_555 1_555
C3 C2 1_555 1_555
H8 C3 1_555 1_555
H9 C3 1_555 1_555
C4 O5 1_555 1_555
C5 N3 1_555 1_555
H10 C5 1_555 1_555
C6 N2 1_555 1_555
H11 C6 1_555 1_555
C9 O7 1_555 1_555
C10 N8 1_555 1_555
H14 C10 1_555 1_555
C11 C10 1_555 1_555
H15 C11 1_555 1_555
H16 C11 1_555 1_555
C12 O9 1_555 1_555
Cu7 N4 1_555 1_555
N10 Cu1 1_555 1_555
O13 Cu4 1_555 1_555
Cu4 N8 1_555 1_555
N2 N3 1_555 1_555
N4 C6 1_555 1_555
O8 C9 1_555 1_555
C1 C2 1_555 1_555
C3 C4 1_555 1_555
C9 C10 1_555 1_555
C11 C12 1_555 1_555
Cu7 N5 1_555 1_555
N5 N6 1_555 1_555
N6 C7 1_555 1_555
N7 C7 1_555 1_555
C7 H12 1_555 1_555
C8 N5 1_555 1_555
H13 C8 1_555 1_555
Cu5 N7 1_555 1_555
N7 C8 1_555 1_555
O6 Cu9 1_555 1_555
O6_2 Cu9_2 1_555 1_555
Cu3 N5_2 1_555 1_555
N5_2 N6_2 1_555 1_555
N6_2 C7_2 1_555 1_555
N7_2 C7_2 1_555 1_555
C7_2 H12_2 1_555 1_555
C8_2 N5_2 1_555 1_555
H13_2 C8_2 1_555 1_555
Cu5_2 N7_2 1_555 1_555
N7_2 C8_2 1_555 1_555
Cu1_2 N1_2 1_555 1_555
Cu2_2 N1_2 1_555 1_555
N1_2 H1_2 1_555 1_555
N2_2 Cu1_2 1_555 1_555
N3_2 Cu2_2 1_555 1_555
N9 C5_2 1_555 1_555
O1_2 Cu1_2 1_555 1_555
H3_2 O1_2 1_555 1_555
H4_2 O1_2 1_555 1_555
O3_2 Cu1_2 1_555 1_555
O4_2 C1_2 1_555 1_555
O5_2 Cu2_2 1_555 1_555
O7_2 Cu2_2 1_555 1_555
C1_2 O3_2 1_555 1_555
C2_2 N1_2 1_555 1_555
H7_2 C2_2 1_555 1_555
C3_2 C2_2 1_555 1_555
H8_2 C3_2 1_555 1_555
H9_2 C3_2 1_555 1_555
C4_2 O5_2 1_555 1_555
C5_2 N3_2 1_555 1_555
H10_2 C5_2 1_555 1_555
C6_2 N2_2 1_555 1_555
H11_2 C6_2 1_555 1_555
C9_2 O7_2 1_555 1_555
N10_2 Cu1_2 1_555 1_555
O14_2 Cu2_2 1_555 1_555
N2_2 N3_2 1_555 1_555
N9 C6_2 1_555 1_555
O8_2 C9_2 1_555 1_555
C1_2 C2_2 1_555 1_555
C3_2 C4_2 1_555 1_555
H2_2 N8_2 1_555 1_555
O2_2 Cu4_2 1_555 1_555
H5_2 O2_2 1_555 1_555
H6_2 O2_2 1_555 1_555
O9_2 Cu4_2 1_555 1_555
O10_2 C12_2 1_555 1_555
C10_2 N8_2 1_555 1_555
H14_2 C10_2 1_555 1_555
C11_2 C10_2 1_555 1_555
H15_2 C11_2 1_555 1_555
H16_2 C11_2 1_555 1_555
C12_2 O9_2 1_555 1_555
Cu6_2 O10_2 1_555 1_555
O13_2 Cu4_2 1_555 1_555
Cu4_2 N8_2 1_555 1_555
C11_2 C12_2 1_555 1_555
Cu8_2 N5_3 1_555 1_555
N5_3 N6_3 1_555 1_555
N6_3 C7_3 1_555 1_555
N10_2 C7_3 1_555 1_555
C7_3 H12_3 1_555 1_555
C8_3 N5_3 1_555 1_555
H13_3 C8_3 1_555 1_555
N9_2 Cu8_2 1_555 1_555
N10_2 C8_3 1_555 1_555
Cu5_2 N1_3 1_555 1_555
Cu6 N1_3 1_555 1_555
N1_3 H1_3 1_555 1_555
N2_3 Cu5_2 1_555 1_555
N3_3 Cu6 1_555 1_555
N9_2 C5_3 1_555 1_555
H2_3 N8_3 1_555 1_555
O1_3 Cu5_2 1_555 1_555
H3_3 O1_3 1_555 1_555
H4_3 O1_3 1_555 1_555
O2_3 Cu9 1_555 1_555
H5_3 O2_3 1_555 1_555
H6_3 O2_3 1_555 1_555
O3_3 Cu5_2 1_555 1_555
O11_2 C1_3 1_555 1_555
O12 Cu6 1_555 1_555
O7_3 Cu6 1_555 1_555
O9_3 Cu9 1_555 1_555
O14 C12_3 1_555 1_555
C1_3 O3_3 1_555 1_555
C2_3 N1_3 1_555 1_555
H7_3 C2_3 1_555 1_555
C3_3 C2_3 1_555 1_555
H8_3 C3_3 1_555 1_555
H9_3 C3_3 1_555 1_555
C4_3 O12 1_555 1_555
C5_3 N3_3 1_555 1_555
H10_3 C5_3 1_555 1_555
C6_3 N2_3 1_555 1_555
H11_3 C6_3 1_555 1_555
C9_3 O7_3 1_555 1_555
C10_3 N8_3 1_555 1_555
H14_3 C10_3 1_555 1_555
C11_3 C10_3 1_555 1_555
H15_3 C11_3 1_555 1_555
H16_3 C11_3 1_555 1_555
C12_3 O9_3 1_555 1_555
Cu9 N8_3 1_555 1_555
N2_3 N3_3 1_555 1_555
N9_2 C6_3 1_555 1_555
O8_3 C9_3 1_555 1_555
C1_3 C2_3 1_555 1_555
C3_3 C4_3 1_555 1_555
C9_3 C10_3 1_555 1_555
C11_3 C12_3 1_555 1_555
H2_4 N8_4 1_555 1_555
O2_4 Cu9_2 1_555 1_555
H5_4 O2_4 1_555 1_555
H6_4 O2_4 1_555 1_555
O9_4 Cu9_2 1_555 1_555
O14_2 C12_4 1_555 1_555
C10_4 N8_4 1_555 1_555
H14_4 C10_4 1_555 1_555
C11_4 C10_4 1_555 1_555
H15_4 C11_4 1_555 1_555
H16_4 C11_4 1_555 1_555
C12_4 O9_4 1_555 1_555
Cu9_2 N8_4 1_555 1_555
C11_4 C12_4 1_555 1_555
Cu5 N1_4 1_555 1_555
Cu6_2 N1_4 1_555 1_555
N1_4 H1_4 1_555 1_555
N2_4 Cu5 1_555 1_555
N3_4 Cu6_2 1_555 1_555
N4_2 C5_4 1_555 1_555
O1_4 Cu5 1_555 1_555
H3_4 O1_4 1_555 1_555
H4_4 O1_4 1_555 1_555
O3_4 Cu5 1_555 1_555
O11 C1_4 1_555 1_555
O12_2 Cu6_2 1_555 1_555
O7_4 Cu6_2 1_555 1_555
C1_4 O3_4 1_555 1_555
C2_4 N1_4 1_555 1_555
H7_4 C2_4 1_555 1_555
C3_4 C2_4 1_555 1_555
H8_4 C3_4 1_555 1_555
H9_4 C3_4 1_555 1_555
C4_4 O12_2 1_555 1_555
C5_4 N3_4 1_555 1_555
H10_4 C5_4 1_555 1_555
C6_4 N2_4 1_555 1_555
H11_4 C6_4 1_555 1_555
C9_4 O7_4 1_555 1_555
N2_4 N3_4 1_555 1_555
N4_2 C6_4 1_555 1_555
O8_4 C9_4 1_555 1_555
C1_4 C2_4 1_555 1_555
C3_4 C4_4 1_555 1_555
Cu8 N5_4 1_555 1_555
N5_4 N6_4 1_555 1_555
N6_4 C7_4 1_555 1_555
N10 C7_4 1_555 1_555
C7_4 H12_4 1_555 1_555
C8_4 N5_4 1_555 1_555
H13_4 C8_4 1_555 1_555
N10 C8_4 1_555 1_555

#END
