
###############################################################################
#
# This file contains modified crystal structure data generated from the
# MOF subset of the Cambridge Structural Database (CSD) v543 
# hosted by the Cambridge Crystallographic Data Centre (CCDC).
#
# This work is licensed under the Creative Commons
# Attribution-NonCommercial-ShareAlike 4.0 International License.
# To view a copy of this license, visit
# http://creativecommons.org/licenses/by-nc-sa/4.0/
# or send a letter to
# Creative Commons, PO Box 1866, Mountain View, CA 94042, USA.
#
# CIF created using the CSD Python API on 29 September 2022
# The structure has been converted into the P1 space group
# The structure has a 3D framework
# The original CSD entry NUVCUD is in the trigonal crystal system
# The original CSD entry NUVCUD is in a Sohncke space group
# The framework has been calculated to contain at least 10.0% void space
# The void calculation uses a probe of radius 1.32A, grid spacing 0.4
#
###############################################################################

data_NUVCUD
_chemical_formula_moiety         '(C12 H3 La5 N11 O14)n'
_symmetry_cell_setting           triclinic
_symmetry_space_group_name_H-M   'P 1'
_symmetry_Int_Tables_number      1
_space_group_name_Hall           'P 1'
loop_
_symmetry_equiv_pos_site_id
_symmetry_equiv_pos_as_xyz
1 x,y,z
_cell_length_a                   8.9410(5)
_cell_length_b                   8.9410(5)
_cell_length_c                   10.0260(5)
_cell_angle_alpha                90
_cell_angle_beta                 90
_cell_angle_gamma                120
_cell_volume                     694.114
loop_
_atom_site_label
_atom_site_type_symbol
_atom_site_fract_x
_atom_site_fract_y
_atom_site_fract_z
O2 O -0.0000 0.2491(3) 0.3333
La2 La 0.22551(4) 0.22551(4) 0.5000
H2 H 0.0655 0.3426 0.2921
N5 N 0.0761(3) -0.0001(3) 0.1667
La4 La -0.0000 0.77449(4) 0.8333
N5_2 N 0.0761(3) 0.9999(3) 0.1667
La1 La 0.77449(4) 0.0000 0.1667
O2_2 O 1.0000 0.2491(3) 0.3333
H1 H 0.9345 0.2771 0.3746
O5 O 0.8222(8) 0.2880(6) 0.0922(4)
O9 O 0.5916 0.0664(3) 0.3036
N4 N 0.9365(3) 0.1305(3) 0.9307
La1_2 La 0.77449(4) 1.0000 0.1667
O1 O 0.5342(5) 0.7120(6) 0.2411(4)
C1 C 0.5271 0.6258(3) 0.3417
N1 N 0.8060 0.8695(3) 0.4026
C2 C 0.6741 0.7141(3) 0.4376
N2 N 0.9238 0.9239(3) 0.5000
O3 O 0.4084 0.4748(3) 0.3631
La4_2 La 1.0000 0.77449(4) 0.8333
O4 O 0.7120(6) 0.5342(5) 0.7589(4)
O6 O 0.7509(3) 0.7509(3) -0.0000
H3 H 0.7229 0.6574 0.0413
C3 C 0.6258(3) 0.5271 0.6583
N3 N 0.8695(3) 0.8060 0.5974
C4 C 0.7141(3) 0.6741 0.5624
O7 O 0.4748(3) 0.4084 0.6369
O8 O 0.5252(3) 0.9336(3) 0.0298
O6_2 O 0.7509(3) 0.7509(3) 1.0000
H4 H 0.6574 0.7229 0.9587
O4_2 O 0.4658(5) 0.1778(8) 0.4256(4)
C3_2 C 0.4729 0.0987(3) 0.3250
N3_2 N 0.1940 0.0635(3) 0.2641
C4_2 C 0.3259 0.0400(3) 0.2291
O6_3 O 0.2491(3) 0.0000(4) 0.6666
H3_2 H 0.3426 0.0655 0.7079
N5_3 N 0.0001(3) 0.0762(4) 0.8333
C1_2 C 0.3742(3) 0.9013(3) 0.0084
N1_2 N 0.1305(3) 0.9365(3) 0.0693
C2_2 C 0.2859(3) 0.9600(3) 0.1043
O1_2 O 0.2880(6) 0.8222(8) 0.9078(4)
O6_4 O 0.2491(3) 1.0000(4) 0.6666
H4_2 H 0.2771 0.9345 0.6254
O8_2 O 0.0664(3) 0.5916(4) 0.6964
N5_4 N 1.0001(3) 0.0762(4) 0.8333
O9_2 O 0.9336(3) 0.5252(3) 0.9702
O1_3 O 0.1778(8) 0.4658(5) 0.5744(4)
C1_3 C 0.0987(3) 0.4729 0.6750
N1_3 N 0.0635(3) 0.1940 0.7359
C2_3 C 0.0400(3) 0.3259 0.7709
C3_3 C 0.9013(3) 0.3742(3) 0.9916
C4_3 C 0.9600(3) 0.2859(3) 0.8957
loop_
_geom_bond_atom_site_label_1
_geom_bond_atom_site_label_2
_geom_bond_site_symmetry_1
_geom_bond_site_symmetry_2
La2 O2 1_555 1_555
H2 O2 1_555 1_555
O2_2 La1 1_555 1_555
H1 O2_2 1_555 1_555
O5 La1 1_555 1_555
O9 La1 1_555 1_555
La1_2 O1 1_555 1_555
O1 C1 1_555 1_555
C1 C2 1_555 1_555
N1 La1_2 1_555 1_555
C2 N1 1_555 1_555
N2 N1 1_555 1_555
O3 C1 1_555 1_555
La2 O3 1_555 1_555
La4_2 O4 1_555 1_555
O4 C3 1_555 1_555
O6 La1_2 1_555 1_555
H3 O6 1_555 1_555
C3 C4 1_555 1_555
N3 N2 1_555 1_555
C4 C2 1_555 1_555
O7 La2 1_555 1_555
O8 La1_2 1_555 1_555
La4_2 N3 1_555 1_555
C3 O7 1_555 1_555
N3 C4 1_555 1_555
H4 O6_2 1_555 1_555
La2 O4_2 1_555 1_555
O4_2 C3_2 1_555 1_555
C3_2 C4_2 1_555 1_555
N3_2 N5 1_555 1_555
La2 N3_2 1_555 1_555
C3_2 O9 1_555 1_555
N3_2 C4_2 1_555 1_555
H3_2 O6_3 1_555 1_555
C1_2 C2_2 1_555 1_555
C2_2 N1_2 1_555 1_555
N5_2 N1_2 1_555 1_555
O8 C1_2 1_555 1_555
La4 O1_2 1_555 1_555
O6_4 La4 1_555 1_555
H4_2 O6_4 1_555 1_555
O8_2 La4 1_555 1_555
O6_2 La4_2 1_555 1_555
O9_2 La4_2 1_555 1_555
La2 O1_3 1_555 1_555
O1_3 C1_3 1_555 1_555
O6_3 La2 1_555 1_555
C1_3 C2_3 1_555 1_555
N1_3 La2 1_555 1_555
C2_3 N1_3 1_555 1_555
N5_3 N1_3 1_555 1_555
O8_2 C1_3 1_555 1_555
C3_3 C4_3 1_555 1_555
N4 N5_4 1_555 1_555
C3_3 O9_2 1_555 1_555
N4 C4_3 1_555 1_555

#END
