
###############################################################################
#
# This file contains modified crystal structure data generated from the
# MOF subset of the Cambridge Structural Database (CSD) v543 
# hosted by the Cambridge Crystallographic Data Centre (CCDC).
#
# This work is licensed under the Creative Commons
# Attribution-NonCommercial-ShareAlike 4.0 International License.
# To view a copy of this license, visit
# http://creativecommons.org/licenses/by-nc-sa/4.0/
# or send a letter to
# Creative Commons, PO Box 1866, Mountain View, CA 94042, USA.
#
# CIF created using the CSD Python API on 29 September 2022
# The structure has been converted into the P1 space group
# The structure has a 3D framework
# The original CSD entry NUVDAK is in the trigonal crystal system
# The original CSD entry NUVDAK is in a Sohncke space group
# The framework has been calculated to contain at least 10.0% void space
# The void calculation uses a probe of radius 1.32A, grid spacing 0.4
#
###############################################################################

data_NUVDAK
_chemical_formula_moiety         '(C12 H4 Ce5 N12 O15)n'
_symmetry_cell_setting           triclinic
_symmetry_space_group_name_H-M   'P 1'
_symmetry_Int_Tables_number      1
_space_group_name_Hall           'P 1'
loop_
_symmetry_equiv_pos_site_id
_symmetry_equiv_pos_as_xyz
1 x,y,z
_cell_length_a                   8.888(5)
_cell_length_b                   8.888(5)
_cell_length_c                   9.973(6)
_cell_angle_alpha                90
_cell_angle_beta                 90
_cell_angle_gamma                120
_cell_volume                     682.283
loop_
_atom_site_label
_atom_site_type_symbol
_atom_site_fract_x
_atom_site_fract_y
_atom_site_fract_z
N2 N 0.0743(7) 0.0743(7) 0.0000
Ce2 Ce -0.0000 0.22573(4) 0.3334
Ce4 Ce 0.77427(4) 0.77427(4) 0.0000
O4 O 0.5252(6) 0.5921(5) 0.1373(4)
C3 C 0.2856(7) 0.3260(7) 0.0623(5)
O7 O 0.2871(6) 0.4656(5) 0.2603(4)
C4 C 0.3760(7) 0.4757(7) 0.1592(5)
N3 N 0.1298(6) 0.1937(6) 0.0982(4)
Ce1 Ce 0.22573(4) 0.0000 0.6667
O1 O 0.5921(5) 0.5252(6) 0.8627(4)
C1 C 0.3260(7) 0.2856(7) 0.9377(5)
O2 O 0.4656(5) 0.2871(6) 0.7397(4)
C2 C 0.4757(7) 0.3760(7) 0.8408(5)
N1 N 0.1937(6) 0.1298(6) 0.9018(4)
N2_2 N 0.0743(7) 0.0743(7) 1.0000
Ce4_2 Ce 0.77427(4) 0.77427(4) 1.0000
O5 O 0.4748(6) 0.0669(8) 0.5294(4)
O9 O 0.2466(7) 0.2466(10) 0.5000
H2 H 0.2671 0.3371 0.5429
H3 H 0.3371 0.2671 0.4571
Ce1_2 Ce 0.22573(4) 1.0000 0.6667
O3 O -0.0000(7) 0.7534(7) 0.8333
O6 O 0.4079(5) 0.9331(8) 0.8040(4)
O8 O 0.1785(8) 0.7129(6) 0.5936(4)
H4 H 0.0700 0.7329 0.8763
N4 N 0.0639(8) 0.8702(6) 0.4315(4)
Ce2_2 Ce 1.0000 0.22573(4) 0.3334
N5 N 0.9257(7) 0.0000(10) 0.6667
O3_2 O 1.0000(7) 0.7534(7) 0.8333
H1 H 0.9300 0.6629 0.7904
N5_2 N 0.9257(7) 1.0000(10) 0.6667
O6_2 O 0.0669(8) 0.4748(9) 0.4706(4)
N5_3 N -0.0000(10) 0.9257(12) 0.3333
C1_2 C 0.7144(7) 0.0404(10) 0.6044(5)
O2_2 O 0.7129(6) 0.1785(8) 0.4064(4)
C2_2 C 0.6240(7) 0.0997(10) 0.5075(5)
N1_2 N 0.8702(6) 0.0639(8) 0.5685(4)
O5_2 O 0.9331(8) 0.4079(10) 0.1960(4)
O9_2 O 0.7534(10) -0.0000(12) 0.1666
H3_2 H 0.7329 0.0700 0.1237
C3_2 C 0.6740(7) 0.9596(10) 0.7290(5)
O7_2 O 0.5344(5) 0.8215(8) 0.9270(4)
O9_3 O 0.7534(10) 1.0000(12) 0.1666
H2_2 H 0.6629 0.9300 0.2096
C4_2 C 0.5243(7) 0.9003(10) 0.8259(5)
N3_2 N 0.8063(6) 0.9361(8) 0.7649(4)
N5_4 N 1.0000(10) 0.9257(12) 0.3333
C3_3 C 0.0404(10) 0.7144(7) 0.3956(5)
C4_3 C 0.0997(10) 0.6240(7) 0.4925(5)
C1_3 C 0.9596(10) 0.6740(7) 0.2710(5)
O2_3 O 0.8215(8) 0.5344(5) 0.0730(4)
C2_3 C 0.9003(10) 0.5243(7) 0.1741(5)
N1_3 N 0.9361(8) 0.8063(6) 0.2351(4)
loop_
_geom_bond_atom_site_label_1
_geom_bond_atom_site_label_2
_geom_bond_site_symmetry_1
_geom_bond_site_symmetry_2
Ce2 O7 1_555 1_555
O4 Ce4 1_555 1_555
O7 C4 1_555 1_555
C4 O4 1_555 1_555
N3 N2 1_555 1_555
Ce2 N3 1_555 1_555
C3 C4 1_555 1_555
C3 N3 1_555 1_555
Ce1 O2 1_555 1_555
O1 C2 1_555 1_555
C1 C2 1_555 1_555
O2 C2 1_555 1_555
N1 Ce1 1_555 1_555
N2_2 N1 1_555 1_555
Ce4_2 O1 1_555 1_555
O5 Ce1 1_555 1_555
O9 Ce1 1_555 1_555
H2 O9 1_555 1_555
H3 O9 1_555 1_555
C1 N1 1_555 1_555
O3 Ce1_2 1_555 1_555
O6 Ce1_2 1_555 1_555
O8 Ce1_2 1_555 1_555
H4 O3 1_555 1_555
N4 Ce1_2 1_555 1_555
H1 O3_2 1_555 1_555
Ce4_2 O3_2 1_555 1_555
O9 Ce2 1_555 1_555
O6_2 Ce2 1_555 1_555
Ce2_2 O2_2 1_555 1_555
O5 C2_2 1_555 1_555
C1_2 C2_2 1_555 1_555
O2_2 C2_2 1_555 1_555
N1_2 Ce2_2 1_555 1_555
N5 N1_2 1_555 1_555
O5_2 Ce2_2 1_555 1_555
O9_2 Ce2_2 1_555 1_555
H3_2 O9_2 1_555 1_555
C1_2 N1_2 1_555 1_555
Ce4_2 O7_2 1_555 1_555
O7_2 C4_2 1_555 1_555
H2_2 O9_3 1_555 1_555
C4_2 O6 1_555 1_555
N3_2 N5_2 1_555 1_555
Ce4_2 N3_2 1_555 1_555
C3_2 C4_2 1_555 1_555
C3_2 N3_2 1_555 1_555
O8 C4_3 1_555 1_555
C4_3 O6_2 1_555 1_555
N4 N5_3 1_555 1_555
C3_3 C4_3 1_555 1_555
C3_3 N4 1_555 1_555
Ce4 O2_3 1_555 1_555
O5_2 C2_3 1_555 1_555
C1_3 C2_3 1_555 1_555
O2_3 C2_3 1_555 1_555
O9_3 Ce4 1_555 1_555
N1_3 Ce4 1_555 1_555
N5_4 N1_3 1_555 1_555
C1_3 N1_3 1_555 1_555

#END
