
###############################################################################
#
# This file contains modified crystal structure data generated from the
# MOF subset of the Cambridge Structural Database (CSD) v543 
# hosted by the Cambridge Crystallographic Data Centre (CCDC).
#
# This work is licensed under the Creative Commons
# Attribution-NonCommercial-ShareAlike 4.0 International License.
# To view a copy of this license, visit
# http://creativecommons.org/licenses/by-nc-sa/4.0/
# or send a letter to
# Creative Commons, PO Box 1866, Mountain View, CA 94042, USA.
#
# CIF created using the CSD Python API on 29 September 2022
# The structure has been converted into the P1 space group
# The structure has a 3D framework
# The original CSD entry NUVDIS is in the trigonal crystal system
# The original CSD entry NUVDIS is in a Sohncke space group
# The framework has been calculated to contain at least 10.0% void space
# The void calculation uses a probe of radius 1.32A, grid spacing 0.4
#
###############################################################################

data_NUVDIS
_chemical_formula_moiety         '(C12 H4 N12 Nd6 O15)n'
_symmetry_cell_setting           triclinic
_symmetry_space_group_name_H-M   'P 1'
_symmetry_Int_Tables_number      1
_space_group_name_Hall           'P 1'
loop_
_symmetry_equiv_pos_site_id
_symmetry_equiv_pos_as_xyz
1 x,y,z
_cell_length_a                   8.8050(9)
_cell_length_b                   8.8050(9)
_cell_length_c                   9.8830(10)
_cell_angle_alpha                90
_cell_angle_beta                 90
_cell_angle_gamma                120
_cell_volume                     663.557
loop_
_atom_site_label
_atom_site_type_symbol
_atom_site_fract_x
_atom_site_fract_y
_atom_site_fract_z
Nd2 Nd 0.22529(6) 0.22529(6) 0.0000
O1 O -0.0000 0.2457(10) 0.8333
H1 H 0.0677 0.3371 0.7881
Nd2_2 Nd 0.22529(6) 0.22529(6) 1.0000
N3 N 0.0728(11) -0.0000 0.6667
N3_2 N 0.0728(11) 1.0000 0.6667
Nd1 Nd 0.77471(6) -0.0000 0.6667
O1_2 O 1.0000 0.2457(10) 0.8333
H2 H 0.9323 0.2694 0.8786
O5 O 0.4662(13) 0.1777(10) 0.9308(6)
O7 O 0.8223(10) 0.2885(9) 0.5975(6)
O8 O 0.5958(13) 0.0672(10) 0.8059(6)
C3 C 0.4753(16) 0.0983(11) 0.8275(8)
C4 C 0.3261(16) 0.0403(11) 0.7295(8)
N4 N 0.1935(13) 0.0644(10) 0.7645(7)
N6 N 0.9356(10) 0.1291(9) 0.4312(7)
Nd1_2 Nd 0.77471(6) 1.0000 0.6667
O2 O 0.2885(9) 0.8223(10) 0.4025(6)
O3 O 0.5286(9) 0.9328(10) 0.5274(6)
C1 C 0.3770(12) 0.9017(11) 0.5058(8)
C2 C 0.2858(11) 0.9597(11) 0.6038(8)
N2 N 0.1291(9) 0.9356(10) 0.5688(7)
Nd3 Nd -0.0000 0.77471(6) 0.3334
O4 O 0.7543(10) 0.7543(10) 0.5000
H3 H 0.6629 0.7306 0.4548
H4 H 0.7306 0.6629 0.5452
O6 O 0.5338(13) 0.7115(9) 0.7358(6)
N5 N 0.8065(13) 0.8709(9) 0.9021(7)
Nd3_2 Nd 1.0000 0.77471(6) 0.3334
O4_2 O 0.2457(10) -0.0000(14) 0.1666
H4_2 H 0.3371 0.0677 0.2119
N3_3 N 0.0000 0.0728(11) 0.3334
O2_2 O 0.1777(10) 0.4662(13) 0.0692(6)
O3_2 O 0.0672(10) 0.5958(13) 0.1941(6)
C1_2 C 0.0983(11) 0.4753(16) 0.1725(8)
C2_2 C 0.0403(11) 0.3261(16) 0.2705(8)
N2_2 N 0.0644(10) 0.1935(13) 0.2355(7)
O4_3 O 0.2457(10) 1.0000(14) 0.1666
H3_2 H 0.2694 0.9323 0.1214
N3_4 N 1.0000 0.0728(11) 0.3334
O7_2 O 0.7115(9) 0.5338(13) 0.2642(6)
O8_2 O 0.9328(10) 0.5286(16) 0.4726(6)
C3_2 C 0.9017(11) 0.3770(19) 0.4942(8)
C4_2 C 0.9597(11) 0.2858(19) 0.3962(8)
N6_2 N 0.8709(9) 0.8065(13) 0.0979(7)
N1 N 0.9272(11) 0.9272(11) 0.0000
O8_3 O 0.4714(16) 0.4042(13) 0.1393(6)
C3_3 C 0.6230(19) 0.5247(16) 0.1609(8)
C4_3 C 0.7142(19) 0.6739(16) 0.0629(8)
O3_3 O 0.4042(13) 0.4714(9) 0.8607(6)
C1_3 C 0.5247(16) 0.6230(12) 0.8391(8)
C2_3 C 0.6739(16) 0.7142(11) 0.9371(8)
N1_2 N 0.9272(11) 0.9272(11) 1.0000
loop_
_geom_bond_atom_site_label_1
_geom_bond_atom_site_label_2
_geom_bond_site_symmetry_1
_geom_bond_site_symmetry_2
O1 H1 1_555 1_555
Nd2_2 O1 1_555 1_555
Nd1 O1_2 1_555 1_555
Nd2_2 O5 1_555 1_555
H2 O1_2 1_555 1_555
O5 C3 1_555 1_555
O7 Nd1 1_555 1_555
O8 Nd1 1_555 1_555
C3 O8 1_555 1_555
N4 N3 1_555 1_555
N6 Nd1 1_555 1_555
Nd2_2 N4 1_555 1_555
C3 C4 1_555 1_555
C4 N4 1_555 1_555
O2 C1 1_555 1_555
O3 Nd1_2 1_555 1_555
C1 O3 1_555 1_555
C2 C1 1_555 1_555
N3_2 N2 1_555 1_555
N2 C2 1_555 1_555
Nd3 O2 1_555 1_555
O4 Nd1_2 1_555 1_555
H3 O4 1_555 1_555
H4 O4 1_555 1_555
O6 Nd1_2 1_555 1_555
N5 Nd1_2 1_555 1_555
N2 Nd3 1_555 1_555
H4_2 O4_2 1_555 1_555
O2_2 C1_2 1_555 1_555
O3_2 Nd3 1_555 1_555
C1_2 O3_2 1_555 1_555
C2_2 C1_2 1_555 1_555
N3_3 N2_2 1_555 1_555
N2_2 C2_2 1_555 1_555
Nd2 O2_2 1_555 1_555
O4_3 Nd3 1_555 1_555
H3_2 O4_3 1_555 1_555
N2_2 Nd2 1_555 1_555
Nd3_2 O4 1_555 1_555
O7 C3_2 1_555 1_555
O7_2 Nd3_2 1_555 1_555
O8_2 Nd3_2 1_555 1_555
C3_2 O8_2 1_555 1_555
N6 N3_4 1_555 1_555
N6_2 Nd3_2 1_555 1_555
C3_2 C4_2 1_555 1_555
C4_2 N6 1_555 1_555
Nd2 O4_2 1_555 1_555
O7_2 C3_3 1_555 1_555
O8_3 Nd2 1_555 1_555
C3_3 O8_3 1_555 1_555
N6_2 N1 1_555 1_555
C3_3 C4_3 1_555 1_555
C4_3 N6_2 1_555 1_555
O6 C1_3 1_555 1_555
O3_3 Nd2_2 1_555 1_555
C1_3 O3_3 1_555 1_555
C2_3 C1_3 1_555 1_555
N1_2 N5 1_555 1_555
N5 C2_3 1_555 1_555

#END
