
###############################################################################
#
# This file contains modified crystal structure data generated from the
# MOF subset of the Cambridge Structural Database (CSD) v543 
# hosted by the Cambridge Crystallographic Data Centre (CCDC).
#
# This work is licensed under the Creative Commons
# Attribution-NonCommercial-ShareAlike 4.0 International License.
# To view a copy of this license, visit
# http://creativecommons.org/licenses/by-nc-sa/4.0/
# or send a letter to
# Creative Commons, PO Box 1866, Mountain View, CA 94042, USA.
#
# CIF created using the CSD Python API on 29 September 2022
# The structure has been converted into the P1 space group
# The structure has a 3D framework
# The original CSD entry NUVDEO is in the trigonal crystal system
# The original CSD entry NUVDEO is in a Sohncke space group
# The framework has been calculated to contain at least 10.0% void space
# The void calculation uses a probe of radius 1.32A, grid spacing 0.4
#
###############################################################################

data_NUVDEO
_chemical_formula_moiety         '(C12 H4 N12 O15 Pr5)n'
_symmetry_cell_setting           triclinic
_symmetry_space_group_name_H-M   'P 1'
_symmetry_Int_Tables_number      1
_space_group_name_Hall           'P 1'
loop_
_symmetry_equiv_pos_site_id
_symmetry_equiv_pos_as_xyz
1 x,y,z
_cell_length_a                   8.841(4)
_cell_length_b                   8.841(4)
_cell_length_c                   9.922(5)
_cell_angle_alpha                90
_cell_angle_beta                 90
_cell_angle_gamma                120
_cell_volume                     671.634
loop_
_atom_site_label
_atom_site_type_symbol
_atom_site_fract_x
_atom_site_fract_y
_atom_site_fract_z
N2 N 0.0732 0.0732(3) -0.0000
Pr2 Pr -0.0000 0.22550(4) 0.3334
Pr4 Pr 0.77450(4) 0.77450(4) 0.0000
N3 N 0.1291(3) 0.1939 0.0982
C3 C 0.2856(3) 0.3263 0.0626
O5 O 0.5276(3) 0.5942 0.1383
O8 O 0.2881(3) 0.4659 0.2625
C4 C 0.3759(3) 0.4744 0.1603
Pr1 Pr 0.22550(4) -0.0000 0.6667
N1 N 0.1939 0.1291(3) 0.9018
N2_2 N 0.0732 0.0732(3) 1.0000
C1 C 0.3263 0.2856(3) 0.9374
O2 O 0.5942 0.5276(3) 0.8617
O3 O 0.4659 0.2881(3) 0.7375
C2 C 0.4744 0.3759(3) 0.8397
Pr4_2 Pr 0.77450(4) 0.77450(4) 1.0000
O4 O 0.2461(3) 0.2461(3) 0.5000
O6 O 0.4724(3) 0.0666(3) 0.5284
Pr1_2 Pr 0.22550(4) 1.0000 0.6667
O1 O -0.0000 0.7539(3) 0.8333
H2 H 0.0795 0.7384 0.8672
N4 N 0.0648(3) 0.8709(3) 0.4315
O7 O 0.4058 0.9334(3) 0.8050
O9 O 0.1778(3) 0.7119(3) 0.5958
Pr2_2 Pr 1.0000 0.22550(4) 0.3334
N5 N 0.9268(3) -0.0000(3) 0.6667
O1_2 O 1.0000 0.7539(3) 0.8333
H1 H 0.9205 0.6589 0.7995
N5_2 N 0.9268(3) 1.0000(3) 0.6667
H1_2 H 0.3411 0.2616 0.4662
H2_2 H 0.2616 0.3411 0.5338
O7_2 O 0.0666(3) 0.4724(3) 0.4716
N5_3 N -0.0000(3) 0.9268(4) 0.3333
N1_2 N 0.8709(3) 0.0648(3) 0.5685
C1_2 C 0.7144(3) 0.0407(3) 0.6041
O3_2 O 0.7119(3) 0.1778(3) 0.4042
C2_2 C 0.6241(3) 0.0985(3) 0.5064
O4_2 O 0.7539(3) 0.0000(4) 0.1666
O6_2 O 0.9334(3) 0.4058(4) 0.1950
O4_3 O 0.7539(3) 1.0000(4) 0.1666
N3_2 N 0.8061 0.9352(3) 0.7649
N5_4 N 1.0000(3) 0.9268(4) 0.3333
C3_2 C 0.6737 0.9593(3) 0.7293
O8_2 O 0.5341 0.8222(3) 0.9292
C4_2 C 0.5256 0.9015(3) 0.8270
C3_3 C 0.0407(3) 0.7144(3) 0.3959
C4_3 C 0.0985(3) 0.6241(3) 0.4936
H1_3 H 0.7384 0.0795 0.1328
N1_3 N 0.9352(3) 0.8061 0.2351
C1_3 C 0.9593(3) 0.6737 0.2707
O3_3 O 0.8222(3) 0.5341 0.0708
C2_3 C 0.9015(3) 0.5256 0.1730
H2_3 H 0.6589 0.9205 0.2005
loop_
_geom_bond_atom_site_label_1
_geom_bond_atom_site_label_2
_geom_bond_site_symmetry_1
_geom_bond_site_symmetry_2
Pr2 N3 1_555 1_555
N3 N2 1_555 1_555
O5 Pr4 1_555 1_555
O8 Pr2 1_555 1_555
C4 C3 1_555 1_555
N3 C3 1_555 1_555
O5 C4 1_555 1_555
O8 C4 1_555 1_555
N1 Pr1 1_555 1_555
N2_2 N1 1_555 1_555
C1 N1 1_555 1_555
O2 C2 1_555 1_555
O3 Pr1 1_555 1_555
C2 C1 1_555 1_555
Pr4_2 O2 1_555 1_555
O4 Pr1 1_555 1_555
O6 Pr1 1_555 1_555
O3 C2 1_555 1_555
Pr1_2 O1 1_555 1_555
H2 O1 1_555 1_555
N4 Pr1_2 1_555 1_555
O7 Pr1_2 1_555 1_555
O9 Pr1_2 1_555 1_555
O1_2 H1 1_555 1_555
Pr4_2 O1_2 1_555 1_555
Pr2 O4 1_555 1_555
O4 H1_2 1_555 1_555
H2_2 O4 1_555 1_555
O7_2 Pr2 1_555 1_555
N1_2 Pr2_2 1_555 1_555
N5 N1_2 1_555 1_555
C1_2 N1_2 1_555 1_555
O6 C2_2 1_555 1_555
O3_2 Pr2_2 1_555 1_555
C2_2 C1_2 1_555 1_555
O4_2 Pr2_2 1_555 1_555
O6_2 Pr2_2 1_555 1_555
O3_2 C2_2 1_555 1_555
Pr4_2 N3_2 1_555 1_555
N3_2 N5_2 1_555 1_555
O8_2 Pr4_2 1_555 1_555
C4_2 C3_2 1_555 1_555
N3_2 C3_2 1_555 1_555
O7 C4_2 1_555 1_555
O8_2 C4_2 1_555 1_555
N4 N5_3 1_555 1_555
C4_3 C3_3 1_555 1_555
N4 C3_3 1_555 1_555
O7_2 C4_3 1_555 1_555
O9 C4_3 1_555 1_555
O4_2 H1_3 1_555 1_555
Pr4 O4_3 1_555 1_555
N1_3 Pr4 1_555 1_555
N5_4 N1_3 1_555 1_555
C1_3 N1_3 1_555 1_555
O6_2 C2_3 1_555 1_555
O3_3 Pr4 1_555 1_555
C2_3 C1_3 1_555 1_555
H2_3 O4_3 1_555 1_555
O3_3 C2_3 1_555 1_555

#END
