
###############################################################################
#
# This file contains modified crystal structure data generated from the
# MOF subset of the Cambridge Structural Database (CSD) v543 
# hosted by the Cambridge Crystallographic Data Centre (CCDC).
#
# This work is licensed under the Creative Commons
# Attribution-NonCommercial-ShareAlike 4.0 International License.
# To view a copy of this license, visit
# http://creativecommons.org/licenses/by-nc-sa/4.0/
# or send a letter to
# Creative Commons, PO Box 1866, Mountain View, CA 94042, USA.
#
# CIF created using the CSD Python API on 29 September 2022
# The structure has been converted into the P1 space group
# The structure has a 3D framework
# The original CSD entry NUVWEH is in the tetragonal crystal system
# The framework has been calculated to contain at least 10.0% void space
# The void calculation uses a probe of radius 1.32A, grid spacing 0.4
# H atom positions have been added when not included in the experimental data
# Generated hydrogen atom positions removed from atoms on special positions
#
###############################################################################

data_NUVWEH
_chemical_formula_moiety         '(C64 H128 La8 O96 Pb8)n'
_symmetry_cell_setting           triclinic
_symmetry_space_group_name_H-M   'P 1'
_symmetry_Int_Tables_number      1
_space_group_name_Hall           'P 1'
loop_
_symmetry_equiv_pos_site_id
_symmetry_equiv_pos_as_xyz
1 x,y,z
_cell_length_a                   13.9901(7)
_cell_length_b                   13.9901(7)
_cell_length_c                   18.2013(18)
_cell_angle_alpha                90
_cell_angle_beta                 90
_cell_angle_gamma                90
_cell_volume                     3562.41
loop_
_atom_site_label
_atom_site_type_symbol
_atom_site_fract_x
_atom_site_fract_y
_atom_site_fract_z
Pb1 Pb 0.0000 0.0000 0.0000
La1 La 0.01400(4) 0.2500 0.1250
O4 O 0.1109(4) 0.1298(4) 0.0511(3)
O5 O 0.2382(4) 0.0579(4) 0.0025(4)
O6 O 0.2098(5) 0.2500 0.1250
O7 O 0.0873(5) 0.3664(4) 0.0297(4)
C3 C 0.1993(6) 0.1174(6) 0.0419(5)
C4 C 0.2645(6) 0.1844(6) 0.0843(5)
H3 H 0.3047 0.1476 0.1172
H4 H 0.3055 0.2186 0.0503
Pb2 Pb 0.0000 0.5000 0.2500
La4 La 0.2500 0.51400(4) 0.3750
O15 O 0.1109(4) 0.3702(4) 0.1989(3)
O20 O 0.2382(4) 0.4421(4) 0.2475(4)
O28 O 0.0873(5) 0.1336(4) 0.2203(4)
C11 C 0.1993(6) 0.3826(6) 0.2081(5)
C14 C 0.2645(6) 0.3156(6) 0.1657(5)
H11 H 0.3047 0.3524 0.1328
H14 H 0.3055 0.2814 0.1997
Pb1_2 Pb 0.0000 0.0000 1.0000
H17 H 0.0359671 0.391546 0.997357
Pb1_3 Pb 0.0000 1.0000 0.0000
O9 O 0.2008(4) 0.9899(4) 0.1712(4)
O10 O 0.2008(4) 0.5101(4) 0.0788(4)
O12 O 0.0802(4) 0.9072(4) 0.1227(4)
O13 O 0.0802(4) 0.5928(4) 0.1273(4)
O14 O 0.1779(5) 0.7500 0.1250
O26 O 0.0579(4) 0.7382(4) 0.2525(4)
C6 C 0.1655(6) 0.9176(6) 0.1442(5)
C7 C 0.1655(6) 0.5824(6) 0.1058(5)
C9 C 0.2328(6) 0.8341(5) 0.1325(6)
C10 C 0.2328(6) 0.6659(5) 0.1175(6)
H6 H 0.2706 0.8443 0.0885
H7 H 0.2706 0.6557 0.1615
H9 H 0.2758 0.8281 0.1740
H10 H 0.2758 0.6719 0.0760
Pb1_4 Pb 0.0000 1.0000 1.0000
La3 La 0.2500 0.98600(4) 0.8750
O18 O 0.1298(4) 0.8891(4) 0.9489(3)
O25 O 0.0579(4) 0.7618(4) 0.9975(4)
Pb1_5 Pb 1.0000 0.0000 0.0000
O1 O 0.7992(4) 0.0101(4) 0.1712(4)
O2 O 0.9198(4) 0.0928(4) 0.1227(4)
O3 O 0.8221(5) 0.2500 0.1250
C1 C 0.8345(6) 0.0824(6) 0.1442(5)
C2 C 0.7672(6) 0.1659(5) 0.1325(6)
H1 H 0.7294 0.1557 0.0885
H2 H 0.7242 0.1719 0.1740
Pb2_2 Pb 1.0000 0.5000 0.2500
O8 O 0.7992(4) 0.4899(4) 0.0788(4)
O11 O 0.9198(4) 0.4072(4) 0.1273(4)
O24 O 0.9421(4) 0.2618(4) 0.2525(4)
C5 C 0.8345(6) 0.4176(6) 0.1058(5)
C8 C 0.7672(6) 0.3341(5) 0.1175(6)
H5 H 0.7294 0.3443 0.1615
H8 H 0.7242 0.3281 0.0760
Pb1_6 Pb 1.0000 0.0000 1.0000
La5 La 0.7500 0.01400(4) 0.8750
O19 O 0.8702(4) 0.1109(4) 0.9489(3)
O23 O 0.9421(4) 0.2382(4) 0.9975(4)
Pb1_7 Pb 1.0000 1.0000 0.0000
La2 La 0.98600(4) 0.7500 0.1250
La6 La 0.7500 0.48600(4) 0.3750
O16 O 0.8891(4) 0.8702(4) 0.0511(3)
O17 O 0.8891(4) 0.6298(4) 0.1989(3)
O21 O 0.7618(4) 0.9421(4) 0.0025(4)
O22 O 0.7618(4) 0.5579(4) 0.2475(4)
O27 O 0.7902(5) 0.7500 0.1250
O29 O 0.9127(5) 0.6336(4) 0.0297(4)
O30 O 0.9127(5) 0.8664(4) 0.2203(4)
C12 C 0.8007(6) 0.8826(6) 0.0419(5)
C13 C 0.8007(6) 0.6174(6) 0.2081(5)
C15 C 0.7355(6) 0.8156(6) 0.0843(5)
C16 C 0.7355(6) 0.6844(6) 0.1657(5)
H12 H 0.6953 0.8524 0.1172
H13 H 0.6953 0.6476 0.1328
H15 H 0.6945 0.7814 0.0503
H16 H 0.6945 0.7186 0.1997
Pb1_8 Pb 1.0000 1.0000 1.0000
H21 H 0.964033 0.608454 0.997357
O1_2 O 0.0101(4) 0.2008(4) 0.8288(4)
O2_2 O 0.0928(4) 0.0802(4) 0.8773(4)
O3_2 O 0.2500 0.1779(5) 0.8750
C1_2 C 0.0824(6) 0.1655(6) 0.8558(5)
C2_2 C 0.1659(5) 0.2328(6) 0.8675(6)
H1_2 H 0.1557 0.2706 0.9115
H2_2 H 0.1719 0.2758 0.8260
Pb2_3 Pb 0.5000 0.0000 0.7500
O8_2 O 0.4899(4) 0.2008(4) 0.9212(4)
O11_2 O 0.4072(4) 0.0802(4) 0.8727(4)
O24_2 O 0.2618(4) 0.0579(4) 0.7475(4)
C5_2 C 0.4176(6) 0.1655(6) 0.8942(5)
C8_2 C 0.3341(5) 0.2328(6) 0.8825(6)
H5_2 H 0.3443 0.2706 0.8385
H8_2 H 0.3281 0.2758 0.9240
H17_2 H 0.391546 0.964033 0.00264275
O6_2 O 0.2500 0.7902(5) 0.8750
O7_2 O 0.3664(4) 0.9127(5) 0.9703(4)
C3_2 C 0.1174(6) 0.8007(6) 0.9581(5)
C4_2 C 0.1844(6) 0.7355(6) 0.9157(5)
H3_2 H 0.1476 0.6953 0.8828
H4_2 H 0.2186 0.6945 0.9497
Pb2_4 Pb 0.5000 1.0000 0.7500
La4_2 La 0.51400(4) 0.7500 0.6250
O15_2 O 0.3702(4) 0.8891(4) 0.8011(3)
O20_2 O 0.4421(4) 0.7618(4) 0.7525(4)
O28_2 O 0.1336(4) 0.9127(5) 0.7797(4)
C11_2 C 0.3826(6) 0.8007(6) 0.7919(5)
C14_2 C 0.3156(6) 0.7355(6) 0.8343(5)
H11_2 H 0.3524 0.6953 0.8672
H14_2 H 0.2814 0.6945 0.8003
H21_2 H 0.608454 0.0359671 0.00264275
La6_2 La 0.48600(4) 0.2500 0.6250
O17_2 O 0.6298(4) 0.1109(4) 0.8011(3)
O22_2 O 0.5579(4) 0.2382(4) 0.7525(4)
O27_2 O 0.7500 0.2098(5) 0.8750
O29_2 O 0.6336(4) 0.0873(5) 0.9703(4)
O30_2 O 0.8664(4) 0.0873(5) 0.7797(4)
C12_2 C 0.8826(6) 0.1993(6) 0.9581(5)
C13_2 C 0.6174(6) 0.1993(6) 0.7919(5)
C15_2 C 0.8156(6) 0.2645(6) 0.9157(5)
C16_2 C 0.6844(6) 0.2645(6) 0.8343(5)
H12_2 H 0.8524 0.3047 0.8828
H13_2 H 0.6476 0.3047 0.8672
H15_2 H 0.7814 0.3055 0.9497
H16_2 H 0.7186 0.3055 0.8003
O9_2 O 0.9899(4) 0.7992(4) 0.8288(4)
O10_2 O 0.5101(4) 0.7992(4) 0.9212(4)
O12_2 O 0.9072(4) 0.9198(4) 0.8773(4)
O13_2 O 0.5928(4) 0.9198(4) 0.8727(4)
O14_2 O 0.7500 0.8221(5) 0.8750
O26_2 O 0.7382(4) 0.9421(4) 0.7475(4)
C6_2 C 0.9176(6) 0.8345(6) 0.8558(5)
C7_2 C 0.5824(6) 0.8345(6) 0.8942(5)
C9_2 C 0.8341(5) 0.7672(6) 0.8675(6)
C10_2 C 0.6659(5) 0.7672(6) 0.8825(6)
H6_2 H 0.8443 0.7294 0.9115
H7_2 H 0.6557 0.7294 0.8385
H9_2 H 0.8281 0.7242 0.8260
H10_2 H 0.6719 0.7242 0.9240
O1_3 O 0.7008(4) 0.0101(4) 0.5788(4)
O2_3 O 0.5802(4) 0.0928(4) 0.6273(4)
O3_3 O 0.6779(5) 0.2500 0.6250
O4_2 O 0.3891(4) 0.1298(4) 0.6989(3)
O6_3 O 0.2902(5) 0.2500 0.6250
O7_3 O 0.4127(5) 0.3664(4) 0.7203(4)
C1_3 C 0.6655(6) 0.0824(6) 0.6058(5)
C2_3 C 0.7328(6) 0.1659(5) 0.6175(6)
H1_3 H 0.7706 0.1557 0.6615
H2_3 H 0.7758 0.1719 0.5760
C3_3 C 0.3007(6) 0.1174(6) 0.7081(5)
C4_3 C 0.2355(6) 0.1844(6) 0.6657(5)
H3_3 H 0.1953 0.1476 0.6328
H4_3 H 0.1945 0.2186 0.6997
Pb2_5 Pb 0.5000 0.5000 0.5000
O8_3 O 0.7008(4) 0.4899(4) 0.6712(4)
O11_3 O 0.5802(4) 0.4072(4) 0.6227(4)
O15_3 O 0.3891(4) 0.3702(4) 0.5511(3)
O20_3 O 0.2618(4) 0.4421(4) 0.5025(4)
O24_3 O 0.5579(4) 0.2618(4) 0.4975(4)
O28_3 O 0.4127(5) 0.1336(4) 0.5297(4)
C5_3 C 0.6655(6) 0.4176(6) 0.6442(5)
C8_3 C 0.7328(6) 0.3341(5) 0.6325(6)
H5_3 H 0.7706 0.3443 0.5885
H8_3 H 0.7758 0.3281 0.6740
C11_3 C 0.3007(6) 0.3826(6) 0.5419(5)
C14_3 C 0.2355(6) 0.3156(6) 0.5843(5)
H11_3 H 0.1953 0.3524 0.6172
H14_3 H 0.1945 0.2814 0.5503
O9_3 O 0.2992(4) 0.9899(4) 0.5788(4)
O10_3 O 0.2992(4) 0.5101(4) 0.6712(4)
O12_3 O 0.4198(4) 0.9072(4) 0.6273(4)
O13_3 O 0.4198(4) 0.5928(4) 0.6227(4)
O14_3 O 0.3221(5) 0.7500 0.6250
O16_2 O 0.6109(4) 0.8702(4) 0.6989(3)
O17_3 O 0.6109(4) 0.6298(4) 0.5511(3)
O22_3 O 0.7382(4) 0.5579(4) 0.5025(4)
O26_3 O 0.4421(4) 0.7382(4) 0.4975(4)
O27_3 O 0.7098(5) 0.7500 0.6250
O29_3 O 0.5873(5) 0.6336(4) 0.7203(4)
O30_3 O 0.5873(5) 0.8664(4) 0.5297(4)
C6_3 C 0.3345(6) 0.9176(6) 0.6058(5)
C7_3 C 0.3345(6) 0.5824(6) 0.6442(5)
C9_3 C 0.2672(6) 0.8341(5) 0.6175(6)
C10_3 C 0.2672(6) 0.6659(5) 0.6325(6)
H6_3 H 0.2294 0.8443 0.6615
H7_3 H 0.2294 0.6557 0.5885
H9_3 H 0.2242 0.8281 0.5760
H10_3 H 0.2242 0.6719 0.6740
C12_3 C 0.6993(6) 0.8826(6) 0.7081(5)
C13_3 C 0.6993(6) 0.6174(6) 0.5419(5)
C15_3 C 0.7645(6) 0.8156(6) 0.6657(5)
C16_3 C 0.7645(6) 0.6844(6) 0.5843(5)
H12_3 H 0.8047 0.8524 0.6328
H13_3 H 0.8047 0.6476 0.6172
H15_3 H 0.8055 0.7814 0.6997
H16_3 H 0.8055 0.7186 0.5503
O18_2 O 0.6298(4) 0.3891(4) 0.4489(3)
O19_2 O 0.3702(4) 0.6109(4) 0.4489(3)
O1_4 O 0.5101(4) 0.7008(4) 0.3288(4)
O2_4 O 0.5928(4) 0.5802(4) 0.3773(4)
O3_4 O 0.7500 0.6779(5) 0.3750
O6_4 O 0.7500 0.2902(5) 0.3750
O7_4 O 0.8664(4) 0.4127(5) 0.4703(4)
C1_4 C 0.5824(6) 0.6655(6) 0.3558(5)
C2_4 C 0.6659(5) 0.7328(6) 0.3675(6)
H1_4 H 0.6557 0.7706 0.4115
H2_4 H 0.6719 0.7758 0.3260
C3_4 C 0.6174(6) 0.3007(6) 0.4581(5)
C4_4 C 0.6844(6) 0.2355(6) 0.4157(5)
H3_4 H 0.6476 0.1953 0.3828
H4_4 H 0.7186 0.1945 0.4497
O8_4 O 0.9899(4) 0.7008(4) 0.4212(4)
O9_4 O 0.4899(4) 0.2992(4) 0.3288(4)
O10_4 O 0.0101(4) 0.2992(4) 0.4212(4)
O11_4 O 0.9072(4) 0.5802(4) 0.3727(4)
O12_4 O 0.4072(4) 0.4198(4) 0.3773(4)
O13_4 O 0.0928(4) 0.4198(4) 0.3727(4)
O14_4 O 0.2500 0.3221(5) 0.3750
O15_4 O 0.8702(4) 0.3891(4) 0.3011(3)
O17_4 O 0.1298(4) 0.6109(4) 0.3011(3)
O27_4 O 0.2500 0.7098(5) 0.3750
O28_4 O 0.6336(4) 0.4127(5) 0.2797(4)
O29_4 O 0.1336(4) 0.5873(5) 0.4703(4)
O30_4 O 0.3664(4) 0.5873(5) 0.2797(4)
C5_4 C 0.9176(6) 0.6655(6) 0.3942(5)
C6_4 C 0.4176(6) 0.3345(6) 0.3558(5)
C7_4 C 0.0824(6) 0.3345(6) 0.3942(5)
C8_4 C 0.8341(5) 0.7328(6) 0.3825(6)
C9_4 C 0.3341(5) 0.2672(6) 0.3675(6)
C10_4 C 0.1659(5) 0.2672(6) 0.3825(6)
H5_4 H 0.8443 0.7706 0.3385
H6_4 H 0.3443 0.2294 0.4115
H7_4 H 0.1557 0.2294 0.3385
H8_4 H 0.8281 0.7758 0.4240
H9_4 H 0.3281 0.2242 0.3260
H10_4 H 0.1719 0.2242 0.4240
C11_4 C 0.8826(6) 0.3007(6) 0.2919(5)
C12_4 C 0.3826(6) 0.6993(6) 0.4581(5)
C13_4 C 0.1174(6) 0.6993(6) 0.2919(5)
C14_4 C 0.8156(6) 0.2355(6) 0.3343(5)
C15_4 C 0.3156(6) 0.7645(6) 0.4157(5)
C16_4 C 0.1844(6) 0.7645(6) 0.3343(5)
H11_4 H 0.8524 0.1953 0.3672
H12_4 H 0.3524 0.8047 0.3828
H13_4 H 0.1476 0.8047 0.3672
H14_4 H 0.7814 0.1945 0.3003
H15_4 H 0.2814 0.8055 0.4497
H16_4 H 0.2186 0.8055 0.3003
loop_
_geom_bond_atom_site_label_1
_geom_bond_atom_site_label_2
_geom_bond_site_symmetry_1
_geom_bond_site_symmetry_2
Pb1 O4 1_555 1_555
O4 La1 1_555 1_555
O5 C3 1_555 1_555
O6 La1 1_555 1_555
O7 La1 1_555 1_555
C3 O4 1_555 1_555
C4 O6 1_555 1_555
H3 C4 1_555 1_555
H4 C4 1_555 1_555
Pb2 O15 1_555 1_555
La4 O20 1_555 1_555
O15 La1 1_555 1_555
O20 C11 1_555 1_555
O28 La1 1_555 1_555
C11 O15 1_555 1_555
C14 O6 1_555 1_555
H11 C14 1_555 1_555
H14 C14 1_555 1_555
C3 C4 1_555 1_555
C11 C14 1_555 1_555
O9 C6 1_555 1_555
O10 C7 1_555 1_555
O12 C6 1_555 1_555
C6 C9 1_555 1_555
C7 O13 1_555 1_555
C9 O14 1_555 1_555
C10 O14 1_555 1_555
H6 C9 1_555 1_555
H7 C10 1_555 1_555
H9 C9 1_555 1_555
H10 C10 1_555 1_555
C7 C10 1_555 1_555
O18 Pb1_4 1_555 1_555
La3 O18 1_555 1_555
O1 C1 1_555 1_555
O2 C1 1_555 1_555
C1 C2 1_555 1_555
C2 O3 1_555 1_555
H1 C2 1_555 1_555
H2 C2 1_555 1_555
O8 C5 1_555 1_555
C5 O11 1_555 1_555
C8 O3 1_555 1_555
H5 C8 1_555 1_555
H8 C8 1_555 1_555
C5 C8 1_555 1_555
La5 O19 1_555 1_555
O19 Pb1_6 1_555 1_555
Pb2_2 O17 1_555 1_555
La6 O22 1_555 1_555
O16 Pb1_7 1_555 1_555
O17 La2 1_555 1_555
O22 C13 1_555 1_555
O27 La2 1_555 1_555
O29 La2 1_555 1_555
O30 La2 1_555 1_555
C12 O16 1_555 1_555
C13 O17 1_555 1_555
C15 O27 1_555 1_555
C16 O27 1_555 1_555
H12 C15 1_555 1_555
H13 C16 1_555 1_555
H15 C15 1_555 1_555
H16 C16 1_555 1_555
La2 O16 1_555 1_555
O21 C12 1_555 1_555
C12 C15 1_555 1_555
C13 C16 1_555 1_555
O1_2 C1_2 1_555 1_555
O2_2 C1_2 1_555 1_555
C1_2 C2_2 1_555 1_555
C2_2 O3_2 1_555 1_555
H1_2 C2_2 1_555 1_555
H2_2 C2_2 1_555 1_555
O8_2 C5_2 1_555 1_555
C5_2 O11_2 1_555 1_555
C8_2 O3_2 1_555 1_555
H5_2 C8_2 1_555 1_555
H8_2 C8_2 1_555 1_555
C5_2 C8_2 1_555 1_555
O25 C3_2 1_555 1_555
O6_2 La3 1_555 1_555
O7_2 La3 1_555 1_555
C3_2 O18 1_555 1_555
C4_2 O6_2 1_555 1_555
H3_2 C4_2 1_555 1_555
H4_2 C4_2 1_555 1_555
Pb2_4 O15_2 1_555 1_555
La4_2 O20_2 1_555 1_555
O15_2 La3 1_555 1_555
O20_2 C11_2 1_555 1_555
O28_2 La3 1_555 1_555
C11_2 O15_2 1_555 1_555
C14_2 O6_2 1_555 1_555
H11_2 C14_2 1_555 1_555
H14_2 C14_2 1_555 1_555
C3_2 C4_2 1_555 1_555
C11_2 C14_2 1_555 1_555
Pb2_3 O17_2 1_555 1_555
La6_2 O22_2 1_555 1_555
O17_2 La5 1_555 1_555
O22_2 C13_2 1_555 1_555
O27_2 La5 1_555 1_555
O29_2 La5 1_555 1_555
O30_2 La5 1_555 1_555
C12_2 O19 1_555 1_555
C13_2 O17_2 1_555 1_555
C15_2 O27_2 1_555 1_555
C16_2 O27_2 1_555 1_555
H12_2 C15_2 1_555 1_555
H13_2 C16_2 1_555 1_555
H15_2 C15_2 1_555 1_555
H16_2 C16_2 1_555 1_555
O23 C12_2 1_555 1_555
C12_2 C15_2 1_555 1_555
C13_2 C16_2 1_555 1_555
O9_2 C6_2 1_555 1_555
O10_2 C7_2 1_555 1_555
O12_2 C6_2 1_555 1_555
C6_2 C9_2 1_555 1_555
C7_2 O13_2 1_555 1_555
C9_2 O14_2 1_555 1_555
C10_2 O14_2 1_555 1_555
H6_2 C9_2 1_555 1_555
H7_2 C10_2 1_555 1_555
H9_2 C9_2 1_555 1_555
H10_2 C10_2 1_555 1_555
C7_2 C10_2 1_555 1_555
Pb2_3 O4_2 1_555 1_555
La6_2 O2_3 1_555 1_555
O1_3 C1_3 1_555 1_555
O2_3 C1_3 1_555 1_555
O3_3 La6_2 1_555 1_555
O4_2 La6_2 1_555 1_555
O24_2 C3_3 1_555 1_555
O6_3 La6_2 1_555 1_555
O7_3 La6_2 1_555 1_555
C1_3 C2_3 1_555 1_555
C2_3 O3_3 1_555 1_555
H1_3 C2_3 1_555 1_555
H2_3 C2_3 1_555 1_555
C3_3 O4_2 1_555 1_555
C4_3 O6_3 1_555 1_555
H3_3 C4_3 1_555 1_555
H4_3 C4_3 1_555 1_555
Pb2_5 O15_3 1_555 1_555
La4 O20_3 1_555 1_555
O8_3 C5_3 1_555 1_555
O11_3 La6_2 1_555 1_555
O15_3 La6_2 1_555 1_555
O20_3 C11_3 1_555 1_555
O24_3 La6_2 1_555 1_555
O28_3 La6_2 1_555 1_555
C5_3 O11_3 1_555 1_555
C8_3 O3_3 1_555 1_555
H5_3 C8_3 1_555 1_555
H8_3 C8_3 1_555 1_555
C11_3 O15_3 1_555 1_555
C14_3 O6_3 1_555 1_555
H11_3 C14_3 1_555 1_555
H14_3 C14_3 1_555 1_555
C3_3 C4_3 1_555 1_555
C5_3 C8_3 1_555 1_555
C11_3 C14_3 1_555 1_555
Pb2_5 O17_3 1_555 1_555
La4_2 O12_3 1_555 1_555
La6 O22_3 1_555 1_555
O9_3 C6_3 1_555 1_555
O10_3 C7_3 1_555 1_555
O12_3 C6_3 1_555 1_555
O13_3 La4_2 1_555 1_555
O14_3 La4_2 1_555 1_555
O16_2 Pb2_4 1_555 1_555
O17_3 La4_2 1_555 1_555
O22_3 C13_3 1_555 1_555
O26_3 La4_2 1_555 1_555
O27_3 La4_2 1_555 1_555
O29_3 La4_2 1_555 1_555
O30_3 La4_2 1_555 1_555
C6_3 C9_3 1_555 1_555
C7_3 O13_3 1_555 1_555
C9_3 O14_3 1_555 1_555
C10_3 O14_3 1_555 1_555
H6_3 C9_3 1_555 1_555
H7_3 C10_3 1_555 1_555
H9_3 C9_3 1_555 1_555
H10_3 C10_3 1_555 1_555
C12_3 O16_2 1_555 1_555
C13_3 O17_3 1_555 1_555
C15_3 O27_3 1_555 1_555
C16_3 O27_3 1_555 1_555
H12_3 C15_3 1_555 1_555
H13_3 C16_3 1_555 1_555
H15_3 C15_3 1_555 1_555
H16_3 C16_3 1_555 1_555
La4_2 O16_2 1_555 1_555
O26_2 C12_3 1_555 1_555
C7_3 C10_3 1_555 1_555
C12_3 C15_3 1_555 1_555
C13_3 C16_3 1_555 1_555
La4 O19_2 1_555 1_555
O18_2 Pb2_5 1_555 1_555
O19_2 Pb2_5 1_555 1_555
La6 O18_2 1_555 1_555
La6 O2_4 1_555 1_555
O1_4 C1_4 1_555 1_555
O2_4 C1_4 1_555 1_555
O3_4 La6 1_555 1_555
O24_3 C3_4 1_555 1_555
O6_4 La6 1_555 1_555
O7_4 La6 1_555 1_555
C1_4 C2_4 1_555 1_555
C2_4 O3_4 1_555 1_555
H1_4 C2_4 1_555 1_555
H2_4 C2_4 1_555 1_555
C3_4 O18_2 1_555 1_555
C4_4 O6_4 1_555 1_555
H3_4 C4_4 1_555 1_555
H4_4 C4_4 1_555 1_555
Pb2_2 O15_4 1_555 1_555
Pb2 O17_4 1_555 1_555
La4 O12_4 1_555 1_555
O8_4 C5_4 1_555 1_555
O9_4 C6_4 1_555 1_555
O10_4 C7_4 1_555 1_555
O11_4 La6 1_555 1_555
O12_4 C6_4 1_555 1_555
O13_4 La4 1_555 1_555
O14_4 La4 1_555 1_555
O15_4 La6 1_555 1_555
O17_4 La4 1_555 1_555
O24 C11_4 1_555 1_555
O26 C13_4 1_555 1_555
O27_4 La4 1_555 1_555
O28_4 La6 1_555 1_555
O29_4 La4 1_555 1_555
O30_4 La4 1_555 1_555
C5_4 O11_4 1_555 1_555
C6_4 C9_4 1_555 1_555
C7_4 O13_4 1_555 1_555
C8_4 O3_4 1_555 1_555
C9_4 O14_4 1_555 1_555
C10_4 O14_4 1_555 1_555
H5_4 C8_4 1_555 1_555
H6_4 C9_4 1_555 1_555
H7_4 C10_4 1_555 1_555
H8_4 C8_4 1_555 1_555
H9_4 C9_4 1_555 1_555
H10_4 C10_4 1_555 1_555
C11_4 O15_4 1_555 1_555
C12_4 O19_2 1_555 1_555
C13_4 O17_4 1_555 1_555
C14_4 O6_4 1_555 1_555
C15_4 O27_4 1_555 1_555
C16_4 O27_4 1_555 1_555
H11_4 C14_4 1_555 1_555
H12_4 C15_4 1_555 1_555
H13_4 C16_4 1_555 1_555
H14_4 C14_4 1_555 1_555
H15_4 C15_4 1_555 1_555
H16_4 C16_4 1_555 1_555
C3_4 C4_4 1_555 1_555
O26_3 C12_4 1_555 1_555
C5_4 C8_4 1_555 1_555
C7_4 C10_4 1_555 1_555
C11_4 C14_4 1_555 1_555
C12_4 C15_4 1_555 1_555
C13_4 C16_4 1_555 1_555

#END
