
###############################################################################
#
# This file contains modified crystal structure data generated from the
# MOF subset of the Cambridge Structural Database (CSD) v543 
# hosted by the Cambridge Crystallographic Data Centre (CCDC).
#
# This work is licensed under the Creative Commons
# Attribution-NonCommercial-ShareAlike 4.0 International License.
# To view a copy of this license, visit
# http://creativecommons.org/licenses/by-nc-sa/4.0/
# or send a letter to
# Creative Commons, PO Box 1866, Mountain View, CA 94042, USA.
#
# CIF created using the CSD Python API on 29 September 2022
# The structure has been converted into the P1 space group
# The structure has a 3D framework
# The original CSD entry NUVWIL is in the hexagonal crystal system
# The framework has been calculated to contain at least 10.0% void space
# The void calculation uses a probe of radius 1.32A, grid spacing 0.4
# H atom positions have been added when not included in the experimental data
# Generated hydrogen atom positions removed from atoms on special positions
#
###############################################################################

data_NUVWIL
_chemical_formula_moiety         '(C48 H144 La2 O78 Zn15)n'
_symmetry_cell_setting           triclinic
_symmetry_space_group_name_H-M   'P 1'
_symmetry_Int_Tables_number      1
_space_group_name_Hall           'P 1'
loop_
_symmetry_equiv_pos_site_id
_symmetry_equiv_pos_as_xyz
1 x,y,z
_cell_length_a                   15.3708(10)
_cell_length_b                   15.3708(10)
_cell_length_c                   15.118(2)
_cell_angle_alpha                90
_cell_angle_beta                 90
_cell_angle_gamma                120
_cell_volume                     3093.27
loop_
_atom_site_label
_atom_site_type_symbol
_atom_site_fract_x
_atom_site_fract_y
_atom_site_fract_z
Zn10 Zn 0.5000 0.0000 0.0000
Zn10_2 Zn 0.5000 0.0000 1.0000
Zn10_3 Zn 0.5000 1.0000 0.0000
La5 La 0.3333 0.6667 0.7500
La6 La 0.3333 0.6667 0.2500
Zn2 Zn -0.0000 0.5000 0.5000
Zn5 Zn 0.0000 0.5000 0.0000
Zn10_4 Zn 0.5000 1.0000 1.0000
O16 O 0.19285(15) 0.61795(15) 0.64196(13)
O17 O 0.38205(15) 0.80715(15) 0.85804(13)
O18 O 0.19285(15) 0.61795(15) 0.35804(13)
O19 O 0.38205(15) 0.80715(15) 0.14196(13)
O49 O 0.05201(16) 0.61082(18) 0.59595(16)
O50 O 0.38918(18) 0.94799(16) 0.90405(16)
O51 O 0.05201(16) 0.61082(18) 0.40405(16)
O52 O 0.38918(18) 0.94799(16) 0.09595(16)
O65 O 0.05201(16) 0.44119(24) 0.09595(16)
O75 O 0.23609(10) 0.76391(10) 0.7500
O76 O 0.23609(10) 0.76391(10) 0.2500
O87 O 0.13505(18) 0.49194(19) 0.5000
O93 O 0.13505(18) 0.64311(26) 0.0000
C14 C 0.1297(2) 0.6470(2) 0.6416(2)
C15 C 0.3530(2) 0.8703(2) 0.8584(2)
C16 C 0.1297(2) 0.6470(2) 0.3584(2)
C17 C 0.3530(2) 0.8703(2) 0.1416(2)
C37 C 0.1487(3) 0.7331(3) 0.7001(3)
C38 C 0.2669(3) 0.8513(3) 0.7999(3)
C39 C 0.1487(3) 0.7331(3) 0.2999(3)
C40 C 0.2669(3) 0.8513(3) 0.2001(3)
H14 H 0.0919 0.7130 0.7394
H15 H 0.2870 0.9081 0.7606
H16 H 0.0919 0.7130 0.2606
H17 H 0.2870 0.9081 0.2394
H37 H 0.1559 0.7887 0.6642
H38 H 0.2113 0.8441 0.8358
H39 H 0.1559 0.7887 0.3358
H40 H 0.2113 0.8441 0.1642
Zn5_2 Zn 0.0000 0.5000 1.0000
O64 O 0.05201(16) 0.44119(24) 0.90405(16)
O93_2 O 0.13505(18) 0.64311(26) 1.0000
Zn14 Zn 0.5000 -0.0000 0.5000
La1 La 0.6667 0.3333 0.2500
O1 O 0.61795(15) 0.19285(15) 0.14196(13)
O2 O 0.61082(18) 0.05201(16) 0.09595(16)
O3 O 0.76391(10) 0.23609(10) 0.2500
C1 C 0.6470(2) 0.1297(2) 0.1416(2)
C2 C 0.7331(3) 0.1487(3) 0.2001(3)
H1 H 0.7130 0.0919 0.2394
H2 H 0.7887 0.1559 0.1642
La7 La 0.6667 0.3333 0.7500
Zn2_2 Zn 1.0000 0.5000 0.5000
Zn3 Zn 0.5000 0.5000 0.0000
Zn5_3 Zn 1.0000 0.5000 0.0000
Zn6 Zn 0.5000 0.5000 0.5000
Zn14_2 Zn 0.5000 1.0000 0.5000
O5 O 0.80715(15) 0.38205(15) 0.35804(13)
O6 O 0.57490(21) 0.38205(15) 0.14196(13)
O7 O 0.57490(21) 0.19285(15) 0.35804(13)
O8 O 0.80715(15) 0.42510(21) 0.14196(13)
O9 O 0.61795(15) 0.42510(21) 0.35804(13)
O20 O 0.80715(15) 0.38205(15) 0.64196(13)
O21 O 0.61795(15) 0.19285(15) 0.85804(13)
O24 O 0.42510(21) 0.61795(15) 0.14196(13)
O25 O 0.42510(21) 0.80715(15) 0.35804(13)
O38 O 0.94799(16) 0.38918(18) 0.40405(16)
O39 O 0.44119(24) 0.38918(18) 0.09595(16)
O40 O 0.44119(24) 0.05201(16) 0.40405(16)
O41 O 0.94799(16) 0.55881(24) 0.09595(16)
O42 O 0.61082(18) 0.55881(24) 0.40405(16)
O53 O 0.94799(16) 0.38918(18) 0.59595(16)
O54 O 0.61082(18) 0.05201(16) 0.90405(16)
O57 O 0.55881(24) 0.61082(18) 0.09595(16)
O58 O 0.55881(24) 0.94799(16) 0.40405(16)
O63 O 0.44119(24) 0.05201(16) 0.59595(16)
O67 O 0.38918(18) 0.44119(24) 0.59595(16)
O68 O 0.38918(18) 0.44119(24) 0.40405(16)
O69 O 0.61082(18) 0.55881(24) 0.59595(16)
O70 O 0.47218(14) 0.23609(10) 0.2500
O71 O 0.76391(10) 0.52782(14) 0.2500
O77 O 0.76391(10) 0.23609(10) 0.7500
O79 O 0.52782(14) 0.76391(10) 0.2500
O86 O 0.49194(19) 0.13505(18) 0.0000
O88 O 0.86495(18) 0.50806(19) 0.5000
O89 O 0.35689(26) 0.49194(19) 0.0000
O90 O 0.64311(26) 0.50806(19) 0.0000
O92 O 0.64311(26) 0.13505(18) 0.5000
O94 O 0.86495(18) 0.35689(26) 0.0000
O95 O 0.50806(19) 0.64311(26) 0.5000
O96 O 0.49194(19) 0.35689(26) 0.5000
C3 C 0.8703(2) 0.3530(2) 0.3584(2)
C4 C 0.4827(3) 0.3530(2) 0.1416(2)
C5 C 0.4827(3) 0.1297(2) 0.3584(2)
C6 C 0.8703(2) 0.5173(3) 0.1416(2)
C7 C 0.6470(2) 0.5173(3) 0.3584(2)
C18 C 0.8703(2) 0.3530(2) 0.6416(2)
C19 C 0.6470(2) 0.1297(2) 0.8584(2)
C22 C 0.5173(3) 0.6470(2) 0.1416(2)
C23 C 0.5173(3) 0.8703(2) 0.3584(2)
C26 C 0.8513(3) 0.2669(3) 0.2999(3)
C27 C 0.4156(4) 0.2669(3) 0.2001(3)
C28 C 0.4156(4) 0.1487(3) 0.2999(3)
C29 C 0.8513(3) 0.5844(4) 0.2001(3)
C30 C 0.7331(3) 0.5844(4) 0.2999(3)
C41 C 0.8513(3) 0.2669(3) 0.7001(3)
C42 C 0.7331(3) 0.1487(3) 0.7999(3)
C45 C 0.5844(4) 0.7331(3) 0.2001(3)
C46 C 0.5844(4) 0.8513(3) 0.2999(3)
H3 H 0.9081 0.2870 0.2606
H4 H 0.3789 0.2870 0.2394
H5 H 0.3789 0.0919 0.2606
H6 H 0.9081 0.6211 0.2394
H7 H 0.7130 0.6211 0.2606
H18 H 0.9081 0.2870 0.7394
H19 H 0.7130 0.0919 0.7606
H22 H 0.6211 0.7130 0.2394
H23 H 0.6211 0.9081 0.2606
H26 H 0.8441 0.2113 0.3358
H27 H 0.3672 0.2113 0.1642
H28 H 0.3672 0.1559 0.3358
H29 H 0.8441 0.6328 0.1642
H30 H 0.7887 0.6328 0.3358
H41 H 0.8441 0.2113 0.6642
H42 H 0.7887 0.1559 0.8358
H45 H 0.6328 0.7887 0.1642
H46 H 0.6328 0.8441 0.3358
Zn3_2 Zn 0.5000 0.5000 1.0000
Zn5_4 Zn 1.0000 0.5000 1.0000
O22 O 0.42510(21) 0.61795(15) 0.85804(13)
O23 O 0.42510(21) 0.80715(15) 0.64196(13)
O26 O 0.57490(21) 0.38205(15) 0.85804(13)
O27 O 0.57490(21) 0.19285(15) 0.64196(13)
O36 O 0.80715(15) 0.42510(21) 0.85804(13)
O37 O 0.61795(15) 0.42510(21) 0.64196(13)
O55 O 0.55881(24) 0.61082(18) 0.90405(16)
O56 O 0.55881(24) 0.94799(16) 0.59595(16)
O59 O 0.44119(24) 0.38918(18) 0.90405(16)
O66 O 0.94799(16) 0.55881(24) 0.90405(16)
O78 O 0.52782(14) 0.76391(10) 0.7500
O80 O 0.47218(14) 0.23609(10) 0.7500
O85 O 0.76391(10) 0.52782(14) 0.7500
O86_2 O 0.49194(19) 0.13505(18) 1.0000
O89_2 O 0.35689(26) 0.49194(19) 1.0000
O90_2 O 0.64311(26) 0.50806(19) 1.0000
O94_2 O 0.86495(18) 0.35689(26) 1.0000
C20 C 0.5173(3) 0.6470(2) 0.8584(2)
C21 C 0.5173(3) 0.8703(2) 0.6416(2)
C24 C 0.4827(3) 0.3530(2) 0.8584(2)
C25 C 0.4827(3) 0.1297(2) 0.6416(2)
C43 C 0.5844(4) 0.7331(3) 0.7999(3)
C44 C 0.5844(4) 0.8513(3) 0.7001(3)
C47 C 0.4156(4) 0.2669(3) 0.7999(3)
C48 C 0.4156(4) 0.1487(3) 0.7001(3)
H20 H 0.6211 0.7130 0.7606
H21 H 0.6211 0.9081 0.7394
H24 H 0.3789 0.2870 0.7606
H25 H 0.3789 0.0919 0.7394
H43 H 0.6328 0.7887 0.8358
H44 H 0.6328 0.8441 0.6642
H47 H 0.3672 0.2113 0.8358
H48 H 0.3672 0.1559 0.6642
O4 O 0.50806(19) 0.86495(18) 0.0000
O34 O 0.19285(15) 0.57490(21) 0.14196(13)
O35 O 0.38205(15) 0.57490(21) 0.35804(13)
O84 O 0.23609(10) 0.47218(14) 0.2500
O91 O 0.35689(26) 0.86495(18) 0.5000
O4_2 O 0.50806(19) 0.86495(18) 1.0000
O30 O 0.19285(15) 0.57490(21) 0.85804(13)
O31 O 0.38205(15) 0.57490(21) 0.64196(13)
O82 O 0.23609(10) 0.47218(14) 0.7500
C10 C 0.1297(2) 0.4827(3) 0.1416(2)
C11 C 0.3530(2) 0.4827(3) 0.3584(2)
C33 C 0.1487(3) 0.4156(4) 0.2001(3)
C34 C 0.2669(3) 0.4156(4) 0.2999(3)
H10 H 0.0919 0.3789 0.2394
H11 H 0.2870 0.3789 0.2606
H33 H 0.1559 0.3672 0.1642
H34 H 0.2113 0.3672 0.3358
C8 C 0.1297(2) 0.4827(3) 0.8584(2)
C9 C 0.3530(2) 0.4827(3) 0.6416(2)
C31 C 0.1487(3) 0.4156(4) 0.7999(3)
C32 C 0.2669(3) 0.4156(4) 0.7001(3)
H8 H 0.0919 0.3789 0.7606
H9 H 0.2870 0.3789 0.7394
H31 H 0.1559 0.3672 0.8358
H32 H 0.2113 0.3672 0.6642
C18_2 C 0.6470(2) 0.5173(3) 0.6416(2)
C19_2 C 0.8703(2) 0.5173(3) 0.8584(2)
C41_2 C 0.7331(3) 0.5844(4) 0.7001(3)
C42_2 C 0.8513(3) 0.5844(4) 0.7999(3)
H18_2 H 0.7130 0.6211 0.7394
H19_2 H 0.9081 0.6211 0.7606
H41_2 H 0.7887 0.6328 0.6642
H42_2 H 0.8441 0.6328 0.8358
loop_
_geom_bond_atom_site_label_1
_geom_bond_atom_site_label_2
_geom_bond_site_symmetry_1
_geom_bond_site_symmetry_2
La5 O16 1_555 1_555
La6 O18 1_555 1_555
Zn10_4 O50 1_555 1_555
Zn10_3 O52 1_555 1_555
O16 C14 1_555 1_555
O17 La5 1_555 1_555
O18 C16 1_555 1_555
O19 La6 1_555 1_555
O49 Zn2 1_555 1_555
O50 C15 1_555 1_555
O51 Zn2 1_555 1_555
O52 C17 1_555 1_555
O65 Zn5 1_555 1_555
O75 La5 1_555 1_555
O76 La6 1_555 1_555
O87 Zn2 1_555 1_555
O93 Zn5 1_555 1_555
C14 O49 1_555 1_555
C15 O17 1_555 1_555
C16 O51 1_555 1_555
C17 O19 1_555 1_555
C37 O75 1_555 1_555
C38 O75 1_555 1_555
C39 O76 1_555 1_555
C40 O76 1_555 1_555
H14 C37 1_555 1_555
H15 C38 1_555 1_555
H16 C39 1_555 1_555
H17 C40 1_555 1_555
H37 C37 1_555 1_555
H38 C38 1_555 1_555
H39 C39 1_555 1_555
H40 C40 1_555 1_555
C14 C37 1_555 1_555
C15 C38 1_555 1_555
C16 C39 1_555 1_555
C17 C40 1_555 1_555
O64 Zn5_2 1_555 1_555
O93_2 Zn5_2 1_555 1_555
La1 O1 1_555 1_555
Zn10 O2 1_555 1_555
O1 C1 1_555 1_555
O2 C1 1_555 1_555
O3 La1 1_555 1_555
C1 C2 1_555 1_555
C2 O3 1_555 1_555
H1 C2 1_555 1_555
H2 C2 1_555 1_555
La7 O20 1_555 1_555
La6 O24 1_555 1_555
Zn2_2 O38 1_555 1_555
Zn3 O39 1_555 1_555
Zn14 O40 1_555 1_555
Zn5_3 O41 1_555 1_555
Zn6 O42 1_555 1_555
Zn10_2 O54 1_555 1_555
Zn14_2 O58 1_555 1_555
O5 La1 1_555 1_555
O6 La1 1_555 1_555
O7 La1 1_555 1_555
O8 La1 1_555 1_555
O9 La1 1_555 1_555
O20 C18 1_555 1_555
O21 La7 1_555 1_555
O24 C22 1_555 1_555
O25 La6 1_555 1_555
O38 C3 1_555 1_555
O39 C4 1_555 1_555
O40 C5 1_555 1_555
O41 C6 1_555 1_555
O42 C7 1_555 1_555
O53 Zn2_2 1_555 1_555
O54 C19 1_555 1_555
O57 Zn3 1_555 1_555
O58 C23 1_555 1_555
O63 Zn14 1_555 1_555
O67 Zn6 1_555 1_555
O68 Zn6 1_555 1_555
O69 Zn6 1_555 1_555
O70 La1 1_555 1_555
O71 La1 1_555 1_555
O77 La7 1_555 1_555
O79 La6 1_555 1_555
O86 Zn10 1_555 1_555
O88 Zn2_2 1_555 1_555
O89 Zn3 1_555 1_555
O90 Zn3 1_555 1_555
O92 Zn14 1_555 1_555
O94 Zn5_3 1_555 1_555
O95 Zn6 1_555 1_555
O96 Zn6 1_555 1_555
C3 O5 1_555 1_555
C4 O6 1_555 1_555
C5 O7 1_555 1_555
C6 O8 1_555 1_555
C7 O9 1_555 1_555
C18 O53 1_555 1_555
C19 O21 1_555 1_555
C22 O57 1_555 1_555
C23 O25 1_555 1_555
C26 O3 1_555 1_555
C27 O70 1_555 1_555
C28 O70 1_555 1_555
C29 O71 1_555 1_555
C30 O71 1_555 1_555
C41 O77 1_555 1_555
C42 O77 1_555 1_555
C45 O79 1_555 1_555
C46 O79 1_555 1_555
H3 C26 1_555 1_555
H4 C27 1_555 1_555
H5 C28 1_555 1_555
H6 C29 1_555 1_555
H7 C30 1_555 1_555
H18 C41 1_555 1_555
H19 C42 1_555 1_555
H22 C45 1_555 1_555
H23 C46 1_555 1_555
H26 C26 1_555 1_555
H27 C27 1_555 1_555
H28 C28 1_555 1_555
H29 C29 1_555 1_555
H30 C30 1_555 1_555
H41 C41 1_555 1_555
H42 C42 1_555 1_555
H45 C45 1_555 1_555
H46 C46 1_555 1_555
C3 C26 1_555 1_555
C4 C27 1_555 1_555
C5 C28 1_555 1_555
C6 C29 1_555 1_555
C7 C30 1_555 1_555
C18 C41 1_555 1_555
C19 C42 1_555 1_555
C22 C45 1_555 1_555
C23 C46 1_555 1_555
La5 O22 1_555 1_555
Zn14_2 O56 1_555 1_555
O22 C20 1_555 1_555
O23 La5 1_555 1_555
O26 La7 1_555 1_555
O27 La7 1_555 1_555
O36 La7 1_555 1_555
O37 La7 1_555 1_555
O55 Zn3_2 1_555 1_555
O56 C21 1_555 1_555
O59 Zn3_2 1_555 1_555
O63 C25 1_555 1_555
O66 Zn5_4 1_555 1_555
O78 La5 1_555 1_555
O80 La7 1_555 1_555
O85 La7 1_555 1_555
O86_2 Zn10_2 1_555 1_555
O89_2 Zn3_2 1_555 1_555
O90_2 Zn3_2 1_555 1_555
O94_2 Zn5_4 1_555 1_555
C20 O55 1_555 1_555
C21 O23 1_555 1_555
C24 O26 1_555 1_555
C25 O27 1_555 1_555
C43 O78 1_555 1_555
C44 O78 1_555 1_555
C47 O80 1_555 1_555
C48 O80 1_555 1_555
H20 C43 1_555 1_555
H21 C44 1_555 1_555
H24 C47 1_555 1_555
H25 C48 1_555 1_555
H43 C43 1_555 1_555
H44 C44 1_555 1_555
H47 C47 1_555 1_555
H48 C48 1_555 1_555
O59 C24 1_555 1_555
C20 C43 1_555 1_555
C21 C44 1_555 1_555
C24 C47 1_555 1_555
C25 C48 1_555 1_555
O4 Zn10_3 1_555 1_555
O34 La6 1_555 1_555
O35 La6 1_555 1_555
O84 La6 1_555 1_555
O91 Zn14_2 1_555 1_555
O4_2 Zn10_4 1_555 1_555
O30 La5 1_555 1_555
O31 La5 1_555 1_555
O82 La5 1_555 1_555
O34 C10 1_555 1_555
O68 C11 1_555 1_555
C10 O65 1_555 1_555
C11 O35 1_555 1_555
C33 O84 1_555 1_555
C34 O84 1_555 1_555
H10 C33 1_555 1_555
H11 C34 1_555 1_555
H33 C33 1_555 1_555
H34 C34 1_555 1_555
C10 C33 1_555 1_555
C11 C34 1_555 1_555
O30 C8 1_555 1_555
O67 C9 1_555 1_555
C8 O64 1_555 1_555
C9 O31 1_555 1_555
C31 O82 1_555 1_555
C32 O82 1_555 1_555
H8 C31 1_555 1_555
H9 C32 1_555 1_555
H31 C31 1_555 1_555
H32 C32 1_555 1_555
C8 C31 1_555 1_555
C9 C32 1_555 1_555
O37 C18_2 1_555 1_555
O66 C19_2 1_555 1_555
C18_2 O69 1_555 1_555
C19_2 O36 1_555 1_555
C41_2 O85 1_555 1_555
C42_2 O85 1_555 1_555
H18_2 C41_2 1_555 1_555
H19_2 C42_2 1_555 1_555
H41_2 C41_2 1_555 1_555
H42_2 C42_2 1_555 1_555
C18_2 C41_2 1_555 1_555
C19_2 C42_2 1_555 1_555

#END
