
###############################################################################
#
# This file contains modified crystal structure data generated from the
# MOF subset of the Cambridge Structural Database (CSD) v543 
# hosted by the Cambridge Crystallographic Data Centre (CCDC).
#
# This work is licensed under the Creative Commons
# Attribution-NonCommercial-ShareAlike 4.0 International License.
# To view a copy of this license, visit
# http://creativecommons.org/licenses/by-nc-sa/4.0/
# or send a letter to
# Creative Commons, PO Box 1866, Mountain View, CA 94042, USA.
#
# CIF created using the CSD Python API on 29 September 2022
# The structure has been converted into the P1 space group
# The structure has a 3D framework
# The original CSD entry NUWWIO is in the monoclinic crystal system
# The framework has been calculated to contain at least 10.0% void space
# The void calculation uses a probe of radius 1.32A, grid spacing 0.4
# The framework is charged, counterions have been retained in the structure
#
###############################################################################

data_NUWWIO
_chemical_formula_moiety         '(C160 H96 Cd3 N16 O29)n'
_symmetry_cell_setting           triclinic
_symmetry_space_group_name_H-M   'P 1'
_symmetry_Int_Tables_number      1
_space_group_name_Hall           'P 1'
loop_
_symmetry_equiv_pos_site_id
_symmetry_equiv_pos_as_xyz
1 x,y,z
_cell_length_a                   20.0809(10)
_cell_length_b                   18.6869(10)
_cell_length_c                   13.6347(7)
_cell_angle_alpha                90
_cell_angle_beta                 103.484(2)
_cell_angle_gamma                90
_cell_volume                     4975.38
loop_
_atom_site_label
_atom_site_type_symbol
_atom_site_fract_x
_atom_site_fract_y
_atom_site_fract_z
O5 O 0.38964(16) 0.08952(19) 0.6885(3)
O7 O 0.47763(16) 0.06303(19) 0.6269(3)
C28 C 0.4158(2) 0.0557(3) 0.6283(4)
C31 C 0.3017(2) 0.0051(2) 0.5369(3)
H17 H 0.279633 0.036290 0.574425
C34 C 0.3729(2) 0.0055(3) 0.5537(3)
Cd3 Cd 0.500000 0.15107(2) 0.750000
C16 C 0.3058(2) 0.7762(3) 0.0697(3)
H9 H 0.344461 0.794246 0.117303
O6 O 0.06829(18) 0.7266(2) 0.6902(3)
N3 N 0.27777(16) 0.85239(16) 0.2454(2)
H13 H 0.314859 0.869956 0.230512
N4 N 0.18247(16) 0.79038(19) 0.2317(2)
H14 H 0.147407 0.762070 0.207893
C21 C 0.29435(19) 0.9140(2) 0.4091(3)
C22 C 0.25522(18) 0.8666(2) 0.3313(3)
C23 C 0.23271(19) 0.8065(2) 0.1878(3)
C24 C 0.19595(19) 0.8268(2) 0.3222(3)
C25 C 0.3658(2) 0.9147(2) 0.4267(3)
H15 H 0.388078 0.883594 0.389503
C26 C 0.2628(2) 0.9594(2) 0.4656(3)
H16 H 0.214301 0.959162 0.455246
C27 C 0.2419(2) 0.7781(2) 0.0917(3)
C29 C 0.15418(19) 0.8141(2) 0.3953(3)
C30 C 0.0763(2) 0.7725(2) 0.5322(3)
C32 C 0.1458(2) 0.7857(2) 0.5655(3)
H18 H 0.167254 0.780291 0.634964
C33 C 0.18417(19) 0.8067(2) 0.4982(3)
H19 H 0.231626 0.816343 0.522338
C35 C 0.4043(2) 0.9602(3) 0.4976(4)
H20 H 0.452752 0.960552 0.508046
C37 C 0.0362(3) 0.7432(3) 0.6040(4)
C38 C 0.0842(2) 0.8021(3) 0.3630(3)
H22 H 0.062469 0.807452 0.293595
C39 C 0.0455(2) 0.7825(3) 0.4313(4)
C40 C 0.1861(2) 0.7516(3) 0.0208(3)
H24 H 0.141835 0.752493 0.034635
Cd4 Cd 0.000000 0.65107(2) 0.750000
O8 O 0.97421(18) 0.7341(2) 0.5747(2)
H23 H 0.997467 0.775859 0.408270
Cd4_2 Cd 1.000000 0.65107(2) 0.750000
O8_2 O 0.02579(18) 0.7341(2) 0.9253(2)
O5_2 O 0.61036(16) 0.08952(19) 0.8115(3)
O7_2 O 0.52237(16) 0.06303(19) 0.8731(3)
C28_2 C 0.5842(2) 0.0557(3) 0.8717(4)
C31_2 C 0.6983(2) 0.0051(2) 0.9631(3)
H17_2 H 0.720367 0.036290 0.925575
C34_2 C 0.6271(2) 0.0055(3) 0.9463(3)
O6_2 O 0.93171(18) 0.7266(2) 0.8098(3)
C30_2 C 0.9237(2) 0.7725(2) 0.9678(3)
C32_2 C 0.8542(2) 0.7857(2) 0.9345(3)
H18_2 H 0.832746 0.780291 0.865036
H19_2 H 0.768374 0.816343 0.977662
H20_2 H 0.547248 0.960552 0.991954
C37_2 C 0.9638(3) 0.7432(3) 0.8960(4)
C16_2 C 0.8058(2) 0.2762(3) 0.0697(3)
H9_2 H 0.844461 0.294246 0.117303
O5_3 O 0.88964(16) 0.58952(19) 0.6885(3)
O6_3 O 0.56829(18) 0.2266(2) 0.6902(3)
N3_2 N 0.77777(16) 0.35239(16) 0.2454(2)
H13_2 H 0.814859 0.369956 0.230512
N4_2 N 0.68247(16) 0.29038(19) 0.2317(2)
H14_2 H 0.647407 0.262070 0.207893
O7_3 O 0.97763(16) 0.56303(19) 0.6269(3)
C21_2 C 0.79435(19) 0.4140(2) 0.4091(3)
C22_2 C 0.75522(18) 0.3666(2) 0.3313(3)
C23_2 C 0.73271(19) 0.3065(2) 0.1878(3)
C24_2 C 0.69595(19) 0.3268(2) 0.3222(3)
C25_2 C 0.8658(2) 0.4147(2) 0.4267(3)
H15_2 H 0.888078 0.383594 0.389503
O8_3 O 0.47421(18) 0.2341(2) 0.5747(2)
C26_2 C 0.7628(2) 0.4594(2) 0.4656(3)
H16_2 H 0.714301 0.459162 0.455246
C27_2 C 0.7419(2) 0.2781(2) 0.0917(3)
C28_3 C 0.9158(2) 0.5557(3) 0.6283(4)
C29_2 C 0.65418(19) 0.3141(2) 0.3953(3)
C30_3 C 0.5763(2) 0.2725(2) 0.5322(3)
C31_3 C 0.8017(2) 0.5051(2) 0.5369(3)
H17_3 H 0.779633 0.536290 0.574425
C32_3 C 0.6458(2) 0.2857(2) 0.5655(3)
H18_3 H 0.667254 0.280291 0.634964
C33_2 C 0.68417(19) 0.3067(2) 0.4982(3)
H19_3 H 0.731626 0.316343 0.522338
C34_3 C 0.8729(2) 0.5055(3) 0.5537(3)
C35_2 C 0.9043(2) 0.4602(3) 0.4976(4)
H20_3 H 0.952752 0.460552 0.508046
C37_3 C 0.5362(3) 0.2432(3) 0.6040(4)
C38_2 C 0.5842(2) 0.3021(3) 0.3630(3)
H22_2 H 0.562469 0.307452 0.293595
C39_2 C 0.5455(2) 0.2825(3) 0.4313(4)
H23_2 H 0.497467 0.275859 0.408270
C40_2 C 0.6861(2) 0.2516(3) 0.0208(3)
H24_2 H 0.641835 0.252493 0.034635
O5_4 O 0.11036(16) 0.58952(19) 0.8115(3)
O6_4 O 0.43171(18) 0.2266(2) 0.8098(3)
O7_4 O 0.02237(16) 0.56303(19) 0.8731(3)
O8_4 O 0.52579(18) 0.2341(2) 0.9253(2)
C28_4 C 0.0842(2) 0.5557(3) 0.8717(4)
C30_4 C 0.4237(2) 0.2725(2) 0.9678(3)
C31_4 C 0.1983(2) 0.5051(2) 0.9631(3)
H17_4 H 0.220367 0.536290 0.925575
C32_4 C 0.3542(2) 0.2857(2) 0.9345(3)
H18_4 H 0.332746 0.280291 0.865036
H19_4 H 0.268374 0.316343 0.977662
C34_4 C 0.1271(2) 0.5055(3) 0.9463(3)
H20_4 H 0.047248 0.460552 0.991954
C37_4 C 0.4638(3) 0.2432(3) 0.8960(4)
Cd1 Cd 0.500000 0.84893(2) 0.250000
O1 O 0.11036(16) 0.41048(19) 0.3115(3)
O2 O 0.43171(18) 0.7734(2) 0.3098(3)
N1 N 0.22223(16) 0.64761(16) 0.7546(2)
H1 H 0.185141 0.630044 0.769488
N2 N 0.31753(16) 0.70962(19) 0.7683(2)
H2 H 0.352593 0.737930 0.792107
O3 O 0.02237(16) 0.43697(19) 0.3731(3)
C1 C 0.20565(19) 0.5860(2) 0.5909(3)
C2 C 0.24478(18) 0.6334(2) 0.6687(3)
C3 C 0.26729(19) 0.6935(2) 0.8122(3)
C4 C 0.30405(19) 0.6732(2) 0.6778(3)
C5 C 0.1342(2) 0.5853(2) 0.5733(3)
H3 H 0.111922 0.616406 0.610497
O4 O 0.52579(18) 0.7659(2) 0.4253(2)
C6 C 0.2372(2) 0.5406(2) 0.5344(3)
H4 H 0.285699 0.540838 0.544754
C7 C 0.2581(2) 0.7219(2) 0.9083(3)
C8 C 0.0842(2) 0.4443(3) 0.3717(4)
C9 C 0.34582(19) 0.6859(2) 0.6047(3)
C10 C 0.4237(2) 0.7275(2) 0.4678(3)
C11 C 0.1983(2) 0.4949(2) 0.4631(3)
H5 H 0.220367 0.463710 0.425575
C12 C 0.3542(2) 0.7143(2) 0.4345(3)
H6 H 0.332746 0.719709 0.365036
C13 C 0.31583(19) 0.6933(2) 0.5018(3)
H7 H 0.268374 0.683657 0.477662
C14 C 0.1271(2) 0.4945(3) 0.4463(3)
C15 C 0.0957(2) 0.5398(3) 0.5024(4)
H8 H 0.047248 0.539448 0.491954
C17 C 0.4638(3) 0.7568(3) 0.3960(4)
C18 C 0.4158(2) 0.6979(3) 0.6370(3)
H10 H 0.437531 0.692548 0.706405
C19 C 0.4545(2) 0.7175(3) 0.5687(4)
H11 H 0.502533 0.724141 0.591730
C20 C 0.3139(2) 0.7484(3) 0.9792(3)
H12 H 0.358165 0.747507 0.965365
C36 C 0.1942(2) 0.7238(3) 0.9303(3)
H21 H 0.155539 0.705754 0.882697
Cd2 Cd 0.000000 0.34893(2) 0.250000
O9 O 0.61036(16) 0.91048(19) 0.3115(3)
O10 O 0.38964(16) 0.91048(19) 0.1885(3)
O11 O 0.56829(18) 0.7734(2) 0.1902(3)
O12 O 0.52237(16) 0.93697(19) 0.3731(3)
O13 O 0.47763(16) 0.93697(19) 0.1269(3)
O14 O 0.47421(18) 0.7659(2) 0.0747(2)
Cd2_2 Cd 1.000000 0.34893(2) 0.250000
O1_2 O 0.88964(16) 0.41048(19) 0.1885(3)
O3_2 O 0.97763(16) 0.43697(19) 0.1269(3)
C8_2 C 0.9158(2) 0.4443(3) 0.1283(4)
C10_2 C 0.5763(2) 0.7275(2) 0.0322(3)
C11_2 C 0.8017(2) 0.4949(2) 0.0369(3)
H5_2 H 0.779633 0.463710 0.074425
C12_2 C 0.6458(2) 0.7143(2) 0.0655(3)
H6_2 H 0.667254 0.719709 0.134964
H7_2 H 0.731626 0.683657 0.022338
C14_2 C 0.8729(2) 0.4945(3) 0.0537(3)
H8_2 H 0.952752 0.539448 0.008046
C17_2 C 0.5362(3) 0.7568(3) 0.1040(4)
O4_2 O 0.02579(18) 0.2659(2) 0.4253(2)
H11_2 H 0.002533 0.224141 0.591730
O11_2 O 0.06829(18) 0.2734(2) 0.1902(3)
O2_2 O 0.93171(18) 0.2734(2) 0.3098(3)
N1_2 N 0.72223(16) 0.14761(16) 0.7546(2)
H1_2 H 0.685141 0.130044 0.769488
N2_2 N 0.81753(16) 0.20962(19) 0.7683(2)
H2_2 H 0.852593 0.237930 0.792107
C1_2 C 0.70565(19) 0.0860(2) 0.5909(3)
C2_2 C 0.74478(18) 0.1334(2) 0.6687(3)
C3_2 C 0.76729(19) 0.1935(2) 0.8122(3)
C4_2 C 0.80405(19) 0.1732(2) 0.6778(3)
C5_2 C 0.6342(2) 0.0853(2) 0.5733(3)
H3_2 H 0.611922 0.116406 0.610497
C6_2 C 0.7372(2) 0.0406(2) 0.5344(3)
H4_2 H 0.785699 0.040838 0.544754
C7_2 C 0.7581(2) 0.2219(2) 0.9083(3)
C9_2 C 0.84582(19) 0.1859(2) 0.6047(3)
C10_3 C 0.9237(2) 0.2275(2) 0.4678(3)
C12_3 C 0.8542(2) 0.2143(2) 0.4345(3)
H6_3 H 0.832746 0.219709 0.365036
C13_2 C 0.81583(19) 0.1933(2) 0.5018(3)
H7_3 H 0.768374 0.183657 0.477662
C15_2 C 0.5957(2) 0.0398(3) 0.5024(4)
H8_3 H 0.547248 0.039448 0.491954
C17_3 C 0.9638(3) 0.2568(3) 0.3960(4)
C18_2 C 0.9158(2) 0.1979(3) 0.6370(3)
H10_2 H 0.937531 0.192548 0.706405
C19_2 C 0.9545(2) 0.2175(3) 0.5687(4)
C20_2 C 0.8139(2) 0.2484(3) 0.9792(3)
H12_2 H 0.858165 0.247507 0.965365
C36_2 C 0.6942(2) 0.2238(3) 0.9303(3)
H21_2 H 0.655539 0.205754 0.882697
O14_2 O 0.97421(18) 0.2659(2) 0.0747(2)
C8_3 C 0.5842(2) 0.9443(3) 0.3717(4)
C11_3 C 0.6983(2) 0.9949(2) 0.4631(3)
H5_3 H 0.720367 0.963710 0.425575
C14_3 C 0.6271(2) 0.9945(3) 0.4463(3)
C10_4 C 0.0763(2) 0.2275(2) 0.0322(3)
C12_4 C 0.1458(2) 0.2143(2) 0.0655(3)
H6_4 H 0.167254 0.219709 0.134964
H7_4 H 0.231626 0.183657 0.022338
H8_4 H 0.452752 0.039448 0.008046
C17_4 C 0.0362(3) 0.2568(3) 0.1040(4)
C8_4 C 0.4158(2) 0.9443(3) 0.1283(4)
C11_4 C 0.3017(2) 0.9949(2) 0.0369(3)
H5_4 H 0.279633 0.963710 0.074425
C14_4 C 0.3729(2) 0.9945(3) 0.0537(3)
H23_3 H 0.002533 0.775859 0.091730
N1_3 N 0.77777(16) 0.64761(16) 0.7454(2)
H1_3 H 0.814859 0.630044 0.730512
N2_3 N 0.68247(16) 0.70962(19) 0.7317(2)
H2_3 H 0.647407 0.737930 0.707893
C1_3 C 0.79435(19) 0.5860(2) 0.9091(3)
C2_3 C 0.75522(18) 0.6334(2) 0.8313(3)
C3_3 C 0.73271(19) 0.6935(2) 0.6878(3)
C4_3 C 0.69595(19) 0.6732(2) 0.8222(3)
C5_3 C 0.8658(2) 0.5853(2) 0.9267(3)
H3_3 H 0.888078 0.616406 0.889503
C6_3 C 0.7628(2) 0.5406(2) 0.9656(3)
H4_3 H 0.714301 0.540838 0.955246
C7_3 C 0.7419(2) 0.7219(2) 0.5917(3)
C9_3 C 0.65418(19) 0.6859(2) 0.8953(3)
C13_3 C 0.68417(19) 0.6933(2) 0.9982(3)
C15_3 C 0.9043(2) 0.5398(3) 0.9976(4)
C16_3 C 0.6942(2) 0.7762(3) 0.4303(3)
H9_3 H 0.655539 0.794246 0.382697
C18_3 C 0.5842(2) 0.6979(3) 0.8630(3)
H10_3 H 0.562469 0.692548 0.793595
C19_3 C 0.5455(2) 0.7175(3) 0.9313(4)
H11_3 H 0.497467 0.724141 0.908270
C20_3 C 0.6861(2) 0.7484(3) 0.5208(3)
H12_3 H 0.641835 0.747507 0.534635
N3_3 N 0.72223(16) 0.85239(16) 0.2546(2)
H13_3 H 0.685141 0.869956 0.269488
N4_3 N 0.81753(16) 0.79038(19) 0.2683(2)
H14_3 H 0.852593 0.762070 0.292107
C21_3 C 0.70565(19) 0.9140(2) 0.0909(3)
C22_3 C 0.74478(18) 0.8666(2) 0.1687(3)
C23_3 C 0.76729(19) 0.8065(2) 0.3122(3)
C24_3 C 0.80405(19) 0.8268(2) 0.1778(3)
C25_3 C 0.6342(2) 0.9147(2) 0.0733(3)
H15_3 H 0.611922 0.883594 0.110497
C26_3 C 0.7372(2) 0.9594(2) 0.0344(3)
H16_3 H 0.785699 0.959162 0.044754
C27_3 C 0.7581(2) 0.7781(2) 0.4083(3)
C29_3 C 0.84582(19) 0.8141(2) 0.1047(3)
C33_3 C 0.81583(19) 0.8067(2) 0.0018(3)
C35_3 C 0.5957(2) 0.9602(3) 0.0024(4)
C36_3 C 0.8058(2) 0.7238(3) 0.5697(3)
H21_3 H 0.844461 0.705754 0.617303
C38_3 C 0.9158(2) 0.8021(3) 0.1370(3)
H22_3 H 0.937531 0.807452 0.206405
C39_3 C 0.9545(2) 0.7825(3) 0.0687(4)
C40_3 C 0.8139(2) 0.7516(3) 0.4792(3)
H24_3 H 0.858165 0.752493 0.465365
N1_4 N 0.27777(16) 0.14761(16) 0.7454(2)
H1_4 H 0.314859 0.130044 0.730512
N2_4 N 0.18247(16) 0.20962(19) 0.7317(2)
H2_4 H 0.147407 0.237930 0.707893
C1_4 C 0.29435(19) 0.0860(2) 0.9091(3)
C2_4 C 0.25522(18) 0.1334(2) 0.8313(3)
C3_4 C 0.23271(19) 0.1935(2) 0.6878(3)
C4_4 C 0.19595(19) 0.1732(2) 0.8222(3)
C5_4 C 0.3658(2) 0.0853(2) 0.9267(3)
H3_4 H 0.388078 0.116406 0.889503
C6_4 C 0.2628(2) 0.0406(2) 0.9656(3)
H4_4 H 0.214301 0.040838 0.955246
C7_4 C 0.2419(2) 0.2219(2) 0.5917(3)
C9_4 C 0.15418(19) 0.1859(2) 0.8953(3)
C13_4 C 0.18417(19) 0.1933(2) 0.9982(3)
C15_4 C 0.4043(2) 0.0398(3) 0.9976(4)
C16_4 C 0.1942(2) 0.2762(3) 0.4303(3)
H9_4 H 0.155539 0.294246 0.382697
C18_4 C 0.0842(2) 0.1979(3) 0.8630(3)
H10_4 H 0.062469 0.192548 0.793595
C19_4 C 0.0455(2) 0.2175(3) 0.9313(4)
C20_4 C 0.1861(2) 0.2484(3) 0.5208(3)
H12_4 H 0.141835 0.247507 0.534635
N3_4 N 0.22223(16) 0.35239(16) 0.2546(2)
H13_4 H 0.185141 0.369956 0.269488
N4_4 N 0.31753(16) 0.29038(19) 0.2683(2)
H14_4 H 0.352593 0.262070 0.292107
C21_4 C 0.20565(19) 0.4140(2) 0.0909(3)
C22_4 C 0.24478(18) 0.3666(2) 0.1687(3)
C23_4 C 0.26729(19) 0.3065(2) 0.3122(3)
C24_4 C 0.30405(19) 0.3268(2) 0.1778(3)
C25_4 C 0.1342(2) 0.4147(2) 0.0733(3)
H15_4 H 0.111922 0.383594 0.110497
C26_4 C 0.2372(2) 0.4594(2) 0.0344(3)
H16_4 H 0.285699 0.459162 0.044754
C27_4 C 0.2581(2) 0.2781(2) 0.4083(3)
C29_4 C 0.34582(19) 0.3141(2) 0.1047(3)
C33_4 C 0.31583(19) 0.3067(2) 0.0018(3)
C35_4 C 0.0957(2) 0.4602(3) 0.0024(4)
C36_4 C 0.3058(2) 0.2238(3) 0.5697(3)
H21_4 H 0.344461 0.205754 0.617303
C38_4 C 0.4158(2) 0.3021(3) 0.1370(3)
H22_4 H 0.437531 0.307452 0.206405
C39_4 C 0.4545(2) 0.2825(3) 0.0687(4)
H23_4 H 0.502533 0.275859 0.091730
C40_4 C 0.3139(2) 0.2516(3) 0.4792(3)
H24_4 H 0.358165 0.252493 0.465365
H11_4 H 0.997467 0.224141 0.908270
loop_
_geom_bond_atom_site_label_1
_geom_bond_atom_site_label_2
_geom_bond_site_symmetry_1
_geom_bond_site_symmetry_2
O5 C28 1_555 1_555
O7 C28 1_555 1_555
C28 C34 1_555 1_555
H17 C31 1_555 1_555
C34 C31 1_555 1_555
Cd3 O5 1_555 1_555
O7 Cd3 1_555 1_555
C16 H9 1_555 1_555
O6 C37 1_555 1_555
N3 H13 1_555 1_555
N4 H14 1_555 1_555
C21 C22 1_555 1_555
C22 N3 1_555 1_555
C23 N3 1_555 1_555
C24 N4 1_555 1_555
C25 C21 1_555 1_555
H15 C25 1_555 1_555
C26 C21 1_555 1_555
H16 C26 1_555 1_555
C27 C16 1_555 1_555
C29 C24 1_555 1_555
C30 C32 1_555 1_555
C32 H18 1_555 1_555
C33 C29 1_555 1_555
H19 C33 1_555 1_555
C35 C25 1_555 1_555
H20 C35 1_555 1_555
C37 C30 1_555 1_555
C38 C29 1_555 1_555
H22 C38 1_555 1_555
C39 C30 1_555 1_555
C40 C27 1_555 1_555
H24 C40 1_555 1_555
Cd4 O6 1_555 1_555
N4 C23 1_555 1_555
C22 C24 1_555 1_555
C23 C27 1_555 1_555
C32 C33 1_555 1_555
C38 C39 1_555 1_555
O8 Cd4_2 1_555 1_555
O8_2 Cd4 1_555 1_555
O5_2 C28_2 1_555 1_555
O7_2 C28_2 1_555 1_555
C28_2 C34_2 1_555 1_555
H17_2 C31_2 1_555 1_555
C34_2 C31_2 1_555 1_555
Cd3 O5_2 1_555 1_555
O7_2 Cd3 1_555 1_555
O6_2 C37_2 1_555 1_555
C30_2 C32_2 1_555 1_555
C32_2 H18_2 1_555 1_555
C37_2 C30_2 1_555 1_555
Cd4_2 O6_2 1_555 1_555
C16_2 H9_2 1_555 1_555
O5_3 C28_3 1_555 1_555
O6_3 C37_3 1_555 1_555
N3_2 H13_2 1_555 1_555
N4_2 H14_2 1_555 1_555
O7_3 C28_3 1_555 1_555
C21_2 C22_2 1_555 1_555
C22_2 N3_2 1_555 1_555
C23_2 N3_2 1_555 1_555
C24_2 N4_2 1_555 1_555
C25_2 C21_2 1_555 1_555
H15_2 C25_2 1_555 1_555
O8_3 C37_3 1_555 1_555
C26_2 C21_2 1_555 1_555
H16_2 C26_2 1_555 1_555
C27_2 C16_2 1_555 1_555
C28_3 C34_3 1_555 1_555
C29_2 C24_2 1_555 1_555
C30_3 C32_3 1_555 1_555
C31_3 C26_2 1_555 1_555
H17_3 C31_3 1_555 1_555
C32_3 H18_3 1_555 1_555
C33_2 C29_2 1_555 1_555
H19_3 C33_2 1_555 1_555
C34_3 C31_3 1_555 1_555
C35_2 C25_2 1_555 1_555
H20_3 C35_2 1_555 1_555
C37_3 C30_3 1_555 1_555
C38_2 C29_2 1_555 1_555
H22_2 C38_2 1_555 1_555
C39_2 C30_3 1_555 1_555
H23_2 C39_2 1_555 1_555
C40_2 C27_2 1_555 1_555
H24_2 C40_2 1_555 1_555
Cd4_2 O5_3 1_555 1_555
Cd3 O6_3 1_555 1_555
N4_2 C23_2 1_555 1_555
O7_3 Cd4_2 1_555 1_555
C22_2 C24_2 1_555 1_555
C23_2 C27_2 1_555 1_555
O8_3 Cd3 1_555 1_555
C32_3 C33_2 1_555 1_555
C34_3 C35_2 1_555 1_555
C38_2 C39_2 1_555 1_555
O5_4 C28_4 1_555 1_555
O6_4 C37_4 1_555 1_555
O7_4 C28_4 1_555 1_555
O8_4 C37_4 1_555 1_555
C28_4 C34_4 1_555 1_555
C30_4 C32_4 1_555 1_555
H17_4 C31_4 1_555 1_555
C32_4 H18_4 1_555 1_555
C34_4 C31_4 1_555 1_555
C37_4 C30_4 1_555 1_555
Cd4 O5_4 1_555 1_555
Cd3 O6_4 1_555 1_555
O7_4 Cd4 1_555 1_555
O8_4 Cd3 1_555 1_555
Cd1 O2 1_555 1_555
O1 C8 1_555 1_555
O2 C17 1_555 1_555
N1 H1 1_555 1_555
N2 H2 1_555 1_555
O3 C8 1_555 1_555
C1 C2 1_555 1_555
C2 N1 1_555 1_555
C3 N1 1_555 1_555
C4 N2 1_555 1_555
C5 C1 1_555 1_555
H3 C5 1_555 1_555
O4 Cd1 1_555 1_555
C6 C1 1_555 1_555
H4 C6 1_555 1_555
C7 C3 1_555 1_555
C8 C14 1_555 1_555
C9 C4 1_555 1_555
C10 C12 1_555 1_555
C11 C6 1_555 1_555
H5 C11 1_555 1_555
C12 H6 1_555 1_555
C13 C9 1_555 1_555
H7 C13 1_555 1_555
C14 C11 1_555 1_555
C15 C5 1_555 1_555
H8 C15 1_555 1_555
C17 O4 1_555 1_555
C18 C9 1_555 1_555
H10 C18 1_555 1_555
C19 C10 1_555 1_555
H11 C19 1_555 1_555
C20 C7 1_555 1_555
H12 C20 1_555 1_555
C36 C7 1_555 1_555
H21 C36 1_555 1_555
Cd2 O1 1_555 1_555
O9 Cd1 1_555 1_555
O10 Cd1 1_555 1_555
O11 Cd1 1_555 1_555
O12 Cd1 1_555 1_555
O13 Cd1 1_555 1_555
O14 Cd1 1_555 1_555
N2 C3 1_555 1_555
O3 Cd2 1_555 1_555
C2 C4 1_555 1_555
C10 C17 1_555 1_555
C12 C13 1_555 1_555
C14 C15 1_555 1_555
C18 C19 1_555 1_555
O1_2 C8_2 1_555 1_555
O11 C17_2 1_555 1_555
O3_2 C8_2 1_555 1_555
C8_2 C14_2 1_555 1_555
C10_2 C12_2 1_555 1_555
H5_2 C11_2 1_555 1_555
C12_2 H6_2 1_555 1_555
C14_2 C11_2 1_555 1_555
C17_2 O14 1_555 1_555
Cd2_2 O1_2 1_555 1_555
O3_2 Cd2_2 1_555 1_555
C10_2 C17_2 1_555 1_555
O4_2 Cd2 1_555 1_555
O11_2 Cd2 1_555 1_555
Cd2_2 O2_2 1_555 1_555
O2_2 C17_3 1_555 1_555
N1_2 H1_2 1_555 1_555
N2_2 H2_2 1_555 1_555
C1_2 C2_2 1_555 1_555
C2_2 N1_2 1_555 1_555
C3_2 N1_2 1_555 1_555
C4_2 N2_2 1_555 1_555
C5_2 C1_2 1_555 1_555
H3_2 C5_2 1_555 1_555
C6_2 C1_2 1_555 1_555
H4_2 C6_2 1_555 1_555
C7_2 C3_2 1_555 1_555
C9_2 C4_2 1_555 1_555
C10_3 C12_3 1_555 1_555
C12_3 H6_3 1_555 1_555
C13_2 C9_2 1_555 1_555
H7_3 C13_2 1_555 1_555
C15_2 C5_2 1_555 1_555
H8_3 C15_2 1_555 1_555
C18_2 C9_2 1_555 1_555
H10_2 C18_2 1_555 1_555
C19_2 C10_3 1_555 1_555
C20_2 C7_2 1_555 1_555
H12_2 C20_2 1_555 1_555
C36_2 C7_2 1_555 1_555
H21_2 C36_2 1_555 1_555
O14_2 Cd2_2 1_555 1_555
N2_2 C3_2 1_555 1_555
C2_2 C4_2 1_555 1_555
C10_3 C17_3 1_555 1_555
C12_3 C13_2 1_555 1_555
C18_2 C19_2 1_555 1_555
O9 C8_3 1_555 1_555
O12 C8_3 1_555 1_555
C8_3 C14_3 1_555 1_555
H5_3 C11_3 1_555 1_555
C14_3 C11_3 1_555 1_555
O11_2 C17_4 1_555 1_555
C10_4 C12_4 1_555 1_555
C12_4 H6_4 1_555 1_555
C10_4 C17_4 1_555 1_555
O10 C8_4 1_555 1_555
O13 C8_4 1_555 1_555
C8_4 C14_4 1_555 1_555
H5_4 C11_4 1_555 1_555
C14_4 C11_4 1_555 1_555
N1_3 H1_3 1_555 1_555
N2_3 H2_3 1_555 1_555
C1_3 C2_3 1_555 1_555
C2_3 N1_3 1_555 1_555
C3_3 N1_3 1_555 1_555
C4_3 N2_3 1_555 1_555
C5_3 C1_3 1_555 1_555
H3_3 C5_3 1_555 1_555
C6_3 C1_3 1_555 1_555
H4_3 C6_3 1_555 1_555
C7_3 C3_3 1_555 1_555
C9_3 C4_3 1_555 1_555
C13_3 C9_3 1_555 1_555
C15_3 C5_3 1_555 1_555
C16_3 H9_3 1_555 1_555
C18_3 C9_3 1_555 1_555
H10_3 C18_3 1_555 1_555
H11_3 C19_3 1_555 1_555
C20_3 C7_3 1_555 1_555
H12_3 C20_3 1_555 1_555
N3_3 H13_3 1_555 1_555
N4_3 H14_3 1_555 1_555
C21_3 C22_3 1_555 1_555
C22_3 N3_3 1_555 1_555
C23_3 N3_3 1_555 1_555
C24_3 N4_3 1_555 1_555
C25_3 C21_3 1_555 1_555
H15_3 C25_3 1_555 1_555
C26_3 C21_3 1_555 1_555
H16_3 C26_3 1_555 1_555
C27_3 C16_3 1_555 1_555
C29_3 C24_3 1_555 1_555
C33_3 C29_3 1_555 1_555
C35_3 C25_3 1_555 1_555
C36_3 C7_3 1_555 1_555
H21_3 C36_3 1_555 1_555
C38_3 C29_3 1_555 1_555
H22_3 C38_3 1_555 1_555
C40_3 C27_3 1_555 1_555
H24_3 C40_3 1_555 1_555
N2_3 C3_3 1_555 1_555
C2_3 C4_3 1_555 1_555
C16_3 C20_3 1_555 1_555
C18_3 C19_3 1_555 1_555
N4_3 C23_3 1_555 1_555
C22_3 C24_3 1_555 1_555
C23_3 C27_3 1_555 1_555
C36_3 C40_3 1_555 1_555
C38_3 C39_3 1_555 1_555
N1_4 H1_4 1_555 1_555
N2_4 H2_4 1_555 1_555
C1_4 C2_4 1_555 1_555
C2_4 N1_4 1_555 1_555
C3_4 N1_4 1_555 1_555
C4_4 N2_4 1_555 1_555
C5_4 C1_4 1_555 1_555
H3_4 C5_4 1_555 1_555
C6_4 C1_4 1_555 1_555
H4_4 C6_4 1_555 1_555
C7_4 C3_4 1_555 1_555
C9_4 C4_4 1_555 1_555
C13_4 C9_4 1_555 1_555
C15_4 C5_4 1_555 1_555
C16_4 H9_4 1_555 1_555
C18_4 C9_4 1_555 1_555
H10_4 C18_4 1_555 1_555
C20_4 C7_4 1_555 1_555
H12_4 C20_4 1_555 1_555
N3_4 H13_4 1_555 1_555
N4_4 H14_4 1_555 1_555
C21_4 C22_4 1_555 1_555
C22_4 N3_4 1_555 1_555
C23_4 N3_4 1_555 1_555
C24_4 N4_4 1_555 1_555
C25_4 C21_4 1_555 1_555
H15_4 C25_4 1_555 1_555
C26_4 C21_4 1_555 1_555
H16_4 C26_4 1_555 1_555
C27_4 C16_4 1_555 1_555
C29_4 C24_4 1_555 1_555
C33_4 C29_4 1_555 1_555
C35_4 C25_4 1_555 1_555
C36_4 C7_4 1_555 1_555
H21_4 C36_4 1_555 1_555
C38_4 C29_4 1_555 1_555
H22_4 C38_4 1_555 1_555
H23_4 C39_4 1_555 1_555
C40_4 C27_4 1_555 1_555
H24_4 C40_4 1_555 1_555
N2_4 C3_4 1_555 1_555
C2_4 C4_4 1_555 1_555
C16_4 C20_4 1_555 1_555
C18_4 C19_4 1_555 1_555
N4_4 C23_4 1_555 1_555
C22_4 C24_4 1_555 1_555
C23_4 C27_4 1_555 1_555
C36_4 C40_4 1_555 1_555
C38_4 C39_4 1_555 1_555

#END
