
###############################################################################
#
# This file contains modified crystal structure data generated from the
# MOF subset of the Cambridge Structural Database (CSD) v543 
# hosted by the Cambridge Crystallographic Data Centre (CCDC).
#
# This work is licensed under the Creative Commons
# Attribution-NonCommercial-ShareAlike 4.0 International License.
# To view a copy of this license, visit
# http://creativecommons.org/licenses/by-nc-sa/4.0/
# or send a letter to
# Creative Commons, PO Box 1866, Mountain View, CA 94042, USA.
#
# CIF created using the CSD Python API on 29 September 2022
# The structure has been converted into the P1 space group
# The structure has a 3D framework
# The original CSD entry NUXXUA is in the triclinic crystal system
# The framework has been calculated to contain at least 10.0% void space
# The void calculation uses a probe of radius 1.32A, grid spacing 0.4
#
###############################################################################

data_NUXXUA
_chemical_formula_moiety         '(C40 H56 Cu2 N16 O12 V4)n'
_symmetry_cell_setting           triclinic
_symmetry_space_group_name_H-M   'P 1'
_symmetry_Int_Tables_number      1
_space_group_name_Hall           'P 1'
loop_
_symmetry_equiv_pos_site_id
_symmetry_equiv_pos_as_xyz
1 x,y,z
_cell_length_a                   11.308(5)
_cell_length_b                   11.926(5)
_cell_length_c                   12.873(5)
_cell_angle_alpha                67.243(5)
_cell_angle_beta                 84.721(5)
_cell_angle_gamma                70.474(5)
_cell_volume                     1507.44
loop_
_atom_site_label
_atom_site_type_symbol
_atom_site_fract_x
_atom_site_fract_y
_atom_site_fract_z
_atom_site_U_iso_or_equiv
_atom_site_thermal_displace_type
C24 C 0.0995(5) 0.0900(5) 0.0264(4) 0.0511 Uani
H32 H 0.1806 0.0296 0.0222 0.0610 Uiso
H33 H 0.0828 0.0734 0.1053 0.0610 Uiso
Cu2 Cu 0.23294(4) 0.50982(4) 0.73876(3) 0.0282 Uani
N9 N 0.1528(3) 0.3867(3) 0.8493(3) 0.0300 Uani
N10 N 0.1029(4) 0.2220(3) 0.9693(3) 0.0373 Uani
N12 N 0.3366(3) 0.6140(3) 0.6384(3) 0.0302 Uani
N15 N 0.2082(3) 0.4597(3) 0.6116(3) 0.0304 Uani
N19 N 0.2773(3) 0.5453(3) 0.8700(3) 0.0346 Uani
C21 C 0.0183(4) 0.3290(4) 0.9798(4) 0.0406 Uani
C22 C 0.0501(4) 0.4307(4) 0.9057(3) 0.0346 Uani
H30 H 0.0088 0.5164 0.8948 0.0410 Uiso
C23 C 0.1817(4) 0.2611(4) 0.8897(3) 0.0359 Uani
H31 H 0.2481 0.2063 0.8662 0.0430 Uiso
H35 H 0.0131 0.0919 0.8927 0.0560 Uiso
O7 O 0.0446(3) 0.6704(3) 0.6961(3) 0.0521 Uani
O14 O 0.0540(3) 0.9070(3) 0.6697(3) 0.0522 Uani
O11 O 0.0592(7) 0.8397(5) 0.3501(5) 0.1340 Uani
V3 V 0.95623(6) 0.82100(6) 0.65806(5) 0.0322 Uani
V6 V 0.93328(9) 0.93733(7) 0.37098(6) 0.0469 Uani
C25 C 0.9993(5) 0.0702(4) 0.9726(4) 0.0470 Uani
H34 H 0.9177 0.1271 0.9807 0.0560 Uiso
O8 O 0.8391(4) 0.8363(4) 0.7405(4) 0.0738 Uiso
O9 O 0.8947(4) 0.8834(3) 0.5165(3) 0.0594 Uani
N13 N 0.4057(3) 0.7710(3) 0.5311(3) 0.0318 Uani
C26 C 0.3122(4) 0.7396(4) 0.5935(4) 0.0348 Uani
H36 H 0.2390 0.7988 0.6039 0.0420 Uiso
C27 C 0.4522(4) 0.5628(4) 0.6023(3) 0.0349 Uani
H37 H 0.4942 0.4756 0.6206 0.0420 Uiso
C28 C 0.4957(4) 0.6581(4) 0.5362(4) 0.0391 Uani
H38 H 0.5719 0.6492 0.5008 0.0470 Uiso
C29 C 0.4126(5) 0.9010(4) 0.4710(4) 0.0428 Uani
H39 H 0.4428 0.9092 0.3962 0.0510 Uiso
H40 H 0.3290 0.9629 0.4622 0.0510 Uiso
C30 C 0.4982(4) 0.9315(4) 0.5318(4) 0.0427 Uani
H41 H 0.4688 0.9223 0.6070 0.0510 Uiso
H42 H 0.5823 0.8708 0.5393 0.0510 Uiso
O12 O 0.8224(7) 0.9469(6) 0.2946(4) 0.1239 Uani
N16 N 0.1475(3) 0.4939(3) 0.4418(3) 0.0323 Uani
N17 N 0.3474(3) 0.5082(4) 0.0372(3) 0.0421 Uani
C31 C 0.1722(4) 0.5463(4) 0.5091(3) 0.0319 Uani
H43 H 0.1648 0.6326 0.4864 0.0380 Uiso
C32 C 0.2055(4) 0.3460(4) 0.6089(4) 0.0374 Uani
H44 H 0.2262 0.2673 0.6695 0.0450 Uiso
C33 C 0.1680(4) 0.3670(4) 0.5046(4) 0.0385 Uani
H45 H 0.1581 0.3065 0.4803 0.0460 Uiso
C34 C 0.1047(4) 0.5629(5) 0.3221(3) 0.0410 Uani
H46 H 0.0525 0.5222 0.3042 0.0490 Uiso
H47 H 0.0537 0.6507 0.3100 0.0490 Uiso
C35 C 0.2133(4) 0.5643(4) 0.2431(3) 0.0397 Uani
H48 H 0.2718 0.5934 0.2681 0.0480 Uiso
H49 H 0.1811 0.6257 0.1681 0.0480 Uiso
C36 C 0.2836(4) 0.4340(5) 0.2370(4) 0.0423 Uani
H50 H 0.3166 0.3728 0.3119 0.0510 Uiso
H51 H 0.2251 0.4045 0.2126 0.0510 Uiso
C37 C 0.3916(4) 0.4364(6) 0.1568(4) 0.0538 Uani
H52 H 0.4419 0.3488 0.1673 0.0650 Uiso
H53 H 0.4448 0.4757 0.1753 0.0650 Uiso
H56 H 0.3330 0.6954 0.0013 0.0550 Uiso
C38 C 0.3195(4) 0.4567(5) 0.9709(3) 0.0388 Uani
H54 H 0.3287 0.3701 0.9929 0.0470 Uiso
C39 C 0.2779(4) 0.6591(5) 0.8728(4) 0.0410 Uani
H55 H 0.2523 0.7388 0.8136 0.0490 Uiso
C40 C 0.3222(4) 0.6355(5) 0.9767(4) 0.0457 Uani
V1 V 0.04377(6) 0.17900(6) 0.34194(5) 0.0322 Uani
V2 V 0.06672(9) 0.06267(7) 0.62902(6) 0.0469 Uani
C5 C 0.0007(5) 0.9298(4) 0.0274(4) 0.0470 Uani
H6 H 0.0823 0.8729 0.0193 0.0560 Uiso
O2 O 0.1609(4) 0.1637(4) 0.2595(4) 0.0738 Uiso
O3 O 0.1053(4) 0.1166(3) 0.4835(3) 0.0594 Uani
O5 O 0.1776(7) 0.0531(6) 0.7054(4) 0.1239 Uani
N8 N 0.7227(3) 0.4547(3) 0.1300(3) 0.0346 Uani
C18 C 0.6805(4) 0.5433(5) 0.0291(3) 0.0388 Uani
H26 H 0.6713 0.6299 0.0071 0.0470 Uiso
C19 C 0.7221(4) 0.3409(5) 0.1272(4) 0.0410 Uani
H27 H 0.7477 0.2612 0.1864 0.0490 Uiso
C20 C 0.6778(4) 0.3645(5) 0.0233(4) 0.0457 Uani
Cu3 Cu 0.76706(4) 0.49018(4) 0.26124(3) 0.0282 Uani
N1 N 0.8472(3) 0.6133(3) 0.1507(3) 0.0300 Uani
N2 N 0.8971(4) 0.7780(3) 0.0307(3) 0.0373 Uani
N3 N 0.6634(3) 0.3860(3) 0.3616(3) 0.0302 Uani
N4 N 0.5943(3) 0.2290(3) 0.4689(3) 0.0318 Uani
N5 N 0.7918(3) 0.5403(3) 0.3884(3) 0.0304 Uani
N6 N 0.8525(3) 0.5061(3) 0.5582(3) 0.0323 Uani
N7 N 0.6526(3) 0.4918(4) 0.9628(3) 0.0421 Uani
C1 C 0.9817(4) 0.6710(4) 0.0202(4) 0.0406 Uani
C2 C 0.9499(4) 0.5693(4) 0.0943(3) 0.0346 Uani
H2 H 0.9912 0.4836 0.1052 0.0410 Uiso
C3 C 0.8183(4) 0.7389(4) 0.1103(3) 0.0359 Uani
H3 H 0.7519 0.7937 0.1338 0.0430 Uiso
H7 H 0.9869 0.9081 0.1073 0.0560 Uiso
C6 C 0.6878(4) 0.2604(4) 0.4065(4) 0.0348 Uani
H8 H 0.7610 0.2012 0.3961 0.0420 Uiso
C7 C 0.5478(4) 0.4372(4) 0.3977(3) 0.0349 Uani
H9 H 0.5058 0.5244 0.3794 0.0420 Uiso
C8 C 0.5043(4) 0.3419(4) 0.4638(4) 0.0391 Uani
H10 H 0.4281 0.3508 0.4992 0.0470 Uiso
C9 C 0.5874(5) 0.0990(4) 0.5290(4) 0.0428 Uani
H11 H 0.5572 0.0908 0.6038 0.0510 Uiso
H12 H 0.6710 0.0371 0.5378 0.0510 Uiso
C10 C 0.5018(4) 0.0685(4) 0.4682(4) 0.0427 Uani
H13 H 0.5312 0.0777 0.3930 0.0510 Uiso
H14 H 0.4177 0.1292 0.4607 0.0510 Uiso
C11 C 0.8278(4) 0.4537(4) 0.4909(3) 0.0319 Uani
H15 H 0.8352 0.3674 0.5136 0.0380 Uiso
C12 C 0.7945(4) 0.6540(4) 0.3911(4) 0.0374 Uani
H16 H 0.7738 0.7327 0.3305 0.0450 Uiso
C13 C 0.8320(4) 0.6330(4) 0.4954(4) 0.0385 Uani
H17 H 0.8419 0.6935 0.5197 0.0460 Uiso
C14 C 0.8953(4) 0.4371(5) 0.6779(3) 0.0410 Uani
H18 H 0.9475 0.4778 0.6958 0.0490 Uiso
H19 H 0.9463 0.3493 0.6900 0.0490 Uiso
C15 C 0.7867(4) 0.4357(4) 0.7569(3) 0.0397 Uani
H20 H 0.7282 0.4066 0.7319 0.0480 Uiso
H21 H 0.8189 0.3743 0.8319 0.0480 Uiso
C16 C 0.7164(4) 0.5660(5) 0.7630(4) 0.0423 Uani
H22 H 0.6834 0.6272 0.6881 0.0510 Uiso
H23 H 0.7749 0.5955 0.7874 0.0510 Uiso
C17 C 0.6084(4) 0.5636(6) 0.8432(4) 0.0538 Uani
H24 H 0.5581 0.6512 0.8327 0.0650 Uiso
H25 H 0.5552 0.5243 0.8247 0.0650 Uiso
H28 H 0.6670 0.3046 0.9987 0.0550 Uiso
O1 O 0.9554(3) 0.3296(3) 0.3039(3) 0.0521 Uani
O4 O 0.9408(7) 0.1603(5) 0.6499(5) 0.1340 Uani
O6 O 0.9460(3) 0.0930(3) 0.3303(3) 0.0522 Uani
C4 C 0.9005(5) 0.9100(5) 0.9736(4) 0.0511 Uani
H4 H 0.8194 0.9704 0.9778 0.0610 Uiso
H5 H 0.9172 0.9266 0.8947 0.0610 Uiso
H1 H 0.0480 0.6681 0.9719 0.0480 Uiso
H29 H 0.9520 0.3319 0.0281 0.0480 Uiso
loop_
_atom_site_aniso_label
_atom_site_aniso_U_11
_atom_site_aniso_U_22
_atom_site_aniso_U_33
_atom_site_aniso_U_23
_atom_site_aniso_U_13
_atom_site_aniso_U_12
C24 0.081 0.037 0.039 -0.0008 -0.001 -0.039
Cu2 0.0412 0.0302 0.0216 -0.01017 0.00767 -0.0233
N9 0.0411 0.0292 0.0251 -0.01 0.0054 -0.0193
N10 0.056 0.0328 0.0308 -0.0079 0.0061 -0.0298
N12 0.0417 0.031 0.0267 -0.0126 0.0067 -0.0221
N15 0.0411 0.0324 0.0266 -0.0141 0.0086 -0.0214
N19 0.0405 0.046 0.0276 -0.0164 0.0068 -0.0251
C21 0.049 0.048 0.038 -0.0203 0.0163 -0.031
C22 0.045 0.036 0.031 -0.016 0.009 -0.0212
C23 0.048 0.031 0.032 -0.011 0.0071 -0.0196
O7 0.061 0.0252 0.062 -0.0077 -0.0067 -0.0122
O14 0.062 0.0338 0.067 -0.0198 -0.0041 -0.0207
O11 0.188 0.043 0.122 -0.026 0.073 -0.001
V3 0.0394 0.0266 0.0308 -0.0102 0.0043 -0.0127
V6 0.0792 0.0272 0.0381 -0.0116 -0.0069 -0.0203
C25 0.07 0.035 0.043 -0.009 0.004 -0.033
O9 0.082 0.051 0.041 -0.0081 -0.0106 -0.0239
N13 0.0384 0.0321 0.0313 -0.0102 0.0055 -0.0227
C26 0.038 0.034 0.04 -0.017 0.0114 -0.0199
C27 0.039 0.031 0.04 -0.017 0.0054 -0.0148
C28 0.037 0.042 0.046 -0.0207 0.0137 -0.0208
C29 0.055 0.035 0.041 -0.0038 0.001 -0.03
C30 0.052 0.033 0.046 -0.0069 -0.002 -0.026
O12 0.192 0.128 0.078 -0.005 -0.051 -0.11
N16 0.0345 0.044 0.0283 -0.0199 0.0064 -0.0188
N17 0.0339 0.07 0.0306 -0.0265 0.0069 -0.0198
C31 0.042 0.03 0.0288 -0.0141 0.0063 -0.0158
C32 0.054 0.034 0.035 -0.0159 0.0146 -0.0274
C33 0.049 0.045 0.042 -0.028 0.0179 -0.031
C34 0.037 0.057 0.032 -0.024 0.0001 -0.0102
C35 0.044 0.052 0.0261 -0.0169 0.0025 -0.017
C36 0.042 0.054 0.028 -0.017 -0.0002 -0.01
C37 0.036 0.09 0.033 -0.03 -0.0009 -0.009
C38 0.043 0.05 0.029 -0.0167 0.0057 -0.021
C39 0.049 0.053 0.036 -0.023 0.0141 -0.031
C40 0.048 0.069 0.044 -0.036 0.017 -0.035
V1 0.0394 0.0266 0.0308 -0.0102 0.0043 -0.0127
V2 0.0792 0.0272 0.0381 -0.0116 -0.0069 -0.0203
C5 0.07 0.035 0.043 -0.009 0.004 -0.033
O3 0.082 0.051 0.041 -0.0081 -0.0106 -0.0239
O5 0.192 0.128 0.078 -0.005 -0.051 -0.11
N8 0.0405 0.046 0.0276 -0.0164 0.0068 -0.0251
C18 0.043 0.05 0.029 -0.0167 0.0057 -0.021
C19 0.049 0.053 0.036 -0.023 0.0141 -0.031
C20 0.048 0.069 0.044 -0.036 0.017 -0.035
Cu3 0.0412 0.0302 0.0216 -0.01017 0.00767 -0.0233
N1 0.0411 0.0292 0.0251 -0.01 0.0054 -0.0193
N2 0.056 0.0328 0.0308 -0.0079 0.0061 -0.0298
N3 0.0417 0.031 0.0267 -0.0126 0.0067 -0.0221
N4 0.0384 0.0321 0.0313 -0.0102 0.0055 -0.0227
N5 0.0411 0.0324 0.0266 -0.0141 0.0086 -0.0214
N6 0.0345 0.044 0.0283 -0.0199 0.0064 -0.0188
N7 0.0339 0.07 0.0306 -0.0265 0.0069 -0.0198
C1 0.049 0.048 0.038 -0.0203 0.0163 -0.031
C2 0.045 0.036 0.031 -0.016 0.009 -0.0212
C3 0.048 0.031 0.032 -0.011 0.0071 -0.0196
C6 0.038 0.034 0.04 -0.017 0.0114 -0.0199
C7 0.039 0.031 0.04 -0.017 0.0054 -0.0148
C8 0.037 0.042 0.046 -0.0207 0.0137 -0.0208
C9 0.055 0.035 0.041 -0.0038 0.001 -0.03
C10 0.052 0.033 0.046 -0.0069 -0.002 -0.026
C11 0.042 0.03 0.0288 -0.0141 0.0063 -0.0158
C12 0.054 0.034 0.035 -0.0159 0.0146 -0.0274
C13 0.049 0.045 0.042 -0.028 0.0179 -0.031
C14 0.037 0.057 0.032 -0.024 0.0001 -0.0102
C15 0.044 0.052 0.0261 -0.0169 0.0025 -0.017
C16 0.042 0.054 0.028 -0.017 -0.0002 -0.01
C17 0.036 0.09 0.033 -0.03 -0.0009 -0.009
O1 0.061 0.0252 0.062 -0.0077 -0.0067 -0.0122
O4 0.188 0.043 0.122 -0.026 0.073 -0.001
O6 0.062 0.0338 0.067 -0.0198 -0.0041 -0.0207
C4 0.081 0.037 0.039 -0.0008 -0.001 -0.039
loop_
_geom_bond_atom_site_label_1
_geom_bond_atom_site_label_2
_geom_bond_site_symmetry_1
_geom_bond_site_symmetry_2
H32 C24 1_555 1_555
H33 C24 1_555 1_555
Cu2 N9 1_555 1_555
N9 C22 1_555 1_555
N10 C21 1_555 1_555
N12 Cu2 1_555 1_555
N15 Cu2 1_555 1_555
N19 Cu2 1_555 1_555
C22 C21 1_555 1_555
H30 C22 1_555 1_555
C23 N9 1_555 1_555
H31 C23 1_555 1_555
O7 Cu2 1_555 1_555
N10 C23 1_555 1_555
V6 O9 1_555 1_555
H34 C25 1_555 1_555
O8 V3 1_555 1_555
O9 V3 1_555 1_555
N12 C26 1_555 1_555
N13 C26 1_555 1_555
C26 H36 1_555 1_555
C27 N12 1_555 1_555
H37 C27 1_555 1_555
C28 N13 1_555 1_555
H38 C28 1_555 1_555
C29 N13 1_555 1_555
H39 C29 1_555 1_555
H40 C29 1_555 1_555
H41 C30 1_555 1_555
H42 C30 1_555 1_555
O12 V6 1_555 1_555
C27 C28 1_555 1_555
C29 C30 1_555 1_555
N15 C31 1_555 1_555
N16 C31 1_555 1_555
N17 C37 1_555 1_555
C31 H43 1_555 1_555
C32 N15 1_555 1_555
H44 C32 1_555 1_555
C33 N16 1_555 1_555
H45 C33 1_555 1_555
C34 N16 1_555 1_555
H46 C34 1_555 1_555
H47 C34 1_555 1_555
C35 C34 1_555 1_555
H48 C35 1_555 1_555
H49 C35 1_555 1_555
C36 C35 1_555 1_555
H50 C36 1_555 1_555
H51 C36 1_555 1_555
C37 C36 1_555 1_555
H52 C37 1_555 1_555
H53 C37 1_555 1_555
C32 C33 1_555 1_555
H54 C38 1_555 1_555
C39 N19 1_555 1_555
H55 C39 1_555 1_555
N19 C38 1_555 1_555
C39 C40 1_555 1_555
V2 O3 1_555 1_555
H6 C5 1_555 1_555
O2 V1 1_555 1_555
O3 V1 1_555 1_555
O5 V2 1_555 1_555
N8 C18 1_555 1_555
H26 C18 1_555 1_555
C19 N8 1_555 1_555
H27 C19 1_555 1_555
Cu3 N8 1_555 1_555
C19 C20 1_555 1_555
Cu3 N1 1_555 1_555
N1 C2 1_555 1_555
N2 C1 1_555 1_555
N3 Cu3 1_555 1_555
N4 C6 1_555 1_555
N5 Cu3 1_555 1_555
N6 C11 1_555 1_555
N7 C17 1_555 1_555
C2 C1 1_555 1_555
H2 C2 1_555 1_555
C3 N1 1_555 1_555
H3 C3 1_555 1_555
C6 N3 1_555 1_555
H8 C6 1_555 1_555
C7 N3 1_555 1_555
H9 C7 1_555 1_555
C8 N4 1_555 1_555
H10 C8 1_555 1_555
C9 N4 1_555 1_555
H11 C9 1_555 1_555
H12 C9 1_555 1_555
C10 C9 1_555 1_555
H13 C10 1_555 1_555
H14 C10 1_555 1_555
C11 N5 1_555 1_555
H15 C11 1_555 1_555
C12 N5 1_555 1_555
H16 C12 1_555 1_555
C13 N6 1_555 1_555
H17 C13 1_555 1_555
C14 N6 1_555 1_555
H18 C14 1_555 1_555
H19 C14 1_555 1_555
C15 C14 1_555 1_555
H20 C15 1_555 1_555
H21 C15 1_555 1_555
C16 C15 1_555 1_555
H22 C16 1_555 1_555
H23 C16 1_555 1_555
C17 C16 1_555 1_555
H24 C17 1_555 1_555
H25 C17 1_555 1_555
O1 Cu3 1_555 1_555
N2 C3 1_555 1_555
C7 C8 1_555 1_555
C12 C13 1_555 1_555
H4 C4 1_555 1_555
H5 C4 1_555 1_555

#END
