
###############################################################################
#
# This file contains modified crystal structure data generated from the
# MOF subset of the Cambridge Structural Database (CSD) v543 
# hosted by the Cambridge Crystallographic Data Centre (CCDC).
#
# This work is licensed under the Creative Commons
# Attribution-NonCommercial-ShareAlike 4.0 International License.
# To view a copy of this license, visit
# http://creativecommons.org/licenses/by-nc-sa/4.0/
# or send a letter to
# Creative Commons, PO Box 1866, Mountain View, CA 94042, USA.
#
# CIF created using the CSD Python API on 29 September 2022
# The structure has been converted into the P1 space group
# The structure has a 3D framework
# The original CSD entry OBAFIJ is in the monoclinic crystal system
# The framework has been calculated to contain at least 10.0% void space
# The void calculation uses a probe of radius 1.32A, grid spacing 0.4
#
###############################################################################

data_OBAFIJ
_chemical_formula_moiety         '(C84 H76 Cu16 I16 N16 O24 Tb4)n'
_symmetry_cell_setting           triclinic
_symmetry_space_group_name_H-M   'P 1'
_symmetry_Int_Tables_number      1
_space_group_name_Hall           'P 1'
loop_
_symmetry_equiv_pos_site_id
_symmetry_equiv_pos_as_xyz
1 x,y,z
_cell_length_a                   15.318(2)
_cell_length_b                   8.0546(13)
_cell_length_c                   29.444(5)
_cell_angle_alpha                90
_cell_angle_beta                 99.920(2)
_cell_angle_gamma                90
_cell_volume                     3578.5
loop_
_atom_site_label
_atom_site_type_symbol
_atom_site_fract_x
_atom_site_fract_y
_atom_site_fract_z
Cu1 Cu 0.57051(11) 0.5779(2) 0.75201(5)
Cu2 Cu 0.64402(10) 0.3058(2) 0.71545(5)
Cu3 Cu 0.49341(10) 0.4277(2) 0.67191(6)
Cu4 Cu 0.64929(10) 0.6231(2) 0.68094(6)
I1 I 0.62658(5) 0.33490(10) 0.62510(3)
I2 I 0.74951(5) 0.54561(10) 0.76144(3)
I3 I 0.50263(5) 0.27190(11) 0.75243(3)
I4 I 0.49067(5) 0.75368(10) 0.67525(3)
O7 O 0.0821(6) 0.2000(12) 0.5435(3)
N3 N 0.3817(7) 0.3225(14) 0.6355(4)
C7 C 0.2305(8) 0.1776(17) 0.5849(4)
C9 C 0.3798(9) 0.1617(19) 0.6246(5)
H4 H 0.4313 0.0967 0.6346
C12 C 0.3057(8) 0.0853(17) 0.5992(4)
C13 C 0.3080(8) 0.4098(17) 0.6226(5)
H8 H 0.3076 0.5232 0.6314
C16 C 0.2308(8) 0.3430(16) 0.5966(4)
H11 H 0.1799 0.4102 0.5872
C17 C 0.1457(8) 0.1003(18) 0.5555(5)
Cu6 Cu 0.85598(10) 0.8058(2) 0.78455(5)
I5 I 0.75049(5) 0.04561(10) 0.73856(3)
N5 N 0.7307(7) 0.7478(14) 0.6448(4)
N6 N 0.5447(7) 0.7230(13) 0.8038(4)
Tb1 Tb 0.04775(4) 0.74556(7) 0.50960(2)
O2 O 0.1466(6) 0.9479(11) 0.5477(3)
O5 O 0.0777(6) 0.6260(11) 0.5899(3)
O6 O 0.1833(6) 0.6120(12) 0.5119(3)
C1 C 0.0176(9) 0.5178(16) 0.5835(4)
N4 N 0.3282(8) 0.5446(17) 0.5176(4)
C6 C 0.0375(9) 0.2831(18) 0.6962(5)
H2 H 0.0826 0.2572 0.7216
C8 C 0.0596(9) 0.3803(18) 0.6612(5)
H3 H 0.1182 0.4223 0.6635
C11 C 0.2639(9) 0.6400(18) 0.5267(5)
H6 H 0.2791 0.7352 0.5455
H7 H 0.3069 0.9706 0.5919
C20 C 0.4179(12) 0.574(3) 0.5410(7)
H14 H 0.4578 0.4929 0.5305
H15 H 0.4362 0.6864 0.5341
H16 H 0.4205 0.5624 0.5744
C21 C 0.3124(11) 0.398(2) 0.4882(6)
H17 H 0.3692 0.3452 0.4860
H18 H 0.2750 0.3197 0.5016
H19 H 0.2826 0.4311 0.4574
O8 O 0.0261(6) 0.5045(11) 0.4573(3)
O9 O 0.1150(6) 0.8778(11) 0.4526(3)
O4 O 0.8850(6) 0.1222(11) 0.5474(3)
H9 H 0.7301 0.0348 0.5685
Tb3 Tb 0.95225(4) 0.25444(7) 0.49040(2)
O1 O 0.9739(6) 0.4955(11) 0.5427(3)
O3 O 0.9611(6) 0.8876(12) 0.5514(3)
N2 N 0.9553(7) 0.2230(13) 0.6962(4)
C2 C 0.8419(8) 0.9035(16) 0.5923(5)
C3 C 0.9971(8) 0.4163(16) 0.6231(4)
C4 C 0.9104(8) 0.3573(16) 0.6225(4)
H1 H 0.8645 0.3810 0.5972
C5 C 0.9000(8) 0.9798(16) 0.5617(4)
C10 C 0.8932(8) 0.2643(16) 0.6594(5)
H5 H 0.8343 0.2270 0.6590
C14 C 0.7539(8) 0.9486(16) 0.5889(5)
C15 C 0.7007(9) 0.8679(17) 0.6154(5)
H10 H 0.6403 0.8997 0.6123
C18 C 0.8735(9) 0.7803(16) 0.6236(5)
H12 H 0.9336 0.7459 0.6272
C19 C 0.8164(9) 0.7073(18) 0.6498(5)
H13 H 0.8392 0.6258 0.6720
Cu5 Cu 0.92949(11) 0.0779(2) 0.74799(5)
O10 O 0.9179(6) 0.8000(12) 0.4565(3)
Tb3_2 Tb 0.54775(4) 0.75444(7) 0.00960(2)
O8_2 O 0.4739(6) 0.0045(11) 0.0427(3)
O9_2 O 0.3850(6) 0.3778(11) 0.0474(3)
O10_2 O 0.5821(6) 0.3000(12) 0.0435(3)
Tb1_2 Tb 0.45225(4) 0.24556(7) 0.99040(2)
Cu3_2 Cu 0.00659(10) 0.9277(2) 0.82809(6)
O2_2 O 0.3534(6) 0.4479(11) 0.9523(3)
O3_2 O 0.5389(6) 0.3876(12) 0.9486(3)
O4_2 O 0.6150(6) 0.6222(11) 0.9526(3)
O5_2 O 0.4223(6) 0.1260(11) 0.9101(3)
O6_2 O 0.3167(6) 0.1120(12) 0.9881(3)
O7_2 O 0.4179(6) 0.7000(12) 0.9565(3)
N1 N 0.7693(7) 0.2478(14) 0.8552(4)
N3_2 N 0.1183(7) 0.8225(14) 0.8645(4)
C1_2 C 0.4824(9) 0.0178(16) 0.9165(4)
C2_2 C 0.6581(8) 0.4035(16) 0.9077(5)
N4_2 N 0.1718(8) 0.0446(17) 0.9824(4)
C5_2 C 0.6000(8) 0.4798(16) 0.9383(4)
C7_2 C 0.2695(8) 0.6776(17) 0.9151(4)
C9_2 C 0.1202(9) 0.6617(19) 0.8754(5)
H4_2 H 0.0687 0.5967 0.8654
C11_2 C 0.2361(9) 0.1400(18) 0.9733(5)
H6_2 H 0.2209 0.2352 0.9545
C12_2 C 0.1943(8) 0.5853(17) 0.9008(4)
H7_2 H 0.1931 0.4706 0.9081
C13_2 C 0.1920(8) 0.9098(17) 0.8774(5)
C14_2 C 0.7461(8) 0.4486(16) 0.9111(5)
H9_2 H 0.7699 0.5348 0.9315
C15_2 C 0.7993(9) 0.3679(17) 0.8846(5)
H10_2 H 0.8597 0.3997 0.8877
C16_2 C 0.2692(8) 0.8430(16) 0.9034(4)
H11_2 H 0.3201 0.9102 0.9128
C17_2 C 0.3543(8) 0.6003(18) 0.9445(5)
C18_2 C 0.6265(9) 0.2803(16) 0.8764(5)
H12_2 H 0.5664 0.2459 0.8728
C19_2 C 0.6836(9) 0.2073(18) 0.8502(5)
H13_2 H 0.6608 0.1258 0.8280
C20_2 C 0.0821(12) 0.074(3) 0.9590(7)
H15_2 H 0.0638 0.1864 0.9659
H16_2 H 0.0795 0.0624 0.9256
Cu7 Cu 0.85071(10) 0.1231(2) 0.81906(6)
C21_2 C 0.1876(11) 0.898(2) 0.0118(6)
H17_2 H 0.1308 0.8452 0.0140
H19_2 H 0.2174 0.9311 0.0426
O1_2 O 0.5261(6) 0.9955(11) 0.9573(3)
C3_2 C 0.5029(8) 0.9163(16) 0.8769(4)
C4_2 C 0.5896(8) 0.8573(16) 0.8775(4)
H1_2 H 0.6355 0.8810 0.9028
C6_2 C 0.4625(9) 0.7831(18) 0.8038(5)
H2_2 H 0.4174 0.7572 0.7784
C8_2 C 0.4404(9) 0.8803(18) 0.8388(5)
H3_2 H 0.3818 0.9223 0.8365
C10_2 C 0.6068(8) 0.7643(16) 0.8406(5)
H5_2 H 0.6657 0.7270 0.8410
H14_2 H 0.0422 0.9929 0.9695
H18_2 H 0.2250 0.8197 0.9984
I1_2 I 0.87342(5) 0.83490(10) 0.87490(3)
I3_2 I 0.99737(5) 0.77190(11) 0.74757(3)
O3_3 O 0.0389(6) 0.1124(12) 0.4486(3)
N1_2 N 0.2693(7) 0.2522(14) 0.3552(4)
N2_2 N 0.0447(7) 0.7770(13) 0.3038(4)
C2_3 C 0.1581(8) 0.0965(16) 0.4077(5)
C3_3 C 0.0029(8) 0.5837(16) 0.3769(4)
C4_3 C 0.0896(8) 0.6427(16) 0.3775(4)
H1_3 H 0.1355 0.6190 0.4028
C5_3 C 0.1000(8) 0.0202(16) 0.4383(4)
C10_3 C 0.1068(8) 0.7357(16) 0.3406(5)
H5_3 H 0.1657 0.7730 0.3410
C14_3 C 0.2461(8) 0.0514(16) 0.4111(5)
C15_3 C 0.2993(9) 0.1321(17) 0.3846(5)
H10_3 H 0.3597 0.1003 0.3877
C18_3 C 0.1265(9) 0.2197(16) 0.3764(5)
H12_3 H 0.0664 0.2541 0.3728
C19_3 C 0.1836(9) 0.2927(18) 0.3502(5)
H13_3 H 0.1608 0.3742 0.3280
Cu5_2 Cu 0.07051(11) 0.9221(2) 0.25201(5)
Cu7_2 Cu 0.35071(10) 0.3769(2) 0.31906(6)
H9_3 H 0.2699 0.9652 0.4315
O2_3 O 0.8534(6) 0.0521(11) 0.4523(3)
O5_3 O 0.9223(6) 0.3740(11) 0.4101(3)
O6_3 O 0.8167(6) 0.3880(12) 0.4881(3)
C1_3 C 0.9824(9) 0.4822(16) 0.4165(4)
N4_3 N 0.6718(8) 0.4554(17) 0.4824(4)
C6_3 C 0.9625(9) 0.7169(18) 0.3038(5)
H2_3 H 0.9174 0.7428 0.2784
C8_3 C 0.9404(9) 0.6197(18) 0.3388(5)
H3_3 H 0.8818 0.5777 0.3365
C11_3 C 0.7361(9) 0.3600(18) 0.4733(5)
H6_3 H 0.7209 0.2648 0.4545
H7_3 H 0.6931 0.0294 0.4081
C20_3 C 0.5821(12) 0.426(3) 0.4590(7)
H14_3 H 0.5422 0.5071 0.4695
H15_3 H 0.5638 0.3136 0.4659
H16_3 H 0.5795 0.4376 0.4256
C21_3 C 0.6876(11) 0.602(2) 0.5118(6)
H17_3 H 0.6308 0.6548 0.5140
H18_3 H 0.7250 0.6803 0.4984
H19_3 H 0.7174 0.5689 0.5426
Cu1_2 Cu 0.42949(11) 0.4221(2) 0.24799(5)
Cu2_2 Cu 0.35598(10) 0.6942(2) 0.28455(5)
Cu3_3 Cu 0.50659(10) 0.5723(2) 0.32809(6)
I1_3 I 0.37342(5) 0.66510(10) 0.37490(3)
I2_2 I 0.25049(5) 0.45439(10) 0.23856(3)
I3_3 I 0.49737(5) 0.72810(11) 0.24757(3)
I4_2 I 0.50933(5) 0.24632(10) 0.32475(3)
N3_3 N 0.6183(7) 0.6775(14) 0.3645(4)
C7_3 C 0.7695(8) 0.8224(17) 0.4151(4)
C9_3 C 0.6202(9) 0.8383(19) 0.3754(5)
H4_3 H 0.5687 0.9033 0.3654
C12_3 C 0.6943(8) 0.9147(17) 0.4008(4)
C13_3 C 0.6920(8) 0.5902(17) 0.3774(5)
H8_2 H 0.6924 0.4768 0.3686
C16_3 C 0.7692(8) 0.6570(16) 0.4034(4)
H11_3 H 0.8201 0.5898 0.4128
C17_3 C 0.8543(8) 0.8997(18) 0.4445(5)
Cu6_2 Cu 0.14402(10) 0.1942(2) 0.21545(5)
I5_2 I 0.24951(5) 0.95439(10) 0.26144(3)
N6_2 N 0.4553(7) 0.2770(13) 0.1962(4)
I1_4 I 0.12658(5) 0.16510(10) 0.12510(3)
I3_4 I 0.00263(5) 0.22810(11) 0.25243(3)
Cu4_2 Cu 0.14929(10) 0.8769(2) 0.18094(6)
N5_2 N 0.2307(7) 0.7522(14) 0.1448(4)
C3_4 C 0.4971(8) 0.0837(16) 0.1231(4)
C4_4 C 0.4104(8) 0.1427(16) 0.1225(4)
H1_4 H 0.3645 0.1190 0.0972
C6_4 C 0.5375(9) 0.2169(18) 0.1962(5)
H2_4 H 0.5826 0.2428 0.2216
C8_4 C 0.5596(9) 0.1197(18) 0.1612(5)
H3_4 H 0.6182 0.0777 0.1635
C10_4 C 0.3932(8) 0.2357(16) 0.1594(5)
H5_4 H 0.3343 0.2730 0.1590
H14_4 H 0.9578 0.0071 0.0305
H18_4 H 0.7750 0.1803 0.0016
C21_4 C 0.8124(11) 0.102(2) 0.9882(6)
H17_4 H 0.8692 0.1548 0.9860
H19_4 H 0.7826 0.0689 0.9574
Cu3_4 Cu 0.99341(10) 0.0723(2) 0.17191(6)
O2_4 O 0.6466(6) 0.5521(11) 0.0477(3)
O3_4 O 0.4611(6) 0.6124(12) 0.0514(3)
O5_4 O 0.5777(6) 0.8740(11) 0.0899(3)
O6_4 O 0.6833(6) 0.8880(12) 0.0119(3)
N3_4 N 0.8817(7) 0.1775(14) 0.1355(4)
C1_4 C 0.5176(9) 0.9822(16) 0.0835(4)
C2_4 C 0.3419(8) 0.5965(16) 0.0923(5)
N4_4 N 0.8282(8) 0.9554(17) 0.0176(4)
C5_4 C 0.4000(8) 0.5202(16) 0.0617(4)
C7_4 C 0.7305(8) 0.3224(17) 0.0849(4)
C9_4 C 0.8798(9) 0.3383(19) 0.1246(5)
H4_4 H 0.9313 0.4033 0.1346
C11_4 C 0.7639(9) 0.8600(18) 0.0267(5)
H6_4 H 0.7791 0.7648 0.0455
C12_4 C 0.8057(8) 0.4147(17) 0.0992(4)
H7_4 H 0.8069 0.5294 0.0919
C13_4 C 0.8080(8) 0.0902(17) 0.1226(5)
C14_4 C 0.2539(8) 0.5514(16) 0.0889(5)
H9_4 H 0.2301 0.4652 0.0685
C15_4 C 0.2007(9) 0.6321(17) 0.1154(5)
H10_4 H 0.1403 0.6003 0.1123
C16_4 C 0.7308(8) 0.1570(16) 0.0966(4)
H11_4 H 0.6799 0.0898 0.0872
C17_4 C 0.6457(8) 0.3997(18) 0.0555(5)
C18_4 C 0.3735(9) 0.7197(16) 0.1236(5)
H12_4 H 0.4336 0.7541 0.1272
C19_4 C 0.3164(9) 0.7927(18) 0.1498(5)
H13_4 H 0.3392 0.8742 0.1720
C20_4 C 0.9179(12) 0.926(3) 0.0410(7)
H15_4 H 0.9362 0.8136 0.0341
H16_4 H 0.9205 0.9376 0.0744
I4_3 I 0.00933(5) 0.25368(10) 0.82475(3)
H8_3 H 0.1924 0.0232 0.8686
I4_4 I 0.99067(5) 0.74632(10) 0.17525(3)
H8_4 H 0.8076 0.9768 0.1314
loop_
_geom_bond_atom_site_label_1
_geom_bond_atom_site_label_2
_geom_bond_site_symmetry_1
_geom_bond_site_symmetry_2
Cu1 I2 1_555 1_555
Cu2 I1 1_555 1_555
Cu3 I1 1_555 1_555
Cu4 I1 1_555 1_555
I2 Cu2 1_555 1_555
I3 Cu1 1_555 1_555
I4 Cu1 1_555 1_555
O7 C17 1_555 1_555
N3 Cu3 1_555 1_555
C7 C12 1_555 1_555
C9 N3 1_555 1_555
H4 C9 1_555 1_555
C12 C9 1_555 1_555
C13 N3 1_555 1_555
H8 C13 1_555 1_555
C16 C7 1_555 1_555
H11 C16 1_555 1_555
Cu6 I2 1_555 1_555
I5 Cu2 1_555 1_555
N5 Cu4 1_555 1_555
N6 Cu1 1_555 1_555
Cu2 I3 1_555 1_555
Cu3 I3 1_555 1_555
Cu3 I4 1_555 1_555
Cu4 I2 1_555 1_555
Cu4 I4 1_555 1_555
C7 C17 1_555 1_555
C13 C16 1_555 1_555
O2 Tb1 1_555 1_555
O5 Tb1 1_555 1_555
O6 Tb1 1_555 1_555
C1 O5 1_555 1_555
N4 C11 1_555 1_555
C6 H2 1_555 1_555
H3 C8 1_555 1_555
C11 O6 1_555 1_555
H6 C11 1_555 1_555
C20 N4 1_555 1_555
H14 C20 1_555 1_555
H15 C20 1_555 1_555
H16 C20 1_555 1_555
C21 N4 1_555 1_555
H17 C21 1_555 1_555
H18 C21 1_555 1_555
H19 C21 1_555 1_555
O8 Tb1 1_555 1_555
O9 Tb1 1_555 1_555
C6 C8 1_555 1_555
Tb3 O4 1_555 1_555
N5 C15 1_555 1_555
C2 C5 1_555 1_555
C4 C3 1_555 1_555
H1 C4 1_555 1_555
C5 O3 1_555 1_555
C10 N2 1_555 1_555
H5 C10 1_555 1_555
C14 C2 1_555 1_555
C15 C14 1_555 1_555
H10 C15 1_555 1_555
C18 C2 1_555 1_555
H12 C18 1_555 1_555
C19 N5 1_555 1_555
H13 C19 1_555 1_555
Tb3 O1 1_555 1_555
Cu5 N2 1_555 1_555
C4 C10 1_555 1_555
C18 C19 1_555 1_555
O2_2 Tb1_2 1_555 1_555
O3_2 Tb1_2 1_555 1_555
O4_2 C5_2 1_555 1_555
O5_2 Tb1_2 1_555 1_555
O6_2 Tb1_2 1_555 1_555
O7_2 C17_2 1_555 1_555
N1 C15_2 1_555 1_555
N3_2 Cu3_2 1_555 1_555
C1_2 O5_2 1_555 1_555
C2_2 C5_2 1_555 1_555
N4_2 C11_2 1_555 1_555
C5_2 O3_2 1_555 1_555
C7_2 C12_2 1_555 1_555
C9_2 N3_2 1_555 1_555
H4_2 C9_2 1_555 1_555
C11_2 O6_2 1_555 1_555
H6_2 C11_2 1_555 1_555
C12_2 C9_2 1_555 1_555
H7_2 C12_2 1_555 1_555
C13_2 N3_2 1_555 1_555
C14_2 C2_2 1_555 1_555
H9_2 C14_2 1_555 1_555
C15_2 C14_2 1_555 1_555
H10_2 C15_2 1_555 1_555
C16_2 C7_2 1_555 1_555
H11_2 C16_2 1_555 1_555
C17_2 O2_2 1_555 1_555
C18_2 C2_2 1_555 1_555
H12_2 C18_2 1_555 1_555
C19_2 N1 1_555 1_555
H13_2 C19_2 1_555 1_555
C20_2 N4_2 1_555 1_555
H15_2 C20_2 1_555 1_555
H16_2 C20_2 1_555 1_555
Cu7 N1 1_555 1_555
C7_2 C17_2 1_555 1_555
C13_2 C16_2 1_555 1_555
C18_2 C19_2 1_555 1_555
H17_2 C21_2 1_555 1_555
H19_2 C21_2 1_555 1_555
N6 C6_2 1_555 1_555
C4_2 C3_2 1_555 1_555
H1_2 C4_2 1_555 1_555
C6_2 H2_2 1_555 1_555
C8_2 C3_2 1_555 1_555
H3_2 C8_2 1_555 1_555
C10_2 N6 1_555 1_555
H5_2 C10_2 1_555 1_555
C4_2 C10_2 1_555 1_555
C6_2 C8_2 1_555 1_555
Cu5 I5 1_555 1_555
Cu7 I5 1_555 1_555
Cu6 I1_2 1_555 1_555
Cu6 I3_2 1_555 1_555
N1_2 C15_3 1_555 1_555
C2_3 C5_3 1_555 1_555
C4_3 C3_3 1_555 1_555
H1_3 C4_3 1_555 1_555
C5_3 O3_3 1_555 1_555
C10_3 N2_2 1_555 1_555
H5_3 C10_3 1_555 1_555
C14_3 C2_3 1_555 1_555
C15_3 C14_3 1_555 1_555
H10_3 C15_3 1_555 1_555
C18_3 C2_3 1_555 1_555
H12_3 C18_3 1_555 1_555
C19_3 N1_2 1_555 1_555
H13_3 C19_3 1_555 1_555
Cu5_2 N2_2 1_555 1_555
Cu7_2 N1_2 1_555 1_555
C4_3 C10_3 1_555 1_555
C18_3 C19_3 1_555 1_555
O2_3 Tb3 1_555 1_555
O5_3 Tb3 1_555 1_555
O6_3 Tb3 1_555 1_555
C1_3 O5_3 1_555 1_555
N4_3 C11_3 1_555 1_555
C6_3 H2_3 1_555 1_555
H3_3 C8_3 1_555 1_555
C11_3 O6_3 1_555 1_555
H6_3 C11_3 1_555 1_555
C20_3 N4_3 1_555 1_555
H14_3 C20_3 1_555 1_555
H15_3 C20_3 1_555 1_555
H16_3 C20_3 1_555 1_555
C21_3 N4_3 1_555 1_555
H17_3 C21_3 1_555 1_555
H18_3 C21_3 1_555 1_555
H19_3 C21_3 1_555 1_555
C6_3 C8_3 1_555 1_555
Cu1_2 I2_2 1_555 1_555
Cu2_2 I1_3 1_555 1_555
Cu3_3 I1_3 1_555 1_555
Cu7_2 I1_3 1_555 1_555
I2_2 Cu2_2 1_555 1_555
I3_3 Cu1_2 1_555 1_555
I4_2 Cu1_2 1_555 1_555
O10 C17_3 1_555 1_555
N3_3 Cu3_3 1_555 1_555
C7_3 C12_3 1_555 1_555
C9_3 N3_3 1_555 1_555
H4_3 C9_3 1_555 1_555
C12_3 C9_3 1_555 1_555
C13_3 N3_3 1_555 1_555
H8_2 C13_3 1_555 1_555
C16_3 C7_3 1_555 1_555
H11_3 C16_3 1_555 1_555
Cu6_2 I2_2 1_555 1_555
I5_2 Cu2_2 1_555 1_555
N6_2 Cu1_2 1_555 1_555
Cu2_2 I3_3 1_555 1_555
Cu3_3 I3_3 1_555 1_555
Cu3_3 I4_2 1_555 1_555
Cu7_2 I2_2 1_555 1_555
Cu7_2 I4_2 1_555 1_555
C7_3 C17_3 1_555 1_555
C13_3 C16_3 1_555 1_555
Cu6_2 I1_4 1_555 1_555
Cu6_2 I3_4 1_555 1_555
Cu5_2 I5_2 1_555 1_555
N5_2 Cu4_2 1_555 1_555
Cu4_2 I5_2 1_555 1_555
N6_2 C6_4 1_555 1_555
C4_4 C3_4 1_555 1_555
H1_4 C4_4 1_555 1_555
C6_4 H2_4 1_555 1_555
C8_4 C3_4 1_555 1_555
H3_4 C8_4 1_555 1_555
C10_4 N6_2 1_555 1_555
H5_4 C10_4 1_555 1_555
C4_4 C10_4 1_555 1_555
C6_4 C8_4 1_555 1_555
H17_4 C21_4 1_555 1_555
H19_4 C21_4 1_555 1_555
O2_4 Tb3_2 1_555 1_555
O3_4 Tb3_2 1_555 1_555
O9_2 C5_4 1_555 1_555
O5_4 Tb3_2 1_555 1_555
O6_4 Tb3_2 1_555 1_555
O10_2 C17_4 1_555 1_555
N5_2 C15_4 1_555 1_555
N3_4 Cu3_4 1_555 1_555
C1_4 O5_4 1_555 1_555
C2_4 C5_4 1_555 1_555
N4_4 C11_4 1_555 1_555
C5_4 O3_4 1_555 1_555
C7_4 C12_4 1_555 1_555
C9_4 N3_4 1_555 1_555
H4_4 C9_4 1_555 1_555
C11_4 O6_4 1_555 1_555
H6_4 C11_4 1_555 1_555
C12_4 C9_4 1_555 1_555
H7_4 C12_4 1_555 1_555
C13_4 N3_4 1_555 1_555
C14_4 C2_4 1_555 1_555
H9_4 C14_4 1_555 1_555
C15_4 C14_4 1_555 1_555
H10_4 C15_4 1_555 1_555
C16_4 C7_4 1_555 1_555
H11_4 C16_4 1_555 1_555
C17_4 O2_4 1_555 1_555
C18_4 C2_4 1_555 1_555
H12_4 C18_4 1_555 1_555
C19_4 N5_2 1_555 1_555
H13_4 C19_4 1_555 1_555
C20_4 N4_4 1_555 1_555
H15_4 C20_4 1_555 1_555
H16_4 C20_4 1_555 1_555
C7_4 C17_4 1_555 1_555
C13_4 C16_4 1_555 1_555
C18_4 C19_4 1_555 1_555

#END
