
###############################################################################
#
# This file contains modified crystal structure data generated from the
# MOF subset of the Cambridge Structural Database (CSD) v543 
# hosted by the Cambridge Crystallographic Data Centre (CCDC).
#
# This work is licensed under the Creative Commons
# Attribution-NonCommercial-ShareAlike 4.0 International License.
# To view a copy of this license, visit
# http://creativecommons.org/licenses/by-nc-sa/4.0/
# or send a letter to
# Creative Commons, PO Box 1866, Mountain View, CA 94042, USA.
#
# CIF created using the CSD Python API on 29 September 2022
# The structure has been converted into the P1 space group
# The structure has a 3D framework
# The original CSD entry OBAYUP is in the monoclinic crystal system
# The framework has been calculated to contain at least 10.0% void space
# The void calculation uses a probe of radius 1.32A, grid spacing 0.4
# H atom positions have been added when not included in the experimental data
#
###############################################################################

data_OBAYUP
_chemical_formula_moiety         '(C72 H52 Ce6 N12 O54)n'
_symmetry_cell_setting           triclinic
_symmetry_space_group_name_H-M   'P 1'
_symmetry_Int_Tables_number      1
_space_group_name_Hall           'P 1'
loop_
_symmetry_equiv_pos_site_id
_symmetry_equiv_pos_as_xyz
1 x,y,z
_cell_length_a                   10.9170(6)
_cell_length_b                   18.7030(11)
_cell_length_c                   13.1224(7)
_cell_angle_alpha                90
_cell_angle_beta                 108.075(2)
_cell_angle_gamma                90
_cell_volume                     2547.12
loop_
_atom_site_label
_atom_site_type_symbol
_atom_site_fract_x
_atom_site_fract_y
_atom_site_fract_z
Ce5 Ce 0.00942(3) 0.24890(2) 0.00487(2)
O18 O 0.0870(4) 0.6808(2) 0.1865(3)
O22 O 0.1784(4) 0.6608(2) 0.0629(3)
N4 N 0.5182(4) 0.7545(3) 0.0231(4)
O25 O 0.1598(4) 0.8395(2) 0.0972(3)
Ce2 Ce 0.51653(3) 0.76114(2) 0.82575(2)
O1 O 0.3639(4) 0.7434(2) 0.6373(3)
O2 O 0.8923(4) 0.6208(2) 0.9888(3)
O3 O 0.9130(4) 0.3192(2) 0.8135(3)
O4 O 0.2343(4) 0.7468(2) 0.4720(3)
O5 O 0.6418(4) 0.3149(2) 0.6766(3)
O6 O 0.1351(4) 0.7707(2) 0.8844(3)
O7 O 0.3036(4) 0.7921(3) 0.8293(3)
O8 O 0.8216(4) 0.3392(2) 0.9371(3)
O9 O 0.5911(4) 0.3816(2) 0.5320(3)
O10 O 0.9181(4) 0.6658(2) 0.8426(3)
N1 N 0.0182(4) 0.7455(3) 0.5231(4)
C1 C 0.7041(5) 0.4370(3) 0.6989(4)
O11 O 0.6274(5) 0.6727(2) 0.7551(4)
C2 C 0.8088(5) 0.5558(3) 0.8249(4)
C3 C 0.7197(5) 0.5657(3) 0.7228(4)
C4 C 0.7916(5) 0.4277(3) 0.8021(4)
C5 C 0.2521(5) 0.7473(3) 0.5724(4)
O12 O 0.5429(5) 0.8847(3) 0.8797(4)
C6 C 0.8408(5) 0.3567(3) 0.8509(4)
C7 C 0.8763(6) 0.6184(3) 0.8898(5)
O13 O 0.6598(4) 0.6605(2) 0.5972(3)
C8 C 0.6661(6) 0.6387(3) 0.6878(5)
O14 O 0.4186(6) 0.6409(3) 0.8342(5)
C9 C 0.1339(6) 0.7522(3) 0.6050(5)
C10 C 0.8426(6) 0.4874(3) 0.8630(5)
H1 H 0.900998 0.481235 0.931095
C11 C 0.1086(5) 0.7607(3) 0.7017(5)
C12 C 0.6416(5) 0.3743(3) 0.6315(5)
C13 C 0.6690(6) 0.5064(3) 0.6608(5)
H2 H 0.610735 0.512812 0.592685
C14 C 0.1888(6) 0.7743(3) 0.8132(5)
N2 N 0.4663(8) 0.9950(4) 0.8222(6)
C16 C 0.5458(9) 0.9517(4) 0.8898(8)
H5 H 0.607789 0.971530 0.948433
C17 C 0.3699(10) 0.9668(5) 0.7259(8)
H6 H 0.390991 0.981718 0.663377
H7 H 0.286272 0.984820 0.722331
H8 H 0.369275 0.915551 0.729069
Ce3 Ce 0.99058(3) 0.75110(2) 0.99513(2)
Ce4 Ce 0.50942(3) 0.25110(2) 0.50487(2)
Ce6 Ce 0.49058(3) 0.74890(2) 0.49513(2)
Ce7 Ce 0.98347(3) 0.26114(2) 0.67425(2)
Ce8 Ce 0.01653(3) 0.73886(2) 0.32575(2)
O17 O 0.5870(4) 0.8192(2) 0.6865(3)
O20 O 0.7343(4) 0.7532(2) 0.9720(3)
H12 H 0.438512 0.608231 0.781805
H13 H 0.45476 0.620942 0.907559
O15 O 0.8639(4) 0.7566(2) 0.1373(3)
C15 C 0.9283(6) 0.7493(3) 0.5691(5)
H3 H 0.840911 0.745326 0.531953
N3 N 0.9739(5) 0.7594(3) 0.6744(4)
H4 H 0.929201 0.764128 0.717596
O21 O 0.8582(4) 0.8149(2) 0.8234(3)
O23 O 0.9089(4) 0.8816(2) 0.9680(3)
O4_2 O 0.2657(4) 0.2468(2) 0.0280(3)
Ce8_2 Ce 0.48347(3) 0.23886(2) 0.17425(2)
O1_2 O 0.1361(4) 0.2434(2) 0.8627(3)
O6_2 O 0.3649(4) 0.2707(2) 0.6156(3)
O7_2 O 0.1964(4) 0.2921(3) 0.6707(3)
N1_2 N 0.4818(4) 0.2455(3) 0.9769(4)
C5_2 C 0.2479(5) 0.2473(3) 0.9276(4)
O14_2 O 0.0814(6) 0.1409(3) 0.6658(5)
C9_2 C 0.3661(6) 0.2522(3) 0.8950(5)
C11_2 C 0.3914(5) 0.2607(3) 0.7983(5)
C14_2 C 0.3112(6) 0.2743(3) 0.6868(5)
C15_2 C 0.5717(6) 0.2493(3) 0.9309(5)
H3_2 H 0.659089 0.245326 0.968047
N2_2 N 0.0337(8) 0.4950(4) 0.6778(6)
N3_2 N 0.5261(5) 0.2594(3) 0.8256(4)
H4_2 H 0.570799 0.264128 0.782404
C17_2 C 0.1301(10) 0.4668(5) 0.7741(8)
H6_2 H 0.109009 0.481718 0.836623
H7_2 H 0.213728 0.484820 0.777669
H8_2 H 0.130725 0.415551 0.770931
C18 C 0.0276(10) 0.5721(5) 0.6593(8)
H9 H 0.105258 0.587761 0.646460
H10 H 0.018650 0.596136 0.721252
O15_2 O 0.6361(4) 0.2566(2) 0.3627(3)
O16 O 0.6077(4) 0.1208(2) 0.5112(3)
O18_2 O 0.4130(4) 0.1808(2) 0.3135(3)
O19 O 0.7657(4) 0.2532(2) 0.5280(3)
O22_2 O 0.3216(4) 0.1608(2) 0.4371(3)
O24 O 0.5819(4) 0.1658(2) 0.6574(3)
O25_2 O 0.3402(4) 0.3395(2) 0.4028(3)
H12_2 H 0.0614878 0.108231 0.718195
H13_2 H 0.04524 0.120942 0.592441
O11_2 O 0.8726(5) 0.1727(2) 0.7449(4)
C2_2 C 0.6912(5) 0.0558(3) 0.6751(4)
C3_2 C 0.7803(5) 0.0657(3) 0.7772(4)
O12_2 O 0.9571(5) 0.3847(3) 0.6203(4)
C7_2 C 0.6237(6) 0.1184(3) 0.6102(5)
O13_2 O 0.8402(4) 0.1605(2) 0.9028(3)
C8_2 C 0.8339(6) 0.1387(3) 0.8122(5)
C13_2 C 0.8310(6) 0.0064(3) 0.8392(5)
H2_2 H 0.889265 0.012812 0.907315
C16_2 C 0.9542(9) 0.4517(4) 0.6102(8)
H5_2 H 0.892211 0.471530 0.551567
H11 H 0.954926 0.583071 0.598102
N4_2 N 0.9818(4) 0.2545(3) 0.4769(4)
O8_2 O 0.6784(4) 0.8392(2) 0.5629(3)
C1_2 C 0.7959(5) 0.9370(3) 0.8011(4)
C4_2 C 0.7084(5) 0.9277(3) 0.6979(4)
C6_2 C 0.6592(5) 0.8567(3) 0.6491(4)
C10_2 C 0.6574(6) 0.9874(3) 0.6370(5)
H1_2 H 0.599002 0.981235 0.568905
C12_2 C 0.8584(5) 0.8743(3) 0.8685(5)
C15_3 C 0.0717(6) 0.2507(3) 0.4309(5)
H3_3 H 0.159089 0.254674 0.468047
N3_3 N 0.0261(5) 0.2406(3) 0.3256(4)
H4_3 H 0.070799 0.235872 0.282404
O16_2 O 0.1077(4) 0.3792(2) 0.0112(3)
O21_2 O 0.1418(4) 0.1851(2) 0.1766(3)
O23_2 O 0.0911(4) 0.1184(2) 0.0320(3)
O24_2 O 0.0819(4) 0.3342(2) 0.1574(3)
O5_2 O 0.3582(4) 0.6851(2) 0.3234(3)
O6_3 O 0.8649(4) 0.2293(2) 0.1156(3)
O7_3 O 0.6964(4) 0.2079(3) 0.1707(3)
O9_2 O 0.4089(4) 0.6184(2) 0.4680(3)
C1_3 C 0.2959(5) 0.5630(3) 0.3011(4)
O11_3 O 0.3726(5) 0.3273(2) 0.2449(4)
C2_3 C 0.1912(5) 0.4442(3) 0.1751(4)
C3_3 C 0.2803(5) 0.4343(3) 0.2772(4)
C4_3 C 0.2084(5) 0.5723(3) 0.1979(4)
C5_3 C 0.7479(5) 0.2527(3) 0.4276(4)
O12_3 O 0.4571(5) 0.1153(3) 0.1203(4)
C6_3 C 0.1592(5) 0.6433(3) 0.1491(4)
C7_3 C 0.1237(6) 0.3816(3) 0.1102(5)
C8_3 C 0.3339(6) 0.3613(3) 0.3122(5)
O14_3 O 0.5814(6) 0.3591(3) 0.1658(5)
C9_3 C 0.8661(6) 0.2478(3) 0.3950(5)
C10_3 C 0.1574(6) 0.5126(3) 0.1370(5)
H1_3 H 0.099002 0.518765 0.068905
C11_3 C 0.8914(5) 0.2393(3) 0.2983(5)
C12_3 C 0.3584(5) 0.6257(3) 0.3685(5)
C13_3 C 0.3310(6) 0.4936(3) 0.3392(5)
H2_3 H 0.389265 0.487188 0.407315
C14_3 C 0.8112(6) 0.2257(3) 0.1868(5)
N2_3 N 0.5337(8) 0.0050(4) 0.1778(6)
C16_3 C 0.4542(9) 0.0483(4) 0.1102(8)
H5_3 H 0.392211 0.028470 0.051567
C17_3 C 0.6301(10) 0.0332(5) 0.2741(8)
H6_3 H 0.609009 0.018282 0.336623
H7_3 H 0.713728 0.015180 0.277669
H8_3 H 0.630725 0.084449 0.270931
H12_3 H 0.561488 0.391769 0.218195
H13_3 H 0.54524 0.379058 0.0924413
C1_4 C 0.2041(5) 0.0630(3) 0.1989(4)
C4_4 C 0.2916(5) 0.0723(3) 0.3021(4)
C6_4 C 0.3408(5) 0.1433(3) 0.3509(4)
C10_4 C 0.3426(6) 0.0126(3) 0.3630(5)
H1_4 H 0.400998 0.018765 0.431095
C12_4 C 0.1416(5) 0.1257(3) 0.1315(5)
O2_2 O 0.3923(4) 0.8792(2) 0.4888(3)
O10_2 O 0.4181(4) 0.8342(2) 0.3426(3)
O11_4 O 0.1274(5) 0.8273(2) 0.2551(4)
C2_4 C 0.3088(5) 0.9442(3) 0.3249(4)
C3_4 C 0.2197(5) 0.9343(3) 0.2228(4)
O12_4 O 0.0429(5) 0.6153(3) 0.3797(4)
C7_4 C 0.3763(6) 0.8816(3) 0.3898(5)
C8_4 C 0.1661(6) 0.8613(3) 0.1878(5)
C13_4 C 0.1690(6) 0.9936(3) 0.1608(5)
H2_4 H 0.110735 0.987188 0.092685
C16_4 C 0.0458(9) 0.5483(4) 0.3898(8)
H5_4 H 0.107789 0.528470 0.448433
H11_2 H 0.045074 0.416929 0.401898
O6_4 O 0.6351(4) 0.7293(2) 0.3844(3)
O7_4 O 0.8036(4) 0.7079(3) 0.3293(3)
C5_4 C 0.7521(5) 0.7527(3) 0.0724(4)
O14_4 O 0.9186(6) 0.8591(3) 0.3342(5)
C9_4 C 0.6339(6) 0.7478(3) 0.1050(5)
C11_4 C 0.6086(5) 0.7393(3) 0.2017(5)
C14_4 C 0.6888(6) 0.7257(3) 0.3132(5)
C15_4 C 0.4283(6) 0.7507(3) 0.0691(5)
H3_4 H 0.340911 0.754674 0.031953
N2_4 N 0.9663(8) 0.5050(4) 0.3222(6)
N3_4 N 0.4739(5) 0.7406(3) 0.1744(4)
H4_4 H 0.429201 0.735872 0.217596
C17_4 C 0.8699(10) 0.5332(5) 0.2259(8)
H6_4 H 0.890991 0.518282 0.163377
H7_4 H 0.786272 0.515180 0.222331
H8_4 H 0.869275 0.584449 0.229069
C18_2 C 0.9724(10) 0.4279(5) 0.3407(8)
H9_2 H 0.894742 0.412239 0.353540
H10_2 H 0.981350 0.403864 0.278748
H12_4 H 0.938512 0.891769 0.281805
H13_4 H 0.95476 0.879058 0.407559
C18_3 C 0.4724(10) 0.0721(5) 0.8407(8)
H9_3 H 0.394742 0.087761 0.853540
H10_3 H 0.481350 0.096136 0.778748
H11_3 H 0.545074 0.083071 0.901898
C18_4 C 0.5276(10) 0.9279(5) 0.1593(8)
H9_4 H 0.605258 0.912239 0.146460
H10_4 H 0.518650 0.903864 0.221252
H11_4 H 0.454926 0.916929 0.098102
loop_
_geom_bond_atom_site_label_1
_geom_bond_atom_site_label_2
_geom_bond_site_symmetry_1
_geom_bond_site_symmetry_2
Ce2 O1 1_555 1_555
O1 C5 1_555 1_555
O2 C7 1_555 1_555
O3 C6 1_555 1_555
O4 C5 1_555 1_555
O5 C12 1_555 1_555
O6 C14 1_555 1_555
O7 Ce2 1_555 1_555
O8 C6 1_555 1_555
O9 C12 1_555 1_555
O10 C7 1_555 1_555
N1 C9 1_555 1_555
C1 C4 1_555 1_555
O11 Ce2 1_555 1_555
C2 C3 1_555 1_555
C3 C8 1_555 1_555
C4 C6 1_555 1_555
C5 C9 1_555 1_555
O12 Ce2 1_555 1_555
C7 C2 1_555 1_555
O13 C8 1_555 1_555
C8 O11 1_555 1_555
O14 Ce2 1_555 1_555
C9 C11 1_555 1_555
C10 C2 1_555 1_555
H1 C10 1_555 1_555
C11 C14 1_555 1_555
C12 C1 1_555 1_555
C13 C1 1_555 1_555
H2 C13 1_555 1_555
C14 O7 1_555 1_555
N2 C16 1_555 1_555
C16 O12 1_555 1_555
H5 C16 1_555 1_555
C17 N2 1_555 1_555
H6 C17 1_555 1_555
H7 C17 1_555 1_555
H8 C17 1_555 1_555
Ce3 O2 1_555 1_555
Ce4 O5 1_555 1_555
Ce6 O1 1_555 1_555
Ce7 O3 1_555 1_555
Ce8 O4 1_555 1_555
O17 Ce2 1_555 1_555
O20 Ce2 1_555 1_555
O4 Ce6 1_555 1_555
O9 Ce4 1_555 1_555
O10 Ce3 1_555 1_555
N1 Ce8 1_555 1_555
C3 C13 1_555 1_555
C4 C10 1_555 1_555
O13 Ce6 1_555 1_555
Ce3 O20 1_555 1_555
Ce6 O17 1_555 1_555
O14 H12 1_555 1_555
O14 H13 1_555 1_555
H3 C15 1_555 1_555
H4 N3 1_555 1_555
O21 Ce3 1_555 1_555
O23 Ce3 1_555 1_555
C15 N3 1_555 1_555
Ce8_2 O4_2 1_555 1_555
O4_2 Ce5 1_555 1_555
Ce4 O6_2 1_555 1_555
O1_2 C5_2 1_555 1_555
O6_2 C14_2 1_555 1_555
N1_2 C9_2 1_555 1_555
C5_2 C9_2 1_555 1_555
C9_2 C11_2 1_555 1_555
C11_2 C14_2 1_555 1_555
C14_2 O7_2 1_555 1_555
C15_2 N1_2 1_555 1_555
H3_2 C15_2 1_555 1_555
N3_2 C11_2 1_555 1_555
H4_2 N3_2 1_555 1_555
C17_2 N2_2 1_555 1_555
H6_2 C17_2 1_555 1_555
H7_2 C17_2 1_555 1_555
H8_2 C17_2 1_555 1_555
C18 N2_2 1_555 1_555
H9 C18 1_555 1_555
H10 C18 1_555 1_555
O15_2 Ce4 1_555 1_555
O16 Ce4 1_555 1_555
O18_2 Ce4 1_555 1_555
O19 Ce4 1_555 1_555
O22_2 Ce4 1_555 1_555
O24 Ce4 1_555 1_555
O25_2 Ce4 1_555 1_555
C15_2 N3_2 1_555 1_555
O14_2 H12_2 1_555 1_555
O14_2 H13_2 1_555 1_555
O16 C7_2 1_555 1_555
O24 C7_2 1_555 1_555
O11_2 Ce7 1_555 1_555
C2_2 C3_2 1_555 1_555
C3_2 C8_2 1_555 1_555
O12_2 Ce7 1_555 1_555
C7_2 C2_2 1_555 1_555
O13_2 C8_2 1_555 1_555
C8_2 O11_2 1_555 1_555
H2_2 C13_2 1_555 1_555
C16_2 O12_2 1_555 1_555
H5_2 C16_2 1_555 1_555
O19 Ce7 1_555 1_555
N4_2 Ce7 1_555 1_555
C3_2 C13_2 1_555 1_555
O17 C6_2 1_555 1_555
O21 C12_2 1_555 1_555
O8_2 C6_2 1_555 1_555
O23 C12_2 1_555 1_555
C1_2 C4_2 1_555 1_555
C4_2 C6_2 1_555 1_555
H1_2 C10_2 1_555 1_555
C12_2 C1_2 1_555 1_555
O8_2 Ce6 1_555 1_555
C4_2 C10_2 1_555 1_555
H3_3 C15_3 1_555 1_555
H4_3 N3_3 1_555 1_555
O16_2 Ce5 1_555 1_555
O21_2 Ce5 1_555 1_555
O23_2 Ce5 1_555 1_555
O24_2 Ce5 1_555 1_555
C15_3 N3_3 1_555 1_555
Ce8_2 O15_2 1_555 1_555
O15_2 C5_3 1_555 1_555
O16_2 C7_3 1_555 1_555
O18 C6_3 1_555 1_555
O19 C5_3 1_555 1_555
O5_2 C12_3 1_555 1_555
O6_3 C14_3 1_555 1_555
O7_3 Ce8_2 1_555 1_555
O22 C6_3 1_555 1_555
O9_2 C12_3 1_555 1_555
O24_2 C7_3 1_555 1_555
N4_2 C9_3 1_555 1_555
C1_3 C4_3 1_555 1_555
O11_3 Ce8_2 1_555 1_555
C2_3 C3_3 1_555 1_555
C3_3 C8_3 1_555 1_555
C4_3 C6_3 1_555 1_555
C5_3 C9_3 1_555 1_555
O12_3 Ce8_2 1_555 1_555
C7_3 C2_3 1_555 1_555
O25_2 C8_3 1_555 1_555
C8_3 O11_3 1_555 1_555
O14_3 Ce8_2 1_555 1_555
C9_3 C11_3 1_555 1_555
C10_3 C2_3 1_555 1_555
H1_3 C10_3 1_555 1_555
C11_3 C14_3 1_555 1_555
C12_3 C1_3 1_555 1_555
C13_3 C1_3 1_555 1_555
H2_3 C13_3 1_555 1_555
C14_3 O7_3 1_555 1_555
N2_3 C16_3 1_555 1_555
C16_3 O12_3 1_555 1_555
H5_3 C16_3 1_555 1_555
C17_3 N2_3 1_555 1_555
H6_3 C17_3 1_555 1_555
H7_3 C17_3 1_555 1_555
H8_3 C17_3 1_555 1_555
Ce6 O5_2 1_555 1_555
Ce8 O18 1_555 1_555
O18_2 Ce8_2 1_555 1_555
O9_2 Ce6 1_555 1_555
C3_3 C13_3 1_555 1_555
C4_3 C10_3 1_555 1_555
O14_3 H12_3 1_555 1_555
O14_3 H13_3 1_555 1_555
O18_2 C6_4 1_555 1_555
O21_2 C12_4 1_555 1_555
O22_2 C6_4 1_555 1_555
O23_2 C12_4 1_555 1_555
C1_4 C4_4 1_555 1_555
C4_4 C6_4 1_555 1_555
H1_4 C10_4 1_555 1_555
C12_4 C1_4 1_555 1_555
C4_4 C10_4 1_555 1_555
O2_2 C7_4 1_555 1_555
O10_2 C7_4 1_555 1_555
O11_4 Ce8 1_555 1_555
C2_4 C3_4 1_555 1_555
C3_4 C8_4 1_555 1_555
O12_4 Ce8 1_555 1_555
C7_4 C2_4 1_555 1_555
O25 C8_4 1_555 1_555
C8_4 O11_4 1_555 1_555
H2_4 C13_4 1_555 1_555
C16_4 O12_4 1_555 1_555
H5_4 C16_4 1_555 1_555
Ce6 O2_2 1_555 1_555
O10_2 Ce6 1_555 1_555
C3_4 C13_4 1_555 1_555
Ce6 O6_4 1_555 1_555
O15 C5_4 1_555 1_555
O6_4 C14_4 1_555 1_555
N4 C9_4 1_555 1_555
C5_4 C9_4 1_555 1_555
C9_4 C11_4 1_555 1_555
C11_4 C14_4 1_555 1_555
C14_4 O7_4 1_555 1_555
C15_4 N4 1_555 1_555
H3_4 C15_4 1_555 1_555
N3_4 C11_4 1_555 1_555
H4_4 N3_4 1_555 1_555
C17_4 N2_4 1_555 1_555
H6_4 C17_4 1_555 1_555
H7_4 C17_4 1_555 1_555
H8_4 C17_4 1_555 1_555
C18_2 N2_4 1_555 1_555
H9_2 C18_2 1_555 1_555
H10_2 C18_2 1_555 1_555
C15_4 N3_4 1_555 1_555
O14_4 H12_4 1_555 1_555
O14_4 H13_4 1_555 1_555
H9_3 C18_3 1_555 1_555
H10_3 C18_3 1_555 1_555
H11_3 C18_3 1_555 1_555
H9_4 C18_4 1_555 1_555
H10_4 C18_4 1_555 1_555
H11_4 C18_4 1_555 1_555

#END
