
###############################################################################
#
# This file contains modified crystal structure data generated from the
# MOF subset of the Cambridge Structural Database (CSD) v543 
# hosted by the Cambridge Crystallographic Data Centre (CCDC).
#
# This work is licensed under the Creative Commons
# Attribution-NonCommercial-ShareAlike 4.0 International License.
# To view a copy of this license, visit
# http://creativecommons.org/licenses/by-nc-sa/4.0/
# or send a letter to
# Creative Commons, PO Box 1866, Mountain View, CA 94042, USA.
#
# CIF created using the CSD Python API on 29 September 2022
# The structure has been converted into the P1 space group
# The structure has a 3D framework
# The original CSD entry OBEGIP is in the monoclinic crystal system
# The framework has been calculated to contain at least 10.0% void space
# The void calculation uses a probe of radius 1.32A, grid spacing 0.4
#
###############################################################################

data_OBEGIP
_chemical_formula_moiety         '(C68 H84 Cd7 N16 O11 S4)n'
_symmetry_cell_setting           triclinic
_symmetry_space_group_name_H-M   'P 1'
_symmetry_Int_Tables_number      1
_space_group_name_Hall           'P 1'
loop_
_symmetry_equiv_pos_site_id
_symmetry_equiv_pos_as_xyz
1 x,y,z
_cell_length_a                   13.428(3)
_cell_length_b                   11.372(2)
_cell_length_c                   16.199(3)
_cell_angle_alpha                90
_cell_angle_beta                 96.69(3)
_cell_angle_gamma                90
_cell_volume                     2456.8
loop_
_atom_site_label
_atom_site_type_symbol
_atom_site_fract_x
_atom_site_fract_y
_atom_site_fract_z
H20 H 0.0175 0.6928 0.3527
Cd4 Cd -0.0000 0.5000 0.5000
Cd1 Cd 0.0000 0.0000 0.0000
N9 N 0.0814(5) 0.1075(6) 0.0781(4)
Cd1_2 Cd -0.0000 0.0000 1.0000
H26 H 0.0127 0.1483 0.8332
O7 O 0.1418(5) 0.0100(6) 0.9132(4)
N1 N 0.0638(5) 0.8649(6) 0.0638(4)
C2 C 0.1438(6) 0.8053(8) 0.0496(5)
H1 H 0.1750 0.8112 0.0015
C5 C 0.0423(7) 0.8271(9) 0.1412(6)
N2 N 0.1749(5) 0.7342(6) 0.1143(4)
C7 C 0.1097(7) 0.7524(9) 0.1733(6)
H6 H 0.1134 0.7180 0.2257
C8 C 0.2678(6) 0.6623(9) 0.1266(6)
H7 H 0.2905 0.6448 0.0732
H8 H 0.2545 0.5886 0.1533
C9 C 0.6869(7) 0.7535(10) 0.3388(7)
H9 H 0.6568 0.7653 0.3898
H10 H 0.6902 0.8295 0.3120
C10 C 0.3498(7) 0.7315(10) 0.1813(6)
H11 H 0.3654 0.8027 0.1524
H12 H 0.3240 0.7546 0.2324
C11 C 0.4443(7) 0.6618(11) 0.2023(7)
H13 H 0.4729 0.6426 0.1517
H14 H 0.4289 0.5888 0.2291
C12 C 0.6218(7) 0.6754(10) 0.2838(7)
H15 H 0.6131 0.6013 0.3118
H16 H 0.6529 0.6591 0.2339
C13 C 0.5204(7) 0.7329(10) 0.2605(7)
H17 H 0.5311 0.8078 0.2343
H18 H 0.4911 0.7492 0.3113
Cd1_3 Cd 0.0000 1.0000 0.0000
N3 N 0.9186(5) 0.6075(6) 0.4219(4)
C15 C 0.8714(7) 0.7401(9) 0.3231(6)
H19 H 0.8719 0.7917 0.2787
N4 N 0.7908(5) 0.7080(7) 0.3601(4)
C16 C 0.9513(7) 0.6831(9) 0.3629(7)
C17 C 0.8217(6) 0.6295(8) 0.4192(6)
H21 H 0.7799 0.5947 0.4542
Cd4_2 Cd 1.0000 0.5000 0.5000
Cd1_4 Cd -0.0000 1.0000 1.0000
C1 C 0.5124(6) 0.0598(8) 0.0023(5)
C3 C 0.6089(6) 0.0904(9) 0.0515(6)
H2 H 0.6286 0.1685 0.0577
Cd1_5 Cd 1.0000 0.0000 0.0000
S1 S 0.78703(15) 0.0336(2) 0.14024(13)
C14 C 0.6678(6) 0.0039(7) 0.0873(5)
O3 O 0.7922(5) 0.1633(5) 0.1451(4)
Cd1_6 Cd 1.0000 0.0000 1.0000
C20 C 0.3646(7) 0.1165(9) 0.9192(7)
H23 H 0.3239 0.1744 0.8925
C21 C 0.4518(7) 0.1479(8) 0.9624(7)
H24 H 0.4715 0.2264 0.9657
O5 O 0.2088(6) 0.0226(7) 0.7798(4)
N5 N 0.9362(5) 0.1351(6) 0.9362(4)
C23 C 0.8562(6) 0.1947(8) 0.9504(5)
H25 H 0.8250 0.1888 0.9985
C24 C 0.9577(7) 0.1729(9) 0.8588(6)
N6 N 0.8251(5) 0.2658(6) 0.8857(4)
C25 C 0.8903(7) 0.2476(9) 0.8267(6)
H27 H 0.8866 0.2820 0.7743
C26 C 0.7322(6) 0.3377(9) 0.8734(6)
H28 H 0.7095 0.3552 0.9268
H29 H 0.7455 0.4114 0.8467
C27 C 0.3131(7) 0.2465(10) 0.6612(7)
H30 H 0.3432 0.2347 0.6102
H31 H 0.3098 0.1705 0.6880
C28 C 0.6502(7) 0.2685(10) 0.8187(6)
H32 H 0.6346 0.1973 0.8476
H33 H 0.6760 0.2454 0.7676
C29 C 0.5557(7) 0.3382(11) 0.7977(7)
H34 H 0.5271 0.3574 0.8483
H35 H 0.5711 0.4112 0.7709
C30 C 0.3782(7) 0.3246(10) 0.7162(7)
H36 H 0.3869 0.3987 0.6882
H37 H 0.3471 0.3409 0.7661
C31 C 0.4796(7) 0.2671(10) 0.7395(7)
H38 H 0.4689 0.1922 0.7657
H39 H 0.5089 0.2508 0.6887
N7 N 0.0814(5) 0.3925(6) 0.5781(4)
C32 C 0.1286(7) 0.2599(9) 0.6769(6)
H40 H 0.1281 0.2083 0.7213
N8 N 0.2092(5) 0.2920(7) 0.6399(4)
C33 C 0.0487(7) 0.3169(9) 0.6371(7)
C34 C 0.1783(6) 0.3705(8) 0.5808(6)
H42 H 0.2201 0.4053 0.5458
C4 C 0.6354(7) 0.8835(9) 0.0808(7)
H3 H 0.6761 0.8256 0.1075
H4 H 0.9873 0.8517 0.1668
C6 C 0.5482(7) 0.8521(8) 0.0376(7)
H5 H 0.5285 0.7736 0.0343
Cd1_7 Cd 1.0000 1.0000 0.0000
O1 O 0.8582(5) 0.9900(6) 0.0868(4)
O2 O 0.7912(6) 0.9774(7) 0.2202(4)
Cd1_8 Cd 1.0000 1.0000 1.0000
C18 C 0.4876(6) 0.9402(8) 0.9977(5)
C19 C 0.3911(6) 0.9096(9) 0.9485(6)
H22 H 0.3714 0.8315 0.9423
S2 S 0.21297(15) 0.9664(2) 0.85976(13)
C22 C 0.3322(6) 0.9961(7) 0.9127(5)
O6 O 0.2078(5) 0.8367(5) 0.8549(4)
N10 N 0.9186(5) 0.8925(6) 0.9219(4)
H41 H 0.9825 0.3072 0.6473
H41_2 H 0.0175 0.8072 0.8527
C1_2 C 0.4876(6) 0.5598(8) 0.4977(5)
C3_2 C 0.3911(6) 0.5904(9) 0.4485(6)
H2_2 H 0.3714 0.6685 0.4423
C4_2 C 0.3646(7) 0.3835(9) 0.4192(7)
H3_2 H 0.3239 0.3256 0.3925
H4_2 H 0.0127 0.3517 0.3332
C6_2 C 0.4518(7) 0.3521(8) 0.4624(7)
H5_2 H 0.4715 0.2736 0.4657
S1_2 S 0.21297(15) 0.5336(2) 0.35976(13)
O1_2 O 0.1418(5) 0.4900(6) 0.4132(4)
C14_2 C 0.3322(6) 0.5039(7) 0.4127(5)
O2_2 O 0.2088(6) 0.4774(7) 0.2798(4)
O3_2 O 0.2078(5) 0.6633(5) 0.3549(4)
C18_2 C 0.5124(6) 0.4402(8) 0.5023(5)
C19_2 C 0.6089(6) 0.4096(9) 0.5515(6)
H22_2 H 0.6286 0.3315 0.5577
C20_2 C 0.6354(7) 0.6165(9) 0.5808(7)
H23_2 H 0.6761 0.6744 0.6075
C21_2 C 0.5482(7) 0.6479(8) 0.5376(7)
H24_2 H 0.5285 0.7264 0.5343
S2_2 S 0.78703(15) 0.4664(2) 0.64024(13)
O4 O 0.8582(5) 0.5100(6) 0.5868(4)
C22_2 C 0.6678(6) 0.4961(7) 0.5873(5)
O5_2 O 0.7912(6) 0.5226(7) 0.7202(4)
O6_2 O 0.7922(5) 0.3367(5) 0.6451(4)
N5_2 N 0.0638(5) 0.6351(6) 0.5638(4)
C23_2 C 0.1438(6) 0.6947(8) 0.5496(5)
H25_2 H 0.1750 0.6888 0.5015
C24_2 C 0.0423(7) 0.6729(9) 0.6412(6)
N6_2 N 0.1749(5) 0.7658(6) 0.6143(4)
C25_2 C 0.1097(7) 0.7476(9) 0.6733(6)
H27_2 H 0.1134 0.7820 0.7257
C26_2 C 0.2678(6) 0.8377(9) 0.6266(6)
H28_2 H 0.2905 0.8552 0.5732
H29_2 H 0.2545 0.9114 0.6533
C27_2 C 0.6869(7) 0.7465(10) 0.8388(7)
H30_2 H 0.6568 0.7347 0.8898
H31_2 H 0.6902 0.6705 0.8120
C28_2 C 0.3498(7) 0.7685(10) 0.6813(6)
H32_2 H 0.3654 0.6973 0.6524
H33_2 H 0.3240 0.7454 0.7324
C29_2 C 0.4443(7) 0.8382(11) 0.7023(7)
H34_2 H 0.4729 0.8574 0.6517
H35_2 H 0.4289 0.9112 0.7291
C30_2 C 0.6218(7) 0.8246(10) 0.7838(7)
H36_2 H 0.6131 0.8987 0.8118
H37_2 H 0.6529 0.8409 0.7339
C31_2 C 0.5204(7) 0.7671(10) 0.7605(7)
H38_2 H 0.5311 0.6922 0.7343
H39_2 H 0.4911 0.7508 0.8113
C32_2 C 0.8714(7) 0.7599(9) 0.8231(6)
H40_2 H 0.8719 0.7083 0.7787
N8_2 N 0.7908(5) 0.7920(7) 0.8601(4)
C33_2 C 0.9513(7) 0.8169(9) 0.8629(7)
C34_2 C 0.8217(6) 0.8705(8) 0.9192(6)
H42_2 H 0.7799 0.9053 0.9542
N1_2 N 0.9362(5) 0.3649(6) 0.4362(4)
C2_2 C 0.8562(6) 0.3053(8) 0.4504(5)
H1_2 H 0.8250 0.3112 0.4985
C5_2 C 0.9577(7) 0.3271(9) 0.3588(6)
N2_2 N 0.8251(5) 0.2342(6) 0.3857(4)
C7_2 C 0.8903(7) 0.2524(9) 0.3267(6)
H6_2 H 0.8866 0.2180 0.2743
C8_2 C 0.7322(6) 0.1623(9) 0.3734(6)
H7_2 H 0.7095 0.1448 0.4268
H8_2 H 0.7455 0.0886 0.3467
C9_2 C 0.3131(7) 0.2535(10) 0.1612(7)
H9_2 H 0.3432 0.2653 0.1102
H10_2 H 0.3098 0.3295 0.1880
C10_2 C 0.6502(7) 0.2315(10) 0.3187(6)
H11_2 H 0.6346 0.3027 0.3476
H12_2 H 0.6760 0.2546 0.2676
C11_2 C 0.5557(7) 0.1618(11) 0.2977(7)
H13_2 H 0.5271 0.1426 0.3483
H14_2 H 0.5711 0.0888 0.2709
C12_2 C 0.3782(7) 0.1754(10) 0.2162(7)
H15_2 H 0.3869 0.1013 0.1882
H16_2 H 0.3471 0.1591 0.2661
C13_2 C 0.4796(7) 0.2329(10) 0.2395(7)
H17_2 H 0.4689 0.3078 0.2657
H18_2 H 0.5089 0.2492 0.1887
C15_2 C 0.1286(7) 0.2401(9) 0.1769(6)
H19_2 H 0.1281 0.2917 0.2213
N4_2 N 0.2092(5) 0.2080(7) 0.1399(4)
C16_2 C 0.0487(7) 0.1831(9) 0.1371(7)
C17_2 C 0.1783(6) 0.1295(8) 0.0808(6)
H21_2 H 0.2201 0.0947 0.0458
H26_2 H 0.9873 0.6483 0.6668
H20_2 H 0.9825 0.1928 0.1473
loop_
_geom_bond_atom_site_label_1
_geom_bond_atom_site_label_2
_geom_bond_site_symmetry_1
_geom_bond_site_symmetry_2
N9 Cd1 1_555 1_555
O7 Cd1_2 1_555 1_555
N1 C2 1_555 1_555
C2 H1 1_555 1_555
C5 N1 1_555 1_555
N2 C2 1_555 1_555
C7 C5 1_555 1_555
H6 C7 1_555 1_555
C8 N2 1_555 1_555
H7 C8 1_555 1_555
H8 C8 1_555 1_555
C9 H9 1_555 1_555
H10 C9 1_555 1_555
C10 C8 1_555 1_555
H11 C10 1_555 1_555
H12 C10 1_555 1_555
C11 C10 1_555 1_555
H13 C11 1_555 1_555
H14 C11 1_555 1_555
C12 C9 1_555 1_555
H15 C12 1_555 1_555
H16 C12 1_555 1_555
C13 C11 1_555 1_555
H17 C13 1_555 1_555
H18 C13 1_555 1_555
Cd1_3 N1 1_555 1_555
N3 C16 1_555 1_555
C15 H19 1_555 1_555
N4 C9 1_555 1_555
C16 C15 1_555 1_555
C17 N3 1_555 1_555
H21 C17 1_555 1_555
Cd4_2 N3 1_555 1_555
N2 C7 1_555 1_555
C12 C13 1_555 1_555
C15 N4 1_555 1_555
N4 C17 1_555 1_555
C1 C3 1_555 1_555
C3 H2 1_555 1_555
C14 C3 1_555 1_555
O3 S1 1_555 1_555
S1 C14 1_555 1_555
C20 H23 1_555 1_555
H24 C21 1_555 1_555
N5 Cd1_6 1_555 1_555
C23 N5 1_555 1_555
H25 C23 1_555 1_555
C24 N5 1_555 1_555
N6 C23 1_555 1_555
C25 C24 1_555 1_555
H27 C25 1_555 1_555
C26 N6 1_555 1_555
H28 C26 1_555 1_555
H29 C26 1_555 1_555
C27 H30 1_555 1_555
H31 C27 1_555 1_555
C28 C26 1_555 1_555
H32 C28 1_555 1_555
H33 C28 1_555 1_555
C29 C28 1_555 1_555
H34 C29 1_555 1_555
H35 C29 1_555 1_555
C30 C27 1_555 1_555
H36 C30 1_555 1_555
H37 C30 1_555 1_555
C31 C29 1_555 1_555
H38 C31 1_555 1_555
H39 C31 1_555 1_555
N7 C33 1_555 1_555
C32 H40 1_555 1_555
N8 C27 1_555 1_555
C33 C32 1_555 1_555
C34 N7 1_555 1_555
H42 C34 1_555 1_555
Cd4 N7 1_555 1_555
C20 C21 1_555 1_555
N6 C25 1_555 1_555
C30 C31 1_555 1_555
C32 N8 1_555 1_555
N8 C34 1_555 1_555
C4 H3 1_555 1_555
C6 C4 1_555 1_555
H5 C6 1_555 1_555
O1 Cd1_7 1_555 1_555
C19 C18 1_555 1_555
H22 C19 1_555 1_555
C22 C19 1_555 1_555
O6 S2 1_555 1_555
N10 Cd1_8 1_555 1_555
S2 C22 1_555 1_555
C1_2 C3_2 1_555 1_555
C3_2 H2_2 1_555 1_555
C4_2 H3_2 1_555 1_555
C6_2 C4_2 1_555 1_555
H5_2 C6_2 1_555 1_555
S1_2 O1_2 1_555 1_555
O1_2 Cd4 1_555 1_555
C14_2 C3_2 1_555 1_555
O2_2 S1_2 1_555 1_555
O3_2 S1_2 1_555 1_555
C18_2 C1_2 1_555 1_555
C19_2 C18_2 1_555 1_555
H22_2 C19_2 1_555 1_555
C20_2 H23_2 1_555 1_555
C21_2 C1_2 1_555 1_555
H24_2 C21_2 1_555 1_555
S2_2 O4 1_555 1_555
O4 Cd4_2 1_555 1_555
C22_2 C19_2 1_555 1_555
O5_2 S2_2 1_555 1_555
O6_2 S2_2 1_555 1_555
N5_2 Cd4 1_555 1_555
C23_2 N5_2 1_555 1_555
H25_2 C23_2 1_555 1_555
C24_2 N5_2 1_555 1_555
N6_2 C23_2 1_555 1_555
C25_2 C24_2 1_555 1_555
H27_2 C25_2 1_555 1_555
C26_2 N6_2 1_555 1_555
H28_2 C26_2 1_555 1_555
H29_2 C26_2 1_555 1_555
C27_2 H30_2 1_555 1_555
H31_2 C27_2 1_555 1_555
C28_2 C26_2 1_555 1_555
H32_2 C28_2 1_555 1_555
H33_2 C28_2 1_555 1_555
C29_2 C28_2 1_555 1_555
H34_2 C29_2 1_555 1_555
H35_2 C29_2 1_555 1_555
C30_2 C27_2 1_555 1_555
H36_2 C30_2 1_555 1_555
H37_2 C30_2 1_555 1_555
C31_2 C29_2 1_555 1_555
H38_2 C31_2 1_555 1_555
H39_2 C31_2 1_555 1_555
N10 C33_2 1_555 1_555
C32_2 H40_2 1_555 1_555
N8_2 C27_2 1_555 1_555
C33_2 C32_2 1_555 1_555
C34_2 N10 1_555 1_555
H42_2 C34_2 1_555 1_555
C4_2 C14_2 1_555 1_555
C6_2 C18_2 1_555 1_555
S1_2 C14_2 1_555 1_555
C20_2 C21_2 1_555 1_555
C20_2 C22_2 1_555 1_555
S2_2 C22_2 1_555 1_555
N6_2 C25_2 1_555 1_555
C30_2 C31_2 1_555 1_555
C32_2 N8_2 1_555 1_555
N8_2 C34_2 1_555 1_555
N1_2 C2_2 1_555 1_555
C2_2 H1_2 1_555 1_555
C5_2 N1_2 1_555 1_555
N2_2 C2_2 1_555 1_555
C7_2 C5_2 1_555 1_555
H6_2 C7_2 1_555 1_555
C8_2 N2_2 1_555 1_555
H7_2 C8_2 1_555 1_555
H8_2 C8_2 1_555 1_555
C9_2 H9_2 1_555 1_555
H10_2 C9_2 1_555 1_555
C10_2 C8_2 1_555 1_555
H11_2 C10_2 1_555 1_555
H12_2 C10_2 1_555 1_555
C11_2 C10_2 1_555 1_555
H13_2 C11_2 1_555 1_555
H14_2 C11_2 1_555 1_555
C12_2 C9_2 1_555 1_555
H15_2 C12_2 1_555 1_555
H16_2 C12_2 1_555 1_555
C13_2 C11_2 1_555 1_555
H17_2 C13_2 1_555 1_555
H18_2 C13_2 1_555 1_555
Cd4_2 N1_2 1_555 1_555
N9 C16_2 1_555 1_555
C15_2 H19_2 1_555 1_555
N4_2 C9_2 1_555 1_555
C16_2 C15_2 1_555 1_555
C17_2 N9 1_555 1_555
H21_2 C17_2 1_555 1_555
N2_2 C7_2 1_555 1_555
C12_2 C13_2 1_555 1_555
C15_2 N4_2 1_555 1_555
N4_2 C17_2 1_555 1_555

#END
