
###############################################################################
#
# This file contains modified crystal structure data generated from the
# MOF subset of the Cambridge Structural Database (CSD) v543 
# hosted by the Cambridge Crystallographic Data Centre (CCDC).
#
# This work is licensed under the Creative Commons
# Attribution-NonCommercial-ShareAlike 4.0 International License.
# To view a copy of this license, visit
# http://creativecommons.org/licenses/by-nc-sa/4.0/
# or send a letter to
# Creative Commons, PO Box 1866, Mountain View, CA 94042, USA.
#
# CIF created using the CSD Python API on 29 September 2022
# The structure has been converted into the P1 space group
# The structure has a 3D framework
# The original CSD entry OBESIB is in the orthorhombic crystal system
# The framework has been calculated to contain at least 10.0% void space
# The void calculation uses a probe of radius 1.32A, grid spacing 0.4
#
###############################################################################

data_OBESIB
_chemical_formula_moiety         '(C100 H80 N6 O32 Zn12)n'
_symmetry_cell_setting           triclinic
_symmetry_space_group_name_H-M   'P 1'
_symmetry_Int_Tables_number      1
_space_group_name_Hall           'P 1'
loop_
_symmetry_equiv_pos_site_id
_symmetry_equiv_pos_as_xyz
1 x,y,z
_cell_length_a                   16.1167(4)
_cell_length_b                   14.0720(4)
_cell_length_c                   11.4375(3)
_cell_angle_alpha                90
_cell_angle_beta                 90
_cell_angle_gamma                90
_cell_volume                     2593.96
loop_
_atom_site_label
_atom_site_type_symbol
_atom_site_fract_x
_atom_site_fract_y
_atom_site_fract_z
_atom_site_U_iso_or_equiv
_atom_site_thermal_displace_type
Zn5 Zn 0.00000 0.80847(3) 0.75000 2.0890 Uiso
Zn7 Zn 0.00000 0.60749(3) 0.75000 2.0890 Uiso
Zn1 Zn 0.50000 0.80847(3) 0.25000 2.0890 Uiso
Zn2 Zn 0.50000 0.60749(3) 0.25000 2.0890 Uiso
O1 O 0.58214(2) 0.62336(3) 0.38190(3) 2.0890 Uiso
O2 O 0.56761(2) 0.78381(3) 0.40463(3) 2.0890 Uiso
C1 C 0.60396(2) 0.70421(3) 0.42181(3) 2.0890 Uiso
C2 C 0.68225(2) 0.70540(3) 0.49022(3) 2.0890 Uiso
C3 C 0.73087(2) 0.79365(3) 0.53035(3) 2.0890 Uiso
H1 H 0.75585(2) 0.83952(3) 0.46138(3) 2.0890 Uiso
H2 H 0.70361(2) 0.83544(3) 0.60140(3) 2.0890 Uiso
C4 C 0.76537(2) 0.66201(3) 0.44565(3) 2.0890 Uiso
H3 H 0.76892(2) 0.58422(3) 0.44011(3) 2.0890 Uiso
H4 H 0.79371(2) 0.69756(3) 0.37031(3) 2.0890 Uiso
C5 C 0.70196(2) 0.65891(3) 0.61024(3) 2.0890 Uiso
H5 H 0.70097(2) 0.58085(3) 0.61410(3) 2.0890 Uiso
H6 H 0.67210(2) 0.69196(3) 0.68623(3) 2.0890 Uiso
C6 C 0.78395(2) 0.70708(3) 0.56648(3) 2.0890 Uiso
C7 C 0.86580(2) 0.70816(3) 0.62675(3) 2.0890 Uiso
O3 O 0.90468(2) 0.62957(3) 0.63245(3) 2.0890 Uiso
O4 O 0.88970(2) 0.78833(3) 0.66744(3) 2.0890 Uiso
N1 N 0.50000 0.45884(3) 0.25000 2.0890 Uiso
C8 C 0.52229(2) 0.41000(3) 0.34667(3) 2.0890 Uiso
H7 H 0.54151(2) 0.45127(3) 0.42254(3) 2.0890 Uiso
C9 C 0.52209(2) 0.31146(3) 0.35014(3) 2.0890 Uiso
H8 H 0.54011(2) 0.27576(3) 0.43048(3) 2.0890 Uiso
C10 C 0.50000 0.26020(3) 0.25000 2.0890 Uiso
C11 C 0.50000 0.15569(3) 0.25000 2.0890 Uiso
C12 C 0.47514(2) 0.10451(3) 0.34927(3) 2.0890 Uiso
H9 H 0.45443(2) 0.13986(3) 0.42909(3) 2.0890 Uiso
C13 C 0.47410(2) 0.00601(3) 0.34458(3) 2.0890 Uiso
C14 C 0.47771(2) 0.41000(3) 0.15333(3) 2.0890 Uiso
H11 H 0.45849(2) 0.45127(3) 0.07746(3) 2.0890 Uiso
C15 C 0.47791(2) 0.31146(3) 0.14986(3) 2.0890 Uiso
H12 H 0.45989(2) 0.27576(3) 0.06952(3) 2.0890 Uiso
C16 C 0.52486(2) 0.10451(3) 0.15073(3) 2.0890 Uiso
H13 H 0.54557(2) 0.13986(3) 0.07091(3) 2.0890 Uiso
C17 C 0.52590(2) 0.00601(3) 0.15542(3) 2.0890 Uiso
O5 O 0.41786(2) 0.62336(3) 0.11810(3) 2.0890 Uiso
O6 O 0.43239(2) 0.78381(3) 0.09537(3) 2.0890 Uiso
C18 C 0.39604(2) 0.70421(3) 0.07819(3) 2.0890 Uiso
C19 C 0.31775(2) 0.70540(3) 0.00978(3) 2.0890 Uiso
H15 H 0.24415(2) 0.83952(3) 0.03862(3) 2.0890 Uiso
C21 C 0.23463(2) 0.66201(3) 0.05435(3) 2.0890 Uiso
H17 H 0.23108(2) 0.58422(3) 0.05989(3) 2.0890 Uiso
H18 H 0.20629(2) 0.69756(3) 0.12969(3) 2.0890 Uiso
Zn5_2 Zn 1.00000 0.80847(3) 0.75000 2.0890 Uiso
Zn7_2 Zn 1.00000 0.60749(3) 0.75000 2.0890 Uiso
O9 O 0.59532(2) 0.62957(3) 0.13245(3) 2.0890 Uiso
O10 O 0.40468(2) 0.62957(3) 0.36755(3) 2.0890 Uiso
O11 O 0.61030(2) 0.78833(3) 0.16744(3) 2.0890 Uiso
O12 O 0.38970(2) 0.78833(3) 0.33256(3) 2.0890 Uiso
N3 N 0.50000 0.95686(3) 0.25000 2.0890 Uiso
C20 C 0.26913(2) 0.79365(3) 0.96965(3) 2.0890 Uiso
H16 H 0.29639(2) 0.83544(3) 0.89860(3) 2.0890 Uiso
C22 C 0.29804(2) 0.65891(3) 0.88976(3) 2.0890 Uiso
H19 H 0.29903(2) 0.58085(3) 0.88590(3) 2.0890 Uiso
H20 H 0.32790(2) 0.69196(3) 0.81377(3) 2.0890 Uiso
C23 C 0.21605(2) 0.70708(3) 0.93352(3) 2.0890 Uiso
C24 C 0.13420(2) 0.70816(3) 0.87325(3) 2.0890 Uiso
O7 O 0.09532(2) 0.62957(3) 0.86755(3) 2.0890 Uiso
O8 O 0.11030(2) 0.78833(3) 0.83256(3) 2.0890 Uiso
H10 H 0.45057(2) 0.96426(3) 0.41757(3) 2.0890 Uiso
H14 H 0.54943(2) 0.96426(3) 0.08243(3) 2.0890 Uiso
O1_2 O 0.08214(2) 0.62336(3) 0.61810(3) 2.0890 Uiso
O2_2 O 0.06761(2) 0.78381(3) 0.59537(3) 2.0890 Uiso
C1_2 C 0.10396(2) 0.70421(3) 0.57819(3) 2.0890 Uiso
C2_2 C 0.18225(2) 0.70540(3) 0.50978(3) 2.0890 Uiso
C3_2 C 0.23087(2) 0.79365(3) 0.46965(3) 2.0890 Uiso
H1_2 H 0.25585(2) 0.83952(3) 0.53862(3) 2.0890 Uiso
H2_2 H 0.20361(2) 0.83544(3) 0.39860(3) 2.0890 Uiso
C4_2 C 0.26537(2) 0.66201(3) 0.55435(3) 2.0890 Uiso
H3_2 H 0.26892(2) 0.58422(3) 0.55989(3) 2.0890 Uiso
H4_2 H 0.29371(2) 0.69756(3) 0.62969(3) 2.0890 Uiso
C5_2 C 0.20196(2) 0.65891(3) 0.38976(3) 2.0890 Uiso
H5_2 H 0.20097(2) 0.58085(3) 0.38590(3) 2.0890 Uiso
H6_2 H 0.17210(2) 0.69196(3) 0.31377(3) 2.0890 Uiso
C6_2 C 0.28395(2) 0.70708(3) 0.43352(3) 2.0890 Uiso
C7_2 C 0.36580(2) 0.70816(3) 0.37325(3) 2.0890 Uiso
N1_2 N 0.00000 0.45884(3) 0.75000 2.0890 Uiso
C8_2 C 0.02229(2) 0.41000(3) 0.65333(3) 2.0890 Uiso
H7_2 H 0.04151(2) 0.45127(3) 0.57746(3) 2.0890 Uiso
C9_2 C 0.02209(2) 0.31146(3) 0.64986(3) 2.0890 Uiso
H8_2 H 0.04011(2) 0.27576(3) 0.56952(3) 2.0890 Uiso
C10_2 C 0.00000 0.26020(3) 0.75000 2.0890 Uiso
C11_2 C 0.00000 0.15569(3) 0.75000 2.0890 Uiso
C16_2 C 0.02486(2) 0.10451(3) 0.84927(3) 2.0890 Uiso
H13_2 H 0.04557(2) 0.13986(3) 0.92909(3) 2.0890 Uiso
C17_2 C 0.02590(2) 0.00601(3) 0.84458(3) 2.0890 Uiso
N3_2 N -0.00000 0.95686(3) 0.75000 2.0890 Uiso
H14_2 H 0.04943(2) 0.96426(3) 0.91757(3) 2.0890 Uiso
C20_2 C 0.76913(2) 0.79365(3) 0.03035(3) 2.0890 Uiso
H16_2 H 0.79639(2) 0.83544(3) 0.10140(3) 2.0890 Uiso
C22_2 C 0.79804(2) 0.65891(3) 0.11024(3) 2.0890 Uiso
H19_2 H 0.79903(2) 0.58085(3) 0.11410(3) 2.0890 Uiso
H20_2 H 0.82790(2) 0.69196(3) 0.18623(3) 2.0890 Uiso
C23_2 C 0.71605(2) 0.70708(3) 0.06648(3) 2.0890 Uiso
C24_2 C 0.63420(2) 0.70816(3) 0.12675(3) 2.0890 Uiso
N1_3 N 1.00000 0.45884(3) 0.75000 2.0890 Uiso
C10_3 C 1.00000 0.26020(3) 0.75000 2.0890 Uiso
C11_3 C 1.00000 0.15569(3) 0.75000 2.0890 Uiso
C12_2 C 0.97514(2) 0.10451(3) 0.65073(3) 2.0890 Uiso
H9_2 H 0.95443(2) 0.13986(3) 0.57091(3) 2.0890 Uiso
C13_2 C 0.97410(2) 0.00601(3) 0.65542(3) 2.0890 Uiso
C14_2 C 0.97771(2) 0.41000(3) 0.84667(3) 2.0890 Uiso
H11_2 H 0.95849(2) 0.45127(3) 0.92254(3) 2.0890 Uiso
C15_2 C 0.97791(2) 0.31146(3) 0.85014(3) 2.0890 Uiso
H12_2 H 0.95989(2) 0.27576(3) 0.93048(3) 2.0890 Uiso
O5_2 O 0.91786(2) 0.62336(3) 0.88190(3) 2.0890 Uiso
O6_2 O 0.93239(2) 0.78381(3) 0.90463(3) 2.0890 Uiso
C18_2 C 0.89604(2) 0.70421(3) 0.92181(3) 2.0890 Uiso
C19_2 C 0.81775(2) 0.70540(3) 0.99022(3) 2.0890 Uiso
H15_2 H 0.74415(2) 0.83952(3) 0.96138(3) 2.0890 Uiso
C21_2 C 0.73463(2) 0.66201(3) 0.94565(3) 2.0890 Uiso
H17_2 H 0.73108(2) 0.58422(3) 0.94011(3) 2.0890 Uiso
H18_2 H 0.70629(2) 0.69756(3) 0.87031(3) 2.0890 Uiso
N3_3 N 1.00000 0.95686(3) 0.75000 2.0890 Uiso
H10_2 H 0.95057(2) 0.96426(3) 0.58243(3) 2.0890 Uiso
H10_3 H 0.04943(2) 0.03574(3) 0.41757(3) 2.0890 Uiso
N2 N 0.00000 0.04314(3) 0.25000 2.0890 Uiso
Zn3 Zn 0.00000 0.19153(3) 0.25000 2.0890 Uiso
Zn2_2 Zn 0.00000 0.39251(3) 0.25000 2.0890 Uiso
N1_4 N 0.00000 0.54116(3) 0.25000 2.0890 Uiso
C10_4 C 0.00000 0.73980(3) 0.25000 2.0890 Uiso
C11_4 C 0.00000 0.84431(3) 0.25000 2.0890 Uiso
C12_3 C 0.02486(2) 0.89549(3) 0.34927(3) 2.0890 Uiso
H9_3 H 0.04557(2) 0.86014(3) 0.42909(3) 2.0890 Uiso
C13_3 C 0.02590(2) 0.99399(3) 0.34458(3) 2.0890 Uiso
C14_3 C 0.02229(2) 0.59000(3) 0.15333(3) 2.0890 Uiso
H11_3 H 0.04151(2) 0.54873(3) 0.07746(3) 2.0890 Uiso
C15_3 C 0.02209(2) 0.68854(3) 0.14986(3) 2.0890 Uiso
H12_3 H 0.04011(2) 0.72424(3) 0.06952(3) 2.0890 Uiso
O5_3 O 0.08214(2) 0.37664(3) 0.11810(3) 2.0890 Uiso
O6_3 O 0.06761(2) 0.21619(3) 0.09537(3) 2.0890 Uiso
C18_3 C 0.10396(2) 0.29579(3) 0.07819(3) 2.0890 Uiso
C19_3 C 0.18225(2) 0.29460(3) 0.00978(3) 2.0890 Uiso
H15_3 H 0.25585(2) 0.16048(3) 0.03862(3) 2.0890 Uiso
C21_3 C 0.26537(2) 0.33799(3) 0.05435(3) 2.0890 Uiso
H17_3 H 0.26892(2) 0.41578(3) 0.05989(3) 2.0890 Uiso
H18_3 H 0.29371(2) 0.30244(3) 0.12969(3) 2.0890 Uiso
O10_2 O 0.09532(2) 0.37043(3) 0.36755(3) 2.0890 Uiso
O12_2 O 0.11030(2) 0.21167(3) 0.33256(3) 2.0890 Uiso
C20_3 C 0.23087(2) 0.20635(3) 0.96965(3) 2.0890 Uiso
H16_3 H 0.20361(2) 0.16456(3) 0.89860(3) 2.0890 Uiso
C22_3 C 0.20196(2) 0.34109(3) 0.88976(3) 2.0890 Uiso
H19_3 H 0.20097(2) 0.41915(3) 0.88590(3) 2.0890 Uiso
H20_3 H 0.17210(2) 0.30804(3) 0.81377(3) 2.0890 Uiso
C23_3 C 0.28395(2) 0.29292(3) 0.93352(3) 2.0890 Uiso
C24_3 C 0.36580(2) 0.29184(3) 0.87325(3) 2.0890 Uiso
O7_2 O 0.40468(2) 0.37043(3) 0.86755(3) 2.0890 Uiso
O8_2 O 0.38970(2) 0.21167(3) 0.83256(3) 2.0890 Uiso
Zn4 Zn 0.50000 0.19153(3) 0.75000 2.0890 Uiso
Zn6 Zn 0.50000 0.39251(3) 0.75000 2.0890 Uiso
N2_2 N 1.00000 0.04314(3) 0.25000 2.0890 Uiso
H14_3 H 0.95057(2) 0.03574(3) 0.08243(3) 2.0890 Uiso
Zn3_2 Zn 1.00000 0.19153(3) 0.25000 2.0890 Uiso
Zn2_3 Zn 1.00000 0.39251(3) 0.25000 2.0890 Uiso
O1_3 O 0.91786(2) 0.37664(3) 0.38190(3) 2.0890 Uiso
O2_3 O 0.93239(2) 0.21619(3) 0.40463(3) 2.0890 Uiso
C1_3 C 0.89604(2) 0.29579(3) 0.42181(3) 2.0890 Uiso
C2_3 C 0.81775(2) 0.29460(3) 0.49022(3) 2.0890 Uiso
C3_3 C 0.76913(2) 0.20635(3) 0.53035(3) 2.0890 Uiso
H1_3 H 0.74415(2) 0.16048(3) 0.46138(3) 2.0890 Uiso
H2_3 H 0.79639(2) 0.16456(3) 0.60140(3) 2.0890 Uiso
C4_3 C 0.73463(2) 0.33799(3) 0.44565(3) 2.0890 Uiso
H3_3 H 0.73108(2) 0.41578(3) 0.44011(3) 2.0890 Uiso
H4_3 H 0.70629(2) 0.30244(3) 0.37031(3) 2.0890 Uiso
C5_3 C 0.79804(2) 0.34109(3) 0.61024(3) 2.0890 Uiso
H5_3 H 0.79903(2) 0.41915(3) 0.61410(3) 2.0890 Uiso
H6_3 H 0.82790(2) 0.30804(3) 0.68623(3) 2.0890 Uiso
C6_3 C 0.71605(2) 0.29292(3) 0.56648(3) 2.0890 Uiso
C7_3 C 0.63420(2) 0.29184(3) 0.62675(3) 2.0890 Uiso
O3_2 O 0.59532(2) 0.37043(3) 0.63245(3) 2.0890 Uiso
O4_2 O 0.61030(2) 0.21167(3) 0.66744(3) 2.0890 Uiso
N1_5 N 1.00000 0.54116(3) 0.25000 2.0890 Uiso
C8_3 C 0.97771(2) 0.59000(3) 0.34667(3) 2.0890 Uiso
H7_3 H 0.95849(2) 0.54873(3) 0.42254(3) 2.0890 Uiso
C9_3 C 0.97791(2) 0.68854(3) 0.35014(3) 2.0890 Uiso
H8_3 H 0.95989(2) 0.72424(3) 0.43048(3) 2.0890 Uiso
C10_5 C 1.00000 0.73980(3) 0.25000 2.0890 Uiso
C11_5 C 1.00000 0.84431(3) 0.25000 2.0890 Uiso
C16_3 C 0.97514(2) 0.89549(3) 0.15073(3) 2.0890 Uiso
H13_3 H 0.95443(2) 0.86014(3) 0.07091(3) 2.0890 Uiso
C17_3 C 0.97410(2) 0.99399(3) 0.15542(3) 2.0890 Uiso
O9_2 O 0.90468(2) 0.37043(3) 0.13245(3) 2.0890 Uiso
O11_2 O 0.88970(2) 0.21167(3) 0.16744(3) 2.0890 Uiso
H10_4 H 0.54943(2) 0.03574(3) 0.58243(3) 2.0890 Uiso
N2_3 N 0.50000 0.04314(3) 0.75000 2.0890 Uiso
H14_4 H 0.45057(2) 0.03574(3) 0.91757(3) 2.0890 Uiso
C20_4 C 0.73087(2) 0.20635(3) 0.03035(3) 2.0890 Uiso
H16_4 H 0.70361(2) 0.16456(3) 0.10140(3) 2.0890 Uiso
C22_4 C 0.70196(2) 0.34109(3) 0.11024(3) 2.0890 Uiso
H19_4 H 0.70097(2) 0.41915(3) 0.11410(3) 2.0890 Uiso
H20_4 H 0.67210(2) 0.30804(3) 0.18623(3) 2.0890 Uiso
C23_4 C 0.78395(2) 0.29292(3) 0.06648(3) 2.0890 Uiso
C24_4 C 0.86580(2) 0.29184(3) 0.12675(3) 2.0890 Uiso
O1_4 O 0.41786(2) 0.37664(3) 0.61810(3) 2.0890 Uiso
O2_4 O 0.43239(2) 0.21619(3) 0.59537(3) 2.0890 Uiso
C1_4 C 0.39604(2) 0.29579(3) 0.57819(3) 2.0890 Uiso
C2_4 C 0.31775(2) 0.29460(3) 0.50978(3) 2.0890 Uiso
C3_4 C 0.26913(2) 0.20635(3) 0.46965(3) 2.0890 Uiso
H1_4 H 0.24415(2) 0.16048(3) 0.53862(3) 2.0890 Uiso
H2_4 H 0.29639(2) 0.16456(3) 0.39860(3) 2.0890 Uiso
C4_4 C 0.23463(2) 0.33799(3) 0.55435(3) 2.0890 Uiso
H3_4 H 0.23108(2) 0.41578(3) 0.55989(3) 2.0890 Uiso
H4_4 H 0.20629(2) 0.30244(3) 0.62969(3) 2.0890 Uiso
C5_4 C 0.29804(2) 0.34109(3) 0.38976(3) 2.0890 Uiso
H5_4 H 0.29903(2) 0.41915(3) 0.38590(3) 2.0890 Uiso
H6_4 H 0.32790(2) 0.30804(3) 0.31377(3) 2.0890 Uiso
C6_4 C 0.21605(2) 0.29292(3) 0.43352(3) 2.0890 Uiso
C7_4 C 0.13420(2) 0.29184(3) 0.37325(3) 2.0890 Uiso
N1_6 N 0.50000 0.54116(3) 0.75000 2.0890 Uiso
C8_4 C 0.47771(2) 0.59000(3) 0.65333(3) 2.0890 Uiso
H7_4 H 0.45849(2) 0.54873(3) 0.57746(3) 2.0890 Uiso
C9_4 C 0.47791(2) 0.68854(3) 0.64986(3) 2.0890 Uiso
H8_4 H 0.45989(2) 0.72424(3) 0.56952(3) 2.0890 Uiso
C10_6 C 0.50000 0.73980(3) 0.75000 2.0890 Uiso
C11_6 C 0.50000 0.84431(3) 0.75000 2.0890 Uiso
C12_4 C 0.52486(2) 0.89549(3) 0.65073(3) 2.0890 Uiso
H9_4 H 0.54557(2) 0.86014(3) 0.57091(3) 2.0890 Uiso
C13_4 C 0.52590(2) 0.99399(3) 0.65542(3) 2.0890 Uiso
C14_4 C 0.52229(2) 0.59000(3) 0.84667(3) 2.0890 Uiso
H11_4 H 0.54151(2) 0.54873(3) 0.92254(3) 2.0890 Uiso
C15_4 C 0.52209(2) 0.68854(3) 0.85014(3) 2.0890 Uiso
H12_4 H 0.54011(2) 0.72424(3) 0.93048(3) 2.0890 Uiso
C16_4 C 0.47514(2) 0.89549(3) 0.84927(3) 2.0890 Uiso
H13_4 H 0.45443(2) 0.86014(3) 0.92909(3) 2.0890 Uiso
C17_4 C 0.47410(2) 0.99399(3) 0.84458(3) 2.0890 Uiso
O5_4 O 0.58214(2) 0.37664(3) 0.88190(3) 2.0890 Uiso
O6_4 O 0.56761(2) 0.21619(3) 0.90463(3) 2.0890 Uiso
C18_4 C 0.60396(2) 0.29579(3) 0.92181(3) 2.0890 Uiso
C19_4 C 0.68225(2) 0.29460(3) 0.99022(3) 2.0890 Uiso
H15_4 H 0.75585(2) 0.16048(3) 0.96138(3) 2.0890 Uiso
C21_4 C 0.76537(2) 0.33799(3) 0.94565(3) 2.0890 Uiso
H17_4 H 0.76892(2) 0.41578(3) 0.94011(3) 2.0890 Uiso
H18_4 H 0.79371(2) 0.30244(3) 0.87031(3) 2.0890 Uiso
loop_
_geom_bond_atom_site_label_1
_geom_bond_atom_site_label_2
_geom_bond_site_symmetry_1
_geom_bond_site_symmetry_2
Zn1 O2 1_555 1_555
Zn2 O1 1_555 1_555
O1 C1 1_555 1_555
O2 C1 1_555 1_555
C1 C2 1_555 1_555
C2 C3 1_555 1_555
C3 H1 1_555 1_555
H2 C3 1_555 1_555
C4 C2 1_555 1_555
H3 C4 1_555 1_555
H4 C4 1_555 1_555
C5 C2 1_555 1_555
H5 C5 1_555 1_555
H6 C5 1_555 1_555
C6 C3 1_555 1_555
C7 C6 1_555 1_555
O3 C7 1_555 1_555
O4 C7 1_555 1_555
N1 Zn2 1_555 1_555
C8 N1 1_555 1_555
H7 C8 1_555 1_555
C9 C8 1_555 1_555
H8 C9 1_555 1_555
C10 C9 1_555 1_555
C11 C10 1_555 1_555
C12 C11 1_555 1_555
H9 C12 1_555 1_555
C13 C12 1_555 1_555
C14 N1 1_555 1_555
H11 C14 1_555 1_555
C15 C10 1_555 1_555
H12 C15 1_555 1_555
C16 C11 1_555 1_555
H13 C16 1_555 1_555
O5 Zn2 1_555 1_555
O6 Zn1 1_555 1_555
C18 O5 1_555 1_555
C19 C18 1_555 1_555
C21 C19 1_555 1_555
H17 C21 1_555 1_555
H18 C21 1_555 1_555
Zn5_2 O4 1_555 1_555
Zn7_2 O3 1_555 1_555
O9 Zn2 1_555 1_555
O10 Zn2 1_555 1_555
O11 Zn1 1_555 1_555
O12 Zn1 1_555 1_555
N3 Zn1 1_555 1_555
C4 C6 1_555 1_555
C5 C6 1_555 1_555
C14 C15 1_555 1_555
C16 C17 1_555 1_555
O6 C18 1_555 1_555
H16 C20 1_555 1_555
H19 C22 1_555 1_555
H20 C22 1_555 1_555
C23 C20 1_555 1_555
C24 C23 1_555 1_555
O7 C24 1_555 1_555
O8 C24 1_555 1_555
Zn5 O8 1_555 1_555
Zn7 O7 1_555 1_555
C22 C23 1_555 1_555
Zn5 O2_2 1_555 1_555
Zn7 O1_2 1_555 1_555
O1_2 C1_2 1_555 1_555
O2_2 C1_2 1_555 1_555
C1_2 C2_2 1_555 1_555
C2_2 C3_2 1_555 1_555
C3_2 H1_2 1_555 1_555
H2_2 C3_2 1_555 1_555
C4_2 C2_2 1_555 1_555
H3_2 C4_2 1_555 1_555
H4_2 C4_2 1_555 1_555
C5_2 C2_2 1_555 1_555
H5_2 C5_2 1_555 1_555
H6_2 C5_2 1_555 1_555
C6_2 C3_2 1_555 1_555
C7_2 C6_2 1_555 1_555
O10 C7_2 1_555 1_555
O12 C7_2 1_555 1_555
N1_2 Zn7 1_555 1_555
C8_2 N1_2 1_555 1_555
H7_2 C8_2 1_555 1_555
C9_2 C8_2 1_555 1_555
H8_2 C9_2 1_555 1_555
C10_2 C9_2 1_555 1_555
C11_2 C10_2 1_555 1_555
C16_2 C11_2 1_555 1_555
H13_2 C16_2 1_555 1_555
N3_2 Zn5 1_555 1_555
C4_2 C6_2 1_555 1_555
C5_2 C6_2 1_555 1_555
C16_2 C17_2 1_555 1_555
H16_2 C20_2 1_555 1_555
H19_2 C22_2 1_555 1_555
H20_2 C22_2 1_555 1_555
C23_2 C20_2 1_555 1_555
C24_2 C23_2 1_555 1_555
O9 C24_2 1_555 1_555
O11 C24_2 1_555 1_555
C22_2 C23_2 1_555 1_555
N1_3 Zn7_2 1_555 1_555
C11_3 C10_3 1_555 1_555
C12_2 C11_3 1_555 1_555
H9_2 C12_2 1_555 1_555
C13_2 C12_2 1_555 1_555
C14_2 N1_3 1_555 1_555
H11_2 C14_2 1_555 1_555
C15_2 C10_3 1_555 1_555
H12_2 C15_2 1_555 1_555
O5_2 Zn7_2 1_555 1_555
O6_2 Zn5_2 1_555 1_555
C18_2 O5_2 1_555 1_555
C19_2 C18_2 1_555 1_555
C21_2 C19_2 1_555 1_555
H17_2 C21_2 1_555 1_555
H18_2 C21_2 1_555 1_555
N3_3 Zn5_2 1_555 1_555
C14_2 C15_2 1_555 1_555
O6_2 C18_2 1_555 1_555
Zn3 N2 1_555 1_555
N1_4 Zn2_2 1_555 1_555
C11_4 C10_4 1_555 1_555
C12_3 C11_4 1_555 1_555
H9_3 C12_3 1_555 1_555
C13_3 C12_3 1_555 1_555
C14_3 N1_4 1_555 1_555
H11_3 C14_3 1_555 1_555
C15_3 C10_4 1_555 1_555
H12_3 C15_3 1_555 1_555
O5_3 Zn2_2 1_555 1_555
O6_3 Zn3 1_555 1_555
C18_3 O5_3 1_555 1_555
C19_3 C18_3 1_555 1_555
C21_3 C19_3 1_555 1_555
H17_3 C21_3 1_555 1_555
H18_3 C21_3 1_555 1_555
O10_2 Zn2_2 1_555 1_555
O12_2 Zn3 1_555 1_555
C14_3 C15_3 1_555 1_555
O6_3 C18_3 1_555 1_555
H16_3 C20_3 1_555 1_555
H19_3 C22_3 1_555 1_555
H20_3 C22_3 1_555 1_555
C23_3 C20_3 1_555 1_555
C24_3 C23_3 1_555 1_555
O7_2 C24_3 1_555 1_555
O8_2 C24_3 1_555 1_555
Zn4 O8_2 1_555 1_555
Zn6 O7_2 1_555 1_555
C22_3 C23_3 1_555 1_555
Zn3_2 N2_2 1_555 1_555
Zn3_2 O2_3 1_555 1_555
Zn2_3 O1_3 1_555 1_555
O1_3 C1_3 1_555 1_555
O2_3 C1_3 1_555 1_555
C1_3 C2_3 1_555 1_555
C2_3 C3_3 1_555 1_555
C3_3 H1_3 1_555 1_555
H2_3 C3_3 1_555 1_555
C4_3 C2_3 1_555 1_555
H3_3 C4_3 1_555 1_555
H4_3 C4_3 1_555 1_555
C5_3 C2_3 1_555 1_555
H5_3 C5_3 1_555 1_555
H6_3 C5_3 1_555 1_555
C6_3 C3_3 1_555 1_555
C7_3 C6_3 1_555 1_555
O3_2 C7_3 1_555 1_555
O4_2 C7_3 1_555 1_555
N1_5 Zn2_3 1_555 1_555
C8_3 N1_5 1_555 1_555
H7_3 C8_3 1_555 1_555
C9_3 C8_3 1_555 1_555
H8_3 C9_3 1_555 1_555
C10_5 C9_3 1_555 1_555
C11_5 C10_5 1_555 1_555
C16_3 C11_5 1_555 1_555
H13_3 C16_3 1_555 1_555
Zn4 O4_2 1_555 1_555
Zn6 O3_2 1_555 1_555
O9_2 Zn2_3 1_555 1_555
O11_2 Zn3_2 1_555 1_555
C4_3 C6_3 1_555 1_555
C5_3 C6_3 1_555 1_555
C16_3 C17_3 1_555 1_555
Zn4 N2_3 1_555 1_555
H16_4 C20_4 1_555 1_555
H19_4 C22_4 1_555 1_555
H20_4 C22_4 1_555 1_555
C23_4 C20_4 1_555 1_555
C24_4 C23_4 1_555 1_555
O9_2 C24_4 1_555 1_555
O11_2 C24_4 1_555 1_555
C22_4 C23_4 1_555 1_555
Zn4 O2_4 1_555 1_555
Zn6 O1_4 1_555 1_555
O1_4 C1_4 1_555 1_555
O2_4 C1_4 1_555 1_555
C1_4 C2_4 1_555 1_555
C2_4 C3_4 1_555 1_555
C3_4 H1_4 1_555 1_555
H2_4 C3_4 1_555 1_555
C4_4 C2_4 1_555 1_555
H3_4 C4_4 1_555 1_555
H4_4 C4_4 1_555 1_555
C5_4 C2_4 1_555 1_555
H5_4 C5_4 1_555 1_555
H6_4 C5_4 1_555 1_555
C6_4 C3_4 1_555 1_555
C7_4 C6_4 1_555 1_555
O10_2 C7_4 1_555 1_555
O12_2 C7_4 1_555 1_555
N1_6 Zn6 1_555 1_555
C8_4 N1_6 1_555 1_555
H7_4 C8_4 1_555 1_555
C9_4 C8_4 1_555 1_555
H8_4 C9_4 1_555 1_555
C10_6 C9_4 1_555 1_555
C11_6 C10_6 1_555 1_555
C12_4 C11_6 1_555 1_555
H9_4 C12_4 1_555 1_555
C13_4 C12_4 1_555 1_555
C14_4 N1_6 1_555 1_555
H11_4 C14_4 1_555 1_555
C15_4 C10_6 1_555 1_555
H12_4 C15_4 1_555 1_555
C16_4 C11_6 1_555 1_555
H13_4 C16_4 1_555 1_555
O5_4 Zn6 1_555 1_555
O6_4 Zn4 1_555 1_555
C18_4 O5_4 1_555 1_555
C19_4 C18_4 1_555 1_555
C21_4 C19_4 1_555 1_555
H17_4 C21_4 1_555 1_555
H18_4 C21_4 1_555 1_555
C4_4 C6_4 1_555 1_555
C5_4 C6_4 1_555 1_555
C14_4 C15_4 1_555 1_555
C16_4 C17_4 1_555 1_555
O6_4 C18_4 1_555 1_555

#END
