
###############################################################################
#
# This file contains modified crystal structure data generated from the
# MOF subset of the Cambridge Structural Database (CSD) v543 
# hosted by the Cambridge Crystallographic Data Centre (CCDC).
#
# This work is licensed under the Creative Commons
# Attribution-NonCommercial-ShareAlike 4.0 International License.
# To view a copy of this license, visit
# http://creativecommons.org/licenses/by-nc-sa/4.0/
# or send a letter to
# Creative Commons, PO Box 1866, Mountain View, CA 94042, USA.
#
# CIF created using the CSD Python API on 29 September 2022
# The structure has been converted into the P1 space group
# The structure has a 3D framework
# The original CSD entry OBIDIQ is in the monoclinic crystal system
# The framework has been calculated to contain at least 10.0% void space
# The void calculation uses a probe of radius 1.32A, grid spacing 0.4
#
###############################################################################

data_OBIDIQ
_chemical_formula_moiety         '(C144 H80 Fe4 N48 Pt8 S8)n'
_symmetry_cell_setting           triclinic
_symmetry_space_group_name_H-M   'P 1'
_symmetry_Int_Tables_number      1
_space_group_name_Hall           'P 1'
loop_
_symmetry_equiv_pos_site_id
_symmetry_equiv_pos_as_xyz
1 x,y,z
_cell_length_a                   7.1865(2)
_cell_length_b                   28.8122(8)
_cell_length_c                   29.7515(9)
_cell_angle_alpha                90
_cell_angle_beta                 94.6390(10)
_cell_angle_gamma                90
_cell_volume                     6140.13
loop_
_atom_site_label
_atom_site_type_symbol
_atom_site_fract_x
_atom_site_fract_y
_atom_site_fract_z
Fe1 Fe 0.00589(18) 0.87666(4) 0.26575(4)
Fe8 Fe 0.01223(19) 0.62655(5) 0.26343(5)
N14 N 0.0148(11) 0.8896(2) 0.1954(3)
N16 N 0.0051(11) 0.8610(3) 0.3344(3)
N17 N 0.2033(11) 0.8271(3) 0.2618(3)
N18 N 0.2065(12) 0.9250(3) 0.2774(3)
Pt1 Pt 0.50165(5) 0.50407(2) 0.23763(2)
Pt2 Pt 0.51150(5) 0.74969(2) 0.26780(2)
S1 S 0.0467(4) 0.62612(9) 0.51373(9)
S2 S 0.0015(4) 0.63484(9) 0.01603(9)
N1 N 0.0352(11) 0.6144(3) 0.3304(2)
N3 N 0.2029(11) 0.6736(3) 0.2729(3)
N5 N 0.8203(11) 0.5783(3) 0.2523(3)
N6 N 0.2028(11) 0.5807(3) 0.2546(3)
N7 N 0.0148(11) 0.6104(2) 0.6954(3)
N8 N 0.1886(11) 0.4274(3) 0.2313(3)
C1 C 0.3177(13) 0.7022(3) 0.2737(3)
C2 C 0.6873(13) 0.4541(4) 0.2260(3)
N11 N 0.7935(12) 0.4250(3) 0.2226(3)
C3 C 0.3004(14) 0.4556(4) 0.2318(3)
C4 C 0.6977(13) 0.7983(4) 0.2586(3)
C6 C 0.3118(13) 0.5527(3) 0.2489(3)
N12 N 0.8047(11) 0.8276(3) 0.2541(3)
C7 C 0.3156(14) 0.7981(4) 0.2640(3)
C8 C 0.7063(12) 0.5516(3) 0.2461(3)
C10 C 0.0191(13) 0.6479(3) 0.3604(3)
C11 C 0.0707(13) 0.5711(4) 0.3472(3)
H3 H 0.080866 0.546248 0.326477
C15 C 0.0002(14) 0.6464(3) 0.6655(3)
C16 C 0.0738(13) 0.5972(3) 0.4243(3)
C19 C 0.0583(14) 0.5691(4) 0.6806(3)
H8 H 0.069397 0.544183 0.701539
C21 C 0.0374(14) 0.6416(3) 0.4062(3)
H10 H 0.025469 0.667315 0.425766
C25 C 0.0745(15) 0.5961(4) 0.6045(3)
C26 C 0.0269(16) 0.6395(3) 0.6205(3)
H14 H 0.012554 0.664919 0.600132
C28 C 0.0924(13) 0.5614(3) 0.3924(3)
H15 H 0.119916 0.530620 0.402296
C30 C 0.1026(14) 0.5866(3) 0.5573(3)
C31 C 0.0974(14) 0.5868(3) 0.4728(3)
C32 C 0.1581(14) 0.5460(3) 0.4924(3)
H16 H 0.195279 0.519944 0.475778
C33 C 0.0885(15) 0.5604(3) 0.6367(4)
H17 H 0.119169 0.529807 0.627860
C34 C 0.1600(14) 0.5467(3) 0.5398(4)
H18 H 0.199103 0.520841 0.557933
Fe5 Fe 0.99411(18) 0.37666(4) 0.23425(4)
Fe7 Fe 0.00589(18) 0.62334(4) 0.76575(4)
N15 N 0.8114(11) 0.9274(3) 0.2687(3)
C37 C 0.7076(13) 0.7009(4) 0.2706(3)
N9 N 0.0051(11) 0.6390(3) 0.8344(3)
C12 C 0.0068(13) 0.6842(3) 0.8481(3)
H4 H 0.010802 0.708176 0.826353
C20 C 0.0020(15) 0.6074(4) 0.8662(4)
H9 H 0.003614 0.575786 0.857059
C24 C 0.0027(13) 0.6957(3) 0.8929(3)
H13 H 0.006430 0.727499 0.901389
N2 N 0.8182(11) 0.6725(3) 0.2703(3)
N4 N 0.9964(12) 0.6420(3) 0.1978(3)
C9 C 0.9891(14) 0.6094(4) 0.1660(4)
H1 H 0.985021 0.577932 0.175272
H2 H 0.993178 0.678389 0.349341
C13 C 0.9869(14) 0.6186(4) 0.1190(3)
H5 H 0.987385 0.593937 0.097875
C14 C 0.9904(13) 0.6860(3) 0.1832(4)
H6 H 0.989529 0.710264 0.204777
H7 H 0.971176 0.676529 0.675717
C18 C 0.9842(13) 0.6644(3) 0.1047(3)
C23 C 0.9856(13) 0.6975(4) 0.1379(3)
H12 H 0.983132 0.729353 0.129589
C29 C 0.9802(14) 0.6755(3) 0.0567(3)
C35 C 0.9614(19) 0.7188(4) 0.0380(4)
H19 H 0.949182 0.746280 0.055100
N2_2 N 0.1818(11) 0.1725(3) 0.2297(3)
N4_2 N 0.0036(12) 0.1420(3) 0.3022(3)
C5 C 0.2924(13) 0.2009(4) 0.2294(3)
C9_2 C 0.0109(14) 0.1094(4) 0.3340(4)
H1_2 H 0.014979 0.077932 0.324728
H2_2 H 0.006822 0.178389 0.150659
C13_2 C 0.0131(14) 0.1186(4) 0.3810(3)
H5_2 H 0.012615 0.093937 0.402125
C14_2 C 0.0096(13) 0.1860(3) 0.3168(4)
H6_2 H 0.010471 0.210264 0.295223
C17 C 0.0065(13) 0.1624(3) 0.5744(3)
C18_2 C 0.0158(13) 0.1644(3) 0.3953(3)
C22 C 0.0032(14) 0.1157(4) 0.5890(4)
H11 H 0.004634 0.090901 0.568061
C23_2 C 0.0144(13) 0.1975(4) 0.3621(3)
H12_2 H 0.016868 0.229353 0.370411
C27 C 0.0134(15) 0.1752(3) 0.5265(3)
C29_2 C 0.0198(14) 0.1755(3) 0.4433(3)
C35_2 C 0.0386(19) 0.2188(4) 0.4620(4)
H19_2 H 0.050818 0.246280 0.444900
C36 C 0.0379(18) 0.2184(4) 0.5089(4)
H20 H 0.053027 0.245635 0.526858
Pt3 Pt 0.48850(5) 0.24969(2) 0.23220(2)
N13 N 0.1797(11) 0.0783(3) 0.2477(3)
Pt1_2 Pt 0.49835(5) 0.00407(2) 0.26237(2)
Fe2 Fe 0.98777(19) 0.12655(5) 0.23657(5)
S2_2 S 0.9985(4) 0.13484(9) 0.48397(9)
N1_2 N 0.9648(11) 0.1144(3) 0.1696(2)
N3_2 N 0.7971(11) 0.1736(3) 0.2271(3)
N6_2 N 0.7972(11) 0.0807(3) 0.2454(3)
N9_2 N 0.9949(11) 0.1390(3) 0.6656(3)
C1_2 C 0.6823(13) 0.2022(3) 0.2263(3)
N10 N 0.7967(11) 0.3271(3) 0.2382(3)
C4_2 C 0.3023(13) 0.2983(4) 0.2414(3)
C6_2 C 0.6882(13) 0.0527(3) 0.2511(3)
N12_2 N 0.1953(11) 0.3276(3) 0.2459(3)
C7_2 C 0.6844(14) 0.2981(4) 0.2360(3)
C8_2 C 0.2937(12) 0.0516(3) 0.2539(3)
C10_2 C 0.9809(13) 0.1479(3) 0.1396(3)
C11_2 C 0.9293(13) 0.0711(4) 0.1528(3)
H3_2 H 0.919134 0.046248 0.173523
C12_2 C 0.9932(13) 0.1842(3) 0.6519(3)
H4_2 H 0.989198 0.208176 0.673647
C16_2 C 0.9262(13) 0.0972(3) 0.0757(3)
C20_2 C 0.9980(15) 0.1074(4) 0.6338(4)
H9_2 H 0.996386 0.075786 0.642941
C21_2 C 0.9626(14) 0.1416(3) 0.0938(3)
H10_2 H 0.974531 0.167315 0.074234
C24_2 C 0.9973(13) 0.1957(3) 0.6071(3)
H13_2 H 0.993570 0.227499 0.598611
C28_2 C 0.9076(13) 0.0614(3) 0.1076(3)
H15_2 H 0.880084 0.030620 0.097704
C31_2 C 0.9026(14) 0.0868(3) 0.0272(3)
C32_2 C 0.8419(14) 0.0460(3) 0.0076(3)
H16_2 H 0.804721 0.019944 0.024222
Fe6 Fe 0.99411(18) 0.12334(4) 0.73425(4)
S1_2 S 0.9533(4) 0.12612(9) 0.98627(9)
N7_2 N 0.9852(11) 0.1104(2) 0.8046(3)
C15_2 C 0.9998(14) 0.1464(3) 0.8345(3)
C19_2 C 0.9417(14) 0.0691(4) 0.8194(3)
H8_2 H 0.930603 0.044183 0.798461
C25_2 C 0.9255(15) 0.0961(4) 0.8955(3)
C26_2 C 0.9731(16) 0.1395(3) 0.8795(3)
H14_2 H 0.987446 0.164919 0.899868
C30_2 C 0.8974(14) 0.0866(3) 0.9427(3)
C33_2 C 0.9115(15) 0.0604(3) 0.8633(4)
H17_2 H 0.880831 0.029807 0.872140
C34_2 C 0.8400(14) 0.0467(3) 0.9602(4)
H18_2 H 0.800897 0.020841 0.942067
C2_2 C 0.3127(13) 0.9541(4) 0.2740(3)
C3_2 C 0.6996(14) 0.9556(4) 0.2682(3)
N14_2 N 0.9852(11) 0.3896(2) 0.3046(3)
N16_2 N 0.9949(11) 0.3610(3) 0.1656(3)
N2_3 N 0.1818(11) 0.3275(3) 0.7297(3)
N4_3 N 0.0036(12) 0.3580(3) 0.8022(3)
C5_2 C 0.2924(13) 0.2991(4) 0.7294(3)
C9_3 C 0.0109(14) 0.3906(4) 0.8340(4)
H1_3 H 0.014979 0.422068 0.824728
H2_3 H 0.006822 0.321611 0.650659
C13_3 C 0.0131(14) 0.3814(4) 0.8810(3)
H5_3 H 0.012615 0.406063 0.902125
C14_3 C 0.0096(13) 0.3140(3) 0.8168(4)
H6_3 H 0.010471 0.289736 0.795223
H7_2 H 0.028824 0.323471 0.324283
C18_3 C 0.0158(13) 0.3356(3) 0.8953(3)
C23_3 C 0.0144(13) 0.3025(4) 0.8621(3)
H12_3 H 0.016868 0.270647 0.870411
C29_3 C 0.0198(14) 0.3245(3) 0.9433(3)
C35_3 C 0.0386(19) 0.2812(4) 0.9620(4)
H19_3 H 0.050818 0.253720 0.944900
Pt3_2 Pt 0.48850(5) 0.25031(2) 0.73220(2)
N13_2 N 0.1797(11) 0.4217(3) 0.7477(3)
C12_3 C 0.9932(13) 0.3158(3) 0.1519(3)
H4_3 H 0.989198 0.291824 0.173647
C20_3 C 0.9980(15) 0.3926(4) 0.1338(4)
H9_3 H 0.996386 0.424214 0.142941
C24_3 C 0.9973(13) 0.3043(3) 0.1071(3)
H13_3 H 0.993570 0.272501 0.098611
Pt1_3 Pt 0.49835(5) 0.49593(2) 0.76237(2)
Fe2_2 Fe 0.98777(19) 0.37345(5) 0.73657(5)
S1_3 S 0.9533(4) 0.37388(9) 0.48627(9)
S2_3 S 0.9985(4) 0.36516(9) 0.98397(9)
N1_3 N 0.9648(11) 0.3856(3) 0.6696(2)
N3_3 N 0.7971(11) 0.3264(3) 0.7271(3)
N6_3 N 0.7972(11) 0.4193(3) 0.7454(3)
N8_2 N 0.8114(11) 0.5726(3) 0.7687(3)
C1_3 C 0.6823(13) 0.2978(3) 0.7263(3)
N10_2 N 0.7967(11) 0.1729(3) 0.7382(3)
C2_3 C 0.3127(13) 0.5459(4) 0.7740(3)
N11_2 N 0.2065(12) 0.5750(3) 0.7774(3)
C3_3 C 0.6996(14) 0.5444(4) 0.7682(3)
C4_3 C 0.3023(13) 0.2017(4) 0.7414(3)
C6_3 C 0.6882(13) 0.4473(3) 0.7511(3)
N12_3 N 0.1953(11) 0.1724(3) 0.7459(3)
C7_3 C 0.6844(14) 0.2019(4) 0.7360(3)
C8_3 C 0.2937(12) 0.4484(3) 0.7539(3)
C10_3 C 0.9809(13) 0.3521(3) 0.6396(3)
C11_3 C 0.9293(13) 0.4289(4) 0.6528(3)
H3_3 H 0.919134 0.453752 0.673523
C15_3 C 0.9998(14) 0.3536(3) 0.3345(3)
C16_3 C 0.9262(13) 0.4028(3) 0.5757(3)
C19_3 C 0.9417(14) 0.4309(4) 0.3194(3)
H8_3 H 0.930603 0.455817 0.298461
C21_3 C 0.9626(14) 0.3584(3) 0.5938(3)
H10_3 H 0.974531 0.332685 0.574234
C25_3 C 0.9255(15) 0.4039(4) 0.3955(3)
C26_3 C 0.9731(16) 0.3605(3) 0.3795(3)
H14_3 H 0.987446 0.335081 0.399868
C28_3 C 0.9076(13) 0.4386(3) 0.6076(3)
H15_3 H 0.880084 0.469380 0.597704
C30_3 C 0.8974(14) 0.4134(3) 0.4427(3)
C31_3 C 0.9026(14) 0.4132(3) 0.5272(3)
C32_3 C 0.8419(14) 0.4540(3) 0.5076(3)
H16_3 H 0.804721 0.480056 0.524222
C33_3 C 0.9115(15) 0.4396(3) 0.3633(4)
H17_3 H 0.880831 0.470193 0.372140
C34_3 C 0.8400(14) 0.4533(3) 0.4602(4)
H18_3 H 0.800897 0.479159 0.442067
N15_2 N 0.1886(11) 0.0726(3) 0.7313(3)
N18_2 N 0.7935(12) 0.0750(3) 0.7226(3)
Fe8_2 Fe 0.01223(19) 0.87345(5) 0.76343(5)
N17_2 N 0.2033(11) 0.6729(3) 0.7618(3)
C2_4 C 0.6873(13) 0.0459(4) 0.7260(3)
C3_4 C 0.3004(14) 0.0444(4) 0.7318(3)
S1_4 S 0.0467(4) 0.87388(9) 0.01373(9)
C15_4 C 0.0002(14) 0.8536(3) 0.1655(3)
C19_4 C 0.0583(14) 0.9309(4) 0.1806(3)
H8_4 H 0.069397 0.955817 0.201539
C25_4 C 0.0745(15) 0.9039(4) 0.1045(3)
C26_4 C 0.0269(16) 0.8605(3) 0.1205(3)
H14_4 H 0.012554 0.835081 0.100132
C30_4 C 0.1026(14) 0.9134(3) 0.0573(3)
C33_4 C 0.0885(15) 0.9396(3) 0.1367(4)
H17_4 H 0.119169 0.970193 0.127860
C34_4 C 0.1600(14) 0.9533(3) 0.0398(4)
H18_4 H 0.199103 0.979159 0.057933
Pt1_4 Pt 0.50165(5) 0.99593(2) 0.73763(2)
Pt2_2 Pt 0.51150(5) 0.75031(2) 0.76780(2)
S2_4 S 0.0015(4) 0.86516(9) 0.51603(9)
N1_4 N 0.0352(11) 0.8856(3) 0.8304(2)
N3_4 N 0.2029(11) 0.8264(3) 0.7729(3)
N5_2 N 0.8203(11) 0.9217(3) 0.7523(3)
N6_4 N 0.2028(11) 0.9193(3) 0.7546(3)
C1_4 C 0.3177(13) 0.7978(3) 0.7737(3)
C4_4 C 0.6977(13) 0.7017(4) 0.7586(3)
C6_4 C 0.3118(13) 0.9473(3) 0.7489(3)
N12_4 N 0.8047(11) 0.6724(3) 0.7541(3)
C7_4 C 0.3156(14) 0.7019(4) 0.7640(3)
C8_4 C 0.7063(12) 0.9484(3) 0.7461(3)
C10_4 C 0.0191(13) 0.8521(3) 0.8604(3)
C11_4 C 0.0707(13) 0.9289(4) 0.8472(3)
H3_4 H 0.080866 0.953752 0.826477
C12_4 C 0.0068(13) 0.8158(3) 0.3481(3)
H4_4 H 0.010802 0.791824 0.326353
C16_4 C 0.0738(13) 0.9028(3) 0.9243(3)
C20_4 C 0.0020(15) 0.8926(4) 0.3662(4)
H9_4 H 0.003614 0.924214 0.357059
C21_4 C 0.0374(14) 0.8584(3) 0.9062(3)
H10_4 H 0.025469 0.832685 0.925766
C24_4 C 0.0027(13) 0.8043(3) 0.3929(3)
H13_4 H 0.006430 0.772501 0.401389
C28_4 C 0.0924(13) 0.9386(3) 0.8924(3)
H15_4 H 0.119916 0.969380 0.902296
C31_4 C 0.0974(14) 0.9132(3) 0.9728(3)
C32_4 C 0.1581(14) 0.9540(3) 0.9924(3)
H16_4 H 0.195279 0.980056 0.975778
C37_2 C 0.7076(13) 0.7991(4) 0.7706(3)
N2_4 N 0.8182(11) 0.8275(3) 0.7703(3)
N4_4 N 0.9964(12) 0.8580(3) 0.6978(3)
C9_4 C 0.9891(14) 0.8906(4) 0.6660(4)
H1_4 H 0.985021 0.922068 0.675272
H2_4 H 0.993178 0.821611 0.849341
C13_4 C 0.9869(14) 0.8814(4) 0.6190(3)
H5_4 H 0.987385 0.906063 0.597875
C14_4 C 0.9904(13) 0.8140(3) 0.6832(4)
H6_4 H 0.989529 0.789736 0.704777
C17_2 C 0.9935(13) 0.8376(3) 0.4256(3)
C18_4 C 0.9842(13) 0.8356(3) 0.6047(3)
C22_2 C 0.9968(14) 0.8843(4) 0.4110(4)
H11_2 H 0.995366 0.909099 0.431939
C23_4 C 0.9856(13) 0.8025(4) 0.6379(3)
H12_4 H 0.983132 0.770647 0.629589
C27_2 C 0.9866(15) 0.8248(3) 0.4735(3)
C29_4 C 0.9802(14) 0.8245(3) 0.5567(3)
C35_4 C 0.9614(19) 0.7812(4) 0.5380(4)
H19_4 H 0.949182 0.753720 0.555100
C36_2 C 0.9621(18) 0.7816(4) 0.4911(4)
H20_2 H 0.946973 0.754365 0.473142
C17_3 C 0.9935(13) 0.6624(3) 0.9256(3)
C22_3 C 0.9968(14) 0.6157(4) 0.9110(4)
H11_3 H 0.995366 0.590901 0.931939
C27_3 C 0.9866(15) 0.6752(3) 0.9735(3)
C36_3 C 0.9621(18) 0.7184(4) 0.9911(4)
H20_3 H 0.946973 0.745635 0.973142
H7_3 H 0.028824 0.176529 0.824283
C17_4 C 0.0065(13) 0.3376(3) 0.0744(3)
C22_4 C 0.0032(14) 0.3843(4) 0.0890(4)
H11_4 H 0.004634 0.409099 0.068061
C27_4 C 0.0134(15) 0.3248(3) 0.0265(3)
C36_4 C 0.0379(18) 0.2816(4) 0.0089(4)
H20_4 H 0.053027 0.254365 0.026858
H7_4 H 0.971176 0.823471 0.175717
loop_
_geom_bond_atom_site_label_1
_geom_bond_atom_site_label_2
_geom_bond_site_symmetry_1
_geom_bond_site_symmetry_2
N14 Fe1 1_555 1_555
N16 Fe1 1_555 1_555
N17 Fe1 1_555 1_555
N18 Fe1 1_555 1_555
Pt1 C2 1_555 1_555
Pt2 C1 1_555 1_555
Fe8 N1 1_555 1_555
S1 C30 1_555 1_555
N1 C10 1_555 1_555
N3 Fe8 1_555 1_555
N5 C8 1_555 1_555
N6 Fe8 1_555 1_555
N7 C15 1_555 1_555
N8 C3 1_555 1_555
C1 N3 1_555 1_555
N17 C7 1_555 1_555
C2 N11 1_555 1_555
N11 Fe5 1_555 1_555
C3 Pt1 1_555 1_555
C4 Pt2 1_555 1_555
C6 Pt1 1_555 1_555
N12 C4 1_555 1_555
C7 Pt2 1_555 1_555
C8 Pt1 1_555 1_555
C11 N1 1_555 1_555
H3 C11 1_555 1_555
C16 C21 1_555 1_555
C19 N7 1_555 1_555
H8 C19 1_555 1_555
C21 C10 1_555 1_555
H10 C21 1_555 1_555
C25 C26 1_555 1_555
C26 C15 1_555 1_555
H14 C26 1_555 1_555
C28 C11 1_555 1_555
H15 C28 1_555 1_555
C30 C25 1_555 1_555
C31 S1 1_555 1_555
C32 C31 1_555 1_555
H16 C32 1_555 1_555
C33 C19 1_555 1_555
H17 C33 1_555 1_555
C34 C30 1_555 1_555
H18 C34 1_555 1_555
Fe7 N7 1_555 1_555
C37 Pt2 1_555 1_555
N6 C6 1_555 1_555
C16 C28 1_555 1_555
C16 C31 1_555 1_555
C25 C33 1_555 1_555
C32 C34 1_555 1_555
N9 C12 1_555 1_555
C12 H4 1_555 1_555
C20 N9 1_555 1_555
H9 C20 1_555 1_555
C24 C12 1_555 1_555
H13 C24 1_555 1_555
Fe7 N9 1_555 1_555
C37 N2 1_555 1_555
C9 N4 1_555 1_555
H1 C9 1_555 1_555
C13 C9 1_555 1_555
H5 C13 1_555 1_555
C14 N4 1_555 1_555
H6 C14 1_555 1_555
C18 C13 1_555 1_555
C23 C14 1_555 1_555
H12 C23 1_555 1_555
C35 C29 1_555 1_555
H19 C35 1_555 1_555
C18 C23 1_555 1_555
C18 C29 1_555 1_555
C5 N2_2 1_555 1_555
C9_2 N4_2 1_555 1_555
H1_2 C9_2 1_555 1_555
C13_2 C9_2 1_555 1_555
H5_2 C13_2 1_555 1_555
C14_2 N4_2 1_555 1_555
H6_2 C14_2 1_555 1_555
C17 C22 1_555 1_555
C18_2 C13_2 1_555 1_555
H11 C22 1_555 1_555
C23_2 C14_2 1_555 1_555
H12_2 C23_2 1_555 1_555
C27 C17 1_555 1_555
C35_2 C29_2 1_555 1_555
H19_2 C35_2 1_555 1_555
C36 C27 1_555 1_555
H20 C36 1_555 1_555
Pt3 C5 1_555 1_555
C18_2 C23_2 1_555 1_555
C18_2 C29_2 1_555 1_555
C35_2 C36 1_555 1_555
Pt3 C1_2 1_555 1_555
Fe2 N1_2 1_555 1_555
N1_2 C10_2 1_555 1_555
N3_2 Fe2 1_555 1_555
N13 C8_2 1_555 1_555
N6_2 Fe2 1_555 1_555
N9_2 C12_2 1_555 1_555
C1_2 N3_2 1_555 1_555
N10 C7_2 1_555 1_555
C4_2 Pt3 1_555 1_555
C6_2 Pt1_2 1_555 1_555
N12_2 C4_2 1_555 1_555
C7_2 Pt3 1_555 1_555
C8_2 Pt1_2 1_555 1_555
C11_2 N1_2 1_555 1_555
H3_2 C11_2 1_555 1_555
C12_2 H4_2 1_555 1_555
C16_2 C21_2 1_555 1_555
C20_2 N9_2 1_555 1_555
H9_2 C20_2 1_555 1_555
C21_2 C10_2 1_555 1_555
H10_2 C21_2 1_555 1_555
C24_2 C12_2 1_555 1_555
H13_2 C24_2 1_555 1_555
C28_2 C11_2 1_555 1_555
H15_2 C28_2 1_555 1_555
C32_2 C31_2 1_555 1_555
H16_2 C32_2 1_555 1_555
Fe5 N10 1_555 1_555
Fe6 N9_2 1_555 1_555
N6_2 C6_2 1_555 1_555
C16_2 C28_2 1_555 1_555
C16_2 C31_2 1_555 1_555
S1_2 C30_2 1_555 1_555
N7_2 C15_2 1_555 1_555
C19_2 N7_2 1_555 1_555
H8_2 C19_2 1_555 1_555
C25_2 C26_2 1_555 1_555
C26_2 C15_2 1_555 1_555
H14_2 C26_2 1_555 1_555
C30_2 C25_2 1_555 1_555
C33_2 C19_2 1_555 1_555
H17_2 C33_2 1_555 1_555
C34_2 C30_2 1_555 1_555
H18_2 C34_2 1_555 1_555
Fe6 N7_2 1_555 1_555
C25_2 C33_2 1_555 1_555
N15 C3_2 1_555 1_555
C2_2 N18 1_555 1_555
N14_2 Fe5 1_555 1_555
N16_2 Fe5 1_555 1_555
C5_2 N2_3 1_555 1_555
C9_3 N4_3 1_555 1_555
H1_3 C9_3 1_555 1_555
C13_3 C9_3 1_555 1_555
H5_3 C13_3 1_555 1_555
C14_3 N4_3 1_555 1_555
H6_3 C14_3 1_555 1_555
C18_3 C13_3 1_555 1_555
C23_3 C14_3 1_555 1_555
H12_3 C23_3 1_555 1_555
C35_3 C29_3 1_555 1_555
H19_3 C35_3 1_555 1_555
Pt3_2 C5_2 1_555 1_555
C18_3 C23_3 1_555 1_555
C18_3 C29_3 1_555 1_555
N16_2 C12_3 1_555 1_555
C12_3 H4_3 1_555 1_555
C20_3 N16_2 1_555 1_555
H9_3 C20_3 1_555 1_555
C24_3 C12_3 1_555 1_555
H13_3 C24_3 1_555 1_555
Pt1_3 C2_3 1_555 1_555
Pt3_2 C1_3 1_555 1_555
Fe2_2 N1_3 1_555 1_555
S1_3 C30_3 1_555 1_555
N1_3 C10_3 1_555 1_555
N3_3 Fe2_2 1_555 1_555
N13_2 C8_3 1_555 1_555
N6_3 Fe2_2 1_555 1_555
N14_2 C15_3 1_555 1_555
N8_2 C3_3 1_555 1_555
C1_3 N3_3 1_555 1_555
N10_2 C7_3 1_555 1_555
C2_3 N11_2 1_555 1_555
N11_2 Fe7 1_555 1_555
C3_3 Pt1_3 1_555 1_555
C4_3 Pt3_2 1_555 1_555
C6_3 Pt1_3 1_555 1_555
N12_3 C4_3 1_555 1_555
C7_3 Pt3_2 1_555 1_555
C8_3 Pt1_3 1_555 1_555
C11_3 N1_3 1_555 1_555
H3_3 C11_3 1_555 1_555
C16_3 C21_3 1_555 1_555
C19_3 N14_2 1_555 1_555
H8_3 C19_3 1_555 1_555
C21_3 C10_3 1_555 1_555
H10_3 C21_3 1_555 1_555
C25_3 C26_3 1_555 1_555
C26_3 C15_3 1_555 1_555
H14_3 C26_3 1_555 1_555
C28_3 C11_3 1_555 1_555
H15_3 C28_3 1_555 1_555
C30_3 C25_3 1_555 1_555
C31_3 S1_3 1_555 1_555
C32_3 C31_3 1_555 1_555
H16_3 C32_3 1_555 1_555
C33_3 C19_3 1_555 1_555
H17_3 C33_3 1_555 1_555
C34_3 C30_3 1_555 1_555
H18_3 C34_3 1_555 1_555
Fe6 N10_2 1_555 1_555
N6_3 C6_3 1_555 1_555
C16_3 C28_3 1_555 1_555
C16_3 C31_3 1_555 1_555
C25_3 C33_3 1_555 1_555
C32_3 C34_3 1_555 1_555
N18_2 Fe6 1_555 1_555
N17_2 Fe7 1_555 1_555
N15_2 C3_4 1_555 1_555
C2_4 N18_2 1_555 1_555
S1_4 C30_4 1_555 1_555
N14 C15_4 1_555 1_555
C19_4 N14 1_555 1_555
H8_4 C19_4 1_555 1_555
C25_4 C26_4 1_555 1_555
C26_4 C15_4 1_555 1_555
H14_4 C26_4 1_555 1_555
C30_4 C25_4 1_555 1_555
C33_4 C19_4 1_555 1_555
H17_4 C33_4 1_555 1_555
C34_4 C30_4 1_555 1_555
H18_4 C34_4 1_555 1_555
C25_4 C33_4 1_555 1_555
Pt2_2 C1_4 1_555 1_555
Fe8_2 N1_4 1_555 1_555
N1_4 C10_4 1_555 1_555
N3_4 Fe8_2 1_555 1_555
N5_2 C8_4 1_555 1_555
N6_4 Fe8_2 1_555 1_555
N16 C12_4 1_555 1_555
C1_4 N3_4 1_555 1_555
N17_2 C7_4 1_555 1_555
C4_4 Pt2_2 1_555 1_555
C6_4 Pt1_4 1_555 1_555
N12_4 C4_4 1_555 1_555
C7_4 Pt2_2 1_555 1_555
C8_4 Pt1_4 1_555 1_555
C11_4 N1_4 1_555 1_555
H3_4 C11_4 1_555 1_555
C12_4 H4_4 1_555 1_555
C16_4 C21_4 1_555 1_555
C20_4 N16 1_555 1_555
H9_4 C20_4 1_555 1_555
C21_4 C10_4 1_555 1_555
H10_4 C21_4 1_555 1_555
C24_4 C12_4 1_555 1_555
H13_4 C24_4 1_555 1_555
C28_4 C11_4 1_555 1_555
H15_4 C28_4 1_555 1_555
C32_4 C31_4 1_555 1_555
H16_4 C32_4 1_555 1_555
C37_2 Pt2_2 1_555 1_555
N6_4 C6_4 1_555 1_555
C16_4 C28_4 1_555 1_555
C16_4 C31_4 1_555 1_555
C37_2 N2_4 1_555 1_555
C9_4 N4_4 1_555 1_555
H1_4 C9_4 1_555 1_555
C13_4 C9_4 1_555 1_555
H5_4 C13_4 1_555 1_555
C14_4 N4_4 1_555 1_555
H6_4 C14_4 1_555 1_555
C17_2 C22_2 1_555 1_555
C18_4 C13_4 1_555 1_555
H11_2 C22_2 1_555 1_555
C23_4 C14_4 1_555 1_555
H12_4 C23_4 1_555 1_555
C27_2 C17_2 1_555 1_555
C35_4 C29_4 1_555 1_555
H19_4 C35_4 1_555 1_555
C36_2 C27_2 1_555 1_555
H20_2 C36_2 1_555 1_555
C18_4 C23_4 1_555 1_555
C18_4 C29_4 1_555 1_555
C35_4 C36_2 1_555 1_555
C17_3 C22_3 1_555 1_555
H11_3 C22_3 1_555 1_555
C27_3 C17_3 1_555 1_555
C36_3 C27_3 1_555 1_555
H20_3 C36_3 1_555 1_555
C17_4 C22_4 1_555 1_555
H11_4 C22_4 1_555 1_555
C27_4 C17_4 1_555 1_555
C36_4 C27_4 1_555 1_555
H20_4 C36_4 1_555 1_555

#END
