
###############################################################################
#
# This file contains modified crystal structure data generated from the
# MOF subset of the Cambridge Structural Database (CSD) v543 
# hosted by the Cambridge Crystallographic Data Centre (CCDC).
#
# This work is licensed under the Creative Commons
# Attribution-NonCommercial-ShareAlike 4.0 International License.
# To view a copy of this license, visit
# http://creativecommons.org/licenses/by-nc-sa/4.0/
# or send a letter to
# Creative Commons, PO Box 1866, Mountain View, CA 94042, USA.
#
# CIF created using the CSD Python API on 29 September 2022
# The structure has been converted into the P1 space group
# The structure has a 3D framework
# The original CSD entry OBIDIQ02 is in the monoclinic crystal system
# The framework has been calculated to contain at least 10.0% void space
# The void calculation uses a probe of radius 1.32A, grid spacing 0.4
#
###############################################################################

data_OBIDIQ02
_chemical_formula_moiety         '(C144 H80 Fe4 N48 Pt8 S8)n'
_symmetry_cell_setting           triclinic
_symmetry_space_group_name_H-M   'P 1'
_symmetry_Int_Tables_number      1
_space_group_name_Hall           'P 1'
loop_
_symmetry_equiv_pos_site_id
_symmetry_equiv_pos_as_xyz
1 x,y,z
_cell_length_a                   7.2691(3)
_cell_length_b                   28.9451(10)
_cell_length_c                   29.9141(12)
_cell_angle_alpha                90
_cell_angle_beta                 94.9550(10)
_cell_angle_gamma                90
_cell_volume                     6270.55
loop_
_atom_site_label
_atom_site_type_symbol
_atom_site_fract_x
_atom_site_fract_y
_atom_site_fract_z
Fe1 Fe 0.00765(11) 0.87899(3) 0.26829(3)
Fe8 Fe 0.01518(11) 0.62781(3) 0.26612(3)
N14 N 0.0235(8) 0.89192(19) 0.19504(19)
N16 N 0.0072(8) 0.8602(2) 0.33974(18)
N17 N 0.2124(7) 0.82646(19) 0.26385(19)
N18 N 0.2157(7) 0.93061(18) 0.28193(18)
Pt1 Pt 0.50338(3) 0.50822(2) 0.23779(2)
Pt2 Pt 0.51439(3) 0.74894(2) 0.27046(2)
S1 S 0.0511(3) 0.62428(6) 0.51447(6)
N1 N 0.0382(7) 0.61482(18) 0.33207(16)
N3 N 0.2049(7) 0.67446(17) 0.27573(17)
N5 N 0.8250(7) 0.58073(18) 0.25458(18)
N6 N 0.2056(7) 0.58267(17) 0.25679(17)
N7 N 0.0235(8) 0.60808(19) 0.69504(19)
N8 N 0.1960(7) 0.43210(18) 0.2289(2)
C1 C 0.3212(8) 0.7012(2) 0.2764(2)
C2 C 0.6835(8) 0.4595(2) 0.2243(2)
N11 N 0.7843(7) 0.43061(18) 0.21807(18)
C3 C 0.3055(8) 0.4609(2) 0.2312(2)
C4 C 0.6992(8) 0.7976(2) 0.2609(2)
C6 C 0.3169(8) 0.5557(2) 0.25082(19)
N12 N 0.8006(7) 0.82691(18) 0.25523(19)
C7 C 0.3225(9) 0.7976(2) 0.2664(2)
C8 C 0.7086(8) 0.5545(2) 0.2475(2)
C10 C 0.0245(9) 0.6483(2) 0.3621(2)
H2 H 0.001253 0.678878 0.351640
C11 C 0.0710(8) 0.5716(2) 0.3485(2)
H3 H 0.078337 0.547011 0.327658
C15 C 0.0022(11) 0.6427(3) 0.6656(2)
C16 C 0.0777(9) 0.5959(2) 0.4252(2)
C19 C 0.0700(10) 0.5668(2) 0.6798(2)
H8 H 0.082172 0.541868 0.700463
C21 C 0.0428(9) 0.6404(2) 0.4080(2)
H10 H 0.031641 0.665536 0.428033
C25 C 0.0807(9) 0.5940(2) 0.6042(2)
C26 C 0.0303(11) 0.6372(3) 0.6201(2)
H14 H 0.015082 0.662695 0.600175
C28 C 0.0940(9) 0.5614(2) 0.3932(2)
H15 H 0.121253 0.530659 0.402599
C30 C 0.1062(9) 0.5849(2) 0.5572(2)
C31 C 0.1006(9) 0.5854(2) 0.4731(2)
C32 C 0.1607(11) 0.5445(3) 0.4924(2)
H16 H 0.196627 0.518730 0.475579
C33 C 0.1013(10) 0.5583(2) 0.6359(2)
H17 H 0.136845 0.528274 0.627077
C34 C 0.1641(10) 0.5443(3) 0.5395(2)
H18 H 0.203046 0.518398 0.557346
Fe5 Fe 0.99235(11) 0.37899(3) 0.23171(3)
Fe7 Fe 0.00765(11) 0.62101(3) 0.76829(3)
N15 N 0.8040(7) 0.93210(18) 0.2711(2)
C37 C 0.7109(8) 0.7005(2) 0.2734(2)
N9 N 0.0072(8) 0.6398(2) 0.83974(18)
C12 C 0.0086(9) 0.6843(2) 0.8529(2)
H4 H 0.013918 0.707702 0.830792
C24 C 0.0026(10) 0.6972(2) 0.8972(2)
H13 H 0.005005 0.728985 0.905033
S2 S 0.9993(3) 0.63708(7) 0.02038(6)
N2 N 0.8234(7) 0.67327(17) 0.27331(17)
N4 N 0.9973(7) 0.64308(18) 0.20087(18)
C9 C 0.9923(9) 0.6109(2) 0.1692(2)
H1 H 0.990682 0.579469 0.178233
C13 C 0.9893(10) 0.6205(2) 0.1233(2)
H5 H 0.990480 0.595870 0.102321
C14 C 0.9916(9) 0.6876(2) 0.1865(2)
H6 H 0.990787 0.711485 0.208256
H7 H 0.966685 0.672194 0.675768
C18 C 0.9846(9) 0.6663(2) 0.1084(2)
C23 C 0.9869(9) 0.6999(2) 0.1417(2)
H12 H 0.985302 0.731674 0.133610
C29 C 0.9825(10) 0.6785(3) 0.0608(2)
C35 C 0.9654(15) 0.7212(3) 0.0422(3)
H19 H 0.953952 0.748624 0.059195
S2_2 S 0.0007(3) 0.13708(7) 0.47962(6)
N2_2 N 0.1766(7) 0.17327(17) 0.22669(17)
N4_2 N 0.0027(7) 0.14308(18) 0.29913(18)
C5 C 0.2891(8) 0.2005(2) 0.2266(2)
C9_2 C 0.0077(9) 0.1109(2) 0.3308(2)
H1_2 H 0.009318 0.079469 0.321767
C13_2 C 0.0107(10) 0.1205(2) 0.3767(2)
H5_2 H 0.009520 0.095870 0.397679
C14_2 C 0.0084(9) 0.1876(2) 0.3135(2)
H6_2 H 0.009213 0.211485 0.291744
C17 C 0.0068(9) 0.1640(3) 0.5697(2)
C18_2 C 0.0154(9) 0.1663(2) 0.3916(2)
C20 C 0.0009(10) 0.1081(3) 0.6282(2)
H9 H 0.003609 0.076521 0.636946
C22 C 0.0058(10) 0.1180(2) 0.5831(2)
H11 H 0.008310 0.093827 0.561722
C23_2 C 0.0131(9) 0.1999(2) 0.3583(2)
H12_2 H 0.014698 0.231674 0.366390
C27 C 0.0144(10) 0.1775(2) 0.5223(2)
C29_2 C 0.0175(10) 0.1785(3) 0.4392(2)
C35_2 C 0.0346(15) 0.2212(3) 0.4578(3)
H19_2 H 0.046048 0.248624 0.440805
C36 C 0.0336(14) 0.2207(3) 0.5050(3)
H20 H 0.045172 0.247812 0.522991
Pt3 Pt 0.48561(3) 0.24894(2) 0.22954(2)
N13 N 0.1750(7) 0.08073(18) 0.24542(18)
Pt1_2 Pt 0.49662(3) 0.00822(2) 0.26221(2)
Fe2 Fe 0.98482(11) 0.12781(3) 0.23388(3)
N1_2 N 0.9618(7) 0.11482(18) 0.16793(16)
N3_2 N 0.7951(7) 0.17446(17) 0.22427(17)
N6_2 N 0.7944(7) 0.08267(17) 0.24321(17)
N9_2 N 0.9928(8) 0.1398(2) 0.66026(18)
C1_2 C 0.6788(8) 0.2012(2) 0.2236(2)
N10 N 0.7876(7) 0.32646(19) 0.23615(19)
C4_2 C 0.3008(8) 0.2976(2) 0.2391(2)
C6_2 C 0.6831(8) 0.0557(2) 0.24918(19)
N12_2 N 0.1994(7) 0.32691(18) 0.24477(19)
C7_2 C 0.6775(9) 0.2976(2) 0.2336(2)
C8_2 C 0.2914(8) 0.0545(2) 0.2525(2)
C10_2 C 0.9755(9) 0.1483(2) 0.1379(2)
H2_2 H 0.998747 0.178878 0.148360
C11_2 C 0.9290(8) 0.0716(2) 0.1515(2)
H3_2 H 0.921663 0.047011 0.172342
C12_2 C 0.9914(9) 0.1843(2) 0.6471(2)
H4_2 H 0.986082 0.207702 0.669208
C16_2 C 0.9223(9) 0.0959(2) 0.0748(2)
C21_2 C 0.9572(9) 0.1404(2) 0.0920(2)
H10_2 H 0.968359 0.165536 0.071967
C24_2 C 0.9974(10) 0.1972(2) 0.6028(2)
H13_2 H 0.994995 0.228985 0.594967
C28_2 C 0.9060(9) 0.0614(2) 0.1068(2)
H15_2 H 0.878747 0.030659 0.097401
C31_2 C 0.8994(9) 0.0854(2) 0.0269(2)
C32_2 C 0.8393(11) 0.0445(3) 0.0076(2)
H16_2 H 0.803373 0.018730 0.024421
Fe6 Fe 0.99235(11) 0.12101(3) 0.73171(3)
S1_2 S 0.9489(3) 0.12428(6) 0.98553(6)
N7_2 N 0.9765(8) 0.10808(19) 0.80496(19)
C15_2 C 0.9978(11) 0.1427(3) 0.8344(2)
C19_2 C 0.9300(10) 0.0668(2) 0.8202(2)
H8_2 H 0.917828 0.041868 0.799537
C25_2 C 0.9193(9) 0.0940(2) 0.8958(2)
C26_2 C 0.9697(11) 0.1372(3) 0.8799(2)
H14_2 H 0.984918 0.162695 0.899825
C30_2 C 0.8938(9) 0.0849(2) 0.9428(2)
C33_2 C 0.8987(10) 0.0583(2) 0.8641(2)
H17_2 H 0.863155 0.028274 0.872923
C34_2 C 0.8359(10) 0.0443(3) 0.9605(2)
H18_2 H 0.796954 0.018398 0.942654
C2_2 C 0.3165(8) 0.9595(2) 0.2757(2)
C3_2 C 0.6945(8) 0.9609(2) 0.2688(2)
N14_2 N 0.9765(8) 0.39192(19) 0.30496(19)
N16_2 N 0.9928(8) 0.3602(2) 0.16026(18)
S2_3 S 0.0007(3) 0.36292(7) 0.97962(6)
N2_3 N 0.1766(7) 0.32673(17) 0.72669(17)
N4_3 N 0.0027(7) 0.35692(18) 0.79913(18)
C5_2 C 0.2891(8) 0.2995(2) 0.7266(2)
C9_3 C 0.0077(9) 0.3891(2) 0.8308(2)
H1_3 H 0.009318 0.420531 0.821767
C13_3 C 0.0107(10) 0.3795(2) 0.8767(2)
H5_3 H 0.009520 0.404130 0.897679
C14_3 C 0.0084(9) 0.3124(2) 0.8135(2)
H6_3 H 0.009213 0.288515 0.791744
H7_2 H 0.033315 0.327806 0.324232
C18_3 C 0.0154(9) 0.3337(2) 0.8916(2)
C23_3 C 0.0131(9) 0.3001(2) 0.8583(2)
H12_3 H 0.014698 0.268326 0.866390
C29_3 C 0.0175(10) 0.3215(3) 0.9392(2)
C35_3 C 0.0346(15) 0.2788(3) 0.9578(3)
H19_3 H 0.046048 0.251376 0.940805
Pt3_2 Pt 0.48561(3) 0.25106(2) 0.72954(2)
N13_2 N 0.1750(7) 0.41927(18) 0.74542(18)
C12_3 C 0.9914(9) 0.3157(2) 0.1471(2)
H4_3 H 0.986082 0.292298 0.169208
C24_3 C 0.9974(10) 0.3028(2) 0.1028(2)
H13_3 H 0.994995 0.271015 0.094967
Pt1_3 Pt 0.49662(3) 0.49178(2) 0.76221(2)
Fe2_2 Fe 0.98482(11) 0.37219(3) 0.73388(3)
S1_3 S 0.9489(3) 0.37572(6) 0.48553(6)
N1_3 N 0.9618(7) 0.38518(18) 0.66793(16)
N3_3 N 0.7951(7) 0.32554(17) 0.72427(17)
N6_3 N 0.7944(7) 0.41733(17) 0.74321(17)
N8_2 N 0.8040(7) 0.56790(18) 0.7711(2)
C1_3 C 0.6788(8) 0.2988(2) 0.7236(2)
N10_2 N 0.7876(7) 0.17354(19) 0.73615(19)
C2_3 C 0.3165(8) 0.5405(2) 0.7757(2)
N11_2 N 0.2157(7) 0.56939(18) 0.78193(18)
C3_3 C 0.6945(8) 0.5391(2) 0.7688(2)
C4_3 C 0.3008(8) 0.2024(2) 0.7391(2)
C6_3 C 0.6831(8) 0.4443(2) 0.74918(19)
N12_3 N 0.1994(7) 0.17309(18) 0.74477(19)
C7_3 C 0.6775(9) 0.2024(2) 0.7336(2)
C8_3 C 0.2914(8) 0.4455(2) 0.7525(2)
C10_3 C 0.9755(9) 0.3517(2) 0.6379(2)
H2_3 H 0.998747 0.321122 0.648360
C11_3 C 0.9290(8) 0.4284(2) 0.6515(2)
H3_3 H 0.921663 0.452989 0.672342
C15_3 C 0.9978(11) 0.3573(3) 0.3344(2)
C16_3 C 0.9223(9) 0.4041(2) 0.5748(2)
C19_3 C 0.9300(10) 0.4332(2) 0.3202(2)
H8_3 H 0.917828 0.458132 0.299537
C21_3 C 0.9572(9) 0.3596(2) 0.5920(2)
H10_3 H 0.968359 0.334464 0.571967
C25_3 C 0.9193(9) 0.4060(2) 0.3958(2)
C26_3 C 0.9697(11) 0.3628(3) 0.3799(2)
H14_3 H 0.984918 0.337305 0.399825
C28_3 C 0.9060(9) 0.4386(2) 0.6068(2)
H15_3 H 0.878747 0.469341 0.597401
C30_3 C 0.8938(9) 0.4151(2) 0.4428(2)
C31_3 C 0.8994(9) 0.4146(2) 0.5269(2)
C32_3 C 0.8393(11) 0.4555(3) 0.5076(2)
H16_3 H 0.803373 0.481270 0.524421
C33_3 C 0.8987(10) 0.4417(2) 0.3641(2)
H17_3 H 0.863155 0.471726 0.372923
C34_3 C 0.8359(10) 0.4557(3) 0.4605(2)
H18_3 H 0.796954 0.481602 0.442654
N15_2 N 0.1960(7) 0.06790(18) 0.7289(2)
N18_2 N 0.7843(7) 0.06939(18) 0.71807(18)
Fe8_2 Fe 0.01518(11) 0.87219(3) 0.76612(3)
N17_2 N 0.2124(7) 0.67354(19) 0.76385(19)
C2_4 C 0.6835(8) 0.0405(2) 0.7243(2)
C3_4 C 0.3055(8) 0.0391(2) 0.7312(2)
S1_4 S 0.0511(3) 0.87572(6) 0.01447(6)
C15_4 C 0.0022(11) 0.8573(3) 0.1656(2)
C19_4 C 0.0700(10) 0.9332(2) 0.1798(2)
H8_4 H 0.082172 0.958132 0.200463
C25_4 C 0.0807(9) 0.9060(2) 0.1042(2)
C26_4 C 0.0303(11) 0.8628(3) 0.1201(2)
H14_4 H 0.015082 0.837305 0.100175
C30_4 C 0.1062(9) 0.9151(2) 0.0572(2)
C33_4 C 0.1013(10) 0.9417(2) 0.1359(2)
H17_4 H 0.136845 0.971726 0.127077
C34_4 C 0.1641(10) 0.9557(3) 0.0395(2)
H18_4 H 0.203046 0.981602 0.057346
Pt1_4 Pt 0.50338(3) 0.99178(2) 0.73779(2)
Pt2_2 Pt 0.51439(3) 0.75106(2) 0.77046(2)
N1_4 N 0.0382(7) 0.88518(18) 0.83207(16)
N3_4 N 0.2049(7) 0.82554(17) 0.77573(17)
N5_2 N 0.8250(7) 0.91927(18) 0.75458(18)
N6_4 N 0.2056(7) 0.91733(17) 0.75679(17)
C1_4 C 0.3212(8) 0.7988(2) 0.7764(2)
C4_4 C 0.6992(8) 0.7024(2) 0.7609(2)
C6_4 C 0.3169(8) 0.9443(2) 0.75082(19)
N12_4 N 0.8006(7) 0.67309(18) 0.75523(19)
C7_4 C 0.3225(9) 0.7024(2) 0.7664(2)
C8_4 C 0.7086(8) 0.9455(2) 0.7475(2)
C10_4 C 0.0245(9) 0.8517(2) 0.8621(2)
H2_4 H 0.001253 0.821122 0.851640
C11_4 C 0.0710(8) 0.9284(2) 0.8485(2)
H3_4 H 0.078337 0.952989 0.827658
C12_4 C 0.0086(9) 0.8157(2) 0.3529(2)
H4_4 H 0.013918 0.792298 0.330792
C16_4 C 0.0777(9) 0.9041(2) 0.9252(2)
C21_4 C 0.0428(9) 0.8596(2) 0.9080(2)
H10_4 H 0.031641 0.834464 0.928033
C24_4 C 0.0026(10) 0.8028(2) 0.3972(2)
H13_4 H 0.005005 0.771015 0.405033
C28_4 C 0.0940(9) 0.9386(2) 0.8932(2)
H15_4 H 0.121253 0.969341 0.902599
C31_4 C 0.1006(9) 0.9146(2) 0.9731(2)
C32_4 C 0.1607(11) 0.9555(3) 0.9924(2)
H16_4 H 0.196627 0.981270 0.975579
C37_2 C 0.7109(8) 0.7995(2) 0.7734(2)
S2_4 S 0.9993(3) 0.86292(7) 0.52038(6)
N2_4 N 0.8234(7) 0.82673(17) 0.77331(17)
N4_4 N 0.9973(7) 0.85692(18) 0.70087(18)
C9_4 C 0.9923(9) 0.8891(2) 0.6692(2)
H1_4 H 0.990682 0.920531 0.678233
C13_4 C 0.9893(10) 0.8795(2) 0.6233(2)
H5_4 H 0.990480 0.904130 0.602321
C14_4 C 0.9916(9) 0.8124(2) 0.6865(2)
H6_4 H 0.990787 0.788515 0.708256
C17_2 C 0.9932(9) 0.8360(3) 0.4303(2)
C18_4 C 0.9846(9) 0.8337(2) 0.6084(2)
C20_2 C 0.9991(10) 0.8919(3) 0.3718(2)
H9_2 H 0.996391 0.923479 0.363054
C22_2 C 0.9942(10) 0.8820(2) 0.4169(2)
H11_2 H 0.991690 0.906173 0.438278
C23_4 C 0.9869(9) 0.8001(2) 0.6417(2)
H12_4 H 0.985302 0.768326 0.633610
C27_2 C 0.9856(10) 0.8225(2) 0.4777(2)
C29_4 C 0.9825(10) 0.8215(3) 0.5608(2)
C35_4 C 0.9654(15) 0.7788(3) 0.5422(3)
H19_4 H 0.953952 0.751376 0.559195
C36_2 C 0.9664(14) 0.7793(3) 0.4950(3)
H20_2 H 0.954828 0.752188 0.477009
C17_3 C 0.9932(9) 0.6640(3) 0.9303(2)
C20_3 C 0.9991(10) 0.6081(3) 0.8718(2)
H9_3 H 0.996391 0.576521 0.863054
C22_3 C 0.9942(10) 0.6180(2) 0.9169(2)
H11_3 H 0.991690 0.593827 0.938278
C27_3 C 0.9856(10) 0.6775(2) 0.9777(2)
C36_3 C 0.9664(14) 0.7207(3) 0.9950(3)
H20_3 H 0.954828 0.747812 0.977009
H7_3 H 0.033315 0.172194 0.824232
C17_4 C 0.0068(9) 0.3360(3) 0.0697(2)
C20_4 C 0.0009(10) 0.3919(3) 0.1282(2)
H9_4 H 0.003609 0.423479 0.136946
C22_4 C 0.0058(10) 0.3820(2) 0.0831(2)
H11_4 H 0.008310 0.406173 0.061722
C27_4 C 0.0144(10) 0.3225(2) 0.0223(2)
C36_4 C 0.0336(14) 0.2793(3) 0.0050(3)
H20_4 H 0.045172 0.252188 0.022991
H7_4 H 0.966685 0.827806 0.175768
loop_
_geom_bond_atom_site_label_1
_geom_bond_atom_site_label_2
_geom_bond_site_symmetry_1
_geom_bond_site_symmetry_2
N14 Fe1 1_555 1_555
N16 Fe1 1_555 1_555
N17 Fe1 1_555 1_555
N18 Fe1 1_555 1_555
Pt1 C2 1_555 1_555
Pt2 C1 1_555 1_555
Fe8 N1 1_555 1_555
S1 C30 1_555 1_555
N1 C10 1_555 1_555
N3 Fe8 1_555 1_555
N5 C8 1_555 1_555
N6 Fe8 1_555 1_555
N7 C15 1_555 1_555
N8 C3 1_555 1_555
C1 N3 1_555 1_555
N17 C7 1_555 1_555
C2 N11 1_555 1_555
N11 Fe5 1_555 1_555
C3 Pt1 1_555 1_555
C4 Pt2 1_555 1_555
C6 Pt1 1_555 1_555
N12 C4 1_555 1_555
C7 Pt2 1_555 1_555
C8 Pt1 1_555 1_555
C10 H2 1_555 1_555
C11 N1 1_555 1_555
H3 C11 1_555 1_555
C16 C21 1_555 1_555
C19 N7 1_555 1_555
H8 C19 1_555 1_555
C21 C10 1_555 1_555
H10 C21 1_555 1_555
C25 C26 1_555 1_555
C26 C15 1_555 1_555
H14 C26 1_555 1_555
C28 C11 1_555 1_555
H15 C28 1_555 1_555
C30 C25 1_555 1_555
C31 S1 1_555 1_555
C32 C31 1_555 1_555
H16 C32 1_555 1_555
C33 C19 1_555 1_555
H17 C33 1_555 1_555
C34 C30 1_555 1_555
H18 C34 1_555 1_555
Fe7 N7 1_555 1_555
C37 Pt2 1_555 1_555
N6 C6 1_555 1_555
C16 C28 1_555 1_555
C16 C31 1_555 1_555
C25 C33 1_555 1_555
C32 C34 1_555 1_555
N9 C12 1_555 1_555
C12 H4 1_555 1_555
C24 C12 1_555 1_555
H13 C24 1_555 1_555
Fe7 N9 1_555 1_555
C37 N2 1_555 1_555
C9 N4 1_555 1_555
H1 C9 1_555 1_555
C13 C9 1_555 1_555
H5 C13 1_555 1_555
C14 N4 1_555 1_555
H6 C14 1_555 1_555
C18 C13 1_555 1_555
C23 C14 1_555 1_555
H12 C23 1_555 1_555
C29 S2 1_555 1_555
C35 C29 1_555 1_555
H19 C35 1_555 1_555
C18 C23 1_555 1_555
C18 C29 1_555 1_555
S2_2 C27 1_555 1_555
C5 N2_2 1_555 1_555
C9_2 N4_2 1_555 1_555
H1_2 C9_2 1_555 1_555
C13_2 C9_2 1_555 1_555
H5_2 C13_2 1_555 1_555
C14_2 N4_2 1_555 1_555
H6_2 C14_2 1_555 1_555
C17 C22 1_555 1_555
C18_2 C13_2 1_555 1_555
H9 C20 1_555 1_555
C22 C20 1_555 1_555
H11 C22 1_555 1_555
C23_2 C14_2 1_555 1_555
H12_2 C23_2 1_555 1_555
C27 C17 1_555 1_555
C29_2 S2_2 1_555 1_555
C35_2 C29_2 1_555 1_555
H19_2 C35_2 1_555 1_555
C36 C27 1_555 1_555
H20 C36 1_555 1_555
Pt3 C5 1_555 1_555
C18_2 C23_2 1_555 1_555
C18_2 C29_2 1_555 1_555
C35_2 C36 1_555 1_555
Pt3 C1_2 1_555 1_555
Fe2 N1_2 1_555 1_555
N1_2 C10_2 1_555 1_555
N3_2 Fe2 1_555 1_555
N13 C8_2 1_555 1_555
N6_2 Fe2 1_555 1_555
N9_2 C12_2 1_555 1_555
C1_2 N3_2 1_555 1_555
N10 C7_2 1_555 1_555
C4_2 Pt3 1_555 1_555
C6_2 Pt1_2 1_555 1_555
N12_2 C4_2 1_555 1_555
C7_2 Pt3 1_555 1_555
C8_2 Pt1_2 1_555 1_555
C10_2 H2_2 1_555 1_555
C11_2 N1_2 1_555 1_555
H3_2 C11_2 1_555 1_555
C12_2 H4_2 1_555 1_555
C16_2 C21_2 1_555 1_555
C21_2 C10_2 1_555 1_555
H10_2 C21_2 1_555 1_555
C24_2 C12_2 1_555 1_555
H13_2 C24_2 1_555 1_555
C28_2 C11_2 1_555 1_555
H15_2 C28_2 1_555 1_555
C32_2 C31_2 1_555 1_555
H16_2 C32_2 1_555 1_555
Fe5 N10 1_555 1_555
Fe6 N9_2 1_555 1_555
N6_2 C6_2 1_555 1_555
C16_2 C28_2 1_555 1_555
C16_2 C31_2 1_555 1_555
S1_2 C30_2 1_555 1_555
N7_2 C15_2 1_555 1_555
C19_2 N7_2 1_555 1_555
H8_2 C19_2 1_555 1_555
C25_2 C26_2 1_555 1_555
C26_2 C15_2 1_555 1_555
H14_2 C26_2 1_555 1_555
C30_2 C25_2 1_555 1_555
C33_2 C19_2 1_555 1_555
H17_2 C33_2 1_555 1_555
C34_2 C30_2 1_555 1_555
H18_2 C34_2 1_555 1_555
Fe6 N7_2 1_555 1_555
C25_2 C33_2 1_555 1_555
N15 C3_2 1_555 1_555
C2_2 N18 1_555 1_555
N14_2 Fe5 1_555 1_555
N16_2 Fe5 1_555 1_555
C5_2 N2_3 1_555 1_555
C9_3 N4_3 1_555 1_555
H1_3 C9_3 1_555 1_555
C13_3 C9_3 1_555 1_555
H5_3 C13_3 1_555 1_555
C14_3 N4_3 1_555 1_555
H6_3 C14_3 1_555 1_555
C18_3 C13_3 1_555 1_555
C23_3 C14_3 1_555 1_555
H12_3 C23_3 1_555 1_555
C29_3 S2_3 1_555 1_555
C35_3 C29_3 1_555 1_555
H19_3 C35_3 1_555 1_555
Pt3_2 C5_2 1_555 1_555
C18_3 C23_3 1_555 1_555
C18_3 C29_3 1_555 1_555
N16_2 C12_3 1_555 1_555
C12_3 H4_3 1_555 1_555
C24_3 C12_3 1_555 1_555
H13_3 C24_3 1_555 1_555
Pt1_3 C2_3 1_555 1_555
Pt3_2 C1_3 1_555 1_555
Fe2_2 N1_3 1_555 1_555
S1_3 C30_3 1_555 1_555
N1_3 C10_3 1_555 1_555
N3_3 Fe2_2 1_555 1_555
N13_2 C8_3 1_555 1_555
N6_3 Fe2_2 1_555 1_555
N14_2 C15_3 1_555 1_555
N8_2 C3_3 1_555 1_555
C1_3 N3_3 1_555 1_555
N10_2 C7_3 1_555 1_555
C2_3 N11_2 1_555 1_555
N11_2 Fe7 1_555 1_555
C3_3 Pt1_3 1_555 1_555
C4_3 Pt3_2 1_555 1_555
C6_3 Pt1_3 1_555 1_555
N12_3 C4_3 1_555 1_555
C7_3 Pt3_2 1_555 1_555
C8_3 Pt1_3 1_555 1_555
C10_3 H2_3 1_555 1_555
C11_3 N1_3 1_555 1_555
H3_3 C11_3 1_555 1_555
C16_3 C21_3 1_555 1_555
C19_3 N14_2 1_555 1_555
H8_3 C19_3 1_555 1_555
C21_3 C10_3 1_555 1_555
H10_3 C21_3 1_555 1_555
C25_3 C26_3 1_555 1_555
C26_3 C15_3 1_555 1_555
H14_3 C26_3 1_555 1_555
C28_3 C11_3 1_555 1_555
H15_3 C28_3 1_555 1_555
C30_3 C25_3 1_555 1_555
C31_3 S1_3 1_555 1_555
C32_3 C31_3 1_555 1_555
H16_3 C32_3 1_555 1_555
C33_3 C19_3 1_555 1_555
H17_3 C33_3 1_555 1_555
C34_3 C30_3 1_555 1_555
H18_3 C34_3 1_555 1_555
Fe6 N10_2 1_555 1_555
N6_3 C6_3 1_555 1_555
C16_3 C28_3 1_555 1_555
C16_3 C31_3 1_555 1_555
C25_3 C33_3 1_555 1_555
C32_3 C34_3 1_555 1_555
N18_2 Fe6 1_555 1_555
N17_2 Fe7 1_555 1_555
N15_2 C3_4 1_555 1_555
C2_4 N18_2 1_555 1_555
S1_4 C30_4 1_555 1_555
N14 C15_4 1_555 1_555
C19_4 N14 1_555 1_555
H8_4 C19_4 1_555 1_555
C25_4 C26_4 1_555 1_555
C26_4 C15_4 1_555 1_555
H14_4 C26_4 1_555 1_555
C30_4 C25_4 1_555 1_555
C33_4 C19_4 1_555 1_555
H17_4 C33_4 1_555 1_555
C34_4 C30_4 1_555 1_555
H18_4 C34_4 1_555 1_555
C25_4 C33_4 1_555 1_555
Pt2_2 C1_4 1_555 1_555
Fe8_2 N1_4 1_555 1_555
N1_4 C10_4 1_555 1_555
N3_4 Fe8_2 1_555 1_555
N5_2 C8_4 1_555 1_555
N6_4 Fe8_2 1_555 1_555
N16 C12_4 1_555 1_555
C1_4 N3_4 1_555 1_555
N17_2 C7_4 1_555 1_555
C4_4 Pt2_2 1_555 1_555
C6_4 Pt1_4 1_555 1_555
N12_4 C4_4 1_555 1_555
C7_4 Pt2_2 1_555 1_555
C8_4 Pt1_4 1_555 1_555
C10_4 H2_4 1_555 1_555
C11_4 N1_4 1_555 1_555
H3_4 C11_4 1_555 1_555
C12_4 H4_4 1_555 1_555
C16_4 C21_4 1_555 1_555
C21_4 C10_4 1_555 1_555
H10_4 C21_4 1_555 1_555
C24_4 C12_4 1_555 1_555
H13_4 C24_4 1_555 1_555
C28_4 C11_4 1_555 1_555
H15_4 C28_4 1_555 1_555
C32_4 C31_4 1_555 1_555
H16_4 C32_4 1_555 1_555
C37_2 Pt2_2 1_555 1_555
N6_4 C6_4 1_555 1_555
C16_4 C28_4 1_555 1_555
C16_4 C31_4 1_555 1_555
S2_4 C27_2 1_555 1_555
C37_2 N2_4 1_555 1_555
C9_4 N4_4 1_555 1_555
H1_4 C9_4 1_555 1_555
C13_4 C9_4 1_555 1_555
H5_4 C13_4 1_555 1_555
C14_4 N4_4 1_555 1_555
H6_4 C14_4 1_555 1_555
C17_2 C22_2 1_555 1_555
C18_4 C13_4 1_555 1_555
H9_2 C20_2 1_555 1_555
C22_2 C20_2 1_555 1_555
H11_2 C22_2 1_555 1_555
C23_4 C14_4 1_555 1_555
H12_4 C23_4 1_555 1_555
C27_2 C17_2 1_555 1_555
C29_4 S2_4 1_555 1_555
C35_4 C29_4 1_555 1_555
H19_4 C35_4 1_555 1_555
C36_2 C27_2 1_555 1_555
H20_2 C36_2 1_555 1_555
C18_4 C23_4 1_555 1_555
C18_4 C29_4 1_555 1_555
C35_4 C36_2 1_555 1_555
C17_3 C22_3 1_555 1_555
H9_3 C20_3 1_555 1_555
C22_3 C20_3 1_555 1_555
H11_3 C22_3 1_555 1_555
C27_3 C17_3 1_555 1_555
C36_3 C27_3 1_555 1_555
H20_3 C36_3 1_555 1_555
C17_4 C22_4 1_555 1_555
H9_4 C20_4 1_555 1_555
C22_4 C20_4 1_555 1_555
H11_4 C22_4 1_555 1_555
C27_4 C17_4 1_555 1_555
C36_4 C27_4 1_555 1_555
H20_4 C36_4 1_555 1_555

#END
