
###############################################################################
#
# This file contains modified crystal structure data generated from the
# MOF subset of the Cambridge Structural Database (CSD) v543 
# hosted by the Cambridge Crystallographic Data Centre (CCDC).
#
# This work is licensed under the Creative Commons
# Attribution-NonCommercial-ShareAlike 4.0 International License.
# To view a copy of this license, visit
# http://creativecommons.org/licenses/by-nc-sa/4.0/
# or send a letter to
# Creative Commons, PO Box 1866, Mountain View, CA 94042, USA.
#
# CIF created using the CSD Python API on 29 September 2022
# The structure has been converted into the P1 space group
# The structure has a 3D framework
# The original CSD entry OBIDIQ01 is in the monoclinic crystal system
# The framework has been calculated to contain at least 10.0% void space
# The void calculation uses a probe of radius 1.32A, grid spacing 0.4
#
###############################################################################

data_OBIDIQ01
_chemical_formula_moiety         '(C144 H80 Fe4 N48 Pt8 S8)n'
_symmetry_cell_setting           triclinic
_symmetry_space_group_name_H-M   'P 1'
_symmetry_Int_Tables_number      1
_space_group_name_Hall           'P 1'
loop_
_symmetry_equiv_pos_site_id
_symmetry_equiv_pos_as_xyz
1 x,y,z
_cell_length_a                   7.4493(3)
_cell_length_b                   29.2894(10)
_cell_length_c                   30.2310(11)
_cell_angle_alpha                90
_cell_angle_beta                 94.5640(10)
_cell_angle_gamma                90
_cell_volume                     6575.05
loop_
_atom_site_label
_atom_site_type_symbol
_atom_site_fract_x
_atom_site_fract_y
_atom_site_fract_z
Fe1 Fe 0.00639(7) 0.87807(2) 0.26847(2)
Fe8 Fe 0.01278(7) 0.62692(2) 0.26624(2)
N14 N 0.0167(5) 0.89262(12) 0.19593(11)
N16 N 0.0073(5) 0.85804(12) 0.33915(11)
N17 N 0.2094(5) 0.82702(11) 0.26212(12)
N18 N 0.2128(5) 0.92823(11) 0.28195(12)
Pt1 Pt 0.50203(2) 0.50294(2) 0.23616(2)
Pt2 Pt 0.51188(2) 0.75267(2) 0.26923(2)
S1 S 0.0510(2) 0.62107(4) 0.51789(4)
S2 S 0.0021(2) 0.64179(5) 0.01724(4)
N1 N 0.0411(5) 0.61249(11) 0.33829(11)
N3 N 0.2148(5) 0.67871(11) 0.27789(13)
N5 N 0.8123(5) 0.57478(11) 0.25280(13)
N6 N 0.2170(5) 0.57754(11) 0.25531(12)
N7 N 0.0167(5) 0.60738(12) 0.69593(11)
N8 N 0.1949(5) 0.42984(11) 0.22684(13)
C1 C 0.3244(5) 0.70545(12) 0.27627(14)
C2 C 0.6822(5) 0.45533(13) 0.22356(14)
N11 N 0.7872(5) 0.42823(11) 0.21805(12)
C3 C 0.3063(5) 0.45665(12) 0.22932(14)
C4 C 0.6963(5) 0.80020(13) 0.25978(14)
C6 C 0.3209(5) 0.55047(12) 0.24856(14)
N12 N 0.8013(5) 0.82751(11) 0.25507(13)
C7 C 0.3204(5) 0.80022(12) 0.26454(14)
C8 C 0.7001(5) 0.54858(13) 0.24583(14)
C10 C 0.0170(7) 0.64483(14) 0.36881(15)
C11 C 0.0870(6) 0.57116(14) 0.35424(14)
H3 H 0.103669 0.548006 0.333913
C15 C 0.0013(7) 0.64082(16) 0.66609(15)
C16 C 0.0836(6) 0.59400(15) 0.43017(14)
C19 C 0.0591(7) 0.56613(15) 0.68133(15)
H8 H 0.068225 0.542186 0.701588
C21 C 0.0361(7) 0.63702(16) 0.41373(15)
H10 H 0.017183 0.660711 0.433308
C25 C 0.0748(6) 0.59187(15) 0.60647(14)
C26 C 0.0288(8) 0.63467(17) 0.62185(16)
H14 H 0.016410 0.659208 0.602316
C28 C 0.1111(7) 0.56058(15) 0.39847(15)
H15 H 0.145612 0.531250 0.407343
C30 C 0.1030(7) 0.58243(15) 0.56011(15)
C31 C 0.1064(7) 0.58309(15) 0.47748(15)
C32 C 0.1670(8) 0.54352(18) 0.49661(16)
H16 H 0.206261 0.518947 0.480442
C33 C 0.0899(7) 0.55703(16) 0.63805(15)
H17 H 0.120865 0.527663 0.629772
C34 C 0.1653(8) 0.54299(18) 0.54295(16)
H18 H 0.203151 0.518077 0.560343
Fe5 Fe 0.99361(7) 0.37807(2) 0.23153(2)
Fe7 Fe 0.00639(7) 0.62193(2) 0.76847(2)
N15 N 0.8051(5) 0.92984(11) 0.27316(13)
C37 C 0.7012(5) 0.70472(13) 0.27386(14)
N9 N 0.0073(5) 0.64196(12) 0.83915(11)
C12 C 0.0099(6) 0.68591(14) 0.85208(15)
H4 H 0.015607 0.708273 0.830404
C20 C 0.0015(8) 0.61094(16) 0.87162(16)
H9 H 0.000541 0.580191 0.863935
C24 C 0.0047(7) 0.69971(15) 0.89524(15)
H13 H 0.006938 0.730660 0.902142
N2 N 0.8079(5) 0.67684(11) 0.27574(12)
N4 N 0.9953(5) 0.64668(11) 0.19496(12)
C9 C 0.9969(8) 0.61446(16) 0.16331(17)
H1 H 0.999716 0.583924 0.171785
H2 H 0.985773 0.674066 0.358972
C13 C 0.9944(9) 0.62501(17) 0.11832(18)
H5 H 0.997000 0.601648 0.097552
C14 C 0.9875(7) 0.68989(15) 0.18136(15)
H6 H 0.983908 0.712640 0.202727
H7 H 0.970499 0.669802 0.675508
C18 C 0.9881(7) 0.66997(16) 0.10434(15)
C23 C 0.9844(7) 0.70294(16) 0.13756(15)
H12 H 0.979867 0.733745 0.130113
C29 C 0.9858(7) 0.68252(17) 0.05772(16)
C35 C 0.9694(11) 0.7244(2) 0.03875(18)
H19 H 0.959008 0.751083 0.054962
N2_2 N 0.1921(5) 0.17684(11) 0.22426(12)
N4_2 N 0.0047(5) 0.14668(11) 0.30504(12)
C5 C 0.2988(5) 0.20472(13) 0.22614(14)
C9_2 C 0.0031(8) 0.11446(16) 0.33669(17)
H1_2 H 0.000284 0.083924 0.328215
H2_2 H 0.014227 0.174066 0.141028
C13_2 C 0.0056(9) 0.12501(17) 0.38168(18)
H5_2 H 0.003000 0.101648 0.402448
C14_2 C 0.0125(7) 0.18989(15) 0.31864(15)
H6_2 H 0.016092 0.212640 0.297273
C17 C 0.0039(7) 0.16744(16) 0.57123(15)
C18_2 C 0.0119(7) 0.16997(16) 0.39566(15)
C22 C 0.0030(8) 0.12215(17) 0.58444(17)
H11 H 0.005421 0.099134 0.563310
C23_2 C 0.0156(7) 0.20294(16) 0.36244(15)
H12_2 H 0.020133 0.233745 0.369887
C27 C 0.0114(7) 0.18126(17) 0.52502(15)
C29_2 C 0.0142(7) 0.18252(17) 0.44228(16)
C35_2 C 0.0306(11) 0.2244(2) 0.46125(18)
H19_2 H 0.040992 0.251083 0.445038
C36 C 0.0303(11) 0.2236(2) 0.50774(18)
H20 H 0.042081 0.249815 0.525112
Pt3 Pt 0.48812(2) 0.25267(2) 0.23077(2)
N13 N 0.1877(5) 0.07478(11) 0.24720(13)
Pt1_2 Pt 0.49797(2) 0.00294(2) 0.26384(2)
Fe2 Fe 0.98722(7) 0.12692(2) 0.23376(2)
S2_2 S 0.9979(2) 0.14179(5) 0.48276(4)
N1_2 N 0.9589(5) 0.11249(11) 0.16171(11)
N3_2 N 0.7852(5) 0.17871(11) 0.22211(13)
N6_2 N 0.7830(5) 0.07754(11) 0.24469(12)
N9_2 N 0.9927(5) 0.14196(12) 0.66085(11)
C1_2 C 0.6756(5) 0.20545(12) 0.22373(14)
N10 N 0.7906(5) 0.32702(11) 0.23788(12)
C4_2 C 0.3037(5) 0.30020(13) 0.24022(14)
C6_2 C 0.6791(5) 0.05047(12) 0.25144(14)
N12_2 N 0.1987(5) 0.32751(11) 0.24493(13)
C7_2 C 0.6796(5) 0.30022(12) 0.23546(14)
C8_2 C 0.2999(5) 0.04858(13) 0.25417(14)
C10_2 C 0.9830(7) 0.14483(14) 0.13119(15)
C11_2 C 0.9130(6) 0.07116(14) 0.14576(14)
H3_2 H 0.896331 0.048006 0.166087
C12_2 C 0.9901(6) 0.18591(14) 0.64792(15)
H4_2 H 0.984393 0.208273 0.669596
C16_2 C 0.9164(6) 0.09400(15) 0.06983(14)
C20_2 C 0.9985(8) 0.11094(16) 0.62838(16)
H9_2 H 0.999459 0.080191 0.636065
C21_2 C 0.9639(7) 0.13702(16) 0.08627(15)
H10_2 H 0.982817 0.160711 0.066692
C24_2 C 0.9953(7) 0.19971(15) 0.60476(15)
H13_2 H 0.993062 0.230660 0.597858
C28_2 C 0.8889(7) 0.06058(15) 0.10153(15)
H15_2 H 0.854388 0.031250 0.092657
C31_2 C 0.8936(7) 0.08309(15) 0.02252(15)
C32_2 C 0.8330(8) 0.04352(18) 0.00339(16)
H16_2 H 0.793739 0.018947 0.019558
Fe6 Fe 0.99361(7) 0.12193(2) 0.73153(2)
S1_2 S 0.9490(2) 0.12107(4) 0.98211(4)
N7_2 N 0.9833(5) 0.10738(12) 0.80407(11)
C15_2 C 0.9987(7) 0.14082(16) 0.83391(15)
C19_2 C 0.9409(7) 0.06613(15) 0.81867(15)
H8_2 H 0.931775 0.042186 0.798412
C25_2 C 0.9252(6) 0.09187(15) 0.89353(14)
C26_2 C 0.9712(8) 0.13467(17) 0.87815(16)
H14_2 H 0.983590 0.159208 0.897684
C30_2 C 0.8970(7) 0.08243(15) 0.93989(15)
C33_2 C 0.9101(7) 0.05703(16) 0.86195(15)
H17_2 H 0.879135 0.027663 0.870228
C34_2 C 0.8347(8) 0.04299(18) 0.95705(16)
H18_2 H 0.796849 0.018077 0.939657
C2_2 C 0.3178(5) 0.95533(13) 0.27644(14)
C3_2 C 0.6937(5) 0.95665(12) 0.27068(14)
N14_2 N 0.9833(5) 0.39262(12) 0.30407(11)
N16_2 N 0.9927(5) 0.35804(12) 0.16085(11)
N2_3 N 0.1921(5) 0.32316(11) 0.72426(12)
N4_3 N 0.0047(5) 0.35332(11) 0.80504(12)
C5_2 C 0.2988(5) 0.29528(13) 0.72614(14)
C9_3 C 0.0031(8) 0.38554(16) 0.83669(17)
H1_3 H 0.000284 0.416076 0.828215
H2_3 H 0.014227 0.325934 0.641028
C13_3 C 0.0056(9) 0.37499(17) 0.88168(18)
H5_3 H 0.003000 0.398352 0.902448
C14_3 C 0.0125(7) 0.31011(15) 0.81864(15)
H6_3 H 0.016092 0.287360 0.797273
H7_2 H 0.029501 0.330198 0.324492
C18_3 C 0.0119(7) 0.33003(16) 0.89566(15)
C23_3 C 0.0156(7) 0.29706(16) 0.86244(15)
H12_3 H 0.020133 0.266255 0.869887
C29_3 C 0.0142(7) 0.31748(17) 0.94228(16)
C35_3 C 0.0306(11) 0.2756(2) 0.96125(18)
H19_3 H 0.040992 0.248917 0.945038
Pt3_2 Pt 0.48812(2) 0.24733(2) 0.73077(2)
N13_2 N 0.1877(5) 0.42522(11) 0.74720(13)
C12_3 C 0.9901(6) 0.31409(14) 0.14792(15)
H4_3 H 0.984393 0.291727 0.169596
C20_3 C 0.9985(8) 0.38906(16) 0.12838(16)
H9_3 H 0.999459 0.419809 0.136065
C24_3 C 0.9953(7) 0.30029(15) 0.10476(15)
H13_3 H 0.993062 0.269340 0.097858
Pt1_3 Pt 0.49797(2) 0.49706(2) 0.76384(2)
Fe2_2 Fe 0.98722(7) 0.37308(2) 0.73376(2)
S1_3 S 0.9490(2) 0.37893(4) 0.48211(4)
S2_3 S 0.9979(2) 0.35821(5) 0.98276(4)
N1_3 N 0.9589(5) 0.38751(11) 0.66171(11)
N3_3 N 0.7852(5) 0.32129(11) 0.72211(13)
N6_3 N 0.7830(5) 0.42246(11) 0.74469(12)
N8_2 N 0.8051(5) 0.57016(11) 0.77316(13)
C1_3 C 0.6756(5) 0.29455(12) 0.72373(14)
N10_2 N 0.7906(5) 0.17298(11) 0.73788(12)
C2_3 C 0.3178(5) 0.54467(13) 0.77644(14)
N11_2 N 0.2128(5) 0.57177(11) 0.78195(12)
C3_3 C 0.6937(5) 0.54335(12) 0.77068(14)
C4_3 C 0.3037(5) 0.19980(13) 0.74022(14)
C6_3 C 0.6791(5) 0.44953(12) 0.75144(14)
N12_3 N 0.1987(5) 0.17249(11) 0.74493(13)
C7_3 C 0.6796(5) 0.19978(12) 0.73546(14)
C8_3 C 0.2999(5) 0.45142(13) 0.75417(14)
C10_3 C 0.9830(7) 0.35517(14) 0.63119(15)
C11_3 C 0.9130(6) 0.42884(14) 0.64576(14)
H3_3 H 0.896331 0.451994 0.666087
C15_3 C 0.9987(7) 0.35918(16) 0.33391(15)
C16_3 C 0.9164(6) 0.40600(15) 0.56983(14)
C19_3 C 0.9409(7) 0.43387(15) 0.31867(15)
H8_3 H 0.931775 0.457814 0.298412
C21_3 C 0.9639(7) 0.36298(16) 0.58627(15)
H10_3 H 0.982817 0.339289 0.566692
C25_3 C 0.9252(6) 0.40813(15) 0.39353(14)
C26_3 C 0.9712(8) 0.36533(17) 0.37815(16)
H14_3 H 0.983590 0.340792 0.397684
C28_3 C 0.8889(7) 0.43942(15) 0.60153(15)
H15_3 H 0.854388 0.468750 0.592657
C30_3 C 0.8970(7) 0.41757(15) 0.43989(15)
C31_3 C 0.8936(7) 0.41691(15) 0.52252(15)
C32_3 C 0.8330(8) 0.45648(18) 0.50339(16)
H16_3 H 0.793739 0.481053 0.519558
C33_3 C 0.9101(7) 0.44297(16) 0.36195(15)
H17_3 H 0.879135 0.472337 0.370228
C34_3 C 0.8347(8) 0.45701(18) 0.45705(16)
H18_3 H 0.796849 0.481923 0.439657
N15_2 N 0.1949(5) 0.07016(11) 0.72684(13)
N18_2 N 0.7872(5) 0.07177(11) 0.71805(12)
Fe8_2 Fe 0.01278(7) 0.87308(2) 0.76624(2)
N17_2 N 0.2094(5) 0.67298(11) 0.76212(12)
C2_4 C 0.6822(5) 0.04467(13) 0.72356(14)
C3_4 C 0.3063(5) 0.04335(12) 0.72932(14)
S1_4 S 0.0510(2) 0.87893(4) 0.01789(4)
C15_4 C 0.0013(7) 0.85918(16) 0.16609(15)
C19_4 C 0.0591(7) 0.93387(15) 0.18133(15)
H8_4 H 0.068225 0.957814 0.201588
C25_4 C 0.0748(6) 0.90813(15) 0.10647(14)
C26_4 C 0.0288(8) 0.86533(17) 0.12185(16)
H14_4 H 0.016410 0.840792 0.102316
C30_4 C 0.1030(7) 0.91757(15) 0.06011(15)
C33_4 C 0.0899(7) 0.94297(16) 0.13805(15)
H17_4 H 0.120865 0.972337 0.129772
C34_4 C 0.1653(8) 0.95701(18) 0.04295(16)
H18_4 H 0.203151 0.981923 0.060343
Pt1_4 Pt 0.50203(2) 0.99706(2) 0.73616(2)
Pt2_2 Pt 0.51188(2) 0.74733(2) 0.76923(2)
S2_4 S 0.0021(2) 0.85821(5) 0.51724(4)
N1_4 N 0.0411(5) 0.88751(11) 0.83829(11)
N3_4 N 0.2148(5) 0.82129(11) 0.77789(13)
N5_2 N 0.8123(5) 0.92522(11) 0.75280(13)
N6_4 N 0.2170(5) 0.92246(11) 0.75531(12)
C1_4 C 0.3244(5) 0.79455(12) 0.77627(14)
C4_4 C 0.6963(5) 0.69980(13) 0.75978(14)
C6_4 C 0.3209(5) 0.94953(12) 0.74856(14)
N12_4 N 0.8013(5) 0.67249(11) 0.75507(13)
C7_4 C 0.3204(5) 0.69978(12) 0.76454(14)
C8_4 C 0.7001(5) 0.95142(13) 0.74583(14)
C10_4 C 0.0170(7) 0.85517(14) 0.86881(15)
C11_4 C 0.0870(6) 0.92884(14) 0.85424(14)
H3_4 H 0.103669 0.951994 0.833913
C12_4 C 0.0099(6) 0.81409(14) 0.35208(15)
H4_4 H 0.015607 0.791727 0.330404
C16_4 C 0.0836(6) 0.90600(15) 0.93017(14)
C20_4 C 0.0015(8) 0.88906(16) 0.37162(16)
H9_4 H 0.000541 0.919809 0.363935
C21_4 C 0.0361(7) 0.86298(16) 0.91373(15)
H10_4 H 0.017183 0.839289 0.933308
C24_4 C 0.0047(7) 0.80029(15) 0.39524(15)
H13_4 H 0.006938 0.769340 0.402142
C28_4 C 0.1111(7) 0.93942(15) 0.89847(15)
H15_4 H 0.145612 0.968750 0.907343
C31_4 C 0.1064(7) 0.91691(15) 0.97748(15)
C32_4 C 0.1670(8) 0.95648(18) 0.99661(16)
H16_4 H 0.206261 0.981053 0.980442
C37_2 C 0.7012(5) 0.79528(13) 0.77386(14)
N2_4 N 0.8079(5) 0.82316(11) 0.77574(12)
N4_4 N 0.9953(5) 0.85332(11) 0.69496(12)
C9_4 C 0.9969(8) 0.88554(16) 0.66331(17)
H1_4 H 0.999716 0.916076 0.671785
H2_4 H 0.985773 0.825934 0.858972
C13_4 C 0.9944(9) 0.87499(17) 0.61832(18)
H5_4 H 0.997000 0.898352 0.597552
C14_4 C 0.9875(7) 0.81011(15) 0.68136(15)
H6_4 H 0.983908 0.787360 0.702727
C17_2 C 0.9961(7) 0.83256(16) 0.42877(15)
C18_4 C 0.9881(7) 0.83003(16) 0.60434(15)
C22_2 C 0.9970(8) 0.87785(17) 0.41556(17)
H11_2 H 0.994579 0.900866 0.436690
C23_4 C 0.9844(7) 0.79706(16) 0.63756(15)
H12_4 H 0.979867 0.766255 0.630113
C27_2 C 0.9886(7) 0.81874(17) 0.47498(15)
C29_4 C 0.9858(7) 0.81748(17) 0.55772(16)
C35_4 C 0.9694(11) 0.7756(2) 0.53875(18)
H19_4 H 0.959008 0.748917 0.554962
C36_2 C 0.9697(11) 0.7764(2) 0.49226(18)
H20_2 H 0.957919 0.750185 0.474888
C17_3 C 0.9961(7) 0.66744(16) 0.92877(15)
C22_3 C 0.9970(8) 0.62215(17) 0.91556(17)
H11_3 H 0.994579 0.599134 0.936690
C27_3 C 0.9886(7) 0.68126(17) 0.97498(15)
C36_3 C 0.9697(11) 0.7236(2) 0.99226(18)
H20_3 H 0.957919 0.749815 0.974888
H7_3 H 0.029501 0.169802 0.824492
C17_4 C 0.0039(7) 0.33256(16) 0.07123(15)
C22_4 C 0.0030(8) 0.37785(17) 0.08444(17)
H11_4 H 0.005421 0.400866 0.063310
C27_4 C 0.0114(7) 0.31874(17) 0.02502(15)
C36_4 C 0.0303(11) 0.2764(2) 0.00774(18)
H20_4 H 0.042081 0.250185 0.025112
H7_4 H 0.970499 0.830198 0.175508
loop_
_geom_bond_atom_site_label_1
_geom_bond_atom_site_label_2
_geom_bond_site_symmetry_1
_geom_bond_site_symmetry_2
N14 Fe1 1_555 1_555
N16 Fe1 1_555 1_555
N17 Fe1 1_555 1_555
N18 Fe1 1_555 1_555
Pt1 C2 1_555 1_555
Pt2 C1 1_555 1_555
Fe8 N1 1_555 1_555
S1 C30 1_555 1_555
N1 C10 1_555 1_555
N3 Fe8 1_555 1_555
N5 C8 1_555 1_555
N6 Fe8 1_555 1_555
N7 C15 1_555 1_555
N8 C3 1_555 1_555
C1 N3 1_555 1_555
N17 C7 1_555 1_555
C2 N11 1_555 1_555
N11 Fe5 1_555 1_555
C3 Pt1 1_555 1_555
C4 Pt2 1_555 1_555
C6 Pt1 1_555 1_555
N12 C4 1_555 1_555
C7 Pt2 1_555 1_555
C8 Pt1 1_555 1_555
C11 N1 1_555 1_555
H3 C11 1_555 1_555
C16 C21 1_555 1_555
C19 N7 1_555 1_555
H8 C19 1_555 1_555
C21 C10 1_555 1_555
H10 C21 1_555 1_555
C25 C26 1_555 1_555
C26 C15 1_555 1_555
H14 C26 1_555 1_555
C28 C11 1_555 1_555
H15 C28 1_555 1_555
C30 C25 1_555 1_555
C31 S1 1_555 1_555
C32 C31 1_555 1_555
H16 C32 1_555 1_555
C33 C19 1_555 1_555
H17 C33 1_555 1_555
C34 C30 1_555 1_555
H18 C34 1_555 1_555
Fe7 N7 1_555 1_555
C37 Pt2 1_555 1_555
N6 C6 1_555 1_555
C16 C28 1_555 1_555
C16 C31 1_555 1_555
C25 C33 1_555 1_555
C32 C34 1_555 1_555
N9 C12 1_555 1_555
C12 H4 1_555 1_555
C20 N9 1_555 1_555
H9 C20 1_555 1_555
C24 C12 1_555 1_555
H13 C24 1_555 1_555
Fe7 N9 1_555 1_555
C37 N2 1_555 1_555
C9 N4 1_555 1_555
H1 C9 1_555 1_555
C13 C9 1_555 1_555
H5 C13 1_555 1_555
C14 N4 1_555 1_555
H6 C14 1_555 1_555
C18 C13 1_555 1_555
C23 C14 1_555 1_555
H12 C23 1_555 1_555
C35 C29 1_555 1_555
H19 C35 1_555 1_555
C18 C23 1_555 1_555
C18 C29 1_555 1_555
C5 N2_2 1_555 1_555
C9_2 N4_2 1_555 1_555
H1_2 C9_2 1_555 1_555
C13_2 C9_2 1_555 1_555
H5_2 C13_2 1_555 1_555
C14_2 N4_2 1_555 1_555
H6_2 C14_2 1_555 1_555
C17 C22 1_555 1_555
C18_2 C13_2 1_555 1_555
H11 C22 1_555 1_555
C23_2 C14_2 1_555 1_555
H12_2 C23_2 1_555 1_555
C27 C17 1_555 1_555
C35_2 C29_2 1_555 1_555
H19_2 C35_2 1_555 1_555
C36 C27 1_555 1_555
H20 C36 1_555 1_555
Pt3 C5 1_555 1_555
C18_2 C23_2 1_555 1_555
C18_2 C29_2 1_555 1_555
C35_2 C36 1_555 1_555
Pt3 C1_2 1_555 1_555
Fe2 N1_2 1_555 1_555
N1_2 C10_2 1_555 1_555
N3_2 Fe2 1_555 1_555
N13 C8_2 1_555 1_555
N6_2 Fe2 1_555 1_555
N9_2 C12_2 1_555 1_555
C1_2 N3_2 1_555 1_555
N10 C7_2 1_555 1_555
C4_2 Pt3 1_555 1_555
C6_2 Pt1_2 1_555 1_555
N12_2 C4_2 1_555 1_555
C7_2 Pt3 1_555 1_555
C8_2 Pt1_2 1_555 1_555
C11_2 N1_2 1_555 1_555
H3_2 C11_2 1_555 1_555
C12_2 H4_2 1_555 1_555
C16_2 C21_2 1_555 1_555
C20_2 N9_2 1_555 1_555
H9_2 C20_2 1_555 1_555
C21_2 C10_2 1_555 1_555
H10_2 C21_2 1_555 1_555
C24_2 C12_2 1_555 1_555
H13_2 C24_2 1_555 1_555
C28_2 C11_2 1_555 1_555
H15_2 C28_2 1_555 1_555
C32_2 C31_2 1_555 1_555
H16_2 C32_2 1_555 1_555
Fe5 N10 1_555 1_555
Fe6 N9_2 1_555 1_555
N6_2 C6_2 1_555 1_555
C16_2 C28_2 1_555 1_555
C16_2 C31_2 1_555 1_555
S1_2 C30_2 1_555 1_555
N7_2 C15_2 1_555 1_555
C19_2 N7_2 1_555 1_555
H8_2 C19_2 1_555 1_555
C25_2 C26_2 1_555 1_555
C26_2 C15_2 1_555 1_555
H14_2 C26_2 1_555 1_555
C30_2 C25_2 1_555 1_555
C33_2 C19_2 1_555 1_555
H17_2 C33_2 1_555 1_555
C34_2 C30_2 1_555 1_555
H18_2 C34_2 1_555 1_555
Fe6 N7_2 1_555 1_555
C25_2 C33_2 1_555 1_555
N15 C3_2 1_555 1_555
C2_2 N18 1_555 1_555
N14_2 Fe5 1_555 1_555
N16_2 Fe5 1_555 1_555
C5_2 N2_3 1_555 1_555
C9_3 N4_3 1_555 1_555
H1_3 C9_3 1_555 1_555
C13_3 C9_3 1_555 1_555
H5_3 C13_3 1_555 1_555
C14_3 N4_3 1_555 1_555
H6_3 C14_3 1_555 1_555
C18_3 C13_3 1_555 1_555
C23_3 C14_3 1_555 1_555
H12_3 C23_3 1_555 1_555
C35_3 C29_3 1_555 1_555
H19_3 C35_3 1_555 1_555
Pt3_2 C5_2 1_555 1_555
C18_3 C23_3 1_555 1_555
C18_3 C29_3 1_555 1_555
N16_2 C12_3 1_555 1_555
C12_3 H4_3 1_555 1_555
C20_3 N16_2 1_555 1_555
H9_3 C20_3 1_555 1_555
C24_3 C12_3 1_555 1_555
H13_3 C24_3 1_555 1_555
Pt1_3 C2_3 1_555 1_555
Pt3_2 C1_3 1_555 1_555
Fe2_2 N1_3 1_555 1_555
S1_3 C30_3 1_555 1_555
N1_3 C10_3 1_555 1_555
N3_3 Fe2_2 1_555 1_555
N13_2 C8_3 1_555 1_555
N6_3 Fe2_2 1_555 1_555
N14_2 C15_3 1_555 1_555
N8_2 C3_3 1_555 1_555
C1_3 N3_3 1_555 1_555
N10_2 C7_3 1_555 1_555
C2_3 N11_2 1_555 1_555
N11_2 Fe7 1_555 1_555
C3_3 Pt1_3 1_555 1_555
C4_3 Pt3_2 1_555 1_555
C6_3 Pt1_3 1_555 1_555
N12_3 C4_3 1_555 1_555
C7_3 Pt3_2 1_555 1_555
C8_3 Pt1_3 1_555 1_555
C11_3 N1_3 1_555 1_555
H3_3 C11_3 1_555 1_555
C16_3 C21_3 1_555 1_555
C19_3 N14_2 1_555 1_555
H8_3 C19_3 1_555 1_555
C21_3 C10_3 1_555 1_555
H10_3 C21_3 1_555 1_555
C25_3 C26_3 1_555 1_555
C26_3 C15_3 1_555 1_555
H14_3 C26_3 1_555 1_555
C28_3 C11_3 1_555 1_555
H15_3 C28_3 1_555 1_555
C30_3 C25_3 1_555 1_555
C31_3 S1_3 1_555 1_555
C32_3 C31_3 1_555 1_555
H16_3 C32_3 1_555 1_555
C33_3 C19_3 1_555 1_555
H17_3 C33_3 1_555 1_555
C34_3 C30_3 1_555 1_555
H18_3 C34_3 1_555 1_555
Fe6 N10_2 1_555 1_555
N6_3 C6_3 1_555 1_555
C16_3 C28_3 1_555 1_555
C16_3 C31_3 1_555 1_555
C25_3 C33_3 1_555 1_555
C32_3 C34_3 1_555 1_555
N18_2 Fe6 1_555 1_555
N17_2 Fe7 1_555 1_555
N15_2 C3_4 1_555 1_555
C2_4 N18_2 1_555 1_555
S1_4 C30_4 1_555 1_555
N14 C15_4 1_555 1_555
C19_4 N14 1_555 1_555
H8_4 C19_4 1_555 1_555
C25_4 C26_4 1_555 1_555
C26_4 C15_4 1_555 1_555
H14_4 C26_4 1_555 1_555
C30_4 C25_4 1_555 1_555
C33_4 C19_4 1_555 1_555
H17_4 C33_4 1_555 1_555
C34_4 C30_4 1_555 1_555
H18_4 C34_4 1_555 1_555
C25_4 C33_4 1_555 1_555
Pt2_2 C1_4 1_555 1_555
Fe8_2 N1_4 1_555 1_555
N1_4 C10_4 1_555 1_555
N3_4 Fe8_2 1_555 1_555
N5_2 C8_4 1_555 1_555
N6_4 Fe8_2 1_555 1_555
N16 C12_4 1_555 1_555
C1_4 N3_4 1_555 1_555
N17_2 C7_4 1_555 1_555
C4_4 Pt2_2 1_555 1_555
C6_4 Pt1_4 1_555 1_555
N12_4 C4_4 1_555 1_555
C7_4 Pt2_2 1_555 1_555
C8_4 Pt1_4 1_555 1_555
C11_4 N1_4 1_555 1_555
H3_4 C11_4 1_555 1_555
C12_4 H4_4 1_555 1_555
C16_4 C21_4 1_555 1_555
C20_4 N16 1_555 1_555
H9_4 C20_4 1_555 1_555
C21_4 C10_4 1_555 1_555
H10_4 C21_4 1_555 1_555
C24_4 C12_4 1_555 1_555
H13_4 C24_4 1_555 1_555
C28_4 C11_4 1_555 1_555
H15_4 C28_4 1_555 1_555
C32_4 C31_4 1_555 1_555
H16_4 C32_4 1_555 1_555
C37_2 Pt2_2 1_555 1_555
N6_4 C6_4 1_555 1_555
C16_4 C28_4 1_555 1_555
C16_4 C31_4 1_555 1_555
C37_2 N2_4 1_555 1_555
C9_4 N4_4 1_555 1_555
H1_4 C9_4 1_555 1_555
C13_4 C9_4 1_555 1_555
H5_4 C13_4 1_555 1_555
C14_4 N4_4 1_555 1_555
H6_4 C14_4 1_555 1_555
C17_2 C22_2 1_555 1_555
C18_4 C13_4 1_555 1_555
H11_2 C22_2 1_555 1_555
C23_4 C14_4 1_555 1_555
H12_4 C23_4 1_555 1_555
C27_2 C17_2 1_555 1_555
C35_4 C29_4 1_555 1_555
H19_4 C35_4 1_555 1_555
C36_2 C27_2 1_555 1_555
H20_2 C36_2 1_555 1_555
C18_4 C23_4 1_555 1_555
C18_4 C29_4 1_555 1_555
C35_4 C36_2 1_555 1_555
C17_3 C22_3 1_555 1_555
H11_3 C22_3 1_555 1_555
C27_3 C17_3 1_555 1_555
C36_3 C27_3 1_555 1_555
H20_3 C36_3 1_555 1_555
C17_4 C22_4 1_555 1_555
H11_4 C22_4 1_555 1_555
C27_4 C17_4 1_555 1_555
C36_4 C27_4 1_555 1_555
H20_4 C36_4 1_555 1_555

#END
