
###############################################################################
#
# This file contains modified crystal structure data generated from the
# MOF subset of the Cambridge Structural Database (CSD) v543 
# hosted by the Cambridge Crystallographic Data Centre (CCDC).
#
# This work is licensed under the Creative Commons
# Attribution-NonCommercial-ShareAlike 4.0 International License.
# To view a copy of this license, visit
# http://creativecommons.org/licenses/by-nc-sa/4.0/
# or send a letter to
# Creative Commons, PO Box 1866, Mountain View, CA 94042, USA.
#
# CIF created using the CSD Python API on 29 September 2022
# The structure has been converted into the P1 space group
# The structure has a 3D framework
# The original CSD entry OBIFAK01 is in the monoclinic crystal system
# The framework has been calculated to contain at least 10.0% void space
# The void calculation uses a probe of radius 1.32A, grid spacing 0.4
#
###############################################################################

data_OBIFAK01
_chemical_formula_moiety         '(C144 H80 Fe4 N48 Pt8 S8)n'
_symmetry_cell_setting           triclinic
_symmetry_space_group_name_H-M   'P 1'
_symmetry_Int_Tables_number      1
_space_group_name_Hall           'P 1'
loop_
_symmetry_equiv_pos_site_id
_symmetry_equiv_pos_as_xyz
1 x,y,z
_cell_length_a                   7.2864(4)
_cell_length_b                   28.9521(15)
_cell_length_c                   29.9614(15)
_cell_angle_alpha                90
_cell_angle_beta                 95.435(2)
_cell_angle_gamma                90
_cell_volume                     6292.14
loop_
_atom_site_label
_atom_site_type_symbol
_atom_site_fract_x
_atom_site_fract_y
_atom_site_fract_z
Fe1 Fe 0.00829(11) 0.87818(3) 0.26738(3)
Fe8 Fe 0.01551(11) 0.62679(3) 0.26546(3)
N14 N 0.0222(7) 0.89073(18) 0.19408(18)
N16 N 0.0118(7) 0.86150(18) 0.33940(18)
N17 N 0.2125(7) 0.82506(17) 0.26336(18)
N18 N 0.2159(7) 0.92958(18) 0.28073(19)
Pt1 Pt 0.50338(3) 0.50717(2) 0.23862(2)
Pt2 Pt 0.51520(3) 0.74801(2) 0.26987(2)
S1 S 0.0512(3) 0.62532(6) 0.51370(6)
S2 S 0.0037(3) 0.63395(6) 0.01940(6)
N1 N 0.0399(7) 0.61465(16) 0.33176(17)
N3 N 0.2051(7) 0.67359(17) 0.27467(17)
N5 N 0.8257(6) 0.57945(16) 0.25425(17)
N6 N 0.2054(6) 0.58157(16) 0.25728(17)
N7 N 0.0222(7) 0.60927(18) 0.69408(18)
N8 N 0.1952(7) 0.43125(17) 0.23067(18)
C1 C 0.3227(8) 0.70088(19) 0.2756(2)
C2 C 0.6831(8) 0.4584(2) 0.2250(2)
N11 N 0.7841(7) 0.42958(18) 0.21927(19)
C3 C 0.3042(8) 0.4600(2) 0.2328(2)
C4 C 0.6991(8) 0.7965(2) 0.2606(2)
C6 C 0.3184(8) 0.55475(19) 0.2514(2)
N12 N 0.8012(7) 0.82619(17) 0.25468(19)
C7 C 0.3225(8) 0.79640(19) 0.2663(2)
C8 C 0.7083(8) 0.55294(19) 0.2476(2)
C10 C 0.0263(8) 0.6481(2) 0.3618(2)
H2 H 0.002928 0.678674 0.351114
C11 C 0.0732(8) 0.5718(2) 0.3483(2)
H3 H 0.081957 0.547209 0.327668
C15 C 0.0028(9) 0.6441(2) 0.6640(2)
C16 C 0.0782(9) 0.5968(2) 0.4248(2)
C19 C 0.0705(9) 0.5684(2) 0.6788(2)
H8 H 0.083518 0.543507 0.699540
C21 C 0.0443(9) 0.6411(2) 0.4073(2)
H10 H 0.033646 0.666406 0.427078
C25 C 0.0822(9) 0.5953(2) 0.6031(2)
C26 C 0.0298(10) 0.6383(2) 0.6191(2)
H14 H 0.012479 0.663690 0.599025
C28 C 0.0949(9) 0.5617(2) 0.3931(2)
H15 H 0.121428 0.530969 0.402788
C30 C 0.1081(9) 0.5858(2) 0.5567(2)
C31 C 0.1014(9) 0.5860(2) 0.4727(2)
C32 C 0.1627(10) 0.5455(2) 0.4925(2)
H16 H 0.200161 0.519695 0.476064
C33 C 0.1025(9) 0.5597(2) 0.6356(2)
H17 H 0.138577 0.529617 0.627216
C34 C 0.1650(9) 0.5456(2) 0.5390(2)
H18 H 0.203272 0.519705 0.556904
Fe5 Fe 0.99171(11) 0.37818(3) 0.23262(3)
Fe7 Fe 0.00829(11) 0.62182(3) 0.76738(3)
N15 N 0.8048(7) 0.93125(17) 0.26933(18)
C37 C 0.7111(8) 0.6997(2) 0.2724(2)
N9 N 0.0118(7) 0.63850(18) 0.83940(18)
C12 C 0.0118(9) 0.6828(2) 0.8535(2)
H4 H 0.015744 0.706466 0.831630
C20 C 0.0091(10) 0.6064(2) 0.8709(2)
H9 H 0.011899 0.574957 0.861909
C22 C 0.0024(10) 0.6155(2) 0.9160(2)
H11 H 0.000559 0.591070 0.937124
C24 C 0.0063(9) 0.6956(2) 0.8971(2)
H13 H 0.007936 0.727360 0.905143
N2 N 0.8245(7) 0.67223(16) 0.27207(17)
N4 N 0.9972(7) 0.64045(17) 0.19989(18)
C9 C 0.9933(9) 0.6073(2) 0.1682(2)
H1 H 0.992628 0.575909 0.177367
C13 C 0.9903(9) 0.6171(2) 0.1223(2)
H5 H 0.990901 0.592548 0.101278
C14 C 0.9910(8) 0.6851(2) 0.1848(2)
H6 H 0.989598 0.709152 0.206391
H7 H 0.969201 0.673774 0.674000
C18 C 0.9863(9) 0.6631(2) 0.1075(2)
C23 C 0.9868(9) 0.6971(2) 0.1408(2)
H12 H 0.984281 0.728832 0.132568
C29 C 0.9844(9) 0.6751(2) 0.0601(2)
C35 C 0.9655(11) 0.7175(3) 0.0414(3)
H19 H 0.951627 0.744773 0.058402
N2_2 N 0.1755(7) 0.17223(16) 0.22793(17)
N4_2 N 0.0028(7) 0.14045(17) 0.30011(18)
C5 C 0.2889(8) 0.1997(2) 0.2276(2)
C9_2 C 0.0067(9) 0.1073(2) 0.3318(2)
H1_2 H 0.007372 0.075909 0.322633
C13_2 C 0.0097(9) 0.1171(2) 0.3777(2)
H5_2 H 0.009099 0.092548 0.398722
C14_2 C 0.0090(8) 0.1851(2) 0.3152(2)
H6_2 H 0.010402 0.209152 0.293609
C17 C 0.0017(9) 0.1618(2) 0.5702(2)
C18_2 C 0.0137(9) 0.1631(2) 0.3925(2)
C23_2 C 0.0132(9) 0.1971(2) 0.3592(2)
H12_2 H 0.015719 0.228832 0.367432
C27 C 0.0098(9) 0.1745(2) 0.5229(2)
C29_2 C 0.0156(9) 0.1751(2) 0.4399(2)
C35_2 C 0.0345(11) 0.2175(3) 0.4586(3)
H19_2 H 0.048373 0.244773 0.441598
C36 C 0.0319(12) 0.2179(3) 0.5054(3)
H20 H 0.044073 0.245157 0.523142
Pt3 Pt 0.48480(3) 0.24801(2) 0.23013(2)
N13 N 0.1743(6) 0.07945(16) 0.24575(17)
Pt1_2 Pt 0.49662(3) 0.00717(2) 0.26138(2)
Fe2 Fe 0.98449(11) 0.12679(3) 0.23454(3)
S2_2 S 0.9963(3) 0.13395(6) 0.48060(6)
N1_2 N 0.9601(7) 0.11465(16) 0.16824(17)
N3_2 N 0.7949(7) 0.17359(17) 0.22533(17)
N6_2 N 0.7946(6) 0.08157(16) 0.24272(17)
N9_2 N 0.9882(7) 0.13850(18) 0.66060(18)
C1_2 C 0.6773(8) 0.20088(19) 0.2244(2)
N10 N 0.7875(7) 0.32506(17) 0.23664(18)
C4_2 C 0.3009(8) 0.2965(2) 0.2394(2)
C6_2 C 0.6816(8) 0.05475(19) 0.2486(2)
N12_2 N 0.1988(7) 0.32619(17) 0.24532(19)
C7_2 C 0.6775(8) 0.29640(19) 0.2337(2)
C8_2 C 0.2917(8) 0.05294(19) 0.2524(2)
C10_2 C 0.9737(8) 0.1481(2) 0.1382(2)
H2_2 H 0.997072 0.178674 0.148886
C11_2 C 0.9268(8) 0.0718(2) 0.1517(2)
H3_2 H 0.918043 0.047209 0.172332
C12_2 C 0.9882(9) 0.1828(2) 0.6465(2)
H4_2 H 0.984256 0.206466 0.668370
C16_2 C 0.9218(9) 0.0968(2) 0.0752(2)
C20_2 C 0.9909(10) 0.1064(2) 0.6291(2)
H9_2 H 0.988101 0.074957 0.638091
C21_2 C 0.9557(9) 0.1411(2) 0.0927(2)
H10_2 H 0.966354 0.166406 0.072922
C22_2 C 0.9976(10) 0.1155(2) 0.5840(2)
H11_2 H 0.999441 0.091070 0.562876
C24_2 C 0.9937(9) 0.1956(2) 0.6029(2)
H13_2 H 0.992064 0.227360 0.594857
C28_2 C 0.9051(9) 0.0617(2) 0.1069(2)
H15_2 H 0.878572 0.030969 0.097212
C31_2 C 0.8986(9) 0.0860(2) 0.0273(2)
C32_2 C 0.8373(10) 0.0455(2) 0.0075(2)
H16_2 H 0.799839 0.019695 0.023936
Fe6 Fe 0.99171(11) 0.12182(3) 0.73262(3)
S1_2 S 0.9488(3) 0.12532(6) 0.98630(6)
N7_2 N 0.9778(7) 0.10927(18) 0.80592(18)
C15_2 C 0.9972(9) 0.1441(2) 0.8360(2)
C19_2 C 0.9295(9) 0.0684(2) 0.8212(2)
H8_2 H 0.916482 0.043507 0.800460
C25_2 C 0.9178(9) 0.0953(2) 0.8969(2)
C26_2 C 0.9702(10) 0.1383(2) 0.8809(2)
H14_2 H 0.987521 0.163690 0.900975
C30_2 C 0.8919(9) 0.0858(2) 0.9433(2)
C33_2 C 0.8975(9) 0.0597(2) 0.8644(2)
H17_2 H 0.861423 0.029617 0.872784
C34_2 C 0.8350(9) 0.0456(2) 0.9610(2)
H18_2 H 0.796728 0.019705 0.943096
C2_2 C 0.3169(8) 0.9584(2) 0.2750(2)
C3_2 C 0.6958(8) 0.9600(2) 0.2672(2)
N14_2 N 0.9778(7) 0.39073(18) 0.30592(18)
N16_2 N 0.9882(7) 0.36150(18) 0.16060(18)
N2_3 N 0.1755(7) 0.32777(16) 0.72793(17)
N4_3 N 0.0028(7) 0.35955(17) 0.80011(18)
C5_2 C 0.2889(8) 0.3003(2) 0.7276(2)
C9_3 C 0.0067(9) 0.3927(2) 0.8318(2)
H1_3 H 0.007372 0.424091 0.822633
C13_3 C 0.0097(9) 0.3829(2) 0.8777(2)
H5_3 H 0.009099 0.407452 0.898722
C14_3 C 0.0090(8) 0.3149(2) 0.8152(2)
H6_3 H 0.010402 0.290848 0.793609
H7_2 H 0.030799 0.326226 0.326000
C18_3 C 0.0137(9) 0.3369(2) 0.8925(2)
C23_3 C 0.0132(9) 0.3029(2) 0.8592(2)
H12_3 H 0.015719 0.271168 0.867432
C29_3 C 0.0156(9) 0.3249(2) 0.9399(2)
C35_3 C 0.0345(11) 0.2825(3) 0.9586(3)
H19_3 H 0.048373 0.255227 0.941598
Pt3_2 Pt 0.48480(3) 0.25199(2) 0.73013(2)
N13_2 N 0.1743(6) 0.42055(16) 0.74575(17)
C12_3 C 0.9882(9) 0.3172(2) 0.1465(2)
H4_3 H 0.984256 0.293534 0.168370
C20_3 C 0.9909(10) 0.3936(2) 0.1291(2)
H9_3 H 0.988101 0.425043 0.138091
C22_3 C 0.9976(10) 0.3845(2) 0.0840(2)
H11_3 H 0.999441 0.408930 0.062876
C24_3 C 0.9937(9) 0.3044(2) 0.1029(2)
H13_3 H 0.992064 0.272640 0.094857
Pt1_3 Pt 0.49662(3) 0.49283(2) 0.76138(2)
Fe2_2 Fe 0.98449(11) 0.37321(3) 0.73454(3)
S1_3 S 0.9488(3) 0.37468(6) 0.48630(6)
S2_3 S 0.9963(3) 0.36605(6) 0.98060(6)
N1_3 N 0.9601(7) 0.38535(16) 0.66824(17)
N3_3 N 0.7949(7) 0.32641(17) 0.72533(17)
N6_3 N 0.7946(6) 0.41843(16) 0.74272(17)
N8_2 N 0.8048(7) 0.56875(17) 0.76933(18)
C1_3 C 0.6773(8) 0.29912(19) 0.7244(2)
N10_2 N 0.7875(7) 0.17494(17) 0.73664(18)
C2_3 C 0.3169(8) 0.5416(2) 0.7750(2)
N11_2 N 0.2159(7) 0.57042(18) 0.78073(19)
C3_3 C 0.6958(8) 0.5400(2) 0.7672(2)
C4_3 C 0.3009(8) 0.2035(2) 0.7394(2)
C6_3 C 0.6816(8) 0.44525(19) 0.7486(2)
N12_3 N 0.1988(7) 0.17381(17) 0.74532(19)
C7_3 C 0.6775(8) 0.20360(19) 0.7337(2)
C8_3 C 0.2917(8) 0.44706(19) 0.7524(2)
C10_3 C 0.9737(8) 0.3519(2) 0.6382(2)
H2_3 H 0.997072 0.321326 0.648886
C11_3 C 0.9268(8) 0.4282(2) 0.6517(2)
H3_3 H 0.918043 0.452791 0.672332
C15_3 C 0.9972(9) 0.3559(2) 0.3360(2)
C16_3 C 0.9218(9) 0.4032(2) 0.5752(2)
C19_3 C 0.9295(9) 0.4316(2) 0.3212(2)
H8_3 H 0.916482 0.456493 0.300460
C21_3 C 0.9557(9) 0.3589(2) 0.5927(2)
H10_3 H 0.966354 0.333594 0.572922
C25_3 C 0.9178(9) 0.4047(2) 0.3969(2)
C26_3 C 0.9702(10) 0.3617(2) 0.3809(2)
H14_3 H 0.987521 0.336310 0.400975
C28_3 C 0.9051(9) 0.4383(2) 0.6069(2)
H15_3 H 0.878572 0.469031 0.597212
C30_3 C 0.8919(9) 0.4142(2) 0.4433(2)
C31_3 C 0.8986(9) 0.4140(2) 0.5273(2)
C32_3 C 0.8373(10) 0.4545(2) 0.5075(2)
H16_3 H 0.799839 0.480305 0.523936
C33_3 C 0.8975(9) 0.4403(2) 0.3644(2)
H17_3 H 0.861423 0.470383 0.372784
C34_3 C 0.8350(9) 0.4544(2) 0.4610(2)
H18_3 H 0.796728 0.480295 0.443096
N15_2 N 0.1952(7) 0.06875(17) 0.73067(18)
N18_2 N 0.7841(7) 0.07042(18) 0.71927(19)
Fe8_2 Fe 0.01551(11) 0.87321(3) 0.76546(3)
N17_2 N 0.2125(7) 0.67494(17) 0.76336(18)
C2_4 C 0.6831(8) 0.0416(2) 0.7250(2)
C3_4 C 0.3042(8) 0.0400(2) 0.7328(2)
S1_4 S 0.0512(3) 0.87468(6) 0.01370(6)
C15_4 C 0.0028(9) 0.8559(2) 0.1640(2)
C19_4 C 0.0705(9) 0.9316(2) 0.1788(2)
H8_4 H 0.083518 0.956493 0.199540
C25_4 C 0.0822(9) 0.9047(2) 0.1031(2)
C26_4 C 0.0298(10) 0.8617(2) 0.1191(2)
H14_4 H 0.012479 0.836310 0.099025
C30_4 C 0.1081(9) 0.9142(2) 0.0567(2)
C33_4 C 0.1025(9) 0.9403(2) 0.1356(2)
H17_4 H 0.138577 0.970383 0.127216
C34_4 C 0.1650(9) 0.9544(2) 0.0390(2)
H18_4 H 0.203272 0.980295 0.056904
Pt1_4 Pt 0.50338(3) 0.99283(2) 0.73862(2)
Pt2_2 Pt 0.51520(3) 0.75199(2) 0.76987(2)
S2_4 S 0.0037(3) 0.86605(6) 0.51940(6)
N1_4 N 0.0399(7) 0.88535(16) 0.83176(17)
N3_4 N 0.2051(7) 0.82641(17) 0.77467(17)
N5_2 N 0.8257(6) 0.92055(16) 0.75425(17)
N6_4 N 0.2054(6) 0.91843(16) 0.75728(17)
C1_4 C 0.3227(8) 0.79912(19) 0.7756(2)
C4_4 C 0.6991(8) 0.7035(2) 0.7606(2)
C6_4 C 0.3184(8) 0.94525(19) 0.7514(2)
N12_4 N 0.8012(7) 0.67381(17) 0.75468(19)
C7_4 C 0.3225(8) 0.70360(19) 0.7663(2)
C8_4 C 0.7083(8) 0.94706(19) 0.7476(2)
C10_4 C 0.0263(8) 0.8519(2) 0.8618(2)
H2_4 H 0.002928 0.821326 0.851114
C11_4 C 0.0732(8) 0.9282(2) 0.8483(2)
H3_4 H 0.081957 0.952791 0.827668
C12_4 C 0.0118(9) 0.8172(2) 0.3535(2)
H4_4 H 0.015744 0.793534 0.331630
C16_4 C 0.0782(9) 0.9032(2) 0.9248(2)
C20_4 C 0.0091(10) 0.8936(2) 0.3709(2)
H9_4 H 0.011899 0.925043 0.361909
C21_4 C 0.0443(9) 0.8589(2) 0.9073(2)
H10_4 H 0.033646 0.833594 0.927078
C22_4 C 0.0024(10) 0.8845(2) 0.4160(2)
H11_4 H 0.000559 0.908930 0.437124
C24_4 C 0.0063(9) 0.8044(2) 0.3971(2)
H13_4 H 0.007936 0.772640 0.405143
C28_4 C 0.0949(9) 0.9383(2) 0.8931(2)
H15_4 H 0.121428 0.969031 0.902788
C31_4 C 0.1014(9) 0.9140(2) 0.9727(2)
C32_4 C 0.1627(10) 0.9545(2) 0.9925(2)
H16_4 H 0.200161 0.980305 0.976064
C37_2 C 0.7111(8) 0.8003(2) 0.7724(2)
N2_4 N 0.8245(7) 0.82777(16) 0.77207(17)
N4_4 N 0.9972(7) 0.85955(17) 0.69989(18)
C9_4 C 0.9933(9) 0.8927(2) 0.6682(2)
H1_4 H 0.992628 0.924091 0.677367
C13_4 C 0.9903(9) 0.8829(2) 0.6223(2)
H5_4 H 0.990901 0.907452 0.601278
C14_4 C 0.9910(8) 0.8149(2) 0.6848(2)
H6_4 H 0.989598 0.790848 0.706391
C17_2 C 0.9983(9) 0.8382(2) 0.4298(2)
C18_4 C 0.9863(9) 0.8369(2) 0.6075(2)
C23_4 C 0.9868(9) 0.8029(2) 0.6408(2)
H12_4 H 0.984281 0.771168 0.632568
C27_2 C 0.9902(9) 0.8255(2) 0.4771(2)
C29_4 C 0.9844(9) 0.8249(2) 0.5601(2)
C35_4 C 0.9655(11) 0.7825(3) 0.5414(3)
H19_4 H 0.951627 0.755227 0.558402
C36_2 C 0.9681(12) 0.7821(3) 0.4946(3)
H20_2 H 0.955927 0.754843 0.476858
C17_3 C 0.9983(9) 0.6618(2) 0.9298(2)
C27_3 C 0.9902(9) 0.6745(2) 0.9771(2)
C36_3 C 0.9681(12) 0.7179(3) 0.9946(3)
H20_3 H 0.955927 0.745157 0.976858
H7_3 H 0.030799 0.173774 0.826000
C17_4 C 0.0017(9) 0.3382(2) 0.0702(2)
C27_4 C 0.0098(9) 0.3255(2) 0.0229(2)
C36_4 C 0.0319(12) 0.2821(3) 0.0054(3)
H20_4 H 0.044073 0.254843 0.023142
H7_4 H 0.969201 0.826226 0.174000
loop_
_geom_bond_atom_site_label_1
_geom_bond_atom_site_label_2
_geom_bond_site_symmetry_1
_geom_bond_site_symmetry_2
N14 Fe1 1_555 1_555
N16 Fe1 1_555 1_555
N17 Fe1 1_555 1_555
N18 Fe1 1_555 1_555
Pt1 C2 1_555 1_555
Pt2 C1 1_555 1_555
Fe8 N1 1_555 1_555
S1 C30 1_555 1_555
N1 C10 1_555 1_555
N3 Fe8 1_555 1_555
N5 C8 1_555 1_555
N6 Fe8 1_555 1_555
N7 C15 1_555 1_555
N8 C3 1_555 1_555
C1 N3 1_555 1_555
N17 C7 1_555 1_555
C2 N11 1_555 1_555
N11 Fe5 1_555 1_555
C3 Pt1 1_555 1_555
C4 Pt2 1_555 1_555
C6 Pt1 1_555 1_555
N12 C4 1_555 1_555
C7 Pt2 1_555 1_555
C8 Pt1 1_555 1_555
C10 H2 1_555 1_555
C11 N1 1_555 1_555
H3 C11 1_555 1_555
C16 C21 1_555 1_555
C19 N7 1_555 1_555
H8 C19 1_555 1_555
C21 C10 1_555 1_555
H10 C21 1_555 1_555
C25 C26 1_555 1_555
C26 C15 1_555 1_555
H14 C26 1_555 1_555
C28 C11 1_555 1_555
H15 C28 1_555 1_555
C30 C25 1_555 1_555
C31 S1 1_555 1_555
C32 C31 1_555 1_555
H16 C32 1_555 1_555
C33 C19 1_555 1_555
H17 C33 1_555 1_555
C34 C30 1_555 1_555
H18 C34 1_555 1_555
Fe7 N7 1_555 1_555
C37 Pt2 1_555 1_555
N6 C6 1_555 1_555
C16 C28 1_555 1_555
C16 C31 1_555 1_555
C25 C33 1_555 1_555
C32 C34 1_555 1_555
N9 C12 1_555 1_555
C12 H4 1_555 1_555
C20 N9 1_555 1_555
H9 C20 1_555 1_555
C22 C20 1_555 1_555
H11 C22 1_555 1_555
C24 C12 1_555 1_555
H13 C24 1_555 1_555
Fe7 N9 1_555 1_555
C37 N2 1_555 1_555
C9 N4 1_555 1_555
H1 C9 1_555 1_555
C13 C9 1_555 1_555
H5 C13 1_555 1_555
C14 N4 1_555 1_555
H6 C14 1_555 1_555
C18 C13 1_555 1_555
C23 C14 1_555 1_555
H12 C23 1_555 1_555
C35 C29 1_555 1_555
H19 C35 1_555 1_555
C18 C23 1_555 1_555
C18 C29 1_555 1_555
C5 N2_2 1_555 1_555
C9_2 N4_2 1_555 1_555
H1_2 C9_2 1_555 1_555
C13_2 C9_2 1_555 1_555
H5_2 C13_2 1_555 1_555
C14_2 N4_2 1_555 1_555
H6_2 C14_2 1_555 1_555
C18_2 C13_2 1_555 1_555
C23_2 C14_2 1_555 1_555
H12_2 C23_2 1_555 1_555
C27 C17 1_555 1_555
C35_2 C29_2 1_555 1_555
H19_2 C35_2 1_555 1_555
C36 C27 1_555 1_555
H20 C36 1_555 1_555
Pt3 C5 1_555 1_555
C18_2 C23_2 1_555 1_555
C18_2 C29_2 1_555 1_555
C35_2 C36 1_555 1_555
Pt3 C1_2 1_555 1_555
Fe2 N1_2 1_555 1_555
N1_2 C10_2 1_555 1_555
N3_2 Fe2 1_555 1_555
N13 C8_2 1_555 1_555
N6_2 Fe2 1_555 1_555
N9_2 C12_2 1_555 1_555
C1_2 N3_2 1_555 1_555
N10 C7_2 1_555 1_555
C4_2 Pt3 1_555 1_555
C6_2 Pt1_2 1_555 1_555
N12_2 C4_2 1_555 1_555
C7_2 Pt3 1_555 1_555
C8_2 Pt1_2 1_555 1_555
C10_2 H2_2 1_555 1_555
C11_2 N1_2 1_555 1_555
H3_2 C11_2 1_555 1_555
C12_2 H4_2 1_555 1_555
C16_2 C21_2 1_555 1_555
C20_2 N9_2 1_555 1_555
H9_2 C20_2 1_555 1_555
C21_2 C10_2 1_555 1_555
H10_2 C21_2 1_555 1_555
C22_2 C20_2 1_555 1_555
H11_2 C22_2 1_555 1_555
C24_2 C12_2 1_555 1_555
H13_2 C24_2 1_555 1_555
C28_2 C11_2 1_555 1_555
H15_2 C28_2 1_555 1_555
C32_2 C31_2 1_555 1_555
H16_2 C32_2 1_555 1_555
Fe5 N10 1_555 1_555
Fe6 N9_2 1_555 1_555
N6_2 C6_2 1_555 1_555
C16_2 C28_2 1_555 1_555
C16_2 C31_2 1_555 1_555
S1_2 C30_2 1_555 1_555
N7_2 C15_2 1_555 1_555
C19_2 N7_2 1_555 1_555
H8_2 C19_2 1_555 1_555
C25_2 C26_2 1_555 1_555
C26_2 C15_2 1_555 1_555
H14_2 C26_2 1_555 1_555
C30_2 C25_2 1_555 1_555
C33_2 C19_2 1_555 1_555
H17_2 C33_2 1_555 1_555
C34_2 C30_2 1_555 1_555
H18_2 C34_2 1_555 1_555
Fe6 N7_2 1_555 1_555
C25_2 C33_2 1_555 1_555
N15 C3_2 1_555 1_555
C2_2 N18 1_555 1_555
N14_2 Fe5 1_555 1_555
N16_2 Fe5 1_555 1_555
C5_2 N2_3 1_555 1_555
C9_3 N4_3 1_555 1_555
H1_3 C9_3 1_555 1_555
C13_3 C9_3 1_555 1_555
H5_3 C13_3 1_555 1_555
C14_3 N4_3 1_555 1_555
H6_3 C14_3 1_555 1_555
C18_3 C13_3 1_555 1_555
C23_3 C14_3 1_555 1_555
H12_3 C23_3 1_555 1_555
C35_3 C29_3 1_555 1_555
H19_3 C35_3 1_555 1_555
Pt3_2 C5_2 1_555 1_555
C18_3 C23_3 1_555 1_555
C18_3 C29_3 1_555 1_555
N16_2 C12_3 1_555 1_555
C12_3 H4_3 1_555 1_555
C20_3 N16_2 1_555 1_555
H9_3 C20_3 1_555 1_555
C22_3 C20_3 1_555 1_555
H11_3 C22_3 1_555 1_555
C24_3 C12_3 1_555 1_555
H13_3 C24_3 1_555 1_555
Pt1_3 C2_3 1_555 1_555
Pt3_2 C1_3 1_555 1_555
Fe2_2 N1_3 1_555 1_555
S1_3 C30_3 1_555 1_555
N1_3 C10_3 1_555 1_555
N3_3 Fe2_2 1_555 1_555
N13_2 C8_3 1_555 1_555
N6_3 Fe2_2 1_555 1_555
N14_2 C15_3 1_555 1_555
N8_2 C3_3 1_555 1_555
C1_3 N3_3 1_555 1_555
N10_2 C7_3 1_555 1_555
C2_3 N11_2 1_555 1_555
N11_2 Fe7 1_555 1_555
C3_3 Pt1_3 1_555 1_555
C4_3 Pt3_2 1_555 1_555
C6_3 Pt1_3 1_555 1_555
N12_3 C4_3 1_555 1_555
C7_3 Pt3_2 1_555 1_555
C8_3 Pt1_3 1_555 1_555
C10_3 H2_3 1_555 1_555
C11_3 N1_3 1_555 1_555
H3_3 C11_3 1_555 1_555
C16_3 C21_3 1_555 1_555
C19_3 N14_2 1_555 1_555
H8_3 C19_3 1_555 1_555
C21_3 C10_3 1_555 1_555
H10_3 C21_3 1_555 1_555
C25_3 C26_3 1_555 1_555
C26_3 C15_3 1_555 1_555
H14_3 C26_3 1_555 1_555
C28_3 C11_3 1_555 1_555
H15_3 C28_3 1_555 1_555
C30_3 C25_3 1_555 1_555
C31_3 S1_3 1_555 1_555
C32_3 C31_3 1_555 1_555
H16_3 C32_3 1_555 1_555
C33_3 C19_3 1_555 1_555
H17_3 C33_3 1_555 1_555
C34_3 C30_3 1_555 1_555
H18_3 C34_3 1_555 1_555
Fe6 N10_2 1_555 1_555
N6_3 C6_3 1_555 1_555
C16_3 C28_3 1_555 1_555
C16_3 C31_3 1_555 1_555
C25_3 C33_3 1_555 1_555
C32_3 C34_3 1_555 1_555
N18_2 Fe6 1_555 1_555
N17_2 Fe7 1_555 1_555
N15_2 C3_4 1_555 1_555
C2_4 N18_2 1_555 1_555
S1_4 C30_4 1_555 1_555
N14 C15_4 1_555 1_555
C19_4 N14 1_555 1_555
H8_4 C19_4 1_555 1_555
C25_4 C26_4 1_555 1_555
C26_4 C15_4 1_555 1_555
H14_4 C26_4 1_555 1_555
C30_4 C25_4 1_555 1_555
C33_4 C19_4 1_555 1_555
H17_4 C33_4 1_555 1_555
C34_4 C30_4 1_555 1_555
H18_4 C34_4 1_555 1_555
C25_4 C33_4 1_555 1_555
Pt2_2 C1_4 1_555 1_555
Fe8_2 N1_4 1_555 1_555
N1_4 C10_4 1_555 1_555
N3_4 Fe8_2 1_555 1_555
N5_2 C8_4 1_555 1_555
N6_4 Fe8_2 1_555 1_555
N16 C12_4 1_555 1_555
C1_4 N3_4 1_555 1_555
N17_2 C7_4 1_555 1_555
C4_4 Pt2_2 1_555 1_555
C6_4 Pt1_4 1_555 1_555
N12_4 C4_4 1_555 1_555
C7_4 Pt2_2 1_555 1_555
C8_4 Pt1_4 1_555 1_555
C10_4 H2_4 1_555 1_555
C11_4 N1_4 1_555 1_555
H3_4 C11_4 1_555 1_555
C12_4 H4_4 1_555 1_555
C16_4 C21_4 1_555 1_555
C20_4 N16 1_555 1_555
H9_4 C20_4 1_555 1_555
C21_4 C10_4 1_555 1_555
H10_4 C21_4 1_555 1_555
C22_4 C20_4 1_555 1_555
H11_4 C22_4 1_555 1_555
C24_4 C12_4 1_555 1_555
H13_4 C24_4 1_555 1_555
C28_4 C11_4 1_555 1_555
H15_4 C28_4 1_555 1_555
C32_4 C31_4 1_555 1_555
H16_4 C32_4 1_555 1_555
C37_2 Pt2_2 1_555 1_555
N6_4 C6_4 1_555 1_555
C16_4 C28_4 1_555 1_555
C16_4 C31_4 1_555 1_555
C37_2 N2_4 1_555 1_555
C9_4 N4_4 1_555 1_555
H1_4 C9_4 1_555 1_555
C13_4 C9_4 1_555 1_555
H5_4 C13_4 1_555 1_555
C14_4 N4_4 1_555 1_555
H6_4 C14_4 1_555 1_555
C18_4 C13_4 1_555 1_555
C23_4 C14_4 1_555 1_555
H12_4 C23_4 1_555 1_555
C27_2 C17_2 1_555 1_555
C35_4 C29_4 1_555 1_555
H19_4 C35_4 1_555 1_555
C36_2 C27_2 1_555 1_555
H20_2 C36_2 1_555 1_555
C18_4 C23_4 1_555 1_555
C18_4 C29_4 1_555 1_555
C35_4 C36_2 1_555 1_555
C27_3 C17_3 1_555 1_555
C36_3 C27_3 1_555 1_555
H20_3 C36_3 1_555 1_555
C27_4 C17_4 1_555 1_555
C36_4 C27_4 1_555 1_555
H20_4 C36_4 1_555 1_555

#END
