
###############################################################################
#
# This file contains modified crystal structure data generated from the
# MOF subset of the Cambridge Structural Database (CSD) v543 
# hosted by the Cambridge Crystallographic Data Centre (CCDC).
#
# This work is licensed under the Creative Commons
# Attribution-NonCommercial-ShareAlike 4.0 International License.
# To view a copy of this license, visit
# http://creativecommons.org/licenses/by-nc-sa/4.0/
# or send a letter to
# Creative Commons, PO Box 1866, Mountain View, CA 94042, USA.
#
# CIF created using the CSD Python API on 29 September 2022
# The structure has been converted into the P1 space group
# The structure has a 3D framework
# The original CSD entry OBIFAK is in the monoclinic crystal system
# The framework has been calculated to contain at least 10.0% void space
# The void calculation uses a probe of radius 1.32A, grid spacing 0.4
#
###############################################################################

data_OBIFAK
_chemical_formula_moiety         '(C144 H80 Fe4 N48 Pt8 S8)n'
_symmetry_cell_setting           triclinic
_symmetry_space_group_name_H-M   'P 1'
_symmetry_Int_Tables_number      1
_space_group_name_Hall           'P 1'
loop_
_symmetry_equiv_pos_site_id
_symmetry_equiv_pos_as_xyz
1 x,y,z
_cell_length_a                   7.1406(3)
_cell_length_b                   28.6586(10)
_cell_length_c                   29.6734(11)
_cell_angle_alpha                90
_cell_angle_beta                 94.8413(13)
_cell_angle_gamma                90
_cell_volume                     6050.69
loop_
_atom_site_label
_atom_site_type_symbol
_atom_site_fract_x
_atom_site_fract_y
_atom_site_fract_z
Fe1 Fe 0.00643(12) 0.87474(3) 0.26307(3)
Fe8 Fe 0.01050(12) 0.62423(3) 0.26174(3)
N14 N 0.0112(7) 0.88566(17) 0.19643(16)
N16 N 0.0109(7) 0.86222(17) 0.32948(17)
N17 N 0.1965(7) 0.82656(17) 0.26023(16)
N18 N 0.2023(7) 0.92144(17) 0.27268(17)
Pt1 Pt 0.49982(3) 0.50006(2) 0.23835(2)
Pt2 Pt 0.50961(3) 0.74953(2) 0.26550(2)
S1 S 0.0432(3) 0.62888(5) 0.51290(5)
S2 S 0.0105(3) 0.62926(6) 0.01267(5)
N1 N 0.0345(8) 0.61334(17) 0.32883(17)
N3 N 0.2008(7) 0.67196(16) 0.27019(17)
N5 N 0.8206(8) 0.57533(17) 0.25179(16)
N6 N 0.2032(8) 0.57769(17) 0.25411(17)
N7 N 0.0112(7) 0.61434(17) 0.69643(16)
N8 N 0.1828(7) 0.42330(17) 0.23436(17)
C1 C 0.3151(9) 0.7008(2) 0.2709(2)
C2 C 0.6872(9) 0.4502(2) 0.2289(2)
N11 N 0.7977(7) 0.42144(17) 0.22732(17)
C3 C 0.2952(9) 0.45259(19) 0.23477(19)
C4 C 0.7002(8) 0.7986(2) 0.2576(2)
C6 C 0.3129(8) 0.5494(2) 0.2488(2)
N12 N 0.8093(7) 0.82780(17) 0.25426(17)
C7 C 0.3124(8) 0.79808(19) 0.26209(19)
C8 C 0.7052(8) 0.54729(19) 0.24527(19)
C10 C 0.0174(9) 0.6487(2) 0.3588(2)
C11 C 0.0705(9) 0.5709(2) 0.3467(2)
H3 H 0.081010 0.545452 0.326504
C16 C 0.0754(9) 0.5985(2) 0.4235(2)
C19 C 0.0501(9) 0.5713(2) 0.6799(2)
H8 H 0.056951 0.545677 0.700310
C21 C 0.0331(9) 0.6424(2) 0.4050(2)
H10 H 0.015116 0.668153 0.424346
C25 C 0.0699(9) 0.5995(2) 0.6037(2)
C26 C 0.0245(10) 0.6432(2) 0.6208(2)
H14 H 0.012628 0.669324 0.601034
C28 C 0.0929(9) 0.5620(2) 0.3921(2)
H15 H 0.120366 0.531246 0.402617
C30 C 0.0985(9) 0.5899(2) 0.5572(2)
C31 C 0.0958(9) 0.5885(2) 0.4720(2)
C32 C 0.1590(9) 0.5476(2) 0.4924(2)
H16 H 0.197552 0.521287 0.476012
C33 C 0.0794(9) 0.5630(2) 0.6361(2)
H17 H 0.106832 0.532210 0.626953
C34 C 0.1608(10) 0.5484(2) 0.5395(2)
H18 H 0.201321 0.522600 0.557987
Fe5 Fe 0.99357(12) 0.37474(3) 0.23693(3)
Fe7 Fe 0.00643(12) 0.62526(3) 0.76307(3)
N15 N 0.8172(7) 0.92330(17) 0.26564(17)
C37 C 0.7056(9) 0.7002(2) 0.2675(2)
N9 N 0.0109(7) 0.63778(17) 0.82948(17)
C12 C 0.0102(9) 0.6823(2) 0.8446(2)
H4 H 0.012987 0.706994 0.823299
C17 C 0.0012(9) 0.6586(2) 0.9222(2)
C20 C 0.0096(9) 0.6040(2) 0.8611(2)
H9 H 0.011781 0.572451 0.851250
C22 C 0.0055(10) 0.6121(2) 0.9069(2)
H11 H 0.005565 0.586822 0.927615
C24 C 0.0056(9) 0.6931(2) 0.8895(2)
H13 H 0.005400 0.724973 0.898487
N2 N 0.8162(7) 0.67099(17) 0.26770(16)
N4 N 0.9960(8) 0.63749(17) 0.19543(16)
C9 C 0.9944(9) 0.6038(2) 0.1633(2)
H1 H 0.994749 0.572129 0.172887
H2 H 0.993399 0.679213 0.347329
C13 C 0.9922(10) 0.6127(2) 0.1176(2)
H5 H 0.993072 0.587587 0.096713
C14 C 0.9888(9) 0.6820(2) 0.1797(2)
H6 H 0.987014 0.706637 0.201061
C15 C 0.9969(10) 0.6491(2) 0.6655(2)
H7 H 0.965910 0.679454 0.675492
C18 C 0.9887(9) 0.6585(2) 0.1022(2)
C23 C 0.9841(9) 0.6933(2) 0.1352(2)
H12 H 0.977679 0.725160 0.126305
C29 C 0.9836(9) 0.6708(2) 0.0544(2)
C35 C 0.9589(11) 0.7142(2) 0.0348(2)
H19 H 0.941574 0.741659 0.051821
N2_2 N 0.1838(7) 0.17099(17) 0.23230(16)
N4_2 N 0.0040(8) 0.13749(17) 0.30457(16)
C5 C 0.2944(9) 0.2002(2) 0.2325(2)
C9_2 C 0.0056(9) 0.1038(2) 0.3367(2)
H1_2 H 0.005251 0.072129 0.327113
H2_2 H 0.006601 0.179213 0.152671
C13_2 C 0.0078(10) 0.1127(2) 0.3824(2)
H5_2 H 0.006928 0.087587 0.403287
C14_2 C 0.0112(9) 0.1820(2) 0.3203(2)
H6_2 H 0.012986 0.206637 0.298939
C18_2 C 0.0113(9) 0.1585(2) 0.3978(2)
C23_2 C 0.0159(9) 0.1933(2) 0.3648(2)
H12_2 H 0.022321 0.225160 0.373695
C27 C 0.0106(9) 0.1708(2) 0.5299(2)
C29_2 C 0.0164(9) 0.1708(2) 0.4456(2)
C35_2 C 0.0411(11) 0.2142(2) 0.4652(2)
H19_2 H 0.058426 0.241659 0.448179
C36 C 0.0387(10) 0.2143(2) 0.5125(2)
H20 H 0.054874 0.241598 0.530473
Pt3 Pt 0.49039(3) 0.24953(2) 0.23450(2)
N13 N 0.1794(8) 0.07533(17) 0.24821(16)
Pt1_2 Pt 0.50018(3) 0.00006(2) 0.26165(2)
Fe2 Fe 0.98950(12) 0.12423(3) 0.23826(3)
S2_2 S 0.9895(3) 0.12926(6) 0.48733(5)
N1_2 N 0.9655(8) 0.11334(17) 0.17117(17)
N3_2 N 0.7992(7) 0.17196(16) 0.22981(17)
N6_2 N 0.7968(8) 0.07769(17) 0.24589(17)
N9_2 N 0.9891(7) 0.13778(17) 0.67052(17)
C1_2 C 0.6849(9) 0.2008(2) 0.2291(2)
N10 N 0.8035(7) 0.32656(17) 0.23977(16)
C4_2 C 0.2998(8) 0.2986(2) 0.2424(2)
C6_2 C 0.6871(8) 0.0494(2) 0.2512(2)
N12_2 N 0.1907(7) 0.32780(17) 0.24574(17)
C7_2 C 0.6876(8) 0.29808(19) 0.23791(19)
C8_2 C 0.2948(8) 0.04729(19) 0.25473(19)
C10_2 C 0.9826(9) 0.1487(2) 0.1412(2)
C11_2 C 0.9295(9) 0.0709(2) 0.1533(2)
H3_2 H 0.918990 0.045452 0.173496
C12_2 C 0.9898(9) 0.1823(2) 0.6554(2)
H4_2 H 0.987013 0.206994 0.676701
C16_2 C 0.9246(9) 0.0985(2) 0.0765(2)
C17_2 C 0.9988(9) 0.1586(2) 0.5778(2)
C20_2 C 0.9904(9) 0.1040(2) 0.6389(2)
H9_2 H 0.988219 0.072451 0.648750
C21_2 C 0.9669(9) 0.1424(2) 0.0950(2)
H10_2 H 0.984884 0.168153 0.075654
C22_2 C 0.9945(10) 0.1121(2) 0.5931(2)
H11_2 H 0.994435 0.086822 0.572385
C24_2 C 0.9944(9) 0.1931(2) 0.6105(2)
H13_2 H 0.994600 0.224973 0.601513
C28_2 C 0.9071(9) 0.0620(2) 0.1079(2)
H15_2 H 0.879634 0.031246 0.097383
C31_2 C 0.9042(9) 0.0885(2) 0.0280(2)
C32_2 C 0.8410(9) 0.0476(2) 0.0076(2)
H16_2 H 0.802448 0.021287 0.023988
Fe6 Fe 0.99357(12) 0.12526(3) 0.73693(3)
S1_2 S 0.9568(3) 0.12888(5) 0.98710(5)
N7_2 N 0.9888(7) 0.11434(17) 0.80357(16)
C19_2 C 0.9499(9) 0.0713(2) 0.8201(2)
H8_2 H 0.943049 0.045677 0.799690
C25_2 C 0.9301(9) 0.0995(2) 0.8963(2)
C26_2 C 0.9755(10) 0.1432(2) 0.8792(2)
H14_2 H 0.987372 0.169324 0.898966
C30_2 C 0.9015(9) 0.0899(2) 0.9428(2)
C33_2 C 0.9206(9) 0.0630(2) 0.8639(2)
H17_2 H 0.893168 0.032210 0.873047
C34_2 C 0.8392(10) 0.0484(2) 0.9605(2)
H18_2 H 0.798679 0.022600 0.942013
C2_2 C 0.3128(9) 0.9502(2) 0.2711(2)
C3_2 C 0.7048(9) 0.95259(19) 0.26523(19)
N14_2 N 0.9888(7) 0.38566(17) 0.30357(16)
N16_2 N 0.9891(7) 0.36222(17) 0.17052(17)
N2_3 N 0.1838(7) 0.32901(17) 0.73230(16)
N4_3 N 0.0040(8) 0.36251(17) 0.80457(16)
C5_2 C 0.2944(9) 0.2998(2) 0.7325(2)
C9_3 C 0.0056(9) 0.3962(2) 0.8367(2)
H1_3 H 0.005251 0.427871 0.827113
H2_3 H 0.006601 0.320787 0.652671
C13_3 C 0.0078(10) 0.3873(2) 0.8824(2)
H5_3 H 0.006928 0.412413 0.903287
C14_3 C 0.0112(9) 0.3180(2) 0.8203(2)
H6_3 H 0.012986 0.293363 0.798939
C15_2 C 0.0031(10) 0.3509(2) 0.3345(2)
H7_2 H 0.034090 0.320546 0.324508
C18_3 C 0.0113(9) 0.3415(2) 0.8978(2)
C23_3 C 0.0159(9) 0.3067(2) 0.8648(2)
H12_3 H 0.022321 0.274840 0.873695
C29_3 C 0.0164(9) 0.3292(2) 0.9456(2)
C35_3 C 0.0411(11) 0.2858(2) 0.9652(2)
H19_3 H 0.058426 0.258341 0.948179
Pt3_2 Pt 0.49039(3) 0.25047(2) 0.73450(2)
N13_2 N 0.1794(8) 0.42467(17) 0.74821(16)
C12_3 C 0.9898(9) 0.3177(2) 0.1554(2)
H4_3 H 0.987013 0.293006 0.176701
C17_3 C 0.9988(9) 0.3414(2) 0.0778(2)
C20_3 C 0.9904(9) 0.3960(2) 0.1389(2)
H9_3 H 0.988219 0.427549 0.148750
C22_3 C 0.9945(10) 0.3879(2) 0.0931(2)
H11_3 H 0.994435 0.413178 0.072385
C24_3 C 0.9944(9) 0.3069(2) 0.1105(2)
H13_3 H 0.994600 0.275027 0.101513
Pt1_3 Pt 0.50018(3) 0.49994(2) 0.76165(2)
Fe2_2 Fe 0.98950(12) 0.37577(3) 0.73826(3)
S1_3 S 0.9568(3) 0.37112(5) 0.48710(5)
S2_3 S 0.9895(3) 0.37074(6) 0.98733(5)
N1_3 N 0.9655(8) 0.38666(17) 0.67117(17)
N3_3 N 0.7992(7) 0.32804(16) 0.72981(17)
N6_3 N 0.7968(8) 0.42231(17) 0.74589(17)
N8_2 N 0.8172(7) 0.57670(17) 0.76564(17)
C1_3 C 0.6849(9) 0.2992(2) 0.7291(2)
N10_2 N 0.8035(7) 0.17344(17) 0.73977(16)
C2_3 C 0.3128(9) 0.5498(2) 0.7711(2)
N11_2 N 0.2023(7) 0.57856(17) 0.77268(17)
C3_3 C 0.7048(9) 0.54741(19) 0.76523(19)
C4_3 C 0.2998(8) 0.2014(2) 0.7424(2)
C6_3 C 0.6871(8) 0.4506(2) 0.7512(2)
N12_3 N 0.1907(7) 0.17220(17) 0.74574(17)
C7_3 C 0.6876(8) 0.20192(19) 0.73791(19)
C8_3 C 0.2948(8) 0.45271(19) 0.75473(19)
C10_3 C 0.9826(9) 0.3513(2) 0.6412(2)
C11_3 C 0.9295(9) 0.4291(2) 0.6533(2)
H3_3 H 0.918990 0.454548 0.673496
C16_3 C 0.9246(9) 0.4015(2) 0.5765(2)
C19_3 C 0.9499(9) 0.4287(2) 0.3201(2)
H8_3 H 0.943049 0.454323 0.299690
C21_3 C 0.9669(9) 0.3576(2) 0.5950(2)
H10_3 H 0.984884 0.331847 0.575654
C25_3 C 0.9301(9) 0.4005(2) 0.3963(2)
C26_3 C 0.9755(10) 0.3568(2) 0.3792(2)
H14_3 H 0.987372 0.330676 0.398966
C28_3 C 0.9071(9) 0.4380(2) 0.6079(2)
H15_3 H 0.879634 0.468754 0.597383
C30_3 C 0.9015(9) 0.4101(2) 0.4428(2)
C31_3 C 0.9042(9) 0.4115(2) 0.5280(2)
C32_3 C 0.8410(9) 0.4524(2) 0.5076(2)
H16_3 H 0.802448 0.478713 0.523988
C33_3 C 0.9206(9) 0.4370(2) 0.3639(2)
H17_3 H 0.893168 0.467790 0.373047
C34_3 C 0.8392(10) 0.4516(2) 0.4605(2)
H18_3 H 0.798679 0.477400 0.442013
N15_2 N 0.1828(7) 0.07670(17) 0.73436(17)
N18_2 N 0.7977(7) 0.07856(17) 0.72732(17)
Fe8_2 Fe 0.01050(12) 0.87577(3) 0.76174(3)
N17_2 N 0.1965(7) 0.67344(17) 0.76023(16)
C2_4 C 0.6872(9) 0.0498(2) 0.7289(2)
C3_4 C 0.2952(9) 0.04741(19) 0.73477(19)
S1_4 S 0.0432(3) 0.87112(5) 0.01290(5)
C19_4 C 0.0501(9) 0.9287(2) 0.1799(2)
H8_4 H 0.056951 0.954323 0.200310
C25_4 C 0.0699(9) 0.9005(2) 0.1037(2)
C26_4 C 0.0245(10) 0.8568(2) 0.1208(2)
H14_4 H 0.012628 0.830676 0.101034
C30_4 C 0.0985(9) 0.9101(2) 0.0572(2)
C33_4 C 0.0794(9) 0.9370(2) 0.1361(2)
H17_4 H 0.106832 0.967790 0.126953
C34_4 C 0.1608(10) 0.9516(2) 0.0395(2)
H18_4 H 0.201321 0.977400 0.057987
Pt1_4 Pt 0.49982(3) 0.99994(2) 0.73835(2)
Pt2_2 Pt 0.50961(3) 0.75047(2) 0.76550(2)
S2_4 S 0.0105(3) 0.87074(6) 0.51267(5)
N1_4 N 0.0345(8) 0.88666(17) 0.82883(17)
N3_4 N 0.2008(7) 0.82804(16) 0.77019(17)
N5_2 N 0.8206(8) 0.92467(17) 0.75179(16)
N6_4 N 0.2032(8) 0.92231(17) 0.75411(17)
C1_4 C 0.3151(9) 0.7992(2) 0.7709(2)
C4_4 C 0.7002(8) 0.7014(2) 0.7576(2)
C6_4 C 0.3129(8) 0.9506(2) 0.7488(2)
N12_4 N 0.8093(7) 0.67220(17) 0.75426(17)
C7_4 C 0.3124(8) 0.70192(19) 0.76209(19)
C8_4 C 0.7052(8) 0.95271(19) 0.74527(19)
C10_4 C 0.0174(9) 0.8513(2) 0.8588(2)
C11_4 C 0.0705(9) 0.9291(2) 0.8467(2)
H3_4 H 0.081010 0.954548 0.826504
C12_4 C 0.0102(9) 0.8177(2) 0.3446(2)
H4_4 H 0.012987 0.793006 0.323299
C16_4 C 0.0754(9) 0.9015(2) 0.9235(2)
C17_4 C 0.0012(9) 0.8414(2) 0.4222(2)
C20_4 C 0.0096(9) 0.8960(2) 0.3611(2)
H9_4 H 0.011781 0.927549 0.351250
C21_4 C 0.0331(9) 0.8576(2) 0.9050(2)
H10_4 H 0.015116 0.831847 0.924346
C22_4 C 0.0055(10) 0.8879(2) 0.4069(2)
H11_4 H 0.005565 0.913178 0.427615
C24_4 C 0.0056(9) 0.8069(2) 0.3895(2)
H13_4 H 0.005400 0.775027 0.398487
C28_4 C 0.0929(9) 0.9380(2) 0.8921(2)
H15_4 H 0.120366 0.968754 0.902617
C31_4 C 0.0958(9) 0.9115(2) 0.9720(2)
C32_4 C 0.1590(9) 0.9524(2) 0.9924(2)
H16_4 H 0.197552 0.978713 0.976012
C37_2 C 0.7056(9) 0.7998(2) 0.7675(2)
N2_4 N 0.8162(7) 0.82901(17) 0.76770(16)
N4_4 N 0.9960(8) 0.86251(17) 0.69543(16)
C9_4 C 0.9944(9) 0.8962(2) 0.6633(2)
H1_4 H 0.994749 0.927871 0.672887
H2_4 H 0.993399 0.820787 0.847329
C13_4 C 0.9922(10) 0.8873(2) 0.6176(2)
H5_4 H 0.993072 0.912413 0.596713
C14_4 C 0.9888(9) 0.8180(2) 0.6797(2)
H6_4 H 0.987014 0.793363 0.701061
C18_4 C 0.9887(9) 0.8415(2) 0.6022(2)
C23_4 C 0.9841(9) 0.8067(2) 0.6352(2)
H12_4 H 0.977679 0.774840 0.626305
C27_2 C 0.9894(9) 0.8292(2) 0.4701(2)
C29_4 C 0.9836(9) 0.8292(2) 0.5544(2)
C35_4 C 0.9589(11) 0.7858(2) 0.5348(2)
H19_4 H 0.941574 0.758341 0.551821
C36_2 C 0.9613(10) 0.7857(2) 0.4875(2)
H20_2 H 0.945126 0.758402 0.469527
C27_3 C 0.9894(9) 0.6708(2) 0.9701(2)
C36_3 C 0.9613(10) 0.7143(2) 0.9875(2)
H20_3 H 0.945126 0.741598 0.969527
C15_3 C 0.0031(10) 0.1491(2) 0.8345(2)
H7_3 H 0.034090 0.179454 0.824508
C27_4 C 0.0106(9) 0.3292(2) 0.0299(2)
C36_4 C 0.0387(10) 0.2857(2) 0.0125(2)
H20_4 H 0.054874 0.258402 0.030473
C15_4 C 0.9969(10) 0.8509(2) 0.1655(2)
H7_4 H 0.965910 0.820546 0.175492
loop_
_geom_bond_atom_site_label_1
_geom_bond_atom_site_label_2
_geom_bond_site_symmetry_1
_geom_bond_site_symmetry_2
N14 Fe1 1_555 1_555
N16 Fe1 1_555 1_555
N17 Fe1 1_555 1_555
N18 Fe1 1_555 1_555
Pt1 C2 1_555 1_555
Pt2 C1 1_555 1_555
Fe8 N1 1_555 1_555
S1 C30 1_555 1_555
N1 C10 1_555 1_555
N3 Fe8 1_555 1_555
N5 C8 1_555 1_555
N6 Fe8 1_555 1_555
N8 C3 1_555 1_555
C1 N3 1_555 1_555
N17 C7 1_555 1_555
C2 N11 1_555 1_555
N11 Fe5 1_555 1_555
C3 Pt1 1_555 1_555
C4 Pt2 1_555 1_555
C6 Pt1 1_555 1_555
N12 C4 1_555 1_555
C7 Pt2 1_555 1_555
C8 Pt1 1_555 1_555
C11 N1 1_555 1_555
H3 C11 1_555 1_555
C16 C21 1_555 1_555
C19 N7 1_555 1_555
H8 C19 1_555 1_555
C21 C10 1_555 1_555
H10 C21 1_555 1_555
C25 C26 1_555 1_555
H14 C26 1_555 1_555
C28 C11 1_555 1_555
H15 C28 1_555 1_555
C30 C25 1_555 1_555
C31 S1 1_555 1_555
C32 C31 1_555 1_555
H16 C32 1_555 1_555
C33 C19 1_555 1_555
H17 C33 1_555 1_555
C34 C30 1_555 1_555
H18 C34 1_555 1_555
Fe7 N7 1_555 1_555
C37 Pt2 1_555 1_555
N6 C6 1_555 1_555
C16 C28 1_555 1_555
C16 C31 1_555 1_555
C25 C33 1_555 1_555
C32 C34 1_555 1_555
N9 C12 1_555 1_555
C12 H4 1_555 1_555
C17 C22 1_555 1_555
C20 N9 1_555 1_555
H9 C20 1_555 1_555
C22 C20 1_555 1_555
H11 C22 1_555 1_555
C24 C12 1_555 1_555
H13 C24 1_555 1_555
Fe7 N9 1_555 1_555
C17 C24 1_555 1_555
C37 N2 1_555 1_555
C9 N4 1_555 1_555
H1 C9 1_555 1_555
C13 C9 1_555 1_555
H5 C13 1_555 1_555
C14 N4 1_555 1_555
H6 C14 1_555 1_555
C15 H7 1_555 1_555
C18 C13 1_555 1_555
C23 C14 1_555 1_555
H12 C23 1_555 1_555
C35 C29 1_555 1_555
H19 C35 1_555 1_555
C18 C23 1_555 1_555
C18 C29 1_555 1_555
C5 N2_2 1_555 1_555
C9_2 N4_2 1_555 1_555
H1_2 C9_2 1_555 1_555
C13_2 C9_2 1_555 1_555
H5_2 C13_2 1_555 1_555
C14_2 N4_2 1_555 1_555
H6_2 C14_2 1_555 1_555
C18_2 C13_2 1_555 1_555
C23_2 C14_2 1_555 1_555
H12_2 C23_2 1_555 1_555
C35_2 C29_2 1_555 1_555
H19_2 C35_2 1_555 1_555
C36 C27 1_555 1_555
H20 C36 1_555 1_555
Pt3 C5 1_555 1_555
C18_2 C23_2 1_555 1_555
C18_2 C29_2 1_555 1_555
C35_2 C36 1_555 1_555
Pt3 C1_2 1_555 1_555
Fe2 N1_2 1_555 1_555
N1_2 C10_2 1_555 1_555
N3_2 Fe2 1_555 1_555
N13 C8_2 1_555 1_555
N6_2 Fe2 1_555 1_555
N9_2 C12_2 1_555 1_555
C1_2 N3_2 1_555 1_555
N10 C7_2 1_555 1_555
C4_2 Pt3 1_555 1_555
C6_2 Pt1_2 1_555 1_555
N12_2 C4_2 1_555 1_555
C7_2 Pt3 1_555 1_555
C8_2 Pt1_2 1_555 1_555
C11_2 N1_2 1_555 1_555
H3_2 C11_2 1_555 1_555
C12_2 H4_2 1_555 1_555
C16_2 C21_2 1_555 1_555
C17_2 C22_2 1_555 1_555
C20_2 N9_2 1_555 1_555
H9_2 C20_2 1_555 1_555
C21_2 C10_2 1_555 1_555
H10_2 C21_2 1_555 1_555
C22_2 C20_2 1_555 1_555
H11_2 C22_2 1_555 1_555
C24_2 C12_2 1_555 1_555
H13_2 C24_2 1_555 1_555
C28_2 C11_2 1_555 1_555
H15_2 C28_2 1_555 1_555
C32_2 C31_2 1_555 1_555
H16_2 C32_2 1_555 1_555
Fe5 N10 1_555 1_555
Fe6 N9_2 1_555 1_555
N6_2 C6_2 1_555 1_555
C16_2 C28_2 1_555 1_555
C16_2 C31_2 1_555 1_555
C17_2 C24_2 1_555 1_555
S1_2 C30_2 1_555 1_555
C19_2 N7_2 1_555 1_555
H8_2 C19_2 1_555 1_555
C25_2 C26_2 1_555 1_555
H14_2 C26_2 1_555 1_555
C30_2 C25_2 1_555 1_555
C33_2 C19_2 1_555 1_555
H17_2 C33_2 1_555 1_555
C34_2 C30_2 1_555 1_555
H18_2 C34_2 1_555 1_555
Fe6 N7_2 1_555 1_555
C25_2 C33_2 1_555 1_555
N15 C3_2 1_555 1_555
C2_2 N18 1_555 1_555
N14_2 Fe5 1_555 1_555
N16_2 Fe5 1_555 1_555
C5_2 N2_3 1_555 1_555
C9_3 N4_3 1_555 1_555
H1_3 C9_3 1_555 1_555
C13_3 C9_3 1_555 1_555
H5_3 C13_3 1_555 1_555
C14_3 N4_3 1_555 1_555
H6_3 C14_3 1_555 1_555
C15_2 H7_2 1_555 1_555
C18_3 C13_3 1_555 1_555
C23_3 C14_3 1_555 1_555
H12_3 C23_3 1_555 1_555
C35_3 C29_3 1_555 1_555
H19_3 C35_3 1_555 1_555
Pt3_2 C5_2 1_555 1_555
C18_3 C23_3 1_555 1_555
C18_3 C29_3 1_555 1_555
N16_2 C12_3 1_555 1_555
C12_3 H4_3 1_555 1_555
C17_3 C22_3 1_555 1_555
C20_3 N16_2 1_555 1_555
H9_3 C20_3 1_555 1_555
C22_3 C20_3 1_555 1_555
H11_3 C22_3 1_555 1_555
C24_3 C12_3 1_555 1_555
H13_3 C24_3 1_555 1_555
C17_3 C24_3 1_555 1_555
Pt1_3 C2_3 1_555 1_555
Pt3_2 C1_3 1_555 1_555
Fe2_2 N1_3 1_555 1_555
S1_3 C30_3 1_555 1_555
N1_3 C10_3 1_555 1_555
N3_3 Fe2_2 1_555 1_555
N13_2 C8_3 1_555 1_555
N6_3 Fe2_2 1_555 1_555
N8_2 C3_3 1_555 1_555
C1_3 N3_3 1_555 1_555
N10_2 C7_3 1_555 1_555
C2_3 N11_2 1_555 1_555
N11_2 Fe7 1_555 1_555
C3_3 Pt1_3 1_555 1_555
C4_3 Pt3_2 1_555 1_555
C6_3 Pt1_3 1_555 1_555
N12_3 C4_3 1_555 1_555
C7_3 Pt3_2 1_555 1_555
C8_3 Pt1_3 1_555 1_555
C11_3 N1_3 1_555 1_555
H3_3 C11_3 1_555 1_555
C16_3 C21_3 1_555 1_555
C19_3 N14_2 1_555 1_555
H8_3 C19_3 1_555 1_555
C21_3 C10_3 1_555 1_555
H10_3 C21_3 1_555 1_555
C25_3 C26_3 1_555 1_555
H14_3 C26_3 1_555 1_555
C28_3 C11_3 1_555 1_555
H15_3 C28_3 1_555 1_555
C30_3 C25_3 1_555 1_555
C31_3 S1_3 1_555 1_555
C32_3 C31_3 1_555 1_555
H16_3 C32_3 1_555 1_555
C33_3 C19_3 1_555 1_555
H17_3 C33_3 1_555 1_555
C34_3 C30_3 1_555 1_555
H18_3 C34_3 1_555 1_555
Fe6 N10_2 1_555 1_555
N6_3 C6_3 1_555 1_555
C16_3 C28_3 1_555 1_555
C16_3 C31_3 1_555 1_555
C25_3 C33_3 1_555 1_555
C32_3 C34_3 1_555 1_555
N18_2 Fe6 1_555 1_555
N17_2 Fe7 1_555 1_555
N15_2 C3_4 1_555 1_555
C2_4 N18_2 1_555 1_555
S1_4 C30_4 1_555 1_555
C19_4 N14 1_555 1_555
H8_4 C19_4 1_555 1_555
C25_4 C26_4 1_555 1_555
H14_4 C26_4 1_555 1_555
C30_4 C25_4 1_555 1_555
C33_4 C19_4 1_555 1_555
H17_4 C33_4 1_555 1_555
C34_4 C30_4 1_555 1_555
H18_4 C34_4 1_555 1_555
C25_4 C33_4 1_555 1_555
Pt2_2 C1_4 1_555 1_555
Fe8_2 N1_4 1_555 1_555
N1_4 C10_4 1_555 1_555
N3_4 Fe8_2 1_555 1_555
N5_2 C8_4 1_555 1_555
N6_4 Fe8_2 1_555 1_555
N16 C12_4 1_555 1_555
C1_4 N3_4 1_555 1_555
N17_2 C7_4 1_555 1_555
C4_4 Pt2_2 1_555 1_555
C6_4 Pt1_4 1_555 1_555
N12_4 C4_4 1_555 1_555
C7_4 Pt2_2 1_555 1_555
C8_4 Pt1_4 1_555 1_555
C11_4 N1_4 1_555 1_555
H3_4 C11_4 1_555 1_555
C12_4 H4_4 1_555 1_555
C16_4 C21_4 1_555 1_555
C17_4 C22_4 1_555 1_555
C20_4 N16 1_555 1_555
H9_4 C20_4 1_555 1_555
C21_4 C10_4 1_555 1_555
H10_4 C21_4 1_555 1_555
C22_4 C20_4 1_555 1_555
H11_4 C22_4 1_555 1_555
C24_4 C12_4 1_555 1_555
H13_4 C24_4 1_555 1_555
C28_4 C11_4 1_555 1_555
H15_4 C28_4 1_555 1_555
C32_4 C31_4 1_555 1_555
H16_4 C32_4 1_555 1_555
C37_2 Pt2_2 1_555 1_555
N6_4 C6_4 1_555 1_555
C16_4 C28_4 1_555 1_555
C16_4 C31_4 1_555 1_555
C17_4 C24_4 1_555 1_555
C37_2 N2_4 1_555 1_555
C9_4 N4_4 1_555 1_555
H1_4 C9_4 1_555 1_555
C13_4 C9_4 1_555 1_555
H5_4 C13_4 1_555 1_555
C14_4 N4_4 1_555 1_555
H6_4 C14_4 1_555 1_555
C18_4 C13_4 1_555 1_555
C23_4 C14_4 1_555 1_555
H12_4 C23_4 1_555 1_555
C35_4 C29_4 1_555 1_555
H19_4 C35_4 1_555 1_555
C36_2 C27_2 1_555 1_555
H20_2 C36_2 1_555 1_555
C18_4 C23_4 1_555 1_555
C18_4 C29_4 1_555 1_555
C35_4 C36_2 1_555 1_555
C36_3 C27_3 1_555 1_555
H20_3 C36_3 1_555 1_555
C15_3 H7_3 1_555 1_555
C36_4 C27_4 1_555 1_555
H20_4 C36_4 1_555 1_555
C15_4 H7_4 1_555 1_555

#END
