
###############################################################################
#
# This file contains modified crystal structure data generated from the
# MOF subset of the Cambridge Structural Database (CSD) v543 
# hosted by the Cambridge Crystallographic Data Centre (CCDC).
#
# This work is licensed under the Creative Commons
# Attribution-NonCommercial-ShareAlike 4.0 International License.
# To view a copy of this license, visit
# http://creativecommons.org/licenses/by-nc-sa/4.0/
# or send a letter to
# Creative Commons, PO Box 1866, Mountain View, CA 94042, USA.
#
# CIF created using the CSD Python API on 29 September 2022
# The structure has been converted into the P1 space group
# The structure has a 3D framework
# The original CSD entry OBIFAK02 is in the monoclinic crystal system
# The framework has been calculated to contain at least 10.0% void space
# The void calculation uses a probe of radius 1.32A, grid spacing 0.4
#
###############################################################################

data_OBIFAK02
_chemical_formula_moiety         '(C148 H80 Fe4 N48 Pt8 S8)n'
_symmetry_cell_setting           triclinic
_symmetry_space_group_name_H-M   'P 1'
_symmetry_Int_Tables_number      1
_space_group_name_Hall           'P 1'
loop_
_symmetry_equiv_pos_site_id
_symmetry_equiv_pos_as_xyz
1 x,y,z
_cell_length_a                   7.4466(7)
_cell_length_b                   29.242(3)
_cell_length_c                   30.236(3)
_cell_angle_alpha                90
_cell_angle_beta                 95.000(3)
_cell_angle_gamma                90
_cell_volume                     6558.94
loop_
_atom_site_label
_atom_site_type_symbol
_atom_site_fract_x
_atom_site_fract_y
_atom_site_fract_z
Fe1 Fe 0.00702(15) 0.87891(4) 0.26938(4)
Fe8 Fe 0.01498(15) 0.62723(4) 0.26717(4)
N14 N 0.0174(10) 0.8936(3) 0.1962(2)
N16 N 0.0105(10) 0.8592(3) 0.3403(3)
N17 N 0.2085(10) 0.8279(3) 0.2634(3)
N18 N 0.2135(9) 0.9290(2) 0.2830(3)
Pt1 Pt 0.50220(4) 0.50343(2) 0.23663(2)
Pt2 Pt 0.51350(4) 0.75317(2) 0.27028(2)
S1 S 0.0532(4) 0.62169(10) 0.51898(9)
S2 S 0.0042(5) 0.63976(11) 0.01792(9)
N1 N 0.0442(9) 0.6134(2) 0.3396(2)
N3 N 0.2171(10) 0.6791(2) 0.2785(3)
N5 N 0.8150(10) 0.5749(2) 0.2533(3)
N6 N 0.2177(10) 0.5780(2) 0.2573(3)
N7 N 0.0174(10) 0.6064(3) 0.6962(2)
N8 N 0.1942(10) 0.4305(2) 0.2271(3)
C1 C 0.3271(10) 0.7065(3) 0.2770(3)
C2 C 0.6811(11) 0.4555(3) 0.2228(3)
N11 N 0.7865(9) 0.4290(2) 0.2170(3)
C3 C 0.3063(11) 0.4576(3) 0.2295(3)
C4 C 0.6971(10) 0.8008(3) 0.2614(3)
C6 C 0.3216(11) 0.5507(3) 0.2500(3)
N12 N 0.8037(10) 0.8283(3) 0.2556(3)
C7 C 0.3225(11) 0.8006(3) 0.2660(3)
C8 C 0.7029(11) 0.5491(3) 0.2468(3)
C10 C 0.0200(13) 0.6451(3) 0.3696(3)
C11 C 0.0905(12) 0.5717(3) 0.3558(3)
H3 H 0.108181 0.548122 0.335016
C15 C 0.0010(13) 0.6413(3) 0.6666(3)
C16 C 0.0853(12) 0.5948(3) 0.4315(3)
C19 C 0.0597(13) 0.5660(3) 0.6819(3)
H8 H 0.068809 0.541388 0.702517
C21 C 0.0386(14) 0.6372(3) 0.4146(3)
H10 H 0.018892 0.661574 0.434353
C25 C 0.0774(12) 0.5917(3) 0.6073(3)
C26 C 0.0293(14) 0.6345(3) 0.6223(3)
H14 H 0.015650 0.659373 0.602080
C28 C 0.1137(13) 0.5610(3) 0.3995(3)
H15 H 0.148831 0.530983 0.408582
C30 C 0.1070(13) 0.5825(3) 0.5613(3)
C31 C 0.1082(14) 0.5839(4) 0.4786(3)
C32 C 0.1693(16) 0.5441(4) 0.4979(3)
H16 H 0.210146 0.519034 0.481527
C33 C 0.0918(14) 0.5572(3) 0.6388(3)
H17 H 0.124175 0.527202 0.630452
C34 C 0.1664(15) 0.5438(4) 0.5439(3)
H18 H 0.203591 0.518034 0.561605
Fe5 Fe 0.99298(15) 0.37891(4) 0.23062(4)
Fe7 Fe 0.00702(15) 0.62109(4) 0.76938(4)
N15 N 0.8058(10) 0.9305(2) 0.2729(3)
C37 C 0.7032(11) 0.7055(3) 0.2742(3)
N9 N 0.0105(10) 0.6408(3) 0.8403(3)
C12 C 0.0120(13) 0.6845(3) 0.8529(3)
H4 H 0.017286 0.707639 0.830971
C20 C 0.0055(15) 0.6096(4) 0.8723(4)
H9 H 0.005832 0.578327 0.863917
C22 C 0.0000(16) 0.6197(4) 0.9165(3)
C24 C 0.0062(13) 0.6973(3) 0.8962(3)
H13 H 0.008736 0.728898 0.903544
N2 N 0.8103(9) 0.6770(2) 0.2761(2)
N4 N 0.9986(11) 0.6463(3) 0.1959(3)
C9 C 0.9949(15) 0.6137(4) 0.1645(4)
H1 H 0.992138 0.582556 0.173389
H2 H 0.987970 0.674998 0.359579
C13 C 0.9948(16) 0.6236(4) 0.1190(4)
H5 H 0.999828 0.599481 0.098120
C14 C 0.9870(13) 0.6884(3) 0.1817(3)
H6 H 0.978662 0.711939 0.203027
H7 H 0.969656 0.670860 0.676302
C18 C 0.9876(13) 0.6681(4) 0.1049(3)
C23 C 0.9862(14) 0.7010(3) 0.1379(3)
H12 H 0.984533 0.732533 0.130113
C29 C 0.9862(14) 0.6804(4) 0.0578(3)
C35 C 0.967(2) 0.7222(4) 0.0392(4)
H19 H 0.954664 0.749460 0.055832
N2_2 N 0.1897(9) 0.1770(2) 0.2239(2)
N4_2 N 0.0014(11) 0.1463(3) 0.3041(3)
C5 C 0.2968(11) 0.2055(3) 0.2258(3)
C9_2 C 0.0051(15) 0.1137(4) 0.3355(4)
H1_2 H 0.007862 0.082556 0.326611
H2_2 H 0.012030 0.174998 0.140421
C13_2 C 0.0052(16) 0.1236(4) 0.3810(4)
H5_2 H 0.000172 0.099481 0.401880
C14_2 C 0.0130(13) 0.1884(3) 0.3183(3)
H6_2 H 0.021338 0.211939 0.296973
C17 C 0.0034(13) 0.1653(4) 0.5706(3)
C18_2 C 0.0124(13) 0.1681(4) 0.3951(3)
C22_2 C 0.0000(16) 0.1197(4) 0.5835(3)
H11 H 0.001571 0.095916 0.562137
C23_2 C 0.0138(14) 0.2010(3) 0.3621(3)
H12_2 H 0.015467 0.232533 0.369887
C27 C 0.0105(14) 0.1794(3) 0.5244(3)
C29_2 C 0.0138(14) 0.1804(4) 0.4422(3)
C35_2 C 0.033(2) 0.2222(4) 0.4608(4)
H19_2 H 0.045336 0.249460 0.444168
C36 C 0.0327(19) 0.2213(4) 0.5073(4)
H20 H 0.046905 0.248074 0.525101
Pt3 Pt 0.48650(4) 0.25317(2) 0.22972(2)
N13 N 0.1850(10) 0.0749(2) 0.2467(3)
Pt1_2 Pt 0.49780(4) 0.00343(2) 0.26337(2)
Fe2 Fe 0.98502(15) 0.12723(4) 0.23283(4)
S2_2 S 0.9958(5) 0.13976(11) 0.48208(9)
N1_2 N 0.9558(9) 0.1134(2) 0.1604(2)
N3_2 N 0.7829(10) 0.1791(2) 0.2215(3)
N6_2 N 0.7823(10) 0.0780(2) 0.2427(3)
N9_2 N 0.9895(10) 0.1408(3) 0.6597(3)
C1_2 C 0.6729(10) 0.2065(3) 0.2230(3)
N10 N 0.7915(10) 0.3279(3) 0.2366(3)
C4_2 C 0.3029(10) 0.3008(3) 0.2386(3)
C6_2 C 0.6784(11) 0.0507(3) 0.2500(3)
N12_2 N 0.1963(10) 0.3283(3) 0.2444(3)
C7_2 C 0.6775(11) 0.3006(3) 0.2340(3)
C8_2 C 0.2971(11) 0.0491(3) 0.2532(3)
C10_2 C 0.9800(13) 0.1451(3) 0.1304(3)
C11_2 C 0.9095(12) 0.0717(3) 0.1442(3)
H3_2 H 0.891819 0.048122 0.164984
C12_2 C 0.9880(13) 0.1845(3) 0.6471(3)
H4_2 H 0.982714 0.207639 0.669029
C16_2 C 0.9147(12) 0.0948(3) 0.0685(3)
C20_2 C 0.9945(15) 0.1096(4) 0.6277(4)
H9_2 H 0.994168 0.078327 0.636083
C21_2 C 0.9614(14) 0.1372(3) 0.0854(3)
H10_2 H 0.981108 0.161574 0.065647
C22_3 C 1.0000(16) 0.1197(4) 0.5835(3)
C24_2 C 0.9938(13) 0.1973(3) 0.6038(3)
H13_2 H 0.991264 0.228898 0.596456
C28_2 C 0.8863(13) 0.0610(3) 0.1005(3)
H15_2 H 0.851169 0.030983 0.091418
C31_2 C 0.8918(14) 0.0839(4) 0.0214(3)
C32_2 C 0.8307(16) 0.0441(4) 0.0021(3)
H16_2 H 0.789854 0.019034 0.018473
Fe6 Fe 0.99298(15) 0.12109(4) 0.73062(4)
S1_2 S 0.9468(4) 0.12169(10) 0.98102(9)
N7_2 N 0.9826(10) 0.1064(3) 0.8038(2)
C15_2 C 0.9990(13) 0.1413(3) 0.8334(3)
C19_2 C 0.9403(13) 0.0660(3) 0.8181(3)
H8_2 H 0.931191 0.041388 0.797483
C25_2 C 0.9226(12) 0.0917(3) 0.8927(3)
C26_2 C 0.9707(14) 0.1345(3) 0.8777(3)
H14_2 H 0.984350 0.159373 0.897920
C30_2 C 0.8930(13) 0.0825(3) 0.9387(3)
C33_2 C 0.9082(14) 0.0572(3) 0.8612(3)
H17_2 H 0.875825 0.027202 0.869548
C34_2 C 0.8336(15) 0.0438(4) 0.9561(3)
H18_2 H 0.796409 0.018034 0.938395
C2_2 C 0.3189(11) 0.9555(3) 0.2772(3)
C3_2 C 0.6937(11) 0.9576(3) 0.2705(3)
N14_2 N 0.9826(10) 0.3936(3) 0.3038(2)
N16_2 N 0.9895(10) 0.3592(3) 0.1597(3)
N2_3 N 0.1897(9) 0.3230(2) 0.7239(2)
N4_3 N 0.0014(11) 0.3537(3) 0.8041(3)
C5_2 C 0.2968(11) 0.2945(3) 0.7258(3)
C9_3 C 0.0051(15) 0.3863(4) 0.8355(4)
H1_3 H 0.007862 0.417444 0.826611
H2_3 H 0.012030 0.325002 0.640421
C13_3 C 0.0052(16) 0.3764(4) 0.8810(4)
H5_3 H 0.000172 0.400519 0.901880
C14_3 C 0.0130(13) 0.3116(3) 0.8183(3)
H6_3 H 0.021338 0.288061 0.796973
H7_2 H 0.030344 0.329140 0.323698
C18_3 C 0.0124(13) 0.3319(4) 0.8951(3)
C23_3 C 0.0138(14) 0.2990(3) 0.8621(3)
H12_3 H 0.015467 0.267467 0.869887
C29_3 C 0.0138(14) 0.3196(4) 0.9422(3)
C35_3 C 0.033(2) 0.2778(4) 0.9608(4)
H19_3 H 0.045336 0.250540 0.944168
Pt3_2 Pt 0.48650(4) 0.24683(2) 0.72972(2)
N13_2 N 0.1850(10) 0.4251(2) 0.7467(3)
C12_3 C 0.9880(13) 0.3155(3) 0.1471(3)
H4_3 H 0.982714 0.292361 0.169029
C20_3 C 0.9945(15) 0.3904(4) 0.1277(4)
H9_3 H 0.994168 0.421673 0.136083
C22_4 C 1.0000(16) 0.3803(4) 0.0835(3)
C24_3 C 0.9938(13) 0.3027(3) 0.1038(3)
H13_3 H 0.991264 0.271102 0.096456
Pt1_3 Pt 0.49780(4) 0.49657(2) 0.76337(2)
Fe2_2 Fe 0.98502(15) 0.37277(4) 0.73283(4)
S1_3 S 0.9468(4) 0.37831(10) 0.48102(9)
S2_3 S 0.9958(5) 0.36024(11) 0.98208(9)
N1_3 N 0.9558(9) 0.3866(2) 0.6604(2)
N3_3 N 0.7829(10) 0.3209(2) 0.7215(3)
N6_3 N 0.7823(10) 0.4220(2) 0.7427(3)
N8_2 N 0.8058(10) 0.5695(2) 0.7729(3)
C1_3 C 0.6729(10) 0.2935(3) 0.7230(3)
N10_2 N 0.7915(10) 0.1721(3) 0.7366(3)
C2_3 C 0.3189(11) 0.5445(3) 0.7772(3)
N11_2 N 0.2135(9) 0.5710(2) 0.7830(3)
C3_3 C 0.6937(11) 0.5424(3) 0.7705(3)
C4_3 C 0.3029(10) 0.1992(3) 0.7386(3)
C6_3 C 0.6784(11) 0.4493(3) 0.7500(3)
N12_3 N 0.1963(10) 0.1717(3) 0.7444(3)
C7_3 C 0.6775(11) 0.1994(3) 0.7340(3)
C8_3 C 0.2971(11) 0.4509(3) 0.7532(3)
C10_3 C 0.9800(13) 0.3549(3) 0.6304(3)
C11_3 C 0.9095(12) 0.4283(3) 0.6442(3)
H3_3 H 0.891819 0.451878 0.664984
C15_3 C 0.9990(13) 0.3587(3) 0.3334(3)
C16_3 C 0.9147(12) 0.4052(3) 0.5685(3)
C19_3 C 0.9403(13) 0.4340(3) 0.3181(3)
H8_3 H 0.931191 0.458612 0.297483
C21_3 C 0.9614(14) 0.3628(3) 0.5854(3)
H10_3 H 0.981108 0.338426 0.565647
C25_3 C 0.9226(12) 0.4083(3) 0.3927(3)
C26_3 C 0.9707(14) 0.3655(3) 0.3777(3)
H14_3 H 0.984350 0.340627 0.397920
C28_3 C 0.8863(13) 0.4390(3) 0.6005(3)
H15_3 H 0.851169 0.469017 0.591418
C30_3 C 0.8930(13) 0.4175(3) 0.4387(3)
C31_3 C 0.8918(14) 0.4161(4) 0.5214(3)
C32_3 C 0.8307(16) 0.4559(4) 0.5021(3)
H16_3 H 0.789854 0.480966 0.518473
C33_3 C 0.9082(14) 0.4428(3) 0.3612(3)
H17_3 H 0.875825 0.472798 0.369548
C34_3 C 0.8336(15) 0.4562(4) 0.4561(3)
H18_3 H 0.796409 0.481966 0.438395
N15_2 N 0.1942(10) 0.0695(2) 0.7271(3)
N18_2 N 0.7865(9) 0.0710(2) 0.7170(3)
Fe8_2 Fe 0.01498(15) 0.87277(4) 0.76717(4)
N17_2 N 0.2085(10) 0.6721(3) 0.7634(3)
C2_4 C 0.6811(11) 0.0445(3) 0.7228(3)
C3_4 C 0.3063(11) 0.0424(3) 0.7295(3)
S1_4 S 0.0532(4) 0.87831(10) 0.01898(9)
C15_4 C 0.0010(13) 0.8587(3) 0.1666(3)
C19_4 C 0.0597(13) 0.9340(3) 0.1819(3)
H8_4 H 0.068809 0.958612 0.202517
C25_4 C 0.0774(12) 0.9083(3) 0.1073(3)
C26_4 C 0.0293(14) 0.8655(3) 0.1223(3)
H14_4 H 0.015650 0.840627 0.102080
C30_4 C 0.1070(13) 0.9175(3) 0.0613(3)
C33_4 C 0.0918(14) 0.9428(3) 0.1388(3)
H17_4 H 0.124175 0.972798 0.130452
C34_4 C 0.1664(15) 0.9562(4) 0.0439(3)
H18_4 H 0.203591 0.981966 0.061605
Pt1_4 Pt 0.50220(4) 0.99657(2) 0.73663(2)
Pt2_2 Pt 0.51350(4) 0.74683(2) 0.77028(2)
S2_4 S 0.0042(5) 0.86024(11) 0.51792(9)
N1_4 N 0.0442(9) 0.8866(2) 0.8396(2)
N3_4 N 0.2171(10) 0.8209(2) 0.7785(3)
N5_2 N 0.8150(10) 0.9251(2) 0.7533(3)
N6_4 N 0.2177(10) 0.9220(2) 0.7573(3)
C1_4 C 0.3271(10) 0.7935(3) 0.7770(3)
C4_4 C 0.6971(10) 0.6992(3) 0.7614(3)
C6_4 C 0.3216(11) 0.9493(3) 0.7500(3)
N12_4 N 0.8037(10) 0.6717(3) 0.7556(3)
C7_4 C 0.3225(11) 0.6994(3) 0.7660(3)
C8_4 C 0.7029(11) 0.9509(3) 0.7468(3)
C10_4 C 0.0200(13) 0.8549(3) 0.8696(3)
C11_4 C 0.0905(12) 0.9283(3) 0.8558(3)
H3_4 H 0.108181 0.951878 0.835016
C12_4 C 0.0120(13) 0.8155(3) 0.3529(3)
H4_4 H 0.017286 0.792361 0.330971
C16_4 C 0.0853(12) 0.9052(3) 0.9315(3)
C20_4 C 0.0055(15) 0.8904(4) 0.3723(4)
H9_4 H 0.005832 0.921673 0.363917
C21_4 C 0.0386(14) 0.8628(3) 0.9146(3)
H10_4 H 0.018892 0.838426 0.934353
C22_5 C 0.0000(16) 0.8803(4) 0.4165(3)
C24_4 C 0.0062(13) 0.8027(3) 0.3962(3)
H13_4 H 0.008736 0.771102 0.403544
C28_4 C 0.1137(13) 0.9390(3) 0.8995(3)
H15_4 H 0.148831 0.969017 0.908582
C31_4 C 0.1082(14) 0.9161(4) 0.9786(3)
C32_4 C 0.1693(16) 0.9559(4) 0.9979(3)
H16_4 H 0.210146 0.980966 0.981527
C37_2 C 0.7032(11) 0.7945(3) 0.7742(3)
N2_4 N 0.8103(9) 0.8230(2) 0.7761(2)
N4_4 N 0.9986(11) 0.8537(3) 0.6959(3)
C9_4 C 0.9949(15) 0.8863(4) 0.6645(4)
H1_4 H 0.992138 0.917444 0.673389
H2_4 H 0.987970 0.825002 0.859579
C13_4 C 0.9948(16) 0.8764(4) 0.6190(4)
H5_4 H 0.999828 0.900519 0.598120
C14_4 C 0.9870(13) 0.8116(3) 0.6817(3)
H6_4 H 0.978662 0.788061 0.703027
C17_2 C 0.9966(13) 0.8347(4) 0.4294(3)
C18_4 C 0.9876(13) 0.8319(4) 0.6049(3)
C22_6 C 1.0000(16) 0.8803(4) 0.4165(3)
H11_2 H 0.998429 0.904084 0.437863
C23_4 C 0.9862(14) 0.7990(3) 0.6379(3)
H12_4 H 0.984533 0.767467 0.630113
C27_2 C 0.9895(14) 0.8206(3) 0.4756(3)
C29_4 C 0.9862(14) 0.8196(4) 0.5578(3)
C35_4 C 0.967(2) 0.7778(4) 0.5392(4)
H19_4 H 0.954664 0.750540 0.555832
C36_2 C 0.9673(19) 0.7787(4) 0.4927(4)
H20_2 H 0.953095 0.751926 0.474899
C17_3 C 0.9966(13) 0.6653(4) 0.9294(3)
C22_7 C 1.0000(16) 0.6197(4) 0.9165(3)
H11_3 H 0.998429 0.595916 0.937863
C27_3 C 0.9895(14) 0.6794(3) 0.9756(3)
C36_3 C 0.9673(19) 0.7213(4) 0.9927(4)
H20_3 H 0.953095 0.748074 0.974899
H7_3 H 0.030344 0.170860 0.823698
C17_4 C 0.0034(13) 0.3347(4) 0.0706(3)
C22_8 C 0.0000(16) 0.3803(4) 0.0835(3)
H11_4 H 0.001571 0.404084 0.062137
C27_4 C 0.0105(14) 0.3206(3) 0.0244(3)
C36_4 C 0.0327(19) 0.2787(4) 0.0073(4)
H20_4 H 0.046905 0.251926 0.025101
H7_4 H 0.969656 0.829140 0.176302
loop_
_geom_bond_atom_site_label_1
_geom_bond_atom_site_label_2
_geom_bond_site_symmetry_1
_geom_bond_site_symmetry_2
N14 Fe1 1_555 1_555
N16 Fe1 1_555 1_555
N17 Fe1 1_555 1_555
N18 Fe1 1_555 1_555
Pt1 C2 1_555 1_555
Pt2 C1 1_555 1_555
Fe8 N1 1_555 1_555
S1 C30 1_555 1_555
N1 C10 1_555 1_555
N3 Fe8 1_555 1_555
N5 C8 1_555 1_555
N6 Fe8 1_555 1_555
N7 C15 1_555 1_555
N8 C3 1_555 1_555
C1 N3 1_555 1_555
N17 C7 1_555 1_555
C2 N11 1_555 1_555
N11 Fe5 1_555 1_555
C3 Pt1 1_555 1_555
C4 Pt2 1_555 1_555
C6 Pt1 1_555 1_555
N12 C4 1_555 1_555
C7 Pt2 1_555 1_555
C8 Pt1 1_555 1_555
C11 N1 1_555 1_555
H3 C11 1_555 1_555
C16 C21 1_555 1_555
C19 N7 1_555 1_555
H8 C19 1_555 1_555
C21 C10 1_555 1_555
H10 C21 1_555 1_555
C25 C26 1_555 1_555
C26 C15 1_555 1_555
H14 C26 1_555 1_555
C28 C11 1_555 1_555
H15 C28 1_555 1_555
C30 C25 1_555 1_555
C31 S1 1_555 1_555
C32 C31 1_555 1_555
H16 C32 1_555 1_555
C33 C19 1_555 1_555
H17 C33 1_555 1_555
C34 C30 1_555 1_555
H18 C34 1_555 1_555
Fe7 N7 1_555 1_555
C37 Pt2 1_555 1_555
N6 C6 1_555 1_555
C16 C28 1_555 1_555
C16 C31 1_555 1_555
C25 C33 1_555 1_555
C32 C34 1_555 1_555
N9 C12 1_555 1_555
C12 H4 1_555 1_555
C20 N9 1_555 1_555
H9 C20 1_555 1_555
C22 C20 1_555 1_555
C24 C12 1_555 1_555
H13 C24 1_555 1_555
Fe7 N9 1_555 1_555
C37 N2 1_555 1_555
C9 N4 1_555 1_555
H1 C9 1_555 1_555
C13 C9 1_555 1_555
H5 C13 1_555 1_555
C14 N4 1_555 1_555
H6 C14 1_555 1_555
C18 C13 1_555 1_555
C23 C14 1_555 1_555
H12 C23 1_555 1_555
C35 C29 1_555 1_555
H19 C35 1_555 1_555
C18 C23 1_555 1_555
C18 C29 1_555 1_555
C5 N2_2 1_555 1_555
C9_2 N4_2 1_555 1_555
H1_2 C9_2 1_555 1_555
C13_2 C9_2 1_555 1_555
H5_2 C13_2 1_555 1_555
C14_2 N4_2 1_555 1_555
H6_2 C14_2 1_555 1_555
C17 C22_2 1_555 1_555
C18_2 C13_2 1_555 1_555
H11 C22_2 1_555 1_555
C23_2 C14_2 1_555 1_555
H12_2 C23_2 1_555 1_555
C27 C17 1_555 1_555
C35_2 C29_2 1_555 1_555
H19_2 C35_2 1_555 1_555
C36 C27 1_555 1_555
H20 C36 1_555 1_555
Pt3 C5 1_555 1_555
C18_2 C23_2 1_555 1_555
C18_2 C29_2 1_555 1_555
C35_2 C36 1_555 1_555
Pt3 C1_2 1_555 1_555
Fe2 N1_2 1_555 1_555
N1_2 C10_2 1_555 1_555
N3_2 Fe2 1_555 1_555
N13 C8_2 1_555 1_555
N6_2 Fe2 1_555 1_555
N9_2 C12_2 1_555 1_555
C1_2 N3_2 1_555 1_555
N10 C7_2 1_555 1_555
C4_2 Pt3 1_555 1_555
C6_2 Pt1_2 1_555 1_555
N12_2 C4_2 1_555 1_555
C7_2 Pt3 1_555 1_555
C8_2 Pt1_2 1_555 1_555
C11_2 N1_2 1_555 1_555
H3_2 C11_2 1_555 1_555
C12_2 H4_2 1_555 1_555
C16_2 C21_2 1_555 1_555
C20_2 N9_2 1_555 1_555
H9_2 C20_2 1_555 1_555
C21_2 C10_2 1_555 1_555
H10_2 C21_2 1_555 1_555
C22_3 C20_2 1_555 1_555
C24_2 C12_2 1_555 1_555
H13_2 C24_2 1_555 1_555
C28_2 C11_2 1_555 1_555
H15_2 C28_2 1_555 1_555
C32_2 C31_2 1_555 1_555
H16_2 C32_2 1_555 1_555
Fe5 N10 1_555 1_555
Fe6 N9_2 1_555 1_555
N6_2 C6_2 1_555 1_555
C16_2 C28_2 1_555 1_555
C16_2 C31_2 1_555 1_555
S1_2 C30_2 1_555 1_555
N7_2 C15_2 1_555 1_555
C19_2 N7_2 1_555 1_555
H8_2 C19_2 1_555 1_555
C25_2 C26_2 1_555 1_555
C26_2 C15_2 1_555 1_555
H14_2 C26_2 1_555 1_555
C30_2 C25_2 1_555 1_555
C33_2 C19_2 1_555 1_555
H17_2 C33_2 1_555 1_555
C34_2 C30_2 1_555 1_555
H18_2 C34_2 1_555 1_555
Fe6 N7_2 1_555 1_555
C25_2 C33_2 1_555 1_555
N15 C3_2 1_555 1_555
C2_2 N18 1_555 1_555
N14_2 Fe5 1_555 1_555
N16_2 Fe5 1_555 1_555
C5_2 N2_3 1_555 1_555
C9_3 N4_3 1_555 1_555
H1_3 C9_3 1_555 1_555
C13_3 C9_3 1_555 1_555
H5_3 C13_3 1_555 1_555
C14_3 N4_3 1_555 1_555
H6_3 C14_3 1_555 1_555
C18_3 C13_3 1_555 1_555
C23_3 C14_3 1_555 1_555
H12_3 C23_3 1_555 1_555
C35_3 C29_3 1_555 1_555
H19_3 C35_3 1_555 1_555
Pt3_2 C5_2 1_555 1_555
C18_3 C23_3 1_555 1_555
C18_3 C29_3 1_555 1_555
N16_2 C12_3 1_555 1_555
C12_3 H4_3 1_555 1_555
C20_3 N16_2 1_555 1_555
H9_3 C20_3 1_555 1_555
C22_4 C20_3 1_555 1_555
C24_3 C12_3 1_555 1_555
H13_3 C24_3 1_555 1_555
Pt1_3 C2_3 1_555 1_555
Pt3_2 C1_3 1_555 1_555
Fe2_2 N1_3 1_555 1_555
S1_3 C30_3 1_555 1_555
N1_3 C10_3 1_555 1_555
N3_3 Fe2_2 1_555 1_555
N13_2 C8_3 1_555 1_555
N6_3 Fe2_2 1_555 1_555
N14_2 C15_3 1_555 1_555
N8_2 C3_3 1_555 1_555
C1_3 N3_3 1_555 1_555
N10_2 C7_3 1_555 1_555
C2_3 N11_2 1_555 1_555
N11_2 Fe7 1_555 1_555
C3_3 Pt1_3 1_555 1_555
C4_3 Pt3_2 1_555 1_555
C6_3 Pt1_3 1_555 1_555
N12_3 C4_3 1_555 1_555
C7_3 Pt3_2 1_555 1_555
C8_3 Pt1_3 1_555 1_555
C11_3 N1_3 1_555 1_555
H3_3 C11_3 1_555 1_555
C16_3 C21_3 1_555 1_555
C19_3 N14_2 1_555 1_555
H8_3 C19_3 1_555 1_555
C21_3 C10_3 1_555 1_555
H10_3 C21_3 1_555 1_555
C25_3 C26_3 1_555 1_555
C26_3 C15_3 1_555 1_555
H14_3 C26_3 1_555 1_555
C28_3 C11_3 1_555 1_555
H15_3 C28_3 1_555 1_555
C30_3 C25_3 1_555 1_555
C31_3 S1_3 1_555 1_555
C32_3 C31_3 1_555 1_555
H16_3 C32_3 1_555 1_555
C33_3 C19_3 1_555 1_555
H17_3 C33_3 1_555 1_555
C34_3 C30_3 1_555 1_555
H18_3 C34_3 1_555 1_555
Fe6 N10_2 1_555 1_555
N6_3 C6_3 1_555 1_555
C16_3 C28_3 1_555 1_555
C16_3 C31_3 1_555 1_555
C25_3 C33_3 1_555 1_555
C32_3 C34_3 1_555 1_555
N18_2 Fe6 1_555 1_555
N17_2 Fe7 1_555 1_555
N15_2 C3_4 1_555 1_555
C2_4 N18_2 1_555 1_555
S1_4 C30_4 1_555 1_555
N14 C15_4 1_555 1_555
C19_4 N14 1_555 1_555
H8_4 C19_4 1_555 1_555
C25_4 C26_4 1_555 1_555
C26_4 C15_4 1_555 1_555
H14_4 C26_4 1_555 1_555
C30_4 C25_4 1_555 1_555
C33_4 C19_4 1_555 1_555
H17_4 C33_4 1_555 1_555
C34_4 C30_4 1_555 1_555
H18_4 C34_4 1_555 1_555
C25_4 C33_4 1_555 1_555
Pt2_2 C1_4 1_555 1_555
Fe8_2 N1_4 1_555 1_555
N1_4 C10_4 1_555 1_555
N3_4 Fe8_2 1_555 1_555
N5_2 C8_4 1_555 1_555
N6_4 Fe8_2 1_555 1_555
N16 C12_4 1_555 1_555
C1_4 N3_4 1_555 1_555
N17_2 C7_4 1_555 1_555
C4_4 Pt2_2 1_555 1_555
C6_4 Pt1_4 1_555 1_555
N12_4 C4_4 1_555 1_555
C7_4 Pt2_2 1_555 1_555
C8_4 Pt1_4 1_555 1_555
C11_4 N1_4 1_555 1_555
H3_4 C11_4 1_555 1_555
C12_4 H4_4 1_555 1_555
C16_4 C21_4 1_555 1_555
C20_4 N16 1_555 1_555
H9_4 C20_4 1_555 1_555
C21_4 C10_4 1_555 1_555
H10_4 C21_4 1_555 1_555
C22_5 C20_4 1_555 1_555
C24_4 C12_4 1_555 1_555
H13_4 C24_4 1_555 1_555
C28_4 C11_4 1_555 1_555
H15_4 C28_4 1_555 1_555
C32_4 C31_4 1_555 1_555
H16_4 C32_4 1_555 1_555
C37_2 Pt2_2 1_555 1_555
N6_4 C6_4 1_555 1_555
C16_4 C28_4 1_555 1_555
C16_4 C31_4 1_555 1_555
C37_2 N2_4 1_555 1_555
C9_4 N4_4 1_555 1_555
H1_4 C9_4 1_555 1_555
C13_4 C9_4 1_555 1_555
H5_4 C13_4 1_555 1_555
C14_4 N4_4 1_555 1_555
H6_4 C14_4 1_555 1_555
C17_2 C22_6 1_555 1_555
C18_4 C13_4 1_555 1_555
H11_2 C22_6 1_555 1_555
C23_4 C14_4 1_555 1_555
H12_4 C23_4 1_555 1_555
C27_2 C17_2 1_555 1_555
C35_4 C29_4 1_555 1_555
H19_4 C35_4 1_555 1_555
C36_2 C27_2 1_555 1_555
H20_2 C36_2 1_555 1_555
C18_4 C23_4 1_555 1_555
C18_4 C29_4 1_555 1_555
C35_4 C36_2 1_555 1_555
C17_3 C22_7 1_555 1_555
H11_3 C22_7 1_555 1_555
C27_3 C17_3 1_555 1_555
C36_3 C27_3 1_555 1_555
H20_3 C36_3 1_555 1_555
C17_4 C22_8 1_555 1_555
H11_4 C22_8 1_555 1_555
C27_4 C17_4 1_555 1_555
C36_4 C27_4 1_555 1_555
H20_4 C36_4 1_555 1_555

#END
