
###############################################################################
#
# This file contains modified crystal structure data generated from the
# MOF subset of the Cambridge Structural Database (CSD) v543 
# hosted by the Cambridge Crystallographic Data Centre (CCDC).
#
# This work is licensed under the Creative Commons
# Attribution-NonCommercial-ShareAlike 4.0 International License.
# To view a copy of this license, visit
# http://creativecommons.org/licenses/by-nc-sa/4.0/
# or send a letter to
# Creative Commons, PO Box 1866, Mountain View, CA 94042, USA.
#
# CIF created using the CSD Python API on 29 September 2022
# The structure has been converted into the P1 space group
# The structure has a 3D framework
# The original CSD entry OBOYIR is in the monoclinic crystal system
# The framework has been calculated to contain at least 10.0% void space
# The void calculation uses a probe of radius 1.32A, grid spacing 0.4
# The framework is charged, counterions have been retained in the structure
#
###############################################################################

data_OBOYIR
_chemical_formula_moiety         '(C96 H72 N8 O48 S12 Zn8 8-)n'
_symmetry_cell_setting           triclinic
_symmetry_space_group_name_H-M   'P 1'
_symmetry_Int_Tables_number      1
_space_group_name_Hall           'P 1'
loop_
_symmetry_equiv_pos_site_id
_symmetry_equiv_pos_as_xyz
1 x,y,z
_cell_length_a                   15.145(4)
_cell_length_b                   18.9828(13)
_cell_length_c                   18.331(6)
_cell_angle_alpha                90
_cell_angle_beta                 113.77(4)
_cell_angle_gamma                90
_cell_volume                     4823.01
loop_
_atom_site_label
_atom_site_type_symbol
_atom_site_fract_x
_atom_site_fract_y
_atom_site_fract_z
C15 C 0.0811(18) 0.3985(7) 0.0043(14)
H10 H 0.1276 0.4150 0.0555
C19 C 0.0566(15) 0.3169(7) 0.0113(12)
H12 H 0.0903 0.3010 0.0658
H15 H 0.2206 0.2729 0.0241
H18 H 0.2569 0.3766 0.0145
O14 O 0.183(2) 0.5580(10) 0.0402(11)
Zn2 Zn 0.14809(11) 0.51508(7) 0.93070(9)
N1 N 0.0863(8) 0.2748(4) 0.9584(6)
O2 O 0.0140(8) 0.5421(6) 0.8609(6)
N2 N 0.1197(8) 0.4075(4) 0.9452(6)
O3 O 0.0613(10) 0.6519(7) 0.8775(8)
C5 C 0.0482(17) 0.3794(9) 0.8722(11)
H2 H 0.0664 0.3910 0.8286
C11 C 0.0353(17) 0.2999(8) 0.8739(10)
H7 H 0.0622 0.2769 0.8401
H9 H 0.0229 0.4264 0.9901
C20 C 0.1798(16) 0.2894(9) 0.971(2)
H14 H 0.1957 0.2616 0.9337
C23 C 0.2062(14) 0.3617(8) 0.9646(14)
H17 H 0.2302 0.3655 0.9230
Zn3 Zn 0.05183(11) 0.16963(7) 0.96329(9)
O13 O 0.2061(8) 0.5027(5) 0.8540(6)
Zn1 Zn 0.44817(11) 0.66963(7) 0.53671(9)
S1 S 0.8165(3) 0.57186(17) 0.7375(2)
S2 S 0.3151(4) 0.5987(2) 0.7235(3)
O1 O 0.3888(8) 0.5208(5) 0.5592(7)
O4 O 0.5861(8) 0.6796(5) 0.5998(7)
O5 O 0.3845(8) 0.6305(5) 0.6001(6)
O6 O 0.6168(8) 0.5603(5) 0.6037(7)
C1 C 0.2722(14) 0.4736(9) 0.7337(10)
H1 H 0.2511 0.4322 0.7486
C2 C 0.3320(10) 0.5393(7) 0.6572(9)
C3 C 0.6398(11) 0.6231(8) 0.6280(8)
C4 C 0.9079(11) 0.6291(7) 0.7899(9)
H3 H 0.9868 0.4020 0.8617
C6 C 0.3097(15) 0.4770(8) 0.6752(12)
H4 H 0.3184 0.4366 0.6501
C7 C 0.8767(12) 0.7004(7) 0.7670(10)
H5 H 0.9171 0.7393 0.7850
C8 C 0.9987(12) 0.6053(8) 0.8475(10)
C9 C 0.7412(11) 0.6359(7) 0.6868(8)
C10 C 0.3716(10) 0.5624(7) 0.6001(9)
H6 H 0.9672 0.2883 0.8540
C12 C 0.2703(11) 0.5356(7) 0.7652(9)
C13 C 0.7779(13) 0.7051(7) 0.7140(10)
H8 H 0.7425 0.7466 0.6992
S3 S 0.2501(4) 0.6065(2) 0.2169(3)
O7 O 0.4401(8) 0.6261(6) 0.4383(6)
O8 O 0.2930(11) 0.6708(7) 0.3785(9)
C14 C 0.3529(11) 0.6047(7) 0.3033(8)
O10 O 0.2480(14) 0.6184(8) 0.8544(10)
O12 O 0.3193(15) 0.5061(9) 0.0527(9)
C16 C 0.2463(12) 0.5503(9) 0.8321(10)
C17 C 0.3607(13) 0.6367(8) 0.3770(9)
C18 C 0.4242(16) 0.5697(9) 0.2891(11)
H11 H 0.4839 0.5638 0.3314
H13 H 0.9879 0.3113 0.9965
C21 C 0.314(2) 0.5621(9) 0.1683(10)
C22 C 0.4120(19) 0.5430(11) 0.2153(11)
H16 H 0.4557 0.5191 0.2003
C24 C 0.256(4) 0.5457(14) 0.0759(13)
N3 N 0.4137(8) 0.7748(4) 0.5416(6)
S3_2 S 0.2499(4) 0.1065(2) 0.2831(3)
O7_2 O 0.0599(8) 0.1261(6) 0.0617(6)
O8_2 O 0.2070(11) 0.1708(7) 0.1215(9)
C14_2 C 0.1471(11) 0.1047(7) 0.1967(8)
O11 O 0.317(2) 0.0580(10) 0.4598(11)
O12_2 O 0.1807(15) 0.0061(9) 0.4473(9)
C17_2 C 0.1393(13) 0.1367(8) 0.1230(9)
C18_2 C 0.0758(16) 0.0697(9) 0.2109(11)
H11_2 H 0.0161 0.0638 0.1686
C21_2 C 0.186(2) 0.0621(9) 0.3317(10)
C22_2 C 0.0880(19) 0.0430(11) 0.2847(11)
H16_2 H 0.0443 0.0191 0.2997
C24_2 C 0.244(4) 0.0457(14) 0.4241(13)
Zn4 Zn 0.35191(11) 0.01508(7) 0.56930(9)
S2_2 S 0.1849(4) 0.0987(2) 0.7765(3)
O1_2 O 0.1112(8) 0.0208(5) 0.9408(7)
O5_2 O 0.1155(8) 0.1305(5) 0.8999(6)
C2_2 C 0.1680(10) 0.0393(7) 0.8428(9)
C10_2 C 0.1284(10) 0.0624(7) 0.8999(9)
C12_2 C 0.2297(11) 0.0356(7) 0.7348(9)
O9 O 0.2939(8) 0.0027(5) 0.6460(6)
O10_2 O 0.2520(14) 0.1184(8) 0.6456(10)
C16_2 C 0.2537(12) 0.0503(9) 0.6679(10)
S1_2 S 0.6835(3) 0.07186(17) 0.7625(2)
O2_2 O 0.4860(8) 0.0421(6) 0.6391(6)
O3_2 O 0.4387(10) 0.1519(7) 0.6225(8)
O4_2 O 0.9139(8) 0.1796(5) 0.9002(7)
O6_2 O 0.8832(8) 0.0603(5) 0.8963(7)
C3_2 C 0.8602(11) 0.1231(8) 0.8720(8)
C4_2 C 0.5921(11) 0.1291(7) 0.7101(9)
C7_2 C 0.6233(12) 0.2004(7) 0.7330(10)
H5_2 H 0.5829 0.2393 0.7150
C8_2 C 0.5013(12) 0.1053(8) 0.6525(10)
C9_2 C 0.7588(11) 0.1359(7) 0.8132(8)
C13_2 C 0.7221(13) 0.2051(7) 0.7860(10)
H8_2 H 0.7575 0.2466 0.8008
N2_2 N 0.3803(8) 0.9075(4) 0.5548(6)
C5_2 C 0.4518(17) 0.8794(9) 0.6278(11)
H2_2 H 0.4336 0.8910 0.6714
H3_2 H 0.5132 0.9020 0.6383
C11_2 C 0.4647(17) 0.7999(8) 0.6261(10)
H6_2 H 0.5328 0.7883 0.6460
H7_2 H 0.4378 0.7769 0.6599
C15_2 C 0.4189(18) 0.8985(7) 0.4957(14)
H9_2 H 0.4771 0.9264 0.5099
H10_2 H 0.3724 0.9150 0.4445
C19_2 C 0.4434(15) 0.8169(7) 0.4887(12)
H12_2 H 0.4097 0.8010 0.4342
H13_2 H 0.5121 0.8113 0.5035
C20_2 C 0.3202(16) 0.7894(9) 0.529(2)
H14_2 H 0.3043 0.7616 0.5663
H15_2 H 0.2794 0.7729 0.4759
C23_2 C 0.2938(14) 0.8617(8) 0.5354(14)
H17_2 H 0.2698 0.8655 0.5770
H18_2 H 0.2431 0.8766 0.4855
C1_2 C 0.2278(14) 0.9736(9) 0.7663(10)
H1_2 H 0.2489 0.9322 0.7514
C6_2 C 0.1903(15) 0.9770(8) 0.8248(12)
H4_2 H 0.1816 0.9366 0.8499
Zn4_2 Zn 0.85191(11) 0.48492(7) 0.06930(9)
Zn1_2 Zn 0.55183(11) 0.33037(7) 0.46329(9)
S1_3 S 0.1835(3) 0.42814(17) 0.2625(2)
S2_3 S 0.6849(4) 0.4013(2) 0.2765(3)
O1_3 O 0.6112(8) 0.4792(5) 0.4408(7)
O4_3 O 0.4139(8) 0.3204(5) 0.4002(7)
O5_3 O 0.6155(8) 0.3695(5) 0.3999(6)
O6_3 O 0.3832(8) 0.4397(5) 0.3963(7)
C1_3 C 0.7278(14) 0.5264(9) 0.2663(10)
H1_3 H 0.7489 0.5678 0.2514
C2_3 C 0.6680(10) 0.4607(7) 0.3428(9)
C3_3 C 0.3602(11) 0.3769(8) 0.3720(8)
C4_3 C 0.0921(11) 0.3709(7) 0.2101(9)
H3_3 H 0.0132 0.5980 0.1383
C6_3 C 0.6903(15) 0.5230(8) 0.3248(12)
H4_3 H 0.6816 0.5634 0.3499
C7_3 C 0.1233(12) 0.2996(7) 0.2330(10)
H5_3 H 0.0829 0.2607 0.2150
C8_3 C 0.0013(12) 0.3947(8) 0.1525(10)
C9_3 C 0.2588(11) 0.3641(7) 0.3132(8)
C10_3 C 0.6284(10) 0.4376(7) 0.3999(9)
H6_3 H 0.0328 0.7117 0.1460
C12_3 C 0.7297(11) 0.4644(7) 0.2348(9)
C13_3 C 0.2221(13) 0.2949(7) 0.2860(10)
H8_3 H 0.2575 0.2534 0.3008
S3_3 S 0.7499(4) 0.3935(2) 0.7831(3)
O7_3 O 0.5599(8) 0.3739(6) 0.5617(6)
O8_3 O 0.7070(11) 0.3292(7) 0.6215(9)
O9_2 O 0.7939(8) 0.4973(5) 0.1460(6)
C14_3 C 0.6471(11) 0.3953(7) 0.6967(8)
O10_3 O 0.7520(14) 0.3816(8) 0.1456(10)
O11_2 O 0.817(2) 0.4420(10) 0.9598(11)
O12_3 O 0.6807(15) 0.4939(9) 0.9473(9)
C16_3 C 0.7537(12) 0.4497(9) 0.1679(10)
C17_3 C 0.6393(13) 0.3633(8) 0.6230(9)
C18_3 C 0.5758(16) 0.4303(9) 0.7109(11)
H11_3 H 0.5161 0.4362 0.6686
H13_3 H 0.0121 0.6887 0.0035
C21_3 C 0.686(2) 0.4379(9) 0.8317(10)
C22_3 C 0.5880(19) 0.4570(11) 0.7847(11)
H16_3 H 0.5443 0.4809 0.7997
C24_3 C 0.744(4) 0.4543(14) 0.9241(13)
N3_2 N 0.5863(8) 0.2252(4) 0.4584(6)
N1_2 N 0.9137(8) 0.7252(4) 0.0416(6)
O2_3 O 0.9860(8) 0.4579(6) 0.1391(6)
N2_3 N 0.8803(8) 0.5925(4) 0.0548(6)
O3_3 O 0.9387(10) 0.3481(7) 0.1225(8)
C5_3 C 0.9518(17) 0.6206(9) 0.1278(11)
H2_3 H 0.9336 0.6090 0.1714
C11_3 C 0.9647(17) 0.7001(8) 0.1261(10)
H7_3 H 0.9378 0.7231 0.1599
H9_3 H 0.9771 0.5736 0.0099
C20_3 C 0.8202(16) 0.7106(9) 0.029(2)
H14_3 H 0.8043 0.7384 0.0663
C23_3 C 0.7938(14) 0.6383(8) 0.0354(14)
H17_3 H 0.7698 0.6345 0.0770
Zn3_2 Zn 0.94817(11) 0.83037(7) 0.03671(9)
C15_3 C 0.9189(18) 0.6015(7) 0.9957(14)
H10_3 H 0.8724 0.5850 0.9445
C19_3 C 0.9434(15) 0.6831(7) 0.9887(12)
H12_3 H 0.9097 0.6990 0.9342
H15_3 H 0.7794 0.7271 0.9759
H18_3 H 0.7431 0.6234 0.9855
N2_4 N 0.6197(8) 0.0925(4) 0.4452(6)
C5_4 C 0.5482(17) 0.1206(9) 0.3722(11)
H2_4 H 0.5664 0.1090 0.3286
H3_4 H 0.4868 0.0980 0.3617
C11_4 C 0.5353(17) 0.2001(8) 0.3739(10)
H6_4 H 0.4672 0.2117 0.3540
H7_4 H 0.5622 0.2231 0.3401
C15_4 C 0.5811(18) 0.1015(7) 0.5043(14)
H9_4 H 0.5229 0.0736 0.4901
H10_4 H 0.6276 0.0850 0.5555
C19_4 C 0.5566(15) 0.1831(7) 0.5113(12)
H12_4 H 0.5903 0.1990 0.5658
H13_4 H 0.4879 0.1887 0.4965
C20_4 C 0.6798(16) 0.2106(9) 0.471(2)
H14_4 H 0.6957 0.2384 0.4337
H15_4 H 0.7206 0.2271 0.5241
C23_4 C 0.7062(14) 0.1383(8) 0.4646(14)
H17_4 H 0.7302 0.1345 0.4230
H18_4 H 0.7569 0.1234 0.5145
Zn2_2 Zn 0.64809(11) 0.98492(7) 0.43070(9)
S1_4 S 0.3165(3) 0.92814(17) 0.2375(2)
O2_4 O 0.5140(8) 0.9579(6) 0.3609(6)
O3_4 O 0.5613(10) 0.8481(7) 0.3775(8)
O4_4 O 0.0861(8) 0.8204(5) 0.0998(7)
O6_4 O 0.1168(8) 0.9397(5) 0.1037(7)
C3_4 C 0.1398(11) 0.8769(8) 0.1280(8)
C4_4 C 0.4079(11) 0.8709(7) 0.2899(9)
C7_4 C 0.3767(12) 0.7996(7) 0.2670(10)
H5_4 H 0.4171 0.7607 0.2850
C8_4 C 0.4987(12) 0.8947(8) 0.3475(10)
C9_4 C 0.2412(11) 0.8641(7) 0.1868(8)
C13_4 C 0.2779(13) 0.7949(7) 0.2140(10)
H8_4 H 0.2425 0.7534 0.1992
O13_2 O 0.7061(8) 0.9973(5) 0.3540(6)
O14_2 O 0.683(2) 0.9420(10) 0.5402(11)
S2_4 S 0.8151(4) 0.9013(2) 0.2235(3)
O1_4 O 0.8888(8) 0.9792(5) 0.0592(7)
O5_4 O 0.8845(8) 0.8695(5) 0.1001(6)
C2_4 C 0.8320(10) 0.9607(7) 0.1572(9)
C10_4 C 0.8716(10) 0.9376(7) 0.1001(9)
C12_4 C 0.7703(11) 0.9644(7) 0.2652(9)
O10_4 O 0.7480(14) 0.8816(8) 0.3544(10)
C16_4 C 0.7463(12) 0.9497(9) 0.3321(10)
S3_4 S 0.7501(4) 0.8935(2) 0.7169(3)
O7_4 O 0.9401(8) 0.8739(6) 0.9383(6)
O8_4 O 0.7930(11) 0.8292(7) 0.8785(9)
C14_4 C 0.8529(11) 0.8953(7) 0.8033(8)
O12_4 O 0.8193(15) 0.9939(9) 0.5527(9)
C17_4 C 0.8607(13) 0.8633(8) 0.8770(9)
C18_4 C 0.9242(16) 0.9303(9) 0.7891(11)
H11_4 H 0.9839 0.9362 0.8314
C21_4 C 0.814(2) 0.9379(9) 0.6683(10)
C22_4 C 0.9120(19) 0.9570(11) 0.7153(11)
H16_4 H 0.9557 0.9809 0.7003
C24_4 C 0.756(4) 0.9543(14) 0.5759(13)
C1_4 C 0.7722(14) 0.0264(9) 0.2337(10)
H1_4 H 0.7511 0.0678 0.2486
C6_4 C 0.8097(15) 0.0230(8) 0.1752(12)
H4_4 H 0.8184 0.0634 0.1501
loop_
_geom_bond_atom_site_label_1
_geom_bond_atom_site_label_2
_geom_bond_site_symmetry_1
_geom_bond_site_symmetry_2
H10 C15 1_555 1_555
H12 C19 1_555 1_555
C15 C19 1_555 1_555
Zn2 O2 1_555 1_555
N1 C11 1_555 1_555
N2 Zn2 1_555 1_555
C5 N2 1_555 1_555
H2 C5 1_555 1_555
C11 C5 1_555 1_555
H7 C11 1_555 1_555
C20 N1 1_555 1_555
H14 C20 1_555 1_555
C23 N2 1_555 1_555
H17 C23 1_555 1_555
Zn3 N1 1_555 1_555
O13 Zn2 1_555 1_555
C20 C23 1_555 1_555
Zn1 O4 1_555 1_555
S1 C4 1_555 1_555
S2 C2 1_555 1_555
O1 C10 1_555 1_555
O4 C3 1_555 1_555
O5 Zn1 1_555 1_555
O6 C3 1_555 1_555
C1 H1 1_555 1_555
C2 C6 1_555 1_555
C3 C9 1_555 1_555
C4 C7 1_555 1_555
C6 C1 1_555 1_555
H4 C6 1_555 1_555
C7 H5 1_555 1_555
C8 C4 1_555 1_555
C9 S1 1_555 1_555
C10 O5 1_555 1_555
C12 S2 1_555 1_555
C13 C7 1_555 1_555
H8 C13 1_555 1_555
S3 C14 1_555 1_555
O7 Zn1 1_555 1_555
O8 C17 1_555 1_555
O13 C16 1_555 1_555
C14 C17 1_555 1_555
O10 C16 1_555 1_555
O14 C24 1_555 1_555
O12 C24 1_555 1_555
C16 C12 1_555 1_555
C17 O7 1_555 1_555
C18 C14 1_555 1_555
H11 C18 1_555 1_555
C21 S3 1_555 1_555
C22 C18 1_555 1_555
H16 C22 1_555 1_555
C24 C21 1_555 1_555
N3 Zn1 1_555 1_555
C1 C12 1_555 1_555
C2 C10 1_555 1_555
C9 C13 1_555 1_555
C21 C22 1_555 1_555
S3_2 C14_2 1_555 1_555
O8_2 C17_2 1_555 1_555
C14_2 C17_2 1_555 1_555
O11 C24_2 1_555 1_555
O12_2 C24_2 1_555 1_555
C17_2 O7_2 1_555 1_555
C18_2 C14_2 1_555 1_555
H11_2 C18_2 1_555 1_555
C21_2 S3_2 1_555 1_555
C22_2 C18_2 1_555 1_555
H16_2 C22_2 1_555 1_555
C24_2 C21_2 1_555 1_555
Zn4 O11 1_555 1_555
C21_2 C22_2 1_555 1_555
S2_2 C2_2 1_555 1_555
O1_2 C10_2 1_555 1_555
O5_2 Zn3 1_555 1_555
C10_2 O5_2 1_555 1_555
C12_2 S2_2 1_555 1_555
O9 C16_2 1_555 1_555
O10_2 C16_2 1_555 1_555
C16_2 C12_2 1_555 1_555
Zn4 O9 1_555 1_555
C2_2 C10_2 1_555 1_555
Zn4 O2_2 1_555 1_555
S1_2 C4_2 1_555 1_555
O2_2 C8_2 1_555 1_555
O3_2 C8_2 1_555 1_555
O4_2 C3_2 1_555 1_555
O6_2 C3_2 1_555 1_555
C3_2 C9_2 1_555 1_555
C4_2 C7_2 1_555 1_555
C7_2 H5_2 1_555 1_555
C8_2 C4_2 1_555 1_555
C9_2 S1_2 1_555 1_555
C13_2 C7_2 1_555 1_555
H8_2 C13_2 1_555 1_555
C9_2 C13_2 1_555 1_555
N3 C11_2 1_555 1_555
C5_2 N2_2 1_555 1_555
H2_2 C5_2 1_555 1_555
H3_2 C5_2 1_555 1_555
C11_2 C5_2 1_555 1_555
H6_2 C11_2 1_555 1_555
H7_2 C11_2 1_555 1_555
C15_2 N2_2 1_555 1_555
H9_2 C15_2 1_555 1_555
H10_2 C15_2 1_555 1_555
C19_2 N3 1_555 1_555
H12_2 C19_2 1_555 1_555
H13_2 C19_2 1_555 1_555
C20_2 N3 1_555 1_555
H14_2 C20_2 1_555 1_555
H15_2 C20_2 1_555 1_555
C23_2 N2_2 1_555 1_555
H17_2 C23_2 1_555 1_555
H18_2 C23_2 1_555 1_555
C15_2 C19_2 1_555 1_555
C20_2 C23_2 1_555 1_555
C1_2 H1_2 1_555 1_555
C6_2 C1_2 1_555 1_555
H4_2 C6_2 1_555 1_555
Zn1_2 O4_3 1_555 1_555
S1_3 C4_3 1_555 1_555
S2_3 C2_3 1_555 1_555
O1_3 C10_3 1_555 1_555
O4_3 C3_3 1_555 1_555
O5_3 Zn1_2 1_555 1_555
O6_3 C3_3 1_555 1_555
C1_3 H1_3 1_555 1_555
C2_3 C6_3 1_555 1_555
C3_3 C9_3 1_555 1_555
C4_3 C7_3 1_555 1_555
C6_3 C1_3 1_555 1_555
H4_3 C6_3 1_555 1_555
C7_3 H5_3 1_555 1_555
C8_3 C4_3 1_555 1_555
C9_3 S1_3 1_555 1_555
C10_3 O5_3 1_555 1_555
C12_3 S2_3 1_555 1_555
C13_3 C7_3 1_555 1_555
H8_3 C13_3 1_555 1_555
S3_3 C14_3 1_555 1_555
O7_3 Zn1_2 1_555 1_555
O8_3 C17_3 1_555 1_555
O9_2 C16_3 1_555 1_555
C14_3 C17_3 1_555 1_555
O10_3 C16_3 1_555 1_555
O11_2 C24_3 1_555 1_555
O12_3 C24_3 1_555 1_555
C16_3 C12_3 1_555 1_555
C17_3 O7_3 1_555 1_555
C18_3 C14_3 1_555 1_555
H11_3 C18_3 1_555 1_555
C21_3 S3_3 1_555 1_555
C22_3 C18_3 1_555 1_555
H16_3 C22_3 1_555 1_555
C24_3 C21_3 1_555 1_555
Zn4_2 O9_2 1_555 1_555
N3_2 Zn1_2 1_555 1_555
C1_3 C12_3 1_555 1_555
C2_3 C10_3 1_555 1_555
C9_3 C13_3 1_555 1_555
C21_3 C22_3 1_555 1_555
Zn4_2 O2_3 1_555 1_555
N1_2 C11_3 1_555 1_555
N2_3 Zn4_2 1_555 1_555
C5_3 N2_3 1_555 1_555
H2_3 C5_3 1_555 1_555
C11_3 C5_3 1_555 1_555
H7_3 C11_3 1_555 1_555
C20_3 N1_2 1_555 1_555
H14_3 C20_3 1_555 1_555
C23_3 N2_3 1_555 1_555
H17_3 C23_3 1_555 1_555
Zn3_2 N1_2 1_555 1_555
C20_3 C23_3 1_555 1_555
H10_3 C15_3 1_555 1_555
H12_3 C19_3 1_555 1_555
C15_3 C19_3 1_555 1_555
N3_2 C11_4 1_555 1_555
C5_4 N2_4 1_555 1_555
H2_4 C5_4 1_555 1_555
H3_4 C5_4 1_555 1_555
C11_4 C5_4 1_555 1_555
H6_4 C11_4 1_555 1_555
H7_4 C11_4 1_555 1_555
C15_4 N2_4 1_555 1_555
H9_4 C15_4 1_555 1_555
H10_4 C15_4 1_555 1_555
C19_4 N3_2 1_555 1_555
H12_4 C19_4 1_555 1_555
H13_4 C19_4 1_555 1_555
C20_4 N3_2 1_555 1_555
H14_4 C20_4 1_555 1_555
H15_4 C20_4 1_555 1_555
C23_4 N2_4 1_555 1_555
H17_4 C23_4 1_555 1_555
H18_4 C23_4 1_555 1_555
C15_4 C19_4 1_555 1_555
C20_4 C23_4 1_555 1_555
Zn2_2 O2_4 1_555 1_555
S1_4 C4_4 1_555 1_555
O2_4 C8_4 1_555 1_555
O3_4 C8_4 1_555 1_555
O4_4 C3_4 1_555 1_555
O6_4 C3_4 1_555 1_555
C3_4 C9_4 1_555 1_555
C4_4 C7_4 1_555 1_555
C7_4 H5_4 1_555 1_555
C8_4 C4_4 1_555 1_555
C9_4 S1_4 1_555 1_555
C13_4 C7_4 1_555 1_555
H8_4 C13_4 1_555 1_555
O13_2 Zn2_2 1_555 1_555
O14_2 Zn2_2 1_555 1_555
C9_4 C13_4 1_555 1_555
S2_4 C2_4 1_555 1_555
O1_4 C10_4 1_555 1_555
O5_4 Zn3_2 1_555 1_555
C10_4 O5_4 1_555 1_555
C12_4 S2_4 1_555 1_555
O13_2 C16_4 1_555 1_555
O10_4 C16_4 1_555 1_555
C16_4 C12_4 1_555 1_555
C2_4 C10_4 1_555 1_555
S3_4 C14_4 1_555 1_555
O8_4 C17_4 1_555 1_555
C14_4 C17_4 1_555 1_555
O14_2 C24_4 1_555 1_555
O12_4 C24_4 1_555 1_555
C17_4 O7_4 1_555 1_555
C18_4 C14_4 1_555 1_555
H11_4 C18_4 1_555 1_555
C21_4 S3_4 1_555 1_555
C22_4 C18_4 1_555 1_555
H16_4 C22_4 1_555 1_555
C24_4 C21_4 1_555 1_555
C21_4 C22_4 1_555 1_555
C1_4 H1_4 1_555 1_555
C6_4 C1_4 1_555 1_555
H4_4 C6_4 1_555 1_555

#END
