
###############################################################################
#
# This file contains modified crystal structure data generated from the
# MOF subset of the Cambridge Structural Database (CSD) v543 
# hosted by the Cambridge Crystallographic Data Centre (CCDC).
#
# This work is licensed under the Creative Commons
# Attribution-NonCommercial-ShareAlike 4.0 International License.
# To view a copy of this license, visit
# http://creativecommons.org/licenses/by-nc-sa/4.0/
# or send a letter to
# Creative Commons, PO Box 1866, Mountain View, CA 94042, USA.
#
# CIF created using the CSD Python API on 29 September 2022
# The structure has been converted into the P1 space group
# The structure has a 3D framework
# The original CSD entry OBOZOY is in the monoclinic crystal system
# The framework has been calculated to contain at least 10.0% void space
# The void calculation uses a probe of radius 1.32A, grid spacing 0.4
#
###############################################################################

data_OBOZOY
_chemical_formula_moiety         '(C108 H72 Co4 N24 O16)n'
_symmetry_cell_setting           triclinic
_symmetry_space_group_name_H-M   'P 1'
_symmetry_Int_Tables_number      1
_space_group_name_Hall           'P 1'
loop_
_symmetry_equiv_pos_site_id
_symmetry_equiv_pos_as_xyz
1 x,y,z
_cell_length_a                   10.462(5)
_cell_length_b                   24.422(5)
_cell_length_c                   13.234(5)
_cell_angle_alpha                90
_cell_angle_beta                 112.374(5)
_cell_angle_gamma                90
_cell_volume                     3126.78
loop_
_atom_site_label
_atom_site_type_symbol
_atom_site_fract_x
_atom_site_fract_y
_atom_site_fract_z
Co1 Co 0.20916(5) 0.347102(19) 0.28023(3)
C7 C 0.1660(4) 0.37304(16) 0.0414(3)
H4 H 0.0779 0.386 0.03
C8 C 0.3672(5) 0.33942(18) 0.1161(3)
H5 H 0.4469 0.3247 0.1685
C9 C 0.3486(5) 0.34812(19) 0.0108(3)
N1 N 0.2542(3) 0.35499(12) 0.1351(2)
O1 O 0.0249(3) 0.31405(14) 0.1896(2)
N7 N 0.1643(4) 0.33269(12) 0.4254(2)
N8 N 0.1971(3) 0.43215(12) 0.3030(2)
O5 O 0.4293(3) 0.34727(11) 0.3808(2)
O6 O 0.3255(3) 0.26888(10) 0.32250(19)
C1 C 0.0571(4) 0.42890(15) 0.8272(3)
H1 H 0.0448 0.4488 0.8826
C2 C 0.1490(4) 0.38543(15) 0.8513(3)
C3 C 0.1707(5) 0.35621(15) 0.7704(3)
H2 H 0.2319 0.3268 0.7879
C4 C 0.0999(4) 0.37131(15) 0.6622(3)
C5 C 0.0056(5) 0.41416(15) 0.6352(3)
H6 H 0.4107 0.3405 0.9777
C10 C 0.1394(5) 0.36822(16) 0.4893(3)
H7 H 0.1329 0.4058 0.4769
C11 C 0.1639(5) 0.28260(16) 0.4737(3)
H8 H 0.1779 0.2491 0.4461
C12 C 0.1405(5) 0.28899(16) 0.5663(3)
H9 H 0.1364 0.2616 0.6137
N2 N 0.2198(3) 0.37045(13) 0.9628(2)
N4 N 0.1240(4) 0.34367(12) 0.5762(2)
C10_2 C 0.8606(5) 0.86822(16) 0.0107(3)
H7_2 H 0.8671 0.9058 0.0231
C11_2 C 0.8361(5) 0.78260(16) 0.0263(3)
H8_2 H 0.8221 0.7491 0.0539
N3 N 0.8357(4) 0.83269(12) 0.0746(2)
Co2 Co 0.79084(5) 0.847102(19) 0.21977(3)
C1_2 C 0.9429(4) 0.92890(15) 0.6728(3)
H1_2 H 0.9552 0.9488 0.6174
C2_2 C 0.8510(4) 0.88543(15) 0.6487(3)
C3_2 C 0.8293(5) 0.85621(15) 0.7296(3)
H2_2 H 0.7681 0.8268 0.7121
C4_2 C 0.9001(4) 0.87131(15) 0.8378(3)
C5_2 C 0.9944(5) 0.91416(15) 0.8648(3)
C7_2 C 0.8340(4) 0.87304(16) 0.4586(3)
H4_2 H 0.9221 0.886 0.47
C8_2 C 0.6328(5) 0.83942(18) 0.3839(3)
H5_2 H 0.5531 0.8247 0.3315
C9_2 C 0.6514(5) 0.84812(19) 0.4892(3)
H6_2 H 0.5893 0.8405 0.5223
C12_2 C 0.8595(5) 0.78899(16) 0.9337(3)
H9_2 H 0.8636 0.7616 0.8863
N1_2 N 0.7458(3) 0.85499(12) 0.3649(2)
N2_2 N 0.7802(3) 0.87045(13) 0.5372(2)
N4_2 N 0.8760(4) 0.84367(12) 0.9238(2)
O1_2 O 0.9751(3) 0.81405(14) 0.3104(2)
N8_2 N 0.8029(3) 0.93215(12) 0.1970(2)
O5_2 O 0.5707(3) 0.84727(11) 0.1192(2)
O6_2 O 0.6745(3) 0.76888(10) 0.17750(19)
H3 H 0.0421 0.576 0.4375
C6 C 0.0159(5) 0.55804(15) 0.2815(3)
C13 C 0.0899(4) 0.46412(14) 0.2603(3)
H10 H 0.0082 0.4537 0.204
C14 C 0.2928(5) 0.46228(16) 0.3830(3)
H11 H 0.3802 0.4501 0.428
C15 C 0.2414(5) 0.51252(17) 0.3868(4)
H12 H 0.286 0.5407 0.4343
C17 C 0.5692(4) 0.79565(16) 0.1185(3)
C18 C 0.4433(4) 0.76532(15) 0.0488(3)
C19 C 0.4152(4) 0.71705(16) 0.0884(3)
H13 H 0.4739 0.7049 0.157
C20 C 0.3002(4) 0.68575(18) 0.0278(3)
H14 H 0.2844 0.6527 0.0561
N6 N 0.1119(4) 0.51408(12) 0.3076(2)
H3_2 H 0.9579 0.076 0.0625
C6_2 C 0.9841(5) 0.05804(15) 0.2185(3)
C15_2 C 0.7586(5) 0.01252(17) 0.1132(4)
H12_2 H 0.714 0.0407 0.0657
C16 C 0.9141(5) 0.1652(2) 0.6288(4)
C17_2 C 0.4308(4) 0.29565(16) 0.3815(3)
C18_2 C 0.5567(4) 0.26532(15) 0.4512(3)
C19_2 C 0.5848(4) 0.21705(16) 0.4116(3)
H13_2 H 0.5261 0.2049 0.343
C20_2 C 0.6998(4) 0.18575(18) 0.4722(3)
H14_2 H 0.7156 0.1527 0.4439
C21 C 0.7900(4) 0.20255(18) 0.5725(3)
C22 C 0.7659(4) 0.25227(17) 0.6180(3)
C23 C 0.6456(4) 0.28420(16) 0.5574(3)
C24 C 0.6186(5) 0.33198(17) 0.6063(3)
H15 H 0.5413 0.3531 0.5679
C25 C 0.7033(6) 0.34764(19) 0.7083(4)
H16 H 0.6833 0.3791 0.7392
C26 C 0.8205(5) 0.3167(2) 0.7670(4)
H17 H 0.8782 0.3279 0.8367
C27 C 0.8509(5) 0.2713(2) 0.7245(3)
H18 H 0.9296 0.2515 0.7654
N6_2 N 0.8881(4) 0.01408(12) 0.1924(2)
O2 O 0.8997(4) 0.11601(16) 0.6045(4)
C13_2 C 0.9101(4) 0.96412(14) 0.2397(3)
H10_2 H 0.9918 0.9537 0.296
C14_2 C 0.7072(5) 0.96228(16) 0.1170(3)
H11_2 H 0.6198 0.9501 0.072
C16_2 C 0.9141(5) 0.3348(2) 0.1288(4)
C21_2 C 0.7900(4) 0.29745(18) 0.0725(3)
C22_2 C 0.7659(4) 0.24773(17) 0.1180(3)
C23_2 C 0.6456(4) 0.21580(16) 0.0574(3)
C24_2 C 0.6186(5) 0.16802(17) 0.1063(3)
H15_2 H 0.5413 0.1469 0.0679
C25_2 C 0.7033(6) 0.15236(19) 0.2083(4)
H16_2 H 0.6833 0.1209 0.2392
C26_2 C 0.8205(5) 0.1833(2) 0.2670(4)
H17_2 H 0.8782 0.1721 0.3367
C27_2 C 0.8509(5) 0.2287(2) 0.2245(3)
H18_2 H 0.9296 0.2485 0.2654
O2_2 O 0.8997(4) 0.38399(16) 0.1045(4)
H3_3 H 0.9579 0.424 0.5625
C6_3 C 0.9841(5) 0.44196(15) 0.7185(3)
C13_3 C 0.9101(4) 0.53588(14) 0.7397(3)
H10_3 H 0.9918 0.5463 0.796
C14_3 C 0.7072(5) 0.53772(16) 0.6170(3)
H11_3 H 0.6198 0.5499 0.572
C15_3 C 0.7586(5) 0.48748(17) 0.6132(4)
H12_3 H 0.714 0.4593 0.5657
C17_3 C 0.4308(4) 0.20435(16) 0.8815(3)
C18_3 C 0.5567(4) 0.23468(15) 0.9512(3)
C19_3 C 0.5848(4) 0.28295(16) 0.9116(3)
H13_3 H 0.5261 0.2951 0.843
C20_3 C 0.6998(4) 0.31425(18) 0.9722(3)
H14_3 H 0.7156 0.3473 0.9439
N5 N 0.8029(3) 0.56785(12) 0.6970(2)
N6_3 N 0.8881(4) 0.48592(12) 0.6924(2)
O3 O 0.4293(3) 0.15273(11) 0.8808(2)
O4 O 0.3255(3) 0.23112(10) 0.82250(19)
Co3 Co 0.79084(5) 0.652898(19) 0.71977(3)
Co4 Co 0.20916(5) 0.152898(19) 0.78023(3)
C13_4 C 0.0899(4) 0.03588(14) 0.7603(3)
H10_4 H 0.0082 0.0463 0.704
C14_4 C 0.2928(5) 0.03772(16) 0.8830(3)
H11_4 H 0.3802 0.0499 0.928
N5_2 N 0.1971(3) 0.06785(12) 0.8030(2)
H3_4 H 0.0421 0.924 0.9375
C6_4 C 0.0159(5) 0.94196(15) 0.7815(3)
C15_4 C 0.2414(5) 0.98748(17) 0.8868(4)
H12_4 H 0.286 0.9593 0.9343
C16_3 C 0.0859(5) 0.8348(2) 0.3712(4)
C17_4 C 0.5692(4) 0.70435(16) 0.6185(3)
C18_4 C 0.4433(4) 0.73468(15) 0.5488(3)
C19_4 C 0.4152(4) 0.78295(16) 0.5884(3)
H13_4 H 0.4739 0.7951 0.657
C20_4 C 0.3002(4) 0.81425(18) 0.5278(3)
H14_4 H 0.2844 0.8473 0.5561
C21_3 C 0.2100(4) 0.79745(18) 0.4275(3)
C22_3 C 0.2341(4) 0.74773(17) 0.3820(3)
C23_3 C 0.3544(4) 0.71580(16) 0.4426(3)
C24_3 C 0.3814(5) 0.66802(17) 0.3937(3)
H15_3 H 0.4587 0.6469 0.4321
C25_3 C 0.2967(6) 0.65236(19) 0.2917(4)
H16_3 H 0.3167 0.6209 0.2608
C26_3 C 0.1795(5) 0.6833(2) 0.2330(4)
H17_3 H 0.1218 0.6721 0.1633
C27_3 C 0.1491(5) 0.7287(2) 0.2755(3)
H18_3 H 0.0704 0.7485 0.2346
N6_4 N 0.1119(4) 0.98592(12) 0.8076(2)
O2_3 O 0.1003(4) 0.88399(16) 0.3955(4)
O3_2 O 0.5707(3) 0.65273(11) 0.6192(2)
O4_2 O 0.6745(3) 0.73112(10) 0.67750(19)
C1_3 C 0.9429(4) 0.57110(15) 0.1728(3)
H1_3 H 0.9552 0.5512 0.1174
C2_3 C 0.8510(4) 0.61457(15) 0.1487(3)
C3_3 C 0.8293(5) 0.64379(15) 0.2296(3)
H2_3 H 0.7681 0.6732 0.2121
C4_3 C 0.9001(4) 0.62869(15) 0.3378(3)
C5_3 C 0.9944(5) 0.58584(15) 0.3648(3)
H6_3 H 0.5893 0.6595 0.0223
C10_3 C 0.8606(5) 0.63178(16) 0.5107(3)
H7_3 H 0.8671 0.5942 0.5231
C11_3 C 0.8361(5) 0.71740(16) 0.5263(3)
H8_3 H 0.8221 0.7509 0.5539
C12_3 C 0.8595(5) 0.71101(16) 0.4337(3)
H9_3 H 0.8636 0.7384 0.3863
N2_3 N 0.7802(3) 0.62955(13) 0.0372(2)
N3_2 N 0.8357(4) 0.66731(12) 0.5746(2)
N4_3 N 0.8760(4) 0.65633(12) 0.4238(2)
C7_3 C 0.8340(4) 0.62696(16) 0.9586(3)
H4_3 H 0.9221 0.614 0.97
C8_3 C 0.6328(5) 0.66058(18) 0.8839(3)
H5_3 H 0.5531 0.6753 0.8315
C9_3 C 0.6514(5) 0.65188(19) 0.9892(3)
N1_3 N 0.7458(3) 0.64501(12) 0.8649(2)
O1_3 O 0.9751(3) 0.68595(14) 0.8104(2)
C1_4 C 0.0571(4) 0.07110(15) 0.3272(3)
H1_4 H 0.0448 0.0512 0.3826
C2_4 C 0.1490(4) 0.11457(15) 0.3513(3)
C3_4 C 0.1707(5) 0.14379(15) 0.2704(3)
H2_4 H 0.2319 0.1732 0.2879
C4_4 C 0.0999(4) 0.12869(15) 0.1622(3)
C5_4 C 0.0056(5) 0.08584(15) 0.1352(3)
C7_4 C 0.1660(4) 0.12696(16) 0.5414(3)
H4_4 H 0.0779 0.114 0.53
C8_4 C 0.3672(5) 0.16058(18) 0.6161(3)
H5_4 H 0.4469 0.1753 0.6685
C9_4 C 0.3486(5) 0.15188(19) 0.5108(3)
H6_4 H 0.4107 0.1595 0.4777
C12_4 C 0.1405(5) 0.21101(16) 0.0663(3)
H9_4 H 0.1364 0.2384 0.1137
N1_4 N 0.2542(3) 0.14501(12) 0.6351(2)
N2_4 N 0.2198(3) 0.12955(13) 0.4628(2)
N4_4 N 0.1240(4) 0.15633(12) 0.0762(2)
O1_4 O 0.0249(3) 0.18595(14) 0.6896(2)
N7_2 N 0.1643(4) 0.16731(12) 0.9254(2)
C10_4 C 0.1394(5) 0.13178(16) 0.9893(3)
H7_4 H 0.1329 0.0942 0.9769
C11_4 C 0.1639(5) 0.21740(16) 0.9737(3)
H8_4 H 0.1779 0.2509 0.9461
C16_4 C 0.0859(5) 0.6652(2) 0.8712(4)
C21_4 C 0.2100(4) 0.70255(18) 0.9275(3)
C22_4 C 0.2341(4) 0.75227(17) 0.8820(3)
C23_4 C 0.3544(4) 0.78420(16) 0.9426(3)
C24_4 C 0.3814(5) 0.83198(17) 0.8937(3)
H15_4 H 0.4587 0.8531 0.9321
C25_4 C 0.2967(6) 0.84764(19) 0.7917(4)
H16_4 H 0.3167 0.8791 0.7608
C26_4 C 0.1795(5) 0.8167(2) 0.7330(4)
H17_4 H 0.1218 0.8279 0.6633
C27_4 C 0.1491(5) 0.7713(2) 0.7755(3)
H18_4 H 0.0704 0.7515 0.7346
O2_4 O 0.1003(4) 0.61601(16) 0.8955(4)
loop_
_geom_bond_atom_site_label_1
_geom_bond_atom_site_label_2
_geom_bond_site_symmetry_1
_geom_bond_site_symmetry_2
Co1 N1 1_555 1_555
C7 H4 1_555 1_555
C8 H5 1_555 1_555
C9 C8 1_555 1_555
N1 C7 1_555 1_555
O1 Co1 1_555 1_555
N7 Co1 1_555 1_555
N8 Co1 1_555 1_555
O5 Co1 1_555 1_555
O6 Co1 1_555 1_555
C8 N1 1_555 1_555
C1 H1 1_555 1_555
C2 C1 1_555 1_555
C3 C2 1_555 1_555
H2 C3 1_555 1_555
C4 C3 1_555 1_555
C5 C4 1_555 1_555
C10 H7 1_555 1_555
C11 H8 1_555 1_555
C12 C11 1_555 1_555
H9 C12 1_555 1_555
N2 C2 1_555 1_555
N7 C10 1_555 1_555
N4 C4 1_555 1_555
C10 N4 1_555 1_555
C11 N7 1_555 1_555
C12 N4 1_555 1_555
C10_2 H7_2 1_555 1_555
C11_2 H8_2 1_555 1_555
N3 C10_2 1_555 1_555
Co2 N3 1_555 1_555
C11_2 N3 1_555 1_555
Co2 N1_2 1_555 1_555
C1_2 H1_2 1_555 1_555
C2_2 C1_2 1_555 1_555
C3_2 C2_2 1_555 1_555
H2_2 C3_2 1_555 1_555
C4_2 C3_2 1_555 1_555
C5_2 C4_2 1_555 1_555
C7_2 H4_2 1_555 1_555
C8_2 H5_2 1_555 1_555
C9_2 C8_2 1_555 1_555
H6_2 C9_2 1_555 1_555
H9_2 C12_2 1_555 1_555
N1_2 C7_2 1_555 1_555
N2_2 C2_2 1_555 1_555
N4_2 C4_2 1_555 1_555
O1_2 Co2 1_555 1_555
N8_2 Co2 1_555 1_555
O5_2 Co2 1_555 1_555
O6_2 Co2 1_555 1_555
C7_2 N2_2 1_555 1_555
C8_2 N1_2 1_555 1_555
C9_2 N2_2 1_555 1_555
C12_2 N4_2 1_555 1_555
C13 H10 1_555 1_555
C14 H11 1_555 1_555
C15 C14 1_555 1_555
H12 C15 1_555 1_555
C17 C18 1_555 1_555
C18 C19 1_555 1_555
C19 H13 1_555 1_555
C20 C19 1_555 1_555
H14 C20 1_555 1_555
N8 C13 1_555 1_555
N6 C6 1_555 1_555
O5_2 C17 1_555 1_555
O6_2 C17 1_555 1_555
C13 N6 1_555 1_555
C14 N8 1_555 1_555
C15 N6 1_555 1_555
H12_2 C15_2 1_555 1_555
C16 C21 1_555 1_555
C17_2 C18_2 1_555 1_555
C18_2 C19_2 1_555 1_555
C19_2 H13_2 1_555 1_555
C20_2 C19_2 1_555 1_555
H14_2 C20_2 1_555 1_555
C21 C20_2 1_555 1_555
C22 C21 1_555 1_555
C23 C18_2 1_555 1_555
C24 C23 1_555 1_555
H15 C24 1_555 1_555
C25 C24 1_555 1_555
H16 C25 1_555 1_555
C26 C25 1_555 1_555
H17 C26 1_555 1_555
C27 C22 1_555 1_555
H18 C27 1_555 1_555
N6_2 C6_2 1_555 1_555
O2 C16 1_555 1_555
O5 C17_2 1_555 1_555
O6 C17_2 1_555 1_555
C15_2 N6_2 1_555 1_555
C22 C23 1_555 1_555
C26 C27 1_555 1_555
C13_2 H10_2 1_555 1_555
C14_2 H11_2 1_555 1_555
N8_2 C13_2 1_555 1_555
C14_2 N8_2 1_555 1_555
C16_2 C21_2 1_555 1_555
C22_2 C21_2 1_555 1_555
C24_2 C23_2 1_555 1_555
H15_2 C24_2 1_555 1_555
C25_2 C24_2 1_555 1_555
H16_2 C25_2 1_555 1_555
C26_2 C25_2 1_555 1_555
H17_2 C26_2 1_555 1_555
C27_2 C22_2 1_555 1_555
H18_2 C27_2 1_555 1_555
O2_2 C16_2 1_555 1_555
C22_2 C23_2 1_555 1_555
C26_2 C27_2 1_555 1_555
C13_3 H10_3 1_555 1_555
C14_3 H11_3 1_555 1_555
C15_3 C14_3 1_555 1_555
H12_3 C15_3 1_555 1_555
C17_3 C18_3 1_555 1_555
C18_3 C19_3 1_555 1_555
C19_3 H13_3 1_555 1_555
C20_3 C19_3 1_555 1_555
H14_3 C20_3 1_555 1_555
N5 C13_3 1_555 1_555
N6_3 C6_3 1_555 1_555
O3 C17_3 1_555 1_555
O4 C17_3 1_555 1_555
Co3 N5 1_555 1_555
Co4 O3 1_555 1_555
C13_3 N6_3 1_555 1_555
C14_3 N5 1_555 1_555
C15_3 N6_3 1_555 1_555
O4 Co4 1_555 1_555
C13_4 H10_4 1_555 1_555
C14_4 H11_4 1_555 1_555
N5_2 C13_4 1_555 1_555
Co4 N5_2 1_555 1_555
C14_4 N5_2 1_555 1_555
H12_4 C15_4 1_555 1_555
C16_3 C21_3 1_555 1_555
C17_4 C18_4 1_555 1_555
C18_4 C19_4 1_555 1_555
C19_4 H13_4 1_555 1_555
C20_4 C19_4 1_555 1_555
H14_4 C20_4 1_555 1_555
C21_3 C20_4 1_555 1_555
C22_3 C21_3 1_555 1_555
C23_3 C18_4 1_555 1_555
C24_3 C23_3 1_555 1_555
H15_3 C24_3 1_555 1_555
C25_3 C24_3 1_555 1_555
H16_3 C25_3 1_555 1_555
C26_3 C25_3 1_555 1_555
H17_3 C26_3 1_555 1_555
C27_3 C22_3 1_555 1_555
H18_3 C27_3 1_555 1_555
N6_4 C6_4 1_555 1_555
O2_3 C16_3 1_555 1_555
O3_2 C17_4 1_555 1_555
O4_2 C17_4 1_555 1_555
Co3 O3_2 1_555 1_555
C15_4 N6_4 1_555 1_555
C22_3 C23_3 1_555 1_555
C26_3 C27_3 1_555 1_555
O4_2 Co3 1_555 1_555
C1_3 H1_3 1_555 1_555
C2_3 C1_3 1_555 1_555
C3_3 C2_3 1_555 1_555
H2_3 C3_3 1_555 1_555
C4_3 C3_3 1_555 1_555
C5_3 C4_3 1_555 1_555
C10_3 H7_3 1_555 1_555
C11_3 H8_3 1_555 1_555
C12_3 C11_3 1_555 1_555
H9_3 C12_3 1_555 1_555
N2_3 C2_3 1_555 1_555
N3_2 C10_3 1_555 1_555
N4_3 C4_3 1_555 1_555
Co3 N3_2 1_555 1_555
C10_3 N4_3 1_555 1_555
C11_3 N3_2 1_555 1_555
C12_3 N4_3 1_555 1_555
Co3 N1_3 1_555 1_555
C7_3 H4_3 1_555 1_555
C8_3 H5_3 1_555 1_555
C9_3 C8_3 1_555 1_555
N1_3 C7_3 1_555 1_555
O1_3 Co3 1_555 1_555
C8_3 N1_3 1_555 1_555
Co4 N1_4 1_555 1_555
C1_4 H1_4 1_555 1_555
C2_4 C1_4 1_555 1_555
C3_4 C2_4 1_555 1_555
H2_4 C3_4 1_555 1_555
C4_4 C3_4 1_555 1_555
C5_4 C4_4 1_555 1_555
C7_4 H4_4 1_555 1_555
C8_4 H5_4 1_555 1_555
C9_4 C8_4 1_555 1_555
H6_4 C9_4 1_555 1_555
H9_4 C12_4 1_555 1_555
N1_4 C7_4 1_555 1_555
N2_4 C2_4 1_555 1_555
N4_4 C4_4 1_555 1_555
O1_4 Co4 1_555 1_555
N7_2 Co4 1_555 1_555
C7_4 N2_4 1_555 1_555
C8_4 N1_4 1_555 1_555
C9_4 N2_4 1_555 1_555
C12_4 N4_4 1_555 1_555
C10_4 H7_4 1_555 1_555
C11_4 H8_4 1_555 1_555
N7_2 C10_4 1_555 1_555
C11_4 N7_2 1_555 1_555
C16_4 C21_4 1_555 1_555
C22_4 C21_4 1_555 1_555
C24_4 C23_4 1_555 1_555
H15_4 C24_4 1_555 1_555
C25_4 C24_4 1_555 1_555
H16_4 C25_4 1_555 1_555
C26_4 C25_4 1_555 1_555
H17_4 C26_4 1_555 1_555
C27_4 C22_4 1_555 1_555
H18_4 C27_4 1_555 1_555
O2_4 C16_4 1_555 1_555
C22_4 C23_4 1_555 1_555
C26_4 C27_4 1_555 1_555

#END
