
###############################################################################
#
# This file contains modified crystal structure data generated from the
# MOF subset of the Cambridge Structural Database (CSD) v543 
# hosted by the Cambridge Crystallographic Data Centre (CCDC).
#
# This work is licensed under the Creative Commons
# Attribution-NonCommercial-ShareAlike 4.0 International License.
# To view a copy of this license, visit
# http://creativecommons.org/licenses/by-nc-sa/4.0/
# or send a letter to
# Creative Commons, PO Box 1866, Mountain View, CA 94042, USA.
#
# CIF created using the CSD Python API on 29 September 2022
# The structure has been converted into the P1 space group
# The structure has a 3D framework
# The original CSD entry OBUBOC is in the hexagonal crystal system
# The framework has been calculated to contain at least 10.0% void space
# The void calculation uses a probe of radius 1.32A, grid spacing 0.4
# H atom positions have been added when not included in the experimental data
# Generated hydrogen atom positions removed from atoms on special positions
#
###############################################################################

data_OBUBOC
_chemical_formula_moiety         '(C48 H72 Ce4 Cu6 O68)n'
_symmetry_cell_setting           triclinic
_symmetry_space_group_name_H-M   'P 1'
_symmetry_Int_Tables_number      1
_space_group_name_Hall           'P 1'
loop_
_symmetry_equiv_pos_site_id
_symmetry_equiv_pos_as_xyz
1 x,y,z
_cell_length_a                   15.498(2)
_cell_length_b                   15.498(2)
_cell_length_c                   13.811(2)
_cell_angle_alpha                90
_cell_angle_beta                 90
_cell_angle_gamma                120
_cell_volume                     2872.81
loop_
_atom_site_label
_atom_site_type_symbol
_atom_site_fract_x
_atom_site_fract_y
_atom_site_fract_z
O28 O 0.4731(3) 0.2343(5) 0.0208(3)
O29 O 0.5641(3) 0.3954(4) 0.1218(3)
O30 O 0.4227(4) 0.3953(5) 0.1520(3)
C21 C 0.4117(5) 0.2691(7) 0.0512(5)
H22 H 0.3565 0.2180 0.0880
C22 C 0.4720(5) 0.3615(7) 0.1145(5)
H23 H 0.3914 0.0892 0.0097
Ce4 Ce 0.6667 0.3333 0.03451(4)
Cu9 Cu 0.47396(8) 0.49880(11) 0.2500
Cu1 Cu 0.52604(8) 0.02484(8) 0.7500
O6 O 0.6823(5) 0.1755(5) 0.7500
O23 O 0.4731(3) 0.2343(5) 0.4792(3)
O24 O 0.5641(3) 0.3954(4) 0.3782(3)
O25 O 0.4227(4) 0.3953(5) 0.3480(3)
O26 O 0.5861(3) 0.2019(4) 0.5951(3)
O27 O 0.4592(3) 0.0604(5) 0.6517(3)
C17 C 0.4117(5) 0.2691(7) 0.4488(5)
H17 H 0.3849 0.2861 0.5044
H18 H 0.3565 0.2180 0.4120
C18 C 0.4720(5) 0.3615(7) 0.3855(5)
C19 C 0.4236(5) 0.1459(8) 0.5336(5)
H19 H 0.3914 0.0892 0.4903
H20 H 0.3726 0.1472 0.5733
C20 C 0.4972(5) 0.1352(7) 0.5979(5)
O31 O 0.5861(3) 0.2019(4) 0.9049(3)
O32 O 0.4592(3) 0.0604(5) 0.8483(3)
H21 H 0.3849 0.2861 0.9956
C23 C 0.4236(5) 0.1459(8) 0.9664(5)
H24 H 0.3726 0.1472 0.9267
C24 C 0.4972(5) 0.1352(7) 0.9021(5)
Ce3 Ce 0.6667 0.3333 0.46549(4)
O21 O 0.4139(3) 0.6158(3) 0.0951(3)
O22 O 0.5408(3) 0.6012(4) 0.1517(3)
H13 H 0.6151 0.9012 0.0044
C15 C 0.5764(5) 0.7223(6) 0.0336(5)
H16 H 0.6274 0.7746 0.0733
C16 C 0.5028(5) 0.6380(5) 0.0979(5)
O39 O 0.3842(3) 0.7981(4) 0.0951(3)
O40 O 0.2019(4) 0.5861(3) 0.0951(3)
Ce1 Ce 0.3333 0.6667 0.53451(4)
O1 O 0.5269(3) 0.7612(4) 0.5208(3)
O2 O 0.4359(3) 0.8313(3) 0.6218(3)
O3 O 0.5773(4) 0.9726(3) 0.6520(3)
O4 O 0.4139(3) 0.6158(3) 0.4049(3)
O5 O 0.5408(3) 0.6012(4) 0.3483(3)
O7 O 0.3333 0.6667 0.7500
C1 C 0.5883(5) 0.8574(5) 0.5512(5)
H1 H 0.6151 0.9012 0.4956
H2 H 0.6435 0.8615 0.5880
C2 C 0.5280(5) 0.8895(5) 0.6145(5)
C3 C 0.5764(5) 0.7223(6) 0.4664(5)
H3 H 0.6086 0.6978 0.5097
H4 H 0.6274 0.7746 0.4267
C4 C 0.5028(5) 0.6380(5) 0.4021(5)
O8 O 0.2388(4) 0.7657(5) 0.5208(3)
O9 O 0.1687(3) 0.6046(4) 0.6218(3)
O10 O 0.0274(3) 0.6047(5) 0.6520(3)
O11 O 0.3842(3) 0.7981(4) 0.4049(3)
O12 O 0.3988(4) 0.9396(5) 0.3483(3)
C5 C 0.1426(5) 0.7309(7) 0.5512(5)
H5 H 0.0988 0.7139 0.4956
H6 H 0.1385 0.7820 0.5880
C6 C 0.1105(5) 0.6385(7) 0.6145(5)
C7 C 0.2777(6) 0.8541(8) 0.4664(5)
H7 H 0.3022 0.9108 0.5097
H8 H 0.2254 0.8528 0.4267
C8 C 0.3620(5) 0.8648(7) 0.4021(5)
O13 O 0.2343(5) 0.4731(3) 0.5208(3)
O14 O 0.3954(4) 0.5641(3) 0.6218(3)
O15 O 0.3953(5) 0.4227(4) 0.6520(3)
O16 O 0.2019(4) 0.5861(3) 0.4049(3)
O17 O 0.0604(5) 0.4592(3) 0.3483(3)
C9 C 0.2691(7) 0.4117(5) 0.5512(5)
H9 H 0.2861 0.3849 0.4956
H10 H 0.2180 0.3565 0.5880
C10 C 0.3615(7) 0.4720(5) 0.6145(5)
C11 C 0.1459(8) 0.4236(5) 0.4664(5)
H11 H 0.0892 0.3914 0.5097
H12 H 0.1472 0.3726 0.4267
C12 C 0.1352(7) 0.4972(5) 0.4021(5)
Ce2 Ce 0.3333 0.6667 0.96549(4)
Cu3 Cu 0.49880(11) 0.47396(8) 0.7500
O18 O 0.5269(3) 0.7612(4) 0.9792(3)
O19 O 0.4359(3) 0.8313(3) 0.8782(3)
O20 O 0.5773(4) 0.9726(3) 0.8480(3)
C13 C 0.5883(5) 0.8574(5) 0.9488(5)
H14 H 0.6435 0.8615 0.9120
C14 C 0.5280(5) 0.8895(5) 0.8855(5)
H15 H 0.6086 0.6978 0.9903
O34 O 0.4932(7) 0.3177(5) 0.7500
Cu5 Cu 0.50120(11) 0.97516(8) 0.2500
Cu6 Cu 0.02484(8) 0.52604(8) 0.2500
O35 O 0.2388(4) 0.7657(5) 0.9792(3)
O36 O 0.2343(5) 0.4731(3) 0.9792(3)
O37 O 0.1687(3) 0.6046(4) 0.8782(3)
O38 O 0.3954(4) 0.5641(3) 0.8782(3)
O41 O 0.0274(3) 0.6047(5) 0.8480(3)
O44 O 0.3953(5) 0.4227(4) 0.8480(3)
O45 O 0.6012(4) 0.5408(3) 0.6517(3)
O46 O 0.6012(4) 0.5408(3) 0.8483(3)
Cu2 Cu 0.97516(8) 0.50120(11) 0.7500
O33 O 0.8245(5) 0.5068(7) 0.7500
O42 O 0.9396(5) 0.3988(4) 0.6517(3)
O43 O 0.9396(5) 0.3988(4) 0.8483(3)
O22_2 O 0.3988(4) 0.9396(5) 0.1517(3)
H13_2 H 0.0988 0.7139 0.0044
C15_2 C 0.2777(6) 0.8541(8) 0.0336(5)
H16_2 H 0.2254 0.8528 0.0733
C16_2 C 0.3620(5) 0.8648(7) 0.0979(5)
C13_2 C 0.1426(5) 0.7309(7) 0.9488(5)
H14_2 H 0.1385 0.7820 0.9120
C14_2 C 0.1105(5) 0.6385(7) 0.8855(5)
H15_2 H 0.3022 0.9108 0.9903
O28_2 O 0.7657(5) 0.2388(6) 0.0208(3)
O29_2 O 0.6046(4) 0.1687(5) 0.1218(3)
O30_2 O 0.6047(5) 0.0274(6) 0.1520(3)
C21_2 C 0.7309(7) 0.1426(9) 0.0512(5)
H22_2 H 0.7820 0.1385 0.0880
C22_2 C 0.6385(7) 0.1105(9) 0.1145(5)
H23_2 H 0.9108 0.3022 0.0097
O23_2 O 0.7657(5) 0.2388(6) 0.4792(3)
O24_2 O 0.6046(4) 0.1687(5) 0.3782(3)
O25_2 O 0.6047(5) 0.0274(6) 0.3480(3)
O26_2 O 0.7981(4) 0.3842(5) 0.5951(3)
C17_2 C 0.7309(7) 0.1426(9) 0.4488(5)
H17_2 H 0.7139 0.0988 0.5044
H18_2 H 0.7820 0.1385 0.4120
C18_2 C 0.6385(7) 0.1105(9) 0.3855(5)
C19_2 C 0.8541(8) 0.2777(9) 0.5336(5)
H19_2 H 0.9108 0.3022 0.4903
H20_2 H 0.8528 0.2254 0.5733
C20_2 C 0.8648(7) 0.3620(9) 0.5979(5)
O31_2 O 0.7981(4) 0.3842(5) 0.9049(3)
H21_2 H 0.7139 0.0988 0.9956
C23_2 C 0.8541(8) 0.2777(9) 0.9664(5)
H24_2 H 0.8528 0.2254 0.9267
C24_2 C 0.8648(7) 0.3620(9) 0.9021(5)
O22_3 O 0.0604(5) 0.4592(3) 0.1517(3)
H13_3 H 0.2861 0.3849 0.0044
C15_3 C 0.1459(8) 0.4236(5) 0.0336(5)
H16_3 H 0.1472 0.3726 0.0733
C16_3 C 0.1352(7) 0.4972(5) 0.0979(5)
O28_3 O 0.7612(6) 0.5269(3) 0.0208(3)
O29_3 O 0.8313(5) 0.4359(3) 0.1218(3)
O30_3 O 0.9726(6) 0.5773(4) 0.1520(3)
C21_3 C 0.8574(9) 0.5883(5) 0.0512(5)
H22_3 H 0.8615 0.6435 0.0880
C22_3 C 0.8895(9) 0.5280(5) 0.1145(5)
H23_3 H 0.6978 0.6086 0.0097
C13_3 C 0.2691(7) 0.4117(5) 0.9488(5)
H14_3 H 0.2180 0.3565 0.9120
C14_3 C 0.3615(7) 0.4720(5) 0.8855(5)
H15_3 H 0.0892 0.3914 0.9903
O23_3 O 0.7612(6) 0.5269(3) 0.4792(3)
O24_3 O 0.8313(5) 0.4359(3) 0.3782(3)
O25_3 O 0.9726(6) 0.5773(4) 0.3480(3)
O26_3 O 0.6158(5) 0.4139(3) 0.5951(3)
C17_3 C 0.8574(9) 0.5883(5) 0.4488(5)
H17_3 H 0.9012 0.6151 0.5044
H18_3 H 0.8615 0.6435 0.4120
C18_3 C 0.8895(9) 0.5280(5) 0.3855(5)
C19_3 C 0.7223(9) 0.5764(5) 0.5336(5)
H19_3 H 0.6978 0.6086 0.4903
H20_3 H 0.7746 0.6274 0.5733
C20_3 C 0.6380(9) 0.5028(5) 0.5979(5)
O31_3 O 0.6158(5) 0.4139(3) 0.9049(3)
H21_3 H 0.9012 0.6151 0.9956
C23_3 C 0.7223(9) 0.5764(5) 0.9664(5)
H24_3 H 0.7746 0.6274 0.9267
C24_3 C 0.6380(9) 0.5028(5) 0.9021(5)
O6_2 O 0.1755(5) 0.6823(5) 0.2500
O7_2 O 0.6667 0.3333 0.2500
O34_2 O 0.3177(5) 0.4932(7) 0.2500
O33_2 O 0.5068(7) 0.8245(5) 0.2500
loop_
_geom_bond_atom_site_label_1
_geom_bond_atom_site_label_2
_geom_bond_site_symmetry_1
_geom_bond_site_symmetry_2
O28 C21 1_555 1_555
O29 C22 1_555 1_555
O30 C22 1_555 1_555
H22 C21 1_555 1_555
C22 C21 1_555 1_555
Ce4 O28 1_555 1_555
Cu9 O30 1_555 1_555
O29 Ce4 1_555 1_555
O6 Cu1 1_555 1_555
O23 C17 1_555 1_555
O24 C18 1_555 1_555
O25 C18 1_555 1_555
O26 C20 1_555 1_555
O27 Cu1 1_555 1_555
C17 H17 1_555 1_555
H18 C17 1_555 1_555
C18 C17 1_555 1_555
C19 O23 1_555 1_555
H19 C19 1_555 1_555
H20 C19 1_555 1_555
C20 O27 1_555 1_555
O31 C24 1_555 1_555
O32 Cu1 1_555 1_555
H24 C23 1_555 1_555
C24 O32 1_555 1_555
Ce3 O23 1_555 1_555
Cu9 O25 1_555 1_555
O24 Ce3 1_555 1_555
O26 Ce3 1_555 1_555
C19 C20 1_555 1_555
C23 C24 1_555 1_555
O22 C16 1_555 1_555
H16 C15 1_555 1_555
C16 O21 1_555 1_555
Cu9 O22 1_555 1_555
C15 C16 1_555 1_555
Ce1 O1 1_555 1_555
O1 C1 1_555 1_555
O2 Ce1 1_555 1_555
O3 C2 1_555 1_555
O4 Ce1 1_555 1_555
O5 C4 1_555 1_555
O7 Ce1 1_555 1_555
C1 H1 1_555 1_555
H2 C1 1_555 1_555
C2 O2 1_555 1_555
C3 O1 1_555 1_555
H3 C3 1_555 1_555
H4 C3 1_555 1_555
C4 O4 1_555 1_555
O8 Ce1 1_555 1_555
O9 Ce1 1_555 1_555
O10 C6 1_555 1_555
O11 Ce1 1_555 1_555
O12 C8 1_555 1_555
C5 O8 1_555 1_555
H5 C5 1_555 1_555
H6 C5 1_555 1_555
C6 O9 1_555 1_555
C7 O8 1_555 1_555
H7 C7 1_555 1_555
H8 C7 1_555 1_555
C8 O11 1_555 1_555
O13 Ce1 1_555 1_555
O14 Ce1 1_555 1_555
O15 C10 1_555 1_555
O16 Ce1 1_555 1_555
O17 C12 1_555 1_555
C9 O13 1_555 1_555
H9 C9 1_555 1_555
H10 C9 1_555 1_555
C10 O14 1_555 1_555
C11 O13 1_555 1_555
H11 C11 1_555 1_555
H12 C11 1_555 1_555
C12 O16 1_555 1_555
Ce2 O7 1_555 1_555
Cu3 O15 1_555 1_555
O18 Ce2 1_555 1_555
O19 Ce2 1_555 1_555
C13 O18 1_555 1_555
H14 C13 1_555 1_555
C14 O19 1_555 1_555
O34 Cu3 1_555 1_555
Cu9 O5 1_555 1_555
Cu5 O12 1_555 1_555
Cu6 O17 1_555 1_555
O35 Ce2 1_555 1_555
O36 Ce2 1_555 1_555
O37 Ce2 1_555 1_555
O38 Ce2 1_555 1_555
O44 Cu3 1_555 1_555
O45 Cu3 1_555 1_555
O46 Cu3 1_555 1_555
C1 C2 1_555 1_555
C3 C4 1_555 1_555
C5 C6 1_555 1_555
C7 C8 1_555 1_555
C9 C10 1_555 1_555
C11 C12 1_555 1_555
O20 C14 1_555 1_555
C13 C14 1_555 1_555
O33 Cu2 1_555 1_555
O42 Cu2 1_555 1_555
O43 Cu2 1_555 1_555
O22_2 C16_2 1_555 1_555
H16_2 C15_2 1_555 1_555
C16_2 O39 1_555 1_555
Cu5 O22_2 1_555 1_555
C15_2 C16_2 1_555 1_555
C13_2 O35 1_555 1_555
H14_2 C13_2 1_555 1_555
C14_2 O37 1_555 1_555
O41 C14_2 1_555 1_555
C13_2 C14_2 1_555 1_555
O28_2 C21_2 1_555 1_555
O29_2 C22_2 1_555 1_555
O30_2 C22_2 1_555 1_555
H22_2 C21_2 1_555 1_555
C22_2 C21_2 1_555 1_555
Ce4 O28_2 1_555 1_555
O29_2 Ce4 1_555 1_555
O23_2 C17_2 1_555 1_555
O24_2 C18_2 1_555 1_555
O25_2 C18_2 1_555 1_555
O26_2 C20_2 1_555 1_555
C17_2 H17_2 1_555 1_555
H18_2 C17_2 1_555 1_555
C18_2 C17_2 1_555 1_555
C19_2 O23_2 1_555 1_555
H19_2 C19_2 1_555 1_555
H20_2 C19_2 1_555 1_555
C20_2 O42 1_555 1_555
O31_2 C24_2 1_555 1_555
H24_2 C23_2 1_555 1_555
C24_2 O43 1_555 1_555
Ce3 O23_2 1_555 1_555
O24_2 Ce3 1_555 1_555
O26_2 Ce3 1_555 1_555
C19_2 C20_2 1_555 1_555
C23_2 C24_2 1_555 1_555
O22_3 C16_3 1_555 1_555
H16_3 C15_3 1_555 1_555
C16_3 O40 1_555 1_555
O28_3 C21_3 1_555 1_555
O29_3 C22_3 1_555 1_555
O30_3 C22_3 1_555 1_555
H22_3 C21_3 1_555 1_555
C22_3 C21_3 1_555 1_555
Cu6 O22_3 1_555 1_555
Ce4 O28_3 1_555 1_555
C15_3 C16_3 1_555 1_555
O29_3 Ce4 1_555 1_555
C13_3 O36 1_555 1_555
H14_3 C13_3 1_555 1_555
C14_3 O38 1_555 1_555
O23_3 C17_3 1_555 1_555
O24_3 C18_3 1_555 1_555
O25_3 C18_3 1_555 1_555
O26_3 C20_3 1_555 1_555
C17_3 H17_3 1_555 1_555
H18_3 C17_3 1_555 1_555
C18_3 C17_3 1_555 1_555
C19_3 O23_3 1_555 1_555
H19_3 C19_3 1_555 1_555
H20_3 C19_3 1_555 1_555
C20_3 O45 1_555 1_555
O31_3 C24_3 1_555 1_555
H24_3 C23_3 1_555 1_555
C24_3 O46 1_555 1_555
Ce3 O23_3 1_555 1_555
O44 C14_3 1_555 1_555
C13_3 C14_3 1_555 1_555
O24_3 Ce3 1_555 1_555
O26_3 Ce3 1_555 1_555
C19_3 C20_3 1_555 1_555
C23_3 C24_3 1_555 1_555
O6_2 Cu6 1_555 1_555
O7_2 Ce3 1_555 1_555
Ce4 O7_2 1_555 1_555
O34_2 Cu9 1_555 1_555
O33_2 Cu5 1_555 1_555

#END
