
###############################################################################
#
# This file contains modified crystal structure data generated from the
# MOF subset of the Cambridge Structural Database (CSD) v543 
# hosted by the Cambridge Crystallographic Data Centre (CCDC).
#
# This work is licensed under the Creative Commons
# Attribution-NonCommercial-ShareAlike 4.0 International License.
# To view a copy of this license, visit
# http://creativecommons.org/licenses/by-nc-sa/4.0/
# or send a letter to
# Creative Commons, PO Box 1866, Mountain View, CA 94042, USA.
#
# CIF created using the CSD Python API on 29 September 2022
# The structure has been converted into the P1 space group
# The structure has a 3D framework
# The original CSD entry OBUFIB is in the monoclinic crystal system
# The framework has been calculated to contain at least 10.0% void space
# The void calculation uses a probe of radius 1.32A, grid spacing 0.4
# The framework is charged, counterions have been retained in the structure
#
###############################################################################

data_OBUFIB
_chemical_formula_moiety         '(C128 H88 N16 O52 Zn16)n'
_symmetry_cell_setting           triclinic
_symmetry_space_group_name_H-M   'P 1'
_symmetry_Int_Tables_number      1
_space_group_name_Hall           'P 1'
loop_
_symmetry_equiv_pos_site_id
_symmetry_equiv_pos_as_xyz
1 x,y,z
_cell_length_a                   8.5416(11)
_cell_length_b                   25.969(3)
_cell_length_c                   18.225(2)
_cell_angle_alpha                90
_cell_angle_beta                 95.544(14)
_cell_angle_gamma                90
_cell_volume                     4023.7
loop_
_atom_site_label
_atom_site_type_symbol
_atom_site_fract_x
_atom_site_fract_y
_atom_site_fract_z
O11 O 0.07316(17) 0.82098(5) 0.60537(7)
O12 O 0.10384(16) 0.83822(4) 0.42670(8)
Zn1 Zn 0.39961(2) 0.223319(7) 0.471134(12)
C1 C 0.2550(3) 0.24318(13) 0.31885(15)
C2 C 0.1895(3) 0.22397(10) 0.24237(16)
H1 H 0.1407 0.1919 0.2407
C3 C 0.1943(2) 0.24666(7) 0.18191(10)
C4 C 0.0922(2) 0.22728(7) 0.11382(10)
C5 C 0.2745(2) 0.29821(8) 0.17038(11)
H2 H 0.1958 0.3252 0.1634
H3 H 0.3449 0.3066 0.2137
C6 C 0.3676(2) 0.29528(7) 0.10263(10)
C11 C 0.7490(2) 0.00711(6) 0.49966(11)
C12 C 0.6673(2) 0.05686(7) 0.49394(10)
C13 C 0.5843(2) 0.07666(7) 0.54813(10)
H8 H 0.5811 0.0585 0.5919
C14 C 0.5058(2) 0.12260(7) 0.53931(11)
H9 H 0.4468 0.1339 0.5765
C15 C 0.5928(2) 0.13421(7) 0.42908(12)
H10 H 0.5994 0.1544 0.3873
C16 C 0.6711(3) 0.08756(7) 0.43356(12)
H11 H 0.7269 0.0770 0.3949
N2 N 0.51109(18) 0.15124(5) 0.47995(8)
O1 O 0.2541(2) 0.29434(6) 0.32822(8)
O2 O 0.29268(18) 0.20559(5) 0.36589(7)
O3 O 0.07316(17) 0.17902(5) 0.10537(7)
O4 O 0.03469(16) 0.26051(5) 0.07316(7)
O5 O 0.40960(15) 0.25390(5) 0.08071(8)
O6 O 0.39616(16) 0.33822(4) 0.07330(8)
O7 O 0.29229(13) 0.29667(4) 0.47435(6)
O8 O 0.53469(16) 0.23949(5) 0.57316(7)
O9 O 0.59040(15) 0.25390(5) 0.41929(8)
O10 O 0.20771(13) 0.20333(4) 0.52565(6)
Zn5 Zn 0.60039(2) 0.223319(7) 0.028866(12)
Zn7 Zn 0.10039(2) 0.276681(7) 0.528866(12)
Zn8 Zn 0.47229(3) 0.337800(8) 0.508360(12)
Zn6 Zn 0.52771(3) 0.337800(8) 0.991640(12)
Zn2 Zn 0.97229(3) 0.837800(8) 0.508360(12)
C7 C 0.7698(3) 0.98020(8) 0.56449(13)
H4 H 0.7333 0.9939 0.6068
C8 C 0.8428(3) 0.93405(8) 0.56757(12)
H5 H 0.8576 0.9172 0.6127
C9 C 0.8728(3) 0.93660(7) 0.44671(12)
H6 H 0.9077 0.9216 0.4049
C10 C 0.8014(3) 0.98357(7) 0.43999(13)
H7 H 0.7885 0.9997 0.3942
N1 N 0.89427(19) 0.91164(6) 0.50910(9)
O13 O 0.79229(13) 0.79667(4) 0.47435(6)
Zn3 Zn 0.97229(3) 0.162200(8) 0.008360(12)
Zn4 Zn 0.89961(2) 0.276681(7) 0.971134(12)
C7_2 C 0.2698(3) 0.48020(8) 0.56449(13)
H4_2 H 0.2333 0.4939 0.6068
C8_2 C 0.3428(3) 0.43405(8) 0.56757(12)
H5_2 H 0.3576 0.4172 0.6127
C9_2 C 0.3728(3) 0.43660(7) 0.44671(12)
H6_2 H 0.4077 0.4216 0.4049
C10_2 C 0.3014(3) 0.48357(7) 0.43999(13)
H7_2 H 0.2885 0.4997 0.3942
C11_2 C 0.2490(2) 0.50711(6) 0.49966(11)
C12_2 C 0.1673(2) 0.55686(7) 0.49394(10)
C13_2 C 0.0843(2) 0.57666(7) 0.54813(10)
H8_2 H 0.0811 0.5585 0.5919
C14_2 C 0.0058(2) 0.62260(7) 0.53931(11)
C15_2 C 0.0928(2) 0.63421(7) 0.42908(12)
H10_2 H 0.0994 0.6544 0.3873
C16_2 C 0.1711(3) 0.58756(7) 0.43356(12)
H11_2 H 0.2269 0.5770 0.3949
N1_2 N 0.39427(19) 0.41164(6) 0.50910(9)
N2_2 N 0.01109(18) 0.65124(5) 0.47995(8)
O8_2 O 0.03469(16) 0.73949(5) 0.57316(7)
O9_2 O 0.09040(15) 0.75390(5) 0.41929(8)
O11_2 O 0.57316(17) 0.32098(5) 0.60537(7)
O12_2 O 0.60384(16) 0.33822(4) 0.42670(8)
Zn5_2 Zn 0.10039(2) 0.723319(7) 0.028866(12)
Zn6_2 Zn 0.02771(3) 0.837800(8) 0.991640(12)
Zn1_2 Zn 0.89961(2) 0.723319(7) 0.471134(12)
C1_2 C 0.7550(3) 0.74318(13) 0.31885(15)
C2_2 C 0.6895(3) 0.72397(10) 0.24237(16)
H1_2 H 0.6407 0.6919 0.2407
C3_2 C 0.6943(2) 0.74666(7) 0.18191(10)
C4_2 C 0.5922(2) 0.72728(7) 0.11382(10)
C5_2 C 0.7745(2) 0.79821(8) 0.17038(11)
H2_2 H 0.6958 0.8252 0.1634
H3_2 H 0.8449 0.8066 0.2137
C6_2 C 0.8676(2) 0.79528(7) 0.10263(10)
H9_2 H 0.9468 0.6339 0.5765
O1_2 O 0.7541(2) 0.79434(6) 0.32822(8)
O2_2 O 0.79268(18) 0.70559(5) 0.36589(7)
O3_2 O 0.57316(17) 0.67902(5) 0.10537(7)
O4_2 O 0.53469(16) 0.76051(5) 0.07316(7)
O5_2 O 0.90960(15) 0.75390(5) 0.08071(8)
O6_2 O 0.89616(16) 0.83822(4) 0.07330(8)
O10_2 O 0.70771(13) 0.70333(4) 0.52565(6)
Zn3_2 Zn 0.47229(3) 0.662200(8) 0.008360(12)
Zn7_2 Zn 0.60039(2) 0.776681(7) 0.528866(12)
Zn4_2 Zn 0.39961(2) 0.776681(7) 0.971134(12)
O12_3 O 0.10384(16) 0.16178(4) 0.92670(8)
C7_3 C 0.7698(3) 0.01980(8) 0.06449(13)
H4_3 H 0.7333 0.0061 0.1068
C8_3 C 0.8428(3) 0.06595(8) 0.06757(12)
H5_3 H 0.8576 0.0828 0.1127
N1_3 N 0.89427(19) 0.08836(6) 0.00910(9)
C9_3 C 0.8728(3) 0.06340(7) 0.94671(12)
H6_3 H 0.9077 0.0784 0.9049
C10_3 C 0.8014(3) 0.01643(7) 0.93999(13)
H7_3 H 0.7885 0.0003 0.8942
O13_2 O 0.79229(13) 0.20333(4) 0.97435(6)
C13_3 C 0.5843(2) 0.92334(7) 0.04813(10)
H8_3 H 0.5811 0.9415 0.0919
C14_3 C 0.5058(2) 0.87740(7) 0.03931(11)
H9_3 H 0.4468 0.8661 0.0765
O10_3 O 0.20771(13) 0.79667(4) 0.02565(6)
C1_3 C 0.2550(3) 0.75682(13) 0.81885(15)
C2_3 C 0.1895(3) 0.77603(10) 0.74237(16)
H1_3 H 0.1407 0.8081 0.7407
C3_3 C 0.1943(2) 0.75334(7) 0.68191(10)
C4_3 C 0.0922(2) 0.77272(7) 0.61382(10)
C5_3 C 0.2745(2) 0.70179(8) 0.67038(11)
H2_3 H 0.1958 0.6748 0.6634
H3_3 H 0.3449 0.6934 0.7137
C6_3 C 0.3676(2) 0.70472(7) 0.60263(10)
C11_3 C 0.7490(2) 0.99289(6) 0.99966(11)
C12_3 C 0.6673(2) 0.94314(7) 0.99394(10)
C15_3 C 0.5928(2) 0.86579(7) 0.92908(12)
H10_3 H 0.5994 0.8456 0.8873
C16_3 C 0.6711(3) 0.91244(7) 0.93356(12)
H11_3 H 0.7269 0.9230 0.8949
N2_3 N 0.51109(18) 0.84876(5) 0.97995(8)
O1_3 O 0.2541(2) 0.70566(6) 0.82822(8)
O2_3 O 0.29268(18) 0.79441(5) 0.86589(7)
O5_3 O 0.40960(15) 0.74610(5) 0.58071(8)
O6_3 O 0.39616(16) 0.66178(4) 0.57330(8)
O7_2 O 0.29229(13) 0.70333(4) 0.97435(6)
O9_3 O 0.59040(15) 0.74610(5) 0.91929(8)
Zn6_3 Zn 0.52771(3) 0.662200(8) 0.491640(12)
C7_4 C 0.2698(3) 0.51980(8) 0.06449(13)
H4_4 H 0.2333 0.5061 0.1068
C8_4 C 0.3428(3) 0.56595(8) 0.06757(12)
H5_4 H 0.3576 0.5828 0.1127
C13_4 C 0.0843(2) 0.42334(7) 0.04813(10)
H8_4 H 0.0811 0.4415 0.0919
C14_4 C 0.0058(2) 0.37740(7) 0.03931(11)
N1_4 N 0.39427(19) 0.58836(6) 0.00910(9)
C9_4 C 0.3728(3) 0.56340(7) 0.94671(12)
H6_4 H 0.4077 0.5784 0.9049
C10_4 C 0.3014(3) 0.51643(7) 0.93999(13)
H7_4 H 0.2885 0.5003 0.8942
C11_4 C 0.2490(2) 0.49289(6) 0.99966(11)
C12_4 C 0.1673(2) 0.44314(7) 0.99394(10)
C15_4 C 0.0928(2) 0.36579(7) 0.92908(12)
H10_4 H 0.0994 0.3456 0.8873
C16_4 C 0.1711(3) 0.41244(7) 0.93356(12)
H11_4 H 0.2269 0.4230 0.8949
N2_4 N 0.01109(18) 0.34876(5) 0.97995(8)
O9_4 O 0.09040(15) 0.24610(5) 0.91929(8)
O12_4 O 0.60384(16) 0.66178(4) 0.92670(8)
Zn6_4 Zn 0.02771(3) 0.162200(8) 0.491640(12)
H9_4 H 0.9468 0.3661 0.0765
O10_4 O 0.70771(13) 0.29667(4) 0.02565(6)
C1_4 C 0.7550(3) 0.25682(13) 0.81885(15)
C2_4 C 0.6895(3) 0.27603(10) 0.74237(16)
H1_4 H 0.6407 0.3081 0.7407
C3_4 C 0.6943(2) 0.25334(7) 0.68191(10)
C4_4 C 0.5922(2) 0.27272(7) 0.61382(10)
C5_4 C 0.7745(2) 0.20179(8) 0.67038(11)
H2_4 H 0.6958 0.1748 0.6634
H3_4 H 0.8449 0.1934 0.7137
C6_4 C 0.8676(2) 0.20472(7) 0.60263(10)
O1_4 O 0.7541(2) 0.20566(6) 0.82822(8)
O2_4 O 0.79268(18) 0.29441(5) 0.86589(7)
O5_4 O 0.90960(15) 0.24610(5) 0.58071(8)
O6_4 O 0.89616(16) 0.16178(4) 0.57330(8)
C7_5 C 0.2302(3) 0.01980(8) 0.43551(13)
H4_5 H 0.2667 0.0061 0.3932
C8_5 C 0.1572(3) 0.06595(8) 0.43243(12)
H5_5 H 0.1424 0.0828 0.3873
C9_5 C 0.1272(3) 0.06340(7) 0.55329(12)
H6_5 H 0.0923 0.0784 0.5951
C10_5 C 0.1986(3) 0.01643(7) 0.56001(13)
H7_5 H 0.2115 0.0003 0.6058
N1_5 N 0.10573(19) 0.08836(6) 0.49090(9)
C1_5 C 0.7450(3) 0.75682(13) 0.68115(15)
C2_5 C 0.8105(3) 0.77603(10) 0.75763(16)
H1_5 H 0.8593 0.8081 0.7593
C3_5 C 0.8057(2) 0.75334(7) 0.81809(10)
C4_5 C 0.9078(2) 0.77272(7) 0.88618(10)
C5_5 C 0.7255(2) 0.70179(8) 0.82962(11)
H2_5 H 0.8042 0.6748 0.8366
H3_5 H 0.6551 0.6934 0.7863
C6_5 C 0.6324(2) 0.70472(7) 0.89737(10)
C11_5 C 0.2510(2) 0.99289(6) 0.50034(11)
C12_5 C 0.3327(2) 0.94314(7) 0.50606(10)
C13_5 C 0.4157(2) 0.92334(7) 0.45187(10)
H8_5 H 0.4189 0.9415 0.4081
C14_5 C 0.4942(2) 0.87740(7) 0.46069(11)
H9_5 H 0.5532 0.8661 0.4235
C15_5 C 0.4072(2) 0.86579(7) 0.57092(12)
H10_5 H 0.4006 0.8456 0.6127
C16_5 C 0.3289(3) 0.91244(7) 0.56644(12)
H11_5 H 0.2731 0.9230 0.6051
N2_5 N 0.48891(18) 0.84876(5) 0.52005(8)
O1_5 O 0.7459(2) 0.70566(6) 0.67178(8)
O2_5 O 0.70732(18) 0.79441(5) 0.63411(7)
O3_3 O 0.92684(17) 0.82098(5) 0.89463(7)
O4_3 O 0.96531(16) 0.73949(5) 0.92684(7)
O8_3 O 0.46531(16) 0.76051(5) 0.42684(7)
O11_3 O 0.92684(17) 0.17902(5) 0.39463(7)
C1_6 C 0.2450(3) 0.25682(13) 0.68115(15)
C2_6 C 0.3105(3) 0.27603(10) 0.75763(16)
H1_6 H 0.3593 0.3081 0.7593
C3_6 C 0.3057(2) 0.25334(7) 0.81809(10)
C4_6 C 0.4078(2) 0.27272(7) 0.88618(10)
C5_6 C 0.2255(2) 0.20179(8) 0.82962(11)
H2_6 H 0.3042 0.1748 0.8366
H3_6 H 0.1551 0.1934 0.7863
C6_6 C 0.1324(2) 0.20472(7) 0.89737(10)
H9_6 H 0.0532 0.3661 0.4235
O1_6 O 0.2459(2) 0.20566(6) 0.67178(8)
O2_6 O 0.20732(18) 0.29441(5) 0.63411(7)
O3_4 O 0.42684(17) 0.32098(5) 0.89463(7)
O4_4 O 0.46531(16) 0.23949(5) 0.92684(7)
C7_6 C 0.7302(3) 0.51980(8) 0.43551(13)
H4_6 H 0.7667 0.5061 0.3932
C8_6 C 0.6572(3) 0.56595(8) 0.43243(12)
H5_6 H 0.6424 0.5828 0.3873
C9_6 C 0.6272(3) 0.56340(7) 0.55329(12)
H6_6 H 0.5923 0.5784 0.5951
C10_6 C 0.6986(3) 0.51643(7) 0.56001(13)
H7_6 H 0.7115 0.5003 0.6058
C11_6 C 0.7510(2) 0.49289(6) 0.50034(11)
C12_6 C 0.8327(2) 0.44314(7) 0.50606(10)
C13_6 C 0.9157(2) 0.42334(7) 0.45187(10)
H8_6 H 0.9189 0.4415 0.4081
C14_6 C 0.9942(2) 0.37740(7) 0.46069(11)
C15_6 C 0.9072(2) 0.36579(7) 0.57092(12)
H10_6 H 0.9006 0.3456 0.6127
C16_6 C 0.8289(3) 0.41244(7) 0.56644(12)
H11_6 H 0.7731 0.4230 0.6051
N1_6 N 0.60573(19) 0.58836(6) 0.49090(9)
N2_6 N 0.98891(18) 0.34876(5) 0.52005(8)
O8_4 O 0.96531(16) 0.26051(5) 0.42684(7)
O11_4 O 0.42684(17) 0.67902(5) 0.39463(7)
C1_7 C 0.7450(3) 0.24318(13) 0.18115(15)
C2_7 C 0.8105(3) 0.22397(10) 0.25763(16)
H1_7 H 0.8593 0.1919 0.2593
C3_7 C 0.8057(2) 0.24666(7) 0.31809(10)
C4_7 C 0.9078(2) 0.22728(7) 0.38618(10)
C5_7 C 0.7255(2) 0.29821(8) 0.32962(11)
H2_7 H 0.8042 0.3252 0.3366
H3_7 H 0.6551 0.3066 0.2863
C6_7 C 0.6324(2) 0.29528(7) 0.39737(10)
C11_7 C 0.2510(2) 0.00711(6) 0.00034(11)
C12_7 C 0.3327(2) 0.05686(7) 0.00606(10)
C15_7 C 0.4072(2) 0.13421(7) 0.07092(12)
H10_7 H 0.4006 0.1544 0.1127
C16_7 C 0.3289(3) 0.08756(7) 0.06644(12)
H11_7 H 0.2731 0.0770 0.1051
N2_7 N 0.48891(18) 0.15124(5) 0.02005(8)
O1_7 O 0.7459(2) 0.29434(6) 0.17178(8)
O2_7 O 0.70732(18) 0.20559(5) 0.13411(7)
C13_7 C 0.4157(2) 0.07666(7) 0.95187(10)
H8_7 H 0.4189 0.0585 0.9081
C14_7 C 0.4942(2) 0.12260(7) 0.96069(11)
H9_7 H 0.5532 0.1339 0.9235
C9_7 C 0.1272(3) 0.93660(7) 0.05329(12)
H6_7 H 0.0923 0.9216 0.0951
C10_7 C 0.1986(3) 0.98357(7) 0.06001(13)
H7_7 H 0.2115 0.9997 0.1058
C7_7 C 0.2302(3) 0.98020(8) 0.93551(13)
H4_7 H 0.2667 0.9939 0.8932
C8_7 C 0.1572(3) 0.93405(8) 0.93243(12)
H5_7 H 0.1424 0.9172 0.8873
N1_7 N 0.10573(19) 0.91164(6) 0.99090(9)
C1_8 C 0.2450(3) 0.74318(13) 0.18115(15)
C2_8 C 0.3105(3) 0.72397(10) 0.25763(16)
H1_8 H 0.3593 0.6919 0.2593
C3_8 C 0.3057(2) 0.74666(7) 0.31809(10)
C4_8 C 0.4078(2) 0.72728(7) 0.38618(10)
C5_8 C 0.2255(2) 0.79821(8) 0.32962(11)
H2_8 H 0.3042 0.8252 0.3366
H3_8 H 0.1551 0.8066 0.2863
C6_8 C 0.1324(2) 0.79528(7) 0.39737(10)
O1_8 O 0.2459(2) 0.79434(6) 0.17178(8)
O2_8 O 0.20732(18) 0.70559(5) 0.13411(7)
H9_8 H 0.0532 0.6339 0.9235
C9_8 C 0.6272(3) 0.43660(7) 0.05329(12)
H6_8 H 0.5923 0.4216 0.0951
C10_8 C 0.6986(3) 0.48357(7) 0.06001(13)
H7_8 H 0.7115 0.4997 0.1058
C11_8 C 0.7510(2) 0.50711(6) 0.00034(11)
C12_8 C 0.8327(2) 0.55686(7) 0.00606(10)
C15_8 C 0.9072(2) 0.63421(7) 0.07092(12)
H10_8 H 0.9006 0.6544 0.1127
C16_8 C 0.8289(3) 0.58756(7) 0.06644(12)
H11_8 H 0.7731 0.5770 0.1051
N2_8 N 0.98891(18) 0.65124(5) 0.02005(8)
C7_8 C 0.7302(3) 0.48020(8) 0.93551(13)
H4_8 H 0.7667 0.4939 0.8932
C8_8 C 0.6572(3) 0.43405(8) 0.93243(12)
H5_8 H 0.6424 0.4172 0.8873
C13_8 C 0.9157(2) 0.57666(7) 0.95187(10)
H8_8 H 0.9189 0.5585 0.9081
C14_8 C 0.9942(2) 0.62260(7) 0.96069(11)
N1_8 N 0.60573(19) 0.41164(6) 0.99090(9)
loop_
_geom_bond_atom_site_label_1
_geom_bond_atom_site_label_2
_geom_bond_site_symmetry_1
_geom_bond_site_symmetry_2
Zn1 N2 1_555 1_555
C1 C2 1_555 1_555
C2 H1 1_555 1_555
C3 C2 1_555 1_555
C4 C3 1_555 1_555
C5 C3 1_555 1_555
H2 C5 1_555 1_555
H3 C5 1_555 1_555
C6 C5 1_555 1_555
C12 C11 1_555 1_555
C13 C12 1_555 1_555
H8 C13 1_555 1_555
C14 C13 1_555 1_555
H9 C14 1_555 1_555
C15 H10 1_555 1_555
C16 C12 1_555 1_555
H11 C16 1_555 1_555
N2 C14 1_555 1_555
O1 C1 1_555 1_555
O2 Zn1 1_555 1_555
O3 C4 1_555 1_555
O4 C4 1_555 1_555
O5 C6 1_555 1_555
O6 C6 1_555 1_555
O7 Zn1 1_555 1_555
O8 Zn1 1_555 1_555
O9 Zn1 1_555 1_555
O10 Zn1 1_555 1_555
Zn5 O5 1_555 1_555
Zn7 O7 1_555 1_555
Zn8 O7 1_555 1_555
C1 O2 1_555 1_555
C15 N2 1_555 1_555
C15 C16 1_555 1_555
O10 Zn7 1_555 1_555
Zn2 N1 1_555 1_555
C7 H4 1_555 1_555
C8 C7 1_555 1_555
H5 C8 1_555 1_555
C9 H6 1_555 1_555
C10 C9 1_555 1_555
H7 C10 1_555 1_555
N1 C8 1_555 1_555
O13 Zn2 1_555 1_555
C9 N1 1_555 1_555
Zn8 N1_2 1_555 1_555
C7_2 H4_2 1_555 1_555
C8_2 C7_2 1_555 1_555
H5_2 C8_2 1_555 1_555
C9_2 H6_2 1_555 1_555
C10_2 C9_2 1_555 1_555
H7_2 C10_2 1_555 1_555
C11_2 C7_2 1_555 1_555
C12_2 C11_2 1_555 1_555
C13_2 C12_2 1_555 1_555
H8_2 C13_2 1_555 1_555
C14_2 C13_2 1_555 1_555
C15_2 H10_2 1_555 1_555
C16_2 C12_2 1_555 1_555
H11_2 C16_2 1_555 1_555
N1_2 C8_2 1_555 1_555
N2_2 C14_2 1_555 1_555
O11_2 Zn8 1_555 1_555
O12_2 Zn8 1_555 1_555
C9_2 N1_2 1_555 1_555
C10_2 C11_2 1_555 1_555
C15_2 N2_2 1_555 1_555
C15_2 C16_2 1_555 1_555
C1_2 C2_2 1_555 1_555
C2_2 H1_2 1_555 1_555
C3_2 C2_2 1_555 1_555
C4_2 C3_2 1_555 1_555
C5_2 C3_2 1_555 1_555
H2_2 C5_2 1_555 1_555
H3_2 C5_2 1_555 1_555
C6_2 C5_2 1_555 1_555
O1_2 C1_2 1_555 1_555
O2_2 Zn1_2 1_555 1_555
O3_2 C4_2 1_555 1_555
O4_2 C4_2 1_555 1_555
O5_2 C6_2 1_555 1_555
O6_2 C6_2 1_555 1_555
O13 Zn1_2 1_555 1_555
O10_2 Zn1_2 1_555 1_555
Zn3_2 O3_2 1_555 1_555
Zn7_2 O13 1_555 1_555
C1_2 O2_2 1_555 1_555
O10_2 Zn7_2 1_555 1_555
Zn3 N1_3 1_555 1_555
C7_3 H4_3 1_555 1_555
C8_3 C7_3 1_555 1_555
H5_3 C8_3 1_555 1_555
N1_3 C8_3 1_555 1_555
C9_3 H6_3 1_555 1_555
C10_3 C9_3 1_555 1_555
H7_3 C10_3 1_555 1_555
H8_3 C13_3 1_555 1_555
C14_3 C13_3 1_555 1_555
H9_3 C14_3 1_555 1_555
O10_3 Zn5_2 1_555 1_555
Zn4_2 N2_3 1_555 1_555
C1_3 C2_3 1_555 1_555
C2_3 H1_3 1_555 1_555
C3_3 C2_3 1_555 1_555
C4_3 C3_3 1_555 1_555
C5_3 C3_3 1_555 1_555
H2_3 C5_3 1_555 1_555
H3_3 C5_3 1_555 1_555
C6_3 C5_3 1_555 1_555
C12_3 C11_3 1_555 1_555
C15_3 H10_3 1_555 1_555
C16_3 C12_3 1_555 1_555
H11_3 C16_3 1_555 1_555
O1_3 C1_3 1_555 1_555
O2_3 Zn4_2 1_555 1_555
O11 C4_3 1_555 1_555
O8_2 C4_3 1_555 1_555
O5_3 C6_3 1_555 1_555
O6_3 C6_3 1_555 1_555
O7_2 Zn4_2 1_555 1_555
O9_3 Zn4_2 1_555 1_555
Zn7_2 O5_3 1_555 1_555
Zn6_3 O6_3 1_555 1_555
C1_3 O2_3 1_555 1_555
C15_3 N2_3 1_555 1_555
C15_3 C16_3 1_555 1_555
Zn3_2 N1_4 1_555 1_555
C7_4 H4_4 1_555 1_555
C8_4 C7_4 1_555 1_555
H5_4 C8_4 1_555 1_555
H8_4 C13_4 1_555 1_555
C14_4 C13_4 1_555 1_555
N1_4 C8_4 1_555 1_555
C9_4 H6_4 1_555 1_555
C10_4 C9_4 1_555 1_555
H7_4 C10_4 1_555 1_555
C12_4 C11_4 1_555 1_555
C15_4 H10_4 1_555 1_555
C16_4 C12_4 1_555 1_555
H11_4 C16_4 1_555 1_555
C10_4 C11_4 1_555 1_555
C15_4 N2_4 1_555 1_555
C15_4 C16_4 1_555 1_555
O10_4 Zn5 1_555 1_555
C1_4 C2_4 1_555 1_555
C2_4 H1_4 1_555 1_555
C3_4 C2_4 1_555 1_555
C4_4 C3_4 1_555 1_555
C5_4 C3_4 1_555 1_555
H2_4 C5_4 1_555 1_555
H3_4 C5_4 1_555 1_555
C6_4 C5_4 1_555 1_555
O1_4 C1_4 1_555 1_555
O2_4 Zn4 1_555 1_555
O11_2 C4_4 1_555 1_555
O8 C4_4 1_555 1_555
O5_4 C6_4 1_555 1_555
O6_4 C6_4 1_555 1_555
O13_2 Zn4 1_555 1_555
C1_4 O2_4 1_555 1_555
Zn6_4 N1_5 1_555 1_555
C7_5 H4_5 1_555 1_555
C8_5 C7_5 1_555 1_555
H5_5 C8_5 1_555 1_555
C9_5 H6_5 1_555 1_555
C10_5 C9_5 1_555 1_555
H7_5 C10_5 1_555 1_555
N1_5 C8_5 1_555 1_555
O10 Zn6_4 1_555 1_555
C9_5 N1_5 1_555 1_555
Zn7_2 N2_5 1_555 1_555
C1_5 C2_5 1_555 1_555
C2_5 H1_5 1_555 1_555
C3_5 C2_5 1_555 1_555
C4_5 C3_5 1_555 1_555
C5_5 C3_5 1_555 1_555
H2_5 C5_5 1_555 1_555
H3_5 C5_5 1_555 1_555
C6_5 C5_5 1_555 1_555
C12_5 C11_5 1_555 1_555
C13_5 C12_5 1_555 1_555
H8_5 C13_5 1_555 1_555
C14_5 C13_5 1_555 1_555
H9_5 C14_5 1_555 1_555
C15_5 H10_5 1_555 1_555
C16_5 C12_5 1_555 1_555
H11_5 C16_5 1_555 1_555
N2_5 C14_5 1_555 1_555
O1_5 C1_5 1_555 1_555
O2_5 Zn7_2 1_555 1_555
O3_3 C4_5 1_555 1_555
O4_3 C4_5 1_555 1_555
O9_3 C6_5 1_555 1_555
O12_4 C6_5 1_555 1_555
O8_3 Zn7_2 1_555 1_555
Zn6_3 O10_2 1_555 1_555
C1_5 O2_5 1_555 1_555
C15_5 N2_5 1_555 1_555
C15_5 C16_5 1_555 1_555
C1_6 C2_6 1_555 1_555
C2_6 H1_6 1_555 1_555
C3_6 C2_6 1_555 1_555
C4_6 C3_6 1_555 1_555
C5_6 C3_6 1_555 1_555
H2_6 C5_6 1_555 1_555
H3_6 C5_6 1_555 1_555
C6_6 C5_6 1_555 1_555
O1_6 C1_6 1_555 1_555
O2_6 Zn7 1_555 1_555
O3_4 C4_6 1_555 1_555
O4_4 C4_6 1_555 1_555
O9_4 C6_6 1_555 1_555
O12_3 C6_6 1_555 1_555
Zn6 O3_4 1_555 1_555
C1_6 O2_6 1_555 1_555
Zn6_3 N1_6 1_555 1_555
C7_6 H4_6 1_555 1_555
C8_6 C7_6 1_555 1_555
H5_6 C8_6 1_555 1_555
C9_6 H6_6 1_555 1_555
C10_6 C9_6 1_555 1_555
H7_6 C10_6 1_555 1_555
C11_6 C7_6 1_555 1_555
C12_6 C11_6 1_555 1_555
C13_6 C12_6 1_555 1_555
H8_6 C13_6 1_555 1_555
C14_6 C13_6 1_555 1_555
C15_6 H10_6 1_555 1_555
C16_6 C12_6 1_555 1_555
H11_6 C16_6 1_555 1_555
N1_6 C8_6 1_555 1_555
N2_6 C14_6 1_555 1_555
O11_4 Zn6_3 1_555 1_555
C9_6 N1_6 1_555 1_555
C10_6 C11_6 1_555 1_555
C15_6 N2_6 1_555 1_555
C15_6 C16_6 1_555 1_555
Zn5 N2_7 1_555 1_555
C1_7 C2_7 1_555 1_555
C2_7 H1_7 1_555 1_555
C3_7 C2_7 1_555 1_555
C4_7 C3_7 1_555 1_555
C5_7 C3_7 1_555 1_555
H2_7 C5_7 1_555 1_555
H3_7 C5_7 1_555 1_555
C6_7 C5_7 1_555 1_555
C12_7 C11_7 1_555 1_555
C15_7 H10_7 1_555 1_555
C16_7 C12_7 1_555 1_555
H11_7 C16_7 1_555 1_555
O1_7 C1_7 1_555 1_555
O2_7 Zn5 1_555 1_555
O11_3 C4_7 1_555 1_555
O8_4 C4_7 1_555 1_555
O9 C6_7 1_555 1_555
O12_2 C6_7 1_555 1_555
C1_7 O2_7 1_555 1_555
C15_7 N2_7 1_555 1_555
C15_7 C16_7 1_555 1_555
H8_7 C13_7 1_555 1_555
C14_7 C13_7 1_555 1_555
H9_7 C14_7 1_555 1_555
C9_7 H6_7 1_555 1_555
C10_7 C9_7 1_555 1_555
H7_7 C10_7 1_555 1_555
Zn6_2 N1_7 1_555 1_555
C7_7 H4_7 1_555 1_555
C8_7 C7_7 1_555 1_555
H5_7 C8_7 1_555 1_555
N1_7 C8_7 1_555 1_555
C1_8 C2_8 1_555 1_555
C2_8 H1_8 1_555 1_555
C3_8 C2_8 1_555 1_555
C4_8 C3_8 1_555 1_555
C5_8 C3_8 1_555 1_555
H2_8 C5_8 1_555 1_555
H3_8 C5_8 1_555 1_555
C6_8 C5_8 1_555 1_555
O1_8 C1_8 1_555 1_555
O2_8 Zn5_2 1_555 1_555
O11_4 C4_8 1_555 1_555
O8_3 C4_8 1_555 1_555
O9_2 C6_8 1_555 1_555
O12 C6_8 1_555 1_555
C1_8 O2_8 1_555 1_555
C9_8 H6_8 1_555 1_555
C10_8 C9_8 1_555 1_555
H7_8 C10_8 1_555 1_555
C12_8 C11_8 1_555 1_555
C15_8 H10_8 1_555 1_555
C16_8 C12_8 1_555 1_555
H11_8 C16_8 1_555 1_555
C10_8 C11_8 1_555 1_555
C15_8 N2_8 1_555 1_555
C15_8 C16_8 1_555 1_555
Zn6 N1_8 1_555 1_555
C7_8 H4_8 1_555 1_555
C8_8 C7_8 1_555 1_555
H5_8 C8_8 1_555 1_555
H8_8 C13_8 1_555 1_555
C14_8 C13_8 1_555 1_555
N1_8 C8_8 1_555 1_555

#END
