
###############################################################################
#
# This file contains modified crystal structure data generated from the
# MOF subset of the Cambridge Structural Database (CSD) v543 
# hosted by the Cambridge Crystallographic Data Centre (CCDC).
#
# This work is licensed under the Creative Commons
# Attribution-NonCommercial-ShareAlike 4.0 International License.
# To view a copy of this license, visit
# http://creativecommons.org/licenses/by-nc-sa/4.0/
# or send a letter to
# Creative Commons, PO Box 1866, Mountain View, CA 94042, USA.
#
# CIF created using the CSD Python API on 29 September 2022
# The structure has been converted into the P1 space group
# The structure has a 3D framework
# The original CSD entry OBURUC is in the monoclinic crystal system
# The framework has been calculated to contain at least 10.0% void space
# The void calculation uses a probe of radius 1.32A, grid spacing 0.4
#
###############################################################################

data_OBURUC
_chemical_formula_moiety         '(C96 H48 Cd8 N48 O38)n'
_symmetry_cell_setting           triclinic
_symmetry_space_group_name_H-M   'P 1'
_symmetry_Int_Tables_number      1
_space_group_name_Hall           'P 1'
loop_
_symmetry_equiv_pos_site_id
_symmetry_equiv_pos_as_xyz
1 x,y,z
_cell_length_a                   13.43470(10)
_cell_length_b                   13.58210(10)
_cell_length_c                   19.9582(2)
_cell_angle_alpha                90
_cell_angle_beta                 100.5430(10)
_cell_angle_gamma                90
_cell_volume                     3580.32
loop_
_atom_site_label
_atom_site_type_symbol
_atom_site_fract_x
_atom_site_fract_y
_atom_site_fract_z
Cd4 Cd 0.11521(2) 0.23160(2) 0.01526(2)
N12 N 0.0052(2) 0.34142(19) 0.95005(12)
C20 C 0.0014(2) 0.3966(2) 0.61093(15)
H9 H 0.062042 0.396227 0.642038
C23 C 0.0084(2) 0.3748(2) 0.88879(15)
H11 H 0.058876 0.360219 0.864049
Cd5 Cd 0.11521(2) 0.26840(2) 0.51526(2)
N14 N 0.01067(19) 0.6391(2) 0.45128(12)
Cd1 Cd 0.88479(2) 0.73160(2) 0.48474(2)
O1 O 0.78186(16) 0.63745(17) 0.40951(11)
O2 O 0.61871(17) 0.64848(19) 0.41887(11)
O3 O 0.76757(17) 0.6260(2) 0.13238(12)
O4 O 0.60268(16) 0.66424(17) 0.10440(11)
O5 O 0.750000 0.8338(2) 0.500000
N1 N 0.6577(2) 0.4229(3) 0.43303(15)
N2 N 0.58474(18) 0.43305(18) 0.37691(11)
N3 N 0.51067(19) 0.3609(2) 0.45128(12)
N4 N 0.57120(18) 0.43292(18) 0.13290(11)
N5 N 0.6292(3) 0.4382(3) 0.08389(15)
N6 N 0.4948(2) 0.34142(19) 0.04995(12)
C1 C 0.6898(2) 0.62195(19) 0.39101(13)
C2 C 0.6601(2) 0.56818(19) 0.32383(13)
C3 C 0.6859(2) 0.60950(19) 0.26580(13)
H1 H 0.724902 0.666468 0.269929
C4 C 0.65495(19) 0.5682(2) 0.20164(13)
C5 C 0.6005(2) 0.48073(19) 0.19716(13)
C6 C 0.5777(2) 0.4354(2) 0.25498(13)
H2 H 0.543809 0.375448 0.251584
C7 C 0.6062(2) 0.48060(19) 0.31742(13)
C8 C 0.4986(2) 0.3966(2) 0.38907(15)
H3 H 0.437958 0.396227 0.357962
C9 C 0.6094(3) 0.3794(3) 0.47573(17)
H4 H 0.640582 0.362316 0.519702
C10 C 0.6775(2) 0.6237(2) 0.14022(14)
C11 C 0.4916(2) 0.3748(2) 0.11121(15)
H5 H 0.441124 0.360219 0.135951
C12 C 0.5795(3) 0.3833(3) 0.03584(18)
Cd2 Cd 0.61521(2) 0.73160(2) 0.51526(2)
O6 O 0.71814(16) 0.63745(17) 0.59049(11)
O7 O 0.88129(17) 0.64848(19) 0.58113(11)
O8 O 0.73243(17) 0.6260(2) 0.86762(12)
O9 O 0.89732(16) 0.66424(17) 0.89560(11)
N7 N 0.8423(2) 0.4229(3) 0.56697(15)
N8 N 0.91526(18) 0.43305(18) 0.62309(11)
N9 N 0.98933(19) 0.3609(2) 0.54872(12)
N10 N 0.92880(18) 0.43292(18) 0.86710(11)
N11 N 0.8708(3) 0.4382(3) 0.91611(15)
C13 C 0.8102(2) 0.62195(19) 0.60899(13)
C14 C 0.8399(2) 0.56818(19) 0.67617(13)
C15 C 0.8141(2) 0.60950(19) 0.73420(13)
H7 H 0.775098 0.666468 0.730071
C16 C 0.84505(19) 0.5682(2) 0.79836(13)
C17 C 0.8995(2) 0.48073(19) 0.80284(13)
C18 C 0.9223(2) 0.4354(2) 0.74502(13)
H8 H 0.956191 0.375448 0.748416
C19 C 0.8938(2) 0.48060(19) 0.68258(13)
C21 C 0.8906(3) 0.3794(3) 0.52427(17)
H10 H 0.859418 0.362316 0.480298
C22 C 0.8225(2) 0.6237(2) 0.85978(14)
C24 C 0.9205(3) 0.3833(3) 0.96416(18)
Cd6 Cd 0.38479(2) 0.26840(2) 0.48474(2)
Cd7 Cd 0.61521(2) 0.76840(2) 0.01526(2)
Cd8 Cd 0.88479(2) 0.76840(2) 0.98474(2)
O10 O 0.89732(16) 0.83576(17) 0.39560(11)
O11 O 0.60268(16) 0.83576(17) 0.60440(11)
N13 N 0.48933(19) 0.6391(2) 0.54872(12)
N15 N 0.9948(2) 0.84142(19) 0.54995(12)
N16 N 0.5052(2) 0.84142(19) 0.45005(12)
H6 H 0.600878 0.373506 0.994579
Cd3 Cd 0.38479(2) 0.23160(2) 0.98474(2)
O5_2 O 0.250000 0.3338(2) 0.000000
O6_2 O 0.21814(16) 0.13745(17) 0.09049(11)
O7_2 O 0.38129(17) 0.14848(19) 0.08113(11)
O8_2 O 0.23243(17) 0.1260(2) 0.36762(12)
O9_2 O 0.39732(16) 0.16424(17) 0.39560(11)
C13_2 C 0.3102(2) 0.12195(19) 0.10899(13)
C14_2 C 0.3399(2) 0.06818(19) 0.17617(13)
C15_2 C 0.3141(2) 0.10950(19) 0.23420(13)
H7_2 H 0.275098 0.166468 0.230071
C16_2 C 0.34505(19) 0.0682(2) 0.29836(13)
C22_2 C 0.3225(2) 0.1237(2) 0.35978(14)
O11_2 O 0.10268(16) 0.33576(17) 0.10440(11)
O1_2 O 0.28186(16) 0.13745(17) 0.90951(11)
O2_2 O 0.11871(17) 0.14848(19) 0.91887(11)
O3_2 O 0.26757(17) 0.1260(2) 0.63238(12)
O4_2 O 0.10268(16) 0.16424(17) 0.60440(11)
O5_3 O 0.250000 0.3338(2) 1.000000
C1_2 C 0.1898(2) 0.12195(19) 0.89101(13)
C2_2 C 0.1601(2) 0.06818(19) 0.82383(13)
C3_2 C 0.1859(2) 0.10950(19) 0.76580(13)
H1_2 H 0.224902 0.166468 0.769929
C4_2 C 0.15495(19) 0.0682(2) 0.70164(13)
C10_2 C 0.1775(2) 0.1237(2) 0.64022(14)
O10_2 O 0.39732(16) 0.33576(17) 0.89560(11)
N14_2 N 0.51067(19) 0.1391(2) 0.95128(12)
H4_2 H 0.140582 0.862316 0.019702
N7_2 N 0.3423(2) 0.9229(3) 0.06697(15)
N8_2 N 0.41526(18) 0.93305(18) 0.12309(11)
N9_2 N 0.48933(19) 0.8609(2) 0.04872(12)
N10_2 N 0.42880(18) 0.93292(18) 0.36710(11)
N11_2 N 0.3708(3) 0.9382(3) 0.41611(15)
C17_2 C 0.3995(2) 0.98073(19) 0.30284(13)
C18_2 C 0.4223(2) 0.9354(2) 0.24502(13)
H8_2 H 0.456191 0.875448 0.248416
C19_2 C 0.3938(2) 0.98060(19) 0.18258(13)
C20_2 C 0.5014(2) 0.8966(2) 0.11093(15)
H9_2 H 0.562042 0.896227 0.142038
C21_2 C 0.3906(3) 0.8794(3) 0.02427(17)
C23_2 C 0.5084(2) 0.8748(2) 0.38879(15)
H11_2 H 0.558876 0.860219 0.364049
C24_2 C 0.4205(3) 0.8833(3) 0.46416(18)
H12 H 0.399122 0.873506 0.505421
C8_2 C 0.9986(2) 0.8966(2) 0.88907(15)
H3_2 H 0.937958 0.896227 0.857962
C11_2 C 0.9916(2) 0.8748(2) 0.61121(15)
H5_2 H 0.941124 0.860219 0.635951
H6_2 H 0.399122 0.626494 0.005421
O1_3 O 0.21814(16) 0.36255(17) 0.59049(11)
O2_3 O 0.38129(17) 0.35152(19) 0.58113(11)
O3_3 O 0.23243(17) 0.3740(2) 0.86762(12)
O5_4 O 0.250000 0.1662(2) 0.500000
N1_2 N 0.3423(2) 0.5771(3) 0.56697(15)
N2_2 N 0.41526(18) 0.56695(18) 0.62309(11)
N4_2 N 0.42880(18) 0.56708(18) 0.86710(11)
N5_2 N 0.3708(3) 0.5618(3) 0.91611(15)
N6_2 N 0.5052(2) 0.65858(19) 0.95005(12)
C1_3 C 0.3102(2) 0.37805(19) 0.60899(13)
C2_3 C 0.3399(2) 0.43182(19) 0.67617(13)
C3_3 C 0.3141(2) 0.39050(19) 0.73420(13)
H1_3 H 0.275098 0.333532 0.730071
C4_3 C 0.34505(19) 0.4318(2) 0.79836(13)
C5_2 C 0.3995(2) 0.51927(19) 0.80284(13)
C6_2 C 0.4223(2) 0.5646(2) 0.74502(13)
H2_2 H 0.456191 0.624552 0.748416
C7_2 C 0.3938(2) 0.51940(19) 0.68258(13)
C8_3 C 0.5014(2) 0.6034(2) 0.61093(15)
H3_3 H 0.562042 0.603773 0.642038
C9_2 C 0.3906(3) 0.6206(3) 0.52427(17)
H4_3 H 0.359418 0.637684 0.480298
C10_3 C 0.3225(2) 0.3763(2) 0.85978(14)
C11_3 C 0.5084(2) 0.6252(2) 0.88879(15)
H5_3 H 0.558876 0.639781 0.864049
C12_2 C 0.4205(3) 0.6167(3) 0.96416(18)
O6_3 O 0.28186(16) 0.36255(17) 0.40951(11)
O7_3 O 0.11871(17) 0.35152(19) 0.41887(11)
O8_3 O 0.26757(17) 0.3740(2) 0.13238(12)
N7_3 N 0.1577(2) 0.5771(3) 0.43303(15)
N8_3 N 0.08474(18) 0.56695(18) 0.37691(11)
N10_3 N 0.07120(18) 0.56708(18) 0.13290(11)
N11_3 N 0.1292(3) 0.5618(3) 0.08389(15)
C13_3 C 0.1898(2) 0.37805(19) 0.39101(13)
C14_3 C 0.1601(2) 0.43182(19) 0.32383(13)
C15_3 C 0.1859(2) 0.39050(19) 0.26580(13)
H7_3 H 0.224902 0.333532 0.269929
C16_3 C 0.15495(19) 0.4318(2) 0.20164(13)
C17_3 C 0.1005(2) 0.51927(19) 0.19716(13)
C18_3 C 0.0777(2) 0.5646(2) 0.25498(13)
H8_3 H 0.043809 0.624552 0.251584
C19_3 C 0.1062(2) 0.51940(19) 0.31742(13)
C21_3 C 0.1094(3) 0.6206(3) 0.47573(17)
H10_2 H 0.140582 0.637684 0.519702
C22_3 C 0.1775(2) 0.3763(2) 0.14022(14)
C24_3 C 0.0795(3) 0.6167(3) 0.03584(18)
N15_2 N 0.0052(2) 0.15858(19) 0.45005(12)
N16_2 N 0.4948(2) 0.15858(19) 0.54995(12)
N12_2 N 0.9948(2) 0.65858(19) 0.04995(12)
C20_3 C 0.9986(2) 0.6034(2) 0.38907(15)
H9_3 H 0.937958 0.603773 0.357962
C23_3 C 0.9916(2) 0.6252(2) 0.11121(15)
H11_3 H 0.941124 0.639781 0.135951
C8_4 C 0.0014(2) 0.1034(2) 0.11093(15)
H3_4 H 0.062042 0.103773 0.142038
C11_4 C 0.0084(2) 0.1252(2) 0.38879(15)
H5_4 H 0.058876 0.139781 0.364049
H4_4 H 0.859418 0.137684 0.980298
N7_4 N 0.6577(2) 0.0771(3) 0.93303(15)
N8_4 N 0.58474(18) 0.06695(18) 0.87691(11)
N10_4 N 0.57120(18) 0.06708(18) 0.63290(11)
N11_4 N 0.6292(3) 0.0618(3) 0.58389(15)
C17_4 C 0.6005(2) 0.01927(19) 0.69716(13)
C18_4 C 0.5777(2) 0.0646(2) 0.75498(13)
H8_4 H 0.543809 0.124552 0.751584
C19_4 C 0.6062(2) 0.01940(19) 0.81742(13)
C20_4 C 0.4986(2) 0.1034(2) 0.88907(15)
H9_4 H 0.437958 0.103773 0.857962
C21_4 C 0.6094(3) 0.1206(3) 0.97573(17)
C23_4 C 0.4916(2) 0.1252(2) 0.61121(15)
H11_4 H 0.441124 0.139781 0.635951
C24_4 C 0.5795(3) 0.1167(3) 0.53584(18)
H12_2 H 0.600878 0.126494 0.494579
O1_4 O 0.71814(16) 0.86255(17) 0.09049(11)
O2_4 O 0.88129(17) 0.85152(19) 0.08113(11)
O3_4 O 0.73243(17) 0.8740(2) 0.36762(12)
O5_5 O 0.750000 0.6662(2) 0.000000
C1_4 C 0.8102(2) 0.87805(19) 0.10899(13)
C2_4 C 0.8399(2) 0.93182(19) 0.17617(13)
C3_4 C 0.8141(2) 0.89050(19) 0.23420(13)
H1_4 H 0.775098 0.833532 0.230071
C4_4 C 0.84505(19) 0.9318(2) 0.29836(13)
C10_4 C 0.8225(2) 0.8763(2) 0.35978(14)
O5_6 O 0.750000 0.6662(2) 1.000000
O6_4 O 0.78186(16) 0.86255(17) 0.90951(11)
O7_4 O 0.61871(17) 0.85152(19) 0.91887(11)
O8_4 O 0.76757(17) 0.8740(2) 0.63238(12)
C13_4 C 0.6898(2) 0.87805(19) 0.89101(13)
C14_4 C 0.6601(2) 0.93182(19) 0.82383(13)
C15_4 C 0.6859(2) 0.89050(19) 0.76580(13)
H7_4 H 0.724902 0.833532 0.769929
C16_4 C 0.65495(19) 0.9318(2) 0.70164(13)
C22_4 C 0.6775(2) 0.8763(2) 0.64022(14)
H12_3 H 0.899122 0.373506 0.005421
N1_3 N 0.1577(2) 0.9229(3) 0.93303(15)
N2_3 N 0.08474(18) 0.93305(18) 0.87691(11)
N3_2 N 0.01067(19) 0.8609(2) 0.95128(12)
N4_3 N 0.07120(18) 0.93292(18) 0.63290(11)
N5_3 N 0.1292(3) 0.9382(3) 0.58389(15)
C5_3 C 0.1005(2) 0.98073(19) 0.69716(13)
C6_3 C 0.0777(2) 0.9354(2) 0.75498(13)
H2_3 H 0.043809 0.875448 0.751584
C7_3 C 0.1062(2) 0.98060(19) 0.81742(13)
C9_3 C 0.1094(3) 0.8794(3) 0.97573(17)
C12_3 C 0.0795(3) 0.8833(3) 0.53584(18)
H6_3 H 0.100878 0.873506 0.494579
H10_3 H 0.359418 0.862316 0.980298
N13_2 N 0.98933(19) 0.1391(2) 0.04872(12)
N1_4 N 0.8423(2) 0.0771(3) 0.06697(15)
N2_4 N 0.91526(18) 0.06695(18) 0.12309(11)
N4_4 N 0.92880(18) 0.06708(18) 0.36710(11)
N5_4 N 0.8708(3) 0.0618(3) 0.41611(15)
C5_4 C 0.8995(2) 0.01927(19) 0.30284(13)
C6_4 C 0.9223(2) 0.0646(2) 0.24502(13)
H2_4 H 0.956191 0.124552 0.248416
C7_4 C 0.8938(2) 0.01940(19) 0.18258(13)
C9_4 C 0.8906(3) 0.1206(3) 0.02427(17)
C12_4 C 0.9205(3) 0.1167(3) 0.46416(18)
H6_4 H 0.899122 0.126494 0.505421
H10_4 H 0.640582 0.137684 0.019702
H12_4 H 0.100878 0.626494 0.994579
loop_
_geom_bond_atom_site_label_1
_geom_bond_atom_site_label_2
_geom_bond_site_symmetry_1
_geom_bond_site_symmetry_2
N12 C23 1_555 1_555
H9 C20 1_555 1_555
H11 C23 1_555 1_555
Cd1 O1 1_555 1_555
O1 C1 1_555 1_555
O2 C1 1_555 1_555
O3 C10 1_555 1_555
O4 C10 1_555 1_555
O5 Cd1 1_555 1_555
N1 N2 1_555 1_555
N2 C7 1_555 1_555
N3 C8 1_555 1_555
N4 N5 1_555 1_555
N5 C12 1_555 1_555
N6 C11 1_555 1_555
C1 C2 1_555 1_555
C2 C3 1_555 1_555
C3 H1 1_555 1_555
C4 C3 1_555 1_555
C5 N4 1_555 1_555
C6 C5 1_555 1_555
H2 C6 1_555 1_555
C7 C2 1_555 1_555
C8 N2 1_555 1_555
H3 C8 1_555 1_555
C9 N1 1_555 1_555
H4 C9 1_555 1_555
C10 C4 1_555 1_555
C11 N4 1_555 1_555
H5 C11 1_555 1_555
C12 N6 1_555 1_555
Cd2 O2 1_555 1_555
O6 Cd2 1_555 1_555
O7 Cd1 1_555 1_555
O8 C22 1_555 1_555
O9 C22 1_555 1_555
N7 N8 1_555 1_555
N8 C19 1_555 1_555
N10 N11 1_555 1_555
N11 C24 1_555 1_555
C13 O6 1_555 1_555
C14 C13 1_555 1_555
C15 C14 1_555 1_555
H7 C15 1_555 1_555
C16 C15 1_555 1_555
C17 N10 1_555 1_555
C18 C17 1_555 1_555
H8 C18 1_555 1_555
C19 C14 1_555 1_555
C21 N7 1_555 1_555
H10 C21 1_555 1_555
C22 C16 1_555 1_555
Cd6 N3 1_555 1_555
Cd7 O4 1_555 1_555
Cd8 O9 1_555 1_555
O10 Cd1 1_555 1_555
O11 Cd2 1_555 1_555
N13 Cd2 1_555 1_555
N15 Cd1 1_555 1_555
N16 Cd2 1_555 1_555
O5 Cd2 1_555 1_555
N3 C9 1_555 1_555
C4 C5 1_555 1_555
C6 C7 1_555 1_555
O7 C13 1_555 1_555
N9 C21 1_555 1_555
C16 C17 1_555 1_555
C18 C19 1_555 1_555
O6_2 Cd4 1_555 1_555
O8_2 C22_2 1_555 1_555
O9_2 C22_2 1_555 1_555
C13_2 O6_2 1_555 1_555
C14_2 C13_2 1_555 1_555
C15_2 C14_2 1_555 1_555
H7_2 C15_2 1_555 1_555
C16_2 C15_2 1_555 1_555
C22_2 C16_2 1_555 1_555
Cd6 O9_2 1_555 1_555
O11_2 Cd4 1_555 1_555
O5_2 Cd4 1_555 1_555
O7_2 C13_2 1_555 1_555
Cd3 O1_2 1_555 1_555
O1_2 C1_2 1_555 1_555
O2_2 C1_2 1_555 1_555
O3_2 C10_2 1_555 1_555
O4_2 C10_2 1_555 1_555
O5_3 Cd3 1_555 1_555
C1_2 C2_2 1_555 1_555
C2_2 C3_2 1_555 1_555
C3_2 H1_2 1_555 1_555
C4_2 C3_2 1_555 1_555
C10_2 C4_2 1_555 1_555
Cd5 O4_2 1_555 1_555
O10_2 Cd3 1_555 1_555
N14_2 Cd3 1_555 1_555
N7_2 N8_2 1_555 1_555
N8_2 C19_2 1_555 1_555
N9_2 C20_2 1_555 1_555
N10_2 N11_2 1_555 1_555
N11_2 C24_2 1_555 1_555
N16 C23_2 1_555 1_555
C17_2 N10_2 1_555 1_555
C18_2 C17_2 1_555 1_555
H8_2 C18_2 1_555 1_555
C20_2 N8_2 1_555 1_555
H9_2 C20_2 1_555 1_555
C21_2 N7_2 1_555 1_555
C23_2 N10_2 1_555 1_555
H11_2 C23_2 1_555 1_555
C24_2 N16 1_555 1_555
H12 C24_2 1_555 1_555
Cd7 N9_2 1_555 1_555
N9_2 C21_2 1_555 1_555
C18_2 C19_2 1_555 1_555
N15 C11_2 1_555 1_555
H3_2 C8_2 1_555 1_555
H5_2 C11_2 1_555 1_555
Cd5 O1_3 1_555 1_555
O1_3 C1_3 1_555 1_555
O2_3 C1_3 1_555 1_555
O3_3 C10_3 1_555 1_555
O10_2 C10_3 1_555 1_555
O5_4 Cd5 1_555 1_555
N1_2 N2_2 1_555 1_555
N2_2 C7_2 1_555 1_555
N13 C8_3 1_555 1_555
N4_2 N5_2 1_555 1_555
N5_2 C12_2 1_555 1_555
N6_2 C11_3 1_555 1_555
C1_3 C2_3 1_555 1_555
C2_3 C3_3 1_555 1_555
C3_3 H1_3 1_555 1_555
C4_3 C3_3 1_555 1_555
C5_2 N4_2 1_555 1_555
C6_2 C5_2 1_555 1_555
H2_2 C6_2 1_555 1_555
C7_2 C2_3 1_555 1_555
C8_3 N2_2 1_555 1_555
H3_3 C8_3 1_555 1_555
C9_2 N1_2 1_555 1_555
H4_3 C9_2 1_555 1_555
C10_3 C4_3 1_555 1_555
C11_3 N4_2 1_555 1_555
H5_3 C11_3 1_555 1_555
C12_2 N6_2 1_555 1_555
Cd6 O2_3 1_555 1_555
O6_3 Cd6 1_555 1_555
O7_3 Cd5 1_555 1_555
O8_3 C22_3 1_555 1_555
O11_2 C22_3 1_555 1_555
N7_3 N8_3 1_555 1_555
N8_3 C19_3 1_555 1_555
N10_3 N11_3 1_555 1_555
N11_3 C24_3 1_555 1_555
C13_3 O6_3 1_555 1_555
C14_3 C13_3 1_555 1_555
C15_3 C14_3 1_555 1_555
H7_3 C15_3 1_555 1_555
C16_3 C15_3 1_555 1_555
C17_3 N10_3 1_555 1_555
C18_3 C17_3 1_555 1_555
H8_3 C18_3 1_555 1_555
C19_3 C14_3 1_555 1_555
C21_3 N7_3 1_555 1_555
H10_2 C21_3 1_555 1_555
C22_3 C16_3 1_555 1_555
N15_2 Cd5 1_555 1_555
N16_2 Cd6 1_555 1_555
O5_4 Cd6 1_555 1_555
N13 C9_2 1_555 1_555
C4_3 C5_2 1_555 1_555
C6_2 C7_2 1_555 1_555
O7_3 C13_3 1_555 1_555
N14 C21_3 1_555 1_555
C16_3 C17_3 1_555 1_555
C18_3 C19_3 1_555 1_555
N12_2 C23_3 1_555 1_555
H9_3 C20_3 1_555 1_555
H11_3 C23_3 1_555 1_555
N15_2 C11_4 1_555 1_555
H3_4 C8_4 1_555 1_555
H5_4 C11_4 1_555 1_555
N7_4 N8_4 1_555 1_555
N8_4 C19_4 1_555 1_555
N14_2 C20_4 1_555 1_555
N10_4 N11_4 1_555 1_555
N11_4 C24_4 1_555 1_555
N16_2 C23_4 1_555 1_555
C17_4 N10_4 1_555 1_555
C18_4 C17_4 1_555 1_555
H8_4 C18_4 1_555 1_555
C20_4 N8_4 1_555 1_555
H9_4 C20_4 1_555 1_555
C21_4 N7_4 1_555 1_555
C23_4 N10_4 1_555 1_555
H11_4 C23_4 1_555 1_555
C24_4 N16_2 1_555 1_555
H12_2 C24_4 1_555 1_555
N14_2 C21_4 1_555 1_555
C18_4 C19_4 1_555 1_555
Cd7 O1_4 1_555 1_555
O1_4 C1_4 1_555 1_555
O2_4 C1_4 1_555 1_555
O3_4 C10_4 1_555 1_555
O10 C10_4 1_555 1_555
O5_5 Cd7 1_555 1_555
C1_4 C2_4 1_555 1_555
C2_4 C3_4 1_555 1_555
C3_4 H1_4 1_555 1_555
C4_4 C3_4 1_555 1_555
C10_4 C4_4 1_555 1_555
O6_4 Cd8 1_555 1_555
O8_4 C22_4 1_555 1_555
O11 C22_4 1_555 1_555
C13_4 O6_4 1_555 1_555
C14_4 C13_4 1_555 1_555
C15_4 C14_4 1_555 1_555
H7_4 C15_4 1_555 1_555
C16_4 C15_4 1_555 1_555
C22_4 C16_4 1_555 1_555
O5_6 Cd8 1_555 1_555
O7_4 C13_4 1_555 1_555
N1_3 N2_3 1_555 1_555
N2_3 C7_3 1_555 1_555
N4_3 N5_3 1_555 1_555
N5_3 C12_3 1_555 1_555
C5_3 N4_3 1_555 1_555
C6_3 C5_3 1_555 1_555
H2_3 C6_3 1_555 1_555
C9_3 N1_3 1_555 1_555
H6_3 C12_3 1_555 1_555
N3_2 C9_3 1_555 1_555
C6_3 C7_3 1_555 1_555
N1_4 N2_4 1_555 1_555
N2_4 C7_4 1_555 1_555
N4_4 N5_4 1_555 1_555
N5_4 C12_4 1_555 1_555
C5_4 N4_4 1_555 1_555
C6_4 C5_4 1_555 1_555
H2_4 C6_4 1_555 1_555
C9_4 N1_4 1_555 1_555
H6_4 C12_4 1_555 1_555
N13_2 C9_4 1_555 1_555
C6_4 C7_4 1_555 1_555

#END
