
###############################################################################
#
# This file contains modified crystal structure data generated from the
# MOF subset of the Cambridge Structural Database (CSD) v543 
# hosted by the Cambridge Crystallographic Data Centre (CCDC).
#
# This work is licensed under the Creative Commons
# Attribution-NonCommercial-ShareAlike 4.0 International License.
# To view a copy of this license, visit
# http://creativecommons.org/licenses/by-nc-sa/4.0/
# or send a letter to
# Creative Commons, PO Box 1866, Mountain View, CA 94042, USA.
#
# CIF created using the CSD Python API on 29 September 2022
# The structure has been converted into the P1 space group
# The structure has a 3D framework
# The original CSD entry OBUROW is in the monoclinic crystal system
# The framework has been calculated to contain at least 10.0% void space
# The void calculation uses a probe of radius 1.32A, grid spacing 0.4
#
###############################################################################

data_OBUROW
_chemical_formula_moiety         '(C96 H48 N48 O38 Zn8)n'
_symmetry_cell_setting           triclinic
_symmetry_space_group_name_H-M   'P 1'
_symmetry_Int_Tables_number      1
_space_group_name_Hall           'P 1'
loop_
_symmetry_equiv_pos_site_id
_symmetry_equiv_pos_as_xyz
1 x,y,z
_cell_length_a                   13.4535(3)
_cell_length_b                   13.1312(4)
_cell_length_c                   19.4357(5)
_cell_angle_alpha                90
_cell_angle_beta                 101.193(3)
_cell_angle_gamma                90
_cell_volume                     3368.21
loop_
_atom_site_label
_atom_site_type_symbol
_atom_site_fract_x
_atom_site_fract_y
_atom_site_fract_z
H6 H 0.418346 0.375830 0.016879
Zn4 Zn 0.61974(2) 0.22980(2) 0.01631(2)
Zn1 Zn 0.38026(2) 0.72980(2) 0.48369(2)
O1 O 0.250000 0.8199(2) 0.500000
O2 O 0.21734(14) 0.63809(16) 0.58488(11)
O3 O 0.38007(15) 0.65026(16) 0.57459(11)
O4 O 0.39098(14) 0.67302(15) 0.89707(11)
O5 O 0.23026(16) 0.6199(2) 0.86836(12)
N1 N 0.42280(17) 0.43043(17) 0.62001(12)
N2 N 0.51603(17) 0.33615(17) 0.95548(13)
N3 N 0.50061(17) 0.35715(18) 0.54549(12)
N4 N 0.43720(17) 0.43043(17) 0.87097(12)
N5 N 0.35029(19) 0.4171(2) 0.56115(15)
N6 N 0.3842(2) 0.4411(2) 0.92369(14)
C1 C 0.30969(19) 0.62284(18) 0.60363(14)
C2 C 0.3199(2) 0.6241(2) 0.86081(14)
C3 C 0.34078(19) 0.56737(19) 0.67281(14)
C4 C 0.3988(2) 0.4787(2) 0.68039(14)
C5 C 0.3138(2) 0.6082(2) 0.73219(14)
H1 H 0.271868 0.665158 0.727373
C6 C 0.3468(2) 0.56772(19) 0.79865(14)
C7 C 0.40462(19) 0.4790(2) 0.80442(14)
C8 C 0.4291(2) 0.4328(2) 0.74535(15)
H2 H 0.465235 0.372073 0.749420
C9 C 0.5154(2) 0.3669(2) 0.89111(16)
H3 H 0.561929 0.347700 0.863823
C10 C 0.5108(2) 0.3948(2) 0.60950(16)
H4 H 0.571026 0.396054 0.642436
C11 C 0.4014(2) 0.3736(3) 0.51833(17)
H5 H 0.371786 0.355463 0.472701
C12 C 0.4358(3) 0.3834(2) 0.97315(17)
Zn2 Zn 0.11974(2) 0.72980(2) 0.51631(2)
O6 O 0.28266(14) 0.63809(16) 0.41512(11)
O7 O 0.11993(15) 0.65026(16) 0.42541(11)
O8 O 0.10902(14) 0.67302(15) 0.10293(11)
O9 O 0.26974(16) 0.6199(2) 0.13164(12)
N7 N 0.07720(17) 0.43043(17) 0.37999(12)
N10 N 0.06280(17) 0.43043(17) 0.12903(12)
N11 N 0.14971(19) 0.4171(2) 0.43885(15)
N12 N 0.1158(2) 0.4411(2) 0.07631(14)
C13 C 0.19031(19) 0.62284(18) 0.39637(14)
C14 C 0.1801(2) 0.6241(2) 0.13919(14)
C15 C 0.15922(19) 0.56737(19) 0.32719(14)
C16 C 0.1012(2) 0.4787(2) 0.31961(14)
C17 C 0.1862(2) 0.6082(2) 0.26781(14)
H7 H 0.228132 0.665158 0.272627
C18 C 0.1532(2) 0.56772(19) 0.20135(14)
C19 C 0.09538(19) 0.4790(2) 0.19558(14)
C20 C 0.0709(2) 0.4328(2) 0.25465(15)
H8 H 0.034765 0.372073 0.250580
C23 C 0.0986(2) 0.3736(3) 0.48167(17)
H11 H 0.128214 0.355463 0.527299
C24 C 0.0642(3) 0.3834(2) 0.02685(17)
Zn5 Zn 0.61974(2) 0.27020(2) 0.51631(2)
Zn7 Zn 0.11974(2) 0.77020(2) 0.01631(2)
Zn8 Zn 0.38026(2) 0.77020(2) 0.98369(2)
O10 O 0.10902(14) 0.82698(15) 0.60293(11)
O11 O 0.39098(14) 0.82698(15) 0.39707(11)
N13 N 0.01603(17) 0.83615(17) 0.45548(13)
N14 N 0.48397(17) 0.83615(17) 0.54452(13)
N15 N 0.49939(17) 0.64285(18) 0.45451(12)
N16 N 0.00061(17) 0.64285(18) 0.54549(12)
N8 N 0.98397(17) 0.33615(17) 0.04452(13)
N9 N 0.99939(17) 0.35715(18) 0.45451(12)
C21 C 0.9846(2) 0.3669(2) 0.10889(16)
H9 H 0.938071 0.347700 0.136177
C22 C 0.9892(2) 0.3948(2) 0.39050(16)
H10 H 0.928974 0.396054 0.357564
Zn6 Zn 0.88026(2) 0.27020(2) 0.48369(2)
Zn3 Zn 0.88026(2) 0.22980(2) 0.98369(2)
N3_2 N 0.00061(17) 0.85715(18) 0.04549(12)
C9_2 C 0.0154(2) 0.8669(2) 0.39111(16)
H3_2 H 0.061929 0.847700 0.363823
C10_2 C 0.0108(2) 0.8948(2) 0.10950(16)
H4_2 H 0.071026 0.896054 0.142436
O1_2 O 0.750000 0.3199(2) 0.000000
O2_2 O 0.71734(14) 0.13809(16) 0.08488(11)
O3_2 O 0.88007(15) 0.15026(16) 0.07459(11)
O4_2 O 0.89098(14) 0.17302(15) 0.39707(11)
O5_2 O 0.73026(16) 0.1199(2) 0.36836(12)
C1_2 C 0.80969(19) 0.12284(18) 0.10363(14)
C2_2 C 0.8199(2) 0.1241(2) 0.36081(14)
C3_2 C 0.84078(19) 0.06737(19) 0.17281(14)
C5_2 C 0.8138(2) 0.1082(2) 0.23219(14)
H1_2 H 0.771868 0.165158 0.227373
C6_2 C 0.8468(2) 0.06772(19) 0.29865(14)
O10_2 O 0.60902(14) 0.32698(15) 0.10293(11)
N16_2 N 0.50061(17) 0.14285(18) 0.04549(12)
O1_3 O 0.750000 0.3199(2) 1.000000
O6_2 O 0.78266(14) 0.13809(16) 0.91512(11)
O7_2 O 0.61993(15) 0.15026(16) 0.92541(11)
O8_2 O 0.60902(14) 0.17302(15) 0.60293(11)
O9_2 O 0.76974(16) 0.1199(2) 0.63164(12)
C13_2 C 0.69031(19) 0.12284(18) 0.89637(14)
C14_2 C 0.6801(2) 0.1241(2) 0.63919(14)
C15_2 C 0.65922(19) 0.06737(19) 0.82719(14)
C17_2 C 0.6862(2) 0.1082(2) 0.76781(14)
H7_2 H 0.728132 0.165158 0.772627
C18_2 C 0.6532(2) 0.06772(19) 0.70135(14)
O11_2 O 0.89098(14) 0.32698(15) 0.89707(11)
N15_2 N 0.99939(17) 0.14285(18) 0.95451(12)
H5_2 H 0.871786 0.855463 0.972701
N7_2 N 0.57720(17) 0.93043(17) 0.87999(12)
N9_2 N 0.49939(17) 0.85715(18) 0.95451(12)
N10_2 N 0.56280(17) 0.93043(17) 0.62903(12)
N11_2 N 0.64971(19) 0.9171(2) 0.93885(15)
N12_2 N 0.6158(2) 0.9411(2) 0.57631(14)
C16_2 C 0.6012(2) 0.9787(2) 0.81961(14)
C19_2 C 0.59538(19) 0.9790(2) 0.69558(14)
C20_2 C 0.5709(2) 0.9328(2) 0.75465(15)
H8_2 H 0.534765 0.872073 0.750580
C21_2 C 0.4846(2) 0.8669(2) 0.60889(16)
H9_2 H 0.438071 0.847700 0.636177
C22_2 C 0.4892(2) 0.8948(2) 0.89050(16)
H10_2 H 0.428974 0.896054 0.857564
C23_2 C 0.5986(2) 0.8736(3) 0.98167(17)
C24_2 C 0.5642(3) 0.8834(2) 0.52685(17)
H12 H 0.581654 0.875830 0.483121
N8_2 N 0.01603(17) 0.66385(17) 0.95548(13)
C21_3 C 0.0154(2) 0.6331(2) 0.89111(16)
H9_3 H 0.061929 0.652300 0.863823
C22_3 C 0.0108(2) 0.6052(2) 0.60950(16)
H10_3 H 0.071026 0.603946 0.642436
O1_4 O 0.750000 0.1801(2) 0.500000
O2_3 O 0.78266(14) 0.36191(16) 0.41512(11)
O3_3 O 0.61993(15) 0.34974(16) 0.42541(11)
O5_3 O 0.76974(16) 0.3801(2) 0.13164(12)
N1_2 N 0.57720(17) 0.56957(17) 0.37999(12)
N2_2 N 0.48397(17) 0.66385(17) 0.04452(13)
N4_2 N 0.56280(17) 0.56957(17) 0.12903(12)
N5_2 N 0.64971(19) 0.5829(2) 0.43885(15)
N6_2 N 0.6158(2) 0.5589(2) 0.07631(14)
C1_3 C 0.69031(19) 0.37716(18) 0.39637(14)
C2_3 C 0.6801(2) 0.3759(2) 0.13919(14)
C3_3 C 0.65922(19) 0.43263(19) 0.32719(14)
C4_2 C 0.6012(2) 0.5213(2) 0.31961(14)
C5_3 C 0.6862(2) 0.3918(2) 0.26781(14)
H1_3 H 0.728132 0.334842 0.272627
C6_3 C 0.6532(2) 0.43228(19) 0.20135(14)
C7_2 C 0.59538(19) 0.5210(2) 0.19558(14)
C8_2 C 0.5709(2) 0.5672(2) 0.25465(15)
H2_2 H 0.534765 0.627927 0.250580
C9_3 C 0.4846(2) 0.6331(2) 0.10889(16)
H3_3 H 0.438071 0.652300 0.136177
C10_3 C 0.4892(2) 0.6052(2) 0.39050(16)
H4_3 H 0.428974 0.603946 0.357564
C11_2 C 0.5986(2) 0.6264(3) 0.48167(17)
H5_3 H 0.628214 0.644537 0.527299
C12_2 C 0.5642(3) 0.6166(2) 0.02685(17)
O6_3 O 0.71734(14) 0.36191(16) 0.58488(11)
O7_3 O 0.88007(15) 0.34974(16) 0.57459(11)
O9_3 O 0.73026(16) 0.3801(2) 0.86836(12)
N7_3 N 0.92280(17) 0.56957(17) 0.62001(12)
N10_3 N 0.93720(17) 0.56957(17) 0.87097(12)
N11_3 N 0.85029(19) 0.5829(2) 0.56115(15)
N12_3 N 0.8842(2) 0.5589(2) 0.92369(14)
C13_3 C 0.80969(19) 0.37716(18) 0.60363(14)
C14_3 C 0.8199(2) 0.3759(2) 0.86081(14)
C15_3 C 0.84078(19) 0.43263(19) 0.67281(14)
C16_3 C 0.8988(2) 0.5213(2) 0.68039(14)
C17_3 C 0.8138(2) 0.3918(2) 0.73219(14)
H7_3 H 0.771868 0.334842 0.727373
C18_3 C 0.8468(2) 0.43228(19) 0.79865(14)
C19_3 C 0.90462(19) 0.5210(2) 0.80442(14)
C20_3 C 0.9291(2) 0.5672(2) 0.74535(15)
H8_3 H 0.965235 0.627927 0.749420
C23_3 C 0.9014(2) 0.6264(3) 0.51833(17)
H11_2 H 0.871786 0.644537 0.472701
C24_3 C 0.9358(3) 0.6166(2) 0.97315(17)
N13_2 N 0.98397(17) 0.16385(17) 0.54452(13)
N14_2 N 0.51603(17) 0.16385(17) 0.45548(13)
H6_2 H 0.581654 0.624170 0.983121
H5_4 H 0.128214 0.144537 0.027299
N7_4 N 0.42280(17) 0.06957(17) 0.12001(12)
N10_4 N 0.43720(17) 0.06957(17) 0.37097(12)
N11_4 N 0.35029(19) 0.0829(2) 0.06115(15)
N12_4 N 0.3842(2) 0.0589(2) 0.42369(14)
C16_4 C 0.3988(2) 0.0213(2) 0.18039(14)
C19_4 C 0.40462(19) 0.0210(2) 0.30442(14)
C20_4 C 0.4291(2) 0.0672(2) 0.24535(15)
H8_4 H 0.465235 0.127927 0.249420
C21_4 C 0.5154(2) 0.1331(2) 0.39111(16)
H9_4 H 0.561929 0.152300 0.363823
C22_4 C 0.5108(2) 0.1052(2) 0.10950(16)
H10_4 H 0.571026 0.103946 0.142436
C23_4 C 0.4014(2) 0.1264(3) 0.01833(17)
C24_4 C 0.4358(3) 0.1166(2) 0.47315(17)
H12_2 H 0.418346 0.124170 0.516879
O1_5 O 0.250000 0.6801(2) 0.000000
O6_4 O 0.21734(14) 0.86191(16) 0.08488(11)
O7_4 O 0.38007(15) 0.84974(16) 0.07459(11)
O9_4 O 0.23026(16) 0.8801(2) 0.36836(12)
C13_4 C 0.30969(19) 0.87716(18) 0.10363(14)
C14_4 C 0.3199(2) 0.8759(2) 0.36081(14)
C15_4 C 0.34078(19) 0.93263(19) 0.17281(14)
C17_4 C 0.3138(2) 0.8918(2) 0.23219(14)
H7_4 H 0.271868 0.834842 0.227373
C18_4 C 0.3468(2) 0.93228(19) 0.29865(14)
O1_6 O 0.250000 0.6801(2) 1.000000
O2_4 O 0.28266(14) 0.86191(16) 0.91512(11)
O3_4 O 0.11993(15) 0.84974(16) 0.92541(11)
O5_4 O 0.26974(16) 0.8801(2) 0.63164(12)
C1_4 C 0.19031(19) 0.87716(18) 0.89637(14)
C2_4 C 0.1801(2) 0.8759(2) 0.63919(14)
C3_4 C 0.15922(19) 0.93263(19) 0.82719(14)
C5_4 C 0.1862(2) 0.8918(2) 0.76781(14)
H1_4 H 0.228132 0.834842 0.772627
C6_4 C 0.1532(2) 0.93228(19) 0.70135(14)
C9_4 C 0.9846(2) 0.1331(2) 0.60889(16)
H3_4 H 0.938071 0.152300 0.636177
C10_4 C 0.9892(2) 0.1052(2) 0.89050(16)
H4_4 H 0.928974 0.103946 0.857564
H12_3 H 0.081654 0.375830 0.983121
N1_3 N 0.92280(17) 0.93043(17) 0.12001(12)
N4_3 N 0.93720(17) 0.93043(17) 0.37097(12)
N5_3 N 0.85029(19) 0.9171(2) 0.06115(15)
N6_3 N 0.8842(2) 0.9411(2) 0.42369(14)
C4_3 C 0.8988(2) 0.9787(2) 0.18039(14)
C7_3 C 0.90462(19) 0.9790(2) 0.30442(14)
C8_3 C 0.9291(2) 0.9328(2) 0.24535(15)
H2_3 H 0.965235 0.872073 0.249420
C11_3 C 0.9014(2) 0.8736(3) 0.01833(17)
C12_3 C 0.9358(3) 0.8834(2) 0.47315(17)
H6_3 H 0.918346 0.875830 0.516879
H11_3 H 0.628214 0.855463 0.027299
H12_4 H 0.918346 0.624170 0.016879
N1_4 N 0.07720(17) 0.06957(17) 0.87999(12)
N4_4 N 0.06280(17) 0.06957(17) 0.62903(12)
N5_4 N 0.14971(19) 0.0829(2) 0.93885(15)
N6_4 N 0.1158(2) 0.0589(2) 0.57631(14)
C4_4 C 0.1012(2) 0.0213(2) 0.81961(14)
C7_4 C 0.09538(19) 0.0210(2) 0.69558(14)
C8_4 C 0.0709(2) 0.0672(2) 0.75465(15)
H2_4 H 0.034765 0.127927 0.750580
C11_4 C 0.0986(2) 0.1264(3) 0.98167(17)
C12_4 C 0.0642(3) 0.1166(2) 0.52685(17)
H6_4 H 0.081654 0.124170 0.483121
H11_4 H 0.371786 0.144537 0.972701
loop_
_geom_bond_atom_site_label_1
_geom_bond_atom_site_label_2
_geom_bond_site_symmetry_1
_geom_bond_site_symmetry_2
Zn1 O1 1_555 1_555
O1 Zn2 1_555 1_555
O2 C1 1_555 1_555
O3 Zn1 1_555 1_555
O4 C2 1_555 1_555
O5 C2 1_555 1_555
N1 N5 1_555 1_555
N2 C9 1_555 1_555
N3 C10 1_555 1_555
N4 N6 1_555 1_555
N5 C11 1_555 1_555
N6 C12 1_555 1_555
C1 O3 1_555 1_555
C2 C6 1_555 1_555
C3 C1 1_555 1_555
C4 N1 1_555 1_555
C5 C3 1_555 1_555
H1 C5 1_555 1_555
C6 C5 1_555 1_555
C7 N4 1_555 1_555
C8 C4 1_555 1_555
H2 C8 1_555 1_555
C9 N4 1_555 1_555
H3 C9 1_555 1_555
C10 N1 1_555 1_555
H4 C10 1_555 1_555
C11 N3 1_555 1_555
H5 C11 1_555 1_555
C12 N2 1_555 1_555
Zn2 O2 1_555 1_555
O6 Zn1 1_555 1_555
O7 Zn2 1_555 1_555
O8 C14 1_555 1_555
O9 C14 1_555 1_555
N7 N11 1_555 1_555
N10 N12 1_555 1_555
N11 C23 1_555 1_555
N12 C24 1_555 1_555
C13 O6 1_555 1_555
C14 C18 1_555 1_555
C15 C13 1_555 1_555
C16 N7 1_555 1_555
C17 C15 1_555 1_555
H7 C17 1_555 1_555
C18 C17 1_555 1_555
C19 N10 1_555 1_555
C20 C16 1_555 1_555
H8 C20 1_555 1_555
H11 C23 1_555 1_555
Zn5 N3 1_555 1_555
Zn7 O8 1_555 1_555
Zn8 O4 1_555 1_555
O10 Zn2 1_555 1_555
O11 Zn1 1_555 1_555
N13 Zn2 1_555 1_555
N14 Zn1 1_555 1_555
N15 Zn1 1_555 1_555
N16 Zn2 1_555 1_555
C3 C4 1_555 1_555
C6 C7 1_555 1_555
C7 C8 1_555 1_555
O7 C13 1_555 1_555
C15 C16 1_555 1_555
C18 C19 1_555 1_555
C19 C20 1_555 1_555
N8 C21 1_555 1_555
N9 C22 1_555 1_555
H9 C21 1_555 1_555
H10 C22 1_555 1_555
Zn6 N9 1_555 1_555
N13 C9_2 1_555 1_555
N3_2 C10_2 1_555 1_555
H3_2 C9_2 1_555 1_555
H4_2 C10_2 1_555 1_555
Zn7 N3_2 1_555 1_555
O1_2 Zn4 1_555 1_555
O2_2 C1_2 1_555 1_555
O4_2 C2_2 1_555 1_555
O5_2 C2_2 1_555 1_555
C1_2 O3_2 1_555 1_555
C2_2 C6_2 1_555 1_555
C3_2 C1_2 1_555 1_555
C5_2 C3_2 1_555 1_555
H1_2 C5_2 1_555 1_555
C6_2 C5_2 1_555 1_555
Zn4 O2_2 1_555 1_555
Zn6 O4_2 1_555 1_555
O10_2 Zn4 1_555 1_555
N16_2 Zn4 1_555 1_555
Zn3 O1_3 1_555 1_555
O6_2 Zn3 1_555 1_555
O8_2 C14_2 1_555 1_555
O9_2 C14_2 1_555 1_555
C13_2 O6_2 1_555 1_555
C14_2 C18_2 1_555 1_555
C15_2 C13_2 1_555 1_555
C17_2 C15_2 1_555 1_555
H7_2 C17_2 1_555 1_555
C18_2 C17_2 1_555 1_555
Zn5 O8_2 1_555 1_555
O11_2 Zn3 1_555 1_555
N15_2 Zn3 1_555 1_555
O7_2 C13_2 1_555 1_555
N7_2 N11_2 1_555 1_555
N14 C21_2 1_555 1_555
N9_2 C22_2 1_555 1_555
N10_2 N12_2 1_555 1_555
N11_2 C23_2 1_555 1_555
N12_2 C24_2 1_555 1_555
C16_2 N7_2 1_555 1_555
C19_2 N10_2 1_555 1_555
C20_2 C16_2 1_555 1_555
H8_2 C20_2 1_555 1_555
C21_2 N10_2 1_555 1_555
H9_2 C21_2 1_555 1_555
C22_2 N7_2 1_555 1_555
H10_2 C22_2 1_555 1_555
C23_2 N9_2 1_555 1_555
C24_2 N14 1_555 1_555
H12 C24_2 1_555 1_555
Zn8 N9_2 1_555 1_555
C19_2 C20_2 1_555 1_555
N8_2 C21_3 1_555 1_555
N16 C22_3 1_555 1_555
H9_3 C21_3 1_555 1_555
H10_3 C22_3 1_555 1_555
Zn5 O1_4 1_555 1_555
O1_4 Zn6 1_555 1_555
O2_3 C1_3 1_555 1_555
O3_3 Zn5 1_555 1_555
O10_2 C2_3 1_555 1_555
O5_3 C2_3 1_555 1_555
N1_2 N5_2 1_555 1_555
N2_2 C9_3 1_555 1_555
N15 C10_3 1_555 1_555
N4_2 N6_2 1_555 1_555
N5_2 C11_2 1_555 1_555
N6_2 C12_2 1_555 1_555
C1_3 O3_3 1_555 1_555
C2_3 C6_3 1_555 1_555
C3_3 C1_3 1_555 1_555
C4_2 N1_2 1_555 1_555
C5_3 C3_3 1_555 1_555
H1_3 C5_3 1_555 1_555
C6_3 C5_3 1_555 1_555
C7_2 N4_2 1_555 1_555
C8_2 C4_2 1_555 1_555
H2_2 C8_2 1_555 1_555
C9_3 N4_2 1_555 1_555
H3_3 C9_3 1_555 1_555
C10_3 N1_2 1_555 1_555
H4_3 C10_3 1_555 1_555
C11_2 N15 1_555 1_555
H5_3 C11_2 1_555 1_555
C12_2 N2_2 1_555 1_555
Zn6 O2_3 1_555 1_555
O6_3 Zn5 1_555 1_555
O7_3 Zn6 1_555 1_555
O11_2 C14_3 1_555 1_555
O9_3 C14_3 1_555 1_555
N7_3 N11_3 1_555 1_555
N10_3 N12_3 1_555 1_555
N11_3 C23_3 1_555 1_555
N12_3 C24_3 1_555 1_555
C13_3 O6_3 1_555 1_555
C14_3 C18_3 1_555 1_555
C15_3 C13_3 1_555 1_555
C16_3 N7_3 1_555 1_555
C17_3 C15_3 1_555 1_555
H7_3 C17_3 1_555 1_555
C18_3 C17_3 1_555 1_555
C19_3 N10_3 1_555 1_555
C20_3 C16_3 1_555 1_555
H8_3 C20_3 1_555 1_555
H11_2 C23_3 1_555 1_555
N13_2 Zn6 1_555 1_555
N14_2 Zn5 1_555 1_555
C3_3 C4_2 1_555 1_555
C6_3 C7_2 1_555 1_555
C7_2 C8_2 1_555 1_555
O7_3 C13_3 1_555 1_555
C15_3 C16_3 1_555 1_555
C18_3 C19_3 1_555 1_555
C19_3 C20_3 1_555 1_555
N7_4 N11_4 1_555 1_555
N14_2 C21_4 1_555 1_555
N16_2 C22_4 1_555 1_555
N10_4 N12_4 1_555 1_555
N11_4 C23_4 1_555 1_555
N12_4 C24_4 1_555 1_555
C16_4 N7_4 1_555 1_555
C19_4 N10_4 1_555 1_555
C20_4 C16_4 1_555 1_555
H8_4 C20_4 1_555 1_555
C21_4 N10_4 1_555 1_555
H9_4 C21_4 1_555 1_555
C22_4 N7_4 1_555 1_555
H10_4 C22_4 1_555 1_555
C23_4 N16_2 1_555 1_555
C24_4 N14_2 1_555 1_555
H12_2 C24_4 1_555 1_555
C19_4 C20_4 1_555 1_555
Zn7 O1_5 1_555 1_555
O6_4 Zn7 1_555 1_555
O11 C14_4 1_555 1_555
O9_4 C14_4 1_555 1_555
C13_4 O6_4 1_555 1_555
C14_4 C18_4 1_555 1_555
C15_4 C13_4 1_555 1_555
C17_4 C15_4 1_555 1_555
H7_4 C17_4 1_555 1_555
C18_4 C17_4 1_555 1_555
O7_4 C13_4 1_555 1_555
O1_6 Zn8 1_555 1_555
O2_4 C1_4 1_555 1_555
O10 C2_4 1_555 1_555
O5_4 C2_4 1_555 1_555
C1_4 O3_4 1_555 1_555
C2_4 C6_4 1_555 1_555
C3_4 C1_4 1_555 1_555
C5_4 C3_4 1_555 1_555
H1_4 C5_4 1_555 1_555
C6_4 C5_4 1_555 1_555
Zn8 O2_4 1_555 1_555
N13_2 C9_4 1_555 1_555
N15_2 C10_4 1_555 1_555
H3_4 C9_4 1_555 1_555
H4_4 C10_4 1_555 1_555
N1_3 N5_3 1_555 1_555
N4_3 N6_3 1_555 1_555
N5_3 C11_3 1_555 1_555
N6_3 C12_3 1_555 1_555
C4_3 N1_3 1_555 1_555
C7_3 N4_3 1_555 1_555
C8_3 C4_3 1_555 1_555
H2_3 C8_3 1_555 1_555
H6_3 C12_3 1_555 1_555
C7_3 C8_3 1_555 1_555
N1_4 N5_4 1_555 1_555
N4_4 N6_4 1_555 1_555
N5_4 C11_4 1_555 1_555
N6_4 C12_4 1_555 1_555
C4_4 N1_4 1_555 1_555
C7_4 N4_4 1_555 1_555
C8_4 C4_4 1_555 1_555
H2_4 C8_4 1_555 1_555
H6_4 C12_4 1_555 1_555
C7_4 C8_4 1_555 1_555

#END
