
###############################################################################
#
# This file contains modified crystal structure data generated from the
# MOF subset of the Cambridge Structural Database (CSD) v543 
# hosted by the Cambridge Crystallographic Data Centre (CCDC).
#
# This work is licensed under the Creative Commons
# Attribution-NonCommercial-ShareAlike 4.0 International License.
# To view a copy of this license, visit
# http://creativecommons.org/licenses/by-nc-sa/4.0/
# or send a letter to
# Creative Commons, PO Box 1866, Mountain View, CA 94042, USA.
#
# CIF created using the CSD Python API on 29 September 2022
# The structure has been converted into the P1 space group
# The structure has a 3D framework
# The original CSD entry OBUSAJ is in the monoclinic crystal system
# The framework has been calculated to contain at least 10.0% void space
# The void calculation uses a probe of radius 1.32A, grid spacing 0.4
#
###############################################################################

data_OBUSAJ
_chemical_formula_moiety         '(C96 H48 Co8 N48 O38)n'
_symmetry_cell_setting           triclinic
_symmetry_space_group_name_H-M   'P 1'
_symmetry_Int_Tables_number      1
_space_group_name_Hall           'P 1'
loop_
_symmetry_equiv_pos_site_id
_symmetry_equiv_pos_as_xyz
1 x,y,z
_cell_length_a                   13.4967(2)
_cell_length_b                   13.0102(2)
_cell_length_c                   19.4055(3)
_cell_angle_alpha                90
_cell_angle_beta                 101.0950(10)
_cell_angle_gamma                90
_cell_volume                     3343.82
loop_
_atom_site_label
_atom_site_type_symbol
_atom_site_fract_x
_atom_site_fract_y
_atom_site_fract_z
H5 H 0.417576 0.626503 0.016584
Co3 Co 0.62111(2) 0.76864(2) 0.01692(2)
Co1 Co 0.12111(2) 0.26864(2) 0.51692(2)
O1 O 0.250000 0.17916(13) 0.500000
O2 O 0.21651(9) 0.36154(11) 0.58522(7)
O3 O 0.37870(9) 0.34988(11) 0.57355(6)
O4 O 0.39043(9) 0.32790(11) 0.89770(6)
O5 O 0.22981(10) 0.38011(13) 0.86802(7)
N1 N 0.42277(11) 0.57065(12) 0.61951(7)
N2 N 0.43629(11) 0.57121(12) 0.87061(7)
N3 N 0.51704(12) 0.66447(12) 0.95540(8)
N4 N 0.50141(12) 0.64385(13) 0.54513(8)
N5 N 0.35119(13) 0.58374(16) 0.56051(9)
N6 N 0.38277(13) 0.56176(15) 0.92311(8)
C1 C 0.31879(13) 0.37682(14) 0.86072(9)
C2 C 0.39806(13) 0.52224(14) 0.67992(9)
C3 C 0.31270(13) 0.39207(14) 0.73198(9)
H1 H 0.270478 0.334964 0.727164
C4 C 0.30867(13) 0.37758(13) 0.60322(8)
C5 C 0.34049(12) 0.43338(14) 0.67243(9)
C6 C 0.40360(13) 0.52249(14) 0.80400(9)
C7 C 0.34592(13) 0.43326(14) 0.79843(8)
C8 C 0.42837(14) 0.56878(14) 0.74502(9)
H2 H 0.464672 0.629952 0.749057
C9 C 0.51079(14) 0.60625(16) 0.60932(10)
H3 H 0.570499 0.604964 0.642513
C10 C 0.51532(14) 0.63257(16) 0.89088(10)
H4 H 0.562272 0.650255 0.863556
C11 C 0.43511(16) 0.61844(17) 0.97284(10)
C12 C 0.40256(15) 0.62744(18) 0.51768(10)
H6 H 0.373409 0.645793 0.471952
Co2 Co 0.37889(2) 0.26864(2) 0.48308(2)
O6 O 0.28349(9) 0.36154(11) 0.41478(7)
O7 O 0.12130(9) 0.34988(11) 0.42645(6)
O8 O 0.10957(9) 0.32790(11) 0.10230(6)
O9 O 0.27019(10) 0.38011(13) 0.13198(7)
N7 N 0.07723(11) 0.57065(12) 0.38049(7)
N8 N 0.06371(11) 0.57121(12) 0.12939(7)
N11 N 0.14881(13) 0.58374(16) 0.43949(9)
N12 N 0.11723(13) 0.56176(15) 0.07689(8)
C13 C 0.18121(13) 0.37682(14) 0.13928(9)
C14 C 0.10194(13) 0.52224(14) 0.32008(9)
C15 C 0.18730(13) 0.39207(14) 0.26802(9)
H7 H 0.229522 0.334964 0.272836
C16 C 0.19133(13) 0.37758(13) 0.39678(8)
C17 C 0.15951(12) 0.43338(14) 0.32757(9)
C18 C 0.09640(13) 0.52249(14) 0.19600(9)
C19 C 0.15408(13) 0.43326(14) 0.20157(8)
C20 C 0.07163(14) 0.56878(14) 0.25498(9)
H8 H 0.035328 0.629952 0.250943
C23 C 0.06489(16) 0.61844(17) 0.02716(10)
C24 C 0.09744(15) 0.62744(18) 0.48232(10)
H12 H 0.126591 0.645793 0.528048
Co6 Co 0.62111(2) 0.73136(2) 0.51692(2)
Co7 Co 0.37889(2) 0.23136(2) 0.98308(2)
Co8 Co 0.12111(2) 0.23136(2) 0.01692(2)
O10 O 0.10957(9) 0.17210(11) 0.60230(6)
O11 O 0.39043(9) 0.17210(11) 0.39770(6)
N13 N 0.01704(12) 0.16447(12) 0.45540(8)
N14 N 0.48296(12) 0.16447(12) 0.54460(8)
N15 N 0.49859(12) 0.35615(13) 0.45487(8)
N16 N 0.00141(12) 0.35615(13) 0.54513(8)
N9 N 0.98296(12) 0.66447(12) 0.04460(8)
N10 N 0.99859(12) 0.64385(13) 0.45487(8)
C21 C 0.98921(14) 0.60625(16) 0.39068(10)
H9 H 0.929501 0.604964 0.357487
C22 C 0.98468(14) 0.63257(16) 0.10912(10)
H10 H 0.937728 0.650255 0.136444
Co5 Co 0.87889(2) 0.73136(2) 0.48308(2)
Co4 Co 0.87889(2) 0.76864(2) 0.98308(2)
N4_2 N 0.00141(12) 0.14385(13) 0.04513(8)
C9_2 C 0.01079(14) 0.10625(16) 0.10932(10)
H3_2 H 0.070499 0.104964 0.142513
C10_2 C 0.01532(14) 0.13257(16) 0.39088(10)
H4_2 H 0.062272 0.150255 0.363556
H6_2 H 0.873409 0.145793 0.971952
N7_2 N 0.57723(11) 0.07065(12) 0.88049(7)
N8_2 N 0.56371(11) 0.07121(12) 0.62939(7)
N10_2 N 0.49859(12) 0.14385(13) 0.95487(8)
N11_2 N 0.64881(13) 0.08374(16) 0.93949(9)
N12_2 N 0.61723(13) 0.06176(15) 0.57689(8)
C14_2 C 0.60194(13) 0.02224(14) 0.82008(9)
C18_2 C 0.59640(13) 0.02249(14) 0.69600(9)
C20_2 C 0.57163(14) 0.06878(14) 0.75498(9)
H8_2 H 0.535328 0.129952 0.750943
C21_2 C 0.48921(14) 0.10625(16) 0.89068(10)
H9_2 H 0.429501 0.104964 0.857487
C22_2 C 0.48468(14) 0.13257(16) 0.60912(10)
H10_2 H 0.437728 0.150255 0.636444
C23_2 C 0.56489(16) 0.11844(17) 0.52716(10)
H11 H 0.582424 0.126503 0.483416
C24_2 C 0.59744(15) 0.12744(18) 0.98232(10)
O1_2 O 0.750000 0.67916(13) 0.000000
O2_2 O 0.71651(9) 0.86154(11) 0.08522(7)
O3_2 O 0.87870(9) 0.84988(11) 0.07355(6)
O4_2 O 0.89043(9) 0.82790(11) 0.39770(6)
O5_2 O 0.72981(10) 0.88011(13) 0.36802(7)
C1_2 C 0.81879(13) 0.87682(14) 0.36072(9)
C3_2 C 0.81270(13) 0.89207(14) 0.23198(9)
H1_2 H 0.770478 0.834964 0.227164
C4_2 C 0.80867(13) 0.87758(13) 0.10322(8)
C5_2 C 0.84049(12) 0.93338(14) 0.17243(9)
C7_2 C 0.84592(13) 0.93326(14) 0.29843(8)
O10_2 O 0.60957(9) 0.67210(11) 0.10230(6)
N16_2 N 0.50141(12) 0.85615(13) 0.04513(8)
O1_3 O 0.750000 0.67916(13) 1.000000
O6_2 O 0.78349(9) 0.86154(11) 0.91478(7)
O7_2 O 0.62130(9) 0.84988(11) 0.92645(6)
O8_2 O 0.60957(9) 0.82790(11) 0.60230(6)
O9_2 O 0.77019(10) 0.88011(13) 0.63198(7)
C13_2 C 0.68121(13) 0.87682(14) 0.63928(9)
C15_2 C 0.68730(13) 0.89207(14) 0.76802(9)
H7_2 H 0.729522 0.834964 0.772836
C16_2 C 0.69133(13) 0.87758(13) 0.89678(8)
C17_2 C 0.65951(12) 0.93338(14) 0.82757(9)
C19_2 C 0.65408(13) 0.93326(14) 0.70157(8)
O11_2 O 0.89043(9) 0.67210(11) 0.89770(6)
N15_2 N 0.99859(12) 0.85615(13) 0.95487(8)
N9_2 N 0.01704(12) 0.33553(12) 0.95540(8)
C21_3 C 0.01079(14) 0.39375(16) 0.60932(10)
H9_3 H 0.070499 0.395036 0.642513
C22_3 C 0.01532(14) 0.36743(16) 0.89088(10)
H10_3 H 0.062272 0.349745 0.863556
O1_4 O 0.750000 0.82084(13) 0.500000
O2_3 O 0.78349(9) 0.63846(11) 0.41478(7)
O3_3 O 0.62130(9) 0.65012(11) 0.42645(6)
O5_3 O 0.77019(10) 0.61989(13) 0.13198(7)
N1_2 N 0.57723(11) 0.42935(12) 0.38049(7)
N2_2 N 0.56371(11) 0.42879(12) 0.12939(7)
N3_2 N 0.48296(12) 0.33553(12) 0.04460(8)
N5_2 N 0.64881(13) 0.41626(16) 0.43949(9)
N6_2 N 0.61723(13) 0.43824(15) 0.07689(8)
C1_3 C 0.68121(13) 0.62318(14) 0.13928(9)
C2_2 C 0.60194(13) 0.47776(14) 0.32008(9)
C3_3 C 0.68730(13) 0.60793(14) 0.26802(9)
H1_3 H 0.729522 0.665036 0.272836
C4_3 C 0.69133(13) 0.62242(13) 0.39678(8)
C5_3 C 0.65951(12) 0.56662(14) 0.32757(9)
C6_2 C 0.59640(13) 0.47751(14) 0.19600(9)
C7_3 C 0.65408(13) 0.56674(14) 0.20157(8)
C8_2 C 0.57163(14) 0.43122(14) 0.25498(9)
H2_2 H 0.535328 0.370048 0.250943
C9_3 C 0.48921(14) 0.39375(16) 0.39068(10)
H3_3 H 0.429501 0.395036 0.357487
C10_3 C 0.48468(14) 0.36743(16) 0.10912(10)
H4_3 H 0.437728 0.349745 0.136444
C11_2 C 0.56489(16) 0.38156(17) 0.02716(10)
C12_2 C 0.59744(15) 0.37256(18) 0.48232(10)
H6_3 H 0.626591 0.354207 0.528048
O6_3 O 0.71651(9) 0.63846(11) 0.58522(7)
O7_3 O 0.87870(9) 0.65012(11) 0.57355(6)
O9_3 O 0.72981(10) 0.61989(13) 0.86802(7)
N7_3 N 0.92277(11) 0.42935(12) 0.61951(7)
N8_3 N 0.93629(11) 0.42879(12) 0.87061(7)
N11_3 N 0.85119(13) 0.41626(16) 0.56051(9)
N12_3 N 0.88277(13) 0.43824(15) 0.92311(8)
C13_3 C 0.81879(13) 0.62318(14) 0.86072(9)
C14_3 C 0.89806(13) 0.47776(14) 0.67992(9)
C15_3 C 0.81270(13) 0.60793(14) 0.73198(9)
H7_3 H 0.770478 0.665036 0.727164
C16_3 C 0.80867(13) 0.62242(13) 0.60322(8)
C17_3 C 0.84049(12) 0.56662(14) 0.67243(9)
C18_3 C 0.90360(13) 0.47751(14) 0.80400(9)
C19_3 C 0.84592(13) 0.56674(14) 0.79843(8)
C20_3 C 0.92837(14) 0.43122(14) 0.74502(9)
H8_3 H 0.964672 0.370048 0.749057
C23_3 C 0.93511(16) 0.38156(17) 0.97284(10)
C24_3 C 0.90256(15) 0.37256(18) 0.51768(10)
H12_2 H 0.873409 0.354207 0.471952
N13_2 N 0.98296(12) 0.83553(12) 0.54460(8)
N14_2 N 0.51704(12) 0.83553(12) 0.45540(8)
H5_2 H 0.582424 0.373497 0.983416
O1_5 O 0.250000 0.32084(13) 0.000000
O6_4 O 0.21651(9) 0.13846(11) 0.08522(7)
O7_4 O 0.37870(9) 0.15012(11) 0.07355(6)
O9_4 O 0.22981(10) 0.11989(13) 0.36802(7)
C13_4 C 0.31879(13) 0.12318(14) 0.36072(9)
C15_4 C 0.31270(13) 0.10793(14) 0.23198(9)
H7_4 H 0.270478 0.165036 0.227164
C16_4 C 0.30867(13) 0.12242(13) 0.10322(8)
C17_4 C 0.34049(12) 0.06662(14) 0.17243(9)
C19_4 C 0.34592(13) 0.06674(14) 0.29843(8)
O1_6 O 0.250000 0.32084(13) 1.000000
O2_4 O 0.28349(9) 0.13846(11) 0.91478(7)
O3_4 O 0.12130(9) 0.15012(11) 0.92645(6)
O5_4 O 0.27019(10) 0.11989(13) 0.63198(7)
C1_4 C 0.18121(13) 0.12318(14) 0.63928(9)
C3_4 C 0.18730(13) 0.10793(14) 0.76802(9)
H1_4 H 0.229522 0.165036 0.772836
C4_4 C 0.19133(13) 0.12242(13) 0.89678(8)
C5_4 C 0.15951(12) 0.06662(14) 0.82757(9)
C7_4 C 0.15408(13) 0.06674(14) 0.70157(8)
H6_4 H 0.126591 0.854207 0.028048
N7_4 N 0.42277(11) 0.92935(12) 0.11951(7)
N8_4 N 0.43629(11) 0.92879(12) 0.37061(7)
N11_4 N 0.35119(13) 0.91626(16) 0.06051(9)
N12_4 N 0.38277(13) 0.93824(15) 0.42311(8)
C14_4 C 0.39806(13) 0.97776(14) 0.17992(9)
C18_4 C 0.40360(13) 0.97751(14) 0.30400(9)
C20_4 C 0.42837(14) 0.93122(14) 0.24502(9)
H8_4 H 0.464672 0.870048 0.249057
C21_4 C 0.51079(14) 0.89375(16) 0.10932(10)
H9_4 H 0.570499 0.895036 0.142513
C22_4 C 0.51532(14) 0.86743(16) 0.39088(10)
H10_4 H 0.562272 0.849745 0.363556
C23_4 C 0.43511(16) 0.88156(17) 0.47284(10)
H11_2 H 0.417576 0.873497 0.516584
C24_4 C 0.40256(15) 0.87256(18) 0.01768(10)
C9_4 C 0.98921(14) 0.89375(16) 0.89068(10)
H3_4 H 0.929501 0.895036 0.857487
C10_4 C 0.98468(14) 0.86743(16) 0.60912(10)
H4_4 H 0.937728 0.849745 0.636444
H11_3 H 0.082424 0.626503 0.983416
N1_3 N 0.92277(11) 0.07065(12) 0.11951(7)
N2_3 N 0.93629(11) 0.07121(12) 0.37061(7)
N5_3 N 0.85119(13) 0.08374(16) 0.06051(9)
N6_3 N 0.88277(13) 0.06176(15) 0.42311(8)
C2_3 C 0.89806(13) 0.02224(14) 0.17992(9)
C6_3 C 0.90360(13) 0.02249(14) 0.30400(9)
C8_3 C 0.92837(14) 0.06878(14) 0.24502(9)
H2_3 H 0.964672 0.129952 0.249057
C11_3 C 0.93511(16) 0.11844(17) 0.47284(10)
H5_3 H 0.917576 0.126503 0.516584
C12_3 C 0.90256(15) 0.12744(18) 0.01768(10)
H12_3 H 0.626591 0.145793 0.028048
H11_4 H 0.917576 0.373497 0.016584
N1_4 N 0.07723(11) 0.92935(12) 0.88049(7)
N2_4 N 0.06371(11) 0.92879(12) 0.62939(7)
N5_4 N 0.14881(13) 0.91626(16) 0.93949(9)
N6_4 N 0.11723(13) 0.93824(15) 0.57689(8)
C2_4 C 0.10194(13) 0.97776(14) 0.82008(9)
C6_4 C 0.09640(13) 0.97751(14) 0.69600(9)
C8_4 C 0.07163(14) 0.93122(14) 0.75498(9)
H2_4 H 0.035328 0.870048 0.750943
C11_4 C 0.06489(16) 0.88156(17) 0.52716(10)
H5_4 H 0.082424 0.873497 0.483416
C12_4 C 0.09744(15) 0.87256(18) 0.98232(10)
H12_4 H 0.373409 0.854207 0.971952
loop_
_geom_bond_atom_site_label_1
_geom_bond_atom_site_label_2
_geom_bond_site_symmetry_1
_geom_bond_site_symmetry_2
Co1 O1 1_555 1_555
O1 Co2 1_555 1_555
O2 Co1 1_555 1_555
O3 C4 1_555 1_555
O4 C1 1_555 1_555
O5 C1 1_555 1_555
N1 N5 1_555 1_555
N2 N6 1_555 1_555
N3 C10 1_555 1_555
N4 C9 1_555 1_555
N5 C12 1_555 1_555
N6 C11 1_555 1_555
C1 C7 1_555 1_555
C2 N1 1_555 1_555
C3 H1 1_555 1_555
C4 O2 1_555 1_555
C5 C2 1_555 1_555
C6 N2 1_555 1_555
C7 C3 1_555 1_555
C8 C2 1_555 1_555
H2 C8 1_555 1_555
C9 N1 1_555 1_555
H3 C9 1_555 1_555
C10 N2 1_555 1_555
H4 C10 1_555 1_555
C11 N3 1_555 1_555
C12 N4 1_555 1_555
H6 C12 1_555 1_555
Co2 O3 1_555 1_555
O6 Co2 1_555 1_555
O7 Co1 1_555 1_555
O8 C13 1_555 1_555
O9 C13 1_555 1_555
N7 N11 1_555 1_555
N8 N12 1_555 1_555
N11 C24 1_555 1_555
N12 C23 1_555 1_555
C13 C19 1_555 1_555
C14 N7 1_555 1_555
C15 H7 1_555 1_555
C16 O6 1_555 1_555
C17 C14 1_555 1_555
C18 N8 1_555 1_555
C19 C15 1_555 1_555
C20 C14 1_555 1_555
H8 C20 1_555 1_555
H12 C24 1_555 1_555
Co6 N4 1_555 1_555
Co7 O4 1_555 1_555
Co8 O8 1_555 1_555
O10 Co1 1_555 1_555
O11 Co2 1_555 1_555
N13 Co1 1_555 1_555
N14 Co2 1_555 1_555
N15 Co2 1_555 1_555
N16 Co1 1_555 1_555
C3 C5 1_555 1_555
C4 C5 1_555 1_555
C6 C7 1_555 1_555
C6 C8 1_555 1_555
O7 C16 1_555 1_555
C15 C17 1_555 1_555
C16 C17 1_555 1_555
C18 C19 1_555 1_555
C18 C20 1_555 1_555
N9 C22 1_555 1_555
N10 C21 1_555 1_555
H9 C21 1_555 1_555
H10 C22 1_555 1_555
Co5 N10 1_555 1_555
N13 C10_2 1_555 1_555
N4_2 C9_2 1_555 1_555
H3_2 C9_2 1_555 1_555
H4_2 C10_2 1_555 1_555
Co8 N4_2 1_555 1_555
N7_2 N11_2 1_555 1_555
N8_2 N12_2 1_555 1_555
N14 C22_2 1_555 1_555
N10_2 C21_2 1_555 1_555
N11_2 C24_2 1_555 1_555
N12_2 C23_2 1_555 1_555
C14_2 N7_2 1_555 1_555
C18_2 N8_2 1_555 1_555
C20_2 C14_2 1_555 1_555
H8_2 C20_2 1_555 1_555
C21_2 N7_2 1_555 1_555
H9_2 C21_2 1_555 1_555
C22_2 N8_2 1_555 1_555
H10_2 C22_2 1_555 1_555
C23_2 N14 1_555 1_555
H11 C23_2 1_555 1_555
C24_2 N10_2 1_555 1_555
Co7 N10_2 1_555 1_555
C18_2 C20_2 1_555 1_555
Co3 O1_2 1_555 1_555
O2_2 Co3 1_555 1_555
O3_2 C4_2 1_555 1_555
O4_2 C1_2 1_555 1_555
O5_2 C1_2 1_555 1_555
C1_2 C7_2 1_555 1_555
C3_2 H1_2 1_555 1_555
C4_2 O2_2 1_555 1_555
C7_2 C3_2 1_555 1_555
Co5 O4_2 1_555 1_555
O10_2 Co3 1_555 1_555
N16_2 Co3 1_555 1_555
C3_2 C5_2 1_555 1_555
C4_2 C5_2 1_555 1_555
O1_3 Co4 1_555 1_555
O6_2 Co4 1_555 1_555
O8_2 C13_2 1_555 1_555
O9_2 C13_2 1_555 1_555
C13_2 C19_2 1_555 1_555
C15_2 H7_2 1_555 1_555
C16_2 O6_2 1_555 1_555
C19_2 C15_2 1_555 1_555
Co6 O8_2 1_555 1_555
O11_2 Co4 1_555 1_555
N15_2 Co4 1_555 1_555
O7_2 C16_2 1_555 1_555
C15_2 C17_2 1_555 1_555
C16_2 C17_2 1_555 1_555
N9_2 C22_3 1_555 1_555
N16 C21_3 1_555 1_555
H9_3 C21_3 1_555 1_555
H10_3 C22_3 1_555 1_555
Co5 O1_4 1_555 1_555
O1_4 Co6 1_555 1_555
O2_3 Co5 1_555 1_555
O3_3 C4_3 1_555 1_555
O10_2 C1_3 1_555 1_555
O5_3 C1_3 1_555 1_555
N1_2 N5_2 1_555 1_555
N2_2 N6_2 1_555 1_555
N3_2 C10_3 1_555 1_555
N15 C9_3 1_555 1_555
N5_2 C12_2 1_555 1_555
N6_2 C11_2 1_555 1_555
C1_3 C7_3 1_555 1_555
C2_2 N1_2 1_555 1_555
C3_3 H1_3 1_555 1_555
C4_3 O2_3 1_555 1_555
C5_3 C2_2 1_555 1_555
C6_2 N2_2 1_555 1_555
C7_3 C3_3 1_555 1_555
C8_2 C2_2 1_555 1_555
H2_2 C8_2 1_555 1_555
C9_3 N1_2 1_555 1_555
H3_3 C9_3 1_555 1_555
C10_3 N2_2 1_555 1_555
H4_3 C10_3 1_555 1_555
C11_2 N3_2 1_555 1_555
C12_2 N15 1_555 1_555
H6_3 C12_2 1_555 1_555
Co6 O3_3 1_555 1_555
O6_3 Co6 1_555 1_555
O7_3 Co5 1_555 1_555
O11_2 C13_3 1_555 1_555
O9_3 C13_3 1_555 1_555
N7_3 N11_3 1_555 1_555
N8_3 N12_3 1_555 1_555
N11_3 C24_3 1_555 1_555
N12_3 C23_3 1_555 1_555
C13_3 C19_3 1_555 1_555
C14_3 N7_3 1_555 1_555
C15_3 H7_3 1_555 1_555
C16_3 O6_3 1_555 1_555
C17_3 C14_3 1_555 1_555
C18_3 N8_3 1_555 1_555
C19_3 C15_3 1_555 1_555
C20_3 C14_3 1_555 1_555
H8_3 C20_3 1_555 1_555
H12_2 C24_3 1_555 1_555
N13_2 Co5 1_555 1_555
N14_2 Co6 1_555 1_555
C3_3 C5_3 1_555 1_555
C4_3 C5_3 1_555 1_555
C6_2 C7_3 1_555 1_555
C6_2 C8_2 1_555 1_555
O7_3 C16_3 1_555 1_555
C15_3 C17_3 1_555 1_555
C16_3 C17_3 1_555 1_555
C18_3 C19_3 1_555 1_555
C18_3 C20_3 1_555 1_555
O1_5 Co8 1_555 1_555
O6_4 Co8 1_555 1_555
O11 C13_4 1_555 1_555
O9_4 C13_4 1_555 1_555
C13_4 C19_4 1_555 1_555
C15_4 H7_4 1_555 1_555
C16_4 O6_4 1_555 1_555
C19_4 C15_4 1_555 1_555
O7_4 C16_4 1_555 1_555
C15_4 C17_4 1_555 1_555
C16_4 C17_4 1_555 1_555
Co7 O1_6 1_555 1_555
O2_4 Co7 1_555 1_555
O3_4 C4_4 1_555 1_555
O10 C1_4 1_555 1_555
O5_4 C1_4 1_555 1_555
C1_4 C7_4 1_555 1_555
C3_4 H1_4 1_555 1_555
C4_4 O2_4 1_555 1_555
C7_4 C3_4 1_555 1_555
C3_4 C5_4 1_555 1_555
C4_4 C5_4 1_555 1_555
N7_4 N11_4 1_555 1_555
N8_4 N12_4 1_555 1_555
N14_2 C22_4 1_555 1_555
N16_2 C21_4 1_555 1_555
N11_4 C24_4 1_555 1_555
N12_4 C23_4 1_555 1_555
C14_4 N7_4 1_555 1_555
C18_4 N8_4 1_555 1_555
C20_4 C14_4 1_555 1_555
H8_4 C20_4 1_555 1_555
C21_4 N7_4 1_555 1_555
H9_4 C21_4 1_555 1_555
C22_4 N8_4 1_555 1_555
H10_4 C22_4 1_555 1_555
C23_4 N14_2 1_555 1_555
H11_2 C23_4 1_555 1_555
C24_4 N16_2 1_555 1_555
C18_4 C20_4 1_555 1_555
N13_2 C10_4 1_555 1_555
N15_2 C9_4 1_555 1_555
H3_4 C9_4 1_555 1_555
H4_4 C10_4 1_555 1_555
N1_3 N5_3 1_555 1_555
N2_3 N6_3 1_555 1_555
N5_3 C12_3 1_555 1_555
N6_3 C11_3 1_555 1_555
C2_3 N1_3 1_555 1_555
C6_3 N2_3 1_555 1_555
C8_3 C2_3 1_555 1_555
H2_3 C8_3 1_555 1_555
H5_3 C11_3 1_555 1_555
C6_3 C8_3 1_555 1_555
N1_4 N5_4 1_555 1_555
N2_4 N6_4 1_555 1_555
N5_4 C12_4 1_555 1_555
N6_4 C11_4 1_555 1_555
C2_4 N1_4 1_555 1_555
C6_4 N2_4 1_555 1_555
C8_4 C2_4 1_555 1_555
H2_4 C8_4 1_555 1_555
H5_4 C11_4 1_555 1_555
C6_4 C8_4 1_555 1_555

#END
