
###############################################################################
#
# This file contains modified crystal structure data generated from the
# MOF subset of the Cambridge Structural Database (CSD) v543 
# hosted by the Cambridge Crystallographic Data Centre (CCDC).
#
# This work is licensed under the Creative Commons
# Attribution-NonCommercial-ShareAlike 4.0 International License.
# To view a copy of this license, visit
# http://creativecommons.org/licenses/by-nc-sa/4.0/
# or send a letter to
# Creative Commons, PO Box 1866, Mountain View, CA 94042, USA.
#
# CIF created using the CSD Python API on 29 September 2022
# The structure has been converted into the P1 space group
# The structure has a 3D framework
# The original CSD entry OCARIX is in the triclinic crystal system
# The framework has been calculated to contain at least 10.0% void space
# The void calculation uses a probe of radius 1.32A, grid spacing 0.4
#
###############################################################################

data_OCARIX
_chemical_formula_moiety         '(C44 H38 Cd1 N8 O14)n'
_symmetry_cell_setting           triclinic
_symmetry_space_group_name_H-M   'P 1'
_symmetry_Int_Tables_number      1
_space_group_name_Hall           'P 1'
loop_
_symmetry_equiv_pos_site_id
_symmetry_equiv_pos_as_xyz
1 x,y,z
_cell_length_a                   7.260(5)
_cell_length_b                   10.438(5)
_cell_length_c                   17.320(5)
_cell_angle_alpha                101.825(5)
_cell_angle_beta                 98.331(5)
_cell_angle_gamma                107.333(5)
_cell_volume                     1196.16
loop_
_atom_site_label
_atom_site_type_symbol
_atom_site_fract_x
_atom_site_fract_y
_atom_site_fract_z
_atom_site_U_iso_or_equiv
_atom_site_thermal_displace_type
Cd3 Cd 0.03461(3) 0.09981(2) 0.23256(2) 0.0223 Uani
O1 O 0.1231(3) 0.0410(2) 0.11365(12) 0.0321 Uani
O2 O 0.2681(3) 0.1334(2) 0.34727(12) 0.0327 Uani
C1 C 0.2683(5) 0.1400(3) 0.42169(18) 0.0308 Uani
O3 O 0.4020(3) 0.0899(3) 0.20161(12) 0.0383 Uani
O4 O 0.7090(3) 0.0740(2) 0.15775(12) 0.0357 Uani
H1 H 0.410427 0.016461 0.319626 0.0630 Uiso
O6 O 0.1704(4) 0.1971(3) 0.46074(14) 0.0549 Uani
C2 C 0.6976(4) 0.0111(3) 0.01683(16) 0.0219 Uani
H2 H 0.830126 0.018551 0.028201 0.0260 Uiso
C4 C 0.3909(4) 0.0691(3) 0.46161(17) 0.0258 Uani
N2 N 0.0145(4) 0.4752(3) 0.03463(18) 0.0420 Uani
N3 N 0.1345(4) 0.3335(2) 0.23437(16) 0.0308 Uani
C6 C 0.6045(4) 0.0367(3) 0.07949(16) 0.0211 Uani
C7 C 0.4047(4) 0.0256(3) 0.06280(15) 0.0185 Uani
C8 C 0.2771(6) 0.5666(4) 0.3145(2) 0.0527 Uani
H3 H 0.334493 0.628601 0.365201 0.0630 Uiso
C11 C 0.1296(5) 0.5683(3) 0.0974(2) 0.0348 Uani
C13 C 0.2524(6) 0.6156(3) 0.2472(2) 0.0458 Uani
H7 H 0.294294 0.710769 0.252151 0.0550 Uiso
C14 C 0.3027(4) 0.0541(3) 0.13039(16) 0.0220 Uani
C16 C 0.1092(5) 0.3814(3) 0.16937(19) 0.0303 Uani
H9 H 0.051016 0.316872 0.119481 0.0360 Uiso
C17 C 0.2279(6) 0.7171(3) 0.1002(3) 0.0499 Uani
H10 H 0.306408 0.766251 0.153573 0.0750 Uiso
H11 H 0.311359 0.723036 0.061916 0.0750 Uiso
H12 H 0.129149 0.757866 0.086915 0.0750 Uiso
C19 C 0.1643(5) 0.5216(3) 0.1715(2) 0.0328 Uani
C20 C 0.2165(6) 0.4258(4) 0.3064(2) 0.0427 Uani
H13 H 0.233020 0.393749 0.352382 0.0510 Uiso
O12 O 0.5227(4) 0.0269(3) 0.66328(12) 0.0422 Uani
C29 C 0.5145(4) 0.0113(3) 0.58237(17) 0.0278 Uani
C30 C 0.4077(5) 0.0777(3) 0.54296(17) 0.0304 Uani
H22 H 0.344993 0.129903 0.572318 0.0360 Uiso
O7 O 0.8661(5) 0.1608(3) 0.33339(17) 0.0417 Uani
H18 H 0.951(7) 0.178(5) 0.377(3) 0.0680 Uiso
H19 H 0.769(12) 0.128(8) 0.327(5) 0.1500 Uiso
N1 N 0.8955(4) 0.8681(3) 0.23575(16) 0.0320 Uani
C3 C 0.7157(5) 0.6251(3) 0.1714(2) 0.0323 Uani
N4 N 0.5526(4) 0.5552(3) 0.03480(17) 0.0398 Uani
C9 C 0.8375(6) 0.7039(4) 0.3149(2) 0.0470 Uani
H4 H 0.852818 0.686467 0.365575 0.0570 Uiso
C12 C 0.7983(5) 0.7634(3) 0.16950(19) 0.0315 Uani
H6 H 0.785253 0.784000 0.119656 0.0380 Uiso
C15 C 0.9116(5) 0.8364(4) 0.3071(2) 0.0406 Uani
H8 H 0.976464 0.908158 0.353671 0.0490 Uiso
C18 C 0.6058(5) 0.5142(3) 0.0964(2) 0.0349 Uani
C21 C 0.5645(6) 0.3663(3) 0.0985(2) 0.0483 Uani
H14 H 0.619784 0.362919 0.151516 0.0720 Uiso
H15 H 0.424133 0.318882 0.085622 0.0720 Uiso
H16 H 0.623022 0.321823 0.059568 0.0720 Uiso
C22 C 0.7402(5) 0.5973(4) 0.2467(2) 0.0431 Uani
H17 H 0.690767 0.506447 0.250769 0.0520 Uiso
O5 O 0.4773(4) 0.9731(3) 0.33672(12) 0.0422 Uani
C5 C 0.4855(4) 0.9887(3) 0.41763(17) 0.0278 Uani
C10 C 0.5923(5) 0.9223(3) 0.45704(17) 0.0304 Uani
H5 H 0.655007 0.870097 0.427682 0.0360 Uiso
O11 O 0.7319(3) 0.8666(2) 0.65273(12) 0.0327 Uani
C27 C 0.7317(5) 0.8600(3) 0.57831(18) 0.0308 Uani
H21 H 0.589573 0.983539 0.680374 0.0630 Uiso
O13 O 0.8296(4) 0.8029(3) 0.53926(14) 0.0549 Uani
C28 C 0.6091(4) 0.9309(3) 0.53839(17) 0.0258 Uani
Cd7 Cd 0.96539(3) 0.90019(2) 0.76744(2) 0.0223 Uani
O8 O 0.8769(3) 0.9590(2) 0.88635(12) 0.0321 Uani
O9 O 0.5980(3) 0.9101(3) 0.79839(12) 0.0383 Uani
O10 O 0.2910(3) 0.9260(2) 0.84225(12) 0.0357 Uani
C23 C 0.3024(4) 0.9889(3) 0.98317(16) 0.0219 Uani
H20 H 0.169874 0.981449 0.971799 0.0260 Uiso
C24 C 0.3955(4) 0.9633(3) 0.92051(16) 0.0211 Uani
C25 C 0.5953(4) 0.9744(3) 0.93720(15) 0.0185 Uani
C26 C 0.6973(4) 0.9459(3) 0.86961(16) 0.0220 Uani
N7 N 0.9855(4) 0.5248(3) 0.96537(18) 0.0420 Uani
N8 N 0.8655(4) 0.6665(2) 0.76563(16) 0.0308 Uani
C38 C 0.7229(6) 0.4334(4) 0.6855(2) 0.0527 Uani
H30 H 0.665507 0.371399 0.634799 0.0630 Uiso
C39 C 0.8704(5) 0.4317(3) 0.9026(2) 0.0348 Uani
C40 C 0.7476(6) 0.3844(3) 0.7528(2) 0.0458 Uani
H31 H 0.705706 0.289231 0.747849 0.0550 Uiso
C41 C 0.8908(5) 0.6186(3) 0.83063(19) 0.0303 Uani
H32 H 0.948984 0.683128 0.880519 0.0360 Uiso
C42 C 0.7721(6) 0.2829(3) 0.8998(3) 0.0499 Uani
H33 H 0.693592 0.233749 0.846427 0.0750 Uiso
H34 H 0.688641 0.276964 0.938084 0.0750 Uiso
H35 H 0.870851 0.242134 0.913085 0.0750 Uiso
C43 C 0.8357(5) 0.4784(3) 0.8285(2) 0.0328 Uani
C44 C 0.7835(6) 0.5742(4) 0.6936(2) 0.0427 Uani
H36 H 0.766980 0.606251 0.647618 0.0510 Uiso
N5 N 0.1045(4) 0.1319(3) 0.76425(16) 0.0320 Uani
C31 C 0.2843(5) 0.3749(3) 0.8286(2) 0.0323 Uani
N6 N 0.4474(4) 0.4448(3) 0.96520(17) 0.0398 Uani
C32 C 0.1625(6) 0.2961(4) 0.6851(2) 0.0470 Uani
H23 H 0.147182 0.313533 0.634425 0.0570 Uiso
C33 C 0.2017(5) 0.2366(3) 0.83050(19) 0.0315 Uani
H24 H 0.214747 0.216000 0.880344 0.0380 Uiso
C34 C 0.0884(5) 0.1636(4) 0.6929(2) 0.0406 Uani
H25 H 0.023536 0.091842 0.646329 0.0490 Uiso
C35 C 0.3942(5) 0.4858(3) 0.9036(2) 0.0349 Uani
C36 C 0.4355(6) 0.6337(3) 0.9015(2) 0.0483 Uani
H26 H 0.380216 0.637081 0.848484 0.0720 Uiso
H27 H 0.575867 0.681118 0.914378 0.0720 Uiso
H28 H 0.376978 0.678177 0.940432 0.0720 Uiso
C37 C 0.2598(5) 0.4027(4) 0.7533(2) 0.0431 Uani
H29 H 0.309233 0.493553 0.749231 0.0520 Uiso
O14 O 0.1339(5) 0.8392(3) 0.66661(17) 0.0417 Uani
H37 H 0.049(7) 0.822(5) 0.623(3) 0.0680 Uiso
H38 H 0.231(12) 0.872(8) 0.673(5) 0.1500 Uiso
loop_
_atom_site_aniso_label
_atom_site_aniso_U_11
_atom_site_aniso_U_22
_atom_site_aniso_U_33
_atom_site_aniso_U_23
_atom_site_aniso_U_13
_atom_site_aniso_U_12
Cd3 0.02541 0.02413 0.01883 0.00799 0.00416 0.00921
O1 0.0244 0.0457 0.0271 0.0054 0.0088 0.0144
O2 0.0349 0.0494 0.0217 0.0171 0.0054 0.0208
C1 0.0337 0.0385 0.0241 0.0116 0.0048 0.0163
O3 0.0388 0.0647 0.017 0.01 0.0094 0.0244
O4 0.0275 0.0641 0.015 0.0045 -0.0018 0.0217
O6 0.077 0.0824 0.0328 0.0195 0.0169 0.0614
C2 0.0167 0.0272 0.0214 0.0065 0.0019 0.0077
C4 0.0272 0.0291 0.0221 0.0088 0.0038 0.0103
N2 0.0461 0.0349 0.0511 0.0284 0.01 0.0112
N3 0.0344 0.0245 0.0328 0.0098 0.0034 0.0091
C6 0.0229 0.0225 0.017 0.0057 0.0003 0.0081
C7 0.0194 0.0179 0.0204 0.0072 0.0061 0.0071
C8 0.066 0.0312 0.045 0.0023 -0.0004 0.0047
C11 0.0362 0.0297 0.049 0.0217 0.0162 0.0154
C13 0.053 0.0254 0.055 0.0116 0.0082 0.0087
C14 0.0264 0.0214 0.0218 0.0087 0.0088 0.0094
C16 0.0322 0.0281 0.0349 0.0135 0.0085 0.0122
C17 0.065 0.032 0.062 0.0275 0.021 0.0162
C19 0.0316 0.0267 0.0451 0.014 0.0121 0.0123
C20 0.056 0.0359 0.0322 0.0099 0.0048 0.0114
O12 0.0582 0.0692 0.0187 0.0179 0.0124 0.0434
C29 0.0324 0.0356 0.019 0.0106 0.0065 0.014
C30 0.0368 0.0383 0.0208 0.0071 0.0075 0.0195
O7 0.0398 0.0587 0.031 0.0109 0.0091 0.0229
N1 0.0364 0.028 0.0294 0.0083 0.006 0.0076
C3 0.0306 0.0264 0.0406 0.0093 0.0096 0.0096
N4 0.0445 0.022 0.0447 0.0024 -0.0001 0.0084
C9 0.061 0.042 0.04 0.0225 0.011 0.0126
C12 0.0337 0.0274 0.033 0.0096 0.0083 0.0083
C15 0.047 0.0372 0.0326 0.0096 0.0071 0.0076
C18 0.0345 0.0243 0.0454 0.0096 0.0107 0.008
C21 0.059 0.0246 0.056 0.0123 0.0077 0.0079
C22 0.048 0.0336 0.052 0.0212 0.0152 0.0115
O5 0.0582 0.0692 0.0187 0.0179 0.0124 0.0434
C5 0.0324 0.0356 0.019 0.0106 0.0065 0.014
C10 0.0368 0.0383 0.0208 0.0071 0.0075 0.0195
O11 0.0349 0.0494 0.0217 0.0171 0.0054 0.0208
C27 0.0337 0.0385 0.0241 0.0116 0.0048 0.0163
O13 0.077 0.0824 0.0328 0.0195 0.0169 0.0614
C28 0.0272 0.0291 0.0221 0.0088 0.0038 0.0103
Cd7 0.02541 0.02413 0.01883 0.00799 0.00416 0.00921
O8 0.0244 0.0457 0.0271 0.0054 0.0088 0.0144
O9 0.0388 0.0647 0.017 0.01 0.0094 0.0244
O10 0.0275 0.0641 0.015 0.0045 -0.0018 0.0217
C23 0.0167 0.0272 0.0214 0.0065 0.0019 0.0077
C24 0.0229 0.0225 0.017 0.0057 0.0003 0.0081
C25 0.0194 0.0179 0.0204 0.0072 0.0061 0.0071
C26 0.0264 0.0214 0.0218 0.0087 0.0088 0.0094
N7 0.0461 0.0349 0.0511 0.0284 0.01 0.0112
N8 0.0344 0.0245 0.0328 0.0098 0.0034 0.0091
C38 0.066 0.0312 0.045 0.0023 -0.0004 0.0047
C39 0.0362 0.0297 0.049 0.0217 0.0162 0.0154
C40 0.053 0.0254 0.055 0.0116 0.0082 0.0087
C41 0.0322 0.0281 0.0349 0.0135 0.0085 0.0122
C42 0.065 0.032 0.062 0.0275 0.021 0.0162
C43 0.0316 0.0267 0.0451 0.014 0.0121 0.0123
C44 0.056 0.0359 0.0322 0.0099 0.0048 0.0114
N5 0.0364 0.028 0.0294 0.0083 0.006 0.0076
C31 0.0306 0.0264 0.0406 0.0093 0.0096 0.0096
N6 0.0445 0.022 0.0447 0.0024 -0.0001 0.0084
C32 0.061 0.042 0.04 0.0225 0.011 0.0126
C33 0.0337 0.0274 0.033 0.0096 0.0083 0.0083
C34 0.047 0.0372 0.0326 0.0096 0.0071 0.0076
C35 0.0345 0.0243 0.0454 0.0096 0.0107 0.008
C36 0.059 0.0246 0.056 0.0123 0.0077 0.0079
C37 0.048 0.0336 0.052 0.0212 0.0152 0.0115
O14 0.0398 0.0587 0.031 0.0109 0.0091 0.0229
loop_
_geom_bond_atom_site_label_1
_geom_bond_atom_site_label_2
_geom_bond_site_symmetry_1
_geom_bond_site_symmetry_2
Cd3 O1 1_555 1_555
O1 C14 1_555 1_555
O2 Cd3 1_555 1_555
C1 O2 1_555 1_555
O3 C14 1_555 1_555
O4 C6 1_555 1_555
O6 C1 1_555 1_555
C2 H2 1_555 1_555
C4 C1 1_555 1_555
N2 C11 1_555 1_555
N3 Cd3 1_555 1_555
C6 C2 1_555 1_555
C7 C6 1_555 1_555
C8 H3 1_555 1_555
C11 C17 1_555 1_555
C13 C8 1_555 1_555
H7 C13 1_555 1_555
C14 C7 1_555 1_555
C16 N3 1_555 1_555
H9 C16 1_555 1_555
C17 H10 1_555 1_555
H11 C17 1_555 1_555
H12 C17 1_555 1_555
C19 C11 1_555 1_555
C20 N3 1_555 1_555
H13 C20 1_555 1_555
C29 O12 1_555 1_555
C30 C4 1_555 1_555
H22 C30 1_555 1_555
C8 C20 1_555 1_555
C13 C19 1_555 1_555
C16 C19 1_555 1_555
C29 C30 1_555 1_555
H18 O7 1_555 1_555
H19 O7 1_555 1_555
C3 C12 1_555 1_555
N4 C18 1_555 1_555
C9 H4 1_555 1_555
C12 N1 1_555 1_555
H6 C12 1_555 1_555
C15 N1 1_555 1_555
H8 C15 1_555 1_555
C18 C3 1_555 1_555
C21 C18 1_555 1_555
H14 C21 1_555 1_555
H15 C21 1_555 1_555
H16 C21 1_555 1_555
C22 C3 1_555 1_555
H17 C22 1_555 1_555
C9 C15 1_555 1_555
C9 C22 1_555 1_555
C5 O5 1_555 1_555
C10 C5 1_555 1_555
H5 C10 1_555 1_555
O11 C27 1_555 1_555
C27 O13 1_555 1_555
C28 C10 1_555 1_555
Cd7 O11 1_555 1_555
C27 C28 1_555 1_555
O8 C26 1_555 1_555
O9 C26 1_555 1_555
O10 C24 1_555 1_555
H20 C23 1_555 1_555
C24 C23 1_555 1_555
C26 C25 1_555 1_555
Cd7 O8 1_555 1_555
C24 C25 1_555 1_555
N8 C41 1_555 1_555
C38 H30 1_555 1_555
C39 N7 1_555 1_555
C40 C38 1_555 1_555
H31 C40 1_555 1_555
C41 H32 1_555 1_555
C42 C39 1_555 1_555
H33 C42 1_555 1_555
H34 C42 1_555 1_555
H35 C42 1_555 1_555
C43 C39 1_555 1_555
C44 N8 1_555 1_555
H36 C44 1_555 1_555
Cd7 N8 1_555 1_555
C38 C44 1_555 1_555
C40 C43 1_555 1_555
C41 C43 1_555 1_555
N5 C33 1_555 1_555
C31 C33 1_555 1_555
C32 H23 1_555 1_555
C33 H24 1_555 1_555
C34 N5 1_555 1_555
H25 C34 1_555 1_555
C35 C31 1_555 1_555
C36 C35 1_555 1_555
H26 C36 1_555 1_555
H27 C36 1_555 1_555
H28 C36 1_555 1_555
C37 C31 1_555 1_555
H29 C37 1_555 1_555
N6 C35 1_555 1_555
C32 C34 1_555 1_555
C32 C37 1_555 1_555
H37 O14 1_555 1_555
H38 O14 1_555 1_555

#END
