
###############################################################################
#
# This file contains modified crystal structure data generated from the
# MOF subset of the Cambridge Structural Database (CSD) v543 
# hosted by the Cambridge Crystallographic Data Centre (CCDC).
#
# This work is licensed under the Creative Commons
# Attribution-NonCommercial-ShareAlike 4.0 International License.
# To view a copy of this license, visit
# http://creativecommons.org/licenses/by-nc-sa/4.0/
# or send a letter to
# Creative Commons, PO Box 1866, Mountain View, CA 94042, USA.
#
# CIF created using the CSD Python API on 29 September 2022
# The structure has been converted into the P1 space group
# The structure has a 3D framework
# The original CSD entry OCAWAT is in the monoclinic crystal system
# The framework has been calculated to contain at least 10.0% void space
# The void calculation uses a probe of radius 1.32A, grid spacing 0.4
# H atom positions have been added when not included in the experimental data
#
###############################################################################

data_OCAWAT
_chemical_formula_moiety         '(C100 H88 Cd12 O66 Si4)n'
_symmetry_cell_setting           triclinic
_symmetry_space_group_name_H-M   'P 1'
_symmetry_Int_Tables_number      1
_space_group_name_Hall           'P 1'
loop_
_symmetry_equiv_pos_site_id
_symmetry_equiv_pos_as_xyz
1 x,y,z
_cell_length_a                   10.4060(4)
_cell_length_b                   27.2442(9)
_cell_length_c                   13.1722(5)
_cell_angle_alpha                90
_cell_angle_beta                 102.3950(10)
_cell_angle_gamma                90
_cell_volume                     3647.32
loop_
_atom_site_label
_atom_site_type_symbol
_atom_site_fract_x
_atom_site_fract_y
_atom_site_fract_z
Cd3 Cd 0.22885(3) 0.18832(2) 0.15920(2)
O5 O 0.0499(3) 0.15710(10) 0.0450(2)
O6 O 0.2249(3) 0.11033(12) 0.0769(3)
O13 O 0.3741(3) 0.15343(12) 0.2950(3)
C16 C 0.1095(4) 0.11780(14) 0.0305(3)
O18 O 0.1731(4) 0.26798(11) 0.1827(3)
O19 O 0.1235(4) 0.21614(11) 0.2929(3)
O20 O 0.3903(3) 0.20450(10) 0.0746(2)
H17 H 0.419591 0.125556 0.269139
H18 H 0.44001 0.178281 0.327506
C12 C 0.0390(4) 0.07936(13) 0.9583(3)
C13 C 0.1083(4) 0.03902(14) 0.9346(3)
H12 H 0.1987 0.0370 0.9601
C14 C 0.0426(4) 0.00161(13) 0.8730(3)
Cd4 Cd 0.02664(3) 0.07005(2) 0.38025(2)
Cd2 Cd 0.26989(3) 0.88271(2) 0.80240(2)
O7 O 0.2390(3) 0.95432(10) 0.8882(2)
O8 O 0.0587(3) 0.92446(9) 0.7887(2)
O16 O 0.2388(4) 0.82106(13) 0.6738(3)
H1 H 0.2279 0.7924 0.7006
H2 H 0.3073 0.8193 0.6455
O17 O 0.1808(3) 0.82793(12) 0.8941(3)
H3 H 0.1792 0.7985 0.8665
H4 H 0.0997 0.8361 0.8956
C17 C 0.1187(4) 0.95823(13) 0.8485(3)
O21 O 0.4763(3) 0.85563(11) 0.8512(2)
O24 O 0.2879(3) 0.92880(12) 0.6637(2)
O4 O 0.5237(3) 0.14437(11) 0.1488(2)
C8 C 0.4769(4) 0.17231(14) 0.0731(3)
Cd7 Cd 0.73011(3) 0.11729(2) 0.19760(2)
Si1 Si 0.65068(9) 0.04853(3) 0.81434(8)
O1 O 0.6731(4) 0.23202(11) 0.6827(3)
O2 O 0.6235(4) 0.28386(11) 0.7929(3)
O9 O 0.8734(3) 0.07113(10) 0.4776(2)
O10 O 0.7121(3) 0.07120(12) 0.3363(2)
O11 O 0.2499(3) 0.07545(11) 0.3719(2)
O12 O 0.2022(3) 0.04967(11) 0.5167(2)
O14 O 0.0240(4) 0.15247(12) 0.4083(3)
C2 C 0.6007(4) 0.11004(13) 0.8553(3)
C3 C 0.6229(4) 0.15127(14) 0.7976(3)
H8 H 0.6556 0.1466 0.7379
C4 C 0.5977(4) 0.19876(14) 0.8264(3)
C5 C 0.5457(4) 0.20595(14) 0.9144(3)
H9 H 0.5252 0.2374 0.9331
C6 C 0.5245(4) 0.16583(14) 0.9741(3)
C7 C 0.5531(4) 0.11871(13) 0.9445(3)
H10 H 0.5399 0.0922 0.9857
C9 C 0.6317(4) 0.24054(15) 0.7633(3)
C10 C 0.8347(3) 0.04512(13) 0.8583(3)
C11 C 0.9046(4) 0.08272(13) 0.9190(3)
H11 H 0.8597 0.1105 0.9332
C15 C 0.9066(4) 0.00445(13) 0.8362(3)
C18 C 0.6032(3) 0.05079(12) 0.6690(3)
C19 C 0.6944(4) 0.05741(13) 0.6062(3)
H14 H 0.7837 0.0579 0.6367
C20 C 0.6551(4) 0.06324(13) 0.4996(3)
C21 C 0.5218(4) 0.06346(13) 0.4532(3)
H15 H 0.4949 0.0670 0.3815
C22 C 0.4293(3) 0.05846(13) 0.5139(3)
C23 C 0.4695(4) 0.05117(13) 0.6204(3)
H16 H 0.4067 0.0465 0.6601
C24 C 0.7531(4) 0.06909(13) 0.4318(3)
C25 C 0.2854(4) 0.06106(13) 0.4647(3)
Cd9 Cd 0.72885(3) 0.31168(2) 0.65920(2)
H19 H 0.0468528 0.170036 0.348519
C1 C 0.5671(4) 0.99708(15) 0.8665(3)
H5 H 0.5826 0.9996 0.9409
H6 H 0.6014 0.9664 0.8479
H7 H 0.4743 0.9986 0.8378
H13 H 0.8628 0.9789 0.7964
Cd5 Cd 0.97336(3) 0.92995(2) 0.61975(2)
H21 H 0.0325808 0.968807 0.428793
O22 O 0.9413(3) 0.07554(9) 0.2113(2)
H20 H 0.934809 0.162564 0.415787
Cd1 Cd 0.47336(3) 0.57005(2) 0.11975(2)
O11_2 O 0.2501(3) 0.57545(11) 0.1281(2)
O14_2 O 0.4760(4) 0.65247(12) 0.0917(3)
O15 O 0.5244(3) 0.48635(10) 0.1302(2)
H15_2 H 0.0051 0.5670 0.1185
C25_2 C 0.2146(4) 0.56106(13) 0.0353(3)
O22_2 O 0.5587(3) 0.57554(9) 0.2887(2)
O23 O 0.6266(3) 0.57113(10) 0.0224(2)
H19_2 H 0.453147 0.670036 0.151481
H20_2 H 0.565191 0.662564 0.0842128
H21_2 H 0.467419 0.468807 0.0712071
H22 H 0.618124 0.481748 0.127045
O3 O 0.1097(3) 0.70450(10) 0.4254(2)
O12_2 O 0.2978(3) 0.54967(11) 0.9833(2)
H7_2 H 0.0257 0.4986 0.6622
C8_2 C 0.0231(4) 0.67231(14) 0.4269(3)
C22_2 C 0.0707(3) 0.55846(13) 0.9861(3)
C23_2 C 0.0305(4) 0.55117(13) 0.8796(3)
H16_2 H 0.0933 0.5465 0.8399
Cd8 Cd 0.27115(3) 0.68832(2) 0.34080(2)
O10_2 O 0.7879(3) 0.57120(12) 0.1637(2)
C20_2 C 0.8449(4) 0.56324(13) 0.0004(3)
C21_2 C 0.9782(4) 0.56346(13) 0.0468(3)
C24_2 C 0.7469(4) 0.56909(13) 0.0682(3)
Cd6 Cd 0.76989(3) 0.61729(2) 0.30240(2)
Cd2_2 Cd 0.23011(3) 0.38271(2) 0.69760(2)
Si1_2 Si 0.84932(9) 0.54853(3) 0.68566(8)
O1_2 O 0.8269(4) 0.73202(11) 0.8173(3)
O2_2 O 0.8765(4) 0.78386(11) 0.7071(3)
O4_2 O 0.9763(3) 0.64437(11) 0.3512(2)
O5_2 O 0.4501(3) 0.65710(10) 0.4550(2)
O6_2 O 0.2751(3) 0.61033(12) 0.4231(3)
O7_2 O 0.2610(3) 0.45432(10) 0.6118(2)
O8_2 O 0.4413(3) 0.42446(9) 0.7113(2)
O13_2 O 0.1259(3) 0.65343(12) 0.2050(3)
O16_2 O 0.2612(4) 0.32106(13) 0.8262(3)
H1_2 H 0.2721 0.2924 0.7994
H2_2 H 0.1927 0.3193 0.8545
O17_2 O 0.3192(3) 0.32793(12) 0.6059(3)
H3_2 H 0.3208 0.2985 0.6335
H4_2 H 0.4003 0.3361 0.6044
C1_2 C 0.9329(4) 0.49708(15) 0.6335(3)
H5_2 H 0.9174 0.4996 0.5591
H6_2 H 0.8986 0.4664 0.6521
C2_2 C 0.8993(4) 0.61004(13) 0.6447(3)
C3_2 C 0.8771(4) 0.65127(14) 0.7024(3)
H8_2 H 0.8444 0.6466 0.7621
C4_2 C 0.9023(4) 0.69876(14) 0.6736(3)
C5_2 C 0.9543(4) 0.70595(14) 0.5856(3)
H9_2 H 0.9748 0.7374 0.5669
C6_2 C 0.9755(4) 0.66583(14) 0.5259(3)
C7_2 C 0.9469(4) 0.61871(13) 0.5555(3)
H10_2 H 0.9601 0.5922 0.5143
C9_2 C 0.8683(4) 0.74054(15) 0.7367(3)
C10_2 C 0.6653(3) 0.54512(13) 0.6417(3)
C11_2 C 0.5954(4) 0.58272(13) 0.5810(3)
H11_2 H 0.6403 0.6105 0.5668
C12_2 C 0.4610(4) 0.57936(13) 0.5417(3)
C13_2 C 0.3917(4) 0.53902(14) 0.5654(3)
H12_2 H 0.3013 0.5370 0.5399
C14_2 C 0.4574(4) 0.50161(13) 0.6270(3)
C15_2 C 0.5934(4) 0.50445(13) 0.6638(3)
H13_2 H 0.6372 0.4789 0.7036
C16_2 C 0.3905(4) 0.61780(14) 0.4695(3)
C17_2 C 0.3813(4) 0.45823(13) 0.6515(3)
C18_2 C 0.8968(3) 0.55079(12) 0.8310(3)
C19_2 C 0.8056(4) 0.55741(13) 0.8938(3)
H14_2 H 0.7163 0.5579 0.8633
Cd5_2 Cd 0.52664(3) 0.42995(2) 0.88025(2)
Cd9_2 Cd 0.77115(3) 0.81168(2) 0.84080(2)
O18_2 O 0.3269(4) 0.76798(11) 0.3173(3)
O19_2 O 0.3765(4) 0.71614(11) 0.2071(3)
O21_2 O 0.0237(3) 0.35563(11) 0.6488(2)
O24_2 O 0.2121(3) 0.42880(12) 0.8363(2)
H17_2 H 0.0804089 0.625556 0.230861
H18_2 H 0.0599896 0.678281 0.172494
O23_2 O 0.1266(3) 0.92887(10) 0.5224(2)
H20_3 H 0.0651908 0.837436 0.584213
C1_3 C 0.4329(4) 0.00292(15) 0.1335(3)
H5_3 H 0.4174 0.0004 0.0591
H6_3 H 0.3986 0.0336 0.1521
H7_3 H 0.5257 0.0014 0.1622
H13_3 H 0.1372 0.0211 0.2036
H21_3 H 0.967419 0.0311933 0.571207
Si1_3 Si 0.34932(9) 0.95147(3) 0.18566(8)
O11_3 O 0.7501(3) 0.92455(11) 0.6281(2)
O12_3 O 0.7978(3) 0.95033(11) 0.4833(2)
O14_3 O 0.9760(4) 0.84753(12) 0.5917(3)
C2_3 C 0.3993(4) 0.88996(13) 0.1447(3)
C3_3 C 0.3771(4) 0.84873(14) 0.2024(3)
H8_3 H 0.3444 0.8534 0.2621
C4_3 C 0.4023(4) 0.80124(14) 0.1736(3)
C5_3 C 0.4543(4) 0.79405(14) 0.0856(3)
H9_3 H 0.4748 0.7626 0.0669
C6_3 C 0.4755(4) 0.83417(14) 0.0259(3)
C7_3 C 0.4469(4) 0.88129(13) 0.0555(3)
H10_3 H 0.4601 0.9078 0.0143
C9_3 C 0.3683(4) 0.75946(15) 0.2367(3)
C10_3 C 0.1653(3) 0.95488(13) 0.1417(3)
C11_3 C 0.0954(4) 0.91728(13) 0.0810(3)
H11_3 H 0.1403 0.8895 0.0668
C15_3 C 0.0934(4) 0.99555(13) 0.1638(3)
C18_3 C 0.3968(3) 0.94921(12) 0.3310(3)
C19_3 C 0.3056(4) 0.94259(13) 0.3938(3)
H14_3 H 0.2163 0.9421 0.3633
C20_3 C 0.3449(4) 0.93676(13) 0.5004(3)
C21_3 C 0.4782(4) 0.93654(13) 0.5468(3)
H15_3 H 0.5051 0.9330 0.6185
C22_3 C 0.5707(3) 0.94154(13) 0.4861(3)
C23_3 C 0.5305(4) 0.94883(13) 0.3796(3)
H16_3 H 0.5933 0.9535 0.3399
C24_3 C 0.2469(4) 0.93091(13) 0.5682(3)
C25_3 C 0.7146(4) 0.93894(13) 0.5353(3)
H19_3 H 0.953147 0.829964 0.651481
O3_2 O 0.6097(3) 0.79550(10) 0.9254(2)
C8_3 C 0.5231(4) 0.82769(14) 0.9269(3)
O7_3 O 0.7610(3) 0.04568(10) 0.1118(2)
O16_3 O 0.7612(4) 0.17894(13) 0.3262(3)
H1_3 H 0.7721 0.2076 0.2994
H2_3 H 0.6927 0.1807 0.3545
O17_3 O 0.8192(3) 0.17207(12) 0.1059(3)
H3_3 H 0.8208 0.2015 0.1335
H4_3 H 0.9003 0.1639 0.1044
C17_3 C 0.8813(4) 0.04177(13) 0.1515(3)
C12_3 C 0.9610(4) 0.92064(13) 0.0417(3)
C13_3 C 0.8917(4) 0.96098(14) 0.0654(3)
H12_3 H 0.8013 0.9630 0.0399
C14_3 C 0.9574(4) 0.99839(13) 0.1270(3)
O5_3 O 0.9501(3) 0.84290(10) 0.9550(2)
O6_3 O 0.7751(3) 0.88967(12) 0.9231(3)
O13_3 O 0.6259(3) 0.84657(12) 0.7050(3)
C16_3 C 0.8905(4) 0.88220(14) 0.9695(3)
H17_3 H 0.580409 0.874444 0.730861
H18_3 H 0.55999 0.821719 0.672494
Si1_4 Si 0.15068(9) 0.45147(3) 0.31434(8)
O5_4 O 0.5499(3) 0.34290(10) 0.5450(2)
O6_4 O 0.7249(3) 0.38967(12) 0.5769(3)
O7_4 O 0.7390(3) 0.54568(10) 0.3882(2)
O13_4 O 0.8741(3) 0.34657(12) 0.7950(3)
O16_4 O 0.7388(4) 0.67894(13) 0.1738(3)
H1_4 H 0.7279 0.7076 0.2006
H2_4 H 0.8073 0.6807 0.1455
O17_4 O 0.6808(3) 0.67207(12) 0.3941(3)
H3_4 H 0.6792 0.7015 0.3665
H4_4 H 0.5997 0.6639 0.3956
C1_4 C 0.0671(4) 0.50292(15) 0.3665(3)
H5_4 H 0.0826 0.5004 0.4409
H6_4 H 0.1014 0.5336 0.3479
C2_4 C 0.1007(4) 0.38996(13) 0.3553(3)
C3_4 C 0.1229(4) 0.34873(14) 0.2976(3)
H8_4 H 0.1556 0.3534 0.2379
C4_4 C 0.0977(4) 0.30124(14) 0.3264(3)
C5_4 C 0.0457(4) 0.29405(14) 0.4144(3)
H9_4 H 0.0252 0.2626 0.4331
C6_4 C 0.0245(4) 0.33417(14) 0.4741(3)
C7_4 C 0.0531(4) 0.38129(13) 0.4445(3)
H10_4 H 0.0399 0.4078 0.4857
C9_4 C 0.1317(4) 0.25946(15) 0.2633(3)
C10_4 C 0.3347(3) 0.45488(13) 0.3583(3)
C11_4 C 0.4046(4) 0.41728(13) 0.4190(3)
H11_4 H 0.3597 0.3895 0.4332
C12_4 C 0.5390(4) 0.42064(13) 0.4583(3)
C13_4 C 0.6083(4) 0.46098(14) 0.4346(3)
H12_4 H 0.6987 0.4630 0.4601
C14_4 C 0.5426(4) 0.49839(13) 0.3730(3)
C15_4 C 0.4066(4) 0.49555(13) 0.3362(3)
H13_4 H 0.3628 0.5211 0.2964
C16_4 C 0.6095(4) 0.38220(14) 0.5305(3)
C17_4 C 0.6187(4) 0.54177(13) 0.3485(3)
C18_4 C 0.1032(3) 0.44921(12) 0.1690(3)
C19_4 C 0.1944(4) 0.44259(13) 0.1062(3)
H14_4 H 0.2837 0.4421 0.1367
O20_2 O 0.8903(3) 0.29550(10) 0.5746(2)
H17_4 H 0.919591 0.374444 0.769139
H18_4 H 0.94001 0.321719 0.827506
O9_2 O 0.3734(3) 0.42887(10) 0.9776(2)
C20_4 C 0.1551(4) 0.43676(13) 0.9996(3)
C21_4 C 0.0218(4) 0.43654(13) 0.9532(3)
C24_4 C 0.2531(4) 0.43091(13) 0.9318(3)
O12_4 O 0.7022(3) 0.45033(11) 0.0167(2)
H7_4 H 0.9743 0.5014 0.3378
C8_4 C 0.9769(4) 0.32769(14) 0.5731(3)
C22_4 C 0.9293(3) 0.44154(13) 0.0139(3)
C23_4 C 0.9695(4) 0.44883(13) 0.1204(3)
H16_4 H 0.9067 0.4535 0.1601
O11_4 O 0.7499(3) 0.42455(11) 0.8719(2)
O14_4 O 0.5240(4) 0.34753(12) 0.9083(3)
O15_2 O 0.4756(3) 0.51365(10) 0.8698(2)
H15_4 H 0.9949 0.4330 0.8815
C25_4 C 0.7854(4) 0.43894(13) 0.9647(3)
H19_4 H 0.546853 0.329964 0.848519
H20_4 H 0.434809 0.337436 0.915787
H21_4 H 0.532581 0.531193 0.928793
H22_2 H 0.381876 0.518252 0.872955
O15_3 O 0.9756(3) 0.98635(10) 0.3698(2)
H22_3 H 0.881876 0.981748 0.372955
O15_4 O 0.0244(3) 0.01365(10) 0.6302(2)
H22_4 H 0.118124 0.0182522 0.627045
loop_
_geom_bond_atom_site_label_1
_geom_bond_atom_site_label_2
_geom_bond_site_symmetry_1
_geom_bond_site_symmetry_2
Cd3 O5 1_555 1_555
O5 C16 1_555 1_555
O6 Cd3 1_555 1_555
O13 Cd3 1_555 1_555
C16 O6 1_555 1_555
O18 Cd3 1_555 1_555
O19 Cd3 1_555 1_555
O20 Cd3 1_555 1_555
O13 H17 1_555 1_555
O13 H18 1_555 1_555
C13 C12 1_555 1_555
H12 C13 1_555 1_555
C14 C13 1_555 1_555
Cd2 O7 1_555 1_555
O7 C17 1_555 1_555
O8 Cd2 1_555 1_555
O16 Cd2 1_555 1_555
H1 O16 1_555 1_555
H2 O16 1_555 1_555
O17 Cd2 1_555 1_555
H3 O17 1_555 1_555
H4 O17 1_555 1_555
C17 O8 1_555 1_555
O21 Cd2 1_555 1_555
O24 Cd2 1_555 1_555
O20 C8 1_555 1_555
O4 C8 1_555 1_555
Cd7 O4 1_555 1_555
Cd4 O11 1_555 1_555
O1 C9 1_555 1_555
O2 C9 1_555 1_555
O9 C24 1_555 1_555
O10 C24 1_555 1_555
O11 C25 1_555 1_555
O12 Cd4 1_555 1_555
O14 Cd4 1_555 1_555
C2 Si1 1_555 1_555
C3 C2 1_555 1_555
H8 C3 1_555 1_555
C4 C3 1_555 1_555
C5 C4 1_555 1_555
H9 C5 1_555 1_555
C6 C5 1_555 1_555
C7 C2 1_555 1_555
H10 C7 1_555 1_555
C9 C4 1_555 1_555
C10 Si1 1_555 1_555
C11 C10 1_555 1_555
H11 C11 1_555 1_555
C15 C10 1_555 1_555
C18 Si1 1_555 1_555
C19 C18 1_555 1_555
H14 C19 1_555 1_555
C20 C19 1_555 1_555
C21 C20 1_555 1_555
H15 C21 1_555 1_555
C22 C21 1_555 1_555
C23 C18 1_555 1_555
H16 C23 1_555 1_555
C24 C20 1_555 1_555
C25 O12 1_555 1_555
Cd7 O10 1_555 1_555
Cd9 O1 1_555 1_555
O2 Cd9 1_555 1_555
C6 C7 1_555 1_555
C22 C23 1_555 1_555
C22 C25 1_555 1_555
O14 H19 1_555 1_555
C1 H5 1_555 1_555
H6 C1 1_555 1_555
H7 C1 1_555 1_555
Cd1 O11_2 1_555 1_555
O11_2 C25_2 1_555 1_555
O14_2 Cd1 1_555 1_555
O15 Cd1 1_555 1_555
O22_2 Cd1 1_555 1_555
O23 Cd1 1_555 1_555
O14_2 H19_2 1_555 1_555
O14_2 H20_2 1_555 1_555
O15 H21_2 1_555 1_555
O15 H22 1_555 1_555
O3 C8_2 1_555 1_555
H16_2 C23_2 1_555 1_555
Cd8 O3 1_555 1_555
C22_2 C23_2 1_555 1_555
O23 C24_2 1_555 1_555
O10_2 C24_2 1_555 1_555
C21_2 C20_2 1_555 1_555
C24_2 C20_2 1_555 1_555
Cd6 O10_2 1_555 1_555
Cd2_2 O7_2 1_555 1_555
Cd8 O5_2 1_555 1_555
Si1_2 C1_2 1_555 1_555
O1_2 C9_2 1_555 1_555
O2_2 C9_2 1_555 1_555
O5_2 C16_2 1_555 1_555
O6_2 Cd8 1_555 1_555
O7_2 C17_2 1_555 1_555
O8_2 Cd2_2 1_555 1_555
O13_2 Cd8 1_555 1_555
O16_2 Cd2_2 1_555 1_555
H1_2 O16_2 1_555 1_555
H2_2 O16_2 1_555 1_555
O17_2 Cd2_2 1_555 1_555
H3_2 O17_2 1_555 1_555
H4_2 O17_2 1_555 1_555
C1_2 H5_2 1_555 1_555
H6_2 C1_2 1_555 1_555
C2_2 Si1_2 1_555 1_555
C3_2 C2_2 1_555 1_555
H8_2 C3_2 1_555 1_555
C4_2 C3_2 1_555 1_555
C5_2 C4_2 1_555 1_555
H9_2 C5_2 1_555 1_555
C6_2 C5_2 1_555 1_555
C7_2 C2_2 1_555 1_555
H10_2 C7_2 1_555 1_555
C9_2 C4_2 1_555 1_555
C10_2 Si1_2 1_555 1_555
C11_2 C10_2 1_555 1_555
H11_2 C11_2 1_555 1_555
C12_2 C11_2 1_555 1_555
C13_2 C12_2 1_555 1_555
H12_2 C13_2 1_555 1_555
C14_2 C13_2 1_555 1_555
C15_2 C10_2 1_555 1_555
H13_2 C15_2 1_555 1_555
C16_2 O6_2 1_555 1_555
C17_2 O8_2 1_555 1_555
C18_2 Si1_2 1_555 1_555
C19_2 C18_2 1_555 1_555
H14_2 C19_2 1_555 1_555
Cd5_2 O8_2 1_555 1_555
Cd6 O4_2 1_555 1_555
Cd9_2 O1_2 1_555 1_555
O18_2 Cd8 1_555 1_555
O19_2 Cd8 1_555 1_555
O21_2 Cd2_2 1_555 1_555
O24_2 Cd2_2 1_555 1_555
O2_2 Cd9_2 1_555 1_555
C6_2 C7_2 1_555 1_555
C12_2 C16_2 1_555 1_555
C14_2 C15_2 1_555 1_555
C14_2 C17_2 1_555 1_555
O13_2 H17_2 1_555 1_555
O13_2 H18_2 1_555 1_555
C1_3 H5_3 1_555 1_555
H6_3 C1_3 1_555 1_555
H7_3 C1_3 1_555 1_555
Cd5 O11_3 1_555 1_555
O18_2 C9_3 1_555 1_555
O19_2 C9_3 1_555 1_555
O23_2 C24_3 1_555 1_555
O24 C24_3 1_555 1_555
O11_3 C25_3 1_555 1_555
O12_3 Cd5 1_555 1_555
O14_3 Cd5 1_555 1_555
C2_3 Si1_3 1_555 1_555
C3_3 C2_3 1_555 1_555
H8_3 C3_3 1_555 1_555
C4_3 C3_3 1_555 1_555
C5_3 C4_3 1_555 1_555
H9_3 C5_3 1_555 1_555
C6_3 C5_3 1_555 1_555
C7_3 C2_3 1_555 1_555
H10_3 C7_3 1_555 1_555
C9_3 C4_3 1_555 1_555
C10_3 Si1_3 1_555 1_555
C11_3 C10_3 1_555 1_555
H11_3 C11_3 1_555 1_555
C15_3 C10_3 1_555 1_555
C18_3 Si1_3 1_555 1_555
C19_3 C18_3 1_555 1_555
H14_3 C19_3 1_555 1_555
C20_3 C19_3 1_555 1_555
C21_3 C20_3 1_555 1_555
H15_3 C21_3 1_555 1_555
C22_3 C21_3 1_555 1_555
C23_3 C18_3 1_555 1_555
H16_3 C23_3 1_555 1_555
C24_3 C20_3 1_555 1_555
C25_3 O12_3 1_555 1_555
C6_3 C7_3 1_555 1_555
C22_3 C23_3 1_555 1_555
C22_3 C25_3 1_555 1_555
O14_3 H19_3 1_555 1_555
O3_2 C8_3 1_555 1_555
O21 C8_3 1_555 1_555
Cd9_2 O3_2 1_555 1_555
Cd7 O7_3 1_555 1_555
O7_3 C17_3 1_555 1_555
O22 Cd7 1_555 1_555
O16_3 Cd7 1_555 1_555
H1_3 O16_3 1_555 1_555
H2_3 O16_3 1_555 1_555
O17_3 Cd7 1_555 1_555
H3_3 O17_3 1_555 1_555
H4_3 O17_3 1_555 1_555
C17_3 O22 1_555 1_555
C13_3 C12_3 1_555 1_555
H12_3 C13_3 1_555 1_555
C14_3 C13_3 1_555 1_555
Cd9_2 O5_3 1_555 1_555
O5_3 C16_3 1_555 1_555
O6_3 Cd9_2 1_555 1_555
O13_3 Cd9_2 1_555 1_555
C16_3 O6_3 1_555 1_555
O13_3 H17_3 1_555 1_555
O13_3 H18_3 1_555 1_555
Cd6 O7_4 1_555 1_555
Cd9 O5_4 1_555 1_555
Si1_4 C1_4 1_555 1_555
O18 C9_4 1_555 1_555
O19 C9_4 1_555 1_555
O5_4 C16_4 1_555 1_555
O6_4 Cd9 1_555 1_555
O7_4 C17_4 1_555 1_555
O22_2 Cd6 1_555 1_555
O13_4 Cd9 1_555 1_555
O16_4 Cd6 1_555 1_555
H1_4 O16_4 1_555 1_555
H2_4 O16_4 1_555 1_555
O17_4 Cd6 1_555 1_555
H3_4 O17_4 1_555 1_555
H4_4 O17_4 1_555 1_555
C1_4 H5_4 1_555 1_555
H6_4 C1_4 1_555 1_555
C2_4 Si1_4 1_555 1_555
C3_4 C2_4 1_555 1_555
H8_4 C3_4 1_555 1_555
C4_4 C3_4 1_555 1_555
C5_4 C4_4 1_555 1_555
H9_4 C5_4 1_555 1_555
C6_4 C5_4 1_555 1_555
C7_4 C2_4 1_555 1_555
H10_4 C7_4 1_555 1_555
C9_4 C4_4 1_555 1_555
C10_4 Si1_4 1_555 1_555
C11_4 C10_4 1_555 1_555
H11_4 C11_4 1_555 1_555
C12_4 C11_4 1_555 1_555
C13_4 C12_4 1_555 1_555
H12_4 C13_4 1_555 1_555
C14_4 C13_4 1_555 1_555
C15_4 C10_4 1_555 1_555
H13_4 C15_4 1_555 1_555
C16_4 O6_4 1_555 1_555
C17_4 O22_2 1_555 1_555
C18_4 Si1_4 1_555 1_555
C19_4 C18_4 1_555 1_555
H14_4 C19_4 1_555 1_555
O20_2 Cd9 1_555 1_555
C6_4 C7_4 1_555 1_555
C12_4 C16_4 1_555 1_555
C14_4 C15_4 1_555 1_555
C14_4 C17_4 1_555 1_555
O13_4 H17_4 1_555 1_555
O13_4 H18_4 1_555 1_555
O9_2 C24_4 1_555 1_555
O24_2 C24_4 1_555 1_555
C21_4 C20_4 1_555 1_555
C24_4 C20_4 1_555 1_555
Cd5_2 O9_2 1_555 1_555
O20_2 C8_4 1_555 1_555
H16_4 C23_4 1_555 1_555
C22_4 C23_4 1_555 1_555
Cd5_2 O11_4 1_555 1_555
O11_4 C25_4 1_555 1_555
O14_4 Cd5_2 1_555 1_555
O15_2 Cd5_2 1_555 1_555
O14_4 H19_4 1_555 1_555
O14_4 H20_4 1_555 1_555
O15_2 H21_4 1_555 1_555
O15_2 H22_2 1_555 1_555
O15_3 H22_3 1_555 1_555
O15_4 H22_4 1_555 1_555

#END
