
###############################################################################
#
# This file contains modified crystal structure data generated from the
# MOF subset of the Cambridge Structural Database (CSD) v543 
# hosted by the Cambridge Crystallographic Data Centre (CCDC).
#
# This work is licensed under the Creative Commons
# Attribution-NonCommercial-ShareAlike 4.0 International License.
# To view a copy of this license, visit
# http://creativecommons.org/licenses/by-nc-sa/4.0/
# or send a letter to
# Creative Commons, PO Box 1866, Mountain View, CA 94042, USA.
#
# CIF created using the CSD Python API on 29 September 2022
# The structure has been converted into the P1 space group
# The structure has a 3D framework
# The original CSD entry OCIVIH01 is in the hexagonal crystal system
# The framework has been calculated to contain at least 10.0% void space
# The void calculation uses a probe of radius 1.32A, grid spacing 0.4
#
###############################################################################

data_OCIVIH01
_chemical_formula_moiety         '(C84 H60 Co15 N12 O66 Pr2)n'
_symmetry_cell_setting           triclinic
_symmetry_space_group_name_H-M   'P 1'
_symmetry_Int_Tables_number      1
_space_group_name_Hall           'P 1'
loop_
_symmetry_equiv_pos_site_id
_symmetry_equiv_pos_as_xyz
1 x,y,z
_cell_length_a                   15.5261(5)
_cell_length_b                   15.5261(5)
_cell_length_c                   15.2114(8)
_cell_angle_alpha                90
_cell_angle_beta                 90
_cell_angle_gamma                120
_cell_volume                     3175.59
loop_
_atom_site_label
_atom_site_type_symbol
_atom_site_fract_x
_atom_site_fract_y
_atom_site_fract_z
Co2 Co -0.0000 0.5000 0.0000
O30 O 0.13228(17) 0.48816(24) 0.0000
H29 H 0.165(2) 0.526(3) 0.049(2)
Co5 Co 0.0000 0.5000 0.5000
O35 O 0.05765(12) 0.61230(17) 0.09437(12)
Co2_2 Co -0.0000 0.5000 1.0000
O30_2 O 0.13228(17) 0.48816(24) 1.0000
H30 H 0.165(2) 0.526(3) 0.951(2)
O36 O 0.05765(12) 0.61230(17) 0.90563(12)
Pr1 Pr 0.6667 0.3333 0.2500
O1 O 0.58124(11) 0.19575(12) 0.14124(11)
N1 N 0.4746(2) 0.23728(10) 0.2500
C1 C 0.42444(16) 0.15967(16) 0.19655(14)
Co1 Co 0.5000 0.0000 0.0000
O2 O 0.44535(12) 0.05765(12) 0.09437(12)
C2 C 0.32177(18) 0.1065(2) 0.1941(2)
H1 H 0.2883 0.0530 0.1559
O3 O 0.64412(17) 0.13228(17) 0.0000
H2 H 0.639(2) 0.165(2) 0.049(2)
C3 C 0.2699(3) 0.13493(15) 0.2500
H3 H 0.2007 0.1004 0.2500
C4 C 0.48834(17) 0.13484(17) 0.13926(15)
O4 O 0.58124(11) 0.38549(16) 0.35876(11)
C5 C 0.42444(16) 0.26477(23) 0.30345(14)
O5 O 0.44535(12) 0.38770(17) 0.40563(12)
C6 C 0.32177(18) 0.21527(27) 0.3059(2)
H4 H 0.2883 0.2353 0.3441
C7 C 0.48834(17) 0.35350(24) 0.36074(15)
O6 O 0.80425(12) 0.38549(16) 0.14124(11)
N2 N 0.76272(10) 0.23732(22) 0.2500
C8 C 0.84033(16) 0.26477(23) 0.19655(14)
Co2_3 Co 1.0000 0.5000 0.0000
O7 O 0.94235(12) 0.38770(17) 0.09437(12)
C9 C 0.8935(2) 0.21527(27) 0.1941(2)
H6 H 0.9470 0.2353 0.1559
O8 O 0.86772(17) 0.51184(24) 0.0000
H7 H 0.835(2) 0.474(3) 0.049(2)
C10 C 0.86507(15) 0.13497(34) 0.2500
H8 H 0.8996 0.1003 0.2500
C11 C 0.86516(17) 0.35350(24) 0.13926(15)
O9 O 0.61451(16) 0.19575(12) 0.35876(11)
C12 C 0.73523(23) 0.15967(16) 0.30345(14)
O10 O 0.61230(17) 0.05765(12) 0.40563(12)
C13 C 0.78473(27) 0.1065(2) 0.3059(2)
H9 H 0.7647 0.0530 0.3441
C14 C 0.64650(24) 0.13484(17) 0.36074(15)
O11 O 0.61451(16) 0.41876(11) 0.14124(11)
N3 N 0.76268(22) 0.5254(2) 0.2500
C15 C 0.73523(23) 0.57556(16) 0.19655(14)
Co3 Co 0.5000 0.5000 0.0000
O12 O 0.61230(17) 0.55465(12) 0.09437(12)
C16 C 0.78473(27) 0.67823(18) 0.1941(2)
H11 H 0.7647 0.7117 0.1559
O13 O 0.48816(24) 0.35588(17) 0.0000
H12 H 0.526(3) 0.361(2) 0.049(2)
C17 C 0.86503(34) 0.7301(3) 0.2500
H13 H 0.8997 0.7993 0.2500
C18 C 0.64650(24) 0.51166(17) 0.13926(15)
O14 O 0.80425(12) 0.41876(11) 0.35876(11)
C19 C 0.84033(16) 0.57556(16) 0.30345(14)
O15 O 0.94235(12) 0.55465(12) 0.40563(12)
C20 C 0.8935(2) 0.67823(18) 0.3059(2)
H14 H 0.9470 0.7117 0.3441
C21 C 0.86516(17) 0.51166(17) 0.36074(15)
O17 O 0.38549(16) 0.58124(11) 0.14124(11)
N4 N 0.23732(22) 0.4746(2) 0.2500
C22 C 0.26477(23) 0.42444(16) 0.19655(14)
O18 O 0.38770(17) 0.44535(12) 0.09437(12)
C23 C 0.21527(27) 0.32177(18) 0.1941(2)
H18 H 0.2353 0.2883 0.1559
O19 O 0.51184(24) 0.64412(17) 0.0000
H19 H 0.474(3) 0.639(2) 0.049(2)
C24 C 0.13497(34) 0.2699(3) 0.2500
H20 H 0.1003 0.2007 0.2500
C25 C 0.35350(24) 0.48834(17) 0.13926(15)
O20 O 0.19575(12) 0.58124(11) 0.35876(11)
C26 C 0.15967(16) 0.42444(16) 0.30345(14)
O21 O 0.05765(12) 0.44535(12) 0.40563(12)
C27 C 0.1065(2) 0.32177(18) 0.3059(2)
H21 H 0.0530 0.2883 0.3441
C28 C 0.13484(17) 0.48834(17) 0.36074(15)
Pr3 Pr 0.3333 0.6667 0.2500
Co5_2 Co 1.0000 0.5000 0.5000
Co6 Co 0.5000 0.0000 0.5000
Co9 Co 0.5000 0.5000 0.5000
Co1_2 Co 0.5000 0.0000 1.0000
O3_2 O 0.64412(17) 0.13228(17) 1.0000
H5 H 0.639(2) 0.165(2) 0.951(2)
Co2_4 Co 1.0000 0.5000 1.0000
O8_2 O 0.86772(17) 0.51184(24) 1.0000
H10 H 0.835(2) 0.474(3) 0.951(2)
Co3_2 Co 0.5000 0.5000 1.0000
O13_2 O 0.48816(24) 0.35588(17) 1.0000
H15 H 0.526(3) 0.361(2) 0.951(2)
O19_2 O 0.51184(24) 0.64412(17) 1.0000
H22 H 0.474(3) 0.639(2) 0.951(2)
O37 O 0.38770(17) 0.44535(12) 0.90563(12)
O38 O 0.44535(12) 0.05765(12) 0.90563(12)
O39 O 0.94235(12) 0.38770(17) 0.90563(12)
O40 O 0.61230(17) 0.55465(12) 0.90563(12)
Co1_3 Co 0.5000 1.0000 0.0000
O16 O 0.35588(17) 0.86772(17) 0.0000
H16 H 0.361(2) 0.835(2) 0.049(2)
O22 O 0.41876(11) 0.80425(12) 0.14124(11)
N5 N 0.5254(2) 0.76272(10) 0.2500
C29 C 0.57556(16) 0.84033(16) 0.19655(14)
O23 O 0.55465(12) 0.94235(12) 0.09437(12)
C30 C 0.67823(18) 0.8935(2) 0.1941(2)
H23 H 0.7117 0.9470 0.1559
C31 C 0.7301(3) 0.86507(15) 0.2500
H24 H 0.7993 0.8996 0.2500
C32 C 0.51166(17) 0.86516(17) 0.13926(15)
O24 O 0.41876(11) 0.61451(16) 0.35876(11)
C33 C 0.57556(16) 0.73523(23) 0.30345(14)
O25 O 0.55465(12) 0.61230(17) 0.40563(12)
C34 C 0.67823(18) 0.78473(27) 0.3059(2)
H25 H 0.7117 0.7647 0.3441
C35 C 0.51166(17) 0.64650(24) 0.36074(15)
O31 O 0.19575(12) 0.61451(16) 0.14124(11)
O34 O 0.38549(16) 0.80425(12) 0.35876(11)
N7 N 0.23728(10) 0.76268(22) 0.2500
Co6_2 Co 0.5000 1.0000 0.5000
Co1_4 Co 0.5000 1.0000 1.0000
O16_2 O 0.35588(17) 0.86772(17) 1.0000
H17 H 0.361(2) 0.835(2) 0.951(2)
O26 O 0.41876(11) 0.80425(12) 0.85876(11)
N6 N 0.5254(2) 0.76272(10) 0.7500
C36 C 0.57556(16) 0.84033(16) 0.80345(14)
O27 O 0.55465(12) 0.94235(12) 0.90563(12)
C37 C 0.67823(18) 0.8935(2) 0.8059(2)
H26 H 0.7117 0.9470 0.8441
C38 C 0.7301(3) 0.86507(15) 0.7500
H27 H 0.7993 0.8996 0.7500
C39 C 0.51166(17) 0.86516(17) 0.86074(15)
O28 O 0.41876(11) 0.61451(16) 0.64124(11)
C40 C 0.57556(16) 0.73523(23) 0.69655(14)
O29 O 0.55465(12) 0.61230(17) 0.59437(12)
C41 C 0.67823(18) 0.78473(27) 0.6941(2)
H28 H 0.7117 0.7647 0.6559
C42 C 0.51166(17) 0.64650(24) 0.63926(15)
Pr4 Pr 0.3333 0.6667 0.7500
C29_2 C 0.15967(16) 0.73523(23) 0.19655(14)
C30_2 C 0.1065(2) 0.78473(27) 0.1941(2)
H23_2 H 0.0530 0.7647 0.1559
C31_2 C 0.13493(15) 0.86503(34) 0.2500
H24_2 H 0.1004 0.8997 0.2500
C32_2 C 0.13484(17) 0.64650(24) 0.13926(15)
C33_2 C 0.26477(23) 0.84033(28) 0.30345(14)
O25_2 O 0.38770(17) 0.94235(21) 0.40563(12)
C34_2 C 0.21527(27) 0.89350(32) 0.3059(2)
H25_2 H 0.2353 0.9470 0.3441
C35_2 C 0.35350(24) 0.86516(29) 0.36074(15)
O26_2 O 0.19575(12) 0.61451(16) 0.85876(11)
N6_2 N 0.23728(10) 0.76268(22) 0.7500
C36_2 C 0.15967(16) 0.73523(23) 0.80345(14)
C37_2 C 0.1065(2) 0.78473(27) 0.8059(2)
H26_2 H 0.0530 0.7647 0.8441
C38_2 C 0.13493(15) 0.86503(34) 0.7500
H27_2 H 0.1004 0.8997 0.7500
C39_2 C 0.13484(17) 0.64650(24) 0.86074(15)
O28_2 O 0.38549(16) 0.80425(19) 0.64124(11)
C40_2 C 0.26477(23) 0.84033(28) 0.69655(14)
O29_2 O 0.38770(17) 0.94235(21) 0.59437(12)
C41_2 C 0.21527(27) 0.89350(32) 0.6941(2)
H28_2 H 0.2353 0.9470 0.6559
C42_2 C 0.35350(24) 0.86516(29) 0.63926(15)
O26_3 O 0.38549(16) 0.58124(11) 0.85876(11)
N6_3 N 0.23732(22) 0.4746(2) 0.7500
C36_3 C 0.26477(23) 0.42444(16) 0.80345(14)
C37_3 C 0.21527(27) 0.32177(18) 0.8059(2)
H26_3 H 0.2353 0.2883 0.8441
C38_3 C 0.13497(34) 0.2699(3) 0.7500
H27_3 H 0.1003 0.2007 0.7500
C39_3 C 0.35350(24) 0.48834(17) 0.86074(15)
O28_3 O 0.19575(19) 0.58124(11) 0.64124(11)
C40_3 C 0.15967(28) 0.42444(16) 0.69655(14)
O29_3 O 0.05765(21) 0.44535(12) 0.59437(12)
C41_3 C 0.10650(32) 0.32177(18) 0.6941(2)
H28_3 H 0.0530 0.2883 0.6559
C42_3 C 0.13484(29) 0.48834(17) 0.63926(15)
O26_4 O 0.58124(11) 0.19575(12) 0.85876(11)
N6_4 N 0.4746(2) 0.23728(10) 0.7500
C36_4 C 0.42444(16) 0.15967(16) 0.80345(14)
C37_4 C 0.32177(18) 0.1065(2) 0.8059(2)
H26_4 H 0.2883 0.0530 0.8441
C38_4 C 0.2699(3) 0.13493(15) 0.7500
H27_4 H 0.2007 0.1004 0.7500
C39_4 C 0.48834(17) 0.13484(17) 0.86074(15)
O28_4 O 0.58124(11) 0.38549(16) 0.64124(11)
C40_4 C 0.42444(16) 0.26477(23) 0.69655(14)
O29_4 O 0.44535(12) 0.38770(17) 0.59437(12)
C41_4 C 0.32177(18) 0.21527(27) 0.6941(2)
H28_4 H 0.2883 0.2353 0.6559
C42_4 C 0.48834(17) 0.35350(24) 0.63926(15)
Pr4_2 Pr 0.6667 0.3333 0.7500
O26_5 O 0.80425(12) 0.38549(16) 0.85876(11)
N6_5 N 0.76272(10) 0.23732(22) 0.7500
C36_5 C 0.84033(16) 0.26477(23) 0.80345(14)
C37_5 C 0.8935(2) 0.21527(27) 0.8059(2)
H26_5 H 0.9470 0.2353 0.8441
C38_5 C 0.86507(15) 0.13497(34) 0.7500
H27_5 H 0.8996 0.1003 0.7500
C39_5 C 0.86516(17) 0.35350(24) 0.86074(15)
O28_5 O 0.61451(16) 0.19575(19) 0.64124(11)
C40_5 C 0.73523(23) 0.15967(28) 0.69655(14)
O29_5 O 0.61230(17) 0.05765(21) 0.59437(12)
C41_5 C 0.78473(27) 0.10650(32) 0.6941(2)
H28_5 H 0.7647 0.0530 0.6559
C42_5 C 0.64650(24) 0.13484(29) 0.63926(15)
O26_6 O 0.61451(16) 0.41876(11) 0.85876(11)
N6_6 N 0.76268(22) 0.5254(2) 0.7500
C36_6 C 0.73523(23) 0.57556(16) 0.80345(14)
C37_6 C 0.78473(27) 0.67823(18) 0.8059(2)
H26_6 H 0.7647 0.7117 0.8441
C38_6 C 0.86503(34) 0.7301(3) 0.7500
H27_6 H 0.8997 0.7993 0.7500
C39_6 C 0.64650(24) 0.51166(17) 0.86074(15)
O28_6 O 0.80425(19) 0.41876(11) 0.64124(11)
C40_6 C 0.84033(28) 0.57556(16) 0.69655(14)
O29_6 O 0.94235(21) 0.55465(12) 0.59437(12)
C41_6 C 0.89350(32) 0.67823(18) 0.6941(2)
H28_6 H 0.9470 0.7117 0.6559
C42_6 C 0.86516(29) 0.51166(17) 0.63926(15)
O30_3 O 0.48816(24) 0.13228(17) 0.5000
H29_2 H 0.526(3) 0.165(2) 0.451(2)
H30_2 H 0.526(3) 0.165(2) 0.549(2)
O3_3 O 0.13228(17) 0.64412(17) 0.5000
H2_2 H 0.165(2) 0.639(2) 0.451(2)
H5_2 H 0.165(2) 0.639(2) 0.549(2)
O8_3 O 0.51184(24) 0.86772(17) 0.5000
H7_2 H 0.474(3) 0.835(2) 0.451(2)
H10_2 H 0.474(3) 0.835(2) 0.549(2)
O13_3 O 0.35588(17) 0.48816(24) 0.5000
H12_2 H 0.361(2) 0.526(3) 0.451(2)
H15_2 H 0.361(2) 0.526(3) 0.549(2)
O19_3 O 0.64412(17) 0.51184(24) 0.5000
H19_2 H 0.639(2) 0.474(3) 0.451(2)
H22_2 H 0.639(2) 0.474(3) 0.549(2)
O16_3 O 0.86772(17) 0.35588(17) 0.5000
H16_2 H 0.835(2) 0.361(2) 0.451(2)
H17_2 H 0.835(2) 0.361(2) 0.549(2)
loop_
_geom_bond_atom_site_label_1
_geom_bond_atom_site_label_2
_geom_bond_site_symmetry_1
_geom_bond_site_symmetry_2
O30 Co2 1_555 1_555
H29 O30 1_555 1_555
O35 Co2 1_555 1_555
O30_2 Co2_2 1_555 1_555
H30 O30_2 1_555 1_555
O36 Co2_2 1_555 1_555
Pr1 O1 1_555 1_555
O1 C4 1_555 1_555
N1 Pr1 1_555 1_555
C1 N1 1_555 1_555
Co1 O2 1_555 1_555
O2 C4 1_555 1_555
C2 C1 1_555 1_555
H1 C2 1_555 1_555
O3 Co1 1_555 1_555
H2 O3 1_555 1_555
C3 C2 1_555 1_555
H3 C3 1_555 1_555
C4 C1 1_555 1_555
O4 Pr1 1_555 1_555
C5 N1 1_555 1_555
O5 C7 1_555 1_555
C6 C3 1_555 1_555
H4 C6 1_555 1_555
C7 O4 1_555 1_555
O6 Pr1 1_555 1_555
N2 Pr1 1_555 1_555
C8 N2 1_555 1_555
Co2_3 O7 1_555 1_555
O7 C11 1_555 1_555
C9 C8 1_555 1_555
H6 C9 1_555 1_555
O8 Co2_3 1_555 1_555
H7 O8 1_555 1_555
C10 C9 1_555 1_555
H8 C10 1_555 1_555
C11 O6 1_555 1_555
O9 Pr1 1_555 1_555
C12 N2 1_555 1_555
O10 C14 1_555 1_555
C13 C10 1_555 1_555
H9 C13 1_555 1_555
C14 O9 1_555 1_555
O11 Pr1 1_555 1_555
N3 Pr1 1_555 1_555
C15 N3 1_555 1_555
Co3 O12 1_555 1_555
O12 C18 1_555 1_555
C16 C15 1_555 1_555
H11 C16 1_555 1_555
O13 Co3 1_555 1_555
H12 O13 1_555 1_555
C17 C16 1_555 1_555
H13 C17 1_555 1_555
C18 O11 1_555 1_555
O14 Pr1 1_555 1_555
C19 N3 1_555 1_555
O15 C21 1_555 1_555
C20 C17 1_555 1_555
H14 C20 1_555 1_555
C21 O14 1_555 1_555
O17 C25 1_555 1_555
N4 C22 1_555 1_555
C22 C23 1_555 1_555
O18 Co3 1_555 1_555
C23 H18 1_555 1_555
O19 Co3 1_555 1_555
H19 O19 1_555 1_555
C24 C23 1_555 1_555
H20 C24 1_555 1_555
C25 C22 1_555 1_555
O20 C28 1_555 1_555
C26 N4 1_555 1_555
O21 C28 1_555 1_555
C27 C24 1_555 1_555
H21 C27 1_555 1_555
C28 C26 1_555 1_555
Pr3 O17 1_555 1_555
Co5 O21 1_555 1_555
Co5_2 O15 1_555 1_555
Co6 O10 1_555 1_555
Co9 O5 1_555 1_555
C5 C6 1_555 1_555
C5 C7 1_555 1_555
C8 C11 1_555 1_555
C12 C13 1_555 1_555
C12 C14 1_555 1_555
C15 C18 1_555 1_555
C19 C20 1_555 1_555
C19 C21 1_555 1_555
N4 Pr3 1_555 1_555
O18 C25 1_555 1_555
O20 Pr3 1_555 1_555
C26 C27 1_555 1_555
O3_2 Co1_2 1_555 1_555
H5 O3_2 1_555 1_555
O8_2 Co2_4 1_555 1_555
H10 O8_2 1_555 1_555
O13_2 Co3_2 1_555 1_555
H15 O13_2 1_555 1_555
O19_2 Co3_2 1_555 1_555
H22 O19_2 1_555 1_555
O37 Co3_2 1_555 1_555
O38 Co1_2 1_555 1_555
O39 Co2_4 1_555 1_555
O40 Co3_2 1_555 1_555
O16 Co1_3 1_555 1_555
H16 O16 1_555 1_555
Pr3 O22 1_555 1_555
O22 C32 1_555 1_555
N5 Pr3 1_555 1_555
C29 N5 1_555 1_555
O23 Co1_3 1_555 1_555
C30 C29 1_555 1_555
H23 C30 1_555 1_555
C31 C30 1_555 1_555
H24 C31 1_555 1_555
C32 C29 1_555 1_555
O24 Pr3 1_555 1_555
C33 N5 1_555 1_555
O25 C35 1_555 1_555
C34 C31 1_555 1_555
H25 C34 1_555 1_555
C35 O24 1_555 1_555
O31 Pr3 1_555 1_555
O34 Pr3 1_555 1_555
N7 Pr3 1_555 1_555
Co9 O25 1_555 1_555
O23 C32 1_555 1_555
C33 C34 1_555 1_555
C33 C35 1_555 1_555
O16_2 Co1_4 1_555 1_555
H17 O16_2 1_555 1_555
O26 C39 1_555 1_555
N6 C36 1_555 1_555
C36 C37 1_555 1_555
O27 Co1_4 1_555 1_555
C37 H26 1_555 1_555
C38 C37 1_555 1_555
H27 C38 1_555 1_555
C39 C36 1_555 1_555
O28 C42 1_555 1_555
C40 N6 1_555 1_555
O29 C42 1_555 1_555
C41 C38 1_555 1_555
H28 C41 1_555 1_555
C42 C40 1_555 1_555
Pr4 O26 1_555 1_555
Co9 O29 1_555 1_555
N6 Pr4 1_555 1_555
O27 C39 1_555 1_555
O28 Pr4 1_555 1_555
C40 C41 1_555 1_555
O31 C32_2 1_555 1_555
C29_2 N7 1_555 1_555
C30_2 C29_2 1_555 1_555
H23_2 C30_2 1_555 1_555
C31_2 C30_2 1_555 1_555
H24_2 C31_2 1_555 1_555
C32_2 C29_2 1_555 1_555
C33_2 N7 1_555 1_555
O25_2 C35_2 1_555 1_555
C34_2 C31_2 1_555 1_555
H25_2 C34_2 1_555 1_555
C35_2 O34 1_555 1_555
Co6_2 O25_2 1_555 1_555
O35 C32_2 1_555 1_555
C33_2 C34_2 1_555 1_555
C33_2 C35_2 1_555 1_555
O26_2 C39_2 1_555 1_555
N6_2 C36_2 1_555 1_555
C36_2 C37_2 1_555 1_555
C37_2 H26_2 1_555 1_555
C38_2 C37_2 1_555 1_555
H27_2 C38_2 1_555 1_555
C39_2 C36_2 1_555 1_555
O28_2 C42_2 1_555 1_555
C40_2 N6_2 1_555 1_555
O29_2 C42_2 1_555 1_555
C41_2 C38_2 1_555 1_555
H28_2 C41_2 1_555 1_555
C42_2 C40_2 1_555 1_555
Pr4 O26_2 1_555 1_555
Co6_2 O29_2 1_555 1_555
N6_2 Pr4 1_555 1_555
O36 C39_2 1_555 1_555
O28_2 Pr4 1_555 1_555
C40_2 C41_2 1_555 1_555
O26_3 C39_3 1_555 1_555
N6_3 C36_3 1_555 1_555
C36_3 C37_3 1_555 1_555
C37_3 H26_3 1_555 1_555
C38_3 C37_3 1_555 1_555
H27_3 C38_3 1_555 1_555
C39_3 C36_3 1_555 1_555
O28_3 C42_3 1_555 1_555
C40_3 N6_3 1_555 1_555
O29_3 C42_3 1_555 1_555
C41_3 C38_3 1_555 1_555
H28_3 C41_3 1_555 1_555
C42_3 C40_3 1_555 1_555
Pr4 O26_3 1_555 1_555
Co5 O29_3 1_555 1_555
N6_3 Pr4 1_555 1_555
O37 C39_3 1_555 1_555
O28_3 Pr4 1_555 1_555
C40_3 C41_3 1_555 1_555
O26_4 C39_4 1_555 1_555
N6_4 C36_4 1_555 1_555
C36_4 C37_4 1_555 1_555
C37_4 H26_4 1_555 1_555
C38_4 C37_4 1_555 1_555
H27_4 C38_4 1_555 1_555
C39_4 C36_4 1_555 1_555
O28_4 C42_4 1_555 1_555
C40_4 N6_4 1_555 1_555
O29_4 C42_4 1_555 1_555
C41_4 C38_4 1_555 1_555
H28_4 C41_4 1_555 1_555
C42_4 C40_4 1_555 1_555
Pr4_2 O26_4 1_555 1_555
Co9 O29_4 1_555 1_555
N6_4 Pr4_2 1_555 1_555
O38 C39_4 1_555 1_555
O28_4 Pr4_2 1_555 1_555
C40_4 C41_4 1_555 1_555
O26_5 C39_5 1_555 1_555
N6_5 C36_5 1_555 1_555
C36_5 C37_5 1_555 1_555
C37_5 H26_5 1_555 1_555
C38_5 C37_5 1_555 1_555
H27_5 C38_5 1_555 1_555
C39_5 C36_5 1_555 1_555
O28_5 C42_5 1_555 1_555
C40_5 N6_5 1_555 1_555
O29_5 C42_5 1_555 1_555
C41_5 C38_5 1_555 1_555
H28_5 C41_5 1_555 1_555
C42_5 C40_5 1_555 1_555
Pr4_2 O26_5 1_555 1_555
Co6 O29_5 1_555 1_555
N6_5 Pr4_2 1_555 1_555
O39 C39_5 1_555 1_555
O28_5 Pr4_2 1_555 1_555
C40_5 C41_5 1_555 1_555
O26_6 C39_6 1_555 1_555
N6_6 C36_6 1_555 1_555
C36_6 C37_6 1_555 1_555
C37_6 H26_6 1_555 1_555
C38_6 C37_6 1_555 1_555
H27_6 C38_6 1_555 1_555
C39_6 C36_6 1_555 1_555
O28_6 C42_6 1_555 1_555
C40_6 N6_6 1_555 1_555
O29_6 C42_6 1_555 1_555
C41_6 C38_6 1_555 1_555
H28_6 C41_6 1_555 1_555
C42_6 C40_6 1_555 1_555
Pr4_2 O26_6 1_555 1_555
Co5_2 O29_6 1_555 1_555
N6_6 Pr4_2 1_555 1_555
O40 C39_6 1_555 1_555
O28_6 Pr4_2 1_555 1_555
C40_6 C41_6 1_555 1_555
O30_3 Co6 1_555 1_555
H29_2 O30_3 1_555 1_555
H30_2 O30_3 1_555 1_555
O3_3 Co5 1_555 1_555
H2_2 O3_3 1_555 1_555
H5_2 O3_3 1_555 1_555
O8_3 Co6_2 1_555 1_555
H7_2 O8_3 1_555 1_555
H10_2 O8_3 1_555 1_555
O13_3 Co9 1_555 1_555
H12_2 O13_3 1_555 1_555
H15_2 O13_3 1_555 1_555
O19_3 Co9 1_555 1_555
H19_2 O19_3 1_555 1_555
H22_2 O19_3 1_555 1_555
O16_3 Co5_2 1_555 1_555
H16_2 O16_3 1_555 1_555
H17_2 O16_3 1_555 1_555

#END
