
###############################################################################
#
# This file contains modified crystal structure data generated from the
# MOF subset of the Cambridge Structural Database (CSD) v543 
# hosted by the Cambridge Crystallographic Data Centre (CCDC).
#
# This work is licensed under the Creative Commons
# Attribution-NonCommercial-ShareAlike 4.0 International License.
# To view a copy of this license, visit
# http://creativecommons.org/licenses/by-nc-sa/4.0/
# or send a letter to
# Creative Commons, PO Box 1866, Mountain View, CA 94042, USA.
#
# CIF created using the CSD Python API on 29 September 2022
# The structure has been converted into the P1 space group
# The structure has a 3D framework
# The original CSD entry OCUCOI01 is in the orthorhombic crystal system
# The framework has been calculated to contain at least 10.0% void space
# The void calculation uses a probe of radius 1.32A, grid spacing 0.4
# The framework is charged, counterions have been retained in the structure
#
###############################################################################

data_OCUCOI01
_chemical_formula_moiety         '(C40 H12 Dy12 O80 4-)n'
_symmetry_cell_setting           triclinic
_symmetry_space_group_name_H-M   'P 1'
_symmetry_Int_Tables_number      1
_space_group_name_Hall           'P 1'
loop_
_symmetry_equiv_pos_site_id
_symmetry_equiv_pos_as_xyz
1 x,y,z
_cell_length_a                   11.7341(6)
_cell_length_b                   12.9072(5)
_cell_length_c                   15.8646(8)
_cell_angle_alpha                90
_cell_angle_beta                 90
_cell_angle_gamma                90
_cell_volume                     2402.76
loop_
_atom_site_label
_atom_site_type_symbol
_atom_site_fract_x
_atom_site_fract_y
_atom_site_fract_z
Dy6 Dy -0.0000 0.02996(5) 0.80738(4)
Dy5 Dy 0.0000 0.97004(5) 0.19262(4)
Dy1 Dy 0.5000 0.02996(5) 0.69262(4)
O2 O 0.6927(6) 0.0341(5) 0.6495(4)
O3 O 0.8739(6) 0.0414(8) 0.6915(4)
C1 C 0.7688(9) 0.0366(7) 0.7032(5)
O4 O 0.5000 0.2090(9) 0.7109(7)
O5 O 0.5000 0.3704(8) 0.7482(8)
C2 C 0.5000 0.2747(9) 0.7575(9)
H1 H 0.5000 0.2536 0.8135
O7 O 0.5000 0.0918(6) 0.4204(5)
C4 C 0.5000 0.0619(7) 0.4930(8)
O8 O 0.5000 0.1140(6) 0.5582(5)
O9 O 0.8073(6) 0.0341(5) 0.8505(4)
O10 O 0.6261(6) 0.0414(8) 0.8085(4)
C5 C 0.7312(9) 0.0366(7) 0.7968(5)
Dy4 Dy 0.5000 0.52996(5) 0.80738(4)
Dy6_2 Dy 1.0000 0.02996(5) 0.80738(4)
O18 O 0.3073(6) 0.0341(5) 0.6495(4)
O19 O 0.3739(6) 0.0414(8) 0.8085(4)
O21 O 0.5000 0.1296(8) 0.2482(8)
O1 O 0.5000 0.9082(6) 0.5796(5)
C3 C 0.5000 0.9381(7) 0.5070(8)
O6 O 0.5000 0.8860(6) 0.4418(5)
Dy2 Dy 0.5000 0.97004(5) 0.30738(4)
O11 O 0.6927(6) 0.9659(5) 0.3505(4)
O12 O 0.8739(6) 0.9586(8) 0.3085(4)
C6 C 0.7688(9) 0.9634(7) 0.2968(5)
O13 O 0.5000 0.7910(9) 0.2891(7)
O14 O 0.5000 0.6296(8) 0.2518(8)
C7 C 0.5000 0.7253(9) 0.2425(9)
H2 H 0.5000 0.7464 0.1865
O15 O 0.8073(6) 0.9659(5) 0.1495(4)
O16 O 0.6261(6) 0.9586(8) 0.1915(4)
C8 C 0.7312(9) 0.9634(7) 0.2032(5)
Dy3 Dy 0.5000 0.47004(5) 0.19262(4)
Dy5_2 Dy 1.0000 0.97004(5) 0.19262(4)
O17 O 0.3073(6) 0.9659(5) 0.3505(4)
O20 O 0.3739(6) 0.9586(8) 0.1915(4)
O22 O 0.5000 0.8704(8) 0.7518(8)
O1_2 O 0.5000 0.5918(6) 0.0796(5)
O2_2 O 0.3073(6) 0.4659(5) 0.1495(4)
O3_2 O 0.1261(6) 0.4586(8) 0.1915(4)
C1_2 C 0.2312(9) 0.4634(7) 0.2032(5)
O4_2 O 0.5000 0.2910(9) 0.2109(7)
C2_2 C 0.5000 0.2253(9) 0.2575(9)
H1_2 H 0.5000 0.2464 0.3135
C3_2 C 0.5000 0.5619(7) 0.0070(8)
O8_2 O 0.5000 0.3860(6) 0.0582(5)
O9_2 O 0.1927(6) 0.4659(5) 0.3505(4)
O10_2 O 0.3739(6) 0.4586(8) 0.3085(4)
C5_2 C 0.2688(9) 0.4634(7) 0.2968(5)
Dy6_3 Dy 0.0000 0.47004(5) 0.30738(4)
O18_2 O 0.6927(6) 0.4659(5) 0.1495(4)
O19_2 O 0.6261(6) 0.4586(8) 0.3085(4)
O6_2 O 0.5000 0.6140(6) 0.9418(5)
O7_2 O 0.5000 0.4082(6) 0.9204(5)
C4_2 C 0.5000 0.4381(7) 0.9930(8)
O11_2 O 0.3073(6) 0.5341(5) 0.8505(4)
O12_2 O 0.1261(6) 0.5414(8) 0.8085(4)
C6_2 C 0.2312(9) 0.5366(7) 0.7968(5)
O13_2 O 0.5000 0.7090(9) 0.7891(7)
C7_2 C 0.5000 0.7747(9) 0.7425(9)
H2_2 H 0.5000 0.7536 0.6865
O15_2 O 0.1927(6) 0.5341(5) 0.6495(4)
O16_2 O 0.3739(6) 0.5414(8) 0.6915(4)
C8_2 C 0.2688(9) 0.5366(7) 0.7032(5)
Dy5_3 Dy 0.0000 0.52996(5) 0.69262(4)
O17_2 O 0.6927(6) 0.5341(5) 0.8505(4)
O20_2 O 0.6261(6) 0.5414(8) 0.6915(4)
Dy6_4 Dy 1.0000 0.47004(5) 0.30738(4)
Dy5_4 Dy 1.0000 0.52996(5) 0.69262(4)
O1_3 O 0.0000 0.4082(6) 0.5796(5)
O4_3 O 0.0000 0.7090(9) 0.7109(7)
O5_2 O 0.0000 0.8704(8) 0.7482(8)
C2_3 C 0.0000 0.7747(9) 0.7575(9)
H1_3 H 0.0000 0.7536 0.8135
C3_3 C 0.0000 0.4381(7) 0.5070(8)
O6_3 O -0.0000 0.3860(6) 0.4418(5)
O7_3 O -0.0000 0.5918(6) 0.4204(5)
C4_3 C 0.0000 0.5619(7) 0.4930(8)
O8_3 O 0.0000 0.6140(6) 0.5582(5)
O13_3 O 0.0000 0.2910(9) 0.2891(7)
O14_2 O -0.0000 0.1296(8) 0.2518(8)
C7_3 C 0.0000 0.2253(9) 0.2425(9)
H2_3 H 0.0000 0.2464 0.1865
O21_2 O 0.0000 0.6296(8) 0.2482(8)
O22_2 O 0.0000 0.3704(8) 0.7518(8)
O1_4 O 1.0000 0.4082(6) 0.5796(5)
O4_4 O 1.0000 0.7090(9) 0.7109(7)
O5_3 O 1.0000 0.8704(8) 0.7482(8)
C2_4 C 1.0000 0.7747(9) 0.7575(9)
H1_4 H 1.0000 0.7536 0.8135
C3_4 C 1.0000 0.4381(7) 0.5070(8)
O6_4 O 1.0000 0.3860(6) 0.4418(5)
O7_4 O 1.0000 0.5918(6) 0.4204(5)
C4_4 C 1.0000 0.5619(7) 0.4930(8)
O8_4 O 1.0000 0.6140(6) 0.5582(5)
O13_4 O 1.0000 0.2910(9) 0.2891(7)
O14_3 O 1.0000 0.1296(8) 0.2518(8)
C7_4 C 1.0000 0.2253(9) 0.2425(9)
H2_4 H 1.0000 0.2464 0.1865
O17_3 O 0.8073(6) 0.4659(5) 0.3505(4)
O18_3 O 0.8073(6) 0.5341(5) 0.6495(4)
O19_3 O 0.8739(6) 0.5414(8) 0.8085(4)
O20_3 O 0.8739(6) 0.4586(8) 0.1915(4)
O21_3 O 1.0000 0.6296(8) 0.2482(8)
O22_3 O 1.0000 0.3704(8) 0.7518(8)
O1_5 O -0.0000 0.0918(6) 0.0796(5)
C3_5 C -0.0000 0.0619(7) 0.0070(8)
O6_5 O 0.0000 0.1140(6) 0.9418(5)
O13_5 O 0.0000 0.2090(9) 0.7891(7)
C7_5 C 0.0000 0.2747(9) 0.7425(9)
H2_5 H 0.0000 0.2536 0.6865
O17_4 O 0.1927(6) 0.0341(5) 0.8505(4)
O20_4 O 0.1261(6) 0.0414(8) 0.6915(4)
O4_5 O 0.0000 0.7910(9) 0.2109(7)
C2_5 C -0.0000 0.7253(9) 0.2575(9)
H1_5 H 0.0000 0.7464 0.3135
O8_5 O -0.0000 0.8860(6) 0.0582(5)
O18_4 O 0.1927(6) 0.9659(5) 0.1495(4)
O19_4 O 0.1261(6) 0.9586(8) 0.3085(4)
O7_5 O 0.0000 0.9082(6) 0.9204(5)
C4_5 C -0.0000 0.9381(7) 0.9930(8)
O1_6 O 1.0000 0.0918(6) 0.0796(5)
C3_6 C 1.0000 0.0619(7) 0.0070(8)
O6_6 O 1.0000 0.1140(6) 0.9418(5)
O13_6 O 1.0000 0.2090(9) 0.7891(7)
C7_6 C 1.0000 0.2747(9) 0.7425(9)
H2_6 H 1.0000 0.2536 0.6865
O4_6 O 1.0000 0.7910(9) 0.2109(7)
C2_6 C 1.0000 0.7253(9) 0.2575(9)
H1_6 H 1.0000 0.7464 0.3135
O8_6 O 1.0000 0.8860(6) 0.0582(5)
O7_6 O 1.0000 0.9082(6) 0.9204(5)
C4_6 C 1.0000 0.9381(7) 0.9930(8)
C6_3 C 0.2312(9) 0.0366(7) 0.7032(5)
C8_3 C 0.2688(9) 0.0366(7) 0.7968(5)
C1_3 C 0.2312(9) 0.9634(7) 0.2968(5)
C5_3 C 0.2688(9) 0.9634(7) 0.2032(5)
C6_4 C 0.7688(9) 0.4634(7) 0.2032(5)
C8_4 C 0.7312(9) 0.4634(7) 0.2968(5)
C1_4 C 0.7688(9) 0.5366(7) 0.7968(5)
C5_4 C 0.7312(9) 0.5366(7) 0.7032(5)
loop_
_geom_bond_atom_site_label_1
_geom_bond_atom_site_label_2
_geom_bond_site_symmetry_1
_geom_bond_site_symmetry_2
O2 Dy1 1_555 1_555
O3 C1 1_555 1_555
C1 O2 1_555 1_555
O4 Dy1 1_555 1_555
O5 C2 1_555 1_555
C2 O4 1_555 1_555
H1 C2 1_555 1_555
O7 C4 1_555 1_555
O8 Dy1 1_555 1_555
O9 C5 1_555 1_555
O10 Dy1 1_555 1_555
C5 C1 1_555 1_555
Dy4 O5 1_555 1_555
Dy6_2 O3 1_555 1_555
O18 Dy1 1_555 1_555
O19 Dy1 1_555 1_555
C4 O8 1_555 1_555
O9 Dy6_2 1_555 1_555
O10 C5 1_555 1_555
O1 C3 1_555 1_555
C3 O6 1_555 1_555
O6 Dy2 1_555 1_555
O11 Dy2 1_555 1_555
O12 C6 1_555 1_555
C6 O11 1_555 1_555
O13 Dy2 1_555 1_555
O14 C7 1_555 1_555
C7 O13 1_555 1_555
H2 C7 1_555 1_555
O15 C8 1_555 1_555
O16 Dy2 1_555 1_555
C8 C6 1_555 1_555
Dy3 O14 1_555 1_555
Dy5_2 O12 1_555 1_555
O17 Dy2 1_555 1_555
O20 Dy2 1_555 1_555
O15 Dy5_2 1_555 1_555
O16 C8 1_555 1_555
Dy3 O1_2 1_555 1_555
O1_2 C3_2 1_555 1_555
O2_2 Dy3 1_555 1_555
O3_2 C1_2 1_555 1_555
C1_2 O2_2 1_555 1_555
O4_2 Dy3 1_555 1_555
O21 C2_2 1_555 1_555
C2_2 O4_2 1_555 1_555
H1_2 C2_2 1_555 1_555
O8_2 Dy3 1_555 1_555
O9_2 C5_2 1_555 1_555
O10_2 Dy3 1_555 1_555
C5_2 C1_2 1_555 1_555
Dy6_3 O3_2 1_555 1_555
O18_2 Dy3 1_555 1_555
O19_2 Dy3 1_555 1_555
O9_2 Dy6_3 1_555 1_555
O10_2 C5_2 1_555 1_555
O6_2 Dy4 1_555 1_555
O7_2 C4_2 1_555 1_555
Dy4 O7_2 1_555 1_555
O11_2 Dy4 1_555 1_555
O12_2 C6_2 1_555 1_555
C6_2 O11_2 1_555 1_555
O13_2 Dy4 1_555 1_555
O22 C7_2 1_555 1_555
C7_2 O13_2 1_555 1_555
H2_2 C7_2 1_555 1_555
O15_2 C8_2 1_555 1_555
O16_2 Dy4 1_555 1_555
C8_2 C6_2 1_555 1_555
Dy5_3 O12_2 1_555 1_555
O17_2 Dy4 1_555 1_555
O20_2 Dy4 1_555 1_555
O15_2 Dy5_3 1_555 1_555
O16_2 C8_2 1_555 1_555
Dy5_3 O1_3 1_555 1_555
O1_3 C3_3 1_555 1_555
O4_3 Dy5_3 1_555 1_555
O5_2 C2_3 1_555 1_555
C2_3 O4_3 1_555 1_555
H1_3 C2_3 1_555 1_555
C3_3 O6_3 1_555 1_555
O6_3 Dy6_3 1_555 1_555
O7_3 C4_3 1_555 1_555
C4_3 C3_3 1_555 1_555
O8_3 Dy5_3 1_555 1_555
Dy6_3 O7_3 1_555 1_555
O13_3 Dy6_3 1_555 1_555
O14_2 C7_3 1_555 1_555
C7_3 O13_3 1_555 1_555
H2_3 C7_3 1_555 1_555
O21_2 Dy6_3 1_555 1_555
O22_2 Dy5_3 1_555 1_555
C4_3 O8_3 1_555 1_555
Dy5_4 O1_4 1_555 1_555
O1_4 C3_4 1_555 1_555
O4_4 Dy5_4 1_555 1_555
O5_3 C2_4 1_555 1_555
C2_4 O4_4 1_555 1_555
H1_4 C2_4 1_555 1_555
C3_4 O6_4 1_555 1_555
O6_4 Dy6_4 1_555 1_555
O7_4 C4_4 1_555 1_555
C4_4 C3_4 1_555 1_555
O8_4 Dy5_4 1_555 1_555
Dy6_4 O7_4 1_555 1_555
O13_4 Dy6_4 1_555 1_555
O14_3 C7_4 1_555 1_555
C7_4 O13_4 1_555 1_555
H2_4 C7_4 1_555 1_555
O17_3 Dy6_4 1_555 1_555
O18_3 Dy5_4 1_555 1_555
O19_3 Dy5_4 1_555 1_555
O20_3 Dy6_4 1_555 1_555
O21_3 Dy6_4 1_555 1_555
O22_3 Dy5_4 1_555 1_555
C4_4 O8_4 1_555 1_555
O1_5 C3_5 1_555 1_555
O6_5 Dy6 1_555 1_555
O13_5 Dy6 1_555 1_555
O22_2 C7_5 1_555 1_555
C7_5 O13_5 1_555 1_555
H2_5 C7_5 1_555 1_555
O17_4 Dy6 1_555 1_555
O20_4 Dy6 1_555 1_555
O4_5 Dy5 1_555 1_555
O21_2 C2_5 1_555 1_555
C2_5 O4_5 1_555 1_555
H1_5 C2_5 1_555 1_555
O8_5 Dy5 1_555 1_555
O18_4 Dy5 1_555 1_555
O19_4 Dy5 1_555 1_555
O7_5 C4_5 1_555 1_555
O1_6 C3_6 1_555 1_555
O6_6 Dy6_2 1_555 1_555
O13_6 Dy6_2 1_555 1_555
O22_3 C7_6 1_555 1_555
C7_6 O13_6 1_555 1_555
H2_6 C7_6 1_555 1_555
O4_6 Dy5_2 1_555 1_555
O21_3 C2_6 1_555 1_555
C2_6 O4_6 1_555 1_555
H1_6 C2_6 1_555 1_555
O8_6 Dy5_2 1_555 1_555
O7_6 C4_6 1_555 1_555
O20_4 C6_3 1_555 1_555
C6_3 O18 1_555 1_555
O17_4 C8_3 1_555 1_555
C8_3 C6_3 1_555 1_555
O19 C8_3 1_555 1_555
O19_4 C1_3 1_555 1_555
C1_3 O17 1_555 1_555
O18_4 C5_3 1_555 1_555
C5_3 C1_3 1_555 1_555
O20 C5_3 1_555 1_555
O20_3 C6_4 1_555 1_555
C6_4 O18_2 1_555 1_555
O17_3 C8_4 1_555 1_555
C8_4 C6_4 1_555 1_555
O19_2 C8_4 1_555 1_555
O19_3 C1_4 1_555 1_555
C1_4 O17_2 1_555 1_555
O18_3 C5_4 1_555 1_555
C5_4 C1_4 1_555 1_555
O20_2 C5_4 1_555 1_555

#END
