
###############################################################################
#
# This file contains modified crystal structure data generated from the
# MOF subset of the Cambridge Structural Database (CSD) v543 
# hosted by the Cambridge Crystallographic Data Centre (CCDC).
#
# This work is licensed under the Creative Commons
# Attribution-NonCommercial-ShareAlike 4.0 International License.
# To view a copy of this license, visit
# http://creativecommons.org/licenses/by-nc-sa/4.0/
# or send a letter to
# Creative Commons, PO Box 1866, Mountain View, CA 94042, USA.
#
# CIF created using the CSD Python API on 29 September 2022
# The structure has been converted into the P1 space group
# The structure has a 3D framework
# The original CSD entry OCUCOI is in the orthorhombic crystal system
# The framework has been calculated to contain at least 10.0% void space
# The void calculation uses a probe of radius 1.32A, grid spacing 0.4
# The framework is charged, counterions have been retained in the structure
#
###############################################################################

data_OCUCOI
_chemical_formula_moiety         '(C40 H12 Dy12 O80 4-)n'
_symmetry_cell_setting           triclinic
_symmetry_space_group_name_H-M   'P 1'
_symmetry_Int_Tables_number      1
_space_group_name_Hall           'P 1'
loop_
_symmetry_equiv_pos_site_id
_symmetry_equiv_pos_as_xyz
1 x,y,z
_cell_length_a                   11.6597(10)
_cell_length_b                   12.8137(14)
_cell_length_c                   15.659(2)
_cell_angle_alpha                90
_cell_angle_beta                 90
_cell_angle_gamma                90
_cell_volume                     2339.52
loop_
_atom_site_label
_atom_site_type_symbol
_atom_site_fract_x
_atom_site_fract_y
_atom_site_fract_z
Dy4 Dy 0.5000 0.02907(8) 0.30700(7)
Dy1 Dy 0.5000 0.52907(8) 0.19300(7)
O1 O 0.5000 0.6147(9) 0.0598(9)
O2 O 0.3076(8) 0.5318(8) 0.1490(7)
O3 O 0.5000 0.7033(15) 0.2120(11)
O5 O 0.5000 0.8647(11) 0.2484(12)
C2 C 0.5000 0.772(2) 0.2546(18)
H1 H 0.5000 0.7519 0.3117
C3 C 0.2305(14) 0.5343(12) 0.2032(8)
O6 O 0.1246(8) 0.5409(10) 0.1898(6)
O8 O 0.5000 0.4061(9) 0.0809(9)
C4 C 0.5000 0.4370(14) 0.0047(14)
O9 O 0.1924(8) 0.5318(8) 0.3510(7)
C5 C 0.2695(14) 0.5343(12) 0.2968(8)
O10 O 0.3754(8) 0.5409(10) 0.3102(6)
Dy6 Dy -0.0000 0.52907(8) 0.30700(7)
O18 O 0.6924(8) 0.5318(8) 0.1490(7)
O20 O 0.5000 0.3647(11) 0.2516(12)
O21 O 0.6246(8) 0.5409(10) 0.3102(6)
O4 O 0.5000 0.5939(9) 0.9191(9)
C1 C 0.5000 0.5630(14) 0.9953(14)
O7 O 0.5000 0.3853(9) 0.9402(9)
Dy2 Dy 0.5000 0.47093(8) 0.80700(7)
O11 O 0.3076(8) 0.4682(8) 0.8510(7)
O12 O 0.5000 0.2967(15) 0.7880(11)
O13 O 0.5000 0.1353(11) 0.7516(12)
C6 C 0.5000 0.228(2) 0.7454(18)
H2 H 0.5000 0.2481 0.6883
C7 C 0.2305(14) 0.4657(12) 0.7968(8)
O14 O 0.1246(8) 0.4591(10) 0.8102(6)
O15 O 0.1924(8) 0.4682(8) 0.6490(7)
C8 C 0.2695(14) 0.4657(12) 0.7032(8)
O16 O 0.3754(8) 0.4591(10) 0.6898(6)
Dy5 Dy 0.0000 0.47093(8) 0.69300(7)
O17 O 0.6924(8) 0.4682(8) 0.8510(7)
O19 O 0.5000 0.6353(11) 0.7484(12)
O22 O 0.6246(8) 0.4591(10) 0.6898(6)
Dy3 Dy 0.5000 0.97093(8) 0.69300(7)
Dy6_2 Dy 1.0000 0.52907(8) 0.30700(7)
Dy5_2 Dy 1.0000 0.47093(8) 0.69300(7)
Dy5_3 Dy -0.0000 0.02907(8) 0.19300(7)
Dy6_3 Dy 0.0000 0.97093(8) 0.80700(7)
O7_2 O 0.5000 0.1147(9) 0.4402(9)
O8_2 O 0.5000 0.0939(9) 0.5809(9)
C4_2 C 0.5000 0.0630(14) 0.5047(14)
O11_2 O 0.6924(8) 0.0318(8) 0.3510(7)
O12_2 O 0.5000 0.2033(15) 0.2880(11)
C6_2 C 0.5000 0.272(2) 0.2454(18)
H2_2 H 0.5000 0.2519 0.1883
C7_2 C 0.7695(14) 0.0343(12) 0.2968(8)
O14_2 O 0.8754(8) 0.0409(10) 0.3102(6)
O15_2 O 0.8076(8) 0.0318(8) 0.1490(7)
C8_2 C 0.7305(14) 0.0343(12) 0.2032(8)
O16_2 O 0.6246(8) 0.0409(10) 0.1898(6)
Dy5_4 Dy 1.0000 0.02907(8) 0.19300(7)
O17_2 O 0.3076(8) 0.0318(8) 0.3510(7)
O22_2 O 0.3754(8) 0.0409(10) 0.1898(6)
O1_2 O 0.5000 0.8853(9) 0.5598(9)
O2_2 O 0.6924(8) 0.9682(8) 0.6490(7)
O3_2 O 0.5000 0.7967(15) 0.7120(11)
O4_2 O 0.5000 0.9061(9) 0.4191(9)
C1_2 C 0.5000 0.9370(14) 0.4953(14)
C2_2 C 0.5000 0.728(2) 0.7546(18)
H1_2 H 0.5000 0.7481 0.8117
C3_2 C 0.7695(14) 0.9657(12) 0.7032(8)
O6_2 O 0.8754(8) 0.9591(10) 0.6898(6)
O9_2 O 0.8076(8) 0.9682(8) 0.8510(7)
C5_2 C 0.7305(14) 0.9657(12) 0.7968(8)
O10_2 O 0.6246(8) 0.9591(10) 0.8102(6)
Dy6_4 Dy 1.0000 0.97093(8) 0.80700(7)
O18_2 O 0.3076(8) 0.9682(8) 0.6490(7)
O21_2 O 0.3754(8) 0.9591(10) 0.8102(6)
O1_3 O -0.0000 0.1147(9) 0.0598(9)
O3_3 O -0.0000 0.2033(15) 0.2120(11)
O5_2 O -0.0000 0.3647(11) 0.2484(12)
C2_3 C -0.0000 0.272(2) 0.2546(18)
H1_3 H -0.0000 0.2519 0.3117
O18_3 O 0.1924(8) 0.0318(8) 0.1490(7)
O21_3 O 0.1246(8) 0.0409(10) 0.3102(6)
O4_3 O -0.0000 0.0939(9) 0.9191(9)
C1_3 C -0.0000 0.0630(14) 0.9953(14)
O19_2 O -0.0000 0.1353(11) 0.7484(12)
O8_3 O -0.0000 0.9061(9) 0.0809(9)
C4_3 C -0.0000 0.9370(14) 0.0047(14)
O20_2 O -0.0000 0.8647(11) 0.2516(12)
O7_3 O -0.0000 0.8853(9) 0.9402(9)
O12_3 O -0.0000 0.7967(15) 0.7880(11)
O13_2 O -0.0000 0.6353(11) 0.7516(12)
C6_3 C -0.0000 0.728(2) 0.7454(18)
H2_3 H -0.0000 0.7481 0.6883
O17_3 O 0.1924(8) 0.9682(8) 0.8510(7)
O22_3 O 0.1246(8) 0.9591(10) 0.6898(6)
O1_4 O 1.0000 0.1147(9) 0.0598(9)
O3_4 O 1.0000 0.2033(15) 0.2120(11)
O5_3 O 1.0000 0.3647(11) 0.2484(12)
C2_4 C 1.0000 0.272(2) 0.2546(18)
H1_4 H 1.0000 0.2519 0.3117
O4_4 O 1.0000 0.0939(9) 0.9191(9)
C1_4 C 1.0000 0.0630(14) 0.9953(14)
O19_3 O 1.0000 0.1353(11) 0.7484(12)
O8_4 O 1.0000 0.9061(9) 0.0809(9)
C4_4 C 1.0000 0.9370(14) 0.0047(14)
O20_3 O 1.0000 0.8647(11) 0.2516(12)
O7_4 O 1.0000 0.8853(9) 0.9402(9)
O12_4 O 1.0000 0.7967(15) 0.7880(11)
O13_3 O 1.0000 0.6353(11) 0.7516(12)
C6_4 C 1.0000 0.728(2) 0.7454(18)
H2_4 H 1.0000 0.7481 0.6883
O1_5 O 0.0000 0.3853(9) 0.5598(9)
O3_5 O 0.0000 0.2967(15) 0.7120(11)
O4_5 O 0.0000 0.4061(9) 0.4191(9)
C1_5 C 0.0000 0.4370(14) 0.4953(14)
C2_5 C 0.0000 0.228(2) 0.7546(18)
H1_5 H 0.0000 0.2481 0.8117
O7_5 O 0.0000 0.6147(9) 0.4402(9)
O8_5 O 0.0000 0.5939(9) 0.5809(9)
C4_5 C 0.0000 0.5630(14) 0.5047(14)
O12_5 O 0.0000 0.7033(15) 0.2880(11)
C6_5 C 0.0000 0.772(2) 0.2454(18)
H2_5 H 0.0000 0.7519 0.1883
O1_6 O 1.0000 0.3853(9) 0.5598(9)
O3_6 O 1.0000 0.2967(15) 0.7120(11)
O4_6 O 1.0000 0.4061(9) 0.4191(9)
C1_6 C 1.0000 0.4370(14) 0.4953(14)
C2_6 C 1.0000 0.228(2) 0.7546(18)
H1_6 H 1.0000 0.2481 0.8117
O7_6 O 1.0000 0.6147(9) 0.4402(9)
O8_6 O 1.0000 0.5939(9) 0.5809(9)
C4_6 C 1.0000 0.5630(14) 0.5047(14)
O12_6 O 1.0000 0.7033(15) 0.2880(11)
C6_6 C 1.0000 0.772(2) 0.2454(18)
H2_6 H 1.0000 0.7519 0.1883
O17_4 O 0.8076(8) 0.5318(8) 0.3510(7)
O18_4 O 0.8076(8) 0.4682(8) 0.6490(7)
O21_4 O 0.8754(8) 0.4591(10) 0.8102(6)
O22_4 O 0.8754(8) 0.5409(10) 0.1898(6)
C7_3 C 0.7695(14) 0.5343(12) 0.2032(8)
C8_3 C 0.7305(14) 0.5343(12) 0.2968(8)
C3_3 C 0.7695(14) 0.4657(12) 0.7968(8)
C5_3 C 0.7305(14) 0.4657(12) 0.7032(8)
C3_4 C 0.2305(14) 0.0343(12) 0.2968(8)
C5_4 C 0.2695(14) 0.0343(12) 0.2032(8)
C7_4 C 0.2305(14) 0.9657(12) 0.7032(8)
C8_4 C 0.2695(14) 0.9657(12) 0.7968(8)
loop_
_geom_bond_atom_site_label_1
_geom_bond_atom_site_label_2
_geom_bond_site_symmetry_1
_geom_bond_site_symmetry_2
Dy1 O1 1_555 1_555
O2 Dy1 1_555 1_555
O3 Dy1 1_555 1_555
O5 C2 1_555 1_555
C2 O3 1_555 1_555
H1 C2 1_555 1_555
C3 O2 1_555 1_555
O6 C3 1_555 1_555
O8 Dy1 1_555 1_555
C4 O8 1_555 1_555
O9 C5 1_555 1_555
C5 C3 1_555 1_555
O10 Dy1 1_555 1_555
Dy6 O6 1_555 1_555
O18 Dy1 1_555 1_555
O20 Dy1 1_555 1_555
O21 Dy1 1_555 1_555
O9 Dy6 1_555 1_555
C5 O10 1_555 1_555
O4 C1 1_555 1_555
Dy2 O4 1_555 1_555
O11 Dy2 1_555 1_555
O12 Dy2 1_555 1_555
O13 C6 1_555 1_555
C6 O12 1_555 1_555
H2 C6 1_555 1_555
C7 O11 1_555 1_555
O14 C7 1_555 1_555
O15 C8 1_555 1_555
C8 C7 1_555 1_555
O16 Dy2 1_555 1_555
Dy5 O14 1_555 1_555
O17 Dy2 1_555 1_555
O19 Dy2 1_555 1_555
O22 Dy2 1_555 1_555
O7 Dy2 1_555 1_555
O15 Dy5 1_555 1_555
C8 O16 1_555 1_555
O7_2 C4_2 1_555 1_555
C4_2 O8_2 1_555 1_555
O11_2 Dy4 1_555 1_555
O12_2 Dy4 1_555 1_555
O20 C6_2 1_555 1_555
C6_2 O12_2 1_555 1_555
H2_2 C6_2 1_555 1_555
C7_2 O11_2 1_555 1_555
O14_2 C7_2 1_555 1_555
O15_2 C8_2 1_555 1_555
C8_2 C7_2 1_555 1_555
O16_2 Dy4 1_555 1_555
Dy5_4 O14_2 1_555 1_555
O17_2 Dy4 1_555 1_555
O22_2 Dy4 1_555 1_555
O7_2 Dy4 1_555 1_555
O15_2 Dy5_4 1_555 1_555
C8_2 O16_2 1_555 1_555
Dy3 O1_2 1_555 1_555
O1_2 C1_2 1_555 1_555
O2_2 Dy3 1_555 1_555
O3_2 Dy3 1_555 1_555
O4_2 C1_2 1_555 1_555
O19 C2_2 1_555 1_555
C2_2 O3_2 1_555 1_555
H1_2 C2_2 1_555 1_555
C3_2 O2_2 1_555 1_555
O6_2 C3_2 1_555 1_555
O9_2 C5_2 1_555 1_555
C5_2 C3_2 1_555 1_555
O10_2 Dy3 1_555 1_555
Dy6_4 O6_2 1_555 1_555
O18_2 Dy3 1_555 1_555
O21_2 Dy3 1_555 1_555
O9_2 Dy6_4 1_555 1_555
C5_2 O10_2 1_555 1_555
Dy5_3 O1_3 1_555 1_555
O3_3 Dy5_3 1_555 1_555
O5_2 C2_3 1_555 1_555
C2_3 O3_3 1_555 1_555
H1_3 C2_3 1_555 1_555
Dy6 O5_2 1_555 1_555
O18_3 Dy5_3 1_555 1_555
O21_3 Dy5_3 1_555 1_555
O4_3 C1_3 1_555 1_555
C4_3 O8_3 1_555 1_555
O12_3 Dy6_3 1_555 1_555
O13_2 C6_3 1_555 1_555
C6_3 O12_3 1_555 1_555
H2_3 C6_3 1_555 1_555
Dy5 O13_2 1_555 1_555
O17_3 Dy6_3 1_555 1_555
O22_3 Dy6_3 1_555 1_555
O7_3 Dy6_3 1_555 1_555
Dy5_4 O1_4 1_555 1_555
O3_4 Dy5_4 1_555 1_555
O5_3 C2_4 1_555 1_555
C2_4 O3_4 1_555 1_555
H1_4 C2_4 1_555 1_555
Dy6_2 O5_3 1_555 1_555
O4_4 C1_4 1_555 1_555
C4_4 O8_4 1_555 1_555
O12_4 Dy6_4 1_555 1_555
O13_3 C6_4 1_555 1_555
C6_4 O12_4 1_555 1_555
H2_4 C6_4 1_555 1_555
Dy5_2 O13_3 1_555 1_555
O7_4 Dy6_4 1_555 1_555
Dy5 O1_5 1_555 1_555
O1_5 C1_5 1_555 1_555
O3_5 Dy5 1_555 1_555
O4_5 C1_5 1_555 1_555
C1_5 C4_5 1_555 1_555
O19_2 C2_5 1_555 1_555
C2_5 O3_5 1_555 1_555
H1_5 C2_5 1_555 1_555
O7_5 C4_5 1_555 1_555
O8_5 Dy5 1_555 1_555
C4_5 O8_5 1_555 1_555
Dy6 O4_5 1_555 1_555
O12_5 Dy6 1_555 1_555
O20_2 C6_5 1_555 1_555
C6_5 O12_5 1_555 1_555
H2_5 C6_5 1_555 1_555
O7_5 Dy6 1_555 1_555
Dy5_2 O1_6 1_555 1_555
O1_6 C1_6 1_555 1_555
O3_6 Dy5_2 1_555 1_555
O4_6 C1_6 1_555 1_555
C1_6 C4_6 1_555 1_555
O19_3 C2_6 1_555 1_555
C2_6 O3_6 1_555 1_555
H1_6 C2_6 1_555 1_555
O7_6 C4_6 1_555 1_555
O8_6 Dy5_2 1_555 1_555
C4_6 O8_6 1_555 1_555
Dy6_2 O4_6 1_555 1_555
O12_6 Dy6_2 1_555 1_555
O20_3 C6_6 1_555 1_555
C6_6 O12_6 1_555 1_555
H2_6 C6_6 1_555 1_555
O17_4 Dy6_2 1_555 1_555
O18_4 Dy5_2 1_555 1_555
O21_4 Dy5_2 1_555 1_555
O22_4 Dy6_2 1_555 1_555
O7_6 Dy6_2 1_555 1_555
C7_3 O18 1_555 1_555
O22_4 C7_3 1_555 1_555
O17_4 C8_3 1_555 1_555
C8_3 C7_3 1_555 1_555
C8_3 O21 1_555 1_555
C3_3 O17 1_555 1_555
O21_4 C3_3 1_555 1_555
O18_4 C5_3 1_555 1_555
C5_3 C3_3 1_555 1_555
C5_3 O22 1_555 1_555
C3_4 O17_2 1_555 1_555
O21_3 C3_4 1_555 1_555
O18_3 C5_4 1_555 1_555
C5_4 C3_4 1_555 1_555
C5_4 O22_2 1_555 1_555
C7_4 O18_2 1_555 1_555
O22_3 C7_4 1_555 1_555
O17_3 C8_4 1_555 1_555
C8_4 C7_4 1_555 1_555
C8_4 O21_2 1_555 1_555

#END
