
###############################################################################
#
# This file contains modified crystal structure data generated from the
# MOF subset of the Cambridge Structural Database (CSD) v543 
# hosted by the Cambridge Crystallographic Data Centre (CCDC).
#
# This work is licensed under the Creative Commons
# Attribution-NonCommercial-ShareAlike 4.0 International License.
# To view a copy of this license, visit
# http://creativecommons.org/licenses/by-nc-sa/4.0/
# or send a letter to
# Creative Commons, PO Box 1866, Mountain View, CA 94042, USA.
#
# CIF created using the CSD Python API on 29 September 2022
# The structure has been converted into the P1 space group
# The structure has a 3D framework
# The original CSD entry OCUDID is in the orthorhombic crystal system
# The framework has been calculated to contain at least 10.0% void space
# The void calculation uses a probe of radius 1.32A, grid spacing 0.4
# The framework is charged, counterions have been retained in the structure
#
###############################################################################

data_OCUDID
_chemical_formula_moiety         '(C40 H12 Er12 O80 8-)n'
_symmetry_cell_setting           triclinic
_symmetry_space_group_name_H-M   'P 1'
_symmetry_Int_Tables_number      1
_space_group_name_Hall           'P 1'
loop_
_symmetry_equiv_pos_site_id
_symmetry_equiv_pos_as_xyz
1 x,y,z
_cell_length_a                   11.6320(18)
_cell_length_b                   12.8000(15)
_cell_length_c                   15.7959(16)
_cell_angle_alpha                90
_cell_angle_beta                 90
_cell_angle_gamma                90
_cell_volume                     2351.85
loop_
_atom_site_label
_atom_site_type_symbol
_atom_site_fract_x
_atom_site_fract_y
_atom_site_fract_z
Er3 Er 0.5000 0.03437(4) 0.19147(3)
Er1 Er 0.5000 0.46563(4) 0.69147(3)
O1 O 0.5000 0.5903(5) 0.5824(4)
O2 O 0.5000 0.6168(5) 0.4431(4)
O3 O 0.3073(5) 0.4605(4) 0.6483(3)
O4 O 0.1231(5) 0.4503(6) 0.6918(3)
O5 O 0.5000 0.2897(7) 0.7076(5)
O6 O 0.5000 0.1256(6) 0.7470(5)
C1 C 0.5000 0.5586(7) 0.5066(6)
C2 C 0.2284(6) 0.4566(6) 0.7034(4)
C3 C 0.5000 0.2175(9) 0.7569(7)
H1 H 0.5000 0.2378 0.8135
O7 O 0.5000 0.4097(5) 0.4176(4)
O8 O 0.5000 0.3832(5) 0.5569(4)
C4 C 0.5000 0.4414(7) 0.4934(6)
O9 O 0.1927(5) 0.4605(4) 0.8517(3)
O10 O 0.3769(5) 0.4503(6) 0.8082(3)
C5 C 0.2716(6) 0.4566(6) 0.7966(4)
Er2 Er 0.5000 0.53437(4) 0.30853(3)
O11 O 0.3073(5) 0.5395(4) 0.3517(3)
O12 O 0.1231(5) 0.5497(6) 0.3082(3)
O13 O 0.5000 0.7103(7) 0.2924(5)
O14 O 0.5000 0.8744(6) 0.2530(5)
C6 C 0.2284(6) 0.5434(6) 0.2966(4)
C7 C 0.5000 0.7825(9) 0.2431(7)
H2 H 0.5000 0.7622 0.1865
O15 O 0.1927(5) 0.5395(4) 0.1483(3)
O16 O 0.3769(5) 0.5497(6) 0.1918(3)
C8 C 0.2716(6) 0.5434(6) 0.2034(4)
Er5 Er -0.0000 0.53437(4) 0.19147(3)
Er6 Er -0.0000 0.46563(4) 0.80853(3)
O17 O 0.6927(5) 0.5395(4) 0.3517(3)
O18 O 0.6927(5) 0.4605(4) 0.6483(3)
O19 O 0.6231(5) 0.4503(6) 0.8082(3)
O20 O 0.6231(5) 0.5497(6) 0.1918(3)
O21 O 0.5000 0.3744(6) 0.2470(5)
O22 O 0.5000 0.6256(6) 0.7530(5)
Er4 Er 0.5000 0.96563(4) 0.80853(3)
Er5_2 Er 1.0000 0.53437(4) 0.19147(3)
Er6_2 Er 1.0000 0.46563(4) 0.80853(3)
Er6_3 Er 0.0000 0.03437(4) 0.30853(3)
Er5_3 Er 0.0000 0.96563(4) 0.69147(3)
O3_2 O 0.6927(5) 0.0395(4) 0.1483(3)
O4_2 O 0.8769(5) 0.0497(6) 0.1918(3)
O5_2 O 0.5000 0.2103(7) 0.2076(5)
C2_2 C 0.7716(6) 0.0434(6) 0.2034(4)
C3_2 C 0.5000 0.2825(9) 0.2569(7)
H1_2 H 0.5000 0.2622 0.3135
O8_2 O 0.5000 0.1168(5) 0.0569(4)
O9_2 O 0.8073(5) 0.0395(4) 0.3517(3)
O10_2 O 0.6231(5) 0.0497(6) 0.3082(3)
C5_2 C 0.7284(6) 0.0434(6) 0.2966(4)
Er6_4 Er 1.0000 0.03437(4) 0.30853(3)
O18_2 O 0.3073(5) 0.0395(4) 0.1483(3)
O19_2 O 0.3769(5) 0.0497(6) 0.3082(3)
O7_2 O 0.5000 0.0903(5) 0.9176(4)
C4_2 C 0.5000 0.0586(7) 0.9934(6)
O1_2 O 0.5000 0.9097(5) 0.0824(4)
C1_2 C 0.5000 0.9414(7) 0.0066(6)
O2_2 O 0.5000 0.8832(5) 0.9431(4)
O11_2 O 0.6927(5) 0.9605(4) 0.8517(3)
O12_2 O 0.8769(5) 0.9503(6) 0.8082(3)
O13_2 O 0.5000 0.7897(7) 0.7924(5)
C6_2 C 0.7716(6) 0.9566(6) 0.7966(4)
C7_2 C 0.5000 0.7175(9) 0.7431(7)
H2_2 H 0.5000 0.7378 0.6865
O15_2 O 0.8073(5) 0.9605(4) 0.6483(3)
O16_2 O 0.6231(5) 0.9503(6) 0.6918(3)
C8_2 C 0.7284(6) 0.9566(6) 0.7034(4)
Er5_4 Er 1.0000 0.96563(4) 0.69147(3)
O17_2 O 0.3073(5) 0.9605(4) 0.8517(3)
O20_2 O 0.3769(5) 0.9503(6) 0.6918(3)
O1_3 O 0.0000 0.0903(5) 0.5824(4)
O2_3 O 0.0000 0.1168(5) 0.4431(4)
C1_3 C 0.0000 0.0586(7) 0.5066(6)
O13_3 O 0.0000 0.2103(7) 0.2924(5)
O14_2 O -0.0000 0.3744(6) 0.2530(5)
C7_3 C 0.0000 0.2825(9) 0.2431(7)
H2_3 H 0.0000 0.2622 0.1865
O17_3 O 0.1927(5) 0.0395(4) 0.3517(3)
O20_3 O 0.1231(5) 0.0497(6) 0.1918(3)
O22_2 O 0.0000 0.1256(6) 0.7530(5)
O5_3 O 0.0000 0.7897(7) 0.7076(5)
O6_2 O 0.0000 0.6256(6) 0.7470(5)
C3_3 C 0.0000 0.7175(9) 0.7569(7)
H1_3 H 0.0000 0.7378 0.8135
O7_3 O -0.0000 0.9097(5) 0.4176(4)
O8_3 O 0.0000 0.8832(5) 0.5569(4)
C4_3 C 0.0000 0.9414(7) 0.4934(6)
O18_3 O 0.1927(5) 0.9605(4) 0.6483(3)
O19_3 O 0.1231(5) 0.9503(6) 0.8082(3)
O21_2 O -0.0000 0.8744(6) 0.2470(5)
O1_4 O 1.0000 0.0903(5) 0.5824(4)
O2_4 O 1.0000 0.1168(5) 0.4431(4)
C1_4 C 1.0000 0.0586(7) 0.5066(6)
O13_4 O 1.0000 0.2103(7) 0.2924(5)
O14_3 O 1.0000 0.3744(6) 0.2530(5)
C7_4 C 1.0000 0.2825(9) 0.2431(7)
H2_4 H 1.0000 0.2622 0.1865
O22_3 O 1.0000 0.1256(6) 0.7530(5)
O5_4 O 1.0000 0.7897(7) 0.7076(5)
O6_3 O 1.0000 0.6256(6) 0.7470(5)
C3_4 C 1.0000 0.7175(9) 0.7569(7)
H1_4 H 1.0000 0.7378 0.8135
O7_4 O 1.0000 0.9097(5) 0.4176(4)
O8_4 O 1.0000 0.8832(5) 0.5569(4)
C4_4 C 1.0000 0.9414(7) 0.4934(6)
O21_3 O 1.0000 0.8744(6) 0.2470(5)
O1_5 O -0.0000 0.4097(5) 0.0824(4)
O5_5 O 0.0000 0.7103(7) 0.2076(5)
C1_5 C -0.0000 0.4414(7) 0.0066(6)
C3_5 C 0.0000 0.7825(9) 0.2569(7)
H1_5 H -0.0000 0.7622 0.3135
O8_5 O -0.0000 0.6168(5) 0.0569(4)
O2_5 O -0.0000 0.3832(5) 0.9431(4)
O7_5 O 0.0000 0.5903(5) 0.9176(4)
C4_5 C -0.0000 0.5586(7) 0.9934(6)
O13_5 O -0.0000 0.2897(7) 0.7924(5)
C7_5 C -0.0000 0.2175(9) 0.7431(7)
H2_5 H -0.0000 0.2378 0.6865
O1_6 O 1.0000 0.4097(5) 0.0824(4)
O5_6 O 1.0000 0.7103(7) 0.2076(5)
C1_6 C 1.0000 0.4414(7) 0.0066(6)
C3_6 C 1.0000 0.7825(9) 0.2569(7)
H1_6 H 1.0000 0.7622 0.3135
O8_6 O 1.0000 0.6168(5) 0.0569(4)
O18_4 O 0.8073(5) 0.5395(4) 0.1483(3)
O19_4 O 0.8769(5) 0.5497(6) 0.3082(3)
O2_6 O 1.0000 0.3832(5) 0.9431(4)
O7_6 O 1.0000 0.5903(5) 0.9176(4)
C4_6 C 1.0000 0.5586(7) 0.9934(6)
O13_6 O 1.0000 0.2897(7) 0.7924(5)
C7_6 C 1.0000 0.2175(9) 0.7431(7)
H2_6 H 1.0000 0.2378 0.6865
O17_4 O 0.8073(5) 0.4605(4) 0.8517(3)
O20_4 O 0.8769(5) 0.4503(6) 0.6918(3)
C2_3 C 0.7716(6) 0.5434(6) 0.2966(4)
C5_3 C 0.7284(6) 0.5434(6) 0.2034(4)
C6_3 C 0.7716(6) 0.4566(6) 0.7034(4)
C8_3 C 0.7284(6) 0.4566(6) 0.7966(4)
C6_4 C 0.2284(6) 0.0434(6) 0.2034(4)
C8_4 C 0.2716(6) 0.0434(6) 0.2966(4)
C2_4 C 0.2284(6) 0.9566(6) 0.7966(4)
C5_4 C 0.2716(6) 0.9566(6) 0.7034(4)
loop_
_geom_bond_atom_site_label_1
_geom_bond_atom_site_label_2
_geom_bond_site_symmetry_1
_geom_bond_site_symmetry_2
Er1 O1 1_555 1_555
O1 C1 1_555 1_555
O2 C1 1_555 1_555
O3 Er1 1_555 1_555
O4 C2 1_555 1_555
O5 Er1 1_555 1_555
O6 C3 1_555 1_555
C1 C4 1_555 1_555
C2 O3 1_555 1_555
C3 O5 1_555 1_555
H1 C3 1_555 1_555
O7 C4 1_555 1_555
O8 Er1 1_555 1_555
C4 O8 1_555 1_555
O9 C5 1_555 1_555
O10 Er1 1_555 1_555
C5 C2 1_555 1_555
Er2 O2 1_555 1_555
O11 Er2 1_555 1_555
O12 C6 1_555 1_555
O13 Er2 1_555 1_555
O14 C7 1_555 1_555
C6 O11 1_555 1_555
C7 O13 1_555 1_555
H2 C7 1_555 1_555
O15 C8 1_555 1_555
O16 Er2 1_555 1_555
C8 C6 1_555 1_555
Er5 O12 1_555 1_555
Er6 O4 1_555 1_555
O17 Er2 1_555 1_555
O18 Er1 1_555 1_555
O19 Er1 1_555 1_555
O20 Er2 1_555 1_555
O21 Er2 1_555 1_555
O22 Er1 1_555 1_555
O7 Er2 1_555 1_555
O9 Er6 1_555 1_555
O10 C5 1_555 1_555
O15 Er5 1_555 1_555
O16 C8 1_555 1_555
O3_2 Er3 1_555 1_555
O4_2 C2_2 1_555 1_555
O5_2 Er3 1_555 1_555
O21 C3_2 1_555 1_555
C2_2 O3_2 1_555 1_555
C3_2 O5_2 1_555 1_555
H1_2 C3_2 1_555 1_555
O8_2 Er3 1_555 1_555
O9_2 C5_2 1_555 1_555
O10_2 Er3 1_555 1_555
C5_2 C2_2 1_555 1_555
Er6_4 O4_2 1_555 1_555
O18_2 Er3 1_555 1_555
O19_2 Er3 1_555 1_555
O9_2 Er6_4 1_555 1_555
O10_2 C5_2 1_555 1_555
O7_2 C4_2 1_555 1_555
O1_2 C1_2 1_555 1_555
Er4 O2_2 1_555 1_555
O11_2 Er4 1_555 1_555
O12_2 C6_2 1_555 1_555
O13_2 Er4 1_555 1_555
O22 C7_2 1_555 1_555
C6_2 O11_2 1_555 1_555
C7_2 O13_2 1_555 1_555
H2_2 C7_2 1_555 1_555
O15_2 C8_2 1_555 1_555
O16_2 Er4 1_555 1_555
C8_2 C6_2 1_555 1_555
Er5_4 O12_2 1_555 1_555
O17_2 Er4 1_555 1_555
O20_2 Er4 1_555 1_555
O15_2 Er5_4 1_555 1_555
O16_2 C8_2 1_555 1_555
O1_3 C1_3 1_555 1_555
O2_3 C1_3 1_555 1_555
Er6_3 O2_3 1_555 1_555
O13_3 Er6_3 1_555 1_555
O14_2 C7_3 1_555 1_555
C7_3 O13_3 1_555 1_555
H2_3 C7_3 1_555 1_555
Er5 O14_2 1_555 1_555
O17_3 Er6_3 1_555 1_555
O20_3 Er6_3 1_555 1_555
O5_3 Er5_3 1_555 1_555
O6_2 C3_3 1_555 1_555
C3_3 O5_3 1_555 1_555
H1_3 C3_3 1_555 1_555
O7_3 C4_3 1_555 1_555
O8_3 Er5_3 1_555 1_555
C4_3 O8_3 1_555 1_555
Er6 O6_2 1_555 1_555
O18_3 Er5_3 1_555 1_555
O19_3 Er5_3 1_555 1_555
O1_4 C1_4 1_555 1_555
O2_4 C1_4 1_555 1_555
Er6_4 O2_4 1_555 1_555
O13_4 Er6_4 1_555 1_555
O14_3 C7_4 1_555 1_555
C7_4 O13_4 1_555 1_555
H2_4 C7_4 1_555 1_555
Er5_2 O14_3 1_555 1_555
O5_4 Er5_4 1_555 1_555
O6_3 C3_4 1_555 1_555
C3_4 O5_4 1_555 1_555
H1_4 C3_4 1_555 1_555
O7_4 C4_4 1_555 1_555
O8_4 Er5_4 1_555 1_555
C4_4 O8_4 1_555 1_555
Er6_2 O6_3 1_555 1_555
Er5 O1_5 1_555 1_555
O1_5 C1_5 1_555 1_555
O5_5 Er5 1_555 1_555
O21_2 C3_5 1_555 1_555
C3_5 O5_5 1_555 1_555
H1_5 C3_5 1_555 1_555
O8_5 Er5 1_555 1_555
O7_5 C4_5 1_555 1_555
Er6 O2_5 1_555 1_555
O13_5 Er6 1_555 1_555
O22_2 C7_5 1_555 1_555
C7_5 O13_5 1_555 1_555
H2_5 C7_5 1_555 1_555
O7_5 Er6 1_555 1_555
Er5_2 O1_6 1_555 1_555
O1_6 C1_6 1_555 1_555
O5_6 Er5_2 1_555 1_555
O21_3 C3_6 1_555 1_555
C3_6 O5_6 1_555 1_555
H1_6 C3_6 1_555 1_555
O8_6 Er5_2 1_555 1_555
O18_4 Er5_2 1_555 1_555
O19_4 Er5_2 1_555 1_555
O7_6 C4_6 1_555 1_555
Er6_2 O2_6 1_555 1_555
O13_6 Er6_2 1_555 1_555
O22_3 C7_6 1_555 1_555
C7_6 O13_6 1_555 1_555
H2_6 C7_6 1_555 1_555
O17_4 Er6_2 1_555 1_555
O20_4 Er6_2 1_555 1_555
O7_6 Er6_2 1_555 1_555
O19_4 C2_3 1_555 1_555
C2_3 O17 1_555 1_555
O18_4 C5_3 1_555 1_555
C5_3 C2_3 1_555 1_555
O20_4 C6_3 1_555 1_555
C6_3 O18 1_555 1_555
O17_4 C8_3 1_555 1_555
C8_3 C6_3 1_555 1_555
O20 C5_3 1_555 1_555
O19 C8_3 1_555 1_555
O20_3 C6_4 1_555 1_555
C6_4 O18_2 1_555 1_555
O17_3 C8_4 1_555 1_555
C8_4 C6_4 1_555 1_555
O19_2 C8_4 1_555 1_555
O19_3 C2_4 1_555 1_555
C2_4 O17_2 1_555 1_555
O18_3 C5_4 1_555 1_555
C5_4 C2_4 1_555 1_555
O20_2 C5_4 1_555 1_555

#END
