
###############################################################################
#
# This file contains modified crystal structure data generated from the
# MOF subset of the Cambridge Structural Database (CSD) v543 
# hosted by the Cambridge Crystallographic Data Centre (CCDC).
#
# This work is licensed under the Creative Commons
# Attribution-NonCommercial-ShareAlike 4.0 International License.
# To view a copy of this license, visit
# http://creativecommons.org/licenses/by-nc-sa/4.0/
# or send a letter to
# Creative Commons, PO Box 1866, Mountain View, CA 94042, USA.
#
# CIF created using the CSD Python API on 29 September 2022
# The structure has been converted into the P1 space group
# The structure has a 3D framework
# The original CSD entry OCUDAV01 is in the orthorhombic crystal system
# The framework has been calculated to contain at least 10.0% void space
# The void calculation uses a probe of radius 1.32A, grid spacing 0.4
# The framework is charged, counterions have been retained in the structure
#
###############################################################################

data_OCUDAV01
_chemical_formula_moiety         '(C46 H12 Ho12 O80 8-)n'
_symmetry_cell_setting           triclinic
_symmetry_space_group_name_H-M   'P 1'
_symmetry_Int_Tables_number      1
_space_group_name_Hall           'P 1'
loop_
_symmetry_equiv_pos_site_id
_symmetry_equiv_pos_as_xyz
1 x,y,z
_cell_length_a                   11.661(2)
_cell_length_b                   12.882(7)
_cell_length_c                   15.445(5)
_cell_angle_alpha                90
_cell_angle_beta                 90
_cell_angle_gamma                90
_cell_volume                     2320.1
loop_
_atom_site_label
_atom_site_type_symbol
_atom_site_fract_x
_atom_site_fract_y
_atom_site_fract_z
Ho1 Ho 0.0000 0.02323(11) 0.30476(12)
O1 O 0.1926(8) 0.0253(10) 0.3523(10)
O4 O -0.0000 0.1974(12) 0.2792(14)
O5 O 0.0000 0.3636(16) 0.2493(17)
C1 C 0.0000 0.279(2) 0.250(2)
H1 H 0.0000 0.2635 0.1908
O6 O 0.3754(9) 0.0331(11) 0.3145(9)
C2 C 0.2705(15) 0.0279(13) 0.2984(11)
O7 O 0.3074(8) 0.0253(10) 0.1477(10)
O8 O 0.1246(9) 0.0331(11) 0.1855(9)
C4 C 0.2295(15) 0.0279(13) 0.2016(11)
O9 O 0.0000 0.0923(11) 0.5763(14)
O10 O 0.0000 0.1147(13) 0.4367(14)
C5 C 0.0000 0.056(2) 0.500(2)
Ho4 Ho 0.0000 0.52323(11) 0.19524(12)
Ho6 Ho 0.5000 0.02323(11) 0.19524(12)
O19 O 0.0000 0.1364(16) 0.7493(17)
O2 O 0.0000 0.9077(11) 0.4237(14)
O3 O 0.0000 0.8853(13) 0.5633(14)
C3 C -0.0000 0.944(2) 0.500(2)
Ho2 Ho 0.0000 0.97677(11) 0.69524(12)
O11 O 0.1926(8) 0.9747(10) 0.6477(10)
O12 O 0.0000 0.8026(12) 0.7208(14)
O13 O 0.0000 0.6364(16) 0.7507(17)
C6 C 0.0000 0.721(2) 0.750(2)
H2 H 0.0000 0.7365 0.8092
O14 O 0.3754(9) 0.9669(11) 0.6855(9)
C7 C 0.2705(15) 0.9721(13) 0.7016(11)
O15 O 0.3074(8) 0.9747(10) 0.8523(10)
O16 O 0.1246(9) 0.9669(11) 0.8145(9)
C8 C 0.2295(15) 0.9721(13) 0.7984(11)
Ho3 Ho 0.0000 0.47677(11) 0.80476(12)
Ho5 Ho 0.5000 0.97677(11) 0.80476(12)
O20 O 0.0000 0.8636(16) 0.2507(17)
Ho1_2 Ho 1.0000 0.02323(11) 0.30476(12)
O4_2 O 1.0000 0.1974(12) 0.2792(14)
O5_2 O 1.0000 0.3636(16) 0.2493(17)
C1_2 C 1.0000 0.279(2) 0.250(2)
H1_2 H 1.0000 0.2635 0.1908
O9_2 O 1.0000 0.0923(11) 0.5763(14)
O10_2 O 1.0000 0.1147(13) 0.4367(14)
C5_2 C 1.0000 0.056(2) 0.500(2)
Ho4_2 Ho 1.0000 0.52323(11) 0.19524(12)
O18 O 0.8074(8) 0.0253(10) 0.3523(10)
O19_2 O 1.0000 0.1364(16) 0.7493(17)
O21 O 0.8754(9) 0.0331(11) 0.1855(9)
O2_2 O 1.0000 0.9077(11) 0.4237(14)
O3_2 O 1.0000 0.8853(13) 0.5633(14)
C3_2 C 1.0000 0.944(2) 0.500(2)
Ho2_2 Ho 1.0000 0.97677(11) 0.69524(12)
O12_2 O 1.0000 0.8026(12) 0.7208(14)
O13_2 O 1.0000 0.6364(16) 0.7507(17)
C6_2 C 1.0000 0.721(2) 0.750(2)
H2_2 H 1.0000 0.7365 0.8092
Ho3_2 Ho 1.0000 0.47677(11) 0.80476(12)
O17 O 0.8074(8) 0.9747(10) 0.6477(10)
O20_2 O 1.0000 0.8636(16) 0.2507(17)
O22 O 0.8754(9) 0.9669(11) 0.8145(9)
O3_3 O -0.0000 0.6147(13) 0.0633(14)
C3_3 C 0.0000 0.556(2) -0.000(2)
O9_3 O 0.0000 0.4077(11) 0.0763(14)
C5_3 C -0.0000 0.444(2) -0.000(2)
O12_3 O 0.0000 0.6974(12) 0.2208(14)
C6_3 C 0.0000 0.779(2) 0.250(2)
H2_3 H 0.0000 0.7635 0.3092
O17_2 O 0.1926(8) 0.5253(10) 0.1477(10)
O22_2 O 0.1246(9) 0.5331(11) 0.3145(9)
O2_3 O -0.0000 0.5923(11) 0.9237(14)
O4_3 O 0.0000 0.3026(12) 0.7792(14)
C1_3 C 0.0000 0.221(2) 0.750(2)
H1_3 H 0.0000 0.2365 0.6908
C3_4 C 0.0000 0.556(2) 1.000(2)
O10_3 O 0.0000 0.3853(13) 0.9367(14)
C5_4 C -0.0000 0.444(2) 1.000(2)
O18_2 O 0.1926(8) 0.4747(10) 0.8523(10)
O21_2 O 0.1246(9) 0.4669(11) 0.6855(9)
O3_4 O 1.0000 0.6147(13) 0.0633(14)
C3_5 C 1.0000 0.556(2) -0.000(2)
O9_4 O 1.0000 0.4077(11) 0.0763(14)
C5_5 C 1.0000 0.444(2) -0.000(2)
O11_2 O 0.8074(8) 0.5253(10) 0.1477(10)
O12_4 O 1.0000 0.6974(12) 0.2208(14)
C6_4 C 1.0000 0.779(2) 0.250(2)
H2_4 H 1.0000 0.7635 0.3092
O14_2 O 0.6246(9) 0.5331(11) 0.1855(9)
C7_2 C 0.7295(15) 0.5279(13) 0.2016(11)
O15_2 O 0.6926(8) 0.5253(10) 0.3523(10)
O16_2 O 0.8754(9) 0.5331(11) 0.3145(9)
C8_2 C 0.7705(15) 0.5279(13) 0.2984(11)
Ho5_2 Ho 0.5000 0.52323(11) 0.30476(12)
O1_2 O 0.8074(8) 0.4747(10) 0.8523(10)
O2_4 O 1.0000 0.5923(11) 0.9237(14)
O4_4 O 1.0000 0.3026(12) 0.7792(14)
C1_4 C 1.0000 0.221(2) 0.750(2)
H1_4 H 1.0000 0.2365 0.6908
O6_2 O 0.6246(9) 0.4669(11) 0.8145(9)
C2_2 C 0.7295(15) 0.4721(13) 0.7984(11)
C3_6 C 1.0000 0.556(2) 1.000(2)
O7_2 O 0.6926(8) 0.4747(10) 0.6477(10)
O8_2 O 0.8754(9) 0.4669(11) 0.6855(9)
C4_2 C 0.7705(15) 0.4721(13) 0.7016(11)
O10_4 O 1.0000 0.3853(13) 0.9367(14)
C5_6 C 1.0000 0.444(2) 1.000(2)
Ho6_2 Ho 0.5000 0.47677(11) 0.69524(12)
O2_5 O 0.5000 0.4077(11) 0.4237(14)
O3_5 O 0.5000 0.3853(13) 0.5633(14)
O4_5 O 0.5000 0.6974(12) 0.2792(14)
O5_3 O 0.5000 0.8636(16) 0.2493(17)
C1_5 C 0.5000 0.779(2) 0.250(2)
H1_5 H 0.5000 0.7635 0.1908
C3_7 C 0.5000 0.444(2) 0.500(2)
O9_5 O 0.5000 0.5923(11) 0.5763(14)
O10_5 O 0.5000 0.6147(13) 0.4367(14)
C5_7 C 0.5000 0.556(2) 0.500(2)
O12_5 O 0.5000 0.3026(12) 0.7208(14)
O13_3 O 0.5000 0.1364(16) 0.7507(17)
C6_5 C 0.5000 0.221(2) 0.750(2)
H2_5 H 0.5000 0.2365 0.8092
O17_3 O 0.3074(8) 0.4747(10) 0.6477(10)
O18_3 O 0.3074(8) 0.5253(10) 0.3523(10)
O19_3 O 0.5000 0.6364(16) 0.7493(17)
O20_3 O 0.5000 0.3636(16) 0.2507(17)
O21_3 O 0.3754(9) 0.5331(11) 0.1855(9)
O22_3 O 0.3754(9) 0.4669(11) 0.8145(9)
O3_6 O 0.5000 0.1147(13) 0.0633(14)
C3_8 C 0.5000 0.056(2) -0.000(2)
O12_6 O 0.5000 0.1974(12) 0.2208(14)
C6_6 C 0.5000 0.279(2) 0.250(2)
H2_6 H 0.5000 0.2635 0.3092
O17_4 O 0.6926(8) 0.0253(10) 0.1477(10)
O22_4 O 0.6246(9) 0.0331(11) 0.3145(9)
O2_6 O 0.5000 0.0923(11) 0.9237(14)
C3_9 C 0.5000 0.056(2) 1.000(2)
O9_6 O 0.5000 0.9077(11) 0.0763(14)
C5_8 C 0.5000 0.944(2) -0.000(2)
O4_6 O 0.5000 0.8026(12) 0.7792(14)
C1_6 C 0.5000 0.721(2) 0.750(2)
H1_6 H 0.5000 0.7365 0.6908
O10_6 O 0.5000 0.8853(13) 0.9367(14)
C5_9 C 0.5000 0.944(2) 1.000(2)
O18_4 O 0.6926(8) 0.9747(10) 0.8523(10)
O21_4 O 0.6246(9) 0.9669(11) 0.6855(9)
C7_3 C 0.7295(15) 0.0279(13) 0.2984(11)
C8_3 C 0.7705(15) 0.0279(13) 0.2016(11)
C2_3 C 0.7295(15) 0.9721(13) 0.7016(11)
C4_3 C 0.7705(15) 0.9721(13) 0.7984(11)
C2_4 C 0.2705(15) 0.5279(13) 0.2016(11)
C4_4 C 0.2295(15) 0.5279(13) 0.2984(11)
C7_4 C 0.2705(15) 0.4721(13) 0.7984(11)
C8_4 C 0.2295(15) 0.4721(13) 0.7016(11)
loop_
_geom_bond_atom_site_label_1
_geom_bond_atom_site_label_2
_geom_bond_site_symmetry_1
_geom_bond_site_symmetry_2
Ho1 O1 1_555 1_555
O1 C2 1_555 1_555
O4 Ho1 1_555 1_555
O5 C1 1_555 1_555
C1 O4 1_555 1_555
H1 C1 1_555 1_555
O6 C2 1_555 1_555
C2 C4 1_555 1_555
O7 C4 1_555 1_555
O8 Ho1 1_555 1_555
C4 O8 1_555 1_555
O9 C5 1_555 1_555
O10 Ho1 1_555 1_555
Ho4 O5 1_555 1_555
Ho6 O6 1_555 1_555
O7 Ho6 1_555 1_555
O10 C5 1_555 1_555
O3 C3 1_555 1_555
C3 O2 1_555 1_555
Ho2 O3 1_555 1_555
O11 Ho2 1_555 1_555
O12 Ho2 1_555 1_555
O13 C6 1_555 1_555
C6 O12 1_555 1_555
H2 C6 1_555 1_555
O14 C7 1_555 1_555
C7 O11 1_555 1_555
O15 C8 1_555 1_555
O16 Ho2 1_555 1_555
C8 C7 1_555 1_555
Ho3 O13 1_555 1_555
Ho5 O14 1_555 1_555
O15 Ho5 1_555 1_555
O16 C8 1_555 1_555
O4_2 Ho1_2 1_555 1_555
O5_2 C1_2 1_555 1_555
C1_2 O4_2 1_555 1_555
H1_2 C1_2 1_555 1_555
O9_2 C5_2 1_555 1_555
O10_2 Ho1_2 1_555 1_555
Ho4_2 O5_2 1_555 1_555
O18 Ho1_2 1_555 1_555
O21 Ho1_2 1_555 1_555
O10_2 C5_2 1_555 1_555
O3_2 C3_2 1_555 1_555
C3_2 O2_2 1_555 1_555
Ho2_2 O3_2 1_555 1_555
O12_2 Ho2_2 1_555 1_555
O13_2 C6_2 1_555 1_555
C6_2 O12_2 1_555 1_555
H2_2 C6_2 1_555 1_555
Ho3_2 O13_2 1_555 1_555
O17 Ho2_2 1_555 1_555
O22 Ho2_2 1_555 1_555
O3_3 C3_3 1_555 1_555
O9_3 C5_3 1_555 1_555
C5_3 C3_3 1_555 1_555
Ho4 O3_3 1_555 1_555
O12_3 Ho4 1_555 1_555
O20 C6_3 1_555 1_555
C6_3 O12_3 1_555 1_555
H2_3 C6_3 1_555 1_555
O17_2 Ho4 1_555 1_555
O22_2 Ho4 1_555 1_555
O9_3 Ho4 1_555 1_555
O2_3 Ho3 1_555 1_555
O4_3 Ho3 1_555 1_555
O19 C1_3 1_555 1_555
C1_3 O4_3 1_555 1_555
H1_3 C1_3 1_555 1_555
C3_4 O2_3 1_555 1_555
O10_3 Ho3 1_555 1_555
C5_4 C3_4 1_555 1_555
O18_2 Ho3 1_555 1_555
O21_2 Ho3 1_555 1_555
O10_3 C5_4 1_555 1_555
O3_4 C3_5 1_555 1_555
O9_4 C5_5 1_555 1_555
C5_5 C3_5 1_555 1_555
Ho4_2 O3_4 1_555 1_555
O11_2 Ho4_2 1_555 1_555
O12_4 Ho4_2 1_555 1_555
O20_2 C6_4 1_555 1_555
C6_4 O12_4 1_555 1_555
H2_4 C6_4 1_555 1_555
O14_2 C7_2 1_555 1_555
C7_2 O11_2 1_555 1_555
O15_2 C8_2 1_555 1_555
O16_2 Ho4_2 1_555 1_555
C8_2 C7_2 1_555 1_555
Ho5_2 O14_2 1_555 1_555
O9_4 Ho4_2 1_555 1_555
O15_2 Ho5_2 1_555 1_555
O16_2 C8_2 1_555 1_555
Ho3_2 O1_2 1_555 1_555
O1_2 C2_2 1_555 1_555
O2_4 Ho3_2 1_555 1_555
O4_4 Ho3_2 1_555 1_555
O19_2 C1_4 1_555 1_555
C1_4 O4_4 1_555 1_555
H1_4 C1_4 1_555 1_555
O6_2 C2_2 1_555 1_555
C2_2 C4_2 1_555 1_555
C3_6 O2_4 1_555 1_555
O7_2 C4_2 1_555 1_555
O8_2 Ho3_2 1_555 1_555
C4_2 O8_2 1_555 1_555
O10_4 Ho3_2 1_555 1_555
C5_6 C3_6 1_555 1_555
Ho6_2 O6_2 1_555 1_555
O7_2 Ho6_2 1_555 1_555
O10_4 C5_6 1_555 1_555
O2_5 Ho5_2 1_555 1_555
O3_5 C3_7 1_555 1_555
O4_5 Ho5_2 1_555 1_555
O5_3 C1_5 1_555 1_555
C1_5 O4_5 1_555 1_555
H1_5 C1_5 1_555 1_555
C3_7 O2_5 1_555 1_555
O9_5 C5_7 1_555 1_555
O10_5 Ho5_2 1_555 1_555
C5_7 C3_7 1_555 1_555
Ho6_2 O3_5 1_555 1_555
O12_5 Ho6_2 1_555 1_555
O13_3 C6_5 1_555 1_555
C6_5 O12_5 1_555 1_555
H2_5 C6_5 1_555 1_555
O17_3 Ho6_2 1_555 1_555
O18_3 Ho5_2 1_555 1_555
O19_3 Ho6_2 1_555 1_555
O20_3 Ho5_2 1_555 1_555
O21_3 Ho5_2 1_555 1_555
O22_3 Ho6_2 1_555 1_555
O9_5 Ho6_2 1_555 1_555
O10_5 C5_7 1_555 1_555
O3_6 C3_8 1_555 1_555
Ho6 O3_6 1_555 1_555
O12_6 Ho6 1_555 1_555
O20_3 C6_6 1_555 1_555
C6_6 O12_6 1_555 1_555
H2_6 C6_6 1_555 1_555
O17_4 Ho6 1_555 1_555
O22_4 Ho6 1_555 1_555
C3_9 O2_6 1_555 1_555
O9_6 C5_8 1_555 1_555
O4_6 Ho5 1_555 1_555
O19_3 C1_6 1_555 1_555
C1_6 O4_6 1_555 1_555
H1_6 C1_6 1_555 1_555
O10_6 Ho5 1_555 1_555
O18_4 Ho5 1_555 1_555
O21_4 Ho5 1_555 1_555
O10_6 C5_9 1_555 1_555
O22_4 C7_3 1_555 1_555
C7_3 O18 1_555 1_555
O17_4 C8_3 1_555 1_555
C8_3 C7_3 1_555 1_555
O21 C8_3 1_555 1_555
O17 C2_3 1_555 1_555
O21_4 C2_3 1_555 1_555
C2_3 C4_3 1_555 1_555
O18_4 C4_3 1_555 1_555
C4_3 O22 1_555 1_555
O17_2 C2_4 1_555 1_555
O21_3 C2_4 1_555 1_555
C2_4 C4_4 1_555 1_555
O18_3 C4_4 1_555 1_555
C4_4 O22_2 1_555 1_555
O22_3 C7_4 1_555 1_555
C7_4 O18_2 1_555 1_555
O17_3 C8_4 1_555 1_555
C8_4 C7_4 1_555 1_555
O21_2 C8_4 1_555 1_555

#END
