
###############################################################################
#
# This file contains modified crystal structure data generated from the
# MOF subset of the Cambridge Structural Database (CSD) v543 
# hosted by the Cambridge Crystallographic Data Centre (CCDC).
#
# This work is licensed under the Creative Commons
# Attribution-NonCommercial-ShareAlike 4.0 International License.
# To view a copy of this license, visit
# http://creativecommons.org/licenses/by-nc-sa/4.0/
# or send a letter to
# Creative Commons, PO Box 1866, Mountain View, CA 94042, USA.
#
# CIF created using the CSD Python API on 29 September 2022
# The structure has been converted into the P1 space group
# The structure has a 3D framework
# The original CSD entry OCUDID01 is in the orthorhombic crystal system
# The framework has been calculated to contain at least 10.0% void space
# The void calculation uses a probe of radius 1.32A, grid spacing 0.4
# The framework is charged, counterions have been retained in the structure
#
###############################################################################

data_OCUDID01
_chemical_formula_moiety         '(C40 H12 Er12 O80 8-)n'
_symmetry_cell_setting           triclinic
_symmetry_space_group_name_H-M   'P 1'
_symmetry_Int_Tables_number      1
_space_group_name_Hall           'P 1'
loop_
_symmetry_equiv_pos_site_id
_symmetry_equiv_pos_as_xyz
1 x,y,z
_cell_length_a                   11.6176(5)
_cell_length_b                   12.8177(6)
_cell_length_c                   15.8531(6)
_cell_angle_alpha                90
_cell_angle_beta                 90
_cell_angle_gamma                90
_cell_volume                     2360.7
loop_
_atom_site_label
_atom_site_type_symbol
_atom_site_fract_x
_atom_site_fract_y
_atom_site_fract_z
Er1 Er 0.5000 0.47436(5) 0.69163(3)
O1 O 0.5000 0.7966(8) 0.7872(6)
O2 O 0.5000 0.6367(7) 0.7496(6)
O3 O 0.5000 0.6125(5) 0.4401(4)
O4 O 0.5000 0.5934(6) 0.5786(4)
O5 O 0.3076(5) 0.4695(5) 0.6495(3)
O6 O 0.1247(6) 0.4630(7) 0.6915(3)
C1 C 0.5000 0.7291(9) 0.7382(7)
H1 H 0.5000 0.7499 0.6820
C2 C 0.5000 0.5624(7) 0.5056(6)
C3 C 0.2300(8) 0.4656(7) 0.7033(4)
O7 O 0.5000 0.3875(5) 0.5599(4)
O8 O 0.5000 0.4066(6) 0.4214(4)
C4 C 0.5000 0.4376(7) 0.4944(6)
O9 O 0.1924(5) 0.4695(5) 0.8505(3)
O10 O 0.3753(6) 0.4630(7) 0.8085(3)
C5 C 0.2700(8) 0.4656(7) 0.7967(4)
Er2 Er 0.5000 0.52564(5) 0.30837(3)
O11 O 0.5000 0.2034(8) 0.2128(6)
O12 O 0.5000 0.3633(7) 0.2504(6)
O13 O 0.3076(5) 0.5305(5) 0.3505(3)
O14 O 0.1247(6) 0.5370(7) 0.3085(3)
C6 C 0.5000 0.2709(9) 0.2618(7)
H2 H 0.5000 0.2501 0.3180
C7 C 0.2300(8) 0.5344(7) 0.2967(4)
O15 O 0.1924(5) 0.5305(5) 0.1495(3)
O16 O 0.3753(6) 0.5370(7) 0.1915(3)
C8 C 0.2700(8) 0.5344(7) 0.2033(4)
Er3 Er 0.5000 0.02564(5) 0.19163(3)
Er4 Er 0.5000 0.97436(5) 0.80837(3)
Er5 Er 0.0000 0.52564(5) 0.19163(3)
Er6 Er 0.0000 0.47436(5) 0.80837(3)
O17 O 0.5000 0.7034(8) 0.2872(6)
O18 O 0.5000 0.2966(8) 0.7128(6)
O19 O 0.6924(5) 0.5305(5) 0.3505(3)
O20 O 0.6924(5) 0.4695(5) 0.6495(3)
O21 O 0.6247(6) 0.4630(7) 0.8085(3)
O22 O 0.6247(6) 0.5370(7) 0.1915(3)
Er5_2 Er 1.0000 0.52564(5) 0.19163(3)
Er6_2 Er 1.0000 0.47436(5) 0.80837(3)
Er6_3 Er -0.0000 0.02564(5) 0.30837(3)
Er5_3 Er 0.0000 0.97436(5) 0.69163(3)
O5_2 O 0.6924(5) 0.0305(5) 0.1495(3)
O6_2 O 0.8753(6) 0.0370(7) 0.1915(3)
C3_2 C 0.7700(8) 0.0344(7) 0.2033(4)
O7_2 O 0.5000 0.1125(5) 0.0599(4)
O9_2 O 0.8076(5) 0.0305(5) 0.3505(3)
O10_2 O 0.6247(6) 0.0370(7) 0.3085(3)
C5_2 C 0.7300(8) 0.0344(7) 0.2967(4)
Er6_4 Er 1.0000 0.02564(5) 0.30837(3)
O20_2 O 0.3076(5) 0.0305(5) 0.1495(3)
O21_2 O 0.3753(6) 0.0370(7) 0.3085(3)
O8_2 O 0.5000 0.0934(6) 0.9214(4)
C4_2 C 0.5000 0.0624(7) 0.9944(6)
O12_2 O 0.5000 0.1367(7) 0.7504(6)
C6_2 C 0.5000 0.2291(9) 0.7618(7)
H2_2 H 0.5000 0.2499 0.8180
O2_2 O 0.5000 0.8633(7) 0.2496(6)
O4_2 O 0.5000 0.9066(6) 0.0786(4)
C1_2 C 0.5000 0.7709(9) 0.2382(7)
H1_2 H 0.5000 0.7501 0.1820
C2_2 C 0.5000 0.9376(7) 0.0056(6)
O3_2 O 0.5000 0.8875(5) 0.9401(4)
O13_2 O 0.6924(5) 0.9695(5) 0.8505(3)
O14_2 O 0.8753(6) 0.9630(7) 0.8085(3)
C7_2 C 0.7700(8) 0.9656(7) 0.7967(4)
O15_2 O 0.8076(5) 0.9695(5) 0.6495(3)
O16_2 O 0.6247(6) 0.9630(7) 0.6915(3)
C8_2 C 0.7300(8) 0.9656(7) 0.7033(4)
Er5_4 Er 1.0000 0.97436(5) 0.69163(3)
O19_2 O 0.3076(5) 0.9695(5) 0.8505(3)
O22_2 O 0.3753(6) 0.9630(7) 0.6915(3)
O1_2 O 0.0000 0.2966(8) 0.7872(6)
O2_3 O 0.0000 0.1367(7) 0.7496(6)
O3_3 O 0.0000 0.1125(5) 0.4401(4)
O4_3 O 0.0000 0.0934(6) 0.5786(4)
C1_3 C 0.0000 0.2291(9) 0.7382(7)
H1_3 H 0.0000 0.2499 0.6820
C2_3 C 0.0000 0.0624(7) 0.5056(6)
O17_2 O 0.0000 0.2034(8) 0.2872(6)
O19_3 O 0.1924(5) 0.0305(5) 0.3505(3)
O22_3 O 0.1247(6) 0.0370(7) 0.1915(3)
O7_3 O 0.0000 0.8875(5) 0.5599(4)
O8_3 O -0.0000 0.9066(6) 0.4214(4)
C4_3 C 0.0000 0.9376(7) 0.4944(6)
O11_2 O 0.0000 0.7034(8) 0.2128(6)
O12_3 O 0.0000 0.8633(7) 0.2504(6)
C6_3 C 0.0000 0.7709(9) 0.2618(7)
H2_3 H 0.0000 0.7501 0.3180
O18_2 O 0.0000 0.7966(8) 0.7128(6)
O20_3 O 0.1924(5) 0.9695(5) 0.6495(3)
O21_3 O 0.1247(6) 0.9630(7) 0.8085(3)
O1_3 O 1.0000 0.2966(8) 0.7872(6)
O2_4 O 1.0000 0.1367(7) 0.7496(6)
O3_4 O 1.0000 0.1125(5) 0.4401(4)
O4_4 O 1.0000 0.0934(6) 0.5786(4)
C1_4 C 1.0000 0.2291(9) 0.7382(7)
H1_4 H 1.0000 0.2499 0.6820
C2_4 C 1.0000 0.0624(7) 0.5056(6)
O17_3 O 1.0000 0.2034(8) 0.2872(6)
O7_4 O 1.0000 0.8875(5) 0.5599(4)
O8_4 O 1.0000 0.9066(6) 0.4214(4)
C4_4 C 1.0000 0.9376(7) 0.4944(6)
O11_3 O 1.0000 0.7034(8) 0.2128(6)
O12_4 O 1.0000 0.8633(7) 0.2504(6)
C6_4 C 1.0000 0.7709(9) 0.2618(7)
H2_4 H 1.0000 0.7501 0.3180
O18_3 O 1.0000 0.7966(8) 0.7128(6)
O2_5 O 0.0000 0.3633(7) 0.2496(6)
O4_5 O -0.0000 0.4066(6) 0.0786(4)
C1_5 C 0.0000 0.2709(9) 0.2382(7)
H1_5 H 0.0000 0.2501 0.1820
C2_5 C -0.0000 0.4376(7) 0.0056(6)
O7_5 O -0.0000 0.6125(5) 0.0599(4)
O3_5 O -0.0000 0.3875(5) 0.9401(4)
O8_5 O 0.0000 0.5934(6) 0.9214(4)
C4_5 C -0.0000 0.5624(7) 0.9944(6)
O12_5 O 0.0000 0.6367(7) 0.7504(6)
C6_5 C 0.0000 0.7291(9) 0.7618(7)
H2_5 H 0.0000 0.7499 0.8180
O2_6 O 1.0000 0.3633(7) 0.2496(6)
O4_6 O 1.0000 0.4066(6) 0.0786(4)
C1_6 C 1.0000 0.2709(9) 0.2382(7)
H1_6 H 1.0000 0.2501 0.1820
C2_6 C 1.0000 0.4376(7) 0.0056(6)
O7_6 O 1.0000 0.6125(5) 0.0599(4)
O20_4 O 0.8076(5) 0.5305(5) 0.1495(3)
O21_4 O 0.8753(6) 0.5370(7) 0.3085(3)
O3_6 O 1.0000 0.3875(5) 0.9401(4)
O8_6 O 1.0000 0.5934(6) 0.9214(4)
C4_6 C 1.0000 0.5624(7) 0.9944(6)
O12_6 O 1.0000 0.6367(7) 0.7504(6)
C6_6 C 1.0000 0.7291(9) 0.7618(7)
H2_6 H 1.0000 0.7499 0.8180
O19_4 O 0.8076(5) 0.4695(5) 0.8505(3)
O22_4 O 0.8753(6) 0.4630(7) 0.6915(3)
C3_3 C 0.7700(8) 0.5344(7) 0.2967(4)
C5_3 C 0.7300(8) 0.5344(7) 0.2033(4)
C7_3 C 0.7700(8) 0.4656(7) 0.7033(4)
C8_3 C 0.7300(8) 0.4656(7) 0.7967(4)
C7_4 C 0.2300(8) 0.0344(7) 0.2033(4)
C8_4 C 0.2700(8) 0.0344(7) 0.2967(4)
C3_4 C 0.2300(8) 0.9656(7) 0.7967(4)
C5_4 C 0.2700(8) 0.9656(7) 0.7033(4)
loop_
_geom_bond_atom_site_label_1
_geom_bond_atom_site_label_2
_geom_bond_site_symmetry_1
_geom_bond_site_symmetry_2
Er1 O2 1_555 1_555
O1 C1 1_555 1_555
O2 C1 1_555 1_555
O3 C2 1_555 1_555
O4 Er1 1_555 1_555
O5 Er1 1_555 1_555
O6 C3 1_555 1_555
C1 H1 1_555 1_555
C2 O4 1_555 1_555
C3 O5 1_555 1_555
O7 Er1 1_555 1_555
O8 C4 1_555 1_555
C4 C2 1_555 1_555
O9 C5 1_555 1_555
O10 Er1 1_555 1_555
C5 C3 1_555 1_555
Er2 O3 1_555 1_555
O11 C6 1_555 1_555
O12 Er2 1_555 1_555
O13 Er2 1_555 1_555
O14 C7 1_555 1_555
C6 O12 1_555 1_555
H2 C6 1_555 1_555
C7 O13 1_555 1_555
O15 C8 1_555 1_555
O16 Er2 1_555 1_555
C8 C7 1_555 1_555
Er3 O11 1_555 1_555
Er4 O1 1_555 1_555
Er5 O14 1_555 1_555
Er6 O6 1_555 1_555
O17 Er2 1_555 1_555
O18 Er1 1_555 1_555
O19 Er2 1_555 1_555
O20 Er1 1_555 1_555
O21 Er1 1_555 1_555
O22 Er2 1_555 1_555
O7 C4 1_555 1_555
O8 Er2 1_555 1_555
O9 Er6 1_555 1_555
O10 C5 1_555 1_555
O15 Er5 1_555 1_555
O16 C8 1_555 1_555
O5_2 Er3 1_555 1_555
O6_2 C3_2 1_555 1_555
C3_2 O5_2 1_555 1_555
O7_2 Er3 1_555 1_555
O9_2 C5_2 1_555 1_555
O10_2 Er3 1_555 1_555
C5_2 C3_2 1_555 1_555
Er6_4 O6_2 1_555 1_555
O20_2 Er3 1_555 1_555
O21_2 Er3 1_555 1_555
O9_2 Er6_4 1_555 1_555
O10_2 C5_2 1_555 1_555
O8_2 C4_2 1_555 1_555
O18 C6_2 1_555 1_555
C6_2 O12_2 1_555 1_555
H2_2 C6_2 1_555 1_555
O17 C1_2 1_555 1_555
O2_2 C1_2 1_555 1_555
C1_2 H1_2 1_555 1_555
C2_2 O4_2 1_555 1_555
Er4 O3_2 1_555 1_555
O13_2 Er4 1_555 1_555
O14_2 C7_2 1_555 1_555
C7_2 O13_2 1_555 1_555
O15_2 C8_2 1_555 1_555
O16_2 Er4 1_555 1_555
C8_2 C7_2 1_555 1_555
Er5_4 O14_2 1_555 1_555
O19_2 Er4 1_555 1_555
O22_2 Er4 1_555 1_555
O15_2 Er5_4 1_555 1_555
O16_2 C8_2 1_555 1_555
O1_2 C1_3 1_555 1_555
O2_3 C1_3 1_555 1_555
O3_3 C2_3 1_555 1_555
C1_3 H1_3 1_555 1_555
C2_3 O4_3 1_555 1_555
Er6_3 O3_3 1_555 1_555
Er6 O1_2 1_555 1_555
O17_2 Er6_3 1_555 1_555
O19_3 Er6_3 1_555 1_555
O22_3 Er6_3 1_555 1_555
O7_3 Er5_3 1_555 1_555
O8_3 C4_3 1_555 1_555
O11_2 C6_3 1_555 1_555
C6_3 O12_3 1_555 1_555
H2_3 C6_3 1_555 1_555
Er5 O11_2 1_555 1_555
O18_2 Er5_3 1_555 1_555
O20_3 Er5_3 1_555 1_555
O21_3 Er5_3 1_555 1_555
O7_3 C4_3 1_555 1_555
O1_3 C1_4 1_555 1_555
O2_4 C1_4 1_555 1_555
O3_4 C2_4 1_555 1_555
C1_4 H1_4 1_555 1_555
C2_4 O4_4 1_555 1_555
Er6_4 O3_4 1_555 1_555
Er6_2 O1_3 1_555 1_555
O17_3 Er6_4 1_555 1_555
O7_4 Er5_4 1_555 1_555
O8_4 C4_4 1_555 1_555
O11_3 C6_4 1_555 1_555
C6_4 O12_4 1_555 1_555
H2_4 C6_4 1_555 1_555
Er5_2 O11_3 1_555 1_555
O18_3 Er5_4 1_555 1_555
O7_4 C4_4 1_555 1_555
Er5 O2_5 1_555 1_555
O17_2 C1_5 1_555 1_555
O2_5 C1_5 1_555 1_555
O4_5 Er5 1_555 1_555
C1_5 H1_5 1_555 1_555
C2_5 O4_5 1_555 1_555
O7_5 Er5 1_555 1_555
O8_5 C4_5 1_555 1_555
Er6 O3_5 1_555 1_555
O18_2 C6_5 1_555 1_555
O12_5 Er6 1_555 1_555
C6_5 O12_5 1_555 1_555
H2_5 C6_5 1_555 1_555
O8_5 Er6 1_555 1_555
Er5_2 O2_6 1_555 1_555
O17_3 C1_6 1_555 1_555
O2_6 C1_6 1_555 1_555
O4_6 Er5_2 1_555 1_555
C1_6 H1_6 1_555 1_555
C2_6 O4_6 1_555 1_555
O7_6 Er5_2 1_555 1_555
O20_4 Er5_2 1_555 1_555
O21_4 Er5_2 1_555 1_555
O8_6 C4_6 1_555 1_555
Er6_2 O3_6 1_555 1_555
O18_3 C6_6 1_555 1_555
O12_6 Er6_2 1_555 1_555
C6_6 O12_6 1_555 1_555
H2_6 C6_6 1_555 1_555
O19_4 Er6_2 1_555 1_555
O22_4 Er6_2 1_555 1_555
O8_6 Er6_2 1_555 1_555
O21_4 C3_3 1_555 1_555
C3_3 O19 1_555 1_555
O20_4 C5_3 1_555 1_555
C5_3 C3_3 1_555 1_555
O22_4 C7_3 1_555 1_555
C7_3 O20 1_555 1_555
O19_4 C8_3 1_555 1_555
C8_3 C7_3 1_555 1_555
O22 C5_3 1_555 1_555
O21 C8_3 1_555 1_555
O22_3 C7_4 1_555 1_555
C7_4 O20_2 1_555 1_555
O19_3 C8_4 1_555 1_555
C8_4 C7_4 1_555 1_555
O21_2 C8_4 1_555 1_555
O21_3 C3_4 1_555 1_555
C3_4 O19_2 1_555 1_555
O20_3 C5_4 1_555 1_555
C5_4 C3_4 1_555 1_555
O22_2 C5_4 1_555 1_555

#END
