
###############################################################################
#
# This file contains modified crystal structure data generated from the
# MOF subset of the Cambridge Structural Database (CSD) v543 
# hosted by the Cambridge Crystallographic Data Centre (CCDC).
#
# This work is licensed under the Creative Commons
# Attribution-NonCommercial-ShareAlike 4.0 International License.
# To view a copy of this license, visit
# http://creativecommons.org/licenses/by-nc-sa/4.0/
# or send a letter to
# Creative Commons, PO Box 1866, Mountain View, CA 94042, USA.
#
# CIF created using the CSD Python API on 29 September 2022
# The structure has been converted into the P1 space group
# The structure has a 3D framework
# The original CSD entry OCUDAV is in the orthorhombic crystal system
# The framework has been calculated to contain at least 10.0% void space
# The void calculation uses a probe of radius 1.32A, grid spacing 0.4
# The framework is charged, counterions have been retained in the structure
#
###############################################################################

data_OCUDAV
_chemical_formula_moiety         '(C40 H12 Ho12 O80 8-)n'
_symmetry_cell_setting           triclinic
_symmetry_space_group_name_H-M   'P 1'
_symmetry_Int_Tables_number      1
_space_group_name_Hall           'P 1'
loop_
_symmetry_equiv_pos_site_id
_symmetry_equiv_pos_as_xyz
1 x,y,z
_cell_length_a                   11.6652(10)
_cell_length_b                   12.8066(16)
_cell_length_c                   15.7691(16)
_cell_angle_alpha                90
_cell_angle_beta                 90
_cell_angle_gamma                90
_cell_volume                     2355.77
loop_
_atom_site_label
_atom_site_type_symbol
_atom_site_fract_x
_atom_site_fract_y
_atom_site_fract_z
Ho1 Ho 0.5000 0.46413(6) 0.30816(5)
O1 O 0.5000 0.6170(6) 0.5563(5)
O2 O 0.5000 0.5909(6) 0.4185(5)
O3 O 0.1932(5) 0.4589(5) 0.1483(4)
O4 O 0.3759(6) 0.4461(7) 0.1917(4)
O5 O 0.5000 0.7875(9) 0.2077(7)
C1 C 0.5000 0.5601(7) 0.4917(8)
O6 O 0.5000 0.6250(7) 0.2475(7)
C2 C 0.2700(9) 0.4542(6) 0.2035(5)
C3 C 0.5000 0.7172(10) 0.2564(11)
H1 H 0.5000 0.7383 0.3129
O7 O 0.5000 0.3830(6) 0.4437(5)
O8 O 0.5000 0.4091(6) 0.5815(5)
C4 C 0.5000 0.4399(7) 0.5083(8)
O9 O 0.3068(5) 0.4589(5) 0.3517(4)
O10 O 0.1241(6) 0.4461(7) 0.3083(4)
C5 C 0.2300(9) 0.4542(6) 0.2965(5)
Ho2 Ho 0.5000 0.53587(6) 0.69184(5)
O11 O 0.1932(5) 0.5411(5) 0.8517(4)
O12 O 0.3759(6) 0.5539(7) 0.8083(4)
O13 O 0.5000 0.2125(9) 0.7923(7)
O14 O 0.5000 0.3750(7) 0.7525(7)
C6 C 0.2700(9) 0.5458(6) 0.7965(5)
C7 C 0.5000 0.2828(10) 0.7436(11)
H2 H 0.5000 0.2617 0.6871
O15 O 0.3068(5) 0.5411(5) 0.6483(4)
O16 O 0.1241(6) 0.5539(7) 0.6917(4)
C8 C 0.2300(9) 0.5458(6) 0.7035(5)
Ho3 Ho 0.5000 0.03587(6) 0.80816(5)
Ho4 Ho 0.5000 0.96413(6) 0.19184(5)
Ho5 Ho 0.0000 0.53587(6) 0.80816(5)
Ho6 Ho 0.0000 0.46413(6) 0.19184(5)
O17 O 0.6932(5) 0.4589(5) 0.3517(4)
O18 O 0.6932(5) 0.5411(5) 0.6483(4)
O19 O 0.6241(6) 0.5539(7) 0.8083(4)
O20 O 0.6241(6) 0.4461(7) 0.1917(4)
O21 O 0.5000 0.7125(9) 0.7077(7)
O22 O 0.5000 0.2875(9) 0.2923(7)
Ho5_2 Ho 1.0000 0.53587(6) 0.80816(5)
Ho6_2 Ho 1.0000 0.46413(6) 0.19184(5)
Ho6_3 Ho 0.0000 0.03587(6) 0.69184(5)
Ho5_3 Ho -0.0000 0.96413(6) 0.30816(5)
O8_2 O 0.5000 0.0909(6) 0.0815(5)
C4_2 C 0.5000 0.0601(7) 0.0083(8)
O14_2 O 0.5000 0.1250(7) 0.2525(7)
C7_2 C 0.5000 0.2172(10) 0.2436(11)
H2_2 H 0.5000 0.2383 0.1871
O3_2 O 0.8068(5) 0.0411(5) 0.6483(4)
O4_2 O 0.6241(6) 0.0539(7) 0.6917(4)
C2_2 C 0.7300(9) 0.0458(6) 0.7035(5)
O7_2 O 0.5000 0.1170(6) 0.9437(5)
O9_2 O 0.6932(5) 0.0411(5) 0.8517(4)
O10_2 O 0.8759(6) 0.0539(7) 0.8083(4)
C5_2 C 0.7700(9) 0.0458(6) 0.7965(5)
Ho6_4 Ho 1.0000 0.03587(6) 0.69184(5)
O17_2 O 0.3068(5) 0.0411(5) 0.8517(4)
O20_2 O 0.3759(6) 0.0539(7) 0.6917(4)
O1_2 O 0.5000 0.8830(6) 0.0563(5)
O11_2 O 0.8068(5) 0.9589(5) 0.3517(4)
O12_2 O 0.6241(6) 0.9461(7) 0.3083(4)
C6_2 C 0.7300(9) 0.9542(6) 0.2965(5)
O15_2 O 0.6932(5) 0.9589(5) 0.1483(4)
O16_2 O 0.8759(6) 0.9461(7) 0.1917(4)
C8_2 C 0.7700(9) 0.9542(6) 0.2035(5)
Ho5_4 Ho 1.0000 0.96413(6) 0.30816(5)
O18_2 O 0.3068(5) 0.9589(5) 0.1483(4)
O19_2 O 0.3759(6) 0.9461(7) 0.3083(4)
O2_2 O 0.5000 0.9091(6) 0.9185(5)
C1_2 C 0.5000 0.9399(7) 0.9917(8)
O6_2 O 0.5000 0.8750(7) 0.7475(7)
C3_2 C 0.5000 0.7828(10) 0.7564(11)
H1_2 H 0.5000 0.7617 0.8129
O1_3 O 0.0000 0.1170(6) 0.5563(5)
O2_3 O 0.0000 0.0909(6) 0.4185(5)
O5_2 O 0.0000 0.2875(9) 0.2077(7)
C1_3 C 0.0000 0.0601(7) 0.4917(8)
O6_3 O 0.0000 0.1250(7) 0.2475(7)
C3_3 C 0.0000 0.2172(10) 0.2564(11)
H1_3 H 0.0000 0.2383 0.3129
O18_3 O 0.1932(5) 0.0411(5) 0.6483(4)
O19_3 O 0.1241(6) 0.0539(7) 0.8083(4)
O21_2 O 0.0000 0.2125(9) 0.7077(7)
O7_3 O -0.0000 0.8830(6) 0.4437(5)
O8_3 O 0.0000 0.9091(6) 0.5815(5)
C4_3 C 0.0000 0.9399(7) 0.5083(8)
O13_2 O 0.0000 0.7125(9) 0.7923(7)
O14_3 O 0.0000 0.8750(7) 0.7525(7)
C7_3 C 0.0000 0.7828(10) 0.7436(11)
H2_3 H 0.0000 0.7617 0.6871
O17_3 O 0.1932(5) 0.9589(5) 0.3517(4)
O20_3 O 0.1241(6) 0.9461(7) 0.1917(4)
O22_2 O 0.0000 0.7875(9) 0.2923(7)
O1_4 O 1.0000 0.1170(6) 0.5563(5)
O2_4 O 1.0000 0.0909(6) 0.4185(5)
O5_3 O 1.0000 0.2875(9) 0.2077(7)
C1_4 C 1.0000 0.0601(7) 0.4917(8)
O6_4 O 1.0000 0.1250(7) 0.2475(7)
C3_4 C 1.0000 0.2172(10) 0.2564(11)
H1_4 H 1.0000 0.2383 0.3129
O21_3 O 1.0000 0.2125(9) 0.7077(7)
O7_4 O 1.0000 0.8830(6) 0.4437(5)
O8_4 O 1.0000 0.9091(6) 0.5815(5)
C4_4 C 1.0000 0.9399(7) 0.5083(8)
O13_3 O 1.0000 0.7125(9) 0.7923(7)
O14_4 O 1.0000 0.8750(7) 0.7525(7)
C7_4 C 1.0000 0.7828(10) 0.7436(11)
H2_4 H 1.0000 0.7617 0.6871
O22_3 O 1.0000 0.7875(9) 0.2923(7)
O1_5 O -0.0000 0.3830(6) 0.0563(5)
O8_5 O -0.0000 0.5909(6) 0.0815(5)
C4_5 C -0.0000 0.5601(7) 0.0083(8)
O14_5 O -0.0000 0.6250(7) 0.2525(7)
C7_5 C 0.0000 0.7172(10) 0.2436(11)
H2_5 H 0.0000 0.7383 0.1871
O2_5 O -0.0000 0.4091(6) 0.9185(5)
C1_5 C -0.0000 0.4399(7) 0.9917(8)
O6_5 O -0.0000 0.3750(7) 0.7475(7)
C3_5 C -0.0000 0.2828(10) 0.7564(11)
H1_5 H -0.0000 0.2617 0.8129
O7_5 O 0.0000 0.6170(6) 0.9437(5)
O1_6 O 1.0000 0.3830(6) 0.0563(5)
O8_6 O 1.0000 0.5909(6) 0.0815(5)
C4_6 C 1.0000 0.5601(7) 0.0083(8)
O14_6 O 1.0000 0.6250(7) 0.2525(7)
C7_6 C 1.0000 0.7172(10) 0.2436(11)
H2_6 H 1.0000 0.7383 0.1871
O18_4 O 0.8068(5) 0.4589(5) 0.1483(4)
O19_4 O 0.8759(6) 0.4461(7) 0.3083(4)
O2_6 O 1.0000 0.4091(6) 0.9185(5)
C1_6 C 1.0000 0.4399(7) 0.9917(8)
O6_6 O 1.0000 0.3750(7) 0.7475(7)
C3_6 C 1.0000 0.2828(10) 0.7564(11)
H1_6 H 1.0000 0.2617 0.8129
O7_6 O 1.0000 0.6170(6) 0.9437(5)
O17_4 O 0.8068(5) 0.5411(5) 0.8517(4)
O20_4 O 0.8759(6) 0.5539(7) 0.6917(4)
C2_3 C 0.7300(9) 0.5458(6) 0.7965(5)
C5_3 C 0.7700(9) 0.5458(6) 0.7035(5)
C6_3 C 0.7300(9) 0.4542(6) 0.2035(5)
C8_3 C 0.7700(9) 0.4542(6) 0.2965(5)
C6_4 C 0.2700(9) 0.0458(6) 0.7035(5)
C8_4 C 0.2300(9) 0.0458(6) 0.7965(5)
C2_4 C 0.2700(9) 0.9542(6) 0.2965(5)
C5_4 C 0.2300(9) 0.9542(6) 0.2035(5)
loop_
_geom_bond_atom_site_label_1
_geom_bond_atom_site_label_2
_geom_bond_site_symmetry_1
_geom_bond_site_symmetry_2
Ho1 O2 1_555 1_555
O1 C1 1_555 1_555
O2 C1 1_555 1_555
O3 C2 1_555 1_555
O4 Ho1 1_555 1_555
O5 C3 1_555 1_555
C1 C4 1_555 1_555
O6 Ho1 1_555 1_555
C2 O4 1_555 1_555
C3 O6 1_555 1_555
H1 C3 1_555 1_555
O7 Ho1 1_555 1_555
O8 C4 1_555 1_555
C4 O7 1_555 1_555
O9 Ho1 1_555 1_555
O10 C5 1_555 1_555
C5 C2 1_555 1_555
Ho2 O1 1_555 1_555
O11 C6 1_555 1_555
O12 Ho2 1_555 1_555
O13 C7 1_555 1_555
O14 Ho2 1_555 1_555
C6 O12 1_555 1_555
C7 O14 1_555 1_555
H2 C7 1_555 1_555
O15 Ho2 1_555 1_555
O16 C8 1_555 1_555
C8 C6 1_555 1_555
Ho3 O13 1_555 1_555
Ho4 O5 1_555 1_555
Ho5 O11 1_555 1_555
Ho6 O3 1_555 1_555
O17 Ho1 1_555 1_555
O18 Ho2 1_555 1_555
O19 Ho2 1_555 1_555
O20 Ho1 1_555 1_555
O21 Ho2 1_555 1_555
O22 Ho1 1_555 1_555
O8 Ho2 1_555 1_555
O9 C5 1_555 1_555
O10 Ho6 1_555 1_555
O15 C8 1_555 1_555
O16 Ho5 1_555 1_555
O8_2 C4_2 1_555 1_555
O22 C7_2 1_555 1_555
C7_2 O14_2 1_555 1_555
H2_2 C7_2 1_555 1_555
O3_2 C2_2 1_555 1_555
O4_2 Ho3 1_555 1_555
C2_2 O4_2 1_555 1_555
O7_2 Ho3 1_555 1_555
O9_2 Ho3 1_555 1_555
O10_2 C5_2 1_555 1_555
C5_2 C2_2 1_555 1_555
Ho6_4 O3_2 1_555 1_555
O17_2 Ho3 1_555 1_555
O20_2 Ho3 1_555 1_555
O9_2 C5_2 1_555 1_555
O10_2 Ho6_4 1_555 1_555
Ho4 O1_2 1_555 1_555
O11_2 C6_2 1_555 1_555
O12_2 Ho4 1_555 1_555
C6_2 O12_2 1_555 1_555
O15_2 Ho4 1_555 1_555
O16_2 C8_2 1_555 1_555
C8_2 C6_2 1_555 1_555
Ho5_4 O11_2 1_555 1_555
O18_2 Ho4 1_555 1_555
O19_2 Ho4 1_555 1_555
O15_2 C8_2 1_555 1_555
O16_2 Ho5_4 1_555 1_555
O2_2 C1_2 1_555 1_555
O21 C3_2 1_555 1_555
C3_2 O6_2 1_555 1_555
H1_2 C3_2 1_555 1_555
O1_3 C1_3 1_555 1_555
O2_3 C1_3 1_555 1_555
O5_2 C3_3 1_555 1_555
C3_3 O6_3 1_555 1_555
H1_3 C3_3 1_555 1_555
Ho6_3 O1_3 1_555 1_555
Ho6 O5_2 1_555 1_555
O18_3 Ho6_3 1_555 1_555
O19_3 Ho6_3 1_555 1_555
O21_2 Ho6_3 1_555 1_555
O7_3 Ho5_3 1_555 1_555
O8_3 C4_3 1_555 1_555
C4_3 O7_3 1_555 1_555
O13_2 C7_3 1_555 1_555
C7_3 O14_3 1_555 1_555
H2_3 C7_3 1_555 1_555
Ho5 O13_2 1_555 1_555
O17_3 Ho5_3 1_555 1_555
O20_3 Ho5_3 1_555 1_555
O22_2 Ho5_3 1_555 1_555
O1_4 C1_4 1_555 1_555
O2_4 C1_4 1_555 1_555
O5_3 C3_4 1_555 1_555
C3_4 O6_4 1_555 1_555
H1_4 C3_4 1_555 1_555
Ho6_4 O1_4 1_555 1_555
Ho6_2 O5_3 1_555 1_555
O21_3 Ho6_4 1_555 1_555
O7_4 Ho5_4 1_555 1_555
O8_4 C4_4 1_555 1_555
C4_4 O7_4 1_555 1_555
O13_3 C7_4 1_555 1_555
C7_4 O14_4 1_555 1_555
H2_4 C7_4 1_555 1_555
Ho5_2 O13_3 1_555 1_555
O22_3 Ho5_4 1_555 1_555
O8_5 C4_5 1_555 1_555
Ho6 O1_5 1_555 1_555
O22_2 C7_5 1_555 1_555
O14_5 Ho6 1_555 1_555
C7_5 O14_5 1_555 1_555
H2_5 C7_5 1_555 1_555
O8_5 Ho6 1_555 1_555
Ho5 O2_5 1_555 1_555
O2_5 C1_5 1_555 1_555
O21_2 C3_5 1_555 1_555
O6_5 Ho5 1_555 1_555
C3_5 O6_5 1_555 1_555
H1_5 C3_5 1_555 1_555
O7_5 Ho5 1_555 1_555
O8_6 C4_6 1_555 1_555
Ho6_2 O1_6 1_555 1_555
O22_3 C7_6 1_555 1_555
O14_6 Ho6_2 1_555 1_555
C7_6 O14_6 1_555 1_555
H2_6 C7_6 1_555 1_555
O18_4 Ho6_2 1_555 1_555
O19_4 Ho6_2 1_555 1_555
O8_6 Ho6_2 1_555 1_555
Ho5_2 O2_6 1_555 1_555
O2_6 C1_6 1_555 1_555
O21_3 C3_6 1_555 1_555
O6_6 Ho5_2 1_555 1_555
C3_6 O6_6 1_555 1_555
H1_6 C3_6 1_555 1_555
O7_6 Ho5_2 1_555 1_555
O17_4 Ho5_2 1_555 1_555
O20_4 Ho5_2 1_555 1_555
O17_4 C2_3 1_555 1_555
C2_3 O19 1_555 1_555
O20_4 C5_3 1_555 1_555
C5_3 C2_3 1_555 1_555
O18_4 C6_3 1_555 1_555
C6_3 O20 1_555 1_555
O19_4 C8_3 1_555 1_555
C8_3 C6_3 1_555 1_555
O18 C5_3 1_555 1_555
O17 C8_3 1_555 1_555
O18_3 C6_4 1_555 1_555
C6_4 O20_2 1_555 1_555
O19_3 C8_4 1_555 1_555
C8_4 C6_4 1_555 1_555
O17_2 C8_4 1_555 1_555
O17_3 C2_4 1_555 1_555
C2_4 O19_2 1_555 1_555
O20_3 C5_4 1_555 1_555
C5_4 C2_4 1_555 1_555
O18_2 C5_4 1_555 1_555

#END
