
###############################################################################
#
# This file contains modified crystal structure data generated from the
# MOF subset of the Cambridge Structural Database (CSD) v543 
# hosted by the Cambridge Crystallographic Data Centre (CCDC).
#
# This work is licensed under the Creative Commons
# Attribution-NonCommercial-ShareAlike 4.0 International License.
# To view a copy of this license, visit
# http://creativecommons.org/licenses/by-nc-sa/4.0/
# or send a letter to
# Creative Commons, PO Box 1866, Mountain View, CA 94042, USA.
#
# CIF created using the CSD Python API on 29 September 2022
# The structure has been converted into the P1 space group
# The structure has a 3D framework
# The original CSD entry OCUGEZ is in the triclinic crystal system
# The framework has been calculated to contain at least 10.0% void space
# The void calculation uses a probe of radius 1.32A, grid spacing 0.4
# H atom positions have been added when not included in the experimental data
# Generated hydrogen atom positions removed from atoms on special positions
#
###############################################################################

data_OCUGEZ
_chemical_formula_moiety         '(C18 H40 Nd2 O14)n'
_symmetry_cell_setting           triclinic
_symmetry_space_group_name_H-M   'P 1'
_symmetry_Int_Tables_number      1
_space_group_name_Hall           'P 1'
loop_
_symmetry_equiv_pos_site_id
_symmetry_equiv_pos_as_xyz
1 x,y,z
_cell_length_a                   8.6266(17)
_cell_length_b                   9.919(2)
_cell_length_c                   11.694(2)
_cell_angle_alpha                74.70(3)
_cell_angle_beta                 69.75(3)
_cell_angle_gamma                85.92(3)
_cell_volume                     905.278
loop_
_atom_site_label
_atom_site_type_symbol
_atom_site_fract_x
_atom_site_fract_y
_atom_site_fract_z
_atom_site_U_iso_or_equiv
_atom_site_thermal_displace_type
O4 O 0.0764(2) 0.3933(2) 0.24590(17) 0.0203 Uani
Nd4 Nd 0.245535(12) 0.477593(11) 0.011840(10) 0.0114 Uani
O13 O 0.0770(2) 0.5441(2) 0.87283(17) 0.0179 Uani
O19 O 0.3629(2) 0.2538(2) 0.0975(2) 0.0227 Uani
O21 O 0.1410(2) 0.2197(2) 0.0577(2) 0.0266 Uani
C16 C 0.2607(3) 0.1722(3) 0.0924(3) 0.0201 Uani
C17 C 0.2870(4) 0.0171(3) 0.1263(4) 0.0337 Uani
H24 H 0.5343 0.0261 0.1020 0.0500 Uiso
H9 H 0.7499 0.0175 0.7826 0.0400 Uiso
H10 H 0.7798 0.0291 0.9046 0.0400 Uiso
C9 C 0.5325(4) 0.0205(3) 0.9286(3) 0.0334 Uani
H11 H 0.5215 0.1205 0.8990 0.0500 Uiso
O7 O 0.6286(2) 0.2990(2) 0.1522(2) 0.0257 Uani
O9 O 0.4310(2) 0.5353(2) 0.11038(17) 0.0182 Uani
O10 O 0.5998(2) 0.6156(2) 0.18011(17) 0.0194 Uani
O12 O 0.9230(2) 0.4559(2) 0.12717(17) 0.0179 Uani
O24 O 0.1260(3) 0.6956(2) 0.0874(2) 0.0276 Uani
C10 C 0.4550(3) 0.5846(3) 0.1926(2) 0.0141 Uani
C11 C 0.3085(3) 0.6039(4) 0.3026(2) 0.0244 Uani
H13 H 0.2320 0.5257 0.3282 0.0290 Uiso
H14 H 0.2529 0.6879 0.2744 0.0290 Uiso
C12 C 0.3455(3) 0.6154(4) 0.4168(3) 0.0274 Uani
H15 H 0.4054 0.7025 0.3968 0.0330 Uiso
H16 H 0.4153 0.5391 0.4388 0.0330 Uiso
C13 C 0.1878(3) 0.6107(4) 0.5286(2) 0.0254 Uani
H17 H 0.1222 0.6908 0.5076 0.0310 Uiso
H18 H 0.1243 0.5272 0.5433 0.0310 Uiso
C14 C 0.2166(3) 0.6111(3) 0.6488(2) 0.0230 Uani
H19 H 0.2949 0.5391 0.6631 0.0340 Uiso
H20 H 0.2669 0.7003 0.6373 0.0340 Uiso
C15 C 0.0647(3) 0.5874(3) 0.7642(2) 0.0141 Uani
H21 H 0.2501 0.9825 0.2174 0.0400 Uiso
H22 H 0.2202 0.9709 0.0954 0.0400 Uiso
C18 C 0.4675(4) 0.9795(3) 0.0714(3) 0.0334 Uani
H23 H 0.4785 0.8795 0.1010 0.0500 Uiso
Nd1 Nd 0.754465(12) 0.522407(11) 0.988160(10) 0.0114 Uani
O1 O 0.5690(2) 0.4647(2) 0.88962(17) 0.0182 Uani
O2 O 0.4002(2) 0.3844(2) 0.81989(17) 0.0194 Uani
O5 O 0.6371(2) 0.7462(2) 0.9025(2) 0.0227 Uani
O6 O 0.8590(2) 0.7803(2) 0.9423(2) 0.0266 Uani
O8 O 0.8740(3) 0.3044(2) 0.9126(2) 0.0276 Uani
C1 C 0.5450(3) 0.4154(3) 0.8074(2) 0.0141 Uani
C2 C 0.6915(3) 0.3961(4) 0.6974(2) 0.0244 Uani
H1 H 0.7680 0.4743 0.6718 0.0290 Uiso
H2 H 0.7471 0.3121 0.7256 0.0290 Uiso
C3 C 0.6545(3) 0.3846(4) 0.5832(3) 0.0274 Uani
H3 H 0.5946 0.2975 0.6032 0.0330 Uiso
H4 H 0.5847 0.4609 0.5612 0.0330 Uiso
C4 C 0.8122(3) 0.3893(4) 0.4714(2) 0.0254 Uani
H5 H 0.8778 0.3092 0.4924 0.0310 Uiso
H6 H 0.8757 0.4728 0.4567 0.0310 Uiso
C5 C 0.7834(3) 0.3889(3) 0.3512(2) 0.0230 Uani
H7 H 0.7051 0.4609 0.3369 0.0340 Uiso
H8 H 0.7331 0.2997 0.3627 0.0340 Uiso
C6 C 0.9353(3) 0.4126(3) 0.2358(2) 0.0141 Uani
C7 C 0.7393(3) 0.8278(3) 0.9076(3) 0.0201 Uani
C8 C 0.7130(4) 0.9829(3) 0.8737(4) 0.0337 Uani
H12 H 0.4657 0.9739 0.8980 0.0500 Uiso
O17 O 0.9236(2) 0.6067(2) 0.75410(17) 0.0203 Uani
O23 O 0.3714(2) 0.7010(2) 0.8478(2) 0.0257 Uani
loop_
_atom_site_aniso_label
_atom_site_aniso_U_11
_atom_site_aniso_U_22
_atom_site_aniso_U_33
_atom_site_aniso_U_23
_atom_site_aniso_U_13
_atom_site_aniso_U_12
O4 0.0139 0.0327 0.0155 -0.0056 -0.0071 0.0025
Nd4 0.00948 0.01646 0.00933 -0.00493 -0.0033 0.00113
O13 0.014 0.0308 0.0087 -0.0039 -0.0045 0.0014
O19 0.0193 0.0189 0.0316 -0.0055 -0.0116 0.0005
O21 0.0211 0.0274 0.036 -0.011 -0.0133 -0.0003
C16 0.0178 0.0176 0.0224 -0.0068 -0.0025 0.0004
C17 0.0287 0.018 0.0461 -0.007 -0.0038 0.0022
C9 0.0352 0.0224 0.0403 -0.0078 -0.0126 0.0141
O7 0.0218 0.0254 0.029 -0.0014 -0.0116 -0.0001
O9 0.0161 0.028 0.0149 -0.0123 -0.0058 0.0015
O10 0.0136 0.0317 0.0165 -0.012 -0.0054 0.0009
O12 0.014 0.0308 0.0087 -0.0039 -0.0045 0.0014
O24 0.0294 0.0261 0.0281 -0.0105 -0.0092 0.0054
C10 0.0131 0.0186 0.0108 -0.0048 -0.0039 0.0023
C11 0.0117 0.0494 0.0141 -0.0171 -0.0002 0.0014
C12 0.0174 0.05 0.0145 -0.0136 -0.0011 0.0002
C13 0.0174 0.0469 0.0135 -0.0129 -0.0029 -0.0011
C14 0.0127 0.0454 0.011 -0.0099 -0.0022 0
C15 0.0132 0.0186 0.0095 -0.0036 -0.0027 0.0004
C18 0.0352 0.0224 0.0403 -0.0078 -0.0126 0.0141
Nd1 0.00948 0.01646 0.00933 -0.00493 -0.0033 0.00113
O1 0.0161 0.028 0.0149 -0.0123 -0.0058 0.0015
O2 0.0136 0.0317 0.0165 -0.012 -0.0054 0.0009
O5 0.0193 0.0189 0.0316 -0.0055 -0.0116 0.0005
O6 0.0211 0.0274 0.036 -0.011 -0.0133 -0.0003
O8 0.0294 0.0261 0.0281 -0.0105 -0.0092 0.0054
C1 0.0131 0.0186 0.0108 -0.0048 -0.0039 0.0023
C2 0.0117 0.0494 0.0141 -0.0171 -0.0002 0.0014
C3 0.0174 0.05 0.0145 -0.0136 -0.0011 0.0002
C4 0.0174 0.0469 0.0135 -0.0129 -0.0029 -0.0011
C5 0.0127 0.0454 0.011 -0.0099 -0.0022 0
C6 0.0132 0.0186 0.0095 -0.0036 -0.0027 0.0004
C7 0.0178 0.0176 0.0224 -0.0068 -0.0025 0.0004
C8 0.0287 0.018 0.0461 -0.007 -0.0038 0.0022
O17 0.0139 0.0327 0.0155 -0.0056 -0.0071 0.0025
O23 0.0218 0.0254 0.029 -0.0014 -0.0116 -0.0001
loop_
_geom_bond_atom_site_label_1
_geom_bond_atom_site_label_2
_geom_bond_site_symmetry_1
_geom_bond_site_symmetry_2
O4 Nd4 1_555 1_555
Nd4 O19 1_555 1_555
O19 C16 1_555 1_555
O21 Nd4 1_555 1_555
C16 O21 1_555 1_555
C17 C16 1_555 1_555
H11 C9 1_555 1_555
O13 C15 1_555 1_555
O24 Nd4 1_555 1_555
C10 O9 1_555 1_555
C11 C10 1_555 1_555
H13 C11 1_555 1_555
H14 C11 1_555 1_555
C12 C11 1_555 1_555
H15 C12 1_555 1_555
H16 C12 1_555 1_555
C13 C12 1_555 1_555
H17 C13 1_555 1_555
H18 C13 1_555 1_555
C14 C13 1_555 1_555
H19 C14 1_555 1_555
H20 C14 1_555 1_555
H23 C18 1_555 1_555
Nd4 O9 1_555 1_555
O10 C10 1_555 1_555
C14 C15 1_555 1_555
Nd1 O1 1_555 1_555
O1 C1 1_555 1_555
O2 C1 1_555 1_555
O12 C6 1_555 1_555
O5 Nd1 1_555 1_555
O6 Nd1 1_555 1_555
O8 Nd1 1_555 1_555
C1 C2 1_555 1_555
C2 H1 1_555 1_555
H2 C2 1_555 1_555
C3 C2 1_555 1_555
H3 C3 1_555 1_555
H4 C3 1_555 1_555
C4 C3 1_555 1_555
H5 C4 1_555 1_555
H6 C4 1_555 1_555
C5 C4 1_555 1_555
H7 C5 1_555 1_555
H8 C5 1_555 1_555
C6 C5 1_555 1_555
C7 O5 1_555 1_555
C8 C7 1_555 1_555
O17 Nd1 1_555 1_555
O6 C7 1_555 1_555

#END
