
###############################################################################
#
# This file contains modified crystal structure data generated from the
# MOF subset of the Cambridge Structural Database (CSD) v543 
# hosted by the Cambridge Crystallographic Data Centre (CCDC).
#
# This work is licensed under the Creative Commons
# Attribution-NonCommercial-ShareAlike 4.0 International License.
# To view a copy of this license, visit
# http://creativecommons.org/licenses/by-nc-sa/4.0/
# or send a letter to
# Creative Commons, PO Box 1866, Mountain View, CA 94042, USA.
#
# CIF created using the CSD Python API on 29 September 2022
# The structure has been converted into the P1 space group
# The structure has a 3D framework
# The original CSD entry OCURIO is in the monoclinic crystal system
# The framework has been calculated to contain at least 10.0% void space
# The void calculation uses a probe of radius 1.32A, grid spacing 0.4
# The framework is charged, counterions have been retained in the structure
# H atom positions have been added when not included in the experimental data
# Generated hydrogen atom positions removed from atoms on special positions
#
###############################################################################

data_OCURIO
_chemical_formula_moiety         '(C24 H72 O68 P16 V16 8-)n'
_symmetry_cell_setting           triclinic
_symmetry_space_group_name_H-M   'P 1'
_symmetry_Int_Tables_number      1
_space_group_name_Hall           'P 1'
loop_
_symmetry_equiv_pos_site_id
_symmetry_equiv_pos_as_xyz
1 x,y,z
_cell_length_a                   15.2345(10)
_cell_length_b                   10.1817(6)
_cell_length_c                   18.6968(12)
_cell_angle_alpha                90
_cell_angle_beta                 103.5240(10)
_cell_angle_gamma                90
_cell_volume                     2819.7
loop_
_atom_site_label
_atom_site_type_symbol
_atom_site_fract_x
_atom_site_fract_y
_atom_site_fract_z
V8 V 0.33807(4) 0.38449(5) 0.41610(3)
V12 V 0.16193(4) 0.11551(5) 0.58390(3)
P4 P 0.21446(7) 0.11826(8) 0.42353(5)
O17 O 0.29837(18) 0.2009(2) 0.42522(14)
O20 O 0.2952(3) 0.3551(3) 0.30972(15)
O21 O 0.44470(19) 0.3646(3) 0.44064(17)
O24 O 0.32541(19) 0.5735(2) 0.39463(13)
O25 O 0.21048(19) 0.0680(3) 0.49964(13)
O27 O 0.28952(19) 0.4320(3) 0.50036(13)
C5 C 0.0273(3) 0.1431(3) 0.3723(2)
H10 H 0.0231 0.0864 0.3286
H11 H 0.0245 0.0861 0.4146
C6 C 0.1174(3) 0.2173(3) 0.3886(2)
H12 H 0.1151 0.2876 0.4247
H13 H 0.1245 0.2601 0.3427
V6 V 0.24800(8) 0.95280(8) 0.28282(4)
O14 O 0.21365(19) 0.9967(2) 0.37523(13)
O1 O 0.6543(2) 0.0084(3) 0.2165(2)
V3 V 0.74800(8) 0.45280(8) 0.28282(4)
O10 O 0.8457(2) 0.5084(3) 0.2835(2)
P3 P 0.83829(6) 0.16724(8) 0.33410(5)
O11 O 0.76873(18) 0.2773(2) 0.32887(14)
O12 O 0.8302(2) 0.0982(2) 0.26029(13)
O13 O 0.6698(2) 0.5982(2) 0.23971(13)
O16 O 0.71365(19) 0.4967(2) 0.37523(13)
O19 O 0.7048(3) 0.3551(3) 0.19028(15)
O22 O 0.82541(19) 0.0735(2) 0.39463(13)
O23 O 0.17459(19) 0.0735(2) 0.10537(13)
C4 C 0.9479(3) 0.2391(4) 0.3581(2)
H8 H 0.9542 0.2992 0.3180
H9 H 0.9523 0.2929 0.4029
V1 V 0.75200(8) 0.95280(8) 0.21718(4)
V2 V 0.16193(4) 0.88449(5) 0.08390(3)
P1 P 0.66171(6) 0.66724(8) 0.16590(5)
P2 P 0.28554(7) 0.61826(8) 0.07647(5)
O2 O 0.73127(18) 0.7773(2) 0.17113(14)
O4 O 0.28635(19) 0.4967(2) 0.12477(13)
O5 O 0.20163(18) 0.7009(2) 0.07478(14)
O6 O 0.7952(3) 0.8551(3) 0.30972(15)
O7 O 0.05530(19) 0.8646(3) 0.05936(17)
O8 O 0.67459(19) 0.5735(2) 0.10537(13)
O9 O 0.28952(19) 0.5680(3) 0.00036(13)
C1 C 0.5521(3) 0.7391(4) 0.1419(2)
H1 H 0.5458 0.7992 0.1820
H2 H 0.5477 0.7929 0.0971
C2 C 0.4727(3) 0.6431(3) 0.1277(2)
H3 H 0.4769 0.5864 0.1714
H4 H 0.4755 0.5861 0.0854
C3 C 0.3826(3) 0.7173(3) 0.1114(2)
H5 H 0.3849 0.7876 0.0753
H6 H 0.3755 0.7601 0.1573
V5 V 0.25200(8) 0.45280(8) 0.21718(4)
V9 V 0.83807(4) 0.88449(5) 0.41610(3)
V10 V 0.66193(4) 0.38449(5) 0.08390(3)
O15 O 0.78635(19) 0.9967(2) 0.12477(13)
O18 O 0.2048(3) 0.8551(3) 0.19028(15)
V11 V 0.33807(4) 0.61551(5) 0.91610(3)
O26 O 0.21048(19) 0.9320(3) 0.99964(13)
O10_2 O 0.3457(2) 0.0084(3) 0.2835(2)
O13_2 O 0.1698(2) 0.0982(2) 0.23971(13)
O1_2 O 0.1543(2) 0.5084(3) 0.2165(2)
P1_2 P 0.16171(6) 0.16724(8) 0.16590(5)
O2_2 O 0.23127(18) 0.2773(2) 0.17113(14)
C1_2 C 0.0521(3) 0.2391(4) 0.1419(2)
H1_2 H 0.0458 0.2992 0.1820
H2_2 H 0.0477 0.2929 0.0971
V12_2 V 0.66193(4) 0.61551(5) 0.58390(3)
P3_2 P 0.33829(6) 0.66724(8) 0.33410(5)
P4_2 P 0.71446(7) 0.61826(8) 0.42353(5)
O11_2 O 0.26873(18) 0.7773(2) 0.32887(14)
O12_2 O 0.3302(2) 0.5982(2) 0.26029(13)
O17_2 O 0.79837(18) 0.7009(2) 0.42522(14)
O21_2 O 0.94470(19) 0.8646(3) 0.44064(17)
O25_2 O 0.71048(19) 0.5680(3) 0.49964(13)
O27_2 O 0.78952(19) 0.9320(3) 0.50036(13)
C4_2 C 0.4479(3) 0.7391(4) 0.3581(2)
H8_2 H 0.4542 0.7992 0.3180
H9_2 H 0.4523 0.7929 0.4029
C5_2 C 0.5273(3) 0.6431(3) 0.3723(2)
H10_2 H 0.5231 0.5864 0.3286
H11_2 H 0.5245 0.5861 0.4146
C6_2 C 0.6174(3) 0.7173(3) 0.3886(2)
H12_2 H 0.6151 0.7876 0.4247
H13_2 H 0.6245 0.7601 0.3427
P2_2 P 0.78554(7) 0.11826(8) 0.07647(5)
O5_2 O 0.70163(18) 0.2009(2) 0.07478(14)
O7_2 O 0.55530(19) 0.3646(3) 0.05936(17)
O9_2 O 0.78952(19) 0.0680(3) 0.00036(13)
C2_2 C 0.9727(3) 0.1431(3) 0.1277(2)
H3_2 H 0.9769 0.0864 0.1714
H4_2 H 0.9755 0.0861 0.0854
C3_2 C 0.8826(3) 0.2173(3) 0.1114(2)
H5_2 H 0.8849 0.2876 0.0753
H6_2 H 0.8755 0.2601 0.1573
V11_2 V 0.83807(4) 0.11551(5) 0.91610(3)
O26_2 O 0.71048(19) 0.4320(3) 0.99964(13)
V1_2 V 0.24800(8) 0.04720(8) 0.78282(4)
P1_3 P 0.33829(6) 0.33276(8) 0.83410(5)
P2_3 P 0.71446(7) 0.38174(8) 0.92353(5)
O2_3 O 0.26873(18) 0.2227(2) 0.82887(14)
O3 O 0.3302(2) 0.4018(2) 0.76029(13)
O4_2 O 0.71365(19) 0.5033(2) 0.87523(13)
O5_3 O 0.79837(18) 0.2991(2) 0.92522(14)
O6_2 O 0.2048(3) 0.1449(3) 0.69028(15)
O7_3 O 0.94470(19) 0.1354(3) 0.94064(17)
O8_2 O 0.32541(19) 0.4265(2) 0.89463(13)
C1_3 C 0.4479(3) 0.2609(4) 0.8581(2)
H1_3 H 0.4542 0.2008 0.8180
H2_3 H 0.4523 0.2071 0.9029
C2_3 C 0.5273(3) 0.3569(3) 0.8723(2)
H3_3 H 0.5231 0.4136 0.8286
H4_3 H 0.5245 0.4139 0.9146
C3_3 C 0.6174(3) 0.2827(3) 0.8886(2)
H5_3 H 0.6151 0.2124 0.9247
H6_3 H 0.6245 0.2399 0.8427
V4 V 0.25200(8) 0.54720(8) 0.71718(4)
V5_2 V 0.74800(8) 0.54720(8) 0.78282(4)
V7 V 0.75200(8) 0.04720(8) 0.71718(4)
O15_2 O 0.21365(19) 0.0033(2) 0.87523(13)
O18_2 O 0.7952(3) 0.1449(3) 0.80972(15)
O1_3 O 0.3457(2) 0.9916(3) 0.7835(2)
O10_3 O 0.1543(2) 0.4916(3) 0.7165(2)
P3_3 P 0.16171(6) 0.83276(8) 0.66590(5)
O11_3 O 0.23127(18) 0.7227(2) 0.67113(14)
O12_3 O 0.1698(2) 0.9018(2) 0.73971(13)
O16_2 O 0.28635(19) 0.5033(2) 0.62477(13)
O19_2 O 0.2952(3) 0.6449(3) 0.80972(15)
O22_2 O 0.17459(19) 0.9265(2) 0.60537(13)
O23_2 O 0.82541(19) 0.9265(2) 0.89463(13)
C4_3 C 0.0521(3) 0.7609(4) 0.6419(2)
H8_3 H 0.0458 0.7008 0.6820
H9_3 H 0.0477 0.7071 0.5971
O14_2 O 0.78635(19) 0.0033(2) 0.62477(13)
P4_3 P 0.78554(7) 0.88174(8) 0.57647(5)
O17_3 O 0.70163(18) 0.7991(2) 0.57478(14)
O20_2 O 0.7048(3) 0.6449(3) 0.69028(15)
O21_3 O 0.55530(19) 0.6354(3) 0.55936(17)
O24_2 O 0.67459(19) 0.4265(2) 0.60537(13)
C5_3 C 0.9727(3) 0.8569(3) 0.6277(2)
H10_3 H 0.9769 0.9136 0.6714
H11_3 H 0.9755 0.9139 0.5854
C6_3 C 0.8826(3) 0.7827(3) 0.6114(2)
H12_3 H 0.8849 0.7124 0.5753
H13_3 H 0.8755 0.7399 0.6573
P2_4 P 0.21446(7) 0.88174(8) 0.92353(5)
O5_4 O 0.29837(18) 0.7991(2) 0.92522(14)
O7_4 O 0.44470(19) 0.6354(3) 0.94064(17)
C2_4 C 0.0273(3) 0.8569(3) 0.8723(2)
H3_4 H 0.0231 0.9136 0.8286
H4_4 H 0.0245 0.9139 0.9146
C3_4 C 0.1174(3) 0.7827(3) 0.8886(2)
H5_4 H 0.1151 0.7124 0.9247
H6_4 H 0.1245 0.7399 0.8427
O1_4 O 0.8457(2) 0.4916(3) 0.7835(2)
P1_4 P 0.83829(6) 0.83276(8) 0.83410(5)
O2_4 O 0.76873(18) 0.7227(2) 0.82887(14)
O3_2 O 0.8302(2) 0.9018(2) 0.76029(13)
C1_4 C 0.9479(3) 0.7609(4) 0.8581(2)
H1_4 H 0.9542 0.7008 0.8180
H2_4 H 0.9523 0.7071 0.9029
P3_4 P 0.66171(6) 0.33276(8) 0.66590(5)
P4_4 P 0.28554(7) 0.38174(8) 0.57647(5)
O11_4 O 0.73127(18) 0.2227(2) 0.67113(14)
O12_4 O 0.6698(2) 0.4018(2) 0.73971(13)
O17_4 O 0.20163(18) 0.2991(2) 0.57478(14)
O21_4 O 0.05530(19) 0.1354(3) 0.55936(17)
C4_4 C 0.5521(3) 0.2609(4) 0.6419(2)
H8_4 H 0.5458 0.2008 0.6820
H9_4 H 0.5477 0.2071 0.5971
C5_4 C 0.4727(3) 0.3569(3) 0.6277(2)
H10_4 H 0.4769 0.4136 0.6714
H11_4 H 0.4755 0.4139 0.5854
C6_4 C 0.3826(3) 0.2827(3) 0.6114(2)
H12_4 H 0.3849 0.2124 0.5753
H13_4 H 0.3755 0.2399 0.6573
O10_4 O 0.6543(2) 0.9916(3) 0.7165(2)
loop_
_geom_bond_atom_site_label_1
_geom_bond_atom_site_label_2
_geom_bond_site_symmetry_1
_geom_bond_site_symmetry_2
V8 O17 1_555 1_555
V12 O25 1_555 1_555
O17 P4 1_555 1_555
O20 V8 1_555 1_555
O21 V8 1_555 1_555
O24 V8 1_555 1_555
O25 P4 1_555 1_555
O27 V8 1_555 1_555
H10 C5 1_555 1_555
H11 C5 1_555 1_555
C6 P4 1_555 1_555
H12 C6 1_555 1_555
H13 C6 1_555 1_555
C5 C6 1_555 1_555
V6 O14 1_555 1_555
V3 O10 1_555 1_555
P3 O11 1_555 1_555
O11 V3 1_555 1_555
O13 V3 1_555 1_555
O16 V3 1_555 1_555
O19 V3 1_555 1_555
C4 P3 1_555 1_555
H8 C4 1_555 1_555
H9 C4 1_555 1_555
P3 O12 1_555 1_555
P3 O22 1_555 1_555
V2 O5 1_555 1_555
P1 O2 1_555 1_555
P2 O4 1_555 1_555
O2 V1 1_555 1_555
O13 P1 1_555 1_555
O4 V5 1_555 1_555
O5 P2 1_555 1_555
O6 V1 1_555 1_555
O7 V2 1_555 1_555
O8 P1 1_555 1_555
O9 P2 1_555 1_555
C1 P1 1_555 1_555
H1 C1 1_555 1_555
H2 C1 1_555 1_555
C2 C1 1_555 1_555
H3 C2 1_555 1_555
H4 C2 1_555 1_555
C3 P2 1_555 1_555
H5 C3 1_555 1_555
H6 C3 1_555 1_555
V6 O18 1_555 1_555
V9 O6 1_555 1_555
V10 O8 1_555 1_555
O15 V1 1_555 1_555
O18 V2 1_555 1_555
C2 C3 1_555 1_555
V5 O1_2 1_555 1_555
P1_2 O2_2 1_555 1_555
O2_2 V5 1_555 1_555
O13_2 P1_2 1_555 1_555
O20 V5 1_555 1_555
O23 P1_2 1_555 1_555
C1_2 P1_2 1_555 1_555
H1_2 C1_2 1_555 1_555
H2_2 C1_2 1_555 1_555
V9 O17_2 1_555 1_555
V12_2 O25_2 1_555 1_555
P3_2 O11_2 1_555 1_555
P4_2 O16 1_555 1_555
O11_2 V6 1_555 1_555
O12_2 V5 1_555 1_555
O17_2 P4_2 1_555 1_555
O21_2 V9 1_555 1_555
O25_2 P4_2 1_555 1_555
O27_2 V9 1_555 1_555
C4_2 P3_2 1_555 1_555
H8_2 C4_2 1_555 1_555
H9_2 C4_2 1_555 1_555
C5_2 C4_2 1_555 1_555
H10_2 C5_2 1_555 1_555
H11_2 C5_2 1_555 1_555
C6_2 P4_2 1_555 1_555
H12_2 C6_2 1_555 1_555
H13_2 C6_2 1_555 1_555
P3_2 O12_2 1_555 1_555
P3_2 O24 1_555 1_555
C5_2 C6_2 1_555 1_555
V10 O5_2 1_555 1_555
O5_2 P2_2 1_555 1_555
O7_2 V10 1_555 1_555
O9_2 P2_2 1_555 1_555
H3_2 C2_2 1_555 1_555
H4_2 C2_2 1_555 1_555
C3_2 P2_2 1_555 1_555
H5_2 C3_2 1_555 1_555
H6_2 C3_2 1_555 1_555
O19 V10 1_555 1_555
C2_2 C3_2 1_555 1_555
V11_2 O5_3 1_555 1_555
P1_3 O2_3 1_555 1_555
P2_3 O4_2 1_555 1_555
O2_3 V1_2 1_555 1_555
O3 P1_3 1_555 1_555
O4_2 V5_2 1_555 1_555
O5_3 P2_3 1_555 1_555
O6_2 V1_2 1_555 1_555
O7_3 V11_2 1_555 1_555
O8_2 P1_3 1_555 1_555
O26_2 P2_3 1_555 1_555
C1_3 P1_3 1_555 1_555
H1_3 C1_3 1_555 1_555
H2_3 C1_3 1_555 1_555
C2_3 C1_3 1_555 1_555
H3_3 C2_3 1_555 1_555
H4_3 C2_3 1_555 1_555
C3_3 P2_3 1_555 1_555
H5_3 C3_3 1_555 1_555
H6_3 C3_3 1_555 1_555
V4 O3 1_555 1_555
V7 O18_2 1_555 1_555
V12 O6_2 1_555 1_555
V11 O8_2 1_555 1_555
O15_2 V1_2 1_555 1_555
O18_2 V11_2 1_555 1_555
C2_3 C3_3 1_555 1_555
V4 O10_3 1_555 1_555
P3_3 O11_3 1_555 1_555
O11_3 V4 1_555 1_555
O16_2 V4 1_555 1_555
O19_2 V4 1_555 1_555
C4_3 P3_3 1_555 1_555
H8_3 C4_3 1_555 1_555
H9_3 C4_3 1_555 1_555
P3_3 O12_3 1_555 1_555
P3_3 O22_2 1_555 1_555
V7 O14_2 1_555 1_555
V12_2 O17_3 1_555 1_555
O17_3 P4_3 1_555 1_555
O20_2 V12_2 1_555 1_555
O21_3 V12_2 1_555 1_555
O24_2 V12_2 1_555 1_555
O27_2 P4_3 1_555 1_555
H10_3 C5_3 1_555 1_555
H11_3 C5_3 1_555 1_555
C6_3 P4_3 1_555 1_555
H12_3 C6_3 1_555 1_555
H13_3 C6_3 1_555 1_555
C5_3 C6_3 1_555 1_555
V11 O5_4 1_555 1_555
O5_4 P2_4 1_555 1_555
O7_4 V11 1_555 1_555
O26 P2_4 1_555 1_555
H3_4 C2_4 1_555 1_555
H4_4 C2_4 1_555 1_555
C3_4 P2_4 1_555 1_555
H5_4 C3_4 1_555 1_555
H6_4 C3_4 1_555 1_555
O19_2 V11 1_555 1_555
C2_4 C3_4 1_555 1_555
V5_2 O1_4 1_555 1_555
P1_4 O2_4 1_555 1_555
O2_4 V5_2 1_555 1_555
O3_2 P1_4 1_555 1_555
O20_2 V5_2 1_555 1_555
O23_2 P1_4 1_555 1_555
C1_4 P1_4 1_555 1_555
H1_4 C1_4 1_555 1_555
H2_4 C1_4 1_555 1_555
V12 O17_4 1_555 1_555
P3_4 O11_4 1_555 1_555
P4_4 O16_2 1_555 1_555
O11_4 V7 1_555 1_555
O12_4 V5_2 1_555 1_555
O17_4 P4_4 1_555 1_555
O21_4 V12 1_555 1_555
O27 P4_4 1_555 1_555
C4_4 P3_4 1_555 1_555
H8_4 C4_4 1_555 1_555
H9_4 C4_4 1_555 1_555
C5_4 C4_4 1_555 1_555
H10_4 C5_4 1_555 1_555
H11_4 C5_4 1_555 1_555
C6_4 P4_4 1_555 1_555
H12_4 C6_4 1_555 1_555
H13_4 C6_4 1_555 1_555
P3_4 O12_4 1_555 1_555
P3_4 O24_2 1_555 1_555
C5_4 C6_4 1_555 1_555

#END
