
###############################################################################
#
# This file contains modified crystal structure data generated from the
# MOF subset of the Cambridge Structural Database (CSD) v543 
# hosted by the Cambridge Crystallographic Data Centre (CCDC).
#
# This work is licensed under the Creative Commons
# Attribution-NonCommercial-ShareAlike 4.0 International License.
# To view a copy of this license, visit
# http://creativecommons.org/licenses/by-nc-sa/4.0/
# or send a letter to
# Creative Commons, PO Box 1866, Mountain View, CA 94042, USA.
#
# CIF created using the CSD Python API on 29 September 2022
# The structure has been converted into the P1 space group
# The structure has a 3D framework
# The original CSD entry OCUVUH is in the triclinic crystal system
# The framework has been calculated to contain at least 10.0% void space
# The void calculation uses a probe of radius 1.32A, grid spacing 0.4
# H atom positions have been added when not included in the experimental data
# Generated hydrogen atom positions removed from atoms on special positions
#
###############################################################################

data_OCUVUH
_chemical_formula_moiety         '(C72 H62 Co5 N12 O14)n'
_symmetry_cell_setting           triclinic
_symmetry_space_group_name_H-M   'P 1'
_symmetry_Int_Tables_number      1
_space_group_name_Hall           'P 1'
loop_
_symmetry_equiv_pos_site_id
_symmetry_equiv_pos_as_xyz
1 x,y,z
_cell_length_a                   9.899(4)
_cell_length_b                   12.646(5)
_cell_length_c                   17.881(7)
_cell_angle_alpha                107.845(8)
_cell_angle_beta                 97.762(8)
_cell_angle_gamma                102.548(8)
_cell_volume                     2030.25
loop_
_atom_site_label
_atom_site_type_symbol
_atom_site_fract_x
_atom_site_fract_y
_atom_site_fract_z
Co6 Co 0.500000 0.000000 0.000000
H58 H 0.175058 0.017026 0.035962
N5 N 0.7198(3) 0.0922(2) 0.02381(18)
C30 C 0.7721(4) 0.2018(3) 0.0645(2)
N6 N 0.9106(3) 0.2401(3) 0.06452(18)
H23 H 0.720055 0.248732 0.090777
C32 C 0.9489(4) 0.1475(4) 0.0205(3)
C34 C 0.9994(4) 0.4278(3) 0.0459(2)
H27 H 0.970760 0.396648 0.148891
O9 O 0.4787(3) 0.1214(2) 0.10576(16)
O17 O 0.3494(4) 0.2160(3) 0.0174(2)
Co6_2 Co 0.500000 0.000000 1.000000
C31 C 0.8303(5) 0.0579(4) 0.9959(3)
C35 C 0.8780(4) 0.4178(3) 0.9929(2)
H28 H 0.794755 0.362599 0.987805
O10 O 0.4579(3) 0.1092(2) 0.93654(15)
C57 C 0.8789(4) 0.4882(3) 0.9478(2)
H47 H 0.796137 0.479478 0.912226
C65 C 0.9990(4) 0.6420(3) 0.8991(2)
H52 H 0.902438 0.644077 0.882635
H57 H 0.962220 0.854100 0.990411
N4 N 0.0646(3) 0.9438(3) 0.19739(18)
C12 C 0.1523(4) 0.8622(3) 0.1831(2)
C16 C 0.1561(4) 0.8019(3) 0.2427(2)
H11 H 0.115219 0.805122 0.129468
H12 H 0.248219 0.903904 0.185311
C22 C 0.2548(4) 0.8463(4) 0.3127(3)
C23 C 0.0632(5) 0.6964(4) 0.2278(2)
H16 H 0.320791 0.917009 0.324372
C39 C 0.2594(4) 0.7893(4) 0.3668(3)
C40 C 0.0664(5) 0.6381(4) 0.2817(3)
C42 C 0.1644(4) 0.6845(3) 0.3518(2)
H32 H 0.328114 0.822207 0.414433
H33 H 0.001150 0.566903 0.269711
C44 C 0.1697(5) 0.6189(4) 0.4094(2)
N8 N 0.0715(3) 0.6360(3) 0.46223(19)
H36 H 0.265202 0.643227 0.441862
H37 H 0.148467 0.537167 0.378718
C47 C 0.1058(4) 0.6900(3) 0.5409(2)
C49 C 0.1117(4) 0.9805(4) 0.8058(3)
H40 H 0.198235 0.726259 0.570447
H42 H 0.201474 0.971161 0.818784
O12 O 0.1117(2) 0.6496(2) 0.73450(14)
C8 C 0.9261(4) 0.9213(4) 0.1641(3)
H6 H 0.867758 0.851421 0.127486
H17 H 0.995538 0.662937 0.179700
C45 C 0.8917(4) 0.9462(3) 0.7545(2)
C48 C 0.9295(5) 0.5946(4) 0.4417(3)
N9 N 0.9984(3) 0.8975(2) 0.75363(18)
H38 H 0.799308 0.908323 0.725434
N10 N 0.9911(3) 0.6863(2) 0.57298(17)
C50 C 0.8791(5) 0.6254(4) 0.5099(2)
H41 H 0.875430 0.552468 0.390072
Co4 Co 0.98581(4) 0.73173(4) 0.69068(3)
H43 H 0.784256 0.607860 0.512973
O11 O 0.8191(2) 0.6379(2) 0.71286(16)
C51 C 0.7074(3) 0.6624(3) 0.6858(2)
O13 O 0.7054(3) 0.7170(2) 0.63969(17)
C52 C 0.5781(3) 0.6235(3) 0.7156(2)
C53 C 0.4683(3) 0.6739(3) 0.70708(19)
C54 C 0.5689(3) 0.5449(3) 0.7552(2)
C55 C 0.3507(3) 0.6440(3) 0.73754(19)
H45 H 0.473954 0.727525 0.680970
C56 C 0.4500(3) 0.5122(3) 0.7850(2)
H46 H 0.643974 0.513023 0.762049
C59 C 0.3403(3) 0.5631(3) 0.7746(2)
C60 C 0.2339(3) 0.7002(3) 0.7285(2)
C61 C 0.4404(3) 0.4299(3) 0.8291(2)
H49 H 0.258775 0.541812 0.793125
O15 O 0.2561(2) 0.7909(2) 0.71253(15)
C63 C 0.5002(4) 0.3385(3) 0.8096(2)
C64 C 0.3721(4) 0.4428(3) 0.8922(2)
H50 H 0.548089 0.328017 0.767778
C66 C 0.4898(4) 0.2623(3) 0.8514(3)
H51 H 0.332009 0.504106 0.907137
C67 C 0.3618(4) 0.3674(3) 0.9334(2)
C68 C 0.4214(4) 0.2756(3) 0.9131(2)
H54 H 0.530338 0.201220 0.837019
H55 H 0.314420 0.377773 0.975474
C71 C 0.4090(4) 0.1947(3) 0.9599(3)
C33 C 0.0010(4) 0.3580(3) 0.1009(2)
H25 H 0.037780 0.145900 0.009589
H26 H 0.097562 0.355923 0.117365
C36 C 0.1211(4) 0.5118(3) 0.0522(2)
H29 H 0.203863 0.520522 0.087774
C58 C 0.1220(4) 0.5822(3) 0.0071(2)
H48 H 0.205245 0.637401 0.012195
C72 C 0.1697(5) 0.9421(4) 0.0041(3)
Co6_3 Co 0.500000 1.000000 0.000000
Co3 Co 0.01419(4) 0.26827(4) 0.30932(3)
O1 O 0.1809(2) 0.3621(2) 0.28714(16)
N1 N 0.0089(3) 0.3137(2) 0.42702(17)
N2 N 0.0016(3) 0.1025(2) 0.24637(18)
C1 C 0.2926(3) 0.3376(3) 0.3142(2)
C3 C 0.1209(5) 0.3746(4) 0.4901(2)
C4 C 0.1083(4) 0.0538(3) 0.2455(2)
O3 O 0.2946(3) 0.2830(2) 0.36031(17)
C6 C 0.4219(3) 0.3765(3) 0.2844(2)
H2 H 0.215744 0.392140 0.487027
C7 C 0.0705(5) 0.4054(4) 0.5583(3)
H3 H 0.200692 0.091677 0.274566
C9 C 0.5317(3) 0.3261(3) 0.29292(19)
C10 C 0.4311(3) 0.4551(3) 0.2448(2)
H5 H 0.124570 0.447532 0.609928
C13 C 0.6493(3) 0.3560(3) 0.26246(19)
H7 H 0.526046 0.272475 0.319030
C14 C 0.5500(3) 0.4878(3) 0.2150(2)
H8 H 0.356026 0.486977 0.237951
C17 C 0.6597(3) 0.4369(3) 0.2254(2)
C18 C 0.7661(3) 0.2998(3) 0.2715(2)
C19 C 0.5596(3) 0.5701(3) 0.1709(2)
H13 H 0.741225 0.458188 0.206875
O4 O 0.7439(2) 0.2091(2) 0.28747(15)
C24 C 0.4998(4) 0.6615(3) 0.1904(2)
C25 C 0.6279(4) 0.5572(3) 0.1078(2)
H18 H 0.451911 0.671983 0.232222
C26 C 0.5102(4) 0.7377(3) 0.1486(3)
H19 H 0.667991 0.495894 0.092863
C27 C 0.6382(4) 0.6326(3) 0.0666(2)
C28 C 0.5786(4) 0.7244(3) 0.0869(2)
H20 H 0.469662 0.798780 0.162981
H21 H 0.685580 0.622227 0.024526
C29 C 0.5910(4) 0.8053(3) 0.0401(3)
O5 O 0.5421(3) 0.8908(2) 0.06346(15)
O8 O 0.8883(2) 0.3504(2) 0.26550(14)
H30 H 0.004462 0.337063 0.820300
C46 C 0.0739(4) 0.0787(4) 0.8359(3)
H39 H 0.132242 0.148579 0.872514
C2 C 0.8942(4) 0.3100(3) 0.4591(2)
C5 C 0.8883(4) 0.0195(4) 0.1942(3)
N3 N 0.9285(3) 0.3640(3) 0.53777(19)
H1 H 0.801765 0.273741 0.429553
H4 H 0.798526 0.028839 0.181216
C11 C 0.8303(5) 0.3811(4) 0.5906(2)
C15 C 0.8356(4) 0.3155(3) 0.6482(2)
H9 H 0.734798 0.356773 0.558138
H10 H 0.851533 0.462833 0.621282
C20 C 0.9336(5) 0.3619(4) 0.7183(3)
C21 C 0.7406(4) 0.2107(4) 0.6332(3)
H14 H 0.998850 0.433097 0.730289
H15 H 0.671886 0.177793 0.585567
C37 C 0.9368(5) 0.3036(4) 0.7722(2)
C38 C 0.7452(4) 0.1537(4) 0.6873(3)
C41 C 0.8439(4) 0.1981(3) 0.7573(2)
H31 H 0.679209 0.082991 0.675628
C43 C 0.8477(4) 0.1378(3) 0.8169(2)
N7 N 0.9354(3) 0.0562(3) 0.80261(18)
H34 H 0.884781 0.194878 0.870532
H35 H 0.751781 0.096096 0.814689
C62 C 0.0006(4) 0.5722(3) 0.9541(2)
N12 N 0.0894(3) 0.7599(3) 0.93548(18)
H53 H 0.029240 0.603352 0.851109
C69 C 0.2279(4) 0.7982(3) 0.9355(2)
C70 C 0.0511(4) 0.8525(4) 0.9795(3)
N13 N 0.2802(3) 0.9078(2) 0.97619(18)
H56 H 0.279945 0.751268 0.909223
Co6_4 Co 0.500000 1.000000 1.000000
O6 O 0.6506(4) 0.7840(3) 0.9826(2)
O7 O 0.5213(3) 0.8786(2) 0.89424(16)
H24 H 0.824942 0.982974 0.964038
loop_
_geom_bond_atom_site_label_1
_geom_bond_atom_site_label_2
_geom_bond_site_symmetry_1
_geom_bond_site_symmetry_2
N5 Co6 1_555 1_555
C30 N5 1_555 1_555
N6 C30 1_555 1_555
H23 C30 1_555 1_555
O9 Co6 1_555 1_555
N6 C32 1_555 1_555
H28 C35 1_555 1_555
O10 Co6_2 1_555 1_555
C57 C35 1_555 1_555
H47 C57 1_555 1_555
H52 C65 1_555 1_555
C12 N4 1_555 1_555
C16 C12 1_555 1_555
H11 C12 1_555 1_555
H12 C12 1_555 1_555
C22 C16 1_555 1_555
C23 C16 1_555 1_555
H16 C22 1_555 1_555
C39 C22 1_555 1_555
C40 C23 1_555 1_555
C42 C39 1_555 1_555
H32 C39 1_555 1_555
H33 C40 1_555 1_555
C44 C42 1_555 1_555
N8 C44 1_555 1_555
H36 C44 1_555 1_555
H37 C44 1_555 1_555
C47 N8 1_555 1_555
H40 C47 1_555 1_555
H42 C49 1_555 1_555
C40 C42 1_555 1_555
H6 C8 1_555 1_555
N9 C45 1_555 1_555
H38 C45 1_555 1_555
C50 C48 1_555 1_555
H41 C48 1_555 1_555
Co4 N9 1_555 1_555
H43 C50 1_555 1_555
O11 Co4 1_555 1_555
C51 O11 1_555 1_555
O13 C51 1_555 1_555
C52 C51 1_555 1_555
C53 C52 1_555 1_555
C54 C52 1_555 1_555
C55 C53 1_555 1_555
H45 C53 1_555 1_555
C56 C54 1_555 1_555
H46 C54 1_555 1_555
C59 C55 1_555 1_555
C60 C55 1_555 1_555
C61 C56 1_555 1_555
H49 C59 1_555 1_555
O12 C60 1_555 1_555
O15 C60 1_555 1_555
C63 C61 1_555 1_555
C64 C61 1_555 1_555
H50 C63 1_555 1_555
C66 C63 1_555 1_555
H51 C64 1_555 1_555
C67 C64 1_555 1_555
C68 C66 1_555 1_555
H54 C66 1_555 1_555
H55 C67 1_555 1_555
C71 C68 1_555 1_555
O10 C71 1_555 1_555
N10 C50 1_555 1_555
N10 Co4 1_555 1_555
C56 C59 1_555 1_555
C67 C68 1_555 1_555
H26 C33 1_555 1_555
H29 C36 1_555 1_555
C58 C36 1_555 1_555
H48 C58 1_555 1_555
Co3 O1 1_555 1_555
O1 C1 1_555 1_555
N1 Co3 1_555 1_555
N2 Co3 1_555 1_555
C1 O3 1_555 1_555
C3 N1 1_555 1_555
C4 N2 1_555 1_555
C6 C1 1_555 1_555
H2 C3 1_555 1_555
C7 C3 1_555 1_555
H3 C4 1_555 1_555
C9 C6 1_555 1_555
C10 C6 1_555 1_555
H5 C7 1_555 1_555
C13 C9 1_555 1_555
H7 C9 1_555 1_555
C14 C10 1_555 1_555
H8 C10 1_555 1_555
C17 C13 1_555 1_555
C18 C13 1_555 1_555
C19 C14 1_555 1_555
H13 C17 1_555 1_555
O4 C18 1_555 1_555
C24 C19 1_555 1_555
C25 C19 1_555 1_555
H18 C24 1_555 1_555
C26 C24 1_555 1_555
H19 C25 1_555 1_555
C27 C25 1_555 1_555
C28 C26 1_555 1_555
H20 C26 1_555 1_555
H21 C27 1_555 1_555
C29 C28 1_555 1_555
O5 C29 1_555 1_555
Co6_3 O5 1_555 1_555
O8 C18 1_555 1_555
H39 C46 1_555 1_555
C14 C17 1_555 1_555
C27 C28 1_555 1_555
N3 C2 1_555 1_555
H1 C2 1_555 1_555
H4 C5 1_555 1_555
C11 N3 1_555 1_555
C15 C11 1_555 1_555
H9 C11 1_555 1_555
H10 C11 1_555 1_555
C20 C15 1_555 1_555
C21 C15 1_555 1_555
H14 C20 1_555 1_555
H15 C21 1_555 1_555
C37 C20 1_555 1_555
C38 C21 1_555 1_555
C41 C37 1_555 1_555
H31 C38 1_555 1_555
C43 C41 1_555 1_555
N7 C43 1_555 1_555
H34 C43 1_555 1_555
H35 C43 1_555 1_555
C38 C41 1_555 1_555
C69 N12 1_555 1_555
C70 N12 1_555 1_555
N13 C69 1_555 1_555
H56 C69 1_555 1_555
Co6_4 N13 1_555 1_555
O7 Co6_4 1_555 1_555

#END
