
###############################################################################
#
# This file contains modified crystal structure data generated from the
# MOF subset of the Cambridge Structural Database (CSD) v543 
# hosted by the Cambridge Crystallographic Data Centre (CCDC).
#
# This work is licensed under the Creative Commons
# Attribution-NonCommercial-ShareAlike 4.0 International License.
# To view a copy of this license, visit
# http://creativecommons.org/licenses/by-nc-sa/4.0/
# or send a letter to
# Creative Commons, PO Box 1866, Mountain View, CA 94042, USA.
#
# CIF created using the CSD Python API on 29 September 2022
# The structure has been converted into the P1 space group
# The structure has a 3D framework
# The original CSD entry ODAJAG is in the monoclinic crystal system
# The framework has been calculated to contain at least 10.0% void space
# The void calculation uses a probe of radius 1.32A, grid spacing 0.4
# H atom positions have been added when not included in the experimental data
#
###############################################################################

data_ODAJAG
_chemical_formula_moiety         '(C20 H28 Nd4 O33)n'
_symmetry_cell_setting           triclinic
_symmetry_space_group_name_H-M   'P 1'
_symmetry_Int_Tables_number      1
_space_group_name_Hall           'P 1'
loop_
_symmetry_equiv_pos_site_id
_symmetry_equiv_pos_as_xyz
1 x,y,z
_cell_length_a                   6.1092(2)
_cell_length_b                   7.6866(2)
_cell_length_c                   22.6987(6)
_cell_angle_alpha                90
_cell_angle_beta                 91.6570(10)
_cell_angle_gamma                90
_cell_volume                     1065.46
loop_
_atom_site_label
_atom_site_type_symbol
_atom_site_fract_x
_atom_site_fract_y
_atom_site_fract_z
O6 O 0.1547(8) 0.2044(6) 0.3338(2)
Nd4 Nd 0.45527(5) 0.99680(4) 0.354023(13)
Nd1 Nd 0.54473(5) 0.49680(4) 0.145977(13)
O1 O 0.4849(8) 0.5989(6) 0.2484(2)
O2 O 0.6421(9) 0.7142(6) 0.3296(2)
O3 O 0.7811(7) 0.3592(6) 0.2332(2)
H1 H 0.698(11) 0.277(7) 0.239(3)
O4 O 0.5950(8) 0.3086(6) 0.3583(2)
H2 H 0.577(14) 0.367(9) 0.388(2)
O5 O 0.8512(8) 0.0468(6) 0.3461(2)
O7 O 0.3766(9) 0.3674(7) 0.0528(2)
O9 O 0.8450(9) 0.2955(8) 0.1110(2)
H3 H 0.954(9) 0.351(11) 0.121(3)
H4 H 0.852(13) 0.276(12) 0.0760(12)
C1 C 0.6337(11) 0.6052(8) 0.2889(3)
C2 C 0.8151(10) 0.4629(8) 0.2853(3)
H5 H 0.9569 0.5216 0.2825
C3 C 0.8162(11) 0.3577(8) 0.3438(3)
H6 H 0.8775 0.4309 0.3756
C4 C 0.9533(10) 0.1885(8) 0.3405(3)
C5 C 0.4163(11) 0.4241(8) 0.0012(3)
O10 O 0.5151(8) 0.0989(6) 0.2516(2)
O11 O 0.3579(9) 0.2142(6) 0.1704(2)
O15 O 0.4050(8) 0.8086(6) 0.1417(2)
H9 H 0.423(14) 0.867(9) 0.112(2)
O17 O 0.1488(8) 0.5468(6) 0.1539(2)
O19 O 0.8453(8) 0.7044(6) 0.1662(2)
O23 O 0.6644(9) 0.6311(7) 0.0471(2)
O24 O 0.3356(9) 0.1311(7) 0.4529(2)
C6 C 0.3663(11) 0.1052(8) 0.2111(3)
H12 H 0.0431 0.0216 0.2175
H14 H 0.47761 0.871895 0.175019
O8 O 0.3356(9) 0.3689(7) 0.9529(2)
Nd5 Nd 0.45527(5) 0.50320(4) 0.854023(13)
O21 O 0.6234(9) 0.6326(7) 0.9472(2)
C10 C 0.5837(11) 0.5759(8) 0.9988(3)
O13 O 0.2189(7) 0.8592(6) 0.2668(2)
H7 H 0.302(11) 0.777(7) 0.261(3)
O22 O 0.6234(9) 0.8674(7) 0.4472(2)
O25 O 0.1550(9) 0.7955(8) 0.3890(2)
H10 H 0.046(9) 0.851(11) 0.379(3)
H11 H 0.148(13) 0.776(12) 0.4240(12)
C7 C 0.1849(10) 0.9629(8) 0.2147(3)
C8 C 0.1838(11) 0.8577(8) 0.1562(3)
H13 H 0.1225 0.9309 0.1244
C9 C 0.0467(10) 0.6885(8) 0.1595(3)
Nd5_2 Nd 0.54473(5) 0.00320(4) 0.645977(13)
O21_2 O 0.3766(9) 0.1326(7) 0.5528(2)
C10_2 C 0.4163(11) 0.0759(8) 0.5012(3)
H14_2 H 0.52239 0.371895 0.324981
O8_2 O 0.6644(9) 0.8689(7) 0.5471(2)
C5_2 C 0.5837(11) 0.9241(8) 0.4988(3)
O18 O 0.1547(8) 0.2956(6) 0.8338(2)
O12 O 0.3579(9) 0.2858(6) 0.6704(2)
O13_2 O 0.7811(7) 0.1408(6) 0.7332(2)
H7_2 H 0.698(11) 0.223(7) 0.739(3)
O14 O 0.5950(8) 0.1914(6) 0.8583(2)
H8 H 0.577(14) 0.133(9) 0.888(2)
O16 O 0.8512(8) 0.4532(6) 0.8461(2)
O25_2 O 0.8450(9) 0.2045(8) 0.6110(2)
H10_2 H 0.954(9) 0.149(11) 0.621(3)
H11_2 H 0.852(13) 0.224(12) 0.5760(12)
C7_2 C 0.8151(10) 0.0371(8) 0.7853(3)
C8_2 C 0.8162(11) 0.1423(8) 0.8438(3)
H13_2 H 0.8775 0.0691 0.8756
C9_2 C 0.9533(10) 0.3115(8) 0.8405(3)
O1_2 O 0.5151(8) 0.4011(6) 0.7516(2)
O3_2 O 0.2189(7) 0.6408(6) 0.7668(2)
H1_2 H 0.302(11) 0.723(7) 0.761(3)
O4_2 O 0.4050(8) 0.6914(6) 0.6417(2)
H2_2 H 0.423(14) 0.633(9) 0.612(2)
O5_2 O 0.1488(8) 0.9532(6) 0.6539(2)
O9_2 O 0.1550(9) 0.7045(8) 0.8890(2)
H3_2 H 0.046(9) 0.649(11) 0.879(3)
H4_2 H 0.148(13) 0.724(12) 0.9240(12)
C1_2 C 0.3663(11) 0.3948(8) 0.7111(3)
C2_2 C 0.1849(10) 0.5371(8) 0.7147(3)
H5_2 H 0.0431 0.4784 0.7175
C3_2 C 0.1838(11) 0.6423(8) 0.6562(3)
H6_2 H 0.1225 0.5691 0.6244
C4_2 C 0.0467(10) 0.8115(8) 0.6595(3)
O10_2 O 0.4849(8) 0.9011(6) 0.7484(2)
O11_2 O 0.6421(9) 0.7858(6) 0.8296(2)
O20 O 0.8453(8) 0.7956(6) 0.6662(2)
C6_2 C 0.6337(11) 0.8948(8) 0.7889(3)
H12_2 H 0.9569 0.9784 0.7825
H14_3 H 0.52239 0.128105 0.824981
H14_4 H 0.47761 0.628105 0.675019
loop_
_geom_bond_atom_site_label_1
_geom_bond_atom_site_label_2
_geom_bond_site_symmetry_1
_geom_bond_site_symmetry_2
Nd1 O1 1_555 1_555
O1 C1 1_555 1_555
O2 C1 1_555 1_555
O3 Nd1 1_555 1_555
H1 O3 1_555 1_555
O4 H2 1_555 1_555
O5 C4 1_555 1_555
O7 Nd1 1_555 1_555
O9 Nd1 1_555 1_555
H3 O9 1_555 1_555
H4 O9 1_555 1_555
C1 C2 1_555 1_555
C2 O3 1_555 1_555
H5 C2 1_555 1_555
C3 O4 1_555 1_555
H6 C3 1_555 1_555
C4 C3 1_555 1_555
C5 O7 1_555 1_555
Nd4 O2 1_555 1_555
O11 Nd1 1_555 1_555
O15 Nd1 1_555 1_555
H9 O15 1_555 1_555
O17 Nd1 1_555 1_555
O19 Nd1 1_555 1_555
O23 Nd1 1_555 1_555
C6 O10 1_555 1_555
C2 C3 1_555 1_555
O11 C6 1_555 1_555
O15 H14 1_555 1_555
Nd5 O8 1_555 1_555
O21 Nd5 1_555 1_555
O21 C10 1_555 1_555
O13 Nd4 1_555 1_555
H7 O13 1_555 1_555
O22 Nd4 1_555 1_555
O25 Nd4 1_555 1_555
H10 O25 1_555 1_555
H11 O25 1_555 1_555
C7 O13 1_555 1_555
C8 O15 1_555 1_555
H13 C8 1_555 1_555
C9 O17 1_555 1_555
C7 C8 1_555 1_555
C8 C9 1_555 1_555
O21_2 Nd5_2 1_555 1_555
O21_2 C10_2 1_555 1_555
O24 C10_2 1_555 1_555
O4 H14_2 1_555 1_555
O8_2 C5_2 1_555 1_555
C5_2 O22 1_555 1_555
Nd5 O18 1_555 1_555
Nd5 O14 1_555 1_555
O12 Nd5_2 1_555 1_555
O13_2 Nd5_2 1_555 1_555
H7_2 O13_2 1_555 1_555
O14 H8 1_555 1_555
O16 Nd5 1_555 1_555
O25_2 Nd5_2 1_555 1_555
H10_2 O25_2 1_555 1_555
H11_2 O25_2 1_555 1_555
C7_2 O13_2 1_555 1_555
C8_2 O14 1_555 1_555
H13_2 C8_2 1_555 1_555
C9_2 O16 1_555 1_555
C7_2 C8_2 1_555 1_555
C8_2 C9_2 1_555 1_555
Nd5 O1_2 1_555 1_555
O1_2 C1_2 1_555 1_555
O12 C1_2 1_555 1_555
O3_2 Nd5 1_555 1_555
H1_2 O3_2 1_555 1_555
O4_2 H2_2 1_555 1_555
O5_2 C4_2 1_555 1_555
O9_2 Nd5 1_555 1_555
H3_2 O9_2 1_555 1_555
H4_2 O9_2 1_555 1_555
C1_2 C2_2 1_555 1_555
C2_2 O3_2 1_555 1_555
H5_2 C2_2 1_555 1_555
C3_2 O4_2 1_555 1_555
H6_2 C3_2 1_555 1_555
C4_2 C3_2 1_555 1_555
O11_2 Nd5 1_555 1_555
C6_2 O10_2 1_555 1_555
C2_2 C3_2 1_555 1_555
O11_2 C6_2 1_555 1_555
O14 H14_3 1_555 1_555
O4_2 H14_4 1_555 1_555

#END
