
###############################################################################
#
# This file contains modified crystal structure data generated from the
# MOF subset of the Cambridge Structural Database (CSD) v543 
# hosted by the Cambridge Crystallographic Data Centre (CCDC).
#
# This work is licensed under the Creative Commons
# Attribution-NonCommercial-ShareAlike 4.0 International License.
# To view a copy of this license, visit
# http://creativecommons.org/licenses/by-nc-sa/4.0/
# or send a letter to
# Creative Commons, PO Box 1866, Mountain View, CA 94042, USA.
#
# CIF created using the CSD Python API on 29 September 2022
# The structure has been converted into the P1 space group
# The structure has a 3D framework
# The original CSD entry ODAXEA is in the orthorhombic crystal system
# The framework has been calculated to contain at least 10.0% void space
# The void calculation uses a probe of radius 1.32A, grid spacing 0.4
#
###############################################################################

data_ODAXEA
_chemical_formula_moiety         '(C92 H44 In2 O18)n'
_symmetry_cell_setting           triclinic
_symmetry_space_group_name_H-M   'P 1'
_symmetry_Int_Tables_number      1
_space_group_name_Hall           'P 1'
loop_
_symmetry_equiv_pos_site_id
_symmetry_equiv_pos_as_xyz
1 x,y,z
_cell_length_a                   7.1852(2)
_cell_length_b                   22.1619(7)
_cell_length_c                   16.1168(5)
_cell_angle_alpha                90
_cell_angle_beta                 90
_cell_angle_gamma                90
_cell_volume                     2566.4
loop_
_atom_site_label
_atom_site_type_symbol
_atom_site_fract_x
_atom_site_fract_y
_atom_site_fract_z
O1 O -0.0000 0.7972(2) 0.5000
C1 C -0.0000 0.5322(2) 0.0761(3)
C2 C -0.0000 0.6369(2) 0.2992(3)
C3 C -0.0000 0.6753(2) 0.3743(3)
C4 C -0.0000 0.5672(2) 0.1541(3)
C5 C -0.0000 0.5611(4) 0.0000
H1 H -0.0000 0.6031 0.0000
O3 O 0.1537(4) 0.30996(14) 0.40364(19)
C8 C -0.0000 0.4678(2) 0.0761(3)
C9 C -0.0000 0.3631(2) 0.2992(3)
C10 C -0.0000 0.3247(2) 0.3743(3)
C11 C -0.0000 0.4328(2) 0.1541(3)
C12 C -0.0000 0.4389(4) 0.0000
H4 H -0.0000 0.3969 0.0000
C13 C 0.1598(8) 0.3818(4) 0.2628(5)
H5 H 0.2729 0.3713 0.2868
C14 C 0.1598(12) 0.4161(4) 0.1908(5)
H6 H 0.2726 0.4278 0.1675
O9 O 0.1537(4) 0.69004(14) 0.40364(19)
C33 C 0.1598(8) 0.6182(4) 0.2628(5)
H17 H 0.2729 0.6287 0.2868
C34 C 0.1598(12) 0.5839(4) 0.1908(5)
H18 H 0.2726 0.5722 0.1675
In2 In 0.2500 0.2500 0.5000
O10 O -0.0000 0.2028(2) 0.5000
In6 In 0.2500 0.7500 0.5000
O11 O 0.5000 0.2972(2) 0.5000
O13 O 0.3463(4) 0.19004(14) 0.40364(19)
O15 O 0.1537(4) 0.30996(14) 0.59636(19)
O18 O 0.3463(4) 0.19004(14) 0.59636(19)
C5_2 C -0.0000 0.5611(4) 1.0000
H1_2 H -0.0000 0.6031 1.0000
C12_2 C -0.0000 0.4389(4) 1.0000
H4_2 H -0.0000 0.3969 1.0000
O4 O 0.1537(4) 0.69004(14) 0.59636(19)
C15 C -0.0000 0.5322(2) 0.9239(3)
C16 C -0.0000 0.6369(2) 0.7008(3)
C17 C -0.0000 0.6753(2) 0.6257(3)
C18 C -0.0000 0.5672(2) 0.8459(3)
C19 C 0.1598(8) 0.6182(4) 0.7372(5)
H7 H 0.2729 0.6287 0.7132
C20 C 0.1598(12) 0.5839(4) 0.8092(5)
H8 H 0.2726 0.5722 0.8325
C21 C -0.0000 0.4678(2) 0.9239(3)
C22 C -0.0000 0.3631(2) 0.7008(3)
C23 C -0.0000 0.3247(2) 0.6257(3)
C24 C -0.0000 0.4328(2) 0.8459(3)
C27 C 0.1598(8) 0.3818(4) 0.7372(5)
H11 H 0.2729 0.3713 0.7132
C28 C 0.1598(12) 0.4161(4) 0.8092(5)
H12 H 0.2726 0.4278 0.8325
In1 In 0.7500 0.7500 0.5000
O1_2 O 1.0000 0.7972(2) 0.5000
O2 O 0.8463(4) 0.69004(14) 0.40364(19)
C1_2 C 1.0000 0.5322(2) 0.0761(3)
C2_2 C 1.0000 0.6369(2) 0.2992(3)
C3_2 C 1.0000 0.6753(2) 0.3743(3)
C4_2 C 1.0000 0.5672(2) 0.1541(3)
C5_3 C 1.0000 0.5611(4) 0.0000
H1_3 H 1.0000 0.6031 0.0000
C6 C 0.8402(8) 0.6182(4) 0.2628(5)
H2 H 0.7271 0.6287 0.2868
C7 C 0.8402(12) 0.5839(4) 0.1908(5)
H3 H 0.7274 0.5722 0.1675
C8_2 C 1.0000 0.4678(2) 0.0761(3)
C9_2 C 1.0000 0.3631(2) 0.2992(3)
C10_2 C 1.0000 0.3247(2) 0.3743(3)
C11_2 C 1.0000 0.4328(2) 0.1541(3)
C12_3 C 1.0000 0.4389(4) 0.0000
H4_3 H 1.0000 0.3969 0.0000
O8 O 0.8463(4) 0.30996(14) 0.40364(19)
C31 C 0.8402(8) 0.3818(4) 0.2628(5)
H15 H 0.7271 0.3713 0.2868
C32 C 0.8402(12) 0.4161(4) 0.1908(5)
H16 H 0.7274 0.4278 0.1675
O10_2 O 1.0000 0.2028(2) 0.5000
In8 In 0.7500 0.2500 0.5000
O12 O 0.5000 0.7028(2) 0.5000
O14 O 0.6537(4) 0.80996(14) 0.40364(19)
O16 O 0.8463(4) 0.69004(14) 0.59636(19)
O17 O 0.6537(4) 0.80996(14) 0.59636(19)
C5_4 C 1.0000 0.5611(4) 1.0000
H1_4 H 1.0000 0.6031 1.0000
C12_4 C 1.0000 0.4389(4) 1.0000
H4_4 H 1.0000 0.3969 1.0000
C15_2 C 1.0000 0.5322(2) 0.9239(3)
C16_2 C 1.0000 0.6369(2) 0.7008(3)
C17_2 C 1.0000 0.6753(2) 0.6257(3)
C18_2 C 1.0000 0.5672(2) 0.8459(3)
O5 O 0.8463(4) 0.30996(14) 0.59636(19)
C21_2 C 1.0000 0.4678(2) 0.9239(3)
C22_2 C 1.0000 0.3631(2) 0.7008(3)
C23_2 C 1.0000 0.3247(2) 0.6257(3)
C24_2 C 1.0000 0.4328(2) 0.8459(3)
C25 C 0.8402(8) 0.3818(4) 0.7372(5)
H9 H 0.7271 0.3713 0.7132
C26 C 0.8402(12) 0.4161(4) 0.8092(5)
H10 H 0.7274 0.4278 0.8325
C29 C 0.8402(8) 0.6182(4) 0.7372(5)
H13 H 0.7271 0.6287 0.7132
C30 C 0.8402(12) 0.5839(4) 0.8092(5)
H14 H 0.7274 0.5722 0.8325
O14_2 O 0.3463(4) 0.80996(14) 0.59636(19)
O17_2 O 0.3463(4) 0.80996(14) 0.40364(19)
O13_2 O 0.6537(4) 0.19004(14) 0.59636(19)
O18_2 O 0.6537(4) 0.19004(14) 0.40364(19)
C1_3 C 0.5000 0.0322(2) 0.0761(3)
C2_3 C 0.5000 0.1369(2) 0.2992(3)
C3_3 C 0.5000 0.1753(2) 0.3743(3)
C4_3 C 0.5000 0.0672(2) 0.1541(3)
C5_5 C 0.5000 0.0611(4) 0.0000
H1_5 H 0.5000 0.1031 0.0000
C6_2 C 0.3402(8) 0.1182(4) 0.2628(5)
H2_2 H 0.2271 0.1287 0.2868
C7_2 C 0.3402(12) 0.0839(4) 0.1908(5)
H3_2 H 0.2274 0.0722 0.1675
C33_2 C 0.6598(8) 0.1182(4) 0.2628(5)
H17_2 H 0.7729 0.1287 0.2868
C34_2 C 0.6598(12) 0.0839(4) 0.1908(5)
H18_2 H 0.7726 0.0722 0.1675
C5_6 C 0.5000 0.0611(4) 1.0000
H1_6 H 0.5000 0.1031 1.0000
C15_3 C 0.5000 0.0322(2) 0.9239(3)
C16_3 C 0.5000 0.1369(2) 0.7008(3)
C17_3 C 0.5000 0.1753(2) 0.6257(3)
C18_3 C 0.5000 0.0672(2) 0.8459(3)
C19_2 C 0.6598(8) 0.1182(4) 0.7372(5)
H7_2 H 0.7729 0.1287 0.7132
C20_2 C 0.6598(12) 0.0839(4) 0.8092(5)
H8_2 H 0.7726 0.0722 0.8325
C29_2 C 0.3402(8) 0.1182(4) 0.7372(5)
H13_2 H 0.2271 0.1287 0.7132
C30_2 C 0.3402(12) 0.0839(4) 0.8092(5)
H14_2 H 0.2274 0.0722 0.8325
C8_3 C 0.5000 0.9678(2) 0.0761(3)
C9_3 C 0.5000 0.8631(2) 0.2992(3)
C10_3 C 0.5000 0.8247(2) 0.3743(3)
C11_3 C 0.5000 0.9328(2) 0.1541(3)
C12_5 C 0.5000 0.9389(4) 0.0000
H4_5 H 0.5000 0.8969 0.0000
C13_2 C 0.6598(8) 0.8818(4) 0.2628(5)
H5_2 H 0.7729 0.8713 0.2868
C14_2 C 0.6598(12) 0.9161(4) 0.1908(5)
H6_2 H 0.7726 0.9278 0.1675
C31_2 C 0.3402(8) 0.8818(4) 0.2628(5)
H15_2 H 0.2271 0.8713 0.2868
C32_2 C 0.3402(12) 0.9161(4) 0.1908(5)
H16_2 H 0.2274 0.9278 0.1675
C12_6 C 0.5000 0.9389(4) 1.0000
H4_6 H 0.5000 0.8969 1.0000
C21_3 C 0.5000 0.9678(2) 0.9239(3)
C22_3 C 0.5000 0.8631(2) 0.7008(3)
C23_3 C 0.5000 0.8247(2) 0.6257(3)
C24_3 C 0.5000 0.9328(2) 0.8459(3)
C25_2 C 0.3402(8) 0.8818(4) 0.7372(5)
H9_2 H 0.2271 0.8713 0.7132
C26_2 C 0.3402(12) 0.9161(4) 0.8092(5)
H10_2 H 0.2274 0.9278 0.8325
C27_2 C 0.6598(8) 0.8818(4) 0.7372(5)
H11_2 H 0.7729 0.8713 0.7132
C28_2 C 0.6598(12) 0.9161(4) 0.8092(5)
H12_2 H 0.7726 0.9278 0.8325
loop_
_geom_bond_atom_site_label_1
_geom_bond_atom_site_label_2
_geom_bond_site_symmetry_1
_geom_bond_site_symmetry_2
O1 In6 1_555 1_555
C1 C4 1_555 1_555
C2 C3 1_555 1_555
C5 C1 1_555 1_555
H1 C5 1_555 1_555
O3 C10 1_555 1_555
C8 C1 1_555 1_555
C9 C10 1_555 1_555
C11 C8 1_555 1_555
C12 C8 1_555 1_555
H4 C12 1_555 1_555
C13 C9 1_555 1_555
H5 C13 1_555 1_555
C14 C11 1_555 1_555
H6 C14 1_555 1_555
O9 C3 1_555 1_555
C33 C2 1_555 1_555
H17 C33 1_555 1_555
C34 C4 1_555 1_555
H18 C34 1_555 1_555
In2 O3 1_555 1_555
O10 In2 1_555 1_555
In6 O9 1_555 1_555
O11 In2 1_555 1_555
O13 In2 1_555 1_555
O15 In2 1_555 1_555
O18 In2 1_555 1_555
C13 C14 1_555 1_555
C33 C34 1_555 1_555
H1_2 C5_2 1_555 1_555
H4_2 C12_2 1_555 1_555
O4 C17 1_555 1_555
C15 C5_2 1_555 1_555
C16 C17 1_555 1_555
C18 C15 1_555 1_555
C19 C16 1_555 1_555
H7 C19 1_555 1_555
C20 C18 1_555 1_555
H8 C20 1_555 1_555
C21 C12_2 1_555 1_555
C22 C23 1_555 1_555
C23 O15 1_555 1_555
C24 C21 1_555 1_555
C27 C22 1_555 1_555
H11 C27 1_555 1_555
C28 C24 1_555 1_555
H12 C28 1_555 1_555
In6 O4 1_555 1_555
C15 C21 1_555 1_555
C19 C20 1_555 1_555
C27 C28 1_555 1_555
In1 O1_2 1_555 1_555
O2 In1 1_555 1_555
C1_2 C4_2 1_555 1_555
C2_2 C3_2 1_555 1_555
C3_2 O2 1_555 1_555
C4_2 C7 1_555 1_555
C5_3 C1_2 1_555 1_555
H1_3 C5_3 1_555 1_555
C6 C2_2 1_555 1_555
H2 C6 1_555 1_555
C7 C6 1_555 1_555
H3 C7 1_555 1_555
C8_2 C1_2 1_555 1_555
C9_2 C10_2 1_555 1_555
C10_2 O8 1_555 1_555
C11_2 C8_2 1_555 1_555
C12_3 C8_2 1_555 1_555
H4_3 C12_3 1_555 1_555
O8 In8 1_555 1_555
C31 C9_2 1_555 1_555
H15 C31 1_555 1_555
C32 C11_2 1_555 1_555
H16 C32 1_555 1_555
In8 O10_2 1_555 1_555
O12 In1 1_555 1_555
O14 In1 1_555 1_555
O16 In1 1_555 1_555
O17 In1 1_555 1_555
C31 C32 1_555 1_555
H1_4 C5_4 1_555 1_555
H4_4 C12_4 1_555 1_555
C15_2 C5_4 1_555 1_555
C16_2 C17_2 1_555 1_555
C17_2 O16 1_555 1_555
C18_2 C15_2 1_555 1_555
O5 C23_2 1_555 1_555
C21_2 C12_4 1_555 1_555
C22_2 C23_2 1_555 1_555
C24_2 C21_2 1_555 1_555
C25 C22_2 1_555 1_555
H9 C25 1_555 1_555
C26 C24_2 1_555 1_555
H10 C26 1_555 1_555
C29 C16_2 1_555 1_555
H13 C29 1_555 1_555
C30 C18_2 1_555 1_555
H14 C30 1_555 1_555
In8 O5 1_555 1_555
C15_2 C21_2 1_555 1_555
C25 C26 1_555 1_555
C29 C30 1_555 1_555
O12 In6 1_555 1_555
O14_2 In6 1_555 1_555
O17_2 In6 1_555 1_555
O11 In8 1_555 1_555
O13_2 In8 1_555 1_555
O18_2 In8 1_555 1_555
C1_3 C4_3 1_555 1_555
C2_3 C3_3 1_555 1_555
C3_3 O13 1_555 1_555
C4_3 C7_2 1_555 1_555
C5_5 C1_3 1_555 1_555
H1_5 C5_5 1_555 1_555
C6_2 C2_3 1_555 1_555
H2_2 C6_2 1_555 1_555
C7_2 C6_2 1_555 1_555
H3_2 C7_2 1_555 1_555
O18_2 C3_3 1_555 1_555
C33_2 C2_3 1_555 1_555
H17_2 C33_2 1_555 1_555
C34_2 C4_3 1_555 1_555
H18_2 C34_2 1_555 1_555
C33_2 C34_2 1_555 1_555
H1_6 C5_6 1_555 1_555
O13_2 C17_3 1_555 1_555
C15_3 C5_6 1_555 1_555
C16_3 C17_3 1_555 1_555
C17_3 O18 1_555 1_555
C18_3 C15_3 1_555 1_555
C19_2 C16_3 1_555 1_555
H7_2 C19_2 1_555 1_555
C20_2 C18_3 1_555 1_555
H8_2 C20_2 1_555 1_555
C29_2 C16_3 1_555 1_555
H13_2 C29_2 1_555 1_555
C30_2 C18_3 1_555 1_555
H14_2 C30_2 1_555 1_555
C19_2 C20_2 1_555 1_555
C29_2 C30_2 1_555 1_555
O14 C10_3 1_555 1_555
C9_3 C10_3 1_555 1_555
C10_3 O17_2 1_555 1_555
C11_3 C8_3 1_555 1_555
C12_5 C8_3 1_555 1_555
H4_5 C12_5 1_555 1_555
C13_2 C9_3 1_555 1_555
H5_2 C13_2 1_555 1_555
C14_2 C11_3 1_555 1_555
H6_2 C14_2 1_555 1_555
C31_2 C9_3 1_555 1_555
H15_2 C31_2 1_555 1_555
C32_2 C11_3 1_555 1_555
H16_2 C32_2 1_555 1_555
C13_2 C14_2 1_555 1_555
C31_2 C32_2 1_555 1_555
H4_6 C12_6 1_555 1_555
O14_2 C23_3 1_555 1_555
C21_3 C12_6 1_555 1_555
C22_3 C23_3 1_555 1_555
C23_3 O17 1_555 1_555
C24_3 C21_3 1_555 1_555
C25_2 C22_3 1_555 1_555
H9_2 C25_2 1_555 1_555
C26_2 C24_3 1_555 1_555
H10_2 C26_2 1_555 1_555
C27_2 C22_3 1_555 1_555
H11_2 C27_2 1_555 1_555
C28_2 C24_3 1_555 1_555
H12_2 C28_2 1_555 1_555
C25_2 C26_2 1_555 1_555
C27_2 C28_2 1_555 1_555

#END
