
###############################################################################
#
# This file contains modified crystal structure data generated from the
# MOF subset of the Cambridge Structural Database (CSD) v543 
# hosted by the Cambridge Crystallographic Data Centre (CCDC).
#
# This work is licensed under the Creative Commons
# Attribution-NonCommercial-ShareAlike 4.0 International License.
# To view a copy of this license, visit
# http://creativecommons.org/licenses/by-nc-sa/4.0/
# or send a letter to
# Creative Commons, PO Box 1866, Mountain View, CA 94042, USA.
#
# CIF created using the CSD Python API on 29 September 2022
# The structure has been converted into the P1 space group
# The structure has a 3D framework
# The original CSD entry ODIMAQ is in the hexagonal crystal system
# The framework has been calculated to contain at least 10.0% void space
# The void calculation uses a probe of radius 1.32A, grid spacing 0.4
#
###############################################################################

data_ODIMAQ
_chemical_formula_moiety         '(C48 H72 O78 Sm3 Zn15)n'
_symmetry_cell_setting           triclinic
_symmetry_space_group_name_H-M   'P 1'
_symmetry_Int_Tables_number      1
_space_group_name_Hall           'P 1'
loop_
_symmetry_equiv_pos_site_id
_symmetry_equiv_pos_as_xyz
1 x,y,z
_cell_length_a                   14.8127(14)
_cell_length_b                   14.8127(14)
_cell_length_c                   15.613(3)
_cell_angle_alpha                90
_cell_angle_beta                 90
_cell_angle_gamma                120
_cell_volume                     2966.78
loop_
_atom_site_label
_atom_site_type_symbol
_atom_site_fract_x
_atom_site_fract_y
_atom_site_fract_z
Zn9 Zn -0.0000 0.5000 0.5000
Zn10 Zn 0.5000 0.0000 -0.0000
Sm4 Sm 0.6667 0.3333 0.2500
Zn6 Zn 0.5000 -0.0000 0.5000
Zn9_2 Zn 1.0000 0.5000 0.5000
Zn10_2 Zn 0.5000 0.0000 1.0000
O14 O 0.6150(4) 0.1948(4) 0.1446(3)
O15 O 0.8052(4) 0.3850(4) 0.3554(3)
O45 O 0.6147(5) 0.0544(4) 0.0924(4)
O46 O 0.9456(4) 0.3853(5) 0.4076(4)
O66 O 0.4397(6) 0.0544(4) 0.5924(4)
O67 O 0.4397(6) 0.0544(4) 0.4076(4)
O72 O 0.7646(3) 0.2354(3) 0.2500
O83 O 0.4926(6) 0.1411(5) 0.0000
O93 O 0.6485(8) 0.1411(5) 0.5000
H5 H 0.5230 0.1787 0.0464
H25 H 0.6557 0.1787 0.4536
H26 H 0.6557 0.1787 0.5464
C12 C 0.6484(6) 0.1313(6) 0.1403(5)
C13 C 0.8687(6) 0.3516(6) 0.3597(5)
C35 C 0.7379(7) 0.1511(7) 0.1962(6)
C36 C 0.8489(7) 0.2621(7) 0.3038(6)
H36 H 0.7195 0.0895 0.2303
H37 H 0.9105 0.2805 0.2697
H59 H 0.7973 0.1649 0.1609
H60 H 0.8351 0.2027 0.3391
Sm3 Sm 0.6667 0.3333 0.7500
O12 O 0.6150(4) 0.1948(4) 0.8554(3)
O13 O 0.8052(4) 0.3850(4) 0.6446(3)
O43 O 0.6147(5) 0.0544(4) 0.9076(4)
O44 O 0.9456(4) 0.3853(5) 0.5924(4)
O71 O 0.7646(3) 0.2354(3) 0.7500
O83_2 O 0.4926(6) 0.1411(5) 1.0000
H6 H 0.5230 0.1787 0.9536
C10 C 0.6484(6) 0.1313(6) 0.8597(5)
C11 C 0.8687(6) 0.3516(6) 0.6403(5)
C33 C 0.7379(7) 0.1511(7) 0.8038(6)
C34 C 0.8489(7) 0.2621(7) 0.6962(6)
H34 H 0.7195 0.0895 0.7697
H35 H 0.9105 0.2805 0.7303
H57 H 0.7973 0.1649 0.8391
H58 H 0.8351 0.2027 0.6609
Zn10_3 Zn 0.5000 1.0000 -0.0000
Sm1 Sm 0.3333 0.6667 0.2500
O1 O 0.3850(4) 0.8052(4) 0.1446(3)
O2 O 0.3853(5) 0.9456(4) 0.0924(4)
O3 O 0.2354(3) 0.7646(3) 0.2500
O4 O 0.5074(6) 0.8589(5) 0.0000
C1 C 0.3516(6) 0.8687(6) 0.1403(5)
C2 C 0.2621(7) 0.8489(7) 0.1962(6)
H2 H 0.2805 0.9105 0.2303
H3 H 0.2027 0.8351 0.1609
Sm5 Sm 0.3333 0.6667 0.7500
Zn3 Zn -0.0000 0.5000 0.0000
Zn4 Zn 0.5000 0.5000 0.5000
Zn5 Zn 0.5000 0.5000 0.0000
Zn6_2 Zn 0.5000 1.0000 0.5000
Zn10_4 Zn 0.5000 1.0000 1.0000
O5 O 0.1948(4) 0.6150(4) 0.3554(3)
O6 O 0.1948(4) 0.5798(6) 0.1446(3)
O7 O 0.3850(4) 0.5798(6) 0.3554(3)
O8 O 0.4202(6) 0.6150(4) 0.1446(3)
O9 O 0.4202(6) 0.8052(4) 0.3554(3)
O16 O 0.1948(4) 0.6150(4) 0.6446(3)
O17 O 0.3850(4) 0.8052(4) 0.8554(3)
O30 O 0.4202(6) 0.8052(4) 0.6446(3)
O31 O 0.3850(4) 0.5798(6) 0.6446(3)
O32 O 0.1948(4) 0.5798(6) 0.8554(3)
O33 O 0.4202(6) 0.6150(4) 0.8554(3)
O36 O 0.0544(4) 0.6147(5) 0.4076(4)
O37 O 0.0544(4) 0.4397(6) 0.0924(4)
O38 O 0.3853(5) 0.4397(6) 0.4076(4)
O39 O 0.5603(6) 0.6147(5) 0.0924(4)
O40 O 0.5603(6) 0.9456(4) 0.4076(4)
O47 O 0.0544(4) 0.6147(5) 0.5924(4)
O48 O 0.3853(5) 0.9456(4) 0.9076(4)
O59 O 0.3853(5) 0.4397(6) 0.5924(4)
O60 O 0.6147(5) 0.5603(6) 0.5924(4)
O61 O 0.6147(5) 0.5603(6) 0.4076(4)
O62 O 0.4397(6) 0.3853(5) 0.0924(4)
O65 O 0.5603(6) 0.9456(4) 0.5924(4)
O68 O 0.2354(3) 0.4708(4) 0.2500
O69 O 0.5292(4) 0.7646(3) 0.2500
O73 O 0.2354(3) 0.7646(3) 0.7500
O80 O 0.5292(4) 0.7646(3) 0.7500
O81 O 0.2354(3) 0.4708(4) 0.7500
O84 O 0.1411(5) 0.4926(6) 0.5000
O86 O 0.1411(5) 0.6485(8) 0.0000
O88 O 0.5074(6) 0.6485(8) 0.5000
O89 O 0.4926(6) 0.3515(8) 0.5000
O90 O 0.3515(8) 0.4926(6) 0.0000
O91 O 0.6485(8) 0.5074(6) 0.0000
O92 O 0.3515(8) 0.8589(5) 0.5000
H4 H 0.4770 0.8213 0.0464
H7 H 0.1787 0.5230 0.5464
H8 H 0.1787 0.5230 0.4536
H12 H 0.1787 0.6557 0.0464
H15 H 0.4770 0.6557 0.5464
H16 H 0.4770 0.6557 0.4536
H17 H 0.5230 0.3443 0.4536
H18 H 0.5230 0.3443 0.5464
H20 H 0.3443 0.5230 0.0464
H21 H 0.6557 0.4770 0.0464
H23 H 0.3443 0.8213 0.5464
H24 H 0.3443 0.8213 0.4536
C3 C 0.1313(6) 0.6484(6) 0.3597(5)
C4 C 0.1313(6) 0.4829(8) 0.1403(5)
C5 C 0.3516(6) 0.4829(8) 0.3597(5)
C6 C 0.5171(8) 0.6484(6) 0.1403(5)
C7 C 0.5171(8) 0.8687(6) 0.3597(5)
C14 C 0.1313(6) 0.6484(6) 0.6403(5)
C15 C 0.3516(6) 0.8687(6) 0.8597(5)
C26 C 0.1511(7) 0.7379(7) 0.3038(6)
C27 C 0.1511(7) 0.4132(10) 0.1962(6)
C28 C 0.2621(7) 0.4132(10) 0.3038(6)
C29 C 0.5868(10) 0.7379(7) 0.1962(6)
C30 C 0.5868(10) 0.8489(7) 0.3038(6)
C37 C 0.1511(7) 0.7379(7) 0.6962(6)
C38 C 0.2621(7) 0.8489(7) 0.8038(6)
H27 H 0.0895 0.7195 0.2697
H28 H 0.0895 0.3700 0.2303
H29 H 0.2805 0.3700 0.2697
H30 H 0.6300 0.7195 0.2303
H31 H 0.6300 0.9105 0.2697
H38 H 0.0895 0.7195 0.7303
H39 H 0.2805 0.9105 0.7697
H50 H 0.1649 0.7973 0.3391
H51 H 0.1649 0.3676 0.1609
H52 H 0.2027 0.3676 0.3391
H53 H 0.6324 0.7973 0.1609
H54 H 0.6324 0.8351 0.3391
H61 H 0.1649 0.7973 0.6609
H62 H 0.2027 0.8351 0.8391
O4_2 O 0.5074(6) 0.8589(5) 1.0000
H1 H 0.4770 0.8213 0.9536
Zn3_2 Zn -0.0000 0.5000 1.0000
Zn5_2 Zn 0.5000 0.5000 1.0000
O53 O 0.0544(4) 0.4397(6) 0.9076(4)
O63 O 0.4397(6) 0.3853(5) 0.9076(4)
O64 O 0.5603(6) 0.6147(5) 0.9076(4)
O86_2 O 0.1411(5) 0.6485(8) 1.0000
O90_2 O 0.3515(8) 0.4926(6) 1.0000
O91_2 O 0.6485(8) 0.5074(6) 1.0000
H11 H 0.1787 0.6557 0.9536
H19 H 0.3443 0.5230 0.9536
H22 H 0.6557 0.4770 0.9536
C20 C 0.1313(6) 0.4829(8) 0.8597(5)
C21 C 0.3516(6) 0.4829(8) 0.6403(5)
C43 C 0.1511(7) 0.4132(10) 0.8038(6)
C44 C 0.2621(7) 0.4132(10) 0.6962(6)
H44 H 0.0895 0.3700 0.7697
H45 H 0.2805 0.3700 0.7303
H67 H 0.1649 0.3676 0.8391
H68 H 0.2027 0.3676 0.6609
Zn3_3 Zn 1.0000 0.5000 0.0000
O26 O 0.8052(4) 0.4202(6) 0.1446(3)
O27 O 0.6150(4) 0.4202(6) 0.3554(3)
O34 O 0.5798(6) 0.3850(4) 0.1446(3)
O35 O 0.5798(6) 0.1948(4) 0.3554(3)
O57 O 0.9456(4) 0.5603(6) 0.0924(4)
O78 O 0.7646(3) 0.5292(4) 0.2500
O82 O 0.4708(4) 0.2354(3) 0.2500
O85 O 0.8589(5) 0.5074(6) 0.5000
O87 O 0.8589(5) 0.3515(8) 0.0000
H9 H 0.8213 0.4770 0.4536
H10 H 0.8213 0.4770 0.5464
H13 H 0.8213 0.3443 0.0464
C24 C 0.8687(6) 0.5171(8) 0.1403(5)
C25 C 0.6484(6) 0.5171(8) 0.3597(5)
C47 C 0.8489(7) 0.5868(10) 0.1962(6)
C48 C 0.7379(7) 0.5868(10) 0.3038(6)
H48 H 0.9105 0.6300 0.2303
H49 H 0.7195 0.6300 0.2697
H71 H 0.8351 0.6324 0.1609
H72 H 0.7973 0.6324 0.3391
Zn3_4 Zn 1.0000 0.5000 1.0000
O24 O 0.8052(4) 0.4202(6) 0.8554(3)
O25 O 0.6150(4) 0.4202(6) 0.6446(3)
O55 O 0.9456(4) 0.5603(6) 0.9076(4)
O77 O 0.7646(3) 0.5292(4) 0.7500
O87_2 O 0.8589(5) 0.3515(8) 1.0000
H14 H 0.8213 0.3443 0.9536
C22 C 0.8687(6) 0.5171(8) 0.8597(5)
C23 C 0.6484(6) 0.5171(8) 0.6403(5)
C45 C 0.8489(7) 0.5868(10) 0.8038(6)
C46 C 0.7379(7) 0.5868(10) 0.6962(6)
H46 H 0.9105 0.6300 0.7697
H47 H 0.7195 0.6300 0.7303
H69 H 0.8351 0.6324 0.8391
H70 H 0.7973 0.6324 0.6609
C24_2 C 0.4829(8) 0.3516(10) 0.1403(5)
C25_2 C 0.4829(8) 0.1313(10) 0.3597(5)
C47_2 C 0.4132(10) 0.2621(12) 0.1962(6)
C48_2 C 0.4132(10) 0.1511(12) 0.3038(6)
H48_2 H 0.3700 0.2805 0.2303
H49_2 H 0.3700 0.0895 0.2697
H71_2 H 0.3676 0.2027 0.1609
H72_2 H 0.3676 0.1649 0.3391
O24_2 O 0.5798(6) 0.3850(7) 0.8554(3)
O25_2 O 0.5798(6) 0.1948(7) 0.6446(3)
O77_2 O 0.4708(4) 0.2354(5) 0.7500
C20_2 C 0.5171(8) 0.6484(10) 0.8597(5)
C21_2 C 0.5171(8) 0.8687(10) 0.6403(5)
C22_2 C 0.4829(8) 0.3516(10) 0.8597(5)
C23_2 C 0.4829(8) 0.1313(10) 0.6403(5)
C43_2 C 0.5868(10) 0.7379(12) 0.8038(6)
C44_2 C 0.5868(10) 0.8489(12) 0.6962(6)
C45_2 C 0.4132(10) 0.2621(12) 0.8038(6)
C46_2 C 0.4132(10) 0.1511(12) 0.6962(6)
H44_2 H 0.6300 0.7195 0.7697
H45_2 H 0.6300 0.9105 0.7303
H46_2 H 0.3700 0.2805 0.7697
H47_2 H 0.3700 0.0895 0.7303
H67_2 H 0.6324 0.7973 0.8391
H68_2 H 0.6324 0.8351 0.6609
H69_2 H 0.3676 0.2027 0.8391
H70_2 H 0.3676 0.1649 0.6609
loop_
_geom_bond_atom_site_label_1
_geom_bond_atom_site_label_2
_geom_bond_site_symmetry_1
_geom_bond_site_symmetry_2
Sm4 O14 1_555 1_555
Zn9_2 O46 1_555 1_555
O14 C12 1_555 1_555
O15 Sm4 1_555 1_555
O45 Zn10 1_555 1_555
O46 C13 1_555 1_555
O66 Zn6 1_555 1_555
O67 Zn6 1_555 1_555
O72 Sm4 1_555 1_555
O83 Zn10 1_555 1_555
O93 Zn6 1_555 1_555
H5 O83 1_555 1_555
H25 O93 1_555 1_555
H26 O93 1_555 1_555
C12 O45 1_555 1_555
C13 O15 1_555 1_555
C35 O72 1_555 1_555
C36 O72 1_555 1_555
H36 C35 1_555 1_555
H37 C36 1_555 1_555
H59 C35 1_555 1_555
H60 C36 1_555 1_555
C12 C35 1_555 1_555
C13 C36 1_555 1_555
Sm3 O12 1_555 1_555
Zn9_2 O44 1_555 1_555
O12 C10 1_555 1_555
O13 Sm3 1_555 1_555
O43 Zn10_2 1_555 1_555
O44 C11 1_555 1_555
O71 Sm3 1_555 1_555
O83_2 Zn10_2 1_555 1_555
H6 O83_2 1_555 1_555
C10 O43 1_555 1_555
C11 O13 1_555 1_555
C33 O71 1_555 1_555
C34 O71 1_555 1_555
H34 C33 1_555 1_555
H35 C34 1_555 1_555
H57 C33 1_555 1_555
H58 C34 1_555 1_555
C10 C33 1_555 1_555
C11 C34 1_555 1_555
Sm1 O1 1_555 1_555
Zn10_3 O2 1_555 1_555
O1 C1 1_555 1_555
O2 C1 1_555 1_555
O3 Sm1 1_555 1_555
O4 Zn10_3 1_555 1_555
C1 C2 1_555 1_555
C2 O3 1_555 1_555
H2 C2 1_555 1_555
H3 C2 1_555 1_555
Sm5 O16 1_555 1_555
Zn9 O36 1_555 1_555
Zn3 O37 1_555 1_555
Zn4 O38 1_555 1_555
Zn5 O39 1_555 1_555
Zn6_2 O40 1_555 1_555
Zn10_4 O48 1_555 1_555
O5 Sm1 1_555 1_555
O6 Sm1 1_555 1_555
O7 Sm1 1_555 1_555
O8 Sm1 1_555 1_555
O9 Sm1 1_555 1_555
O16 C14 1_555 1_555
O17 Sm5 1_555 1_555
O30 Sm5 1_555 1_555
O31 Sm5 1_555 1_555
O32 Sm5 1_555 1_555
O33 Sm5 1_555 1_555
O36 C3 1_555 1_555
O37 C4 1_555 1_555
O38 C5 1_555 1_555
O39 C6 1_555 1_555
O40 C7 1_555 1_555
O47 Zn9 1_555 1_555
O48 C15 1_555 1_555
O59 Zn4 1_555 1_555
O60 Zn4 1_555 1_555
O61 Zn4 1_555 1_555
O62 Zn5 1_555 1_555
O65 Zn6_2 1_555 1_555
O68 Sm1 1_555 1_555
O69 Sm1 1_555 1_555
O73 Sm5 1_555 1_555
O80 Sm5 1_555 1_555
O81 Sm5 1_555 1_555
O84 Zn9 1_555 1_555
O86 Zn3 1_555 1_555
O88 Zn4 1_555 1_555
O89 Zn4 1_555 1_555
O90 Zn5 1_555 1_555
O91 Zn5 1_555 1_555
O92 Zn6_2 1_555 1_555
H4 O4 1_555 1_555
H7 O84 1_555 1_555
H8 O84 1_555 1_555
H12 O86 1_555 1_555
H15 O88 1_555 1_555
H16 O88 1_555 1_555
H17 O89 1_555 1_555
H18 O89 1_555 1_555
H20 O90 1_555 1_555
H21 O91 1_555 1_555
H23 O92 1_555 1_555
H24 O92 1_555 1_555
C3 O5 1_555 1_555
C4 O6 1_555 1_555
C5 O7 1_555 1_555
C6 O8 1_555 1_555
C7 O9 1_555 1_555
C14 O47 1_555 1_555
C15 O17 1_555 1_555
C26 O3 1_555 1_555
C27 O68 1_555 1_555
C28 O68 1_555 1_555
C29 O69 1_555 1_555
C30 O69 1_555 1_555
C37 O73 1_555 1_555
C38 O73 1_555 1_555
H27 C26 1_555 1_555
H28 C27 1_555 1_555
H29 C28 1_555 1_555
H30 C29 1_555 1_555
H31 C30 1_555 1_555
H38 C37 1_555 1_555
H39 C38 1_555 1_555
H50 C26 1_555 1_555
H51 C27 1_555 1_555
H52 C28 1_555 1_555
H53 C29 1_555 1_555
H54 C30 1_555 1_555
H61 C37 1_555 1_555
H62 C38 1_555 1_555
C3 C26 1_555 1_555
C4 C27 1_555 1_555
C5 C28 1_555 1_555
C6 C29 1_555 1_555
C7 C30 1_555 1_555
C14 C37 1_555 1_555
C15 C38 1_555 1_555
O4_2 Zn10_4 1_555 1_555
H1 O4_2 1_555 1_555
O53 Zn3_2 1_555 1_555
O59 C21 1_555 1_555
O63 Zn5_2 1_555 1_555
O64 Zn5_2 1_555 1_555
O86_2 Zn3_2 1_555 1_555
O90_2 Zn5_2 1_555 1_555
O91_2 Zn5_2 1_555 1_555
H11 O86_2 1_555 1_555
H19 O90_2 1_555 1_555
H22 O91_2 1_555 1_555
C20 O32 1_555 1_555
C21 O31 1_555 1_555
C43 O81 1_555 1_555
C44 O81 1_555 1_555
H44 C43 1_555 1_555
H45 C44 1_555 1_555
H67 C43 1_555 1_555
H68 C44 1_555 1_555
O53 C20 1_555 1_555
C20 C43 1_555 1_555
C21 C44 1_555 1_555
O26 Sm4 1_555 1_555
O27 Sm4 1_555 1_555
O34 Sm4 1_555 1_555
O35 Sm4 1_555 1_555
O57 Zn3_3 1_555 1_555
O61 C25 1_555 1_555
O78 Sm4 1_555 1_555
O82 Sm4 1_555 1_555
O85 Zn9_2 1_555 1_555
O87 Zn3_3 1_555 1_555
H9 O85 1_555 1_555
H10 O85 1_555 1_555
H13 O87 1_555 1_555
C24 O26 1_555 1_555
C25 O27 1_555 1_555
C47 O78 1_555 1_555
C48 O78 1_555 1_555
H48 C47 1_555 1_555
H49 C48 1_555 1_555
H71 C47 1_555 1_555
H72 C48 1_555 1_555
O57 C24 1_555 1_555
C24 C47 1_555 1_555
C25 C48 1_555 1_555
Sm3 O24 1_555 1_555
O24 C22 1_555 1_555
O25 Sm3 1_555 1_555
O55 Zn3_4 1_555 1_555
O60 C23 1_555 1_555
O77 Sm3 1_555 1_555
O87_2 Zn3_4 1_555 1_555
H14 O87_2 1_555 1_555
C22 O55 1_555 1_555
C23 O25 1_555 1_555
C45 O77 1_555 1_555
C46 O77 1_555 1_555
H46 C45 1_555 1_555
H47 C46 1_555 1_555
H69 C45 1_555 1_555
H70 C46 1_555 1_555
C22 C45 1_555 1_555
C23 C46 1_555 1_555
O67 C25_2 1_555 1_555
C24_2 O34 1_555 1_555
C25_2 O35 1_555 1_555
C47_2 O82 1_555 1_555
C48_2 O82 1_555 1_555
H48_2 C47_2 1_555 1_555
H49_2 C48_2 1_555 1_555
H71_2 C47_2 1_555 1_555
H72_2 C48_2 1_555 1_555
O62 C24_2 1_555 1_555
C24_2 C47_2 1_555 1_555
C25_2 C48_2 1_555 1_555
Sm3 O24_2 1_555 1_555
O24_2 C22_2 1_555 1_555
O25_2 Sm3 1_555 1_555
O65 C21_2 1_555 1_555
O66 C23_2 1_555 1_555
O77_2 Sm3 1_555 1_555
C20_2 O33 1_555 1_555
C21_2 O30 1_555 1_555
C22_2 O63 1_555 1_555
C23_2 O25_2 1_555 1_555
C43_2 O80 1_555 1_555
C44_2 O80 1_555 1_555
C45_2 O77_2 1_555 1_555
C46_2 O77_2 1_555 1_555
H44_2 C43_2 1_555 1_555
H45_2 C44_2 1_555 1_555
H46_2 C45_2 1_555 1_555
H47_2 C46_2 1_555 1_555
H67_2 C43_2 1_555 1_555
H68_2 C44_2 1_555 1_555
H69_2 C45_2 1_555 1_555
H70_2 C46_2 1_555 1_555
O64 C20_2 1_555 1_555
C20_2 C43_2 1_555 1_555
C21_2 C44_2 1_555 1_555
C22_2 C45_2 1_555 1_555
C23_2 C46_2 1_555 1_555

#END
