
###############################################################################
#
# This file contains modified crystal structure data generated from the
# MOF subset of the Cambridge Structural Database (CSD) v543 
# hosted by the Cambridge Crystallographic Data Centre (CCDC).
#
# This work is licensed under the Creative Commons
# Attribution-NonCommercial-ShareAlike 4.0 International License.
# To view a copy of this license, visit
# http://creativecommons.org/licenses/by-nc-sa/4.0/
# or send a letter to
# Creative Commons, PO Box 1866, Mountain View, CA 94042, USA.
#
# CIF created using the CSD Python API on 29 September 2022
# The structure has been converted into the P1 space group
# The structure has a 3D framework
# The original CSD entry OFAMOA is in the triclinic crystal system
# The framework has been calculated to contain at least 10.0% void space
# The void calculation uses a probe of radius 1.32A, grid spacing 0.4
#
###############################################################################

data_OFAMOA
_chemical_formula_moiety         '(C68 H40 Co4 N2 O14)n'
_symmetry_cell_setting           triclinic
_symmetry_space_group_name_H-M   'P 1'
_symmetry_Int_Tables_number      1
_space_group_name_Hall           'P 1'
loop_
_symmetry_equiv_pos_site_id
_symmetry_equiv_pos_as_xyz
1 x,y,z
_cell_length_a                   13.1456(12)
_cell_length_b                   13.1962(13)
_cell_length_c                   13.8838(12)
_cell_angle_alpha                101.838(8)
_cell_angle_beta                 105.372(8)
_cell_angle_gamma                96.160(8)
_cell_volume                     2239.29
loop_
_atom_site_label
_atom_site_type_symbol
_atom_site_fract_x
_atom_site_fract_y
_atom_site_fract_z
O1 O 0.0308(3) 0.1751(3) 0.3718(3)
O3 O 0.6619(3) 0.1137(3) 0.1333(3)
O8 O 0.7084(3) 0.1542(3) 0.3078(3)
C1 C 0.5250(5) 0.1402(5) 0.2138(5)
C2 C 0.6401(5) 0.1362(5) 0.2192(5)
C6 C 0.1709(5) 0.1736(5) 0.2916(5)
C8 C 0.4976(5) 0.1707(5) 0.3032(5)
H3 H 0.551165 0.189791 0.365974
C10 C 0.3105(5) 0.1464(5) 0.2038(5)
C12 C 0.0555(5) 0.1705(5) 0.2881(5)
C15 C 0.3904(5) 0.1739(5) 0.3022(4)
C18 C 0.2550(5) 0.2001(5) 0.3905(5)
H7 H 0.236686 0.215894 0.451510
C21 C 0.3406(5) 0.1151(5) 0.1126(5)
H9 H 0.288326 0.098171 0.049086
C23 C 0.2019(5) 0.1499(5) 0.2029(5)
H11 H 0.149572 0.135674 0.139592
C24 C 0.3593(5) 0.2017(5) 0.3939(5)
H12 H 0.411659 0.221305 0.457437
C27 C 0.4451(5) 0.1094(5) 0.1159(5)
H14 H 0.463464 0.086032 0.055912
Co4 Co 0.87174(6) 0.16903(6) 0.36079(6)
Co7 Co 0.82129(6) 0.13384(6) 0.15068(6)
O2 O 0.8539(3) 0.0074(3) 0.3177(3)
N2 N 0.8275(4) 0.1416(4) 0.0047(4)
H13 H 0.951029 0.069381 0.009657
O4 O 0.8309(3) 0.2941(3) 0.1976(3)
O5 O 0.8829(3) 0.3254(3) 0.3716(3)
O6 O 0.8265(3) 0.9774(3) 0.1459(3)
O7 O 0.9881(3) 0.1572(3) 0.1990(3)
N1 N 0.8714(4) 0.1694(4) 0.5099(4)
C3 C 0.8385(4) 0.9466(5) 0.2291(5)
C4 C 0.8821(5) 0.5414(5) 0.3919(5)
H1 H 0.899663 0.517666 0.451849
C5 C 0.8353(5) 0.8317(5) 0.2228(5)
C7 C 0.8557(4) 0.7959(5) 0.3111(5)
H2 H 0.869319 0.843008 0.374651
C9 C 0.8560(4) 0.6869(4) 0.3057(5)
C11 C 0.8565(5) 0.4683(5) 0.2943(5)
C13 C 0.8796(5) 0.0804(5) 0.6450(5)
H4 H 0.889559 0.019602 0.667656
C14 C 0.8312(5) 0.6145(5) 0.2066(5)
C16 C 0.8088(5) 0.6532(5) 0.1173(5)
H5 H 0.791323 0.606446 0.053042
C17 C 0.8859(5) 0.0844(5) 0.5480(4)
H6 H 0.900795 0.025888 0.507423
C19 C 0.8587(5) 0.1659(5) 0.7091(5)
C20 C 0.8122(5) 0.7576(5) 0.1233(5)
H8 H 0.799804 0.781838 0.063509
C22 C 0.8328(5) 0.5071(5) 0.2051(5)
H10 H 0.817249 0.459391 0.141589
C25 C 0.8558(4) 0.3539(5) 0.2865(5)
C26 C 0.9046(5) 0.1031(5) 0.9692(4)
C28 C 0.8486(5) 0.1609(5) 0.8130(5)
C29 C 0.8810(5) 0.6472(5) 0.3982(5)
H15 H 0.896370 0.693595 0.462421
C30 C 0.9188(5) 0.1111(5) 0.8746(4)
H16 H 0.973725 0.083968 0.853032
C31 C 0.8529(6) 0.2531(5) 0.5729(5)
H17 H 0.844795 0.313171 0.548469
C32 C 0.7622(5) 0.1915(6) 0.9459(5)
H18 H 0.709671 0.220627 0.970078
C33 C 0.7704(6) 0.2012(6) 0.8502(5)
H19 H 0.722802 0.235135 0.811240
C34 C 0.8450(6) 0.2569(6) 0.6704(5)
H20 H 0.831161 0.316931 0.709706
O11 O 0.1735(3) 0.0226(3) 0.8541(3)
Co1 Co 0.12826(6) 0.83097(6) 0.63921(6)
Co2 Co 0.17871(6) 0.86616(6) 0.84932(6)
O4_2 O 0.1691(3) 0.7059(3) 0.8024(3)
O5_2 O 0.1171(3) 0.6746(3) 0.6284(3)
O7_2 O 0.0119(3) 0.8428(3) 0.8010(3)
N1_2 N 0.1286(4) 0.8306(4) 0.4901(4)
C3_2 C 0.1615(4) 0.0534(5) 0.7709(5)
C4_2 C 0.1179(5) 0.4586(5) 0.6081(5)
H1_2 H 0.100337 0.482334 0.548151
C5_2 C 0.1647(5) 0.1683(5) 0.7772(5)
C7_2 C 0.1443(4) 0.2041(5) 0.6889(5)
H2_2 H 0.130681 0.156992 0.625349
C9_2 C 0.1440(4) 0.3131(4) 0.6943(5)
C11_2 C 0.1435(5) 0.5317(5) 0.7057(5)
C13_2 C 0.1204(5) 0.9196(5) 0.3550(5)
H4_2 H 0.110441 0.980398 0.332344
C14_2 C 0.1688(5) 0.3855(5) 0.7934(5)
C16_2 C 0.1912(5) 0.3468(5) 0.8827(5)
H5_2 H 0.208677 0.393554 0.946958
C17_2 C 0.1141(5) 0.9156(5) 0.4520(4)
H6_2 H 0.099205 0.974112 0.492577
C19_2 C 0.1413(5) 0.8341(5) 0.2909(5)
C20_2 C 0.1878(5) 0.2424(5) 0.8767(5)
H8_2 H 0.200196 0.218162 0.936491
C22_2 C 0.1672(5) 0.4929(5) 0.7949(5)
H10_2 H 0.182751 0.540609 0.858411
C25_2 C 0.1442(4) 0.6461(5) 0.7135(5)
C26_2 C 0.0954(5) 0.8969(5) 0.0308(4)
C28_2 C 0.1514(5) 0.8391(5) 0.1870(5)
C29_2 C 0.1190(5) 0.3528(5) 0.6018(5)
H15_2 H 0.103630 0.306405 0.537579
C30_2 C 0.0812(5) 0.8889(5) 0.1254(4)
H16_2 H 0.026275 0.916032 0.146968
C31_2 C 0.1471(6) 0.7469(5) 0.4271(5)
H17_2 H 0.155205 0.686829 0.451531
C32_2 C 0.2378(5) 0.8085(6) 0.0541(5)
H18_2 H 0.290329 0.779373 0.029922
C33_2 C 0.2296(6) 0.7988(6) 0.1498(5)
H19_2 H 0.277198 0.764865 0.188760
C34_2 C 0.1550(6) 0.7431(6) 0.3296(5)
H20_2 H 0.168839 0.683069 0.290294
O9 O 0.1461(3) 0.9926(3) 0.6823(3)
O10 O 0.3381(3) 0.8863(3) 0.8667(3)
O12 O 0.2916(3) 0.8458(3) 0.6922(3)
N3 N 0.1725(4) 0.8584(4) 0.9953(4)
H13_2 H 0.048971 0.930619 0.990343
O1_2 O 0.9692(3) 0.8249(3) 0.6282(3)
C1_2 C 0.4750(5) 0.8598(5) 0.7862(5)
C2_2 C 0.3599(5) 0.8638(5) 0.7808(5)
C6_2 C 0.8291(5) 0.8264(5) 0.7084(5)
C8_2 C 0.5024(5) 0.8293(5) 0.6968(5)
H3_2 H 0.448835 0.810209 0.634026
C10_2 C 0.6895(5) 0.8536(5) 0.7962(5)
C12_2 C 0.9445(5) 0.8295(5) 0.7119(5)
C15_2 C 0.6096(5) 0.8261(5) 0.6978(4)
C18_2 C 0.7450(5) 0.7999(5) 0.6095(5)
H7_2 H 0.763314 0.784106 0.548490
C21_2 C 0.6594(5) 0.8849(5) 0.8874(5)
H9_2 H 0.711674 0.901829 0.950914
C23_2 C 0.7981(5) 0.8501(5) 0.7971(5)
H11_2 H 0.850428 0.864326 0.860408
C24_2 C 0.6407(5) 0.7983(5) 0.6061(5)
H12_2 H 0.588341 0.778695 0.542563
C27_2 C 0.5549(5) 0.8906(5) 0.8841(5)
H14_2 H 0.536536 0.913968 0.944088
loop_
_geom_bond_atom_site_label_1
_geom_bond_atom_site_label_2
_geom_bond_site_symmetry_1
_geom_bond_site_symmetry_2
O1 C12 1_555 1_555
O3 C2 1_555 1_555
O8 C2 1_555 1_555
C1 C2 1_555 1_555
C6 C12 1_555 1_555
C8 C1 1_555 1_555
H3 C8 1_555 1_555
C10 C15 1_555 1_555
C15 C8 1_555 1_555
C18 C6 1_555 1_555
H7 C18 1_555 1_555
C21 C10 1_555 1_555
H9 C21 1_555 1_555
C23 C6 1_555 1_555
H11 C23 1_555 1_555
C24 C15 1_555 1_555
H12 C24 1_555 1_555
C27 C1 1_555 1_555
H14 C27 1_555 1_555
Co4 O8 1_555 1_555
Co7 O3 1_555 1_555
C10 C23 1_555 1_555
C18 C24 1_555 1_555
C21 C27 1_555 1_555
Co4 O2 1_555 1_555
Co7 N2 1_555 1_555
Co7 O4 1_555 1_555
O4 C25 1_555 1_555
O5 Co4 1_555 1_555
O6 C3 1_555 1_555
O7 Co7 1_555 1_555
N1 Co4 1_555 1_555
C3 C5 1_555 1_555
C4 H1 1_555 1_555
C5 C7 1_555 1_555
C7 H2 1_555 1_555
C9 C7 1_555 1_555
C11 C4 1_555 1_555
C13 H4 1_555 1_555
C14 C9 1_555 1_555
C16 C14 1_555 1_555
H5 C16 1_555 1_555
C17 N1 1_555 1_555
H6 C17 1_555 1_555
C19 C13 1_555 1_555
C20 C5 1_555 1_555
H8 C20 1_555 1_555
C22 C11 1_555 1_555
H10 C22 1_555 1_555
C25 O5 1_555 1_555
C28 C19 1_555 1_555
C29 C4 1_555 1_555
H15 C29 1_555 1_555
C30 C26 1_555 1_555
H16 C30 1_555 1_555
C31 N1 1_555 1_555
H17 C31 1_555 1_555
H18 C32 1_555 1_555
C33 C28 1_555 1_555
H19 C33 1_555 1_555
C34 C19 1_555 1_555
H20 C34 1_555 1_555
C9 C29 1_555 1_555
C11 C25 1_555 1_555
C13 C17 1_555 1_555
C14 C22 1_555 1_555
C16 C20 1_555 1_555
C28 C30 1_555 1_555
C31 C34 1_555 1_555
C32 C33 1_555 1_555
Co2 O4_2 1_555 1_555
O4_2 C25_2 1_555 1_555
O5_2 Co1 1_555 1_555
O11 C3_2 1_555 1_555
O7_2 Co2 1_555 1_555
N1_2 Co1 1_555 1_555
C3_2 C5_2 1_555 1_555
C4_2 H1_2 1_555 1_555
C5_2 C7_2 1_555 1_555
C7_2 H2_2 1_555 1_555
C9_2 C7_2 1_555 1_555
C11_2 C4_2 1_555 1_555
C13_2 H4_2 1_555 1_555
C14_2 C9_2 1_555 1_555
C16_2 C14_2 1_555 1_555
H5_2 C16_2 1_555 1_555
C17_2 N1_2 1_555 1_555
H6_2 C17_2 1_555 1_555
C19_2 C13_2 1_555 1_555
C20_2 C5_2 1_555 1_555
H8_2 C20_2 1_555 1_555
C22_2 C11_2 1_555 1_555
H10_2 C22_2 1_555 1_555
C25_2 O5_2 1_555 1_555
C28_2 C19_2 1_555 1_555
C29_2 C4_2 1_555 1_555
H15_2 C29_2 1_555 1_555
C30_2 C26_2 1_555 1_555
H16_2 C30_2 1_555 1_555
C31_2 N1_2 1_555 1_555
H17_2 C31_2 1_555 1_555
H18_2 C32_2 1_555 1_555
C33_2 C28_2 1_555 1_555
H19_2 C33_2 1_555 1_555
C34_2 C19_2 1_555 1_555
H20_2 C34_2 1_555 1_555
O9 Co1 1_555 1_555
O10 Co2 1_555 1_555
O12 Co1 1_555 1_555
N3 Co2 1_555 1_555
C9_2 C29_2 1_555 1_555
C11_2 C25_2 1_555 1_555
C13_2 C17_2 1_555 1_555
C14_2 C22_2 1_555 1_555
C16_2 C20_2 1_555 1_555
C28_2 C30_2 1_555 1_555
C31_2 C34_2 1_555 1_555
C32_2 C33_2 1_555 1_555
O1_2 C12_2 1_555 1_555
O10 C2_2 1_555 1_555
O12 C2_2 1_555 1_555
C1_2 C2_2 1_555 1_555
C6_2 C12_2 1_555 1_555
C8_2 C1_2 1_555 1_555
H3_2 C8_2 1_555 1_555
C10_2 C15_2 1_555 1_555
C15_2 C8_2 1_555 1_555
C18_2 C6_2 1_555 1_555
H7_2 C18_2 1_555 1_555
C21_2 C10_2 1_555 1_555
H9_2 C21_2 1_555 1_555
C23_2 C6_2 1_555 1_555
H11_2 C23_2 1_555 1_555
C24_2 C15_2 1_555 1_555
H12_2 C24_2 1_555 1_555
C27_2 C1_2 1_555 1_555
H14_2 C27_2 1_555 1_555
C10_2 C23_2 1_555 1_555
C18_2 C24_2 1_555 1_555
C21_2 C27_2 1_555 1_555

#END
