
###############################################################################
#
# This file contains modified crystal structure data generated from the
# MOF subset of the Cambridge Structural Database (CSD) v543 
# hosted by the Cambridge Crystallographic Data Centre (CCDC).
#
# This work is licensed under the Creative Commons
# Attribution-NonCommercial-ShareAlike 4.0 International License.
# To view a copy of this license, visit
# http://creativecommons.org/licenses/by-nc-sa/4.0/
# or send a letter to
# Creative Commons, PO Box 1866, Mountain View, CA 94042, USA.
#
# CIF created using the CSD Python API on 29 September 2022
# The structure has been converted into the P1 space group
# The structure has a 3D framework
# The original CSD entry OFECIO is in the monoclinic crystal system
# The framework has been calculated to contain at least 10.0% void space
# The void calculation uses a probe of radius 1.32A, grid spacing 0.4
#
###############################################################################

data_OFECIO
_chemical_formula_moiety         '(C80 H80 Cu8 N16 O32)n'
_symmetry_cell_setting           triclinic
_symmetry_space_group_name_H-M   'P 1'
_symmetry_Int_Tables_number      1
_space_group_name_Hall           'P 1'
loop_
_symmetry_equiv_pos_site_id
_symmetry_equiv_pos_as_xyz
1 x,y,z
_cell_length_a                   24.153(2)
_cell_length_b                   13.120(1)
_cell_length_c                   8.600(1)
_cell_angle_alpha                90
_cell_angle_beta                 92.537(1)
_cell_angle_gamma                90
_cell_volume                     2722.56
loop_
_atom_site_label
_atom_site_type_symbol
_atom_site_fract_x
_atom_site_fract_y
_atom_site_fract_z
H17 H 0.6758 0.1017 0.0778
H18 H 0.7339 0.1144 0.0059
C17 C 0.68186(12) 0.02183(17) 0.8738(3)
H15 H 0.6420 0.0141 0.8618
H16 H 0.6954 0.0377 0.7722
C18 C 0.69437(12) 0.11166(18) 0.9813(3)
C19 C 0.67564(12) 0.21255(17) 0.9083(3)
H19 H 0.6839 0.2672 0.9817
H20 H 0.6358 0.2108 0.8884
C20 C 0.70326(11) 0.23515(17) 0.7580(3)
O7 O 0.75235(8) 0.20573(12) 0.74673(19)
O8 O 0.67533(8) 0.28146(13) 0.65206(19)
Cu3 Cu 0.70522(2) 0.29677(2) 0.44402(3)
Cu8 Cu 0.79478(2) 0.20323(2) 0.55598(3)
Cu4 Cu 0.79478(2) 0.79677(2) 0.05598(3)
O9 O 0.74532(8) 0.57834(12) 0.0102(2)
O13 O 0.67533(8) 0.71854(13) 0.15206(19)
Cu1 Cu 0.29478(2) 0.29677(2) 0.05598(3)
N1 N 0.36282(9) 0.37267(15) 0.1843(2)
C1 C 0.40250(13) 0.3193(2) 0.2575(3)
H1 H 0.4033 0.2492 0.2418
C2 C 0.44307(12) 0.3626(2) 0.3566(3)
H2 H 0.4701 0.3228 0.4075
C3 C 0.44175(12) 0.4667(2) 0.3764(3)
C4 C 0.40093(13) 0.5229(2) 0.3036(4)
H3 H 0.3994 0.5932 0.3168
C5 C 0.36205(12) 0.4730(2) 0.2099(3)
H4 H 0.3337 0.5112 0.1619
N2 N 0.48285(11) 0.5264(2) 0.4705(3)
O1 O 0.32161(8) 0.15738(12) 0.1016(2)
O2 O 0.24532(8) 0.07834(12) 0.0102(2)
C6 C 0.29340(11) 0.07987(18) 0.0728(2)
N3 N 0.63718(9) 0.62733(15) 0.8157(2)
C11 C 0.59750(13) 0.6807(2) 0.7425(3)
H11 H 0.5967 0.7508 0.7582
C12 C 0.55693(12) 0.6374(2) 0.6434(3)
H12 H 0.5299 0.6772 0.5925
C13 C 0.55825(12) 0.5333(2) 0.6236(3)
C14 C 0.59907(13) 0.4771(2) 0.6964(4)
H13 H 0.6006 0.4068 0.6832
C15 C 0.63795(12) 0.5270(2) 0.7901(3)
H14 H 0.6663 0.4888 0.8381
N4 N 0.51715(11) 0.4736(2) 0.5295(3)
Cu2 Cu 0.70522(2) 0.70323(2) 0.94402(3)
O5 O 0.67839(8) 0.84262(12) 0.8984(2)
O6 O 0.75468(8) 0.92166(12) 0.9898(2)
C16 C 0.70660(11) 0.92013(18) 0.9272(2)
O11 O 0.25235(8) 0.29427(12) 0.24673(19)
O12 O 0.74765(8) 0.70573(12) 0.75327(19)
Cu7 Cu 0.20522(2) 0.20323(2) 0.94402(3)
O10 O 0.25468(8) 0.42166(12) 0.9898(2)
O14 O 0.32467(8) 0.28146(13) 0.84794(19)
C7 C 0.31814(12) 0.97817(17) 0.1262(3)
H5 H 0.3580 0.9859 0.1382
H6 H 0.3046 0.9623 0.2278
C8 C 0.30563(12) 0.88834(18) 0.0187(3)
C9 C 0.32436(12) 0.78745(17) 0.0917(3)
H9 H 0.3161 0.7328 0.0183
H10 H 0.3642 0.7892 0.1116
C10 C 0.29674(11) 0.76485(17) 0.2420(3)
O3 O 0.24765(8) 0.79427(12) 0.25327(19)
O4 O 0.32467(8) 0.71854(13) 0.34794(19)
Cu5 Cu 0.20522(2) 0.79677(2) 0.44402(3)
Cu6 Cu 0.29478(2) 0.70323(2) 0.55598(3)
C17_2 C 0.31814(12) 0.02183(17) 0.6262(3)
H15_2 H 0.3580 0.0141 0.6382
H16_2 H 0.3046 0.0377 0.7278
C18_2 C 0.30563(12) 0.11166(18) 0.5187(3)
H17_2 H 0.3242 0.1017 0.4222
H18_2 H 0.2661 0.1144 0.4941
C19_2 C 0.32436(12) 0.21255(17) 0.5917(3)
H19_2 H 0.3161 0.2672 0.5183
H20_2 H 0.3642 0.2108 0.6116
C20_2 C 0.29674(11) 0.23515(17) 0.7420(3)
O7_2 O 0.24765(8) 0.20573(12) 0.75327(19)
N1_2 N 0.63718(9) 0.37267(15) 0.3157(2)
C1_2 C 0.59750(13) 0.3193(2) 0.2425(3)
H1_2 H 0.5967 0.2492 0.2582
C2_2 C 0.55693(12) 0.3626(2) 0.1434(3)
H2_2 H 0.5299 0.3228 0.0925
C3_2 C 0.55825(12) 0.4667(2) 0.1236(3)
C4_2 C 0.59907(13) 0.5229(2) 0.1964(4)
H3_2 H 0.6006 0.5932 0.1832
C5_2 C 0.63795(12) 0.4730(2) 0.2901(3)
H4_2 H 0.6663 0.5112 0.3381
N2_2 N 0.51715(11) 0.5264(2) 0.0295(3)
O1_2 O 0.67839(8) 0.15738(12) 0.3984(2)
O2_2 O 0.75468(8) 0.07834(12) 0.4898(2)
C6_2 C 0.70660(11) 0.07987(18) 0.4272(2)
O10_2 O 0.74532(8) 0.42166(12) 0.5102(2)
O11_2 O 0.74765(8) 0.29427(12) 0.25327(19)
N3_2 N 0.36282(9) 0.62733(15) 0.6843(2)
C11_2 C 0.40250(13) 0.6807(2) 0.7575(3)
H11_2 H 0.4033 0.7508 0.7418
C12_2 C 0.44307(12) 0.6374(2) 0.8566(3)
H12_2 H 0.4701 0.6772 0.9075
C13_2 C 0.44175(12) 0.5333(2) 0.8764(3)
C14_2 C 0.40093(13) 0.4771(2) 0.8036(4)
H13_2 H 0.3994 0.4068 0.8168
C15_2 C 0.36205(12) 0.5270(2) 0.7099(3)
H14_2 H 0.3337 0.4888 0.6619
N4_2 N 0.48285(11) 0.4736(2) 0.9705(3)
O5_2 O 0.32161(8) 0.84262(12) 0.6016(2)
O6_2 O 0.24532(8) 0.92166(12) 0.5102(2)
C16_2 C 0.29340(11) 0.92013(18) 0.5728(2)
O9_2 O 0.25468(8) 0.57834(12) 0.4898(2)
O12_2 O 0.25235(8) 0.70573(12) 0.74673(19)
C7_2 C 0.68186(12) 0.97817(17) 0.3738(3)
H5_2 H 0.6420 0.9859 0.3618
H6_2 H 0.6954 0.9623 0.2722
C8_2 C 0.69437(12) 0.88834(18) 0.4813(3)
H7 H 0.6758 0.8983 0.5778
H8 H 0.7339 0.8856 0.5059
C9_2 C 0.67564(12) 0.78745(17) 0.4083(3)
H9_2 H 0.6839 0.7328 0.4817
H10_2 H 0.6358 0.7892 0.3884
C10_2 C 0.70326(11) 0.76485(17) 0.2580(3)
O3_2 O 0.75235(8) 0.79427(12) 0.24673(19)
H17_3 H 0.1758 0.6017 0.0778
H18_3 H 0.2339 0.6144 0.0059
O13_2 O 0.17533(8) 0.21854(13) 0.15206(19)
N3_3 N 0.13718(9) 0.12733(15) 0.8157(2)
C11_3 C 0.09750(13) 0.1807(2) 0.7425(3)
H11_3 H 0.0967 0.2508 0.7582
C12_3 C 0.05693(12) 0.1374(2) 0.6434(3)
H12_3 H 0.0299 0.1772 0.5925
C13_3 C 0.05825(12) 0.0333(2) 0.6236(3)
C15_3 C 0.13795(12) 0.0270(2) 0.7901(3)
O5_3 O 0.17839(8) 0.34262(12) 0.8984(2)
C16_3 C 0.20660(11) 0.42013(18) 0.9272(2)
C17_3 C 0.18186(12) 0.52183(17) 0.8738(3)
H15_3 H 0.1420 0.5141 0.8618
H16_3 H 0.1954 0.5377 0.7722
C18_3 C 0.19437(12) 0.61166(18) 0.9813(3)
C19_3 C 0.17564(12) 0.71255(17) 0.9083(3)
H19_3 H 0.1839 0.7672 0.9817
H20_3 H 0.1358 0.7108 0.8884
C20_3 C 0.20326(11) 0.73515(17) 0.7580(3)
O8_2 O 0.17533(8) 0.78146(13) 0.65206(19)
N1_3 N 0.86282(9) 0.87267(15) 0.1843(2)
C1_3 C 0.90250(13) 0.8193(2) 0.2575(3)
H1_3 H 0.9033 0.7492 0.2418
C2_3 C 0.94307(12) 0.8626(2) 0.3566(3)
H2_3 H 0.9701 0.8228 0.4075
C3_3 C 0.94175(12) 0.9667(2) 0.3764(3)
C5_3 C 0.86205(12) 0.9730(2) 0.2099(3)
O1_3 O 0.82161(8) 0.65738(12) 0.1016(2)
C6_3 C 0.79340(11) 0.57987(18) 0.0728(2)
C7_3 C 0.81814(12) 0.47817(17) 0.1262(3)
H5_3 H 0.8580 0.4859 0.1382
H6_3 H 0.8046 0.4623 0.2278
C8_3 C 0.80563(12) 0.38834(18) 0.0187(3)
C9_3 C 0.82436(12) 0.28745(17) 0.0917(3)
H9_3 H 0.8161 0.2328 0.0183
H10_3 H 0.8642 0.2892 0.1116
C10_3 C 0.79674(11) 0.26485(17) 0.2420(3)
O4_2 O 0.82467(8) 0.21854(13) 0.34794(19)
H7_2 H 0.8242 0.3983 0.9222
H8_2 H 0.7661 0.3856 0.9941
O14_2 O 0.82467(8) 0.78146(13) 0.84794(19)
N1_4 N 0.13718(9) 0.87267(15) 0.3157(2)
C1_4 C 0.09750(13) 0.8193(2) 0.2425(3)
H1_4 H 0.0967 0.7492 0.2582
C2_4 C 0.05693(12) 0.8626(2) 0.1434(3)
H2_4 H 0.0299 0.8228 0.0925
C3_4 C 0.05825(12) 0.9667(2) 0.1236(3)
C5_4 C 0.13795(12) 0.9730(2) 0.2901(3)
O1_4 O 0.17839(8) 0.65738(12) 0.3984(2)
C6_4 C 0.20660(11) 0.57987(18) 0.4272(2)
C7_4 C 0.18186(12) 0.47817(17) 0.3738(3)
H5_4 H 0.1420 0.4859 0.3618
H6_4 H 0.1954 0.4623 0.2722
C8_4 C 0.19437(12) 0.38834(18) 0.4813(3)
H7_3 H 0.1758 0.3983 0.5778
H8_3 H 0.2339 0.3856 0.5059
C9_4 C 0.17564(12) 0.28745(17) 0.4083(3)
H9_4 H 0.1839 0.2328 0.4817
H10_4 H 0.1358 0.2892 0.3884
C10_4 C 0.20326(11) 0.26485(17) 0.2580(3)
N3_4 N 0.86282(9) 0.12733(15) 0.6843(2)
C11_4 C 0.90250(13) 0.1807(2) 0.7575(3)
H11_4 H 0.9033 0.2508 0.7418
C12_4 C 0.94307(12) 0.1374(2) 0.8566(3)
H12_4 H 0.9701 0.1772 0.9075
C13_4 C 0.94175(12) 0.0333(2) 0.8764(3)
C15_4 C 0.86205(12) 0.0270(2) 0.7099(3)
O5_4 O 0.82161(8) 0.34262(12) 0.6016(2)
C16_4 C 0.79340(11) 0.42013(18) 0.5728(2)
C17_4 C 0.81814(12) 0.52183(17) 0.6262(3)
H15_4 H 0.8580 0.5141 0.6382
H16_4 H 0.8046 0.5377 0.7278
C18_4 C 0.80563(12) 0.61166(18) 0.5187(3)
H17_4 H 0.8242 0.6017 0.4222
H18_4 H 0.7661 0.6144 0.4941
C19_4 C 0.82436(12) 0.71255(17) 0.5917(3)
H19_4 H 0.8161 0.7672 0.5183
H20_4 H 0.8642 0.7108 0.6116
C20_4 C 0.79674(11) 0.73515(17) 0.7420(3)
H7_4 H 0.3242 0.8983 0.9222
H8_4 H 0.2661 0.8856 0.9941
C14_3 C 0.09907(13) 0.9771(2) 0.6964(4)
H13_3 H 0.1006 0.9068 0.6832
H14_3 H 0.1663 0.9888 0.8381
N4_3 N 0.01715(11) 0.9736(2) 0.5295(3)
C4_3 C 0.90093(13) 0.0229(2) 0.3036(4)
H3_3 H 0.8994 0.0932 0.3168
H4_3 H 0.8337 0.0112 0.1619
N2_3 N 0.98285(11) 0.0264(2) 0.4705(3)
C4_4 C 0.09907(13) 0.0229(2) 0.1964(4)
H3_4 H 0.1006 0.0932 0.1832
H4_4 H 0.1663 0.0112 0.3381
N2_4 N 0.01715(11) 0.0264(2) 0.0295(3)
C14_4 C 0.90093(13) 0.9771(2) 0.8036(4)
H13_4 H 0.8994 0.9068 0.8168
H14_4 H 0.8337 0.9888 0.6619
N4_4 N 0.98285(11) 0.9736(2) 0.9705(3)
loop_
_geom_bond_atom_site_label_1
_geom_bond_atom_site_label_2
_geom_bond_site_symmetry_1
_geom_bond_site_symmetry_2
H15 C17 1_555 1_555
H16 C17 1_555 1_555
C18 C17 1_555 1_555
C19 C18 1_555 1_555
H19 C19 1_555 1_555
H20 C19 1_555 1_555
C20 C19 1_555 1_555
O7 C20 1_555 1_555
O8 C20 1_555 1_555
Cu3 O8 1_555 1_555
Cu8 O7 1_555 1_555
Cu3 Cu8 1_555 1_555
Cu1 N1 1_555 1_555
N1 C1 1_555 1_555
C1 H1 1_555 1_555
C2 C1 1_555 1_555
H2 C2 1_555 1_555
C3 C2 1_555 1_555
C4 C3 1_555 1_555
H3 C4 1_555 1_555
C5 N1 1_555 1_555
H4 C5 1_555 1_555
N2 C3 1_555 1_555
O1 Cu1 1_555 1_555
O2 C6 1_555 1_555
C6 O1 1_555 1_555
N3 C11 1_555 1_555
C11 H11 1_555 1_555
C12 C11 1_555 1_555
H12 C12 1_555 1_555
C13 C12 1_555 1_555
C14 C13 1_555 1_555
H13 C14 1_555 1_555
C15 N3 1_555 1_555
H14 C15 1_555 1_555
N4 N2 1_555 1_555
Cu2 N3 1_555 1_555
O5 Cu2 1_555 1_555
O6 C16 1_555 1_555
C16 O5 1_555 1_555
O11 Cu1 1_555 1_555
O12 Cu2 1_555 1_555
C4 C5 1_555 1_555
C13 N4 1_555 1_555
C14 C15 1_555 1_555
H5 C7 1_555 1_555
H6 C7 1_555 1_555
C8 C7 1_555 1_555
C9 C8 1_555 1_555
H9 C9 1_555 1_555
H10 C9 1_555 1_555
C10 C9 1_555 1_555
O3 C10 1_555 1_555
O4 C10 1_555 1_555
Cu5 O3 1_555 1_555
Cu6 O4 1_555 1_555
Cu5 Cu6 1_555 1_555
H15_2 C17_2 1_555 1_555
H16_2 C17_2 1_555 1_555
C18_2 C17_2 1_555 1_555
H17_2 C18_2 1_555 1_555
H18_2 C18_2 1_555 1_555
C19_2 C18_2 1_555 1_555
H19_2 C19_2 1_555 1_555
H20_2 C19_2 1_555 1_555
C20_2 C19_2 1_555 1_555
O7_2 C20_2 1_555 1_555
O14 C20_2 1_555 1_555
Cu7 O7_2 1_555 1_555
Cu3 N1_2 1_555 1_555
N1_2 C1_2 1_555 1_555
C1_2 H1_2 1_555 1_555
C2_2 C1_2 1_555 1_555
H2_2 C2_2 1_555 1_555
C3_2 C2_2 1_555 1_555
C4_2 C3_2 1_555 1_555
H3_2 C4_2 1_555 1_555
C5_2 N1_2 1_555 1_555
H4_2 C5_2 1_555 1_555
N2_2 C3_2 1_555 1_555
O1_2 Cu3 1_555 1_555
O2_2 C6_2 1_555 1_555
C6_2 O1_2 1_555 1_555
O10_2 Cu3 1_555 1_555
O11_2 Cu3 1_555 1_555
C4_2 C5_2 1_555 1_555
O2_2 Cu8 1_555 1_555
N3_2 C11_2 1_555 1_555
C11_2 H11_2 1_555 1_555
C12_2 C11_2 1_555 1_555
H12_2 C12_2 1_555 1_555
C13_2 C12_2 1_555 1_555
C14_2 C13_2 1_555 1_555
H13_2 C14_2 1_555 1_555
C15_2 N3_2 1_555 1_555
H14_2 C15_2 1_555 1_555
Cu6 N3_2 1_555 1_555
O5_2 Cu6 1_555 1_555
O6_2 C16_2 1_555 1_555
C16_2 O5_2 1_555 1_555
O9_2 Cu6 1_555 1_555
O12_2 Cu6 1_555 1_555
C13_2 N4_2 1_555 1_555
C14_2 C15_2 1_555 1_555
O6_2 Cu5 1_555 1_555
H5_2 C7_2 1_555 1_555
H6_2 C7_2 1_555 1_555
C8_2 C7_2 1_555 1_555
H7 C8_2 1_555 1_555
H8 C8_2 1_555 1_555
C9_2 C8_2 1_555 1_555
H9_2 C9_2 1_555 1_555
H10_2 C9_2 1_555 1_555
C10_2 C9_2 1_555 1_555
O3_2 C10_2 1_555 1_555
O13 C10_2 1_555 1_555
Cu4 O3_2 1_555 1_555
N3_3 C11_3 1_555 1_555
C11_3 H11_3 1_555 1_555
C12_3 C11_3 1_555 1_555
H12_3 C12_3 1_555 1_555
C13_3 C12_3 1_555 1_555
C15_3 N3_3 1_555 1_555
Cu7 N3_3 1_555 1_555
O5_3 Cu7 1_555 1_555
O10 C16_3 1_555 1_555
C16_3 O5_3 1_555 1_555
C17_3 C16_3 1_555 1_555
H15_3 C17_3 1_555 1_555
H16_3 C17_3 1_555 1_555
C18_3 C17_3 1_555 1_555
C19_3 C18_3 1_555 1_555
H19_3 C19_3 1_555 1_555
H20_3 C19_3 1_555 1_555
C20_3 C19_3 1_555 1_555
O12_2 C20_3 1_555 1_555
O8_2 C20_3 1_555 1_555
Cu5 O8_2 1_555 1_555
Cu4 N1_3 1_555 1_555
N1_3 C1_3 1_555 1_555
C1_3 H1_3 1_555 1_555
C2_3 C1_3 1_555 1_555
H2_3 C2_3 1_555 1_555
C3_3 C2_3 1_555 1_555
C5_3 N1_3 1_555 1_555
O1_3 Cu4 1_555 1_555
O9 C6_3 1_555 1_555
C6_3 O1_3 1_555 1_555
C7_3 C6_3 1_555 1_555
H5_3 C7_3 1_555 1_555
H6_3 C7_3 1_555 1_555
C8_3 C7_3 1_555 1_555
C9_3 C8_3 1_555 1_555
H9_3 C9_3 1_555 1_555
H10_3 C9_3 1_555 1_555
C10_3 C9_3 1_555 1_555
O11_2 C10_3 1_555 1_555
O4_2 C10_3 1_555 1_555
Cu8 O4_2 1_555 1_555
Cu5 N1_4 1_555 1_555
N1_4 C1_4 1_555 1_555
C1_4 H1_4 1_555 1_555
C2_4 C1_4 1_555 1_555
H2_4 C2_4 1_555 1_555
C3_4 C2_4 1_555 1_555
C5_4 N1_4 1_555 1_555
O1_4 Cu5 1_555 1_555
O9_2 C6_4 1_555 1_555
C6_4 O1_4 1_555 1_555
C7_4 C6_4 1_555 1_555
H5_4 C7_4 1_555 1_555
H6_4 C7_4 1_555 1_555
C8_4 C7_4 1_555 1_555
H7_3 C8_4 1_555 1_555
H8_3 C8_4 1_555 1_555
C9_4 C8_4 1_555 1_555
H9_4 C9_4 1_555 1_555
H10_4 C9_4 1_555 1_555
C10_4 C9_4 1_555 1_555
O11 C10_4 1_555 1_555
O13_2 C10_4 1_555 1_555
N3_4 C11_4 1_555 1_555
C11_4 H11_4 1_555 1_555
C12_4 C11_4 1_555 1_555
H12_4 C12_4 1_555 1_555
C13_4 C12_4 1_555 1_555
C15_4 N3_4 1_555 1_555
Cu8 N3_4 1_555 1_555
O5_4 Cu8 1_555 1_555
O10_2 C16_4 1_555 1_555
C16_4 O5_4 1_555 1_555
C17_4 C16_4 1_555 1_555
H15_4 C17_4 1_555 1_555
H16_4 C17_4 1_555 1_555
C18_4 C17_4 1_555 1_555
H17_4 C18_4 1_555 1_555
H18_4 C18_4 1_555 1_555
C19_4 C18_4 1_555 1_555
H19_4 C19_4 1_555 1_555
H20_4 C19_4 1_555 1_555
C20_4 C19_4 1_555 1_555
O12 C20_4 1_555 1_555
O14_2 C20_4 1_555 1_555
H13_3 C14_3 1_555 1_555
H3_3 C4_3 1_555 1_555
H3_4 C4_4 1_555 1_555
H13_4 C14_4 1_555 1_555

#END
