
###############################################################################
#
# This file contains modified crystal structure data generated from the
# MOF subset of the Cambridge Structural Database (CSD) v543 
# hosted by the Cambridge Crystallographic Data Centre (CCDC).
#
# This work is licensed under the Creative Commons
# Attribution-NonCommercial-ShareAlike 4.0 International License.
# To view a copy of this license, visit
# http://creativecommons.org/licenses/by-nc-sa/4.0/
# or send a letter to
# Creative Commons, PO Box 1866, Mountain View, CA 94042, USA.
#
# CIF created using the CSD Python API on 29 September 2022
# The structure has been converted into the P1 space group
# The structure has a 3D framework
# The original CSD entry OFERUN07 is in the cubic crystal system
# The framework has been calculated to contain at least 10.0% void space
# The void calculation uses a probe of radius 1.32A, grid spacing 0.4
#
###############################################################################

data_OFERUN07
_chemical_formula_moiety         '(C96 H120 N48 Zn12)n'
_symmetry_cell_setting           triclinic
_symmetry_space_group_name_H-M   'P 1'
_symmetry_Int_Tables_number      1
_space_group_name_Hall           'P 1'
loop_
_symmetry_equiv_pos_site_id
_symmetry_equiv_pos_as_xyz
1 x,y,z
_cell_length_a                   16.9386(8)
_cell_length_b                   16.9386(8)
_cell_length_c                   16.9386(8)
_cell_angle_alpha                90
_cell_angle_beta                 90
_cell_angle_gamma                90
_cell_volume                     4859.96
loop_
_atom_site_label
_atom_site_type_symbol
_atom_site_fract_x
_atom_site_fract_y
_atom_site_fract_z
Zn1 Zn 0.750 0.500 0.000
C2 C 0.62354(4) 0.62354(4) 0.00622(11)
C3 C 0.59655(7) 0.59655(7) 0.08573(7)
H2 H 0.553694 0.553694 0.080861
H3 H 0.569183 0.638433 0.119870
H5 H 0.638433 0.569183 0.119870
N3 N 0.68235(4) 0.41038(4) 0.03439(4)
C5 C 0.68563(6) 0.37116(6) 0.10566(5)
H6 H 0.727973 0.386034 0.146776
N4 N 0.58962(4) 0.31765(4) 0.03439(4)
C8 C 0.62884(6) 0.31437(6) 0.10566(5)
H9 H 0.613966 0.272027 0.146776
Zn2 Zn 0.500 0.750 0.000
Zn3 Zn 0.500 0.250 0.000
N5 N 0.81765(4) 0.53439(4) 0.08962(4)
Zn1_2 Zn 0.750 0.500 1.000
N1 N 0.68235(4) 0.58962(4) 0.96561(4)
C1 C 0.68563(6) 0.62884(6) 0.89434(5)
H1 H 0.727973 0.613966 0.853224
N2 N 0.58962(4) 0.68235(4) 0.96561(4)
C4 C 0.62884(6) 0.68563(6) 0.89434(5)
H4 H 0.613966 0.727973 0.853224
C6 C 0.62354(4) 0.37646(4) 0.99378(11)
C7 C 0.59655(7) 0.40345(7) 0.91427(7)
H7 H 0.553694 0.446306 0.919139
H8 H 0.569183 0.361567 0.880130
H10 H 0.638433 0.430817 0.880130
Zn2_2 Zn 0.500 0.750 1.000
Zn3_2 Zn 0.500 0.250 1.000
N6 N 0.81765(4) 0.46561(4) 0.91038(4)
Zn1_3 Zn 0.250 0.500 0.000
C2_2 C 0.37646(4) 0.37646(4) 0.00622(11)
C3_2 C 0.40345(7) 0.40345(7) 0.08573(7)
H2_2 H 0.446306 0.446306 0.080861
H3_2 H 0.430817 0.361567 0.119870
H5_2 H 0.361567 0.430817 0.119870
N3_2 N 0.31765(4) 0.58962(4) 0.03439(4)
C5_2 C 0.31437(6) 0.62884(6) 0.10566(5)
H6_2 H 0.272027 0.613966 0.146776
N4_2 N 0.41038(4) 0.68235(4) 0.03439(4)
C8_2 C 0.37116(6) 0.68563(6) 0.10566(5)
H9_2 H 0.386034 0.727973 0.146776
N5_2 N 0.18235(4) 0.46561(4) 0.08962(4)
Zn1_4 Zn 0.250 0.500 1.000
N1_2 N 0.31765(4) 0.41038(4) 0.96561(4)
C1_2 C 0.31437(6) 0.37116(6) 0.89434(5)
H1_2 H 0.272027 0.386034 0.853224
N2_2 N 0.41038(4) 0.31765(4) 0.96561(4)
C4_2 C 0.37116(6) 0.31437(6) 0.89434(5)
H4_2 H 0.386034 0.272027 0.853224
C6_2 C 0.37646(4) 0.62354(4) 0.99378(11)
C7_2 C 0.40345(7) 0.59655(7) 0.91427(7)
H7_2 H 0.446306 0.553694 0.919139
H8_2 H 0.430817 0.638433 0.880130
H10_2 H 0.361567 0.569183 0.880130
N6_2 N 0.18235(4) 0.53439(4) 0.91038(4)
Zn1_5 Zn 0.000 0.750 0.500
C2_3 C 0.00622(11) 0.62354(4) 0.62354(4)
C3_3 C 0.08573(7) 0.59655(7) 0.59655(7)
H2_3 H 0.080861 0.553694 0.553694
H3_3 H 0.119870 0.569183 0.638433
H5_3 H 0.119870 0.638433 0.569183
N3_3 N 0.03439(4) 0.68235(4) 0.41038(4)
C5_3 C 0.10566(5) 0.68563(6) 0.37116(6)
H6_3 H 0.146776 0.727973 0.386034
N4_3 N 0.03439(4) 0.58962(4) 0.31765(4)
C8_3 C 0.10566(5) 0.62884(6) 0.31437(6)
H9_3 H 0.146776 0.613966 0.272027
Zn2_3 Zn 0.000 0.500 0.750
Zn3_3 Zn 0.000 0.500 0.250
N5_3 N 0.08962(4) 0.81765(4) 0.53439(4)
Zn1_6 Zn 1.000 0.750 0.500
N1_3 N 0.96561(4) 0.68235(4) 0.58962(4)
C1_3 C 0.89434(5) 0.68563(6) 0.62884(6)
H1_3 H 0.853224 0.727973 0.613966
N2_3 N 0.96561(4) 0.58962(4) 0.68235(4)
C4_3 C 0.89434(5) 0.62884(6) 0.68563(6)
H4_3 H 0.853224 0.613966 0.727973
C6_3 C 0.99378(11) 0.62354(4) 0.37646(4)
C7_3 C 0.91427(7) 0.59655(7) 0.40345(7)
H7_3 H 0.919139 0.553694 0.446306
H8_3 H 0.880130 0.569183 0.361567
H10_3 H 0.880130 0.638433 0.430817
Zn2_4 Zn 1.000 0.500 0.750
Zn3_4 Zn 1.000 0.500 0.250
N6_3 N 0.91038(4) 0.81765(4) 0.46561(4)
Zn1_7 Zn 0.500 0.000 0.750
C2_4 C 0.62354(4) 0.00622(11) 0.62354(4)
C3_4 C 0.59655(7) 0.08573(7) 0.59655(7)
H2_4 H 0.553694 0.080861 0.553694
H3_4 H 0.638433 0.119870 0.569183
H5_4 H 0.569183 0.119870 0.638433
N3_4 N 0.41038(4) 0.03439(4) 0.68235(4)
C5_4 C 0.37116(6) 0.10566(5) 0.68563(6)
H6_4 H 0.386034 0.146776 0.727973
N4_4 N 0.31765(4) 0.03439(4) 0.58962(4)
C8_4 C 0.31437(6) 0.10566(5) 0.62884(6)
H9_4 H 0.272027 0.146776 0.613966
Zn2_5 Zn 0.750 0.000 0.500
Zn3_5 Zn 0.250 0.000 0.500
N5_4 N 0.53439(4) 0.08962(4) 0.81765(4)
Zn1_8 Zn 0.500 1.000 0.750
N1_4 N 0.58962(4) 0.96561(4) 0.68235(4)
C1_4 C 0.62884(6) 0.89434(5) 0.68563(6)
H1_4 H 0.613966 0.853224 0.727973
N2_4 N 0.68235(4) 0.96561(4) 0.58962(4)
C4_4 C 0.68563(6) 0.89434(5) 0.62884(6)
H4_4 H 0.727973 0.853224 0.613966
C6_4 C 0.37646(4) 0.99378(11) 0.62354(4)
C7_4 C 0.40345(7) 0.91427(7) 0.59655(7)
H7_4 H 0.446306 0.919139 0.553694
H8_4 H 0.361567 0.880130 0.569183
H10_4 H 0.430817 0.880130 0.638433
Zn2_6 Zn 0.750 1.000 0.500
Zn3_6 Zn 0.250 1.000 0.500
N6_4 N 0.46561(4) 0.91038(4) 0.81765(4)
Zn1_9 Zn -0.000 0.250 0.500
N1_5 N 0.03439(4) 0.31765(4) 0.58962(4)
C1_5 C 0.10566(5) 0.31437(6) 0.62884(6)
H1_5 H 0.146776 0.272027 0.613966
N2_5 N 0.03439(4) 0.41038(4) 0.68235(4)
C4_5 C 0.10566(5) 0.37116(6) 0.68563(6)
H4_5 H 0.146776 0.386034 0.727973
C6_5 C 0.00622(11) 0.37646(4) 0.37646(4)
C7_5 C 0.08573(7) 0.40345(7) 0.40345(7)
H7_5 H 0.080861 0.446306 0.446306
H8_5 H 0.119870 0.430817 0.361567
H10_5 H 0.119870 0.361567 0.430817
N6_5 N 0.08962(4) 0.18235(4) 0.46561(4)
Zn1_10 Zn 1.000 0.250 0.500
C2_5 C 0.99378(11) 0.37646(4) 0.62354(4)
C3_5 C 0.91427(7) 0.40345(7) 0.59655(7)
H2_5 H 0.919139 0.446306 0.553694
H3_5 H 0.880130 0.430817 0.638433
H5_5 H 0.880130 0.361567 0.569183
N3_5 N 0.96561(4) 0.31765(4) 0.41038(4)
C5_5 C 0.89434(5) 0.31437(6) 0.37116(6)
H6_5 H 0.853224 0.272027 0.386034
N4_5 N 0.96561(4) 0.41038(4) 0.31765(4)
C8_5 C 0.89434(5) 0.37116(6) 0.31437(6)
H9_5 H 0.853224 0.386034 0.272027
N5_5 N 0.91038(4) 0.18235(4) 0.53439(4)
Zn1_11 Zn 0.500 0.000 0.250
C2_6 C 0.37646(4) 0.00622(11) 0.37646(4)
C3_6 C 0.40345(7) 0.08573(7) 0.40345(7)
H2_6 H 0.446306 0.080861 0.446306
H3_6 H 0.361567 0.119870 0.430817
H5_6 H 0.430817 0.119870 0.361567
N3_6 N 0.58962(4) 0.03439(4) 0.31765(4)
C5_6 C 0.62884(6) 0.10566(5) 0.31437(6)
H6_6 H 0.613966 0.146776 0.272027
N4_6 N 0.68235(4) 0.03439(4) 0.41038(4)
C8_6 C 0.68563(6) 0.10566(5) 0.37116(6)
H9_6 H 0.727973 0.146776 0.386034
N5_6 N 0.46561(4) 0.08962(4) 0.18235(4)
Zn1_12 Zn 0.500 1.000 0.250
N1_6 N 0.41038(4) 0.96561(4) 0.31765(4)
C1_6 C 0.37116(6) 0.89434(5) 0.31437(6)
H1_6 H 0.386034 0.853224 0.272027
N2_6 N 0.31765(4) 0.96561(4) 0.41038(4)
C4_6 C 0.31437(6) 0.89434(5) 0.37116(6)
H4_6 H 0.272027 0.853224 0.386034
C6_6 C 0.62354(4) 0.99378(11) 0.37646(4)
C7_6 C 0.59655(7) 0.91427(7) 0.40345(7)
H7_6 H 0.553694 0.919139 0.446306
H8_6 H 0.638433 0.880130 0.430817
H10_6 H 0.569183 0.880130 0.361567
N6_6 N 0.53439(4) 0.91038(4) 0.18235(4)
N5_7 N 0.53439(4) 0.81765(4) 0.08962(4)
N6_7 N 0.46561(4) 0.81765(4) 0.91038(4)
N5_8 N 0.46561(4) 0.18235(4) 0.08962(4)
N6_8 N 0.53439(4) 0.18235(4) 0.91038(4)
N5_9 N 0.81765(4) 0.08962(4) 0.53439(4)
N6_9 N 0.81765(4) 0.91038(4) 0.46561(4)
N5_10 N 0.08962(4) 0.53439(4) 0.81765(4)
N6_10 N 0.91038(4) 0.46561(4) 0.81765(4)
N6_11 N 0.18235(4) 0.08962(4) 0.46561(4)
N5_11 N 0.18235(4) 0.91038(4) 0.53439(4)
N5_12 N 0.08962(4) 0.46561(4) 0.18235(4)
N6_12 N 0.91038(4) 0.53439(4) 0.18235(4)
C1_7 C 0.18563(6) 0.12884(6) 0.39434(5)
C2_7 C 0.12354(4) 0.12354(4) 0.50622(11)
C3_7 C 0.09655(7) 0.09655(7) 0.58573(7)
H1_7 H 0.227973 0.113966 0.353224
H2_7 H 0.053694 0.053694 0.580861
H3_7 H 0.069183 0.138433 0.619870
C4_7 C 0.12884(6) 0.18563(6) 0.39434(5)
H4_7 H 0.113966 0.227973 0.353224
H5_7 H 0.138433 0.069183 0.619870
C5_7 C 0.18563(6) 0.87116(6) 0.60566(5)
C6_7 C 0.12354(4) 0.87646(4) 0.49378(11)
C7_7 C 0.09655(7) 0.90345(7) 0.41427(7)
H6_7 H 0.227973 0.886034 0.646776
H7_7 H 0.053694 0.946306 0.419139
H8_7 H 0.069183 0.861567 0.380130
C8_7 C 0.12884(6) 0.81437(6) 0.60566(5)
H9_7 H 0.113966 0.772027 0.646776
H10_7 H 0.138433 0.930817 0.380130
C5_8 C 0.81437(6) 0.12884(6) 0.60566(5)
C6_8 C 0.87646(4) 0.12354(4) 0.49378(11)
C7_8 C 0.90345(7) 0.09655(7) 0.41427(7)
H6_8 H 0.772027 0.113966 0.646776
H7_8 H 0.946306 0.053694 0.419139
H8_8 H 0.930817 0.138433 0.380130
C8_8 C 0.87116(6) 0.18563(6) 0.60566(5)
H9_8 H 0.886034 0.227973 0.646776
H10_8 H 0.861567 0.069183 0.380130
C1_8 C 0.81437(6) 0.87116(6) 0.39434(5)
C2_8 C 0.87646(4) 0.87646(4) 0.50622(11)
C3_8 C 0.90345(7) 0.90345(7) 0.58573(7)
H1_8 H 0.772027 0.886034 0.353224
H2_8 H 0.946306 0.946306 0.580861
H3_8 H 0.930817 0.861567 0.619870
C4_8 C 0.87116(6) 0.81437(6) 0.39434(5)
H4_8 H 0.886034 0.772027 0.353224
H5_8 H 0.861567 0.930817 0.619870
C1_9 C 0.39434(5) 0.18563(6) 0.12884(6)
C2_9 C 0.50622(11) 0.12354(4) 0.12354(4)
C3_9 C 0.58573(7) 0.09655(7) 0.09655(7)
H1_9 H 0.353224 0.227973 0.113966
H2_9 H 0.580861 0.053694 0.053694
H3_9 H 0.619870 0.069183 0.138433
C4_9 C 0.39434(5) 0.12884(6) 0.18563(6)
H4_9 H 0.353224 0.113966 0.227973
H5_9 H 0.619870 0.138433 0.069183
C5_9 C 0.60566(5) 0.18563(6) 0.87116(6)
C6_9 C 0.49378(11) 0.12354(4) 0.87646(4)
C7_9 C 0.41427(7) 0.09655(7) 0.90345(7)
H6_9 H 0.646776 0.227973 0.886034
H7_9 H 0.419139 0.053694 0.946306
H8_9 H 0.380130 0.069183 0.861567
C8_9 C 0.60566(5) 0.12884(6) 0.81437(6)
H9_9 H 0.646776 0.113966 0.772027
H10_9 H 0.380130 0.138433 0.930817
C1_10 C 0.12884(6) 0.39434(5) 0.18563(6)
C2_10 C 0.12354(4) 0.50622(11) 0.12354(4)
C3_10 C 0.09655(7) 0.58573(7) 0.09655(7)
H1_10 H 0.113966 0.353224 0.227973
H2_10 H 0.053694 0.580861 0.053694
H3_10 H 0.138433 0.619870 0.069183
C4_10 C 0.18563(6) 0.39434(5) 0.12884(6)
H4_10 H 0.227973 0.353224 0.113966
H5_10 H 0.069183 0.619870 0.138433
C5_10 C 0.87116(6) 0.60566(5) 0.18563(6)
C6_10 C 0.87646(4) 0.49378(11) 0.12354(4)
C7_10 C 0.90345(7) 0.41427(7) 0.09655(7)
H6_10 H 0.886034 0.646776 0.227973
H7_10 H 0.946306 0.419139 0.053694
H8_10 H 0.861567 0.380130 0.069183
C8_10 C 0.81437(6) 0.60566(5) 0.12884(6)
H9_10 H 0.772027 0.646776 0.113966
H10_10 H 0.930817 0.380130 0.138433
C1_11 C 0.60566(5) 0.81437(6) 0.12884(6)
C2_11 C 0.49378(11) 0.87646(4) 0.12354(4)
C3_11 C 0.41427(7) 0.90345(7) 0.09655(7)
H1_11 H 0.646776 0.772027 0.113966
H2_11 H 0.419139 0.946306 0.053694
H3_11 H 0.380130 0.930817 0.138433
C4_11 C 0.60566(5) 0.87116(6) 0.18563(6)
H4_11 H 0.646776 0.886034 0.227973
H5_11 H 0.380130 0.861567 0.069183
C5_11 C 0.39434(5) 0.81437(6) 0.87116(6)
C6_11 C 0.50622(11) 0.87646(4) 0.87646(4)
C7_11 C 0.58573(7) 0.90345(7) 0.90345(7)
H6_11 H 0.353224 0.772027 0.886034
H7_11 H 0.580861 0.946306 0.946306
H8_11 H 0.619870 0.930817 0.861567
C8_11 C 0.39434(5) 0.87116(6) 0.81437(6)
H9_11 H 0.353224 0.886034 0.772027
H10_11 H 0.619870 0.861567 0.930817
C5_12 C 0.12884(6) 0.60566(5) 0.81437(6)
C6_12 C 0.12354(4) 0.49378(11) 0.87646(4)
C7_12 C 0.09655(7) 0.41427(7) 0.90345(7)
H6_12 H 0.113966 0.646776 0.772027
H7_12 H 0.053694 0.419139 0.946306
H8_12 H 0.138433 0.380130 0.930817
C8_12 C 0.18563(6) 0.60566(5) 0.87116(6)
H9_12 H 0.227973 0.646776 0.886034
H10_12 H 0.069183 0.380130 0.861567
C1_12 C 0.87116(6) 0.39434(5) 0.81437(6)
C2_12 C 0.87646(4) 0.50622(11) 0.87646(4)
C3_12 C 0.90345(7) 0.58573(7) 0.90345(7)
H1_12 H 0.886034 0.353224 0.772027
H2_12 H 0.946306 0.580861 0.946306
H3_12 H 0.861567 0.619870 0.930817
C4_12 C 0.81437(6) 0.39434(5) 0.87116(6)
H4_12 H 0.772027 0.353224 0.886034
H5_12 H 0.930817 0.619870 0.861567
loop_
_geom_bond_atom_site_label_1
_geom_bond_atom_site_label_2
_geom_bond_site_symmetry_1
_geom_bond_site_symmetry_2
C3 C2 1_555 1_555
H2 C3 1_555 1_555
H3 C3 1_555 1_555
H5 C3 1_555 1_555
N3 Zn1 1_555 1_555
C5 N3 1_555 1_555
H6 C5 1_555 1_555
C8 C5 1_555 1_555
H9 C8 1_555 1_555
Zn3 N4 1_555 1_555
N5 Zn1 1_555 1_555
N4 C8 1_555 1_555
Zn1_2 N1 1_555 1_555
N1 C1 1_555 1_555
C1 H1 1_555 1_555
C4 C1 1_555 1_555
H4 C4 1_555 1_555
C7 C6 1_555 1_555
H7 C7 1_555 1_555
H8 C7 1_555 1_555
H10 C7 1_555 1_555
Zn2_2 N2 1_555 1_555
N6 Zn1_2 1_555 1_555
N2 C4 1_555 1_555
C3_2 C2_2 1_555 1_555
H2_2 C3_2 1_555 1_555
H3_2 C3_2 1_555 1_555
H5_2 C3_2 1_555 1_555
N3_2 Zn1_3 1_555 1_555
C5_2 N3_2 1_555 1_555
H6_2 C5_2 1_555 1_555
C8_2 C5_2 1_555 1_555
H9_2 C8_2 1_555 1_555
Zn2 N4_2 1_555 1_555
N5_2 Zn1_3 1_555 1_555
N4_2 C8_2 1_555 1_555
Zn1_4 N1_2 1_555 1_555
N1_2 C1_2 1_555 1_555
C1_2 H1_2 1_555 1_555
C4_2 C1_2 1_555 1_555
H4_2 C4_2 1_555 1_555
C7_2 C6_2 1_555 1_555
H7_2 C7_2 1_555 1_555
H8_2 C7_2 1_555 1_555
H10_2 C7_2 1_555 1_555
Zn3_2 N2_2 1_555 1_555
N6_2 Zn1_4 1_555 1_555
N2_2 C4_2 1_555 1_555
C3_3 C2_3 1_555 1_555
H2_3 C3_3 1_555 1_555
H3_3 C3_3 1_555 1_555
H5_3 C3_3 1_555 1_555
N3_3 Zn1_5 1_555 1_555
C5_3 N3_3 1_555 1_555
H6_3 C5_3 1_555 1_555
C8_3 C5_3 1_555 1_555
H9_3 C8_3 1_555 1_555
Zn3_3 N4_3 1_555 1_555
N5_3 Zn1_5 1_555 1_555
N4_3 C8_3 1_555 1_555
Zn1_6 N1_3 1_555 1_555
N1_3 C1_3 1_555 1_555
C1_3 H1_3 1_555 1_555
C4_3 C1_3 1_555 1_555
H4_3 C4_3 1_555 1_555
C7_3 C6_3 1_555 1_555
H7_3 C7_3 1_555 1_555
H8_3 C7_3 1_555 1_555
H10_3 C7_3 1_555 1_555
Zn2_4 N2_3 1_555 1_555
N6_3 Zn1_6 1_555 1_555
N2_3 C4_3 1_555 1_555
C3_4 C2_4 1_555 1_555
H2_4 C3_4 1_555 1_555
H3_4 C3_4 1_555 1_555
H5_4 C3_4 1_555 1_555
N3_4 Zn1_7 1_555 1_555
C5_4 N3_4 1_555 1_555
H6_4 C5_4 1_555 1_555
C8_4 C5_4 1_555 1_555
H9_4 C8_4 1_555 1_555
Zn3_5 N4_4 1_555 1_555
N5_4 Zn1_7 1_555 1_555
N4_4 C8_4 1_555 1_555
Zn1_8 N1_4 1_555 1_555
N1_4 C1_4 1_555 1_555
C1_4 H1_4 1_555 1_555
C4_4 C1_4 1_555 1_555
H4_4 C4_4 1_555 1_555
C7_4 C6_4 1_555 1_555
H7_4 C7_4 1_555 1_555
H8_4 C7_4 1_555 1_555
H10_4 C7_4 1_555 1_555
Zn2_6 N2_4 1_555 1_555
N6_4 Zn1_8 1_555 1_555
N2_4 C4_4 1_555 1_555
Zn1_9 N1_5 1_555 1_555
N1_5 C1_5 1_555 1_555
C1_5 H1_5 1_555 1_555
C4_5 C1_5 1_555 1_555
H4_5 C4_5 1_555 1_555
C7_5 C6_5 1_555 1_555
H7_5 C7_5 1_555 1_555
H8_5 C7_5 1_555 1_555
H10_5 C7_5 1_555 1_555
Zn2_3 N2_5 1_555 1_555
N6_5 Zn1_9 1_555 1_555
N2_5 C4_5 1_555 1_555
C3_5 C2_5 1_555 1_555
H2_5 C3_5 1_555 1_555
H3_5 C3_5 1_555 1_555
H5_5 C3_5 1_555 1_555
N3_5 Zn1_10 1_555 1_555
C5_5 N3_5 1_555 1_555
H6_5 C5_5 1_555 1_555
C8_5 C5_5 1_555 1_555
H9_5 C8_5 1_555 1_555
Zn3_4 N4_5 1_555 1_555
N5_5 Zn1_10 1_555 1_555
N4_5 C8_5 1_555 1_555
C3_6 C2_6 1_555 1_555
H2_6 C3_6 1_555 1_555
H3_6 C3_6 1_555 1_555
H5_6 C3_6 1_555 1_555
N3_6 Zn1_11 1_555 1_555
C5_6 N3_6 1_555 1_555
H6_6 C5_6 1_555 1_555
C8_6 C5_6 1_555 1_555
H9_6 C8_6 1_555 1_555
Zn2_5 N4_6 1_555 1_555
N5_6 Zn1_11 1_555 1_555
N4_6 C8_6 1_555 1_555
Zn1_12 N1_6 1_555 1_555
N1_6 C1_6 1_555 1_555
C1_6 H1_6 1_555 1_555
C4_6 C1_6 1_555 1_555
H4_6 C4_6 1_555 1_555
C7_6 C6_6 1_555 1_555
H7_6 C7_6 1_555 1_555
H8_6 C7_6 1_555 1_555
H10_6 C7_6 1_555 1_555
Zn3_6 N2_6 1_555 1_555
N6_6 Zn1_12 1_555 1_555
N2_6 C4_6 1_555 1_555
N5_7 Zn2 1_555 1_555
N6_7 Zn2_2 1_555 1_555
N5_8 Zn3 1_555 1_555
N6_8 Zn3_2 1_555 1_555
N5_9 Zn2_5 1_555 1_555
N6_9 Zn2_6 1_555 1_555
N5_10 Zn2_3 1_555 1_555
N6_10 Zn2_4 1_555 1_555
N6_11 Zn3_5 1_555 1_555
N5_11 Zn3_6 1_555 1_555
N5_12 Zn3_3 1_555 1_555
N6_12 Zn3_4 1_555 1_555
N6_11 C1_7 1_555 1_555
C1_7 H1_7 1_555 1_555
C2_7 N6_11 1_555 1_555
C3_7 C2_7 1_555 1_555
H2_7 C3_7 1_555 1_555
H3_7 C3_7 1_555 1_555
N6_5 C2_7 1_555 1_555
C4_7 C1_7 1_555 1_555
H4_7 C4_7 1_555 1_555
H5_7 C3_7 1_555 1_555
N6_5 C4_7 1_555 1_555
C5_7 N5_11 1_555 1_555
C6_7 N5_11 1_555 1_555
C7_7 C6_7 1_555 1_555
H6_7 C5_7 1_555 1_555
H7_7 C7_7 1_555 1_555
H8_7 C7_7 1_555 1_555
N5_3 C6_7 1_555 1_555
C8_7 C5_7 1_555 1_555
H9_7 C8_7 1_555 1_555
H10_7 C7_7 1_555 1_555
N5_3 C8_7 1_555 1_555
C5_8 N5_9 1_555 1_555
C6_8 N5_9 1_555 1_555
C7_8 C6_8 1_555 1_555
H6_8 C5_8 1_555 1_555
H7_8 C7_8 1_555 1_555
H8_8 C7_8 1_555 1_555
N5_5 C6_8 1_555 1_555
C8_8 C5_8 1_555 1_555
H9_8 C8_8 1_555 1_555
H10_8 C7_8 1_555 1_555
N5_5 C8_8 1_555 1_555
N6_9 C1_8 1_555 1_555
C1_8 H1_8 1_555 1_555
C2_8 N6_9 1_555 1_555
C3_8 C2_8 1_555 1_555
H2_8 C3_8 1_555 1_555
H3_8 C3_8 1_555 1_555
N6_3 C2_8 1_555 1_555
C4_8 C1_8 1_555 1_555
H4_8 C4_8 1_555 1_555
H5_8 C3_8 1_555 1_555
N6_3 C4_8 1_555 1_555
N5_8 C1_9 1_555 1_555
C1_9 H1_9 1_555 1_555
C2_9 N5_8 1_555 1_555
C3_9 C2_9 1_555 1_555
H2_9 C3_9 1_555 1_555
H3_9 C3_9 1_555 1_555
N5_6 C2_9 1_555 1_555
C4_9 C1_9 1_555 1_555
H4_9 C4_9 1_555 1_555
H5_9 C3_9 1_555 1_555
N5_6 C4_9 1_555 1_555
C5_9 N6_8 1_555 1_555
C6_9 N6_8 1_555 1_555
C7_9 C6_9 1_555 1_555
H6_9 C5_9 1_555 1_555
H7_9 C7_9 1_555 1_555
H8_9 C7_9 1_555 1_555
N5_4 C6_9 1_555 1_555
C8_9 C5_9 1_555 1_555
H9_9 C8_9 1_555 1_555
H10_9 C7_9 1_555 1_555
N5_4 C8_9 1_555 1_555
N5_12 C1_10 1_555 1_555
C1_10 H1_10 1_555 1_555
C2_10 N5_12 1_555 1_555
C3_10 C2_10 1_555 1_555
H2_10 C3_10 1_555 1_555
H3_10 C3_10 1_555 1_555
N5_2 C2_10 1_555 1_555
C4_10 C1_10 1_555 1_555
H4_10 C4_10 1_555 1_555
H5_10 C3_10 1_555 1_555
N5_2 C4_10 1_555 1_555
C5_10 N6_12 1_555 1_555
C6_10 N6_12 1_555 1_555
C7_10 C6_10 1_555 1_555
H6_10 C5_10 1_555 1_555
H7_10 C7_10 1_555 1_555
H8_10 C7_10 1_555 1_555
N5 C6_10 1_555 1_555
C8_10 C5_10 1_555 1_555
H9_10 C8_10 1_555 1_555
H10_10 C7_10 1_555 1_555
N5 C8_10 1_555 1_555
N5_7 C1_11 1_555 1_555
C1_11 H1_11 1_555 1_555
C2_11 N5_7 1_555 1_555
C3_11 C2_11 1_555 1_555
H2_11 C3_11 1_555 1_555
H3_11 C3_11 1_555 1_555
N6_6 C2_11 1_555 1_555
C4_11 C1_11 1_555 1_555
H4_11 C4_11 1_555 1_555
H5_11 C3_11 1_555 1_555
N6_6 C4_11 1_555 1_555
C5_11 N6_7 1_555 1_555
C6_11 N6_7 1_555 1_555
C7_11 C6_11 1_555 1_555
H6_11 C5_11 1_555 1_555
H7_11 C7_11 1_555 1_555
H8_11 C7_11 1_555 1_555
N6_4 C6_11 1_555 1_555
C8_11 C5_11 1_555 1_555
H9_11 C8_11 1_555 1_555
H10_11 C7_11 1_555 1_555
N6_4 C8_11 1_555 1_555
C5_12 N5_10 1_555 1_555
C6_12 N5_10 1_555 1_555
C7_12 C6_12 1_555 1_555
H6_12 C5_12 1_555 1_555
H7_12 C7_12 1_555 1_555
H8_12 C7_12 1_555 1_555
N6_2 C6_12 1_555 1_555
C8_12 C5_12 1_555 1_555
H9_12 C8_12 1_555 1_555
H10_12 C7_12 1_555 1_555
N6_2 C8_12 1_555 1_555
N6_10 C1_12 1_555 1_555
C1_12 H1_12 1_555 1_555
C2_12 N6_10 1_555 1_555
C3_12 C2_12 1_555 1_555
H2_12 C3_12 1_555 1_555
H3_12 C3_12 1_555 1_555
N6 C2_12 1_555 1_555
C4_12 C1_12 1_555 1_555
H4_12 C4_12 1_555 1_555
H5_12 C3_12 1_555 1_555
N6 C4_12 1_555 1_555

#END
