
###############################################################################
#
# This file contains modified crystal structure data generated from the
# MOF subset of the Cambridge Structural Database (CSD) v543 
# hosted by the Cambridge Crystallographic Data Centre (CCDC).
#
# This work is licensed under the Creative Commons
# Attribution-NonCommercial-ShareAlike 4.0 International License.
# To view a copy of this license, visit
# http://creativecommons.org/licenses/by-nc-sa/4.0/
# or send a letter to
# Creative Commons, PO Box 1866, Mountain View, CA 94042, USA.
#
# CIF created using the CSD Python API on 29 September 2022
# The structure has been converted into the P1 space group
# The structure has a 3D framework
# The original CSD entry OFIVAA01 is in the orthorhombic crystal system
# The framework has been calculated to contain at least 10.0% void space
# The void calculation uses a probe of radius 1.32A, grid spacing 0.4
#
###############################################################################

data_OFIVAA01
_chemical_formula_moiety         '(C20 H28 O46 P12 V12)n'
_symmetry_cell_setting           triclinic
_symmetry_space_group_name_H-M   'P 1'
_symmetry_Int_Tables_number      1
_space_group_name_Hall           'P 1'
loop_
_symmetry_equiv_pos_site_id
_symmetry_equiv_pos_as_xyz
1 x,y,z
_cell_length_a                   7.4265(13)
_cell_length_b                   9.3477(16)
_cell_length_c                   16.793(3)
_cell_angle_alpha                90
_cell_angle_beta                 90
_cell_angle_gamma                90
_cell_volume                     1165.78
loop_
_atom_site_label
_atom_site_type_symbol
_atom_site_fract_x
_atom_site_fract_y
_atom_site_fract_z
O14 O -0.0000 0.6390(4) 0.2703(2)
O15 O -0.0000 0.3610(4) 0.2703(2)
O16 O -0.0000 0.5000 0.1407(3)
V1 V 0.20621(14) 0.5000 0.24238(5)
P1 P 0.5000 0.26861(13) 0.17011(7)
O1 O 0.3271(4) 0.3522(3) 0.17987(16)
O2 O 0.3071(6) 0.5000 0.3258(2)
O3 O 0.5000 0.1390(4) 0.2297(2)
C1 C 0.5000 0.1916(5) 0.0740(3)
H1 H 0.3929 0.1289 0.0704
H2 H 0.6071 0.1289 0.0704
C2 C 0.5000 0.2878(7) 0.0000
H3 H 0.3919 0.3497 0.0000
H4 H 0.6081 0.3497 0.0000
V2 V 0.79379(14) 0.5000 0.24238(5)
V3 V 0.70621(14) -0.0000 0.25762(5)
V4 V 0.29379(14) -0.0000 0.25762(5)
O5 O 0.6729(4) 0.3522(3) 0.17987(16)
O8 O 0.3271(4) 0.6478(3) 0.17987(16)
O9 O 0.6729(4) 0.6478(3) 0.17987(16)
O10 O 0.6929(6) 0.5000 0.3258(2)
O14_2 O 1.0000 0.6390(4) 0.2703(2)
O15_2 O 1.0000 0.3610(4) 0.2703(2)
O16_2 O 1.0000 0.5000 0.1407(3)
C2_2 C 0.5000 0.2878(7) 1.0000
H3_2 H 0.3919 0.3497 1.0000
H4_2 H 0.6081 0.3497 1.0000
V6 V 0.20621(14) 0.5000 0.75762(5)
V7 V 0.79379(14) 0.5000 0.75762(5)
V8 V 0.70621(14) 0.0000 0.74238(5)
V9 V 0.29379(14) 0.0000 0.74238(5)
P2 P 0.5000 0.26861(13) 0.82989(7)
O6 O 0.3271(4) 0.3522(3) 0.82013(16)
O7 O 0.6729(4) 0.3522(3) 0.82013(16)
O11 O 0.5000 0.1390(4) 0.7703(2)
C3 C 0.5000 0.1916(5) 0.9260(3)
H5 H 0.3929 0.1289 0.9296
H6 H 0.6071 0.1289 0.9296
V3_2 V 0.70621(14) 1.0000 0.25762(5)
V4_2 V 0.29379(14) 1.0000 0.25762(5)
V8_2 V 0.70621(14) 1.0000 0.74238(5)
V9_2 V 0.29379(14) 1.0000 0.74238(5)
O9_2 O 0.1729(4) 0.1478(3) 0.67987(16)
O10_2 O 0.1929(6) -0.0000 0.8258(2)
O16_3 O 0.5000 0.0000 0.6407(3)
P1_2 P -0.0000 0.76861(13) 0.67011(7)
O3_2 O -0.0000 0.6390(4) 0.7297(2)
C1_2 C -0.0000 0.6916(5) 0.5740(3)
H2_2 H 0.1071 0.6289 0.5704
C2_3 C -0.0000 0.7878(7) 0.5000
H4_3 H 0.1081 0.8497 0.5000
P2_2 P -0.0000 0.76861(13) 0.32989(7)
O5_2 O 0.1729(4) 0.8522(3) 0.67987(16)
O7_2 O 0.1729(4) 0.8522(3) 0.32013(16)
O10_3 O 0.1929(6) 1.0000 0.8258(2)
O15_3 O 0.5000 0.8610(4) 0.7703(2)
O16_4 O 0.5000 1.0000 0.6407(3)
C3_2 C -0.0000 0.6916(5) 0.4260(3)
H6_2 H 0.1071 0.6289 0.4296
O2_2 O 0.8071(6) -0.0000 0.8258(2)
O8_2 O 0.8271(4) 0.1478(3) 0.67987(16)
P1_3 P 1.0000 0.76861(13) 0.67011(7)
O1_2 O 0.8271(4) 0.8522(3) 0.67987(16)
O2_3 O 0.8071(6) 1.0000 0.8258(2)
O3_3 O 1.0000 0.6390(4) 0.7297(2)
C1_3 C 1.0000 0.6916(5) 0.5740(3)
H1_2 H 0.8929 0.6289 0.5704
C2_4 C 1.0000 0.7878(7) 0.5000
H3_3 H 0.8919 0.8497 0.5000
P2_3 P 1.0000 0.76861(13) 0.32989(7)
O6_2 O 0.8271(4) 0.8522(3) 0.32013(16)
C3_3 C 1.0000 0.6916(5) 0.4260(3)
H5_2 H 0.8929 0.6289 0.4296
P1_4 P 0.5000 0.73139(13) 0.17011(7)
O3_4 O 0.5000 0.8610(4) 0.2297(2)
C1_4 C 0.5000 0.8084(5) 0.0740(3)
H1_3 H 0.6071 0.8711 0.0704
H2_3 H 0.3929 0.8711 0.0704
C2_5 C 0.5000 0.7122(7) 0.0000
H3_4 H 0.6081 0.6503 0.0000
H4_4 H 0.3919 0.6503 0.0000
C2_6 C 0.5000 0.7122(7) 1.0000
H3_5 H 0.6081 0.6503 1.0000
H4_5 H 0.3919 0.6503 1.0000
P2_4 P 0.5000 0.73139(13) 0.82989(7)
O6_3 O 0.6729(4) 0.6478(3) 0.82013(16)
O7_3 O 0.3271(4) 0.6478(3) 0.82013(16)
C3_4 C 0.5000 0.8084(5) 0.9260(3)
H5_3 H 0.6071 0.8711 0.9296
H6_3 H 0.3929 0.8711 0.9296
O4 O 0.0000 0.5000 0.8593(3)
O13 O -0.0000 0.3610(4) 0.7297(2)
O2_4 O 0.6929(6) 0.5000 0.6742(2)
O4_2 O 1.0000 0.5000 0.8593(3)
O10_4 O 0.3071(6) 0.5000 0.6742(2)
O13_2 O 1.0000 0.3610(4) 0.7297(2)
P1_5 P 0.0000 0.23139(13) 0.67011(7)
C1_5 C 0.0000 0.3084(5) 0.5740(3)
H1_4 H 0.1071 0.3711 0.5704
C2_7 C 0.0000 0.2122(7) 0.5000
H3_6 H 0.1081 0.1503 0.5000
P2_5 P 0.0000 0.23139(13) 0.32989(7)
O6_4 O 0.1729(4) 0.1478(3) 0.32013(16)
C3_5 C 0.0000 0.3084(5) 0.4260(3)
H5_4 H 0.1071 0.3711 0.4296
P1_6 P 1.0000 0.23139(13) 0.67011(7)
C1_6 C 1.0000 0.3084(5) 0.5740(3)
H2_4 H 0.8929 0.3711 0.5704
C2_8 C 1.0000 0.2122(7) 0.5000
H4_6 H 0.8919 0.1503 0.5000
P2_6 P 1.0000 0.23139(13) 0.32989(7)
O7_4 O 0.8271(4) 0.1478(3) 0.32013(16)
C3_6 C 1.0000 0.3084(5) 0.4260(3)
H6_4 H 0.8929 0.3711 0.4296
O2_5 O 0.1929(6) -0.0000 0.1742(2)
O4_3 O 0.5000 -0.0000 0.3593(3)
O2_6 O 0.1929(6) 1.0000 0.1742(2)
O4_4 O 0.5000 1.0000 0.3593(3)
O10_5 O 0.8071(6) -0.0000 0.1742(2)
O10_6 O 0.8071(6) 1.0000 0.1742(2)
loop_
_geom_bond_atom_site_label_1
_geom_bond_atom_site_label_2
_geom_bond_site_symmetry_1
_geom_bond_site_symmetry_2
V1 O1 1_555 1_555
P1 O1 1_555 1_555
O2 V1 1_555 1_555
O3 P1 1_555 1_555
O16 V1 1_555 1_555
C1 P1 1_555 1_555
H1 C1 1_555 1_555
H2 C1 1_555 1_555
C2 C1 1_555 1_555
H3 C2 1_555 1_555
H4 C2 1_555 1_555
V2 O5 1_555 1_555
V3 O3 1_555 1_555
V4 O3 1_555 1_555
O5 P1 1_555 1_555
O8 V1 1_555 1_555
O9 V2 1_555 1_555
O10 V2 1_555 1_555
O14 V1 1_555 1_555
O15 V1 1_555 1_555
O14_2 V2 1_555 1_555
O15_2 V2 1_555 1_555
O16_2 V2 1_555 1_555
H3_2 C2_2 1_555 1_555
H4_2 C2_2 1_555 1_555
V6 O6 1_555 1_555
V7 O7 1_555 1_555
V8 O11 1_555 1_555
V9 O11 1_555 1_555
P2 O6 1_555 1_555
O7 P2 1_555 1_555
O11 P2 1_555 1_555
C3 C2_2 1_555 1_555
H5 C3 1_555 1_555
H6 C3 1_555 1_555
P2 C3 1_555 1_555
O9_2 V9 1_555 1_555
O10_2 V9 1_555 1_555
O16_3 V9 1_555 1_555
O3_2 P1_2 1_555 1_555
C1_2 P1_2 1_555 1_555
H2_2 C1_2 1_555 1_555
C2_3 C1_2 1_555 1_555
H4_3 C2_3 1_555 1_555
V9_2 O5_2 1_555 1_555
V6 O3_2 1_555 1_555
V4_2 O7_2 1_555 1_555
O5_2 P1_2 1_555 1_555
O7_2 P2_2 1_555 1_555
O10_3 V9_2 1_555 1_555
O14 P2_2 1_555 1_555
O15_3 V9_2 1_555 1_555
O16_4 V9_2 1_555 1_555
C3_2 C2_3 1_555 1_555
H6_2 C3_2 1_555 1_555
P2_2 C3_2 1_555 1_555
O2_2 V8 1_555 1_555
O16_3 V8 1_555 1_555
O8_2 V8 1_555 1_555
V8_2 O1_2 1_555 1_555
P1_3 O1_2 1_555 1_555
O2_3 V8_2 1_555 1_555
O3_3 P1_3 1_555 1_555
O16_4 V8_2 1_555 1_555
C1_3 P1_3 1_555 1_555
H1_2 C1_3 1_555 1_555
C2_4 C1_3 1_555 1_555
H3_3 C2_4 1_555 1_555
V7 O3_3 1_555 1_555
V3_2 O6_2 1_555 1_555
P2_3 O6_2 1_555 1_555
O14_2 P2_3 1_555 1_555
O15_3 V8_2 1_555 1_555
C3_3 C2_4 1_555 1_555
H5_2 C3_3 1_555 1_555
P2_3 C3_3 1_555 1_555
P1_4 O9 1_555 1_555
O3_4 P1_4 1_555 1_555
C1_4 P1_4 1_555 1_555
H1_3 C1_4 1_555 1_555
H2_3 C1_4 1_555 1_555
C2_5 C1_4 1_555 1_555
H3_4 C2_5 1_555 1_555
H4_4 C2_5 1_555 1_555
V4_2 O3_4 1_555 1_555
V3_2 O3_4 1_555 1_555
O8 P1_4 1_555 1_555
H3_5 C2_6 1_555 1_555
H4_5 C2_6 1_555 1_555
V7 O6_3 1_555 1_555
V6 O7_3 1_555 1_555
P2_4 O6_3 1_555 1_555
O7_3 P2_4 1_555 1_555
O15_3 P2_4 1_555 1_555
C3_4 C2_6 1_555 1_555
H5_3 C3_4 1_555 1_555
H6_3 C3_4 1_555 1_555
P2_4 C3_4 1_555 1_555
V6 O4 1_555 1_555
V6 O13 1_555 1_555
O2_4 V7 1_555 1_555
O4_2 V7 1_555 1_555
O10_4 V6 1_555 1_555
O13_2 V7 1_555 1_555
P1_5 O9_2 1_555 1_555
O13 P1_5 1_555 1_555
C1_5 P1_5 1_555 1_555
H1_4 C1_5 1_555 1_555
C2_7 C1_5 1_555 1_555
H3_6 C2_7 1_555 1_555
V4 O6_4 1_555 1_555
P2_5 O6_4 1_555 1_555
O15 P2_5 1_555 1_555
C3_5 C2_7 1_555 1_555
H5_4 C3_5 1_555 1_555
P2_5 C3_5 1_555 1_555
O13_2 P1_6 1_555 1_555
C1_6 P1_6 1_555 1_555
H2_4 C1_6 1_555 1_555
C2_8 C1_6 1_555 1_555
H4_6 C2_8 1_555 1_555
V3 O7_4 1_555 1_555
O8_2 P1_6 1_555 1_555
O7_4 P2_6 1_555 1_555
O15_2 P2_6 1_555 1_555
C3_6 C2_8 1_555 1_555
H6_4 C3_6 1_555 1_555
P2_6 C3_6 1_555 1_555
O2_5 V4 1_555 1_555
O4_3 V4 1_555 1_555
V3 O4_3 1_555 1_555
O2_6 V4_2 1_555 1_555
O4_4 V4_2 1_555 1_555
V3_2 O4_4 1_555 1_555
O10_5 V3 1_555 1_555
O10_6 V3_2 1_555 1_555

#END
