
###############################################################################
#
# This file contains modified crystal structure data generated from the
# MOF subset of the Cambridge Structural Database (CSD) v543 
# hosted by the Cambridge Crystallographic Data Centre (CCDC).
#
# This work is licensed under the Creative Commons
# Attribution-NonCommercial-ShareAlike 4.0 International License.
# To view a copy of this license, visit
# http://creativecommons.org/licenses/by-nc-sa/4.0/
# or send a letter to
# Creative Commons, PO Box 1866, Mountain View, CA 94042, USA.
#
# CIF created using the CSD Python API on 29 September 2022
# The structure has been converted into the P1 space group
# The structure has a 3D framework
# The original CSD entry OFIVAA is in the orthorhombic crystal system
# The framework has been calculated to contain at least 10.0% void space
# The void calculation uses a probe of radius 1.32A, grid spacing 0.4
# H atom positions have been added when not included in the experimental data
#
###############################################################################

data_OFIVAA
_chemical_formula_moiety         '(C22 H28 O43 P12 V12)n'
_symmetry_cell_setting           triclinic
_symmetry_space_group_name_H-M   'P 1'
_symmetry_Int_Tables_number      1
_space_group_name_Hall           'P 1'
loop_
_symmetry_equiv_pos_site_id
_symmetry_equiv_pos_as_xyz
1 x,y,z
_cell_length_a                   16.8210(5)
_cell_length_b                   9.3790(3)
_cell_length_c                   7.4568(2)
_cell_angle_alpha                90
_cell_angle_beta                 90
_cell_angle_gamma                90
_cell_volume                     1176.42
loop_
_atom_site_label
_atom_site_type_symbol
_atom_site_fract_x
_atom_site_fract_y
_atom_site_fract_z
V1 V 0.2439(2) 0.0000 0.2929(4)
P1 P 0.3296(3) 0.2669(6) 0.5000
O1 O 0.2680(6) 0.1431(11) 0.5000
O2 O 0.3307(6) 0.0000 0.2072(13)
O3 O 0.3150(4) 0.3543(7) 0.6681(10)
O4 O 0.1374(7) 0.0000 0.5000
C1 C 0.5000 0.2888(24) 0.5000
C2 C 0.4289(7) 0.1838(15) 0.5000
O5 O 0.3150(4) 0.3543(7) 0.3319(10)
C3 C 0.5711(7) 0.1838(15) 0.5000
P2 P 0.6704(3) 0.2669(6) 0.5000
O6 O 0.7320(6) 0.1431(11) 0.5000
O7 O 0.6850(4) 0.3543(7) 0.3319(10)
O8 O 0.6850(4) 0.3543(7) 0.6681(10)
V2 V 0.7561(2) 0.0000 0.7071(4)
O9 O 0.6693(6) 0.0000 0.7928(13)
O11 O 0.1850(4) 0.1457(7) 0.1681(10)
V3 V 0.2439(2) 0.0000 0.7071(4)
V4 V 0.2561(2) 0.5000 0.7929(4)
V5 V 0.2561(2) 0.5000 0.2071(4)
V6 V 0.7561(2) 0.0000 0.2929(4)
V7 V 0.7439(2) 0.5000 0.2071(4)
V8 V 0.7439(2) 0.5000 0.7929(4)
O14 O 0.8150(4) 0.1457(7) 0.8319(10)
O16 O 0.8626(7) 0.0000 0.5000
H1 H 0.5 0.355836 0.619242
H2 H 0.5 0.355836 0.380758
H3 H 0.433602 0.117296 0.380758
H4 H 0.433602 0.117296 0.619242
H5 H 0.566398 0.117296 0.380758
H6 H 0.566398 0.117296 0.619242
V1_2 V 0.2439(2) 1.0000 0.2929(4)
O2_2 O 0.3307(6) 1.0000 0.2072(13)
O4_2 O 0.1374(7) 1.0000 0.5000
V2_2 V 0.7561(2) 1.0000 0.7071(4)
O9_2 O 0.6693(6) 1.0000 0.7928(13)
O10 O 0.2680(6) 0.8569(11) 0.5000
O12 O 0.1850(4) 0.8543(7) 0.1681(10)
V3_2 V 0.2439(2) 1.0000 0.7071(4)
V6_2 V 0.7561(2) 1.0000 0.2929(4)
O13 O 0.7320(6) 0.8569(11) 0.5000
O15 O 0.8150(4) 0.8543(7) 0.8319(10)
O16_2 O 0.8626(7) 1.0000 0.5000
O2_3 O 0.6693(6) 0.0000 0.2072(13)
O9_3 O 0.3307(6) 0.0000 0.7928(13)
O12_2 O 0.8150(4) 0.1457(7) 0.1681(10)
O15_2 O 0.1850(4) 0.1457(7) 0.8319(10)
P1_2 P 0.6704(3) 0.7331(6) 0.5000
O2_4 O 0.6693(6) 1.0000 0.2072(13)
O3_2 O 0.6850(4) 0.6457(7) 0.6681(10)
C1_2 C 0.5000 0.7112(24) 0.5000
C2_2 C 0.5711(7) 0.8162(15) 0.5000
O5_2 O 0.6850(4) 0.6457(7) 0.3319(10)
C3_2 C 0.4289(7) 0.8162(15) 0.5000
P2_2 P 0.3296(3) 0.7331(6) 0.5000
O7_2 O 0.3150(4) 0.6457(7) 0.3319(10)
O8_2 O 0.3150(4) 0.6457(7) 0.6681(10)
O9_4 O 0.3307(6) 1.0000 0.7928(13)
O11_2 O 0.8150(4) 0.8543(7) 0.1681(10)
O14_2 O 0.1850(4) 0.8543(7) 0.8319(10)
H1_2 H 0.5 0.644164 0.619242
H2_2 H 0.5 0.644164 0.380758
H3_2 H 0.566398 0.882704 0.380758
H4_2 H 0.566398 0.882704 0.619242
H5_2 H 0.433602 0.882704 0.380758
H6_2 H 0.433602 0.882704 0.619242
C1_3 C 0.0000 0.7888(24) 0.0000
C3_3 C 0.0711(7) 0.6838(15) 0.0000
P2_3 P 0.1704(3) 0.7669(6) 0.0000
O6_2 O 0.2320(6) 0.6431(11) 0.0000
O9_5 O 0.1693(6) 0.5000 0.2928(13)
O13_2 O 0.2320(6) 0.3569(11) 0.0000
O16_3 O 0.3626(7) 0.5000 0.0000
H1_3 H 1.54074e-33 0.855836 0.119242
H6_3 H 0.0663976 0.617296 0.119242
C1_4 C 0.0000 0.7888(24) 1.0000
C3_4 C 0.0711(7) 0.6838(15) 1.0000
P2_4 P 0.1704(3) 0.7669(6) 1.0000
O6_3 O 0.2320(6) 0.6431(11) 1.0000
O13_3 O 0.2320(6) 0.3569(11) 1.0000
O16_4 O 0.3626(7) 0.5000 1.0000
H2_3 H 0 0.855836 0.880758
H5_3 H 0.0663976 0.617296 0.880758
P1_3 P 0.8296(3) 0.7669(6) 0.0000
O1_2 O 0.7680(6) 0.6431(11) 0.0000
O4_3 O 0.6374(7) 0.5000 0.0000
C1_5 C 1.0000 0.7888(24) 0.0000
C2_3 C 0.9289(7) 0.6838(15) 0.0000
O10_2 O 0.7680(6) 0.3569(11) 0.0000
H1_4 H 1 0.855836 0.119242
H4_3 H 0.933602 0.617296 0.119242
P1_4 P 0.8296(3) 0.7669(6) 1.0000
O1_3 O 0.7680(6) 0.6431(11) 1.0000
O2_5 O 0.8307(6) 0.5000 0.7072(13)
O4_4 O 0.6374(7) 0.5000 1.0000
C1_6 C 1.0000 0.7888(24) 1.0000
C2_4 C 0.9289(7) 0.6838(15) 1.0000
O10_3 O 0.7680(6) 0.3569(11) 1.0000
H2_4 H 1 0.855836 0.880758
H3_3 H 0.933602 0.617296 0.880758
P1_5 P 0.1704(3) 0.2331(6) 0.0000
C1_7 C 0.0000 0.2112(24) 0.0000
C2_5 C 0.0711(7) 0.3162(15) 0.0000
H1_5 H -7.70372e-34 0.144164 0.119242
H4_4 H 0.0663976 0.382704 0.119242
P1_6 P 0.1704(3) 0.2331(6) 1.0000
O2_6 O 0.1693(6) 0.5000 0.7072(13)
C1_8 C 0.0000 0.2112(24) 1.0000
C2_6 C 0.0711(7) 0.3162(15) 1.0000
H2_5 H 6.16298e-33 0.144164 0.880758
H3_4 H 0.0663976 0.382704 0.880758
C1_9 C 1.0000 0.2112(24) 0.0000
C3_5 C 0.9289(7) 0.3162(15) 0.0000
P2_5 P 0.8296(3) 0.2331(6) 0.0000
O9_6 O 0.8307(6) 0.5000 0.2928(13)
H1_6 H 1 0.144164 0.119242
H6_4 H 0.933602 0.382704 0.119242
C1_10 C 1.0000 0.2112(24) 1.0000
C3_6 C 0.9289(7) 0.3162(15) 1.0000
P2_6 P 0.8296(3) 0.2331(6) 1.0000
H2_6 H 1 0.144164 0.880758
H5_4 H 0.933602 0.382704 0.880758
loop_
_geom_bond_atom_site_label_1
_geom_bond_atom_site_label_2
_geom_bond_site_symmetry_1
_geom_bond_site_symmetry_2
V1 O1 1_555 1_555
P1 O1 1_555 1_555
O1 V3 1_555 1_555
O2 V1 1_555 1_555
O3 P1 1_555 1_555
O4 V1 1_555 1_555
C1 C2 1_555 1_555
C2 P1 1_555 1_555
O5 P1 1_555 1_555
C3 C1 1_555 1_555
P2 C3 1_555 1_555
O6 P2 1_555 1_555
O7 P2 1_555 1_555
O8 P2 1_555 1_555
V2 O6 1_555 1_555
O9 V2 1_555 1_555
O11 V1 1_555 1_555
V3 O4 1_555 1_555
V4 O3 1_555 1_555
V5 O5 1_555 1_555
V6 O6 1_555 1_555
V7 O7 1_555 1_555
V8 O8 1_555 1_555
O14 V2 1_555 1_555
O16 V2 1_555 1_555
V6 O16 1_555 1_555
C1 H1 1_555 1_555
C1 H2 1_555 1_555
C2 H3 1_555 1_555
C2 H4 1_555 1_555
C3 H5 1_555 1_555
C3 H6 1_555 1_555
O2_2 V1_2 1_555 1_555
O4_2 V1_2 1_555 1_555
O9_2 V2_2 1_555 1_555
O10 V1_2 1_555 1_555
O12 V1_2 1_555 1_555
V3_2 O4_2 1_555 1_555
O13 V2_2 1_555 1_555
O15 V2_2 1_555 1_555
O16_2 V2_2 1_555 1_555
O10 V3_2 1_555 1_555
V6_2 O13 1_555 1_555
V6_2 O16_2 1_555 1_555
O2_3 V6 1_555 1_555
O9_3 V3 1_555 1_555
O12_2 V6 1_555 1_555
O15_2 V3 1_555 1_555
P1_2 O13 1_555 1_555
O2_4 V6_2 1_555 1_555
O3_2 P1_2 1_555 1_555
C1_2 C2_2 1_555 1_555
C2_2 P1_2 1_555 1_555
O5_2 P1_2 1_555 1_555
C3_2 C1_2 1_555 1_555
P2_2 C3_2 1_555 1_555
O10 P2_2 1_555 1_555
O7_2 P2_2 1_555 1_555
O8_2 P2_2 1_555 1_555
O9_4 V3_2 1_555 1_555
O11_2 V6_2 1_555 1_555
V8 O3_2 1_555 1_555
V7 O5_2 1_555 1_555
V5 O7_2 1_555 1_555
V4 O8_2 1_555 1_555
O14_2 V3_2 1_555 1_555
C1_2 H1_2 1_555 1_555
C1_2 H2_2 1_555 1_555
C2_2 H3_2 1_555 1_555
C2_2 H4_2 1_555 1_555
C3_2 H5_2 1_555 1_555
C3_2 H6_2 1_555 1_555
C3_3 C1_3 1_555 1_555
P2_3 C3_3 1_555 1_555
O6_2 P2_3 1_555 1_555
O12 P2_3 1_555 1_555
V5 O6_2 1_555 1_555
O9_5 V5 1_555 1_555
O13_2 V5 1_555 1_555
O16_3 V5 1_555 1_555
C1_3 H1_3 1_555 1_555
C3_3 H6_3 1_555 1_555
C3_4 C1_4 1_555 1_555
P2_4 C3_4 1_555 1_555
O6_3 P2_4 1_555 1_555
O14_2 P2_4 1_555 1_555
V4 O6_3 1_555 1_555
V4 O13_3 1_555 1_555
V4 O16_4 1_555 1_555
C1_4 H2_3 1_555 1_555
C3_4 H5_3 1_555 1_555
P1_3 O1_2 1_555 1_555
O1_2 V7 1_555 1_555
O11_2 P1_3 1_555 1_555
C1_5 C2_3 1_555 1_555
C2_3 P1_3 1_555 1_555
V7 O4_3 1_555 1_555
O10_2 V7 1_555 1_555
C1_5 H1_4 1_555 1_555
C2_3 H4_3 1_555 1_555
V8 O1_3 1_555 1_555
P1_4 O1_3 1_555 1_555
O2_5 V8 1_555 1_555
O4_4 V8 1_555 1_555
C1_6 C2_4 1_555 1_555
C2_4 P1_4 1_555 1_555
O15 P1_4 1_555 1_555
O10_3 V8 1_555 1_555
C1_6 H2_4 1_555 1_555
C2_4 H3_3 1_555 1_555
P1_5 O13_2 1_555 1_555
O11 P1_5 1_555 1_555
C1_7 C2_5 1_555 1_555
C2_5 P1_5 1_555 1_555
C1_7 H1_5 1_555 1_555
C2_5 H4_4 1_555 1_555
P1_6 O13_3 1_555 1_555
O2_6 V4 1_555 1_555
C1_8 C2_6 1_555 1_555
C2_6 P1_6 1_555 1_555
O15_2 P1_6 1_555 1_555
C1_8 H2_5 1_555 1_555
C2_6 H3_4 1_555 1_555
C3_5 C1_9 1_555 1_555
P2_5 C3_5 1_555 1_555
O10_2 P2_5 1_555 1_555
O12_2 P2_5 1_555 1_555
O9_6 V7 1_555 1_555
C1_9 H1_6 1_555 1_555
C3_5 H6_4 1_555 1_555
C3_6 C1_10 1_555 1_555
P2_6 C3_6 1_555 1_555
O10_3 P2_6 1_555 1_555
O14 P2_6 1_555 1_555
C1_10 H2_6 1_555 1_555
C3_6 H5_4 1_555 1_555

#END
