
###############################################################################
#
# This file contains modified crystal structure data generated from the
# MOF subset of the Cambridge Structural Database (CSD) v543 
# hosted by the Cambridge Crystallographic Data Centre (CCDC).
#
# This work is licensed under the Creative Commons
# Attribution-NonCommercial-ShareAlike 4.0 International License.
# To view a copy of this license, visit
# http://creativecommons.org/licenses/by-nc-sa/4.0/
# or send a letter to
# Creative Commons, PO Box 1866, Mountain View, CA 94042, USA.
#
# CIF created using the CSD Python API on 29 September 2022
# The structure has been converted into the P1 space group
# The structure has a 3D framework
# The original CSD entry OFORUX is in the monoclinic crystal system
# The framework has been calculated to contain at least 10.0% void space
# The void calculation uses a probe of radius 1.32A, grid spacing 0.4
#
###############################################################################

data_OFORUX
_chemical_formula_moiety         '(C104 H88 Cd6 Cl5 Cu2 N16 O8)n'
_symmetry_cell_setting           triclinic
_symmetry_space_group_name_H-M   'P 1'
_symmetry_Int_Tables_number      1
_space_group_name_Hall           'P 1'
loop_
_symmetry_equiv_pos_site_id
_symmetry_equiv_pos_as_xyz
1 x,y,z
_cell_length_a                   27.620(2)
_cell_length_b                   14.4643(13)
_cell_length_c                   7.2112(6)
_cell_angle_alpha                90
_cell_angle_beta                 98.941(2)
_cell_angle_gamma                90
_cell_volume                     2845.9
loop_
_atom_site_label
_atom_site_type_symbol
_atom_site_fract_x
_atom_site_fract_y
_atom_site_fract_z
Cd2 Cd 0.5000 0.44025(3) 0.2500
Cu2 Cu 0.2500 0.7500 0.0000
Cl3 Cl 0.55295(4) 0.55629(8) 0.09531(16)
O2 O 0.21889(11) 0.6346(2) 0.0159(5)
N3 N 0.31556(13) 0.6961(3) 0.1018(5)
C14 C 0.23714(18) 0.5518(3) 0.0463(7)
C15 C 0.2063(2) 0.4730(4) 0.0224(8)
C16 C 0.2244(2) 0.3851(4) 0.0537(8)
H13 H 0.2030 0.3352 0.0366
C17 C 0.2732(2) 0.3692(4) 0.1093(8)
H14 H 0.2850 0.3090 0.1271
C18 C 0.3051(2) 0.4436(4) 0.1391(8)
H15 H 0.3382 0.4329 0.1801
C19 C 0.28823(18) 0.5358(3) 0.1085(7)
C20 C 0.32298(17) 0.6082(3) 0.1365(7)
H16 H 0.3549 0.5912 0.1853
C21 C 0.36089(16) 0.7525(3) 0.1371(6)
H17 H 0.3825 0.7277 0.2445
H18 H 0.3526 0.8154 0.1666
H22 H 0.4314 0.6462 0.0505
Cd1 Cd 0.5000 0.55975(3) 0.7500
Cu1 Cu 0.7500 0.7500 0.5000
Cl1 Cl 0.44705(4) 0.44371(8) 0.90469(16)
O1 O 0.78111(11) 0.6346(2) 0.4841(5)
N1 N 0.68444(13) 0.6961(3) 0.3982(5)
N2 N 0.55303(13) 0.6829(3) 0.6963(5)
C1 C 0.76286(18) 0.5518(3) 0.4537(7)
C2 C 0.7937(2) 0.4730(4) 0.4776(8)
H1 H 0.8272 0.4811 0.5157
C3 C 0.7756(2) 0.3851(4) 0.4463(8)
H2 H 0.7970 0.3352 0.4634
C4 C 0.7268(2) 0.3692(4) 0.3907(8)
H3 H 0.7150 0.3090 0.3729
C5 C 0.6949(2) 0.4436(4) 0.3609(8)
H4 H 0.6618 0.4329 0.3199
C6 C 0.71177(18) 0.5358(3) 0.3915(7)
C7 C 0.67702(17) 0.6082(3) 0.3635(7)
H5 H 0.6451 0.5912 0.3147
C8 C 0.63911(16) 0.7525(3) 0.3629(6)
H6 H 0.6175 0.7277 0.2555
H7 H 0.6474 0.8154 0.3334
C9 C 0.61290(16) 0.7530(3) 0.5313(7)
C10 C 0.62483(18) 0.8148(4) 0.6755(8)
H8 H 0.6490 0.8590 0.6705
C11 C 0.60019(19) 0.8102(4) 0.8289(8)
H9 H 0.6078 0.8514 0.9282
C12 C 0.56461(18) 0.7447(3) 0.8327(7)
H10 H 0.5478 0.7432 0.9350
C13 C 0.57681(16) 0.6882(3) 0.5470(7)
H11 H 0.5686 0.6462 0.4495
Cu2_2 Cu 0.2500 0.7500 1.0000
Cl2 Cl 0.44705(4) 0.55629(8) 0.40469(16)
Cl4 Cl 0.55295(4) 0.44371(8) 0.59531(16)
O3 O 0.71889(11) 0.8654(2) 0.5159(5)
N4 N 0.81556(13) 0.8039(3) 0.6018(5)
N5 N 0.44697(13) 0.6829(3) 0.8037(5)
H12 H 0.1728 0.4811 0.9843
C22 C 0.38710(16) 0.7530(3) 0.9687(7)
C23 C 0.37517(18) 0.8148(4) 0.8245(8)
H19 H 0.3510 0.8590 0.8295
C24 C 0.39981(19) 0.8102(4) 0.6711(8)
H20 H 0.3922 0.8514 0.5718
C25 C 0.43539(18) 0.7447(3) 0.6673(7)
H21 H 0.4522 0.7432 0.5650
C26 C 0.42319(16) 0.6882(3) 0.9530(7)
Cl3_2 Cl 0.05295(4) 0.05629(8) 0.09531(16)
Cd1_2 Cd -0.0000 0.05975(3) 0.7500
Cu1_2 Cu 0.2500 0.2500 0.5000
O1_2 O 0.28111(11) 0.1346(2) 0.4841(5)
N1_2 N 0.18444(13) 0.1961(3) 0.3982(5)
N2_2 N 0.05303(13) 0.1829(3) 0.6963(5)
C1_2 C 0.26286(18) 0.0518(3) 0.4537(7)
C6_2 C 0.21177(18) 0.0358(3) 0.3915(7)
C7_2 C 0.17702(17) 0.1082(3) 0.3635(7)
H5_2 H 0.1451 0.0912 0.3147
C8_2 C 0.13911(16) 0.2525(3) 0.3629(6)
H6_2 H 0.1175 0.2277 0.2555
H7_2 H 0.1474 0.3154 0.3334
C9_2 C 0.11290(16) 0.2530(3) 0.5313(7)
C10_2 C 0.12483(18) 0.3148(4) 0.6755(8)
H8_2 H 0.1490 0.3590 0.6705
C11_2 C 0.10019(19) 0.3102(4) 0.8289(8)
H9_2 H 0.1078 0.3514 0.9282
C12_2 C 0.06461(18) 0.2447(3) 0.8327(7)
H10_2 H 0.0478 0.2432 0.9350
C13_2 C 0.07681(16) 0.1882(3) 0.5470(7)
H11_2 H 0.0686 0.1462 0.4495
O3_2 O 0.21889(11) 0.3654(2) 0.5159(5)
N4_2 N 0.31556(13) 0.3039(3) 0.6018(5)
Cd2_2 Cd 0.0000 0.94025(3) 0.2500
C2_2 C 0.2937(2) 0.9730(4) 0.4776(8)
H1_2 H 0.3272 0.9811 0.5157
C3_2 C 0.2756(2) 0.8851(4) 0.4463(8)
H2_2 H 0.2970 0.8352 0.4634
C4_2 C 0.2268(2) 0.8692(4) 0.3907(8)
H3_2 H 0.2150 0.8090 0.3729
C5_2 C 0.1949(2) 0.9436(4) 0.3609(8)
H4_2 H 0.1618 0.9329 0.3199
Cl4_2 Cl 0.05295(4) 0.94371(8) 0.59531(16)
Cu2_3 Cu 0.7500 0.2500 0.0000
O2_2 O 0.71889(11) 0.1346(2) 0.0159(5)
N3_2 N 0.81556(13) 0.1961(3) 0.1018(5)
C14_2 C 0.73714(18) 0.0518(3) 0.0463(7)
C19_2 C 0.78823(18) 0.0358(3) 0.1085(7)
C20_2 C 0.82298(17) 0.1082(3) 0.1365(7)
H16_2 H 0.8549 0.0912 0.1853
C21_2 C 0.86089(16) 0.2525(3) 0.1371(6)
H17_2 H 0.8825 0.2277 0.2445
H18_2 H 0.8526 0.3154 0.1666
H22_2 H 0.9314 0.1462 0.0505
Cd1_3 Cd 1.0000 0.05975(3) 0.7500
Cu2_4 Cu 0.7500 0.2500 1.0000
Cl2_2 Cl 0.94705(4) 0.05629(8) 0.40469(16)
N5_2 N 0.94697(13) 0.1829(3) 0.8037(5)
C22_2 C 0.88710(16) 0.2530(3) 0.9687(7)
C23_2 C 0.87517(18) 0.3148(4) 0.8245(8)
H19_2 H 0.8510 0.3590 0.8295
C24_2 C 0.89981(19) 0.3102(4) 0.6711(8)
H20_2 H 0.8922 0.3514 0.5718
C25_2 C 0.93539(18) 0.2447(3) 0.6673(7)
H21_2 H 0.9522 0.2432 0.5650
C26_2 C 0.92319(16) 0.1882(3) 0.9530(7)
Cd2_3 Cd 1.0000 0.94025(3) 0.2500
C15_2 C 0.7063(2) 0.9730(4) 0.0224(8)
C16_2 C 0.7244(2) 0.8851(4) 0.0537(8)
H13_2 H 0.7030 0.8352 0.0366
C17_2 C 0.7732(2) 0.8692(4) 0.1093(8)
H14_2 H 0.7850 0.8090 0.1271
C18_2 C 0.8051(2) 0.9436(4) 0.1391(8)
H15_2 H 0.8382 0.9329 0.1801
Cl1_2 Cl 0.94705(4) 0.94371(8) 0.90469(16)
H12_2 H 0.6728 0.9811 0.9843
O3_3 O 0.28111(11) 0.8654(2) 0.9841(5)
N4_3 N 0.18444(13) 0.8039(3) 0.8982(5)
O3_4 O 0.78111(11) 0.3654(2) 0.9841(5)
N4_4 N 0.68444(13) 0.3039(3) 0.8982(5)
N2_3 N 0.44697(13) 0.3171(3) 0.3037(5)
C1_3 C 0.23714(18) 0.4482(3) 0.5463(7)
C2_3 C 0.2063(2) 0.5270(4) 0.5224(8)
H1_3 H 0.1728 0.5189 0.4843
C3_3 C 0.2244(2) 0.6149(4) 0.5537(8)
H2_3 H 0.2030 0.6648 0.5366
C4_3 C 0.2732(2) 0.6308(4) 0.6093(8)
H3_3 H 0.2850 0.6910 0.6271
C5_3 C 0.3051(2) 0.5564(4) 0.6391(8)
H4_3 H 0.3382 0.5671 0.6801
C6_3 C 0.28823(18) 0.4642(3) 0.6085(7)
C7_3 C 0.32298(17) 0.3918(3) 0.6365(7)
H5_3 H 0.3549 0.4088 0.6853
C8_3 C 0.36089(16) 0.2475(3) 0.6371(6)
H6_3 H 0.3825 0.2723 0.7445
H7_3 H 0.3526 0.1846 0.6666
C9_3 C 0.38710(16) 0.2470(3) 0.4687(7)
C10_3 C 0.37517(18) 0.1852(4) 0.3245(8)
H8_3 H 0.3510 0.1410 0.3295
C11_3 C 0.39981(19) 0.1898(4) 0.1711(8)
H9_3 H 0.3922 0.1486 0.0718
C12_3 C 0.43539(18) 0.2553(3) 0.1673(7)
H10_3 H 0.4522 0.2568 0.0650
C13_3 C 0.42319(16) 0.3118(3) 0.4530(7)
H11_3 H 0.4314 0.3538 0.5505
N5_3 N 0.55303(13) 0.3171(3) 0.1963(5)
H12_3 H 0.8272 0.5189 0.0157
C22_3 C 0.61290(16) 0.2470(3) 0.0313(7)
C23_3 C 0.62483(18) 0.1852(4) 0.1755(8)
H19_3 H 0.6490 0.1410 0.1705
C24_3 C 0.60019(19) 0.1898(4) 0.3289(8)
H20_3 H 0.6078 0.1486 0.4282
C25_3 C 0.56461(18) 0.2553(3) 0.3327(7)
H21_3 H 0.5478 0.2568 0.4350
C26_3 C 0.57681(16) 0.3118(3) 0.0470(7)
C14_3 C 0.76286(18) 0.4482(3) 0.9537(7)
C15_3 C 0.7937(2) 0.5270(4) 0.9776(8)
C16_3 C 0.7756(2) 0.6149(4) 0.9463(8)
H13_3 H 0.7970 0.6648 0.9634
C17_3 C 0.7268(2) 0.6308(4) 0.8907(8)
H14_3 H 0.7150 0.6910 0.8729
C18_3 C 0.6949(2) 0.5564(4) 0.8609(8)
H15_3 H 0.6618 0.5671 0.8199
C19_3 C 0.71177(18) 0.4642(3) 0.8915(7)
C20_3 C 0.67702(17) 0.3918(3) 0.8635(7)
H16_3 H 0.6451 0.4088 0.8147
C21_3 C 0.63911(16) 0.2475(3) 0.8629(6)
H17_3 H 0.6175 0.2723 0.7555
H18_3 H 0.6474 0.1846 0.8334
H22_3 H 0.5686 0.3538 0.9495
H12_4 H 0.3272 0.0189 0.0157
C15_4 C 0.2937(2) 0.0270(4) 0.9776(8)
C16_4 C 0.2756(2) 0.1149(4) 0.9463(8)
H13_4 H 0.2970 0.1648 0.9634
C17_4 C 0.2268(2) 0.1308(4) 0.8907(8)
H14_4 H 0.2150 0.1910 0.8729
C18_4 C 0.1949(2) 0.0564(4) 0.8609(8)
H15_4 H 0.1618 0.0671 0.8199
N5_4 N 0.05303(13) 0.8171(3) 0.1963(5)
C22_4 C 0.11290(16) 0.7470(3) 0.0313(7)
C23_4 C 0.12483(18) 0.6852(4) 0.1755(8)
H19_4 H 0.1490 0.6410 0.1705
C24_4 C 0.10019(19) 0.6898(4) 0.3289(8)
H20_4 H 0.1078 0.6486 0.4282
C25_4 C 0.06461(18) 0.7553(3) 0.3327(7)
H21_4 H 0.0478 0.7568 0.4350
C26_4 C 0.07681(16) 0.8118(3) 0.0470(7)
C14_4 C 0.26286(18) 0.9482(3) 0.9537(7)
C19_4 C 0.21177(18) 0.9642(3) 0.8915(7)
C20_4 C 0.17702(17) 0.8918(3) 0.8635(7)
H16_4 H 0.1451 0.9088 0.8147
C21_4 C 0.13911(16) 0.7475(3) 0.8629(6)
H17_4 H 0.1175 0.7723 0.7555
H18_4 H 0.1474 0.6846 0.8334
H22_4 H 0.0686 0.8538 0.9495
C2_4 C 0.7063(2) 0.0270(4) 0.5224(8)
H1_4 H 0.6728 0.0189 0.4843
C3_4 C 0.7244(2) 0.1149(4) 0.5537(8)
H2_4 H 0.7030 0.1648 0.5366
C4_4 C 0.7732(2) 0.1308(4) 0.6093(8)
H3_4 H 0.7850 0.1910 0.6271
C5_4 C 0.8051(2) 0.0564(4) 0.6391(8)
H4_4 H 0.8382 0.0671 0.6801
N2_4 N 0.94697(13) 0.8171(3) 0.3037(5)
C1_4 C 0.73714(18) 0.9482(3) 0.5463(7)
C6_4 C 0.78823(18) 0.9642(3) 0.6085(7)
C7_4 C 0.82298(17) 0.8918(3) 0.6365(7)
H5_4 H 0.8549 0.9088 0.6853
C8_4 C 0.86089(16) 0.7475(3) 0.6371(6)
H6_4 H 0.8825 0.7723 0.7445
H7_4 H 0.8526 0.6846 0.6666
C9_4 C 0.88710(16) 0.7470(3) 0.4687(7)
C10_4 C 0.87517(18) 0.6852(4) 0.3245(8)
H8_4 H 0.8510 0.6410 0.3295
C11_4 C 0.89981(19) 0.6898(4) 0.1711(8)
H9_4 H 0.8922 0.6486 0.0718
C12_4 C 0.93539(18) 0.7553(3) 0.1673(7)
H10_4 H 0.9522 0.7568 0.0650
C13_4 C 0.92319(16) 0.8118(3) 0.4530(7)
H11_4 H 0.9314 0.8538 0.5505
loop_
_geom_bond_atom_site_label_1
_geom_bond_atom_site_label_2
_geom_bond_site_symmetry_1
_geom_bond_site_symmetry_2
Cd2 Cl3 1_555 1_555
Cu2 O2 1_555 1_555
O2 C14 1_555 1_555
N3 Cu2 1_555 1_555
C14 C15 1_555 1_555
C16 C15 1_555 1_555
H13 C16 1_555 1_555
C17 C16 1_555 1_555
H14 C17 1_555 1_555
C18 C17 1_555 1_555
H15 C18 1_555 1_555
C19 C14 1_555 1_555
C20 N3 1_555 1_555
H16 C20 1_555 1_555
C21 N3 1_555 1_555
H17 C21 1_555 1_555
H18 C21 1_555 1_555
C18 C19 1_555 1_555
C19 C20 1_555 1_555
Cd1 Cl1 1_555 1_555
Cu1 O1 1_555 1_555
O1 C1 1_555 1_555
N1 Cu1 1_555 1_555
N2 Cd1 1_555 1_555
C1 C2 1_555 1_555
C2 H1 1_555 1_555
C3 C2 1_555 1_555
H2 C3 1_555 1_555
C4 C3 1_555 1_555
H3 C4 1_555 1_555
C5 C4 1_555 1_555
H4 C5 1_555 1_555
C6 C1 1_555 1_555
C7 N1 1_555 1_555
H5 C7 1_555 1_555
C8 N1 1_555 1_555
H6 C8 1_555 1_555
H7 C8 1_555 1_555
C9 C8 1_555 1_555
C10 C9 1_555 1_555
H8 C10 1_555 1_555
C11 C10 1_555 1_555
H9 C11 1_555 1_555
C12 N2 1_555 1_555
H10 C12 1_555 1_555
C13 N2 1_555 1_555
H11 C13 1_555 1_555
Cd2 Cl2 1_555 1_555
Cl2 Cd1 1_555 1_555
Cl4 Cd1 1_555 1_555
O3 Cu1 1_555 1_555
N4 Cu1 1_555 1_555
N5 Cd1 1_555 1_555
C23 C22 1_555 1_555
H19 C23 1_555 1_555
C24 C23 1_555 1_555
H20 C24 1_555 1_555
C25 N5 1_555 1_555
H21 C25 1_555 1_555
C26 N5 1_555 1_555
C5 C6 1_555 1_555
C6 C7 1_555 1_555
C9 C13 1_555 1_555
C11 C12 1_555 1_555
Cd2 Cl4 1_555 1_555
C22 C26 1_555 1_555
C24 C25 1_555 1_555
Cu1_2 O1_2 1_555 1_555
O1_2 C1_2 1_555 1_555
N1_2 Cu1_2 1_555 1_555
N2_2 Cd1_2 1_555 1_555
C6_2 C1_2 1_555 1_555
C7_2 N1_2 1_555 1_555
H5_2 C7_2 1_555 1_555
C8_2 N1_2 1_555 1_555
H6_2 C8_2 1_555 1_555
H7_2 C8_2 1_555 1_555
C9_2 C8_2 1_555 1_555
C10_2 C9_2 1_555 1_555
H8_2 C10_2 1_555 1_555
C11_2 C10_2 1_555 1_555
H9_2 C11_2 1_555 1_555
C12_2 N2_2 1_555 1_555
H10_2 C12_2 1_555 1_555
C13_2 N2_2 1_555 1_555
H11_2 C13_2 1_555 1_555
O3_2 Cu1_2 1_555 1_555
N4_2 Cu1_2 1_555 1_555
C6_2 C7_2 1_555 1_555
C9_2 C13_2 1_555 1_555
C11_2 C12_2 1_555 1_555
C2_2 H1_2 1_555 1_555
C3_2 C2_2 1_555 1_555
H2_2 C3_2 1_555 1_555
C4_2 C3_2 1_555 1_555
H3_2 C4_2 1_555 1_555
C5_2 C4_2 1_555 1_555
H4_2 C5_2 1_555 1_555
Cd2_2 Cl4_2 1_555 1_555
Cu2_3 O2_2 1_555 1_555
O2_2 C14_2 1_555 1_555
N3_2 Cu2_3 1_555 1_555
C19_2 C14_2 1_555 1_555
C20_2 N3_2 1_555 1_555
H16_2 C20_2 1_555 1_555
C21_2 N3_2 1_555 1_555
H17_2 C21_2 1_555 1_555
H18_2 C21_2 1_555 1_555
C19_2 C20_2 1_555 1_555
Cl2_2 Cd1_3 1_555 1_555
N5_2 Cd1_3 1_555 1_555
C23_2 C22_2 1_555 1_555
H19_2 C23_2 1_555 1_555
C24_2 C23_2 1_555 1_555
H20_2 C24_2 1_555 1_555
C25_2 N5_2 1_555 1_555
H21_2 C25_2 1_555 1_555
C26_2 N5_2 1_555 1_555
C22_2 C26_2 1_555 1_555
C24_2 C25_2 1_555 1_555
C16_2 C15_2 1_555 1_555
H13_2 C16_2 1_555 1_555
C17_2 C16_2 1_555 1_555
H14_2 C17_2 1_555 1_555
C18_2 C17_2 1_555 1_555
H15_2 C18_2 1_555 1_555
O3_3 Cu2_2 1_555 1_555
N4_3 Cu2_2 1_555 1_555
O3_4 Cu2_4 1_555 1_555
N4_4 Cu2_4 1_555 1_555
O3_2 C1_3 1_555 1_555
N2_3 Cd2 1_555 1_555
C1_3 C2_3 1_555 1_555
C2_3 H1_3 1_555 1_555
C3_3 C2_3 1_555 1_555
H2_3 C3_3 1_555 1_555
C4_3 C3_3 1_555 1_555
H3_3 C4_3 1_555 1_555
C5_3 C4_3 1_555 1_555
H4_3 C5_3 1_555 1_555
C6_3 C1_3 1_555 1_555
C7_3 N4_2 1_555 1_555
H5_3 C7_3 1_555 1_555
C8_3 N4_2 1_555 1_555
H6_3 C8_3 1_555 1_555
H7_3 C8_3 1_555 1_555
C9_3 C8_3 1_555 1_555
C10_3 C9_3 1_555 1_555
H8_3 C10_3 1_555 1_555
C11_3 C10_3 1_555 1_555
H9_3 C11_3 1_555 1_555
C12_3 N2_3 1_555 1_555
H10_3 C12_3 1_555 1_555
C13_3 N2_3 1_555 1_555
H11_3 C13_3 1_555 1_555
N5_3 Cd2 1_555 1_555
C23_3 C22_3 1_555 1_555
H19_3 C23_3 1_555 1_555
C24_3 C23_3 1_555 1_555
H20_3 C24_3 1_555 1_555
C25_3 N5_3 1_555 1_555
H21_3 C25_3 1_555 1_555
C26_3 N5_3 1_555 1_555
C5_3 C6_3 1_555 1_555
C6_3 C7_3 1_555 1_555
C9_3 C13_3 1_555 1_555
C11_3 C12_3 1_555 1_555
C22_3 C26_3 1_555 1_555
C24_3 C25_3 1_555 1_555
O3_4 C14_3 1_555 1_555
C14_3 C15_3 1_555 1_555
C16_3 C15_3 1_555 1_555
H13_3 C16_3 1_555 1_555
C17_3 C16_3 1_555 1_555
H14_3 C17_3 1_555 1_555
C18_3 C17_3 1_555 1_555
H15_3 C18_3 1_555 1_555
C19_3 C14_3 1_555 1_555
C20_3 N4_4 1_555 1_555
H16_3 C20_3 1_555 1_555
C21_3 N4_4 1_555 1_555
H17_3 C21_3 1_555 1_555
H18_3 C21_3 1_555 1_555
C18_3 C19_3 1_555 1_555
C19_3 C20_3 1_555 1_555
C16_4 C15_4 1_555 1_555
H13_4 C16_4 1_555 1_555
C17_4 C16_4 1_555 1_555
H14_4 C17_4 1_555 1_555
C18_4 C17_4 1_555 1_555
H15_4 C18_4 1_555 1_555
N5_4 Cd2_2 1_555 1_555
C23_4 C22_4 1_555 1_555
H19_4 C23_4 1_555 1_555
C24_4 C23_4 1_555 1_555
H20_4 C24_4 1_555 1_555
C25_4 N5_4 1_555 1_555
H21_4 C25_4 1_555 1_555
C26_4 N5_4 1_555 1_555
C22_4 C26_4 1_555 1_555
C24_4 C25_4 1_555 1_555
O3_3 C14_4 1_555 1_555
C19_4 C14_4 1_555 1_555
C20_4 N4_3 1_555 1_555
H16_4 C20_4 1_555 1_555
C21_4 N4_3 1_555 1_555
H17_4 C21_4 1_555 1_555
H18_4 C21_4 1_555 1_555
C19_4 C20_4 1_555 1_555
C2_4 H1_4 1_555 1_555
C3_4 C2_4 1_555 1_555
H2_4 C3_4 1_555 1_555
C4_4 C3_4 1_555 1_555
H3_4 C4_4 1_555 1_555
C5_4 C4_4 1_555 1_555
H4_4 C5_4 1_555 1_555
O3 C1_4 1_555 1_555
N2_4 Cd2_3 1_555 1_555
C6_4 C1_4 1_555 1_555
C7_4 N4 1_555 1_555
H5_4 C7_4 1_555 1_555
C8_4 N4 1_555 1_555
H6_4 C8_4 1_555 1_555
H7_4 C8_4 1_555 1_555
C9_4 C8_4 1_555 1_555
C10_4 C9_4 1_555 1_555
H8_4 C10_4 1_555 1_555
C11_4 C10_4 1_555 1_555
H9_4 C11_4 1_555 1_555
C12_4 N2_4 1_555 1_555
H10_4 C12_4 1_555 1_555
C13_4 N2_4 1_555 1_555
H11_4 C13_4 1_555 1_555
C6_4 C7_4 1_555 1_555
C9_4 C13_4 1_555 1_555
C11_4 C12_4 1_555 1_555

#END
