
###############################################################################
#
# This file contains modified crystal structure data generated from the
# MOF subset of the Cambridge Structural Database (CSD) v543 
# hosted by the Cambridge Crystallographic Data Centre (CCDC).
#
# This work is licensed under the Creative Commons
# Attribution-NonCommercial-ShareAlike 4.0 International License.
# To view a copy of this license, visit
# http://creativecommons.org/licenses/by-nc-sa/4.0/
# or send a letter to
# Creative Commons, PO Box 1866, Mountain View, CA 94042, USA.
#
# CIF created using the CSD Python API on 29 September 2022
# The structure has been converted into the P1 space group
# The structure has a 3D framework
# The original CSD entry OFOSIO is in the triclinic crystal system
# The framework has been calculated to contain at least 10.0% void space
# The void calculation uses a probe of radius 1.32A, grid spacing 0.4
#
###############################################################################

data_OFOSIO
_chemical_formula_moiety         '(C84 H56 N12 O18 Zn4)n'
_symmetry_cell_setting           triclinic
_symmetry_space_group_name_H-M   'P 1'
_symmetry_Int_Tables_number      1
_space_group_name_Hall           'P 1'
loop_
_symmetry_equiv_pos_site_id
_symmetry_equiv_pos_as_xyz
1 x,y,z
_cell_length_a                   15.173(4)
_cell_length_b                   15.232(4)
_cell_length_c                   16.006(4)
_cell_angle_alpha                77.869(12)
_cell_angle_beta                 80.918(13)
_cell_angle_gamma                84.570(11)
_cell_volume                     3564.04
loop_
_atom_site_label
_atom_site_type_symbol
_atom_site_fract_x
_atom_site_fract_y
_atom_site_fract_z
O9 O 0.6643(8) 0.0236(6) 0.6629(7)
Zn4 Zn 0.65907(11) 0.16157(9) 0.63375(10)
Zn7 Zn 0.63046(12) 0.12115(11) 0.82437(10)
O1 O 0.5233(8) 0.1582(7) 0.6715(8)
O2 O 0.5002(7) 0.1276(7) 0.8151(7)
O6 O 0.6507(7) 0.2918(6) 0.6511(7)
O7 O 0.6219(9) 0.2580(7) 0.7948(8)
O10 O 0.6390(8) 0.9932(6) 0.8045(7)
N1 N 0.1688(10) 0.1422(10) 0.8995(10)
H1 H 0.1757 0.1852 0.9266
N2 N 0.0623(10) 0.0464(10) 0.8832(9)
N3 N 0.5518(12) 0.5562(9) 0.8821(10)
H3 H 0.4952 0.5437 0.8950
N4 N 0.6469(11) 0.6603(9) 0.8965(9)
H4 H 0.6922 0.6634 0.9237
C1 C 0.4753(11) 0.1419(9) 0.7422(12)
C2 C 0.3771(11) 0.1446(9) 0.7418(11)
C3 C 0.3161(12) 0.1373(11) 0.8171(12)
H5 H 0.3380 0.1324 0.8704
C4 C 0.2240(12) 0.1368(10) 0.8179(12)
C5 C 0.1890(11) 0.1458(10) 0.7419(11)
C6 C 0.2473(12) 0.1463(13) 0.6675(12)
H6 H 0.2252 0.1429 0.6160
C7 C 0.3441(12) 0.1522(13) 0.6661(12)
H7 H 0.3831 0.1612 0.6128
C8 C 0.0952(11) 0.1425(11) 0.7364(11)
C9 C 0.0355(12) 0.0955(13) 0.8025(12)
C13 C 0.0574(12) 0.1870(12) 0.6631(12)
H10 H 0.0956 0.2198 0.6165
C14 C 0.1038(12) 0.0786(12) 0.9361(13)
C16 C 0.6389(10) 0.3114(9) 0.7231(11)
C17 C 0.6407(12) 0.4085(10) 0.7273(11)
C18 C 0.6826(14) 0.4689(11) 0.6622(12)
H11 H 0.7116 0.4497 0.6114
C19 C 0.6840(17) 0.5569(12) 0.6681(14)
H12 H 0.7158 0.5961 0.6212
C20 C 0.6433(12) 0.5920(10) 0.7362(11)
C21 C 0.6021(12) 0.5269(10) 0.8047(12)
C22 C 0.5980(14) 0.4393(11) 0.7999(12)
H13 H 0.5661 0.3994 0.8461
C23 C 0.6447(12) 0.6903(10) 0.7392(11)
C24 C 0.6495(15) 0.7532(11) 0.6614(12)
H14 H 0.6485 0.7334 0.6091
C25 C 0.6555(13) 0.8429(10) 0.6594(11)
H15 H 0.6629 0.8850 0.6063
C26 C 0.6509(12) 0.8689(10) 0.7335(11)
C27 C 0.6470(11) 0.8083(9) 0.8105(11)
H16 H 0.6465 0.8296 0.8623
C28 C 0.6439(11) 0.7176(10) 0.8143(11)
C29 C 0.5838(13) 0.6007(10) 0.9360(13)
C30 C 0.6517(11) 0.9718(10) 0.7345(12)
N5 N 0.6584(7) 0.1699(7) 0.5077(5)
C31 C 0.5956(10) 0.1200(10) 0.4874(6)
H17 H 0.5607 0.0811 0.5320
C32 C 0.5839(11) 0.1269(11) 0.4018(7)
H18 H 0.5409 0.0927 0.3879
C33 C 0.6350(11) 0.1837(11) 0.3366(5)
C34 C 0.6978(12) 0.2337(12) 0.3569(6)
H19 H 0.7327 0.2725 0.3123
C35 C 0.7095(9) 0.2267(10) 0.4425(7)
H20 H 0.7524 0.2609 0.4564
C36 C 0.6256(19) 0.1866(13) 0.2402(12)
H21 H 0.5643 0.2096 0.2295
H22 H 0.6682 0.2282 0.2021
C37 C 0.6437(18) 0.0972(14) 0.2197(12)
H23 H 0.5985 0.0573 0.2558
H24 H 0.7030 0.0729 0.2355
C39 C 0.7214(8) 0.0974(10) 0.0683(8)
H26 H 0.7773 0.0966 0.0883
C40 C 0.6427(10) 0.0941(8) 0.1263(5)
C41 C 0.5610(8) 0.0953(8) 0.0971(7)
H27 H 0.5072 0.0931 0.1367
C42 C 0.5580(7) 0.0998(7) 0.0100(8)
O11 O 0.7921(7) 0.1586(6) 0.6433(7)
O12 O 0.7604(9) 0.1244(8) 0.7874(8)
N7 N 0.6367(8) 0.1030(6) 0.9520(5)
C38 C 0.7184(7) 0.1018(9) 0.9812(7)
H25 H 0.7722 0.1041 0.9416
H28 H 0.5021 0.1006 0.9900
H2 H 0.0499 0.9894 0.8986
C10 C 0.9446(11) 0.0955(11) 0.7963(11)
H8 H 0.9049 0.0646 0.8426
C11 C 0.9140(11) 0.1411(10) 0.7219(11)
C12 C 0.9711(12) 0.1862(11) 0.6544(12)
H9 H 0.9497 0.2164 0.6025
C15 C 0.8145(12) 0.1431(9) 0.7173(12)
O3 O 0.0901(9) 0.0586(9) 0.0156(8)
O8 O 0.5615(10) 0.5841(7) 0.0145(8)
O4 O 0.2079(7) 0.8414(6) 0.3567(7)
O5 O 0.2396(9) 0.8756(8) 0.2126(8)
C10_2 C 0.0554(11) 0.9045(11) 0.2037(11)
H8_2 H 0.0951 0.9354 0.1574
C11_2 C 0.0860(11) 0.8589(10) 0.2781(11)
C12_2 C 0.0289(12) 0.8138(11) 0.3456(12)
H9_2 H 0.0503 0.7836 0.3975
C15_2 C 0.1855(12) 0.8569(9) 0.2827(12)
Zn3 Zn 0.34093(11) 0.83843(9) 0.36625(10)
Zn5 Zn 0.36954(12) 0.87885(11) 0.17563(10)
H2_2 H 0.9501 0.0106 0.1014
O14 O 0.3610(8) 0.0068(6) 0.1955(7)
N6 N 0.3633(8) 0.8970(6) 0.0480(5)
C38_2 C 0.2816(7) 0.8982(9) 0.0188(7)
H25_2 H 0.2278 0.8959 0.0584
H28_2 H 0.4979 0.8994 0.0100
O1_2 O 0.4767(8) 0.8418(7) 0.3285(8)
O2_2 O 0.4998(7) 0.8724(7) 0.1849(7)
O6_2 O 0.3493(7) 0.7082(6) 0.3489(7)
O7_2 O 0.3781(9) 0.7420(7) 0.2052(8)
N1_2 N 0.8312(10) 0.8578(10) 0.1005(10)
H1_2 H 0.8243 0.8148 0.0734
N2_2 N 0.9377(10) 0.9536(10) 0.1168(9)
N3_2 N 0.4482(12) 0.4438(9) 0.1179(10)
H3_2 H 0.5048 0.4563 0.1050
N4_2 N 0.3531(11) 0.3397(9) 0.1035(9)
H4_2 H 0.3078 0.3366 0.0763
C1_2 C 0.5247(11) 0.8581(9) 0.2578(12)
C2_2 C 0.6229(11) 0.8554(9) 0.2582(11)
C3_2 C 0.6839(12) 0.8627(11) 0.1829(12)
H5_2 H 0.6620 0.8676 0.1296
C4_2 C 0.7760(12) 0.8632(10) 0.1821(12)
C5_2 C 0.8110(11) 0.8542(10) 0.2581(11)
C6_2 C 0.7527(12) 0.8537(13) 0.3325(12)
H6_2 H 0.7748 0.8571 0.3840
C7_2 C 0.6559(12) 0.8478(13) 0.3339(12)
H7_2 H 0.6169 0.8388 0.3872
C8_2 C 0.9048(11) 0.8575(11) 0.2636(11)
C9_2 C 0.9645(12) 0.9045(13) 0.1975(12)
C13_2 C 0.9426(12) 0.8130(12) 0.3369(12)
H10_2 H 0.9044 0.7802 0.3835
C14_2 C 0.8962(12) 0.9214(12) 0.0639(13)
C16_2 C 0.3611(10) 0.6886(9) 0.2769(11)
C17_2 C 0.3593(12) 0.5915(10) 0.2727(11)
C18_2 C 0.3174(14) 0.5311(11) 0.3378(12)
H11_2 H 0.2884 0.5503 0.3886
C19_2 C 0.3160(17) 0.4431(12) 0.3319(14)
H12_2 H 0.2842 0.4039 0.3788
C20_2 C 0.3567(12) 0.4080(10) 0.2638(11)
C21_2 C 0.3979(12) 0.4731(10) 0.1953(12)
C22_2 C 0.4020(14) 0.5607(11) 0.2001(12)
H13_2 H 0.4339 0.6006 0.1539
C23_2 C 0.3553(12) 0.3097(10) 0.2608(11)
C24_2 C 0.3505(15) 0.2468(11) 0.3386(12)
H14_2 H 0.3515 0.2666 0.3909
C25_2 C 0.3445(13) 0.1571(10) 0.3406(11)
H15_2 H 0.3371 0.1150 0.3937
C26_2 C 0.3491(12) 0.1311(10) 0.2665(11)
C27_2 C 0.3530(11) 0.1917(9) 0.1895(11)
H16_2 H 0.3535 0.1704 0.1377
C28_2 C 0.3561(11) 0.2824(10) 0.1857(11)
C29_2 C 0.4162(13) 0.3993(10) 0.0640(13)
C30_2 C 0.3483(11) 0.0282(10) 0.2655(12)
N5_2 N 0.3416(7) 0.8301(7) 0.4923(5)
C31_2 C 0.4044(10) 0.8800(10) 0.5126(6)
H17_2 H 0.4393 0.9189 0.4680
C32_2 C 0.4161(11) 0.8731(11) 0.5982(7)
H18_2 H 0.4591 0.9073 0.6121
C33_2 C 0.3650(11) 0.8163(11) 0.6634(5)
C34_2 C 0.3022(12) 0.7663(12) 0.6431(6)
H19_2 H 0.2673 0.7275 0.6877
C35_2 C 0.2905(9) 0.7733(10) 0.5575(7)
H20_2 H 0.2476 0.7391 0.5436
C36_2 C 0.3744(19) 0.8134(13) 0.7598(12)
H21_2 H 0.4357 0.7904 0.7705
H22_2 H 0.3318 0.7718 0.7979
C37_2 C 0.3563(18) 0.9028(14) 0.7803(12)
H23_2 H 0.4015 0.9427 0.7442
H24_2 H 0.2970 0.9271 0.7645
C39_2 C 0.2786(8) 0.9026(10) 0.9317(8)
H26_2 H 0.2227 0.9034 0.9117
C40_2 C 0.3573(10) 0.9059(8) 0.8737(5)
C41_2 C 0.4390(8) 0.9047(8) 0.9029(7)
H27_2 H 0.4928 0.9069 0.8633
C42_2 C 0.4420(7) 0.9002(7) 0.9900(8)
O13 O 0.3357(8) 0.9764(6) 0.3371(7)
O3_2 O 0.9099(9) 0.9414(9) 0.9844(8)
O8_2 O 0.4385(10) 0.4159(7) 0.9855(8)
loop_
_geom_bond_atom_site_label_1
_geom_bond_atom_site_label_2
_geom_bond_site_symmetry_1
_geom_bond_site_symmetry_2
Zn4 O9 1_555 1_555
Zn4 O1 1_555 1_555
Zn7 O2 1_555 1_555
O1 C1 1_555 1_555
O2 C1 1_555 1_555
O6 Zn4 1_555 1_555
O7 Zn7 1_555 1_555
O10 C30 1_555 1_555
N1 H1 1_555 1_555
N3 H3 1_555 1_555
N4 H4 1_555 1_555
C1 C2 1_555 1_555
C2 C3 1_555 1_555
C3 H5 1_555 1_555
C4 N1 1_555 1_555
C5 C4 1_555 1_555
C6 C5 1_555 1_555
H6 C6 1_555 1_555
C7 C2 1_555 1_555
H7 C7 1_555 1_555
C8 C5 1_555 1_555
C9 N2 1_555 1_555
C13 C8 1_555 1_555
H10 C13 1_555 1_555
C14 N1 1_555 1_555
C16 O6 1_555 1_555
C17 C16 1_555 1_555
C18 C17 1_555 1_555
H11 C18 1_555 1_555
C19 C18 1_555 1_555
H12 C19 1_555 1_555
C20 C19 1_555 1_555
C21 N3 1_555 1_555
C22 C17 1_555 1_555
H13 C22 1_555 1_555
C23 C20 1_555 1_555
C24 C23 1_555 1_555
H14 C24 1_555 1_555
C25 C24 1_555 1_555
H15 C25 1_555 1_555
C26 C25 1_555 1_555
C27 C26 1_555 1_555
H16 C27 1_555 1_555
C28 N4 1_555 1_555
C29 N3 1_555 1_555
C30 C26 1_555 1_555
N5 Zn4 1_555 1_555
C31 N5 1_555 1_555
H17 C31 1_555 1_555
C32 C31 1_555 1_555
H18 C32 1_555 1_555
C33 C32 1_555 1_555
C34 C33 1_555 1_555
H19 C34 1_555 1_555
C35 N5 1_555 1_555
H20 C35 1_555 1_555
C36 C33 1_555 1_555
H21 C36 1_555 1_555
H22 C36 1_555 1_555
C37 C36 1_555 1_555
H23 C37 1_555 1_555
H24 C37 1_555 1_555
H26 C39 1_555 1_555
C40 C37 1_555 1_555
C41 C40 1_555 1_555
H27 C41 1_555 1_555
O11 Zn4 1_555 1_555
O12 Zn7 1_555 1_555
N7 Zn7 1_555 1_555
O7 C16 1_555 1_555
N2 C14 1_555 1_555
N4 C29 1_555 1_555
C3 C4 1_555 1_555
C6 C7 1_555 1_555
C8 C9 1_555 1_555
C20 C21 1_555 1_555
C21 C22 1_555 1_555
C23 C28 1_555 1_555
C27 C28 1_555 1_555
C34 C35 1_555 1_555
C39 C40 1_555 1_555
C41 C42 1_555 1_555
N7 C38 1_555 1_555
C38 H25 1_555 1_555
O11 C15 1_555 1_555
O12 C15 1_555 1_555
H8 C10 1_555 1_555
C11 C10 1_555 1_555
C12 C11 1_555 1_555
H9 C12 1_555 1_555
C15 C11 1_555 1_555
O4 C15_2 1_555 1_555
O5 C15_2 1_555 1_555
H8_2 C10_2 1_555 1_555
C11_2 C10_2 1_555 1_555
C12_2 C11_2 1_555 1_555
H9_2 C12_2 1_555 1_555
C15_2 C11_2 1_555 1_555
Zn3 O4 1_555 1_555
Zn5 O5 1_555 1_555
N6 C38_2 1_555 1_555
C38_2 H25_2 1_555 1_555
Zn5 N6 1_555 1_555
Zn3 O1_2 1_555 1_555
Zn5 O2_2 1_555 1_555
O1_2 C1_2 1_555 1_555
O2_2 C1_2 1_555 1_555
O6_2 Zn3 1_555 1_555
O7_2 Zn5 1_555 1_555
O14 C30_2 1_555 1_555
N1_2 H1_2 1_555 1_555
N3_2 H3_2 1_555 1_555
N4_2 H4_2 1_555 1_555
C1_2 C2_2 1_555 1_555
C2_2 C3_2 1_555 1_555
C3_2 H5_2 1_555 1_555
C4_2 N1_2 1_555 1_555
C5_2 C4_2 1_555 1_555
C6_2 C5_2 1_555 1_555
H6_2 C6_2 1_555 1_555
C7_2 C2_2 1_555 1_555
H7_2 C7_2 1_555 1_555
C8_2 C5_2 1_555 1_555
C9_2 N2_2 1_555 1_555
C13_2 C8_2 1_555 1_555
H10_2 C13_2 1_555 1_555
C14_2 N1_2 1_555 1_555
C16_2 O6_2 1_555 1_555
C17_2 C16_2 1_555 1_555
C18_2 C17_2 1_555 1_555
H11_2 C18_2 1_555 1_555
C19_2 C18_2 1_555 1_555
H12_2 C19_2 1_555 1_555
C20_2 C19_2 1_555 1_555
C21_2 N3_2 1_555 1_555
C22_2 C17_2 1_555 1_555
H13_2 C22_2 1_555 1_555
C23_2 C20_2 1_555 1_555
C24_2 C23_2 1_555 1_555
H14_2 C24_2 1_555 1_555
C25_2 C24_2 1_555 1_555
H15_2 C25_2 1_555 1_555
C26_2 C25_2 1_555 1_555
C27_2 C26_2 1_555 1_555
H16_2 C27_2 1_555 1_555
C28_2 N4_2 1_555 1_555
C29_2 N3_2 1_555 1_555
C30_2 C26_2 1_555 1_555
N5_2 Zn3 1_555 1_555
C31_2 N5_2 1_555 1_555
H17_2 C31_2 1_555 1_555
C32_2 C31_2 1_555 1_555
H18_2 C32_2 1_555 1_555
C33_2 C32_2 1_555 1_555
C34_2 C33_2 1_555 1_555
H19_2 C34_2 1_555 1_555
C35_2 N5_2 1_555 1_555
H20_2 C35_2 1_555 1_555
C36_2 C33_2 1_555 1_555
H21_2 C36_2 1_555 1_555
H22_2 C36_2 1_555 1_555
C37_2 C36_2 1_555 1_555
H23_2 C37_2 1_555 1_555
H24_2 C37_2 1_555 1_555
H26_2 C39_2 1_555 1_555
C40_2 C37_2 1_555 1_555
C41_2 C40_2 1_555 1_555
H27_2 C41_2 1_555 1_555
O13 Zn3 1_555 1_555
O7_2 C16_2 1_555 1_555
N2_2 C14_2 1_555 1_555
N4_2 C29_2 1_555 1_555
C3_2 C4_2 1_555 1_555
C6_2 C7_2 1_555 1_555
C8_2 C9_2 1_555 1_555
C20_2 C21_2 1_555 1_555
C21_2 C22_2 1_555 1_555
C23_2 C28_2 1_555 1_555
C27_2 C28_2 1_555 1_555
C34_2 C35_2 1_555 1_555
C39_2 C40_2 1_555 1_555
C41_2 C42_2 1_555 1_555

#END
