
###############################################################################
#
# This file contains modified crystal structure data generated from the
# MOF subset of the Cambridge Structural Database (CSD) v543 
# hosted by the Cambridge Crystallographic Data Centre (CCDC).
#
# This work is licensed under the Creative Commons
# Attribution-NonCommercial-ShareAlike 4.0 International License.
# To view a copy of this license, visit
# http://creativecommons.org/licenses/by-nc-sa/4.0/
# or send a letter to
# Creative Commons, PO Box 1866, Mountain View, CA 94042, USA.
#
# CIF created using the CSD Python API on 29 September 2022
# The structure has been converted into the P1 space group
# The structure has a 3D framework
# The original CSD entry OFOYUG is in the monoclinic crystal system
# The framework has been calculated to contain at least 10.0% void space
# The void calculation uses a probe of radius 1.32A, grid spacing 0.4
#
###############################################################################

data_OFOYUG
_chemical_formula_moiety         '(C56 H32 Ca2 O22 S4)n'
_symmetry_cell_setting           triclinic
_symmetry_space_group_name_H-M   'P 1'
_symmetry_Int_Tables_number      1
_space_group_name_Hall           'P 1'
loop_
_symmetry_equiv_pos_site_id
_symmetry_equiv_pos_as_xyz
1 x,y,z
_cell_length_a                   11.7421(5)
_cell_length_b                   5.5672(2)
_cell_length_c                   22.7776(10)
_cell_angle_alpha                90
_cell_angle_beta                 100.076(2)
_cell_angle_gamma                90
_cell_volume                     1466.02
loop_
_atom_site_label
_atom_site_type_symbol
_atom_site_fract_x
_atom_site_fract_y
_atom_site_fract_z
C5 C 0.1035(5) 0.0116(11) 0.1712(3)
H3 H 0.0433 0.1258 0.1709
C6 C 0.1954(5) 0.0596(11) 0.1413(3)
H4 H 0.1976 0.2056 0.1199
H8 H 0.2757 0.2134 0.0080
O5 O 0.4178(4) 0.2221(7) 0.11084(18)
O8 O 0.5128(4) 0.0249(8) 0.25368(19)
O10 O 0.7402(4) 0.0865(8) 0.19084(18)
C12 C 0.2682(5) 0.0116(11) 0.9322(3)
H7 H 0.2283 0.1269 0.9055
C13 C 0.2962(5) 0.0634(11) 0.9929(3)
Ca5 Ca 0.36199(9) 0.2427(2) 0.77805(5)
C1 C 0.2825(5) 0.8931(11) 0.1430(2)
C2 C 0.2825(5) 0.6749(11) 0.1726(2)
H1 H 0.3441 0.5634 0.1735
C3 C 0.1892(5) 0.6256(10) 0.2008(2)
H2 H 0.1852 0.4749 0.2198
C4 C 0.1013(5) 0.7937(10) 0.2015(2)
C7 C 0.0060(5) 0.7420(11) 0.2371(2)
C8 C 0.3547(5) 0.8920(10) 0.0310(2)
C9 C 0.3823(5) 0.6697(11) 0.0107(2)
H5 H 0.4199 0.5527 0.0377
O6 O 0.4963(3) 0.8070(8) 0.12982(17)
S1 S 0.40052(11) 0.9659(2) 0.10720(6)
Ca1 Ca 0.63801(9) 0.7573(2) 0.22195(5)
O7 O 0.5426(4) 0.4193(8) 0.24476(19)
O9 O 0.7358(4) 0.4783(8) 0.17153(18)
O11 O 0.7598(4) 0.5865(8) 0.30916(18)
C10 C 0.3539(5) 0.6191(11) 0.9496(3)
H6 H 0.3726 0.4673 0.9349
C11 C 0.2985(5) 0.7910(11) 0.9109(2)
C14 C 0.2731(5) 0.7384(11) 0.8448(2)
O3 O 0.2642(4) 0.5217(8) 0.82847(18)
O4 O 0.2598(4) 0.9135(8) 0.80916(18)
Ca6 Ca 0.13801(9) 0.7427(2) 0.72195(5)
Ca3 Ca 0.86199(9) 0.2573(2) 0.27805(5)
O1 O 0.9574(4) 0.9193(8) 0.25524(19)
O2 O 0.9872(4) 0.5249(8) 0.24632(19)
C1_2 C 0.2175(5) 0.3931(11) 0.3570(2)
C2_2 C 0.2175(5) 0.1749(11) 0.3274(2)
H1_2 H 0.1559 0.0634 0.3265
C3_2 C 0.3108(5) 0.1256(10) 0.2992(2)
C4_2 C 0.3987(5) 0.2937(10) 0.2985(2)
C5_2 C 0.3965(5) 0.5116(11) 0.3288(3)
H3_2 H 0.4567 0.6258 0.3291
C6_2 C 0.3046(5) 0.5596(11) 0.3587(3)
H4_2 H 0.3024 0.7056 0.3801
C7_2 C 0.4940(5) 0.2420(11) 0.2629(2)
C8_2 C 0.1453(5) 0.3920(10) 0.4690(2)
C9_2 C 0.1177(5) 0.1697(11) 0.4893(2)
H5_2 H 0.0801 0.0527 0.4623
C10_2 C 0.1461(5) 0.1191(11) 0.5504(3)
C11_2 C 0.2015(5) 0.2910(11) 0.5891(2)
C12_2 C 0.2318(5) 0.5116(11) 0.5678(3)
H7_2 H 0.2717 0.6269 0.5945
C13_2 C 0.2038(5) 0.5634(11) 0.5071(3)
H8_2 H 0.2243 0.7134 0.4920
C14_2 C 0.2269(5) 0.2384(11) 0.6552(2)
O3_2 O 0.2358(4) 0.0217(8) 0.67153(18)
O4_2 O 0.2402(4) 0.4135(8) 0.69084(18)
O5_2 O 0.0822(4) 0.7221(7) 0.38916(18)
O6_2 O 0.0037(3) 0.3070(8) 0.37018(17)
S1_2 S 0.09948(11) 0.4659(2) 0.39280(6)
H2_2 H 0.3148 0.9749 0.2802
H6_2 H 0.1274 0.9673 0.5651
O9_2 O 0.7642(4) 0.9783(8) 0.32847(18)
O1_2 O 0.0426(4) 0.0807(8) 0.74476(19)
O2_2 O 0.0128(4) 0.4751(8) 0.75368(19)
C10_3 C 0.6461(5) 0.3809(11) 0.0504(3)
H6_3 H 0.6274 0.5327 0.0651
C11_3 C 0.7015(5) 0.2090(11) 0.0891(2)
C14_3 C 0.7269(5) 0.2616(11) 0.1552(2)
C1_3 C 0.7175(5) 0.1069(11) 0.8570(2)
C2_3 C 0.7175(5) 0.3251(11) 0.8274(2)
H1_3 H 0.6559 0.4366 0.8265
C3_3 C 0.8108(5) 0.3744(10) 0.7992(2)
H2_3 H 0.8148 0.5251 0.7802
C4_3 C 0.8987(5) 0.2063(10) 0.7985(2)
C7_3 C 0.9940(5) 0.2580(11) 0.7629(2)
C8_3 C 0.6453(5) 0.1080(10) 0.9690(2)
C9_3 C 0.6177(5) 0.3303(11) 0.9893(2)
H5_3 H 0.5801 0.4473 0.9623
O6_3 O 0.5037(3) 0.1930(8) 0.87018(17)
S1_3 S 0.59948(11) 0.0341(2) 0.89280(6)
O7_2 O 0.4574(4) 0.5807(8) 0.75524(19)
C12_3 C 0.7318(5) 0.9884(11) 0.0678(3)
H7_3 H 0.7717 0.8731 0.0945
C13_3 C 0.7038(5) 0.9366(11) 0.0071(3)
C5_3 C 0.8965(5) 0.9884(11) 0.8288(3)
H3_3 H 0.9567 0.8742 0.8291
C6_3 C 0.8046(5) 0.9404(11) 0.8587(3)
H4_3 H 0.8024 0.7944 0.8801
H8_3 H 0.7243 0.7866 0.9920
O5_3 O 0.5822(4) 0.7779(7) 0.88916(18)
O8_2 O 0.4872(4) 0.9751(8) 0.74632(19)
H2_4 H 0.6852 0.0251 0.7198
H6_4 H 0.8726 0.0327 0.4349
C1_4 C 0.7825(5) 0.6069(11) 0.6430(2)
C2_4 C 0.7825(5) 0.8251(11) 0.6726(2)
H1_4 H 0.8441 0.9366 0.6735
C3_4 C 0.6892(5) 0.8744(10) 0.7008(2)
C4_4 C 0.6013(5) 0.7063(10) 0.7015(2)
C5_4 C 0.6035(5) 0.4884(11) 0.6712(3)
H3_4 H 0.5433 0.3742 0.6709
C6_4 C 0.6954(5) 0.4404(11) 0.6413(3)
H4_4 H 0.6976 0.2944 0.6199
C7_4 C 0.5060(5) 0.7580(11) 0.7371(2)
C8_4 C 0.8547(5) 0.6080(10) 0.5310(2)
C9_4 C 0.8823(5) 0.8303(11) 0.5107(2)
H5_4 H 0.9199 0.9473 0.5377
C10_4 C 0.8539(5) 0.8809(11) 0.4496(3)
C11_4 C 0.7985(5) 0.7090(11) 0.4109(2)
C12_4 C 0.7682(5) 0.4884(11) 0.4322(3)
H7_4 H 0.7283 0.3731 0.4055
C13_4 C 0.7962(5) 0.4366(11) 0.4929(3)
H8_4 H 0.7757 0.2866 0.5080
C14_4 C 0.7731(5) 0.7616(11) 0.3448(2)
O5_4 O 0.9178(4) 0.2779(7) 0.61084(18)
O6_4 O 0.9963(3) 0.6930(8) 0.62982(17)
S1_4 S 0.90052(11) 0.5341(2) 0.60720(6)
loop_
_geom_bond_atom_site_label_1
_geom_bond_atom_site_label_2
_geom_bond_site_symmetry_1
_geom_bond_site_symmetry_2
H3 C5 1_555 1_555
H4 C6 1_555 1_555
C5 C6 1_555 1_555
H7 C12 1_555 1_555
C12 C13 1_555 1_555
C1 C2 1_555 1_555
C2 H1 1_555 1_555
C3 C2 1_555 1_555
H2 C3 1_555 1_555
C4 C3 1_555 1_555
C7 C4 1_555 1_555
C8 C9 1_555 1_555
C9 H5 1_555 1_555
O6 S1 1_555 1_555
S1 C1 1_555 1_555
Ca1 O6 1_555 1_555
O7 Ca1 1_555 1_555
O9 Ca1 1_555 1_555
O11 Ca1 1_555 1_555
C8 S1 1_555 1_555
H6 C10 1_555 1_555
C11 C10 1_555 1_555
C14 C11 1_555 1_555
O3 C14 1_555 1_555
O4 C14 1_555 1_555
Ca5 O3 1_555 1_555
Ca6 O4 1_555 1_555
Ca3 O2 1_555 1_555
C1_2 C2_2 1_555 1_555
C2_2 H1_2 1_555 1_555
C3_2 C2_2 1_555 1_555
C4_2 C3_2 1_555 1_555
C5_2 C4_2 1_555 1_555
H3_2 C5_2 1_555 1_555
C6_2 C1_2 1_555 1_555
H4_2 C6_2 1_555 1_555
C7_2 C4_2 1_555 1_555
C8_2 C9_2 1_555 1_555
C9_2 H5_2 1_555 1_555
C10_2 C9_2 1_555 1_555
C11_2 C10_2 1_555 1_555
C12_2 C11_2 1_555 1_555
H7_2 C12_2 1_555 1_555
C13_2 C8_2 1_555 1_555
H8_2 C13_2 1_555 1_555
C14_2 C11_2 1_555 1_555
O7 C7_2 1_555 1_555
O8 C7_2 1_555 1_555
O3_2 C14_2 1_555 1_555
O4_2 C14_2 1_555 1_555
O5_2 S1_2 1_555 1_555
O6_2 S1_2 1_555 1_555
S1_2 C1_2 1_555 1_555
Ca6 O4_2 1_555 1_555
Ca5 O4_2 1_555 1_555
C5_2 C6_2 1_555 1_555
C8_2 S1_2 1_555 1_555
C12_2 C13_2 1_555 1_555
O11 Ca3 1_555 1_555
O10 Ca3 1_555 1_555
Ca6 O2_2 1_555 1_555
H6_3 C10_3 1_555 1_555
C11_3 C10_3 1_555 1_555
C14_3 C11_3 1_555 1_555
O9 C14_3 1_555 1_555
O10 C14_3 1_555 1_555
C1_3 C2_3 1_555 1_555
C2_3 H1_3 1_555 1_555
C3_3 C2_3 1_555 1_555
H2_3 C3_3 1_555 1_555
C4_3 C3_3 1_555 1_555
C7_3 C4_3 1_555 1_555
C8_3 C9_3 1_555 1_555
C9_3 H5_3 1_555 1_555
O6_3 S1_3 1_555 1_555
S1_3 C1_3 1_555 1_555
Ca5 O6_3 1_555 1_555
O7_2 Ca5 1_555 1_555
C8_3 S1_3 1_555 1_555
H7_3 C12_3 1_555 1_555
C12_3 C13_3 1_555 1_555
H3_3 C5_3 1_555 1_555
H4_3 C6_3 1_555 1_555
C5_3 C6_3 1_555 1_555
C1_4 C2_4 1_555 1_555
C2_4 H1_4 1_555 1_555
C3_4 C2_4 1_555 1_555
C4_4 C3_4 1_555 1_555
C5_4 C4_4 1_555 1_555
H3_4 C5_4 1_555 1_555
C6_4 C1_4 1_555 1_555
H4_4 C6_4 1_555 1_555
C7_4 C4_4 1_555 1_555
C8_4 C9_4 1_555 1_555
C9_4 H5_4 1_555 1_555
C10_4 C9_4 1_555 1_555
C11_4 C10_4 1_555 1_555
C12_4 C11_4 1_555 1_555
H7_4 C12_4 1_555 1_555
C13_4 C8_4 1_555 1_555
H8_4 C13_4 1_555 1_555
C14_4 C11_4 1_555 1_555
O7_2 C7_4 1_555 1_555
O8_2 C7_4 1_555 1_555
O9_2 C14_4 1_555 1_555
O11 C14_4 1_555 1_555
O5_4 S1_4 1_555 1_555
O6_4 S1_4 1_555 1_555
S1_4 C1_4 1_555 1_555
C5_4 C6_4 1_555 1_555
C8_4 S1_4 1_555 1_555
C12_4 C13_4 1_555 1_555

#END
