
###############################################################################
#
# This file contains modified crystal structure data generated from the
# MOF subset of the Cambridge Structural Database (CSD) v543 
# hosted by the Cambridge Crystallographic Data Centre (CCDC).
#
# This work is licensed under the Creative Commons
# Attribution-NonCommercial-ShareAlike 4.0 International License.
# To view a copy of this license, visit
# http://creativecommons.org/licenses/by-nc-sa/4.0/
# or send a letter to
# Creative Commons, PO Box 1866, Mountain View, CA 94042, USA.
#
# CIF created using the CSD Python API on 29 September 2022
# The structure has been converted into the P1 space group
# The structure has a 3D framework
# The original CSD entry OFUHIJ is in the triclinic crystal system
# The framework has been calculated to contain at least 10.0% void space
# The void calculation uses a probe of radius 1.32A, grid spacing 0.4
#
###############################################################################

data_OFUHIJ
_chemical_formula_moiety         '(C72 H80 N8 O32 Pb8)n'
_symmetry_cell_setting           triclinic
_symmetry_space_group_name_H-M   'P 1'
_symmetry_Int_Tables_number      1
_space_group_name_Hall           'P 1'
loop_
_symmetry_equiv_pos_site_id
_symmetry_equiv_pos_as_xyz
1 x,y,z
_cell_length_a                   14.051(2)
_cell_length_b                   14.653(2)
_cell_length_c                   15.831(2)
_cell_angle_alpha                69.806(2)
_cell_angle_beta                 78.253(3)
_cell_angle_gamma                75.840(2)
_cell_volume                     2940.6
loop_
_atom_site_label
_atom_site_type_symbol
_atom_site_fract_x
_atom_site_fract_y
_atom_site_fract_z
N4 N 0.1789(4) 0.0263(5) 0.0590(4)
C31 C 0.1198(5) 0.0340(5) 0.2087(4)
H33 H 0.1294 0.0503 0.2584
C32 C 0.1888(5) 0.0464(6) 0.1317(4)
H34 H 0.2454 0.0702 0.1309
Pb4 Pb 0.31832(2) 0.04460(2) 0.91898(2)
O15 O 0.1737(4) 0.1501(4) 0.8508(4)
O16 O 0.3047(4) 0.1633(4) 0.7502(4)
C33 C 0.2152(6) 0.1904(6) 0.7721(5)
C34 C 0.1547(9) 0.2721(8) 0.7062(8)
H35 H 0.1954 0.3196 0.6680
H36 H 0.0989 0.3048 0.7393
H37 H 0.1306 0.2447 0.6687
Pb6 Pb 0.45398(2) 0.18216(2) 0.60189(2)
O20 O 0.3300(4) 0.1959(4) 0.9781(4)
H28 H 0.0499 0.9670 0.3883
C28 C 0.1019(6) 0.9859(8) 0.0643(5)
H31 H 0.0962 0.9676 0.0144
C29 C 0.0299(6) 0.9693(8) 0.1387(5)
C30 C 0.0374(5) 0.9977(6) 0.2123(4)
O19 O 0.4155(4) 0.8677(4) 0.0358(3)
O13 O 0.2379(4) 0.9191(4) 0.9113(3)
O14 O 0.3794(4) 0.9049(4) 0.8239(3)
C35 C 0.3007(6) 0.8752(6) 0.8622(5)
C36 C 0.2794(8) 0.7837(8) 0.8521(8)
H38 H 0.3242 0.7669 0.8021
H39 H 0.2116 0.7963 0.8401
H40 H 0.2886 0.7291 0.9077
Pb7 Pb 0.55662(2) 0.81608(2) 0.90083(2)
O11 O 0.7730(4) 0.0596(4) 0.5931(4)
O12 O 0.6295(4) 0.0836(4) 0.6773(3)
C21 C 0.7120(6) 0.1065(6) 0.6406(5)
C22 C 0.7398(8) 0.1957(8) 0.6512(8)
H24 H 0.7168 0.2548 0.6031
H25 H 0.8112 0.1857 0.6476
H26 H 0.7091 0.2035 0.7096
O18 O 0.5937(4) 0.1182(4) 0.4684(3)
O5 O 0.4366(4) 0.7264(4) 0.0089(3)
O8 O 0.6700(4) 0.8041(4) 0.0219(4)
C15 C 0.7014(6) 0.7168(6) 0.0261(5)
C16 C 0.7888(9) 0.6590(8) 0.0783(8)
H15 H 0.8251 0.7049 0.0833
H16 H 0.8322 0.6156 0.0462
H17 H 0.7646 0.6198 0.1385
C17 C 0.3906(6) 0.7876(6) 0.0510(4)
C18 C 0.3007(8) 0.7613(8) 0.1190(6)
H18 H 0.2441 0.8144 0.1039
H19 H 0.3138 0.7523 0.1795
H20 H 0.2867 0.7005 0.1171
Pb11 Pb 0.68168(2) 0.95540(2) 0.08102(2)
Pb3 Pb 0.68445(2) 0.94153(2) 0.58635(2)
O1 O 0.3395(4) 0.2032(4) 0.4801(4)
O2 O 0.3448(5) 0.3291(4) 0.5194(4)
O3 O 0.5771(5) 0.2614(4) 0.4896(3)
O7 O 0.6674(5) 0.6744(4) 0.9863(4)
O9 O 0.7035(4) 0.8335(4) 0.7569(4)
O10 O 0.8283(4) 0.8258(5) 0.6519(4)
N1 N 0.4760(5) 0.3197(4) 0.6626(4)
N2 N 0.5498(5) 0.6783(4) 0.8366(4)
N3 N 0.8217(4) 0.9514(5) 0.4495(4)
C1 C 0.3090(6) 0.2892(6) 0.4775(5)
C2 C 0.2240(10) 0.3515(9) 0.4240(9)
H1 H 0.2501 0.3807 0.3612
H2 H 0.1893 0.4037 0.4498
H3 H 0.1786 0.3099 0.4270
C3 C 0.6229(6) 0.1970(6) 0.4511(4)
C4 C 0.7154(9) 0.2189(8) 0.3857(7)
H4 H 0.7260 0.2835 0.3811
H5 H 0.7718 0.1688 0.4078
H6 H 0.7076 0.2184 0.3264
C5 C 0.4546(5) 0.3097(5) 0.7510(4)
H7 H 0.4299 0.2536 0.7905
C6 C 0.4674(6) 0.3790(5) 0.7864(5)
H8 H 0.4503 0.3702 0.8489
C7 C 0.5054(6) 0.4615(4) 0.7304(4)
C8 C 0.5303(9) 0.4701(6) 0.6395(5)
H9 H 0.5585 0.5235 0.5989
C9 C 0.5126(9) 0.3980(6) 0.6094(5)
H10 H 0.5276 0.4056 0.5470
C10 C 0.5502(8) 0.5861(6) 0.8887(5)
H11 H 0.5588 0.5692 0.9499
C11 C 0.5384(7) 0.5127(5) 0.8571(5)
H12 H 0.5414 0.4473 0.8960
C12 C 0.5221(6) 0.5365(4) 0.7665(4)
C13 C 0.5283(5) 0.6318(5) 0.7126(4)
H13 H 0.5233 0.6506 0.6503
C14 C 0.5417(6) 0.6994(5) 0.7489(4)
H14 H 0.5453 0.7639 0.7101
C19 C 0.7899(6) 0.7934(6) 0.7322(5)
C20 C 0.8463(9) 0.7070(9) 0.7978(8)
H21 H 0.9022 0.6745 0.7647
H22 H 0.8032 0.6605 0.8324
H23 H 0.8699 0.7301 0.8389
C23 C 0.9132(6) 0.9512(8) 0.4557(5)
H27 H 0.9306 0.9404 0.5132
C24 C 0.9853(6) 0.9662(9) 0.3812(5)
C25 C 0.9619(5) 0.9804(6) 0.2950(4)
C26 C 0.8679(5) 0.9739(5) 0.2909(4)
H29 H 0.8492 0.9793 0.2354
C27 C 0.8007(5) 0.9595(5) 0.3680(4)
H30 H 0.7364 0.9551 0.3635
H32 H 0.9773 0.9396 0.1398
Pb9 Pb 0.31555(2) 0.05847(2) 0.41365(2)
O17 O 0.6605(4) 0.7968(4) 0.5199(4)
Pb1 Pb 0.54602(2) 0.81784(2) 0.39811(2)
Pb2 Pb 0.44338(2) 0.18392(2) 0.09917(2)
O2_2 O 0.6552(5) 0.6709(4) 0.4806(4)
O3_2 O 0.4229(5) 0.7386(4) 0.5104(3)
O4 O 0.4063(4) 0.8818(4) 0.5316(3)
O7_2 O 0.3326(5) 0.3256(4) 0.0137(4)
O9_2 O 0.2965(4) 0.1665(4) 0.2431(4)
O10_2 O 0.1717(4) 0.1742(5) 0.3481(4)
N1_2 N 0.5240(5) 0.6803(4) 0.3374(4)
N2_2 N 0.4502(5) 0.3217(4) 0.1634(4)
N3_2 N 0.1783(4) 0.0486(5) 0.5505(4)
C1_2 C 0.6910(6) 0.7108(6) 0.5225(5)
C2_2 C 0.7760(10) 0.6485(9) 0.5760(9)
H1_2 H 0.7499 0.6193 0.6388
H2_2 H 0.8107 0.5963 0.5502
H3_2 H 0.8214 0.6901 0.5730
C3_2 C 0.3771(6) 0.8030(6) 0.5489(4)
C4_2 C 0.2846(9) 0.7811(8) 0.6143(7)
H4_2 H 0.2740 0.7165 0.6189
H5_2 H 0.2282 0.8312 0.5922
H6_2 H 0.2924 0.7816 0.6736
C5_2 C 0.5454(5) 0.6903(5) 0.2490(4)
H7_2 H 0.5701 0.7464 0.2095
C6_2 C 0.5326(6) 0.6210(5) 0.2136(5)
H8_2 H 0.5497 0.6298 0.1511
C7_2 C 0.4946(6) 0.5385(4) 0.2696(4)
C8_2 C 0.4697(9) 0.5299(6) 0.3605(5)
H9_2 H 0.4415 0.4765 0.4011
C9_2 C 0.4874(9) 0.6020(6) 0.3906(5)
H10_2 H 0.4724 0.5944 0.4530
C10_2 C 0.4498(8) 0.4139(6) 0.1113(5)
H11_2 H 0.4412 0.4308 0.0501
C11_2 C 0.4616(7) 0.4873(5) 0.1429(5)
H12_2 H 0.4586 0.5527 0.1040
C12_2 C 0.4779(6) 0.4635(4) 0.2335(4)
C13_2 C 0.4717(5) 0.3682(5) 0.2874(4)
H13_2 H 0.4767 0.3494 0.3497
C14_2 C 0.4583(6) 0.3006(5) 0.2511(4)
H14_2 H 0.4547 0.2361 0.2899
C19_2 C 0.2101(6) 0.2066(6) 0.2678(5)
C20_2 C 0.1537(9) 0.2930(9) 0.2022(8)
H21_2 H 0.0978 0.3255 0.2353
H22_2 H 0.1968 0.3395 0.1676
H23_2 H 0.1301 0.2699 0.1611
C23_2 C 0.0868(6) 0.0488(8) 0.5443(5)
H27_2 H 0.0694 0.0596 0.4868
C24_2 C 0.0147(6) 0.0338(9) 0.6188(5)
C25_2 C 0.0381(5) 0.0196(6) 0.7050(4)
C26_2 C 0.1321(5) 0.0261(5) 0.7091(4)
H29_2 H 0.1508 0.0207 0.7646
C27_2 C 0.1993(5) 0.0405(5) 0.6320(4)
H30_2 H 0.2636 0.0449 0.6365
H32_2 H 0.0227 0.0604 0.8602
O21 O 0.3705(4) 0.9164(4) 0.3227(3)
O22 O 0.6206(4) 0.0951(4) 0.1761(3)
O23 O 0.6953(4) 0.8367(4) 0.2498(4)
O5_2 O 0.5634(4) 0.2736(4) 0.9911(3)
O6 O 0.5845(4) 0.1323(4) 0.9642(3)
C15_2 C 0.2986(6) 0.2832(6) 0.9739(5)
C16_2 C 0.2112(9) 0.3410(8) 0.9217(8)
H15_2 H 0.1749 0.2951 0.9167
H16_2 H 0.1678 0.3844 0.9538
H17_2 H 0.2354 0.3802 0.8615
C17_2 C 0.6094(6) 0.2124(6) 0.9490(4)
C18_2 C 0.6993(8) 0.2387(8) 0.8810(6)
H18_2 H 0.7559 0.1856 0.8961
H19_2 H 0.6862 0.2477 0.8205
H20_2 H 0.7133 0.2995 0.8829
O11_2 O 0.2270(4) 0.9404(4) 0.4069(4)
C21_2 C 0.2880(6) 0.8935(6) 0.3594(5)
C22_2 C 0.2602(8) 0.8043(8) 0.3488(8)
H24_2 H 0.2832 0.7452 0.3969
H25_2 H 0.1888 0.8143 0.3524
H26_2 H 0.2909 0.7965 0.2904
O13_2 O 0.7621(4) 0.0809(4) 0.0887(3)
C35_2 C 0.6993(6) 0.1248(6) 0.1378(5)
C36_2 C 0.7206(8) 0.2163(8) 0.1479(8)
H38_2 H 0.6758 0.2331 0.1979
H39_2 H 0.7884 0.2037 0.1599
H40_2 H 0.7114 0.2709 0.0923
H28_2 H 0.9501 0.0330 0.6117
C28_2 C 0.8981(6) 0.0141(8) 0.9357(5)
H31_2 H 0.9038 0.0324 0.9856
C29_2 C 0.9701(6) 0.0307(8) 0.8613(5)
C30_2 C 0.9626(5) 0.0023(6) 0.7877(4)
O15_2 O 0.8263(4) 0.8499(4) 0.1492(4)
C33_2 C 0.7848(6) 0.8096(6) 0.2279(5)
C34_2 C 0.8453(9) 0.7279(8) 0.2938(8)
H35_2 H 0.8046 0.6804 0.3320
H36_2 H 0.9011 0.6952 0.2607
H37_2 H 0.8694 0.7553 0.3313
N4_2 N 0.8211(4) 0.9737(5) 0.9410(4)
C31_2 C 0.8802(5) 0.9660(5) 0.7913(4)
H33_2 H 0.8706 0.9497 0.7416
C32_2 C 0.8112(5) 0.9536(6) 0.8683(4)
H34_2 H 0.7546 0.9298 0.8691
loop_
_geom_bond_atom_site_label_1
_geom_bond_atom_site_label_2
_geom_bond_site_symmetry_1
_geom_bond_site_symmetry_2
H33 C31 1_555 1_555
C32 N4 1_555 1_555
H34 C32 1_555 1_555
C31 C32 1_555 1_555
O15 Pb4 1_555 1_555
O16 Pb4 1_555 1_555
C33 O15 1_555 1_555
C34 C33 1_555 1_555
H35 C34 1_555 1_555
H36 C34 1_555 1_555
H37 C34 1_555 1_555
Pb6 O16 1_555 1_555
O20 Pb4 1_555 1_555
O16 C33 1_555 1_555
H31 C28 1_555 1_555
C29 C28 1_555 1_555
C29 C30 1_555 1_555
O13 C35 1_555 1_555
C35 O14 1_555 1_555
C36 C35 1_555 1_555
H38 C36 1_555 1_555
H39 C36 1_555 1_555
H40 C36 1_555 1_555
Pb7 O14 1_555 1_555
C21 O11 1_555 1_555
C22 C21 1_555 1_555
H24 C22 1_555 1_555
H25 C22 1_555 1_555
H26 C22 1_555 1_555
Pb6 O12 1_555 1_555
O12 C21 1_555 1_555
Pb6 O18 1_555 1_555
O5 C17 1_555 1_555
C16 C15 1_555 1_555
H15 C16 1_555 1_555
H16 C16 1_555 1_555
H17 C16 1_555 1_555
C17 O19 1_555 1_555
C18 C17 1_555 1_555
H18 C18 1_555 1_555
H19 C18 1_555 1_555
H20 C18 1_555 1_555
Pb11 O8 1_555 1_555
O8 C15 1_555 1_555
Pb6 O1 1_555 1_555
Pb3 O9 1_555 1_555
O1 C1 1_555 1_555
O2 Pb6 1_555 1_555
O3 Pb6 1_555 1_555
O7 Pb7 1_555 1_555
O9 Pb7 1_555 1_555
O10 Pb3 1_555 1_555
N1 Pb6 1_555 1_555
N2 Pb7 1_555 1_555
N3 Pb3 1_555 1_555
C1 O2 1_555 1_555
C2 C1 1_555 1_555
H1 C2 1_555 1_555
H2 C2 1_555 1_555
H3 C2 1_555 1_555
C3 O3 1_555 1_555
C4 C3 1_555 1_555
H4 C4 1_555 1_555
H5 C4 1_555 1_555
H6 C4 1_555 1_555
C5 N1 1_555 1_555
H7 C5 1_555 1_555
C6 C5 1_555 1_555
H8 C6 1_555 1_555
C7 C6 1_555 1_555
C8 C7 1_555 1_555
H9 C8 1_555 1_555
C9 N1 1_555 1_555
H10 C9 1_555 1_555
C10 N2 1_555 1_555
H11 C10 1_555 1_555
C11 C10 1_555 1_555
H12 C11 1_555 1_555
C12 C7 1_555 1_555
C13 C12 1_555 1_555
H13 C13 1_555 1_555
C14 N2 1_555 1_555
H14 C14 1_555 1_555
C19 O9 1_555 1_555
C20 C19 1_555 1_555
H21 C20 1_555 1_555
H22 C20 1_555 1_555
H23 C20 1_555 1_555
C23 N3 1_555 1_555
H27 C23 1_555 1_555
C24 C23 1_555 1_555
C25 C24 1_555 1_555
C26 C25 1_555 1_555
H29 C26 1_555 1_555
C27 N3 1_555 1_555
H30 C27 1_555 1_555
Pb9 O1 1_555 1_555
O17 Pb3 1_555 1_555
O18 C3 1_555 1_555
O10 C19 1_555 1_555
C8 C9 1_555 1_555
C11 C12 1_555 1_555
C13 C14 1_555 1_555
C26 C27 1_555 1_555
Pb1 O17 1_555 1_555
Pb9 O9_2 1_555 1_555
O17 C1_2 1_555 1_555
O2_2 Pb1 1_555 1_555
O3_2 Pb1 1_555 1_555
O4 Pb1 1_555 1_555
O7_2 Pb2 1_555 1_555
O9_2 Pb2 1_555 1_555
O10_2 Pb9 1_555 1_555
N1_2 Pb1 1_555 1_555
N2_2 Pb2 1_555 1_555
N3_2 Pb9 1_555 1_555
C1_2 O2_2 1_555 1_555
C2_2 C1_2 1_555 1_555
H1_2 C2_2 1_555 1_555
H2_2 C2_2 1_555 1_555
H3_2 C2_2 1_555 1_555
C3_2 O3_2 1_555 1_555
C4_2 C3_2 1_555 1_555
H4_2 C4_2 1_555 1_555
H5_2 C4_2 1_555 1_555
H6_2 C4_2 1_555 1_555
C5_2 N1_2 1_555 1_555
H7_2 C5_2 1_555 1_555
C6_2 C5_2 1_555 1_555
H8_2 C6_2 1_555 1_555
C7_2 C6_2 1_555 1_555
C8_2 C7_2 1_555 1_555
H9_2 C8_2 1_555 1_555
C9_2 N1_2 1_555 1_555
H10_2 C9_2 1_555 1_555
C10_2 N2_2 1_555 1_555
H11_2 C10_2 1_555 1_555
C11_2 C10_2 1_555 1_555
H12_2 C11_2 1_555 1_555
C12_2 C7_2 1_555 1_555
C13_2 C12_2 1_555 1_555
H13_2 C13_2 1_555 1_555
C14_2 N2_2 1_555 1_555
H14_2 C14_2 1_555 1_555
C19_2 O9_2 1_555 1_555
C20_2 C19_2 1_555 1_555
H21_2 C20_2 1_555 1_555
H22_2 C20_2 1_555 1_555
H23_2 C20_2 1_555 1_555
C23_2 N3_2 1_555 1_555
H27_2 C23_2 1_555 1_555
C24_2 C23_2 1_555 1_555
C25_2 C24_2 1_555 1_555
C26_2 C25_2 1_555 1_555
H29_2 C26_2 1_555 1_555
C27_2 N3_2 1_555 1_555
H30_2 C27_2 1_555 1_555
O21 Pb1 1_555 1_555
O22 Pb2 1_555 1_555
O23 Pb1 1_555 1_555
O4 C3_2 1_555 1_555
O10_2 C19_2 1_555 1_555
C8_2 C9_2 1_555 1_555
C11_2 C12_2 1_555 1_555
C13_2 C14_2 1_555 1_555
C26_2 C27_2 1_555 1_555
O5_2 C17_2 1_555 1_555
C16_2 C15_2 1_555 1_555
H15_2 C16_2 1_555 1_555
H16_2 C16_2 1_555 1_555
H17_2 C16_2 1_555 1_555
C17_2 O6 1_555 1_555
C18_2 C17_2 1_555 1_555
H18_2 C18_2 1_555 1_555
H19_2 C18_2 1_555 1_555
H20_2 C18_2 1_555 1_555
O20 C15_2 1_555 1_555
C21_2 O11_2 1_555 1_555
C22_2 C21_2 1_555 1_555
H24_2 C22_2 1_555 1_555
H25_2 C22_2 1_555 1_555
H26_2 C22_2 1_555 1_555
O21 C21_2 1_555 1_555
O13_2 C35_2 1_555 1_555
C35_2 O22 1_555 1_555
C36_2 C35_2 1_555 1_555
H38_2 C36_2 1_555 1_555
H39_2 C36_2 1_555 1_555
H40_2 C36_2 1_555 1_555
H31_2 C28_2 1_555 1_555
C29_2 C28_2 1_555 1_555
C29_2 C30_2 1_555 1_555
O15_2 Pb11 1_555 1_555
O23 Pb11 1_555 1_555
C33_2 O15_2 1_555 1_555
C34_2 C33_2 1_555 1_555
H35_2 C34_2 1_555 1_555
H36_2 C34_2 1_555 1_555
H37_2 C34_2 1_555 1_555
O23 C33_2 1_555 1_555
H33_2 C31_2 1_555 1_555
C32_2 N4_2 1_555 1_555
H34_2 C32_2 1_555 1_555
C31_2 C32_2 1_555 1_555

#END
