
###############################################################################
#
# This file contains modified crystal structure data generated from the
# MOF subset of the Cambridge Structural Database (CSD) v543 
# hosted by the Cambridge Crystallographic Data Centre (CCDC).
#
# This work is licensed under the Creative Commons
# Attribution-NonCommercial-ShareAlike 4.0 International License.
# To view a copy of this license, visit
# http://creativecommons.org/licenses/by-nc-sa/4.0/
# or send a letter to
# Creative Commons, PO Box 1866, Mountain View, CA 94042, USA.
#
# CIF created using the CSD Python API on 29 September 2022
# The structure has been converted into the P1 space group
# The structure has a 3D framework
# The original CSD entry OFUYUL is in the monoclinic crystal system
# The framework has been calculated to contain at least 10.0% void space
# The void calculation uses a probe of radius 1.32A, grid spacing 0.4
#
###############################################################################

data_OFUYUL
_chemical_formula_moiety         '(C64 H24 O40 Zn4)n'
_symmetry_cell_setting           triclinic
_symmetry_space_group_name_H-M   'P 1'
_symmetry_Int_Tables_number      1
_space_group_name_Hall           'P 1'
loop_
_symmetry_equiv_pos_site_id
_symmetry_equiv_pos_as_xyz
1 x,y,z
_cell_length_a                   16.784(2)
_cell_length_b                   12.9256(18)
_cell_length_c                   14.555(2)
_cell_angle_alpha                90
_cell_angle_beta                 108.565(2)
_cell_angle_gamma                90
_cell_volume                     2993.3
loop_
_atom_site_label
_atom_site_type_symbol
_atom_site_fract_x
_atom_site_fract_y
_atom_site_fract_z
Zn5 Zn 0.34551(4) 0.05293(5) 0.59925(5)
Zn1 Zn 0.18210(4) 0.48622(5) 0.18028(5)
O1 O 0.3840(3) 0.5422(5) 0.2110(5)
O2 O 0.2682(3) 0.5859(4) 0.2447(4)
O3 O 0.5881(3) 0.8229(4) 0.3584(4)
O4 O 0.3778(3) 0.9882(4) 0.4959(4)
O5 O 0.2743(4) 0.8761(6) 0.4678(6)
O6 O 0.0764(3) 0.5580(4) 0.1171(4)
O7 O 0.0885(4) 0.6536(6) 0.2458(5)
C1 C 0.3429(4) 0.5995(5) 0.2494(5)
C2 C 0.3865(4) 0.6908(5) 0.3059(5)
C3 C 0.4695(4) 0.7140(5) 0.3114(5)
H1 H 0.4985 0.6692 0.2833
C4 C 0.5095(4) 0.8032(5) 0.3583(5)
C5 C 0.4653(4) 0.8660(5) 0.4034(5)
H2 H 0.4909 0.9254 0.4356
C6 C 0.3846(4) 0.8426(6) 0.4017(5)
C7 C 0.3407(4) 0.9057(6) 0.4587(6)
C8 C 0.3439(4) 0.7543(6) 0.3529(6)
H3 H 0.2896 0.7381 0.3518
C9 C 0.0474(4) 0.6218(6) 0.1643(5)
Zn6 Zn 0.34551(4) 0.44707(5) 0.09925(5)
Zn7 Zn 0.65449(4) 0.94707(5) 0.40075(5)
O14 O 0.1450(3) 0.3823(4) 0.2530(4)
O15 O 0.2275(2) 0.4152(3) 0.0858(3)
O8 O 0.8550(3) 0.8823(4) 0.2470(4)
O9 O 0.7288(4) 0.8595(6) 0.1458(5)
C10 C 0.9577(4) 0.6557(6) 0.1175(5)
C11 C 0.9236(4) 0.7306(6) 0.1637(5)
H4 H 0.9572 0.7625 0.2199
C12 C 0.8395(4) 0.7568(6) 0.1251(5)
C13 C 0.8034(4) 0.8377(6) 0.1756(6)
C14 C 0.7888(4) 0.7089(5) 0.0412(5)
H5 H 0.7324 0.7272 0.0157
C16 C 0.9076(4) 0.6086(5) 0.0343(5)
H6 H 0.9308 0.5595 0.0036
Zn3 Zn 0.81790(4) 0.98622(5) 0.31972(5)
O13 O 0.6222(3) 0.4882(4) 0.0041(4)
Zn2 Zn 0.65449(4) 0.55293(5) 0.90075(5)
O10 O 0.7725(2) 0.5848(3) 0.9142(3)
C15 C 0.8223(4) 0.6337(5) 0.9953(5)
Zn4 Zn 0.81790(4) 0.51378(5) 0.81972(5)
O11 O 0.6160(3) 0.4578(5) 0.7890(5)
O12 O 0.5881(3) 0.6771(4) 0.8584(4)
O9_2 O 0.2712(4) 0.3595(6) 0.3542(5)
O10_2 O 0.2275(2) 0.0848(3) 0.5858(3)
C10_2 C 0.0423(4) 0.1557(6) 0.3825(5)
C11_2 C 0.0764(4) 0.2306(6) 0.3363(5)
H4_2 H 0.0428 0.2625 0.2801
C12_2 C 0.1605(4) 0.2568(6) 0.3749(5)
C13_2 C 0.1966(4) 0.3377(6) 0.3244(6)
C14_2 C 0.2112(4) 0.2089(5) 0.4588(5)
H5_2 H 0.2676 0.2272 0.4843
C15_2 C 0.1777(4) 0.1337(5) 0.5047(5)
C16_2 C 0.0924(4) 0.1086(5) 0.4657(5)
H6_2 H 0.0692 0.0595 0.4964
Zn4_2 Zn 0.18210(4) 0.01378(5) 0.68028(5)
O12_2 O 0.4119(3) 0.1771(4) 0.6416(4)
O11_2 O 0.3840(3) 0.9578(5) 0.7110(5)
O1_2 O 0.6160(3) 0.0422(5) 0.2890(5)
O2_2 O 0.7318(3) 0.0859(4) 0.2553(4)
O3_2 O 0.4119(3) 0.3229(4) 0.1416(4)
O5_2 O 0.7257(4) 0.3761(6) 0.0322(6)
O6_2 O 0.9236(3) 0.0580(4) 0.3829(4)
O7_2 O 0.9115(4) 0.1536(6) 0.2542(5)
C1_2 C 0.6571(4) 0.0995(5) 0.2506(5)
C2_2 C 0.6135(4) 0.1908(5) 0.1941(5)
C3_2 C 0.5305(4) 0.2140(5) 0.1886(5)
H1_2 H 0.5015 0.1692 0.2167
C4_2 C 0.4905(4) 0.3032(5) 0.1417(5)
C5_2 C 0.5347(4) 0.3660(5) 0.0966(5)
H2_2 H 0.5091 0.4254 0.0644
C6_2 C 0.6154(4) 0.3426(6) 0.0983(5)
C7_2 C 0.6593(4) 0.4057(6) 0.0413(6)
C8_2 C 0.6561(4) 0.2543(6) 0.1471(6)
H3_2 H 0.7104 0.2381 0.1482
C9_2 C 0.9526(4) 0.1218(6) 0.3357(5)
O15_2 O 0.7725(2) 0.9152(3) 0.4142(3)
C15_3 C 0.1777(4) 0.3663(5) 0.0047(5)
O8_2 O 0.1450(3) 0.1177(4) 0.7530(4)
O9_3 O 0.2712(4) 0.1405(6) 0.8542(5)
C10_3 C 0.0423(4) 0.3443(6) 0.8825(5)
C11_3 C 0.0764(4) 0.2694(6) 0.8363(5)
H4_3 H 0.0428 0.2375 0.7801
C12_3 C 0.1605(4) 0.2432(6) 0.8749(5)
C13_3 C 0.1966(4) 0.1623(6) 0.8244(6)
C14_3 C 0.2112(4) 0.2911(5) 0.9588(5)
H5_3 H 0.2676 0.2728 0.9843
C16_3 C 0.0924(4) 0.3914(5) 0.9657(5)
H6_3 H 0.0692 0.4405 0.9964
O13_2 O 0.3778(3) 0.5118(4) 0.9959(4)
O2_3 O 0.7318(3) 0.4141(4) 0.7553(4)
O4_2 O 0.6222(3) 0.0118(4) 0.5041(4)
O5_3 O 0.7257(4) 0.1239(6) 0.5322(6)
O6_3 O 0.9236(3) 0.4420(4) 0.8829(4)
O7_3 O 0.9115(4) 0.3464(6) 0.7542(5)
C1_3 C 0.6571(4) 0.4005(5) 0.7506(5)
C2_3 C 0.6135(4) 0.3092(5) 0.6941(5)
C3_3 C 0.5305(4) 0.2860(5) 0.6886(5)
H1_3 H 0.5015 0.3308 0.7167
C4_3 C 0.4905(4) 0.1968(5) 0.6417(5)
C5_3 C 0.5347(4) 0.1340(5) 0.5966(5)
H2_3 H 0.5091 0.0746 0.5644
C6_3 C 0.6154(4) 0.1574(6) 0.5983(5)
C7_3 C 0.6593(4) 0.0943(6) 0.5413(6)
C8_3 C 0.6561(4) 0.2457(6) 0.6471(6)
H3_3 H 0.7104 0.2619 0.6482
C9_3 C 0.9526(4) 0.3782(6) 0.8357(5)
O14_2 O 0.8550(3) 0.6177(4) 0.7470(4)
O2_4 O 0.2682(3) 0.9141(4) 0.7447(4)
O5_4 O 0.2743(4) 0.6239(6) 0.9678(6)
O6_4 O 0.0764(3) 0.9420(4) 0.6171(4)
O7_4 O 0.0885(4) 0.8464(6) 0.7458(5)
C1_4 C 0.3429(4) 0.9005(5) 0.7494(5)
C2_4 C 0.3865(4) 0.8092(5) 0.8059(5)
C3_4 C 0.4695(4) 0.7860(5) 0.8114(5)
H1_4 H 0.4985 0.8308 0.7833
C4_4 C 0.5095(4) 0.6968(5) 0.8583(5)
C5_4 C 0.4653(4) 0.6340(5) 0.9034(5)
H2_4 H 0.4909 0.5746 0.9356
C6_4 C 0.3846(4) 0.6574(6) 0.9017(5)
C7_4 C 0.3407(4) 0.5943(6) 0.9587(6)
C8_4 C 0.3439(4) 0.7457(6) 0.8529(6)
H3_4 H 0.2896 0.7619 0.8518
C9_4 C 0.0474(4) 0.8782(6) 0.6643(5)
O9_4 O 0.7288(4) 0.6405(6) 0.6458(5)
C10_4 C 0.9577(4) 0.8443(6) 0.6175(5)
C11_4 C 0.9236(4) 0.7694(6) 0.6637(5)
H4_4 H 0.9572 0.7375 0.7199
C12_4 C 0.8395(4) 0.7432(6) 0.6251(5)
C13_4 C 0.8034(4) 0.6623(6) 0.6756(6)
C14_4 C 0.7888(4) 0.7911(5) 0.5412(5)
H5_4 H 0.7324 0.7728 0.5157
C15_4 C 0.8223(4) 0.8663(5) 0.4953(5)
C16_4 C 0.9076(4) 0.8914(5) 0.5343(5)
H6_4 H 0.9308 0.9405 0.5036
loop_
_geom_bond_atom_site_label_1
_geom_bond_atom_site_label_2
_geom_bond_site_symmetry_1
_geom_bond_site_symmetry_2
Zn1 O2 1_555 1_555
O1 C1 1_555 1_555
O2 C1 1_555 1_555
O3 C4 1_555 1_555
O4 C7 1_555 1_555
O5 C7 1_555 1_555
O6 Zn1 1_555 1_555
O7 C9 1_555 1_555
C1 C2 1_555 1_555
C2 C3 1_555 1_555
C3 H1 1_555 1_555
C4 C3 1_555 1_555
C5 C4 1_555 1_555
H2 C5 1_555 1_555
C6 C5 1_555 1_555
C7 C6 1_555 1_555
C8 C2 1_555 1_555
H3 C8 1_555 1_555
C9 O6 1_555 1_555
Zn6 O1 1_555 1_555
Zn7 O3 1_555 1_555
O14 Zn1 1_555 1_555
O15 Zn1 1_555 1_555
C6 C8 1_555 1_555
Zn6 O15 1_555 1_555
O8 C13 1_555 1_555
O9 C13 1_555 1_555
C11 C10 1_555 1_555
H4 C11 1_555 1_555
C12 C11 1_555 1_555
C13 C12 1_555 1_555
C14 C12 1_555 1_555
H5 C14 1_555 1_555
C16 C10 1_555 1_555
H6 C16 1_555 1_555
Zn3 O8 1_555 1_555
Zn2 O10 1_555 1_555
O10 C15 1_555 1_555
Zn4 O10 1_555 1_555
O11 Zn2 1_555 1_555
O12 Zn2 1_555 1_555
Zn5 O10_2 1_555 1_555
O14 C13_2 1_555 1_555
O9_2 C13_2 1_555 1_555
O10_2 C15_2 1_555 1_555
C11_2 C10_2 1_555 1_555
H4_2 C11_2 1_555 1_555
C12_2 C11_2 1_555 1_555
C13_2 C12_2 1_555 1_555
C14_2 C12_2 1_555 1_555
H5_2 C14_2 1_555 1_555
C15_2 C14_2 1_555 1_555
C16_2 C10_2 1_555 1_555
H6_2 C16_2 1_555 1_555
Zn4_2 O10_2 1_555 1_555
O12_2 Zn5 1_555 1_555
C15_2 C16_2 1_555 1_555
O1_2 C1_2 1_555 1_555
O2_2 C1_2 1_555 1_555
O3_2 C4_2 1_555 1_555
O13 C7_2 1_555 1_555
O5_2 C7_2 1_555 1_555
O7_2 C9_2 1_555 1_555
C1_2 C2_2 1_555 1_555
C2_2 C3_2 1_555 1_555
C3_2 H1_2 1_555 1_555
C4_2 C3_2 1_555 1_555
C5_2 C4_2 1_555 1_555
H2_2 C5_2 1_555 1_555
C6_2 C5_2 1_555 1_555
C7_2 C6_2 1_555 1_555
C8_2 C2_2 1_555 1_555
H3_2 C8_2 1_555 1_555
C9_2 O6_2 1_555 1_555
Zn6 O3_2 1_555 1_555
C6_2 C8_2 1_555 1_555
O15_2 Zn3 1_555 1_555
Zn7 O15_2 1_555 1_555
O15 C15_3 1_555 1_555
O8_2 C13_3 1_555 1_555
O9_3 C13_3 1_555 1_555
C11_3 C10_3 1_555 1_555
H4_3 C11_3 1_555 1_555
C12_3 C11_3 1_555 1_555
C13_3 C12_3 1_555 1_555
C14_3 C12_3 1_555 1_555
H5_3 C14_3 1_555 1_555
C16_3 C10_3 1_555 1_555
H6_3 C16_3 1_555 1_555
Zn4_2 O8_2 1_555 1_555
Zn4 O2_3 1_555 1_555
O11 C1_3 1_555 1_555
O2_3 C1_3 1_555 1_555
O12_2 C4_3 1_555 1_555
O4_2 C7_3 1_555 1_555
O5_3 C7_3 1_555 1_555
O6_3 Zn4 1_555 1_555
O7_3 C9_3 1_555 1_555
C1_3 C2_3 1_555 1_555
C2_3 C3_3 1_555 1_555
C3_3 H1_3 1_555 1_555
C4_3 C3_3 1_555 1_555
C5_3 C4_3 1_555 1_555
H2_3 C5_3 1_555 1_555
C6_3 C5_3 1_555 1_555
C7_3 C6_3 1_555 1_555
C8_3 C2_3 1_555 1_555
H3_3 C8_3 1_555 1_555
C9_3 O6_3 1_555 1_555
O14_2 Zn4 1_555 1_555
C6_3 C8_3 1_555 1_555
O11_2 C1_4 1_555 1_555
O2_4 C1_4 1_555 1_555
O12 C4_4 1_555 1_555
O13_2 C7_4 1_555 1_555
O5_4 C7_4 1_555 1_555
O7_4 C9_4 1_555 1_555
C1_4 C2_4 1_555 1_555
C2_4 C3_4 1_555 1_555
C3_4 H1_4 1_555 1_555
C4_4 C3_4 1_555 1_555
C5_4 C4_4 1_555 1_555
H2_4 C5_4 1_555 1_555
C6_4 C5_4 1_555 1_555
C7_4 C6_4 1_555 1_555
C8_4 C2_4 1_555 1_555
H3_4 C8_4 1_555 1_555
C9_4 O6_4 1_555 1_555
C6_4 C8_4 1_555 1_555
O14_2 C13_4 1_555 1_555
O9_4 C13_4 1_555 1_555
O15_2 C15_4 1_555 1_555
C11_4 C10_4 1_555 1_555
H4_4 C11_4 1_555 1_555
C12_4 C11_4 1_555 1_555
C13_4 C12_4 1_555 1_555
C14_4 C12_4 1_555 1_555
H5_4 C14_4 1_555 1_555
C15_4 C14_4 1_555 1_555
C16_4 C10_4 1_555 1_555
H6_4 C16_4 1_555 1_555
C15_4 C16_4 1_555 1_555

#END
