
###############################################################################
#
# This file contains modified crystal structure data generated from the
# MOF subset of the Cambridge Structural Database (CSD) v543 
# hosted by the Cambridge Crystallographic Data Centre (CCDC).
#
# This work is licensed under the Creative Commons
# Attribution-NonCommercial-ShareAlike 4.0 International License.
# To view a copy of this license, visit
# http://creativecommons.org/licenses/by-nc-sa/4.0/
# or send a letter to
# Creative Commons, PO Box 1866, Mountain View, CA 94042, USA.
#
# CIF created using the CSD Python API on 29 September 2022
# The structure has been converted into the P1 space group
# The structure has a 3D framework
# The original CSD entry OGAGIN is in the monoclinic crystal system
# The framework has been calculated to contain at least 10.0% void space
# The void calculation uses a probe of radius 1.32A, grid spacing 0.4
#
###############################################################################

data_OGAGIN
_chemical_formula_moiety         '(C52 H64 N8 O24 P8 Zn6)n'
_symmetry_cell_setting           triclinic
_symmetry_space_group_name_H-M   'P 1'
_symmetry_Int_Tables_number      1
_space_group_name_Hall           'P 1'
loop_
_symmetry_equiv_pos_site_id
_symmetry_equiv_pos_as_xyz
1 x,y,z
_cell_length_a                   22.9229(14)
_cell_length_b                   9.9797(6)
_cell_length_c                   9.7714(6)
_cell_angle_alpha                90
_cell_angle_beta                 91.535(5)
_cell_angle_gamma                90
_cell_volume                     2234.54
loop_
_atom_site_label
_atom_site_type_symbol
_atom_site_fract_x
_atom_site_fract_y
_atom_site_fract_z
H3 H 0.3932 0.0392 0.4559
H6 H 0.2992 0.0336 0.3243
H9 H 0.2093 0.0431 0.1781
H13 H 0.1357 0.0483 0.9627
C1 C 0.39184(8) 0.67336(18) 0.4762(2)
H1 H 0.3919 0.5783 0.4806
C2 C 0.35180(8) 0.73525(19) 0.38891(19)
H2 H 0.3246 0.6831 0.3369
C3 C 0.35148(7) 0.87468(18) 0.37741(18)
C4 C 0.39195(8) 0.94413(18) 0.45939(18)
C5 C 0.43035(8) 0.87579(18) 0.54586(18)
H4 H 0.4574 0.9257 0.6007
C6 C 0.31056(8) 0.94845(18) 0.28044(19)
H5 H 0.3321 0.9716 0.1973
C7 C 0.25507(7) 0.87385(19) 0.23645(19)
H7 H 0.2656 0.7875 0.1938
H8 H 0.2318 0.8542 0.318
C8 C 0.21839(8) 0.95615(19) 0.1349(2)
H10 H 0.2423 0.9752 0.0543
C9 C 0.16191(8) 0.89327(18) 0.08516(18)
C10 C 0.14326(8) 0.76790(19) 0.1276(2)
H11 H 0.1659 0.7187 0.1931
C11 C 0.09170(8) 0.71468(19) 0.0746(2)
H12 H 0.0798 0.6289 0.1053
O2 O 0.56117(5) 0.65276(12) 0.52551(12)
O3 O 0.52521(6) 0.79316(12) 0.32607(12)
O4 O 0.52349(6) 0.54160(13) 0.30687(13)
P1 P 0.55381(2) 0.66294(4) 0.36902(4)
H15 H 0.6053(8) 0.66485(5) 0.3215(7)
Zn2 Zn 0.496303(9) 0.64117(2) 0.65362(2)
N1 N 0.43079(6) 0.74091(15) 0.55513(15)
O7 O 0.52521(6) 0.70684(12) 0.82607(12)
O8 O 0.47651(6) 0.45840(13) 0.69313(13)
Zn4 Zn 0.010873(9) 0.31796(2) 0.10752(2)
Zn5 Zn 0.496303(9) 0.85883(2) 0.15362(2)
Zn6 Zn 0.503697(9) 0.35883(2) 0.34638(2)
C12 C 0.12551(8) 0.9610(2) 0.99228(19)
C13 C 0.07461(8) 0.90219(19) 0.94273(19)
H14 H 0.0506 0.9504 0.879
N2 N 0.05778(6) 0.77861(15) 0.98183(15)
O10 O 0.01308(6) 0.51806(14) 0.80405(14)
O1 O 0.93091(6) 0.62301(14) 0.02115(14)
O5 O 0.94973(6) 0.70861(14) 0.25984(15)
O6 O 0.98692(6) 0.48194(14) 0.19595(14)
P2 P 0.94015(2) 0.58749(5) 0.17224(5)
H16 H 0.8917(7) 0.5343(8) 0.2108(6)
Zn3 Zn 0.989127(9) 0.81796(2) 0.39248(2)
Zn1 Zn 0.989127(9) 0.68204(2) 0.89248(2)
O9 O 0.94973(6) 0.79139(14) 0.75984(15)
O1_2 O 0.06909(6) 0.12301(14) 0.47885(14)
O5_2 O 0.05027(6) 0.20861(14) 0.24016(15)
P2_2 P 0.05985(2) 0.08749(5) 0.32776(5)
H16_2 H 0.1083(7) 0.0343(8) 0.2892(6)
Zn1_2 Zn 0.010873(9) 0.18204(2) 0.60752(2)
O9_2 O 0.05027(6) 0.29139(14) 0.74016(15)
O6_2 O 0.01308(6) 0.98194(14) 0.30405(14)
C1_2 C 0.60816(8) 0.17336(18) 0.0238(2)
H1_2 H 0.6081 0.0783 0.0194
C2_2 C 0.64820(8) 0.23525(19) 0.11109(19)
H2_2 H 0.6754 0.1831 0.1631
C3_2 C 0.64852(7) 0.37468(18) 0.12259(18)
C4_2 C 0.60805(8) 0.44413(18) 0.04061(18)
H3_2 H 0.6068 0.5392 0.0441
C6_2 C 0.68944(8) 0.44845(18) 0.21956(19)
H5_2 H 0.6679 0.4716 0.3027
H6_2 H 0.7008 0.5336 0.1757
C7_2 C 0.74493(7) 0.37385(19) 0.26355(19)
H7_2 H 0.7344 0.2875 0.3062
H8_2 H 0.7682 0.3542 0.182
C8_2 C 0.78161(8) 0.45615(19) 0.3651(2)
H9_2 H 0.7907 0.5431 0.3219
H10_2 H 0.7577 0.4752 0.4457
C9_2 C 0.83809(8) 0.39327(18) 0.41484(18)
C10_2 C 0.85674(8) 0.26790(19) 0.3724(2)
H11_2 H 0.8341 0.2187 0.3069
C11_2 C 0.90830(8) 0.21468(19) 0.4254(2)
H12_2 H 0.9202 0.1289 0.3947
C12_2 C 0.87449(8) 0.4610(2) 0.50772(19)
H13_2 H 0.8643 0.5483 0.5373
C13_2 C 0.92539(8) 0.40219(19) 0.55727(19)
H14_2 H 0.9494 0.4504 0.621
O3_2 O 0.47479(6) 0.29316(12) 0.17393(12)
O4_2 O 0.47651(6) 0.04160(13) 0.19313(13)
P1_2 P 0.44619(2) 0.16294(4) 0.13098(4)
H15_2 H 0.3947(8) 0.16485(5) 0.1785(7)
N2_2 N 0.94222(6) 0.27861(15) 0.51817(15)
O10_2 O 0.98692(6) 0.01806(14) 0.69595(14)
C5_2 C 0.56965(8) 0.37579(18) 0.95414(18)
H4_2 H 0.5426 0.4257 0.8993
O2_2 O 0.43883(5) 0.15276(12) 0.97449(12)
Zn2_2 Zn 0.503697(9) 0.14117(2) 0.84638(2)
N1_2 N 0.56921(6) 0.24091(15) 0.94487(15)
O7_2 O 0.47479(6) 0.20684(12) 0.67393(12)
O8_2 O 0.52349(6) 0.95840(13) 0.80687(13)
O1_3 O 0.06909(6) 0.37699(14) 0.97885(14)
P2_3 P 0.05985(2) 0.41251(5) 0.82776(5)
H16_3 H 0.1083(7) 0.4657(8) 0.7892(6)
C12_3 C 0.87449(8) 0.0390(2) 0.00772(19)
C13_3 C 0.92539(8) 0.09781(19) 0.05727(19)
H14_3 H 0.9494 0.0496 0.121
N2_3 N 0.94222(6) 0.22139(15) 0.01817(15)
C1_3 C 0.60816(8) 0.32664(18) 0.5238(2)
H1_3 H 0.6081 0.4217 0.5194
C2_3 C 0.64820(8) 0.26475(19) 0.61109(19)
H2_3 H 0.6754 0.3169 0.6631
C3_3 C 0.64852(7) 0.12532(18) 0.62259(18)
C4_3 C 0.60805(8) 0.05587(18) 0.54061(18)
C5_3 C 0.56965(8) 0.12421(18) 0.45414(18)
H4_3 H 0.5426 0.0743 0.3993
C6_3 C 0.68944(8) 0.05155(18) 0.71956(19)
H5_3 H 0.6679 0.0284 0.8027
C7_3 C 0.74493(7) 0.12615(19) 0.76355(19)
H7_3 H 0.7344 0.2125 0.8062
H8_3 H 0.7682 0.1458 0.682
C8_3 C 0.78161(8) 0.04385(19) 0.8651(2)
H10_3 H 0.7577 0.0248 0.9457
C9_3 C 0.83809(8) 0.10673(18) 0.91484(18)
C10_3 C 0.85674(8) 0.23210(19) 0.8724(2)
H11_3 H 0.8341 0.2813 0.8069
C11_3 C 0.90830(8) 0.28532(19) 0.9254(2)
H12_3 H 0.9202 0.3711 0.8947
O2_3 O 0.43883(5) 0.34724(12) 0.47449(12)
P1_3 P 0.44619(2) 0.33706(4) 0.63098(4)
H15_3 H 0.3947(8) 0.33515(5) 0.6785(7)
N1_3 N 0.56921(6) 0.25909(15) 0.44487(15)
C5_4 C 0.43035(8) 0.62421(18) 0.04586(18)
H4_4 H 0.4574 0.5743 0.1007
O2_4 O 0.56117(5) 0.84724(12) 0.02551(12)
N1_4 N 0.43079(6) 0.75909(15) 0.05513(15)
C1_4 C 0.39184(8) 0.82664(18) 0.9762(2)
H1_4 H 0.3919 0.9217 0.9806
C2_4 C 0.35180(8) 0.76475(19) 0.88891(19)
H2_4 H 0.3246 0.8169 0.8369
C3_4 C 0.35148(7) 0.62532(18) 0.87741(18)
C4_4 C 0.39195(8) 0.55587(18) 0.95939(18)
H3_3 H 0.3932 0.4608 0.9559
C6_4 C 0.31056(8) 0.55155(18) 0.78044(19)
H5_4 H 0.3321 0.5284 0.6973
H6_3 H 0.2992 0.4664 0.8243
C7_4 C 0.25507(7) 0.62615(19) 0.73645(19)
H7_4 H 0.2656 0.7125 0.6938
H8_4 H 0.2318 0.6458 0.818
C8_4 C 0.21839(8) 0.54385(19) 0.6349(2)
H9_3 H 0.2093 0.4569 0.6781
H10_4 H 0.2423 0.5248 0.5543
C9_4 C 0.16191(8) 0.60673(18) 0.58516(18)
C10_4 C 0.14326(8) 0.73210(19) 0.6276(2)
H11_4 H 0.1659 0.7813 0.6931
C11_4 C 0.09170(8) 0.78532(19) 0.5746(2)
H12_4 H 0.0798 0.8711 0.6053
C12_4 C 0.12551(8) 0.5390(2) 0.49228(19)
H13_3 H 0.1357 0.4517 0.4627
C13_4 C 0.07461(8) 0.59781(19) 0.44273(19)
H14_4 H 0.0506 0.5496 0.379
P1_4 P 0.55381(2) 0.83706(4) 0.86902(4)
H15_4 H 0.6053(8) 0.83515(5) 0.8215(7)
N2_4 N 0.05778(6) 0.72139(15) 0.48183(15)
O1_4 O 0.93091(6) 0.87699(14) 0.52115(14)
P2_4 P 0.94015(2) 0.91251(5) 0.67224(5)
H16_4 H 0.8917(7) 0.9657(8) 0.7108(6)
H13_4 H 0.8643 0.9517 0.0373
H3_4 H 0.6068 0.9608 0.5441
H6_4 H 0.7008 0.9664 0.6757
H9_4 H 0.7907 0.9569 0.8219
loop_
_geom_bond_atom_site_label_1
_geom_bond_atom_site_label_2
_geom_bond_site_symmetry_1
_geom_bond_site_symmetry_2
C1 H1 1_555 1_555
C2 C1 1_555 1_555
H2 C2 1_555 1_555
C3 C2 1_555 1_555
C4 C3 1_555 1_555
C5 C4 1_555 1_555
H4 C5 1_555 1_555
C6 C3 1_555 1_555
H5 C6 1_555 1_555
C7 C6 1_555 1_555
H7 C7 1_555 1_555
H8 C7 1_555 1_555
C8 C7 1_555 1_555
H10 C8 1_555 1_555
C9 C8 1_555 1_555
C10 C9 1_555 1_555
H11 C10 1_555 1_555
C11 C10 1_555 1_555
H12 C11 1_555 1_555
O2 P1 1_555 1_555
O3 P1 1_555 1_555
O4 P1 1_555 1_555
P1 H15 1_555 1_555
Zn2 O2 1_555 1_555
N1 C1 1_555 1_555
O7 Zn2 1_555 1_555
O8 Zn2 1_555 1_555
Zn5 O3 1_555 1_555
Zn6 O4 1_555 1_555
C5 N1 1_555 1_555
Zn2 N1 1_555 1_555
C13 C12 1_555 1_555
H14 C13 1_555 1_555
C13 N2 1_555 1_555
O1 P2 1_555 1_555
O5 P2 1_555 1_555
O6 P2 1_555 1_555
P2 H16 1_555 1_555
Zn3 O5 1_555 1_555
O9 Zn1 1_555 1_555
O1_2 P2_2 1_555 1_555
O5_2 P2_2 1_555 1_555
P2_2 H16_2 1_555 1_555
Zn1_2 O1_2 1_555 1_555
O9_2 Zn1_2 1_555 1_555
Zn4 O5_2 1_555 1_555
C1_2 H1_2 1_555 1_555
C2_2 C1_2 1_555 1_555
H2_2 C2_2 1_555 1_555
C3_2 C2_2 1_555 1_555
C4_2 C3_2 1_555 1_555
H3_2 C4_2 1_555 1_555
C6_2 C3_2 1_555 1_555
H5_2 C6_2 1_555 1_555
H6_2 C6_2 1_555 1_555
C7_2 C6_2 1_555 1_555
H7_2 C7_2 1_555 1_555
H8_2 C7_2 1_555 1_555
C8_2 C7_2 1_555 1_555
H9_2 C8_2 1_555 1_555
H10_2 C8_2 1_555 1_555
C9_2 C8_2 1_555 1_555
C10_2 C9_2 1_555 1_555
H11_2 C10_2 1_555 1_555
C11_2 C10_2 1_555 1_555
H12_2 C11_2 1_555 1_555
C12_2 C9_2 1_555 1_555
H13_2 C12_2 1_555 1_555
C13_2 C12_2 1_555 1_555
H14_2 C13_2 1_555 1_555
O3_2 P1_2 1_555 1_555
O4_2 P1_2 1_555 1_555
P1_2 H15_2 1_555 1_555
N2_2 C11_2 1_555 1_555
Zn6 O3_2 1_555 1_555
C13_2 N2_2 1_555 1_555
H4_2 C5_2 1_555 1_555
Zn2_2 O2_2 1_555 1_555
O7_2 Zn2_2 1_555 1_555
C5_2 N1_2 1_555 1_555
Zn2_2 N1_2 1_555 1_555
O1_3 P2_3 1_555 1_555
O9_2 P2_3 1_555 1_555
O10 P2_3 1_555 1_555
P2_3 H16_3 1_555 1_555
C13_3 C12_3 1_555 1_555
H14_3 C13_3 1_555 1_555
C13_3 N2_3 1_555 1_555
C1_3 H1_3 1_555 1_555
C2_3 C1_3 1_555 1_555
H2_3 C2_3 1_555 1_555
C3_3 C2_3 1_555 1_555
C4_3 C3_3 1_555 1_555
C5_3 C4_3 1_555 1_555
H4_3 C5_3 1_555 1_555
C6_3 C3_3 1_555 1_555
H5_3 C6_3 1_555 1_555
C7_3 C6_3 1_555 1_555
H7_3 C7_3 1_555 1_555
H8_3 C7_3 1_555 1_555
C8_3 C7_3 1_555 1_555
H10_3 C8_3 1_555 1_555
C9_3 C8_3 1_555 1_555
C10_3 C9_3 1_555 1_555
H11_3 C10_3 1_555 1_555
C11_3 C10_3 1_555 1_555
H12_3 C11_3 1_555 1_555
O2_3 P1_3 1_555 1_555
O7_2 P1_3 1_555 1_555
O8 P1_3 1_555 1_555
P1_3 H15_3 1_555 1_555
Zn6 O2_3 1_555 1_555
N1_3 C1_3 1_555 1_555
C5_3 N1_3 1_555 1_555
Zn6 N1_3 1_555 1_555
H4_4 C5_4 1_555 1_555
Zn5 O2_4 1_555 1_555
C5_4 N1_4 1_555 1_555
Zn5 N1_4 1_555 1_555
C1_4 H1_4 1_555 1_555
C2_4 C1_4 1_555 1_555
H2_4 C2_4 1_555 1_555
C3_4 C2_4 1_555 1_555
C4_4 C3_4 1_555 1_555
H3_3 C4_4 1_555 1_555
C6_4 C3_4 1_555 1_555
H5_4 C6_4 1_555 1_555
H6_3 C6_4 1_555 1_555
C7_4 C6_4 1_555 1_555
H7_4 C7_4 1_555 1_555
H8_4 C7_4 1_555 1_555
C8_4 C7_4 1_555 1_555
H9_3 C8_4 1_555 1_555
H10_4 C8_4 1_555 1_555
C9_4 C8_4 1_555 1_555
C10_4 C9_4 1_555 1_555
H11_4 C10_4 1_555 1_555
C11_4 C10_4 1_555 1_555
H12_4 C11_4 1_555 1_555
C12_4 C9_4 1_555 1_555
H13_3 C12_4 1_555 1_555
C13_4 C12_4 1_555 1_555
H14_4 C13_4 1_555 1_555
O7 P1_4 1_555 1_555
O8_2 P1_4 1_555 1_555
P1_4 H15_4 1_555 1_555
N2_4 C11_4 1_555 1_555
C13_4 N2_4 1_555 1_555
O1_4 P2_4 1_555 1_555
O9 P2_4 1_555 1_555
P2_4 H16_4 1_555 1_555
Zn3 O1_4 1_555 1_555

#END
