
###############################################################################
#
# This file contains modified crystal structure data generated from the
# MOF subset of the Cambridge Structural Database (CSD) v543 
# hosted by the Cambridge Crystallographic Data Centre (CCDC).
#
# This work is licensed under the Creative Commons
# Attribution-NonCommercial-ShareAlike 4.0 International License.
# To view a copy of this license, visit
# http://creativecommons.org/licenses/by-nc-sa/4.0/
# or send a letter to
# Creative Commons, PO Box 1866, Mountain View, CA 94042, USA.
#
# CIF created using the CSD Python API on 29 September 2022
# The structure has been converted into the P1 space group
# The structure has a 3D framework
# The original CSD entry OGIHUI is in the cubic crystal system
# The framework has been calculated to contain at least 10.0% void space
# The void calculation uses a probe of radius 1.32A, grid spacing 0.4
#
###############################################################################

data_OGIHUI
_chemical_formula_moiety         '(C66 H36 Co9 N30 O48 Ru30)n'
_symmetry_cell_setting           triclinic
_symmetry_space_group_name_H-M   'P 1'
_symmetry_Int_Tables_number      1
_space_group_name_Hall           'P 1'
loop_
_symmetry_equiv_pos_site_id
_symmetry_equiv_pos_as_xyz
1 x,y,z
_cell_length_a                   12.662060(32)
_cell_length_b                   12.662060(32)
_cell_length_c                   12.662060(32)
_cell_angle_alpha                90
_cell_angle_beta                 90
_cell_angle_gamma                90
_cell_volume                     2030.08
loop_
_atom_site_label
_atom_site_type_symbol
_atom_site_fract_x
_atom_site_fract_y
_atom_site_fract_z
Ru1 Ru 0.41009 0.000000(54) 0.00000
Co1 Co 0.00000 0.00000 0.00000
N1 N 0.23399(45) 0.00000 0.00000
C2 C 0.14672(43) 0.00000 0.00000
Ru2 Ru 0.000000(54) 0.41009 0.00000
Ru5 Ru 0.000000(54) 0.00000 0.41009
Ru7 Ru 0.58991 0.000000(54) 0.00000
Ru8 Ru 0.000000(54) 0.58991 0.00000
O3 O 0.41244(12) 0.11310(19) 0.11310(12)
O4 O 0.58756(12) 0.11310(12) 0.11310(19)
O13 O 0.11310(12) 0.41244(12) 0.11310(19)
O14 O 0.11310(19) 0.58756(12) 0.11310(12)
C3 C 0.50000(32) 0.15094 0.15094(32)
C8 C 0.15094 0.50000(32) 0.15094(32)
N2 N 0.00000 0.23399(45) 0.00000
N5 N 0.00000 0.00000 0.23399(45)
N7 N 0.76601(45) 0.00000 0.00000
N8 N 0.00000 0.76601(45) 0.00000
C14 C 0.00000 0.14672(43) 0.00000
C17 C 0.00000 0.00000 0.14672(43)
H2 H 0.50000(38) 0.201 0.20134(38)
H7 H 0.20134(38) 0.50000(38) 0.201
Ru1_2 Ru 0.41009 0.000000(54) 1.00000
Co1_2 Co 0.00000 0.00000 1.00000
N1_2 N 0.23399(45) 0.00000 1.00000
C2_2 C 0.14672(43) 0.00000 1.00000
Ru2_2 Ru 0.000000(54) 0.41009 1.00000
Ru6 Ru 0.00000 0.000000(54) 0.58991
Ru7_2 Ru 0.58991 0.000000(54) 1.00000
Ru8_2 Ru 0.000000(54) 0.58991 1.00000
O7 O 0.41244(12) 0.11310(12) 0.88690(19)
O8 O 0.58756(12) 0.11310(19) 0.88690(12)
O9 O 0.11310(19) 0.41244(12) 0.88690(12)
O10 O 0.11310(12) 0.58756(12) 0.88690(19)
C5 C 0.50000(32) 0.15094 0.84906(32)
C6 C 0.15094 0.50000(32) 0.84906(32)
N2_2 N 0.00000 0.23399(45) 1.00000
N6 N 0.00000 0.00000 0.76601(45)
N7_2 N 0.76601(45) 0.00000 1.00000
N8_2 N 0.00000 0.76601(45) 1.00000
C14_2 C 0.00000 0.14672(43) 1.00000
C18 C 0.00000 0.00000 0.85328(43)
H4 H 0.50000(38) 0.20134(38) 0.799
H5 H 0.201 0.50000(38) 0.79866(38)
Ru1_3 Ru 0.41009 1.000000(54) 0.00000
Co1_3 Co 0.00000 1.00000 0.00000
N1_3 N 0.23399(45) 1.00000 0.00000
C2_3 C 0.14672(43) 1.00000 0.00000
Ru5_2 Ru 0.000000(54) 1.00000 0.41009
Ru7_3 Ru 0.58991 1.000000(54) 0.00000
O5 O 0.41244(12) 0.88690(12) 0.11310(19)
O6 O 0.58756(12) 0.88690(19) 0.11310(12)
C4 C 0.50000(32) 0.84906 0.15094(32)
N5_2 N 0.00000 1.00000 0.23399(45)
N7_3 N 0.76601(45) 1.00000 0.00000
C16 C 0.00000 0.85328(43) 0.00000
C17_2 C 0.00000 1.00000 0.14672(43)
H3 H 0.50000(38) 0.79866(38) 0.201
Ru1_4 Ru 0.41009 1.000000(54) 1.00000
Co1_4 Co 0.00000 1.00000 1.00000
O1 O 0.41244(12) 0.88690(19) 0.88690(12)
C1 C 0.50000(32) 0.84906 0.84906(32)
N1_4 N 0.23399(45) 1.00000 1.00000
C2_4 C 0.14672(43) 1.00000 1.00000
H1 H 0.50000(38) 0.799 0.79866(38)
Ru6_2 Ru 0.00000 1.000000(54) 0.58991
Ru7_4 Ru 0.58991 1.000000(54) 1.00000
O2 O 0.58756(12) 0.88690(12) 0.88690(19)
N6_2 N 0.00000 1.00000 0.76601(45)
N7_4 N 0.76601(45) 1.00000 1.00000
C16_2 C 0.00000 0.85328(43) 1.00000
C18_2 C 0.00000 1.00000 0.85328(43)
Co1_5 Co 1.00000 0.00000 0.00000
Ru2_3 Ru 1.000000(54) 0.41009 0.00000
Ru5_3 Ru 1.000000(54) 0.00000 0.41009
Ru8_3 Ru 1.000000(54) 0.58991 0.00000
O11 O 0.88690(19) 0.41244(12) 0.11310(12)
O12 O 0.88690(12) 0.58756(12) 0.11310(19)
C7 C 0.84906 0.50000(32) 0.15094(32)
N2_3 N 1.00000 0.23399(45) 0.00000
N5_3 N 1.00000 0.00000 0.23399(45)
N8_3 N 1.00000 0.76601(45) 0.00000
C14_3 C 1.00000 0.14672(43) 0.00000
C15 C 0.85328(43) 0.00000 0.00000
C17_3 C 1.00000 0.00000 0.14672(43)
H6 H 0.799 0.50000(38) 0.20134(38)
Co1_6 Co 1.00000 0.00000 1.00000
Ru2_4 Ru 1.000000(54) 0.41009 1.00000
Ru6_3 Ru 1.00000 0.000000(54) 0.58991
Ru8_4 Ru 1.000000(54) 0.58991 1.00000
O15 O 0.88690(12) 0.41244(12) 0.88690(19)
O16 O 0.88690(19) 0.58756(12) 0.88690(12)
C9 C 0.84906(32) 0.50000(32) 0.84906
N2_4 N 1.00000 0.23399(45) 1.00000
N6_3 N 1.00000 0.00000 0.76601(45)
N8_4 N 1.00000 0.76601(45) 1.00000
C14_4 C 1.00000 0.14672(43) 1.00000
C15_2 C 0.85328(43) 0.00000 1.00000
C18_3 C 1.00000 0.00000 0.85328(43)
H8 H 0.79866(38) 0.50000(38) 0.799
Co1_7 Co 1.00000 1.00000 0.00000
Ru5_4 Ru 1.000000(54) 1.00000 0.41009
N5_4 N 1.00000 1.00000 0.23399(45)
C15_3 C 0.85328(43) 1.00000 0.00000
C16_3 C 1.00000 0.85328(43) 0.00000
C17_4 C 1.00000 1.00000 0.14672(43)
Co1_8 Co 1.00000 1.00000 1.00000
Ru6_4 Ru 1.00000 1.000000(54) 0.58991
N6_4 N 1.00000 1.00000 0.76601(45)
C15_4 C 0.85328(43) 1.00000 1.00000
C16_4 C 1.00000 0.85328(43) 1.00000
C18_4 C 1.00000 1.00000 0.85328(43)
O13_2 O 0.11310(19) 0.11310(12) 0.41244(12)
O14_2 O 0.11310(12) 0.11310(19) 0.58756(12)
C8_2 C 0.15094(32) 0.15094 0.50000(32)
H7_2 H 0.201 0.20134(38) 0.50000(38)
O11_2 O 0.11310(12) 0.88690(19) 0.41244(12)
O12_2 O 0.11310(19) 0.88690(12) 0.58756(12)
C7_2 C 0.15094(32) 0.84906 0.50000(32)
H6_2 H 0.20134(38) 0.799 0.50000(38)
O9_2 O 0.88690(12) 0.11310(19) 0.41244(12)
O10_2 O 0.88690(19) 0.11310(12) 0.58756(12)
C6_2 C 0.84906(32) 0.15094 0.50000(32)
H5_2 H 0.79866(38) 0.201 0.50000(38)
O15_2 O 0.88690(19) 0.88690(12) 0.41244(12)
O16_2 O 0.88690(12) 0.88690(19) 0.58756(12)
C9_2 C 0.84906 0.84906(32) 0.50000(32)
H8_2 H 0.799 0.79866(38) 0.50000(38)
C1_2 C 0.00000(32) 0.34906 0.34906(32)
H1_2 H 0.00000(38) 0.299 0.29866(38)
Ru7_5 Ru 0.08991 0.500000(54) 0.50000
O2_2 O 0.08756(12) 0.38690(12) 0.38690(19)
O4_2 O 0.08756(12) 0.61310(12) 0.61310(19)
O6_2 O 0.08756(12) 0.38690(19) 0.61310(12)
O8_2 O 0.08756(12) 0.61310(19) 0.38690(12)
C3_2 C 0.00000(32) 0.65094 0.65094(32)
C4_2 C -0.00000(32) 0.34906 0.65094(32)
C5_2 C 0.00000(32) 0.65094 0.34906(32)
N7_5 N 0.26601(45) 0.50000 0.50000
H2_2 H 0.00000(38) 0.701 0.70134(38)
H3_2 H 0.00000(38) 0.29866(38) 0.701
H4_2 H 0.00000(38) 0.70134(38) 0.299
Ru8_5 Ru 0.500000(54) 0.08991 0.50000
O10_3 O 0.61310(12) 0.08756(12) 0.38690(19)
O12_3 O 0.38690(12) 0.08756(12) 0.61310(19)
O14_3 O 0.61310(19) 0.08756(12) 0.61310(12)
O16_3 O 0.38690(19) 0.08756(12) 0.38690(12)
C6_3 C 0.65094 0.00000(32) 0.34906(32)
C7_3 C 0.34906 0.00000(32) 0.65094(32)
C8_3 C 0.65094 0.00000(32) 0.65094(32)
C9_3 C 0.34906(32) 0.00000(32) 0.34906
N8_5 N 0.50000 0.26601(45) 0.50000
H5_3 H 0.701 0.00000(38) 0.29866(38)
H6_3 H 0.299 0.00000(38) 0.70134(38)
H7_3 H 0.70134(38) 0.00000(38) 0.701
H8_3 H 0.29866(38) 0.00000(38) 0.299
Ru1_5 Ru 0.91009 0.500000(54) 0.50000
Co1_9 Co 0.50000 0.50000 0.50000
O1_2 O 0.91244(12) 0.38690(19) 0.38690(12)
C1_3 C 1.00000(32) 0.34906 0.34906(32)
N1_5 N 0.73399(45) 0.50000 0.50000
C2_5 C 0.64672(43) 0.50000 0.50000
H1_3 H 1.00000(38) 0.299 0.29866(38)
Ru2_5 Ru 0.500000(54) 0.91009 0.50000
Ru5_5 Ru 0.500000(54) 0.50000 0.91009
Ru6_5 Ru 0.50000 0.500000(54) 0.08991
O3_2 O 0.91244(12) 0.61310(19) 0.61310(12)
O5_2 O 0.91244(12) 0.38690(12) 0.61310(19)
O7_2 O 0.91244(12) 0.61310(12) 0.38690(19)
O9_3 O 0.61310(19) 0.91244(12) 0.38690(12)
O11_3 O 0.38690(19) 0.91244(12) 0.61310(12)
O13_3 O 0.61310(12) 0.91244(12) 0.61310(19)
O15_3 O 0.38690(12) 0.91244(12) 0.38690(19)
C3_3 C 1.00000(32) 0.65094 0.65094(32)
C4_3 C 1.00000(32) 0.34906 0.65094(32)
C5_3 C 1.00000(32) 0.65094 0.34906(32)
C6_4 C 0.65094 1.00000(32) 0.34906(32)
C7_4 C 0.34906 1.00000(32) 0.65094(32)
C8_4 C 0.65094 1.00000(32) 0.65094(32)
C9_4 C 0.34906(32) 1.00000(32) 0.34906
N2_5 N 0.50000 0.73399(45) 0.50000
N5_5 N 0.50000 0.50000 0.73399(45)
N6_5 N 0.50000 0.50000 0.26601(45)
C14_5 C 0.50000 0.64672(43) 0.50000
C15_5 C 0.35328(43) 0.50000 0.50000
C16_5 C 0.50000 0.35328(43) 0.50000
C17_5 C 0.50000 0.50000 0.64672(43)
C18_5 C 0.50000 0.50000 0.35328(43)
H2_3 H 1.00000(38) 0.701 0.70134(38)
H3_3 H 1.00000(38) 0.29866(38) 0.701
H4_3 H 1.00000(38) 0.70134(38) 0.299
H5_4 H 0.701 1.00000(38) 0.29866(38)
H6_4 H 0.299 1.00000(38) 0.70134(38)
H7_4 H 0.70134(38) 1.00000(38) 0.701
H8_4 H 0.29866(38) 1.00000(38) 0.299
O10_4 O 0.38690(19) 0.61310(12) 0.08756(12)
O12_4 O 0.61310(19) 0.38690(12) 0.08756(12)
O14_4 O 0.61310(12) 0.61310(19) 0.08756(12)
O16_4 O 0.38690(12) 0.38690(19) 0.08756(12)
C6_5 C 0.34906(32) 0.65094 0.00000(32)
C7_5 C 0.65094(32) 0.34906 0.00000(32)
C8_5 C 0.65094(32) 0.65094 0.00000(32)
C9_5 C 0.34906 0.34906(32) 0.00000(32)
H5_5 H 0.29866(38) 0.701 0.00000(38)
H6_5 H 0.70134(38) 0.299 0.00000(38)
H7_5 H 0.701 0.70134(38) 0.00000(38)
H8_5 H 0.299 0.29866(38) 0.00000(38)
O9_4 O 0.38690(12) 0.61310(19) 0.91244(12)
O11_4 O 0.61310(12) 0.38690(19) 0.91244(12)
O13_4 O 0.61310(19) 0.61310(12) 0.91244(12)
O15_4 O 0.38690(19) 0.38690(12) 0.91244(12)
C6_6 C 0.34906(32) 0.65094 1.00000(32)
C7_6 C 0.65094(32) 0.34906 1.00000(32)
C8_6 C 0.65094(32) 0.65094 1.00000(32)
C9_6 C 0.34906 0.34906(32) 1.00000(32)
H5_6 H 0.29866(38) 0.701 1.00000(38)
H6_6 H 0.70134(38) 0.299 1.00000(38)
H7_6 H 0.701 0.70134(38) 1.00000(38)
H8_6 H 0.299 0.29866(38) 1.00000(38)
loop_
_geom_bond_atom_site_label_1
_geom_bond_atom_site_label_2
_geom_bond_site_symmetry_1
_geom_bond_site_symmetry_2
Co1 C2 1_555 1_555
N1 Ru1 1_555 1_555
C2 N1 1_555 1_555
Ru2 Ru8 1_555 1_555
Ru5 N5 1_555 1_555
Ru7 Ru1 1_555 1_555
O3 Ru1 1_555 1_555
O4 Ru7 1_555 1_555
O13 Ru2 1_555 1_555
O14 Ru8 1_555 1_555
C3 O3 1_555 1_555
C8 O13 1_555 1_555
N2 Ru2 1_555 1_555
N5 C17 1_555 1_555
N7 Ru7 1_555 1_555
N8 Ru8 1_555 1_555
C14 Co1 1_555 1_555
C17 Co1 1_555 1_555
H2 C3 1_555 1_555
H7 C8 1_555 1_555
O4 C3 1_555 1_555
O14 C8 1_555 1_555
N2 C14 1_555 1_555
Co1_2 C2_2 1_555 1_555
N1_2 Ru1_2 1_555 1_555
C2_2 N1_2 1_555 1_555
Ru2_2 Ru8_2 1_555 1_555
Ru6 N6 1_555 1_555
Ru7_2 Ru1_2 1_555 1_555
Ru8_2 O10 1_555 1_555
O7 Ru1_2 1_555 1_555
O8 Ru7_2 1_555 1_555
O9 Ru2_2 1_555 1_555
O10 C6 1_555 1_555
C5 O7 1_555 1_555
C6 O9 1_555 1_555
N2_2 Ru2_2 1_555 1_555
N6 C18 1_555 1_555
N7_2 Ru7_2 1_555 1_555
N8_2 Ru8_2 1_555 1_555
C14_2 Co1_2 1_555 1_555
C18 Co1_2 1_555 1_555
H4 C5 1_555 1_555
H5 C6 1_555 1_555
O8 C5 1_555 1_555
N2_2 C14_2 1_555 1_555
Co1_3 C2_3 1_555 1_555
N1_3 Ru1_3 1_555 1_555
C2_3 N1_3 1_555 1_555
Ru5_2 N5_2 1_555 1_555
Ru7_3 Ru1_3 1_555 1_555
O5 Ru1_3 1_555 1_555
O6 Ru7_3 1_555 1_555
C4 O5 1_555 1_555
N8 C16 1_555 1_555
N5_2 C17_2 1_555 1_555
N7_3 Ru7_3 1_555 1_555
C16 Co1_3 1_555 1_555
C17_2 Co1_3 1_555 1_555
H3 C4 1_555 1_555
O6 C4 1_555 1_555
Ru1_4 O1 1_555 1_555
Co1_4 C2_4 1_555 1_555
O1 C1 1_555 1_555
C1 H1 1_555 1_555
N1_4 Ru1_4 1_555 1_555
C2_4 N1_4 1_555 1_555
Ru6_2 N6_2 1_555 1_555
Ru7_4 Ru1_4 1_555 1_555
O2 C1 1_555 1_555
N8_2 C16_2 1_555 1_555
N6_2 C18_2 1_555 1_555
N7_4 Ru7_4 1_555 1_555
C16_2 Co1_4 1_555 1_555
C18_2 Co1_4 1_555 1_555
Ru7_4 O2 1_555 1_555
Ru2_3 Ru8_3 1_555 1_555
Ru5_3 N5_3 1_555 1_555
O11 Ru2_3 1_555 1_555
O12 Ru8_3 1_555 1_555
C7 O11 1_555 1_555
N2_3 Ru2_3 1_555 1_555
N5_3 C17_3 1_555 1_555
N8_3 Ru8_3 1_555 1_555
C14_3 Co1_5 1_555 1_555
C15 Co1_5 1_555 1_555
C17_3 Co1_5 1_555 1_555
H6 C7 1_555 1_555
O12 C7 1_555 1_555
N2_3 C14_3 1_555 1_555
N7 C15 1_555 1_555
Ru2_4 Ru8_4 1_555 1_555
Ru6_3 N6_3 1_555 1_555
O15 Ru2_4 1_555 1_555
O16 Ru8_4 1_555 1_555
C9 O15 1_555 1_555
N2_4 Ru2_4 1_555 1_555
N6_3 C18_3 1_555 1_555
N8_4 Ru8_4 1_555 1_555
C14_4 Co1_6 1_555 1_555
C15_2 Co1_6 1_555 1_555
C18_3 Co1_6 1_555 1_555
H8 C9 1_555 1_555
O16 C9 1_555 1_555
N2_4 C14_4 1_555 1_555
N7_2 C15_2 1_555 1_555
Ru5_4 N5_4 1_555 1_555
N8_3 C16_3 1_555 1_555
N5_4 C17_4 1_555 1_555
C15_3 Co1_7 1_555 1_555
C16_3 Co1_7 1_555 1_555
C17_4 Co1_7 1_555 1_555
N7_3 C15_3 1_555 1_555
Ru6_4 N6_4 1_555 1_555
N8_4 C16_4 1_555 1_555
N6_4 C18_4 1_555 1_555
C15_4 Co1_8 1_555 1_555
C16_4 Co1_8 1_555 1_555
C18_4 Co1_8 1_555 1_555
N7_4 C15_4 1_555 1_555
Ru5 Ru6 1_555 1_555
O13_2 Ru5 1_555 1_555
O14_2 Ru6 1_555 1_555
C8_2 O13_2 1_555 1_555
H7_2 C8_2 1_555 1_555
O14_2 C8_2 1_555 1_555
Ru5_2 Ru6_2 1_555 1_555
O11_2 Ru5_2 1_555 1_555
O12_2 Ru6_2 1_555 1_555
C7_2 O11_2 1_555 1_555
H6_2 C7_2 1_555 1_555
O12_2 C7_2 1_555 1_555
Ru5_3 Ru6_3 1_555 1_555
Ru6_3 O10_2 1_555 1_555
O9_2 Ru5_3 1_555 1_555
O10_2 C6_2 1_555 1_555
C6_2 O9_2 1_555 1_555
H5_2 C6_2 1_555 1_555
Ru5_4 Ru6_4 1_555 1_555
O15_2 Ru5_4 1_555 1_555
O16_2 Ru6_4 1_555 1_555
C9_2 O15_2 1_555 1_555
H8_2 C9_2 1_555 1_555
O16_2 C9_2 1_555 1_555
C1_2 H1_2 1_555 1_555
O2_2 C1_2 1_555 1_555
O4_2 Ru7_5 1_555 1_555
O6_2 Ru7_5 1_555 1_555
O8_2 Ru7_5 1_555 1_555
N7_5 Ru7_5 1_555 1_555
H2_2 C3_2 1_555 1_555
H3_2 C4_2 1_555 1_555
H4_2 C5_2 1_555 1_555
Ru7_5 O2_2 1_555 1_555
O4_2 C3_2 1_555 1_555
O6_2 C4_2 1_555 1_555
O8_2 C5_2 1_555 1_555
Ru8_5 O10_3 1_555 1_555
O10_3 C6_3 1_555 1_555
O12_3 Ru8_5 1_555 1_555
O14_3 Ru8_5 1_555 1_555
O16_3 Ru8_5 1_555 1_555
N8_5 Ru8_5 1_555 1_555
H5_3 C6_3 1_555 1_555
H6_3 C7_3 1_555 1_555
H7_3 C8_3 1_555 1_555
H8_3 C9_3 1_555 1_555
O12_3 C7_3 1_555 1_555
O14_3 C8_3 1_555 1_555
O16_3 C9_3 1_555 1_555
Ru1_5 O1_2 1_555 1_555
Co1_9 C2_5 1_555 1_555
O1_2 C1_3 1_555 1_555
C1_3 H1_3 1_555 1_555
N1_5 Ru1_5 1_555 1_555
C2_5 N1_5 1_555 1_555
Ru5_5 N5_5 1_555 1_555
Ru6_5 N6_5 1_555 1_555
O3_2 Ru1_5 1_555 1_555
O5_2 Ru1_5 1_555 1_555
O7_2 Ru1_5 1_555 1_555
O9_3 Ru2_5 1_555 1_555
O11_3 Ru2_5 1_555 1_555
O13_3 Ru2_5 1_555 1_555
O15_3 Ru2_5 1_555 1_555
C3_3 O3_2 1_555 1_555
C4_3 O5_2 1_555 1_555
C5_3 O7_2 1_555 1_555
C6_4 O9_3 1_555 1_555
C7_4 O11_3 1_555 1_555
C8_4 O13_3 1_555 1_555
C9_4 O15_3 1_555 1_555
N2_5 Ru2_5 1_555 1_555
N8_5 C16_5 1_555 1_555
N5_5 C17_5 1_555 1_555
N6_5 C18_5 1_555 1_555
C14_5 Co1_9 1_555 1_555
C15_5 Co1_9 1_555 1_555
C16_5 Co1_9 1_555 1_555
C17_5 Co1_9 1_555 1_555
C18_5 Co1_9 1_555 1_555
H2_3 C3_3 1_555 1_555
H3_3 C4_3 1_555 1_555
H4_3 C5_3 1_555 1_555
H5_4 C6_4 1_555 1_555
H6_4 C7_4 1_555 1_555
H7_4 C8_4 1_555 1_555
H8_4 C9_4 1_555 1_555
N2_5 C14_5 1_555 1_555
N7_5 C15_5 1_555 1_555
Ru6_5 O10_4 1_555 1_555
O10_4 C6_5 1_555 1_555
O12_4 Ru6_5 1_555 1_555
O14_4 Ru6_5 1_555 1_555
O16_4 Ru6_5 1_555 1_555
H5_5 C6_5 1_555 1_555
H6_5 C7_5 1_555 1_555
H7_5 C8_5 1_555 1_555
H8_5 C9_5 1_555 1_555
O12_4 C7_5 1_555 1_555
O14_4 C8_5 1_555 1_555
O16_4 C9_5 1_555 1_555
O9_4 Ru5_5 1_555 1_555
O11_4 Ru5_5 1_555 1_555
O13_4 Ru5_5 1_555 1_555
O15_4 Ru5_5 1_555 1_555
C6_6 O9_4 1_555 1_555
C7_6 O11_4 1_555 1_555
C8_6 O13_4 1_555 1_555
C9_6 O15_4 1_555 1_555
H5_6 C6_6 1_555 1_555
H6_6 C7_6 1_555 1_555
H7_6 C8_6 1_555 1_555
H8_6 C9_6 1_555 1_555

#END
