
###############################################################################
#
# This file contains modified crystal structure data generated from the
# MOF subset of the Cambridge Structural Database (CSD) v543 
# hosted by the Cambridge Crystallographic Data Centre (CCDC).
#
# This work is licensed under the Creative Commons
# Attribution-NonCommercial-ShareAlike 4.0 International License.
# To view a copy of this license, visit
# http://creativecommons.org/licenses/by-nc-sa/4.0/
# or send a letter to
# Creative Commons, PO Box 1866, Mountain View, CA 94042, USA.
#
# CIF created using the CSD Python API on 29 September 2022
# The structure has been converted into the P1 space group
# The structure has a 3D framework
# The original CSD entry OGIJAQ is in the cubic crystal system
# The framework has been calculated to contain at least 10.0% void space
# The void calculation uses a probe of radius 1.32A, grid spacing 0.4
#
###############################################################################

data_OGIJAQ
_chemical_formula_moiety         '(C66 H36 Fe9 N30 O48 Ru30)n'
_symmetry_cell_setting           triclinic
_symmetry_space_group_name_H-M   'P 1'
_symmetry_Int_Tables_number      1
_space_group_name_Hall           'P 1'
loop_
_symmetry_equiv_pos_site_id
_symmetry_equiv_pos_as_xyz
1 x,y,z
_cell_length_a                   12.70707(75)
_cell_length_b                   12.70707(75)
_cell_length_c                   12.70707(75)
_cell_angle_alpha                90
_cell_angle_beta                 90
_cell_angle_gamma                90
_cell_volume                     2051.81
loop_
_atom_site_label
_atom_site_type_symbol
_atom_site_fract_x
_atom_site_fract_y
_atom_site_fract_z
Ru1 Ru 0.41041 0.000000 0.00000
Fe1 Fe 0.00000 0.00000 0.00000
N1 N 0.23071(82) 0.00000 0.00000
C2 C 0.15016(91) 0.00000 0.00000
Ru2 Ru -0.000000 0.41041 0.00000
Ru5 Ru -0.000000 -0.00000 0.41041
Ru7 Ru 0.58959 0.000000 0.00000
Ru8 Ru -0.000000 0.58959 0.00000
O3 O 0.412750 0.112700 0.112700
O4 O 0.587250 0.112700 0.112700
O13 O 0.112700 0.412750 0.112700
O14 O 0.112700 0.587250 0.112700
C3 C 0.500000 0.15040 0.150400
C8 C 0.15040 0.500000 0.150400
N2 N 0.00000 0.23071(82) 0.00000
N5 N 0.00000 0.00000 0.23071(82)
N7 N 0.76929(82) 0.00000 0.00000
N8 N 0.00000 0.76929(82) 0.00000
C14 C -0.00000 0.15016(91) 0.00000
C17 C -0.00000 -0.00000 0.15016(91)
H2 H 0.50001 0.206050 0.20605
H7 H 0.20605 0.50001 0.206050
Ru1_2 Ru 0.41041 0.000000 1.00000
Fe1_2 Fe 0.00000 0.00000 1.00000
N1_2 N 0.23071(82) 0.00000 1.00000
C2_2 C 0.15016(91) 0.00000 1.00000
Ru2_2 Ru -0.000000 0.41041 1.00000
Ru6 Ru 0.00000 0.000000 0.58959
Ru7_2 Ru 0.58959 0.000000 1.00000
Ru8_2 Ru -0.000000 0.58959 1.00000
O7 O 0.412750 0.112700 0.887300
O8 O 0.587250 0.112700 0.887300
O9 O 0.112700 0.412750 0.887300
O10 O 0.112700 0.587250 0.887300
C5 C 0.500000 0.15040 0.849600
C6 C 0.15040 0.500000 0.849600
N2_2 N 0.00000 0.23071(82) 1.00000
N6 N 0.00000 0.00000 0.76929(82)
N7_2 N 0.76929(82) 0.00000 1.00000
N8_2 N -0.00000 0.76929(82) 1.00000
C14_2 C -0.00000 0.15016(91) 1.00000
C18 C -0.00000 0.00000 0.84984(91)
H4 H 0.50001 0.20605 0.793950
H5 H 0.206050 0.50001 0.79395
Ru1_3 Ru 0.41041 1.000000 0.00000
Fe1_3 Fe 0.00000 1.00000 0.00000
N1_3 N 0.23071(82) 1.00000 0.00000
C2_3 C 0.15016(91) 1.00000 0.00000
Ru5_2 Ru 0.000000 1.00000 0.41041
Ru7_3 Ru 0.58959 1.000000 0.00000
O5 O 0.412750 0.887300 0.112700
O6 O 0.587250 0.887300 0.112700
C4 C 0.500000 0.84960 0.150400
N5_2 N 0.00000 1.00000 0.23071(82)
N7_3 N 0.76929(82) 1.00000 0.00000
C16 C 0.00000 0.84984(91) 0.00000
C17_2 C -0.00000 1.00000 0.15016(91)
H3 H 0.50001 0.79395 0.206050
Ru1_4 Ru 0.41041 1.000000 1.00000
Fe1_4 Fe 0.00000 1.00000 1.00000
O1 O 0.412750 0.887300 0.887300
C1 C 0.500000 0.84960 0.849600
N1_4 N 0.23071(82) 1.00000 1.00000
C2_4 C 0.15016(91) 1.00000 1.00000
H1 H 0.50001 0.793950 0.79395
Ru6_2 Ru -0.00000 1.000000 0.58959
Ru7_4 Ru 0.58959 1.000000 1.00000
O2 O 0.587250 0.887300 0.887300
N6_2 N 0.00000 1.00000 0.76929(82)
N7_4 N 0.76929(82) 1.00000 1.00000
C16_2 C -0.00000 0.84984(91) 1.00000
C18_2 C -0.00000 1.00000 0.84984(91)
Fe1_5 Fe 1.00000 0.00000 0.00000
Ru2_3 Ru 1.000000 0.41041 0.00000
Ru5_3 Ru 1.000000 -0.00000 0.41041
Ru8_3 Ru 1.000000 0.58959 0.00000
O11 O 0.887300 0.412750 0.112700
O12 O 0.887300 0.587250 0.112700
C7 C 0.84960 0.500000 0.150400
N2_3 N 1.00000 0.23071(82) 0.00000
N5_3 N 1.00000 0.00000 0.23071(82)
N8_3 N 1.00000 0.76929(82) 0.00000
C14_3 C 1.00000 0.15016(91) 0.00000
C15 C 0.84984(91) 0.00000 0.00000
C17_3 C 1.00000 -0.00000 0.15016(91)
H6 H 0.793950 0.50001 0.20605
Fe1_6 Fe 1.00000 0.00000 1.00000
Ru2_4 Ru 1.000000 0.41041 1.00000
Ru6_3 Ru 1.00000 0.000000 0.58959
Ru8_4 Ru 1.000000 0.58959 1.00000
O15 O 0.887300 0.412750 0.887300
O16 O 0.887300 0.587250 0.887300
C9 C 0.849600 0.500000 0.84960
N2_4 N 1.00000 0.23071(82) 1.00000
N6_3 N 1.00000 0.00000 0.76929(82)
N8_4 N 1.00000 0.76929(82) 1.00000
C14_4 C 1.00000 0.15016(91) 1.00000
C15_2 C 0.84984(91) 0.00000 1.00000
C18_3 C 1.00000 0.00000 0.84984(91)
H8 H 0.79395 0.50001 0.793950
Fe1_7 Fe 1.00000 1.00000 0.00000
Ru5_4 Ru 1.000000 1.00000 0.41041
N5_4 N 1.00000 1.00000 0.23071(82)
C15_3 C 0.84984(91) 1.00000 0.00000
C16_3 C 1.00000 0.84984(91) 0.00000
C17_4 C 1.00000 1.00000 0.15016(91)
Fe1_8 Fe 1.00000 1.00000 1.00000
Ru6_4 Ru 1.00000 1.000000 0.58959
N6_4 N 1.00000 1.00000 0.76929(82)
C15_4 C 0.84984(91) 1.00000 1.00000
C16_4 C 1.00000 0.84984(91) 1.00000
C18_4 C 1.00000 1.00000 0.84984(91)
O13_2 O 0.112700 0.112700 0.412750
O14_2 O 0.112700 0.112700 0.587250
C8_2 C 0.150400 0.15040 0.500000
H7_2 H 0.206050 0.20605 0.50001
O11_2 O 0.112700 0.887300 0.412750
O12_2 O 0.112700 0.887300 0.587250
C7_2 C 0.150400 0.84960 0.500000
H6_2 H 0.20605 0.793950 0.50001
O9_2 O 0.887300 0.112700 0.412750
O10_2 O 0.887300 0.112700 0.587250
C6_2 C 0.849600 0.15040 0.500000
H5_2 H 0.79395 0.206050 0.50001
O15_2 O 0.887300 0.887300 0.412750
O16_2 O 0.887300 0.887300 0.587250
C9_2 C 0.84960 0.849600 0.500000
H8_2 H 0.793950 0.79395 0.50001
C1_2 C -0.000000 0.34960 0.349600
H1_2 H 0.00001 0.293950 0.29395
Ru7_5 Ru 0.08959 0.500000 0.50000
O2_2 O 0.087250 0.387300 0.387300
O4_2 O 0.087250 0.612700 0.612700
O6_2 O 0.087250 0.387300 0.612700
O8_2 O 0.087250 0.612700 0.387300
C3_2 C -0.000000 0.65040 0.650400
C4_2 C -0.000000 0.34960 0.650400
C5_2 C -0.000000 0.65040 0.349600
N7_5 N 0.26929(82) 0.50000 0.50000
H2_2 H 0.00001 0.706050 0.70605
H3_2 H 0.00001 0.29395 0.706050
H4_2 H 0.00001 0.70605 0.293950
Ru8_5 Ru 0.500000 0.08959 0.50000
O10_3 O 0.612700 0.087250 0.387300
O12_3 O 0.387300 0.087250 0.612700
O14_3 O 0.612700 0.087250 0.612700
O16_3 O 0.387300 0.087250 0.387300
C6_3 C 0.65040 -0.000000 0.349600
C7_3 C 0.34960 -0.000000 0.650400
C8_3 C 0.65040 -0.000000 0.650400
C9_3 C 0.349600 -0.000000 0.34960
N8_5 N 0.50000 0.26929(82) 0.50000
H5_3 H 0.706050 0.00001 0.29395
H6_3 H 0.293950 0.00001 0.70605
H7_3 H 0.70605 0.00001 0.706050
H8_3 H 0.29395 0.00001 0.293950
Ru1_5 Ru 0.91041 0.500000 0.50000
Fe1_9 Fe 0.50000 0.50000 0.50000
O1_2 O 0.912750 0.387300 0.387300
C1_3 C 1.000000 0.34960 0.349600
N1_5 N 0.73071(82) 0.50000 0.50000
C2_5 C 0.65016(91) 0.50000 0.50000
H1_3 H 1.00001 0.293950 0.29395
Ru2_5 Ru 0.500000 0.91041 0.50000
Ru5_5 Ru 0.500000 0.50000 0.91041
Ru6_5 Ru 0.50000 0.500000 0.08959
O3_2 O 0.912750 0.612700 0.612700
O5_2 O 0.912750 0.387300 0.612700
O7_2 O 0.912750 0.612700 0.387300
O9_3 O 0.612700 0.912750 0.387300
O11_3 O 0.387300 0.912750 0.612700
O13_3 O 0.612700 0.912750 0.612700
O15_3 O 0.387300 0.912750 0.387300
C3_3 C 1.000000 0.65040 0.650400
C4_3 C 1.000000 0.34960 0.650400
C5_3 C 1.000000 0.65040 0.349600
C6_4 C 0.65040 1.000000 0.349600
C7_4 C 0.34960 1.000000 0.650400
C8_4 C 0.65040 1.000000 0.650400
C9_4 C 0.349600 1.000000 0.34960
N2_5 N 0.50000 0.73071(82) 0.50000
N5_5 N 0.50000 0.50000 0.73071(82)
N6_5 N 0.50000 0.50000 0.26929(82)
C14_5 C 0.50000 0.65016(91) 0.50000
C15_5 C 0.34984(91) 0.50000 0.50000
C16_5 C 0.50000 0.34984(91) 0.50000
C17_5 C 0.50000 0.50000 0.65016(91)
C18_5 C 0.50000 0.50000 0.34984(91)
H2_3 H 1.00001 0.706050 0.70605
H3_3 H 1.00001 0.29395 0.706050
H4_3 H 1.00001 0.70605 0.293950
H5_4 H 0.706050 1.00001 0.29395
H6_4 H 0.293950 1.00001 0.70605
H7_4 H 0.70605 1.00001 0.706050
H8_4 H 0.29395 1.00001 0.293950
O10_4 O 0.387300 0.612700 0.087250
O12_4 O 0.612700 0.387300 0.087250
O14_4 O 0.612700 0.612700 0.087250
O16_4 O 0.387300 0.387300 0.087250
C6_5 C 0.349600 0.65040 -0.000000
C7_5 C 0.650400 0.34960 -0.000000
C8_5 C 0.650400 0.65040 -0.000000
C9_5 C 0.34960 0.349600 -0.000000
H5_5 H 0.29395 0.706050 0.00001
H6_5 H 0.70605 0.293950 0.00001
H7_5 H 0.706050 0.70605 0.00001
H8_5 H 0.293950 0.29395 0.00001
O9_4 O 0.387300 0.612700 0.912750
O11_4 O 0.612700 0.387300 0.912750
O13_4 O 0.612700 0.612700 0.912750
O15_4 O 0.387300 0.387300 0.912750
C6_6 C 0.349600 0.65040 1.000000
C7_6 C 0.650400 0.34960 1.000000
C8_6 C 0.650400 0.65040 1.000000
C9_6 C 0.34960 0.349600 1.000000
H5_6 H 0.29395 0.706050 1.00001
H6_6 H 0.70605 0.293950 1.00001
H7_6 H 0.706050 0.70605 1.00001
H8_6 H 0.293950 0.29395 1.00001
loop_
_geom_bond_atom_site_label_1
_geom_bond_atom_site_label_2
_geom_bond_site_symmetry_1
_geom_bond_site_symmetry_2
Fe1 C2 1_555 1_555
N1 Ru1 1_555 1_555
C2 N1 1_555 1_555
Ru2 Ru8 1_555 1_555
Ru5 N5 1_555 1_555
Ru7 Ru1 1_555 1_555
O3 Ru1 1_555 1_555
O4 Ru7 1_555 1_555
O13 Ru2 1_555 1_555
O14 Ru8 1_555 1_555
C3 O3 1_555 1_555
C8 O13 1_555 1_555
N2 Ru2 1_555 1_555
N5 C17 1_555 1_555
N7 Ru7 1_555 1_555
N8 Ru8 1_555 1_555
C14 Fe1 1_555 1_555
C17 Fe1 1_555 1_555
H2 C3 1_555 1_555
H7 C8 1_555 1_555
O4 C3 1_555 1_555
O14 C8 1_555 1_555
N2 C14 1_555 1_555
Fe1_2 C2_2 1_555 1_555
N1_2 Ru1_2 1_555 1_555
C2_2 N1_2 1_555 1_555
Ru2_2 Ru8_2 1_555 1_555
Ru6 N6 1_555 1_555
Ru7_2 Ru1_2 1_555 1_555
Ru8_2 O10 1_555 1_555
O7 Ru1_2 1_555 1_555
O8 Ru7_2 1_555 1_555
O9 Ru2_2 1_555 1_555
O10 C6 1_555 1_555
C5 O7 1_555 1_555
C6 O9 1_555 1_555
N2_2 Ru2_2 1_555 1_555
N6 C18 1_555 1_555
N7_2 Ru7_2 1_555 1_555
N8_2 Ru8_2 1_555 1_555
C14_2 Fe1_2 1_555 1_555
C18 Fe1_2 1_555 1_555
H4 C5 1_555 1_555
H5 C6 1_555 1_555
O8 C5 1_555 1_555
N2_2 C14_2 1_555 1_555
Fe1_3 C2_3 1_555 1_555
N1_3 Ru1_3 1_555 1_555
C2_3 N1_3 1_555 1_555
Ru5_2 N5_2 1_555 1_555
Ru7_3 Ru1_3 1_555 1_555
O5 Ru1_3 1_555 1_555
O6 Ru7_3 1_555 1_555
C4 O5 1_555 1_555
N8 C16 1_555 1_555
N5_2 C17_2 1_555 1_555
N7_3 Ru7_3 1_555 1_555
C16 Fe1_3 1_555 1_555
C17_2 Fe1_3 1_555 1_555
H3 C4 1_555 1_555
O6 C4 1_555 1_555
Ru1_4 O1 1_555 1_555
Fe1_4 C2_4 1_555 1_555
O1 C1 1_555 1_555
C1 H1 1_555 1_555
N1_4 Ru1_4 1_555 1_555
C2_4 N1_4 1_555 1_555
Ru6_2 N6_2 1_555 1_555
Ru7_4 Ru1_4 1_555 1_555
O2 C1 1_555 1_555
N8_2 C16_2 1_555 1_555
N6_2 C18_2 1_555 1_555
N7_4 Ru7_4 1_555 1_555
C16_2 Fe1_4 1_555 1_555
C18_2 Fe1_4 1_555 1_555
Ru7_4 O2 1_555 1_555
Ru2_3 Ru8_3 1_555 1_555
Ru5_3 N5_3 1_555 1_555
O11 Ru2_3 1_555 1_555
O12 Ru8_3 1_555 1_555
C7 O11 1_555 1_555
N2_3 Ru2_3 1_555 1_555
N5_3 C17_3 1_555 1_555
N8_3 Ru8_3 1_555 1_555
C14_3 Fe1_5 1_555 1_555
C15 Fe1_5 1_555 1_555
C17_3 Fe1_5 1_555 1_555
H6 C7 1_555 1_555
O12 C7 1_555 1_555
N2_3 C14_3 1_555 1_555
N7 C15 1_555 1_555
Ru2_4 Ru8_4 1_555 1_555
Ru6_3 N6_3 1_555 1_555
O15 Ru2_4 1_555 1_555
O16 Ru8_4 1_555 1_555
C9 O15 1_555 1_555
N2_4 Ru2_4 1_555 1_555
N6_3 C18_3 1_555 1_555
N8_4 Ru8_4 1_555 1_555
C14_4 Fe1_6 1_555 1_555
C15_2 Fe1_6 1_555 1_555
C18_3 Fe1_6 1_555 1_555
H8 C9 1_555 1_555
O16 C9 1_555 1_555
N2_4 C14_4 1_555 1_555
N7_2 C15_2 1_555 1_555
Ru5_4 N5_4 1_555 1_555
N8_3 C16_3 1_555 1_555
N5_4 C17_4 1_555 1_555
C15_3 Fe1_7 1_555 1_555
C16_3 Fe1_7 1_555 1_555
C17_4 Fe1_7 1_555 1_555
N7_3 C15_3 1_555 1_555
Ru6_4 N6_4 1_555 1_555
N8_4 C16_4 1_555 1_555
N6_4 C18_4 1_555 1_555
C15_4 Fe1_8 1_555 1_555
C16_4 Fe1_8 1_555 1_555
C18_4 Fe1_8 1_555 1_555
N7_4 C15_4 1_555 1_555
Ru5 Ru6 1_555 1_555
O13_2 Ru5 1_555 1_555
O14_2 Ru6 1_555 1_555
C8_2 O13_2 1_555 1_555
H7_2 C8_2 1_555 1_555
O14_2 C8_2 1_555 1_555
Ru5_2 Ru6_2 1_555 1_555
O11_2 Ru5_2 1_555 1_555
O12_2 Ru6_2 1_555 1_555
C7_2 O11_2 1_555 1_555
H6_2 C7_2 1_555 1_555
O12_2 C7_2 1_555 1_555
Ru5_3 Ru6_3 1_555 1_555
Ru6_3 O10_2 1_555 1_555
O9_2 Ru5_3 1_555 1_555
O10_2 C6_2 1_555 1_555
C6_2 O9_2 1_555 1_555
H5_2 C6_2 1_555 1_555
Ru5_4 Ru6_4 1_555 1_555
O15_2 Ru5_4 1_555 1_555
O16_2 Ru6_4 1_555 1_555
C9_2 O15_2 1_555 1_555
H8_2 C9_2 1_555 1_555
O16_2 C9_2 1_555 1_555
C1_2 H1_2 1_555 1_555
O2_2 C1_2 1_555 1_555
O4_2 Ru7_5 1_555 1_555
O6_2 Ru7_5 1_555 1_555
O8_2 Ru7_5 1_555 1_555
N7_5 Ru7_5 1_555 1_555
H2_2 C3_2 1_555 1_555
H3_2 C4_2 1_555 1_555
H4_2 C5_2 1_555 1_555
Ru7_5 O2_2 1_555 1_555
O4_2 C3_2 1_555 1_555
O6_2 C4_2 1_555 1_555
O8_2 C5_2 1_555 1_555
Ru8_5 O10_3 1_555 1_555
O10_3 C6_3 1_555 1_555
O12_3 Ru8_5 1_555 1_555
O14_3 Ru8_5 1_555 1_555
O16_3 Ru8_5 1_555 1_555
N8_5 Ru8_5 1_555 1_555
H5_3 C6_3 1_555 1_555
H6_3 C7_3 1_555 1_555
H7_3 C8_3 1_555 1_555
H8_3 C9_3 1_555 1_555
O12_3 C7_3 1_555 1_555
O14_3 C8_3 1_555 1_555
O16_3 C9_3 1_555 1_555
Ru1_5 O1_2 1_555 1_555
Fe1_9 C2_5 1_555 1_555
O1_2 C1_3 1_555 1_555
C1_3 H1_3 1_555 1_555
N1_5 Ru1_5 1_555 1_555
C2_5 N1_5 1_555 1_555
Ru5_5 N5_5 1_555 1_555
Ru6_5 N6_5 1_555 1_555
O3_2 Ru1_5 1_555 1_555
O5_2 Ru1_5 1_555 1_555
O7_2 Ru1_5 1_555 1_555
O9_3 Ru2_5 1_555 1_555
O11_3 Ru2_5 1_555 1_555
O13_3 Ru2_5 1_555 1_555
O15_3 Ru2_5 1_555 1_555
C3_3 O3_2 1_555 1_555
C4_3 O5_2 1_555 1_555
C5_3 O7_2 1_555 1_555
C6_4 O9_3 1_555 1_555
C7_4 O11_3 1_555 1_555
C8_4 O13_3 1_555 1_555
C9_4 O15_3 1_555 1_555
N2_5 Ru2_5 1_555 1_555
N8_5 C16_5 1_555 1_555
N5_5 C17_5 1_555 1_555
N6_5 C18_5 1_555 1_555
C14_5 Fe1_9 1_555 1_555
C15_5 Fe1_9 1_555 1_555
C16_5 Fe1_9 1_555 1_555
C17_5 Fe1_9 1_555 1_555
C18_5 Fe1_9 1_555 1_555
H2_3 C3_3 1_555 1_555
H3_3 C4_3 1_555 1_555
H4_3 C5_3 1_555 1_555
H5_4 C6_4 1_555 1_555
H6_4 C7_4 1_555 1_555
H7_4 C8_4 1_555 1_555
H8_4 C9_4 1_555 1_555
N2_5 C14_5 1_555 1_555
N7_5 C15_5 1_555 1_555
Ru6_5 O10_4 1_555 1_555
O10_4 C6_5 1_555 1_555
O12_4 Ru6_5 1_555 1_555
O14_4 Ru6_5 1_555 1_555
O16_4 Ru6_5 1_555 1_555
H5_5 C6_5 1_555 1_555
H6_5 C7_5 1_555 1_555
H7_5 C8_5 1_555 1_555
H8_5 C9_5 1_555 1_555
O12_4 C7_5 1_555 1_555
O14_4 C8_5 1_555 1_555
O16_4 C9_5 1_555 1_555
O9_4 Ru5_5 1_555 1_555
O11_4 Ru5_5 1_555 1_555
O13_4 Ru5_5 1_555 1_555
O15_4 Ru5_5 1_555 1_555
C6_6 O9_4 1_555 1_555
C7_6 O11_4 1_555 1_555
C8_6 O13_4 1_555 1_555
C9_6 O15_4 1_555 1_555
H5_6 C6_6 1_555 1_555
H6_6 C7_6 1_555 1_555
H7_6 C8_6 1_555 1_555
H8_6 C9_6 1_555 1_555

#END
