
###############################################################################
#
# This file contains modified crystal structure data generated from the
# MOF subset of the Cambridge Structural Database (CSD) v543 
# hosted by the Cambridge Crystallographic Data Centre (CCDC).
#
# This work is licensed under the Creative Commons
# Attribution-NonCommercial-ShareAlike 4.0 International License.
# To view a copy of this license, visit
# http://creativecommons.org/licenses/by-nc-sa/4.0/
# or send a letter to
# Creative Commons, PO Box 1866, Mountain View, CA 94042, USA.
#
# CIF created using the CSD Python API on 29 September 2022
# The structure has been converted into the P1 space group
# The structure has a 3D framework
# The original CSD entry OGIXUY is in the orthorhombic crystal system
# The framework has been calculated to contain at least 10.0% void space
# The void calculation uses a probe of radius 1.32A, grid spacing 0.4
# H atom positions have been added when not included in the experimental data
#
###############################################################################

data_OGIXUY
_chemical_formula_moiety         '(C14 H32 Co3 N6 O13)n'
_symmetry_cell_setting           triclinic
_symmetry_space_group_name_H-M   'P 1'
_symmetry_Int_Tables_number      1
_space_group_name_Hall           'P 1'
loop_
_symmetry_equiv_pos_site_id
_symmetry_equiv_pos_as_xyz
1 x,y,z
_cell_length_a                   8.6935(2)
_cell_length_b                   11.6497(3)
_cell_length_c                   8.3121(2)
_cell_angle_alpha                90
_cell_angle_beta                 90
_cell_angle_gamma                90
_cell_volume                     841.822
loop_
_atom_site_label
_atom_site_type_symbol
_atom_site_fract_x
_atom_site_fract_y
_atom_site_fract_z
C1 C 0.0308(4) 0.2196(3) 0.0221(4)
H1 H 0.0776 0.2822 0.0713
N1 N 0.0872(3) 0.1841(2) 0.8945(3)
H2 H 0.1171 0.1119 0.9167
H3 H 0.0064 0.1773 0.8275
Co5 Co 0.26352(7) 0.2500 0.7500
Co1 Co 0.76352(7) 0.2500 0.2500
O1 O 0.7620(3) 0.4054(2) 0.1180(3)
O2 O 0.9169(4) 0.1777(2) 0.0886(4)
C2 C 0.7500 0.5000 0.1862(6)
H4 H 0.7500 0.5000 0.2981
Co2 Co 0.73648(7) 0.7500 0.2500
O3 O 0.7380(3) 0.5946(2) 0.1180(3)
O4 O 0.7620(3) 0.0946(2) 0.3820(3)
O7 O 0.9169(4) 0.3223(2) 0.4114(4)
N2 N 0.5872(3) 0.1841(2) 0.1055(3)
N3 N 0.5872(3) 0.3159(2) 0.3945(3)
H6 H 0.6171 0.1119 0.0833
H7 H 0.6171 0.3881 0.4167
H8 H 0.5064 0.1773 0.1725
H9 H 0.5064 0.3227 0.3275
C4 C 0.7500 -0.0000 0.3138(6)
H10 H 0.7500 -0.0000 0.2019
H11 H 0.565039 0.267902 0.49374
O6 O 0.4169(4) 0.1777(2) 0.9114(4)
C3 C 0.5308(4) 0.2196(3) 0.9779(4)
H5 H 0.5776 0.2822 0.9287
O5 O 0.7380(3) 0.9054(2) 0.3820(3)
C4_2 C 0.7500 1.0000 0.3138(6)
H10_2 H 0.7500 1.0000 0.2019
Co4 Co 0.23648(7) 0.7500 0.7500
O6_2 O 0.0831(4) 0.8223(2) 0.9114(4)
O2_2 O 0.5831(4) 0.8223(2) 0.0886(4)
C1_2 C 0.4692(4) 0.7804(3) 0.0221(4)
H1_2 H 0.4224 0.7178 0.0713
O7_2 O 0.5831(4) 0.6777(2) 0.4114(4)
N2_2 N 0.9128(3) 0.8159(2) 0.1055(3)
N3_2 N 0.9128(3) 0.6841(2) 0.3945(3)
H6_2 H 0.8829 0.8881 0.0833
H7_2 H 0.8829 0.6119 0.4167
H8_2 H 0.9936 0.8227 0.1725
H9_2 H 0.9936 0.6773 0.3275
H11_2 H 0.934961 0.732098 0.49374
N1_2 N 0.4128(3) 0.8159(2) 0.8945(3)
H2_2 H 0.3829 0.8881 0.9167
H3_2 H 0.4936 0.8227 0.8275
C3_2 C 0.9692(4) 0.7804(3) 0.9779(4)
H5_2 H 0.9224 0.7178 0.9287
O6_3 O 0.0831(4) 0.6777(2) 0.5886(4)
C1_3 C 0.4692(4) 0.7196(3) 0.4779(4)
H1_3 H 0.4224 0.7822 0.4287
N1_3 N 0.4128(3) 0.6841(2) 0.6055(3)
H2_3 H 0.3829 0.6119 0.5833
H3_3 H 0.4936 0.6773 0.6725
C3_3 C 0.9692(4) 0.7196(3) 0.5221(4)
H5_3 H 0.9224 0.7822 0.5713
H11_3 H 0.934961 0.767902 0.00626048
C1_4 C 0.0308(4) 0.2804(3) 0.4779(4)
H1_4 H 0.0776 0.2178 0.4287
N1_4 N 0.0872(3) 0.3159(2) 0.6055(3)
H2_4 H 0.1171 0.3881 0.5833
H3_4 H 0.0064 0.3227 0.6725
O6_4 O 0.4169(4) 0.3223(2) 0.5886(4)
C3_4 C 0.5308(4) 0.2804(3) 0.5221(4)
H5_4 H 0.5776 0.2178 0.5713
H11_4 H 0.565039 0.232098 0.00626048
O5_2 O 0.2620(3) 0.0946(2) 0.6180(3)
C4_3 C 0.2500 -0.0000 0.6862(6)
H10_3 H 0.2500 -0.0000 0.7981
O1_2 O 0.2380(3) 0.5946(2) 0.8820(3)
C2_2 C 0.2500 0.5000 0.8138(6)
H4_2 H 0.2500 0.5000 0.7019
O3_2 O 0.2620(3) 0.4054(2) 0.8820(3)
O4_2 O 0.2380(3) 0.9054(2) 0.6180(3)
C4_4 C 0.2500 1.0000 0.6862(6)
H10_4 H 0.2500 1.0000 0.7981
H11_5 H 0.434961 0.732098 0.50626
H11_6 H 0.0650387 0.267902 0.50626
H11_7 H 0.0650387 0.232098 0.99374
H11_8 H 0.434961 0.767902 0.99374
loop_
_geom_bond_atom_site_label_1
_geom_bond_atom_site_label_2
_geom_bond_site_symmetry_1
_geom_bond_site_symmetry_2
H1 C1 1_555 1_555
H2 N1 1_555 1_555
H3 N1 1_555 1_555
Co5 N1 1_555 1_555
Co1 O1 1_555 1_555
O1 C2 1_555 1_555
O2 Co1 1_555 1_555
C2 H4 1_555 1_555
Co2 O3 1_555 1_555
O3 C2 1_555 1_555
O4 Co1 1_555 1_555
O7 Co1 1_555 1_555
N2 Co1 1_555 1_555
N3 Co1 1_555 1_555
H6 N2 1_555 1_555
H7 N3 1_555 1_555
H8 N2 1_555 1_555
H9 N3 1_555 1_555
C4 O4 1_555 1_555
H10 C4 1_555 1_555
N3 H11 1_555 1_555
Co5 O6 1_555 1_555
O6 C3 1_555 1_555
C3 H5 1_555 1_555
Co2 O5 1_555 1_555
O5 C4_2 1_555 1_555
H10_2 C4_2 1_555 1_555
Co4 O6_2 1_555 1_555
O2_2 Co2 1_555 1_555
C1_2 O2_2 1_555 1_555
H1_2 C1_2 1_555 1_555
O7_2 Co2 1_555 1_555
N2_2 Co2 1_555 1_555
N3_2 Co2 1_555 1_555
H6_2 N2_2 1_555 1_555
H7_2 N3_2 1_555 1_555
H8_2 N2_2 1_555 1_555
H9_2 N3_2 1_555 1_555
N3_2 H11_2 1_555 1_555
H2_2 N1_2 1_555 1_555
H3_2 N1_2 1_555 1_555
Co4 N1_2 1_555 1_555
C3_2 H5_2 1_555 1_555
Co4 O6_3 1_555 1_555
C1_3 O7_2 1_555 1_555
H1_3 C1_3 1_555 1_555
N1_3 C1_3 1_555 1_555
H2_3 N1_3 1_555 1_555
H3_3 N1_3 1_555 1_555
Co4 N1_3 1_555 1_555
C3_3 H5_3 1_555 1_555
C3_3 N3_2 1_555 1_555
N2_2 H11_3 1_555 1_555
H1_4 C1_4 1_555 1_555
N1_4 C1_4 1_555 1_555
H2_4 N1_4 1_555 1_555
H3_4 N1_4 1_555 1_555
Co5 N1_4 1_555 1_555
Co5 O6_4 1_555 1_555
O6_4 C3_4 1_555 1_555
C3_4 H5_4 1_555 1_555
C3_4 N3 1_555 1_555
N2 H11_4 1_555 1_555
Co5 O5_2 1_555 1_555
O5_2 C4_3 1_555 1_555
H10_3 C4_3 1_555 1_555
Co4 O1_2 1_555 1_555
O1_2 C2_2 1_555 1_555
C2_2 H4_2 1_555 1_555
Co5 O3_2 1_555 1_555
O3_2 C2_2 1_555 1_555
O4_2 Co4 1_555 1_555
C4_4 O4_2 1_555 1_555
H10_4 C4_4 1_555 1_555
N1_3 H11_5 1_555 1_555
N1_4 H11_6 1_555 1_555
N1 H11_7 1_555 1_555
N1_2 H11_8 1_555 1_555

#END
