
###############################################################################
#
# This file contains modified crystal structure data generated from the
# MOF subset of the Cambridge Structural Database (CSD) v543 
# hosted by the Cambridge Crystallographic Data Centre (CCDC).
#
# This work is licensed under the Creative Commons
# Attribution-NonCommercial-ShareAlike 4.0 International License.
# To view a copy of this license, visit
# http://creativecommons.org/licenses/by-nc-sa/4.0/
# or send a letter to
# Creative Commons, PO Box 1866, Mountain View, CA 94042, USA.
#
# CIF created using the CSD Python API on 29 September 2022
# The structure has been converted into the P1 space group
# The structure has a 3D framework
# The original CSD entry OHAGOV01 is in the monoclinic crystal system
# The framework has been calculated to contain at least 10.0% void space
# The void calculation uses a probe of radius 1.32A, grid spacing 0.4
#
###############################################################################

data_OHAGOV01
_chemical_formula_moiety         '(C40 H20 Cu2 N12 O16)n'
_symmetry_cell_setting           triclinic
_symmetry_space_group_name_H-M   'P 1'
_symmetry_Int_Tables_number      1
_space_group_name_Hall           'P 1'
loop_
_symmetry_equiv_pos_site_id
_symmetry_equiv_pos_as_xyz
1 x,y,z
_cell_length_a                   10.968(2)
_cell_length_b                   12.2031(14)
_cell_length_c                   14.366(2)
_cell_angle_alpha                90
_cell_angle_beta                 110.304(13)
_cell_angle_gamma                90
_cell_volume                     1803.32
loop_
_atom_site_label
_atom_site_type_symbol
_atom_site_fract_x
_atom_site_fract_y
_atom_site_fract_z
Cu1 Cu 0.09723(5) 0.57407(5) 0.52561(4)
O1 O 0.1771(3) 0.4769(3) 0.4520(2)
N1 N 0.7409(3) 0.3125(3) 0.4355(3)
O2 O 0.0109(3) 0.3562(3) 0.4056(2)
O3 O 0.1779(3) 0.0216(3) 0.1420(2)
O4 O 0.0109(3) 0.1412(3) 0.1008(2)
C1 C 0.1210(4) 0.3909(4) 0.4102(3)
C2 C 0.1964(5) 0.3194(4) 0.3620(3)
C3 C 0.1285(4) 0.2490(4) 0.2841(3)
C4 C 0.3319(5) 0.3223(4) 0.3958(3)
H1 H 0.0361 0.2486 0.2599
C5 C 0.1963(4) 0.1797(4) 0.2419(3)
C6 C 0.3983(4) 0.2522(4) 0.3527(3)
H2 H 0.3784 0.3712 0.4474
C7 C 0.3320(5) 0.1794(4) 0.2781(4)
C8 C 0.1228(4) 0.1078(4) 0.1552(3)
N2 N 0.5392(3) 0.2543(3) 0.3879(3)
H3 H 0.3786 0.1298 0.2520
C9 C 0.6180(5) 0.3430(4) 0.4050(3)
C10 C 0.6219(5) 0.1656(4) 0.4080(4)
H4 H 0.5889 0.4168 0.3962
H5 H 0.5944 0.0913 0.4011
N3 N 0.7441(4) 0.1974(3) 0.4379(3)
Cu4 Cu 0.90277(5) 0.42593(5) 0.47439(4)
N4 N 0.2591(3) 0.6875(3) 0.5645(3)
O6 O 0.1779(3) 0.4784(3) 0.6420(2)
Cu5 Cu 0.09723(5) 0.92593(5) 0.02561(4)
O5 O 0.9891(3) 0.6438(3) 0.5944(2)
O7 O 0.9891(3) 0.6412(3) 0.3992(2)
Cu2 Cu 0.90277(5) 0.07407(5) 0.97439(4)
O5_2 O 0.0109(3) 0.1438(3) 0.9056(2)
N4_2 N 0.7409(3) 0.1875(3) 0.9355(3)
O1_2 O 0.8229(3) 0.9769(3) 0.0480(2)
N1_2 N 0.2591(3) 0.8125(3) 0.0645(3)
O2_2 O 0.9891(3) 0.8562(3) 0.0944(2)
O3_2 O 0.8221(3) 0.5216(3) 0.3580(2)
C1_2 C 0.8790(4) 0.8909(4) 0.0898(3)
C2_2 C 0.8036(5) 0.8194(4) 0.1380(3)
C3_2 C 0.8715(4) 0.7490(4) 0.2159(3)
C4_2 C 0.6681(5) 0.8223(4) 0.1042(3)
H1_2 H 0.9639 0.7486 0.2401
C5_2 C 0.8037(4) 0.6797(4) 0.2581(3)
C6_2 C 0.6017(4) 0.7522(4) 0.1473(3)
H2_2 H 0.6216 0.8712 0.0526
C7_2 C 0.6680(5) 0.6794(4) 0.2219(4)
C8_2 C 0.8772(4) 0.6078(4) 0.3448(3)
N2_2 N 0.4608(3) 0.7543(3) 0.1121(3)
H3_2 H 0.6214 0.6298 0.2480
C9_2 C 0.3820(5) 0.8430(4) 0.0950(3)
C10_2 C 0.3781(5) 0.6656(4) 0.0920(4)
H4_2 H 0.4111 0.9168 0.1038
H5_2 H 0.4056 0.5913 0.0989
N3_2 N 0.2559(4) 0.6974(3) 0.0621(3)
O6_2 O 0.8221(3) 0.9784(3) 0.8580(2)
O7_2 O 0.0109(3) 0.3588(3) 0.6008(2)
O1_3 O 0.8229(3) 0.5231(3) 0.5480(2)
O4_2 O 0.9891(3) 0.8588(3) 0.8992(2)
C1_3 C 0.8790(4) 0.6091(4) 0.5898(3)
C2_3 C 0.8036(5) 0.6806(4) 0.6380(3)
C3_3 C 0.8715(4) 0.7510(4) 0.7159(3)
C4_3 C 0.6681(5) 0.6777(4) 0.6042(3)
H1_3 H 0.9639 0.7514 0.7401
C5_3 C 0.8037(4) 0.8203(4) 0.7581(3)
C6_3 C 0.6017(4) 0.7478(4) 0.6473(3)
H2_3 H 0.6216 0.6288 0.5526
C7_3 C 0.6680(5) 0.8206(4) 0.7219(4)
C8_3 C 0.8772(4) 0.8922(4) 0.8448(3)
N2_3 N 0.4608(3) 0.7457(3) 0.6121(3)
H3_3 H 0.6214 0.8702 0.7480
C9_3 C 0.3820(5) 0.6570(4) 0.5950(3)
C10_3 C 0.3781(5) 0.8344(4) 0.5920(4)
H4_3 H 0.4111 0.5832 0.6038
H5_3 H 0.4056 0.9087 0.5989
N3_3 N 0.2559(4) 0.8026(3) 0.5621(3)
O1_4 O 0.1771(3) 0.0231(3) 0.9520(2)
C1_4 C 0.1210(4) 0.1091(4) 0.9102(3)
C2_4 C 0.1964(5) 0.1806(4) 0.8620(3)
C3_4 C 0.1285(4) 0.2510(4) 0.7841(3)
C4_4 C 0.3319(5) 0.1777(4) 0.8958(3)
H1_4 H 0.0361 0.2514 0.7599
C5_4 C 0.1963(4) 0.3203(4) 0.7419(3)
C6_4 C 0.3983(4) 0.2478(4) 0.8527(3)
H2_4 H 0.3784 0.1288 0.9474
C7_4 C 0.3320(5) 0.3206(4) 0.7781(4)
C8_4 C 0.1228(4) 0.3922(4) 0.6552(3)
N2_4 N 0.5392(3) 0.2457(3) 0.8879(3)
H3_4 H 0.3786 0.3702 0.7520
C9_4 C 0.6180(5) 0.1570(4) 0.9050(3)
C10_4 C 0.6219(5) 0.3344(4) 0.9080(4)
H4_4 H 0.5889 0.0832 0.8962
H5_4 H 0.5944 0.4087 0.9011
N3_4 N 0.7441(4) 0.3026(3) 0.9379(3)
loop_
_geom_bond_atom_site_label_1
_geom_bond_atom_site_label_2
_geom_bond_site_symmetry_1
_geom_bond_site_symmetry_2
Cu1 O1 1_555 1_555
O1 C1 1_555 1_555
N1 C9 1_555 1_555
O2 C1 1_555 1_555
O3 C8 1_555 1_555
O4 C8 1_555 1_555
C1 C2 1_555 1_555
C2 C3 1_555 1_555
C3 H1 1_555 1_555
C4 C2 1_555 1_555
C5 C3 1_555 1_555
C6 C4 1_555 1_555
H2 C4 1_555 1_555
C7 C5 1_555 1_555
C8 C5 1_555 1_555
N2 C6 1_555 1_555
H3 C7 1_555 1_555
C9 N2 1_555 1_555
C10 N2 1_555 1_555
H4 C9 1_555 1_555
H5 C10 1_555 1_555
N3 N1 1_555 1_555
Cu4 N1 1_555 1_555
N4 Cu1 1_555 1_555
O6 Cu1 1_555 1_555
C6 C7 1_555 1_555
C10 N3 1_555 1_555
N4_2 Cu2 1_555 1_555
O1_2 C1_2 1_555 1_555
N1_2 C9_2 1_555 1_555
O2_2 C1_2 1_555 1_555
O3_2 C8_2 1_555 1_555
O7 C8_2 1_555 1_555
C1_2 C2_2 1_555 1_555
C2_2 C3_2 1_555 1_555
C3_2 H1_2 1_555 1_555
C4_2 C2_2 1_555 1_555
C5_2 C3_2 1_555 1_555
C6_2 C4_2 1_555 1_555
H2_2 C4_2 1_555 1_555
C7_2 C5_2 1_555 1_555
C8_2 C5_2 1_555 1_555
N2_2 C6_2 1_555 1_555
H3_2 C7_2 1_555 1_555
C9_2 N2_2 1_555 1_555
C10_2 N2_2 1_555 1_555
H4_2 C9_2 1_555 1_555
H5_2 C10_2 1_555 1_555
N3_2 N1_2 1_555 1_555
Cu5 N1_2 1_555 1_555
Cu4 O3_2 1_555 1_555
C6_2 C7_2 1_555 1_555
C10_2 N3_2 1_555 1_555
Cu4 O1_3 1_555 1_555
O1_3 C1_3 1_555 1_555
N4 C9_3 1_555 1_555
O5 C1_3 1_555 1_555
O6_2 C8_3 1_555 1_555
O4_2 C8_3 1_555 1_555
C1_3 C2_3 1_555 1_555
C2_3 C3_3 1_555 1_555
C3_3 H1_3 1_555 1_555
C4_3 C2_3 1_555 1_555
C5_3 C3_3 1_555 1_555
C6_3 C4_3 1_555 1_555
H2_3 C4_3 1_555 1_555
C7_3 C5_3 1_555 1_555
C8_3 C5_3 1_555 1_555
N2_3 C6_3 1_555 1_555
H3_3 C7_3 1_555 1_555
C9_3 N2_3 1_555 1_555
C10_3 N2_3 1_555 1_555
H4_3 C9_3 1_555 1_555
H5_3 C10_3 1_555 1_555
N3_3 N4 1_555 1_555
C6_3 C7_3 1_555 1_555
C10_3 N3_3 1_555 1_555
O1_4 C1_4 1_555 1_555
N4_2 C9_4 1_555 1_555
O5_2 C1_4 1_555 1_555
O6 C8_4 1_555 1_555
O7_2 C8_4 1_555 1_555
C1_4 C2_4 1_555 1_555
C2_4 C3_4 1_555 1_555
C3_4 H1_4 1_555 1_555
C4_4 C2_4 1_555 1_555
C5_4 C3_4 1_555 1_555
C6_4 C4_4 1_555 1_555
H2_4 C4_4 1_555 1_555
C7_4 C5_4 1_555 1_555
C8_4 C5_4 1_555 1_555
N2_4 C6_4 1_555 1_555
H3_4 C7_4 1_555 1_555
C9_4 N2_4 1_555 1_555
C10_4 N2_4 1_555 1_555
H4_4 C9_4 1_555 1_555
H5_4 C10_4 1_555 1_555
N3_4 N4_2 1_555 1_555
C6_4 C7_4 1_555 1_555
C10_4 N3_4 1_555 1_555

#END
