
###############################################################################
#
# This file contains modified crystal structure data generated from the
# MOF subset of the Cambridge Structural Database (CSD) v543 
# hosted by the Cambridge Crystallographic Data Centre (CCDC).
#
# This work is licensed under the Creative Commons
# Attribution-NonCommercial-ShareAlike 4.0 International License.
# To view a copy of this license, visit
# http://creativecommons.org/licenses/by-nc-sa/4.0/
# or send a letter to
# Creative Commons, PO Box 1866, Mountain View, CA 94042, USA.
#
# CIF created using the CSD Python API on 29 September 2022
# The structure has been converted into the P1 space group
# The structure has a 3D framework
# The original CSD entry OHAKEO01 is in the orthorhombic crystal system
# The framework has been calculated to contain at least 10.0% void space
# The void calculation uses a probe of radius 1.32A, grid spacing 0.4
#
###############################################################################

data_OHAKEO01
_chemical_formula_moiety         '(C80 H60 Cd4 N16 O16)n'
_symmetry_cell_setting           triclinic
_symmetry_space_group_name_H-M   'P 1'
_symmetry_Int_Tables_number      1
_space_group_name_Hall           'P 1'
loop_
_symmetry_equiv_pos_site_id
_symmetry_equiv_pos_as_xyz
1 x,y,z
_cell_length_a                   8.214(4)
_cell_length_b                   17.985(9)
_cell_length_c                   18.935(9)
_cell_angle_alpha                90
_cell_angle_beta                 90
_cell_angle_gamma                90
_cell_volume                     2797.24
loop_
_atom_site_label
_atom_site_type_symbol
_atom_site_fract_x
_atom_site_fract_y
_atom_site_fract_z
N3 N 0.2559(3) 0.66323(15) 0.93737(15)
C1 C 0.4828(4) 0.7081(2) 0.8949(2)
H1 H 0.5816(4) 0.7136(2) 0.8693(2)
C16 C 0.1231(4) 0.61480(19) 0.95339(17)
C17 C 0.1531(4) 0.54063(19) 0.96396(18)
H11 H 0.2609(4) 0.52172(19) 0.96090(18)
C18 C 0.0230(4) 0.4932(2) 0.97931(17)
H12 H 0.0425(4) 0.4418(2) 0.98700(17)
C19 C 0.3847(4) 0.6483(2) 0.89227(19)
H13 H 0.4006(4) 0.6045(2) 0.86498(19)
N4 N 0.4181(3) 0.76054(14) 0.94051(15)
C20 C 0.2822(4) 0.73177(19) 0.96507(16)
H14 H 0.2120(4) 0.75574(19) 0.99779(16)
Cd2 Cd 0.51223(2) 0.872981(13) 0.972718(10)
O3 O 0.4114(3) 0.99462(14) 0.98926(14)
O4 O 0.2414(3) 0.90048(13) 0.99857(14)
O5 O 0.7842(3) 0.84908(13) 0.94242(12)
O6 O 0.6267(3) 0.90503(13) 0.86373(12)
H5 H 0.9999(4) 0.9314(2) 0.67062(18)
C7 C 0.8850(4) 0.91090(18) 0.76407(18)
H6 H 0.7832(4) 0.93139(18) 0.75036(18)
C8 C 0.9025(3) 0.8809(2) 0.83188(15)
C11 C 0.7631(3) 0.8787(2) 0.88244(15)
Cd1 Cd 0.48777(2) 0.372981(13) 0.027282(10)
O3_2 O 0.5886(3) 0.49462(14) 0.01074(14)
O4_2 O 0.7586(3) 0.40048(13) 0.00143(14)
O5_2 O 0.2158(3) 0.34908(13) 0.05758(12)
O6_2 O 0.3733(3) 0.40503(13) 0.13627(12)
N5 N 0.5819(3) 0.26054(14) 0.05949(15)
N3_2 N 0.7441(3) 0.16323(15) 0.06263(15)
C1_2 C 0.5172(4) 0.2081(2) 0.1051(2)
H1_2 H 0.4184(4) 0.2136(2) 0.1307(2)
C16_2 C 0.8769(4) 0.11480(19) 0.04661(17)
C17_2 C 0.8469(4) 0.04063(19) 0.03604(18)
H11_2 H 0.7391(4) 0.02172(19) 0.03910(18)
C19_2 C 0.6153(4) 0.1483(2) 0.10773(19)
H13_2 H 0.5994(4) 0.1045(2) 0.13502(19)
C20_2 C 0.7178(4) 0.23177(19) 0.03493(16)
H14_2 H 0.7880(4) 0.25574(19) 0.00221(16)
H5_2 H 0.0001(4) 0.4314(2) 0.32938(18)
C7_2 C 0.1150(4) 0.41090(18) 0.23593(18)
H6_2 H 0.2168(4) 0.43139(18) 0.24964(18)
C8_2 C 0.0975(3) 0.3809(2) 0.16812(15)
C11_2 C 0.2369(3) 0.3787(2) 0.11756(15)
N1 N 0.4267(3) 0.36596(19) 0.91162(12)
N2 N 0.2929(3) 0.37933(18) 0.81146(12)
C2 C 0.2806(3) 0.3653(2) 0.88146(15)
H2 H 0.1813(3) 0.3562(2) 0.90569(15)
C3 C 0.5364(3) 0.3789(3) 0.85734(16)
H3 H 0.6512(3) 0.3821(3) 0.86273(16)
C4 C 0.4551(4) 0.3863(2) 0.79538(17)
H4 H 0.5012(4) 0.3947(2) 0.75003(17)
C5 C 0.1617(3) 0.3817(2) 0.76219(16)
C6 C 0.0131(4) 0.4113(2) 0.78333(18)
H5_3 H -0.0001(4) 0.4314(2) 0.82938(18)
C9 C 0.0542(4) 0.35419(18) 0.64789(17)
H7 H 0.0691(4) 0.33567(18) 0.60134(17)
C10 C 0.1838(4) 0.35417(17) 0.69441(17)
H8 H 0.2869(4) 0.33553(17) 0.68014(17)
C12 C 0.7285(4) 0.4690(2) 0.99960(17)
C13 C 0.8658(4) 0.52086(19) 0.98336(17)
C14 C 0.8381(4) 0.5965(2) 0.97284(17)
H9 H 0.7305(4) 0.6155(2) 0.97619(17)
C15 C 0.9661(4) 0.6445(2) 0.95749(19)
H10 H 0.9473(4) 0.6960(2) 0.95000(19)
O1 O 0.7842(3) 0.34908(13) 0.55758(12)
O2 O 0.6267(3) 0.40503(13) 0.63627(12)
H5_4 H 0.9999(4) 0.4314(2) 0.82938(18)
C7_3 C 0.8850(4) 0.41090(18) 0.73593(18)
H6_3 H 0.7832(4) 0.43139(18) 0.74964(18)
C8_3 C 0.9025(3) 0.3809(2) 0.66812(15)
C11_3 C 0.7631(3) 0.3787(2) 0.61756(15)
Cd3 Cd 0.51223(2) 0.372981(13) 0.527282(10)
O3_3 O 0.4114(3) 0.49462(14) 0.51074(14)
O4_3 O 0.2414(3) 0.40048(13) 0.50143(14)
N1_2 N 0.5733(3) 0.36596(19) 0.41162(12)
N2_2 N 0.7071(3) 0.37933(18) 0.31146(12)
C2_2 C 0.7194(3) 0.3653(2) 0.38146(15)
H2_2 H 0.8187(3) 0.3562(2) 0.40569(15)
C3_2 C 0.4636(3) 0.3789(3) 0.35734(16)
H3_2 H 0.3488(3) 0.3821(3) 0.36273(16)
C4_2 C 0.5449(4) 0.3863(2) 0.29538(17)
H4_2 H 0.4988(4) 0.3947(2) 0.25003(17)
C5_2 C 0.8383(3) 0.3817(2) 0.26219(16)
C6_2 C 0.9869(4) 0.4113(2) 0.28333(18)
H5_5 H 1.0001(4) 0.4314(2) 0.32938(18)
C9_2 C 0.9458(4) 0.35419(18) 0.14789(17)
H7_2 H 0.9309(4) 0.33567(18) 0.10134(17)
C10_2 C 0.8162(4) 0.35417(17) 0.19441(17)
H8_2 H 0.7131(4) 0.33553(17) 0.18014(17)
C12_2 C 0.2715(4) 0.4690(2) 0.49960(17)
C13_2 C 0.1342(4) 0.52086(19) 0.48336(17)
C14_2 C 0.1619(4) 0.5965(2) 0.47284(17)
H9_2 H 0.2695(4) 0.6155(2) 0.47619(17)
C15_2 C 0.0339(4) 0.6445(2) 0.45749(19)
H10_2 H 0.0527(4) 0.6960(2) 0.45000(19)
N5_2 N 0.4181(3) 0.26054(14) 0.55949(15)
N3_3 N 0.2559(3) 0.16323(15) 0.56263(15)
C1_3 C 0.4828(4) 0.2081(2) 0.6051(2)
H1_3 H 0.5816(4) 0.2136(2) 0.6307(2)
C16_3 C 0.1231(4) 0.11480(19) 0.54661(17)
C17_3 C 0.1531(4) 0.04063(19) 0.53604(18)
H11_3 H 0.2609(4) 0.02172(19) 0.53910(18)
C19_3 C 0.3847(4) 0.1483(2) 0.60773(19)
H13_3 H 0.4006(4) 0.1045(2) 0.63502(19)
C20_3 C 0.2822(4) 0.23177(19) 0.53493(16)
H14_3 H 0.2120(4) 0.25574(19) 0.50221(16)
O1_2 O 0.2158(3) 0.84908(13) 0.44242(12)
O2_2 O 0.3733(3) 0.90503(13) 0.36373(12)
H5_6 H 0.0001(4) 0.9314(2) 0.17062(18)
C7_4 C 0.1150(4) 0.91090(18) 0.26407(18)
H6_4 H 0.2168(4) 0.93139(18) 0.25036(18)
C8_4 C 0.0975(3) 0.8809(2) 0.33188(15)
C11_4 C 0.2369(3) 0.8787(2) 0.38244(15)
Cd3_2 Cd 0.48777(2) 0.872981(13) 0.472718(10)
N3_4 N 0.7441(3) 0.66323(15) 0.43737(15)
C1_4 C 0.5172(4) 0.7081(2) 0.3949(2)
H1_4 H 0.4184(4) 0.7136(2) 0.3693(2)
C16_4 C 0.8769(4) 0.61480(19) 0.45339(17)
C17_4 C 0.8469(4) 0.54063(19) 0.46396(18)
H11_4 H 0.7391(4) 0.52172(19) 0.46090(18)
C18_2 C 0.9770(4) 0.4932(2) 0.47931(17)
H12_2 H 0.9575(4) 0.4418(2) 0.48700(17)
C19_4 C 0.6153(4) 0.6483(2) 0.39227(19)
H13_4 H 0.5994(4) 0.6045(2) 0.36498(19)
N4_2 N 0.5819(3) 0.76054(14) 0.44051(15)
C20_4 C 0.7178(4) 0.73177(19) 0.46507(16)
H14_4 H 0.7880(4) 0.75574(19) 0.49779(16)
O3_4 O 0.5886(3) 0.99462(14) 0.48926(14)
O4_4 O 0.7586(3) 0.90048(13) 0.49857(14)
N1_3 N 0.4267(3) 0.86596(19) 0.58838(12)
N2_3 N 0.2929(3) 0.87933(18) 0.68854(12)
C2_3 C 0.2806(3) 0.8653(2) 0.61854(15)
H2_3 H 0.1813(3) 0.8562(2) 0.59431(15)
C3_3 C 0.5364(3) 0.8789(3) 0.64266(16)
H3_3 H 0.6512(3) 0.8821(3) 0.63727(16)
C4_3 C 0.4551(4) 0.8863(2) 0.70462(17)
H4_3 H 0.5012(4) 0.8947(2) 0.74997(17)
C5_3 C 0.1617(3) 0.8817(2) 0.73781(16)
C6_3 C 0.0131(4) 0.9113(2) 0.71667(18)
H5_7 H -0.0001(4) 0.9314(2) 0.67062(18)
C9_3 C 0.0542(4) 0.85419(18) 0.85211(17)
H7_3 H 0.0691(4) 0.83567(18) 0.89866(17)
C10_3 C 0.1838(4) 0.85417(17) 0.80559(17)
H8_3 H 0.2869(4) 0.83553(17) 0.81986(17)
C12_3 C 0.7285(4) 0.9690(2) 0.50040(17)
C13_3 C 0.1342(4) 0.02086(19) 0.01664(17)
C14_3 C 0.1619(4) 0.0965(2) 0.02716(17)
H9_3 H 0.2695(4) 0.1155(2) 0.02381(17)
C15_3 C 0.0339(4) 0.1445(2) 0.04251(19)
H10_3 H 0.0527(4) 0.1960(2) 0.05000(19)
N1_4 N 0.5733(3) 0.86596(19) 0.08838(12)
N2_4 N 0.7071(3) 0.87933(18) 0.18854(12)
C2_4 C 0.7194(3) 0.8653(2) 0.11854(15)
H2_4 H 0.8187(3) 0.8562(2) 0.09431(15)
C3_4 C 0.4636(3) 0.8789(3) 0.14266(16)
H3_4 H 0.3488(3) 0.8821(3) 0.13727(16)
C4_4 C 0.5449(4) 0.8863(2) 0.20462(17)
H4_4 H 0.4988(4) 0.8947(2) 0.24997(17)
C5_4 C 0.8383(3) 0.8817(2) 0.23781(16)
C6_4 C 0.9869(4) 0.9113(2) 0.21667(18)
H5_8 H 1.0001(4) 0.9314(2) 0.17062(18)
C9_4 C 0.9458(4) 0.85419(18) 0.35211(17)
H7_4 H 0.9309(4) 0.83567(18) 0.39866(17)
C10_4 C 0.8162(4) 0.85417(17) 0.30559(17)
H8_4 H 0.7131(4) 0.83553(17) 0.31986(17)
C12_4 C 0.2715(4) 0.9690(2) 0.00040(17)
C18_3 C 0.9770(4) 0.9932(2) 0.02069(17)
H12_3 H 0.9575(4) 0.9418(2) 0.01300(17)
C18_4 C 0.0230(4) 0.9932(2) 0.52069(17)
H12_4 H 0.0425(4) 0.9418(2) 0.51300(17)
C13_4 C 0.8658(4) 0.02086(19) 0.51664(17)
C14_4 C 0.8381(4) 0.0965(2) 0.52716(17)
H9_4 H 0.7305(4) 0.1155(2) 0.52381(17)
C15_4 C 0.9661(4) 0.1445(2) 0.54251(19)
H10_4 H 0.9473(4) 0.1960(2) 0.55000(19)
loop_
_geom_bond_atom_site_label_1
_geom_bond_atom_site_label_2
_geom_bond_site_symmetry_1
_geom_bond_site_symmetry_2
N3 C16 1_555 1_555
C1 H1 1_555 1_555
C17 C16 1_555 1_555
H11 C17 1_555 1_555
H12 C18 1_555 1_555
C19 N3 1_555 1_555
H13 C19 1_555 1_555
N4 C1 1_555 1_555
C20 N3 1_555 1_555
H14 C20 1_555 1_555
Cd2 N4 1_555 1_555
C1 C19 1_555 1_555
C17 C18 1_555 1_555
N4 C20 1_555 1_555
Cd2 O3 1_555 1_555
O4 Cd2 1_555 1_555
O5 Cd2 1_555 1_555
O6 Cd2 1_555 1_555
O5 C11 1_555 1_555
O6 C11 1_555 1_555
H6 C7 1_555 1_555
C8 C7 1_555 1_555
C11 C8 1_555 1_555
Cd1 O3_2 1_555 1_555
O4_2 Cd1 1_555 1_555
O5_2 Cd1 1_555 1_555
O6_2 Cd1 1_555 1_555
N5 Cd1 1_555 1_555
N3_2 C16_2 1_555 1_555
C1_2 H1_2 1_555 1_555
C17_2 C16_2 1_555 1_555
H11_2 C17_2 1_555 1_555
C19_2 N3_2 1_555 1_555
H13_2 C19_2 1_555 1_555
N5 C1_2 1_555 1_555
C20_2 N3_2 1_555 1_555
H14_2 C20_2 1_555 1_555
C1_2 C19_2 1_555 1_555
N5 C20_2 1_555 1_555
O5_2 C11_2 1_555 1_555
O6_2 C11_2 1_555 1_555
H6_2 C7_2 1_555 1_555
C8_2 C7_2 1_555 1_555
C11_2 C8_2 1_555 1_555
N2 C2 1_555 1_555
C2 N1 1_555 1_555
H2 C2 1_555 1_555
C3 N1 1_555 1_555
H3 C3 1_555 1_555
C4 N2 1_555 1_555
H4 C4 1_555 1_555
C5 N2 1_555 1_555
C6 C5 1_555 1_555
H5_3 C6 1_555 1_555
H7 C9 1_555 1_555
C10 C5 1_555 1_555
H8 C10 1_555 1_555
C13 C12 1_555 1_555
C14 C13 1_555 1_555
H9 C14 1_555 1_555
C15 C14 1_555 1_555
H10 C15 1_555 1_555
C3 C4 1_555 1_555
C9 C10 1_555 1_555
O1 C11_3 1_555 1_555
O2 C11_3 1_555 1_555
H6_3 C7_3 1_555 1_555
C8_3 C7_3 1_555 1_555
C11_3 C8_3 1_555 1_555
Cd3 O1 1_555 1_555
O2 Cd3 1_555 1_555
Cd3 O3_3 1_555 1_555
O3_3 C12_2 1_555 1_555
O4_3 Cd3 1_555 1_555
N1_2 Cd3 1_555 1_555
N2_2 C2_2 1_555 1_555
C2_2 N1_2 1_555 1_555
H2_2 C2_2 1_555 1_555
C3_2 N1_2 1_555 1_555
H3_2 C3_2 1_555 1_555
C4_2 N2_2 1_555 1_555
H4_2 C4_2 1_555 1_555
C5_2 N2_2 1_555 1_555
C6_2 C5_2 1_555 1_555
H5_5 C6_2 1_555 1_555
H7_2 C9_2 1_555 1_555
C10_2 C5_2 1_555 1_555
H8_2 C10_2 1_555 1_555
C12_2 O4_3 1_555 1_555
C13_2 C12_2 1_555 1_555
C14_2 C13_2 1_555 1_555
H9_2 C14_2 1_555 1_555
C15_2 C14_2 1_555 1_555
H10_2 C15_2 1_555 1_555
N5_2 Cd3 1_555 1_555
C3_2 C4_2 1_555 1_555
C9_2 C10_2 1_555 1_555
N3_3 C16_3 1_555 1_555
C1_3 H1_3 1_555 1_555
C17_3 C16_3 1_555 1_555
H11_3 C17_3 1_555 1_555
C19_3 N3_3 1_555 1_555
H13_3 C19_3 1_555 1_555
N5_2 C1_3 1_555 1_555
C20_3 N3_3 1_555 1_555
H14_3 C20_3 1_555 1_555
C1_3 C19_3 1_555 1_555
N5_2 C20_3 1_555 1_555
O1_2 C11_4 1_555 1_555
O2_2 C11_4 1_555 1_555
H6_4 C7_4 1_555 1_555
C8_4 C7_4 1_555 1_555
C11_4 C8_4 1_555 1_555
Cd3_2 O1_2 1_555 1_555
O2_2 Cd3_2 1_555 1_555
N3_4 C16_4 1_555 1_555
C1_4 H1_4 1_555 1_555
C17_4 C16_4 1_555 1_555
H11_4 C17_4 1_555 1_555
H12_2 C18_2 1_555 1_555
C19_4 N3_4 1_555 1_555
H13_4 C19_4 1_555 1_555
N4_2 C1_4 1_555 1_555
C20_4 N3_4 1_555 1_555
H14_4 C20_4 1_555 1_555
Cd3_2 N4_2 1_555 1_555
C1_4 C19_4 1_555 1_555
C17_4 C18_2 1_555 1_555
N4_2 C20_4 1_555 1_555
Cd3_2 O3_4 1_555 1_555
O3_4 C12_3 1_555 1_555
O4_4 Cd3_2 1_555 1_555
N1_3 Cd3_2 1_555 1_555
N2_3 C2_3 1_555 1_555
C2_3 N1_3 1_555 1_555
H2_3 C2_3 1_555 1_555
C3_3 N1_3 1_555 1_555
H3_3 C3_3 1_555 1_555
C4_3 N2_3 1_555 1_555
H4_3 C4_3 1_555 1_555
C5_3 N2_3 1_555 1_555
C6_3 C5_3 1_555 1_555
H5_7 C6_3 1_555 1_555
H7_3 C9_3 1_555 1_555
C10_3 C5_3 1_555 1_555
H8_3 C10_3 1_555 1_555
C12_3 O4_4 1_555 1_555
C3_3 C4_3 1_555 1_555
C9_3 C10_3 1_555 1_555
C14_3 C13_3 1_555 1_555
H9_3 C14_3 1_555 1_555
C15_3 C14_3 1_555 1_555
H10_3 C15_3 1_555 1_555
N2_4 C2_4 1_555 1_555
C2_4 N1_4 1_555 1_555
H2_4 C2_4 1_555 1_555
C3_4 N1_4 1_555 1_555
H3_4 C3_4 1_555 1_555
C4_4 N2_4 1_555 1_555
H4_4 C4_4 1_555 1_555
C5_4 N2_4 1_555 1_555
C6_4 C5_4 1_555 1_555
H5_8 C6_4 1_555 1_555
H7_4 C9_4 1_555 1_555
C10_4 C5_4 1_555 1_555
H8_4 C10_4 1_555 1_555
C3_4 C4_4 1_555 1_555
C9_4 C10_4 1_555 1_555
H12_3 C18_3 1_555 1_555
H12_4 C18_4 1_555 1_555
C14_4 C13_4 1_555 1_555
H9_4 C14_4 1_555 1_555
C15_4 C14_4 1_555 1_555
H10_4 C15_4 1_555 1_555

#END
