
###############################################################################
#
# This file contains modified crystal structure data generated from the
# MOF subset of the Cambridge Structural Database (CSD) v543 
# hosted by the Cambridge Crystallographic Data Centre (CCDC).
#
# This work is licensed under the Creative Commons
# Attribution-NonCommercial-ShareAlike 4.0 International License.
# To view a copy of this license, visit
# http://creativecommons.org/licenses/by-nc-sa/4.0/
# or send a letter to
# Creative Commons, PO Box 1866, Mountain View, CA 94042, USA.
#
# CIF created using the CSD Python API on 29 September 2022
# The structure has been converted into the P1 space group
# The structure has a 3D framework
# The original CSD entry OHASUM is in the triclinic crystal system
# The framework has been calculated to contain at least 10.0% void space
# The void calculation uses a probe of radius 1.32A, grid spacing 0.4
# H atom positions have been added when not included in the experimental data
# Generated hydrogen atom positions removed from atoms on special positions
#
###############################################################################

data_OHASUM
_chemical_formula_moiety         '(C28 H28 Mn5 N4 O23 P4)n'
_symmetry_cell_setting           triclinic
_symmetry_space_group_name_H-M   'P 1'
_symmetry_Int_Tables_number      1
_space_group_name_Hall           'P 1'
loop_
_symmetry_equiv_pos_site_id
_symmetry_equiv_pos_as_xyz
1 x,y,z
_cell_length_a                   8.652(3)
_cell_length_b                   10.293(3)
_cell_length_c                   14.164(4)
_cell_angle_alpha                106.843(3)
_cell_angle_beta                 97.861(2)
_cell_angle_gamma                100.576(3)
_cell_volume                     1162.32
loop_
_atom_site_label
_atom_site_type_symbol
_atom_site_fract_x
_atom_site_fract_y
_atom_site_fract_z
_atom_site_U_iso_or_equiv
_atom_site_thermal_displace_type
Mn9 Mn 0.89976(3) 0.77710(3) 0.397627(18) 0.0124 Uani
N3 N 0.74548(19) 0.6796(2) 0.24247(12) 0.0245 Uani
C19 C 0.5888(3) 0.6536(4) 0.22702(17) 0.0650 Uani
H19 H 0.548(3) 0.684(3) 0.282(2) 0.0730 Uiso
C20 C 0.4883(3) 0.5839(4) 0.13425(17) 0.0664 Uani
H20 H 0.373(4) 0.560(4) 0.128(3) 0.1100 Uiso
C21 C 0.5514(2) 0.5383(2) 0.05075(14) 0.0242 Uani
C22 C 0.7154(3) 0.5706(4) 0.06610(16) 0.0521 Uani
H21 H 0.762(4) 0.543(3) 0.008(2) 0.0820 Uiso
C23 C 0.8071(3) 0.6409(3) 0.16108(16) 0.0483 Uani
H22 H 0.928(4) 0.677(4) 0.174(3) 0.1060 Uiso
Mn2 Mn 0.10024(3) 0.22290(3) 0.602373(18) 0.0124 Uani
N1 N 0.25452(19) 0.3204(2) 0.75753(12) 0.0245 Uani
C5 C 0.4112(3) 0.3464(4) 0.77298(17) 0.0650 Uani
H5 H 0.452(3) 0.316(3) 0.718(2) 0.0730 Uiso
C6 C 0.5117(3) 0.4161(4) 0.86575(17) 0.0664 Uani
H6 H 0.627(4) 0.440(4) 0.872(3) 0.1100 Uiso
C7 C 0.4486(2) 0.4617(2) 0.94925(14) 0.0242 Uani
C8 C 0.2846(3) 0.4294(4) 0.93390(16) 0.0521 Uani
H7 H 0.238(4) 0.457(3) 0.992(2) 0.0820 Uiso
C9 C 0.1929(3) 0.3591(3) 0.83892(16) 0.0483 Uani
H8 H 0.072(4) 0.323(4) 0.826(3) 0.1060 Uiso
Mn12 Mn 0.10192(3) 0.72645(3) 0.602179(18) 0.0125 Uani
O15 O 0.10539(14) 0.38231(13) 0.53176(9) 0.0139 Uani
O20 O 0.06388(15) 0.40825(14) 0.33598(9) 0.0156 Uani
O24 O 0.07761(15) 0.15877(13) 0.32291(9) 0.0155 Uani
O29 O 0.27678(14) 0.12174(13) 0.54162(9) 0.0136 Uani
Mn1 Mn 0.50234(3) 0.24997(3) 0.492470(19) 0.0151 Uani
Mn3 Mn 0.89808(3) 0.27355(3) 0.397821(18) 0.0125 Uani
P1 P 0.73986(5) 0.54011(5) 0.48886(3) 0.0104 Uani
P2 P 0.73716(5) 0.03582(5) 0.48653(3) 0.0103 Uani
O1 O 0.59395(14) 0.58016(13) 0.44555(9) 0.0154 Uani
O2 O 0.89461(14) 0.61769(13) 0.46824(9) 0.0139 Uani
O3 O 0.72487(14) 0.38212(13) 0.45668(9) 0.0133 Uani
O4 O 0.93612(15) 0.59175(14) 0.66402(9) 0.0156 Uani
O5 O 0.65479(15) 0.79968(14) 0.65236(9) 0.0178 Uani
O6 O 0.92239(15) 0.84123(13) 0.67709(9) 0.0155 Uani
O7 O 0.59262(14) 0.07457(13) 0.43999(9) 0.0152 Uani
O9 O 0.89344(14) 0.11223(13) 0.46622(9) 0.0145 Uani
O10 O 0.92907(15) 0.09047(15) 0.66322(9) 0.0154 Uani
H2 H 0.920(3) 0.004(3) 0.6613(19) 0.0360 Uiso
O11 O 0.65411(15) 0.30023(14) 0.64048(9) 0.0171 Uani
O12 O 0.92134(14) 0.34011(13) 0.67421(9) 0.0161 Uani
N2 N 0.7272(2) 0.16492(19) 0.24958(12) 0.0237 Uani
C1 C 0.7786(2) 0.60596(19) 0.62770(12) 0.0124 Uani
H3 H 0.700(2) 0.563(2) 0.6529(15) 0.0140 Uiso
C2 C 0.7841(2) 0.76104(19) 0.65623(12) 0.0127 Uani
C3 C 0.7732(2) 0.10578(19) 0.62496(12) 0.0119 Uani
H4 H 0.686(2) 0.065(2) 0.6504(14) 0.0110 Uiso
C4 C 0.7824(2) 0.26076(19) 0.65058(12) 0.0119 Uani
C10 C 0.6411(4) 0.2314(3) 0.20321(19) 0.0524 Uani
H9 H 0.639(4) 0.326(4) 0.242(2) 0.0820 Uiso
C11 C 0.5524(4) 0.1708(3) 0.1064(2) 0.0598 Uani
H10 H 0.494(4) 0.227(3) 0.080(2) 0.0710 Uiso
C12 C 0.5464(3) 0.0343(2) 0.05270(14) 0.0268 Uani
C14 C 0.7201(3) 0.0335(3) 0.19900(18) 0.0436 Uani
Mn4 Mn 0.49766(3) 0.75003(3) 0.507530(19) 0.0151 Uani
P3 P 0.26014(5) 0.45989(5) 0.51114(3) 0.0104 Uani
O13 O 0.40605(14) 0.41984(13) 0.55445(9) 0.0154 Uani
O18 O 0.27513(14) 0.61788(13) 0.54332(9) 0.0133 Uani
O22 O 0.34521(15) 0.20032(14) 0.34764(9) 0.0178 Uani
O27 O 0.40738(14) 0.92543(13) 0.56001(9) 0.0152 Uani
O30 O 0.72322(14) 0.87826(13) 0.45838(9) 0.0136 Uani
O33 O 0.10656(14) 0.88777(13) 0.53378(9) 0.0145 Uani
O36 O 0.34589(15) 0.69977(14) 0.35952(9) 0.0171 Uani
N6 N 0.2728(2) 0.83508(19) 0.75042(12) 0.0237 Uani
C15 C 0.2214(2) 0.39404(19) 0.37230(12) 0.0124 Uani
H17 H 0.300(2) 0.437(2) 0.3471(15) 0.0140 Uiso
C16 C 0.2159(2) 0.23896(19) 0.34377(12) 0.0127 Uani
C27 C 0.3674(3) 0.0347(3) 0.89785(18) 0.0453 Uani
H25 H 0.366(3) 0.129(3) 0.933(2) 0.0660 Uiso
H26 H 0.209(3) 0.019(3) 0.7702(19) 0.0590 Uiso
C13 C 0.6326(3) 0.9653(3) 0.10215(18) 0.0453 Uani
H11 H 0.634(3) 0.871(3) 0.067(2) 0.0660 Uiso
H12 H 0.791(3) 0.981(3) 0.2298(19) 0.0590 Uiso
P4 P 0.26284(5) 0.96418(5) 0.51347(3) 0.0103 Uani
O34 O 0.07093(15) 0.90953(15) 0.33678(9) 0.0154 Uani
H16 H 0.080(3) 0.996(3) 0.3387(19) 0.0360 Uiso
O37 O 0.07866(14) 0.65989(13) 0.32579(9) 0.0161 Uani
C17 C 0.2268(2) 0.89422(19) 0.37504(12) 0.0119 Uani
H18 H 0.314(2) 0.935(2) 0.3496(14) 0.0110 Uiso
C18 C 0.2176(2) 0.73924(19) 0.34942(12) 0.0119 Uani
C24 C 0.3589(4) 0.7686(3) 0.79679(19) 0.0524 Uani
H23 H 0.361(4) 0.674(4) 0.758(2) 0.0820 Uiso
C25 C 0.4476(4) 0.8292(3) 0.8936(2) 0.0598 Uani
H24 H 0.506(4) 0.773(3) 0.920(2) 0.0710 Uiso
C26 C 0.4536(3) 0.9657(2) 0.94730(14) 0.0268 Uani
C28 C 0.2799(3) 0.9665(3) 0.80100(18) 0.0436 Uani
loop_
_atom_site_aniso_label
_atom_site_aniso_U_11
_atom_site_aniso_U_22
_atom_site_aniso_U_33
_atom_site_aniso_U_23
_atom_site_aniso_U_13
_atom_site_aniso_U_12
Mn9 0.01002 0.01285 0.01388 0.00393 0.00104 0.00315
N3 0.016 0.0363 0.0157 0.0023 -0.0007 0.0056
C19 0.0168 0.132 0.0195 -0.0101 0.0038 0.0082
C20 0.0146 0.132 0.023 -0.0095 0.0021 0.0025
C21 0.0172 0.0326 0.017 0.0026 -0.0012 0.0041
C22 0.0212 0.098 0.0187 -0.0045 0.0021 0.0081
C23 0.0179 0.088 0.021 -0.0024 -0.0007 0.0044
Mn2 0.01002 0.01285 0.01388 0.00393 0.00104 0.00315
N1 0.016 0.0363 0.0157 0.0023 -0.0007 0.0056
C5 0.0168 0.132 0.0195 -0.0101 0.0038 0.0082
C6 0.0146 0.132 0.023 -0.0095 0.0021 0.0025
C7 0.0172 0.0326 0.017 0.0026 -0.0012 0.0041
C8 0.0212 0.098 0.0187 -0.0045 0.0021 0.0081
C9 0.0179 0.088 0.021 -0.0024 -0.0007 0.0044
Mn12 0.0102 0.01251 0.01404 0.0039 0.00079 0.00288
O15 0.0105 0.0128 0.0181 0.0054 0.0034 0.001
O20 0.0136 0.01 0.0224 0.0061 -0.0013 0.003
O24 0.0132 0.0104 0.0224 0.0051 0.0031 0.0021
O29 0.0117 0.0076 0.0207 0.0037 0.0033 0.0018
Mn1 0.01121 0.01195 0.02132 0.00375 0.00056 0.00529
Mn3 0.0102 0.01251 0.01404 0.0039 0.00079 0.00288
P1 0.0091 0.0076 0.014 0.00313 0.00185 0.00158
P2 0.009 0.0077 0.0142 0.00342 0.00213 0.0021
O1 0.0127 0.0124 0.0206 0.0044 0.0018 0.0046
O2 0.0105 0.0128 0.0181 0.0054 0.0034 0.001
O3 0.0121 0.0079 0.0188 0.0031 0.0031 0.0013
O4 0.0136 0.01 0.0224 0.0061 -0.0013 0.003
O5 0.0141 0.0174 0.0204 0.0022 0.0022 0.0071
O6 0.0132 0.0104 0.0224 0.0051 0.0031 0.0021
O7 0.0127 0.0122 0.0201 0.0044 0.0016 0.0044
O9 0.0111 0.0134 0.019 0.006 0.0035 0.0011
O10 0.0128 0.0119 0.0211 0.0067 -0.0009 0.0031
O11 0.0129 0.0171 0.0213 0.0036 0.003 0.008
O12 0.0126 0.0104 0.0242 0.0058 0.0023 0.0008
N2 0.0225 0.0255 0.0177 0.0028 -0.002 0.0037
C1 0.0116 0.0109 0.0151 0.005 0.0026 0.0022
C2 0.0137 0.0133 0.0104 0.0028 0.0019 0.0038
C3 0.0098 0.011 0.0154 0.0048 0.0021 0.0031
C4 0.014 0.0115 0.0106 0.0033 0.003 0.0044
C10 0.069 0.0375 0.0338 -0.0068 -0.0244 0.027
C11 0.087 0.0382 0.0358 -0.0063 -0.0309 0.0315
C12 0.0252 0.0286 0.019 0.0021 -0.0046 0.0035
C14 0.0583 0.0298 0.0317 0.0047 -0.018 0.0117
Mn4 0.01121 0.01195 0.02132 0.00375 0.00056 0.00529
P3 0.0091 0.0076 0.014 0.00313 0.00185 0.00158
O13 0.0127 0.0124 0.0206 0.0044 0.0018 0.0046
O18 0.0121 0.0079 0.0188 0.0031 0.0031 0.0013
O22 0.0141 0.0174 0.0204 0.0022 0.0022 0.0071
O27 0.0127 0.0122 0.0201 0.0044 0.0016 0.0044
O30 0.0117 0.0076 0.0207 0.0037 0.0033 0.0018
O33 0.0111 0.0134 0.019 0.006 0.0035 0.0011
O36 0.0129 0.0171 0.0213 0.0036 0.003 0.008
N6 0.0225 0.0255 0.0177 0.0028 -0.002 0.0037
C15 0.0116 0.0109 0.0151 0.005 0.0026 0.0022
C16 0.0137 0.0133 0.0104 0.0028 0.0019 0.0038
C27 0.0628 0.0257 0.0317 -0.0014 -0.017 0.0094
C13 0.0628 0.0257 0.0317 -0.0014 -0.017 0.0094
P4 0.009 0.0077 0.0142 0.00342 0.00213 0.0021
O34 0.0128 0.0119 0.0211 0.0067 -0.0009 0.0031
O37 0.0126 0.0104 0.0242 0.0058 0.0023 0.0008
C17 0.0098 0.011 0.0154 0.0048 0.0021 0.0031
C18 0.014 0.0115 0.0106 0.0033 0.003 0.0044
C24 0.069 0.0375 0.0338 -0.0068 -0.0244 0.027
C25 0.087 0.0382 0.0358 -0.0063 -0.0309 0.0315
C26 0.0252 0.0286 0.019 0.0021 -0.0046 0.0035
C28 0.0583 0.0298 0.0317 0.0047 -0.018 0.0117
loop_
_geom_bond_atom_site_label_1
_geom_bond_atom_site_label_2
_geom_bond_site_symmetry_1
_geom_bond_site_symmetry_2
Mn9 N3 1_555 1_555
N3 C19 1_555 1_555
C19 H19 1_555 1_555
C20 C19 1_555 1_555
H20 C20 1_555 1_555
C22 C21 1_555 1_555
H21 C22 1_555 1_555
C23 N3 1_555 1_555
H22 C23 1_555 1_555
C20 C21 1_555 1_555
C22 C23 1_555 1_555
N1 Mn2 1_555 1_555
C5 N1 1_555 1_555
H5 C5 1_555 1_555
C6 C5 1_555 1_555
H6 C6 1_555 1_555
C7 C6 1_555 1_555
C8 C7 1_555 1_555
H7 C8 1_555 1_555
C9 N1 1_555 1_555
H8 C9 1_555 1_555
O15 Mn2 1_555 1_555
O29 Mn2 1_555 1_555
C8 C9 1_555 1_555
Mn1 O3 1_555 1_555
Mn3 O3 1_555 1_555
P1 O1 1_555 1_555
P2 O7 1_555 1_555
O1 Mn4 1_555 1_555
O2 P1 1_555 1_555
O3 P1 1_555 1_555
O5 C2 1_555 1_555
O6 C2 1_555 1_555
O7 Mn1 1_555 1_555
O9 Mn3 1_555 1_555
H2 O10 1_555 1_555
O11 Mn1 1_555 1_555
N2 Mn3 1_555 1_555
C1 P1 1_555 1_555
H3 C1 1_555 1_555
C2 C1 1_555 1_555
C3 P2 1_555 1_555
H4 C3 1_555 1_555
C4 O11 1_555 1_555
C10 N2 1_555 1_555
H9 C10 1_555 1_555
C11 C10 1_555 1_555
H10 C11 1_555 1_555
C12 C11 1_555 1_555
C14 N2 1_555 1_555
Mn4 O5 1_555 1_555
Mn9 O2 1_555 1_555
P3 O13 1_555 1_555
O13 Mn1 1_555 1_555
O15 P3 1_555 1_555
O18 Mn4 1_555 1_555
O22 Mn1 1_555 1_555
O27 Mn4 1_555 1_555
O29 Mn1 1_555 1_555
O30 Mn4 1_555 1_555
O33 Mn12 1_555 1_555
O36 Mn4 1_555 1_555
N6 Mn12 1_555 1_555
C15 P3 1_555 1_555
H17 C15 1_555 1_555
C16 O22 1_555 1_555
P2 O9 1_555 1_555
O4 C1 1_555 1_555
O10 C3 1_555 1_555
O12 C4 1_555 1_555
C3 C4 1_555 1_555
Mn9 O30 1_555 1_555
Mn12 O18 1_555 1_555
P3 O18 1_555 1_555
O20 C15 1_555 1_555
O24 C16 1_555 1_555
C15 C16 1_555 1_555
H25 C27 1_555 1_555
H11 C13 1_555 1_555
P4 O27 1_555 1_555
H16 O34 1_555 1_555
C17 P4 1_555 1_555
H18 C17 1_555 1_555
C18 O36 1_555 1_555
P4 O33 1_555 1_555
O34 C17 1_555 1_555
O37 C18 1_555 1_555
C17 C18 1_555 1_555
N6 C24 1_555 1_555
C24 H23 1_555 1_555
C25 C24 1_555 1_555
H24 C25 1_555 1_555
C28 N6 1_555 1_555
C25 C26 1_555 1_555

#END
