
###############################################################################
#
# This file contains modified crystal structure data generated from the
# MOF subset of the Cambridge Structural Database (CSD) v543 
# hosted by the Cambridge Crystallographic Data Centre (CCDC).
#
# This work is licensed under the Creative Commons
# Attribution-NonCommercial-ShareAlike 4.0 International License.
# To view a copy of this license, visit
# http://creativecommons.org/licenses/by-nc-sa/4.0/
# or send a letter to
# Creative Commons, PO Box 1866, Mountain View, CA 94042, USA.
#
# CIF created using the CSD Python API on 29 September 2022
# The structure has been converted into the P1 space group
# The structure has a 3D framework
# The original CSD entry OHETIE is in the trigonal crystal system
# The original CSD entry OHETIE is in a Sohncke space group
# The framework has been calculated to contain at least 10.0% void space
# The void calculation uses a probe of radius 1.32A, grid spacing 0.4
# The framework is charged, counterions have been retained in the structure
#
###############################################################################

data_OHETIE
_chemical_formula_moiety         '(C42 H66 Cd6 N12 O28)n'
_symmetry_cell_setting           triclinic
_symmetry_space_group_name_H-M   'P 1'
_symmetry_Int_Tables_number      1
_space_group_name_Hall           'P 1'
loop_
_symmetry_equiv_pos_site_id
_symmetry_equiv_pos_as_xyz
1 x,y,z
_cell_length_a                   13.1931(7)
_cell_length_b                   13.1931(7)
_cell_length_c                   11.3498(8)
_cell_angle_alpha                90
_cell_angle_beta                 90
_cell_angle_gamma                120
_cell_volume                     1710.85
loop_
_atom_site_label
_atom_site_type_symbol
_atom_site_fract_x
_atom_site_fract_y
_atom_site_fract_z
C10 C 0.3346(3) 0.1392(2) 0.0432(2)
H14 H 0.3109 0.0580 0.0587
H15 H 0.2955 0.1628 0.1000
C11 C 0.46691(28) 0.21391(19) 0.06163(18)
H16 H 0.5074 0.1890 0.0065
N3 N 0.4926(4) 0.1960(2) 0.18176(17)
H17 H 0.4595 0.2122 0.2381
C12 C 0.5630(4) 0.1568(3) 0.2091(2)
C13 C 0.5746(4) 0.1416(3) 0.3407(2)
H18 H 0.6255 0.2172 0.3763
H19 H 0.4983 0.1085 0.3779
N4 N 0.6230(4) 0.0640(3) 0.3603(2)
H20 H 0.6290 0.0555 0.4373
H21 H 0.6935 0.0951 0.3273
C14 C 0.5084(3) 0.3438(2) 0.0421(2)
O8 O 0.6172(4) 0.1329(2) 0.13720(19)
O9 O 0.4866(4) 0.3974(2) 0.11942(17)
Cd3 Cd 0.575911(15) 0.575911(15) 0.0000
Cd1 Cd 0.424089(15) 0.0000 0.6667
H11 H 0.5814 0.0056 0.0052
C8 C 0.33628(28) 0.09738(19) 0.82468(19)
C9 C 0.29416(28) 0.14826(19) 0.9201(2)
H12 H 0.2093 0.1077 0.9189
H13 H 0.3222 0.2299 0.9024
O6 O 0.3664(3) 0.1458(2) 0.72666(17)
O7 O 0.33768(27) 0.00498(18) 0.84612(18)
O10 O 0.5609(3) 0.3912(2) 0.94822(18)
O12 O 0.6026(2) 0.0892(3) 0.78609(17)
O14 O 0.6088(2) 0.1697(2) 0.61489(18)
Cd3_2 Cd 0.575911(15) 0.575911(15) 1.0000
Cd1_2 Cd 0.424089(15) 1.0000 0.6667
C1 C 0.2389(2) 0.90262(19) 0.50865(19)
C2 C 0.1459(2) 0.85174(19) 0.4132(2)
H1 H 0.1016 0.8923 0.4144
H2 H 0.0923 0.7701 0.4309
C3 C 0.1954(2) 0.8608(2) 0.2901(2)
H3 H 0.2529 0.9420 0.2746
H4 H 0.1327 0.8372 0.2333
C4 C 0.2530(2) 0.78609(19) 0.27170(18)
H5 H 0.3184 0.8110 0.3268
N1 N 0.2966(3) 0.8040(2) 0.15157(17)
H6 H 0.2473 0.7878 0.0952
C5 C 0.4062(2) 0.8432(3) 0.1242(2)
H10 H 0.5984 0.9049 0.0060
C7 C 0.1646(2) 0.6562(2) 0.2912(2)
O1 O 0.2206(2) 0.8542(2) 0.60667(17)
O2 O 0.3327(2) 0.99502(18) 0.48721(18)
O3 O 0.4843(3) 0.8671(2) 0.19613(19)
O4 O 0.0892(3) 0.6026(2) 0.21391(17)
O5 O 0.1697(2) 0.6088(2) 0.38511(18)
O11 O 0.5134(4) 0.9108(3) 0.54724(17)
O13 O 0.4391(3) 0.8303(2) 0.71844(18)
Cd2 Cd 0.0000 0.424089(15) 0.3334
Cd2_2 Cd 1.0000 0.424089(15) 0.3334
C1_2 C 0.09738(19) 0.33628(28) 0.17532(19)
C2_2 C 0.14826(19) 0.29416(28) 0.0799(2)
H1_2 H 0.1077 0.2093 0.0811
H2_2 H 0.2299 0.3222 0.0976
O1_2 O 0.1458(2) 0.3664(3) 0.27334(17)
O2_2 O 0.00498(18) 0.33768(27) 0.15388(18)
O5_2 O 0.3912(2) 0.5609(3) 0.05178(18)
H22 H 0.0056 0.5814 0.9948
C3_2 C 0.1392(2) 0.3346(3) 0.9568(2)
H3_2 H 0.0580 0.3109 0.9413
H4_2 H 0.1628 0.2955 0.9000
C4_2 C 0.21391(19) 0.46691(28) 0.93837(18)
H5_2 H 0.1890 0.5074 0.9935
N1_2 N 0.1960(2) 0.4926(4) 0.81824(17)
H6_2 H 0.2122 0.4595 0.7619
C5_2 C 0.1568(3) 0.5630(4) 0.7909(2)
C6 C 0.1416(3) 0.5746(4) 0.6593(2)
H7 H 0.2172 0.6255 0.6237
H8 H 0.1085 0.4983 0.6221
N2 N 0.0640(3) 0.6230(4) 0.6397(2)
H9 H 0.0555 0.6290 0.5627
H10_2 H 0.0951 0.6935 0.6727
C7_2 C 0.3438(2) 0.5084(3) 0.9579(2)
O3_2 O 0.1329(2) 0.6172(4) 0.86280(19)
O4_2 O 0.3974(2) 0.4866(4) 0.88058(17)
C8_2 C 0.90262(19) 0.23890(34) 0.49135(19)
C9_2 C 0.85174(19) 0.14590(34) 0.5868(2)
H12_2 H 0.8923 0.1016 0.5856
H13_2 H 0.7701 0.0923 0.5691
C10_2 C 0.8608(2) 0.1954(4) 0.7099(2)
H14_2 H 0.9420 0.2529 0.7254
H15_2 H 0.8372 0.1327 0.7667
C11_2 C 0.78609(19) 0.25300(34) 0.72830(18)
H16_2 H 0.8110 0.3184 0.6732
N3_2 N 0.8040(2) 0.2966(4) 0.84843(17)
H17_2 H 0.7878 0.2473 0.9048
C12_2 C 0.8432(3) 0.4062(5) 0.8758(2)
H21_2 H 0.9049 0.5984 0.9940
C14_2 C 0.6562(2) 0.1646(4) 0.7088(2)
O6_2 O 0.8542(2) 0.2206(4) 0.39333(17)
O7_2 O 0.99502(18) 0.33270(32) 0.51279(18)
O8_2 O 0.8671(2) 0.4843(4) 0.80387(19)
O12_2 O 0.9108(3) 0.5134(4) 0.45276(17)
O14_2 O 0.8303(2) 0.4391(3) 0.28156(18)
C8_3 C 0.76110(34) 0.66372(28) 0.15802(19)
C9_3 C 0.85410(34) 0.70584(28) 0.2535(2)
H12_3 H 0.8984 0.7907 0.2523
H13_3 H 0.9077 0.6778 0.2358
C10_3 C 0.8046(4) 0.6654(3) 0.3766(2)
H14_3 H 0.7471 0.6891 0.3921
H15_3 H 0.8673 0.7045 0.4334
C11_3 C 0.74700(34) 0.53309(28) 0.39497(18)
H16_3 H 0.6816 0.4926 0.3399
N3_3 N 0.7034(4) 0.5074(4) 0.51510(17)
H17_3 H 0.7527 0.5405 0.5715
C12_3 C 0.5938(5) 0.4370(4) 0.5425(2)
C13_2 C 0.5670(5) 0.4254(4) 0.6741(2)
H18_2 H 0.5917 0.3745 0.7097
H19_2 H 0.6102 0.5017 0.7113
N4_2 N 0.4410(5) 0.3770(4) 0.6937(2)
H20_2 H 0.4265 0.3710 0.7707
H21_3 H 0.4016 0.3065 0.6607
H22_2 H 0.4186 0.4242 0.6615
C14_3 C 0.8354(4) 0.4916(3) 0.3755(2)
O6_3 O 0.7794(4) 0.6336(3) 0.06000(17)
O7_3 O 0.66730(32) 0.66232(27) 0.17946(18)
O8_3 O 0.5157(4) 0.3828(4) 0.47054(19)
C1_3 C 0.66372(28) 0.7611(2) 0.84198(19)
C2_3 C 0.70584(28) 0.8541(2) 0.7465(2)
H1_3 H 0.7907 0.8984 0.7477
H2_3 H 0.6778 0.9077 0.7642
C3_3 C 0.6654(3) 0.8046(2) 0.6234(2)
H3_3 H 0.6891 0.7471 0.6079
H4_3 H 0.7045 0.8673 0.5666
C4_3 C 0.53309(28) 0.7470(2) 0.60503(18)
H5_3 H 0.4926 0.6816 0.6601
N1_3 N 0.5074(4) 0.7034(3) 0.48490(17)
H6_3 H 0.5405 0.7527 0.4285
C5_3 C 0.4370(4) 0.5938(2) 0.4575(2)
C6_2 C 0.4254(4) 0.5670(3) 0.3259(2)
H7_2 H 0.3745 0.5917 0.2903
H8_2 H 0.5017 0.6102 0.2887
N2_2 N 0.3770(4) 0.4410(3) 0.3063(2)
H9_2 H 0.3710 0.4265 0.2293
H10_3 H 0.3065 0.4016 0.3393
H11_2 H 0.4242 0.4186 0.3385
C7_3 C 0.4916(3) 0.8354(2) 0.6245(2)
O1_3 O 0.6336(3) 0.7794(2) 0.94000(17)
O2_3 O 0.66232(27) 0.6673(2) 0.82054(18)
O3_3 O 0.3828(4) 0.5157(3) 0.52946(19)
H22_3 H 0.5758 0.9944 0.3281
C6_3 C 0.4330(3) 0.8584(3) 0.9926(2)
H7_3 H 0.4083 0.7828 0.9570
H8_3 H 0.3898 0.8915 0.9554
N2_3 N 0.5590(3) 0.9360(3) 0.9730(2)
H9_3 H 0.5735 0.9445 0.8960
C13_3 C 0.8584(3) 0.4330(5) 0.0074(2)
H18_3 H 0.7828 0.4083 0.0430
H19_3 H 0.8915 0.3898 0.0446
N4_3 N 0.9360(3) 0.5590(5) 0.0270(2)
H20_3 H 0.9445 0.5735 0.1040
H11_3 H 0.9944 0.5758 0.6719
loop_
_geom_bond_atom_site_label_1
_geom_bond_atom_site_label_2
_geom_bond_site_symmetry_1
_geom_bond_site_symmetry_2
H14 C10 1_555 1_555
H15 C10 1_555 1_555
C11 C10 1_555 1_555
H16 C11 1_555 1_555
N3 C11 1_555 1_555
H17 N3 1_555 1_555
C12 N3 1_555 1_555
C13 C12 1_555 1_555
H18 C13 1_555 1_555
H19 C13 1_555 1_555
N4 C13 1_555 1_555
H20 N4 1_555 1_555
H21 N4 1_555 1_555
C14 C11 1_555 1_555
O8 C12 1_555 1_555
O9 C14 1_555 1_555
Cd3 O9 1_555 1_555
C8 C9 1_555 1_555
C9 H12 1_555 1_555
H13 C9 1_555 1_555
O6 Cd1 1_555 1_555
O7 Cd1 1_555 1_555
O12 Cd1 1_555 1_555
O14 Cd1 1_555 1_555
C8 O6 1_555 1_555
C8 O7 1_555 1_555
O10 Cd3_2 1_555 1_555
Cd1_2 O1 1_555 1_555
C1 C2 1_555 1_555
C2 H1 1_555 1_555
H2 C2 1_555 1_555
C3 C2 1_555 1_555
H3 C3 1_555 1_555
H4 C3 1_555 1_555
C4 C3 1_555 1_555
H5 C4 1_555 1_555
N1 C4 1_555 1_555
H6 N1 1_555 1_555
C5 N1 1_555 1_555
C7 C4 1_555 1_555
O1 C1 1_555 1_555
O2 Cd1_2 1_555 1_555
O3 C5 1_555 1_555
O4 C7 1_555 1_555
O5 C7 1_555 1_555
O11 Cd1_2 1_555 1_555
O13 Cd1_2 1_555 1_555
Cd2 O4 1_555 1_555
C1 O2 1_555 1_555
O5 Cd2 1_555 1_555
Cd2 O1_2 1_555 1_555
C1_2 C2_2 1_555 1_555
C2_2 H1_2 1_555 1_555
H2_2 C2_2 1_555 1_555
O1_2 C1_2 1_555 1_555
O2_2 Cd2 1_555 1_555
C1_2 O2_2 1_555 1_555
O5_2 Cd3 1_555 1_555
H3_2 C3_2 1_555 1_555
H4_2 C3_2 1_555 1_555
C4_2 C3_2 1_555 1_555
H5_2 C4_2 1_555 1_555
N1_2 C4_2 1_555 1_555
H6_2 N1_2 1_555 1_555
C5_2 N1_2 1_555 1_555
C6 C5_2 1_555 1_555
H7 C6 1_555 1_555
H8 C6 1_555 1_555
N2 C6 1_555 1_555
H9 N2 1_555 1_555
H10_2 N2 1_555 1_555
C7_2 C4_2 1_555 1_555
O3_2 C5_2 1_555 1_555
O4_2 C7_2 1_555 1_555
Cd3_2 O4_2 1_555 1_555
C8_2 C9_2 1_555 1_555
C9_2 H12_2 1_555 1_555
H13_2 C9_2 1_555 1_555
C10_2 C9_2 1_555 1_555
H14_2 C10_2 1_555 1_555
H15_2 C10_2 1_555 1_555
C11_2 C10_2 1_555 1_555
H16_2 C11_2 1_555 1_555
N3_2 C11_2 1_555 1_555
H17_2 N3_2 1_555 1_555
C12_2 N3_2 1_555 1_555
C14_2 C11_2 1_555 1_555
O6_2 Cd2_2 1_555 1_555
O7_2 Cd2_2 1_555 1_555
O8_2 C12_2 1_555 1_555
O12 C14_2 1_555 1_555
O14 C14_2 1_555 1_555
O12_2 Cd2_2 1_555 1_555
O14_2 Cd2_2 1_555 1_555
C8_2 O6_2 1_555 1_555
C8_2 O7_2 1_555 1_555
C8_3 C9_3 1_555 1_555
C9_3 H12_3 1_555 1_555
H13_3 C9_3 1_555 1_555
C10_3 C9_3 1_555 1_555
H14_3 C10_3 1_555 1_555
H15_3 C10_3 1_555 1_555
C11_3 C10_3 1_555 1_555
H16_3 C11_3 1_555 1_555
N3_3 C11_3 1_555 1_555
H17_3 N3_3 1_555 1_555
C12_3 N3_3 1_555 1_555
C13_2 C12_3 1_555 1_555
H18_2 C13_2 1_555 1_555
H19_2 C13_2 1_555 1_555
N4_2 C13_2 1_555 1_555
H20_2 N4_2 1_555 1_555
H21_3 N4_2 1_555 1_555
H22_2 N4_2 1_555 1_555
C14_3 C11_3 1_555 1_555
O6_3 Cd3 1_555 1_555
O7_3 Cd3 1_555 1_555
O8_3 C12_3 1_555 1_555
O12_2 C14_3 1_555 1_555
O14_2 C14_3 1_555 1_555
C8_3 O6_3 1_555 1_555
C8_3 O7_3 1_555 1_555
Cd3_2 O1_3 1_555 1_555
C1_3 C2_3 1_555 1_555
C2_3 H1_3 1_555 1_555
H2_3 C2_3 1_555 1_555
C3_3 C2_3 1_555 1_555
H3_3 C3_3 1_555 1_555
H4_3 C3_3 1_555 1_555
C4_3 C3_3 1_555 1_555
H5_3 C4_3 1_555 1_555
N1_3 C4_3 1_555 1_555
H6_3 N1_3 1_555 1_555
C5_3 N1_3 1_555 1_555
C6_2 C5_3 1_555 1_555
H7_2 C6_2 1_555 1_555
H8_2 C6_2 1_555 1_555
N2_2 C6_2 1_555 1_555
H9_2 N2_2 1_555 1_555
H10_3 N2_2 1_555 1_555
H11_2 N2_2 1_555 1_555
C7_3 C4_3 1_555 1_555
O1_3 C1_3 1_555 1_555
O2_3 Cd3_2 1_555 1_555
O3_3 C5_3 1_555 1_555
O11 C7_3 1_555 1_555
O13 C7_3 1_555 1_555
C1_3 O2_3 1_555 1_555
H7_3 C6_3 1_555 1_555
H8_3 C6_3 1_555 1_555
N2_3 C6_3 1_555 1_555
H9_3 N2_3 1_555 1_555
H18_3 C13_3 1_555 1_555
H19_3 C13_3 1_555 1_555
N4_3 C13_3 1_555 1_555
H20_3 N4_3 1_555 1_555

#END
