
###############################################################################
#
# This file contains modified crystal structure data generated from the
# MOF subset of the Cambridge Structural Database (CSD) v543 
# hosted by the Cambridge Crystallographic Data Centre (CCDC).
#
# This work is licensed under the Creative Commons
# Attribution-NonCommercial-ShareAlike 4.0 International License.
# To view a copy of this license, visit
# http://creativecommons.org/licenses/by-nc-sa/4.0/
# or send a letter to
# Creative Commons, PO Box 1866, Mountain View, CA 94042, USA.
#
# CIF created using the CSD Python API on 29 September 2022
# The structure has been converted into the P1 space group
# The structure has a 3D framework
# The original CSD entry OHEZAF is in the triclinic crystal system
# The framework has been calculated to contain at least 10.0% void space
# The void calculation uses a probe of radius 1.32A, grid spacing 0.4
#
###############################################################################

data_OHEZAF
_chemical_formula_moiety         '(C42 H30 Cu4 La2 N6 O24)n'
_symmetry_cell_setting           triclinic
_symmetry_space_group_name_H-M   'P 1'
_symmetry_Int_Tables_number      1
_space_group_name_Hall           'P 1'
loop_
_symmetry_equiv_pos_site_id
_symmetry_equiv_pos_as_xyz
1 x,y,z
_cell_length_a                   10.1516(4)
_cell_length_b                   11.7186(5)
_cell_length_c                   13.1369(6)
_cell_angle_alpha                106.1330(10)
_cell_angle_beta                 94.2610(10)
_cell_angle_gamma                100.2570(10)
_cell_volume                     1464.54
loop_
_atom_site_label
_atom_site_type_symbol
_atom_site_fract_x
_atom_site_fract_y
_atom_site_fract_z
O4 O 0.3668(3) 0.1202(3) 0.0939(2)
H3 H 0.3661 0.1723 0.1536
H4 H 0.4458 0.1336 0.0765
O10 O 0.6378(3) 0.1498(3) 0.0196(2)
O11 O 0.5919(4) 0.3323(3) 0.0437(2)
O12 O 0.4369(3) 0.1480(3) 0.4646(2)
O13 O 0.3456(4) 0.1570(3) 0.3093(3)
C15 C 0.2205(4) 0.0235(3) 0.3922(3)
C20 C 0.3427(4) 0.1165(4) 0.3856(3)
La6 La 0.811535(18) 0.036069(17) 0.045577(14)
Cu5 Cu 0.5000 0.5000 0.0000
Cu6 Cu 0.38615(5) 0.09988(5) 0.58780(4)
O32 O 0.0682(3) 0.1316(2) 0.0224(2)
N2 N 0.5535(3) 0.1794(3) 0.6881(3)
O6 O 0.2958(4) 0.2788(3) 0.6579(3)
H5 H 0.3093 0.3143 0.7248
H6 H 0.3716 0.2875 0.6544
O8 O 0.3711(3) 0.0946(3) 0.8833(2)
O9 O 0.3304(3) 0.0436(3) 0.7067(2)
C8 C 0.5373(4) 0.1750(3) 0.7886(3)
C9 C 0.6377(3) 0.2335(3) 0.8738(3)
C10 C 0.7590(4) 0.2943(3) 0.8527(3)
H10 H 0.8299 0.3315 0.9077
C11 C 0.7739(4) 0.2994(4) 0.7503(3)
H11 H 0.8539 0.3408 0.7358
C12 C 0.6680(4) 0.2419(4) 0.6698(3)
H12 H 0.6766 0.2469 0.6010
C13 C 0.4036(4) 0.0996(4) 0.7958(3)
C14 C 0.6197(3) 0.2384(3) 0.9883(3)
Cu5_2 Cu 0.5000 0.5000 1.0000
N3 N 0.2300(3) 0.9974(3) 0.4868(2)
O15 O 0.1635(3) 0.9596(3) 0.1412(2)
C16 C 0.1092(4) 0.9682(3) 0.3148(3)
C17 C 0.0095(4) 0.8831(4) 0.3361(3)
C18 C 0.0236(4) 0.8540(4) 0.4306(3)
C19 C 0.1346(4) 0.9143(4) 0.5049(3)
H15 H 0.1431 0.8966 0.5695
C21 C 0.0858(4) 0.9909(3) 0.2072(3)
La1 La 0.188465(18) 0.963931(17) 0.954423(14)
O2 O 0.2243(4) 0.8327(3) 0.7667(2)
H1 H 0.1422 0.8153 0.7389
H2 H 0.2653 0.8892 0.7446
O7 O 0.0591(3) 0.7373(3) 0.9188(3)
O34 O 0.3622(3) 0.8502(3) 0.9804(2)
O40 O 0.0172(3) 0.9667(3) 0.8054(2)
O14 O 0.9828(3) 0.0333(3) 0.1946(2)
O1 O 0.6523(3) 0.6072(3) 0.1046(2)
O3 O 0.8704(3) 0.6853(4) 0.1099(3)
C6 C 0.7566(4) 0.6398(4) 0.0623(3)
H13 H 0.9331 0.8456 0.2864
H14 H 0.9591 0.7946 0.4438
N4 N 0.3835(3) 0.4624(3) 0.1054(3)
C22 C 0.2675(4) 0.3843(3) 0.0583(3)
C23 C 0.1795(4) 0.3329(3) 0.1158(3)
C24 C 0.2134(4) 0.3653(4) 0.2264(3)
H22 H 0.1563 0.3321 0.2677
C25 C 0.3315(5) 0.4464(4) 0.2742(3)
H23 H 0.3547 0.4695 0.3479
C26 C 0.4154(4) 0.4930(4) 0.2107(3)
H24 H 0.4961 0.5471 0.2425
C28 C 0.0544(4) 0.2381(3) 0.0674(3)
N1 N 0.6165(3) 0.5376(3) 0.8946(3)
C1 C 0.7325(4) 0.6157(3) 0.9417(3)
C2 C 0.8205(4) 0.6671(3) 0.8842(3)
O5 O 0.9318(3) 0.8684(2) 0.9776(2)
C3 C 0.7866(4) 0.6347(4) 0.7736(3)
H7 H 0.8437 0.6679 0.7323
C4 C 0.6685(5) 0.5536(4) 0.7258(3)
H8 H 0.6453 0.5305 0.6521
C5 C 0.5846(4) 0.5070(4) 0.7893(3)
H9 H 0.5039 0.4529 0.7575
C7 C 0.9456(4) 0.7619(3) 0.9326(3)
O16 O 0.3477(3) 0.3928(3) 0.8954(2)
O18 O 0.1296(3) 0.3147(4) 0.8901(3)
C27 C 0.2434(4) 0.3602(4) 0.9377(3)
H28 H 0.0669 0.1544 0.7136
H29 H 0.0409 0.2054 0.5562
O36 O 0.4081(4) 0.6677(3) 0.9563(2)
O17 O 0.7757(4) 0.1673(3) 0.2333(2)
H16 H 0.8578 0.1847 0.2611
H17 H 0.7347 0.1108 0.2554
O22 O 0.9409(3) 0.2627(3) 0.0812(3)
N8 N 0.7700(3) 0.0026(3) 0.5132(2)
O30 O 0.8365(3) 0.0404(3) 0.8588(2)
C37 C 0.8908(4) 0.0318(3) 0.6852(3)
C38 C 0.9905(4) 0.1169(4) 0.6639(3)
C39 C 0.9764(4) 0.1460(4) 0.5694(3)
C40 C 0.8654(4) 0.0857(4) 0.4951(3)
H30 H 0.8569 0.1034 0.4305
C42 C 0.9142(4) 0.0091(3) 0.7928(3)
Cu3 Cu 0.61385(5) 0.90012(5) 0.41220(4)
N5 N 0.4465(3) 0.8206(3) 0.3119(3)
O21 O 0.7042(4) 0.7212(3) 0.3421(3)
H20 H 0.6907 0.6857 0.2752
H21 H 0.6284 0.7125 0.3456
O23 O 0.6289(3) 0.9054(3) 0.1167(2)
O24 O 0.6696(3) 0.9564(3) 0.2933(2)
C29 C 0.4627(4) 0.8250(3) 0.2114(3)
C30 C 0.3623(3) 0.7665(3) 0.1262(3)
C31 C 0.2410(4) 0.7057(3) 0.1473(3)
H25 H 0.1701 0.6685 0.0923
C32 C 0.2261(4) 0.7006(4) 0.2497(3)
H26 H 0.1461 0.6592 0.2642
C33 C 0.3320(4) 0.7581(4) 0.3302(3)
H27 H 0.3234 0.7531 0.3990
C34 C 0.5964(4) 0.9004(4) 0.2042(3)
C35 C 0.3803(3) 0.7616(3) 0.0117(3)
O38 O 0.5631(3) 0.8520(3) 0.5354(2)
O19 O 0.6332(3) 0.8798(3) 0.9061(2)
H18 H 0.6339 0.8277 0.8464
H19 H 0.5542 0.8664 0.9235
O28 O 0.6544(4) 0.8430(3) 0.6907(3)
C36 C 0.7795(4) 0.9765(3) 0.6078(3)
C41 C 0.6573(4) 0.8835(4) 0.6144(3)
loop_
_geom_bond_atom_site_label_1
_geom_bond_atom_site_label_2
_geom_bond_site_symmetry_1
_geom_bond_site_symmetry_2
H3 O4 1_555 1_555
H4 O4 1_555 1_555
O12 C20 1_555 1_555
O13 C20 1_555 1_555
C20 C15 1_555 1_555
La6 O10 1_555 1_555
Cu5 O11 1_555 1_555
O12 Cu6 1_555 1_555
Cu6 N2 1_555 1_555
N2 C8 1_555 1_555
O6 Cu6 1_555 1_555
H5 O6 1_555 1_555
H6 O6 1_555 1_555
O9 Cu6 1_555 1_555
C8 C9 1_555 1_555
C9 C10 1_555 1_555
C10 H10 1_555 1_555
C11 C10 1_555 1_555
H11 C11 1_555 1_555
C12 N2 1_555 1_555
H12 C12 1_555 1_555
C13 O8 1_555 1_555
C14 C9 1_555 1_555
O9 C13 1_555 1_555
C8 C13 1_555 1_555
C11 C12 1_555 1_555
C16 C17 1_555 1_555
C18 C17 1_555 1_555
C19 N3 1_555 1_555
H15 C19 1_555 1_555
C21 O15 1_555 1_555
C16 C21 1_555 1_555
C18 C19 1_555 1_555
La1 O2 1_555 1_555
O2 H1 1_555 1_555
H2 O2 1_555 1_555
O7 La1 1_555 1_555
O34 La1 1_555 1_555
O40 La1 1_555 1_555
O14 La6 1_555 1_555
Cu5 O1 1_555 1_555
O1 C6 1_555 1_555
O3 C6 1_555 1_555
N4 Cu5 1_555 1_555
C22 N4 1_555 1_555
C23 C22 1_555 1_555
C24 C23 1_555 1_555
H22 C24 1_555 1_555
C25 C24 1_555 1_555
H23 C25 1_555 1_555
C26 N4 1_555 1_555
H24 C26 1_555 1_555
C28 C23 1_555 1_555
O32 C28 1_555 1_555
C25 C26 1_555 1_555
N1 Cu5_2 1_555 1_555
C1 N1 1_555 1_555
C2 C1 1_555 1_555
C3 C2 1_555 1_555
H7 C3 1_555 1_555
C4 C3 1_555 1_555
H8 C4 1_555 1_555
C5 N1 1_555 1_555
H9 C5 1_555 1_555
C7 C2 1_555 1_555
O16 Cu5_2 1_555 1_555
O18 C27 1_555 1_555
C27 O16 1_555 1_555
O36 Cu5_2 1_555 1_555
O5 C7 1_555 1_555
C4 C5 1_555 1_555
La6 O17 1_555 1_555
O17 H16 1_555 1_555
H17 O17 1_555 1_555
O22 La6 1_555 1_555
C37 C38 1_555 1_555
C39 C38 1_555 1_555
C40 N8 1_555 1_555
H30 C40 1_555 1_555
C42 O30 1_555 1_555
C37 C42 1_555 1_555
C39 C40 1_555 1_555
Cu3 N5 1_555 1_555
N5 C29 1_555 1_555
O21 Cu3 1_555 1_555
H20 O21 1_555 1_555
H21 O21 1_555 1_555
O24 Cu3 1_555 1_555
C29 C30 1_555 1_555
C30 C31 1_555 1_555
C31 H25 1_555 1_555
C32 C31 1_555 1_555
H26 C32 1_555 1_555
C33 N5 1_555 1_555
H27 C33 1_555 1_555
C34 O23 1_555 1_555
C35 C30 1_555 1_555
O38 Cu3 1_555 1_555
O24 C34 1_555 1_555
C29 C34 1_555 1_555
C32 C33 1_555 1_555
H18 O19 1_555 1_555
H19 O19 1_555 1_555
O38 C41 1_555 1_555
O28 C41 1_555 1_555
C41 C36 1_555 1_555

#END
