
###############################################################################
#
# This file contains modified crystal structure data generated from the
# MOF subset of the Cambridge Structural Database (CSD) v543 
# hosted by the Cambridge Crystallographic Data Centre (CCDC).
#
# This work is licensed under the Creative Commons
# Attribution-NonCommercial-ShareAlike 4.0 International License.
# To view a copy of this license, visit
# http://creativecommons.org/licenses/by-nc-sa/4.0/
# or send a letter to
# Creative Commons, PO Box 1866, Mountain View, CA 94042, USA.
#
# CIF created using the CSD Python API on 29 September 2022
# The structure has been converted into the P1 space group
# The structure has a 3D framework
# The original CSD entry OHEZIN is in the triclinic crystal system
# The framework has been calculated to contain at least 10.0% void space
# The void calculation uses a probe of radius 1.32A, grid spacing 0.4
#
###############################################################################

data_OHEZIN
_chemical_formula_moiety         '(C42 H30 Cu3 N6 Nd2 O30)n'
_symmetry_cell_setting           triclinic
_symmetry_space_group_name_H-M   'P 1'
_symmetry_Int_Tables_number      1
_space_group_name_Hall           'P 1'
loop_
_symmetry_equiv_pos_site_id
_symmetry_equiv_pos_as_xyz
1 x,y,z
_cell_length_a                   10.0249(5)
_cell_length_b                   11.7769(5)
_cell_length_c                   13.1384(6)
_cell_angle_alpha                106.2340(10)
_cell_angle_beta                 94.6410(10)
_cell_angle_gamma                99.9340(10)
_cell_volume                     1453.23
loop_
_atom_site_label
_atom_site_type_symbol
_atom_site_fract_x
_atom_site_fract_y
_atom_site_fract_z
Cu1 Cu 0.0000 -0.0000 0.5000
N7 N 0.1170(3) 0.0366(3) 0.3950(3)
O31 O 0.1549(3) 0.1062(3) 0.6057(2)
Cu1_2 Cu 0.0000 1.0000 0.5000
O36 O 0.0908(4) 0.8297(3) 0.5463(3)
Cu1_3 Cu 1.0000 -0.0000 0.5000
H9 H 0.9987 0.0502 0.7425
O37 O 0.9092(4) 0.1703(3) 0.4537(3)
Nd1 Nd 0.312403(17) 0.536575(15) 0.545075(13)
Cu1_4 Cu 1.0000 1.0000 0.5000
O1 O 0.1344(3) 0.3843(3) 0.4085(2)
H1 H 0.1370 0.4445 0.3845
H2 H 0.0619 0.3762 0.4374
C1 C 0.7677(4) 0.8838(3) 0.5575(3)
N1 N 0.8830(3) 0.9634(3) 0.6050(3)
O2 O 0.8451(3) 0.8938(3) 0.3943(2)
O3 O 0.2800(4) 0.6636(3) 0.7307(2)
H3 H 0.3649 0.6768 0.7527
H4 H 0.2397 0.6099 0.7559
C2 C 0.6809(4) 0.8300(3) 0.6159(3)
N2 N 0.0536(3) 0.6767(3) 0.1907(2)
O4 O 0.6253(4) 0.8133(4) 0.3904(3)
N3 N 0.2694(3) 0.5049(3) 0.0160(2)
O5 O 0.5708(3) 0.6275(2) 0.5224(2)
C3 C 0.7164(5) 0.8631(4) 0.7261(3)
H5 H 0.6600 0.8297 0.7675
O7 O 0.4398(3) 0.7560(3) 0.5822(3)
C4 C 0.8350(5) 0.9453(4) 0.7738(4)
H8 H 0.8594 0.9676 0.8475
C5 C 0.9181(4) 0.9948(4) 0.7107(3)
C6 C 0.7420(4) 0.8590(4) 0.4384(3)
O10 O 0.1389(3) 0.6472(3) 0.5222(2)
C7 C 0.5557(4) 0.7334(3) 0.5670(3)
C8 C 0.0378(4) 0.6724(3) 0.2905(3)
C9 C 0.1380(4) 0.7316(3) 0.3768(3)
O12 O 0.0585(3) 0.3553(3) 0.0352(2)
C10 C 0.2605(4) 0.7947(4) 0.3570(3)
H10 H 0.3312 0.8335 0.4128
O13 O 0.1473(4) 0.3477(3) 0.1923(3)
O14 O 0.3360(3) 0.5424(3) 0.3629(2)
C11 C 0.2757(4) 0.7988(4) 0.2552(4)
H11 H 0.3563 0.8407 0.2415
O15 O 0.5186(3) 0.4684(3) 0.3087(2)
C12 C 0.1699(4) 0.7400(4) 0.1735(3)
H12 H 0.1794 0.7443 0.1048
C14 C 0.1199(4) 0.7361(3) 0.4901(3)
C15 C 0.2771(4) 0.4784(3) 0.1100(3)
C16 C 0.3896(4) 0.5323(3) 0.1884(3)
C17 C 0.4932(4) 0.6166(4) 0.1675(3)
H13 H 0.5716 0.6515 0.2170
C18 C 0.4791(4) 0.6477(4) 0.0742(3)
H14 H 0.5435 0.7082 0.0627
C20 C 0.1537(5) 0.3869(4) 0.1158(3)
C21 C 0.4146(4) 0.5100(3) 0.2957(3)
Nd6 Nd 0.687597(17) 0.463425(15) 0.454925(13)
O33 O 0.4292(3) 0.3725(2) 0.4776(2)
O35 O 0.1322(3) 0.4096(3) 0.6170(2)
O39 O 0.4814(3) 0.5316(3) 0.6913(2)
Cu2 Cu 0.11258(5) 0.40363(5) 0.91223(4)
O6 O 0.2020(4) 0.2244(4) 0.8391(3)
H6 H 0.2018 0.1844 0.8617
H7 H 0.1783 0.2906 0.8683
C19 C 0.3670(4) 0.5868(4) 0.9981(3)
H15 H 0.3595 0.6034 0.9329
O24 O 0.1703(3) 0.4601(3) 0.7943(2)
C34 C 0.0980(4) 0.4047(4) 0.7041(3)
O8 O 0.8678(3) 0.5904(3) 0.3830(2)
O9 O 0.8297(3) 0.5399(3) 0.2057(2)
C13 C 0.9020(4) 0.5953(4) 0.2959(3)
Cu3 Cu 0.88742(5) 0.59637(5) 0.08777(4)
O21 O 0.7980(4) 0.7756(4) 0.1609(3)
H21 H 0.7982 0.8156 0.1383
H22 H 0.8217 0.7094 0.1317
C40 C 0.6330(4) 0.4132(4) 0.0019(3)
H30 H 0.6405 0.3966 0.0671
O16 O 0.8656(3) 0.6157(3) 0.5915(2)
H16 H 0.8630 0.5555 0.6155
H17 H 0.9381 0.6238 0.5626
C22 C 0.2323(4) 0.1162(3) 0.4425(3)
O18 O 0.7200(4) 0.3364(3) 0.2693(2)
H18 H 0.6351 0.3232 0.2473
H19 H 0.7603 0.3901 0.2441
C23 C 0.3191(4) 0.1700(3) 0.3841(3)
N5 N 0.9464(3) 0.3233(3) 0.8093(2)
O19 O 0.3747(4) 0.1867(4) 0.6096(3)
N6 N 0.7306(3) 0.4951(3) 0.9840(2)
C24 C 0.2836(5) 0.1369(4) 0.2739(3)
H20 H 0.3400 0.1703 0.2325
O22 O 0.5602(3) 0.2440(3) 0.4178(3)
C25 C 0.1650(5) 0.0547(4) 0.2262(4)
H23 H 0.1406 0.0324 0.1525
C26 C 0.0819(4) 0.0052(4) 0.2893(3)
C27 C 0.2580(4) 0.1410(4) 0.5616(3)
O25 O 0.8611(3) 0.3528(3) 0.4778(2)
C28 C 0.4443(4) 0.2666(3) 0.4330(3)
C29 C 0.9622(4) 0.3276(3) 0.7095(3)
C30 C 0.8620(4) 0.2684(3) 0.6232(3)
O27 O 0.9415(3) 0.6447(3) 0.9648(2)
C31 C 0.7395(4) 0.2053(4) 0.6430(3)
H25 H 0.6688 0.1665 0.5872
O28 O 0.8527(4) 0.6523(3) 0.8077(3)
O29 O 0.6640(3) 0.4576(3) 0.6371(2)
C32 C 0.7243(4) 0.2012(4) 0.7448(4)
H26 H 0.6437 0.1593 0.7585
C33 C 0.8301(4) 0.2600(4) 0.8265(3)
H27 H 0.8206 0.2557 0.8952
C35 C 0.8801(4) 0.2639(3) 0.5099(3)
C36 C 0.7229(4) 0.5216(3) 0.8900(3)
C37 C 0.6104(4) 0.4677(3) 0.8116(3)
C38 C 0.5068(4) 0.3834(4) 0.8325(3)
H28 H 0.4284 0.3485 0.7830
C39 C 0.5209(4) 0.3523(4) 0.9258(3)
H29 H 0.4565 0.2918 0.9373
C41 C 0.8463(5) 0.6131(4) 0.8842(3)
C42 C 0.5854(4) 0.4900(3) 0.7043(3)
H24 H 0.0013 0.9498 0.2575
loop_
_geom_bond_atom_site_label_1
_geom_bond_atom_site_label_2
_geom_bond_site_symmetry_1
_geom_bond_site_symmetry_2
N7 Cu1 1_555 1_555
O31 Cu1 1_555 1_555
O36 Cu1_2 1_555 1_555
O37 Cu1_3 1_555 1_555
Nd1 O1 1_555 1_555
Cu1_4 N1 1_555 1_555
O1 H1 1_555 1_555
H2 O1 1_555 1_555
C1 N1 1_555 1_555
N1 C5 1_555 1_555
O2 Cu1_4 1_555 1_555
O3 Nd1 1_555 1_555
H3 O3 1_555 1_555
H4 O3 1_555 1_555
C2 C1 1_555 1_555
N2 C8 1_555 1_555
O4 C6 1_555 1_555
N3 C15 1_555 1_555
O5 Nd1 1_555 1_555
C3 C2 1_555 1_555
H5 C3 1_555 1_555
O7 Nd1 1_555 1_555
C4 C3 1_555 1_555
H8 C4 1_555 1_555
C5 C4 1_555 1_555
C6 C1 1_555 1_555
O10 Nd1 1_555 1_555
C7 C2 1_555 1_555
O36 C14 1_555 1_555
C8 C9 1_555 1_555
C9 C10 1_555 1_555
C10 H10 1_555 1_555
O13 C20 1_555 1_555
O14 Nd1 1_555 1_555
C11 C10 1_555 1_555
H11 C11 1_555 1_555
O15 C21 1_555 1_555
C12 N2 1_555 1_555
H12 C12 1_555 1_555
C14 O10 1_555 1_555
C15 C16 1_555 1_555
C16 C17 1_555 1_555
C17 H13 1_555 1_555
C18 C17 1_555 1_555
H14 C18 1_555 1_555
C20 O12 1_555 1_555
C21 O14 1_555 1_555
Nd6 O5 1_555 1_555
O33 Nd1 1_555 1_555
O35 Nd1 1_555 1_555
O39 Nd1 1_555 1_555
O2 C6 1_555 1_555
O5 C7 1_555 1_555
O7 C7 1_555 1_555
C9 C14 1_555 1_555
C11 C12 1_555 1_555
O15 Nd6 1_555 1_555
C15 C20 1_555 1_555
C16 C21 1_555 1_555
Nd6 O33 1_555 1_555
O6 Cu2 1_555 1_555
H6 O6 1_555 1_555
H7 O6 1_555 1_555
H15 C19 1_555 1_555
O35 C34 1_555 1_555
O24 Cu2 1_555 1_555
C34 O24 1_555 1_555
O8 C13 1_555 1_555
O9 C13 1_555 1_555
O21 Cu3 1_555 1_555
H21 O21 1_555 1_555
H22 O21 1_555 1_555
H30 C40 1_555 1_555
Nd6 O8 1_555 1_555
O9 Cu3 1_555 1_555
Nd6 O16 1_555 1_555
O16 H16 1_555 1_555
H17 O16 1_555 1_555
C22 N7 1_555 1_555
N7 C26 1_555 1_555
O31 C27 1_555 1_555
O18 Nd6 1_555 1_555
H18 O18 1_555 1_555
H19 O18 1_555 1_555
C23 C22 1_555 1_555
O19 C27 1_555 1_555
C24 C23 1_555 1_555
H20 C24 1_555 1_555
O22 Nd6 1_555 1_555
C25 C24 1_555 1_555
H23 C25 1_555 1_555
C26 C25 1_555 1_555
C27 C22 1_555 1_555
O25 Nd6 1_555 1_555
C28 C23 1_555 1_555
O37 C35 1_555 1_555
C29 N5 1_555 1_555
C30 C29 1_555 1_555
C31 C30 1_555 1_555
H25 C31 1_555 1_555
O28 C41 1_555 1_555
O29 Nd6 1_555 1_555
C32 C31 1_555 1_555
H26 C32 1_555 1_555
O39 C42 1_555 1_555
C33 N5 1_555 1_555
H27 C33 1_555 1_555
C35 O25 1_555 1_555
C36 N6 1_555 1_555
C37 C36 1_555 1_555
C38 C37 1_555 1_555
H28 C38 1_555 1_555
C39 C38 1_555 1_555
H29 C39 1_555 1_555
C41 O27 1_555 1_555
C42 O29 1_555 1_555
O33 C28 1_555 1_555
O22 C28 1_555 1_555
C30 C35 1_555 1_555
C32 C33 1_555 1_555
C36 C41 1_555 1_555
C37 C42 1_555 1_555

#END
