
###############################################################################
#
# This file contains modified crystal structure data generated from the
# MOF subset of the Cambridge Structural Database (CSD) v543 
# hosted by the Cambridge Crystallographic Data Centre (CCDC).
#
# This work is licensed under the Creative Commons
# Attribution-NonCommercial-ShareAlike 4.0 International License.
# To view a copy of this license, visit
# http://creativecommons.org/licenses/by-nc-sa/4.0/
# or send a letter to
# Creative Commons, PO Box 1866, Mountain View, CA 94042, USA.
#
# CIF created using the CSD Python API on 29 September 2022
# The structure has been converted into the P1 space group
# The structure has a 3D framework
# The original CSD entry OHOFEW is in the trigonal crystal system
# The original CSD entry OHOFEW is in a Sohncke space group
# The framework has been calculated to contain at least 10.0% void space
# The void calculation uses a probe of radius 1.32A, grid spacing 0.4
#
###############################################################################

data_OHOFEW
_chemical_formula_moiety         '(C60 H84 Co5 N24 O18 S6)n'
_symmetry_cell_setting           triclinic
_symmetry_space_group_name_H-M   'P 1'
_symmetry_Int_Tables_number      1
_space_group_name_Hall           'P 1'
loop_
_symmetry_equiv_pos_site_id
_symmetry_equiv_pos_as_xyz
1 x,y,z
_cell_length_a                   19.3293(14)
_cell_length_b                   19.3293(14)
_cell_length_c                   7.7651(4)
_cell_angle_alpha                90
_cell_angle_beta                 90
_cell_angle_gamma                120
_cell_volume                     2512.52
loop_
_atom_site_label
_atom_site_type_symbol
_atom_site_fract_x
_atom_site_fract_y
_atom_site_fract_z
Co2 Co -0.0000 0.54392(4) 0.5000
H14 H 0.7906(34) 0.2869(36) 0.0093(91)
Co1 Co 0.54392(4) -0.0000 0.5000
S1 S 0.62442(6) 0.05100(6) 0.08587(15)
O1 O 0.6982(2) 0.0575(2) 0.1508(4)
O3 O 0.56214(14) 0.02883(13) 0.2182(4)
N1 N 0.6643(2) 0.0910(2) 0.5356(5)
N2 N 0.7146(2) 0.0780(2) 0.6380(5)
H1 H 0.7096(28) 0.0224(35) 0.6949(77)
N3 N 0.8806(2) 0.4144(2) 0.7268(5)
H2 H 0.8907(26) 0.4518(22) 0.7895(60)
N4 N 0.9183(2) 0.4257(2) 0.5727(5)
C1 C 0.7813(2) 0.1468(2) 0.6799(6)
C2 C 0.7762(3) 0.2075(2) 0.5982(6)
C3 C 0.7037(2) 0.1707(2) 0.5084(6)
C4 C 0.6703(3) 0.2109(3) 0.3997(8)
H3 H 0.6319(38) 0.1760(33) 0.3215(79)
H4 H 0.6513(40) 0.2250(38) 0.5091(94)
H5 H 0.7047(27) 0.2545(28) 0.3687(65)
C5 C 0.8410(3) 0.1478(4) 0.8031(9)
H6 H 0.8803(28) 0.1950(27) 0.7974(62)
H7 H 0.8282(32) 0.1465(39) 0.9300(95)
H8 H 0.8467(36) 0.0990(41) 0.7700(92)
C6 C 0.8279(2) 0.3371(2) 0.7580(7)
C7 C 0.8301(2) 0.2950(2) 0.6187(6)
C8 C 0.8865(2) 0.3506(2) 0.5055(7)
C9 C 0.9120(4) 0.3374(3) 0.3330(8)
H9 H 0.9111(46) 0.3685(42) 0.240(11)
H10 H 0.8686(28) 0.2789(24) 0.2882(55)
H11 H 0.9549(38) 0.3375(35) 0.3406(88)
C10 C 0.7791(4) 0.3114(4) 0.9183(9)
H12 H 0.7851(34) 0.3578(37) 0.9876(83)
H13 H 0.7336(41) 0.2713(40) 0.8979(96)
N10 N 0.5074(3) 0.0817(2) 0.5727(5)
Co2_2 Co 1.0000 0.54392(4) 0.5000
O2 O 0.6363(2) 0.1179(2) 0.9806(4)
Co1_2 Co 0.54392(4) 1.0000 0.5000
O5 O 0.5184(3) 0.8821(2) 0.0194(4)
N5 N 0.5733(3) 0.9090(2) 0.4644(5)
N6 N 0.6366(3) 0.9220(2) 0.3620(5)
H15 H 0.6872(45) 0.9776(35) 0.3051(77)
N7 N 0.4662(3) 0.5856(2) 0.2732(5)
H16 H 0.4389(34) 0.5482(22) 0.2105(60)
N8 N 0.4926(3) 0.5743(2) 0.4273(5)
C11 C 0.6345(3) 0.8532(2) 0.3201(6)
C12 C 0.5687(4) 0.7925(2) 0.4018(6)
C13 C 0.5330(3) 0.8293(2) 0.4916(6)
C14 C 0.4594(4) 0.7891(3) 0.6003(8)
H17 H 0.4559(50) 0.8240(33) 0.6785(79)
H18 H 0.4263(55) 0.7750(38) 0.4909(94)
H19 H 0.4502(39) 0.7455(28) 0.6313(65)
C15 C 0.6932(5) 0.8522(4) 0.1969(9)
H20 H 0.6853(39) 0.8050(27) 0.2026(62)
H21 H 0.6817(50) 0.8535(39) 0.0700(95)
H22 H 0.7477(55) 0.9010(41) 0.2300(92)
C16 C 0.4908(3) 0.6629(2) 0.2420(7)
C17 C 0.5351(3) 0.7050(2) 0.3813(6)
C18 C 0.5359(3) 0.6494(2) 0.4945(7)
C19 C 0.5746(5) 0.6626(3) 0.6670(8)
H23 H 0.5426(62) 0.6315(42) 0.760(11)
H24 H 0.5897(37) 0.7211(24) 0.7118(55)
H25 H 0.6174(52) 0.6625(35) 0.6594(88)
C20 C 0.4677(6) 0.6886(4) 0.0817(9)
H26 H 0.4273(50) 0.6422(37) 0.0124(83)
H27 H 0.4623(57) 0.7287(40) 0.1021(96)
O7 O 0.53331(19) 0.97117(13) 0.7818(4)
N9 N 0.4257(2) 0.9183(2) 0.4273(5)
Co4 Co 0.45608(4) 0.45608(4) 0.5000
S2 S 0.57342(8) 0.94900(6) 0.91413(15)
O4 O 0.6407(3) 0.9425(2) 0.8492(4)
H28 H 0.5037(50) 0.7131(36) 0.9907(91)
O5_2 O 0.1179(2) 0.6363(4) 0.0194(4)
N5_2 N 0.0910(2) 0.6643(4) 0.4644(5)
N6_2 N 0.0780(2) 0.7146(4) 0.3620(5)
H15_2 H 0.0224(35) 0.7096(57) 0.3051(77)
N7_2 N 0.4144(2) 0.8806(4) 0.2732(5)
H16_2 H 0.4518(22) 0.8907(40) 0.2105(60)
C11_2 C 0.1468(2) 0.7813(4) 0.3201(6)
C12_2 C 0.2075(2) 0.7762(4) 0.4018(6)
C13_2 C 0.1707(2) 0.7037(4) 0.4916(6)
C14_2 C 0.2109(3) 0.6703(5) 0.6003(8)
H17_2 H 0.1760(33) 0.6319(60) 0.6785(79)
H18_2 H 0.2250(38) 0.6513(67) 0.4909(94)
H19_2 H 0.2545(28) 0.7047(48) 0.6313(65)
C15_2 C 0.1478(4) 0.8410(6) 0.1969(9)
H20_2 H 0.1950(27) 0.8803(47) 0.2026(62)
H21_2 H 0.1465(39) 0.8282(63) 0.0700(95)
H22_2 H 0.0990(41) 0.8467(69) 0.2300(92)
C16_2 C 0.3371(2) 0.8279(4) 0.2420(7)
C17_2 C 0.2950(2) 0.8301(4) 0.3813(6)
C18_2 C 0.3506(2) 0.8865(4) 0.4945(7)
C19_2 C 0.3374(3) 0.9120(6) 0.6670(8)
H23_2 H 0.3685(42) 0.9111(75) 0.760(11)
H24_2 H 0.2789(24) 0.8686(44) 0.7118(55)
H25_2 H 0.3375(35) 0.9549(63) 0.6594(88)
C20_2 C 0.3114(4) 0.7791(7) 0.0817(9)
H26_2 H 0.3578(37) 0.7851(62) 0.0124(83)
H27_2 H 0.2713(40) 0.7336(70) 0.1021(96)
O7_2 O 0.02883(13) 0.56214(23) 0.7818(4)
N9_2 N 0.0817(2) 0.5074(3) 0.4273(5)
S2_2 S 0.05100(6) 0.62442(10) 0.91413(15)
O4_2 O 0.0575(2) 0.6982(4) 0.8492(4)
H28_2 H 0.2869(36) 0.7906(62) 0.9907(91)
H14_2 H 0.7131(36) 0.5037(50) 0.0093(91)
S1_2 S 0.94900(6) 0.57342(8) 0.08587(15)
O1_2 O 0.9425(2) 0.6407(3) 0.1508(4)
O3_2 O 0.97117(13) 0.53331(19) 0.2182(4)
N1_2 N 0.9090(2) 0.5733(3) 0.5356(5)
N2_2 N 0.9220(2) 0.6366(3) 0.6380(5)
H1_2 H 0.9776(35) 0.6872(45) 0.6949(77)
N3_2 N 0.5856(2) 0.4662(3) 0.7268(5)
H2_2 H 0.5482(22) 0.4389(34) 0.7895(60)
N4_2 N 0.5743(2) 0.4926(3) 0.5727(5)
C1_2 C 0.8532(2) 0.6345(3) 0.6799(6)
C2_2 C 0.7925(2) 0.5687(4) 0.5982(6)
C3_2 C 0.8293(2) 0.5330(3) 0.5084(6)
C4_2 C 0.7891(3) 0.4594(4) 0.3997(8)
H3_2 H 0.8240(33) 0.4559(50) 0.3215(79)
H4_2 H 0.7750(38) 0.4263(55) 0.5091(94)
H5_2 H 0.7455(28) 0.4502(39) 0.3687(65)
C5_2 C 0.8522(4) 0.6932(5) 0.8031(9)
H6_2 H 0.8050(27) 0.6853(39) 0.7974(62)
H7_2 H 0.8535(39) 0.6817(50) 0.9300(95)
H8_2 H 0.9010(41) 0.7477(55) 0.7700(92)
C6_2 C 0.6629(2) 0.4908(3) 0.7580(7)
C7_2 C 0.7050(2) 0.5351(3) 0.6187(6)
C8_2 C 0.6494(2) 0.5359(3) 0.5055(7)
C9_2 C 0.6626(3) 0.5746(5) 0.3330(8)
H9_2 H 0.6315(42) 0.5426(62) 0.240(11)
H10_2 H 0.7211(24) 0.5897(37) 0.2882(55)
H11_2 H 0.6625(35) 0.6174(52) 0.3406(88)
C10_2 C 0.6886(4) 0.4677(6) 0.9183(9)
H12_2 H 0.6422(37) 0.4273(50) 0.9876(83)
H13_2 H 0.7287(40) 0.4623(57) 0.8979(96)
O2_2 O 0.8821(2) 0.5184(3) 0.9806(4)
H14_3 H 0.4963(50) 0.2094(34) 0.0093(91)
S1_3 S 0.42658(8) 0.37558(6) 0.08587(15)
O1_3 O 0.3593(3) 0.3018(2) 0.1508(4)
O3_3 O 0.46669(19) 0.43786(14) 0.2182(4)
N1_3 N 0.4267(3) 0.3357(2) 0.5356(5)
N2_3 N 0.3634(3) 0.2854(2) 0.6380(5)
H1_3 H 0.3128(45) 0.2904(28) 0.6949(77)
N3_3 N 0.5338(3) 0.1194(2) 0.7268(5)
H2_3 H 0.5611(34) 0.1093(26) 0.7895(60)
C1_3 C 0.3655(3) 0.2187(2) 0.6799(6)
C2_3 C 0.4313(4) 0.2238(3) 0.5982(6)
C3_3 C 0.4670(3) 0.2963(2) 0.5084(6)
C4_3 C 0.5406(4) 0.3297(3) 0.3997(8)
H3_3 H 0.5441(50) 0.3681(38) 0.3215(79)
H4_3 H 0.5737(55) 0.3487(40) 0.5091(94)
H5_3 H 0.5498(39) 0.2953(27) 0.3687(65)
C5_3 C 0.3068(5) 0.1590(3) 0.8031(9)
H6_3 H 0.3147(39) 0.1197(28) 0.7974(62)
H7_3 H 0.3183(50) 0.1718(32) 0.9300(95)
H8_3 H 0.2523(55) 0.1533(36) 0.7700(92)
C6_3 C 0.5092(3) 0.1721(2) 0.7580(7)
C7_3 C 0.4649(3) 0.1699(2) 0.6187(6)
C8_3 C 0.4641(3) 0.1135(2) 0.5055(7)
C9_3 C 0.4254(5) 0.0880(4) 0.3330(8)
H9_3 H 0.4574(62) 0.0889(46) 0.240(11)
H10_3 H 0.4103(37) 0.1314(28) 0.2882(55)
H11_3 H 0.3826(52) 0.0451(38) 0.3406(88)
C10_3 C 0.5323(6) 0.2209(4) 0.9183(9)
H12_3 H 0.5727(50) 0.2149(34) 0.9876(83)
H13_3 H 0.5377(57) 0.2664(41) 0.8979(96)
O5_3 O 0.3637(4) 0.4816(3) 0.0194(4)
N5_3 N 0.3357(4) 0.4267(3) 0.4644(5)
N6_3 N 0.2854(4) 0.3634(3) 0.3620(5)
H15_3 H 0.2904(57) 0.3128(45) 0.3051(77)
N7_3 N 0.1194(4) 0.5338(3) 0.2732(5)
H16_3 H 0.1093(40) 0.5611(34) 0.2105(60)
C11_3 C 0.2187(4) 0.3655(3) 0.3201(6)
C12_3 C 0.2238(4) 0.4313(4) 0.4018(6)
C13_3 C 0.2963(4) 0.4670(3) 0.4916(6)
C14_3 C 0.3297(5) 0.5406(4) 0.6003(8)
H17_3 H 0.3681(60) 0.5441(50) 0.6785(79)
H18_3 H 0.3487(67) 0.5737(55) 0.4909(94)
H19_3 H 0.2953(48) 0.5498(39) 0.6313(65)
C15_3 C 0.1590(6) 0.3068(5) 0.1969(9)
H20_3 H 0.1197(47) 0.3147(39) 0.2026(62)
H21_3 H 0.1718(63) 0.3183(50) 0.0700(95)
H22_3 H 0.1533(69) 0.2523(55) 0.2300(92)
C16_3 C 0.1721(4) 0.5092(3) 0.2420(7)
C17_3 C 0.1699(4) 0.4649(3) 0.3813(6)
C18_3 C 0.1135(4) 0.4641(3) 0.4945(7)
C19_3 C 0.0880(6) 0.4254(5) 0.6670(8)
H23_3 H 0.0889(75) 0.4574(62) 0.760(11)
H24_3 H 0.1314(44) 0.4103(37) 0.7118(55)
H25_3 H 0.0451(63) 0.3826(52) 0.6594(88)
C20_3 C 0.2209(7) 0.5323(6) 0.0817(9)
H26_3 H 0.2149(62) 0.5727(50) 0.0124(83)
H27_3 H 0.2664(70) 0.5377(57) 0.1021(96)
O7_3 O 0.43786(23) 0.46669(19) 0.7818(4)
O2_3 O 0.4816(3) 0.3637(2) 0.9806(4)
S2_3 S 0.37558(10) 0.42658(8) 0.91413(15)
O4_3 O 0.3018(4) 0.3593(3) 0.8492(4)
H28_3 H 0.2094(62) 0.4963(50) 0.9907(91)
loop_
_geom_bond_atom_site_label_1
_geom_bond_atom_site_label_2
_geom_bond_site_symmetry_1
_geom_bond_site_symmetry_2
Co1 O3 1_555 1_555
S1 O1 1_555 1_555
O3 S1 1_555 1_555
N1 Co1 1_555 1_555
N2 N1 1_555 1_555
H1 N2 1_555 1_555
N3 H2 1_555 1_555
N4 N3 1_555 1_555
C1 N2 1_555 1_555
C2 C1 1_555 1_555
C3 N1 1_555 1_555
C4 C3 1_555 1_555
H3 C4 1_555 1_555
H4 C4 1_555 1_555
H5 C4 1_555 1_555
C5 C1 1_555 1_555
H6 C5 1_555 1_555
H7 C5 1_555 1_555
H8 C5 1_555 1_555
C6 N3 1_555 1_555
C7 C2 1_555 1_555
C8 N4 1_555 1_555
C9 C8 1_555 1_555
H9 C9 1_555 1_555
H10 C9 1_555 1_555
H11 C9 1_555 1_555
C10 C6 1_555 1_555
H12 C10 1_555 1_555
H13 C10 1_555 1_555
N10 Co1 1_555 1_555
Co2_2 N4 1_555 1_555
C2 C3 1_555 1_555
C6 C7 1_555 1_555
C7 C8 1_555 1_555
N5 Co1_2 1_555 1_555
N6 N5 1_555 1_555
H15 N6 1_555 1_555
N7 H16 1_555 1_555
N8 N7 1_555 1_555
C11 N6 1_555 1_555
C12 C11 1_555 1_555
C13 N5 1_555 1_555
C14 C13 1_555 1_555
H17 C14 1_555 1_555
H18 C14 1_555 1_555
H19 C14 1_555 1_555
C15 C11 1_555 1_555
H20 C15 1_555 1_555
H21 C15 1_555 1_555
H22 C15 1_555 1_555
C16 N7 1_555 1_555
C17 C12 1_555 1_555
C18 N8 1_555 1_555
C19 C18 1_555 1_555
H23 C19 1_555 1_555
H24 C19 1_555 1_555
H25 C19 1_555 1_555
C20 C16 1_555 1_555
H26 C20 1_555 1_555
H27 C20 1_555 1_555
O7 Co1_2 1_555 1_555
N9 Co1_2 1_555 1_555
Co4 N8 1_555 1_555
C12 C13 1_555 1_555
C16 C17 1_555 1_555
C17 C18 1_555 1_555
O4 S2 1_555 1_555
O7 S2 1_555 1_555
N5_2 Co2 1_555 1_555
N6_2 N5_2 1_555 1_555
H15_2 N6_2 1_555 1_555
N7_2 H16_2 1_555 1_555
N9 N7_2 1_555 1_555
C11_2 N6_2 1_555 1_555
C12_2 C11_2 1_555 1_555
C13_2 N5_2 1_555 1_555
C14_2 C13_2 1_555 1_555
H17_2 C14_2 1_555 1_555
H18_2 C14_2 1_555 1_555
H19_2 C14_2 1_555 1_555
C15_2 C11_2 1_555 1_555
H20_2 C15_2 1_555 1_555
H21_2 C15_2 1_555 1_555
H22_2 C15_2 1_555 1_555
C16_2 N7_2 1_555 1_555
C17_2 C12_2 1_555 1_555
C18_2 N9 1_555 1_555
C19_2 C18_2 1_555 1_555
H23_2 C19_2 1_555 1_555
H24_2 C19_2 1_555 1_555
H25_2 C19_2 1_555 1_555
C20_2 C16_2 1_555 1_555
H26_2 C20_2 1_555 1_555
H27_2 C20_2 1_555 1_555
O7_2 Co2 1_555 1_555
N9_2 Co2 1_555 1_555
C12_2 C13_2 1_555 1_555
C16_2 C17_2 1_555 1_555
C17_2 C18_2 1_555 1_555
O4_2 S2_2 1_555 1_555
O7_2 S2_2 1_555 1_555
Co2_2 O3_2 1_555 1_555
S1_2 O1_2 1_555 1_555
O3_2 S1_2 1_555 1_555
N1_2 Co2_2 1_555 1_555
N2_2 N1_2 1_555 1_555
H1_2 N2_2 1_555 1_555
N3_2 H2_2 1_555 1_555
N4_2 N3_2 1_555 1_555
C1_2 N2_2 1_555 1_555
C2_2 C1_2 1_555 1_555
C3_2 N1_2 1_555 1_555
C4_2 C3_2 1_555 1_555
H3_2 C4_2 1_555 1_555
H4_2 C4_2 1_555 1_555
H5_2 C4_2 1_555 1_555
C5_2 C1_2 1_555 1_555
H6_2 C5_2 1_555 1_555
H7_2 C5_2 1_555 1_555
H8_2 C5_2 1_555 1_555
C6_2 N3_2 1_555 1_555
C7_2 C2_2 1_555 1_555
C8_2 N4_2 1_555 1_555
C9_2 C8_2 1_555 1_555
H9_2 C9_2 1_555 1_555
H10_2 C9_2 1_555 1_555
H11_2 C9_2 1_555 1_555
C10_2 C6_2 1_555 1_555
H12_2 C10_2 1_555 1_555
H13_2 C10_2 1_555 1_555
Co4 N4_2 1_555 1_555
C2_2 C3_2 1_555 1_555
C6_2 C7_2 1_555 1_555
C7_2 C8_2 1_555 1_555
Co4 O3_3 1_555 1_555
S1_3 O1_3 1_555 1_555
O3_3 S1_3 1_555 1_555
N1_3 Co4 1_555 1_555
N2_3 N1_3 1_555 1_555
H1_3 N2_3 1_555 1_555
N3_3 H2_3 1_555 1_555
N10 N3_3 1_555 1_555
C1_3 N2_3 1_555 1_555
C2_3 C1_3 1_555 1_555
C3_3 N1_3 1_555 1_555
C4_3 C3_3 1_555 1_555
H3_3 C4_3 1_555 1_555
H4_3 C4_3 1_555 1_555
H5_3 C4_3 1_555 1_555
C5_3 C1_3 1_555 1_555
H6_3 C5_3 1_555 1_555
H7_3 C5_3 1_555 1_555
H8_3 C5_3 1_555 1_555
C6_3 N3_3 1_555 1_555
C7_3 C2_3 1_555 1_555
C8_3 N10 1_555 1_555
C9_3 C8_3 1_555 1_555
H9_3 C9_3 1_555 1_555
H10_3 C9_3 1_555 1_555
H11_3 C9_3 1_555 1_555
C10_3 C6_3 1_555 1_555
H12_3 C10_3 1_555 1_555
H13_3 C10_3 1_555 1_555
N5_3 Co4 1_555 1_555
N6_3 N5_3 1_555 1_555
H15_3 N6_3 1_555 1_555
N7_3 H16_3 1_555 1_555
N9_2 N7_3 1_555 1_555
C11_3 N6_3 1_555 1_555
C12_3 C11_3 1_555 1_555
C13_3 N5_3 1_555 1_555
C14_3 C13_3 1_555 1_555
H17_3 C14_3 1_555 1_555
H18_3 C14_3 1_555 1_555
H19_3 C14_3 1_555 1_555
C15_3 C11_3 1_555 1_555
H20_3 C15_3 1_555 1_555
H21_3 C15_3 1_555 1_555
H22_3 C15_3 1_555 1_555
C16_3 N7_3 1_555 1_555
C17_3 C12_3 1_555 1_555
C18_3 N9_2 1_555 1_555
C19_3 C18_3 1_555 1_555
H23_3 C19_3 1_555 1_555
H24_3 C19_3 1_555 1_555
H25_3 C19_3 1_555 1_555
C20_3 C16_3 1_555 1_555
H26_3 C20_3 1_555 1_555
H27_3 C20_3 1_555 1_555
O7_3 Co4 1_555 1_555
C2_3 C3_3 1_555 1_555
C6_3 C7_3 1_555 1_555
C7_3 C8_3 1_555 1_555
C12_3 C13_3 1_555 1_555
C16_3 C17_3 1_555 1_555
C17_3 C18_3 1_555 1_555
O4_3 S2_3 1_555 1_555
O7_3 S2_3 1_555 1_555

#END
