
###############################################################################
#
# This file contains modified crystal structure data generated from the
# MOF subset of the Cambridge Structural Database (CSD) v543 
# hosted by the Cambridge Crystallographic Data Centre (CCDC).
#
# This work is licensed under the Creative Commons
# Attribution-NonCommercial-ShareAlike 4.0 International License.
# To view a copy of this license, visit
# http://creativecommons.org/licenses/by-nc-sa/4.0/
# or send a letter to
# Creative Commons, PO Box 1866, Mountain View, CA 94042, USA.
#
# CIF created using the CSD Python API on 29 September 2022
# The structure has been converted into the P1 space group
# The structure has a 3D framework
# The original CSD entry OHOFIA is in the trigonal crystal system
# The original CSD entry OHOFIA is in a Sohncke space group
# The framework has been calculated to contain at least 10.0% void space
# The void calculation uses a probe of radius 1.32A, grid spacing 0.4
#
###############################################################################

data_OHOFIA
_chemical_formula_moiety         '(C60 H84 Co5 N24 O18 S6)n'
_symmetry_cell_setting           triclinic
_symmetry_space_group_name_H-M   'P 1'
_symmetry_Int_Tables_number      1
_space_group_name_Hall           'P 1'
loop_
_symmetry_equiv_pos_site_id
_symmetry_equiv_pos_as_xyz
1 x,y,z
_cell_length_a                   19.311(3)
_cell_length_b                   19.311(3)
_cell_length_c                   7.772(2)
_cell_angle_alpha                90
_cell_angle_beta                 90
_cell_angle_gamma                120
_cell_volume                     2510
loop_
_atom_site_label
_atom_site_type_symbol
_atom_site_fract_x
_atom_site_fract_y
_atom_site_fract_z
S2 S 0.42461(9) 0.05124(7) 0.08632(11)
O4 O 0.3578(3) 0.0573(2) 0.1498(3)
O6 O 0.4643(3) 0.0290(2) 0.2176(3)
Co3 Co 0.45427(4) -0.0000 0.5000
O5 O 0.4801(3) 0.1185(2) 0.9816(3)
N5 N 0.4244(3) 0.0914(2) 0.5353(4)
N6 N 0.3618(3) 0.0791(2) 0.6385(4)
H15 H 0.3281(34) 0.0382(25) 0.6730(40)
N7 N 0.5346(3) 0.4155(2) 0.7290(4)
H16 H 0.5712(50) 0.4565(35) 0.8016(61)
N8 N 0.5082(3) 0.4264(2) 0.5725(4)
C11 C 0.3648(4) 0.1480(2) 0.6817(5)
C12 C 0.4304(4) 0.2086(3) 0.5976(4)
C13 C 0.4658(4) 0.1712(2) 0.5095(4)
C14 C 0.5395(4) 0.2122(3) 0.4029(5)
H17 H 0.5513(4) 0.1732(3) 0.3563(5)
H18 H 0.5833(4) 0.2494(3) 0.4729(5)
H19 H 0.5312(4) 0.2403(3) 0.3106(5)
C15 C 0.3050(4) 0.1494(3) 0.8023(5)
H20 H 0.2671(4) 0.0958(3) 0.8364(5)
H21 H 0.2776(4) 0.1729(3) 0.7455(5)
H22 H 0.3321(4) 0.1804(3) 0.9022(5)
C16 C 0.5100(4) 0.3393(3) 0.7598(5)
C17 C 0.4647(4) 0.2959(3) 0.6192(4)
C18 C 0.4656(3) 0.3533(2) 0.5059(4)
C19 C 0.4259(4) 0.3385(3) 0.3336(5)
H23 H 0.4364(4) 0.3884(3) 0.2845(5)
H24 H 0.3693(4) 0.3041(3) 0.3469(5)
H25 H 0.4466(4) 0.3135(3) 0.2591(5)
C20 C 0.5324(4) 0.3120(3) 0.9226(5)
H26 H 0.5646(4) 0.3575(3) 0.9943(5)
H27 H 0.5622(4) 0.2861(3) 0.8933(5)
H28 H 0.4847(4) 0.2752(3) 0.9834(5)
N9 N 0.5736(2) 0.0818(2) 0.5725(4)
Co4 Co 0.54573(4) 0.54573(4) 0.5000
O2 O 0.3616(2) 0.8815(2) 0.0184(3)
Co3_2 Co 0.45427(4) 1.0000 0.5000
S1 S 0.37337(6) 0.94876(7) 0.91368(11)
O1 O 0.3005(2) 0.9427(2) 0.8502(3)
O3 O 0.4353(2) 0.9710(2) 0.7824(3)
N1 N 0.3330(2) 0.9086(2) 0.4647(4)
N2 N 0.2827(2) 0.9209(2) 0.3615(4)
H1 H 0.2899(23) 0.9618(25) 0.3270(40)
N3 N 0.1191(2) 0.5845(2) 0.2710(4)
H2 H 0.1147(36) 0.5435(35) 0.1984(61)
N4 N 0.0818(2) 0.5736(2) 0.4275(4)
C1 C 0.2168(3) 0.8520(2) 0.3183(5)
C2 C 0.2218(3) 0.7914(3) 0.4024(4)
C3 C 0.2946(3) 0.8288(2) 0.4905(4)
C4 C 0.3273(3) 0.7878(3) 0.5971(5)
H3 H 0.3781(3) 0.8268(3) 0.6437(5)
H4 H 0.3339(3) 0.7506(3) 0.5271(5)
H5 H 0.2909(3) 0.7597(3) 0.6894(5)
C5 C 0.1556(3) 0.8506(3) 0.1977(5)
H6 H 0.1713(3) 0.9042(3) 0.1636(5)
H7 H 0.1047(3) 0.8271(3) 0.2545(5)
H8 H 0.1517(3) 0.8196(3) 0.0978(5)
C6 C 0.1707(3) 0.6607(3) 0.2402(5)
C7 C 0.1688(2) 0.7041(3) 0.3808(4)
C8 C 0.1123(2) 0.6467(2) 0.4941(4)
C9 C 0.0874(3) 0.6615(3) 0.6664(5)
H9 H 0.0480(3) 0.6116(3) 0.7155(5)
H10 H 0.0652(3) 0.6959(3) 0.6531(5)
H11 H 0.1331(3) 0.6865(3) 0.7409(5)
C10 C 0.2204(3) 0.6880(3) 0.0774(5)
H12 H 0.2071(3) 0.6425(3) 0.0057(5)
H13 H 0.2761(3) 0.7139(3) 0.1067(5)
H14 H 0.2095(3) 0.7248(3) 0.0166(5)
N10 N 0.4918(3) 0.9182(2) 0.4275(4)
Co2 Co -0.0000 0.45427(4) 0.5000
Co2_2 Co 1.0000 0.45427(4) 0.5000
O2_2 O 0.1185(2) 0.4801(3) 0.0184(3)
S1_2 S 0.05124(7) 0.42461(9) 0.91368(11)
O1_2 O 0.0573(2) 0.3578(3) 0.8502(3)
O3_2 O 0.0290(2) 0.4643(3) 0.7824(3)
N1_2 N 0.0914(2) 0.4244(3) 0.4647(4)
N2_2 N 0.0791(2) 0.3618(3) 0.3615(4)
H1_2 H 0.0382(25) 0.3281(34) 0.3270(40)
N3_2 N 0.4155(2) 0.5346(3) 0.2710(4)
H2_2 H 0.4565(35) 0.5712(50) 0.1984(61)
N4_2 N 0.4264(2) 0.5082(3) 0.4275(4)
C1_2 C 0.1480(2) 0.3648(4) 0.3183(5)
C2_2 C 0.2086(3) 0.4304(4) 0.4024(4)
C3_2 C 0.1712(2) 0.4658(4) 0.4905(4)
C4_2 C 0.2122(3) 0.5395(4) 0.5971(5)
H3_2 H 0.1732(3) 0.5513(4) 0.6437(5)
H4_2 H 0.2494(3) 0.5833(4) 0.5271(5)
H5_2 H 0.2403(3) 0.5312(4) 0.6894(5)
C5_2 C 0.1494(3) 0.3050(4) 0.1977(5)
H6_2 H 0.0958(3) 0.2671(4) 0.1636(5)
H7_2 H 0.1729(3) 0.2776(4) 0.2545(5)
H8_2 H 0.1804(3) 0.3321(4) 0.0978(5)
C6_2 C 0.3393(3) 0.5100(4) 0.2402(5)
C7_2 C 0.2959(3) 0.4647(4) 0.3808(4)
C8_2 C 0.3533(2) 0.4656(3) 0.4941(4)
C9_2 C 0.3385(3) 0.4259(4) 0.6664(5)
H9_2 H 0.3884(3) 0.4364(4) 0.7155(5)
H10_2 H 0.3041(3) 0.3693(4) 0.6531(5)
H11_2 H 0.3135(3) 0.4466(4) 0.7409(5)
C10_2 C 0.3120(3) 0.5324(4) 0.0774(5)
H12_2 H 0.3575(3) 0.5646(4) 0.0057(5)
H13_2 H 0.2861(3) 0.5622(4) 0.1067(5)
H14_2 H 0.2752(3) 0.4847(4) 0.0166(5)
S2_2 S 0.94876(7) 0.37337(11) 0.08632(11)
O4_2 O 0.9427(2) 0.3005(4) 0.1498(3)
O6_2 O 0.9710(2) 0.4353(4) 0.2176(3)
O5_2 O 0.8815(2) 0.3616(4) 0.9816(3)
N5_2 N 0.9086(2) 0.3330(4) 0.5353(4)
N6_2 N 0.9209(2) 0.2827(4) 0.6385(4)
H15_2 H 0.9618(25) 0.2899(42) 0.6730(40)
N7_2 N 0.5845(2) 0.1191(4) 0.7290(4)
H16_2 H 0.5435(35) 0.1147(61) 0.8016(61)
C11_2 C 0.8520(2) 0.2168(4) 0.6817(5)
C12_2 C 0.7914(3) 0.2218(5) 0.5976(4)
C13_2 C 0.8288(2) 0.2946(4) 0.5095(4)
C14_2 C 0.7878(3) 0.3273(5) 0.4029(5)
H17_2 H 0.8268(3) 0.3781(5) 0.3563(5)
H18_2 H 0.7506(3) 0.3339(5) 0.4729(5)
H19_2 H 0.7597(3) 0.2909(5) 0.3106(5)
C15_2 C 0.8506(3) 0.1556(5) 0.8023(5)
H20_2 H 0.9042(3) 0.1713(5) 0.8364(5)
H21_2 H 0.8271(3) 0.1047(5) 0.7455(5)
H22_2 H 0.8196(3) 0.1517(5) 0.9022(5)
C16_2 C 0.6607(3) 0.1707(5) 0.7598(5)
C17_2 C 0.7041(3) 0.1688(5) 0.6192(4)
C18_2 C 0.6467(2) 0.1123(4) 0.5059(4)
C19_2 C 0.6615(3) 0.0874(5) 0.3336(5)
H23_2 H 0.6116(3) 0.0480(5) 0.2845(5)
H24_2 H 0.6959(3) 0.0652(5) 0.3469(5)
H25_2 H 0.6865(3) 0.1331(5) 0.2591(5)
C20_2 C 0.6880(3) 0.2204(5) 0.9226(5)
H26_2 H 0.6425(3) 0.2071(5) 0.9943(5)
H27_2 H 0.7139(3) 0.2761(5) 0.8933(5)
H28_2 H 0.7248(3) 0.2095(5) 0.9834(5)
N9_2 N 0.9182(2) 0.4918(3) 0.5725(4)
O2_3 O 0.5199(3) 0.6384(2) 0.0184(3)
S2_3 S 0.62663(11) 0.57539(9) 0.08632(11)
O4_3 O 0.6995(4) 0.6422(3) 0.1498(3)
O6_3 O 0.5647(4) 0.5357(3) 0.2176(3)
S1_3 S 0.57539(9) 0.62663(6) 0.91368(11)
O1_3 O 0.6422(3) 0.6995(2) 0.8502(3)
O3_3 O 0.5357(3) 0.5647(2) 0.7824(3)
N1_3 N 0.5756(3) 0.6670(2) 0.4647(4)
N2_3 N 0.6382(3) 0.7173(2) 0.3615(4)
H1_3 H 0.6719(34) 0.7101(23) 0.3270(40)
N3_3 N 0.4654(3) 0.8809(2) 0.2710(4)
H2_3 H 0.4288(50) 0.8853(36) 0.1984(61)
C1_3 C 0.6352(4) 0.7832(3) 0.3183(5)
C2_3 C 0.5696(4) 0.7782(3) 0.4024(4)
C3_3 C 0.5342(4) 0.7054(3) 0.4905(4)
C4_3 C 0.4605(4) 0.6727(3) 0.5971(5)
H3_3 H 0.4487(4) 0.6219(3) 0.6437(5)
H4_3 H 0.4167(4) 0.6661(3) 0.5271(5)
H5_3 H 0.4688(4) 0.7091(3) 0.6894(5)
C5_3 C 0.6950(4) 0.8444(3) 0.1977(5)
H6_3 H 0.7329(4) 0.8287(3) 0.1636(5)
H7_3 H 0.7224(4) 0.8953(3) 0.2545(5)
H8_3 H 0.6679(4) 0.8483(3) 0.0978(5)
C6_3 C 0.4900(4) 0.8293(3) 0.2402(5)
C7_3 C 0.5353(4) 0.8312(2) 0.3808(4)
C8_3 C 0.5344(3) 0.8877(2) 0.4941(4)
C9_3 C 0.5741(4) 0.9126(3) 0.6664(5)
H9_3 H 0.5636(4) 0.9520(3) 0.7155(5)
H10_3 H 0.6307(4) 0.9348(3) 0.6531(5)
H11_3 H 0.5534(4) 0.8669(3) 0.7409(5)
C10_3 C 0.4676(4) 0.7796(3) 0.0774(5)
H12_3 H 0.4354(4) 0.7929(3) 0.0057(5)
H13_3 H 0.4378(4) 0.7239(3) 0.1067(5)
H14_3 H 0.5153(4) 0.7905(3) 0.0166(5)
O5_3 O 0.6384(4) 0.5199(3) 0.9816(3)
N5_3 N 0.6670(4) 0.5756(3) 0.5353(4)
N6_3 N 0.7173(4) 0.6382(3) 0.6385(4)
H15_3 H 0.7101(42) 0.6719(34) 0.6730(40)
N7_3 N 0.8809(4) 0.4654(3) 0.7290(4)
H16_3 H 0.8853(61) 0.4288(50) 0.8016(61)
C11_3 C 0.7832(4) 0.6352(4) 0.6817(5)
C12_3 C 0.7782(5) 0.5696(4) 0.5976(4)
C13_3 C 0.7054(4) 0.5342(4) 0.5095(4)
C14_3 C 0.6727(5) 0.4605(4) 0.4029(5)
H17_3 H 0.6219(5) 0.4487(4) 0.3563(5)
H18_3 H 0.6661(5) 0.4167(4) 0.4729(5)
H19_3 H 0.7091(5) 0.4688(4) 0.3106(5)
C15_3 C 0.8444(5) 0.6950(4) 0.8023(5)
H20_3 H 0.8287(5) 0.7329(4) 0.8364(5)
H21_3 H 0.8953(5) 0.7224(4) 0.7455(5)
H22_3 H 0.8483(5) 0.6679(4) 0.9022(5)
C16_3 C 0.8293(5) 0.4900(4) 0.7598(5)
C17_3 C 0.8312(5) 0.5353(4) 0.6192(4)
C18_3 C 0.8877(4) 0.5344(3) 0.5059(4)
C19_3 C 0.9126(5) 0.5741(4) 0.3336(5)
H23_3 H 0.9520(5) 0.5636(4) 0.2845(5)
H24_3 H 0.9348(5) 0.6307(4) 0.3469(5)
H25_3 H 0.8669(5) 0.5534(4) 0.2591(5)
C20_3 C 0.7796(5) 0.4676(4) 0.9226(5)
H26_3 H 0.7929(5) 0.4354(4) 0.9943(5)
H27_3 H 0.7239(5) 0.4378(4) 0.8933(5)
H28_3 H 0.7905(5) 0.5153(4) 0.9834(5)
loop_
_geom_bond_atom_site_label_1
_geom_bond_atom_site_label_2
_geom_bond_site_symmetry_1
_geom_bond_site_symmetry_2
O4 S2 1_555 1_555
O6 S2 1_555 1_555
Co3 O6 1_555 1_555
N5 Co3 1_555 1_555
N6 N5 1_555 1_555
H15 N6 1_555 1_555
N7 H16 1_555 1_555
N8 N7 1_555 1_555
C11 N6 1_555 1_555
C12 C11 1_555 1_555
C13 N5 1_555 1_555
C14 C13 1_555 1_555
H17 C14 1_555 1_555
H18 C14 1_555 1_555
H19 C14 1_555 1_555
C15 C11 1_555 1_555
H20 C15 1_555 1_555
H21 C15 1_555 1_555
H22 C15 1_555 1_555
C16 N7 1_555 1_555
C17 C12 1_555 1_555
C18 N8 1_555 1_555
C19 C18 1_555 1_555
H23 C19 1_555 1_555
H24 C19 1_555 1_555
H25 C19 1_555 1_555
C20 C16 1_555 1_555
H26 C20 1_555 1_555
H27 C20 1_555 1_555
H28 C20 1_555 1_555
N9 Co3 1_555 1_555
Co4 N8 1_555 1_555
C12 C13 1_555 1_555
C16 C17 1_555 1_555
C17 C18 1_555 1_555
Co3_2 O3 1_555 1_555
S1 O1 1_555 1_555
O3 S1 1_555 1_555
N1 Co3_2 1_555 1_555
N2 N1 1_555 1_555
H1 N2 1_555 1_555
N3 H2 1_555 1_555
N4 N3 1_555 1_555
C1 N2 1_555 1_555
C2 C1 1_555 1_555
C3 N1 1_555 1_555
C4 C3 1_555 1_555
H3 C4 1_555 1_555
H4 C4 1_555 1_555
H5 C4 1_555 1_555
C5 C1 1_555 1_555
H6 C5 1_555 1_555
H7 C5 1_555 1_555
H8 C5 1_555 1_555
C6 N3 1_555 1_555
C7 C2 1_555 1_555
C8 N4 1_555 1_555
C9 C8 1_555 1_555
H9 C9 1_555 1_555
H10 C9 1_555 1_555
H11 C9 1_555 1_555
C10 C6 1_555 1_555
H12 C10 1_555 1_555
H13 C10 1_555 1_555
H14 C10 1_555 1_555
N10 Co3_2 1_555 1_555
Co2 N4 1_555 1_555
C2 C3 1_555 1_555
C6 C7 1_555 1_555
C7 C8 1_555 1_555
Co2 O3_2 1_555 1_555
S1_2 O1_2 1_555 1_555
O3_2 S1_2 1_555 1_555
N1_2 Co2 1_555 1_555
N2_2 N1_2 1_555 1_555
H1_2 N2_2 1_555 1_555
N3_2 H2_2 1_555 1_555
N4_2 N3_2 1_555 1_555
C1_2 N2_2 1_555 1_555
C2_2 C1_2 1_555 1_555
C3_2 N1_2 1_555 1_555
C4_2 C3_2 1_555 1_555
H3_2 C4_2 1_555 1_555
H4_2 C4_2 1_555 1_555
H5_2 C4_2 1_555 1_555
C5_2 C1_2 1_555 1_555
H6_2 C5_2 1_555 1_555
H7_2 C5_2 1_555 1_555
H8_2 C5_2 1_555 1_555
C6_2 N3_2 1_555 1_555
C7_2 C2_2 1_555 1_555
C8_2 N4_2 1_555 1_555
C9_2 C8_2 1_555 1_555
H9_2 C9_2 1_555 1_555
H10_2 C9_2 1_555 1_555
H11_2 C9_2 1_555 1_555
C10_2 C6_2 1_555 1_555
H12_2 C10_2 1_555 1_555
H13_2 C10_2 1_555 1_555
H14_2 C10_2 1_555 1_555
Co4 N4_2 1_555 1_555
C2_2 C3_2 1_555 1_555
C6_2 C7_2 1_555 1_555
C7_2 C8_2 1_555 1_555
O4_2 S2_2 1_555 1_555
O6_2 S2_2 1_555 1_555
Co2_2 O6_2 1_555 1_555
N5_2 Co2_2 1_555 1_555
N6_2 N5_2 1_555 1_555
H15_2 N6_2 1_555 1_555
N7_2 H16_2 1_555 1_555
N9 N7_2 1_555 1_555
C11_2 N6_2 1_555 1_555
C12_2 C11_2 1_555 1_555
C13_2 N5_2 1_555 1_555
C14_2 C13_2 1_555 1_555
H17_2 C14_2 1_555 1_555
H18_2 C14_2 1_555 1_555
H19_2 C14_2 1_555 1_555
C15_2 C11_2 1_555 1_555
H20_2 C15_2 1_555 1_555
H21_2 C15_2 1_555 1_555
H22_2 C15_2 1_555 1_555
C16_2 N7_2 1_555 1_555
C17_2 C12_2 1_555 1_555
C18_2 N9 1_555 1_555
C19_2 C18_2 1_555 1_555
H23_2 C19_2 1_555 1_555
H24_2 C19_2 1_555 1_555
H25_2 C19_2 1_555 1_555
C20_2 C16_2 1_555 1_555
H26_2 C20_2 1_555 1_555
H27_2 C20_2 1_555 1_555
H28_2 C20_2 1_555 1_555
N9_2 Co2_2 1_555 1_555
C12_2 C13_2 1_555 1_555
C16_2 C17_2 1_555 1_555
C17_2 C18_2 1_555 1_555
O4_3 S2_3 1_555 1_555
O6_3 S2_3 1_555 1_555
Co4 O6_3 1_555 1_555
Co4 O3_3 1_555 1_555
S1_3 O1_3 1_555 1_555
O3_3 S1_3 1_555 1_555
N1_3 Co4 1_555 1_555
N2_3 N1_3 1_555 1_555
H1_3 N2_3 1_555 1_555
N3_3 H2_3 1_555 1_555
N10 N3_3 1_555 1_555
C1_3 N2_3 1_555 1_555
C2_3 C1_3 1_555 1_555
C3_3 N1_3 1_555 1_555
C4_3 C3_3 1_555 1_555
H3_3 C4_3 1_555 1_555
H4_3 C4_3 1_555 1_555
H5_3 C4_3 1_555 1_555
C5_3 C1_3 1_555 1_555
H6_3 C5_3 1_555 1_555
H7_3 C5_3 1_555 1_555
H8_3 C5_3 1_555 1_555
C6_3 N3_3 1_555 1_555
C7_3 C2_3 1_555 1_555
C8_3 N10 1_555 1_555
C9_3 C8_3 1_555 1_555
H9_3 C9_3 1_555 1_555
H10_3 C9_3 1_555 1_555
H11_3 C9_3 1_555 1_555
C10_3 C6_3 1_555 1_555
H12_3 C10_3 1_555 1_555
H13_3 C10_3 1_555 1_555
H14_3 C10_3 1_555 1_555
N5_3 Co4 1_555 1_555
N6_3 N5_3 1_555 1_555
H15_3 N6_3 1_555 1_555
N7_3 H16_3 1_555 1_555
N9_2 N7_3 1_555 1_555
C11_3 N6_3 1_555 1_555
C12_3 C11_3 1_555 1_555
C13_3 N5_3 1_555 1_555
C14_3 C13_3 1_555 1_555
H17_3 C14_3 1_555 1_555
H18_3 C14_3 1_555 1_555
H19_3 C14_3 1_555 1_555
C15_3 C11_3 1_555 1_555
H20_3 C15_3 1_555 1_555
H21_3 C15_3 1_555 1_555
H22_3 C15_3 1_555 1_555
C16_3 N7_3 1_555 1_555
C17_3 C12_3 1_555 1_555
C18_3 N9_2 1_555 1_555
C19_3 C18_3 1_555 1_555
H23_3 C19_3 1_555 1_555
H24_3 C19_3 1_555 1_555
H25_3 C19_3 1_555 1_555
C20_3 C16_3 1_555 1_555
H26_3 C20_3 1_555 1_555
H27_3 C20_3 1_555 1_555
H28_3 C20_3 1_555 1_555
C2_3 C3_3 1_555 1_555
C6_3 C7_3 1_555 1_555
C7_3 C8_3 1_555 1_555
C12_3 C13_3 1_555 1_555
C16_3 C17_3 1_555 1_555
C17_3 C18_3 1_555 1_555

#END
