
###############################################################################
#
# This file contains modified crystal structure data generated from the
# MOF subset of the Cambridge Structural Database (CSD) v543 
# hosted by the Cambridge Crystallographic Data Centre (CCDC).
#
# This work is licensed under the Creative Commons
# Attribution-NonCommercial-ShareAlike 4.0 International License.
# To view a copy of this license, visit
# http://creativecommons.org/licenses/by-nc-sa/4.0/
# or send a letter to
# Creative Commons, PO Box 1866, Mountain View, CA 94042, USA.
#
# CIF created using the CSD Python API on 29 September 2022
# The structure has been converted into the P1 space group
# The structure has a 3D framework
# The original CSD entry OJAKUG is in the monoclinic crystal system
# The framework has been calculated to contain at least 10.0% void space
# The void calculation uses a probe of radius 1.32A, grid spacing 0.4
#
###############################################################################

data_OJAKUG
_chemical_formula_moiety         '(C84 H60 O48)n'
_symmetry_cell_setting           triclinic
_symmetry_space_group_name_H-M   'P 1'
_symmetry_Int_Tables_number      1
_space_group_name_Hall           'P 1'
loop_
_symmetry_equiv_pos_site_id
_symmetry_equiv_pos_as_xyz
1 x,y,z
_cell_length_a                   15.1537(16)
_cell_length_b                   16.4660(17)
_cell_length_c                   8.9532(10)
_cell_angle_alpha                90
_cell_angle_beta                 103.587(2)
_cell_angle_gamma                90
_cell_volume                     2171.49
loop_
_atom_site_label
_atom_site_type_symbol
_atom_site_fract_x
_atom_site_fract_y
_atom_site_fract_z
Eu4 Eu 0.04332(3) 0.89354(2) 0.43638(4)
O1 O 0.0091(5) 0.0214(4) 0.7799(7)
O4 O 0.4096(5) 0.1310(5) 0.5631(11)
O5 O 0.6487(4) 0.0138(3) 0.7261(7)
O6 O 0.8002(4) 0.0479(3) 0.6111(7)
O9 O 0.7987(4) 0.1708(3) 0.4278(7)
O10 O 0.9045(5) 0.3191(4) 0.2470(7)
O11 O 0.9580(4) 0.2377(4) 0.4472(7)
C4 C 0.2680(6) 0.0251(6) 0.8551(11)
H3 H 0.2182 0.0587 0.8519
C5 C 0.3409(6) 0.0515(6) 0.7979(11)
H4 H 0.3394 0.1040 0.7588
C6 C 0.4142(6) 0.0044(5) 0.7965(10)
C9 C 0.4815(7) 0.0963(5) 0.6192(13)
C10 C 0.4915(6) 0.0316(5) 0.7314(10)
C12 C 0.6429(6) 0.0745(5) 0.6212(9)
C13 C 0.7219(6) 0.0910(4) 0.5705(9)
C14 C 0.7171(5) 0.1549(5) 0.4658(9)
C15 C 0.6401(6) 0.1991(5) 0.4144(10)
H8 H 0.6398 0.2419 0.3464
C16 C 0.5633(6) 0.1809(6) 0.4623(11)
H9 H 0.5100 0.2094 0.4227
C17 C 0.5645(6) 0.1195(5) 0.5707(10)
C20 C 0.8010(6) 0.2369(5) 0.3260(10)
H12 H 0.7648 0.2814 0.3500
H13 H 0.7752 0.2200 0.2211
C21 C 0.8967(6) 0.2648(5) 0.3407(9)
O12 O 0.0878(6) 0.1822(6) 0.7317(11)
H14 H 0.0696 0.1917 0.8122
H15 H 0.1270 0.1451 0.7523
Eu3 Eu 0.95668(3) 0.10646(2) 0.56362(4)
Eu5 Eu 0.95668(3) 0.39354(2) 0.06362(4)
O16 O 0.0851(4) 0.0352(4) 0.5096(7)
O2 O 0.0761(5) 0.9115(4) 0.7083(8)
O3 O 0.2046(4) 0.9135(4) 0.9785(8)
O7 O 0.8700(7) 0.8464(5) 0.5512(13)
O8 O 0.9149(4) 0.9648(4) 0.4904(7)
C1 C 0.0646(6) 0.9655(5) 0.8032(8)
C2 C 0.1232(5) 0.9588(5) 0.9668(9)
C3 C 0.2713(6) 0.9474(5) 0.9174(10)
C7 C 0.4180(6) 0.9272(5) 0.8640(10)
H5 H 0.4686 0.8944 0.8694
C8 C 0.3471(6) 0.8999(5) 0.9223(11)
H6 H 0.3503 0.8484 0.9658
C11 C 0.5728(6) 0.9969(5) 0.7756(10)
H7 H 0.5782 0.9562 0.8491
C18 C 0.7909(7) 0.9583(6) 0.6138(12)
H10 H 0.7313 0.9424 0.5542
H11 H 0.7969 0.9399 0.7187
C19 C 0.8634(7) 0.9195(6) 0.5474(12)
O13 O 0.9239(5) 0.0885(4) 0.2917(8)
O18 O 0.9045(5) 0.1809(4) 0.7470(7)
O13_2 O 0.0761(5) 0.5885(4) 0.2083(8)
O15 O 0.0851(4) 0.4648(4) 0.0096(7)
O17 O 0.2013(4) 0.6708(3) 0.0722(7)
O19 O 0.0420(4) 0.7377(4) 0.0528(7)
Eu1 Eu 0.04332(3) 0.60646(2) 0.93638(4)
O14 O 0.1998(4) 0.5479(3) 0.8889(7)
O18_2 O 0.0955(5) 0.6809(4) 0.7530(7)
O10_2 O 0.0955(5) 0.8191(4) 0.2530(7)
C14_2 C 0.2829(5) 0.6549(5) 0.0342(9)
C15_2 C 0.3599(6) 0.6991(5) 0.0856(10)
H8_2 H 0.3602 0.7419 0.1536
C16_2 C 0.4367(6) 0.6809(6) 0.0377(11)
H9_2 H 0.4900 0.7094 0.0773
C20_2 C 0.1990(6) 0.7369(5) 0.1740(10)
H12_2 H 0.2352 0.7814 0.1500
H13_2 H 0.2248 0.7200 0.2789
C21_2 C 0.1033(6) 0.7648(5) 0.1593(9)
O1_2 O 0.9909(5) 0.5214(4) 0.7201(7)
O2_2 O 0.9239(5) 0.4115(4) 0.7917(8)
O3_2 O 0.7954(4) 0.4135(4) 0.5215(8)
O4_2 O 0.5904(5) 0.6310(5) 0.9369(11)
O5_2 O 0.3513(4) 0.5138(3) 0.7739(7)
O7_2 O 0.1300(7) 0.3464(5) 0.9488(13)
C1_2 C 0.9354(6) 0.4655(5) 0.6968(8)
C2_2 C 0.8768(5) 0.4588(5) 0.5332(9)
H1 H 0.8610 0.5130 0.4936
H2 H 0.9122 0.4334 0.4689
C3_2 C 0.7287(6) 0.4474(5) 0.5826(10)
C4_2 C 0.7320(6) 0.5251(6) 0.6449(11)
H3_2 H 0.7818 0.5587 0.6481
C5_2 C 0.6591(6) 0.5515(6) 0.7021(11)
H4_2 H 0.6606 0.6040 0.7412
C6_2 C 0.5858(6) 0.5044(5) 0.7035(10)
C7_2 C 0.5820(6) 0.4272(5) 0.6360(10)
H5_2 H 0.5314 0.3944 0.6306
C8_2 C 0.6529(6) 0.3999(5) 0.5777(11)
H6_2 H 0.6497 0.3484 0.5342
C9_2 C 0.5185(7) 0.5963(5) 0.8808(13)
C10_2 C 0.5085(6) 0.5316(5) 0.7686(10)
C11_2 C 0.4272(6) 0.4969(5) 0.7244(10)
H7_2 H 0.4218 0.4562 0.6509
C12_2 C 0.3571(6) 0.5745(5) 0.8788(9)
C13_2 C 0.2781(6) 0.5910(4) 0.9295(9)
C17_2 C 0.4355(6) 0.6195(5) 0.9293(10)
C18_2 C 0.2091(7) 0.4583(6) 0.8862(12)
H10_2 H 0.2687 0.4424 0.9458
H11_2 H 0.2031 0.4399 0.7813
C19_2 C 0.1366(7) 0.4195(6) 0.9526(12)
O12_2 O 0.9122(6) 0.6822(6) 0.7683(11)
H14_2 H 0.9304 0.6917 0.6878
H15_2 H 0.8730 0.6451 0.7477
O16_2 O 0.9149(4) 0.5352(4) 0.9904(7)
O14_2 O 0.1998(4) 0.9521(3) 0.3889(7)
O17_2 O 0.2013(4) 0.8292(3) 0.5722(7)
O19_2 O 0.0420(4) 0.7623(4) 0.5528(7)
O3_3 O 0.7954(4) 0.0865(4) 0.0215(8)
O7_3 O 0.1300(7) 0.1536(5) 0.4488(13)
C1_3 C 0.9354(6) 0.0345(5) 0.1968(8)
C2_3 C 0.8768(5) 0.0412(5) 0.0332(9)
C3_3 C 0.7287(6) 0.0526(5) 0.0826(10)
C7_3 C 0.5820(6) 0.0728(5) 0.1360(10)
H5_3 H 0.5314 0.1056 0.1306
C8_3 C 0.6529(6) 0.1001(5) 0.0777(11)
H6_3 H 0.6497 0.1516 0.0342
C11_3 C 0.4272(6) 0.0031(5) 0.2244(10)
H7_3 H 0.4218 0.0438 0.1509
C18_3 C 0.2091(7) 0.0417(6) 0.3862(12)
H10_3 H 0.2687 0.0576 0.4458
H11_3 H 0.2031 0.0601 0.2813
C19_3 C 0.1366(7) 0.0805(6) 0.4526(12)
O1_3 O 0.9909(5) 0.9786(4) 0.2201(7)
O4_3 O 0.5904(5) 0.8690(5) 0.4369(11)
O5_3 O 0.3513(4) 0.9862(3) 0.2739(7)
C4_3 C 0.7320(6) 0.9749(6) 0.1449(11)
H3_3 H 0.7818 0.9413 0.1481
C5_3 C 0.6591(6) 0.9485(6) 0.2021(11)
H4_3 H 0.6606 0.8960 0.2412
C6_3 C 0.5858(6) 0.9956(5) 0.2035(10)
C9_3 C 0.5185(7) 0.9037(5) 0.3808(13)
C10_3 C 0.5085(6) 0.9684(5) 0.2686(10)
C12_3 C 0.3571(6) 0.9255(5) 0.3788(9)
C13_3 C 0.2781(6) 0.9090(4) 0.4295(9)
C14_3 C 0.2829(5) 0.8451(5) 0.5342(9)
C15_3 C 0.3599(6) 0.8009(5) 0.5856(10)
H8_3 H 0.3602 0.7581 0.6536
C16_3 C 0.4367(6) 0.8191(6) 0.5377(11)
H9_3 H 0.4900 0.7906 0.5773
C17_3 C 0.4355(6) 0.8805(5) 0.4293(10)
C20_3 C 0.1990(6) 0.7631(5) 0.6740(10)
H12_3 H 0.2352 0.7186 0.6500
H13_3 H 0.2248 0.7800 0.7789
C21_3 C 0.1033(6) 0.7352(5) 0.6593(9)
O12_3 O 0.9122(6) 0.8178(6) 0.2683(11)
H14_3 H 0.9304 0.8083 0.1878
H15_3 H 0.8730 0.8549 0.2477
O1_4 O 0.0091(5) 0.4786(4) 0.2799(7)
O3_4 O 0.2046(4) 0.5865(4) 0.4785(8)
O4_4 O 0.4096(5) 0.3690(5) 0.0631(11)
O5_4 O 0.6487(4) 0.4862(3) 0.2261(7)
O6_2 O 0.8002(4) 0.4521(3) 0.1111(7)
O7_4 O 0.8700(7) 0.6536(5) 0.0512(13)
C1_4 C 0.0646(6) 0.5345(5) 0.3032(8)
C2_4 C 0.1232(5) 0.5412(5) 0.4668(9)
H1_2 H 0.1390 0.4870 0.5064
H2_2 H 0.0878 0.5666 0.5311
C3_4 C 0.2713(6) 0.5526(5) 0.4174(10)
C4_4 C 0.2680(6) 0.4749(6) 0.3551(11)
H3_4 H 0.2182 0.4413 0.3519
C5_4 C 0.3409(6) 0.4485(6) 0.2979(11)
H4_4 H 0.3394 0.3960 0.2588
C6_4 C 0.4142(6) 0.4956(5) 0.2965(10)
C7_4 C 0.4180(6) 0.5728(5) 0.3640(10)
H5_4 H 0.4686 0.6056 0.3694
C8_4 C 0.3471(6) 0.6001(5) 0.4223(11)
H6_4 H 0.3503 0.6516 0.4658
C9_4 C 0.4815(7) 0.4037(5) 0.1192(13)
C10_4 C 0.4915(6) 0.4684(5) 0.2314(10)
C11_4 C 0.5728(6) 0.5031(5) 0.2756(10)
H7_4 H 0.5782 0.5438 0.3491
C12_4 C 0.6429(6) 0.4255(5) 0.1212(9)
C13_4 C 0.7219(6) 0.4090(4) 0.0705(9)
C17_4 C 0.5645(6) 0.3805(5) 0.0707(10)
C18_4 C 0.7909(7) 0.5417(6) 0.1138(12)
H10_4 H 0.7313 0.5576 0.0542
H11_4 H 0.7969 0.5601 0.2187
C19_4 C 0.8634(7) 0.5805(6) 0.0474(12)
O12_4 O 0.0878(6) 0.3178(6) 0.2317(11)
H14_4 H 0.0696 0.3083 0.3122
H15_4 H 0.1270 0.3549 0.2523
O9_2 O 0.7987(4) 0.3292(3) 0.9278(7)
O11_2 O 0.9580(4) 0.2623(4) 0.9472(7)
C14_4 C 0.7171(5) 0.3451(5) 0.9658(9)
C15_4 C 0.6401(6) 0.3009(5) 0.9144(10)
H8_4 H 0.6398 0.2581 0.8464
C16_4 C 0.5633(6) 0.3191(6) 0.9623(11)
H9_4 H 0.5100 0.2906 0.9227
C20_4 C 0.8010(6) 0.2631(5) 0.8260(10)
H12_4 H 0.7648 0.2186 0.8500
H13_4 H 0.7752 0.2800 0.7211
C21_4 C 0.8967(6) 0.2352(5) 0.8407(9)
H1_3 H 0.1390 0.0130 0.0064
H2_3 H 0.0878 0.9334 0.0311
H2_4 H 0.9122 0.0666 0.9689
H1_4 H 0.8610 0.9870 0.9936
loop_
_geom_bond_atom_site_label_1
_geom_bond_atom_site_label_2
_geom_bond_site_symmetry_1
_geom_bond_site_symmetry_2
O4 C9 1_555 1_555
O6 C13 1_555 1_555
O9 C14 1_555 1_555
O10 C21 1_555 1_555
O11 C21 1_555 1_555
H3 C4 1_555 1_555
C5 C4 1_555 1_555
H4 C5 1_555 1_555
C6 C5 1_555 1_555
C9 C10 1_555 1_555
C10 C6 1_555 1_555
C12 O5 1_555 1_555
C13 C12 1_555 1_555
C14 C13 1_555 1_555
C15 C14 1_555 1_555
H8 C15 1_555 1_555
C16 C15 1_555 1_555
H9 C16 1_555 1_555
C17 C9 1_555 1_555
C20 O9 1_555 1_555
H12 C20 1_555 1_555
H13 C20 1_555 1_555
C21 C20 1_555 1_555
H14 O12 1_555 1_555
H15 O12 1_555 1_555
Eu3 O6 1_555 1_555
Eu5 O10 1_555 1_555
O9 Eu3 1_555 1_555
O11 Eu3 1_555 1_555
C12 C17 1_555 1_555
C16 C17 1_555 1_555
O2 C1 1_555 1_555
O3 C2 1_555 1_555
O7 C19 1_555 1_555
O8 C19 1_555 1_555
C1 C2 1_555 1_555
C3 O3 1_555 1_555
H5 C7 1_555 1_555
C8 C3 1_555 1_555
H6 C8 1_555 1_555
H7 C11 1_555 1_555
H10 C18 1_555 1_555
H11 C18 1_555 1_555
C19 C18 1_555 1_555
Eu4 O2 1_555 1_555
C7 C8 1_555 1_555
O13 Eu3 1_555 1_555
O18 Eu3 1_555 1_555
O14 Eu1 1_555 1_555
O18_2 Eu1 1_555 1_555
O17 C14_2 1_555 1_555
O10_2 C21_2 1_555 1_555
O19 C21_2 1_555 1_555
C15_2 C14_2 1_555 1_555
H8_2 C15_2 1_555 1_555
C16_2 C15_2 1_555 1_555
H9_2 C16_2 1_555 1_555
C20_2 O17 1_555 1_555
H12_2 C20_2 1_555 1_555
H13_2 C20_2 1_555 1_555
C21_2 C20_2 1_555 1_555
Eu4 O10_2 1_555 1_555
O1_2 C1_2 1_555 1_555
O2_2 C1_2 1_555 1_555
O3_2 C2_2 1_555 1_555
O4_2 C9_2 1_555 1_555
O5_2 C11_2 1_555 1_555
O14 C13_2 1_555 1_555
O7_2 C19_2 1_555 1_555
C1_2 C2_2 1_555 1_555
C2_2 H1 1_555 1_555
H2 C2_2 1_555 1_555
C3_2 O3_2 1_555 1_555
C4_2 C3_2 1_555 1_555
H3_2 C4_2 1_555 1_555
C5_2 C4_2 1_555 1_555
H4_2 C5_2 1_555 1_555
C6_2 C5_2 1_555 1_555
C7_2 C6_2 1_555 1_555
H5_2 C7_2 1_555 1_555
C8_2 C3_2 1_555 1_555
H6_2 C8_2 1_555 1_555
C9_2 C10_2 1_555 1_555
C10_2 C6_2 1_555 1_555
C11_2 C10_2 1_555 1_555
H7_2 C11_2 1_555 1_555
C12_2 O5_2 1_555 1_555
C13_2 C12_2 1_555 1_555
C17_2 C9_2 1_555 1_555
C18_2 O14 1_555 1_555
H10_2 C18_2 1_555 1_555
H11_2 C18_2 1_555 1_555
C19_2 C18_2 1_555 1_555
H14_2 O12_2 1_555 1_555
H15_2 O12_2 1_555 1_555
C7_2 C8_2 1_555 1_555
C12_2 C17_2 1_555 1_555
O14_2 Eu4 1_555 1_555
O17_2 Eu4 1_555 1_555
O19_2 Eu4 1_555 1_555
O13 C1_3 1_555 1_555
O3_3 C2_3 1_555 1_555
O7_3 C19_3 1_555 1_555
O16 C19_3 1_555 1_555
C1_3 C2_3 1_555 1_555
C3_3 O3_3 1_555 1_555
H5_3 C7_3 1_555 1_555
C8_3 C3_3 1_555 1_555
H6_3 C8_3 1_555 1_555
H7_3 C11_3 1_555 1_555
H10_3 C18_3 1_555 1_555
H11_3 C18_3 1_555 1_555
C19_3 C18_3 1_555 1_555
C7_3 C8_3 1_555 1_555
O4_3 C9_3 1_555 1_555
O14_2 C13_3 1_555 1_555
O17_2 C14_3 1_555 1_555
O18_2 C21_3 1_555 1_555
O19_2 C21_3 1_555 1_555
H3_3 C4_3 1_555 1_555
C5_3 C4_3 1_555 1_555
H4_3 C5_3 1_555 1_555
C6_3 C5_3 1_555 1_555
C9_3 C10_3 1_555 1_555
C10_3 C6_3 1_555 1_555
C12_3 O5_3 1_555 1_555
C13_3 C12_3 1_555 1_555
C14_3 C13_3 1_555 1_555
C15_3 C14_3 1_555 1_555
H8_3 C15_3 1_555 1_555
C16_3 C15_3 1_555 1_555
H9_3 C16_3 1_555 1_555
C17_3 C9_3 1_555 1_555
C20_3 O17_2 1_555 1_555
H12_3 C20_3 1_555 1_555
H13_3 C20_3 1_555 1_555
C21_3 C20_3 1_555 1_555
H14_3 O12_3 1_555 1_555
H15_3 O12_3 1_555 1_555
C12_3 C17_3 1_555 1_555
C16_3 C17_3 1_555 1_555
O1_4 C1_4 1_555 1_555
O13_2 C1_4 1_555 1_555
O3_4 C2_4 1_555 1_555
O4_4 C9_4 1_555 1_555
O5_4 C11_4 1_555 1_555
O6_2 C13_4 1_555 1_555
O7_4 C19_4 1_555 1_555
C1_4 C2_4 1_555 1_555
C2_4 H1_2 1_555 1_555
H2_2 C2_4 1_555 1_555
C3_4 O3_4 1_555 1_555
C4_4 C3_4 1_555 1_555
H3_4 C4_4 1_555 1_555
C5_4 C4_4 1_555 1_555
H4_4 C5_4 1_555 1_555
C6_4 C5_4 1_555 1_555
C7_4 C6_4 1_555 1_555
H5_4 C7_4 1_555 1_555
C8_4 C3_4 1_555 1_555
H6_4 C8_4 1_555 1_555
C9_4 C10_4 1_555 1_555
C10_4 C6_4 1_555 1_555
C11_4 C10_4 1_555 1_555
H7_4 C11_4 1_555 1_555
C12_4 O5_4 1_555 1_555
C13_4 C12_4 1_555 1_555
C17_4 C9_4 1_555 1_555
C18_4 O6_2 1_555 1_555
H10_4 C18_4 1_555 1_555
H11_4 C18_4 1_555 1_555
C19_4 C18_4 1_555 1_555
H14_4 O12_4 1_555 1_555
H15_4 O12_4 1_555 1_555
Eu5 O6_2 1_555 1_555
C7_4 C8_4 1_555 1_555
C12_4 C17_4 1_555 1_555
O9_2 C14_4 1_555 1_555
O18 C21_4 1_555 1_555
O11_2 C21_4 1_555 1_555
C15_4 C14_4 1_555 1_555
H8_4 C15_4 1_555 1_555
C16_4 C15_4 1_555 1_555
H9_4 C16_4 1_555 1_555
C20_4 O9_2 1_555 1_555
H12_4 C20_4 1_555 1_555
H13_4 C20_4 1_555 1_555
C21_4 C20_4 1_555 1_555

#END
