
###############################################################################
#
# This file contains modified crystal structure data generated from the
# MOF subset of the Cambridge Structural Database (CSD) v543 
# hosted by the Cambridge Crystallographic Data Centre (CCDC).
#
# This work is licensed under the Creative Commons
# Attribution-NonCommercial-ShareAlike 4.0 International License.
# To view a copy of this license, visit
# http://creativecommons.org/licenses/by-nc-sa/4.0/
# or send a letter to
# Creative Commons, PO Box 1866, Mountain View, CA 94042, USA.
#
# CIF created using the CSD Python API on 29 September 2022
# The structure has been converted into the P1 space group
# The structure has a 3D framework
# The original CSD entry OJAROJ is in the monoclinic crystal system
# The framework has been calculated to contain at least 10.0% void space
# The void calculation uses a probe of radius 1.32A, grid spacing 0.4
#
###############################################################################

data_OJAROJ
_chemical_formula_moiety         '(C140 H108 Cu4 N20 O32)n'
_symmetry_cell_setting           triclinic
_symmetry_space_group_name_H-M   'P 1'
_symmetry_Int_Tables_number      1
_space_group_name_Hall           'P 1'
loop_
_symmetry_equiv_pos_site_id
_symmetry_equiv_pos_as_xyz
1 x,y,z
_cell_length_a                   14.4269(11)
_cell_length_b                   22.021(5)
_cell_length_c                   16.6247(8)
_cell_angle_alpha                90
_cell_angle_beta                 98.9660(10)
_cell_angle_gamma                90
_cell_volume                     5217.04
loop_
_atom_site_label
_atom_site_type_symbol
_atom_site_fract_x
_atom_site_fract_y
_atom_site_fract_z
H38 H 0.337582 0.699636 0.039996
C54 C 0.3291(3) 0.82786(19) 0.0466(3)
H40 H 0.356233 0.818199 0.102259
H41 H 0.350308 0.868104 0.034343
C55 C 0.2238(3) 0.82810(17) 0.0396(2)
C56 C 0.1837(3) 0.83515(18) 0.1089(2)
H42 H 0.221501 0.837740 0.159447
C57 C 0.0870(3) 0.83839(18) 0.1034(3)
H43 H 0.060203 0.843365 0.150376
C58 C 0.0296(3) 0.83424(17) 0.0278(3)
C10 C 0.0282(3) 0.5377(2) 0.3619(3)
H6 H 0.023411 0.551463 0.308526
C27 C 0.1337(3) 0.18536(19) 0.0454(3)
H19 H 0.108628 0.203492 0.087728
C28 C 0.2289(3) 0.1817(2) 0.0484(3)
H20 H 0.268190 0.198012 0.092841
H21 H 0.402827 0.162703 0.045622
O9 O 0.43626(18) 0.64882(11) 0.76494(16)
O10 O 0.5526(2) 0.59711(12) 0.8404(2)
O11 O 0.2884(2) 0.51929(15) 0.5137(2)
O12 O 0.1541(2) 0.45629(19) 0.7310(2)
O13 O 0.47128(18) 0.32885(11) 0.70447(16)
O14 O 0.5864(2) 0.37934(14) 0.7807(3)
N6 N 0.2206(2) 0.48857(15) 0.6219(2)
C36 C 0.4784(3) 0.60040(17) 0.7904(2)
C37 C 0.4367(3) 0.54162(16) 0.7544(2)
C38 C 0.3480(3) 0.54147(17) 0.7077(3)
H28 H 0.313345 0.577173 0.699709
C39 C 0.3116(3) 0.48740(17) 0.6730(3)
C40 C 0.2169(3) 0.50751(19) 0.5401(3)
C41 C 0.1242(3) 0.51246(19) 0.4897(3)
C42 C 0.0438(3) 0.49763(17) 0.5241(3)
C43 C 0.0511(3) 0.4774(2) 0.6063(3)
C44 C 0.1436(3) 0.4726(2) 0.6593(3)
C46 C 0.1152(3) 0.5323(2) 0.4099(3)
H30 H 0.168756 0.542124 0.387998
C47 C 0.3620(3) 0.43338(17) 0.6834(3)
H31 H 0.336262 0.397584 0.660067
C48 C 0.4503(3) 0.43359(16) 0.7288(3)
C49 C 0.5076(3) 0.37578(18) 0.7387(3)
C50 C 0.4865(3) 0.48745(16) 0.7649(2)
H32 H 0.545498 0.487126 0.796893
Cu2 Cu 0.48204(3) 0.73887(2) 0.78189(3)
O15 O 0.60708(18) 0.71214(11) 0.85616(16)
H33 H 0.652246 0.714201 0.832818
H34 H 0.597846 0.673851 0.860848
O16 O 0.35523(18) 0.76526(12) 0.70994(17)
H35 H 0.307429 0.753208 0.732518
H36 H 0.349272 0.805128 0.709272
N7 N 0.4209(2) 0.74544(14) 0.88687(19)
N8 N 0.3622(2) 0.78371(15) 0.9914(2)
C51 C 0.3983(3) 0.79606(18) 0.9237(3)
H37 H 0.406605 0.835086 0.904640
C52 C 0.3592(3) 0.7215(2) 0.9988(3)
C53 C 0.3948(3) 0.6982(2) 0.9330(3)
H39 H 0.400242 0.657124 0.921515
C59 C 0.0705(3) 0.8252(2) 0.9583(3)
H44 H 0.033002 0.821321 0.907681
C60 C 0.1662(3) 0.8220(2) 0.9647(3)
H45 H 0.193230 0.815664 0.918162
Cu6 Cu 0.51796(3) 0.23887(2) 0.71811(3)
O18 O 0.52872(18) 0.82885(11) 0.79553(16)
N11 N 0.5431(2) 0.73209(14) 0.6762(2)
N4 N 0.4030(2) 0.19490(17) 0.9323(2)
N5 N 0.4569(2) 0.23209(14) 0.8238(2)
C26 C 0.0741(3) 0.16135(17) 0.9776(3)
C29 C 0.2679(3) 0.1544(2) 0.9867(3)
C30 C 0.3729(3) 0.1522(2) 0.9910(3)
H22 H 0.392010 0.111378 0.979206
C31 C 0.4399(3) 0.1822(2) 0.8651(3)
H23 H 0.452315 0.143040 0.848949
C32 C 0.4289(4) 0.2785(2) 0.8699(3)
H24 H 0.430615 0.319571 0.857041
C33 C 0.3983(4) 0.2554(2) 0.9372(3)
H25 H 0.378036 0.277583 0.978812
C34 C 0.2091(3) 0.1288(2) 0.9201(3)
H26 H 0.234589 0.109347 0.878942
C35 C 0.1139(3) 0.1329(2) 0.9162(3)
H27 H 0.074921 0.116334 0.871819
O9_2 O 0.56374(18) 0.14882(11) 0.73506(16)
O10_2 O 0.4474(2) 0.09711(12) 0.6596(2)
O11_2 O 0.7116(2) 0.01929(15) 0.9863(2)
C36_2 C 0.5216(3) 0.10040(17) 0.7096(2)
C37_2 C 0.5633(3) 0.04162(16) 0.7456(2)
C38_2 C 0.6520(3) 0.04147(17) 0.7923(3)
H28_2 H 0.686655 0.077173 0.800291
C40_2 C 0.7831(3) 0.00751(19) 0.9599(3)
O15_2 O 0.39292(18) 0.21214(11) 0.64384(16)
H33_2 H 0.347754 0.214201 0.667182
H34_2 H 0.402154 0.173851 0.639152
O16_2 O 0.64477(18) 0.26526(12) 0.79006(17)
H35_2 H 0.692571 0.253208 0.767482
H36_2 H 0.650728 0.305128 0.790728
N7_2 N 0.5791(2) 0.24544(14) 0.61313(19)
N8_2 N 0.6378(2) 0.28371(15) 0.5086(2)
C51_2 C 0.6017(3) 0.29606(18) 0.5763(3)
H37_2 H 0.593395 0.335086 0.595360
C52_2 C 0.6408(3) 0.2215(2) 0.5012(3)
H38_2 H 0.662418 0.199636 0.460004
C53_2 C 0.6052(3) 0.1982(2) 0.5670(3)
H39_2 H 0.599758 0.157124 0.578485
C54_2 C 0.6709(3) 0.32786(19) 0.4534(3)
H40_2 H 0.643767 0.318199 0.397741
H41_2 H 0.649692 0.368104 0.465657
C55_2 C 0.7762(3) 0.32810(17) 0.4604(2)
C56_2 C 0.8163(3) 0.33515(18) 0.3911(2)
H42_2 H 0.778499 0.337740 0.340553
C57_2 C 0.9130(3) 0.33839(18) 0.3966(3)
H43_2 H 0.939797 0.343365 0.349624
C58_2 C 0.9704(3) 0.33424(17) 0.4722(3)
C59_2 C 0.9295(3) 0.3252(2) 0.5417(3)
H44_2 H 0.966998 0.321321 0.592319
C60_2 C 0.8338(3) 0.3220(2) 0.5353(3)
H45_2 H 0.806770 0.315664 0.581838
N4_2 N 0.5970(2) 0.69490(17) 0.5677(2)
C26_2 C 0.9259(3) 0.66135(17) 0.5224(3)
C27_2 C 0.8663(3) 0.68536(19) 0.4546(3)
H19_2 H 0.891372 0.703492 0.412272
C28_2 C 0.7711(3) 0.6817(2) 0.4516(3)
H20_2 H 0.731810 0.698012 0.407159
C29_2 C 0.7321(3) 0.6544(2) 0.5133(3)
C30_2 C 0.6271(3) 0.6522(2) 0.5090(3)
H21_2 H 0.597173 0.662703 0.454378
H22_2 H 0.607990 0.611378 0.520794
C31_2 C 0.5601(3) 0.6822(2) 0.6349(3)
H23_2 H 0.547685 0.643040 0.651051
C32_2 C 0.5711(4) 0.7785(2) 0.6301(3)
H24_2 H 0.569385 0.819571 0.642959
C33_2 C 0.6017(4) 0.7554(2) 0.5628(3)
H25_2 H 0.621964 0.777583 0.521188
C34_2 C 0.7909(3) 0.6288(2) 0.5799(3)
H26_2 H 0.765411 0.609347 0.621058
C35_2 C 0.8861(3) 0.6329(2) 0.5838(3)
H27_2 H 0.925079 0.616334 0.628181
O12_2 O 0.8459(2) 0.95629(19) 0.7690(2)
O14_2 O 0.4136(2) 0.87934(14) 0.7193(3)
N6_2 N 0.7794(2) 0.98857(15) 0.8781(2)
C39_2 C 0.6884(3) 0.98740(17) 0.8270(3)
C42_2 C 0.9562(3) 0.99763(17) 0.9759(3)
C43_2 C 0.9489(3) 0.9774(2) 0.8937(3)
C44_2 C 0.8564(3) 0.9726(2) 0.8407(3)
C47_2 C 0.6380(3) 0.93338(17) 0.8166(3)
H31_2 H 0.663738 0.897584 0.839933
C48_2 C 0.5497(3) 0.93359(16) 0.7712(3)
C49_2 C 0.4924(3) 0.87578(18) 0.7613(3)
C50_2 C 0.5135(3) 0.98745(16) 0.7351(2)
H32_2 H 0.454502 0.987126 0.703107
N9 N 0.5970(2) 0.80510(17) 0.0677(2)
N10 N 0.5431(2) 0.76791(14) 0.1762(2)
C61 C 0.9259(3) 0.83865(17) 0.0224(3)
C64 C 0.7321(3) 0.8456(2) 0.0133(3)
C65 C 0.6271(3) 0.8478(2) 0.0090(3)
H49 H 0.607990 0.888622 0.020794
C66 C 0.5601(3) 0.8178(2) 0.1349(3)
H50 H 0.547685 0.856960 0.151051
C67 C 0.5711(4) 0.7215(2) 0.1301(3)
H51 H 0.569385 0.680429 0.142959
C68 C 0.6017(4) 0.7446(2) 0.0628(3)
H52 H 0.621964 0.722417 0.021188
C69 C 0.7909(3) 0.8712(2) 0.0799(3)
H53 H 0.765411 0.890653 0.121058
C70 C 0.8861(3) 0.8671(2) 0.0838(3)
H54 H 0.925079 0.883666 0.128181
Cu4 Cu 0.48204(3) 0.76113(2) 0.28189(3)
Cu1 Cu 0.51796(3) 0.26113(2) 0.21811(3)
O1 O 0.56374(18) 0.35118(11) 0.23506(16)
O2 O 0.4474(2) 0.40289(12) 0.1596(2)
O3 O 0.7116(2) 0.48071(15) 0.4863(2)
O4 O 0.8459(2) 0.54371(19) 0.2690(2)
O5 O 0.52872(18) 0.67115(11) 0.29553(16)
O6 O 0.4136(2) 0.62066(14) 0.2193(3)
O7 O 0.39292(18) 0.28786(11) 0.14384(16)
H1 H 0.347754 0.285799 0.167182
H2 H 0.402154 0.326149 0.139152
O8 O 0.64477(18) 0.23474(12) 0.29006(17)
H3 H 0.692571 0.246792 0.267482
H4 H 0.650728 0.194872 0.290728
N1 N 0.7794(2) 0.51143(15) 0.3781(2)
N2 N 0.5791(2) 0.25456(14) 0.11313(19)
N3 N 0.6378(2) 0.21629(15) 0.0086(2)
C1 C 0.5216(3) 0.39960(17) 0.2096(2)
C2 C 0.5633(3) 0.45838(16) 0.2456(2)
C3 C 0.6520(3) 0.45853(17) 0.2923(3)
H5 H 0.686655 0.422827 0.300291
C4 C 0.6884(3) 0.51260(17) 0.3270(3)
C5 C 0.7831(3) 0.49249(19) 0.4599(3)
C6 C 0.8758(3) 0.48754(19) 0.5103(3)
C7 C 0.9562(3) 0.50237(17) 0.4759(3)
C8 C 0.9489(3) 0.5226(2) 0.3937(3)
C9 C 0.8564(3) 0.5274(2) 0.3407(3)
C11 C 0.8848(3) 0.4677(2) 0.5901(3)
H7 H 0.831244 0.457876 0.612002
C12 C 0.6380(3) 0.56662(17) 0.3166(3)
H8 H 0.663738 0.602416 0.339933
C13 C 0.5497(3) 0.56641(16) 0.2712(3)
C14 C 0.4924(3) 0.62422(18) 0.2613(3)
C15 C 0.5135(3) 0.51255(16) 0.2351(2)
H9 H 0.454502 0.512874 0.203107
C16 C 0.6017(3) 0.20394(18) 0.0763(3)
H10 H 0.593395 0.164914 0.095360
C17 C 0.6408(3) 0.2785(2) 0.0012(3)
C18 C 0.6052(3) 0.3018(2) 0.0670(3)
H12 H 0.599758 0.342876 0.078485
C24 C 0.9295(3) 0.1748(2) 0.0417(3)
H17 H 0.966998 0.178679 0.092319
C25 C 0.8338(3) 0.1780(2) 0.0353(3)
H18 H 0.806770 0.184336 0.081838
C45 C 0.9718(3) 0.4623(2) 0.6381(3)
H29 H 0.976589 0.448537 0.691474
C62 C 0.8663(3) 0.81464(19) 0.9546(3)
H46 H 0.891372 0.796508 0.912272
C63 C 0.7711(3) 0.8183(2) 0.9516(3)
H47 H 0.731810 0.801988 0.907159
H48 H 0.597173 0.837297 0.954378
O17 O 0.47128(18) 0.17115(11) 0.20447(16)
N12 N 0.4569(2) 0.26791(14) 0.3238(2)
O4_2 O 0.1541(2) 0.04371(19) 0.2310(2)
O6_2 O 0.5864(2) 0.12066(14) 0.2807(3)
N1_2 N 0.2206(2) 0.01143(15) 0.1219(2)
C4_2 C 0.3116(3) 0.01260(17) 0.1730(3)
C7_2 C 0.0438(3) 0.00237(17) 0.0241(3)
C8_2 C 0.0511(3) 0.0226(2) 0.1063(3)
C9_2 C 0.1436(3) 0.0274(2) 0.1593(3)
C12_2 C 0.3620(3) 0.06662(17) 0.1834(3)
H8_2 H 0.336262 0.102416 0.160067
C13_2 C 0.4503(3) 0.06641(16) 0.2288(3)
C14_2 C 0.5076(3) 0.12422(18) 0.2387(3)
C15_2 C 0.4865(3) 0.01255(16) 0.2649(2)
H9_2 H 0.545498 0.012874 0.296893
N9_2 N 0.4030(2) 0.30510(17) 0.4323(2)
C61_2 C 0.0741(3) 0.33865(17) 0.4776(3)
C62_2 C 0.1337(3) 0.31464(19) 0.5454(3)
H46_2 H 0.108628 0.296508 0.587728
C63_2 C 0.2289(3) 0.3183(2) 0.5484(3)
H47_2 H 0.268190 0.301988 0.592841
C64_2 C 0.2679(3) 0.3456(2) 0.4867(3)
C65_2 C 0.3729(3) 0.3478(2) 0.4910(3)
H48_2 H 0.402827 0.337297 0.545622
H49_2 H 0.392010 0.388622 0.479206
C66_2 C 0.4399(3) 0.3178(2) 0.3651(3)
H50_2 H 0.452315 0.356960 0.348949
C67_2 C 0.4289(4) 0.2215(2) 0.3699(3)
H51_2 H 0.430615 0.180429 0.357041
C68_2 C 0.3983(4) 0.2446(2) 0.4372(3)
H52_2 H 0.378036 0.222417 0.478812
C69_2 C 0.2091(3) 0.3712(2) 0.4201(3)
H53_2 H 0.234589 0.390653 0.378942
C70_2 C 0.1139(3) 0.3671(2) 0.4162(3)
H54_2 H 0.074921 0.383666 0.371819
O1_2 O 0.43626(18) 0.85118(11) 0.26494(16)
O2_2 O 0.5526(2) 0.90289(12) 0.3404(2)
O3_2 O 0.2884(2) 0.98071(15) 0.0137(2)
O7_2 O 0.60708(18) 0.78786(11) 0.35616(16)
H1_2 H 0.652246 0.785799 0.332818
H2_2 H 0.597846 0.826149 0.360848
O8_2 O 0.35523(18) 0.73474(12) 0.20994(17)
H3_2 H 0.307429 0.746792 0.232518
H4_2 H 0.349272 0.694872 0.209272
N2_2 N 0.4209(2) 0.75456(14) 0.38687(19)
N3_2 N 0.3622(2) 0.71629(15) 0.4914(2)
C1_2 C 0.4784(3) 0.89960(17) 0.2904(2)
C2_2 C 0.4367(3) 0.95838(16) 0.2544(2)
C3_2 C 0.3480(3) 0.95853(17) 0.2077(3)
H5_2 H 0.313345 0.922827 0.199709
C5_2 C 0.2169(3) 0.99249(19) 0.0401(3)
C16_2 C 0.3983(3) 0.70394(18) 0.4237(3)
H10_2 H 0.406605 0.664914 0.404640
C17_2 C 0.3592(3) 0.7785(2) 0.4988(3)
H11 H 0.337582 0.800364 0.539996
C18_2 C 0.3948(3) 0.8018(2) 0.4330(3)
H12_2 H 0.400242 0.842876 0.421515
C19 C 0.3291(3) 0.67214(19) 0.5466(3)
H13 H 0.356233 0.681801 0.602259
H14 H 0.350308 0.631896 0.534343
C20 C 0.2238(3) 0.67190(17) 0.5396(2)
C21 C 0.1837(3) 0.66485(18) 0.6089(2)
H15 H 0.221501 0.662260 0.659447
C22 C 0.0870(3) 0.66161(18) 0.6034(3)
H16 H 0.060203 0.656635 0.650376
C23 C 0.0296(3) 0.66576(17) 0.5278(3)
C24_2 C 0.0705(3) 0.6748(2) 0.4583(3)
H17_2 H 0.033002 0.678679 0.407681
C25_2 C 0.1662(3) 0.6780(2) 0.4647(3)
H18_2 H 0.193230 0.684336 0.418162
H11_2 H 0.662418 0.300364 0.960004
C19_2 C 0.6709(3) 0.17214(19) 0.9534(3)
H13_2 H 0.643767 0.181801 0.897741
H14_2 H 0.649692 0.131896 0.965657
C20_2 C 0.7762(3) 0.17190(17) 0.9604(2)
C21_2 C 0.8163(3) 0.16485(18) 0.8911(2)
H15_2 H 0.778499 0.162260 0.840553
C22_2 C 0.9130(3) 0.16161(18) 0.8966(3)
H16_2 H 0.939797 0.156635 0.849624
C23_2 C 0.9704(3) 0.16576(17) 0.9722(3)
C6_2 C 0.1242(3) 0.98754(19) 0.9897(3)
C11_2 C 0.1152(3) 0.9677(2) 0.9099(3)
H7_2 H 0.168756 0.957876 0.887998
C45_2 C 0.0282(3) 0.9623(2) 0.8619(3)
H29_2 H 0.023411 0.948537 0.808526
C10_2 C 0.9718(3) 0.0377(2) 0.1381(3)
H6_2 H 0.976589 0.051463 0.191474
C41_2 C 0.8758(3) 0.01246(19) 0.0103(3)
C46_2 C 0.8848(3) 0.0323(2) 0.0901(3)
H30_2 H 0.831244 0.042124 0.112002
loop_
_geom_bond_atom_site_label_1
_geom_bond_atom_site_label_2
_geom_bond_site_symmetry_1
_geom_bond_site_symmetry_2
H40 C54 1_555 1_555
H41 C54 1_555 1_555
C55 C54 1_555 1_555
C56 C55 1_555 1_555
H42 C56 1_555 1_555
C57 C56 1_555 1_555
H43 C57 1_555 1_555
C58 C57 1_555 1_555
H6 C10 1_555 1_555
H19 C27 1_555 1_555
C28 C27 1_555 1_555
H20 C28 1_555 1_555
O9 C36 1_555 1_555
O10 C36 1_555 1_555
O11 C40 1_555 1_555
O12 C44 1_555 1_555
O13 C49 1_555 1_555
O14 C49 1_555 1_555
N6 C39 1_555 1_555
C36 C37 1_555 1_555
C37 C38 1_555 1_555
C38 H28 1_555 1_555
C39 C38 1_555 1_555
C40 N6 1_555 1_555
C41 C40 1_555 1_555
C43 C42 1_555 1_555
C44 N6 1_555 1_555
C46 C10 1_555 1_555
H30 C46 1_555 1_555
C47 C39 1_555 1_555
H31 C47 1_555 1_555
C48 C47 1_555 1_555
C49 C48 1_555 1_555
C50 C37 1_555 1_555
H32 C50 1_555 1_555
Cu2 O9 1_555 1_555
O15 Cu2 1_555 1_555
H33 O15 1_555 1_555
H34 O15 1_555 1_555
O16 Cu2 1_555 1_555
H35 O16 1_555 1_555
H36 O16 1_555 1_555
N7 Cu2 1_555 1_555
N8 C51 1_555 1_555
C51 N7 1_555 1_555
H37 C51 1_555 1_555
C52 N8 1_555 1_555
C53 N7 1_555 1_555
H39 C53 1_555 1_555
H44 C59 1_555 1_555
H45 C60 1_555 1_555
Cu6 O13 1_555 1_555
O18 Cu2 1_555 1_555
N11 Cu2 1_555 1_555
C41 C42 1_555 1_555
C41 C46 1_555 1_555
C43 C44 1_555 1_555
C48 C50 1_555 1_555
C52 C53 1_555 1_555
C59 C60 1_555 1_555
N4 C30 1_555 1_555
N5 C31 1_555 1_555
C30 C29 1_555 1_555
H22 C30 1_555 1_555
C31 N4 1_555 1_555
H23 C31 1_555 1_555
C32 N5 1_555 1_555
H24 C32 1_555 1_555
C33 N4 1_555 1_555
H25 C33 1_555 1_555
C34 C29 1_555 1_555
H26 C34 1_555 1_555
C35 C26 1_555 1_555
H27 C35 1_555 1_555
Cu6 N5 1_555 1_555
C32 C33 1_555 1_555
C34 C35 1_555 1_555
O9_2 C36_2 1_555 1_555
O10_2 C36_2 1_555 1_555
O11_2 C40_2 1_555 1_555
C36_2 C37_2 1_555 1_555
C37_2 C38_2 1_555 1_555
C38_2 H28_2 1_555 1_555
Cu6 O9_2 1_555 1_555
O15_2 Cu6 1_555 1_555
H33_2 O15_2 1_555 1_555
H34_2 O15_2 1_555 1_555
O16_2 Cu6 1_555 1_555
H35_2 O16_2 1_555 1_555
H36_2 O16_2 1_555 1_555
N7_2 Cu6 1_555 1_555
N8_2 C51_2 1_555 1_555
C51_2 N7_2 1_555 1_555
H37_2 C51_2 1_555 1_555
C52_2 N8_2 1_555 1_555
H38_2 C52_2 1_555 1_555
C53_2 N7_2 1_555 1_555
H39_2 C53_2 1_555 1_555
C54_2 N8_2 1_555 1_555
H40_2 C54_2 1_555 1_555
H41_2 C54_2 1_555 1_555
C55_2 C54_2 1_555 1_555
C56_2 C55_2 1_555 1_555
H42_2 C56_2 1_555 1_555
C57_2 C56_2 1_555 1_555
H43_2 C57_2 1_555 1_555
C58_2 C57_2 1_555 1_555
C59_2 C58_2 1_555 1_555
H44_2 C59_2 1_555 1_555
C60_2 C55_2 1_555 1_555
H45_2 C60_2 1_555 1_555
C52_2 C53_2 1_555 1_555
C59_2 C60_2 1_555 1_555
N4_2 C30_2 1_555 1_555
N11 C31_2 1_555 1_555
C27_2 C26_2 1_555 1_555
H19_2 C27_2 1_555 1_555
C28_2 C27_2 1_555 1_555
H20_2 C28_2 1_555 1_555
C29_2 C28_2 1_555 1_555
C30_2 C29_2 1_555 1_555
H21_2 C30_2 1_555 1_555
H22_2 C30_2 1_555 1_555
C31_2 N4_2 1_555 1_555
H23_2 C31_2 1_555 1_555
C32_2 N11 1_555 1_555
H24_2 C32_2 1_555 1_555
C33_2 N4_2 1_555 1_555
H25_2 C33_2 1_555 1_555
C34_2 C29_2 1_555 1_555
H26_2 C34_2 1_555 1_555
C35_2 C26_2 1_555 1_555
H27_2 C35_2 1_555 1_555
C32_2 C33_2 1_555 1_555
C34_2 C35_2 1_555 1_555
O12_2 C44_2 1_555 1_555
O18 C49_2 1_555 1_555
O14_2 C49_2 1_555 1_555
N6_2 C39_2 1_555 1_555
C43_2 C42_2 1_555 1_555
C44_2 N6_2 1_555 1_555
C47_2 C39_2 1_555 1_555
H31_2 C47_2 1_555 1_555
C48_2 C47_2 1_555 1_555
C49_2 C48_2 1_555 1_555
H32_2 C50_2 1_555 1_555
C43_2 C44_2 1_555 1_555
C48_2 C50_2 1_555 1_555
N9 C65 1_555 1_555
N10 C66 1_555 1_555
C65 C64 1_555 1_555
H49 C65 1_555 1_555
C66 N9 1_555 1_555
H50 C66 1_555 1_555
C67 N10 1_555 1_555
H51 C67 1_555 1_555
C68 N9 1_555 1_555
H52 C68 1_555 1_555
C69 C64 1_555 1_555
H53 C69 1_555 1_555
C70 C61 1_555 1_555
H54 C70 1_555 1_555
Cu4 N10 1_555 1_555
C67 C68 1_555 1_555
C69 C70 1_555 1_555
Cu1 O1 1_555 1_555
O1 C1 1_555 1_555
O2 C1 1_555 1_555
O3 C5 1_555 1_555
O4 C9 1_555 1_555
O5 C14 1_555 1_555
O6 C14 1_555 1_555
O7 Cu1 1_555 1_555
H1 O7 1_555 1_555
H2 O7 1_555 1_555
O8 Cu1 1_555 1_555
H3 O8 1_555 1_555
H4 O8 1_555 1_555
N1 C4 1_555 1_555
N2 Cu1 1_555 1_555
N3 C16 1_555 1_555
C1 C2 1_555 1_555
C2 C3 1_555 1_555
C3 H5 1_555 1_555
C4 C3 1_555 1_555
C5 N1 1_555 1_555
C6 C5 1_555 1_555
C7 C6 1_555 1_555
C8 C7 1_555 1_555
C9 N1 1_555 1_555
C11 C6 1_555 1_555
H7 C11 1_555 1_555
C12 C4 1_555 1_555
H8 C12 1_555 1_555
C13 C12 1_555 1_555
C14 C13 1_555 1_555
C15 C2 1_555 1_555
H9 C15 1_555 1_555
C16 N2 1_555 1_555
H10 C16 1_555 1_555
C17 N3 1_555 1_555
C18 N2 1_555 1_555
H12 C18 1_555 1_555
H17 C24 1_555 1_555
H18 C25 1_555 1_555
C45 C11 1_555 1_555
H29 C45 1_555 1_555
H46 C62 1_555 1_555
C63 C62 1_555 1_555
H47 C63 1_555 1_555
Cu4 O5 1_555 1_555
O17 Cu1 1_555 1_555
N12 Cu1 1_555 1_555
C8 C9 1_555 1_555
C13 C15 1_555 1_555
C17 C18 1_555 1_555
C24 C25 1_555 1_555
O4_2 C9_2 1_555 1_555
O17 C14_2 1_555 1_555
O6_2 C14_2 1_555 1_555
N1_2 C4_2 1_555 1_555
C8_2 C7_2 1_555 1_555
C9_2 N1_2 1_555 1_555
C12_2 C4_2 1_555 1_555
H8_2 C12_2 1_555 1_555
C13_2 C12_2 1_555 1_555
C14_2 C13_2 1_555 1_555
H9_2 C15_2 1_555 1_555
C8_2 C9_2 1_555 1_555
C13_2 C15_2 1_555 1_555
N9_2 C65_2 1_555 1_555
N12 C66_2 1_555 1_555
C62_2 C61_2 1_555 1_555
H46_2 C62_2 1_555 1_555
C63_2 C62_2 1_555 1_555
H47_2 C63_2 1_555 1_555
C64_2 C63_2 1_555 1_555
C65_2 C64_2 1_555 1_555
H48_2 C65_2 1_555 1_555
H49_2 C65_2 1_555 1_555
C66_2 N9_2 1_555 1_555
H50_2 C66_2 1_555 1_555
C67_2 N12 1_555 1_555
H51_2 C67_2 1_555 1_555
C68_2 N9_2 1_555 1_555
H52_2 C68_2 1_555 1_555
C69_2 C64_2 1_555 1_555
H53_2 C69_2 1_555 1_555
C70_2 C61_2 1_555 1_555
H54_2 C70_2 1_555 1_555
C67_2 C68_2 1_555 1_555
C69_2 C70_2 1_555 1_555
Cu4 O1_2 1_555 1_555
O1_2 C1_2 1_555 1_555
O2_2 C1_2 1_555 1_555
O3_2 C5_2 1_555 1_555
O7_2 Cu4 1_555 1_555
H1_2 O7_2 1_555 1_555
H2_2 O7_2 1_555 1_555
O8_2 Cu4 1_555 1_555
H3_2 O8_2 1_555 1_555
H4_2 O8_2 1_555 1_555
N2_2 Cu4 1_555 1_555
N3_2 C16_2 1_555 1_555
C1_2 C2_2 1_555 1_555
C2_2 C3_2 1_555 1_555
C3_2 H5_2 1_555 1_555
C16_2 N2_2 1_555 1_555
H10_2 C16_2 1_555 1_555
C17_2 N3_2 1_555 1_555
H11 C17_2 1_555 1_555
C18_2 N2_2 1_555 1_555
H12_2 C18_2 1_555 1_555
C19 N3_2 1_555 1_555
H13 C19 1_555 1_555
H14 C19 1_555 1_555
C20 C19 1_555 1_555
C21 C20 1_555 1_555
H15 C21 1_555 1_555
C22 C21 1_555 1_555
H16 C22 1_555 1_555
C23 C22 1_555 1_555
C24_2 C23 1_555 1_555
H17_2 C24_2 1_555 1_555
C25_2 C20 1_555 1_555
H18_2 C25_2 1_555 1_555
C17_2 C18_2 1_555 1_555
C24_2 C25_2 1_555 1_555
H13_2 C19_2 1_555 1_555
H14_2 C19_2 1_555 1_555
C20_2 C19_2 1_555 1_555
C21_2 C20_2 1_555 1_555
H15_2 C21_2 1_555 1_555
C22_2 C21_2 1_555 1_555
H16_2 C22_2 1_555 1_555
C23_2 C22_2 1_555 1_555
C11_2 C6_2 1_555 1_555
H7_2 C11_2 1_555 1_555
C45_2 C11_2 1_555 1_555
H29_2 C45_2 1_555 1_555
H6_2 C10_2 1_555 1_555
C46_2 C10_2 1_555 1_555
H30_2 C46_2 1_555 1_555
C41_2 C46_2 1_555 1_555

#END
