
###############################################################################
#
# This file contains modified crystal structure data generated from the
# MOF subset of the Cambridge Structural Database (CSD) v543 
# hosted by the Cambridge Crystallographic Data Centre (CCDC).
#
# This work is licensed under the Creative Commons
# Attribution-NonCommercial-ShareAlike 4.0 International License.
# To view a copy of this license, visit
# http://creativecommons.org/licenses/by-nc-sa/4.0/
# or send a letter to
# Creative Commons, PO Box 1866, Mountain View, CA 94042, USA.
#
# CIF created using the CSD Python API on 29 September 2022
# The structure has been converted into the P1 space group
# The structure has a 3D framework
# The original CSD entry OJICES is in the monoclinic crystal system
# The framework has been calculated to contain at least 10.0% void space
# The void calculation uses a probe of radius 1.32A, grid spacing 0.4
#
###############################################################################

data_OJICES
_chemical_formula_moiety         '(C72 H78 N20 O32 Zn8)n'
_symmetry_cell_setting           triclinic
_symmetry_space_group_name_H-M   'P 1'
_symmetry_Int_Tables_number      1
_space_group_name_Hall           'P 1'
loop_
_symmetry_equiv_pos_site_id
_symmetry_equiv_pos_as_xyz
1 x,y,z
_cell_length_a                   8.8015(6)
_cell_length_b                   18.3024(14)
_cell_length_c                   16.9217(12)
_cell_angle_alpha                90
_cell_angle_beta                 109.718(4)
_cell_angle_gamma                90
_cell_volume                     2566.06
loop_
_atom_site_label
_atom_site_type_symbol
_atom_site_fract_x
_atom_site_fract_y
_atom_site_fract_z
O2 O 0.2978(3) 0.03699(15) 0.38379(13)
N3 N 0.1683(2) 0.00094(12) 0.24969(13)
N4 N 0.4521(2) 0.00828(13) 0.30445(13)
C6 C 0.3044(3) 0.01702(16) 0.31671(17)
C7 C 0.0088(3) 0.0143(2) 0.2565(2)
H4 H 0.0206 0.0424 0.3061
C8 C 0.5964(4) 0.0278(2) 0.37604(19)
H6 H 0.6002 0.0798 0.3838
H7 H 0.6914 0.0119 0.3651
H8 H 0.5916 0.0044 0.4259
O13 O 0.35431(17) 0.00966(8) 0.93252(10)
Zn2 Zn 0.44401(3) 0.919938(14) 0.009753(16)
O3 O 0.61431(19) 0.98440(11) 0.22662(11)
N1 N 0.0638(2) 0.95416(10) 0.10685(12)
N2 N 0.3023(2) 0.94176(10) 0.08469(12)
C2 C 0.1440(3) 0.93416(12) 0.05385(14)
H2 H 0.0911 0.9165 0.0000
C3 C 0.3303(3) 0.96853(12) 0.16481(14)
C4 C 0.1843(3) 0.97576(12) 0.17687(14)
C5 C 0.4771(3) 0.98662(14) 0.22993(15)
O11 O 0.5588(2) 0.83207(9) 0.08544(11)
O12 O 0.64569(17) 0.99034(8) 0.06748(10)
O4 O 0.2476(2) 0.84564(12) 0.93502(14)
N5 N 0.2609(3) 0.73570(14) 0.87898(17)
H2_2 H 0.0911 0.9165 1.0000
C16 C 0.2452(3) 0.80662(16) 0.8760(2)
H13 H 0.2309 0.8293 0.8249
C17 C 0.2866(6) 0.6982(3) 0.9571(3)
H14 H 0.2694 0.7314 0.9972
H15 H 0.3952 0.6800 0.9781
H16 H 0.2123 0.6581 0.9482
C18 C 0.2565(4) 0.69267(19) 0.8061(3)
H17 H 0.2331 0.7240 0.7580
H18 H 0.1742 0.6560 0.7960
H19 H 0.3593 0.6696 0.8162
O10 O 0.53777(19) 0.88727(9) 0.91513(10)
Zn5 Zn 0.55599(3) 0.080062(14) 0.990247(16)
Zn1 Zn 0.82982(3) 0.929788(14) 0.075598(16)
H1 H 0.6359 0.9980 0.1182
H5 H 0.9582 0.9684 0.2598
O9 O 0.8206(2) 0.85299(10) 0.15531(11)
O1 O 0.8206(2) 0.64701(10) 0.65531(11)
C1 C 0.6864(3) 0.67835(13) 0.64486(16)
O5 O 0.80742(19) 0.88342(10) 0.96848(11)
O7 O 0.5588(2) 0.66793(9) 0.58544(11)
C9 C 0.6728(3) 0.87027(12) 0.91227(14)
C10 C 0.6799(3) 0.82760(13) 0.83811(15)
C11 C 0.8226(3) 0.79444(18) 0.84047(19)
H9 H 0.9171 0.8037 0.8850
C12 C 0.8249(3) 0.74781(18) 0.77705(19)
H10 H 0.9212 0.7257 0.7790
C13 C 0.6852(3) 0.73352(13) 0.71032(16)
C14 C 0.5446(3) 0.76924(15) 0.70588(16)
H11 H 0.4512 0.7618 0.6601
C15 C 0.5425(3) 0.81618(14) 0.76961(16)
H12 H 0.4475 0.8403 0.7662
Zn3 Zn 0.82982(3) 0.570212(14) 0.575598(16)
Zn6 Zn 0.44401(3) 0.580062(14) 0.509753(16)
O1_2 O 0.1794(2) 0.14701(10) 0.84469(11)
C1_2 C 0.3136(3) 0.17835(13) 0.85514(16)
Zn1_2 Zn 0.17018(3) 0.429788(14) 0.424402(16)
O5_2 O 0.19258(19) 0.38342(10) 0.53152(11)
O6 O 0.46223(19) 0.38727(9) 0.58487(10)
O7_2 O 0.4412(2) 0.16793(9) 0.91456(11)
O8 O 0.35431(17) 0.49034(8) 0.43252(10)
H1_2 H 0.3641 0.4980 0.3818
H3 H 0.0569 0.5408 0.2920
H5_2 H 0.0418 0.4684 0.2402
C9_2 C 0.3272(3) 0.37027(12) 0.58773(14)
C10_2 C 0.3201(3) 0.32760(13) 0.66189(15)
C11_2 C 0.1774(3) 0.29444(18) 0.65953(19)
H9_2 H 0.0829 0.3037 0.6150
C12_2 C 0.1751(3) 0.24781(18) 0.72295(19)
H10_2 H 0.0788 0.2257 0.7210
C13_2 C 0.3148(3) 0.23352(13) 0.78968(16)
C14_2 C 0.4554(3) 0.26924(15) 0.79412(16)
H11_2 H 0.5488 0.2618 0.8399
C15_2 C 0.4575(3) 0.31618(14) 0.73039(16)
H12_2 H 0.5525 0.3403 0.7338
O9_2 O 0.1794(2) 0.35299(10) 0.34469(11)
Zn3_2 Zn 0.17018(3) 0.070212(14) 0.924402(16)
Zn4 Zn 0.55599(3) 0.419938(14) 0.490247(16)
O2_2 O 0.7022(3) 0.53699(15) 0.11621(13)
O3_2 O 0.38569(19) 0.48440(11) 0.27338(11)
O4_2 O 0.7524(2) 0.34564(12) 0.56498(14)
N1_2 N 0.9362(2) 0.45416(10) 0.39315(12)
N2_2 N 0.6977(2) 0.44176(10) 0.41531(12)
N3_2 N 0.8317(2) 0.50094(12) 0.25031(13)
N4_2 N 0.5479(2) 0.50828(13) 0.19555(13)
N5_2 N 0.7391(3) 0.23570(14) 0.62102(17)
C2_2 C 0.8560(3) 0.43416(12) 0.44615(14)
H2_3 H 0.9089 0.4165 0.5000
C3_2 C 0.6697(3) 0.46853(12) 0.33519(14)
C4_2 C 0.8157(3) 0.47576(12) 0.32313(14)
C5_2 C 0.5229(3) 0.48662(14) 0.27007(15)
C6_2 C 0.6956(3) 0.51702(16) 0.18329(17)
C7_2 C 0.9912(3) 0.5143(2) 0.2435(2)
H4_2 H 0.9794 0.5424 0.1939
C8_2 C 0.4036(4) 0.5278(2) 0.12396(19)
H6_2 H 0.3998 0.5798 0.1162
H7_2 H 0.3086 0.5119 0.1349
H8_2 H 0.4084 0.5044 0.0741
C16_2 C 0.7548(3) 0.30662(16) 0.6240(2)
H13_2 H 0.7691 0.3293 0.6751
C17_2 C 0.7134(6) 0.1982(3) 0.5429(3)
H14_2 H 0.7306 0.2314 0.5028
H15_2 H 0.6048 0.1800 0.5219
H16_2 H 0.7877 0.1581 0.5518
C18_2 C 0.7435(4) 0.19267(19) 0.6939(3)
H17_2 H 0.7669 0.2240 0.7420
H18_2 H 0.8258 0.1560 0.7040
H19_2 H 0.6407 0.1696 0.6838
O11_2 O 0.4412(2) 0.33207(9) 0.41456(11)
O13_2 O 0.64569(17) 0.50966(8) 0.56748(10)
C1_3 C 0.3136(3) 0.32165(13) 0.35514(16)
O5_3 O 0.19258(19) 0.11658(10) 0.03152(11)
O6_2 O 0.46223(19) 0.11273(9) 0.08487(10)
C9_3 C 0.3272(3) 0.12973(12) 0.08773(14)
C10_3 C 0.3201(3) 0.17240(13) 0.16189(15)
C11_3 C 0.1774(3) 0.20556(18) 0.15953(19)
H9_3 H 0.0829 0.1963 0.1150
C12_3 C 0.1751(3) 0.25219(18) 0.22295(19)
H10_3 H 0.0788 0.2743 0.2210
C13_3 C 0.3148(3) 0.26648(13) 0.28968(16)
C14_3 C 0.4554(3) 0.23076(15) 0.29412(16)
H11_3 H 0.5488 0.2382 0.3399
C15_3 C 0.4575(3) 0.18382(14) 0.23039(16)
H12_3 H 0.5525 0.1597 0.2338
H1_3 H 0.3641 0.0020 0.8818
H5_3 H 0.0418 0.0316 0.7402
O4_3 O 0.7524(2) 0.15436(12) 0.06498(14)
N5_3 N 0.7391(3) 0.26430(14) 0.12102(17)
H2_4 H 0.9089 0.0835 0.0000
C16_3 C 0.7548(3) 0.19338(16) 0.1240(2)
H13_3 H 0.7691 0.1707 0.1751
C17_3 C 0.7134(6) 0.3018(3) 0.0429(3)
H14_3 H 0.7306 0.2686 0.0028
H15_3 H 0.6048 0.3200 0.0219
H16_3 H 0.7877 0.3419 0.0518
C18_3 C 0.7435(4) 0.30733(19) 0.1939(3)
H17_3 H 0.7669 0.2760 0.2420
H18_3 H 0.8258 0.3440 0.2040
H19_3 H 0.6407 0.3304 0.1838
O3_3 O 0.38569(19) 0.01560(11) 0.77338(11)
N1_3 N 0.9362(2) 0.04584(10) 0.89315(12)
N2_3 N 0.6977(2) 0.05824(10) 0.91531(12)
C2_3 C 0.8560(3) 0.06584(12) 0.94615(14)
H2_5 H 0.9089 0.0835 1.0000
C3_3 C 0.6697(3) 0.03147(12) 0.83519(14)
C4_3 C 0.8157(3) 0.02424(12) 0.82313(14)
C5_3 C 0.5229(3) 0.01338(14) 0.77007(15)
O2_3 O 0.2978(3) 0.46301(15) 0.88379(13)
O3_4 O 0.61431(19) 0.51560(11) 0.72662(11)
O4_4 O 0.2476(2) 0.65436(12) 0.43502(14)
N1_4 N 0.0638(2) 0.54584(10) 0.60685(12)
N2_4 N 0.3023(2) 0.55824(10) 0.58469(12)
N3_3 N 0.1683(2) 0.49906(12) 0.74969(13)
N4_3 N 0.4521(2) 0.49172(13) 0.80445(13)
N5_4 N 0.2609(3) 0.76430(14) 0.37898(17)
C2_4 C 0.1440(3) 0.56584(12) 0.55385(14)
H2_6 H 0.0911 0.5835 0.5000
C3_4 C 0.3303(3) 0.53147(12) 0.66481(14)
C4_4 C 0.1843(3) 0.52424(12) 0.67687(14)
C5_4 C 0.4771(3) 0.51338(14) 0.72993(15)
C6_3 C 0.3044(3) 0.48298(16) 0.81671(17)
C7_3 C 0.0088(3) 0.4857(2) 0.7565(2)
H4_3 H 0.0206 0.4576 0.8061
C8_3 C 0.5964(4) 0.4722(2) 0.87604(19)
H6_3 H 0.6002 0.4202 0.8838
H7_3 H 0.6914 0.4881 0.8651
H8_3 H 0.5916 0.4956 0.9259
C16_4 C 0.2452(3) 0.69338(16) 0.3760(2)
H13_4 H 0.2309 0.6707 0.3249
C17_4 C 0.2866(6) 0.8018(3) 0.4571(3)
H14_4 H 0.2694 0.7686 0.4972
H15_4 H 0.3952 0.8200 0.4781
H16_4 H 0.2123 0.8419 0.4482
C18_4 C 0.2565(4) 0.80733(19) 0.3061(3)
H17_4 H 0.2331 0.7760 0.2580
H18_4 H 0.1742 0.8440 0.2960
H19_4 H 0.3593 0.8304 0.3162
O10_2 O 0.53777(19) 0.61273(9) 0.41513(10)
C1_4 C 0.6864(3) 0.82165(13) 0.14486(16)
O5_4 O 0.80742(19) 0.61658(10) 0.46848(11)
H1_4 H 0.6359 0.5020 0.6182
H3_2 H 0.9431 0.4592 0.7080
H5_4 H 0.9582 0.5316 0.7598
C9_4 C 0.6728(3) 0.62973(12) 0.41227(14)
C10_4 C 0.6799(3) 0.67240(13) 0.33811(15)
C11_4 C 0.8226(3) 0.70556(18) 0.34047(19)
H9_4 H 0.9171 0.6963 0.3850
C12_4 C 0.8249(3) 0.75219(18) 0.27705(19)
H10_4 H 0.9212 0.7743 0.2790
C13_4 C 0.6852(3) 0.76648(13) 0.21032(16)
C14_4 C 0.5446(3) 0.73076(15) 0.20588(16)
H11_4 H 0.4512 0.7382 0.1601
C15_4 C 0.5425(3) 0.68382(14) 0.26961(16)
H12_4 H 0.4475 0.6597 0.2662
H3_3 H 0.9431 0.0408 0.2080
H3_4 H 0.0569 0.9592 0.7920
O2_4 O 0.7022(3) 0.96301(15) 0.61621(13)
N3_4 N 0.8317(2) 0.99906(12) 0.75031(13)
N4_4 N 0.5479(2) 0.99172(13) 0.69555(13)
C6_4 C 0.6956(3) 0.98298(16) 0.68329(17)
C7_4 C 0.9912(3) 0.9857(2) 0.7435(2)
H4_4 H 0.9794 0.9576 0.6939
C8_4 C 0.4036(4) 0.9722(2) 0.62396(19)
H6_4 H 0.3998 0.9202 0.6162
H7_4 H 0.3086 0.9881 0.6349
H8_4 H 0.4084 0.9956 0.5741
loop_
_geom_bond_atom_site_label_1
_geom_bond_atom_site_label_2
_geom_bond_site_symmetry_1
_geom_bond_site_symmetry_2
O2 C6 1_555 1_555
C6 N3 1_555 1_555
C7 N3 1_555 1_555
H4 C7 1_555 1_555
C8 N4 1_555 1_555
H6 C8 1_555 1_555
H7 C8 1_555 1_555
H8 C8 1_555 1_555
N4 C6 1_555 1_555
O3 C5 1_555 1_555
N2 Zn2 1_555 1_555
C2 N1 1_555 1_555
H2 C2 1_555 1_555
C3 N2 1_555 1_555
C4 N1 1_555 1_555
C5 C3 1_555 1_555
O11 Zn2 1_555 1_555
O12 Zn2 1_555 1_555
N2 C2 1_555 1_555
C3 C4 1_555 1_555
O4 C16 1_555 1_555
N5 C16 1_555 1_555
C16 H13 1_555 1_555
C17 N5 1_555 1_555
H14 C17 1_555 1_555
H15 C17 1_555 1_555
H16 C17 1_555 1_555
C18 N5 1_555 1_555
H17 C18 1_555 1_555
H18 C18 1_555 1_555
H19 C18 1_555 1_555
O12 Zn1 1_555 1_555
H1 O12 1_555 1_555
O9 Zn1 1_555 1_555
O1 C1 1_555 1_555
C1 O7 1_555 1_555
O5 C9 1_555 1_555
O10 C9 1_555 1_555
O7 Zn6 1_555 1_555
C9 C10 1_555 1_555
C10 C11 1_555 1_555
C11 H9 1_555 1_555
C12 C11 1_555 1_555
H10 C12 1_555 1_555
C13 C1 1_555 1_555
C14 C13 1_555 1_555
H11 C14 1_555 1_555
C15 C10 1_555 1_555
H12 C15 1_555 1_555
Zn3 O1 1_555 1_555
C12 C13 1_555 1_555
C14 C15 1_555 1_555
O1_2 C1_2 1_555 1_555
C1_2 O7_2 1_555 1_555
Zn1_2 O5_2 1_555 1_555
O5_2 C9_2 1_555 1_555
O6 C9_2 1_555 1_555
O7_2 Zn5 1_555 1_555
O8 Zn1_2 1_555 1_555
H1_2 O8 1_555 1_555
C9_2 C10_2 1_555 1_555
C10_2 C11_2 1_555 1_555
C11_2 H9_2 1_555 1_555
C12_2 C11_2 1_555 1_555
H10_2 C12_2 1_555 1_555
C13_2 C1_2 1_555 1_555
C14_2 C13_2 1_555 1_555
H11_2 C14_2 1_555 1_555
C15_2 C10_2 1_555 1_555
H12_2 C15_2 1_555 1_555
O9_2 Zn1_2 1_555 1_555
Zn3_2 O1_2 1_555 1_555
Zn4 O6 1_555 1_555
Zn6 O8 1_555 1_555
O8 Zn4 1_555 1_555
C12_2 C13_2 1_555 1_555
C14_2 C15_2 1_555 1_555
Zn4 O4_2 1_555 1_555
O2_2 C6_2 1_555 1_555
O3_2 C5_2 1_555 1_555
O4_2 C16_2 1_555 1_555
N2_2 Zn4 1_555 1_555
N3_2 C4_2 1_555 1_555
N4_2 C5_2 1_555 1_555
N5_2 C16_2 1_555 1_555
C2_2 N1_2 1_555 1_555
H2_3 C2_2 1_555 1_555
C3_2 N2_2 1_555 1_555
C4_2 N1_2 1_555 1_555
C5_2 C3_2 1_555 1_555
C6_2 N3_2 1_555 1_555
C7_2 N3_2 1_555 1_555
H4_2 C7_2 1_555 1_555
C8_2 N4_2 1_555 1_555
H6_2 C8_2 1_555 1_555
H7_2 C8_2 1_555 1_555
H8_2 C8_2 1_555 1_555
C16_2 H13_2 1_555 1_555
C17_2 N5_2 1_555 1_555
H14_2 C17_2 1_555 1_555
H15_2 C17_2 1_555 1_555
H16_2 C17_2 1_555 1_555
C18_2 N5_2 1_555 1_555
H17_2 C18_2 1_555 1_555
H18_2 C18_2 1_555 1_555
H19_2 C18_2 1_555 1_555
O11_2 Zn4 1_555 1_555
O13_2 Zn4 1_555 1_555
N2_2 C2_2 1_555 1_555
N4_2 C6_2 1_555 1_555
C3_2 C4_2 1_555 1_555
O9_2 C1_3 1_555 1_555
C1_3 O11_2 1_555 1_555
O5_3 C9_3 1_555 1_555
O6_2 C9_3 1_555 1_555
C9_3 C10_3 1_555 1_555
C10_3 C11_3 1_555 1_555
C11_3 H9_3 1_555 1_555
C12_3 C11_3 1_555 1_555
H10_3 C12_3 1_555 1_555
C13_3 C1_3 1_555 1_555
C14_3 C13_3 1_555 1_555
H11_3 C14_3 1_555 1_555
C15_3 C10_3 1_555 1_555
H12_3 C15_3 1_555 1_555
C12_3 C13_3 1_555 1_555
C14_3 C15_3 1_555 1_555
O13 Zn3_2 1_555 1_555
H1_3 O13 1_555 1_555
O13 Zn5 1_555 1_555
O4_3 C16_3 1_555 1_555
N5_3 C16_3 1_555 1_555
C16_3 H13_3 1_555 1_555
C17_3 N5_3 1_555 1_555
H14_3 C17_3 1_555 1_555
H15_3 C17_3 1_555 1_555
H16_3 C17_3 1_555 1_555
C18_3 N5_3 1_555 1_555
H17_3 C18_3 1_555 1_555
H18_3 C18_3 1_555 1_555
H19_3 C18_3 1_555 1_555
O3_3 C5_3 1_555 1_555
N2_3 Zn5 1_555 1_555
C2_3 N1_3 1_555 1_555
H2_5 C2_3 1_555 1_555
C3_3 N2_3 1_555 1_555
C4_3 N1_3 1_555 1_555
C5_3 C3_3 1_555 1_555
N2_3 C2_3 1_555 1_555
C3_3 C4_3 1_555 1_555
Zn6 O4_4 1_555 1_555
O2_3 C6_3 1_555 1_555
O3_4 C5_4 1_555 1_555
O4_4 C16_4 1_555 1_555
N2_4 Zn6 1_555 1_555
N3_3 C4_4 1_555 1_555
N4_3 C5_4 1_555 1_555
N5_4 C16_4 1_555 1_555
C2_4 N1_4 1_555 1_555
H2_6 C2_4 1_555 1_555
C3_4 N2_4 1_555 1_555
C4_4 N1_4 1_555 1_555
C5_4 C3_4 1_555 1_555
C6_3 N3_3 1_555 1_555
C7_3 N3_3 1_555 1_555
H4_3 C7_3 1_555 1_555
C8_3 N4_3 1_555 1_555
H6_3 C8_3 1_555 1_555
H7_3 C8_3 1_555 1_555
H8_3 C8_3 1_555 1_555
C16_4 H13_4 1_555 1_555
C17_4 N5_4 1_555 1_555
H14_4 C17_4 1_555 1_555
H15_4 C17_4 1_555 1_555
H16_4 C17_4 1_555 1_555
C18_4 N5_4 1_555 1_555
H17_4 C18_4 1_555 1_555
H18_4 C18_4 1_555 1_555
H19_4 C18_4 1_555 1_555
O10_2 Zn6 1_555 1_555
O13_2 Zn6 1_555 1_555
N2_4 C2_4 1_555 1_555
N4_3 C6_3 1_555 1_555
C3_4 C4_4 1_555 1_555
O9 C1_4 1_555 1_555
C1_4 O11 1_555 1_555
Zn3 O5_4 1_555 1_555
O5_4 C9_4 1_555 1_555
O10_2 C9_4 1_555 1_555
O13_2 Zn3 1_555 1_555
H1_4 O13_2 1_555 1_555
C9_4 C10_4 1_555 1_555
C10_4 C11_4 1_555 1_555
C11_4 H9_4 1_555 1_555
C12_4 C11_4 1_555 1_555
H10_4 C12_4 1_555 1_555
C13_4 C1_4 1_555 1_555
C14_4 C13_4 1_555 1_555
H11_4 C14_4 1_555 1_555
C15_4 C10_4 1_555 1_555
H12_4 C15_4 1_555 1_555
C12_4 C13_4 1_555 1_555
C14_4 C15_4 1_555 1_555
O2_4 C6_4 1_555 1_555
C6_4 N3_4 1_555 1_555
C7_4 N3_4 1_555 1_555
H4_4 C7_4 1_555 1_555
C8_4 N4_4 1_555 1_555
H6_4 C8_4 1_555 1_555
H7_4 C8_4 1_555 1_555
H8_4 C8_4 1_555 1_555
N4_4 C6_4 1_555 1_555

#END
