
###############################################################################
#
# This file contains modified crystal structure data generated from the
# MOF subset of the Cambridge Structural Database (CSD) v543 
# hosted by the Cambridge Crystallographic Data Centre (CCDC).
#
# This work is licensed under the Creative Commons
# Attribution-NonCommercial-ShareAlike 4.0 International License.
# To view a copy of this license, visit
# http://creativecommons.org/licenses/by-nc-sa/4.0/
# or send a letter to
# Creative Commons, PO Box 1866, Mountain View, CA 94042, USA.
#
# CIF created using the CSD Python API on 29 September 2022
# The structure has been converted into the P1 space group
# The structure has a 3D framework
# The original CSD entry OJIGUM is in the orthorhombic crystal system
# The framework has been calculated to contain at least 10.0% void space
# The void calculation uses a probe of radius 1.32A, grid spacing 0.4
#
###############################################################################

data_OJIGUM
_chemical_formula_moiety         '(C52 H56 Eu8 N34 O34)n'
_symmetry_cell_setting           triclinic
_symmetry_space_group_name_H-M   'P 1'
_symmetry_Int_Tables_number      1
_space_group_name_Hall           'P 1'
loop_
_symmetry_equiv_pos_site_id
_symmetry_equiv_pos_as_xyz
1 x,y,z
_cell_length_a                   13.2348(4)
_cell_length_b                   19.4052(6)
_cell_length_c                   8.2979(2)
_cell_angle_alpha                90
_cell_angle_beta                 90
_cell_angle_gamma                90
_cell_volume                     2131.1
loop_
_atom_site_label
_atom_site_type_symbol
_atom_site_fract_x
_atom_site_fract_y
_atom_site_fract_z
C16 C 0.5294(2) 0.02961(15) 0.6422(3)
H16 H 0.5495 0.0504 0.7408
C19 C 0.2500 0.0283(4) 0.7442(9)
H17 H 0.2500 0.0418 0.8543
C20 C 0.2500 0.1488(4) 0.6755(11)
H18 H 0.2500 0.1554 0.7902
H19 H 0.3092 0.1697 0.6300
C21 C 0.2500 0.0607(4) 0.4609(9)
H20 H 0.2500 0.0117 0.4451
H21 H 0.1908 0.0802 0.4121
N14 N 0.2500 0.0758(3) 0.6304(7)
C22 C 0.5016(2) 0.07371(15) 0.1975(3)
C23 C 0.5081(2) 0.03718(15) 0.3545(3)
C25 C 0.5388(2) 0.06722(14) 0.5006(3)
C26 C 0.5843(2) 0.13838(15) 0.5209(3)
N15 N 0.5723(2) 0.11227(13) 0.1269(3)
N18 N 0.4171(2) 0.07220(15) 0.1094(3)
O16 O 0.64480(19) 0.16113(11) 0.4187(3)
O17 O 0.56141(17) 0.16926(11) 0.6483(2)
H26 H 0.1908 0.1697 0.6300
H27 H 0.3092 0.0802 0.4121
Eu10 Eu 0.60921(2) 0.2500 0.84791(2)
Eu11 Eu 0.7500 0.14916(2) 0.18891(2)
N16 N 0.5281(2) 0.13730(13) 0.9933(3)
N17 N 0.4358(2) 0.11333(15) 0.9829(3)
Eu1 Eu 0.10921(2) 0.7500 0.15209(2)
N2 N 0.0281(2) 0.63730(13) 0.0067(3)
O2 O 0.2500 0.7500 0.3595(4)
H7 H 0.2500 0.7141 0.4180
O5 O 0.2500 0.67401(14) 0.0930(3)
H9 H 0.2500 0.6392 0.1489
H14 H 0.2500 0.7859 0.4180
Eu3 Eu 0.39079(2) 0.7500 0.15209(2)
N11 N 0.4719(2) 0.86270(13) 0.0067(3)
N12 N 0.5642(2) 0.88667(15) 0.0171(3)
O12 O 0.5780(3) 0.7500 0.1524(5)
H22 H 0.5994 0.7912 0.1606
O13 O 0.2500 0.82599(14) 0.0930(3)
H23 H 0.2500 0.8608 0.1489
H28 H 0.5994 0.7088 0.1606
N21 N 0.0281(2) 0.86270(13) 0.0067(3)
N22 N 0.4719(2) 0.63730(13) 0.0067(3)
O20 O 0.06141(17) 0.66926(11) 0.3517(2)
O21 O 0.43859(17) 0.83074(11) 0.3517(2)
O22 O 0.06141(17) 0.83074(11) 0.3517(2)
O23 O 0.43859(17) 0.66926(11) 0.3517(2)
Eu2 Eu 0.2500 0.64916(2) 0.81109(2)
C1 C 0.0016(2) 0.57371(15) 0.8025(3)
C2 C 0.0081(2) 0.53718(15) 0.6455(3)
C4 C 0.0388(2) 0.56722(14) 0.4994(3)
C5 C 0.0843(2) 0.63838(15) 0.4791(3)
C6 C 0.2500 0.4717(4) 0.7442(9)
H2 H 0.2500 0.4582 0.8543
C7 C 0.2500 0.3512(4) 0.6755(11)
H3 H 0.2500 0.3446 0.7902
H4 H 0.1908 0.3303 0.6300
C8 C 0.2500 0.4393(4) 0.4609(9)
H5 H 0.2500 0.4883 0.4451
H6 H 0.3092 0.4198 0.4121
N1 N 0.0723(2) 0.61227(13) 0.8731(3)
N5 N 0.2500 0.4242(3) 0.6304(7)
O1 O 0.14480(19) 0.66113(11) 0.5813(3)
O6 O 0.1487(2) 0.7500 0.8642(3)
H10 H 0.0971 0.7500 0.8095
O7 O 0.2500 0.53394(17) 0.7089(5)
C11 C 0.0294(2) 0.52961(15) 0.3578(3)
H11 H 0.0495 0.5504 0.2592
N9 N 0.0829(2) 0.42780(15) 0.1094(3)
H12 H 0.3092 0.3303 0.6300
H13 H 0.1908 0.4198 0.4121
Eu4 Eu 0.2500 0.85084(2) 0.81109(2)
C14 C 0.4984(2) 0.92629(15) 0.8025(3)
C15 C 0.4919(2) 0.96282(15) 0.6455(3)
C17 C 0.4612(2) 0.93278(14) 0.4994(3)
C18 C 0.4157(2) 0.86162(15) 0.4791(3)
N10 N 0.4277(2) 0.88773(13) 0.8731(3)
N13 N 0.5829(2) 0.92780(15) 0.8906(3)
O10 O 0.35520(19) 0.83887(11) 0.5813(3)
O14 O 0.3513(2) 0.7500 0.8642(3)
H24 H 0.4029 0.7500 0.8095
O15 O 0.2500 0.96606(17) 0.7089(5)
C24 C 0.4706(2) 0.97039(15) 0.3578(3)
H25 H 0.4505 0.9496 0.2592
N19 N 0.0723(2) 0.88773(13) 0.8731(3)
N20 N 0.4277(2) 0.61227(13) 0.8731(3)
O18 O 0.14480(19) 0.83887(11) 0.5813(3)
O19 O 0.35520(19) 0.66113(11) 0.5813(3)
C3 C 0.9706(2) 0.47039(15) 0.6422(3)
H1 H 0.9505 0.4496 0.7408
N4 N 0.9171(2) 0.57220(15) 0.8906(3)
C9 C 0.9984(2) 0.42629(15) 0.1975(3)
C10 C 0.9919(2) 0.46282(15) 0.3545(3)
C12 C 0.9612(2) 0.43278(14) 0.5006(3)
C13 C 0.9157(2) 0.36162(15) 0.5209(3)
N6 N 0.9277(2) 0.38773(13) 0.1269(3)
O8 O 0.85520(19) 0.33887(11) 0.4187(3)
O9 O 0.93859(17) 0.33074(11) 0.6483(2)
Eu8 Eu 0.89079(2) 0.2500 0.84791(2)
Eu12 Eu 0.7500 0.35084(2) 0.18891(2)
N7 N 0.9719(2) 0.36270(13) 0.9933(3)
N4_2 N 0.0829(2) 0.07220(15) 0.1094(3)
C3_2 C 0.0294(2) 0.97039(15) 0.3578(3)
H1_2 H 0.0495 0.9496 0.2592
C9_2 C 0.0016(2) 0.92629(15) 0.8025(3)
C10_2 C 0.0081(2) 0.96282(15) 0.6455(3)
C12_2 C 0.0388(2) 0.93278(14) 0.4994(3)
C13_2 C 0.0843(2) 0.86162(15) 0.4791(3)
N17_2 N 0.5642(2) 0.61333(15) 0.0171(3)
C1_2 C 0.9984(2) 0.07371(15) 0.1975(3)
C2_2 C 0.9919(2) 0.03718(15) 0.3545(3)
C4_2 C 0.9612(2) 0.06722(14) 0.5006(3)
C5_2 C 0.9157(2) 0.13838(15) 0.5209(3)
N1_2 N 0.9277(2) 0.11227(13) 0.1269(3)
O1_2 O 0.85520(19) 0.16113(11) 0.4187(3)
O3 O 0.93859(17) 0.16926(11) 0.6483(2)
O6_2 O 0.8513(2) 0.2500 0.1358(3)
H10_2 H 0.9029 0.2500 0.1905
O7_2 O 0.7500 0.03394(17) 0.2911(5)
C11_2 C 0.9706(2) 0.02961(15) 0.6422(3)
H11_2 H 0.9505 0.0504 0.7408
C14_2 C 0.5016(2) 0.42629(15) 0.1975(3)
C15_2 C 0.5081(2) 0.46282(15) 0.3545(3)
C16_2 C 0.4706(2) 0.52961(15) 0.3578(3)
H16_2 H 0.4505 0.5504 0.2592
C17_2 C 0.5388(2) 0.43278(14) 0.5006(3)
C18_2 C 0.5843(2) 0.36162(15) 0.5209(3)
C19_2 C 0.7500 0.5283(4) 0.2558(9)
H17_2 H 0.7500 0.5418 0.1457
C20_2 C 0.7500 0.6488(4) 0.3245(11)
H18_2 H 0.7500 0.6554 0.2098
H19_2 H 0.6908 0.6697 0.3700
C21_2 C 0.7500 0.5607(4) 0.5391(9)
H20_2 H 0.7500 0.5117 0.5549
H21_2 H 0.8092 0.5802 0.5879
N10_2 N 0.5723(2) 0.38773(13) 0.1269(3)
N13_2 N 0.4171(2) 0.42780(15) 0.1094(3)
N14_2 N 0.7500 0.5758(3) 0.3696(7)
O10_2 O 0.64480(19) 0.33887(11) 0.4187(3)
O11 O 0.56141(17) 0.33074(11) 0.6483(2)
O14_2 O 0.6487(2) 0.2500 0.1358(3)
H24_2 H 0.5971 0.2500 0.1905
O15_2 O 0.7500 0.46606(17) 0.2911(5)
C22_2 C 0.4984(2) 0.57371(15) 0.8025(3)
C23_2 C 0.4919(2) 0.53718(15) 0.6455(3)
C24_2 C 0.5294(2) 0.47039(15) 0.6422(3)
H25_2 H 0.5495 0.4496 0.7408
C25_2 C 0.4612(2) 0.56722(14) 0.4994(3)
C26_2 C 0.4157(2) 0.63838(15) 0.4791(3)
N18_2 N 0.5829(2) 0.57220(15) 0.8906(3)
H26_2 H 0.8092 0.6697 0.3700
H27_2 H 0.6908 0.5802 0.5879
N2_2 N 0.9719(2) 0.13730(13) 0.9933(3)
O2_2 O 0.7500 0.2500 0.6405(4)
H7_2 H 0.7500 0.2141 0.5820
O5_2 O 0.7500 0.17401(14) 0.9070(3)
H9_2 H 0.7500 0.1392 0.8511
H14_2 H 0.7500 0.2859 0.5820
N11_2 N 0.5281(2) 0.36270(13) 0.9933(3)
N12_2 N 0.4358(2) 0.38667(15) 0.9829(3)
O12_2 O 0.4220(3) 0.2500 0.8476(5)
H22_2 H 0.4006 0.2912 0.8394
O13_2 O 0.7500 0.32599(14) 0.9070(3)
H23_2 H 0.7500 0.3608 0.8511
H28_2 H 0.4006 0.2088 0.8394
C6_2 C 0.7500 0.9717(4) 0.2558(9)
H2_2 H 0.7500 0.9582 0.1457
C7_2 C 0.7500 0.8512(4) 0.3245(11)
H3_2 H 0.7500 0.8446 0.2098
H4_2 H 0.8092 0.8303 0.3700
C8_2 C 0.7500 0.9393(4) 0.5391(9)
H5_2 H 0.7500 0.9883 0.5549
H6_2 H 0.6908 0.9198 0.5879
N5_2 N 0.7500 0.9242(3) 0.3696(7)
N9_2 N 0.9171(2) 0.92780(15) 0.8906(3)
H12_2 H 0.6908 0.8303 0.3700
H13_2 H 0.8092 0.9198 0.5879
N8 N 0.0642(2) 0.38667(15) 0.9829(3)
N3 N 0.0642(2) 0.11333(15) 0.9829(3)
O4 O 0.0780(3) 0.2500 0.8476(5)
H8 H 0.0994 0.2088 0.8394
H15 H 0.0994 0.2912 0.8394
N3_2 N 0.9358(2) 0.61333(15) 0.0171(3)
O4_2 O 0.9220(3) 0.7500 0.1524(5)
H8_2 H 0.9006 0.7088 0.1606
H15_2 H 0.9006 0.7912 0.1606
N8_2 N 0.9358(2) 0.88667(15) 0.0171(3)
loop_
_geom_bond_atom_site_label_1
_geom_bond_atom_site_label_2
_geom_bond_site_symmetry_1
_geom_bond_site_symmetry_2
C16 H16 1_555 1_555
C19 H17 1_555 1_555
C20 H18 1_555 1_555
H19 C20 1_555 1_555
C21 H20 1_555 1_555
H21 C21 1_555 1_555
N14 C19 1_555 1_555
C22 C23 1_555 1_555
C25 C16 1_555 1_555
C26 C25 1_555 1_555
N15 C22 1_555 1_555
N18 C22 1_555 1_555
O16 C26 1_555 1_555
O17 C26 1_555 1_555
H26 C20 1_555 1_555
H27 C21 1_555 1_555
Eu10 O17 1_555 1_555
Eu11 N15 1_555 1_555
C20 N14 1_555 1_555
C21 N14 1_555 1_555
C23 C25 1_555 1_555
O16 Eu11 1_555 1_555
N17 N16 1_555 1_555
Eu10 N16 1_555 1_555
Eu1 N2 1_555 1_555
O2 Eu1 1_555 1_555
H7 O2 1_555 1_555
O5 Eu1 1_555 1_555
H9 O5 1_555 1_555
H14 O2 1_555 1_555
Eu3 O2 1_555 1_555
N11 Eu3 1_555 1_555
N12 N11 1_555 1_555
O12 Eu3 1_555 1_555
H22 O12 1_555 1_555
O13 Eu1 1_555 1_555
H23 O13 1_555 1_555
H28 O12 1_555 1_555
N21 Eu1 1_555 1_555
N22 Eu3 1_555 1_555
O20 Eu1 1_555 1_555
O21 Eu3 1_555 1_555
O22 Eu1 1_555 1_555
O23 Eu3 1_555 1_555
O5 Eu3 1_555 1_555
Eu3 O13 1_555 1_555
Eu2 N1 1_555 1_555
C1 C2 1_555 1_555
C4 C2 1_555 1_555
C5 C4 1_555 1_555
C6 H2 1_555 1_555
C7 H3 1_555 1_555
H4 C7 1_555 1_555
C8 H5 1_555 1_555
H6 C8 1_555 1_555
N1 C1 1_555 1_555
N5 C6 1_555 1_555
O1 Eu2 1_555 1_555
O20 C5 1_555 1_555
H10 O6 1_555 1_555
O7 Eu2 1_555 1_555
C11 C4 1_555 1_555
H11 C11 1_555 1_555
H12 C7 1_555 1_555
H13 C8 1_555 1_555
Eu4 O6 1_555 1_555
C14 C15 1_555 1_555
C17 C15 1_555 1_555
C18 C17 1_555 1_555
N10 Eu4 1_555 1_555
N13 C14 1_555 1_555
O10 Eu4 1_555 1_555
O21 C18 1_555 1_555
O14 Eu2 1_555 1_555
H24 O14 1_555 1_555
O15 Eu4 1_555 1_555
C24 C17 1_555 1_555
H25 C24 1_555 1_555
N19 Eu4 1_555 1_555
N20 Eu2 1_555 1_555
O18 Eu4 1_555 1_555
O19 Eu2 1_555 1_555
Eu2 O6 1_555 1_555
C5 O1 1_555 1_555
C6 O7 1_555 1_555
C7 N5 1_555 1_555
C8 N5 1_555 1_555
Eu4 O14 1_555 1_555
C14 N10 1_555 1_555
C18 O10 1_555 1_555
C3 H1 1_555 1_555
C9 C10 1_555 1_555
C12 C3 1_555 1_555
C13 C12 1_555 1_555
N6 C9 1_555 1_555
O8 C13 1_555 1_555
O9 C13 1_555 1_555
Eu8 O9 1_555 1_555
Eu12 N6 1_555 1_555
C10 C12 1_555 1_555
O8 Eu12 1_555 1_555
Eu8 N7 1_555 1_555
C3_2 H1_2 1_555 1_555
C9_2 C10_2 1_555 1_555
C12_2 C3_2 1_555 1_555
C13_2 C12_2 1_555 1_555
N19 C9_2 1_555 1_555
O18 C13_2 1_555 1_555
O22 C13_2 1_555 1_555
C10_2 C12_2 1_555 1_555
N17_2 N22 1_555 1_555
Eu11 N1_2 1_555 1_555
C1_2 C2_2 1_555 1_555
C4_2 C2_2 1_555 1_555
C5_2 C4_2 1_555 1_555
N1_2 C1_2 1_555 1_555
O1_2 Eu11 1_555 1_555
O3 C5_2 1_555 1_555
H10_2 O6_2 1_555 1_555
O7_2 Eu11 1_555 1_555
C11_2 C4_2 1_555 1_555
H11_2 C11_2 1_555 1_555
Eu12 O6_2 1_555 1_555
C14_2 C15_2 1_555 1_555
C15_2 C16_2 1_555 1_555
C16_2 H16_2 1_555 1_555
C17_2 C15_2 1_555 1_555
C18_2 C17_2 1_555 1_555
C19_2 H17_2 1_555 1_555
C20_2 H18_2 1_555 1_555
H19_2 C20_2 1_555 1_555
C21_2 H20_2 1_555 1_555
H21_2 C21_2 1_555 1_555
N10_2 Eu12 1_555 1_555
N13_2 C14_2 1_555 1_555
N14_2 C19_2 1_555 1_555
O10_2 Eu12 1_555 1_555
O11 C18_2 1_555 1_555
O14_2 Eu11 1_555 1_555
H24_2 O14_2 1_555 1_555
O15_2 Eu12 1_555 1_555
C22_2 C23_2 1_555 1_555
C23_2 C24_2 1_555 1_555
C24_2 C17_2 1_555 1_555
H25_2 C24_2 1_555 1_555
C25_2 C16_2 1_555 1_555
C26_2 C25_2 1_555 1_555
N20 C22_2 1_555 1_555
N18_2 C22_2 1_555 1_555
O19 C26_2 1_555 1_555
O23 C26_2 1_555 1_555
H26_2 C20_2 1_555 1_555
H27_2 C21_2 1_555 1_555
Eu8 O3 1_555 1_555
Eu10 O11 1_555 1_555
Eu11 O6_2 1_555 1_555
C5_2 O1_2 1_555 1_555
Eu12 O14_2 1_555 1_555
C14_2 N10_2 1_555 1_555
C18_2 O10_2 1_555 1_555
C19_2 O15_2 1_555 1_555
C20_2 N14_2 1_555 1_555
C21_2 N14_2 1_555 1_555
C23_2 C25_2 1_555 1_555
Eu8 N2_2 1_555 1_555
O2_2 Eu8 1_555 1_555
H7_2 O2_2 1_555 1_555
O5_2 Eu8 1_555 1_555
H9_2 O5_2 1_555 1_555
H14_2 O2_2 1_555 1_555
Eu10 O2_2 1_555 1_555
N11_2 Eu10 1_555 1_555
N12_2 N11_2 1_555 1_555
O12_2 Eu10 1_555 1_555
H22_2 O12_2 1_555 1_555
O13_2 Eu8 1_555 1_555
H23_2 O13_2 1_555 1_555
H28_2 O12_2 1_555 1_555
O5_2 Eu10 1_555 1_555
Eu10 O13_2 1_555 1_555
C6_2 H2_2 1_555 1_555
C7_2 H3_2 1_555 1_555
H4_2 C7_2 1_555 1_555
C8_2 H5_2 1_555 1_555
H6_2 C8_2 1_555 1_555
N5_2 C6_2 1_555 1_555
H12_2 C7_2 1_555 1_555
H13_2 C8_2 1_555 1_555
C7_2 N5_2 1_555 1_555
C8_2 N5_2 1_555 1_555
H8 O4 1_555 1_555
H15 O4 1_555 1_555
H8_2 O4_2 1_555 1_555
H15_2 O4_2 1_555 1_555

#END
