
###############################################################################
#
# This file contains modified crystal structure data generated from the
# MOF subset of the Cambridge Structural Database (CSD) v543 
# hosted by the Cambridge Crystallographic Data Centre (CCDC).
#
# This work is licensed under the Creative Commons
# Attribution-NonCommercial-ShareAlike 4.0 International License.
# To view a copy of this license, visit
# http://creativecommons.org/licenses/by-nc-sa/4.0/
# or send a letter to
# Creative Commons, PO Box 1866, Mountain View, CA 94042, USA.
#
# CIF created using the CSD Python API on 29 September 2022
# The structure has been converted into the P1 space group
# The structure has a 3D framework
# The original CSD entry OJONOQ is in the rhombohedral crystal system
# The framework has been calculated to contain at least 10.0% void space
# The void calculation uses a probe of radius 1.32A, grid spacing 0.4
# H atom positions have been added when not included in the experimental data
# Generated hydrogen atom positions removed from atoms on special positions
#
###############################################################################

data_OJONOQ
_chemical_formula_moiety         '(C54 H162 Er18 O155)n'
_symmetry_cell_setting           triclinic
_symmetry_space_group_name_H-M   'P 1'
_symmetry_Int_Tables_number      1
_space_group_name_Hall           'P 1'
loop_
_symmetry_equiv_pos_site_id
_symmetry_equiv_pos_as_xyz
1 x,y,z
_cell_length_a                   30.8690(10)
_cell_length_b                   30.8690(10)
_cell_length_c                   7.2307(2)
_cell_angle_alpha                90
_cell_angle_beta                 90
_cell_angle_gamma                120
_cell_volume                     5967
loop_
_atom_site_label
_atom_site_type_symbol
_atom_site_fract_x
_atom_site_fract_y
_atom_site_fract_z
H9 H 0.0573494 0.199381 0.0231426
H12 H 0.111816 0.181796 0.0345458
Er1 Er 0.220822(11) 0.110153(11) 0.32744(4)
O1 O 0.16010(17) 0.05263(18) 0.5517(7)
O2 O 0.21246(17) 0.02556(17) 0.3412(7)
O3 O 0.28281(17) 0.10711(17) 0.1256(7)
O4 O 0.36036(17) 0.14583(17) 0.0051(7)
O7 O 0.27101(18) 0.11114(19) 0.5877(7)
O8 O 0.1668(2) 0.0562(2) 0.0882(7)
O9 O 0.2238(2) 0.16297(19) 0.0734(7)
C1 C 0.3265(2) 0.1434(2) 0.1070(9)
C2 C 0.1506(2) 0.0086(2) 0.5688(9)
C4 C 0.3402(2) 0.1899(2) 0.2263(9)
O10 O 0.38386(17) 0.22622(17) 0.2077(7)
O11 O 0.30631(17) 0.18750(17) 0.3282(7)
O12 O 0.10747(25) 0.16010(17) 0.4483(7)
O13 O 0.18690(24) 0.21246(17) 0.6588(7)
O14 O 0.14376(24) 0.11962(17) 0.3250(7)
O15 O 0.22310(25) 0.17184(17) 0.5375(7)
C5 C 0.1420(3) 0.1506(2) 0.4312(9)
C6 C 0.1883(3) 0.1813(2) 0.5547(9)
Er2 Er 0.110669(16) 0.220822(11) 0.67256(4)
O16 O 0.15987(26) 0.27101(18) 0.4123(7)
O17 O 0.1106(3) 0.1668(2) 0.9118(7)
O18 O 0.06083(28) 0.2238(2) 0.9266(7)
Er3 Er 0.445845(11) 0.223180(11) 0.00589(4)
O19 O 0.17570(24) 0.28281(17) 0.8744(7)
O20 O 0.11880(24) 0.30631(17) 0.6718(7)
O21 O 0.02414(17) 0.14376(24) 0.6750(7)
O22 O 0.05126(18) 0.22310(25) 0.4625(7)
H3 H 0.133657 0.0539891 0.0974609
H5 H 0.21525 0.188062 0.119686
H6 H 0.257987 0.180425 0.0197226
H10 H 0.0775622 0.257987 0.980277
H11 H 0.140287 0.162614 0.897216
O5 O 0.11962(17) 0.97586(17) 0.6750(7)
O6 O 0.17184(17) 0.94874(18) 0.4625(7)
C3 C 0.1813(2) 0.9930(2) 0.4453(9)
Er4 Er 0.110153(11) 0.889331(16) 0.67256(4)
C3_2 C 0.0070(2) 0.1883(3) 0.4453(9)
Er1_2 Er 0.889847(11) 0.110669(16) 0.32744(4)
O1_2 O 0.94737(18) 0.10747(25) 0.5517(7)
O2_2 O 0.97444(17) 0.18690(24) 0.3412(7)
O3_2 O 0.89289(17) 0.17570(24) 0.1256(7)
O4_2 O 0.85417(17) 0.21453(24) 0.0051(7)
O7_2 O 0.88886(19) 0.15987(26) 0.5877(7)
O8_2 O 0.9438(2) 0.1106(3) 0.0882(7)
O9_2 O 0.83703(19) 0.06083(28) 0.0734(7)
C1_2 C 0.8566(2) 0.1831(3) 0.1070(9)
C2_2 C 0.9914(2) 0.1420(3) 0.5688(9)
C4_2 C 0.8101(2) 0.1502(3) 0.2263(9)
O10_2 O 0.77378(17) 0.15763(24) 0.2077(7)
O11_2 O 0.81250(17) 0.11880(24) 0.3282(7)
O14_2 O 0.88038(17) 0.02414(29) 0.3250(7)
O15_2 O 0.82816(17) 0.05126(30) 0.5375(7)
C6_2 C 0.8187(2) 0.0070(4) 0.5547(9)
Er3_2 Er 0.776820(11) 0.222664(16) 0.00589(4)
H3_2 H 0.946011 0.0796677 0.0974609
H5_2 H 0.811938 0.027188 0.119686
H6_2 H 0.819575 0.0775622 0.0197226
O12_2 O 0.83990(17) 0.94737(30) 0.4483(7)
O13_2 O 0.78754(17) 0.97444(29) 0.6588(7)
C5_2 C 0.8494(2) 0.9914(4) 0.4312(9)
Er2_2 Er 0.779178(11) 0.889847(19) 0.67256(4)
O16_2 O 0.72899(18) 0.88886(32) 0.4123(7)
O17_2 O 0.8332(2) 0.9438(4) 0.9118(7)
O18_2 O 0.7762(2) 0.83703(34) 0.9266(7)
O19_2 O 0.71719(17) 0.89289(29) 0.8744(7)
O20_2 O 0.69369(17) 0.81250(29) 0.6718(7)
O21_2 O 0.85624(24) 0.88038(29) 0.6750(7)
O22_2 O 0.77690(25) 0.82816(31) 0.4625(7)
H10_2 H 0.742013 0.819575 0.980277
H11_2 H 0.837386 0.977673 0.897216
O12_3 O 0.05263(30) 0.89253(25) 0.4483(7)
O13_3 O 0.02556(29) 0.81310(24) 0.6588(7)
C5_3 C 0.0086(4) 0.8580(3) 0.4312(9)
O16_3 O 0.11114(32) 0.84013(26) 0.4123(7)
O17_3 O 0.0562(4) 0.8894(3) 0.9118(7)
O18_3 O 0.16297(34) 0.93917(28) 0.9266(7)
O19_3 O 0.10711(29) 0.82430(24) 0.8744(7)
O20_3 O 0.18750(29) 0.88120(24) 0.6718(7)
H10_3 H 0.180425 0.922438 0.980277
H11_3 H 0.0223269 0.859713 0.897216
Er1_3 Er 0.889331(16) 0.779178(11) 0.32744(4)
O1_3 O 0.89253(25) 0.83990(17) 0.5517(7)
O2_3 O 0.81310(24) 0.78754(17) 0.3412(7)
O3_3 O 0.82430(24) 0.71719(17) 0.1256(7)
O4_3 O 0.78547(24) 0.63964(17) 0.0051(7)
O7_3 O 0.84013(26) 0.72899(18) 0.5877(7)
O8_3 O 0.8894(3) 0.8332(2) 0.0882(7)
O9_3 O 0.93917(28) 0.7762(2) 0.0734(7)
C1_3 C 0.8169(3) 0.6735(2) 0.1070(9)
C2_3 C 0.8580(3) 0.8494(2) 0.5688(9)
C3_3 C 0.8117(3) 0.8187(2) 0.4453(9)
C4_3 C 0.8498(3) 0.6598(2) 0.2263(9)
O10_3 O 0.84237(24) 0.61614(17) 0.2077(7)
O11_3 O 0.88120(24) 0.69369(17) 0.3282(7)
O14_3 O 0.97586(29) 0.85624(24) 0.3250(7)
O15_3 O 0.94874(30) 0.77690(25) 0.5375(7)
C6_3 C 0.9930(4) 0.8117(3) 0.5547(9)
Er3_3 Er 0.777336(16) 0.554155(11) 0.00589(4)
H3_3 H 0.920332 0.866343 0.0974609
H5_3 H 0.972812 0.78475 0.119686
H6_3 H 0.922438 0.742013 0.0197226
O5_2 O 0.78629(17) 0.30919(17) 0.0083(7)
O17_4 O 0.7773(3) 0.5001(2) 0.2451(7)
O18_4 O 0.72750(28) 0.5571(2) 0.2599(7)
O21_3 O 0.69081(17) 0.47709(24) 0.0083(7)
O17_5 O 0.4999(2) 0.2771(4) 0.2451(7)
O18_5 O 0.4429(2) 0.17036(34) 0.2599(7)
O21_4 O 0.52291(24) 0.21371(29) 0.0083(7)
O17_6 O 0.7229(4) 0.2227(3) 0.2451(7)
O18_6 O 0.82964(34) 0.27250(28) 0.2599(7)
Er1_4 Er 0.554155(11) 0.776820(11) 0.99411(4)
O3_4 O 0.61614(17) 0.77378(17) 0.7923(7)
O8_4 O 0.5001(2) 0.7229(2) 0.7549(7)
O9_4 O 0.5571(2) 0.82964(19) 0.7401(7)
C1_4 C 0.6598(2) 0.8101(2) 0.7737(9)
C4_4 C 0.6735(2) 0.8566(2) 0.8930(9)
O11_4 O 0.63964(17) 0.85417(17) 0.9949(7)
O14_4 O 0.47709(24) 0.78629(17) 0.9917(7)
H7 H 0.471884 0.928007 0.966587
Er1_5 Er 0.223180(11) 0.777336(16) 0.99411(4)
O3_5 O 0.22622(17) 0.84237(24) 0.7923(7)
O8_5 O 0.2771(2) 0.7773(3) 0.7549(7)
O9_5 O 0.17036(19) 0.72750(28) 0.7401(7)
C1_5 C 0.1899(2) 0.8498(3) 0.7737(9)
C4_5 C 0.1434(2) 0.8169(3) 0.8930(9)
O11_5 O 0.14583(17) 0.78547(24) 0.9949(7)
O14_5 O 0.21371(17) 0.69081(29) 0.9917(7)
H7_2 H 0.0719929 0.543877 0.966587
Er1_6 Er 0.222664(16) 0.445845(11) 0.99411(4)
O3_6 O 0.15763(24) 0.38386(17) 0.7923(7)
O8_6 O 0.2227(3) 0.4999(2) 0.7549(7)
O9_6 O 0.27250(28) 0.4429(2) 0.7401(7)
C1_6 C 0.1502(3) 0.3402(2) 0.7737(9)
C4_6 C 0.1831(3) 0.3265(2) 0.8930(9)
O11_6 O 0.21453(24) 0.36036(17) 0.9949(7)
O14_6 O 0.30919(29) 0.52291(24) 0.9917(7)
H7_3 H 0.456123 0.528116 0.966587
H3_4 H 0.866343 0.946011 0.902539
H5_4 H 0.78475 0.811938 0.880314
H11_4 H 0.859713 0.837386 0.102784
H11_5 H 0.162614 0.0223269 0.102784
H3_5 H 0.0539891 0.920332 0.902539
H5_5 H 0.188062 0.972812 0.880314
H3_6 H 0.0796677 0.133657 0.902539
H5_6 H 0.027188 0.21525 0.880314
H11_6 H 0.977673 0.140287 0.102784
H7_4 H 0.528116 0.0719929 0.0334132
H7_5 H 0.928007 0.456123 0.0334132
H7_6 H 0.543877 0.471884 0.0334132
H4 H 0.181796 0.06998 0.965454
H9_2 H 0.199381 0.142032 0.976857
H4_2 H 0.93002 0.111816 0.965454
H9_3 H 0.857968 0.0573494 0.976857
H9_4 H 0.800619 0.857968 0.0231426
H12_2 H 0.818204 0.93002 0.0345458
H9_5 H 0.142032 0.942651 0.0231426
H12_3 H 0.06998 0.888184 0.0345458
H4_3 H 0.888184 0.818204 0.965454
H9_6 H 0.942651 0.800619 0.976857
O4_4 O 0.02703(17) 0.47916(17) 0.3384(7)
C4_7 C 0.0068(2) 0.5233(2) 0.5597(9)
O10_4 O 0.05052(17) 0.55956(17) 0.5411(7)
Er3_4 Er 0.112511(11) 0.556514(11) 0.33923(4)
Er1_7 Er 0.887489(11) 0.443486(11) 0.66077(4)
O1_4 O 0.82677(17) 0.38596(18) 0.8850(7)
O2_4 O 0.87913(17) 0.35889(17) 0.6745(7)
O3_7 O 0.94948(17) 0.44044(17) 0.4589(7)
O6_2 O 0.83851(17) 0.28207(18) 0.7958(7)
O7_4 O 0.93768(18) 0.44447(19) 0.9210(7)
O8_7 O 0.8335(2) 0.3895(2) 0.4215(7)
O9_7 O 0.8905(2) 0.49630(19) 0.4067(7)
C1_7 C 0.9932(2) 0.4767(2) 0.4403(9)
C2_4 C 0.8173(2) 0.3419(2) 0.9021(9)
C3_4 C 0.8480(2) 0.3263(2) 0.7786(9)
O11_7 O 0.97297(17) 0.52084(17) 0.6616(7)
O12_4 O 0.77414(25) 0.49343(17) 0.7816(7)
O13_4 O 0.85357(24) 0.54579(17) 0.9921(7)
O14_7 O 0.81043(24) 0.45295(17) 0.6583(7)
O15_4 O 0.88977(25) 0.50517(17) 0.8708(7)
C5_4 C 0.8087(3) 0.4839(2) 0.7645(9)
C6_4 C 0.8550(3) 0.5146(2) 0.8880(9)
O16_4 O 0.82654(26) 0.60434(18) 0.7456(7)
O22_3 O 0.71793(18) 0.55643(25) 0.7958(7)
H1 H 0.93193 0.41021 0.942252
H2 H 0.973618 0.467491 0.893874
Er1_8 Er 0.556514(11) 0.444002(16) 0.66077(4)
O1_5 O 0.61404(18) 0.44080(25) 0.8850(7)
O2_5 O 0.64111(17) 0.52023(24) 0.6745(7)
O3_8 O 0.55956(17) 0.50903(24) 0.4589(7)
O4_5 O 0.52084(17) 0.54786(24) 0.3384(7)
O7_5 O 0.55553(19) 0.49320(26) 0.9210(7)
O8_8 O 0.6105(2) 0.4439(3) 0.4215(7)
O9_8 O 0.50370(19) 0.39416(28) 0.4067(7)
C1_8 C 0.5233(2) 0.5164(3) 0.4403(9)
C2_5 C 0.6581(2) 0.4753(3) 0.9021(9)
C3_5 C 0.6737(2) 0.5216(3) 0.7786(9)
C4_8 C 0.4767(2) 0.4836(3) 0.5597(9)
O10_5 O 0.44044(17) 0.49097(24) 0.5411(7)
O11_8 O 0.47916(17) 0.45214(24) 0.6616(7)
O12_5 O 0.50657(17) 0.28070(30) 0.7816(7)
O13_5 O 0.45421(17) 0.30777(29) 0.9921(7)
O14_8 O 0.54705(17) 0.35747(29) 0.6583(7)
O15_5 O 0.49483(17) 0.38459(30) 0.8708(7)
C5_5 C 0.5161(2) 0.3247(4) 0.7645(9)
C6_5 C 0.4854(2) 0.3403(4) 0.8880(9)
O16_5 O 0.39566(18) 0.22219(32) 0.7456(7)
Er3_5 Er 0.443486(11) 0.555998(16) 0.33923(4)
O22_4 O 0.44357(25) 0.16149(31) 0.7958(7)
H1_2 H 0.58979 0.52172 0.942252
H2_2 H 0.532509 0.506128 0.893874
Er1_9 Er 0.555998(16) 0.112511(11) 0.66077(4)
O1_6 O 0.55920(25) 0.17323(17) 0.8850(7)
O2_6 O 0.47977(24) 0.12087(17) 0.6745(7)
O3_9 O 0.49097(24) 0.05052(17) 0.4589(7)
O7_6 O 0.50680(26) 0.06232(18) 0.9210(7)
O8_9 O 0.5561(3) 0.1665(2) 0.4215(7)
O9_9 O 0.60584(28) 0.1095(2) 0.4067(7)
C1_9 C 0.4836(3) 0.0068(2) 0.4403(9)
C2_6 C 0.5247(3) 0.1827(2) 0.9021(9)
C3_6 C 0.4784(3) 0.1520(2) 0.7786(9)
O11_9 O 0.54786(24) 0.02703(17) 0.6616(7)
O12_6 O 0.71930(30) 0.22586(25) 0.7816(7)
O13_6 O 0.69223(29) 0.14643(24) 0.9921(7)
O14_9 O 0.64253(29) 0.18957(24) 0.6583(7)
O15_6 O 0.61541(30) 0.11023(25) 0.8708(7)
C5_6 C 0.6753(4) 0.1913(3) 0.7645(9)
C6_6 C 0.6597(4) 0.1450(3) 0.8880(9)
O16_6 O 0.77781(32) 0.17346(26) 0.7456(7)
H1_3 H 0.47828 0.0680699 0.942252
H2_3 H 0.493872 0.0263816 0.893874
O4_6 O 0.45214(24) 0.97297(17) 0.3384(7)
C4_9 C 0.5164(3) 0.9932(2) 0.5597(9)
O10_6 O 0.50903(24) 0.94948(17) 0.5411(7)
Er3_6 Er 0.444002(16) 0.887489(11) 0.33923(4)
O1_7 O 0.49343(17) 0.71930(18) 0.2184(7)
O2_7 O 0.54579(17) 0.69223(17) 0.0079(7)
O5_3 O 0.45295(17) 0.64253(17) 0.3417(7)
O6_3 O 0.50517(17) 0.61541(18) 0.1292(7)
O7_7 O 0.60434(18) 0.77781(19) 0.2544(7)
C2_7 C 0.4839(2) 0.6753(2) 0.2355(9)
C3_7 C 0.5146(2) 0.6597(2) 0.1120(9)
O12_7 O 0.44080(25) 0.82677(17) 0.1150(7)
O13_7 O 0.52023(24) 0.87913(17) 0.3255(7)
O15_7 O 0.55643(25) 0.83851(17) 0.2042(7)
C5_7 C 0.4753(3) 0.8173(2) 0.0979(9)
C6_7 C 0.5216(3) 0.8480(2) 0.2214(9)
O16_7 O 0.49320(26) 0.93768(18) 0.0790(7)
O17_7 O 0.4439(3) 0.8335(2) 0.5785(7)
O18_7 O 0.39416(28) 0.8905(2) 0.5933(7)
O21_5 O 0.35747(17) 0.81043(24) 0.3417(7)
O22_5 O 0.38459(18) 0.88977(25) 0.1292(7)
H8 H 0.506128 0.973618 0.106126
O1_8 O 0.28070(18) 0.77414(25) 0.2184(7)
O2_8 O 0.30777(17) 0.85357(24) 0.0079(7)
O7_8 O 0.22219(19) 0.82654(26) 0.2544(7)
C2_8 C 0.3247(2) 0.8087(3) 0.2355(9)
C3_8 C 0.3403(2) 0.8550(3) 0.1120(9)
O12_8 O 0.17323(17) 0.61404(30) 0.1150(7)
O13_8 O 0.12087(17) 0.64111(29) 0.3255(7)
O15_8 O 0.16149(17) 0.71793(30) 0.2042(7)
C5_8 C 0.1827(2) 0.6581(4) 0.0979(9)
C6_8 C 0.1520(2) 0.6737(4) 0.2214(9)
O16_8 O 0.06232(18) 0.55553(32) 0.0790(7)
O17_8 O 0.1665(2) 0.6105(4) 0.5785(7)
O18_8 O 0.1095(2) 0.50370(34) 0.5933(7)
O21_6 O 0.18957(24) 0.54705(29) 0.3417(7)
O22_6 O 0.11023(25) 0.49483(31) 0.1292(7)
H8_2 H 0.0263816 0.532509 0.106126
O1_9 O 0.22586(25) 0.50657(17) 0.2184(7)
O2_9 O 0.14643(24) 0.45421(17) 0.0079(7)
O7_9 O 0.17346(26) 0.39566(18) 0.2544(7)
C2_9 C 0.1913(3) 0.5161(2) 0.2355(9)
C3_9 C 0.1450(3) 0.4854(2) 0.1120(9)
O12_9 O 0.38596(30) 0.55920(25) 0.1150(7)
O13_9 O 0.35889(29) 0.47977(24) 0.3255(7)
O15_9 O 0.28207(30) 0.44357(25) 0.2042(7)
C5_9 C 0.3419(4) 0.5247(3) 0.0979(9)
C6_9 C 0.3263(4) 0.4784(3) 0.2214(9)
O16_9 O 0.44447(32) 0.50680(26) 0.0790(7)
O17_9 O 0.3895(4) 0.5561(3) 0.5785(7)
O18_9 O 0.49630(34) 0.60584(28) 0.5933(7)
H8_3 H 0.467491 0.493872 0.106126
H1_4 H 0.0680699 0.58979 0.057748
H1_5 H 0.41021 0.47828 0.057748
H1_6 H 0.52172 0.93193 0.057748
loop_
_geom_bond_atom_site_label_1
_geom_bond_atom_site_label_2
_geom_bond_site_symmetry_1
_geom_bond_site_symmetry_2
Er1 O1 1_555 1_555
O1 C2 1_555 1_555
O2 Er1 1_555 1_555
O3 Er1 1_555 1_555
O4 C1 1_555 1_555
O7 Er1 1_555 1_555
O8 Er1 1_555 1_555
O9 Er1 1_555 1_555
C1 O3 1_555 1_555
C4 C1 1_555 1_555
O10 C4 1_555 1_555
O11 Er1 1_555 1_555
O12 C5 1_555 1_555
O13 C6 1_555 1_555
O14 Er1 1_555 1_555
O15 Er1 1_555 1_555
C5 O14 1_555 1_555
C6 O15 1_555 1_555
Er2 O12 1_555 1_555
O16 Er2 1_555 1_555
O17 Er2 1_555 1_555
O18 Er2 1_555 1_555
Er3 O4 1_555 1_555
O19 Er2 1_555 1_555
O20 Er2 1_555 1_555
O21 Er2 1_555 1_555
O22 Er2 1_555 1_555
C4 O11 1_555 1_555
O10 Er3 1_555 1_555
O13 Er2 1_555 1_555
C5 C6 1_555 1_555
O8 H3 1_555 1_555
O9 H5 1_555 1_555
O9 H6 1_555 1_555
O18 H10 1_555 1_555
O17 H11 1_555 1_555
O6 C3 1_555 1_555
Er4 O5 1_555 1_555
O6 Er4 1_555 1_555
O22 C3_2 1_555 1_555
Er1_2 O1_2 1_555 1_555
O1_2 C2_2 1_555 1_555
O2_2 Er1_2 1_555 1_555
O3_2 Er1_2 1_555 1_555
O4_2 C1_2 1_555 1_555
O7_2 Er1_2 1_555 1_555
O8_2 Er1_2 1_555 1_555
O9_2 Er1_2 1_555 1_555
C1_2 O3_2 1_555 1_555
C4_2 C1_2 1_555 1_555
O10_2 C4_2 1_555 1_555
O11_2 Er1_2 1_555 1_555
O14_2 Er1_2 1_555 1_555
O15_2 Er1_2 1_555 1_555
C6_2 O15_2 1_555 1_555
Er3_2 O4_2 1_555 1_555
C4_2 O11_2 1_555 1_555
O10_2 Er3_2 1_555 1_555
O8_2 H3_2 1_555 1_555
O9_2 H5_2 1_555 1_555
O9_2 H6_2 1_555 1_555
O12_2 C5_2 1_555 1_555
Er2_2 O12_2 1_555 1_555
O16_2 Er2_2 1_555 1_555
O17_2 Er2_2 1_555 1_555
O18_2 Er2_2 1_555 1_555
O19_2 Er2_2 1_555 1_555
O20_2 Er2_2 1_555 1_555
O21_2 Er2_2 1_555 1_555
O22_2 Er2_2 1_555 1_555
O13_2 Er2_2 1_555 1_555
O18_2 H10_2 1_555 1_555
O17_2 H11_2 1_555 1_555
O12_3 C5_3 1_555 1_555
Er4 O12_3 1_555 1_555
O16_3 Er4 1_555 1_555
O17_3 Er4 1_555 1_555
O18_3 Er4 1_555 1_555
O19_3 Er4 1_555 1_555
O20_3 Er4 1_555 1_555
O13_3 Er4 1_555 1_555
O18_3 H10_3 1_555 1_555
O17_3 H11_3 1_555 1_555
Er1_3 O1_3 1_555 1_555
O1_3 C2_3 1_555 1_555
O2_3 Er1_3 1_555 1_555
O3_3 Er1_3 1_555 1_555
O4_3 C1_3 1_555 1_555
O21_2 C2_3 1_555 1_555
O22_2 C3_3 1_555 1_555
O7_3 Er1_3 1_555 1_555
O8_3 Er1_3 1_555 1_555
O9_3 Er1_3 1_555 1_555
C1_3 O3_3 1_555 1_555
C2_3 C3_3 1_555 1_555
C3_3 O2_3 1_555 1_555
C4_3 C1_3 1_555 1_555
O10_3 C4_3 1_555 1_555
O11_3 Er1_3 1_555 1_555
O14_3 Er1_3 1_555 1_555
O15_3 Er1_3 1_555 1_555
C6_3 O15_3 1_555 1_555
Er3_3 O4_3 1_555 1_555
C4_3 O11_3 1_555 1_555
O10_3 Er3_3 1_555 1_555
O8_3 H3_3 1_555 1_555
O9_3 H5_3 1_555 1_555
O9_3 H6_3 1_555 1_555
O17_4 Er3_3 1_555 1_555
O18_4 Er3_3 1_555 1_555
Er3_2 O5_2 1_555 1_555
O21_3 Er3_3 1_555 1_555
O17_5 Er3 1_555 1_555
O18_5 Er3 1_555 1_555
O21_4 Er3 1_555 1_555
O17_6 Er3_2 1_555 1_555
O18_6 Er3_2 1_555 1_555
O3_4 Er1_4 1_555 1_555
O20_2 C1_4 1_555 1_555
O8_4 Er1_4 1_555 1_555
O9_4 Er1_4 1_555 1_555
C1_4 O3_4 1_555 1_555
C4_4 C1_4 1_555 1_555
O19_2 C4_4 1_555 1_555
O11_4 Er1_4 1_555 1_555
O14_4 Er1_4 1_555 1_555
C4_4 O11_4 1_555 1_555
O3_5 Er1_5 1_555 1_555
O20_3 C1_5 1_555 1_555
O8_5 Er1_5 1_555 1_555
O9_5 Er1_5 1_555 1_555
C1_5 O3_5 1_555 1_555
C4_5 C1_5 1_555 1_555
O19_3 C4_5 1_555 1_555
O11_5 Er1_5 1_555 1_555
O14_5 Er1_5 1_555 1_555
C4_5 O11_5 1_555 1_555
O3_6 Er1_6 1_555 1_555
O20 C1_6 1_555 1_555
O8_6 Er1_6 1_555 1_555
O9_6 Er1_6 1_555 1_555
C1_6 O3_6 1_555 1_555
C4_6 C1_6 1_555 1_555
O19 C4_6 1_555 1_555
O11_6 Er1_6 1_555 1_555
O14_6 Er1_6 1_555 1_555
C4_6 O11_6 1_555 1_555
O17_2 H3_4 1_555 1_555
O18_2 H5_4 1_555 1_555
O8_3 H11_4 1_555 1_555
O8 H11_5 1_555 1_555
O17_3 H3_5 1_555 1_555
O18_3 H5_5 1_555 1_555
O17 H3_6 1_555 1_555
O18 H5_6 1_555 1_555
O8_2 H11_6 1_555 1_555
O10_4 C4_7 1_555 1_555
Er3_4 O4_4 1_555 1_555
O10_4 Er3_4 1_555 1_555
Er1_7 O1_4 1_555 1_555
O1_4 C2_4 1_555 1_555
O2_4 Er1_7 1_555 1_555
O3_7 Er1_7 1_555 1_555
O6_2 C3_4 1_555 1_555
O7_4 Er1_7 1_555 1_555
O8_7 Er1_7 1_555 1_555
O9_7 Er1_7 1_555 1_555
C1_7 O3_7 1_555 1_555
C2_4 C3_4 1_555 1_555
C3_4 O2_4 1_555 1_555
O11_7 Er1_7 1_555 1_555
O12_4 C5_4 1_555 1_555
O13_4 C6_4 1_555 1_555
O14_7 Er1_7 1_555 1_555
O15_4 Er1_7 1_555 1_555
C5_4 O14_7 1_555 1_555
C6_4 O15_4 1_555 1_555
C5_4 C6_4 1_555 1_555
O7_4 H1 1_555 1_555
O7_4 H2 1_555 1_555
Er1_8 O1_5 1_555 1_555
O1_5 C2_5 1_555 1_555
O2_5 Er1_8 1_555 1_555
O3_8 Er1_8 1_555 1_555
O4_5 C1_8 1_555 1_555
O22_3 C3_5 1_555 1_555
O7_5 Er1_8 1_555 1_555
O8_8 Er1_8 1_555 1_555
O9_8 Er1_8 1_555 1_555
C1_8 O3_8 1_555 1_555
C2_5 C3_5 1_555 1_555
C3_5 O2_5 1_555 1_555
C4_8 C1_8 1_555 1_555
O10_5 C4_8 1_555 1_555
O11_8 Er1_8 1_555 1_555
O12_5 C5_5 1_555 1_555
O13_5 C6_5 1_555 1_555
O14_8 Er1_8 1_555 1_555
O15_5 Er1_8 1_555 1_555
C5_5 O14_8 1_555 1_555
C6_5 O15_5 1_555 1_555
Er3_5 O4_5 1_555 1_555
C4_8 O11_8 1_555 1_555
O10_5 Er3_5 1_555 1_555
C5_5 C6_5 1_555 1_555
O7_5 H1_2 1_555 1_555
O7_5 H2_2 1_555 1_555
Er1_9 O1_6 1_555 1_555
O1_6 C2_6 1_555 1_555
O2_6 Er1_9 1_555 1_555
O3_9 Er1_9 1_555 1_555
O22_4 C3_6 1_555 1_555
O7_6 Er1_9 1_555 1_555
O8_9 Er1_9 1_555 1_555
O9_9 Er1_9 1_555 1_555
C1_9 O3_9 1_555 1_555
C2_6 C3_6 1_555 1_555
C3_6 O2_6 1_555 1_555
O11_9 Er1_9 1_555 1_555
O12_6 C5_6 1_555 1_555
O13_6 C6_6 1_555 1_555
O14_9 Er1_9 1_555 1_555
O15_6 Er1_9 1_555 1_555
C5_6 O14_9 1_555 1_555
C6_6 O15_6 1_555 1_555
C5_6 C6_6 1_555 1_555
O7_6 H1_3 1_555 1_555
O7_6 H2_3 1_555 1_555
O10_6 C4_9 1_555 1_555
Er3_6 O4_6 1_555 1_555
O10_6 Er3_6 1_555 1_555
O1_7 C2_7 1_555 1_555
O5_3 C2_7 1_555 1_555
O6_3 C3_7 1_555 1_555
C2_7 C3_7 1_555 1_555
C3_7 O2_7 1_555 1_555
O12_7 C5_7 1_555 1_555
O13_7 C6_7 1_555 1_555
C6_7 O15_7 1_555 1_555
Er3_6 O12_7 1_555 1_555
O16_7 Er3_6 1_555 1_555
O17_7 Er3_6 1_555 1_555
O18_7 Er3_6 1_555 1_555
Er3_5 O5_3 1_555 1_555
O21_5 Er3_6 1_555 1_555
O22_5 Er3_6 1_555 1_555
O6_3 Er3_5 1_555 1_555
O13_7 Er3_6 1_555 1_555
C5_7 C6_7 1_555 1_555
O16_7 H8 1_555 1_555
O1_8 C2_8 1_555 1_555
O21_5 C2_8 1_555 1_555
O22_5 C3_8 1_555 1_555
C2_8 C3_8 1_555 1_555
C3_8 O2_8 1_555 1_555
O12_8 C5_8 1_555 1_555
O13_8 C6_8 1_555 1_555
C6_8 O15_8 1_555 1_555
Er3_4 O12_8 1_555 1_555
O16_8 Er3_4 1_555 1_555
O17_8 Er3_4 1_555 1_555
O18_8 Er3_4 1_555 1_555
O21_6 Er3_4 1_555 1_555
O22_6 Er3_4 1_555 1_555
O13_8 Er3_4 1_555 1_555
C5_8 C6_8 1_555 1_555
O16_8 H8_2 1_555 1_555
O1_9 C2_9 1_555 1_555
O21_6 C2_9 1_555 1_555
O22_6 C3_9 1_555 1_555
C2_9 C3_9 1_555 1_555
C3_9 O2_9 1_555 1_555
O12_9 C5_9 1_555 1_555
O13_9 C6_9 1_555 1_555
C6_9 O15_9 1_555 1_555
Er3_5 O12_9 1_555 1_555
O16_9 Er3_5 1_555 1_555
O17_9 Er3_5 1_555 1_555
O18_9 Er3_5 1_555 1_555
O13_9 Er3_5 1_555 1_555
C5_9 C6_9 1_555 1_555
O16_9 H8_3 1_555 1_555
O16_8 H1_4 1_555 1_555
O16_9 H1_5 1_555 1_555
O16_7 H1_6 1_555 1_555

#END
