
###############################################################################
#
# This file contains modified crystal structure data generated from the
# MOF subset of the Cambridge Structural Database (CSD) v543 
# hosted by the Cambridge Crystallographic Data Centre (CCDC).
#
# This work is licensed under the Creative Commons
# Attribution-NonCommercial-ShareAlike 4.0 International License.
# To view a copy of this license, visit
# http://creativecommons.org/licenses/by-nc-sa/4.0/
# or send a letter to
# Creative Commons, PO Box 1866, Mountain View, CA 94042, USA.
#
# CIF created using the CSD Python API on 29 September 2022
# The structure has been converted into the P1 space group
# The structure has a 3D framework
# The original CSD entry OKAYAC is in the monoclinic crystal system
# The framework has been calculated to contain at least 10.0% void space
# The void calculation uses a probe of radius 1.32A, grid spacing 0.4
#
###############################################################################

data_OKAYAC
_chemical_formula_moiety         '(C56 H32 Ca2 O22 S4)n'
_symmetry_cell_setting           triclinic
_symmetry_space_group_name_H-M   'P 1'
_symmetry_Int_Tables_number      1
_space_group_name_Hall           'P 1'
loop_
_symmetry_equiv_pos_site_id
_symmetry_equiv_pos_as_xyz
1 x,y,z
_cell_length_a                   11.6583(3)
_cell_length_b                   5.56710(10)
_cell_length_c                   22.9110(6)
_cell_angle_alpha                90
_cell_angle_beta                 100.901(2)
_cell_angle_gamma                90
_cell_volume                     1460.16
loop_
_atom_site_label
_atom_site_type_symbol
_atom_site_fract_x
_atom_site_fract_y
_atom_site_fract_z
O1 O 0.49419(18) 0.1920(4) 0.12907(9)
C1 C 0.3514(3) 0.1087(6) 0.02994(13)
C2 C 0.2789(3) 0.1082(6) 0.14135(13)
Ca1 Ca 0.63699(5) 0.24316(10) 0.22135(3)
S1 S 0.39687(6) 0.03423(13) 0.10599(3)
C3 C 0.1879(3) 0.3764(5) 0.20007(13)
H1 H 0.1856 0.5260 0.2198
C5 C 0.3806(3) 0.3322(6) 0.01003(14)
H3 H 0.4189 0.4490 0.0371
C6 C 0.0997(3) 0.2082(6) 0.20073(13)
C9 C 0.2799(3) 0.3266(6) 0.17062(13)
H5 H 0.3412 0.4389 0.1707
C14 C 0.0070(3) 0.2589(5) 0.23774(14)
O8 O 0.75974(18) 0.4143(4) 0.30889(9)
O9 O 0.73650(18) 0.5230(4) 0.17232(9)
O11 O 0.54127(19) 0.5808(4) 0.24402(10)
O3 O 0.25974(18) 0.0857(4) 0.80889(9)
O4 O 0.26350(18) 0.4770(4) 0.82768(9)
C7 C 0.2967(3) 0.2087(6) 0.90998(13)
C10 C 0.3524(3) 0.3808(6) 0.94939(14)
H6 H 0.3713 0.5327 0.9348
C12 C 0.2734(2) 0.2621(5) 0.84449(13)
Ca5 Ca 0.36301(5) 0.75684(10) 0.77865(3)
Ca6 Ca 0.13699(5) 0.25684(10) 0.72135(3)
O2 O 0.41358(19) 0.7780(4) 0.10970(10)
C4 C 0.1898(3) 0.9413(6) 0.13974(14)
H2 H 0.1898 0.7961 0.1180
H7 H 0.2684 0.7909 0.0068
C13 C 0.1007(3) 0.9905(6) 0.17055(14)
H8 H 0.0404 0.8760 0.1711
O7 O 0.74026(18) 0.9143(4) 0.19111(9)
O10 O 0.51230(18) 0.9760(4) 0.25298(10)
C8 C 0.2648(3) 0.9885(6) 0.93084(14)
H4 H 0.2253 0.8726 0.9039
C11 C 0.2913(3) 0.9389(6) 0.99180(14)
O5 O 0.98770(18) 0.4760(4) 0.24702(10)
O6 O 0.95873(19) 0.0808(4) 0.25598(10)
Ca3 Ca 0.86301(5) 0.74316(10) 0.27865(3)
H1_2 H 0.3144 0.0260 0.2802
H6_2 H 0.1287 0.0327 0.5652
O1_2 O 0.00581(18) 0.6920(4) 0.37093(9)
O2_2 O 0.08642(19) 0.2780(4) 0.39030(10)
C1_2 C 0.1486(3) 0.6087(6) 0.47006(13)
C2_2 C 0.2211(3) 0.6082(6) 0.35865(13)
S1_2 S 0.10313(6) 0.53423(13) 0.39401(3)
O3_2 O 0.24026(18) 0.5857(4) 0.69111(9)
O4_2 O 0.23650(18) 0.9770(4) 0.67232(9)
C3_2 C 0.3121(3) 0.8764(5) 0.29993(13)
C4_2 C 0.3102(3) 0.4413(6) 0.36026(14)
H2_2 H 0.3102 0.2961 0.3820
C5_2 C 0.1194(3) 0.8322(6) 0.48997(14)
H3_2 H 0.0811 0.9490 0.4629
C6_2 C 0.4003(3) 0.7082(6) 0.29927(13)
C7_2 C 0.2033(3) 0.7087(6) 0.59002(13)
C8_2 C 0.2352(3) 0.4885(6) 0.56916(14)
H4_2 H 0.2747 0.3726 0.5961
C9_2 C 0.2201(3) 0.8266(6) 0.32938(13)
H5_2 H 0.1588 0.9389 0.3293
C10_2 C 0.1476(3) 0.8808(6) 0.55061(14)
C11_2 C 0.2087(3) 0.4389(6) 0.50820(14)
H7_2 H 0.2316 0.2909 0.4932
C12_2 C 0.2266(2) 0.7621(5) 0.65551(13)
C13_2 C 0.3993(3) 0.4905(6) 0.32945(14)
H8_2 H 0.4596 0.3760 0.3289
C14_2 C 0.4930(3) 0.7589(5) 0.26226(14)
O9_2 O 0.76350(18) 0.0230(4) 0.32768(9)
O5_2 O 0.01230(18) 0.5240(4) 0.75298(10)
O6_2 O 0.04127(19) 0.9192(4) 0.74402(10)
C8_3 C 0.7352(3) 0.0115(6) 0.06916(14)
H4_3 H 0.7747 0.1274 0.0961
C11_3 C 0.7087(3) 0.0611(6) 0.00820(14)
O2_3 O 0.58642(19) 0.2220(4) 0.89030(10)
C4_3 C 0.8102(3) 0.0587(6) 0.86026(14)
H2_3 H 0.8102 0.2039 0.8820
H7_3 H 0.7316 0.2091 0.9932
C13_3 C 0.8993(3) 0.0095(6) 0.82945(14)
H8_3 H 0.9596 0.1240 0.8289
O10_2 O 0.48770(18) 0.0240(4) 0.74702(10)
C7_3 C 0.7033(3) 0.7913(6) 0.09002(13)
C10_3 C 0.6476(3) 0.6192(6) 0.05061(14)
H6_3 H 0.6287 0.4673 0.0652
C12_3 C 0.7266(2) 0.7379(5) 0.15551(13)
O1_3 O 0.50581(18) 0.8080(4) 0.87093(9)
C1_3 C 0.6486(3) 0.8913(6) 0.97006(13)
C2_3 C 0.7211(3) 0.8918(6) 0.85865(13)
S1_3 S 0.60313(6) 0.96577(13) 0.89401(3)
C3_3 C 0.8121(3) 0.6236(5) 0.79993(13)
H1_3 H 0.8144 0.4740 0.7802
C5_3 C 0.6194(3) 0.6678(6) 0.98997(14)
H3_3 H 0.5811 0.5510 0.9629
C6_3 C 0.9003(3) 0.7918(6) 0.79927(13)
C9_3 C 0.7201(3) 0.6734(6) 0.82938(13)
H5_3 H 0.6588 0.5611 0.8293
C14_3 C 0.9930(3) 0.7411(5) 0.76226(14)
O11_2 O 0.45873(19) 0.4192(4) 0.75598(10)
O1_4 O 0.99419(18) 0.3080(4) 0.62907(9)
O2_4 O 0.91358(19) 0.7220(4) 0.60970(10)
C1_4 C 0.8514(3) 0.3913(6) 0.52994(13)
C2_4 C 0.7789(3) 0.3918(6) 0.64135(13)
S1_4 S 0.89687(6) 0.46577(13) 0.60599(3)
C3_4 C 0.6879(3) 0.1236(5) 0.70007(13)
C4_4 C 0.6898(3) 0.5587(6) 0.63974(14)
H2_4 H 0.6898 0.7039 0.6180
C5_4 C 0.8806(3) 0.1678(6) 0.51003(14)
H3_4 H 0.9189 0.0510 0.5371
C6_4 C 0.5997(3) 0.2918(6) 0.70073(13)
C7_4 C 0.7967(3) 0.2913(6) 0.40998(13)
C8_4 C 0.7648(3) 0.5115(6) 0.43084(14)
H4_4 H 0.7253 0.6274 0.4039
C9_4 C 0.7799(3) 0.1734(6) 0.67062(13)
H5_4 H 0.8412 0.0611 0.6707
C10_4 C 0.8524(3) 0.1192(6) 0.44939(14)
C11_4 C 0.7913(3) 0.5611(6) 0.49180(14)
H7_4 H 0.7684 0.7091 0.5068
C12_4 C 0.7734(2) 0.2379(5) 0.34449(13)
C13_4 C 0.6007(3) 0.5095(6) 0.67055(14)
H8_4 H 0.5404 0.6240 0.6711
C14_4 C 0.5070(3) 0.2411(5) 0.73774(14)
H1_4 H 0.6856 0.9740 0.7198
H6_4 H 0.8713 0.9673 0.4348
loop_
_geom_bond_atom_site_label_1
_geom_bond_atom_site_label_2
_geom_bond_site_symmetry_1
_geom_bond_site_symmetry_2
O1 Ca1 1_555 1_555
C1 S1 1_555 1_555
C2 S1 1_555 1_555
S1 O1 1_555 1_555
C3 H1 1_555 1_555
C5 C1 1_555 1_555
H3 C5 1_555 1_555
C6 C3 1_555 1_555
C9 C2 1_555 1_555
H5 C9 1_555 1_555
C14 C6 1_555 1_555
O8 Ca1 1_555 1_555
O9 Ca1 1_555 1_555
O11 Ca1 1_555 1_555
C3 C9 1_555 1_555
O3 C12 1_555 1_555
O4 C12 1_555 1_555
H6 C10 1_555 1_555
C12 C7 1_555 1_555
Ca5 O4 1_555 1_555
Ca6 O3 1_555 1_555
C7 C10 1_555 1_555
H2 C4 1_555 1_555
C13 C4 1_555 1_555
H8 C13 1_555 1_555
C8 H4 1_555 1_555
C8 C11 1_555 1_555
Ca3 O5 1_555 1_555
O2_2 S1_2 1_555 1_555
C1_2 S1_2 1_555 1_555
C2_2 S1_2 1_555 1_555
S1_2 O1_2 1_555 1_555
O3_2 C12_2 1_555 1_555
O4_2 C12_2 1_555 1_555
O10 C14_2 1_555 1_555
O11 C14_2 1_555 1_555
C4_2 C2_2 1_555 1_555
H2_2 C4_2 1_555 1_555
C5_2 C1_2 1_555 1_555
H3_2 C5_2 1_555 1_555
C6_2 C3_2 1_555 1_555
C7_2 C8_2 1_555 1_555
C8_2 H4_2 1_555 1_555
C9_2 C2_2 1_555 1_555
H5_2 C9_2 1_555 1_555
C10_2 C5_2 1_555 1_555
C11_2 C1_2 1_555 1_555
H7_2 C11_2 1_555 1_555
C12_2 C7_2 1_555 1_555
C13_2 C4_2 1_555 1_555
H8_2 C13_2 1_555 1_555
C14_2 C6_2 1_555 1_555
Ca6 O3_2 1_555 1_555
Ca5 O3_2 1_555 1_555
C3_2 C9_2 1_555 1_555
C6_2 C13_2 1_555 1_555
C7_2 C10_2 1_555 1_555
C8_2 C11_2 1_555 1_555
Ca3 O8 1_555 1_555
O7 Ca3 1_555 1_555
Ca6 O5_2 1_555 1_555
C8_3 H4_3 1_555 1_555
C8_3 C11_3 1_555 1_555
H2_3 C4_3 1_555 1_555
C13_3 C4_3 1_555 1_555
H8_3 C13_3 1_555 1_555
O7 C12_3 1_555 1_555
O9 C12_3 1_555 1_555
H6_3 C10_3 1_555 1_555
C12_3 C7_3 1_555 1_555
C7_3 C10_3 1_555 1_555
O1_3 Ca5 1_555 1_555
C1_3 S1_3 1_555 1_555
C2_3 S1_3 1_555 1_555
S1_3 O1_3 1_555 1_555
C3_3 H1_3 1_555 1_555
C5_3 C1_3 1_555 1_555
H3_3 C5_3 1_555 1_555
C6_3 C3_3 1_555 1_555
C9_3 C2_3 1_555 1_555
H5_3 C9_3 1_555 1_555
C14_3 C6_3 1_555 1_555
O11_2 Ca5 1_555 1_555
C3_3 C9_3 1_555 1_555
O2_4 S1_4 1_555 1_555
C1_4 S1_4 1_555 1_555
C2_4 S1_4 1_555 1_555
S1_4 O1_4 1_555 1_555
O8 C12_4 1_555 1_555
O9_2 C12_4 1_555 1_555
O10_2 C14_4 1_555 1_555
O11_2 C14_4 1_555 1_555
C4_4 C2_4 1_555 1_555
H2_4 C4_4 1_555 1_555
C5_4 C1_4 1_555 1_555
H3_4 C5_4 1_555 1_555
C6_4 C3_4 1_555 1_555
C7_4 C8_4 1_555 1_555
C8_4 H4_4 1_555 1_555
C9_4 C2_4 1_555 1_555
H5_4 C9_4 1_555 1_555
C10_4 C5_4 1_555 1_555
C11_4 C1_4 1_555 1_555
H7_4 C11_4 1_555 1_555
C12_4 C7_4 1_555 1_555
C13_4 C4_4 1_555 1_555
H8_4 C13_4 1_555 1_555
C14_4 C6_4 1_555 1_555
C3_4 C9_4 1_555 1_555
C6_4 C13_4 1_555 1_555
C7_4 C10_4 1_555 1_555
C8_4 C11_4 1_555 1_555

#END
