
###############################################################################
#
# This file contains modified crystal structure data generated from the
# MOF subset of the Cambridge Structural Database (CSD) v543 
# hosted by the Cambridge Crystallographic Data Centre (CCDC).
#
# This work is licensed under the Creative Commons
# Attribution-NonCommercial-ShareAlike 4.0 International License.
# To view a copy of this license, visit
# http://creativecommons.org/licenses/by-nc-sa/4.0/
# or send a letter to
# Creative Commons, PO Box 1866, Mountain View, CA 94042, USA.
#
# CIF created using the CSD Python API on 29 September 2022
# The structure has been converted into the P1 space group
# The structure has a 3D framework
# The original CSD entry OLAVUU is in the triclinic crystal system
# The framework has been calculated to contain at least 10.0% void space
# The void calculation uses a probe of radius 1.32A, grid spacing 0.4
#
###############################################################################

data_OLAVUU
_chemical_formula_moiety         '(C100 H84 N8 O19 Zn4)n'
_symmetry_cell_setting           triclinic
_symmetry_space_group_name_H-M   'P 1'
_symmetry_Int_Tables_number      1
_space_group_name_Hall           'P 1'
loop_
_symmetry_equiv_pos_site_id
_symmetry_equiv_pos_as_xyz
1 x,y,z
_cell_length_a                   8.519(2)
_cell_length_b                   17.022(5)
_cell_length_c                   17.915(5)
_cell_angle_alpha                83.743(3)
_cell_angle_beta                 77.553(3)
_cell_angle_gamma                88.902(4)
_cell_volume                     2521.66
loop_
_atom_site_label
_atom_site_type_symbol
_atom_site_fract_x
_atom_site_fract_y
_atom_site_fract_z
_atom_site_U_iso_or_equiv
_atom_site_thermal_displace_type
O13 O 0.0688(5) 0.6905(3) 0.3086(3) 0.0494 Uani
Zn9 Zn 0.24138(8) 0.69232(5) 0.21779(4) 0.0420 Uani
C66 C 0.2430(8) 0.8117(4) 0.0047(4) 0.0439 Uani
C67 C 0.0923(8) 0.8472(4) 0.0094(4) 0.0496 Uani
H51 H 0.0184 0.8436 0.0562 0.0600 Uiso
C70 C 0.2854(8) 0.7650(4) 0.0729(4) 0.0481 Uani
O18 O 0.1702(6) 0.7511(3) 0.1317(3) 0.0555 Uani
O19 O 0.4213(6) 0.7390(4) 0.0702(3) 0.0674 Uani
C16 C 0.7570(8) 0.1883(4) 0.9953(4) 0.0439 Uani
C17 C 0.9077(8) 0.1528(4) 0.9906(4) 0.0496 Uani
H9 H 0.9816 0.1564 0.9438 0.0600 Uiso
C20 C 0.7146(8) 0.2350(4) 0.9271(4) 0.0481 Uani
O8 O 0.8298(6) 0.2489(3) 0.8683(3) 0.0555 Uani
O9 O 0.5787(6) 0.2610(4) 0.9298(3) 0.0674 Uani
Zn11 Zn 0.75862(8) 0.30768(5) 0.78221(4) 0.0420 Uani
C27 C 0.9579(8) 0.3779(4) 0.1411(4) 0.0479 Uani
C28 C 0.9847(10) 0.3979(5) 0.2100(5) 0.0654 Uani
H17 H 0.9417 0.4443 0.2287 0.0780 Uiso
C30 C 0.8668(10) 0.4306(5) 0.0920(5) 0.0661 Uani
H19 H 0.9405 0.4494 0.0444 0.0790 Uiso
H20 H 0.8290 0.4764 0.1185 0.0790 Uiso
C31 C 0.7233(10) 0.3914(5) 0.0725(5) 0.0690 Uani
H21 H 0.6836 0.4264 0.0344 0.0830 Uiso
H22 H 0.7592 0.3433 0.0497 0.0830 Uiso
C32 C 0.5866(10) 0.3712(5) 0.1409(6) 0.0701 Uani
H23 H 0.5152 0.3336 0.1280 0.0840 Uiso
H24 H 0.6293 0.3465 0.1836 0.0840 Uiso
C33 C 0.4931(9) 0.4432(5) 0.1647(4) 0.0560 Uani
C34 C 0.3851(9) 0.4769(5) 0.1217(5) 0.0592 Uani
H25 H 0.3657 0.4528 0.0804 0.0710 Uiso
C35 C 0.3073(9) 0.5464(5) 0.1412(4) 0.0541 Uani
H26 H 0.2348 0.5679 0.1126 0.0650 Uiso
C36 C 0.4323(9) 0.5501(5) 0.2416(4) 0.0568 Uani
H27 H 0.4500 0.5750 0.2828 0.0680 Uiso
C37 C 0.5095(10) 0.4807(5) 0.2263(5) 0.0638 Uani
H28 H 0.5746 0.4585 0.2585 0.0770 Uiso
C41 C 0.9061(9) 0.0460(4) 0.3873(5) 0.0581 Uani
H31 H 0.7949 0.0495 0.4022 0.0700 Uiso
C42 C 0.9943(8) 0.1118(4) 0.3507(5) 0.0557 Uani
H32 H 0.9405 0.1584 0.3401 0.0670 Uiso
N3 N 0.3322(6) 0.5835(3) 0.1993(3) 0.0450 Uani
O3 O 0.9312(5) 0.3095(3) 0.6914(3) 0.0494 Uani
C90 C 0.0193(9) 0.0248(4) 0.5980(4) 0.0509 Uani
C93 C 0.1124(10) 0.0959(5) 0.5549(5) 0.0701 Uani
H75 H 0.1473 0.0868 0.5014 0.0840 Uiso
H76 H 0.0412 0.1411 0.5572 0.0840 Uiso
C94 C 0.2576(9) 0.1156(5) 0.5850(4) 0.0570 Uani
H77 H 0.3125 0.1607 0.5529 0.0680 Uiso
H78 H 0.3310 0.0712 0.5809 0.0680 Uiso
C95 C 0.2181(9) 0.1340(5) 0.6666(5) 0.0644 Uani
H79 H 0.1238 0.1675 0.6734 0.0770 Uiso
H80 H 0.1894 0.0849 0.6994 0.0770 Uiso
C96 C 0.3477(8) 0.1738(4) 0.6940(4) 0.0523 Uani
C97 C 0.5041(9) 0.1834(5) 0.6504(5) 0.0618 Uani
H81 H 0.5334 0.1629 0.6034 0.0740 Uiso
C98 C 0.6151(8) 0.2240(5) 0.6780(4) 0.0538 Uani
H82 H 0.7173 0.2323 0.6471 0.0650 Uiso
C99 C 0.4325(8) 0.2432(5) 0.7879(4) 0.0610 Uani
H83 H 0.4067 0.2645 0.8347 0.0730 Uiso
C100 C 0.3136(9) 0.2043(5) 0.7644(4) 0.0624 Uani
H84 H 0.2112 0.1986 0.7957 0.0750 Uiso
N5 N 0.5841(6) 0.2518(4) 0.7461(3) 0.0481 Uani
N10 N 0.6678(6) 0.4165(3) 0.8007(3) 0.0450 Uani
C40 C 0.9807(9) 0.9752(4) 0.4020(4) 0.0509 Uani
C43 C 0.8876(10) 0.9041(5) 0.4451(5) 0.0701 Uani
H33 H 0.8527 0.9132 0.4986 0.0840 Uiso
H34 H 0.9588 0.8589 0.4428 0.0840 Uiso
C44 C 0.7424(9) 0.8844(5) 0.4150(4) 0.0570 Uani
H35 H 0.6875 0.8393 0.4471 0.0680 Uiso
H36 H 0.6690 0.9288 0.4191 0.0680 Uiso
C45 C 0.7819(9) 0.8660(5) 0.3334(5) 0.0644 Uani
H37 H 0.8762 0.8325 0.3266 0.0770 Uiso
H38 H 0.8106 0.9151 0.3006 0.0770 Uiso
C46 C 0.6523(8) 0.8262(4) 0.3060(4) 0.0523 Uani
C47 C 0.4959(9) 0.8166(5) 0.3496(5) 0.0618 Uani
H39 H 0.4666 0.8371 0.3966 0.0740 Uiso
C48 C 0.3849(8) 0.7760(5) 0.3220(4) 0.0538 Uani
H40 H 0.2827 0.7677 0.3529 0.0650 Uiso
C49 C 0.5675(8) 0.7568(5) 0.2121(4) 0.0610 Uani
H41 H 0.5933 0.7355 0.1653 0.0730 Uiso
C50 C 0.6864(9) 0.7957(5) 0.2356(4) 0.0624 Uani
H42 H 0.7888 0.8014 0.2043 0.0750 Uiso
N1 N 0.4159(6) 0.7482(4) 0.2539(3) 0.0481 Uani
C77 C 0.0421(8) 0.6221(4) 0.8589(4) 0.0479 Uani
C78 C 0.0153(10) 0.6021(5) 0.7900(5) 0.0654 Uani
H59 H 0.0583 0.5557 0.7713 0.0780 Uiso
C80 C 0.1332(10) 0.5694(5) 0.9080(5) 0.0661 Uani
H61 H 0.0595 0.5506 0.9556 0.0790 Uiso
H62 H 0.1710 0.5236 0.8815 0.0790 Uiso
C81 C 0.2767(10) 0.6086(5) 0.9275(5) 0.0690 Uani
H63 H 0.3164 0.5736 0.9656 0.0830 Uiso
H64 H 0.2408 0.6567 0.9503 0.0830 Uiso
C82 C 0.4134(10) 0.6288(5) 0.8591(6) 0.0701 Uani
H65 H 0.4848 0.6664 0.8720 0.0840 Uiso
H66 H 0.3707 0.6535 0.8164 0.0840 Uiso
C83 C 0.5069(9) 0.5568(5) 0.8353(4) 0.0560 Uani
C84 C 0.6149(9) 0.5231(5) 0.8783(5) 0.0592 Uani
H67 H 0.6343 0.5472 0.9196 0.0710 Uiso
C85 C 0.6927(9) 0.4536(5) 0.8588(4) 0.0541 Uani
H68 H 0.7652 0.4321 0.8874 0.0650 Uiso
C86 C 0.5677(9) 0.4499(5) 0.7584(4) 0.0568 Uani
H69 H 0.5500 0.4250 0.7172 0.0680 Uiso
C87 C 0.4905(10) 0.5193(5) 0.7737(5) 0.0638 Uani
H70 H 0.4254 0.5415 0.7415 0.0770 Uiso
C91 C 0.0939(9) 0.9540(4) 0.6127(5) 0.0581 Uani
H73 H 0.2051 0.9505 0.5978 0.0700 Uiso
C92 C 0.0057(8) 0.8882(4) 0.6493(5) 0.0557 Uani
H74 H 0.0595 0.8416 0.6599 0.0670 Uiso
C63 C 0.4265(8) 0.8567(4) 0.7923(4) 0.0481 Uani
C64 C 0.3105(7) 0.8559(4) 0.8688(4) 0.0399 Uani
C65 C 0.3531(7) 0.8178(4) 0.9346(4) 0.0426 Uani
H50 H 0.4553 0.7964 0.9316 0.0520 Uiso
C68 C 0.0528(8) 0.8875(4) 0.9450(4) 0.0514 Uani
C69 C 0.1616(8) 0.8916(4) 0.8742(4) 0.0503 Uani
H52 H 0.1342 0.9182 0.8307 0.0600 Uiso
O16 O 0.5518(6) 0.8150(3) 0.7932(3) 0.0563 Uani
O17 O 0.3924(7) 0.8942(4) 0.7348(3) 0.0707 Uani
Zn6 Zn 0.72409(8) 0.78755(5) 0.71132(4) 0.0403 Uani
C24 C 0.3818(9) 0.0051(6) 0.0640(5) 0.0720 Uani
H14 H 0.3016 0.0088 0.1078 0.0870 Uiso
O10 O 0.0922(6) 0.0766(4) 0.0546(3) 0.0699 Uani
C51 C 0.7677(7) 0.7177(4) 0.5818(4) 0.0405 Uani
C52 C 0.7333(7) 0.6808(4) 0.5142(3) 0.0379 Uani
C53 C 0.8518(7) 0.6794(4) 0.4491(3) 0.0348 Uani
H43 H 0.9529 0.7001 0.4472 0.0420 Uiso
C54 C 0.8206(7) 0.6468(4) 0.3854(3) 0.0361 Uani
C55 C 0.6717(7) 0.6146(4) 0.3906(4) 0.0416 Uani
H44 H 0.6513 0.5916 0.3488 0.0500 Uiso
C56 C 0.5511(7) 0.6152(4) 0.4559(4) 0.0404 Uani
C57 C 0.5807(7) 0.6486(4) 0.5187(4) 0.0391 Uani
H45 H 0.5007 0.6497 0.5631 0.0470 Uiso
C58 C 0.9481(7) 0.6466(4) 0.3121(4) 0.0433 Uani
C59 C 0.2821(7) 0.5814(4) 0.5201(4) 0.0443 Uani
H46 H 0.3164 0.5553 0.5648 0.0530 Uiso
H47 H 0.2544 0.6356 0.5295 0.0530 Uiso
C60 C 0.1275(7) 0.5137(4) 0.4379(4) 0.0483 Uani
H48 H 0.2126 0.5224 0.3956 0.0580 Uiso
C61 C 0.1380(7) 0.5394(4) 0.5073(4) 0.0374 Uani
C62 C 0.0091(7) 0.5248(4) 0.5687(4) 0.0439 Uani
H49 H 0.0146 0.5413 0.6159 0.0530 Uiso
O11 O 0.6482(5) 0.7283(3) 0.6377(3) 0.0457 Uani
O12 O 0.9054(5) 0.7367(3) 0.5834(3) 0.0510 Uani
O14 O 0.9295(6) 0.6049(3) 0.2626(3) 0.0578 Uani
O15 O 0.4094(5) 0.5805(3) 0.4535(3) 0.0530 Uani
C75 C 0.8856(10) 0.7368(5) 0.8385(4) 0.0610 Uani
H57 H 0.8398 0.7831 0.8565 0.0730 Uiso
C76 C 0.9745(10) 0.6914(5) 0.8825(4) 0.0654 Uani
H58 H 0.9888 0.7078 0.9285 0.0780 Uiso
C79 C 0.9263(10) 0.6501(5) 0.7488(4) 0.0617 Uani
H60 H 0.9097 0.6348 0.7028 0.0740 Uiso
C88 C 0.7725(9) 0.9591(5) 0.6557(5) 0.0624 Uani
H71 H 0.6612 0.9619 0.6709 0.0750 Uiso
N6 N 0.8446(6) 0.8895(3) 0.6698(3) 0.0430 Uani
N8 N 0.8620(6) 0.7181(3) 0.7718(3) 0.0450 Uani
C21 C 0.2093(8) 0.0841(5) 0.9854(5) 0.0637 Uani
H11 H 0.2356 0.1395 0.9699 0.0770 Uiso
H12 H 0.1664 0.0638 0.9453 0.0770 Uiso
C22 C 0.4784(9) 0.0349(5) 0.9298(5) 0.0704 Uani
H13 H 0.4649 0.0585 0.8823 0.0840 Uiso
C23 C 0.3591(8) 0.0395(4) 0.9946(4) 0.0532 Uani
C71 C 0.7907(8) 0.9159(5) 0.0146(5) 0.0637 Uani
H53 H 0.7644 0.8605 0.0301 0.0770 Uiso
H54 H 0.8336 0.9362 0.0547 0.0770 Uiso
C72 C 0.5216(9) 0.9651(5) 0.0702(5) 0.0704 Uani
H55 H 0.5351 0.9415 0.1177 0.0840 Uiso
C73 C 0.6409(8) 0.9605(4) 0.0054(4) 0.0532 Uani
C74 C 0.6182(9) 0.9949(6) 0.9360(5) 0.0720 Uani
H56 H 0.6984 0.9912 0.8922 0.0870 Uiso
O20 O 0.9078(6) 0.9234(4) 0.9454(3) 0.0699 Uani
Zn1 Zn 0.27591(8) 0.21245(5) 0.28868(4) 0.0403 Uani
C1 C 0.2323(7) 0.2823(4) 0.4182(4) 0.0405 Uani
C2 C 0.2667(7) 0.3192(4) 0.4858(3) 0.0379 Uani
C3 C 0.1482(7) 0.3206(4) 0.5509(3) 0.0348 Uani
H1 H 0.0471 0.2999 0.5528 0.0420 Uiso
C4 C 0.1794(7) 0.3532(4) 0.6146(3) 0.0361 Uani
C5 C 0.3283(7) 0.3854(4) 0.6094(4) 0.0416 Uani
H2 H 0.3487 0.4084 0.6512 0.0500 Uiso
C6 C 0.4489(7) 0.3848(4) 0.5441(4) 0.0404 Uani
C7 C 0.4193(7) 0.3514(4) 0.4813(4) 0.0391 Uani
H3 H 0.4993 0.3503 0.4369 0.0470 Uiso
C8 C 0.0519(7) 0.3534(4) 0.6879(4) 0.0433 Uani
C9 C 0.7179(7) 0.4186(4) 0.4799(4) 0.0443 Uani
H4 H 0.6836 0.4447 0.4352 0.0530 Uiso
H5 H 0.7456 0.3644 0.4705 0.0530 Uiso
C10 C 0.8725(7) 0.4863(4) 0.5621(4) 0.0483 Uani
H6 H 0.7874 0.4776 0.6044 0.0580 Uiso
C11 C 0.8620(7) 0.4606(4) 0.4927(4) 0.0374 Uani
C12 C 0.9909(7) 0.4752(4) 0.4313(4) 0.0439 Uani
H7 H 0.9854 0.4587 0.3841 0.0530 Uiso
C13 C 0.5735(8) 0.1433(4) 0.2077(4) 0.0481 Uani
C14 C 0.6895(7) 0.1441(4) 0.1312(4) 0.0399 Uani
C15 C 0.6469(7) 0.1822(4) 0.0654(4) 0.0426 Uani
H8 H 0.5447 0.2036 0.0684 0.0520 Uiso
C18 C 0.9472(8) 0.1125(4) 0.0550(4) 0.0514 Uani
C19 C 0.8384(8) 0.1084(4) 0.1258(4) 0.0503 Uani
H10 H 0.8658 0.0818 0.1693 0.0600 Uiso
C25 C 0.1144(10) 0.2632(5) 0.1615(4) 0.0610 Uani
H15 H 0.1602 0.2169 0.1435 0.0730 Uiso
C26 C 0.0255(10) 0.3086(5) 0.1175(4) 0.0654 Uani
H16 H 0.0112 0.2922 0.0715 0.0780 Uiso
C29 C 0.0737(10) 0.3499(5) 0.2512(4) 0.0617 Uani
H18 H 0.0903 0.3652 0.2972 0.0740 Uiso
C38 C 0.2275(9) 0.0409(5) 0.3443(5) 0.0624 Uani
H29 H 0.3388 0.0381 0.3291 0.0750 Uiso
N2 N 0.1554(6) 0.1105(3) 0.3302(3) 0.0430 Uani
N4 N 0.1380(6) 0.2819(3) 0.2282(3) 0.0450 Uani
O1 O 0.3518(5) 0.2717(3) 0.3623(3) 0.0457 Uani
O2 O 0.0946(5) 0.2633(3) 0.4166(3) 0.0510 Uani
O4 O 0.0705(6) 0.3951(3) 0.7374(3) 0.0578 Uani
O5 O 0.5906(5) 0.4195(3) 0.5465(3) 0.0530 Uani
O6 O 0.4482(6) 0.1850(3) 0.2068(3) 0.0563 Uani
O7 O 0.6076(7) 0.1058(4) 0.2652(3) 0.0707 Uani
C39 C 0.1453(10) 0.9748(5) 0.3798(5) 0.0645 Uani
H30 H 0.2013 0.9286 0.3891 0.0780 Uiso
C89 C 0.8547(10) 0.0252(5) 0.6202(5) 0.0645 Uani
H72 H 0.7987 0.0714 0.6109 0.0780 Uiso
loop_
_atom_site_aniso_label
_atom_site_aniso_U_11
_atom_site_aniso_U_22
_atom_site_aniso_U_33
_atom_site_aniso_U_23
_atom_site_aniso_U_13
_atom_site_aniso_U_12
O13 0.032 0.067 0.047 -0.016 0.0022 -0.011
Zn9 0.0335 0.055 0.0373 -0.0092 -0.0051 -0.0016
C66 0.036 0.052 0.043 -0.005 -0.008 0.009
C67 0.034 0.069 0.043 -0.01 -0.001 0.013
C70 0.042 0.059 0.046 -0.01 -0.014 0.008
O18 0.048 0.076 0.041 0.001 -0.01 -0.002
O19 0.049 0.093 0.058 -0.002 -0.012 0.025
C16 0.036 0.052 0.043 -0.005 -0.008 0.009
C17 0.034 0.069 0.043 -0.01 -0.001 0.013
C20 0.042 0.059 0.046 -0.01 -0.014 0.008
O8 0.048 0.076 0.041 0.001 -0.01 -0.002
O9 0.049 0.093 0.058 -0.002 -0.012 0.025
Zn11 0.0335 0.055 0.0373 -0.0092 -0.0051 -0.0016
C27 0.046 0.045 0.05 -0.002 -0.006 0.002
C28 0.07 0.063 0.067 -0.019 -0.019 0.02
C30 0.063 0.061 0.067 0.012 -0.008 0.011
C31 0.075 0.078 0.066 -0.026 -0.035 0.033
C32 0.063 0.054 0.098 -0.014 -0.025 0.002
C33 0.057 0.055 0.055 -0.006 -0.01 0.003
C34 0.056 0.056 0.075 -0.024 -0.027 0.007
C35 0.05 0.068 0.053 -0.024 -0.023 0.014
C36 0.057 0.074 0.048 -0.014 -0.027 0.009
C37 0.064 0.067 0.064 0.005 -0.028 0.008
C41 0.035 0.052 0.088 -0.011 -0.013 -0.001
C42 0.04 0.043 0.082 -0.005 -0.009 -0.002
N3 0.041 0.05 0.045 -0.009 -0.01 0.007
O3 0.032 0.067 0.047 -0.016 0.0022 -0.011
C90 0.055 0.049 0.053 -0.008 -0.019 -0.009
C93 0.074 0.06 0.085 0.005 -0.041 -0.017
C94 0.057 0.051 0.065 0.001 -0.02 -0.016
C95 0.049 0.068 0.078 -0.015 -0.012 -0.02
C96 0.038 0.059 0.062 -0.007 -0.014 -0.011
C97 0.049 0.071 0.068 -0.036 -0.003 -0.011
C98 0.039 0.068 0.055 -0.027 -0.001 -0.003
C99 0.043 0.088 0.053 -0.025 -0.002 -0.02
C100 0.037 0.1 0.049 -0.011 -0.004 -0.012
N5 0.035 0.06 0.049 -0.009 -0.007 -0.001
N10 0.041 0.05 0.045 -0.009 -0.01 0.007
C40 0.055 0.049 0.053 -0.008 -0.019 -0.009
C43 0.074 0.06 0.085 0.005 -0.041 -0.017
C44 0.057 0.051 0.065 0.001 -0.02 -0.016
C45 0.049 0.068 0.078 -0.015 -0.012 -0.02
C46 0.038 0.059 0.062 -0.007 -0.014 -0.011
C47 0.049 0.071 0.068 -0.036 -0.003 -0.011
C48 0.039 0.068 0.055 -0.027 -0.001 -0.003
C49 0.043 0.088 0.053 -0.025 -0.002 -0.02
C50 0.037 0.1 0.049 -0.011 -0.004 -0.012
N1 0.035 0.06 0.049 -0.009 -0.007 -0.001
C77 0.046 0.045 0.05 -0.002 -0.006 0.002
C78 0.07 0.063 0.067 -0.019 -0.019 0.02
C80 0.063 0.061 0.067 0.012 -0.008 0.011
C81 0.075 0.078 0.066 -0.026 -0.035 0.033
C82 0.063 0.054 0.098 -0.014 -0.025 0.002
C83 0.057 0.055 0.055 -0.006 -0.01 0.003
C84 0.056 0.056 0.075 -0.024 -0.027 0.007
C85 0.05 0.068 0.053 -0.024 -0.023 0.014
C86 0.057 0.074 0.048 -0.014 -0.027 0.009
C87 0.064 0.067 0.064 0.005 -0.028 0.008
C91 0.035 0.052 0.088 -0.011 -0.013 -0.001
C92 0.04 0.043 0.082 -0.005 -0.009 -0.002
C63 0.04 0.053 0.048 -0.007 -0.002 0.007
C64 0.034 0.044 0.038 -0.003 -0.001 0.006
C65 0.03 0.053 0.045 -0.014 -0.005 0.011
C68 0.04 0.065 0.046 -0.003 -0.005 0.017
C69 0.051 0.052 0.043 -0.001 -0.003 0.019
O16 0.046 0.073 0.046 -0.01 -0.001 0.014
O17 0.071 0.093 0.04 0.006 -0.002 0.018
Zn6 0.0344 0.0473 0.0389 -0.0101 -0.0047 0.0014
C24 0.042 0.101 0.064 -0.002 0.003 0.024
O10 0.043 0.096 0.059 0.007 0.004 0.036
C51 0.033 0.047 0.039 -0.006 -0.001 -0.007
C52 0.03 0.045 0.041 -0.012 -0.009 -0.002
C53 0.026 0.04 0.039 -0.004 -0.008 -0.001
C54 0.03 0.042 0.038 -0.009 -0.009 0.004
C55 0.033 0.052 0.043 -0.012 -0.011 -0.006
C56 0.024 0.048 0.049 -0.008 -0.005 -0.012
C57 0.03 0.046 0.039 -0.006 -0.001 -0.007
C58 0.034 0.058 0.038 -0.008 -0.007 0.008
C59 0.029 0.051 0.052 -0.01 -0.004 -0.005
C60 0.031 0.06 0.049 -0.004 0.002 -0.006
C61 0.031 0.039 0.042 -0.006 -0.006 -0.004
C62 0.035 0.05 0.048 -0.013 -0.007 -0.007
O11 0.035 0.056 0.047 -0.017 -0.0054 0
O12 0.034 0.072 0.049 -0.017 -0.007 -0.014
O14 0.056 0.075 0.044 -0.022 -0.006 -0.009
O15 0.03 0.08 0.051 -0.018 -0.006 -0.016
C75 0.073 0.062 0.054 -0.023 -0.02 0.018
C76 0.078 0.077 0.051 -0.019 -0.031 0.022
C79 0.085 0.058 0.051 -0.023 -0.028 0.026
C88 0.046 0.049 0.086 -0.003 -0.003 0.005
N6 0.039 0.042 0.046 -0.012 -0.001 -0.001
N8 0.042 0.05 0.044 -0.013 -0.008 0.009
C21 0.036 0.081 0.064 -0.005 0.008 0.025
C22 0.045 0.087 0.069 0.005 0.001 0.028
C23 0.037 0.058 0.058 -0.001 0.001 0.012
C71 0.036 0.081 0.064 -0.005 0.008 0.025
C72 0.045 0.087 0.069 0.005 0.001 0.028
C73 0.037 0.058 0.058 -0.001 0.001 0.012
C74 0.042 0.101 0.064 -0.002 0.003 0.024
O20 0.043 0.096 0.059 0.007 0.004 0.036
Zn1 0.0344 0.0473 0.0389 -0.0101 -0.0047 0.0014
C1 0.033 0.047 0.039 -0.006 -0.001 -0.007
C2 0.03 0.045 0.041 -0.012 -0.009 -0.002
C3 0.026 0.04 0.039 -0.004 -0.008 -0.001
C4 0.03 0.042 0.038 -0.009 -0.009 0.004
C5 0.033 0.052 0.043 -0.012 -0.011 -0.006
C6 0.024 0.048 0.049 -0.008 -0.005 -0.012
C7 0.03 0.046 0.039 -0.006 -0.001 -0.007
C8 0.034 0.058 0.038 -0.008 -0.007 0.008
C9 0.029 0.051 0.052 -0.01 -0.004 -0.005
C10 0.031 0.06 0.049 -0.004 0.002 -0.006
C11 0.031 0.039 0.042 -0.006 -0.006 -0.004
C12 0.035 0.05 0.048 -0.013 -0.007 -0.007
C13 0.04 0.053 0.048 -0.007 -0.002 0.007
C14 0.034 0.044 0.038 -0.003 -0.001 0.006
C15 0.03 0.053 0.045 -0.014 -0.005 0.011
C18 0.04 0.065 0.046 -0.003 -0.005 0.017
C19 0.051 0.052 0.043 -0.001 -0.003 0.019
C25 0.073 0.062 0.054 -0.023 -0.02 0.018
C26 0.078 0.077 0.051 -0.019 -0.031 0.022
C29 0.085 0.058 0.051 -0.023 -0.028 0.026
C38 0.046 0.049 0.086 -0.003 -0.003 0.005
N2 0.039 0.042 0.046 -0.012 -0.001 -0.001
N4 0.042 0.05 0.044 -0.013 -0.008 0.009
O1 0.035 0.056 0.047 -0.017 -0.0054 0
O2 0.034 0.072 0.049 -0.017 -0.007 -0.014
O4 0.056 0.075 0.044 -0.022 -0.006 -0.009
O5 0.03 0.08 0.051 -0.018 -0.006 -0.016
O6 0.046 0.073 0.046 -0.01 -0.001 0.014
O7 0.071 0.093 0.04 0.006 -0.002 0.018
C39 0.055 0.047 0.092 -0.001 -0.021 0.009
C89 0.055 0.047 0.092 -0.001 -0.021 0.009
loop_
_geom_bond_atom_site_label_1
_geom_bond_atom_site_label_2
_geom_bond_site_symmetry_1
_geom_bond_site_symmetry_2
Zn9 O13 1_555 1_555
C67 C66 1_555 1_555
H51 C67 1_555 1_555
C70 C66 1_555 1_555
O18 C70 1_555 1_555
O19 C70 1_555 1_555
Zn9 O18 1_555 1_555
C17 C16 1_555 1_555
H9 C17 1_555 1_555
C20 C16 1_555 1_555
O8 C20 1_555 1_555
O9 C20 1_555 1_555
Zn11 O8 1_555 1_555
C28 C27 1_555 1_555
H17 C28 1_555 1_555
C30 C27 1_555 1_555
H19 C30 1_555 1_555
H20 C30 1_555 1_555
C31 C30 1_555 1_555
H21 C31 1_555 1_555
H22 C31 1_555 1_555
C32 C31 1_555 1_555
H23 C32 1_555 1_555
H24 C32 1_555 1_555
C33 C32 1_555 1_555
C34 C33 1_555 1_555
H25 C34 1_555 1_555
C35 C34 1_555 1_555
H26 C35 1_555 1_555
C36 H27 1_555 1_555
C37 C33 1_555 1_555
H28 C37 1_555 1_555
H31 C41 1_555 1_555
C42 C41 1_555 1_555
H32 C42 1_555 1_555
N3 C35 1_555 1_555
Zn11 O3 1_555 1_555
C93 C90 1_555 1_555
H75 C93 1_555 1_555
H76 C93 1_555 1_555
C94 C93 1_555 1_555
H77 C94 1_555 1_555
H78 C94 1_555 1_555
C95 C94 1_555 1_555
H79 C95 1_555 1_555
H80 C95 1_555 1_555
C96 C95 1_555 1_555
C97 C96 1_555 1_555
H81 C97 1_555 1_555
C98 C97 1_555 1_555
H82 C98 1_555 1_555
C99 H83 1_555 1_555
C100 C96 1_555 1_555
H84 C100 1_555 1_555
N5 Zn11 1_555 1_555
Zn9 N3 1_555 1_555
N10 Zn11 1_555 1_555
C36 C37 1_555 1_555
C36 N3 1_555 1_555
C98 N5 1_555 1_555
C99 C100 1_555 1_555
C99 N5 1_555 1_555
Zn9 N1 1_555 1_555
C43 C40 1_555 1_555
H33 C43 1_555 1_555
H34 C43 1_555 1_555
C44 C43 1_555 1_555
H35 C44 1_555 1_555
H36 C44 1_555 1_555
C45 C44 1_555 1_555
H37 C45 1_555 1_555
H38 C45 1_555 1_555
C46 C45 1_555 1_555
C47 C46 1_555 1_555
H39 C47 1_555 1_555
C48 C47 1_555 1_555
H40 C48 1_555 1_555
C49 H41 1_555 1_555
C50 C46 1_555 1_555
H42 C50 1_555 1_555
N1 C48 1_555 1_555
C78 C77 1_555 1_555
H59 C78 1_555 1_555
C80 C77 1_555 1_555
H61 C80 1_555 1_555
H62 C80 1_555 1_555
C81 C80 1_555 1_555
H63 C81 1_555 1_555
H64 C81 1_555 1_555
C82 C81 1_555 1_555
H65 C82 1_555 1_555
H66 C82 1_555 1_555
C83 C82 1_555 1_555
C84 C83 1_555 1_555
H67 C84 1_555 1_555
C85 C84 1_555 1_555
H68 C85 1_555 1_555
C86 H69 1_555 1_555
C87 C83 1_555 1_555
H70 C87 1_555 1_555
H73 C91 1_555 1_555
C92 C91 1_555 1_555
H74 C92 1_555 1_555
N10 C85 1_555 1_555
C49 C50 1_555 1_555
C49 N1 1_555 1_555
C86 C87 1_555 1_555
C86 N10 1_555 1_555
C63 C64 1_555 1_555
C64 C65 1_555 1_555
C65 H50 1_555 1_555
C69 C64 1_555 1_555
H52 C69 1_555 1_555
O16 C63 1_555 1_555
O17 C63 1_555 1_555
Zn6 O16 1_555 1_555
C68 C69 1_555 1_555
H14 C24 1_555 1_555
C51 C52 1_555 1_555
C52 C53 1_555 1_555
C53 H43 1_555 1_555
C54 C53 1_555 1_555
C55 C54 1_555 1_555
H44 C55 1_555 1_555
C56 C55 1_555 1_555
C57 C52 1_555 1_555
H45 C57 1_555 1_555
C58 C54 1_555 1_555
C59 H46 1_555 1_555
H47 C59 1_555 1_555
H48 C60 1_555 1_555
C61 C59 1_555 1_555
H49 C62 1_555 1_555
O11 C51 1_555 1_555
O12 C51 1_555 1_555
O14 C58 1_555 1_555
O15 C56 1_555 1_555
Zn6 O11 1_555 1_555
C56 C57 1_555 1_555
C59 O15 1_555 1_555
C60 C61 1_555 1_555
C61 C62 1_555 1_555
Zn6 N6 1_555 1_555
C75 H57 1_555 1_555
C76 C75 1_555 1_555
H58 C76 1_555 1_555
H60 C79 1_555 1_555
C88 H71 1_555 1_555
N6 C88 1_555 1_555
N8 Zn6 1_555 1_555
C75 N8 1_555 1_555
C79 N8 1_555 1_555
C21 H11 1_555 1_555
H12 C21 1_555 1_555
C22 H13 1_555 1_555
C23 C21 1_555 1_555
C22 C23 1_555 1_555
C71 H53 1_555 1_555
H54 C71 1_555 1_555
H55 C72 1_555 1_555
C73 C71 1_555 1_555
C72 C73 1_555 1_555
H56 C74 1_555 1_555
Zn1 N2 1_555 1_555
C1 C2 1_555 1_555
C2 C3 1_555 1_555
C3 H1 1_555 1_555
C4 C3 1_555 1_555
C5 C4 1_555 1_555
H2 C5 1_555 1_555
C6 C5 1_555 1_555
C7 C2 1_555 1_555
H3 C7 1_555 1_555
C8 C4 1_555 1_555
C9 H4 1_555 1_555
H5 C9 1_555 1_555
C10 H6 1_555 1_555
C11 C9 1_555 1_555
C12 C11 1_555 1_555
H7 C12 1_555 1_555
C13 C14 1_555 1_555
C14 C15 1_555 1_555
C15 H8 1_555 1_555
C19 C14 1_555 1_555
H10 C19 1_555 1_555
C25 H15 1_555 1_555
C26 C25 1_555 1_555
H16 C26 1_555 1_555
H18 C29 1_555 1_555
C38 H29 1_555 1_555
N2 C38 1_555 1_555
N4 Zn1 1_555 1_555
O1 Zn1 1_555 1_555
O2 C1 1_555 1_555
O4 C8 1_555 1_555
O5 C6 1_555 1_555
O6 Zn1 1_555 1_555
O7 C13 1_555 1_555
C1 O1 1_555 1_555
C6 C7 1_555 1_555
C9 O5 1_555 1_555
C10 C11 1_555 1_555
C13 O6 1_555 1_555
C18 C19 1_555 1_555
C25 N4 1_555 1_555
C29 N4 1_555 1_555
H30 C39 1_555 1_555
H72 C89 1_555 1_555

#END
