
###############################################################################
#
# This file contains modified crystal structure data generated from the
# MOF subset of the Cambridge Structural Database (CSD) v543 
# hosted by the Cambridge Crystallographic Data Centre (CCDC).
#
# This work is licensed under the Creative Commons
# Attribution-NonCommercial-ShareAlike 4.0 International License.
# To view a copy of this license, visit
# http://creativecommons.org/licenses/by-nc-sa/4.0/
# or send a letter to
# Creative Commons, PO Box 1866, Mountain View, CA 94042, USA.
#
# CIF created using the CSD Python API on 29 September 2022
# The structure has been converted into the P1 space group
# The structure has a 3D framework
# The original CSD entry OLAWEF is in the monoclinic crystal system
# The framework has been calculated to contain at least 10.0% void space
# The void calculation uses a probe of radius 1.32A, grid spacing 0.4
#
###############################################################################

data_OLAWEF
_chemical_formula_moiety         '(C96 H68 N8 O18 Zn4)n'
_symmetry_cell_setting           triclinic
_symmetry_space_group_name_H-M   'P 1'
_symmetry_Int_Tables_number      1
_space_group_name_Hall           'P 1'
loop_
_symmetry_equiv_pos_site_id
_symmetry_equiv_pos_as_xyz
1 x,y,z
_cell_length_a                   8.8514(10)
_cell_length_b                   15.6487(18)
_cell_length_c                   17.084(2)
_cell_angle_alpha                90
_cell_angle_beta                 101.1220(10)
_cell_angle_gamma                90
_cell_volume                     2321.91
loop_
_atom_site_label
_atom_site_type_symbol
_atom_site_fract_x
_atom_site_fract_y
_atom_site_fract_z
O8 O 0.0252(2) 0.33093(16) 0.21339(13)
Zn4 Zn 0.18175(3) 0.35265(2) 0.306220(19)
H20 H 0.4657 0.2917 0.9687
C31 C 0.7160(3) 0.20089(19) 0.96191(17)
C33 C 0.2668(3) 0.3954(2) 0.99161(19)
H21 H 0.3072 0.4106 0.9446
H22 H 0.2377 0.3356 0.9877
C34 C 0.1288(3) 0.44997(19) 0.99693(17)
O6 O 0.6171(2) 0.19938(16) 0.89679(13)
O7 O 0.8339(3) 0.15821(17) 0.97332(15)
Zn2 Zn 0.68175(3) 0.14735(2) 0.806220(19)
C37 C 0.9042(4) 0.0072(2) 0.8565(2)
H25 H 0.9129 0.0290 0.9078
H28 H 0.6850 0.0092 0.6899
N3 N 0.7853(3) 0.03270(16) 0.80007(15)
N6 N 0.8587(3) 0.22190(18) 0.77880(16)
O11 O 0.5252(2) 0.16907(16) 0.71339(13)
C14 C 0.9868(4) 0.0498(2) 0.1581(2)
H9 H 0.9063 0.0657 0.1172
C15 C 0.9967(3) 0.0836(2) 0.23397(18)
C18 C 0.8756(4) 0.1369(2) 0.2565(2)
H12 H 0.9033 0.1754 0.2983
C19 C 0.7287(4) 0.1333(2) 0.2206(2)
H13 H 0.7035 0.0956 0.1780
C20 C 0.6034(4) 0.1832(2) 0.2417(2)
C21 C 0.4581(4) 0.1819(3) 0.1937(2)
H14 H 0.4402 0.1488 0.1476
C22 C 0.3396(4) 0.2296(2) 0.2136(2)
H15 H 0.2432 0.2277 0.1803
C23 C 0.4996(4) 0.2815(3) 0.3247(2)
H16 H 0.5147 0.3161 0.3698
C24 C 0.6231(4) 0.2362(3) 0.3080(2)
H17 H 0.7193 0.2412 0.3411
N2 N 0.3587(3) 0.27810(18) 0.27880(16)
C1 C 0.1832(3) 0.23713(18) 0.52422(16)
C2 C 0.2964(3) 0.21830(18) 0.58939(16)
H1 H 0.3904 0.2467 0.5969
C3 C 0.2700(3) 0.15690(18) 0.64368(17)
C4 C 0.1297(3) 0.1155(2) 0.63278(17)
H2 H 0.1121 0.0744 0.6693
C5 C 0.0151(3) 0.13471(19) 0.56783(18)
C6 C 0.0417(3) 0.1955(2) 0.51281(17)
C7 C 0.2160(3) 0.29911(19) 0.46191(17)
C8 C 0.3961(3) 0.1334(2) 0.71213(18)
C13 C 0.4042(4) 0.4928(2) 0.3565(2)
H8 H 0.4129 0.4710 0.4078
C14_2 C 0.5132(4) 0.5498(2) 0.3419(2)
H9_2 H 0.5937 0.5657 0.3828
C15_2 C 0.5033(3) 0.5836(2) 0.26603(18)
C16 C 0.3733(4) 0.5625(2) 0.2103(2)
H10 H 0.3563 0.5878 0.1601
C17 C 0.2701(4) 0.5047(2) 0.22884(19)
H11 H 0.1850 0.4908 0.1899
C18_2 C 0.6244(4) 0.6369(2) 0.2435(2)
H12_2 H 0.5967 0.6754 0.2017
C19_2 C 0.7713(4) 0.6333(2) 0.2794(2)
H13_2 H 0.7965 0.5956 0.3220
C20_2 C 0.8966(4) 0.6832(2) 0.2583(2)
H16_2 H 0.9853 0.8161 0.1302
C24_2 C 0.8769(4) 0.7362(3) 0.1920(2)
H17_2 H 0.7807 0.7412 0.1589
N1 N 0.2853(3) 0.46730(16) 0.30007(15)
O1 O 0.1171(2) 0.30062(16) 0.39679(13)
O2 O 0.3339(3) 0.34179(17) 0.47332(15)
O4 O 0.3719(3) 0.08237(19) 0.76344(16)
C45 C 0.9581(4) 0.3181(3) 0.6937(2)
H31 H 0.9402 0.3512 0.6476
C46 C 0.8396(4) 0.2704(2) 0.7136(2)
H32 H 0.7432 0.2723 0.6803
C47 C 0.9996(4) 0.2185(3) 0.8247(2)
C38 C 0.0132(4) 0.9502(2) 0.8419(2)
H26 H 0.0937 0.9343 0.8828
C39 C 0.0033(3) 0.9164(2) 0.76603(18)
C42 C 0.1244(4) 0.8631(2) 0.7435(2)
H29 H 0.0967 0.8246 0.7017
C43 C 0.2713(4) 0.8667(2) 0.7794(2)
H30 H 0.2965 0.9044 0.8220
C44 C 0.3966(4) 0.8168(2) 0.7583(2)
C45_2 C 0.5419(4) 0.8181(3) 0.8063(2)
H31_2 H 0.5598 0.8512 0.8524
C46_2 C 0.6604(4) 0.7704(2) 0.7864(2)
H32_2 H 0.7568 0.7723 0.8197
C47_2 C 0.5004(4) 0.7185(3) 0.6753(2)
H33 H 0.4853 0.6839 0.6302
C48 C 0.3769(4) 0.7638(3) 0.6920(2)
H34 H 0.2807 0.7588 0.6589
N4 N 0.6413(3) 0.72190(18) 0.72120(16)
Zn6 Zn 0.81825(3) 0.64735(2) 0.693780(19)
Zn1 Zn 0.31825(3) 0.85265(2) 0.193780(19)
H3 H 0.5343 0.7083 0.0313
C7_2 C 0.2840(3) 0.79911(19) 0.03809(17)
C9 C 0.7332(3) 0.6046(2) 0.00839(19)
H4 H 0.6928 0.5894 0.0554
H5 H 0.7623 0.6644 0.0123
C10 C 0.8712(3) 0.55003(19) 0.00307(17)
C13_2 C 0.0958(4) 0.9928(2) 0.1435(2)
H8_2 H 0.0871 0.9710 0.0922
H11_2 H 0.3150 0.9908 0.3101
N1_2 N 0.2147(3) 0.96730(16) 0.19993(15)
O1_2 O 0.3829(2) 0.80062(16) 0.10321(13)
O2_2 O 0.1661(3) 0.84179(17) 0.02668(15)
N5 N 0.1413(3) 0.77810(18) 0.22120(16)
O12 O 0.4748(2) 0.83093(16) 0.28661(13)
O3 O 0.9748(2) 0.66907(16) 0.78661(13)
C21_2 C 0.0419(4) 0.6819(3) 0.3063(2)
H14_2 H 0.0598 0.6488 0.3524
C22_2 C 0.1604(4) 0.7296(2) 0.2864(2)
H15_2 H 0.2568 0.7277 0.3197
C23_2 C 0.0004(4) 0.7815(3) 0.1753(2)
C25 C 0.8168(3) 0.76287(18) 0.47578(16)
C26 C 0.7036(3) 0.78170(18) 0.41061(16)
H18 H 0.6096 0.7533 0.4031
C27 C 0.7300(3) 0.84310(18) 0.35632(17)
C28 C 0.8703(3) 0.8845(2) 0.36722(17)
H19 H 0.8879 0.9256 0.3307
C29 C 0.9849(3) 0.86529(19) 0.43217(18)
C30 C 0.9583(3) 0.8045(2) 0.48719(17)
C31_2 C 0.7840(3) 0.70089(19) 0.53809(17)
C32 C 0.6039(3) 0.8666(2) 0.28787(18)
O6_2 O 0.8829(2) 0.69938(16) 0.60321(13)
O7_2 O 0.6661(3) 0.65821(17) 0.52668(15)
O9 O 0.6281(3) 0.91763(19) 0.23656(16)
C37_2 C 0.5958(4) 0.5072(2) 0.6435(2)
H25_2 H 0.5871 0.5290 0.5922
C38_2 C 0.4868(4) 0.4502(2) 0.6581(2)
H26_2 H 0.4063 0.4343 0.6172
C39_2 C 0.4967(3) 0.4164(2) 0.73397(18)
C40 C 0.6267(4) 0.4375(2) 0.7897(2)
H27 H 0.6437 0.4122 0.8399
C41 C 0.7299(4) 0.4953(2) 0.77116(19)
H28_2 H 0.8150 0.5092 0.8101
C42_2 C 0.3756(4) 0.3631(2) 0.7565(2)
H29_2 H 0.4033 0.3246 0.7983
C43_2 C 0.2287(4) 0.3667(2) 0.7206(2)
H30_2 H 0.2035 0.4044 0.6780
C44_2 C 0.1034(4) 0.3168(2) 0.7417(2)
H33_2 H 0.0147 0.1839 0.8698
C48_2 C 0.1231(4) 0.2638(3) 0.8080(2)
H34_2 H 0.2193 0.2588 0.8411
N3_2 N 0.7147(3) 0.53270(16) 0.69993(15)
C12 C 0.0160(3) 0.5866(2) 0.0140(2)
H7 H 0.0279 0.6449 0.0236
C25_2 C 0.6832(3) 0.26287(18) 0.02422(16)
C26_2 C 0.7964(3) 0.28170(18) 0.08939(16)
H18_2 H 0.8904 0.2533 0.0969
C27_2 C 0.7700(3) 0.34310(18) 0.14368(17)
C28_2 C 0.6297(3) 0.3845(2) 0.13278(17)
H19_2 H 0.6121 0.4256 0.1693
C29_2 C 0.5151(3) 0.36529(19) 0.06783(18)
C30_2 C 0.5417(3) 0.3045(2) 0.01281(17)
C32_2 C 0.8961(3) 0.3666(2) 0.21213(18)
C35 C 0.1436(3) 0.5362(2) 0.0106(2)
H23 H 0.2406 0.5612 0.0177
O9_2 O 0.8719(3) 0.41763(19) 0.26344(16)
O10 O 0.3806(2) 0.40969(16) 0.06175(13)
C40_2 C 0.8733(4) 0.9375(2) 0.7103(2)
H27_2 H 0.8563 0.9122 0.6601
C41_2 C 0.7701(4) 0.9953(2) 0.72884(19)
C16_2 C 0.1267(4) 0.0625(2) 0.2897(2)
H10_2 H 0.1437 0.0878 0.3399
C17_2 C 0.2299(4) 0.0047(2) 0.27116(19)
C1_2 C 0.3168(3) 0.73713(18) 0.97578(16)
C2_2 C 0.2036(3) 0.71830(18) 0.91061(16)
H1_2 H 0.1096 0.7467 0.9031
C3_2 C 0.2300(3) 0.65690(18) 0.85632(17)
C4_2 C 0.3703(3) 0.6155(2) 0.86722(17)
H2_2 H 0.3879 0.5744 0.8307
C5_2 C 0.4849(3) 0.63471(19) 0.93217(18)
C6_2 C 0.4583(3) 0.6955(2) 0.98719(17)
C8_2 C 0.1039(3) 0.6334(2) 0.78787(18)
C11 C 0.8564(3) 0.4638(2) 0.9894(2)
H6 H 0.7594 0.4388 0.9823
O4_2 O 0.1281(3) 0.58237(19) 0.73656(16)
O5 O 0.6194(2) 0.59031(16) 0.93825(13)
C36 C 0.9840(3) 0.4134(2) 0.9860(2)
H24 H 0.9721 0.3551 0.9764
H3_2 H 0.9657 0.2083 0.4687
C9_2 C 0.7668(3) 0.1046(2) 0.49161(19)
H4_2 H 0.8072 0.0894 0.4446
H5_2 H 0.7377 0.1644 0.4877
C10_2 C 0.6288(3) 0.05003(19) 0.49693(17)
C12_2 C 0.4840(3) 0.0866(2) 0.4860(2)
H7_2 H 0.4721 0.1449 0.4764
O5_2 O 0.8806(2) 0.09031(16) 0.56175(13)
C35_2 C 0.3564(3) 0.0362(2) 0.4894(2)
H23_2 H 0.2594 0.0612 0.4823
C11_2 C 0.6436(3) 0.9638(2) 0.5106(2)
H6_2 H 0.7406 0.9388 0.5177
H20_2 H 0.0343 0.7917 0.5313
C33_2 C 0.2332(3) 0.8954(2) 0.50839(19)
H21_2 H 0.1928 0.9106 0.5554
H22_2 H 0.2623 0.8356 0.5123
C34_2 C 0.3712(3) 0.94997(19) 0.50307(17)
C36_2 C 0.5160(3) 0.9134(2) 0.5140(2)
H24_2 H 0.5279 0.8551 0.5236
O10_2 O 0.1194(2) 0.90969(16) 0.43825(13)
loop_
_geom_bond_atom_site_label_1
_geom_bond_atom_site_label_2
_geom_bond_site_symmetry_1
_geom_bond_site_symmetry_2
Zn4 O8 1_555 1_555
C33 H21 1_555 1_555
H22 C33 1_555 1_555
C34 C33 1_555 1_555
O6 C31 1_555 1_555
O7 C31 1_555 1_555
Zn2 O6 1_555 1_555
C37 H25 1_555 1_555
N3 Zn2 1_555 1_555
N6 Zn2 1_555 1_555
O11 Zn2 1_555 1_555
C37 N3 1_555 1_555
H9 C14 1_555 1_555
C15 C14 1_555 1_555
C18 C15 1_555 1_555
H12 C18 1_555 1_555
C19 C18 1_555 1_555
H13 C19 1_555 1_555
C20 C19 1_555 1_555
C21 C20 1_555 1_555
H14 C21 1_555 1_555
C22 C21 1_555 1_555
H15 C22 1_555 1_555
C23 H16 1_555 1_555
C24 C20 1_555 1_555
H17 C24 1_555 1_555
N2 C22 1_555 1_555
Zn4 N2 1_555 1_555
C23 C24 1_555 1_555
C23 N2 1_555 1_555
Zn4 N1 1_555 1_555
C1 C2 1_555 1_555
C2 H1 1_555 1_555
C3 C2 1_555 1_555
C4 C3 1_555 1_555
H2 C4 1_555 1_555
C5 C4 1_555 1_555
C6 C1 1_555 1_555
C7 C1 1_555 1_555
C8 C3 1_555 1_555
C13 H8 1_555 1_555
C14_2 C13 1_555 1_555
H9_2 C14_2 1_555 1_555
C15_2 C14_2 1_555 1_555
C16 C15_2 1_555 1_555
H10 C16 1_555 1_555
C17 C16 1_555 1_555
H11 C17 1_555 1_555
C18_2 C15_2 1_555 1_555
H12_2 C18_2 1_555 1_555
C19_2 C18_2 1_555 1_555
H13_2 C19_2 1_555 1_555
C20_2 C19_2 1_555 1_555
C24_2 C20_2 1_555 1_555
H17_2 C24_2 1_555 1_555
N1 C13 1_555 1_555
O1 Zn4 1_555 1_555
O2 C7 1_555 1_555
O11 C8 1_555 1_555
O4 C8 1_555 1_555
C5 C6 1_555 1_555
C7 O1 1_555 1_555
C17 N1 1_555 1_555
H31 C45 1_555 1_555
C46 C45 1_555 1_555
H32 C46 1_555 1_555
N6 C46 1_555 1_555
C47 N6 1_555 1_555
H26 C38 1_555 1_555
C39 C38 1_555 1_555
C42 C39 1_555 1_555
H29 C42 1_555 1_555
C43 C42 1_555 1_555
H30 C43 1_555 1_555
C44 C43 1_555 1_555
C45_2 C44 1_555 1_555
H31_2 C45_2 1_555 1_555
C46_2 C45_2 1_555 1_555
H32_2 C46_2 1_555 1_555
C47_2 H33 1_555 1_555
C48 C44 1_555 1_555
H34 C48 1_555 1_555
N4 C46_2 1_555 1_555
Zn6 N4 1_555 1_555
C47_2 C48 1_555 1_555
C47_2 N4 1_555 1_555
Zn1 N1_2 1_555 1_555
C9 H4 1_555 1_555
H5 C9 1_555 1_555
C10 C9 1_555 1_555
C13_2 H8_2 1_555 1_555
N1_2 C13_2 1_555 1_555
O1_2 Zn1 1_555 1_555
O2_2 C7_2 1_555 1_555
N5 Zn1 1_555 1_555
O12 Zn1 1_555 1_555
C7_2 O1_2 1_555 1_555
Zn6 O3 1_555 1_555
H14_2 C21_2 1_555 1_555
C22_2 C21_2 1_555 1_555
H15_2 C22_2 1_555 1_555
N5 C22_2 1_555 1_555
C23_2 N5 1_555 1_555
C25 C26 1_555 1_555
C26 H18 1_555 1_555
C27 C26 1_555 1_555
C28 C27 1_555 1_555
H19 C28 1_555 1_555
C29 C28 1_555 1_555
C30 C25 1_555 1_555
C31_2 C25 1_555 1_555
C32 C27 1_555 1_555
O6_2 C31_2 1_555 1_555
O7_2 C31_2 1_555 1_555
O12 C32 1_555 1_555
O9 C32 1_555 1_555
Zn6 O6_2 1_555 1_555
C37_2 H25_2 1_555 1_555
C38_2 C37_2 1_555 1_555
H26_2 C38_2 1_555 1_555
C39_2 C38_2 1_555 1_555
C40 C39_2 1_555 1_555
H27 C40 1_555 1_555
C41 C40 1_555 1_555
H28_2 C41 1_555 1_555
C42_2 C39_2 1_555 1_555
H29_2 C42_2 1_555 1_555
C43_2 C42_2 1_555 1_555
H30_2 C43_2 1_555 1_555
C44_2 C43_2 1_555 1_555
C48_2 C44_2 1_555 1_555
H34_2 C48_2 1_555 1_555
N3_2 Zn6 1_555 1_555
C29 C30 1_555 1_555
C37_2 N3_2 1_555 1_555
C41 N3_2 1_555 1_555
H7 C12 1_555 1_555
C25_2 C26_2 1_555 1_555
C26_2 H18_2 1_555 1_555
C27_2 C26_2 1_555 1_555
C28_2 C27_2 1_555 1_555
H19_2 C28_2 1_555 1_555
C29_2 C28_2 1_555 1_555
C30_2 C25_2 1_555 1_555
C32_2 C27_2 1_555 1_555
C35 C12 1_555 1_555
H23 C35 1_555 1_555
O9_2 C32_2 1_555 1_555
O10 C29_2 1_555 1_555
C29_2 C30_2 1_555 1_555
H27_2 C40_2 1_555 1_555
C41_2 C40_2 1_555 1_555
H10_2 C16_2 1_555 1_555
C17_2 C16_2 1_555 1_555
C1_2 C2_2 1_555 1_555
C2_2 H1_2 1_555 1_555
C3_2 C2_2 1_555 1_555
C4_2 C3_2 1_555 1_555
H2_2 C4_2 1_555 1_555
C5_2 C4_2 1_555 1_555
C6_2 C1_2 1_555 1_555
C8_2 C3_2 1_555 1_555
H6 C11 1_555 1_555
O4_2 C8_2 1_555 1_555
O5 C5_2 1_555 1_555
C36 C11 1_555 1_555
H24 C36 1_555 1_555
C5_2 C6_2 1_555 1_555
C9_2 H4_2 1_555 1_555
H5_2 C9_2 1_555 1_555
C10_2 C9_2 1_555 1_555
C12_2 C10_2 1_555 1_555
H7_2 C12_2 1_555 1_555
C35_2 C12_2 1_555 1_555
H23_2 C35_2 1_555 1_555
C9_2 O5_2 1_555 1_555
H6_2 C11_2 1_555 1_555
C33_2 H21_2 1_555 1_555
H22_2 C33_2 1_555 1_555
C34_2 C33_2 1_555 1_555
C36_2 C11_2 1_555 1_555
H24_2 C36_2 1_555 1_555
C33_2 O10_2 1_555 1_555
C34_2 C36_2 1_555 1_555

#END
