
###############################################################################
#
# This file contains modified crystal structure data generated from the
# MOF subset of the Cambridge Structural Database (CSD) v543 
# hosted by the Cambridge Crystallographic Data Centre (CCDC).
#
# This work is licensed under the Creative Commons
# Attribution-NonCommercial-ShareAlike 4.0 International License.
# To view a copy of this license, visit
# http://creativecommons.org/licenses/by-nc-sa/4.0/
# or send a letter to
# Creative Commons, PO Box 1866, Mountain View, CA 94042, USA.
#
# CIF created using the CSD Python API on 29 September 2022
# The structure has been converted into the P1 space group
# The structure has a 3D framework
# The original CSD entry OLEBIT is in the triclinic crystal system
# The framework has been calculated to contain at least 10.0% void space
# The void calculation uses a probe of radius 1.32A, grid spacing 0.4
#
###############################################################################

data_OLEBIT
_chemical_formula_moiety         '(C24 H14 Cd1 N12 O8)n'
_symmetry_cell_setting           triclinic
_symmetry_space_group_name_H-M   'P 1'
_symmetry_Int_Tables_number      1
_space_group_name_Hall           'P 1'
loop_
_symmetry_equiv_pos_site_id
_symmetry_equiv_pos_as_xyz
1 x,y,z
_cell_length_a                   7.8840(9)
_cell_length_b                   10.4652(15)
_cell_length_c                   13.038(2)
_cell_angle_alpha                107.014(14)
_cell_angle_beta                 97.852(12)
_cell_angle_gamma                100.198(11)
_cell_volume                     991.905
loop_
_atom_site_label
_atom_site_type_symbol
_atom_site_fract_x
_atom_site_fract_y
_atom_site_fract_z
_atom_site_U_iso_or_equiv
_atom_site_thermal_displace_type
O5 O 0.34436(19) 0.29680(16) 0.51709(14) 0.0526 Uani
O6 O 0.1315(2) 0.25753(16) 0.37289(14) 0.0564 Uani
C13 C 0.0996(3) 0.1132(2) 0.48128(19) 0.0362 Uani
C14 C 0.1992(3) 0.2336(2) 0.45517(19) 0.0376 Uani
Cd5 Cd 0.500000 0.500000 0.500000 0.0191 Uani
N1 N 0.1206(2) 0.75817(16) 0.46478(15) 0.0351 Uani
N2 N 0.2690(2) 0.60591(17) 0.46723(16) 0.0417 Uani
N3 N 0.5013(3) 0.39985(19) 0.31478(16) 0.0496 Uani
N4 N 0.0218(2) 0.64113(19) 0.38993(19) 0.0589 Uani
C3 C 0.0598(3) 0.8844(2) 0.48539(18) 0.0339 Uani
C4 C 0.1131(3) 0.5537(2) 0.3961(2) 0.0526 Uani
H1 H 0.075357 0.461153 0.354839 0.0630 Uiso
N5 N 0.5336(3) 0.2451(2) 0.17010(18) 0.0658 Uani
C5 C 0.2639(3) 0.7347(2) 0.5080(2) 0.0430 Uani
H2 H 0.352373 0.800928 0.561384 0.0520 Uiso
O3 O 0.8383(3) 0.1528(2) 0.24236(16) 0.0875 Uani
H4 H 0.913577 0.122903 0.271953 0.1310 Uiso
N6 N 0.6627(3) 0.3540(3) 0.1817(2) 0.0836 Uani
C7 C 0.4475(3) 0.2744(3) 0.2496(2) 0.0635 Uani
H5 H 0.356369 0.211245 0.258496 0.0760 Uiso
C8 C 0.6378(4) 0.4448(3) 0.2711(2) 0.0681 Uani
H6 H 0.709024 0.532930 0.301561 0.0820 Uiso
O4 O 0.9768(3) 0.1408(3) 0.10657(19) 0.1198 Uani
C9 C 0.6645(3) 0.0687(3) 0.0681(2) 0.0647 Uani
C10 C 0.5194(3) 0.1175(3) 0.0844(2) 0.0587 Uani
C11 C 0.3539(3) 0.0498(3) 0.0191(2) 0.0642 Uani
H7 H 0.255830 0.084231 0.034139 0.0770 Uiso
C12 C 0.8429(4) 0.1245(3) 0.1394(2) 0.0797 Uani
C18 C 0.1612(3) 0.9943(2) 0.4687(2) 0.0418 Uani
H10 H 0.269509 0.989233 0.449127 0.0500 Uiso
O9 O 0.65564(19) 0.70320(16) 0.48291(14) 0.0526 Uani
N13 N 0.7310(2) 0.39409(17) 0.53277(16) 0.0417 Uani
N14 N 0.4987(3) 0.60015(19) 0.68522(16) 0.0496 Uani
N11 N 0.4664(3) 0.7549(2) 0.82990(18) 0.0658 Uani
O7 O 0.1617(3) 0.8472(2) 0.75764(16) 0.0875 Uani
H11 H 0.086423 0.877097 0.728047 0.1310 Uiso
N12 N 0.3373(3) 0.6460(3) 0.8183(2) 0.0836 Uani
C19 C 0.5525(3) 0.7256(3) 0.7504(2) 0.0635 Uani
H12 H 0.643631 0.788755 0.741504 0.0760 Uiso
C20 C 0.3622(4) 0.5552(3) 0.7289(2) 0.0681 Uani
H13 H 0.290976 0.467070 0.698439 0.0820 Uiso
O8 O 0.0232(3) 0.8592(3) 0.89343(19) 0.1198 Uani
C21 C 0.3355(3) 0.9313(3) 0.9319(2) 0.0647 Uani
C22 C 0.4806(3) 0.8825(3) 0.9156(2) 0.0587 Uani
C23 C 0.6461(3) 0.9502(3) 0.9809(2) 0.0642 Uani
H14 H 0.744170 0.915769 0.965861 0.0770 Uiso
C24 C 0.1571(4) 0.8755(3) 0.8606(2) 0.0797 Uani
C6 C 0.8388(3) 0.0057(2) 0.5313(2) 0.0418 Uani
H3 H 0.730491 0.010767 0.550873 0.0500 Uiso
N7 N 0.8794(2) 0.24183(16) 0.53522(15) 0.0351 Uani
N9 N 0.9782(2) 0.35887(19) 0.61007(19) 0.0589 Uani
C15 C 0.9402(3) 0.1156(2) 0.51461(18) 0.0339 Uani
C16 C 0.8869(3) 0.4463(2) 0.6039(2) 0.0526 Uani
H8 H 0.924643 0.538847 0.645161 0.0630 Uiso
C17 C 0.7361(3) 0.2653(2) 0.4920(2) 0.0430 Uani
H9 H 0.647627 0.199072 0.438616 0.0520 Uiso
O2 O 0.8685(2) 0.74247(16) 0.62711(14) 0.0564 Uani
C1 C 0.9004(3) 0.8868(2) 0.51872(19) 0.0362 Uani
C2 C 0.8008(3) 0.7664(2) 0.54483(19) 0.0376 Uani
loop_
_atom_site_aniso_label
_atom_site_aniso_U_11
_atom_site_aniso_U_22
_atom_site_aniso_U_33
_atom_site_aniso_U_23
_atom_site_aniso_U_13
_atom_site_aniso_U_12
O5 0.0318 0.0435 0.0711 0.0121 0.0067 -0.0067
O6 0.0504 0.0404 0.0856 0.0337 0.0105 0.0082
C13 0.0273 0.026 0.0472 0.0014 0.0039 0.0059
C14 0.0398 0.0294 0.0495 0.0148 0.0158 0.0139
Cd5 0.01871 0.00932 0.0292 0.00327 0.00793 0.00564
N1 0.0259 0.0164 0.058 0.0072 0.0045 0.0038
N2 0.0365 0.0268 0.0584 0.007 0.0067 0.0122
N3 0.0599 0.0306 0.0482 -0.0018 0.0225 0.0007
N4 0.0427 0.0294 0.0876 0.0016 -0.0097 0.012
C3 0.0275 0.0268 0.0538 0.0187 0.0117 0.0105
C4 0.053 0.018 0.073 0.0052 -0.0031 0.0017
N5 0.0637 0.0494 0.0613 -0.0056 0.0178 -0.0093
C5 0.0505 0.0126 0.0581 0.0057 0.0035 0.0027
O3 0.0768 0.1007 0.073 0.0137 0.0126 0.0165
N6 0.0609 0.0576 0.1055 -0.0073 0.031 -0.0076
C7 0.0668 0.0486 0.0747 0.0107 0.0385 0.0094
C8 0.0738 0.0482 0.0607 -0.0012 0.0044 -0.002
O4 0.0721 0.153 0.0911 -0.0131 0.0214 0.0024
C9 0.0425 0.0635 0.0656 -0.0047 0.0085 0.0004
C10 0.0581 0.0346 0.0671 -0.0133 0.0346 0.0029
C11 0.0544 0.0616 0.0736 0.011 0.0245 0.0154
C12 0.0753 0.074 0.073 0.0034 0.0321 -0.0036
C18 0.0362 0.0253 0.0726 0.0218 0.0184 0.0135
O9 0.0318 0.0435 0.0711 0.0121 0.0067 -0.0067
N13 0.0365 0.0268 0.0584 0.007 0.0067 0.0122
N14 0.0599 0.0306 0.0482 -0.0018 0.0225 0.0007
N11 0.0637 0.0494 0.0613 -0.0056 0.0178 -0.0093
O7 0.0768 0.1007 0.073 0.0137 0.0126 0.0165
N12 0.0609 0.0576 0.1055 -0.0073 0.031 -0.0076
C19 0.0668 0.0486 0.0747 0.0107 0.0385 0.0094
C20 0.0738 0.0482 0.0607 -0.0012 0.0044 -0.002
O8 0.0721 0.153 0.0911 -0.0131 0.0214 0.0024
C21 0.0425 0.0635 0.0656 -0.0047 0.0085 0.0004
C22 0.0581 0.0346 0.0671 -0.0133 0.0346 0.0029
C23 0.0544 0.0616 0.0736 0.011 0.0245 0.0154
C24 0.0753 0.074 0.073 0.0034 0.0321 -0.0036
C6 0.0362 0.0253 0.0726 0.0218 0.0184 0.0135
N7 0.0259 0.0164 0.058 0.0072 0.0045 0.0038
N9 0.0427 0.0294 0.0876 0.0016 -0.0097 0.012
C15 0.0275 0.0268 0.0538 0.0187 0.0117 0.0105
C16 0.053 0.018 0.073 0.0052 -0.0031 0.0017
C17 0.0505 0.0126 0.0581 0.0057 0.0035 0.0027
O2 0.0504 0.0404 0.0856 0.0337 0.0105 0.0082
C1 0.0273 0.026 0.0472 0.0014 0.0039 0.0059
C2 0.0398 0.0294 0.0495 0.0148 0.0158 0.0139
loop_
_geom_bond_atom_site_label_1
_geom_bond_atom_site_label_2
_geom_bond_site_symmetry_1
_geom_bond_site_symmetry_2
O5 C14 1_555 1_555
O6 C14 1_555 1_555
C13 C14 1_555 1_555
Cd5 O5 1_555 1_555
Cd5 N2 1_555 1_555
N1 N4 1_555 1_555
N2 C4 1_555 1_555
N3 Cd5 1_555 1_555
N4 C4 1_555 1_555
C3 N1 1_555 1_555
C4 H1 1_555 1_555
N5 N6 1_555 1_555
C5 N1 1_555 1_555
H2 C5 1_555 1_555
O3 H4 1_555 1_555
N6 C8 1_555 1_555
C7 N3 1_555 1_555
H5 C7 1_555 1_555
C8 N3 1_555 1_555
H6 C8 1_555 1_555
O4 C12 1_555 1_555
C9 C10 1_555 1_555
C10 N5 1_555 1_555
C11 C10 1_555 1_555
H7 C11 1_555 1_555
C12 O3 1_555 1_555
C18 C3 1_555 1_555
H10 C18 1_555 1_555
O9 Cd5 1_555 1_555
N13 Cd5 1_555 1_555
N14 Cd5 1_555 1_555
N2 C5 1_555 1_555
N5 C7 1_555 1_555
C9 C12 1_555 1_555
N14 C19 1_555 1_555
N11 N12 1_555 1_555
O7 H11 1_555 1_555
N12 C20 1_555 1_555
C19 N11 1_555 1_555
H12 C19 1_555 1_555
C20 N14 1_555 1_555
H13 C20 1_555 1_555
O8 C24 1_555 1_555
C22 N11 1_555 1_555
H14 C23 1_555 1_555
C24 O7 1_555 1_555
C21 C22 1_555 1_555
C21 C24 1_555 1_555
C22 C23 1_555 1_555
H3 C6 1_555 1_555
N7 N9 1_555 1_555
N13 C16 1_555 1_555
N9 C16 1_555 1_555
C15 C6 1_555 1_555
C16 H8 1_555 1_555
C17 N7 1_555 1_555
H9 C17 1_555 1_555
N7 C15 1_555 1_555
N13 C17 1_555 1_555
O9 C2 1_555 1_555
O2 C2 1_555 1_555
C1 C2 1_555 1_555

#END
