
###############################################################################
#
# This file contains modified crystal structure data generated from the
# MOF subset of the Cambridge Structural Database (CSD) v543 
# hosted by the Cambridge Crystallographic Data Centre (CCDC).
#
# This work is licensed under the Creative Commons
# Attribution-NonCommercial-ShareAlike 4.0 International License.
# To view a copy of this license, visit
# http://creativecommons.org/licenses/by-nc-sa/4.0/
# or send a letter to
# Creative Commons, PO Box 1866, Mountain View, CA 94042, USA.
#
# CIF created using the CSD Python API on 29 September 2022
# The structure has been converted into the P1 space group
# The structure has a 3D framework
# The original CSD entry OLEBEP is in the triclinic crystal system
# The framework has been calculated to contain at least 10.0% void space
# The void calculation uses a probe of radius 1.32A, grid spacing 0.4
#
###############################################################################

data_OLEBEP
_chemical_formula_moiety         '(C24 H14 Cd1 N12 O8)n'
_symmetry_cell_setting           triclinic
_symmetry_space_group_name_H-M   'P 1'
_symmetry_Int_Tables_number      1
_space_group_name_Hall           'P 1'
loop_
_symmetry_equiv_pos_site_id
_symmetry_equiv_pos_as_xyz
1 x,y,z
_cell_length_a                   7.9374(6)
_cell_length_b                   10.4344(8)
_cell_length_c                   12.2039(9)
_cell_angle_alpha                103.180(7)
_cell_angle_beta                 99.448(6)
_cell_angle_gamma                100.235(7)
_cell_volume                     946.115
loop_
_atom_site_label
_atom_site_type_symbol
_atom_site_fract_x
_atom_site_fract_y
_atom_site_fract_z
Cd5 Cd 0.000000 0.000000 0.500000
Cd5_2 Cd -0.000000 1.000000 0.500000
H6 H 0.428(8) 0.041(6) 0.656(5)
H7 H 0.206(11) 0.028(9) 0.288(7)
Cd5_3 Cd 1.000000 0.000000 0.500000
O10 O 0.1459(5) 0.1999(4) 0.4662(4)
O1 O 0.8541(5) 0.8001(4) 0.5338(4)
N1 N 0.3802(5) 0.7407(4) 0.5417(4)
O2 O 0.6447(6) 0.7763(4) 0.3817(4)
N2 N 0.2332(6) 0.8953(4) 0.5430(4)
N3 N 0.0045(7) 0.8999(5) 0.3077(4)
C1 C 0.7096(7) 0.7420(5) 0.4689(5)
C2 C 0.6039(6) 0.6195(5) 0.4918(5)
N4 N 0.4868(7) 0.8537(5) 0.6167(5)
N5 N 0.0354(7) 0.7443(5) 0.1642(4)
C3 C 0.4412(7) 0.6166(5) 0.5179(5)
C4 C 0.3895(8) 0.9427(6) 0.6147(6)
C5 C 0.6644(7) 0.5001(5) 0.4735(5)
N6 N 0.1639(9) 0.8531(6) 0.1703(5)
C6 C 0.2320(8) 0.7668(5) 0.4994(5)
H2 H 0.139335 0.704330 0.446533
C8 C 0.1393(10) 0.9441(7) 0.2580(6)
C9 C 0.0205(9) 0.6190(7) 0.0830(5)
H5 H 0.791(7) 0.489(6) 0.458(4)
N7 N 0.6198(5) 0.2593(4) 0.4583(4)
O6 O 0.3553(6) 0.2237(4) 0.6183(4)
N8 N 0.7668(6) 0.1047(4) 0.4570(4)
C13 C 0.2904(7) 0.2580(5) 0.5311(5)
C14 C 0.3961(6) 0.3805(5) 0.5082(5)
N9 N 0.5132(7) 0.1463(5) 0.3833(5)
C15 C 0.5588(7) 0.3834(5) 0.4821(5)
C16 C 0.6105(8) 0.0573(6) 0.3853(6)
C17 C 0.3356(7) 0.4999(5) 0.5265(5)
C18 C 0.7680(8) 0.2332(5) 0.5006(5)
H8 H 0.860665 0.295670 0.553467
H9 H 0.209(7) 0.511(6) 0.542(4)
O7 O 0.3466(7) 0.6602(6) 0.2533(4)
H11 H 0.442421 0.706002 0.290732
O8 O 0.4777(8) 0.6434(8) 0.1042(5)
C23 C 0.1673(9) 0.5684(7) 0.0684(6)
C24 C 0.3494(10) 0.6308(8) 0.1424(6)
Cd5_4 Cd 1.000000 1.000000 0.500000
C19 C 0.0552(9) 0.2258(6) 0.7540(5)
H12 H 0.147953 0.285881 0.742423
C22 C 0.1475(10) 0.4484(7) 0.9848(6)
H13 H 0.244465 0.412554 0.973456
H10 H 0.572(8) 0.959(6) 0.344(5)
N14 N 0.9955(7) 0.1001(5) 0.6923(4)
C7 C 0.9448(9) 0.7742(6) 0.2460(5)
H3 H 0.852047 0.714119 0.257577
C10 C 0.8525(10) 0.5516(7) 0.0152(6)
H4 H 0.755535 0.587446 0.026544
O3 O 0.6534(7) 0.3398(6) 0.7467(4)
H1 H 0.557579 0.293998 0.709268
O4 O 0.5223(8) 0.3566(8) 0.8958(5)
C11 C 0.8327(9) 0.4316(7) 0.9316(6)
C12 C 0.6506(10) 0.3692(8) 0.8576(6)
N11 N 0.9646(7) 0.2557(5) 0.8358(4)
N12 N 0.8361(9) 0.1469(6) 0.8297(5)
C20 C 0.8607(10) 0.0559(7) 0.7420(6)
C21 C 0.9795(9) 0.3810(7) 0.9170(5)
H14 H 0.794(11) 0.972(9) 0.712(7)
loop_
_geom_bond_atom_site_label_1
_geom_bond_atom_site_label_2
_geom_bond_site_symmetry_1
_geom_bond_site_symmetry_2
O10 Cd5 1_555 1_555
Cd5_2 N2 1_555 1_555
O1 C1 1_555 1_555
N1 N4 1_555 1_555
O2 C1 1_555 1_555
N2 C4 1_555 1_555
N3 Cd5_2 1_555 1_555
C1 C2 1_555 1_555
C2 C3 1_555 1_555
N4 C4 1_555 1_555
N5 N6 1_555 1_555
C3 N1 1_555 1_555
C5 C2 1_555 1_555
N6 C8 1_555 1_555
C6 N1 1_555 1_555
H2 C6 1_555 1_555
C8 N3 1_555 1_555
C9 N5 1_555 1_555
H5 C5 1_555 1_555
O10 C13 1_555 1_555
N7 N9 1_555 1_555
O6 C13 1_555 1_555
N8 C16 1_555 1_555
C13 C14 1_555 1_555
C14 C15 1_555 1_555
N9 C16 1_555 1_555
C15 C5 1_555 1_555
C17 C3 1_555 1_555
C18 N7 1_555 1_555
H8 C18 1_555 1_555
H9 C17 1_555 1_555
O7 H11 1_555 1_555
O8 C24 1_555 1_555
C23 C9 1_555 1_555
C24 O7 1_555 1_555
Cd5_3 N8 1_555 1_555
Cd5_4 O1 1_555 1_555
N2 C6 1_555 1_555
N7 C15 1_555 1_555
N8 C18 1_555 1_555
C14 C17 1_555 1_555
C23 C24 1_555 1_555
H12 C19 1_555 1_555
H13 C22 1_555 1_555
N14 Cd5_3 1_555 1_555
H3 C7 1_555 1_555
H4 C10 1_555 1_555
O3 H1 1_555 1_555
O4 C12 1_555 1_555
C12 O3 1_555 1_555
N11 N12 1_555 1_555
N12 C20 1_555 1_555
C20 N14 1_555 1_555
C21 C11 1_555 1_555
C11 C12 1_555 1_555
N11 C21 1_555 1_555

#END
