
###############################################################################
#
# This file contains modified crystal structure data generated from the
# MOF subset of the Cambridge Structural Database (CSD) v543 
# hosted by the Cambridge Crystallographic Data Centre (CCDC).
#
# This work is licensed under the Creative Commons
# Attribution-NonCommercial-ShareAlike 4.0 International License.
# To view a copy of this license, visit
# http://creativecommons.org/licenses/by-nc-sa/4.0/
# or send a letter to
# Creative Commons, PO Box 1866, Mountain View, CA 94042, USA.
#
# CIF created using the CSD Python API on 29 September 2022
# The structure has been converted into the P1 space group
# The structure has a 3D framework
# The original CSD entry OLELID is in the orthorhombic crystal system
# The framework has been calculated to contain at least 10.0% void space
# The void calculation uses a probe of radius 1.32A, grid spacing 0.4
#
###############################################################################

data_OLELID
_chemical_formula_moiety         '(C72 H48 N24 O16 Zn2)n'
_symmetry_cell_setting           triclinic
_symmetry_space_group_name_H-M   'P 1'
_symmetry_Int_Tables_number      1
_space_group_name_Hall           'P 1'
loop_
_symmetry_equiv_pos_site_id
_symmetry_equiv_pos_as_xyz
1 x,y,z
_cell_length_a                   11.8360(8)
_cell_length_b                   17.9779(12)
_cell_length_c                   11.1291(8)
_cell_angle_alpha                90
_cell_angle_beta                 90
_cell_angle_gamma                90
_cell_volume                     2368.12
loop_
_atom_site_label
_atom_site_type_symbol
_atom_site_fract_x
_atom_site_fract_y
_atom_site_fract_z
Zn3 Zn 0.00503(7) 0.05793(3) 0.95127(11)
Zn1 Zn 0.49497(7) 0.55793(3) 0.45127(11)
O1 O 0.3943(4) 0.4890(3) 0.5388(5)
O2 O 0.3747(6) 0.4369(3) 0.3613(5)
O3 O 0.5213(4) 0.6265(3) 0.5919(5)
O4 O 0.6307(4) 0.6652(3) 0.4493(7)
N1 N 0.1437(5) 0.1890(3) 0.6842(6)
N2 N 0.1533(6) 0.1223(4) 0.6257(6)
N3 N 0.0781(5) 0.1080(3) 0.8095(5)
N4 N 0.7573(5) 0.9153(3) 0.8229(5)
N5 N 0.6868(5) 0.9646(4) 0.8772(7)
N6 N 0.8688(5) 0.9996(3) 0.8959(6)
C1 C 0.3576(6) 0.4388(4) 0.4697(7)
C2 C 0.2936(6) 0.3763(4) 0.5270(7)
C3 C 0.2374(6) 0.3251(4) 0.4570(9)
H1 H 0.2350 0.3313 0.3741
C4 C 0.1842(7) 0.2643(4) 0.5096(7)
H2 H 0.1443 0.2304 0.4628
C5 C 0.1916(7) 0.2552(4) 0.6321(6)
C6 C 0.2449(7) 0.3059(4) 0.7017(8)
H3 H 0.2479 0.2996 0.7846
C7 C 0.2945(7) 0.3666(4) 0.6495(7)
H4 H 0.3295 0.4019 0.6978
C8 C 0.1002(7) 0.1787(4) 0.7926(6)
H5 H 0.0872 0.2162 0.8486
C9 C 0.1122(7) 0.0763(4) 0.7056(7)
H6 H 0.1068 0.0254 0.6919
C10 C 0.5933(7) 0.6704(4) 0.5510(8)
C11 C 0.6349(7) 0.7327(4) 0.6303(7)
C12 C 0.5813(7) 0.7549(4) 0.7312(8)
H7 H 0.5179 0.7290 0.7572
C13 C 0.6190(7) 0.8161(4) 0.7974(8)
H8 H 0.5810 0.8312 0.8663
C14 C 0.7129(7) 0.8532(4) 0.7590(7)
C15 C 0.7697(7) 0.8288(5) 0.6606(8)
H9 H 0.8360 0.8524 0.6370
C16 C 0.7291(7) 0.7692(5) 0.5956(8)
H10 H 0.7673 0.7539 0.5268
C17 C 0.8650(6) 0.9371(4) 0.8339(7)
H11 H 0.9272 0.9121 0.8028
N7 N 0.4219(5) 0.6080(3) 0.3095(5)
N8 N 0.6312(5) 0.4996(3) 0.3959(6)
O1_2 O 0.1057(4) 0.9890(3) 0.0388(5)
N1_2 N 0.3563(5) 0.6890(3) 0.1842(6)
N2_2 N 0.3467(6) 0.6223(4) 0.1257(6)
C2_2 C 0.2064(6) 0.8763(4) 0.0270(7)
C4_2 C 0.3158(7) 0.7643(4) 0.0096(7)
C5_2 C 0.3084(7) 0.7552(4) 0.1321(6)
C6_2 C 0.2551(7) 0.8059(4) 0.2017(8)
H3_2 H 0.2521 0.7996 0.2846
C7_2 C 0.2055(7) 0.8666(4) 0.1495(7)
H4_2 H 0.1705 0.9019 0.1978
C8_2 C 0.3998(7) 0.6787(4) 0.2926(6)
H5_2 H 0.4128 0.7162 0.3486
C9_2 C 0.3878(7) 0.5763(4) 0.2056(7)
H6_2 H 0.3932 0.5254 0.1919
O3_2 O 0.9787(4) 0.1265(3) 0.0919(5)
N4_2 N 0.7427(5) 0.4153(3) 0.3229(5)
N5_2 N 0.8132(5) 0.4646(4) 0.3772(7)
C10_2 C 0.9067(7) 0.1704(4) 0.0510(8)
C11_2 C 0.8651(7) 0.2327(4) 0.1303(7)
C12_2 C 0.9187(7) 0.2549(4) 0.2312(8)
H7_2 H 0.9821 0.2290 0.2572
C13_2 C 0.8810(7) 0.3161(4) 0.2974(8)
H8_2 H 0.9190 0.3312 0.3663
C14_2 C 0.7871(7) 0.3532(4) 0.2590(7)
C15_2 C 0.7303(7) 0.3288(5) 0.1606(8)
H9_2 H 0.6640 0.3524 0.1370
C16_2 C 0.7709(7) 0.2692(5) 0.0956(8)
H10_2 H 0.7327 0.2539 0.0268
C17_2 C 0.6350(6) 0.4371(4) 0.3339(7)
H11_2 H 0.5728 0.4121 0.3028
C18 C 0.7406(7) 0.5144(4) 0.4185(7)
H12 H 0.7636 0.5566 0.4601
C18_2 C 0.7594(7) 0.0144(4) 0.9185(7)
H12_2 H 0.7364 0.0566 0.9601
O1_3 O 0.6057(4) 0.5110(3) 0.0388(5)
O3_3 O 0.4787(4) 0.3735(3) 0.0919(5)
N1_3 N 0.8563(5) 0.8110(3) 0.1842(6)
N2_3 N 0.8467(6) 0.8777(4) 0.1257(6)
N3_2 N 0.9219(5) 0.8920(3) 0.3095(5)
N4_3 N 0.2427(5) 0.0847(3) 0.3229(5)
N5_3 N 0.3132(5) 0.0354(4) 0.3772(7)
N6_2 N 0.1312(5) 0.0004(3) 0.3959(6)
C2_3 C 0.7064(6) 0.6237(4) 0.0270(7)
C4_3 C 0.8158(7) 0.7357(4) 0.0096(7)
C5_3 C 0.8084(7) 0.7448(4) 0.1321(6)
C6_3 C 0.7551(7) 0.6941(4) 0.2017(8)
H3_3 H 0.7521 0.7004 0.2846
C7_3 C 0.7055(7) 0.6334(4) 0.1495(7)
H4_3 H 0.6705 0.5981 0.1978
C8_3 C 0.8998(7) 0.8213(4) 0.2926(6)
H5_3 H 0.9128 0.7838 0.3486
C9_3 C 0.8878(7) 0.9237(4) 0.2056(7)
H6_3 H 0.8932 0.9746 0.1919
C10_3 C 0.4067(7) 0.3296(4) 0.0510(8)
C11_3 C 0.3651(7) 0.2673(4) 0.1303(7)
C12_3 C 0.4187(7) 0.2451(4) 0.2312(8)
H7_3 H 0.4821 0.2710 0.2572
C13_3 C 0.3810(7) 0.1839(4) 0.2974(8)
H8_3 H 0.4190 0.1688 0.3663
C14_3 C 0.2871(7) 0.1468(4) 0.2590(7)
C15_3 C 0.2303(7) 0.1712(5) 0.1606(8)
H9_3 H 0.1640 0.1476 0.1370
C16_3 C 0.2709(7) 0.2308(5) 0.0956(8)
H10_3 H 0.2327 0.2461 0.0268
C17_3 C 0.1350(6) 0.0629(4) 0.3339(7)
H11_3 H 0.0728 0.0879 0.3028
Zn2 Zn 0.99497(7) 0.94207(3) 0.45127(11)
Zn1_2 Zn 0.50503(7) 0.44207(3) 0.95127(11)
O2_2 O 0.6253(6) 0.5631(3) 0.8613(5)
O4_2 O 0.3693(4) 0.3348(3) 0.9493(7)
C1_2 C 0.6424(6) 0.5612(4) 0.9697(7)
C3_2 C 0.7626(6) 0.6749(4) 0.9570(9)
H1_2 H 0.7650 0.6687 0.8741
H2_2 H 0.8557 0.7696 0.9628
N7_2 N 0.5781(5) 0.3920(3) 0.8095(5)
N8_2 N 0.3688(5) 0.5004(3) 0.8959(6)
O3_4 O 0.0213(4) 0.8735(3) 0.5919(5)
O4_3 O 0.1307(4) 0.8348(3) 0.4493(7)
N4_4 N 0.2573(5) 0.5847(3) 0.8229(5)
N5_4 N 0.1868(5) 0.5354(4) 0.8772(7)
C10_4 C 0.0933(7) 0.8296(4) 0.5510(8)
C11_4 C 0.1349(7) 0.7673(4) 0.6303(7)
C12_4 C 0.0813(7) 0.7451(4) 0.7312(8)
H7_4 H 0.0179 0.7710 0.7572
C13_4 C 0.1190(7) 0.6839(4) 0.7974(8)
H8_4 H 0.0810 0.6688 0.8663
C14_4 C 0.2129(7) 0.6468(4) 0.7590(7)
C15_4 C 0.2697(7) 0.6712(5) 0.6606(8)
H9_4 H 0.3360 0.6476 0.6370
C16_4 C 0.2291(7) 0.7308(5) 0.5956(8)
H10_4 H 0.2673 0.7461 0.5268
C17_4 C 0.3650(6) 0.5629(4) 0.8339(7)
H11_4 H 0.4272 0.5879 0.8028
C18_3 C 0.2594(7) 0.4856(4) 0.9185(7)
H12_3 H 0.2364 0.4434 0.9601
O1_4 O 0.8943(4) 0.0110(3) 0.5388(5)
O2_3 O 0.8747(6) 0.0631(3) 0.3613(5)
N1_4 N 0.6437(5) 0.3110(3) 0.6842(6)
N2_4 N 0.6533(6) 0.3777(4) 0.6257(6)
C1_3 C 0.8576(6) 0.0612(4) 0.4697(7)
C2_4 C 0.7936(6) 0.1237(4) 0.5270(7)
C3_3 C 0.7374(6) 0.1749(4) 0.4570(9)
H1_3 H 0.7350 0.1687 0.3741
C4_4 C 0.6842(7) 0.2357(4) 0.5096(7)
H2_3 H 0.6443 0.2696 0.4628
C5_4 C 0.6916(7) 0.2448(4) 0.6321(6)
C6_4 C 0.7449(7) 0.1941(4) 0.7017(8)
H3_4 H 0.7479 0.2004 0.7846
C7_4 C 0.7945(7) 0.1334(4) 0.6495(7)
H4_4 H 0.8295 0.0981 0.6978
C8_4 C 0.6002(7) 0.3213(4) 0.7926(6)
H5_4 H 0.5872 0.2838 0.8486
C9_4 C 0.6122(7) 0.4237(4) 0.7056(7)
H6_4 H 0.6068 0.4746 0.6919
C18_4 C 0.2406(7) 0.9856(4) 0.4185(7)
H12_4 H 0.2636 0.9434 0.4601
O2_4 O 0.1253(6) 0.9369(3) 0.8613(5)
C1_4 C 0.1424(6) 0.9388(4) 0.9697(7)
C3_4 C 0.2626(6) 0.8251(4) 0.9570(9)
H1_4 H 0.2650 0.8313 0.8741
H2_4 H 0.3557 0.7304 0.9628
O4_4 O 0.8693(4) 0.1652(3) 0.9493(7)
loop_
_geom_bond_atom_site_label_1
_geom_bond_atom_site_label_2
_geom_bond_site_symmetry_1
_geom_bond_site_symmetry_2
Zn1 O1 1_555 1_555
O1 C1 1_555 1_555
O2 C1 1_555 1_555
O3 Zn1 1_555 1_555
O4 Zn1 1_555 1_555
N1 N2 1_555 1_555
N2 C9 1_555 1_555
N3 C8 1_555 1_555
N4 N5 1_555 1_555
N6 C17 1_555 1_555
C1 C2 1_555 1_555
C2 C3 1_555 1_555
C3 H1 1_555 1_555
C4 C3 1_555 1_555
H2 C4 1_555 1_555
C5 N1 1_555 1_555
C6 C5 1_555 1_555
H3 C6 1_555 1_555
C7 C2 1_555 1_555
H4 C7 1_555 1_555
C8 N1 1_555 1_555
H5 C8 1_555 1_555
C9 N3 1_555 1_555
H6 C9 1_555 1_555
C10 O3 1_555 1_555
C11 C10 1_555 1_555
C12 C11 1_555 1_555
H7 C12 1_555 1_555
C13 C12 1_555 1_555
H8 C13 1_555 1_555
C14 N4 1_555 1_555
C15 C14 1_555 1_555
H9 C15 1_555 1_555
C16 C11 1_555 1_555
H10 C16 1_555 1_555
C17 N4 1_555 1_555
H11 C17 1_555 1_555
Zn3 N3 1_555 1_555
N7 Zn1 1_555 1_555
N8 Zn1 1_555 1_555
O4 C10 1_555 1_555
C4 C5 1_555 1_555
C6 C7 1_555 1_555
C13 C14 1_555 1_555
C15 C16 1_555 1_555
N1_2 N2_2 1_555 1_555
N2_2 C9_2 1_555 1_555
N7 C8_2 1_555 1_555
C5_2 N1_2 1_555 1_555
C6_2 C5_2 1_555 1_555
H3_2 C6_2 1_555 1_555
C7_2 C2_2 1_555 1_555
H4_2 C7_2 1_555 1_555
C8_2 N1_2 1_555 1_555
H5_2 C8_2 1_555 1_555
C9_2 N7 1_555 1_555
H6_2 C9_2 1_555 1_555
C4_2 C5_2 1_555 1_555
C6_2 C7_2 1_555 1_555
N4_2 N5_2 1_555 1_555
N5_2 C18 1_555 1_555
N8 C17_2 1_555 1_555
C10_2 O3_2 1_555 1_555
C11_2 C10_2 1_555 1_555
C12_2 C11_2 1_555 1_555
H7_2 C12_2 1_555 1_555
C13_2 C12_2 1_555 1_555
H8_2 C13_2 1_555 1_555
C14_2 N4_2 1_555 1_555
C15_2 C14_2 1_555 1_555
H9_2 C15_2 1_555 1_555
C16_2 C11_2 1_555 1_555
H10_2 C16_2 1_555 1_555
C17_2 N4_2 1_555 1_555
H11_2 C17_2 1_555 1_555
C18 N8 1_555 1_555
H12 C18 1_555 1_555
C13_2 C14_2 1_555 1_555
C15_2 C16_2 1_555 1_555
H12_2 C18_2 1_555 1_555
N1_3 N2_3 1_555 1_555
N2_3 C9_3 1_555 1_555
N3_2 C8_3 1_555 1_555
N4_3 N5_3 1_555 1_555
N6_2 C17_3 1_555 1_555
C5_3 N1_3 1_555 1_555
C6_3 C5_3 1_555 1_555
H3_3 C6_3 1_555 1_555
C7_3 C2_3 1_555 1_555
H4_3 C7_3 1_555 1_555
C8_3 N1_3 1_555 1_555
H5_3 C8_3 1_555 1_555
C9_3 N3_2 1_555 1_555
H6_3 C9_3 1_555 1_555
C10_3 O3_3 1_555 1_555
C11_3 C10_3 1_555 1_555
C12_3 C11_3 1_555 1_555
H7_3 C12_3 1_555 1_555
C13_3 C12_3 1_555 1_555
H8_3 C13_3 1_555 1_555
C14_3 N4_3 1_555 1_555
C15_3 C14_3 1_555 1_555
H9_3 C15_3 1_555 1_555
C16_3 C11_3 1_555 1_555
H10_3 C16_3 1_555 1_555
C17_3 N4_3 1_555 1_555
H11_3 C17_3 1_555 1_555
Zn2 N3_2 1_555 1_555
C4_3 C5_3 1_555 1_555
C6_3 C7_3 1_555 1_555
C13_3 C14_3 1_555 1_555
C15_3 C16_3 1_555 1_555
O2_2 C1_2 1_555 1_555
O4_2 Zn1_2 1_555 1_555
C3_2 H1_2 1_555 1_555
N7_2 Zn1_2 1_555 1_555
N8_2 Zn1_2 1_555 1_555
N4_4 N5_4 1_555 1_555
N5_4 C18_3 1_555 1_555
N8_2 C17_4 1_555 1_555
C10_4 O3_4 1_555 1_555
C11_4 C10_4 1_555 1_555
C12_4 C11_4 1_555 1_555
H7_4 C12_4 1_555 1_555
C13_4 C12_4 1_555 1_555
H8_4 C13_4 1_555 1_555
C14_4 N4_4 1_555 1_555
C15_4 C14_4 1_555 1_555
H9_4 C15_4 1_555 1_555
C16_4 C11_4 1_555 1_555
H10_4 C16_4 1_555 1_555
C17_4 N4_4 1_555 1_555
H11_4 C17_4 1_555 1_555
C18_3 N8_2 1_555 1_555
H12_3 C18_3 1_555 1_555
O4_3 C10_4 1_555 1_555
C13_4 C14_4 1_555 1_555
C15_4 C16_4 1_555 1_555
O1_4 C1_3 1_555 1_555
O2_3 C1_3 1_555 1_555
N1_4 N2_4 1_555 1_555
N2_4 C9_4 1_555 1_555
N7_2 C8_4 1_555 1_555
C1_3 C2_4 1_555 1_555
C2_4 C3_3 1_555 1_555
C3_3 H1_3 1_555 1_555
C4_4 C3_3 1_555 1_555
H2_3 C4_4 1_555 1_555
C5_4 N1_4 1_555 1_555
C6_4 C5_4 1_555 1_555
H3_4 C6_4 1_555 1_555
C7_4 C2_4 1_555 1_555
H4_4 C7_4 1_555 1_555
C8_4 N1_4 1_555 1_555
H5_4 C8_4 1_555 1_555
C9_4 N7_2 1_555 1_555
H6_4 C9_4 1_555 1_555
C4_4 C5_4 1_555 1_555
C6_4 C7_4 1_555 1_555
H12_4 C18_4 1_555 1_555
O2_4 C1_4 1_555 1_555
C3_4 H1_4 1_555 1_555

#END
