
###############################################################################
#
# This file contains modified crystal structure data generated from the
# MOF subset of the Cambridge Structural Database (CSD) v543 
# hosted by the Cambridge Crystallographic Data Centre (CCDC).
#
# This work is licensed under the Creative Commons
# Attribution-NonCommercial-ShareAlike 4.0 International License.
# To view a copy of this license, visit
# http://creativecommons.org/licenses/by-nc-sa/4.0/
# or send a letter to
# Creative Commons, PO Box 1866, Mountain View, CA 94042, USA.
#
# CIF created using the CSD Python API on 29 September 2022
# The structure has been converted into the P1 space group
# The structure has a 3D framework
# The original CSD entry OLIMII is in the triclinic crystal system
# The framework has been calculated to contain at least 10.0% void space
# The void calculation uses a probe of radius 1.32A, grid spacing 0.4
#
###############################################################################

data_OLIMII
_chemical_formula_moiety         '(C60 H44 Cd2 N8 O12)n'
_symmetry_cell_setting           triclinic
_symmetry_space_group_name_H-M   'P 1'
_symmetry_Int_Tables_number      1
_space_group_name_Hall           'P 1'
loop_
_symmetry_equiv_pos_site_id
_symmetry_equiv_pos_as_xyz
1 x,y,z
_cell_length_a                   10.310(3)
_cell_length_b                   11.101(3)
_cell_length_c                   13.809(3)
_cell_angle_alpha                106.513(3)
_cell_angle_beta                 90.714(3)
_cell_angle_gamma                95.475(3)
_cell_volume                     1507.06
loop_
_atom_site_label
_atom_site_type_symbol
_atom_site_fract_x
_atom_site_fract_y
_atom_site_fract_z
_atom_site_U_iso_or_equiv
_atom_site_thermal_displace_type
Cd5 Cd 0.05368(4) 0.73735(4) 0.56684(3) 0.0520 Uani
O1 O 0.2857(3) 0.7233(4) 0.5562(3) 0.0569 Uani
O2 O 0.2136(3) 0.9103(4) 0.6050(3) 0.0570 Uani
O4 O 0.9005(3) 0.8706(4) 0.6107(3) 0.0702 Uani
O5 O 0.7716(4) 0.6952(5) 0.5418(4) 0.0783 Uani
N1 N 0.0428(4) 0.7236(4) 0.3980(3) 0.0479 Uani
C1 C 0.4428(4) 0.9041(5) 0.6025(4) 0.0437 Uani
C2 C 0.3062(5) 0.8422(6) 0.5857(4) 0.0464 Uani
C3 C 0.5484(5) 0.8327(6) 0.5865(4) 0.0487 Uani
H3 H 0.5330 0.7451 0.5642 0.0590 Uiso
C6 C 0.6746(5) 0.8881(6) 0.6026(4) 0.0508 Uani
C9 C 0.7893(6) 0.8099(7) 0.5826(5) 0.0607 Uani
C11 C 0.1216(5) 0.6567(5) 0.3310(5) 0.0571 Uani
H6 H 0.1765 0.6072 0.3529 0.0680 Uiso
C18 C 0.0431(6) 0.7296(6) 0.1990(4) 0.0629 Uani
H11 H 0.0430 0.7307 0.1319 0.0750 Uiso
C29 C 0.1248(6) 0.6578(6) 0.2338(5) 0.0639 Uani
H21 H 0.1816 0.6106 0.1904 0.0760 Uiso
N9 N 0.0567(4) 0.6779(4) 0.7133(3) 0.0521 Uani
O18 O 0.0484(7) 0.4810(8) 0.4936(7) 0.0751 Uani
O9 O 0.1547(7) 0.2131(6) 0.9254(4) 0.1419 Uani
N7 N 0.1234(5) 0.1211(4) 0.7588(3) 0.0619 Uani
H26 H 0.1486 0.0629 0.7092 0.0740 Uiso
C34 C 0.0354(5) 0.2049(5) 0.6357(4) 0.0500 Uani
H28 H 0.0895 0.1566 0.5904 0.0600 Uiso
C38 C 0.2893(7) 0.0054(6) 0.9409(5) 0.0841 Uani
C40 C 0.0384(5) 0.2003(5) 0.7337(4) 0.0493 Uani
C41 C 0.1701(7) 0.1258(7) 0.8519(5) 0.0770 Uani
C48 C 0.2484(7) 0.0240(6) 0.8563(5) 0.0711 Uani
H47 H 0.0896 0.4996 0.4460 0.1120 Uiso
H48 H 0.1055 0.5018 0.5448 0.1120 Uiso
O16 O 0.0995(3) 0.1294(4) 0.3893(3) 0.0702 Uani
O3 O 0.2225(4) 0.5226(4) 0.0115(3) 0.0677 Uani
C7 C 0.4645(5) 0.4291(5) 0.0390(4) 0.0506 Uani
H4 H 0.3968 0.4489 0.0885 0.0610 Uiso
C10 C 0.5121(6) 0.3044(6) 0.0359(4) 0.0568 Uani
C12 C 0.5681(6) 0.1630(6) 0.1295(5) 0.0711 Uani
H7 H 0.5633 0.1382 0.1884 0.0850 Uiso
C22 C 0.6376(7) 0.0971(6) 0.0508(5) 0.0650 Uani
H18 H 0.7296 0.0308 0.2044 0.0860 Uiso
C27 C 0.5057(6) 0.2642(6) 0.1228(4) 0.0616 Uani
H19 H 0.4587 0.3066 0.1767 0.0740 Uiso
N6 N 0.7495(4) 0.4885(4) 0.1546(3) 0.0534 Uani
H25 H 0.7054 0.5230 0.2056 0.0640 Uiso
N8 N 0.9433(4) 0.3221(4) 0.2867(3) 0.0521 Uani
C31 C 0.7134(6) 0.5034(6) 0.0629(4) 0.0529 Uani
C32 C 0.8518(5) 0.4222(5) 0.1722(4) 0.0474 Uani
C39 C 0.8517(5) 0.3850(5) 0.2613(4) 0.0497 Uani
H32 H 0.7838 0.4057 0.3047 0.0600 Uiso
C43 C 0.9547(6) 0.3878(6) 0.1085(4) 0.0645 Uani
H34 H 0.9602 0.4103 0.0486 0.0770 Uiso
C46 C 0.5765(5) 0.5421(5) 0.0606(4) 0.0521 Uani
H36 H 0.5610 0.6106 0.1207 0.0630 Uiso
C47 C 0.3643(6) 0.8695(6) 0.0386(5) 0.0701 Uani
H37 H 0.3244 0.9170 0.0948 0.0840 Uiso
C52 C 0.4251(6) 0.7660(6) 0.0446(4) 0.0639 Uani
H42 H 0.4235 0.7435 0.1046 0.0770 Uiso
Cd8 Cd 0.94632(4) 0.26265(4) 0.43316(3) 0.0520 Uani
N2 N 0.2505(4) 0.5115(4) 0.8454(3) 0.0534 Uani
H1 H 0.2946 0.4770 0.7944 0.0640 Uiso
C4 C 0.2866(6) 0.4966(6) 0.9371(4) 0.0529 Uani
C5 C 0.1482(5) 0.5778(5) 0.8278(4) 0.0474 Uani
C15 C 0.1483(5) 0.6150(5) 0.7387(4) 0.0497 Uani
H10 H 0.2162 0.5943 0.6953 0.0600 Uiso
C20 C 0.0453(6) 0.6122(6) 0.8915(4) 0.0645 Uani
H13 H 0.0398 0.5897 0.9514 0.0770 Uiso
C23 C 0.4235(5) 0.4579(5) 0.9394(4) 0.0521 Uani
H15 H 0.4390 0.3894 0.8793 0.0630 Uiso
C25 C 0.6357(6) 0.1305(6) 0.9614(5) 0.0701 Uani
H17 H 0.6756 0.0830 0.9052 0.0840 Uiso
C30 C 0.5749(6) 0.2340(6) 0.9554(4) 0.0639 Uani
H22 H 0.5765 0.2565 0.8954 0.0770 Uiso
O8 O 0.7775(4) 0.4774(4) 0.9885(3) 0.0677 Uani
C33 C 0.5355(5) 0.5709(5) 0.9610(4) 0.0506 Uani
H27 H 0.6032 0.5511 0.9115 0.0610 Uiso
C35 C 0.4879(6) 0.6956(6) 0.9641(4) 0.0568 Uani
C37 C 0.4319(6) 0.8370(6) 0.8705(5) 0.0711 Uani
H30 H 0.4367 0.8618 0.8116 0.0850 Uiso
C45 C 0.3624(7) 0.9029(6) 0.9492(5) 0.0650 Uani
H38 H 0.2704 0.9692 0.7956 0.0860 Uiso
C49 C 0.4943(6) 0.7358(6) 0.8772(4) 0.0616 Uani
H39 H 0.5413 0.6934 0.8233 0.0740 Uiso
O6 O 0.8453(7) 0.7869(6) 0.0746(4) 0.1419 Uani
N3 N 0.8766(5) 0.8789(4) 0.2412(3) 0.0619 Uani
H2 H 0.8514 0.9371 0.2908 0.0740 Uiso
C8 C 0.9646(5) 0.7951(5) 0.3643(4) 0.0500 Uani
H5 H 0.9105 0.8434 0.4096 0.0600 Uiso
C14 C 0.7107(7) 0.9946(6) 0.0591(5) 0.0841 Uani
C16 C 0.9616(5) 0.7997(5) 0.2663(4) 0.0493 Uani
C17 C 0.8299(7) 0.8742(7) 0.1481(5) 0.0770 Uani
C26 C 0.7516(7) 0.9760(6) 0.1437(5) 0.0711 Uani
O7 O 0.9516(7) 0.5190(8) 0.5064(7) 0.0751 Uani
H23 H 0.9104 0.5004 0.5540 0.1120 Uiso
H24 H 0.8945 0.4982 0.4552 0.1120 Uiso
N5 N 0.9572(4) 0.2764(4) 0.6020(3) 0.0479 Uani
C36 C 0.8784(5) 0.3433(5) 0.6690(5) 0.0571 Uani
H29 H 0.8235 0.3928 0.6471 0.0680 Uiso
C42 C 0.9569(6) 0.2704(6) 0.8010(4) 0.0629 Uani
H33 H 0.9570 0.2693 0.8681 0.0750 Uiso
C51 C 0.8752(6) 0.3422(6) 0.7662(5) 0.0639 Uani
H41 H 0.8184 0.3894 0.8096 0.0760 Uiso
O10 O 0.7143(3) 0.2767(4) 0.4438(3) 0.0569 Uani
O11 O 0.7864(3) 0.0897(4) 0.3950(3) 0.0570 Uani
O13 O 0.2284(4) 0.3048(5) 0.4582(4) 0.0783 Uani
C53 C 0.5572(4) 0.0959(5) 0.3975(4) 0.0437 Uani
C54 C 0.6938(5) 0.1578(6) 0.4143(4) 0.0464 Uani
C55 C 0.4516(5) 0.1673(6) 0.4135(4) 0.0487 Uani
H43 H 0.4670 0.2549 0.4358 0.0590 Uiso
C56 C 0.3254(5) 0.1119(6) 0.3974(4) 0.0508 Uani
C57 C 0.2107(6) 0.1901(7) 0.4174(5) 0.0607 Uani
C13 C 0.4656(5) 0.0336(6) 0.6340(4) 0.0561 Uani
H8 H 0.3959 0.0824 0.6442 0.0680 Uiso
C19 C 0.6967(5) 0.0186(6) 0.6352(4) 0.0600 Uani
H12 H 0.7817 0.0575 0.6469 0.0720 Uiso
C24 C 0.5929(6) 0.0918(6) 0.6505(5) 0.0656 Uani
H16 H 0.6083 0.1794 0.6718 0.0790 Uiso
C44 C 0.0389(6) 0.2892(6) 0.2231(4) 0.0692 Uani
H35 H 0.1023 0.2432 0.2395 0.0830 Uiso
C50 C 0.0463(6) 0.3215(6) 0.1344(4) 0.0705 Uani
H40 H 0.1145 0.2979 0.0919 0.0840 Uiso
H31 H 0.2697 0.0631 0.0009 0.1010 Uiso
H9 H 0.7303 0.9369 0.9991 0.1010 Uiso
C21 C 0.9611(6) 0.7108(6) 0.7769(4) 0.0692 Uani
H14 H 0.8977 0.7568 0.7605 0.0830 Uiso
C28 C 0.9537(6) 0.6785(6) 0.8656(4) 0.0705 Uani
H20 H 0.8855 0.7021 0.9081 0.0840 Uiso
C58 C 0.5344(5) 0.9664(6) 0.3660(4) 0.0561 Uani
H44 H 0.6041 0.9176 0.3558 0.0680 Uiso
C59 C 0.3033(5) 0.9814(6) 0.3648(4) 0.0600 Uani
H45 H 0.2183 0.9425 0.3531 0.0720 Uiso
C60 C 0.4071(6) 0.9082(6) 0.3495(5) 0.0656 Uani
H46 H 0.3917 0.8206 0.3282 0.0790 Uiso
loop_
_atom_site_aniso_label
_atom_site_aniso_U_11
_atom_site_aniso_U_22
_atom_site_aniso_U_33
_atom_site_aniso_U_23
_atom_site_aniso_U_13
_atom_site_aniso_U_12
Cd5 0.0396 0.0746 0.0521 0.0329 0.00014 0.011
O1 0.036 0.065 0.072 0.022 0.0014 0.01
O2 0.0329 0.073 0.067 0.018 0.0058 0.0207
O4 0.03 0.113 0.08 0.044 0.0008 0.019
O5 0.056 0.086 0.109 0.045 0.02 0.033
N1 0.04 0.064 0.047 0.025 0.001 0.013
C1 0.028 0.063 0.043 0.018 0.002 0.01
C2 0.036 0.069 0.038 0.019 0.006 0.012
C3 0.033 0.067 0.051 0.023 0.003 0.011
C6 0.029 0.075 0.057 0.031 0.002 0.011
C9 0.045 0.092 0.063 0.047 0.01 0.019
C11 0.048 0.061 0.069 0.026 0.001 0.017
C18 0.078 0.071 0.045 0.019 0.004 0.026
C29 0.067 0.069 0.058 0.017 0.01 0.021
N9 0.05 0.07 0.046 0.028 0.009 0.019
O18 0.068 0.073 0.084 0.028 -0.011 -0.009
O9 0.233 0.144 0.057 0.009 -0.017 0.125
N7 0.08 0.067 0.043 0.017 -0.009 0.026
C34 0.046 0.065 0.045 0.021 0.001 0.019
C38 0.126 0.072 0.061 0.021 -0.016 0.04
C40 0.05 0.052 0.049 0.016 -0.002 0.016
C41 0.113 0.08 0.043 0.014 0 0.047
C48 0.094 0.067 0.056 0.017 -0.012 0.03
O16 0.03 0.113 0.08 0.044 0.0008 0.019
O3 0.065 0.104 0.049 0.04 0.009 0.026
C7 0.054 0.057 0.051 0.029 0.005 0.014
C10 0.059 0.064 0.053 0.027 -0.011 0.005
C12 0.088 0.074 0.065 0.041 -0.012 0.013
C22 0.091 0.057 0.05 0.018 -0.015 0.016
C27 0.073 0.068 0.055 0.033 -0.005 0.017
N6 0.055 0.074 0.04 0.027 0.004 0.017
N8 0.05 0.07 0.046 0.028 0.009 0.019
C31 0.059 0.066 0.042 0.027 -0.001 0.013
C32 0.044 0.059 0.044 0.022 -0.003 0.008
C39 0.037 0.076 0.046 0.031 0.001 0.014
C43 0.064 0.095 0.046 0.033 0.011 0.024
C46 0.061 0.061 0.043 0.027 0 0.013
C47 0.091 0.076 0.054 0.03 -0.002 0.028
C52 0.08 0.074 0.048 0.03 -0.004 0.022
Cd8 0.0396 0.0746 0.0521 0.0329 0.00014 0.011
N2 0.055 0.074 0.04 0.027 0.004 0.017
C4 0.059 0.066 0.042 0.027 -0.001 0.013
C5 0.044 0.059 0.044 0.022 -0.003 0.008
C15 0.037 0.076 0.046 0.031 0.001 0.014
C20 0.064 0.095 0.046 0.033 0.011 0.024
C23 0.061 0.061 0.043 0.027 0 0.013
C25 0.091 0.076 0.054 0.03 -0.002 0.028
C30 0.08 0.074 0.048 0.03 -0.004 0.022
O8 0.065 0.104 0.049 0.04 0.009 0.026
C33 0.054 0.057 0.051 0.029 0.005 0.014
C35 0.059 0.064 0.053 0.027 -0.011 0.005
C37 0.088 0.074 0.065 0.041 -0.012 0.013
C45 0.091 0.057 0.05 0.018 -0.015 0.016
C49 0.073 0.068 0.055 0.033 -0.005 0.017
O6 0.233 0.144 0.057 0.009 -0.017 0.125
N3 0.08 0.067 0.043 0.017 -0.009 0.026
C8 0.046 0.065 0.045 0.021 0.001 0.019
C14 0.126 0.072 0.061 0.021 -0.016 0.04
C16 0.05 0.052 0.049 0.016 -0.002 0.016
C17 0.113 0.08 0.043 0.014 0 0.047
C26 0.094 0.067 0.056 0.017 -0.012 0.03
O7 0.068 0.073 0.084 0.028 -0.011 -0.009
N5 0.04 0.064 0.047 0.025 0.001 0.013
C36 0.048 0.061 0.069 0.026 0.001 0.017
C42 0.078 0.071 0.045 0.019 0.004 0.026
C51 0.067 0.069 0.058 0.017 0.01 0.021
O10 0.036 0.065 0.072 0.022 0.0014 0.01
O11 0.0329 0.073 0.067 0.018 0.0058 0.0207
O13 0.056 0.086 0.109 0.045 0.02 0.033
C53 0.028 0.063 0.043 0.018 0.002 0.01
C54 0.036 0.069 0.038 0.019 0.006 0.012
C55 0.033 0.067 0.051 0.023 0.003 0.011
C56 0.029 0.075 0.057 0.031 0.002 0.011
C57 0.045 0.092 0.063 0.047 0.01 0.019
C13 0.033 0.075 0.063 0.022 0.006 0.012
C19 0.03 0.083 0.071 0.03 -0.002 0.002
C24 0.052 0.061 0.084 0.022 0.001 0.004
C44 0.065 0.103 0.056 0.038 0.011 0.042
C50 0.063 0.11 0.052 0.035 0.018 0.038
C21 0.065 0.103 0.056 0.038 0.011 0.042
C28 0.063 0.11 0.052 0.035 0.018 0.038
C58 0.033 0.075 0.063 0.022 0.006 0.012
C59 0.03 0.083 0.071 0.03 -0.002 0.002
C60 0.052 0.061 0.084 0.022 0.001 0.004
loop_
_geom_bond_atom_site_label_1
_geom_bond_atom_site_label_2
_geom_bond_site_symmetry_1
_geom_bond_site_symmetry_2
Cd5 O1 1_555 1_555
O1 C2 1_555 1_555
O2 Cd5 1_555 1_555
O4 C9 1_555 1_555
O5 C9 1_555 1_555
N1 Cd5 1_555 1_555
C1 C2 1_555 1_555
C2 O2 1_555 1_555
C3 C1 1_555 1_555
H3 C3 1_555 1_555
C6 C3 1_555 1_555
C9 C6 1_555 1_555
C11 N1 1_555 1_555
H6 C11 1_555 1_555
H11 C18 1_555 1_555
C29 C11 1_555 1_555
H21 C29 1_555 1_555
N9 Cd5 1_555 1_555
O18 Cd5 1_555 1_555
C18 C29 1_555 1_555
O9 C41 1_555 1_555
N7 H26 1_555 1_555
C34 H28 1_555 1_555
C40 N7 1_555 1_555
C41 N7 1_555 1_555
C48 C38 1_555 1_555
H47 O18 1_555 1_555
H48 O18 1_555 1_555
C34 C40 1_555 1_555
C41 C48 1_555 1_555
C7 H4 1_555 1_555
C10 C7 1_555 1_555
C12 H7 1_555 1_555
C22 C12 1_555 1_555
C27 C10 1_555 1_555
H19 C27 1_555 1_555
N6 H25 1_555 1_555
N8 C39 1_555 1_555
C31 N6 1_555 1_555
C32 N6 1_555 1_555
C39 C32 1_555 1_555
H32 C39 1_555 1_555
C43 C32 1_555 1_555
H34 C43 1_555 1_555
C46 C7 1_555 1_555
H36 C46 1_555 1_555
H37 C47 1_555 1_555
H42 C52 1_555 1_555
Cd8 N8 1_555 1_555
C12 C27 1_555 1_555
C31 C46 1_555 1_555
C47 C52 1_555 1_555
N2 H1 1_555 1_555
N9 C15 1_555 1_555
C4 N2 1_555 1_555
C5 N2 1_555 1_555
C15 C5 1_555 1_555
H10 C15 1_555 1_555
C20 C5 1_555 1_555
H13 C20 1_555 1_555
C23 C4 1_555 1_555
H15 C23 1_555 1_555
H17 C25 1_555 1_555
H22 C30 1_555 1_555
C33 C23 1_555 1_555
H27 C33 1_555 1_555
C35 C33 1_555 1_555
C37 H30 1_555 1_555
C45 C37 1_555 1_555
C49 C35 1_555 1_555
H39 C49 1_555 1_555
C25 C30 1_555 1_555
C37 C49 1_555 1_555
O6 C17 1_555 1_555
N3 H2 1_555 1_555
H5 C8 1_555 1_555
C16 N3 1_555 1_555
C17 N3 1_555 1_555
C26 C14 1_555 1_555
H23 O7 1_555 1_555
H24 O7 1_555 1_555
Cd8 O7 1_555 1_555
C8 C16 1_555 1_555
C17 C26 1_555 1_555
C36 N5 1_555 1_555
H29 C36 1_555 1_555
H33 C42 1_555 1_555
C51 C36 1_555 1_555
H41 C51 1_555 1_555
Cd8 N5 1_555 1_555
O10 Cd8 1_555 1_555
O11 Cd8 1_555 1_555
O16 C57 1_555 1_555
O13 C57 1_555 1_555
C53 C54 1_555 1_555
C54 O10 1_555 1_555
C55 C53 1_555 1_555
H43 C55 1_555 1_555
C56 C55 1_555 1_555
C57 C56 1_555 1_555
C42 C51 1_555 1_555
O11 C54 1_555 1_555
H8 C13 1_555 1_555
H12 C19 1_555 1_555
C24 C13 1_555 1_555
H16 C24 1_555 1_555
H35 C44 1_555 1_555
H40 C50 1_555 1_555
C19 C24 1_555 1_555
C44 C50 1_555 1_555
H14 C21 1_555 1_555
H20 C28 1_555 1_555
H44 C58 1_555 1_555
H45 C59 1_555 1_555
C60 C58 1_555 1_555
H46 C60 1_555 1_555
C21 C28 1_555 1_555
C59 C60 1_555 1_555

#END
