
###############################################################################
#
# This file contains modified crystal structure data generated from the
# MOF subset of the Cambridge Structural Database (CSD) v543 
# hosted by the Cambridge Crystallographic Data Centre (CCDC).
#
# This work is licensed under the Creative Commons
# Attribution-NonCommercial-ShareAlike 4.0 International License.
# To view a copy of this license, visit
# http://creativecommons.org/licenses/by-nc-sa/4.0/
# or send a letter to
# Creative Commons, PO Box 1866, Mountain View, CA 94042, USA.
#
# CIF created using the CSD Python API on 29 September 2022
# The structure has been converted into the P1 space group
# The structure has a 3D framework
# The original CSD entry OLONAG is in the triclinic crystal system
# The framework has been calculated to contain at least 10.0% void space
# The void calculation uses a probe of radius 1.32A, grid spacing 0.4
#
###############################################################################

data_OLONAG
_chemical_formula_moiety         '(C72 H76 Ag12 N12 O44 S12 Sr6)n'
_symmetry_cell_setting           triclinic
_symmetry_space_group_name_H-M   'P 1'
_symmetry_Int_Tables_number      1
_space_group_name_Hall           'P 1'
loop_
_symmetry_equiv_pos_site_id
_symmetry_equiv_pos_as_xyz
1 x,y,z
_cell_length_a                   12.6356(3)
_cell_length_b                   12.6963(3)
_cell_length_c                   22.1755(5)
_cell_angle_alpha                84.8640(10)
_cell_angle_beta                 88.0880(10)
_cell_angle_gamma                72.9800(10)
_cell_volume                     3387.95
loop_
_atom_site_label
_atom_site_type_symbol
_atom_site_fract_x
_atom_site_fract_y
_atom_site_fract_z
Ag1 Ag 0.20449(2) 0.412970(19) 0.346931(12)
Ag2 Ag 0.293611(19) 0.606711(19) 0.300661(11)
Ag3 Ag 0.389487(19) 0.407188(19) 0.239066(10)
Ag4 Ag 0.235215(18) 0.585653(19) 0.159069(12)
Ag5 Ag 0.161622(19) 0.38580(2) 0.202038(11)
Ag6 Ag 0.03133(2) 0.575112(19) 0.273085(11)
S1 S 0.10443(6) 0.68003(6) 0.34266(3)
S2 S 0.41134(6) 0.34225(6) 0.34704(3)
S3 S 0.35207(6) 0.68636(6) 0.20290(3)
S4 S 0.34921(6) 0.29614(6) 0.15920(3)
S5 S 0.03066(5) 0.65075(6) 0.16437(3)
S6 S 0.10872(6) 0.29924(6) 0.29870(3)
O2 O 0.04679(18) 0.88001(17) 0.47768(10)
O3 O 0.51818(18) 0.21396(18) 0.46591(10)
O4 O 0.69182(18) 0.22035(18) 0.45828(12)
O5 O 0.53250(17) 0.82715(17) 0.11255(9)
O6 O 0.5585(2) 0.82779(19) 0.21112(10)
O7 O 0.58211(18) 0.16297(18) 0.07648(11)
O8 O 0.45396(17) 0.11731(16) 0.02975(9)
O21 O 0.0566(2) 0.9211(3) 0.14975(16)
N1 N 0.1467(2) 0.51327(19) 0.42924(11)
N2 N 0.4355(2) 0.5372(2) 0.36941(12)
N3 N 0.5141(2) 0.4944(2) 0.19752(11)
N4 N 0.32127(19) 0.47780(19) 0.08244(11)
N5 N 0.0285(2) 0.45696(19) 0.12901(12)
C1 C 0.1043(2) 0.6231(2) 0.41830(12)
C2 C 0.0651(2) 0.6914(2) 0.46544(12)
C3 C 0.0749(3) 0.6429(3) 0.52426(14)
H1 H 0.0523 0.6866 0.5565
C4 C 0.1179(3) 0.5302(3) 0.53507(14)
H2 H 0.1238 0.4966 0.5743
C5 C 0.1519(3) 0.4686(3) 0.48661(14)
H3 H 0.1798 0.3923 0.4938
C6 C 0.0083(2) 0.8132(2) 0.45473(12)
C7 C 0.4689(2) 0.4278(2) 0.38534(12)
C8 C 0.5527(2) 0.3825(2) 0.42864(13)
C9 C 0.6044(2) 0.4522(2) 0.45161(14)
H4 H 0.6625 0.4236 0.4787
C10 C 0.5701(3) 0.5638(3) 0.43436(15)
H5 H 0.6042 0.6115 0.4495
C11 C 0.4847(3) 0.6028(3) 0.39445(16)
H6 H 0.4594 0.6786 0.3841
C12 C 0.5900(2) 0.2622(2) 0.45193(13)
C13 C 0.4892(2) 0.6056(2) 0.19069(12)
C14 C 0.5708(2) 0.6570(2) 0.17322(12)
C15 C 0.6780(3) 0.5915(3) 0.16479(14)
H7 H 0.7339 0.6242 0.1549
C16 C 0.7023(3) 0.4780(3) 0.17100(15)
H8 H 0.7736 0.4331 0.1643
C17 C 0.6180(3) 0.4335(3) 0.18739(14)
H9 H 0.6338 0.3570 0.1917
C18 C 0.5492(2) 0.7809(2) 0.16504(13)
C19 C 0.3671(2) 0.3677(2) 0.08959(12)
C20 C 0.4273(2) 0.3087(2) 0.04289(12)
C23 C 0.3331(3) 0.5314(2) 0.02883(14)
H12 H 0.3029 0.6078 0.0243
C24 C 0.4906(2) 0.1876(2) 0.05101(12)
H15 H 0.0297 0.3132 0.1021
H35 H 0.103(3) 0.876(3) 0.1221(18)
H36 H 0.078(8) 0.987(5) 0.152(5)
Sr5 Sr 0.83904(2) 0.04292(2) 0.457278(11)
Sr6 Sr 0.16096(2) 0.95708(2) 0.542722(11)
Sr8 Sr 0.64513(2) 0.94627(2) 0.049924(11)
C21 C 0.4355(3) 0.3662(3) 0.98749(13)
H10 H 0.4731 0.3289 0.9553
C22 C 0.3874(3) 0.4793(3) 0.98052(14)
H11 H 0.3918 0.5191 0.9437
Sr9 Sr 0.35487(2) 0.05373(2) 0.950076(11)
O15 O 0.7521(3) 0.0474(3) 0.35076(12)
O18 O 0.8192(2) 0.1079(2) 0.19540(11)
H19 H 0.610(3) 0.050(4) 0.4707(18)
H23 H 0.694(4) 0.050(4) 0.345(2)
H25 H 0.833(3) 0.054(3) 0.0668(17)
H28 H 0.629(3) 0.039(4) 0.1742(17)
H29 H 0.869(3) 0.122(4) 0.2217(17)
H30 H 0.7466(18) 0.130(5) 0.212(2)
O23 O 0.95321(18) 0.11999(17) 0.52232(10)
O29 O 0.95732(18) 0.11942(18) 0.38017(10)
Sr2 Sr 0.86945(2) 0.89220(2) 0.180483(12)
O1 O 0.92064(18) 0.84395(18) 0.42449(11)
O9 O 0.81000(19) 0.77303(18) 0.01285(10)
O10 O 0.80050(16) 0.78290(15) 0.11180(9)
O12 O 0.97117(19) 0.11196(18) 0.28023(10)
O13 O 0.6473(2) 0.9971(2) 0.47503(12)
O14 O 0.8344(2) 0.9513(3) 0.56810(12)
O16 O 0.8357(2) 0.9943(2) 0.06716(11)
O17 O 0.65765(19) 0.9763(2) 0.16507(10)
O19 O 0.7742(3) 0.7937(3) 0.26028(13)
O20 O 0.9401(2) 0.9103(2) 0.28439(12)
N6 N 0.9192(2) 0.4668(2) 0.29715(11)
C25 C 0.9806(2) 0.5669(2) 0.12011(12)
C26 C 0.9003(2) 0.6111(2) 0.07505(12)
C27 C 0.8745(2) 0.5389(2) 0.03869(14)
H13 H 0.8248 0.5666 0.0071
C28 C 0.9217(3) 0.4268(3) 0.04895(16)
H14 H 0.9027 0.3778 0.0257
C29 C 0.9979(3) 0.3890(3) 0.09467(16)
C30 C 0.8346(2) 0.7314(2) 0.06546(13)
C31 C 0.9641(2) 0.3565(2) 0.30469(12)
C32 C 0.8976(2) 0.2864(2) 0.31837(12)
C33 C 0.7846(3) 0.3315(3) 0.32447(14)
H16 H 0.7395 0.2861 0.3342
C34 C 0.7394(3) 0.4444(3) 0.31606(14)
H17 H 0.6634 0.4765 0.3194
C35 C 0.8089(3) 0.5085(3) 0.30267(14)
H18 H 0.7782 0.5847 0.2971
C36 C 0.9472(2) 0.1633(2) 0.32710(13)
H20 H 0.633(4) 0.952(4) 0.456(2)
H21 H 0.802(4) 0.898(4) 0.569(2)
H22 H 0.890(4) 0.927(4) 0.583(2)
H24 H 0.794(5) 0.996(5) 0.328(3)
H26 H 0.884(4) 0.967(4) 0.037(2)
H27 H 0.623(3) 0.947(3) 0.1801(17)
H31 H 0.714(5) 0.801(5) 0.250(2)
H32 H 0.778(4) 0.784(4) 0.299(2)
H33 H 0.962(3) 0.961(4) 0.2879(18)
H34 H 0.965(4) 0.869(4) 0.310(2)
O28 O 0.54604(17) 0.88269(16) 0.97025(9)
Sr2_2 Sr 0.13055(2) 0.10780(2) 0.819517(12)
O1_2 O 0.07936(18) 0.15605(18) 0.57551(11)
O9_2 O 0.19000(19) 0.22697(18) 0.98715(10)
O10_2 O 0.19950(16) 0.21710(15) 0.88820(9)
O11 O 0.04268(18) 0.88058(18) 0.61983(10)
O12_2 O 0.02883(19) 0.88804(18) 0.71977(10)
O13_2 O 0.3527(2) 0.0029(2) 0.52497(12)
O14_2 O 0.1656(2) 0.0487(3) 0.43190(12)
O16_2 O 0.1643(2) 0.0057(2) 0.93284(11)
O17_2 O 0.34235(19) 0.0237(2) 0.83493(10)
O19_2 O 0.2258(3) 0.2063(3) 0.73972(13)
O20_2 O 0.0599(2) 0.0897(2) 0.71561(12)
N6_2 N 0.0808(2) 0.5332(2) 0.70285(11)
C25_2 C 0.0194(2) 0.4331(2) 0.87989(12)
C26_2 C 0.0997(2) 0.3889(2) 0.92495(12)
C27_2 C 0.1255(2) 0.4611(2) 0.96131(14)
H13_2 H 0.1752 0.4334 0.9929
C28_2 C 0.0783(3) 0.5732(3) 0.95105(16)
H14_2 H 0.0973 0.6222 0.9743
C29_2 C 0.0021(3) 0.6110(3) 0.90533(16)
C30_2 C 0.1654(2) 0.2686(2) 0.93454(13)
C31_2 C 0.0359(2) 0.6435(2) 0.69531(12)
C32_2 C 0.1024(2) 0.7136(2) 0.68163(12)
C33_2 C 0.2154(3) 0.6685(3) 0.67553(14)
H16_2 H 0.2605 0.7139 0.6658
C34_2 C 0.2606(3) 0.5556(3) 0.68394(14)
H17_2 H 0.3366 0.5235 0.6806
C35_2 C 0.1911(3) 0.4915(3) 0.69733(14)
H18_2 H 0.2218 0.4153 0.7029
C36_2 C 0.0528(2) 0.8367(2) 0.67290(13)
H20_2 H 0.367(4) 0.048(4) 0.544(2)
H21_2 H 0.198(4) 0.102(4) 0.431(2)
H22_2 H 0.110(4) 0.073(4) 0.417(2)
H24_2 H 0.206(5) 0.004(5) 0.672(3)
H26_2 H 0.116(4) 0.033(4) 0.963(2)
H27_2 H 0.377(3) 0.053(3) 0.8199(17)
H31_2 H 0.286(5) 0.199(5) 0.750(2)
H32_2 H 0.222(4) 0.216(4) 0.701(2)
H33_2 H 0.038(3) 0.039(4) 0.7121(18)
H34_2 H 0.035(4) 0.131(4) 0.690(2)
O25 O 0.46750(17) 0.17285(17) 0.88745(9)
O15_2 O 0.2479(3) 0.9526(3) 0.64924(12)
O18_2 O 0.1808(2) 0.8921(2) 0.80460(11)
H19_2 H 0.390(3) 0.950(4) 0.5293(18)
H23_2 H 0.306(4) 0.950(4) 0.655(2)
H25_2 H 0.167(3) 0.946(3) 0.9332(17)
H28_2 H 0.371(3) 0.961(4) 0.8258(17)
H29_2 H 0.131(3) 0.878(4) 0.7783(17)
H30_2 H 0.2534(18) 0.870(5) 0.788(2)
O24 O 0.30818(18) 0.77965(18) 0.54172(12)
O26 O 0.41789(18) 0.83703(18) 0.92352(11)
C21_2 C 0.5645(3) 0.6338(3) 0.01251(13)
H10_2 H 0.5269 0.6711 0.0447
C22_2 C 0.6126(3) 0.5207(3) 0.01948(14)
H11_2 H 0.6082 0.4809 0.0563
Ag1_2 Ag 0.79551(2) 0.587030(19) 0.653069(12)
Ag2_2 Ag 0.706389(19) 0.393289(19) 0.699339(11)
Ag3_2 Ag 0.610513(19) 0.592812(19) 0.760934(10)
Ag4_2 Ag 0.764785(18) 0.414347(19) 0.840931(12)
Ag5_2 Ag 0.838378(19) 0.61420(2) 0.797962(11)
Ag6_2 Ag 0.96867(2) 0.424888(19) 0.726915(11)
S1_2 S 0.89557(6) 0.31997(6) 0.65734(3)
S2_2 S 0.58866(6) 0.65775(6) 0.65296(3)
S3_2 S 0.64793(6) 0.31364(6) 0.79710(3)
S4_2 S 0.65079(6) 0.70386(6) 0.84080(3)
S5_2 S 0.96934(5) 0.34925(6) 0.83563(3)
S6_2 S 0.89128(6) 0.70076(6) 0.70130(3)
O3_2 O 0.48182(18) 0.78604(18) 0.53409(10)
O6_2 O 0.4415(2) 0.17221(19) 0.78888(10)
O21_2 O 0.9434(2) 0.0789(3) 0.85025(16)
N1_2 N 0.8533(2) 0.48673(19) 0.57076(11)
N2_2 N 0.5645(2) 0.4628(2) 0.63059(12)
N3_2 N 0.4859(2) 0.5056(2) 0.80248(11)
N4_2 N 0.67873(19) 0.52220(19) 0.91756(11)
N5_2 N 0.9715(2) 0.54304(19) 0.87099(12)
C1_2 C 0.8957(2) 0.3769(2) 0.58170(12)
C2_2 C 0.9349(2) 0.3086(2) 0.53456(12)
C3_2 C 0.9251(3) 0.3571(3) 0.47574(14)
H1_2 H 0.9477 0.3134 0.4435
C4_2 C 0.8821(3) 0.4698(3) 0.46493(14)
H2_2 H 0.8762 0.5034 0.4257
C5_2 C 0.8481(3) 0.5314(3) 0.51339(14)
H3_2 H 0.8202 0.6077 0.5062
C6_2 C 0.9917(2) 0.1868(2) 0.54527(12)
C7_2 C 0.5311(2) 0.5722(2) 0.61466(12)
C8_2 C 0.4473(2) 0.6175(2) 0.57136(13)
C9_2 C 0.3956(2) 0.5478(2) 0.54839(14)
H4_2 H 0.3375 0.5764 0.5213
C10_2 C 0.4299(3) 0.4362(3) 0.56564(15)
H5_2 H 0.3958 0.3885 0.5505
C11_2 C 0.5153(3) 0.3972(3) 0.60555(16)
H6_2 H 0.5406 0.3214 0.6159
C12_2 C 0.4100(2) 0.7378(2) 0.54807(13)
C13_2 C 0.5108(2) 0.3944(2) 0.80931(12)
C14_2 C 0.4292(2) 0.3430(2) 0.82678(12)
C15_2 C 0.3220(3) 0.4085(3) 0.83521(14)
H7_2 H 0.2661 0.3758 0.8451
C16_2 C 0.2977(3) 0.5220(3) 0.82900(15)
H8_2 H 0.2264 0.5669 0.8357
C17_2 C 0.3820(3) 0.5665(3) 0.81261(14)
H9_2 H 0.3662 0.6430 0.8083
C18_2 C 0.4508(2) 0.2191(2) 0.83496(13)
C19_2 C 0.6329(2) 0.6323(2) 0.91041(12)
C20_2 C 0.5727(2) 0.6913(2) 0.95711(12)
C23_2 C 0.6669(3) 0.4686(2) 0.97117(14)
H12_2 H 0.6971 0.3922 0.9757
C24_2 C 0.5094(2) 0.8124(2) 0.94899(12)
H15_2 H 0.9703 0.6868 0.8979
H35_2 H 0.897(3) 0.124(3) 0.8779(18)
H36_2 H 0.922(8) 0.013(5) 0.848(5)
O22 O 0.6746(2) 0.0586(3) 0.94723(12)
H37 H 0.706(4) 0.005(4) 0.926(2)
H38 H 0.626(4) 0.092(4) 0.9333(18)
O22_2 O 0.3254(2) 0.9414(3) 0.05277(12)
H37_2 H 0.294(4) 0.995(4) 0.074(2)
H38_2 H 0.374(4) 0.908(4) 0.0667(18)
loop_
_geom_bond_atom_site_label_1
_geom_bond_atom_site_label_2
_geom_bond_site_symmetry_1
_geom_bond_site_symmetry_2
Ag1 S2 1_555 1_555
Ag2 S1 1_555 1_555
Ag3 S2 1_555 1_555
Ag4 S3 1_555 1_555
Ag5 S4 1_555 1_555
Ag6 S1 1_555 1_555
S1 C1 1_555 1_555
S2 C7 1_555 1_555
S3 Ag2 1_555 1_555
S4 Ag3 1_555 1_555
S5 Ag4 1_555 1_555
S6 Ag1 1_555 1_555
O3 C12 1_555 1_555
O4 C12 1_555 1_555
O5 C18 1_555 1_555
O6 C18 1_555 1_555
O7 C24 1_555 1_555
O8 C24 1_555 1_555
N1 Ag1 1_555 1_555
N2 Ag2 1_555 1_555
N3 Ag3 1_555 1_555
N4 Ag4 1_555 1_555
N5 Ag5 1_555 1_555
C1 N1 1_555 1_555
C2 C1 1_555 1_555
C3 C2 1_555 1_555
H1 C3 1_555 1_555
C4 C3 1_555 1_555
H2 C4 1_555 1_555
C5 N1 1_555 1_555
H3 C5 1_555 1_555
C6 O2 1_555 1_555
C7 N2 1_555 1_555
C8 C7 1_555 1_555
C9 C8 1_555 1_555
H4 C9 1_555 1_555
C10 C9 1_555 1_555
H5 C10 1_555 1_555
C11 N2 1_555 1_555
H6 C11 1_555 1_555
C12 C8 1_555 1_555
C13 S3 1_555 1_555
C14 C13 1_555 1_555
C15 C14 1_555 1_555
H7 C15 1_555 1_555
C16 C15 1_555 1_555
H8 C16 1_555 1_555
C17 N3 1_555 1_555
H9 C17 1_555 1_555
C18 C14 1_555 1_555
C19 S4 1_555 1_555
C20 C19 1_555 1_555
C23 N4 1_555 1_555
H12 C23 1_555 1_555
C24 C20 1_555 1_555
H35 O21 1_555 1_555
H36 O21 1_555 1_555
Sr5 O4 1_555 1_555
Sr6 O2 1_555 1_555
Sr8 O5 1_555 1_555
Ag5 S6 1_555 1_555
Ag6 S5 1_555 1_555
N3 C13 1_555 1_555
N4 C19 1_555 1_555
C2 C6 1_555 1_555
C4 C5 1_555 1_555
C10 C11 1_555 1_555
C16 C17 1_555 1_555
H10 C21 1_555 1_555
C22 C21 1_555 1_555
H11 C22 1_555 1_555
O15 Sr5 1_555 1_555
H23 O15 1_555 1_555
H29 O18 1_555 1_555
H30 O18 1_555 1_555
O23 Sr5 1_555 1_555
O29 Sr5 1_555 1_555
Sr8 O9 1_555 1_555
O9 C30 1_555 1_555
O10 Sr2 1_555 1_555
O29 C36 1_555 1_555
O12 C36 1_555 1_555
O16 Sr2 1_555 1_555
O17 Sr2 1_555 1_555
O19 Sr2 1_555 1_555
O20 Sr2 1_555 1_555
C26 C25 1_555 1_555
C27 C26 1_555 1_555
H13 C27 1_555 1_555
C28 C27 1_555 1_555
H14 C28 1_555 1_555
C30 O10 1_555 1_555
C32 C31 1_555 1_555
C33 C32 1_555 1_555
H16 C33 1_555 1_555
C34 C33 1_555 1_555
H17 C34 1_555 1_555
C35 N6 1_555 1_555
H18 C35 1_555 1_555
C36 C32 1_555 1_555
H20 O13 1_555 1_555
H21 O14 1_555 1_555
H22 O14 1_555 1_555
H26 O16 1_555 1_555
H27 O17 1_555 1_555
H31 O19 1_555 1_555
H32 O19 1_555 1_555
H33 O20 1_555 1_555
H34 O20 1_555 1_555
Sr8 O10 1_555 1_555
Sr8 O16 1_555 1_555
Sr8 O17 1_555 1_555
N6 C31 1_555 1_555
C26 C30 1_555 1_555
C28 C29 1_555 1_555
C34 C35 1_555 1_555
Sr9 O9_2 1_555 1_555
O9_2 C30_2 1_555 1_555
O10_2 Sr2_2 1_555 1_555
O11 C36_2 1_555 1_555
O12_2 C36_2 1_555 1_555
O16_2 Sr2_2 1_555 1_555
O17_2 Sr2_2 1_555 1_555
O19_2 Sr2_2 1_555 1_555
O20_2 Sr2_2 1_555 1_555
C26_2 C25_2 1_555 1_555
C27_2 C26_2 1_555 1_555
H13_2 C27_2 1_555 1_555
C28_2 C27_2 1_555 1_555
H14_2 C28_2 1_555 1_555
C30_2 O10_2 1_555 1_555
C32_2 C31_2 1_555 1_555
C33_2 C32_2 1_555 1_555
H16_2 C33_2 1_555 1_555
C34_2 C33_2 1_555 1_555
H17_2 C34_2 1_555 1_555
C35_2 N6_2 1_555 1_555
H18_2 C35_2 1_555 1_555
C36_2 C32_2 1_555 1_555
H20_2 O13_2 1_555 1_555
H21_2 O14_2 1_555 1_555
H22_2 O14_2 1_555 1_555
H26_2 O16_2 1_555 1_555
H27_2 O17_2 1_555 1_555
H31_2 O19_2 1_555 1_555
H32_2 O19_2 1_555 1_555
H33_2 O20_2 1_555 1_555
H34_2 O20_2 1_555 1_555
Sr6 O11 1_555 1_555
O25 Sr9 1_555 1_555
Sr9 O10_2 1_555 1_555
Sr9 O16_2 1_555 1_555
Sr9 O17_2 1_555 1_555
N6_2 C31_2 1_555 1_555
C26_2 C30_2 1_555 1_555
C28_2 C29_2 1_555 1_555
C34_2 C35_2 1_555 1_555
O15_2 Sr6 1_555 1_555
H23_2 O15_2 1_555 1_555
H29_2 O18_2 1_555 1_555
H30_2 O18_2 1_555 1_555
O24 Sr6 1_555 1_555
H10_2 C21_2 1_555 1_555
C22_2 C21_2 1_555 1_555
H11_2 C22_2 1_555 1_555
Ag1_2 S2_2 1_555 1_555
Ag2_2 S1_2 1_555 1_555
Ag3_2 S2_2 1_555 1_555
Ag4_2 S3_2 1_555 1_555
Ag5_2 S4_2 1_555 1_555
Ag6_2 S1_2 1_555 1_555
S1_2 C1_2 1_555 1_555
S2_2 C7_2 1_555 1_555
S3_2 Ag2_2 1_555 1_555
S4_2 Ag3_2 1_555 1_555
S5_2 Ag4_2 1_555 1_555
S6_2 Ag1_2 1_555 1_555
O3_2 C12_2 1_555 1_555
O24 C12_2 1_555 1_555
O25 C18_2 1_555 1_555
O6_2 C18_2 1_555 1_555
O26 C24_2 1_555 1_555
O28 C24_2 1_555 1_555
N1_2 Ag1_2 1_555 1_555
N2_2 Ag2_2 1_555 1_555
N3_2 Ag3_2 1_555 1_555
N4_2 Ag4_2 1_555 1_555
N5_2 Ag5_2 1_555 1_555
C1_2 N1_2 1_555 1_555
C2_2 C1_2 1_555 1_555
C3_2 C2_2 1_555 1_555
H1_2 C3_2 1_555 1_555
C4_2 C3_2 1_555 1_555
H2_2 C4_2 1_555 1_555
C5_2 N1_2 1_555 1_555
H3_2 C5_2 1_555 1_555
C6_2 O23 1_555 1_555
C7_2 N2_2 1_555 1_555
C8_2 C7_2 1_555 1_555
C9_2 C8_2 1_555 1_555
H4_2 C9_2 1_555 1_555
C10_2 C9_2 1_555 1_555
H5_2 C10_2 1_555 1_555
C11_2 N2_2 1_555 1_555
H6_2 C11_2 1_555 1_555
C12_2 C8_2 1_555 1_555
C13_2 S3_2 1_555 1_555
C14_2 C13_2 1_555 1_555
C15_2 C14_2 1_555 1_555
H7_2 C15_2 1_555 1_555
C16_2 C15_2 1_555 1_555
H8_2 C16_2 1_555 1_555
C17_2 N3_2 1_555 1_555
H9_2 C17_2 1_555 1_555
C18_2 C14_2 1_555 1_555
C19_2 S4_2 1_555 1_555
C20_2 C19_2 1_555 1_555
C23_2 N4_2 1_555 1_555
H12_2 C23_2 1_555 1_555
C24_2 C20_2 1_555 1_555
H35_2 O21_2 1_555 1_555
H36_2 O21_2 1_555 1_555
Ag5_2 S6_2 1_555 1_555
Ag6_2 S5_2 1_555 1_555
N3_2 C13_2 1_555 1_555
N4_2 C19_2 1_555 1_555
C2_2 C6_2 1_555 1_555
C4_2 C5_2 1_555 1_555
C10_2 C11_2 1_555 1_555
C16_2 C17_2 1_555 1_555
H37 O22 1_555 1_555
H38 O22 1_555 1_555
H37_2 O22_2 1_555 1_555
H38_2 O22_2 1_555 1_555

#END
