
###############################################################################
#
# This file contains modified crystal structure data generated from the
# MOF subset of the Cambridge Structural Database (CSD) v543 
# hosted by the Cambridge Crystallographic Data Centre (CCDC).
#
# This work is licensed under the Creative Commons
# Attribution-NonCommercial-ShareAlike 4.0 International License.
# To view a copy of this license, visit
# http://creativecommons.org/licenses/by-nc-sa/4.0/
# or send a letter to
# Creative Commons, PO Box 1866, Mountain View, CA 94042, USA.
#
# CIF created using the CSD Python API on 29 September 2022
# The structure has been converted into the P1 space group
# The structure has a 3D framework
# The original CSD entry OLUGUZ is in the orthorhombic crystal system
# The framework has been calculated to contain at least 10.0% void space
# The void calculation uses a probe of radius 1.32A, grid spacing 0.4
#
###############################################################################

data_OLUGUZ
_chemical_formula_moiety         '(C80 H40 Cu4 N24 O32)n'
_symmetry_cell_setting           triclinic
_symmetry_space_group_name_H-M   'P 1'
_symmetry_Int_Tables_number      1
_space_group_name_Hall           'P 1'
loop_
_symmetry_equiv_pos_site_id
_symmetry_equiv_pos_as_xyz
1 x,y,z
_cell_length_a                   12.1311(5)
_cell_length_b                   14.5924(7)
_cell_length_c                   20.4168(10)
_cell_angle_alpha                90
_cell_angle_beta                 90
_cell_angle_gamma                90
_cell_volume                     3614.22
loop_
_atom_site_label
_atom_site_type_symbol
_atom_site_fract_x
_atom_site_fract_y
_atom_site_fract_z
Cu5 Cu 0.07190(4) 0.86459(3) 0.19988(2)
Cu1 Cu 0.42810(4) 0.36459(3) 0.19988(2)
O1 O 0.5285(2) 0.27149(19) 0.16361(13)
O4 O 0.6474(2) 0.26909(19) 0.24791(12)
C1 C 0.7575(3) 0.1220(2) 0.05530(19)
C2 C 0.8242(3) 0.0590(3) 0.08906(18)
H1 H 0.8714 0.0205 0.0660
C3 C 0.7508(3) 0.1163(3) 0.1907(2)
H2 H 0.7499 0.1154 0.2363
C4 C 0.6874(4) 0.1793(3) 0.08885(18)
H3 H 0.6415 0.2191 0.0660
C5 C 0.6129(3) 0.2449(2) 0.19221(18)
C7 C 0.6852(3) 0.1778(3) 0.15627(18)
C8 C 0.8195(3) 0.0547(3) 0.15512(19)
Cu3 Cu 0.57190(4) 0.36459(3) 0.30012(2)
O5 O 0.5288(2) 0.45654(19) 0.16265(13)
O6 O 0.3565(3) 0.46274(19) 0.25205(12)
O7 O 0.3526(2) 0.26909(19) 0.25209(12)
N4 N 0.3212(3) 0.3681(2) 0.11590(15)
N1 N 0.7059(3) 0.1311(3) 0.88212(17)
N2 N 0.8212(3) 0.1319(2) 0.88410(15)
N3 N 0.7611(3) 0.1259(2) 0.98509(16)
C9 C 0.8503(4) 0.1272(3) 0.94532(19)
H4 H 0.9229 0.1249 0.9598
C10 C 0.6733(4) 0.1294(3) 0.9428(2)
H5 H 0.5999 0.1303 0.9559
Cu2 Cu 0.92810(4) 0.13541(3) 0.80012(2)
O2 O 0.9712(2) 0.95654(19) 0.16265(13)
O3 O 0.8565(3) 0.96274(19) 0.24795(12)
C6 C 0.8870(3) 0.9853(3) 0.19198(17)
Cu4 Cu 0.92810(4) 0.86459(3) 0.30012(2)
Cu1_2 Cu 0.07190(4) 0.13541(3) 0.69988(2)
O6_2 O 0.1435(3) 0.03726(19) 0.75205(12)
O7_2 O 0.1474(2) 0.23091(19) 0.75209(12)
N4_2 N 0.1788(3) 0.1319(2) 0.61590(15)
O1_2 O 0.9715(2) 0.22851(19) 0.66361(13)
O2_2 O 0.5288(2) 0.54346(19) 0.66265(13)
O3_2 O 0.6435(3) 0.53726(19) 0.74795(12)
O4_2 O 0.8526(2) 0.23091(19) 0.74791(12)
N1_2 N 0.7941(3) 0.3689(3) 0.38212(17)
N2_2 N 0.6788(3) 0.3681(2) 0.38410(15)
N3_2 N 0.7389(3) 0.3741(2) 0.48509(16)
C1_2 C 0.7425(3) 0.3780(2) 0.55530(19)
C2_2 C 0.6758(3) 0.4410(3) 0.58906(18)
H1_2 H 0.6286 0.4795 0.5660
C3_2 C 0.7492(3) 0.3837(3) 0.6907(2)
H2_2 H 0.7501 0.3846 0.7363
C4_2 C 0.8126(4) 0.3207(3) 0.58885(18)
H3_2 H 0.8585 0.2809 0.5660
C5_2 C 0.8871(3) 0.2551(2) 0.69221(18)
C6_2 C 0.6130(3) 0.5147(3) 0.69198(17)
C7_2 C 0.8148(3) 0.3222(3) 0.65627(18)
C8_2 C 0.6805(3) 0.4453(3) 0.65512(19)
C9_2 C 0.6497(4) 0.3728(3) 0.44532(19)
H4_2 H 0.5771 0.3751 0.4598
C10_2 C 0.8267(4) 0.3706(3) 0.4428(2)
H5_2 H 0.9001 0.3697 0.4559
Cu4_2 Cu 0.57190(4) 0.63541(3) 0.80012(2)
Cu5_2 Cu 0.42810(4) 0.63541(3) 0.69988(2)
O5_2 O 0.9712(2) 0.04346(19) 0.66265(13)
N1_3 N 0.2059(3) 0.3689(3) 0.11788(17)
N3_3 N 0.2611(3) 0.3741(2) 0.01491(16)
C9_3 C 0.3503(4) 0.3728(3) 0.05468(19)
H4_3 H 0.4229 0.3751 0.0402
C10_3 C 0.1733(4) 0.3706(3) 0.0572(2)
H5_3 H 0.0999 0.3697 0.0441
O1_3 O 0.0285(2) 0.22851(19) 0.83639(13)
O2_3 O 0.4712(2) 0.54346(19) 0.83735(13)
O3_3 O 0.3565(3) 0.53726(19) 0.75205(12)
C1_3 C 0.2575(3) 0.3780(2) 0.94470(19)
C2_3 C 0.3242(3) 0.4410(3) 0.91094(18)
H1_3 H 0.3714 0.4795 0.9340
C3_3 C 0.2508(3) 0.3837(3) 0.8093(2)
H2_3 H 0.2499 0.3846 0.7637
C4_3 C 0.1874(4) 0.3207(3) 0.91115(18)
H3_3 H 0.1415 0.2809 0.9340
C5_3 C 0.1129(3) 0.2551(2) 0.80779(18)
C6_3 C 0.3870(3) 0.5147(3) 0.80802(17)
C7_3 C 0.1852(3) 0.3222(3) 0.84373(18)
C8_3 C 0.3195(3) 0.4453(3) 0.84488(19)
O5_3 O 0.0288(2) 0.04346(19) 0.83735(13)
O6_3 O 0.8565(3) 0.03726(19) 0.74795(12)
O1_4 O 0.4715(2) 0.27149(19) 0.33639(13)
N1_4 N 0.2941(3) 0.1311(3) 0.61788(17)
N3_4 N 0.2389(3) 0.1259(2) 0.51491(16)
C1_4 C 0.2425(3) 0.1220(2) 0.44470(19)
C2_4 C 0.1758(3) 0.0590(3) 0.41094(18)
H1_4 H 0.1286 0.0205 0.4340
C3_4 C 0.2492(3) 0.1163(3) 0.3093(2)
H2_4 H 0.2501 0.1154 0.2637
C4_4 C 0.3126(4) 0.1793(3) 0.41115(18)
H3_4 H 0.3585 0.2191 0.4340
C5_4 C 0.3871(3) 0.2449(2) 0.30779(18)
C7_4 C 0.3148(3) 0.1778(3) 0.34373(18)
C8_4 C 0.1805(3) 0.0547(3) 0.34488(19)
C9_4 C 0.1497(4) 0.1272(3) 0.55468(19)
H4_4 H 0.0771 0.1249 0.5402
C10_4 C 0.3267(4) 0.1294(3) 0.5572(2)
H5_4 H 0.4001 0.1303 0.5441
O5_4 O 0.4712(2) 0.45654(19) 0.33735(13)
O6_4 O 0.6435(3) 0.46274(19) 0.24795(12)
O2_4 O 0.0288(2) 0.95654(19) 0.33735(13)
O3_4 O 0.1435(3) 0.96274(19) 0.25205(12)
C6_4 C 0.1130(3) 0.9853(3) 0.30802(17)
C6_5 C 0.1130(3) 0.0147(3) 0.80802(17)
N1_5 N 0.2941(3) 0.8689(3) 0.11788(17)
N2_3 N 0.1788(3) 0.8681(2) 0.11590(15)
N3_5 N 0.2389(3) 0.8741(2) 0.01491(16)
C9_5 C 0.1497(4) 0.8728(3) 0.05468(19)
H4_5 H 0.0771 0.8751 0.0402
C10_5 C 0.3267(4) 0.8706(3) 0.0572(2)
H5_5 H 0.4001 0.8697 0.0441
O1_5 O 0.4715(2) 0.72851(19) 0.83639(13)
O4_3 O 0.3526(2) 0.73091(19) 0.75209(12)
C1_5 C 0.2425(3) 0.8780(2) 0.94470(19)
C2_5 C 0.1758(3) 0.9410(3) 0.91094(18)
H1_5 H 0.1286 0.9795 0.9340
C3_5 C 0.2492(3) 0.8837(3) 0.8093(2)
H2_5 H 0.2501 0.8846 0.7637
C4_5 C 0.3126(4) 0.8207(3) 0.91115(18)
H3_5 H 0.3585 0.7809 0.9340
C5_5 C 0.3871(3) 0.7551(2) 0.80779(18)
C7_5 C 0.3148(3) 0.8222(3) 0.84373(18)
C8_5 C 0.1805(3) 0.9453(3) 0.84488(19)
O7_3 O 0.6474(2) 0.73091(19) 0.74791(12)
N4_3 N 0.6788(3) 0.6319(2) 0.88410(15)
O1_6 O 0.0285(2) 0.77149(19) 0.33639(13)
O4_4 O 0.1474(2) 0.76909(19) 0.25209(12)
N1_6 N 0.2059(3) 0.6311(3) 0.61788(17)
N2_4 N 0.3212(3) 0.6319(2) 0.61590(15)
N3_6 N 0.2611(3) 0.6259(2) 0.51491(16)
C1_6 C 0.2575(3) 0.6220(2) 0.44470(19)
C2_6 C 0.3242(3) 0.5590(3) 0.41094(18)
H1_6 H 0.3714 0.5205 0.4340
C3_6 C 0.2508(3) 0.6163(3) 0.3093(2)
H2_6 H 0.2499 0.6154 0.2637
C4_6 C 0.1874(4) 0.6793(3) 0.41115(18)
H3_6 H 0.1415 0.7191 0.4340
C5_6 C 0.1129(3) 0.7449(2) 0.30779(18)
C6_6 C 0.3870(3) 0.4853(3) 0.30802(17)
C7_6 C 0.1852(3) 0.6778(3) 0.34373(18)
C8_6 C 0.3195(3) 0.5547(3) 0.34488(19)
C9_6 C 0.3503(4) 0.6272(3) 0.55468(19)
H4_6 H 0.4229 0.6249 0.5402
C10_6 C 0.1733(4) 0.6294(3) 0.5572(2)
H5_6 H 0.0999 0.6303 0.5441
O7_4 O 0.8526(2) 0.76909(19) 0.24791(12)
N4_4 N 0.8212(3) 0.8681(2) 0.38410(15)
O1_7 O 0.9715(2) 0.77149(19) 0.16361(13)
C1_7 C 0.7425(3) 0.6220(2) 0.05530(19)
C2_7 C 0.6758(3) 0.5590(3) 0.08906(18)
H1_7 H 0.6286 0.5205 0.0660
C3_7 C 0.7492(3) 0.6163(3) 0.1907(2)
H2_7 H 0.7501 0.6154 0.2363
C4_7 C 0.8126(4) 0.6793(3) 0.08885(18)
H3_7 H 0.8585 0.7191 0.0660
C5_7 C 0.8871(3) 0.7449(2) 0.19221(18)
C6_7 C 0.6130(3) 0.4853(3) 0.19198(17)
C7_7 C 0.8148(3) 0.6778(3) 0.15627(18)
C8_7 C 0.6805(3) 0.5547(3) 0.15512(19)
N1_7 N 0.7941(3) 0.6311(3) 0.88212(17)
N3_7 N 0.7389(3) 0.6259(2) 0.98509(16)
C9_7 C 0.6497(4) 0.6272(3) 0.94532(19)
H4_7 H 0.5771 0.6249 0.9598
C10_7 C 0.8267(4) 0.6294(3) 0.9428(2)
H5_7 H 0.9001 0.6303 0.9559
C6_8 C 0.8870(3) 0.0147(3) 0.69198(17)
O1_8 O 0.5285(2) 0.72851(19) 0.66361(13)
N1_8 N 0.7059(3) 0.8689(3) 0.38212(17)
N3_8 N 0.7611(3) 0.8741(2) 0.48509(16)
C1_8 C 0.7575(3) 0.8780(2) 0.55530(19)
C2_8 C 0.8242(3) 0.9410(3) 0.58906(18)
H1_8 H 0.8714 0.9795 0.5660
C3_8 C 0.7508(3) 0.8837(3) 0.6907(2)
H2_8 H 0.7499 0.8846 0.7363
C4_8 C 0.6874(4) 0.8207(3) 0.58885(18)
H3_8 H 0.6415 0.7809 0.5660
C5_8 C 0.6129(3) 0.7551(2) 0.69221(18)
C7_8 C 0.6852(3) 0.8222(3) 0.65627(18)
C8_8 C 0.8195(3) 0.9453(3) 0.65512(19)
C9_8 C 0.8503(4) 0.8728(3) 0.44532(19)
H4_8 H 0.9229 0.8751 0.4598
C10_8 C 0.6733(4) 0.8706(3) 0.4428(2)
H5_8 H 0.5999 0.8697 0.4559
loop_
_geom_bond_atom_site_label_1
_geom_bond_atom_site_label_2
_geom_bond_site_symmetry_1
_geom_bond_site_symmetry_2
Cu1 O1 1_555 1_555
O1 C5 1_555 1_555
O4 C5 1_555 1_555
C1 C2 1_555 1_555
C2 H1 1_555 1_555
C3 H2 1_555 1_555
C4 C1 1_555 1_555
H3 C4 1_555 1_555
C5 C7 1_555 1_555
C7 C3 1_555 1_555
C8 C2 1_555 1_555
Cu3 Cu1 1_555 1_555
O5 Cu1 1_555 1_555
O6 Cu1 1_555 1_555
O7 Cu1 1_555 1_555
N4 Cu1 1_555 1_555
O4 Cu3 1_555 1_555
C3 C8 1_555 1_555
C4 C7 1_555 1_555
N1 N2 1_555 1_555
N2 C9 1_555 1_555
C9 N3 1_555 1_555
H4 C9 1_555 1_555
C10 N1 1_555 1_555
H5 C10 1_555 1_555
Cu2 N2 1_555 1_555
N3 C10 1_555 1_555
O2 C6 1_555 1_555
O3 C6 1_555 1_555
Cu4 O3 1_555 1_555
O6_2 Cu1_2 1_555 1_555
O7_2 Cu1_2 1_555 1_555
N4_2 Cu1_2 1_555 1_555
O1_2 C5_2 1_555 1_555
O2_2 C6_2 1_555 1_555
O3_2 C6_2 1_555 1_555
O4_2 C5_2 1_555 1_555
N1_2 N2_2 1_555 1_555
N2_2 C9_2 1_555 1_555
N3_2 C1_2 1_555 1_555
C1_2 C2_2 1_555 1_555
C2_2 H1_2 1_555 1_555
C3_2 H2_2 1_555 1_555
C4_2 C1_2 1_555 1_555
H3_2 C4_2 1_555 1_555
C5_2 C7_2 1_555 1_555
C6_2 C8_2 1_555 1_555
C7_2 C3_2 1_555 1_555
C8_2 C2_2 1_555 1_555
C9_2 N3_2 1_555 1_555
H4_2 C9_2 1_555 1_555
C10_2 N1_2 1_555 1_555
H5_2 C10_2 1_555 1_555
Cu3 N2_2 1_555 1_555
Cu4_2 O3_2 1_555 1_555
Cu5_2 O2_2 1_555 1_555
O4_2 Cu2 1_555 1_555
N3_2 C10_2 1_555 1_555
C3_2 C8_2 1_555 1_555
C4_2 C7_2 1_555 1_555
Cu4_2 Cu5_2 1_555 1_555
N1_3 N4 1_555 1_555
N4 C9_3 1_555 1_555
C9_3 N3_3 1_555 1_555
H4_3 C9_3 1_555 1_555
C10_3 N1_3 1_555 1_555
H5_3 C10_3 1_555 1_555
N3_3 C10_3 1_555 1_555
O1_3 C5_3 1_555 1_555
O2_3 C6_3 1_555 1_555
O3_3 C6_3 1_555 1_555
O7_2 C5_3 1_555 1_555
C1_3 C2_3 1_555 1_555
C2_3 H1_3 1_555 1_555
C3_3 H2_3 1_555 1_555
C4_3 C1_3 1_555 1_555
H3_3 C4_3 1_555 1_555
C5_3 C7_3 1_555 1_555
C6_3 C8_3 1_555 1_555
C7_3 C3_3 1_555 1_555
C8_3 C2_3 1_555 1_555
Cu5_2 O3_3 1_555 1_555
Cu4_2 O2_3 1_555 1_555
C3_3 C8_3 1_555 1_555
C4_3 C7_3 1_555 1_555
O6_3 Cu2 1_555 1_555
Cu3 O1_4 1_555 1_555
O1_4 C5_4 1_555 1_555
O7 C5_4 1_555 1_555
N1_4 N4_2 1_555 1_555
N4_2 C9_4 1_555 1_555
N3_4 C1_4 1_555 1_555
C1_4 C2_4 1_555 1_555
C2_4 H1_4 1_555 1_555
C3_4 H2_4 1_555 1_555
C4_4 C1_4 1_555 1_555
H3_4 C4_4 1_555 1_555
C5_4 C7_4 1_555 1_555
C7_4 C3_4 1_555 1_555
C8_4 C2_4 1_555 1_555
C9_4 N3_4 1_555 1_555
H4_4 C9_4 1_555 1_555
C10_4 N1_4 1_555 1_555
H5_4 C10_4 1_555 1_555
O5_4 Cu3 1_555 1_555
O6_4 Cu3 1_555 1_555
N3_4 C10_4 1_555 1_555
C3_4 C8_4 1_555 1_555
C4_4 C7_4 1_555 1_555
O2_4 C6_4 1_555 1_555
O3_4 C6_4 1_555 1_555
Cu5 O3_4 1_555 1_555
O5_3 C6_5 1_555 1_555
O6_2 C6_5 1_555 1_555
N1_5 N2_3 1_555 1_555
N2_3 C9_5 1_555 1_555
C9_5 N3_5 1_555 1_555
H4_5 C9_5 1_555 1_555
C10_5 N1_5 1_555 1_555
H5_5 C10_5 1_555 1_555
Cu5 N2_3 1_555 1_555
N3_5 C10_5 1_555 1_555
Cu4_2 O1_5 1_555 1_555
O1_5 C5_5 1_555 1_555
O4_3 C5_5 1_555 1_555
C1_5 C2_5 1_555 1_555
C2_5 H1_5 1_555 1_555
C3_5 H2_5 1_555 1_555
C4_5 C1_5 1_555 1_555
H3_5 C4_5 1_555 1_555
C5_5 C7_5 1_555 1_555
C7_5 C3_5 1_555 1_555
C8_5 C2_5 1_555 1_555
O7_3 Cu4_2 1_555 1_555
N4_3 Cu4_2 1_555 1_555
O4_3 Cu5_2 1_555 1_555
C3_5 C8_5 1_555 1_555
C4_5 C7_5 1_555 1_555
O1_6 C5_6 1_555 1_555
O5_4 C6_6 1_555 1_555
O6 C6_6 1_555 1_555
O4_4 C5_6 1_555 1_555
N1_6 N2_4 1_555 1_555
N2_4 C9_6 1_555 1_555
N3_6 C1_6 1_555 1_555
C1_6 C2_6 1_555 1_555
C2_6 H1_6 1_555 1_555
C3_6 H2_6 1_555 1_555
C4_6 C1_6 1_555 1_555
H3_6 C4_6 1_555 1_555
C5_6 C7_6 1_555 1_555
C6_6 C8_6 1_555 1_555
C7_6 C3_6 1_555 1_555
C8_6 C2_6 1_555 1_555
C9_6 N3_6 1_555 1_555
H4_6 C9_6 1_555 1_555
C10_6 N1_6 1_555 1_555
H5_6 C10_6 1_555 1_555
Cu5_2 N2_4 1_555 1_555
O4_4 Cu5 1_555 1_555
N3_6 C10_6 1_555 1_555
C3_6 C8_6 1_555 1_555
C4_6 C7_6 1_555 1_555
O7_4 Cu4 1_555 1_555
N4_4 Cu4 1_555 1_555
O1_7 C5_7 1_555 1_555
O5 C6_7 1_555 1_555
O6_4 C6_7 1_555 1_555
O7_4 C5_7 1_555 1_555
C1_7 C2_7 1_555 1_555
C2_7 H1_7 1_555 1_555
C3_7 H2_7 1_555 1_555
C4_7 C1_7 1_555 1_555
H3_7 C4_7 1_555 1_555
C5_7 C7_7 1_555 1_555
C6_7 C8_7 1_555 1_555
C7_7 C3_7 1_555 1_555
C8_7 C2_7 1_555 1_555
C3_7 C8_7 1_555 1_555
C4_7 C7_7 1_555 1_555
N1_7 N4_3 1_555 1_555
N4_3 C9_7 1_555 1_555
C9_7 N3_7 1_555 1_555
H4_7 C9_7 1_555 1_555
C10_7 N1_7 1_555 1_555
H5_7 C10_7 1_555 1_555
N3_7 C10_7 1_555 1_555
O5_2 C6_8 1_555 1_555
O6_3 C6_8 1_555 1_555
Cu5_2 O1_8 1_555 1_555
O1_8 C5_8 1_555 1_555
O7_3 C5_8 1_555 1_555
N1_8 N4_4 1_555 1_555
N4_4 C9_8 1_555 1_555
N3_8 C1_8 1_555 1_555
C1_8 C2_8 1_555 1_555
C2_8 H1_8 1_555 1_555
C3_8 H2_8 1_555 1_555
C4_8 C1_8 1_555 1_555
H3_8 C4_8 1_555 1_555
C5_8 C7_8 1_555 1_555
C7_8 C3_8 1_555 1_555
C8_8 C2_8 1_555 1_555
C9_8 N3_8 1_555 1_555
H4_8 C9_8 1_555 1_555
C10_8 N1_8 1_555 1_555
H5_8 C10_8 1_555 1_555
N3_8 C10_8 1_555 1_555
C3_8 C8_8 1_555 1_555
C4_8 C7_8 1_555 1_555

#END
