
###############################################################################
#
# This file contains modified crystal structure data generated from the
# MOF subset of the Cambridge Structural Database (CSD) v543 
# hosted by the Cambridge Crystallographic Data Centre (CCDC).
#
# This work is licensed under the Creative Commons
# Attribution-NonCommercial-ShareAlike 4.0 International License.
# To view a copy of this license, visit
# http://creativecommons.org/licenses/by-nc-sa/4.0/
# or send a letter to
# Creative Commons, PO Box 1866, Mountain View, CA 94042, USA.
#
# CIF created using the CSD Python API on 29 September 2022
# The structure has been converted into the P1 space group
# The structure has a 3D framework
# The original CSD entry OLUROF is in the monoclinic crystal system
# The framework has been calculated to contain at least 10.0% void space
# The void calculation uses a probe of radius 1.32A, grid spacing 0.4
#
###############################################################################

data_OLUROF
_chemical_formula_moiety         '(C64 H40 Cu6 O32)n'
_symmetry_cell_setting           triclinic
_symmetry_space_group_name_H-M   'P 1'
_symmetry_Int_Tables_number      1
_space_group_name_Hall           'P 1'
loop_
_symmetry_equiv_pos_site_id
_symmetry_equiv_pos_as_xyz
1 x,y,z
_cell_length_a                   7.8556(7)
_cell_length_b                   10.7647(10)
_cell_length_c                   22.541(2)
_cell_angle_alpha                90
_cell_angle_beta                 97.524(9)
_cell_angle_gamma                90
_cell_volume                     1889.73
loop_
_atom_site_label
_atom_site_type_symbol
_atom_site_fract_x
_atom_site_fract_y
_atom_site_fract_z
Cu7 Cu 0.12970(6) 0.99398(4) 0.45346(2)
C4 C 0.3925(5) 0.1033(3) 0.06037(16)
C5 C 0.5663(5) 0.1058(3) 0.08159(16)
H2 H 0.623721 0.181502 0.084987
C8 C 0.3021(5) 0.2223(3) 0.04252(17)
C9 C 0.8471(5) 0.0019(4) 0.11711(17)
H5 H 0.881241 0.087407 0.125266
C11 C 0.7910(5) 0.0782(4) 0.23658(18)
H6 H 0.755843 0.134745 0.206262
C12 C 0.7654(5) 0.1035(4) 0.29477(18)
H7 H 0.710578 0.176942 0.302940
C13 C 0.8185(5) 0.0233(3) 0.34109(17)
C16 C 0.7812(5) 0.0489(3) 0.40330(17)
O3 O 0.1478(3) 0.2202(2) 0.02071(13)
O4 O 0.3950(3) 0.3166(2) 0.05081(13)
O6 O 0.6590(3) 0.1172(2) 0.41001(12)
Cu3 Cu 0.51702(6) 0.13708(4) 0.48548(2)
Cu6 Cu 0.37030(6) 0.49398(4) 0.04654(2)
Cu8 Cu 0.87030(6) 0.00602(4) 0.54654(2)
Cu5 Cu 0.01702(6) 0.36292(4) 0.98548(2)
C1 C 0.3061(5) 0.7606(3) 0.06085(17)
C2 C 0.3969(5) 0.8813(3) 0.07080(16)
C3 C 0.3066(5) 0.9906(3) 0.05487(16)
H1 H 0.190063 0.987809 0.040719
C6 C 0.6559(5) 0.9978(3) 0.09782(16)
C7 C 0.5688(5) 0.8862(3) 0.09193(16)
H3 H 0.627730 0.812920 0.102474
H4 H 0.905352 0.972884 0.084326
C10 C 0.8699(5) 0.9674(4) 0.22352(18)
C14 C 0.9003(5) 0.9144(4) 0.32781(18)
H8 H 0.938338 0.859017 0.358365
C15 C 0.9256(5) 0.8875(4) 0.27022(18)
H9 H 0.981318 0.814300 0.262322
O1 O 0.1489(4) 0.7625(2) 0.04307(15)
O2 O 0.3957(3) 0.6651(2) 0.07145(14)
O5 O 0.8748(3) 0.9943(2) 0.44696(11)
O7 O 0.9024(3) 0.9286(3) 0.16895(12)
O8 O 0.1237(4) 0.4913(2) 0.04259(12)
H10 H 0.105(6) 0.473(4) 0.069(2)
O11 O 0.6252(3) 0.4943(2) 0.05304(11)
O12 O 0.3748(3) 0.5057(2) 0.94696(11)
Cu1 Cu 0.98298(6) 0.63708(4) 0.01452(2)
O13 O 0.8410(3) 0.6172(2) 0.08999(12)
O9 O 0.8522(3) 0.7798(2) 0.97929(13)
O14 O 0.8763(4) 0.5087(2) 0.95741(12)
C1_2 C 0.1939(5) 0.2606(3) 0.43915(17)
C2_2 C 0.1031(5) 0.3813(3) 0.42920(16)
C3_2 C 0.1934(5) 0.4906(3) 0.44513(16)
H1_2 H 0.309937 0.487809 0.459281
C4_2 C 0.1075(5) 0.6033(3) 0.43963(16)
C8_2 C 0.1979(5) 0.7223(3) 0.45748(17)
O1_2 O 0.3511(4) 0.2625(2) 0.45693(15)
O2_2 O 0.1043(3) 0.1651(2) 0.42855(14)
O3_2 O 0.3522(3) 0.7202(2) 0.47929(13)
O4_2 O 0.1050(3) 0.8166(2) 0.44919(13)
Cu5_2 Cu 0.48298(6) 0.86292(4) 0.51452(2)
O9_2 O 0.6478(3) 0.2798(2) 0.52071(13)
O12_2 O 0.1252(3) 0.0057(2) 0.55304(11)
O14_2 O 0.6237(4) 0.0087(2) 0.54259(12)
O8_2 O 0.3763(4) 0.9913(2) 0.45741(12)
H10_2 H 0.395(6) 0.973(4) 0.431(2)
C5_2 C 0.9337(5) 0.6058(3) 0.41841(16)
H2_2 H 0.876279 0.681502 0.415013
C6_2 C 0.8441(5) 0.4978(3) 0.40218(16)
C7_2 C 0.9312(5) 0.3862(3) 0.40807(16)
H3_2 H 0.872270 0.312920 0.397526
C9_2 C 0.6529(5) 0.5019(4) 0.38289(17)
H4_2 H 0.594648 0.472884 0.415674
H5_2 H 0.618759 0.587407 0.374734
C10_2 C 0.6301(5) 0.4674(4) 0.27648(18)
C11_2 C 0.7090(5) 0.5782(4) 0.26342(18)
H6_2 H 0.744157 0.634745 0.293738
C12_2 C 0.7346(5) 0.6035(4) 0.20523(18)
H7_2 H 0.789422 0.676942 0.197060
C13_2 C 0.6815(5) 0.5233(3) 0.15891(17)
C14_2 C 0.5997(5) 0.4144(4) 0.17219(18)
H8_2 H 0.561662 0.359017 0.141635
C15_2 C 0.5744(5) 0.3875(4) 0.22978(18)
H9_2 H 0.518682 0.314300 0.237678
C16_2 C 0.7188(5) 0.5489(3) 0.09670(17)
O7_2 O 0.5976(3) 0.4286(3) 0.33105(12)
Cu8_2 Cu 0.62970(6) 0.50602(4) 0.95346(2)
O13_2 O 0.1590(3) 0.3828(2) 0.91001(12)
C1_3 C 0.6939(5) 0.2394(3) 0.93915(17)
C2_3 C 0.6031(5) 0.1187(3) 0.92920(16)
C3_3 C 0.6934(5) 0.0094(3) 0.94513(16)
H1_3 H 0.809937 0.012191 0.959281
C6_3 C 0.3441(5) 0.0022(3) 0.90218(16)
C7_3 C 0.4312(5) 0.1138(3) 0.90807(16)
H3_3 H 0.372270 0.187080 0.897526
H4_3 H 0.094648 0.027116 0.915674
C10_3 C 0.1301(5) 0.0326(4) 0.77648(18)
C14_3 C 0.0997(5) 0.0856(4) 0.67219(18)
H8_3 H 0.061662 0.140983 0.641635
C15_3 C 0.0744(5) 0.1125(4) 0.72978(18)
H9_3 H 0.018682 0.185700 0.737678
O1_3 O 0.8511(4) 0.2375(2) 0.95693(15)
O2_3 O 0.6043(3) 0.3349(2) 0.92855(14)
O7_3 O 0.0976(3) 0.0714(3) 0.83105(12)
H10_3 H 0.895(6) 0.527(4) 0.931(2)
O10 O 0.6050(3) 0.6834(2) 0.94919(13)
C4_3 C 0.6075(5) 0.8967(3) 0.93963(16)
C5_3 C 0.4337(5) 0.8942(3) 0.91841(16)
H2_3 H 0.376279 0.818498 0.915013
C8_3 C 0.6979(5) 0.7777(3) 0.95748(17)
C9_3 C 0.1529(5) 0.9981(4) 0.88289(17)
H5_3 H 0.118759 0.912593 0.874734
C11_3 C 0.2090(5) 0.9218(4) 0.76342(18)
H6_3 H 0.244157 0.865255 0.793738
C12_3 C 0.2346(5) 0.8965(4) 0.70523(18)
H7_3 H 0.289422 0.823058 0.697060
C13_3 C 0.1815(5) 0.9767(3) 0.65891(17)
C16_3 C 0.2188(5) 0.9511(3) 0.59670(17)
O6_2 O 0.3410(3) 0.8828(2) 0.58999(12)
C5_4 C 0.0663(5) 0.3942(3) 0.58159(16)
H2_4 H 0.123721 0.318498 0.584987
C6_4 C 0.1559(5) 0.5022(3) 0.59782(16)
C7_4 C 0.0688(5) 0.6138(3) 0.59193(16)
H3_4 H 0.127730 0.687080 0.602474
C9_4 C 0.3471(5) 0.4981(4) 0.61711(17)
H4_4 H 0.405352 0.527116 0.584326
H5_4 H 0.381241 0.412593 0.625266
C10_4 C 0.3699(5) 0.5326(4) 0.72352(18)
C11_4 C 0.2910(5) 0.4218(4) 0.73658(18)
H6_4 H 0.255843 0.365255 0.706262
C12_4 C 0.2654(5) 0.3965(4) 0.79477(18)
H7_4 H 0.210578 0.323058 0.802940
C13_4 C 0.3185(5) 0.4767(3) 0.84109(17)
C14_4 C 0.4003(5) 0.5856(4) 0.82781(18)
H8_4 H 0.438338 0.640983 0.858365
C15_4 C 0.4256(5) 0.6125(4) 0.77022(18)
H9_4 H 0.481318 0.685700 0.762322
C16_4 C 0.2812(5) 0.4511(3) 0.90330(17)
O7_4 O 0.4024(3) 0.5714(3) 0.66895(12)
H10_4 H 0.605(6) 0.027(4) 0.569(2)
O10_2 O 0.8950(3) 0.1834(2) 0.55081(13)
C1_4 C 0.8061(5) 0.7394(3) 0.56085(17)
C2_4 C 0.8969(5) 0.6187(3) 0.57080(16)
C3_4 C 0.8066(5) 0.5094(3) 0.55487(16)
H1_4 H 0.690063 0.512191 0.540719
C4_4 C 0.8925(5) 0.3967(3) 0.56037(16)
C8_4 C 0.8021(5) 0.2777(3) 0.54252(17)
O1_4 O 0.6489(4) 0.7375(2) 0.54307(15)
O2_4 O 0.8957(3) 0.8349(2) 0.57145(14)
loop_
_geom_bond_atom_site_label_1
_geom_bond_atom_site_label_2
_geom_bond_site_symmetry_1
_geom_bond_site_symmetry_2
C5 C4 1_555 1_555
H2 C5 1_555 1_555
C8 C4 1_555 1_555
H5 C9 1_555 1_555
C11 H6 1_555 1_555
C12 C11 1_555 1_555
H7 C12 1_555 1_555
C13 C12 1_555 1_555
C16 C13 1_555 1_555
O3 C8 1_555 1_555
O4 C8 1_555 1_555
O6 C16 1_555 1_555
Cu3 O6 1_555 1_555
Cu6 O4 1_555 1_555
Cu6 O2 1_555 1_555
C1 C2 1_555 1_555
C2 C3 1_555 1_555
C3 H1 1_555 1_555
C7 C2 1_555 1_555
H3 C7 1_555 1_555
H8 C14 1_555 1_555
C15 C10 1_555 1_555
H9 C15 1_555 1_555
O1 C1 1_555 1_555
O2 C1 1_555 1_555
H10 O8 1_555 1_555
O11 Cu6 1_555 1_555
Cu6 O8 1_555 1_555
C6 C7 1_555 1_555
C10 O7 1_555 1_555
C14 C15 1_555 1_555
O13 Cu1 1_555 1_555
Cu3 O1_2 1_555 1_555
C1_2 C2_2 1_555 1_555
C2_2 C3_2 1_555 1_555
C3_2 H1_2 1_555 1_555
C4_2 C3_2 1_555 1_555
C8_2 C4_2 1_555 1_555
O1_2 C1_2 1_555 1_555
O2_2 C1_2 1_555 1_555
O3_2 C8_2 1_555 1_555
O4_2 C8_2 1_555 1_555
Cu5_2 O3_2 1_555 1_555
Cu7 O4_2 1_555 1_555
O9_2 Cu3 1_555 1_555
O14_2 Cu3 1_555 1_555
H10_2 O8_2 1_555 1_555
Cu5_2 O8_2 1_555 1_555
Cu7 O8_2 1_555 1_555
H2_2 C5_2 1_555 1_555
C6_2 C5_2 1_555 1_555
H3_2 C7_2 1_555 1_555
C9_2 C6_2 1_555 1_555
H4_2 C9_2 1_555 1_555
H5_2 C9_2 1_555 1_555
C10_2 C11_2 1_555 1_555
C11_2 H6_2 1_555 1_555
C12_2 C11_2 1_555 1_555
H7_2 C12_2 1_555 1_555
C13_2 C12_2 1_555 1_555
C14_2 C13_2 1_555 1_555
H8_2 C14_2 1_555 1_555
C15_2 C10_2 1_555 1_555
H9_2 C15_2 1_555 1_555
C16_2 C13_2 1_555 1_555
O11 C16_2 1_555 1_555
O13 C16_2 1_555 1_555
O7_2 C9_2 1_555 1_555
C6_2 C7_2 1_555 1_555
C10_2 O7_2 1_555 1_555
C14_2 C15_2 1_555 1_555
O13_2 Cu5 1_555 1_555
Cu8_2 O2_3 1_555 1_555
C1_3 C2_3 1_555 1_555
C2_3 C3_3 1_555 1_555
C3_3 H1_3 1_555 1_555
C7_3 C2_3 1_555 1_555
H3_3 C7_3 1_555 1_555
H8_3 C14_3 1_555 1_555
C15_3 C10_3 1_555 1_555
H9_3 C15_3 1_555 1_555
O1_3 C1_3 1_555 1_555
O2_3 C1_3 1_555 1_555
H10_3 O14 1_555 1_555
O10 Cu8_2 1_555 1_555
O12 Cu8_2 1_555 1_555
Cu8_2 O14 1_555 1_555
C6_3 C7_3 1_555 1_555
C10_3 O7_3 1_555 1_555
C14_3 C15_3 1_555 1_555
C5_3 C4_3 1_555 1_555
H2_3 C5_3 1_555 1_555
C8_3 C4_3 1_555 1_555
H5_3 C9_3 1_555 1_555
C11_3 H6_3 1_555 1_555
C12_3 C11_3 1_555 1_555
H7_3 C12_3 1_555 1_555
C13_3 C12_3 1_555 1_555
C16_3 C13_3 1_555 1_555
O9 C8_3 1_555 1_555
O10 C8_3 1_555 1_555
O6_2 C16_3 1_555 1_555
Cu5_2 O6_2 1_555 1_555
H2_4 C5_4 1_555 1_555
C6_4 C5_4 1_555 1_555
H3_4 C7_4 1_555 1_555
C9_4 C6_4 1_555 1_555
H4_4 C9_4 1_555 1_555
H5_4 C9_4 1_555 1_555
C10_4 C11_4 1_555 1_555
C11_4 H6_4 1_555 1_555
C12_4 C11_4 1_555 1_555
H7_4 C12_4 1_555 1_555
C13_4 C12_4 1_555 1_555
C14_4 C13_4 1_555 1_555
H8_4 C14_4 1_555 1_555
C15_4 C10_4 1_555 1_555
H9_4 C15_4 1_555 1_555
C16_4 C13_4 1_555 1_555
O12 C16_4 1_555 1_555
O13_2 C16_4 1_555 1_555
O7_4 C9_4 1_555 1_555
C6_4 C7_4 1_555 1_555
C10_4 O7_4 1_555 1_555
C14_4 C15_4 1_555 1_555
H10_4 O14_2 1_555 1_555
O10_2 Cu8 1_555 1_555
Cu8 O14_2 1_555 1_555
Cu5_2 O1_4 1_555 1_555
C1_4 C2_4 1_555 1_555
C2_4 C3_4 1_555 1_555
C3_4 H1_4 1_555 1_555
C4_4 C3_4 1_555 1_555
C8_4 C4_4 1_555 1_555
O1_4 C1_4 1_555 1_555
O2_4 C1_4 1_555 1_555
O9_2 C8_4 1_555 1_555
O10_2 C8_4 1_555 1_555

#END
