
###############################################################################
#
# This file contains modified crystal structure data generated from the
# MOF subset of the Cambridge Structural Database (CSD) v543 
# hosted by the Cambridge Crystallographic Data Centre (CCDC).
#
# This work is licensed under the Creative Commons
# Attribution-NonCommercial-ShareAlike 4.0 International License.
# To view a copy of this license, visit
# http://creativecommons.org/licenses/by-nc-sa/4.0/
# or send a letter to
# Creative Commons, PO Box 1866, Mountain View, CA 94042, USA.
#
# CIF created using the CSD Python API on 29 September 2022
# The structure has been converted into the P1 space group
# The structure has a 3D framework
# The original CSD entry OLUZIH is in the orthorhombic crystal system
# The framework has been calculated to contain at least 10.0% void space
# The void calculation uses a probe of radius 1.32A, grid spacing 0.4
# H atom positions have been added when not included in the experimental data
#
###############################################################################

data_OLUZIH
_chemical_formula_moiety         '(C72 H76 Ni12 O64 P16)n'
_symmetry_cell_setting           triclinic
_symmetry_space_group_name_H-M   'P 1'
_symmetry_Int_Tables_number      1
_space_group_name_Hall           'P 1'
loop_
_symmetry_equiv_pos_site_id
_symmetry_equiv_pos_as_xyz
1 x,y,z
_cell_length_a                   9.0371(2)
_cell_length_b                   15.3651(4)
_cell_length_c                   18.4491(4)
_cell_angle_alpha                90
_cell_angle_beta                 90
_cell_angle_gamma                90
_cell_volume                     2561.77
loop_
_atom_site_label
_atom_site_type_symbol
_atom_site_fract_x
_atom_site_fract_y
_atom_site_fract_z
Ni1 Ni 0.0000 0.16449(5) 0.2500
P1 P 0.21488(8) 0.28870(5) 0.35085(4)
O1 O 0.0669(2) 0.25893(15) 0.32118(12)
O2 O 0.0999(4) 0.06857(19) 0.31627(18)
O3 O 0.3040(2) 0.34626(15) 0.30234(13)
O4 O 0.3062(2) 0.20586(14) 0.37290(13)
H1 H 0.3917 0.2110 0.3586
C1 C 0.2119(4) 0.3084(3) 0.5000
H2 H 0.2689 0.2580 0.5000
C2 C 0.1708(3) 0.34477(18) 0.43396(15)
C3 C 0.0864(3) 0.42265(18) 0.43322(14)
C4 C 0.0439(4) 0.4606(3) 0.5000
C5 C 0.0412(3) 0.4630(2) 0.36714(15)
H3 H 0.0688 0.4382 0.3232
H4 H 0.165(12) 0.072(9) 0.347(9)
P4 P 0.21488(8) 0.28870(5) 0.64915(4)
O11 O 0.0669(2) 0.25893(15) 0.67882(12)
O12 O 0.3040(2) 0.34626(15) 0.69766(13)
O13 O 0.3062(2) 0.20586(14) 0.62710(13)
H10 H 0.3917 0.2110 0.6414
C14 C 0.1708(3) 0.34477(18) 0.56604(15)
C15 C 0.0864(3) 0.42265(18) 0.56678(14)
C16 C 0.0412(3) 0.4630(2) 0.63286(15)
H11 H 0.0688 0.4382 0.6768
Ni2 Ni -0.0000 0.83551(5) 0.2500
O16 O 0.0999(4) 0.93143(19) 0.18373(18)
H14 H 0.165(12) 0.928(9) 0.153(9)
Ni4 Ni 0.5000 0.33551(5) 0.7500
Ni5 Ni 0.0000 0.83551(5) 0.7500
Ni6 Ni -0.0000 0.16449(5) 0.7500
Ni7 Ni 0.5000 0.33551(5) 0.2500
O18 O 0.0669(2) 0.74107(15) 0.17882(12)
O20 O 0.1960(2) 0.84626(15) 0.30234(13)
O21 O 0.1960(2) 0.15374(15) 0.19766(13)
H15 H 0.139494 0.0256591 0.281005
H16 H 0.139494 0.974341 0.218995
Ni1_2 Ni 1.0000 0.16449(5) 0.2500
P2 P 0.78512(8) 0.71130(5) 0.35085(4)
O5 O 0.9331(2) 0.74107(15) 0.32118(12)
O6 O 0.6960(2) 0.65374(15) 0.30234(13)
O7 O 0.6938(2) 0.79414(14) 0.37290(13)
H5 H 0.6083 0.7890 0.3586
C6 C 0.7881(4) 0.6916(3) 0.5000
H6 H 0.7311 0.7420 0.5000
C7 C 0.8292(3) 0.65523(18) 0.43396(15)
C8 C 0.9136(3) 0.57735(18) 0.43322(14)
C9 C 0.9561(4) 0.5394(3) 0.5000
C10 C 0.9588(3) 0.5370(2) 0.36714(15)
H7 H 0.9312 0.5618 0.3232
P3 P 0.78512(8) 0.71130(5) 0.64915(4)
O8 O 0.9331(2) 0.74107(15) 0.67882(12)
O9 O 0.6960(2) 0.65374(15) 0.69766(13)
O10 O 0.6938(2) 0.79414(14) 0.62710(13)
H8 H 0.6083 0.7890 0.6414
C11 C 0.8292(3) 0.65523(18) 0.56604(15)
C12 C 0.9136(3) 0.57735(18) 0.56678(14)
C13 C 0.9588(3) 0.5370(2) 0.63286(15)
H9 H 0.9312 0.5618 0.6768
Ni2_2 Ni 1.0000 0.83551(5) 0.2500
O14 O 0.9001(4) 0.93143(19) 0.31627(18)
H12 H 0.835(12) 0.928(9) 0.347(9)
O15 O 0.9001(4) 0.06857(19) 0.18373(18)
H13 H 0.835(12) 0.072(9) 0.153(9)
Ni3 Ni 0.5000 0.66449(5) 0.7500
Ni5_2 Ni 1.0000 0.83551(5) 0.7500
Ni6_2 Ni 1.0000 0.16449(5) 0.7500
Ni8 Ni 0.5000 0.66449(5) 0.2500
O17 O 0.9331(2) 0.25893(15) 0.17882(12)
O19 O 0.8040(2) 0.15374(15) 0.30234(13)
O22 O 0.8040(2) 0.84626(15) 0.19766(13)
H17 H 0.860506 0.0256591 0.218995
H18 H 0.860506 0.974341 0.281005
P2_2 P 0.71488(8) 0.21130(5) 0.64915(4)
O5_2 O 0.5669(2) 0.24107(15) 0.67882(12)
O6_2 O 0.8040(2) 0.15374(15) 0.69766(13)
O7_2 O 0.8062(2) 0.29414(14) 0.62710(13)
H5_2 H 0.8917 0.2890 0.6414
C6_2 C 0.7119(4) 0.1916(3) 0.5000
H6_2 H 0.7689 0.2420 0.5000
C7_2 C 0.6708(3) 0.15523(18) 0.56604(15)
C8_2 C 0.5864(3) 0.07735(18) 0.56678(14)
C9_2 C 0.5439(4) 0.0394(3) 0.5000
C10_2 C 0.5412(3) 0.0370(2) 0.63286(15)
H7_2 H 0.5688 0.0618 0.6768
P3_2 P 0.71488(8) 0.21130(5) 0.35085(4)
O8_2 O 0.5669(2) 0.24107(15) 0.32118(12)
O10_2 O 0.8062(2) 0.29414(14) 0.37290(13)
H8_2 H 0.8917 0.2890 0.3586
C11_2 C 0.6708(3) 0.15523(18) 0.43396(15)
C12_2 C 0.5864(3) 0.07735(18) 0.43322(14)
C13_2 C 0.5412(3) 0.0370(2) 0.36714(15)
H9_2 H 0.5688 0.0618 0.3232
O14_2 O 0.5999(4) 0.43143(19) 0.68373(18)
H12_2 H 0.665(12) 0.428(9) 0.653(9)
O16_2 O 0.4001(4) 0.43143(19) 0.81627(18)
H14_2 H 0.335(12) 0.428(9) 0.847(9)
O18_2 O 0.4331(2) 0.24107(15) 0.82118(12)
O22_2 O 0.6960(2) 0.34626(15) 0.80234(13)
H16_2 H 0.360506 0.474341 0.781005
H18_2 H 0.639494 0.474341 0.718995
P1_2 P 0.28512(8) 0.78870(5) 0.64915(4)
O1_2 O 0.4331(2) 0.75893(15) 0.67882(12)
O2_2 O 0.4001(4) 0.56857(19) 0.68373(18)
O3_2 O 0.1960(2) 0.84626(15) 0.69766(13)
O4_2 O 0.1938(2) 0.70586(14) 0.62710(13)
H1_2 H 0.1083 0.7110 0.6414
C1_2 C 0.2881(4) 0.8084(3) 0.5000
H2_2 H 0.2311 0.7580 0.5000
C2_2 C 0.3292(3) 0.84477(18) 0.56604(15)
C3_2 C 0.4136(3) 0.92265(18) 0.56678(14)
C4_2 C 0.4561(4) 0.9606(3) 0.5000
C5_2 C 0.4588(3) 0.9630(2) 0.63286(15)
H3_2 H 0.4312 0.9382 0.6768
H4_2 H 0.335(12) 0.572(9) 0.653(9)
P4_2 P 0.28512(8) 0.78870(5) 0.35085(4)
O11_2 O 0.4331(2) 0.75893(15) 0.32118(12)
O13_2 O 0.1938(2) 0.70586(14) 0.37290(13)
H10_2 H 0.1083 0.7110 0.3586
C14_2 C 0.3292(3) 0.84477(18) 0.43396(15)
C15_2 C 0.4136(3) 0.92265(18) 0.43322(14)
C16_2 C 0.4588(3) 0.9630(2) 0.36714(15)
H11_2 H 0.4312 0.9382 0.3232
O15_2 O 0.5999(4) 0.56857(19) 0.81627(18)
H13_2 H 0.665(12) 0.572(9) 0.847(9)
O17_2 O 0.5669(2) 0.75893(15) 0.82118(12)
O21_2 O 0.3040(2) 0.65374(15) 0.80234(13)
H15_2 H 0.360506 0.525659 0.718995
H17_2 H 0.639494 0.525659 0.781005
C6_3 C 0.2881(4) 0.1916(3) 0.0000
H6_3 H 0.2311 0.2420 0.0000
C9_3 C 0.4561(4) 0.0394(3) 0.0000
P3_3 P 0.28512(8) 0.21130(5) 0.14915(4)
O8_3 O 0.4331(2) 0.24107(15) 0.17882(12)
O10_3 O 0.1938(2) 0.29414(14) 0.12710(13)
H8_3 H 0.1083 0.2890 0.1414
C11_3 C 0.3292(3) 0.15523(18) 0.06604(15)
C12_3 C 0.4136(3) 0.07735(18) 0.06678(14)
C13_3 C 0.4588(3) 0.0370(2) 0.13286(15)
H9_3 H 0.4312 0.0618 0.1768
P2_3 P 0.28512(8) 0.21130(5) 0.85085(4)
O6_3 O 0.1960(2) 0.15374(15) 0.80234(13)
O7_3 O 0.1938(2) 0.29414(14) 0.87290(13)
H5_3 H 0.1083 0.2890 0.8586
C6_4 C 0.2881(4) 0.1916(3) 1.0000
H6_4 H 0.2311 0.2420 1.0000
C7_3 C 0.3292(3) 0.15523(18) 0.93396(15)
C8_3 C 0.4136(3) 0.07735(18) 0.93322(14)
C9_4 C 0.4561(4) 0.0394(3) 1.0000
C10_3 C 0.4588(3) 0.0370(2) 0.86714(15)
H7_3 H 0.4312 0.0618 0.8232
C1_3 C 0.7119(4) 0.8084(3) 0.0000
H2_3 H 0.7689 0.7580 0.0000
C4_3 C 0.5439(4) 0.9606(3) 0.0000
P4_3 P 0.71488(8) 0.78870(5) 0.14915(4)
O11_3 O 0.5669(2) 0.75893(15) 0.17882(12)
O13_3 O 0.8062(2) 0.70586(14) 0.12710(13)
H10_3 H 0.8917 0.7110 0.1414
C14_3 C 0.6708(3) 0.84477(18) 0.06604(15)
C15_3 C 0.5864(3) 0.92265(18) 0.06678(14)
C16_3 C 0.5412(3) 0.9630(2) 0.13286(15)
H11_3 H 0.5688 0.9382 0.1768
P1_3 P 0.71488(8) 0.78870(5) 0.85085(4)
O3_3 O 0.8040(2) 0.84626(15) 0.80234(13)
O4_3 O 0.8062(2) 0.70586(14) 0.87290(13)
H1_3 H 0.8917 0.7110 0.8586
C1_4 C 0.7119(4) 0.8084(3) 1.0000
H2_4 H 0.7689 0.7580 1.0000
C2_3 C 0.6708(3) 0.84477(18) 0.93396(15)
C3_3 C 0.5864(3) 0.92265(18) 0.93322(14)
C4_4 C 0.5439(4) 0.9606(3) 1.0000
C5_3 C 0.5412(3) 0.9630(2) 0.86714(15)
H3_3 H 0.5688 0.9382 0.8232
P2_4 P 0.21488(8) 0.71130(5) 0.14915(4)
O6_4 O 0.3040(2) 0.65374(15) 0.19766(13)
O7_4 O 0.3062(2) 0.79414(14) 0.12710(13)
H5_4 H 0.3917 0.7890 0.1414
C6_5 C 0.2119(4) 0.6916(3) 0.0000
H6_5 H 0.2689 0.7420 0.0000
C7_4 C 0.1708(3) 0.65523(18) 0.06604(15)
C8_4 C 0.0864(3) 0.57735(18) 0.06678(14)
C9_5 C 0.0439(4) 0.5394(3) 0.0000
C10_4 C 0.0412(3) 0.5370(2) 0.13286(15)
H7_4 H 0.0688 0.5618 0.1768
C6_6 C 0.2119(4) 0.6916(3) 1.0000
H6_6 H 0.2689 0.7420 1.0000
C9_6 C 0.0439(4) 0.5394(3) 1.0000
P3_4 P 0.21488(8) 0.71130(5) 0.85085(4)
O8_4 O 0.0669(2) 0.74107(15) 0.82118(12)
O10_4 O 0.3062(2) 0.79414(14) 0.87290(13)
H8_4 H 0.3917 0.7890 0.8586
C11_4 C 0.1708(3) 0.65523(18) 0.93396(15)
C12_4 C 0.0864(3) 0.57735(18) 0.93322(14)
C13_4 C 0.0412(3) 0.5370(2) 0.86714(15)
H9_4 H 0.0688 0.5618 0.8232
P1_4 P 0.78512(8) 0.28870(5) 0.14915(4)
O3_4 O 0.6960(2) 0.34626(15) 0.19766(13)
O4_4 O 0.6938(2) 0.20586(14) 0.12710(13)
H1_4 H 0.6083 0.2110 0.1414
C1_5 C 0.7881(4) 0.3084(3) 0.0000
H2_5 H 0.7311 0.2580 0.0000
C2_4 C 0.8292(3) 0.34477(18) 0.06604(15)
C3_4 C 0.9136(3) 0.42265(18) 0.06678(14)
C4_5 C 0.9561(4) 0.4606(3) 0.0000
C5_4 C 0.9588(3) 0.4630(2) 0.13286(15)
H3_4 H 0.9312 0.4382 0.1768
C1_6 C 0.7881(4) 0.3084(3) 1.0000
H2_6 H 0.7311 0.2580 1.0000
C4_6 C 0.9561(4) 0.4606(3) 1.0000
P4_4 P 0.78512(8) 0.28870(5) 0.85085(4)
O11_4 O 0.9331(2) 0.25893(15) 0.82118(12)
O13_4 O 0.6938(2) 0.20586(14) 0.87290(13)
H10_4 H 0.6083 0.2110 0.8586
C14_4 C 0.8292(3) 0.34477(18) 0.93396(15)
C15_4 C 0.9136(3) 0.42265(18) 0.93322(14)
C16_4 C 0.9588(3) 0.4630(2) 0.86714(15)
H11_4 H 0.9312 0.4382 0.8232
O14_3 O 0.0999(4) 0.06857(19) 0.68373(18)
H12_3 H 0.165(12) 0.072(9) 0.653(9)
O15_3 O 0.0999(4) 0.93143(19) 0.81627(18)
H13_3 H 0.165(12) 0.928(9) 0.847(9)
H17_3 H 0.139494 0.974341 0.781005
H18_3 H 0.139494 0.0256591 0.718995
O2_3 O 0.9001(4) 0.93143(19) 0.68373(18)
H4_3 H 0.835(12) 0.928(9) 0.653(9)
O16_3 O 0.9001(4) 0.06857(19) 0.81627(18)
H14_3 H 0.835(12) 0.072(9) 0.847(9)
H15_3 H 0.860506 0.974341 0.718995
H16_3 H 0.860506 0.0256591 0.781005
O2_4 O 0.5999(4) 0.43143(19) 0.31627(18)
H4_4 H 0.665(12) 0.428(9) 0.347(9)
O15_4 O 0.4001(4) 0.43143(19) 0.18373(18)
H13_4 H 0.335(12) 0.428(9) 0.153(9)
H15_4 H 0.639494 0.474341 0.281005
H17_4 H 0.360506 0.474341 0.218995
O14_4 O 0.4001(4) 0.56857(19) 0.31627(18)
H12_4 H 0.335(12) 0.572(9) 0.347(9)
O16_4 O 0.5999(4) 0.56857(19) 0.18373(18)
H14_4 H 0.665(12) 0.572(9) 0.153(9)
H16_4 H 0.639494 0.525659 0.218995
H18_4 H 0.360506 0.525659 0.281005
loop_
_geom_bond_atom_site_label_1
_geom_bond_atom_site_label_2
_geom_bond_site_symmetry_1
_geom_bond_site_symmetry_2
Ni1 O1 1_555 1_555
P1 O1 1_555 1_555
O2 Ni1 1_555 1_555
O3 P1 1_555 1_555
O4 P1 1_555 1_555
H1 O4 1_555 1_555
C1 H2 1_555 1_555
C2 P1 1_555 1_555
C3 C2 1_555 1_555
C4 C3 1_555 1_555
C5 C3 1_555 1_555
H3 C5 1_555 1_555
H4 O2 1_555 1_555
P4 O11 1_555 1_555
O11 Ni6 1_555 1_555
O12 P4 1_555 1_555
O13 P4 1_555 1_555
H10 O13 1_555 1_555
C14 C1 1_555 1_555
C15 C4 1_555 1_555
H11 C16 1_555 1_555
O16 Ni2 1_555 1_555
H14 O16 1_555 1_555
Ni4 O12 1_555 1_555
Ni7 O3 1_555 1_555
O18 Ni2 1_555 1_555
O20 Ni2 1_555 1_555
O21 Ni1 1_555 1_555
C1 C2 1_555 1_555
P4 C14 1_555 1_555
C14 C15 1_555 1_555
C15 C16 1_555 1_555
O2 H15 1_555 1_555
O16 H16 1_555 1_555
P2 O5 1_555 1_555
O5 Ni2_2 1_555 1_555
O6 P2 1_555 1_555
O7 P2 1_555 1_555
H5 O7 1_555 1_555
C6 H6 1_555 1_555
C7 P2 1_555 1_555
C8 C7 1_555 1_555
H7 C10 1_555 1_555
P3 O8 1_555 1_555
O8 Ni5_2 1_555 1_555
O9 P3 1_555 1_555
O10 P3 1_555 1_555
H8 O10 1_555 1_555
C11 C6 1_555 1_555
C12 C9 1_555 1_555
C13 C12 1_555 1_555
H9 C13 1_555 1_555
Ni2_2 O14 1_555 1_555
O14 H12 1_555 1_555
O15 Ni1_2 1_555 1_555
H13 O15 1_555 1_555
Ni3 O9 1_555 1_555
Ni8 O6 1_555 1_555
O17 Ni1_2 1_555 1_555
O19 Ni1_2 1_555 1_555
O22 Ni2_2 1_555 1_555
C6 C7 1_555 1_555
C8 C9 1_555 1_555
C8 C10 1_555 1_555
P3 C11 1_555 1_555
C11 C12 1_555 1_555
O15 H17 1_555 1_555
O14 H18 1_555 1_555
P2_2 O5_2 1_555 1_555
O5_2 Ni4 1_555 1_555
O6_2 P2_2 1_555 1_555
O7_2 P2_2 1_555 1_555
H5_2 O7_2 1_555 1_555
C6_2 H6_2 1_555 1_555
C7_2 P2_2 1_555 1_555
C8_2 C7_2 1_555 1_555
H7_2 C10_2 1_555 1_555
P3_2 O8_2 1_555 1_555
O8_2 Ni7 1_555 1_555
O19 P3_2 1_555 1_555
O10_2 P3_2 1_555 1_555
H8_2 O10_2 1_555 1_555
C11_2 C6_2 1_555 1_555
C12_2 C9_2 1_555 1_555
C13_2 C12_2 1_555 1_555
H9_2 C13_2 1_555 1_555
Ni4 O14_2 1_555 1_555
O14_2 H12_2 1_555 1_555
O16_2 Ni4 1_555 1_555
H14_2 O16_2 1_555 1_555
Ni6_2 O6_2 1_555 1_555
O18_2 Ni4 1_555 1_555
O22_2 Ni4 1_555 1_555
C6_2 C7_2 1_555 1_555
C8_2 C9_2 1_555 1_555
C8_2 C10_2 1_555 1_555
P3_2 C11_2 1_555 1_555
C11_2 C12_2 1_555 1_555
O16_2 H16_2 1_555 1_555
O14_2 H18_2 1_555 1_555
Ni3 O1_2 1_555 1_555
P1_2 O1_2 1_555 1_555
O2_2 Ni3 1_555 1_555
O3_2 P1_2 1_555 1_555
O4_2 P1_2 1_555 1_555
H1_2 O4_2 1_555 1_555
C1_2 H2_2 1_555 1_555
C2_2 P1_2 1_555 1_555
C3_2 C2_2 1_555 1_555
C4_2 C3_2 1_555 1_555
C5_2 C3_2 1_555 1_555
H3_2 C5_2 1_555 1_555
H4_2 O2_2 1_555 1_555
P4_2 O11_2 1_555 1_555
O11_2 Ni8 1_555 1_555
O20 P4_2 1_555 1_555
O13_2 P4_2 1_555 1_555
H10_2 O13_2 1_555 1_555
C14_2 C1_2 1_555 1_555
C15_2 C4_2 1_555 1_555
H11_2 C16_2 1_555 1_555
O15_2 Ni3 1_555 1_555
H13_2 O15_2 1_555 1_555
Ni5 O3_2 1_555 1_555
O17_2 Ni3 1_555 1_555
O21_2 Ni3 1_555 1_555
C1_2 C2_2 1_555 1_555
P4_2 C14_2 1_555 1_555
C14_2 C15_2 1_555 1_555
C15_2 C16_2 1_555 1_555
O2_2 H15_2 1_555 1_555
O15_2 H17_2 1_555 1_555
C6_3 H6_3 1_555 1_555
P3_3 O8_3 1_555 1_555
O8_3 Ni7 1_555 1_555
O21 P3_3 1_555 1_555
O10_3 P3_3 1_555 1_555
H8_3 O10_3 1_555 1_555
C11_3 C6_3 1_555 1_555
C12_3 C9_3 1_555 1_555
C13_3 C12_3 1_555 1_555
H9_3 C13_3 1_555 1_555
P3_3 C11_3 1_555 1_555
C11_3 C12_3 1_555 1_555
P2_3 O18_2 1_555 1_555
O6_3 P2_3 1_555 1_555
O7_3 P2_3 1_555 1_555
H5_3 O7_3 1_555 1_555
C6_4 H6_4 1_555 1_555
C7_3 P2_3 1_555 1_555
C8_3 C7_3 1_555 1_555
H7_3 C10_3 1_555 1_555
Ni6 O6_3 1_555 1_555
C6_4 C7_3 1_555 1_555
C8_3 C9_4 1_555 1_555
C8_3 C10_3 1_555 1_555
C1_3 H2_3 1_555 1_555
P4_3 O11_3 1_555 1_555
O11_3 Ni8 1_555 1_555
O22 P4_3 1_555 1_555
O13_3 P4_3 1_555 1_555
H10_3 O13_3 1_555 1_555
C14_3 C1_3 1_555 1_555
C15_3 C4_3 1_555 1_555
H11_3 C16_3 1_555 1_555
P4_3 C14_3 1_555 1_555
C14_3 C15_3 1_555 1_555
C15_3 C16_3 1_555 1_555
P1_3 O17_2 1_555 1_555
O3_3 P1_3 1_555 1_555
O4_3 P1_3 1_555 1_555
H1_3 O4_3 1_555 1_555
C1_4 H2_4 1_555 1_555
C2_3 P1_3 1_555 1_555
C3_3 C2_3 1_555 1_555
C4_4 C3_3 1_555 1_555
C5_3 C3_3 1_555 1_555
H3_3 C5_3 1_555 1_555
Ni5_2 O3_3 1_555 1_555
C1_4 C2_3 1_555 1_555
P2_4 O18 1_555 1_555
O6_4 P2_4 1_555 1_555
O7_4 P2_4 1_555 1_555
H5_4 O7_4 1_555 1_555
C6_5 H6_5 1_555 1_555
C7_4 P2_4 1_555 1_555
C8_4 C7_4 1_555 1_555
H7_4 C10_4 1_555 1_555
Ni8 O6_4 1_555 1_555
C6_5 C7_4 1_555 1_555
C8_4 C9_5 1_555 1_555
C8_4 C10_4 1_555 1_555
C6_6 H6_6 1_555 1_555
P3_4 O8_4 1_555 1_555
O8_4 Ni5 1_555 1_555
O21_2 P3_4 1_555 1_555
O10_4 P3_4 1_555 1_555
H8_4 O10_4 1_555 1_555
C11_4 C6_6 1_555 1_555
C12_4 C9_6 1_555 1_555
C13_4 C12_4 1_555 1_555
H9_4 C13_4 1_555 1_555
P3_4 C11_4 1_555 1_555
C11_4 C12_4 1_555 1_555
P1_4 O17 1_555 1_555
O3_4 P1_4 1_555 1_555
O4_4 P1_4 1_555 1_555
H1_4 O4_4 1_555 1_555
C1_5 H2_5 1_555 1_555
C2_4 P1_4 1_555 1_555
C3_4 C2_4 1_555 1_555
C4_5 C3_4 1_555 1_555
C5_4 C3_4 1_555 1_555
H3_4 C5_4 1_555 1_555
Ni7 O3_4 1_555 1_555
C1_5 C2_4 1_555 1_555
C1_6 H2_6 1_555 1_555
P4_4 O11_4 1_555 1_555
O11_4 Ni6_2 1_555 1_555
O22_2 P4_4 1_555 1_555
O13_4 P4_4 1_555 1_555
H10_4 O13_4 1_555 1_555
C14_4 C1_6 1_555 1_555
C15_4 C4_6 1_555 1_555
H11_4 C16_4 1_555 1_555
P4_4 C14_4 1_555 1_555
C14_4 C15_4 1_555 1_555
C15_4 C16_4 1_555 1_555
Ni6 O14_3 1_555 1_555
O14_3 H12_3 1_555 1_555
O15_3 Ni5 1_555 1_555
H13_3 O15_3 1_555 1_555
O15_3 H17_3 1_555 1_555
O14_3 H18_3 1_555 1_555
O2_3 Ni5_2 1_555 1_555
H4_3 O2_3 1_555 1_555
O16_3 Ni6_2 1_555 1_555
H14_3 O16_3 1_555 1_555
O2_3 H15_3 1_555 1_555
O16_3 H16_3 1_555 1_555
O2_4 Ni7 1_555 1_555
H4_4 O2_4 1_555 1_555
O15_4 Ni7 1_555 1_555
H13_4 O15_4 1_555 1_555
O2_4 H15_4 1_555 1_555
O15_4 H17_4 1_555 1_555
Ni8 O14_4 1_555 1_555
O14_4 H12_4 1_555 1_555
O16_4 Ni8 1_555 1_555
H14_4 O16_4 1_555 1_555
O16_4 H16_4 1_555 1_555
O14_4 H18_4 1_555 1_555

#END
