
###############################################################################
#
# This file contains modified crystal structure data generated from the
# MOF subset of the Cambridge Structural Database (CSD) v543 
# hosted by the Cambridge Crystallographic Data Centre (CCDC).
#
# This work is licensed under the Creative Commons
# Attribution-NonCommercial-ShareAlike 4.0 International License.
# To view a copy of this license, visit
# http://creativecommons.org/licenses/by-nc-sa/4.0/
# or send a letter to
# Creative Commons, PO Box 1866, Mountain View, CA 94042, USA.
#
# CIF created using the CSD Python API on 29 September 2022
# The structure has been converted into the P1 space group
# The structure has a 3D framework
# The original CSD entry OMIDEU is in the monoclinic crystal system
# The framework has been calculated to contain at least 10.0% void space
# The void calculation uses a probe of radius 1.32A, grid spacing 0.4
#
###############################################################################

data_OMIDEU
_chemical_formula_moiety         '(C132 H112 N32 O32 Zn8)n'
_symmetry_cell_setting           triclinic
_symmetry_space_group_name_H-M   'P 1'
_symmetry_Int_Tables_number      1
_space_group_name_Hall           'P 1'
loop_
_symmetry_equiv_pos_site_id
_symmetry_equiv_pos_as_xyz
1 x,y,z
_cell_length_a                   13.4824(7)
_cell_length_b                   17.0829(6)
_cell_length_c                   18.1315(6)
_cell_angle_alpha                90
_cell_angle_beta                 110.104(5)
_cell_angle_gamma                90
_cell_volume                     3921.58
loop_
_atom_site_label
_atom_site_type_symbol
_atom_site_fract_x
_atom_site_fract_y
_atom_site_fract_z
Zn6 Zn 0.18128(6) 0.08625(4) 0.08181(3)
C8 C 0.0530(5) 0.0782(3) 0.1764(3)
C10 C 0.0692(5) 0.1540(3) 0.7229(3)
C11 C 0.0821(4) 0.1318(3) 0.7992(3)
H5 H 0.0298 0.1023 0.8087
C12 C 0.1705(5) 0.1527(3) 0.8610(3)
C13 C 0.1887(6) 0.1266(3) 0.9446(3)
C14 C 0.2453(5) 0.1986(4) 0.8459(3)
H6 H 0.3049 0.2138 0.8875
C15 C 0.2349(5) 0.2226(4) 0.7716(3)
H7 H 0.2856 0.2544 0.7627
C16 C 0.1477(5) 0.1988(4) 0.7108(3)
H8 H 0.1410 0.2131 0.6598
O3 O 0.0526(3) 0.0969(3) 0.10868(18)
O4 O 0.1314(3) 0.0605(2) 0.2320(2)
O7 O 0.1108(4) 0.1175(2) 0.96688(19)
O8 O 0.2817(4) 0.1159(3) 0.9902(2)
N9 N 0.3020(4) 0.1390(3) 0.1647(2)
N10 N 0.2131(4) 0.9714(3) 0.0849(2)
Zn1 Zn 0.85685(5) 0.09073(4) 0.50100(3)
C1 C 0.8213(6) 0.0783(4) 0.3473(3)
C2 C 0.8374(5) 0.0773(3) 0.2692(3)
C3 C 0.7472(5) 0.0757(4) 0.2024(3)
H1 H 0.6807 0.0758 0.2072
C4 C 0.7562(6) 0.0738(4) 0.1290(3)
H2 H 0.6960 0.0710 0.0843
C5 C 0.8542(5) 0.0763(4) 0.1220(3)
H3 H 0.8594 0.0764 0.0722
C6 C 0.9454(5) 0.0785(3) 0.1869(3)
C7 C 0.9357(5) 0.0782(3) 0.2610(3)
H4 H 0.9961 0.0787 0.3055
C9 C 0.9740(5) 0.1279(3) 0.6561(3)
C17 C 0.6142(6) 0.2007(3) 0.5511(3)
H9 H 0.5878 0.2288 0.5843
C18 C 0.7143(6) 0.1942(3) 0.5572(3)
H10 H 0.7701 0.2187 0.5957
C19 C 0.6277(5) 0.1252(3) 0.4582(3)
H11 H 0.6105 0.0917 0.4151
C20 C 0.4441(5) 0.1415(3) 0.4561(3)
H12 H 0.4236 0.1234 0.4995
H13 H 0.4318 0.0988 0.4188
C21 C 0.4007(5) 0.2455(3) 0.3469(3)
H14 H 0.3598 0.2931 0.3303
H15 H 0.4746 0.2604 0.3670
C22 C 0.2919(5) 0.1827(3) 0.2205(3)
H16 H 0.2277 0.2024 0.2206
C23 C 0.4589(5) 0.1602(4) 0.2558(3)
H17 H 0.5313 0.1596 0.2830
C24 C 0.4062(6) 0.1250(4) 0.1857(3)
H18 H 0.4377 0.0956 0.1566
C25 C 0.3850(5) 0.2764(3) 0.4753(3)
H19 H 0.3681 0.2571 0.5199
H20 H 0.4587 0.2919 0.4944
C26 C 0.2160(5) 0.3592(4) 0.4339(3)
H21 H 0.1677 0.3225 0.4389
C27 C 0.1968(5) 0.4349(3) 0.4153(3)
H22 H 0.1315 0.4592 0.4042
C28 C 0.3592(5) 0.4157(4) 0.4324(2)
H23 H 0.4290 0.4235 0.4361
C29 C 0.3714(5) 0.2086(3) 0.4164(3)
C30 C 0.2577(5) 0.1757(3) 0.3840(3)
H24 H 0.2093 0.2194 0.3669
H25 H 0.2511 0.1444 0.3379
C31 C 0.2025(5) 0.1501(4) 0.5023(3)
H26 H 0.2093 0.2001 0.5238
C32 C 0.1693(5) 0.0861(4) 0.5290(3)
H27 H 0.1490 0.0846 0.5732
C33 C 0.2025(5) 0.0515(3) 0.4268(3)
H28 H 0.2099 0.0224 0.3856
N1 N 0.7252(4) 0.1466(3) 0.4993(2)
N2 N 0.5556(4) 0.1575(3) 0.4858(2)
N4 N 0.3837(4) 0.1961(3) 0.2773(2)
N5 N 0.2869(4) 0.4714(3) 0.4151(2)
N6 N 0.3200(4) 0.3462(3) 0.4442(2)
N7 N 0.2244(4) 0.1283(3) 0.4380(2)
N8 N 0.1691(4) 0.0226(3) 0.4820(2)
O1 O 0.7364(4) 0.0573(3) 0.3519(2)
O2 O 0.9003(3) 0.1014(2) 0.40753(19)
O5 O 0.8994(3) 0.0963(3) 0.66927(19)
O6 O 0.9747(3) 0.1405(2) 0.58631(18)
Zn4 Zn 0.31872(6) 0.58625(4) 0.41819(3)
Zn3 Zn 0.14315(5) 0.90927(4) 0.49900(3)
N11 N 0.8309(4) 0.9774(3) 0.5180(2)
C20_2 C 0.0559(5) 0.6415(3) 0.0439(3)
H12_2 H 0.0764 0.6234 0.0005
H13_2 H 0.0682 0.5988 0.0812
C21_2 C 0.0993(5) 0.7455(3) 0.1531(3)
H14_2 H 0.1402 0.7931 0.1697
H15_2 H 0.0254 0.7604 0.1330
C22_2 C 0.2081(5) 0.6827(3) 0.2795(3)
H16_2 H 0.2723 0.7024 0.2794
C23_2 C 0.0411(5) 0.6602(4) 0.2442(3)
C24_2 C 0.0938(6) 0.6250(4) 0.3143(3)
H18_2 H 0.0623 0.5956 0.3434
C25_2 C 0.1150(5) 0.7764(3) 0.0247(3)
H20_2 H 0.0413 0.7919 0.0056
C26_2 C 0.2840(5) 0.8592(4) 0.0661(3)
H21_2 H 0.3323 0.8225 0.0611
C27_2 C 0.3032(5) 0.9349(3) 0.0847(3)
H22_2 H 0.3685 0.9592 0.0958
C28_2 C 0.1408(5) 0.9157(4) 0.0676(2)
H23_2 H 0.0710 0.9235 0.0639
C29_2 C 0.1286(5) 0.7086(3) 0.0836(3)
C30_2 C 0.2423(5) 0.6757(3) 0.1160(3)
H24_2 H 0.2907 0.7194 0.1331
H25_2 H 0.2489 0.6444 0.1621
C33_2 C 0.2975(5) 0.5515(3) 0.0732(3)
H28_2 H 0.2901 0.5224 0.1144
N3 N 0.1980(4) 0.6390(3) 0.3353(2)
N4_2 N 0.1163(4) 0.6961(3) 0.2227(2)
N6_2 N 0.1800(4) 0.8462(3) 0.0558(2)
N7_2 N 0.2756(4) 0.6283(3) 0.0620(2)
N8_2 N 0.3309(4) 0.5226(3) 0.0180(2)
Zn3_2 Zn 0.35685(5) 0.40927(4) 0.00100(3)
C1_2 C 0.6787(6) 0.5783(4) 0.1527(3)
C2_2 C 0.6626(5) 0.5773(3) 0.2308(3)
C3_2 C 0.7528(5) 0.5757(4) 0.2976(3)
H1_2 H 0.8193 0.5758 0.2928
C4_2 C 0.7438(6) 0.5738(4) 0.3710(3)
H2_2 H 0.8040 0.5710 0.4157
C5_2 C 0.6458(5) 0.5763(4) 0.3780(3)
H3_2 H 0.6406 0.5764 0.4278
C6_2 C 0.5546(5) 0.5785(3) 0.3131(3)
C7_2 C 0.5643(5) 0.5782(3) 0.2390(3)
H4_2 H 0.5039 0.5787 0.1945
C8_2 C 0.4470(5) 0.5782(3) 0.3236(3)
C19_2 C 0.8723(5) 0.6252(3) 0.0418(3)
H11_2 H 0.8895 0.5917 0.0849
H17_2 H 0.9687 0.6596 0.2170
N1_2 N 0.7748(4) 0.6466(3) 0.0007(2)
N2_2 N 0.9444(4) 0.6575(3) 0.0142(2)
O1_2 O 0.7636(4) 0.5573(3) 0.1481(2)
O2_2 O 0.5997(3) 0.6014(2) 0.09247(19)
O3_2 O 0.4474(3) 0.5969(3) 0.39132(18)
O4_2 O 0.3686(3) 0.5605(2) 0.2680(2)
O9 O 0.3892(4) 0.6175(2) 0.53312(19)
Zn1_2 Zn 0.64315(5) 0.59073(4) 0.99900(3)
C9_2 C 0.5260(5) 0.6279(3) 0.8439(3)
C10_2 C 0.4308(5) 0.6540(3) 0.7771(3)
C11_2 C 0.4179(4) 0.6318(3) 0.7008(3)
H5_2 H 0.4702 0.6023 0.6913
C12_2 C 0.3295(5) 0.6527(3) 0.6390(3)
C13_2 C 0.3113(6) 0.6266(3) 0.5554(3)
C14_2 C 0.2547(5) 0.6986(4) 0.6541(3)
H6_2 H 0.1951 0.7138 0.6125
C15_2 C 0.2651(5) 0.7226(4) 0.7284(3)
H7_2 H 0.2144 0.7544 0.7373
C16_2 C 0.3523(5) 0.6988(4) 0.7892(3)
H8_2 H 0.3590 0.7131 0.8402
C17_2 C 0.8858(6) 0.7007(3) 0.9489(3)
H9_2 H 0.9122 0.7288 0.9157
C18_2 C 0.7857(6) 0.6942(3) 0.9428(3)
H10_2 H 0.7299 0.7187 0.9043
O5_2 O 0.6006(3) 0.5963(3) 0.83073(19)
O6_2 O 0.5253(3) 0.6405(2) 0.91369(18)
O8_2 O 0.2183(4) 0.6159(3) 0.5098(2)
N11_2 N 0.6691(4) 0.4774(3) 0.9820(2)
C1_3 C 0.1787(6) 0.9217(4) 0.6527(3)
C2_3 C 0.1626(5) 0.9227(3) 0.7308(3)
C3_3 C 0.2528(5) 0.9243(4) 0.7976(3)
H1_3 H 0.3193 0.9242 0.7928
C4_3 C 0.2438(6) 0.9262(4) 0.8710(3)
H2_3 H 0.3040 0.9290 0.9157
C5_3 C 0.1458(5) 0.9237(4) 0.8780(3)
H3_3 H 0.1406 0.9236 0.9278
C6_3 C 0.0546(5) 0.9215(3) 0.8131(3)
C7_3 C 0.0643(5) 0.9218(3) 0.7390(3)
H4_3 H 0.0039 0.9213 0.6945
C9_3 C 0.0260(5) 0.8721(3) 0.3439(3)
C17_3 C 0.3858(6) 0.7993(3) 0.4489(3)
H9_3 H 0.4122 0.7712 0.4157
C18_3 C 0.2857(6) 0.8058(3) 0.4428(3)
H10_3 H 0.2299 0.7813 0.4043
C19_3 C 0.3723(5) 0.8748(3) 0.5418(3)
H11_3 H 0.3895 0.9083 0.5849
C20_3 C 0.5559(5) 0.8585(3) 0.5439(3)
H12_3 H 0.5764 0.8766 0.5005
H13_3 H 0.5682 0.9012 0.5812
C21_3 C 0.5993(5) 0.7545(3) 0.6531(3)
H14_3 H 0.6402 0.7069 0.6697
H15_3 H 0.5254 0.7396 0.6330
C22_3 C 0.7081(5) 0.8173(3) 0.7795(3)
H16_3 H 0.7723 0.7976 0.7794
C23_3 C 0.5411(5) 0.8398(4) 0.7442(3)
H17_3 H 0.4687 0.8404 0.7170
C24_3 C 0.5938(6) 0.8750(4) 0.8143(3)
H18_3 H 0.5623 0.9044 0.8434
C25_3 C 0.6150(5) 0.7236(3) 0.5247(3)
H19_2 H 0.6319 0.7429 0.4801
H20_3 H 0.5413 0.7081 0.5056
C26_3 C 0.7840(5) 0.6408(4) 0.5661(3)
H21_3 H 0.8323 0.6775 0.5611
C27_3 C 0.8032(5) 0.5651(3) 0.5847(3)
H22_3 H 0.8685 0.5408 0.5958
C28_3 C 0.6408(5) 0.5843(4) 0.5676(2)
H23_3 H 0.5710 0.5765 0.5639
C29_3 C 0.6286(5) 0.7914(3) 0.5836(3)
C30_3 C 0.7423(5) 0.8243(3) 0.6160(3)
H24_3 H 0.7907 0.7806 0.6331
H25_3 H 0.7489 0.8556 0.6621
C31_2 C 0.7975(5) 0.8499(4) 0.4977(3)
H26_2 H 0.7907 0.7999 0.4762
C32_2 C 0.8307(5) 0.9139(4) 0.4710(3)
H27_2 H 0.8510 0.9154 0.4268
C33_3 C 0.7975(5) 0.9485(3) 0.5732(3)
H28_3 H 0.7901 0.9776 0.6144
N1_3 N 0.2748(4) 0.8534(3) 0.5007(2)
N2_3 N 0.4444(4) 0.8425(3) 0.5142(2)
N3_2 N 0.6980(4) 0.8610(3) 0.8353(2)
N4_3 N 0.6163(4) 0.8039(3) 0.7227(2)
N5_2 N 0.7131(4) 0.5286(3) 0.5849(2)
N6_3 N 0.6800(4) 0.6538(3) 0.5558(2)
N7_3 N 0.7756(4) 0.8717(3) 0.5620(2)
O1_3 O 0.2636(4) 0.9427(3) 0.6481(2)
O2_3 O 0.0997(3) 0.8986(2) 0.59247(19)
O5_3 O 0.1006(3) 0.9037(3) 0.33073(19)
O6_3 O 0.0253(3) 0.8595(2) 0.41369(18)
Zn4_2 Zn 0.68128(6) 0.41375(4) 0.58181(3)
Zn5 Zn 0.81872(6) 0.91375(4) 0.91819(3)
N10_2 N 0.7869(4) 0.0286(3) 0.9151(2)
O9_2 O 0.8892(4) 0.8825(2) 0.03312(19)
C8_3 C 0.9470(5) 0.9218(3) 0.8236(3)
C10_3 C 0.9308(5) 0.8460(3) 0.2771(3)
C11_3 C 0.9179(4) 0.8682(3) 0.2008(3)
H5_3 H 0.9702 0.8977 0.1913
C12_3 C 0.8295(5) 0.8473(3) 0.1390(3)
C13_3 C 0.8113(6) 0.8734(3) 0.0554(3)
C14_3 C 0.7547(5) 0.8014(4) 0.1541(3)
H6_3 H 0.6951 0.7862 0.1125
C15_3 C 0.7651(5) 0.7774(4) 0.2284(3)
H7_3 H 0.7144 0.7456 0.2373
C16_3 C 0.8523(5) 0.8012(4) 0.2892(3)
H8_3 H 0.8590 0.7869 0.3402
O3_3 O 0.9474(3) 0.9031(3) 0.89132(18)
O4_3 O 0.8686(3) 0.9395(2) 0.7680(2)
O8_3 O 0.7183(4) 0.8841(3) 0.0098(2)
C9_4 C 0.4740(5) 0.3721(3) 0.1561(3)
C10_4 C 0.5692(5) 0.3460(3) 0.2229(3)
C11_4 C 0.5821(4) 0.3682(3) 0.2992(3)
H5_4 H 0.5298 0.3977 0.3087
C12_4 C 0.6705(5) 0.3473(3) 0.3610(3)
C13_4 C 0.6887(6) 0.3734(3) 0.4446(3)
C14_4 C 0.7453(5) 0.3014(4) 0.3459(3)
H6_4 H 0.8049 0.2862 0.3875
C15_4 C 0.7349(5) 0.2774(4) 0.2716(3)
H7_4 H 0.7856 0.2456 0.2627
C16_4 C 0.6477(5) 0.3012(4) 0.2108(3)
H8_4 H 0.6410 0.2869 0.1598
C17_4 C 0.1142(6) 0.2993(3) 0.0511(3)
H9_4 H 0.0878 0.2712 0.0843
C18_4 C 0.2143(6) 0.3058(3) 0.0572(3)
H10_4 H 0.2701 0.2813 0.0957
O5_4 O 0.3994(3) 0.4037(3) 0.16927(19)
O6_4 O 0.4747(3) 0.3595(2) 0.08631(18)
O7_2 O 0.6108(4) 0.3825(2) 0.46688(19)
O8_4 O 0.7817(4) 0.3841(3) 0.4902(2)
C1_4 C 0.3213(6) 0.4217(4) 0.8473(3)
C2_4 C 0.3374(5) 0.4227(3) 0.7692(3)
C3_4 C 0.2472(5) 0.4243(4) 0.7024(3)
H1_4 H 0.1807 0.4242 0.7072
C4_4 C 0.2562(6) 0.4262(4) 0.6290(3)
H2_4 H 0.1960 0.4290 0.5843
C5_4 C 0.3542(5) 0.4237(4) 0.6220(3)
H3_4 H 0.3594 0.4236 0.5722
C6_4 C 0.4454(5) 0.4215(3) 0.6869(3)
C7_4 C 0.4357(5) 0.4218(3) 0.7610(3)
H4_4 H 0.4961 0.4213 0.8055
C8_4 C 0.5530(5) 0.4218(3) 0.6764(3)
C19_4 C 0.1277(5) 0.3748(3) 0.9582(3)
H11_4 H 0.1105 0.4083 0.9151
H17_4 H 0.0313 0.3404 0.7830
N1_4 N 0.2252(4) 0.3534(3) 0.9993(2)
N2_4 N 0.0556(4) 0.3425(3) 0.9858(2)
O1_4 O 0.2364(4) 0.4427(3) 0.8519(2)
O2_4 O 0.4003(3) 0.3986(2) 0.90753(19)
O3_4 O 0.5526(3) 0.4031(3) 0.60868(18)
O4_4 O 0.6314(3) 0.4395(2) 0.7320(2)
N9_2 N 0.8020(4) 0.3610(3) 0.6647(2)
C20_4 C 0.9441(5) 0.3585(3) 0.9561(3)
H12_4 H 0.9236 0.3766 0.9995
H13_4 H 0.9318 0.4012 0.9188
C21_4 C 0.9007(5) 0.2545(3) 0.8469(3)
H14_4 H 0.8598 0.2069 0.8303
H15_4 H 0.9746 0.2396 0.8670
C22_4 C 0.7919(5) 0.3173(3) 0.7205(3)
H16_4 H 0.7277 0.2976 0.7206
C23_4 C 0.9589(5) 0.3398(4) 0.7558(3)
C24_4 C 0.9062(6) 0.3750(4) 0.6857(3)
H18_4 H 0.9377 0.4044 0.6566
C25_4 C 0.8850(5) 0.2236(3) 0.9753(3)
H20_4 H 0.9587 0.2081 0.9944
C26_4 C 0.7160(5) 0.1408(4) 0.9339(3)
H21_4 H 0.6677 0.1775 0.9389
C27_4 C 0.6968(5) 0.0651(3) 0.9153(3)
H22_4 H 0.6315 0.0408 0.9042
C28_4 C 0.8592(5) 0.0843(4) 0.9324(2)
H23_4 H 0.9290 0.0765 0.9361
C29_4 C 0.8714(5) 0.2914(3) 0.9164(3)
C30_4 C 0.7577(5) 0.3243(3) 0.8840(3)
H24_4 H 0.7093 0.2806 0.8669
H25_4 H 0.7511 0.3556 0.8379
C33_4 C 0.7025(5) 0.4485(3) 0.9268(3)
H28_4 H 0.7099 0.4776 0.8856
N4_4 N 0.8837(4) 0.3039(3) 0.7773(2)
N6_4 N 0.8200(4) 0.1538(3) 0.9442(2)
N7_4 N 0.7244(4) 0.3717(3) 0.9380(2)
H19_3 H 0.1319 0.7571 0.9801
C31_3 C 0.2975(5) 0.6501(4) 0.9977(3)
H26_3 H 0.2907 0.7001 0.9762
C32_3 C 0.3307(5) 0.5861(4) 0.9710(3)
H27_3 H 0.3510 0.5846 0.9268
H19_4 H 0.8681 0.2429 0.0199
C31_4 C 0.7025(5) 0.3499(4) 0.0023(3)
H26_4 H 0.7093 0.2999 0.0238
C32_4 C 0.6693(5) 0.4139(4) 0.0290(3)
H27_4 H 0.6490 0.4154 0.0732
loop_
_geom_bond_atom_site_label_1
_geom_bond_atom_site_label_2
_geom_bond_site_symmetry_1
_geom_bond_site_symmetry_2
Zn6 O3 1_555 1_555
C10 C11 1_555 1_555
C11 H5 1_555 1_555
C12 C11 1_555 1_555
C13 C12 1_555 1_555
C14 C12 1_555 1_555
H6 C14 1_555 1_555
C15 C14 1_555 1_555
H7 C15 1_555 1_555
C16 C10 1_555 1_555
H8 C16 1_555 1_555
O3 C8 1_555 1_555
O4 C8 1_555 1_555
O7 C13 1_555 1_555
O8 C13 1_555 1_555
N9 Zn6 1_555 1_555
C15 C16 1_555 1_555
Zn1 N1 1_555 1_555
C1 C2 1_555 1_555
C2 C3 1_555 1_555
C3 H1 1_555 1_555
C4 C3 1_555 1_555
H2 C4 1_555 1_555
C5 C4 1_555 1_555
H3 C5 1_555 1_555
C6 C5 1_555 1_555
C7 C2 1_555 1_555
H4 C7 1_555 1_555
C17 H9 1_555 1_555
C18 C17 1_555 1_555
H10 C18 1_555 1_555
C19 H11 1_555 1_555
C20 H12 1_555 1_555
H13 C20 1_555 1_555
C21 H14 1_555 1_555
H15 C21 1_555 1_555
C22 H16 1_555 1_555
C23 H17 1_555 1_555
C24 C23 1_555 1_555
H18 C24 1_555 1_555
C25 H19 1_555 1_555
H20 C25 1_555 1_555
C26 H21 1_555 1_555
C27 C26 1_555 1_555
H22 C27 1_555 1_555
C28 H23 1_555 1_555
C29 C20 1_555 1_555
C30 C29 1_555 1_555
H24 C30 1_555 1_555
H25 C30 1_555 1_555
C31 H26 1_555 1_555
C32 C31 1_555 1_555
H27 C32 1_555 1_555
C33 H28 1_555 1_555
N1 C18 1_555 1_555
N2 C17 1_555 1_555
N9 C22 1_555 1_555
N4 C21 1_555 1_555
N5 C27 1_555 1_555
N6 C25 1_555 1_555
N7 C30 1_555 1_555
N8 C32 1_555 1_555
O1 C1 1_555 1_555
O2 Zn1 1_555 1_555
O5 C9 1_555 1_555
O6 Zn1 1_555 1_555
Zn4 N5 1_555 1_555
C1 O2 1_555 1_555
C6 C7 1_555 1_555
C9 O6 1_555 1_555
C19 N1 1_555 1_555
C19 N2 1_555 1_555
C20 N2 1_555 1_555
C21 C29 1_555 1_555
C22 N4 1_555 1_555
C23 N4 1_555 1_555
C24 N9 1_555 1_555
C25 C29 1_555 1_555
C26 N6 1_555 1_555
C28 N5 1_555 1_555
C28 N6 1_555 1_555
C31 N7 1_555 1_555
C33 N7 1_555 1_555
C33 N8 1_555 1_555
C20_2 H12_2 1_555 1_555
H13_2 C20_2 1_555 1_555
C21_2 H14_2 1_555 1_555
H15_2 C21_2 1_555 1_555
C22_2 H16_2 1_555 1_555
C24_2 C23_2 1_555 1_555
H18_2 C24_2 1_555 1_555
H20_2 C25_2 1_555 1_555
C26_2 H21_2 1_555 1_555
C27_2 C26_2 1_555 1_555
H22_2 C27_2 1_555 1_555
C28_2 H23_2 1_555 1_555
C29_2 C20_2 1_555 1_555
C30_2 C29_2 1_555 1_555
H24_2 C30_2 1_555 1_555
H25_2 C30_2 1_555 1_555
C33_2 H28_2 1_555 1_555
N3 C22_2 1_555 1_555
N4_2 C21_2 1_555 1_555
N10 C27_2 1_555 1_555
N6_2 C25_2 1_555 1_555
N7_2 C30_2 1_555 1_555
Zn3_2 N8_2 1_555 1_555
Zn4 N3 1_555 1_555
C21_2 C29_2 1_555 1_555
C22_2 N4_2 1_555 1_555
C23_2 N4_2 1_555 1_555
C24_2 N3 1_555 1_555
C25_2 C29_2 1_555 1_555
C26_2 N6_2 1_555 1_555
C28_2 N10 1_555 1_555
C28_2 N6_2 1_555 1_555
C33_2 N7_2 1_555 1_555
C33_2 N8_2 1_555 1_555
Zn4 O3_2 1_555 1_555
C1_2 C2_2 1_555 1_555
C2_2 C3_2 1_555 1_555
C3_2 H1_2 1_555 1_555
C4_2 C3_2 1_555 1_555
H2_2 C4_2 1_555 1_555
C5_2 C4_2 1_555 1_555
H3_2 C5_2 1_555 1_555
C6_2 C5_2 1_555 1_555
C7_2 C2_2 1_555 1_555
H4_2 C7_2 1_555 1_555
C8_2 C6_2 1_555 1_555
C19_2 H11_2 1_555 1_555
O1_2 C1_2 1_555 1_555
O3_2 C8_2 1_555 1_555
O4_2 C8_2 1_555 1_555
O9 Zn4 1_555 1_555
C1_2 O2_2 1_555 1_555
C6_2 C7_2 1_555 1_555
C19_2 N1_2 1_555 1_555
C19_2 N2_2 1_555 1_555
C9_2 C10_2 1_555 1_555
C10_2 C11_2 1_555 1_555
C11_2 H5_2 1_555 1_555
C12_2 C11_2 1_555 1_555
C13_2 C12_2 1_555 1_555
C14_2 C12_2 1_555 1_555
H6_2 C14_2 1_555 1_555
C15_2 C14_2 1_555 1_555
H7_2 C15_2 1_555 1_555
C16_2 C10_2 1_555 1_555
H8_2 C16_2 1_555 1_555
C17_2 H9_2 1_555 1_555
C18_2 C17_2 1_555 1_555
H10_2 C18_2 1_555 1_555
O5_2 C9_2 1_555 1_555
O6_2 Zn1_2 1_555 1_555
O9 C13_2 1_555 1_555
O8_2 C13_2 1_555 1_555
N11_2 Zn1_2 1_555 1_555
C9_2 O6_2 1_555 1_555
C15_2 C16_2 1_555 1_555
Zn3 N1_3 1_555 1_555
C1_3 C2_3 1_555 1_555
C2_3 C3_3 1_555 1_555
C3_3 H1_3 1_555 1_555
C4_3 C3_3 1_555 1_555
H2_3 C4_3 1_555 1_555
C5_3 C4_3 1_555 1_555
H3_3 C5_3 1_555 1_555
C6_3 C5_3 1_555 1_555
C7_3 C2_3 1_555 1_555
H4_3 C7_3 1_555 1_555
C17_3 H9_3 1_555 1_555
C18_3 C17_3 1_555 1_555
H10_3 C18_3 1_555 1_555
C19_3 H11_3 1_555 1_555
C20_3 H12_3 1_555 1_555
H13_3 C20_3 1_555 1_555
C21_3 H14_3 1_555 1_555
H15_3 C21_3 1_555 1_555
C22_3 H16_3 1_555 1_555
C23_3 H17_3 1_555 1_555
C24_3 C23_3 1_555 1_555
H18_3 C24_3 1_555 1_555
C25_3 H19_2 1_555 1_555
H20_3 C25_3 1_555 1_555
C26_3 H21_3 1_555 1_555
C27_3 C26_3 1_555 1_555
H22_3 C27_3 1_555 1_555
C28_3 H23_3 1_555 1_555
C29_3 C20_3 1_555 1_555
C30_3 C29_3 1_555 1_555
H24_3 C30_3 1_555 1_555
H25_3 C30_3 1_555 1_555
C31_2 H26_2 1_555 1_555
C32_2 C31_2 1_555 1_555
H27_2 C32_2 1_555 1_555
C33_3 H28_3 1_555 1_555
N1_3 C18_3 1_555 1_555
N2_3 C17_3 1_555 1_555
N3_2 C22_3 1_555 1_555
N4_3 C21_3 1_555 1_555
N5_2 C27_3 1_555 1_555
N6_3 C25_3 1_555 1_555
N7_3 C30_3 1_555 1_555
N11 C32_2 1_555 1_555
O1_3 C1_3 1_555 1_555
O2_3 Zn3 1_555 1_555
O5_3 C9_3 1_555 1_555
O6_3 Zn3 1_555 1_555
Zn4_2 N5_2 1_555 1_555
Zn5 N3_2 1_555 1_555
C1_3 O2_3 1_555 1_555
C6_3 C7_3 1_555 1_555
C9_3 O6_3 1_555 1_555
C19_3 N1_3 1_555 1_555
C19_3 N2_3 1_555 1_555
C20_3 N2_3 1_555 1_555
C21_3 C29_3 1_555 1_555
C22_3 N4_3 1_555 1_555
C23_3 N4_3 1_555 1_555
C24_3 N3_2 1_555 1_555
C25_3 C29_3 1_555 1_555
C26_3 N6_3 1_555 1_555
C28_3 N5_2 1_555 1_555
C28_3 N6_3 1_555 1_555
C31_2 N7_3 1_555 1_555
C33_3 N7_3 1_555 1_555
C33_3 N11 1_555 1_555
Zn5 O3_3 1_555 1_555
C10_3 C11_3 1_555 1_555
C11_3 H5_3 1_555 1_555
C12_3 C11_3 1_555 1_555
C13_3 C12_3 1_555 1_555
C14_3 C12_3 1_555 1_555
H6_3 C14_3 1_555 1_555
C15_3 C14_3 1_555 1_555
H7_3 C15_3 1_555 1_555
C16_3 C10_3 1_555 1_555
H8_3 C16_3 1_555 1_555
O3_3 C8_3 1_555 1_555
O4_3 C8_3 1_555 1_555
O9_2 C13_3 1_555 1_555
O8_3 C13_3 1_555 1_555
C15_3 C16_3 1_555 1_555
C9_4 C10_4 1_555 1_555
C10_4 C11_4 1_555 1_555
C11_4 H5_4 1_555 1_555
C12_4 C11_4 1_555 1_555
C13_4 C12_4 1_555 1_555
C14_4 C12_4 1_555 1_555
H6_4 C14_4 1_555 1_555
C15_4 C14_4 1_555 1_555
H7_4 C15_4 1_555 1_555
C16_4 C10_4 1_555 1_555
H8_4 C16_4 1_555 1_555
C17_4 H9_4 1_555 1_555
C18_4 C17_4 1_555 1_555
H10_4 C18_4 1_555 1_555
O5_4 C9_4 1_555 1_555
O6_4 Zn3_2 1_555 1_555
O7_2 C13_4 1_555 1_555
O8_4 C13_4 1_555 1_555
Zn4_2 O7_2 1_555 1_555
C9_4 O6_4 1_555 1_555
C15_4 C16_4 1_555 1_555
Zn4_2 O3_4 1_555 1_555
C1_4 C2_4 1_555 1_555
C2_4 C3_4 1_555 1_555
C3_4 H1_4 1_555 1_555
C4_4 C3_4 1_555 1_555
H2_4 C4_4 1_555 1_555
C5_4 C4_4 1_555 1_555
H3_4 C5_4 1_555 1_555
C6_4 C5_4 1_555 1_555
C7_4 C2_4 1_555 1_555
H4_4 C7_4 1_555 1_555
C8_4 C6_4 1_555 1_555
C19_4 H11_4 1_555 1_555
O1_4 C1_4 1_555 1_555
O3_4 C8_4 1_555 1_555
O4_4 C8_4 1_555 1_555
N9_2 Zn4_2 1_555 1_555
C1_4 O2_4 1_555 1_555
C6_4 C7_4 1_555 1_555
C19_4 N1_4 1_555 1_555
C19_4 N2_4 1_555 1_555
C20_4 H12_4 1_555 1_555
H13_4 C20_4 1_555 1_555
C21_4 H14_4 1_555 1_555
H15_4 C21_4 1_555 1_555
C22_4 H16_4 1_555 1_555
C24_4 C23_4 1_555 1_555
H18_4 C24_4 1_555 1_555
H20_4 C25_4 1_555 1_555
C26_4 H21_4 1_555 1_555
C27_4 C26_4 1_555 1_555
H22_4 C27_4 1_555 1_555
C28_4 H23_4 1_555 1_555
C29_4 C20_4 1_555 1_555
C30_4 C29_4 1_555 1_555
H24_4 C30_4 1_555 1_555
H25_4 C30_4 1_555 1_555
C33_4 H28_4 1_555 1_555
N9_2 C22_4 1_555 1_555
N4_4 C21_4 1_555 1_555
N10_2 C27_4 1_555 1_555
N6_4 C25_4 1_555 1_555
N7_4 C30_4 1_555 1_555
C21_4 C29_4 1_555 1_555
C22_4 N4_4 1_555 1_555
C23_4 N4_4 1_555 1_555
C24_4 N9_2 1_555 1_555
C25_4 C29_4 1_555 1_555
C26_4 N6_4 1_555 1_555
C28_4 N10_2 1_555 1_555
C28_4 N6_4 1_555 1_555
C33_4 N7_4 1_555 1_555
C33_4 N11_2 1_555 1_555
C31_3 H26_3 1_555 1_555
C32_3 C31_3 1_555 1_555
H27_3 C32_3 1_555 1_555
C31_4 H26_4 1_555 1_555
C32_4 C31_4 1_555 1_555
H27_4 C32_4 1_555 1_555

#END
