
###############################################################################
#
# This file contains modified crystal structure data generated from the
# MOF subset of the Cambridge Structural Database (CSD) v543 
# hosted by the Cambridge Crystallographic Data Centre (CCDC).
#
# This work is licensed under the Creative Commons
# Attribution-NonCommercial-ShareAlike 4.0 International License.
# To view a copy of this license, visit
# http://creativecommons.org/licenses/by-nc-sa/4.0/
# or send a letter to
# Creative Commons, PO Box 1866, Mountain View, CA 94042, USA.
#
# CIF created using the CSD Python API on 29 September 2022
# The structure has been converted into the P1 space group
# The structure has a 3D framework
# The original CSD entry OMOKEJ is in the tetragonal crystal system
# The framework has been calculated to contain at least 10.0% void space
# The void calculation uses a probe of radius 1.32A, grid spacing 0.4
#
###############################################################################

data_OMOKEJ
_chemical_formula_moiety         '(C48 H32 N16 O32 Sc6)n'
_symmetry_cell_setting           triclinic
_symmetry_space_group_name_H-M   'P 1'
_symmetry_Int_Tables_number      1
_space_group_name_Hall           'P 1'
loop_
_symmetry_equiv_pos_site_id
_symmetry_equiv_pos_as_xyz
1 x,y,z
_cell_length_a                   9.3466(4)
_cell_length_b                   9.3466(4)
_cell_length_c                   23.7893(14)
_cell_angle_alpha                90
_cell_angle_beta                 90
_cell_angle_gamma                90
_cell_volume                     2078.21
loop_
_atom_site_label
_atom_site_type_symbol
_atom_site_fract_x
_atom_site_fract_y
_atom_site_fract_z
Sc1 Sc 0.000000 0.250000 0.625000
O1 O 0.05105(9) 0.45827(9) 0.65321(3)
N1 N 0.15331(11) 0.23642(11) 0.70627(4)
C1 C 0.13555(13) 0.49143(13) 0.69361(5)
O2 O 0.16908(12) 0.61186(10) 0.70824(4)
H1 H 0.138875 0.671328 0.684569
C2 C 0.19632(13) 0.36434(13) 0.72444(5)
C3 C 0.20732(13) 0.12107(13) 0.73155(5)
H2 H 0.179663 0.028327 0.719348
O3 O 0.44895(9) 0.04173(9) 0.84679(3)
N2 N 0.34669(11) 0.26358(11) 0.79373(4)
C4 C 0.36445(13) 0.00857(13) 0.80639(5)
C5 C 0.30368(13) 0.13566(13) 0.77556(5)
C6 C 0.29268(13) 0.37893(13) 0.76845(5)
H3 H 0.320337 0.471673 0.780652
Sc3 Sc 0.500000 0.250000 0.875000
O10 O 0.20827(9) 0.19895(9) 0.59679(3)
N5 N 0.01358(11) 0.40331(11) 0.54373(4)
Sc1_2 Sc 1.000000 0.250000 0.625000
O5 O 0.94895(9) 0.04173(9) 0.65321(3)
N3 N 0.84669(11) 0.26358(11) 0.70627(4)
C7 C 0.86445(13) 0.00857(13) 0.69361(5)
C8 C 0.80368(13) 0.13566(13) 0.72444(5)
C9 C 0.79268(13) 0.37893(13) 0.73155(5)
H4 H 0.820337 0.471673 0.719348
O7 O 0.55105(9) 0.45827(9) 0.84679(3)
N4 N 0.65331(11) 0.23642(11) 0.79373(4)
C10 C 0.63555(13) 0.49143(13) 0.80639(5)
O8 O 0.66908(12) 0.61186(10) 0.79176(4)
C11 C 0.69632(13) 0.36434(13) 0.77556(5)
C12 C 0.70732(13) 0.12107(13) 0.76845(5)
H5 H 0.679663 0.028327 0.780652
O9 O 0.79173(9) 0.30105(9) 0.59679(3)
N6 N 0.98642(11) 0.09669(11) 0.54373(4)
Sc2 Sc 0.000000 0.750000 0.375000
Sc1_3 Sc 0.500000 0.750000 0.125000
O1_2 O 0.44895(9) 0.54173(9) 0.15321(3)
N1_2 N 0.34669(11) 0.76358(11) 0.20627(4)
C1_2 C 0.36445(13) 0.50857(13) 0.19361(5)
O2_2 O 0.33092(12) 0.38814(10) 0.20824(4)
H1_2 H 0.361125 0.328672 0.184569
C2_2 C 0.30368(13) 0.63566(13) 0.22444(5)
C3_2 C 0.29268(13) 0.87893(13) 0.23155(5)
H2_2 H 0.320337 0.971673 0.219348
O3_2 O 0.05105(9) 0.95827(9) 0.34679(3)
N2_2 N 0.15331(11) 0.73642(11) 0.29373(4)
C4_2 C 0.13555(13) 0.99143(13) 0.30639(5)
C5_2 C 0.19632(13) 0.86434(13) 0.27556(5)
C6_2 C 0.20732(13) 0.62107(13) 0.26845(5)
H3_2 H 0.179663 0.528327 0.280652
O5_2 O 0.55105(9) 0.95827(9) 0.15321(3)
N3_2 N 0.65331(11) 0.73642(11) 0.20627(4)
C7_2 C 0.63555(13) 0.99143(13) 0.19361(5)
C8_2 C 0.69632(13) 0.86434(13) 0.22444(5)
C9_2 C 0.70732(13) 0.62107(13) 0.23155(5)
H4_2 H 0.679663 0.528327 0.219348
O7_2 O 0.94895(9) 0.54173(9) 0.34679(3)
N4_2 N 0.84669(11) 0.76358(11) 0.29373(4)
C10_2 C 0.86445(13) 0.50857(13) 0.30639(5)
O8_2 O 0.83092(12) 0.38814(10) 0.29176(4)
C11_2 C 0.80368(13) 0.63566(13) 0.27556(5)
C12_2 C 0.79268(13) 0.87893(13) 0.26845(5)
H5_2 H 0.820337 0.971673 0.280652
Sc2_2 Sc 1.000000 0.750000 0.375000
O9_2 O 0.70827(9) 0.69895(9) 0.09679(3)
O10_2 O 0.29173(9) 0.80105(9) 0.09679(3)
N5_2 N 0.48642(11) 0.59669(11) 0.04373(4)
N6_2 N 0.51358(11) 0.90331(11) 0.04373(4)
C4_3 C 0.74143(13) 0.61445(13) 0.05639(5)
O4 O 0.86186(10) 0.58092(12) 0.04176(4)
C5_3 C 0.61434(13) 0.55368(13) 0.02556(5)
C6_3 C 0.37107(13) 0.54268(13) 0.01845(5)
H3_3 H 0.278327 0.570337 0.030652
O1_3 O 0.29173(9) 0.30105(9) 0.90321(3)
N1_3 N 0.51358(11) 0.40331(11) 0.95627(4)
C1_3 C 0.25857(13) 0.38555(13) 0.94361(5)
O2_3 O 0.13814(10) 0.41908(12) 0.95824(4)
H1_3 H 0.078672 0.388875 0.934569
C2_3 C 0.38566(13) 0.44632(13) 0.97444(5)
C3_3 C 0.62893(13) 0.45732(13) 0.98155(5)
H2_3 H 0.721673 0.429663 0.969348
O5_3 O 0.70827(9) 0.19895(9) 0.90321(3)
N3_3 N 0.48642(11) 0.09669(11) 0.95627(4)
C7_3 C 0.74143(13) 0.11445(13) 0.94361(5)
O6 O 0.86186(10) 0.08092(12) 0.95824(4)
C8_3 C 0.61434(13) 0.05368(13) 0.97444(5)
C9_3 C 0.37107(13) 0.04268(13) 0.98155(5)
H4_3 H 0.278327 0.070337 0.969348
C10_3 C 0.25857(13) 0.88555(13) 0.05639(5)
O8_3 O 0.13814(10) 0.91908(12) 0.04176(4)
C11_3 C 0.38566(13) 0.94632(13) 0.02556(5)
C12_3 C 0.62893(13) 0.95732(13) 0.01845(5)
H5_3 H 0.721673 0.929663 0.030652
C10_4 C 0.24143(13) 0.11445(13) 0.55639(5)
O8_4 O 0.36186(10) 0.08092(12) 0.54176(4)
C11_4 C 0.11434(13) 0.05368(13) 0.52556(5)
O1_4 O 0.20827(9) 0.69895(9) 0.40321(3)
C1_4 C 0.24143(13) 0.61445(13) 0.44361(5)
O2_4 O 0.36186(10) 0.58092(12) 0.45824(4)
H1_4 H 0.421328 0.611125 0.434569
C2_4 C 0.11434(13) 0.55368(13) 0.47444(5)
C6_4 C 0.12893(13) 0.45732(13) 0.51845(5)
H3_4 H 0.221673 0.429663 0.530652
N3_4 N 0.01358(11) 0.90331(11) 0.45627(4)
C9_4 C 0.12893(13) 0.95732(13) 0.48155(5)
H4_4 H 0.221673 0.929663 0.469348
C12_4 C 0.87107(13) 0.04268(13) 0.51845(5)
H5_4 H 0.778327 0.070337 0.530652
N1_4 N 0.98642(11) 0.59669(11) 0.45627(4)
C3_4 C 0.87107(13) 0.54268(13) 0.48155(5)
H2_4 H 0.778327 0.570337 0.469348
C4_4 C 0.75857(13) 0.38555(13) 0.55639(5)
O4_2 O 0.63814(10) 0.41908(12) 0.54176(4)
C5_4 C 0.88566(13) 0.44632(13) 0.52556(5)
O5_4 O 0.79173(9) 0.80105(9) 0.40321(3)
C7_4 C 0.75857(13) 0.88555(13) 0.44361(5)
O6_2 O 0.63814(10) 0.91908(12) 0.45824(4)
C8_4 C 0.88566(13) 0.94632(13) 0.47444(5)
H1_5 H 0.578672 0.888875 0.434569
H1_6 H 0.921328 0.111125 0.934569
H1_7 H 0.861125 0.328672 0.315431
H1_8 H 0.638875 0.671328 0.815431
H1_9 H 0.921328 0.611125 0.065431
H1_10 H 0.578672 0.388875 0.565431
H1_11 H 0.421328 0.111125 0.565431
H1_12 H 0.078672 0.888875 0.065431
O4_3 O 0.33092(12) 0.88814(10) 0.79176(4)
O6_3 O 0.83092(12) 0.88814(10) 0.70824(4)
H1_13 H 0.861125 0.828672 0.684569
H1_14 H 0.361125 0.828672 0.815431
O4_4 O 0.16908(12) 0.11186(10) 0.29176(4)
O6_4 O 0.66908(12) 0.11186(10) 0.20824(4)
H1_15 H 0.638875 0.171328 0.184569
H1_16 H 0.138875 0.171328 0.315431
loop_
_geom_bond_atom_site_label_1
_geom_bond_atom_site_label_2
_geom_bond_site_symmetry_1
_geom_bond_site_symmetry_2
Sc1 O1 1_555 1_555
O1 C1 1_555 1_555
N1 Sc1 1_555 1_555
C1 O2 1_555 1_555
O2 H1 1_555 1_555
C2 N1 1_555 1_555
C3 N1 1_555 1_555
H2 C3 1_555 1_555
O3 C4 1_555 1_555
N2 C5 1_555 1_555
C5 C3 1_555 1_555
C6 C2 1_555 1_555
H3 C6 1_555 1_555
Sc3 O3 1_555 1_555
O10 Sc1 1_555 1_555
N5 Sc1 1_555 1_555
C1 C2 1_555 1_555
N2 C6 1_555 1_555
N2 Sc3 1_555 1_555
C4 C5 1_555 1_555
O5 Sc1_2 1_555 1_555
N3 Sc1_2 1_555 1_555
C7 O5 1_555 1_555
C8 N3 1_555 1_555
C9 N3 1_555 1_555
H4 C9 1_555 1_555
O7 C10 1_555 1_555
N4 C11 1_555 1_555
C10 O8 1_555 1_555
C11 C9 1_555 1_555
C12 C8 1_555 1_555
H5 C12 1_555 1_555
Sc3 O7 1_555 1_555
O9 Sc1_2 1_555 1_555
N6 Sc1_2 1_555 1_555
C7 C8 1_555 1_555
N4 C12 1_555 1_555
N4 Sc3 1_555 1_555
C10 C11 1_555 1_555
Sc1_3 O1_2 1_555 1_555
O1_2 C1_2 1_555 1_555
N1_2 Sc1_3 1_555 1_555
C1_2 O2_2 1_555 1_555
O2_2 H1_2 1_555 1_555
C2_2 N1_2 1_555 1_555
C3_2 N1_2 1_555 1_555
H2_2 C3_2 1_555 1_555
O3_2 C4_2 1_555 1_555
N2_2 C5_2 1_555 1_555
C5_2 C3_2 1_555 1_555
C6_2 C2_2 1_555 1_555
H3_2 C6_2 1_555 1_555
O5_2 Sc1_3 1_555 1_555
N3_2 Sc1_3 1_555 1_555
C7_2 O5_2 1_555 1_555
C8_2 N3_2 1_555 1_555
C9_2 N3_2 1_555 1_555
H4_2 C9_2 1_555 1_555
O7_2 C10_2 1_555 1_555
N4_2 C11_2 1_555 1_555
C10_2 O8_2 1_555 1_555
C11_2 C9_2 1_555 1_555
C12_2 C8_2 1_555 1_555
H5_2 C12_2 1_555 1_555
Sc2_2 O7_2 1_555 1_555
Sc2 O3_2 1_555 1_555
O9_2 Sc1_3 1_555 1_555
O10_2 Sc1_3 1_555 1_555
N5_2 Sc1_3 1_555 1_555
N6_2 Sc1_3 1_555 1_555
C1_2 C2_2 1_555 1_555
N2_2 C6_2 1_555 1_555
N2_2 Sc2 1_555 1_555
C4_2 C5_2 1_555 1_555
C7_2 C8_2 1_555 1_555
N4_2 C12_2 1_555 1_555
N4_2 Sc2_2 1_555 1_555
C10_2 C11_2 1_555 1_555
O9_2 C4_3 1_555 1_555
N5_2 C5_3 1_555 1_555
C4_3 O4 1_555 1_555
H3_3 C6_3 1_555 1_555
N5_2 C6_3 1_555 1_555
C4_3 C5_3 1_555 1_555
Sc3 O1_3 1_555 1_555
O1_3 C1_3 1_555 1_555
N1_3 Sc3 1_555 1_555
C1_3 O2_3 1_555 1_555
O2_3 H1_3 1_555 1_555
C2_3 N1_3 1_555 1_555
C3_3 N1_3 1_555 1_555
H2_3 C3_3 1_555 1_555
O5_3 Sc3 1_555 1_555
N3_3 Sc3 1_555 1_555
C7_3 O5_3 1_555 1_555
O6 C7_3 1_555 1_555
C8_3 N3_3 1_555 1_555
C9_3 N3_3 1_555 1_555
H4_3 C9_3 1_555 1_555
C1_3 C2_3 1_555 1_555
C7_3 C8_3 1_555 1_555
O10_2 C10_3 1_555 1_555
N6_2 C11_3 1_555 1_555
C10_3 O8_3 1_555 1_555
H5_3 C12_3 1_555 1_555
N6_2 C12_3 1_555 1_555
C10_3 C11_3 1_555 1_555
O10 C10_4 1_555 1_555
C10_4 O8_4 1_555 1_555
C10_4 C11_4 1_555 1_555
Sc2 O1_4 1_555 1_555
O1_4 C1_4 1_555 1_555
C1_4 O2_4 1_555 1_555
O2_4 H1_4 1_555 1_555
C6_4 C2_4 1_555 1_555
H3_4 C6_4 1_555 1_555
N3_4 Sc2 1_555 1_555
C9_4 N3_4 1_555 1_555
H4_4 C9_4 1_555 1_555
C1_4 C2_4 1_555 1_555
N5 C6_4 1_555 1_555
H5_4 C12_4 1_555 1_555
N6 C12_4 1_555 1_555
N1_4 Sc2_2 1_555 1_555
C3_4 N1_4 1_555 1_555
H2_4 C3_4 1_555 1_555
O9 C4_4 1_555 1_555
C4_4 O4_2 1_555 1_555
C5_4 C3_4 1_555 1_555
O5_4 Sc2_2 1_555 1_555
C7_4 O5_4 1_555 1_555
O6_2 C7_4 1_555 1_555
C4_4 C5_4 1_555 1_555
C7_4 C8_4 1_555 1_555
O6_2 H1_5 1_555 1_555
O6 H1_6 1_555 1_555
O8_2 H1_7 1_555 1_555
O8 H1_8 1_555 1_555
O4 H1_9 1_555 1_555
O4_2 H1_10 1_555 1_555
O8_4 H1_11 1_555 1_555
O8_3 H1_12 1_555 1_555
O6_3 H1_13 1_555 1_555
O4_3 H1_14 1_555 1_555
O6_4 H1_15 1_555 1_555
O4_4 H1_16 1_555 1_555

#END
