
###############################################################################
#
# This file contains modified crystal structure data generated from the
# MOF subset of the Cambridge Structural Database (CSD) v543 
# hosted by the Cambridge Crystallographic Data Centre (CCDC).
#
# This work is licensed under the Creative Commons
# Attribution-NonCommercial-ShareAlike 4.0 International License.
# To view a copy of this license, visit
# http://creativecommons.org/licenses/by-nc-sa/4.0/
# or send a letter to
# Creative Commons, PO Box 1866, Mountain View, CA 94042, USA.
#
# CIF created using the CSD Python API on 29 September 2022
# The structure has been converted into the P1 space group
# The structure has a 3D framework
# The original CSD entry OMORUE is in the tetragonal crystal system
# The original CSD entry OMORUE is in a Sohncke space group
# The framework has been calculated to contain at least 10.0% void space
# The void calculation uses a probe of radius 1.32A, grid spacing 0.4
# The framework is charged, counterions have been retained in the structure
#
###############################################################################

data_OMORUE
_chemical_formula_moiety         '(C72 H56 B5 Cu8 F16 N32 O13 S8 1+)n'
_symmetry_cell_setting           triclinic
_symmetry_space_group_name_H-M   'P 1'
_symmetry_Int_Tables_number      1
_space_group_name_Hall           'P 1'
loop_
_symmetry_equiv_pos_site_id
_symmetry_equiv_pos_as_xyz
1 x,y,z
_cell_length_a                   12.9021(18)
_cell_length_b                   12.9021(18)
_cell_length_c                   28.909(6)
_cell_angle_alpha                90
_cell_angle_beta                 90
_cell_angle_gamma                90
_cell_volume                     4812.31
loop_
_atom_site_label
_atom_site_type_symbol
_atom_site_fract_x
_atom_site_fract_y
_atom_site_fract_z
C9 C 0.0076(16) 0.0932(11) 0.1304(4)
H5 H 0.0264 0.0214 0.1328
H7 H 0.0680 0.1355 0.1352
C18 C 0.0932(11) 0.0076(16) 0.8696(4)
H12 H 0.0214 0.0264 0.8672
H14 H 0.1355 0.0680 0.8648
Cu4 Cu 0.49537(6) 0.63143(8) 0.21035(2)
O3 O 0.1168(4) 0.8501(5) 0.07593(16)
C10 C 0.2101(6) 0.8314(8) 0.0611(3)
C11 C 0.2824(6) 0.7885(7) 0.0957(3)
N6 N 0.2455(6) 0.8449(8) 0.0188(2)
C13 C 0.2596(7) 0.7930(8) 0.1422(3)
H8 H 0.1999 0.8269 0.1519
N8 N 0.4110(5) 0.6986(5) 0.16181(19)
C14 C 0.3740(6) 0.7438(8) 0.0831(3)
H9 H 0.3948 0.7422 0.0523
C15 C 0.4357(6) 0.7003(8) 0.1179(3)
H10 H 0.4985 0.6707 0.1093
C16 C 0.3215(7) 0.7497(8) 0.1736(3)
H11 H 0.3034 0.7542 0.2046
O2 O 0.8501(5) 0.1168(4) 0.92407(16)
C1 C 0.8314(8) 0.2101(6) 0.9389(3)
C2 C 0.7885(7) 0.2824(6) 0.9043(3)
N2 N 0.8449(8) 0.2455(6) 0.9812(2)
C4 C 0.7930(8) 0.2596(7) 0.8578(3)
H1 H 0.8269 0.1999 0.8481
N3 N 0.6986(5) 0.4110(5) 0.83819(19)
C5 C 0.7438(8) 0.3740(6) 0.9169(3)
H2 H 0.7422 0.3948 0.9477
C6 C 0.7003(8) 0.4357(6) 0.8821(3)
H3 H 0.6707 0.4985 0.8907
C7 C 0.7497(8) 0.3215(7) 0.8264(3)
H4 H 0.7542 0.3034 0.7954
Cu3 Cu 0.63143(8) 0.49537(6) 0.78965(2)
O1 O 0.8766(3) 0.8766(3) 0.0000
Cu2 Cu 0.99537(6) 0.86857(8) 0.03965(2)
N9 N 0.9110(5) 0.8014(5) 0.08819(19)
Cu1 Cu 0.86857(8) 0.99537(6) 0.96035(2)
O1_2 O 0.8766(3) 0.8766(3) 1.0000
N7 N 0.8014(5) 0.9110(5) 0.91181(19)
Cu1_2 Cu 0.13143(8) 0.00463(6) 0.46035(2)
O1_3 O 0.1234(3) 0.1234(3) 0.5000
Cu2_2 Cu 0.00463(6) 0.13143(8) 0.53965(2)
N7_2 N 0.1986(5) 0.0890(5) 0.41181(19)
N9_2 N 0.0890(5) 0.1986(5) 0.58819(19)
S1 S 0.0756(4) 0.7633(2) 0.56609(10)
N1 N 0.0942(6) 0.9163(5) 0.5120(2)
O2_2 O 0.1499(5) 0.8832(4) 0.42407(16)
C1_2 C 0.1686(8) 0.7899(6) 0.4389(3)
C2_2 C 0.2115(7) 0.7176(6) 0.4043(3)
C3 C 0.1117(11) 0.8176(7) 0.5139(3)
N2_2 N 0.1551(8) 0.7545(6) 0.4812(2)
C4_2 C 0.2070(8) 0.7404(7) 0.3578(3)
H1_2 H 0.1731 0.8001 0.3481
N3_2 N 0.3014(5) 0.5890(5) 0.33819(19)
C5_2 C 0.2562(8) 0.6260(6) 0.4169(3)
H2_2 H 0.2578 0.6052 0.4477
C6_2 C 0.2997(8) 0.5643(6) 0.3821(3)
H3_2 H 0.3293 0.5015 0.3907
C7_2 C 0.2503(8) 0.6785(7) 0.3264(3)
H4_2 H 0.2458 0.6966 0.2954
C8 C 0.0365(12) 0.8856(9) 0.5827(3)
H6 H 0.0435 0.8906 0.6534
Cu3_2 Cu 0.36857(8) 0.50463(6) 0.28965(2)
N10 N 0.0486(6) 0.9554(7) 0.5524(2)
N4 N 0.9554(7) 0.0486(6) 0.4476(2)
Cu4_2 Cu 0.50463(6) 0.36857(8) 0.71035(2)
S2 S 0.7633(2) 0.0756(4) 0.43391(10)
N5 N 0.9163(5) 0.0942(6) 0.4880(2)
O3_2 O 0.8832(4) 0.1499(5) 0.57593(16)
C10_2 C 0.7899(6) 0.1686(8) 0.5611(3)
C11_2 C 0.7176(6) 0.2115(7) 0.5957(3)
C12 C 0.8176(7) 0.1117(11) 0.4861(3)
N6_2 N 0.7545(6) 0.1551(8) 0.5188(2)
C13_2 C 0.7404(7) 0.2070(8) 0.6422(3)
H8_2 H 0.8001 0.1731 0.6519
N8_2 N 0.5890(5) 0.3014(5) 0.66181(19)
C14_2 C 0.6260(6) 0.2562(8) 0.5831(3)
H9_2 H 0.6052 0.2578 0.5523
C15_2 C 0.5643(6) 0.2997(8) 0.6179(3)
H10_2 H 0.5015 0.3293 0.6093
C16_2 C 0.6785(7) 0.2503(8) 0.6736(3)
H11_2 H 0.6966 0.2458 0.7046
C17 C 0.8856(9) 0.0365(12) 0.4173(3)
H13 H 0.8906 0.0435 0.3466
O1_4 O 0.6234(3) 0.3766(3) 0.7500
S1_2 S 0.2633(2) 0.4244(4) 0.81609(10)
N1_2 N 0.4163(5) 0.4058(6) 0.7620(2)
O2_3 O 0.3832(4) 0.3501(5) 0.67407(16)
C1_3 C 0.2899(6) 0.3314(8) 0.6889(3)
C2_3 C 0.2176(6) 0.2885(7) 0.6543(3)
C3_2 C 0.3176(7) 0.3883(11) 0.7639(3)
N2_3 N 0.2545(6) 0.3449(8) 0.7312(2)
C4_3 C 0.2404(7) 0.2930(8) 0.6078(3)
H1_3 H 0.3001 0.3269 0.5981
C5_3 C 0.1260(6) 0.2438(8) 0.6669(3)
H2_3 H 0.1052 0.2422 0.6977
C6_3 C 0.0643(6) 0.2003(8) 0.6321(3)
H3_3 H 0.0015 0.1707 0.6407
C7_3 C 0.1785(7) 0.2497(8) 0.5764(3)
H4_3 H 0.1966 0.2542 0.5454
C8_2 C 0.3856(9) 0.4635(12) 0.8327(3)
N4_2 N 0.5486(6) 0.5446(7) 0.6976(2)
C9_2 C 0.4068(11) 0.5076(16) 0.8804(4)
H5_2 H 0.4786 0.5264 0.8828
H6_2 H 0.3906 0.4565 0.9034
H7_2 H 0.3645 0.5680 0.8852
S2_2 S 0.5756(4) 0.7367(2) 0.68391(10)
N5_2 N 0.5942(6) 0.5837(5) 0.7380(2)
O3_3 O 0.6499(5) 0.6168(4) 0.82593(16)
C10_3 C 0.6686(8) 0.7101(6) 0.8111(3)
C11_3 C 0.7115(7) 0.7824(6) 0.8457(3)
C12_2 C 0.6117(11) 0.6824(7) 0.7361(3)
N6_3 N 0.6551(8) 0.7455(6) 0.7688(2)
C13_3 C 0.7070(8) 0.7596(7) 0.8922(3)
H8_3 H 0.6731 0.6999 0.9019
C14_3 C 0.7562(8) 0.8740(6) 0.8331(3)
H9_3 H 0.7578 0.8948 0.8023
C15_3 C 0.7997(8) 0.9357(6) 0.8679(3)
H10_3 H 0.8293 0.9985 0.8593
C16_3 C 0.7503(8) 0.8215(7) 0.9236(3)
H11_3 H 0.7458 0.8034 0.9546
C17_2 C 0.5365(12) 0.6144(9) 0.6673(3)
N10_2 N 0.4554(7) 0.4514(6) 0.8024(2)
C18_2 C 0.4924(16) 0.5932(11) 0.6196(4)
H12_2 H 0.4736 0.5214 0.6172
H13_2 H 0.5435 0.6094 0.5966
H14_2 H 0.4320 0.6355 0.6148
O1_5 O 0.3766(3) 0.6234(3) 0.2500
S1_3 S 0.7367(2) 0.5756(4) 0.31609(10)
N1_3 N 0.5837(5) 0.5942(6) 0.2620(2)
O2_4 O 0.6168(4) 0.6499(5) 0.17407(16)
C1_4 C 0.7101(6) 0.6686(8) 0.1889(3)
C2_4 C 0.7824(6) 0.7115(7) 0.1543(3)
C3_3 C 0.6824(7) 0.6117(11) 0.2639(3)
N2_4 N 0.7455(6) 0.6551(8) 0.2312(2)
C4_4 C 0.7596(7) 0.7070(8) 0.1078(3)
H1_4 H 0.6999 0.6731 0.0981
C5_4 C 0.8740(6) 0.7562(8) 0.1669(3)
H2_4 H 0.8948 0.7578 0.1977
C6_4 C 0.9357(6) 0.7997(8) 0.1321(3)
H3_4 H 0.9985 0.8293 0.1407
C7_4 C 0.8215(7) 0.7503(8) 0.0764(3)
H4_4 H 0.8034 0.7458 0.0454
C8_3 C 0.6144(9) 0.5365(12) 0.3327(3)
N4_3 N 0.4514(6) 0.4554(7) 0.1976(2)
C9_3 C 0.5932(11) 0.4924(16) 0.3804(4)
H5_3 H 0.5214 0.4736 0.3828
H6_3 H 0.6094 0.5435 0.4034
H7_3 H 0.6355 0.4320 0.3852
S2_3 S 0.4244(4) 0.2633(2) 0.18391(10)
N5_3 N 0.4058(6) 0.4163(5) 0.2380(2)
O3_4 O 0.3501(5) 0.3832(4) 0.32593(16)
C10_4 C 0.3314(8) 0.2899(6) 0.3111(3)
C11_4 C 0.2885(7) 0.2176(6) 0.3457(3)
C12_3 C 0.3883(11) 0.3176(7) 0.2361(3)
N6_4 N 0.3449(8) 0.2545(6) 0.2688(2)
C13_4 C 0.2930(8) 0.2404(7) 0.3922(3)
H8_4 H 0.3269 0.3001 0.4019
C14_4 C 0.2438(8) 0.1260(6) 0.3331(3)
H9_4 H 0.2422 0.1052 0.3023
C15_4 C 0.2003(8) 0.0643(6) 0.3679(3)
H10_4 H 0.1707 0.0015 0.3593
C16_4 C 0.2497(8) 0.1785(7) 0.4236(3)
H11_4 H 0.2542 0.1966 0.4546
C17_3 C 0.4635(12) 0.3856(9) 0.1673(3)
N10_3 N 0.5446(7) 0.5486(6) 0.3024(2)
C18_3 C 0.5076(16) 0.4068(11) 0.1196(4)
H12_3 H 0.5264 0.4786 0.1172
H13_3 H 0.4565 0.3906 0.0966
H14_3 H 0.5680 0.3645 0.1148
N4_4 N 0.0446(7) 0.9514(6) 0.9476(2)
S2_4 S 0.2367(2) 0.9244(4) 0.93391(10)
N5_4 N 0.0837(5) 0.9058(6) 0.9880(2)
C12_4 C 0.1824(7) 0.8883(11) 0.9861(3)
C17_4 C 0.1144(9) 0.9635(12) 0.9173(3)
H13_4 H 0.1094 0.9565 0.8466
S1_4 S 0.9244(4) 0.2367(2) 0.06609(10)
N1_4 N 0.9058(6) 0.0837(5) 0.0120(2)
C3_4 C 0.8883(11) 0.1824(7) 0.0139(3)
C8_4 C 0.9635(12) 0.1144(9) 0.0827(3)
H6_4 H 0.9565 0.1094 0.1534
N10_4 N 0.9514(6) 0.0446(7) 0.0524(2)
C9_4 C 0.9924(16) 0.9068(11) 0.6304(4)
H5_4 H 0.9736 0.9786 0.6328
H7_4 H 0.9320 0.8645 0.6352
C18_4 C 0.9068(11) 0.9924(16) 0.3696(4)
H12_4 H 0.9786 0.9736 0.3672
H14_4 H 0.8645 0.9320 0.3648
F1 F 0.9448(15) 0.0720(17) 0.7860(4)
F2 F 0.8255(17) 0.0988(17) 0.7692(7)
B1 B 0.908(2) 0.092(2) 0.7500
F3 F 0.9280(17) 0.0552(15) 0.7140(4)
F4 F 0.9012(17) 0.1745(17) 0.7308(7)
F1_2 F 0.0552(15) 0.9280(17) 0.2860(4)
F2_2 F 0.1745(17) 0.9012(17) 0.2692(7)
B1_2 B 0.092(2) 0.908(2) 0.2500
F3_2 F 0.0720(17) 0.9448(15) 0.2140(4)
F4_2 F 0.0988(17) 0.8255(17) 0.2308(7)
F1_3 F 0.4280(17) 0.4448(15) 0.5360(4)
F2_3 F 0.4012(17) 0.3255(17) 0.5192(7)
B1_3 B 0.408(2) 0.408(2) 0.5000
F3_3 F 0.4448(15) 0.4280(17) 0.4640(4)
F4_3 F 0.3255(17) 0.4012(17) 0.4808(7)
F1_4 F 0.5720(17) 0.5552(15) 0.0360(4)
F2_4 F 0.5988(17) 0.6745(17) 0.0192(7)
B1_4 B 0.592(2) 0.592(2) 0.0000
B1_5 B 0.592(2) 0.592(2) 1.0000
F3_4 F 0.5552(15) 0.5720(17) 0.9640(4)
F4_4 F 0.6745(17) 0.5988(17) 0.9808(7)
loop_
_geom_bond_atom_site_label_1
_geom_bond_atom_site_label_2
_geom_bond_site_symmetry_1
_geom_bond_site_symmetry_2
H5 C9 1_555 1_555
H7 C9 1_555 1_555
H12 C18 1_555 1_555
H14 C18 1_555 1_555
Cu4 N8 1_555 1_555
C10 O3 1_555 1_555
C11 C10 1_555 1_555
N6 C10 1_555 1_555
C13 C11 1_555 1_555
H8 C13 1_555 1_555
N8 C15 1_555 1_555
C14 C11 1_555 1_555
H9 C14 1_555 1_555
C15 C14 1_555 1_555
H10 C15 1_555 1_555
C16 C13 1_555 1_555
H11 C16 1_555 1_555
N8 C16 1_555 1_555
C1 O2 1_555 1_555
C2 C1 1_555 1_555
N2 C1 1_555 1_555
C4 C2 1_555 1_555
H1 C4 1_555 1_555
N3 C6 1_555 1_555
C5 C2 1_555 1_555
H2 C5 1_555 1_555
C6 C5 1_555 1_555
H3 C6 1_555 1_555
C7 C4 1_555 1_555
H4 C7 1_555 1_555
Cu3 N3 1_555 1_555
N3 C7 1_555 1_555
O1 Cu2 1_555 1_555
N9 Cu2 1_555 1_555
Cu1 O1_2 1_555 1_555
N7 Cu1 1_555 1_555
Cu1_2 O1_3 1_555 1_555
O1_3 Cu2_2 1_555 1_555
N7_2 Cu1_2 1_555 1_555
N9_2 Cu2_2 1_555 1_555
S1 C3 1_555 1_555
C1_2 O2_2 1_555 1_555
C2_2 C1_2 1_555 1_555
C3 N1 1_555 1_555
N2_2 C1_2 1_555 1_555
C4_2 C2_2 1_555 1_555
H1_2 C4_2 1_555 1_555
N3_2 C6_2 1_555 1_555
C5_2 C2_2 1_555 1_555
H2_2 C5_2 1_555 1_555
C6_2 C5_2 1_555 1_555
H3_2 C6_2 1_555 1_555
C7_2 C4_2 1_555 1_555
H4_2 C7_2 1_555 1_555
C8 S1 1_555 1_555
Cu3_2 N3_2 1_555 1_555
N10 N1 1_555 1_555
C3 N2_2 1_555 1_555
N3_2 C7_2 1_555 1_555
C8 N10 1_555 1_555
Cu4_2 N8_2 1_555 1_555
S2 C12 1_555 1_555
N5 N4 1_555 1_555
C10_2 O3_2 1_555 1_555
C11_2 C10_2 1_555 1_555
C12 N5 1_555 1_555
N6_2 C10_2 1_555 1_555
C13_2 C11_2 1_555 1_555
H8_2 C13_2 1_555 1_555
N8_2 C15_2 1_555 1_555
C14_2 C11_2 1_555 1_555
H9_2 C14_2 1_555 1_555
C15_2 C14_2 1_555 1_555
H10_2 C15_2 1_555 1_555
C16_2 C13_2 1_555 1_555
H11_2 C16_2 1_555 1_555
C17 N4 1_555 1_555
S2 C17 1_555 1_555
C12 N6_2 1_555 1_555
N8_2 C16_2 1_555 1_555
Cu4_2 O1_4 1_555 1_555
O1_4 Cu3 1_555 1_555
S1_2 C3_2 1_555 1_555
N1_2 Cu4_2 1_555 1_555
O2_3 Cu4_2 1_555 1_555
C1_3 O2_3 1_555 1_555
C2_3 C1_3 1_555 1_555
C3_2 N1_2 1_555 1_555
N2_3 C1_3 1_555 1_555
C4_3 C2_3 1_555 1_555
H1_3 C4_3 1_555 1_555
N9_2 C6_3 1_555 1_555
C5_3 C2_3 1_555 1_555
H2_3 C5_3 1_555 1_555
C6_3 C5_3 1_555 1_555
H3_3 C6_3 1_555 1_555
C7_3 C4_3 1_555 1_555
H4_3 C7_3 1_555 1_555
C8_2 S1_2 1_555 1_555
N4_2 Cu4_2 1_555 1_555
C9_2 C8_2 1_555 1_555
H5_2 C9_2 1_555 1_555
H6_2 C9_2 1_555 1_555
H7_2 C9_2 1_555 1_555
Cu3 N5_2 1_555 1_555
S2_2 C12_2 1_555 1_555
N5_2 N4_2 1_555 1_555
O3_3 Cu3 1_555 1_555
C10_3 O3_3 1_555 1_555
C11_3 C10_3 1_555 1_555
C12_2 N5_2 1_555 1_555
N6_3 C10_3 1_555 1_555
C13_3 C11_3 1_555 1_555
H8_3 C13_3 1_555 1_555
N7 C15_3 1_555 1_555
C14_3 C11_3 1_555 1_555
H9_3 C14_3 1_555 1_555
C15_3 C14_3 1_555 1_555
H10_3 C15_3 1_555 1_555
C16_3 C13_3 1_555 1_555
H11_3 C16_3 1_555 1_555
C17_2 N4_2 1_555 1_555
N10_2 N1_2 1_555 1_555
C18_2 C17_2 1_555 1_555
H12_2 C18_2 1_555 1_555
H13_2 C18_2 1_555 1_555
H14_2 C18_2 1_555 1_555
C3_2 N2_3 1_555 1_555
N9_2 C7_3 1_555 1_555
C8_2 N10_2 1_555 1_555
Cu3 N10_2 1_555 1_555
S2_2 C17_2 1_555 1_555
C12_2 N6_3 1_555 1_555
N7 C16_3 1_555 1_555
Cu4 O1_5 1_555 1_555
O1_5 Cu3_2 1_555 1_555
S1_3 C3_3 1_555 1_555
N1_3 Cu4 1_555 1_555
O2_4 Cu4 1_555 1_555
C1_4 O2_4 1_555 1_555
C2_4 C1_4 1_555 1_555
C3_3 N1_3 1_555 1_555
N2_4 C1_4 1_555 1_555
C4_4 C2_4 1_555 1_555
H1_4 C4_4 1_555 1_555
N9 C6_4 1_555 1_555
C5_4 C2_4 1_555 1_555
H2_4 C5_4 1_555 1_555
C6_4 C5_4 1_555 1_555
H3_4 C6_4 1_555 1_555
C7_4 C4_4 1_555 1_555
H4_4 C7_4 1_555 1_555
C8_3 S1_3 1_555 1_555
N4_3 Cu4 1_555 1_555
C9_3 C8_3 1_555 1_555
H5_3 C9_3 1_555 1_555
H6_3 C9_3 1_555 1_555
H7_3 C9_3 1_555 1_555
Cu3_2 N5_3 1_555 1_555
S2_3 C12_3 1_555 1_555
N5_3 N4_3 1_555 1_555
O3_4 Cu3_2 1_555 1_555
C10_4 O3_4 1_555 1_555
C11_4 C10_4 1_555 1_555
C12_3 N5_3 1_555 1_555
N6_4 C10_4 1_555 1_555
C13_4 C11_4 1_555 1_555
H8_4 C13_4 1_555 1_555
N7_2 C15_4 1_555 1_555
C14_4 C11_4 1_555 1_555
H9_4 C14_4 1_555 1_555
C15_4 C14_4 1_555 1_555
H10_4 C15_4 1_555 1_555
C16_4 C13_4 1_555 1_555
H11_4 C16_4 1_555 1_555
C17_3 N4_3 1_555 1_555
N10_3 N1_3 1_555 1_555
C18_3 C17_3 1_555 1_555
H12_3 C18_3 1_555 1_555
H13_3 C18_3 1_555 1_555
H14_3 C18_3 1_555 1_555
C3_3 N2_4 1_555 1_555
N9 C7_4 1_555 1_555
C8_3 N10_3 1_555 1_555
Cu3_2 N10_3 1_555 1_555
S2_3 C17_3 1_555 1_555
C12_3 N6_4 1_555 1_555
N7_2 C16_4 1_555 1_555
S2_4 C12_4 1_555 1_555
N5_4 N4_4 1_555 1_555
C12_4 N5_4 1_555 1_555
C17_4 N4_4 1_555 1_555
S2_4 C17_4 1_555 1_555
S1_4 C3_4 1_555 1_555
C3_4 N1_4 1_555 1_555
C8_4 S1_4 1_555 1_555
N10_4 N1_4 1_555 1_555
C8_4 N10_4 1_555 1_555
H5_4 C9_4 1_555 1_555
H7_4 C9_4 1_555 1_555
H12_4 C18_4 1_555 1_555
H14_4 C18_4 1_555 1_555
F1 B1 1_555 1_555
F2 B1 1_555 1_555
B1 F3 1_555 1_555
F4 B1 1_555 1_555
F1_2 B1_2 1_555 1_555
F2_2 B1_2 1_555 1_555
B1_2 F3_2 1_555 1_555
F4_2 B1_2 1_555 1_555
F1_3 B1_3 1_555 1_555
F2_3 B1_3 1_555 1_555
B1_3 F3_3 1_555 1_555
F4_3 B1_3 1_555 1_555
F1_4 B1_4 1_555 1_555
F2_4 B1_4 1_555 1_555
B1_5 F3_4 1_555 1_555
F4_4 B1_5 1_555 1_555

#END
