
###############################################################################
#
# This file contains modified crystal structure data generated from the
# MOF subset of the Cambridge Structural Database (CSD) v543 
# hosted by the Cambridge Crystallographic Data Centre (CCDC).
#
# This work is licensed under the Creative Commons
# Attribution-NonCommercial-ShareAlike 4.0 International License.
# To view a copy of this license, visit
# http://creativecommons.org/licenses/by-nc-sa/4.0/
# or send a letter to
# Creative Commons, PO Box 1866, Mountain View, CA 94042, USA.
#
# CIF created using the CSD Python API on 29 September 2022
# The structure has been converted into the P1 space group
# The structure has a 3D framework
# The original CSD entry ONABAI is in the triclinic crystal system
# The framework has been calculated to contain at least 10.0% void space
# The void calculation uses a probe of radius 1.32A, grid spacing 0.4
#
###############################################################################

data_ONABAI
_chemical_formula_moiety         '(C82 H58 Mn2 N14 O8)n'
_symmetry_cell_setting           triclinic
_symmetry_space_group_name_H-M   'P 1'
_symmetry_Int_Tables_number      1
_space_group_name_Hall           'P 1'
loop_
_symmetry_equiv_pos_site_id
_symmetry_equiv_pos_as_xyz
1 x,y,z
_cell_length_a                   12.066(5)
_cell_length_b                   13.811(5)
_cell_length_c                   14.049(5)
_cell_angle_alpha                112.881(5)
_cell_angle_beta                 108.646(5)
_cell_angle_gamma                90.139(5)
_cell_volume                     2022.09
loop_
_atom_site_label
_atom_site_type_symbol
_atom_site_fract_x
_atom_site_fract_y
_atom_site_fract_z
N2 N 0.02970(17) 0.80423(15) 0.65933(16)
N3 N 0.55951(17) 0.28894(15) 0.65493(16)
N4 N 0.24214(18) 0.48257(15) 0.41824(15)
N5 N 0.67611(18) 0.17506(16) 0.69123(17)
C2 C 0.0897(2) 0.72652(18) 0.60092(19)
C3 C 0.4766(2) 0.33666(18) 0.59456(19)
C7 C 0.1930(2) 0.56788(17) 0.48151(19)
C9 C 0.1947(2) 0.43699(17) 0.30253(18)
C10 C 0.4146(2) 0.49236(18) 0.5711(2)
H3 H 0.4258 0.5658 0.5948
C11 C 0.3043(2) 0.32224(18) 0.4440(2)
H4 H 0.2402 0.2804 0.3822
C12 C 0.4920(2) 0.44536(19) 0.6302(2)
H5 H 0.5542 0.4871 0.6939
C13 C 0.2079(2) 0.32052(19) 0.1279(2)
H6 H 0.2490 0.2745 0.0881
C14 C 0.0868(2) 0.4580(2) 0.2458(2)
H7 H 0.0456 0.5048 0.2847
C16 C 0.3203(2) 0.43110(17) 0.47688(18)
C17 C 0.1855(2) 0.66155(19) 0.4681(2)
H8 H 0.2157 0.6715 0.4188
C19 C 0.1331(2) 0.74140(18) 0.5274(2)
H9 H 0.1274 0.8042 0.5175
C20 C 0.2546(2) 0.36753(18) 0.24086(19)
H10 H 0.3274 0.3529 0.2770
C23 C 0.0403(2) 0.4103(2) 0.1322(2)
C24 C 0.1519(2) 0.55540(19) 0.5578(2)
H14 H 0.1586 0.4931 0.5688
C25 C 0.0282(2) 0.8260(2) 0.7628(2)
H15 H 0.0704 0.7971 0.8109
C26 C 0.1011(2) 0.6348(2) 0.6179(2)
H16 H 0.0745 0.6263 0.6699
C27 C 0.3827(2) 0.27480(18) 0.50223(19)
H17 H 0.3719 0.2014 0.4790
C29 C 0.5942(2) 0.19272(19) 0.6143(2)
H19 H 0.5637 0.1448 0.5408
C30 C 0.1003(2) 0.34140(18) 0.07328(19)
C34 C 0.6230(3) 0.3335(2) 0.7654(2)
H23 H 0.6184 0.3995 0.8164
C40 C 0.6929(3) 0.2637(2) 0.7859(2)
H28 H 0.7458 0.2741 0.8549
Mn4 Mn 0.77981(3) 0.03819(3) 0.67661(3)
N6 N 0.90632(17) 0.92085(15) 0.69040(16)
O2 O 0.84804(19) 0.04328(16) 0.52794(15)
C22 C 0.9547(2) 0.86343(18) 0.6195(2)
H12 H 0.9394 0.8634 0.5503
H13 H 0.9679 0.4249 0.0952
C36 C 0.9535(2) 0.8971(2) 0.7807(2)
H24 H 0.9359 0.9264 0.8451
O3 O 0.76525(18) 0.05034(16) 0.87284(17)
N7 N 0.93375(17) 0.16458(15) 0.79521(16)
C31 C 0.9740(2) 0.19471(19) 0.9018(2)
H20 H 0.9541 0.1561 0.9370
C41 C 0.9848(3) 0.2416(2) 0.7788(2)
H29 H 0.9735 0.2421 0.7104
O1 O 0.67743(18) 0.96253(15) 0.50167(14)
H1 H 0.7238 0.9867 0.0058
C5 C 0.6408(2) 0.90536(18) 0.11664(19)
C6 C 0.5592(2) 0.9028(2) 0.1665(2)
H2 H 0.4793 0.8833 0.1240
C8 C 0.7126(2) 0.95836(18) 0.34378(18)
C28 C 0.5947(2) 0.9288(2) 0.2786(2)
H18 H 0.5384 0.9264 0.3103
C33 C 0.7600(2) 0.9319(2) 0.1824(2)
H22 H 0.8166 0.9318 0.1503
C35 C 0.7495(3) 0.98972(19) 0.4656(2)
C38 C 0.7959(2) 0.9583(2) 0.2944(2)
H26 H 0.8759 0.9760 0.3368
C1 C 0.6009(2) 0.88097(18) 0.99688(19)
O4 O 0.65763(18) 0.94548(15) 0.70298(15)
C4 C 0.6592(2) 0.93491(18) 0.95685(19)
C15 C 0.6227(2) 0.91294(18) 0.84524(19)
C18 C 0.6864(2) 0.9745(2) 0.8050(2)
C21 C 0.5044(2) 0.8052(2) 0.9217(2)
H11 H 0.4637 0.7683 0.9463
C32 C 0.4672(3) 0.7834(2) 0.8105(2)
H21 H 0.4018 0.7326 0.7614
C37 C 0.5267(3) 0.8367(2) 0.7725(2)
H25 H 0.5020 0.8213 0.6977
N1 N 0.04688(17) 0.28684(15) 0.95523(16)
C39 C 0.0543(3) 0.3175(3) 0.8764(2)
H27 H 0.0986 0.3786 0.8873
C1_2 C 0.3991(2) 0.11903(18) 0.00312(19)
O4_2 O 0.34237(18) 0.05452(15) 0.29702(15)
C4_2 C 0.3408(2) 0.06509(18) 0.04315(19)
C15_2 C 0.3773(2) 0.08706(18) 0.15476(19)
C18_2 C 0.3136(2) 0.0255(2) 0.1950(2)
C21_2 C 0.4956(2) 0.1948(2) 0.0783(2)
H11_2 H 0.5363 0.2317 0.0537
C32_2 C 0.5328(3) 0.2166(2) 0.1895(2)
H21_2 H 0.5982 0.2674 0.2386
C37_2 C 0.4733(3) 0.1633(2) 0.2275(2)
H25_2 H 0.4980 0.1787 0.3023
O5 O 0.32257(18) 0.03747(15) 0.49833(14)
N9 N 0.09368(17) 0.07915(15) 0.30960(16)
H1_2 H 0.2762 0.0133 0.9942
C5_2 C 0.3592(2) 0.09464(18) 0.88336(19)
C6_2 C 0.4408(2) 0.0972(2) 0.8335(2)
H2_2 H 0.5207 0.1167 0.8760
C8_2 C 0.2874(2) 0.04164(18) 0.65622(18)
C28_2 C 0.4053(2) 0.0712(2) 0.7214(2)
H18_2 H 0.4616 0.0736 0.6897
C33_2 C 0.2400(2) 0.0681(2) 0.8176(2)
H22_2 H 0.1834 0.0682 0.8497
C35_2 C 0.2505(3) 0.01028(19) 0.5344(2)
C38_2 C 0.2041(2) 0.0417(2) 0.7056(2)
H26_2 H 0.1241 0.0240 0.6632
Mn1 Mn 0.22019(3) 0.96181(3) 0.32339(3)
O3_2 O 0.23475(18) 0.94966(16) 0.12716(17)
N7_2 N 0.06625(17) 0.83542(15) 0.20479(16)
C31_2 C 0.0260(2) 0.80529(19) 0.0982(2)
H20_2 H 0.0459 0.8439 0.0630
C41_2 C 0.0152(3) 0.7584(2) 0.2212(2)
H29_2 H 0.0265 0.7579 0.2896
N8 N 0.32389(18) 0.82494(16) 0.30877(17)
O2_2 O 0.15196(19) 0.95672(16) 0.47206(15)
C22_2 C 0.0453(2) 0.13657(18) 0.3805(2)
H12_2 H 0.0606 0.1366 0.4497
H13_2 H 0.0321 0.5751 0.9048
C36_2 C 0.0465(2) 0.1029(2) 0.2193(2)
H24_2 H 0.0641 0.0736 0.1549
N2_2 N 0.97030(17) 0.19577(15) 0.34067(16)
N3_2 N 0.44049(17) 0.71106(15) 0.34507(16)
N4_2 N 0.75786(18) 0.51743(15) 0.58176(15)
C2_2 C 0.9103(2) 0.27348(18) 0.39908(19)
C3_2 C 0.5234(2) 0.66334(18) 0.40544(19)
C7_2 C 0.8070(2) 0.43212(17) 0.51849(19)
C9_2 C 0.8053(2) 0.56301(17) 0.69747(18)
C10_2 C 0.5854(2) 0.50764(18) 0.4289(2)
H3_2 H 0.5742 0.4342 0.4052
C11_2 C 0.6957(2) 0.67776(18) 0.5560(2)
H4_2 H 0.7598 0.7196 0.6178
C12_2 C 0.5080(2) 0.55464(19) 0.3698(2)
H5_2 H 0.4458 0.5129 0.3061
C13_2 C 0.7921(2) 0.67948(19) 0.8721(2)
H6_2 H 0.7510 0.7255 0.9119
C14_2 C 0.9132(2) 0.5420(2) 0.7542(2)
H7_2 H 0.9544 0.4952 0.7153
C16_2 C 0.6797(2) 0.56890(17) 0.52312(18)
C17_2 C 0.8145(2) 0.33845(19) 0.5319(2)
H8_2 H 0.7843 0.3285 0.5812
C19_2 C 0.8669(2) 0.25860(18) 0.4726(2)
H9_2 H 0.8726 0.1958 0.4825
C20_2 C 0.7454(2) 0.63247(18) 0.75914(19)
H10_2 H 0.6726 0.6471 0.7230
C23_2 C 0.9597(2) 0.5897(2) 0.8678(2)
C24_2 C 0.8481(2) 0.44460(19) 0.4422(2)
H14_2 H 0.8414 0.5069 0.4312
C25_2 C 0.9718(2) 0.1740(2) 0.2372(2)
H15_2 H 0.9296 0.2029 0.1891
C26_2 C 0.8989(2) 0.3652(2) 0.3821(2)
H16_2 H 0.9255 0.3737 0.3301
C27_2 C 0.6173(2) 0.72520(18) 0.49777(19)
H17_2 H 0.6281 0.7986 0.5210
C29_2 C 0.4058(2) 0.80728(19) 0.3857(2)
H19_2 H 0.4363 0.8552 0.4592
C30_2 C 0.8997(2) 0.65860(18) 0.92672(19)
C34_2 C 0.3770(3) 0.6665(2) 0.2346(2)
H23_2 H 0.3816 0.6005 0.1836
C40_2 C 0.3071(3) 0.7363(2) 0.2141(2)
H28_2 H 0.2542 0.7259 0.1451
N1_2 N 0.95312(17) 0.71316(15) 0.04477(16)
C39_2 C 0.9457(3) 0.6825(3) 0.1236(2)
H27_2 H 0.9014 0.6214 0.1127
loop_
_geom_bond_atom_site_label_1
_geom_bond_atom_site_label_2
_geom_bond_site_symmetry_1
_geom_bond_site_symmetry_2
N2 C2 1_555 1_555
N3 C3 1_555 1_555
N4 C7 1_555 1_555
N5 C29 1_555 1_555
C2 C19 1_555 1_555
C3 C12 1_555 1_555
C7 C17 1_555 1_555
C9 N4 1_555 1_555
C10 H3 1_555 1_555
C11 H4 1_555 1_555
C12 C10 1_555 1_555
H5 C12 1_555 1_555
C13 H6 1_555 1_555
C14 C9 1_555 1_555
H7 C14 1_555 1_555
C16 N4 1_555 1_555
C17 H8 1_555 1_555
C19 C17 1_555 1_555
H9 C19 1_555 1_555
C20 C9 1_555 1_555
H10 C20 1_555 1_555
C23 C14 1_555 1_555
C24 C7 1_555 1_555
H14 C24 1_555 1_555
C25 N2 1_555 1_555
H15 C25 1_555 1_555
C26 C2 1_555 1_555
H16 C26 1_555 1_555
C27 C3 1_555 1_555
H17 C27 1_555 1_555
C29 N3 1_555 1_555
H19 C29 1_555 1_555
C30 C13 1_555 1_555
C34 N3 1_555 1_555
H23 C34 1_555 1_555
C40 N5 1_555 1_555
H28 C40 1_555 1_555
Mn4 N5 1_555 1_555
C10 C16 1_555 1_555
C11 C16 1_555 1_555
C11 C27 1_555 1_555
C13 C20 1_555 1_555
C23 C30 1_555 1_555
C24 C26 1_555 1_555
C34 C40 1_555 1_555
N6 C22 1_555 1_555
H12 C22 1_555 1_555
C36 N6 1_555 1_555
H24 C36 1_555 1_555
N7 Mn4 1_555 1_555
H20 C31 1_555 1_555
C41 N7 1_555 1_555
H29 C41 1_555 1_555
N7 C31 1_555 1_555
O1 C35 1_555 1_555
C6 C5 1_555 1_555
H2 C6 1_555 1_555
C8 C28 1_555 1_555
C28 C6 1_555 1_555
H18 C28 1_555 1_555
C33 C5 1_555 1_555
H22 C33 1_555 1_555
C35 C8 1_555 1_555
C38 C8 1_555 1_555
H26 C38 1_555 1_555
C33 C38 1_555 1_555
C1 C4 1_555 1_555
O4 C18 1_555 1_555
C15 C4 1_555 1_555
C18 C15 1_555 1_555
C21 C1 1_555 1_555
H11 C21 1_555 1_555
C32 C21 1_555 1_555
H21 C32 1_555 1_555
C37 C15 1_555 1_555
H25 C37 1_555 1_555
C32 C37 1_555 1_555
C39 N1 1_555 1_555
H27 C39 1_555 1_555
C1_2 C4_2 1_555 1_555
O4_2 C18_2 1_555 1_555
C15_2 C4_2 1_555 1_555
C18_2 C15_2 1_555 1_555
C21_2 C1_2 1_555 1_555
H11_2 C21_2 1_555 1_555
C32_2 C21_2 1_555 1_555
H21_2 C32_2 1_555 1_555
C37_2 C15_2 1_555 1_555
H25_2 C37_2 1_555 1_555
C32_2 C37_2 1_555 1_555
O5 C35_2 1_555 1_555
C6_2 C5_2 1_555 1_555
H2_2 C6_2 1_555 1_555
C8_2 C28_2 1_555 1_555
C28_2 C6_2 1_555 1_555
H18_2 C28_2 1_555 1_555
C33_2 C5_2 1_555 1_555
H22_2 C33_2 1_555 1_555
C35_2 C8_2 1_555 1_555
C38_2 C8_2 1_555 1_555
H26_2 C38_2 1_555 1_555
C33_2 C38_2 1_555 1_555
N7_2 Mn1 1_555 1_555
H20_2 C31_2 1_555 1_555
C41_2 N7_2 1_555 1_555
H29_2 C41_2 1_555 1_555
N8 Mn1 1_555 1_555
N7_2 C31_2 1_555 1_555
N9 C22_2 1_555 1_555
H12_2 C22_2 1_555 1_555
C36_2 N9 1_555 1_555
H24_2 C36_2 1_555 1_555
N2_2 C2_2 1_555 1_555
N3_2 C3_2 1_555 1_555
N4_2 C7_2 1_555 1_555
N8 C29_2 1_555 1_555
C2_2 C19_2 1_555 1_555
C3_2 C12_2 1_555 1_555
C7_2 C17_2 1_555 1_555
C9_2 N4_2 1_555 1_555
C10_2 H3_2 1_555 1_555
C11_2 H4_2 1_555 1_555
C12_2 C10_2 1_555 1_555
H5_2 C12_2 1_555 1_555
C13_2 H6_2 1_555 1_555
C14_2 C9_2 1_555 1_555
H7_2 C14_2 1_555 1_555
C16_2 N4_2 1_555 1_555
C17_2 H8_2 1_555 1_555
C19_2 C17_2 1_555 1_555
H9_2 C19_2 1_555 1_555
C20_2 C9_2 1_555 1_555
H10_2 C20_2 1_555 1_555
C23_2 C14_2 1_555 1_555
C24_2 C7_2 1_555 1_555
H14_2 C24_2 1_555 1_555
C25_2 N2_2 1_555 1_555
H15_2 C25_2 1_555 1_555
C26_2 C2_2 1_555 1_555
H16_2 C26_2 1_555 1_555
C27_2 C3_2 1_555 1_555
H17_2 C27_2 1_555 1_555
C29_2 N3_2 1_555 1_555
H19_2 C29_2 1_555 1_555
C30_2 C13_2 1_555 1_555
C34_2 N3_2 1_555 1_555
H23_2 C34_2 1_555 1_555
C40_2 N8 1_555 1_555
H28_2 C40_2 1_555 1_555
C10_2 C16_2 1_555 1_555
C11_2 C16_2 1_555 1_555
C11_2 C27_2 1_555 1_555
C13_2 C20_2 1_555 1_555
C23_2 C30_2 1_555 1_555
C24_2 C26_2 1_555 1_555
C34_2 C40_2 1_555 1_555
C39_2 N1_2 1_555 1_555
H27_2 C39_2 1_555 1_555

#END
