
###############################################################################
#
# This file contains modified crystal structure data generated from the
# MOF subset of the Cambridge Structural Database (CSD) v543 
# hosted by the Cambridge Crystallographic Data Centre (CCDC).
#
# This work is licensed under the Creative Commons
# Attribution-NonCommercial-ShareAlike 4.0 International License.
# To view a copy of this license, visit
# http://creativecommons.org/licenses/by-nc-sa/4.0/
# or send a letter to
# Creative Commons, PO Box 1866, Mountain View, CA 94042, USA.
#
# CIF created using the CSD Python API on 29 September 2022
# The structure has been converted into the P1 space group
# The structure has a 3D framework
# The original CSD entry ONEJAV is in the monoclinic crystal system
# The framework has been calculated to contain at least 10.0% void space
# The void calculation uses a probe of radius 1.32A, grid spacing 0.4
# The framework is charged, counterions have been retained in the structure
#
###############################################################################

data_ONEJAV
_chemical_formula_moiety         '(C68 H48 Ag2 N28 O12 2-)n'
_symmetry_cell_setting           triclinic
_symmetry_space_group_name_H-M   'P 1'
_symmetry_Int_Tables_number      1
_space_group_name_Hall           'P 1'
loop_
_symmetry_equiv_pos_site_id
_symmetry_equiv_pos_as_xyz
1 x,y,z
_cell_length_a                   10.0017(15)
_cell_length_b                   14.488(2)
_cell_length_c                   15.422(3)
_cell_angle_alpha                90
_cell_angle_beta                 104.400(3)
_cell_angle_gamma                90
_cell_volume                     2164.51
loop_
_atom_site_label
_atom_site_type_symbol
_atom_site_fract_x
_atom_site_fract_y
_atom_site_fract_z
H2 H 0.0152 0.4349 0.7592
H3 H 0.0440 0.4577 0.6163
Ag3 Ag 0.04340(3) 0.06754(2) 0.93707(2)
Ag1 Ag 0.45660(3) 0.56754(2) 0.56293(2)
N1 N 0.3458(4) 0.3760(3) 0.6446(3)
N2 N 0.4549(4) 0.4147(2) 0.6155(2)
N3 N 0.5360(4) 0.2992(2) 0.7041(2)
N4 N 0.7189(4) 0.4102(3) 0.5615(3)
N5 N 0.1641(4) 0.1418(3) 0.8335(3)
C1 C 0.5662(4) 0.3679(3) 0.6521(3)
C2 C 0.3970(4) 0.3073(3) 0.6966(3)
C3 C 0.7067(4) 0.3921(3) 0.6435(3)
C4 C 0.8141(5) 0.4002(3) 0.7193(3)
H1 H 0.8006 0.3878 0.7757
C5 C 0.9415(6) 0.4271(4) 0.7094(4)
C6 C 0.9580(6) 0.4421(5) 0.6250(4)
C7 C 0.8448(5) 0.4338(4) 0.5532(4)
H4 H 0.8562 0.4451 0.4961
C8 C 0.6290(3) 0.23432(19) 0.75663(16)
C9 C 0.6497(3) 0.23307(19) 0.84914(16)
H5 H 0.5954 0.2698 0.8763
C10 C 0.7514(3) 0.1770(2) 0.90110(12)
H6 H 0.7652 0.1761 0.9630
N6 N 0.8324(2) 0.12212(18) 0.86055(15)
C11 C 0.8118(3) 0.12336(19) 0.76803(16)
H7 H 0.8660 0.0867 0.7409
C12 C 0.7101(3) 0.1795(2) 0.71607(12)
H8 H 0.6962 0.1803 0.6542
C13 C 0.3180(4) 0.2476(3) 0.7435(3)
C14 C 0.3174(5) 0.1527(3) 0.7380(3)
H9 H 0.3693 0.1224 0.7044
C15 C 0.2379(5) 0.1033(4) 0.7836(3)
H10 H 0.2366 0.0393 0.7786
C16 C 0.1651(7) 0.2326(4) 0.8373(5)
H11 H 0.1119 0.2610 0.8713
C17 C 0.2398(6) 0.2888(4) 0.7940(4)
H12 H 0.2371 0.3526 0.7991
Ag4 Ag 0.54340(3) 0.43246(2) 0.43707(2)
N7 N 0.2811(4) 0.5898(3) 0.4385(3)
N8 N 0.3359(4) 0.6418(3) 0.6665(3)
N9 N 0.6676(2) 0.62212(18) 0.63945(15)
N7_2 N 0.2189(4) 0.0898(3) 0.0615(3)
N1_2 N 0.1542(4) 0.8760(3) 0.8554(3)
N2_2 N 0.0451(4) 0.9147(2) 0.8845(2)
C2_2 C 0.1030(4) 0.8073(3) 0.8034(3)
C13_2 C 0.1820(4) 0.7476(3) 0.7565(3)
C14_2 C 0.1826(5) 0.6527(3) 0.7620(3)
H9_2 H 0.1307 0.6224 0.7956
C15_2 C 0.2621(5) 0.6033(4) 0.7164(3)
H10_2 H 0.2634 0.5393 0.7214
C16_2 C 0.3349(7) 0.7326(4) 0.6627(5)
H11_2 H 0.3881 0.7610 0.6287
C17_2 C 0.2602(6) 0.7888(4) 0.7060(4)
H12_2 H 0.2629 0.8526 0.7009
H4_2 H 0.6438 0.9451 0.0039
Ag4_2 Ag 0.95660(3) 0.93246(2) 0.06293(2)
N3_2 N 0.9640(4) 0.7992(2) 0.7959(2)
N4_2 N 0.7811(4) 0.9102(3) 0.9385(3)
C1_2 C 0.9338(4) 0.8679(3) 0.8479(3)
C3_2 C 0.7933(4) 0.8921(3) 0.8565(3)
C4_2 C 0.6859(5) 0.9002(3) 0.7807(3)
H1_2 H 0.6994 0.8878 0.7243
C5_2 C 0.5585(6) 0.9271(4) 0.7906(4)
H2_2 H 0.4848 0.9349 0.7408
C6_2 C 0.5420(6) 0.9421(5) 0.8750(4)
H3_2 H 0.4560 0.9577 0.8837
C7_2 C 0.6552(5) 0.9338(4) 0.9468(4)
C8_2 C 0.8710(3) 0.73432(19) 0.74337(16)
C9_2 C 0.8503(3) 0.73307(19) 0.65086(16)
H5_2 H 0.9046 0.7698 0.6237
C10_2 C 0.7486(3) 0.6770(2) 0.59890(12)
H6_2 H 0.7348 0.6761 0.5370
C11_2 C 0.6882(3) 0.62336(19) 0.73197(16)
H7_2 H 0.6340 0.5867 0.7591
C12_2 C 0.7899(3) 0.6795(2) 0.78393(12)
H8_2 H 0.8038 0.6803 0.8458
N1_3 N 0.6542(4) 0.6240(3) 0.3554(3)
N2_3 N 0.5451(4) 0.5853(2) 0.3845(2)
N3_3 N 0.4640(4) 0.7008(2) 0.2959(2)
N5_2 N 0.8359(4) 0.8582(3) 0.1665(3)
C1_3 C 0.4338(4) 0.6321(3) 0.3479(3)
C2_3 C 0.6030(4) 0.6927(3) 0.3034(3)
C3_3 C 0.2933(4) 0.6079(3) 0.3565(3)
C4_3 C 0.1859(5) 0.5998(3) 0.2807(3)
H1_3 H 0.1994 0.6122 0.2243
C5_3 C 0.0585(6) 0.5729(4) 0.2906(4)
C6_3 C 0.0420(6) 0.5579(5) 0.3750(4)
C7_3 C 0.1552(5) 0.5662(4) 0.4468(4)
H4_3 H 0.1438 0.5549 0.5039
C8_3 C 0.3710(3) 0.76568(19) 0.24337(16)
C9_3 C 0.3503(3) 0.76693(19) 0.15086(16)
H5_3 H 0.4046 0.7302 0.1237
C10_3 C 0.2486(3) 0.8230(2) 0.09890(12)
H6_3 H 0.2348 0.8239 0.0370
N6_2 N 0.1676(2) 0.87788(18) 0.13945(15)
C11_3 C 0.1882(3) 0.87664(19) 0.23197(16)
H7_3 H 0.1340 0.9133 0.2591
C12_3 C 0.2899(3) 0.8205(2) 0.28393(12)
H8_3 H 0.3038 0.8197 0.3458
C13_3 C 0.6820(4) 0.7524(3) 0.2565(3)
C14_3 C 0.6826(5) 0.8473(3) 0.2620(3)
H9_3 H 0.6307 0.8776 0.2956
C15_3 C 0.7621(5) 0.8967(4) 0.2164(3)
H10_3 H 0.7634 0.9607 0.2214
C16_3 C 0.8349(7) 0.7674(4) 0.1627(5)
H11_3 H 0.8881 0.7390 0.1287
C17_3 C 0.7602(6) 0.7112(4) 0.2060(4)
H12_3 H 0.7629 0.6474 0.2009
N8_2 N 0.6641(4) 0.3582(3) 0.3335(3)
N9_2 N 0.3324(2) 0.37788(18) 0.36055(15)
H2_3 H 0.9848 0.5651 0.2408
H3_3 H 0.9560 0.5423 0.3837
N3_4 N 0.0360(4) 0.2008(2) 0.2041(2)
C1_4 C 0.0662(4) 0.1321(3) 0.1521(3)
C3_4 C 0.2067(4) 0.1079(3) 0.1435(3)
C4_4 C 0.3141(5) 0.0998(3) 0.2193(3)
H1_4 H 0.3006 0.1122 0.2757
C5_4 C 0.4415(6) 0.0729(4) 0.2094(4)
H2_4 H 0.5152 0.0651 0.2592
C6_4 C 0.4580(6) 0.0579(5) 0.1250(4)
H3_4 H 0.5440 0.0423 0.1163
C7_4 C 0.3448(5) 0.0662(4) 0.0532(4)
C8_4 C 0.1290(3) 0.26568(19) 0.25663(16)
C9_4 C 0.1497(3) 0.26693(19) 0.34914(16)
H5_4 H 0.0954 0.2302 0.3763
C10_4 C 0.2514(3) 0.3230(2) 0.40110(12)
H6_4 H 0.2652 0.3239 0.4630
C11_4 C 0.3118(3) 0.37664(19) 0.26803(16)
H7_4 H 0.3660 0.4133 0.2409
C12_4 C 0.2101(3) 0.3205(2) 0.21607(12)
H8_4 H 0.1962 0.3197 0.1542
H4_4 H 0.3562 0.0549 0.9961
N1_4 N 0.8458(4) 0.1240(3) 0.1446(3)
N2_4 N 0.9549(4) 0.0853(2) 0.1155(2)
C2_4 C 0.8970(4) 0.1927(3) 0.1966(3)
C13_4 C 0.8180(4) 0.2524(3) 0.2435(3)
C14_4 C 0.8174(5) 0.3473(3) 0.2380(3)
H9_4 H 0.8693 0.3776 0.2044
C15_4 C 0.7379(5) 0.3967(4) 0.2836(3)
H10_4 H 0.7366 0.4607 0.2786
C16_4 C 0.6651(7) 0.2674(4) 0.3373(5)
H11_4 H 0.6119 0.2390 0.3713
C17_4 C 0.7398(6) 0.2112(4) 0.2940(4)
H12_4 H 0.7371 0.1474 0.2991
N10 N 0.4424(5) 0.1488(3) 0.4947(3)
O1 O 0.4215(7) 0.0934(5) 0.4333(4)
O2 O 0.5401(7) 0.2017(6) 0.5066(4)
O3 O 0.3631(7) 0.1530(4) 0.5433(4)
N10_2 N 0.0576(5) 0.6488(3) 0.0053(3)
O1_2 O 0.0785(7) 0.5934(5) 0.0667(4)
O3_2 O 0.1369(7) 0.6530(4) 0.9567(4)
O2_2 O 0.9599(7) 0.7017(6) 0.9934(4)
N10_3 N 0.5576(5) 0.8512(3) 0.5053(3)
O1_3 O 0.5785(7) 0.9066(5) 0.5667(4)
O2_3 O 0.4599(7) 0.7983(6) 0.4934(4)
O3_3 O 0.6369(7) 0.8470(4) 0.4567(4)
O2_4 O 0.0401(7) 0.2983(6) 0.0066(4)
O3_4 O 0.8631(7) 0.3470(4) 0.0433(4)
N10_4 N 0.9424(5) 0.3512(3) 0.9947(3)
O1_4 O 0.9215(7) 0.4066(5) 0.9333(4)
loop_
_geom_bond_atom_site_label_1
_geom_bond_atom_site_label_2
_geom_bond_site_symmetry_1
_geom_bond_site_symmetry_2
Ag1 N2 1_555 1_555
N1 N2 1_555 1_555
N2 C1 1_555 1_555
N3 C1 1_555 1_555
N4 C3 1_555 1_555
N5 C15 1_555 1_555
C1 C3 1_555 1_555
C2 N1 1_555 1_555
C3 C4 1_555 1_555
C4 H1 1_555 1_555
C5 C4 1_555 1_555
C6 C5 1_555 1_555
C7 N4 1_555 1_555
H4 C7 1_555 1_555
C8 N3 1_555 1_555
C9 C8 1_555 1_555
H5 C9 1_555 1_555
C10 C9 1_555 1_555
H6 C10 1_555 1_555
N6 C10 1_555 1_555
C11 N6 1_555 1_555
H7 C11 1_555 1_555
C12 C8 1_555 1_555
H8 C12 1_555 1_555
C13 C2 1_555 1_555
C14 C13 1_555 1_555
H9 C14 1_555 1_555
C15 C14 1_555 1_555
H10 C15 1_555 1_555
C16 N5 1_555 1_555
H11 C16 1_555 1_555
C17 C13 1_555 1_555
H12 C17 1_555 1_555
Ag3 N5 1_555 1_555
Ag4 N4 1_555 1_555
N7 Ag1 1_555 1_555
N8 Ag1 1_555 1_555
N9 Ag1 1_555 1_555
N3 C2 1_555 1_555
C6 C7 1_555 1_555
C11 C12 1_555 1_555
C16 C17 1_555 1_555
N1_2 N2_2 1_555 1_555
N8 C15_2 1_555 1_555
C2_2 N1_2 1_555 1_555
C13_2 C2_2 1_555 1_555
C14_2 C13_2 1_555 1_555
H9_2 C14_2 1_555 1_555
C15_2 C14_2 1_555 1_555
H10_2 C15_2 1_555 1_555
C16_2 N8 1_555 1_555
H11_2 C16_2 1_555 1_555
C17_2 C13_2 1_555 1_555
H12_2 C17_2 1_555 1_555
C16_2 C17_2 1_555 1_555
N3_2 C1_2 1_555 1_555
N4_2 C3_2 1_555 1_555
C1_2 C3_2 1_555 1_555
C3_2 C4_2 1_555 1_555
C4_2 H1_2 1_555 1_555
C5_2 C4_2 1_555 1_555
H2_2 C5_2 1_555 1_555
C6_2 C5_2 1_555 1_555
H3_2 C6_2 1_555 1_555
C7_2 N4_2 1_555 1_555
C8_2 N3_2 1_555 1_555
C9_2 C8_2 1_555 1_555
H5_2 C9_2 1_555 1_555
C10_2 C9_2 1_555 1_555
H6_2 C10_2 1_555 1_555
N9 C10_2 1_555 1_555
C11_2 N9 1_555 1_555
H7_2 C11_2 1_555 1_555
C12_2 C8_2 1_555 1_555
H8_2 C12_2 1_555 1_555
C6_2 C7_2 1_555 1_555
C11_2 C12_2 1_555 1_555
Ag4 N2_3 1_555 1_555
N1_3 N2_3 1_555 1_555
N2_3 C1_3 1_555 1_555
N3_3 C1_3 1_555 1_555
N7 C3_3 1_555 1_555
N5_2 C15_3 1_555 1_555
C1_3 C3_3 1_555 1_555
C2_3 N1_3 1_555 1_555
C3_3 C4_3 1_555 1_555
C4_3 H1_3 1_555 1_555
C5_3 C4_3 1_555 1_555
C6_3 C5_3 1_555 1_555
C7_3 N7 1_555 1_555
H4_3 C7_3 1_555 1_555
C8_3 N3_3 1_555 1_555
C9_3 C8_3 1_555 1_555
H5_3 C9_3 1_555 1_555
C10_3 C9_3 1_555 1_555
H6_3 C10_3 1_555 1_555
N6_2 C10_3 1_555 1_555
C11_3 N6_2 1_555 1_555
H7_3 C11_3 1_555 1_555
C12_3 C8_3 1_555 1_555
H8_3 C12_3 1_555 1_555
C13_3 C2_3 1_555 1_555
C14_3 C13_3 1_555 1_555
H9_3 C14_3 1_555 1_555
C15_3 C14_3 1_555 1_555
H10_3 C15_3 1_555 1_555
C16_3 N5_2 1_555 1_555
H11_3 C16_3 1_555 1_555
C17_3 C13_3 1_555 1_555
H12_3 C17_3 1_555 1_555
Ag4_2 N5_2 1_555 1_555
N8_2 Ag4 1_555 1_555
N9_2 Ag4 1_555 1_555
N3_3 C2_3 1_555 1_555
C6_3 C7_3 1_555 1_555
C11_3 C12_3 1_555 1_555
C16_3 C17_3 1_555 1_555
N3_4 C1_4 1_555 1_555
N7_2 C3_4 1_555 1_555
C1_4 C3_4 1_555 1_555
C3_4 C4_4 1_555 1_555
C4_4 H1_4 1_555 1_555
C5_4 C4_4 1_555 1_555
H2_4 C5_4 1_555 1_555
C6_4 C5_4 1_555 1_555
H3_4 C6_4 1_555 1_555
C7_4 N7_2 1_555 1_555
C8_4 N3_4 1_555 1_555
C9_4 C8_4 1_555 1_555
H5_4 C9_4 1_555 1_555
C10_4 C9_4 1_555 1_555
H6_4 C10_4 1_555 1_555
N9_2 C10_4 1_555 1_555
C11_4 N9_2 1_555 1_555
H7_4 C11_4 1_555 1_555
C12_4 C8_4 1_555 1_555
H8_4 C12_4 1_555 1_555
C6_4 C7_4 1_555 1_555
C11_4 C12_4 1_555 1_555
N1_4 N2_4 1_555 1_555
N8_2 C15_4 1_555 1_555
C2_4 N1_4 1_555 1_555
C13_4 C2_4 1_555 1_555
C14_4 C13_4 1_555 1_555
H9_4 C14_4 1_555 1_555
C15_4 C14_4 1_555 1_555
H10_4 C15_4 1_555 1_555
C16_4 N8_2 1_555 1_555
H11_4 C16_4 1_555 1_555
C17_4 C13_4 1_555 1_555
H12_4 C17_4 1_555 1_555
C16_4 C17_4 1_555 1_555
N10 O1 1_555 1_555
O2 N10 1_555 1_555
O3 N10 1_555 1_555
N10_2 O1_2 1_555 1_555
N10_3 O1_3 1_555 1_555
O2_3 N10_3 1_555 1_555
O3_3 N10_3 1_555 1_555
N10_4 O1_4 1_555 1_555

#END
