
###############################################################################
#
# This file contains modified crystal structure data generated from the
# MOF subset of the Cambridge Structural Database (CSD) v543 
# hosted by the Cambridge Crystallographic Data Centre (CCDC).
#
# This work is licensed under the Creative Commons
# Attribution-NonCommercial-ShareAlike 4.0 International License.
# To view a copy of this license, visit
# http://creativecommons.org/licenses/by-nc-sa/4.0/
# or send a letter to
# Creative Commons, PO Box 1866, Mountain View, CA 94042, USA.
#
# CIF created using the CSD Python API on 29 September 2022
# The structure has been converted into the P1 space group
# The structure has a 3D framework
# The original CSD entry ONOBUR is in the triclinic crystal system
# The framework has been calculated to contain at least 10.0% void space
# The void calculation uses a probe of radius 1.32A, grid spacing 0.4
#
###############################################################################

data_ONOBUR
_chemical_formula_moiety         '(C108 H70 Cd5 N12 O14)n'
_symmetry_cell_setting           triclinic
_symmetry_space_group_name_H-M   'P 1'
_symmetry_Int_Tables_number      1
_space_group_name_Hall           'P 1'
loop_
_symmetry_equiv_pos_site_id
_symmetry_equiv_pos_as_xyz
1 x,y,z
_cell_length_a                   10.3508(4)
_cell_length_b                   16.3026(6)
_cell_length_c                   19.4435(8)
_cell_angle_alpha                94.3930(10)
_cell_angle_beta                 101.7680(10)
_cell_angle_gamma                104.1910(10)
_cell_volume                     3086.19
loop_
_atom_site_label
_atom_site_type_symbol
_atom_site_fract_x
_atom_site_fract_y
_atom_site_fract_z
O9 O 0.1602(3) 0.8923(2) 0.61329(18)
O10 O 0.2924(3) 0.8086(2) 0.64761(17)
C59 C 0.1816(5) 0.8197(3) 0.6136(2)
C61 C 0.0846(5) 0.6613(3) 0.5809(3)
H39 H 0.167749 0.653890 0.604551
C64 C 0.0701(5) 0.7436(3) 0.5757(2)
Cd5 Cd 0.37118(3) 0.94996(2) 0.69723(2)
Cd2 Cd 1.000000 0.500000 0.000000
O6 O 0.8039(4) 0.4436(3) 0.0407(2)
H1 H 0.742531 0.473243 0.030741
H2 H 0.822810 0.449348 0.087699
Cd2_2 Cd 1.000000 0.500000 1.000000
O1 O 0.5762(3) 0.9068(2) 0.31053(17)
O4 O 0.8626(4) 0.5126(2) 0.89927(18)
O5 O 0.5233(4) 0.9875(2) 0.39101(19)
N4 N 0.9458(5) 0.7644(3) 0.0406(2)
C1 C 0.0543(5) 0.2473(3) 0.4621(2)
H3 H 0.064893 0.192905 0.466970
C2 C 0.2663(5) 0.4761(3) 0.5155(2)
C3 C 0.3638(5) 0.4745(3) 0.5760(2)
H4 H 0.354231 0.425670 0.598383
C9 C 0.4181(5) 0.6970(3) 0.4714(3)
C13 C 0.9123(6) 0.6815(3) 0.0107(3)
C14 C 0.5836(5) 0.5409(3) 0.6660(3)
C16 C 0.4761(5) 0.5452(3) 0.6039(2)
C17 C 0.2835(5) 0.5494(3) 0.4813(2)
H9 H 0.220792 0.550438 0.439860
C19 C 0.4358(5) 0.7781(3) 0.5053(3)
H10 H 0.425642 0.785140 0.551663
C20 C 0.7204(5) 0.5847(3) 0.6715(3)
H11 H 0.743080 0.618250 0.636927
C21 C 0.3934(5) 0.6206(3) 0.5088(2)
C22 C 0.4870(5) 0.6183(3) 0.5707(2)
H12 H 0.558231 0.666665 0.590240
C23 C 0.1619(5) 0.3177(3) 0.4923(2)
H13 H 0.243825 0.310072 0.517483
C24 C 0.4686(5) 0.8491(3) 0.4708(3)
H14 H 0.477435 0.903126 0.493555
C25 C 0.5533(5) 0.4923(3) 0.7194(3)
H15 H 0.463408 0.461460 0.716421
C26 C 0.5310(5) 0.9165(3) 0.3662(2)
C27 C 0.4884(5) 0.8400(3) 0.4024(3)
C28 C 0.8635(6) 0.8843(3) 0.0742(3)
H16 H 0.894762 0.879187 0.121582
C29 C 0.1491(5) 0.4002(3) 0.4855(2)
C31 C 0.4694(6) 0.7585(3) 0.3682(3)
H18 H 0.482498 0.751380 0.322448
C32 C 0.0230(5) 0.4091(3) 0.4486(3)
H19 H 0.011830 0.463445 0.444000
C33 C 0.8761(5) 0.8279(3) 0.0208(3)
C34 C 0.6548(5) 0.4893(3) 0.7766(3)
H20 H 0.632015 0.458260 0.812664
C36 C 0.7902(5) 0.5317(3) 0.7812(3)
C39 C 0.8029(5) 0.9485(3) 0.0550(3)
C40 C 0.8222(5) 0.5789(3) 0.7275(3)
H24 H 0.912924 0.606708 0.729318
C41 C 0.9013(6) 0.5279(3) 0.8432(3)
C43 C 0.4312(6) 0.6876(3) 0.4021(3)
H26 H 0.414113 0.633221 0.377923
C45 C 0.7448(6) 0.9833(3) 0.1690(3)
H27 H 0.728374 0.927858 0.180315
H56 H 0.281024 0.997896 0.027859
N14 N 0.9992(5) 0.3591(3) 0.9631(2)
N1 N 0.7126(4) 0.9039(3) 0.8595(2)
N2 N 0.5659(4) 0.9291(3) 0.7679(2)
C4 C 0.7677(5) 0.8976(3) 0.9320(3)
C6 C 0.5989(5) 0.9310(3) 0.8364(3)
H5 H 0.549481 0.949216 0.866649
C8 C 0.7566(5) 0.8814(3) 0.7994(2)
C11 C 0.8273(5) 0.8326(3) 0.9500(3)
H7 H 0.834325 0.792715 0.915050
H8 H 0.834237 0.656437 0.975152
C18 C 0.6637(5) 0.8983(3) 0.7423(3)
C30 C 0.6756(6) 0.8840(3) 0.6730(3)
H17 H 0.614060 0.895564 0.635453
C35 C 0.8653(6) 0.8508(4) 0.7882(3)
H21 H 0.928202 0.840156 0.825651
C38 C 0.7565(5) 0.9574(3) 0.9843(3)
C42 C 0.7821(6) 0.8521(4) 0.6622(3)
H25 H 0.791747 0.840572 0.616172
C48 C 0.8759(6) 0.8367(4) 0.7189(3)
H30 H 0.947857 0.816254 0.709677
N9 N 0.2678(4) 0.9528(3) 0.7910(2)
N11 N 0.2156(4) 0.9943(3) 0.8909(2)
C66 C 0.2016(5) 0.9079(3) 0.8893(3)
C69 C 0.2320(5) 0.8820(3) 0.8256(2)
C91 C 0.1602(6) 0.8502(3) 0.9346(3)
H55 H 0.142682 0.867628 0.977690
C100 C 0.2181(6) 0.7965(3) 0.8039(3)
H61 H 0.238222 0.778866 0.761649
C105 C 0.1735(9) 0.7396(4) 0.8474(4)
H65 H 0.160668 0.681652 0.833766
C106 C 0.1465(8) 0.7658(4) 0.9121(4)
H66 H 0.118488 0.724971 0.940724
O13 O 0.9807(4) 0.4639(3) 0.1651(2)
C98 C 0.9315(6) 0.2215(3) 0.9097(3)
C101 C 0.8450(7) 0.1492(4) 0.8649(3)
H62 H 0.866289 0.097003 0.863244
C103 C 0.8977(7) 0.2998(3) 0.9136(3)
C104 C 0.7278(8) 0.1592(4) 0.8236(4)
H64 H 0.670279 0.113314 0.791427
C107 C 0.7757(8) 0.3077(4) 0.8730(4)
H67 H 0.752070 0.359088 0.875982
C108 C 0.6907(9) 0.2371(4) 0.8282(4)
H68 H 0.607963 0.240681 0.800636
Cd2_3 Cd -0.000000 0.500000 0.000000
O19 O 0.1374(4) 0.4874(2) 0.10073(18)
N13 N 0.0008(5) 0.6409(3) 0.0369(2)
Cd2_4 Cd -0.000000 0.500000 1.000000
O7 O 0.0193(4) 0.5361(3) 0.8349(2)
C44 C 0.0685(6) 0.7785(3) 0.0903(3)
C47 C 0.1550(7) 0.8508(4) 0.1351(3)
H29 H 0.133711 0.902997 0.136756
C49 C 0.1023(7) 0.7002(3) 0.0864(3)
C50 C 0.2722(8) 0.8408(4) 0.1764(4)
H31 H 0.329721 0.886686 0.208573
C53 C 0.2243(8) 0.6923(4) 0.1270(4)
H34 H 0.247930 0.640912 0.124018
C54 C 0.3093(9) 0.7629(4) 0.1718(4)
H35 H 0.392037 0.759319 0.199364
O14 O 0.1961(4) 0.5564(3) 0.9593(2)
H69 H 0.257469 0.526757 0.969259
H70 H 0.177190 0.550652 0.912301
Cd1 Cd 0.62882(3) 0.05004(2) 0.30277(2)
N3 N 0.7322(4) 0.0472(3) 0.2090(2)
N5 N 0.7844(4) 0.0057(3) 0.1091(2)
C12 C 0.7984(5) 0.0921(3) 0.1107(3)
C15 C 0.7680(5) 0.1180(3) 0.1744(2)
C37 C 0.8398(6) 0.1498(3) 0.0654(3)
H22 H 0.857318 0.132372 0.022310
C46 C 0.7819(6) 0.2035(3) 0.1961(3)
H28 H 0.761778 0.221134 0.238351
C51 C 0.8265(9) 0.2604(4) 0.1526(4)
H32 H 0.839332 0.318348 0.166234
C52 C 0.8535(8) 0.2342(4) 0.0879(4)
H33 H 0.881512 0.275029 0.059276
N7 N 0.2874(4) 0.0961(3) 0.1405(2)
N8 N 0.4341(4) 0.0709(3) 0.2321(2)
C58 C 0.2323(5) 0.1024(3) 0.0680(3)
C60 C 0.4011(5) 0.0690(3) 0.1636(3)
H38 H 0.450519 0.050784 0.133351
C62 C 0.2434(5) 0.1186(3) 0.2006(2)
C65 C 0.1727(5) 0.1674(3) 0.0500(3)
H40 H 0.165675 0.207285 0.084950
H41 H 0.165763 0.343563 0.024848
C72 C 0.3363(5) 0.1017(3) 0.2577(3)
C84 C 0.3244(6) 0.1160(3) 0.3270(3)
H50 H 0.385940 0.104436 0.364547
C89 C 0.1347(6) 0.1492(4) 0.2118(3)
H54 H 0.071798 0.159844 0.174349
C92 C 0.2435(5) 0.0426(3) 0.0157(3)
C96 C 0.2179(6) 0.1479(4) 0.3378(3)
H58 H 0.208253 0.159428 0.383828
C102 C 0.1241(6) 0.1633(4) 0.2811(3)
H63 H 0.052143 0.183746 0.290323
O15 O 0.8398(3) 0.1077(2) 0.38671(18)
O17 O 0.7076(3) 0.1914(2) 0.35239(17)
H23 H 0.718976 0.002104 0.972141
O8 O 0.4238(3) 0.0932(2) 0.68947(17)
O12 O 0.4767(4) 0.0125(2) 0.60899(19)
N10 N 0.0542(5) 0.2356(3) 0.9594(2)
C55 C 0.9457(5) 0.7527(3) 0.5379(2)
H36 H 0.935107 0.807095 0.533030
C56 C 0.7337(5) 0.5239(3) 0.4845(2)
C57 C 0.6362(5) 0.5255(3) 0.4240(2)
H37 H 0.645769 0.574330 0.401617
C63 C 0.5819(5) 0.3030(3) 0.5286(3)
C67 C 0.0877(6) 0.3185(3) 0.9893(3)
C68 C 0.4164(5) 0.4591(3) 0.3340(3)
C70 C 0.5239(5) 0.4548(3) 0.3961(2)
C71 C 0.7165(5) 0.4506(3) 0.5187(2)
H42 H 0.779208 0.449562 0.560140
C73 C 0.5642(5) 0.2219(3) 0.4947(3)
H43 H 0.574358 0.214860 0.448337
C74 C 0.2796(5) 0.4153(3) 0.3285(3)
H44 H 0.256920 0.381750 0.363073
C75 C 0.6066(5) 0.3794(3) 0.4912(2)
C76 C 0.5130(5) 0.3817(3) 0.4293(2)
H45 H 0.441769 0.333335 0.409760
C77 C 0.8381(5) 0.6823(3) 0.5077(2)
H46 H 0.756175 0.689928 0.482517
C78 C 0.5314(5) 0.1509(3) 0.5292(3)
H47 H 0.522565 0.096874 0.506445
C79 C 0.4467(5) 0.5077(3) 0.2806(3)
H48 H 0.536592 0.538540 0.283579
C80 C 0.4690(5) 0.0835(3) 0.6338(2)
C81 C 0.5116(5) 0.1600(3) 0.5976(3)
C82 C 0.1365(6) 0.1157(3) 0.9258(3)
H49 H 0.105238 0.120813 0.878418
C83 C 0.8509(5) 0.5998(3) 0.5145(2)
C85 C 0.5306(6) 0.2415(3) 0.6318(3)
H51 H 0.517502 0.248620 0.677552
C86 C 0.9770(5) 0.5909(3) 0.5514(3)
H52 H 0.988170 0.536555 0.556000
C87 C 0.1239(5) 0.1721(3) 0.9792(3)
C88 C 0.3452(5) 0.5107(3) 0.2234(3)
H53 H 0.367985 0.541740 0.187336
C90 C 0.2098(5) 0.4683(3) 0.2188(3)
C93 C 0.1971(5) 0.0515(3) 0.9450(3)
C94 C 0.1778(5) 0.4211(3) 0.2725(3)
H57 H 0.087076 0.393292 0.270682
C95 C 0.0987(6) 0.4721(3) 0.1568(3)
C97 C 0.5688(6) 0.3124(3) 0.5979(3)
H59 H 0.585887 0.366779 0.622077
C99 C 0.2552(6) 0.0167(3) 0.8310(3)
H60 H 0.271626 0.072142 0.819685
C5 C 0.8184(5) 0.1803(3) 0.3864(2)
C7 C 0.9154(5) 0.3387(3) 0.4191(3)
H6 H 0.832251 0.346110 0.395449
C10 C 0.9299(5) 0.2564(3) 0.4243(2)
loop_
_geom_bond_atom_site_label_1
_geom_bond_atom_site_label_2
_geom_bond_site_symmetry_1
_geom_bond_site_symmetry_2
O9 C59 1_555 1_555
O10 C59 1_555 1_555
C59 C64 1_555 1_555
C61 H39 1_555 1_555
Cd5 O9 1_555 1_555
O10 Cd5 1_555 1_555
C61 C64 1_555 1_555
O6 Cd2 1_555 1_555
H1 O6 1_555 1_555
H2 O6 1_555 1_555
Cd2_2 O4 1_555 1_555
O1 C26 1_555 1_555
O4 C41 1_555 1_555
N4 C13 1_555 1_555
C1 H3 1_555 1_555
C2 C3 1_555 1_555
C3 H4 1_555 1_555
C9 C19 1_555 1_555
C14 C16 1_555 1_555
C16 C3 1_555 1_555
C17 C2 1_555 1_555
H9 C17 1_555 1_555
C19 H10 1_555 1_555
C20 C14 1_555 1_555
H11 C20 1_555 1_555
C21 C9 1_555 1_555
C22 C16 1_555 1_555
H12 C22 1_555 1_555
C23 C1 1_555 1_555
H13 C23 1_555 1_555
C24 C19 1_555 1_555
H14 C24 1_555 1_555
C25 C14 1_555 1_555
H15 C25 1_555 1_555
C26 O5 1_555 1_555
C27 C24 1_555 1_555
C28 H16 1_555 1_555
C29 C2 1_555 1_555
C31 C27 1_555 1_555
H18 C31 1_555 1_555
H19 C32 1_555 1_555
C33 N4 1_555 1_555
C34 C25 1_555 1_555
H20 C34 1_555 1_555
C36 C34 1_555 1_555
C40 C20 1_555 1_555
H24 C40 1_555 1_555
C41 C36 1_555 1_555
C43 C9 1_555 1_555
H26 C43 1_555 1_555
H27 C45 1_555 1_555
N14 Cd2_2 1_555 1_555
C17 C21 1_555 1_555
C21 C22 1_555 1_555
C23 C29 1_555 1_555
C26 C27 1_555 1_555
C28 C33 1_555 1_555
C28 C39 1_555 1_555
C29 C32 1_555 1_555
C31 C43 1_555 1_555
C36 C40 1_555 1_555
N1 C4 1_555 1_555
N2 C6 1_555 1_555
C4 C11 1_555 1_555
C6 N1 1_555 1_555
H5 C6 1_555 1_555
C8 N1 1_555 1_555
C11 H7 1_555 1_555
C18 N2 1_555 1_555
C30 C18 1_555 1_555
H17 C30 1_555 1_555
C35 C8 1_555 1_555
H21 C35 1_555 1_555
C38 C4 1_555 1_555
C42 C30 1_555 1_555
H25 C42 1_555 1_555
C48 C35 1_555 1_555
H30 C48 1_555 1_555
Cd5 N2 1_555 1_555
N9 Cd5 1_555 1_555
N11 C66 1_555 1_555
C66 C69 1_555 1_555
C69 N9 1_555 1_555
C91 C66 1_555 1_555
H55 C91 1_555 1_555
C100 C69 1_555 1_555
H61 C100 1_555 1_555
C105 C100 1_555 1_555
H65 C105 1_555 1_555
C106 C91 1_555 1_555
H66 C106 1_555 1_555
C8 C18 1_555 1_555
C42 C48 1_555 1_555
C105 C106 1_555 1_555
C101 C98 1_555 1_555
H62 C101 1_555 1_555
C103 N14 1_555 1_555
C104 C101 1_555 1_555
H64 C104 1_555 1_555
C107 C103 1_555 1_555
H67 C107 1_555 1_555
C108 C104 1_555 1_555
H68 C108 1_555 1_555
C98 C103 1_555 1_555
C107 C108 1_555 1_555
O19 Cd2_3 1_555 1_555
N13 Cd2_3 1_555 1_555
C47 C44 1_555 1_555
H29 C47 1_555 1_555
C49 N13 1_555 1_555
C50 C47 1_555 1_555
H31 C50 1_555 1_555
C53 C49 1_555 1_555
H34 C53 1_555 1_555
C54 C50 1_555 1_555
H35 C54 1_555 1_555
O14 Cd2_4 1_555 1_555
H69 O14 1_555 1_555
H70 O14 1_555 1_555
C44 C49 1_555 1_555
C53 C54 1_555 1_555
N3 Cd1 1_555 1_555
N5 C12 1_555 1_555
C12 C15 1_555 1_555
C15 N3 1_555 1_555
C37 C12 1_555 1_555
H22 C37 1_555 1_555
C46 C15 1_555 1_555
H28 C46 1_555 1_555
C51 C46 1_555 1_555
H32 C51 1_555 1_555
C52 C37 1_555 1_555
H33 C52 1_555 1_555
N7 C58 1_555 1_555
N8 Cd1 1_555 1_555
C58 C65 1_555 1_555
C60 N7 1_555 1_555
H38 C60 1_555 1_555
C62 N7 1_555 1_555
C65 H40 1_555 1_555
C72 N8 1_555 1_555
C84 C72 1_555 1_555
H50 C84 1_555 1_555
C89 C62 1_555 1_555
H54 C89 1_555 1_555
C92 C58 1_555 1_555
C96 C84 1_555 1_555
H58 C96 1_555 1_555
C102 C89 1_555 1_555
H63 C102 1_555 1_555
O15 Cd1 1_555 1_555
O17 Cd1 1_555 1_555
C51 C52 1_555 1_555
N8 C60 1_555 1_555
C62 C72 1_555 1_555
C96 C102 1_555 1_555
O19 C95 1_555 1_555
N10 C67 1_555 1_555
C55 H36 1_555 1_555
C56 C57 1_555 1_555
C57 H37 1_555 1_555
C63 C73 1_555 1_555
C68 C70 1_555 1_555
C70 C57 1_555 1_555
C71 C56 1_555 1_555
H42 C71 1_555 1_555
C73 H43 1_555 1_555
C74 C68 1_555 1_555
H44 C74 1_555 1_555
C75 C63 1_555 1_555
C76 C70 1_555 1_555
H45 C76 1_555 1_555
C77 C55 1_555 1_555
H46 C77 1_555 1_555
C78 C73 1_555 1_555
H47 C78 1_555 1_555
C79 C68 1_555 1_555
H48 C79 1_555 1_555
C80 O8 1_555 1_555
C81 C78 1_555 1_555
C82 H49 1_555 1_555
C83 C56 1_555 1_555
C85 C81 1_555 1_555
H51 C85 1_555 1_555
H52 C86 1_555 1_555
C87 N10 1_555 1_555
C88 C79 1_555 1_555
H53 C88 1_555 1_555
C90 C88 1_555 1_555
C94 C74 1_555 1_555
H57 C94 1_555 1_555
C95 C90 1_555 1_555
C97 C63 1_555 1_555
H59 C97 1_555 1_555
H60 C99 1_555 1_555
O12 C80 1_555 1_555
C71 C75 1_555 1_555
C75 C76 1_555 1_555
C77 C83 1_555 1_555
C80 C81 1_555 1_555
C82 C87 1_555 1_555
C82 C93 1_555 1_555
C83 C86 1_555 1_555
C85 C97 1_555 1_555
C90 C94 1_555 1_555
O15 C5 1_555 1_555
O17 C5 1_555 1_555
C5 C10 1_555 1_555
C7 H6 1_555 1_555
C7 C10 1_555 1_555

#END
