
###############################################################################
#
# This file contains modified crystal structure data generated from the
# MOF subset of the Cambridge Structural Database (CSD) v543 
# hosted by the Cambridge Crystallographic Data Centre (CCDC).
#
# This work is licensed under the Creative Commons
# Attribution-NonCommercial-ShareAlike 4.0 International License.
# To view a copy of this license, visit
# http://creativecommons.org/licenses/by-nc-sa/4.0/
# or send a letter to
# Creative Commons, PO Box 1866, Mountain View, CA 94042, USA.
#
# CIF created using the CSD Python API on 29 September 2022
# The structure has been converted into the P1 space group
# The structure has a 3D framework
# The original CSD entry ONOHOR is in the triclinic crystal system
# The framework has been calculated to contain at least 10.0% void space
# The void calculation uses a probe of radius 1.32A, grid spacing 0.4
#
###############################################################################

data_ONOHOR
_chemical_formula_moiety         '(C126 H112 Cd6 N12 O28)n'
_symmetry_cell_setting           triclinic
_symmetry_space_group_name_H-M   'P 1'
_symmetry_Int_Tables_number      1
_space_group_name_Hall           'P 1'
loop_
_symmetry_equiv_pos_site_id
_symmetry_equiv_pos_as_xyz
1 x,y,z
_cell_length_a                   13.430(6)
_cell_length_b                   14.421(6)
_cell_length_c                   20.724(9)
_cell_angle_alpha                71.064(7)
_cell_angle_beta                 72.075(7)
_cell_angle_gamma                63.032(6)
_cell_volume                     3321.68
loop_
_atom_site_label
_atom_site_type_symbol
_atom_site_fract_x
_atom_site_fract_y
_atom_site_fract_z
H39 H 0.038482 0.066693 0.869802
H41 H 0.016313 0.018353 0.820477
O3 O 0.4963(4) 0.2582(4) 0.8776(3)
O9 O 0.4688(4) 0.3561(4) 0.9471(3)
C3 C 0.3135(5) 0.3977(5) 0.8964(3)
C8 C 0.0848(5) 0.5123(5) 0.8794(4)
C17 C 0.1536(5) 0.4199(5) 0.8544(4)
H3 H 0.123596 0.394876 0.831956
C18 C 0.2659(5) 0.3645(5) 0.8622(4)
H4 H 0.310244 0.303724 0.844206
C21 C 0.4332(5) 0.3344(5) 0.9077(4)
C32 C 0.2445(5) 0.4882(5) 0.9223(4)
H14 H 0.273915 0.511304 0.946399
C36 C 0.1325(5) 0.5459(5) 0.9132(4)
H18 H 0.088967 0.607822 0.930129
C60 C 0.0432(10) 0.8346(9) 0.9260(6)
H48 H 0.071790 0.823464 0.879372
H50 H 0.105843 0.811192 0.948491
Cd6 Cd 0.64217(3) 0.26048(3) 0.77963(2)
Cd11 Cd 0.63421(4) 0.19382(3) 0.95858(2)
O13 O 0.5180(7) 0.1251(6) 0.0467(3)
N5 N 0.4846(8) 0.0483(9) 0.1583(4)
C54 C 0.5093(10) 0.0723(12) 0.0968(7)
H42 H 0.382897 0.013639 0.241280
H43 H 0.493217 0.010290 0.254795
C62 C 0.4063(13) 0.1843(13) 0.1643(8)
H51 H 0.443491 0.203389 0.187747
H52 H 0.330622 0.193935 0.190028
H53 H 0.402476 0.228880 0.118515
N7 N 0.6479(6) 0.2522(5) 0.0457(3)
O2 O 0.5301(4) 0.2443(4) 0.6891(3)
O6 O 0.4984(4) 0.3851(4) 0.7252(3)
O7 O 0.7292(4) 0.0843(3) 0.8026(3)
O11 O 0.7014(5) 0.0455(4) 0.9184(3)
N1 N 0.0364(4) 0.5512(4) 0.6163(3)
C1 C 0.1455(5) 0.4997(5) 0.6353(3)
C4 C 0.2207(5) 0.4024(5) 0.6189(3)
H1 H 0.200785 0.372280 0.593944
C6 C 0.4713(5) 0.3371(5) 0.6972(4)
C7 C 0.3582(5) 0.3953(5) 0.6737(3)
C20 C 0.1774(5) 0.5450(5) 0.6706(3)
H6 H 0.127627 0.610217 0.682121
C22 C 0.3249(5) 0.3497(5) 0.6392(4)
H7 H 0.373157 0.282992 0.629606
H9 H 0.013798 0.885854 0.540892
H10 H 0.019554 0.379121 0.705157
C29 C 0.0325(5) 0.7320(5) 0.5696(3)
H12 H 0.106784 0.704640 0.545510
C30 C 0.7386(6) 0.0212(6) 0.8609(4)
C34 C 0.2838(5) 0.4932(5) 0.6889(4)
H16 H 0.305343 0.524936 0.711737
O14 O 0.8349(6) 0.0770(6) 0.9827(4)
C57 C 0.9865(10) 0.0437(10) 0.8628(7)
H40 H 0.914246 0.102474 0.859711
Cd8 Cd 0.68723(4) 0.20140(4) 0.60674(2)
O16 O 0.7752(4) 0.2444(4) 0.6741(2)
O20 O 0.7440(4) 0.2650(4) 0.8637(3)
O22 O 0.6670(5) 0.4080(4) 0.7859(3)
N2 N 0.9699(4) 0.5695(4) 0.8710(3)
C2 C 0.9143(5) 0.6827(5) 0.8682(4)
C9 C 0.9059(5) 0.5183(5) 0.8654(4)
C14 C 0.7830(6) 0.4161(5) 0.8480(4)
C25 C 0.8011(6) 0.9015(5) 0.8613(4)
C26 C 0.7262(6) 0.3612(5) 0.8320(4)
C28 C 0.9325(6) 0.7561(5) 0.8074(4)
H11 H 0.983978 0.732478 0.768504
C31 C 0.8733(6) 0.8647(6) 0.8052(4)
H13 H 0.883910 0.913105 0.764020
C33 C 0.9145(6) 0.4170(5) 0.9048(4)
H15 H 0.961266 0.382289 0.937607
C38 C 0.8389(6) 0.7195(6) 0.9242(4)
H20 H 0.825809 0.671311 0.964902
C39 C 0.8538(6) 0.3676(5) 0.8954(4)
H21 H 0.861354 0.299737 0.921946
C40 C 0.8332(6) 0.5693(5) 0.8180(4)
H22 H 0.825135 0.637283 0.791655
C41 C 0.7727(6) 0.5186(5) 0.8101(4)
H23 H 0.723664 0.553957 0.778558
C43 C 0.7815(6) 0.8277(6) 0.9216(4)
H25 H 0.729306 0.851530 0.960228
H49 H 0.996888 0.794659 0.951232
N6 N 0.9715(9) 0.9536(9) 0.9240(6)
C61 C 0.8969(9) 0.9804(8) 0.9797(6)
O5 O 0.7011(4) 0.0323(4) 0.6302(3)
O12 O 0.8526(5) 0.0597(4) 0.5683(3)
N3 N 0.6021(6) 0.2624(5) 0.5127(3)
C42 C 0.5880(8) 0.3522(7) 0.0529(5)
H24 H 0.559618 0.403275 0.014767
C44 C 0.6037(9) 0.3146(8) 0.1719(5)
C45 C 0.4843(10) 0.3320(8) 0.4048(5)
C46 C 0.5649(9) 0.3853(7) 0.1136(5)
H26 H 0.522400 0.456854 0.114742
C47 C 0.5685(9) 0.3586(8) 0.4771(5)
H27 H 0.585219 0.407124 0.487875
C48 C 0.5084(9) 0.3955(9) 0.4234(5)
H28 H 0.485555 0.466945 0.400594
C49 C 0.6677(9) 0.2092(8) 0.1655(5)
H29 H 0.697687 0.157182 0.202832
C50 C 0.5720(9) 0.3471(8) 0.2400(5)
H30 H 0.545464 0.423933 0.231954
H31 H 0.638256 0.314796 0.261543
C51 C 0.6863(9) 0.1823(8) 0.1029(5)
H32 H 0.728260 0.111194 0.100341
C52 C 0.4791(9) 0.3111(8) 0.2876(5)
H33 H 0.512109 0.234962 0.306279
H34 H 0.423894 0.324749 0.261096
C53 C 0.4190(10) 0.3689(9) 0.3475(5)
H35 H 0.401606 0.444373 0.328784
H36 H 0.347267 0.360613 0.367574
C55 C 0.5630(10) 0.1988(9) 0.5007(6)
H37 H 0.579506 0.129955 0.527710
C56 C 0.4986(10) 0.2327(9) 0.4491(5)
H38 H 0.466596 0.190250 0.444824
O19 O 0.7407(4) 0.3434(4) 0.5705(3)
C5 C 0.9780(5) 0.6638(5) 0.6089(3)
C10 C 0.7839(5) 0.3203(5) 0.6220(3)
C11 C 0.9755(5) 0.4914(5) 0.6187(3)
C12 C 0.8650(5) 0.8828(5) 0.6006(3)
C13 C 0.8479(5) 0.3817(5) 0.6224(3)
C15 C 0.9095(5) 0.5263(5) 0.5686(3)
H2 H 0.906924 0.587220 0.534030
C16 C 0.8031(5) 0.9983(5) 0.5996(3)
C19 C 0.8479(5) 0.4702(5) 0.5703(3)
H5 H 0.805953 0.492485 0.535812
C23 C 0.8643(5) 0.7060(5) 0.6409(3)
H8 H 0.825681 0.661423 0.664620
C24 C 0.9763(5) 0.8408(5) 0.5664(4)
C27 C 0.9765(5) 0.4025(5) 0.6711(3)
C35 C 0.8094(6) 0.8136(5) 0.6372(3)
H17 H 0.733889 0.841272 0.659388
C37 C 0.9123(5) 0.3489(5) 0.6723(3)
H19 H 0.912741 0.289241 0.707623
C58 C 0.4635(12) 0.9935(13) 0.2254(6)
H44 H 0.499602 0.918289 0.227105
C59 C 0.8861(11) 0.8798(10) 0.0450(7)
H45 H 0.890877 0.890999 0.086948
H46 H 0.946916 0.814410 0.035136
H47 H 0.814409 0.875855 0.050568
C63 C 0.5735(12) 0.9496(12) 0.0898(8)
H54 H 0.526319 0.931421 0.073557
H55 H 0.588196 0.904232 0.134310
H56 H 0.644205 0.940004 0.057302
O1 O 0.2248(4) 0.7556(4) 0.3259(2)
O4 O 0.2593(4) 0.6566(4) 0.4295(3)
C5_2 C 0.0220(5) 0.3362(5) 0.3911(3)
C10_2 C 0.2161(5) 0.6797(5) 0.3780(3)
C11_2 C 0.0245(5) 0.5086(5) 0.3813(3)
C12_2 C 0.1350(5) 0.1172(5) 0.3994(3)
C13_2 C 0.1521(5) 0.6183(5) 0.3776(3)
C15_2 C 0.0905(5) 0.4737(5) 0.4314(3)
H2_2 H 0.093076 0.412780 0.465970
C16_2 C 0.1969(5) 0.0017(5) 0.4004(3)
C19_2 C 0.1521(5) 0.5298(5) 0.4297(3)
H5_2 H 0.194047 0.507515 0.464188
C23_2 C 0.1357(5) 0.2940(5) 0.3591(3)
H8_2 H 0.174319 0.338577 0.335380
C24_2 C 0.0237(5) 0.1592(5) 0.4336(4)
C27_2 C 0.0235(5) 0.5975(5) 0.3289(3)
C35_2 C 0.1906(6) 0.1864(5) 0.3628(3)
H17_2 H 0.266111 0.158728 0.340612
C37_2 C 0.0877(5) 0.6511(5) 0.3277(3)
H19_2 H 0.087259 0.710759 0.292377
Cd4 Cd 0.35783(3) 0.73952(3) 0.22037(2)
Cd7 Cd 0.31277(4) 0.79860(4) 0.39326(2)
Cd9 Cd 0.36579(4) 0.80618(3) 0.04142(2)
O5_2 O 0.2989(4) 0.9677(4) 0.3698(3)
O12_2 O 0.1474(5) 0.9403(4) 0.4317(3)
N3_2 N 0.3979(6) 0.7376(5) 0.4873(3)
N4 N 0.3521(6) 0.7478(5) 0.9543(3)
C42_2 C 0.4120(8) 0.6478(7) 0.9471(5)
H24_2 H 0.440382 0.596725 0.985233
C44_2 C 0.3963(9) 0.6854(8) 0.8281(5)
C45_2 C 0.5157(10) 0.6680(8) 0.5952(5)
C46_2 C 0.4351(9) 0.6147(7) 0.8864(5)
H26_2 H 0.477600 0.543146 0.885258
C47_2 C 0.4315(9) 0.6414(8) 0.5229(5)
H27_2 H 0.414781 0.592876 0.512125
C48_2 C 0.4916(9) 0.6045(9) 0.5766(5)
H28_2 H 0.514445 0.533055 0.599406
C49_2 C 0.3323(9) 0.7908(8) 0.8345(5)
H29_2 H 0.302313 0.842818 0.797168
C50_2 C 0.4280(9) 0.6529(8) 0.7600(5)
H30_2 H 0.454536 0.576067 0.768046
H31_2 H 0.361744 0.685204 0.738457
C51_2 C 0.3137(9) 0.8177(8) 0.8971(5)
H32_2 H 0.271740 0.888806 0.899659
C52_2 C 0.5209(9) 0.6889(8) 0.7124(5)
H33_2 H 0.487891 0.765038 0.693721
H34_2 H 0.576106 0.675251 0.738904
C53_2 C 0.5810(10) 0.6311(9) 0.6525(5)
H35_2 H 0.598394 0.555627 0.671216
H36_2 H 0.652733 0.639387 0.632426
C55_2 C 0.4370(10) 0.8012(9) 0.4993(6)
H37_2 H 0.420494 0.870045 0.472290
C56_2 C 0.5014(10) 0.7673(9) 0.5509(5)
H38_2 H 0.533404 0.809750 0.555176
O17 O 0.4699(4) 0.7557(4) 0.3109(3)
O8 O 0.2560(4) 0.7350(4) 0.1363(3)
O10 O 0.3330(5) 0.5920(4) 0.2141(3)
N2_2 N 0.0301(4) 0.4305(4) 0.1290(3)
C2_2 C 0.0857(5) 0.3173(5) 0.1318(4)
C9_2 C 0.0941(5) 0.4817(5) 0.1346(4)
C14_2 C 0.2170(6) 0.5839(5) 0.1520(4)
C25_2 C 0.1989(6) 0.0985(5) 0.1387(4)
C26_2 C 0.2738(6) 0.6388(5) 0.1680(4)
C28_2 C 0.0675(6) 0.2439(5) 0.1926(4)
H11_2 H 0.016022 0.267522 0.231496
C31_2 C 0.1267(6) 0.1353(6) 0.1948(4)
H13_2 H 0.116090 0.086895 0.235980
C33_2 C 0.0855(6) 0.5830(5) 0.0952(4)
H15_2 H 0.038734 0.617711 0.062393
C38_2 C 0.1611(6) 0.2805(6) 0.0758(4)
H20_2 H 0.174191 0.328689 0.035098
C39_2 C 0.1462(6) 0.6324(5) 0.1046(4)
H21_2 H 0.138646 0.700263 0.078054
C40_2 C 0.1668(6) 0.4307(5) 0.1820(4)
H22_2 H 0.174865 0.362717 0.208345
C41_2 C 0.2273(6) 0.4814(5) 0.1899(4)
H23_2 H 0.276336 0.446043 0.221442
C43_2 C 0.2185(6) 0.1723(6) 0.0784(4)
H25_2 H 0.270694 0.148470 0.039772
H49_2 H 0.003112 0.205341 0.048768
N6_2 N 0.0285(9) 0.0464(9) 0.0760(6)
C61_2 C 0.1031(9) 0.0196(8) 0.0203(6)
O6_2 O 0.5016(4) 0.6149(4) 0.2748(3)
O7_2 O 0.2708(4) 0.9157(3) 0.1974(3)
O11_2 O 0.2986(5) 0.9545(4) 0.0816(3)
N1_2 N 0.9636(4) 0.4488(4) 0.3837(3)
C1_2 C 0.8545(5) 0.5003(5) 0.3647(3)
C4_2 C 0.7793(5) 0.5976(5) 0.3811(3)
H1_2 H 0.799215 0.627720 0.406056
C6_2 C 0.5287(5) 0.6629(5) 0.3028(4)
C7_2 C 0.6418(5) 0.6047(5) 0.3263(3)
C20_2 C 0.8226(5) 0.4550(5) 0.3294(3)
H6_2 H 0.872373 0.389783 0.317879
C22_2 C 0.6751(5) 0.6503(5) 0.3608(4)
H7_2 H 0.626843 0.717008 0.370394
H9_2 H 0.986202 0.114146 0.459108
H10_2 H 0.980446 0.620879 0.294843
C29_2 C 0.9675(5) 0.2680(5) 0.4304(3)
H12_2 H 0.893216 0.295360 0.454490
C30_2 C 0.2614(6) 0.9788(6) 0.1391(4)
C34_2 C 0.7162(5) 0.5068(5) 0.3111(4)
H16_2 H 0.694657 0.475064 0.288263
O14_2 O 0.1651(6) 0.9230(6) 0.0173(4)
C57_2 C 0.0135(10) 0.9563(10) 0.1372(7)
H40_2 H 0.085754 0.897526 0.140289
O18 O 0.5037(4) 0.7418(4) 0.1224(3)
O21 O 0.5312(4) 0.6439(4) 0.0529(3)
O13_2 O 0.4820(7) 0.8749(6) 0.9533(3)
N5_2 N 0.5154(8) 0.9517(9) 0.8417(4)
C54_2 C 0.4907(10) 0.9277(12) 0.9032(7)
H42_2 H 0.617103 0.986361 0.758720
H43_2 H 0.506783 0.989710 0.745205
C62_2 C 0.5937(13) 0.8157(13) 0.8357(8)
H51_2 H 0.556509 0.796611 0.812253
H52_2 H 0.669378 0.806065 0.809972
H53_2 H 0.597524 0.771120 0.881485
C3_2 C 0.6865(5) 0.6023(5) 0.1036(3)
C8_2 C 0.9152(5) 0.4877(5) 0.1206(4)
C17_2 C 0.8464(5) 0.5801(5) 0.1456(4)
H3_2 H 0.876404 0.605124 0.168044
C18_2 C 0.7341(5) 0.6355(5) 0.1378(4)
H4_2 H 0.689756 0.696276 0.155794
C21_2 C 0.5668(5) 0.6656(5) 0.0923(4)
C32_2 C 0.7555(5) 0.5118(5) 0.0777(4)
H14_2 H 0.726085 0.488696 0.053601
C36_2 C 0.8675(5) 0.4541(5) 0.0868(4)
H18_2 H 0.911033 0.392178 0.069871
C60_2 C 0.9568(10) 0.1654(9) 0.0740(6)
H48_2 H 0.928210 0.176536 0.120628
H50_2 H 0.894157 0.188808 0.051509
C58_2 C 0.5365(12) 0.0065(13) 0.7746(6)
H44_2 H 0.500398 0.081711 0.772895
C59_2 C 0.1139(11) 0.1202(10) 0.9550(7)
H45_2 H 0.109123 0.109001 0.913052
H46_2 H 0.053084 0.185590 0.964864
H47_2 H 0.185591 0.124145 0.949432
C63_2 C 0.4265(12) 0.0504(12) 0.9102(8)
H54_2 H 0.473681 0.068579 0.926443
H55_2 H 0.411804 0.095768 0.865690
H56_2 H 0.355795 0.059996 0.942698
H39_2 H 0.961518 0.933307 0.130198
H41_2 H 0.983687 0.981647 0.179523
loop_
_geom_bond_atom_site_label_1
_geom_bond_atom_site_label_2
_geom_bond_site_symmetry_1
_geom_bond_site_symmetry_2
O3 C21 1_555 1_555
O9 C21 1_555 1_555
C3 C18 1_555 1_555
C17 C8 1_555 1_555
H3 C17 1_555 1_555
C18 C17 1_555 1_555
H4 C18 1_555 1_555
C21 C3 1_555 1_555
C32 C3 1_555 1_555
H14 C32 1_555 1_555
C36 C8 1_555 1_555
H18 C36 1_555 1_555
C60 H48 1_555 1_555
H50 C60 1_555 1_555
Cd6 O3 1_555 1_555
Cd11 O3 1_555 1_555
O9 Cd11 1_555 1_555
C32 C36 1_555 1_555
N5 C54 1_555 1_555
C54 O13 1_555 1_555
C62 N5 1_555 1_555
H51 C62 1_555 1_555
H52 C62 1_555 1_555
H53 C62 1_555 1_555
Cd6 O6 1_555 1_555
Cd11 O11 1_555 1_555
O2 C6 1_555 1_555
O6 C6 1_555 1_555
O7 Cd6 1_555 1_555
O11 C30 1_555 1_555
N1 C1 1_555 1_555
C1 C4 1_555 1_555
C4 H1 1_555 1_555
C6 C7 1_555 1_555
C7 C22 1_555 1_555
C20 C1 1_555 1_555
H6 C20 1_555 1_555
C22 C4 1_555 1_555
H7 C22 1_555 1_555
H12 C29 1_555 1_555
C30 O7 1_555 1_555
C34 C7 1_555 1_555
H16 C34 1_555 1_555
O14 Cd11 1_555 1_555
H40 C57 1_555 1_555
Cd8 O2 1_555 1_555
O16 Cd6 1_555 1_555
O20 Cd6 1_555 1_555
O22 Cd6 1_555 1_555
Cd11 O20 1_555 1_555
C20 C34 1_555 1_555
Cd8 O16 1_555 1_555
O20 C26 1_555 1_555
O22 C26 1_555 1_555
N2 C2 1_555 1_555
C2 C28 1_555 1_555
C9 N2 1_555 1_555
C14 C26 1_555 1_555
C28 H11 1_555 1_555
C31 C25 1_555 1_555
H13 C31 1_555 1_555
C33 C9 1_555 1_555
H15 C33 1_555 1_555
C38 C2 1_555 1_555
H20 C38 1_555 1_555
C39 C14 1_555 1_555
H21 C39 1_555 1_555
C40 C9 1_555 1_555
H22 C40 1_555 1_555
C41 C14 1_555 1_555
H23 C41 1_555 1_555
C43 C25 1_555 1_555
H25 C43 1_555 1_555
C28 C31 1_555 1_555
C33 C39 1_555 1_555
C38 C43 1_555 1_555
C40 C41 1_555 1_555
N6 C61 1_555 1_555
Cd8 O5 1_555 1_555
O12 Cd8 1_555 1_555
N3 Cd8 1_555 1_555
N7 C42 1_555 1_555
C42 H24 1_555 1_555
C44 C46 1_555 1_555
C45 C48 1_555 1_555
C46 C42 1_555 1_555
H26 C46 1_555 1_555
C47 N3 1_555 1_555
H27 C47 1_555 1_555
C48 C47 1_555 1_555
H28 C48 1_555 1_555
C49 C44 1_555 1_555
H29 C49 1_555 1_555
C50 C44 1_555 1_555
H30 C50 1_555 1_555
H31 C50 1_555 1_555
C51 N7 1_555 1_555
H32 C51 1_555 1_555
C52 C50 1_555 1_555
H33 C52 1_555 1_555
H34 C52 1_555 1_555
C53 C45 1_555 1_555
H35 C53 1_555 1_555
H36 C53 1_555 1_555
C55 N3 1_555 1_555
H37 C55 1_555 1_555
C56 C45 1_555 1_555
H38 C56 1_555 1_555
O19 Cd8 1_555 1_555
C49 C51 1_555 1_555
C52 C53 1_555 1_555
C55 C56 1_555 1_555
O16 C10 1_555 1_555
O19 C10 1_555 1_555
C10 C13 1_555 1_555
C12 C16 1_555 1_555
C13 C19 1_555 1_555
C15 C11 1_555 1_555
H2 C15 1_555 1_555
C19 C15 1_555 1_555
H5 C19 1_555 1_555
C23 C5 1_555 1_555
H8 C23 1_555 1_555
C24 C12 1_555 1_555
C27 C11 1_555 1_555
C35 C12 1_555 1_555
H17 C35 1_555 1_555
C37 C13 1_555 1_555
H19 C37 1_555 1_555
C23 C35 1_555 1_555
C27 C37 1_555 1_555
H44 C58 1_555 1_555
C59 H45 1_555 1_555
H46 C59 1_555 1_555
H47 C59 1_555 1_555
H54 C63 1_555 1_555
H55 C63 1_555 1_555
H56 C63 1_555 1_555
O1 C10_2 1_555 1_555
O4 C10_2 1_555 1_555
C10_2 C13_2 1_555 1_555
C12_2 C16_2 1_555 1_555
C13_2 C19_2 1_555 1_555
C15_2 C11_2 1_555 1_555
H2_2 C15_2 1_555 1_555
C19_2 C15_2 1_555 1_555
H5_2 C19_2 1_555 1_555
C23_2 C5_2 1_555 1_555
H8_2 C23_2 1_555 1_555
C24_2 C12_2 1_555 1_555
C27_2 C11_2 1_555 1_555
C35_2 C12_2 1_555 1_555
H17_2 C35_2 1_555 1_555
C37_2 C13_2 1_555 1_555
H19_2 C37_2 1_555 1_555
Cd4 O1 1_555 1_555
Cd7 O1 1_555 1_555
O4 Cd7 1_555 1_555
C23_2 C35_2 1_555 1_555
C27_2 C37_2 1_555 1_555
Cd7 O5_2 1_555 1_555
O12_2 Cd7 1_555 1_555
N3_2 Cd7 1_555 1_555
N4 C42_2 1_555 1_555
C42_2 H24_2 1_555 1_555
C44_2 C46_2 1_555 1_555
C45_2 C48_2 1_555 1_555
C46_2 C42_2 1_555 1_555
H26_2 C46_2 1_555 1_555
C47_2 N3_2 1_555 1_555
H27_2 C47_2 1_555 1_555
C48_2 C47_2 1_555 1_555
H28_2 C48_2 1_555 1_555
C49_2 C44_2 1_555 1_555
H29_2 C49_2 1_555 1_555
C50_2 C44_2 1_555 1_555
H30_2 C50_2 1_555 1_555
H31_2 C50_2 1_555 1_555
C51_2 N4 1_555 1_555
H32_2 C51_2 1_555 1_555
C52_2 C50_2 1_555 1_555
H33_2 C52_2 1_555 1_555
H34_2 C52_2 1_555 1_555
C53_2 C45_2 1_555 1_555
H35_2 C53_2 1_555 1_555
H36_2 C53_2 1_555 1_555
C55_2 N3_2 1_555 1_555
H37_2 C55_2 1_555 1_555
C56_2 C45_2 1_555 1_555
H38_2 C56_2 1_555 1_555
O17 Cd7 1_555 1_555
C49_2 C51_2 1_555 1_555
C52_2 C53_2 1_555 1_555
C55_2 C56_2 1_555 1_555
O8 C26_2 1_555 1_555
O10 C26_2 1_555 1_555
N2_2 C2_2 1_555 1_555
C2_2 C28_2 1_555 1_555
C9_2 N2_2 1_555 1_555
C14_2 C26_2 1_555 1_555
C28_2 H11_2 1_555 1_555
C31_2 C25_2 1_555 1_555
H13_2 C31_2 1_555 1_555
C33_2 C9_2 1_555 1_555
H15_2 C33_2 1_555 1_555
C38_2 C2_2 1_555 1_555
H20_2 C38_2 1_555 1_555
C39_2 C14_2 1_555 1_555
H21_2 C39_2 1_555 1_555
C40_2 C9_2 1_555 1_555
H22_2 C40_2 1_555 1_555
C41_2 C14_2 1_555 1_555
H23_2 C41_2 1_555 1_555
C43_2 C25_2 1_555 1_555
H25_2 C43_2 1_555 1_555
Cd4 O8 1_555 1_555
Cd9 O8 1_555 1_555
O10 Cd4 1_555 1_555
C28_2 C31_2 1_555 1_555
C33_2 C39_2 1_555 1_555
C38_2 C43_2 1_555 1_555
C40_2 C41_2 1_555 1_555
N6_2 C61_2 1_555 1_555
Cd4 O6_2 1_555 1_555
Cd9 O11_2 1_555 1_555
O17 C6_2 1_555 1_555
O6_2 C6_2 1_555 1_555
O7_2 Cd4 1_555 1_555
O11_2 C30_2 1_555 1_555
N1_2 C1_2 1_555 1_555
C1_2 C4_2 1_555 1_555
C4_2 H1_2 1_555 1_555
C6_2 C7_2 1_555 1_555
C7_2 C22_2 1_555 1_555
C20_2 C1_2 1_555 1_555
H6_2 C20_2 1_555 1_555
C22_2 C4_2 1_555 1_555
H7_2 C22_2 1_555 1_555
H12_2 C29_2 1_555 1_555
C30_2 O7_2 1_555 1_555
C34_2 C7_2 1_555 1_555
H16_2 C34_2 1_555 1_555
O14_2 Cd9 1_555 1_555
H40_2 C57_2 1_555 1_555
O18 Cd4 1_555 1_555
O21 Cd9 1_555 1_555
Cd9 O18 1_555 1_555
C20_2 C34_2 1_555 1_555
N5_2 C54_2 1_555 1_555
C54_2 O13_2 1_555 1_555
C62_2 N5_2 1_555 1_555
H51_2 C62_2 1_555 1_555
H52_2 C62_2 1_555 1_555
H53_2 C62_2 1_555 1_555
O18 C21_2 1_555 1_555
O21 C21_2 1_555 1_555
C3_2 C18_2 1_555 1_555
C17_2 C8_2 1_555 1_555
H3_2 C17_2 1_555 1_555
C18_2 C17_2 1_555 1_555
H4_2 C18_2 1_555 1_555
C21_2 C3_2 1_555 1_555
C32_2 C3_2 1_555 1_555
H14_2 C32_2 1_555 1_555
C36_2 C8_2 1_555 1_555
H18_2 C36_2 1_555 1_555
C60_2 H48_2 1_555 1_555
H50_2 C60_2 1_555 1_555
C32_2 C36_2 1_555 1_555
H44_2 C58_2 1_555 1_555
C59_2 H45_2 1_555 1_555
H46_2 C59_2 1_555 1_555
H47_2 C59_2 1_555 1_555
H54_2 C63_2 1_555 1_555
H55_2 C63_2 1_555 1_555
H56_2 C63_2 1_555 1_555

#END
