
###############################################################################
#
# This file contains modified crystal structure data generated from the
# MOF subset of the Cambridge Structural Database (CSD) v543 
# hosted by the Cambridge Crystallographic Data Centre (CCDC).
#
# This work is licensed under the Creative Commons
# Attribution-NonCommercial-ShareAlike 4.0 International License.
# To view a copy of this license, visit
# http://creativecommons.org/licenses/by-nc-sa/4.0/
# or send a letter to
# Creative Commons, PO Box 1866, Mountain View, CA 94042, USA.
#
# CIF created using the CSD Python API on 29 September 2022
# The structure has been converted into the P1 space group
# The structure has a 3D framework
# The original CSD entry ONOHIL is in the triclinic crystal system
# The framework has been calculated to contain at least 10.0% void space
# The void calculation uses a probe of radius 1.32A, grid spacing 0.4
#
###############################################################################

data_ONOHIL
_chemical_formula_moiety         '(C68 H52 Cd4 N6 O10)n'
_symmetry_cell_setting           triclinic
_symmetry_space_group_name_H-M   'P 1'
_symmetry_Int_Tables_number      1
_space_group_name_Hall           'P 1'
loop_
_symmetry_equiv_pos_site_id
_symmetry_equiv_pos_as_xyz
1 x,y,z
_cell_length_a                   12.5310(12)
_cell_length_b                   13.5757(11)
_cell_length_c                   14.1378(13)
_cell_angle_alpha                98.222(4)
_cell_angle_beta                 115.811(4)
_cell_angle_gamma                111.421(4)
_cell_volume                     1880.13
loop_
_atom_site_label
_atom_site_type_symbol
_atom_site_fract_x
_atom_site_fract_y
_atom_site_fract_z
O17 O 0.0247(2) 0.18150(14) 0.20161(15)
O21 O 0.0011(2) 0.20295(15) 0.34544(17)
Cd10 Cd 0.13394(2) 0.97406(2) 0.79906(2)
Cd6 Cd 0.500000 -0.000000 0.000000
Cd8 Cd 0.86606(2) 0.02594(2) 0.20094(2)
Cd6_2 Cd 0.500000 -0.000000 1.000000
N7 N 0.6748(2) 0.18572(16) 0.11477(17)
O15 O 0.31127(17) 0.01932(14) 0.98762(13)
O16 O 0.48074(18) 0.06385(15) 0.85783(15)
O1 O 0.68873(17) 0.98068(14) 0.01238(13)
O4 O 0.8190(2) 0.90245(16) 0.03586(14)
Cd6_3 Cd 0.500000 1.000000 0.000000
O2 O 0.51926(18) 0.93615(15) 0.14217(15)
O5 O 0.73233(19) 0.98437(19) 0.26707(16)
N2 N 0.4511(2) 0.71137(16) 0.49516(15)
N3 N 0.9761(2) 0.93485(18) 0.29605(17)
C1 C 0.0570(2) 0.2429(2) 0.2949(2)
C2 C 0.6040(3) 0.9200(2) 0.7771(2)
H1 H 0.611456 0.989209 0.807880
C3 C 0.5250(2) 0.76609(19) 0.61509(19)
C4 C 0.5654(2) 0.88680(19) 0.3036(2)
C5 C 0.7265(3) 0.91996(19) 0.9719(2)
C6 C 0.4884(2) 0.77296(19) 0.43143(19)
C7 C 0.6085(3) 0.9406(2) 0.2314(2)
C8 C 0.1611(2) 0.36476(19) 0.3459(2)
C9 C 0.2924(3) 0.5446(2) 0.4986(2)
H2 H 0.314785 0.587887 0.568110
C10 C 0.6590(2) 0.86864(19) 0.84746(19)
C11 C 0.6614(3) 0.8990(2) 0.4098(2)
H3 H 0.752546 0.945885 0.438724
C12 C 0.3548(2) 0.59491(18) 0.44439(19)
C13 C 0.2222(3) 0.41494(19) 0.2916(2)
H4 H 0.197586 0.371836 0.221073
C14 C 0.6237(3) 0.8427(2) 0.4727(2)
H5 H 0.689305 0.851550 0.543267
C15 C 0.3914(2) 0.7641(2) 0.3279(2)
H6 H 0.300160 0.720381 0.300929
C16 C 0.7575(3) 0.2364(2) 0.0803(2)
H7 H 0.747588 0.193635 0.016547
C17 C 0.4300(2) 0.8202(2) 0.2648(2)
H8 H 0.364266 0.813142 0.195249
C18 C 0.5379(3) 0.8699(2) 0.6616(2)
H9 H 0.502160 0.905847 0.615098
C19 C 0.6503(3) 0.7668(2) 0.8004(2)
H10 H 0.689822 0.732738 0.847137
C21 C 0.8562(3) 0.3481(2) 0.1341(2)
H11 H 0.911117 0.378445 0.106698
C22 C 0.8745(3) 0.4160(2) 0.2289(2)
C23 C 0.5832(3) 0.7154(2) 0.6847(2)
H12 H 0.577316 0.646976 0.653926
C24 C 0.3192(3) 0.52813(19) 0.3405(2)
H13 H 0.360865 0.559654 0.303566
H14 H 0.982645 0.817071 0.479321
C26 C 0.1980(3) 0.4315(2) 0.4498(2)
H15 H 0.158044 0.399159 0.487510
C27 C 0.9520(3) 0.9016(2) 0.3730(2)
H16 H 0.899388 0.923614 0.391601
C28 C 0.6955(3) 0.2494(2) 0.2083(2)
H17 H 0.642109 0.216089 0.236021
C31 C 0.7924(3) 0.3628(2) 0.2666(2)
H21 H 0.802240 0.403167 0.331388
C32 C 0.9798(3) 0.5399(2) 0.2841(2)
H22 H 0.948178 0.579060 0.235007
H25 H 0.934740 0.599417 0.395315
Cd6_4 Cd 0.500000 1.000000 1.000000
O9 O 0.9753(2) 0.81850(14) 0.79839(15)
O11 O 0.26767(19) 0.01563(19) 0.73293(16)
N4 N 0.3252(2) 0.81428(16) 0.88523(17)
O12 O 0.9989(2) 0.79705(15) 0.65456(17)
N5 N 0.5489(2) 0.28863(16) 0.50484(15)
N6 N 0.0239(2) 0.06515(18) 0.70395(17)
C35 C 0.9430(2) 0.7571(2) 0.7051(2)
C36 C 0.3960(3) 0.0800(2) 0.2229(2)
H27 H 0.388544 0.010791 0.192120
C37 C 0.4750(2) 0.23391(19) 0.38491(19)
C38 C 0.4346(2) 0.11320(19) 0.6964(2)
C39 C 0.2735(3) 0.08004(19) 0.0281(2)
C40 C 0.5116(2) 0.22704(19) 0.56857(19)
C41 C 0.3915(3) 0.0594(2) 0.7686(2)
C42 C 0.8389(2) 0.63524(19) 0.6541(2)
C43 C 0.7076(3) 0.4554(2) 0.5014(2)
H28 H 0.685215 0.412113 0.431890
C44 C 0.3410(2) 0.13136(19) 0.15254(19)
C45 C 0.3386(3) 0.1010(2) 0.5902(2)
H29 H 0.247454 0.054115 0.561276
C46 C 0.6452(2) 0.40509(18) 0.55561(19)
C47 C 0.7778(3) 0.58506(19) 0.7084(2)
H30 H 0.802414 0.628164 0.778927
C48 C 0.3763(3) 0.1573(2) 0.5273(2)
H31 H 0.310695 0.148450 0.456733
C49 C 0.6086(2) 0.2359(2) 0.6721(2)
H32 H 0.699840 0.279619 0.699071
C50 C 0.2425(3) 0.7636(2) 0.9197(2)
H33 H 0.252412 0.806365 0.983453
C51 C 0.5700(2) 0.1798(2) 0.7352(2)
H34 H 0.635734 0.186858 0.804751
C52 C 0.4621(3) 0.1301(2) 0.3384(2)
H35 H 0.497840 0.094153 0.384902
C53 C 0.3497(3) 0.2332(2) 0.1996(2)
H36 H 0.310178 0.267262 0.152863
C55 C 0.1438(3) 0.6519(2) 0.8659(2)
H37 H 0.088883 0.621555 0.893302
C56 C 0.1255(3) 0.5840(2) 0.7711(2)
C57 C 0.4168(3) 0.2846(2) 0.3153(2)
H38 H 0.422684 0.353024 0.346074
C58 C 0.6808(3) 0.47187(19) 0.6595(2)
H39 H 0.639135 0.440346 0.696434
H40 H 0.017355 0.182929 0.520679
C60 C 0.8020(3) 0.5685(2) 0.5502(2)
H41 H 0.841956 0.600841 0.512490
C61 C 0.0480(3) 0.0984(2) 0.6270(2)
H42 H 0.100612 0.076386 0.608399
C62 C 0.3045(3) 0.7506(2) 0.7917(2)
H43 H 0.357891 0.783911 0.763979
C65 C 0.2076(3) 0.6372(2) 0.7334(2)
H47 H 0.197760 0.596833 0.668612
C66 C 0.0202(3) 0.4601(2) 0.7159(2)
H48 H 0.051822 0.420940 0.764993
H51 H 0.065260 0.400583 0.604685
O20 O 0.1810(2) 0.09755(16) 0.96414(14)
C20 C 0.0775(3) 0.8010(2) 0.3992(2)
C25 C 0.0011(3) 0.8368(2) 0.4257(2)
C29 C 0.1263(3) 0.7260(2) 0.4529(2)
H18 H 0.159825 0.754333 0.532643
H19 H 0.200925 0.729718 0.445455
C30 C 0.0528(3) 0.9027(2) 0.2725(2)
H20 H 0.072829 0.925915 0.220757
H23 H 0.061829 0.545652 0.289358
C33 C 0.0154(3) 0.6017(2) 0.4003(2)
H24 H 0.045033 0.562131 0.449613
C34 C 0.1041(3) 0.8365(2) 0.3213(2)
H26 H 0.156693 0.815664 0.301601
C54 C 0.9225(3) 0.1990(2) 0.6008(2)
C59 C 0.9989(3) 0.1632(2) 0.5743(2)
C63 C 0.8737(3) 0.2740(2) 0.5471(2)
H44 H 0.840175 0.245667 0.467357
H45 H 0.799075 0.270282 0.554545
C64 C 0.9472(3) 0.0973(2) 0.7275(2)
H46 H 0.927171 0.074085 0.779243
H49 H 0.938171 0.454348 0.710642
C67 C 0.9846(3) 0.3983(2) 0.5997(2)
H50 H 0.954967 0.437869 0.550387
C68 C 0.8959(3) 0.1635(2) 0.6787(2)
H52 H 0.843307 0.184336 0.698399
loop_
_geom_bond_atom_site_label_1
_geom_bond_atom_site_label_2
_geom_bond_site_symmetry_1
_geom_bond_site_symmetry_2
N7 Cd6 1_555 1_555
O15 Cd6_2 1_555 1_555
O16 Cd6_2 1_555 1_555
Cd6_3 O1 1_555 1_555
Cd6_3 O2 1_555 1_555
O2 C7 1_555 1_555
O17 C1 1_555 1_555
O5 C7 1_555 1_555
N7 C16 1_555 1_555
O21 C1 1_555 1_555
N2 C3 1_555 1_555
C1 C8 1_555 1_555
C2 H1 1_555 1_555
C3 C18 1_555 1_555
C4 C7 1_555 1_555
C5 C10 1_555 1_555
C6 N2 1_555 1_555
C8 C13 1_555 1_555
C9 H2 1_555 1_555
C10 C2 1_555 1_555
C11 C4 1_555 1_555
H3 C11 1_555 1_555
C12 N2 1_555 1_555
C13 H4 1_555 1_555
C14 C6 1_555 1_555
H5 C14 1_555 1_555
C15 C6 1_555 1_555
H6 C15 1_555 1_555
C16 H7 1_555 1_555
C17 C4 1_555 1_555
H8 C17 1_555 1_555
C18 C2 1_555 1_555
H9 C18 1_555 1_555
C19 C10 1_555 1_555
H10 C19 1_555 1_555
C21 C16 1_555 1_555
H11 C21 1_555 1_555
C22 C21 1_555 1_555
C23 C3 1_555 1_555
H12 C23 1_555 1_555
C24 C12 1_555 1_555
H13 C24 1_555 1_555
C26 C8 1_555 1_555
H15 C26 1_555 1_555
C27 N3 1_555 1_555
H16 C27 1_555 1_555
C28 N7 1_555 1_555
H17 C28 1_555 1_555
C31 C22 1_555 1_555
H21 C31 1_555 1_555
C32 C22 1_555 1_555
H22 C32 1_555 1_555
C9 C12 1_555 1_555
C9 C26 1_555 1_555
C11 C14 1_555 1_555
C13 C24 1_555 1_555
C15 C17 1_555 1_555
C19 C23 1_555 1_555
C28 C31 1_555 1_555
O16 C41 1_555 1_555
O9 C35 1_555 1_555
O11 C41 1_555 1_555
N4 Cd6_4 1_555 1_555
O12 C35 1_555 1_555
N5 C37 1_555 1_555
C35 C42 1_555 1_555
C36 H27 1_555 1_555
C37 C52 1_555 1_555
C38 C41 1_555 1_555
C39 C44 1_555 1_555
C40 N5 1_555 1_555
C42 C47 1_555 1_555
C43 H28 1_555 1_555
C44 C36 1_555 1_555
C45 C38 1_555 1_555
H29 C45 1_555 1_555
C46 N5 1_555 1_555
C47 H30 1_555 1_555
C48 C40 1_555 1_555
H31 C48 1_555 1_555
C49 C40 1_555 1_555
H32 C49 1_555 1_555
C50 N4 1_555 1_555
H33 C50 1_555 1_555
C51 C38 1_555 1_555
H34 C51 1_555 1_555
C52 C36 1_555 1_555
H35 C52 1_555 1_555
C53 C44 1_555 1_555
H36 C53 1_555 1_555
C55 C50 1_555 1_555
H37 C55 1_555 1_555
C56 C55 1_555 1_555
C57 C37 1_555 1_555
H38 C57 1_555 1_555
C58 C46 1_555 1_555
H39 C58 1_555 1_555
C60 C42 1_555 1_555
H41 C60 1_555 1_555
C61 N6 1_555 1_555
H42 C61 1_555 1_555
C62 N4 1_555 1_555
H43 C62 1_555 1_555
C65 C56 1_555 1_555
H47 C65 1_555 1_555
C66 C56 1_555 1_555
H48 C66 1_555 1_555
C43 C46 1_555 1_555
C43 C60 1_555 1_555
C45 C48 1_555 1_555
C47 C58 1_555 1_555
C49 C51 1_555 1_555
C53 C57 1_555 1_555
C62 C65 1_555 1_555
C20 C25 1_555 1_555
C29 C20 1_555 1_555
H18 C29 1_555 1_555
H19 C29 1_555 1_555
H20 C30 1_555 1_555
C33 C29 1_555 1_555
H24 C33 1_555 1_555
C34 C20 1_555 1_555
H26 C34 1_555 1_555
C30 C34 1_555 1_555
C54 C59 1_555 1_555
C63 C54 1_555 1_555
H44 C63 1_555 1_555
H45 C63 1_555 1_555
H46 C64 1_555 1_555
C67 C63 1_555 1_555
H50 C67 1_555 1_555
C68 C54 1_555 1_555
H52 C68 1_555 1_555
C64 C68 1_555 1_555

#END
