
###############################################################################
#
# This file contains modified crystal structure data generated from the
# MOF subset of the Cambridge Structural Database (CSD) v543 
# hosted by the Cambridge Crystallographic Data Centre (CCDC).
#
# This work is licensed under the Creative Commons
# Attribution-NonCommercial-ShareAlike 4.0 International License.
# To view a copy of this license, visit
# http://creativecommons.org/licenses/by-nc-sa/4.0/
# or send a letter to
# Creative Commons, PO Box 1866, Mountain View, CA 94042, USA.
#
# CIF created using the CSD Python API on 29 September 2022
# The structure has been converted into the P1 space group
# The structure has a 3D framework
# The original CSD entry ONOWIA is in the monoclinic crystal system
# The framework has been calculated to contain at least 10.0% void space
# The void calculation uses a probe of radius 1.32A, grid spacing 0.4
#
###############################################################################

data_ONOWIA
_chemical_formula_moiety         '(C68 H60 Cu17 N30 S10)n'
_symmetry_cell_setting           triclinic
_symmetry_space_group_name_H-M   'P 1'
_symmetry_Int_Tables_number      1
_space_group_name_Hall           'P 1'
loop_
_symmetry_equiv_pos_site_id
_symmetry_equiv_pos_as_xyz
1 x,y,z
_cell_length_a                   11.1562(4)
_cell_length_b                   19.4095(7)
_cell_length_c                   12.6343(4)
_cell_angle_alpha                90
_cell_angle_beta                 91.6790(10)
_cell_angle_gamma                90
_cell_volume                     2734.61
loop_
_atom_site_label
_atom_site_type_symbol
_atom_site_fract_x
_atom_site_fract_y
_atom_site_fract_z
C1 C 0.3526(7) 0.1553(4) 0.1130(6)
C3 C 0.1770(10) 0.2386(6) 0.0426(9)
H2 H 0.116553 0.267448 0.016435
C4 C 0.2494(9) 0.2576(5) 0.1302(7)
C5 C 0.2398(10) 0.3247(6) 0.1843(10)
H3 H 0.227241 0.317285 0.258231
H4 H 0.173465 0.350064 0.153848
H5 H 0.312492 0.350333 0.175840
C15 C 0.2568(13) 0.0218(7) 0.3528(9)
H14 H 0.207028 0.030728 0.411981
H15 H 0.294678 0.063745 0.331555
C16 C 0.5878(9) 0.2813(5) 0.2403(7)
Cu3 Cu 0.58966(11) 0.09823(6) 0.01723(9)
Cu4 Cu 0.45933(11) 0.22871(7) 0.29038(9)
N1 N 0.2867(7) 0.1341(4) 0.0296(6)
N2 N 0.3370(6) 0.2147(3) 0.1656(5)
N7 N 0.6697(9) 0.3068(5) 0.2045(7)
S1 S 0.4734(2) 0.10437(11) 0.15989(17)
Cu9 Cu 0.82302(11) 0.32004(7) 0.14424(9)
N11 N 0.4059(8) 0.1942(6) 0.4219(8)
S5 S 0.7664(2) 0.04839(12) 0.03752(19)
C2 C 0.1983(10) 0.1758(6) 0.9968(8)
H1 H 0.148828 0.161686 0.940314
C6 C 0.4822(7) 0.1636(4) 0.8314(6)
C7 C 0.5799(11) 0.2429(6) 0.9375(9)
H6 H 0.627619 0.253712 0.996783
C8 C 0.5409(14) 0.2946(6) 0.8706(11)
H7 H 0.561606 0.340138 0.884682
C9 C 0.4718(11) 0.2785(5) 0.7833(9)
C10 C 0.4256(16) 0.3320(6) 0.7052(10)
H8 H 0.457914 0.323084 0.636974
H9 H 0.449923 0.376973 0.728923
H10 H 0.339670 0.329769 0.700235
C17 C 0.3753(9) 0.1793(6) 0.5061(7)
Cu1 Cu 0.33940(11) 0.04876(6) 0.94904(9)
Cu2 Cu 0.58794(10) 0.00678(6) 0.85312(9)
Cu5 Cu 0.32302(11) 0.17996(7) 0.64424(9)
N3 N 0.5497(7) 0.1769(4) 0.9184(6)
N4 N 0.4434(7) 0.2129(4) 0.7627(6)
S2 S 0.4392(2) 0.07922(11) 0.80233(17)
N9 N 0.7661(7) 0.0183(4) 0.8312(6)
N10 N 0.1697(9) 0.1932(5) 0.7045(7)
C11 C 0.1660(8) 0.9578(4) 0.0852(8)
C13 C 0.0585(11) 0.9796(6) 0.2696(10)
H12 H 0.019288 0.988370 0.332171
C14 C 0.1800(10) 0.9937(5) 0.2610(9)
H13 H 0.316990 0.988512 0.372753
N5 N 0.0500(8) 0.9419(5) 0.0900(7)
N6 N 0.2339(7) 0.9817(4) 0.1688(6)
Cu6 Cu 0.41206(10) 0.99322(6) 0.14688(9)
S3 S 0.2336(2) 0.95161(12) 0.96248(19)
Cu7 Cu 0.41034(11) 0.90177(6) 0.98277(9)
S4 S 0.5266(2) 0.89563(11) 0.84011(17)
N8 N 0.0941(8) 0.6942(6) 0.0781(8)
Cu8 Cu 0.04067(11) 0.72871(7) 0.20962(9)
C1_2 C 0.1474(7) 0.6553(4) 0.3870(6)
C2_2 C 0.3017(10) 0.6758(6) 0.5032(8)
H1_2 H 0.351172 0.661686 0.559686
C3_2 C 0.3230(10) 0.7386(6) 0.4574(9)
H2_2 H 0.383447 0.767448 0.483565
C4_2 C 0.2506(9) 0.7576(5) 0.3698(7)
C5_2 C 0.2602(10) 0.8247(6) 0.3157(10)
H3_2 H 0.272759 0.817285 0.241769
H4_2 H 0.326535 0.850064 0.346152
H5_2 H 0.187508 0.850333 0.324160
C6_2 C 0.0178(7) 0.6636(4) 0.6686(6)
C9_2 C 0.0282(11) 0.7785(5) 0.7167(9)
C10_2 C 0.0744(16) 0.8320(6) 0.7948(10)
H8_2 H 0.042086 0.823084 0.863026
H9_2 H 0.050077 0.876973 0.771077
H10_2 H 0.160330 0.829769 0.799765
C11_2 C 0.3340(8) 0.4578(4) 0.4148(8)
C12 C 0.5011(11) 0.4527(6) 0.3158(11)
H11 H 0.581386 0.441123 0.309162
C13_2 C 0.4415(11) 0.4796(6) 0.2304(10)
H12_2 H 0.480712 0.488370 0.167829
C14_2 C 0.3200(10) 0.4937(5) 0.2390(9)
C15_2 C 0.2432(13) 0.5218(7) 0.1472(9)
H13_2 H 0.183010 0.488512 0.127247
H14_2 H 0.292972 0.530728 0.088019
H15_2 H 0.205322 0.563745 0.168445
C17_2 C 0.1247(9) 0.6793(6) 0.9939(7)
Cu1_2 Cu 0.16060(11) 0.54876(6) 0.55096(9)
Cu5_2 Cu 0.17698(11) 0.67996(7) 0.85576(9)
N1_2 N 0.2133(7) 0.6341(4) 0.4704(6)
N2_2 N 0.1630(6) 0.7147(3) 0.3344(5)
N4_2 N 0.0566(7) 0.7129(4) 0.7373(6)
N5_2 N 0.4500(8) 0.4419(5) 0.4100(7)
N6_2 N 0.2661(7) 0.4817(4) 0.3312(6)
S1_2 S 0.0266(2) 0.60437(11) 0.34011(17)
S2_2 S 0.0608(2) 0.57922(11) 0.69767(17)
S3_2 S 0.2664(2) 0.45161(12) 0.53752(19)
Cu6_2 Cu 0.08794(10) 0.49322(6) 0.35312(9)
Cu7_2 Cu 0.08966(11) 0.40177(6) 0.51723(9)
N10_2 N 0.3303(9) 0.6932(5) 0.7955(7)
C7_2 C 0.9201(11) 0.7429(6) 0.5625(9)
H6_2 H 0.872381 0.753712 0.503217
C8_2 C 0.9591(14) 0.7946(6) 0.6294(11)
H7_2 H 0.938394 0.840138 0.615318
C16_2 C 0.9122(9) 0.7813(5) 0.2597(7)
Cu2_2 Cu 0.91206(10) 0.50678(6) 0.64688(9)
Cu3_2 Cu 0.91034(11) 0.59823(6) 0.48277(9)
N3_2 N 0.9503(7) 0.6769(4) 0.5816(6)
N7_2 N 0.8303(9) 0.8068(5) 0.2955(7)
Cu9_2 Cu 0.67698(11) 0.82004(7) 0.35576(9)
N9_2 N 0.7339(7) 0.5183(4) 0.6688(6)
S4_2 S 0.9734(2) 0.39563(11) 0.65989(17)
S5_2 S 0.7336(2) 0.54839(12) 0.46248(19)
C11_3 C 0.8340(8) 0.0422(4) 0.9148(8)
C13_3 C 0.9415(11) 0.0204(6) 0.7304(10)
H12_3 H 0.980712 0.011630 0.667829
C14_3 C 0.8200(10) 0.0063(5) 0.7390(9)
H13_3 H 0.683010 0.011488 0.627247
N5_3 N 0.9500(8) 0.0581(5) 0.9100(7)
C2_3 C 0.8017(10) 0.8242(6) 0.0032(8)
H1_3 H 0.851172 0.838314 0.059686
C6_3 C 0.5178(7) 0.8364(4) 0.1686(6)
C7_3 C 0.4201(11) 0.7571(6) 0.0625(9)
H6_3 H 0.372381 0.746288 0.003217
C8_3 C 0.4591(14) 0.7054(6) 0.1294(11)
H7_3 H 0.438394 0.659862 0.115318
C9_3 C 0.5282(11) 0.7215(5) 0.2167(9)
C10_3 C 0.5744(16) 0.6680(6) 0.2948(10)
H8_3 H 0.542086 0.676916 0.363026
H9_3 H 0.550077 0.623027 0.271077
H10_3 H 0.660330 0.670231 0.299765
C17_3 C 0.6247(9) 0.8207(6) 0.4939(7)
Cu1_3 Cu 0.66060(11) 0.95124(6) 0.05096(9)
N3_3 N 0.4503(7) 0.8231(4) 0.0816(6)
N4_3 N 0.5566(7) 0.7871(4) 0.2373(6)
N8_2 N 0.5941(8) 0.8058(6) 0.5781(8)
S2_3 S 0.5608(2) 0.92078(11) 0.19767(17)
Cu8_2 Cu 0.54067(11) 0.77129(7) 0.70962(9)
C1_3 C 0.6474(7) 0.8447(4) 0.8870(6)
C3_3 C 0.8230(10) 0.7614(6) 0.9574(9)
H2_3 H 0.883447 0.732552 0.983565
C4_3 C 0.7506(9) 0.7424(5) 0.8698(7)
C5_3 C 0.7602(10) 0.6753(6) 0.8157(10)
H3_3 H 0.772759 0.682715 0.741769
H4_3 H 0.826535 0.649936 0.846152
H5_3 H 0.687508 0.649667 0.824160
C15_3 C 0.7432(13) 0.9782(7) 0.6472(9)
H14_3 H 0.792972 0.969272 0.588019
H15_3 H 0.705322 0.936255 0.668445
C16_3 C 0.4122(9) 0.7187(5) 0.7597(7)
N1_3 N 0.7133(7) 0.8659(4) 0.9704(6)
N2_3 N 0.6630(6) 0.7853(3) 0.8344(5)
C7_4 C 0.0799(11) 0.2571(6) 0.4375(9)
H6_4 H 0.127619 0.246288 0.496783
C8_4 C 0.0409(14) 0.2054(6) 0.3706(11)
H7_4 H 0.061606 0.159862 0.384682
C16_4 C 0.0878(9) 0.2187(5) 0.7403(7)
N3_4 N 0.0497(7) 0.3231(4) 0.4184(6)
C1_4 C 0.8526(7) 0.3447(4) 0.6130(6)
C2_4 C 0.6983(10) 0.3242(6) 0.4968(8)
H1_4 H 0.648828 0.338314 0.440314
C3_4 C 0.6770(10) 0.2614(6) 0.5426(9)
H2_4 H 0.616553 0.232552 0.516435
C4_4 C 0.7494(9) 0.2424(5) 0.6302(7)
C5_4 C 0.7398(10) 0.1753(6) 0.6843(10)
H3_4 H 0.727241 0.182715 0.758231
H4_4 H 0.673465 0.149936 0.653848
H5_4 H 0.812492 0.149667 0.675840
C6_4 C 0.9822(7) 0.3364(4) 0.3314(6)
C9_4 C 0.9718(11) 0.2215(5) 0.2833(9)
C10_4 C 0.9256(16) 0.1680(6) 0.2052(10)
H8_4 H 0.957914 0.176916 0.136974
H9_4 H 0.949923 0.123027 0.228923
H10_4 H 0.839670 0.170231 0.200235
C11_4 C 0.6660(8) 0.5422(4) 0.5852(8)
C12_2 C 0.4989(11) 0.5473(6) 0.6842(11)
H11_2 H 0.418614 0.558877 0.690838
C13_4 C 0.5585(11) 0.5204(6) 0.7696(10)
H12_4 H 0.519288 0.511630 0.832171
C14_4 C 0.6800(10) 0.5063(5) 0.7610(9)
C15_4 C 0.7568(13) 0.4782(7) 0.8528(9)
H13_4 H 0.816990 0.511488 0.872753
H14_4 H 0.707028 0.469272 0.911981
H15_4 H 0.794678 0.436255 0.831555
C17_4 C 0.8753(9) 0.3207(6) 0.0061(7)
Cu1_4 Cu 0.83940(11) 0.45124(6) 0.44904(9)
Cu4_2 Cu 0.95933(11) 0.27129(7) 0.79038(9)
N1_4 N 0.7867(7) 0.3659(4) 0.5296(6)
N2_4 N 0.8370(6) 0.2853(3) 0.6656(5)
N4_4 N 0.9434(7) 0.2871(4) 0.2627(6)
N5_4 N 0.5500(8) 0.5581(5) 0.5900(7)
S2_4 S 0.9392(2) 0.42078(11) 0.30233(17)
N11_2 N 0.9059(8) 0.3058(6) 0.9219(8)
C12_3 C 0.9989(11) 0.9527(6) 0.1842(11)
H11_3 H 0.918614 0.941123 0.190838
C12_4 C 0.0011(11) 0.0473(6) 0.8158(11)
H11_4 H 0.081386 0.058877 0.809162
loop_
_geom_bond_atom_site_label_1
_geom_bond_atom_site_label_2
_geom_bond_site_symmetry_1
_geom_bond_site_symmetry_2
C1 N1 1_555 1_555
H2 C3 1_555 1_555
C4 C3 1_555 1_555
C5 C4 1_555 1_555
H3 C5 1_555 1_555
H4 C5 1_555 1_555
H5 C5 1_555 1_555
H14 C15 1_555 1_555
H15 C15 1_555 1_555
C16 Cu4 1_555 1_555
Cu4 N2 1_555 1_555
N2 C1 1_555 1_555
N7 C16 1_555 1_555
S1 C1 1_555 1_555
Cu9 N7 1_555 1_555
N11 Cu4 1_555 1_555
S5 Cu3 1_555 1_555
C4 N2 1_555 1_555
Cu3 S1 1_555 1_555
Cu4 S1 1_555 1_555
C2 H1 1_555 1_555
C6 N3 1_555 1_555
C7 H6 1_555 1_555
C8 C7 1_555 1_555
H7 C8 1_555 1_555
C9 C8 1_555 1_555
C10 C9 1_555 1_555
H8 C10 1_555 1_555
H9 C10 1_555 1_555
H10 C10 1_555 1_555
C17 Cu5 1_555 1_555
Cu2 S2 1_555 1_555
Cu5 N4 1_555 1_555
N3 C7 1_555 1_555
N4 C6 1_555 1_555
N11 C17 1_555 1_555
S2 C6 1_555 1_555
N9 Cu2 1_555 1_555
N10 Cu5 1_555 1_555
C9 N4 1_555 1_555
Cu1 S2 1_555 1_555
C11 N5 1_555 1_555
H12 C13 1_555 1_555
C14 C13 1_555 1_555
N6 C11 1_555 1_555
Cu6 N6 1_555 1_555
C14 N6 1_555 1_555
Cu7 S3 1_555 1_555
Cu7 S4 1_555 1_555
Cu8 N8 1_555 1_555
C1_2 N1_2 1_555 1_555
C2_2 H1_2 1_555 1_555
C3_2 C2_2 1_555 1_555
H2_2 C3_2 1_555 1_555
C4_2 C3_2 1_555 1_555
C5_2 C4_2 1_555 1_555
H3_2 C5_2 1_555 1_555
H4_2 C5_2 1_555 1_555
H5_2 C5_2 1_555 1_555
C10_2 C9_2 1_555 1_555
H8_2 C10_2 1_555 1_555
H9_2 C10_2 1_555 1_555
H10_2 C10_2 1_555 1_555
C11_2 N5_2 1_555 1_555
C12 H11 1_555 1_555
C13_2 C12 1_555 1_555
H12_2 C13_2 1_555 1_555
C14_2 C13_2 1_555 1_555
C15_2 C14_2 1_555 1_555
H13_2 C15_2 1_555 1_555
H14_2 C15_2 1_555 1_555
H15_2 C15_2 1_555 1_555
C17_2 Cu5_2 1_555 1_555
Cu1_2 N1_2 1_555 1_555
Cu8 N2_2 1_555 1_555
Cu5_2 N4_2 1_555 1_555
N1_2 C2_2 1_555 1_555
N2_2 C1_2 1_555 1_555
N4_2 C6_2 1_555 1_555
N5_2 C12 1_555 1_555
N6_2 C11_2 1_555 1_555
S1_2 C1_2 1_555 1_555
S2_2 C6_2 1_555 1_555
S3_2 C11_2 1_555 1_555
Cu6_2 N6_2 1_555 1_555
Cu7_2 S3_2 1_555 1_555
N10_2 Cu5_2 1_555 1_555
C4_2 N2_2 1_555 1_555
C9_2 N4_2 1_555 1_555
C14_2 N6_2 1_555 1_555
Cu1_2 S2_2 1_555 1_555
Cu1_2 S3_2 1_555 1_555
Cu8 S1_2 1_555 1_555
S1_2 Cu6_2 1_555 1_555
C7_2 H6_2 1_555 1_555
C8_2 C7_2 1_555 1_555
H7_2 C8_2 1_555 1_555
Cu3_2 N3_2 1_555 1_555
N3_2 C7_2 1_555 1_555
N7_2 C16_2 1_555 1_555
Cu9_2 N7_2 1_555 1_555
N9_2 Cu2_2 1_555 1_555
S4_2 Cu2_2 1_555 1_555
S5_2 Cu3_2 1_555 1_555
C11_3 N5_3 1_555 1_555
H12_3 C13_3 1_555 1_555
C14_3 C13_3 1_555 1_555
N9 C11_3 1_555 1_555
C14_3 N9 1_555 1_555
C2_3 H1_3 1_555 1_555
C6_3 N3_3 1_555 1_555
C7_3 H6_3 1_555 1_555
C8_3 C7_3 1_555 1_555
H7_3 C8_3 1_555 1_555
C9_3 C8_3 1_555 1_555
C10_3 C9_3 1_555 1_555
H8_3 C10_3 1_555 1_555
H9_3 C10_3 1_555 1_555
H10_3 C10_3 1_555 1_555
C17_3 Cu9_2 1_555 1_555
Cu6 S2_3 1_555 1_555
Cu9_2 N4_3 1_555 1_555
N3_3 C7_3 1_555 1_555
N4_3 C6_3 1_555 1_555
N8_2 C17_3 1_555 1_555
S2_3 C6_3 1_555 1_555
Cu8_2 N8_2 1_555 1_555
C9_3 N4_3 1_555 1_555
Cu1_3 S2_3 1_555 1_555
C1_3 N1_3 1_555 1_555
H2_3 C3_3 1_555 1_555
C4_3 C3_3 1_555 1_555
C5_3 C4_3 1_555 1_555
H3_3 C5_3 1_555 1_555
H4_3 C5_3 1_555 1_555
H5_3 C5_3 1_555 1_555
H14_3 C15_3 1_555 1_555
H15_3 C15_3 1_555 1_555
C16_3 Cu8_2 1_555 1_555
Cu8_2 N2_3 1_555 1_555
N2_3 C1_3 1_555 1_555
N10_2 C16_3 1_555 1_555
S4 C1_3 1_555 1_555
C4_3 N2_3 1_555 1_555
Cu8_2 S4 1_555 1_555
C7_4 H6_4 1_555 1_555
C8_4 C7_4 1_555 1_555
H7_4 C8_4 1_555 1_555
Cu7_2 N3_4 1_555 1_555
N3_4 C7_4 1_555 1_555
N10 C16_4 1_555 1_555
C1_4 N1_4 1_555 1_555
C2_4 H1_4 1_555 1_555
C3_4 C2_4 1_555 1_555
H2_4 C3_4 1_555 1_555
C4_4 C3_4 1_555 1_555
C5_4 C4_4 1_555 1_555
H3_4 C5_4 1_555 1_555
H4_4 C5_4 1_555 1_555
H5_4 C5_4 1_555 1_555
C10_4 C9_4 1_555 1_555
H8_4 C10_4 1_555 1_555
H9_4 C10_4 1_555 1_555
H10_4 C10_4 1_555 1_555
C11_4 N5_4 1_555 1_555
C12_2 H11_2 1_555 1_555
C13_4 C12_2 1_555 1_555
H12_4 C13_4 1_555 1_555
C14_4 C13_4 1_555 1_555
C15_4 C14_4 1_555 1_555
H13_4 C15_4 1_555 1_555
H14_4 C15_4 1_555 1_555
H15_4 C15_4 1_555 1_555
C17_4 Cu9 1_555 1_555
Cu1_4 N1_4 1_555 1_555
Cu4_2 N2_4 1_555 1_555
Cu9 N4_4 1_555 1_555
N1_4 C2_4 1_555 1_555
N2_4 C1_4 1_555 1_555
N4_4 C6_4 1_555 1_555
N5_4 C12_2 1_555 1_555
N9_2 C11_4 1_555 1_555
S4_2 C1_4 1_555 1_555
S2_4 C6_4 1_555 1_555
S5_2 C11_4 1_555 1_555
N11_2 Cu4_2 1_555 1_555
C4_4 N2_4 1_555 1_555
C9_4 N4_4 1_555 1_555
C14_4 N9_2 1_555 1_555
Cu1_4 S2_4 1_555 1_555
Cu1_4 S5_2 1_555 1_555
Cu4_2 S4_2 1_555 1_555
C12_3 H11_3 1_555 1_555
C12_4 H11_4 1_555 1_555

#END
