
###############################################################################
#
# This file contains modified crystal structure data generated from the
# MOF subset of the Cambridge Structural Database (CSD) v543 
# hosted by the Cambridge Crystallographic Data Centre (CCDC).
#
# This work is licensed under the Creative Commons
# Attribution-NonCommercial-ShareAlike 4.0 International License.
# To view a copy of this license, visit
# http://creativecommons.org/licenses/by-nc-sa/4.0/
# or send a letter to
# Creative Commons, PO Box 1866, Mountain View, CA 94042, USA.
#
# CIF created using the CSD Python API on 29 September 2022
# The structure has been converted into the P1 space group
# The structure has a 3D framework
# The original CSD entry ONOWEW is in the monoclinic crystal system
# The framework has been calculated to contain at least 10.0% void space
# The void calculation uses a probe of radius 1.32A, grid spacing 0.4
#
###############################################################################

data_ONOWEW
_chemical_formula_moiety         '(C80 H84 Cu20 N30 S12)n'
_symmetry_cell_setting           triclinic
_symmetry_space_group_name_H-M   'P 1'
_symmetry_Int_Tables_number      1
_space_group_name_Hall           'P 1'
loop_
_symmetry_equiv_pos_site_id
_symmetry_equiv_pos_as_xyz
1 x,y,z
_cell_length_a                   12.5044(8)
_cell_length_b                   17.1384(11)
_cell_length_c                   15.2420(10)
_cell_angle_alpha                90
_cell_angle_beta                 99.776(2)
_cell_angle_gamma                90
_cell_volume                     3219.01
loop_
_atom_site_label
_atom_site_type_symbol
_atom_site_fract_x
_atom_site_fract_y
_atom_site_fract_z
H8 H 0.007125 0.962294 0.255726
H13 H 0.004975 0.976688 0.098330
H4 H 0.254139 0.410829 0.030784
H14 H 0.925702 0.045814 0.066559
C13 C 0.6960(3) 0.1732(2) 0.0288(3)
C14 C 0.6663(4) 0.2255(3) 0.1621(3)
C15 C 0.7430(5) 0.2810(3) 0.1541(4)
H15 H 0.762776 0.317178 0.199449
C16 C 0.7907(4) 0.2834(3) 0.0798(4)
C17 C 0.6030(6) 0.2226(4) 0.2377(4)
H16 H 0.528031 0.233574 0.215512
H17 H 0.631231 0.260751 0.281690
H18 H 0.609454 0.171569 0.264061
C18 C 0.8691(5) 0.3466(3) 0.0650(4)
H19 H 0.941962 0.328919 0.085105
H20 H 0.855503 0.392300 0.097832
H21 H 0.859750 0.358862 0.002751
C20 C 0.0723(4) 0.1993(4) 0.0321(4)
Cu1 Cu 0.20283(5) 0.23045(5) 0.10153(4)
Cu4 Cu 0.53357(5) 0.08311(3) 0.10085(4)
N1 N 0.3032(3) 0.2605(2) 0.0052(2)
N5 N 0.6431(3) 0.1700(2) 0.0982(2)
N6 N 0.7675(3) 0.2289(2) 0.0161(2)
S1 S 0.36008(9) 0.11818(6) 0.05638(7)
N9 N 0.2657(4) 0.2598(3) 0.2188(3)
C1 C 0.3633(3) 0.1999(2) 0.9872(3)
C2 C 0.4276(4) 0.2637(3) 0.8735(3)
C3 C 0.3667(5) 0.3274(3) 0.8888(4)
H1 H 0.368129 0.372383 0.854792
C4 C 0.3031(5) 0.3247(3) 0.9548(4)
C5 C 0.2293(6) 0.3898(4) 0.9725(5)
H2 H 0.156864 0.370134 0.969278
H3 H 0.229739 0.430077 0.928789
C6 C 0.4996(5) 0.2620(4) 0.8051(4)
H5 H 0.573539 0.269408 0.833419
H6 H 0.479061 0.303040 0.762690
H7 H 0.492607 0.212572 0.775102
C19 C 0.7994(4) 0.2263(4) 0.7920(3)
Cu2 Cu 0.49444(5) 0.09361(3) 0.90595(4)
Cu5 Cu 0.85384(5) 0.20735(4) 0.91054(4)
N2 N 0.4231(3) 0.1985(2) 0.9226(2)
N7 N 0.7657(4) 0.2402(3) 0.7188(3)
S3 S 0.67609(9) 0.09898(6) 0.94873(7)
Cu6 Cu 0.70283(5) 0.26955(5) 0.60153(4)
Cu8 Cu 0.32847(5) 0.01135(3) 0.97235(4)
N10 N 0.9925(4) 0.1893(4) 0.9840(3)
S5 S 0.42544(10) 0.01158(6) 0.79680(7)
C7 C 0.7166(3) 0.9800(2) 0.2204(3)
C8 C 0.8759(4) 0.9799(3) 0.1614(4)
C9 C 0.9319(5) 0.9664(4) 0.2458(4)
C10 C 0.8755(4) 0.9591(3) 0.3154(3)
C11 C 0.9317(5) 0.9415(5) 0.4086(4)
H9 H 0.885871 0.956674 0.450186
H10 H 0.998706 0.970005 0.420827
H11 H 0.946471 0.886602 0.414241
C12 C 0.9302(5) 0.9918(4) 0.0834(4)
H12 H 0.895005 0.960528 0.034599
Cu3 Cu 0.67153(5) 0.98865(3) 0.02765(4)
N3 N 0.7663(3) 0.9844(2) 0.1483(3)
N4 N 0.7677(3) 0.9684(2) 0.3029(2)
S2 S 0.57456(10) 0.98842(6) 0.20320(7)
Cu7 Cu 0.50556(5) 0.90639(3) 0.09405(4)
S4 S 0.63992(9) 0.88182(6) 0.94362(7)
C1_2 C 0.1367(3) 0.6999(2) 0.5128(3)
C2_2 C 0.0724(4) 0.7637(3) 0.6265(3)
C3_2 C 0.1333(5) 0.8274(3) 0.6112(4)
H1_2 H 0.131871 0.872383 0.645208
C4_2 C 0.1969(5) 0.8247(3) 0.5452(4)
C5_2 C 0.2707(6) 0.8898(4) 0.5275(5)
H2_2 H 0.343136 0.870134 0.530722
H3_2 H 0.270261 0.930077 0.571211
H4_2 H 0.245861 0.910829 0.469216
C6_2 C 0.0004(5) 0.7620(4) 0.6949(4)
H6_2 H 0.020939 0.803040 0.737310
H7_2 H 0.007393 0.712572 0.724898
C20_2 C 0.4277(4) 0.6993(4) 0.4679(4)
Cu1_2 Cu 0.29717(5) 0.73045(5) 0.39847(4)
Cu2_2 Cu 0.00556(5) 0.59361(3) 0.59405(4)
N1_2 N 0.1968(3) 0.7605(2) 0.4948(2)
N2_2 N 0.0769(3) 0.6985(2) 0.5774(2)
N8 N 0.5075(4) 0.6893(4) 0.5160(3)
S1_2 S 0.13992(9) 0.61818(6) 0.44362(7)
Cu8_2 Cu 0.17153(5) 0.51135(3) 0.52765(4)
Cu9 Cu 0.64616(5) 0.70735(4) 0.58946(4)
N9_2 N 0.2343(4) 0.7598(3) 0.2812(3)
S5_2 S 0.07456(10) 0.51158(6) 0.70320(7)
H5_2 H 0.926461 0.769408 0.666581
C7_2 C 0.7834(3) 0.4800(2) 0.2796(3)
C8_2 C 0.6241(4) 0.4799(3) 0.3386(4)
C9_2 C 0.5681(5) 0.4664(4) 0.2542(4)
H8_2 H 0.492875 0.462294 0.244274
C10_2 C 0.6245(4) 0.4591(3) 0.1846(3)
C11_2 C 0.5683(5) 0.4415(5) 0.0914(4)
H9_2 H 0.614129 0.456674 0.049814
H10_2 H 0.501294 0.470005 0.079173
H11_2 H 0.553529 0.386602 0.085759
C12_2 C 0.5698(5) 0.4918(4) 0.4166(4)
H12_2 H 0.604995 0.460528 0.465401
H13_2 H 0.495025 0.476688 0.401670
H14_2 H 0.574298 0.545814 0.433441
C13_2 C 0.8040(3) 0.6732(2) 0.4712(3)
C14_2 C 0.8337(4) 0.7255(3) 0.3379(3)
C15_2 C 0.7570(5) 0.7810(3) 0.3459(4)
H15_2 H 0.737224 0.817178 0.300551
C16_2 C 0.7093(4) 0.7834(3) 0.4202(4)
C17_2 C 0.8970(6) 0.7226(4) 0.2623(4)
H16_2 H 0.971969 0.733574 0.284488
H17_2 H 0.868769 0.760751 0.218310
H18_2 H 0.890546 0.671569 0.235939
C18_2 C 0.6309(5) 0.8466(3) 0.4350(4)
H19_2 H 0.558038 0.828919 0.414895
H20_2 H 0.644497 0.892300 0.402168
H21_2 H 0.640250 0.858862 0.497249
C19_2 C 0.7006(4) 0.7263(4) 0.7080(3)
Cu3_2 Cu 0.82847(5) 0.48865(3) 0.47235(4)
Cu4_2 Cu 0.96643(5) 0.58311(3) 0.39915(4)
N3_2 N 0.7337(3) 0.4844(2) 0.3517(3)
N4_2 N 0.7323(3) 0.4684(2) 0.1971(2)
N5_2 N 0.8569(3) 0.6700(2) 0.4018(2)
N6_2 N 0.7325(3) 0.7289(2) 0.4839(2)
N7_2 N 0.7343(4) 0.7402(3) 0.7812(3)
S2_2 S 0.92544(10) 0.48842(6) 0.29680(7)
S3_2 S 0.82391(9) 0.59898(6) 0.55127(7)
Cu6_2 Cu 0.79717(5) 0.76955(5) 0.89847(4)
Cu7_2 Cu 0.99444(5) 0.40639(3) 0.40595(4)
S4_2 S 0.86008(9) 0.38182(6) 0.55638(7)
N8_2 N 0.0075(4) 0.8107(4) 0.0160(3)
Cu9_2 Cu 0.14616(5) 0.79265(4) 0.08946(4)
C7_3 C 0.2834(3) 0.0200(2) 0.7796(3)
C8_3 C 0.1241(4) 0.0201(3) 0.8386(4)
C9_3 C 0.0681(5) 0.0336(4) 0.7542(4)
C10_3 C 0.1245(4) 0.0409(3) 0.6846(3)
C11_3 C 0.0683(5) 0.0585(5) 0.5914(4)
H9_3 H 0.114129 0.043326 0.549814
H10_3 H 0.001294 0.029995 0.579173
H11_3 H 0.053529 0.113398 0.585759
C12_3 C 0.0698(5) 0.0082(4) 0.9166(4)
H12_3 H 0.104995 0.039472 0.965401
N3_3 N 0.2337(3) 0.0156(2) 0.8517(3)
N4_3 N 0.2323(3) 0.0316(2) 0.6971(2)
C1_3 C 0.6367(3) 0.8001(2) 0.0128(3)
C2_3 C 0.5724(4) 0.7363(3) 0.1265(3)
C3_3 C 0.6333(5) 0.6726(3) 0.1112(4)
H1_3 H 0.631871 0.627617 0.145208
C4_3 C 0.6969(5) 0.6753(3) 0.0452(4)
C5_3 C 0.7707(6) 0.6102(4) 0.0275(5)
H2_3 H 0.843136 0.629866 0.030722
H3_3 H 0.770261 0.569923 0.071211
C6_3 C 0.5004(5) 0.7380(4) 0.1949(4)
H5_3 H 0.426461 0.730592 0.166581
H6_3 H 0.520939 0.696960 0.237310
H7_3 H 0.507393 0.787428 0.224898
C19_3 C 0.2006(4) 0.7737(4) 0.2080(3)
N2_3 N 0.5769(3) 0.8015(2) 0.0774(2)
S3_3 S 0.32391(9) 0.90102(6) 0.05127(7)
H4_3 H 0.745861 0.589171 0.969216
H14_3 H 0.074298 0.954186 0.933441
C13_3 C 0.3040(3) 0.8268(2) 0.9712(3)
C14_3 C 0.3337(4) 0.7745(3) 0.8379(3)
C15_3 C 0.2570(5) 0.7190(3) 0.8459(4)
H15_3 H 0.237224 0.682822 0.800551
C16_3 C 0.2093(4) 0.7166(3) 0.9202(4)
C17_3 C 0.3970(6) 0.7774(4) 0.7623(4)
H16_3 H 0.471969 0.766426 0.784488
H17_3 H 0.368769 0.739249 0.718310
H18_3 H 0.390546 0.828431 0.735939
C18_3 C 0.1309(5) 0.6534(3) 0.9350(4)
H19_3 H 0.058038 0.671081 0.914895
H20_3 H 0.144497 0.607700 0.902168
H21_3 H 0.140250 0.641138 0.997249
C20_3 C 0.9277(4) 0.8007(4) 0.9679(4)
Cu4_3 Cu 0.46643(5) 0.91689(3) 0.89915(4)
N1_3 N 0.6968(3) 0.7395(2) 0.9948(2)
N5_3 N 0.3569(3) 0.8300(2) 0.9018(2)
N6_3 N 0.2325(3) 0.7711(2) 0.9839(2)
H5_4 H 0.073539 0.230592 0.333419
C7_4 C 0.2166(3) 0.5200(2) 0.7204(3)
C8_4 C 0.3759(4) 0.5201(3) 0.6614(4)
C9_4 C 0.4319(5) 0.5336(4) 0.7458(4)
H8_3 H 0.507125 0.537706 0.755726
C10_4 C 0.3755(4) 0.5409(3) 0.8154(3)
C11_4 C 0.4317(5) 0.5585(5) 0.9086(4)
H9_4 H 0.385871 0.543326 0.950186
H10_4 H 0.498706 0.529995 0.920827
H11_4 H 0.446471 0.613398 0.914241
C12_4 C 0.4302(5) 0.5082(4) 0.5834(4)
H12_4 H 0.395005 0.539472 0.534599
H13_3 H 0.504975 0.523312 0.598330
H14_4 H 0.425702 0.454186 0.566559
C13_4 C 0.1960(3) 0.3268(2) 0.5288(3)
C14_4 C 0.1663(4) 0.2745(3) 0.6621(3)
C15_4 C 0.2430(5) 0.2190(3) 0.6541(4)
H15_4 H 0.262776 0.182822 0.699449
C16_4 C 0.2907(4) 0.2166(3) 0.5798(4)
C17_4 C 0.1030(6) 0.2774(4) 0.7377(4)
H16_4 H 0.028031 0.266426 0.715512
H17_4 H 0.131231 0.239249 0.781690
H18_4 H 0.109454 0.328431 0.764061
C18_4 C 0.3691(5) 0.1534(3) 0.5650(4)
H19_4 H 0.441962 0.171081 0.585105
H20_4 H 0.355503 0.107700 0.597832
H21_4 H 0.359750 0.141138 0.502751
C19_4 C 0.2994(4) 0.2737(4) 0.2920(3)
Cu4_4 Cu 0.03357(5) 0.41689(3) 0.60085(4)
Cu5_2 Cu 0.35384(5) 0.29265(4) 0.41054(4)
N3_4 N 0.2663(3) 0.5156(2) 0.6483(3)
N4_4 N 0.2677(3) 0.5316(2) 0.8029(2)
N5_4 N 0.1431(3) 0.3300(2) 0.5982(2)
N6_4 N 0.2675(3) 0.2711(2) 0.5161(2)
S3_4 S 0.17609(9) 0.40102(6) 0.44873(7)
N10_2 N 0.4925(4) 0.3107(4) 0.4840(3)
C1_4 C 0.8633(3) 0.3001(2) 0.4872(3)
C2_4 C 0.9276(4) 0.2363(3) 0.3735(3)
C3_4 C 0.8667(5) 0.1726(3) 0.3888(4)
H1_4 H 0.868129 0.127617 0.354792
C4_4 C 0.8031(5) 0.1753(3) 0.4548(4)
C5_4 C 0.7293(6) 0.1102(4) 0.4725(5)
H2_4 H 0.656864 0.129866 0.469278
H3_4 H 0.729739 0.069923 0.428789
H4_4 H 0.754139 0.089171 0.530784
C6_4 C 0.9996(5) 0.2380(4) 0.3051(4)
H6_4 H 0.979061 0.196960 0.262690
H7_4 H 0.992607 0.287428 0.275102
C20_4 C 0.5723(4) 0.3007(4) 0.5321(4)
N1_4 N 0.8032(3) 0.2395(2) 0.5052(2)
N2_4 N 0.9231(3) 0.3015(2) 0.4226(2)
H8_4 H 0.992875 0.037706 0.744274
H13_4 H 0.995025 0.023312 0.901670
loop_
_geom_bond_atom_site_label_1
_geom_bond_atom_site_label_2
_geom_bond_site_symmetry_1
_geom_bond_site_symmetry_2
C13 N5 1_555 1_555
C14 C15 1_555 1_555
C15 H15 1_555 1_555
C16 C15 1_555 1_555
C17 C14 1_555 1_555
H16 C17 1_555 1_555
H17 C17 1_555 1_555
H18 C17 1_555 1_555
C18 C16 1_555 1_555
H19 C18 1_555 1_555
H20 C18 1_555 1_555
H21 C18 1_555 1_555
C20 Cu1 1_555 1_555
Cu1 N1 1_555 1_555
Cu4 N5 1_555 1_555
N5 C14 1_555 1_555
N6 C13 1_555 1_555
N9 Cu1 1_555 1_555
C16 N6 1_555 1_555
Cu1 S1 1_555 1_555
Cu4 S1 1_555 1_555
C2 C3 1_555 1_555
C3 H1 1_555 1_555
C4 C3 1_555 1_555
C5 C4 1_555 1_555
H2 C5 1_555 1_555
H3 C5 1_555 1_555
C6 C2 1_555 1_555
H5 C6 1_555 1_555
H6 C6 1_555 1_555
H7 C6 1_555 1_555
C19 Cu5 1_555 1_555
Cu2 N2 1_555 1_555
N2 C1 1_555 1_555
N7 C19 1_555 1_555
Cu6 N7 1_555 1_555
N10 Cu5 1_555 1_555
S5 Cu2 1_555 1_555
C2 N2 1_555 1_555
Cu2 S3 1_555 1_555
C7 N3 1_555 1_555
C8 C9 1_555 1_555
C10 C9 1_555 1_555
C11 C10 1_555 1_555
H9 C11 1_555 1_555
H10 C11 1_555 1_555
H11 C11 1_555 1_555
C12 C8 1_555 1_555
H12 C12 1_555 1_555
Cu3 N3 1_555 1_555
N3 C8 1_555 1_555
N4 C7 1_555 1_555
S2 C7 1_555 1_555
Cu7 S2 1_555 1_555
C10 N4 1_555 1_555
C1_2 N1_2 1_555 1_555
C2_2 C3_2 1_555 1_555
C3_2 H1_2 1_555 1_555
C4_2 C3_2 1_555 1_555
C5_2 C4_2 1_555 1_555
H2_2 C5_2 1_555 1_555
H3_2 C5_2 1_555 1_555
H4_2 C5_2 1_555 1_555
C6_2 C2_2 1_555 1_555
H6_2 C6_2 1_555 1_555
H7_2 C6_2 1_555 1_555
C20_2 Cu1_2 1_555 1_555
Cu1_2 N1_2 1_555 1_555
Cu2_2 N2_2 1_555 1_555
N1_2 C4_2 1_555 1_555
N2_2 C1_2 1_555 1_555
N8 C20_2 1_555 1_555
S1_2 C1_2 1_555 1_555
Cu8_2 S1_2 1_555 1_555
Cu9 N8 1_555 1_555
N9_2 Cu1_2 1_555 1_555
S5_2 Cu2_2 1_555 1_555
C2_2 N2_2 1_555 1_555
Cu1_2 S1_2 1_555 1_555
C7_2 N3_2 1_555 1_555
C8_2 C9_2 1_555 1_555
C9_2 H8_2 1_555 1_555
C10_2 C9_2 1_555 1_555
C11_2 C10_2 1_555 1_555
H9_2 C11_2 1_555 1_555
H10_2 C11_2 1_555 1_555
H11_2 C11_2 1_555 1_555
C12_2 C8_2 1_555 1_555
H12_2 C12_2 1_555 1_555
H13_2 C12_2 1_555 1_555
H14_2 C12_2 1_555 1_555
C13_2 N5_2 1_555 1_555
C14_2 C15_2 1_555 1_555
C15_2 H15_2 1_555 1_555
C16_2 C15_2 1_555 1_555
C17_2 C14_2 1_555 1_555
H16_2 C17_2 1_555 1_555
H17_2 C17_2 1_555 1_555
H18_2 C17_2 1_555 1_555
C18_2 C16_2 1_555 1_555
H19_2 C18_2 1_555 1_555
H20_2 C18_2 1_555 1_555
H21_2 C18_2 1_555 1_555
C19_2 Cu9 1_555 1_555
Cu3_2 N3_2 1_555 1_555
Cu4_2 N5_2 1_555 1_555
Cu9 N6_2 1_555 1_555
N3_2 C8_2 1_555 1_555
N4_2 C7_2 1_555 1_555
N5_2 C14_2 1_555 1_555
N6_2 C13_2 1_555 1_555
N7_2 C19_2 1_555 1_555
S2_2 C7_2 1_555 1_555
S3_2 C13_2 1_555 1_555
Cu6_2 N7_2 1_555 1_555
Cu7_2 S2_2 1_555 1_555
S4_2 Cu3_2 1_555 1_555
C10_2 N4_2 1_555 1_555
C16_2 N6_2 1_555 1_555
Cu3_2 S3_2 1_555 1_555
Cu4_2 S2_2 1_555 1_555
Cu9_2 N8_2 1_555 1_555
C7_3 N3_3 1_555 1_555
C8_3 C9_3 1_555 1_555
C10_3 C9_3 1_555 1_555
C11_3 C10_3 1_555 1_555
H9_3 C11_3 1_555 1_555
H10_3 C11_3 1_555 1_555
H11_3 C11_3 1_555 1_555
C12_3 C8_3 1_555 1_555
H12_3 C12_3 1_555 1_555
Cu8 N3_3 1_555 1_555
N3_3 C8_3 1_555 1_555
N4_3 C7_3 1_555 1_555
S5 C7_3 1_555 1_555
C10_3 N4_3 1_555 1_555
C2_3 C3_3 1_555 1_555
C3_3 H1_3 1_555 1_555
C4_3 C3_3 1_555 1_555
C5_3 C4_3 1_555 1_555
H2_3 C5_3 1_555 1_555
H3_3 C5_3 1_555 1_555
C6_3 C2_3 1_555 1_555
H5_3 C6_3 1_555 1_555
H6_3 C6_3 1_555 1_555
H7_3 C6_3 1_555 1_555
C19_3 Cu9_2 1_555 1_555
Cu7 N2_3 1_555 1_555
N2_3 C1_3 1_555 1_555
N9_2 C19_3 1_555 1_555
C2_3 N2_3 1_555 1_555
Cu7 S3_3 1_555 1_555
C13_3 N5_3 1_555 1_555
C14_3 C15_3 1_555 1_555
C15_3 H15_3 1_555 1_555
C16_3 C15_3 1_555 1_555
C17_3 C14_3 1_555 1_555
H16_3 C17_3 1_555 1_555
H17_3 C17_3 1_555 1_555
H18_3 C17_3 1_555 1_555
C18_3 C16_3 1_555 1_555
H19_3 C18_3 1_555 1_555
H20_3 C18_3 1_555 1_555
H21_3 C18_3 1_555 1_555
C20_3 Cu6_2 1_555 1_555
Cu6_2 N1_3 1_555 1_555
Cu4_3 N5_3 1_555 1_555
N5_3 C14_3 1_555 1_555
N6_3 C13_3 1_555 1_555
C16_3 N6_3 1_555 1_555
Cu6_2 S4 1_555 1_555
Cu4_3 S4 1_555 1_555
C7_4 N3_4 1_555 1_555
C8_4 C9_4 1_555 1_555
C9_4 H8_3 1_555 1_555
C10_4 C9_4 1_555 1_555
C11_4 C10_4 1_555 1_555
H9_4 C11_4 1_555 1_555
H10_4 C11_4 1_555 1_555
H11_4 C11_4 1_555 1_555
C12_4 C8_4 1_555 1_555
H12_4 C12_4 1_555 1_555
H13_3 C12_4 1_555 1_555
H14_4 C12_4 1_555 1_555
C13_4 N5_4 1_555 1_555
C14_4 C15_4 1_555 1_555
C15_4 H15_4 1_555 1_555
C16_4 C15_4 1_555 1_555
C17_4 C14_4 1_555 1_555
H16_4 C17_4 1_555 1_555
H17_4 C17_4 1_555 1_555
H18_4 C17_4 1_555 1_555
C18_4 C16_4 1_555 1_555
H19_4 C18_4 1_555 1_555
H20_4 C18_4 1_555 1_555
H21_4 C18_4 1_555 1_555
C19_4 Cu5_2 1_555 1_555
Cu8_2 N3_4 1_555 1_555
Cu4_4 N5_4 1_555 1_555
Cu5_2 N6_4 1_555 1_555
N3_4 C8_4 1_555 1_555
N4_4 C7_4 1_555 1_555
N5_4 C14_4 1_555 1_555
N6_4 C13_4 1_555 1_555
N9 C19_4 1_555 1_555
S5_2 C7_4 1_555 1_555
S3_4 C13_4 1_555 1_555
N10_2 Cu5_2 1_555 1_555
C10_4 N4_4 1_555 1_555
C16_4 N6_4 1_555 1_555
Cu8_2 S3_4 1_555 1_555
Cu4_4 S5_2 1_555 1_555
C1_4 N1_4 1_555 1_555
C2_4 C3_4 1_555 1_555
C3_4 H1_4 1_555 1_555
C4_4 C3_4 1_555 1_555
C5_4 C4_4 1_555 1_555
H2_4 C5_4 1_555 1_555
H3_4 C5_4 1_555 1_555
H4_4 C5_4 1_555 1_555
C6_4 C2_4 1_555 1_555
H6_4 C6_4 1_555 1_555
H7_4 C6_4 1_555 1_555
C20_4 Cu6 1_555 1_555
Cu6 N1_4 1_555 1_555
Cu7_2 N2_4 1_555 1_555
N1_4 C4_4 1_555 1_555
N2_4 C1_4 1_555 1_555
N10_2 C20_4 1_555 1_555
S4_2 C1_4 1_555 1_555
C2_4 N2_4 1_555 1_555
Cu6 S4_2 1_555 1_555

#END
