
###############################################################################
#
# This file contains modified crystal structure data generated from the
# MOF subset of the Cambridge Structural Database (CSD) v543 
# hosted by the Cambridge Crystallographic Data Centre (CCDC).
#
# This work is licensed under the Creative Commons
# Attribution-NonCommercial-ShareAlike 4.0 International License.
# To view a copy of this license, visit
# http://creativecommons.org/licenses/by-nc-sa/4.0/
# or send a letter to
# Creative Commons, PO Box 1866, Mountain View, CA 94042, USA.
#
# CIF created using the CSD Python API on 29 September 2022
# The structure has been converted into the P1 space group
# The structure has a 3D framework
# The original CSD entry ONUJOZ is in the orthorhombic crystal system
# The framework has been calculated to contain at least 10.0% void space
# The void calculation uses a probe of radius 1.32A, grid spacing 0.4
# H atom positions have been added when not included in the experimental data
#
###############################################################################

data_ONUJOZ
_chemical_formula_moiety         '(C64 H32 Ca16 O80)n'
_symmetry_cell_setting           triclinic
_symmetry_space_group_name_H-M   'P 1'
_symmetry_Int_Tables_number      1
_space_group_name_Hall           'P 1'
loop_
_symmetry_equiv_pos_site_id
_symmetry_equiv_pos_as_xyz
1 x,y,z
_cell_length_a                   20.222(3)
_cell_length_b                   18.433(3)
_cell_length_c                   7.6641(16)
_cell_angle_alpha                90
_cell_angle_beta                 90
_cell_angle_gamma                90
_cell_volume                     2856.81
loop_
_atom_site_label
_atom_site_type_symbol
_atom_site_fract_x
_atom_site_fract_y
_atom_site_fract_z
O1 O 0.5576(3) 0.2846(3) 0.1537(7)
O3 O 0.6838(3) 0.3975(4) 0.1629(7)
C1 C 0.5895(5) 0.3236(5) 0.0482(11)
C4 C 0.6441(5) 0.3743(5) 0.0480(11)
Ca4 Ca 0.52573(7) 0.27930(8) 0.4535(2)
Ca5 Ca 0.77573(7) 0.47070(8) 0.2035(2)
O9 O 0.7092(3) 0.5557(4) 0.0089(7)
Ca1 Ca 0.72427(7) 0.52930(8) 0.7035(2)
O2 O 0.6600(4) 0.4266(3) 0.7478(8)
O4 O 0.5408(3) 0.3057(4) 0.7589(7)
O5 O 0.6439(4) 0.6219(4) 0.7000(11)
C2 C 0.5813(5) 0.3338(5) 0.8637(12)
C3 C 0.6352(5) 0.3863(5) 0.8621(11)
Ca2 Ca 0.47427(7) 0.22070(8) 0.9535(2)
O6 O 0.6924(3) 0.5346(3) 0.4037(7)
O7 O 0.8076(3) 0.4654(3) 0.9037(7)
O8 O 0.8162(3) 0.6025(4) 0.6629(7)
O10 O 0.7908(3) 0.4443(4) 0.5089(7)
H1 H 0.619965 0.622433 0.813124
H2 H 0.665831 0.669485 0.681542
O1_2 O 0.4424(3) 0.7154(3) 0.1537(7)
O3_2 O 0.3162(3) 0.6025(4) 0.1629(7)
C1_2 C 0.4105(5) 0.6764(5) 0.0482(11)
C4_2 C 0.3559(5) 0.6257(5) 0.0480(11)
Ca4_2 Ca 0.47427(7) 0.72070(8) 0.4535(2)
Ca5_2 Ca 0.22427(7) 0.52930(8) 0.2035(2)
O9_2 O 0.2908(3) 0.4443(4) 0.0089(7)
Ca1_2 Ca 0.27573(7) 0.47070(8) 0.7035(2)
O2_2 O 0.3400(4) 0.5734(3) 0.7478(8)
O4_2 O 0.4592(3) 0.6943(4) 0.7589(7)
O5_2 O 0.3561(4) 0.3781(4) 0.7000(11)
C2_2 C 0.4187(5) 0.6662(5) 0.8637(12)
C3_2 C 0.3648(5) 0.6137(5) 0.8621(11)
Ca2_2 Ca 0.52573(7) 0.77930(8) 0.9535(2)
O6_2 O 0.3076(3) 0.4654(3) 0.4037(7)
O7_2 O 0.1924(3) 0.5346(3) 0.9037(7)
O8_2 O 0.1838(3) 0.3975(4) 0.6629(7)
O10_2 O 0.2092(3) 0.5557(4) 0.5089(7)
H1_2 H 0.380035 0.377567 0.813124
H2_2 H 0.334169 0.330515 0.681542
O3_3 O 0.5662(3) 0.6475(4) 0.4129(7)
C1_3 C 0.6605(5) 0.5736(5) 0.2982(11)
C2_3 C 0.6687(5) 0.5838(5) 0.1137(12)
C3_3 C 0.6148(5) 0.6363(5) 0.1121(11)
C4_3 C 0.6059(5) 0.6243(5) 0.2980(11)
O9_3 O 0.5408(3) 0.8057(4) 0.2589(7)
H1_3 H 0.630035 0.872433 0.0631239
O2_3 O 0.5900(4) 0.6766(3) 0.9978(8)
O5_3 O 0.6061(4) 0.8719(4) 0.9500(11)
O6_3 O 0.5576(3) 0.7846(3) 0.6537(7)
O8_3 O 0.4338(3) 0.8525(4) 0.9129(7)
H2_3 H 0.584169 0.919485 0.931542
O3_4 O 0.4338(3) 0.3525(4) 0.4129(7)
C1_4 C 0.3395(5) 0.4264(5) 0.2982(11)
C2_4 C 0.3313(5) 0.4162(5) 0.1137(12)
C3_4 C 0.3852(5) 0.3637(5) 0.1121(11)
C4_4 C 0.3941(5) 0.3757(5) 0.2980(11)
O9_4 O 0.4592(3) 0.1943(4) 0.2589(7)
H1_4 H 0.369965 0.127567 0.0631239
O2_4 O 0.4100(4) 0.3234(3) 0.9978(8)
O5_4 O 0.3939(4) 0.1281(4) 0.9500(11)
O6_4 O 0.4424(3) 0.2154(3) 0.6537(7)
O8_4 O 0.5662(3) 0.1475(4) 0.9129(7)
H2_4 H 0.415831 0.0805154 0.931542
Ca1_3 Ca 0.72427(7) 0.02930(8) 0.2035(2)
O5_5 O 0.6439(4) 0.1219(4) 0.2000(11)
O8_5 O 0.8162(3) 0.1025(4) 0.1629(7)
O9_5 O 0.7092(3) 0.0557(4) 0.5089(7)
H1_5 H 0.619965 0.122433 0.313124
H2_5 H 0.665831 0.169485 0.181542
O6_5 O 0.6924(3) 0.0346(3) 0.9037(7)
O2_5 O 0.6600(4) 0.9266(3) 0.2478(8)
O3_5 O 0.6838(3) 0.8975(4) 0.6629(7)
C1_5 C 0.5895(5) 0.8236(5) 0.5482(11)
C2_5 C 0.5813(5) 0.8338(5) 0.3637(12)
C3_5 C 0.6352(5) 0.8863(5) 0.3621(11)
C4_5 C 0.6441(5) 0.8743(5) 0.5480(11)
Ca5_3 Ca 0.77573(7) 0.97070(8) 0.7035(2)
O7_3 O 0.8076(3) 0.9654(3) 0.4037(7)
O10_3 O 0.7908(3) 0.9443(4) 0.0089(7)
O2_6 O 0.3400(4) 0.0734(3) 0.2478(8)
O3_6 O 0.3162(3) 0.1025(4) 0.6629(7)
C1_6 C 0.4105(5) 0.1764(5) 0.5482(11)
C2_6 C 0.4187(5) 0.1662(5) 0.3637(12)
C3_6 C 0.3648(5) 0.1137(5) 0.3621(11)
C4_6 C 0.3559(5) 0.1257(5) 0.5480(11)
Ca5_4 Ca 0.22427(7) 0.02930(8) 0.7035(2)
O7_4 O 0.1924(3) 0.0346(3) 0.4037(7)
O10_4 O 0.2092(3) 0.0557(4) 0.0089(7)
Ca1_4 Ca 0.27573(7) 0.97070(8) 0.2035(2)
O5_6 O 0.3561(4) 0.8781(4) 0.2000(11)
O8_6 O 0.1838(3) 0.8975(4) 0.1629(7)
O9_6 O 0.2908(3) 0.9443(4) 0.5089(7)
H1_6 H 0.380035 0.877567 0.313124
H2_6 H 0.334169 0.830515 0.181542
O6_6 O 0.3076(3) 0.9654(3) 0.9037(7)
O2_7 O 0.5900(4) 0.1766(3) 0.4978(8)
O5_7 O 0.6061(4) 0.3719(4) 0.4500(11)
C1_7 C 0.6605(5) 0.0736(5) 0.7982(11)
C2_7 C 0.6687(5) 0.0838(5) 0.6137(12)
C3_7 C 0.6148(5) 0.1363(5) 0.6121(11)
C4_7 C 0.6059(5) 0.1243(5) 0.7980(11)
H1_7 H 0.630035 0.372433 0.563124
H2_7 H 0.584169 0.419485 0.431542
O2_8 O 0.4100(4) 0.8234(3) 0.4978(8)
O5_8 O 0.3939(4) 0.6281(4) 0.4500(11)
C1_8 C 0.3395(5) 0.9264(5) 0.7982(11)
C2_8 C 0.3313(5) 0.9162(5) 0.6137(12)
C3_8 C 0.3852(5) 0.8637(5) 0.6121(11)
C4_8 C 0.3941(5) 0.8757(5) 0.7980(11)
H1_8 H 0.369965 0.627567 0.563124
H2_8 H 0.415831 0.580515 0.431542
O1_3 O 0.0576(3) 0.2846(3) 0.6537(7)
O2_9 O 0.1600(4) 0.4266(3) 0.2478(8)
O4_3 O 0.0408(3) 0.3057(4) 0.2589(7)
O5_9 O 0.1439(4) 0.6219(4) 0.2000(11)
C1_9 C 0.0895(5) 0.3236(5) 0.5482(11)
C2_9 C 0.0813(5) 0.3338(5) 0.3637(12)
C3_9 C 0.1352(5) 0.3863(5) 0.3621(11)
C4_9 C 0.1441(5) 0.3743(5) 0.5480(11)
Ca4_3 Ca 0.02573(7) 0.27930(8) 0.9535(2)
H1_9 H 0.119965 0.622433 0.313124
H2_9 H 0.165831 0.669485 0.181542
Ca2_3 Ca 0.97427(7) 0.22070(8) 0.4535(2)
Ca2_4 Ca 0.02573(7) 0.77930(8) 0.4535(2)
O1_4 O 0.9424(3) 0.7154(3) 0.6537(7)
O2_10 O 0.8400(4) 0.5734(3) 0.2478(8)
O4_4 O 0.9592(3) 0.6943(4) 0.2589(7)
O5_10 O 0.8561(4) 0.3781(4) 0.2000(11)
C1_10 C 0.9105(5) 0.6764(5) 0.5482(11)
C2_10 C 0.9187(5) 0.6662(5) 0.3637(12)
C3_10 C 0.8648(5) 0.6137(5) 0.3621(11)
C4_10 C 0.8559(5) 0.6257(5) 0.5480(11)
Ca4_4 Ca 0.97427(7) 0.72070(8) 0.9535(2)
H1_10 H 0.880035 0.377567 0.313124
H2_10 H 0.834169 0.330515 0.181542
O2_11 O 0.0900(4) 0.6766(3) 0.4978(8)
O3_7 O 0.0662(3) 0.6475(4) 0.9129(7)
O5_11 O 0.1061(4) 0.8719(4) 0.4500(11)
C1_11 C 0.1605(5) 0.5736(5) 0.7982(11)
C2_11 C 0.1687(5) 0.5838(5) 0.6137(12)
C3_11 C 0.1148(5) 0.6363(5) 0.6121(11)
C4_11 C 0.1059(5) 0.6243(5) 0.7980(11)
O6_7 O 0.0576(3) 0.7846(3) 0.1537(7)
O9_7 O 0.0408(3) 0.8057(4) 0.7589(7)
H1_11 H 0.130035 0.872433 0.563124
H2_11 H 0.0841689 0.919485 0.431542
O8_7 O 0.9338(3) 0.8525(4) 0.4129(7)
O8_8 O 0.0662(3) 0.1475(4) 0.4129(7)
O2_12 O 0.9100(4) 0.3234(3) 0.4978(8)
O3_8 O 0.9338(3) 0.3525(4) 0.9129(7)
O5_12 O 0.8939(4) 0.1281(4) 0.4500(11)
C1_12 C 0.8395(5) 0.4264(5) 0.7982(11)
C2_12 C 0.8313(5) 0.4162(5) 0.6137(12)
C3_12 C 0.8852(5) 0.3637(5) 0.6121(11)
C4_12 C 0.8941(5) 0.3757(5) 0.7980(11)
O6_8 O 0.9424(3) 0.2154(3) 0.1537(7)
O9_8 O 0.9592(3) 0.1943(4) 0.7589(7)
H1_12 H 0.869965 0.127567 0.563124
H2_12 H 0.915831 0.0805154 0.431542
O5_13 O 0.1439(4) 0.1219(4) 0.7000(11)
H1_13 H 0.119965 0.122433 0.813124
H2_13 H 0.165831 0.169485 0.681542
C1_13 C 0.0895(5) 0.8236(5) 0.0482(11)
C4_13 C 0.1441(5) 0.8743(5) 0.0480(11)
O2_13 O 0.1600(4) 0.9266(3) 0.7478(8)
C2_13 C 0.0813(5) 0.8338(5) 0.8637(12)
C3_13 C 0.1352(5) 0.8863(5) 0.8621(11)
C1_14 C 0.9105(5) 0.1764(5) 0.0482(11)
C4_14 C 0.8559(5) 0.1257(5) 0.0480(11)
O2_14 O 0.8400(4) 0.0734(3) 0.7478(8)
C2_14 C 0.9187(5) 0.1662(5) 0.8637(12)
C3_14 C 0.8648(5) 0.1137(5) 0.8621(11)
O5_14 O 0.8561(4) 0.8781(4) 0.7000(11)
H1_14 H 0.880035 0.877567 0.813124
H2_14 H 0.834169 0.830515 0.681542
C1_15 C 0.1605(5) 0.0736(5) 0.2982(11)
C2_15 C 0.1687(5) 0.0838(5) 0.1137(12)
C3_15 C 0.1148(5) 0.1363(5) 0.1121(11)
C4_15 C 0.1059(5) 0.1243(5) 0.2980(11)
H1_15 H 0.130035 0.372433 0.0631239
O2_15 O 0.0900(4) 0.1766(3) 0.9978(8)
O5_15 O 0.1061(4) 0.3719(4) 0.9500(11)
H2_15 H 0.0841689 0.419485 0.931542
C1_16 C 0.8395(5) 0.9264(5) 0.2982(11)
C2_16 C 0.8313(5) 0.9162(5) 0.1137(12)
C3_16 C 0.8852(5) 0.8637(5) 0.1121(11)
C4_16 C 0.8941(5) 0.8757(5) 0.2980(11)
H1_16 H 0.869965 0.627567 0.0631239
O2_16 O 0.9100(4) 0.8234(3) 0.9978(8)
O5_16 O 0.8939(4) 0.6281(4) 0.9500(11)
H2_16 H 0.915831 0.580515 0.931542
loop_
_geom_bond_atom_site_label_1
_geom_bond_atom_site_label_2
_geom_bond_site_symmetry_1
_geom_bond_site_symmetry_2
O1 C1 1_555 1_555
O3 C4 1_555 1_555
C4 C1 1_555 1_555
Ca4 O1 1_555 1_555
Ca5 O3 1_555 1_555
Ca5 O9 1_555 1_555
Ca1 O2 1_555 1_555
O2 C3 1_555 1_555
O4 C2 1_555 1_555
O5 Ca1 1_555 1_555
C2 C3 1_555 1_555
Ca4 O4 1_555 1_555
O6 Ca1 1_555 1_555
O7 Ca1 1_555 1_555
O8 Ca1 1_555 1_555
O10 Ca1 1_555 1_555
O4 Ca2 1_555 1_555
O5 H1 1_555 1_555
O5 H2 1_555 1_555
O1_2 C1_2 1_555 1_555
O3_2 C4_2 1_555 1_555
C4_2 C1_2 1_555 1_555
Ca4_2 O1_2 1_555 1_555
Ca5_2 O3_2 1_555 1_555
Ca5_2 O9_2 1_555 1_555
Ca1_2 O2_2 1_555 1_555
O2_2 C3_2 1_555 1_555
O4_2 C2_2 1_555 1_555
O5_2 Ca1_2 1_555 1_555
C2_2 C3_2 1_555 1_555
Ca4_2 O4_2 1_555 1_555
O6_2 Ca1_2 1_555 1_555
O7_2 Ca1_2 1_555 1_555
O8_2 Ca1_2 1_555 1_555
O10_2 Ca1_2 1_555 1_555
O4_2 Ca2_2 1_555 1_555
O5_2 H1_2 1_555 1_555
O5_2 H2_2 1_555 1_555
O6 C1_3 1_555 1_555
O3_3 C4_3 1_555 1_555
O9 C2_3 1_555 1_555
C1_3 C2_3 1_555 1_555
C2_3 C3_3 1_555 1_555
C3_3 C4_3 1_555 1_555
C4_3 C1_3 1_555 1_555
Ca5 O6 1_555 1_555
Ca4_2 O3_3 1_555 1_555
Ca4_2 O9_3 1_555 1_555
Ca2_2 O2_3 1_555 1_555
O5_3 Ca2_2 1_555 1_555
O6_3 Ca2_2 1_555 1_555
O8_3 Ca2_2 1_555 1_555
O5_3 H2_3 1_555 1_555
O6_2 C1_4 1_555 1_555
O3_4 C4_4 1_555 1_555
O9_2 C2_4 1_555 1_555
C1_4 C2_4 1_555 1_555
C2_4 C3_4 1_555 1_555
C3_4 C4_4 1_555 1_555
C4_4 C1_4 1_555 1_555
Ca5_2 O6_2 1_555 1_555
Ca4 O3_4 1_555 1_555
Ca4 O9_4 1_555 1_555
Ca2 O2_4 1_555 1_555
O5_4 Ca2 1_555 1_555
O6_4 Ca2 1_555 1_555
O8_4 Ca2 1_555 1_555
O5_4 H2_4 1_555 1_555
O5_5 Ca1_3 1_555 1_555
O8_5 Ca1_3 1_555 1_555
O9_5 Ca1_3 1_555 1_555
O5_5 H1_5 1_555 1_555
O5_5 H2_5 1_555 1_555
O6_3 C1_5 1_555 1_555
O2_5 C3_5 1_555 1_555
O3_5 C4_5 1_555 1_555
O9_3 C2_5 1_555 1_555
C1_5 C2_5 1_555 1_555
C2_5 C3_5 1_555 1_555
C3_5 C4_5 1_555 1_555
C4_5 C1_5 1_555 1_555
Ca4_2 O6_3 1_555 1_555
Ca5_3 O3_5 1_555 1_555
Ca5_3 O7_3 1_555 1_555
O6_4 C1_6 1_555 1_555
O2_6 C3_6 1_555 1_555
O3_6 C4_6 1_555 1_555
O9_4 C2_6 1_555 1_555
C1_6 C2_6 1_555 1_555
C2_6 C3_6 1_555 1_555
C3_6 C4_6 1_555 1_555
C4_6 C1_6 1_555 1_555
Ca4 O6_4 1_555 1_555
Ca5_4 O3_6 1_555 1_555
Ca5_4 O7_4 1_555 1_555
O5_6 Ca1_4 1_555 1_555
O8_6 Ca1_4 1_555 1_555
O9_6 Ca1_4 1_555 1_555
O5_6 H1_6 1_555 1_555
O5_6 H2_6 1_555 1_555
Ca4 O2_7 1_555 1_555
O6_5 C1_7 1_555 1_555
O2_7 C3_7 1_555 1_555
O8_4 C4_7 1_555 1_555
O9_5 C2_7 1_555 1_555
O5_7 Ca4 1_555 1_555
C1_7 C2_7 1_555 1_555
C2_7 C3_7 1_555 1_555
C3_7 C4_7 1_555 1_555
C4_7 C1_7 1_555 1_555
O5_7 H1_7 1_555 1_555
O5_7 H2_7 1_555 1_555
Ca4_2 O2_8 1_555 1_555
O6_6 C1_8 1_555 1_555
O2_8 C3_8 1_555 1_555
O8_3 C4_8 1_555 1_555
O9_6 C2_8 1_555 1_555
O5_8 Ca4_2 1_555 1_555
C1_8 C2_8 1_555 1_555
C2_8 C3_8 1_555 1_555
C3_8 C4_8 1_555 1_555
C4_8 C1_8 1_555 1_555
O5_8 H1_8 1_555 1_555
O5_8 H2_8 1_555 1_555
Ca5_2 O2_9 1_555 1_555
O1_3 C1_9 1_555 1_555
O2_9 C3_9 1_555 1_555
O8_2 C4_9 1_555 1_555
O4_3 C2_9 1_555 1_555
O5_9 Ca5_2 1_555 1_555
C1_9 C2_9 1_555 1_555
C2_9 C3_9 1_555 1_555
C3_9 C4_9 1_555 1_555
C4_9 C1_9 1_555 1_555
Ca4_3 O1_3 1_555 1_555
O10_2 Ca5_2 1_555 1_555
O5_9 H1_9 1_555 1_555
O5_9 H2_9 1_555 1_555
Ca5 O2_10 1_555 1_555
O1_4 C1_10 1_555 1_555
O2_10 C3_10 1_555 1_555
O8 C4_10 1_555 1_555
O4_4 C2_10 1_555 1_555
O5_10 Ca5 1_555 1_555
C1_10 C2_10 1_555 1_555
C2_10 C3_10 1_555 1_555
C3_10 C4_10 1_555 1_555
C4_10 C1_10 1_555 1_555
Ca4_4 O1_4 1_555 1_555
O10 Ca5 1_555 1_555
O5_10 H1_10 1_555 1_555
O5_10 H2_10 1_555 1_555
Ca2_4 O2_11 1_555 1_555
O7_2 C1_11 1_555 1_555
O2_11 C3_11 1_555 1_555
O3_7 C4_11 1_555 1_555
O10_2 C2_11 1_555 1_555
O5_11 Ca2_4 1_555 1_555
C1_11 C2_11 1_555 1_555
C2_11 C3_11 1_555 1_555
C3_11 C4_11 1_555 1_555
C4_11 C1_11 1_555 1_555
O6_7 Ca2_4 1_555 1_555
O9_7 Ca2_4 1_555 1_555
O5_11 H1_11 1_555 1_555
O5_11 H2_11 1_555 1_555
Ca2_3 O2_12 1_555 1_555
O7 C1_12 1_555 1_555
O2_12 C3_12 1_555 1_555
O3_8 C4_12 1_555 1_555
O10 C2_12 1_555 1_555
O5_12 Ca2_3 1_555 1_555
C1_12 C2_12 1_555 1_555
C2_12 C3_12 1_555 1_555
C3_12 C4_12 1_555 1_555
C4_12 C1_12 1_555 1_555
O6_8 Ca2_3 1_555 1_555
O9_8 Ca2_3 1_555 1_555
O5_12 H1_12 1_555 1_555
O5_12 H2_12 1_555 1_555
O5_13 Ca5_4 1_555 1_555
O5_13 H1_13 1_555 1_555
O5_13 H2_13 1_555 1_555
O6_7 C1_13 1_555 1_555
O8_6 C4_13 1_555 1_555
C4_13 C1_13 1_555 1_555
O2_13 C3_13 1_555 1_555
O9_7 C2_13 1_555 1_555
C2_13 C3_13 1_555 1_555
O6_8 C1_14 1_555 1_555
O8_5 C4_14 1_555 1_555
C4_14 C1_14 1_555 1_555
O2_14 C3_14 1_555 1_555
O9_8 C2_14 1_555 1_555
C2_14 C3_14 1_555 1_555
O5_14 Ca5_3 1_555 1_555
O5_14 H1_14 1_555 1_555
O5_14 H2_14 1_555 1_555
O7_4 C1_15 1_555 1_555
O8_8 C4_15 1_555 1_555
O10_4 C2_15 1_555 1_555
C1_15 C2_15 1_555 1_555
C2_15 C3_15 1_555 1_555
C3_15 C4_15 1_555 1_555
C4_15 C1_15 1_555 1_555
Ca4_3 O2_15 1_555 1_555
O5_15 Ca4_3 1_555 1_555
O5_15 H2_15 1_555 1_555
O7_3 C1_16 1_555 1_555
O8_7 C4_16 1_555 1_555
O10_3 C2_16 1_555 1_555
C1_16 C2_16 1_555 1_555
C2_16 C3_16 1_555 1_555
C3_16 C4_16 1_555 1_555
C4_16 C1_16 1_555 1_555
Ca4_4 O2_16 1_555 1_555
O5_16 Ca4_4 1_555 1_555
O5_16 H2_16 1_555 1_555

#END
