
###############################################################################
#
# This file contains modified crystal structure data generated from the
# MOF subset of the Cambridge Structural Database (CSD) v543 
# hosted by the Cambridge Crystallographic Data Centre (CCDC).
#
# This work is licensed under the Creative Commons
# Attribution-NonCommercial-ShareAlike 4.0 International License.
# To view a copy of this license, visit
# http://creativecommons.org/licenses/by-nc-sa/4.0/
# or send a letter to
# Creative Commons, PO Box 1866, Mountain View, CA 94042, USA.
#
# CIF created using the CSD Python API on 29 September 2022
# The structure has been converted into the P1 space group
# The structure has a 3D framework
# The original CSD entry ONUJUF is in the orthorhombic crystal system
# The framework has been calculated to contain at least 10.0% void space
# The void calculation uses a probe of radius 1.32A, grid spacing 0.4
#
###############################################################################

data_ONUJUF
_chemical_formula_moiety         '(C64 H32 Ca16 O80)n'
_symmetry_cell_setting           triclinic
_symmetry_space_group_name_H-M   'P 1'
_symmetry_Int_Tables_number      1
_space_group_name_Hall           'P 1'
loop_
_symmetry_equiv_pos_site_id
_symmetry_equiv_pos_as_xyz
1 x,y,z
_cell_length_a                   19.916(4)
_cell_length_b                   18.697(4)
_cell_length_c                   7.6700(16)
_cell_angle_alpha                90
_cell_angle_beta                 90
_cell_angle_gamma                90
_cell_volume                     2856.07
loop_
_atom_site_label
_atom_site_type_symbol
_atom_site_fract_x
_atom_site_fract_y
_atom_site_fract_z
O1 O 0.0683(3) 0.3482(3) 0.0818(6)
O2 O 0.1942(3) 0.4633(3) 0.0918(6)
O3 O 0.2113(3) 0.4430(3) 0.4860(6)
O4 O 0.0919(3) 0.3211(3) 0.4967(6)
C1 C 0.1079(4) 0.3719(4) 0.1958(9)
C2 C 0.1180(4) 0.3610(4) 0.3835(9)
C3 C 0.1716(4) 0.4141(4) 0.3818(10)
C4 C 0.1629(4) 0.4241(4) 0.1970(9)
Ca2 Ca 0.27612(6) 0.52902(6) 0.2898(2)
Ca3 Ca 0.02612(6) 0.22098(6) 0.5398(2)
Ca5 Ca 0.22388(6) 0.47098(6) 0.7898(2)
O9 O 0.0387(3) 0.1930(3) 0.2360(6)
O7 O 0.0558(3) 0.2133(3) 0.8418(6)
Ca1 Ca 0.97388(6) 0.27902(6) 0.0398(2)
O5 O 0.8930(3) 0.3695(4) 0.0431(10)
O6 O 0.9442(3) 0.2867(3) 0.3418(6)
H1 H 0.908336 0.406848 0.993274
H2 H 0.858046 0.355528 0.993044
O8 O 0.9613(3) 0.3070(3) 0.7360(6)
O10 O 0.9081(3) 0.1789(3) 0.9967(6)
Ca1_2 Ca 0.02612(6) 0.72098(6) 0.0398(2)
O5_2 O 0.1070(3) 0.6305(4) 0.0431(10)
O6_2 O 0.0558(3) 0.7133(3) 0.3418(6)
H1_2 H 0.091664 0.593152 0.993274
H2_2 H 0.141954 0.644472 0.993044
O8_2 O 0.0387(3) 0.6930(3) 0.7360(6)
O10_2 O 0.0919(3) 0.8211(3) 0.9967(6)
O1_2 O 0.9317(3) 0.6518(3) 0.0818(6)
O2_2 O 0.8058(3) 0.5367(3) 0.0918(6)
O3_2 O 0.7887(3) 0.5570(3) 0.4860(6)
O4_2 O 0.9081(3) 0.6789(3) 0.4967(6)
C1_2 C 0.8921(4) 0.6281(4) 0.1958(9)
C2_2 C 0.8820(4) 0.6390(4) 0.3835(9)
C3_2 C 0.8284(4) 0.5859(4) 0.3818(10)
C4_2 C 0.8371(4) 0.5759(4) 0.1970(9)
Ca2_2 Ca 0.72388(6) 0.47098(6) 0.2898(2)
Ca3_2 Ca 0.97388(6) 0.77902(6) 0.5398(2)
Ca5_2 Ca 0.77612(6) 0.52902(6) 0.7898(2)
O9_2 O 0.9613(3) 0.8070(3) 0.2360(6)
O7_2 O 0.9442(3) 0.7867(3) 0.8418(6)
O1_3 O 0.1817(3) 0.5982(3) 0.3318(6)
O4_3 O 0.1581(3) 0.5711(3) 0.7467(6)
O5_3 O 0.3570(3) 0.6195(4) 0.2931(10)
H1_3 H 0.341664 0.656848 0.243274
H2_3 H 0.391954 0.605528 0.243044
C1_3 C 0.1421(4) 0.6219(4) 0.4458(9)
C2_3 C 0.1320(4) 0.6110(4) 0.6335(9)
C3_3 C 0.0784(4) 0.6641(4) 0.6318(10)
C4_3 C 0.0871(4) 0.6741(4) 0.4470(9)
O6_3 O 0.3058(3) 0.5367(3) 0.5918(6)
O10_3 O 0.3419(3) 0.4289(3) 0.2467(6)
O8_3 O 0.2887(3) 0.5570(3) 0.9860(6)
O1_4 O 0.8183(3) 0.4018(3) 0.3318(6)
O4_4 O 0.8419(3) 0.4289(3) 0.7467(6)
O5_4 O 0.6430(3) 0.3805(4) 0.2931(10)
H1_4 H 0.658336 0.343152 0.243274
H2_4 H 0.608046 0.394472 0.243044
C1_4 C 0.8579(4) 0.3781(4) 0.4458(9)
C2_4 C 0.8680(4) 0.3890(4) 0.6335(9)
C3_4 C 0.9216(4) 0.3359(4) 0.6318(10)
C4_4 C 0.9129(4) 0.3259(4) 0.4470(9)
O6_4 O 0.6942(3) 0.4633(3) 0.5918(6)
O10_4 O 0.6581(3) 0.5711(3) 0.2467(6)
O8_4 O 0.7113(3) 0.4430(3) 0.9860(6)
Ca2_3 Ca 0.27612(6) 0.02902(6) 0.7898(2)
Ca5_3 Ca 0.22388(6) 0.97098(6) 0.2898(2)
O1_5 O 0.0683(3) 0.8482(3) 0.5818(6)
O2_3 O 0.1942(3) 0.9633(3) 0.5918(6)
O3_3 O 0.2113(3) 0.9430(3) 0.9860(6)
C1_5 C 0.1079(4) 0.8719(4) 0.6958(9)
C2_5 C 0.1180(4) 0.8610(4) 0.8835(9)
C3_5 C 0.1716(4) 0.9141(4) 0.8818(10)
C4_5 C 0.1629(4) 0.9241(4) 0.6970(9)
O5_5 O 0.8930(3) 0.8695(4) 0.5431(10)
H1_5 H 0.908336 0.906848 0.493274
H2_5 H 0.858046 0.855528 0.493044
O5_6 O 0.1070(3) 0.1305(4) 0.5431(10)
H1_6 H 0.091664 0.093152 0.493274
H2_6 H 0.141954 0.144472 0.493044
Ca5_4 Ca 0.77612(6) 0.02902(6) 0.2898(2)
O1_6 O 0.9317(3) 0.1518(3) 0.5818(6)
O2_4 O 0.8058(3) 0.0367(3) 0.5918(6)
O3_4 O 0.7887(3) 0.0570(3) 0.9860(6)
C1_6 C 0.8921(4) 0.1281(4) 0.6958(9)
C2_6 C 0.8820(4) 0.1390(4) 0.8835(9)
C3_6 C 0.8284(4) 0.0859(4) 0.8818(10)
C4_6 C 0.8371(4) 0.0759(4) 0.6970(9)
Ca2_4 Ca 0.72388(6) 0.97098(6) 0.7898(2)
O4_5 O 0.1581(3) 0.0711(3) 0.2467(6)
C2_7 C 0.1320(4) 0.1110(4) 0.1335(9)
C3_7 C 0.0784(4) 0.1641(4) 0.1318(10)
O6_5 O 0.3058(3) 0.0367(3) 0.0918(6)
O1_7 O 0.1817(3) 0.0982(3) 0.8318(6)
O5_7 O 0.3570(3) 0.1195(4) 0.7931(10)
H1_7 H 0.341664 0.156848 0.743274
H2_7 H 0.391954 0.105528 0.743044
C1_7 C 0.1421(4) 0.1219(4) 0.9458(9)
C4_7 C 0.0871(4) 0.1741(4) 0.9470(9)
O8_5 O 0.2887(3) 0.0570(3) 0.4860(6)
O10_5 O 0.3419(3) 0.9289(3) 0.7467(6)
O10_6 O 0.6581(3) 0.0711(3) 0.7467(6)
O4_6 O 0.8419(3) 0.9289(3) 0.2467(6)
C2_8 C 0.8680(4) 0.8890(4) 0.1335(9)
C3_8 C 0.9216(4) 0.8359(4) 0.1318(10)
O6_6 O 0.6942(3) 0.9633(3) 0.0918(6)
O1_8 O 0.8183(3) 0.9018(3) 0.8318(6)
O5_8 O 0.6430(3) 0.8805(4) 0.7931(10)
H1_8 H 0.658336 0.843152 0.743274
H2_8 H 0.608046 0.894472 0.743044
C1_8 C 0.8579(4) 0.8781(4) 0.9458(9)
C4_8 C 0.9129(4) 0.8259(4) 0.9470(9)
O8_6 O 0.7113(3) 0.9430(3) 0.4860(6)
Ca3_3 Ca 0.52612(6) 0.22098(6) 0.0398(2)
Ca1_3 Ca 0.47388(6) 0.27902(6) 0.5398(2)
O1_9 O 0.5683(3) 0.3482(3) 0.5818(6)
O4_7 O 0.5919(3) 0.3211(3) 0.9967(6)
O5_9 O 0.3930(3) 0.3695(4) 0.5431(10)
H1_9 H 0.408336 0.406848 0.493274
H2_9 H 0.358046 0.355528 0.493044
C1_9 C 0.6079(4) 0.3719(4) 0.6958(9)
C2_9 C 0.6180(4) 0.3610(4) 0.8835(9)
C3_9 C 0.6716(4) 0.4141(4) 0.8818(10)
C4_9 C 0.6629(4) 0.4241(4) 0.6970(9)
O6_7 O 0.4442(3) 0.2867(3) 0.8418(6)
O7_3 O 0.5558(3) 0.2133(3) 0.3418(6)
O8_7 O 0.4613(3) 0.3070(3) 0.2360(6)
O9_3 O 0.5387(3) 0.1930(3) 0.7360(6)
O10_7 O 0.4081(3) 0.1789(3) 0.4967(6)
Ca3_4 Ca 0.47388(6) 0.77902(6) 0.0398(2)
Ca1_4 Ca 0.52612(6) 0.72098(6) 0.5398(2)
O1_10 O 0.4317(3) 0.6518(3) 0.5818(6)
O4_8 O 0.4081(3) 0.6789(3) 0.9967(6)
O5_10 O 0.6070(3) 0.6305(4) 0.5431(10)
H1_10 H 0.591664 0.593152 0.493274
H2_10 H 0.641954 0.644472 0.493044
C1_10 C 0.3921(4) 0.6281(4) 0.6958(9)
C2_10 C 0.3820(4) 0.6390(4) 0.8835(9)
C3_10 C 0.3284(4) 0.5859(4) 0.8818(10)
C4_10 C 0.3371(4) 0.5759(4) 0.6970(9)
O6_8 O 0.5558(3) 0.7133(3) 0.8418(6)
O7_4 O 0.4442(3) 0.7867(3) 0.3418(6)
O8_8 O 0.5387(3) 0.6930(3) 0.2360(6)
O9_4 O 0.4613(3) 0.8070(3) 0.7360(6)
O10_8 O 0.5919(3) 0.8211(3) 0.4967(6)
C2_11 C 0.6320(4) 0.6110(4) 0.1335(9)
C3_11 C 0.5784(4) 0.6641(4) 0.1318(10)
O1_11 O 0.6817(3) 0.5982(3) 0.8318(6)
O5_11 O 0.8570(3) 0.6195(4) 0.7931(10)
H1_11 H 0.841664 0.656848 0.743274
H2_11 H 0.891954 0.605528 0.743044
C1_11 C 0.6421(4) 0.6219(4) 0.9458(9)
C4_11 C 0.5871(4) 0.6741(4) 0.9470(9)
C2_12 C 0.3680(4) 0.3890(4) 0.1335(9)
C3_12 C 0.4216(4) 0.3359(4) 0.1318(10)
O1_12 O 0.3183(3) 0.4018(3) 0.8318(6)
O5_12 O 0.1430(3) 0.3805(4) 0.7931(10)
H1_12 H 0.158336 0.343152 0.743274
H2_12 H 0.108046 0.394472 0.743044
C1_12 C 0.3579(4) 0.3781(4) 0.9458(9)
C4_12 C 0.4129(4) 0.3259(4) 0.9470(9)
O1_13 O 0.5683(3) 0.8482(3) 0.0818(6)
O5_13 O 0.3930(3) 0.8695(4) 0.0431(10)
C1_13 C 0.6079(4) 0.8719(4) 0.1958(9)
C2_13 C 0.6180(4) 0.8610(4) 0.3835(9)
C3_13 C 0.6716(4) 0.9141(4) 0.3818(10)
C4_13 C 0.6629(4) 0.9241(4) 0.1970(9)
H1_13 H 0.408336 0.906848 0.993274
H2_13 H 0.358046 0.855528 0.993044
O1_14 O 0.4317(3) 0.1518(3) 0.0818(6)
O5_14 O 0.6070(3) 0.1305(4) 0.0431(10)
C1_14 C 0.3921(4) 0.1281(4) 0.1958(9)
C2_14 C 0.3820(4) 0.1390(4) 0.3835(9)
C3_14 C 0.3284(4) 0.0859(4) 0.3818(10)
C4_14 C 0.3371(4) 0.0759(4) 0.1970(9)
H1_14 H 0.591664 0.093152 0.993274
H2_14 H 0.641954 0.144472 0.993044
O1_15 O 0.6817(3) 0.0982(3) 0.3318(6)
O5_15 O 0.8570(3) 0.1195(4) 0.2931(10)
H1_15 H 0.841664 0.156848 0.243274
H2_15 H 0.891954 0.105528 0.243044
C1_15 C 0.6421(4) 0.1219(4) 0.4458(9)
C2_15 C 0.6320(4) 0.1110(4) 0.6335(9)
C3_15 C 0.5784(4) 0.1641(4) 0.6318(10)
C4_15 C 0.5871(4) 0.1741(4) 0.4470(9)
O1_16 O 0.3183(3) 0.9018(3) 0.3318(6)
O5_16 O 0.1430(3) 0.8805(4) 0.2931(10)
H1_16 H 0.158336 0.843152 0.243274
H2_16 H 0.108046 0.894472 0.243044
C1_16 C 0.3579(4) 0.8781(4) 0.4458(9)
C2_16 C 0.3680(4) 0.8890(4) 0.6335(9)
C3_16 C 0.4216(4) 0.8359(4) 0.6318(10)
C4_16 C 0.4129(4) 0.8259(4) 0.4470(9)
loop_
_geom_bond_atom_site_label_1
_geom_bond_atom_site_label_2
_geom_bond_site_symmetry_1
_geom_bond_site_symmetry_2
O1 C1 1_555 1_555
O2 C4 1_555 1_555
O3 C3 1_555 1_555
O4 C2 1_555 1_555
C1 C2 1_555 1_555
C2 C3 1_555 1_555
C3 C4 1_555 1_555
C4 C1 1_555 1_555
Ca2 O2 1_555 1_555
Ca3 O4 1_555 1_555
Ca5 O3 1_555 1_555
O3 Ca2 1_555 1_555
Ca3 O9 1_555 1_555
O5 Ca1 1_555 1_555
O6 Ca1 1_555 1_555
O5_2 Ca1_2 1_555 1_555
O6_2 Ca1_2 1_555 1_555
O1_2 C1_2 1_555 1_555
O2_2 C4_2 1_555 1_555
O3_2 C3_2 1_555 1_555
O4_2 C2_2 1_555 1_555
C1_2 C2_2 1_555 1_555
C2_2 C3_2 1_555 1_555
C3_2 C4_2 1_555 1_555
C4_2 C1_2 1_555 1_555
Ca2_2 O2_2 1_555 1_555
Ca3_2 O4_2 1_555 1_555
Ca5_2 O3_2 1_555 1_555
O3_2 Ca2_2 1_555 1_555
Ca3_2 O9_2 1_555 1_555
Ca2 O1_3 1_555 1_555
O1_3 C1_3 1_555 1_555
O6_2 C4_3 1_555 1_555
O8_2 C3_3 1_555 1_555
O4_3 C2_3 1_555 1_555
O5_3 Ca2 1_555 1_555
H1_3 O5_3 1_555 1_555
H2_3 O5_3 1_555 1_555
C1_3 C2_3 1_555 1_555
C2_3 C3_3 1_555 1_555
C3_3 C4_3 1_555 1_555
C4_3 C1_3 1_555 1_555
Ca5 O4_3 1_555 1_555
O6_3 Ca2 1_555 1_555
O10_3 Ca2 1_555 1_555
Ca5 O6_3 1_555 1_555
Ca2_2 O1_4 1_555 1_555
O1_4 C1_4 1_555 1_555
O6 C4_4 1_555 1_555
O8 C3_4 1_555 1_555
O4_4 C2_4 1_555 1_555
O5_4 Ca2_2 1_555 1_555
H1_4 O5_4 1_555 1_555
H2_4 O5_4 1_555 1_555
C1_4 C2_4 1_555 1_555
C2_4 C3_4 1_555 1_555
C3_4 C4_4 1_555 1_555
C4_4 C1_4 1_555 1_555
Ca5_2 O4_4 1_555 1_555
O6_4 Ca2_2 1_555 1_555
O10_4 Ca2_2 1_555 1_555
Ca5_2 O6_4 1_555 1_555
O1_5 C1_5 1_555 1_555
O2_3 C4_5 1_555 1_555
O3_3 C3_5 1_555 1_555
O10_2 C2_5 1_555 1_555
C1_5 C2_5 1_555 1_555
C2_5 C3_5 1_555 1_555
C3_5 C4_5 1_555 1_555
C4_5 C1_5 1_555 1_555
Ca5_3 O2_3 1_555 1_555
O5_5 Ca3_2 1_555 1_555
H1_5 O5_5 1_555 1_555
H2_5 O5_5 1_555 1_555
O7_2 Ca3_2 1_555 1_555
O5_6 Ca3 1_555 1_555
H1_6 O5_6 1_555 1_555
H2_6 O5_6 1_555 1_555
O7 Ca3 1_555 1_555
O1_6 C1_6 1_555 1_555
O2_4 C4_6 1_555 1_555
O3_4 C3_6 1_555 1_555
O10 C2_6 1_555 1_555
C1_6 C2_6 1_555 1_555
C2_6 C3_6 1_555 1_555
C3_6 C4_6 1_555 1_555
C4_6 C1_6 1_555 1_555
Ca5_4 O2_4 1_555 1_555
O9 C3_7 1_555 1_555
O4_5 C2_7 1_555 1_555
C2_7 C3_7 1_555 1_555
Ca2_3 O1_7 1_555 1_555
O1_7 C1_7 1_555 1_555
O7 C4_7 1_555 1_555
O5_7 Ca2_3 1_555 1_555
H1_7 O5_7 1_555 1_555
H2_7 O5_7 1_555 1_555
C4_7 C1_7 1_555 1_555
O8_5 Ca2_3 1_555 1_555
O9_2 C3_8 1_555 1_555
O4_6 C2_8 1_555 1_555
C2_8 C3_8 1_555 1_555
Ca2_4 O1_8 1_555 1_555
O1_8 C1_8 1_555 1_555
O7_2 C4_8 1_555 1_555
O5_8 Ca2_4 1_555 1_555
H1_8 O5_8 1_555 1_555
H2_8 O5_8 1_555 1_555
C4_8 C1_8 1_555 1_555
O8_6 Ca2_4 1_555 1_555
Ca1_3 O1_9 1_555 1_555
O1_9 C1_9 1_555 1_555
O6_4 C4_9 1_555 1_555
O8_4 C3_9 1_555 1_555
O4_7 C2_9 1_555 1_555
O5_9 Ca1_3 1_555 1_555
H1_9 O5_9 1_555 1_555
H2_9 O5_9 1_555 1_555
C1_9 C2_9 1_555 1_555
C2_9 C3_9 1_555 1_555
C3_9 C4_9 1_555 1_555
C4_9 C1_9 1_555 1_555
O6_7 Ca1_3 1_555 1_555
O7_3 Ca1_3 1_555 1_555
O8_7 Ca1_3 1_555 1_555
O9_3 Ca1_3 1_555 1_555
O10_7 Ca1_3 1_555 1_555
O8_4 Ca5_2 1_555 1_555
Ca1_4 O1_10 1_555 1_555
O1_10 C1_10 1_555 1_555
O6_3 C4_10 1_555 1_555
O8_3 C3_10 1_555 1_555
O4_8 C2_10 1_555 1_555
O5_10 Ca1_4 1_555 1_555
H1_10 O5_10 1_555 1_555
H2_10 O5_10 1_555 1_555
C1_10 C2_10 1_555 1_555
C2_10 C3_10 1_555 1_555
C3_10 C4_10 1_555 1_555
C4_10 C1_10 1_555 1_555
O6_8 Ca1_4 1_555 1_555
O7_4 Ca1_4 1_555 1_555
O8_8 Ca1_4 1_555 1_555
O9_4 Ca1_4 1_555 1_555
O10_8 Ca1_4 1_555 1_555
O8_3 Ca5 1_555 1_555
O8_8 C3_11 1_555 1_555
O10_4 C2_11 1_555 1_555
C2_11 C3_11 1_555 1_555
O8_8 Ca3_4 1_555 1_555
Ca5_2 O1_11 1_555 1_555
O1_11 C1_11 1_555 1_555
O6_8 C4_11 1_555 1_555
O5_11 Ca5_2 1_555 1_555
H1_11 O5_11 1_555 1_555
H2_11 O5_11 1_555 1_555
C4_11 C1_11 1_555 1_555
O8_7 C3_12 1_555 1_555
O10_3 C2_12 1_555 1_555
C2_12 C3_12 1_555 1_555
O8_7 Ca3_3 1_555 1_555
Ca5 O1_12 1_555 1_555
O1_12 C1_12 1_555 1_555
O6_7 C4_12 1_555 1_555
O5_12 Ca5 1_555 1_555
H1_12 O5_12 1_555 1_555
H2_12 O5_12 1_555 1_555
C4_12 C1_12 1_555 1_555
Ca3_4 O1_13 1_555 1_555
O1_13 C1_13 1_555 1_555
O6_6 C4_13 1_555 1_555
O8_6 C3_13 1_555 1_555
O10_8 C2_13 1_555 1_555
O5_13 Ca3_4 1_555 1_555
C1_13 C2_13 1_555 1_555
C2_13 C3_13 1_555 1_555
C3_13 C4_13 1_555 1_555
C4_13 C1_13 1_555 1_555
O7_4 Ca3_4 1_555 1_555
Ca3_3 O1_14 1_555 1_555
O1_14 C1_14 1_555 1_555
O6_5 C4_14 1_555 1_555
O8_5 C3_14 1_555 1_555
O10_7 C2_14 1_555 1_555
O5_14 Ca3_3 1_555 1_555
C1_14 C2_14 1_555 1_555
C2_14 C3_14 1_555 1_555
C3_14 C4_14 1_555 1_555
C4_14 C1_14 1_555 1_555
O7_3 Ca3_3 1_555 1_555
Ca5_4 O1_15 1_555 1_555
O1_15 C1_15 1_555 1_555
O7_3 C4_15 1_555 1_555
O9_3 C3_15 1_555 1_555
O10_6 C2_15 1_555 1_555
O5_15 Ca5_4 1_555 1_555
H1_15 O5_15 1_555 1_555
H2_15 O5_15 1_555 1_555
C1_15 C2_15 1_555 1_555
C2_15 C3_15 1_555 1_555
C3_15 C4_15 1_555 1_555
C4_15 C1_15 1_555 1_555
Ca5_3 O1_16 1_555 1_555
O1_16 C1_16 1_555 1_555
O7_4 C4_16 1_555 1_555
O9_4 C3_16 1_555 1_555
O10_5 C2_16 1_555 1_555
O5_16 Ca5_3 1_555 1_555
H1_16 O5_16 1_555 1_555
H2_16 O5_16 1_555 1_555
C1_16 C2_16 1_555 1_555
C2_16 C3_16 1_555 1_555
C3_16 C4_16 1_555 1_555
C4_16 C1_16 1_555 1_555

#END
