
###############################################################################
#
# This file contains modified crystal structure data generated from the
# MOF subset of the Cambridge Structural Database (CSD) v543 
# hosted by the Cambridge Crystallographic Data Centre (CCDC).
#
# This work is licensed under the Creative Commons
# Attribution-NonCommercial-ShareAlike 4.0 International License.
# To view a copy of this license, visit
# http://creativecommons.org/licenses/by-nc-sa/4.0/
# or send a letter to
# Creative Commons, PO Box 1866, Mountain View, CA 94042, USA.
#
# CIF created using the CSD Python API on 29 September 2022
# The structure has been converted into the P1 space group
# The structure has a 3D framework
# The original CSD entry ONUNAP is in the monoclinic crystal system
# The framework has been calculated to contain at least 10.0% void space
# The void calculation uses a probe of radius 1.32A, grid spacing 0.4
#
###############################################################################

data_ONUNAP
_chemical_formula_moiety         '(C20 H20 Cr6 Mo12 N6 O60 Zn4)n'
_symmetry_cell_setting           triclinic
_symmetry_space_group_name_H-M   'P 1'
_symmetry_Int_Tables_number      1
_space_group_name_Hall           'P 1'
loop_
_symmetry_equiv_pos_site_id
_symmetry_equiv_pos_as_xyz
1 x,y,z
_cell_length_a                   10.6722(6)
_cell_length_b                   20.4675(11)
_cell_length_c                   11.8026(6)
_cell_angle_alpha                90
_cell_angle_beta                 106.8060(10)
_cell_angle_gamma                90
_cell_volume                     2467.97
loop_
_atom_site_label
_atom_site_type_symbol
_atom_site_fract_x
_atom_site_fract_y
_atom_site_fract_z
Cr1 Cr 0.500000 0.000000 -0.000000
Mo5 Mo 0.40604(4) 0.14506(2) 0.07637(3)
Mo6 Mo 0.34099(4) 0.01018(2) 0.20523(3)
O19 O 0.4010(4) 0.04612(17) 0.3397(3)
O20 O 0.4477(3) 0.18354(16) 0.2111(3)
O22 O 0.2786(3) 0.08372(15) 0.1015(3)
O27 O 0.5663(3) 0.16280(14) 0.0365(3)
O28 O 0.5131(3) 0.04964(14) 0.1464(2)
Zn4 Zn 0.34692(5) 0.25690(3) 0.31772(4)
O1 O 0.8078(3) 0.01995(19) 0.7975(4)
Cr1_2 Cr 0.500000 -0.000000 1.000000
Mo4 Mo 0.57646(4) 0.13712(2) 0.88350(3)
O17 O 0.9534(3) 0.17439(17) 0.7737(3)
H6 H 0.996390 0.192588 0.730565
H7 H 0.981530 0.146353 0.831313
O18 O 0.4753(3) 0.19206(16) 0.7946(3)
O21 O 0.2983(3) 0.19558(16) 0.9824(3)
O23 O 0.7323(3) 0.16348(16) 0.8964(3)
O24 O 0.4097(3) 0.07900(13) 0.9213(2)
O25 O 0.5540(3) 0.07069(15) 0.7572(3)
O26 O 0.6552(3) 0.04019(14) 0.9680(2)
O29 O 0.5475(4) 0.36396(19) 0.7705(3)
O30 O 0.7368(3) 0.31323(16) 0.8480(3)
Zn2 Zn 0.84692(5) 0.24310(3) 0.81772(4)
C6 C 0.5739(5) 0.1940(2) 0.4834(4)
H8 H 0.562600 0.163291 0.423133
C7 C 0.6817(5) 0.1892(2) 0.5817(4)
H9 H 0.742482 0.155937 0.586859
C8 C 0.5005(4) 0.2828(2) 0.5628(4)
H10 H 0.438199 0.315241 0.558419
C9 C 0.6064(4) 0.2783(2) 0.6615(4)
C10 C 0.6305(4) 0.3232(2) 0.7669(4)
N3 N 0.4861(3) 0.24104(19) 0.4727(3)
N4 N 0.6985(3) 0.23261(16) 0.6695(3)
O31 O 0.9477(3) 0.31646(16) 0.7111(3)
N5 N 0.9861(3) 0.25896(19) 0.9727(3)
Mo1 Mo 0.42354(4) 0.86288(2) 0.11650(3)
O2 O 0.0466(3) 0.82561(17) 0.2263(3)
H1 H 0.003610 0.807412 0.269435
H2 H 0.018470 0.853647 0.168687
O3 O 0.5247(3) 0.80794(16) 0.2054(3)
O6 O 0.7017(3) 0.80442(16) 0.0176(3)
O8 O 0.2677(3) 0.83652(16) 0.1036(3)
O9 O 0.5903(3) 0.92100(13) 0.0787(2)
O10 O 0.4460(3) 0.92931(15) 0.2428(3)
O11 O 0.3448(3) 0.95981(14) 0.0320(2)
O14 O 0.4525(4) 0.63604(19) 0.2295(3)
O15 O 0.2632(3) 0.68677(16) 0.1520(3)
Zn1 Zn 0.15308(5) 0.75690(3) 0.18228(4)
C1 C 0.4261(5) 0.8060(2) 0.5166(4)
H3 H 0.437400 0.836709 0.576867
C2 C 0.3183(5) 0.8108(2) 0.4183(4)
H4 H 0.257518 0.844063 0.413141
C3 C 0.4995(4) 0.7172(2) 0.4372(4)
H5 H 0.561801 0.684759 0.441581
C4 C 0.3936(4) 0.7217(2) 0.3385(4)
C5 C 0.3695(4) 0.6768(2) 0.2331(4)
N1 N 0.5139(3) 0.75896(19) 0.5273(3)
N2 N 0.3015(3) 0.76739(16) 0.3305(3)
Cr1_3 Cr 0.500000 1.000000 -0.000000
O16 O 0.1922(3) 0.98005(19) 0.2025(4)
O32 O 0.0523(3) 0.68354(16) 0.2889(3)
Zn6 Zn 0.65308(5) 0.74310(3) 0.68228(4)
N6 N 0.0139(3) 0.74104(19) 0.0273(3)
Mo2 Mo 0.59396(4) 0.85494(2) 0.92363(3)
Mo3 Mo 0.65901(4) 0.98982(2) 0.79477(3)
O4 O 0.5990(4) 0.95388(17) 0.6603(3)
O5 O 0.5523(3) 0.81646(16) 0.7889(3)
O7 O 0.7214(3) 0.91628(15) 0.8985(3)
O12 O 0.4337(3) 0.83720(14) 0.9635(3)
O13 O 0.4869(3) 0.95036(14) 0.8536(2)
Cr1_4 Cr 0.500000 1.000000 1.000000
Mo1_2 Mo 0.07646(4) 0.36288(2) 0.38350(3)
O2_2 O 0.4534(3) 0.32561(17) 0.2737(3)
H1_2 H 0.496390 0.307412 0.230565
H2_2 H 0.481530 0.353647 0.331313
O8_2 O 0.2323(3) 0.33652(16) 0.3964(3)
O10_2 O 0.0540(3) 0.42931(15) 0.2572(3)
O11_2 O 0.1552(3) 0.45981(14) 0.4680(2)
O12_2 O 0.0663(3) 0.33720(14) 0.5365(3)
O13_2 O 0.0131(3) 0.45036(14) 0.6464(2)
O14_2 O 0.0475(4) 0.13604(19) 0.2705(3)
O15_2 O 0.2368(3) 0.18677(16) 0.3480(3)
C2_2 C 0.1817(5) 0.3108(2) 0.0817(4)
H4_2 H 0.242482 0.344063 0.086859
C3_2 C 0.0005(4) 0.2172(2) 0.0628(4)
C4_2 C 0.1064(4) 0.2217(2) 0.1615(4)
C5_2 C 0.1305(4) 0.1768(2) 0.2669(4)
N2_2 N 0.1985(3) 0.26739(16) 0.1695(3)
Cr1_5 Cr -0.000000 0.500000 0.500000
Mo5_2 Mo 0.09396(4) 0.64506(2) 0.42363(3)
Mo6_2 Mo 0.15901(4) 0.51018(2) 0.29477(3)
O16_2 O 0.3078(3) 0.48005(19) 0.2975(4)
O18_2 O 0.0247(3) 0.69206(16) 0.7054(3)
O19_2 O 0.0990(4) 0.54612(17) 0.1603(3)
O21_2 O 0.2017(3) 0.69558(16) 0.5176(3)
O22_2 O 0.2214(3) 0.58372(15) 0.3985(3)
O24_2 O 0.0903(3) 0.57900(13) 0.5787(2)
H10_2 H 0.061801 0.815241 0.941581
Mo2_2 Mo 0.90604(4) 0.35494(2) 0.57637(3)
Mo3_2 Mo 0.84099(4) 0.48982(2) 0.70523(3)
O1_2 O 0.6922(3) 0.51995(19) 0.7025(4)
O3_2 O 0.9753(3) 0.30794(16) 0.2946(3)
O4_2 O 0.9010(4) 0.45388(17) 0.8397(3)
O6_2 O 0.7983(3) 0.30442(16) 0.4824(3)
O7_2 O 0.7786(3) 0.41628(15) 0.6015(3)
O9_2 O 0.9097(3) 0.42100(13) 0.4213(2)
H5_2 H 0.938199 0.184759 0.058419
Cr1_6 Cr 1.000000 0.500000 0.500000
Mo4_2 Mo 0.92354(4) 0.63712(2) 0.61650(3)
O17_2 O 0.5466(3) 0.67439(17) 0.7263(3)
H6_2 H 0.503610 0.692588 0.769435
H7_2 H 0.518470 0.646353 0.668687
O23_2 O 0.7677(3) 0.66348(16) 0.6036(3)
O25_2 O 0.9460(3) 0.57069(15) 0.7428(3)
O26_2 O 0.8448(3) 0.54019(14) 0.5320(2)
O27_2 O 0.9337(3) 0.66280(14) 0.4635(3)
O28_2 O 0.9869(3) 0.54964(14) 0.3536(2)
O29_2 O 0.9525(4) 0.86396(19) 0.7295(3)
O30_2 O 0.7632(3) 0.81323(16) 0.6520(3)
C7_2 C 0.8183(5) 0.6892(2) 0.9183(4)
H9_2 H 0.757518 0.655937 0.913141
C8_2 C 0.9995(4) 0.7828(2) 0.9372(4)
C9_2 C 0.8936(4) 0.7783(2) 0.8385(4)
C10_2 C 0.8695(4) 0.8232(2) 0.7331(4)
N4_2 N 0.8015(3) 0.73261(16) 0.8305(3)
C1_2 C 0.0739(5) 0.3060(2) 0.9834(4)
H3_2 H 0.062600 0.336709 0.923133
C6_2 C 0.9261(5) 0.6940(2) 0.0166(4)
H8_2 H 0.937400 0.663291 0.076867
loop_
_geom_bond_atom_site_label_1
_geom_bond_atom_site_label_2
_geom_bond_site_symmetry_1
_geom_bond_site_symmetry_2
Mo5 O20 1_555 1_555
O19 Mo6 1_555 1_555
O20 Zn4 1_555 1_555
O22 Mo5 1_555 1_555
O28 Cr1 1_555 1_555
Mo5 O27 1_555 1_555
Mo5 O28 1_555 1_555
Mo6 O22 1_555 1_555
Mo6 O28 1_555 1_555
Mo4 O18 1_555 1_555
O17 H6 1_555 1_555
H7 O17 1_555 1_555
O23 Mo4 1_555 1_555
O24 Cr1_2 1_555 1_555
O29 C10 1_555 1_555
O30 Zn2 1_555 1_555
Zn2 O17 1_555 1_555
C6 H8 1_555 1_555
C7 C6 1_555 1_555
H9 C7 1_555 1_555
C8 H10 1_555 1_555
C9 C8 1_555 1_555
C10 O30 1_555 1_555
N3 C6 1_555 1_555
N4 Zn2 1_555 1_555
O31 Zn2 1_555 1_555
Zn4 N3 1_555 1_555
N5 Zn2 1_555 1_555
Cr1_2 O26 1_555 1_555
Mo4 O24 1_555 1_555
Mo4 O25 1_555 1_555
Mo4 O26 1_555 1_555
O23 Zn2 1_555 1_555
C7 N4 1_555 1_555
C8 N3 1_555 1_555
C9 C10 1_555 1_555
C9 N4 1_555 1_555
Mo1 O3 1_555 1_555
O2 H1 1_555 1_555
H2 O2 1_555 1_555
O8 Mo1 1_555 1_555
O9 Mo1 1_555 1_555
O10 Mo1 1_555 1_555
O11 Mo1 1_555 1_555
O14 C5 1_555 1_555
O15 Zn1 1_555 1_555
Zn1 O2 1_555 1_555
C1 H3 1_555 1_555
C2 C1 1_555 1_555
H4 C2 1_555 1_555
C3 H5 1_555 1_555
C4 C3 1_555 1_555
C5 O15 1_555 1_555
N1 C1 1_555 1_555
N2 Zn1 1_555 1_555
Cr1_3 O9 1_555 1_555
O32 Zn1 1_555 1_555
Zn6 N1 1_555 1_555
N6 Zn1 1_555 1_555
O8 Zn1 1_555 1_555
O11 Cr1_3 1_555 1_555
C2 N2 1_555 1_555
C3 N1 1_555 1_555
C4 C5 1_555 1_555
C4 N2 1_555 1_555
Mo2 O5 1_555 1_555
O4 Mo3 1_555 1_555
O5 Zn6 1_555 1_555
O7 Mo2 1_555 1_555
O13 Mo2 1_555 1_555
Mo2 O12 1_555 1_555
Mo3 O7 1_555 1_555
Mo3 O13 1_555 1_555
O13 Cr1_4 1_555 1_555
O2_2 H1_2 1_555 1_555
H2_2 O2_2 1_555 1_555
O8_2 Mo1_2 1_555 1_555
O10_2 Mo1_2 1_555 1_555
O11_2 Mo1_2 1_555 1_555
O12_2 Mo1_2 1_555 1_555
O14_2 C5_2 1_555 1_555
O15_2 Zn4 1_555 1_555
Zn4 O2_2 1_555 1_555
H4_2 C2_2 1_555 1_555
C4_2 C3_2 1_555 1_555
C5_2 O15_2 1_555 1_555
N2_2 Zn4 1_555 1_555
Mo5_2 O32 1_555 1_555
Mo6_2 O10_2 1_555 1_555
O16_2 Mo6_2 1_555 1_555
O19_2 Mo6_2 1_555 1_555
O21_2 Mo5_2 1_555 1_555
O22_2 Mo5_2 1_555 1_555
O24_2 Cr1_5 1_555 1_555
O8_2 Zn4 1_555 1_555
O11_2 Cr1_5 1_555 1_555
O11_2 Mo6_2 1_555 1_555
O13_2 Cr1_5 1_555 1_555
C2_2 N2_2 1_555 1_555
C4_2 C5_2 1_555 1_555
C4_2 N2_2 1_555 1_555
Mo5_2 O24_2 1_555 1_555
Mo6_2 O22_2 1_555 1_555
Mo2_2 O31 1_555 1_555
Mo3_2 O1_2 1_555 1_555
O4_2 Mo3_2 1_555 1_555
O6_2 Mo2_2 1_555 1_555
O7_2 Mo2_2 1_555 1_555
Cr1_6 O9_2 1_555 1_555
O17_2 H6_2 1_555 1_555
H7_2 O17_2 1_555 1_555
O23_2 Mo4_2 1_555 1_555
O25_2 Mo3_2 1_555 1_555
O26_2 Mo3_2 1_555 1_555
O27_2 Mo4_2 1_555 1_555
O28_2 Cr1_6 1_555 1_555
O29_2 C10_2 1_555 1_555
O30_2 Zn6 1_555 1_555
Zn6 O17_2 1_555 1_555
H9_2 C7_2 1_555 1_555
C9_2 C8_2 1_555 1_555
C10_2 O30_2 1_555 1_555
N4_2 Zn6 1_555 1_555
Mo2_2 O9_2 1_555 1_555
Mo3_2 O7_2 1_555 1_555
Cr1_6 O26_2 1_555 1_555
Mo4_2 O25_2 1_555 1_555
Mo4_2 O26_2 1_555 1_555
O23_2 Zn6 1_555 1_555
C7_2 N4_2 1_555 1_555
C9_2 C10_2 1_555 1_555
C9_2 N4_2 1_555 1_555
C1_2 H3_2 1_555 1_555
C6_2 H8_2 1_555 1_555

#END
