
###############################################################################
#
# This file contains modified crystal structure data generated from the
# MOF subset of the Cambridge Structural Database (CSD) v543 
# hosted by the Cambridge Crystallographic Data Centre (CCDC).
#
# This work is licensed under the Creative Commons
# Attribution-NonCommercial-ShareAlike 4.0 International License.
# To view a copy of this license, visit
# http://creativecommons.org/licenses/by-nc-sa/4.0/
# or send a letter to
# Creative Commons, PO Box 1866, Mountain View, CA 94042, USA.
#
# CIF created using the CSD Python API on 29 September 2022
# The structure has been converted into the P1 space group
# The structure has a 3D framework
# The original CSD entry ONUYOO is in the monoclinic crystal system
# The framework has been calculated to contain at least 10.0% void space
# The void calculation uses a probe of radius 1.32A, grid spacing 0.4
#
###############################################################################

data_ONUYOO
_chemical_formula_moiety         '(C48 H68 Ag4 F12 N12 O26 P4 S4)n'
_symmetry_cell_setting           triclinic
_symmetry_space_group_name_H-M   'P 1'
_symmetry_Int_Tables_number      1
_space_group_name_Hall           'P 1'
loop_
_symmetry_equiv_pos_site_id
_symmetry_equiv_pos_as_xyz
1 x,y,z
_cell_length_a                   13.8917(5)
_cell_length_b                   10.2201(3)
_cell_length_c                   14.8851(5)
_cell_angle_alpha                90
_cell_angle_beta                 104.6150(10)
_cell_angle_gamma                90
_cell_volume                     2044.93
loop_
_atom_site_label
_atom_site_type_symbol
_atom_site_fract_x
_atom_site_fract_y
_atom_site_fract_z
Ag1 Ag 0.62179(3) 0.58701(3) 0.69388(2)
P1 P 0.31948(7) 0.78182(9) 0.50094(6)
O1 O 0.4743(2) 0.6976(3) 0.6572(2)
O2 O 0.5349(3) 0.8214(4) 0.7819(3)
N1 N 0.2572(3) 0.8290(3) 0.3160(2)
N2 N 0.4362(3) 0.8503(4) 0.3895(2)
O3 O 0.1414(2) 0.6515(4) 0.5138(2)
N3 N 0.3604(2) 0.6311(3) 0.3674(2)
O4 O 0.1037(3) 0.5842(5) 0.6429(3)
C1 C 0.4271(3) 0.8718(4) 0.4851(3)
H1 H 0.4191 0.9644 0.4956
H2 H 0.4868 0.8416 0.5294
C2 C 0.2746(3) 0.6888(4) 0.2999(3)
H3 H 0.2154 0.6398 0.3017
H4 H 0.2849 0.6792 0.2381
C3 C 0.3426(3) 0.6185(4) 0.4619(3)
H5 H 0.4002 0.5801 0.5045
H6 H 0.2856 0.5625 0.4595
C4 C 0.3506(3) 0.9028(4) 0.3204(3)
H7 H 0.3647 0.9007 0.2599
H8 H 0.3409 0.9935 0.3353
C5 C 0.2244(3) 0.8436(4) 0.4027(3)
H9 H 0.1630 0.7956 0.3973
H10 H 0.2118 0.9352 0.4125
C6 C 0.4705(3) 0.7926(4) 0.7100(3)
C7 C 0.2911(3) 0.8201(4) 0.6117(3)
H11 H 0.2393 0.8875 0.5981
C8 C 0.3807(3) 0.8822(4) 0.6802(3)
H12 H 0.4003 0.9599 0.6518
H13 H 0.3604 0.9097 0.7350
C9 C 0.4498(3) 0.7128(4) 0.3705(3)
H14 H 0.5052 0.6787 0.4180
H15 H 0.4669 0.7057 0.3114
C10 C 0.2490(4) 0.7081(6) 0.6570(3)
H16 H 0.3003 0.6419 0.6752
H17 H 0.2346 0.7409 0.7134
C11 C 0.1562(3) 0.6427(5) 0.5992(3)
S1 S 0.75405(11) 0.73339(12) 0.54427(9)
F1 F 0.7037(5) 0.6091(5) 0.3874(3)
F2 F 0.6890(5) 0.8123(6) 0.3741(4)
O5 O 0.8161(4) 0.6256(5) 0.5865(3)
F3 F 0.8325(4) 0.7226(7) 0.4037(4)
O6 O 0.6546(4) 0.7136(8) 0.5498(4)
C12 C 0.7457(5) 0.7198(7) 0.4210(4)
O7 O 0.7935(8) 0.8567(6) 0.5675(6)
Ag3 Ag 0.37821(3) 0.41299(3) 0.30612(2)
Ag4 Ag 0.12179(3) 0.91299(3) 0.19388(2)
Ag5 Ag 0.52478(3) 0.96112(4) 0.91491(3)
Ag6 Ag 0.02478(3) 0.53888(4) 0.41491(3)
N4 N 0.7572(3) 0.6710(3) 0.8160(2)
N5 N 0.6396(2) 0.3689(3) 0.6326(2)
Ag2 Ag 0.97522(3) 0.46112(4) 0.58509(3)
O8 O 0.9651(3) 0.3214(4) 0.7181(3)
O9 O 0.8586(2) 0.3485(4) 0.4862(2)
N1_2 N 0.2428(3) 0.3290(3) 0.1840(2)
N2_2 N 0.0638(3) 0.3503(4) 0.1105(2)
N3_2 N 0.1396(2) 0.1311(3) 0.1326(2)
C1_2 C 0.0729(3) 0.3718(4) 0.0149(3)
H1_2 H 0.0809 0.4644 0.0044
C2_2 C 0.2254(3) 0.1888(4) 0.2001(3)
H3_2 H 0.2846 0.1398 0.1983
H4_2 H 0.2151 0.1792 0.2619
C3_2 C 0.1574(3) 0.1185(4) 0.0381(3)
H6_2 H 0.2144 0.0625 0.0405
C4_2 C 0.1494(3) 0.4028(4) 0.1796(3)
H7_2 H 0.1353 0.4007 0.2401
H8_2 H 0.1591 0.4935 0.1647
C5_2 C 0.2756(3) 0.3436(4) 0.0973(3)
H9_2 H 0.3370 0.2956 0.1027
H10_2 H 0.2882 0.4352 0.0875
C9_2 C 0.0502(3) 0.2128(4) 0.1295(3)
H15_2 H 0.0331 0.2057 0.1886
Ag6_2 Ag 0.47522(3) 0.03888(4) 0.08509(3)
P1_2 P 0.18052(7) 0.28182(9) 0.99906(6)
O1_2 O 0.0257(2) 0.1976(3) 0.8428(2)
O3_2 O 0.3586(2) 0.1515(4) 0.9862(2)
O4_2 O 0.3963(3) 0.0842(5) 0.8571(3)
H2_2 H 0.0132 0.3416 0.9706
H5_2 H 0.0998 0.0801 0.9955
C6_2 C 0.0295(3) 0.2926(4) 0.7900(3)
C7_2 C 0.2089(3) 0.3201(4) 0.8883(3)
H11_2 H 0.2607 0.3875 0.9019
C8_2 C 0.1193(3) 0.3822(4) 0.8198(3)
H12_2 H 0.0997 0.4599 0.8482
H13_2 H 0.1396 0.4097 0.7650
C10_2 C 0.2510(4) 0.2081(6) 0.8430(3)
H16_2 H 0.1997 0.1419 0.8248
H17_2 H 0.2654 0.2409 0.7866
C11_2 C 0.3438(3) 0.1427(5) 0.9008(3)
O9_2 O 0.6414(2) 0.8485(4) 0.0138(2)
Ag1_2 Ag 0.87821(3) 0.08701(3) 0.80612(2)
S1_2 S 0.74595(11) 0.23339(12) 0.95573(9)
O5_2 O 0.6839(4) 0.1256(5) 0.9135(3)
O6_2 O 0.8454(4) 0.2136(8) 0.9502(4)
O7_2 O 0.7065(8) 0.3567(6) 0.9325(6)
N4_2 N 0.7428(3) 0.1710(3) 0.6840(2)
N5_2 N 0.8604(2) 0.8689(3) 0.8674(2)
O8_2 O 0.0349(3) 0.6786(4) 0.2819(3)
P1_3 P 0.68052(7) 0.21818(9) 0.49906(6)
O1_3 O 0.5257(2) 0.3024(3) 0.3428(2)
O2_2 O 0.4651(3) 0.1786(4) 0.2181(3)
N2_3 N 0.5638(3) 0.1497(4) 0.6105(2)
O4_3 O 0.8963(3) 0.4158(5) 0.3571(3)
C1_3 C 0.5729(3) 0.1282(4) 0.5149(3)
H1_3 H 0.5809 0.0356 0.5044
H2_3 H 0.5132 0.1584 0.4706
C2_3 C 0.7254(3) 0.3112(4) 0.7001(3)
H3_3 H 0.7846 0.3602 0.6983
H4_3 H 0.7151 0.3208 0.7619
C3_3 C 0.6574(3) 0.3815(4) 0.5381(3)
H5_3 H 0.5998 0.4199 0.4955
H6_3 H 0.7144 0.4375 0.5405
C4_3 C 0.6494(3) 0.0972(4) 0.6796(3)
H7_3 H 0.6353 0.0993 0.7401
H8_3 H 0.6591 0.0065 0.6647
C5_3 C 0.7756(3) 0.1564(4) 0.5973(3)
H9_3 H 0.8370 0.2044 0.6027
H10_3 H 0.7882 0.0648 0.5875
C6_3 C 0.5295(3) 0.2074(4) 0.2900(3)
C7_3 C 0.7089(3) 0.1799(4) 0.3883(3)
H11_3 H 0.7607 0.1125 0.4019
C8_3 C 0.6193(3) 0.1178(4) 0.3198(3)
H12_3 H 0.5997 0.0401 0.3482
H13_3 H 0.6396 0.0903 0.2650
C9_3 C 0.5502(3) 0.2872(4) 0.6295(3)
H14_2 H 0.4948 0.3213 0.5820
H15_3 H 0.5331 0.2943 0.6886
C10_3 C 0.7510(4) 0.2919(6) 0.3430(3)
H16_3 H 0.6997 0.3581 0.3248
H17_3 H 0.7654 0.2591 0.2866
C11_3 C 0.8438(3) 0.3573(5) 0.4008(3)
S1_3 S 0.24595(11) 0.26661(12) 0.45573(9)
F1_2 F 0.2963(5) 0.3909(5) 0.6126(3)
F2_2 F 0.3110(5) 0.1877(6) 0.6259(4)
O5_3 O 0.1839(4) 0.3744(5) 0.4135(3)
F3_2 F 0.1675(4) 0.2774(7) 0.5963(4)
O6_3 O 0.3454(4) 0.2864(8) 0.4502(4)
C12_2 C 0.2543(5) 0.2802(7) 0.5790(4)
O7_3 O 0.2065(8) 0.1433(6) 0.4325(6)
S1_4 S 0.25405(11) 0.76661(12) 0.04427(9)
O5_4 O 0.3161(4) 0.8744(5) 0.0865(3)
O6_4 O 0.1546(4) 0.7864(8) 0.0498(4)
O7_4 O 0.2935(8) 0.6433(6) 0.0675(6)
P1_4 P 0.81948(7) 0.71818(9) 0.00094(6)
O1_4 O 0.9743(2) 0.8024(3) 0.1572(2)
O4_4 O 0.6037(3) 0.9158(5) 0.1429(3)
H2_4 H 0.9868 0.6584 0.0294
H5_4 H 0.9002 0.9199 0.0045
C6_4 C 0.9705(3) 0.7074(4) 0.2100(3)
C7_4 C 0.7911(3) 0.6799(4) 0.1117(3)
H11_4 H 0.7393 0.6125 0.0981
C8_4 C 0.8807(3) 0.6178(4) 0.1802(3)
H12_4 H 0.9003 0.5401 0.1518
H13_4 H 0.8604 0.5903 0.2350
C10_4 C 0.7490(4) 0.7919(6) 0.1570(3)
H16_4 H 0.8003 0.8581 0.1752
H17_4 H 0.7346 0.7591 0.2134
C11_4 C 0.6562(3) 0.8573(5) 0.0992(3)
N2_4 N 0.9362(3) 0.6497(4) 0.8895(2)
C1_4 C 0.9271(3) 0.6282(4) 0.9851(3)
H1_4 H 0.9191 0.5356 0.9956
C2_4 C 0.7746(3) 0.8112(4) 0.7999(3)
H3_4 H 0.7154 0.8602 0.8017
H4_4 H 0.7849 0.8208 0.7381
C3_4 C 0.8426(3) 0.8815(4) 0.9619(3)
H6_4 H 0.7856 0.9375 0.9595
C4_4 C 0.8506(3) 0.5972(4) 0.8204(3)
H7_4 H 0.8647 0.5993 0.7599
H8_4 H 0.8409 0.5065 0.8353
C5_4 C 0.7244(3) 0.6564(4) 0.9027(3)
H9_4 H 0.6630 0.7044 0.8973
H10_4 H 0.7118 0.5648 0.9125
C9_4 C 0.9498(3) 0.7872(4) 0.8705(3)
H15_4 H 0.9669 0.7943 0.8114
H14_3 H 0.9948 0.1787 0.0820
F1_3 F 0.7963(5) 0.1091(5) 0.1126(3)
F2_3 F 0.8110(5) 0.3123(6) 0.1259(4)
F3_3 F 0.6675(4) 0.2226(7) 0.0963(4)
C12_3 C 0.7543(5) 0.2198(7) 0.0790(4)
H14_4 H 0.0052 0.8213 0.9180
F1_4 F 0.2037(5) 0.8909(5) 0.8874(3)
F2_4 F 0.1890(5) 0.6877(6) 0.8741(4)
F3_4 F 0.3325(4) 0.7774(7) 0.9037(4)
C12_4 C 0.2457(5) 0.7802(7) 0.9210(4)
loop_
_geom_bond_atom_site_label_1
_geom_bond_atom_site_label_2
_geom_bond_site_symmetry_1
_geom_bond_site_symmetry_2
Ag1 O1 1_555 1_555
P1 C1 1_555 1_555
O1 C6 1_555 1_555
O2 C6 1_555 1_555
N1 C2 1_555 1_555
N2 C1 1_555 1_555
O3 C11 1_555 1_555
N3 C2 1_555 1_555
O4 C11 1_555 1_555
C1 H1 1_555 1_555
H2 C1 1_555 1_555
C2 H3 1_555 1_555
H4 C2 1_555 1_555
C3 P1 1_555 1_555
H5 C3 1_555 1_555
H6 C3 1_555 1_555
C4 N1 1_555 1_555
H7 C4 1_555 1_555
H8 C4 1_555 1_555
C5 P1 1_555 1_555
H9 C5 1_555 1_555
H10 C5 1_555 1_555
C6 C8 1_555 1_555
C7 P1 1_555 1_555
H11 C7 1_555 1_555
C8 C7 1_555 1_555
H12 C8 1_555 1_555
H13 C8 1_555 1_555
C9 N2 1_555 1_555
H14 C9 1_555 1_555
H15 C9 1_555 1_555
C10 C7 1_555 1_555
H16 C10 1_555 1_555
H17 C10 1_555 1_555
C11 C10 1_555 1_555
S1 O5 1_555 1_555
F1 C12 1_555 1_555
F2 C12 1_555 1_555
F3 C12 1_555 1_555
O6 Ag1 1_555 1_555
C12 S1 1_555 1_555
O7 S1 1_555 1_555
Ag3 N3 1_555 1_555
Ag4 N1 1_555 1_555
Ag5 O2 1_555 1_555
N4 Ag1 1_555 1_555
N5 Ag1 1_555 1_555
N1 C5 1_555 1_555
N2 C4 1_555 1_555
O3 Ag6 1_555 1_555
N3 C3 1_555 1_555
N3 C9 1_555 1_555
S1 O6 1_555 1_555
O8 Ag2 1_555 1_555
O9 Ag2 1_555 1_555
N1_2 C2_2 1_555 1_555
N2_2 C1_2 1_555 1_555
N3_2 C2_2 1_555 1_555
C1_2 H1_2 1_555 1_555
C2_2 H3_2 1_555 1_555
H4_2 C2_2 1_555 1_555
H6_2 C3_2 1_555 1_555
C4_2 N1_2 1_555 1_555
H7_2 C4_2 1_555 1_555
H8_2 C4_2 1_555 1_555
H9_2 C5_2 1_555 1_555
H10_2 C5_2 1_555 1_555
C9_2 N2_2 1_555 1_555
H15_2 C9_2 1_555 1_555
Ag3 N1_2 1_555 1_555
N1_2 C5_2 1_555 1_555
N2_2 C4_2 1_555 1_555
N3_2 C3_2 1_555 1_555
N3_2 C9_2 1_555 1_555
O1_2 C6_2 1_555 1_555
O3_2 C11_2 1_555 1_555
O4_2 C11_2 1_555 1_555
C6_2 C8_2 1_555 1_555
C7_2 P1_2 1_555 1_555
H11_2 C7_2 1_555 1_555
C8_2 C7_2 1_555 1_555
H12_2 C8_2 1_555 1_555
H13_2 C8_2 1_555 1_555
C10_2 C7_2 1_555 1_555
H16_2 C10_2 1_555 1_555
H17_2 C10_2 1_555 1_555
C11_2 C10_2 1_555 1_555
S1_2 O5_2 1_555 1_555
O6_2 Ag1_2 1_555 1_555
O7_2 S1_2 1_555 1_555
N4_2 Ag1_2 1_555 1_555
S1_2 O6_2 1_555 1_555
O8_2 Ag6 1_555 1_555
Ag3 O1_3 1_555 1_555
P1_3 C1_3 1_555 1_555
O1_3 C6_3 1_555 1_555
O2_2 C6_3 1_555 1_555
N4_2 C2_3 1_555 1_555
N2_3 C1_3 1_555 1_555
O9 C11_3 1_555 1_555
N5 C2_3 1_555 1_555
O4_3 C11_3 1_555 1_555
C1_3 H1_3 1_555 1_555
H2_3 C1_3 1_555 1_555
C2_3 H3_3 1_555 1_555
H4_3 C2_3 1_555 1_555
C3_3 P1_3 1_555 1_555
H5_3 C3_3 1_555 1_555
H6_3 C3_3 1_555 1_555
C4_3 N4_2 1_555 1_555
H7_3 C4_3 1_555 1_555
H8_3 C4_3 1_555 1_555
C5_3 P1_3 1_555 1_555
H9_3 C5_3 1_555 1_555
H10_3 C5_3 1_555 1_555
C6_3 C8_3 1_555 1_555
C7_3 P1_3 1_555 1_555
H11_3 C7_3 1_555 1_555
C8_3 C7_3 1_555 1_555
H12_3 C8_3 1_555 1_555
H13_3 C8_3 1_555 1_555
C9_3 N2_3 1_555 1_555
H14_2 C9_3 1_555 1_555
H15_3 C9_3 1_555 1_555
C10_3 C7_3 1_555 1_555
H16_3 C10_3 1_555 1_555
H17_3 C10_3 1_555 1_555
C11_3 C10_3 1_555 1_555
S1_3 O5_3 1_555 1_555
F1_2 C12_2 1_555 1_555
F2_2 C12_2 1_555 1_555
F3_2 C12_2 1_555 1_555
O6_3 Ag3 1_555 1_555
C12_2 S1_3 1_555 1_555
O7_3 S1_3 1_555 1_555
Ag6_2 O2_2 1_555 1_555
N4_2 C5_3 1_555 1_555
N2_3 C4_3 1_555 1_555
N5 C3_3 1_555 1_555
N5 C9_3 1_555 1_555
S1_3 O6_3 1_555 1_555
S1_4 O5_4 1_555 1_555
O6_4 Ag4 1_555 1_555
O7_4 S1_4 1_555 1_555
S1_4 O6_4 1_555 1_555
O1_4 C6_4 1_555 1_555
O9_2 C11_4 1_555 1_555
O4_4 C11_4 1_555 1_555
C6_4 C8_4 1_555 1_555
C7_4 P1_4 1_555 1_555
H11_4 C7_4 1_555 1_555
C8_4 C7_4 1_555 1_555
H12_4 C8_4 1_555 1_555
H13_4 C8_4 1_555 1_555
C10_4 C7_4 1_555 1_555
H16_4 C10_4 1_555 1_555
H17_4 C10_4 1_555 1_555
C11_4 C10_4 1_555 1_555
N4 C2_4 1_555 1_555
N2_4 C1_4 1_555 1_555
N5_2 C2_4 1_555 1_555
C1_4 H1_4 1_555 1_555
C2_4 H3_4 1_555 1_555
H4_4 C2_4 1_555 1_555
H6_4 C3_4 1_555 1_555
C4_4 N4 1_555 1_555
H7_4 C4_4 1_555 1_555
H8_4 C4_4 1_555 1_555
H9_4 C5_4 1_555 1_555
H10_4 C5_4 1_555 1_555
C9_4 N2_4 1_555 1_555
H15_4 C9_4 1_555 1_555
N4 C5_4 1_555 1_555
N2_4 C4_4 1_555 1_555
N5_2 C3_4 1_555 1_555
N5_2 C9_4 1_555 1_555
F1_3 C12_3 1_555 1_555
F2_3 C12_3 1_555 1_555
F3_3 C12_3 1_555 1_555
F1_4 C12_4 1_555 1_555
F2_4 C12_4 1_555 1_555
F3_4 C12_4 1_555 1_555

#END
