
###############################################################################
#
# This file contains modified crystal structure data generated from the
# MOF subset of the Cambridge Structural Database (CSD) v543 
# hosted by the Cambridge Crystallographic Data Centre (CCDC).
#
# This work is licensed under the Creative Commons
# Attribution-NonCommercial-ShareAlike 4.0 International License.
# To view a copy of this license, visit
# http://creativecommons.org/licenses/by-nc-sa/4.0/
# or send a letter to
# Creative Commons, PO Box 1866, Mountain View, CA 94042, USA.
#
# CIF created using the CSD Python API on 29 September 2022
# The structure has been converted into the P1 space group
# The structure has a 3D framework
# The original CSD entry OPIDEZ is in the triclinic crystal system
# The framework has been calculated to contain at least 10.0% void space
# The void calculation uses a probe of radius 1.32A, grid spacing 0.4
#
###############################################################################

data_OPIDEZ
_chemical_formula_moiety         '(C156 H102 N12 O26 Zn6)n'
_symmetry_cell_setting           triclinic
_symmetry_space_group_name_H-M   'P 1'
_symmetry_Int_Tables_number      1
_space_group_name_Hall           'P 1'
loop_
_symmetry_equiv_pos_site_id
_symmetry_equiv_pos_as_xyz
1 x,y,z
_cell_length_a                   15.241(3)
_cell_length_b                   15.251(3)
_cell_length_c                   26.983(5)
_cell_angle_alpha                99.620(3)
_cell_angle_beta                 93.315(4)
_cell_angle_gamma                90.569(3)
_cell_volume                     6172.17
loop_
_atom_site_label
_atom_site_type_symbol
_atom_site_fract_x
_atom_site_fract_y
_atom_site_fract_z
O6 O 0.1366(2) 0.1306(2) 0.22112(15)
O7 O 0.1483(2) 0.1554(2) 0.30458(15)
C4 C 0.1044(4) 0.1442(3) 0.2641(2)
C7 C 0.0081(4) 0.1447(4) 0.2652(2)
H14 H 0.002321 0.134028 0.336607
Zn5 Zn 0.26937(4) 0.13139(3) 0.21650(2)
Zn7 Zn 0.28003(4) 0.16400(3) 0.32785(2)
O2 O 0.2801(2) 0.0283(2) 0.31058(13)
O5 O 0.2690(2) 0.0020(2) 0.22695(15)
N2 N 0.2798(3) 0.1358(3) 0.14340(15)
C32 C 0.3407(4) 0.1944(4) 0.1307(2)
H18 H 0.378095 0.225679 0.156176
C42 C 0.3489(5) 0.2090(5) 0.0823(3)
H25 H 0.393263 0.246752 0.075520
C45 C 0.2291(5) 0.0952(5) 0.1065(3)
H28 H 0.187805 0.054162 0.113225
C46 C 0.2333(6) 0.1102(6) 0.0560(3)
H29 H 0.194870 0.079628 0.030767
C51 C 0.2928(6) 0.1686(5) 0.0446(3)
O1 O 0.2804(2) 0.29458(19) 0.32150(12)
O3 O 0.2679(2) 0.26729(19) 0.23762(12)
N1 N 0.2720(3) 0.1788(3) 0.40388(15)
O4 O 0.4131(2) 0.1614(2) 0.31826(13)
O8 O 0.4011(2) 0.1344(2) 0.23550(14)
C1 C 0.4457(4) 0.1479(3) 0.2773(2)
C2 C 0.2730(3) 0.3177(3) 0.28014(19)
C3 C 0.2727(3) 0.9784(3) 0.2688(2)
C5 C 0.2725(3) 0.4159(3) 0.27764(17)
C6 C 0.5410(3) 0.1507(3) 0.2739(2)
C8 C 0.2723(4) 0.6962(3) 0.2737(2)
C9 C 0.2811(3) 0.4784(3) 0.32246(19)
H1 H 0.286419 0.459797 0.353581
C10 C 0.2737(4) 0.5990(3) 0.2750(2)
C11 C 0.2815(4) 0.5699(3) 0.3193(2)
H2 H 0.287390 0.611256 0.348858
C12 C 0.2673(4) 0.4483(3) 0.2335(2)
H3 H 0.263115 0.408368 0.203319
C13 C 0.2680(4) 0.5381(3) 0.2320(2)
H4 H 0.264589 0.557395 0.200997
C14 C 0.2506(5) 0.1218(4) 0.4801(2)
H5 H 0.239403 0.073073 0.495540
C15 C 0.2848(4) 0.2715(4) 0.4845(2)
H6 H 0.297177 0.327617 0.503277
C16 C 0.2730(4) 0.8795(3) 0.2708(2)
C17 C 0.2862(4) 0.2569(4) 0.4326(2)
H7 H 0.297782 0.305358 0.416920
C18 C 0.9540(4) 0.1444(4) 0.2227(2)
H8 H 0.978807 0.140395 0.191718
C19 C 0.5942(4) 0.1572(5) 0.3158(3)
H9 H 0.569999 0.160001 0.346862
C20 C 0.2656(4) 0.2038(4) 0.5067(2)
C21 C 0.7258(3) 0.1515(3) 0.2698(2)
C22 C 0.5797(4) 0.1411(5) 0.2286(2)
H10 H 0.544917 0.134407 0.198723
C23 C 0.8243(4) 0.1494(4) 0.2682(2)
C24 C 0.6864(4) 0.1598(5) 0.3133(2)
H11 H 0.721225 0.167734 0.343232
C25 C 0.6711(4) 0.1412(5) 0.2274(2)
H12 H 0.695769 0.133977 0.196279
N3 N 0.2540(4) 0.1596(4) 0.58830(18)
H13 H 0.242622 0.108727 0.569726
C26 C 0.9686(4) 0.1390(5) 0.3074(3)
C27 C 0.2517(5) 0.1618(5) 0.6427(2)
C28 C 0.2714(6) 0.2257(5) 0.5641(3)
C29 C 0.2563(5) 0.2412(5) 0.6761(2)
H15 H 0.261316 0.294877 0.664305
C30 C 0.2527(5) 0.1141(4) 0.4277(2)
H16 H 0.239431 0.058594 0.408497
C31 C 0.2694(6) 0.7580(4) 0.3161(2)
H17 H 0.269267 0.740387 0.347465
O9 O 0.2883(5) 0.3046(4) 0.58568(18)
C33 C 0.8636(4) 0.1500(5) 0.2245(2)
H19 H 0.829411 0.154160 0.195314
C34 C 0.2759(5) 0.8224(4) 0.2276(2)
H20 H 0.277900 0.842303 0.196935
C35 C 0.2485(5) 0.1595(5) 0.8001(2)
C36 C 0.2426(4) 0.1615(5) 0.7453(2)
C37 C 0.2535(6) 0.2403(5) 0.7263(2)
H21 H 0.259022 0.293774 0.748695
N4 N 0.2599(5) 0.1461(5) 0.9553(2)
C38 C 0.2580(5) 0.1491(5) 0.9034(3)
C39 C 0.2761(6) 0.2211(6) 0.8859(3)
H22 H 0.294100 0.270975 0.909199
C40 C 0.2277(7) 0.0865(5) 0.8175(3)
H23 H 0.210990 0.035773 0.794556
C41 C 0.2296(7) 0.0822(5) 0.8687(3)
H24 H 0.210071 0.030294 0.878731
C43 C 0.2383(5) 0.0863(4) 0.7103(2)
H26 H 0.234127 0.032167 0.721665
C44 C 0.8807(5) 0.1403(6) 0.3080(3)
H27 H 0.856197 0.134621 0.338122
C47 C 0.2398(6) 0.0846(5) 0.6608(2)
H30 H 0.232674 0.030967 0.638656
C48 C 0.2709(6) 0.2301(5) 0.8359(2)
H31 H 0.282821 0.285010 0.826768
C49 C 0.2667(6) 0.8472(4) 0.3124(2)
H32 H 0.259880 0.887405 0.341809
C50 C 0.2758(6) 0.7303(4) 0.2302(3)
H33 H 0.278184 0.690475 0.200265
O10 O 0.3420(5) 0.2601(5) 0.98868(19)
C52 C 0.3010(7) 0.1937(6) 0.9918(3)
H34 H 0.241(3) 0.101(2) 0.9672(19)
Zn1 Zn 0.73063(4) 0.86861(3) 0.78350(2)
Zn2 Zn 0.71997(4) 0.83600(3) 0.67215(2)
O1_2 O 0.7196(2) 0.70542(19) 0.67850(12)
O3_2 O 0.7321(2) 0.73271(19) 0.76238(12)
N1_2 N 0.7280(3) 0.8212(3) 0.59612(15)
O4_2 O 0.5869(2) 0.8386(2) 0.68174(13)
O8_2 O 0.5989(2) 0.8656(2) 0.76450(14)
C1_2 C 0.5543(4) 0.8521(3) 0.7227(2)
C2_2 C 0.7270(3) 0.6823(3) 0.71986(19)
C3_2 C 0.7273(3) 0.0216(3) 0.7312(2)
C5_2 C 0.7275(3) 0.5841(3) 0.72236(17)
C6_2 C 0.4590(3) 0.8493(3) 0.7261(2)
C8_2 C 0.7277(4) 0.3038(3) 0.7263(2)
C9_2 C 0.7189(3) 0.5216(3) 0.67754(19)
H1_2 H 0.713581 0.540203 0.646419
C10_2 C 0.7263(4) 0.4010(3) 0.7250(2)
C11_2 C 0.7185(4) 0.4301(3) 0.6807(2)
H2_2 H 0.712610 0.388744 0.651142
C12_2 C 0.7327(4) 0.5517(3) 0.7665(2)
H3_2 H 0.736885 0.591632 0.796681
C13_2 C 0.7320(4) 0.4619(3) 0.7680(2)
H4_2 H 0.735411 0.442605 0.799003
C14_2 C 0.7494(5) 0.8782(4) 0.5199(2)
H5_2 H 0.760597 0.926927 0.504460
C15_2 C 0.7152(4) 0.7285(4) 0.5155(2)
H6_2 H 0.702823 0.672383 0.496723
C16_2 C 0.7270(4) 0.1205(3) 0.7292(2)
C17_2 C 0.7138(4) 0.7431(4) 0.5674(2)
H7_2 H 0.702218 0.694642 0.583080
C18_2 C 0.0460(4) 0.8556(4) 0.7773(2)
H8_2 H 0.021193 0.859605 0.808282
C19_2 C 0.4058(4) 0.8428(5) 0.6842(3)
H9_2 H 0.430001 0.839999 0.653138
C20_2 C 0.7344(4) 0.7962(4) 0.4933(2)
C21_2 C 0.2742(3) 0.8485(3) 0.7302(2)
C22_2 C 0.4203(4) 0.8589(5) 0.7714(2)
H10_2 H 0.455083 0.865593 0.801277
C23_2 C 0.1757(4) 0.8506(4) 0.7318(2)
C24_2 C 0.3136(4) 0.8402(5) 0.6867(2)
H11_2 H 0.278775 0.832266 0.656768
C25_2 C 0.3289(4) 0.8588(5) 0.7726(2)
H12_2 H 0.304231 0.866023 0.803721
N3_2 N 0.7460(4) 0.8404(4) 0.41170(18)
H13_2 H 0.757378 0.891273 0.430274
C26_2 C 0.0314(4) 0.8610(5) 0.6926(3)
C27_2 C 0.7483(5) 0.8382(5) 0.3573(2)
C28_2 C 0.7286(6) 0.7743(5) 0.4359(3)
C29_2 C 0.7437(5) 0.7588(5) 0.3239(2)
H15_2 H 0.738684 0.705123 0.335695
C30_2 C 0.7473(5) 0.8859(4) 0.5723(2)
H16_2 H 0.760569 0.941406 0.591503
C31_2 C 0.7306(6) 0.2420(4) 0.6839(2)
H17_2 H 0.730733 0.259613 0.652535
O9_2 O 0.7117(5) 0.6954(4) 0.41432(18)
C33_2 C 0.1364(4) 0.8500(5) 0.7755(2)
H19_2 H 0.170589 0.845840 0.804686
C34_2 C 0.7241(5) 0.1776(4) 0.7724(2)
H20_2 H 0.722100 0.157697 0.803065
C35_2 C 0.7515(5) 0.8405(5) 0.1999(2)
C36_2 C 0.7574(4) 0.8385(5) 0.2547(2)
C37_2 C 0.7465(6) 0.7597(5) 0.2737(2)
H21_2 H 0.740978 0.706226 0.251305
N4_2 N 0.7401(5) 0.8539(5) 0.0447(2)
C38_2 C 0.7420(5) 0.8509(5) 0.0966(3)
C39_2 C 0.7239(6) 0.7789(6) 0.1141(3)
H22_2 H 0.705900 0.729025 0.090801
C40_2 C 0.7723(7) 0.9135(5) 0.1825(3)
H23_2 H 0.789010 0.964227 0.205444
C41_2 C 0.7704(7) 0.9178(5) 0.1313(3)
H24_2 H 0.789929 0.969706 0.121269
C43_2 C 0.7617(5) 0.9137(4) 0.2897(2)
H26_2 H 0.765873 0.967833 0.278335
C44_2 C 0.1193(5) 0.8597(6) 0.6920(3)
H27_2 H 0.143803 0.865379 0.661878
C47_2 C 0.7602(6) 0.9154(5) 0.3392(2)
H30_2 H 0.767326 0.969033 0.361344
C48_2 C 0.7291(6) 0.7699(5) 0.1641(2)
H31_2 H 0.717179 0.714990 0.173232
C49_2 C 0.7333(6) 0.1528(4) 0.6876(2)
H32_2 H 0.740120 0.112595 0.658191
C50_2 C 0.7242(6) 0.2697(4) 0.7698(3)
H33_2 H 0.721816 0.309525 0.799735
O10_2 O 0.6580(5) 0.7399(5) 0.01132(19)
C52_2 C 0.6990(7) 0.8063(6) 0.0082(3)
H34_2 H 0.759(3) 0.899(2) 0.0328(19)
O11 O 0.7199(2) 0.9717(2) 0.68942(13)
O12 O 0.7310(2) 0.9980(2) 0.77305(15)
O13 O 0.8634(2) 0.8694(2) 0.77888(15)
O14 O 0.8517(2) 0.8446(2) 0.69542(15)
N5 N 0.7202(3) 0.8642(3) 0.85660(15)
C32_2 C 0.6593(4) 0.8056(4) 0.8693(2)
H18_2 H 0.621905 0.774321 0.843824
C42_2 C 0.6511(5) 0.7910(5) 0.9177(3)
H25_2 H 0.606737 0.753248 0.924480
C45_2 C 0.7709(5) 0.9048(5) 0.8935(3)
H28_2 H 0.812195 0.945838 0.886775
C46_2 C 0.7667(6) 0.8898(6) 0.9440(3)
H29_2 H 0.805130 0.920372 0.969233
C51_2 C 0.7072(6) 0.8314(5) 0.9554(3)
C4_2 C 0.8956(4) 0.8558(3) 0.7359(2)
C7_2 C 0.9919(4) 0.8553(4) 0.7348(2)
H14_2 H 0.997679 0.865972 0.663393
Zn8 Zn 0.49496(4) 0.48409(3) 0.44446(2)
O15 O 0.4941(2) 0.35612(19) 0.45582(12)
N6 N 0.5040(2) 0.4692(2) 0.36818(13)
O16 O 0.3623(2) 0.4868(2) 0.44992(13)
O17 O 0.4953(2) 0.6193(2) 0.46042(12)
O18 O 0.6260(2) 0.4905(2) 0.46670(13)
C53 C 0.5005(3) 0.3303(3) 0.49818(19)
C54 C 0.4882(3) 0.3890(3) 0.33925(16)
C55 C 0.5204(4) 0.5373(3) 0.34622(18)
C56 C 0.3314(3) 0.4982(3) 0.4925(2)
C57 C 0.5005(3) 0.2322(3) 0.49850(18)
C58 C 0.4886(4) 0.3781(3) 0.28801(18)
H35 H 0.476805 0.340126 0.354519
C59 C 0.5190(4) 0.5316(4) 0.2947(2)
H36 H 0.533541 0.592135 0.366303
C60 C 0.2324(4) 0.5010(3) 0.4939(2)
C61 C 0.4969(4) 0.1726(3) 0.45586(19)
C62 C 0.5027(5) 0.2000(3) 0.5437(2)
H37 H 0.478892 0.321710 0.269046
C63 C 0.5032(3) 0.4494(3) 0.26397(17)
H38 H 0.528511 0.582151 0.280540
C64 C 0.1794(5) 0.5059(5) 0.4538(2)
C65 C 0.1916(4) 0.4970(6) 0.5369(2)
H39 H 0.495419 0.192343 0.425022
C66 C 0.4954(4) 0.0827(3) 0.4569(2)
H40 H 0.503317 0.239379 0.573977
C67 C 0.5039(5) 0.1110(4) 0.5437(2)
C68 C 0.4977(4) 0.4337(4) 0.20791(19)
C69 C 0.0859(4) 0.5054(5) 0.4559(3)
H41 H 0.203776 0.509708 0.423383
C70 C 0.1023(4) 0.4987(6) 0.5408(3)
H42 H 0.226730 0.492888 0.565796
H43 H 0.491245 0.043836 0.426394
C71 C 0.4996(4) 0.0478(3) 0.49983(19)
H44 H 0.507721 0.091208 0.574508
N7 N 0.5046(4) 0.5016(3) 0.18385(16)
O19 O 0.4880(4) 0.3577(3) 0.18500(14)
C72 C 0.0476(3) 0.4997(4) 0.4983(2)
H45 H 0.051014 0.509196 0.426920
H46 H 0.078741 0.499062 0.571834
H47 H 0.510974 0.553344 0.202177
C73 C 0.5028(5) 0.4985(4) 0.1321(2)
C74 C 0.5357(6) 0.5672(5) 0.1134(2)
C75 C 0.4669(7) 0.4344(6) 0.0986(3)
H48 H 0.558596 0.616257 0.135809
C76 C 0.5370(7) 0.5684(5) 0.0597(2)
C77 C 0.4624(7) 0.4361(6) 0.0467(3)
H49 H 0.443169 0.385226 0.109759
C78 C 0.4990(5) 0.4990(4) 0.0274(2)
H50 H 0.563210 0.615532 0.047798
H51 H 0.431950 0.390390 0.025176
O20 O 0.5047(2) 0.3807(2) 0.53958(12)
O21 O 0.3740(2) 0.5095(2) 0.53330(13)
O22 O 0.5059(2) 0.64388(19) 0.54418(12)
O23 O 0.6377(2) 0.5132(2) 0.55008(13)
Zn9 Zn 0.50504(4) 0.51591(3) 0.55554(2)
N8 N 0.4960(2) 0.5308(2) 0.63182(13)
C92 C 0.5010(5) 0.5010(4) 0.9726(2)
C94 C 0.4630(7) 0.4316(5) 0.9403(2)
C95 C 0.5376(7) 0.5639(6) 0.9533(3)
C96 C 0.4643(6) 0.4328(5) 0.8866(2)
H60 H 0.436790 0.384468 0.952202
H61 H 0.568050 0.609610 0.974824
C97 C 0.5331(7) 0.5656(6) 0.9014(3)
C98 C 0.4972(5) 0.5015(4) 0.8679(2)
H62 H 0.441404 0.383743 0.864191
H63 H 0.556831 0.614774 0.890241
N9 N 0.4954(4) 0.4984(3) 0.81615(16)
H64 H 0.489026 0.446656 0.797823
C99 C 0.5023(4) 0.5663(4) 0.79209(19)
O28 O 0.5120(4) 0.6423(3) 0.81500(14)
C100 C 0.4968(3) 0.5506(3) 0.73603(17)
C101 C 0.4810(4) 0.4684(4) 0.7053(2)
C102 C 0.5114(4) 0.6219(3) 0.71199(18)
H65 H 0.471489 0.417849 0.719460
C103 C 0.4796(4) 0.4627(3) 0.65378(18)
H66 H 0.521108 0.678290 0.730954
C104 C 0.5118(3) 0.6110(3) 0.66075(16)
H67 H 0.466459 0.407865 0.633697
H68 H 0.523195 0.659874 0.645481
C79 C 0.5004(4) 0.9522(3) 0.50017(19)
C81 C 0.5046(4) 0.9173(3) 0.5431(2)
C82 C 0.4961(5) 0.8890(4) 0.4563(2)
C85 C 0.5031(4) 0.8274(3) 0.54414(19)
H52 H 0.508755 0.956164 0.573606
C86 C 0.4973(5) 0.8000(3) 0.4563(2)
H53 H 0.492279 0.908792 0.425492
H56 H 0.504581 0.807657 0.574978
C89 C 0.4995(3) 0.7678(3) 0.50150(18)
H57 H 0.496683 0.760621 0.426023
C91 C 0.4995(3) 0.6697(3) 0.50182(19)
C80 C 0.9524(3) 0.5003(4) 0.5017(2)
C83 C 0.8977(4) 0.5013(6) 0.4592(3)
C84 C 0.9141(4) 0.4946(5) 0.5441(3)
H54 H 0.921259 0.500938 0.428166
C87 C 0.8084(4) 0.5030(6) 0.4631(2)
H55 H 0.948986 0.490804 0.573080
C88 C 0.8206(5) 0.4941(5) 0.5462(2)
C90 C 0.7676(4) 0.4990(3) 0.5061(2)
H58 H 0.773270 0.507112 0.434204
H59 H 0.796224 0.490292 0.576617
C93 C 0.6686(3) 0.5018(3) 0.5075(2)
loop_
_geom_bond_atom_site_label_1
_geom_bond_atom_site_label_2
_geom_bond_site_symmetry_1
_geom_bond_site_symmetry_2
O6 C4 1_555 1_555
O7 C4 1_555 1_555
C4 C7 1_555 1_555
Zn5 O6 1_555 1_555
Zn7 O7 1_555 1_555
Zn5 O5 1_555 1_555
Zn7 O2 1_555 1_555
N2 C32 1_555 1_555
C32 H18 1_555 1_555
C42 C32 1_555 1_555
H25 C42 1_555 1_555
C45 N2 1_555 1_555
H28 C45 1_555 1_555
C46 C45 1_555 1_555
H29 C46 1_555 1_555
C51 C42 1_555 1_555
Zn5 N2 1_555 1_555
C46 C51 1_555 1_555
Zn5 O3 1_555 1_555
Zn7 O1 1_555 1_555
O1 C2 1_555 1_555
O3 C2 1_555 1_555
N1 Zn7 1_555 1_555
O4 Zn7 1_555 1_555
O8 Zn5 1_555 1_555
C1 O4 1_555 1_555
C2 C5 1_555 1_555
C3 C16 1_555 1_555
C5 C9 1_555 1_555
C6 C1 1_555 1_555
C8 C10 1_555 1_555
C9 H1 1_555 1_555
C10 C11 1_555 1_555
C11 C9 1_555 1_555
H2 C11 1_555 1_555
C12 C5 1_555 1_555
H3 C12 1_555 1_555
C13 C10 1_555 1_555
H4 C13 1_555 1_555
C14 H5 1_555 1_555
C15 H6 1_555 1_555
C16 C34 1_555 1_555
C17 N1 1_555 1_555
H7 C17 1_555 1_555
C18 H8 1_555 1_555
C19 C6 1_555 1_555
H9 C19 1_555 1_555
C20 C14 1_555 1_555
C21 C23 1_555 1_555
C22 C6 1_555 1_555
H10 C22 1_555 1_555
C23 C33 1_555 1_555
C24 C19 1_555 1_555
H11 C24 1_555 1_555
C25 C21 1_555 1_555
H12 C25 1_555 1_555
N3 H13 1_555 1_555
C27 N3 1_555 1_555
C28 C20 1_555 1_555
C29 C27 1_555 1_555
H15 C29 1_555 1_555
C30 N1 1_555 1_555
H16 C30 1_555 1_555
C31 C8 1_555 1_555
H17 C31 1_555 1_555
O9 C28 1_555 1_555
C33 C18 1_555 1_555
H19 C33 1_555 1_555
C34 H20 1_555 1_555
C35 C36 1_555 1_555
C36 C37 1_555 1_555
C37 C29 1_555 1_555
H21 C37 1_555 1_555
N4 C38 1_555 1_555
C38 C39 1_555 1_555
C39 H22 1_555 1_555
C40 C35 1_555 1_555
H23 C40 1_555 1_555
C41 C38 1_555 1_555
H24 C41 1_555 1_555
C43 C36 1_555 1_555
H26 C43 1_555 1_555
C44 C23 1_555 1_555
H27 C44 1_555 1_555
C47 C27 1_555 1_555
H30 C47 1_555 1_555
C48 C35 1_555 1_555
H31 C48 1_555 1_555
C49 C16 1_555 1_555
H32 C49 1_555 1_555
C50 C8 1_555 1_555
H33 C50 1_555 1_555
O10 C52 1_555 1_555
C52 N4 1_555 1_555
H34 N4 1_555 1_555
O8 C1 1_555 1_555
C12 C13 1_555 1_555
C14 C30 1_555 1_555
C15 C17 1_555 1_555
C15 C20 1_555 1_555
C21 C24 1_555 1_555
C22 C25 1_555 1_555
N3 C28 1_555 1_555
C26 C44 1_555 1_555
C31 C49 1_555 1_555
C34 C50 1_555 1_555
C39 C48 1_555 1_555
C40 C41 1_555 1_555
C43 C47 1_555 1_555
Zn1 O3_2 1_555 1_555
Zn2 O1_2 1_555 1_555
O1_2 C2_2 1_555 1_555
O3_2 C2_2 1_555 1_555
N1_2 Zn2 1_555 1_555
O4_2 Zn2 1_555 1_555
O8_2 Zn1 1_555 1_555
C1_2 O4_2 1_555 1_555
C2_2 C5_2 1_555 1_555
C3_2 C16_2 1_555 1_555
C5_2 C9_2 1_555 1_555
C6_2 C1_2 1_555 1_555
C8_2 C10_2 1_555 1_555
C9_2 H1_2 1_555 1_555
C10_2 C11_2 1_555 1_555
C11_2 C9_2 1_555 1_555
H2_2 C11_2 1_555 1_555
C12_2 C5_2 1_555 1_555
H3_2 C12_2 1_555 1_555
C13_2 C10_2 1_555 1_555
H4_2 C13_2 1_555 1_555
C14_2 H5_2 1_555 1_555
C15_2 H6_2 1_555 1_555
C16_2 C34_2 1_555 1_555
C17_2 N1_2 1_555 1_555
H7_2 C17_2 1_555 1_555
C18_2 H8_2 1_555 1_555
C19_2 C6_2 1_555 1_555
H9_2 C19_2 1_555 1_555
C20_2 C14_2 1_555 1_555
C21_2 C23_2 1_555 1_555
C22_2 C6_2 1_555 1_555
H10_2 C22_2 1_555 1_555
C23_2 C33_2 1_555 1_555
C24_2 C19_2 1_555 1_555
H11_2 C24_2 1_555 1_555
C25_2 C21_2 1_555 1_555
H12_2 C25_2 1_555 1_555
N3_2 H13_2 1_555 1_555
C27_2 N3_2 1_555 1_555
C28_2 C20_2 1_555 1_555
C29_2 C27_2 1_555 1_555
H15_2 C29_2 1_555 1_555
C30_2 N1_2 1_555 1_555
H16_2 C30_2 1_555 1_555
C31_2 C8_2 1_555 1_555
H17_2 C31_2 1_555 1_555
O9_2 C28_2 1_555 1_555
C33_2 C18_2 1_555 1_555
H19_2 C33_2 1_555 1_555
C34_2 H20_2 1_555 1_555
C35_2 C36_2 1_555 1_555
C36_2 C37_2 1_555 1_555
C37_2 C29_2 1_555 1_555
H21_2 C37_2 1_555 1_555
N4_2 C38_2 1_555 1_555
C38_2 C39_2 1_555 1_555
C39_2 H22_2 1_555 1_555
C40_2 C35_2 1_555 1_555
H23_2 C40_2 1_555 1_555
C41_2 C38_2 1_555 1_555
H24_2 C41_2 1_555 1_555
C43_2 C36_2 1_555 1_555
H26_2 C43_2 1_555 1_555
C44_2 C23_2 1_555 1_555
H27_2 C44_2 1_555 1_555
C47_2 C27_2 1_555 1_555
H30_2 C47_2 1_555 1_555
C48_2 C35_2 1_555 1_555
H31_2 C48_2 1_555 1_555
C49_2 C16_2 1_555 1_555
H32_2 C49_2 1_555 1_555
C50_2 C8_2 1_555 1_555
H33_2 C50_2 1_555 1_555
O10_2 C52_2 1_555 1_555
C52_2 N4_2 1_555 1_555
H34_2 N4_2 1_555 1_555
O11 Zn2 1_555 1_555
O12 Zn1 1_555 1_555
O13 Zn1 1_555 1_555
O14 Zn2 1_555 1_555
N5 Zn1 1_555 1_555
O8_2 C1_2 1_555 1_555
C12_2 C13_2 1_555 1_555
C14_2 C30_2 1_555 1_555
C15_2 C17_2 1_555 1_555
C15_2 C20_2 1_555 1_555
C21_2 C24_2 1_555 1_555
C22_2 C25_2 1_555 1_555
N3_2 C28_2 1_555 1_555
C26_2 C44_2 1_555 1_555
C31_2 C49_2 1_555 1_555
C34_2 C50_2 1_555 1_555
C39_2 C48_2 1_555 1_555
C40_2 C41_2 1_555 1_555
C43_2 C47_2 1_555 1_555
N5 C32_2 1_555 1_555
C32_2 H18_2 1_555 1_555
C42_2 C32_2 1_555 1_555
H25_2 C42_2 1_555 1_555
C45_2 N5 1_555 1_555
H28_2 C45_2 1_555 1_555
C46_2 C45_2 1_555 1_555
H29_2 C46_2 1_555 1_555
C51_2 C42_2 1_555 1_555
C46_2 C51_2 1_555 1_555
O13 C4_2 1_555 1_555
O14 C4_2 1_555 1_555
C4_2 C7_2 1_555 1_555
Zn8 O15 1_555 1_555
O15 C53 1_555 1_555
N6 Zn8 1_555 1_555
O16 Zn8 1_555 1_555
O17 Zn8 1_555 1_555
O18 Zn8 1_555 1_555
C53 C57 1_555 1_555
C54 N6 1_555 1_555
C55 N6 1_555 1_555
C56 O16 1_555 1_555
C57 C61 1_555 1_555
C58 C54 1_555 1_555
H35 C54 1_555 1_555
C59 C55 1_555 1_555
H36 C55 1_555 1_555
C60 C56 1_555 1_555
C61 H39 1_555 1_555
C62 C57 1_555 1_555
H37 C58 1_555 1_555
C63 C58 1_555 1_555
H38 C59 1_555 1_555
C64 C60 1_555 1_555
C65 C60 1_555 1_555
C66 C61 1_555 1_555
H40 C62 1_555 1_555
C67 C62 1_555 1_555
C68 C63 1_555 1_555
C69 C64 1_555 1_555
H41 C64 1_555 1_555
C70 C65 1_555 1_555
H42 C65 1_555 1_555
H43 C66 1_555 1_555
C71 C66 1_555 1_555
H44 C67 1_555 1_555
N7 C68 1_555 1_555
O19 C68 1_555 1_555
C72 C69 1_555 1_555
H45 C69 1_555 1_555
H46 C70 1_555 1_555
H47 N7 1_555 1_555
C73 N7 1_555 1_555
C74 C73 1_555 1_555
C75 C73 1_555 1_555
H48 C74 1_555 1_555
C76 C74 1_555 1_555
C77 C75 1_555 1_555
H49 C75 1_555 1_555
C78 C76 1_555 1_555
H50 C76 1_555 1_555
H51 C77 1_555 1_555
O20 C53 1_555 1_555
O21 C56 1_555 1_555
O22 Zn9 1_555 1_555
O23 Zn9 1_555 1_555
Zn9 O20 1_555 1_555
N8 Zn9 1_555 1_555
C59 C63 1_555 1_555
C67 C71 1_555 1_555
C70 C72 1_555 1_555
C77 C78 1_555 1_555
O21 Zn9 1_555 1_555
C94 C92 1_555 1_555
C95 C92 1_555 1_555
C96 C94 1_555 1_555
H60 C94 1_555 1_555
H61 C95 1_555 1_555
C97 C95 1_555 1_555
C98 C96 1_555 1_555
H62 C96 1_555 1_555
H63 C97 1_555 1_555
N9 C98 1_555 1_555
H64 N9 1_555 1_555
C99 N9 1_555 1_555
O28 C99 1_555 1_555
C100 C99 1_555 1_555
C101 C100 1_555 1_555
C102 C100 1_555 1_555
H65 C101 1_555 1_555
C103 C101 1_555 1_555
H66 C102 1_555 1_555
C104 C102 1_555 1_555
N8 C103 1_555 1_555
H67 C103 1_555 1_555
H68 C104 1_555 1_555
C97 C98 1_555 1_555
C104 N8 1_555 1_555
C81 C79 1_555 1_555
C82 C79 1_555 1_555
C85 C81 1_555 1_555
H52 C81 1_555 1_555
C86 C82 1_555 1_555
H53 C82 1_555 1_555
H56 C85 1_555 1_555
C89 C85 1_555 1_555
H57 C86 1_555 1_555
C91 C89 1_555 1_555
O22 C91 1_555 1_555
O17 C91 1_555 1_555
C86 C89 1_555 1_555
C83 C80 1_555 1_555
C84 C80 1_555 1_555
H54 C83 1_555 1_555
C87 C83 1_555 1_555
H55 C84 1_555 1_555
C88 C84 1_555 1_555
C90 C87 1_555 1_555
H58 C87 1_555 1_555
H59 C88 1_555 1_555
C93 C90 1_555 1_555
O23 C93 1_555 1_555
O18 C93 1_555 1_555
C88 C90 1_555 1_555

#END
