
###############################################################################
#
# This file contains modified crystal structure data generated from the
# MOF subset of the Cambridge Structural Database (CSD) v543 
# hosted by the Cambridge Crystallographic Data Centre (CCDC).
#
# This work is licensed under the Creative Commons
# Attribution-NonCommercial-ShareAlike 4.0 International License.
# To view a copy of this license, visit
# http://creativecommons.org/licenses/by-nc-sa/4.0/
# or send a letter to
# Creative Commons, PO Box 1866, Mountain View, CA 94042, USA.
#
# CIF created using the CSD Python API on 29 September 2022
# The structure has been converted into the P1 space group
# The structure has a 3D framework
# The original CSD entry OPIPOT is in the monoclinic crystal system
# The original CSD entry OPIPOT is in a Sohncke space group
# The framework has been calculated to contain at least 10.0% void space
# The void calculation uses a probe of radius 1.32A, grid spacing 0.4
# H atom positions have been added when not included in the experimental data
#
###############################################################################

data_OPIPOT
_chemical_formula_moiety         '(C40 H42 Co2 N8 O13)n'
_symmetry_cell_setting           triclinic
_symmetry_space_group_name_H-M   'P 1'
_symmetry_Int_Tables_number      1
_space_group_name_Hall           'P 1'
loop_
_symmetry_equiv_pos_site_id
_symmetry_equiv_pos_as_xyz
1 x,y,z
_cell_length_a                   6.5597(2)
_cell_length_b                   25.4447(8)
_cell_length_c                   7.9129(2)
_cell_angle_alpha                90
_cell_angle_beta                 91.950(1)
_cell_angle_gamma                90
_cell_volume                     1319.97
loop_
_atom_site_label
_atom_site_type_symbol
_atom_site_fract_x
_atom_site_fract_y
_atom_site_fract_z
Co2 Co 0.12881(6) 0.443930(12) 0.20086(5)
O10 O 0.2996(3) 0.46998(10) 0.0043(3)
N5 N 0.0102(4) 0.52093(13) 0.1726(3)
O11 O 0.3437(4) 0.48279(10) 0.3734(3)
N6 N 0.3034(4) 0.37355(12) 0.2358(3)
H23 H 0.121108 0.544633 0.128814
H11 H 0.0505 0.5538 0.6335
C10 C 0.1220(5) 0.62851(17) 0.6963(4)
H12 H 0.2525 0.6284 0.6478
C11 C 0.0523(5) 0.67334(15) 0.7790(4)
C14 C 0.1695(5) 0.72292(16) 0.7916(4)
H15 H 0.1175 0.7497 0.8618
C15 C 0.3411(5) 0.73328(16) 0.7135(4)
H16 H 0.3923 0.7067 0.6420
C16 C 0.7708(5) 0.82955(15) 0.6959(4)
H17 H 0.9087 0.8292 0.6629
C17 C 0.6547(6) 0.78481(16) 0.6717(5)
H18 H 0.7104 0.7554 0.6155
C18 C 0.4582(6) 0.78242(15) 0.7284(4)
C19 C 0.3812(5) 0.82813(17) 0.8007(4)
H19 H 0.2458 0.8291 0.8396
C20 C 0.5044(5) 0.87165(15) 0.8147(4)
H20 H 0.4494 0.9024 0.8636
N4 N 0.6966(4) 0.87355(12) 0.7642(3)
Co6 Co 0.87119(6) 0.943930(12) 0.79914(5)
O2 O 0.9370(4) 0.40428(11) 0.0005(3)
C6 C 0.1813(4) 0.55208(11) 0.1091(3)
H6 H 0.1249 0.5832 0.0461
C7 C 0.3160(5) 0.57147(10) 0.2577(3)
H9 H 0.2422 0.5999 0.3154
H10 H 0.4406 0.5872 0.2118
C8 C 0.3821(5) 0.53027(14) 0.3914(4)
O8 O 0.4746(4) 0.54992(10) 0.5172(3)
Co3 Co 0.62539(6) 0.512672(12) 0.71232(5)
O9 O 0.9437(4) 0.41507(10) 0.3759(3)
H21 H 0.9009 0.5214 0.0966
H22 H 0.9691 0.5339 0.2745
O1 O 0.7927(4) 0.47981(10) 0.9069(3)
C1 C 0.8148(5) 0.43019(15) 0.9044(4)
C2 C 0.6769(5) 0.40198(11) 0.7749(4)
H1 H 0.6230 0.3692 0.8267
N1 N 0.5027(4) 0.43538(13) 0.7155(3)
H2 H 0.3968 0.4332 0.7885
H3 H 0.4565 0.4254 0.6092
C3 C 0.7943(5) 0.38761(12) 0.6190(4)
H4 H 0.7106 0.3625 0.5509
H5 H 0.9203 0.3690 0.6568
C4 C 0.8552(5) 0.43336(15) 0.5019(4)
O3 O 0.8332(4) 0.48010(10) 0.5365(3)
O6 O 0.4202(4) 0.54342(9) 0.8893(3)
C5 C 0.3130(5) 0.52027(16) 0.9910(4)
N3 N 0.8098(4) 0.58248(13) 0.7458(3)
C9 C 0.9987(5) 0.58438(15) 0.6859(4)
C12 C 0.8614(6) 0.67013(16) 0.8497(5)
H13 H 0.8097 0.6992 0.9101
C13 C 0.7457(5) 0.62431(16) 0.8320(4)
H14 H 0.6168 0.6227 0.8830
O1_2 O 0.2073(4) 0.97981(10) 0.0931(3)
C1_2 C 0.1852(5) 0.93019(15) 0.0956(4)
C2_2 C 0.3231(5) 0.90198(11) 0.2251(4)
H1_2 H 0.3770 0.8692 0.1733
N1_2 N 0.4973(4) 0.93538(13) 0.2845(3)
H2_2 H 0.6032 0.9332 0.2115
H3_2 H 0.5435 0.9254 0.3908
C3_2 C 0.2057(5) 0.88761(12) 0.3810(4)
H4_2 H 0.2894 0.8625 0.4491
H5_2 H 0.0797 0.8690 0.3432
C4_2 C 0.1448(5) 0.93336(15) 0.4981(4)
O3_2 O 0.1668(4) 0.98010(10) 0.4635(3)
O4 O 0.0563(4) 0.91507(10) 0.6241(3)
O2_2 O 0.0630(4) 0.90428(11) 0.9995(3)
O5 O 0.7004(3) 0.96998(10) 0.9957(3)
O7 O 0.6563(4) 0.98279(10) 0.6266(3)
H11_2 H 0.9495 0.0538 0.3665
C10_2 C 0.8780(5) 0.12851(17) 0.3037(4)
H12_2 H 0.7475 0.1284 0.3522
C11_2 C 0.9477(5) 0.17334(15) 0.2210(4)
C14_2 C 0.8305(5) 0.22292(16) 0.2084(4)
H15_2 H 0.8825 0.2497 0.1382
C15_2 C 0.6589(5) 0.23328(16) 0.2865(4)
H16_2 H 0.6077 0.2067 0.3580
C16_2 C 0.2292(5) 0.32955(15) 0.3041(4)
H17_2 H 0.0913 0.3292 0.3371
C17_2 C 0.3453(6) 0.28481(16) 0.3283(5)
H18_2 H 0.2896 0.2554 0.3845
C18_2 C 0.5418(6) 0.28242(15) 0.2716(4)
C19_2 C 0.6188(5) 0.32813(17) 0.1993(4)
H19_2 H 0.7542 0.3291 0.1604
C20_2 C 0.4956(5) 0.37165(15) 0.1853(4)
H20_2 H 0.5506 0.4024 0.1364
H7 H 0.0991 0.0214 0.9034
H8 H 0.0309 0.0339 0.7255
Co1 Co 0.37461(6) 0.012672(12) 0.28768(5)
O6_2 O 0.5798(4) 0.04342(9) 0.1107(3)
C5_2 C 0.6870(5) 0.02027(16) 0.0090(4)
N3_2 N 0.1902(4) 0.08248(13) 0.2542(3)
C9_2 C 0.0013(5) 0.08438(15) 0.3141(4)
C12_2 C 0.1386(6) 0.17013(16) 0.1503(5)
H13_2 H 0.1903 0.1992 0.0899
C13_2 C 0.2543(5) 0.12431(16) 0.1680(4)
H14_2 H 0.3832 0.1227 0.1170
O12 O 0.5254(4) 0.04992(10) 0.4828(3)
C6_2 C 0.8187(4) 0.05208(11) 0.8909(3)
H6_2 H 0.8751 0.0832 0.9539
N2 N 0.9898(4) 0.02093(13) 0.8274(3)
C7_2 C 0.6840(5) 0.07147(10) 0.7423(3)
H9_2 H 0.7578 0.0999 0.6846
H10_2 H 0.5594 0.0872 0.7882
C8_2 C 0.6179(5) 0.03027(14) 0.6086(4)
H23_2 H 0.878892 0.0446325 0.871186
loop_
_geom_bond_atom_site_label_1
_geom_bond_atom_site_label_2
_geom_bond_site_symmetry_1
_geom_bond_site_symmetry_2
O10 Co2 1_555 1_555
N5 Co2 1_555 1_555
O11 Co2 1_555 1_555
N6 Co2 1_555 1_555
N5 H23 1_555 1_555
H12 C10 1_555 1_555
C11 C10 1_555 1_555
C14 C11 1_555 1_555
H15 C14 1_555 1_555
C15 C14 1_555 1_555
H16 C15 1_555 1_555
C16 H17 1_555 1_555
C17 C16 1_555 1_555
H18 C17 1_555 1_555
C18 C15 1_555 1_555
C19 C18 1_555 1_555
H19 C19 1_555 1_555
C20 C19 1_555 1_555
H20 C20 1_555 1_555
N4 C16 1_555 1_555
Co6 N4 1_555 1_555
C17 C18 1_555 1_555
C20 N4 1_555 1_555
H6 C6 1_555 1_555
N5 C6 1_555 1_555
C7 C6 1_555 1_555
H9 C7 1_555 1_555
H10 C7 1_555 1_555
C8 C7 1_555 1_555
O11 C8 1_555 1_555
O8 C8 1_555 1_555
Co3 O8 1_555 1_555
Co3 O1 1_555 1_555
O1 C1 1_555 1_555
C1 C2 1_555 1_555
C2 H1 1_555 1_555
N1 Co3 1_555 1_555
H2 N1 1_555 1_555
H3 N1 1_555 1_555
C3 C2 1_555 1_555
H4 C3 1_555 1_555
H5 C3 1_555 1_555
C4 C3 1_555 1_555
O3 Co3 1_555 1_555
O9 C4 1_555 1_555
O6 Co3 1_555 1_555
C5 O6 1_555 1_555
N3 Co3 1_555 1_555
C9 N3 1_555 1_555
H13 C12 1_555 1_555
C13 N3 1_555 1_555
H14 C13 1_555 1_555
C2 N1 1_555 1_555
C4 O3 1_555 1_555
C12 C13 1_555 1_555
O1_2 C1_2 1_555 1_555
C1_2 C2_2 1_555 1_555
C2_2 H1_2 1_555 1_555
H2_2 N1_2 1_555 1_555
H3_2 N1_2 1_555 1_555
C3_2 C2_2 1_555 1_555
H4_2 C3_2 1_555 1_555
H5_2 C3_2 1_555 1_555
C4_2 C3_2 1_555 1_555
O4 C4_2 1_555 1_555
C2_2 N1_2 1_555 1_555
C4_2 O3_2 1_555 1_555
Co6 O5 1_555 1_555
O7 Co6 1_555 1_555
H12_2 C10_2 1_555 1_555
C11_2 C10_2 1_555 1_555
C14_2 C11_2 1_555 1_555
H15_2 C14_2 1_555 1_555
C15_2 C14_2 1_555 1_555
H16_2 C15_2 1_555 1_555
C16_2 H17_2 1_555 1_555
C17_2 C16_2 1_555 1_555
H18_2 C17_2 1_555 1_555
C18_2 C15_2 1_555 1_555
C19_2 C18_2 1_555 1_555
H19_2 C19_2 1_555 1_555
C20_2 C19_2 1_555 1_555
H20_2 C20_2 1_555 1_555
N6 C16_2 1_555 1_555
C17_2 C18_2 1_555 1_555
C20_2 N6 1_555 1_555
O6_2 Co1 1_555 1_555
C5_2 O6_2 1_555 1_555
N3_2 Co1 1_555 1_555
C9_2 N3_2 1_555 1_555
H13_2 C12_2 1_555 1_555
C13_2 N3_2 1_555 1_555
H14_2 C13_2 1_555 1_555
O12 Co1 1_555 1_555
C12_2 C13_2 1_555 1_555
H6_2 C6_2 1_555 1_555
N2 C6_2 1_555 1_555
C7_2 C6_2 1_555 1_555
H9_2 C7_2 1_555 1_555
H10_2 C7_2 1_555 1_555
C8_2 C7_2 1_555 1_555
O12 C8_2 1_555 1_555
N2 H23_2 1_555 1_555

#END
