
###############################################################################
#
# This file contains modified crystal structure data generated from the
# MOF subset of the Cambridge Structural Database (CSD) v543 
# hosted by the Cambridge Crystallographic Data Centre (CCDC).
#
# This work is licensed under the Creative Commons
# Attribution-NonCommercial-ShareAlike 4.0 International License.
# To view a copy of this license, visit
# http://creativecommons.org/licenses/by-nc-sa/4.0/
# or send a letter to
# Creative Commons, PO Box 1866, Mountain View, CA 94042, USA.
#
# CIF created using the CSD Python API on 29 September 2022
# The structure has been converted into the P1 space group
# The structure has a 3D framework
# The original CSD entry OPOKEL is in the monoclinic crystal system
# The original CSD entry OPOKEL is in a Sohncke space group
# The framework has been calculated to contain at least 10.0% void space
# The void calculation uses a probe of radius 1.32A, grid spacing 0.4
#
###############################################################################

data_OPOKEL
_chemical_formula_moiety         '(C96 H92 Cu4 N12 O20)n'
_symmetry_cell_setting           triclinic
_symmetry_space_group_name_H-M   'P 1'
_symmetry_Int_Tables_number      1
_space_group_name_Hall           'P 1'
loop_
_symmetry_equiv_pos_site_id
_symmetry_equiv_pos_as_xyz
1 x,y,z
_cell_length_a                   13.193(3)
_cell_length_b                   16.490(4)
_cell_length_c                   13.241(3)
_cell_angle_alpha                90
_cell_angle_beta                 118.137(4)
_cell_angle_gamma                90
_cell_volume                     2540.19
loop_
_atom_site_label
_atom_site_type_symbol
_atom_site_fract_x
_atom_site_fract_y
_atom_site_fract_z
C13 C 0.0190(10) 0.2365(6) 0.5706(8)
C14 C 0.0250(8) 0.1626(5) 0.5089(7)
H12 H 0.1016 0.1394 0.5483
H14 H 0.0443 0.2304 0.3888
C16 C 0.0137(8) 0.1170(5) 0.3190(7)
H15 H 0.0946 0.1004 0.3592
C18 C 0.0429(15) 0.1136(8) 0.1513(13)
C19 C 0.0018(11) 0.1385(6) 0.0296(7)
H20 H 0.1311 0.0807 0.0180
O2 O 0.1124(5) 0.2647(3) 0.6474(5)
O5 O 0.1226(10) 0.0673(7) 0.1980(11)
Cu4 Cu 0.08585(10) 0.37967(6) 0.66131(8)
H33 H 0.0500 0.9238 0.2262
H34 H 0.0479 0.9147 0.0506
O11 O 0.0752(6) 0.7704(5) 0.4592(6)
H11 H 0.9708 0.1224 0.5077
C15 C 0.9966(9) 0.1848(5) 0.3863(7)
H13 H 0.9171 0.2024 0.3458
C17 C 0.9408(9) 0.0444(6) 0.3078(7)
H16 H 0.8613 0.2032 0.0038
H21 H 0.7628 0.0586 0.0432
Cu2 Cu 0.63717(9) 0.00800(6) 0.16361(7)
N2 N 0.9881(9) 0.1454(5) 0.2056(7)
H46 H 0.9376 0.1828 0.1730
O1 O 0.9248(6) 0.2704(5) 0.5408(6)
O4 O 0.8329(6) 0.0470(4) 0.2480(5)
N8 N 0.6257(7) 0.0312(4) 0.3061(5)
O13 O 0.5924(7) 0.1220(4) 0.1077(5)
O14 O 0.4267(8) 0.0711(5) 0.0414(8)
C20 C 0.9041(11) 0.1856(6) 0.9688(10)
C21 C 0.8705(9) 0.2064(6) 0.8557(10)
H17 H 0.8052 0.2379 0.8150
C22 C 0.9345(11) 0.1801(7) 0.8034(6)
H18 H 0.9120 0.1941 0.7277
C25 C 0.7030(7) 0.0296(5) 0.9857(6)
C26 C 0.6911(8) 0.0317(5) 0.8757(7)
H22 H 0.7433 0.0604 0.8608
H26 H 0.4978 0.0004 0.6150
C31 C 0.6419(10) 0.0587(6) 0.6382(8)
H27 H 0.7228 0.0568 0.6938
H28 H 0.6122 0.1111 0.6451
C32 C 0.6293(10) 0.0503(6) 0.5165(9)
C33 C 0.7084(9) 0.0891(6) 0.4950(8)
H29 H 0.7638 0.1221 0.5505
C34 C 0.7058(8) 0.0792(6) 0.3915(8)
H30 H 0.7603 0.1059 0.3781
C36 C 0.5444(8) 0.0057(7) 0.4272(7)
C1 C 0.5822(8) 0.8487(5) 0.1783(7)
C2 C 0.5965(7) 0.7600(5) 0.2209(6)
H1 H 0.6778 0.7450 0.2541
C3 C 0.5257(8) 0.6996(5) 0.1269(7)
H2 H 0.4447 0.7126 0.0957
H3 H 0.5376 0.6455 0.1593
C4 C 0.5590(9) 0.7007(5) 0.0293(8)
H5 H 0.6419 0.7031 0.0619
C6 C 0.6089(9) 0.7102(7) 0.4021(8)
C7 C 0.5785(10) 0.7190(6) 0.4990(9)
C8 C 0.6390(11) 0.6796(8) 0.5986(10)
H6 H 0.6985 0.6458 0.6056
C9 C 0.6185(14) 0.6860(9) 0.6896(10)
H7 H 0.6647 0.6594 0.7580
C10 C 0.5311(15) 0.7311(9) 0.6783(11)
H8 H 0.5135 0.7346 0.7384
C11 C 0.4659(12) 0.7728(8) 0.5785(10)
H9 H 0.4065 0.8063 0.5721
C12 C 0.4892(12) 0.7646(8) 0.4878(10)
H10 H 0.4431 0.7907 0.4189
C37 C 0.9905(8) 0.8960(6) 0.1666(7)
C38 C 0.9901(8) 0.8910(7) 0.0619(8)
C41 C 0.8275(8) 0.8248(6) 0.1030(8)
H36 H 0.7710 0.8008 0.1163
Cu1 Cu 0.91415(10) 0.87967(6) 0.33869(8)
N1 N 0.5624(6) 0.7592(4) 0.3124(6)
H45 H 0.5098 0.7923 0.3072
N3 N 0.9090(7) 0.8625(4) 0.1850(6)
N5 N 0.6322(6) 0.9875(4) 0.0125(5)
O3 O 0.9958(6) 0.9829(4) 0.3623(5)
O8 O 0.6727(5) 0.8900(4) 0.2118(4)
O9 O 0.4832(5) 0.8743(4) 0.1184(5)
O10 O 0.6827(8) 0.6603(5) 0.4112(7)
N7 N 0.9013(7) 0.8996(4) 0.4830(5)
O12 O 0.8876(5) 0.7647(3) 0.3526(5)
H4 H 0.5270 0.7487 0.9825
C5 C 0.5136(11) 0.6245(8) 0.9539(10)
C27 C 0.6015(8) 0.9908(6) 0.7892(7)
C28 C 0.5290(8) 0.9470(6) 0.8170(8)
H23 H 0.4682 0.9178 0.7609
C29 C 0.5476(9) 0.9469(6) 0.9288(7)
H24 H 0.4982 0.9169 0.9462
C30 C 0.5796(9) 0.9935(7) 0.6646(7)
H25 H 0.6015 0.9416 0.6463
C35 C 0.5435(9) 0.9995(7) 0.3234(7)
H31 H 0.4832 0.9724 0.2637
H32 H 0.4877 0.9798 0.4381
C39 C 0.9011(10) 0.8496(5) 0.9755(7)
C40 C 0.8187(9) 0.8177(6) 0.9956(8)
H35 H 0.7563 0.7911 0.9375
C42 C 0.8967(13) 0.8437(7) 0.8578(9)
H37 H 0.9588 0.8085 0.8652
H38 H 0.8252 0.8173 0.8057
C43 C 0.9044(12) 0.9148(7) 0.8081(8)
H39 H 0.9757 0.9412 0.8607
H40 H 0.8421 0.9498 0.8007
C44 C 0.9007(11) 0.9103(6) 0.6916(8)
C45 C 0.9902(9) 0.9404(6) 0.6790(8)
C46 C 0.9895(8) 0.9342(5) 0.5730(7)
C47 C 0.8133(8) 0.8731(6) 0.4961(7)
H43 H 0.7502 0.8521 0.4322
C48 C 0.8095(8) 0.8745(6) 0.5968(7)
H44 H 0.7476 0.8522 0.6025
O6 O 0.4076(7) 0.6220(4) 0.8923(5)
O7 O 0.5733(8) 0.5711(5) 0.9586(8)
Cu6 Cu 0.36283(9) 0.50800(6) 0.83639(7)
H4_2 H 0.4730 0.2487 0.0175
C5_2 C 0.4864(11) 0.1245(8) 0.0461(10)
C20_2 C 0.0959(11) 0.6856(6) 0.0312(10)
C21_2 C 0.1295(9) 0.7064(6) 0.1443(10)
H17_2 H 0.1948 0.7379 0.1850
C22_2 C 0.0655(11) 0.6801(7) 0.1966(6)
H18_2 H 0.0880 0.6941 0.2723
C25_2 C 0.2970(7) 0.5296(5) 0.0143(6)
C26_2 C 0.3089(8) 0.5317(5) 0.1243(7)
H22_2 H 0.2567 0.5604 0.1392
C27_2 C 0.3985(8) 0.4908(6) 0.2108(7)
C28_2 C 0.4710(8) 0.4470(6) 0.1830(8)
H23_2 H 0.5318 0.4178 0.2391
C29_2 C 0.4524(9) 0.4469(6) 0.0712(7)
H24_2 H 0.5018 0.4169 0.0538
C30_2 C 0.4204(9) 0.4935(7) 0.3354(7)
H25_2 H 0.3985 0.4416 0.3537
H26_2 H 0.5022 0.5004 0.3850
C31_2 C 0.3581(10) 0.5587(6) 0.3618(8)
H27_2 H 0.2772 0.5568 0.3062
H28_2 H 0.3878 0.6111 0.3549
C32_2 C 0.3707(10) 0.5503(6) 0.4835(9)
C33_2 C 0.2916(9) 0.5891(6) 0.5050(8)
H29_2 H 0.2362 0.6221 0.4495
C34_2 C 0.2942(8) 0.5792(6) 0.6085(8)
H30_2 H 0.2397 0.6059 0.6219
C35_2 C 0.4565(9) 0.4995(7) 0.6766(7)
H31_2 H 0.5168 0.4724 0.7363
C36_2 C 0.4556(8) 0.5057(7) 0.5728(7)
H32_2 H 0.5123 0.4798 0.5619
C39_2 C 0.0989(10) 0.3496(5) 0.0245(7)
C40_2 C 0.1813(9) 0.3177(6) 0.0044(8)
H35_2 H 0.2437 0.2911 0.0625
C42_2 C 0.1033(13) 0.3437(7) 0.1422(9)
H37_2 H 0.0412 0.3085 0.1348
H38_2 H 0.1748 0.3173 0.1943
C43_2 C 0.0956(12) 0.4148(7) 0.1919(8)
H39_2 H 0.0243 0.4412 0.1393
H40_2 H 0.1579 0.4498 0.1993
C44_2 C 0.0993(11) 0.4103(6) 0.3084(8)
C45_2 C 0.0098(9) 0.4404(6) 0.3210(8)
C46_2 C 0.0105(8) 0.4342(5) 0.4270(7)
C47_2 C 0.1867(8) 0.3731(6) 0.5039(7)
H43_2 H 0.2498 0.3521 0.5678
C48_2 C 0.1905(8) 0.3745(6) 0.4032(7)
H44_2 H 0.2524 0.3522 0.3975
N4 N 0.0987(7) 0.3996(4) 0.5170(5)
N6 N 0.3743(7) 0.5312(4) 0.6939(5)
C1_2 C 0.4178(8) 0.3487(5) 0.8217(7)
C2_2 C 0.4035(7) 0.2600(5) 0.7791(6)
H1_2 H 0.3222 0.2450 0.7459
C3_2 C 0.4743(8) 0.1996(5) 0.8731(7)
H2_2 H 0.5553 0.2126 0.9043
H3_2 H 0.4624 0.1455 0.8407
C4_2 C 0.4410(9) 0.2007(5) 0.9707(8)
H5_2 H 0.3581 0.2031 0.9381
C6_2 C 0.3911(9) 0.2102(7) 0.5979(8)
C7_2 C 0.4215(10) 0.2190(6) 0.5010(9)
C8_2 C 0.3610(11) 0.1796(8) 0.4014(10)
H6_2 H 0.3015 0.1458 0.3944
C9_2 C 0.3815(14) 0.1860(9) 0.3104(10)
H7_2 H 0.3353 0.1594 0.2420
C10_2 C 0.4689(15) 0.2311(9) 0.3217(11)
H8_2 H 0.4865 0.2346 0.2616
C11_2 C 0.5341(12) 0.2728(8) 0.4215(10)
H9_2 H 0.5935 0.3063 0.4279
C12_2 C 0.5108(12) 0.2646(8) 0.5122(10)
H10_2 H 0.5569 0.2907 0.5811
H11_2 H 0.0292 0.6224 0.4923
C15_2 C 0.0034(9) 0.6848(5) 0.6137(7)
H13_2 H 0.0829 0.7024 0.6542
C17_2 C 0.0592(9) 0.5444(6) 0.6922(7)
H16_2 H 0.1387 0.7032 0.9962
H21_2 H 0.2372 0.5586 0.9568
C37_2 C 0.0095(8) 0.3960(6) 0.8334(7)
C38_2 C 0.0099(8) 0.3910(7) 0.9381(8)
C41_2 C 0.1725(8) 0.3248(6) 0.8970(8)
H36_2 H 0.2290 0.3008 0.8837
N1_2 N 0.4376(6) 0.2592(4) 0.6876(6)
H45_2 H 0.4902 0.2923 0.6928
N2_2 N 0.0119(9) 0.6454(5) 0.7944(7)
H46_2 H 0.0624 0.6828 0.8270
N3_2 N 0.0910(7) 0.3625(4) 0.8150(6)
N5_2 N 0.3678(6) 0.4875(4) 0.9875(5)
O3_2 O 0.0042(6) 0.4829(4) 0.6377(5)
O4_2 O 0.1671(6) 0.5470(4) 0.7520(5)
O8_2 O 0.3273(5) 0.3900(4) 0.7882(4)
O9_2 O 0.5168(5) 0.3743(4) 0.8816(5)
O10_2 O 0.3173(8) 0.1603(5) 0.5888(7)
C13_2 C 0.9810(10) 0.7365(6) 0.4294(8)
C14_2 C 0.9750(8) 0.6626(5) 0.4911(7)
H12_2 H 0.8984 0.6394 0.4517
H14_2 H 0.9557 0.7304 0.6112
C16_2 C 0.9863(8) 0.6170(5) 0.6810(7)
H15_2 H 0.9054 0.6004 0.6408
C18_2 C 0.9571(15) 0.6136(8) 0.8487(13)
C19_2 C 0.9982(11) 0.6385(6) 0.9704(7)
H20_2 H 0.8689 0.5807 0.9820
H33_2 H 0.9500 0.4238 0.7738
H34_2 H 0.9521 0.4147 0.9494
O5_2 O 0.8774(10) 0.5673(7) 0.8020(11)
C23 C 0.0321(10) 0.1330(7) 0.8642(9)
H19 H 0.0750 0.1155 0.8292
C24 C 0.0658(9) 0.1122(6) 0.9773(9)
H41 H 0.0518 0.9650 0.7406
H42 H 0.0511 0.9545 0.5652
C23_2 C 0.9679(10) 0.6330(7) 0.1358(9)
H19_2 H 0.9250 0.6155 0.1708
C24_2 C 0.9342(9) 0.6122(6) 0.0227(9)
H41_2 H 0.9482 0.4650 0.2594
H42_2 H 0.9489 0.4545 0.4348
loop_
_geom_bond_atom_site_label_1
_geom_bond_atom_site_label_2
_geom_bond_site_symmetry_1
_geom_bond_site_symmetry_2
C13 C14 1_555 1_555
H12 C14 1_555 1_555
H15 C16 1_555 1_555
C18 C19 1_555 1_555
O2 C13 1_555 1_555
O5 C18 1_555 1_555
O2 Cu4 1_555 1_555
H13 C15 1_555 1_555
H46 N2 1_555 1_555
O4 C17 1_555 1_555
N8 Cu2 1_555 1_555
O13 Cu2 1_555 1_555
O14 Cu2 1_555 1_555
Cu2 O4 1_555 1_555
C21 C20 1_555 1_555
H17 C21 1_555 1_555
C22 C21 1_555 1_555
H18 C22 1_555 1_555
C26 C25 1_555 1_555
H22 C26 1_555 1_555
H27 C31 1_555 1_555
H28 C31 1_555 1_555
C32 C31 1_555 1_555
C33 C32 1_555 1_555
H29 C33 1_555 1_555
C34 C33 1_555 1_555
H30 C34 1_555 1_555
C36 C32 1_555 1_555
N8 C34 1_555 1_555
C1 C2 1_555 1_555
C2 H1 1_555 1_555
C3 C2 1_555 1_555
H2 C3 1_555 1_555
H3 C3 1_555 1_555
C4 C3 1_555 1_555
H5 C4 1_555 1_555
C6 C7 1_555 1_555
C7 C8 1_555 1_555
C8 H6 1_555 1_555
C9 C8 1_555 1_555
H7 C9 1_555 1_555
C10 C9 1_555 1_555
H8 C10 1_555 1_555
C11 C10 1_555 1_555
H9 C11 1_555 1_555
C12 C7 1_555 1_555
H10 C12 1_555 1_555
C38 C37 1_555 1_555
H36 C41 1_555 1_555
Cu1 N3 1_555 1_555
N1 C2 1_555 1_555
H45 N1 1_555 1_555
N3 C37 1_555 1_555
O8 C1 1_555 1_555
O9 C1 1_555 1_555
O10 C6 1_555 1_555
N7 Cu1 1_555 1_555
O12 Cu1 1_555 1_555
C6 N1 1_555 1_555
C11 C12 1_555 1_555
C41 N3 1_555 1_555
Cu1 O3 1_555 1_555
C28 C27 1_555 1_555
H23 C28 1_555 1_555
C29 C28 1_555 1_555
H24 C29 1_555 1_555
C30 C27 1_555 1_555
H25 C30 1_555 1_555
C35 H31 1_555 1_555
C40 C39 1_555 1_555
H35 C40 1_555 1_555
C42 C39 1_555 1_555
H37 C42 1_555 1_555
H38 C42 1_555 1_555
C43 C42 1_555 1_555
H39 C43 1_555 1_555
H40 C43 1_555 1_555
C44 C43 1_555 1_555
C45 C44 1_555 1_555
C46 C45 1_555 1_555
C47 H43 1_555 1_555
C48 C44 1_555 1_555
H44 C48 1_555 1_555
N7 C46 1_555 1_555
O6 C5 1_555 1_555
O7 C5 1_555 1_555
Cu6 O6 1_555 1_555
C47 C48 1_555 1_555
C47 N7 1_555 1_555
O7 Cu6 1_555 1_555
C21_2 C20_2 1_555 1_555
H17_2 C21_2 1_555 1_555
C22_2 C21_2 1_555 1_555
H18_2 C22_2 1_555 1_555
C26_2 C25_2 1_555 1_555
H22_2 C26_2 1_555 1_555
C27_2 C26_2 1_555 1_555
C28_2 C27_2 1_555 1_555
H23_2 C28_2 1_555 1_555
C29_2 C28_2 1_555 1_555
H24_2 C29_2 1_555 1_555
C30_2 C27_2 1_555 1_555
H25_2 C30_2 1_555 1_555
H26_2 C30_2 1_555 1_555
C31_2 C30_2 1_555 1_555
H27_2 C31_2 1_555 1_555
H28_2 C31_2 1_555 1_555
C32_2 C31_2 1_555 1_555
C33_2 C32_2 1_555 1_555
H29_2 C33_2 1_555 1_555
C34_2 C33_2 1_555 1_555
H30_2 C34_2 1_555 1_555
C35_2 H31_2 1_555 1_555
C36_2 C32_2 1_555 1_555
H32_2 C36_2 1_555 1_555
C40_2 C39_2 1_555 1_555
H35_2 C40_2 1_555 1_555
C42_2 C39_2 1_555 1_555
H37_2 C42_2 1_555 1_555
H38_2 C42_2 1_555 1_555
C43_2 C42_2 1_555 1_555
H39_2 C43_2 1_555 1_555
H40_2 C43_2 1_555 1_555
C44_2 C43_2 1_555 1_555
C45_2 C44_2 1_555 1_555
C46_2 C45_2 1_555 1_555
C47_2 H43_2 1_555 1_555
C48_2 C44_2 1_555 1_555
H44_2 C48_2 1_555 1_555
N4 C46_2 1_555 1_555
N6 C34_2 1_555 1_555
O13 C5_2 1_555 1_555
O14 C5_2 1_555 1_555
Cu4 N4 1_555 1_555
Cu6 N6 1_555 1_555
C35_2 C36_2 1_555 1_555
C35_2 N6 1_555 1_555
C47_2 C48_2 1_555 1_555
C47_2 N4 1_555 1_555
C1_2 C2_2 1_555 1_555
C2_2 H1_2 1_555 1_555
C3_2 C2_2 1_555 1_555
H2_2 C3_2 1_555 1_555
H3_2 C3_2 1_555 1_555
C4_2 C3_2 1_555 1_555
H5_2 C4_2 1_555 1_555
C6_2 C7_2 1_555 1_555
C7_2 C8_2 1_555 1_555
C8_2 H6_2 1_555 1_555
C9_2 C8_2 1_555 1_555
H7_2 C9_2 1_555 1_555
C10_2 C9_2 1_555 1_555
H8_2 C10_2 1_555 1_555
C11_2 C10_2 1_555 1_555
H9_2 C11_2 1_555 1_555
C12_2 C7_2 1_555 1_555
H10_2 C12_2 1_555 1_555
H13_2 C15_2 1_555 1_555
C38_2 C37_2 1_555 1_555
H36_2 C41_2 1_555 1_555
Cu4 N3_2 1_555 1_555
Cu6 N5_2 1_555 1_555
N1_2 C2_2 1_555 1_555
H45_2 N1_2 1_555 1_555
H46_2 N2_2 1_555 1_555
N3_2 C37_2 1_555 1_555
O3_2 C17_2 1_555 1_555
O4_2 C17_2 1_555 1_555
O8_2 C1_2 1_555 1_555
O9_2 C1_2 1_555 1_555
O10_2 C6_2 1_555 1_555
C6_2 N1_2 1_555 1_555
C11_2 C12_2 1_555 1_555
C41_2 N3_2 1_555 1_555
Cu4 O3_2 1_555 1_555
Cu6 O4_2 1_555 1_555
Cu6 O8_2 1_555 1_555
C13_2 C14_2 1_555 1_555
H12_2 C14_2 1_555 1_555
H15_2 C16_2 1_555 1_555
C18_2 C19_2 1_555 1_555
O12 C13_2 1_555 1_555
O5_2 C18_2 1_555 1_555
H19 C23 1_555 1_555
C23 C24 1_555 1_555
H19_2 C23_2 1_555 1_555
C23_2 C24_2 1_555 1_555

#END
