
###############################################################################
#
# This file contains modified crystal structure data generated from the
# MOF subset of the Cambridge Structural Database (CSD) v543 
# hosted by the Cambridge Crystallographic Data Centre (CCDC).
#
# This work is licensed under the Creative Commons
# Attribution-NonCommercial-ShareAlike 4.0 International License.
# To view a copy of this license, visit
# http://creativecommons.org/licenses/by-nc-sa/4.0/
# or send a letter to
# Creative Commons, PO Box 1866, Mountain View, CA 94042, USA.
#
# CIF created using the CSD Python API on 29 September 2022
# The structure has been converted into the P1 space group
# The structure has a 3D framework
# The original CSD entry OPOYUO is in the monoclinic crystal system
# The framework has been calculated to contain at least 10.0% void space
# The void calculation uses a probe of radius 1.32A, grid spacing 0.4
#
###############################################################################

data_OPOYUO
_chemical_formula_moiety         '(C92 H68 N8 O16 Zn4)n'
_symmetry_cell_setting           triclinic
_symmetry_space_group_name_H-M   'P 1'
_symmetry_Int_Tables_number      1
_space_group_name_Hall           'P 1'
loop_
_symmetry_equiv_pos_site_id
_symmetry_equiv_pos_as_xyz
1 x,y,z
_cell_length_a                   8.7713(8)
_cell_length_b                   18.1647(16)
_cell_length_c                   15.8994(14)
_cell_angle_alpha                90
_cell_angle_beta                 90.0041
_cell_angle_gamma                90
_cell_volume                     2533.22
loop_
_atom_site_label
_atom_site_type_symbol
_atom_site_fract_x
_atom_site_fract_y
_atom_site_fract_z
C6 C 0.0585(5) 0.1439(3) 0.0707(3)
H5 H 0.0458 0.1207 0.0175
C7 C 0.1954(4) 0.1350(2) 0.1134(2)
C8 C 0.2141(4) 0.1662(2) 0.1935(2)
H6 H 0.3062 0.1594 0.2239
C9 C 0.0877(4) 0.2456(2) 0.3125(2)
C13 C 0.0966(4) 0.2069(2) 0.2272(2)
C14 C 0.0947(6) 0.1902(3) 0.3844(3)
H7 H 0.0131 0.1538 0.3777
H8 H 0.0818 0.2159 0.4381
H9 H 0.1937 0.1652 0.3837
C15 C 0.2138(5) 0.3035(3) 0.3206(3)
H10 H 0.2066 0.3384 0.2737
H11 H 0.3135 0.2792 0.3194
H12 H 0.2019 0.3301 0.3739
C17 C 0.3184(4) 0.0903(2) 0.0738(2)
O3 O 0.2830(3) 0.05666(17) 0.00713(17)
O4 O 0.4467(3) 0.08817(16) 0.10856(18)
Zn5 Zn 0.61324(4) 0.01923(2) 0.06708(2)
C20 C 0.9236(5) 0.0043(2) 0.3170(2)
C21 C 0.7742(6) 0.0281(3) 0.3184(3)
H15 H 0.7263 0.0397 0.3704
C22 C 0.6954(5) 0.0350(3) 0.2443(3)
H16 H 0.5927 0.0514 0.2464
N1 N 0.7565(4) 0.01954(17) 0.16893(19)
N2 N 0.9498(4) 0.0060(2) 0.4662(2)
H31 H 0.9080 0.0263 0.7639
C46 C 0.9886(5) 0.0056(3) 0.6048(3)
H34 H 0.8851 0.0208 0.6076
Zn8 Zn 0.38676(4) 0.98077(2) 0.93292(2)
C29 C 0.9415(5) 0.8561(3) 0.9293(3)
H22 H 0.9542 0.8793 0.9825
C30 C 0.8046(4) 0.8650(2) 0.8866(2)
C31 C 0.7859(4) 0.8338(2) 0.8065(2)
H23 H 0.6938 0.8406 0.7761
C32 C 0.9123(4) 0.7544(2) 0.6875(2)
C36 C 0.9034(4) 0.7931(2) 0.7728(2)
C37 C 0.9053(6) 0.8098(3) 0.6156(3)
H24 H 0.9869 0.8462 0.6223
H25 H 0.9182 0.7841 0.5619
H26 H 0.8063 0.8348 0.6163
C38 C 0.7862(5) 0.6965(3) 0.6794(3)
H27 H 0.7934 0.6616 0.7263
H28 H 0.6865 0.7208 0.6806
H29 H 0.7981 0.6699 0.6261
C40 C 0.6816(4) 0.9097(2) 0.9262(2)
O9 O 0.7170(3) 0.94334(17) 0.99287(17)
O12 O 0.5533(3) 0.91183(16) 0.89144(18)
H14 H 0.0920 0.9737 0.2361
C23 C 0.0114(5) 0.9944(3) 0.3952(3)
H17 H 0.1149 0.9792 0.3924
C43 C 0.0764(5) 0.9957(2) 0.6830(2)
C44 C 0.2258(6) 0.9719(3) 0.6816(3)
H32 H 0.2737 0.9603 0.6296
C45 C 0.3046(5) 0.9650(3) 0.7557(3)
H33 H 0.4073 0.9486 0.7536
N3 N 0.2435(4) 0.98046(17) 0.83107(19)
N4 N 0.0502(4) 0.9940(2) 0.5338(2)
Zn1 Zn 0.38676(4) 0.51923(2) 0.43292(2)
C1 C 0.8550(4) 0.3236(2) 0.3668(2)
H1 H 0.9017 0.3338 0.4195
C2 C 0.7117(4) 0.3518(2) 0.3489(2)
C3 C 0.6426(5) 0.3356(3) 0.2724(3)
H2 H 0.5451 0.3555 0.2597
C4 C 0.7151(6) 0.2907(4) 0.2148(3)
H3 H 0.6660 0.2783 0.1634
C5 C 0.9407(5) 0.1852(3) 0.1030(3)
H4 H 0.8484 0.1916 0.0726
C10 C 0.9305(4) 0.2803(2) 0.3080(2)
C11 C 0.8586(5) 0.2640(3) 0.2319(3)
C12 C 0.9615(5) 0.2174(3) 0.1824(3)
C16 C 0.6331(4) 0.4005(2) 0.4106(2)
C18 C 0.0991(5) 0.4972(2) 0.3325(3)
H13 H 0.0539 0.4861 0.3853
C19 C 0.0112(5) 0.4893(3) 0.2602(3)
C20_2 C 0.0764(5) 0.5043(2) 0.1830(2)
C21_2 C 0.2258(6) 0.5281(3) 0.1816(3)
H15_2 H 0.2737 0.5397 0.1296
C22_2 C 0.3046(5) 0.5350(3) 0.2557(3)
H16_2 H 0.4073 0.5514 0.2536
N1_2 N 0.2435(4) 0.51954(17) 0.33107(19)
N2_2 N 0.0502(4) 0.5060(2) 0.0338(2)
O1 O 0.6881(3) 0.40445(16) 0.48401(16)
O2 O 0.5189(3) 0.43578(17) 0.38475(18)
Zn6 Zn 0.61324(4) 0.48077(2) 0.56708(2)
O7 O 0.3119(3) 0.59555(16) 0.51599(16)
O11 O 0.2830(3) 0.44334(17) 0.50713(17)
O13 O 0.5533(3) 0.58817(16) 0.39144(18)
C24 C 0.1450(4) 0.6764(2) 0.6332(2)
H18 H 0.0983 0.6662 0.5805
C25 C 0.2883(4) 0.6482(2) 0.6511(2)
C26 C 0.3574(5) 0.6644(3) 0.7276(3)
H19 H 0.4549 0.6445 0.7403
C27 C 0.2849(6) 0.7093(4) 0.7852(3)
H20 H 0.3340 0.7217 0.8366
C28 C 0.0593(5) 0.8148(3) 0.8970(3)
H21 H 0.1516 0.8084 0.9274
C33 C 0.0695(4) 0.7197(2) 0.6920(2)
C34 C 0.1414(5) 0.7360(3) 0.7681(3)
C35 C 0.0385(5) 0.7826(3) 0.8176(3)
C39 C 0.3669(4) 0.5995(2) 0.5894(2)
C41 C 0.9009(5) 0.5028(2) 0.6675(3)
H30 H 0.9461 0.5139 0.6147
C42 C 0.9888(5) 0.5107(3) 0.7398(3)
C43_2 C 0.9236(5) 0.4957(2) 0.8170(2)
C44_2 C 0.7742(6) 0.4719(3) 0.8184(3)
H32_2 H 0.7263 0.4603 0.8704
C45_2 C 0.6954(5) 0.4650(3) 0.7443(3)
H33_2 H 0.5927 0.4486 0.7464
N3_2 N 0.7565(4) 0.48046(17) 0.66893(19)
N4_2 N 0.9498(4) 0.4940(2) 0.9662(2)
O8 O 0.4811(3) 0.56422(17) 0.61525(18)
O10 O 0.7170(3) 0.55666(17) 0.49287(17)
O14 O 0.4467(3) 0.41183(16) 0.60856(18)
C29_2 C 0.0585(5) 0.3561(3) 0.5707(3)
H22_2 H 0.0458 0.3793 0.5175
C30_2 C 0.1954(4) 0.3650(2) 0.6134(2)
C31_2 C 0.2141(4) 0.3338(2) 0.6935(2)
H23_2 H 0.3062 0.3406 0.7239
C32_2 C 0.0877(4) 0.2544(2) 0.8125(2)
C36_2 C 0.0966(4) 0.2931(2) 0.7272(2)
C37_2 C 0.0947(6) 0.3098(3) 0.8844(3)
H24_2 H 0.0131 0.3462 0.8777
H25_2 H 0.0818 0.2841 0.9381
H26_2 H 0.1937 0.3348 0.8837
C38_2 C 0.2138(5) 0.1965(3) 0.8206(3)
H27_2 H 0.2066 0.1616 0.7737
H28_2 H 0.3135 0.2208 0.8194
H29_2 H 0.2019 0.1699 0.8739
C40_2 C 0.3184(4) 0.4097(2) 0.5738(2)
C6_2 C 0.9415(5) 0.6439(3) 0.4293(3)
H5_2 H 0.9542 0.6207 0.4825
C7_2 C 0.8046(4) 0.6350(2) 0.3866(2)
C8_2 C 0.7859(4) 0.6662(2) 0.3065(2)
H6_2 H 0.6938 0.6594 0.2761
C9_2 C 0.9123(4) 0.7456(2) 0.1875(2)
C13_2 C 0.9034(4) 0.7069(2) 0.2728(2)
C14_2 C 0.9053(6) 0.6902(3) 0.1156(3)
H7_2 H 0.9869 0.6538 0.1223
H8_2 H 0.9182 0.7159 0.0619
H9_2 H 0.8063 0.6652 0.1163
C15_2 C 0.7862(5) 0.8035(3) 0.1794(3)
H10_2 H 0.7934 0.8384 0.2263
H11_2 H 0.6865 0.7792 0.1806
H12_2 H 0.7981 0.8301 0.1261
C17_2 C 0.6816(4) 0.5903(2) 0.4262(2)
H31_2 H 0.0920 0.5263 0.7361
C46_2 C 0.0114(5) 0.5056(3) 0.8952(3)
H34_2 H 0.1149 0.5208 0.8924
H14_2 H 0.9080 0.4737 0.2639
C23_2 C 0.9886(5) 0.4944(3) 0.1048(3)
H17_2 H 0.8851 0.4792 0.1076
C24_2 C 0.8550(4) 0.1764(2) 0.8668(2)
H18_2 H 0.9017 0.1662 0.9195
C25_2 C 0.7117(4) 0.1482(2) 0.8489(2)
C26_2 C 0.6426(5) 0.1644(3) 0.7724(3)
H19_2 H 0.5451 0.1445 0.7597
C27_2 C 0.7151(6) 0.2093(4) 0.7148(3)
H20_2 H 0.6660 0.2217 0.6634
C28_2 C 0.9407(5) 0.3148(3) 0.6030(3)
H21_2 H 0.8484 0.3084 0.5726
C33_2 C 0.9305(4) 0.2197(2) 0.8080(2)
C34_2 C 0.8586(5) 0.2360(3) 0.7319(3)
C35_2 C 0.9615(5) 0.2826(3) 0.6824(3)
C39_2 C 0.6331(4) 0.0995(2) 0.9106(2)
C41_2 C 0.0991(5) 0.0028(2) 0.8325(3)
H30_2 H 0.0539 0.0139 0.8853
C42_2 C 0.0112(5) 0.0107(3) 0.7602(3)
O5 O 0.6881(3) 0.09555(16) 0.98401(16)
O8_2 O 0.5189(3) 0.06422(17) 0.88475(18)
O6 O 0.3119(3) 0.90445(16) 0.01599(16)
C1_2 C 0.1450(4) 0.8236(2) 0.1332(2)
H1_2 H 0.0983 0.8338 0.0805
C2_2 C 0.2883(4) 0.8518(2) 0.1511(2)
C3_2 C 0.3574(5) 0.8356(3) 0.2276(3)
H2_2 H 0.4549 0.8555 0.2403
C4_2 C 0.2849(6) 0.7907(4) 0.2852(3)
H3_2 H 0.3340 0.7783 0.3366
C5_2 C 0.0593(5) 0.6852(3) 0.3970(3)
H4_2 H 0.1516 0.6916 0.4274
C10_2 C 0.0695(4) 0.7803(2) 0.1920(2)
C11_2 C 0.1414(5) 0.7640(3) 0.2681(3)
C12_2 C 0.0385(5) 0.7174(3) 0.3176(3)
C16_2 C 0.3669(4) 0.9005(2) 0.0894(2)
C18_2 C 0.9009(5) 0.9972(2) 0.1675(3)
H13_2 H 0.9461 0.9861 0.1147
C19_2 C 0.9888(5) 0.9893(3) 0.2398(3)
O2_2 O 0.4811(3) 0.93578(17) 0.11525(18)
loop_
_geom_bond_atom_site_label_1
_geom_bond_atom_site_label_2
_geom_bond_site_symmetry_1
_geom_bond_site_symmetry_2
H5 C6 1_555 1_555
C7 C6 1_555 1_555
C8 C7 1_555 1_555
H6 C8 1_555 1_555
C13 C8 1_555 1_555
C14 C9 1_555 1_555
H7 C14 1_555 1_555
H8 C14 1_555 1_555
H9 C14 1_555 1_555
C15 C9 1_555 1_555
H10 C15 1_555 1_555
H11 C15 1_555 1_555
H12 C15 1_555 1_555
C17 C7 1_555 1_555
O3 C17 1_555 1_555
O4 C17 1_555 1_555
Zn5 O4 1_555 1_555
C9 C13 1_555 1_555
Zn5 N1 1_555 1_555
C21 C20 1_555 1_555
H15 C21 1_555 1_555
C22 C21 1_555 1_555
H16 C22 1_555 1_555
H34 C46 1_555 1_555
C22 N1 1_555 1_555
Zn8 O12 1_555 1_555
H22 C29 1_555 1_555
C30 C29 1_555 1_555
C31 C30 1_555 1_555
H23 C31 1_555 1_555
C36 C31 1_555 1_555
C37 C32 1_555 1_555
H24 C37 1_555 1_555
H25 C37 1_555 1_555
H26 C37 1_555 1_555
C38 C32 1_555 1_555
H27 C38 1_555 1_555
H28 C38 1_555 1_555
H29 C38 1_555 1_555
C40 C30 1_555 1_555
O9 C40 1_555 1_555
O12 C40 1_555 1_555
C32 C36 1_555 1_555
H17 C23 1_555 1_555
Zn8 N3 1_555 1_555
C44 C43 1_555 1_555
H32 C44 1_555 1_555
C45 C44 1_555 1_555
H33 C45 1_555 1_555
C45 N3 1_555 1_555
Zn1 N1_2 1_555 1_555
C1 H1 1_555 1_555
C2 C1 1_555 1_555
C3 C2 1_555 1_555
H2 C3 1_555 1_555
C4 C3 1_555 1_555
H3 C4 1_555 1_555
C5 H4 1_555 1_555
C10 C1 1_555 1_555
C11 C4 1_555 1_555
C12 C5 1_555 1_555
C16 C2 1_555 1_555
C18 H13 1_555 1_555
C19 C18 1_555 1_555
C20_2 C19 1_555 1_555
C21_2 C20_2 1_555 1_555
H15_2 C21_2 1_555 1_555
C22_2 C21_2 1_555 1_555
H16_2 C22_2 1_555 1_555
N1_2 C18 1_555 1_555
O1 C16 1_555 1_555
O2 Zn1 1_555 1_555
Zn6 O1 1_555 1_555
O7 Zn1 1_555 1_555
O11 Zn1 1_555 1_555
O13 Zn1 1_555 1_555
C10 C11 1_555 1_555
C11 C12 1_555 1_555
C16 O2 1_555 1_555
C22_2 N1_2 1_555 1_555
Zn6 N3_2 1_555 1_555
C24 H18 1_555 1_555
C25 C24 1_555 1_555
C26 C25 1_555 1_555
H19 C26 1_555 1_555
C27 C26 1_555 1_555
H20 C27 1_555 1_555
C28 H21 1_555 1_555
C33 C24 1_555 1_555
C34 C27 1_555 1_555
C35 C28 1_555 1_555
C39 C25 1_555 1_555
C41 H30 1_555 1_555
C42 C41 1_555 1_555
C43_2 C42 1_555 1_555
C44_2 C43_2 1_555 1_555
H32_2 C44_2 1_555 1_555
C45_2 C44_2 1_555 1_555
H33_2 C45_2 1_555 1_555
N3_2 C41 1_555 1_555
O7 C39 1_555 1_555
O8 Zn6 1_555 1_555
O10 Zn6 1_555 1_555
O14 Zn6 1_555 1_555
C33 C34 1_555 1_555
C34 C35 1_555 1_555
C39 O8 1_555 1_555
C45_2 N3_2 1_555 1_555
H22_2 C29_2 1_555 1_555
C30_2 C29_2 1_555 1_555
C31_2 C30_2 1_555 1_555
H23_2 C31_2 1_555 1_555
C36_2 C31_2 1_555 1_555
C37_2 C32_2 1_555 1_555
H24_2 C37_2 1_555 1_555
H25_2 C37_2 1_555 1_555
H26_2 C37_2 1_555 1_555
C38_2 C32_2 1_555 1_555
H27_2 C38_2 1_555 1_555
H28_2 C38_2 1_555 1_555
H29_2 C38_2 1_555 1_555
C40_2 C30_2 1_555 1_555
O11 C40_2 1_555 1_555
O14 C40_2 1_555 1_555
C32_2 C36_2 1_555 1_555
H5_2 C6_2 1_555 1_555
C7_2 C6_2 1_555 1_555
C8_2 C7_2 1_555 1_555
H6_2 C8_2 1_555 1_555
C13_2 C8_2 1_555 1_555
C14_2 C9_2 1_555 1_555
H7_2 C14_2 1_555 1_555
H8_2 C14_2 1_555 1_555
H9_2 C14_2 1_555 1_555
C15_2 C9_2 1_555 1_555
H10_2 C15_2 1_555 1_555
H11_2 C15_2 1_555 1_555
H12_2 C15_2 1_555 1_555
C17_2 C7_2 1_555 1_555
O10 C17_2 1_555 1_555
O13 C17_2 1_555 1_555
C9_2 C13_2 1_555 1_555
H34_2 C46_2 1_555 1_555
H17_2 C23_2 1_555 1_555
C24_2 H18_2 1_555 1_555
C25_2 C24_2 1_555 1_555
C26_2 C25_2 1_555 1_555
H19_2 C26_2 1_555 1_555
C27_2 C26_2 1_555 1_555
H20_2 C27_2 1_555 1_555
C28_2 H21_2 1_555 1_555
C33_2 C24_2 1_555 1_555
C34_2 C27_2 1_555 1_555
C35_2 C28_2 1_555 1_555
C39_2 C25_2 1_555 1_555
C41_2 H30_2 1_555 1_555
C42_2 C41_2 1_555 1_555
O5 C39_2 1_555 1_555
C33_2 C34_2 1_555 1_555
C34_2 C35_2 1_555 1_555
C39_2 O8_2 1_555 1_555
C1_2 H1_2 1_555 1_555
C2_2 C1_2 1_555 1_555
C3_2 C2_2 1_555 1_555
H2_2 C3_2 1_555 1_555
C4_2 C3_2 1_555 1_555
H3_2 C4_2 1_555 1_555
C5_2 H4_2 1_555 1_555
C10_2 C1_2 1_555 1_555
C11_2 C4_2 1_555 1_555
C12_2 C5_2 1_555 1_555
C16_2 C2_2 1_555 1_555
C18_2 H13_2 1_555 1_555
C19_2 C18_2 1_555 1_555
O6 C16_2 1_555 1_555
C10_2 C11_2 1_555 1_555
C11_2 C12_2 1_555 1_555
C16_2 O2_2 1_555 1_555

#END
