
###############################################################################
#
# This file contains modified crystal structure data generated from the
# MOF subset of the Cambridge Structural Database (CSD) v543 
# hosted by the Cambridge Crystallographic Data Centre (CCDC).
#
# This work is licensed under the Creative Commons
# Attribution-NonCommercial-ShareAlike 4.0 International License.
# To view a copy of this license, visit
# http://creativecommons.org/licenses/by-nc-sa/4.0/
# or send a letter to
# Creative Commons, PO Box 1866, Mountain View, CA 94042, USA.
#
# CIF created using the CSD Python API on 29 September 2022
# The structure has been converted into the P1 space group
# The structure has a 3D framework
# The original CSD entry OQETEK is in the tetragonal crystal system
# The original CSD entry OQETEK is in a Sohncke space group
# The framework has been calculated to contain at least 10.0% void space
# The void calculation uses a probe of radius 1.32A, grid spacing 0.4
#
###############################################################################

data_OQETEK
_chemical_formula_moiety         '(C60 H36 O28 Yb4)n'
_symmetry_cell_setting           triclinic
_symmetry_space_group_name_H-M   'P 1'
_symmetry_Int_Tables_number      1
_space_group_name_Hall           'P 1'
loop_
_symmetry_equiv_pos_site_id
_symmetry_equiv_pos_as_xyz
1 x,y,z
_cell_length_a                   14.642(2)
_cell_length_b                   14.642(2)
_cell_length_c                   14.333(3)
_cell_angle_alpha                90
_cell_angle_beta                 90
_cell_angle_gamma                90
_cell_volume                     3072.83
loop_
_atom_site_label
_atom_site_type_symbol
_atom_site_fract_x
_atom_site_fract_y
_atom_site_fract_z
Yb1 Yb 0.63346(2) 0.41359(2) 0.48494(6)
O1 O 0.6142(5) 0.3623(5) 0.3384(5)
O2 O 0.6083(5) 0.4857(4) 0.2514(5)
O7 O 0.6234(5) 0.2728(5) 0.5438(6)
H1 H 0.649(8) 0.268(3) 0.609(3)
H2 H 0.665(6) 0.227(2) 0.512(6)
C1 C 0.5712(7) 0.3447(6) 0.1838(7)
C2 C 0.5281(7) 0.3819(7) 0.1074(6)
H3 H 0.5186 0.4446 0.1043
C3 C 0.4989(7) 0.3264(7) 0.0350(7)
C4 C 0.5075(8) 0.2331(8) 0.0397(8)
C5 C 0.5505(8) 0.1930(6) 0.1173(7)
C6 C 0.5817(7) 0.2506(7) 0.1895(7)
H5 H 0.6098 0.2253 0.2416
C7 C 0.6008(7) 0.4009(6) 0.2625(6)
C9 C 0.5593(8) 0.0935(7) 0.1272(7)
C10 C 0.6391(8) 0.0573(7) 0.1623(9)
H6 H 0.6890 0.0947 0.1747
C14 C 0.4852(10) 0.0393(8) 0.1092(9)
H9 H 0.4324 0.0647 0.0842
Yb2 Yb 0.58641(2) 0.63346(2) 0.23494(6)
O8 O 0.4857(4) 0.3917(5) 0.5014(5)
O9 O 0.6727(5) 0.4591(5) 0.6260(5)
O10 O 0.5786(5) 0.5518(5) 0.4599(5)
O11 O 0.7797(4) 0.3508(5) 0.4683(5)
O12 O 0.7607(4) 0.4917(5) 0.4241(5)
O3 O 0.4591(5) 0.3273(5) 0.8760(5)
O4 O 0.4214(5) 0.4482(5) 0.9599(5)
H4 H 0.4850 0.1966 0.9919
C8 C 0.4563(7) 0.3697(7) 0.9496(8)
Yb3 Yb 0.41359(2) 0.36654(2) 0.73494(6)
Yb4 Yb 0.36654(2) 0.58641(2) 0.98494(6)
O5 O 0.6492(5) 0.7797(4) 0.2183(5)
O6 O 0.5083(5) 0.7607(4) 0.1741(5)
C11 C 0.6436(9) 0.9653(8) 0.1786(9)
H7 H 0.6976 0.9402 0.2012
C12 C 0.5694(7) 0.9089(7) 0.1622(7)
C13 C 0.4888(8) 0.9446(8) 0.1284(9)
H8 H 0.4382 0.9075 0.1186
C15 C 0.5761(7) 0.8109(7) 0.1879(7)
O5_2 O 0.3508(5) 0.2203(4) 0.7183(5)
O6_2 O 0.4917(5) 0.2393(4) 0.6741(5)
C11_2 C 0.3564(9) 0.0347(8) 0.6786(9)
H7_2 H 0.3024 0.0598 0.7012
C12_2 C 0.4306(7) 0.0911(7) 0.6622(7)
C13_2 C 0.5112(8) 0.0554(8) 0.6284(9)
H8_2 H 0.5618 0.0925 0.6186
C15_2 C 0.4239(7) 0.1891(7) 0.6879(7)
O7_2 O 0.3766(5) 0.7272(5) 0.0438(6)
H1_2 H 0.351(8) 0.732(3) 0.109(3)
H2_2 H 0.335(6) 0.773(2) 0.012(6)
O8_2 O 0.5143(4) 0.6083(5) 0.0014(5)
O9_2 O 0.3273(5) 0.5409(5) 0.1260(5)
O1_2 O 0.3858(5) 0.6377(5) 0.8384(5)
O2_2 O 0.3917(5) 0.5143(4) 0.7514(5)
O3_2 O 0.5409(5) 0.6727(5) 0.3760(5)
C1_2 C 0.4288(7) 0.6553(6) 0.6838(7)
C2_2 C 0.4719(7) 0.6181(7) 0.6074(6)
H3_2 H 0.4814 0.5554 0.6043
C3_2 C 0.5011(7) 0.6736(7) 0.5350(7)
C4_2 C 0.4925(8) 0.7669(8) 0.5397(8)
H4_2 H 0.5150 0.8034 0.4919
C5_2 C 0.4495(8) 0.8070(6) 0.6173(7)
C6_2 C 0.4183(7) 0.7494(7) 0.6895(7)
H5_2 H 0.3902 0.7747 0.7416
C7_2 C 0.3992(7) 0.5991(6) 0.7625(6)
C8_2 C 0.5437(7) 0.6303(7) 0.4496(8)
C9_2 C 0.4407(8) 0.9065(7) 0.6272(7)
C10_2 C 0.3609(8) 0.9427(7) 0.6623(9)
H6_2 H 0.3110 0.9053 0.6747
C14_2 C 0.5148(10) 0.9607(8) 0.6092(9)
H9_2 H 0.5676 0.9353 0.5842
O11_2 O 0.2203(4) 0.6492(5) 0.9683(5)
O12_2 O 0.2393(4) 0.5083(5) 0.9241(5)
C11_3 C 0.0347(8) 0.6436(9) 0.9286(9)
H7_3 H 0.0598 0.6976 0.9512
C12_3 C 0.0911(7) 0.5694(7) 0.9122(7)
C13_3 C 0.0554(8) 0.4888(8) 0.8784(9)
H8_3 H 0.0925 0.4382 0.8686
C15_3 C 0.1891(7) 0.5761(7) 0.9379(7)
O1_3 O 0.6377(5) 0.6142(5) 0.0884(5)
O7_3 O 0.7272(5) 0.6234(5) 0.2938(6)
H1_3 H 0.732(3) 0.649(8) 0.359(3)
H2_3 H 0.773(2) 0.665(6) 0.262(6)
C7_3 C 0.5991(6) 0.6008(7) 0.0125(6)
O10_2 O 0.4482(5) 0.5786(5) 0.2099(5)
O4_2 O 0.5518(5) 0.4214(5) 0.7099(5)
C1_3 C 0.6553(6) 0.5712(7) 0.9338(7)
C2_3 C 0.6181(7) 0.5281(7) 0.8574(6)
H3_3 H 0.5554 0.5186 0.8543
C3_3 C 0.6736(7) 0.4989(7) 0.7850(7)
C4_3 C 0.7669(8) 0.5075(8) 0.7897(8)
H4_3 H 0.8034 0.4850 0.7419
C5_3 C 0.8070(6) 0.5505(8) 0.8673(7)
C6_3 C 0.7494(7) 0.5817(7) 0.9395(7)
H5_3 H 0.7747 0.6098 0.9916
C8_3 C 0.6303(7) 0.4563(7) 0.6996(8)
C9_3 C 0.9065(7) 0.5593(8) 0.8772(7)
C10_3 C 0.9427(7) 0.6391(8) 0.9123(9)
H6_3 H 0.9053 0.6890 0.9247
C14_3 C 0.9607(8) 0.4852(10) 0.8592(9)
H9_3 H 0.9353 0.4324 0.8342
O1_4 O 0.3623(5) 0.3858(5) 0.5884(5)
O7_4 O 0.2728(5) 0.3766(5) 0.7938(6)
H1_4 H 0.268(3) 0.351(8) 0.859(3)
H2_4 H 0.227(2) 0.335(6) 0.762(6)
C1_4 C 0.3447(6) 0.4288(7) 0.4338(7)
C2_4 C 0.3819(7) 0.4719(7) 0.3574(6)
H3_4 H 0.4446 0.4814 0.3543
C3_4 C 0.3264(7) 0.5011(7) 0.2850(7)
C4_4 C 0.2331(8) 0.4925(8) 0.2897(8)
H4_4 H 0.1966 0.5150 0.2419
C5_4 C 0.1930(6) 0.4495(8) 0.3673(7)
C6_4 C 0.2506(7) 0.4183(7) 0.4395(7)
H5_4 H 0.2253 0.3902 0.4916
C7_4 C 0.4009(6) 0.3992(7) 0.5125(6)
C8_4 C 0.3697(7) 0.5437(7) 0.1996(8)
C9_4 C 0.0935(7) 0.4407(8) 0.3772(7)
C10_4 C 0.0573(7) 0.3609(8) 0.4123(9)
H6_4 H 0.0947 0.3110 0.4247
C14_4 C 0.0393(8) 0.5148(10) 0.3592(9)
H9_4 H 0.0647 0.5676 0.3342
C11_4 C 0.9653(8) 0.3564(9) 0.4286(9)
H7_4 H 0.9402 0.3024 0.4512
C12_4 C 0.9089(7) 0.4306(7) 0.4122(7)
C13_4 C 0.9446(8) 0.5112(8) 0.3784(9)
H8_4 H 0.9075 0.5618 0.3686
C15_4 C 0.8109(7) 0.4239(7) 0.4379(7)
loop_
_geom_bond_atom_site_label_1
_geom_bond_atom_site_label_2
_geom_bond_site_symmetry_1
_geom_bond_site_symmetry_2
Yb1 O1 1_555 1_555
O1 C7 1_555 1_555
O2 C7 1_555 1_555
O7 Yb1 1_555 1_555
H1 O7 1_555 1_555
H2 O7 1_555 1_555
C1 C2 1_555 1_555
C2 H3 1_555 1_555
C3 C2 1_555 1_555
C4 C3 1_555 1_555
C5 C4 1_555 1_555
C6 C1 1_555 1_555
H5 C6 1_555 1_555
C7 C1 1_555 1_555
C9 C5 1_555 1_555
C10 C9 1_555 1_555
H6 C10 1_555 1_555
C14 C9 1_555 1_555
H9 C14 1_555 1_555
Yb2 O2 1_555 1_555
O8 Yb1 1_555 1_555
O9 Yb1 1_555 1_555
O10 Yb1 1_555 1_555
O11 Yb1 1_555 1_555
O12 Yb1 1_555 1_555
C5 C6 1_555 1_555
O3 C8 1_555 1_555
O4 C8 1_555 1_555
Yb3 O3 1_555 1_555
Yb4 O4 1_555 1_555
O5 C15 1_555 1_555
O6 C15 1_555 1_555
H7 C11 1_555 1_555
C12 C11 1_555 1_555
C13 C12 1_555 1_555
H8 C13 1_555 1_555
C15 C12 1_555 1_555
Yb2 O5 1_555 1_555
O6 Yb2 1_555 1_555
O5_2 C15_2 1_555 1_555
O6_2 C15_2 1_555 1_555
H7_2 C11_2 1_555 1_555
C12_2 C11_2 1_555 1_555
C13_2 C12_2 1_555 1_555
H8_2 C13_2 1_555 1_555
C15_2 C12_2 1_555 1_555
Yb3 O5_2 1_555 1_555
O6_2 Yb3 1_555 1_555
H1_2 O7_2 1_555 1_555
H2_2 O7_2 1_555 1_555
Yb4 O1_2 1_555 1_555
O1_2 C7_2 1_555 1_555
O2_2 C7_2 1_555 1_555
O3_2 C8_2 1_555 1_555
O10 C8_2 1_555 1_555
C1_2 C2_2 1_555 1_555
C2_2 H3_2 1_555 1_555
C3_2 C2_2 1_555 1_555
C4_2 C3_2 1_555 1_555
H4_2 C4_2 1_555 1_555
C5_2 C4_2 1_555 1_555
C6_2 C1_2 1_555 1_555
H5_2 C6_2 1_555 1_555
C7_2 C1_2 1_555 1_555
C8_2 C3_2 1_555 1_555
C9_2 C5_2 1_555 1_555
C10_2 C9_2 1_555 1_555
H6_2 C10_2 1_555 1_555
C14_2 C9_2 1_555 1_555
H9_2 C14_2 1_555 1_555
Yb3 O2_2 1_555 1_555
Yb2 O3_2 1_555 1_555
O11_2 Yb4 1_555 1_555
O12_2 Yb4 1_555 1_555
C5_2 C6_2 1_555 1_555
O11_2 C15_3 1_555 1_555
O12_2 C15_3 1_555 1_555
H7_3 C11_3 1_555 1_555
C12_3 C11_3 1_555 1_555
C13_3 C12_3 1_555 1_555
H8_3 C13_3 1_555 1_555
C15_3 C12_3 1_555 1_555
Yb2 O1_3 1_555 1_555
O1_3 C7_3 1_555 1_555
O8_2 C7_3 1_555 1_555
O7_3 Yb2 1_555 1_555
H1_3 O7_3 1_555 1_555
H2_3 O7_3 1_555 1_555
O10_2 Yb2 1_555 1_555
O9 C8_3 1_555 1_555
O4_2 C8_3 1_555 1_555
C1_3 C2_3 1_555 1_555
C2_3 H3_3 1_555 1_555
C3_3 C2_3 1_555 1_555
C4_3 C3_3 1_555 1_555
H4_3 C4_3 1_555 1_555
C5_3 C4_3 1_555 1_555
C6_3 C1_3 1_555 1_555
H5_3 C6_3 1_555 1_555
C8_3 C3_3 1_555 1_555
C9_3 C5_3 1_555 1_555
C10_3 C9_3 1_555 1_555
H6_3 C10_3 1_555 1_555
C14_3 C9_3 1_555 1_555
H9_3 C14_3 1_555 1_555
Yb3 O4_2 1_555 1_555
C5_3 C6_3 1_555 1_555
Yb3 O1_4 1_555 1_555
O1_4 C7_4 1_555 1_555
O8 C7_4 1_555 1_555
O9_2 C8_4 1_555 1_555
O10_2 C8_4 1_555 1_555
O7_4 Yb3 1_555 1_555
H1_4 O7_4 1_555 1_555
H2_4 O7_4 1_555 1_555
C1_4 C2_4 1_555 1_555
C2_4 H3_4 1_555 1_555
C3_4 C2_4 1_555 1_555
C4_4 C3_4 1_555 1_555
H4_4 C4_4 1_555 1_555
C5_4 C4_4 1_555 1_555
C6_4 C1_4 1_555 1_555
H5_4 C6_4 1_555 1_555
C7_4 C1_4 1_555 1_555
C8_4 C3_4 1_555 1_555
C9_4 C5_4 1_555 1_555
C10_4 C9_4 1_555 1_555
H6_4 C10_4 1_555 1_555
C14_4 C9_4 1_555 1_555
H9_4 C14_4 1_555 1_555
C5_4 C6_4 1_555 1_555
O11 C15_4 1_555 1_555
O12 C15_4 1_555 1_555
H7_4 C11_4 1_555 1_555
C12_4 C11_4 1_555 1_555
C13_4 C12_4 1_555 1_555
H8_4 C13_4 1_555 1_555
C15_4 C12_4 1_555 1_555

#END
