
###############################################################################
#
# This file contains modified crystal structure data generated from the
# MOF subset of the Cambridge Structural Database (CSD) v543 
# hosted by the Cambridge Crystallographic Data Centre (CCDC).
#
# This work is licensed under the Creative Commons
# Attribution-NonCommercial-ShareAlike 4.0 International License.
# To view a copy of this license, visit
# http://creativecommons.org/licenses/by-nc-sa/4.0/
# or send a letter to
# Creative Commons, PO Box 1866, Mountain View, CA 94042, USA.
#
# CIF created using the CSD Python API on 29 September 2022
# The structure has been converted into the P1 space group
# The structure has a 3D framework
# The original CSD entry OQEZUH is in the tetragonal crystal system
# The framework has been calculated to contain at least 10.0% void space
# The void calculation uses a probe of radius 1.32A, grid spacing 0.4
#
###############################################################################

data_OQEZUH
_chemical_formula_moiety         '(C96 H88 N16 O16 Zn8)n'
_symmetry_cell_setting           triclinic
_symmetry_space_group_name_H-M   'P 1'
_symmetry_Int_Tables_number      1
_space_group_name_Hall           'P 1'
loop_
_symmetry_equiv_pos_site_id
_symmetry_equiv_pos_as_xyz
1 x,y,z
_cell_length_a                   14.106(3)
_cell_length_b                   14.106(3)
_cell_length_c                   13.972(3)
_cell_angle_alpha                90
_cell_angle_beta                 90
_cell_angle_gamma                90
_cell_volume                     2780.14
loop_
_atom_site_label
_atom_site_type_symbol
_atom_site_fract_x
_atom_site_fract_y
_atom_site_fract_z
Zn1 Zn 0.0000 0.5000 0.05758(12)
O1 O 0.40004(19) 0.18319(19) 0.58485(16)
O2 O 0.45348(13) 0.09529(14) 0.46614(14)
N1 N 0.11726(16) 0.45396(16) 0.12433(17)
N2 N 0.22276(17) 0.38868(18) 0.21609(17)
C1 C 0.2056(2) 0.4706(3) 0.0861(3)
H1 H 0.2181 0.5052 0.0309
C2 C 0.2697(2) 0.4295(3) 0.1408(3)
H2 H 0.3347 0.4283 0.1302
C3 C 0.1299(2) 0.4046(2) 0.2026(2)
C4 C 0.0520(2) 0.3677(3) 0.2668(3)
H3 H 0.0625 0.3914 0.3311
C5 C 0.0448(4) 0.2640(3) 0.2706(6)
H5 H 0.0346 0.2396 0.2073
H7 H 0.1025 0.2382 0.2962
C6 C 0.2668(2) 0.3328(2) 0.28926(19)
C7 C 0.2588(3) 0.3558(2) 0.3847(2)
H8 H 0.2232 0.4082 0.4030
C8 C 0.3028(2) 0.3018(2) 0.4527(3)
H9 H 0.2948 0.3160 0.5172
C9 C 0.3595(2) 0.2259(2) 0.4258(2)
C10 C 0.3674(2) 0.2044(2) 0.3297(2)
H10 H 0.4041 0.1529 0.3109
C11 C 0.3225(2) 0.2570(2) 0.2625(2)
H11 H 0.3293 0.2419 0.1981
C12 C 0.4078(2) 0.1649(2) 0.4991(2)
H15 H 0.0081 0.6069 0.2446
H17 H 0.0074 0.7537 0.3110
Zn3 Zn 0.5000 -0.0000 0.55758(12)
O6 O 0.95348(13) 0.40471(14) 0.96614(14)
H1_2 H 0.2819 0.0052 0.5309
N3 N 0.61726(16) 0.04604(16) 0.62433(17)
N4 N 0.72276(17) 0.11132(18) 0.71609(17)
C13 C 0.7056(2) 0.0294(3) 0.5861(3)
C14 C 0.7697(2) 0.0705(3) 0.6408(3)
H13 H 0.8347 0.0717 0.6302
C15 C 0.6299(2) 0.0954(2) 0.7026(2)
C16 C 0.5520(2) 0.1323(3) 0.7668(3)
H14 H 0.5625 0.1086 0.8311
H15_2 H 0.4919 0.1069 0.7446
C17 C 0.5448(4) 0.2360(3) 0.7706(6)
H16 H 0.5346 0.2604 0.7073
H17_2 H 0.4926 0.2537 0.8110
H18 H 0.6025 0.2618 0.7962
C18 C 0.7668(2) 0.1672(2) 0.78926(19)
C19 C 0.7588(3) 0.1442(2) 0.8847(2)
H19 H 0.7232 0.0918 0.9030
C20 C 0.8028(2) 0.1982(2) 0.9527(3)
C21 C 0.8595(2) 0.2741(2) 0.9258(2)
C22 C 0.8674(2) 0.2956(2) 0.8297(2)
H21 H 0.9041 0.3471 0.8109
C23 C 0.8225(2) 0.2430(2) 0.7625(2)
H22 H 0.8293 0.2581 0.6981
C24 C 0.9078(2) 0.3351(2) 0.9991(2)
O1_2 O 0.09996(19) 0.68319(19) 0.08485(16)
H9_2 H 0.2052 0.8160 0.0172
O5 O 0.04652(13) 0.59529(14) 0.96614(14)
Zn3_2 Zn 0.5000 1.0000 0.55758(12)
Zn1_2 Zn 1.0000 0.5000 0.05758(12)
H4 H 0.9919 0.3931 0.2446
H6 H 0.9926 0.2463 0.3110
O3 O 0.59996(19) 0.81681(19) 0.58485(16)
O4 O 0.54652(13) 0.90471(14) 0.46614(14)
N3_2 N 0.88274(16) 0.54604(16) 0.12433(17)
N4_2 N 0.77724(17) 0.61132(18) 0.21609(17)
C13_2 C 0.7944(2) 0.5294(3) 0.0861(3)
H12 H 0.7819 0.4948 0.0309
C14_2 C 0.7303(2) 0.5705(3) 0.1408(3)
H13_2 H 0.6653 0.5717 0.1302
C15_2 C 0.8701(2) 0.5954(2) 0.2026(2)
C16_2 C 0.9480(2) 0.6323(3) 0.2668(3)
H14_2 H 0.9375 0.6086 0.3311
C17_2 C 0.9552(4) 0.7360(3) 0.2706(6)
H16_2 H 0.9654 0.7604 0.2073
H18_2 H 0.8975 0.7618 0.2962
C18_2 C 0.7332(2) 0.6672(2) 0.28926(19)
C19_2 C 0.7412(3) 0.6442(2) 0.3847(2)
H19_2 H 0.7768 0.5918 0.4030
C20_2 C 0.6972(2) 0.6982(2) 0.4527(3)
H20 H 0.7052 0.6840 0.5172
C21_2 C 0.6405(2) 0.7741(2) 0.4258(2)
C22_2 C 0.6326(2) 0.7956(2) 0.3297(2)
H21_2 H 0.5959 0.8471 0.3109
C23_2 C 0.6775(2) 0.7430(2) 0.2625(2)
H22_2 H 0.6707 0.7581 0.1981
C24_2 C 0.5922(2) 0.8351(2) 0.4991(2)
O3_2 O 0.90004(19) 0.31681(19) 0.08485(16)
H20_2 H 0.7948 0.1840 0.0172
N1_2 N 0.38274(16) 0.95396(16) 0.62433(17)
N2_2 N 0.27724(17) 0.88868(18) 0.71609(17)
C1_2 C 0.2944(2) 0.9706(3) 0.5861(3)
C2_2 C 0.2303(2) 0.9295(3) 0.6408(3)
H2_2 H 0.1653 0.9283 0.6302
C3_2 C 0.3701(2) 0.9046(2) 0.7026(2)
C4_2 C 0.4480(2) 0.8677(3) 0.7668(3)
H3_2 H 0.4375 0.8914 0.8311
H4_2 H 0.5081 0.8931 0.7446
C5_2 C 0.4552(4) 0.7640(3) 0.7706(6)
H5_2 H 0.4654 0.7396 0.7073
H6_2 H 0.5074 0.7463 0.8110
H7_2 H 0.3975 0.7382 0.7962
C6_2 C 0.2332(2) 0.8328(2) 0.78926(19)
C7_2 C 0.2412(3) 0.8558(2) 0.8847(2)
H8_2 H 0.2768 0.9082 0.9030
C8_2 C 0.1972(2) 0.8018(2) 0.9527(3)
C9_2 C 0.1405(2) 0.7259(2) 0.9258(2)
C10_2 C 0.1326(2) 0.7044(2) 0.8297(2)
H10_2 H 0.0959 0.6529 0.8109
C11_2 C 0.1775(2) 0.7570(2) 0.7625(2)
H11_2 H 0.1707 0.7419 0.6981
C12_2 C 0.0922(2) 0.6649(2) 0.9991(2)
H12_2 H 0.7181 0.9948 0.5309
Zn3_3 Zn 0.0000 0.5000 0.55758(12)
O5_2 O 0.40471(14) 0.04652(13) 0.96614(14)
Zn1_3 Zn 0.5000 1.0000 0.05758(12)
H4_3 H 0.6069 0.9919 0.2446
H6_3 H 0.7537 0.9926 0.3110
O3_3 O 0.18319(19) 0.59996(19) 0.58485(16)
O4_2 O 0.09529(14) 0.54652(13) 0.46614(14)
N3_3 N 0.45396(16) 0.88274(16) 0.12433(17)
N4_3 N 0.38868(18) 0.77724(17) 0.21609(17)
C13_3 C 0.4706(3) 0.7944(2) 0.0861(3)
H12_3 H 0.5052 0.7819 0.0309
C14_3 C 0.4295(3) 0.7303(2) 0.1408(3)
H13_3 H 0.4283 0.6653 0.1302
C15_3 C 0.4046(2) 0.8701(2) 0.2026(2)
C16_3 C 0.3677(3) 0.9480(2) 0.2668(3)
H14_3 H 0.3914 0.9375 0.3311
C17_3 C 0.2640(3) 0.9552(4) 0.2706(6)
H16_3 H 0.2396 0.9654 0.2073
H18_3 H 0.2382 0.8975 0.2962
C18_3 C 0.3328(2) 0.7332(2) 0.28926(19)
C19_3 C 0.3558(2) 0.7412(3) 0.3847(2)
H19_3 H 0.4082 0.7768 0.4030
C20_3 C 0.3018(2) 0.6972(2) 0.4527(3)
H20_3 H 0.3160 0.7052 0.5172
C21_3 C 0.2259(2) 0.6405(2) 0.4258(2)
C22_3 C 0.2044(2) 0.6326(2) 0.3297(2)
H21_3 H 0.1529 0.5959 0.3109
C23_3 C 0.2570(2) 0.6775(2) 0.2625(2)
H22_3 H 0.2419 0.6707 0.1981
C24_3 C 0.1649(2) 0.5922(2) 0.4991(2)
N1_3 N 0.04604(16) 0.38274(16) 0.62433(17)
N2_3 N 0.11132(18) 0.27724(17) 0.71609(17)
C1_3 C 0.0294(3) 0.2944(2) 0.5861(3)
C2_3 C 0.0705(3) 0.2303(2) 0.6408(3)
H2_3 H 0.0717 0.1653 0.6302
C3_3 C 0.0954(2) 0.3701(2) 0.7026(2)
C4_3 C 0.1323(3) 0.4480(2) 0.7668(3)
H3_3 H 0.1086 0.4375 0.8311
H4_4 H 0.1069 0.5081 0.7446
C5_3 C 0.2360(3) 0.4552(4) 0.7706(6)
H5_3 H 0.2604 0.4654 0.7073
H6_4 H 0.2537 0.5074 0.8110
H7_3 H 0.2618 0.3975 0.7962
C6_3 C 0.1672(2) 0.2332(2) 0.78926(19)
C7_3 C 0.1442(2) 0.2412(3) 0.8847(2)
H8_3 H 0.0918 0.2768 0.9030
C8_3 C 0.1982(2) 0.1972(2) 0.9527(3)
C9_3 C 0.2741(2) 0.1405(2) 0.9258(2)
C10_3 C 0.2956(2) 0.1326(2) 0.8297(2)
H10_3 H 0.3471 0.0959 0.8109
C11_3 C 0.2430(2) 0.1775(2) 0.7625(2)
H11_3 H 0.2581 0.1707 0.6981
C12_3 C 0.3351(2) 0.0922(2) 0.9991(2)
H12_4 H 0.0052 0.7181 0.5309
O3_4 O 0.68319(19) 0.90004(19) 0.08485(16)
H20_4 H 0.8160 0.7948 0.0172
Zn1_4 Zn 0.5000 0.0000 0.05758(12)
O1_3 O 0.81681(19) 0.40004(19) 0.58485(16)
O2_2 O 0.90471(14) 0.45348(13) 0.46614(14)
N1_4 N 0.54604(16) 0.11726(16) 0.12433(17)
N2_4 N 0.61132(18) 0.22276(17) 0.21609(17)
C1_4 C 0.5294(3) 0.2056(2) 0.0861(3)
H1_3 H 0.4948 0.2181 0.0309
C2_4 C 0.5705(3) 0.2697(2) 0.1408(3)
H2_4 H 0.5717 0.3347 0.1302
C3_4 C 0.5954(2) 0.1299(2) 0.2026(2)
C4_4 C 0.6323(3) 0.0520(2) 0.2668(3)
H3_4 H 0.6086 0.0625 0.3311
C5_4 C 0.7360(3) 0.0448(4) 0.2706(6)
H5_4 H 0.7604 0.0346 0.2073
H7_4 H 0.7618 0.1025 0.2962
C6_4 C 0.6672(2) 0.2668(2) 0.28926(19)
C7_4 C 0.6442(2) 0.2588(3) 0.3847(2)
H8_4 H 0.5918 0.2232 0.4030
C8_4 C 0.6982(2) 0.3028(2) 0.4527(3)
H9_3 H 0.6840 0.2948 0.5172
C9_4 C 0.7741(2) 0.3595(2) 0.4258(2)
C10_4 C 0.7956(2) 0.3674(2) 0.3297(2)
H10_4 H 0.8471 0.4041 0.3109
C11_4 C 0.7430(2) 0.3225(2) 0.2625(2)
H11_4 H 0.7581 0.3293 0.1981
C12_4 C 0.8351(2) 0.4078(2) 0.4991(2)
H15_3 H 0.3931 0.0081 0.2446
H17_3 H 0.2463 0.0074 0.3110
Zn3_4 Zn 1.0000 0.5000 0.55758(12)
O6_2 O 0.59529(14) 0.95348(13) 0.96614(14)
O1_4 O 0.31681(19) 0.09996(19) 0.08485(16)
H9_4 H 0.1840 0.2052 0.0172
H1_4 H 0.9948 0.2819 0.5309
N3_4 N 0.95396(16) 0.61726(16) 0.62433(17)
N4_4 N 0.88868(18) 0.72276(17) 0.71609(17)
C13_4 C 0.9706(3) 0.7056(2) 0.5861(3)
C14_4 C 0.9295(3) 0.7697(2) 0.6408(3)
H13_4 H 0.9283 0.8347 0.6302
C15_4 C 0.9046(2) 0.6299(2) 0.7026(2)
C16_4 C 0.8677(3) 0.5520(2) 0.7668(3)
H14_4 H 0.8914 0.5625 0.8311
H15_4 H 0.8931 0.4919 0.7446
C17_4 C 0.7640(3) 0.5448(4) 0.7706(6)
H16_4 H 0.7396 0.5346 0.7073
H17_4 H 0.7463 0.4926 0.8110
H18_4 H 0.7382 0.6025 0.7962
C18_4 C 0.8328(2) 0.7668(2) 0.78926(19)
C19_4 C 0.8558(2) 0.7588(3) 0.8847(2)
H19_4 H 0.9082 0.7232 0.9030
C20_4 C 0.8018(2) 0.8028(2) 0.9527(3)
C21_4 C 0.7259(2) 0.8595(2) 0.9258(2)
C22_4 C 0.7044(2) 0.8674(2) 0.8297(2)
H21_4 H 0.6529 0.9041 0.8109
C23_4 C 0.7570(2) 0.8225(2) 0.7625(2)
H22_4 H 0.7419 0.8293 0.6981
C24_4 C 0.6649(2) 0.9078(2) 0.9991(2)
loop_
_geom_bond_atom_site_label_1
_geom_bond_atom_site_label_2
_geom_bond_site_symmetry_1
_geom_bond_site_symmetry_2
Zn1 N1 1_555 1_555
O1 C12 1_555 1_555
O2 C12 1_555 1_555
N1 C1 1_555 1_555
N2 C2 1_555 1_555
C1 H1 1_555 1_555
C2 C1 1_555 1_555
H2 C2 1_555 1_555
C3 N1 1_555 1_555
C4 C3 1_555 1_555
H3 C4 1_555 1_555
C5 C4 1_555 1_555
H5 C5 1_555 1_555
H7 C5 1_555 1_555
C6 N2 1_555 1_555
C7 C6 1_555 1_555
H8 C7 1_555 1_555
C8 C7 1_555 1_555
H9 C8 1_555 1_555
C9 C8 1_555 1_555
C10 C9 1_555 1_555
H10 C10 1_555 1_555
C11 C6 1_555 1_555
H11 C11 1_555 1_555
C12 C9 1_555 1_555
Zn3 O2 1_555 1_555
N2 C3 1_555 1_555
C10 C11 1_555 1_555
O6 C24 1_555 1_555
N3 Zn3 1_555 1_555
N4 C14 1_555 1_555
C13 N3 1_555 1_555
C14 C13 1_555 1_555
H13 C14 1_555 1_555
C15 N3 1_555 1_555
C16 C15 1_555 1_555
H14 C16 1_555 1_555
H15_2 C16 1_555 1_555
C17 C16 1_555 1_555
H16 C17 1_555 1_555
H17_2 C17 1_555 1_555
H18 C17 1_555 1_555
C18 N4 1_555 1_555
C19 C18 1_555 1_555
H19 C19 1_555 1_555
C20 C19 1_555 1_555
C21 C20 1_555 1_555
C22 C21 1_555 1_555
H21 C22 1_555 1_555
C23 C18 1_555 1_555
H22 C23 1_555 1_555
C24 C21 1_555 1_555
N4 C15 1_555 1_555
C22 C23 1_555 1_555
O3 C24_2 1_555 1_555
O4 C24_2 1_555 1_555
N3_2 Zn1_2 1_555 1_555
N4_2 C14_2 1_555 1_555
C13_2 N3_2 1_555 1_555
H12 C13_2 1_555 1_555
C14_2 C13_2 1_555 1_555
H13_2 C14_2 1_555 1_555
C15_2 N3_2 1_555 1_555
C16_2 C15_2 1_555 1_555
H14_2 C16_2 1_555 1_555
C17_2 C16_2 1_555 1_555
H16_2 C17_2 1_555 1_555
H18_2 C17_2 1_555 1_555
C18_2 N4_2 1_555 1_555
C19_2 C18_2 1_555 1_555
H19_2 C19_2 1_555 1_555
C20_2 C19_2 1_555 1_555
H20 C20_2 1_555 1_555
C21_2 C20_2 1_555 1_555
C22_2 C21_2 1_555 1_555
H21_2 C22_2 1_555 1_555
C23_2 C18_2 1_555 1_555
H22_2 C23_2 1_555 1_555
C24_2 C21_2 1_555 1_555
Zn3_2 O4 1_555 1_555
N4_2 C15_2 1_555 1_555
C22_2 C23_2 1_555 1_555
Zn3_2 N1_2 1_555 1_555
O5 C12_2 1_555 1_555
N1_2 C1_2 1_555 1_555
N2_2 C2_2 1_555 1_555
C2_2 C1_2 1_555 1_555
H2_2 C2_2 1_555 1_555
C3_2 N1_2 1_555 1_555
C4_2 C3_2 1_555 1_555
H3_2 C4_2 1_555 1_555
H4_2 C4_2 1_555 1_555
C5_2 C4_2 1_555 1_555
H5_2 C5_2 1_555 1_555
H6_2 C5_2 1_555 1_555
H7_2 C5_2 1_555 1_555
C6_2 N2_2 1_555 1_555
C7_2 C6_2 1_555 1_555
H8_2 C7_2 1_555 1_555
C8_2 C7_2 1_555 1_555
C9_2 C8_2 1_555 1_555
C10_2 C9_2 1_555 1_555
H10_2 C10_2 1_555 1_555
C11_2 C6_2 1_555 1_555
H11_2 C11_2 1_555 1_555
C12_2 C9_2 1_555 1_555
N2_2 C3_2 1_555 1_555
C10_2 C11_2 1_555 1_555
O3_3 C24_3 1_555 1_555
O4_2 C24_3 1_555 1_555
N3_3 Zn1_3 1_555 1_555
N4_3 C14_3 1_555 1_555
C13_3 N3_3 1_555 1_555
H12_3 C13_3 1_555 1_555
C14_3 C13_3 1_555 1_555
H13_3 C14_3 1_555 1_555
C15_3 N3_3 1_555 1_555
C16_3 C15_3 1_555 1_555
H14_3 C16_3 1_555 1_555
C17_3 C16_3 1_555 1_555
H16_3 C17_3 1_555 1_555
H18_3 C17_3 1_555 1_555
C18_3 N4_3 1_555 1_555
C19_3 C18_3 1_555 1_555
H19_3 C19_3 1_555 1_555
C20_3 C19_3 1_555 1_555
H20_3 C20_3 1_555 1_555
C21_3 C20_3 1_555 1_555
C22_3 C21_3 1_555 1_555
H21_3 C22_3 1_555 1_555
C23_3 C18_3 1_555 1_555
H22_3 C23_3 1_555 1_555
C24_3 C21_3 1_555 1_555
Zn3_3 O4_2 1_555 1_555
N4_3 C15_3 1_555 1_555
C22_3 C23_3 1_555 1_555
Zn3_3 N1_3 1_555 1_555
O5_2 C12_3 1_555 1_555
N1_3 C1_3 1_555 1_555
N2_3 C2_3 1_555 1_555
C2_3 C1_3 1_555 1_555
H2_3 C2_3 1_555 1_555
C3_3 N1_3 1_555 1_555
C4_3 C3_3 1_555 1_555
H3_3 C4_3 1_555 1_555
H4_4 C4_3 1_555 1_555
C5_3 C4_3 1_555 1_555
H5_3 C5_3 1_555 1_555
H6_4 C5_3 1_555 1_555
H7_3 C5_3 1_555 1_555
C6_3 N2_3 1_555 1_555
C7_3 C6_3 1_555 1_555
H8_3 C7_3 1_555 1_555
C8_3 C7_3 1_555 1_555
C9_3 C8_3 1_555 1_555
C10_3 C9_3 1_555 1_555
H10_3 C10_3 1_555 1_555
C11_3 C6_3 1_555 1_555
H11_3 C11_3 1_555 1_555
C12_3 C9_3 1_555 1_555
N2_3 C3_3 1_555 1_555
C10_3 C11_3 1_555 1_555
Zn1_4 N1_4 1_555 1_555
O1_3 C12_4 1_555 1_555
O2_2 C12_4 1_555 1_555
N1_4 C1_4 1_555 1_555
N2_4 C2_4 1_555 1_555
C1_4 H1_3 1_555 1_555
C2_4 C1_4 1_555 1_555
H2_4 C2_4 1_555 1_555
C3_4 N1_4 1_555 1_555
C4_4 C3_4 1_555 1_555
H3_4 C4_4 1_555 1_555
C5_4 C4_4 1_555 1_555
H5_4 C5_4 1_555 1_555
H7_4 C5_4 1_555 1_555
C6_4 N2_4 1_555 1_555
C7_4 C6_4 1_555 1_555
H8_4 C7_4 1_555 1_555
C8_4 C7_4 1_555 1_555
H9_3 C8_4 1_555 1_555
C9_4 C8_4 1_555 1_555
C10_4 C9_4 1_555 1_555
H10_4 C10_4 1_555 1_555
C11_4 C6_4 1_555 1_555
H11_4 C11_4 1_555 1_555
C12_4 C9_4 1_555 1_555
Zn3_4 O2_2 1_555 1_555
N2_4 C3_4 1_555 1_555
C10_4 C11_4 1_555 1_555
O6_2 C24_4 1_555 1_555
N3_4 Zn3_4 1_555 1_555
N4_4 C14_4 1_555 1_555
C13_4 N3_4 1_555 1_555
C14_4 C13_4 1_555 1_555
H13_4 C14_4 1_555 1_555
C15_4 N3_4 1_555 1_555
C16_4 C15_4 1_555 1_555
H14_4 C16_4 1_555 1_555
H15_4 C16_4 1_555 1_555
C17_4 C16_4 1_555 1_555
H16_4 C17_4 1_555 1_555
H17_4 C17_4 1_555 1_555
H18_4 C17_4 1_555 1_555
C18_4 N4_4 1_555 1_555
C19_4 C18_4 1_555 1_555
H19_4 C19_4 1_555 1_555
C20_4 C19_4 1_555 1_555
C21_4 C20_4 1_555 1_555
C22_4 C21_4 1_555 1_555
H21_4 C22_4 1_555 1_555
C23_4 C18_4 1_555 1_555
H22_4 C23_4 1_555 1_555
C24_4 C21_4 1_555 1_555
N4_4 C15_4 1_555 1_555
C22_4 C23_4 1_555 1_555

#END
