
###############################################################################
#
# This file contains modified crystal structure data generated from the
# MOF subset of the Cambridge Structural Database (CSD) v543 
# hosted by the Cambridge Crystallographic Data Centre (CCDC).
#
# This work is licensed under the Creative Commons
# Attribution-NonCommercial-ShareAlike 4.0 International License.
# To view a copy of this license, visit
# http://creativecommons.org/licenses/by-nc-sa/4.0/
# or send a letter to
# Creative Commons, PO Box 1866, Mountain View, CA 94042, USA.
#
# CIF created using the CSD Python API on 29 September 2022
# The structure has been converted into the P1 space group
# The structure has a 3D framework
# The original CSD entry OQOCEF is in the monoclinic crystal system
# The framework has been calculated to contain at least 10.0% void space
# The void calculation uses a probe of radius 1.32A, grid spacing 0.4
# The framework is charged, counterions have been retained in the structure
#
###############################################################################

data_OQOCEF
_chemical_formula_moiety         '(C48 H32 Lu4 N12 O36)n'
_symmetry_cell_setting           triclinic
_symmetry_space_group_name_H-M   'P 1'
_symmetry_Int_Tables_number      1
_space_group_name_Hall           'P 1'
loop_
_symmetry_equiv_pos_site_id
_symmetry_equiv_pos_as_xyz
1 x,y,z
_cell_length_a                   10.0313(4)
_cell_length_b                   16.9997(6)
_cell_length_c                   11.1179(6)
_cell_angle_alpha                90
_cell_angle_beta                 109.019(5)
_cell_angle_gamma                90
_cell_volume                     1792.43
loop_
_atom_site_label
_atom_site_type_symbol
_atom_site_fract_x
_atom_site_fract_y
_atom_site_fract_z
Lu4 Lu 0.01199(3) 0.995395(14) 0.68264(3)
N1 N 0.0518(5) 0.3696(3) 0.6216(6)
O9 O 0.0816(4) 0.4405(2) 0.6739(5)
C9 C 0.1026(7) 0.3045(3) 0.6923(7)
H5 H 0.1588 0.3094 0.7770
C10 C 0.0707(7) 0.2318(4) 0.6386(7)
H6 H 0.1034 0.1873 0.6880
Lu2 Lu 0.98801(3) 0.004605(14) 0.31736(3)
O12 O 0.2065(4) 0.0500(2) 0.4497(4)
O13 O 0.0816(4) 0.0595(2) 0.1739(5)
O1 O 0.1452(4) 0.9128(2) 0.2832(4)
O3 O 0.7741(5) 0.9830(2) 0.3490(5)
O7 O 0.7935(4) 0.9500(2) 0.5503(4)
C1 C 0.5711(7) 0.9402(3) 0.3906(7)
N2 N 0.2839(5) 0.9203(3) 0.3172(5)
C2 C 0.5085(7) 0.9025(3) 0.4681(7)
H1 H 0.5644 0.8837 0.5469
C3 C 0.3651(7) 0.8924(3) 0.4308(7)
H2 H 0.3242 0.8664 0.4836
C5 C 0.7265(6) 0.9585(3) 0.4329(7)
C6 C 0.3414(7) 0.9552(3) 0.2360(7)
H4 H 0.2841 0.9727 0.1568
C11 C 0.4853(7) 0.9645(4) 0.2721(7)
H7 H 0.5253 0.9874 0.2161
O11 O 0.0254(4) 0.9160(2) 0.4779(4)
O2 O 0.9324(4) 0.1380(2) 0.3336(5)
O5 O 0.9746(4) 0.0840(2) 0.5221(4)
O6 O 0.7879(5) 0.0316(2) 0.1188(5)
C4 C 0.9419(7) 0.2907(3) 0.4415(7)
H3 H 0.8893 0.2872 0.3557
C7 C 0.9623(6) 0.1439(3) 0.4519(7)
C8 C 0.9905(6) 0.2234(4) 0.5119(7)
C12 C 0.9720(6) 0.3625(4) 0.4991(6)
H8 H 0.9362 0.4075 0.4522
Lu5 Lu 0.98801(3) 0.495395(14) 0.81736(3)
O4 O 0.8586(5) 0.9122(2) 0.1614(5)
O8 O 0.6676(5) 0.9367(3) 0.0021(5)
N3 N 0.7674(6) 0.9595(3) 0.0910(6)
Lu1 Lu 0.01199(3) 0.504605(14) 0.18264(3)
O2_2 O 0.0676(4) 0.6380(2) 0.1664(5)
O4_2 O 0.1414(5) 0.4122(2) 0.3386(5)
O6_2 O 0.2121(5) 0.5316(2) 0.3812(5)
O8_2 O 0.3324(5) 0.4367(3) 0.4979(5)
C4_2 C 0.0581(7) 0.7907(3) 0.0585(7)
H3_2 H 0.1107 0.7872 0.1443
C7_2 C 0.0377(6) 0.6439(3) 0.0481(7)
N3_2 N 0.2326(6) 0.4595(3) 0.4090(6)
C12_2 C 0.0280(6) 0.8625(4) 0.0009(6)
H8_2 H 0.0638 0.9075 0.0478
O10 O 0.2259(5) 0.4830(2) 0.1510(5)
O5_2 O 0.0254(4) 0.5840(2) 0.9779(4)
C8_2 C 0.0095(6) 0.7234(4) 0.9881(7)
O1_2 O 0.8548(4) 0.4128(2) 0.2168(4)
C1_2 C 0.4289(7) 0.4402(3) 0.1094(7)
N2_2 N 0.7161(5) 0.4203(3) 0.1828(5)
C2_2 C 0.4915(7) 0.4025(3) 0.0319(7)
C3_2 C 0.6349(7) 0.3924(3) 0.0692(7)
H2_2 H 0.6758 0.3664 0.0164
C5_2 C 0.2735(6) 0.4585(3) 0.0671(7)
C6_2 C 0.6586(7) 0.4552(3) 0.2640(7)
H4_2 H 0.7159 0.4727 0.3432
C11_2 C 0.5147(7) 0.4645(4) 0.2279(7)
H7_2 H 0.4747 0.4874 0.2839
O11_2 O 0.9746(4) 0.4160(2) 0.0221(4)
O12_2 O 0.7935(4) 0.5500(2) 0.0503(4)
O13_2 O 0.9184(4) 0.5595(2) 0.3261(5)
O7_2 O 0.2065(4) 0.4500(2) 0.9497(4)
N1_2 N 0.9482(5) 0.8696(3) 0.8784(6)
H1_2 H 0.4356 0.3837 0.9531
O9_2 O 0.9184(4) 0.9405(2) 0.8261(5)
C9_2 C 0.8974(7) 0.8045(3) 0.8077(7)
H5_2 H 0.8412 0.8094 0.7230
C10_2 C 0.9293(7) 0.7318(4) 0.8614(7)
H6_2 H 0.8966 0.6873 0.8120
O4_3 O 0.1414(5) 0.0878(2) 0.8386(5)
O8_3 O 0.3324(5) 0.0633(3) 0.9979(5)
N3_3 N 0.2326(6) 0.0405(3) 0.9090(6)
O10_2 O 0.2259(5) 0.0170(2) 0.6510(5)
O2_3 O 0.0676(4) 0.8620(2) 0.6664(5)
O6_3 O 0.2121(5) 0.9684(2) 0.8812(5)
C4_3 C 0.0581(7) 0.7093(3) 0.5585(7)
H3_3 H 0.1107 0.7128 0.6443
C7_3 C 0.0377(6) 0.8561(3) 0.5481(7)
C8_3 C 0.0095(6) 0.7766(4) 0.4881(7)
C12_3 C 0.0280(6) 0.6375(4) 0.5009(6)
H8_3 H 0.0638 0.5925 0.5478
O1_3 O 0.8548(4) 0.0872(2) 0.7168(4)
C1_3 C 0.4289(7) 0.0598(3) 0.6094(7)
N2_3 N 0.7161(5) 0.0797(3) 0.6828(5)
C2_3 C 0.4915(7) 0.0975(3) 0.5319(7)
H1_3 H 0.4356 0.1163 0.4531
C3_3 C 0.6349(7) 0.1076(3) 0.5692(7)
H2_3 H 0.6758 0.1336 0.5164
C5_3 C 0.2735(6) 0.0415(3) 0.5671(7)
C6_3 C 0.6586(7) 0.0448(3) 0.7640(7)
H4_3 H 0.7159 0.0273 0.8432
C11_3 C 0.5147(7) 0.0355(4) 0.7279(7)
H7_3 H 0.4747 0.0126 0.7839
N1_3 N 0.9482(5) 0.6304(3) 0.3784(6)
C9_3 C 0.8974(7) 0.6955(3) 0.3077(7)
H5_3 H 0.8412 0.6906 0.2230
C10_3 C 0.9293(7) 0.7682(4) 0.3614(7)
H6_3 H 0.8966 0.8127 0.3120
N1_4 N 0.0518(5) 0.1304(3) 0.1216(6)
H1_4 H 0.5644 0.6163 0.0469
C9_4 C 0.1026(7) 0.1955(3) 0.1923(7)
H5_4 H 0.1588 0.1906 0.2770
C10_4 C 0.0707(7) 0.2682(4) 0.1386(7)
H6_4 H 0.1034 0.3127 0.1880
O1_4 O 0.1452(4) 0.5872(2) 0.7832(4)
O3_2 O 0.7741(5) 0.5170(2) 0.8490(5)
C1_4 C 0.5711(7) 0.5598(3) 0.8906(7)
N2_4 N 0.2839(5) 0.5797(3) 0.8172(5)
C2_4 C 0.5085(7) 0.5975(3) 0.9681(7)
C3_4 C 0.3651(7) 0.6076(3) 0.9308(7)
H2_4 H 0.3242 0.6336 0.9836
C5_4 C 0.7265(6) 0.5415(3) 0.9329(7)
C6_4 C 0.3414(7) 0.5448(3) 0.7360(7)
H4_4 H 0.2841 0.5273 0.6568
C11_4 C 0.4853(7) 0.5355(4) 0.7721(7)
H7_4 H 0.5253 0.5126 0.7161
C8_4 C 0.9905(6) 0.2766(4) 0.0119(7)
O2_4 O 0.9324(4) 0.3620(2) 0.8336(5)
O4_4 O 0.8586(5) 0.5878(2) 0.6614(5)
O6_4 O 0.7879(5) 0.4684(2) 0.6188(5)
O8_4 O 0.6676(5) 0.5633(3) 0.5021(5)
C4_4 C 0.9419(7) 0.2093(3) 0.9415(7)
H3_4 H 0.8893 0.2128 0.8557
C7_4 C 0.9623(6) 0.3561(3) 0.9519(7)
N3_4 N 0.7674(6) 0.5405(3) 0.5910(6)
C12_4 C 0.9720(6) 0.1375(4) 0.9991(6)
H8_4 H 0.9362 0.0925 0.9522
loop_
_geom_bond_atom_site_label_1
_geom_bond_atom_site_label_2
_geom_bond_site_symmetry_1
_geom_bond_site_symmetry_2
N1 O9 1_555 1_555
C9 N1 1_555 1_555
H5 C9 1_555 1_555
H6 C10 1_555 1_555
C9 C10 1_555 1_555
O1 N2 1_555 1_555
O3 C5 1_555 1_555
O7 C5 1_555 1_555
C1 C2 1_555 1_555
N2 C3 1_555 1_555
C2 H1 1_555 1_555
C3 C2 1_555 1_555
H2 C3 1_555 1_555
C5 C1 1_555 1_555
C6 N2 1_555 1_555
H4 C6 1_555 1_555
C11 C1 1_555 1_555
H7 C11 1_555 1_555
C6 C11 1_555 1_555
Lu4 O11 1_555 1_555
O2 Lu2 1_555 1_555
O5 Lu2 1_555 1_555
O6 Lu2 1_555 1_555
C4 H3 1_555 1_555
C7 O2 1_555 1_555
C8 C4 1_555 1_555
H8 C12 1_555 1_555
O5 C7 1_555 1_555
C4 C12 1_555 1_555
C7 C8 1_555 1_555
O8 N3 1_555 1_555
N3 O4 1_555 1_555
O2_2 Lu1 1_555 1_555
O4_2 Lu1 1_555 1_555
O6_2 Lu1 1_555 1_555
O8_2 N3_2 1_555 1_555
C4_2 H3_2 1_555 1_555
C7_2 O2_2 1_555 1_555
N3_2 O4_2 1_555 1_555
H8_2 C12_2 1_555 1_555
O10 Lu1 1_555 1_555
O6_2 N3_2 1_555 1_555
C4_2 C12_2 1_555 1_555
O1_2 N2_2 1_555 1_555
O10 C5_2 1_555 1_555
C1_2 C2_2 1_555 1_555
N2_2 C3_2 1_555 1_555
C3_2 C2_2 1_555 1_555
H2_2 C3_2 1_555 1_555
C5_2 C1_2 1_555 1_555
C6_2 N2_2 1_555 1_555
H4_2 C6_2 1_555 1_555
C11_2 C1_2 1_555 1_555
H7_2 C11_2 1_555 1_555
C6_2 C11_2 1_555 1_555
N1_2 O9_2 1_555 1_555
C9_2 N1_2 1_555 1_555
H5_2 C9_2 1_555 1_555
H6_2 C10_2 1_555 1_555
C9_2 C10_2 1_555 1_555
O8_3 N3_3 1_555 1_555
N3_3 O4_3 1_555 1_555
O2_3 Lu4 1_555 1_555
O6_3 Lu4 1_555 1_555
C4_3 H3_3 1_555 1_555
C7_3 O2_3 1_555 1_555
C8_3 C4_3 1_555 1_555
H8_3 C12_3 1_555 1_555
O11 C7_3 1_555 1_555
C4_3 C12_3 1_555 1_555
C7_3 C8_3 1_555 1_555
O1_3 N2_3 1_555 1_555
O10_2 C5_3 1_555 1_555
O12 C5_3 1_555 1_555
C1_3 C2_3 1_555 1_555
N2_3 C3_3 1_555 1_555
C2_3 H1_3 1_555 1_555
C3_3 C2_3 1_555 1_555
H2_3 C3_3 1_555 1_555
C5_3 C1_3 1_555 1_555
C6_3 N2_3 1_555 1_555
H4_3 C6_3 1_555 1_555
C11_3 C1_3 1_555 1_555
H7_3 C11_3 1_555 1_555
C6_3 C11_3 1_555 1_555
N1_3 O13_2 1_555 1_555
C9_3 N1_3 1_555 1_555
H5_3 C9_3 1_555 1_555
H6_3 C10_3 1_555 1_555
C9_3 C10_3 1_555 1_555
N1_4 O13 1_555 1_555
C9_4 N1_4 1_555 1_555
H5_4 C9_4 1_555 1_555
H6_4 C10_4 1_555 1_555
C9_4 C10_4 1_555 1_555
O1_4 N2_4 1_555 1_555
O3_2 C5_4 1_555 1_555
C1_4 C2_4 1_555 1_555
N2_4 C3_4 1_555 1_555
C3_4 C2_4 1_555 1_555
H2_4 C3_4 1_555 1_555
C5_4 C1_4 1_555 1_555
C6_4 N2_4 1_555 1_555
H4_4 C6_4 1_555 1_555
C11_4 C1_4 1_555 1_555
H7_4 C11_4 1_555 1_555
Lu5 O3_2 1_555 1_555
C6_4 C11_4 1_555 1_555
O2_4 Lu5 1_555 1_555
O4_4 Lu5 1_555 1_555
O6_4 Lu5 1_555 1_555
O8_4 N3_4 1_555 1_555
C4_4 H3_4 1_555 1_555
C7_4 O2_4 1_555 1_555
N3_4 O4_4 1_555 1_555
H8_4 C12_4 1_555 1_555
O6_4 N3_4 1_555 1_555
C4_4 C12_4 1_555 1_555

#END
