
###############################################################################
#
# This file contains modified crystal structure data generated from the
# MOF subset of the Cambridge Structural Database (CSD) v543 
# hosted by the Cambridge Crystallographic Data Centre (CCDC).
#
# This work is licensed under the Creative Commons
# Attribution-NonCommercial-ShareAlike 4.0 International License.
# To view a copy of this license, visit
# http://creativecommons.org/licenses/by-nc-sa/4.0/
# or send a letter to
# Creative Commons, PO Box 1866, Mountain View, CA 94042, USA.
#
# CIF created using the CSD Python API on 29 September 2022
# The structure has been converted into the P1 space group
# The structure has a 3D framework
# The original CSD entry OQOCOP is in the monoclinic crystal system
# The framework has been calculated to contain at least 10.0% void space
# The void calculation uses a probe of radius 1.32A, grid spacing 0.4
#
###############################################################################

data_OQOCOP
_chemical_formula_moiety         '(C48 H32 Lu4 N12 O36)n'
_symmetry_cell_setting           triclinic
_symmetry_space_group_name_H-M   'P 1'
_symmetry_Int_Tables_number      1
_space_group_name_Hall           'P 1'
loop_
_symmetry_equiv_pos_site_id
_symmetry_equiv_pos_as_xyz
1 x,y,z
_cell_length_a                   10.0344(7)
_cell_length_b                   17.3268(9)
_cell_length_c                   11.3146(7)
_cell_angle_alpha                90
_cell_angle_beta                 109.554(8)
_cell_angle_gamma                90
_cell_volume                     1853.75
loop_
_atom_site_label
_atom_site_type_symbol
_atom_site_fract_x
_atom_site_fract_y
_atom_site_fract_z
Lu1 Lu 0.00657(3) 0.006853(15) 0.18207(2)
O4 O 0.0543(4) 0.3644(2) 0.6511(4)
O5 O 0.2016(5) 0.0399(3) 0.3755(4)
O6 O 0.0214(4) 0.4151(2) 0.4646(4)
C1 C 0.0325(6) 0.3580(3) 0.5358(6)
C8 C 0.0068(6) 0.2794(4) 0.4761(5)
C10 C 0.0464(7) 0.2122(4) 0.5490(6)
H6 H 0.0927 0.2156 0.6351
C12 C 0.0162(6) 0.1415(4) 0.4919(5)
H8 H 0.0459 0.0970 0.5393
Lu5 Lu 0.00657(3) 0.493147(15) 0.68207(2)
O12 O 0.0543(4) 0.1356(2) 0.1511(4)
N1 N 0.2299(6) 0.9704(3) 0.4039(5)
O7 O 0.1435(5) 0.9203(2) 0.3395(4)
O9 O 0.3361(5) 0.9516(3) 0.4905(4)
O10 O 0.2223(5) 0.9906(2) 0.1520(4)
O8 O 0.9117(4) 0.0661(2) 0.3181(4)
C7 C 0.9014(7) 0.2000(4) 0.2975(6)
H5 H 0.8496 0.1948 0.2127
C11 C 0.9327(7) 0.2715(4) 0.3481(5)
H7 H 0.9050 0.3150 0.2977
N3 N 0.9448(5) 0.1356(3) 0.3691(4)
Lu3 Lu 0.99343(3) 0.506853(15) 0.31793(2)
O11 O 0.7933(4) 0.0449(2) 0.0429(4)
O1 O 0.8559(4) 0.9187(2) 0.2284(4)
C2 C 0.4289(6) 0.9476(4) 0.1179(5)
C3 C 0.5149(7) 0.9715(4) 0.2352(6)
H1 H 0.4754 0.9944 0.2901
C4 C 0.4899(6) 0.9097(4) 0.0416(6)
C5 C 0.6580(7) 0.9616(4) 0.2705(6)
H3 H 0.7156 0.9790 0.3486
N2 N 0.7161(5) 0.9270(3) 0.1938(4)
C6 C 0.6360(6) 0.8983(4) 0.0804(5)
H4 H 0.6774 0.8718 0.0301
C9 C 0.2728(6) 0.9647(4) 0.0721(5)
O13 O 0.9786(4) 0.9151(2) 0.0354(4)
O3 O 0.2067(4) 0.9551(2) 0.9571(4)
H2 H 0.4332 0.8917 0.9636
Lu4 Lu 0.99343(3) 0.993147(15) 0.81793(2)
O1_2 O 0.1441(4) 0.4187(2) 0.2716(4)
O2 O 0.7777(5) 0.4906(2) 0.3480(4)
O3_2 O 0.7933(4) 0.4551(2) 0.5429(4)
O8_2 O 0.0883(4) 0.5661(2) 0.1819(4)
C2_2 C 0.5711(6) 0.4476(4) 0.3821(5)
C3_2 C 0.4851(7) 0.4715(4) 0.2648(6)
H1_2 H 0.5246 0.4944 0.2099
C4_2 C 0.5101(6) 0.4097(4) 0.4584(6)
H2_2 H 0.5668 0.3917 0.5364
C5_2 C 0.3420(7) 0.4616(4) 0.2295(6)
H3_2 H 0.2844 0.4790 0.1514
N2_2 N 0.2839(5) 0.4270(3) 0.3062(4)
C6_2 C 0.3640(6) 0.3983(4) 0.4196(5)
H4_2 H 0.3226 0.3718 0.4699
C7_2 C 0.0986(7) 0.7000(4) 0.2025(6)
H5_2 H 0.1504 0.6948 0.2873
C9_2 C 0.7272(6) 0.4647(4) 0.4279(5)
C11_2 C 0.0673(7) 0.7715(4) 0.1519(5)
H7_2 H 0.0950 0.8150 0.2023
N3_2 N 0.0552(5) 0.6356(3) 0.1309(4)
O11_2 O 0.2067(4) 0.5449(2) 0.4571(4)
N1_2 N 0.7701(6) 0.4704(3) 0.0961(5)
O5_2 O 0.7984(5) 0.5399(3) 0.1245(4)
O7_2 O 0.8565(5) 0.4203(2) 0.1605(4)
O9_2 O 0.6639(5) 0.4516(3) 0.0095(4)
C8_2 C 0.9932(6) 0.7794(4) 0.0239(5)
C12_2 C 0.9838(6) 0.6415(4) 0.0081(5)
O12_2 O 0.9457(4) 0.6356(2) 0.3489(4)
O4_2 O 0.9457(4) 0.8644(2) 0.8489(4)
C1_2 C 0.9675(6) 0.8580(3) 0.9642(6)
C10_2 C 0.9536(7) 0.7122(4) 0.9510(6)
H6_2 H 0.9073 0.7156 0.8649
H8_2 H 0.9541 0.5970 0.9607
H2_3 H 0.5668 0.1083 0.0364
O1_3 O 0.1441(4) 0.0813(2) 0.7716(4)
O2_2 O 0.7777(5) 0.0094(2) 0.8480(4)
C2_3 C 0.5711(6) 0.0524(4) 0.8821(5)
C3_3 C 0.4851(7) 0.0285(4) 0.7648(6)
H1_3 H 0.5246 0.0056 0.7099
C4_3 C 0.5101(6) 0.0903(4) 0.9584(6)
C5_3 C 0.3420(7) 0.0384(4) 0.7295(6)
H3_3 H 0.2844 0.0210 0.6514
N2_3 N 0.2839(5) 0.0730(3) 0.8062(4)
C6_3 C 0.3640(6) 0.1017(4) 0.9196(5)
H4_3 H 0.3226 0.1282 0.9699
C9_3 C 0.7272(6) 0.0353(4) 0.9279(5)
O13_2 O 0.0214(4) 0.0849(2) 0.9646(4)
O8_3 O 0.0883(4) 0.9339(2) 0.6819(4)
C7_3 C 0.0986(7) 0.8000(4) 0.7025(6)
H5_3 H 0.1504 0.8052 0.7873
C11_3 C 0.0673(7) 0.7285(4) 0.6519(5)
H7_3 H 0.0950 0.6850 0.7023
N3_3 N 0.0552(5) 0.8644(3) 0.6309(4)
N1_3 N 0.7701(6) 0.0296(3) 0.5961(5)
O7_3 O 0.8565(5) 0.0797(2) 0.6605(4)
O9_3 O 0.6639(5) 0.0484(3) 0.5095(4)
O5_3 O 0.7984(5) 0.9601(3) 0.6245(4)
O6_2 O 0.9786(4) 0.5849(2) 0.5354(4)
C1_3 C 0.9675(6) 0.6420(3) 0.4642(6)
C8_3 C 0.9932(6) 0.7206(4) 0.5239(5)
C10_3 C 0.9536(7) 0.7878(4) 0.4510(6)
H6_3 H 0.9073 0.7844 0.3649
C12_3 C 0.9838(6) 0.8585(4) 0.5081(5)
H8_3 H 0.9541 0.9030 0.4607
C1_4 C 0.0325(6) 0.1420(3) 0.0358(6)
C10_4 C 0.0464(7) 0.2878(4) 0.0490(6)
H6_4 H 0.0927 0.2844 0.1351
H8_4 H 0.0459 0.4030 0.0393
N1_4 N 0.2299(6) 0.5296(3) 0.9039(5)
O5_4 O 0.2016(5) 0.4601(3) 0.8755(4)
O7_4 O 0.1435(5) 0.5797(2) 0.8395(4)
O9_4 O 0.3361(5) 0.5484(3) 0.9905(4)
C8_4 C 0.0068(6) 0.2206(4) 0.9761(5)
C12_4 C 0.0162(6) 0.3585(4) 0.9919(5)
O10_2 O 0.2223(5) 0.5094(2) 0.6520(4)
O1_4 O 0.8559(4) 0.5813(2) 0.7284(4)
O8_4 O 0.9117(4) 0.4339(2) 0.8181(4)
C2_4 C 0.4289(6) 0.5524(4) 0.6179(5)
C3_4 C 0.5149(7) 0.5285(4) 0.7352(6)
H1_4 H 0.4754 0.5056 0.7901
C4_4 C 0.4899(6) 0.5903(4) 0.5416(6)
H2_4 H 0.4332 0.6083 0.4636
C5_4 C 0.6580(7) 0.5384(4) 0.7705(6)
H3_4 H 0.7156 0.5210 0.8486
N2_4 N 0.7161(5) 0.5730(3) 0.6938(4)
C6_4 C 0.6360(6) 0.6017(4) 0.5804(5)
H4_4 H 0.6774 0.6282 0.5301
C7_4 C 0.9014(7) 0.3000(4) 0.7975(6)
H5_4 H 0.8496 0.3052 0.7127
C9_4 C 0.2728(6) 0.5353(4) 0.5721(5)
C11_4 C 0.9327(7) 0.2285(4) 0.8481(5)
H7_4 H 0.9050 0.1850 0.7977
N3_4 N 0.9448(5) 0.3644(3) 0.8691(4)
loop_
_geom_bond_atom_site_label_1
_geom_bond_atom_site_label_2
_geom_bond_site_symmetry_1
_geom_bond_site_symmetry_2
O4 C1 1_555 1_555
O5 Lu1 1_555 1_555
O6 C1 1_555 1_555
C1 C8 1_555 1_555
C8 C10 1_555 1_555
C10 H6 1_555 1_555
C12 C10 1_555 1_555
H8 C12 1_555 1_555
Lu5 O4 1_555 1_555
O12 Lu1 1_555 1_555
O9 N1 1_555 1_555
N1 O7 1_555 1_555
C7 H5 1_555 1_555
C11 C7 1_555 1_555
H7 C11 1_555 1_555
N3 O8 1_555 1_555
C7 N3 1_555 1_555
O1 N2 1_555 1_555
O10 C9 1_555 1_555
C2 C3 1_555 1_555
C3 H1 1_555 1_555
C4 C2 1_555 1_555
C5 C3 1_555 1_555
H3 C5 1_555 1_555
N2 C5 1_555 1_555
C6 C4 1_555 1_555
H4 C6 1_555 1_555
C9 C2 1_555 1_555
N2 C6 1_555 1_555
O1_2 N2_2 1_555 1_555
O2 C9_2 1_555 1_555
O3_2 C9_2 1_555 1_555
C2_2 C3_2 1_555 1_555
C3_2 H1_2 1_555 1_555
C4_2 C2_2 1_555 1_555
H2_2 C4_2 1_555 1_555
C5_2 C3_2 1_555 1_555
H3_2 C5_2 1_555 1_555
N2_2 C5_2 1_555 1_555
C6_2 C4_2 1_555 1_555
H4_2 C6_2 1_555 1_555
C7_2 H5_2 1_555 1_555
C9_2 C2_2 1_555 1_555
C11_2 C7_2 1_555 1_555
H7_2 C11_2 1_555 1_555
N3_2 O8_2 1_555 1_555
Lu3 O2 1_555 1_555
N2_2 C6_2 1_555 1_555
C7_2 N3_2 1_555 1_555
N1_2 O5_2 1_555 1_555
O5_2 Lu3 1_555 1_555
O7_2 Lu3 1_555 1_555
O9_2 N1_2 1_555 1_555
O12_2 Lu3 1_555 1_555
N1_2 O7_2 1_555 1_555
O4_2 C1_2 1_555 1_555
C10_2 H6_2 1_555 1_555
Lu4 O4_2 1_555 1_555
O1_3 N2_3 1_555 1_555
O2_2 C9_3 1_555 1_555
C2_3 C3_3 1_555 1_555
C3_3 H1_3 1_555 1_555
C4_3 C2_3 1_555 1_555
C5_3 C3_3 1_555 1_555
H3_3 C5_3 1_555 1_555
N2_3 C5_3 1_555 1_555
C6_3 C4_3 1_555 1_555
H4_3 C6_3 1_555 1_555
C9_3 C2_3 1_555 1_555
N2_3 C6_3 1_555 1_555
C7_3 H5_3 1_555 1_555
C11_3 C7_3 1_555 1_555
H7_3 C11_3 1_555 1_555
N3_3 O8_3 1_555 1_555
C7_3 N3_3 1_555 1_555
O9_3 N1_3 1_555 1_555
N1_3 O7_3 1_555 1_555
O12_2 C1_3 1_555 1_555
O5_3 Lu4 1_555 1_555
O6_2 C1_3 1_555 1_555
C1_3 C8_3 1_555 1_555
C8_3 C10_3 1_555 1_555
C10_3 H6_3 1_555 1_555
C12_3 C10_3 1_555 1_555
H8_3 C12_3 1_555 1_555
O12 C1_4 1_555 1_555
C10_4 H6_4 1_555 1_555
N1_4 O5_4 1_555 1_555
O5_4 Lu5 1_555 1_555
O7_4 Lu5 1_555 1_555
O9_4 N1_4 1_555 1_555
O10_2 Lu5 1_555 1_555
N1_4 O7_4 1_555 1_555
O1_4 N2_4 1_555 1_555
O10_2 C9_4 1_555 1_555
O11_2 C9_4 1_555 1_555
C2_4 C3_4 1_555 1_555
C3_4 H1_4 1_555 1_555
C4_4 C2_4 1_555 1_555
H2_4 C4_4 1_555 1_555
C5_4 C3_4 1_555 1_555
H3_4 C5_4 1_555 1_555
N2_4 C5_4 1_555 1_555
C6_4 C4_4 1_555 1_555
H4_4 C6_4 1_555 1_555
C7_4 H5_4 1_555 1_555
C9_4 C2_4 1_555 1_555
C11_4 C7_4 1_555 1_555
H7_4 C11_4 1_555 1_555
N3_4 O8_4 1_555 1_555
N2_4 C6_4 1_555 1_555
C7_4 N3_4 1_555 1_555

#END
