
###############################################################################
#
# This file contains modified crystal structure data generated from the
# MOF subset of the Cambridge Structural Database (CSD) v543 
# hosted by the Cambridge Crystallographic Data Centre (CCDC).
#
# This work is licensed under the Creative Commons
# Attribution-NonCommercial-ShareAlike 4.0 International License.
# To view a copy of this license, visit
# http://creativecommons.org/licenses/by-nc-sa/4.0/
# or send a letter to
# Creative Commons, PO Box 1866, Mountain View, CA 94042, USA.
#
# CIF created using the CSD Python API on 29 September 2022
# The structure has been converted into the P1 space group
# The structure has a 3D framework
# The original CSD entry OQOCIJ is in the monoclinic crystal system
# The framework has been calculated to contain at least 10.0% void space
# The void calculation uses a probe of radius 1.32A, grid spacing 0.4
#
###############################################################################

data_OQOCIJ
_chemical_formula_moiety         '(C48 H32 N12 Nd4 O32)n'
_symmetry_cell_setting           triclinic
_symmetry_space_group_name_H-M   'P 1'
_symmetry_Int_Tables_number      1
_space_group_name_Hall           'P 1'
loop_
_symmetry_equiv_pos_site_id
_symmetry_equiv_pos_as_xyz
1 x,y,z
_cell_length_a                   10.2441(4)
_cell_length_b                   17.1637(5)
_cell_length_c                   11.2495(3)
_cell_angle_alpha                90
_cell_angle_beta                 109.322(4)
_cell_angle_gamma                90
_cell_volume                     1866.55
loop_
_atom_site_label
_atom_site_type_symbol
_atom_site_fract_x
_atom_site_fract_y
_atom_site_fract_z
O2 O 0.2688(5) 0.0236(3) 0.3485(5)
O7 O 0.2872(5) 0.0507(3) 0.5481(4)
C2 C 0.0678(7) 0.0613(4) 0.3885(6)
C3 C 0.0081(8) 0.0977(4) 0.4677(7)
H2 H 0.0635 0.1154 0.5464
C5 C 0.2207(7) 0.0442(4) 0.4318(7)
H5 H 0.0219 0.0149 0.2151
Nd4 Nd 0.51346(4) 0.00312(2) 0.68523(3)
Nd2 Nd 0.48654(4) 0.99688(2) 0.31477(3)
O1 O 0.6498(5) 0.0895(3) 0.2836(4)
N2 N 0.7874(6) 0.0810(3) 0.3159(5)
O4 O 0.3518(5) 0.0950(3) 0.1524(5)
C1 C 0.8669(7) 0.1080(4) 0.4303(7)
H1 H 0.8266 0.1330 0.4828
C6 C 0.8423(7) 0.0471(5) 0.2379(7)
H4 H 0.7851 0.0296 0.1598
N3 N 0.2630(7) 0.0469(4) 0.0815(6)
C7 C 0.9837(8) 0.0374(5) 0.2713(7)
O12 O 0.5305(5) 0.0863(3) 0.4905(4)
N1 N 0.5537(6) 0.8681(4) 0.1195(5)
O3 O 0.2874(6) 0.9749(3) 0.1064(5)
O6 O 0.4695(5) 0.5863(3) 0.0095(4)
O8 O 0.5863(5) 0.9379(3) 0.1702(4)
C4 C 0.6049(8) 0.8030(4) 0.1850(6)
H3 H 0.6626 0.8072 0.2682
C8 C 0.4888(7) 0.7247(4) 0.0068(6)
C10 C 0.5738(7) 0.7315(4) 0.1320(7)
H6 H 0.6091 0.6871 0.1791
Nd3 Nd 0.51346(4) 0.49688(2) 0.18523(3)
O11 O 0.4289(5) 0.8565(3) 0.3256(4)
O13 O 0.4695(5) 0.9137(3) 0.5095(4)
O14 O 0.7128(5) 0.9493(3) 0.4519(4)
O5 O 0.4289(5) 0.6435(3) 0.8256(4)
C9 C 0.4595(7) 0.6465(4) 0.9413(6)
C11 C 0.4410(7) 0.7915(4) 0.9393(6)
H7 H 0.3875 0.7884 0.8546
C12 C 0.4724(7) 0.8632(5) 0.9969(7)
H8 H 0.4378 0.9083 0.9517
Nd5 Nd 0.48654(4) 0.50312(2) 0.81477(3)
O1_2 O 0.3502(5) 0.5895(3) 0.2164(4)
N1_2 N 0.4463(6) 0.3681(4) 0.3805(5)
N2_2 N 0.2126(6) 0.5810(3) 0.1841(5)
O3_2 O 0.7126(6) 0.4749(3) 0.3936(5)
O4_2 O 0.6482(5) 0.5950(3) 0.3476(5)
O5_2 O 0.5711(5) 0.1435(3) 0.6744(4)
C1_2 C 0.1331(7) 0.6080(4) 0.0697(7)
H1_2 H 0.1734 0.6330 0.0172
O8_2 O 0.4137(5) 0.4379(3) 0.3298(4)
C4_2 C 0.3951(8) 0.3030(4) 0.3150(6)
H3_2 H 0.3374 0.3072 0.2318
C6_2 C 0.1577(7) 0.5471(5) 0.2621(7)
H4_2 H 0.2149 0.5296 0.3402
O9 O 0.8346(6) 0.5699(4) 0.5039(6)
N3_2 N 0.7370(7) 0.5469(4) 0.4185(6)
C7_2 C 0.0163(8) 0.5374(5) 0.2287(7)
C8_2 C 0.5112(7) 0.2247(4) 0.4932(6)
C9_2 C 0.5405(7) 0.1465(4) 0.5587(6)
C10_2 C 0.4262(7) 0.2315(4) 0.3680(7)
H6_2 H 0.3909 0.1871 0.3209
C11_2 C 0.5590(7) 0.2915(4) 0.5607(6)
H7_2 H 0.6125 0.2884 0.6454
C12_2 C 0.5276(7) 0.3632(5) 0.5031(7)
H8_2 H 0.5622 0.4083 0.5483
O10 O 0.7312(5) 0.5236(3) 0.1515(5)
O11_2 O 0.5711(5) 0.3565(3) 0.1744(4)
O14_2 O 0.2872(5) 0.4493(3) 0.0481(4)
O13_2 O 0.5305(5) 0.4137(3) 0.9905(4)
C2_2 C 0.9322(7) 0.5613(4) 0.1115(6)
C3_2 C 0.9919(8) 0.5977(4) 0.0323(7)
C5_2 C 0.7793(7) 0.5442(4) 0.0682(7)
H5_2 H 0.9781 0.5149 0.2849
O7_2 O 0.7128(5) 0.5507(3) 0.9519(4)
H2_2 H 0.9365 0.6154 0.9536
C9_3 C 0.5405(7) 0.3535(4) 0.0587(6)
C11_3 C 0.5590(7) 0.2085(4) 0.0607(6)
H7_3 H 0.6125 0.2116 0.1454
C12_3 C 0.5276(7) 0.1368(5) 0.0031(7)
H8_3 H 0.5622 0.0917 0.0483
N1_3 N 0.4463(6) 0.1319(4) 0.8805(5)
O3_3 O 0.7126(6) 0.0251(3) 0.8936(5)
O8_3 O 0.4137(5) 0.0621(3) 0.8298(4)
C4_3 C 0.3951(8) 0.1970(4) 0.8150(6)
H3_3 H 0.3374 0.1928 0.7318
C8_3 C 0.5112(7) 0.2753(4) 0.9932(6)
C10_3 C 0.4262(7) 0.2685(4) 0.8680(7)
H6_3 H 0.3909 0.3129 0.8209
O1_3 O 0.3502(5) 0.9105(3) 0.7164(4)
N2_3 N 0.2126(6) 0.9190(3) 0.6841(5)
O4_3 O 0.6482(5) 0.9050(3) 0.8476(5)
C1_3 C 0.1331(7) 0.8920(4) 0.5697(7)
H1_3 H 0.1734 0.8670 0.5172
C6_3 C 0.1577(7) 0.9529(5) 0.7621(7)
H4_3 H 0.2149 0.9704 0.8402
N3_3 N 0.7370(7) 0.9531(4) 0.9185(6)
C7_3 C 0.0163(8) 0.9626(5) 0.7287(7)
O10_2 O 0.7312(5) 0.9764(3) 0.6515(5)
C2_3 C 0.9322(7) 0.9387(4) 0.6115(6)
C3_3 C 0.9919(8) 0.9023(4) 0.5323(7)
H2_3 H 0.9365 0.8846 0.4536
C5_3 C 0.7793(7) 0.9558(4) 0.5682(7)
H5_3 H 0.9781 0.9851 0.7849
H2_4 H 0.0635 0.3846 0.0464
O2_2 O 0.2688(5) 0.4764(3) 0.8485(5)
C2_4 C 0.0678(7) 0.4387(4) 0.8885(6)
C3_4 C 0.0081(8) 0.4023(4) 0.9677(7)
C5_4 C 0.2207(7) 0.4558(4) 0.9318(7)
H5_4 H 0.0219 0.4851 0.7151
O1_4 O 0.6498(5) 0.4105(3) 0.7836(4)
N1_4 N 0.5537(6) 0.6319(4) 0.6195(5)
N2_4 N 0.7874(6) 0.4190(3) 0.8159(5)
O3_4 O 0.2874(6) 0.5251(3) 0.6064(5)
O4_4 O 0.3518(5) 0.4050(3) 0.6524(5)
C1_4 C 0.8669(7) 0.3920(4) 0.9303(7)
H1_4 H 0.8266 0.3670 0.9828
O8_4 O 0.5863(5) 0.5621(3) 0.6702(4)
C4_4 C 0.6049(8) 0.6970(4) 0.6850(6)
H3_4 H 0.6626 0.6928 0.7682
C6_4 C 0.8423(7) 0.4529(5) 0.7379(7)
H4_4 H 0.7851 0.4704 0.6598
O9_2 O 0.1654(6) 0.4301(4) 0.4961(6)
N3_4 N 0.2630(7) 0.4531(4) 0.5815(6)
C7_4 C 0.9837(8) 0.4626(5) 0.7713(7)
C8_4 C 0.4888(7) 0.7753(4) 0.5068(6)
C9_4 C 0.4595(7) 0.8535(4) 0.4413(6)
C10_4 C 0.5738(7) 0.7685(4) 0.6320(7)
H6_4 H 0.6091 0.8129 0.6791
C11_4 C 0.4410(7) 0.7085(4) 0.4393(6)
H7_4 H 0.3875 0.7116 0.3546
C12_4 C 0.4724(7) 0.6368(5) 0.4969(7)
H8_4 H 0.4378 0.5917 0.4517
O9_3 O 0.1654(6) 0.0699(4) 0.9961(6)
O9_4 O 0.8346(6) 0.9301(4) 0.0039(6)
loop_
_geom_bond_atom_site_label_1
_geom_bond_atom_site_label_2
_geom_bond_site_symmetry_1
_geom_bond_site_symmetry_2
O2 C5 1_555 1_555
O7 C5 1_555 1_555
C2 C3 1_555 1_555
H2 C3 1_555 1_555
C5 C2 1_555 1_555
Nd4 O7 1_555 1_555
O1 N2 1_555 1_555
N2 C1 1_555 1_555
C1 H1 1_555 1_555
C6 N2 1_555 1_555
H4 C6 1_555 1_555
O4 N3 1_555 1_555
C6 C7 1_555 1_555
N1 O8 1_555 1_555
O3 Nd2 1_555 1_555
O8 Nd2 1_555 1_555
C4 N1 1_555 1_555
H3 C4 1_555 1_555
C10 C4 1_555 1_555
H6 C10 1_555 1_555
Nd3 O6 1_555 1_555
O11 Nd2 1_555 1_555
O13 Nd2 1_555 1_555
O14 Nd2 1_555 1_555
C8 C10 1_555 1_555
O5 C9 1_555 1_555
H7 C11 1_555 1_555
H8 C12 1_555 1_555
Nd5 O5 1_555 1_555
C11 C12 1_555 1_555
Nd3 O1_2 1_555 1_555
O1_2 N2_2 1_555 1_555
N1_2 O8_2 1_555 1_555
N2_2 C1_2 1_555 1_555
O3_2 Nd3 1_555 1_555
O4_2 Nd3 1_555 1_555
O5_2 C9_2 1_555 1_555
O12 C9_2 1_555 1_555
C1_2 H1_2 1_555 1_555
O8_2 Nd3 1_555 1_555
C4_2 N1_2 1_555 1_555
H3_2 C4_2 1_555 1_555
C6_2 N2_2 1_555 1_555
H4_2 C6_2 1_555 1_555
O9 N3_2 1_555 1_555
N3_2 O3_2 1_555 1_555
C8_2 C9_2 1_555 1_555
C10_2 C4_2 1_555 1_555
H6_2 C10_2 1_555 1_555
C11_2 C8_2 1_555 1_555
H7_2 C11_2 1_555 1_555
C12_2 N1_2 1_555 1_555
H8_2 C12_2 1_555 1_555
Nd4 O5_2 1_555 1_555
O10 Nd3 1_555 1_555
O11_2 Nd3 1_555 1_555
O14_2 Nd3 1_555 1_555
O4_2 N3_2 1_555 1_555
O12 Nd4 1_555 1_555
C6_2 C7_2 1_555 1_555
C8_2 C10_2 1_555 1_555
C11_2 C12_2 1_555 1_555
O10 C5_2 1_555 1_555
C2_2 C3_2 1_555 1_555
C5_2 C2_2 1_555 1_555
Nd5 O7_2 1_555 1_555
O11_2 C9_3 1_555 1_555
H7_3 C11_3 1_555 1_555
H8_3 C12_3 1_555 1_555
C11_3 C12_3 1_555 1_555
N1_3 O8_3 1_555 1_555
O3_3 Nd4 1_555 1_555
O8_3 Nd4 1_555 1_555
C4_3 N1_3 1_555 1_555
H3_3 C4_3 1_555 1_555
C10_3 C4_3 1_555 1_555
H6_3 C10_3 1_555 1_555
Nd5 O13_2 1_555 1_555
C8_3 C10_3 1_555 1_555
O1_3 N2_3 1_555 1_555
N2_3 C1_3 1_555 1_555
C1_3 H1_3 1_555 1_555
C6_3 N2_3 1_555 1_555
H4_3 C6_3 1_555 1_555
O4_3 N3_3 1_555 1_555
C6_3 C7_3 1_555 1_555
O10_2 C5_3 1_555 1_555
O14 C5_3 1_555 1_555
C2_3 C3_3 1_555 1_555
H2_3 C3_3 1_555 1_555
C5_3 C2_3 1_555 1_555
O2_2 C5_4 1_555 1_555
C2_4 C3_4 1_555 1_555
C5_4 C2_4 1_555 1_555
Nd5 O2_2 1_555 1_555
Nd5 O1_4 1_555 1_555
O1_4 N2_4 1_555 1_555
N1_4 O8_4 1_555 1_555
N2_4 C1_4 1_555 1_555
O3_4 Nd5 1_555 1_555
O4_4 Nd5 1_555 1_555
O11 C9_4 1_555 1_555
O13 C9_4 1_555 1_555
C1_4 H1_4 1_555 1_555
O8_4 Nd5 1_555 1_555
C4_4 N1_4 1_555 1_555
H3_4 C4_4 1_555 1_555
C6_4 N2_4 1_555 1_555
H4_4 C6_4 1_555 1_555
O9_2 N3_4 1_555 1_555
N3_4 O3_4 1_555 1_555
C8_4 C9_4 1_555 1_555
C10_4 C4_4 1_555 1_555
H6_4 C10_4 1_555 1_555
C11_4 C8_4 1_555 1_555
H7_4 C11_4 1_555 1_555
C12_4 N1_4 1_555 1_555
H8_4 C12_4 1_555 1_555
O4_4 N3_4 1_555 1_555
C6_4 C7_4 1_555 1_555
C8_4 C10_4 1_555 1_555
C11_4 C12_4 1_555 1_555

#END
