
###############################################################################
#
# This file contains modified crystal structure data generated from the
# MOF subset of the Cambridge Structural Database (CSD) v543 
# hosted by the Cambridge Crystallographic Data Centre (CCDC).
#
# This work is licensed under the Creative Commons
# Attribution-NonCommercial-ShareAlike 4.0 International License.
# To view a copy of this license, visit
# http://creativecommons.org/licenses/by-nc-sa/4.0/
# or send a letter to
# Creative Commons, PO Box 1866, Mountain View, CA 94042, USA.
#
# CIF created using the CSD Python API on 29 September 2022
# The structure has been converted into the P1 space group
# The structure has a 3D framework
# The original CSD entry OQOCUV is in the monoclinic crystal system
# The framework has been calculated to contain at least 10.0% void space
# The void calculation uses a probe of radius 1.32A, grid spacing 0.4
# The framework is charged, counterions have been retained in the structure
#
###############################################################################

data_OQOCUV
_chemical_formula_moiety         '(C48 H32 N12 Nd4 O36)n'
_symmetry_cell_setting           triclinic
_symmetry_space_group_name_H-M   'P 1'
_symmetry_Int_Tables_number      1
_space_group_name_Hall           'P 1'
loop_
_symmetry_equiv_pos_site_id
_symmetry_equiv_pos_as_xyz
1 x,y,z
_cell_length_a                   10.2658(3)
_cell_length_b                   17.4390(5)
_cell_length_c                   11.4882(3)
_cell_angle_alpha                90
_cell_angle_beta                 109.892(4)
_cell_angle_gamma                90
_cell_volume                     1933.97
loop_
_atom_site_label
_atom_site_type_symbol
_atom_site_fract_x
_atom_site_fract_y
_atom_site_fract_z
Nd4 Nd 0.00996(4) 0.99409(2) 0.68153(3)
O4 O 0.0905(5) 0.4324(3) 0.6800(4)
N2 N 0.0566(6) 0.3642(3) 0.6273(6)
C9 C 0.0992(7) 0.2990(4) 0.6944(6)
H5 H 0.1509 0.3025 0.7782
C11 C 0.0671(7) 0.2286(4) 0.6405(7)
H7 H 0.0949 0.1845 0.6878
Nd2 Nd 0.99004(4) 0.00591(2) 0.31847(3)
O11 O 0.0905(5) 0.0676(3) 0.1800(4)
O13 O 0.2152(4) 0.0467(3) 0.4604(4)
O1 O 0.7667(5) 0.9824(3) 0.3444(5)
O2 O 0.1463(4) 0.9139(3) 0.2770(4)
N1 N 0.2832(5) 0.9225(3) 0.3114(5)
C1 C 0.3643(7) 0.8971(4) 0.4230(7)
H1 H 0.3256 0.8721 0.4749
C2 C 0.7190(7) 0.9615(4) 0.4248(7)
C3 C 0.5648(7) 0.9438(4) 0.3825(7)
C4 C 0.5059(7) 0.9083(4) 0.4599(7)
H2 H 0.5621 0.8918 0.5378
C5 C 0.4789(7) 0.9670(4) 0.2667(7)
H3 H 0.5162 0.9897 0.2118
C8 C 0.3388(7) 0.9564(4) 0.2332(7)
H4 H 0.2812 0.9726 0.1556
O9 O 0.7848(4) 0.9533(3) 0.5396(4)
O12 O 0.0267(5) 0.9136(3) 0.4824(4)
O3 O 0.9395(5) 0.1435(3) 0.3383(4)
O5 O 0.9733(5) 0.0864(3) 0.5176(4)
C6 C 0.9929(6) 0.2231(4) 0.5150(6)
C7 C 0.9647(7) 0.1467(4) 0.4532(7)
C10 C 0.9526(7) 0.2899(4) 0.4487(7)
H6 H 0.9032 0.2874 0.3643
O7 O 0.7953(6) 0.0369(3) 0.1170(5)
C12 C 0.9842(7) 0.3595(4) 0.5048(6)
H8 H 0.9557 0.4041 0.4586
Nd5 Nd 0.99004(4) 0.49409(2) 0.81847(3)
O6 O 0.8499(5) 0.9141(3) 0.1534(5)
N3 N 0.7662(7) 0.9655(5) 0.0877(7)
O8 O 0.6647(6) 0.9471(4) 0.0004(6)
Nd1 Nd 0.00996(4) 0.50591(2) 0.18153(3)
O3_2 O 0.0605(5) 0.6435(3) 0.1617(4)
O6_2 O 0.1501(5) 0.4141(3) 0.3466(5)
C7_2 C 0.0353(7) 0.6467(4) 0.0468(7)
N3_2 N 0.2338(7) 0.4655(5) 0.4123(7)
C10_2 C 0.0474(7) 0.7899(4) 0.0513(7)
H6_2 H 0.0968 0.7874 0.1357
O7_2 O 0.2047(6) 0.5369(3) 0.3830(5)
H8_2 H 0.0443 0.9041 0.0414
O8_2 O 0.3353(6) 0.4471(4) 0.4996(6)
O10 O 0.2333(5) 0.4824(3) 0.1556(5)
O5_2 O 0.0267(5) 0.5864(3) 0.9824(4)
C6_2 C 0.0071(6) 0.7231(4) 0.9850(6)
C12_2 C 0.0158(7) 0.8595(4) 0.9952(6)
O2_2 O 0.8537(4) 0.4139(3) 0.2230(4)
N1_2 N 0.7168(5) 0.4225(3) 0.1886(5)
C1_2 C 0.6357(7) 0.3971(4) 0.0770(7)
H1_2 H 0.6744 0.3721 0.0251
C2_2 C 0.2810(7) 0.4615(4) 0.0752(7)
C3_2 C 0.4352(7) 0.4438(4) 0.1175(7)
C4_2 C 0.4941(7) 0.4083(4) 0.0401(7)
C5_2 C 0.5211(7) 0.4670(4) 0.2333(7)
H3_2 H 0.4838 0.4897 0.2882
C8_2 C 0.6612(7) 0.4564(4) 0.2668(7)
H4_2 H 0.7188 0.4726 0.3444
O11_2 O 0.9095(5) 0.5676(3) 0.3200(4)
O12_2 O 0.9733(5) 0.4136(3) 0.0176(4)
O13_2 O 0.7848(4) 0.5467(3) 0.0396(4)
O4_2 O 0.9095(5) 0.9324(3) 0.8200(4)
N2_2 N 0.9434(6) 0.8642(3) 0.8727(6)
H2_2 H 0.4379 0.3918 0.9622
C9_2 C 0.9008(7) 0.7990(4) 0.8056(6)
H5_2 H 0.8491 0.8025 0.7218
C11_2 C 0.9329(7) 0.7286(4) 0.8595(7)
H7_2 H 0.9051 0.6845 0.8122
O9_2 O 0.2152(4) 0.4533(3) 0.9604(4)
O6_3 O 0.1501(5) 0.0859(3) 0.8466(5)
N3_3 N 0.2338(7) 0.0345(5) 0.9123(7)
O8_3 O 0.3353(6) 0.0529(4) 0.9996(6)
O10_2 O 0.2333(5) 0.0176(3) 0.6556(5)
O3_3 O 0.0605(5) 0.8565(3) 0.6617(4)
C6_3 C 0.0071(6) 0.7769(4) 0.4850(6)
C7_3 C 0.0353(7) 0.8533(4) 0.5468(7)
C10_3 C 0.0474(7) 0.7101(4) 0.5513(7)
H6_3 H 0.0968 0.7126 0.6357
O7_3 O 0.2047(6) 0.9631(3) 0.8830(5)
C12_3 C 0.0158(7) 0.6405(4) 0.4952(6)
H8_3 H 0.0443 0.5959 0.5414
O2_3 O 0.8537(4) 0.0861(3) 0.7230(4)
N1_3 N 0.7168(5) 0.0775(3) 0.6886(5)
C1_3 C 0.6357(7) 0.1029(4) 0.5770(7)
H1_3 H 0.6744 0.1279 0.5251
C2_3 C 0.2810(7) 0.0385(4) 0.5752(7)
C3_3 C 0.4352(7) 0.0562(4) 0.6175(7)
C4_3 C 0.4941(7) 0.0917(4) 0.5401(7)
H2_3 H 0.4379 0.1082 0.4622
C5_3 C 0.5211(7) 0.0330(4) 0.7333(7)
H3_3 H 0.4838 0.0103 0.7882
C8_3 C 0.6612(7) 0.0436(4) 0.7668(7)
H4_3 H 0.7188 0.0274 0.8444
N2_3 N 0.9434(6) 0.6358(3) 0.3727(6)
C9_3 C 0.9008(7) 0.7010(4) 0.3056(6)
H5_3 H 0.8491 0.6975 0.2218
C11_3 C 0.9329(7) 0.7714(4) 0.3595(7)
H7_3 H 0.9051 0.8155 0.3122
N2_4 N 0.0566(6) 0.1358(3) 0.1273(6)
H2_4 H 0.5621 0.6082 0.0378
C9_4 C 0.0992(7) 0.2010(4) 0.1944(6)
H5_4 H 0.1509 0.1975 0.2782
C11_4 C 0.0671(7) 0.2714(4) 0.1405(7)
H7_4 H 0.0949 0.3155 0.1878
O1_2 O 0.7667(5) 0.5176(3) 0.8444(5)
O2_4 O 0.1463(4) 0.5861(3) 0.7770(4)
N1_4 N 0.2832(5) 0.5775(3) 0.8114(5)
C1_4 C 0.3643(7) 0.6029(4) 0.9230(7)
H1_4 H 0.3256 0.6279 0.9749
C2_4 C 0.7190(7) 0.5385(4) 0.9248(7)
C3_4 C 0.5648(7) 0.5562(4) 0.8825(7)
C4_4 C 0.5059(7) 0.5917(4) 0.9599(7)
C5_4 C 0.4789(7) 0.5330(4) 0.7667(7)
H3_4 H 0.5162 0.5103 0.7118
C8_4 C 0.3388(7) 0.5436(4) 0.7332(7)
H4_4 H 0.2812 0.5274 0.6556
C6_4 C 0.9929(6) 0.2769(4) 0.0150(6)
C12_4 C 0.9842(7) 0.1405(4) 0.0048(6)
O3_4 O 0.9395(5) 0.3565(3) 0.8383(4)
O6_4 O 0.8499(5) 0.5859(3) 0.6534(5)
C7_4 C 0.9647(7) 0.3533(4) 0.9532(7)
N3_4 N 0.7662(7) 0.5345(5) 0.5877(7)
C10_4 C 0.9526(7) 0.2101(4) 0.9487(7)
H6_4 H 0.9032 0.2126 0.8643
O7_4 O 0.7953(6) 0.4631(3) 0.6170(5)
H8_4 H 0.9557 0.0959 0.9586
O8_4 O 0.6647(6) 0.5529(4) 0.5004(6)
loop_
_geom_bond_atom_site_label_1
_geom_bond_atom_site_label_2
_geom_bond_site_symmetry_1
_geom_bond_site_symmetry_2
O4 N2 1_555 1_555
N2 C9 1_555 1_555
C9 H5 1_555 1_555
H7 C11 1_555 1_555
C9 C11 1_555 1_555
O1 C2 1_555 1_555
O2 N1 1_555 1_555
N1 C1 1_555 1_555
C1 H1 1_555 1_555
C2 C3 1_555 1_555
C3 C4 1_555 1_555
C4 C1 1_555 1_555
H2 C4 1_555 1_555
C5 C3 1_555 1_555
H3 C5 1_555 1_555
C8 N1 1_555 1_555
H4 C8 1_555 1_555
O9 C2 1_555 1_555
C5 C8 1_555 1_555
Nd4 O12 1_555 1_555
O3 Nd2 1_555 1_555
O5 Nd2 1_555 1_555
C6 C7 1_555 1_555
C7 O3 1_555 1_555
C10 C6 1_555 1_555
H6 C10 1_555 1_555
O7 Nd2 1_555 1_555
H8 C12 1_555 1_555
O5 C7 1_555 1_555
C10 C12 1_555 1_555
N3 O6 1_555 1_555
O8 N3 1_555 1_555
O3_2 Nd1 1_555 1_555
O6_2 Nd1 1_555 1_555
C7_2 O3_2 1_555 1_555
N3_2 O6_2 1_555 1_555
H6_2 C10_2 1_555 1_555
O7_2 Nd1 1_555 1_555
O8_2 N3_2 1_555 1_555
O10 Nd1 1_555 1_555
N3_2 O7_2 1_555 1_555
O10 C2_2 1_555 1_555
O2_2 N1_2 1_555 1_555
N1_2 C1_2 1_555 1_555
C1_2 H1_2 1_555 1_555
C2_2 C3_2 1_555 1_555
C3_2 C4_2 1_555 1_555
C4_2 C1_2 1_555 1_555
C5_2 C3_2 1_555 1_555
H3_2 C5_2 1_555 1_555
C8_2 N1_2 1_555 1_555
H4_2 C8_2 1_555 1_555
C5_2 C8_2 1_555 1_555
O4_2 N2_2 1_555 1_555
N2_2 C9_2 1_555 1_555
C9_2 H5_2 1_555 1_555
H7_2 C11_2 1_555 1_555
C9_2 C11_2 1_555 1_555
N3_3 O6_3 1_555 1_555
O8_3 N3_3 1_555 1_555
O3_3 Nd4 1_555 1_555
C6_3 C7_3 1_555 1_555
C7_3 O3_3 1_555 1_555
C10_3 C6_3 1_555 1_555
H6_3 C10_3 1_555 1_555
O7_3 Nd4 1_555 1_555
H8_3 C12_3 1_555 1_555
O12 C7_3 1_555 1_555
C10_3 C12_3 1_555 1_555
O10_2 C2_3 1_555 1_555
O2_3 N1_3 1_555 1_555
N1_3 C1_3 1_555 1_555
C1_3 H1_3 1_555 1_555
C2_3 C3_3 1_555 1_555
C3_3 C4_3 1_555 1_555
C4_3 C1_3 1_555 1_555
H2_3 C4_3 1_555 1_555
C5_3 C3_3 1_555 1_555
H3_3 C5_3 1_555 1_555
C8_3 N1_3 1_555 1_555
H4_3 C8_3 1_555 1_555
O13 C2_3 1_555 1_555
C5_3 C8_3 1_555 1_555
O11_2 N2_3 1_555 1_555
N2_3 C9_3 1_555 1_555
C9_3 H5_3 1_555 1_555
H7_3 C11_3 1_555 1_555
C9_3 C11_3 1_555 1_555
O11 N2_4 1_555 1_555
N2_4 C9_4 1_555 1_555
C9_4 H5_4 1_555 1_555
H7_4 C11_4 1_555 1_555
C9_4 C11_4 1_555 1_555
O1_2 C2_4 1_555 1_555
O2_4 N1_4 1_555 1_555
N1_4 C1_4 1_555 1_555
C1_4 H1_4 1_555 1_555
C2_4 C3_4 1_555 1_555
C3_4 C4_4 1_555 1_555
C4_4 C1_4 1_555 1_555
C5_4 C3_4 1_555 1_555
H3_4 C5_4 1_555 1_555
C8_4 N1_4 1_555 1_555
H4_4 C8_4 1_555 1_555
Nd5 O1_2 1_555 1_555
C5_4 C8_4 1_555 1_555
O3_4 Nd5 1_555 1_555
O6_4 Nd5 1_555 1_555
C7_4 O3_4 1_555 1_555
N3_4 O6_4 1_555 1_555
H6_4 C10_4 1_555 1_555
O7_4 Nd5 1_555 1_555
O8_4 N3_4 1_555 1_555
N3_4 O7_4 1_555 1_555

#END
