
###############################################################################
#
# This file contains modified crystal structure data generated from the
# MOF subset of the Cambridge Structural Database (CSD) v543 
# hosted by the Cambridge Crystallographic Data Centre (CCDC).
#
# This work is licensed under the Creative Commons
# Attribution-NonCommercial-ShareAlike 4.0 International License.
# To view a copy of this license, visit
# http://creativecommons.org/licenses/by-nc-sa/4.0/
# or send a letter to
# Creative Commons, PO Box 1866, Mountain View, CA 94042, USA.
#
# CIF created using the CSD Python API on 29 September 2022
# The structure has been converted into the P1 space group
# The structure has a 3D framework
# The original CSD entry OQODUW is in the rhombohedral crystal system
# The framework has been calculated to contain at least 10.0% void space
# The void calculation uses a probe of radius 1.32A, grid spacing 0.4
#
###############################################################################

data_OQODUW
_chemical_formula_moiety         '(C72 H18 Co7 O48)n'
_symmetry_cell_setting           triclinic
_symmetry_space_group_name_H-M   'P 1'
_symmetry_Int_Tables_number      1
_space_group_name_Hall           'P 1'
loop_
_symmetry_equiv_pos_site_id
_symmetry_equiv_pos_as_xyz
1 x,y,z
_cell_length_a                   26.037(4)
_cell_length_b                   26.037(4)
_cell_length_c                   6.6990(13)
_cell_angle_alpha                90
_cell_angle_beta                 90
_cell_angle_gamma                120
_cell_volume                     3932.99
loop_
_atom_site_label
_atom_site_type_symbol
_atom_site_fract_x
_atom_site_fract_y
_atom_site_fract_z
Co3 Co 0.05223(3) 0.68293(4) 0.98661(10)
O8 O 0.03787(21) 0.69563(14) 0.5283(5)
O9 O 0.02398(15) 0.60665(21) 0.8296(5)
O6 O 0.93066(16) 0.70328(17) 0.0983(5)
Co5 Co 0.98373(4) 0.70263(3) 0.31995(10)
Co8 Co 0.68293(4) 0.63071(3) 0.01339(10)
Co1 Co 0.96404(3) 0.61444(3) 0.65328(10)
O1 O 0.69563(14) 0.65776(15) 0.4717(5)
O2 O 0.91601(14) 0.64269(15) 0.4963(5)
O3 O 0.73601(16) 0.63005(17) 0.2350(5)
C1 C 0.73636(19) 0.6490(2) 0.4090(7)
C2 C 0.7858(2) 0.6600(2) 0.5465(7)
C3 C 0.8297(2) 0.6499(2) 0.4705(7)
H1 H 0.8272 0.6387 0.3344
C4 C 0.87756(19) 0.6555(2) 0.5845(7)
O4 O 0.97104(14) 0.67557(15) 0.8616(5)
O5 O 0.75066(14) 0.69064(15) 0.8370(5)
C5 C 0.93031(19) 0.6843(2) 0.9243(7)
C6 C 0.8809(2) 0.6733(2) 0.7868(7)
C7 C 0.8370(2) 0.6834(2) 0.8628(7)
H2 H 0.8395 0.6946 0.9989
C8 C 0.78911(19) 0.6778(2) 0.7488(7)
Co2 Co 0.61444(3) 0.65040(4) 0.34672(10)
Co6 Co 0.70263(3) 0.71889(3) 0.68005(10)
O7 O 0.67557(15) 0.70454(21) 0.1384(5)
O10 O 0.64269(15) 0.72668(21) 0.5037(5)
O11 O 0.60665(21) 0.58268(14) 0.1704(5)
O12 O 0.56071(23) 0.59732(16) 0.5683(5)
O13 O 0.96338(17) 0.56071(23) 0.4317(5)
O6_2 O 0.29672(17) 0.22737(23) 0.0983(5)
Co5_2 Co 0.29737(3) 0.28111(5) 0.31995(10)
Co8_2 Co 0.36929(3) 0.05223(5) 0.01339(10)
Co1_2 Co 0.38556(3) 0.34960(4) 0.65328(10)
O1_2 O 0.34224(15) 0.03787(21) 0.4717(5)
O2_2 O 0.35731(15) 0.27332(21) 0.4963(5)
O3_2 O 0.36995(17) 0.10596(23) 0.2350(5)
C1_2 C 0.3510(2) 0.08736(28) 0.4090(7)
C2_2 C 0.3400(2) 0.1258(3) 0.5465(7)
C3_2 C 0.3501(2) 0.1798(3) 0.4705(7)
H1_2 H 0.3613 0.1885 0.3344
C4_2 C 0.3445(2) 0.22206(28) 0.5845(7)
O4_2 O 0.32443(15) 0.29546(21) 0.8616(5)
O5_2 O 0.30936(15) 0.06001(21) 0.8370(5)
C5_2 C 0.3157(2) 0.24597(28) 0.9243(7)
C6_2 C 0.3267(2) 0.2075(3) 0.7868(7)
C7_2 C 0.3166(2) 0.1535(3) 0.8628(7)
H2_2 H 0.3054 0.1448 0.9989
C8_2 C 0.3222(2) 0.11127(28) 0.7488(7)
Co3_2 Co 0.31707(4) 0.36929(5) 0.98661(10)
O8_2 O 0.30437(14) 0.34224(25) 0.5283(5)
O9_2 O 0.39335(21) 0.41732(26) 0.8296(5)
O11_2 O 0.41732(14) 0.02398(25) 0.1704(5)
O13_2 O 0.43929(23) 0.40268(29) 0.4317(5)
Co2_2 Co 0.34960(4) 0.96404(5) 0.34672(10)
Co6_2 Co 0.28111(3) 0.98373(4) 0.68005(10)
O7_2 O 0.29546(21) 0.97104(26) 0.1384(5)
O10_2 O 0.27332(21) 0.91601(26) 0.5037(5)
O12_2 O 0.40268(16) 0.96338(28) 0.5683(5)
Co2_3 Co 0.03596(5) 0.38556(3) 0.34672(10)
Co6_3 Co 0.01627(4) 0.29737(3) 0.68005(10)
O7_3 O 0.02896(26) 0.32443(15) 0.1384(5)
O10_3 O 0.08399(26) 0.35731(15) 0.5037(5)
O12_3 O 0.03662(28) 0.43929(23) 0.5683(5)
O6_3 O 0.77263(23) 0.06934(16) 0.0983(5)
Co5_3 Co 0.71889(5) 0.01627(4) 0.31995(10)
Co8_3 Co 0.94777(5) 0.31707(4) 0.01339(10)
Co1_3 Co 0.65040(4) 0.03596(3) 0.65328(10)
O1_3 O 0.96213(21) 0.30437(14) 0.4717(5)
O2_3 O 0.72668(21) 0.08399(14) 0.4963(5)
O3_3 O 0.89404(23) 0.26399(16) 0.2350(5)
C1_3 C 0.91264(28) 0.26364(19) 0.4090(7)
C2_3 C 0.8742(3) 0.2142(2) 0.5465(7)
C3_3 C 0.8202(3) 0.1703(2) 0.4705(7)
H1_3 H 0.8115 0.1728 0.3344
C4_3 C 0.77794(28) 0.12244(19) 0.5845(7)
O4_3 O 0.70454(21) 0.02896(14) 0.8616(5)
O5_3 O 0.93999(21) 0.24934(14) 0.8370(5)
C5_3 C 0.75403(28) 0.06969(19) 0.9243(7)
C6_3 C 0.7925(3) 0.1191(2) 0.7868(7)
C7_3 C 0.8465(3) 0.1630(2) 0.8628(7)
H2_3 H 0.8552 0.1605 0.9989
C8_3 C 0.88873(28) 0.21089(19) 0.7488(7)
O11_3 O 0.97602(25) 0.39335(21) 0.1704(5)
O13_3 O 0.59732(29) 0.03662(17) 0.4317(5)
Co3_3 Co 0.63071(5) 0.94777(3) 0.98661(10)
O8_3 O 0.65776(25) 0.96213(21) 0.5283(5)
O9_3 O 0.58268(26) 0.97602(15) 0.8296(5)
O4_4 O 0.63770(14) 0.00891(15) 0.1950(5)
C5_4 C 0.59697(19) 0.0177(2) 0.2577(7)
C6_4 C 0.5475(2) 0.0067(2) 0.1202(7)
C7_4 C 0.5036(2) 0.0168(2) 0.1962(7)
H2_4 H 0.5061 0.0280 0.3323
C8_4 C 0.45577(19) 0.0112(2) 0.0822(7)
O9_4 O 0.69064(15) 0.93999(21) 0.1630(5)
O1_4 O 0.36230(14) 0.99109(15) 0.8050(5)
C1_4 C 0.40303(19) 0.9823(2) 0.7423(7)
C2_4 C 0.4525(2) 0.9933(2) 0.8798(7)
C3_4 C 0.4964(2) 0.9832(2) 0.8038(7)
H1_4 H 0.4939 0.9720 0.6677
C4_4 C 0.54423(19) 0.9888(2) 0.9178(7)
O12_4 O 0.22737(23) 0.93066(16) 0.9017(5)
O13_4 O 0.63005(17) 0.89404(23) 0.7650(5)
O9_5 O 0.06001(21) 0.75066(26) 0.1630(5)
O1_5 O 0.00891(15) 0.37120(21) 0.8050(5)
C1_5 C 0.0177(2) 0.42069(28) 0.7423(7)
C2_5 C 0.0067(2) 0.4591(3) 0.8798(7)
C3_5 C 0.0168(2) 0.5131(3) 0.8038(7)
H1_5 H 0.0280 0.5218 0.6677
C4_5 C 0.0112(2) 0.55539(28) 0.9178(7)
O12_5 O 0.06934(16) 0.29672(28) 0.9017(5)
O13_5 O 0.10596(23) 0.73601(29) 0.7650(5)
O4_5 O 0.99109(15) 0.62880(21) 0.1950(5)
C5_5 C 0.9823(2) 0.57931(28) 0.2577(7)
C6_5 C 0.9933(2) 0.5409(3) 0.1202(7)
C7_5 C 0.9832(2) 0.4869(3) 0.1962(7)
H2_5 H 0.9720 0.4782 0.3323
C8_5 C 0.9888(2) 0.44461(28) 0.0822(7)
O4_6 O 0.37120(21) 0.36230(14) 0.1950(5)
C5_6 C 0.42069(28) 0.40303(19) 0.2577(7)
C6_6 C 0.4591(3) 0.4525(2) 0.1202(7)
C7_6 C 0.5131(3) 0.4964(2) 0.1962(7)
H2_6 H 0.5218 0.4939 0.3323
C8_6 C 0.55539(28) 0.54423(19) 0.0822(7)
O9_6 O 0.24934(26) 0.30936(15) 0.1630(5)
O1_6 O 0.62880(21) 0.63770(14) 0.8050(5)
C1_6 C 0.57931(28) 0.59697(19) 0.7423(7)
C2_6 C 0.5409(3) 0.5475(2) 0.8798(7)
C3_6 C 0.4869(3) 0.5036(2) 0.8038(7)
H1_6 H 0.4782 0.5061 0.6677
C4_6 C 0.44461(28) 0.45577(19) 0.9178(7)
O12_6 O 0.70328(28) 0.77263(23) 0.9017(5)
O13_6 O 0.26399(29) 0.36995(17) 0.7650(5)
C1_7 C 0.06969(19) 0.3157(2) 0.0757(7)
C2_7 C 0.1191(2) 0.3267(2) 0.2132(7)
C3_7 C 0.1630(2) 0.3166(2) 0.1372(7)
H1_7 H 0.1605 0.3054 0.0011
C4_7 C 0.21089(19) 0.3222(2) 0.2512(7)
C5_7 C 0.26364(19) 0.3510(2) 0.5910(7)
C6_7 C 0.2142(2) 0.3400(2) 0.4535(7)
C7_7 C 0.1703(2) 0.3501(2) 0.5295(7)
H2_7 H 0.1728 0.3613 0.6656
C8_7 C 0.12244(19) 0.3445(2) 0.4155(7)
C1_8 C 0.6843(2) 0.75403(28) 0.0757(7)
C2_8 C 0.6733(2) 0.7925(3) 0.2132(7)
C3_8 C 0.6834(2) 0.8465(3) 0.1372(7)
H1_8 H 0.6946 0.8552 0.0011
C4_8 C 0.6778(2) 0.88873(28) 0.2512(7)
C5_8 C 0.6490(2) 0.91264(28) 0.5910(7)
C6_8 C 0.6600(2) 0.8742(3) 0.4535(7)
C7_8 C 0.6499(2) 0.8202(3) 0.5295(7)
H2_8 H 0.6387 0.8115 0.6656
C8_8 C 0.6555(2) 0.77794(28) 0.4155(7)
C1_9 C 0.24597(28) 0.93031(19) 0.0757(7)
C2_9 C 0.2075(3) 0.8809(2) 0.2132(7)
C3_9 C 0.1535(3) 0.8370(2) 0.1372(7)
H1_9 H 0.1448 0.8395 0.0011
C4_9 C 0.11127(28) 0.78911(19) 0.2512(7)
C5_9 C 0.08736(28) 0.73636(19) 0.5910(7)
C6_9 C 0.1258(3) 0.7858(2) 0.4535(7)
C7_9 C 0.1798(3) 0.8297(2) 0.5295(7)
H2_9 H 0.1885 0.8272 0.6656
C8_9 C 0.22206(28) 0.87756(19) 0.4155(7)
loop_
_geom_bond_atom_site_label_1
_geom_bond_atom_site_label_2
_geom_bond_site_symmetry_1
_geom_bond_site_symmetry_2
Co3 O9 1_555 1_555
Co5 O6 1_555 1_555
Co1 O2 1_555 1_555
O1 C1 1_555 1_555
O2 C4 1_555 1_555
O3 C1 1_555 1_555
C1 C2 1_555 1_555
C2 C3 1_555 1_555
C3 H1 1_555 1_555
C4 C3 1_555 1_555
O4 Co1 1_555 1_555
O5 C8 1_555 1_555
C5 O4 1_555 1_555
C6 C4 1_555 1_555
C7 C6 1_555 1_555
H2 C7 1_555 1_555
C8 C2 1_555 1_555
Co2 O1 1_555 1_555
Co5 O2 1_555 1_555
Co6 O1 1_555 1_555
Co8 O3 1_555 1_555
O7 Co2 1_555 1_555
O10 Co2 1_555 1_555
O11 Co2 1_555 1_555
O12 Co2 1_555 1_555
O13 Co1 1_555 1_555
O5 Co6 1_555 1_555
C5 C6 1_555 1_555
C7 C8 1_555 1_555
Co6 O10 1_555 1_555
Co8 O7 1_555 1_555
Co8 O11 1_555 1_555
Co5_2 O6_2 1_555 1_555
Co1_2 O2_2 1_555 1_555
O1_2 C1_2 1_555 1_555
O2_2 C4_2 1_555 1_555
O3_2 C1_2 1_555 1_555
C1_2 C2_2 1_555 1_555
C2_2 C3_2 1_555 1_555
C3_2 H1_2 1_555 1_555
C4_2 C3_2 1_555 1_555
O4_2 Co1_2 1_555 1_555
O5_2 C8_2 1_555 1_555
C5_2 O4_2 1_555 1_555
C6_2 C4_2 1_555 1_555
C7_2 C6_2 1_555 1_555
H2_2 C7_2 1_555 1_555
C8_2 C2_2 1_555 1_555
Co3_2 O4_2 1_555 1_555
Co5_2 O2_2 1_555 1_555
Co8_2 O3_2 1_555 1_555
O8_2 Co1_2 1_555 1_555
O9_2 Co1_2 1_555 1_555
O13_2 Co1_2 1_555 1_555
C5_2 C6_2 1_555 1_555
C7_2 C8_2 1_555 1_555
Co3_2 O9_2 1_555 1_555
Co5_2 O8_2 1_555 1_555
Co8_2 O11_2 1_555 1_555
O7_2 Co2_2 1_555 1_555
O10_2 Co2_2 1_555 1_555
O12_2 Co2_2 1_555 1_555
Co6_2 O10_2 1_555 1_555
O7_3 Co2_3 1_555 1_555
O10_3 Co2_3 1_555 1_555
O12_3 Co2_3 1_555 1_555
Co6_3 O10_3 1_555 1_555
Co5_3 O6_3 1_555 1_555
Co1_3 O2_3 1_555 1_555
O1_3 C1_3 1_555 1_555
O2_3 C4_3 1_555 1_555
O3_3 C1_3 1_555 1_555
C1_3 C2_3 1_555 1_555
C2_3 C3_3 1_555 1_555
C3_3 H1_3 1_555 1_555
C4_3 C3_3 1_555 1_555
O4_3 Co1_3 1_555 1_555
O5_3 C8_3 1_555 1_555
C5_3 O4_3 1_555 1_555
C6_3 C4_3 1_555 1_555
C7_3 C6_3 1_555 1_555
H2_3 C7_3 1_555 1_555
C8_3 C2_3 1_555 1_555
Co5_3 O2_3 1_555 1_555
Co8_3 O3_3 1_555 1_555
O13_3 Co1_3 1_555 1_555
C5_3 C6_3 1_555 1_555
C7_3 C8_3 1_555 1_555
Co8_3 O11_3 1_555 1_555
Co3_3 O9_3 1_555 1_555
O11_2 C8_4 1_555 1_555
O13_3 C5_4 1_555 1_555
C5_4 O4_4 1_555 1_555
C7_4 C6_4 1_555 1_555
H2_4 C7_4 1_555 1_555
Co5_3 O4_4 1_555 1_555
C5_4 C6_4 1_555 1_555
C7_4 C8_4 1_555 1_555
O1_4 C1_4 1_555 1_555
O9_3 C4_4 1_555 1_555
O12_2 C1_4 1_555 1_555
C1_4 C2_4 1_555 1_555
C2_4 C3_4 1_555 1_555
C3_4 H1_4 1_555 1_555
C4_4 C3_4 1_555 1_555
Co6_2 O1_4 1_555 1_555
O12_4 Co6_2 1_555 1_555
O13_4 Co3_3 1_555 1_555
O1_5 C1_5 1_555 1_555
O9 C4_5 1_555 1_555
O12_3 C1_5 1_555 1_555
C1_5 C2_5 1_555 1_555
C2_5 C3_5 1_555 1_555
C3_5 H1_5 1_555 1_555
C4_5 C3_5 1_555 1_555
Co6_3 O1_5 1_555 1_555
O12_5 Co6_3 1_555 1_555
O13_5 Co3 1_555 1_555
O11_3 C8_5 1_555 1_555
O13 C5_5 1_555 1_555
C5_5 O4_5 1_555 1_555
C7_5 C6_5 1_555 1_555
H2_5 C7_5 1_555 1_555
Co5 O4_5 1_555 1_555
C5_5 C6_5 1_555 1_555
C7_5 C8_5 1_555 1_555
O11 C8_6 1_555 1_555
O13_2 C5_6 1_555 1_555
C5_6 O4_6 1_555 1_555
C7_6 C6_6 1_555 1_555
H2_6 C7_6 1_555 1_555
Co5_2 O4_6 1_555 1_555
C5_6 C6_6 1_555 1_555
C7_6 C8_6 1_555 1_555
Co5_2 O9_6 1_555 1_555
O1_6 C1_6 1_555 1_555
O9_2 C4_6 1_555 1_555
O12 C1_6 1_555 1_555
C1_6 C2_6 1_555 1_555
C2_6 C3_6 1_555 1_555
C3_6 H1_6 1_555 1_555
C4_6 C3_6 1_555 1_555
Co6 O1_6 1_555 1_555
O12_6 Co6 1_555 1_555
O13_6 Co3_2 1_555 1_555
O7_3 C1_7 1_555 1_555
O9_6 C4_7 1_555 1_555
C1_7 C2_7 1_555 1_555
C2_7 C3_7 1_555 1_555
C3_7 H1_7 1_555 1_555
C4_7 C3_7 1_555 1_555
O10_3 C8_7 1_555 1_555
O13_6 C5_7 1_555 1_555
C5_7 O8_2 1_555 1_555
C6_7 C4_7 1_555 1_555
C7_7 C6_7 1_555 1_555
H2_7 C7_7 1_555 1_555
C8_7 C2_7 1_555 1_555
C5_7 C6_7 1_555 1_555
C7_7 C8_7 1_555 1_555
O7 C1_8 1_555 1_555
O9_4 C4_8 1_555 1_555
C1_8 C2_8 1_555 1_555
C2_8 C3_8 1_555 1_555
C3_8 H1_8 1_555 1_555
C4_8 C3_8 1_555 1_555
O10 C8_8 1_555 1_555
O13_4 C5_8 1_555 1_555
C5_8 O8_3 1_555 1_555
C6_8 C4_8 1_555 1_555
C7_8 C6_8 1_555 1_555
H2_8 C7_8 1_555 1_555
C8_8 C2_8 1_555 1_555
C5_8 C6_8 1_555 1_555
C7_8 C8_8 1_555 1_555
O7_2 C1_9 1_555 1_555
O9_5 C4_9 1_555 1_555
C1_9 C2_9 1_555 1_555
C2_9 C3_9 1_555 1_555
C3_9 H1_9 1_555 1_555
C4_9 C3_9 1_555 1_555
O10_2 C8_9 1_555 1_555
O13_5 C5_9 1_555 1_555
C5_9 O8 1_555 1_555
C6_9 C4_9 1_555 1_555
C7_9 C6_9 1_555 1_555
H2_9 C7_9 1_555 1_555
C8_9 C2_9 1_555 1_555
C5_9 C6_9 1_555 1_555
C7_9 C8_9 1_555 1_555

#END
