
###############################################################################
#
# This file contains modified crystal structure data generated from the
# MOF subset of the Cambridge Structural Database (CSD) v543 
# hosted by the Cambridge Crystallographic Data Centre (CCDC).
#
# This work is licensed under the Creative Commons
# Attribution-NonCommercial-ShareAlike 4.0 International License.
# To view a copy of this license, visit
# http://creativecommons.org/licenses/by-nc-sa/4.0/
# or send a letter to
# Creative Commons, PO Box 1866, Mountain View, CA 94042, USA.
#
# CIF created using the CSD Python API on 29 September 2022
# The structure has been converted into the P1 space group
# The structure has a 3D framework
# The original CSD entry OQOFAE is in the rhombohedral crystal system
# The framework has been calculated to contain at least 10.0% void space
# The void calculation uses a probe of radius 1.32A, grid spacing 0.4
#
###############################################################################

data_OQOFAE
_chemical_formula_moiety         '(C72 H18 Co8 O54)n'
_symmetry_cell_setting           triclinic
_symmetry_space_group_name_H-M   'P 1'
_symmetry_Int_Tables_number      1
_space_group_name_Hall           'P 1'
loop_
_symmetry_equiv_pos_site_id
_symmetry_equiv_pos_as_xyz
1 x,y,z
_cell_length_a                   25.588(4)
_cell_length_b                   25.588(4)
_cell_length_c                   6.8870(14)
_cell_angle_alpha                90
_cell_angle_beta                 90
_cell_angle_gamma                120
_cell_volume                     3905.11
loop_
_atom_site_label
_atom_site_type_symbol
_atom_site_fract_x
_atom_site_fract_y
_atom_site_fract_z
Co1 Co 0.38484(12) 0.35233(12) 0.1490(3)
O1 O 0.3560(5) 0.2723(5) 0.0097(14)
O2 O 0.3250(5) 0.2962(6) 0.3664(15)
O3 O 0.3002(6) 0.2273(6) 0.5906(16)
C1 C 0.3173(9) 0.2459(8) 0.425(2)
C2 C 0.3263(6) 0.2081(6) 0.2876(17)
C3 C 0.3163(8) 0.1531(6) 0.3592(18)
H1 H 0.3040 0.1430 0.4905
C4 C 0.3429(8) 0.2222(7) 0.0903(17)
O4 O 0.3107(5) 0.0610(5) 0.3236(14)
C6 C 0.3404(6) 0.1252(6) 0.0457(17)
C8 C 0.3238(8) 0.1111(7) 0.2430(17)
Co3 Co 0.31434(12) 0.36584(17) 0.4823(3)
Co5 Co 0.30082(17) 0.28183(12) 0.8157(3)
Co8 Co 0.36584(17) 0.05151(12) 0.5177(3)
O7 O 0.3944(5) 0.4170(7) 0.3430(14)
O10 O 0.3045(8) 0.3417(5) 0.0331(15)
O5 O 0.3417(5) 0.0371(6) 0.9669(15)
O6 O 0.3665(6) 0.1060(6) 0.7427(16)
C5 C 0.3494(9) 0.0874(8) 0.908(2)
C7 C 0.3504(8) 0.1802(6) 0.9741(18)
H2 H 0.3627 0.1903 0.8428
O9 O 0.4170(7) 0.0227(5) 0.6570(14)
O12 O 0.4394(6) 0.4062(8) 0.9239(16)
Co6 Co 0.28183(12) 0.98100(12) 0.1843(3)
O13 O 0.4062(8) 0.9669(6) 0.0761(16)
Co2 Co 0.35233(12) 0.96749(17) 0.8510(3)
O8 O 0.2723(5) 0.9163(7) 0.9903(14)
O11 O 0.2962(6) 0.9712(8) 0.6336(15)
Co6_2 Co 0.01900(12) 0.30082(17) 0.1843(3)
O13_2 O 0.0331(6) 0.4394(10) 0.0761(16)
Co2_2 Co 0.03251(17) 0.38484(21) 0.8510(3)
O8_2 O 0.0837(7) 0.3560(9) 0.9903(14)
O11_2 O 0.0288(8) 0.3250(10) 0.6336(15)
Co1_2 Co 0.64767(12) 0.03251(17) 0.1490(3)
O1_2 O 0.7277(5) 0.0837(7) 0.0097(14)
O2_2 O 0.7038(6) 0.0288(8) 0.3664(15)
O3_2 O 0.7727(6) 0.0729(8) 0.5906(16)
C1_2 C 0.7541(8) 0.0714(12) 0.425(2)
C2_2 C 0.7919(6) 0.1182(8) 0.2876(17)
C3_2 C 0.8469(6) 0.1632(10) 0.3592(18)
H1_2 H 0.8570 0.1610 0.4905
C4_2 C 0.7778(7) 0.1207(11) 0.0903(17)
O4_2 O 0.9390(5) 0.2496(7) 0.3236(14)
C6_2 C 0.8748(6) 0.2151(8) 0.0457(17)
C8_2 C 0.8889(7) 0.2126(11) 0.2430(17)
Co5_2 Co 0.71817(12) 0.01900(21) 0.8157(3)
Co8_2 Co 0.94849(12) 0.31434(21) 0.5177(3)
O5_2 O 0.9629(6) 0.3045(8) 0.9669(15)
O6_2 O 0.8940(6) 0.2604(8) 0.7427(16)
C5_2 C 0.9126(8) 0.2619(12) 0.908(2)
C7_2 C 0.8198(6) 0.1701(10) 0.9741(18)
H2_2 H 0.8097 0.1723 0.8428
O9_2 O 0.9773(5) 0.3944(9) 0.6570(14)
O12_2 O 0.5938(8) 0.0331(10) 0.9239(16)
Co3_2 Co 0.63416(17) 0.94849(21) 0.4823(3)
O7_2 O 0.5830(7) 0.9773(9) 0.3430(14)
O10_2 O 0.6583(5) 0.9629(9) 0.0331(15)
Co3_3 Co 0.05151(21) 0.68566(12) 0.4823(3)
O7_3 O 0.0227(9) 0.6056(5) 0.3430(14)
O10_3 O 0.0371(9) 0.6955(8) 0.0331(15)
Co1_3 Co 0.96749(17) 0.61516(12) 0.1490(3)
O1_3 O 0.9163(7) 0.6440(5) 0.0097(14)
O2_3 O 0.9712(8) 0.6750(5) 0.3664(15)
O3_3 O 0.9271(8) 0.6998(6) 0.5906(16)
C1_3 C 0.9286(12) 0.6827(9) 0.425(2)
C2_3 C 0.8818(8) 0.6737(6) 0.2876(17)
C3_3 C 0.8368(10) 0.6837(8) 0.3592(18)
H1_3 H 0.8390 0.6960 0.4905
C4_3 C 0.8793(11) 0.6571(8) 0.0903(17)
O4_3 O 0.7504(7) 0.6893(5) 0.3236(14)
C6_3 C 0.7849(8) 0.6596(6) 0.0457(17)
C8_3 C 0.7874(11) 0.6762(8) 0.2430(17)
Co5_3 Co 0.98100(21) 0.69918(17) 0.8157(3)
Co6_3 Co 0.69918(17) 0.71817(12) 0.1843(3)
Co8_3 Co 0.68566(21) 0.63416(17) 0.5177(3)
O13_3 O 0.5606(10) 0.5938(8) 0.0761(16)
O5_3 O 0.6955(8) 0.6583(5) 0.9669(15)
O6_3 O 0.7396(8) 0.6335(6) 0.7427(16)
C5_3 C 0.7381(12) 0.6506(9) 0.908(2)
C7_3 C 0.8299(10) 0.6496(8) 0.9741(18)
H2_3 H 0.8277 0.6373 0.8428
Co2_3 Co 0.61516(21) 0.64767(12) 0.8510(3)
O8_3 O 0.6440(9) 0.7277(5) 0.9903(14)
O9_3 O 0.6056(9) 0.5830(7) 0.6570(14)
O11_3 O 0.6750(10) 0.7038(6) 0.6336(15)
O12_3 O 0.9669(10) 0.5606(6) 0.9239(16)
C4_4 C 0.0096(8) 0.5555(7) 0.4236(17)
O5_4 O 0.0083(5) 0.3705(6) 0.3003(15)
C5_4 C 0.0160(9) 0.4208(8) 0.242(2)
C6_4 C 0.0070(6) 0.4586(6) 0.3791(17)
C7_4 C 0.0170(8) 0.5136(6) 0.3075(18)
H2_4 H 0.0293 0.5237 0.1762
O7_4 O 0.0610(5) 0.7504(7) 0.6764(14)
O12_4 O 0.1060(6) 0.7396(8) 0.2573(16)
O13_4 O 0.0729(8) 0.3002(6) 0.4094(16)
O2_4 O 0.9917(5) 0.6295(6) 0.6997(15)
C1_4 C 0.9840(9) 0.5792(8) 0.758(2)
C2_4 C 0.9930(6) 0.5414(6) 0.6209(17)
C3_4 C 0.9830(8) 0.4864(6) 0.6925(18)
H1_4 H 0.9707 0.4763 0.8238
C8_4 C 0.9904(8) 0.4445(7) 0.5764(17)
O2_5 O 0.3705(6) 0.3621(8) 0.6997(15)
C1_5 C 0.4208(8) 0.4047(12) 0.758(2)
C2_5 C 0.4586(6) 0.4515(8) 0.6209(17)
C3_5 C 0.5136(6) 0.4965(10) 0.6925(18)
H1_5 H 0.5237 0.4943 0.8238
C4_5 C 0.4445(7) 0.4540(11) 0.4236(17)
O5_5 O 0.6295(6) 0.6379(8) 0.3003(15)
C5_5 C 0.5792(8) 0.5953(12) 0.242(2)
C6_5 C 0.5414(6) 0.5485(8) 0.3791(17)
C7_5 C 0.4864(6) 0.5035(10) 0.3075(18)
H2_5 H 0.4763 0.5057 0.1762
C8_5 C 0.5555(7) 0.5460(11) 0.5764(17)
O7_5 O 0.2496(7) 0.3107(9) 0.6764(14)
O12_5 O 0.2604(8) 0.3665(10) 0.2573(16)
O13_5 O 0.6998(6) 0.7727(10) 0.4094(16)
O2_6 O 0.6379(8) 0.0083(5) 0.6997(15)
C1_6 C 0.5953(12) 0.0160(9) 0.758(2)
C2_6 C 0.5485(8) 0.0070(6) 0.6209(17)
C3_6 C 0.5035(10) 0.0170(8) 0.6925(18)
H1_6 H 0.5057 0.0293 0.8238
C8_6 C 0.4540(11) 0.0096(8) 0.5764(17)
C4_6 C 0.5460(11) 0.9904(8) 0.4236(17)
O5_6 O 0.3621(8) 0.9917(5) 0.3003(15)
C5_6 C 0.4047(12) 0.9840(9) 0.242(2)
C6_6 C 0.4515(8) 0.9930(6) 0.3791(17)
C7_6 C 0.4965(10) 0.9830(8) 0.3075(18)
H2_6 H 0.4943 0.9707 0.1762
O7_6 O 0.6893(9) 0.9390(5) 0.6764(14)
O12_6 O 0.6335(10) 0.8940(6) 0.2573(16)
O13_6 O 0.2273(10) 0.9271(8) 0.4094(16)
C1_7 C 0.6506(9) 0.9126(8) 0.092(2)
C3_7 C 0.6496(8) 0.8198(6) 0.0259(18)
H1_7 H 0.6373 0.8097 0.1572
C2_7 C 0.6596(6) 0.8748(6) 0.9543(17)
C4_7 C 0.6762(8) 0.8889(7) 0.7570(17)
C5_7 C 0.6827(9) 0.7541(8) 0.575(2)
C6_7 C 0.6737(6) 0.7919(6) 0.7124(17)
C7_7 C 0.6837(8) 0.8469(6) 0.6408(18)
H2_7 H 0.6960 0.8570 0.5095
C8_7 C 0.6571(8) 0.7778(7) 0.9097(17)
C1_8 C 0.0874(8) 0.7381(12) 0.092(2)
C3_8 C 0.1802(6) 0.8299(10) 0.0259(18)
H1_8 H 0.1903 0.8277 0.1572
C2_8 C 0.1252(6) 0.7849(8) 0.9543(17)
C4_8 C 0.1111(7) 0.7874(11) 0.7570(17)
C5_8 C 0.2459(8) 0.9286(12) 0.575(2)
C6_8 C 0.2081(6) 0.8818(8) 0.7124(17)
C7_8 C 0.1531(6) 0.8368(10) 0.6408(18)
H2_8 H 0.1430 0.8390 0.5095
C8_8 C 0.2222(7) 0.8793(11) 0.9097(17)
C1_9 C 0.2619(12) 0.3494(9) 0.092(2)
C3_9 C 0.1701(10) 0.3504(8) 0.0259(18)
H1_9 H 0.1723 0.3627 0.1572
C2_9 C 0.2151(8) 0.3404(6) 0.9543(17)
C4_9 C 0.2126(11) 0.3238(8) 0.7570(17)
C5_9 C 0.0714(12) 0.3173(9) 0.575(2)
C6_9 C 0.1182(8) 0.3263(6) 0.7124(17)
C7_9 C 0.1632(10) 0.3163(8) 0.6408(18)
H2_9 H 0.1610 0.3040 0.5095
C8_9 C 0.1207(11) 0.3429(8) 0.9097(17)
loop_
_geom_bond_atom_site_label_1
_geom_bond_atom_site_label_2
_geom_bond_site_symmetry_1
_geom_bond_site_symmetry_2
Co1 O1 1_555 1_555
O1 C4 1_555 1_555
O2 Co1 1_555 1_555
O3 C1 1_555 1_555
C1 O2 1_555 1_555
C2 C1 1_555 1_555
C3 C2 1_555 1_555
H1 C3 1_555 1_555
C4 C2 1_555 1_555
O4 C8 1_555 1_555
C8 C3 1_555 1_555
Co3 O2 1_555 1_555
Co5 O3 1_555 1_555
Co8 O4 1_555 1_555
O7 Co1 1_555 1_555
O10 Co1 1_555 1_555
C6 C8 1_555 1_555
Co3 O7 1_555 1_555
O5 C5 1_555 1_555
O6 C5 1_555 1_555
H2 C7 1_555 1_555
Co8 O6 1_555 1_555
Co8 O9 1_555 1_555
O8 Co2 1_555 1_555
O11 Co2 1_555 1_555
O8_2 Co2_2 1_555 1_555
O11_2 Co2_2 1_555 1_555
Co1_2 O1_2 1_555 1_555
O1_2 C4_2 1_555 1_555
O2_2 Co1_2 1_555 1_555
O3_2 C1_2 1_555 1_555
C1_2 O2_2 1_555 1_555
C2_2 C1_2 1_555 1_555
C3_2 C2_2 1_555 1_555
H1_2 C3_2 1_555 1_555
C4_2 C2_2 1_555 1_555
O4_2 C8_2 1_555 1_555
C8_2 C3_2 1_555 1_555
Co5_2 O3_2 1_555 1_555
Co8_2 O4_2 1_555 1_555
C6_2 C8_2 1_555 1_555
O5_2 C5_2 1_555 1_555
O6_2 C5_2 1_555 1_555
H2_2 C7_2 1_555 1_555
Co8_2 O6_2 1_555 1_555
Co8_2 O9_2 1_555 1_555
Co3_2 O7_2 1_555 1_555
Co3_3 O7_3 1_555 1_555
Co1_3 O1_3 1_555 1_555
O1_3 C4_3 1_555 1_555
O2_3 Co1_3 1_555 1_555
O3_3 C1_3 1_555 1_555
C1_3 O2_3 1_555 1_555
C2_3 C1_3 1_555 1_555
C3_3 C2_3 1_555 1_555
H1_3 C3_3 1_555 1_555
C4_3 C2_3 1_555 1_555
O4_3 C8_3 1_555 1_555
C8_3 C3_3 1_555 1_555
Co5_3 O3_3 1_555 1_555
Co6_3 O4_3 1_555 1_555
Co8_3 O4_3 1_555 1_555
C6_3 C8_3 1_555 1_555
O5_3 C5_3 1_555 1_555
O6_3 C5_3 1_555 1_555
H2_3 C7_3 1_555 1_555
Co2_3 O5_3 1_555 1_555
Co8_3 O6_3 1_555 1_555
O8_3 Co2_3 1_555 1_555
O9_3 Co2_3 1_555 1_555
O11_3 Co2_3 1_555 1_555
Co8_3 O9_3 1_555 1_555
Co8_3 O11_3 1_555 1_555
O7_3 C4_4 1_555 1_555
O5_4 C5_4 1_555 1_555
O13_2 C5_4 1_555 1_555
C5_4 C6_4 1_555 1_555
C6_4 C7_4 1_555 1_555
C7_4 C4_4 1_555 1_555
H2_4 C7_4 1_555 1_555
Co6_2 O5_4 1_555 1_555
O7_4 Co3_3 1_555 1_555
O12_4 Co3_3 1_555 1_555
O13_4 Co6_2 1_555 1_555
O12_3 C1_4 1_555 1_555
C1_4 O2_4 1_555 1_555
C2_4 C1_4 1_555 1_555
C3_4 C2_4 1_555 1_555
H1_4 C3_4 1_555 1_555
O9_2 C8_4 1_555 1_555
C8_4 C3_4 1_555 1_555
Co5_3 O2_4 1_555 1_555
O7 C4_5 1_555 1_555
O2_5 Co3 1_555 1_555
O12 C1_5 1_555 1_555
C1_5 O2_5 1_555 1_555
C2_5 C1_5 1_555 1_555
C3_5 C2_5 1_555 1_555
H1_5 C3_5 1_555 1_555
C4_5 C2_5 1_555 1_555
O9_3 C8_5 1_555 1_555
O5_5 C5_5 1_555 1_555
O13_3 C5_5 1_555 1_555
C5_5 C6_5 1_555 1_555
C6_5 C7_5 1_555 1_555
C7_5 C4_5 1_555 1_555
H2_5 C7_5 1_555 1_555
C8_5 C3_5 1_555 1_555
Co6_3 O5_5 1_555 1_555
Co5 O2_5 1_555 1_555
O7_5 Co3 1_555 1_555
O12_5 Co3 1_555 1_555
O13_5 Co6_3 1_555 1_555
O5_5 Co8_3 1_555 1_555
C6_5 C8_5 1_555 1_555
Co5 O7_5 1_555 1_555
O12_2 C1_6 1_555 1_555
C1_6 O2_6 1_555 1_555
C2_6 C1_6 1_555 1_555
C3_6 C2_6 1_555 1_555
H1_6 C3_6 1_555 1_555
O9 C8_6 1_555 1_555
C8_6 C3_6 1_555 1_555
Co5_2 O2_6 1_555 1_555
O7_2 C4_6 1_555 1_555
O5_6 C5_6 1_555 1_555
O13 C5_6 1_555 1_555
C5_6 C6_6 1_555 1_555
C6_6 C7_6 1_555 1_555
C7_6 C4_6 1_555 1_555
H2_6 C7_6 1_555 1_555
Co6 O5_6 1_555 1_555
O7_6 Co3_2 1_555 1_555
O12_6 Co3_2 1_555 1_555
O13_6 Co6 1_555 1_555
O12_6 C1_7 1_555 1_555
C1_7 O10_2 1_555 1_555
H1_7 C3_7 1_555 1_555
O7_6 C4_7 1_555 1_555
C4_7 C2_7 1_555 1_555
O8_3 C8_7 1_555 1_555
O11_3 C5_7 1_555 1_555
O13_5 C5_7 1_555 1_555
C5_7 C6_7 1_555 1_555
C6_7 C7_7 1_555 1_555
C7_7 C4_7 1_555 1_555
H2_7 C7_7 1_555 1_555
C6_7 C8_7 1_555 1_555
O12_4 C1_8 1_555 1_555
C1_8 O10_3 1_555 1_555
H1_8 C3_8 1_555 1_555
O7_4 C4_8 1_555 1_555
C4_8 C2_8 1_555 1_555
O8 C8_8 1_555 1_555
O11 C5_8 1_555 1_555
O13_6 C5_8 1_555 1_555
C5_8 C6_8 1_555 1_555
C6_8 C7_8 1_555 1_555
C7_8 C4_8 1_555 1_555
H2_8 C7_8 1_555 1_555
C6_8 C8_8 1_555 1_555
O12_5 C1_9 1_555 1_555
C1_9 O10 1_555 1_555
H1_9 C3_9 1_555 1_555
O7_5 C4_9 1_555 1_555
C4_9 C2_9 1_555 1_555
O8_2 C8_9 1_555 1_555
O11_2 C5_9 1_555 1_555
O13_4 C5_9 1_555 1_555
C5_9 C6_9 1_555 1_555
C6_9 C7_9 1_555 1_555
C7_9 C4_9 1_555 1_555
H2_9 C7_9 1_555 1_555
C6_9 C8_9 1_555 1_555

#END
