
###############################################################################
#
# This file contains modified crystal structure data generated from the
# MOF subset of the Cambridge Structural Database (CSD) v543 
# hosted by the Cambridge Crystallographic Data Centre (CCDC).
#
# This work is licensed under the Creative Commons
# Attribution-NonCommercial-ShareAlike 4.0 International License.
# To view a copy of this license, visit
# http://creativecommons.org/licenses/by-nc-sa/4.0/
# or send a letter to
# Creative Commons, PO Box 1866, Mountain View, CA 94042, USA.
#
# CIF created using the CSD Python API on 29 September 2022
# The structure has been converted into the P1 space group
# The structure has a 3D framework
# The original CSD entry OQOFUY is in the tetragonal crystal system
# The framework has been calculated to contain at least 10.0% void space
# The void calculation uses a probe of radius 1.32A, grid spacing 0.4
#
###############################################################################

data_OQOFUY
_chemical_formula_moiety         '(C80 H48 Cu6 F30 N16 Zr9)n'
_symmetry_cell_setting           triclinic
_symmetry_space_group_name_H-M   'P 1'
_symmetry_Int_Tables_number      1
_space_group_name_Hall           'P 1'
loop_
_symmetry_equiv_pos_site_id
_symmetry_equiv_pos_as_xyz
1 x,y,z
_cell_length_a                   13.692
_cell_length_b                   13.692
_cell_length_c                   8.663
_cell_angle_alpha                90
_cell_angle_beta                 90
_cell_angle_gamma                90
_cell_volume                     1624.06
loop_
_atom_site_label
_atom_site_type_symbol
_atom_site_fract_x
_atom_site_fract_y
_atom_site_fract_z
C5 C 0.500000 0.1998(4) 0.1344(6)
H3 H 0.500000 0.166743 0.230760
N2 N 0.500000 0.3519(3) 0.000000
C6 C 0.500000 0.1478(5) 0.000000
C7 C 0.500000 0.0431(6) 0.000000
C8 C 0.500000 0.3025(4) 0.1297(7)
H4 H 0.500000 0.337491 0.224348
Cu3 Cu 0.500000 0.500000 0.000000
N2_2 N 0.500000 0.3519(3) 1.000000
C6_2 C 0.500000 0.1478(5) 1.000000
C7_2 C 0.500000 0.0431(6) 1.000000
C11 C 0.500000 0.1998(4) 0.8656(6)
H7 H 0.500000 0.166743 0.769240
C12 C 0.500000 0.3025(4) 0.8703(7)
H8 H 0.500000 0.337491 0.775652
Cu3_2 Cu 0.500000 0.500000 1.000000
Zr1 Zr 0.500000 0.500000 0.500000
C1 C 0.500000 0.8002(4) 0.1344(6)
H1 H 0.500000 0.833257 0.230760
F1 F 0.500000 0.500000 0.2684(5)
N1 N 0.500000 0.6481(3) 0.000000
F2 F 0.3557(4) 0.500000 0.500000
C2 C 0.500000 0.8522(5) 0.000000
C3 C 0.500000 0.9569(6) 0.000000
C4 C 0.500000 0.6975(4) 0.1297(7)
H2 H 0.500000 0.662509 0.224348
F3 F 0.6443(4) 0.500000 0.500000
F4 F 0.500000 0.3557(4) 0.500000
F6 F 0.500000 0.6443(4) 0.500000
F7 F 0.500000 0.500000 0.7316(5)
N5 N 0.3519(3) 0.500000 0.000000
N6 N 0.6481(3) 0.500000 0.000000
N1_2 N 0.500000 0.6481(3) 1.000000
C2_2 C 0.500000 0.8522(5) 1.000000
C3_2 C 0.500000 0.9569(6) 1.000000
C9 C 0.500000 0.8002(4) 0.8656(6)
H5 H 0.500000 0.833257 0.769240
C10 C 0.500000 0.6975(4) 0.8703(7)
H6 H 0.500000 0.662509 0.775652
N5_2 N 0.3519(3) 0.500000 1.000000
N6_2 N 0.6481(3) 0.500000 1.000000
C17 C 0.1998(4) 0.500000 0.1344(6)
H11 H 0.166743 0.500000 0.230760
C18 C 0.1478(5) 0.500000 0.000000
C19 C 0.0431(6) 0.500000 0.000000
C20 C 0.3025(4) 0.500000 0.1297(7)
H12 H 0.337491 0.500000 0.224348
C18_2 C 0.1478(5) 0.500000 1.000000
C19_2 C 0.0431(6) 0.500000 1.000000
C23 C 0.1998(4) 0.500000 0.8656(6)
H15 H 0.166743 0.500000 0.769240
C24 C 0.3025(4) 0.500000 0.8703(7)
H16 H 0.337491 0.500000 0.775652
C13 C 0.8002(4) 0.500000 0.1344(6)
H9 H 0.833257 0.500000 0.230760
C14 C 0.8522(5) 0.500000 0.000000
C15 C 0.9569(6) 0.500000 0.000000
C16 C 0.6975(4) 0.500000 0.1297(7)
H10 H 0.662509 0.500000 0.224348
C14_2 C 0.8522(5) 0.500000 1.000000
C15_2 C 0.9569(6) 0.500000 1.000000
C21 C 0.8002(4) 0.500000 0.8656(6)
H13 H 0.833257 0.500000 0.769240
C22 C 0.6975(4) 0.500000 0.8703(7)
H14 H 0.662509 0.500000 0.775652
Cu3_3 Cu -0.000000 0.000000 0.500000
Zr1_2 Zr -0.000000 0.000000 0.000000
F3_2 F 0.1443(4) 0.000000 0.000000
F6_2 F -0.000000 0.1443(4) 0.000000
F7_2 F -0.000000 -0.000000 0.2316(5)
Zr1_3 Zr -0.000000 0.000000 1.000000
C1_2 C -0.000000 0.3002(4) 0.6344(6)
H1_2 H -0.000000 0.333257 0.730760
F1_2 F -0.000000 0.000000 0.7684(5)
N1_3 N -0.000000 0.1481(3) 0.500000
C2_3 C -0.000000 0.3522(5) 0.500000
C3_3 C -0.000000 0.4569(6) 0.500000
C4_2 C -0.000000 0.1975(4) 0.6297(7)
H2_2 H -0.000000 0.162509 0.724348
C5_2 C -0.000000 0.6998(4) 0.6344(6)
H3_2 H -0.000000 0.666743 0.730760
N2_3 N -0.000000 0.8519(3) 0.500000
C6_3 C -0.000000 0.6478(5) 0.500000
C7_3 C -0.000000 0.5431(6) 0.500000
C8_2 C -0.000000 0.8025(4) 0.6297(7)
H4_2 H -0.000000 0.837491 0.724348
C9_2 C -0.000000 0.3002(4) 0.3656(6)
H5_2 H -0.000000 0.333257 0.269240
C10_2 C -0.000000 0.1975(4) 0.3703(7)
H6_2 H -0.000000 0.162509 0.275652
C11_2 C -0.000000 0.6998(4) 0.3656(6)
H7_2 H -0.000000 0.666743 0.269240
C12_2 C -0.000000 0.8025(4) 0.3703(7)
H8_2 H -0.000000 0.837491 0.275652
F3_3 F 0.1443(4) 0.000000 1.000000
F6_3 F -0.000000 0.1443(4) 1.000000
Cu3_4 Cu -0.000000 1.000000 0.500000
N6_3 N 0.1481(3) 0.000000 0.500000
Zr1_4 Zr -0.000000 1.000000 0.000000
F3_4 F 0.1443(4) 1.000000 0.000000
F4_2 F 0.000000 0.8557(4) 0.000000
F7_3 F -0.000000 1.000000 0.2316(5)
Zr1_5 Zr -0.000000 1.000000 1.000000
F1_3 F -0.000000 1.000000 0.7684(5)
F3_5 F 0.1443(4) 1.000000 1.000000
F4_3 F -0.000000 0.8557(4) 1.000000
N6_4 N 0.1481(3) 1.000000 0.500000
Cu3_5 Cu 1.000000 0.000000 0.500000
Zr1_6 Zr 1.000000 0.000000 0.000000
F2_2 F 0.8557(4) 0.000000 0.000000
F6_4 F 1.000000 0.1443(4) 0.000000
F7_4 F 1.000000 -0.000000 0.2316(5)
Zr1_7 Zr 1.000000 0.000000 1.000000
C1_3 C 1.000000 0.3002(4) 0.6344(6)
H1_3 H 1.000000 0.333257 0.730760
F1_4 F 1.000000 0.000000 0.7684(5)
N1_4 N 1.000000 0.1481(3) 0.500000
F2_3 F 0.8557(4) 0.000000 1.000000
C2_4 C 1.000000 0.3522(5) 0.500000
C3_4 C 1.000000 0.4569(6) 0.500000
C4_3 C 1.000000 0.1975(4) 0.6297(7)
H2_3 H 1.000000 0.162509 0.724348
C5_3 C 1.000000 0.6998(4) 0.6344(6)
H3_3 H 1.000000 0.666743 0.730760
N2_4 N 1.000000 0.8519(3) 0.500000
C6_4 C 1.000000 0.6478(5) 0.500000
C7_4 C 1.000000 0.5431(6) 0.500000
C8_3 C 1.000000 0.8025(4) 0.6297(7)
H4_3 H 1.000000 0.837491 0.724348
C9_3 C 1.000000 0.3002(4) 0.3656(6)
H5_3 H 1.000000 0.333257 0.269240
C10_3 C 1.000000 0.1975(4) 0.3703(7)
H6_3 H 1.000000 0.162509 0.275652
C11_3 C 1.000000 0.6998(4) 0.3656(6)
H7_3 H 1.000000 0.666743 0.269240
C12_3 C 1.000000 0.8025(4) 0.3703(7)
H8_3 H 1.000000 0.837491 0.275652
F6_5 F 1.000000 0.1443(4) 1.000000
Cu3_6 Cu 1.000000 1.000000 0.500000
N5_3 N 0.8519(3) 0.000000 0.500000
Zr1_8 Zr 1.000000 1.000000 0.000000
F2_4 F 0.8557(4) 1.000000 0.000000
F4_4 F 1.000000 0.8557(4) 0.000000
F7_5 F 1.000000 1.000000 0.2316(5)
Zr1_9 Zr 1.000000 1.000000 1.000000
F1_5 F 1.000000 1.000000 0.7684(5)
F2_5 F 0.8557(4) 1.000000 1.000000
F4_5 F 1.000000 0.8557(4) 1.000000
N5_4 N 0.8519(3) 1.000000 0.500000
C13_2 C 0.3002(4) 0.000000 0.6344(6)
H9_2 H 0.333257 0.000000 0.730760
C14_3 C 0.3522(5) 0.000000 0.500000
C15_3 C 0.4569(6) 0.000000 0.500000
C16_2 C 0.1975(4) -0.000000 0.6297(7)
H10_2 H 0.162509 0.000000 0.724348
C17_2 C 0.6998(4) 0.000000 0.6344(6)
H11_2 H 0.666743 0.000000 0.730760
C18_3 C 0.6478(5) 0.000000 0.500000
C19_3 C 0.5431(6) 0.000000 0.500000
C20_2 C 0.8025(4) -0.000000 0.6297(7)
H12_2 H 0.837491 0.000000 0.724348
C21_2 C 0.3002(4) 0.000000 0.3656(6)
H13_2 H 0.333257 -0.000000 0.269240
C22_2 C 0.1975(4) 0.000000 0.3703(7)
H14_2 H 0.162509 0.000000 0.275652
C23_2 C 0.6998(4) 0.000000 0.3656(6)
H15_2 H 0.666743 -0.000000 0.269240
C24_2 C 0.8025(4) 0.000000 0.3703(7)
H16_2 H 0.837491 0.000000 0.275652
C13_3 C 0.3002(4) 1.000000 0.6344(6)
H9_3 H 0.333257 1.000000 0.730760
C14_4 C 0.3522(5) 1.000000 0.500000
C15_4 C 0.4569(6) 1.000000 0.500000
C16_3 C 0.1975(4) 1.000000 0.6297(7)
H10_3 H 0.162509 1.000000 0.724348
C17_3 C 0.6998(4) 1.000000 0.6344(6)
H11_3 H 0.666743 1.000000 0.730760
C18_4 C 0.6478(5) 1.000000 0.500000
C19_4 C 0.5431(6) 1.000000 0.500000
C20_3 C 0.8025(4) 1.000000 0.6297(7)
H12_3 H 0.837491 1.000000 0.724348
C21_3 C 0.3002(4) 1.000000 0.3656(6)
H13_3 H 0.333257 1.000000 0.269240
C22_3 C 0.1975(4) 1.000000 0.3703(7)
H14_3 H 0.162509 1.000000 0.275652
C23_3 C 0.6998(4) 1.000000 0.3656(6)
H15_3 H 0.666743 1.000000 0.269240
C24_3 C 0.8025(4) 1.000000 0.3703(7)
H16_3 H 0.837491 1.000000 0.275652
loop_
_geom_bond_atom_site_label_1
_geom_bond_atom_site_label_2
_geom_bond_site_symmetry_1
_geom_bond_site_symmetry_2
C5 H3 1_555 1_555
N2 C8 1_555 1_555
C6 C5 1_555 1_555
C8 C5 1_555 1_555
H4 C8 1_555 1_555
Cu3 N2 1_555 1_555
C6 C7 1_555 1_555
C11 C6_2 1_555 1_555
H7 C11 1_555 1_555
C12 N2_2 1_555 1_555
H8 C12 1_555 1_555
Cu3_2 N2_2 1_555 1_555
C6_2 C7_2 1_555 1_555
C11 C12 1_555 1_555
Zr1 F1 1_555 1_555
C1 H1 1_555 1_555
F1 Cu3 1_555 1_555
Cu3 N1 1_555 1_555
N1 C4 1_555 1_555
F2 Zr1 1_555 1_555
C2 C1 1_555 1_555
C3 C2 1_555 1_555
C4 C1 1_555 1_555
H2 C4 1_555 1_555
F3 Zr1 1_555 1_555
F4 Zr1 1_555 1_555
F6 Zr1 1_555 1_555
F7 Zr1 1_555 1_555
N5 Cu3 1_555 1_555
N6 Cu3 1_555 1_555
Cu3_2 N1_2 1_555 1_555
C3_2 C2_2 1_555 1_555
C9 C2_2 1_555 1_555
H5 C9 1_555 1_555
C10 N1_2 1_555 1_555
H6 C10 1_555 1_555
F7 Cu3_2 1_555 1_555
N5_2 Cu3_2 1_555 1_555
N6_2 Cu3_2 1_555 1_555
C9 C10 1_555 1_555
C17 H11 1_555 1_555
N5 C20 1_555 1_555
C18 C17 1_555 1_555
C20 C17 1_555 1_555
H12 C20 1_555 1_555
C18 C19 1_555 1_555
C23 C18_2 1_555 1_555
H15 C23 1_555 1_555
C24 N5_2 1_555 1_555
H16 C24 1_555 1_555
C18_2 C19_2 1_555 1_555
C23 C24 1_555 1_555
C13 H9 1_555 1_555
C14 C13 1_555 1_555
C15 C14 1_555 1_555
C16 C13 1_555 1_555
H10 C16 1_555 1_555
N6 C16 1_555 1_555
C15_2 C14_2 1_555 1_555
C21 C14_2 1_555 1_555
H13 C21 1_555 1_555
C22 N6_2 1_555 1_555
H14 C22 1_555 1_555
C21 C22 1_555 1_555
F3_2 Zr1_2 1_555 1_555
F6_2 Zr1_2 1_555 1_555
F7_2 Zr1_2 1_555 1_555
Zr1_3 F1_2 1_555 1_555
C1_2 H1_2 1_555 1_555
F1_2 Cu3_3 1_555 1_555
Cu3_3 N1_3 1_555 1_555
N1_3 C4_2 1_555 1_555
C2_3 C1_2 1_555 1_555
C3_3 C2_3 1_555 1_555
C4_2 C1_2 1_555 1_555
H2_2 C4_2 1_555 1_555
C5_2 H3_2 1_555 1_555
N2_3 C8_2 1_555 1_555
C6_3 C5_2 1_555 1_555
C7_3 C3_3 1_555 1_555
C8_2 C5_2 1_555 1_555
H4_2 C8_2 1_555 1_555
C9_2 C2_3 1_555 1_555
H5_2 C9_2 1_555 1_555
C10_2 N1_3 1_555 1_555
H6_2 C10_2 1_555 1_555
C11_2 C6_3 1_555 1_555
H7_2 C11_2 1_555 1_555
C12_2 N2_3 1_555 1_555
H8_2 C12_2 1_555 1_555
F3_3 Zr1_3 1_555 1_555
F7_2 Cu3_3 1_555 1_555
F6_3 Zr1_3 1_555 1_555
Cu3_4 N2_3 1_555 1_555
N6_3 Cu3_3 1_555 1_555
C6_3 C7_3 1_555 1_555
C9_2 C10_2 1_555 1_555
C11_2 C12_2 1_555 1_555
F3_4 Zr1_4 1_555 1_555
F4_2 Zr1_4 1_555 1_555
F7_3 Zr1_4 1_555 1_555
Zr1_5 F1_3 1_555 1_555
F1_3 Cu3_4 1_555 1_555
F3_5 Zr1_5 1_555 1_555
F4_3 Zr1_5 1_555 1_555
F7_3 Cu3_4 1_555 1_555
N6_4 Cu3_4 1_555 1_555
F2_2 Zr1_6 1_555 1_555
F6_4 Zr1_6 1_555 1_555
F7_4 Zr1_6 1_555 1_555
Zr1_7 F1_4 1_555 1_555
C1_3 H1_3 1_555 1_555
F1_4 Cu3_5 1_555 1_555
Cu3_5 N1_4 1_555 1_555
N1_4 C4_3 1_555 1_555
F2_3 Zr1_7 1_555 1_555
C2_4 C1_3 1_555 1_555
C3_4 C2_4 1_555 1_555
C4_3 C1_3 1_555 1_555
H2_3 C4_3 1_555 1_555
C5_3 H3_3 1_555 1_555
N2_4 C8_3 1_555 1_555
C6_4 C5_3 1_555 1_555
C7_4 C3_4 1_555 1_555
C8_3 C5_3 1_555 1_555
H4_3 C8_3 1_555 1_555
C9_3 C2_4 1_555 1_555
H5_3 C9_3 1_555 1_555
C10_3 N1_4 1_555 1_555
H6_3 C10_3 1_555 1_555
C11_3 C6_4 1_555 1_555
H7_3 C11_3 1_555 1_555
C12_3 N2_4 1_555 1_555
H8_3 C12_3 1_555 1_555
F7_4 Cu3_5 1_555 1_555
F6_5 Zr1_7 1_555 1_555
Cu3_6 N2_4 1_555 1_555
N5_3 Cu3_5 1_555 1_555
C6_4 C7_4 1_555 1_555
C9_3 C10_3 1_555 1_555
C11_3 C12_3 1_555 1_555
F2_4 Zr1_8 1_555 1_555
F4_4 Zr1_8 1_555 1_555
F7_5 Zr1_8 1_555 1_555
Zr1_9 F1_5 1_555 1_555
F1_5 Cu3_6 1_555 1_555
F2_5 Zr1_9 1_555 1_555
F4_5 Zr1_9 1_555 1_555
F7_5 Cu3_6 1_555 1_555
N5_4 Cu3_6 1_555 1_555
C13_2 H9_2 1_555 1_555
C14_3 C13_2 1_555 1_555
C15_3 C14_3 1_555 1_555
C16_2 C13_2 1_555 1_555
H10_2 C16_2 1_555 1_555
C17_2 H11_2 1_555 1_555
N5_3 C20_2 1_555 1_555
C18_3 C17_2 1_555 1_555
C19_3 C15_3 1_555 1_555
C20_2 C17_2 1_555 1_555
H12_2 C20_2 1_555 1_555
C21_2 C14_3 1_555 1_555
H13_2 C21_2 1_555 1_555
C22_2 N6_3 1_555 1_555
H14_2 C22_2 1_555 1_555
C23_2 C18_3 1_555 1_555
H15_2 C23_2 1_555 1_555
C24_2 N5_3 1_555 1_555
H16_2 C24_2 1_555 1_555
N6_3 C16_2 1_555 1_555
C18_3 C19_3 1_555 1_555
C21_2 C22_2 1_555 1_555
C23_2 C24_2 1_555 1_555
C13_3 H9_3 1_555 1_555
C14_4 C13_3 1_555 1_555
C15_4 C14_4 1_555 1_555
C16_3 C13_3 1_555 1_555
H10_3 C16_3 1_555 1_555
C17_3 H11_3 1_555 1_555
N5_4 C20_3 1_555 1_555
C18_4 C17_3 1_555 1_555
C19_4 C15_4 1_555 1_555
C20_3 C17_3 1_555 1_555
H12_3 C20_3 1_555 1_555
C21_3 C14_4 1_555 1_555
H13_3 C21_3 1_555 1_555
C22_3 N6_4 1_555 1_555
H14_3 C22_3 1_555 1_555
C23_3 C18_4 1_555 1_555
H15_3 C23_3 1_555 1_555
C24_3 N5_4 1_555 1_555
H16_3 C24_3 1_555 1_555
N6_4 C16_3 1_555 1_555
C18_4 C19_4 1_555 1_555
C21_3 C22_3 1_555 1_555
C23_3 C24_3 1_555 1_555

#END
