
###############################################################################
#
# This file contains modified crystal structure data generated from the
# MOF subset of the Cambridge Structural Database (CSD) v543 
# hosted by the Cambridge Crystallographic Data Centre (CCDC).
#
# This work is licensed under the Creative Commons
# Attribution-NonCommercial-ShareAlike 4.0 International License.
# To view a copy of this license, visit
# http://creativecommons.org/licenses/by-nc-sa/4.0/
# or send a letter to
# Creative Commons, PO Box 1866, Mountain View, CA 94042, USA.
#
# CIF created using the CSD Python API on 29 September 2022
# The structure has been converted into the P1 space group
# The structure has a 3D framework
# The original CSD entry OQOLIS is in the monoclinic crystal system
# The framework has been calculated to contain at least 10.0% void space
# The void calculation uses a probe of radius 1.32A, grid spacing 0.4
#
###############################################################################

data_OQOLIS
_chemical_formula_moiety         '(C48 H32 Dy4 N12 O34)n'
_symmetry_cell_setting           triclinic
_symmetry_space_group_name_H-M   'P 1'
_symmetry_Int_Tables_number      1
_space_group_name_Hall           'P 1'
loop_
_symmetry_equiv_pos_site_id
_symmetry_equiv_pos_as_xyz
1 x,y,z
_cell_length_a                   10.0804(3)
_cell_length_b                   16.9849(4)
_cell_length_c                   11.1414(4)
_cell_angle_alpha                90
_cell_angle_beta                 109.080(4)
_cell_angle_gamma                90
_cell_volume                     1802.77
loop_
_atom_site_label
_atom_site_type_symbol
_atom_site_fract_x
_atom_site_fract_y
_atom_site_fract_z
Dy1 Dy 0.51262(2) 0.004289(12) 0.18246(2)
N1 N 0.4495(4) 0.1304(2) 0.3797(4)
O4 O 0.5280(4) 0.41628(18) 0.4838(3)
O5 O 0.7136(4) 0.03035(19) 0.3827(4)
O6 O 0.5700(4) 0.36013(18) 0.6703(3)
O8 O 0.4183(4) 0.05939(17) 0.3272(3)
C2 C 0.3972(6) 0.1953(3) 0.3101(5)
H2 H 0.3398 0.1903 0.2261
C5 C 0.5399(5) 0.3555(3) 0.5522(5)
C8 C 0.5598(6) 0.2082(3) 0.5600(5)
H5 H 0.6124 0.2118 0.6456
C10 C 0.5113(5) 0.2760(3) 0.4900(5)
C11 C 0.4292(6) 0.2685(3) 0.3638(5)
H7 H 0.3956 0.3133 0.3152
C12 C 0.5300(5) 0.1358(3) 0.5027(5)
H8 H 0.5653 0.0904 0.5488
Dy3 Dy 0.48738(2) 0.504289(12) 0.31754(2)
Dy5 Dy 0.51262(2) 0.495711(12) 0.68246(2)
O11 O 0.2932(4) 0.05094(18) 0.0512(3)
O14 O 0.5700(4) 0.13987(18) 0.1703(3)
O13 O 0.5280(4) 0.08372(18) 0.9838(3)
O1 O 0.3540(4) 0.91178(19) 0.2156(3)
O7 O 0.6413(4) 0.91048(19) 0.3404(4)
N2 N 0.2157(4) 0.9191(2) 0.1817(4)
O9 O 0.8303(4) 0.9344(2) 0.5001(4)
C4 C 0.1350(6) 0.8917(3) 0.0679(5)
H3 H 0.1761 0.8664 0.0150
N3 N 0.7318(5) 0.9580(3) 0.4106(4)
C6 C 0.0149(6) 0.9632(3) 0.2276(5)
C9 C 0.1588(6) 0.9545(3) 0.2618(5)
H6 H 0.2165 0.9730 0.3400
O10 O 0.7271(4) 0.97976(19) 0.1510(3)
O12 O 0.4720(4) 0.91628(18) 0.0162(3)
C1 C 0.9912(6) 0.9012(3) 0.0298(5)
C3 C 0.9292(5) 0.9391(3) 0.1087(5)
H4 H 0.9755 0.9852 0.2845
C7 C 0.7742(6) 0.9567(3) 0.0656(5)
O3 O 0.7068(4) 0.94906(18) 0.9488(3)
H1 H 0.9355 0.8822 0.9512
Dy4 Dy 0.48738(2) 0.995711(12) 0.81754(2)
O2 O 0.2729(4) 0.47976(19) 0.3490(3)
O3_2 O 0.2932(4) 0.44906(18) 0.5512(3)
C1_2 C 0.0088(6) 0.4012(3) 0.4702(5)
H1_2 H 0.0645 0.3822 0.5488
C3_2 C 0.0708(5) 0.4391(3) 0.3913(5)
H4_2 H 0.0245 0.4852 0.2155
C7_2 C 0.2258(6) 0.4567(3) 0.4344(5)
O1_2 O 0.6460(4) 0.41178(19) 0.2844(3)
N1_2 N 0.5505(4) 0.6304(2) 0.1203(4)
O5_2 O 0.2864(4) 0.53035(19) 0.1173(4)
O7_2 O 0.3587(4) 0.41048(19) 0.1596(4)
O8_2 O 0.5817(4) 0.55939(17) 0.1728(3)
N2_2 N 0.7843(4) 0.4191(2) 0.3183(4)
C2_2 C 0.6028(6) 0.6953(3) 0.1899(5)
H2_2 H 0.6602 0.6903 0.2739
C4_2 C 0.8650(6) 0.3917(3) 0.4321(5)
H3_2 H 0.8239 0.3664 0.4850
N3_2 N 0.2682(5) 0.4580(3) 0.0894(4)
C6_2 C 0.9851(6) 0.4632(3) 0.2724(5)
C9_2 C 0.8412(6) 0.4545(3) 0.2382(5)
H6_2 H 0.7835 0.4730 0.1600
C10_2 C 0.4887(5) 0.7760(3) 0.0100(5)
C11_2 C 0.5708(6) 0.7685(3) 0.1362(5)
H7_2 H 0.6044 0.8133 0.1848
O11_2 O 0.7068(4) 0.55094(18) 0.4488(3)
O13_2 O 0.4720(4) 0.58372(18) 0.5162(3)
O14_2 O 0.4300(4) 0.63987(18) 0.3297(3)
O6_2 O 0.4300(4) 0.86013(18) 0.8297(3)
O9_2 O 0.1697(4) 0.4344(2) 0.9999(4)
C5_2 C 0.4601(5) 0.8555(3) 0.9478(5)
C8_2 C 0.4402(6) 0.7082(3) 0.9400(5)
H5_2 H 0.3876 0.7118 0.8544
C12_2 C 0.4700(5) 0.6358(3) 0.9973(5)
H8_2 H 0.4347 0.5904 0.9512
H1_3 H 0.0645 0.1178 0.0488
O2_2 O 0.2729(4) 0.02024(19) 0.8490(3)
C1_3 C 0.0088(6) 0.0988(3) 0.9702(5)
C3_3 C 0.0708(5) 0.0609(3) 0.8913(5)
H4_3 H 0.0245 0.0148 0.7155
C7_3 C 0.2258(6) 0.0433(3) 0.9344(5)
O1_3 O 0.6460(4) 0.08822(19) 0.7844(3)
O7_3 O 0.3587(4) 0.08952(19) 0.6596(4)
N2_3 N 0.7843(4) 0.0809(2) 0.8183(4)
O9_3 O 0.1697(4) 0.0656(2) 0.4999(4)
C4_3 C 0.8650(6) 0.1083(3) 0.9321(5)
H3_3 H 0.8239 0.1336 0.9850
N3_3 N 0.2682(5) 0.0420(3) 0.5894(4)
C6_3 C 0.9851(6) 0.0368(3) 0.7724(5)
C9_3 C 0.8412(6) 0.0455(3) 0.7382(5)
H6_3 H 0.7835 0.0270 0.6600
N1_3 N 0.5505(4) 0.8696(2) 0.6203(4)
O5_3 O 0.2864(4) 0.96965(19) 0.6173(4)
O8_3 O 0.5817(4) 0.94061(17) 0.6728(3)
C2_3 C 0.6028(6) 0.8047(3) 0.6899(5)
H2_3 H 0.6602 0.8097 0.7739
C5_3 C 0.4601(5) 0.6445(3) 0.4478(5)
C8_3 C 0.4402(6) 0.7918(3) 0.4400(5)
H5_3 H 0.3876 0.7882 0.3544
C10_3 C 0.4887(5) 0.7240(3) 0.5100(5)
C11_3 C 0.5708(6) 0.7315(3) 0.6362(5)
H7_3 H 0.6044 0.6867 0.6848
C12_3 C 0.4700(5) 0.8642(3) 0.4973(5)
H8_3 H 0.4347 0.9096 0.4512
O9_4 O 0.8303(4) 0.5656(2) 0.0001(4)
C5_4 C 0.5399(5) 0.1445(3) 0.0522(5)
C8_4 C 0.5598(6) 0.2918(3) 0.0600(5)
H5_4 H 0.6124 0.2882 0.1456
C12_4 C 0.5300(5) 0.3642(3) 0.0027(5)
H8_4 H 0.5653 0.4096 0.0488
O1_4 O 0.3540(4) 0.58822(19) 0.7156(3)
N1_4 N 0.4495(4) 0.3696(2) 0.8797(4)
O5_4 O 0.7136(4) 0.46965(19) 0.8827(4)
O7_4 O 0.6413(4) 0.58952(19) 0.8404(4)
O8_4 O 0.4183(4) 0.44061(17) 0.8272(3)
N2_4 N 0.2157(4) 0.5809(2) 0.6817(4)
C2_4 C 0.3972(6) 0.3047(3) 0.8101(5)
H2_4 H 0.3398 0.3097 0.7261
C4_4 C 0.1350(6) 0.6083(3) 0.5679(5)
H3_4 H 0.1761 0.6336 0.5150
N3_4 N 0.7318(5) 0.5420(3) 0.9106(4)
C6_4 C 0.0149(6) 0.5368(3) 0.7276(5)
C9_4 C 0.1588(6) 0.5455(3) 0.7618(5)
H6_4 H 0.2165 0.5270 0.8400
C10_4 C 0.5113(5) 0.2240(3) 0.9900(5)
C11_4 C 0.4292(6) 0.2315(3) 0.8638(5)
H7_4 H 0.3956 0.1867 0.8152
O10_2 O 0.7271(4) 0.52024(19) 0.6510(3)
C1_4 C 0.9912(6) 0.5988(3) 0.5298(5)
H1_4 H 0.9355 0.6178 0.4512
C3_4 C 0.9292(5) 0.5609(3) 0.6087(5)
H4_4 H 0.9755 0.5148 0.7845
C7_4 C 0.7742(6) 0.5433(3) 0.5656(5)
loop_
_geom_bond_atom_site_label_1
_geom_bond_atom_site_label_2
_geom_bond_site_symmetry_1
_geom_bond_site_symmetry_2
N1 O8 1_555 1_555
O4 C5 1_555 1_555
O5 Dy1 1_555 1_555
O6 C5 1_555 1_555
O8 Dy1 1_555 1_555
C2 N1 1_555 1_555
H2 C2 1_555 1_555
C5 C10 1_555 1_555
C8 H5 1_555 1_555
C10 C8 1_555 1_555
C11 C2 1_555 1_555
H7 C11 1_555 1_555
C12 N1 1_555 1_555
H8 C12 1_555 1_555
Dy3 O4 1_555 1_555
Dy5 O4 1_555 1_555
O11 Dy1 1_555 1_555
O14 Dy1 1_555 1_555
O6 Dy5 1_555 1_555
C8 C12 1_555 1_555
C10 C11 1_555 1_555
O1 N2 1_555 1_555
N2 C4 1_555 1_555
O9 N3 1_555 1_555
H3 C4 1_555 1_555
C9 N2 1_555 1_555
H6 C9 1_555 1_555
O7 N3 1_555 1_555
C6 C9 1_555 1_555
O10 C7 1_555 1_555
C3 C1 1_555 1_555
C7 C3 1_555 1_555
Dy4 O3 1_555 1_555
O2 C7_2 1_555 1_555
O3_2 C7_2 1_555 1_555
C1_2 H1_2 1_555 1_555
C3_2 C1_2 1_555 1_555
C7_2 C3_2 1_555 1_555
Dy3 O2 1_555 1_555
Dy5 O3_2 1_555 1_555
Dy3 O1_2 1_555 1_555
O1_2 N2_2 1_555 1_555
N1_2 O8_2 1_555 1_555
O5_2 Dy3 1_555 1_555
O7_2 Dy3 1_555 1_555
O8_2 Dy3 1_555 1_555
N2_2 C4_2 1_555 1_555
C2_2 N1_2 1_555 1_555
H2_2 C2_2 1_555 1_555
H3_2 C4_2 1_555 1_555
N3_2 O5_2 1_555 1_555
C9_2 N2_2 1_555 1_555
H6_2 C9_2 1_555 1_555
C11_2 C2_2 1_555 1_555
H7_2 C11_2 1_555 1_555
O11_2 Dy3 1_555 1_555
O13_2 Dy3 1_555 1_555
O14_2 Dy3 1_555 1_555
O7_2 N3_2 1_555 1_555
C6_2 C9_2 1_555 1_555
C10_2 C11_2 1_555 1_555
O6_2 C5_2 1_555 1_555
C8_2 H5_2 1_555 1_555
H8_2 C12_2 1_555 1_555
O6_2 Dy4 1_555 1_555
C8_2 C12_2 1_555 1_555
O2_2 C7_3 1_555 1_555
C3_3 C1_3 1_555 1_555
C7_3 C3_3 1_555 1_555
O1_3 N2_3 1_555 1_555
N2_3 C4_3 1_555 1_555
O9_3 N3_3 1_555 1_555
H3_3 C4_3 1_555 1_555
C9_3 N2_3 1_555 1_555
H6_3 C9_3 1_555 1_555
O7_3 N3_3 1_555 1_555
C6_3 C9_3 1_555 1_555
N1_3 O8_3 1_555 1_555
O13_2 C5_3 1_555 1_555
O5_3 Dy4 1_555 1_555
O14_2 C5_3 1_555 1_555
O8_3 Dy4 1_555 1_555
C2_3 N1_3 1_555 1_555
H2_3 C2_3 1_555 1_555
C5_3 C10_3 1_555 1_555
C8_3 H5_3 1_555 1_555
C10_3 C8_3 1_555 1_555
C11_3 C2_3 1_555 1_555
H7_3 C11_3 1_555 1_555
C12_3 N1_3 1_555 1_555
H8_3 C12_3 1_555 1_555
Dy5 O13_2 1_555 1_555
C8_3 C12_3 1_555 1_555
C10_3 C11_3 1_555 1_555
O14 C5_4 1_555 1_555
C8_4 H5_4 1_555 1_555
H8_4 C12_4 1_555 1_555
C8_4 C12_4 1_555 1_555
Dy5 O1_4 1_555 1_555
O1_4 N2_4 1_555 1_555
N1_4 O8_4 1_555 1_555
O5_4 Dy5 1_555 1_555
O7_4 Dy5 1_555 1_555
O8_4 Dy5 1_555 1_555
N2_4 C4_4 1_555 1_555
C2_4 N1_4 1_555 1_555
H2_4 C2_4 1_555 1_555
H3_4 C4_4 1_555 1_555
N3_4 O5_4 1_555 1_555
C9_4 N2_4 1_555 1_555
H6_4 C9_4 1_555 1_555
C11_4 C2_4 1_555 1_555
H7_4 C11_4 1_555 1_555
O10_2 Dy5 1_555 1_555
O7_4 N3_4 1_555 1_555
C6_4 C9_4 1_555 1_555
C10_4 C11_4 1_555 1_555
O10_2 C7_4 1_555 1_555
O11_2 C7_4 1_555 1_555
C1_4 H1_4 1_555 1_555
C3_4 C1_4 1_555 1_555
C7_4 C3_4 1_555 1_555

#END
