
###############################################################################
#
# This file contains modified crystal structure data generated from the
# MOF subset of the Cambridge Structural Database (CSD) v543 
# hosted by the Cambridge Crystallographic Data Centre (CCDC).
#
# This work is licensed under the Creative Commons
# Attribution-NonCommercial-ShareAlike 4.0 International License.
# To view a copy of this license, visit
# http://creativecommons.org/licenses/by-nc-sa/4.0/
# or send a letter to
# Creative Commons, PO Box 1866, Mountain View, CA 94042, USA.
#
# CIF created using the CSD Python API on 29 September 2022
# The structure has been converted into the P1 space group
# The structure has a 3D framework
# The original CSD entry OQUTUS is in the monoclinic crystal system
# The framework has been calculated to contain at least 10.0% void space
# The void calculation uses a probe of radius 1.32A, grid spacing 0.4
#
###############################################################################

data_OQUTUS
_chemical_formula_moiety         '(C48 H32 La4 N12 O36)n'
_symmetry_cell_setting           triclinic
_symmetry_space_group_name_H-M   'P 1'
_symmetry_Int_Tables_number      1
_space_group_name_Hall           'P 1'
loop_
_symmetry_equiv_pos_site_id
_symmetry_equiv_pos_as_xyz
1 x,y,z
_cell_length_a                   10.3665(6)
_cell_length_b                   17.2961(7)
_cell_length_c                   11.4078(7)
_cell_angle_alpha                90
_cell_angle_beta                 110.149(7)
_cell_angle_gamma                90
_cell_volume                     1920.24
loop_
_atom_site_label
_atom_site_type_symbol
_atom_site_fract_x
_atom_site_fract_y
_atom_site_fract_z
La4 La 0.01651(5) 0.99795(3) 0.18761(4)
C2 C 0.1003(10) 0.1984(5) 0.6847(8)
H1 H 0.1556 0.1945 0.7682
N1 N 0.0512(7) 0.1335(4) 0.6163(6)
O7 O 0.0845(6) 0.0639(3) 0.6695(5)
C10 C 0.0677(9) 0.2692(5) 0.6297(8)
H6 H 0.1005 0.3138 0.6760
La2 La 0.98349(5) 0.00205(3) 0.81239(4)
La3 La 0.01651(5) 0.50205(3) 0.68761(4)
O10 O 0.2140(6) 0.0519(3) 0.9545(5)
O2 O 0.7860(6) 0.9481(3) 0.0455(5)
H5 H 0.5641 0.8859 0.0469
O1 O 0.1509(6) 0.9101(3) 0.7831(5)
C1 C 0.5662(8) 0.9381(5) 0.8886(7)
C3 C 0.3683(9) 0.8931(5) 0.9308(7)
H2 H 0.3293 0.8692 0.9836
N2 N 0.2878(7) 0.9181(4) 0.8178(6)
O5 O 0.7657(6) 0.9729(4) 0.8472(5)
C4 C 0.4821(9) 0.9597(5) 0.7736(8)
H3 H 0.5199 0.9809 0.7178
C5 C 0.3417(8) 0.9511(5) 0.7374(8)
H4 H 0.2849 0.9676 0.6590
C6 C 0.5083(9) 0.9028(5) 0.9684(8)
C8 C 0.7176(9) 0.9528(5) 0.9307(8)
O12 O 0.0334(5) 0.9129(3) 0.9929(5)
O13 O 0.9666(5) 0.0871(3) 0.0071(5)
O3 O 0.9253(6) 0.3549(3) 0.3252(5)
O4 O 0.9666(5) 0.4129(3) 0.5071(5)
C7 C 0.9564(8) 0.3522(5) 0.4415(8)
C9 C 0.9861(8) 0.2749(5) 0.5051(8)
O8 O 0.7806(8) 0.0231(5) 0.6015(7)
C11 C 0.9725(8) 0.1374(5) 0.4961(7)
H7 H 0.9388 0.0924 0.4514
C12 C 0.9414(9) 0.2083(5) 0.4382(8)
H8 H 0.8899 0.2110 0.3535
La5 La 0.98349(5) 0.49795(3) 0.31239(4)
O11 O 0.9253(6) 0.1451(3) 0.8252(5)
O6 O 0.8476(6) 0.9015(4) 0.6488(6)
O9 O 0.6611(8) 0.9284(5) 0.4925(8)
N3 N 0.7627(9) 0.9488(7) 0.5786(8)
O3_2 O 0.0747(6) 0.8549(3) 0.1748(5)
C7_2 C 0.0436(8) 0.8522(5) 0.0585(8)
O9_2 O 0.3389(8) 0.4284(5) 0.0075(8)
C11_2 C 0.0275(8) 0.6374(5) 0.0039(7)
H7_2 H 0.0612 0.5924 0.0486
C12_2 C 0.0586(9) 0.7083(5) 0.0618(8)
H8_2 H 0.1101 0.7110 0.1465
O6_2 O 0.1524(6) 0.4015(4) 0.8512(6)
C9_2 C 0.0139(8) 0.7749(5) 0.9949(8)
O8_2 O 0.2194(8) 0.5231(5) 0.8985(7)
N3_2 N 0.2373(9) 0.4488(7) 0.9214(8)
O11_2 O 0.0747(6) 0.6451(3) 0.6748(5)
O13_2 O 0.0334(5) 0.5871(3) 0.4929(5)
O14 O 0.2343(6) 0.4729(4) 0.6528(5)
O1_2 O 0.8491(6) 0.4101(3) 0.7169(5)
O2_2 O 0.2140(6) 0.4481(3) 0.4545(5)
C1_2 C 0.4338(8) 0.4381(5) 0.6114(7)
C2_2 C 0.8997(10) 0.6984(5) 0.8153(8)
H1_2 H 0.8444 0.6945 0.7318
N1_2 N 0.9488(7) 0.6335(4) 0.8837(6)
C3_2 C 0.6317(9) 0.3931(5) 0.5692(7)
H2_2 H 0.6707 0.3692 0.5164
N2_2 N 0.7122(7) 0.4181(4) 0.6822(6)
C4_2 C 0.5179(9) 0.4597(5) 0.7264(8)
H3_2 H 0.4801 0.4809 0.7822
C5_2 C 0.6583(8) 0.4511(5) 0.7626(8)
H4_2 H 0.7151 0.4676 0.8410
C6_2 C 0.4917(9) 0.4028(5) 0.5316(8)
H5_2 H 0.4359 0.3859 0.4531
O7_2 O 0.9155(6) 0.5639(3) 0.8305(5)
C8_2 C 0.2824(9) 0.4528(5) 0.5693(8)
C10_2 C 0.9323(9) 0.7692(5) 0.8703(8)
H6_2 H 0.8995 0.8138 0.8240
O10_2 O 0.7860(6) 0.5519(3) 0.5455(5)
O6_3 O 0.1524(6) 0.0985(4) 0.3512(6)
O9_3 O 0.3389(8) 0.0716(5) 0.5075(8)
N3_3 N 0.2373(9) 0.0512(7) 0.4214(8)
O14_2 O 0.2343(6) 0.0271(4) 0.1528(5)
C7_3 C 0.0436(8) 0.6478(5) 0.5585(8)
C9_3 C 0.0139(8) 0.7251(5) 0.4949(8)
O8_3 O 0.2194(8) 0.9769(5) 0.3985(7)
C11_3 C 0.0275(8) 0.8626(5) 0.5039(7)
H7_3 H 0.0612 0.9076 0.5486
C12_3 C 0.0586(9) 0.7917(5) 0.5618(8)
H8_3 H 0.1101 0.7890 0.6465
O1_3 O 0.8491(6) 0.0899(3) 0.2169(5)
C1_3 C 0.4338(8) 0.0619(5) 0.1114(7)
C3_3 C 0.6317(9) 0.1069(5) 0.0692(7)
H2_3 H 0.6707 0.1308 0.0164
N2_3 N 0.7122(7) 0.0819(4) 0.1822(6)
C4_3 C 0.5179(9) 0.0403(5) 0.2264(8)
H3_3 H 0.4801 0.0191 0.2822
C5_3 C 0.6583(8) 0.0489(5) 0.2626(8)
H4_3 H 0.7151 0.0324 0.3410
C6_3 C 0.4917(9) 0.0972(5) 0.0316(8)
C8_3 C 0.2824(9) 0.0472(5) 0.0693(8)
H5_3 H 0.4359 0.1141 0.9531
C2_3 C 0.8997(10) 0.8016(5) 0.3153(8)
H1_3 H 0.8444 0.8055 0.2318
N1_3 N 0.9488(7) 0.8665(4) 0.3837(6)
O7_3 O 0.9155(6) 0.9361(3) 0.3305(5)
C10_3 C 0.9323(9) 0.7308(5) 0.3703(8)
H6_3 H 0.8995 0.6862 0.3240
O1_4 O 0.1509(6) 0.5899(3) 0.2831(5)
C1_4 C 0.5662(8) 0.5619(5) 0.3886(7)
C2_4 C 0.1003(10) 0.3016(5) 0.1847(8)
H1_4 H 0.1556 0.3055 0.2682
N1_4 N 0.0512(7) 0.3665(4) 0.1163(6)
C3_4 C 0.3683(9) 0.6069(5) 0.4308(7)
H2_4 H 0.3293 0.6308 0.4836
N2_4 N 0.2878(7) 0.5819(4) 0.3178(6)
O5_2 O 0.7657(6) 0.5271(4) 0.3472(5)
C4_4 C 0.4821(9) 0.5403(5) 0.2736(8)
H3_4 H 0.5199 0.5191 0.2178
C5_4 C 0.3417(8) 0.5489(5) 0.2374(8)
H4_4 H 0.2849 0.5324 0.1590
C6_4 C 0.5083(9) 0.5972(5) 0.4684(8)
H5_4 H 0.5641 0.6141 0.5469
O7_4 O 0.0845(6) 0.4361(3) 0.1695(5)
C8_4 C 0.7176(9) 0.5472(5) 0.4307(8)
C10_4 C 0.0677(9) 0.2308(5) 0.1297(8)
H6_4 H 0.1005 0.1862 0.1760
O6_4 O 0.8476(6) 0.5985(4) 0.1488(6)
C9_4 C 0.9861(8) 0.2251(5) 0.0051(8)
O8_4 O 0.7806(8) 0.4769(5) 0.1015(7)
N3_4 N 0.7627(9) 0.5512(7) 0.0786(8)
C7_4 C 0.9564(8) 0.1478(5) 0.9415(8)
O9_4 O 0.6611(8) 0.5716(5) 0.9925(8)
C11_4 C 0.9725(8) 0.3626(5) 0.9961(7)
H7_4 H 0.9388 0.4076 0.9514
C12_4 C 0.9414(9) 0.2917(5) 0.9382(8)
H8_4 H 0.8899 0.2890 0.8535
loop_
_geom_bond_atom_site_label_1
_geom_bond_atom_site_label_2
_geom_bond_site_symmetry_1
_geom_bond_site_symmetry_2
C2 H1 1_555 1_555
N1 C2 1_555 1_555
C10 C2 1_555 1_555
H6 C10 1_555 1_555
N1 O7 1_555 1_555
O1 N2 1_555 1_555
C1 C4 1_555 1_555
C3 H2 1_555 1_555
N2 C3 1_555 1_555
O5 C8 1_555 1_555
C4 H3 1_555 1_555
C5 N2 1_555 1_555
H4 C5 1_555 1_555
C6 C1 1_555 1_555
C8 C1 1_555 1_555
C3 C6 1_555 1_555
C4 C5 1_555 1_555
O3 C7 1_555 1_555
O4 C7 1_555 1_555
C7 C9 1_555 1_555
O8 La2 1_555 1_555
H7 C11 1_555 1_555
C12 C9 1_555 1_555
H8 C12 1_555 1_555
La5 O3 1_555 1_555
O11 La2 1_555 1_555
O4 La5 1_555 1_555
C11 C12 1_555 1_555
O9 N3 1_555 1_555
N3 O6 1_555 1_555
O3_2 C7_2 1_555 1_555
H7_2 C11_2 1_555 1_555
H8_2 C12_2 1_555 1_555
La4 O3_2 1_555 1_555
C11_2 C12_2 1_555 1_555
O6_2 La3 1_555 1_555
O8_2 La3 1_555 1_555
N3_2 O6_2 1_555 1_555
O11_2 La3 1_555 1_555
O13_2 La3 1_555 1_555
O14 La3 1_555 1_555
O8_2 N3_2 1_555 1_555
O1_2 N2_2 1_555 1_555
O2_2 C8_2 1_555 1_555
C1_2 C4_2 1_555 1_555
C2_2 H1_2 1_555 1_555
N1_2 C2_2 1_555 1_555
C3_2 H2_2 1_555 1_555
N2_2 C3_2 1_555 1_555
O14 C8_2 1_555 1_555
C4_2 H3_2 1_555 1_555
C5_2 N2_2 1_555 1_555
H4_2 C5_2 1_555 1_555
C6_2 C1_2 1_555 1_555
H5_2 C6_2 1_555 1_555
C8_2 C1_2 1_555 1_555
C10_2 C2_2 1_555 1_555
H6_2 C10_2 1_555 1_555
N1_2 O7_2 1_555 1_555
C3_2 C6_2 1_555 1_555
C4_2 C5_2 1_555 1_555
O9_3 N3_3 1_555 1_555
N3_3 O6_3 1_555 1_555
O11_2 C7_3 1_555 1_555
O13_2 C7_3 1_555 1_555
C7_3 C9_3 1_555 1_555
O8_3 La4 1_555 1_555
H7_3 C11_3 1_555 1_555
C12_3 C9_3 1_555 1_555
H8_3 C12_3 1_555 1_555
C11_3 C12_3 1_555 1_555
O1_3 N2_3 1_555 1_555
C1_3 C4_3 1_555 1_555
C3_3 H2_3 1_555 1_555
N2_3 C3_3 1_555 1_555
O14_2 C8_3 1_555 1_555
C4_3 H3_3 1_555 1_555
C5_3 N2_3 1_555 1_555
H4_3 C5_3 1_555 1_555
C6_3 C1_3 1_555 1_555
C8_3 C1_3 1_555 1_555
C3_3 C6_3 1_555 1_555
C4_3 C5_3 1_555 1_555
C2_3 H1_3 1_555 1_555
N1_3 C2_3 1_555 1_555
C10_3 C2_3 1_555 1_555
H6_3 C10_3 1_555 1_555
N1_3 O7_3 1_555 1_555
O1_4 N2_4 1_555 1_555
O10_2 C8_4 1_555 1_555
C1_4 C4_4 1_555 1_555
C2_4 H1_4 1_555 1_555
N1_4 C2_4 1_555 1_555
C3_4 H2_4 1_555 1_555
N2_4 C3_4 1_555 1_555
O5_2 C8_4 1_555 1_555
C4_4 H3_4 1_555 1_555
C5_4 N2_4 1_555 1_555
H4_4 C5_4 1_555 1_555
C6_4 C1_4 1_555 1_555
H5_4 C6_4 1_555 1_555
C8_4 C1_4 1_555 1_555
C10_4 C2_4 1_555 1_555
H6_4 C10_4 1_555 1_555
La5 O5_2 1_555 1_555
N1_4 O7_4 1_555 1_555
C3_4 C6_4 1_555 1_555
C4_4 C5_4 1_555 1_555
O6_4 La5 1_555 1_555
O8_4 La5 1_555 1_555
N3_4 O6_4 1_555 1_555
O8_4 N3_4 1_555 1_555
O11 C7_4 1_555 1_555
H7_4 C11_4 1_555 1_555
H8_4 C12_4 1_555 1_555
C11_4 C12_4 1_555 1_555

#END
