
###############################################################################
#
# This file contains modified crystal structure data generated from the
# MOF subset of the Cambridge Structural Database (CSD) v543 
# hosted by the Cambridge Crystallographic Data Centre (CCDC).
#
# This work is licensed under the Creative Commons
# Attribution-NonCommercial-ShareAlike 4.0 International License.
# To view a copy of this license, visit
# http://creativecommons.org/licenses/by-nc-sa/4.0/
# or send a letter to
# Creative Commons, PO Box 1866, Mountain View, CA 94042, USA.
#
# CIF created using the CSD Python API on 29 September 2022
# The structure has been converted into the P1 space group
# The structure has a 3D framework
# The original CSD entry OQUVAA is in the monoclinic crystal system
# The framework has been calculated to contain at least 10.0% void space
# The void calculation uses a probe of radius 1.32A, grid spacing 0.4
#
###############################################################################

data_OQUVAA
_chemical_formula_moiety         '(C48 H32 Eu4 N12 O36)n'
_symmetry_cell_setting           triclinic
_symmetry_space_group_name_H-M   'P 1'
_symmetry_Int_Tables_number      1
_space_group_name_Hall           'P 1'
loop_
_symmetry_equiv_pos_site_id
_symmetry_equiv_pos_as_xyz
1 x,y,z
_cell_length_a                   10.1657(4)
_cell_length_b                   17.0733(8)
_cell_length_c                   11.2076(5)
_cell_angle_alpha                90
_cell_angle_beta                 109.154(5)
_cell_angle_gamma                90
_cell_volume                     1837.53
loop_
_atom_site_label
_atom_site_type_symbol
_atom_site_fract_x
_atom_site_fract_y
_atom_site_fract_z
Eu1 Eu 0.01293(3) 0.496416(19) 0.18370(3)
O1 O 0.1450(4) 0.5925(3) 0.3454(4)
O2 O 0.2290(4) 0.5226(3) 0.1513(4)
O4 O 0.2132(4) 0.4719(3) 0.3871(4)
O6 O 0.0715(4) 0.3578(3) 0.1728(4)
N1 N 0.2352(5) 0.5437(3) 0.4131(5)
O9 O 0.3352(5) 0.5665(3) 0.5016(5)
C2 C 0.0292(6) 0.3641(4) 0.5034(6)
C6 C 0.0603(6) 0.2922(4) 0.5598(6)
H2 H 0.0639 0.4093 0.5491
C9 C 0.0113(6) 0.2244(4) 0.4913(6)
H6 H 0.1146 0.2888 0.6444
C11 C 0.0409(6) 0.1463(4) 0.5548(6)
O11 O 0.0285(4) 0.0851(3) 0.4876(4)
O12 O 0.0715(4) 0.1422(3) 0.6728(4)
Eu3 Eu 0.01293(3) 0.003584(19) 0.68370(3)
O10 O 0.0285(4) 0.4149(3) 0.9876(4)
O3 O 0.9174(4) 0.4393(3) 0.3293(4)
O5 O 0.9715(4) 0.5851(3) 0.0124(4)
O7 O 0.7895(4) 0.4489(3) 0.0489(4)
O8 O 0.8526(4) 0.5892(2) 0.2166(4)
N2 N 0.9475(5) 0.3691(3) 0.3807(4)
N3 N 0.7138(5) 0.5815(3) 0.1816(4)
C1 C 0.8956(6) 0.3046(4) 0.3129(6)
C3 C 0.6335(6) 0.6085(4) 0.0682(5)
C4 C 0.6581(6) 0.5467(4) 0.2610(6)
H1 H 0.8374 0.3093 0.2297
C5 C 0.9283(6) 0.2314(4) 0.3662(6)
H3 H 0.6741 0.6338 0.0156
C7 C 0.4915(6) 0.5985(4) 0.0302(5)
C8 C 0.5162(6) 0.5374(4) 0.2282(6)
H4 H 0.7158 0.5287 0.3389
H5 H 0.8947 0.1868 0.3182
C10 C 0.4316(6) 0.5617(4) 0.1099(5)
H8 H 0.4775 0.5151 0.2847
C12 C 0.2763(6) 0.5444(4) 0.0655(6)
H7 H 0.4359 0.6164 0.9514
O13 O 0.2105(4) 0.5511(3) 0.9511(4)
Eu2 Eu 0.98707(3) 0.996416(19) 0.31630(3)
Eu4 Eu 0.98707(3) 0.503584(19) 0.81630(3)
O8_2 O 0.1474(4) 0.0892(2) 0.2834(4)
N3_2 N 0.2862(5) 0.0815(3) 0.3184(4)
C3_2 C 0.3665(6) 0.1085(4) 0.4318(5)
C4_2 C 0.3419(6) 0.0467(4) 0.2390(6)
H3_2 H 0.3259 0.1338 0.4844
C7_2 C 0.5085(6) 0.0985(4) 0.4698(5)
C8_2 C 0.4838(6) 0.0374(4) 0.2718(6)
H4_2 H 0.2842 0.0287 0.1611
H7_2 H 0.5641 0.1164 0.5486
C10_2 C 0.5684(6) 0.0617(4) 0.3901(5)
H8_2 H 0.5225 0.0151 0.2153
C12_2 C 0.7237(6) 0.0444(4) 0.4345(6)
O13_2 O 0.7895(4) 0.0511(3) 0.5489(4)
O14 O 0.7710(4) 0.0226(3) 0.3487(4)
O3_2 O 0.0826(4) 0.9393(3) 0.1707(4)
O7_2 O 0.2105(4) 0.9489(3) 0.4511(4)
N2_2 N 0.0525(5) 0.8691(3) 0.1193(4)
C1_2 C 0.1044(6) 0.8046(4) 0.1871(6)
H1_2 H 0.1626 0.8093 0.2703
C5_2 C 0.0717(6) 0.7314(4) 0.1338(6)
H5_2 H 0.1053 0.6868 0.1818
O1_2 O 0.8550(4) 0.0925(3) 0.1546(4)
N1_2 N 0.7648(5) 0.0437(3) 0.0869(5)
O4_2 O 0.7868(4) 0.9719(3) 0.1129(4)
O6_2 O 0.9285(4) 0.8578(3) 0.3272(4)
C9_2 C 0.9887(6) 0.7244(4) 0.0087(6)
O10_2 O 0.9715(4) 0.9149(3) 0.5124(4)
C2_2 C 0.9708(6) 0.8641(4) 0.9966(6)
C6_2 C 0.9397(6) 0.7922(4) 0.9402(6)
H2_2 H 0.9361 0.9093 0.9509
H6_2 H 0.8854 0.7888 0.8556
C11_2 C 0.9591(6) 0.6463(4) 0.9452(6)
O12_2 O 0.9285(4) 0.6422(3) 0.8272(4)
H7_3 H 0.5641 0.3836 0.0486
O3_3 O 0.0826(4) 0.5607(3) 0.6707(4)
O8_3 O 0.1474(4) 0.4108(2) 0.7834(4)
N2_3 N 0.0525(5) 0.6309(3) 0.6193(4)
N3_3 N 0.2862(5) 0.4185(3) 0.8184(4)
C1_3 C 0.1044(6) 0.6954(4) 0.6871(6)
C3_3 C 0.3665(6) 0.3915(4) 0.9318(5)
C4_3 C 0.3419(6) 0.4533(4) 0.7390(6)
H1_3 H 0.1626 0.6907 0.7703
C5_3 C 0.0717(6) 0.7686(4) 0.6338(6)
H3_3 H 0.3259 0.3662 0.9844
C7_3 C 0.5085(6) 0.4015(4) 0.9698(5)
C8_3 C 0.4838(6) 0.4626(4) 0.7718(6)
H4_3 H 0.2842 0.4713 0.6611
H5_3 H 0.1053 0.8132 0.6818
C10_3 C 0.5684(6) 0.4383(4) 0.8901(5)
H8_3 H 0.5225 0.4849 0.7153
C12_3 C 0.7237(6) 0.4556(4) 0.9345(6)
O14_2 O 0.7710(4) 0.4774(3) 0.8487(4)
O1_3 O 0.8550(4) 0.4075(3) 0.6546(4)
O4_3 O 0.7868(4) 0.5281(3) 0.6129(4)
N1_3 N 0.7648(5) 0.4563(3) 0.5869(5)
O9_2 O 0.6648(5) 0.4335(3) 0.4984(5)
C2_3 C 0.9708(6) 0.6359(4) 0.4966(6)
C6_3 C 0.9397(6) 0.7078(4) 0.4402(6)
H2_3 H 0.9361 0.5907 0.4509
C9_3 C 0.9887(6) 0.7756(4) 0.5087(6)
H6_3 H 0.8854 0.7112 0.3556
C11_3 C 0.9591(6) 0.8537(4) 0.4452(6)
C2_4 C 0.0292(6) 0.1359(4) 0.0034(6)
C6_4 C 0.0603(6) 0.2078(4) 0.0598(6)
H2_4 H 0.0639 0.0907 0.0491
H6_4 H 0.1146 0.2112 0.1444
C11_4 C 0.0409(6) 0.3537(4) 0.0548(6)
O4_4 O 0.2132(4) 0.0281(3) 0.8871(4)
C9_4 C 0.0113(6) 0.2756(4) 0.9913(6)
O1_4 O 0.1450(4) 0.9075(3) 0.8454(4)
O2_2 O 0.2290(4) 0.9774(3) 0.6513(4)
N1_4 N 0.2352(5) 0.9563(3) 0.9131(5)
O3_4 O 0.9174(4) 0.0607(3) 0.8293(4)
N2_4 N 0.9475(5) 0.1309(3) 0.8807(4)
C1_4 C 0.8956(6) 0.1954(4) 0.8129(6)
H1_4 H 0.8374 0.1907 0.7297
C5_4 C 0.9283(6) 0.2686(4) 0.8662(6)
H5_4 H 0.8947 0.3132 0.8182
O8_4 O 0.8526(4) 0.9108(2) 0.7166(4)
N3_4 N 0.7138(5) 0.9185(3) 0.6816(4)
C3_4 C 0.6335(6) 0.8915(4) 0.5682(5)
C4_4 C 0.6581(6) 0.9533(4) 0.7610(6)
H3_4 H 0.6741 0.8662 0.5156
C7_4 C 0.4915(6) 0.9015(4) 0.5302(5)
C8_4 C 0.5162(6) 0.9626(4) 0.7282(6)
H4_4 H 0.7158 0.9713 0.8389
H7_4 H 0.4359 0.8836 0.4514
C10_4 C 0.4316(6) 0.9383(4) 0.6099(5)
H8_4 H 0.4775 0.9849 0.7847
C12_4 C 0.2763(6) 0.9556(4) 0.5655(6)
O9_3 O 0.6648(5) 0.0665(3) 0.9984(5)
O9_4 O 0.3352(5) 0.9335(3) 0.0016(5)
loop_
_geom_bond_atom_site_label_1
_geom_bond_atom_site_label_2
_geom_bond_site_symmetry_1
_geom_bond_site_symmetry_2
Eu1 O1 1_555 1_555
O1 N1 1_555 1_555
O2 Eu1 1_555 1_555
O4 Eu1 1_555 1_555
O6 Eu1 1_555 1_555
N1 O4 1_555 1_555
O9 N1 1_555 1_555
C6 C2 1_555 1_555
H2 C2 1_555 1_555
H6 C6 1_555 1_555
C11 C9 1_555 1_555
O11 C11 1_555 1_555
O12 C11 1_555 1_555
Eu3 O11 1_555 1_555
C6 C9 1_555 1_555
O12 Eu3 1_555 1_555
N2 O3 1_555 1_555
N3 O8 1_555 1_555
C1 N2 1_555 1_555
C3 N3 1_555 1_555
C4 N3 1_555 1_555
H1 C1 1_555 1_555
C5 C1 1_555 1_555
H3 C3 1_555 1_555
C7 C3 1_555 1_555
C8 C4 1_555 1_555
H4 C4 1_555 1_555
H5 C5 1_555 1_555
C10 C7 1_555 1_555
H8 C8 1_555 1_555
C12 C10 1_555 1_555
O2 C12 1_555 1_555
C8 C10 1_555 1_555
N3_2 O8_2 1_555 1_555
C3_2 N3_2 1_555 1_555
C4_2 N3_2 1_555 1_555
H3_2 C3_2 1_555 1_555
C7_2 C3_2 1_555 1_555
C8_2 C4_2 1_555 1_555
H4_2 C4_2 1_555 1_555
H7_2 C7_2 1_555 1_555
C10_2 C7_2 1_555 1_555
H8_2 C8_2 1_555 1_555
C12_2 C10_2 1_555 1_555
O13_2 C12_2 1_555 1_555
O14 C12_2 1_555 1_555
C8_2 C10_2 1_555 1_555
N2_2 O3_2 1_555 1_555
C1_2 N2_2 1_555 1_555
H1_2 C1_2 1_555 1_555
C5_2 C1_2 1_555 1_555
H5_2 C5_2 1_555 1_555
O1_2 N1_2 1_555 1_555
O4_2 Eu2 1_555 1_555
O6_2 Eu2 1_555 1_555
O10_2 Eu2 1_555 1_555
C6_2 C2_2 1_555 1_555
H2_2 C2_2 1_555 1_555
H6_2 C6_2 1_555 1_555
O12_2 C11_2 1_555 1_555
O12_2 Eu4 1_555 1_555
N2_3 O3_3 1_555 1_555
N3_3 O8_3 1_555 1_555
C1_3 N2_3 1_555 1_555
C3_3 N3_3 1_555 1_555
C4_3 N3_3 1_555 1_555
H1_3 C1_3 1_555 1_555
C5_3 C1_3 1_555 1_555
H3_3 C3_3 1_555 1_555
C7_3 C3_3 1_555 1_555
C8_3 C4_3 1_555 1_555
H4_3 C4_3 1_555 1_555
H5_3 C5_3 1_555 1_555
C10_3 C7_3 1_555 1_555
H8_3 C8_3 1_555 1_555
C12_3 C10_3 1_555 1_555
O14_2 C12_3 1_555 1_555
Eu4 O14_2 1_555 1_555
C8_3 C10_3 1_555 1_555
Eu4 O1_3 1_555 1_555
O1_3 N1_3 1_555 1_555
O4_3 Eu4 1_555 1_555
N1_3 O4_3 1_555 1_555
O9_2 N1_3 1_555 1_555
C6_3 C2_3 1_555 1_555
H2_3 C2_3 1_555 1_555
H6_3 C6_3 1_555 1_555
C11_3 C9_3 1_555 1_555
O10_2 C11_3 1_555 1_555
O6_2 C11_3 1_555 1_555
C6_3 C9_3 1_555 1_555
C6_4 C2_4 1_555 1_555
H2_4 C2_4 1_555 1_555
H6_4 C6_4 1_555 1_555
O6 C11_4 1_555 1_555
O4_4 Eu3 1_555 1_555
O1_4 N1_4 1_555 1_555
N2_4 O3_4 1_555 1_555
C1_4 N2_4 1_555 1_555
H1_4 C1_4 1_555 1_555
C5_4 C1_4 1_555 1_555
H5_4 C5_4 1_555 1_555
N3_4 O8_4 1_555 1_555
C3_4 N3_4 1_555 1_555
C4_4 N3_4 1_555 1_555
H3_4 C3_4 1_555 1_555
C7_4 C3_4 1_555 1_555
C8_4 C4_4 1_555 1_555
H4_4 C4_4 1_555 1_555
H7_4 C7_4 1_555 1_555
C10_4 C7_4 1_555 1_555
H8_4 C8_4 1_555 1_555
C12_4 C10_4 1_555 1_555
O7_2 C12_4 1_555 1_555
O2_2 C12_4 1_555 1_555
C8_4 C10_4 1_555 1_555

#END
