
###############################################################################
#
# This file contains modified crystal structure data generated from the
# MOF subset of the Cambridge Structural Database (CSD) v543 
# hosted by the Cambridge Crystallographic Data Centre (CCDC).
#
# This work is licensed under the Creative Commons
# Attribution-NonCommercial-ShareAlike 4.0 International License.
# To view a copy of this license, visit
# http://creativecommons.org/licenses/by-nc-sa/4.0/
# or send a letter to
# Creative Commons, PO Box 1866, Mountain View, CA 94042, USA.
#
# CIF created using the CSD Python API on 29 September 2022
# The structure has been converted into the P1 space group
# The structure has a 3D framework
# The original CSD entry OQUZIM is in the monoclinic crystal system
# The framework has been calculated to contain at least 10.0% void space
# The void calculation uses a probe of radius 1.32A, grid spacing 0.4
#
###############################################################################

data_OQUZIM
_chemical_formula_moiety         '(C48 H32 La4 N12 O36)n'
_symmetry_cell_setting           triclinic
_symmetry_space_group_name_H-M   'P 1'
_symmetry_Int_Tables_number      1
_space_group_name_Hall           'P 1'
loop_
_symmetry_equiv_pos_site_id
_symmetry_equiv_pos_as_xyz
1 x,y,z
_cell_length_a                   10.3667(6)
_cell_length_b                   17.5030(5)
_cell_length_c                   11.4375(5)
_cell_angle_alpha                90
_cell_angle_beta                 110.563(6)
_cell_angle_gamma                90
_cell_volume                     1943.09
loop_
_atom_site_label
_atom_site_type_symbol
_atom_site_fract_x
_atom_site_fract_y
_atom_site_fract_z
O4 O 0.0669(6) 0.3546(3) 0.1691(5)
C2 C 0.0365(8) 0.3529(4) 0.0537(7)
C11 C 0.0165(9) 0.1395(5) 0.0004(7)
H7 H 0.0451 0.0949 0.0463
C12 C 0.0500(8) 0.2095(4) 0.0583(7)
H8 H 0.1027 0.2121 0.1429
La5 La 0.01641(5) 0.49623(2) 0.18773(4)
La1 La 0.01641(5) 0.00377(2) 0.68773(4)
O5 O 0.0256(5) 0.4117(3) 0.9877(5)
O8 O 0.2085(8) 0.0201(5) 0.9054(6)
C8 C 0.0052(9) 0.2759(4) 0.9905(7)
O12 O 0.0669(6) 0.1454(3) 0.6691(5)
O14 O 0.0256(5) 0.0883(3) 0.4877(5)
O7 O 0.1536(6) 0.9016(3) 0.8441(5)
N3 N 0.2336(9) 0.9449(6) 0.9224(8)
O10 O 0.2376(6) 0.9829(3) 0.6554(5)
C3 C 0.8950(9) 0.1993(4) 0.8097(7)
H2 H 0.8406 0.1952 0.7257
O6 O 0.9103(6) 0.0675(3) 0.8248(5)
N2 N 0.9426(7) 0.1356(4) 0.8778(6)
C10 C 0.9264(9) 0.2695(4) 0.8635(8)
H6 H 0.8955 0.3133 0.8157
La3 La 0.98359(5) 0.50377(2) 0.81227(4)
O11 O 0.7833(5) 0.0468(3) 0.5417(5)
O1 O 0.8505(5) 0.9120(3) 0.7226(5)
O3 O 0.2167(5) 0.9532(3) 0.4583(5)
N1 N 0.7158(7) 0.9207(3) 0.6883(6)
C1 C 0.6320(9) 0.8949(5) 0.5769(7)
H1 H 0.6689 0.8693 0.5247
C4 C 0.4352(8) 0.9429(4) 0.6165(7)
C5 C 0.4928(8) 0.9060(5) 0.5397(7)
H3 H 0.4361 0.8885 0.4617
C6 C 0.5233(8) 0.9666(5) 0.7323(7)
H4 H 0.4874 0.9898 0.7874
C7 C 0.2842(9) 0.9606(4) 0.5742(7)
C9 C 0.6614(8) 0.9563(4) 0.7667(7)
H5 H 0.7195 0.9737 0.8442
O13 O 0.9744(5) 0.9117(3) 0.5123(5)
La4 La 0.98359(5) 0.99623(2) 0.31227(4)
O3_2 O 0.7833(5) 0.4532(3) 0.0417(5)
H3_2 H 0.5639 0.3885 0.0383
O1_2 O 0.1495(5) 0.4120(3) 0.7774(5)
O2 O 0.7624(6) 0.4829(3) 0.8446(5)
N1_2 N 0.2842(7) 0.4207(3) 0.8117(6)
C1_2 C 0.3680(9) 0.3949(5) 0.9231(7)
H1_2 H 0.3311 0.3693 0.9753
C3_2 C 0.1050(9) 0.6993(4) 0.6903(7)
H2_2 H 0.1594 0.6952 0.7743
C4_2 C 0.5648(8) 0.4429(4) 0.8835(7)
O6_2 O 0.0897(6) 0.5675(3) 0.6752(5)
N2_2 N 0.0574(7) 0.6356(4) 0.6222(6)
C5_2 C 0.5072(8) 0.4060(5) 0.9603(7)
C6_2 C 0.4767(8) 0.4666(5) 0.7677(7)
H4_2 H 0.5126 0.4898 0.7126
C7_2 C 0.7158(9) 0.4606(4) 0.9258(7)
C9_2 C 0.3386(8) 0.4563(4) 0.7333(7)
H5_2 H 0.2805 0.4737 0.6558
C10_2 C 0.0736(9) 0.7695(4) 0.6365(8)
H6_2 H 0.1045 0.8133 0.6843
O11_2 O 0.2167(5) 0.5468(3) 0.9583(5)
O14_2 O 0.9744(5) 0.5883(3) 0.0123(5)
O4_2 O 0.9331(6) 0.8546(3) 0.3309(5)
C2_2 C 0.9635(8) 0.8529(4) 0.4463(7)
O7_2 O 0.8464(6) 0.4016(3) 0.6559(5)
O8_2 O 0.7915(8) 0.5201(5) 0.5946(6)
N3_2 N 0.7664(9) 0.4449(6) 0.5776(8)
C8_2 C 0.9948(9) 0.7759(4) 0.5095(7)
C11_2 C 0.9835(9) 0.6395(5) 0.4996(7)
H7_2 H 0.9549 0.5949 0.4537
C12_2 C 0.9500(8) 0.7095(4) 0.4417(7)
H8_2 H 0.8973 0.7121 0.3571
O9 O 0.6692(9) 0.4251(5) 0.4899(7)
O12_2 O 0.9331(6) 0.6454(3) 0.8309(5)
O1_3 O 0.1495(5) 0.0880(3) 0.2774(5)
O2_2 O 0.7624(6) 0.0171(3) 0.3446(5)
N1_3 N 0.2842(7) 0.0793(3) 0.3117(6)
C1_3 C 0.3680(9) 0.1051(5) 0.4231(7)
H1_3 H 0.3311 0.1307 0.4753
C4_3 C 0.5648(8) 0.0571(4) 0.3835(7)
C5_3 C 0.5072(8) 0.0940(5) 0.4603(7)
H3_3 H 0.5639 0.1115 0.5383
C6_3 C 0.4767(8) 0.0334(5) 0.2677(7)
H4_3 H 0.5126 0.0102 0.2126
C7_3 C 0.7158(9) 0.0394(4) 0.4258(7)
C9_3 C 0.3386(8) 0.0437(4) 0.2333(7)
H5_3 H 0.2805 0.0263 0.1558
C3_3 C 0.1050(9) 0.8007(4) 0.1903(7)
H2_3 H 0.1594 0.8048 0.2743
O6_3 O 0.0897(6) 0.9325(3) 0.1752(5)
N2_3 N 0.0574(7) 0.8644(4) 0.1222(6)
C10_3 C 0.0736(9) 0.7305(4) 0.1365(8)
H6_3 H 0.1045 0.6867 0.1843
O7_3 O 0.8464(6) 0.0984(3) 0.1559(5)
N3_3 N 0.7664(9) 0.0551(6) 0.0776(8)
O8_3 O 0.7915(8) 0.9799(5) 0.0946(6)
C8_3 C 0.9948(9) 0.7241(4) 0.0095(7)
C2_3 C 0.9635(8) 0.6471(4) 0.9463(7)
C11_3 C 0.9835(9) 0.8605(5) 0.9996(7)
H7_3 H 0.9549 0.9051 0.9537
C12_3 C 0.9500(8) 0.7905(4) 0.9417(7)
H8_3 H 0.8973 0.7879 0.8571
C2_4 C 0.0365(8) 0.1471(4) 0.5537(7)
O7_4 O 0.1536(6) 0.5984(3) 0.3441(5)
O8_4 O 0.2085(8) 0.4799(5) 0.4054(6)
N3_4 N 0.2336(9) 0.5551(6) 0.4224(8)
C8_4 C 0.0052(9) 0.2241(4) 0.4905(7)
C11_4 C 0.0165(9) 0.3605(5) 0.5004(7)
H7_4 H 0.0451 0.4051 0.5463
C12_4 C 0.0500(8) 0.2905(4) 0.5583(7)
H8_4 H 0.1027 0.2879 0.6429
O9_2 O 0.3308(9) 0.5749(5) 0.5101(7)
O10_2 O 0.2376(6) 0.5171(3) 0.1554(5)
O1_4 O 0.8505(5) 0.5880(3) 0.2226(5)
N1_4 N 0.7158(7) 0.5793(3) 0.1883(6)
C1_4 C 0.6320(9) 0.6051(5) 0.0769(7)
H1_4 H 0.6689 0.6307 0.0247
C3_4 C 0.8950(9) 0.3007(4) 0.3097(7)
H2_4 H 0.8406 0.3048 0.2257
C4_4 C 0.4352(8) 0.5571(4) 0.1165(7)
O6_4 O 0.9103(6) 0.4325(3) 0.3248(5)
N2_4 N 0.9426(7) 0.3644(4) 0.3778(6)
C5_4 C 0.4928(8) 0.5940(5) 0.0397(7)
C6_4 C 0.5233(8) 0.5334(5) 0.2323(7)
H4_4 H 0.4874 0.5102 0.2874
C7_4 C 0.2842(9) 0.5394(4) 0.0742(7)
C9_4 C 0.6614(8) 0.5437(4) 0.2667(7)
H5_4 H 0.7195 0.5263 0.3442
C10_4 C 0.9264(9) 0.2305(4) 0.3635(8)
H6_4 H 0.8955 0.1867 0.3157
H3_4 H 0.4361 0.6115 0.9617
O9_3 O 0.3308(9) 0.9251(5) 0.0101(7)
O9_4 O 0.6692(9) 0.0749(5) 0.9899(7)
loop_
_geom_bond_atom_site_label_1
_geom_bond_atom_site_label_2
_geom_bond_site_symmetry_1
_geom_bond_site_symmetry_2
O4 C2 1_555 1_555
H7 C11 1_555 1_555
H8 C12 1_555 1_555
La5 O4 1_555 1_555
C11 C12 1_555 1_555
O8 La1 1_555 1_555
O12 La1 1_555 1_555
O14 La1 1_555 1_555
N3 O7 1_555 1_555
C3 H2 1_555 1_555
N2 C3 1_555 1_555
C10 C3 1_555 1_555
H6 C10 1_555 1_555
O6 N2 1_555 1_555
O1 N1 1_555 1_555
O10 C7 1_555 1_555
O3 C7 1_555 1_555
N1 C1 1_555 1_555
C1 H1 1_555 1_555
C4 C5 1_555 1_555
C5 C1 1_555 1_555
H3 C5 1_555 1_555
C6 C4 1_555 1_555
H4 C6 1_555 1_555
C7 C4 1_555 1_555
C9 N1 1_555 1_555
H5 C9 1_555 1_555
C6 C9 1_555 1_555
O1_2 N1_2 1_555 1_555
O2 C7_2 1_555 1_555
N1_2 C1_2 1_555 1_555
C1_2 H1_2 1_555 1_555
C3_2 H2_2 1_555 1_555
C4_2 C5_2 1_555 1_555
N2_2 C3_2 1_555 1_555
C5_2 C1_2 1_555 1_555
C6_2 C4_2 1_555 1_555
H4_2 C6_2 1_555 1_555
C7_2 C4_2 1_555 1_555
C9_2 N1_2 1_555 1_555
H5_2 C9_2 1_555 1_555
C10_2 C3_2 1_555 1_555
H6_2 C10_2 1_555 1_555
La3 O2 1_555 1_555
O6_2 N2_2 1_555 1_555
C6_2 C9_2 1_555 1_555
O4_2 C2_2 1_555 1_555
O13 C2_2 1_555 1_555
C2_2 C8_2 1_555 1_555
O7_2 La3 1_555 1_555
O8_2 La3 1_555 1_555
N3_2 O7_2 1_555 1_555
H7_2 C11_2 1_555 1_555
C12_2 C8_2 1_555 1_555
H8_2 C12_2 1_555 1_555
O9 N3_2 1_555 1_555
La4 O4_2 1_555 1_555
O12_2 La3 1_555 1_555
O13 La4 1_555 1_555
O8_2 N3_2 1_555 1_555
C11_2 C12_2 1_555 1_555
O1_3 N1_3 1_555 1_555
O2_2 C7_3 1_555 1_555
O11 C7_3 1_555 1_555
N1_3 C1_3 1_555 1_555
C1_3 H1_3 1_555 1_555
C4_3 C5_3 1_555 1_555
C5_3 C1_3 1_555 1_555
H3_3 C5_3 1_555 1_555
C6_3 C4_3 1_555 1_555
H4_3 C6_3 1_555 1_555
C7_3 C4_3 1_555 1_555
C9_3 N1_3 1_555 1_555
H5_3 C9_3 1_555 1_555
C6_3 C9_3 1_555 1_555
C3_3 H2_3 1_555 1_555
N2_3 C3_3 1_555 1_555
C10_3 C3_3 1_555 1_555
H6_3 C10_3 1_555 1_555
O6_3 N2_3 1_555 1_555
N3_3 O7_3 1_555 1_555
O8_3 La4 1_555 1_555
O12_2 C2_3 1_555 1_555
H7_3 C11_3 1_555 1_555
H8_3 C12_3 1_555 1_555
C11_3 C12_3 1_555 1_555
O12 C2_4 1_555 1_555
O14 C2_4 1_555 1_555
C2_4 C8_4 1_555 1_555
O7_4 La5 1_555 1_555
O8_4 La5 1_555 1_555
N3_4 O7_4 1_555 1_555
H7_4 C11_4 1_555 1_555
C12_4 C8_4 1_555 1_555
H8_4 C12_4 1_555 1_555
O9_2 N3_4 1_555 1_555
O10_2 La5 1_555 1_555
O8_4 N3_4 1_555 1_555
C11_4 C12_4 1_555 1_555
O1_4 N1_4 1_555 1_555
O10_2 C7_4 1_555 1_555
N1_4 C1_4 1_555 1_555
C1_4 H1_4 1_555 1_555
C3_4 H2_4 1_555 1_555
C4_4 C5_4 1_555 1_555
N2_4 C3_4 1_555 1_555
C5_4 C1_4 1_555 1_555
C6_4 C4_4 1_555 1_555
H4_4 C6_4 1_555 1_555
C7_4 C4_4 1_555 1_555
C9_4 N1_4 1_555 1_555
H5_4 C9_4 1_555 1_555
C10_4 C3_4 1_555 1_555
H6_4 C10_4 1_555 1_555
O6_4 N2_4 1_555 1_555
C6_4 C9_4 1_555 1_555

#END
