
###############################################################################
#
# This file contains modified crystal structure data generated from the
# MOF subset of the Cambridge Structural Database (CSD) v543 
# hosted by the Cambridge Crystallographic Data Centre (CCDC).
#
# This work is licensed under the Creative Commons
# Attribution-NonCommercial-ShareAlike 4.0 International License.
# To view a copy of this license, visit
# http://creativecommons.org/licenses/by-nc-sa/4.0/
# or send a letter to
# Creative Commons, PO Box 1866, Mountain View, CA 94042, USA.
#
# CIF created using the CSD Python API on 29 September 2022
# The structure has been converted into the P1 space group
# The structure has a 3D framework
# The original CSD entry ORAPUU is in the monoclinic crystal system
# The framework has been calculated to contain at least 10.0% void space
# The void calculation uses a probe of radius 1.32A, grid spacing 0.4
# H atom positions have been added when not included in the experimental data
#
###############################################################################

data_ORAPUU
_chemical_formula_moiety         '(C28 H20 N8 O32 Sm4)n'
_symmetry_cell_setting           triclinic
_symmetry_space_group_name_H-M   'P 1'
_symmetry_Int_Tables_number      1
_space_group_name_Hall           'P 1'
loop_
_symmetry_equiv_pos_site_id
_symmetry_equiv_pos_as_xyz
1 x,y,z
_cell_length_a                   9.3610(4)
_cell_length_b                   8.3498(3)
_cell_length_c                   16.7159(8)
_cell_angle_alpha                90
_cell_angle_beta                 106.310(5)
_cell_angle_gamma                90
_cell_volume                     1253.98
loop_
_atom_site_label
_atom_site_type_symbol
_atom_site_fract_x
_atom_site_fract_y
_atom_site_fract_z
Sm2 Sm 0.16720(4) 0.93087(5) 0.09881(2)
O5 O 0.3467(8) 0.1500(9) 0.1549(4)
O9 O 0.1228(7) 0.0277(8) 0.2263(4)
O12 O 0.0095(7) 0.1517(7) 0.0495(4)
H4 H 0.449683 0.110664 0.1622
H5 H 0.326476 0.241501 0.115364
Sm5 Sm 0.83280(4) 0.06913(5) 0.90119(2)
O11 O 0.2557(7) 0.0334(8) 0.9849(4)
O1 O 0.3772(7) 0.5277(8) 0.2737(4)
O2 O 0.2309(7) 0.7187(7) 0.2016(4)
O3 O 0.9278(7) 0.8316(7) 0.1052(4)
O4 O 0.7443(7) 0.9666(8) 0.0151(4)
O7 O 0.1653(7) 0.6823(7) 0.0156(4)
N1 N 0.4375(9) 0.8166(9) 0.1330(5)
C1 C 0.3509(9) 0.6421(10) 0.2241(5)
C2 C 0.4741(10) 0.6959(10) 0.1884(5)
C3 C 0.6168(10) 0.6310(11) 0.2139(6)
H1 H 0.6398 0.5466 0.2536
C4 C 0.7237(10) 0.6922(11) 0.1802(6)
H2 H 0.8227 0.6527 0.1980
C5 C 0.6867(10) 0.8119(10) 0.1201(6)
C6 C 0.7965(8) 0.8759(10) 0.0763(5)
C7 C 0.5410(9) 0.8724(12) 0.1000(6)
H3 H 0.5152 0.9574 0.0607
Sm3 Sm 0.33280(4) 0.43087(5) 0.40119(2)
O6 O 0.9905(7) 0.8483(7) 0.9505(4)
O2_2 O 0.2691(7) 0.2187(7) 0.2984(4)
O5_2 O 0.1533(8) 0.6500(9) 0.3451(4)
O6_2 O 0.5095(7) 0.3483(7) 0.5495(4)
O7_2 O 0.3347(7) 0.1823(7) 0.4844(4)
O8 O 0.4949(13) 0.0967(12) 0.6166(7)
N1_2 N 0.0625(9) 0.3166(9) 0.3670(5)
N2 N 0.4430(9) 0.2135(9) 0.5457(5)
C1_2 C 0.1491(9) 0.1421(10) 0.2759(5)
C2_2 C 0.0259(10) 0.1959(10) 0.3116(5)
Sm4 Sm 0.66720(4) 0.56913(5) 0.59881(2)
O10 O 0.5722(7) 0.3316(7) 0.3948(4)
O11_2 O 0.2443(7) 0.5334(8) 0.5151(4)
O12_2 O 0.4905(7) 0.6517(7) 0.4505(4)
H4_2 H 0.0503166 0.610664 0.3378
H5_2 H 0.173524 0.741501 0.384636
O4_2 O 0.7557(7) 0.4666(8) 0.4849(4)
C3_2 C 0.8832(10) 0.1310(11) 0.2861(6)
H1_2 H 0.8602 0.0466 0.2464
C4_2 C 0.7763(10) 0.1922(11) 0.3198(6)
H2_2 H 0.6773 0.1527 0.3020
C5_2 C 0.8133(10) 0.3119(10) 0.3799(6)
C6_2 C 0.7035(8) 0.3759(10) 0.4237(5)
C7_2 C 0.9590(9) 0.3724(12) 0.4000(6)
H3_2 H 0.9848 0.4574 0.4393
O10_2 O 0.0722(7) 0.1684(7) 0.8948(4)
O1_2 O 0.6228(7) 0.4723(8) 0.7263(4)
O2_3 O 0.7691(7) 0.2813(7) 0.7984(4)
O7_3 O 0.8347(7) 0.3177(7) 0.9844(4)
N1_3 N 0.5625(9) 0.1834(9) 0.8670(5)
C1_3 C 0.6491(9) 0.3579(10) 0.7759(5)
C2_3 C 0.5259(10) 0.3041(10) 0.8116(5)
C3_3 C 0.3832(10) 0.3690(11) 0.7861(6)
H1_3 H 0.3602 0.4534 0.7464
C4_3 C 0.2763(10) 0.3078(11) 0.8198(6)
H2_3 H 0.1773 0.3473 0.8020
C5_3 C 0.3133(10) 0.1881(10) 0.8799(6)
C6_3 C 0.2035(8) 0.1241(10) 0.9237(5)
C7_3 C 0.4590(9) 0.1276(12) 0.9000(6)
H3_3 H 0.4848 0.0426 0.9393
O5_3 O 0.6533(8) 0.8500(9) 0.8451(4)
O9_2 O 0.8772(7) 0.9723(8) 0.7737(4)
H4_3 H 0.550317 0.889336 0.8378
H5_3 H 0.673524 0.758499 0.884636
O3_2 O 0.4278(7) 0.6684(7) 0.6052(4)
C3_4 C 0.1168(10) 0.8690(11) 0.7139(6)
H1_4 H 0.1398 0.9534 0.7536
C4_4 C 0.2237(10) 0.8078(11) 0.6802(6)
H2_4 H 0.3227 0.8473 0.6980
C5_4 C 0.1867(10) 0.6881(10) 0.6201(6)
C6_4 C 0.2965(8) 0.6241(10) 0.5763(5)
C7_4 C 0.0410(9) 0.6276(12) 0.6000(6)
H3_4 H 0.0152 0.5426 0.5607
O2_4 O 0.7309(7) 0.7813(7) 0.7016(4)
O5_4 O 0.8467(8) 0.3500(9) 0.6549(4)
O7_4 O 0.6653(7) 0.8177(7) 0.5156(4)
O8_2 O 0.5051(13) 0.9033(12) 0.3834(7)
N1_4 N 0.9375(9) 0.6834(9) 0.6330(5)
N2_2 N 0.5570(9) 0.7865(9) 0.4543(5)
C1_4 C 0.8509(9) 0.8579(10) 0.7241(5)
C2_4 C 0.9741(10) 0.8041(10) 0.6884(5)
H4_4 H 0.949683 0.389336 0.6622
H5_4 H 0.826476 0.258499 0.615364
O8_3 O 0.0051(13) 0.5967(12) 0.8834(7)
N2_3 N 0.0570(9) 0.7135(9) 0.9543(5)
O8_4 O 0.9949(13) 0.4033(12) 0.1166(7)
N2_4 N 0.9430(9) 0.2865(9) 0.0457(5)
loop_
_geom_bond_atom_site_label_1
_geom_bond_atom_site_label_2
_geom_bond_site_symmetry_1
_geom_bond_site_symmetry_2
O5 H4 1_555 1_555
O5 H5 1_555 1_555
Sm2 O2 1_555 1_555
O1 C1 1_555 1_555
O2 C1 1_555 1_555
O3 C6 1_555 1_555
O4 C6 1_555 1_555
O7 Sm2 1_555 1_555
N1 Sm2 1_555 1_555
C1 C2 1_555 1_555
C2 N1 1_555 1_555
C3 C2 1_555 1_555
H1 C3 1_555 1_555
C4 C3 1_555 1_555
H2 C4 1_555 1_555
C5 C4 1_555 1_555
C6 C5 1_555 1_555
C7 N1 1_555 1_555
H3 C7 1_555 1_555
Sm3 O1 1_555 1_555
C5 C7 1_555 1_555
Sm3 O2_2 1_555 1_555
O9 C1_2 1_555 1_555
O2_2 C1_2 1_555 1_555
O5_2 Sm3 1_555 1_555
O6_2 Sm3 1_555 1_555
O7_2 Sm3 1_555 1_555
O8 N2 1_555 1_555
N1_2 Sm3 1_555 1_555
N2 O6_2 1_555 1_555
C1_2 C2_2 1_555 1_555
C2_2 N1_2 1_555 1_555
Sm4 O6_2 1_555 1_555
O10 Sm3 1_555 1_555
O11_2 Sm3 1_555 1_555
O12_2 Sm3 1_555 1_555
O7_2 N2 1_555 1_555
Sm4 O12_2 1_555 1_555
O5_2 H4_2 1_555 1_555
O5_2 H5_2 1_555 1_555
O10 C6_2 1_555 1_555
O4_2 C6_2 1_555 1_555
H1_2 C3_2 1_555 1_555
C4_2 C3_2 1_555 1_555
H2_2 C4_2 1_555 1_555
C5_2 C4_2 1_555 1_555
C6_2 C5_2 1_555 1_555
H3_2 C7_2 1_555 1_555
Sm4 O4_2 1_555 1_555
C5_2 C7_2 1_555 1_555
Sm5 O2_3 1_555 1_555
O1_2 C1_3 1_555 1_555
O2_3 C1_3 1_555 1_555
O10_2 C6_3 1_555 1_555
O11 C6_3 1_555 1_555
O7_3 Sm5 1_555 1_555
N1_3 Sm5 1_555 1_555
C1_3 C2_3 1_555 1_555
C2_3 N1_3 1_555 1_555
C3_3 C2_3 1_555 1_555
H1_3 C3_3 1_555 1_555
C4_3 C3_3 1_555 1_555
H2_3 C4_3 1_555 1_555
C5_3 C4_3 1_555 1_555
C6_3 C5_3 1_555 1_555
C7_3 N1_3 1_555 1_555
H3_3 C7_3 1_555 1_555
Sm4 O1_2 1_555 1_555
C5_3 C7_3 1_555 1_555
O5_3 H4_3 1_555 1_555
O5_3 H5_3 1_555 1_555
O3_2 C6_4 1_555 1_555
O11_2 C6_4 1_555 1_555
H1_4 C3_4 1_555 1_555
C4_4 C3_4 1_555 1_555
H2_4 C4_4 1_555 1_555
C5_4 C4_4 1_555 1_555
C6_4 C5_4 1_555 1_555
H3_4 C7_4 1_555 1_555
Sm4 O3_2 1_555 1_555
C5_4 C7_4 1_555 1_555
Sm4 O2_4 1_555 1_555
O9_2 C1_4 1_555 1_555
O2_4 C1_4 1_555 1_555
O5_4 Sm4 1_555 1_555
O7_4 Sm4 1_555 1_555
O8_2 N2_2 1_555 1_555
N1_4 Sm4 1_555 1_555
N2_2 O12_2 1_555 1_555
C1_4 C2_4 1_555 1_555
C2_4 N1_4 1_555 1_555
O7_4 N2_2 1_555 1_555
O5_4 H4_4 1_555 1_555
O5_4 H5_4 1_555 1_555
O8_3 N2_3 1_555 1_555
O8_4 N2_4 1_555 1_555

#END
