
###############################################################################
#
# This file contains modified crystal structure data generated from the
# MOF subset of the Cambridge Structural Database (CSD) v543 
# hosted by the Cambridge Crystallographic Data Centre (CCDC).
#
# This work is licensed under the Creative Commons
# Attribution-NonCommercial-ShareAlike 4.0 International License.
# To view a copy of this license, visit
# http://creativecommons.org/licenses/by-nc-sa/4.0/
# or send a letter to
# Creative Commons, PO Box 1866, Mountain View, CA 94042, USA.
#
# CIF created using the CSD Python API on 29 September 2022
# The structure has been converted into the P1 space group
# The structure has a 3D framework
# The original CSD entry ORIBAU is in the orthorhombic crystal system
# The framework has been calculated to contain at least 10.0% void space
# The void calculation uses a probe of radius 1.32A, grid spacing 0.4
#
###############################################################################

data_ORIBAU
_chemical_formula_moiety         '(C128 H68 O61 Zn11)n'
_symmetry_cell_setting           triclinic
_symmetry_space_group_name_H-M   'P 1'
_symmetry_Int_Tables_number      1
_space_group_name_Hall           'P 1'
loop_
_symmetry_equiv_pos_site_id
_symmetry_equiv_pos_as_xyz
1 x,y,z
_cell_length_a                   33.2737(7)
_cell_length_b                   9.85310(10)
_cell_length_c                   18.2180(2)
_cell_angle_alpha                90
_cell_angle_beta                 90
_cell_angle_gamma                90
_cell_volume                     5972.75
loop_
_atom_site_label
_atom_site_type_symbol
_atom_site_fract_x
_atom_site_fract_y
_atom_site_fract_z
Zn8 Zn 0.0000 0.0000 0.5000
H14 H 0.0000 0.8398 0.2844
Zn8_2 Zn 0.0000 1.0000 0.5000
Zn10 Zn 0.0000 0.5000 0.0000
Zn10_2 Zn 0.0000 0.5000 1.0000
Zn9 Zn 0.5000 0.0000 0.0000
Zn5 Zn 0.596499(14) 0.05071(5) 0.99513(2)
Zn9_2 Zn 0.5000 0.0000 1.0000
Zn1 Zn 0.596499(14) 0.44929(5) 0.49513(2)
Zn2 Zn 0.5000 0.5000 0.5000
C1 C 0.67388(18) 0.3914(6) 0.4925(3)
C2 C 0.71329(15) 0.3173(6) 0.4962(3)
C3 C 0.7490(2) 0.3868(7) 0.4963(4)
H1 H 0.7486 0.4812 0.4964
C4 C 0.71467(18) 0.1791(7) 0.4961(4)
H2 H 0.6909 0.1293 0.4959
C5 C 0.54670(11) 0.2366(4) 0.4611(2)
C6 C 0.52136(11) 0.1161(4) 0.4809(2)
C7 C 0.51956(13) 0.0065(4) 0.4333(2)
H3 H 0.5327 0.0107 0.3883
C9 C 0.55704(11) 0.5913(4) 0.37813(18)
C10 C 0.55955(11) 0.6659(4) 0.30620(19)
C11 C 0.59604(11) 0.7129(5) 0.2796(2)
H5 H 0.6195 0.6972 0.3059
C12 C 0.52461(12) 0.6904(5) 0.2665(2)
H6 H 0.5000 0.6602 0.2844
C13 C 0.59751(11) 0.7826(5) 0.2141(2)
H7 H 0.6221 0.8137 0.1966
C14 C 0.52628(12) 0.7591(5) 0.2009(2)
H8 H 0.5028 0.7736 0.1743
C15 C 0.56275(11) 0.8073(4) 0.17391(19)
C16 C 0.56399(11) 0.8814(4) 0.10276(18)
O1 O 0.64277(10) 0.3264(4) 0.50291(18)
O2 O 0.67347(15) 0.5131(5) 0.4788(3)
O3 O 0.54650(8) 0.3378(3) 0.50741(13)
O4 O 0.56736(10) 0.2365(3) 0.40584(18)
O5 O 0.59030(8) 0.5619(3) 0.40781(15)
O6 O 0.52308(8) 0.5652(3) 0.40220(13)
O7 O 0.59542(8) 0.9502(3) 0.08965(15)
O8 O 0.53485(8) 0.8706(3) 0.06079(14)
C17 C 0.82612(18) 0.1086(6) 0.4925(3)
C18 C 0.78671(15) 0.1827(6) 0.4962(3)
C19 C 0.7510(2) 0.1132(7) 0.4963(4)
H9 H 0.7514 0.0188 0.4964
C20 C 0.78533(18) 0.3209(7) 0.4961(4)
H10 H 0.8091 0.3707 0.4959
O9 O 0.85723(10) 0.1736(4) 0.50291(18)
C24 C 0.50161(12) 0.1092(4) 0.5479(2)
H12 H 0.5026 0.1823 0.5801
Zn3 Zn 0.903501(14) 0.05071(5) 0.49513(2)
Zn8_3 Zn 1.0000 0.0000 0.5000
Zn9_3 Zn 0.5000 1.0000 0.0000
O17 O 0.95350(8) 0.1622(3) 0.50741(13)
O18 O 0.45350(8) 0.6622(3) 0.49259(13)
O19 O 0.47692(8) 0.4348(3) 0.59780(13)
O20 O 0.59542(8) 0.5498(3) 0.58965(15)
O22 O 0.46515(8) 0.3706(3) 0.43921(14)
O23 O 0.53485(8) 0.6294(3) 0.56079(14)
Zn9_4 Zn 0.5000 1.0000 1.0000
C8 C 0.49839(12) 0.8908(4) 0.4521(2)
H4 H 0.4974 0.8177 0.4199
O10 O 0.82653(15) 0.9869(5) 0.4788(3)
C21 C 0.45330(11) 0.7634(4) 0.5389(2)
C22 C 0.47864(11) 0.8839(4) 0.5191(2)
C23 C 0.48044(13) 0.9935(4) 0.5667(2)
H11 H 0.4673 0.9893 0.6117
O12 O 0.43264(10) 0.7635(3) 0.59416(18)
C25 C 0.94296(11) 0.9087(4) 0.37813(18)
C26 C 0.94045(11) 0.8341(4) 0.30620(19)
C27 C 0.90396(11) 0.7871(5) 0.2796(2)
H13 H 0.8805 0.8028 0.3059
C28 C 0.97539(12) 0.8096(5) 0.2665(2)
H14_2 H 1.0000 0.8398 0.2844
C29 C 0.90249(11) 0.7174(5) 0.2141(2)
H15 H 0.8779 0.6863 0.1966
C30 C 0.97372(12) 0.7409(5) 0.2009(2)
H16 H 0.9972 0.7264 0.1743
C31 C 0.93725(11) 0.6927(4) 0.17391(19)
C32 C 0.93601(11) 0.6186(4) 0.10276(18)
O13 O 0.90970(8) 0.9381(3) 0.40781(15)
O14 O 0.97692(8) 0.9348(3) 0.40220(13)
O15 O 0.90458(8) 0.5498(3) 0.08965(15)
O16 O 0.96515(8) 0.6294(3) 0.06079(14)
Zn4 Zn 0.403501(14) 0.55071(5) 0.50487(2)
Zn8_4 Zn 1.0000 1.0000 0.5000
Zn10_3 Zn 1.0000 0.5000 0.0000
O21 O 0.90458(8) 0.9502(3) 0.58965(15)
Zn6 Zn 0.903501(14) 0.44929(5) 0.99513(2)
Zn10_4 Zn 1.0000 0.5000 1.0000
C8_2 C 0.00161(12) 0.6092(4) 0.4521(2)
H4_2 H 0.0026 0.6823 0.4199
C21_2 C 0.04670(11) 0.7366(4) 0.5389(2)
C22_2 C 0.02136(11) 0.6161(4) 0.5191(2)
C23_2 C 0.01956(13) 0.5065(4) 0.5667(2)
H11_2 H 0.0327 0.5107 0.6117
O11 O 0.04650(8) 0.8378(3) 0.49259(13)
O12_2 O 0.06736(10) 0.7365(3) 0.59416(18)
Zn4_2 Zn 0.096499(14) 0.94929(5) 0.50487(2)
O19_2 O 0.02308(8) 0.0652(3) 0.59780(13)
O22_2 O 0.03485(8) 0.1294(3) 0.43921(14)
C5_2 C 0.95330(11) 0.2634(4) 0.4611(2)
C6_2 C 0.97864(11) 0.3839(4) 0.4809(2)
C7_2 C 0.98044(13) 0.4935(4) 0.4333(2)
H3_2 H 0.9673 0.4893 0.3883
O4_2 O 0.93264(10) 0.2635(3) 0.40584(18)
C24_2 C 0.99839(12) 0.3908(4) 0.5479(2)
H12_2 H 0.9974 0.3177 0.5801
O23_2 O 0.96515(8) 0.8706(3) 0.56079(14)
C9_2 C 0.44296(11) 0.0913(4) 0.12187(18)
C10_2 C 0.44045(11) 0.1659(4) 0.19380(19)
C11_2 C 0.40396(11) 0.2129(5) 0.2204(2)
H5_2 H 0.3805 0.1972 0.1941
C12_2 C 0.47539(12) 0.1904(5) 0.2335(2)
H6_2 H 0.5000 0.1602 0.2156
C13_2 C 0.40249(11) 0.2826(5) 0.2859(2)
H7_2 H 0.3779 0.3137 0.3034
C14_2 C 0.47372(12) 0.2591(5) 0.2991(2)
H8_2 H 0.4972 0.2736 0.3257
C15_2 C 0.43725(11) 0.3073(4) 0.32609(19)
C16_2 C 0.43601(11) 0.3814(4) 0.39724(18)
O2_2 O 0.32653(15) 0.0131(5) 0.0212(3)
O5_2 O 0.40970(8) 0.0619(3) 0.09219(15)
O6_2 O 0.47692(8) 0.0652(3) 0.09780(13)
O7_2 O 0.40458(8) 0.4502(3) 0.41035(15)
O18_2 O 0.54650(8) 0.1622(3) 0.00741(13)
O20_2 O 0.40458(8) 0.0498(3) 0.91035(15)
O23_3 O 0.46515(8) 0.1294(3) 0.93921(14)
Zn1_2 Zn 0.403501(14) 0.94929(5) 0.00487(2)
C1_2 C 0.32612(18) 0.8914(6) 0.0075(3)
C2_2 C 0.28671(15) 0.8173(6) 0.0038(3)
C3_2 C 0.2510(2) 0.8868(7) 0.0037(4)
H1_2 H 0.2514 0.9812 0.0036
C4_2 C 0.28533(18) 0.6791(7) 0.0039(4)
H2_2 H 0.3091 0.6293 0.0041
C5_3 C 0.45330(11) 0.7366(4) 0.0389(2)
C6_3 C 0.47864(11) 0.6161(4) 0.0191(2)
C7_3 C 0.48044(13) 0.5065(4) 0.0667(2)
H3_3 H 0.4673 0.5107 0.1117
C8_3 C 0.50161(12) 0.3908(4) 0.0479(2)
H4_3 H 0.5026 0.3177 0.0801
O4_3 O 0.43264(10) 0.7365(3) 0.09416(18)
C17_2 C 0.17388(18) 0.6086(6) 0.0075(3)
C18_2 C 0.21329(15) 0.6827(6) 0.0038(3)
C19_2 C 0.2490(2) 0.6132(7) 0.0037(4)
H9_2 H 0.2486 0.5188 0.0036
C20_2 C 0.21467(18) 0.8209(7) 0.0039(4)
H10_2 H 0.1909 0.8707 0.0041
O10_2 O 0.17347(15) 0.4869(5) 0.0212(3)
Zn3_2 Zn 0.096499(14) 0.55071(5) 0.00487(2)
C25_2 C 0.05704(11) 0.4087(4) 0.12187(18)
C26_2 C 0.05955(11) 0.3341(4) 0.19380(19)
C27_2 C 0.09604(11) 0.2871(5) 0.2204(2)
H13_2 H 0.1195 0.3028 0.1941
C28_2 C 0.02461(12) 0.3096(5) 0.2335(2)
H14_3 H -0.0000 0.3398 0.2156
C29_2 C 0.09751(11) 0.2174(5) 0.2859(2)
H15_2 H 0.1221 0.1863 0.3034
C30_2 C 0.02628(12) 0.2409(5) 0.2991(2)
H16_2 H 0.0028 0.2264 0.3257
C31_2 C 0.06275(11) 0.1927(4) 0.32609(19)
C32_2 C 0.06399(11) 0.1186(4) 0.39724(18)
O13_2 O 0.09030(8) 0.4381(3) 0.09219(15)
O14_2 O 0.02308(8) 0.4348(3) 0.09780(13)
O15_2 O 0.09542(8) 0.0498(3) 0.41035(15)
O1_2 O 0.35723(10) 0.8264(4) 0.99709(18)
O3_2 O 0.45350(8) 0.8378(3) 0.99259(13)
O9_2 O 0.14277(10) 0.6736(4) 0.99709(18)
C21_3 C 0.54670(11) 0.2634(4) 0.9611(2)
C22_3 C 0.52136(11) 0.3839(4) 0.9809(2)
C23_3 C 0.51956(13) 0.4935(4) 0.9333(2)
H11_3 H 0.5327 0.4893 0.8883
C24_3 C 0.49839(12) 0.6092(4) 0.9521(2)
H12_3 H 0.4974 0.6823 0.9199
O12_3 O 0.56736(10) 0.2635(3) 0.90584(18)
O17_2 O 0.04650(8) 0.6622(3) 0.99259(13)
O19_3 O 0.52308(8) 0.9348(3) 0.90220(13)
O21_2 O 0.09542(8) 0.4502(3) 0.91035(15)
H14_4 H 1.0000 0.3398 0.2156
C5_4 C 0.04670(11) 0.7634(4) 0.0389(2)
C6_4 C 0.02136(11) 0.8839(4) 0.0191(2)
C7_4 C 0.01956(13) 0.9935(4) 0.0667(2)
H3_4 H 0.0327 0.9893 0.1117
O4_4 O 0.06736(10) 0.7635(3) 0.09416(18)
C24_4 C 0.00161(12) 0.8908(4) 0.9521(2)
H12_4 H 0.0026 0.8177 0.9199
O23_4 O 0.03485(8) 0.3706(3) 0.93921(14)
C8_4 C 0.99839(12) 0.1092(4) 0.0479(2)
H4_4 H 0.9974 0.1823 0.0801
O11_2 O 0.95350(8) 0.3378(3) 0.00741(13)
C21_4 C 0.95330(11) 0.2366(4) 0.9611(2)
C22_4 C 0.97864(11) 0.1161(4) 0.9809(2)
C23_4 C 0.98044(13) 0.0065(4) 0.9333(2)
H11_4 H 0.9673 0.0107 0.8883
O12_4 O 0.93264(10) 0.2365(3) 0.90584(18)
O19_4 O 0.97692(8) 0.5652(3) 0.90220(13)
O10_3 O 0.17347(15) 0.0131(5) 0.5212(3)
C25_3 C 0.05704(11) 0.0913(4) 0.62187(18)
C26_3 C 0.05955(11) 0.1659(4) 0.69380(19)
C27_3 C 0.09604(11) 0.2129(5) 0.7204(2)
H13_3 H 0.1195 0.1972 0.6941
C28_3 C 0.02461(12) 0.1904(5) 0.7335(2)
H14_5 H 0.0000 0.1602 0.7156
C29_3 C 0.09751(11) 0.2826(5) 0.7859(2)
H15_3 H 0.1221 0.3137 0.8034
C30_3 C 0.02628(12) 0.2591(5) 0.7991(2)
H16_3 H 0.0028 0.2736 0.8257
C31_3 C 0.06275(11) 0.3073(4) 0.82609(19)
C32_3 C 0.06399(11) 0.3814(4) 0.89724(18)
O13_3 O 0.09030(8) 0.0619(3) 0.59219(15)
C1_3 C 0.32612(18) 0.6086(6) 0.5075(3)
C2_3 C 0.28671(15) 0.6827(6) 0.5038(3)
C3_3 C 0.2510(2) 0.6132(7) 0.5037(4)
H1_3 H 0.2514 0.5188 0.5036
C4_3 C 0.28533(18) 0.8209(7) 0.5039(4)
H2_3 H 0.3091 0.8707 0.5041
C9_3 C 0.44296(11) 0.4087(4) 0.62187(18)
C10_3 C 0.44045(11) 0.3341(4) 0.69380(19)
C11_3 C 0.40396(11) 0.2871(5) 0.7204(2)
H5_3 H 0.3805 0.3028 0.6941
C12_3 C 0.47539(12) 0.3096(5) 0.7335(2)
H6_3 H 0.5000 0.3398 0.7156
C13_3 C 0.40249(11) 0.2174(5) 0.7859(2)
H7_3 H 0.3779 0.1863 0.8034
C14_3 C 0.47372(12) 0.2409(5) 0.7991(2)
H8_3 H 0.4972 0.2264 0.8257
C15_3 C 0.43725(11) 0.1927(4) 0.82609(19)
C16_3 C 0.43601(11) 0.1186(4) 0.89724(18)
O1_3 O 0.35723(10) 0.6736(4) 0.49709(18)
O2_3 O 0.32653(15) 0.4869(5) 0.5212(3)
O5_3 O 0.40970(8) 0.4381(3) 0.59219(15)
C17_3 C 0.17388(18) 0.8914(6) 0.5075(3)
C18_3 C 0.21329(15) 0.8173(6) 0.5038(3)
C19_3 C 0.2490(2) 0.8868(7) 0.5037(4)
H9_3 H 0.2486 0.9812 0.5036
C20_3 C 0.21467(18) 0.6791(7) 0.5039(4)
H10_3 H 0.1909 0.6293 0.5041
O9_3 O 0.14277(10) 0.8264(4) 0.49709(18)
H14_6 H 1.0000 0.1602 0.7156
H14_7 H -0.0000 0.6602 0.7844
O1_4 O 0.64277(10) 0.1736(4) 0.00291(18)
O9_4 O 0.85723(10) 0.3264(4) 0.00291(18)
C1_4 C 0.67388(18) 0.1086(6) 0.9925(3)
C2_4 C 0.71329(15) 0.1827(6) 0.9962(3)
C3_4 C 0.7490(2) 0.1132(7) 0.9963(4)
H1_4 H 0.7486 0.0188 0.9964
C4_4 C 0.71467(18) 0.3209(7) 0.9961(4)
H2_4 H 0.6909 0.3707 0.9959
C17_4 C 0.82612(18) 0.3914(6) 0.9925(3)
C18_4 C 0.78671(15) 0.3173(6) 0.9962(3)
C19_4 C 0.7510(2) 0.3868(7) 0.9963(4)
H9_4 H 0.7514 0.4812 0.9964
C20_4 C 0.78533(18) 0.1791(7) 0.9961(4)
H10_4 H 0.8091 0.1293 0.9959
O10_4 O 0.82653(15) 0.5131(5) 0.9788(3)
C25_4 C 0.94296(11) 0.5913(4) 0.87813(18)
C26_4 C 0.94045(11) 0.6659(4) 0.80620(19)
C27_4 C 0.90396(11) 0.7129(5) 0.7796(2)
H13_4 H 0.8805 0.6972 0.8059
C28_4 C 0.97539(12) 0.6904(5) 0.7665(2)
H14_8 H 1.0000 0.6602 0.7844
C29_4 C 0.90249(11) 0.7826(5) 0.7141(2)
H15_4 H 0.8779 0.8137 0.6966
C30_4 C 0.97372(12) 0.7591(5) 0.7009(2)
H16_4 H 0.9972 0.7736 0.6743
C31_4 C 0.93725(11) 0.8073(4) 0.67391(19)
C32_4 C 0.93601(11) 0.8814(4) 0.60276(18)
O13_4 O 0.90970(8) 0.5619(3) 0.90781(15)
C9_4 C 0.55704(11) 0.9087(4) 0.87813(18)
C10_4 C 0.55955(11) 0.8341(4) 0.80620(19)
C11_4 C 0.59604(11) 0.7871(5) 0.7796(2)
H5_4 H 0.6195 0.8028 0.8059
C12_4 C 0.52461(12) 0.8096(5) 0.7665(2)
H6_4 H 0.5000 0.8398 0.7844
C13_4 C 0.59751(11) 0.7174(5) 0.7141(2)
H7_4 H 0.6221 0.6863 0.6966
C14_4 C 0.52628(12) 0.7409(5) 0.7009(2)
H8_4 H 0.5028 0.7264 0.6743
C15_4 C 0.56275(11) 0.6927(4) 0.67391(19)
C16_4 C 0.56399(11) 0.6186(4) 0.60276(18)
O2_4 O 0.67347(15) 0.9869(5) 0.9788(3)
O5_4 O 0.59030(8) 0.9381(3) 0.90781(15)
loop_
_geom_bond_atom_site_label_1
_geom_bond_atom_site_label_2
_geom_bond_site_symmetry_1
_geom_bond_site_symmetry_2
Zn1 O1 1_555 1_555
Zn2 O3 1_555 1_555
C1 C2 1_555 1_555
C2 C3 1_555 1_555
C3 H1 1_555 1_555
C4 C2 1_555 1_555
H2 C4 1_555 1_555
C5 C6 1_555 1_555
C6 C7 1_555 1_555
C7 H3 1_555 1_555
C9 C10 1_555 1_555
C10 C11 1_555 1_555
C11 H5 1_555 1_555
C12 C10 1_555 1_555
H6 C12 1_555 1_555
C13 C11 1_555 1_555
H7 C13 1_555 1_555
C14 C12 1_555 1_555
H8 C14 1_555 1_555
C15 C13 1_555 1_555
C16 C15 1_555 1_555
O1 C1 1_555 1_555
O2 C1 1_555 1_555
O3 Zn1 1_555 1_555
O4 C5 1_555 1_555
O5 Zn1 1_555 1_555
O6 Zn2 1_555 1_555
O7 C16 1_555 1_555
O8 C16 1_555 1_555
C17 C18 1_555 1_555
C18 C19 1_555 1_555
C19 C4 1_555 1_555
H9 C19 1_555 1_555
C20 C3 1_555 1_555
H10 C20 1_555 1_555
O9 C17 1_555 1_555
C24 C6 1_555 1_555
H12 C24 1_555 1_555
Zn3 O9 1_555 1_555
Zn9_3 O8 1_555 1_555
O17 Zn3 1_555 1_555
O18 Zn2 1_555 1_555
O19 Zn2 1_555 1_555
O20 Zn1 1_555 1_555
O22 Zn2 1_555 1_555
O23 Zn2 1_555 1_555
C5 O3 1_555 1_555
C9 O5 1_555 1_555
C9 O6 1_555 1_555
C14 C15 1_555 1_555
C18 C20 1_555 1_555
Zn8_3 O17 1_555 1_555
H4 C8 1_555 1_555
C21 C22 1_555 1_555
C22 C8 1_555 1_555
C23 C22 1_555 1_555
H11 C23 1_555 1_555
O18 C21 1_555 1_555
O12 C21 1_555 1_555
C25 C26 1_555 1_555
C26 C27 1_555 1_555
C27 H13 1_555 1_555
C28 C26 1_555 1_555
H14_2 C28 1_555 1_555
C29 C27 1_555 1_555
H15 C29 1_555 1_555
C30 C28 1_555 1_555
H16 C30 1_555 1_555
C31 C29 1_555 1_555
C32 C31 1_555 1_555
O14 C25 1_555 1_555
O15 C32 1_555 1_555
O16 C32 1_555 1_555
Zn4 O18 1_555 1_555
Zn8_4 O14 1_555 1_555
Zn10_3 O16 1_555 1_555
C25 O13 1_555 1_555
C30 C31 1_555 1_555
H4_2 C8_2 1_555 1_555
C21_2 C22_2 1_555 1_555
C22_2 C8_2 1_555 1_555
C23_2 C22_2 1_555 1_555
H11_2 C23_2 1_555 1_555
O11 C21_2 1_555 1_555
O12_2 C21_2 1_555 1_555
Zn4_2 O11 1_555 1_555
Zn8_2 O11 1_555 1_555
O19_2 Zn8 1_555 1_555
O22_2 Zn8 1_555 1_555
C5_2 C6_2 1_555 1_555
C6_2 C7_2 1_555 1_555
C7_2 H3_2 1_555 1_555
O4_2 C5_2 1_555 1_555
C24_2 C6_2 1_555 1_555
H12_2 C24_2 1_555 1_555
C5_2 O17 1_555 1_555
O23_2 Zn8_4 1_555 1_555
C9_2 C10_2 1_555 1_555
C10_2 C11_2 1_555 1_555
C11_2 H5_2 1_555 1_555
C12_2 C10_2 1_555 1_555
H6_2 C12_2 1_555 1_555
C13_2 C11_2 1_555 1_555
H7_2 C13_2 1_555 1_555
C14_2 C12_2 1_555 1_555
H8_2 C14_2 1_555 1_555
C15_2 C13_2 1_555 1_555
C16_2 C15_2 1_555 1_555
O6_2 Zn9 1_555 1_555
O7_2 C16_2 1_555 1_555
O22 C16_2 1_555 1_555
Zn4 O7_2 1_555 1_555
O18_2 Zn9 1_555 1_555
C9_2 O5_2 1_555 1_555
C9_2 O6_2 1_555 1_555
C14_2 C15_2 1_555 1_555
O23_3 Zn9_2 1_555 1_555
C1_2 C2_2 1_555 1_555
C2_2 C3_2 1_555 1_555
C3_2 H1_2 1_555 1_555
C4_2 C2_2 1_555 1_555
H2_2 C4_2 1_555 1_555
C5_3 C6_3 1_555 1_555
C6_3 C7_3 1_555 1_555
C7_3 H3_3 1_555 1_555
C8_3 C7_3 1_555 1_555
H4_3 C8_3 1_555 1_555
O4_3 C5_3 1_555 1_555
C17_2 C18_2 1_555 1_555
C18_2 C19_2 1_555 1_555
C19_2 C4_2 1_555 1_555
H9_2 C19_2 1_555 1_555
C20_2 C3_2 1_555 1_555
H10_2 C20_2 1_555 1_555
O10_2 C17_2 1_555 1_555
C25_2 C26_2 1_555 1_555
C26_2 C27_2 1_555 1_555
C27_2 H13_2 1_555 1_555
C28_2 C26_2 1_555 1_555
H14_3 C28_2 1_555 1_555
C29_2 C27_2 1_555 1_555
H15_2 C29_2 1_555 1_555
C30_2 C28_2 1_555 1_555
H16_2 C30_2 1_555 1_555
C31_2 C29_2 1_555 1_555
C32_2 C31_2 1_555 1_555
O13_2 Zn3_2 1_555 1_555
O14_2 C25_2 1_555 1_555
O15_2 C32_2 1_555 1_555
O22_2 C32_2 1_555 1_555
Zn10 O14_2 1_555 1_555
C18_2 C20_2 1_555 1_555
C25_2 O13_2 1_555 1_555
C30_2 C31_2 1_555 1_555
Zn9_4 O3_2 1_555 1_555
C21_3 C22_3 1_555 1_555
C23_3 C22_3 1_555 1_555
H11_3 C23_3 1_555 1_555
H12_3 C24_3 1_555 1_555
O12_3 C21_3 1_555 1_555
O19_3 Zn9_4 1_555 1_555
C23_3 C24_3 1_555 1_555
Zn10_2 O17_2 1_555 1_555
C5_4 C6_4 1_555 1_555
C6_4 C7_4 1_555 1_555
C7_4 H3_4 1_555 1_555
O4_4 C5_4 1_555 1_555
H12_4 C24_4 1_555 1_555
O23_4 Zn10_2 1_555 1_555
H4_4 C8_4 1_555 1_555
Zn10_3 O11_2 1_555 1_555
C21_4 C22_4 1_555 1_555
C23_4 C22_4 1_555 1_555
H11_4 C23_4 1_555 1_555
O12_4 C21_4 1_555 1_555
O19_4 Zn10_4 1_555 1_555
C25_3 C26_3 1_555 1_555
C26_3 C27_3 1_555 1_555
C27_3 H13_3 1_555 1_555
C28_3 C26_3 1_555 1_555
H14_5 C28_3 1_555 1_555
C29_3 C27_3 1_555 1_555
H15_3 C29_3 1_555 1_555
C30_3 C28_3 1_555 1_555
H16_3 C30_3 1_555 1_555
C31_3 C29_3 1_555 1_555
C32_3 C31_3 1_555 1_555
O19_2 C25_3 1_555 1_555
O21_2 C32_3 1_555 1_555
O23_4 C32_3 1_555 1_555
C25_3 O13_3 1_555 1_555
C30_3 C31_3 1_555 1_555
Zn4 O1_3 1_555 1_555
C1_3 C2_3 1_555 1_555
C2_3 C3_3 1_555 1_555
C3_3 H1_3 1_555 1_555
C4_3 C2_3 1_555 1_555
H2_3 C4_3 1_555 1_555
C9_3 C10_3 1_555 1_555
C10_3 C11_3 1_555 1_555
C11_3 H5_3 1_555 1_555
C12_3 C10_3 1_555 1_555
H6_3 C12_3 1_555 1_555
C13_3 C11_3 1_555 1_555
H7_3 C13_3 1_555 1_555
C14_3 C12_3 1_555 1_555
H8_3 C14_3 1_555 1_555
C15_3 C13_3 1_555 1_555
C16_3 C15_3 1_555 1_555
O1_3 C1_3 1_555 1_555
O2_3 C1_3 1_555 1_555
O5_3 Zn4 1_555 1_555
O20_2 C16_3 1_555 1_555
O23_3 C16_3 1_555 1_555
C17_3 C18_3 1_555 1_555
C18_3 C19_3 1_555 1_555
C19_3 C4_3 1_555 1_555
H9_3 C19_3 1_555 1_555
C20_3 C3_3 1_555 1_555
H10_3 C20_3 1_555 1_555
O9_3 C17_3 1_555 1_555
Zn4_2 O9_3 1_555 1_555
C9_3 O5_3 1_555 1_555
C9_3 O19 1_555 1_555
C14_3 C15_3 1_555 1_555
C18_3 C20_3 1_555 1_555
C1_4 C2_4 1_555 1_555
C2_4 C3_4 1_555 1_555
C3_4 H1_4 1_555 1_555
C4_4 C2_4 1_555 1_555
H2_4 C4_4 1_555 1_555
C17_4 C18_4 1_555 1_555
C18_4 C19_4 1_555 1_555
C19_4 C4_4 1_555 1_555
H9_4 C19_4 1_555 1_555
C20_4 C3_4 1_555 1_555
H10_4 C20_4 1_555 1_555
O10_4 C17_4 1_555 1_555
C25_4 C26_4 1_555 1_555
C26_4 C27_4 1_555 1_555
C27_4 H13_4 1_555 1_555
C28_4 C26_4 1_555 1_555
H14_8 C28_4 1_555 1_555
C29_4 C27_4 1_555 1_555
H15_4 C29_4 1_555 1_555
C30_4 C28_4 1_555 1_555
H16_4 C30_4 1_555 1_555
C31_4 C29_4 1_555 1_555
C32_4 C31_4 1_555 1_555
O13_4 Zn6 1_555 1_555
O19_4 C25_4 1_555 1_555
O21 C32_4 1_555 1_555
O23_2 C32_4 1_555 1_555
C18_4 C20_4 1_555 1_555
C25_4 O13_4 1_555 1_555
C30_4 C31_4 1_555 1_555
C9_4 C10_4 1_555 1_555
C10_4 C11_4 1_555 1_555
C11_4 H5_4 1_555 1_555
C12_4 C10_4 1_555 1_555
H6_4 C12_4 1_555 1_555
C13_4 C11_4 1_555 1_555
H7_4 C13_4 1_555 1_555
C14_4 C12_4 1_555 1_555
H8_4 C14_4 1_555 1_555
C15_4 C13_4 1_555 1_555
C16_4 C15_4 1_555 1_555
O20 C16_4 1_555 1_555
O23 C16_4 1_555 1_555
C9_4 O5_4 1_555 1_555
C9_4 O19_3 1_555 1_555
C14_4 C15_4 1_555 1_555

#END
