
###############################################################################
#
# This file contains modified crystal structure data generated from the
# MOF subset of the Cambridge Structural Database (CSD) v543 
# hosted by the Cambridge Crystallographic Data Centre (CCDC).
#
# This work is licensed under the Creative Commons
# Attribution-NonCommercial-ShareAlike 4.0 International License.
# To view a copy of this license, visit
# http://creativecommons.org/licenses/by-nc-sa/4.0/
# or send a letter to
# Creative Commons, PO Box 1866, Mountain View, CA 94042, USA.
#
# CIF created using the CSD Python API on 29 September 2022
# The structure has been converted into the P1 space group
# The structure has a 3D framework
# The original CSD entry ORIVOC is in the rhombohedral crystal system
# The framework has been calculated to contain at least 10.0% void space
# The void calculation uses a probe of radius 1.32A, grid spacing 0.4
# H atom positions have been added when not included in the experimental data
# Generated hydrogen atom positions removed from atoms on special positions
#
###############################################################################

data_ORIVOC
_chemical_formula_moiety         '(C72 H90 O72 Zn18)n'
_symmetry_cell_setting           triclinic
_symmetry_space_group_name_H-M   'P 1'
_symmetry_Int_Tables_number      1
_space_group_name_Hall           'P 1'
loop_
_symmetry_equiv_pos_site_id
_symmetry_equiv_pos_as_xyz
1 x,y,z
_cell_length_a                   26.17897(10)
_cell_length_b                   26.17897
_cell_length_c                   6.65197(5)
_cell_angle_alpha                90
_cell_angle_beta                 90
_cell_angle_gamma                120
_cell_volume                     3948.08
loop_
_atom_site_label
_atom_site_type_symbol
_atom_site_fract_x
_atom_site_fract_y
_atom_site_fract_z
Zn1 Zn 0.38790(5) 0.35068(5) 0.15211(16)
C1 C 0.32290(5) 0.20386(4) 0.28779(14)
C2 C 0.34291(7) 0.22040(4) 0.09164(19)
C4 C 0.31168(11) 0.24386(9) 0.41805(30)
O1 O 0.32032(14) 0.29230(9) 0.3504(4)
O2 O 0.29364(16) 0.22895(14) 0.59490(30)
O3 O 0.35220(15) 0.27243(7) 0.0190(4)
O4 O 0.45319(28) 0.34100(41) 0.3017(10)
C5 C 0.34377(5) 0.12947(4) 0.04554(14)
C6 C 0.32376(7) 0.11293(4) 0.24169(19)
C7 C 0.31332(8) 0.15013(6) 0.36281(10)
H2 H 0.29778(15) 0.13728(11) 0.51516(18)
O7 O 0.31447(15) 0.06090(7) 0.3143(4)
Zn4 Zn 0.29611(7) 0.27877(5) 0.81878(16)
Zn6 Zn 0.31599(5) 0.37055(7) 0.48544(16)
Zn8 Zn 0.37055(7) 0.05457(5) 0.51456(16)
O10 O 0.30531(17) 0.34635(14) 0.0171(4)
O14 O 0.39424(7) 0.41310(17) 0.3523(4)
C3 C 0.35335(8) 0.18320(6) 0.97052(10)
H1 H 0.36889(15) 0.19605(11) 0.81817(18)
C8 C 0.35499(11) 0.08947(9) 0.91528(30)
O5 O 0.34635(14) 0.04103(9) 0.9829(4)
O6 O 0.37303(16) 0.10438(14) 0.73843(30)
O11 O 0.43772(14) 0.39802(21) 0.92823(30)
O15 O 0.41310(17) 0.01887(15) 0.6477(4)
Zn5 Zn 0.27877(5) 0.98265(5) 0.18122(16)
O12 O 0.39802(21) 0.96031(16) 0.07177(30)
Zn2 Zn 0.35068(5) 0.96278(7) 0.84789(16)
O8 O 0.34100(41) 0.88781(50) 0.6983(10)
O9 O 0.29230(9) 0.97198(17) 0.6496(4)
O13 O 0.27243(7) 0.92023(17) 0.9810(4)
Zn5_2 Zn 0.01735(5) 0.29611(7) 0.18122(16)
O12_2 O 0.03969(16) 0.43772(26) 0.07177(30)
Zn2_2 Zn 0.03722(7) 0.38790(9) 0.84789(16)
O8_2 O 0.11219(50) 0.45319(65) 0.6983(10)
O9_2 O 0.02802(17) 0.32032(19) 0.6496(4)
O13_2 O 0.07977(17) 0.35220(18) 0.9810(4)
Zn1_2 Zn 0.64932(5) 0.03722(7) 0.15211(16)
C1_2 C 0.79614(4) 0.11904(6) 0.28779(14)
C2_2 C 0.77960(4) 0.12251(8) 0.09164(19)
C4_2 C 0.75614(9) 0.06782(14) 0.41805(30)
O1_2 O 0.70770(9) 0.02802(17) 0.3504(4)
O2_2 O 0.77105(14) 0.06469(21) 0.59490(30)
O3_2 O 0.72757(7) 0.07977(17) 0.0190(4)
O4_2 O 0.65900(41) 0.11219(50) 0.3017(10)
C5_2 C 0.87053(4) 0.21429(6) 0.04554(14)
C6_2 C 0.88707(4) 0.21082(8) 0.24169(19)
C7_2 C 0.84987(6) 0.16318(10) 0.36281(10)
H2_2 H 0.86272(11) 0.16049(19) 0.51516(18)
O7_2 O 0.93910(7) 0.25356(17) 0.3143(4)
Zn4_2 Zn 0.72123(5) 0.01735(9) 0.81878(16)
Zn8_2 Zn 0.94543(5) 0.31599(9) 0.51456(16)
C3_2 C 0.81680(6) 0.17015(10) 0.97052(10)
H1_2 H 0.80395(11) 0.17284(19) 0.81817(18)
C8_2 C 0.91053(9) 0.26551(14) 0.91528(30)
O5_2 O 0.95897(9) 0.30531(17) 0.9829(4)
O6_2 O 0.89562(14) 0.26864(21) 0.73843(30)
O11_2 O 0.60198(21) 0.03969(25) 0.92823(30)
O15_2 O 0.98113(15) 0.39424(23) 0.6477(4)
Zn6_2 Zn 0.62945(7) 0.94543(9) 0.48544(16)
O10_2 O 0.65365(14) 0.95897(22) 0.0171(4)
O14_2 O 0.58690(17) 0.98113(18) 0.3523(4)
Zn6_3 Zn 0.05457(9) 0.68401(5) 0.48544(16)
O10_3 O 0.04103(22) 0.69469(17) 0.0171(4)
O14_3 O 0.01887(18) 0.60576(7) 0.3523(4)
Zn1_3 Zn 0.96278(7) 0.61210(5) 0.15211(16)
C1_3 C 0.88096(6) 0.67710(5) 0.28779(14)
C2_3 C 0.87749(8) 0.65709(7) 0.09164(19)
C4_3 C 0.93218(14) 0.68832(11) 0.41805(30)
O1_3 O 0.97198(17) 0.67968(14) 0.3504(4)
O2_3 O 0.93531(21) 0.70636(16) 0.59490(30)
O3_3 O 0.92023(17) 0.64780(15) 0.0190(4)
O4_3 O 0.88781(50) 0.54681(28) 0.3017(10)
C5_3 C 0.78571(6) 0.65623(5) 0.04554(14)
C6_3 C 0.78918(8) 0.67624(7) 0.24169(19)
C7_3 C 0.83682(10) 0.68668(8) 0.36281(10)
H2_3 H 0.83951(19) 0.70222(15) 0.51516(18)
O7_3 O 0.74644(17) 0.68553(15) 0.3143(4)
Zn4_3 Zn 0.98265(9) 0.70389(7) 0.81878(16)
Zn5_3 Zn 0.70389(7) 0.72123(5) 0.18122(16)
Zn8_3 Zn 0.68401(9) 0.62945(7) 0.51456(16)
O12_3 O 0.56228(26) 0.60198(21) 0.07177(30)
C3_3 C 0.82985(10) 0.64665(8) 0.97052(10)
H1_3 H 0.82716(19) 0.63111(15) 0.81817(18)
C8_3 C 0.73449(14) 0.64501(11) 0.91528(30)
O5_3 O 0.69469(17) 0.65365(14) 0.9829(4)
O6_3 O 0.73136(21) 0.62697(16) 0.73843(30)
Zn2_3 Zn 0.61210(9) 0.64932(5) 0.84789(16)
O8_3 O 0.54681(65) 0.65900(41) 0.6983(10)
O9_3 O 0.67968(19) 0.70770(9) 0.6496(4)
O11_3 O 0.96031(25) 0.56228(14) 0.92823(30)
O13_3 O 0.64780(18) 0.72757(7) 0.9810(4)
O15_3 O 0.60576(23) 0.58690(17) 0.6477(4)
O4_4 O 0.78652(28) 0.00767(41) 0.9684(10)
O10_4 O 0.63865(17) 0.01301(14) 0.6837(4)
H4 H 0.825095 0.032174 0.900692
C4_4 C 0.64501(11) 0.91053(9) 0.08472(30)
O2_4 O 0.62697(16) 0.89562(14) 0.26157(30)
C7_4 C 0.64665(8) 0.81680(6) 0.02948(10)
H2_4 H 0.63111(15) 0.80395(11) 0.18183(18)
C1_4 C 0.65623(5) 0.87053(4) 0.95446(14)
C2_4 C 0.67624(7) 0.88707(4) 0.75831(19)
C3_4 C 0.68668(8) 0.84987(6) 0.63719(10)
H1_4 H 0.70222(15) 0.86272(11) 0.48484(18)
O3_4 O 0.68553(15) 0.93910(7) 0.6857(4)
C5_4 C 0.67710(5) 0.79614(4) 0.71221(14)
C6_4 C 0.65709(7) 0.77960(4) 0.90836(19)
C8_4 C 0.68832(11) 0.75614(9) 0.58195(30)
O6_4 O 0.70636(16) 0.77105(14) 0.40510(30)
O8_4 O 0.67433(41) 0.55448(50) 0.3650(10)
O9_4 O 0.62563(9) 0.63865(17) 0.3163(4)
H3 H 0.776076 0.965617 0.964952
O8_5 O 0.44552(50) 0.11986(65) 0.3650(10)
C4_5 C 0.08947(9) 0.73449(14) 0.08472(30)
O2_5 O 0.10438(14) 0.73136(21) 0.26157(30)
C7_5 C 0.18320(6) 0.82985(10) 0.02948(10)
H2_5 H 0.19605(11) 0.82716(19) 0.18183(18)
C1_5 C 0.12947(4) 0.78571(6) 0.95446(14)
C2_5 C 0.11293(4) 0.78918(8) 0.75831(19)
C3_5 C 0.15013(6) 0.83682(10) 0.63719(10)
H1_5 H 0.13728(11) 0.83951(19) 0.48484(18)
O3_5 O 0.06090(7) 0.74644(17) 0.6857(4)
C5_5 C 0.20386(4) 0.88096(6) 0.71221(14)
C6_5 C 0.22040(4) 0.87749(8) 0.90836(19)
C8_5 C 0.24386(9) 0.93218(14) 0.58195(30)
O6_5 O 0.22895(14) 0.93531(21) 0.40510(30)
O9_5 O 0.36135(17) 0.98699(19) 0.3163(4)
H3_2 H 0.0343831 0.810459 0.964952
O4_5 O 0.99233(41) 0.77886(50) 0.9684(10)
O10_5 O 0.98699(14) 0.62563(22) 0.6837(4)
H4_2 H 0.967826 0.792921 0.900692
C4_6 C 0.26551(14) 0.35499(11) 0.08472(30)
O2_6 O 0.26864(21) 0.37303(16) 0.26157(30)
C7_6 C 0.17015(10) 0.35335(8) 0.02948(10)
H2_6 H 0.17284(19) 0.36889(15) 0.18183(18)
C1_6 C 0.21429(6) 0.34377(5) 0.95446(14)
C2_6 C 0.21082(8) 0.32376(7) 0.75831(19)
C3_6 C 0.16318(10) 0.31332(8) 0.63719(10)
H1_6 H 0.16049(19) 0.29778(15) 0.48484(18)
O3_6 O 0.25356(17) 0.31447(15) 0.6857(4)
O4_6 O 0.22114(50) 0.21348(28) 0.9684(10)
C5_6 C 0.11904(6) 0.32290(5) 0.71221(14)
C6_6 C 0.12251(8) 0.34291(7) 0.90836(19)
C8_6 C 0.06782(14) 0.31168(11) 0.58195(30)
O6_6 O 0.06469(21) 0.29364(16) 0.40510(30)
O9_6 O 0.01301(19) 0.37437(9) 0.3163(4)
O10_6 O 0.37437(22) 0.36135(17) 0.6837(4)
O8_6 O 0.88014(65) 0.32567(41) 0.3650(10)
C2_7 C 0.00958(7) 0.55373(4) 0.42497(19)
C3_7 C 0.02002(8) 0.51653(6) 0.30385(10)
H1_7 H 0.03556(15) 0.52938(11) 0.15150(18)
O4_7 O 0.11986(28) 0.67433(41) 0.6350(10)
C5_7 C 0.01043(5) 0.46281(4) 0.37888(14)
C8_7 C 0.02165(11) 0.42281(9) 0.24862(30)
O8_7 O 0.00767(41) 0.22114(50) 0.0316(10)
H6 H 0.0408033 0.214744 0.0684962
H5 H 0.00788366 0.227083 0.88413
C1_7 C 0.98957(5) 0.53719(4) 0.62112(14)
C4_7 C 0.97835(11) 0.57719(9) 0.75138(30)
C6_7 C 0.99042(7) 0.44627(4) 0.57503(19)
C7_7 C 0.97998(8) 0.48347(6) 0.69615(10)
H2_7 H 0.96444(15) 0.47062(11) 0.84850(18)
C1_8 C 0.46281(4) 0.45237(6) 0.62112(14)
C2_8 C 0.44627(4) 0.45584(8) 0.42497(19)
C3_8 C 0.48347(6) 0.50348(10) 0.30385(10)
H1_8 H 0.47062(11) 0.50617(19) 0.15150(18)
C4_8 C 0.42281(9) 0.40115(14) 0.75138(30)
O4_8 O 0.32567(41) 0.44552(50) 0.6350(10)
C5_8 C 0.53719(4) 0.54763(6) 0.37888(14)
C6_8 C 0.55373(4) 0.54416(8) 0.57503(19)
C7_8 C 0.51653(6) 0.49652(10) 0.69615(10)
H2_8 H 0.52938(11) 0.49383(19) 0.84850(18)
C8_8 C 0.57719(9) 0.59885(14) 0.24862(30)
O8_8 O 0.77886(50) 0.78652(65) 0.0316(10)
H5_2 H 0.772917 0.780801 0.88413
C1_9 C 0.54763(6) 0.01043(5) 0.62112(14)
C4_9 C 0.59885(14) 0.02165(11) 0.75138(30)
C6_9 C 0.45584(8) 0.00958(7) 0.57503(19)
C7_9 C 0.50348(10) 0.02002(8) 0.69615(10)
H2_9 H 0.50617(19) 0.03556(15) 0.84850(18)
C2_9 C 0.54416(8) 0.99042(7) 0.42497(19)
C3_9 C 0.49652(10) 0.97998(8) 0.30385(10)
H1_9 H 0.49383(19) 0.96444(15) 0.15150(18)
O4_9 O 0.55448(50) 0.88014(28) 0.6350(10)
C5_9 C 0.45237(6) 0.98957(5) 0.37888(14)
C8_9 C 0.40115(14) 0.97835(11) 0.24862(30)
O8_9 O 0.21348(65) 0.99233(41) 0.0316(10)
H6_2 H 0.173941 0.959197 0.0684962
H5_3 H 0.219199 0.992116 0.88413
H3_3 H 0.223924 0.0343831 0.0350477
H4_3 H 0.174905 0.967826 0.0993078
H4_4 H 0.032174 0.207079 0.0993078
H3_4 H 0.965617 0.189541 0.0350477
H5_4 H 0.992116 0.772917 0.11587
H6_3 H 0.959197 0.785256 0.931504
H5_5 H 0.227083 0.219199 0.11587
H5_6 H 0.780801 0.00788366 0.11587
H6_4 H 0.826059 0.0408033 0.931504
loop_
_geom_bond_atom_site_label_1
_geom_bond_atom_site_label_2
_geom_bond_site_symmetry_1
_geom_bond_site_symmetry_2
Zn1 O1 1_555 1_555
C1 C2 1_555 1_555
C4 C1 1_555 1_555
O1 C4 1_555 1_555
O2 C4 1_555 1_555
O3 Zn1 1_555 1_555
O4 Zn1 1_555 1_555
C6 C5 1_555 1_555
C7 C1 1_555 1_555
H2 C7 1_555 1_555
O7 C6 1_555 1_555
Zn4 O2 1_555 1_555
Zn6 O1 1_555 1_555
Zn8 O7 1_555 1_555
O10 Zn1 1_555 1_555
O14 Zn1 1_555 1_555
C2 O3 1_555 1_555
C6 C7 1_555 1_555
Zn6 O14 1_555 1_555
C3 H1 1_555 1_555
O5 C8 1_555 1_555
O6 C8 1_555 1_555
Zn8 O6 1_555 1_555
Zn8 O15 1_555 1_555
O8 Zn2 1_555 1_555
O9 Zn2 1_555 1_555
O13 Zn2 1_555 1_555
O8_2 Zn2_2 1_555 1_555
O9_2 Zn2_2 1_555 1_555
O13_2 Zn2_2 1_555 1_555
Zn1_2 O1_2 1_555 1_555
C1_2 C2_2 1_555 1_555
C4_2 C1_2 1_555 1_555
O1_2 C4_2 1_555 1_555
O2_2 C4_2 1_555 1_555
O3_2 Zn1_2 1_555 1_555
O4_2 Zn1_2 1_555 1_555
C6_2 C5_2 1_555 1_555
C7_2 C1_2 1_555 1_555
H2_2 C7_2 1_555 1_555
O7_2 C6_2 1_555 1_555
Zn4_2 O2_2 1_555 1_555
Zn8_2 O7_2 1_555 1_555
C2_2 O3_2 1_555 1_555
C6_2 C7_2 1_555 1_555
C3_2 H1_2 1_555 1_555
O5_2 C8_2 1_555 1_555
O6_2 C8_2 1_555 1_555
Zn8_2 O6_2 1_555 1_555
Zn8_2 O15_2 1_555 1_555
Zn6_2 O14_2 1_555 1_555
Zn6_3 O14_3 1_555 1_555
Zn1_3 O1_3 1_555 1_555
C1_3 C2_3 1_555 1_555
C4_3 C1_3 1_555 1_555
O1_3 C4_3 1_555 1_555
O2_3 C4_3 1_555 1_555
O3_3 Zn1_3 1_555 1_555
O4_3 Zn1_3 1_555 1_555
C6_3 C5_3 1_555 1_555
C7_3 C1_3 1_555 1_555
H2_3 C7_3 1_555 1_555
O7_3 C6_3 1_555 1_555
Zn4_3 O2_3 1_555 1_555
Zn8_3 O7_3 1_555 1_555
C2_3 O3_3 1_555 1_555
C6_3 C7_3 1_555 1_555
O7_3 Zn5_3 1_555 1_555
C3_3 H1_3 1_555 1_555
O5_3 C8_3 1_555 1_555
O6_3 C8_3 1_555 1_555
Zn2_3 O5_3 1_555 1_555
O8_3 Zn2_3 1_555 1_555
Zn8_3 O6_3 1_555 1_555
O9_3 Zn2_3 1_555 1_555
O13_3 Zn2_3 1_555 1_555
O15_3 Zn2_3 1_555 1_555
Zn8_3 O9_3 1_555 1_555
Zn8_3 O15_3 1_555 1_555
O4_4 Zn4_2 1_555 1_555
O10_4 Zn4_2 1_555 1_555
O4_4 H4 1_555 1_555
O10_2 C4_4 1_555 1_555
O2_4 C4_4 1_555 1_555
H2_4 C7_4 1_555 1_555
Zn6_2 O2_4 1_555 1_555
C1_4 C2_4 1_555 1_555
C2_4 C3_4 1_555 1_555
C3_4 H1_4 1_555 1_555
C5_4 C3_4 1_555 1_555
C6_4 C5_4 1_555 1_555
C8_4 C5_4 1_555 1_555
O9_3 C8_4 1_555 1_555
O6_4 C8_4 1_555 1_555
O13_3 C6_4 1_555 1_555
O8_4 Zn8_3 1_555 1_555
Zn6_2 O3_4 1_555 1_555
Zn5_3 O6_4 1_555 1_555
O9_4 Zn8_3 1_555 1_555
C2_4 O3_4 1_555 1_555
Zn5_3 O9_4 1_555 1_555
O8_5 Zn8 1_555 1_555
O10_3 C4_5 1_555 1_555
O2_5 C4_5 1_555 1_555
H2_5 C7_5 1_555 1_555
Zn6_3 O2_5 1_555 1_555
C1_5 C2_5 1_555 1_555
C2_5 C3_5 1_555 1_555
C3_5 H1_5 1_555 1_555
C5_5 C3_5 1_555 1_555
C6_5 C5_5 1_555 1_555
C8_5 C5_5 1_555 1_555
O9 C8_5 1_555 1_555
O6_5 C8_5 1_555 1_555
O13 C6_5 1_555 1_555
Zn6_3 O3_5 1_555 1_555
Zn5 O6_5 1_555 1_555
C2_5 O3_5 1_555 1_555
Zn5 O9_5 1_555 1_555
O4_5 Zn4_3 1_555 1_555
O10_5 Zn4_3 1_555 1_555
O4_5 H4_2 1_555 1_555
O10 C4_6 1_555 1_555
O2_6 C4_6 1_555 1_555
H2_6 C7_6 1_555 1_555
Zn6 O2_6 1_555 1_555
C1_6 C2_6 1_555 1_555
C2_6 C3_6 1_555 1_555
C3_6 H1_6 1_555 1_555
O3_6 Zn4 1_555 1_555
O4_6 Zn4 1_555 1_555
C5_6 C3_6 1_555 1_555
C6_6 C5_6 1_555 1_555
C8_6 C5_6 1_555 1_555
O9_2 C8_6 1_555 1_555
O6_6 C8_6 1_555 1_555
O13_2 C6_6 1_555 1_555
Zn6 O3_6 1_555 1_555
Zn5_2 O6_6 1_555 1_555
O10_6 Zn4 1_555 1_555
C2_6 O3_6 1_555 1_555
Zn6 O10_6 1_555 1_555
Zn5_2 O9_6 1_555 1_555
O8_6 Zn8_2 1_555 1_555
C2_7 C3_7 1_555 1_555
C3_7 H1_7 1_555 1_555
O4_7 Zn6_3 1_555 1_555
C5_7 C3_7 1_555 1_555
C8_7 C5_7 1_555 1_555
O9_6 C8_7 1_555 1_555
O12_2 C8_7 1_555 1_555
O8_7 Zn5_2 1_555 1_555
C2_7 O14_3 1_555 1_555
O8_7 H6 1_555 1_555
C4_7 C1_7 1_555 1_555
O10_5 C4_7 1_555 1_555
O11_3 C4_7 1_555 1_555
C7_7 C1_7 1_555 1_555
H2_7 C7_7 1_555 1_555
O15_2 C6_7 1_555 1_555
C6_7 C7_7 1_555 1_555
C1_8 C2_8 1_555 1_555
C2_8 C3_8 1_555 1_555
C3_8 H1_8 1_555 1_555
C4_8 C1_8 1_555 1_555
O10_6 C4_8 1_555 1_555
O11 C4_8 1_555 1_555
O4_8 Zn6 1_555 1_555
C5_8 C3_8 1_555 1_555
C6_8 C5_8 1_555 1_555
C7_8 C1_8 1_555 1_555
H2_8 C7_8 1_555 1_555
C8_8 C5_8 1_555 1_555
O9_4 C8_8 1_555 1_555
O12_3 C8_8 1_555 1_555
O15_3 C6_8 1_555 1_555
O8_8 Zn5_3 1_555 1_555
C2_8 O14 1_555 1_555
C6_8 C7_8 1_555 1_555
C4_9 C1_9 1_555 1_555
O10_4 C4_9 1_555 1_555
O11_2 C4_9 1_555 1_555
C7_9 C1_9 1_555 1_555
H2_9 C7_9 1_555 1_555
O15 C6_9 1_555 1_555
C6_9 C7_9 1_555 1_555
C2_9 C3_9 1_555 1_555
C3_9 H1_9 1_555 1_555
O4_9 Zn6_2 1_555 1_555
C5_9 C3_9 1_555 1_555
C8_9 C5_9 1_555 1_555
O9_5 C8_9 1_555 1_555
O12 C8_9 1_555 1_555
O8_9 Zn5 1_555 1_555
C2_9 O14_2 1_555 1_555
O8_9 H6_2 1_555 1_555
O8_9 H4_3 1_555 1_555
O8_7 H4_4 1_555 1_555
O4_5 H6_3 1_555 1_555
O4_4 H6_4 1_555 1_555

#END
