
###############################################################################
#
# This file contains modified crystal structure data generated from the
# MOF subset of the Cambridge Structural Database (CSD) v543 
# hosted by the Cambridge Crystallographic Data Centre (CCDC).
#
# This work is licensed under the Creative Commons
# Attribution-NonCommercial-ShareAlike 4.0 International License.
# To view a copy of this license, visit
# http://creativecommons.org/licenses/by-nc-sa/4.0/
# or send a letter to
# Creative Commons, PO Box 1866, Mountain View, CA 94042, USA.
#
# CIF created using the CSD Python API on 29 September 2022
# The structure has been converted into the P1 space group
# The structure has a 3D framework
# The original CSD entry ORIWAP is in the rhombohedral crystal system
# The framework has been calculated to contain at least 10.0% void space
# The void calculation uses a probe of radius 1.32A, grid spacing 0.4
# H atom positions have been added when not included in the experimental data
# Generated hydrogen atom positions removed from atoms on special positions
#
###############################################################################

data_ORIWAP
_chemical_formula_moiety         '(C72 H90 Co18 O66)n'
_symmetry_cell_setting           triclinic
_symmetry_space_group_name_H-M   'P 1'
_symmetry_Int_Tables_number      1
_space_group_name_Hall           'P 1'
loop_
_symmetry_equiv_pos_site_id
_symmetry_equiv_pos_as_xyz
1 x,y,z
_cell_length_a                   26.13173(4)
_cell_length_b                   26.13173
_cell_length_c                   6.722028(13)
_cell_angle_alpha                90
_cell_angle_beta                 90
_cell_angle_gamma                120
_cell_volume                     3975.28
loop_
_atom_site_label
_atom_site_type_symbol
_atom_site_fract_x
_atom_site_fract_y
_atom_site_fract_z
Co1 Co 0.38496(5) 0.34926(5) 0.15008(14)
C1 C 0.32926(28) 0.20814(19) 0.2854(7)
C2 C 0.34415(27) 0.22015(13) 0.0852(7)
C4 C 0.31392(34) 0.24562(31) 0.4230(8)
O1 O 0.32382(18) 0.29195(22) 0.3584(6)
O2 O 0.29972(23) 0.22892(23) 0.5902(7)
O4 O 0.45479(22) 0.33954(32) 0.2923(6)
C5 C 0.33741(28) 0.12519(19) 0.0479(7)
C6 C 0.32252(27) 0.11318(13) 0.2481(7)
C7 C 0.31845(24) 0.15466(23) 0.36679(21)
H2 H 0.3069(4) 0.1453(4) 0.5222(4)
O7 O 0.31132(20) 0.06119(17) 0.3376(7)
Co4 Co 0.29763(7) 0.28171(5) 0.81675(14)
Co6 Co 0.31741(5) 0.36903(7) 0.48341(14)
Co8 Co 0.36903(7) 0.05163(5) 0.51659(14)
O10 O 0.30146(28) 0.34285(18) 0.0251(6)
O14 O 0.39453(17) 0.41654(26) 0.3290(7)
C3 C 0.34822(24) 0.17867(23) 0.96654(21)
H1 H 0.3598(4) 0.1880(4) 0.8111(4)
O3 O 0.35535(20) 0.27214(17) 0.9957(7)
C8 C 0.35275(34) 0.08771(31) 0.9103(8)
O5 O 0.34285(18) 0.04138(22) 0.9749(6)
O6 O 0.36695(23) 0.10441(23) 0.7431(7)
O11 O 0.43775(23) 0.40413(33) 0.9235(7)
O15 O 0.41654(26) 0.02202(20) 0.6710(7)
Co5 Co 0.28171(5) 0.98407(5) 0.18325(14)
O12 O 0.40413(33) 0.96639(23) 0.0765(7)
O13 O 0.27214(17) 0.91679(26) 0.0043(7)
Co2 Co 0.34926(5) 0.96430(7) 0.84992(14)
O8 O 0.33954(32) 0.88475(39) 0.7077(6)
O9 O 0.29195(22) 0.96813(28) 0.6416(6)
Co5_2 Co 0.01593(5) 0.29763(7) 0.18325(14)
O12_2 O 0.03361(23) 0.43775(40) 0.0765(7)
O13_2 O 0.08321(26) 0.35535(31) 0.0043(7)
Co2_2 Co 0.03570(7) 0.38496(9) 0.84992(14)
O8_2 O 0.11525(39) 0.45479(50) 0.7077(6)
O9_2 O 0.03187(28) 0.32382(36) 0.6416(6)
Co1_2 Co 0.65074(5) 0.03570(7) 0.15008(14)
C1_2 C 0.79186(19) 0.12112(34) 0.2854(7)
C2_2 C 0.77985(13) 0.12400(30) 0.0852(7)
C4_2 C 0.75438(31) 0.06830(46) 0.4230(8)
O1_2 O 0.70805(22) 0.03187(28) 0.3584(6)
O2_2 O 0.77108(23) 0.07080(33) 0.5902(7)
O4_2 O 0.66046(32) 0.11525(39) 0.2923(6)
C5_2 C 0.87481(19) 0.21221(34) 0.0479(7)
C6_2 C 0.88682(13) 0.20933(30) 0.2481(7)
C7_2 C 0.84534(23) 0.16378(33) 0.36679(21)
H2_2 H 0.8547(4) 0.1615(6) 0.5222(4)
O7_2 O 0.93881(17) 0.25012(26) 0.3376(7)
Co4_2 Co 0.71829(5) 0.01593(9) 0.81675(14)
Co8_2 Co 0.94837(5) 0.31741(9) 0.51659(14)
C3_2 C 0.82133(23) 0.16955(33) 0.96654(21)
H1_2 H 0.8120(4) 0.1718(6) 0.8111(4)
O3_2 O 0.72786(17) 0.08321(26) 0.9957(7)
C8_2 C 0.91229(31) 0.26503(46) 0.9103(8)
O5_2 O 0.95862(22) 0.30146(28) 0.9749(6)
O6_2 O 0.89559(23) 0.26253(33) 0.7431(7)
O11_2 O 0.59587(33) 0.03361(40) 0.9235(7)
O15_2 O 0.97798(20) 0.39453(33) 0.6710(7)
Co6_2 Co 0.63097(7) 0.94837(9) 0.48341(14)
O10_2 O 0.65715(18) 0.95862(33) 0.0251(6)
O14_2 O 0.58346(26) 0.97798(31) 0.3290(7)
Co6_3 Co 0.05163(9) 0.68259(5) 0.48341(14)
O10_3 O 0.04138(33) 0.69854(28) 0.0251(6)
O14_3 O 0.02202(31) 0.60547(17) 0.3290(7)
Co1_3 Co 0.96430(7) 0.61504(5) 0.15008(14)
C1_3 C 0.87888(34) 0.67074(28) 0.2854(7)
C2_3 C 0.87600(30) 0.65585(27) 0.0852(7)
C4_3 C 0.93170(46) 0.68608(34) 0.4230(8)
O1_3 O 0.96813(28) 0.67618(18) 0.3584(6)
O2_3 O 0.92920(33) 0.70028(23) 0.5902(7)
O4_3 O 0.88475(39) 0.54521(22) 0.2923(6)
C5_3 C 0.78779(34) 0.66259(28) 0.0479(7)
C6_3 C 0.79067(30) 0.67748(27) 0.2481(7)
C7_3 C 0.83622(33) 0.68155(24) 0.36679(21)
H2_3 H 0.8385(6) 0.6931(4) 0.5222(4)
O7_3 O 0.74988(26) 0.68868(20) 0.3376(7)
Co4_3 Co 0.98407(9) 0.70237(7) 0.81675(14)
Co5_3 Co 0.70237(7) 0.71829(5) 0.18325(14)
Co8_3 Co 0.68259(9) 0.63097(7) 0.51659(14)
O12_3 O 0.56225(40) 0.59587(33) 0.0765(7)
O13_3 O 0.64465(31) 0.72786(17) 0.0043(7)
C3_3 C 0.83045(33) 0.65178(24) 0.96654(21)
H1_3 H 0.8282(6) 0.6402(4) 0.8111(4)
O3_3 O 0.91679(26) 0.64465(20) 0.9957(7)
C8_3 C 0.73497(46) 0.64725(34) 0.9103(8)
O5_3 O 0.69854(28) 0.65715(18) 0.9749(6)
O6_3 O 0.73747(33) 0.63305(23) 0.7431(7)
Co2_3 Co 0.61504(9) 0.65074(5) 0.84992(14)
O8_3 O 0.54521(50) 0.66046(32) 0.7077(6)
O9_3 O 0.67618(36) 0.70805(22) 0.6416(6)
O11_3 O 0.96639(40) 0.56225(23) 0.9235(7)
O15_3 O 0.60547(33) 0.58346(26) 0.6710(7)
O4_4 O 0.78812(22) 0.00621(32) 0.9590(6)
O10_4 O 0.63480(28) 0.00951(18) 0.6917(6)
H4 H 0.825891 0.0304493 0.886712
C4_4 C 0.64725(34) 0.91229(31) 0.0897(8)
O2_4 O 0.63305(23) 0.89559(23) 0.2569(7)
C7_4 C 0.65178(24) 0.82133(23) 0.03346(21)
H2_4 H 0.6402(4) 0.8120(4) 0.1889(4)
C1_4 C 0.66259(28) 0.87481(19) 0.9521(7)
C2_4 C 0.67748(27) 0.88682(13) 0.7519(7)
C3_4 C 0.68155(24) 0.84534(23) 0.63321(21)
H1_4 H 0.6931(4) 0.8547(4) 0.4778(4)
O3_4 O 0.68868(20) 0.93881(17) 0.6624(7)
C5_4 C 0.67074(28) 0.79186(19) 0.7146(7)
C6_4 C 0.65585(27) 0.77985(13) 0.9148(7)
C8_4 C 0.68608(34) 0.75438(31) 0.5770(8)
O6_4 O 0.70028(23) 0.77108(23) 0.4098(7)
O8_4 O 0.67287(32) 0.55142(39) 0.3744(6)
O9_4 O 0.62528(22) 0.63480(28) 0.3083(6)
H3 H 0.777532 0.964045 0.95557
O8_5 O 0.44858(39) 0.12146(50) 0.3744(6)
C4_5 C 0.08771(31) 0.73497(46) 0.0897(8)
O2_5 O 0.10441(23) 0.73747(33) 0.2569(7)
C7_5 C 0.17867(23) 0.83045(33) 0.03346(21)
H2_5 H 0.1880(4) 0.8282(6) 0.1889(4)
C1_5 C 0.12519(19) 0.78779(34) 0.9521(7)
C2_5 C 0.11318(13) 0.79067(30) 0.7519(7)
C3_5 C 0.15466(23) 0.83622(33) 0.63321(21)
H1_5 H 0.1453(4) 0.8385(6) 0.4778(4)
O3_5 O 0.06119(17) 0.74988(26) 0.6624(7)
C5_5 C 0.20814(19) 0.87888(34) 0.7146(7)
C6_5 C 0.22015(13) 0.87600(30) 0.9148(7)
C8_5 C 0.24562(31) 0.93170(46) 0.5770(8)
O6_5 O 0.22892(23) 0.92920(33) 0.4098(7)
O9_5 O 0.36520(28) 0.99049(36) 0.3083(6)
H3_2 H 0.0359548 0.813487 0.95557
O4_5 O 0.99379(32) 0.78192(39) 0.9590(6)
O10_5 O 0.99049(18) 0.62528(33) 0.6917(6)
H4_2 H 0.969551 0.795442 0.886712
C4_6 C 0.26503(46) 0.35275(34) 0.0897(8)
O2_6 O 0.26253(33) 0.36695(23) 0.2569(7)
C7_6 C 0.16955(33) 0.34822(24) 0.03346(21)
H2_6 H 0.1718(6) 0.3598(4) 0.1889(4)
C1_6 C 0.21221(34) 0.33741(28) 0.9521(7)
C2_6 C 0.20933(30) 0.32252(27) 0.7519(7)
C3_6 C 0.16378(33) 0.31845(24) 0.63321(21)
H1_6 H 0.1615(6) 0.3069(4) 0.4778(4)
O3_6 O 0.25012(26) 0.31132(20) 0.6624(7)
O4_6 O 0.21808(39) 0.21188(22) 0.9590(6)
C5_6 C 0.12112(34) 0.32926(28) 0.7146(7)
C6_6 C 0.12400(30) 0.34415(27) 0.9148(7)
C8_6 C 0.06830(46) 0.31392(34) 0.5770(8)
O6_6 O 0.07080(33) 0.29972(23) 0.4098(7)
O9_6 O 0.00951(36) 0.37472(22) 0.3083(6)
O10_6 O 0.37472(33) 0.36520(28) 0.6917(6)
O8_6 O 0.87854(50) 0.32713(32) 0.3744(6)
C2_7 C 0.01082(27) 0.55348(13) 0.4185(7)
C3_7 C 0.01489(24) 0.51200(23) 0.29987(21)
H1_7 H 0.0265(4) 0.5213(4) 0.1444(4)
O4_7 O 0.12146(22) 0.67287(32) 0.6256(6)
C5_7 C 0.00407(28) 0.45853(19) 0.3813(7)
C8_7 C 0.01941(34) 0.42105(31) 0.2437(8)
O8_7 O 0.00621(32) 0.21808(39) 0.0410(6)
H6 H 0.0422245 0.21532 0.065479
H5 H 0.00069782 0.220013 0.895614
C1_7 C 0.99593(28) 0.54147(19) 0.6187(7)
C4_7 C 0.98059(34) 0.57895(31) 0.7563(8)
C6_7 C 0.98918(27) 0.44652(13) 0.5815(7)
C7_7 C 0.98511(24) 0.48800(23) 0.70013(21)
H2_7 H 0.9735(4) 0.4787(4) 0.8556(4)
C1_8 C 0.45853(19) 0.45445(34) 0.6187(7)
C2_8 C 0.44652(13) 0.45733(30) 0.4185(7)
C3_8 C 0.48800(23) 0.50288(33) 0.29987(21)
H1_8 H 0.4787(4) 0.5051(6) 0.1444(4)
C4_8 C 0.42105(31) 0.40163(46) 0.7563(8)
O4_8 O 0.32713(32) 0.44858(39) 0.6256(6)
C5_8 C 0.54147(19) 0.54555(34) 0.3813(7)
C6_8 C 0.55348(13) 0.54267(30) 0.5815(7)
C7_8 C 0.51200(23) 0.49712(33) 0.70013(21)
H2_8 H 0.5213(4) 0.4949(6) 0.8556(4)
C8_8 C 0.57895(31) 0.59837(46) 0.2437(8)
O8_8 O 0.78192(39) 0.78812(50) 0.0410(6)
H5_2 H 0.779987 0.780685 0.895614
C1_9 C 0.54555(34) 0.00407(28) 0.6187(7)
C4_9 C 0.59837(46) 0.01941(34) 0.7563(8)
C6_9 C 0.45733(30) 0.01082(27) 0.5815(7)
C7_9 C 0.50288(33) 0.01489(24) 0.70013(21)
H2_9 H 0.5051(6) 0.0265(4) 0.8556(4)
C2_9 C 0.54267(30) 0.98918(27) 0.4185(7)
C3_9 C 0.49712(33) 0.98511(24) 0.29987(21)
H1_9 H 0.4949(6) 0.9735(4) 0.1444(4)
O4_9 O 0.55142(39) 0.87854(22) 0.6256(6)
C5_9 C 0.45445(34) 0.99593(28) 0.3813(7)
C8_9 C 0.40163(46) 0.98059(34) 0.2437(8)
O8_9 O 0.21188(50) 0.99379(32) 0.0410(6)
H6_2 H 0.173096 0.957776 0.065479
H5_3 H 0.219315 0.999302 0.895614
H3_3 H 0.222468 0.0359548 0.0444295
H4_3 H 0.174109 0.969551 0.113288
H4_4 H 0.0304493 0.204558 0.113288
H3_4 H 0.964045 0.186513 0.0444295
H5_4 H 0.999302 0.779987 0.104386
H6_3 H 0.957776 0.78468 0.934521
H5_5 H 0.220013 0.219315 0.104386
H5_6 H 0.780685 0.00069782 0.104386
H6_4 H 0.826904 0.0422245 0.934521
loop_
_geom_bond_atom_site_label_1
_geom_bond_atom_site_label_2
_geom_bond_site_symmetry_1
_geom_bond_site_symmetry_2
Co1 O1 1_555 1_555
C1 C2 1_555 1_555
C4 C1 1_555 1_555
O1 C4 1_555 1_555
O2 C4 1_555 1_555
O4 Co1 1_555 1_555
C6 C5 1_555 1_555
C7 C1 1_555 1_555
H2 C7 1_555 1_555
O7 C6 1_555 1_555
Co4 O2 1_555 1_555
Co6 O1 1_555 1_555
Co8 O7 1_555 1_555
O10 Co1 1_555 1_555
O14 Co1 1_555 1_555
C6 C7 1_555 1_555
Co6 O14 1_555 1_555
C3 H1 1_555 1_555
O5 C8 1_555 1_555
O6 C8 1_555 1_555
Co4 O3 1_555 1_555
Co8 O6 1_555 1_555
Co8 O15 1_555 1_555
Co5 O13 1_555 1_555
O8 Co2 1_555 1_555
O9 Co2 1_555 1_555
Co5_2 O13_2 1_555 1_555
O8_2 Co2_2 1_555 1_555
O9_2 Co2_2 1_555 1_555
Co1_2 O1_2 1_555 1_555
C1_2 C2_2 1_555 1_555
C4_2 C1_2 1_555 1_555
O1_2 C4_2 1_555 1_555
O2_2 C4_2 1_555 1_555
O4_2 Co1_2 1_555 1_555
C6_2 C5_2 1_555 1_555
C7_2 C1_2 1_555 1_555
H2_2 C7_2 1_555 1_555
O7_2 C6_2 1_555 1_555
Co4_2 O2_2 1_555 1_555
Co8_2 O7_2 1_555 1_555
C6_2 C7_2 1_555 1_555
C3_2 H1_2 1_555 1_555
O5_2 C8_2 1_555 1_555
O6_2 C8_2 1_555 1_555
Co4_2 O3_2 1_555 1_555
Co8_2 O6_2 1_555 1_555
Co8_2 O15_2 1_555 1_555
Co6_2 O14_2 1_555 1_555
Co6_3 O14_3 1_555 1_555
Co1_3 O1_3 1_555 1_555
C1_3 C2_3 1_555 1_555
C4_3 C1_3 1_555 1_555
O1_3 C4_3 1_555 1_555
O2_3 C4_3 1_555 1_555
O4_3 Co1_3 1_555 1_555
C6_3 C5_3 1_555 1_555
C7_3 C1_3 1_555 1_555
H2_3 C7_3 1_555 1_555
O7_3 C6_3 1_555 1_555
Co4_3 O2_3 1_555 1_555
Co8_3 O7_3 1_555 1_555
C6_3 C7_3 1_555 1_555
O7_3 Co5_3 1_555 1_555
Co5_3 O13_3 1_555 1_555
C3_3 H1_3 1_555 1_555
O5_3 C8_3 1_555 1_555
O6_3 C8_3 1_555 1_555
Co2_3 O5_3 1_555 1_555
O8_3 Co2_3 1_555 1_555
Co4_3 O3_3 1_555 1_555
Co8_3 O6_3 1_555 1_555
O9_3 Co2_3 1_555 1_555
O15_3 Co2_3 1_555 1_555
Co8_3 O9_3 1_555 1_555
Co8_3 O15_3 1_555 1_555
O4_4 Co4_2 1_555 1_555
O10_4 Co4_2 1_555 1_555
O4_4 H4 1_555 1_555
O10_2 C4_4 1_555 1_555
O2_4 C4_4 1_555 1_555
H2_4 C7_4 1_555 1_555
Co6_2 O2_4 1_555 1_555
C1_4 C2_4 1_555 1_555
C2_4 C3_4 1_555 1_555
C3_4 H1_4 1_555 1_555
C5_4 C3_4 1_555 1_555
C6_4 C5_4 1_555 1_555
C8_4 C5_4 1_555 1_555
O9_3 C8_4 1_555 1_555
O6_4 C8_4 1_555 1_555
O8_4 Co8_3 1_555 1_555
Co6_2 O3_4 1_555 1_555
Co5_3 O6_4 1_555 1_555
O9_4 Co8_3 1_555 1_555
C2_4 O3_4 1_555 1_555
Co5_3 O9_4 1_555 1_555
O8_5 Co8 1_555 1_555
O10_3 C4_5 1_555 1_555
O2_5 C4_5 1_555 1_555
H2_5 C7_5 1_555 1_555
Co6_3 O2_5 1_555 1_555
C1_5 C2_5 1_555 1_555
C2_5 C3_5 1_555 1_555
C3_5 H1_5 1_555 1_555
C5_5 C3_5 1_555 1_555
C6_5 C5_5 1_555 1_555
C8_5 C5_5 1_555 1_555
O9 C8_5 1_555 1_555
O6_5 C8_5 1_555 1_555
Co6_3 O3_5 1_555 1_555
Co5 O6_5 1_555 1_555
C2_5 O3_5 1_555 1_555
Co5 O9_5 1_555 1_555
O4_5 Co4_3 1_555 1_555
O10_5 Co4_3 1_555 1_555
O4_5 H4_2 1_555 1_555
O10 C4_6 1_555 1_555
O2_6 C4_6 1_555 1_555
H2_6 C7_6 1_555 1_555
Co6 O2_6 1_555 1_555
C1_6 C2_6 1_555 1_555
C2_6 C3_6 1_555 1_555
C3_6 H1_6 1_555 1_555
O3_6 Co4 1_555 1_555
O4_6 Co4 1_555 1_555
C5_6 C3_6 1_555 1_555
C6_6 C5_6 1_555 1_555
C8_6 C5_6 1_555 1_555
O9_2 C8_6 1_555 1_555
O6_6 C8_6 1_555 1_555
Co6 O3_6 1_555 1_555
Co5_2 O6_6 1_555 1_555
O10_6 Co4 1_555 1_555
C2_6 O3_6 1_555 1_555
Co6 O10_6 1_555 1_555
Co5_2 O9_6 1_555 1_555
O8_6 Co8_2 1_555 1_555
C2_7 C3_7 1_555 1_555
C3_7 H1_7 1_555 1_555
O4_7 Co6_3 1_555 1_555
C5_7 C3_7 1_555 1_555
C8_7 C5_7 1_555 1_555
O9_6 C8_7 1_555 1_555
O12_2 C8_7 1_555 1_555
O8_7 Co5_2 1_555 1_555
C2_7 O14_3 1_555 1_555
O8_7 H6 1_555 1_555
C4_7 C1_7 1_555 1_555
O10_5 C4_7 1_555 1_555
O11_3 C4_7 1_555 1_555
C7_7 C1_7 1_555 1_555
H2_7 C7_7 1_555 1_555
O15_2 C6_7 1_555 1_555
C6_7 C7_7 1_555 1_555
C1_8 C2_8 1_555 1_555
C2_8 C3_8 1_555 1_555
C3_8 H1_8 1_555 1_555
C4_8 C1_8 1_555 1_555
O10_6 C4_8 1_555 1_555
O11 C4_8 1_555 1_555
O4_8 Co6 1_555 1_555
C5_8 C3_8 1_555 1_555
C6_8 C5_8 1_555 1_555
C7_8 C1_8 1_555 1_555
H2_8 C7_8 1_555 1_555
C8_8 C5_8 1_555 1_555
O9_4 C8_8 1_555 1_555
O12_3 C8_8 1_555 1_555
O15_3 C6_8 1_555 1_555
O8_8 Co5_3 1_555 1_555
C2_8 O14 1_555 1_555
C6_8 C7_8 1_555 1_555
C4_9 C1_9 1_555 1_555
O10_4 C4_9 1_555 1_555
O11_2 C4_9 1_555 1_555
C7_9 C1_9 1_555 1_555
H2_9 C7_9 1_555 1_555
O15 C6_9 1_555 1_555
C6_9 C7_9 1_555 1_555
C2_9 C3_9 1_555 1_555
C3_9 H1_9 1_555 1_555
O4_9 Co6_2 1_555 1_555
C5_9 C3_9 1_555 1_555
C8_9 C5_9 1_555 1_555
O9_5 C8_9 1_555 1_555
O12 C8_9 1_555 1_555
O8_9 Co5 1_555 1_555
C2_9 O14_2 1_555 1_555
O8_9 H6_2 1_555 1_555
O8_9 H4_3 1_555 1_555
O8_7 H4_4 1_555 1_555
O4_5 H6_3 1_555 1_555
O4_4 H6_4 1_555 1_555

#END
