
###############################################################################
#
# This file contains modified crystal structure data generated from the
# MOF subset of the Cambridge Structural Database (CSD) v543 
# hosted by the Cambridge Crystallographic Data Centre (CCDC).
#
# This work is licensed under the Creative Commons
# Attribution-NonCommercial-ShareAlike 4.0 International License.
# To view a copy of this license, visit
# http://creativecommons.org/licenses/by-nc-sa/4.0/
# or send a letter to
# Creative Commons, PO Box 1866, Mountain View, CA 94042, USA.
#
# CIF created using the CSD Python API on 29 September 2022
# The structure has been converted into the P1 space group
# The structure has a 3D framework
# The original CSD entry ORIWET is in the rhombohedral crystal system
# The framework has been calculated to contain at least 10.0% void space
# The void calculation uses a probe of radius 1.32A, grid spacing 0.4
# H atom positions have been added when not included in the experimental data
# Generated hydrogen atom positions removed from atoms on special positions
#
###############################################################################

data_ORIWET
_chemical_formula_moiety         '(C72 H90 Mn18 O72)n'
_symmetry_cell_setting           triclinic
_symmetry_space_group_name_H-M   'P 1'
_symmetry_Int_Tables_number      1
_space_group_name_Hall           'P 1'
loop_
_symmetry_equiv_pos_site_id
_symmetry_equiv_pos_as_xyz
1 x,y,z
_cell_length_a                   26.57377(17)
_cell_length_b                   26.57377
_cell_length_c                   6.80883(8)
_cell_angle_alpha                90
_cell_angle_beta                 90
_cell_angle_gamma                120
_cell_volume                     4163.99
loop_
_atom_site_label
_atom_site_type_symbol
_atom_site_fract_x
_atom_site_fract_y
_atom_site_fract_z
Mn1 Mn 0.39072(9) 0.35177(9) 0.14297(26)
C1 C 0.32125(7) 0.20173(5) 0.28665(18)
C2 C 0.33897(9) 0.21815(5) 0.09342(24)
C4 C 0.30825(14) 0.23943(11) 0.4157(4)
O1 O 0.31334(16) 0.28585(11) 0.3496(6)
O2 O 0.29227(21) 0.22463(18) 0.5899(4)
O3 O 0.34444(18) 0.26801(10) 0.0225(5)
O4 O 0.4588(4) 0.3467(6) 0.3069(14)
C5 C 0.34542(7) 0.13160(5) 0.04668(18)
C6 C 0.32770(9) 0.11518(5) 0.23991(24)
C7 C 0.31561(11) 0.15024(8) 0.35989(12)
H2 H 0.30185(19) 0.13749(15) 0.50995(22)
O7 O 0.32223(18) 0.06532(10) 0.3108(5)
Mn4 Mn 0.29438(13) 0.27595(9) 0.80964(26)
Mn6 Mn 0.31490(9) 0.37228(13) 0.47630(26)
Mn8 Mn 0.37228(13) 0.05739(9) 0.52370(26)
O10 O 0.30584(19) 0.35333(16) 0.0163(6)
O14 O 0.39866(10) 0.40976(21) 0.3558(5)
C3 C 0.35106(11) 0.18309(8) 0.97344(12)
H1 H 0.36482(19) 0.19584(15) 0.82338(22)
C8 C 0.35842(14) 0.09390(11) 0.9176(4)
O5 O 0.35333(16) 0.04748(11) 0.9837(6)
O6 O 0.37440(21) 0.10870(18) 0.7434(4)
O11 O 0.44204(18) 0.40097(28) 0.9232(4)
O15 O 0.40976(21) 0.01111(18) 0.6442(5)
Mn5 Mn 0.27595(9) 0.98156(9) 0.19036(26)
O12 O 0.40097(28) 0.95894(21) 0.0768(4)
Mn2 Mn 0.35177(9) 0.96105(13) 0.85703(26)
O8 O 0.3467(6) 0.8879(7) 0.6931(14)
O9 O 0.28585(11) 0.97251(19) 0.6504(6)
O13 O 0.26801(10) 0.92357(21) 0.9775(5)
Mn5_2 Mn 0.01844(9) 0.29438(13) 0.19036(26)
O12_2 O 0.04106(21) 0.44204(35) 0.0768(4)
Mn2_2 Mn 0.03895(13) 0.39072(16) 0.85703(26)
O8_2 O 0.1121(7) 0.4588(9) 0.6931(14)
O9_2 O 0.02749(19) 0.31334(22) 0.6504(6)
O13_2 O 0.07643(21) 0.34444(23) 0.9775(5)
Mn1_2 Mn 0.64823(9) 0.03895(13) 0.14297(26)
C1_2 C 0.79827(5) 0.11952(9) 0.28665(18)
C2_2 C 0.78185(5) 0.12082(10) 0.09342(24)
C4_2 C 0.76057(11) 0.06882(18) 0.4157(4)
O1_2 O 0.71415(11) 0.02749(19) 0.3496(6)
O2_2 O 0.77537(18) 0.06764(28) 0.5899(4)
O3_2 O 0.73199(10) 0.07643(21) 0.0225(5)
O4_2 O 0.6533(6) 0.1121(7) 0.3069(14)
C5_2 C 0.86840(5) 0.21381(9) 0.04668(18)
C6_2 C 0.88482(5) 0.21251(10) 0.23991(24)
C7_2 C 0.84976(8) 0.16536(14) 0.35989(12)
H2_2 H 0.86251(15) 0.16435(24) 0.50995(22)
O7_2 O 0.93468(10) 0.25690(21) 0.3108(5)
Mn4_2 Mn 0.72405(9) 0.01844(16) 0.80964(26)
Mn8_2 Mn 0.94261(9) 0.31490(16) 0.52370(26)
C3_2 C 0.81691(8) 0.16797(14) 0.97344(12)
H1_2 H 0.80416(15) 0.16898(24) 0.82338(22)
C8_2 C 0.90610(11) 0.26451(18) 0.9176(4)
O5_2 O 0.95252(11) 0.30584(19) 0.9837(6)
O6_2 O 0.89130(18) 0.26569(28) 0.7434(4)
O11_2 O 0.59903(28) 0.04106(33) 0.9232(4)
O15_2 O 0.98889(18) 0.39866(28) 0.6442(5)
Mn6_2 Mn 0.62772(13) 0.94261(16) 0.47630(26)
O10_2 O 0.64667(16) 0.95252(25) 0.0163(6)
O14_2 O 0.59024(21) 0.98889(23) 0.3558(5)
Mn6_3 Mn 0.05739(16) 0.68510(9) 0.47630(26)
O10_3 O 0.04748(25) 0.69416(19) 0.0163(6)
O14_3 O 0.01111(23) 0.60134(10) 0.3558(5)
Mn1_3 Mn 0.96105(13) 0.60928(9) 0.14297(26)
C1_3 C 0.88048(9) 0.67875(7) 0.28665(18)
C2_3 C 0.87918(10) 0.66103(9) 0.09342(24)
C4_3 C 0.93118(18) 0.69175(14) 0.4157(4)
O1_3 O 0.97251(19) 0.68666(16) 0.3496(6)
O2_3 O 0.93236(28) 0.70773(21) 0.5899(4)
O3_3 O 0.92357(21) 0.65556(18) 0.0225(5)
O4_3 O 0.8879(7) 0.5412(4) 0.3069(14)
C5_3 C 0.78619(9) 0.65458(7) 0.04668(18)
C6_3 C 0.78749(10) 0.67230(9) 0.23991(24)
C7_3 C 0.83464(14) 0.68439(11) 0.35989(12)
H2_3 H 0.83565(24) 0.69815(19) 0.50995(22)
O7_3 O 0.74310(21) 0.67777(18) 0.3108(5)
Mn4_3 Mn 0.98156(16) 0.70562(13) 0.80964(26)
Mn5_3 Mn 0.70562(13) 0.72405(9) 0.19036(26)
Mn8_3 Mn 0.68510(16) 0.62772(13) 0.52370(26)
O12_3 O 0.55796(35) 0.59903(28) 0.0768(4)
C3_3 C 0.83203(14) 0.64894(11) 0.97344(12)
H1_3 H 0.83102(24) 0.63518(19) 0.82338(22)
C8_3 C 0.73549(18) 0.64158(14) 0.9176(4)
O5_3 O 0.69416(19) 0.64667(16) 0.9837(6)
O6_3 O 0.73431(28) 0.62560(21) 0.7434(4)
Mn2_3 Mn 0.60928(16) 0.64823(9) 0.85703(26)
O8_3 O 0.5412(9) 0.6533(6) 0.6931(14)
O9_3 O 0.68666(22) 0.71415(11) 0.6504(6)
O11_3 O 0.95894(33) 0.55796(18) 0.9232(4)
O13_3 O 0.65556(23) 0.73199(10) 0.9775(5)
O15_3 O 0.60134(28) 0.59024(21) 0.6442(5)
O4_4 O 0.7921(4) 0.0134(6) 0.9736(14)
O10_4 O 0.63918(19) 0.01999(16) 0.6829(6)
H4 H 0.830347 0.0388082 0.910514
C4_4 C 0.64158(14) 0.90610(11) 0.0824(4)
O2_4 O 0.62560(21) 0.89130(18) 0.2566(4)
C7_4 C 0.64894(11) 0.81691(8) 0.02656(12)
H2_4 H 0.63518(19) 0.80416(15) 0.17662(22)
C1_4 C 0.65458(7) 0.86840(5) 0.95332(18)
C2_4 C 0.67230(9) 0.88482(5) 0.76009(24)
C3_4 C 0.68439(11) 0.84976(8) 0.64011(12)
H1_4 H 0.69815(19) 0.86251(15) 0.49005(22)
O3_4 O 0.67777(18) 0.93468(10) 0.6892(5)
C5_4 C 0.67875(7) 0.79827(5) 0.71335(18)
C6_4 C 0.66103(9) 0.78185(5) 0.90658(24)
C8_4 C 0.69175(14) 0.76057(11) 0.5843(4)
O6_4 O 0.70773(21) 0.77537(18) 0.4101(4)
O8_4 O 0.6800(6) 0.5546(7) 0.3598(14)
O9_4 O 0.61918(11) 0.63918(19) 0.3171(6)
H3 H 0.78404 0.972616 0.973807
O8_5 O 0.4454(7) 0.1255(9) 0.3598(14)
C4_5 C 0.09390(11) 0.73549(18) 0.0824(4)
O2_5 O 0.10870(18) 0.73431(28) 0.2566(4)
C7_5 C 0.18309(8) 0.83203(14) 0.02656(12)
H2_5 H 0.19584(15) 0.83102(24) 0.17662(22)
C1_5 C 0.13160(5) 0.78619(9) 0.95332(18)
C2_5 C 0.11518(5) 0.78749(10) 0.76009(24)
C3_5 C 0.15024(8) 0.83464(14) 0.64011(12)
H1_5 H 0.13749(15) 0.83565(24) 0.49005(22)
O3_5 O 0.06532(10) 0.74310(21) 0.6892(5)
C5_5 C 0.20173(5) 0.88048(9) 0.71335(18)
C6_5 C 0.21815(5) 0.87918(10) 0.90658(24)
C8_5 C 0.23943(11) 0.93118(18) 0.5843(4)
O6_5 O 0.22463(18) 0.93236(28) 0.4101(4)
O9_5 O 0.36082(19) 0.98001(22) 0.3171(6)
H3_2 H 0.0273842 0.811425 0.973807
O4_5 O 0.9866(6) 0.7788(7) 0.9736(14)
O10_5 O 0.98001(16) 0.61918(25) 0.6829(6)
H4_2 H 0.961192 0.791539 0.910514
C4_6 C 0.26451(18) 0.35842(14) 0.0824(4)
O2_6 O 0.26569(28) 0.37440(21) 0.2566(4)
C7_6 C 0.16797(14) 0.35106(11) 0.02656(12)
H2_6 H 0.16898(24) 0.36482(19) 0.17662(22)
C1_6 C 0.21381(9) 0.34542(7) 0.95332(18)
C2_6 C 0.21251(10) 0.32770(9) 0.76009(24)
C3_6 C 0.16536(14) 0.31561(11) 0.64011(12)
H1_6 H 0.16435(24) 0.30185(19) 0.49005(22)
O3_6 O 0.25690(21) 0.32223(18) 0.6892(5)
O4_6 O 0.2212(7) 0.2079(4) 0.9736(14)
C5_6 C 0.11952(9) 0.32125(7) 0.71335(18)
C6_6 C 0.12082(10) 0.33897(9) 0.90658(24)
C8_6 C 0.06882(18) 0.30825(14) 0.5843(4)
O6_6 O 0.06764(28) 0.29227(21) 0.4101(4)
O9_6 O 0.01999(22) 0.38082(11) 0.3171(6)
O10_6 O 0.38082(25) 0.36082(19) 0.6829(6)
O8_6 O 0.8745(9) 0.3200(6) 0.3598(14)
C2_7 C 0.00564(9) 0.55148(5) 0.42675(24)
C3_7 C 0.01773(11) 0.51642(8) 0.30677(12)
H1_7 H 0.03149(19) 0.52917(15) 0.15671(22)
O4_7 O 0.1255(4) 0.6800(6) 0.6402(14)
C5_7 C 0.01208(7) 0.46494(5) 0.38002(18)
C8_7 C 0.02508(14) 0.42724(11) 0.2510(4)
O8_7 O 0.0134(6) 0.2212(7) 0.0264(14)
H6 H 0.0212628 0.196551 0.116272
H5 H 0.0426383 0.236109 0.919289
C1_7 C 0.98792(7) 0.53506(5) 0.61998(18)
C4_7 C 0.97492(14) 0.57276(11) 0.7490(4)
C6_7 C 0.99436(9) 0.44852(5) 0.57325(24)
C7_7 C 0.98227(11) 0.48358(8) 0.69323(12)
H2_7 H 0.96851(19) 0.47083(15) 0.84329(22)
C1_8 C 0.46494(5) 0.45285(9) 0.61998(18)
C2_8 C 0.44852(5) 0.45415(10) 0.42675(24)
C3_8 C 0.48358(8) 0.50130(14) 0.30677(12)
H1_8 H 0.47083(15) 0.50231(24) 0.15671(22)
C4_8 C 0.42724(11) 0.40215(18) 0.7490(4)
O4_8 O 0.3200(6) 0.4454(7) 0.6402(14)
C5_8 C 0.53506(5) 0.54715(9) 0.38002(18)
C6_8 C 0.55148(5) 0.54585(10) 0.57325(24)
C7_8 C 0.51642(8) 0.49870(14) 0.69323(12)
H2_8 H 0.52917(15) 0.49769(24) 0.84329(22)
C8_8 C 0.57276(11) 0.59785(18) 0.2510(4)
O8_8 O 0.7788(7) 0.7921(9) 0.0264(14)
H5_2 H 0.763891 0.80653 0.919289
C1_9 C 0.54715(9) 0.01208(7) 0.61998(18)
C4_9 C 0.59785(18) 0.02508(14) 0.7490(4)
C6_9 C 0.45415(10) 0.00564(9) 0.57325(24)
C7_9 C 0.50130(14) 0.01773(11) 0.69323(12)
H2_9 H 0.50231(24) 0.03149(19) 0.84329(22)
C2_9 C 0.54585(10) 0.99436(9) 0.42675(24)
C3_9 C 0.49870(14) 0.98227(11) 0.30677(12)
H1_9 H 0.49769(24) 0.96851(19) 0.15671(22)
O4_9 O 0.5546(7) 0.8745(4) 0.6402(14)
C5_9 C 0.45285(9) 0.98792(7) 0.38002(18)
C8_9 C 0.40215(18) 0.97492(14) 0.2510(4)
O8_9 O 0.2079(9) 0.9866(6) 0.0264(14)
H6_2 H 0.175288 0.978737 0.116272
H5_3 H 0.19347 0.957362 0.919289
H3_3 H 0.21596 0.0273842 0.0261935
H4_3 H 0.169653 0.961192 0.0894855
H4_4 H 0.0388082 0.208461 0.0894855
H3_4 H 0.972616 0.188575 0.0261935
H5_4 H 0.957362 0.763891 0.080711
H6_3 H 0.978737 0.803449 0.883728
H5_5 H 0.236109 0.19347 0.080711
H5_6 H 0.80653 0.0426383 0.080711
H6_4 H 0.824712 0.0212628 0.883728
loop_
_geom_bond_atom_site_label_1
_geom_bond_atom_site_label_2
_geom_bond_site_symmetry_1
_geom_bond_site_symmetry_2
Mn1 O1 1_555 1_555
C1 C2 1_555 1_555
C4 C1 1_555 1_555
O1 C4 1_555 1_555
O2 C4 1_555 1_555
O3 Mn1 1_555 1_555
O4 Mn1 1_555 1_555
C6 C5 1_555 1_555
C7 C1 1_555 1_555
H2 C7 1_555 1_555
O7 C6 1_555 1_555
Mn4 O2 1_555 1_555
Mn6 O1 1_555 1_555
Mn8 O7 1_555 1_555
O10 Mn1 1_555 1_555
O14 Mn1 1_555 1_555
C2 O3 1_555 1_555
C6 C7 1_555 1_555
Mn6 O14 1_555 1_555
C3 H1 1_555 1_555
O5 C8 1_555 1_555
O6 C8 1_555 1_555
Mn8 O6 1_555 1_555
Mn8 O15 1_555 1_555
O8 Mn2 1_555 1_555
O9 Mn2 1_555 1_555
O13 Mn2 1_555 1_555
O8_2 Mn2_2 1_555 1_555
O9_2 Mn2_2 1_555 1_555
O13_2 Mn2_2 1_555 1_555
Mn1_2 O1_2 1_555 1_555
C1_2 C2_2 1_555 1_555
C4_2 C1_2 1_555 1_555
O1_2 C4_2 1_555 1_555
O2_2 C4_2 1_555 1_555
O3_2 Mn1_2 1_555 1_555
O4_2 Mn1_2 1_555 1_555
C6_2 C5_2 1_555 1_555
C7_2 C1_2 1_555 1_555
H2_2 C7_2 1_555 1_555
O7_2 C6_2 1_555 1_555
Mn4_2 O2_2 1_555 1_555
Mn8_2 O7_2 1_555 1_555
C2_2 O3_2 1_555 1_555
C6_2 C7_2 1_555 1_555
C3_2 H1_2 1_555 1_555
O5_2 C8_2 1_555 1_555
O6_2 C8_2 1_555 1_555
Mn8_2 O6_2 1_555 1_555
Mn8_2 O15_2 1_555 1_555
Mn6_2 O14_2 1_555 1_555
Mn6_3 O14_3 1_555 1_555
Mn1_3 O1_3 1_555 1_555
C1_3 C2_3 1_555 1_555
C4_3 C1_3 1_555 1_555
O1_3 C4_3 1_555 1_555
O2_3 C4_3 1_555 1_555
O3_3 Mn1_3 1_555 1_555
O4_3 Mn1_3 1_555 1_555
C6_3 C5_3 1_555 1_555
C7_3 C1_3 1_555 1_555
H2_3 C7_3 1_555 1_555
O7_3 C6_3 1_555 1_555
Mn4_3 O2_3 1_555 1_555
Mn8_3 O7_3 1_555 1_555
C2_3 O3_3 1_555 1_555
C6_3 C7_3 1_555 1_555
O7_3 Mn5_3 1_555 1_555
C3_3 H1_3 1_555 1_555
O5_3 C8_3 1_555 1_555
O6_3 C8_3 1_555 1_555
Mn2_3 O5_3 1_555 1_555
O8_3 Mn2_3 1_555 1_555
Mn8_3 O6_3 1_555 1_555
O9_3 Mn2_3 1_555 1_555
O13_3 Mn2_3 1_555 1_555
O15_3 Mn2_3 1_555 1_555
Mn8_3 O9_3 1_555 1_555
Mn8_3 O15_3 1_555 1_555
O4_4 Mn4_2 1_555 1_555
O10_4 Mn4_2 1_555 1_555
O4_4 H4 1_555 1_555
O10_2 C4_4 1_555 1_555
O2_4 C4_4 1_555 1_555
H2_4 C7_4 1_555 1_555
Mn6_2 O2_4 1_555 1_555
C1_4 C2_4 1_555 1_555
C2_4 C3_4 1_555 1_555
C3_4 H1_4 1_555 1_555
C5_4 C3_4 1_555 1_555
C6_4 C5_4 1_555 1_555
C8_4 C5_4 1_555 1_555
O9_3 C8_4 1_555 1_555
O6_4 C8_4 1_555 1_555
O13_3 C6_4 1_555 1_555
O8_4 Mn8_3 1_555 1_555
Mn6_2 O3_4 1_555 1_555
Mn5_3 O6_4 1_555 1_555
O9_4 Mn8_3 1_555 1_555
C2_4 O3_4 1_555 1_555
Mn5_3 O9_4 1_555 1_555
O8_5 Mn8 1_555 1_555
O10_3 C4_5 1_555 1_555
O2_5 C4_5 1_555 1_555
H2_5 C7_5 1_555 1_555
Mn6_3 O2_5 1_555 1_555
C1_5 C2_5 1_555 1_555
C2_5 C3_5 1_555 1_555
C3_5 H1_5 1_555 1_555
C5_5 C3_5 1_555 1_555
C6_5 C5_5 1_555 1_555
C8_5 C5_5 1_555 1_555
O9 C8_5 1_555 1_555
O6_5 C8_5 1_555 1_555
O13 C6_5 1_555 1_555
Mn6_3 O3_5 1_555 1_555
Mn5 O6_5 1_555 1_555
C2_5 O3_5 1_555 1_555
Mn5 O9_5 1_555 1_555
O4_5 Mn4_3 1_555 1_555
O10_5 Mn4_3 1_555 1_555
O4_5 H4_2 1_555 1_555
O10 C4_6 1_555 1_555
O2_6 C4_6 1_555 1_555
H2_6 C7_6 1_555 1_555
Mn6 O2_6 1_555 1_555
C1_6 C2_6 1_555 1_555
C2_6 C3_6 1_555 1_555
C3_6 H1_6 1_555 1_555
O3_6 Mn4 1_555 1_555
O4_6 Mn4 1_555 1_555
C5_6 C3_6 1_555 1_555
C6_6 C5_6 1_555 1_555
C8_6 C5_6 1_555 1_555
O9_2 C8_6 1_555 1_555
O6_6 C8_6 1_555 1_555
O13_2 C6_6 1_555 1_555
Mn6 O3_6 1_555 1_555
Mn5_2 O6_6 1_555 1_555
O10_6 Mn4 1_555 1_555
C2_6 O3_6 1_555 1_555
Mn6 O10_6 1_555 1_555
Mn5_2 O9_6 1_555 1_555
O8_6 Mn8_2 1_555 1_555
C2_7 C3_7 1_555 1_555
C3_7 H1_7 1_555 1_555
O4_7 Mn6_3 1_555 1_555
C5_7 C3_7 1_555 1_555
C8_7 C5_7 1_555 1_555
O9_6 C8_7 1_555 1_555
O12_2 C8_7 1_555 1_555
O8_7 Mn5_2 1_555 1_555
C2_7 O14_3 1_555 1_555
O8_7 H6 1_555 1_555
C4_7 C1_7 1_555 1_555
O10_5 C4_7 1_555 1_555
O11_3 C4_7 1_555 1_555
C7_7 C1_7 1_555 1_555
H2_7 C7_7 1_555 1_555
O15_2 C6_7 1_555 1_555
C6_7 C7_7 1_555 1_555
C1_8 C2_8 1_555 1_555
C2_8 C3_8 1_555 1_555
C3_8 H1_8 1_555 1_555
C4_8 C1_8 1_555 1_555
O10_6 C4_8 1_555 1_555
O11 C4_8 1_555 1_555
O4_8 Mn6 1_555 1_555
C5_8 C3_8 1_555 1_555
C6_8 C5_8 1_555 1_555
C7_8 C1_8 1_555 1_555
H2_8 C7_8 1_555 1_555
C8_8 C5_8 1_555 1_555
O9_4 C8_8 1_555 1_555
O12_3 C8_8 1_555 1_555
O15_3 C6_8 1_555 1_555
O8_8 Mn5_3 1_555 1_555
C2_8 O14 1_555 1_555
C6_8 C7_8 1_555 1_555
C4_9 C1_9 1_555 1_555
O10_4 C4_9 1_555 1_555
O11_2 C4_9 1_555 1_555
C7_9 C1_9 1_555 1_555
H2_9 C7_9 1_555 1_555
O15 C6_9 1_555 1_555
C6_9 C7_9 1_555 1_555
C2_9 C3_9 1_555 1_555
C3_9 H1_9 1_555 1_555
O4_9 Mn6_2 1_555 1_555
C5_9 C3_9 1_555 1_555
C8_9 C5_9 1_555 1_555
O9_5 C8_9 1_555 1_555
O12 C8_9 1_555 1_555
O8_9 Mn5 1_555 1_555
C2_9 O14_2 1_555 1_555
O8_9 H6_2 1_555 1_555
O8_9 H4_3 1_555 1_555
O8_7 H4_4 1_555 1_555
O4_5 H6_3 1_555 1_555
O4_4 H6_4 1_555 1_555

#END
