
###############################################################################
#
# This file contains modified crystal structure data generated from the
# MOF subset of the Cambridge Structural Database (CSD) v543 
# hosted by the Cambridge Crystallographic Data Centre (CCDC).
#
# This work is licensed under the Creative Commons
# Attribution-NonCommercial-ShareAlike 4.0 International License.
# To view a copy of this license, visit
# http://creativecommons.org/licenses/by-nc-sa/4.0/
# or send a letter to
# Creative Commons, PO Box 1866, Mountain View, CA 94042, USA.
#
# CIF created using the CSD Python API on 29 September 2022
# The structure has been converted into the P1 space group
# The structure has a 3D framework
# The original CSD entry OROZEB is in the orthorhombic crystal system
# The framework has been calculated to contain at least 10.0% void space
# The void calculation uses a probe of radius 1.32A, grid spacing 0.4
#
###############################################################################

data_OROZEB
_chemical_formula_moiety         '(C88 H64 Ag8 N16 O16)n'
_symmetry_cell_setting           triclinic
_symmetry_space_group_name_H-M   'P 1'
_symmetry_Int_Tables_number      1
_space_group_name_Hall           'P 1'
loop_
_symmetry_equiv_pos_site_id
_symmetry_equiv_pos_as_xyz
1 x,y,z
_cell_length_a                   17.271(3)
_cell_length_b                   7.5384(15)
_cell_length_c                   21.382(4)
_cell_angle_alpha                90
_cell_angle_beta                 90
_cell_angle_gamma                90
_cell_volume                     2783.84
loop_
_atom_site_label
_atom_site_type_symbol
_atom_site_fract_x
_atom_site_fract_y
_atom_site_fract_z
Ag1 Ag 0.03763(4) 0.33569(9) 0.45127(2)
C3 C 0.0026(4) 0.5180(9) 0.2293(3)
C4 C 0.0725(4) 0.5154(12) 0.2578(3)
H3 H 0.1167 0.5467 0.2355
C5 C 0.0785(5) 0.4664(13) 0.3199(3)
H4 H 0.1273 0.4698 0.3381
C9 C 0.0444(4) 0.6478(11) 0.0626(3)
H7 H 0.0866 0.6489 0.0357
C10 C 0.0547(4) 0.5809(11) 0.1219(3)
H8 H 0.1030 0.5391 0.1341
C11 C 0.2109(4) 0.4517(10) 0.4585(3)
N1 N 0.0205(3) 0.4156(8) 0.3547(2)
O1 O 0.1578(3) 0.5142(9) 0.4912(3)
O2 O 0.2044(4) 0.3158(8) 0.4250(3)
Ag3 Ag 0.46237(4) 0.66431(9) 0.45127(2)
C12 C 0.5482(5) 0.5847(15) 0.3271(3)
H9 H 0.5911 0.6197 0.3503
C13 C 0.5591(5) 0.5360(16) 0.2658(3)
H10 H 0.6085 0.5395 0.2486
C14 C 0.4974(4) 0.4820(9) 0.2293(3)
C15 C 0.4275(4) 0.4846(12) 0.2578(3)
H11 H 0.3833 0.4533 0.2355
C16 C 0.4215(5) 0.5336(13) 0.3199(3)
H12 H 0.3727 0.5302 0.3381
C17 C 0.5064(4) 0.4239(9) 0.1629(3)
C18 C 0.5763(4) 0.3638(12) 0.1412(3)
H13 H 0.6196 0.3662 0.1670
C19 C 0.5822(4) 0.2994(14) 0.0806(3)
H14 H 0.6304 0.2615 0.0665
C20 C 0.4556(4) 0.3522(11) 0.0626(3)
H15 H 0.4134 0.3511 0.0357
C21 C 0.4453(4) 0.4191(11) 0.1219(3)
H16 H 0.3970 0.4609 0.1341
C22 C 0.2891(4) 0.5483(10) 0.4585(3)
N3 N 0.4795(3) 0.5844(8) 0.3547(2)
N4 N 0.0226(3) 0.2109(8) 0.5418(2)
N5 N 0.4774(3) 0.7891(8) 0.5418(2)
N6 N 0.5226(3) 0.2891(8) 0.0418(2)
O3 O 0.3422(3) 0.4858(9) 0.4912(3)
O4 O 0.2956(4) 0.6842(8) 0.4250(3)
Ag2 Ag 0.96237(4) 0.83569(9) 0.95127(2)
C6 C 0.0064(4) 0.0761(9) 0.6629(3)
C7 C 0.0763(4) 0.1362(12) 0.6412(3)
H5 H 0.1196 0.1338 0.6670
C8 C 0.0822(4) 0.2006(14) 0.5806(3)
H6 H 0.1304 0.2385 0.5665
C5_2 C 0.9215(5) 0.9664(13) 0.8199(3)
H4_2 H 0.8727 0.9698 0.8381
C11_2 C 0.7891(4) 0.9517(10) 0.9585(3)
N1_2 N 0.9795(3) 0.9156(8) 0.8547(2)
O2_2 O 0.7956(4) 0.8158(8) 0.9250(3)
C14_2 C 0.5026(4) 0.9820(9) 0.7293(3)
C15_2 C 0.5725(4) 0.9846(12) 0.7578(3)
H11_2 H 0.6167 0.9533 0.7355
C17_2 C 0.4936(4) 0.9239(9) 0.6629(3)
C18_2 C 0.4237(4) 0.8638(12) 0.6412(3)
H13_2 H 0.3804 0.8662 0.6670
C19_2 C 0.4178(4) 0.7994(14) 0.5806(3)
H14_2 H 0.3696 0.7615 0.5665
C20_2 C 0.5444(4) 0.8522(11) 0.5626(3)
H15_2 H 0.5866 0.8511 0.5357
C21_2 C 0.5547(4) 0.9191(11) 0.6219(3)
H16_2 H 0.6030 0.9609 0.6341
O3_2 O 0.6578(3) 0.9858(9) 0.9912(3)
Ag4 Ag 0.53763(4) 0.16431(9) 0.95127(2)
C3_2 C 0.9974(4) 0.0180(9) 0.7293(3)
C4_2 C 0.9275(4) 0.0154(12) 0.7578(3)
H3_2 H 0.8833 0.0467 0.7355
C9_2 C 0.9556(4) 0.1478(11) 0.5626(3)
H7_2 H 0.9134 0.1489 0.5357
C10_2 C 0.9453(4) 0.0809(11) 0.6219(3)
H8_2 H 0.8970 0.0391 0.6341
O1_2 O 0.8422(3) 0.0142(9) 0.9912(3)
C12_2 C 0.4518(5) 0.0847(15) 0.8271(3)
H9_2 H 0.4089 0.1197 0.8503
C13_2 C 0.4409(5) 0.0360(16) 0.7658(3)
H10_2 H 0.3915 0.0395 0.7486
C16_2 C 0.5785(5) 0.0336(13) 0.8199(3)
H12_2 H 0.6273 0.0302 0.8381
C22_2 C 0.7109(4) 0.0483(10) 0.9585(3)
N3_2 N 0.5205(3) 0.0844(8) 0.8547(2)
O4_2 O 0.7044(4) 0.1842(8) 0.9250(3)
C1 C 0.9518(5) 0.4153(15) 0.3271(3)
H1 H 0.9089 0.3803 0.3503
C2 C 0.9409(5) 0.4640(16) 0.2658(3)
H2 H 0.8915 0.4605 0.2486
C6_2 C 0.9936(4) 0.5761(9) 0.1629(3)
C7_2 C 0.9237(4) 0.6362(12) 0.1412(3)
H5_2 H 0.8804 0.6338 0.1670
C8_2 C 0.9178(4) 0.7006(14) 0.0806(3)
H6_2 H 0.8696 0.7385 0.0665
N2 N 0.9774(3) 0.7109(8) 0.0418(2)
Ag1_2 Ag 0.03763(4) 0.16431(9) 0.04873(2)
C5_3 C 0.0785(5) 0.0336(13) 0.1801(3)
H4_3 H 0.1273 0.0302 0.1619
C11_3 C 0.2109(4) 0.0483(10) 0.0415(3)
N1_3 N 0.0205(3) 0.0844(8) 0.1453(2)
O2_3 O 0.2044(4) 0.1842(8) 0.0750(3)
Ag4_2 Ag 0.53763(4) 0.33569(9) 0.54873(2)
C14_3 C 0.4974(4) 0.0180(9) 0.2707(3)
C15_3 C 0.4275(4) 0.0154(12) 0.2422(3)
H11_3 H 0.3833 0.0467 0.2645
C17_3 C 0.5064(4) 0.0761(9) 0.3371(3)
C18_3 C 0.5763(4) 0.1362(12) 0.3588(3)
H13_3 H 0.6196 0.1338 0.3330
C19_3 C 0.5822(4) 0.2006(14) 0.4194(3)
H14_3 H 0.6304 0.2385 0.4335
C20_3 C 0.4556(4) 0.1478(11) 0.4374(3)
H15_3 H 0.4134 0.1489 0.4643
C21_3 C 0.4453(4) 0.0809(11) 0.3781(3)
H16_3 H 0.3970 0.0391 0.3659
N6_2 N 0.5226(3) 0.2109(8) 0.4582(2)
O3_3 O 0.3422(3) 0.0142(9) 0.0088(3)
N5_2 N 0.4774(3) 0.7109(8) 0.9582(2)
C6_3 C 0.9936(4) 0.9239(9) 0.3371(3)
C7_3 C 0.9237(4) 0.8638(12) 0.3588(3)
H5_3 H 0.8804 0.8662 0.3330
C8_3 C 0.9178(4) 0.7994(14) 0.4194(3)
H6_3 H 0.8696 0.7615 0.4335
N2_2 N 0.9774(3) 0.7891(8) 0.4582(2)
Ag2_2 Ag 0.96237(4) 0.66431(9) 0.54873(2)
C3_3 C 0.9974(4) 0.4820(9) 0.7707(3)
C4_3 C 0.9275(4) 0.4846(12) 0.7422(3)
H3_3 H 0.8833 0.4533 0.7645
C5_4 C 0.9215(5) 0.5336(13) 0.6801(3)
H4_4 H 0.8727 0.5302 0.6619
C9_3 C 0.9556(4) 0.3522(11) 0.9374(3)
H7_3 H 0.9134 0.3511 0.9643
C10_3 C 0.9453(4) 0.4191(11) 0.8781(3)
H8_3 H 0.8970 0.4609 0.8659
C11_4 C 0.7891(4) 0.5483(10) 0.5415(3)
N1_4 N 0.9795(3) 0.5844(8) 0.6453(2)
O1_3 O 0.8422(3) 0.4858(9) 0.5088(3)
O2_4 O 0.7956(4) 0.6842(8) 0.5750(3)
C12_3 C 0.4518(5) 0.4153(15) 0.6729(3)
H9_3 H 0.4089 0.3803 0.6497
C13_3 C 0.4409(5) 0.4640(16) 0.7342(3)
H10_3 H 0.3915 0.4605 0.7514
C14_4 C 0.5026(4) 0.5180(9) 0.7707(3)
C15_4 C 0.5725(4) 0.5154(12) 0.7422(3)
H11_4 H 0.6167 0.5467 0.7645
C16_3 C 0.5785(5) 0.4664(13) 0.6801(3)
H12_3 H 0.6273 0.4698 0.6619
C17_4 C 0.4936(4) 0.5761(9) 0.8371(3)
C18_4 C 0.4237(4) 0.6362(12) 0.8588(3)
H13_4 H 0.3804 0.6338 0.8330
C19_4 C 0.4178(4) 0.7006(14) 0.9194(3)
H14_4 H 0.3696 0.7385 0.9335
C20_4 C 0.5444(4) 0.6478(11) 0.9374(3)
H15_4 H 0.5866 0.6489 0.9643
C21_4 C 0.5547(4) 0.5809(11) 0.8781(3)
H16_4 H 0.6030 0.5391 0.8659
C22_3 C 0.7109(4) 0.4517(10) 0.5415(3)
N3_3 N 0.5205(3) 0.4156(8) 0.6453(2)
O3_4 O 0.6578(3) 0.5142(9) 0.5088(3)
O4_3 O 0.7044(4) 0.3158(8) 0.5750(3)
N4_2 N 0.0226(3) 0.2891(8) 0.9582(2)
C1_2 C 0.0482(5) 0.5847(15) 0.6729(3)
H1_2 H 0.0911 0.6197 0.6497
C2_2 C 0.0591(5) 0.5360(16) 0.7342(3)
H2_2 H 0.1085 0.5395 0.7514
C6_4 C 0.0064(4) 0.4239(9) 0.8371(3)
C7_4 C 0.0763(4) 0.3638(12) 0.8588(3)
H5_4 H 0.1196 0.3662 0.8330
C8_4 C 0.0822(4) 0.2994(14) 0.9194(3)
H6_4 H 0.1304 0.2615 0.9335
C3_4 C 0.0026(4) 0.9820(9) 0.2707(3)
C4_4 C 0.0725(4) 0.9846(12) 0.2422(3)
H3_4 H 0.1167 0.9533 0.2645
C9_4 C 0.0444(4) 0.8522(11) 0.4374(3)
H7_4 H 0.0866 0.8511 0.4643
C10_4 C 0.0547(4) 0.9191(11) 0.3781(3)
H8_4 H 0.1030 0.9609 0.3659
O1_4 O 0.1578(3) 0.9858(9) 0.0088(3)
Ag3_2 Ag 0.46237(4) 0.83569(9) 0.04873(2)
C12_4 C 0.5482(5) 0.9153(15) 0.1729(3)
H9_4 H 0.5911 0.8803 0.1497
C13_4 C 0.5591(5) 0.9640(16) 0.2342(3)
H10_4 H 0.6085 0.9605 0.2514
C16_4 C 0.4215(5) 0.9664(13) 0.1801(3)
H12_4 H 0.3727 0.9698 0.1619
C22_4 C 0.2891(4) 0.9517(10) 0.0415(3)
N3_4 N 0.4795(3) 0.9156(8) 0.1453(2)
O4_4 O 0.2956(4) 0.8158(8) 0.0750(3)
C1_3 C 0.9518(5) 0.0847(15) 0.1729(3)
H1_3 H 0.9089 0.1197 0.1497
C2_3 C 0.9409(5) 0.0360(16) 0.2342(3)
H2_3 H 0.8915 0.0395 0.2514
C1_4 C 0.0482(5) 0.9153(15) 0.8271(3)
H1_4 H 0.0911 0.8803 0.8503
C2_4 C 0.0591(5) 0.9640(16) 0.7658(3)
H2_4 H 0.1085 0.9605 0.7486
loop_
_geom_bond_atom_site_label_1
_geom_bond_atom_site_label_2
_geom_bond_site_symmetry_1
_geom_bond_site_symmetry_2
Ag1 N1 1_555 1_555
C4 C3 1_555 1_555
H3 C4 1_555 1_555
C5 C4 1_555 1_555
H4 C5 1_555 1_555
C9 H7 1_555 1_555
H8 C10 1_555 1_555
C11 O1 1_555 1_555
O1 Ag1 1_555 1_555
O2 C11 1_555 1_555
Ag3 N3 1_555 1_555
C12 H9 1_555 1_555
C13 C12 1_555 1_555
H10 C13 1_555 1_555
C14 C13 1_555 1_555
C15 C14 1_555 1_555
H11 C15 1_555 1_555
C16 C15 1_555 1_555
H12 C16 1_555 1_555
C17 C14 1_555 1_555
C18 C17 1_555 1_555
H13 C18 1_555 1_555
C19 C18 1_555 1_555
H14 C19 1_555 1_555
C20 H15 1_555 1_555
C21 C17 1_555 1_555
H16 C21 1_555 1_555
C22 C11 1_555 1_555
N3 C12 1_555 1_555
N4 Ag1 1_555 1_555
N5 Ag3 1_555 1_555
N6 C19 1_555 1_555
O3 Ag3 1_555 1_555
O4 C22 1_555 1_555
C5 N1 1_555 1_555
C9 C10 1_555 1_555
C16 N3 1_555 1_555
C20 C21 1_555 1_555
C20 N6 1_555 1_555
C22 O3 1_555 1_555
C7 C6 1_555 1_555
H5 C7 1_555 1_555
C8 C7 1_555 1_555
H6 C8 1_555 1_555
N4 C8 1_555 1_555
Ag2 N1_2 1_555 1_555
H4_2 C5_2 1_555 1_555
O2_2 C11_2 1_555 1_555
C15_2 C14_2 1_555 1_555
H11_2 C15_2 1_555 1_555
C17_2 C14_2 1_555 1_555
C18_2 C17_2 1_555 1_555
H13_2 C18_2 1_555 1_555
C19_2 C18_2 1_555 1_555
H14_2 C19_2 1_555 1_555
C20_2 H15_2 1_555 1_555
C21_2 C17_2 1_555 1_555
H16_2 C21_2 1_555 1_555
N5 C19_2 1_555 1_555
C5_2 N1_2 1_555 1_555
C20_2 C21_2 1_555 1_555
C20_2 N5 1_555 1_555
C4_2 C3_2 1_555 1_555
H3_2 C4_2 1_555 1_555
C9_2 H7_2 1_555 1_555
H8_2 C10_2 1_555 1_555
Ag4 N3_2 1_555 1_555
C12_2 H9_2 1_555 1_555
C13_2 C12_2 1_555 1_555
H10_2 C13_2 1_555 1_555
H12_2 C16_2 1_555 1_555
N3_2 C12_2 1_555 1_555
O4_2 C22_2 1_555 1_555
C9_2 C10_2 1_555 1_555
C16_2 N3_2 1_555 1_555
C1 H1 1_555 1_555
C2 C1 1_555 1_555
H2 C2 1_555 1_555
C7_2 C6_2 1_555 1_555
H5_2 C7_2 1_555 1_555
C8_2 C7_2 1_555 1_555
H6_2 C8_2 1_555 1_555
N2 C8_2 1_555 1_555
Ag1_2 N1_3 1_555 1_555
H4_3 C5_3 1_555 1_555
O2_3 C11_3 1_555 1_555
Ag4_2 N6_2 1_555 1_555
C15_3 C14_3 1_555 1_555
H11_3 C15_3 1_555 1_555
C17_3 C14_3 1_555 1_555
C18_3 C17_3 1_555 1_555
H13_3 C18_3 1_555 1_555
C19_3 C18_3 1_555 1_555
H14_3 C19_3 1_555 1_555
C20_3 H15_3 1_555 1_555
C21_3 C17_3 1_555 1_555
H16_3 C21_3 1_555 1_555
N6_2 C19_3 1_555 1_555
C5_3 N1_3 1_555 1_555
C20_3 C21_3 1_555 1_555
C20_3 N6_2 1_555 1_555
C7_3 C6_3 1_555 1_555
H5_3 C7_3 1_555 1_555
C8_3 C7_3 1_555 1_555
H6_3 C8_3 1_555 1_555
N2_2 C8_3 1_555 1_555
Ag2_2 N2_2 1_555 1_555
Ag2_2 N1_4 1_555 1_555
C4_3 C3_3 1_555 1_555
H3_3 C4_3 1_555 1_555
C5_4 C4_3 1_555 1_555
H4_4 C5_4 1_555 1_555
C9_3 H7_3 1_555 1_555
H8_3 C10_3 1_555 1_555
C11_4 O1_3 1_555 1_555
O1_3 Ag2_2 1_555 1_555
O2_4 C11_4 1_555 1_555
Ag4_2 N3_3 1_555 1_555
C12_3 H9_3 1_555 1_555
C13_3 C12_3 1_555 1_555
H10_3 C13_3 1_555 1_555
C14_4 C13_3 1_555 1_555
C15_4 C14_4 1_555 1_555
H11_4 C15_4 1_555 1_555
C16_3 C15_4 1_555 1_555
H12_3 C16_3 1_555 1_555
C17_4 C14_4 1_555 1_555
C18_4 C17_4 1_555 1_555
H13_4 C18_4 1_555 1_555
C19_4 C18_4 1_555 1_555
H14_4 C19_4 1_555 1_555
C20_4 H15_4 1_555 1_555
C21_4 C17_4 1_555 1_555
H16_4 C21_4 1_555 1_555
C22_3 C11_4 1_555 1_555
N3_3 C12_3 1_555 1_555
N5_2 C19_4 1_555 1_555
O3_4 Ag4_2 1_555 1_555
O4_3 C22_3 1_555 1_555
C5_4 N1_4 1_555 1_555
C9_3 C10_3 1_555 1_555
C16_3 N3_3 1_555 1_555
C20_4 C21_4 1_555 1_555
C20_4 N5_2 1_555 1_555
C22_3 O3_4 1_555 1_555
C1_2 H1_2 1_555 1_555
C2_2 C1_2 1_555 1_555
H2_2 C2_2 1_555 1_555
C7_4 C6_4 1_555 1_555
H5_4 C7_4 1_555 1_555
C8_4 C7_4 1_555 1_555
H6_4 C8_4 1_555 1_555
N4_2 C8_4 1_555 1_555
C4_4 C3_4 1_555 1_555
H3_4 C4_4 1_555 1_555
C9_4 H7_4 1_555 1_555
H8_4 C10_4 1_555 1_555
Ag3_2 N3_4 1_555 1_555
C12_4 H9_4 1_555 1_555
C13_4 C12_4 1_555 1_555
H10_4 C13_4 1_555 1_555
H12_4 C16_4 1_555 1_555
N3_4 C12_4 1_555 1_555
O4_4 C22_4 1_555 1_555
C9_4 C10_4 1_555 1_555
C16_4 N3_4 1_555 1_555
C1_3 H1_3 1_555 1_555
C2_3 C1_3 1_555 1_555
H2_3 C2_3 1_555 1_555
C1_4 H1_4 1_555 1_555
C2_4 C1_4 1_555 1_555
H2_4 C2_4 1_555 1_555

#END
