
###############################################################################
#
# This file contains modified crystal structure data generated from the
# MOF subset of the Cambridge Structural Database (CSD) v543 
# hosted by the Cambridge Crystallographic Data Centre (CCDC).
#
# This work is licensed under the Creative Commons
# Attribution-NonCommercial-ShareAlike 4.0 International License.
# To view a copy of this license, visit
# http://creativecommons.org/licenses/by-nc-sa/4.0/
# or send a letter to
# Creative Commons, PO Box 1866, Mountain View, CA 94042, USA.
#
# CIF created using the CSD Python API on 29 September 2022
# The structure has been converted into the P1 space group
# The structure has a 3D framework
# The original CSD entry OROZEB01 is in the orthorhombic crystal system
# The framework has been calculated to contain at least 10.0% void space
# The void calculation uses a probe of radius 1.32A, grid spacing 0.4
#
###############################################################################

data_OROZEB01
_chemical_formula_moiety         '(C88 H64 Ag8 N16 O16)n'
_symmetry_cell_setting           triclinic
_symmetry_space_group_name_H-M   'P 1'
_symmetry_Int_Tables_number      1
_space_group_name_Hall           'P 1'
loop_
_symmetry_equiv_pos_site_id
_symmetry_equiv_pos_as_xyz
1 x,y,z
_cell_length_a                   17.2291(17)
_cell_length_b                   7.5289(6)
_cell_length_c                   21.369(2)
_cell_angle_alpha                90
_cell_angle_beta                 90
_cell_angle_gamma                90
_cell_volume                     2771.9
loop_
_atom_site_label
_atom_site_type_symbol
_atom_site_fract_x
_atom_site_fract_y
_atom_site_fract_z
Ag1 Ag 0.46226(4) 0.16414(10) 0.54847(3)
N1 N 0.4771(5) 0.2898(11) 0.4578(3)
N2 N 0.5207(4) 0.5826(10) 0.1447(3)
O2 O 0.2956(5) 0.1851(9) 0.5750(3)
C1 C 0.2889(5) 0.0480(12) 0.5422(4)
C2 C 0.4171(6) 0.2968(15) 0.4189(4)
H1 H 0.3694 0.2537 0.4324
C3 C 0.4228(6) 0.3659(16) 0.3587(4)
H2 H 0.3789 0.3739 0.3336
C4 C 0.4933(5) 0.4223(11) 0.3366(3)
C5 C 0.5552(5) 0.4180(14) 0.3769(4)
H3 H 0.6033 0.4613 0.3644
C6 C 0.5453(6) 0.3482(13) 0.4365(4)
H4 H 0.5882 0.3418 0.4628
C7 C 0.5801(5) 0.5386(15) 0.1801(4)
H5 H 0.6293 0.5409 0.1622
C8 C 0.5741(5) 0.4894(15) 0.2420(4)
H6 H 0.6185 0.4625 0.2648
C9 C 0.5021(5) 0.4801(10) 0.2698(3)
C10 C 0.4395(6) 0.5319(16) 0.2335(4)
H7 H 0.3898 0.5315 0.2506
C11 C 0.4503(6) 0.5842(17) 0.1722(4)
H8 H 0.4076 0.6217 0.1491
Ag2 Ag 0.53774(4) 0.66414(10) 0.04847(3)
N4 N 0.4793(4) 0.0826(10) 0.6447(3)
O3 O 0.1582(4) 0.0147(10) 0.5086(4)
Ag4 Ag 0.96226(4) 0.33586(10) 0.04847(3)
N6 N 0.9793(4) 0.4174(10) 0.1447(3)
C16 C 0.9448(5) 0.5820(14) 0.3769(4)
H11 H 0.8967 0.5387 0.3644
C17 C 0.9547(6) 0.6518(13) 0.4365(4)
H12 H 0.9118 0.6582 0.4628
C18 C 0.9199(5) 0.4614(15) 0.1801(4)
H13 H 0.8707 0.4591 0.1622
C19 C 0.9259(5) 0.5106(15) 0.2420(4)
H14 H 0.8815 0.5375 0.2648
C20 C 0.9979(5) 0.5199(10) 0.2698(3)
C7_2 C 0.4199(5) 0.0386(15) 0.6801(4)
H5_2 H 0.3707 0.0409 0.6622
C10_2 C 0.5605(6) 0.0319(16) 0.7335(4)
H7_2 H 0.6102 0.0315 0.7506
C11_2 C 0.5497(6) 0.0842(17) 0.6722(4)
H8_2 H 0.5924 0.1217 0.6491
O1 O 0.6582(4) 0.4853(10) 0.0086(4)
O2_2 O 0.7044(5) 0.6851(9) 0.0750(3)
C1_2 C 0.7111(5) 0.5480(12) 0.0422(4)
O3_2 O 0.8418(4) 0.5147(10) 0.0086(4)
O4 O 0.7956(5) 0.3149(9) 0.0750(3)
C12 C 0.7889(5) 0.4520(12) 0.0422(4)
O1_2 O 0.3418(4) 0.9853(10) 0.5086(4)
Ag3 Ag 0.03774(4) 0.83586(10) 0.54847(3)
N3 N 0.0229(5) 0.7102(11) 0.4578(3)
N5 N 0.0207(4) 0.9174(10) 0.6447(3)
O4_2 O 0.2044(5) 0.8149(9) 0.5750(3)
C12_2 C 0.2111(5) 0.9520(12) 0.5422(4)
C13 C 0.0829(6) 0.7032(15) 0.4189(4)
H9 H 0.1306 0.7463 0.4324
C14 C 0.0772(6) 0.6341(16) 0.3587(4)
H10 H 0.1211 0.6261 0.3336
C15 C 0.0067(5) 0.5777(11) 0.3366(3)
C21 C 0.0605(6) 0.4681(16) 0.2335(4)
H15 H 0.1102 0.4685 0.2506
C22 C 0.0497(6) 0.4158(17) 0.1722(4)
H16 H 0.0924 0.3783 0.1491
C18_2 C 0.0801(5) 0.9614(15) 0.6801(4)
H13_2 H 0.1293 0.9591 0.6622
C21_2 C 0.0605(6) 0.0319(16) 0.2665(4)
H15_2 H 0.1102 0.0315 0.2494
C22_2 C 0.0497(6) 0.0842(17) 0.3278(4)
H16_2 H 0.0924 0.1217 0.3509
N1_2 N 0.4771(5) 0.2102(11) 0.0422(3)
C2_2 C 0.4171(6) 0.2032(15) 0.0811(4)
H1_2 H 0.3694 0.2463 0.0676
C3_2 C 0.4228(6) 0.1341(16) 0.1413(4)
H2_2 H 0.3789 0.1261 0.1664
C4_2 C 0.4933(5) 0.0777(11) 0.1634(3)
C5_2 C 0.5552(5) 0.0820(14) 0.1231(4)
H3_2 H 0.6033 0.0387 0.1356
C6_2 C 0.5453(6) 0.1518(13) 0.0635(4)
H4_2 H 0.5882 0.1582 0.0372
C8_2 C 0.5741(5) 0.0106(15) 0.2580(4)
H6_2 H 0.6185 0.0375 0.2352
C9_2 C 0.5021(5) 0.0199(10) 0.2302(3)
N3_2 N 0.0229(5) 0.7898(11) 0.0422(3)
C13_2 C 0.0829(6) 0.7968(15) 0.0811(4)
H9_2 H 0.1306 0.7537 0.0676
C14_2 C 0.0772(6) 0.8659(16) 0.1413(4)
H10_2 H 0.1211 0.8739 0.1664
C15_2 C 0.0067(5) 0.9223(11) 0.1634(3)
Ag1_2 Ag 0.46226(4) 0.33586(10) 0.95153(3)
O1_3 O 0.3418(4) 0.5147(10) 0.9914(4)
O2_3 O 0.2956(5) 0.3149(9) 0.9250(3)
C1_3 C 0.2889(5) 0.4520(12) 0.9578(4)
Ag3_2 Ag 0.03774(4) 0.66414(10) 0.95153(3)
N4_2 N 0.4793(4) 0.4174(10) 0.8553(3)
N5_2 N 0.0207(4) 0.5826(10) 0.8553(3)
O3_3 O 0.1582(4) 0.4853(10) 0.9914(4)
O4_3 O 0.2044(5) 0.6851(9) 0.9250(3)
C12_3 C 0.2111(5) 0.5480(12) 0.9578(4)
N2_2 N 0.5207(4) 0.9174(10) 0.3553(3)
C7_3 C 0.5801(5) 0.9614(15) 0.3199(4)
H5_3 H 0.6293 0.9591 0.3378
C10_3 C 0.4395(6) 0.9681(16) 0.2665(4)
H7_3 H 0.3898 0.9685 0.2494
C11_3 C 0.4503(6) 0.9158(17) 0.3278(4)
H8_3 H 0.4076 0.8783 0.3509
Ag2_2 Ag 0.53774(4) 0.83586(10) 0.45153(3)
C16_2 C 0.0552(5) 0.4180(14) 0.6231(4)
H11_2 H 0.1033 0.4613 0.6356
C17_2 C 0.0453(6) 0.3482(13) 0.5635(4)
H12_2 H 0.0882 0.3418 0.5372
C18_3 C 0.0801(5) 0.5386(15) 0.8199(4)
H13_3 H 0.1293 0.5409 0.8378
C19_2 C 0.0741(5) 0.4894(15) 0.7580(4)
H14_2 H 0.1185 0.4625 0.7352
C20_2 C 0.0021(5) 0.4801(10) 0.7302(3)
N1_3 N 0.5229(5) 0.7102(11) 0.5422(3)
O2_4 O 0.7044(5) 0.8149(9) 0.4250(3)
C1_4 C 0.7111(5) 0.9520(12) 0.4578(4)
C2_3 C 0.5829(6) 0.7032(15) 0.5811(4)
H1_3 H 0.6306 0.7463 0.5676
C3_3 C 0.5772(6) 0.6341(16) 0.6413(4)
H2_3 H 0.6211 0.6261 0.6664
C4_3 C 0.5067(5) 0.5777(11) 0.6634(3)
C5_3 C 0.4448(5) 0.5820(14) 0.6231(4)
H3_3 H 0.3967 0.5387 0.6356
C6_3 C 0.4547(6) 0.6518(13) 0.5635(4)
H4_3 H 0.4118 0.6582 0.5372
C7_4 C 0.4199(5) 0.4614(15) 0.8199(4)
H5_4 H 0.3707 0.4591 0.8378
C8_3 C 0.4259(5) 0.5106(15) 0.7580(4)
H6_3 H 0.3815 0.5375 0.7352
C9_3 C 0.4979(5) 0.5199(10) 0.7302(3)
C10_4 C 0.5605(6) 0.4681(16) 0.7665(4)
H7_4 H 0.6102 0.4685 0.7494
C11_4 C 0.5497(6) 0.4158(17) 0.8278(4)
H8_4 H 0.5924 0.3783 0.8509
O3_4 O 0.8418(4) 0.9853(10) 0.4914(4)
Ag4_2 Ag 0.96226(4) 0.16414(10) 0.45153(3)
N6_2 N 0.9793(4) 0.0826(10) 0.3553(3)
C18_4 C 0.9199(5) 0.0386(15) 0.3199(4)
H13_4 H 0.8707 0.0409 0.3378
O1_4 O 0.6582(4) 0.0147(10) 0.4914(4)
N3_3 N 0.9771(5) 0.2898(11) 0.5422(3)
O4_4 O 0.7956(5) 0.1851(9) 0.4250(3)
C12_4 C 0.7889(5) 0.0480(12) 0.4578(4)
C13_3 C 0.9171(6) 0.2968(15) 0.5811(4)
H9_3 H 0.8694 0.2537 0.5676
C14_3 C 0.9228(6) 0.3659(16) 0.6413(4)
H10_3 H 0.8789 0.3739 0.6664
C15_3 C 0.9933(5) 0.4223(11) 0.6634(3)
C21_3 C 0.9395(6) 0.5319(16) 0.7665(4)
H15_3 H 0.8898 0.5315 0.7494
C22_3 C 0.9503(6) 0.5842(17) 0.8278(4)
H16_3 H 0.9076 0.6217 0.8509
C16_3 C 0.9448(5) 0.9180(14) 0.1231(4)
H11_3 H 0.8967 0.9613 0.1356
C17_3 C 0.9547(6) 0.8482(13) 0.0635(4)
H12_3 H 0.9118 0.8418 0.0372
C19_3 C 0.9259(5) 0.9894(15) 0.2580(4)
H14_3 H 0.8815 0.9625 0.2352
C20_3 C 0.9979(5) 0.9801(10) 0.2302(3)
C16_4 C 0.0552(5) 0.0820(14) 0.8769(4)
H11_4 H 0.1033 0.0387 0.8644
C17_4 C 0.0453(6) 0.1518(13) 0.9365(4)
H12_4 H 0.0882 0.1582 0.9628
C19_4 C 0.0741(5) 0.0106(15) 0.7420(4)
H14_4 H 0.1185 0.0375 0.7648
C20_4 C 0.0021(5) 0.0199(10) 0.7698(3)
N1_4 N 0.5229(5) 0.7898(11) 0.9578(3)
C2_4 C 0.5829(6) 0.7968(15) 0.9189(4)
H1_4 H 0.6306 0.7537 0.9324
C3_4 C 0.5772(6) 0.8659(16) 0.8587(4)
H2_4 H 0.6211 0.8739 0.8336
C4_4 C 0.5067(5) 0.9223(11) 0.8366(3)
C5_4 C 0.4448(5) 0.9180(14) 0.8769(4)
H3_4 H 0.3967 0.9613 0.8644
C6_4 C 0.4547(6) 0.8482(13) 0.9365(4)
H4_4 H 0.4118 0.8418 0.9628
C8_4 C 0.4259(5) 0.9894(15) 0.7420(4)
H6_4 H 0.3815 0.9625 0.7648
C9_4 C 0.4979(5) 0.9801(10) 0.7698(3)
N3_4 N 0.9771(5) 0.2102(11) 0.9578(3)
C13_4 C 0.9171(6) 0.2032(15) 0.9189(4)
H9_4 H 0.8694 0.2463 0.9324
C14_4 C 0.9228(6) 0.1341(16) 0.8587(4)
H10_4 H 0.8789 0.1261 0.8336
C15_4 C 0.9933(5) 0.0777(11) 0.8366(3)
C21_4 C 0.9395(6) 0.9681(16) 0.7335(4)
H15_4 H 0.8898 0.9685 0.7506
C22_4 C 0.9503(6) 0.9158(17) 0.6722(4)
H16_4 H 0.9076 0.8783 0.6491
loop_
_geom_bond_atom_site_label_1
_geom_bond_atom_site_label_2
_geom_bond_site_symmetry_1
_geom_bond_site_symmetry_2
Ag1 N1 1_555 1_555
N1 C2 1_555 1_555
N2 C7 1_555 1_555
O2 C1 1_555 1_555
C2 H1 1_555 1_555
C3 C2 1_555 1_555
H2 C3 1_555 1_555
C4 C3 1_555 1_555
C5 C4 1_555 1_555
H3 C5 1_555 1_555
C6 N1 1_555 1_555
H4 C6 1_555 1_555
C7 H5 1_555 1_555
C8 C7 1_555 1_555
H6 C8 1_555 1_555
C9 C4 1_555 1_555
C10 C9 1_555 1_555
H7 C10 1_555 1_555
C11 N2 1_555 1_555
H8 C11 1_555 1_555
Ag2 N2 1_555 1_555
N4 Ag1 1_555 1_555
C5 C6 1_555 1_555
C8 C9 1_555 1_555
C10 C11 1_555 1_555
Ag4 N6 1_555 1_555
N6 C18 1_555 1_555
H11 C16 1_555 1_555
H12 C17 1_555 1_555
C18 H13 1_555 1_555
C19 C18 1_555 1_555
H14 C19 1_555 1_555
C16 C17 1_555 1_555
C19 C20 1_555 1_555
N4 C7_2 1_555 1_555
C7_2 H5_2 1_555 1_555
H7_2 C10_2 1_555 1_555
C11_2 N4 1_555 1_555
H8_2 C11_2 1_555 1_555
C10_2 C11_2 1_555 1_555
O1 Ag2 1_555 1_555
O2_2 C1_2 1_555 1_555
C1_2 O1 1_555 1_555
O3_2 Ag4 1_555 1_555
O4 C12 1_555 1_555
C12 C1_2 1_555 1_555
O3_2 C12 1_555 1_555
Ag3 N3 1_555 1_555
N3 C13 1_555 1_555
N5 Ag3 1_555 1_555
O4_2 C12_2 1_555 1_555
C13 H9 1_555 1_555
C14 C13 1_555 1_555
H10 C14 1_555 1_555
C15 C14 1_555 1_555
H15 C21 1_555 1_555
H16 C22 1_555 1_555
C21 C22 1_555 1_555
N5 C18_2 1_555 1_555
C18_2 H13_2 1_555 1_555
H15_2 C21_2 1_555 1_555
H16_2 C22_2 1_555 1_555
C21_2 C22_2 1_555 1_555
N1_2 C2_2 1_555 1_555
C2_2 H1_2 1_555 1_555
C3_2 C2_2 1_555 1_555
H2_2 C3_2 1_555 1_555
C4_2 C3_2 1_555 1_555
C5_2 C4_2 1_555 1_555
H3_2 C5_2 1_555 1_555
C6_2 N1_2 1_555 1_555
H4_2 C6_2 1_555 1_555
H6_2 C8_2 1_555 1_555
C9_2 C4_2 1_555 1_555
N3_2 C13_2 1_555 1_555
C13_2 H9_2 1_555 1_555
C14_2 C13_2 1_555 1_555
H10_2 C14_2 1_555 1_555
C15_2 C14_2 1_555 1_555
C5_2 C6_2 1_555 1_555
C8_2 C9_2 1_555 1_555
O1_3 Ag1_2 1_555 1_555
O2_3 C1_3 1_555 1_555
C1_3 O1_3 1_555 1_555
N4_2 Ag1_2 1_555 1_555
N5_2 Ag3_2 1_555 1_555
O3_3 Ag3_2 1_555 1_555
O4_3 C12_3 1_555 1_555
C12_3 C1_3 1_555 1_555
O3_3 C12_3 1_555 1_555
N2_2 C7_3 1_555 1_555
C7_3 H5_3 1_555 1_555
H7_3 C10_3 1_555 1_555
C11_3 N2_2 1_555 1_555
H8_3 C11_3 1_555 1_555
Ag2_2 N2_2 1_555 1_555
C10_3 C11_3 1_555 1_555
N5_2 C18_3 1_555 1_555
H11_2 C16_2 1_555 1_555
H12_2 C17_2 1_555 1_555
C18_3 H13_3 1_555 1_555
C19_2 C18_3 1_555 1_555
H14_2 C19_2 1_555 1_555
C16_2 C17_2 1_555 1_555
C19_2 C20_2 1_555 1_555
Ag2_2 N1_3 1_555 1_555
N1_3 C2_3 1_555 1_555
N4_2 C7_4 1_555 1_555
O2_4 C1_4 1_555 1_555
C2_3 H1_3 1_555 1_555
C3_3 C2_3 1_555 1_555
H2_3 C3_3 1_555 1_555
C4_3 C3_3 1_555 1_555
C5_3 C4_3 1_555 1_555
H3_3 C5_3 1_555 1_555
C6_3 N1_3 1_555 1_555
H4_3 C6_3 1_555 1_555
C7_4 H5_4 1_555 1_555
C8_3 C7_4 1_555 1_555
H6_3 C8_3 1_555 1_555
C9_3 C4_3 1_555 1_555
C10_4 C9_3 1_555 1_555
H7_4 C10_4 1_555 1_555
C11_4 N4_2 1_555 1_555
H8_4 C11_4 1_555 1_555
C5_3 C6_3 1_555 1_555
C8_3 C9_3 1_555 1_555
C10_4 C11_4 1_555 1_555
Ag4_2 N6_2 1_555 1_555
N6_2 C18_4 1_555 1_555
C18_4 H13_4 1_555 1_555
Ag4_2 N3_3 1_555 1_555
N3_3 C13_3 1_555 1_555
O4_4 C12_4 1_555 1_555
C13_3 H9_3 1_555 1_555
C14_3 C13_3 1_555 1_555
H10_3 C14_3 1_555 1_555
C15_3 C14_3 1_555 1_555
H15_3 C21_3 1_555 1_555
H16_3 C22_3 1_555 1_555
C21_3 C22_3 1_555 1_555
H11_3 C16_3 1_555 1_555
H12_3 C17_3 1_555 1_555
H14_3 C19_3 1_555 1_555
C16_3 C17_3 1_555 1_555
C19_3 C20_3 1_555 1_555
H11_4 C16_4 1_555 1_555
H12_4 C17_4 1_555 1_555
H14_4 C19_4 1_555 1_555
C16_4 C17_4 1_555 1_555
C19_4 C20_4 1_555 1_555
N1_4 C2_4 1_555 1_555
C2_4 H1_4 1_555 1_555
C3_4 C2_4 1_555 1_555
H2_4 C3_4 1_555 1_555
C4_4 C3_4 1_555 1_555
C5_4 C4_4 1_555 1_555
H3_4 C5_4 1_555 1_555
C6_4 N1_4 1_555 1_555
H4_4 C6_4 1_555 1_555
H6_4 C8_4 1_555 1_555
C9_4 C4_4 1_555 1_555
N3_4 C13_4 1_555 1_555
C13_4 H9_4 1_555 1_555
C14_4 C13_4 1_555 1_555
H10_4 C14_4 1_555 1_555
C15_4 C14_4 1_555 1_555
C5_4 C6_4 1_555 1_555
C8_4 C9_4 1_555 1_555
H15_4 C21_4 1_555 1_555
H16_4 C22_4 1_555 1_555
C21_4 C22_4 1_555 1_555

#END
