
###############################################################################
#
# This file contains modified crystal structure data generated from the
# MOF subset of the Cambridge Structural Database (CSD) v543 
# hosted by the Cambridge Crystallographic Data Centre (CCDC).
#
# This work is licensed under the Creative Commons
# Attribution-NonCommercial-ShareAlike 4.0 International License.
# To view a copy of this license, visit
# http://creativecommons.org/licenses/by-nc-sa/4.0/
# or send a letter to
# Creative Commons, PO Box 1866, Mountain View, CA 94042, USA.
#
# CIF created using the CSD Python API on 29 September 2022
# The structure has been converted into the P1 space group
# The structure has a 3D framework
# The original CSD entry OSILOS is in the tetragonal crystal system
# The framework has been calculated to contain at least 10.0% void space
# The void calculation uses a probe of radius 1.32A, grid spacing 0.4
# The framework is charged, counterions have been retained in the structure
#
###############################################################################

data_OSILOS
_chemical_formula_moiety         '(C48 H48 Cl6 Cu12 N62 O48 7+)n'
_symmetry_cell_setting           triclinic
_symmetry_space_group_name_H-M   'P 1'
_symmetry_Int_Tables_number      1
_space_group_name_Hall           'P 1'
loop_
_symmetry_equiv_pos_site_id
_symmetry_equiv_pos_as_xyz
1 x,y,z
_cell_length_a                   23.603(9)
_cell_length_b                   23.603(9)
_cell_length_c                   4.995(4)
_cell_angle_alpha                90
_cell_angle_beta                 90
_cell_angle_gamma                90
_cell_volume                     2782.72
loop_
_atom_site_label
_atom_site_type_symbol
_atom_site_fract_x
_atom_site_fract_y
_atom_site_fract_z
Cu1 Cu 0.5000 0.5000 -0.0000
C5 C 0.5887(3) 0.3653(3) 0.3024(14)
C6 C 0.6153(3) 0.6613(3) 0.5524(14)
H5 H 0.5610 0.3350 0.3147
H6 H 0.5850 0.6890 0.5647
H8 H 0.5937 0.3811 0.4801
H9 H 0.6311 0.6563 0.7301
C8 C 0.5662(3) 0.4112(3) 0.1163(15)
C9 C 0.6612(3) 0.6838(3) 0.3663(15)
Cu2 Cu 0.2500 0.7500 0.2500
Cu5 Cu 0.7500 0.7500 0.2500
N5 N 0.2928(2) 0.7006(3) 0.0040(12)
N7 N 0.5494(3) 0.5428(2) 0.2460(12)
N8 N 0.2072(2) 0.7994(3) 0.4960(12)
N10 N 0.7308(3) 0.3296(4) 0.1948(18)
N11 N 0.5796(4) 0.5192(3) 0.4448(18)
N13 N 0.6895(4) 0.3557(4) 0.3279(18)
N14 N 0.6057(4) 0.5605(4) 0.5779(18)
N16 N 0.6420(3) 0.3421(3) 0.2114(12)
N17 N 0.5921(3) 0.6080(3) 0.4614(12)
C11 C 0.6525(3) 0.3071(3) 0.0122(14)
C12 C 0.5571(3) 0.5975(3) 0.2622(14)
H10 H 0.3745 0.7093 0.0987
H12 H 0.5407 0.6245 0.1513
O3 O 0.4055(3) 0.5730(3) 0.0756(12)
O5 O 0.6770(3) 0.6555(3) 0.1744(12)
O7 O 0.5186(2) 0.4302(2) 0.1828(10)
O8 O 0.6802(2) 0.7314(2) 0.4328(10)
O9 O 0.1802(2) 0.7314(2) 0.0672(10)
O10 O 0.3198(2) 0.7686(2) 0.4328(10)
C1 C 0.3847(3) 0.3387(3) 0.4476(14)
H1 H 0.4150 0.3110 0.4353
H2 H 0.3689 0.3437 0.2699
C2 C 0.3388(3) 0.3162(3) 0.6337(15)
Cu1_2 Cu 0.5000 0.5000 1.0000
N1 N 0.4506(3) 0.4572(2) 0.7540(12)
N2 N 0.4204(4) 0.4808(3) 0.5552(18)
N3 N 0.3943(4) 0.4395(4) 0.4221(18)
N4 N 0.4079(3) 0.3920(3) 0.5386(12)
C3 C 0.4429(3) 0.4025(3) 0.7378(14)
H3 H 0.4593 0.3755 0.8487
O1 O 0.3230(3) 0.3445(3) 0.8256(12)
O2 O 0.3198(2) 0.2686(2) 0.5672(10)
C4 C 0.4113(3) 0.6347(3) 0.6976(14)
H4 H 0.4390 0.6650 0.6853
H7 H 0.4063 0.6189 0.5199
C7 C 0.4338(3) 0.5888(3) 0.8837(15)
Cu3 Cu 0.2500 0.2500 0.7500
Cu4 Cu 0.7500 0.2500 0.7500
N6 N 0.7072(2) 0.2994(3) 0.9960(12)
N9 N 0.2692(3) 0.6704(4) 0.8052(18)
N12 N 0.3105(4) 0.6443(4) 0.6721(18)
N15 N 0.3580(3) 0.6579(3) 0.7886(12)
C10 C 0.3475(3) 0.6929(3) 0.9878(14)
H11 H 0.6255 0.2907 0.9013
O4 O 0.5945(3) 0.4270(3) 0.9244(12)
O6 O 0.4814(2) 0.5698(2) 0.8172(10)
C2_2 C 0.1612(3) 0.6838(3) 0.1337(15)
Cu1_3 Cu 0.0000 0.5000 0.5000
N1_2 N 0.0494(3) 0.5428(2) 0.2540(12)
N2_2 N 0.0796(4) 0.5192(3) 0.0552(18)
N4_2 N 0.0921(3) 0.6080(3) 0.0386(12)
C3_2 C 0.0571(3) 0.5975(3) 0.2378(14)
H3_2 H 0.0407 0.6245 0.3487
O1_2 O 0.1770(3) 0.6555(3) 0.3256(12)
C4_2 C 0.0887(3) 0.3653(3) 0.1976(14)
H4_2 H 0.0610 0.3350 0.1853
H7_2 H 0.0937 0.3811 0.0199
C7_2 C 0.0662(3) 0.4112(3) 0.3837(15)
N5_2 N 0.2072(2) 0.2994(3) 0.5040(12)
N8_2 N 0.2928(2) 0.2006(3) 0.9960(12)
N9_2 N 0.2308(3) 0.3296(4) 0.3052(18)
N12_2 N 0.1895(4) 0.3557(4) 0.1721(18)
N15_2 N 0.1420(3) 0.3421(3) 0.2886(12)
C10_2 C 0.1525(3) 0.3071(3) 0.4878(14)
H10_2 H 0.1255 0.2907 0.5987
O3_2 O 0.0945(3) 0.4270(3) 0.5756(12)
O6_2 O 0.0186(2) 0.4302(2) 0.3172(10)
O10_2 O 0.1802(2) 0.2314(2) 0.9328(10)
C1_2 C 0.1153(3) 0.6613(3) 0.9476(14)
H1_2 H 0.0850 0.6890 0.9353
H2_2 H 0.1311 0.6563 0.7699
N3_2 N 0.1057(4) 0.5605(4) 0.9221(18)
C6_2 C 0.8847(3) 0.3387(3) 0.0524(14)
H6_2 H 0.9150 0.3110 0.0647
H9_2 H 0.8689 0.3437 0.2301
N14_2 N 0.8943(4) 0.4395(4) 0.0779(18)
Cu1_4 Cu 1.0000 0.5000 0.5000
C5_2 C 0.9113(3) 0.6347(3) 0.8024(14)
H5_2 H 0.9390 0.6650 0.8147
H8_2 H 0.9063 0.6189 0.9801
C8_2 C 0.9338(3) 0.5888(3) 0.6163(15)
C9_2 C 0.8388(3) 0.3162(3) 0.8663(15)
N6_2 N 0.7928(2) 0.7006(3) 0.4960(12)
N7_2 N 0.9506(3) 0.4572(2) 0.7460(12)
N10_2 N 0.7692(3) 0.6704(4) 0.6948(18)
N11_2 N 0.9204(4) 0.4808(3) 0.9448(18)
N13_2 N 0.8105(4) 0.6443(4) 0.8279(18)
N16_2 N 0.8580(3) 0.6579(3) 0.7114(12)
N17_2 N 0.9079(3) 0.3920(3) 0.9614(12)
C11_2 C 0.8475(3) 0.6929(3) 0.5122(14)
C12_2 C 0.9429(3) 0.4025(3) 0.7622(14)
H11_2 H 0.8745 0.7093 0.4013
H12_2 H 0.9593 0.3755 0.6513
O4_2 O 0.9055(3) 0.5730(3) 0.4244(12)
O5_2 O 0.8230(3) 0.3445(3) 0.6744(12)
O7_2 O 0.9814(2) 0.5698(2) 0.6828(10)
O8_2 O 0.8198(2) 0.2686(2) 0.9328(10)
Cu4_2 Cu 0.5000 0.0000 -0.0000
Cu5_2 Cu -0.0000 0.0000 0.5000
Cu4_3 Cu 0.5000 0.0000 1.0000
C5_3 C 0.3847(3) 0.8387(3) 0.5524(14)
C6_3 C 0.0887(3) 0.8653(3) 0.8024(14)
H5_3 H 0.4150 0.8110 0.5647
H6_3 H 0.0610 0.8350 0.8147
H8_3 H 0.3689 0.8437 0.7301
H9_3 H 0.0937 0.8811 0.9801
C8_3 C 0.3388(3) 0.8162(3) 0.3663(15)
C9_3 C 0.0662(3) 0.9112(3) 0.6163(15)
Cu4_4 Cu 0.5000 1.0000 -0.0000
Cu5_3 Cu 0.0000 1.0000 0.5000
N6_3 N 0.4506(3) 0.9572(2) 0.2460(12)
N10_3 N 0.4204(4) 0.9808(3) 0.4448(18)
N11_3 N 0.2308(3) 0.8296(4) 0.6948(18)
N13_3 N 0.3943(4) 0.9395(4) 0.5779(18)
N14_3 N 0.1895(4) 0.8557(4) 0.8279(18)
N16_3 N 0.4079(3) 0.8920(3) 0.4614(12)
N17_3 N 0.1420(3) 0.8421(3) 0.7114(12)
C11_3 C 0.4429(3) 0.9025(3) 0.2622(14)
C12_3 C 0.1525(3) 0.8071(3) 0.5122(14)
H11_3 H 0.4593 0.8755 0.1513
H12_3 H 0.1255 0.7907 0.4013
O4_3 O 0.3230(3) 0.8445(3) 0.1744(12)
O5_3 O 0.0945(3) 0.9270(3) 0.4244(12)
O8_3 O 0.0186(2) 0.9302(2) 0.6828(10)
Cu4_5 Cu 0.5000 1.0000 1.0000
Cu5_4 Cu 1.0000 0.0000 0.5000
Cu5_5 Cu 1.0000 1.0000 0.5000
C5_4 C 0.1153(3) 0.1613(3) 0.0524(14)
C6_4 C 0.4113(3) 0.1347(3) 0.3024(14)
H5_4 H 0.0850 0.1890 0.0647
H6_4 H 0.4390 0.1650 0.3147
H8_4 H 0.1311 0.1563 0.2301
H9_4 H 0.4063 0.1189 0.4801
C9_4 C 0.4338(3) 0.0888(3) 0.1163(15)
N11_4 N 0.2692(3) 0.1704(4) 0.1948(18)
N13_4 N 0.1057(4) 0.0605(4) 0.0779(18)
N14_4 N 0.3105(4) 0.1443(4) 0.3279(18)
N17_4 N 0.3580(3) 0.1579(3) 0.2114(12)
C12_4 C 0.3475(3) 0.1929(3) 0.0122(14)
O8_4 O 0.4814(2) 0.0698(2) 0.1828(10)
C8_4 C 0.1612(3) 0.1838(3) 0.8663(15)
N6_4 N 0.0494(3) 0.0428(2) 0.7460(12)
N10_4 N 0.0796(4) 0.0192(3) 0.9448(18)
N16_4 N 0.0921(3) 0.1080(3) 0.9614(12)
C11_4 C 0.0571(3) 0.0975(3) 0.7622(14)
H11_4 H 0.0407 0.1245 0.6513
H12_4 H 0.3745 0.2093 0.9013
O4_4 O 0.1770(3) 0.1555(3) 0.6744(12)
O5_4 O 0.4055(3) 0.0730(3) 0.9244(12)
C4_3 C 0.9113(3) 0.1347(3) 0.1976(14)
H4_3 H 0.9390 0.1650 0.1853
H7_3 H 0.9063 0.1189 0.0199
C7_3 C 0.9338(3) 0.0888(3) 0.3837(15)
N5_3 N 0.7928(2) 0.2006(3) 0.5040(12)
N9_3 N 0.7692(3) 0.1704(4) 0.3052(18)
N12_3 N 0.8105(4) 0.1443(4) 0.1721(18)
N15_3 N 0.8580(3) 0.1579(3) 0.2886(12)
C10_3 C 0.8475(3) 0.1929(3) 0.4878(14)
H10_3 H 0.8745 0.2093 0.5987
O3_3 O 0.9055(3) 0.0730(3) 0.5756(12)
O6_3 O 0.9814(2) 0.0698(2) 0.3172(10)
O9_2 O 0.6802(2) 0.2314(2) 0.5672(10)
C2_3 C 0.8388(3) 0.8162(3) 0.1337(15)
N1_3 N 0.9506(3) 0.9572(2) 0.2540(12)
N2_3 N 0.9204(4) 0.9808(3) 0.0552(18)
N4_3 N 0.9079(3) 0.8920(3) 0.0386(12)
C3_3 C 0.9429(3) 0.9025(3) 0.2378(14)
H3_3 H 0.9593 0.8755 0.3487
O1_3 O 0.8230(3) 0.8445(3) 0.3256(12)
O2_2 O 0.8198(2) 0.7686(2) 0.0672(10)
C1_3 C 0.8847(3) 0.8387(3) 0.9476(14)
H1_3 H 0.9150 0.8110 0.9353
H2_3 H 0.8689 0.8437 0.7699
N3_3 N 0.8943(4) 0.9395(4) 0.9221(18)
C1_4 C 0.6153(3) 0.1613(3) 0.4476(14)
H1_4 H 0.5850 0.1890 0.4353
H2_4 H 0.6311 0.1563 0.2699
C2_4 C 0.6612(3) 0.1838(3) 0.6337(15)
N1_4 N 0.5494(3) 0.0428(2) 0.7540(12)
N2_4 N 0.5796(4) 0.0192(3) 0.5552(18)
N3_4 N 0.6057(4) 0.0605(4) 0.4221(18)
N4_4 N 0.5921(3) 0.1080(3) 0.5386(12)
C3_4 C 0.5571(3) 0.0975(3) 0.7378(14)
H3_4 H 0.5407 0.1245 0.8487
O1_4 O 0.6770(3) 0.1555(3) 0.8256(12)
N5_4 N 0.7072(2) 0.7994(3) 0.0040(12)
H10_4 H 0.6255 0.7907 0.0987
O3_4 O 0.5945(3) 0.9270(3) 0.0756(12)
C4_4 C 0.5887(3) 0.8653(3) 0.6976(14)
H4_4 H 0.5610 0.8350 0.6853
H7_4 H 0.5937 0.8811 0.5199
C7_4 C 0.5662(3) 0.9112(3) 0.8837(15)
N9_4 N 0.7308(3) 0.8296(4) 0.8052(18)
N12_4 N 0.6895(4) 0.8557(4) 0.6721(18)
N15_4 N 0.6420(3) 0.8421(3) 0.7886(12)
C10_4 C 0.6525(3) 0.8071(3) 0.9878(14)
O6_4 O 0.5186(2) 0.9302(2) 0.8172(10)
O11 O 0.4600(4) 0.2768(4) 0.0308(19)
O12 O 0.5400(4) 0.2232(4) 0.0308(19)
Cl1 Cl 0.5000 0.2500 0.8750
O13 O 0.5268(4) 0.2900(4) 0.7192(19)
O14 O 0.4732(4) 0.2100(4) 0.7192(19)
Cl1_2 Cl 0.0000 0.7500 0.3750
O11_2 O 0.0400(4) 0.7232(4) 0.5308(19)
O14_2 O 0.0268(4) 0.7900(4) 0.2192(19)
Cl1_3 Cl 1.0000 0.7500 0.3750
O12_2 O 0.9600(4) 0.7768(4) 0.5308(19)
O13_2 O 0.9732(4) 0.7100(4) 0.2192(19)
Cl1_4 Cl 0.5000 0.7500 0.1250
O11_3 O 0.4732(4) 0.7100(4) 0.2808(19)
O12_3 O 0.5268(4) 0.7900(4) 0.2808(19)
O13_3 O 0.4600(4) 0.7768(4) 0.9692(19)
O14_3 O 0.5400(4) 0.7232(4) 0.9692(19)
Cl1_5 Cl 0.0000 0.2500 0.6250
O11_4 O 0.0268(4) 0.2900(4) 0.7808(19)
O13_4 O 0.0400(4) 0.2232(4) 0.4692(19)
Cl1_6 Cl 1.0000 0.2500 0.6250
O12_4 O 0.9732(4) 0.2100(4) 0.7808(19)
O14_4 O 0.9600(4) 0.2768(4) 0.4692(19)
loop_
_geom_bond_atom_site_label_1
_geom_bond_atom_site_label_2
_geom_bond_site_symmetry_1
_geom_bond_site_symmetry_2
C5 H5 1_555 1_555
C6 H6 1_555 1_555
H8 C5 1_555 1_555
H9 C6 1_555 1_555
C8 C5 1_555 1_555
C9 C6 1_555 1_555
Cu2 N5 1_555 1_555
Cu5 O8 1_555 1_555
N7 Cu1 1_555 1_555
N8 Cu2 1_555 1_555
N10 N13 1_555 1_555
N11 N7 1_555 1_555
N13 N16 1_555 1_555
N14 N11 1_555 1_555
N16 C5 1_555 1_555
N17 C6 1_555 1_555
C12 N7 1_555 1_555
H12 C12 1_555 1_555
O5 C9 1_555 1_555
O7 Cu1 1_555 1_555
O8 C9 1_555 1_555
O9 Cu2 1_555 1_555
O10 Cu2 1_555 1_555
C8 O7 1_555 1_555
N14 N17 1_555 1_555
N16 C11 1_555 1_555
N17 C12 1_555 1_555
C1 H1 1_555 1_555
H2 C1 1_555 1_555
C2 C1 1_555 1_555
Cu1_2 N1 1_555 1_555
N1 N2 1_555 1_555
N2 N3 1_555 1_555
N3 N4 1_555 1_555
N4 C1 1_555 1_555
C3 N1 1_555 1_555
H3 C3 1_555 1_555
O1 C2 1_555 1_555
O2 C2 1_555 1_555
C4 H4 1_555 1_555
H7 C4 1_555 1_555
C7 C4 1_555 1_555
Cu3 O2 1_555 1_555
Cu4 N6 1_555 1_555
N9 N12 1_555 1_555
N12 N15 1_555 1_555
N15 C4 1_555 1_555
O6 Cu1_2 1_555 1_555
N4 C3 1_555 1_555
C7 O6 1_555 1_555
N15 C10 1_555 1_555
Cu1_3 N1_2 1_555 1_555
N1_2 N2_2 1_555 1_555
C3_2 N1_2 1_555 1_555
H3_2 C3_2 1_555 1_555
O1_2 C2_2 1_555 1_555
O9 C2_2 1_555 1_555
C4_2 H4_2 1_555 1_555
H7_2 C4_2 1_555 1_555
C7_2 C4_2 1_555 1_555
Cu3 N5_2 1_555 1_555
N5_2 N9_2 1_555 1_555
N8_2 Cu3 1_555 1_555
N9_2 N12_2 1_555 1_555
N12_2 N15_2 1_555 1_555
N15_2 C4_2 1_555 1_555
C10_2 N5_2 1_555 1_555
H10_2 C10_2 1_555 1_555
O3_2 C7_2 1_555 1_555
O6_2 Cu1_3 1_555 1_555
O10_2 Cu3 1_555 1_555
N4_2 C3_2 1_555 1_555
C7_2 O6_2 1_555 1_555
N15_2 C10_2 1_555 1_555
C1_2 H1_2 1_555 1_555
H2_2 C1_2 1_555 1_555
C6_2 H6_2 1_555 1_555
H9_2 C6_2 1_555 1_555
C5_2 H5_2 1_555 1_555
H8_2 C5_2 1_555 1_555
C8_2 C5_2 1_555 1_555
Cu5 N6_2 1_555 1_555
Cu4 O8_2 1_555 1_555
N6_2 N10_2 1_555 1_555
N7_2 Cu1_4 1_555 1_555
N10_2 N13_2 1_555 1_555
N11_2 N7_2 1_555 1_555
N13_2 N16_2 1_555 1_555
N16_2 C5_2 1_555 1_555
C11_2 N6_2 1_555 1_555
C12_2 N7_2 1_555 1_555
H11_2 C11_2 1_555 1_555
H12_2 C12_2 1_555 1_555
O4_2 C8_2 1_555 1_555
O5_2 C9_2 1_555 1_555
O7_2 Cu1_4 1_555 1_555
O8_2 C9_2 1_555 1_555
C8_2 O7_2 1_555 1_555
N16_2 C11_2 1_555 1_555
N17_2 C12_2 1_555 1_555
C5_3 H5_3 1_555 1_555
C6_3 H6_3 1_555 1_555
H8_3 C5_3 1_555 1_555
H9_3 C6_3 1_555 1_555
C8_3 C5_3 1_555 1_555
C9_3 C6_3 1_555 1_555
Cu4_4 N6_3 1_555 1_555
Cu5_3 O8_3 1_555 1_555
N6_3 N10_3 1_555 1_555
N10_3 N13_3 1_555 1_555
N11_3 N8 1_555 1_555
N13_3 N16_3 1_555 1_555
N14_3 N11_3 1_555 1_555
N16_3 C5_3 1_555 1_555
N17_3 C6_3 1_555 1_555
C11_3 N6_3 1_555 1_555
C12_3 N8 1_555 1_555
H11_3 C11_3 1_555 1_555
H12_3 C12_3 1_555 1_555
O4_3 C8_3 1_555 1_555
O5_3 C9_3 1_555 1_555
O8_3 C9_3 1_555 1_555
C8_3 O10 1_555 1_555
N14_3 N17_3 1_555 1_555
N16_3 C11_3 1_555 1_555
N17_3 C12_3 1_555 1_555
C5_4 H5_4 1_555 1_555
C6_4 H6_4 1_555 1_555
H8_4 C5_4 1_555 1_555
H9_4 C6_4 1_555 1_555
C9_4 C6_4 1_555 1_555
Cu4_2 O8_4 1_555 1_555
N14_4 N11_4 1_555 1_555
N17_4 C6_4 1_555 1_555
O8_4 C9_4 1_555 1_555
N14_4 N17_4 1_555 1_555
N17_4 C12_4 1_555 1_555
Cu5_2 N6_4 1_555 1_555
N6_4 N10_4 1_555 1_555
C11_4 N6_4 1_555 1_555
H11_4 C11_4 1_555 1_555
O4_4 C8_4 1_555 1_555
C8_4 O10_2 1_555 1_555
N16_4 C11_4 1_555 1_555
C4_3 H4_3 1_555 1_555
H7_3 C4_3 1_555 1_555
C7_3 C4_3 1_555 1_555
Cu4 N5_3 1_555 1_555
N5_3 N9_3 1_555 1_555
N9_3 N12_3 1_555 1_555
N12_3 N15_3 1_555 1_555
N15_3 C4_3 1_555 1_555
C10_3 N5_3 1_555 1_555
H10_3 C10_3 1_555 1_555
O3_3 C7_3 1_555 1_555
O6_3 Cu5_4 1_555 1_555
O9_2 Cu4 1_555 1_555
C7_3 O6_3 1_555 1_555
N15_3 C10_3 1_555 1_555
Cu5_5 N1_3 1_555 1_555
N1_3 N2_3 1_555 1_555
C3_3 N1_3 1_555 1_555
H3_3 C3_3 1_555 1_555
O1_3 C2_3 1_555 1_555
O2_2 C2_3 1_555 1_555
Cu5 O2_2 1_555 1_555
N4_3 C3_3 1_555 1_555
C1_3 H1_3 1_555 1_555
H2_3 C1_3 1_555 1_555
C1_4 H1_4 1_555 1_555
H2_4 C1_4 1_555 1_555
C2_4 C1_4 1_555 1_555
Cu4_3 N1_4 1_555 1_555
N1_4 N2_4 1_555 1_555
N2_4 N3_4 1_555 1_555
N3_4 N4_4 1_555 1_555
N4_4 C1_4 1_555 1_555
C3_4 N1_4 1_555 1_555
H3_4 C3_4 1_555 1_555
O1_4 C2_4 1_555 1_555
O9_2 C2_4 1_555 1_555
N4_4 C3_4 1_555 1_555
Cu5 N5_4 1_555 1_555
C4_4 H4_4 1_555 1_555
H7_4 C4_4 1_555 1_555
C7_4 C4_4 1_555 1_555
N9_4 N12_4 1_555 1_555
N12_4 N15_4 1_555 1_555
N15_4 C4_4 1_555 1_555
O6_4 Cu4_5 1_555 1_555
C7_4 O6_4 1_555 1_555
N15_4 C10_4 1_555 1_555
O13 Cl1 1_555 1_555
O14 Cl1 1_555 1_555
Cl1_2 O11_2 1_555 1_555
O14_2 Cl1_2 1_555 1_555
O12_2 Cl1_3 1_555 1_555
O13_2 Cl1_3 1_555 1_555
Cl1_4 O11_3 1_555 1_555
O12_3 Cl1_4 1_555 1_555
Cl1_5 O11_4 1_555 1_555
O13_4 Cl1_5 1_555 1_555
O12_4 Cl1_6 1_555 1_555
O14_4 Cl1_6 1_555 1_555

#END
