
###############################################################################
#
# This file contains modified crystal structure data generated from the
# MOF subset of the Cambridge Structural Database (CSD) v543 
# hosted by the Cambridge Crystallographic Data Centre (CCDC).
#
# This work is licensed under the Creative Commons
# Attribution-NonCommercial-ShareAlike 4.0 International License.
# To view a copy of this license, visit
# http://creativecommons.org/licenses/by-nc-sa/4.0/
# or send a letter to
# Creative Commons, PO Box 1866, Mountain View, CA 94042, USA.
#
# CIF created using the CSD Python API on 29 September 2022
# The structure has been converted into the P1 space group
# The structure has a 3D framework
# The original CSD entry OSIMIP is in the monoclinic crystal system
# The framework has been calculated to contain at least 10.0% void space
# The void calculation uses a probe of radius 1.32A, grid spacing 0.4
#
###############################################################################

data_OSIMIP
_chemical_formula_moiety         '(C68 H36 O16 Th1)n'
_symmetry_cell_setting           triclinic
_symmetry_space_group_name_H-M   'P 1'
_symmetry_Int_Tables_number      1
_space_group_name_Hall           'P 1'
loop_
_symmetry_equiv_pos_site_id
_symmetry_equiv_pos_as_xyz
1 x,y,z
_cell_length_a                   5.640(3)
_cell_length_b                   11.024(6)
_cell_length_c                   28.315(15)
_cell_angle_alpha                90
_cell_angle_beta                 92.102(12)
_cell_angle_gamma                90
_cell_volume                     1759.31
loop_
_atom_site_label
_atom_site_type_symbol
_atom_site_fract_x
_atom_site_fract_y
_atom_site_fract_z
O5 O 0.291(3) 0.3563(13) 0.3261(5)
O6 O 0.004(3) 0.3005(12) 0.2703(6)
C18 C 0.106(5) 0.295(2) 0.3138(9)
H10 H 0.0475 0.1586 0.4624
C21 C 0.091(3) 0.2241(16) 0.3965(6)
H11 H 0.2359 0.2616 0.4029
Th6 Th 0.2500 0.47480(9) 0.2500
H17 H 0.0309 0.7551 0.3524
C10 C 0.440(4) 0.077(2) 0.5381(9)
C11 C 0.382(3) 0.1625(12) 0.5774(5)
C12 C 0.552(2) 0.2484(13) 0.5909(5)
H6 H 0.6978 0.2493 0.5767
C13 C 0.503(2) 0.3330(12) 0.6257(6)
H7 H 0.6167 0.3905 0.6347
C14 C 0.285(3) 0.3317(12) 0.6469(5)
C15 C 0.115(2) 0.2458(13) 0.6334(5)
C16 C 0.164(2) 0.1612(12) 0.5987(6)
H9 H 0.0502 0.1037 0.5896
O3 O 0.400(3) 0.4692(14) 0.7049(5)
O4 O 0.021(3) 0.4400(16) 0.6933(6)
C17 C 0.227(4) 0.4244(18) 0.6826(7)
C19 C 0.761(3) 0.1063(15) 0.4226(5)
C20 C 0.978(3) 0.1624(16) 0.4322(4)
C22 C 0.986(3) 0.2297(15) 0.3513(5)
C23 C 0.769(3) 0.1736(15) 0.3418(4)
H12 H 0.6992 0.1774 0.3115
C24 C 0.656(2) 0.1119(14) 0.3774(5)
H13 H 0.5109 0.0744 0.3710
C25 C 0.618(4) 0.0448(18) 0.4617(8)
C26 C 0.569(5) 0.117(2) 0.4987(9)
H14 H 0.6228 0.1970 0.4984
Th3 Th 0.7500 0.52520(9) 0.7500
C2 C 0.239(3) 0.8937(15) 0.5774(5)
C3 C 0.022(3) 0.8376(16) 0.5678(4)
C5 C 0.014(3) 0.7703(15) 0.6487(5)
C6 C 0.231(3) 0.8264(15) 0.6582(4)
H3 H 0.3008 0.8226 0.6885
C7 C 0.344(2) 0.8881(14) 0.6226(5)
H4 H 0.4891 0.9256 0.6290
C8 C 0.382(4) 0.9552(18) 0.5383(8)
C9 C 0.431(5) 0.883(2) 0.5013(9)
H5 H 0.3772 0.8030 0.5016
C27 C 0.560(4) 0.923(2) 0.4619(9)
C28 C 0.618(3) 0.8375(12) 0.4226(5)
C29 C 0.448(2) 0.7516(13) 0.4091(5)
H15 H 0.3022 0.7507 0.4233
C30 C 0.497(2) 0.6670(12) 0.3743(6)
H16 H 0.3833 0.6095 0.3653
C31 C 0.715(3) 0.6683(12) 0.3531(5)
C32 C 0.885(2) 0.7542(13) 0.3666(5)
C33 C 0.836(2) 0.8388(12) 0.4013(6)
H18 H 0.9498 0.8963 0.4104
O7 O 0.600(3) 0.5308(14) 0.2951(5)
O8 O 0.979(3) 0.5600(16) 0.3067(6)
C34 C 0.773(4) 0.5756(18) 0.3174(7)
O12 O 0.100(3) 0.4692(14) 0.7951(5)
H8 H 0.9691 0.2449 0.6476
O1 O 0.709(3) 0.6437(13) 0.6739(5)
O2 O 0.996(3) 0.6995(12) 0.7297(6)
C1 C 0.894(5) 0.705(2) 0.6862(9)
H1 H 0.9525 0.8414 0.5376
C4 C 0.909(3) 0.7759(16) 0.6035(6)
H2 H 0.7641 0.7384 0.5971
O9 O 0.791(3) 0.6437(13) 0.8261(5)
O10 O 0.504(3) 0.6995(12) 0.7703(6)
O14 O 0.479(3) 0.4400(16) 0.8067(6)
C10_2 C 0.060(4) 0.077(2) 0.9619(9)
C11_2 C 0.118(3) 0.1625(12) 0.9226(5)
C14_2 C 0.215(3) 0.3317(12) 0.8531(5)
C15_2 C 0.385(2) 0.2458(13) 0.8666(5)
H8_2 H 0.5309 0.2449 0.8524
C16_2 C 0.336(2) 0.1612(12) 0.9013(6)
H9_2 H 0.4498 0.1037 0.9104
C17_2 C 0.273(4) 0.4244(18) 0.8174(7)
C29_2 C 0.052(2) 0.7516(13) 0.0909(5)
H15_2 H 0.1978 0.7507 0.0767
C30_2 C 0.003(2) 0.6670(12) 0.1257(6)
H16_2 H 0.1167 0.6095 0.1347
C1_2 C 0.606(5) 0.705(2) 0.8138(9)
C2_2 C 0.261(3) 0.8937(15) 0.9226(5)
C3_2 C 0.478(3) 0.8376(16) 0.9322(4)
H1_2 H 0.5475 0.8414 0.9624
C4_2 C 0.591(3) 0.7759(16) 0.8965(6)
H2_2 H 0.7359 0.7384 0.9029
C5_2 C 0.486(3) 0.7703(15) 0.8513(5)
C6_2 C 0.269(3) 0.8264(15) 0.8418(4)
H3_2 H 0.1992 0.8226 0.8115
C7_2 C 0.156(2) 0.8881(14) 0.8774(5)
H4_2 H 0.0109 0.9256 0.8710
C8_2 C 0.118(4) 0.9552(18) 0.9617(8)
C9_2 C 0.069(5) 0.883(2) 0.9987(9)
H5_2 H 0.1228 0.8030 0.9984
O5_2 O 0.209(3) 0.3563(13) 0.1739(5)
O6_2 O 0.496(3) 0.3005(12) 0.2297(6)
C18_2 C 0.394(5) 0.295(2) 0.1862(9)
C19_2 C 0.739(3) 0.1063(15) 0.0774(5)
C20_2 C 0.522(3) 0.1624(16) 0.0678(4)
H10_2 H 0.4525 0.1586 0.0376
C21_2 C 0.409(3) 0.2241(16) 0.1035(6)
H11_2 H 0.2641 0.2616 0.0971
C22_2 C 0.514(3) 0.2297(15) 0.1487(5)
C23_2 C 0.731(3) 0.1736(15) 0.1582(4)
H12_2 H 0.8008 0.1774 0.1885
C24_2 C 0.844(2) 0.1119(14) 0.1226(5)
H13_2 H 0.9891 0.0744 0.1290
C25_2 C 0.882(4) 0.0448(18) 0.0383(8)
C26_2 C 0.931(5) 0.117(2) 0.0013(9)
H14_2 H 0.8772 0.1970 0.0016
C12_2 C 0.948(2) 0.2484(13) 0.9091(5)
H6_2 H 0.8022 0.2493 0.9233
C13_2 C 0.997(2) 0.3330(12) 0.8743(6)
H7_2 H 0.8833 0.3905 0.8653
C27_2 C 0.940(4) 0.923(2) 0.0381(9)
C28_2 C 0.882(3) 0.8375(12) 0.0774(5)
C31_2 C 0.785(3) 0.6683(12) 0.1469(5)
C32_2 C 0.615(2) 0.7542(13) 0.1334(5)
H17_2 H 0.4691 0.7551 0.1476
C33_2 C 0.664(2) 0.8388(12) 0.0987(6)
H18_2 H 0.5502 0.8963 0.0896
O7_2 O 0.900(3) 0.5308(14) 0.2049(5)
O8_2 O 0.521(3) 0.5600(16) 0.1933(6)
C34_2 C 0.727(4) 0.5756(18) 0.1826(7)
loop_
_geom_bond_atom_site_label_1
_geom_bond_atom_site_label_2
_geom_bond_site_symmetry_1
_geom_bond_site_symmetry_2
O5 C18 1_555 1_555
O6 C18 1_555 1_555
H11 C21 1_555 1_555
Th6 O5 1_555 1_555
O6 Th6 1_555 1_555
C11 C10 1_555 1_555
C12 C11 1_555 1_555
H6 C12 1_555 1_555
C13 C12 1_555 1_555
H7 C13 1_555 1_555
C14 C13 1_555 1_555
C15 C14 1_555 1_555
C16 C11 1_555 1_555
H9 C16 1_555 1_555
O3 C17 1_555 1_555
O4 C17 1_555 1_555
C17 C14 1_555 1_555
C19 C20 1_555 1_555
C23 C22 1_555 1_555
H12 C23 1_555 1_555
C24 C19 1_555 1_555
H13 C24 1_555 1_555
C25 C19 1_555 1_555
C26 C10 1_555 1_555
H14 C26 1_555 1_555
Th3 O3 1_555 1_555
C15 C16 1_555 1_555
C23 C24 1_555 1_555
C25 C26 1_555 1_555
C2 C3 1_555 1_555
C6 C5 1_555 1_555
H3 C6 1_555 1_555
C7 C2 1_555 1_555
H4 C7 1_555 1_555
C8 C2 1_555 1_555
C9 C8 1_555 1_555
H5 C9 1_555 1_555
C27 C9 1_555 1_555
C28 C27 1_555 1_555
C29 C28 1_555 1_555
H15 C29 1_555 1_555
C30 C29 1_555 1_555
H16 C30 1_555 1_555
C31 C30 1_555 1_555
C32 C31 1_555 1_555
C33 C28 1_555 1_555
H18 C33 1_555 1_555
O7 C34 1_555 1_555
O8 C34 1_555 1_555
C34 C31 1_555 1_555
Th6 O7 1_555 1_555
C6 C7 1_555 1_555
C32 C33 1_555 1_555
Th3 O1 1_555 1_555
O1 C1 1_555 1_555
O2 Th3 1_555 1_555
C1 O2 1_555 1_555
H2 C4 1_555 1_555
O9 Th3 1_555 1_555
O10 Th3 1_555 1_555
O14 Th3 1_555 1_555
C11_2 C10_2 1_555 1_555
C15_2 C14_2 1_555 1_555
H8_2 C15_2 1_555 1_555
C16_2 C11_2 1_555 1_555
H9_2 C16_2 1_555 1_555
O12 C17_2 1_555 1_555
O14 C17_2 1_555 1_555
C17_2 C14_2 1_555 1_555
C15_2 C16_2 1_555 1_555
H15_2 C29_2 1_555 1_555
C30_2 C29_2 1_555 1_555
H16_2 C30_2 1_555 1_555
O9 C1_2 1_555 1_555
C1_2 O10 1_555 1_555
C2_2 C3_2 1_555 1_555
C3_2 H1_2 1_555 1_555
C4_2 C3_2 1_555 1_555
H2_2 C4_2 1_555 1_555
C5_2 C1_2 1_555 1_555
C6_2 C5_2 1_555 1_555
H3_2 C6_2 1_555 1_555
C7_2 C2_2 1_555 1_555
H4_2 C7_2 1_555 1_555
C8_2 C2_2 1_555 1_555
C9_2 C8_2 1_555 1_555
H5_2 C9_2 1_555 1_555
C4_2 C5_2 1_555 1_555
C6_2 C7_2 1_555 1_555
O5_2 C18_2 1_555 1_555
O6_2 C18_2 1_555 1_555
C18_2 C22_2 1_555 1_555
C19_2 C20_2 1_555 1_555
C20_2 H10_2 1_555 1_555
C21_2 C20_2 1_555 1_555
H11_2 C21_2 1_555 1_555
C22_2 C21_2 1_555 1_555
C23_2 C22_2 1_555 1_555
H12_2 C23_2 1_555 1_555
C24_2 C19_2 1_555 1_555
H13_2 C24_2 1_555 1_555
C25_2 C19_2 1_555 1_555
H14_2 C26_2 1_555 1_555
Th6 O5_2 1_555 1_555
O6_2 Th6 1_555 1_555
C23_2 C24_2 1_555 1_555
C25_2 C26_2 1_555 1_555
H6_2 C12_2 1_555 1_555
C13_2 C12_2 1_555 1_555
H7_2 C13_2 1_555 1_555
C28_2 C27_2 1_555 1_555
C32_2 C31_2 1_555 1_555
H17_2 C32_2 1_555 1_555
C33_2 C28_2 1_555 1_555
H18_2 C33_2 1_555 1_555
O7_2 C34_2 1_555 1_555
O8_2 C34_2 1_555 1_555
C34_2 C31_2 1_555 1_555
Th6 O8_2 1_555 1_555
C32_2 C33_2 1_555 1_555

#END
