
###############################################################################
#
# This file contains modified crystal structure data generated from the
# MOF subset of the Cambridge Structural Database (CSD) v543 
# hosted by the Cambridge Crystallographic Data Centre (CCDC).
#
# This work is licensed under the Creative Commons
# Attribution-NonCommercial-ShareAlike 4.0 International License.
# To view a copy of this license, visit
# http://creativecommons.org/licenses/by-nc-sa/4.0/
# or send a letter to
# Creative Commons, PO Box 1866, Mountain View, CA 94042, USA.
#
# CIF created using the CSD Python API on 29 September 2022
# The structure has been converted into the P1 space group
# The structure has a 3D framework
# The original CSD entry OSIMUB is in the monoclinic crystal system
# The framework has been calculated to contain at least 10.0% void space
# The void calculation uses a probe of radius 1.32A, grid spacing 0.4
#
###############################################################################

data_OSIMUB
_chemical_formula_moiety         '(C148 H108 N4 O38 Th4)n'
_symmetry_cell_setting           triclinic
_symmetry_space_group_name_H-M   'P 1'
_symmetry_Int_Tables_number      1
_space_group_name_Hall           'P 1'
loop_
_symmetry_equiv_pos_site_id
_symmetry_equiv_pos_as_xyz
1 x,y,z
_cell_length_a                   12.0770(15)
_cell_length_b                   31.421(4)
_cell_length_c                   14.830(2)
_cell_angle_alpha                90
_cell_angle_beta                 112.117(4)
_cell_angle_gamma                90
_cell_volume                     5213.47
loop_
_atom_site_label
_atom_site_type_symbol
_atom_site_fract_x
_atom_site_fract_y
_atom_site_fract_z
O1 O 0.1466(8) 0.0482(3) 0.0070(7)
H6 H 0.2854 0.1074 0.0126
O14 O 0.0831(9) 0.0376(3) 0.1797(8)
O16 O 0.3330(9) 0.0405(3) 0.2034(8)
O3 O 0.6030(9) 0.0489(3) 0.7913(9)
O4 O 0.7556(9) 0.0896(3) 0.8762(9)
O5 O 0.5831(9) 0.4624(3) 0.6797(8)
O6 O 0.4202(9) 0.4622(3) 0.5440(8)
C1 C 0.0755(12) 0.0649(4) 0.9324(11)
C2 C 0.1132(13) 0.1082(4) 0.9096(11)
C3 C 0.0361(13) 0.1328(5) 0.8357(12)
C4 C 0.0760(12) 0.1711(5) 0.8111(14)
H4 H 0.0222 0.1874 0.7591
C5 C 0.1895(12) 0.1862(4) 0.8589(13)
C6 C 0.2677(12) 0.1600(4) 0.9348(11)
H5 H 0.3481 0.1688 0.9682
C7 C 0.2316(12) 0.1235(5) 0.9601(11)
C8 C 0.2387(11) 0.2265(4) 0.8352(12)
C9 C 0.1690(12) 0.2622(4) 0.8207(13)
H7 H 0.0941 0.2592 0.8270
C10 C 0.1981(12) 0.3032(4) 0.7972(12)
C11 C 0.3086(13) 0.3044(4) 0.7826(13)
C12 C 0.3757(15) 0.2694(7) 0.7899(16)
H8 H 0.4467 0.2718 0.7769
C13 C 0.3446(13) 0.2293(4) 0.8162(12)
C14 C 0.4183(14) 0.1912(4) 0.8155(12)
C15 C 0.5407(13) 0.1948(4) 0.8696(13)
H9 H 0.5731 0.2199 0.9054
C16 C 0.6152(14) 0.1601(4) 0.8698(14)
H10 H 0.6995 0.1626 0.9008
C17 C 0.5626(13) 0.1209(4) 0.8227(13)
C18 C 0.4437(16) 0.1195(5) 0.7733(13)
H11 H 0.4093 0.0943 0.7389
C19 C 0.3690(14) 0.1537(5) 0.7706(13)
H12 H 0.2849 0.1510 0.7381
C20 C 0.6446(13) 0.0845(6) 0.8304(12)
C21 C 0.1234(13) 0.3402(5) 0.7938(13)
C22 C 0.0067(14) 0.3426(4) 0.7313(12)
C25 C 0.1005(16) 0.4101(6) 0.8568(14)
H15 H 0.1309 0.4333 0.9001
C26 C 0.1737(15) 0.3767(5) 0.8581(14)
H16 H 0.2557 0.3771 0.8999
C27 C 0.3490(13) 0.3440(4) 0.7473(13)
C28 C 0.2837(12) 0.3594(5) 0.6527(14)
H17 H 0.2101 0.3461 0.6149
C29 C 0.3224(14) 0.3924(5) 0.6144(13)
H18 H 0.2774 0.4016 0.5499
C30 C 0.4295(13) 0.4130(5) 0.6702(12)
C31 C 0.4917(17) 0.4000(6) 0.7606(15)
H19 H 0.5612 0.4152 0.7994
C32 C 0.4561(15) 0.3637(6) 0.8001(16)
H20 H 0.5056 0.3531 0.8622
C33 C 0.4807(15) 0.4485(4) 0.6264(14)
H21 H 0.2576 0.0181 0.9118
H25 H 0.2726 0.0140 0.7643
H27 H 0.4141 0.0138 0.7917
Th2 Th 0.30663(4) 0.48710(2) 0.38195(4)
Th4 Th 0.80663(4) 0.01290(2) 0.88195(4)
Th6 Th 0.69337(4) 0.51290(2) 0.61805(4)
Th1 Th 0.19337(4) 0.98710(2) 0.11805(4)
O9 O 0.2343(11) 0.9724(4) 0.2923(9)
H1 H 0.2743 0.9493 0.3194
H2 H 0.1759 0.9664 0.3123
O10 O 0.3243(10) 0.9858(4) 0.0230(10)
O11 O 0.0236(9) 0.9487(3) 0.1209(9)
O12 O 0.3970(9) 0.9511(3) 0.2087(9)
O13 O 0.2444(9) 0.9104(3) 0.1238(9)
N1 N 0.3630(15) 0.9808(5) 0.8851(13)
C35 C 0.3128(16) 0.9957(6) 0.9397(19)
C36 C 0.4490(16) 0.9431(6) 0.9209(16)
H22 H 0.4109 0.9173 0.8858
H23 H 0.4691 0.9390 0.9908
H24 H 0.5221 0.9489 0.9091
C37 C 0.345(3) 0.9965(6) 0.7886(18)
H26 H 0.3367 0.9724 0.7446
O15 O 0.0798(9) 0.9622(3) 0.9560(8)
O2 O 0.9764(9) 0.0513(3) 0.8791(9)
O7 O 0.9287(16) 0.4718(5) 0.8620(10)
O8 O 0.8330(9) 0.4595(3) 0.7034(8)
H3 H 0.9561 0.1238 0.8016
H13 H 0.9704 0.3195 0.6890
C23 C 0.9423(16) 0.3789(5) 0.7304(14)
H14 H 0.8643 0.3812 0.6818
C24 C 0.9814(15) 0.4103(5) 0.7920(14)
C34 C 0.9117(15) 0.4509(4) 0.7852(15)
O1_2 O 0.3534(8) 0.5482(3) 0.4930(7)
O2_2 O 0.5236(9) 0.5513(3) 0.6209(9)
O7_2 O 0.5713(16) 0.9718(5) 0.6380(10)
O8_2 O 0.6670(9) 0.9595(3) 0.7966(8)
O9_2 O 0.2657(11) 0.4724(4) 0.2077(9)
H1_2 H 0.2257 0.4493 0.1806
H2_2 H 0.3241 0.4664 0.1877
O10_2 O 0.1757(10) 0.4858(4) 0.4770(10)
N1_2 N 0.1370(15) 0.4808(5) 0.6149(13)
C1_2 C 0.4245(12) 0.5649(4) 0.5676(11)
C2_2 C 0.3868(13) 0.6082(4) 0.5904(11)
C3_2 C 0.4639(13) 0.6328(5) 0.6643(12)
H3_2 H 0.5439 0.6238 0.6984
C4_2 C 0.4240(12) 0.6711(5) 0.6889(14)
H4_2 H 0.4778 0.6874 0.7409
C5_2 C 0.3105(12) 0.6862(4) 0.6411(13)
C6_2 C 0.2323(12) 0.6600(4) 0.5652(11)
H5_2 H 0.1519 0.6688 0.5318
C7_2 C 0.2684(12) 0.6235(5) 0.5399(11)
H6_2 H 0.2146 0.6074 0.4874
C8_2 C 0.2613(11) 0.7265(4) 0.6648(12)
C9_2 C 0.3310(12) 0.7622(4) 0.6793(13)
H7_2 H 0.4059 0.7592 0.6730
C10_2 C 0.3019(12) 0.8032(4) 0.7028(12)
C11_2 C 0.1914(13) 0.8044(4) 0.7174(13)
C12_2 C 0.1243(15) 0.7694(7) 0.7101(16)
H8_2 H 0.0533 0.7718 0.7231
C13_2 C 0.1554(13) 0.7293(4) 0.6838(12)
C14_2 C 0.0817(14) 0.6912(4) 0.6845(12)
C18_2 C 0.0563(16) 0.6195(5) 0.7267(13)
H11_2 H 0.0907 0.5943 0.7611
C19_2 C 0.1310(14) 0.6537(5) 0.7294(13)
H12_2 H 0.2151 0.6510 0.7619
C21_2 C 0.3766(13) 0.8402(5) 0.7062(13)
C22_2 C 0.4933(14) 0.8426(4) 0.7687(12)
H13_2 H 0.5296 0.8195 0.8110
C23_2 C 0.5577(16) 0.8789(5) 0.7696(14)
H14_2 H 0.6357 0.8812 0.8182
C24_2 C 0.5186(15) 0.9103(5) 0.7080(14)
C25_2 C 0.3995(16) 0.9101(6) 0.6432(14)
H15_2 H 0.3691 0.9333 0.5999
C26_2 C 0.3263(15) 0.8767(5) 0.6419(14)
H16_2 H 0.2443 0.8771 0.6001
C27_2 C 0.1510(13) 0.8440(4) 0.7527(13)
C28_2 C 0.2163(12) 0.8594(5) 0.8473(14)
H17_2 H 0.2899 0.8461 0.8851
C29_2 C 0.1776(14) 0.8924(5) 0.8856(13)
H18_2 H 0.2226 0.9016 0.9501
C30_2 C 0.0705(13) 0.9130(5) 0.8298(12)
C31_2 C 0.0083(17) 0.9000(6) 0.7394(15)
C32_2 C 0.0439(15) 0.8637(6) 0.6999(16)
C33_2 C 0.0193(15) 0.9485(4) 0.8736(14)
C34_2 C 0.5883(15) 0.9509(4) 0.7148(15)
C35_2 C 0.1872(16) 0.4957(6) 0.5603(19)
H21_2 H 0.2424 0.5181 0.5882
C36_2 C 0.0510(16) 0.4431(6) 0.5791(16)
H22_2 H 0.0891 0.4173 0.6142
H23_2 H 0.0309 0.4390 0.5092
C37_2 C 0.155(3) 0.4965(6) 0.7114(18)
H25_2 H 0.2274 0.5140 0.7357
H26_2 H 0.1633 0.4724 0.7554
H27_2 H 0.0859 0.5138 0.7083
O11_2 O 0.4764(9) 0.4487(3) 0.3791(9)
O12_2 O 0.1030(9) 0.4511(3) 0.2913(9)
O13_2 O 0.2556(9) 0.4104(3) 0.3762(9)
O14_2 O 0.4169(9) 0.5376(3) 0.3203(8)
O16_2 O 0.1670(9) 0.5405(3) 0.2966(8)
O3_2 O 0.8970(9) 0.5489(3) 0.7087(9)
O4_2 O 0.7444(9) 0.5896(3) 0.6238(9)
O5_2 O 0.9169(9) 0.9624(3) 0.8203(8)
C15_2 C 0.9593(13) 0.6948(4) 0.6304(13)
H9_2 H 0.9269 0.7199 0.5946
C16_2 C 0.8848(14) 0.6601(4) 0.6302(14)
H10_2 H 0.8005 0.6626 0.5992
C17_2 C 0.9374(13) 0.6209(4) 0.6773(13)
C20_2 C 0.8554(13) 0.5845(6) 0.6696(12)
H19_2 H 0.9388 0.9152 0.7006
H20_2 H 0.9944 0.8531 0.6378
H24_2 H 0.9779 0.4489 0.5909
O7_3 O 0.0713(16) 0.5282(5) 0.1380(10)
H3_3 H 0.0439 0.8762 0.1984
H13_3 H 0.0296 0.6805 0.3110
C23_3 C 0.0577(16) 0.6211(5) 0.2696(14)
H14_3 H 0.1357 0.6188 0.3182
C24_3 C 0.0186(15) 0.5897(5) 0.2080(14)
C34_3 C 0.0883(15) 0.5491(4) 0.2148(15)
N1_3 N 0.6370(15) 0.0192(5) 0.1149(13)
C35_3 C 0.6872(16) 0.0043(6) 0.0603(19)
C36_3 C 0.5510(16) 0.0569(6) 0.0791(16)
H22_3 H 0.5891 0.0827 0.1142
H23_3 H 0.5309 0.0610 0.0092
H24_3 H 0.4779 0.0511 0.0909
C37_3 C 0.655(3) 0.0035(6) 0.2114(18)
H26_3 H 0.6633 0.0276 0.2554
O15_2 O 0.9202(9) 0.0378(3) 0.0440(8)
O9_3 O 0.7657(11) 0.0276(4) 0.7077(9)
H1_3 H 0.7257 0.0507 0.6806
H2_3 H 0.8241 0.0336 0.6877
O10_3 O 0.6757(10) 0.0142(4) 0.9770(10)
O6_2 O 0.5798(9) 0.5378(3) 0.4560(8)
C1_3 C 0.9245(12) 0.9351(4) 0.0676(11)
C2_3 C 0.8868(13) 0.8918(4) 0.0904(11)
C3_3 C 0.9639(13) 0.8672(5) 0.1643(12)
C4_3 C 0.9240(12) 0.8289(5) 0.1889(14)
H4_3 H 0.9778 0.8126 0.2409
C5_3 C 0.8105(12) 0.8138(4) 0.1411(13)
C6_3 C 0.7323(12) 0.8400(4) 0.0652(11)
H5_3 H 0.6519 0.8312 0.0318
C7_3 C 0.7684(12) 0.8765(5) 0.0399(11)
C8_3 C 0.7613(11) 0.7735(4) 0.1648(12)
C9_3 C 0.8310(12) 0.7378(4) 0.1793(13)
H7_3 H 0.9059 0.7408 0.1730
C10_3 C 0.8019(12) 0.6968(4) 0.2028(12)
C11_3 C 0.6914(13) 0.6956(4) 0.2174(13)
C12_3 C 0.6243(15) 0.7306(7) 0.2101(16)
H8_3 H 0.5533 0.7282 0.2231
C13_3 C 0.6554(13) 0.7707(4) 0.1838(12)
C14_3 C 0.5817(14) 0.8088(4) 0.1845(12)
C15_3 C 0.4593(13) 0.8052(4) 0.1304(13)
H9_3 H 0.4269 0.7801 0.0946
C16_3 C 0.3848(14) 0.8399(4) 0.1302(14)
H10_3 H 0.3005 0.8374 0.0992
C17_3 C 0.4374(13) 0.8791(4) 0.1773(13)
C18_3 C 0.5563(16) 0.8805(5) 0.2267(13)
H11_3 H 0.5907 0.9057 0.2611
C19_3 C 0.6310(14) 0.8463(5) 0.2294(13)
H12_3 H 0.7151 0.8490 0.2619
C20_3 C 0.3554(13) 0.9155(6) 0.1696(12)
C21_3 C 0.8766(13) 0.6598(5) 0.2062(13)
C22_3 C 0.9933(14) 0.6574(4) 0.2687(12)
C25_3 C 0.8995(16) 0.5899(6) 0.1432(14)
H15_3 H 0.8691 0.5667 0.0999
C26_3 C 0.8263(15) 0.6233(5) 0.1419(14)
H16_3 H 0.7443 0.6229 0.1001
C27_3 C 0.6510(13) 0.6560(4) 0.2527(13)
C28_3 C 0.7163(12) 0.6406(5) 0.3473(14)
H17_3 H 0.7899 0.6539 0.3851
C29_3 C 0.6776(14) 0.6076(5) 0.3856(13)
H18_3 H 0.7226 0.5984 0.4501
C30_3 C 0.5705(13) 0.5870(5) 0.3298(12)
C31_3 C 0.5083(17) 0.6000(6) 0.2394(15)
H19_3 H 0.4388 0.5848 0.2006
C32_3 C 0.5439(15) 0.6363(6) 0.1999(16)
H20_3 H 0.4944 0.6469 0.1378
C33_3 C 0.5193(15) 0.5515(4) 0.3736(14)
H21_3 H 0.7424 0.9819 0.0882
H25_3 H 0.7274 0.9860 0.2357
H27_3 H 0.5859 0.9862 0.2083
O1_3 O 0.8534(8) 0.9518(3) 0.9930(7)
H6_3 H 0.7146 0.8926 0.9874
C15_4 C 0.0407(13) 0.3052(4) 0.3696(13)
H9_4 H 0.0731 0.2801 0.4054
C16_4 C 0.1152(14) 0.3399(4) 0.3698(14)
H10_4 H 0.1995 0.3374 0.4008
C17_4 C 0.0626(13) 0.3791(4) 0.3227(13)
C20_4 C 0.1446(13) 0.4155(6) 0.3304(12)
H19_4 H 0.0612 0.0848 0.2994
H20_4 H 0.0056 0.1469 0.3622
H24_4 H 0.0221 0.5511 0.4091
O1_4 O 0.6466(8) 0.4518(3) 0.5070(7)
O7_4 O 0.4287(16) 0.0282(5) 0.3620(10)
O9_4 O 0.7343(11) 0.5276(4) 0.7923(9)
H1_4 H 0.7743 0.5507 0.8194
H2_4 H 0.6759 0.5336 0.8123
O10_4 O 0.8243(10) 0.5142(4) 0.5230(10)
N1_4 N 0.8630(15) 0.5192(5) 0.3851(13)
C1_4 C 0.5755(12) 0.4351(4) 0.4324(11)
C2_4 C 0.6132(13) 0.3918(4) 0.4096(11)
C3_4 C 0.5361(13) 0.3672(5) 0.3357(12)
H3_4 H 0.4561 0.3762 0.3016
C4_4 C 0.5760(12) 0.3289(5) 0.3111(14)
H4_4 H 0.5222 0.3126 0.2591
C5_4 C 0.6895(12) 0.3138(4) 0.3589(13)
C6_4 C 0.7677(12) 0.3400(4) 0.4348(11)
H5_4 H 0.8481 0.3312 0.4682
C7_4 C 0.7316(12) 0.3765(5) 0.4601(11)
H6_4 H 0.7854 0.3926 0.5126
C8_4 C 0.7387(11) 0.2735(4) 0.3352(12)
C9_4 C 0.6690(12) 0.2378(4) 0.3207(13)
H7_4 H 0.5941 0.2408 0.3270
C10_4 C 0.6981(12) 0.1968(4) 0.2972(12)
C11_4 C 0.8086(13) 0.1956(4) 0.2826(13)
C12_4 C 0.8757(15) 0.2306(7) 0.2899(16)
H8_4 H 0.9467 0.2282 0.2769
C13_4 C 0.8446(13) 0.2707(4) 0.3162(12)
C14_4 C 0.9183(14) 0.3088(4) 0.3155(12)
C18_4 C 0.9437(16) 0.3805(5) 0.2733(13)
H11_4 H 0.9093 0.4057 0.2389
C19_4 C 0.8690(14) 0.3463(5) 0.2706(13)
H12_4 H 0.7849 0.3490 0.2381
C21_4 C 0.6234(13) 0.1598(5) 0.2938(13)
C22_4 C 0.5067(14) 0.1574(4) 0.2313(12)
H13_4 H 0.4704 0.1805 0.1890
C23_4 C 0.4423(16) 0.1211(5) 0.2304(14)
H14_4 H 0.3643 0.1188 0.1818
C24_4 C 0.4814(15) 0.0897(5) 0.2920(14)
C25_4 C 0.6005(16) 0.0899(6) 0.3568(14)
H15_4 H 0.6309 0.0667 0.4001
C26_4 C 0.6737(15) 0.1233(5) 0.3581(14)
H16_4 H 0.7557 0.1229 0.3999
C27_4 C 0.8490(13) 0.1560(4) 0.2473(13)
C28_4 C 0.7837(12) 0.1406(5) 0.1527(14)
H17_4 H 0.7101 0.1539 0.1149
C29_4 C 0.8224(14) 0.1076(5) 0.1144(13)
H18_4 H 0.7774 0.0984 0.0499
C30_4 C 0.9295(13) 0.0870(5) 0.1702(12)
C31_4 C 0.9917(17) 0.1000(6) 0.2606(15)
C32_4 C 0.9561(15) 0.1363(6) 0.3001(16)
C33_4 C 0.9807(15) 0.0515(4) 0.1264(14)
C34_4 C 0.4117(15) 0.0491(4) 0.2852(15)
C35_4 C 0.8128(16) 0.5043(6) 0.4397(19)
H21_4 H 0.7576 0.4819 0.4118
C36_4 C 0.9490(16) 0.5569(6) 0.4209(16)
H22_4 H 0.9109 0.5827 0.3858
H23_4 H 0.9691 0.5610 0.4908
C37_4 C 0.845(3) 0.5035(6) 0.2886(18)
H25_4 H 0.7726 0.4860 0.2643
H26_4 H 0.8367 0.5276 0.2446
H27_4 H 0.9141 0.4862 0.2917
loop_
_geom_bond_atom_site_label_1
_geom_bond_atom_site_label_2
_geom_bond_site_symmetry_1
_geom_bond_site_symmetry_2
O3 C20 1_555 1_555
O4 C20 1_555 1_555
O5 C33 1_555 1_555
O6 C33 1_555 1_555
C1 C2 1_555 1_555
C2 C3 1_555 1_555
C4 C3 1_555 1_555
H4 C4 1_555 1_555
C5 C4 1_555 1_555
C6 C5 1_555 1_555
H5 C6 1_555 1_555
C7 C2 1_555 1_555
C8 C5 1_555 1_555
C9 C8 1_555 1_555
H7 C9 1_555 1_555
C10 C9 1_555 1_555
C11 C10 1_555 1_555
C12 C11 1_555 1_555
H8 C12 1_555 1_555
C13 C8 1_555 1_555
C14 C13 1_555 1_555
C15 C14 1_555 1_555
H9 C15 1_555 1_555
C16 C15 1_555 1_555
H10 C16 1_555 1_555
C17 C16 1_555 1_555
C18 C17 1_555 1_555
H11 C18 1_555 1_555
C19 C14 1_555 1_555
H12 C19 1_555 1_555
C20 C17 1_555 1_555
C21 C10 1_555 1_555
C22 C21 1_555 1_555
H15 C25 1_555 1_555
C26 C21 1_555 1_555
H16 C26 1_555 1_555
C27 C11 1_555 1_555
C28 C27 1_555 1_555
H17 C28 1_555 1_555
C29 C28 1_555 1_555
H18 C29 1_555 1_555
C30 C29 1_555 1_555
C31 C30 1_555 1_555
H19 C31 1_555 1_555
C32 C27 1_555 1_555
H20 C32 1_555 1_555
C33 C30 1_555 1_555
Th2 O6 1_555 1_555
Th4 O3 1_555 1_555
Th6 O5 1_555 1_555
O4 Th4 1_555 1_555
C6 C7 1_555 1_555
C12 C13 1_555 1_555
C18 C19 1_555 1_555
C25 C26 1_555 1_555
C31 C32 1_555 1_555
O9 Th1 1_555 1_555
H1 O9 1_555 1_555
H2 O9 1_555 1_555
O10 Th1 1_555 1_555
O11 Th1 1_555 1_555
O12 Th1 1_555 1_555
O13 Th1 1_555 1_555
N1 C35 1_555 1_555
C36 N1 1_555 1_555
H22 C36 1_555 1_555
H23 C36 1_555 1_555
H24 C36 1_555 1_555
C37 N1 1_555 1_555
H26 C37 1_555 1_555
O7 C34 1_555 1_555
O8 C34 1_555 1_555
H14 C23 1_555 1_555
C24 C23 1_555 1_555
C34 C24 1_555 1_555
Th4 O2 1_555 1_555
Th6 O8 1_555 1_555
Th2 O1_2 1_555 1_555
O1_2 C1_2 1_555 1_555
O2_2 C1_2 1_555 1_555
O15 C33_2 1_555 1_555
O7_2 C34_2 1_555 1_555
O8_2 C34_2 1_555 1_555
O9_2 Th2 1_555 1_555
H1_2 O9_2 1_555 1_555
H2_2 O9_2 1_555 1_555
O10_2 Th2 1_555 1_555
N1_2 C35_2 1_555 1_555
C1_2 C2_2 1_555 1_555
C2_2 C3_2 1_555 1_555
C3_2 H3_2 1_555 1_555
C4_2 C3_2 1_555 1_555
H4_2 C4_2 1_555 1_555
C5_2 C4_2 1_555 1_555
C6_2 C5_2 1_555 1_555
H5_2 C6_2 1_555 1_555
C7_2 C2_2 1_555 1_555
H6_2 C7_2 1_555 1_555
C8_2 C5_2 1_555 1_555
C9_2 C8_2 1_555 1_555
H7_2 C9_2 1_555 1_555
C10_2 C9_2 1_555 1_555
C11_2 C10_2 1_555 1_555
C12_2 C11_2 1_555 1_555
H8_2 C12_2 1_555 1_555
C13_2 C8_2 1_555 1_555
C14_2 C13_2 1_555 1_555
H11_2 C18_2 1_555 1_555
C19_2 C14_2 1_555 1_555
H12_2 C19_2 1_555 1_555
C21_2 C10_2 1_555 1_555
C22_2 C21_2 1_555 1_555
H13_2 C22_2 1_555 1_555
C23_2 C22_2 1_555 1_555
H14_2 C23_2 1_555 1_555
C24_2 C23_2 1_555 1_555
C25_2 C24_2 1_555 1_555
H15_2 C25_2 1_555 1_555
C26_2 C21_2 1_555 1_555
H16_2 C26_2 1_555 1_555
C27_2 C11_2 1_555 1_555
C28_2 C27_2 1_555 1_555
H17_2 C28_2 1_555 1_555
C29_2 C28_2 1_555 1_555
H18_2 C29_2 1_555 1_555
C30_2 C29_2 1_555 1_555
C31_2 C30_2 1_555 1_555
C32_2 C27_2 1_555 1_555
C33_2 C30_2 1_555 1_555
C34_2 C24_2 1_555 1_555
C35_2 O10_2 1_555 1_555
H21_2 C35_2 1_555 1_555
C36_2 N1_2 1_555 1_555
H22_2 C36_2 1_555 1_555
H23_2 C36_2 1_555 1_555
C37_2 N1_2 1_555 1_555
H25_2 C37_2 1_555 1_555
H26_2 C37_2 1_555 1_555
H27_2 C37_2 1_555 1_555
Th6 O2_2 1_555 1_555
O11_2 Th2 1_555 1_555
O12_2 Th2 1_555 1_555
O13_2 Th2 1_555 1_555
O14_2 Th2 1_555 1_555
O16_2 Th2 1_555 1_555
C6_2 C7_2 1_555 1_555
C12_2 C13_2 1_555 1_555
C18_2 C19_2 1_555 1_555
C25_2 C26_2 1_555 1_555
C31_2 C32_2 1_555 1_555
O3_2 C20_2 1_555 1_555
O4_2 C20_2 1_555 1_555
H9_2 C15_2 1_555 1_555
C16_2 C15_2 1_555 1_555
H10_2 C16_2 1_555 1_555
C17_2 C16_2 1_555 1_555
C20_2 C17_2 1_555 1_555
Th6 O3_2 1_555 1_555
O4_2 Th6 1_555 1_555
O7_3 C34_3 1_555 1_555
O16_2 C34_3 1_555 1_555
H14_3 C23_3 1_555 1_555
C24_3 C23_3 1_555 1_555
C34_3 C24_3 1_555 1_555
N1_3 C35_3 1_555 1_555
C36_3 N1_3 1_555 1_555
H22_3 C36_3 1_555 1_555
H23_3 C36_3 1_555 1_555
H24_3 C36_3 1_555 1_555
C37_3 N1_3 1_555 1_555
H26_3 C37_3 1_555 1_555
O9_3 Th4 1_555 1_555
H1_3 O9_3 1_555 1_555
H2_3 O9_3 1_555 1_555
O10_3 Th4 1_555 1_555
O12 C20_3 1_555 1_555
O13 C20_3 1_555 1_555
O14_2 C33_3 1_555 1_555
O6_2 C33_3 1_555 1_555
C1_3 C2_3 1_555 1_555
C2_3 C3_3 1_555 1_555
C4_3 C3_3 1_555 1_555
H4_3 C4_3 1_555 1_555
C5_3 C4_3 1_555 1_555
C6_3 C5_3 1_555 1_555
H5_3 C6_3 1_555 1_555
C7_3 C2_3 1_555 1_555
C8_3 C5_3 1_555 1_555
C9_3 C8_3 1_555 1_555
H7_3 C9_3 1_555 1_555
C10_3 C9_3 1_555 1_555
C11_3 C10_3 1_555 1_555
C12_3 C11_3 1_555 1_555
H8_3 C12_3 1_555 1_555
C13_3 C8_3 1_555 1_555
C14_3 C13_3 1_555 1_555
C15_3 C14_3 1_555 1_555
H9_3 C15_3 1_555 1_555
C16_3 C15_3 1_555 1_555
H10_3 C16_3 1_555 1_555
C17_3 C16_3 1_555 1_555
C18_3 C17_3 1_555 1_555
H11_3 C18_3 1_555 1_555
C19_3 C14_3 1_555 1_555
H12_3 C19_3 1_555 1_555
C20_3 C17_3 1_555 1_555
C21_3 C10_3 1_555 1_555
C22_3 C21_3 1_555 1_555
H15_3 C25_3 1_555 1_555
C26_3 C21_3 1_555 1_555
H16_3 C26_3 1_555 1_555
C27_3 C11_3 1_555 1_555
C28_3 C27_3 1_555 1_555
H17_3 C28_3 1_555 1_555
C29_3 C28_3 1_555 1_555
H18_3 C29_3 1_555 1_555
C30_3 C29_3 1_555 1_555
C31_3 C30_3 1_555 1_555
H19_3 C31_3 1_555 1_555
C32_3 C27_3 1_555 1_555
H20_3 C32_3 1_555 1_555
C33_3 C30_3 1_555 1_555
Th6 O6_2 1_555 1_555
C6_3 C7_3 1_555 1_555
C12_3 C13_3 1_555 1_555
C18_3 C19_3 1_555 1_555
C25_3 C26_3 1_555 1_555
C31_3 C32_3 1_555 1_555
O12_2 C20_4 1_555 1_555
O13_2 C20_4 1_555 1_555
H9_4 C15_4 1_555 1_555
C16_4 C15_4 1_555 1_555
H10_4 C16_4 1_555 1_555
C17_4 C16_4 1_555 1_555
C20_4 C17_4 1_555 1_555
Th6 O1_4 1_555 1_555
O1_4 C1_4 1_555 1_555
O11_2 C1_4 1_555 1_555
O15_2 C33_4 1_555 1_555
O7_4 C34_4 1_555 1_555
O16 C34_4 1_555 1_555
O9_4 Th6 1_555 1_555
H1_4 O9_4 1_555 1_555
H2_4 O9_4 1_555 1_555
O10_4 Th6 1_555 1_555
N1_4 C35_4 1_555 1_555
C1_4 C2_4 1_555 1_555
C2_4 C3_4 1_555 1_555
C3_4 H3_4 1_555 1_555
C4_4 C3_4 1_555 1_555
H4_4 C4_4 1_555 1_555
C5_4 C4_4 1_555 1_555
C6_4 C5_4 1_555 1_555
H5_4 C6_4 1_555 1_555
C7_4 C2_4 1_555 1_555
H6_4 C7_4 1_555 1_555
C8_4 C5_4 1_555 1_555
C9_4 C8_4 1_555 1_555
H7_4 C9_4 1_555 1_555
C10_4 C9_4 1_555 1_555
C11_4 C10_4 1_555 1_555
C12_4 C11_4 1_555 1_555
H8_4 C12_4 1_555 1_555
C13_4 C8_4 1_555 1_555
C14_4 C13_4 1_555 1_555
H11_4 C18_4 1_555 1_555
C19_4 C14_4 1_555 1_555
H12_4 C19_4 1_555 1_555
C21_4 C10_4 1_555 1_555
C22_4 C21_4 1_555 1_555
H13_4 C22_4 1_555 1_555
C23_4 C22_4 1_555 1_555
H14_4 C23_4 1_555 1_555
C24_4 C23_4 1_555 1_555
C25_4 C24_4 1_555 1_555
H15_4 C25_4 1_555 1_555
C26_4 C21_4 1_555 1_555
H16_4 C26_4 1_555 1_555
C27_4 C11_4 1_555 1_555
C28_4 C27_4 1_555 1_555
H17_4 C28_4 1_555 1_555
C29_4 C28_4 1_555 1_555
H18_4 C29_4 1_555 1_555
C30_4 C29_4 1_555 1_555
C31_4 C30_4 1_555 1_555
C32_4 C27_4 1_555 1_555
C33_4 C30_4 1_555 1_555
C34_4 C24_4 1_555 1_555
C35_4 O10_4 1_555 1_555
H21_4 C35_4 1_555 1_555
C36_4 N1_4 1_555 1_555
H22_4 C36_4 1_555 1_555
H23_4 C36_4 1_555 1_555
C37_4 N1_4 1_555 1_555
H25_4 C37_4 1_555 1_555
H26_4 C37_4 1_555 1_555
H27_4 C37_4 1_555 1_555
C6_4 C7_4 1_555 1_555
C12_4 C13_4 1_555 1_555
C18_4 C19_4 1_555 1_555
C25_4 C26_4 1_555 1_555
C31_4 C32_4 1_555 1_555

#END
