
###############################################################################
#
# This file contains modified crystal structure data generated from the
# MOF subset of the Cambridge Structural Database (CSD) v543 
# hosted by the Cambridge Crystallographic Data Centre (CCDC).
#
# This work is licensed under the Creative Commons
# Attribution-NonCommercial-ShareAlike 4.0 International License.
# To view a copy of this license, visit
# http://creativecommons.org/licenses/by-nc-sa/4.0/
# or send a letter to
# Creative Commons, PO Box 1866, Mountain View, CA 94042, USA.
#
# CIF created using the CSD Python API on 29 September 2022
# The structure has been converted into the P1 space group
# The structure has a 3D framework
# The original CSD entry OSIWOD01 is in the monoclinic crystal system
# The framework has been calculated to contain at least 10.0% void space
# The void calculation uses a probe of radius 1.32A, grid spacing 0.4
#
###############################################################################

data_OSIWOD01
_chemical_formula_moiety         '(C64 H96 Ag16 N52)n'
_symmetry_cell_setting           triclinic
_symmetry_space_group_name_H-M   'P 1'
_symmetry_Int_Tables_number      1
_space_group_name_Hall           'P 1'
loop_
_symmetry_equiv_pos_site_id
_symmetry_equiv_pos_as_xyz
1 x,y,z
_cell_length_a                   13.0358(14)
_cell_length_b                   21.135(2)
_cell_length_c                   11.7194(13)
_cell_angle_alpha                90
_cell_angle_beta                 122.1840(10)
_cell_angle_gamma                90
_cell_volume                     2732.7
loop_
_atom_site_label
_atom_site_type_symbol
_atom_site_fract_x
_atom_site_fract_y
_atom_site_fract_z
N4 N 0.1106(6) 0.2936(3) 0.0000(7)
N5 N 0.1872(6) 0.3441(3) 0.0518(7)
N6 N 0.2802(6) 0.2615(3) 0.1853(7)
C5 C 0.1683(7) 0.2451(4) 0.0819(8)
C6 C 0.2863(8) 0.3230(4) 0.1605(9)
H7 H 0.3537 0.3482 0.2147
C7 C 0.1134(8) 0.1813(4) 0.0644(11)
H8 H 0.1768 0.1496 0.0979
C8 C 0.0489(14) 0.1747(7) 0.1352(18)
H10 H 0.0121 0.1336 0.1175
H11 H 0.1052 0.1796 0.2304
Ag3 Ag 0.42701(6) 0.19995(3) 0.32248(6)
N4_2 N 0.1106(6) 0.2936(3) 1.0000(7)
H9 H 0.0572 0.1734 0.9690
Ag5 Ag 0.14961(6) 0.43750(3) 0.94050(6)
C3 C 0.9112(9) 0.3946(5) 0.0639(9)
H2 H 0.9835 0.3699 0.0917
H3 H 0.9310 0.4248 0.1352
C4 C 0.8178(12) 0.3522(7) 0.0518(12)
H4 H 0.8462 0.3320 0.1369
H6 H 0.7459 0.3760 0.0259
H12 H 0.9873 0.2066 0.1040
Ag4 Ag 0.85039(6) 0.56250(3) 0.05950(6)
Ag1 Ag 0.92701(6) 0.30005(3) 0.82248(6)
Ag2 Ag 0.85039(6) 0.43750(3) 0.55950(6)
N1 N 0.8868(6) 0.4048(3) 0.8392(6)
N2 N 0.8520(6) 0.4519(3) 0.7447(7)
N3 N 0.8423(6) 0.4902(3) 0.9156(7)
C1 C 0.8797(7) 0.4307(4) 0.9393(8)
C2 C 0.8284(8) 0.5003(4) 0.7955(9)
H1 H 0.8038 0.5391 0.7516
H5 H 0.7998 0.3207 0.9846
N7 N 0.8423(6) 0.5098(3) 0.4156(7)
N8 N 0.8128(6) 0.3441(3) 0.4482(7)
N9 N 0.7802(6) 0.2385(3) 0.6853(7)
N7_2 N 0.1577(6) 0.5098(3) 0.0844(7)
Ag1_2 Ag 0.07299(6) 0.30005(3) 0.67752(6)
N1_2 N 0.1132(6) 0.4048(3) 0.6608(6)
N2_2 N 0.1480(6) 0.4519(3) 0.7553(7)
N3_2 N 0.1577(6) 0.4902(3) 0.5844(7)
C1_2 C 0.1203(7) 0.4307(4) 0.5607(8)
C2_2 C 0.1716(8) 0.5003(4) 0.7045(9)
H1_2 H 0.1962 0.5391 0.7484
C3_2 C 0.0888(9) 0.3946(5) 0.4361(9)
H2_2 H 0.0165 0.3699 0.4083
H3_2 H 0.0690 0.4248 0.3648
C4_2 C 0.1822(12) 0.3522(7) 0.4482(12)
H4_2 H 0.1538 0.3320 0.3631
H5_2 H 0.2002 0.3207 0.5154
H6_2 H 0.2541 0.3760 0.4741
H12_2 H 0.0127 0.2066 0.3960
Ag4_2 Ag 0.14961(6) 0.56250(3) 0.44050(6)
N9_2 N 0.2198(6) 0.2385(3) 0.8147(7)
N4_3 N 0.8894(6) 0.2936(3) 0.5000(7)
N6_2 N 0.7198(6) 0.2615(3) 0.3147(7)
C5_2 C 0.8317(7) 0.2451(4) 0.4181(8)
C6_2 C 0.7137(8) 0.3230(4) 0.3395(9)
H7_2 H 0.6463 0.3482 0.2853
C7_2 C 0.8866(8) 0.1813(4) 0.4356(11)
H8_2 H 0.8232 0.1496 0.4021
H9_2 H 0.9428 0.1734 0.5310
C8_2 C 0.9511(14) 0.1747(7) 0.3648(18)
H10_2 H 0.9879 0.1336 0.3825
H11_2 H 0.8948 0.1796 0.2696
Ag3_2 Ag 0.57299(6) 0.19995(3) 0.17752(6)
Ag4_3 Ag 0.35039(6) 0.06250(3) 0.05950(6)
C2_3 C 0.3284(8) 0.0003(4) 0.7955(9)
H1_3 H 0.3038 0.0391 0.7516
N7_3 N 0.3423(6) 0.0098(3) 0.4156(7)
N4_4 N 0.6106(6) 0.7936(3) 0.0000(7)
N5_2 N 0.6872(6) 0.8441(3) 0.0518(7)
N6_3 N 0.7802(6) 0.7615(3) 0.1853(7)
C3_3 C 0.4112(9) 0.8946(5) 0.0639(9)
H2_3 H 0.4835 0.8699 0.0917
H3_3 H 0.4310 0.9248 0.1352
C4_3 C 0.3178(12) 0.8522(7) 0.0518(12)
H4_3 H 0.3462 0.8320 0.1369
H6_3 H 0.2459 0.8760 0.0259
C5_3 C 0.6683(7) 0.7451(4) 0.0819(8)
C6_3 C 0.7863(8) 0.8230(4) 0.1605(9)
H7_3 H 0.8537 0.8482 0.2147
C7_3 C 0.6134(8) 0.6813(4) 0.0644(11)
H8_3 H 0.6768 0.6496 0.0979
C8_3 C 0.5489(14) 0.6747(7) 0.1352(18)
H10_3 H 0.5121 0.6336 0.1175
H11_3 H 0.6052 0.6796 0.2304
H12_3 H 0.4873 0.7066 0.1040
Ag3_3 Ag 0.92701(6) 0.69995(3) 0.32248(6)
Ag1_3 Ag 0.42701(6) 0.80005(3) 0.82248(6)
Ag2_2 Ag 0.35039(6) 0.93750(3) 0.55950(6)
N1_3 N 0.3868(6) 0.9048(3) 0.8392(6)
N2_3 N 0.3520(6) 0.9519(3) 0.7447(7)
N3_3 N 0.3423(6) 0.9902(3) 0.9156(7)
N4_5 N 0.6106(6) 0.7936(3) 1.0000(7)
C1_3 C 0.3797(7) 0.9307(4) 0.9393(8)
H5_3 H 0.2998 0.8207 0.9846
H9_3 H 0.5572 0.6734 0.9690
Ag5_2 Ag 0.64961(6) 0.93750(3) 0.94050(6)
N8_2 N 0.3128(6) 0.8441(3) 0.4482(7)
N9_3 N 0.2802(6) 0.7385(3) 0.6853(7)
N7_4 N 0.6577(6) 0.0098(3) 0.0844(7)
C2_4 C 0.6716(8) 0.0003(4) 0.7045(9)
H1_4 H 0.6962 0.0391 0.7484
Ag4_4 Ag 0.64961(6) 0.06250(3) 0.44050(6)
Ag1_4 Ag 0.57299(6) 0.80005(3) 0.67752(6)
N1_4 N 0.6132(6) 0.9048(3) 0.6608(6)
N2_4 N 0.6480(6) 0.9519(3) 0.7553(7)
N3_4 N 0.6577(6) 0.9902(3) 0.5844(7)
N4_6 N 0.3894(6) 0.7936(3) 0.5000(7)
N6_4 N 0.2198(6) 0.7615(3) 0.3147(7)
C1_4 C 0.6203(7) 0.9307(4) 0.5607(8)
C3_4 C 0.5888(9) 0.8946(5) 0.4361(9)
H2_4 H 0.5165 0.8699 0.4083
H3_4 H 0.5690 0.9248 0.3648
C4_4 C 0.6822(12) 0.8522(7) 0.4482(12)
H4_4 H 0.6538 0.8320 0.3631
H5_4 H 0.7002 0.8207 0.5154
H6_4 H 0.7541 0.8760 0.4741
C5_4 C 0.3317(7) 0.7451(4) 0.4181(8)
C6_4 C 0.2137(8) 0.8230(4) 0.3395(9)
H7_4 H 0.1463 0.8482 0.2853
C7_4 C 0.3866(8) 0.6813(4) 0.4356(11)
H8_4 H 0.3232 0.6496 0.4021
H9_4 H 0.4428 0.6734 0.5310
C8_4 C 0.4511(14) 0.6747(7) 0.3648(18)
H10_4 H 0.4879 0.6336 0.3825
H11_4 H 0.3948 0.6796 0.2696
H12_4 H 0.5127 0.7066 0.3960
Ag3_4 Ag 0.07299(6) 0.69995(3) 0.17752(6)
N9_4 N 0.7198(6) 0.7385(3) 0.8147(7)
N1_5 N 0.1132(6) 0.5952(3) 0.1608(6)
N2_5 N 0.1480(6) 0.5481(3) 0.2553(7)
C1_5 C 0.1203(7) 0.5693(4) 0.0607(8)
C2_5 C 0.1716(8) 0.4997(4) 0.2045(9)
H1_5 H 0.1962 0.4609 0.2484
H5_5 H 0.2002 0.6793 0.0154
N8_3 N 0.1872(6) 0.6559(3) 0.5518(7)
C3_5 C 0.0888(9) 0.6054(5) 0.9361(9)
H2_5 H 0.0165 0.6301 0.9083
H3_5 H 0.0690 0.5752 0.8648
C4_5 C 0.1822(12) 0.6478(7) 0.9482(12)
H4_5 H 0.1538 0.6680 0.8631
H6_5 H 0.2541 0.6240 0.9741
H12_5 H 0.0127 0.7934 0.8960
N4_7 N 0.8894(6) 0.7064(3) 0.0000(7)
H9_5 H 0.9428 0.8266 0.0310
N4_8 N 0.8894(6) 0.7064(3) 1.0000(7)
N5_3 N 0.8128(6) 0.6559(3) 0.9482(7)
C5_5 C 0.8317(7) 0.7549(4) 0.9181(8)
C6_5 C 0.7137(8) 0.6770(4) 0.8395(9)
H7_5 H 0.6463 0.6518 0.7853
C7_5 C 0.8866(8) 0.8187(4) 0.9356(11)
H8_5 H 0.8232 0.8504 0.9021
C8_5 C 0.9511(14) 0.8253(7) 0.8648(18)
H10_5 H 0.9879 0.8664 0.8825
H11_5 H 0.8948 0.8204 0.7696
N4_9 N 0.1106(6) 0.7064(3) 0.5000(7)
C5_6 C 0.1683(7) 0.7549(4) 0.5819(8)
C6_6 C 0.2863(8) 0.6770(4) 0.6605(9)
H7_6 H 0.3537 0.6518 0.7147
C7_6 C 0.1134(8) 0.8187(4) 0.5644(11)
H8_6 H 0.1768 0.8504 0.5979
H9_6 H 0.0572 0.8266 0.4690
C8_6 C 0.0489(14) 0.8253(7) 0.6352(18)
H10_6 H 0.0121 0.8664 0.6175
H11_6 H 0.1052 0.8204 0.7304
N1_6 N 0.8868(6) 0.5952(3) 0.3392(6)
N2_6 N 0.8520(6) 0.5481(3) 0.2447(7)
C1_6 C 0.8797(7) 0.5693(4) 0.4393(8)
C2_6 C 0.8284(8) 0.4997(4) 0.2955(9)
H1_6 H 0.8038 0.4609 0.2516
C3_6 C 0.9112(9) 0.6054(5) 0.5639(9)
H2_6 H 0.9835 0.6301 0.5917
H3_6 H 0.9310 0.5752 0.6352
C4_6 C 0.8178(12) 0.6478(7) 0.5518(12)
H4_6 H 0.8462 0.6680 0.6369
H5_6 H 0.7998 0.6793 0.4846
H6_6 H 0.7459 0.6240 0.5259
H12_6 H 0.9873 0.7934 0.6040
N1_7 N 0.6132(6) 0.0952(3) 0.1608(6)
N2_7 N 0.6480(6) 0.0481(3) 0.2553(7)
N4_10 N 0.3894(6) 0.2064(3) 0.0000(7)
C1_7 C 0.6203(7) 0.0693(4) 0.0607(8)
H5_7 H 0.7002 0.1793 0.0154
H9_7 H 0.4428 0.3266 0.0310
N8_4 N 0.6872(6) 0.1559(3) 0.5518(7)
N4_11 N 0.3894(6) 0.2064(3) 1.0000(7)
N5_4 N 0.3128(6) 0.1559(3) 0.9482(7)
C3_7 C 0.5888(9) 0.1054(5) 0.9361(9)
H2_7 H 0.5165 0.1301 0.9083
H3_7 H 0.5690 0.0752 0.8648
C4_7 C 0.6822(12) 0.1478(7) 0.9482(12)
H4_7 H 0.6538 0.1680 0.8631
H6_7 H 0.7541 0.1240 0.9741
C5_7 C 0.3317(7) 0.2549(4) 0.9181(8)
C6_7 C 0.2137(8) 0.1770(4) 0.8395(9)
H7_7 H 0.1463 0.1518 0.7853
C7_7 C 0.3866(8) 0.3187(4) 0.9356(11)
H8_7 H 0.3232 0.3504 0.9021
C8_7 C 0.4511(14) 0.3253(7) 0.8648(18)
H10_7 H 0.4879 0.3664 0.8825
H11_7 H 0.3948 0.3204 0.7696
H12_7 H 0.5127 0.2934 0.8960
C2_7 C 0.6716(8) 0.9997(4) 0.2045(9)
H1_7 H 0.6962 0.9609 0.2484
N1_8 N 0.3868(6) 0.0952(3) 0.3392(6)
N2_8 N 0.3520(6) 0.0481(3) 0.2447(7)
N4_12 N 0.6106(6) 0.2064(3) 0.5000(7)
C1_8 C 0.3797(7) 0.0693(4) 0.4393(8)
C3_8 C 0.4112(9) 0.1054(5) 0.5639(9)
H2_8 H 0.4835 0.1301 0.5917
H3_8 H 0.4310 0.0752 0.6352
C4_8 C 0.3178(12) 0.1478(7) 0.5518(12)
H4_8 H 0.3462 0.1680 0.6369
H5_8 H 0.2998 0.1793 0.4846
H6_8 H 0.2459 0.1240 0.5259
C5_8 C 0.6683(7) 0.2549(4) 0.5819(8)
C6_8 C 0.7863(8) 0.1770(4) 0.6605(9)
H7_8 H 0.8537 0.1518 0.7147
C7_8 C 0.6134(8) 0.3187(4) 0.5644(11)
H8_8 H 0.6768 0.3504 0.5979
H9_8 H 0.5572 0.3266 0.4690
C8_8 C 0.5489(14) 0.3253(7) 0.6352(18)
H10_8 H 0.5121 0.3664 0.6175
H11_8 H 0.6052 0.3204 0.7304
H12_8 H 0.4873 0.2934 0.6040
C2_8 C 0.3284(8) 0.9997(4) 0.2955(9)
H1_8 H 0.3038 0.9609 0.2516
loop_
_geom_bond_atom_site_label_1
_geom_bond_atom_site_label_2
_geom_bond_site_symmetry_1
_geom_bond_site_symmetry_2
N5 N4 1_555 1_555
N6 C5 1_555 1_555
C5 N4 1_555 1_555
C6 N5 1_555 1_555
H7 C6 1_555 1_555
C7 C5 1_555 1_555
H8 C7 1_555 1_555
C8 C7 1_555 1_555
H10 C8 1_555 1_555
H11 C8 1_555 1_555
Ag3 N6 1_555 1_555
N6 C6 1_555 1_555
H2 C3 1_555 1_555
H3 C3 1_555 1_555
C4 C3 1_555 1_555
H4 C4 1_555 1_555
H6 C4 1_555 1_555
Ag1 N1 1_555 1_555
Ag2 N2 1_555 1_555
N1 N2 1_555 1_555
N2 C2 1_555 1_555
N3 C1 1_555 1_555
C1 N1 1_555 1_555
C2 N3 1_555 1_555
H1 C2 1_555 1_555
N7 Ag2 1_555 1_555
N8 Ag2 1_555 1_555
N9 Ag1 1_555 1_555
Ag1_2 N1_2 1_555 1_555
Ag5 N2_2 1_555 1_555
N1_2 N2_2 1_555 1_555
N2_2 C2_2 1_555 1_555
N3_2 C1_2 1_555 1_555
C1_2 N1_2 1_555 1_555
C2_2 N3_2 1_555 1_555
H1_2 C2_2 1_555 1_555
C3_2 C1_2 1_555 1_555
H2_2 C3_2 1_555 1_555
H3_2 C3_2 1_555 1_555
C4_2 C3_2 1_555 1_555
H4_2 C4_2 1_555 1_555
H5_2 C4_2 1_555 1_555
H6_2 C4_2 1_555 1_555
Ag4_2 N3_2 1_555 1_555
N9_2 Ag1_2 1_555 1_555
N8 N4_3 1_555 1_555
N6_2 C5_2 1_555 1_555
C5_2 N4_3 1_555 1_555
C6_2 N8 1_555 1_555
H7_2 C6_2 1_555 1_555
C7_2 C5_2 1_555 1_555
H8_2 C7_2 1_555 1_555
H9_2 C7_2 1_555 1_555
C8_2 C7_2 1_555 1_555
H10_2 C8_2 1_555 1_555
H11_2 C8_2 1_555 1_555
Ag3_2 N6_2 1_555 1_555
N6_2 C6_2 1_555 1_555
H1_3 C2_3 1_555 1_555
N5_2 N4_4 1_555 1_555
N6_3 C5_3 1_555 1_555
H2_3 C3_3 1_555 1_555
H3_3 C3_3 1_555 1_555
C4_3 C3_3 1_555 1_555
H4_3 C4_3 1_555 1_555
H6_3 C4_3 1_555 1_555
C5_3 N4_4 1_555 1_555
C6_3 N5_2 1_555 1_555
H7_3 C6_3 1_555 1_555
C7_3 C5_3 1_555 1_555
H8_3 C7_3 1_555 1_555
C8_3 C7_3 1_555 1_555
H10_3 C8_3 1_555 1_555
H11_3 C8_3 1_555 1_555
H12_3 C8_3 1_555 1_555
Ag3_3 N6_3 1_555 1_555
N6_3 C6_3 1_555 1_555
Ag1_3 N1_3 1_555 1_555
Ag2_2 N2_3 1_555 1_555
N1_3 N2_3 1_555 1_555
N3_3 C1_3 1_555 1_555
N4_5 Ag1_3 1_555 1_555
C1_3 N1_3 1_555 1_555
N8_2 Ag2_2 1_555 1_555
N9_3 Ag1_3 1_555 1_555
H1_4 C2_4 1_555 1_555
Ag1_4 N1_4 1_555 1_555
Ag5_2 N2_4 1_555 1_555
N1_4 N2_4 1_555 1_555
N3_4 C1_4 1_555 1_555
N4_6 Ag1_4 1_555 1_555
N8_2 N4_6 1_555 1_555
N6_4 C5_4 1_555 1_555
C1_4 N1_4 1_555 1_555
C3_4 C1_4 1_555 1_555
H2_4 C3_4 1_555 1_555
H3_4 C3_4 1_555 1_555
C4_4 C3_4 1_555 1_555
H4_4 C4_4 1_555 1_555
H5_4 C4_4 1_555 1_555
H6_4 C4_4 1_555 1_555
C5_4 N4_6 1_555 1_555
C6_4 N8_2 1_555 1_555
H7_4 C6_4 1_555 1_555
C7_4 C5_4 1_555 1_555
H8_4 C7_4 1_555 1_555
H9_4 C7_4 1_555 1_555
C8_4 C7_4 1_555 1_555
H10_4 C8_4 1_555 1_555
H11_4 C8_4 1_555 1_555
H12_4 C8_4 1_555 1_555
Ag3_4 N6_4 1_555 1_555
N9_4 Ag1_4 1_555 1_555
N6_4 C6_4 1_555 1_555
Ag3_4 N1_5 1_555 1_555
Ag4_2 N2_5 1_555 1_555
N1_5 N2_5 1_555 1_555
N2_5 C2_5 1_555 1_555
N7_2 C1_5 1_555 1_555
C1_5 N1_5 1_555 1_555
C2_5 N7_2 1_555 1_555
H1_5 C2_5 1_555 1_555
N8_3 Ag4_2 1_555 1_555
H2_5 C3_5 1_555 1_555
H3_5 C3_5 1_555 1_555
C4_5 C3_5 1_555 1_555
H4_5 C4_5 1_555 1_555
H6_5 C4_5 1_555 1_555
N5_3 N4_8 1_555 1_555
N9_4 C5_5 1_555 1_555
C5_5 N4_8 1_555 1_555
C6_5 N5_3 1_555 1_555
H7_5 C6_5 1_555 1_555
C7_5 C5_5 1_555 1_555
H8_5 C7_5 1_555 1_555
C8_5 C7_5 1_555 1_555
H10_5 C8_5 1_555 1_555
H11_5 C8_5 1_555 1_555
N9_4 C6_5 1_555 1_555
N8_3 N4_9 1_555 1_555
N9_3 C5_6 1_555 1_555
C5_6 N4_9 1_555 1_555
C6_6 N8_3 1_555 1_555
H7_6 C6_6 1_555 1_555
C7_6 C5_6 1_555 1_555
H8_6 C7_6 1_555 1_555
H9_6 C7_6 1_555 1_555
C8_6 C7_6 1_555 1_555
H10_6 C8_6 1_555 1_555
H11_6 C8_6 1_555 1_555
N9_3 C6_6 1_555 1_555
Ag3_3 N1_6 1_555 1_555
Ag4 N2_6 1_555 1_555
N1_6 N2_6 1_555 1_555
N2_6 C2_6 1_555 1_555
N7 C1_6 1_555 1_555
C1_6 N1_6 1_555 1_555
C2_6 N7 1_555 1_555
H1_6 C2_6 1_555 1_555
C3_6 C1_6 1_555 1_555
H2_6 C3_6 1_555 1_555
H3_6 C3_6 1_555 1_555
C4_6 C3_6 1_555 1_555
H4_6 C4_6 1_555 1_555
H5_6 C4_6 1_555 1_555
H6_6 C4_6 1_555 1_555
Ag3_2 N1_7 1_555 1_555
Ag4_4 N2_7 1_555 1_555
N1_7 N2_7 1_555 1_555
N7_4 C1_7 1_555 1_555
N4_10 Ag3_2 1_555 1_555
C1_7 N1_7 1_555 1_555
N8_4 Ag4_4 1_555 1_555
N5_4 N4_11 1_555 1_555
N9_2 C5_7 1_555 1_555
H2_7 C3_7 1_555 1_555
H3_7 C3_7 1_555 1_555
C4_7 C3_7 1_555 1_555
H4_7 C4_7 1_555 1_555
H6_7 C4_7 1_555 1_555
C5_7 N4_11 1_555 1_555
C6_7 N5_4 1_555 1_555
H7_7 C6_7 1_555 1_555
C7_7 C5_7 1_555 1_555
H8_7 C7_7 1_555 1_555
C8_7 C7_7 1_555 1_555
H10_7 C8_7 1_555 1_555
H11_7 C8_7 1_555 1_555
H12_7 C8_7 1_555 1_555
N9_2 C6_7 1_555 1_555
H1_7 C2_7 1_555 1_555
Ag3 N1_8 1_555 1_555
Ag4_3 N2_8 1_555 1_555
N1_8 N2_8 1_555 1_555
N7_3 C1_8 1_555 1_555
N4_12 Ag3 1_555 1_555
N8_4 N4_12 1_555 1_555
N9 C5_8 1_555 1_555
C1_8 N1_8 1_555 1_555
C3_8 C1_8 1_555 1_555
H2_8 C3_8 1_555 1_555
H3_8 C3_8 1_555 1_555
C4_8 C3_8 1_555 1_555
H4_8 C4_8 1_555 1_555
H5_8 C4_8 1_555 1_555
H6_8 C4_8 1_555 1_555
C5_8 N4_12 1_555 1_555
C6_8 N8_4 1_555 1_555
H7_8 C6_8 1_555 1_555
C7_8 C5_8 1_555 1_555
H8_8 C7_8 1_555 1_555
H9_8 C7_8 1_555 1_555
C8_8 C7_8 1_555 1_555
H10_8 C8_8 1_555 1_555
H11_8 C8_8 1_555 1_555
H12_8 C8_8 1_555 1_555
N9 C6_8 1_555 1_555
H1_8 C2_8 1_555 1_555

#END
