
###############################################################################
#
# This file contains modified crystal structure data generated from the
# MOF subset of the Cambridge Structural Database (CSD) v543 
# hosted by the Cambridge Crystallographic Data Centre (CCDC).
#
# This work is licensed under the Creative Commons
# Attribution-NonCommercial-ShareAlike 4.0 International License.
# To view a copy of this license, visit
# http://creativecommons.org/licenses/by-nc-sa/4.0/
# or send a letter to
# Creative Commons, PO Box 1866, Mountain View, CA 94042, USA.
#
# CIF created using the CSD Python API on 29 September 2022
# The structure has been converted into the P1 space group
# The structure has a 3D framework
# The original CSD entry OSIXEU is in the monoclinic crystal system
# The framework has been calculated to contain at least 10.0% void space
# The void calculation uses a probe of radius 1.32A, grid spacing 0.4
#
###############################################################################

data_OSIXEU
_chemical_formula_moiety         '(C64 H96 Ag10 N48)n'
_symmetry_cell_setting           triclinic
_symmetry_space_group_name_H-M   'P 1'
_symmetry_Int_Tables_number      1
_space_group_name_Hall           'P 1'
loop_
_symmetry_equiv_pos_site_id
_symmetry_equiv_pos_as_xyz
1 x,y,z
_cell_length_a                   12.9651(8)
_cell_length_b                   21.4537(14)
_cell_length_c                   11.7302(7)
_cell_angle_alpha                90
_cell_angle_beta                 122.6320(10)
_cell_angle_gamma                90
_cell_volume                     2747.73
loop_
_atom_site_label
_atom_site_type_symbol
_atom_site_fract_x
_atom_site_fract_y
_atom_site_fract_z
N4 N 0.1146(3) 0.29511(14) 0.0062(3)
N5 N 0.1938(3) 0.34492(14) 0.0621(3)
N6 N 0.2838(3) 0.26110(14) 0.1899(3)
C5 C 0.1711(3) 0.24651(16) 0.0842(3)
C6 C 0.2918(3) 0.32254(18) 0.1702(4)
H7 H 0.3604 0.3466 0.2278
C7 C 0.1135(4) 0.18360(19) 0.0589(5)
H8 H 0.1766 0.1520 0.0898
C8 C 0.0473(7) 0.1747(3) 0.1285(9)
H10 H 0.0120 0.1337 0.1092
H11 H 0.1035 0.1792 0.2244
Ag4 Ag 0.42863(2) 0.196937(13) 0.32317(3)
H9 H 0.0567 0.1780 0.9623
Ag7 Ag 0.15777(3) 0.437340(13) 0.95265(3)
C3 C 0.9141(4) 0.3977(2) 0.0603(4)
H2 H 0.9846 0.3716 0.0868
H3 H 0.9380 0.4279 0.1319
C4 C 0.8141(6) 0.3581(3) 0.0480(6)
H4 H 0.8423 0.3378 0.1328
H6 H 0.7445 0.3836 0.0242
H12 H 0.9836 0.2053 0.0969
Ag6 Ag 0.84223(3) 0.562660(13) 0.04735(3)
N10 N 0.8465(3) 0.54903(14) 0.2353(3)
Ag1 Ag 0.92863(2) 0.303063(13) 0.82317(3)
Ag2 Ag 0.84223(3) 0.437340(13) 0.54735(3)
N1 N 0.8869(3) 0.40609(13) 0.8345(3)
N2 N 0.8465(3) 0.45097(14) 0.7353(3)
N3 N 0.8379(3) 0.49044(14) 0.9056(3)
C1 C 0.8805(3) 0.43170(16) 0.9338(3)
C2 C 0.8191(4) 0.49939(17) 0.7821(4)
H1 H 0.7895 0.5366 0.7344
H5 H 0.7912 0.3272 0.9790
Ag5 Ag 0.92863(2) 0.696937(13) 0.32317(3)
Ag8 Ag 0.65777(3) 0.062660(13) 0.45265(3)
N7 N 0.8869(3) 0.59391(13) 0.3345(3)
N8 N 0.3869(3) 0.09391(13) 0.3345(3)
N11 N 0.8379(3) 0.50956(14) 0.4056(3)
N12 N 0.6146(3) 0.20489(14) 0.5062(3)
N13 N 0.6938(3) 0.15508(14) 0.5621(3)
N14 N 0.8062(3) 0.34492(14) 0.4379(3)
N15 N 0.8062(3) 0.65508(14) 0.9379(3)
N16 N 0.7838(3) 0.23890(14) 0.6899(3)
C9 C 0.8805(3) 0.56830(16) 0.4338(3)
C10 C 0.8191(4) 0.50061(17) 0.2821(4)
H13 H 0.7895 0.4634 0.2344
C11 C 0.9141(4) 0.6023(2) 0.5603(4)
H14 H 0.9846 0.6284 0.5868
H15 H 0.9380 0.5721 0.6319
C12 C 0.8141(6) 0.6419(3) 0.5480(6)
H16 H 0.8423 0.6622 0.6328
H17 H 0.7912 0.6728 0.4790
H18 H 0.7445 0.6164 0.5242
C13 C 0.6711(3) 0.25349(16) 0.5842(3)
C14 C 0.7918(3) 0.17746(18) 0.6702(4)
H19 H 0.8604 0.1534 0.7278
C15 C 0.6135(4) 0.31640(19) 0.5589(5)
H20 H 0.6766 0.3480 0.5898
H21 H 0.5567 0.3220 0.4623
C16 C 0.5473(7) 0.3253(3) 0.6285(9)
H22 H 0.5120 0.3663 0.6092
H23 H 0.6035 0.3208 0.7244
H24 H 0.4836 0.2947 0.5969
Ag3 Ag 0.57137(2) 0.196937(13) 0.17683(3)
Ag5_2 Ag 0.07137(2) 0.696937(13) 0.17683(3)
Ag8_2 Ag 0.34223(3) 0.062660(13) 0.04735(3)
Ag9 Ag 0.15777(3) 0.562660(13) 0.45265(3)
N7_2 N 0.1131(3) 0.59391(13) 0.1655(3)
N8_2 N 0.6131(3) 0.09391(13) 0.1655(3)
N9 N 0.1535(3) 0.54903(14) 0.2647(3)
N11_2 N 0.1621(3) 0.50956(14) 0.0944(3)
N17 N 0.7162(3) 0.26110(14) 0.3101(3)
C9_2 C 0.1195(3) 0.56830(16) 0.0662(3)
C10_2 C 0.1809(4) 0.50061(17) 0.2179(4)
H13_2 H 0.2105 0.4634 0.2656
H17_2 H 0.2088 0.6728 0.0210
H21_2 H 0.4433 0.3220 0.0377
Ag1_2 Ag 0.07137(2) 0.303063(13) 0.67683(3)
N1_2 N 0.1131(3) 0.40609(13) 0.6655(3)
N2_2 N 0.1535(3) 0.45097(14) 0.7647(3)
N3_2 N 0.1621(3) 0.49044(14) 0.5944(3)
C1_2 C 0.1195(3) 0.43170(16) 0.5662(3)
C2_2 C 0.1809(4) 0.49939(17) 0.7179(4)
H1_2 H 0.2105 0.5366 0.7656
C3_2 C 0.0859(4) 0.3977(2) 0.4397(4)
H2_2 H 0.0154 0.3716 0.4132
H3_2 H 0.0620 0.4279 0.3681
C4_2 C 0.1859(6) 0.3581(3) 0.4520(6)
H4_2 H 0.1577 0.3378 0.3672
H5_2 H 0.2088 0.3272 0.5210
H6_2 H 0.2555 0.3836 0.4758
H12_2 H 0.0164 0.2053 0.4031
N12_2 N 0.3854(3) 0.20489(14) 0.9938(3)
N13_2 N 0.3062(3) 0.15508(14) 0.9379(3)
N15_2 N 0.1938(3) 0.65508(14) 0.5621(3)
N16_2 N 0.2162(3) 0.23890(14) 0.8101(3)
C11_2 C 0.0859(4) 0.6023(2) 0.9397(4)
H14_2 H 0.0154 0.6284 0.9132
H15_2 H 0.0620 0.5721 0.8681
C12_2 C 0.1859(6) 0.6419(3) 0.9520(6)
H16_2 H 0.1577 0.6622 0.8672
H18_2 H 0.2555 0.6164 0.9758
C13_2 C 0.3289(3) 0.25349(16) 0.9158(3)
C14_2 C 0.2082(3) 0.17746(18) 0.8298(4)
H19_2 H 0.1396 0.1534 0.7722
C15_2 C 0.3865(4) 0.31640(19) 0.9411(5)
H20_2 H 0.3234 0.3480 0.9102
C16_2 C 0.4527(7) 0.3253(3) 0.8715(9)
H22_2 H 0.4880 0.3663 0.8908
H23_2 H 0.3965 0.3208 0.7756
H24_2 H 0.5164 0.2947 0.9031
N4_2 N 0.8854(3) 0.29511(14) 0.4938(3)
C5_2 C 0.8289(3) 0.24651(16) 0.4158(3)
C6_2 C 0.7082(3) 0.32254(18) 0.3298(4)
H7_2 H 0.6396 0.3466 0.2722
C7_2 C 0.8865(4) 0.18360(19) 0.4411(5)
H8_2 H 0.8234 0.1520 0.4102
H9_2 H 0.9433 0.1780 0.5377
C8_2 C 0.9527(7) 0.1747(3) 0.3715(9)
H10_2 H 0.9880 0.1337 0.3908
H11_2 H 0.8965 0.1792 0.2756
N10_2 N 0.3465(3) 0.04903(14) 0.2353(3)
H1_3 H 0.2895 0.0366 0.7344
N11_3 N 0.3379(3) 0.00956(14) 0.4056(3)
C9_3 C 0.3805(3) 0.06830(16) 0.4338(3)
C10_3 C 0.3191(4) 0.00061(17) 0.2821(4)
C11_3 C 0.4141(4) 0.1023(2) 0.5603(4)
H14_3 H 0.4846 0.1284 0.5868
H15_3 H 0.4380 0.0721 0.6319
C12_3 C 0.3141(6) 0.1419(3) 0.5480(6)
H16_3 H 0.3423 0.1622 0.6328
H17_3 H 0.2912 0.1728 0.4790
H18_3 H 0.2445 0.1164 0.5242
N4_3 N 0.6146(3) 0.79511(14) 0.0062(3)
N5_2 N 0.6938(3) 0.84492(14) 0.0621(3)
N6_2 N 0.7838(3) 0.76110(14) 0.1899(3)
C3_3 C 0.4141(4) 0.8977(2) 0.0603(4)
H2_3 H 0.4846 0.8716 0.0868
H3_3 H 0.4380 0.9279 0.1319
C4_3 C 0.3141(6) 0.8581(3) 0.0480(6)
H4_3 H 0.3423 0.8378 0.1328
H6_3 H 0.2445 0.8836 0.0242
C5_3 C 0.6711(3) 0.74651(16) 0.0842(3)
C6_3 C 0.7918(3) 0.82254(18) 0.1702(4)
H7_3 H 0.8604 0.8466 0.2278
C7_3 C 0.6135(4) 0.68360(19) 0.0589(5)
H8_3 H 0.6766 0.6520 0.0898
C8_3 C 0.5473(7) 0.6747(3) 0.1285(9)
H10_3 H 0.5120 0.6337 0.1092
H11_3 H 0.6035 0.6792 0.2244
H12_3 H 0.4836 0.7053 0.0969
Ag1_3 Ag 0.42863(2) 0.803063(13) 0.82317(3)
Ag2_2 Ag 0.34223(3) 0.937340(13) 0.54735(3)
N1_3 N 0.3869(3) 0.90609(13) 0.8345(3)
N2_3 N 0.3465(3) 0.95097(14) 0.7353(3)
N3_3 N 0.3379(3) 0.99044(14) 0.9056(3)
C1_3 C 0.3805(3) 0.93170(16) 0.9338(3)
C2_3 C 0.3191(4) 0.99939(17) 0.7821(4)
H5_3 H 0.2912 0.8272 0.9790
H9_3 H 0.5567 0.6780 0.9623
Ag7_2 Ag 0.65777(3) 0.937340(13) 0.95265(3)
N12_3 N 0.1146(3) 0.70489(14) 0.5062(3)
N14_2 N 0.3062(3) 0.84492(14) 0.4379(3)
N16_3 N 0.2838(3) 0.73890(14) 0.6899(3)
H13_3 H 0.2895 0.9634 0.2344
C13_3 C 0.1711(3) 0.75349(16) 0.5842(3)
C14_3 C 0.2918(3) 0.67746(18) 0.6702(4)
H19_3 H 0.3604 0.6534 0.7278
C15_3 C 0.1135(4) 0.81640(19) 0.5589(5)
H20_3 H 0.1766 0.8480 0.5898
H21_3 H 0.0567 0.8220 0.4623
C16_3 C 0.0473(7) 0.8253(3) 0.6285(9)
H22_3 H 0.0120 0.8663 0.6092
H23_3 H 0.1035 0.8208 0.7244
H24_3 H 0.9836 0.7947 0.5969
N17_2 N 0.2162(3) 0.76110(14) 0.3101(3)
H24_4 H 0.0164 0.7947 0.9031
N9_2 N 0.6535(3) 0.04903(14) 0.2647(3)
N11_4 N 0.6621(3) 0.00956(14) 0.0944(3)
C9_4 C 0.6195(3) 0.06830(16) 0.0662(3)
C10_4 C 0.6809(4) 0.00061(17) 0.2179(4)
H17_4 H 0.7088 0.1728 0.0210
H1_4 H 0.7105 0.0366 0.7656
C11_4 C 0.5859(4) 0.1023(2) 0.9397(4)
H14_4 H 0.5154 0.1284 0.9132
H15_4 H 0.5620 0.0721 0.8681
C12_4 C 0.6859(6) 0.1419(3) 0.9520(6)
H16_4 H 0.6577 0.1622 0.8672
H18_4 H 0.7555 0.1164 0.9758
H13_4 H 0.7105 0.9634 0.2656
H21_4 H 0.9433 0.8220 0.0377
Ag1_4 Ag 0.57137(2) 0.803063(13) 0.67683(3)
N1_4 N 0.6131(3) 0.90609(13) 0.6655(3)
N2_4 N 0.6535(3) 0.95097(14) 0.7647(3)
N3_4 N 0.6621(3) 0.99044(14) 0.5944(3)
N4_4 N 0.3854(3) 0.79511(14) 0.4938(3)
C1_4 C 0.6195(3) 0.93170(16) 0.5662(3)
C2_4 C 0.6809(4) 0.99939(17) 0.7179(4)
C3_4 C 0.5859(4) 0.8977(2) 0.4397(4)
H2_4 H 0.5154 0.8716 0.4132
H3_4 H 0.5620 0.9279 0.3681
C4_4 C 0.6859(6) 0.8581(3) 0.4520(6)
H4_4 H 0.6577 0.8378 0.3672
H5_4 H 0.7088 0.8272 0.5210
H6_4 H 0.7555 0.8836 0.4758
C5_4 C 0.3289(3) 0.74651(16) 0.4158(3)
C6_4 C 0.2082(3) 0.82254(18) 0.3298(4)
H7_4 H 0.1396 0.8466 0.2722
C7_4 C 0.3865(4) 0.68360(19) 0.4411(5)
H8_4 H 0.3234 0.6520 0.4102
H9_4 H 0.4433 0.6780 0.5377
C8_4 C 0.4527(7) 0.6747(3) 0.3715(9)
H10_4 H 0.4880 0.6337 0.3908
H11_4 H 0.3965 0.6792 0.2756
H12_4 H 0.5164 0.7053 0.4031
N12_4 N 0.8854(3) 0.70489(14) 0.9938(3)
N16_4 N 0.7162(3) 0.73890(14) 0.8101(3)
C13_4 C 0.8289(3) 0.75349(16) 0.9158(3)
C14_4 C 0.7082(3) 0.67746(18) 0.8298(4)
H19_4 H 0.6396 0.6534 0.7722
C15_4 C 0.8865(4) 0.81640(19) 0.9411(5)
H20_4 H 0.8234 0.8480 0.9102
C16_4 C 0.9527(7) 0.8253(3) 0.8715(9)
H22_4 H 0.9880 0.8663 0.8908
H23_4 H 0.8965 0.8208 0.7756
loop_
_geom_bond_atom_site_label_1
_geom_bond_atom_site_label_2
_geom_bond_site_symmetry_1
_geom_bond_site_symmetry_2
N5 N4 1_555 1_555
N6 C5 1_555 1_555
C5 N4 1_555 1_555
C6 N5 1_555 1_555
H7 C6 1_555 1_555
C7 C5 1_555 1_555
H8 C7 1_555 1_555
C8 C7 1_555 1_555
H10 C8 1_555 1_555
H11 C8 1_555 1_555
Ag4 N6 1_555 1_555
N6 C6 1_555 1_555
H2 C3 1_555 1_555
H3 C3 1_555 1_555
C4 C3 1_555 1_555
H4 C4 1_555 1_555
H6 C4 1_555 1_555
N10 Ag6 1_555 1_555
Ag1 N1 1_555 1_555
Ag2 N2 1_555 1_555
N1 N2 1_555 1_555
N2 C2 1_555 1_555
N3 C1 1_555 1_555
C1 N1 1_555 1_555
C2 N3 1_555 1_555
H1 C2 1_555 1_555
Ag4 N8 1_555 1_555
Ag5 N7 1_555 1_555
Ag8 N13 1_555 1_555
N7 N10 1_555 1_555
N10 C10 1_555 1_555
N11 Ag2 1_555 1_555
N12 Ag4 1_555 1_555
N13 N12 1_555 1_555
N14 Ag2 1_555 1_555
N16 Ag1 1_555 1_555
C9 N7 1_555 1_555
C10 N11 1_555 1_555
H13 C10 1_555 1_555
C11 C9 1_555 1_555
H14 C11 1_555 1_555
H15 C11 1_555 1_555
C12 C11 1_555 1_555
H16 C12 1_555 1_555
H17 C12 1_555 1_555
H18 C12 1_555 1_555
C13 N12 1_555 1_555
C14 N13 1_555 1_555
H19 C14 1_555 1_555
C15 C13 1_555 1_555
H20 C15 1_555 1_555
H21 C15 1_555 1_555
C16 C15 1_555 1_555
H22 C16 1_555 1_555
H23 C16 1_555 1_555
H24 C16 1_555 1_555
N11 C9 1_555 1_555
N16 C13 1_555 1_555
N16 C14 1_555 1_555
Ag3 N8_2 1_555 1_555
Ag5_2 N7_2 1_555 1_555
Ag9 N9 1_555 1_555
N7_2 N9 1_555 1_555
N9 C10_2 1_555 1_555
N17 Ag3 1_555 1_555
C9_2 N7_2 1_555 1_555
C10_2 N11_2 1_555 1_555
H13_2 C10_2 1_555 1_555
N11_2 C9_2 1_555 1_555
Ag1_2 N1_2 1_555 1_555
Ag7 N2_2 1_555 1_555
N1_2 N2_2 1_555 1_555
N2_2 C2_2 1_555 1_555
N3_2 C1_2 1_555 1_555
C1_2 N1_2 1_555 1_555
C2_2 N3_2 1_555 1_555
H1_2 C2_2 1_555 1_555
C3_2 C1_2 1_555 1_555
H2_2 C3_2 1_555 1_555
H3_2 C3_2 1_555 1_555
C4_2 C3_2 1_555 1_555
H4_2 C4_2 1_555 1_555
H5_2 C4_2 1_555 1_555
H6_2 C4_2 1_555 1_555
Ag9 N3_2 1_555 1_555
N13_2 N12_2 1_555 1_555
N15_2 Ag9 1_555 1_555
N16_2 Ag1_2 1_555 1_555
H14_2 C11_2 1_555 1_555
H15_2 C11_2 1_555 1_555
C12_2 C11_2 1_555 1_555
H16_2 C12_2 1_555 1_555
H18_2 C12_2 1_555 1_555
C13_2 N12_2 1_555 1_555
C14_2 N13_2 1_555 1_555
H19_2 C14_2 1_555 1_555
C15_2 C13_2 1_555 1_555
H20_2 C15_2 1_555 1_555
C16_2 C15_2 1_555 1_555
H22_2 C16_2 1_555 1_555
H23_2 C16_2 1_555 1_555
H24_2 C16_2 1_555 1_555
N16_2 C13_2 1_555 1_555
N16_2 C14_2 1_555 1_555
N14 N4_2 1_555 1_555
N17 C5_2 1_555 1_555
C5_2 N4_2 1_555 1_555
C6_2 N14 1_555 1_555
H7_2 C6_2 1_555 1_555
C7_2 C5_2 1_555 1_555
H8_2 C7_2 1_555 1_555
H9_2 C7_2 1_555 1_555
C8_2 C7_2 1_555 1_555
H10_2 C8_2 1_555 1_555
H11_2 C8_2 1_555 1_555
N17 C6_2 1_555 1_555
N10_2 Ag8_2 1_555 1_555
N8 N10_2 1_555 1_555
N10_2 C10_3 1_555 1_555
C9_3 N8 1_555 1_555
C10_3 N11_3 1_555 1_555
C11_3 C9_3 1_555 1_555
H14_3 C11_3 1_555 1_555
H15_3 C11_3 1_555 1_555
C12_3 C11_3 1_555 1_555
H16_3 C12_3 1_555 1_555
H17_3 C12_3 1_555 1_555
H18_3 C12_3 1_555 1_555
N11_3 C9_3 1_555 1_555
N5_2 N4_3 1_555 1_555
N6_2 C5_3 1_555 1_555
H2_3 C3_3 1_555 1_555
H3_3 C3_3 1_555 1_555
C4_3 C3_3 1_555 1_555
H4_3 C4_3 1_555 1_555
H6_3 C4_3 1_555 1_555
C5_3 N4_3 1_555 1_555
C6_3 N5_2 1_555 1_555
H7_3 C6_3 1_555 1_555
C7_3 C5_3 1_555 1_555
H8_3 C7_3 1_555 1_555
C8_3 C7_3 1_555 1_555
H10_3 C8_3 1_555 1_555
H11_3 C8_3 1_555 1_555
H12_3 C8_3 1_555 1_555
Ag5 N6_2 1_555 1_555
N6_2 C6_3 1_555 1_555
Ag1_3 N1_3 1_555 1_555
Ag2_2 N2_3 1_555 1_555
N1_3 N2_3 1_555 1_555
N2_3 C2_3 1_555 1_555
N3_3 C1_3 1_555 1_555
C1_3 N1_3 1_555 1_555
C2_3 N3_3 1_555 1_555
N15_2 N12_3 1_555 1_555
N14_2 Ag2_2 1_555 1_555
N16_3 Ag1_3 1_555 1_555
C13_3 N12_3 1_555 1_555
C14_3 N15_2 1_555 1_555
H19_3 C14_3 1_555 1_555
C15_3 C13_3 1_555 1_555
H20_3 C15_3 1_555 1_555
H21_3 C15_3 1_555 1_555
C16_3 C15_3 1_555 1_555
H22_3 C16_3 1_555 1_555
H23_3 C16_3 1_555 1_555
N16_3 C13_3 1_555 1_555
N16_3 C14_3 1_555 1_555
N17_2 Ag5_2 1_555 1_555
Ag8 N9_2 1_555 1_555
N8_2 N9_2 1_555 1_555
N9_2 C10_4 1_555 1_555
C9_4 N8_2 1_555 1_555
C10_4 N11_4 1_555 1_555
N11_4 C9_4 1_555 1_555
H14_4 C11_4 1_555 1_555
H15_4 C11_4 1_555 1_555
C12_4 C11_4 1_555 1_555
H16_4 C12_4 1_555 1_555
H18_4 C12_4 1_555 1_555
Ag1_4 N1_4 1_555 1_555
Ag7_2 N2_4 1_555 1_555
N1_4 N2_4 1_555 1_555
N2_4 C2_4 1_555 1_555
N3_4 C1_4 1_555 1_555
N4_4 Ag1_4 1_555 1_555
N14_2 N4_4 1_555 1_555
N17_2 C5_4 1_555 1_555
C1_4 N1_4 1_555 1_555
C2_4 N3_4 1_555 1_555
C3_4 C1_4 1_555 1_555
H2_4 C3_4 1_555 1_555
H3_4 C3_4 1_555 1_555
C4_4 C3_4 1_555 1_555
H4_4 C4_4 1_555 1_555
H5_4 C4_4 1_555 1_555
H6_4 C4_4 1_555 1_555
C5_4 N4_4 1_555 1_555
C6_4 N14_2 1_555 1_555
H7_4 C6_4 1_555 1_555
C7_4 C5_4 1_555 1_555
H8_4 C7_4 1_555 1_555
H9_4 C7_4 1_555 1_555
C8_4 C7_4 1_555 1_555
H10_4 C8_4 1_555 1_555
H11_4 C8_4 1_555 1_555
H12_4 C8_4 1_555 1_555
N15 N12_4 1_555 1_555
N16_4 Ag1_4 1_555 1_555
C13_4 N12_4 1_555 1_555
C14_4 N15 1_555 1_555
H19_4 C14_4 1_555 1_555
C15_4 C13_4 1_555 1_555
H20_4 C15_4 1_555 1_555
C16_4 C15_4 1_555 1_555
H22_4 C16_4 1_555 1_555
H23_4 C16_4 1_555 1_555
N17_2 C6_4 1_555 1_555
N16_4 C13_4 1_555 1_555
N16_4 C14_4 1_555 1_555

#END
