
###############################################################################
#
# This file contains modified crystal structure data generated from the
# MOF subset of the Cambridge Structural Database (CSD) v543 
# hosted by the Cambridge Crystallographic Data Centre (CCDC).
#
# This work is licensed under the Creative Commons
# Attribution-NonCommercial-ShareAlike 4.0 International License.
# To view a copy of this license, visit
# http://creativecommons.org/licenses/by-nc-sa/4.0/
# or send a letter to
# Creative Commons, PO Box 1866, Mountain View, CA 94042, USA.
#
# CIF created using the CSD Python API on 29 September 2022
# The structure has been converted into the P1 space group
# The structure has a 3D framework
# The original CSD entry OSOHIQ is in the monoclinic crystal system
# The original CSD entry OSOHIQ is in a Sohncke space group
# The framework has been calculated to contain at least 10.0% void space
# The void calculation uses a probe of radius 1.32A, grid spacing 0.4
# H atom positions have been added when not included in the experimental data
#
###############################################################################

data_OSOHIQ
_chemical_formula_moiety         '(C92 H52 Co4 N8 O16)n'
_symmetry_cell_setting           triclinic
_symmetry_space_group_name_H-M   'P 1'
_symmetry_Int_Tables_number      1
_space_group_name_Hall           'P 1'
loop_
_symmetry_equiv_pos_site_id
_symmetry_equiv_pos_as_xyz
1 x,y,z
_cell_length_a                   19.3657(4)
_cell_length_b                   11.0379(3)
_cell_length_c                   10.9362(2)
_cell_angle_alpha                90
_cell_angle_beta                 117.0440(10)
_cell_angle_gamma                90
_cell_volume                     2082.08
loop_
_atom_site_label
_atom_site_type_symbol
_atom_site_fract_x
_atom_site_fract_y
_atom_site_fract_z
Co4 Co 0.08337(5) 0.17605(9) 0.07029(8)
O1 O 0.0637(5) 0.3600(7) 0.0565(8)
O2 O 0.0660(5) 0.9901(7) 0.0574(8)
C1 C 0.000000 0.4153(13) 0.000000
O3 O 0.0730(3) 0.1736(9) 0.2447(5)
C2 C 0.000000 0.8051(12) 0.000000
C4 C 0.0036(4) 0.1777(11) 0.3755(6)
C5 C 0.000000 0.5484(12) 0.000000
C6 C 0.000000 0.9410(13) 0.000000
C7 C 0.0074(4) 0.1744(10) 0.2412(6)
N1 N 0.2005(3) 0.1603(7) 0.1342(6)
C9 C 0.0707(4) 0.1710(13) 0.4991(7)
H3 H 0.118645 0.167249 0.499184
C10 C 0.2373(6) 0.0621(10) 0.1574(12)
N2 N 0.3144(4) 0.0757(8) 0.1904(9)
C12 C 0.2546(6) 0.2547(10) 0.1455(10)
C13 C 0.3252(5) 0.1960(10) 0.1806(8)
C17 C 0.2456(7) 0.3733(10) 0.1269(11)
H8 H 0.197900 0.410257 0.102194
C18 C 0.3096(7) 0.4390(12) 0.1455(12)
H9 H 0.305244 0.522557 0.133843
C19 C 0.3779(7) 0.3866(12) 0.1798(12)
H10 H 0.419700 0.435797 0.193025
C21 C 0.3898(6) 0.2643(11) 0.1966(10)
H11 H 0.437431 0.228975 0.217157
C22 C 0.0648(8) 0.6163(10) 0.0685(12)
H12 H 0.110612 0.572927 0.114601
C23 C 0.0720(7) 0.7395(9) 0.0791(11)
H13 H 0.118946 0.778185 0.132222
C26 C 0.0669(4) 0.1698(12) 0.6201(7)
H14 H 0.112453 0.163687 0.701790
O8 O 0.0561(3) 0.1778(9) 0.8662(5)
N3 N 0.7995(3) 0.1603(7) 0.8658(6)
C28 C 0.7627(6) 0.0621(10) 0.8426(12)
N4 N 0.6856(4) 0.0757(8) 0.8096(9)
C29 C 0.7454(6) 0.2547(10) 0.8545(10)
C30 C 0.6748(5) 0.1960(10) 0.8194(8)
C34 C 0.7544(7) 0.3733(10) 0.8731(11)
H19 H 0.802100 0.410257 0.897806
C35 C 0.6904(7) 0.4390(12) 0.8545(12)
H20 H 0.694756 0.522557 0.866157
C36 C 0.6221(7) 0.3866(12) 0.8202(12)
H21 H 0.580300 0.435797 0.806975
C38 C 0.6102(6) 0.2643(11) 0.8034(10)
H22 H 0.562569 0.228975 0.782843
Co7 Co 0.91663(5) 0.17605(9) 0.92971(8)
C1_2 C -0.000000 0.4153(13) 1.000000
C2_2 C -0.000000 0.8051(12) 1.000000
C5_2 C -0.000000 0.5484(12) 1.000000
C6_2 C -0.000000 0.9410(13) 1.000000
H4 H 0.214449 0.987044 0.152704
C14 C 0.4383(5) 0.9921(9) 0.3665(11)
C15 C 0.3748(7) 0.9808(11) 0.2238(13)
H6 H 0.396683 0.986787 0.159876
H7 H 0.351002 0.901606 0.212414
C16 C 0.5131(6) 0.9935(11) 0.3863(13)
C20 C 0.4234(6) 0.9876(10) 0.4742(12)
H16 H 0.785551 0.987044 0.847296
C31 C 0.5617(5) 0.9921(9) 0.6335(11)
C32 C 0.6252(7) 0.9808(11) 0.7762(13)
H17 H 0.603317 0.986787 0.840124
H18 H 0.648998 0.901606 0.787586
C33 C 0.4869(6) 0.9935(11) 0.6137(13)
C37 C 0.5766(6) 0.9876(10) 0.5258(12)
H23 H 0.363814 0.979516 0.458123
H24 H 0.525454 0.998978 0.29875
H25 H 0.636186 0.979516 0.541877
H26 H 0.474546 0.998978 0.70125
C1_3 C 1.000000 0.4153(13) 0.000000
C2_3 C 1.000000 0.8051(12) 0.000000
C5_3 C 1.000000 0.5484(12) 0.000000
C6_3 C 1.000000 0.9410(13) 0.000000
C8 C 0.9331(4) 0.1698(12) 0.3799(7)
H2 H 0.887547 0.163687 0.298210
O4 O 0.9439(3) 0.1778(9) 0.1338(5)
O7 O 0.9270(3) 0.1736(9) 0.7553(5)
C24 C 0.9964(4) 0.1777(11) 0.6245(6)
C25 C 0.9926(4) 0.1744(10) 0.7588(6)
C27 C 0.9293(4) 0.1710(13) 0.5009(7)
H15 H 0.881355 0.167249 0.500816
C1_4 C 1.000000 0.4153(13) 1.000000
C2_4 C 1.000000 0.8051(12) 1.000000
C3 C 0.9352(8) 0.6163(10) 0.9315(12)
H1 H 0.889388 0.572927 0.885399
C5_4 C 1.000000 0.5484(12) 1.000000
C6_4 C 1.000000 0.9410(13) 1.000000
C11 C 0.9280(7) 0.7395(9) 0.9209(11)
H5 H 0.881054 0.778185 0.867778
O5 O 0.9363(5) 0.3600(7) 0.9435(8)
O6 O 0.9340(5) 0.9901(7) 0.9426(8)
H20_2 H 0.194756 0.022557 0.866157
C16_2 C 0.0131(6) 0.4935(11) 0.3863(13)
N3_2 N 0.2995(3) 0.6603(7) 0.8658(6)
C28_2 C 0.2627(6) 0.5621(10) 0.8426(12)
H16_2 H 0.285551 0.487044 0.847296
N4_2 N 0.1856(4) 0.5757(8) 0.8096(9)
C29_2 C 0.2454(6) 0.7547(10) 0.8545(10)
C30_2 C 0.1748(5) 0.6960(10) 0.8194(8)
C31_2 C 0.0617(5) 0.4921(9) 0.6335(11)
C32_2 C 0.1252(7) 0.4808(11) 0.7762(13)
H17_2 H 0.103317 0.486787 0.840124
H18_2 H 0.148998 0.401606 0.787586
C34_2 C 0.2544(7) 0.8733(10) 0.8731(11)
H19_2 H 0.302100 0.910257 0.897806
C35_2 C 0.1904(7) 0.9390(12) 0.8545(12)
C36_2 C 0.1221(7) 0.8866(12) 0.8202(12)
H21_2 H 0.080300 0.935797 0.806975
C37_2 C 0.0766(6) 0.4876(10) 0.5258(12)
C38_2 C 0.1102(6) 0.7643(11) 0.8034(10)
H22_2 H 0.062569 0.728975 0.782843
Co7_2 Co 0.41663(5) 0.67605(9) 0.92971(8)
H24_2 H 0.0254539 0.498978 0.29875
H25_2 H 0.136186 0.479516 0.541877
O2_2 O 0.5660(5) 0.4901(7) 0.0574(8)
C2_5 C 0.500000 0.3051(12) 0.000000
C5_5 C 0.500000 0.0484(12) 0.000000
C6_5 C 0.500000 0.4410(13) 0.000000
H9_2 H 0.805244 0.022557 0.133843
C22_2 C 0.5648(8) 0.1163(10) 0.0685(12)
H12_2 H 0.610612 0.072927 0.114601
C23_2 C 0.5720(7) 0.2395(9) 0.0791(11)
H13_2 H 0.618946 0.278185 0.132222
Co4_2 Co 0.58337(5) 0.67605(9) 0.07029(8)
C2_6 C 0.500000 0.3051(12) 1.000000
C3_2 C 0.4352(8) 0.1163(10) 0.9315(12)
H1_2 H 0.389388 0.072927 0.885399
C5_6 C 0.500000 0.0484(12) 1.000000
C6_6 C 0.500000 0.4410(13) 1.000000
C11_2 C 0.4280(7) 0.2395(9) 0.9209(11)
H5_2 H 0.381054 0.278185 0.867778
O6_2 O 0.4340(5) 0.4901(7) 0.9426(8)
O1_2 O 0.5637(5) 0.8600(7) 0.0565(8)
C1_5 C 0.500000 0.9153(13) 0.000000
O3_2 O 0.5730(3) 0.6736(9) 0.2447(5)
C4_2 C 0.5036(4) 0.6777(11) 0.3755(6)
C7_2 C 0.5074(4) 0.6744(10) 0.2412(6)
N1_2 N 0.7005(3) 0.6603(7) 0.1342(6)
C8_2 C 0.4331(4) 0.6698(12) 0.3799(7)
H2_2 H 0.387547 0.663687 0.298210
C9_2 C 0.5707(4) 0.6710(13) 0.4991(7)
H3_2 H 0.618645 0.667249 0.499184
C10_2 C 0.7373(6) 0.5621(10) 0.1574(12)
H4_2 H 0.714449 0.487044 0.152704
N2_2 N 0.8144(4) 0.5757(8) 0.1904(9)
C12_2 C 0.7546(6) 0.7547(10) 0.1455(10)
C13_2 C 0.8252(5) 0.6960(10) 0.1806(8)
C14_2 C 0.9383(5) 0.4921(9) 0.3665(11)
C15_2 C 0.8748(7) 0.4808(11) 0.2238(13)
H6_2 H 0.896683 0.486787 0.159876
H7_2 H 0.851002 0.401606 0.212414
C17_2 C 0.7456(7) 0.8733(10) 0.1269(11)
H8_2 H 0.697900 0.910257 0.102194
C18_2 C 0.8096(7) 0.9390(12) 0.1455(12)
C19_2 C 0.8779(7) 0.8866(12) 0.1798(12)
H10_2 H 0.919700 0.935797 0.193025
C20_2 C 0.9234(6) 0.4876(10) 0.4742(12)
C21_2 C 0.8898(6) 0.7643(11) 0.1966(10)
H11_2 H 0.937431 0.728975 0.217157
O4_2 O 0.4439(3) 0.6778(9) 0.1338(5)
O7_2 O 0.4270(3) 0.6736(9) 0.7553(5)
C24_2 C 0.4964(4) 0.6777(11) 0.6245(6)
C25_2 C 0.4926(4) 0.6744(10) 0.7588(6)
C26_2 C 0.5669(4) 0.6698(12) 0.6201(7)
H14_2 H 0.612453 0.663687 0.701790
C27_2 C 0.4293(4) 0.6710(13) 0.5009(7)
H15_2 H 0.381355 0.667249 0.500816
O8_2 O 0.5561(3) 0.6778(9) 0.8662(5)
C33_2 C 0.9869(6) 0.4935(11) 0.6137(13)
H23_2 H 0.863814 0.479516 0.458123
H26_2 H 0.974546 0.498978 0.70125
C1_6 C 0.500000 0.9153(13) 1.000000
O5_2 O 0.4363(5) 0.8600(7) 0.9435(8)
loop_
_geom_bond_atom_site_label_1
_geom_bond_atom_site_label_2
_geom_bond_site_symmetry_1
_geom_bond_site_symmetry_2
Co4 O1 1_555 1_555
O1 C1 1_555 1_555
O2 C6 1_555 1_555
C1 C5 1_555 1_555
O3 Co4 1_555 1_555
C2 C6 1_555 1_555
C4 C7 1_555 1_555
C7 O3 1_555 1_555
N1 Co4 1_555 1_555
C9 C4 1_555 1_555
H3 C9 1_555 1_555
C10 N1 1_555 1_555
N2 C10 1_555 1_555
C12 N1 1_555 1_555
C13 N2 1_555 1_555
C17 C12 1_555 1_555
H8 C17 1_555 1_555
C18 C17 1_555 1_555
H9 C18 1_555 1_555
C19 C18 1_555 1_555
H10 C19 1_555 1_555
C21 C13 1_555 1_555
H11 C21 1_555 1_555
C22 C5 1_555 1_555
H12 C22 1_555 1_555
C23 C2 1_555 1_555
H13 C23 1_555 1_555
C26 C9 1_555 1_555
H14 C26 1_555 1_555
N3 C28 1_555 1_555
N4 C28 1_555 1_555
C29 N3 1_555 1_555
C30 N4 1_555 1_555
C34 C29 1_555 1_555
H19 C34 1_555 1_555
C35 C34 1_555 1_555
H20 C35 1_555 1_555
C36 C35 1_555 1_555
H21 C36 1_555 1_555
C38 C30 1_555 1_555
H22 C38 1_555 1_555
Co7 N3 1_555 1_555
C12 C13 1_555 1_555
C19 C21 1_555 1_555
C22 C23 1_555 1_555
C29 C30 1_555 1_555
C36 C38 1_555 1_555
C1_2 C5_2 1_555 1_555
C2_2 C6_2 1_555 1_555
C14 C15 1_555 1_555
H6 C15 1_555 1_555
H7 C15 1_555 1_555
C16 C14 1_555 1_555
C20 C14 1_555 1_555
C31 C32 1_555 1_555
H17 C32 1_555 1_555
H18 C32 1_555 1_555
C33 C20 1_555 1_555
C37 C16 1_555 1_555
C31 C33 1_555 1_555
C31 C37 1_555 1_555
C20 H23 1_555 1_555
C16 H24 1_555 1_555
C37 H25 1_555 1_555
C33 H26 1_555 1_555
C1_3 C5_3 1_555 1_555
C2_3 C6_3 1_555 1_555
H2 C8 1_555 1_555
O7 C25 1_555 1_555
C24 C25 1_555 1_555
C27 C8 1_555 1_555
H15 C27 1_555 1_555
Co7 O7 1_555 1_555
C24 C27 1_555 1_555
C1_4 C5_4 1_555 1_555
C2_4 C6_4 1_555 1_555
C3 H1 1_555 1_555
C5_4 C3 1_555 1_555
C6_4 O6 1_555 1_555
C11 C2_4 1_555 1_555
H5 C11 1_555 1_555
O5 C1_4 1_555 1_555
C3 C11 1_555 1_555
O5 Co7 1_555 1_555
N3_2 C28_2 1_555 1_555
C28_2 H16_2 1_555 1_555
N4_2 C28_2 1_555 1_555
C29_2 N3_2 1_555 1_555
C30_2 N4_2 1_555 1_555
C31_2 C32_2 1_555 1_555
C32_2 N4_2 1_555 1_555
H17_2 C32_2 1_555 1_555
H18_2 C32_2 1_555 1_555
C34_2 C29_2 1_555 1_555
H19_2 C34_2 1_555 1_555
C35_2 C34_2 1_555 1_555
C36_2 C35_2 1_555 1_555
H21_2 C36_2 1_555 1_555
C37_2 C16_2 1_555 1_555
C38_2 C30_2 1_555 1_555
H22_2 C38_2 1_555 1_555
Co7_2 N3_2 1_555 1_555
C29_2 C30_2 1_555 1_555
C31_2 C37_2 1_555 1_555
C36_2 C38_2 1_555 1_555
C16_2 H24_2 1_555 1_555
C37_2 H25_2 1_555 1_555
O2_2 C6_5 1_555 1_555
C2_5 C6_5 1_555 1_555
C22_2 C5_5 1_555 1_555
H12_2 C22_2 1_555 1_555
C23_2 C2_5 1_555 1_555
H13_2 C23_2 1_555 1_555
Co4_2 O2_2 1_555 1_555
C22_2 C23_2 1_555 1_555
C2_6 C6_6 1_555 1_555
C3_2 H1_2 1_555 1_555
C5_6 C3_2 1_555 1_555
C6_6 O6_2 1_555 1_555
C11_2 C2_6 1_555 1_555
H5_2 C11_2 1_555 1_555
O6_2 Co7_2 1_555 1_555
C3_2 C11_2 1_555 1_555
Co4_2 O1_2 1_555 1_555
O1_2 C1_5 1_555 1_555
O3_2 Co4_2 1_555 1_555
C4_2 C7_2 1_555 1_555
C7_2 O3_2 1_555 1_555
N1_2 Co4_2 1_555 1_555
C8_2 C4_2 1_555 1_555
H2_2 C8_2 1_555 1_555
C9_2 C4_2 1_555 1_555
H3_2 C9_2 1_555 1_555
C10_2 N1_2 1_555 1_555
H4_2 C10_2 1_555 1_555
N2_2 C10_2 1_555 1_555
C12_2 N1_2 1_555 1_555
C13_2 N2_2 1_555 1_555
C14_2 C15_2 1_555 1_555
C15_2 N2_2 1_555 1_555
H6_2 C15_2 1_555 1_555
H7_2 C15_2 1_555 1_555
C17_2 C12_2 1_555 1_555
H8_2 C17_2 1_555 1_555
C18_2 C17_2 1_555 1_555
C19_2 C18_2 1_555 1_555
H10_2 C19_2 1_555 1_555
C20_2 C14_2 1_555 1_555
C21_2 C13_2 1_555 1_555
H11_2 C21_2 1_555 1_555
O4_2 C7_2 1_555 1_555
O7_2 C25_2 1_555 1_555
C24_2 C25_2 1_555 1_555
C25_2 O8_2 1_555 1_555
C26_2 C9_2 1_555 1_555
H14_2 C26_2 1_555 1_555
C27_2 C8_2 1_555 1_555
H15_2 C27_2 1_555 1_555
C33_2 C20_2 1_555 1_555
Co7_2 O7_2 1_555 1_555
C12_2 C13_2 1_555 1_555
C19_2 C21_2 1_555 1_555
C24_2 C26_2 1_555 1_555
C24_2 C27_2 1_555 1_555
C20_2 H23_2 1_555 1_555
C33_2 H26_2 1_555 1_555
O5_2 C1_6 1_555 1_555
O5_2 Co7_2 1_555 1_555

#END
