
###############################################################################
#
# This file contains modified crystal structure data generated from the
# MOF subset of the Cambridge Structural Database (CSD) v543 
# hosted by the Cambridge Crystallographic Data Centre (CCDC).
#
# This work is licensed under the Creative Commons
# Attribution-NonCommercial-ShareAlike 4.0 International License.
# To view a copy of this license, visit
# http://creativecommons.org/licenses/by-nc-sa/4.0/
# or send a letter to
# Creative Commons, PO Box 1866, Mountain View, CA 94042, USA.
#
# CIF created using the CSD Python API on 29 September 2022
# The structure has been converted into the P1 space group
# The structure has a 3D framework
# The original CSD entry OSOLOA is in the monoclinic crystal system
# The framework has been calculated to contain at least 10.0% void space
# The void calculation uses a probe of radius 1.32A, grid spacing 0.4
#
###############################################################################

data_OSOLOA
_chemical_formula_moiety         '(C64 H56 Cs8 N40 O56)n'
_symmetry_cell_setting           triclinic
_symmetry_space_group_name_H-M   'P 1'
_symmetry_Int_Tables_number      1
_space_group_name_Hall           'P 1'
loop_
_symmetry_equiv_pos_site_id
_symmetry_equiv_pos_as_xyz
1 x,y,z
_cell_length_a                   15.718(2)
_cell_length_b                   11.0993(17)
_cell_length_c                   18.495(3)
_cell_angle_alpha                90
_cell_angle_beta                 109.565(2)
_cell_angle_gamma                90
_cell_volume                     3040.32
loop_
_atom_site_label
_atom_site_type_symbol
_atom_site_fract_x
_atom_site_fract_y
_atom_site_fract_z
O11 O 0.0844(5) 0.0314(7) 0.7094(3)
H9 H 0.030476 0.005513 0.574296
Cs6 Cs 0.17792(6) 0.27470(8) 0.66356(4)
Cs1 Cs 0.17792(6) 0.72530(8) 0.16356(4)
O1 O 0.0775(4) 0.8789(6) 0.0232(3)
O4 O 0.2217(6) 0.5633(8) 0.3010(4)
O5 O 0.2030(5) 0.3892(7) 0.5143(4)
O6 O 0.3696(6) 0.7461(8) 0.5303(5)
O7 O 0.3008(7) 0.5032(9) 0.6546(5)
H1 H 0.337874 0.512645 0.699071
N3 N 0.2103(5) 0.4819(8) 0.4084(4)
H4 H 0.173314 0.427270 0.380263
N4 N 0.2990(5) 0.6559(7) 0.4152(5)
H5 H 0.319738 0.711412 0.391462
N5 N 0.3309(8) 0.5752(12) 0.6100(7)
C5 C 0.2420(7) 0.5674(9) 0.3704(5)
C6 C 0.2313(6) 0.4736(9) 0.4870(5)
C7 C 0.2914(6) 0.5657(9) 0.5318(5)
C8 C 0.3252(6) 0.6619(9) 0.4955(5)
O8 O 0.3536(8) 0.8261(10) 0.3238(6)
H6 H 0.312809 0.870213 0.329370
H7 H 0.406439 0.846803 0.325900
O17 O 0.3895(5) 0.8020(7) 0.1843(3)
O19 O 0.0844(5) 0.9686(7) 0.2094(3)
O22 O 0.2030(5) 0.6108(7) 0.0143(4)
O24 O 0.3008(7) 0.4968(9) 0.1546(5)
O2 O 0.1105(5) 0.6980(7) 0.8157(3)
N1 N 0.0860(5) 0.7859(7) 0.9171(4)
H2 H 0.120390 0.729809 0.946198
C1 C 0.0535(5) 0.8711(8) 0.9519(4)
C2 C 0.0696(6) 0.7790(9) 0.8382(4)
C3 C 0.0095(5) 0.8628(8) 0.7920(4)
N7 N 0.0060(5) 0.9504(7) 0.5953(4)
C12 C 0.0301(6) 0.9488(9) 0.6755(4)
Cs7 Cs 0.32208(6) 0.77470(8) 0.83644(4)
O3 O 0.9156(5) 0.0314(7) 0.7906(3)
H3 H 0.969524 0.005513 0.925704
Cs4 Cs 0.82208(6) 0.27470(8) 0.83644(4)
N2 N 0.9940(5) 0.9504(7) 0.9047(4)
C4 C 0.9699(6) 0.9488(9) 0.8245(4)
O9 O 0.9225(4) 0.8789(6) 0.4768(3)
O10 O 0.8895(5) 0.6980(7) 0.6843(3)
N6 N 0.9140(5) 0.7859(7) 0.5829(4)
H8 H 0.879610 0.729809 0.553802
C9 C 0.9465(5) 0.8711(8) 0.5481(4)
C10 C 0.9304(6) 0.7790(9) 0.6618(4)
C11 C 0.9905(5) 0.8628(8) 0.7080(4)
Cs2 Cs 0.82208(6) 0.72530(8) 0.33644(4)
O12 O 0.7783(6) 0.5633(8) 0.1990(4)
N8 N 0.7897(5) 0.4819(8) 0.0916(4)
H11 H 0.826686 0.427270 0.119737
N9 N 0.7010(5) 0.6559(7) 0.0848(5)
H12 H 0.680262 0.711412 0.108538
C13 C 0.7580(7) 0.5674(9) 0.1296(5)
C14 C 0.7687(6) 0.4736(9) 0.0130(5)
C16 C 0.6748(6) 0.6619(9) 0.0045(5)
O16 O 0.6464(8) 0.8261(10) 0.1762(6)
H13 H 0.687191 0.870213 0.170630
H14 H 0.593561 0.846803 0.174100
Cs8 Cs 0.67792(6) 0.77470(8) 0.66356(4)
O18 O 0.6105(5) 0.8020(7) 0.3157(3)
O20 O 0.9156(5) 0.9686(7) 0.2906(3)
O21 O 0.7970(5) 0.6108(7) 0.4857(4)
O23 O 0.6992(7) 0.4968(9) 0.3454(5)
O13 O 0.7970(5) 0.3892(7) 0.9857(4)
O14 O 0.6304(6) 0.7461(8) 0.9697(5)
O15 O 0.6992(7) 0.5032(9) 0.8454(5)
H10 H 0.662126 0.512645 0.800929
N10 N 0.6691(8) 0.5752(12) 0.8900(7)
C15 C 0.7086(6) 0.5657(9) 0.9682(5)
Cs1_2 Cs 0.67792(6) 0.22530(8) 0.16356(4)
O1_2 O 0.5775(4) 0.3789(6) 0.0232(3)
O4_2 O 0.7217(6) 0.0633(8) 0.3010(4)
O6_2 O 0.8696(6) 0.2461(8) 0.5303(5)
O7_2 O 0.8008(7) 0.0032(9) 0.6546(5)
H1_2 H 0.837874 0.012645 0.699071
N4_2 N 0.7990(5) 0.1559(7) 0.4152(5)
H5_2 H 0.819738 0.211412 0.391462
N5_2 N 0.8309(8) 0.0752(12) 0.6100(7)
C5_2 C 0.7420(7) 0.0674(9) 0.3704(5)
C7_2 C 0.7914(6) 0.0657(9) 0.5318(5)
C8_2 C 0.8252(6) 0.1619(9) 0.4955(5)
O8_2 O 0.8536(8) 0.3261(10) 0.3238(6)
H6_2 H 0.812809 0.370213 0.329370
H7_2 H 0.906439 0.346803 0.325900
O17_2 O 0.8895(5) 0.3020(7) 0.1843(3)
O19_2 O 0.5844(5) 0.4686(7) 0.2094(3)
O22_2 O 0.7030(5) 0.1108(7) 0.0143(4)
O2_2 O 0.6105(5) 0.1980(7) 0.8157(3)
O3_2 O 0.4156(5) 0.5314(7) 0.7906(3)
N1_2 N 0.5860(5) 0.2859(7) 0.9171(4)
H2_2 H 0.620390 0.229809 0.946198
N2_2 N 0.4940(5) 0.4504(7) 0.9047(4)
H3_2 H 0.469524 0.505513 0.925704
C1_2 C 0.5535(5) 0.3711(8) 0.9519(4)
C2_2 C 0.5696(6) 0.2790(9) 0.8382(4)
C3_2 C 0.5095(5) 0.3628(8) 0.7920(4)
C4_2 C 0.4699(6) 0.4488(9) 0.8245(4)
O9_2 O 0.4225(4) 0.3789(6) 0.4768(3)
O10_2 O 0.3895(5) 0.1980(7) 0.6843(3)
O11_2 O 0.5844(5) 0.5314(7) 0.7094(3)
N6_2 N 0.4140(5) 0.2859(7) 0.5829(4)
H8_2 H 0.379610 0.229809 0.553802
N7_2 N 0.5060(5) 0.4504(7) 0.5953(4)
H9_2 H 0.530476 0.505513 0.574296
C9_2 C 0.4465(5) 0.3711(8) 0.5481(4)
C10_2 C 0.4304(6) 0.2790(9) 0.6618(4)
C11_2 C 0.4905(5) 0.3628(8) 0.7080(4)
C12_2 C 0.5301(6) 0.4488(9) 0.6755(4)
Cs2_2 Cs 0.32208(6) 0.22530(8) 0.33644(4)
O12_2 O 0.2783(6) 0.0633(8) 0.1990(4)
N9_2 N 0.2010(5) 0.1559(7) 0.0848(5)
H12_2 H 0.180262 0.211412 0.108538
C13_2 C 0.2580(7) 0.0674(9) 0.1296(5)
C16_2 C 0.1748(6) 0.1619(9) 0.0045(5)
O16_2 O 0.1464(8) 0.3261(10) 0.1762(6)
H13_2 H 0.187191 0.370213 0.170630
H14_2 H 0.093561 0.346803 0.174100
O18_2 O 0.1105(5) 0.3020(7) 0.3157(3)
O20_2 O 0.4156(5) 0.4686(7) 0.2906(3)
O21_2 O 0.2970(5) 0.1108(7) 0.4857(4)
O14_2 O 0.1304(6) 0.2461(8) 0.9697(5)
O15_2 O 0.1992(7) 0.0032(9) 0.8454(5)
H10_2 H 0.162126 0.012645 0.800929
N10_2 N 0.1691(8) 0.0752(12) 0.8900(7)
C15_2 C 0.2086(6) 0.0657(9) 0.9682(5)
O5_2 O 0.7030(5) 0.8892(7) 0.5143(4)
N3_2 N 0.7103(5) 0.9819(8) 0.4084(4)
H4_2 H 0.673314 0.927270 0.380263
C6_2 C 0.7313(6) 0.9736(9) 0.4870(5)
O24_2 O 0.8008(7) 0.9968(9) 0.1546(5)
N8_2 N 0.2897(5) 0.9819(8) 0.0916(4)
H11_2 H 0.326686 0.927270 0.119737
C14_2 C 0.2687(6) 0.9736(9) 0.0130(5)
O23_2 O 0.1992(7) 0.9968(9) 0.3454(5)
O13_2 O 0.2970(5) 0.8892(7) 0.9857(4)
O14_3 O 0.3696(6) 0.2539(8) 0.0303(5)
H10_3 H 0.337874 0.487355 0.199071
N10_3 N 0.3309(8) 0.4248(12) 0.1100(7)
C15_3 C 0.2914(6) 0.4343(9) 0.0318(5)
N2_3 N 0.0060(5) 0.0496(7) 0.0953(4)
C4_3 C 0.0301(6) 0.0512(9) 0.1755(4)
O9_3 O 0.0775(4) 0.1211(6) 0.5232(3)
N6_3 N 0.0860(5) 0.2141(7) 0.4171(4)
H8_3 H 0.120390 0.270191 0.446198
C9_3 C 0.0535(5) 0.1289(8) 0.4519(4)
C10_3 C 0.0696(6) 0.2210(9) 0.3382(4)
C11_3 C 0.0095(5) 0.1372(8) 0.2920(4)
O12_3 O 0.2217(6) 0.4367(8) 0.8010(4)
N8_3 N 0.2103(5) 0.5181(8) 0.9084(4)
H11_3 H 0.173314 0.572730 0.880263
N9_3 N 0.2990(5) 0.3441(7) 0.9152(5)
H12_3 H 0.319738 0.288588 0.891462
C13_3 C 0.2420(7) 0.4326(9) 0.8704(5)
C14_3 C 0.2313(6) 0.5264(9) 0.9870(5)
C16_3 C 0.3252(6) 0.3381(9) 0.9955(5)
O16_3 O 0.3536(8) 0.1739(10) 0.8238(6)
H13_3 H 0.312809 0.129787 0.829370
H14_3 H 0.406439 0.153197 0.825900
H3_3 H 0.030476 0.994487 0.074296
N1_3 N 0.9140(5) 0.2141(7) 0.0829(4)
H2_3 H 0.879610 0.270191 0.053802
C1_3 C 0.9465(5) 0.1289(8) 0.0481(4)
C2_3 C 0.9304(6) 0.2210(9) 0.1618(4)
C3_3 C 0.9905(5) 0.1372(8) 0.2080(4)
N7_3 N 0.9940(5) 0.0496(7) 0.4047(4)
C12_3 C 0.9699(6) 0.0512(9) 0.3245(4)
O1_3 O 0.9225(4) 0.1211(6) 0.9768(3)
O4_3 O 0.7783(6) 0.4367(8) 0.6990(4)
O6_3 O 0.6304(6) 0.2539(8) 0.4697(5)
H1_3 H 0.662126 0.487355 0.300929
N3_3 N 0.7897(5) 0.5181(8) 0.5916(4)
H4_3 H 0.826686 0.572730 0.619737
N4_3 N 0.7010(5) 0.3441(7) 0.5848(5)
H5_3 H 0.680262 0.288588 0.608538
N5_3 N 0.6691(8) 0.4248(12) 0.3900(7)
C5_3 C 0.7580(7) 0.4326(9) 0.6296(5)
C6_3 C 0.7687(6) 0.5264(9) 0.5130(5)
C7_3 C 0.7086(6) 0.4343(9) 0.4682(5)
C8_3 C 0.6748(6) 0.3381(9) 0.5045(5)
O8_3 O 0.6464(8) 0.1739(10) 0.6762(6)
H6_3 H 0.687191 0.129787 0.670630
H7_3 H 0.593561 0.153197 0.674100
H9_3 H 0.969524 0.994487 0.425704
N8_4 N 0.7103(5) 0.0181(8) 0.9084(4)
H11_4 H 0.673314 0.072730 0.880263
C14_4 C 0.7313(6) 0.0264(9) 0.9870(5)
N3_4 N 0.2897(5) 0.0181(8) 0.5916(4)
H4_4 H 0.326686 0.072730 0.619737
C6_4 C 0.2687(6) 0.0264(9) 0.5130(5)
O14_4 O 0.8696(6) 0.7539(8) 0.0303(5)
H10_4 H 0.837874 0.987355 0.199071
N10_4 N 0.8309(8) 0.9248(12) 0.1100(7)
C15_4 C 0.7914(6) 0.9343(9) 0.0318(5)
N1_4 N 0.4140(5) 0.7141(7) 0.0829(4)
H2_4 H 0.379610 0.770191 0.053802
N2_4 N 0.5060(5) 0.5496(7) 0.0953(4)
H3_4 H 0.530476 0.494487 0.074296
C1_4 C 0.4465(5) 0.6289(8) 0.0481(4)
C2_4 C 0.4304(6) 0.7210(9) 0.1618(4)
C3_4 C 0.4905(5) 0.6372(8) 0.2080(4)
C4_4 C 0.5301(6) 0.5512(9) 0.1755(4)
O9_4 O 0.5775(4) 0.6211(6) 0.5232(3)
N6_4 N 0.5860(5) 0.7141(7) 0.4171(4)
H8_4 H 0.620390 0.770191 0.446198
N7_4 N 0.4940(5) 0.5496(7) 0.4047(4)
H9_4 H 0.469524 0.494487 0.425704
C9_4 C 0.5535(5) 0.6289(8) 0.4519(4)
C10_4 C 0.5696(6) 0.7210(9) 0.3382(4)
C11_4 C 0.5095(5) 0.6372(8) 0.2920(4)
C12_4 C 0.4699(6) 0.5512(9) 0.3245(4)
O12_4 O 0.7217(6) 0.9367(8) 0.8010(4)
N9_4 N 0.7990(5) 0.8441(7) 0.9152(5)
H12_4 H 0.819738 0.788588 0.891462
C13_4 C 0.7420(7) 0.9326(9) 0.8704(5)
C16_4 C 0.8252(6) 0.8381(9) 0.9955(5)
O16_4 O 0.8536(8) 0.6739(10) 0.8238(6)
H13_4 H 0.812809 0.629787 0.829370
H14_4 H 0.906439 0.653197 0.825900
O1_4 O 0.4225(4) 0.6211(6) 0.9768(3)
O4_4 O 0.2783(6) 0.9367(8) 0.6990(4)
O6_4 O 0.1304(6) 0.7539(8) 0.4697(5)
H1_4 H 0.162126 0.987355 0.300929
N4_4 N 0.2010(5) 0.8441(7) 0.5848(5)
H5_4 H 0.180262 0.788588 0.608538
N5_4 N 0.1691(8) 0.9248(12) 0.3900(7)
C5_4 C 0.2580(7) 0.9326(9) 0.6296(5)
C7_4 C 0.2086(6) 0.9343(9) 0.4682(5)
C8_4 C 0.1748(6) 0.8381(9) 0.5045(5)
O8_4 O 0.1464(8) 0.6739(10) 0.6762(6)
H6_4 H 0.187191 0.629787 0.670630
H7_4 H 0.093561 0.653197 0.674100
loop_
_geom_bond_atom_site_label_1
_geom_bond_atom_site_label_2
_geom_bond_site_symmetry_1
_geom_bond_site_symmetry_2
Cs6 O11 1_555 1_555
Cs1 O1 1_555 1_555
O4 Cs1 1_555 1_555
O5 C6 1_555 1_555
O6 C8 1_555 1_555
O7 H1 1_555 1_555
N3 H4 1_555 1_555
N4 H5 1_555 1_555
N5 O7 1_555 1_555
C5 O4 1_555 1_555
C6 N3 1_555 1_555
C7 N5 1_555 1_555
C8 N4 1_555 1_555
O8 Cs1 1_555 1_555
H6 O8 1_555 1_555
H7 O8 1_555 1_555
Cs6 O5 1_555 1_555
O17 Cs1 1_555 1_555
O19 Cs1 1_555 1_555
O22 Cs1 1_555 1_555
O24 Cs1 1_555 1_555
O7 Cs6 1_555 1_555
N3 C5 1_555 1_555
N4 C5 1_555 1_555
C6 C7 1_555 1_555
C7 C8 1_555 1_555
O2 C2 1_555 1_555
N1 H2 1_555 1_555
C1 N1 1_555 1_555
C2 N1 1_555 1_555
C3 C2 1_555 1_555
C12 N7 1_555 1_555
Cs7 O2 1_555 1_555
Cs4 O3 1_555 1_555
C4 N2 1_555 1_555
O9 C9 1_555 1_555
O10 C10 1_555 1_555
N6 H8 1_555 1_555
C9 N6 1_555 1_555
C10 N6 1_555 1_555
Cs2 O9 1_555 1_555
O12 Cs2 1_555 1_555
N8 H11 1_555 1_555
N9 H12 1_555 1_555
C13 O12 1_555 1_555
C14 N8 1_555 1_555
C16 N9 1_555 1_555
O16 Cs2 1_555 1_555
H13 O16 1_555 1_555
H14 O16 1_555 1_555
Cs8 O10 1_555 1_555
O18 Cs2 1_555 1_555
O20 Cs2 1_555 1_555
O21 Cs2 1_555 1_555
O23 Cs2 1_555 1_555
C10 C11 1_555 1_555
N8 C13 1_555 1_555
N9 C13 1_555 1_555
O15 H10 1_555 1_555
N10 O15 1_555 1_555
C15 N10 1_555 1_555
Cs4 O13 1_555 1_555
O15 Cs4 1_555 1_555
Cs1_2 O1_2 1_555 1_555
O4_2 Cs1_2 1_555 1_555
O6_2 C8_2 1_555 1_555
O7_2 H1_2 1_555 1_555
N4_2 H5_2 1_555 1_555
N5_2 O7_2 1_555 1_555
C5_2 O4_2 1_555 1_555
C7_2 N5_2 1_555 1_555
C8_2 N4_2 1_555 1_555
O8_2 Cs1_2 1_555 1_555
H6_2 O8_2 1_555 1_555
H7_2 O8_2 1_555 1_555
O17_2 Cs1_2 1_555 1_555
O19_2 Cs1_2 1_555 1_555
O22_2 Cs1_2 1_555 1_555
N4_2 C5_2 1_555 1_555
C7_2 C8_2 1_555 1_555
O2_2 C2_2 1_555 1_555
O3_2 C4_2 1_555 1_555
N1_2 H2_2 1_555 1_555
N2_2 H3_2 1_555 1_555
C1_2 N1_2 1_555 1_555
C2_2 N1_2 1_555 1_555
C3_2 C2_2 1_555 1_555
C4_2 N2_2 1_555 1_555
O9_2 C9_2 1_555 1_555
O10_2 C10_2 1_555 1_555
O11_2 C12_2 1_555 1_555
N6_2 H8_2 1_555 1_555
N7_2 H9_2 1_555 1_555
C9_2 N6_2 1_555 1_555
C10_2 N6_2 1_555 1_555
C11_2 C3_2 1_555 1_555
C12_2 N7_2 1_555 1_555
Cs2_2 O9_2 1_555 1_555
O12_2 Cs2_2 1_555 1_555
N9_2 H12_2 1_555 1_555
C13_2 O12_2 1_555 1_555
C16_2 N9_2 1_555 1_555
O16_2 Cs2_2 1_555 1_555
H13_2 O16_2 1_555 1_555
H14_2 O16_2 1_555 1_555
Cs7 O3_2 1_555 1_555
Cs8 O11_2 1_555 1_555
Cs4 O2_2 1_555 1_555
Cs6 O10_2 1_555 1_555
O18_2 Cs2_2 1_555 1_555
O20_2 Cs2_2 1_555 1_555
O21_2 Cs2_2 1_555 1_555
N2_2 C1_2 1_555 1_555
C3_2 C4_2 1_555 1_555
N7_2 C9_2 1_555 1_555
C10_2 C11_2 1_555 1_555
C11_2 C12_2 1_555 1_555
N9_2 C13_2 1_555 1_555
O15_2 H10_2 1_555 1_555
N10_2 O15_2 1_555 1_555
C15_2 N10_2 1_555 1_555
O5_2 C6_2 1_555 1_555
N3_2 H4_2 1_555 1_555
C6_2 N3_2 1_555 1_555
Cs8 O5_2 1_555 1_555
N8_2 H11_2 1_555 1_555
C14_2 N8_2 1_555 1_555
Cs7 O13_2 1_555 1_555
O24 H10_3 1_555 1_555
N10_3 O24 1_555 1_555
C15_3 N10_3 1_555 1_555
C4_3 N2_3 1_555 1_555
O9_3 C9_3 1_555 1_555
O18_2 C10_3 1_555 1_555
N6_3 H8_3 1_555 1_555
C9_3 N6_3 1_555 1_555
C10_3 N6_3 1_555 1_555
Cs6 O9_3 1_555 1_555
O12_3 Cs6 1_555 1_555
N8_3 H11_3 1_555 1_555
N9_3 H12_3 1_555 1_555
C13_3 O12_3 1_555 1_555
C14_3 N8_3 1_555 1_555
C16_3 N9_3 1_555 1_555
O16_3 Cs6 1_555 1_555
H13_3 O16_3 1_555 1_555
H14_3 O16_3 1_555 1_555
C10_3 C11_3 1_555 1_555
N8_3 C13_3 1_555 1_555
N9_3 C13_3 1_555 1_555
O17_2 C2_3 1_555 1_555
N1_3 H2_3 1_555 1_555
C1_3 N1_3 1_555 1_555
C2_3 N1_3 1_555 1_555
C3_3 C2_3 1_555 1_555
C12_3 N7_3 1_555 1_555
Cs4 O1_3 1_555 1_555
O4_3 Cs4 1_555 1_555
O21 C6_3 1_555 1_555
O6_3 C8_3 1_555 1_555
O23 H1_3 1_555 1_555
N3_3 H4_3 1_555 1_555
N4_3 H5_3 1_555 1_555
N5_3 O23 1_555 1_555
C5_3 O4_3 1_555 1_555
C6_3 N3_3 1_555 1_555
C7_3 N5_3 1_555 1_555
C8_3 N4_3 1_555 1_555
O8_3 Cs4 1_555 1_555
H6_3 O8_3 1_555 1_555
H7_3 O8_3 1_555 1_555
N3_3 C5_3 1_555 1_555
N4_3 C5_3 1_555 1_555
C6_3 C7_3 1_555 1_555
C7_3 C8_3 1_555 1_555
N8_4 H11_4 1_555 1_555
C14_4 N8_4 1_555 1_555
O21_2 C6_4 1_555 1_555
N3_4 H4_4 1_555 1_555
C6_4 N3_4 1_555 1_555
O24_2 H10_4 1_555 1_555
N10_4 O24_2 1_555 1_555
C15_4 N10_4 1_555 1_555
O17 C2_4 1_555 1_555
O19_2 C4_4 1_555 1_555
N1_4 H2_4 1_555 1_555
N2_4 H3_4 1_555 1_555
C1_4 N1_4 1_555 1_555
C2_4 N1_4 1_555 1_555
C3_4 C2_4 1_555 1_555
C4_4 N2_4 1_555 1_555
O9_4 C9_4 1_555 1_555
O18 C10_4 1_555 1_555
O20_2 C12_4 1_555 1_555
N6_4 H8_4 1_555 1_555
N7_4 H9_4 1_555 1_555
C9_4 N6_4 1_555 1_555
C10_4 N6_4 1_555 1_555
C11_4 C3_4 1_555 1_555
C12_4 N7_4 1_555 1_555
Cs8 O9_4 1_555 1_555
O12_4 Cs8 1_555 1_555
N9_4 H12_4 1_555 1_555
C13_4 O12_4 1_555 1_555
C16_4 N9_4 1_555 1_555
O16_4 Cs8 1_555 1_555
H13_4 O16_4 1_555 1_555
H14_4 O16_4 1_555 1_555
N2_4 C1_4 1_555 1_555
C3_4 C4_4 1_555 1_555
N7_4 C9_4 1_555 1_555
C10_4 C11_4 1_555 1_555
C11_4 C12_4 1_555 1_555
N9_4 C13_4 1_555 1_555
Cs7 O1_4 1_555 1_555
O4_4 Cs7 1_555 1_555
O6_4 C8_4 1_555 1_555
O23_2 H1_4 1_555 1_555
N4_4 H5_4 1_555 1_555
N5_4 O23_2 1_555 1_555
C5_4 O4_4 1_555 1_555
C7_4 N5_4 1_555 1_555
C8_4 N4_4 1_555 1_555
O8_4 Cs7 1_555 1_555
H6_4 O8_4 1_555 1_555
H7_4 O8_4 1_555 1_555
N4_4 C5_4 1_555 1_555
C7_4 C8_4 1_555 1_555

#END
