
###############################################################################
#
# This file contains modified crystal structure data generated from the
# MOF subset of the Cambridge Structural Database (CSD) v543 
# hosted by the Cambridge Crystallographic Data Centre (CCDC).
#
# This work is licensed under the Creative Commons
# Attribution-NonCommercial-ShareAlike 4.0 International License.
# To view a copy of this license, visit
# http://creativecommons.org/licenses/by-nc-sa/4.0/
# or send a letter to
# Creative Commons, PO Box 1866, Mountain View, CA 94042, USA.
#
# CIF created using the CSD Python API on 29 September 2022
# The structure has been converted into the P1 space group
# The structure has a 3D framework
# The original CSD entry OTAVOV is in the orthorhombic crystal system
# The framework has been calculated to contain at least 10.0% void space
# The void calculation uses a probe of radius 1.32A, grid spacing 0.4
#
###############################################################################

data_OTAVOV
_chemical_formula_moiety         '(C96 H88 La3 N8 O32)n'
_symmetry_cell_setting           triclinic
_symmetry_space_group_name_H-M   'P 1'
_symmetry_Int_Tables_number      1
_space_group_name_Hall           'P 1'
loop_
_symmetry_equiv_pos_site_id
_symmetry_equiv_pos_as_xyz
1 x,y,z
_cell_length_a                   10.139
_cell_length_b                   17.804
_cell_length_c                   20.010
_cell_angle_alpha                90
_cell_angle_beta                 90
_cell_angle_gamma                90
_cell_volume                     3612.1
loop_
_atom_site_label
_atom_site_type_symbol
_atom_site_fract_x
_atom_site_fract_y
_atom_site_fract_z
La1 La 0.03061(8) 0.2500 0.2500
O1 O 0.1483(7) 0.1403(4) 0.3069(4)
N1 N 0.1098(9) 0.0994(5) 0.3597(5)
C4 C 0.0241(11) 0.0211(6) 0.4707(6)
C5 C 0.1413(11) 0.0601(7) 0.4699(6)
H3 H 0.1939 0.0593 0.5080
C9 C 0.1833(11) 0.0997(7) 0.4159(6)
H7 H 0.2617 0.1267 0.4177
H9 H 0.0167 0.2258 0.5530
O6 O 0.1483(7) 0.3597(4) 0.1931(4)
O9 O 0.1484(7) 0.1956(5) 0.1519(4)
O10 O 0.1484(7) 0.3044(5) 0.3481(4)
H15 H 0.1265 0.0049 0.5907
H20 H 0.0167 0.2742 0.9470
C14 C 0.0019(10) 0.9393(7) 0.6438(6)
H12 H 0.0498 0.9402 0.6834
C18 C 0.0474(11) 0.9786(7) 0.5882(6)
O2 O 0.8627(7) 0.2184(4) 0.3302(4)
O3 O 0.6484(7) 0.1956(5) 0.3481(4)
C1 C 0.7925(10) 0.1923(6) 0.4406(5)
C2 C 0.9981(10) 0.0607(7) 0.3562(6)
H1 H 0.9502 0.0598 0.3166
C3 C 0.7046(12) 0.1529(7) 0.4803(6)
H2 H 0.6256 0.1349 0.4629
C6 C 0.9526(11) 0.0214(7) 0.4118(6)
C7 C 0.9120(11) 0.2198(7) 0.4680(6)
H5 H 0.9714 0.2461 0.4414
C8 C 0.7380(14) 0.1412(8) 0.5470(7)
H6 H 0.6812 0.1144 0.5746
C10 C 0.8549(15) 0.1690(9) 0.5726(7)
H8 H 0.8753 0.1608 0.6173
C11 C 0.9390(13) 0.2074(9) 0.5345(7)
H10 H 0.8341 0.1281 0.2188
H11 H 0.9431 0.1131 0.1803
C12 C 0.7644(9) 0.2028(6) 0.3672(6)
O4 O 0.9151(7) 0.1277(5) 0.2159(4)
La3 La 0.53061(8) 0.2500 0.2500
O7 O 0.8627(7) 0.2816(4) 0.1698(4)
O8 O 0.6484(7) 0.3044(5) 0.1519(4)
C13 C 0.7925(10) 0.3077(6) 0.0594(5)
C15 C 0.7046(12) 0.3471(7) 0.0197(6)
H13 H 0.6256 0.3651 0.0371
C19 C 0.9120(11) 0.2802(7) 0.0320(6)
H16 H 0.9714 0.2539 0.0586
H21 H 0.8341 0.3719 0.2812
H22 H 0.9431 0.3869 0.3197
C24 C 0.7644(9) 0.2972(6) 0.1328(6)
O11 O 0.9151(7) 0.3723(5) 0.2841(4)
C20 C 0.7380(14) 0.3588(8) 0.9530(7)
H17 H 0.6812 0.3856 0.9254
C22 C 0.8549(15) 0.3310(9) 0.9274(7)
H19 H 0.8753 0.3392 0.8827
C23 C 0.9390(13) 0.2926(9) 0.9655(7)
H4 H 0.8735 0.9951 0.4093
La2 La 0.96939(8) 0.7500 0.7500
O5 O 0.8517(7) 0.8597(4) 0.6931(4)
N2 N 0.8902(9) 0.9006(5) 0.6403(5)
C16 C 0.9759(11) 0.9789(6) 0.5293(6)
C17 C 0.8587(11) 0.9399(7) 0.5301(6)
H14 H 0.8061 0.9407 0.4920
C21 C 0.8167(11) 0.9003(7) 0.5841(6)
H18 H 0.7383 0.8733 0.5823
O5_2 O 0.6483(7) 0.1403(4) 0.1931(4)
N2_2 N 0.6098(9) 0.0994(5) 0.1403(5)
C14_2 C 0.4981(10) 0.0607(7) 0.1438(6)
H12_2 H 0.4502 0.0598 0.1834
C16_2 C 0.5241(11) 0.0211(6) 0.0293(6)
C17_2 C 0.6413(11) 0.0601(7) 0.0301(6)
C18_2 C 0.4526(11) 0.0214(7) 0.0882(6)
C21_2 C 0.6833(11) 0.0997(7) 0.0841(6)
H18_2 H 0.7617 0.1267 0.0823
La1_2 La 0.46939(8) 0.7500 0.7500
O1_2 O 0.3517(7) 0.8597(4) 0.8069(4)
O2_2 O 0.6373(7) 0.7816(4) 0.8302(4)
N1_2 N 0.3902(9) 0.9006(5) 0.8597(5)
O3_2 O 0.8516(7) 0.8044(5) 0.8481(4)
C1_2 C 0.7075(10) 0.8077(6) 0.9406(5)
C2_2 C 0.5019(10) 0.9393(7) 0.8562(6)
H1_2 H 0.5498 0.9402 0.8166
C3_2 C 0.7954(12) 0.8471(7) 0.9803(6)
H2_2 H 0.8744 0.8651 0.9629
C4_2 C 0.4759(11) 0.9789(6) 0.9707(6)
C5_2 C 0.3587(11) 0.9399(7) 0.9699(6)
C6_2 C 0.5474(11) 0.9786(7) 0.9118(6)
C7_2 C 0.5880(11) 0.7802(7) 0.9680(6)
H5_2 H 0.5286 0.7539 0.9414
C9_2 C 0.3167(11) 0.9003(7) 0.9159(6)
H7_2 H 0.2383 0.8733 0.9177
H10_2 H 0.6659 0.8719 0.7188
H11_2 H 0.5569 0.8869 0.6803
C12_2 C 0.7356(9) 0.7972(6) 0.8672(6)
O4_2 O 0.5849(7) 0.8723(5) 0.7159(4)
O6_2 O 0.3517(7) 0.6403(4) 0.6931(4)
O7_2 O 0.6373(7) 0.7184(4) 0.6698(4)
O8_2 O 0.8516(7) 0.6956(5) 0.6519(4)
O9_2 O 0.3516(7) 0.8044(5) 0.6519(4)
O10_2 O 0.3516(7) 0.6956(5) 0.8481(4)
C13_2 C 0.7075(10) 0.6923(6) 0.5594(5)
C15_2 C 0.7954(12) 0.6529(7) 0.5197(6)
H13_2 H 0.8744 0.6349 0.5371
C19_2 C 0.5880(11) 0.7198(7) 0.5320(6)
H16_2 H 0.5286 0.7461 0.5586
C20_2 C 0.7620(14) 0.6412(8) 0.4530(7)
H17_2 H 0.8188 0.6144 0.4254
C22_2 C 0.6451(15) 0.6690(9) 0.4274(7)
H19_2 H 0.6247 0.6608 0.3827
C23_2 C 0.5610(13) 0.7074(9) 0.4655(7)
H20_2 H 0.4833 0.7258 0.4470
H21_2 H 0.6659 0.6281 0.7812
H22_2 H 0.5569 0.6131 0.8197
C24_2 C 0.7356(9) 0.7028(6) 0.6328(6)
O11_2 O 0.5849(7) 0.6277(5) 0.7841(4)
N1_3 N 0.1098(9) 0.4006(5) 0.1403(5)
C4_3 C 0.0241(11) 0.4789(6) 0.0293(6)
C5_3 C 0.1413(11) 0.4399(7) 0.0301(6)
C9_3 C 0.1833(11) 0.4003(7) 0.0841(6)
H7_3 H 0.2617 0.3733 0.0823
H3_2 H 0.1939 0.4407 0.9920
C14_3 C 0.0019(10) 0.5607(7) 0.8562(6)
H12_3 H 0.0498 0.5598 0.8166
C18_3 C 0.0474(11) 0.5214(7) 0.9118(6)
H15_2 H 0.1265 0.4951 0.9093
C2_3 C 0.9981(10) 0.4393(7) 0.1438(6)
H1_3 H 0.9502 0.4402 0.1834
C6_3 C 0.9526(11) 0.4786(7) 0.0882(6)
H4_2 H 0.8735 0.5049 0.0907
H14_2 H 0.8061 0.5593 0.0080
O5_3 O 0.8517(7) 0.6403(4) 0.8069(4)
N2_3 N 0.8902(9) 0.5994(5) 0.8597(5)
C16_3 C 0.9759(11) 0.5211(6) 0.9707(6)
C17_3 C 0.8587(11) 0.5601(7) 0.9699(6)
C21_3 C 0.8167(11) 0.5997(7) 0.9159(6)
H18_3 H 0.7383 0.6267 0.9177
N1_4 N 0.3902(9) 0.5994(5) 0.6403(5)
C2_4 C 0.5019(10) 0.5607(7) 0.6438(6)
H1_4 H 0.5498 0.5598 0.6834
C4_4 C 0.4759(11) 0.5211(6) 0.5293(6)
C5_4 C 0.3587(11) 0.5601(7) 0.5301(6)
H3_3 H 0.3061 0.5593 0.4920
C6_4 C 0.5474(11) 0.5214(7) 0.5882(6)
H4_3 H 0.6265 0.4951 0.5907
C9_4 C 0.3167(11) 0.5997(7) 0.5841(6)
H7_4 H 0.2383 0.6267 0.5823
O5_4 O 0.6483(7) 0.3597(4) 0.3069(4)
N2_4 N 0.6098(9) 0.4006(5) 0.3597(5)
C14_4 C 0.4981(10) 0.4393(7) 0.3562(6)
H12_4 H 0.4502 0.4402 0.3166
C16_4 C 0.5241(11) 0.4789(6) 0.4707(6)
C17_4 C 0.6413(11) 0.4399(7) 0.4699(6)
H14_3 H 0.6939 0.4407 0.5080
C18_4 C 0.4526(11) 0.4786(7) 0.4118(6)
H15_3 H 0.3735 0.5049 0.4093
C21_4 C 0.6833(11) 0.4003(7) 0.4159(6)
H18_4 H 0.7617 0.3733 0.4177
C20_3 C 0.2620(14) 0.6412(8) 0.0470(7)
H17_3 H 0.3188 0.6144 0.0746
C22_3 C 0.1451(15) 0.6690(9) 0.0726(7)
H19_3 H 0.1247 0.6608 0.1173
C23_3 C 0.0610(13) 0.7074(9) 0.0345(7)
O2_3 O 0.1373(7) 0.7816(4) 0.6698(4)
C1_3 C 0.2075(10) 0.8077(6) 0.5594(5)
C3_3 C 0.2954(12) 0.8471(7) 0.5197(6)
H2_3 H 0.3744 0.8651 0.5371
C7_3 C 0.0880(11) 0.7802(7) 0.5320(6)
H5_3 H 0.0286 0.7539 0.5586
C8_2 C 0.2620(14) 0.8588(8) 0.4530(7)
H6_2 H 0.3188 0.8856 0.4254
C10_2 C 0.1451(15) 0.8310(9) 0.4274(7)
H8_2 H 0.1247 0.8392 0.3827
C11_2 C 0.0610(13) 0.7926(9) 0.4655(7)
H10_3 H 0.1659 0.8719 0.7812
H11_3 H 0.0569 0.8869 0.8197
C12_3 C 0.2356(9) 0.7972(6) 0.6328(6)
O4_3 O 0.0849(7) 0.8723(5) 0.7841(4)
O7_3 O 0.1373(7) 0.7184(4) 0.8302(4)
C13_3 C 0.2075(10) 0.6923(6) 0.9406(5)
C15_3 C 0.2954(12) 0.6529(7) 0.9803(6)
H13_3 H 0.3744 0.6349 0.9629
C19_3 C 0.0880(11) 0.7198(7) 0.9680(6)
H16_3 H 0.0286 0.7461 0.9414
H21_3 H 0.1659 0.6281 0.7188
H22_3 H 0.0569 0.6131 0.6803
C24_3 C 0.2356(9) 0.7028(6) 0.8672(6)
O11_3 O 0.0849(7) 0.6277(5) 0.7159(4)
H20_3 H 0.9833 0.7258 0.0530
H9_2 H 0.9833 0.7742 0.4470
O2_4 O 0.3627(7) 0.2184(4) 0.1698(4)
C1_4 C 0.2925(10) 0.1923(6) 0.0594(5)
C3_4 C 0.2046(12) 0.1529(7) 0.0197(6)
H2_4 H 0.1256 0.1349 0.0371
C7_4 C 0.4120(11) 0.2198(7) 0.0320(6)
H5_4 H 0.4714 0.2461 0.0586
H10_4 H 0.3341 0.1281 0.2812
H11_4 H 0.4431 0.1131 0.3197
C12_4 C 0.2644(9) 0.2028(6) 0.1328(6)
O4_4 O 0.4151(7) 0.1277(5) 0.2841(4)
O7_4 O 0.3627(7) 0.2816(4) 0.3302(4)
C13_4 C 0.2925(10) 0.3077(6) 0.4406(5)
C15_4 C 0.2046(12) 0.3471(7) 0.4803(6)
H13_4 H 0.1256 0.3651 0.4629
C19_4 C 0.4120(11) 0.2802(7) 0.4680(6)
H16_4 H 0.4714 0.2539 0.4414
C20_4 C 0.2380(14) 0.3588(8) 0.5470(7)
H17_4 H 0.1812 0.3856 0.5746
C22_4 C 0.3549(15) 0.3310(9) 0.5726(7)
H19_4 H 0.3753 0.3392 0.6173
C23_4 C 0.4390(13) 0.2926(9) 0.5345(7)
H20_4 H 0.5167 0.2742 0.5530
H21_4 H 0.3341 0.3719 0.2188
H22_4 H 0.4431 0.3869 0.1803
C24_4 C 0.2644(9) 0.2972(6) 0.3672(6)
O11_4 O 0.4151(7) 0.3723(5) 0.2159(4)
H4_4 H 0.6265 0.0049 0.9093
H14_4 H 0.6939 0.0593 0.9920
C8_3 C 0.2380(14) 0.1412(8) 0.9530(7)
H6_3 H 0.1812 0.1144 0.9254
C10_3 C 0.3549(15) 0.1690(9) 0.9274(7)
H8_3 H 0.3753 0.1608 0.8827
C11_3 C 0.4390(13) 0.2074(9) 0.9655(7)
H9_3 H 0.5167 0.2258 0.9470
H3_4 H 0.3061 0.9407 0.0080
C8_4 C 0.7620(14) 0.8588(8) 0.0470(7)
H6_4 H 0.8188 0.8856 0.0746
C10_4 C 0.6451(15) 0.8310(9) 0.0726(7)
H8_4 H 0.6247 0.8392 0.1173
C11_4 C 0.5610(13) 0.7926(9) 0.0345(7)
H9_4 H 0.4833 0.7742 0.0530
H15_4 H 0.3735 0.9951 0.0907
loop_
_geom_bond_atom_site_label_1
_geom_bond_atom_site_label_2
_geom_bond_site_symmetry_1
_geom_bond_site_symmetry_2
La1 O1 1_555 1_555
O1 N1 1_555 1_555
C4 C5 1_555 1_555
C5 H3 1_555 1_555
C9 N1 1_555 1_555
H7 C9 1_555 1_555
O6 La1 1_555 1_555
O9 La1 1_555 1_555
O10 La1 1_555 1_555
C5 C9 1_555 1_555
C14 H12 1_555 1_555
C18 C14 1_555 1_555
O3 C12 1_555 1_555
C1 C3 1_555 1_555
C2 H1 1_555 1_555
C3 H2 1_555 1_555
C6 C2 1_555 1_555
C7 C1 1_555 1_555
H5 C7 1_555 1_555
C8 C3 1_555 1_555
H6 C8 1_555 1_555
C10 C8 1_555 1_555
H8 C10 1_555 1_555
C11 C7 1_555 1_555
H10 O4 1_555 1_555
H11 O4 1_555 1_555
C12 O2 1_555 1_555
La3 O3 1_555 1_555
O8 La3 1_555 1_555
C13 C15 1_555 1_555
C15 H13 1_555 1_555
C19 C13 1_555 1_555
H16 C19 1_555 1_555
H21 O11 1_555 1_555
H22 O11 1_555 1_555
C24 O7 1_555 1_555
C1 C12 1_555 1_555
C10 C11 1_555 1_555
O8 C24 1_555 1_555
C13 C24 1_555 1_555
H17 C20 1_555 1_555
C22 C20 1_555 1_555
H19 C22 1_555 1_555
C22 C23 1_555 1_555
La2 O5 1_555 1_555
O5 N2 1_555 1_555
C17 C16 1_555 1_555
H14 C17 1_555 1_555
C21 N2 1_555 1_555
H18 C21 1_555 1_555
C17 C21 1_555 1_555
La3 O5_2 1_555 1_555
O5_2 N2_2 1_555 1_555
N2_2 C14_2 1_555 1_555
C14_2 H12_2 1_555 1_555
C17_2 C16_2 1_555 1_555
C18_2 C14_2 1_555 1_555
C21_2 N2_2 1_555 1_555
H18_2 C21_2 1_555 1_555
C16_2 C18_2 1_555 1_555
C17_2 C21_2 1_555 1_555
La1_2 O1_2 1_555 1_555
O1_2 N1_2 1_555 1_555
O2_2 La1_2 1_555 1_555
N1_2 C2_2 1_555 1_555
O3_2 C12_2 1_555 1_555
C1_2 C3_2 1_555 1_555
C2_2 H1_2 1_555 1_555
C3_2 H2_2 1_555 1_555
C4_2 C5_2 1_555 1_555
C6_2 C2_2 1_555 1_555
C7_2 C1_2 1_555 1_555
H5_2 C7_2 1_555 1_555
C9_2 N1_2 1_555 1_555
H7_2 C9_2 1_555 1_555
H10_2 O4_2 1_555 1_555
H11_2 O4_2 1_555 1_555
C12_2 O2_2 1_555 1_555
O4_2 La1_2 1_555 1_555
La2 O3_2 1_555 1_555
O6_2 La1_2 1_555 1_555
O7_2 La1_2 1_555 1_555
O8_2 La2 1_555 1_555
O9_2 La1_2 1_555 1_555
O10_2 La1_2 1_555 1_555
C13_2 C15_2 1_555 1_555
C15_2 H13_2 1_555 1_555
C19_2 C13_2 1_555 1_555
H16_2 C19_2 1_555 1_555
C20_2 C15_2 1_555 1_555
H17_2 C20_2 1_555 1_555
C22_2 C20_2 1_555 1_555
H19_2 C22_2 1_555 1_555
C23_2 C19_2 1_555 1_555
H20_2 C23_2 1_555 1_555
H21_2 O11_2 1_555 1_555
H22_2 O11_2 1_555 1_555
C24_2 O7_2 1_555 1_555
O11_2 La1_2 1_555 1_555
C1_2 C12_2 1_555 1_555
C4_2 C6_2 1_555 1_555
C5_2 C9_2 1_555 1_555
O8_2 C24_2 1_555 1_555
C13_2 C24_2 1_555 1_555
C22_2 C23_2 1_555 1_555
O6 N1_3 1_555 1_555
C4_3 C5_3 1_555 1_555
C9_3 N1_3 1_555 1_555
H7_3 C9_3 1_555 1_555
C5_3 C9_3 1_555 1_555
C14_3 H12_3 1_555 1_555
C18_3 C14_3 1_555 1_555
H15_2 C18_3 1_555 1_555
C2_3 H1_3 1_555 1_555
C6_3 C2_3 1_555 1_555
H4_2 C6_3 1_555 1_555
La2 O5_3 1_555 1_555
O5_3 N2_3 1_555 1_555
C17_3 C16_3 1_555 1_555
C21_3 N2_3 1_555 1_555
H18_3 C21_3 1_555 1_555
C17_3 C21_3 1_555 1_555
O6_2 N1_4 1_555 1_555
N1_4 C2_4 1_555 1_555
C2_4 H1_4 1_555 1_555
C4_4 C5_4 1_555 1_555
C5_4 H3_3 1_555 1_555
C6_4 C2_4 1_555 1_555
H4_3 C6_4 1_555 1_555
C9_4 N1_4 1_555 1_555
H7_4 C9_4 1_555 1_555
La3 O5_4 1_555 1_555
O5_4 N2_4 1_555 1_555
N2_4 C14_4 1_555 1_555
C14_4 H12_4 1_555 1_555
C16_4 C4_4 1_555 1_555
C17_4 C16_4 1_555 1_555
H14_3 C17_4 1_555 1_555
C18_4 C14_4 1_555 1_555
H15_3 C18_4 1_555 1_555
C21_4 N2_4 1_555 1_555
H18_4 C21_4 1_555 1_555
C4_4 C6_4 1_555 1_555
C5_4 C9_4 1_555 1_555
C16_4 C18_4 1_555 1_555
C17_4 C21_4 1_555 1_555
H17_3 C20_3 1_555 1_555
C22_3 C20_3 1_555 1_555
H19_3 C22_3 1_555 1_555
C22_3 C23_3 1_555 1_555
O9_2 C12_3 1_555 1_555
C1_3 C3_3 1_555 1_555
C3_3 H2_3 1_555 1_555
C7_3 C1_3 1_555 1_555
H5_3 C7_3 1_555 1_555
C8_2 C3_3 1_555 1_555
H6_2 C8_2 1_555 1_555
C10_2 C8_2 1_555 1_555
H8_2 C10_2 1_555 1_555
C11_2 C7_3 1_555 1_555
H10_3 O4_3 1_555 1_555
H11_3 O4_3 1_555 1_555
C12_3 O2_3 1_555 1_555
C13_3 C15_3 1_555 1_555
C15_3 H13_3 1_555 1_555
C19_3 C13_3 1_555 1_555
H16_3 C19_3 1_555 1_555
H21_3 O11_3 1_555 1_555
H22_3 O11_3 1_555 1_555
C24_3 O7_3 1_555 1_555
C1_3 C12_3 1_555 1_555
C10_2 C11_2 1_555 1_555
O10_2 C24_3 1_555 1_555
C13_3 C24_3 1_555 1_555
O2_4 La3 1_555 1_555
O9 C12_4 1_555 1_555
C1_4 C3_4 1_555 1_555
C3_4 H2_4 1_555 1_555
C7_4 C1_4 1_555 1_555
H5_4 C7_4 1_555 1_555
H10_4 O4_4 1_555 1_555
H11_4 O4_4 1_555 1_555
C12_4 O2_4 1_555 1_555
O4_4 La3 1_555 1_555
O7_4 La3 1_555 1_555
C13_4 C15_4 1_555 1_555
C15_4 H13_4 1_555 1_555
C19_4 C13_4 1_555 1_555
H16_4 C19_4 1_555 1_555
C20_4 C15_4 1_555 1_555
H17_4 C20_4 1_555 1_555
C22_4 C20_4 1_555 1_555
H19_4 C22_4 1_555 1_555
C23_4 C19_4 1_555 1_555
H20_4 C23_4 1_555 1_555
H21_4 O11_4 1_555 1_555
H22_4 O11_4 1_555 1_555
C24_4 O7_4 1_555 1_555
O11_4 La3 1_555 1_555
C1_4 C12_4 1_555 1_555
O10 C24_4 1_555 1_555
C13_4 C24_4 1_555 1_555
C22_4 C23_4 1_555 1_555
H6_3 C8_3 1_555 1_555
C10_3 C8_3 1_555 1_555
H8_3 C10_3 1_555 1_555
H9_3 C11_3 1_555 1_555
C10_3 C11_3 1_555 1_555
H6_4 C8_4 1_555 1_555
C10_4 C8_4 1_555 1_555
H8_4 C10_4 1_555 1_555
H9_4 C11_4 1_555 1_555
C10_4 C11_4 1_555 1_555

#END
