
###############################################################################
#
# This file contains modified crystal structure data generated from the
# MOF subset of the Cambridge Structural Database (CSD) v543 
# hosted by the Cambridge Crystallographic Data Centre (CCDC).
#
# This work is licensed under the Creative Commons
# Attribution-NonCommercial-ShareAlike 4.0 International License.
# To view a copy of this license, visit
# http://creativecommons.org/licenses/by-nc-sa/4.0/
# or send a letter to
# Creative Commons, PO Box 1866, Mountain View, CA 94042, USA.
#
# CIF created using the CSD Python API on 29 September 2022
# The structure has been converted into the P1 space group
# The structure has a 3D framework
# The original CSD entry OTAVUB is in the orthorhombic crystal system
# The framework has been calculated to contain at least 10.0% void space
# The void calculation uses a probe of radius 1.32A, grid spacing 0.4
#
###############################################################################

data_OTAVUB
_chemical_formula_moiety         '(C96 H88 Eu4 N8 O32)n'
_symmetry_cell_setting           triclinic
_symmetry_space_group_name_H-M   'P 1'
_symmetry_Int_Tables_number      1
_space_group_name_Hall           'P 1'
loop_
_symmetry_equiv_pos_site_id
_symmetry_equiv_pos_as_xyz
1 x,y,z
_cell_length_a                   17.7412(8)
_cell_length_b                   19.8116(7)
_cell_length_c                   10.0546(3)
_cell_angle_alpha                90
_cell_angle_beta                 90
_cell_angle_gamma                90
_cell_volume                     3534.01
loop_
_atom_site_label
_atom_site_type_symbol
_atom_site_fract_x
_atom_site_fract_y
_atom_site_fract_z
Eu1 Eu 0.2500 0.2500 0.468408(19)
O1 O 0.19754(15) 0.15958(12) 0.3429(2)
O2 O 0.14386(14) 0.30597(11) 0.3508(2)
N1 N 0.10342(15) 0.35915(13) 0.3907(3)
C1 C 0.20427(19) 0.13590(16) 0.2280(3)
C2 C 0.1923(2) 0.06180(16) 0.2064(3)
C4 C 0.1540(2) 0.02241(19) 0.2958(4)
H2 H 0.1365 0.0411 0.3748
C5 C 0.2191(2) 0.03255(19) 0.0888(4)
H3 H 0.2445 0.0589 0.0267
C8 C 0.02103(19) 0.47020(16) 0.4761(3)
C9 C 0.0624(2) 0.35512(18) 0.5029(3)
H6 H 0.0614 0.3151 0.5513
C10 C 0.1021(2) 0.41571(18) 0.3174(3)
H7 H 0.1292 0.4175 0.2382
C11 C 0.0616(2) 0.47069(18) 0.3577(4)
H8 H 0.0612 0.5092 0.3049
C12 C 0.0221(2) 0.41008(18) 0.5462(4)
O3 O 0.13242(15) 0.21566(14) 0.5799(3)
O4 O 0.21970(15) 0.17027(12) 0.1281(2)
H10 H 0.132(2) 0.2139(19) 0.658(4)
H11 H 0.104(2) 0.1843(19) 0.553(4)
O5 O 0.30246(15) 0.34042(12) 0.3429(2)
O7 O 0.35614(14) 0.19403(11) 0.3508(2)
C13 C 0.29573(19) 0.36410(16) 0.2280(3)
C14 C 0.3077(2) 0.43820(16) 0.2064(3)
C15 C 0.3588(3) 0.5457(2) 0.2683(5)
H12 H 0.3857 0.5721 0.3284
C16 C 0.3460(2) 0.47759(19) 0.2958(4)
H13 H 0.3635 0.4589 0.3748
C17 C 0.2809(2) 0.46745(19) 0.0888(4)
H14 H 0.2555 0.4411 0.0267
C18 C 0.2921(3) 0.5353(2) 0.0646(5)
C19 C 0.3320(3) 0.5738(2) 0.1536(5)
H16 H 0.3408 0.6192 0.1357
H20 H 0.0053 0.5932 0.3751
O8 O 0.36758(15) 0.28434(14) 0.5799(3)
O9 O 0.28030(15) 0.32973(12) 0.1281(2)
O10 O 0.21970(15) 0.32973(12) 0.6281(2)
O11 O 0.28030(15) 0.17027(12) 0.6281(2)
H21 H 0.368(2) 0.2861(19) 0.658(4)
H22 H 0.396(2) 0.3157(19) 0.553(4)
Eu3 Eu 0.2500 0.2500 0.968408(19)
H15 H 0.2725 0.5549 0.9880
C3 C 0.1412(3) 0.9543(2) 0.2683(5)
H1 H 0.1143 0.9279 0.3284
C6 C 0.2079(3) 0.9647(2) 0.0646(5)
C7 C 0.1680(3) 0.9262(2) 0.1536(5)
H5 H 0.1592 0.8808 0.1357
H9 H 0.9947 0.4068 0.6249
Eu2 Eu 0.7500 0.7500 0.531592(19)
O6 O 0.85614(14) 0.69403(11) 0.6492(2)
N2 N 0.89658(15) 0.64085(13) 0.6093(3)
C20 C 0.97897(19) 0.52980(16) 0.5239(3)
C21 C 0.9376(2) 0.64488(18) 0.4971(3)
H17 H 0.9386 0.6849 0.4487
C22 C 0.8979(2) 0.58429(18) 0.6826(3)
H18 H 0.8708 0.5825 0.7618
C23 C 0.9384(2) 0.52931(18) 0.6423(4)
H19 H 0.9388 0.4908 0.6951
C24 C 0.9779(2) 0.58992(18) 0.4538(4)
N1_2 N 0.39658(15) 0.14085(13) 0.3907(3)
C8_2 C 0.47897(19) 0.02980(16) 0.4761(3)
C9_2 C 0.4376(2) 0.14488(18) 0.5029(3)
H6_2 H 0.4386 0.1849 0.5513
C10_2 C 0.3979(2) 0.08429(18) 0.3174(3)
H7_2 H 0.3708 0.0825 0.2382
C11_2 C 0.4384(2) 0.02931(18) 0.3577(4)
C12_2 C 0.4779(2) 0.08992(18) 0.5462(4)
H9_2 H 0.5053 0.0932 0.6249
H19_2 H 0.5612 0.0092 0.6951
H8_2 H 0.4388 0.9908 0.3049
O6_2 O 0.64386(14) 0.80597(11) 0.6492(2)
N2_2 N 0.60342(15) 0.85915(13) 0.6093(3)
C20_2 C 0.52103(19) 0.97020(16) 0.5239(3)
C21_2 C 0.5624(2) 0.85512(18) 0.4971(3)
H17_2 H 0.5614 0.8151 0.4487
C22_2 C 0.6021(2) 0.91571(18) 0.6826(3)
H18_2 H 0.6292 0.9175 0.7618
C23_2 C 0.5616(2) 0.97069(18) 0.6423(4)
C24_2 C 0.5221(2) 0.91008(18) 0.4538(4)
H20_2 H 0.4947 0.9068 0.3751
C21_3 C 0.0624(2) 0.14488(18) 0.0029(3)
H17_3 H 0.0614 0.1849 0.0513
C24_3 C 0.0221(2) 0.08992(18) 0.0462(4)
O6_3 O 0.14386(14) 0.19403(11) 0.8508(2)
N2_3 N 0.10342(15) 0.14085(13) 0.8907(3)
C20_3 C 0.02103(19) 0.02980(16) 0.9761(3)
C22_3 C 0.1021(2) 0.08429(18) 0.8174(3)
H18_3 H 0.1292 0.0825 0.7382
C23_3 C 0.0616(2) 0.02931(18) 0.8577(4)
Eu1_2 Eu 0.7500 0.7500 0.031592(19)
O1_2 O 0.80246(15) 0.65958(12) 0.1571(2)
O2_2 O 0.85614(14) 0.80597(11) 0.1492(2)
N1_3 N 0.89658(15) 0.85915(13) 0.1093(3)
C1_2 C 0.79573(19) 0.63590(16) 0.2720(3)
C2_2 C 0.8077(2) 0.56180(16) 0.2936(3)
C3_2 C 0.8588(3) 0.4543(2) 0.2317(5)
H1_2 H 0.8857 0.4279 0.1716
C4_2 C 0.8460(2) 0.52241(19) 0.2042(4)
H2_2 H 0.8635 0.5411 0.1252
C5_2 C 0.7809(2) 0.53255(19) 0.4112(4)
H3_2 H 0.7555 0.5589 0.4733
C6_2 C 0.7921(3) 0.4647(2) 0.4354(5)
H4 H 0.7725 0.4451 0.5120
C7_2 C 0.8320(3) 0.4262(2) 0.3464(5)
H5_2 H 0.8408 0.3808 0.3643
C8_3 C 0.97897(19) 0.97020(16) 0.0239(3)
C10_3 C 0.8979(2) 0.91571(18) 0.1826(3)
H7_3 H 0.8708 0.9175 0.2618
C11_3 C 0.9384(2) 0.97069(18) 0.1423(4)
O4_2 O 0.78030(15) 0.67027(12) 0.3719(2)
O5_2 O 0.69754(15) 0.84042(12) 0.1571(2)
O7_2 O 0.64386(14) 0.69403(11) 0.1492(2)
C13_2 C 0.70427(19) 0.86410(16) 0.2720(3)
C14_2 C 0.6923(2) 0.93820(16) 0.2936(3)
C16_2 C 0.6540(2) 0.97759(19) 0.2042(4)
H13_2 H 0.6365 0.9589 0.1252
C17_2 C 0.7191(2) 0.96745(19) 0.4112(4)
H14_2 H 0.7445 0.9411 0.4733
O9_2 O 0.71970(15) 0.82973(12) 0.3719(2)
C9_3 C 0.9376(2) 0.85512(18) 0.9971(3)
H6_3 H 0.9386 0.8151 0.9487
C12_3 C 0.9779(2) 0.91008(18) 0.9538(4)
O3_2 O 0.86758(15) 0.71566(14) 0.9201(3)
H10_2 H 0.868(2) 0.7139(19) 0.842(4)
H11_2 H 0.896(2) 0.6843(19) 0.947(4)
O8_2 O 0.63242(15) 0.78434(14) 0.9201(3)
O10_2 O 0.78030(15) 0.82973(12) 0.8719(2)
O11_2 O 0.71970(15) 0.67027(12) 0.8719(2)
H21_2 H 0.632(2) 0.7861(19) 0.842(4)
H22_2 H 0.604(2) 0.8157(19) 0.947(4)
N1_4 N 0.60342(15) 0.64085(13) 0.1093(3)
C8_4 C 0.52103(19) 0.52980(16) 0.0239(3)
C10_4 C 0.6021(2) 0.58429(18) 0.1826(3)
H7_4 H 0.6292 0.5825 0.2618
C11_4 C 0.5616(2) 0.52931(18) 0.1423(4)
H8_3 H 0.5612 0.4908 0.1951
C21_4 C 0.4376(2) 0.35512(18) 0.0029(3)
H17_4 H 0.4386 0.3151 0.0513
C24_4 C 0.4779(2) 0.41008(18) 0.0462(4)
H20_3 H 0.5053 0.4068 0.1249
C9_4 C 0.5624(2) 0.64488(18) 0.9971(3)
H6_4 H 0.5614 0.6849 0.9487
C12_4 C 0.5221(2) 0.58992(18) 0.9538(4)
H9_3 H 0.4947 0.5932 0.8751
O6_4 O 0.35614(14) 0.30597(11) 0.8508(2)
N2_4 N 0.39658(15) 0.35915(13) 0.8907(3)
C20_4 C 0.47897(19) 0.47020(16) 0.9761(3)
C22_4 C 0.3979(2) 0.41571(18) 0.8174(3)
H18_4 H 0.3708 0.4175 0.7382
C23_4 C 0.4384(2) 0.47069(18) 0.8577(4)
H19_3 H 0.4388 0.5092 0.8049
C3_3 C 0.8588(3) 0.0457(2) 0.7317(5)
H1_3 H 0.8857 0.0721 0.6716
C6_3 C 0.7921(3) 0.0353(2) 0.9354(5)
C7_3 C 0.8320(3) 0.0738(2) 0.8464(5)
H5_3 H 0.8408 0.1192 0.8643
H15_2 H 0.7275 0.4451 0.0120
O1_3 O 0.80246(15) 0.84042(12) 0.6571(2)
C1_3 C 0.79573(19) 0.86410(16) 0.7720(3)
C2_3 C 0.8077(2) 0.93820(16) 0.7936(3)
C4_3 C 0.8460(2) 0.97759(19) 0.7042(4)
H2_3 H 0.8635 0.9589 0.6252
C5_3 C 0.7809(2) 0.96745(19) 0.9112(4)
H3_3 H 0.7555 0.9411 0.9733
O3_3 O 0.86758(15) 0.78434(14) 0.4201(3)
H10_3 H 0.868(2) 0.7861(19) 0.342(4)
H11_3 H 0.896(2) 0.8157(19) 0.447(4)
O5_3 O 0.69754(15) 0.65958(12) 0.6571(2)
C13_3 C 0.70427(19) 0.63590(16) 0.7720(3)
C14_3 C 0.6923(2) 0.56180(16) 0.7936(3)
C15_2 C 0.6412(3) 0.4543(2) 0.7317(5)
H12_2 H 0.6143 0.4279 0.6716
C16_3 C 0.6540(2) 0.52241(19) 0.7042(4)
H13_3 H 0.6365 0.5411 0.6252
C17_3 C 0.7191(2) 0.53255(19) 0.9112(4)
H14_3 H 0.7445 0.5589 0.9733
C18_2 C 0.7079(3) 0.4647(2) 0.9354(5)
C19_2 C 0.6680(3) 0.4262(2) 0.8464(5)
H16_2 H 0.6592 0.3808 0.8643
O8_3 O 0.63242(15) 0.71566(14) 0.4201(3)
H21_3 H 0.632(2) 0.7139(19) 0.342(4)
H22_3 H 0.604(2) 0.6843(19) 0.447(4)
O3_4 O 0.13242(15) 0.28434(14) 0.0799(3)
H10_4 H 0.132(2) 0.2861(19) 0.158(4)
H11_4 H 0.104(2) 0.3157(19) 0.053(4)
O8_4 O 0.36758(15) 0.21566(14) 0.0799(3)
H21_4 H 0.368(2) 0.2139(19) 0.158(4)
H22_4 H 0.396(2) 0.1843(19) 0.053(4)
O1_4 O 0.19754(15) 0.34042(12) 0.8429(2)
C1_4 C 0.20427(19) 0.36410(16) 0.7280(3)
C2_4 C 0.1923(2) 0.43820(16) 0.7064(3)
C3_4 C 0.1412(3) 0.5457(2) 0.7683(5)
H1_4 H 0.1143 0.5721 0.8284
C4_4 C 0.1540(2) 0.47759(19) 0.7958(4)
H2_4 H 0.1365 0.4589 0.8748
C5_4 C 0.2191(2) 0.46745(19) 0.5888(4)
H3_4 H 0.2445 0.4411 0.5267
C6_4 C 0.2079(3) 0.5353(2) 0.5646(5)
H4_2 H 0.2275 0.5549 0.4880
C7_4 C 0.1680(3) 0.5738(2) 0.6536(5)
H5_4 H 0.1592 0.6192 0.6357
O5_4 O 0.30246(15) 0.15958(12) 0.8429(2)
C13_4 C 0.29573(19) 0.13590(16) 0.7280(3)
C14_4 C 0.3077(2) 0.06180(16) 0.7064(3)
C16_4 C 0.3460(2) 0.02241(19) 0.7958(4)
H13_4 H 0.3635 0.0411 0.8748
C17_4 C 0.2809(2) 0.03255(19) 0.5888(4)
H14_4 H 0.2555 0.0589 0.5267
H4_3 H 0.2275 0.9451 0.9880
H9_4 H 0.0053 0.9068 0.8751
H19_4 H 0.0612 0.9908 0.8049
C15_3 C 0.3588(3) 0.9543(2) 0.7683(5)
H12_3 H 0.3857 0.9279 0.8284
C18_3 C 0.2921(3) 0.9647(2) 0.5646(5)
H15_3 H 0.2725 0.9451 0.4880
C19_3 C 0.3320(3) 0.9262(2) 0.6536(5)
H16_3 H 0.3408 0.8808 0.6357
H8_4 H 0.9388 0.0092 0.1951
C15_4 C 0.6412(3) 0.0457(2) 0.2317(5)
H12_4 H 0.6143 0.0721 0.1716
C18_4 C 0.7079(3) 0.0353(2) 0.4354(5)
H15_4 H 0.7275 0.0549 0.5120
C19_4 C 0.6680(3) 0.0738(2) 0.3464(5)
H16_4 H 0.6592 0.1192 0.3643
H20_4 H 0.9947 0.0932 0.1249
H4_4 H 0.7725 0.0549 0.0120
loop_
_geom_bond_atom_site_label_1
_geom_bond_atom_site_label_2
_geom_bond_site_symmetry_1
_geom_bond_site_symmetry_2
Eu1 O1 1_555 1_555
O1 C1 1_555 1_555
O2 Eu1 1_555 1_555
N1 O2 1_555 1_555
C1 C2 1_555 1_555
C2 C4 1_555 1_555
H2 C4 1_555 1_555
C5 C2 1_555 1_555
H3 C5 1_555 1_555
C8 C11 1_555 1_555
C9 N1 1_555 1_555
H6 C9 1_555 1_555
C10 N1 1_555 1_555
H7 C10 1_555 1_555
C11 C10 1_555 1_555
H8 C11 1_555 1_555
C12 C8 1_555 1_555
O3 Eu1 1_555 1_555
O4 C1 1_555 1_555
H10 O3 1_555 1_555
H11 O3 1_555 1_555
O5 Eu1 1_555 1_555
O7 Eu1 1_555 1_555
C13 O5 1_555 1_555
C14 C13 1_555 1_555
C15 H12 1_555 1_555
C16 C14 1_555 1_555
H13 C16 1_555 1_555
C17 C14 1_555 1_555
H14 C17 1_555 1_555
C18 C17 1_555 1_555
C19 C15 1_555 1_555
H16 C19 1_555 1_555
O8 Eu1 1_555 1_555
O10 Eu1 1_555 1_555
O11 Eu1 1_555 1_555
H21 O8 1_555 1_555
H22 O8 1_555 1_555
C9 C12 1_555 1_555
C13 O9 1_555 1_555
C15 C16 1_555 1_555
C18 C19 1_555 1_555
C3 H1 1_555 1_555
C7 C3 1_555 1_555
H5 C7 1_555 1_555
C6 C7 1_555 1_555
Eu2 O6 1_555 1_555
O6 N2 1_555 1_555
N2 C21 1_555 1_555
C21 H17 1_555 1_555
C22 N2 1_555 1_555
H18 C22 1_555 1_555
C23 C20 1_555 1_555
H19 C23 1_555 1_555
C24 C20 1_555 1_555
C21 C24 1_555 1_555
C22 C23 1_555 1_555
N1_2 O7 1_555 1_555
C8_2 C11_2 1_555 1_555
C9_2 N1_2 1_555 1_555
H6_2 C9_2 1_555 1_555
C10_2 N1_2 1_555 1_555
H7_2 C10_2 1_555 1_555
C11_2 C10_2 1_555 1_555
C12_2 C8_2 1_555 1_555
H9_2 C12_2 1_555 1_555
C9_2 C12_2 1_555 1_555
Eu2 O6_2 1_555 1_555
O6_2 N2_2 1_555 1_555
N2_2 C21_2 1_555 1_555
C21_2 H17_2 1_555 1_555
C22_2 N2_2 1_555 1_555
H18_2 C22_2 1_555 1_555
C23_2 C20_2 1_555 1_555
C24_2 C20_2 1_555 1_555
H20_2 C24_2 1_555 1_555
C21_2 C24_2 1_555 1_555
C22_2 C23_2 1_555 1_555
C21_3 H17_3 1_555 1_555
C21_3 C24_3 1_555 1_555
Eu3 O6_3 1_555 1_555
O6_3 N2_3 1_555 1_555
C22_3 N2_3 1_555 1_555
H18_3 C22_3 1_555 1_555
C23_3 C20_3 1_555 1_555
C22_3 C23_3 1_555 1_555
Eu1_2 O1_2 1_555 1_555
O1_2 C1_2 1_555 1_555
O2_2 Eu1_2 1_555 1_555
N1_3 O2_2 1_555 1_555
C1_2 C2_2 1_555 1_555
C2_2 C4_2 1_555 1_555
C3_2 H1_2 1_555 1_555
C4_2 C3_2 1_555 1_555
H2_2 C4_2 1_555 1_555
C5_2 C2_2 1_555 1_555
H3_2 C5_2 1_555 1_555
C6_2 C5_2 1_555 1_555
H4 C6_2 1_555 1_555
C7_2 C3_2 1_555 1_555
H5_2 C7_2 1_555 1_555
C8_3 C11_3 1_555 1_555
C10_3 N1_3 1_555 1_555
H7_3 C10_3 1_555 1_555
C11_3 C10_3 1_555 1_555
O4_2 C1_2 1_555 1_555
Eu2 O4_2 1_555 1_555
O5_2 Eu1_2 1_555 1_555
O7_2 Eu1_2 1_555 1_555
C13_2 O5_2 1_555 1_555
C14_2 C13_2 1_555 1_555
C16_2 C14_2 1_555 1_555
H13_2 C16_2 1_555 1_555
C17_2 C14_2 1_555 1_555
H14_2 C17_2 1_555 1_555
O9_2 Eu2 1_555 1_555
C6_2 C7_2 1_555 1_555
C13_2 O9_2 1_555 1_555
H6_3 C9_3 1_555 1_555
H10_2 O3_2 1_555 1_555
H11_2 O3_2 1_555 1_555
H21_2 O8_2 1_555 1_555
H22_2 O8_2 1_555 1_555
C9_3 C12_3 1_555 1_555
N1_4 O7_2 1_555 1_555
C8_4 C11_4 1_555 1_555
C10_4 N1_4 1_555 1_555
H7_4 C10_4 1_555 1_555
C11_4 C10_4 1_555 1_555
H8_3 C11_4 1_555 1_555
C21_4 H17_4 1_555 1_555
H20_3 C24_4 1_555 1_555
C21_4 C24_4 1_555 1_555
H6_4 C9_4 1_555 1_555
H9_3 C12_4 1_555 1_555
Eu3 O6_4 1_555 1_555
O6_4 N2_4 1_555 1_555
C22_4 N2_4 1_555 1_555
H18_4 C22_4 1_555 1_555
C23_4 C20_4 1_555 1_555
H19_3 C23_4 1_555 1_555
C9_4 C12_4 1_555 1_555
C22_4 C23_4 1_555 1_555
C3_3 H1_3 1_555 1_555
C7_3 C3_3 1_555 1_555
H5_3 C7_3 1_555 1_555
C6_3 C7_3 1_555 1_555
Eu2 O1_3 1_555 1_555
O1_3 C1_3 1_555 1_555
C1_3 C2_3 1_555 1_555
C2_3 C4_3 1_555 1_555
H2_3 C4_3 1_555 1_555
C5_3 C2_3 1_555 1_555
H3_3 C5_3 1_555 1_555
O3_3 Eu2 1_555 1_555
O10_2 C1_3 1_555 1_555
H10_3 O3_3 1_555 1_555
H11_3 O3_3 1_555 1_555
O5_3 Eu2 1_555 1_555
C13_3 O5_3 1_555 1_555
C14_3 C13_3 1_555 1_555
C15_2 H12_2 1_555 1_555
C16_3 C14_3 1_555 1_555
H13_3 C16_3 1_555 1_555
C17_3 C14_3 1_555 1_555
H14_3 C17_3 1_555 1_555
C18_2 C17_3 1_555 1_555
C19_2 C15_2 1_555 1_555
H16_2 C19_2 1_555 1_555
O8_3 Eu2 1_555 1_555
H21_3 O8_3 1_555 1_555
H22_3 O8_3 1_555 1_555
C13_3 O11_2 1_555 1_555
C15_2 C16_3 1_555 1_555
C18_2 C19_2 1_555 1_555
H10_4 O3_4 1_555 1_555
H11_4 O3_4 1_555 1_555
H21_4 O8_4 1_555 1_555
H22_4 O8_4 1_555 1_555
Eu3 O1_4 1_555 1_555
O1_4 C1_4 1_555 1_555
C1_4 C2_4 1_555 1_555
C2_4 C4_4 1_555 1_555
C3_4 H1_4 1_555 1_555
C4_4 C3_4 1_555 1_555
H2_4 C4_4 1_555 1_555
C5_4 C2_4 1_555 1_555
H3_4 C5_4 1_555 1_555
C6_4 C5_4 1_555 1_555
H4_2 C6_4 1_555 1_555
C7_4 C3_4 1_555 1_555
H5_4 C7_4 1_555 1_555
O10 C1_4 1_555 1_555
O5_4 Eu3 1_555 1_555
C13_4 O5_4 1_555 1_555
C14_4 C13_4 1_555 1_555
C16_4 C14_4 1_555 1_555
H13_4 C16_4 1_555 1_555
C17_4 C14_4 1_555 1_555
H14_4 C17_4 1_555 1_555
C6_4 C7_4 1_555 1_555
C13_4 O11 1_555 1_555
C15_3 H12_3 1_555 1_555
H15_3 C18_3 1_555 1_555
C19_3 C15_3 1_555 1_555
H16_3 C19_3 1_555 1_555
C18_3 C19_3 1_555 1_555
C15_4 H12_4 1_555 1_555
H15_4 C18_4 1_555 1_555
C19_4 C15_4 1_555 1_555
H16_4 C19_4 1_555 1_555
C18_4 C19_4 1_555 1_555

#END
