
###############################################################################
#
# This file contains modified crystal structure data generated from the
# MOF subset of the Cambridge Structural Database (CSD) v543 
# hosted by the Cambridge Crystallographic Data Centre (CCDC).
#
# This work is licensed under the Creative Commons
# Attribution-NonCommercial-ShareAlike 4.0 International License.
# To view a copy of this license, visit
# http://creativecommons.org/licenses/by-nc-sa/4.0/
# or send a letter to
# Creative Commons, PO Box 1866, Mountain View, CA 94042, USA.
#
# CIF created using the CSD Python API on 29 September 2022
# The structure has been converted into the P1 space group
# The structure has a 3D framework
# The original CSD entry OTEHAY is in the tetragonal crystal system
# The original CSD entry OTEHAY is in a Sohncke space group
# The framework has been calculated to contain at least 10.0% void space
# The void calculation uses a probe of radius 1.32A, grid spacing 0.4
#
###############################################################################

data_OTEHAY
_chemical_formula_moiety         '(C84 H40 In6 O34)n'
_symmetry_cell_setting           triclinic
_symmetry_space_group_name_H-M   'P 1'
_symmetry_Int_Tables_number      1
_space_group_name_Hall           'P 1'
loop_
_symmetry_equiv_pos_site_id
_symmetry_equiv_pos_as_xyz
1 x,y,z
_cell_length_a                   15.509651(39)
_cell_length_b                   15.509651(39)
_cell_length_c                   12.319720(31)
_cell_angle_alpha                90
_cell_angle_beta                 90
_cell_angle_gamma                90
_cell_volume                     2963.5
loop_
_atom_site_label
_atom_site_type_symbol
_atom_site_fract_x
_atom_site_fract_y
_atom_site_fract_z
_atom_site_U_iso_or_equiv
_atom_site_thermal_displace_type
O4 O 0.61679(37) 0.38734(38) 0.38553(37) 0.0358 Uiso
O5 O 0.70701(32) 0.40826(29) 0.24272(42) 0.0358 Uiso
C6 C 0.63877(52) 0.41321(56) 0.29373(64) 0.0446 Uiso
C7 C 0.56902(46) 0.46382(51) 0.23123(65) 0.0446 Uiso
C8 C 0.500 0.500 0.28836(79) 0.0446 Uiso
C9 C 0.57277(48) 0.47209(59) 0.11807(61) 0.0446 Uiso
C10 C 0.500 0.500 0.06041(67) 0.0446 Uiso
H4 H 0.500 0.500 0.36922 0.0429 Uiso
H5 H 0.62742 0.45882 0.08397 0.0429 Uiso
O6 O 0.38321(37) 0.61266(38) 0.38553(37) 0.0358 Uiso
O7 O 0.29299(32) 0.59174(29) 0.24272(42) 0.0358 Uiso
C11 C 0.36123(52) 0.58679(56) 0.29373(64) 0.0446 Uiso
C12 C 0.43098(46) 0.53618(51) 0.23123(65) 0.0446 Uiso
C13 C 0.42723(48) 0.52791(59) 0.11807(61) 0.0446 Uiso
H6 H 0.37258 0.54118 0.08397 0.0429 Uiso
In2 In 0.811914(42) 0.311914(42) 0.250 0.0324 Uiso
O10 O 0.74185(45) 0.250 0.125 0.0358 Uiso
H8 H 0.68736 0.250 0.125 0.0536 Uiso
In3 In 0.688086(42) 0.311914(42) 0.500 0.0324 Uiso
In5 In 0.811914(42) 0.188086(42) 0.000 0.0324 Uiso
In7 In 0.188086(42) 0.688086(42) 0.250 0.0324 Uiso
In9 In 0.311914(42) 0.688086(42) 0.500 0.0324 Uiso
O12 O 0.750 0.24185(45) 0.375 0.0358 Uiso
O13 O 0.88734(38) 0.38321(37) 0.13553(37) 0.0358 Uiso
O15 O 0.88321(37) 0.38734(38) 0.36447(37) 0.0358 Uiso
O18 O 0.90826(29) 0.20701(32) 0.25728(42) 0.0358 Uiso
O1 O 0.75815(45) 0.250 0.625 0.0358 Uiso
O2 O 0.61266(38) 0.38321(37) 0.61447(37) 0.0358 Uiso
O3 O 0.59174(29) 0.29299(32) 0.75728(42) 0.0358 Uiso
C1 C 0.58679(56) 0.36123(52) 0.70627(64) 0.0446 Uiso
C2 C 0.53618(51) 0.43098(46) 0.76877(65) 0.0446 Uiso
C3 C 0.500 0.500 0.71164(79) 0.0446 Uiso
C4 C 0.52791(59) 0.42723(48) 0.88193(61) 0.0446 Uiso
C5 C 0.500 0.500 0.93959(67) 0.0446 Uiso
H1 H 0.500 0.500 0.63078 0.0429 Uiso
H2 H 0.54118 0.37258 0.91603 0.0429 Uiso
H3 H 0.81264 0.250 0.625 0.0536 Uiso
O8 O 0.38734(38) 0.61679(37) 0.61447(37) 0.0358 Uiso
O9 O 0.40826(29) 0.70701(32) 0.75728(42) 0.0358 Uiso
C14 C 0.41321(56) 0.63877(52) 0.70627(64) 0.0446 Uiso
C15 C 0.46382(51) 0.56902(46) 0.76877(65) 0.0446 Uiso
C16 C 0.47209(59) 0.57277(48) 0.88193(61) 0.0446 Uiso
H7 H 0.45882 0.62742 0.91603 0.0429 Uiso
In4 In 0.688086(42) 0.188086(42) 0.750 0.0324 Uiso
In5_2 In 0.811914(42) 0.188086(42) 1.000 0.0324 Uiso
In6 In 0.311914(42) 0.811914(42) 0.750 0.0324 Uiso
O16 O 0.79299(32) 0.40826(29) 0.50728(42) 0.0358 Uiso
O17 O 0.59174(29) 0.20701(32) 0.49272(42) 0.0358 Uiso
C3_2 C -0.000 0.500 0.03836(79) 0.0446 Uiso
H1_2 H -0.000 0.500 0.11922 0.0429 Uiso
O8_2 O 0.11266(38) 0.61679(37) 0.13553(37) 0.0358 Uiso
C14_2 C 0.08679(56) 0.63877(52) 0.04373(64) 0.0446 Uiso
In6_2 In 0.188086(42) 0.811914(42) 0.000 0.0324 Uiso
C5_2 C -0.000 0.500 0.81041(67) 0.0446 Uiso
C8_2 C -0.000 0.500 0.46164(79) 0.0446 Uiso
C10_2 C -0.000 0.500 0.68959(67) 0.0446 Uiso
H4_2 H -0.000 0.500 0.38078 0.0429 Uiso
O6_2 O 0.11679(37) 0.61266(38) 0.36447(37) 0.0358 Uiso
O7_2 O 0.20701(32) 0.59174(29) 0.50728(42) 0.0358 Uiso
C11_2 C 0.13877(52) 0.58679(56) 0.45627(64) 0.0446 Uiso
C12_2 C 0.06902(46) 0.53618(51) 0.51877(65) 0.0446 Uiso
C13_2 C 0.07277(48) 0.52791(59) 0.63193(61) 0.0446 Uiso
H6_2 H 0.12742 0.54118 0.66603 0.0429 Uiso
O9_2 O 0.09174(29) 0.70701(32) 0.99272(42) 0.0358 Uiso
C15_2 C 0.03618(51) 0.56902(46) 0.98123(65) 0.0446 Uiso
C16_2 C 0.02791(59) 0.57277(48) 0.86807(61) 0.0446 Uiso
H7_2 H 0.04118 0.62742 0.83397 0.0429 Uiso
In6_3 In 0.188086(42) 0.811914(42) 1.000 0.0324 Uiso
C1_2 C 0.91321(56) 0.36123(52) 0.04373(64) 0.0446 Uiso
C3_3 C 1.000 0.500 0.03836(79) 0.0446 Uiso
H1_3 H 1.000 0.500 0.11922 0.0429 Uiso
O3_2 O 0.90826(29) 0.29299(32) 0.99272(42) 0.0358 Uiso
C2_2 C 0.96382(51) 0.43098(46) 0.98123(65) 0.0446 Uiso
C4_2 C 0.97209(59) 0.42723(48) 0.86807(61) 0.0446 Uiso
C5_3 C 1.000 0.500 0.81041(67) 0.0446 Uiso
H2_2 H 0.95882 0.37258 0.83397 0.0429 Uiso
C6_2 C 0.86123(52) 0.41321(56) 0.45627(64) 0.0446 Uiso
C7_2 C 0.93098(46) 0.46382(51) 0.51877(65) 0.0446 Uiso
C8_3 C 1.000 0.500 0.46164(79) 0.0446 Uiso
C9_2 C 0.92723(48) 0.47209(59) 0.63193(61) 0.0446 Uiso
C10_3 C 1.000 0.500 0.68959(67) 0.0446 Uiso
H4_3 H 1.000 0.500 0.38078 0.0429 Uiso
H5_2 H 0.87258 0.45882 0.66603 0.0429 Uiso
H3_2 H 0.750 0.18736 0.375 0.0536 Uiso
O10_2 O 0.750 0.25815(45) 0.875 0.0358 Uiso
H8_2 H 0.750 0.31264 0.875 0.0536 Uiso
O13_2 O 0.61679(37) 0.11266(38) 0.86447(37) 0.0358 Uiso
O15_2 O 0.61266(38) 0.11679(37) 0.63553(37) 0.0358 Uiso
O18_2 O 0.79299(32) 0.09174(29) 0.74272(42) 0.0358 Uiso
O3_3 O 0.70701(32) 0.09174(29) 0.00728(42) 0.0358 Uiso
C2_3 C 0.56902(46) 0.03618(51) 0.01877(65) 0.0446 Uiso
C4_3 C 0.57277(48) 0.02791(59) 0.13193(61) 0.0446 Uiso
C5_4 C 0.500 0.000 0.18959(67) 0.0446 Uiso
H2_3 H 0.62742 0.04118 0.16603 0.0429 Uiso
C6_3 C 0.58679(56) 0.13877(52) 0.54373(64) 0.0446 Uiso
C7_3 C 0.53618(51) 0.06902(46) 0.48123(65) 0.0446 Uiso
C8_4 C 0.500 -0.000 0.53836(79) 0.0446 Uiso
C9_3 C 0.52791(59) 0.07277(48) 0.36807(61) 0.0446 Uiso
C10_4 C 0.500 0.000 0.31041(67) 0.0446 Uiso
H4_4 H 0.500 -0.000 0.61922 0.0429 Uiso
H5_3 H 0.54118 0.12742 0.33397 0.0429 Uiso
C1_3 C 0.63877(52) 0.08679(56) 0.95627(64) 0.0446 Uiso
C3_4 C 0.500 0.000 0.96164(79) 0.0446 Uiso
H1_4 H 0.500 0.000 0.88078 0.0429 Uiso
C5_5 C 0.500 1.000 0.18959(67) 0.0446 Uiso
C8_5 C 0.500 1.000 0.53836(79) 0.0446 Uiso
C10_5 C 0.500 1.000 0.31041(67) 0.0446 Uiso
H4_5 H 0.500 1.000 0.61922 0.0429 Uiso
O6_3 O 0.38734(38) 0.88321(37) 0.63553(37) 0.0358 Uiso
O7_3 O 0.40826(29) 0.79299(32) 0.49272(42) 0.0358 Uiso
C11_3 C 0.41321(56) 0.86123(52) 0.54373(64) 0.0446 Uiso
C12_3 C 0.46382(51) 0.93098(46) 0.48123(65) 0.0446 Uiso
C13_3 C 0.47209(59) 0.92723(48) 0.36807(61) 0.0446 Uiso
H6_3 H 0.45882 0.87258 0.33397 0.0429 Uiso
O9_3 O 0.29299(32) 0.90826(29) 0.00728(42) 0.0358 Uiso
C15_3 C 0.43098(46) 0.96382(51) 0.01877(65) 0.0446 Uiso
C16_3 C 0.42723(48) 0.97209(59) 0.13193(61) 0.0446 Uiso
H7_3 H 0.37258 0.95882 0.16603 0.0429 Uiso
C3_5 C 0.500 1.000 0.96164(79) 0.0446 Uiso
H1_5 H 0.500 1.000 0.88078 0.0429 Uiso
O8_3 O 0.38321(37) 0.88734(38) 0.86447(37) 0.0358 Uiso
C14_3 C 0.36123(52) 0.91321(56) 0.95627(64) 0.0446 Uiso
O15_3 O 0.88734(38) 0.11679(37) 0.11447(37) 0.0358 Uiso
O13_3 O 0.88321(37) 0.11266(38) 0.88553(37) 0.0358 Uiso
C3_6 C -0.000 1.000 0.78836(79) 0.0446 Uiso
C5_6 C -0.000 1.000 0.56041(67) 0.0446 Uiso
H1_6 H -0.000 1.000 0.86922 0.0429 Uiso
C8_6 C -0.000 1.000 0.21164(79) 0.0446 Uiso
C10_6 C -0.000 1.000 0.43959(67) 0.0446 Uiso
H4_6 H -0.000 1.000 0.13078 0.0429 Uiso
O6_4 O 0.11266(38) 0.88321(37) 0.11447(37) 0.0358 Uiso
O7_4 O 0.09174(29) 0.79299(32) 0.25728(42) 0.0358 Uiso
C11_4 C 0.08679(56) 0.86123(52) 0.20627(64) 0.0446 Uiso
C12_4 C 0.03618(51) 0.93098(46) 0.26877(65) 0.0446 Uiso
C13_4 C 0.02791(59) 0.92723(48) 0.38193(61) 0.0446 Uiso
H6_4 H 0.04118 0.87258 0.41603 0.0429 Uiso
O8_4 O 0.11679(37) 0.88734(38) 0.88553(37) 0.0358 Uiso
O9_4 O 0.20701(32) 0.90826(29) 0.74272(42) 0.0358 Uiso
C14_4 C 0.13877(52) 0.91321(56) 0.79373(64) 0.0446 Uiso
C15_4 C 0.06902(46) 0.96382(51) 0.73123(65) 0.0446 Uiso
C16_4 C 0.07277(48) 0.97209(59) 0.61807(61) 0.0446 Uiso
H7_4 H 0.12742 0.95882 0.58397 0.0429 Uiso
C1_4 C 0.86123(52) 0.08679(56) 0.79373(64) 0.0446 Uiso
C2_4 C 0.93098(46) 0.03618(51) 0.73123(65) 0.0446 Uiso
C3_7 C 1.000 0.000 0.78836(79) 0.0446 Uiso
C4_4 C 0.92723(48) 0.02791(59) 0.61807(61) 0.0446 Uiso
C5_7 C 1.000 0.000 0.56041(67) 0.0446 Uiso
H1_7 H 1.000 0.000 0.86922 0.0429 Uiso
H2_4 H 0.87258 0.04118 0.58397 0.0429 Uiso
C6_4 C 0.91321(56) 0.13877(52) 0.20627(64) 0.0446 Uiso
C7_4 C 0.96382(51) 0.06902(46) 0.26877(65) 0.0446 Uiso
C8_7 C 1.000 -0.000 0.21164(79) 0.0446 Uiso
C9_4 C 0.97209(59) 0.07277(48) 0.38193(61) 0.0446 Uiso
C10_7 C 1.000 0.000 0.43959(67) 0.0446 Uiso
H4_7 H 1.000 -0.000 0.13078 0.0429 Uiso
H5_4 H 0.95882 0.12742 0.41603 0.0429 Uiso
O1_2 O 0.25815(45) 0.750 0.125 0.0358 Uiso
H3_3 H 0.31264 0.750 0.125 0.0536 Uiso
O10_3 O 0.24185(45) 0.750 0.625 0.0358 Uiso
H8_3 H 0.18736 0.750 0.625 0.0536 Uiso
O12_2 O 0.250 0.74185(45) 0.875 0.0358 Uiso
H3_4 H 0.250 0.68736 0.875 0.0536 Uiso
O10_4 O 0.250 0.75815(45) 0.375 0.0358 Uiso
H8_4 H 0.250 0.81264 0.375 0.0536 Uiso
C3_8 C -0.000 0.000 0.78836(79) 0.0446 Uiso
C5_8 C -0.000 0.000 0.56041(67) 0.0446 Uiso
H1_8 H -0.000 0.000 0.86922 0.0429 Uiso
C8_8 C -0.000 -0.000 0.21164(79) 0.0446 Uiso
C10_8 C -0.000 0.000 0.43959(67) 0.0446 Uiso
H4_8 H -0.000 -0.000 0.13078 0.0429 Uiso
C3_9 C 1.000 1.000 0.78836(79) 0.0446 Uiso
C5_9 C 1.000 1.000 0.56041(67) 0.0446 Uiso
H1_9 H 1.000 1.000 0.86922 0.0429 Uiso
C8_9 C 1.000 1.000 0.21164(79) 0.0446 Uiso
C10_9 C 1.000 1.000 0.43959(67) 0.0446 Uiso
H4_9 H 1.000 1.000 0.13078 0.0429 Uiso
loop_
_geom_bond_atom_site_label_1
_geom_bond_atom_site_label_2
_geom_bond_site_symmetry_1
_geom_bond_site_symmetry_2
O4 C6 1_555 1_555
O5 C6 1_555 1_555
C6 C7 1_555 1_555
C7 C8 1_555 1_555
C8 H4 1_555 1_555
C9 C7 1_555 1_555
H5 C9 1_555 1_555
O6 C11 1_555 1_555
O7 C11 1_555 1_555
C11 C12 1_555 1_555
C12 C8 1_555 1_555
C13 C10 1_555 1_555
H6 C13 1_555 1_555
In2 O5 1_555 1_555
O10 In2 1_555 1_555
H8 O10 1_555 1_555
In3 O4 1_555 1_555
In5 O10 1_555 1_555
In7 O7 1_555 1_555
In9 O6 1_555 1_555
O12 In2 1_555 1_555
O13 In2 1_555 1_555
O15 In2 1_555 1_555
O18 In2 1_555 1_555
C9 C10 1_555 1_555
C12 C13 1_555 1_555
In3 O12 1_555 1_555
In3 O1 1_555 1_555
O1 H3 1_555 1_555
O2 In3 1_555 1_555
O3 C1 1_555 1_555
C1 O2 1_555 1_555
C2 C1 1_555 1_555
C3 C2 1_555 1_555
C4 C2 1_555 1_555
C5 C4 1_555 1_555
H1 C3 1_555 1_555
H2 C4 1_555 1_555
O8 C14 1_555 1_555
O9 C14 1_555 1_555
C14 C15 1_555 1_555
C15 C3 1_555 1_555
C16 C5 1_555 1_555
H7 C16 1_555 1_555
In4 O1 1_555 1_555
In6 O9 1_555 1_555
In9 O8 1_555 1_555
O16 In3 1_555 1_555
O17 In3 1_555 1_555
O3 In4 1_555 1_555
C15 C16 1_555 1_555
H1_2 C3_2 1_555 1_555
O8_2 C14_2 1_555 1_555
In7 O8_2 1_555 1_555
C8_2 H4_2 1_555 1_555
C10_2 C5_2 1_555 1_555
O6_2 C11_2 1_555 1_555
O7_2 C11_2 1_555 1_555
C11_2 C12_2 1_555 1_555
C12_2 C8_2 1_555 1_555
C13_2 C10_2 1_555 1_555
H6_2 C13_2 1_555 1_555
C16_2 C5_2 1_555 1_555
H7_2 C16_2 1_555 1_555
In6_3 O9_2 1_555 1_555
In9 O7_2 1_555 1_555
In7 O6_2 1_555 1_555
C12_2 C13_2 1_555 1_555
C15_2 C16_2 1_555 1_555
C1_2 O13 1_555 1_555
H1_3 C3_3 1_555 1_555
C4_2 C2_2 1_555 1_555
C5_3 C4_2 1_555 1_555
H2_2 C4_2 1_555 1_555
O15 C6_2 1_555 1_555
O16 C6_2 1_555 1_555
C6_2 C7_2 1_555 1_555
C7_2 C8_3 1_555 1_555
C8_3 H4_3 1_555 1_555
C9_2 C7_2 1_555 1_555
C10_3 C5_3 1_555 1_555
H5_2 C9_2 1_555 1_555
O3_2 In5_2 1_555 1_555
C9_2 C10_3 1_555 1_555
O12 H3_2 1_555 1_555
O10_2 In4 1_555 1_555
H8_2 O10_2 1_555 1_555
In5_2 O10_2 1_555 1_555
O13_2 In4 1_555 1_555
O15_2 In4 1_555 1_555
O18_2 In4 1_555 1_555
C4_3 C2_3 1_555 1_555
C5_4 C4_3 1_555 1_555
H2_3 C4_3 1_555 1_555
O15_2 C6_3 1_555 1_555
O17 C6_3 1_555 1_555
C6_3 C7_3 1_555 1_555
C7_3 C8_4 1_555 1_555
C8_4 H4_4 1_555 1_555
C9_3 C7_3 1_555 1_555
C10_4 C5_4 1_555 1_555
H5_3 C9_3 1_555 1_555
O3_3 In5 1_555 1_555
C9_3 C10_4 1_555 1_555
C1_3 O13_2 1_555 1_555
H1_4 C3_4 1_555 1_555
C8_5 H4_5 1_555 1_555
C10_5 C5_5 1_555 1_555
O6_3 C11_3 1_555 1_555
O7_3 C11_3 1_555 1_555
C11_3 C12_3 1_555 1_555
C12_3 C8_5 1_555 1_555
C13_3 C10_5 1_555 1_555
H6_3 C13_3 1_555 1_555
C16_3 C5_5 1_555 1_555
H7_3 C16_3 1_555 1_555
In6_2 O9_3 1_555 1_555
In9 O7_3 1_555 1_555
In6 O6_3 1_555 1_555
C12_3 C13_3 1_555 1_555
C15_3 C16_3 1_555 1_555
H1_5 C3_5 1_555 1_555
O8_3 C14_3 1_555 1_555
In6 O8_3 1_555 1_555
O15_3 In5 1_555 1_555
O13_3 In5_2 1_555 1_555
H1_6 C3_6 1_555 1_555
C8_6 H4_6 1_555 1_555
C10_6 C5_6 1_555 1_555
O6_4 C11_4 1_555 1_555
O7_4 C11_4 1_555 1_555
C11_4 C12_4 1_555 1_555
C12_4 C8_6 1_555 1_555
C13_4 C10_6 1_555 1_555
H6_4 C13_4 1_555 1_555
O8_4 C14_4 1_555 1_555
O9_4 C14_4 1_555 1_555
C14_4 C15_4 1_555 1_555
C15_4 C3_6 1_555 1_555
C16_4 C5_6 1_555 1_555
H7_4 C16_4 1_555 1_555
In6 O9_4 1_555 1_555
In7 O7_4 1_555 1_555
In6_3 O8_4 1_555 1_555
In6_2 O6_4 1_555 1_555
C12_4 C13_4 1_555 1_555
C15_4 C16_4 1_555 1_555
O18_2 C1_4 1_555 1_555
C1_4 O13_3 1_555 1_555
C2_4 C1_4 1_555 1_555
C3_7 C2_4 1_555 1_555
C4_4 C2_4 1_555 1_555
C5_7 C4_4 1_555 1_555
H1_7 C3_7 1_555 1_555
H2_4 C4_4 1_555 1_555
O15_3 C6_4 1_555 1_555
O18 C6_4 1_555 1_555
C6_4 C7_4 1_555 1_555
C7_4 C8_7 1_555 1_555
C8_7 H4_7 1_555 1_555
C9_4 C7_4 1_555 1_555
C10_7 C5_7 1_555 1_555
H5_4 C9_4 1_555 1_555
C9_4 C10_7 1_555 1_555
In6_2 O1_2 1_555 1_555
O1_2 H3_3 1_555 1_555
O10_3 In6 1_555 1_555
H8_3 O10_3 1_555 1_555
In7 O1_2 1_555 1_555
In9 O10_3 1_555 1_555
O12_2 In6 1_555 1_555
In6_3 O12_2 1_555 1_555
O12_2 H3_4 1_555 1_555
O10_4 In7 1_555 1_555
H8_4 O10_4 1_555 1_555
In9 O10_4 1_555 1_555
H1_8 C3_8 1_555 1_555
C8_8 H4_8 1_555 1_555
C10_8 C5_8 1_555 1_555
H1_9 C3_9 1_555 1_555
C8_9 H4_9 1_555 1_555
C10_9 C5_9 1_555 1_555

#END
