
###############################################################################
#
# This file contains modified crystal structure data generated from the
# MOF subset of the Cambridge Structural Database (CSD) v543 
# hosted by the Cambridge Crystallographic Data Centre (CCDC).
#
# This work is licensed under the Creative Commons
# Attribution-NonCommercial-ShareAlike 4.0 International License.
# To view a copy of this license, visit
# http://creativecommons.org/licenses/by-nc-sa/4.0/
# or send a letter to
# Creative Commons, PO Box 1866, Mountain View, CA 94042, USA.
#
# CIF created using the CSD Python API on 29 September 2022
# The structure has been converted into the P1 space group
# The structure has a 3D framework
# The original CSD entry OTOZII is in the monoclinic crystal system
# The framework has been calculated to contain at least 10.0% void space
# The void calculation uses a probe of radius 1.32A, grid spacing 0.4
#
###############################################################################

data_OTOZII
_chemical_formula_moiety         '(C68 H44 Co4 N12 O16)n'
_symmetry_cell_setting           triclinic
_symmetry_space_group_name_H-M   'P 1'
_symmetry_Int_Tables_number      1
_space_group_name_Hall           'P 1'
loop_
_symmetry_equiv_pos_site_id
_symmetry_equiv_pos_as_xyz
1 x,y,z
_cell_length_a                   10.6446(8)
_cell_length_b                   13.9646(11)
_cell_length_c                   21.3349(19)
_cell_angle_alpha                90
_cell_angle_beta                 99.797(7)
_cell_angle_gamma                90
_cell_volume                     3125.13
loop_
_atom_site_label
_atom_site_type_symbol
_atom_site_fract_x
_atom_site_fract_y
_atom_site_fract_z
Co5 Co 0.40930(4) 0.43847(3) 0.01992(2)
C8 C 0.3125(3) 0.6225(3) 0.95937(17)
C9 C 0.1997(4) 0.6889(3) 0.9283(2)
C10 C 0.2234(4) 0.7750(3) 0.9032(2)
H5 H 0.3080 0.7952 0.9045
C11 C 0.1175(4) 0.8371(3) 0.8740(3)
H6 H 0.1373 0.8977 0.8590
C14 C 0.0704(4) 0.6627(3) 0.92242(18)
H8 H 0.0512 0.6032 0.9392
O3 O 0.4244(2) 0.64395(18) 0.95749(13)
O4 O 0.2842(2) 0.54713(16) 0.98646(11)
Co2 Co 0.59070(4) 0.56153(3) 0.98008(2)
Co3 Co 0.40930(4) 0.06153(3) 0.51992(2)
O6 O 0.6653(3) 0.6339(2) 0.06334(12)
O8 O 0.7158(2) 0.45287(16) 0.01354(11)
C1 C 0.6115(4) 0.8982(3) 0.60247(18)
C2 C 0.6443(4) 0.8514(3) 0.66725(19)
C3 C 0.7219(5) 0.7694(4) 0.6806(2)
H1 H 0.7613 0.7447 0.6478
C4 C 0.7438(5) 0.7228(4) 0.7390(2)
H2 H 0.7927 0.6666 0.7456
C5 C 0.6939(4) 0.7608(3) 0.78307(19)
C6 C 0.6193(4) 0.8444(3) 0.77139(18)
H3 H 0.5845 0.8711 0.8051
C7 C 0.5948(4) 0.8894(3) 0.71227(18)
H4 H 0.5444 0.9450 0.7056
C12 C 0.9887(4) 0.8108(3) 0.8673(2)
H7 H 0.9227 0.8507 0.8474
C13 C 0.9651(4) 0.7217(3) 0.89215(19)
C15 C 0.8306(4) 0.6907(3) 0.88972(18)
C16 C 0.6156(4) 0.6701(3) 0.86164(18)
C17 C 0.4711(4) 0.6719(4) 0.8248(2)
H9 H 0.4213 0.6249 0.8434
H10 H 0.4694 0.6568 0.7803
H11 H 0.4352 0.7351 0.8284
N1 N 0.6699(3) 0.6270(2) 0.91680(13)
N2 N 0.8061(3) 0.6413(2) 0.93538(14)
N3 N 0.7125(3) 0.7111(3) 0.84313(15)
O1 O 0.5303(3) 0.9652(2) 0.59063(12)
O2 O 0.6653(3) 0.8661(2) 0.56334(12)
O5 O 0.4697(3) 0.4652(2) 0.90937(12)
Co6 Co 0.59070(4) 0.93847(3) 0.48008(2)
C1_2 C 0.3885(4) 0.3982(3) 0.89753(18)
C2_2 C 0.3557(4) 0.3514(3) 0.83275(19)
C3_2 C 0.2781(5) 0.2694(4) 0.8194(2)
H1_2 H 0.2387 0.2447 0.8522
C4_2 C 0.2562(5) 0.2228(4) 0.7610(2)
H2_2 H 0.2073 0.1666 0.7544
C5_2 C 0.3061(4) 0.2608(3) 0.71693(19)
C6_2 C 0.3807(4) 0.3444(3) 0.72861(18)
H3_2 H 0.4155 0.3711 0.6949
C7_2 C 0.4052(4) 0.3894(3) 0.78773(18)
H4_2 H 0.4556 0.4450 0.7944
C12_2 C 0.0113(4) 0.3108(3) 0.6327(2)
H7_2 H 0.0773 0.3507 0.6526
C13_2 C 0.0349(4) 0.2217(3) 0.60785(19)
C15_2 C 0.1694(4) 0.1907(3) 0.61028(18)
C16_2 C 0.3844(4) 0.1701(3) 0.63836(18)
C17_2 C 0.5289(4) 0.1719(4) 0.6752(2)
H9_2 H 0.5787 0.1249 0.6566
H10_2 H 0.5306 0.1568 0.7197
H11_2 H 0.5648 0.2351 0.6716
N1_2 N 0.3301(3) 0.1270(2) 0.58320(13)
N2_2 N 0.1939(3) 0.1413(2) 0.56462(14)
N3_2 N 0.2875(3) 0.2111(3) 0.65687(15)
O2_2 O 0.3347(3) 0.3661(2) 0.93666(12)
O6_2 O 0.3347(3) 0.1339(2) 0.43666(12)
O7 O 0.5756(2) 0.14395(18) 0.54251(13)
O8_2 O 0.2842(2) 0.95287(16) 0.48646(11)
C8_2 C 0.6875(3) 0.1225(3) 0.54063(17)
C9_2 C 0.8003(4) 0.1889(3) 0.5717(2)
C10_2 C 0.7766(4) 0.2750(3) 0.5968(2)
H5_2 H 0.6920 0.2952 0.5955
C11_2 C 0.8825(4) 0.3371(3) 0.6260(3)
H6_2 H 0.8627 0.3977 0.6410
C14_2 C 0.9296(4) 0.1627(3) 0.57758(18)
H8_2 H 0.9488 0.1032 0.5608
O4_2 O 0.7158(2) 0.04713(16) 0.51354(11)
C1_3 C 0.3885(4) 0.1018(3) 0.39753(18)
C2_3 C 0.3557(4) 0.1486(3) 0.33275(19)
C3_3 C 0.2781(5) 0.2306(4) 0.3194(2)
H1_3 H 0.2387 0.2553 0.3522
C4_3 C 0.2562(5) 0.2772(4) 0.2610(2)
H2_3 H 0.2073 0.3334 0.2544
C5_3 C 0.3061(4) 0.2392(3) 0.21693(19)
C6_3 C 0.3807(4) 0.1556(3) 0.22861(18)
H3_3 H 0.4155 0.1289 0.1949
C7_3 C 0.4052(4) 0.1106(3) 0.28773(18)
H4_3 H 0.4556 0.0550 0.2944
C12_3 C 0.0113(4) 0.1892(3) 0.1327(2)
H7_3 H 0.0773 0.1493 0.1526
C13_3 C 0.0349(4) 0.2783(3) 0.10785(19)
C15_3 C 0.1694(4) 0.3093(3) 0.11028(18)
C16_3 C 0.3844(4) 0.3299(3) 0.13836(18)
C17_3 C 0.5289(4) 0.3281(4) 0.1752(2)
H9_3 H 0.5787 0.3751 0.1566
H10_3 H 0.5306 0.3432 0.2197
H11_3 H 0.5648 0.2649 0.1716
N1_3 N 0.3301(3) 0.3730(2) 0.08320(13)
N2_3 N 0.1939(3) 0.3587(2) 0.06462(14)
N3_3 N 0.2875(3) 0.2889(3) 0.15687(15)
O1_2 O 0.4697(3) 0.0348(2) 0.40937(12)
O5_2 O 0.5303(3) 0.5348(2) 0.09063(12)
O7_2 O 0.5756(2) 0.35605(18) 0.04251(13)
C8_3 C 0.6875(3) 0.3775(3) 0.04063(17)
C9_3 C 0.8003(4) 0.3111(3) 0.0717(2)
C10_3 C 0.7766(4) 0.2250(3) 0.0968(2)
H5_3 H 0.6920 0.2048 0.0955
C11_3 C 0.8825(4) 0.1629(3) 0.1260(3)
H6_3 H 0.8627 0.1023 0.1410
C14_3 C 0.9296(4) 0.3373(3) 0.07758(18)
H8_3 H 0.9488 0.3968 0.0608
C8_4 C 0.3125(3) 0.8775(3) 0.45937(17)
C9_4 C 0.1997(4) 0.8111(3) 0.4283(2)
C10_4 C 0.2234(4) 0.7250(3) 0.4032(2)
H5_4 H 0.3080 0.7048 0.4045
C11_4 C 0.1175(4) 0.6629(3) 0.3740(3)
H6_4 H 0.1373 0.6023 0.3590
C14_4 C 0.0704(4) 0.8373(3) 0.42242(18)
H8_4 H 0.0512 0.8968 0.4392
O3_2 O 0.4244(2) 0.85605(18) 0.45749(13)
C1_4 C 0.6115(4) 0.6018(3) 0.10247(18)
C2_4 C 0.6443(4) 0.6486(3) 0.16725(19)
C3_4 C 0.7219(5) 0.7306(4) 0.1806(2)
H1_4 H 0.7613 0.7553 0.1478
C4_4 C 0.7438(5) 0.7772(4) 0.2390(2)
H2_4 H 0.7927 0.8334 0.2456
C5_4 C 0.6939(4) 0.7392(3) 0.28307(19)
C6_4 C 0.6193(4) 0.6556(3) 0.27139(18)
H3_4 H 0.5845 0.6289 0.3051
C7_4 C 0.5948(4) 0.6106(3) 0.21227(18)
H4_4 H 0.5444 0.5550 0.2056
C12_4 C 0.9887(4) 0.6892(3) 0.3673(2)
H7_4 H 0.9227 0.6493 0.3474
C13_4 C 0.9651(4) 0.7783(3) 0.39215(19)
C15_4 C 0.8306(4) 0.8093(3) 0.38972(18)
C16_4 C 0.6156(4) 0.8299(3) 0.36164(18)
C17_4 C 0.4711(4) 0.8281(4) 0.3248(2)
H9_4 H 0.4213 0.8751 0.3434
H10_4 H 0.4694 0.8432 0.2803
H11_4 H 0.4352 0.7649 0.3284
N1_4 N 0.6699(3) 0.8730(2) 0.41680(13)
N2_4 N 0.8061(3) 0.8587(2) 0.43538(14)
N3_4 N 0.7125(3) 0.7889(3) 0.34313(15)
loop_
_geom_bond_atom_site_label_1
_geom_bond_atom_site_label_2
_geom_bond_site_symmetry_1
_geom_bond_site_symmetry_2
C8 C9 1_555 1_555
C9 C10 1_555 1_555
C10 H5 1_555 1_555
C11 C10 1_555 1_555
H6 C11 1_555 1_555
C14 C9 1_555 1_555
H8 C14 1_555 1_555
O3 C8 1_555 1_555
O4 C8 1_555 1_555
Co2 O3 1_555 1_555
C1 C2 1_555 1_555
C2 C3 1_555 1_555
C3 H1 1_555 1_555
C4 C3 1_555 1_555
H2 C4 1_555 1_555
C5 C4 1_555 1_555
C6 C5 1_555 1_555
H3 C6 1_555 1_555
C7 C2 1_555 1_555
H4 C7 1_555 1_555
H7 C12 1_555 1_555
C13 C12 1_555 1_555
C15 C13 1_555 1_555
C16 C17 1_555 1_555
C17 H9 1_555 1_555
H10 C17 1_555 1_555
H11 C17 1_555 1_555
N1 C16 1_555 1_555
N2 C15 1_555 1_555
N3 C5 1_555 1_555
O1 C1 1_555 1_555
O2 C1 1_555 1_555
Co2 N1 1_555 1_555
O5 Co2 1_555 1_555
Co6 O2 1_555 1_555
C6 C7 1_555 1_555
C15 N3 1_555 1_555
C16 N3 1_555 1_555
N1 N2 1_555 1_555
C1_2 C2_2 1_555 1_555
C2_2 C3_2 1_555 1_555
C3_2 H1_2 1_555 1_555
C4_2 C3_2 1_555 1_555
H2_2 C4_2 1_555 1_555
C5_2 C4_2 1_555 1_555
C6_2 C5_2 1_555 1_555
H3_2 C6_2 1_555 1_555
C7_2 C2_2 1_555 1_555
H4_2 C7_2 1_555 1_555
H7_2 C12_2 1_555 1_555
C13_2 C12_2 1_555 1_555
C15_2 C13_2 1_555 1_555
C16_2 C17_2 1_555 1_555
C17_2 H9_2 1_555 1_555
H10_2 C17_2 1_555 1_555
H11_2 C17_2 1_555 1_555
N1_2 C16_2 1_555 1_555
N2_2 C15_2 1_555 1_555
N3_2 C5_2 1_555 1_555
O5 C1_2 1_555 1_555
O2_2 C1_2 1_555 1_555
Co3 N1_2 1_555 1_555
O6_2 Co3 1_555 1_555
O7 Co3 1_555 1_555
C6_2 C7_2 1_555 1_555
C15_2 N3_2 1_555 1_555
C16_2 N3_2 1_555 1_555
N1_2 N2_2 1_555 1_555
C8_2 C9_2 1_555 1_555
C9_2 C10_2 1_555 1_555
C10_2 H5_2 1_555 1_555
C11_2 C10_2 1_555 1_555
H6_2 C11_2 1_555 1_555
C14_2 C9_2 1_555 1_555
H8_2 C14_2 1_555 1_555
O7 C8_2 1_555 1_555
O4_2 C8_2 1_555 1_555
C1_3 C2_3 1_555 1_555
C2_3 C3_3 1_555 1_555
C3_3 H1_3 1_555 1_555
C4_3 C3_3 1_555 1_555
H2_3 C4_3 1_555 1_555
C5_3 C4_3 1_555 1_555
C6_3 C5_3 1_555 1_555
H3_3 C6_3 1_555 1_555
C7_3 C2_3 1_555 1_555
H4_3 C7_3 1_555 1_555
H7_3 C12_3 1_555 1_555
C13_3 C12_3 1_555 1_555
C15_3 C13_3 1_555 1_555
C16_3 C17_3 1_555 1_555
C17_3 H9_3 1_555 1_555
H10_3 C17_3 1_555 1_555
H11_3 C17_3 1_555 1_555
N1_3 C16_3 1_555 1_555
N2_3 C15_3 1_555 1_555
N3_3 C5_3 1_555 1_555
O1_2 C1_3 1_555 1_555
O6_2 C1_3 1_555 1_555
Co5 N1_3 1_555 1_555
O5_2 Co5 1_555 1_555
O7_2 Co5 1_555 1_555
C6_3 C7_3 1_555 1_555
C15_3 N3_3 1_555 1_555
C16_3 N3_3 1_555 1_555
N1_3 N2_3 1_555 1_555
C8_3 C9_3 1_555 1_555
C9_3 C10_3 1_555 1_555
C10_3 H5_3 1_555 1_555
C11_3 C10_3 1_555 1_555
H6_3 C11_3 1_555 1_555
C14_3 C9_3 1_555 1_555
H8_3 C14_3 1_555 1_555
O7_2 C8_3 1_555 1_555
O8 C8_3 1_555 1_555
C8_4 C9_4 1_555 1_555
C9_4 C10_4 1_555 1_555
C10_4 H5_4 1_555 1_555
C11_4 C10_4 1_555 1_555
H6_4 C11_4 1_555 1_555
C14_4 C9_4 1_555 1_555
H8_4 C14_4 1_555 1_555
O3_2 C8_4 1_555 1_555
O8_2 C8_4 1_555 1_555
Co6 O3_2 1_555 1_555
C1_4 C2_4 1_555 1_555
C2_4 C3_4 1_555 1_555
C3_4 H1_4 1_555 1_555
C4_4 C3_4 1_555 1_555
H2_4 C4_4 1_555 1_555
C5_4 C4_4 1_555 1_555
C6_4 C5_4 1_555 1_555
H3_4 C6_4 1_555 1_555
C7_4 C2_4 1_555 1_555
H4_4 C7_4 1_555 1_555
H7_4 C12_4 1_555 1_555
C13_4 C12_4 1_555 1_555
C15_4 C13_4 1_555 1_555
C16_4 C17_4 1_555 1_555
C17_4 H9_4 1_555 1_555
H10_4 C17_4 1_555 1_555
H11_4 C17_4 1_555 1_555
N1_4 C16_4 1_555 1_555
N2_4 C15_4 1_555 1_555
N3_4 C5_4 1_555 1_555
O5_2 C1_4 1_555 1_555
O6 C1_4 1_555 1_555
Co6 N1_4 1_555 1_555
C6_4 C7_4 1_555 1_555
C15_4 N3_4 1_555 1_555
C16_4 N3_4 1_555 1_555
N1_4 N2_4 1_555 1_555

#END
