
###############################################################################
#
# This file contains modified crystal structure data generated from the
# MOF subset of the Cambridge Structural Database (CSD) v543 
# hosted by the Cambridge Crystallographic Data Centre (CCDC).
#
# This work is licensed under the Creative Commons
# Attribution-NonCommercial-ShareAlike 4.0 International License.
# To view a copy of this license, visit
# http://creativecommons.org/licenses/by-nc-sa/4.0/
# or send a letter to
# Creative Commons, PO Box 1866, Mountain View, CA 94042, USA.
#
# CIF created using the CSD Python API on 29 September 2022
# The structure has been converted into the P1 space group
# The structure has a 3D framework
# The original CSD entry OTOZOO is in the monoclinic crystal system
# The framework has been calculated to contain at least 10.0% void space
# The void calculation uses a probe of radius 1.32A, grid spacing 0.4
#
###############################################################################

data_OTOZOO
_chemical_formula_moiety         '(C68 H44 N12 O16 Zn4)n'
_symmetry_cell_setting           triclinic
_symmetry_space_group_name_H-M   'P 1'
_symmetry_Int_Tables_number      1
_space_group_name_Hall           'P 1'
loop_
_symmetry_equiv_pos_site_id
_symmetry_equiv_pos_as_xyz
1 x,y,z
_cell_length_a                   10.8378(7)
_cell_length_b                   13.1095(15)
_cell_length_c                   22.4628(18)
_cell_angle_alpha                90
_cell_angle_beta                 112.060(6)
_cell_angle_gamma                90
_cell_volume                     2957.83
loop_
_atom_site_label
_atom_site_type_symbol
_atom_site_fract_x
_atom_site_fract_y
_atom_site_fract_z
Zn4 Zn 0.40911(3) 0.42565(3) 0.01569(2)
C8 C 0.3072(3) 0.6281(3) 0.96608(17)
C9 C 0.1964(3) 0.7043(3) 0.94040(17)
C10 C 0.2185(4) 0.7982(3) 0.9173(2)
H5 H 0.3052 0.8148 0.9193
C11 C 0.1165(4) 0.8675(3) 0.8917(2)
H6 H 0.1332 0.9316 0.8764
C14 C 0.0685(3) 0.6790(3) 0.93684(17)
H8 H 0.0524 0.6146 0.9520
O3 O 0.4196(2) 0.6551(2) 0.96740(12)
O4 O 0.2797(2) 0.5429(2) 0.98459(14)
Zn2 Zn 0.59089(3) 0.57435(3) 0.98431(2)
Zn3 Zn 0.40911(3) 0.07435(3) 0.51569(2)
O6 O 0.6559(3) 0.6291(2) 0.07630(12)
O8 O 0.7203(2) 0.4571(2) 0.01541(14)
C1 C 0.6008(4) 0.9118(3) 0.61077(16)
C2 C 0.6368(3) 0.8705(3) 0.67779(15)
C3 C 0.7133(4) 0.7814(3) 0.69709(18)
H1 H 0.7466 0.7485 0.6685
C4 C 0.7404(4) 0.7415(3) 0.75781(18)
H2 H 0.7923 0.6813 0.7711
C5 C 0.6913(3) 0.7898(3) 0.79868(16)
C6 C 0.6170(4) 0.8778(3) 0.78118(18)
H3 H 0.5859 0.9107 0.8106
C7 C 0.5880(4) 0.9181(3) 0.72042(18)
H4 H 0.5351 0.9779 0.7076
C12 C 0.9894(4) 0.8436(3) 0.8884(2)
H7 H 0.9191 0.8915 0.8709
C13 C 0.9641(3) 0.7489(3) 0.91085(17)
C15 C 0.8327(3) 0.7214(3) 0.90941(16)
C16 C 0.6165(3) 0.7037(3) 0.87766(15)
C17 C 0.4710(3) 0.7083(4) 0.83781(18)
H9 H 0.4395 0.7786 0.8366
H10 H 0.4226 0.6639 0.8567
H11 H 0.4555 0.6854 0.7941
N1 N 0.6727(3) 0.6617(2) 0.93485(13)
N2 N 0.8102(3) 0.6728(2) 0.95515(13)
N3 N 0.7129(3) 0.7446(2) 0.86017(13)
O1 O 0.5202(3) 0.9841(2) 0.59465(11)
O2 O 0.6559(3) 0.8709(2) 0.57630(12)
O5 O 0.4798(3) 0.4841(2) 0.90535(11)
Zn5 Zn 0.59089(3) 0.92565(3) 0.48431(2)
C1_2 C 0.3992(4) 0.4118(3) 0.88923(16)
C2_2 C 0.3632(3) 0.3705(3) 0.82221(15)
C3_2 C 0.2867(4) 0.2814(3) 0.80291(18)
H1_2 H 0.2534 0.2485 0.8315
C4_2 C 0.2596(4) 0.2415(3) 0.74219(18)
H2_2 H 0.2077 0.1813 0.7289
C5_2 C 0.3087(3) 0.2898(3) 0.70132(16)
C6_2 C 0.3830(4) 0.3778(3) 0.71882(18)
H3_2 H 0.4141 0.4107 0.6894
C7_2 C 0.4120(4) 0.4181(3) 0.77958(18)
H4_2 H 0.4649 0.4779 0.7924
C12_2 C 0.0106(4) 0.3436(3) 0.6116(2)
H7_2 H 0.0809 0.3915 0.6291
C13_2 C 0.0359(3) 0.2489(3) 0.58915(17)
C15_2 C 0.1673(3) 0.2214(3) 0.59059(16)
C16_2 C 0.3835(3) 0.2037(3) 0.62234(15)
C17_2 C 0.5290(3) 0.2083(4) 0.66219(18)
H9_2 H 0.5605 0.2786 0.6634
H10_2 H 0.5774 0.1639 0.6433
H11_2 H 0.5445 0.1854 0.7059
N1_2 N 0.3273(3) 0.1617(2) 0.56515(13)
N2_2 N 0.1898(3) 0.1728(2) 0.54485(13)
N3_2 N 0.2871(3) 0.2446(2) 0.63983(13)
O2_2 O 0.3441(3) 0.3709(2) 0.92370(12)
O6_2 O 0.3441(3) 0.1291(2) 0.42370(12)
O7 O 0.5804(2) 0.1551(2) 0.53260(12)
O8_2 O 0.2797(2) 0.9571(2) 0.48459(14)
C8_2 C 0.6928(3) 0.1281(3) 0.53392(17)
C9_2 C 0.8036(3) 0.2043(3) 0.55960(17)
C10_2 C 0.7815(4) 0.2982(3) 0.5827(2)
H5_2 H 0.6948 0.3148 0.5807
C11_2 C 0.8835(4) 0.3675(3) 0.6083(2)
H6_2 H 0.8668 0.4316 0.6236
C14_2 C 0.9315(3) 0.1790(3) 0.56316(17)
H8_2 H 0.9476 0.1146 0.5480
O4_2 O 0.7203(2) 0.0429(2) 0.51541(14)
C1_3 C 0.3992(4) 0.0882(3) 0.38923(16)
C2_3 C 0.3632(3) 0.1295(3) 0.32221(15)
C3_3 C 0.2867(4) 0.2186(3) 0.30291(18)
H1_3 H 0.2534 0.2515 0.3315
C4_3 C 0.2596(4) 0.2585(3) 0.24219(18)
H2_3 H 0.2077 0.3187 0.2289
C5_3 C 0.3087(3) 0.2102(3) 0.20132(16)
C6_3 C 0.3830(4) 0.1222(3) 0.21882(18)
H3_3 H 0.4141 0.0893 0.1894
C7_3 C 0.4120(4) 0.0819(3) 0.27958(18)
H4_3 H 0.4649 0.0221 0.2924
C12_3 C 0.0106(4) 0.1564(3) 0.1116(2)
H7_3 H 0.0809 0.1085 0.1291
C13_3 C 0.0359(3) 0.2511(3) 0.08915(17)
C15_3 C 0.1673(3) 0.2786(3) 0.09059(16)
C16_3 C 0.3835(3) 0.2963(3) 0.12234(15)
C17_3 C 0.5290(3) 0.2917(4) 0.16219(18)
H9_3 H 0.5605 0.2214 0.1634
H10_3 H 0.5774 0.3361 0.1433
H11_3 H 0.5445 0.3146 0.2059
N1_3 N 0.3273(3) 0.3383(2) 0.06515(13)
N2_3 N 0.1898(3) 0.3272(2) 0.04485(13)
N3_3 N 0.2871(3) 0.2554(2) 0.13983(13)
O1_2 O 0.4798(3) 0.0159(2) 0.40535(11)
O5_2 O 0.5202(3) 0.5159(2) 0.09465(11)
O7_2 O 0.5804(2) 0.3449(2) 0.03260(12)
C8_3 C 0.6928(3) 0.3719(3) 0.03392(17)
C9_3 C 0.8036(3) 0.2957(3) 0.05960(17)
C10_3 C 0.7815(4) 0.2018(3) 0.0827(2)
H5_3 H 0.6948 0.1852 0.0807
C11_3 C 0.8835(4) 0.1325(3) 0.1083(2)
H6_3 H 0.8668 0.0684 0.1236
C14_3 C 0.9315(3) 0.3210(3) 0.06316(17)
H8_3 H 0.9476 0.3854 0.0480
C8_4 C 0.3072(3) 0.8719(3) 0.46608(17)
C9_4 C 0.1964(3) 0.7957(3) 0.44040(17)
C10_4 C 0.2185(4) 0.7018(3) 0.4173(2)
H5_4 H 0.3052 0.6852 0.4193
C11_4 C 0.1165(4) 0.6325(3) 0.3917(2)
H6_4 H 0.1332 0.5684 0.3764
C14_4 C 0.0685(3) 0.8210(3) 0.43684(17)
H8_4 H 0.0524 0.8854 0.4520
O3_2 O 0.4196(2) 0.8449(2) 0.46740(12)
C1_4 C 0.6008(4) 0.5882(3) 0.11077(16)
C2_4 C 0.6368(3) 0.6295(3) 0.17779(15)
C3_4 C 0.7133(4) 0.7186(3) 0.19709(18)
H1_4 H 0.7466 0.7515 0.1685
C4_4 C 0.7404(4) 0.7585(3) 0.25781(18)
H2_4 H 0.7923 0.8187 0.2711
C5_4 C 0.6913(3) 0.7102(3) 0.29868(16)
C6_4 C 0.6170(4) 0.6222(3) 0.28118(18)
H3_4 H 0.5859 0.5893 0.3106
C7_4 C 0.5880(4) 0.5819(3) 0.22042(18)
H4_4 H 0.5351 0.5221 0.2076
C12_4 C 0.9894(4) 0.6564(3) 0.3884(2)
H7_4 H 0.9191 0.6085 0.3709
C13_4 C 0.9641(3) 0.7511(3) 0.41085(17)
C15_4 C 0.8327(3) 0.7786(3) 0.40941(16)
C16_4 C 0.6165(3) 0.7963(3) 0.37766(15)
C17_4 C 0.4710(3) 0.7917(4) 0.33781(18)
H9_4 H 0.4395 0.7214 0.3366
H10_4 H 0.4226 0.8361 0.3567
H11_4 H 0.4555 0.8146 0.2941
N1_4 N 0.6727(3) 0.8383(2) 0.43485(13)
N2_4 N 0.8102(3) 0.8272(2) 0.45515(13)
N3_4 N 0.7129(3) 0.7554(2) 0.36017(13)
loop_
_geom_bond_atom_site_label_1
_geom_bond_atom_site_label_2
_geom_bond_site_symmetry_1
_geom_bond_site_symmetry_2
C8 C9 1_555 1_555
C9 C10 1_555 1_555
C10 H5 1_555 1_555
C11 C10 1_555 1_555
H6 C11 1_555 1_555
C14 C9 1_555 1_555
H8 C14 1_555 1_555
O3 C8 1_555 1_555
O4 C8 1_555 1_555
Zn2 O3 1_555 1_555
C1 C2 1_555 1_555
C2 C3 1_555 1_555
C3 H1 1_555 1_555
C4 C3 1_555 1_555
H2 C4 1_555 1_555
C5 C4 1_555 1_555
C6 C5 1_555 1_555
H3 C6 1_555 1_555
C7 C2 1_555 1_555
H4 C7 1_555 1_555
H7 C12 1_555 1_555
C13 C12 1_555 1_555
C15 C13 1_555 1_555
C16 C17 1_555 1_555
C17 H9 1_555 1_555
H10 C17 1_555 1_555
H11 C17 1_555 1_555
N1 C16 1_555 1_555
N2 C15 1_555 1_555
N3 C5 1_555 1_555
O1 C1 1_555 1_555
O2 C1 1_555 1_555
Zn2 N1 1_555 1_555
O5 Zn2 1_555 1_555
Zn5 O2 1_555 1_555
C6 C7 1_555 1_555
C15 N3 1_555 1_555
C16 N3 1_555 1_555
N1 N2 1_555 1_555
C1_2 C2_2 1_555 1_555
C2_2 C3_2 1_555 1_555
C3_2 H1_2 1_555 1_555
C4_2 C3_2 1_555 1_555
H2_2 C4_2 1_555 1_555
C5_2 C4_2 1_555 1_555
C6_2 C5_2 1_555 1_555
H3_2 C6_2 1_555 1_555
C7_2 C2_2 1_555 1_555
H4_2 C7_2 1_555 1_555
H7_2 C12_2 1_555 1_555
C13_2 C12_2 1_555 1_555
C15_2 C13_2 1_555 1_555
C16_2 C17_2 1_555 1_555
C17_2 H9_2 1_555 1_555
H10_2 C17_2 1_555 1_555
H11_2 C17_2 1_555 1_555
N1_2 C16_2 1_555 1_555
N2_2 C15_2 1_555 1_555
N3_2 C5_2 1_555 1_555
O5 C1_2 1_555 1_555
O2_2 C1_2 1_555 1_555
Zn3 N1_2 1_555 1_555
O6_2 Zn3 1_555 1_555
O7 Zn3 1_555 1_555
C6_2 C7_2 1_555 1_555
C15_2 N3_2 1_555 1_555
C16_2 N3_2 1_555 1_555
N1_2 N2_2 1_555 1_555
C8_2 C9_2 1_555 1_555
C9_2 C10_2 1_555 1_555
C10_2 H5_2 1_555 1_555
C11_2 C10_2 1_555 1_555
H6_2 C11_2 1_555 1_555
C14_2 C9_2 1_555 1_555
H8_2 C14_2 1_555 1_555
O7 C8_2 1_555 1_555
O4_2 C8_2 1_555 1_555
C1_3 C2_3 1_555 1_555
C2_3 C3_3 1_555 1_555
C3_3 H1_3 1_555 1_555
C4_3 C3_3 1_555 1_555
H2_3 C4_3 1_555 1_555
C5_3 C4_3 1_555 1_555
C6_3 C5_3 1_555 1_555
H3_3 C6_3 1_555 1_555
C7_3 C2_3 1_555 1_555
H4_3 C7_3 1_555 1_555
H7_3 C12_3 1_555 1_555
C13_3 C12_3 1_555 1_555
C15_3 C13_3 1_555 1_555
C16_3 C17_3 1_555 1_555
C17_3 H9_3 1_555 1_555
H10_3 C17_3 1_555 1_555
H11_3 C17_3 1_555 1_555
N1_3 C16_3 1_555 1_555
N2_3 C15_3 1_555 1_555
N3_3 C5_3 1_555 1_555
O1_2 C1_3 1_555 1_555
O6_2 C1_3 1_555 1_555
Zn4 N1_3 1_555 1_555
O5_2 Zn4 1_555 1_555
O7_2 Zn4 1_555 1_555
C6_3 C7_3 1_555 1_555
C15_3 N3_3 1_555 1_555
C16_3 N3_3 1_555 1_555
N1_3 N2_3 1_555 1_555
C8_3 C9_3 1_555 1_555
C9_3 C10_3 1_555 1_555
C10_3 H5_3 1_555 1_555
C11_3 C10_3 1_555 1_555
H6_3 C11_3 1_555 1_555
C14_3 C9_3 1_555 1_555
H8_3 C14_3 1_555 1_555
O7_2 C8_3 1_555 1_555
O8 C8_3 1_555 1_555
C8_4 C9_4 1_555 1_555
C9_4 C10_4 1_555 1_555
C10_4 H5_4 1_555 1_555
C11_4 C10_4 1_555 1_555
H6_4 C11_4 1_555 1_555
C14_4 C9_4 1_555 1_555
H8_4 C14_4 1_555 1_555
O3_2 C8_4 1_555 1_555
O8_2 C8_4 1_555 1_555
Zn5 O3_2 1_555 1_555
C1_4 C2_4 1_555 1_555
C2_4 C3_4 1_555 1_555
C3_4 H1_4 1_555 1_555
C4_4 C3_4 1_555 1_555
H2_4 C4_4 1_555 1_555
C5_4 C4_4 1_555 1_555
C6_4 C5_4 1_555 1_555
H3_4 C6_4 1_555 1_555
C7_4 C2_4 1_555 1_555
H4_4 C7_4 1_555 1_555
H7_4 C12_4 1_555 1_555
C13_4 C12_4 1_555 1_555
C15_4 C13_4 1_555 1_555
C16_4 C17_4 1_555 1_555
C17_4 H9_4 1_555 1_555
H10_4 C17_4 1_555 1_555
H11_4 C17_4 1_555 1_555
N1_4 C16_4 1_555 1_555
N2_4 C15_4 1_555 1_555
N3_4 C5_4 1_555 1_555
O5_2 C1_4 1_555 1_555
O6 C1_4 1_555 1_555
Zn5 N1_4 1_555 1_555
C6_4 C7_4 1_555 1_555
C15_4 N3_4 1_555 1_555
C16_4 N3_4 1_555 1_555
N1_4 N2_4 1_555 1_555

#END
