
###############################################################################
#
# This file contains modified crystal structure data generated from the
# MOF subset of the Cambridge Structural Database (CSD) v543 
# hosted by the Cambridge Crystallographic Data Centre (CCDC).
#
# This work is licensed under the Creative Commons
# Attribution-NonCommercial-ShareAlike 4.0 International License.
# To view a copy of this license, visit
# http://creativecommons.org/licenses/by-nc-sa/4.0/
# or send a letter to
# Creative Commons, PO Box 1866, Mountain View, CA 94042, USA.
#
# CIF created using the CSD Python API on 29 September 2022
# The structure has been converted into the P1 space group
# The structure has a 3D framework
# The original CSD entry OTUXEH is in the monoclinic crystal system
# The framework has been calculated to contain at least 10.0% void space
# The void calculation uses a probe of radius 1.32A, grid spacing 0.4
#
###############################################################################

data_OTUXEH
_chemical_formula_moiety         '(C104 H96 Cd2 N16 O24)n'
_symmetry_cell_setting           triclinic
_symmetry_space_group_name_H-M   'P 1'
_symmetry_Int_Tables_number      1
_space_group_name_Hall           'P 1'
loop_
_symmetry_equiv_pos_site_id
_symmetry_equiv_pos_as_xyz
1 x,y,z
_cell_length_a                   12.29390(10)
_cell_length_b                   16.2197(2)
_cell_length_c                   13.8075(2)
_cell_angle_alpha                90
_cell_angle_beta                 95.7030(10)
_cell_angle_gamma                90
_cell_volume                     2739.63
loop_
_atom_site_label
_atom_site_type_symbol
_atom_site_fract_x
_atom_site_fract_y
_atom_site_fract_z
O3 O 0.09546(16) 0.55201(12) 0.54675(14)
O4 O 0.17452(17) 0.87430(12) 0.84289(14)
O5 O 0.05886(18) 0.87960(14) 0.71155(15)
O6 O 0.11809(17) 0.52764(12) 0.70270(14)
C19 C 0.1432(2) 0.85099(16) 0.7575(2)
C20 C 0.2104(2) 0.78467(17) 0.71475(19)
H15 H 0.2847 0.8063 0.7131
C21 C 0.2181(3) 0.70855(17) 0.7805(2)
H16 H 0.2482 0.7244 0.8454
H17 H 0.1452 0.6868 0.7850
C22 C 0.1685(2) 0.76047(18) 0.61122(19)
H18 H 0.0939 0.7407 0.6101
H19 H 0.1682 0.8086 0.5695
C23 C 0.2890(2) 0.64184(18) 0.7426(2)
H20 H 0.2879 0.5937 0.7842
H21 H 0.3638 0.6614 0.7454
C24 C 0.1482(2) 0.56325(16) 0.6295(2)
C25 C 0.2497(2) 0.61709(19) 0.6369(2)
H22 H 0.3081 0.5834 0.6139
C26 C 0.2394(2) 0.69332(19) 0.5720(2)
H23 H 0.3118 0.7155 0.5661
H24 H 0.2080 0.6774 0.5075
Cd2 Cd 0.031924(15) 0.543792(11) 0.378064(13)
Cd3 Cd 0.031924(15) 0.956208(11) 0.878064(13)
N5 N 0.07954(19) 0.34335(14) 0.60061(16)
O1 O 0.42553(18) 0.16384(13) 0.67227(18)
N4 N 0.26011(18) 0.12429(14) 0.59998(17)
H2 H 0.2238 0.0824 0.5761
C5 C 0.0332(2) 0.26961(17) 0.5858(2)
C6 C 0.0902(2) 0.19750(17) 0.5836(2)
H7 H 0.0536 0.1478 0.5721
C7 C 0.2050(2) 0.19942(16) 0.59918(19)
C8 C 0.2537(2) 0.27536(17) 0.6117(2)
H8 H 0.3295 0.2800 0.6199
C9 C 0.1889(2) 0.34444(17) 0.6121(2)
H9 H 0.2234 0.3953 0.6210
C15 C 0.3669(2) 0.11088(18) 0.6352(2)
C16 C 0.4070(2) 0.02407(17) 0.6244(2)
H13 H 0.5090 0.0287 0.7481
H6 H 0.0427 0.7671 0.9237
O7 O 0.09546(16) 0.94799(12) 0.04675(14)
H6_2 H 0.0427 0.7329 0.4237
O2 O 0.49430(17) 0.26477(13) 0.45716(19)
N1 N 0.14311(19) 0.43166(14) 0.36027(17)
N2 N 0.33789(18) 0.21975(13) 0.37277(16)
H1 H 0.3058 0.1764 0.3480
C1 C 0.2512(2) 0.43654(18) 0.3837(2)
H3 H 0.2814 0.4882 0.3979
C2 C 0.3200(2) 0.36965(17) 0.3879(2)
H4 H 0.3948 0.3766 0.4032
C3 C 0.2768(2) 0.29199(16) 0.36910(19)
C4 C 0.1036(2) 0.35731(17) 0.3382(2)
H5 H 0.0292 0.3526 0.3192
C10 C 0.1651(2) 0.28718(17) 0.3414(2)
H10 H 0.1327 0.2366 0.3251
C11 C 0.4444(2) 0.21062(17) 0.4121(2)
C12 C 0.4945(2) 0.12867(16) 0.3963(2)
C13 C 0.5778(2) 0.10149(17) 0.4654(2)
H11 H 0.6007 0.1348 0.5184
C14 C 0.4641(2) 0.07985(18) 0.3159(2)
H12 H 0.4108 0.0983 0.2683
C17 C 0.5126(2) 0.00389(18) 0.3058(2)
C18 C 0.6261(2) 0.02550(18) 0.4555(2)
H14 H 0.6806 0.0074 0.5022
O8 O 0.17452(17) 0.62570(12) 0.34289(14)
O9 O 0.05886(18) 0.62040(14) 0.21155(15)
O6_2 O 0.11809(17) 0.97236(12) 0.20270(14)
C19_2 C 0.1432(2) 0.64901(16) 0.2575(2)
C20_2 C 0.2104(2) 0.71533(17) 0.21475(19)
H15_2 H 0.2847 0.6937 0.2131
C21_2 C 0.2181(3) 0.79145(17) 0.2805(2)
H16_2 H 0.2482 0.7756 0.3454
H17_2 H 0.1452 0.8132 0.2850
C22_2 C 0.1685(2) 0.73953(18) 0.11122(19)
H18_2 H 0.0939 0.7593 0.1101
H19_2 H 0.1682 0.6914 0.0695
C23_2 C 0.2890(2) 0.85816(18) 0.2426(2)
H20_2 H 0.2879 0.9063 0.2842
H21_2 H 0.3638 0.8386 0.2454
C24_2 C 0.1482(2) 0.93675(16) 0.1295(2)
C25_2 C 0.2497(2) 0.88291(19) 0.1369(2)
H22_2 H 0.3081 0.9166 0.1139
C26_2 C 0.2394(2) 0.80668(19) 0.0720(2)
H23_2 H 0.3118 0.7845 0.0661
H24_2 H 0.2080 0.8226 0.0075
Cd1 Cd 0.968076(15) 0.456208(11) 0.621936(13)
O2_2 O 0.50570(17) 0.73523(13) 0.54284(19)
N1_2 N 0.85689(19) 0.56834(14) 0.63973(17)
N2_2 N 0.66211(18) 0.78025(13) 0.62723(16)
H1_2 H 0.6942 0.8236 0.6520
C1_2 C 0.7488(2) 0.56346(18) 0.6163(2)
H3_2 H 0.7186 0.5118 0.6021
C2_2 C 0.6800(2) 0.63035(17) 0.6121(2)
H4_2 H 0.6052 0.6234 0.5968
C3_2 C 0.7232(2) 0.70801(16) 0.63090(19)
C4_2 C 0.8964(2) 0.64269(17) 0.6618(2)
H5_2 H 0.9708 0.6474 0.6808
C10_2 C 0.8349(2) 0.71282(17) 0.6586(2)
H10_2 H 0.8673 0.7634 0.6749
C11_2 C 0.5556(2) 0.78938(17) 0.5879(2)
C12_2 C 0.5055(2) 0.87133(16) 0.6037(2)
C13_2 C 0.4222(2) 0.89851(17) 0.5346(2)
H11_2 H 0.3993 0.8652 0.4816
C14_2 C 0.5359(2) 0.92015(18) 0.6841(2)
H12_2 H 0.5892 0.9017 0.7317
C17_2 C 0.4874(2) 0.99611(18) 0.6942(2)
C18_2 C 0.3739(2) 0.97450(18) 0.5445(2)
H14_2 H 0.3194 0.9926 0.4978
O7_2 O 0.90454(16) 0.44799(12) 0.45325(14)
O8_2 O 0.82548(17) 0.37430(12) 0.65711(14)
O9_2 O 0.94114(18) 0.37960(14) 0.78845(15)
H6_3 H 0.9573 0.2671 0.5763
Cd2_2 Cd 0.968076(15) 0.043792(11) 0.121936(13)
O3_2 O 0.90454(16) 0.05201(12) 0.95325(14)
O6_3 O 0.88191(17) 0.02764(12) 0.79730(14)
C19_3 C 0.8568(2) 0.35099(16) 0.7425(2)
C20_3 C 0.7896(2) 0.28467(17) 0.78525(19)
H15_3 H 0.7153 0.3063 0.7869
C21_3 C 0.7819(3) 0.20855(17) 0.7195(2)
H16_3 H 0.7518 0.2244 0.6546
H17_3 H 0.8548 0.1868 0.7150
C22_3 C 0.8315(2) 0.26047(18) 0.88878(19)
H18_3 H 0.9061 0.2407 0.8899
H19_3 H 0.8318 0.3086 0.9305
C23_3 C 0.7110(2) 0.14184(18) 0.7574(2)
H20_3 H 0.7121 0.0937 0.7158
H21_3 H 0.6362 0.1614 0.7546
C24_3 C 0.8518(2) 0.06325(16) 0.8705(2)
C25_3 C 0.7503(2) 0.11709(19) 0.8631(2)
H22_3 H 0.6919 0.0834 0.8861
C26_3 C 0.7606(2) 0.19332(19) 0.9280(2)
H23_3 H 0.6882 0.2155 0.9339
H24_3 H 0.7920 0.1774 0.9925
O1_2 O 0.57447(18) 0.83616(13) 0.32773(18)
N3 N 0.92046(19) 0.65665(14) 0.39939(16)
N4_2 N 0.73989(18) 0.87571(14) 0.40002(17)
H2_2 H 0.7762 0.9176 0.4239
C5_2 C 0.9668(2) 0.73039(17) 0.4142(2)
C6_2 C 0.9098(2) 0.80250(17) 0.4164(2)
H7_2 H 0.9464 0.8522 0.4279
C7_2 C 0.7950(2) 0.80058(16) 0.40082(19)
C8_2 C 0.7463(2) 0.72464(17) 0.3883(2)
H8_2 H 0.6705 0.7200 0.3801
C9_2 C 0.8111(2) 0.65556(17) 0.3879(2)
H9_2 H 0.7766 0.6047 0.3790
C15_2 C 0.6331(2) 0.88912(18) 0.3648(2)
C16_2 C 0.5930(2) 0.97593(17) 0.3756(2)
H13_2 H 0.4910 0.9713 0.2519
O4_2 O 0.82548(17) 0.12570(12) 0.15711(14)
O5_2 O 0.94114(18) 0.12040(14) 0.28845(15)
O6_4 O 0.88191(17) 0.47236(12) 0.29730(14)
C19_4 C 0.8568(2) 0.14901(16) 0.2425(2)
C20_4 C 0.7896(2) 0.21533(17) 0.28525(19)
H15_4 H 0.7153 0.1937 0.2869
C21_4 C 0.7819(3) 0.29145(17) 0.2195(2)
H16_4 H 0.7518 0.2756 0.1546
H17_4 H 0.8548 0.3132 0.2150
C22_4 C 0.8315(2) 0.23953(18) 0.38878(19)
H18_4 H 0.9061 0.2593 0.3899
H19_4 H 0.8318 0.1914 0.4305
C23_4 C 0.7110(2) 0.35816(18) 0.2574(2)
H20_4 H 0.7121 0.4063 0.2158
H21_4 H 0.6362 0.3386 0.2546
C24_4 C 0.8518(2) 0.43675(16) 0.3705(2)
C25_4 C 0.7503(2) 0.38291(19) 0.3631(2)
H22_4 H 0.6919 0.4166 0.3861
C26_4 C 0.7606(2) 0.30668(19) 0.4280(2)
H23_4 H 0.6882 0.2845 0.4339
H24_4 H 0.7920 0.3226 0.4925
H6_4 H 0.9573 0.2329 0.0763
H11_3 H 0.6007 0.3652 0.0184
H14_3 H 0.6806 0.4926 0.0022
O1_3 O 0.57447(18) 0.66384(13) 0.82773(18)
O2_3 O 0.49430(17) 0.23523(13) 0.95716(19)
N1_3 N 0.14311(19) 0.06834(14) 0.86027(17)
N2_3 N 0.33789(18) 0.28025(13) 0.87277(16)
H1_3 H 0.3058 0.3236 0.8480
N3_2 N 0.92046(19) 0.84335(14) 0.89939(16)
N4_3 N 0.73989(18) 0.62429(14) 0.90002(17)
H2_3 H 0.7762 0.5824 0.9239
C1_3 C 0.2512(2) 0.06346(18) 0.8837(2)
H3_3 H 0.2814 0.0118 0.8979
C2_3 C 0.3200(2) 0.13035(17) 0.8879(2)
H4_3 H 0.3948 0.1234 0.9032
C3_3 C 0.2768(2) 0.20801(16) 0.86910(19)
C4_3 C 0.1036(2) 0.14269(17) 0.8382(2)
H5_3 H 0.0292 0.1474 0.8192
C5_3 C 0.9668(2) 0.76961(17) 0.9142(2)
C6_3 C 0.9098(2) 0.69750(17) 0.9164(2)
H7_3 H 0.9464 0.6478 0.9279
C7_3 C 0.7950(2) 0.69942(16) 0.90082(19)
C8_3 C 0.7463(2) 0.77536(17) 0.8883(2)
H8_3 H 0.6705 0.7800 0.8801
C9_3 C 0.8111(2) 0.84444(17) 0.8879(2)
H9_3 H 0.7766 0.8953 0.8790
C10_3 C 0.1651(2) 0.21282(17) 0.8414(2)
H10_3 H 0.1327 0.2634 0.8251
C11_3 C 0.4444(2) 0.28938(17) 0.9121(2)
C12_3 C 0.4945(2) 0.37133(16) 0.8963(2)
C13_3 C 0.5778(2) 0.39851(17) 0.9654(2)
C14_3 C 0.4641(2) 0.42015(18) 0.8159(2)
H12_3 H 0.4108 0.4017 0.7683
C15_3 C 0.6331(2) 0.61088(18) 0.8648(2)
C16_3 C 0.5930(2) 0.52407(17) 0.8756(2)
C17_3 C 0.5126(2) 0.49611(18) 0.8058(2)
H13_3 H 0.4910 0.5287 0.7519
C18_3 C 0.6261(2) 0.47450(18) 0.9555(2)
N5_2 N 0.07954(19) 0.15665(14) 0.10061(16)
O1_4 O 0.42553(18) 0.33616(13) 0.17227(18)
O2_4 O 0.50570(17) 0.76477(13) 0.04284(19)
N1_4 N 0.85689(19) 0.93166(14) 0.13973(17)
N2_4 N 0.66211(18) 0.71975(13) 0.12723(16)
H1_4 H 0.6942 0.6764 0.1520
N4_4 N 0.26011(18) 0.37571(14) 0.09998(17)
H2_4 H 0.2238 0.4176 0.0761
C1_4 C 0.7488(2) 0.93654(18) 0.1163(2)
H3_4 H 0.7186 0.9882 0.1021
C2_4 C 0.6800(2) 0.86965(17) 0.1121(2)
H4_4 H 0.6052 0.8766 0.0968
C3_4 C 0.7232(2) 0.79199(16) 0.13090(19)
C4_4 C 0.8964(2) 0.85731(17) 0.1618(2)
H5_4 H 0.9708 0.8526 0.1808
C5_4 C 0.0332(2) 0.23039(17) 0.0858(2)
C6_4 C 0.0902(2) 0.30250(17) 0.0836(2)
H7_4 H 0.0536 0.3522 0.0721
C7_4 C 0.2050(2) 0.30058(16) 0.09918(19)
C8_4 C 0.2537(2) 0.22464(17) 0.1117(2)
H8_4 H 0.3295 0.2200 0.1199
C9_4 C 0.1889(2) 0.15556(17) 0.1121(2)
H9_4 H 0.2234 0.1047 0.1210
C10_4 C 0.8349(2) 0.78718(17) 0.1586(2)
H10_4 H 0.8673 0.7366 0.1749
C11_4 C 0.5556(2) 0.71062(17) 0.0879(2)
C12_4 C 0.5055(2) 0.62867(16) 0.1037(2)
C13_4 C 0.4222(2) 0.60149(17) 0.0346(2)
C14_4 C 0.5359(2) 0.57985(18) 0.1841(2)
H12_4 H 0.5892 0.5983 0.2317
C15_4 C 0.3669(2) 0.38912(18) 0.1352(2)
C16_4 C 0.4070(2) 0.47593(17) 0.1244(2)
C17_4 C 0.4874(2) 0.50389(18) 0.1942(2)
H13_4 H 0.5090 0.4713 0.2481
C18_4 C 0.3739(2) 0.52550(18) 0.0445(2)
H11_4 H 0.3993 0.6348 0.9816
H14_4 H 0.3194 0.5074 0.9978
loop_
_geom_bond_atom_site_label_1
_geom_bond_atom_site_label_2
_geom_bond_site_symmetry_1
_geom_bond_site_symmetry_2
O3 C24 1_555 1_555
O4 C19 1_555 1_555
O5 C19 1_555 1_555
C19 C20 1_555 1_555
C20 H15 1_555 1_555
C21 C20 1_555 1_555
H16 C21 1_555 1_555
H17 C21 1_555 1_555
C22 C20 1_555 1_555
H18 C22 1_555 1_555
H19 C22 1_555 1_555
C23 C21 1_555 1_555
H20 C23 1_555 1_555
H21 C23 1_555 1_555
C24 O6 1_555 1_555
C25 C23 1_555 1_555
H22 C25 1_555 1_555
C26 C22 1_555 1_555
H23 C26 1_555 1_555
H24 C26 1_555 1_555
Cd2 O3 1_555 1_555
Cd3 O4 1_555 1_555
O5 Cd3 1_555 1_555
C24 C25 1_555 1_555
C25 C26 1_555 1_555
O1 C15 1_555 1_555
N5 C5 1_555 1_555
N4 H2 1_555 1_555
C6 C5 1_555 1_555
H7 C6 1_555 1_555
C7 N4 1_555 1_555
C8 C7 1_555 1_555
H8 C8 1_555 1_555
C9 N5 1_555 1_555
H9 C9 1_555 1_555
C15 N4 1_555 1_555
C16 C15 1_555 1_555
C6 C7 1_555 1_555
C8 C9 1_555 1_555
O2 C11 1_555 1_555
N1 Cd2 1_555 1_555
N2 H1 1_555 1_555
C1 N1 1_555 1_555
H3 C1 1_555 1_555
C2 C1 1_555 1_555
H4 C2 1_555 1_555
C3 N2 1_555 1_555
C4 N1 1_555 1_555
H5 C4 1_555 1_555
C10 C3 1_555 1_555
H10 C10 1_555 1_555
C11 N2 1_555 1_555
C12 C11 1_555 1_555
C13 C12 1_555 1_555
H11 C13 1_555 1_555
C14 C12 1_555 1_555
H12 C14 1_555 1_555
C17 C14 1_555 1_555
C18 C13 1_555 1_555
H14 C18 1_555 1_555
O8 Cd2 1_555 1_555
O9 Cd2 1_555 1_555
C2 C3 1_555 1_555
C4 C10 1_555 1_555
O7 C24_2 1_555 1_555
O8 C19_2 1_555 1_555
O9 C19_2 1_555 1_555
C19_2 C20_2 1_555 1_555
C20_2 H15_2 1_555 1_555
C21_2 C20_2 1_555 1_555
H16_2 C21_2 1_555 1_555
H17_2 C21_2 1_555 1_555
C22_2 C20_2 1_555 1_555
H18_2 C22_2 1_555 1_555
H19_2 C22_2 1_555 1_555
C23_2 C21_2 1_555 1_555
H20_2 C23_2 1_555 1_555
H21_2 C23_2 1_555 1_555
C24_2 O6_2 1_555 1_555
C25_2 C23_2 1_555 1_555
H22_2 C25_2 1_555 1_555
C26_2 C22_2 1_555 1_555
H23_2 C26_2 1_555 1_555
H24_2 C26_2 1_555 1_555
C24_2 C25_2 1_555 1_555
C25_2 C26_2 1_555 1_555
O2_2 C11_2 1_555 1_555
N1_2 Cd1 1_555 1_555
N2_2 H1_2 1_555 1_555
C1_2 N1_2 1_555 1_555
H3_2 C1_2 1_555 1_555
C2_2 C1_2 1_555 1_555
H4_2 C2_2 1_555 1_555
C3_2 N2_2 1_555 1_555
C4_2 N1_2 1_555 1_555
H5_2 C4_2 1_555 1_555
C10_2 C3_2 1_555 1_555
H10_2 C10_2 1_555 1_555
C11_2 N2_2 1_555 1_555
C12_2 C11_2 1_555 1_555
C13_2 C12_2 1_555 1_555
H11_2 C13_2 1_555 1_555
C14_2 C12_2 1_555 1_555
H12_2 C14_2 1_555 1_555
C17_2 C14_2 1_555 1_555
C18_2 C13_2 1_555 1_555
H14_2 C18_2 1_555 1_555
O7_2 Cd1 1_555 1_555
O8_2 Cd1 1_555 1_555
O9_2 Cd1 1_555 1_555
C2_2 C3_2 1_555 1_555
C4_2 C10_2 1_555 1_555
O3_2 C24_3 1_555 1_555
O8_2 C19_3 1_555 1_555
O9_2 C19_3 1_555 1_555
C19_3 C20_3 1_555 1_555
C20_3 H15_3 1_555 1_555
C21_3 C20_3 1_555 1_555
H16_3 C21_3 1_555 1_555
H17_3 C21_3 1_555 1_555
C22_3 C20_3 1_555 1_555
H18_3 C22_3 1_555 1_555
H19_3 C22_3 1_555 1_555
C23_3 C21_3 1_555 1_555
H20_3 C23_3 1_555 1_555
H21_3 C23_3 1_555 1_555
C24_3 O6_3 1_555 1_555
C25_3 C23_3 1_555 1_555
H22_3 C25_3 1_555 1_555
C26_3 C22_3 1_555 1_555
H23_3 C26_3 1_555 1_555
H24_3 C26_3 1_555 1_555
C24_3 C25_3 1_555 1_555
C25_3 C26_3 1_555 1_555
O1_2 C15_2 1_555 1_555
N3 C5_2 1_555 1_555
N4_2 H2_2 1_555 1_555
C6_2 C5_2 1_555 1_555
H7_2 C6_2 1_555 1_555
C7_2 N4_2 1_555 1_555
C8_2 C7_2 1_555 1_555
H8_2 C8_2 1_555 1_555
C9_2 N3 1_555 1_555
H9_2 C9_2 1_555 1_555
C15_2 N4_2 1_555 1_555
C16_2 C15_2 1_555 1_555
C6_2 C7_2 1_555 1_555
C8_2 C9_2 1_555 1_555
O7_2 C24_4 1_555 1_555
O4_2 C19_4 1_555 1_555
O5_2 C19_4 1_555 1_555
C19_4 C20_4 1_555 1_555
C20_4 H15_4 1_555 1_555
C21_4 C20_4 1_555 1_555
H16_4 C21_4 1_555 1_555
H17_4 C21_4 1_555 1_555
C22_4 C20_4 1_555 1_555
H18_4 C22_4 1_555 1_555
H19_4 C22_4 1_555 1_555
C23_4 C21_4 1_555 1_555
H20_4 C23_4 1_555 1_555
H21_4 C23_4 1_555 1_555
C24_4 O6_4 1_555 1_555
C25_4 C23_4 1_555 1_555
H22_4 C25_4 1_555 1_555
C26_4 C22_4 1_555 1_555
H23_4 C26_4 1_555 1_555
H24_4 C26_4 1_555 1_555
Cd2_2 O4_2 1_555 1_555
O5_2 Cd2_2 1_555 1_555
C24_4 C25_4 1_555 1_555
C25_4 C26_4 1_555 1_555
O1_3 C15_3 1_555 1_555
O2_3 C11_3 1_555 1_555
N2_3 H1_3 1_555 1_555
N3_2 C5_3 1_555 1_555
N4_3 H2_3 1_555 1_555
C1_3 N1_3 1_555 1_555
H3_3 C1_3 1_555 1_555
C2_3 C1_3 1_555 1_555
H4_3 C2_3 1_555 1_555
C3_3 N2_3 1_555 1_555
C4_3 N1_3 1_555 1_555
H5_3 C4_3 1_555 1_555
C6_3 C5_3 1_555 1_555
H7_3 C6_3 1_555 1_555
C7_3 N4_3 1_555 1_555
C8_3 C7_3 1_555 1_555
H8_3 C8_3 1_555 1_555
C9_3 N3_2 1_555 1_555
H9_3 C9_3 1_555 1_555
C10_3 C3_3 1_555 1_555
H10_3 C10_3 1_555 1_555
C11_3 N2_3 1_555 1_555
C12_3 C11_3 1_555 1_555
C13_3 C12_3 1_555 1_555
C14_3 C12_3 1_555 1_555
H12_3 C14_3 1_555 1_555
C15_3 N4_3 1_555 1_555
C16_3 C15_3 1_555 1_555
C17_3 C14_3 1_555 1_555
H13_3 C17_3 1_555 1_555
C18_3 C13_3 1_555 1_555
C2_3 C3_3 1_555 1_555
C4_3 C10_3 1_555 1_555
C6_3 C7_3 1_555 1_555
C8_3 C9_3 1_555 1_555
C16_3 C17_3 1_555 1_555
C16_3 C18_3 1_555 1_555
O1_4 C15_4 1_555 1_555
O2_4 C11_4 1_555 1_555
N2_4 H1_4 1_555 1_555
N5_2 C5_4 1_555 1_555
N4_4 H2_4 1_555 1_555
C1_4 N1_4 1_555 1_555
H3_4 C1_4 1_555 1_555
C2_4 C1_4 1_555 1_555
H4_4 C2_4 1_555 1_555
C3_4 N2_4 1_555 1_555
C4_4 N1_4 1_555 1_555
H5_4 C4_4 1_555 1_555
C6_4 C5_4 1_555 1_555
H7_4 C6_4 1_555 1_555
C7_4 N4_4 1_555 1_555
C8_4 C7_4 1_555 1_555
H8_4 C8_4 1_555 1_555
C9_4 N5_2 1_555 1_555
H9_4 C9_4 1_555 1_555
C10_4 C3_4 1_555 1_555
H10_4 C10_4 1_555 1_555
C11_4 N2_4 1_555 1_555
C12_4 C11_4 1_555 1_555
C13_4 C12_4 1_555 1_555
C14_4 C12_4 1_555 1_555
H12_4 C14_4 1_555 1_555
C15_4 N4_4 1_555 1_555
C16_4 C15_4 1_555 1_555
C17_4 C14_4 1_555 1_555
H13_4 C17_4 1_555 1_555
C18_4 C13_4 1_555 1_555
C2_4 C3_4 1_555 1_555
C4_4 C10_4 1_555 1_555
C6_4 C7_4 1_555 1_555
C8_4 C9_4 1_555 1_555
C16_4 C17_4 1_555 1_555
C16_4 C18_4 1_555 1_555

#END
