
###############################################################################
#
# This file contains modified crystal structure data generated from the
# MOF subset of the Cambridge Structural Database (CSD) v543 
# hosted by the Cambridge Crystallographic Data Centre (CCDC).
#
# This work is licensed under the Creative Commons
# Attribution-NonCommercial-ShareAlike 4.0 International License.
# To view a copy of this license, visit
# http://creativecommons.org/licenses/by-nc-sa/4.0/
# or send a letter to
# Creative Commons, PO Box 1866, Mountain View, CA 94042, USA.
#
# CIF created using the CSD Python API on 29 September 2022
# The structure has been converted into the P1 space group
# The structure has a 3D framework
# The original CSD entry OVABUJ is in the monoclinic crystal system
# The framework has been calculated to contain at least 10.0% void space
# The void calculation uses a probe of radius 1.32A, grid spacing 0.4
# H atom positions have been added when not included in the experimental data
#
###############################################################################

data_OVABUJ
_chemical_formula_moiety         '(C32 H16 Ca22 O95 P16)n'
_symmetry_cell_setting           triclinic
_symmetry_space_group_name_H-M   'P 1'
_symmetry_Int_Tables_number      1
_space_group_name_Hall           'P 1'
loop_
_symmetry_equiv_pos_site_id
_symmetry_equiv_pos_as_xyz
1 x,y,z
_cell_length_a                   29.7116(4)
_cell_length_b                   8.84842(9)
_cell_length_c                   11.31039(9)
_cell_angle_alpha                90
_cell_angle_beta                 93.2400(8)
_cell_angle_gamma                90
_cell_volume                     2968.76
loop_
_atom_site_label
_atom_site_type_symbol
_atom_site_fract_x
_atom_site_fract_y
_atom_site_fract_z
_atom_site_U_iso_or_equiv
_atom_site_thermal_displace_type
Ca14 Ca 0.25000 0.2576(7) 0.0000 0.0099 Uiso
Ca1 Ca 0.06205(16) 0.4016(5) 0.2077(4) 0.0099 Uiso
Ca3 Ca 0.25000 0.2424(7) 0.5000 0.0099 Uiso
P1 P 0.21427(20) 0.4557(7) 0.2536(5) 0.0099 Uiso
O1 O 0.2492(4) 0.4445(14) 0.3574(8) 0.0235 Uiso
O2 O 0.2364(4) 0.4428(14) 0.1325(8) 0.0235 Uiso
O3 O 0.1886(4) 0.6065(11) 0.2565(11) 0.0235 Uiso
C1 C 0.1702(4) 0.3125(14) 0.2514(10) 0.0235 Uiso
C2 C 0.1470(4) 0.2977(23) 0.3676(11) 0.0235 Uiso
O4 O 0.1706(4) 0.2633(16) 0.4597(10) 0.0235 Uiso
O5 O 0.10621(35) 0.3232(16) 0.3706(11) 0.0235 Uiso
O6 O 0.1365(4) 0.3352(15) 0.1600(10) 0.0235 Uiso
O8 O 0.00539(34) 0.4405(15) 0.3700(9) 0.0235 Uiso
O13 O 0.0469(5) 0.3323(18) 0.0017(13) 0.0610 Uiso
Ca4 Ca 0.43795(16) 0.4016(5) 0.7923(4) 0.0099 Uiso
Ca9 Ca 0.02424(15) 0.7013(5) 0.4519(4) 0.0099 Uiso
Ca12 Ca 0.52424(15) 0.2013(5) 0.9519(4) 0.0099 Uiso
Ca14_2 Ca 0.25000 0.2576(7) 1.0000 0.0099 Uiso
P3 P 0.28573(20) 0.4557(7) 0.7464(5) 0.0099 Uiso
O14 O 0.2508(4) 0.4445(14) 0.6426(8) 0.0235 Uiso
O15 O 0.2636(4) 0.4428(14) 0.8675(8) 0.0235 Uiso
O16 O 0.2636(4) 0.0572(14) 0.3675(8) 0.0235 Uiso
O17 O 0.2364(4) 0.0572(14) 0.6325(8) 0.0235 Uiso
O18 O 0.3114(4) 0.6065(11) 0.7435(11) 0.0235 Uiso
C5 C 0.3298(4) 0.3125(14) 0.7486(10) 0.0235 Uiso
C6 C 0.3530(4) 0.2977(23) 0.6324(11) 0.0235 Uiso
O19 O 0.3294(4) 0.2633(16) 0.5403(10) 0.0235 Uiso
O20 O 0.39379(35) 0.3232(16) 0.6294(11) 0.0235 Uiso
O21 O 0.3635(4) 0.3352(15) 0.8400(10) 0.0235 Uiso
O23 O 0.5175(4) 0.4412(14) 0.8444(8) 0.0235 Uiso
O26 O 0.49461(34) 0.4405(15) 0.6300(9) 0.0235 Uiso
O29 O 0.0370(4) 0.1622(10) 0.2196(11) 0.0235 Uiso
O30 O 0.4630(4) 0.1622(10) 0.7804(11) 0.0235 Uiso
O33 O 0.0639(5) 0.6524(13) 0.0979(10) 0.0235 Uiso
O35 O 0.4361(5) 0.6524(13) 0.9021(10) 0.0235 Uiso
O38 O 0.0769(5) 0.6651(13) 0.2926(10) 0.0235 Uiso
O39 O 0.4231(5) 0.6651(13) 0.7074(10) 0.0235 Uiso
O43 O 0.4531(5) 0.3323(18) 0.9983(13) 0.0610 Uiso
H1 H 0.186111 0.204277 0.234769 . .
H3 H 0.313889 0.204277 0.765231 . .
O25 O 0.00539(34) 0.0595(15) 0.8700(9) 0.0235 Uiso
P4 P 0.03153(21) 0.9909(7) 0.2211(5) 0.0099 Uiso
O22 O 0.0175(4) 0.9412(14) 0.3444(8) 0.0235 Uiso
C7 C 0.08172(29) 0.8945(11) 0.1802(11) 0.0235 Uiso
C8 C 0.0735(6) 0.7300(11) 0.1914(10) 0.0235 Uiso
O36 O 0.0639(5) 0.8476(13) 0.5979(10) 0.0235 Uiso
O40 O 0.0923(4) 0.9283(13) 0.0601(9) 0.0235 Uiso
O42 O 0.0923(4) 0.5717(13) 0.5601(9) 0.0235 Uiso
H4 H 0.109933 0.927258 0.240409 . .
Ca11 Ca 0.02424(15) 0.7987(5) 0.9519(4) 0.0099 Uiso
Ca2 Ca 0.97576(15) 0.2013(5) 0.0481(4) 0.0099 Uiso
P2 P 0.96847(21) 0.4909(7) 0.2789(5) 0.0099 Uiso
O7 O 0.9825(4) 0.4412(14) 0.1556(8) 0.0235 Uiso
O9 O 0.9630(4) 0.6622(10) 0.2804(11) 0.0235 Uiso
C3 C 0.91828(29) 0.3945(11) 0.3198(11) 0.0235 Uiso
C4 C 0.9265(6) 0.2300(11) 0.3086(10) 0.0235 Uiso
O10 O 0.9361(5) 0.1524(13) 0.4021(10) 0.0235 Uiso
O11 O 0.9231(5) 0.1651(13) 0.2074(10) 0.0235 Uiso
O12 O 0.9077(4) 0.4283(13) 0.4399(9) 0.0235 Uiso
Ca5 Ca 0.93795(16) 0.9016(5) 0.2923(4) 0.0099 Uiso
Ca10 Ca 0.97576(15) 0.2987(5) 0.5481(4) 0.0099 Uiso
H2 H 0.890067 0.427258 0.259591 . .
O34 O 0.9361(5) 0.3476(13) 0.9021(10) 0.0235 Uiso
O41 O 0.9077(4) 0.0717(13) 0.9399(9) 0.0235 Uiso
O24 O 0.99461(34) 0.9405(15) 0.1300(9) 0.0235 Uiso
O28 O 0.99461(34) 0.5595(15) 0.6300(9) 0.0235 Uiso
O44 O 0.9531(5) 0.8323(18) 0.4983(13) 0.0610 Uiso
O25_2 O 0.49461(34) 0.0595(15) 0.1300(9) 0.0235 Uiso
O34_2 O 0.5639(5) 0.3476(13) 0.0979(10) 0.0235 Uiso
O41_2 O 0.5923(4) 0.0717(13) 0.0601(9) 0.0235 Uiso
P2_2 P 0.53153(21) 0.4909(7) 0.7211(5) 0.0099 Uiso
O9_2 O 0.5370(4) 0.6622(10) 0.7196(11) 0.0235 Uiso
C3_2 C 0.58172(29) 0.3945(11) 0.6802(11) 0.0235 Uiso
C4_2 C 0.5735(6) 0.2300(11) 0.6914(10) 0.0235 Uiso
O10_2 O 0.5639(5) 0.1524(13) 0.5979(10) 0.0235 Uiso
O11_2 O 0.5769(5) 0.1651(13) 0.7926(10) 0.0235 Uiso
O12_2 O 0.5923(4) 0.4283(13) 0.5601(9) 0.0235 Uiso
Ca5_2 Ca 0.56205(16) 0.9016(5) 0.7077(4) 0.0099 Uiso
Ca9_2 Ca 0.47576(15) 0.7013(5) 0.5481(4) 0.0099 Uiso
Ca10_2 Ca 0.52424(15) 0.2987(5) 0.4519(4) 0.0099 Uiso
H2_2 H 0.609933 0.427258 0.740409 . .
Ca11_2 Ca 0.47576(15) 0.7987(5) 0.0481(4) 0.0099 Uiso
P4_2 P 0.46847(21) 0.9909(7) 0.7789(5) 0.0099 Uiso
O22_2 O 0.4825(4) 0.9412(14) 0.6556(8) 0.0235 Uiso
O24_2 O 0.50539(34) 0.9405(15) 0.8700(9) 0.0235 Uiso
O28_2 O 0.50539(34) 0.5595(15) 0.3700(9) 0.0235 Uiso
C7_2 C 0.41828(29) 0.8945(11) 0.8198(11) 0.0235 Uiso
C8_2 C 0.4265(6) 0.7300(11) 0.8086(10) 0.0235 Uiso
O36_2 O 0.4361(5) 0.8476(13) 0.4021(10) 0.0235 Uiso
O40_2 O 0.4077(4) 0.9283(13) 0.9399(9) 0.0235 Uiso
O42_2 O 0.4077(4) 0.5717(13) 0.4399(9) 0.0235 Uiso
O44_2 O 0.5469(5) 0.8323(18) 0.5017(13) 0.0610 Uiso
H4_2 H 0.390067 0.927258 0.759591 . .
O18_2 O 0.8114(4) 0.1065(11) 0.2435(11) 0.0235 Uiso
O3_2 O 0.6886(4) 0.1065(11) 0.7565(11) 0.0235 Uiso
Ca3_2 Ca 0.75000 0.7424(7) 0.0000 0.0099 Uiso
Ca14_3 Ca 0.75000 0.7576(7) 0.5000 0.0099 Uiso
P3_2 P 0.78573(20) 0.9557(7) 0.2464(5) 0.0099 Uiso
O14_2 O 0.7508(4) 0.9445(14) 0.1426(8) 0.0235 Uiso
O15_2 O 0.7636(4) 0.9428(14) 0.3675(8) 0.0235 Uiso
O17_2 O 0.7364(4) 0.5572(14) 0.1325(8) 0.0235 Uiso
C5_2 C 0.8298(4) 0.8125(14) 0.2486(10) 0.0235 Uiso
C6_2 C 0.8530(4) 0.7977(23) 0.1324(11) 0.0235 Uiso
O19_2 O 0.8294(4) 0.7633(16) 0.0403(10) 0.0235 Uiso
O20_2 O 0.89379(35) 0.8232(16) 0.1294(11) 0.0235 Uiso
O21_2 O 0.8635(4) 0.8352(15) 0.3400(10) 0.0235 Uiso
H3_2 H 0.813889 0.704277 0.265231 . .
Ca3_3 Ca 0.75000 0.7424(7) 1.0000 0.0099 Uiso
P1_2 P 0.71427(20) 0.9557(7) 0.7536(5) 0.0099 Uiso
O1_2 O 0.7492(4) 0.9445(14) 0.8574(8) 0.0235 Uiso
O2_2 O 0.7364(4) 0.9428(14) 0.6325(8) 0.0235 Uiso
C1_2 C 0.6702(4) 0.8125(14) 0.7514(10) 0.0235 Uiso
C2_2 C 0.6470(4) 0.7977(23) 0.8676(11) 0.0235 Uiso
O4_2 O 0.6706(4) 0.7633(16) 0.9597(10) 0.0235 Uiso
O5_2 O 0.60621(35) 0.8232(16) 0.8706(11) 0.0235 Uiso
O6_2 O 0.6365(4) 0.8352(15) 0.6600(10) 0.0235 Uiso
O16_2 O 0.7636(4) 0.5572(14) 0.8675(8) 0.0235 Uiso
H1_2 H 0.686111 0.704277 0.734769 . .
Ca6 Ca 0.06205(16) 0.0984(5) 0.7077(4) 0.0099 Uiso
O31 O 0.0370(4) 0.3378(10) 0.7196(11) 0.0235 Uiso
O44_3 O 0.0469(5) 0.1677(18) 0.5017(13) 0.0610 Uiso
P2_3 P 0.03153(21) 0.5091(7) 0.7211(5) 0.0099 Uiso
O7_2 O 0.0175(4) 0.5588(14) 0.8444(8) 0.0235 Uiso
C3_3 C 0.08172(29) 0.6055(11) 0.6802(11) 0.0235 Uiso
C4_3 C 0.0735(6) 0.7700(11) 0.6914(10) 0.0235 Uiso
O11_3 O 0.0769(5) 0.8349(13) 0.7926(10) 0.0235 Uiso
H2_3 H 0.109933 0.572742 0.740409 . .
Ca7 Ca 0.93795(16) 0.5984(5) 0.7923(4) 0.0099 Uiso
P4_3 P 0.96847(21) 0.0091(7) 0.7789(5) 0.0099 Uiso
O22_3 O 0.9825(4) 0.0588(14) 0.6556(8) 0.0235 Uiso
C7_3 C 0.91828(29) 0.1055(11) 0.8198(11) 0.0235 Uiso
C8_3 C 0.9265(6) 0.2700(11) 0.8086(10) 0.0235 Uiso
O37 O 0.9231(5) 0.3349(13) 0.7074(10) 0.0235 Uiso
H4_3 H 0.890067 0.0727421 0.759591 . .
P1_3 P 0.78573(20) 0.5443(7) 0.7464(5) 0.0099 Uiso
O1_3 O 0.7508(4) 0.5555(14) 0.6426(8) 0.0235 Uiso
O3_3 O 0.8114(4) 0.3935(11) 0.7435(11) 0.0235 Uiso
C1_3 C 0.8298(4) 0.6875(14) 0.7486(10) 0.0235 Uiso
C2_3 C 0.8530(4) 0.7023(23) 0.6324(11) 0.0235 Uiso
O4_3 O 0.8294(4) 0.7367(16) 0.5403(10) 0.0235 Uiso
O5_3 O 0.89379(35) 0.6768(16) 0.6294(11) 0.0235 Uiso
O6_3 O 0.8635(4) 0.6648(15) 0.8400(10) 0.0235 Uiso
O13_2 O 0.9531(5) 0.6677(18) 0.9983(13) 0.0610 Uiso
Ca4_2 Ca 0.56205(16) 0.5984(5) 0.2077(4) 0.0099 Uiso
P3_3 P 0.71427(20) 0.5443(7) 0.2536(5) 0.0099 Uiso
O14_3 O 0.7492(4) 0.5555(14) 0.3574(8) 0.0235 Uiso
O18_3 O 0.6886(4) 0.3935(11) 0.2565(11) 0.0235 Uiso
C5_3 C 0.6702(4) 0.6875(14) 0.2514(10) 0.0235 Uiso
C6_3 C 0.6470(4) 0.7023(23) 0.3676(11) 0.0235 Uiso
O19_3 O 0.6706(4) 0.7367(16) 0.4597(10) 0.0235 Uiso
O20_3 O 0.60621(35) 0.6768(16) 0.3706(11) 0.0235 Uiso
O21_3 O 0.6365(4) 0.6648(15) 0.1600(10) 0.0235 Uiso
O23_2 O 0.4825(4) 0.5588(14) 0.1556(8) 0.0235 Uiso
O29_2 O 0.9630(4) 0.8378(10) 0.7804(11) 0.0235 Uiso
O30_2 O 0.5370(4) 0.8378(10) 0.2196(11) 0.0235 Uiso
O39_2 O 0.5769(5) 0.3349(13) 0.2926(10) 0.0235 Uiso
O43_2 O 0.5469(5) 0.6677(18) 0.0017(13) 0.0610 Uiso
H1_3 H 0.813889 0.795723 0.765231 . .
H3_3 H 0.686111 0.795723 0.234769 . .
Ca6_2 Ca 0.43795(16) 0.0984(5) 0.2923(4) 0.0099 Uiso
P4_4 P 0.53153(21) 0.0091(7) 0.2211(5) 0.0099 Uiso
O22_4 O 0.5175(4) 0.0588(14) 0.3444(8) 0.0235 Uiso
O31_2 O 0.4630(4) 0.3378(10) 0.2804(11) 0.0235 Uiso
C7_4 C 0.58172(29) 0.1055(11) 0.1802(11) 0.0235 Uiso
C8_4 C 0.5735(6) 0.2700(11) 0.1914(10) 0.0235 Uiso
O44_4 O 0.4531(5) 0.1677(18) 0.4983(13) 0.0610 Uiso
H4_4 H 0.609933 0.0727421 0.240409 . .
P2_4 P 0.46847(21) 0.5091(7) 0.2789(5) 0.0099 Uiso
C3_4 C 0.41828(29) 0.6055(11) 0.3198(11) 0.0235 Uiso
C4_4 C 0.4265(6) 0.7700(11) 0.3086(10) 0.0235 Uiso
O11_4 O 0.4231(5) 0.8349(13) 0.2074(10) 0.0235 Uiso
H2_4 H 0.390067 0.572742 0.259591 . .
P1_4 P 0.28573(20) 0.0443(7) 0.2464(5) 0.0099 Uiso
O1_4 O 0.2508(4) 0.0555(14) 0.1426(8) 0.0235 Uiso
C1_4 C 0.3298(4) 0.1875(14) 0.2486(10) 0.0235 Uiso
C2_4 C 0.3530(4) 0.2023(23) 0.1324(11) 0.0235 Uiso
O4_4 O 0.3294(4) 0.2367(16) 0.0403(10) 0.0235 Uiso
O5_4 O 0.39379(35) 0.1768(16) 0.1294(11) 0.0235 Uiso
O6_4 O 0.3635(4) 0.1648(15) 0.3400(10) 0.0235 Uiso
H1_4 H 0.313889 0.295723 0.265231 . .
P3_4 P 0.21427(20) 0.0443(7) 0.7536(5) 0.0099 Uiso
O14_4 O 0.2492(4) 0.0555(14) 0.8574(8) 0.0235 Uiso
C5_4 C 0.1702(4) 0.1875(14) 0.7514(10) 0.0235 Uiso
C6_4 C 0.1470(4) 0.2023(23) 0.8676(11) 0.0235 Uiso
O19_4 O 0.1706(4) 0.2367(16) 0.9597(10) 0.0235 Uiso
O20_4 O 0.10621(35) 0.1768(16) 0.8706(11) 0.0235 Uiso
O21_4 O 0.1365(4) 0.1648(15) 0.6600(10) 0.0235 Uiso
H3_4 H 0.186111 0.295723 0.734769 . .
O3_4 O 0.3114(4) 0.8935(11) 0.2435(11) 0.0235 Uiso
O18_4 O 0.1886(4) 0.8935(11) 0.7565(11) 0.0235 Uiso
loop_
_geom_bond_atom_site_label_1
_geom_bond_atom_site_label_2
_geom_bond_site_symmetry_1
_geom_bond_site_symmetry_2
Ca1 O5 1_555 1_555
Ca3 O1 1_555 1_555
P1 O1 1_555 1_555
O2 P1 1_555 1_555
O3 P1 1_555 1_555
C1 P1 1_555 1_555
C2 C1 1_555 1_555
O4 Ca3 1_555 1_555
O5 C2 1_555 1_555
O6 Ca1 1_555 1_555
O8 Ca1 1_555 1_555
O13 Ca1 1_555 1_555
Ca4 O20 1_555 1_555
Ca9 O8 1_555 1_555
Ca12 O23 1_555 1_555
Ca14 O2 1_555 1_555
Ca14_2 O15 1_555 1_555
P3 O14 1_555 1_555
O14 Ca3 1_555 1_555
O15 P3 1_555 1_555
O16 Ca3 1_555 1_555
O17 Ca3 1_555 1_555
O18 P3 1_555 1_555
C5 P3 1_555 1_555
C6 C5 1_555 1_555
O19 Ca3 1_555 1_555
O20 C6 1_555 1_555
O21 Ca4 1_555 1_555
O23 Ca4 1_555 1_555
O26 Ca4 1_555 1_555
O29 Ca1 1_555 1_555
O30 Ca4 1_555 1_555
O33 Ca1 1_555 1_555
O35 Ca4 1_555 1_555
O38 Ca1 1_555 1_555
O39 Ca4 1_555 1_555
O43 Ca4 1_555 1_555
C1 O6 1_555 1_555
C2 O4 1_555 1_555
Ca9 O38 1_555 1_555
Ca12 O30 1_555 1_555
Ca12 O43 1_555 1_555
C5 O21 1_555 1_555
C6 O19 1_555 1_555
C1 H1 1_555 1_555
C5 H3 1_555 1_555
Ca9 O22 1_555 1_555
P4 O22 1_555 1_555
C7 P4 1_555 1_555
C8 C7 1_555 1_555
O36 Ca9 1_555 1_555
O42 Ca9 1_555 1_555
C7 O40 1_555 1_555
C8 O33 1_555 1_555
C8 O38 1_555 1_555
C7 H4 1_555 1_555
Ca2 O7 1_555 1_555
P2 O7 1_555 1_555
O9 P2 1_555 1_555
C3 P2 1_555 1_555
C4 C3 1_555 1_555
O10 C4 1_555 1_555
O11 Ca2 1_555 1_555
O12 C3 1_555 1_555
Ca5 O9 1_555 1_555
C4 O11 1_555 1_555
O10 Ca10 1_555 1_555
O12 Ca10 1_555 1_555
C3 H2 1_555 1_555
O44 Ca5 1_555 1_555
Ca5 O24 1_555 1_555
P2_2 O23 1_555 1_555
O9_2 P2_2 1_555 1_555
C3_2 P2_2 1_555 1_555
C4_2 C3_2 1_555 1_555
O10_2 C4_2 1_555 1_555
O11_2 Ca12 1_555 1_555
O12_2 C3_2 1_555 1_555
Ca5_2 O9_2 1_555 1_555
Ca9_2 O26 1_555 1_555
Ca10_2 O26 1_555 1_555
P2_2 O26 1_555 1_555
O9_2 Ca9_2 1_555 1_555
C4_2 O11_2 1_555 1_555
O10_2 Ca10_2 1_555 1_555
O12_2 Ca10_2 1_555 1_555
Ca9_2 O39 1_555 1_555
C3_2 H2_2 1_555 1_555
Ca9_2 O22_2 1_555 1_555
P4_2 O22_2 1_555 1_555
O22_2 Ca5_2 1_555 1_555
O28_2 Ca9_2 1_555 1_555
C7_2 P4_2 1_555 1_555
C8_2 C7_2 1_555 1_555
O36_2 Ca9_2 1_555 1_555
O42_2 Ca9_2 1_555 1_555
O44_2 Ca5_2 1_555 1_555
Ca5_2 O24_2 1_555 1_555
Ca9_2 O44_2 1_555 1_555
P4_2 O24_2 1_555 1_555
C7_2 O40_2 1_555 1_555
C8_2 O35 1_555 1_555
C8_2 O39 1_555 1_555
C7_2 H4_2 1_555 1_555
Ca5 O20_2 1_555 1_555
Ca14_3 O15_2 1_555 1_555
P3_2 O14_2 1_555 1_555
O14_2 Ca3_2 1_555 1_555
O15_2 P3_2 1_555 1_555
O17_2 Ca3_2 1_555 1_555
C5_2 P3_2 1_555 1_555
C6_2 C5_2 1_555 1_555
O19_2 Ca3_2 1_555 1_555
O20_2 C6_2 1_555 1_555
O21_2 Ca5 1_555 1_555
C5_2 O21_2 1_555 1_555
C6_2 O19_2 1_555 1_555
C5_2 H3_2 1_555 1_555
Ca5_2 O5_2 1_555 1_555
Ca3_3 O1_2 1_555 1_555
P1_2 O1_2 1_555 1_555
O2_2 P1_2 1_555 1_555
C1_2 P1_2 1_555 1_555
C2_2 C1_2 1_555 1_555
O4_2 Ca3_3 1_555 1_555
O5_2 C2_2 1_555 1_555
O6_2 Ca5_2 1_555 1_555
Ca14_3 O2_2 1_555 1_555
O16_2 Ca3_3 1_555 1_555
C1_2 O6_2 1_555 1_555
C2_2 O4_2 1_555 1_555
Ca10_2 O28_2 1_555 1_555
C1_2 H1_2 1_555 1_555
Ca10 O28 1_555 1_555
O31 Ca6 1_555 1_555
O44_3 Ca6 1_555 1_555
Ca6 O25 1_555 1_555
Ca11 O7_2 1_555 1_555
P2_3 O7_2 1_555 1_555
O31 P2_3 1_555 1_555
C3_3 P2_3 1_555 1_555
C4_3 C3_3 1_555 1_555
O36 C4_3 1_555 1_555
O11_3 Ca11 1_555 1_555
O42 C3_3 1_555 1_555
C4_3 O11_3 1_555 1_555
C3_3 H2_3 1_555 1_555
Ca7 O28 1_555 1_555
Ca10 O22_3 1_555 1_555
P4_3 O22_3 1_555 1_555
C7_3 P4_3 1_555 1_555
C8_3 C7_3 1_555 1_555
O34 Ca7 1_555 1_555
O37 Ca7 1_555 1_555
Ca10 O37 1_555 1_555
C7_3 O41 1_555 1_555
C8_3 O34 1_555 1_555
C8_3 O37 1_555 1_555
C7_3 H4_3 1_555 1_555
Ca7 O5_3 1_555 1_555
Ca14_3 O1_3 1_555 1_555
P1_3 O1_3 1_555 1_555
O16_2 P1_3 1_555 1_555
O3_3 P1_3 1_555 1_555
C1_3 P1_3 1_555 1_555
C2_3 C1_3 1_555 1_555
O4_3 Ca14_3 1_555 1_555
O5_3 C2_3 1_555 1_555
O6_3 Ca7 1_555 1_555
O13_2 Ca7 1_555 1_555
Ca4_2 O20_3 1_555 1_555
Ca11_2 O23_2 1_555 1_555
P3_3 O14_3 1_555 1_555
O14_3 Ca14_3 1_555 1_555
O17_2 P3_3 1_555 1_555
O18_3 P3_3 1_555 1_555
C5_3 P3_3 1_555 1_555
C6_3 C5_3 1_555 1_555
O19_3 Ca14_3 1_555 1_555
O20_3 C6_3 1_555 1_555
O21_3 Ca4_2 1_555 1_555
O23_2 Ca4_2 1_555 1_555
O28_2 Ca4_2 1_555 1_555
O29_2 Ca7 1_555 1_555
O30_2 Ca4_2 1_555 1_555
O34_2 Ca4_2 1_555 1_555
O39_2 Ca4_2 1_555 1_555
O43_2 Ca4_2 1_555 1_555
C1_3 O6_3 1_555 1_555
C2_3 O4_3 1_555 1_555
Ca11_2 O30_2 1_555 1_555
Ca11_2 O43_2 1_555 1_555
C5_3 O21_3 1_555 1_555
C6_3 O19_3 1_555 1_555
C1_3 H1_3 1_555 1_555
C5_3 H3_3 1_555 1_555
Ca10_2 O22_4 1_555 1_555
P4_4 O22_4 1_555 1_555
O22_4 Ca6_2 1_555 1_555
O31_2 Ca6_2 1_555 1_555
C7_4 P4_4 1_555 1_555
C8_4 C7_4 1_555 1_555
O44_4 Ca6_2 1_555 1_555
Ca6_2 O25_2 1_555 1_555
Ca10_2 O31_2 1_555 1_555
Ca10_2 O39_2 1_555 1_555
Ca10_2 O44_4 1_555 1_555
P4_4 O25_2 1_555 1_555
C7_4 O41_2 1_555 1_555
C8_4 O34_2 1_555 1_555
C8_4 O39_2 1_555 1_555
C7_4 H4_4 1_555 1_555
P2_4 O23_2 1_555 1_555
O31_2 P2_4 1_555 1_555
C3_4 P2_4 1_555 1_555
C4_4 C3_4 1_555 1_555
O36_2 C4_4 1_555 1_555
O11_4 Ca11_2 1_555 1_555
O42_2 C3_4 1_555 1_555
P2_4 O28_2 1_555 1_555
C4_4 O11_4 1_555 1_555
C3_4 H2_4 1_555 1_555
Ca6_2 O5_4 1_555 1_555
Ca14 O1_4 1_555 1_555
P1_4 O1_4 1_555 1_555
O16 P1_4 1_555 1_555
C1_4 P1_4 1_555 1_555
C2_4 C1_4 1_555 1_555
O4_4 Ca14 1_555 1_555
O5_4 C2_4 1_555 1_555
O6_4 Ca6_2 1_555 1_555
C1_4 O6_4 1_555 1_555
C2_4 O4_4 1_555 1_555
C1_4 H1_4 1_555 1_555
Ca6 O20_4 1_555 1_555
P3_4 O14_4 1_555 1_555
O14_4 Ca14_2 1_555 1_555
O17 P3_4 1_555 1_555
C5_4 P3_4 1_555 1_555
C6_4 C5_4 1_555 1_555
O19_4 Ca14_2 1_555 1_555
O20_4 C6_4 1_555 1_555
O21_4 Ca6 1_555 1_555
C5_4 O21_4 1_555 1_555
C6_4 O19_4 1_555 1_555
C5_4 H3_4 1_555 1_555

#END
