
###############################################################################
#
# This file contains modified crystal structure data generated from the
# MOF subset of the Cambridge Structural Database (CSD) v543 
# hosted by the Cambridge Crystallographic Data Centre (CCDC).
#
# This work is licensed under the Creative Commons
# Attribution-NonCommercial-ShareAlike 4.0 International License.
# To view a copy of this license, visit
# http://creativecommons.org/licenses/by-nc-sa/4.0/
# or send a letter to
# Creative Commons, PO Box 1866, Mountain View, CA 94042, USA.
#
# CIF created using the CSD Python API on 29 September 2022
# The structure has been converted into the P1 space group
# The structure has a 3D framework
# The original CSD entry OVEKEI is in the monoclinic crystal system
# The framework has been calculated to contain at least 10.0% void space
# The void calculation uses a probe of radius 1.32A, grid spacing 0.4
# H atom positions have been added when not included in the experimental data
#
###############################################################################

data_OVEKEI
_chemical_formula_moiety         '(C48 H16 Ga15 O39 S8)n'
_symmetry_cell_setting           triclinic
_symmetry_space_group_name_H-M   'P 1'
_symmetry_Int_Tables_number      1
_space_group_name_Hall           'P 1'
loop_
_symmetry_equiv_pos_site_id
_symmetry_equiv_pos_as_xyz
1 x,y,z
_cell_length_a                   12.5727(9)
_cell_length_b                   15.7775(14)
_cell_length_c                   14.0248(11)
_cell_angle_alpha                90
_cell_angle_beta                 102.539(7)
_cell_angle_gamma                90
_cell_volume                     2715.68
loop_
_atom_site_label
_atom_site_type_symbol
_atom_site_fract_x
_atom_site_fract_y
_atom_site_fract_z
_atom_site_U_iso_or_equiv
_atom_site_thermal_displace_type
Ga11 Ga 0.500 0.000 0.000 0.0253 Uiso
Ga13 Ga 0.000 0.000 0.000 0.0253 Uiso
Ga11_2 Ga 0.500 0.000 1.000 0.0253 Uiso
Ga13_2 Ga 0.000 0.000 1.000 0.0253 Uiso
Ga1 Ga 0.2213(13) 0.5498(10) 0.4416(10) 0.0405 Uiso
Ga2 Ga 0.500 0.500 0.500 0.0253 Uiso
Ga3 Ga 0.000 0.500 0.500 0.0253 Uiso
O1 O 0.159(5) 0.537(4) 0.554(4) 0.0405 Uiso
O2 O 0.344(4) 0.476(4) 0.486(4) 0.0405 Uiso
O3 O 0.314(2) 0.566(3) 0.347(4) 0.0405 Uiso
O4 O 0.497(2) 0.883(4) 0.059(4) 0.0405 Uiso
O5 O 0.018(5) 0.074(3) 0.896(3) 0.0405 Uiso
O6 O 0.322(2) 0.864(4) 0.001(4) 0.0405 Uiso
O7 O 0.492(2) 0.555(3) 0.367(4) 0.0405 Uiso
O9 O 0.028(7) 0.388(3) 0.570(4) 0.0405 Uiso
O10 O 0.159(5) 0.030(3) 0.841(3) 0.0405 Uiso
C1 C 0.4035(11) 0.6650(14) 0.264(2) 0.0405 Uiso
C2 C 0.3927(11) 0.745(4) 0.298(3) 0.0405 Uiso
C3 C 0.3941(12) 0.809(3) 0.230(4) 0.0405 Uiso
C4 C 0.4061(11) 0.783(2) 0.141(2) 0.0405 Uiso
S1 S 0.4153(10) 0.6755(14) 0.1460(16) 0.0405 Uiso
C5 C 0.4086(11) 0.846(3) 0.063(3) 0.0405 Uiso
C6 C 0.4032(11) 0.592(2) 0.329(3) 0.0405 Uiso
C7 C 0.069(3) 0.1520(15) 0.7716(13) 0.0405 Uiso
C8 C 0.153(4) 0.175(2) 0.729(2) 0.0405 Uiso
C9 C 0.122(5) 0.244(3) 0.665(3) 0.0405 Uiso
C10 C 0.017(3) 0.2685(19) 0.6661(18) 0.0405 Uiso
C12 C 0.082(4) 0.083(2) 0.839(2) 0.0405 Uiso
O18 O 0.134(6) 0.650(3) 0.408(4) 0.0405 Uiso
S4 S 0.0452(18) 0.7890(11) 0.2605(11) 0.0405 Uiso
C23 C 0.031(5) 0.662(2) 0.393(2) 0.0405 Uiso
Ga11_3 Ga 0.500 1.000 0.000 0.0253 Uiso
Ga13_3 Ga 0.000 1.000 0.000 0.0253 Uiso
O21 O 0.656(4) 0.524(4) 0.514(4) 0.0405 Uiso
O22 O 0.503(2) 0.383(4) 0.441(4) 0.0405 Uiso
O23 O 0.497(2) 0.617(4) 0.559(4) 0.0405 Uiso
O25 O 0.018(5) 0.426(3) 0.396(3) 0.0405 Uiso
O27 O 0.322(2) 0.636(4) 0.501(4) 0.0405 Uiso
O28 O 0.508(2) 0.445(3) 0.633(4) 0.0405 Uiso
O30 O 0.159(5) 0.470(3) 0.341(3) 0.0405 Uiso
H1 H 0.232473 0.144344 0.742623 . .
H2 H 0.173435 0.273558 0.621181 . .
H3 H 0.383737 0.757635 0.372188 . .
H4 H 0.386061 0.875663 0.247292 . .
Ga8 Ga 0.2213(13) 0.9502(10) 0.9416(10) 0.0405 Uiso
Ga11_4 Ga 0.500 1.000 1.000 0.0253 Uiso
Ga13_4 Ga 0.000 1.000 1.000 0.0253 Uiso
Ga6 Ga 0.7787(13) 0.0498(10) 0.0584(10) 0.0405 Uiso
Ga13_5 Ga 1.000 0.000 0.000 0.0253 Uiso
Ga13_6 Ga 1.000 0.000 1.000 0.0253 Uiso
Ga3_2 Ga 1.000 0.500 0.500 0.0253 Uiso
O8 O 0.866(6) 0.350(3) 0.592(4) 0.0405 Uiso
S2 S 0.9548(18) 0.2110(11) 0.7395(11) 0.0405 Uiso
C11 C 0.969(5) 0.338(2) 0.607(2) 0.0405 Uiso
Ga4 Ga 0.7787(13) 0.4502(10) 0.5584(10) 0.0405 Uiso
O11 O 0.841(5) 0.463(4) 0.446(4) 0.0405 Uiso
O13 O 0.686(2) 0.434(3) 0.653(4) 0.0405 Uiso
O14 O 0.503(2) 0.117(4) 0.941(4) 0.0405 Uiso
O15 O 0.982(5) 0.926(3) 0.104(3) 0.0405 Uiso
O16 O 0.678(2) 0.136(4) 0.999(4) 0.0405 Uiso
O19 O 0.972(7) 0.612(3) 0.430(4) 0.0405 Uiso
O20 O 0.841(5) 0.970(3) 0.159(3) 0.0405 Uiso
C13 C 0.5965(11) 0.3350(14) 0.736(2) 0.0405 Uiso
C14 C 0.6073(11) 0.255(4) 0.702(3) 0.0405 Uiso
C15 C 0.6059(12) 0.191(3) 0.770(4) 0.0405 Uiso
C16 C 0.5939(11) 0.217(2) 0.859(2) 0.0405 Uiso
S3 S 0.5847(10) 0.3245(14) 0.8540(16) 0.0405 Uiso
C17 C 0.5914(11) 0.154(3) 0.937(3) 0.0405 Uiso
C18 C 0.5968(11) 0.408(2) 0.671(3) 0.0405 Uiso
C19 C 0.931(3) 0.8480(15) 0.2284(13) 0.0405 Uiso
C20 C 0.847(4) 0.825(2) 0.271(2) 0.0405 Uiso
C21 C 0.878(5) 0.756(3) 0.335(3) 0.0405 Uiso
C22 C 0.983(3) 0.7315(19) 0.3339(18) 0.0405 Uiso
C24 C 0.918(4) 0.917(2) 0.161(2) 0.0405 Uiso
Ga13_7 Ga 1.000 1.000 0.000 0.0253 Uiso
O24 O 0.982(5) 0.574(3) 0.604(3) 0.0405 Uiso
O26 O 0.678(2) 0.364(4) 0.499(4) 0.0405 Uiso
O29 O 0.841(5) 0.530(3) 0.659(3) 0.0405 Uiso
H5 H 0.616263 0.242365 0.627812 . .
H6 H 0.826565 0.726442 0.378819 . .
H7 H 0.613939 0.124337 0.752708 . .
H8 H 0.767527 0.855656 0.257377 . .
Ga13_8 Ga 1.000 1.000 1.000 0.0253 Uiso
O19_2 O 0.028(7) 0.112(3) 0.070(4) 0.0405 Uiso
C19_2 C 0.069(3) 0.3480(15) 0.2716(13) 0.0405 Uiso
C20_2 C 0.153(4) 0.325(2) 0.229(2) 0.0405 Uiso
C21_2 C 0.122(5) 0.256(3) 0.165(3) 0.0405 Uiso
C22_2 C 0.017(3) 0.2315(19) 0.1661(18) 0.0405 Uiso
C24_2 C 0.082(4) 0.417(2) 0.339(2) 0.0405 Uiso
H6_2 H 0.173435 0.226442 0.121181 . .
H8_2 H 0.232473 0.355656 0.242623 . .
O12 O 0.344(4) 0.024(4) 0.986(4) 0.0405 Uiso
O11_2 O 0.159(5) 0.963(4) 0.054(4) 0.0405 Uiso
O8_2 O 0.134(6) 0.850(3) 0.908(4) 0.0405 Uiso
S2_2 S 0.0452(18) 0.7110(11) 0.7605(11) 0.0405 Uiso
C11_2 C 0.031(5) 0.838(2) 0.893(2) 0.0405 Uiso
O13_2 O 0.314(2) 0.934(3) 0.847(4) 0.0405 Uiso
O17 O 0.492(2) 0.945(3) 0.867(4) 0.0405 Uiso
C13_2 C 0.4035(11) 0.8350(14) 0.764(2) 0.0405 Uiso
C14_2 C 0.3927(11) 0.755(4) 0.798(3) 0.0405 Uiso
C15_2 C 0.3941(12) 0.691(3) 0.730(4) 0.0405 Uiso
C16_2 C 0.4061(11) 0.717(2) 0.641(2) 0.0405 Uiso
S3_2 S 0.4153(10) 0.8245(14) 0.6460(16) 0.0405 Uiso
C17_2 C 0.4086(11) 0.654(3) 0.563(3) 0.0405 Uiso
C18_2 C 0.4032(11) 0.908(2) 0.829(3) 0.0405 Uiso
H5_2 H 0.383737 0.742365 0.872188 . .
H7_2 H 0.386061 0.624337 0.747292 . .
O3_2 O 0.686(2) 0.066(3) 0.153(4) 0.0405 Uiso
O7_2 O 0.508(2) 0.055(3) 0.133(4) 0.0405 Uiso
C1_2 C 0.5965(11) 0.1650(14) 0.236(2) 0.0405 Uiso
C2_2 C 0.6073(11) 0.245(4) 0.202(3) 0.0405 Uiso
C3_2 C 0.6059(12) 0.309(3) 0.270(4) 0.0405 Uiso
C4_2 C 0.5939(11) 0.283(2) 0.359(2) 0.0405 Uiso
S1_2 S 0.5847(10) 0.1755(14) 0.3540(16) 0.0405 Uiso
C5_2 C 0.5914(11) 0.346(3) 0.437(3) 0.0405 Uiso
C6_2 C 0.5968(11) 0.092(2) 0.171(3) 0.0405 Uiso
O18_2 O 0.866(6) 0.150(3) 0.092(4) 0.0405 Uiso
S4_2 S 0.9548(18) 0.2890(11) 0.2395(11) 0.0405 Uiso
C23_2 C 0.969(5) 0.162(2) 0.107(2) 0.0405 Uiso
H3_2 H 0.616263 0.257635 0.127812 . .
H4_2 H 0.613939 0.375663 0.252708 . .
O1_2 O 0.841(5) 0.037(4) 0.946(4) 0.0405 Uiso
O2_2 O 0.656(4) 0.976(4) 0.014(4) 0.0405 Uiso
O9_2 O 0.972(7) 0.888(3) 0.930(4) 0.0405 Uiso
C7_2 C 0.931(3) 0.6520(15) 0.7284(13) 0.0405 Uiso
C8_2 C 0.847(4) 0.675(2) 0.771(2) 0.0405 Uiso
C9_2 C 0.878(5) 0.744(3) 0.835(3) 0.0405 Uiso
C10_2 C 0.983(3) 0.7685(19) 0.8339(18) 0.0405 Uiso
C12_2 C 0.918(4) 0.583(2) 0.661(2) 0.0405 Uiso
H1_2 H 0.767527 0.644344 0.757377 . .
H2_2 H 0.826565 0.773558 0.878819 . .
loop_
_geom_bond_atom_site_label_1
_geom_bond_atom_site_label_2
_geom_bond_site_symmetry_1
_geom_bond_site_symmetry_2
Ga1 O1 1_555 1_555
Ga2 O2 1_555 1_555
Ga3 O1 1_555 1_555
O2 Ga1 1_555 1_555
O3 Ga1 1_555 1_555
O4 C5 1_555 1_555
O5 C12 1_555 1_555
O6 C5 1_555 1_555
O7 Ga2 1_555 1_555
O9 Ga3 1_555 1_555
O10 C12 1_555 1_555
C1 C2 1_555 1_555
C2 C3 1_555 1_555
C3 C4 1_555 1_555
C4 S1 1_555 1_555
S1 C1 1_555 1_555
C5 C4 1_555 1_555
C6 O3 1_555 1_555
C7 C8 1_555 1_555
C8 C9 1_555 1_555
C9 C10 1_555 1_555
C12 C7 1_555 1_555
O18 Ga1 1_555 1_555
C23 O18 1_555 1_555
Ga11_3 O4 1_555 1_555
Ga13_2 O5 1_555 1_555
O21 Ga2 1_555 1_555
O22 Ga2 1_555 1_555
O23 Ga2 1_555 1_555
O25 Ga3 1_555 1_555
O27 Ga1 1_555 1_555
O28 Ga2 1_555 1_555
O30 Ga1 1_555 1_555
O7 C6 1_555 1_555
C1 C6 1_555 1_555
C8 H1 1_555 1_555
C9 H2 1_555 1_555
C2 H3 1_555 1_555
C3 H4 1_555 1_555
O8 C11 1_555 1_555
Ga4 O8 1_555 1_555
O11 Ga3_2 1_555 1_555
O21 Ga4 1_555 1_555
O13 Ga4 1_555 1_555
O14 C17 1_555 1_555
O15 C24 1_555 1_555
O16 C17 1_555 1_555
O28 C18 1_555 1_555
O19 Ga3_2 1_555 1_555
O20 C24 1_555 1_555
C13 C14 1_555 1_555
C14 C15 1_555 1_555
C15 C16 1_555 1_555
C16 S3 1_555 1_555
S3 C13 1_555 1_555
C17 C16 1_555 1_555
C18 O13 1_555 1_555
C19 C20 1_555 1_555
C20 C21 1_555 1_555
C21 C22 1_555 1_555
C24 C19 1_555 1_555
Ga11_2 O14 1_555 1_555
Ga13_7 O15 1_555 1_555
O24 Ga3_2 1_555 1_555
O26 Ga4 1_555 1_555
O29 Ga4 1_555 1_555
Ga4 O11 1_555 1_555
C13 C18 1_555 1_555
C14 H5 1_555 1_555
C21 H6 1_555 1_555
C15 H7 1_555 1_555
C20 H8 1_555 1_555
O25 C24_2 1_555 1_555
O19_2 Ga13 1_555 1_555
O30 C24_2 1_555 1_555
C19_2 C20_2 1_555 1_555
C20_2 C21_2 1_555 1_555
C21_2 C22_2 1_555 1_555
C24_2 C19_2 1_555 1_555
C21_2 H6_2 1_555 1_555
C20_2 H8_2 1_555 1_555
Ga11_2 O12 1_555 1_555
O11_2 Ga13_3 1_555 1_555
O8_2 C11_2 1_555 1_555
Ga8 O8_2 1_555 1_555
O13_2 Ga8 1_555 1_555
O23 C17_2 1_555 1_555
O27 C17_2 1_555 1_555
O17 C18_2 1_555 1_555
C13_2 C14_2 1_555 1_555
C14_2 C15_2 1_555 1_555
C15_2 C16_2 1_555 1_555
C16_2 S3_2 1_555 1_555
S3_2 C13_2 1_555 1_555
C17_2 C16_2 1_555 1_555
C18_2 O13_2 1_555 1_555
O17 Ga11_4 1_555 1_555
C13_2 C18_2 1_555 1_555
C14_2 H5_2 1_555 1_555
C15_2 H7_2 1_555 1_555
O3_2 Ga6 1_555 1_555
O22 C5_2 1_555 1_555
O26 C5_2 1_555 1_555
O7_2 Ga11 1_555 1_555
C1_2 C2_2 1_555 1_555
C2_2 C3_2 1_555 1_555
C3_2 C4_2 1_555 1_555
C4_2 S1_2 1_555 1_555
S1_2 C1_2 1_555 1_555
C5_2 C4_2 1_555 1_555
C6_2 O3_2 1_555 1_555
O18_2 Ga6 1_555 1_555
C23_2 O18_2 1_555 1_555
O7_2 C6_2 1_555 1_555
C1_2 C6_2 1_555 1_555
C2_2 H3_2 1_555 1_555
C3_2 H4_2 1_555 1_555
Ga13_6 O1_2 1_555 1_555
Ga11_3 O2_2 1_555 1_555
O24 C12_2 1_555 1_555
O9_2 Ga13_8 1_555 1_555
O29 C12_2 1_555 1_555
C7_2 C8_2 1_555 1_555
C8_2 C9_2 1_555 1_555
C9_2 C10_2 1_555 1_555
C12_2 C7_2 1_555 1_555
C8_2 H1_2 1_555 1_555
C9_2 H2_2 1_555 1_555

#END
