
###############################################################################
#
# This file contains modified crystal structure data generated from the
# MOF subset of the Cambridge Structural Database (CSD) v543 
# hosted by the Cambridge Crystallographic Data Centre (CCDC).
#
# This work is licensed under the Creative Commons
# Attribution-NonCommercial-ShareAlike 4.0 International License.
# To view a copy of this license, visit
# http://creativecommons.org/licenses/by-nc-sa/4.0/
# or send a letter to
# Creative Commons, PO Box 1866, Mountain View, CA 94042, USA.
#
# CIF created using the CSD Python API on 29 September 2022
# The structure has been converted into the P1 space group
# The structure has a 3D framework
# The original CSD entry OVIHOR01 is in the hexagonal crystal system
# The original CSD entry OVIHOR01 is in a Sohncke space group
# The framework has been calculated to contain at least 10.0% void space
# The void calculation uses a probe of radius 1.32A, grid spacing 0.4
#
###############################################################################

data_OVIHOR01
_chemical_formula_moiety         '(C110 H48 F36 O22 Zn6)n'
_symmetry_cell_setting           triclinic
_symmetry_space_group_name_H-M   'P 1'
_symmetry_Int_Tables_number      1
_space_group_name_Hall           'P 1'
loop_
_symmetry_equiv_pos_site_id
_symmetry_equiv_pos_as_xyz
1 x,y,z
_cell_length_a                   21.2089(5)
_cell_length_b                   21.2089(5)
_cell_length_c                   7.7205(2)
_cell_angle_alpha                90
_cell_angle_beta                 90
_cell_angle_gamma                120
_cell_volume                     3007.55
loop_
_atom_site_label
_atom_site_type_symbol
_atom_site_fract_x
_atom_site_fract_y
_atom_site_fract_z
Zn1 Zn 0.29931(3) 0.59862(6) 0.0000
O1 O 0.2403(3) 0.6392(3) 0.0750(7)
C3 C 0.0857(3) 0.6735(3) 0.3269(9)
H2 H 0.0697 0.6563 0.4383
C4 C 0.1625(3) 0.6885(3) 0.0832(8)
C5 C 0.1379(3) 0.6622(3) 0.2490(9)
H3 H 0.1567 0.6369 0.3079
C6 C -0.0000 0.7231(4) 0.3333
C7 C 0.0823(4) 0.7375(4) 0.0746(12)
H4 H 0.0642 0.7634 0.0157
C8 C 0.0571(3) 0.7107(3) 0.2388(11)
F4 F 0.0721(3) 0.7696(5) 0.5877(11)
F5 F 0.0031(4) 0.8135(5) 0.5276(12)
F6 F 0.0982(3) 0.8436(5) 0.3767(12)
C17 C 0.0432(5) 0.7881(8) 0.4553(18)
O6 O 0.2939(3) 0.5354(4) 0.1865(7)
Zn1_2 Zn 0.29931(3) 0.59862(6) 1.0000
C1 C 0.2189(3) 0.6760(3) 0.9972(8)
C2 C 0.1340(4) 0.7257(4) 0.9987(10)
H1 H 0.1502 0.7434 0.8877
O2 O 0.2415(3) 0.7061(3) 0.8532(7)
Zn4 Zn 0.29931(7) 0.70069(3) 0.6667
O5 O 0.3989(4) 0.6392(3) 0.9250(7)
O7 O 0.2415(3) 0.5354(4) 0.8135(7)
Zn3 Zn 0.70069(3) 0.40138(6) -0.0000
C6_2 C 1.0000 0.7231(4) 0.3333
F1 F 0.9279(3) 0.6975(4) 0.0790(11)
F2 F 0.9969(4) 0.8104(3) 0.1391(12)
F3 F 0.9018(3) 0.7454(4) 0.2900(12)
C9 C 0.9568(5) 0.7449(6) 0.2114(18)
O3 O 0.7597(3) 0.3989(4) 0.5917(7)
C10 C 0.7811(3) 0.4571(4) 0.6695(8)
C11 C 0.8660(4) 0.5917(6) 0.6680(10)
H5 H 0.8498 0.5932 0.7790
C12 C 0.9143(3) 0.5878(4) 0.3398(9)
H6 H 0.9303 0.5866 0.2284
C13 C 0.8375(3) 0.5260(4) 0.5835(8)
C14 C 0.8621(3) 0.5243(4) 0.4177(9)
H7 H 0.8433 0.4802 0.3588
C15 C 0.9177(4) 0.6552(6) 0.5921(12)
H8 H 0.9358 0.6992 0.6510
C16 C 0.9429(3) 0.6536(4) 0.4279(11)
O4 O 0.7585(3) 0.4646(4) 0.8135(7)
Zn2 Zn 0.70069(7) 0.29931(3) 0.6667
Zn3_2 Zn 0.70069(3) 0.40138(6) 1.0000
O1_2 O 0.6011(4) 0.2403(3) 0.7417(7)
C1_2 C 0.5429(4) 0.2189(3) 0.6639(8)
C2_2 C 0.4083(6) 0.1340(4) 0.6654(10)
H1_2 H 0.4068 0.1502 0.5544
C3_2 C 0.4122(4) 0.0857(3) 0.9936(9)
C4_2 C 0.4740(4) 0.1625(3) 0.7499(8)
C5_2 C 0.4757(4) 0.1379(3) 0.9157(9)
H3_2 H 0.5198 0.1567 0.9746
C6_3 C 0.2769(4) -0.0000 1.0000
C7_2 C 0.3448(6) 0.0823(4) 0.7413(12)
H4_2 H 0.3008 0.0642 0.6824
C8_2 C 0.3464(4) 0.0571(3) 0.9055(11)
O2_2 O 0.5354(4) 0.2415(3) 0.5199(7)
Zn4_2 Zn 0.59862(8) 0.29931(7) 0.3333
O6_2 O 0.7585(5) 0.2939(3) 0.8532(7)
O7_2 O 0.7061(5) 0.2415(3) 0.4801(7)
C6_4 C 0.2769(4) 1.0000 -0.0000
O3_2 O 0.3608(5) 0.7597(3) 0.2583(7)
C10_2 C 0.3240(5) 0.7811(3) 0.3361(8)
C11_2 C 0.2743(7) 0.8660(4) 0.3346(10)
H5_2 H 0.2566 0.8498 0.4456
C12_2 C 0.3265(5) 0.9143(3) 0.0064(9)
C13_2 C 0.3115(5) 0.8375(3) 0.2501(8)
C14_2 C 0.3378(5) 0.8621(3) 0.0843(9)
H7_2 H 0.3631 0.8433 0.0254
C15_2 C 0.2625(7) 0.9177(4) 0.2587(12)
H8_2 H 0.2366 0.9358 0.3176
C16_2 C 0.2893(5) 0.9429(3) 0.0945(11)
O4_2 O 0.2939(5) 0.7585(3) 0.4801(7)
Zn2_2 Zn 0.40138(8) 0.70069(7) 0.3333
C10_3 C 0.5429(4) 0.3240(5) 0.0028(8)
C11_3 C 0.4083(6) 0.2743(7) 0.0013(10)
H5_3 H 0.4068 0.2566 0.1123
O4_3 O 0.5354(4) 0.2939(5) 0.1468(7)
O1_3 O 0.3608(3) 0.6011(4) 0.4083(7)
C1_3 C 0.3240(3) 0.5429(4) 0.3305(8)
C2_3 C 0.2743(4) 0.4083(6) 0.3320(10)
H1_3 H 0.2566 0.4068 0.2210
C3_3 C 0.3265(3) 0.4122(4) 0.6602(9)
H2_2 H 0.3437 0.4134 0.7716
C4_3 C 0.3115(3) 0.4740(4) 0.4165(8)
C5_3 C 0.3378(3) 0.4757(4) 0.5823(9)
H3_3 H 0.3631 0.5198 0.6412
C6_5 C 0.2769(4) 0.2769(4) 0.6666
F1_2 F 0.3025(4) 0.2304(5) 0.4123(11)
C7_3 C 0.2625(4) 0.3448(6) 0.4079(12)
H4_3 H 0.2366 0.3008 0.3490
C8_3 C 0.2893(3) 0.3464(4) 0.5721(11)
F2_2 F 0.1896(3) 0.1865(5) 0.4724(12)
F3_2 F 0.2546(4) 0.1564(5) 0.6233(12)
C9_2 C 0.2551(6) 0.2119(8) 0.5447(18)
O3_3 O 0.6011(4) 0.3608(5) 0.9250(7)
C12_3 C 0.4122(4) 0.3265(5) 0.6731(9)
H6_2 H 0.4134 0.3437 0.5617
C13_3 C 0.4740(4) 0.3115(5) 0.9168(8)
C14_3 C 0.4757(4) 0.3378(5) 0.7510(9)
H7_3 H 0.5198 0.3631 0.6921
F4_2 F 0.2304(5) 0.3025(6) 0.9210(11)
C15_3 C 0.3448(6) 0.2625(7) 0.9254(12)
H8_3 H 0.3008 0.2366 0.9843
C16_3 C 0.3464(4) 0.2893(5) 0.7612(11)
F5_2 F 0.1865(5) 0.1896(6) 0.8609(12)
F6_2 F 0.1564(5) 0.2546(6) 0.7100(12)
C17_2 C 0.2119(8) 0.2551(9) 0.7886(18)
O6_3 O 0.4646(4) 0.7585(5) 0.5199(7)
O7_3 O 0.4646(4) 0.7061(5) 0.1468(7)
C6_6 C 0.0000 0.2769(4) 0.3333
F1_3 F 0.0721(3) 0.3025(4) 0.0790(11)
F2_3 F 0.0031(4) 0.1896(3) 0.1391(12)
F3_3 F 0.0982(3) 0.2546(4) 0.2900(12)
C9_3 C 0.0432(5) 0.2551(6) 0.2114(18)
O3_4 O 0.2403(3) 0.6011(4) 0.5917(7)
C10_4 C 0.2189(3) 0.5429(4) 0.6695(8)
C11_4 C 0.1340(4) 0.4083(6) 0.6680(10)
H5_4 H 0.1502 0.4068 0.7790
C12_4 C 0.0857(3) 0.4122(4) 0.3398(9)
H6_3 H 0.0697 0.4134 0.2284
C13_4 C 0.1625(3) 0.4740(4) 0.5835(8)
C14_4 C 0.1379(3) 0.4757(4) 0.4177(9)
H7_4 H 0.1567 0.5198 0.3588
C15_4 C 0.0823(4) 0.3448(6) 0.5921(12)
H8_4 H 0.0642 0.3008 0.6510
C16_4 C 0.0571(3) 0.3464(4) 0.4279(11)
O1_4 O 0.7597(3) 0.3608(3) 0.0750(7)
C3_4 C 0.9143(3) 0.3265(3) 0.3269(9)
H2_3 H 0.9303 0.3437 0.4383
C4_4 C 0.8375(3) 0.3115(3) 0.0832(8)
C5_4 C 0.8621(3) 0.3378(3) 0.2490(9)
H3_4 H 0.8433 0.3631 0.3079
C6_7 C 1.0000 0.2769(4) 0.3333
C7_4 C 0.9177(4) 0.2625(4) 0.0746(12)
H4_4 H 0.9358 0.2366 0.0157
C8_4 C 0.9429(3) 0.2893(3) 0.2388(11)
F4_3 F 0.9279(3) 0.2304(5) 0.5877(11)
F5_3 F 0.9969(4) 0.1865(5) 0.5276(12)
F6_3 F 0.9018(3) 0.1564(5) 0.3767(12)
C17_3 C 0.9568(5) 0.2119(8) 0.4553(18)
O6_4 O 0.7061(3) 0.4646(4) 0.1865(7)
C1_4 C 0.7811(3) 0.3240(3) 0.9972(8)
C2_4 C 0.8660(4) 0.2743(4) 0.9987(10)
H1_4 H 0.8498 0.2566 0.8877
C6_8 C 0.7231(4) 0.0000 -0.0000
O3_5 O 0.6392(5) 0.2403(3) 0.2583(7)
C10_5 C 0.6760(5) 0.2189(3) 0.3361(8)
C11_5 C 0.7257(7) 0.1340(4) 0.3346(10)
H5_5 H 0.7434 0.1502 0.4456
C12_5 C 0.6735(5) 0.0857(3) 0.0064(9)
C13_5 C 0.6885(5) 0.1625(3) 0.2501(8)
C14_5 C 0.6622(5) 0.1379(3) 0.0843(9)
H7_5 H 0.6369 0.1567 0.0254
C15_5 C 0.7375(7) 0.0823(4) 0.2587(12)
H8_5 H 0.7634 0.0642 0.3176
C16_5 C 0.7107(5) 0.0571(3) 0.0945(11)
O1_5 O 0.3989(4) 0.7597(3) 0.7417(7)
C1_5 C 0.4571(4) 0.7811(3) 0.6639(8)
C2_5 C 0.5917(6) 0.8660(4) 0.6654(10)
H1_5 H 0.5932 0.8498 0.5544
C3_5 C 0.5878(4) 0.9143(3) 0.9936(9)
C4_5 C 0.5260(4) 0.8375(3) 0.7499(8)
C5_5 C 0.5243(4) 0.8621(3) 0.9157(9)
H3_5 H 0.4802 0.8433 0.9746
C6_9 C 0.7231(4) 1.0000 1.0000
C7_5 C 0.6552(6) 0.9177(4) 0.7413(12)
H4_5 H 0.6992 0.9358 0.6824
C8_5 C 0.6536(4) 0.9429(3) 0.9055(11)
C10_6 C 0.4571(4) 0.6760(5) 0.0028(8)
C11_6 C 0.5917(6) 0.7257(7) 0.0013(10)
H5_6 H 0.5932 0.7434 0.1123
O1_6 O 0.6392(3) 0.3989(4) 0.4083(7)
C1_6 C 0.6760(3) 0.4571(4) 0.3305(8)
C2_6 C 0.7257(4) 0.5917(6) 0.3320(10)
H1_6 H 0.7434 0.5932 0.2210
C3_6 C 0.6735(3) 0.5878(4) 0.6602(9)
H2_4 H 0.6563 0.5866 0.7716
C4_6 C 0.6885(3) 0.5260(4) 0.4165(8)
C5_6 C 0.6622(3) 0.5243(4) 0.5823(9)
H3_6 H 0.6369 0.4802 0.6412
C6_10 C 0.7231(4) 0.7231(4) 0.6666
F1_4 F 0.6975(4) 0.7696(5) 0.4123(11)
C7_6 C 0.7375(4) 0.6552(6) 0.4079(12)
H4_6 H 0.7634 0.6992 0.3490
C8_6 C 0.7107(3) 0.6536(4) 0.5721(11)
F2_4 F 0.8104(3) 0.8135(5) 0.4724(12)
F3_4 F 0.7454(4) 0.8436(5) 0.6233(12)
C9_4 C 0.7449(6) 0.7881(8) 0.5447(18)
C12_6 C 0.5878(4) 0.6735(5) 0.6731(9)
H6_4 H 0.5866 0.6563 0.5617
C13_6 C 0.5260(4) 0.6885(5) 0.9168(8)
C14_6 C 0.5243(4) 0.6622(5) 0.7510(9)
H7_6 H 0.4802 0.6369 0.6921
F4_4 F 0.7696(5) 0.6975(6) 0.9210(11)
C15_6 C 0.6552(6) 0.7375(7) 0.9254(12)
H8_6 H 0.6992 0.7634 0.9843
C16_6 C 0.6536(4) 0.7107(5) 0.7612(11)
F5_4 F 0.8135(5) 0.8104(6) 0.8609(12)
F6_4 F 0.8436(5) 0.7454(6) 0.7100(12)
C17_4 C 0.7881(8) 0.7449(9) 0.7886(18)
H2_5 H 0.4134 0.0697 0.1050
C6_11 C 0.2769(4) -0.0000 -0.0000
F4_5 F 0.3025(6) 0.0721(3) 0.2543(11)
F5_5 F 0.1896(6) 0.0031(4) 0.1942(12)
F6_5 F 0.2546(6) 0.0982(3) 0.0433(12)
C17_5 C 0.2551(9) 0.0432(5) 0.1219(18)
C6_12 C 0.2769(4) 1.0000 1.0000
F1_5 F 0.2304(5) 0.9279(3) 0.7457(11)
F2_5 F 0.1865(5) 0.9969(4) 0.8058(12)
F3_5 F 0.1564(5) 0.9018(3) 0.9567(12)
C9_5 C 0.2119(8) 0.9568(5) 0.8781(18)
H6_5 H 0.3437 0.9303 0.8950
C6_13 C 0.7231(4) 0.0000 1.0000
F1_6 F 0.7696(5) 0.0721(3) 0.7457(11)
F2_6 F 0.8135(5) 0.0031(4) 0.8058(12)
F3_6 F 0.8436(5) 0.0982(3) 0.9567(12)
C9_6 C 0.7881(8) 0.0432(5) 0.8781(18)
H6_6 H 0.6563 0.0697 0.8950
H2_6 H 0.5866 0.9303 0.1050
C6_14 C 0.7231(4) 1.0000 -0.0000
F4_6 F 0.6975(6) 0.9279(3) 0.2543(11)
F5_6 F 0.8104(6) 0.9969(4) 0.1942(12)
F6_6 F 0.7454(6) 0.9018(3) 0.0433(12)
C17_6 C 0.7449(9) 0.9568(5) 0.1219(18)
loop_
_geom_bond_atom_site_label_1
_geom_bond_atom_site_label_2
_geom_bond_site_symmetry_1
_geom_bond_site_symmetry_2
Zn1 O1 1_555 1_555
C3 H2 1_555 1_555
C5 C3 1_555 1_555
H3 C5 1_555 1_555
C6 C8 1_555 1_555
H4 C7 1_555 1_555
C8 C3 1_555 1_555
F4 C17 1_555 1_555
F5 C17 1_555 1_555
F6 C17 1_555 1_555
C17 C6 1_555 1_555
O6 Zn1 1_555 1_555
C4 C5 1_555 1_555
C7 C8 1_555 1_555
C2 H1 1_555 1_555
O2 C1 1_555 1_555
Zn4 O2 1_555 1_555
O5 Zn1_2 1_555 1_555
O7 Zn1_2 1_555 1_555
F1 C9 1_555 1_555
F2 C9 1_555 1_555
F3 C9 1_555 1_555
C9 C6_2 1_555 1_555
O3 C10 1_555 1_555
C10 C13 1_555 1_555
C11 H5 1_555 1_555
C12 H6 1_555 1_555
C13 C11 1_555 1_555
C14 C12 1_555 1_555
H7 C14 1_555 1_555
C15 C11 1_555 1_555
H8 C15 1_555 1_555
C16 C6_2 1_555 1_555
O4 C10 1_555 1_555
Zn2 O3 1_555 1_555
Zn3_2 O4 1_555 1_555
C12 C16 1_555 1_555
C13 C14 1_555 1_555
C15 C16 1_555 1_555
Zn2 O1_2 1_555 1_555
O1_2 C1_2 1_555 1_555
C1_2 C4_2 1_555 1_555
C2_2 H1_2 1_555 1_555
C4_2 C2_2 1_555 1_555
C5_2 C3_2 1_555 1_555
H3_2 C5_2 1_555 1_555
C6_3 C8_2 1_555 1_555
C7_2 C2_2 1_555 1_555
H4_2 C7_2 1_555 1_555
C8_2 C3_2 1_555 1_555
O2_2 C1_2 1_555 1_555
Zn4_2 O2_2 1_555 1_555
O6_2 Zn2 1_555 1_555
O7_2 Zn2 1_555 1_555
C4_2 C5_2 1_555 1_555
C7_2 C8_2 1_555 1_555
O3_2 C10_2 1_555 1_555
C10_2 C13_2 1_555 1_555
C11_2 H5_2 1_555 1_555
C13_2 C11_2 1_555 1_555
C14_2 C12_2 1_555 1_555
H7_2 C14_2 1_555 1_555
C15_2 C11_2 1_555 1_555
H8_2 C15_2 1_555 1_555
C16_2 C6_4 1_555 1_555
O4_2 C10_2 1_555 1_555
Zn2_2 O3_2 1_555 1_555
Zn4 O4_2 1_555 1_555
C12_2 C16_2 1_555 1_555
C13_2 C14_2 1_555 1_555
C15_2 C16_2 1_555 1_555
C11_3 H5_3 1_555 1_555
O4_3 C10_3 1_555 1_555
Zn4_2 O4_3 1_555 1_555
Zn2_2 O1_3 1_555 1_555
O1_3 C1_3 1_555 1_555
C1_3 C4_3 1_555 1_555
C2_3 H1_3 1_555 1_555
C3_3 H2_2 1_555 1_555
C4_3 C2_3 1_555 1_555
C5_3 C3_3 1_555 1_555
H3_3 C5_3 1_555 1_555
C6_5 C8_3 1_555 1_555
F1_2 C9_2 1_555 1_555
C7_3 C2_3 1_555 1_555
H4_3 C7_3 1_555 1_555
C8_3 C3_3 1_555 1_555
O6 C1_3 1_555 1_555
F2_2 C9_2 1_555 1_555
F3_2 C9_2 1_555 1_555
C9_2 C6_5 1_555 1_555
C12_3 H6_2 1_555 1_555
C14_3 C12_3 1_555 1_555
H7_3 C14_3 1_555 1_555
F4_2 C17_2 1_555 1_555
H8_3 C15_3 1_555 1_555
C16_3 C6_5 1_555 1_555
F5_2 C17_2 1_555 1_555
F6_2 C17_2 1_555 1_555
C17_2 C6_5 1_555 1_555
Zn3_2 O3_3 1_555 1_555
O6_3 Zn2_2 1_555 1_555
O7_3 Zn2_2 1_555 1_555
C4_3 C5_3 1_555 1_555
C7_3 C8_3 1_555 1_555
C12_3 C16_3 1_555 1_555
C13_3 C14_3 1_555 1_555
C15_3 C16_3 1_555 1_555
F1_3 C9_3 1_555 1_555
F2_3 C9_3 1_555 1_555
F3_3 C9_3 1_555 1_555
C9_3 C6_6 1_555 1_555
O3_4 C10_4 1_555 1_555
C10_4 C13_4 1_555 1_555
C11_4 H5_4 1_555 1_555
C12_4 H6_3 1_555 1_555
C13_4 C11_4 1_555 1_555
C14_4 C12_4 1_555 1_555
H7_4 C14_4 1_555 1_555
C15_4 C11_4 1_555 1_555
H8_4 C15_4 1_555 1_555
C16_4 C6_6 1_555 1_555
O7 C10_4 1_555 1_555
Zn4 O3_4 1_555 1_555
C12_4 C16_4 1_555 1_555
C13_4 C14_4 1_555 1_555
C15_4 C16_4 1_555 1_555
Zn3 O1_4 1_555 1_555
C3_4 H2_3 1_555 1_555
C5_4 C3_4 1_555 1_555
H3_4 C5_4 1_555 1_555
C6_7 C8_4 1_555 1_555
H4_4 C7_4 1_555 1_555
C8_4 C3_4 1_555 1_555
F4_3 C17_3 1_555 1_555
F5_3 C17_3 1_555 1_555
F6_3 C17_3 1_555 1_555
C17_3 C6_7 1_555 1_555
O6_4 Zn3 1_555 1_555
C4_4 C5_4 1_555 1_555
C7_4 C8_4 1_555 1_555
C2_4 H1_4 1_555 1_555
O6_2 C1_4 1_555 1_555
O3_5 C10_5 1_555 1_555
C10_5 C13_5 1_555 1_555
C11_5 H5_5 1_555 1_555
C13_5 C11_5 1_555 1_555
C14_5 C12_5 1_555 1_555
H7_5 C14_5 1_555 1_555
C15_5 C11_5 1_555 1_555
H8_5 C15_5 1_555 1_555
C16_5 C6_8 1_555 1_555
O7_2 C10_5 1_555 1_555
Zn4_2 O3_5 1_555 1_555
C12_5 C16_5 1_555 1_555
C13_5 C14_5 1_555 1_555
C15_5 C16_5 1_555 1_555
Zn4 O1_5 1_555 1_555
O1_5 C1_5 1_555 1_555
C1_5 C4_5 1_555 1_555
C2_5 H1_5 1_555 1_555
C4_5 C2_5 1_555 1_555
C5_5 C3_5 1_555 1_555
H3_5 C5_5 1_555 1_555
C6_9 C8_5 1_555 1_555
C7_5 C2_5 1_555 1_555
H4_5 C7_5 1_555 1_555
C8_5 C3_5 1_555 1_555
O6_3 C1_5 1_555 1_555
C4_5 C5_5 1_555 1_555
C7_5 C8_5 1_555 1_555
C11_6 H5_6 1_555 1_555
O7_3 C10_6 1_555 1_555
Zn4_2 O1_6 1_555 1_555
O1_6 C1_6 1_555 1_555
C1_6 C4_6 1_555 1_555
C2_6 H1_6 1_555 1_555
C3_6 H2_4 1_555 1_555
C4_6 C2_6 1_555 1_555
C5_6 C3_6 1_555 1_555
H3_6 C5_6 1_555 1_555
C6_10 C8_6 1_555 1_555
F1_4 C9_4 1_555 1_555
C7_6 C2_6 1_555 1_555
H4_6 C7_6 1_555 1_555
C8_6 C3_6 1_555 1_555
O6_4 C1_6 1_555 1_555
F2_4 C9_4 1_555 1_555
F3_4 C9_4 1_555 1_555
C9_4 C6_10 1_555 1_555
C12_6 H6_4 1_555 1_555
C14_6 C12_6 1_555 1_555
H7_6 C14_6 1_555 1_555
F4_4 C17_4 1_555 1_555
H8_6 C15_6 1_555 1_555
C16_6 C6_10 1_555 1_555
F5_4 C17_4 1_555 1_555
F6_4 C17_4 1_555 1_555
C17_4 C6_10 1_555 1_555
C4_6 C5_6 1_555 1_555
C7_6 C8_6 1_555 1_555
C12_6 C16_6 1_555 1_555
C13_6 C14_6 1_555 1_555
C15_6 C16_6 1_555 1_555
F4_5 C17_5 1_555 1_555
F5_5 C17_5 1_555 1_555
F6_5 C17_5 1_555 1_555
C17_5 C6_11 1_555 1_555
F1_5 C9_5 1_555 1_555
F2_5 C9_5 1_555 1_555
F3_5 C9_5 1_555 1_555
C9_5 C6_12 1_555 1_555
F1_6 C9_6 1_555 1_555
F2_6 C9_6 1_555 1_555
F3_6 C9_6 1_555 1_555
C9_6 C6_13 1_555 1_555
F4_6 C17_6 1_555 1_555
F5_6 C17_6 1_555 1_555
F6_6 C17_6 1_555 1_555
C17_6 C6_14 1_555 1_555

#END
