
###############################################################################
#
# This file contains modified crystal structure data generated from the
# MOF subset of the Cambridge Structural Database (CSD) v543 
# hosted by the Cambridge Crystallographic Data Centre (CCDC).
#
# This work is licensed under the Creative Commons
# Attribution-NonCommercial-ShareAlike 4.0 International License.
# To view a copy of this license, visit
# http://creativecommons.org/licenses/by-nc-sa/4.0/
# or send a letter to
# Creative Commons, PO Box 1866, Mountain View, CA 94042, USA.
#
# CIF created using the CSD Python API on 29 September 2022
# The structure has been converted into the P1 space group
# The structure has a 3D framework
# The original CSD entry OVIHOR02 is in the hexagonal crystal system
# The original CSD entry OVIHOR02 is in a Sohncke space group
# The framework has been calculated to contain at least 10.0% void space
# The void calculation uses a probe of radius 1.32A, grid spacing 0.4
#
###############################################################################

data_OVIHOR02
_chemical_formula_moiety         '(C106 H48 F36 O24 Zn4)n'
_symmetry_cell_setting           triclinic
_symmetry_space_group_name_H-M   'P 1'
_symmetry_Int_Tables_number      1
_space_group_name_Hall           'P 1'
loop_
_symmetry_equiv_pos_site_id
_symmetry_equiv_pos_as_xyz
1 x,y,z
_cell_length_a                   21.2338(10)
_cell_length_b                   21.2338(10)
_cell_length_c                   7.7238(4)
_cell_angle_alpha                90
_cell_angle_beta                 90
_cell_angle_gamma                120
_cell_volume                     3015.9
loop_
_atom_site_label
_atom_site_type_symbol
_atom_site_fract_x
_atom_site_fract_y
_atom_site_fract_z
F1 F 0.8107(5) 0.8140(4) 0.0285(18)
F2 F 0.6971(6) 0.7691(5) 0.0887(15)
O3 O 0.7061(4) 0.4646(4) 0.3132(12)
C10 C 0.6767(5) 0.4577(5) 0.1673(15)
C11 C 0.6883(5) 0.5259(5) 0.0842(15)
C12 C 0.7260(6) 0.5914(6) 0.1694(18)
H5 H 0.7444 0.5928 0.2796
C15 C 0.7371(6) 0.6553(6) 0.0928(19)
H7 H 0.7623 0.6992 0.1522
O4 O 0.6391(4) 0.3989(6) 0.0926(10)
Zn2 Zn 0.70064(10) 0.40127(9) 0.5000
Zn3 Zn 0.59873(9) 0.29937(5) 0.1667
O1 O 0.7585(6) 0.4646(4) 0.6868(12)
O2 O 0.7598(7) 0.3989(6) 0.9074(10)
C1 C 0.7810(7) 0.4577(5) 0.8327(15)
C2 C 0.8376(7) 0.5259(5) 0.9158(15)
C3 C 0.8654(8) 0.5914(6) 0.8306(18)
H1 H 0.8484 0.5928 0.7204
C7 C 0.9182(8) 0.6553(6) 0.9072(19)
H3 H 0.9369 0.6992 0.8478
Zn4 Zn 0.70063(13) 0.29936(10) 0.8334
O6 O 0.6011(8) 0.3609(4) 0.5741(10)
O7 O 0.7598(7) 0.3609(4) 0.4259(10)
C5 C 0.2765(7) -0.0000(10) 0.5000
O3_2 O 0.5354(4) 0.2415(6) 0.9798(12)
C10_2 C 0.5423(5) 0.2190(7) 0.8339(15)
C11_2 C 0.4741(5) 0.1624(7) 0.7508(15)
C12_2 C 0.4086(6) 0.1346(8) 0.8360(18)
H5_2 H 0.4072 0.1516 0.9462
C13 C 0.3460(5) 0.0566(7) 0.5941(18)
C14 C 0.4119(5) 0.0854(8) 0.5078(18)
H6 H 0.4134 0.0693 0.3967
C15_2 C 0.3447(6) 0.0818(8) 0.7594(19)
H7_2 H 0.3008 0.0631 0.8188
C16 C 0.4759(5) 0.1383(8) 0.5855(16)
H8 H 0.5198 0.1573 0.5263
F4 F 0.1893(5) 0.0033(6) 0.3048(18)
F5 F 0.3029(6) 0.0720(8) 0.2446(15)
F6 F 0.2551(5) 0.0989(6) 0.4557(18)
C17 C 0.2560(9) 0.0439(11) 0.374(3)
O4_2 O 0.6011(6) 0.2402(7) 0.7592(10)
O1_2 O 0.5354(4) 0.2939(4) 0.3535(12)
C1_2 C 0.5423(5) 0.3233(5) 0.4994(15)
C2_2 C 0.4741(5) 0.3117(5) 0.5825(15)
C3_2 C 0.4086(6) 0.2740(6) 0.4973(18)
H1_2 H 0.4072 0.2556 0.3871
C4 C 0.3460(5) 0.2894(5) 0.7392(18)
C5_2 C 0.2765(7) 0.2765(7) 0.8333
C6 C 0.4119(5) 0.3265(6) 0.8255(18)
H2 H 0.4134 0.3441 0.9366
C7_2 C 0.3447(6) 0.2629(6) 0.5739(19)
H3_2 H 0.3008 0.2377 0.5145
C8 C 0.4759(5) 0.3376(6) 0.7478(16)
H4 H 0.5198 0.3625 0.8070
F3 F 0.2551(5) 0.1562(4) 0.8776(18)
C9 C 0.2560(9) 0.2121(7) 0.959(3)
C13_2 C 0.2894(5) 0.3460(5) 0.9275(18)
C14_2 C 0.3265(6) 0.4119(5) 0.8412(18)
H6_2 H 0.3441 0.4134 0.7301
C16_2 C 0.3376(6) 0.4759(5) 0.9189(16)
H8_2 H 0.3625 0.5198 0.8597
F4_2 F 0.1860(4) 0.1893(5) 0.6382(18)
F5_2 F 0.2309(5) 0.3029(6) 0.5780(15)
F6_2 F 0.1562(4) 0.2551(5) 0.7891(18)
C17_2 C 0.2121(7) 0.2560(9) 0.708(3)
O6_2 O 0.6391(4) 0.2402(7) 0.2408(10)
C5_3 C 1.0000(10) 0.2765(7) 0.1666
O3_3 O 0.7585(6) 0.2939(4) 0.6465(12)
C10_3 C 0.7810(7) 0.3233(5) 0.5006(15)
C11_3 C 0.8376(7) 0.3117(5) 0.4175(15)
C12_3 C 0.8654(8) 0.2740(6) 0.5027(18)
H5_3 H 0.8484 0.2556 0.6129
C13_3 C 0.9434(7) 0.2894(5) 0.2608(18)
C14_3 C 0.9146(8) 0.3265(6) 0.1745(18)
H6_3 H 0.9307 0.3441 0.0634
C15_3 C 0.9182(8) 0.2629(6) 0.4261(19)
H7_3 H 0.9369 0.2377 0.4855
C16_3 C 0.8617(8) 0.3376(6) 0.2522(16)
H8_3 H 0.8427 0.3625 0.1930
F6_3 F 0.9011(6) 0.1562(4) 0.1224(18)
C17_3 C 0.9561(11) 0.2121(7) 0.041(3)
O1_3 O 0.7061(4) 0.2415(6) 0.0202(12)
C1_3 C 0.6767(5) 0.2190(7) 0.1661(15)
C2_3 C 0.6883(5) 0.1624(7) 0.2492(15)
C3_3 C 0.7260(6) 0.1346(8) 0.1640(18)
H1_3 H 0.7444 0.1516 0.0538
C4_2 C 0.7106(5) 0.0566(7) 0.4059(18)
C5_4 C 0.7235(7) 0.0000(10) 0.5000
C6_2 C 0.6735(6) 0.0854(8) 0.4922(18)
H2_2 H 0.6559 0.0693 0.6033
C7_3 C 0.7371(6) 0.0818(8) 0.2406(19)
H3_3 H 0.7623 0.0631 0.1812
C8_2 C 0.6624(6) 0.1383(8) 0.4145(16)
H4_2 H 0.6375 0.1573 0.4737
F1_2 F 0.8140(4) 0.0033(6) 0.6952(18)
F2_2 F 0.7691(5) 0.0720(8) 0.7554(15)
F3_2 F 0.8438(4) 0.0989(6) 0.5443(18)
C9_2 C 0.7879(7) 0.0439(11) 0.626(3)
Zn1 Zn 0.40127(9) 0.70063(5) 0.1667
O1_4 O 0.4646(4) 0.7061(4) 0.3535(12)
O2_2 O 0.3989(6) 0.6391(4) 0.5741(10)
C1_4 C 0.4577(5) 0.6767(5) 0.4994(15)
C2_4 C 0.5259(5) 0.6883(5) 0.5825(15)
C3_4 C 0.5914(6) 0.7260(6) 0.4973(18)
H1_4 H 0.5928 0.7444 0.3871
C4_3 C 0.6540(5) 0.7106(5) 0.7392(18)
C5_5 C 0.7235(7) 0.7235(7) 0.8333
C6_3 C 0.5881(5) 0.6735(6) 0.8255(18)
H2_3 H 0.5866 0.6559 0.9366
C7_4 C 0.6553(6) 0.7371(6) 0.5739(19)
H3_4 H 0.6992 0.7623 0.5145
C8_3 C 0.5241(5) 0.6624(6) 0.7478(16)
H4_3 H 0.4802 0.6375 0.8070
F3_3 F 0.7449(5) 0.8438(4) 0.8776(18)
C9_3 C 0.7440(9) 0.7879(7) 0.959(3)
C13_4 C 0.7106(5) 0.6540(5) 0.9275(18)
C14_4 C 0.6735(6) 0.5881(5) 0.8412(18)
H6_4 H 0.6559 0.5866 0.7301
C16_4 C 0.6624(6) 0.5241(5) 0.9189(16)
H8_4 H 0.6375 0.4802 0.8597
F4_3 F 0.8140(4) 0.8107(5) 0.6382(18)
F5_3 F 0.7691(5) 0.6971(6) 0.5780(15)
F6_4 F 0.8438(4) 0.7449(5) 0.7891(18)
C17_4 C 0.7879(7) 0.7440(9) 0.708(3)
Zn4_2 Zn 0.29936(10) 0.59873(9) 0.5000
O6_3 O 0.3609(4) 0.7598(7) 0.2408(10)
O7_2 O 0.3609(4) 0.6011(6) 0.0926(10)
O5 O 0.4646(4) 0.7585(6) 0.9798(12)
C5_6 C -0.0000(10) 0.7235(7) 0.1666
O3_4 O 0.2415(6) 0.7061(4) 0.6465(12)
C10_4 C 0.2190(7) 0.6767(5) 0.5006(15)
C11_4 C 0.1624(7) 0.6883(5) 0.4175(15)
C12_4 C 0.1346(8) 0.7260(6) 0.5027(18)
H5_4 H 0.1516 0.7444 0.6129
C13_5 C 0.0566(7) 0.7106(5) 0.2608(18)
C14_5 C 0.0854(8) 0.6735(6) 0.1745(18)
H6_5 H 0.0693 0.6559 0.0634
C15_4 C 0.0818(8) 0.7371(6) 0.4261(19)
H7_4 H 0.0631 0.7623 0.4855
C16_5 C 0.1383(8) 0.6624(6) 0.2522(16)
H8_5 H 0.1573 0.6375 0.1930
F6_5 F 0.0989(6) 0.8438(4) 0.1224(18)
C17_5 C 0.0439(11) 0.7879(7) 0.041(3)
O4_3 O 0.2402(7) 0.6391(4) 0.4259(10)
Zn2_2 Zn 0.29937(13) 0.70064(10) 0.8334
O1_5 O 0.2939(4) 0.7585(6) 0.0202(12)
C1_5 C 0.3233(5) 0.7810(7) 0.1661(15)
C2_5 C 0.3117(5) 0.8376(7) 0.2492(15)
C3_5 C 0.2740(6) 0.8654(8) 0.1640(18)
H1_5 H 0.2556 0.8484 0.0538
C4_4 C 0.2894(5) 0.9434(7) 0.4059(18)
C5_7 C 0.2765(7) 1.0000(10) 0.5000
C6_4 C 0.3265(6) 0.9146(8) 0.4922(18)
H2_4 H 0.3441 0.9307 0.6033
C7_5 C 0.2629(6) 0.9182(8) 0.2406(19)
H3_5 H 0.2377 0.9369 0.1812
C8_4 C 0.3376(6) 0.8617(8) 0.4145(16)
H4_4 H 0.3625 0.8427 0.4737
F1_3 F 0.1860(4) 0.9967(6) 0.6952(18)
F2_3 F 0.2309(5) 0.9280(8) 0.7554(15)
F3_4 F 0.1562(4) 0.9011(6) 0.5443(18)
C9_4 C 0.2121(7) 0.9561(11) 0.626(3)
O6_4 O 0.2402(7) 0.6011(8) 0.9074(10)
O7_3 O 0.3989(6) 0.7598(7) 0.7592(10)
F1_4 F 0.1893(5) 0.1860(4) 0.0285(18)
F2_4 F 0.3029(6) 0.2309(5) 0.0887(15)
O3_5 O 0.2939(4) 0.5354(4) 0.3132(12)
C10_5 C 0.3233(5) 0.5423(5) 0.1673(15)
C11_5 C 0.3117(5) 0.4741(5) 0.0842(15)
C12_5 C 0.2740(6) 0.4086(6) 0.1694(18)
H5_5 H 0.2556 0.4072 0.2796
C15_5 C 0.2629(6) 0.3447(6) 0.0928(19)
H7_5 H 0.2377 0.3008 0.1522
O1_6 O 0.2415(6) 0.5354(4) 0.6868(12)
C1_6 C 0.2190(7) 0.5423(5) 0.8327(15)
C2_6 C 0.1624(7) 0.4741(5) 0.9158(15)
C3_6 C 0.1346(8) 0.4086(6) 0.8306(18)
H1_6 H 0.1516 0.4072 0.7204
C7_6 C 0.0818(8) 0.3447(6) 0.9072(19)
H3_6 H 0.0631 0.3008 0.8478
C5_8 C 0.7235(7) 1.0000(10) 0.5000
C10_6 C 0.4577(5) 0.7810(7) 0.8339(15)
C11_6 C 0.5259(5) 0.8376(7) 0.7508(15)
C12_6 C 0.5914(6) 0.8654(8) 0.8360(18)
H5_6 H 0.5928 0.8484 0.9462
C13_6 C 0.6540(5) 0.9434(7) 0.5941(18)
C14_6 C 0.5881(5) 0.9146(8) 0.5078(18)
H6_6 H 0.5866 0.9307 0.3967
C15_6 C 0.6553(6) 0.9182(8) 0.7594(19)
H7_6 H 0.6992 0.9369 0.8188
C16_6 C 0.5241(5) 0.8617(8) 0.5855(16)
H8_6 H 0.4802 0.8427 0.5263
F4_4 F 0.8107(5) 0.9967(6) 0.3048(18)
F5_4 F 0.6971(6) 0.9280(8) 0.2446(15)
F6_6 F 0.7449(5) 0.9011(6) 0.4557(18)
C17_6 C 0.7440(9) 0.9561(11) 0.374(3)
F4_5 F 0.0033(6) 0.8140(4) 0.9715(18)
F5_5 F 0.0720(8) 0.7691(5) 0.9113(15)
C4_5 C 0.9434(7) 0.6540(5) 0.0725(18)
C5_9 C 1.0000(10) 0.7235(7) 0.1666
C6_5 C 0.9146(8) 0.5881(5) 0.1588(18)
H2_5 H 0.9307 0.5866 0.2699
C8_5 C 0.8617(8) 0.5241(5) 0.0811(16)
H4_5 H 0.8427 0.4802 0.1403
F1_5 F 0.9967(6) 0.8107(5) 0.3618(18)
F2_5 F 0.9280(8) 0.6971(6) 0.4220(15)
F3_5 F 0.9011(6) 0.7449(5) 0.2109(18)
C9_5 C 0.9561(11) 0.7440(9) 0.292(3)
C4_6 C 0.0566(7) 0.3460(5) 0.0725(18)
C5_10 C 0.0000(10) 0.2765(7) 0.1666
C6_6 C 0.0854(8) 0.4119(5) 0.1588(18)
H2_6 H 0.0693 0.4134 0.2699
C8_6 C 0.1383(8) 0.4759(5) 0.0811(16)
H4_6 H 0.1573 0.5198 0.1403
F1_6 F 0.0033(6) 0.1893(5) 0.3618(18)
F2_6 F 0.0720(8) 0.3029(6) 0.4220(15)
F3_6 F 0.0989(6) 0.2551(5) 0.2109(18)
C9_6 C 0.0439(11) 0.2560(9) 0.292(3)
F4_6 F 0.9967(6) 0.1860(4) 0.9715(18)
F5_6 F 0.9280(8) 0.2309(5) 0.9113(15)
loop_
_geom_bond_atom_site_label_1
_geom_bond_atom_site_label_2
_geom_bond_site_symmetry_1
_geom_bond_site_symmetry_2
O3 C10 1_555 1_555
C10 C11 1_555 1_555
C11 C12 1_555 1_555
C12 H5 1_555 1_555
C15 C12 1_555 1_555
H7 C15 1_555 1_555
O4 C10 1_555 1_555
Zn2 O3 1_555 1_555
Zn3 O4 1_555 1_555
Zn2 O1 1_555 1_555
O1 C1 1_555 1_555
O2 C1 1_555 1_555
C1 C2 1_555 1_555
C2 C3 1_555 1_555
C3 H1 1_555 1_555
C7 C3 1_555 1_555
H3 C7 1_555 1_555
Zn4 O2 1_555 1_555
O6 Zn2 1_555 1_555
O7 Zn2 1_555 1_555
O3_2 C10_2 1_555 1_555
C10_2 C11_2 1_555 1_555
C11_2 C12_2 1_555 1_555
C12_2 H5_2 1_555 1_555
C13 C5 1_555 1_555
C14 C13 1_555 1_555
H6 C14 1_555 1_555
C15_2 C12_2 1_555 1_555
H7_2 C15_2 1_555 1_555
C16 C11_2 1_555 1_555
H8 C16 1_555 1_555
F4 C17 1_555 1_555
F5 C17 1_555 1_555
F6 C17 1_555 1_555
C17 C5 1_555 1_555
O4_2 C10_2 1_555 1_555
Zn4 O4_2 1_555 1_555
C13 C15_2 1_555 1_555
C14 C16 1_555 1_555
Zn3 O1_2 1_555 1_555
O1_2 C1_2 1_555 1_555
O6 C1_2 1_555 1_555
C1_2 C2_2 1_555 1_555
C2_2 C3_2 1_555 1_555
C3_2 H1_2 1_555 1_555
C4 C5_2 1_555 1_555
C5_2 C9 1_555 1_555
C6 C4 1_555 1_555
H2 C6 1_555 1_555
C7_2 C3_2 1_555 1_555
H3_2 C7_2 1_555 1_555
C8 C2_2 1_555 1_555
H4 C8 1_555 1_555
F3 C9 1_555 1_555
C13_2 C5_2 1_555 1_555
C14_2 C13_2 1_555 1_555
H6_2 C14_2 1_555 1_555
H8_2 C16_2 1_555 1_555
F4_2 C17_2 1_555 1_555
F5_2 C17_2 1_555 1_555
F6_2 C17_2 1_555 1_555
C17_2 C5_2 1_555 1_555
O6_2 Zn3 1_555 1_555
C4 C7_2 1_555 1_555
C6 C8 1_555 1_555
C14_2 C16_2 1_555 1_555
O3_3 C10_3 1_555 1_555
C10_3 C11_3 1_555 1_555
C11_3 C12_3 1_555 1_555
C12_3 H5_3 1_555 1_555
C13_3 C5_3 1_555 1_555
C14_3 C13_3 1_555 1_555
H6_3 C14_3 1_555 1_555
C15_3 C12_3 1_555 1_555
H7_3 C15_3 1_555 1_555
C16_3 C11_3 1_555 1_555
H8_3 C16_3 1_555 1_555
F6_3 C17_3 1_555 1_555
C17_3 C5_3 1_555 1_555
O7 C10_3 1_555 1_555
Zn4 O3_3 1_555 1_555
C13_3 C15_3 1_555 1_555
C14_3 C16_3 1_555 1_555
O1_3 C1_3 1_555 1_555
O6_2 C1_3 1_555 1_555
C1_3 C2_3 1_555 1_555
C2_3 C3_3 1_555 1_555
C3_3 H1_3 1_555 1_555
C4_2 C5_4 1_555 1_555
C5_4 C9_2 1_555 1_555
C6_2 C4_2 1_555 1_555
H2_2 C6_2 1_555 1_555
C7_3 C3_3 1_555 1_555
H3_3 C7_3 1_555 1_555
C8_2 C2_3 1_555 1_555
H4_2 C8_2 1_555 1_555
F1_2 C9_2 1_555 1_555
F2_2 C9_2 1_555 1_555
F3_2 C9_2 1_555 1_555
C4_2 C7_3 1_555 1_555
C6_2 C8_2 1_555 1_555
Zn1 O1_4 1_555 1_555
O1_4 C1_4 1_555 1_555
O2_2 C1_4 1_555 1_555
C1_4 C2_4 1_555 1_555
C2_4 C3_4 1_555 1_555
C3_4 H1_4 1_555 1_555
C4_3 C5_5 1_555 1_555
C5_5 C9_3 1_555 1_555
C6_3 C4_3 1_555 1_555
H2_3 C6_3 1_555 1_555
C7_4 C3_4 1_555 1_555
H3_4 C7_4 1_555 1_555
C8_3 C2_4 1_555 1_555
H4_3 C8_3 1_555 1_555
F3_3 C9_3 1_555 1_555
C13_4 C5_5 1_555 1_555
C14_4 C13_4 1_555 1_555
H6_4 C14_4 1_555 1_555
H8_4 C16_4 1_555 1_555
F4_3 C17_4 1_555 1_555
F5_3 C17_4 1_555 1_555
F6_4 C17_4 1_555 1_555
C17_4 C5_5 1_555 1_555
Zn4_2 O2_2 1_555 1_555
O6_3 Zn1 1_555 1_555
O7_2 Zn1 1_555 1_555
C4_3 C7_4 1_555 1_555
C6_3 C8_3 1_555 1_555
C14_4 C16_4 1_555 1_555
O3_4 C10_4 1_555 1_555
C10_4 C11_4 1_555 1_555
C11_4 C12_4 1_555 1_555
C12_4 H5_4 1_555 1_555
C13_5 C5_6 1_555 1_555
C14_5 C13_5 1_555 1_555
H6_5 C14_5 1_555 1_555
C15_4 C12_4 1_555 1_555
H7_4 C15_4 1_555 1_555
C16_5 C11_4 1_555 1_555
H8_5 C16_5 1_555 1_555
F6_5 C17_5 1_555 1_555
C17_5 C5_6 1_555 1_555
O4_3 C10_4 1_555 1_555
Zn2_2 O3_4 1_555 1_555
Zn4_2 O4_3 1_555 1_555
C13_5 C15_4 1_555 1_555
C14_5 C16_5 1_555 1_555
O1_5 C1_5 1_555 1_555
O6_3 C1_5 1_555 1_555
C1_5 C2_5 1_555 1_555
C2_5 C3_5 1_555 1_555
C3_5 H1_5 1_555 1_555
C4_4 C5_7 1_555 1_555
C5_7 C9_4 1_555 1_555
C6_4 C4_4 1_555 1_555
H2_4 C6_4 1_555 1_555
C7_5 C3_5 1_555 1_555
H3_5 C7_5 1_555 1_555
C8_4 C2_5 1_555 1_555
H4_4 C8_4 1_555 1_555
F1_3 C9_4 1_555 1_555
F2_3 C9_4 1_555 1_555
F3_4 C9_4 1_555 1_555
C4_4 C7_5 1_555 1_555
C6_4 C8_4 1_555 1_555
O6_4 Zn2_2 1_555 1_555
O7_3 Zn2_2 1_555 1_555
O3_5 C10_5 1_555 1_555
C10_5 C11_5 1_555 1_555
C11_5 C12_5 1_555 1_555
C12_5 H5_5 1_555 1_555
C15_5 C12_5 1_555 1_555
H7_5 C15_5 1_555 1_555
O7_2 C10_5 1_555 1_555
Zn4_2 O3_5 1_555 1_555
Zn4_2 O1_6 1_555 1_555
O1_6 C1_6 1_555 1_555
O6_4 C1_6 1_555 1_555
C1_6 C2_6 1_555 1_555
C2_6 C3_6 1_555 1_555
C3_6 H1_6 1_555 1_555
C7_6 C3_6 1_555 1_555
H3_6 C7_6 1_555 1_555
O5 C10_6 1_555 1_555
C10_6 C11_6 1_555 1_555
C11_6 C12_6 1_555 1_555
C12_6 H5_6 1_555 1_555
C13_6 C5_8 1_555 1_555
C14_6 C13_6 1_555 1_555
H6_6 C14_6 1_555 1_555
C15_6 C12_6 1_555 1_555
H7_6 C15_6 1_555 1_555
C16_6 C11_6 1_555 1_555
H8_6 C16_6 1_555 1_555
F4_4 C17_6 1_555 1_555
F5_4 C17_6 1_555 1_555
F6_6 C17_6 1_555 1_555
C17_6 C5_8 1_555 1_555
O7_3 C10_6 1_555 1_555
C13_6 C15_6 1_555 1_555
C14_6 C16_6 1_555 1_555
C4_5 C5_9 1_555 1_555
C5_9 C9_5 1_555 1_555
C6_5 C4_5 1_555 1_555
H2_5 C6_5 1_555 1_555
H4_5 C8_5 1_555 1_555
F1_5 C9_5 1_555 1_555
F2_5 C9_5 1_555 1_555
F3_5 C9_5 1_555 1_555
C6_5 C8_5 1_555 1_555
C4_6 C5_10 1_555 1_555
C5_10 C9_6 1_555 1_555
C6_6 C4_6 1_555 1_555
H2_6 C6_6 1_555 1_555
H4_6 C8_6 1_555 1_555
F1_6 C9_6 1_555 1_555
F2_6 C9_6 1_555 1_555
F3_6 C9_6 1_555 1_555
C6_6 C8_6 1_555 1_555

#END
