
###############################################################################
#
# This file contains modified crystal structure data generated from the
# MOF subset of the Cambridge Structural Database (CSD) v543 
# hosted by the Cambridge Crystallographic Data Centre (CCDC).
#
# This work is licensed under the Creative Commons
# Attribution-NonCommercial-ShareAlike 4.0 International License.
# To view a copy of this license, visit
# http://creativecommons.org/licenses/by-nc-sa/4.0/
# or send a letter to
# Creative Commons, PO Box 1866, Mountain View, CA 94042, USA.
#
# CIF created using the CSD Python API on 29 September 2022
# The structure has been converted into the P1 space group
# The structure has a 3D framework
# The original CSD entry OVUFAP17 is in the monoclinic crystal system
# The framework has been calculated to contain at least 10.0% void space
# The void calculation uses a probe of radius 1.32A, grid spacing 0.4
#
###############################################################################

data_OVUFAP17
_chemical_formula_moiety         '(C72 H48 Cd2 N16 O16)n'
_symmetry_cell_setting           triclinic
_symmetry_space_group_name_H-M   'P 1'
_symmetry_Int_Tables_number      1
_space_group_name_Hall           'P 1'
loop_
_symmetry_equiv_pos_site_id
_symmetry_equiv_pos_as_xyz
1 x,y,z
_cell_length_a                   11.996(4)
_cell_length_b                   13.77(3)
_cell_length_c                   12.629(4)
_cell_angle_alpha                90
_cell_angle_beta                 113.84(4)
_cell_angle_gamma                90
_cell_volume                     1908.13
loop_
_atom_site_label
_atom_site_type_symbol
_atom_site_fract_x
_atom_site_fract_y
_atom_site_fract_z
Cd2 Cd 0.9402(2) 0.0974(6) 0.0660(2)
O1 O 0.053(3) 0.077(5) 0.943(3)
C6 C 0.1341(14) 0.205(2) 0.8767(14)
C7 C 0.1856(18) 0.145(2) 0.8200(18)
H5 H 0.178186 0.078155 0.822788
C8 C 0.2481(15) 0.186(3) 0.7590(15)
H6 H 0.282569 0.145634 0.721059
C9 C 0.2591(15) 0.286(3) 0.7548(15)
C10 C 0.208(2) 0.346(2) 0.812(2)
H7 H 0.215015 0.412781 0.808785
C11 C 0.1451(17) 0.305(2) 0.8725(17)
H8 H 0.110632 0.345304 0.910515
O2 O 0.028(2) 0.209(5) 0.9992(19)
C17 C 0.318(4) 0.328(4) 0.686(4)
O3 O 0.368(2) 0.276(5) 0.6432(18)
C18 C 0.069(4) 0.164(3) 0.939(4)
O4 O 0.334(3) 0.415(3) 0.687(3)
Cd4 Cd 0.4402(2) 0.4026(6) 0.5660(2)
Cd3 Cd 0.0598(2) 0.9026(6) 0.9340(2)
O6 O 0.868(2) 0.224(5) 0.1432(18)
O7 O 0.834(3) 0.085(3) 0.187(3)
O5 O 0.947(3) 0.923(5) 0.057(3)
Cd1 Cd 0.5598(2) 0.5974(6) 0.4340(2)
O1_2 O 0.447(3) 0.577(5) 0.557(3)
C1 C 0.376(2) 0.521(3) 0.185(2)
H1 H 0.442579 0.482530 0.192808
C2 C 0.273(2) 0.521(4) 0.082(2)
H2 H 0.269415 0.481689 0.020925
C3 C 0.1736(19) 0.579(4) 0.0703(16)
C4 C 0.1784(19) 0.638(4) 0.162(2)
H3 H 0.112179 0.676791 0.153718
C5 C 0.282(2) 0.638(4) 0.2645(18)
H4 H 0.285341 0.677633 0.325601
N1 N 0.3811(14) 0.580(3) 0.2762(15)
C6_2 C 0.3659(14) 0.705(2) 0.6233(14)
C7_2 C 0.3144(18) 0.645(2) 0.6800(18)
H5_2 H 0.321814 0.578155 0.677212
C8_2 C 0.2519(15) 0.686(3) 0.7410(15)
H6_2 H 0.217431 0.645634 0.778941
C9_2 C 0.2409(15) 0.786(3) 0.7452(15)
C10_2 C 0.292(2) 0.846(2) 0.688(2)
H7_2 H 0.284985 0.912781 0.691215
C11_2 C 0.3549(17) 0.805(2) 0.6275(17)
H8_2 H 0.389368 0.845304 0.589485
O2_2 O 0.472(2) 0.709(5) 0.5008(19)
C17_2 C 0.182(4) 0.828(4) 0.814(4)
O3_2 O 0.132(2) 0.776(5) 0.8568(18)
C18_2 C 0.431(4) 0.664(3) 0.561(4)
O4_2 O 0.166(3) 0.915(3) 0.813(3)
O5_2 O 0.553(3) 0.423(5) 0.443(3)
N5 N 0.7389(14) 0.574(4) 0.5965(16)
O6_2 O 0.632(2) 0.724(5) 0.3568(18)
O7_2 O 0.666(3) 0.585(3) 0.313(3)
C12 C 0.9628(18) 0.570(4) 0.7853(19)
C13 C 0.945(2) 0.515(4) 0.687(2)
C14 C 0.833(2) 0.517(3) 0.5930(18)
H10 H 0.821161 0.480227 0.527499
C15 C 0.757(2) 0.629(4) 0.694(2)
H11 H 0.693650 0.666781 0.696674
C16 C 0.869(2) 0.627(4) 0.789(2)
H12 H 0.880493 0.663390 0.854310
C6_3 C 0.8659(14) 0.795(2) 0.1233(14)
C7_3 C 0.8144(18) 0.855(2) 0.1800(18)
H5_3 H 0.821814 0.921845 0.177212
C8_3 C 0.7519(15) 0.814(3) 0.2410(15)
H6_3 H 0.717431 0.854366 0.278941
C9_3 C 0.7409(15) 0.714(3) 0.2452(15)
C10_3 C 0.792(2) 0.654(2) 0.188(2)
H7_3 H 0.784985 0.587219 0.191215
C11_3 C 0.8549(17) 0.695(2) 0.1275(17)
H8_3 H 0.889368 0.654696 0.089485
O2_3 O 0.972(2) 0.791(5) 0.0008(19)
C17_3 C 0.682(4) 0.672(4) 0.314(4)
C18_3 C 0.931(4) 0.836(3) 0.061(4)
C12_2 C 0.0372(18) 0.430(4) 0.2147(19)
C13_2 C 0.055(2) 0.485(4) 0.313(2)
C14_2 C 0.167(2) 0.483(3) 0.4070(18)
H10_2 H 0.178839 0.519773 0.472501
N4 N 0.2611(14) 0.426(4) 0.4035(16)
C15_2 C 0.243(2) 0.371(4) 0.306(2)
H11_2 H 0.306350 0.333219 0.303326
C16_2 C 0.131(2) 0.373(4) 0.211(2)
H12_2 H 0.119507 0.336610 0.145690
C1_2 C 0.624(2) 0.479(3) 0.815(2)
H1_2 H 0.557421 0.517470 0.807192
C2_2 C 0.727(2) 0.479(4) 0.918(2)
H2_2 H 0.730585 0.518311 0.979075
C3_2 C 0.8264(19) 0.421(4) 0.9297(16)
C4_2 C 0.8216(19) 0.362(4) 0.838(2)
H3_2 H 0.887821 0.323209 0.846282
C5_2 C 0.718(2) 0.362(4) 0.7355(18)
H4_2 H 0.714659 0.322367 0.674399
N1_2 N 0.6189(14) 0.420(3) 0.7238(15)
C6_4 C 0.6341(14) 0.295(2) 0.3767(14)
C7_4 C 0.6856(18) 0.355(2) 0.3200(18)
H5_4 H 0.678186 0.421845 0.322788
C8_4 C 0.7481(15) 0.314(3) 0.2590(15)
H6_4 H 0.782569 0.354366 0.221059
C9_4 C 0.7591(15) 0.214(3) 0.2548(15)
C10_4 C 0.708(2) 0.154(2) 0.312(2)
H7_4 H 0.715015 0.087219 0.308785
C11_4 C 0.6451(17) 0.195(2) 0.3725(17)
H8_4 H 0.610632 0.154696 0.410515
O2_4 O 0.528(2) 0.291(5) 0.4992(19)
C17_4 C 0.818(4) 0.172(4) 0.186(4)
C18_4 C 0.569(4) 0.336(3) 0.439(4)
C1_3 C 0.124(2) 0.021(3) 0.315(2)
C2_3 C 0.227(2) 0.021(4) 0.418(2)
C3_3 C 0.3264(19) 0.079(4) 0.4297(16)
C4_3 C 0.3216(19) 0.138(4) 0.338(2)
H3_3 H 0.387821 0.176791 0.346282
C5_3 C 0.218(2) 0.138(4) 0.2355(18)
H4_3 H 0.214659 0.177633 0.174399
N1_3 N 0.1189(14) 0.080(3) 0.2238(15)
N2 N 0.448(3) 0.092(7) 0.537(3)
N3 N 0.422(3) 0.057(6) 0.616(3)
C12_3 C 0.5372(18) 0.070(4) 0.7147(19)
C13_3 C 0.555(2) 0.015(4) 0.813(2)
C14_3 C 0.667(2) 0.017(3) 0.9070(18)
N4_2 N 0.7611(14) 0.074(4) 0.9035(16)
C15_3 C 0.743(2) 0.129(4) 0.806(2)
H11_3 H 0.806350 0.166781 0.803326
C16_3 C 0.631(2) 0.127(4) 0.711(2)
H12_3 H 0.619507 0.163390 0.645690
H1_3 H 0.057421 0.982530 0.307192
H2_3 H 0.230585 0.981689 0.479075
H9 H 0.491996 0.976834 0.814867
H10_3 H 0.678839 0.980227 0.972501
N2_2 N 0.052(3) 0.592(7) 0.963(3)
N3_2 N 0.078(3) 0.557(6) 0.884(3)
H9_2 H 0.008004 0.476834 0.685133
N5_2 N 0.2389(14) 0.926(4) 0.0965(16)
C1_4 C 0.876(2) 0.979(3) 0.685(2)
C2_4 C 0.773(2) 0.979(4) 0.582(2)
C3_4 C 0.6736(19) 0.921(4) 0.5703(16)
C4_4 C 0.6784(19) 0.862(4) 0.662(2)
H3_4 H 0.612179 0.823209 0.653718
C5_4 C 0.782(2) 0.862(4) 0.7645(18)
H4_4 H 0.785341 0.822367 0.825601
N1_4 N 0.8811(14) 0.920(3) 0.7762(15)
N2_3 N 0.552(3) 0.908(7) 0.463(3)
N3_3 N 0.578(3) 0.943(6) 0.384(3)
C12_4 C 0.4628(18) 0.930(4) 0.2853(19)
C13_4 C 0.445(2) 0.985(4) 0.187(2)
C14_4 C 0.333(2) 0.983(3) 0.0930(18)
C15_4 C 0.257(2) 0.871(4) 0.194(2)
H11_4 H 0.193650 0.833219 0.196674
C16_4 C 0.369(2) 0.873(4) 0.289(2)
H12_4 H 0.380493 0.836610 0.354310
H1_4 H 0.942579 0.017470 0.692808
H2_4 H 0.769415 0.018311 0.520925
H9_3 H 0.508004 0.023166 0.185133
H10_4 H 0.321161 0.019773 0.027499
N2_4 N 0.948(3) 0.408(7) 0.037(3)
N3_4 N 0.922(3) 0.443(6) 0.116(3)
H9_4 H 0.991996 0.523166 0.314867
loop_
_geom_bond_atom_site_label_1
_geom_bond_atom_site_label_2
_geom_bond_site_symmetry_1
_geom_bond_site_symmetry_2
O1 C18 1_555 1_555
C6 C7 1_555 1_555
C7 H5 1_555 1_555
C8 C7 1_555 1_555
H6 C8 1_555 1_555
C9 C8 1_555 1_555
C10 C9 1_555 1_555
H7 C10 1_555 1_555
C11 C6 1_555 1_555
H8 C11 1_555 1_555
C17 C9 1_555 1_555
O3 C17 1_555 1_555
C18 C6 1_555 1_555
O4 C17 1_555 1_555
Cd4 O3 1_555 1_555
C10 C11 1_555 1_555
O2 C18 1_555 1_555
O4 Cd4 1_555 1_555
O6 Cd2 1_555 1_555
O7 Cd2 1_555 1_555
Cd1 O1_2 1_555 1_555
O1_2 C18_2 1_555 1_555
C1 H1 1_555 1_555
C2 C1 1_555 1_555
H2 C2 1_555 1_555
C3 C2 1_555 1_555
C4 C3 1_555 1_555
H3 C4 1_555 1_555
C5 C4 1_555 1_555
H4 C5 1_555 1_555
N1 Cd1 1_555 1_555
C6_2 C7_2 1_555 1_555
C7_2 H5_2 1_555 1_555
C8_2 C7_2 1_555 1_555
H6_2 C8_2 1_555 1_555
C9_2 C8_2 1_555 1_555
C10_2 C9_2 1_555 1_555
H7_2 C10_2 1_555 1_555
C11_2 C6_2 1_555 1_555
H8_2 C11_2 1_555 1_555
O2_2 Cd1 1_555 1_555
C17_2 C9_2 1_555 1_555
O3_2 C17_2 1_555 1_555
C18_2 C6_2 1_555 1_555
O4_2 C17_2 1_555 1_555
Cd4 O1_2 1_555 1_555
Cd3 O3_2 1_555 1_555
O5_2 Cd1 1_555 1_555
N5 Cd1 1_555 1_555
O6_2 Cd1 1_555 1_555
O7_2 Cd1 1_555 1_555
C1 N1 1_555 1_555
C5 N1 1_555 1_555
C10_2 C11_2 1_555 1_555
O2_2 C18_2 1_555 1_555
O4_2 Cd3 1_555 1_555
Cd4 O5_2 1_555 1_555
C13 C12 1_555 1_555
C14 C13 1_555 1_555
H10 C14 1_555 1_555
N5 C14 1_555 1_555
C15 N5 1_555 1_555
H11 C15 1_555 1_555
C16 C12 1_555 1_555
H12 C16 1_555 1_555
C15 C16 1_555 1_555
O5 C18_3 1_555 1_555
C6_3 C7_3 1_555 1_555
C7_3 H5_3 1_555 1_555
C8_3 C7_3 1_555 1_555
H6_3 C8_3 1_555 1_555
C9_3 C8_3 1_555 1_555
C10_3 C9_3 1_555 1_555
H7_3 C10_3 1_555 1_555
C11_3 C6_3 1_555 1_555
H8_3 C11_3 1_555 1_555
C17_3 C9_3 1_555 1_555
O6_2 C17_3 1_555 1_555
C18_3 C6_3 1_555 1_555
O7_2 C17_3 1_555 1_555
C10_3 C11_3 1_555 1_555
O2_3 C18_3 1_555 1_555
C13_2 C12_2 1_555 1_555
C14_2 C13_2 1_555 1_555
H10_2 C14_2 1_555 1_555
N4 C14_2 1_555 1_555
C15_2 N4 1_555 1_555
H11_2 C15_2 1_555 1_555
C16_2 C12_2 1_555 1_555
H12_2 C16_2 1_555 1_555
Cd4 N4 1_555 1_555
C15_2 C16_2 1_555 1_555
O5_2 C18_4 1_555 1_555
C1_2 H1_2 1_555 1_555
C2_2 C1_2 1_555 1_555
H2_2 C2_2 1_555 1_555
C3_2 C2_2 1_555 1_555
C4_2 C3_2 1_555 1_555
H3_2 C4_2 1_555 1_555
C5_2 C4_2 1_555 1_555
H4_2 C5_2 1_555 1_555
N1_2 Cd4 1_555 1_555
C6_4 C7_4 1_555 1_555
C7_4 H5_4 1_555 1_555
C8_4 C7_4 1_555 1_555
H6_4 C8_4 1_555 1_555
C9_4 C8_4 1_555 1_555
C10_4 C9_4 1_555 1_555
H7_4 C10_4 1_555 1_555
C11_4 C6_4 1_555 1_555
H8_4 C11_4 1_555 1_555
O2_4 Cd4 1_555 1_555
C17_4 C9_4 1_555 1_555
O6 C17_4 1_555 1_555
C18_4 C6_4 1_555 1_555
O7 C17_4 1_555 1_555
C1_2 N1_2 1_555 1_555
C5_2 N1_2 1_555 1_555
C10_4 C11_4 1_555 1_555
O2_4 C18_4 1_555 1_555
C2_3 C1_3 1_555 1_555
C3_3 C2_3 1_555 1_555
C4_3 C3_3 1_555 1_555
H3_3 C4_3 1_555 1_555
C5_3 C4_3 1_555 1_555
H4_3 C5_3 1_555 1_555
N2 C3_3 1_555 1_555
N3 N2 1_555 1_555
C12_3 N3 1_555 1_555
C13_3 C12_3 1_555 1_555
C14_3 C13_3 1_555 1_555
N4_2 C14_3 1_555 1_555
C15_3 N4_2 1_555 1_555
H11_3 C15_3 1_555 1_555
C16_3 C12_3 1_555 1_555
H12_3 C16_3 1_555 1_555
C1_3 N1_3 1_555 1_555
C5_3 N1_3 1_555 1_555
C15_3 C16_3 1_555 1_555
N3_2 N2_2 1_555 1_555
C2_4 C1_4 1_555 1_555
C3_4 C2_4 1_555 1_555
C4_4 C3_4 1_555 1_555
H3_4 C4_4 1_555 1_555
C5_4 C4_4 1_555 1_555
H4_4 C5_4 1_555 1_555
N2_3 C3_4 1_555 1_555
N3_3 N2_3 1_555 1_555
C12_4 N3_3 1_555 1_555
C13_4 C12_4 1_555 1_555
C14_4 C13_4 1_555 1_555
N5_2 C14_4 1_555 1_555
C15_4 N5_2 1_555 1_555
H11_4 C15_4 1_555 1_555
C16_4 C12_4 1_555 1_555
H12_4 C16_4 1_555 1_555
C1_4 N1_4 1_555 1_555
C5_4 N1_4 1_555 1_555
C15_4 C16_4 1_555 1_555
N3_4 N2_4 1_555 1_555

#END
