
###############################################################################
#
# This file contains modified crystal structure data generated from the
# MOF subset of the Cambridge Structural Database (CSD) v543 
# hosted by the Cambridge Crystallographic Data Centre (CCDC).
#
# This work is licensed under the Creative Commons
# Attribution-NonCommercial-ShareAlike 4.0 International License.
# To view a copy of this license, visit
# http://creativecommons.org/licenses/by-nc-sa/4.0/
# or send a letter to
# Creative Commons, PO Box 1866, Mountain View, CA 94042, USA.
#
# CIF created using the CSD Python API on 29 September 2022
# The structure has been converted into the P1 space group
# The structure has a 3D framework
# The original CSD entry OVUFAP09 is in the monoclinic crystal system
# The framework has been calculated to contain at least 10.0% void space
# The void calculation uses a probe of radius 1.32A, grid spacing 0.4
#
###############################################################################

data_OVUFAP09
_chemical_formula_moiety         '(C72 H48 Cd2 N16 O16)n'
_symmetry_cell_setting           triclinic
_symmetry_space_group_name_H-M   'P 1'
_symmetry_Int_Tables_number      1
_space_group_name_Hall           'P 1'
loop_
_symmetry_equiv_pos_site_id
_symmetry_equiv_pos_as_xyz
1 x,y,z
_cell_length_a                   11.362(6)
_cell_length_b                   13.31(3)
_cell_length_c                   13.269(8)
_cell_angle_alpha                90
_cell_angle_beta                 115.07(7)
_cell_angle_gamma                90
_cell_volume                     1817.6
loop_
_atom_site_label
_atom_site_type_symbol
_atom_site_fract_x
_atom_site_fract_y
_atom_site_fract_z
Cd2 Cd 0.9426(7) 0.0936(13) 0.0693(6)
O1 O 0.076(5) 0.110(6) 0.989(6)
C6 C 0.158(4) 0.222(4) 0.904(4)
C7 C 0.207(5) 0.160(5) 0.846(5)
H5 H 0.202449 0.091009 0.850653
C8 C 0.264(5) 0.203(5) 0.782(4)
H6 H 0.297223 0.161598 0.743085
C9 C 0.272(5) 0.307(5) 0.775(4)
C10 C 0.222(6) 0.368(5) 0.832(5)
H7 H 0.227277 0.437545 0.827753
C11 C 0.166(5) 0.326(4) 0.897(4)
H8 H 0.132503 0.366958 0.935322
O2 O 0.021(5) 0.203(5) 0.990(5)
C17 C 0.359(7) 0.351(6) 0.729(7)
O3 O 0.394(5) 0.305(9) 0.669(5)
C18 C 0.086(9) 0.181(5) 0.954(7)
O4 O 0.324(5) 0.417(6) 0.661(5)
Cd4 Cd 0.4426(7) 0.4064(13) 0.5693(6)
Cd3 Cd 0.0574(7) 0.9064(13) 0.9307(6)
O6 O 0.894(5) 0.195(9) 0.169(5)
O7 O 0.824(5) 0.083(6) 0.161(5)
O5 O 0.924(5) 0.890(6) 0.011(6)
Cd1 Cd 0.5574(7) 0.5936(13) 0.4307(6)
O1_2 O 0.424(5) 0.610(6) 0.511(6)
C1 C 0.390(6) 0.537(9) 0.174(6)
H1 H 0.464033 0.505464 0.176977
C2 C 0.289(7) 0.561(10) 0.072(5)
H2 H 0.296091 0.546119 0.006755
C3 C 0.178(6) 0.608(10) 0.069(5)
C4 C 0.167(6) 0.630(9) 0.167(7)
H3 H 0.092527 0.661103 0.164140
C5 C 0.268(8) 0.606(9) 0.269(5)
H4 H 0.260468 0.620448 0.334363
N1 N 0.379(6) 0.559(9) 0.273(5)
C6_2 C 0.342(4) 0.722(4) 0.596(4)
C7_2 C 0.293(5) 0.660(5) 0.654(5)
H5_2 H 0.297551 0.591009 0.649347
C8_2 C 0.236(5) 0.703(5) 0.718(4)
H6_2 H 0.202777 0.661598 0.756915
C9_2 C 0.228(5) 0.807(5) 0.725(4)
C10_2 C 0.278(6) 0.868(5) 0.668(5)
H7_2 H 0.272723 0.937545 0.672247
C11_2 C 0.334(5) 0.826(4) 0.603(4)
H8_2 H 0.367497 0.866958 0.564678
O2_2 O 0.479(5) 0.703(5) 0.510(5)
C17_2 C 0.141(7) 0.851(6) 0.771(7)
O3_2 O 0.106(5) 0.805(9) 0.831(5)
C18_2 C 0.414(9) 0.681(5) 0.546(7)
O4_2 O 0.176(5) 0.917(6) 0.839(5)
O5_2 O 0.576(5) 0.390(6) 0.489(6)
N5 N 0.746(4) 0.592(5) 0.579(4)
O6_2 O 0.606(5) 0.695(9) 0.331(5)
O7_2 O 0.676(5) 0.583(6) 0.339(5)
C12 C 0.973(5) 0.579(9) 0.775(4)
C13 C 0.950(5) 0.511(8) 0.689(5)
C14 C 0.836(5) 0.517(6) 0.592(5)
H10 H 0.820780 0.471409 0.534596
C15 C 0.770(5) 0.661(6) 0.665(4)
H11 H 0.709460 0.711121 0.656714
C16 C 0.883(6) 0.654(8) 0.763(4)
H12 H 0.898667 0.700045 0.819787
C6_3 C 0.842(4) 0.778(4) 0.096(4)
C7_3 C 0.793(5) 0.840(5) 0.154(5)
H5_3 H 0.797551 0.908991 0.149347
C8_3 C 0.736(5) 0.797(5) 0.218(4)
H6_3 H 0.702777 0.838402 0.256915
C9_3 C 0.728(5) 0.693(5) 0.225(4)
C10_3 C 0.778(6) 0.632(5) 0.168(5)
H7_3 H 0.772723 0.562455 0.172247
C11_3 C 0.834(5) 0.674(4) 0.103(4)
H8_3 H 0.867497 0.633042 0.064678
O2_3 O 0.979(5) 0.797(5) 0.010(5)
C17_3 C 0.641(7) 0.649(6) 0.271(7)
C18_3 C 0.914(9) 0.819(5) 0.046(7)
C12_2 C 0.027(5) 0.421(9) 0.225(4)
C13_2 C 0.050(5) 0.489(8) 0.311(5)
C14_2 C 0.164(5) 0.483(6) 0.408(5)
H10_2 H 0.179220 0.528591 0.465404
N4 N 0.254(4) 0.408(5) 0.421(4)
C15_2 C 0.230(5) 0.339(6) 0.335(4)
H11_2 H 0.290540 0.288879 0.343286
C16_2 C 0.117(6) 0.346(8) 0.237(4)
H12_2 H 0.101333 0.299955 0.180213
C1_2 C 0.610(6) 0.463(9) 0.826(6)
H1_2 H 0.535967 0.494536 0.823023
C2_2 C 0.711(7) 0.439(10) 0.928(5)
H2_2 H 0.703909 0.453881 0.993245
C3_2 C 0.822(6) 0.392(10) 0.931(5)
C4_2 C 0.833(6) 0.370(9) 0.833(7)
H3_2 H 0.907473 0.338897 0.835860
C5_2 C 0.732(8) 0.394(9) 0.731(5)
H4_2 H 0.739532 0.379552 0.665637
N1_2 N 0.621(6) 0.441(9) 0.727(5)
C6_4 C 0.658(4) 0.278(4) 0.404(4)
C7_4 C 0.707(5) 0.340(5) 0.346(5)
H5_4 H 0.702449 0.408991 0.350653
C8_4 C 0.764(5) 0.297(5) 0.282(4)
H6_4 H 0.797223 0.338402 0.243085
C9_4 C 0.772(5) 0.193(5) 0.275(4)
C10_4 C 0.722(6) 0.132(5) 0.332(5)
H7_4 H 0.727277 0.062455 0.327753
C11_4 C 0.666(5) 0.174(4) 0.397(4)
H8_4 H 0.632503 0.133042 0.435322
O2_4 O 0.521(5) 0.297(5) 0.490(5)
C17_4 C 0.859(7) 0.149(6) 0.229(7)
C18_4 C 0.586(9) 0.319(5) 0.454(7)
C1_3 C 0.110(6) 0.037(9) 0.326(6)
H1_3 H 0.035967 0.005464 0.323023
C2_3 C 0.211(7) 0.061(10) 0.428(5)
H2_3 H 0.203909 0.046119 0.493245
C3_3 C 0.322(6) 0.108(10) 0.431(5)
C4_3 C 0.333(6) 0.130(9) 0.333(7)
H3_3 H 0.407473 0.161103 0.335860
C5_3 C 0.232(8) 0.106(9) 0.231(5)
H4_3 H 0.239532 0.120448 0.165637
N1_3 N 0.121(6) 0.059(9) 0.227(5)
N2 N 0.441(6) 0.088(7) 0.541(6)
N3 N 0.400(6) 0.064(11) 0.623(6)
C12_3 C 0.527(5) 0.079(9) 0.725(4)
C13_3 C 0.550(5) 0.011(8) 0.811(5)
C14_3 C 0.664(5) 0.017(6) 0.908(5)
N4_2 N 0.754(4) 0.092(5) 0.921(4)
C15_3 C 0.730(5) 0.161(6) 0.835(4)
H11_3 H 0.790540 0.211121 0.843286
C16_3 C 0.617(6) 0.154(8) 0.737(4)
H12_3 H 0.601333 0.200045 0.680213
H9 H 0.490012 0.960332 0.802334
H10_3 H 0.679220 0.971409 0.965404
N2_2 N 0.059(6) 0.588(7) 0.959(6)
N3_2 N 0.100(6) 0.564(11) 0.877(6)
H9_2 H 0.009988 0.460332 0.697666
N5_2 N 0.246(4) 0.908(5) 0.079(4)
C1_4 C 0.890(6) 0.963(9) 0.674(6)
H1_4 H 0.964033 0.994536 0.676977
C2_4 C 0.789(7) 0.939(10) 0.572(5)
H2_4 H 0.796091 0.953881 0.506755
C3_4 C 0.678(6) 0.892(10) 0.569(5)
C4_4 C 0.667(6) 0.870(9) 0.667(7)
H3_4 H 0.592527 0.838897 0.664140
C5_4 C 0.768(8) 0.894(9) 0.769(5)
H4_4 H 0.760468 0.879552 0.834363
N1_4 N 0.879(6) 0.941(9) 0.773(5)
N2_3 N 0.559(6) 0.912(7) 0.459(6)
N3_3 N 0.600(6) 0.936(11) 0.377(6)
C12_4 C 0.473(5) 0.921(9) 0.275(4)
C13_4 C 0.450(5) 0.989(8) 0.189(5)
C14_4 C 0.336(5) 0.983(6) 0.092(5)
C15_4 C 0.270(5) 0.839(6) 0.165(4)
H11_4 H 0.209460 0.788879 0.156714
C16_4 C 0.383(6) 0.846(8) 0.263(4)
H12_4 H 0.398667 0.799955 0.319787
H9_3 H 0.509988 0.039668 0.197666
H10_4 H 0.320780 0.028591 0.034596
N2_4 N 0.941(6) 0.412(7) 0.041(6)
N3_4 N 0.900(6) 0.436(11) 0.123(6)
H9_4 H 0.990012 0.539668 0.302334
loop_
_geom_bond_atom_site_label_1
_geom_bond_atom_site_label_2
_geom_bond_site_symmetry_1
_geom_bond_site_symmetry_2
O1 C18 1_555 1_555
C6 C7 1_555 1_555
C7 H5 1_555 1_555
C8 C7 1_555 1_555
H6 C8 1_555 1_555
C9 C8 1_555 1_555
C10 C9 1_555 1_555
H7 C10 1_555 1_555
C11 C6 1_555 1_555
H8 C11 1_555 1_555
C17 C9 1_555 1_555
O3 C17 1_555 1_555
C18 C6 1_555 1_555
O4 C17 1_555 1_555
Cd4 O3 1_555 1_555
C10 C11 1_555 1_555
O2 C18 1_555 1_555
O4 Cd4 1_555 1_555
O6 Cd2 1_555 1_555
O7 Cd2 1_555 1_555
Cd1 O1_2 1_555 1_555
O1_2 C18_2 1_555 1_555
C1 H1 1_555 1_555
C2 C1 1_555 1_555
H2 C2 1_555 1_555
C3 C2 1_555 1_555
C4 C3 1_555 1_555
H3 C4 1_555 1_555
C5 C4 1_555 1_555
H4 C5 1_555 1_555
N1 Cd1 1_555 1_555
C6_2 C7_2 1_555 1_555
C7_2 H5_2 1_555 1_555
C8_2 C7_2 1_555 1_555
H6_2 C8_2 1_555 1_555
C9_2 C8_2 1_555 1_555
C10_2 C9_2 1_555 1_555
H7_2 C10_2 1_555 1_555
C11_2 C6_2 1_555 1_555
H8_2 C11_2 1_555 1_555
O2_2 Cd1 1_555 1_555
C17_2 C9_2 1_555 1_555
O3_2 C17_2 1_555 1_555
C18_2 C6_2 1_555 1_555
O4_2 C17_2 1_555 1_555
Cd4 O1_2 1_555 1_555
Cd3 O3_2 1_555 1_555
O5_2 Cd1 1_555 1_555
N5 Cd1 1_555 1_555
O6_2 Cd1 1_555 1_555
O7_2 Cd1 1_555 1_555
C1 N1 1_555 1_555
C5 N1 1_555 1_555
C10_2 C11_2 1_555 1_555
O2_2 C18_2 1_555 1_555
O4_2 Cd3 1_555 1_555
Cd4 O5_2 1_555 1_555
C13 C12 1_555 1_555
C14 C13 1_555 1_555
H10 C14 1_555 1_555
N5 C14 1_555 1_555
C15 N5 1_555 1_555
H11 C15 1_555 1_555
C16 C12 1_555 1_555
H12 C16 1_555 1_555
C15 C16 1_555 1_555
O5 C18_3 1_555 1_555
C6_3 C7_3 1_555 1_555
C7_3 H5_3 1_555 1_555
C8_3 C7_3 1_555 1_555
H6_3 C8_3 1_555 1_555
C9_3 C8_3 1_555 1_555
C10_3 C9_3 1_555 1_555
H7_3 C10_3 1_555 1_555
C11_3 C6_3 1_555 1_555
H8_3 C11_3 1_555 1_555
C17_3 C9_3 1_555 1_555
O6_2 C17_3 1_555 1_555
C18_3 C6_3 1_555 1_555
O7_2 C17_3 1_555 1_555
C10_3 C11_3 1_555 1_555
O2_3 C18_3 1_555 1_555
C13_2 C12_2 1_555 1_555
C14_2 C13_2 1_555 1_555
H10_2 C14_2 1_555 1_555
N4 C14_2 1_555 1_555
C15_2 N4 1_555 1_555
H11_2 C15_2 1_555 1_555
C16_2 C12_2 1_555 1_555
H12_2 C16_2 1_555 1_555
Cd4 N4 1_555 1_555
C15_2 C16_2 1_555 1_555
O5_2 C18_4 1_555 1_555
C1_2 H1_2 1_555 1_555
C2_2 C1_2 1_555 1_555
H2_2 C2_2 1_555 1_555
C3_2 C2_2 1_555 1_555
C4_2 C3_2 1_555 1_555
H3_2 C4_2 1_555 1_555
C5_2 C4_2 1_555 1_555
H4_2 C5_2 1_555 1_555
N1_2 Cd4 1_555 1_555
C6_4 C7_4 1_555 1_555
C7_4 H5_4 1_555 1_555
C8_4 C7_4 1_555 1_555
H6_4 C8_4 1_555 1_555
C9_4 C8_4 1_555 1_555
C10_4 C9_4 1_555 1_555
H7_4 C10_4 1_555 1_555
C11_4 C6_4 1_555 1_555
H8_4 C11_4 1_555 1_555
O2_4 Cd4 1_555 1_555
C17_4 C9_4 1_555 1_555
O6 C17_4 1_555 1_555
C18_4 C6_4 1_555 1_555
O7 C17_4 1_555 1_555
C1_2 N1_2 1_555 1_555
C5_2 N1_2 1_555 1_555
C10_4 C11_4 1_555 1_555
O2_4 C18_4 1_555 1_555
C1_3 H1_3 1_555 1_555
C2_3 C1_3 1_555 1_555
H2_3 C2_3 1_555 1_555
C3_3 C2_3 1_555 1_555
C4_3 C3_3 1_555 1_555
H3_3 C4_3 1_555 1_555
C5_3 C4_3 1_555 1_555
H4_3 C5_3 1_555 1_555
N2 C3_3 1_555 1_555
N3 N2 1_555 1_555
C12_3 N3 1_555 1_555
C13_3 C12_3 1_555 1_555
C14_3 C13_3 1_555 1_555
N4_2 C14_3 1_555 1_555
C15_3 N4_2 1_555 1_555
H11_3 C15_3 1_555 1_555
C16_3 C12_3 1_555 1_555
H12_3 C16_3 1_555 1_555
C1_3 N1_3 1_555 1_555
C5_3 N1_3 1_555 1_555
C15_3 C16_3 1_555 1_555
N3_2 N2_2 1_555 1_555
C1_4 H1_4 1_555 1_555
C2_4 C1_4 1_555 1_555
H2_4 C2_4 1_555 1_555
C3_4 C2_4 1_555 1_555
C4_4 C3_4 1_555 1_555
H3_4 C4_4 1_555 1_555
C5_4 C4_4 1_555 1_555
H4_4 C5_4 1_555 1_555
N2_3 C3_4 1_555 1_555
N3_3 N2_3 1_555 1_555
C12_4 N3_3 1_555 1_555
C13_4 C12_4 1_555 1_555
C14_4 C13_4 1_555 1_555
N5_2 C14_4 1_555 1_555
C15_4 N5_2 1_555 1_555
H11_4 C15_4 1_555 1_555
C16_4 C12_4 1_555 1_555
H12_4 C16_4 1_555 1_555
C1_4 N1_4 1_555 1_555
C5_4 N1_4 1_555 1_555
C15_4 C16_4 1_555 1_555
N3_4 N2_4 1_555 1_555

#END
