
###############################################################################
#
# This file contains modified crystal structure data generated from the
# MOF subset of the Cambridge Structural Database (CSD) v543 
# hosted by the Cambridge Crystallographic Data Centre (CCDC).
#
# This work is licensed under the Creative Commons
# Attribution-NonCommercial-ShareAlike 4.0 International License.
# To view a copy of this license, visit
# http://creativecommons.org/licenses/by-nc-sa/4.0/
# or send a letter to
# Creative Commons, PO Box 1866, Mountain View, CA 94042, USA.
#
# CIF created using the CSD Python API on 29 September 2022
# The structure has been converted into the P1 space group
# The structure has a 3D framework
# The original CSD entry OVUFAP18 is in the monoclinic crystal system
# The framework has been calculated to contain at least 10.0% void space
# The void calculation uses a probe of radius 1.32A, grid spacing 0.4
#
###############################################################################

data_OVUFAP18
_chemical_formula_moiety         '(C72 H48 Cd2 N16 O16)n'
_symmetry_cell_setting           triclinic
_symmetry_space_group_name_H-M   'P 1'
_symmetry_Int_Tables_number      1
_space_group_name_Hall           'P 1'
loop_
_symmetry_equiv_pos_site_id
_symmetry_equiv_pos_as_xyz
1 x,y,z
_cell_length_a                   11.854(3)
_cell_length_b                   13.68(2)
_cell_length_c                   12.773(3)
_cell_angle_alpha                90
_cell_angle_beta                 114.04(3)
_cell_angle_gamma                90
_cell_volume                     1891.64
loop_
_atom_site_label
_atom_site_type_symbol
_atom_site_fract_x
_atom_site_fract_y
_atom_site_fract_z
Cd2 Cd 0.94072(17) 0.0975(5) 0.06655(17)
O1 O 0.0614(17) 0.071(3) 0.9505(16)
C6 C 0.1393(13) 0.200(2) 0.8806(13)
C7 C 0.1917(17) 0.141(2) 0.8242(17)
H5 H 0.186092 0.073331 0.827810
C8 C 0.2526(14) 0.183(2) 0.7624(14)
H6 H 0.287725 0.142837 0.724704
C9 C 0.2610(14) 0.284(3) 0.7571(13)
C10 C 0.2086(17) 0.343(2) 0.8135(17)
H7 H 0.214204 0.410785 0.809872
C11 C 0.1477(14) 0.302(2) 0.8752(13)
H8 H 0.112570 0.341281 0.912979
O2 O 0.0272(16) 0.222(3) 0.9960(16)
C17 C 0.318(3) 0.325(6) 0.681(3)
O3 O 0.3757(16) 0.271(3) 0.6465(15)
C18 C 0.066(3) 0.165(3) 0.938(3)
O4 O 0.3318(19) 0.413(4) 0.6852(17)
Cd4 Cd 0.44072(17) 0.4025(5) 0.56655(17)
Cd3 Cd 0.05928(17) 0.9025(5) 0.93345(17)
O6 O 0.8757(16) 0.229(3) 0.1465(15)
O7 O 0.8318(19) 0.087(4) 0.1852(17)
O5 O 0.9386(17) 0.929(3) 0.0495(16)
Cd1 Cd 0.55928(17) 0.5975(5) 0.43345(17)
O1_2 O 0.4386(17) 0.571(3) 0.5495(16)
C1 C 0.3765(16) 0.512(3) 0.1867(18)
H1 H 0.444131 0.472677 0.197162
C2 C 0.275(2) 0.513(3) 0.0818(16)
H2 H 0.274467 0.473683 0.022070
C3 C 0.1737(18) 0.572(3) 0.0662(16)
C4 C 0.1743(19) 0.630(3) 0.155(2)
H3 H 0.106617 0.669514 0.145045
C5 C 0.276(2) 0.629(3) 0.2604(18)
H4 H 0.276279 0.668510 0.320138
N1 N 0.3770(15) 0.570(3) 0.2760(13)
C6_2 C 0.3607(13) 0.700(2) 0.6194(13)
C7_2 C 0.3083(17) 0.641(2) 0.6758(17)
H5_2 H 0.313908 0.573331 0.672190
C8_2 C 0.2474(14) 0.683(2) 0.7376(14)
H6_2 H 0.212275 0.642837 0.775296
C9_2 C 0.2390(14) 0.784(3) 0.7429(13)
C10_2 C 0.2914(17) 0.843(2) 0.6865(17)
H7_2 H 0.285796 0.910785 0.690128
C11_2 C 0.3523(14) 0.802(2) 0.6248(13)
H8_2 H 0.387430 0.841281 0.587021
O2_2 O 0.4728(16) 0.722(3) 0.5040(16)
C17_2 C 0.182(3) 0.825(6) 0.819(3)
O3_2 O 0.1243(16) 0.771(3) 0.8535(15)
C18_2 C 0.434(3) 0.665(3) 0.562(3)
O4_2 O 0.1682(19) 0.913(4) 0.8148(17)
O5_2 O 0.5614(17) 0.429(3) 0.4505(16)
N5 N 0.7344(14) 0.583(3) 0.5915(12)
O6_2 O 0.6243(16) 0.729(3) 0.3535(15)
O7_2 O 0.6682(19) 0.587(4) 0.3148(17)
C12 C 0.9600(16) 0.569(3) 0.7797(17)
C13 C 0.937(2) 0.512(3) 0.683(2)
H9 H 0.997487 0.468910 0.681322
C14 C 0.824(2) 0.519(3) 0.5889(16)
H10 H 0.809261 0.480558 0.524239
C15 C 0.7572(19) 0.639(3) 0.6882(17)
H11 H 0.696928 0.682137 0.689886
C16 C 0.870(2) 0.632(3) 0.7823(16)
H12 H 0.885153 0.670491 0.846971
C6_3 C 0.8607(13) 0.800(2) 0.1194(13)
C7_3 C 0.8083(17) 0.859(2) 0.1758(17)
H5_3 H 0.813908 0.926669 0.172190
C8_3 C 0.7474(14) 0.817(2) 0.2376(14)
H6_3 H 0.712275 0.857163 0.275296
C9_3 C 0.7390(14) 0.716(3) 0.2429(13)
C10_3 C 0.7914(17) 0.657(2) 0.1865(17)
H7_3 H 0.785796 0.589215 0.190128
C11_3 C 0.8523(14) 0.698(2) 0.1248(13)
H8_3 H 0.887430 0.658719 0.087021
O2_3 O 0.9728(16) 0.778(3) 0.0040(16)
C17_3 C 0.682(3) 0.675(6) 0.319(3)
C18_3 C 0.934(3) 0.835(3) 0.062(3)
C12_2 C 0.0400(16) 0.431(3) 0.2203(17)
C13_2 C 0.063(2) 0.488(3) 0.317(2)
H9_2 H 0.002513 0.531090 0.318678
C14_2 C 0.176(2) 0.481(3) 0.4111(16)
H10_2 H 0.190739 0.519442 0.475761
N4 N 0.2656(14) 0.417(3) 0.4085(12)
C15_2 C 0.2428(19) 0.361(3) 0.3118(17)
H11_2 H 0.303072 0.317863 0.310114
C16_2 C 0.130(2) 0.368(3) 0.2177(16)
H12_2 H 0.114847 0.329509 0.153029
C1_2 C 0.6235(16) 0.488(3) 0.8133(18)
H1_2 H 0.555869 0.527323 0.802838
C2_2 C 0.725(2) 0.487(3) 0.9182(16)
H2_2 H 0.725533 0.526317 0.977930
C3_2 C 0.8263(18) 0.428(3) 0.9338(16)
C4_2 C 0.8257(19) 0.370(3) 0.845(2)
H3_2 H 0.893383 0.330486 0.854955
C5_2 C 0.724(2) 0.371(3) 0.7396(18)
H4_2 H 0.723721 0.331490 0.679862
N1_2 N 0.6230(15) 0.430(3) 0.7240(13)
C6_4 C 0.6393(13) 0.300(2) 0.3806(13)
C7_4 C 0.6917(17) 0.359(2) 0.3242(17)
H5_4 H 0.686092 0.426669 0.327810
C8_4 C 0.7526(14) 0.317(2) 0.2624(14)
H6_4 H 0.787725 0.357163 0.224704
C9_4 C 0.7610(14) 0.216(3) 0.2571(13)
C10_4 C 0.7086(17) 0.157(2) 0.3135(17)
H7_4 H 0.714204 0.089215 0.309872
C11_4 C 0.6477(14) 0.198(2) 0.3752(13)
H8_4 H 0.612570 0.158719 0.412979
O2_4 O 0.5272(16) 0.278(3) 0.4960(16)
C17_4 C 0.818(3) 0.175(6) 0.181(3)
C18_4 C 0.566(3) 0.335(3) 0.438(3)
C1_3 C 0.1235(16) 0.012(3) 0.3133(18)
C2_3 C 0.225(2) 0.013(3) 0.4182(16)
C3_3 C 0.3263(18) 0.072(3) 0.4338(16)
C4_3 C 0.3257(19) 0.130(3) 0.345(2)
H3_3 H 0.393383 0.169514 0.354955
C5_3 C 0.224(2) 0.129(3) 0.2396(18)
H4_3 H 0.223721 0.168510 0.179862
N1_3 N 0.1230(15) 0.070(3) 0.2240(13)
N2 N 0.440(3) 0.082(3) 0.537(2)
N3 N 0.427(3) 0.059(5) 0.618(3)
C12_3 C 0.5400(16) 0.069(3) 0.7203(17)
C13_3 C 0.563(2) 0.012(3) 0.817(2)
C14_3 C 0.676(2) 0.019(3) 0.9111(16)
N4_2 N 0.7656(14) 0.083(3) 0.9085(12)
C15_3 C 0.7428(19) 0.139(3) 0.8118(17)
H11_3 H 0.803072 0.182137 0.810114
C16_3 C 0.630(2) 0.132(3) 0.7177(16)
H12_3 H 0.614847 0.170491 0.653029
H1_3 H 0.055869 0.972677 0.302838
H2_3 H 0.225533 0.973683 0.477930
H9_3 H 0.502513 0.968910 0.818678
H10_3 H 0.690739 0.980558 0.975761
N2_2 N 0.060(3) 0.582(3) 0.963(2)
N3_2 N 0.073(3) 0.559(5) 0.882(3)
N5_2 N 0.2344(14) 0.917(3) 0.0915(12)
C1_4 C 0.8765(16) 0.988(3) 0.6867(18)
C2_4 C 0.775(2) 0.987(3) 0.5818(16)
C3_4 C 0.6737(18) 0.928(3) 0.5662(16)
C4_4 C 0.6743(19) 0.870(3) 0.655(2)
H3_4 H 0.606617 0.830486 0.645045
C5_4 C 0.776(2) 0.871(3) 0.7604(18)
H4_4 H 0.776279 0.831490 0.820138
N1_4 N 0.8770(15) 0.930(3) 0.7760(13)
N2_3 N 0.560(3) 0.918(3) 0.463(2)
N3_3 N 0.573(3) 0.941(5) 0.382(3)
C12_4 C 0.4600(16) 0.931(3) 0.2797(17)
C13_4 C 0.437(2) 0.988(3) 0.183(2)
C14_4 C 0.324(2) 0.981(3) 0.0889(16)
C15_4 C 0.2572(19) 0.861(3) 0.1882(17)
H11_4 H 0.196928 0.817863 0.189886
C16_4 C 0.370(2) 0.868(3) 0.2823(16)
H12_4 H 0.385153 0.829509 0.346971
H1_4 H 0.944131 0.027323 0.697162
H2_4 H 0.774467 0.026317 0.522070
H9_4 H 0.497487 0.031090 0.181322
H10_4 H 0.309261 0.019442 0.024239
N2_4 N 0.940(3) 0.418(3) 0.037(2)
N3_4 N 0.927(3) 0.441(5) 0.118(3)
loop_
_geom_bond_atom_site_label_1
_geom_bond_atom_site_label_2
_geom_bond_site_symmetry_1
_geom_bond_site_symmetry_2
O1 C18 1_555 1_555
C6 C7 1_555 1_555
C7 H5 1_555 1_555
C8 C7 1_555 1_555
H6 C8 1_555 1_555
C9 C8 1_555 1_555
C10 C9 1_555 1_555
H7 C10 1_555 1_555
C11 C6 1_555 1_555
H8 C11 1_555 1_555
C17 C9 1_555 1_555
O3 C17 1_555 1_555
C18 C6 1_555 1_555
O4 C17 1_555 1_555
Cd4 O3 1_555 1_555
C10 C11 1_555 1_555
O2 C18 1_555 1_555
O4 Cd4 1_555 1_555
O6 Cd2 1_555 1_555
O7 Cd2 1_555 1_555
Cd1 O1_2 1_555 1_555
O1_2 C18_2 1_555 1_555
C1 H1 1_555 1_555
C2 C1 1_555 1_555
H2 C2 1_555 1_555
C3 C2 1_555 1_555
C4 C3 1_555 1_555
H3 C4 1_555 1_555
C5 C4 1_555 1_555
H4 C5 1_555 1_555
N1 Cd1 1_555 1_555
C6_2 C7_2 1_555 1_555
C7_2 H5_2 1_555 1_555
C8_2 C7_2 1_555 1_555
H6_2 C8_2 1_555 1_555
C9_2 C8_2 1_555 1_555
C10_2 C9_2 1_555 1_555
H7_2 C10_2 1_555 1_555
C11_2 C6_2 1_555 1_555
H8_2 C11_2 1_555 1_555
O2_2 Cd1 1_555 1_555
C17_2 C9_2 1_555 1_555
O3_2 C17_2 1_555 1_555
C18_2 C6_2 1_555 1_555
O4_2 C17_2 1_555 1_555
Cd4 O1_2 1_555 1_555
Cd3 O3_2 1_555 1_555
O5_2 Cd1 1_555 1_555
N5 Cd1 1_555 1_555
O6_2 Cd1 1_555 1_555
O7_2 Cd1 1_555 1_555
C1 N1 1_555 1_555
C5 N1 1_555 1_555
C10_2 C11_2 1_555 1_555
O2_2 C18_2 1_555 1_555
O4_2 Cd3 1_555 1_555
Cd4 O5_2 1_555 1_555
C13 C12 1_555 1_555
H9 C13 1_555 1_555
C14 C13 1_555 1_555
H10 C14 1_555 1_555
N5 C14 1_555 1_555
C15 N5 1_555 1_555
H11 C15 1_555 1_555
C16 C12 1_555 1_555
H12 C16 1_555 1_555
C15 C16 1_555 1_555
O5 C18_3 1_555 1_555
C6_3 C7_3 1_555 1_555
C7_3 H5_3 1_555 1_555
C8_3 C7_3 1_555 1_555
H6_3 C8_3 1_555 1_555
C9_3 C8_3 1_555 1_555
C10_3 C9_3 1_555 1_555
H7_3 C10_3 1_555 1_555
C11_3 C6_3 1_555 1_555
H8_3 C11_3 1_555 1_555
C17_3 C9_3 1_555 1_555
O6_2 C17_3 1_555 1_555
C18_3 C6_3 1_555 1_555
O7_2 C17_3 1_555 1_555
C10_3 C11_3 1_555 1_555
O2_3 C18_3 1_555 1_555
C13_2 C12_2 1_555 1_555
H9_2 C13_2 1_555 1_555
C14_2 C13_2 1_555 1_555
H10_2 C14_2 1_555 1_555
N4 C14_2 1_555 1_555
C15_2 N4 1_555 1_555
H11_2 C15_2 1_555 1_555
C16_2 C12_2 1_555 1_555
H12_2 C16_2 1_555 1_555
Cd4 N4 1_555 1_555
C15_2 C16_2 1_555 1_555
O5_2 C18_4 1_555 1_555
C1_2 H1_2 1_555 1_555
C2_2 C1_2 1_555 1_555
H2_2 C2_2 1_555 1_555
C3_2 C2_2 1_555 1_555
C4_2 C3_2 1_555 1_555
H3_2 C4_2 1_555 1_555
C5_2 C4_2 1_555 1_555
H4_2 C5_2 1_555 1_555
N1_2 Cd4 1_555 1_555
C6_4 C7_4 1_555 1_555
C7_4 H5_4 1_555 1_555
C8_4 C7_4 1_555 1_555
H6_4 C8_4 1_555 1_555
C9_4 C8_4 1_555 1_555
C10_4 C9_4 1_555 1_555
H7_4 C10_4 1_555 1_555
C11_4 C6_4 1_555 1_555
H8_4 C11_4 1_555 1_555
O2_4 Cd4 1_555 1_555
C17_4 C9_4 1_555 1_555
O6 C17_4 1_555 1_555
C18_4 C6_4 1_555 1_555
O7 C17_4 1_555 1_555
C1_2 N1_2 1_555 1_555
C5_2 N1_2 1_555 1_555
C10_4 C11_4 1_555 1_555
O2_4 C18_4 1_555 1_555
C2_3 C1_3 1_555 1_555
C3_3 C2_3 1_555 1_555
C4_3 C3_3 1_555 1_555
H3_3 C4_3 1_555 1_555
C5_3 C4_3 1_555 1_555
H4_3 C5_3 1_555 1_555
N2 C3_3 1_555 1_555
N3 N2 1_555 1_555
C12_3 N3 1_555 1_555
C13_3 C12_3 1_555 1_555
C14_3 C13_3 1_555 1_555
N4_2 C14_3 1_555 1_555
C15_3 N4_2 1_555 1_555
H11_3 C15_3 1_555 1_555
C16_3 C12_3 1_555 1_555
H12_3 C16_3 1_555 1_555
C1_3 N1_3 1_555 1_555
C5_3 N1_3 1_555 1_555
C15_3 C16_3 1_555 1_555
N3_2 N2_2 1_555 1_555
C2_4 C1_4 1_555 1_555
C3_4 C2_4 1_555 1_555
C4_4 C3_4 1_555 1_555
H3_4 C4_4 1_555 1_555
C5_4 C4_4 1_555 1_555
H4_4 C5_4 1_555 1_555
N2_3 C3_4 1_555 1_555
N3_3 N2_3 1_555 1_555
C12_4 N3_3 1_555 1_555
C13_4 C12_4 1_555 1_555
C14_4 C13_4 1_555 1_555
N5_2 C14_4 1_555 1_555
C15_4 N5_2 1_555 1_555
H11_4 C15_4 1_555 1_555
C16_4 C12_4 1_555 1_555
H12_4 C16_4 1_555 1_555
C1_4 N1_4 1_555 1_555
C5_4 N1_4 1_555 1_555
C15_4 C16_4 1_555 1_555
N3_4 N2_4 1_555 1_555

#END
