
###############################################################################
#
# This file contains modified crystal structure data generated from the
# MOF subset of the Cambridge Structural Database (CSD) v543 
# hosted by the Cambridge Crystallographic Data Centre (CCDC).
#
# This work is licensed under the Creative Commons
# Attribution-NonCommercial-ShareAlike 4.0 International License.
# To view a copy of this license, visit
# http://creativecommons.org/licenses/by-nc-sa/4.0/
# or send a letter to
# Creative Commons, PO Box 1866, Mountain View, CA 94042, USA.
#
# CIF created using the CSD Python API on 29 September 2022
# The structure has been converted into the P1 space group
# The structure has a 3D framework
# The original CSD entry OVUFAP15 is in the monoclinic crystal system
# The framework has been calculated to contain at least 10.0% void space
# The void calculation uses a probe of radius 1.32A, grid spacing 0.4
#
###############################################################################

data_OVUFAP15
_chemical_formula_moiety         '(C72 H48 Cd2 N16 O16)n'
_symmetry_cell_setting           triclinic
_symmetry_space_group_name_H-M   'P 1'
_symmetry_Int_Tables_number      1
_space_group_name_Hall           'P 1'
loop_
_symmetry_equiv_pos_site_id
_symmetry_equiv_pos_as_xyz
1 x,y,z
_cell_length_a                   12.162(3)
_cell_length_b                   13.928(18)
_cell_length_c                   12.574(3)
_cell_angle_alpha                90
_cell_angle_beta                 113.67(3)
_cell_angle_gamma                90
_cell_volume                     1950.75
loop_
_atom_site_label
_atom_site_type_symbol
_atom_site_fract_x
_atom_site_fract_y
_atom_site_fract_z
Cd2 Cd 0.9383(2) 0.0978(5) 0.06538(19)
O1 O 0.054(3) 0.070(3) 0.943(3)
C6 C 0.1314(14) 0.1993(19) 0.8731(13)
C7 C 0.1859(15) 0.1412(18) 0.8184(15)
H5 H 0.181470 0.074727 0.822726
C8 C 0.2471(13) 0.1824(19) 0.7573(13)
H6 H 0.283527 0.143564 0.720746
C9 C 0.2537(13) 0.2818(19) 0.7509(12)
C10 C 0.1992(15) 0.3398(18) 0.8055(15)
H7 H 0.203659 0.406292 0.801239
C11 C 0.1381(14) 0.2986(19) 0.8666(14)
H8 H 0.101601 0.337457 0.903220
O2 O 0.0183(19) 0.204(4) 0.9887(19)
C17 C 0.325(4) 0.327(3) 0.692(3)
O3 O 0.366(2) 0.265(3) 0.6405(17)
C18 C 0.063(4) 0.156(3) 0.936(4)
O4 O 0.327(3) 0.419(4) 0.680(3)
Cd4 Cd 0.4383(2) 0.4022(5) 0.56538(19)
Cd3 Cd 0.0617(2) 0.9022(5) 0.93462(19)
O6 O 0.866(2) 0.235(3) 0.1405(17)
O7 O 0.827(3) 0.081(4) 0.180(3)
O5 O 0.946(3) 0.930(3) 0.057(3)
Cd1 Cd 0.5617(2) 0.5978(5) 0.43462(19)
O1_2 O 0.446(3) 0.570(3) 0.557(3)
C1 C 0.3785(19) 0.526(3) 0.179(2)
H1 H 0.443350 0.487720 0.184141
C2 C 0.274(2) 0.526(3) 0.0779(19)
H2 H 0.269713 0.489214 0.014817
C3 C 0.1775(17) 0.583(3) 0.0708(17)
C4 C 0.1847(18) 0.639(3) 0.165(2)
H3 H 0.119807 0.676331 0.160403
C5 C 0.289(2) 0.638(3) 0.2666(18)
H4 H 0.293442 0.674839 0.329727
N1 N 0.3856(16) 0.581(3) 0.2737(16)
C6_2 C 0.3686(14) 0.6993(19) 0.6269(13)
C7_2 C 0.3141(15) 0.6412(18) 0.6816(15)
H5_2 H 0.318530 0.574727 0.677274
C8_2 C 0.2529(13) 0.6824(19) 0.7427(13)
H6_2 H 0.216473 0.643564 0.779254
C9_2 C 0.2463(13) 0.7818(19) 0.7491(12)
C10_2 C 0.3008(15) 0.8398(18) 0.6945(15)
H7_2 H 0.296341 0.906292 0.698761
C11_2 C 0.3619(14) 0.7986(19) 0.6334(14)
H8_2 H 0.398399 0.837457 0.596780
O2_2 O 0.4817(19) 0.704(4) 0.5113(19)
C17_2 C 0.175(4) 0.827(3) 0.808(3)
O3_2 O 0.134(2) 0.765(3) 0.8595(17)
C18_2 C 0.437(4) 0.656(3) 0.564(4)
O4_2 O 0.173(3) 0.919(4) 0.820(3)
O5_2 O 0.554(3) 0.430(3) 0.443(3)
N5 N 0.7364(15) 0.578(3) 0.5958(14)
O6_2 O 0.634(2) 0.735(3) 0.3595(17)
O7_2 O 0.673(3) 0.581(4) 0.320(3)
C12 C 0.9550(17) 0.576(4) 0.7873(18)
C13 C 0.940(2) 0.522(4) 0.690(2)
C14 C 0.831(2) 0.523(3) 0.5939(18)
H10 H 0.820539 0.486449 0.528640
C15 C 0.7515(19) 0.633(3) 0.6934(18)
H11 H 0.688436 0.669759 0.694605
C16 C 0.861(2) 0.632(3) 0.7891(17)
H12 H 0.870906 0.667925 0.854419
C6_3 C 0.8686(14) 0.8007(19) 0.1269(13)
C7_3 C 0.8141(15) 0.8588(18) 0.1816(15)
H5_3 H 0.818530 0.925273 0.177274
C8_3 C 0.7529(13) 0.8176(19) 0.2427(13)
H6_3 H 0.716473 0.856436 0.279254
C9_3 C 0.7463(13) 0.7182(19) 0.2491(12)
C10_3 C 0.8008(15) 0.6602(18) 0.1945(15)
H7_3 H 0.796341 0.593708 0.198761
C11_3 C 0.8619(14) 0.7014(19) 0.1334(14)
H8_3 H 0.898399 0.662543 0.096780
O2_3 O 0.9817(19) 0.796(4) 0.0113(19)
C17_3 C 0.675(4) 0.673(3) 0.308(3)
C18_3 C 0.937(4) 0.844(3) 0.064(4)
C12_2 C 0.0450(17) 0.424(4) 0.2127(18)
C13_2 C 0.060(2) 0.478(4) 0.310(2)
C14_2 C 0.169(2) 0.477(3) 0.4061(18)
H10_2 H 0.179461 0.513551 0.471360
N4 N 0.2636(15) 0.422(3) 0.4042(14)
C15_2 C 0.2485(19) 0.367(3) 0.3066(18)
H11_2 H 0.311564 0.330241 0.305395
C16_2 C 0.139(2) 0.368(3) 0.2109(17)
H12_2 H 0.129094 0.332075 0.145581
C1_2 C 0.6215(19) 0.474(3) 0.821(2)
H1_2 H 0.556650 0.512280 0.815859
C2_2 C 0.726(2) 0.474(3) 0.9221(19)
H2_2 H 0.730287 0.510786 0.985183
C3_2 C 0.8225(17) 0.417(3) 0.9292(17)
C4_2 C 0.8153(18) 0.361(3) 0.835(2)
H3_2 H 0.880193 0.323669 0.839597
C5_2 C 0.711(2) 0.362(3) 0.7334(18)
H4_2 H 0.706558 0.325161 0.670273
N1_2 N 0.6144(16) 0.419(3) 0.7263(16)
C6_4 C 0.6314(14) 0.3007(19) 0.3731(13)
C7_4 C 0.6859(15) 0.3588(18) 0.3184(15)
H5_4 H 0.681470 0.425273 0.322726
C8_4 C 0.7471(13) 0.3176(19) 0.2573(13)
H6_4 H 0.783527 0.356436 0.220746
C9_4 C 0.7537(13) 0.2182(19) 0.2509(12)
C10_4 C 0.6992(15) 0.1602(18) 0.3055(15)
H7_4 H 0.703659 0.093708 0.301239
C11_4 C 0.6381(14) 0.2014(19) 0.3666(14)
H8_4 H 0.601601 0.162543 0.403220
O2_4 O 0.5183(19) 0.296(4) 0.4887(19)
C17_4 C 0.825(4) 0.173(3) 0.192(3)
C18_4 C 0.563(4) 0.344(3) 0.436(4)
C1_3 C 0.1215(19) 0.026(3) 0.321(2)
C2_3 C 0.226(2) 0.026(3) 0.4221(19)
C3_3 C 0.3225(17) 0.083(3) 0.4292(17)
C4_3 C 0.3153(18) 0.139(3) 0.335(2)
H3_3 H 0.380193 0.176331 0.339597
C5_3 C 0.211(2) 0.138(3) 0.2334(18)
H4_3 H 0.206558 0.174839 0.170273
N1_3 N 0.1144(16) 0.081(3) 0.2263(16)
N2 N 0.440(2) 0.079(5) 0.530(3)
N3 N 0.426(3) 0.052(5) 0.622(3)
C12_3 C 0.5450(17) 0.076(4) 0.7127(18)
C13_3 C 0.560(2) 0.022(4) 0.810(2)
C14_3 C 0.669(2) 0.023(3) 0.9061(18)
N4_2 N 0.7636(15) 0.078(3) 0.9042(14)
C15_3 C 0.7485(19) 0.133(3) 0.8066(18)
H11_3 H 0.811564 0.169759 0.805395
C16_3 C 0.639(2) 0.132(3) 0.7109(17)
H12_3 H 0.629094 0.167925 0.645581
H1_3 H 0.056650 0.987720 0.315859
H2_3 H 0.230287 0.989214 0.485183
H9 H 0.496990 0.984614 0.811547
H10_3 H 0.679461 0.986449 0.971360
N2_2 N 0.060(2) 0.579(5) 0.970(3)
N3_2 N 0.074(3) 0.552(5) 0.878(3)
H9_2 H 0.003010 0.484614 0.688453
N5_2 N 0.2364(15) 0.922(3) 0.0958(14)
C1_4 C 0.8785(19) 0.974(3) 0.679(2)
C2_4 C 0.774(2) 0.974(3) 0.5779(19)
C3_4 C 0.6775(17) 0.917(3) 0.5708(17)
C4_4 C 0.6847(18) 0.861(3) 0.665(2)
H3_4 H 0.619807 0.823669 0.660403
C5_4 C 0.789(2) 0.862(3) 0.7666(18)
H4_4 H 0.793442 0.825161 0.829727
N1_4 N 0.8856(16) 0.919(3) 0.7737(16)
N2_3 N 0.560(2) 0.921(5) 0.470(3)
N3_3 N 0.574(3) 0.948(5) 0.378(3)
C12_4 C 0.4550(17) 0.924(4) 0.2873(18)
C13_4 C 0.440(2) 0.978(4) 0.190(2)
C14_4 C 0.331(2) 0.977(3) 0.0939(18)
C15_4 C 0.2515(19) 0.867(3) 0.1934(18)
H11_4 H 0.188436 0.830241 0.194605
C16_4 C 0.361(2) 0.868(3) 0.2891(17)
H12_4 H 0.370906 0.832075 0.354419
H1_4 H 0.943350 0.012280 0.684141
H2_4 H 0.769713 0.010786 0.514817
H9_3 H 0.503010 0.015386 0.188453
H10_4 H 0.320539 0.013551 0.028640
N2_4 N 0.940(2) 0.421(5) 0.030(3)
N3_4 N 0.926(3) 0.448(5) 0.122(3)
H9_4 H 0.996990 0.515386 0.311547
loop_
_geom_bond_atom_site_label_1
_geom_bond_atom_site_label_2
_geom_bond_site_symmetry_1
_geom_bond_site_symmetry_2
O1 C18 1_555 1_555
C6 C7 1_555 1_555
C7 H5 1_555 1_555
C8 C7 1_555 1_555
H6 C8 1_555 1_555
C9 C8 1_555 1_555
C10 C9 1_555 1_555
H7 C10 1_555 1_555
C11 C6 1_555 1_555
H8 C11 1_555 1_555
C17 C9 1_555 1_555
O3 C17 1_555 1_555
C18 C6 1_555 1_555
O4 C17 1_555 1_555
Cd4 O3 1_555 1_555
C10 C11 1_555 1_555
O2 C18 1_555 1_555
O4 Cd4 1_555 1_555
O6 Cd2 1_555 1_555
O7 Cd2 1_555 1_555
Cd1 O1_2 1_555 1_555
O1_2 C18_2 1_555 1_555
C1 H1 1_555 1_555
C2 C1 1_555 1_555
H2 C2 1_555 1_555
C3 C2 1_555 1_555
C4 C3 1_555 1_555
H3 C4 1_555 1_555
C5 C4 1_555 1_555
H4 C5 1_555 1_555
N1 Cd1 1_555 1_555
C6_2 C7_2 1_555 1_555
C7_2 H5_2 1_555 1_555
C8_2 C7_2 1_555 1_555
H6_2 C8_2 1_555 1_555
C9_2 C8_2 1_555 1_555
C10_2 C9_2 1_555 1_555
H7_2 C10_2 1_555 1_555
C11_2 C6_2 1_555 1_555
H8_2 C11_2 1_555 1_555
O2_2 Cd1 1_555 1_555
C17_2 C9_2 1_555 1_555
O3_2 C17_2 1_555 1_555
C18_2 C6_2 1_555 1_555
O4_2 C17_2 1_555 1_555
Cd4 O1_2 1_555 1_555
Cd3 O3_2 1_555 1_555
O5_2 Cd1 1_555 1_555
N5 Cd1 1_555 1_555
O6_2 Cd1 1_555 1_555
O7_2 Cd1 1_555 1_555
C1 N1 1_555 1_555
C5 N1 1_555 1_555
C10_2 C11_2 1_555 1_555
O2_2 C18_2 1_555 1_555
O4_2 Cd3 1_555 1_555
Cd4 O5_2 1_555 1_555
C13 C12 1_555 1_555
C14 C13 1_555 1_555
H10 C14 1_555 1_555
N5 C14 1_555 1_555
C15 N5 1_555 1_555
H11 C15 1_555 1_555
C16 C12 1_555 1_555
H12 C16 1_555 1_555
C15 C16 1_555 1_555
O5 C18_3 1_555 1_555
C6_3 C7_3 1_555 1_555
C7_3 H5_3 1_555 1_555
C8_3 C7_3 1_555 1_555
H6_3 C8_3 1_555 1_555
C9_3 C8_3 1_555 1_555
C10_3 C9_3 1_555 1_555
H7_3 C10_3 1_555 1_555
C11_3 C6_3 1_555 1_555
H8_3 C11_3 1_555 1_555
C17_3 C9_3 1_555 1_555
O6_2 C17_3 1_555 1_555
C18_3 C6_3 1_555 1_555
O7_2 C17_3 1_555 1_555
C10_3 C11_3 1_555 1_555
O2_3 C18_3 1_555 1_555
C13_2 C12_2 1_555 1_555
C14_2 C13_2 1_555 1_555
H10_2 C14_2 1_555 1_555
N4 C14_2 1_555 1_555
C15_2 N4 1_555 1_555
H11_2 C15_2 1_555 1_555
C16_2 C12_2 1_555 1_555
H12_2 C16_2 1_555 1_555
Cd4 N4 1_555 1_555
C15_2 C16_2 1_555 1_555
O5_2 C18_4 1_555 1_555
C1_2 H1_2 1_555 1_555
C2_2 C1_2 1_555 1_555
H2_2 C2_2 1_555 1_555
C3_2 C2_2 1_555 1_555
C4_2 C3_2 1_555 1_555
H3_2 C4_2 1_555 1_555
C5_2 C4_2 1_555 1_555
H4_2 C5_2 1_555 1_555
N1_2 Cd4 1_555 1_555
C6_4 C7_4 1_555 1_555
C7_4 H5_4 1_555 1_555
C8_4 C7_4 1_555 1_555
H6_4 C8_4 1_555 1_555
C9_4 C8_4 1_555 1_555
C10_4 C9_4 1_555 1_555
H7_4 C10_4 1_555 1_555
C11_4 C6_4 1_555 1_555
H8_4 C11_4 1_555 1_555
O2_4 Cd4 1_555 1_555
C17_4 C9_4 1_555 1_555
O6 C17_4 1_555 1_555
C18_4 C6_4 1_555 1_555
O7 C17_4 1_555 1_555
C1_2 N1_2 1_555 1_555
C5_2 N1_2 1_555 1_555
C10_4 C11_4 1_555 1_555
O2_4 C18_4 1_555 1_555
C2_3 C1_3 1_555 1_555
C3_3 C2_3 1_555 1_555
C4_3 C3_3 1_555 1_555
H3_3 C4_3 1_555 1_555
C5_3 C4_3 1_555 1_555
H4_3 C5_3 1_555 1_555
N2 C3_3 1_555 1_555
N3 N2 1_555 1_555
C12_3 N3 1_555 1_555
C13_3 C12_3 1_555 1_555
C14_3 C13_3 1_555 1_555
N4_2 C14_3 1_555 1_555
C15_3 N4_2 1_555 1_555
H11_3 C15_3 1_555 1_555
C16_3 C12_3 1_555 1_555
H12_3 C16_3 1_555 1_555
C1_3 N1_3 1_555 1_555
C5_3 N1_3 1_555 1_555
C15_3 C16_3 1_555 1_555
N3_2 N2_2 1_555 1_555
C2_4 C1_4 1_555 1_555
C3_4 C2_4 1_555 1_555
C4_4 C3_4 1_555 1_555
H3_4 C4_4 1_555 1_555
C5_4 C4_4 1_555 1_555
H4_4 C5_4 1_555 1_555
N2_3 C3_4 1_555 1_555
N3_3 N2_3 1_555 1_555
C12_4 N3_3 1_555 1_555
C13_4 C12_4 1_555 1_555
C14_4 C13_4 1_555 1_555
N5_2 C14_4 1_555 1_555
C15_4 N5_2 1_555 1_555
H11_4 C15_4 1_555 1_555
C16_4 C12_4 1_555 1_555
H12_4 C16_4 1_555 1_555
C1_4 N1_4 1_555 1_555
C5_4 N1_4 1_555 1_555
C15_4 C16_4 1_555 1_555
N3_4 N2_4 1_555 1_555

#END
