
###############################################################################
#
# This file contains modified crystal structure data generated from the
# MOF subset of the Cambridge Structural Database (CSD) v543 
# hosted by the Cambridge Crystallographic Data Centre (CCDC).
#
# This work is licensed under the Creative Commons
# Attribution-NonCommercial-ShareAlike 4.0 International License.
# To view a copy of this license, visit
# http://creativecommons.org/licenses/by-nc-sa/4.0/
# or send a letter to
# Creative Commons, PO Box 1866, Mountain View, CA 94042, USA.
#
# CIF created using the CSD Python API on 29 September 2022
# The structure has been converted into the P1 space group
# The structure has a 3D framework
# The original CSD entry OVUFAP08 is in the monoclinic crystal system
# The framework has been calculated to contain at least 10.0% void space
# The void calculation uses a probe of radius 1.32A, grid spacing 0.4
#
###############################################################################

data_OVUFAP08
_chemical_formula_moiety         '(C72 H48 Cd2 N16 O16)n'
_symmetry_cell_setting           triclinic
_symmetry_space_group_name_H-M   'P 1'
_symmetry_Int_Tables_number      1
_space_group_name_Hall           'P 1'
loop_
_symmetry_equiv_pos_site_id
_symmetry_equiv_pos_as_xyz
1 x,y,z
_cell_length_a                   12.230(3)
_cell_length_b                   14.03(2)
_cell_length_c                   12.539(2)
_cell_angle_alpha                90
_cell_angle_beta                 113.56(2)
_cell_angle_gamma                90
_cell_volume                     1972.18
loop_
_atom_site_label
_atom_site_type_symbol
_atom_site_fract_x
_atom_site_fract_y
_atom_site_fract_z
Cd2 Cd 0.9373(2) 0.0965(5) 0.06466(19)
O1 O 0.047(3) 0.070(2) 0.945(2)
C6 C 0.1290(13) 0.199(2) 0.8704(13)
C7 C 0.1858(16) 0.1420(19) 0.8176(15)
H5 H 0.181407 0.075988 0.821475
C8 C 0.2490(13) 0.183(2) 0.7589(12)
H6 H 0.286973 0.145138 0.723577
C9 C 0.2555(12) 0.282(2) 0.7531(12)
C10 C 0.1988(15) 0.3392(19) 0.8059(16)
H7 H 0.203124 0.405238 0.802003
C11 C 0.1355(14) 0.298(2) 0.8646(14)
H8 H 0.097557 0.336090 0.899901
O2 O 0.0207(18) 0.208(2) 0.9897(17)
C17 C 0.324(4) 0.325(3) 0.699(4)
O3 O 0.368(2) 0.269(4) 0.644(2)
C18 C 0.065(3) 0.158(2) 0.930(3)
O4 O 0.325(2) 0.417(4) 0.682(2)
Cd4 Cd 0.4373(2) 0.4035(5) 0.56466(19)
Cd3 Cd 0.0627(2) 0.9035(5) 0.93534(19)
O6 O 0.868(2) 0.231(4) 0.144(2)
O7 O 0.825(2) 0.083(4) 0.182(2)
O5 O 0.953(3) 0.930(2) 0.055(2)
Cd1 Cd 0.5627(2) 0.5965(5) 0.43534(19)
O1_2 O 0.453(3) 0.570(2) 0.555(2)
C1 C 0.3790(19) 0.533(3) 0.182(2)
H1 H 0.443791 0.495659 0.187923
C2 C 0.275(2) 0.530(3) 0.0815(19)
H2 H 0.269514 0.490473 0.020367
C3 C 0.1777(17) 0.586(4) 0.0726(18)
C4 C 0.185(2) 0.646(4) 0.164(2)
H3 H 0.120539 0.683425 0.158063
C5 C 0.290(2) 0.649(3) 0.2644(19)
H4 H 0.294814 0.688612 0.325620
N1 N 0.3866(16) 0.593(3) 0.2734(15)
C6_2 C 0.3710(13) 0.699(2) 0.6296(13)
C7_2 C 0.3142(16) 0.6420(19) 0.6824(15)
H5_2 H 0.318593 0.575988 0.678525
C8_2 C 0.2510(13) 0.683(2) 0.7411(12)
H6_2 H 0.213027 0.645138 0.776423
C9_2 C 0.2445(12) 0.782(2) 0.7469(12)
C10_2 C 0.3012(15) 0.8392(19) 0.6941(16)
H7_2 H 0.296876 0.905238 0.697997
C11_2 C 0.3645(14) 0.798(2) 0.6354(14)
H8_2 H 0.402443 0.836090 0.600099
O2_2 O 0.4793(18) 0.708(2) 0.5103(17)
C17_2 C 0.176(4) 0.825(3) 0.801(4)
O3_2 O 0.132(2) 0.769(4) 0.856(2)
C18_2 C 0.435(3) 0.658(2) 0.570(3)
O4_2 O 0.175(2) 0.917(4) 0.818(2)
O5_2 O 0.547(3) 0.430(2) 0.445(2)
N5 N 0.7337(16) 0.574(4) 0.5996(16)
O6_2 O 0.632(2) 0.731(4) 0.356(2)
O7_2 O 0.675(2) 0.583(4) 0.318(2)
C12 C 0.9543(17) 0.578(4) 0.787(2)
C13 C 0.941(2) 0.529(4) 0.686(2)
C14 C 0.831(2) 0.527(3) 0.5925(18)
H10 H 0.821696 0.493948 0.525078
C15 C 0.747(2) 0.623(4) 0.700(2)
H11 H 0.682172 0.654192 0.705156
C16 C 0.857(2) 0.625(4) 0.7940(18)
H12 H 0.866250 0.657838 0.861371
C6_3 C 0.8710(13) 0.801(2) 0.1296(13)
C7_3 C 0.8142(16) 0.8580(19) 0.1824(15)
H5_3 H 0.818593 0.924012 0.178525
C8_3 C 0.7510(13) 0.817(2) 0.2411(12)
H6_3 H 0.713027 0.854862 0.276423
C9_3 C 0.7445(12) 0.718(2) 0.2469(12)
C10_3 C 0.8012(15) 0.6608(19) 0.1941(16)
H7_3 H 0.796876 0.594762 0.197997
C11_3 C 0.8645(14) 0.702(2) 0.1354(14)
H8_3 H 0.902443 0.663910 0.100099
O2_3 O 0.9793(18) 0.792(2) 0.0103(17)
C17_3 C 0.676(4) 0.675(3) 0.301(4)
C18_3 C 0.935(3) 0.842(2) 0.070(3)
C12_2 C 0.0457(17) 0.422(4) 0.213(2)
C13_2 C 0.059(2) 0.471(4) 0.314(2)
C14_2 C 0.169(2) 0.473(3) 0.4075(18)
H10_2 H 0.178304 0.506052 0.474922
N4 N 0.2663(16) 0.426(4) 0.4004(16)
C15_2 C 0.253(2) 0.377(4) 0.300(2)
H11_2 H 0.317828 0.345808 0.294844
C16_2 C 0.143(2) 0.375(4) 0.2060(18)
H12_2 H 0.133750 0.342162 0.138629
C1_2 C 0.6210(19) 0.467(3) 0.818(2)
H1_2 H 0.556209 0.504341 0.812077
C2_2 C 0.725(2) 0.470(3) 0.9185(19)
H2_2 H 0.730486 0.509527 0.979633
C3_2 C 0.8223(17) 0.414(4) 0.9274(18)
C4_2 C 0.815(2) 0.354(4) 0.836(2)
H3_2 H 0.879461 0.316575 0.841937
C5_2 C 0.710(2) 0.351(3) 0.7356(19)
H4_2 H 0.705186 0.311388 0.674380
N1_2 N 0.6134(16) 0.407(3) 0.7266(15)
C6_4 C 0.6290(13) 0.301(2) 0.3704(13)
C7_4 C 0.6858(16) 0.3580(19) 0.3176(15)
H5_4 H 0.681407 0.424012 0.321475
C8_4 C 0.7490(13) 0.317(2) 0.2589(12)
H6_4 H 0.786973 0.354862 0.223577
C9_4 C 0.7555(12) 0.218(2) 0.2531(12)
C10_4 C 0.6988(15) 0.1608(19) 0.3059(16)
H7_4 H 0.703124 0.094762 0.302003
C11_4 C 0.6355(14) 0.202(2) 0.3646(14)
H8_4 H 0.597557 0.163910 0.399901
O2_4 O 0.5207(18) 0.292(2) 0.4897(17)
C17_4 C 0.824(4) 0.175(3) 0.199(4)
C18_4 C 0.565(3) 0.342(2) 0.430(3)
C1_3 C 0.1210(19) 0.033(3) 0.318(2)
C2_3 C 0.225(2) 0.030(3) 0.4185(19)
C3_3 C 0.3223(17) 0.086(4) 0.4274(18)
C4_3 C 0.315(2) 0.146(4) 0.336(2)
H3_3 H 0.379461 0.183425 0.341937
C5_3 C 0.210(2) 0.149(3) 0.2356(19)
H4_3 H 0.205186 0.188612 0.174380
N1_3 N 0.1134(16) 0.093(3) 0.2266(15)
N2 N 0.438(3) 0.083(2) 0.526(3)
N3 N 0.427(3) 0.068(5) 0.613(3)
C12_3 C 0.5457(17) 0.078(4) 0.713(2)
C13_3 C 0.559(2) 0.029(4) 0.814(2)
C14_3 C 0.669(2) 0.027(3) 0.9075(18)
N4_2 N 0.7663(16) 0.074(4) 0.9004(16)
C15_3 C 0.753(2) 0.123(4) 0.800(2)
H11_3 H 0.817828 0.154192 0.794844
C16_3 C 0.643(2) 0.125(4) 0.7060(18)
H12_3 H 0.633750 0.157838 0.638629
H1_3 H 0.056209 0.995659 0.312077
H2_3 H 0.230486 0.990473 0.479633
H9 H 0.494225 0.997593 0.818710
H10_3 H 0.678304 0.993948 0.974922
N2_2 N 0.062(3) 0.583(2) 0.974(3)
N3_2 N 0.073(3) 0.568(5) 0.887(3)
H9_2 H 0.005775 0.497593 0.681290
N5_2 N 0.2337(16) 0.926(4) 0.0996(16)
C1_4 C 0.8790(19) 0.967(3) 0.682(2)
C2_4 C 0.775(2) 0.970(3) 0.5815(19)
C3_4 C 0.6777(17) 0.914(4) 0.5726(18)
C4_4 C 0.685(2) 0.854(4) 0.664(2)
H3_4 H 0.620539 0.816575 0.658063
C5_4 C 0.790(2) 0.851(3) 0.7644(19)
H4_4 H 0.794814 0.811388 0.825620
N1_4 N 0.8866(16) 0.907(3) 0.7734(15)
N2_3 N 0.562(3) 0.917(2) 0.474(3)
N3_3 N 0.573(3) 0.932(5) 0.387(3)
C12_4 C 0.4543(17) 0.922(4) 0.287(2)
C13_4 C 0.441(2) 0.971(4) 0.186(2)
C14_4 C 0.331(2) 0.973(3) 0.0925(18)
C15_4 C 0.247(2) 0.877(4) 0.200(2)
H11_4 H 0.182172 0.845808 0.205156
C16_4 C 0.357(2) 0.875(4) 0.2940(18)
H12_4 H 0.366250 0.842162 0.361371
H1_4 H 0.943791 0.004341 0.687923
H2_4 H 0.769514 0.009527 0.520367
H9_3 H 0.505775 0.002407 0.181290
H10_4 H 0.321696 0.006052 0.025078
N2_4 N 0.938(3) 0.417(2) 0.026(3)
N3_4 N 0.927(3) 0.432(5) 0.113(3)
H9_4 H 0.994225 0.502407 0.318710
loop_
_geom_bond_atom_site_label_1
_geom_bond_atom_site_label_2
_geom_bond_site_symmetry_1
_geom_bond_site_symmetry_2
O1 C18 1_555 1_555
C6 C7 1_555 1_555
C7 H5 1_555 1_555
C8 C7 1_555 1_555
H6 C8 1_555 1_555
C9 C8 1_555 1_555
C10 C9 1_555 1_555
H7 C10 1_555 1_555
C11 C6 1_555 1_555
H8 C11 1_555 1_555
C17 C9 1_555 1_555
O3 C17 1_555 1_555
C18 C6 1_555 1_555
O4 C17 1_555 1_555
Cd4 O3 1_555 1_555
C10 C11 1_555 1_555
O2 C18 1_555 1_555
O4 Cd4 1_555 1_555
O6 Cd2 1_555 1_555
O7 Cd2 1_555 1_555
Cd1 O1_2 1_555 1_555
O1_2 C18_2 1_555 1_555
C1 H1 1_555 1_555
C2 C1 1_555 1_555
H2 C2 1_555 1_555
C3 C2 1_555 1_555
C4 C3 1_555 1_555
H3 C4 1_555 1_555
C5 C4 1_555 1_555
H4 C5 1_555 1_555
N1 Cd1 1_555 1_555
C6_2 C7_2 1_555 1_555
C7_2 H5_2 1_555 1_555
C8_2 C7_2 1_555 1_555
H6_2 C8_2 1_555 1_555
C9_2 C8_2 1_555 1_555
C10_2 C9_2 1_555 1_555
H7_2 C10_2 1_555 1_555
C11_2 C6_2 1_555 1_555
H8_2 C11_2 1_555 1_555
O2_2 Cd1 1_555 1_555
C17_2 C9_2 1_555 1_555
O3_2 C17_2 1_555 1_555
C18_2 C6_2 1_555 1_555
O4_2 C17_2 1_555 1_555
Cd4 O1_2 1_555 1_555
Cd3 O3_2 1_555 1_555
O5_2 Cd1 1_555 1_555
N5 Cd1 1_555 1_555
O6_2 Cd1 1_555 1_555
O7_2 Cd1 1_555 1_555
C1 N1 1_555 1_555
C5 N1 1_555 1_555
C10_2 C11_2 1_555 1_555
O2_2 C18_2 1_555 1_555
O4_2 Cd3 1_555 1_555
Cd4 O5_2 1_555 1_555
C13 C12 1_555 1_555
C14 C13 1_555 1_555
H10 C14 1_555 1_555
N5 C14 1_555 1_555
C15 N5 1_555 1_555
H11 C15 1_555 1_555
C16 C12 1_555 1_555
H12 C16 1_555 1_555
C15 C16 1_555 1_555
O5 C18_3 1_555 1_555
C6_3 C7_3 1_555 1_555
C7_3 H5_3 1_555 1_555
C8_3 C7_3 1_555 1_555
H6_3 C8_3 1_555 1_555
C9_3 C8_3 1_555 1_555
C10_3 C9_3 1_555 1_555
H7_3 C10_3 1_555 1_555
C11_3 C6_3 1_555 1_555
H8_3 C11_3 1_555 1_555
C17_3 C9_3 1_555 1_555
O6_2 C17_3 1_555 1_555
C18_3 C6_3 1_555 1_555
O7_2 C17_3 1_555 1_555
C10_3 C11_3 1_555 1_555
O2_3 C18_3 1_555 1_555
C13_2 C12_2 1_555 1_555
C14_2 C13_2 1_555 1_555
H10_2 C14_2 1_555 1_555
N4 C14_2 1_555 1_555
C15_2 N4 1_555 1_555
H11_2 C15_2 1_555 1_555
C16_2 C12_2 1_555 1_555
H12_2 C16_2 1_555 1_555
Cd4 N4 1_555 1_555
C15_2 C16_2 1_555 1_555
O5_2 C18_4 1_555 1_555
C1_2 H1_2 1_555 1_555
C2_2 C1_2 1_555 1_555
H2_2 C2_2 1_555 1_555
C3_2 C2_2 1_555 1_555
C4_2 C3_2 1_555 1_555
H3_2 C4_2 1_555 1_555
C5_2 C4_2 1_555 1_555
H4_2 C5_2 1_555 1_555
N1_2 Cd4 1_555 1_555
C6_4 C7_4 1_555 1_555
C7_4 H5_4 1_555 1_555
C8_4 C7_4 1_555 1_555
H6_4 C8_4 1_555 1_555
C9_4 C8_4 1_555 1_555
C10_4 C9_4 1_555 1_555
H7_4 C10_4 1_555 1_555
C11_4 C6_4 1_555 1_555
H8_4 C11_4 1_555 1_555
O2_4 Cd4 1_555 1_555
C17_4 C9_4 1_555 1_555
O6 C17_4 1_555 1_555
C18_4 C6_4 1_555 1_555
O7 C17_4 1_555 1_555
C1_2 N1_2 1_555 1_555
C5_2 N1_2 1_555 1_555
C10_4 C11_4 1_555 1_555
O2_4 C18_4 1_555 1_555
C2_3 C1_3 1_555 1_555
C3_3 C2_3 1_555 1_555
C4_3 C3_3 1_555 1_555
H3_3 C4_3 1_555 1_555
C5_3 C4_3 1_555 1_555
H4_3 C5_3 1_555 1_555
N2 C3_3 1_555 1_555
N3 N2 1_555 1_555
C12_3 N3 1_555 1_555
C13_3 C12_3 1_555 1_555
C14_3 C13_3 1_555 1_555
N4_2 C14_3 1_555 1_555
C15_3 N4_2 1_555 1_555
H11_3 C15_3 1_555 1_555
C16_3 C12_3 1_555 1_555
H12_3 C16_3 1_555 1_555
C1_3 N1_3 1_555 1_555
C5_3 N1_3 1_555 1_555
C15_3 C16_3 1_555 1_555
N3_2 N2_2 1_555 1_555
C2_4 C1_4 1_555 1_555
C3_4 C2_4 1_555 1_555
C4_4 C3_4 1_555 1_555
H3_4 C4_4 1_555 1_555
C5_4 C4_4 1_555 1_555
H4_4 C5_4 1_555 1_555
N2_3 C3_4 1_555 1_555
N3_3 N2_3 1_555 1_555
C12_4 N3_3 1_555 1_555
C13_4 C12_4 1_555 1_555
C14_4 C13_4 1_555 1_555
N5_2 C14_4 1_555 1_555
C15_4 N5_2 1_555 1_555
H11_4 C15_4 1_555 1_555
C16_4 C12_4 1_555 1_555
H12_4 C16_4 1_555 1_555
C1_4 N1_4 1_555 1_555
C5_4 N1_4 1_555 1_555
C15_4 C16_4 1_555 1_555
N3_4 N2_4 1_555 1_555

#END
