
###############################################################################
#
# This file contains modified crystal structure data generated from the
# MOF subset of the Cambridge Structural Database (CSD) v543 
# hosted by the Cambridge Crystallographic Data Centre (CCDC).
#
# This work is licensed under the Creative Commons
# Attribution-NonCommercial-ShareAlike 4.0 International License.
# To view a copy of this license, visit
# http://creativecommons.org/licenses/by-nc-sa/4.0/
# or send a letter to
# Creative Commons, PO Box 1866, Mountain View, CA 94042, USA.
#
# CIF created using the CSD Python API on 29 September 2022
# The structure has been converted into the P1 space group
# The structure has a 3D framework
# The original CSD entry OVUFAP10 is in the monoclinic crystal system
# The framework has been calculated to contain at least 10.0% void space
# The void calculation uses a probe of radius 1.32A, grid spacing 0.4
#
###############################################################################

data_OVUFAP10
_chemical_formula_moiety         '(C72 H48 Cd2 N16 O16)n'
_symmetry_cell_setting           triclinic
_symmetry_space_group_name_H-M   'P 1'
_symmetry_Int_Tables_number      1
_space_group_name_Hall           'P 1'
loop_
_symmetry_equiv_pos_site_id
_symmetry_equiv_pos_as_xyz
1 x,y,z
_cell_length_a                   11.600(4)
_cell_length_b                   13.487(18)
_cell_length_c                   13.080(5)
_cell_angle_alpha                90
_cell_angle_beta                 114.57(4)
_cell_angle_gamma                90
_cell_volume                     1861.07
loop_
_atom_site_label
_atom_site_type_symbol
_atom_site_fract_x
_atom_site_fract_y
_atom_site_fract_z
Cd4 Cd 0.9413(3) 0.0962(6) 0.0699(3)
O1 O 0.058(3) 0.086(3) 0.955(3)
O2 O 0.036(2) 0.208(3) 0.998(2)
C1 C 0.091(5) 0.163(2) 0.965(4)
C4 C 0.139(2) 0.207(2) 0.885(2)
C7 C 0.190(2) 0.147(2) 0.828(2)
C8 C 0.151(3) 0.310(2) 0.883(2)
H5 H 0.181763 0.078320 0.829934
C10 C 0.252(2) 0.189(2) 0.768(2)
C11 C 0.213(3) 0.352(2) 0.822(3)
H6 H 0.117352 0.350024 0.921036
H7 H 0.285308 0.148499 0.729378
C12 C 0.263(2) 0.291(2) 0.765(2)
H8 H 0.220897 0.420201 0.820478
C13 C 0.332(5) 0.336(3) 0.702(5)
O6 O 0.378(3) 0.292(4) 0.657(3)
O7 O 0.324(4) 0.415(3) 0.675(3)
Cd3 Cd 0.4413(3) 0.4038(6) 0.5699(3)
Cd2 Cd 0.0587(3) 0.9038(6) 0.9301(3)
O3 O 0.878(3) 0.208(4) 0.157(3)
O4 O 0.824(4) 0.085(3) 0.175(3)
O5 O 0.942(3) 0.914(3) 0.045(3)
Cd1 Cd 0.5587(3) 0.5962(6) 0.4301(3)
O1_2 O 0.442(3) 0.586(3) 0.545(3)
N1 N 0.381(3) 0.567(4) 0.275(2)
O2_2 O 0.464(2) 0.708(3) 0.502(2)
N2 N 0.748(3) 0.595(5) 0.588(3)
O3_2 O 0.622(3) 0.708(4) 0.343(3)
O4_2 O 0.676(4) 0.585(3) 0.325(3)
C1_2 C 0.409(5) 0.663(2) 0.535(4)
C2 C 0.387(3) 0.521(5) 0.182(3)
C3 C 0.271(4) 0.616(4) 0.264(3)
C4_2 C 0.361(2) 0.707(2) 0.615(2)
H1 H 0.460672 0.488546 0.189698
C5 C 0.283(4) 0.523(5) 0.079(3)
C6 C 0.167(3) 0.618(5) 0.161(3)
H2 H 0.266796 0.647094 0.326056
C7_2 C 0.310(2) 0.647(2) 0.672(2)
C8_2 C 0.349(3) 0.810(2) 0.617(2)
H3 H 0.286644 0.491978 0.017135
C9 C 0.172(3) 0.572(5) 0.068(2)
H4 H 0.092770 0.650524 0.153492
H5_2 H 0.318237 0.578320 0.670066
C10_2 C 0.248(2) 0.689(2) 0.732(2)
C11_2 C 0.287(3) 0.852(2) 0.678(3)
H6_2 H 0.382648 0.850024 0.578964
H7_2 H 0.214692 0.648499 0.770622
C12_2 C 0.237(2) 0.791(2) 0.735(2)
H8_2 H 0.279103 0.920201 0.679522
C13_2 C 0.168(5) 0.836(3) 0.798(5)
O5_2 O 0.558(3) 0.414(3) 0.455(3)
O6_2 O 0.122(3) 0.792(4) 0.843(3)
O7_2 O 0.176(4) 0.915(3) 0.825(3)
C14 C 0.972(3) 0.568(5) 0.780(3)
C15 C 0.951(3) 0.516(5) 0.682(3)
C16 C 0.881(4) 0.634(5) 0.782(3)
C17 C 0.839(4) 0.530(5) 0.586(3)
C18 C 0.769(4) 0.647(5) 0.686(4)
H10 H 0.894898 0.668350 0.847369
H11 H 0.825560 0.494857 0.520606
H12 H 0.708161 0.691406 0.687886
O2_3 O 0.964(2) 0.792(3) 0.002(2)
C1_3 C 0.909(5) 0.837(2) 0.035(4)
C4_3 C 0.861(2) 0.793(2) 0.115(2)
C7_3 C 0.810(2) 0.853(2) 0.172(2)
C8_3 C 0.849(3) 0.690(2) 0.117(2)
H5_3 H 0.818237 0.921680 0.170066
C10_3 C 0.748(2) 0.811(2) 0.232(2)
C11_3 C 0.787(3) 0.648(2) 0.178(3)
H6_3 H 0.882648 0.649976 0.078964
H7_3 H 0.714692 0.851501 0.270622
C12_3 C 0.737(2) 0.709(2) 0.235(2)
H8_3 H 0.779103 0.579799 0.179522
C13_3 C 0.668(5) 0.664(3) 0.298(5)
C14_2 C 0.028(3) 0.432(5) 0.220(3)
C15_2 C 0.049(3) 0.484(5) 0.318(3)
C16_2 C 0.119(4) 0.366(5) 0.218(3)
C17_2 C 0.161(4) 0.470(5) 0.414(3)
C18_2 C 0.231(4) 0.353(5) 0.314(4)
H10_2 H 0.105102 0.331650 0.152631
H11_2 H 0.174440 0.505143 0.479394
H12_2 H 0.291839 0.308594 0.312114
N5 N 0.252(3) 0.405(5) 0.412(3)
N1_2 N 0.619(3) 0.433(4) 0.725(2)
O2_4 O 0.536(2) 0.292(3) 0.498(2)
C1_4 C 0.591(5) 0.337(2) 0.465(4)
C2_2 C 0.613(3) 0.479(5) 0.818(3)
C3_2 C 0.729(4) 0.384(4) 0.736(3)
C4_4 C 0.639(2) 0.293(2) 0.385(2)
H1_2 H 0.539328 0.511454 0.810302
C5_2 C 0.717(4) 0.477(5) 0.921(3)
C6_2 C 0.833(3) 0.382(5) 0.839(3)
H2_2 H 0.733204 0.352906 0.673944
C7_4 C 0.690(2) 0.353(2) 0.328(2)
C8_4 C 0.651(3) 0.190(2) 0.383(2)
H3_2 H 0.713356 0.508022 0.982865
C9_2 C 0.828(3) 0.428(5) 0.932(2)
H4_2 H 0.907230 0.349476 0.846508
H5_4 H 0.681763 0.421680 0.329934
C10_4 C 0.752(2) 0.311(2) 0.268(2)
C11_4 C 0.713(3) 0.148(2) 0.322(3)
H6_4 H 0.617352 0.149976 0.421036
H7_4 H 0.785308 0.351501 0.229378
C12_4 C 0.763(2) 0.209(2) 0.265(2)
H8_4 H 0.720897 0.079799 0.320478
C13_4 C 0.832(5) 0.164(3) 0.202(5)
N1_3 N 0.119(3) 0.067(4) 0.225(2)
C2_3 C 0.113(3) 0.021(5) 0.318(3)
C3_3 C 0.229(4) 0.116(4) 0.236(3)
C5_3 C 0.217(4) 0.023(5) 0.421(3)
C6_3 C 0.333(3) 0.118(5) 0.339(3)
H2_3 H 0.233204 0.147094 0.173944
C9_3 C 0.328(3) 0.072(5) 0.432(2)
H4_3 H 0.407230 0.150524 0.346508
N3 N 0.447(4) 0.088(2) 0.542(3)
N4 N 0.417(5) 0.062(7) 0.627(4)
C14_3 C 0.528(3) 0.068(5) 0.720(3)
C15_3 C 0.549(3) 0.016(5) 0.818(3)
C16_3 C 0.619(4) 0.134(5) 0.718(3)
C17_3 C 0.661(4) 0.030(5) 0.914(3)
C18_3 C 0.731(4) 0.147(5) 0.814(4)
H10_3 H 0.605102 0.168350 0.652631
H12_3 H 0.791839 0.191406 0.812114
N5_2 N 0.752(3) 0.095(5) 0.912(3)
H1_3 H 0.039328 0.988546 0.310302
H3_3 H 0.213356 0.991978 0.482865
H9 H 0.487702 0.971799 0.819913
H11_3 H 0.674440 0.994857 0.979394
N3_2 N 0.053(4) 0.588(2) 0.958(3)
N4_2 N 0.083(5) 0.562(7) 0.873(4)
H9_2 H 0.012298 0.471799 0.680087
N2_2 N 0.248(3) 0.905(5) 0.088(3)
N1_4 N 0.881(3) 0.933(4) 0.775(2)
C2_4 C 0.887(3) 0.979(5) 0.682(3)
C3_4 C 0.771(4) 0.884(4) 0.764(3)
C5_4 C 0.783(4) 0.977(5) 0.579(3)
C6_4 C 0.667(3) 0.882(5) 0.661(3)
H2_4 H 0.766796 0.852906 0.826056
C9_4 C 0.672(3) 0.928(5) 0.568(2)
H4_4 H 0.592770 0.849476 0.653492
N3_3 N 0.553(4) 0.912(2) 0.458(3)
N4_3 N 0.583(5) 0.938(7) 0.373(4)
C14_4 C 0.472(3) 0.932(5) 0.280(3)
C15_4 C 0.451(3) 0.984(5) 0.182(3)
C16_4 C 0.381(4) 0.866(5) 0.282(3)
C17_4 C 0.339(4) 0.970(5) 0.086(3)
C18_4 C 0.269(4) 0.853(5) 0.186(4)
H10_4 H 0.394898 0.831650 0.347369
H12_4 H 0.208161 0.808594 0.187886
H1_4 H 0.960672 0.011454 0.689698
H3_4 H 0.786644 0.008022 0.517135
H9_3 H 0.512298 0.028201 0.180087
H11_4 H 0.325560 0.005143 0.020606
N3_4 N 0.947(4) 0.412(2) 0.042(3)
N4_4 N 0.917(5) 0.438(7) 0.127(4)
H9_4 H 0.987702 0.528201 0.319913
loop_
_geom_bond_atom_site_label_1
_geom_bond_atom_site_label_2
_geom_bond_site_symmetry_1
_geom_bond_site_symmetry_2
O1 C1 1_555 1_555
C1 O2 1_555 1_555
C4 C1 1_555 1_555
C7 C4 1_555 1_555
C8 C4 1_555 1_555
H5 C7 1_555 1_555
C10 C7 1_555 1_555
C11 C8 1_555 1_555
H6 C8 1_555 1_555
H7 C10 1_555 1_555
C12 C10 1_555 1_555
H8 C11 1_555 1_555
C13 C12 1_555 1_555
O6 C13 1_555 1_555
O7 C13 1_555 1_555
Cd3 O6 1_555 1_555
C11 C12 1_555 1_555
O7 Cd3 1_555 1_555
O3 Cd4 1_555 1_555
O4 Cd4 1_555 1_555
Cd1 O1_2 1_555 1_555
O1_2 C1_2 1_555 1_555
N1 Cd1 1_555 1_555
O2_2 Cd1 1_555 1_555
N2 Cd1 1_555 1_555
O3_2 Cd1 1_555 1_555
O4_2 Cd1 1_555 1_555
C1_2 O2_2 1_555 1_555
C2 N1 1_555 1_555
C3 N1 1_555 1_555
C4_2 C1_2 1_555 1_555
H1 C2 1_555 1_555
C5 C2 1_555 1_555
C6 C3 1_555 1_555
H2 C3 1_555 1_555
C7_2 C4_2 1_555 1_555
C8_2 C4_2 1_555 1_555
H3 C5 1_555 1_555
C9 C5 1_555 1_555
H4 C6 1_555 1_555
H5_2 C7_2 1_555 1_555
C10_2 C7_2 1_555 1_555
C11_2 C8_2 1_555 1_555
H6_2 C8_2 1_555 1_555
H7_2 C10_2 1_555 1_555
C12_2 C10_2 1_555 1_555
H8_2 C11_2 1_555 1_555
C13_2 C12_2 1_555 1_555
O5_2 Cd1 1_555 1_555
Cd3 O1_2 1_555 1_555
O6_2 C13_2 1_555 1_555
O7_2 C13_2 1_555 1_555
Cd2 O6_2 1_555 1_555
C6 C9 1_555 1_555
C11_2 C12_2 1_555 1_555
O5_2 Cd3 1_555 1_555
O7_2 Cd2 1_555 1_555
C15 C14 1_555 1_555
C16 C14 1_555 1_555
C17 C15 1_555 1_555
C18 C16 1_555 1_555
H10 C16 1_555 1_555
H11 C17 1_555 1_555
H12 C18 1_555 1_555
N2 C17 1_555 1_555
C18 N2 1_555 1_555
O5 C1_3 1_555 1_555
C1_3 O2_3 1_555 1_555
C4_3 C1_3 1_555 1_555
C7_3 C4_3 1_555 1_555
C8_3 C4_3 1_555 1_555
H5_3 C7_3 1_555 1_555
C10_3 C7_3 1_555 1_555
C11_3 C8_3 1_555 1_555
H6_3 C8_3 1_555 1_555
H7_3 C10_3 1_555 1_555
C12_3 C10_3 1_555 1_555
H8_3 C11_3 1_555 1_555
C13_3 C12_3 1_555 1_555
O3_2 C13_3 1_555 1_555
O4_2 C13_3 1_555 1_555
C11_3 C12_3 1_555 1_555
C15_2 C14_2 1_555 1_555
C16_2 C14_2 1_555 1_555
C17_2 C15_2 1_555 1_555
C18_2 C16_2 1_555 1_555
H10_2 C16_2 1_555 1_555
H11_2 C17_2 1_555 1_555
H12_2 C18_2 1_555 1_555
N5 C17_2 1_555 1_555
Cd3 N5 1_555 1_555
C18_2 N5 1_555 1_555
O5_2 C1_4 1_555 1_555
N1_2 Cd3 1_555 1_555
O2_4 Cd3 1_555 1_555
C1_4 O2_4 1_555 1_555
C2_2 N1_2 1_555 1_555
C3_2 N1_2 1_555 1_555
C4_4 C1_4 1_555 1_555
H1_2 C2_2 1_555 1_555
C5_2 C2_2 1_555 1_555
C6_2 C3_2 1_555 1_555
H2_2 C3_2 1_555 1_555
C7_4 C4_4 1_555 1_555
C8_4 C4_4 1_555 1_555
H3_2 C5_2 1_555 1_555
C9_2 C5_2 1_555 1_555
H4_2 C6_2 1_555 1_555
H5_4 C7_4 1_555 1_555
C10_4 C7_4 1_555 1_555
C11_4 C8_4 1_555 1_555
H6_4 C8_4 1_555 1_555
H7_4 C10_4 1_555 1_555
C12_4 C10_4 1_555 1_555
H8_4 C11_4 1_555 1_555
C13_4 C12_4 1_555 1_555
O3 C13_4 1_555 1_555
O4 C13_4 1_555 1_555
C6_2 C9_2 1_555 1_555
C11_4 C12_4 1_555 1_555
C2_3 N1_3 1_555 1_555
C3_3 N1_3 1_555 1_555
C5_3 C2_3 1_555 1_555
C6_3 C3_3 1_555 1_555
H2_3 C3_3 1_555 1_555
C9_3 C5_3 1_555 1_555
H4_3 C6_3 1_555 1_555
N3 C9_3 1_555 1_555
N4 N3 1_555 1_555
C14_3 N4 1_555 1_555
C15_3 C14_3 1_555 1_555
C16_3 C14_3 1_555 1_555
C17_3 C15_3 1_555 1_555
C18_3 C16_3 1_555 1_555
H10_3 C16_3 1_555 1_555
H12_3 C18_3 1_555 1_555
N5_2 C17_3 1_555 1_555
C6_3 C9_3 1_555 1_555
C18_3 N5_2 1_555 1_555
N4_2 N3_2 1_555 1_555
C2_4 N1_4 1_555 1_555
C3_4 N1_4 1_555 1_555
C5_4 C2_4 1_555 1_555
C6_4 C3_4 1_555 1_555
H2_4 C3_4 1_555 1_555
C9_4 C5_4 1_555 1_555
H4_4 C6_4 1_555 1_555
N3_3 C9_4 1_555 1_555
N4_3 N3_3 1_555 1_555
C14_4 N4_3 1_555 1_555
C15_4 C14_4 1_555 1_555
C16_4 C14_4 1_555 1_555
C17_4 C15_4 1_555 1_555
C18_4 C16_4 1_555 1_555
H10_4 C16_4 1_555 1_555
H12_4 C18_4 1_555 1_555
N2_2 C17_4 1_555 1_555
C6_4 C9_4 1_555 1_555
C18_4 N2_2 1_555 1_555
N4_4 N3_4 1_555 1_555

#END
