
###############################################################################
#
# This file contains modified crystal structure data generated from the
# MOF subset of the Cambridge Structural Database (CSD) v543 
# hosted by the Cambridge Crystallographic Data Centre (CCDC).
#
# This work is licensed under the Creative Commons
# Attribution-NonCommercial-ShareAlike 4.0 International License.
# To view a copy of this license, visit
# http://creativecommons.org/licenses/by-nc-sa/4.0/
# or send a letter to
# Creative Commons, PO Box 1866, Mountain View, CA 94042, USA.
#
# CIF created using the CSD Python API on 29 September 2022
# The structure has been converted into the P1 space group
# The structure has a 3D framework
# The original CSD entry OVUFAP16 is in the monoclinic crystal system
# The framework has been calculated to contain at least 10.0% void space
# The void calculation uses a probe of radius 1.32A, grid spacing 0.4
#
###############################################################################

data_OVUFAP16
_chemical_formula_moiety         '(C72 H48 Cd2 N16 O16)n'
_symmetry_cell_setting           triclinic
_symmetry_space_group_name_H-M   'P 1'
_symmetry_Int_Tables_number      1
_space_group_name_Hall           'P 1'
loop_
_symmetry_equiv_pos_site_id
_symmetry_equiv_pos_as_xyz
1 x,y,z
_cell_length_a                   12.132(3)
_cell_length_b                   13.893(18)
_cell_length_c                   12.591(2)
_cell_angle_alpha                90
_cell_angle_beta                 113.69(2)
_cell_angle_gamma                90
_cell_volume                     1943.38
loop_
_atom_site_label
_atom_site_type_symbol
_atom_site_fract_x
_atom_site_fract_y
_atom_site_fract_z
Cd2 Cd 0.93817(17) 0.0974(4) 0.06501(16)
O1 O 0.050(2) 0.070(4) 0.942(2)
C6 C 0.1330(11) 0.1983(18) 0.8757(11)
C7 C 0.1879(14) 0.1401(16) 0.8214(14)
H5 H 0.182834 0.073454 0.825053
C8 C 0.2505(12) 0.1815(18) 0.7617(12)
H6 H 0.287265 0.142535 0.725303
C9 C 0.2581(11) 0.2810(18) 0.7562(11)
C10 C 0.2032(14) 0.3392(17) 0.8105(15)
H7 H 0.208293 0.405839 0.806913
C11 C 0.1406(12) 0.2978(17) 0.8703(12)
H8 H 0.103860 0.336760 0.906664
O2 O 0.0197(18) 0.206(4) 0.9901(17)
C17 C 0.321(4) 0.327(3) 0.691(3)
O3 O 0.3671(17) 0.268(3) 0.6410(16)
C18 C 0.065(3) 0.156(3) 0.938(3)
O4 O 0.324(3) 0.419(4) 0.679(2)
Cd4 Cd 0.43817(17) 0.4026(4) 0.56501(16)
Cd3 Cd 0.06183(17) 0.9026(4) 0.93499(16)
O6 O 0.8671(17) 0.232(3) 0.1410(16)
O7 O 0.824(3) 0.081(4) 0.179(2)
O5 O 0.950(2) 0.930(4) 0.058(2)
Cd1 Cd 0.56183(17) 0.5974(4) 0.43499(16)
O1_2 O 0.450(2) 0.570(4) 0.558(2)
C1 C 0.3805(15) 0.525(2) 0.1819(17)
H1 H 0.446278 0.487051 0.188586
C2 C 0.2768(18) 0.523(3) 0.0800(15)
H2 H 0.273215 0.484508 0.018495
C3 C 0.1785(15) 0.580(3) 0.0701(14)
C4 C 0.1839(15) 0.638(3) 0.162(2)
H3 H 0.118132 0.675325 0.155424
C5 C 0.2876(17) 0.639(3) 0.2640(17)
H4 H 0.291193 0.677870 0.325515
N1 N 0.3859(12) 0.583(2) 0.2739(12)
C6_2 C 0.3670(11) 0.6983(18) 0.6243(11)
C7_2 C 0.3121(14) 0.6401(16) 0.6786(14)
H5_2 H 0.317166 0.573454 0.674947
C8_2 C 0.2495(12) 0.6815(18) 0.7383(12)
H6_2 H 0.212735 0.642535 0.774697
C9_2 C 0.2419(11) 0.7810(18) 0.7438(11)
C10_2 C 0.2968(14) 0.8392(17) 0.6895(15)
H7_2 H 0.291707 0.905839 0.693087
C11_2 C 0.3594(12) 0.7978(17) 0.6297(12)
H8_2 H 0.396140 0.836760 0.593336
O2_2 O 0.4803(18) 0.706(4) 0.5099(17)
C17_2 C 0.179(4) 0.827(3) 0.809(3)
O3_2 O 0.1329(17) 0.768(3) 0.8590(16)
C18_2 C 0.435(3) 0.656(3) 0.562(3)
O4_2 O 0.176(3) 0.919(4) 0.821(2)
O5_2 O 0.550(2) 0.430(4) 0.442(2)
N5 N 0.7343(12) 0.578(3) 0.5962(12)
O6_2 O 0.6329(17) 0.732(3) 0.3590(16)
O7_2 O 0.676(3) 0.581(4) 0.321(2)
C12 C 0.9567(13) 0.579(3) 0.7835(16)
C13 C 0.9411(16) 0.527(3) 0.6841(19)
C14 C 0.8299(18) 0.526(3) 0.5905(15)
H10 H 0.819471 0.491579 0.523985
C15 C 0.7499(15) 0.630(3) 0.6956(16)
H11 H 0.685959 0.664401 0.699478
C16 C 0.8611(18) 0.630(3) 0.7893(15)
H12 H 0.871564 0.664914 0.855789
C6_3 C 0.8670(11) 0.8017(18) 0.1243(11)
C7_3 C 0.8121(14) 0.8599(16) 0.1786(14)
H5_3 H 0.817166 0.926546 0.174947
C8_3 C 0.7495(12) 0.8185(18) 0.2383(12)
H6_3 H 0.712735 0.857465 0.274697
C9_3 C 0.7419(11) 0.7190(18) 0.2438(11)
C10_3 C 0.7968(14) 0.6608(17) 0.1895(15)
H7_3 H 0.791707 0.594161 0.193087
C11_3 C 0.8594(12) 0.7022(17) 0.1297(12)
H8_3 H 0.896140 0.663240 0.093336
O2_3 O 0.9803(18) 0.794(4) 0.0099(17)
C17_3 C 0.679(4) 0.673(3) 0.309(3)
C18_3 C 0.935(3) 0.844(3) 0.062(3)
C12_2 C 0.0433(13) 0.421(3) 0.2165(16)
C13_2 C 0.0589(16) 0.473(3) 0.3159(19)
C14_2 C 0.1701(18) 0.474(3) 0.4095(15)
H10_2 H 0.180529 0.508421 0.476015
N4 N 0.2657(12) 0.422(3) 0.4038(12)
C15_2 C 0.2501(15) 0.370(3) 0.3044(16)
H11_2 H 0.314041 0.335599 0.300522
C16_2 C 0.1389(18) 0.370(3) 0.2107(15)
H12_2 H 0.128436 0.335086 0.144211
C1_2 C 0.6195(15) 0.475(2) 0.8181(17)
H1_2 H 0.553722 0.512949 0.811414
C2_2 C 0.7232(18) 0.477(3) 0.9200(15)
H2_2 H 0.726785 0.515492 0.981505
C3_2 C 0.8215(15) 0.420(3) 0.9299(14)
C4_2 C 0.8161(15) 0.362(3) 0.838(2)
H3_2 H 0.881868 0.324675 0.844576
C5_2 C 0.7124(17) 0.361(3) 0.7360(17)
H4_2 H 0.708807 0.322130 0.674485
N1_2 N 0.6141(12) 0.417(2) 0.7261(12)
C6_4 C 0.6330(11) 0.3017(18) 0.3757(11)
C7_4 C 0.6879(14) 0.3599(16) 0.3214(14)
H5_4 H 0.682834 0.426546 0.325053
C8_4 C 0.7505(12) 0.3185(18) 0.2617(12)
H6_4 H 0.787265 0.357465 0.225303
C9_4 C 0.7581(11) 0.2190(18) 0.2562(11)
C10_4 C 0.7032(14) 0.1608(17) 0.3105(15)
H7_4 H 0.708293 0.094161 0.306913
C11_4 C 0.6406(12) 0.2022(17) 0.3703(12)
H8_4 H 0.603860 0.163240 0.406664
O2_4 O 0.5197(18) 0.294(4) 0.4901(17)
C17_4 C 0.821(4) 0.173(3) 0.191(3)
C18_4 C 0.565(3) 0.344(3) 0.438(3)
C1_3 C 0.1195(15) 0.025(2) 0.3181(17)
C2_3 C 0.2232(18) 0.023(3) 0.4200(15)
C3_3 C 0.3215(15) 0.080(3) 0.4299(14)
C4_3 C 0.3161(15) 0.138(3) 0.338(2)
H3_3 H 0.381868 0.175325 0.344576
C5_3 C 0.2124(17) 0.139(3) 0.2360(17)
H4_3 H 0.208807 0.177870 0.174485
N1_3 N 0.1141(12) 0.083(2) 0.2261(12)
N2 N 0.440(2) 0.0830(17) 0.531(2)
N3 N 0.424(2) 0.051(5) 0.617(2)
C12_3 C 0.5433(13) 0.079(3) 0.7165(16)
C13_3 C 0.5589(16) 0.027(3) 0.8159(19)
C14_3 C 0.6701(18) 0.026(3) 0.9095(15)
N4_2 N 0.7657(12) 0.078(3) 0.9038(12)
C15_3 C 0.7501(15) 0.130(3) 0.8044(16)
H11_3 H 0.814041 0.164401 0.800522
C16_3 C 0.6389(18) 0.130(3) 0.7107(15)
H12_3 H 0.628436 0.164914 0.644211
H1_3 H 0.053722 0.987051 0.311414
H2_3 H 0.226785 0.984508 0.481505
H9 H 0.494924 0.992091 0.819706
H10_3 H 0.680529 0.991579 0.976015
N2_2 N 0.060(2) 0.5830(17) 0.969(2)
N3_2 N 0.076(2) 0.551(5) 0.883(2)
H9_2 H 0.005076 0.492091 0.680294
N5_2 N 0.2343(12) 0.922(3) 0.0962(12)
C1_4 C 0.8805(15) 0.975(2) 0.6819(17)
C2_4 C 0.7768(18) 0.977(3) 0.5800(15)
C3_4 C 0.6785(15) 0.920(3) 0.5701(14)
C4_4 C 0.6839(15) 0.862(3) 0.662(2)
H3_4 H 0.618132 0.824675 0.655424
C5_4 C 0.7876(17) 0.861(3) 0.7640(17)
H4_4 H 0.791193 0.822130 0.825515
N1_4 N 0.8859(12) 0.917(2) 0.7739(12)
N2_3 N 0.560(2) 0.9170(17) 0.469(2)
N3_3 N 0.576(2) 0.949(5) 0.383(2)
C12_4 C 0.4567(13) 0.921(3) 0.2835(16)
C13_4 C 0.4411(16) 0.973(3) 0.1841(19)
C14_4 C 0.3299(18) 0.974(3) 0.0905(15)
C15_4 C 0.2499(15) 0.870(3) 0.1956(16)
H11_4 H 0.185959 0.835599 0.199478
C16_4 C 0.3611(18) 0.870(3) 0.2893(15)
H12_4 H 0.371564 0.835086 0.355789
H1_4 H 0.946278 0.012949 0.688586
H2_4 H 0.773215 0.015492 0.518495
H9_3 H 0.505076 0.007909 0.180294
H10_4 H 0.319471 0.008421 0.023985
N2_4 N 0.940(2) 0.4170(17) 0.031(2)
N3_4 N 0.924(2) 0.449(5) 0.117(2)
H9_4 H 0.994924 0.507909 0.319706
loop_
_geom_bond_atom_site_label_1
_geom_bond_atom_site_label_2
_geom_bond_site_symmetry_1
_geom_bond_site_symmetry_2
O1 C18 1_555 1_555
C6 C7 1_555 1_555
C7 H5 1_555 1_555
C8 C7 1_555 1_555
H6 C8 1_555 1_555
C9 C8 1_555 1_555
C10 C9 1_555 1_555
H7 C10 1_555 1_555
C11 C6 1_555 1_555
H8 C11 1_555 1_555
C17 C9 1_555 1_555
O3 C17 1_555 1_555
C18 C6 1_555 1_555
O4 C17 1_555 1_555
Cd4 O3 1_555 1_555
C10 C11 1_555 1_555
O2 C18 1_555 1_555
O4 Cd4 1_555 1_555
O6 Cd2 1_555 1_555
O7 Cd2 1_555 1_555
Cd1 O1_2 1_555 1_555
O1_2 C18_2 1_555 1_555
C1 H1 1_555 1_555
C2 C1 1_555 1_555
H2 C2 1_555 1_555
C3 C2 1_555 1_555
C4 C3 1_555 1_555
H3 C4 1_555 1_555
C5 C4 1_555 1_555
H4 C5 1_555 1_555
N1 Cd1 1_555 1_555
C6_2 C7_2 1_555 1_555
C7_2 H5_2 1_555 1_555
C8_2 C7_2 1_555 1_555
H6_2 C8_2 1_555 1_555
C9_2 C8_2 1_555 1_555
C10_2 C9_2 1_555 1_555
H7_2 C10_2 1_555 1_555
C11_2 C6_2 1_555 1_555
H8_2 C11_2 1_555 1_555
O2_2 Cd1 1_555 1_555
C17_2 C9_2 1_555 1_555
O3_2 C17_2 1_555 1_555
C18_2 C6_2 1_555 1_555
O4_2 C17_2 1_555 1_555
Cd4 O1_2 1_555 1_555
Cd3 O3_2 1_555 1_555
O5_2 Cd1 1_555 1_555
N5 Cd1 1_555 1_555
O6_2 Cd1 1_555 1_555
O7_2 Cd1 1_555 1_555
C1 N1 1_555 1_555
C5 N1 1_555 1_555
C10_2 C11_2 1_555 1_555
O2_2 C18_2 1_555 1_555
O4_2 Cd3 1_555 1_555
Cd4 O5_2 1_555 1_555
C13 C12 1_555 1_555
C14 C13 1_555 1_555
H10 C14 1_555 1_555
N5 C14 1_555 1_555
C15 N5 1_555 1_555
H11 C15 1_555 1_555
C16 C12 1_555 1_555
H12 C16 1_555 1_555
C15 C16 1_555 1_555
O5 C18_3 1_555 1_555
C6_3 C7_3 1_555 1_555
C7_3 H5_3 1_555 1_555
C8_3 C7_3 1_555 1_555
H6_3 C8_3 1_555 1_555
C9_3 C8_3 1_555 1_555
C10_3 C9_3 1_555 1_555
H7_3 C10_3 1_555 1_555
C11_3 C6_3 1_555 1_555
H8_3 C11_3 1_555 1_555
C17_3 C9_3 1_555 1_555
O6_2 C17_3 1_555 1_555
C18_3 C6_3 1_555 1_555
O7_2 C17_3 1_555 1_555
C10_3 C11_3 1_555 1_555
O2_3 C18_3 1_555 1_555
C13_2 C12_2 1_555 1_555
C14_2 C13_2 1_555 1_555
H10_2 C14_2 1_555 1_555
N4 C14_2 1_555 1_555
C15_2 N4 1_555 1_555
H11_2 C15_2 1_555 1_555
C16_2 C12_2 1_555 1_555
H12_2 C16_2 1_555 1_555
Cd4 N4 1_555 1_555
C15_2 C16_2 1_555 1_555
O5_2 C18_4 1_555 1_555
C1_2 H1_2 1_555 1_555
C2_2 C1_2 1_555 1_555
H2_2 C2_2 1_555 1_555
C3_2 C2_2 1_555 1_555
C4_2 C3_2 1_555 1_555
H3_2 C4_2 1_555 1_555
C5_2 C4_2 1_555 1_555
H4_2 C5_2 1_555 1_555
N1_2 Cd4 1_555 1_555
C6_4 C7_4 1_555 1_555
C7_4 H5_4 1_555 1_555
C8_4 C7_4 1_555 1_555
H6_4 C8_4 1_555 1_555
C9_4 C8_4 1_555 1_555
C10_4 C9_4 1_555 1_555
H7_4 C10_4 1_555 1_555
C11_4 C6_4 1_555 1_555
H8_4 C11_4 1_555 1_555
O2_4 Cd4 1_555 1_555
C17_4 C9_4 1_555 1_555
O6 C17_4 1_555 1_555
C18_4 C6_4 1_555 1_555
O7 C17_4 1_555 1_555
C1_2 N1_2 1_555 1_555
C5_2 N1_2 1_555 1_555
C10_4 C11_4 1_555 1_555
O2_4 C18_4 1_555 1_555
C2_3 C1_3 1_555 1_555
C3_3 C2_3 1_555 1_555
C4_3 C3_3 1_555 1_555
H3_3 C4_3 1_555 1_555
C5_3 C4_3 1_555 1_555
H4_3 C5_3 1_555 1_555
N2 C3_3 1_555 1_555
N3 N2 1_555 1_555
C12_3 N3 1_555 1_555
C13_3 C12_3 1_555 1_555
C14_3 C13_3 1_555 1_555
N4_2 C14_3 1_555 1_555
C15_3 N4_2 1_555 1_555
H11_3 C15_3 1_555 1_555
C16_3 C12_3 1_555 1_555
H12_3 C16_3 1_555 1_555
C1_3 N1_3 1_555 1_555
C5_3 N1_3 1_555 1_555
C15_3 C16_3 1_555 1_555
N3_2 N2_2 1_555 1_555
C2_4 C1_4 1_555 1_555
C3_4 C2_4 1_555 1_555
C4_4 C3_4 1_555 1_555
H3_4 C4_4 1_555 1_555
C5_4 C4_4 1_555 1_555
H4_4 C5_4 1_555 1_555
N2_3 C3_4 1_555 1_555
N3_3 N2_3 1_555 1_555
C12_4 N3_3 1_555 1_555
C13_4 C12_4 1_555 1_555
C14_4 C13_4 1_555 1_555
N5_2 C14_4 1_555 1_555
C15_4 N5_2 1_555 1_555
H11_4 C15_4 1_555 1_555
C16_4 C12_4 1_555 1_555
H12_4 C16_4 1_555 1_555
C1_4 N1_4 1_555 1_555
C5_4 N1_4 1_555 1_555
C15_4 C16_4 1_555 1_555
N3_4 N2_4 1_555 1_555

#END
