
###############################################################################
#
# This file contains modified crystal structure data generated from the
# MOF subset of the Cambridge Structural Database (CSD) v543 
# hosted by the Cambridge Crystallographic Data Centre (CCDC).
#
# This work is licensed under the Creative Commons
# Attribution-NonCommercial-ShareAlike 4.0 International License.
# To view a copy of this license, visit
# http://creativecommons.org/licenses/by-nc-sa/4.0/
# or send a letter to
# Creative Commons, PO Box 1866, Mountain View, CA 94042, USA.
#
# CIF created using the CSD Python API on 29 September 2022
# The structure has been converted into the P1 space group
# The structure has a 3D framework
# The original CSD entry OVUFAP14 is in the monoclinic crystal system
# The framework has been calculated to contain at least 10.0% void space
# The void calculation uses a probe of radius 1.32A, grid spacing 0.4
#
###############################################################################

data_OVUFAP14
_chemical_formula_moiety         '(C72 H48 Cd2 N16 O16)n'
_symmetry_cell_setting           triclinic
_symmetry_space_group_name_H-M   'P 1'
_symmetry_Int_Tables_number      1
_space_group_name_Hall           'P 1'
loop_
_symmetry_equiv_pos_site_id
_symmetry_equiv_pos_as_xyz
1 x,y,z
_cell_length_a                   12.241(12)
_cell_length_b                   13.970(11)
_cell_length_c                   12.627(11)
_cell_angle_alpha                90
_cell_angle_beta                 113.67(9)
_cell_angle_gamma                90
_cell_volume                     1977.65
loop_
_atom_site_label
_atom_site_type_symbol
_atom_site_fract_x
_atom_site_fract_y
_atom_site_fract_z
Cd2 Cd 0.9382(3) 0.0975(2) 0.0657(3)
O1 O 0.062(2) 0.0747(19) 0.9417(19)
C6 C 0.127(2) 0.2031(18) 0.867(2)
C7 C 0.178(3) 0.1448(13) 0.810(2)
H5 H 0.169758 0.078634 0.811623
C8 C 0.241(2) 0.1852(18) 0.751(2)
H6 H 0.275209 0.146179 0.713361
C9 C 0.253(2) 0.284(2) 0.749(2)
C10 C 0.202(2) 0.3424(13) 0.806(2)
H7 H 0.210207 0.408574 0.804981
C11 C 0.139(2) 0.3020(17) 0.865(2)
H8 H 0.104756 0.341031 0.903245
O2 O 0.020(3) 0.2103(19) 0.996(2)
C17 C 0.320(5) 0.328(4) 0.684(4)
O3 O 0.360(3) 0.280(3) 0.634(2)
C18 C 0.068(5) 0.167(4) 0.945(4)
O4 O 0.336(3) 0.414(2) 0.681(3)
Cd4 Cd 0.4382(3) 0.4025(2) 0.5657(3)
Cd3 Cd 0.0618(3) 0.9025(2) 0.9343(3)
O6 O 0.860(3) 0.220(3) 0.134(2)
O7 O 0.836(3) 0.086(2) 0.181(3)
O5 O 0.938(2) 0.9253(19) 0.0583(19)
Cd1 Cd 0.5618(3) 0.5975(2) 0.4343(3)
O1_2 O 0.438(2) 0.5747(19) 0.5583(19)
C1 C 0.392(3) 0.538(2) 0.188(3)
H1 H 0.459742 0.504286 0.193264
C2 C 0.291(3) 0.538(2) 0.084(2)
H2 H 0.291990 0.505515 0.020395
C3 C 0.190(2) 0.588(2) 0.076(2)
C4 C 0.189(2) 0.637(3) 0.172(3)
H3 H 0.121163 0.670213 0.166192
C5 C 0.290(3) 0.636(2) 0.275(2)
H4 H 0.288913 0.668985 0.339061
N1 N 0.391(2) 0.5865(19) 0.283(2)
C6_2 C 0.373(2) 0.7031(18) 0.633(2)
C7_2 C 0.322(3) 0.6448(13) 0.690(2)
H5_2 H 0.330242 0.578634 0.688377
C8_2 C 0.259(2) 0.6852(18) 0.749(2)
H6_2 H 0.224791 0.646179 0.786639
C9_2 C 0.247(2) 0.784(2) 0.751(2)
C10_2 C 0.298(2) 0.8424(13) 0.694(2)
H7_2 H 0.289793 0.908574 0.695019
C11_2 C 0.361(2) 0.8020(17) 0.635(2)
H8_2 H 0.395244 0.841031 0.596755
O2_2 O 0.480(3) 0.7103(19) 0.504(2)
C17_2 C 0.180(5) 0.828(4) 0.816(4)
O3_2 O 0.140(3) 0.780(3) 0.866(2)
C18_2 C 0.432(5) 0.667(4) 0.555(4)
O4_2 O 0.164(3) 0.914(2) 0.819(3)
O5_2 O 0.562(2) 0.4253(19) 0.4417(19)
N5 N 0.728(2) 0.587(2) 0.593(2)
O6_2 O 0.640(3) 0.720(3) 0.366(2)
O7_2 O 0.664(3) 0.586(2) 0.319(3)
C12 C 0.944(3) 0.568(2) 0.783(3)
C13 C 0.926(3) 0.522(3) 0.679(3)
H9 H 0.986555 0.484953 0.673793
C14 C 0.818(3) 0.532(2) 0.584(2)
H10 H 0.806193 0.501157 0.515318
C15 C 0.745(3) 0.633(3) 0.696(3)
H11 H 0.684668 0.670265 0.701739
C16 C 0.853(4) 0.623(2) 0.791(2)
H12 H 0.865029 0.654062 0.860216
C6_3 C 0.873(2) 0.7969(18) 0.133(2)
C7_3 C 0.822(3) 0.8552(13) 0.190(2)
H5_3 H 0.830242 0.921366 0.188377
C8_3 C 0.759(2) 0.8148(18) 0.249(2)
H6_3 H 0.724791 0.853821 0.286639
C9_3 C 0.747(2) 0.716(2) 0.251(2)
C10_3 C 0.798(2) 0.6576(13) 0.194(2)
H7_3 H 0.789793 0.591426 0.195019
C11_3 C 0.861(2) 0.6980(17) 0.135(2)
H8_3 H 0.895244 0.658969 0.096755
O2_3 O 0.980(3) 0.7897(19) 0.004(2)
C17_3 C 0.680(5) 0.672(4) 0.316(4)
C18_3 C 0.932(5) 0.833(4) 0.055(4)
C12_2 C 0.056(3) 0.432(2) 0.217(3)
C13_2 C 0.074(3) 0.478(3) 0.321(3)
H9_2 H 0.013445 0.515047 0.326207
C14_2 C 0.182(3) 0.468(2) 0.416(2)
H10_2 H 0.193807 0.498843 0.484682
N4 N 0.272(2) 0.413(2) 0.407(2)
C15_2 C 0.255(3) 0.367(3) 0.304(3)
H11_2 H 0.315332 0.329735 0.298261
C16_2 C 0.147(4) 0.377(2) 0.209(2)
H12_2 H 0.134971 0.345938 0.139784
C1_2 C 0.608(3) 0.462(2) 0.812(3)
H1_2 H 0.540258 0.495714 0.806736
C2_2 C 0.709(3) 0.462(2) 0.916(2)
H2_2 H 0.708010 0.494485 0.979605
C3_2 C 0.810(2) 0.412(2) 0.924(2)
C4_2 C 0.811(2) 0.363(3) 0.828(3)
H3_2 H 0.878837 0.329787 0.833808
C5_2 C 0.710(3) 0.364(2) 0.725(2)
H4_2 H 0.711087 0.331015 0.660939
N1_2 N 0.609(2) 0.4135(19) 0.717(2)
C6_4 C 0.627(2) 0.2969(18) 0.367(2)
C7_4 C 0.678(3) 0.3552(13) 0.310(2)
H5_4 H 0.669758 0.421366 0.311623
C8_4 C 0.741(2) 0.3148(18) 0.251(2)
H6_4 H 0.775209 0.353821 0.213361
C9_4 C 0.753(2) 0.216(2) 0.249(2)
C10_4 C 0.702(2) 0.1576(13) 0.306(2)
H7_4 H 0.710207 0.091426 0.304981
C11_4 C 0.639(2) 0.1980(17) 0.365(2)
H8_4 H 0.604756 0.158969 0.403245
O2_4 O 0.520(3) 0.2897(19) 0.496(2)
C17_4 C 0.820(5) 0.172(4) 0.184(4)
C18_4 C 0.568(5) 0.333(4) 0.445(4)
C1_3 C 0.108(3) 0.038(2) 0.312(3)
H1_3 H 0.040258 0.004286 0.306736
C2_3 C 0.209(3) 0.038(2) 0.416(2)
H2_3 H 0.208010 0.005515 0.479605
C3_3 C 0.310(2) 0.088(2) 0.424(2)
C4_3 C 0.311(2) 0.137(3) 0.328(3)
H3_3 H 0.378837 0.170213 0.333808
C5_3 C 0.210(3) 0.136(2) 0.225(2)
H4_3 H 0.211087 0.168985 0.160939
N1_3 N 0.109(2) 0.0865(19) 0.217(2)
N2 N 0.433(4) 0.075(3) 0.533(4)
N3 N 0.431(4) 0.052(3) 0.633(3)
C12_3 C 0.556(3) 0.068(2) 0.717(3)
C13_3 C 0.574(3) 0.022(3) 0.821(3)
C14_3 C 0.682(3) 0.032(2) 0.916(2)
H10_3 H 0.693807 0.001157 0.984682
N4_2 N 0.772(2) 0.087(2) 0.907(2)
C15_3 C 0.755(3) 0.133(3) 0.804(3)
H11_3 H 0.815332 0.170265 0.798261
C16_3 C 0.647(4) 0.123(2) 0.709(2)
H12_3 H 0.634971 0.154062 0.639784
H9_3 H 0.513445 0.984953 0.826207
N2_2 N 0.067(4) 0.575(3) 0.967(4)
N3_2 N 0.069(4) 0.552(3) 0.867(3)
N5_2 N 0.228(2) 0.913(2) 0.093(2)
C1_4 C 0.892(3) 0.962(2) 0.688(3)
H1_4 H 0.959742 0.995714 0.693264
C2_4 C 0.791(3) 0.962(2) 0.584(2)
H2_4 H 0.791990 0.994485 0.520395
C3_4 C 0.690(2) 0.912(2) 0.576(2)
C4_4 C 0.689(2) 0.863(3) 0.672(3)
H3_4 H 0.621163 0.829787 0.666192
C5_4 C 0.790(3) 0.864(2) 0.775(2)
H4_4 H 0.788913 0.831015 0.839061
N1_4 N 0.891(2) 0.9135(19) 0.783(2)
N2_3 N 0.567(4) 0.925(3) 0.467(4)
N3_3 N 0.569(4) 0.948(3) 0.367(3)
C12_4 C 0.444(3) 0.932(2) 0.283(3)
C13_4 C 0.426(3) 0.978(3) 0.179(3)
C14_4 C 0.318(3) 0.968(2) 0.084(2)
H10_4 H 0.306193 0.998843 0.015318
C15_4 C 0.245(3) 0.867(3) 0.196(3)
H11_4 H 0.184668 0.829735 0.201739
C16_4 C 0.353(4) 0.877(2) 0.291(2)
H12_4 H 0.365029 0.845938 0.360216
H9_4 H 0.486555 0.015047 0.173793
N2_4 N 0.933(4) 0.425(3) 0.033(4)
N3_4 N 0.931(4) 0.448(3) 0.133(3)
loop_
_geom_bond_atom_site_label_1
_geom_bond_atom_site_label_2
_geom_bond_site_symmetry_1
_geom_bond_site_symmetry_2
O1 C18 1_555 1_555
C6 C7 1_555 1_555
C7 H5 1_555 1_555
C8 C7 1_555 1_555
H6 C8 1_555 1_555
C9 C8 1_555 1_555
C10 C9 1_555 1_555
H7 C10 1_555 1_555
C11 C6 1_555 1_555
H8 C11 1_555 1_555
C17 C9 1_555 1_555
O3 C17 1_555 1_555
C18 C6 1_555 1_555
O4 C17 1_555 1_555
Cd4 O3 1_555 1_555
C10 C11 1_555 1_555
O2 C18 1_555 1_555
O4 Cd4 1_555 1_555
O6 Cd2 1_555 1_555
O7 Cd2 1_555 1_555
Cd1 O1_2 1_555 1_555
O1_2 C18_2 1_555 1_555
C1 H1 1_555 1_555
C2 C1 1_555 1_555
H2 C2 1_555 1_555
C3 C2 1_555 1_555
C4 C3 1_555 1_555
H3 C4 1_555 1_555
C5 C4 1_555 1_555
H4 C5 1_555 1_555
N1 Cd1 1_555 1_555
C6_2 C7_2 1_555 1_555
C7_2 H5_2 1_555 1_555
C8_2 C7_2 1_555 1_555
H6_2 C8_2 1_555 1_555
C9_2 C8_2 1_555 1_555
C10_2 C9_2 1_555 1_555
H7_2 C10_2 1_555 1_555
C11_2 C6_2 1_555 1_555
H8_2 C11_2 1_555 1_555
O2_2 Cd1 1_555 1_555
C17_2 C9_2 1_555 1_555
O3_2 C17_2 1_555 1_555
C18_2 C6_2 1_555 1_555
O4_2 C17_2 1_555 1_555
Cd4 O1_2 1_555 1_555
Cd3 O3_2 1_555 1_555
O5_2 Cd1 1_555 1_555
N5 Cd1 1_555 1_555
O6_2 Cd1 1_555 1_555
O7_2 Cd1 1_555 1_555
C1 N1 1_555 1_555
C5 N1 1_555 1_555
C10_2 C11_2 1_555 1_555
O2_2 C18_2 1_555 1_555
O4_2 Cd3 1_555 1_555
Cd4 O5_2 1_555 1_555
C13 C12 1_555 1_555
H9 C13 1_555 1_555
C14 C13 1_555 1_555
H10 C14 1_555 1_555
N5 C14 1_555 1_555
C15 N5 1_555 1_555
H11 C15 1_555 1_555
C16 C12 1_555 1_555
H12 C16 1_555 1_555
C15 C16 1_555 1_555
O5 C18_3 1_555 1_555
C6_3 C7_3 1_555 1_555
C7_3 H5_3 1_555 1_555
C8_3 C7_3 1_555 1_555
H6_3 C8_3 1_555 1_555
C9_3 C8_3 1_555 1_555
C10_3 C9_3 1_555 1_555
H7_3 C10_3 1_555 1_555
C11_3 C6_3 1_555 1_555
H8_3 C11_3 1_555 1_555
C17_3 C9_3 1_555 1_555
O6_2 C17_3 1_555 1_555
C18_3 C6_3 1_555 1_555
O7_2 C17_3 1_555 1_555
C10_3 C11_3 1_555 1_555
O2_3 C18_3 1_555 1_555
C13_2 C12_2 1_555 1_555
H9_2 C13_2 1_555 1_555
C14_2 C13_2 1_555 1_555
H10_2 C14_2 1_555 1_555
N4 C14_2 1_555 1_555
C15_2 N4 1_555 1_555
H11_2 C15_2 1_555 1_555
C16_2 C12_2 1_555 1_555
H12_2 C16_2 1_555 1_555
Cd4 N4 1_555 1_555
C15_2 C16_2 1_555 1_555
O5_2 C18_4 1_555 1_555
C1_2 H1_2 1_555 1_555
C2_2 C1_2 1_555 1_555
H2_2 C2_2 1_555 1_555
C3_2 C2_2 1_555 1_555
C4_2 C3_2 1_555 1_555
H3_2 C4_2 1_555 1_555
C5_2 C4_2 1_555 1_555
H4_2 C5_2 1_555 1_555
N1_2 Cd4 1_555 1_555
C6_4 C7_4 1_555 1_555
C7_4 H5_4 1_555 1_555
C8_4 C7_4 1_555 1_555
H6_4 C8_4 1_555 1_555
C9_4 C8_4 1_555 1_555
C10_4 C9_4 1_555 1_555
H7_4 C10_4 1_555 1_555
C11_4 C6_4 1_555 1_555
H8_4 C11_4 1_555 1_555
O2_4 Cd4 1_555 1_555
C17_4 C9_4 1_555 1_555
O6 C17_4 1_555 1_555
C18_4 C6_4 1_555 1_555
O7 C17_4 1_555 1_555
C1_2 N1_2 1_555 1_555
C5_2 N1_2 1_555 1_555
C10_4 C11_4 1_555 1_555
O2_4 C18_4 1_555 1_555
C1_3 H1_3 1_555 1_555
C2_3 C1_3 1_555 1_555
H2_3 C2_3 1_555 1_555
C3_3 C2_3 1_555 1_555
C4_3 C3_3 1_555 1_555
H3_3 C4_3 1_555 1_555
C5_3 C4_3 1_555 1_555
H4_3 C5_3 1_555 1_555
N2 C3_3 1_555 1_555
N3 N2 1_555 1_555
C12_3 N3 1_555 1_555
C13_3 C12_3 1_555 1_555
C14_3 C13_3 1_555 1_555
H10_3 C14_3 1_555 1_555
N4_2 C14_3 1_555 1_555
C15_3 N4_2 1_555 1_555
H11_3 C15_3 1_555 1_555
C16_3 C12_3 1_555 1_555
H12_3 C16_3 1_555 1_555
C1_3 N1_3 1_555 1_555
C5_3 N1_3 1_555 1_555
C15_3 C16_3 1_555 1_555
N3_2 N2_2 1_555 1_555
C1_4 H1_4 1_555 1_555
C2_4 C1_4 1_555 1_555
H2_4 C2_4 1_555 1_555
C3_4 C2_4 1_555 1_555
C4_4 C3_4 1_555 1_555
H3_4 C4_4 1_555 1_555
C5_4 C4_4 1_555 1_555
H4_4 C5_4 1_555 1_555
N2_3 C3_4 1_555 1_555
N3_3 N2_3 1_555 1_555
C12_4 N3_3 1_555 1_555
C13_4 C12_4 1_555 1_555
C14_4 C13_4 1_555 1_555
H10_4 C14_4 1_555 1_555
N5_2 C14_4 1_555 1_555
C15_4 N5_2 1_555 1_555
H11_4 C15_4 1_555 1_555
C16_4 C12_4 1_555 1_555
H12_4 C16_4 1_555 1_555
C1_4 N1_4 1_555 1_555
C5_4 N1_4 1_555 1_555
C15_4 C16_4 1_555 1_555
N3_4 N2_4 1_555 1_555

#END
