
###############################################################################
#
# This file contains modified crystal structure data generated from the
# MOF subset of the Cambridge Structural Database (CSD) v543 
# hosted by the Cambridge Crystallographic Data Centre (CCDC).
#
# This work is licensed under the Creative Commons
# Attribution-NonCommercial-ShareAlike 4.0 International License.
# To view a copy of this license, visit
# http://creativecommons.org/licenses/by-nc-sa/4.0/
# or send a letter to
# Creative Commons, PO Box 1866, Mountain View, CA 94042, USA.
#
# CIF created using the CSD Python API on 29 September 2022
# The structure has been converted into the P1 space group
# The structure has a 3D framework
# The original CSD entry OVUFAP12 is in the monoclinic crystal system
# The framework has been calculated to contain at least 10.0% void space
# The void calculation uses a probe of radius 1.32A, grid spacing 0.4
#
###############################################################################

data_OVUFAP12
_chemical_formula_moiety         '(C72 H48 Cd2 N16 O16)n'
_symmetry_cell_setting           triclinic
_symmetry_space_group_name_H-M   'P 1'
_symmetry_Int_Tables_number      1
_space_group_name_Hall           'P 1'
loop_
_symmetry_equiv_pos_site_id
_symmetry_equiv_pos_as_xyz
1 x,y,z
_cell_length_a                   12.275(11)
_cell_length_b                   13.969(8)
_cell_length_c                   12.634(9)
_cell_angle_alpha                90
_cell_angle_beta                 113.67(8)
_cell_angle_gamma                90
_cell_volume                     1984.1
loop_
_atom_site_label
_atom_site_type_symbol
_atom_site_fract_x
_atom_site_fract_y
_atom_site_fract_z
Cd2 Cd 0.9364(3) 0.09715(18) 0.0640(2)
O1 O 0.048(2) 0.0754(16) 0.9398(13)
C6 C 0.1278(16) 0.2025(11) 0.8710(15)
C7 C 0.1876(19) 0.1435(9) 0.8235(15)
H5 H 0.181727 0.077337 0.827548
C8 C 0.2561(18) 0.1833(11) 0.7699(15)
H6 H 0.296109 0.143822 0.738169
C9 C 0.2649(17) 0.2822(11) 0.7639(15)
C10 C 0.2051(17) 0.3413(9) 0.8114(15)
H7 H 0.210989 0.407423 0.807315
C11 C 0.1366(16) 0.3014(10) 0.8649(15)
H8 H 0.096607 0.340940 0.896695
O2 O 0.008(3) 0.2109(17) 0.977(2)
C17 C 0.319(4) 0.325(2) 0.690(3)
O3 O 0.373(3) 0.2828(18) 0.6391(19)
C18 C 0.066(4) 0.1646(19) 0.928(3)
O4 O 0.339(3) 0.4132(15) 0.6837(19)
Cd4 Cd 0.4364(3) 0.40285(18) 0.5640(2)
Cd3 Cd 0.0636(3) 0.90285(18) 0.9360(2)
O6 O 0.873(3) 0.2172(18) 0.1391(19)
O7 O 0.839(3) 0.0868(15) 0.1837(19)
O5 O 0.952(2) 0.9246(16) 0.0602(13)
Cd1 Cd 0.5636(3) 0.59715(18) 0.4360(2)
O1_2 O 0.452(2) 0.5754(16) 0.5602(13)
C1 C 0.404(2) 0.5370(19) 0.188(2)
H1 H 0.473254 0.505953 0.193636
C2 C 0.304(3) 0.5350(19) 0.0852(18)
H2 H 0.305190 0.502659 0.021572
C3 C 0.200(2) 0.5814(19) 0.0773(18)
C4 C 0.1979(19) 0.630(2) 0.172(3)
H3 H 0.128854 0.660856 0.167125
C5 C 0.299(3) 0.6318(15) 0.2755(19)
H4 H 0.296916 0.664152 0.339190
N1 N 0.402(2) 0.5854(15) 0.2835(17)
C6_2 C 0.3722(16) 0.7025(11) 0.6290(15)
C7_2 C 0.3124(19) 0.6435(9) 0.6765(15)
H5_2 H 0.318273 0.577337 0.672452
C8_2 C 0.2439(18) 0.6833(11) 0.7301(15)
H6_2 H 0.203891 0.643822 0.761831
C9_2 C 0.2351(17) 0.7822(11) 0.7361(15)
C10_2 C 0.2949(17) 0.8413(9) 0.6886(15)
H7_2 H 0.289011 0.907423 0.692685
C11_2 C 0.3634(16) 0.8014(10) 0.6351(15)
H8_2 H 0.403393 0.840940 0.603305
O2_2 O 0.492(3) 0.7109(17) 0.523(2)
C17_2 C 0.181(4) 0.825(2) 0.810(3)
O3_2 O 0.127(3) 0.7828(18) 0.8609(19)
C18_2 C 0.434(4) 0.6646(19) 0.572(3)
O4_2 O 0.161(3) 0.9132(15) 0.8163(19)
O5_2 O 0.548(2) 0.4246(16) 0.4398(13)
N5 N 0.732(2) 0.5850(18) 0.6074(19)
O6_2 O 0.627(3) 0.7172(18) 0.3609(19)
O7_2 O 0.661(3) 0.5868(15) 0.3163(19)
C12 C 0.952(2) 0.5698(18) 0.7926(18)
C13 C 0.933(2) 0.526(2) 0.688(2)
H9 H 0.993976 0.491371 0.680049
C14 C 0.823(3) 0.5334(17) 0.5954(16)
H10 H 0.810583 0.504028 0.525476
C15 C 0.750(2) 0.6289(18) 0.712(3)
H11 H 0.689306 0.663393 0.719960
C16 C 0.860(3) 0.6213(15) 0.8046(17)
H12 H 0.872699 0.650737 0.874534
C6_3 C 0.8722(16) 0.7975(11) 0.1290(15)
C7_3 C 0.8124(19) 0.8565(9) 0.1765(15)
H5_3 H 0.818273 0.922663 0.172452
C8_3 C 0.7439(18) 0.8167(11) 0.2301(15)
H6_3 H 0.703891 0.856178 0.261831
C9_3 C 0.7351(17) 0.7178(11) 0.2361(15)
C10_3 C 0.7949(17) 0.6587(9) 0.1886(15)
H7_3 H 0.789011 0.592577 0.192685
C11_3 C 0.8634(16) 0.6986(10) 0.1351(15)
H8_3 H 0.903393 0.659060 0.103305
O2_3 O 0.992(3) 0.7891(17) 0.023(2)
C17_3 C 0.681(4) 0.675(2) 0.310(3)
C18_3 C 0.934(4) 0.8354(19) 0.072(3)
C12_2 C 0.048(2) 0.4302(18) 0.2074(18)
C13_2 C 0.067(2) 0.474(2) 0.312(2)
H9_2 H 0.006024 0.508629 0.319951
C14_2 C 0.177(3) 0.4666(17) 0.4046(16)
H10_2 H 0.189417 0.495972 0.474524
N4 N 0.268(2) 0.4150(18) 0.3926(19)
C15_2 C 0.250(2) 0.3711(18) 0.288(3)
H11_2 H 0.310694 0.336607 0.280040
C16_2 C 0.140(3) 0.3787(15) 0.1954(17)
H12_2 H 0.127301 0.349263 0.125466
C1_2 C 0.596(2) 0.4630(19) 0.812(2)
H1_2 H 0.526746 0.494047 0.806364
C2_2 C 0.696(3) 0.4650(19) 0.9148(18)
H2_2 H 0.694810 0.497341 0.978428
C3_2 C 0.800(2) 0.4186(19) 0.9227(18)
C4_2 C 0.8021(19) 0.370(2) 0.828(3)
H3_2 H 0.871146 0.339144 0.832875
C5_2 C 0.701(3) 0.3682(15) 0.7245(19)
H4_2 H 0.703084 0.335848 0.660810
N1_2 N 0.598(2) 0.4146(15) 0.7165(17)
C6_4 C 0.6278(16) 0.2975(11) 0.3710(15)
C7_4 C 0.6876(19) 0.3565(9) 0.3235(15)
H5_4 H 0.681727 0.422663 0.327548
C8_4 C 0.7561(18) 0.3167(11) 0.2699(15)
H6_4 H 0.796109 0.356178 0.238169
C9_4 C 0.7649(17) 0.2178(11) 0.2639(15)
C10_4 C 0.7051(17) 0.1587(9) 0.3114(15)
H7_4 H 0.710989 0.092577 0.307315
C11_4 C 0.6366(16) 0.1986(10) 0.3649(15)
H8_4 H 0.596607 0.159060 0.396695
O2_4 O 0.508(3) 0.2891(17) 0.477(2)
C17_4 C 0.819(4) 0.175(2) 0.190(3)
C18_4 C 0.566(4) 0.3354(19) 0.428(3)
C1_3 C 0.096(2) 0.0370(19) 0.312(2)
H1_3 H 0.026746 0.005953 0.306364
C2_3 C 0.196(3) 0.0350(19) 0.4148(18)
H2_3 H 0.194810 0.002659 0.478428
C3_3 C 0.300(2) 0.0814(19) 0.4227(18)
C4_3 C 0.3021(19) 0.130(2) 0.328(3)
H3_3 H 0.371146 0.160856 0.332875
C5_3 C 0.201(3) 0.1318(15) 0.2245(19)
H4_3 H 0.203084 0.164152 0.160810
N1_3 N 0.098(2) 0.0854(15) 0.2165(17)
N2 N 0.419(4) 0.070(3) 0.521(3)
N3 N 0.421(4) 0.057(3) 0.617(3)
C12_3 C 0.548(2) 0.0698(18) 0.7074(18)
C13_3 C 0.567(2) 0.026(2) 0.812(2)
C14_3 C 0.677(3) 0.0334(17) 0.9046(16)
H10_3 H 0.689417 0.004028 0.974524
N4_2 N 0.768(2) 0.0850(18) 0.8926(19)
C15_3 C 0.750(2) 0.1289(18) 0.788(3)
H11_3 H 0.810694 0.163393 0.780040
C16_3 C 0.640(3) 0.1213(15) 0.6954(17)
H12_3 H 0.627301 0.150737 0.625466
H9_3 H 0.506024 0.991371 0.819951
N2_2 N 0.081(4) 0.570(3) 0.979(3)
N3_2 N 0.079(4) 0.557(3) 0.883(3)
N5_2 N 0.232(2) 0.9150(18) 0.1074(19)
C1_4 C 0.904(2) 0.9630(19) 0.688(2)
H1_4 H 0.973254 0.994047 0.693636
C2_4 C 0.804(3) 0.9650(19) 0.5852(18)
H2_4 H 0.805190 0.997341 0.521572
C3_4 C 0.700(2) 0.9186(19) 0.5773(18)
C4_4 C 0.6979(19) 0.870(2) 0.672(3)
H3_4 H 0.628854 0.839144 0.667125
C5_4 C 0.799(3) 0.8682(15) 0.7755(19)
H4_4 H 0.796916 0.835848 0.839190
N1_4 N 0.902(2) 0.9146(15) 0.7835(17)
N2_3 N 0.581(4) 0.930(3) 0.479(3)
N3_3 N 0.579(4) 0.943(3) 0.383(3)
C12_4 C 0.452(2) 0.9302(18) 0.2926(18)
C13_4 C 0.433(2) 0.974(2) 0.188(2)
C14_4 C 0.323(3) 0.9666(17) 0.0954(16)
H10_4 H 0.310583 0.995972 0.025476
C15_4 C 0.250(2) 0.8711(18) 0.212(3)
H11_4 H 0.189306 0.836607 0.219960
C16_4 C 0.360(3) 0.8787(15) 0.3046(17)
H12_4 H 0.372699 0.849263 0.374534
H9_4 H 0.493976 0.008629 0.180049
N2_4 N 0.919(4) 0.430(3) 0.021(3)
N3_4 N 0.921(4) 0.443(3) 0.117(3)
loop_
_geom_bond_atom_site_label_1
_geom_bond_atom_site_label_2
_geom_bond_site_symmetry_1
_geom_bond_site_symmetry_2
O1 C18 1_555 1_555
C6 C7 1_555 1_555
C7 H5 1_555 1_555
C8 C7 1_555 1_555
H6 C8 1_555 1_555
C9 C8 1_555 1_555
C10 C9 1_555 1_555
H7 C10 1_555 1_555
C11 C6 1_555 1_555
H8 C11 1_555 1_555
C17 C9 1_555 1_555
O3 C17 1_555 1_555
C18 C6 1_555 1_555
O4 C17 1_555 1_555
Cd4 O3 1_555 1_555
C10 C11 1_555 1_555
O2 C18 1_555 1_555
O4 Cd4 1_555 1_555
O6 Cd2 1_555 1_555
O7 Cd2 1_555 1_555
Cd1 O1_2 1_555 1_555
O1_2 C18_2 1_555 1_555
C1 H1 1_555 1_555
C2 C1 1_555 1_555
H2 C2 1_555 1_555
C3 C2 1_555 1_555
C4 C3 1_555 1_555
H3 C4 1_555 1_555
C5 C4 1_555 1_555
H4 C5 1_555 1_555
N1 Cd1 1_555 1_555
C6_2 C7_2 1_555 1_555
C7_2 H5_2 1_555 1_555
C8_2 C7_2 1_555 1_555
H6_2 C8_2 1_555 1_555
C9_2 C8_2 1_555 1_555
C10_2 C9_2 1_555 1_555
H7_2 C10_2 1_555 1_555
C11_2 C6_2 1_555 1_555
H8_2 C11_2 1_555 1_555
O2_2 Cd1 1_555 1_555
C17_2 C9_2 1_555 1_555
O3_2 C17_2 1_555 1_555
C18_2 C6_2 1_555 1_555
O4_2 C17_2 1_555 1_555
Cd4 O1_2 1_555 1_555
Cd3 O3_2 1_555 1_555
O5_2 Cd1 1_555 1_555
N5 Cd1 1_555 1_555
O6_2 Cd1 1_555 1_555
O7_2 Cd1 1_555 1_555
C1 N1 1_555 1_555
C5 N1 1_555 1_555
C10_2 C11_2 1_555 1_555
O2_2 C18_2 1_555 1_555
O4_2 Cd3 1_555 1_555
Cd4 O5_2 1_555 1_555
C13 C12 1_555 1_555
H9 C13 1_555 1_555
C14 C13 1_555 1_555
H10 C14 1_555 1_555
N5 C14 1_555 1_555
C15 N5 1_555 1_555
H11 C15 1_555 1_555
C16 C12 1_555 1_555
H12 C16 1_555 1_555
C15 C16 1_555 1_555
O5 C18_3 1_555 1_555
C6_3 C7_3 1_555 1_555
C7_3 H5_3 1_555 1_555
C8_3 C7_3 1_555 1_555
H6_3 C8_3 1_555 1_555
C9_3 C8_3 1_555 1_555
C10_3 C9_3 1_555 1_555
H7_3 C10_3 1_555 1_555
C11_3 C6_3 1_555 1_555
H8_3 C11_3 1_555 1_555
C17_3 C9_3 1_555 1_555
O6_2 C17_3 1_555 1_555
C18_3 C6_3 1_555 1_555
O7_2 C17_3 1_555 1_555
C10_3 C11_3 1_555 1_555
O2_3 C18_3 1_555 1_555
C13_2 C12_2 1_555 1_555
H9_2 C13_2 1_555 1_555
C14_2 C13_2 1_555 1_555
H10_2 C14_2 1_555 1_555
N4 C14_2 1_555 1_555
C15_2 N4 1_555 1_555
H11_2 C15_2 1_555 1_555
C16_2 C12_2 1_555 1_555
H12_2 C16_2 1_555 1_555
Cd4 N4 1_555 1_555
C15_2 C16_2 1_555 1_555
O5_2 C18_4 1_555 1_555
C1_2 H1_2 1_555 1_555
C2_2 C1_2 1_555 1_555
H2_2 C2_2 1_555 1_555
C3_2 C2_2 1_555 1_555
C4_2 C3_2 1_555 1_555
H3_2 C4_2 1_555 1_555
C5_2 C4_2 1_555 1_555
H4_2 C5_2 1_555 1_555
N1_2 Cd4 1_555 1_555
C6_4 C7_4 1_555 1_555
C7_4 H5_4 1_555 1_555
C8_4 C7_4 1_555 1_555
H6_4 C8_4 1_555 1_555
C9_4 C8_4 1_555 1_555
C10_4 C9_4 1_555 1_555
H7_4 C10_4 1_555 1_555
C11_4 C6_4 1_555 1_555
H8_4 C11_4 1_555 1_555
O2_4 Cd4 1_555 1_555
C17_4 C9_4 1_555 1_555
O6 C17_4 1_555 1_555
C18_4 C6_4 1_555 1_555
O7 C17_4 1_555 1_555
C1_2 N1_2 1_555 1_555
C5_2 N1_2 1_555 1_555
C10_4 C11_4 1_555 1_555
O2_4 C18_4 1_555 1_555
C1_3 H1_3 1_555 1_555
C2_3 C1_3 1_555 1_555
H2_3 C2_3 1_555 1_555
C3_3 C2_3 1_555 1_555
C4_3 C3_3 1_555 1_555
H3_3 C4_3 1_555 1_555
C5_3 C4_3 1_555 1_555
H4_3 C5_3 1_555 1_555
N2 C3_3 1_555 1_555
N3 N2 1_555 1_555
C12_3 N3 1_555 1_555
C13_3 C12_3 1_555 1_555
C14_3 C13_3 1_555 1_555
H10_3 C14_3 1_555 1_555
N4_2 C14_3 1_555 1_555
C15_3 N4_2 1_555 1_555
H11_3 C15_3 1_555 1_555
C16_3 C12_3 1_555 1_555
H12_3 C16_3 1_555 1_555
C1_3 N1_3 1_555 1_555
C5_3 N1_3 1_555 1_555
C15_3 C16_3 1_555 1_555
N3_2 N2_2 1_555 1_555
C1_4 H1_4 1_555 1_555
C2_4 C1_4 1_555 1_555
H2_4 C2_4 1_555 1_555
C3_4 C2_4 1_555 1_555
C4_4 C3_4 1_555 1_555
H3_4 C4_4 1_555 1_555
C5_4 C4_4 1_555 1_555
H4_4 C5_4 1_555 1_555
N2_3 C3_4 1_555 1_555
N3_3 N2_3 1_555 1_555
C12_4 N3_3 1_555 1_555
C13_4 C12_4 1_555 1_555
C14_4 C13_4 1_555 1_555
H10_4 C14_4 1_555 1_555
N5_2 C14_4 1_555 1_555
C15_4 N5_2 1_555 1_555
H11_4 C15_4 1_555 1_555
C16_4 C12_4 1_555 1_555
H12_4 C16_4 1_555 1_555
C1_4 N1_4 1_555 1_555
C5_4 N1_4 1_555 1_555
C15_4 C16_4 1_555 1_555
N3_4 N2_4 1_555 1_555

#END
