
###############################################################################
#
# This file contains modified crystal structure data generated from the
# MOF subset of the Cambridge Structural Database (CSD) v543 
# hosted by the Cambridge Crystallographic Data Centre (CCDC).
#
# This work is licensed under the Creative Commons
# Attribution-NonCommercial-ShareAlike 4.0 International License.
# To view a copy of this license, visit
# http://creativecommons.org/licenses/by-nc-sa/4.0/
# or send a letter to
# Creative Commons, PO Box 1866, Mountain View, CA 94042, USA.
#
# CIF created using the CSD Python API on 29 September 2022
# The structure has been converted into the P1 space group
# The structure has a 3D framework
# The original CSD entry OVUHOF is in the monoclinic crystal system
# The framework has been calculated to contain at least 10.0% void space
# The void calculation uses a probe of radius 1.32A, grid spacing 0.4
#
###############################################################################

data_OVUHOF
_chemical_formula_moiety         '(C72 H48 Cd4 N16 O16)n'
_symmetry_cell_setting           triclinic
_symmetry_space_group_name_H-M   'P 1'
_symmetry_Int_Tables_number      1
_space_group_name_Hall           'P 1'
loop_
_symmetry_equiv_pos_site_id
_symmetry_equiv_pos_as_xyz
1 x,y,z
_cell_length_a                   12.372(3)
_cell_length_b                   14.15(3)
_cell_length_c                   12.433(4)
_cell_angle_alpha                90
_cell_angle_beta                 113.58(3)
_cell_angle_gamma                90
_cell_volume                     1994.83
loop_
_atom_site_label
_atom_site_type_symbol
_atom_site_fract_x
_atom_site_fract_y
_atom_site_fract_z
Cd4 Cd 0.9340(2) 0.0927(8) 0.0661(3)
O1 O 0.055(2) 0.071(6) 0.948(2)
O2 O 0.017(2) 0.201(6) 0.993(2)
O3 O 0.859(2) 0.210(5) 0.142(2)
O4 O 0.817(2) 0.073(5) 0.188(2)
C3 C 0.812(4) 0.160(4) 0.191(4)
C6 C 0.7510(13) 0.206(3) 0.2523(14)
C8 C 0.7469(15) 0.304(3) 0.2552(16)
C9 C 0.6957(18) 0.153(3) 0.3092(19)
H5 H 0.783954 0.339911 0.217119
C10 C 0.6874(17) 0.349(3) 0.3150(17)
C11 C 0.6361(15) 0.197(3) 0.3691(16)
H6 H 0.698434 0.086874 0.307311
C12 C 0.6320(12) 0.295(3) 0.3720(12)
H7 H 0.684591 0.414315 0.316982
H8 H 0.599071 0.161276 0.407175
C14 C 0.575(3) 0.337(5) 0.432(3)
O6 O 0.517(2) 0.299(6) 0.493(2)
O7 O 0.555(2) 0.429(6) 0.448(2)
Cd2 Cd 0.4340(2) 0.4073(8) 0.5661(3)
Cd3 Cd 0.5660(2) 0.5927(8) 0.4339(3)
O5 O 0.945(2) 0.929(6) 0.052(2)
Cd2_2 Cd 0.0660(2) 0.9073(8) 0.9339(3)
O1_2 O 0.445(2) 0.571(6) 0.552(2)
N1 N 0.394(2) 0.564(5) 0.264(2)
O2_2 O 0.483(2) 0.701(6) 0.507(2)
N2 N 0.734(3) 0.564(5) 0.602(3)
O3_2 O 0.641(2) 0.710(5) 0.358(2)
O4_2 O 0.683(2) 0.573(5) 0.312(2)
C1 C 0.391(2) 0.512(5) 0.169(3)
C2 C 0.295(3) 0.615(5) 0.257(3)
C3_2 C 0.688(4) 0.660(4) 0.309(4)
H1 H 0.456931 0.477930 0.173302
C4 C 0.289(3) 0.511(5) 0.066(3)
C5 C 0.194(3) 0.614(5) 0.155(3)
H2 H 0.297569 0.650370 0.321566
C6_2 C 0.7490(13) 0.706(3) 0.2477(14)
H3 H 0.287067 0.475671 0.001714
C7 C 0.191(3) 0.562(5) 0.059(3)
H4 H 0.127707 0.648110 0.149977
C8_2 C 0.7531(15) 0.804(3) 0.2448(16)
C9_2 C 0.8043(18) 0.653(3) 0.1908(19)
H5_2 H 0.716046 0.839911 0.282881
C10_2 C 0.8126(17) 0.849(3) 0.1850(17)
C11_2 C 0.8639(15) 0.697(3) 0.1309(16)
H6_2 H 0.801566 0.586874 0.192689
C12_2 C 0.8680(12) 0.795(3) 0.1280(12)
H7_2 H 0.815409 0.914315 0.183018
H8_2 H 0.900929 0.661276 0.092825
C14_2 C 0.925(3) 0.837(5) 0.068(3)
O6_2 O 0.983(2) 0.799(6) 0.007(2)
C13 C 0.941(3) 0.555(5) 0.804(3)
C15 C 0.931(3) 0.504(5) 0.705(3)
C16 C 0.847(3) 0.611(5) 0.801(3)
H9 H 0.993262 0.466531 0.706915
C17 C 0.827(3) 0.508(5) 0.604(3)
C18 C 0.744(3) 0.615(5) 0.700(3)
H10 H 0.853717 0.645644 0.867481
H11 H 0.820858 0.473567 0.538142
H12 H 0.681313 0.652679 0.698707
O3_3 O 0.141(2) 0.790(5) 0.858(2)
O4_3 O 0.183(2) 0.927(5) 0.812(2)
C3_3 C 0.188(4) 0.840(4) 0.809(4)
C6_3 C 0.2490(13) 0.794(3) 0.7477(14)
C8_3 C 0.2531(15) 0.696(3) 0.7448(16)
C9_3 C 0.3043(18) 0.847(3) 0.6908(19)
H5_3 H 0.216046 0.660089 0.782881
C10_3 C 0.3126(17) 0.651(3) 0.6850(17)
C11_3 C 0.3639(15) 0.803(3) 0.6309(16)
H6_3 H 0.301566 0.913126 0.692689
C12_3 C 0.3680(12) 0.705(3) 0.6280(12)
H7_3 H 0.315409 0.585685 0.683018
H8_3 H 0.400929 0.838724 0.592825
C14_3 C 0.425(3) 0.663(5) 0.568(3)
C13_2 C 0.059(3) 0.445(5) 0.196(3)
C15_2 C 0.069(3) 0.496(5) 0.295(3)
C16_2 C 0.153(3) 0.389(5) 0.199(3)
H9_2 H 0.006738 0.533469 0.293085
C17_2 C 0.173(3) 0.492(5) 0.396(3)
C18_2 C 0.256(3) 0.385(5) 0.300(3)
H10_2 H 0.146283 0.354356 0.132519
H11_2 H 0.179142 0.526433 0.461858
H12_2 H 0.318687 0.347321 0.301293
N5 N 0.266(3) 0.436(5) 0.398(3)
N1_2 N 0.606(2) 0.436(5) 0.736(2)
O3_4 O 0.359(2) 0.290(5) 0.642(2)
O4_4 O 0.317(2) 0.427(5) 0.688(2)
C1_2 C 0.609(2) 0.488(5) 0.831(3)
C2_2 C 0.705(3) 0.385(5) 0.743(3)
C3_4 C 0.312(4) 0.340(4) 0.691(4)
H1_2 H 0.543069 0.522070 0.826698
C4_2 C 0.711(3) 0.489(5) 0.934(3)
C5_2 C 0.806(3) 0.386(5) 0.845(3)
H2_2 H 0.702431 0.349630 0.678434
C6_4 C 0.2510(13) 0.294(3) 0.7523(14)
H3_2 H 0.712933 0.524329 0.998286
C7_2 C 0.809(3) 0.438(5) 0.941(3)
H4_2 H 0.872293 0.351890 0.850023
C8_4 C 0.2469(15) 0.196(3) 0.7552(16)
C9_4 C 0.1957(18) 0.347(3) 0.8092(19)
H5_4 H 0.283954 0.160089 0.717119
C10_4 C 0.1874(17) 0.151(3) 0.8150(17)
C11_4 C 0.1361(15) 0.303(3) 0.8691(16)
H6_4 H 0.198434 0.413126 0.807311
C12_4 C 0.1320(12) 0.205(3) 0.8720(12)
H7_4 H 0.184591 0.085685 0.816982
H8_4 H 0.099071 0.338724 0.907175
C14_4 C 0.075(3) 0.163(5) 0.932(3)
N1_3 N 0.106(2) 0.064(5) 0.236(2)
C1_3 C 0.109(2) 0.012(5) 0.331(3)
C2_3 C 0.205(3) 0.115(5) 0.243(3)
C4_3 C 0.211(3) 0.011(5) 0.434(3)
C5_3 C 0.306(3) 0.114(5) 0.345(3)
H2_3 H 0.202431 0.150370 0.178434
C7_3 C 0.309(3) 0.062(5) 0.441(3)
H4_3 H 0.372293 0.148110 0.350023
N3 N 0.435(5) 0.084(4) 0.527(4)
N4 N 0.426(5) 0.046(8) 0.600(4)
C13_3 C 0.559(3) 0.055(5) 0.696(3)
C15_3 C 0.569(3) 0.004(5) 0.795(3)
C16_3 C 0.653(3) 0.111(5) 0.699(3)
C17_3 C 0.673(3) 0.008(5) 0.896(3)
C18_3 C 0.756(3) 0.115(5) 0.800(3)
H10_3 H 0.646283 0.145644 0.632519
H12_3 H 0.818687 0.152679 0.801293
N5_2 N 0.766(3) 0.064(5) 0.898(3)
H1_3 H 0.043069 0.977930 0.326698
H3_3 H 0.212933 0.975671 0.498286
H9_3 H 0.506738 0.966531 0.793085
H11_3 H 0.679142 0.973567 0.961858
N3_2 N 0.065(5) 0.584(4) 0.973(4)
N4_2 N 0.074(5) 0.546(8) 0.900(4)
N2_2 N 0.234(3) 0.936(5) 0.102(3)
N1_4 N 0.894(2) 0.936(5) 0.764(2)
C1_4 C 0.891(2) 0.988(5) 0.669(3)
C2_4 C 0.795(3) 0.885(5) 0.757(3)
C4_4 C 0.789(3) 0.989(5) 0.566(3)
C5_4 C 0.694(3) 0.886(5) 0.655(3)
H2_4 H 0.797569 0.849630 0.821566
C7_4 C 0.691(3) 0.938(5) 0.559(3)
H4_4 H 0.627707 0.851890 0.649977
N3_3 N 0.565(5) 0.916(4) 0.473(4)
N4_3 N 0.574(5) 0.954(8) 0.400(4)
C13_4 C 0.441(3) 0.945(5) 0.304(3)
C15_4 C 0.431(3) 0.996(5) 0.205(3)
C16_4 C 0.347(3) 0.889(5) 0.301(3)
C17_4 C 0.327(3) 0.992(5) 0.104(3)
C18_4 C 0.244(3) 0.885(5) 0.200(3)
H10_4 H 0.353717 0.854356 0.367481
H12_4 H 0.181313 0.847321 0.198707
H1_4 H 0.956931 0.022070 0.673302
H3_4 H 0.787067 0.024329 0.501714
H9_4 H 0.493262 0.033469 0.206915
H11_4 H 0.320858 0.026433 0.038142
N3_4 N 0.935(5) 0.416(4) 0.027(4)
N4_4 N 0.926(5) 0.454(8) 0.100(4)
loop_
_geom_bond_atom_site_label_1
_geom_bond_atom_site_label_2
_geom_bond_site_symmetry_1
_geom_bond_site_symmetry_2
O3 Cd4 1_555 1_555
O4 Cd4 1_555 1_555
C3 O3 1_555 1_555
C6 C3 1_555 1_555
C8 C6 1_555 1_555
C9 C6 1_555 1_555
H5 C8 1_555 1_555
C10 C8 1_555 1_555
C11 C9 1_555 1_555
H6 C9 1_555 1_555
C12 C10 1_555 1_555
H7 C10 1_555 1_555
H8 C11 1_555 1_555
C14 C12 1_555 1_555
O6 C14 1_555 1_555
O7 C14 1_555 1_555
Cd2 O6 1_555 1_555
Cd3 O7 1_555 1_555
O4 C3 1_555 1_555
C11 C12 1_555 1_555
O7 Cd2 1_555 1_555
Cd3 O1_2 1_555 1_555
N1 Cd3 1_555 1_555
O2_2 Cd3 1_555 1_555
N2 Cd3 1_555 1_555
O3_2 Cd3 1_555 1_555
O4_2 Cd3 1_555 1_555
C1 N1 1_555 1_555
C2 N1 1_555 1_555
C3_2 O3_2 1_555 1_555
H1 C1 1_555 1_555
C4 C1 1_555 1_555
C5 C2 1_555 1_555
H2 C2 1_555 1_555
C6_2 C3_2 1_555 1_555
H3 C4 1_555 1_555
C7 C4 1_555 1_555
H4 C5 1_555 1_555
C8_2 C6_2 1_555 1_555
C9_2 C6_2 1_555 1_555
H5_2 C8_2 1_555 1_555
C10_2 C8_2 1_555 1_555
C11_2 C9_2 1_555 1_555
H6_2 C9_2 1_555 1_555
C12_2 C10_2 1_555 1_555
H7_2 C10_2 1_555 1_555
H8_2 C11_2 1_555 1_555
C14_2 C12_2 1_555 1_555
O6_2 C14_2 1_555 1_555
O5 C14_2 1_555 1_555
O4_2 C3_2 1_555 1_555
C5 C7 1_555 1_555
C11_2 C12_2 1_555 1_555
C15 C13 1_555 1_555
C16 C13 1_555 1_555
H9 C15 1_555 1_555
C17 C15 1_555 1_555
C18 C16 1_555 1_555
H10 C16 1_555 1_555
H11 C17 1_555 1_555
H12 C18 1_555 1_555
N2 C17 1_555 1_555
C18 N2 1_555 1_555
O3_3 Cd2_2 1_555 1_555
O4_3 Cd2_2 1_555 1_555
C3_3 O3_3 1_555 1_555
C6_3 C3_3 1_555 1_555
C8_3 C6_3 1_555 1_555
C9_3 C6_3 1_555 1_555
H5_3 C8_3 1_555 1_555
C10_3 C8_3 1_555 1_555
C11_3 C9_3 1_555 1_555
H6_3 C9_3 1_555 1_555
C12_3 C10_3 1_555 1_555
H7_3 C10_3 1_555 1_555
H8_3 C11_3 1_555 1_555
C14_3 C12_3 1_555 1_555
O2_2 C14_3 1_555 1_555
O1_2 C14_3 1_555 1_555
Cd2 O1_2 1_555 1_555
O4_3 C3_3 1_555 1_555
C11_3 C12_3 1_555 1_555
C15_2 C13_2 1_555 1_555
C16_2 C13_2 1_555 1_555
H9_2 C15_2 1_555 1_555
C17_2 C15_2 1_555 1_555
C18_2 C16_2 1_555 1_555
H10_2 C16_2 1_555 1_555
H11_2 C17_2 1_555 1_555
H12_2 C18_2 1_555 1_555
N5 C17_2 1_555 1_555
Cd2 N5 1_555 1_555
C18_2 N5 1_555 1_555
N1_2 Cd2 1_555 1_555
O3_4 Cd2 1_555 1_555
O4_4 Cd2 1_555 1_555
C1_2 N1_2 1_555 1_555
C2_2 N1_2 1_555 1_555
C3_4 O3_4 1_555 1_555
H1_2 C1_2 1_555 1_555
C4_2 C1_2 1_555 1_555
C5_2 C2_2 1_555 1_555
H2_2 C2_2 1_555 1_555
C6_4 C3_4 1_555 1_555
H3_2 C4_2 1_555 1_555
C7_2 C4_2 1_555 1_555
H4_2 C5_2 1_555 1_555
C8_4 C6_4 1_555 1_555
C9_4 C6_4 1_555 1_555
H5_4 C8_4 1_555 1_555
C10_4 C8_4 1_555 1_555
C11_4 C9_4 1_555 1_555
H6_4 C9_4 1_555 1_555
C12_4 C10_4 1_555 1_555
H7_4 C10_4 1_555 1_555
H8_4 C11_4 1_555 1_555
C14_4 C12_4 1_555 1_555
O2 C14_4 1_555 1_555
O1 C14_4 1_555 1_555
O4_4 C3_4 1_555 1_555
C5_2 C7_2 1_555 1_555
C11_4 C12_4 1_555 1_555
C1_3 N1_3 1_555 1_555
C2_3 N1_3 1_555 1_555
C4_3 C1_3 1_555 1_555
C5_3 C2_3 1_555 1_555
H2_3 C2_3 1_555 1_555
C7_3 C4_3 1_555 1_555
H4_3 C5_3 1_555 1_555
N3 C7_3 1_555 1_555
N4 N3 1_555 1_555
C13_3 N4 1_555 1_555
C15_3 C13_3 1_555 1_555
C16_3 C13_3 1_555 1_555
C17_3 C15_3 1_555 1_555
C18_3 C16_3 1_555 1_555
H10_3 C16_3 1_555 1_555
H12_3 C18_3 1_555 1_555
N5_2 C17_3 1_555 1_555
C5_3 C7_3 1_555 1_555
C18_3 N5_2 1_555 1_555
N4_2 N3_2 1_555 1_555
C1_4 N1_4 1_555 1_555
C2_4 N1_4 1_555 1_555
C4_4 C1_4 1_555 1_555
C5_4 C2_4 1_555 1_555
H2_4 C2_4 1_555 1_555
C7_4 C4_4 1_555 1_555
H4_4 C5_4 1_555 1_555
N3_3 C7_4 1_555 1_555
N4_3 N3_3 1_555 1_555
C13_4 N4_3 1_555 1_555
C15_4 C13_4 1_555 1_555
C16_4 C13_4 1_555 1_555
C17_4 C15_4 1_555 1_555
C18_4 C16_4 1_555 1_555
H10_4 C16_4 1_555 1_555
H12_4 C18_4 1_555 1_555
N2_2 C17_4 1_555 1_555
C5_4 C7_4 1_555 1_555
C18_4 N2_2 1_555 1_555
N4_4 N3_4 1_555 1_555

#END
