
###############################################################################
#
# This file contains modified crystal structure data generated from the
# MOF subset of the Cambridge Structural Database (CSD) v543 
# hosted by the Cambridge Crystallographic Data Centre (CCDC).
#
# This work is licensed under the Creative Commons
# Attribution-NonCommercial-ShareAlike 4.0 International License.
# To view a copy of this license, visit
# http://creativecommons.org/licenses/by-nc-sa/4.0/
# or send a letter to
# Creative Commons, PO Box 1866, Mountain View, CA 94042, USA.
#
# CIF created using the CSD Python API on 29 September 2022
# The structure has been converted into the P1 space group
# The structure has a 3D framework
# The original CSD entry OVUHEV is in the monoclinic crystal system
# The framework has been calculated to contain at least 10.0% void space
# The void calculation uses a probe of radius 1.32A, grid spacing 0.4
#
###############################################################################

data_OVUHEV
_chemical_formula_moiety         '(C72 H48 Cd2 N16 O16)n'
_symmetry_cell_setting           triclinic
_symmetry_space_group_name_H-M   'P 1'
_symmetry_Int_Tables_number      1
_space_group_name_Hall           'P 1'
loop_
_symmetry_equiv_pos_site_id
_symmetry_equiv_pos_as_xyz
1 x,y,z
_cell_length_a                   12.368(2)
_cell_length_b                   14.14(2)
_cell_length_c                   12.444(2)
_cell_angle_alpha                90
_cell_angle_beta                 113.65(2)
_cell_angle_gamma                90
_cell_volume                     1993.47
loop_
_atom_site_label
_atom_site_type_symbol
_atom_site_fract_x
_atom_site_fract_y
_atom_site_fract_z
Cd2 Cd 0.9344(2) 0.0956(7) 0.0668(2)
O1 O 0.050(2) 0.064(4) 0.937(3)
C6 C 0.1322(15) 0.194(3) 0.8728(15)
C7 C 0.1869(18) 0.140(2) 0.8154(19)
H5 H 0.184106 0.074271 0.817353
C8 C 0.2459(15) 0.184(3) 0.7550(15)
H6 H 0.282514 0.148569 0.716596
C9 C 0.2501(14) 0.283(3) 0.7520(14)
C10 C 0.1953(17) 0.336(2) 0.8094(17)
H7 H 0.198144 0.401850 0.807443
C11 C 0.1364(14) 0.292(3) 0.8698(15)
H8 H 0.099735 0.327554 0.908201
O2 O 0.018(2) 0.193(5) 0.987(2)
C17 C 0.314(5) 0.325(3) 0.699(5)
O3 O 0.362(2) 0.277(5) 0.643(2)
C18 C 0.077(4) 0.147(3) 0.948(4)
O4 O 0.314(3) 0.416(4) 0.687(3)
Cd4 Cd 0.4344(2) 0.4044(7) 0.5668(2)
Cd3 Cd 0.0656(2) 0.9044(7) 0.9332(2)
O6 O 0.862(2) 0.223(5) 0.143(2)
O7 O 0.814(3) 0.084(4) 0.187(3)
O5 O 0.950(2) 0.936(4) 0.063(3)
Cd1 Cd 0.5656(2) 0.5956(7) 0.4332(2)
O1_2 O 0.450(2) 0.564(4) 0.563(3)
C1 C 0.395(3) 0.535(5) 0.170(3)
H1 H 0.463845 0.506351 0.172456
C2 C 0.292(3) 0.528(5) 0.069(3)
H2 H 0.291232 0.495378 0.004102
C3 C 0.189(2) 0.570(6) 0.065(3)
C4 C 0.189(3) 0.619(6) 0.162(3)
H3 H 0.120293 0.647387 0.159999
C5 C 0.293(3) 0.626(5) 0.263(3)
H4 H 0.292905 0.658362 0.328353
N1 N 0.395(2) 0.583(5) 0.267(3)
C6_2 C 0.3678(15) 0.694(3) 0.6272(15)
C7_2 C 0.3131(18) 0.640(2) 0.6846(19)
H5_2 H 0.315894 0.574271 0.682647
C8_2 C 0.2541(15) 0.684(3) 0.7450(15)
H6_2 H 0.217486 0.648569 0.783404
C9_2 C 0.2499(14) 0.783(3) 0.7480(14)
C10_2 C 0.3047(17) 0.836(2) 0.6906(17)
H7_2 H 0.301856 0.901850 0.692557
C11_2 C 0.3636(14) 0.792(3) 0.6302(15)
H8_2 H 0.400265 0.827554 0.591799
O2_2 O 0.482(2) 0.693(5) 0.513(2)
C17_2 C 0.186(5) 0.825(3) 0.801(5)
O3_2 O 0.138(2) 0.777(5) 0.857(2)
C18_2 C 0.423(4) 0.647(3) 0.552(4)
O4_2 O 0.186(3) 0.916(4) 0.813(3)
O5_2 O 0.550(2) 0.436(4) 0.437(3)
N5 N 0.738(2) 0.592(5) 0.597(2)
O6_2 O 0.638(2) 0.723(5) 0.357(2)
O7_2 O 0.686(3) 0.584(4) 0.313(3)
C12 C 0.943(3) 0.576(6) 0.801(2)
C13 C 0.935(3) 0.531(5) 0.699(3)
H9 H 0.998429 0.495904 0.698802
C14 C 0.833(3) 0.539(5) 0.597(3)
H10 H 0.827702 0.508694 0.528813
C15 C 0.746(3) 0.637(5) 0.699(3)
H11 H 0.682184 0.672103 0.699313
C16 C 0.848(3) 0.629(6) 0.801(3)
H12 H 0.852909 0.659315 0.869304
C6_3 C 0.8678(15) 0.806(3) 0.1272(15)
C7_3 C 0.8131(18) 0.860(2) 0.1846(19)
H5_3 H 0.815894 0.925729 0.182647
C8_3 C 0.7541(15) 0.816(3) 0.2450(15)
H6_3 H 0.717486 0.851431 0.283404
C9_3 C 0.7499(14) 0.717(3) 0.2480(14)
C10_3 C 0.8047(17) 0.664(2) 0.1906(17)
H7_3 H 0.801856 0.598150 0.192557
C11_3 C 0.8636(14) 0.708(3) 0.1302(15)
H8_3 H 0.900265 0.672446 0.091799
O2_3 O 0.982(2) 0.807(5) 0.013(2)
C17_3 C 0.686(5) 0.675(3) 0.301(5)
C18_3 C 0.923(4) 0.853(3) 0.052(4)
C12_2 C 0.057(3) 0.424(6) 0.199(2)
C13_2 C 0.065(3) 0.469(5) 0.301(3)
H9_2 H 0.001571 0.504096 0.301198
C14_2 C 0.167(3) 0.461(5) 0.403(3)
H10_2 H 0.172298 0.491306 0.471187
N4 N 0.262(2) 0.408(5) 0.403(2)
C15_2 C 0.254(3) 0.363(5) 0.301(3)
H11_2 H 0.317816 0.327897 0.300687
C16_2 C 0.152(3) 0.371(6) 0.199(3)
H12_2 H 0.147091 0.340685 0.130696
C1_2 C 0.605(3) 0.465(5) 0.830(3)
H1_2 H 0.536155 0.493649 0.827544
C2_2 C 0.708(3) 0.472(5) 0.931(3)
H2_2 H 0.708768 0.504622 0.995898
C3_2 C 0.811(2) 0.430(6) 0.935(3)
C4_2 C 0.811(3) 0.381(6) 0.838(3)
H3_2 H 0.879707 0.352613 0.840001
C5_2 C 0.707(3) 0.374(5) 0.737(3)
H4_2 H 0.707095 0.341638 0.671647
N1_2 N 0.605(2) 0.417(5) 0.733(3)
C6_4 C 0.6322(15) 0.306(3) 0.3728(15)
C7_4 C 0.6869(18) 0.360(2) 0.3154(19)
H5_4 H 0.684106 0.425729 0.317353
C8_4 C 0.7459(15) 0.316(3) 0.2550(15)
H6_4 H 0.782514 0.351431 0.216596
C9_4 C 0.7501(14) 0.217(3) 0.2520(14)
C10_4 C 0.6953(17) 0.164(2) 0.3094(17)
H7_4 H 0.698144 0.098150 0.307443
C11_4 C 0.6364(14) 0.208(3) 0.3698(15)
H8_4 H 0.599735 0.172446 0.408201
O2_4 O 0.518(2) 0.307(5) 0.487(2)
C17_4 C 0.814(5) 0.175(3) 0.199(5)
C18_4 C 0.577(4) 0.353(3) 0.448(4)
C1_3 C 0.105(3) 0.035(5) 0.330(3)
H1_3 H 0.036155 0.006351 0.327544
C2_3 C 0.208(3) 0.028(5) 0.431(3)
C3_3 C 0.311(2) 0.070(6) 0.435(3)
C4_3 C 0.311(3) 0.119(6) 0.338(3)
H3_3 H 0.379707 0.147387 0.340001
C5_3 C 0.207(3) 0.126(5) 0.237(3)
H4_3 H 0.207095 0.158362 0.171647
N1_3 N 0.105(2) 0.083(5) 0.233(3)
N2 N 0.412(3) 0.032(5) 0.563(3)
N3 N 0.473(3) 0.079(3) 0.571(2)
C12_3 C 0.557(3) 0.076(6) 0.699(2)
C13_3 C 0.565(3) 0.031(5) 0.801(3)
C14_3 C 0.667(3) 0.039(5) 0.903(3)
H10_3 H 0.672298 0.008694 0.971187
N4_2 N 0.762(2) 0.092(5) 0.903(2)
C15_3 C 0.754(3) 0.137(5) 0.801(3)
H11_3 H 0.817816 0.172103 0.800687
C16_3 C 0.652(3) 0.129(6) 0.699(3)
H12_3 H 0.647091 0.159315 0.630696
H2_3 H 0.208768 0.995378 0.495898
H9_3 H 0.501571 0.995904 0.801198
N2_2 N 0.088(3) 0.532(5) 0.937(3)
N3_2 N 0.027(3) 0.579(3) 0.929(2)
N5_2 N 0.238(2) 0.908(5) 0.097(2)
C1_4 C 0.895(3) 0.965(5) 0.670(3)
H1_4 H 0.963845 0.993649 0.672456
C2_4 C 0.792(3) 0.972(5) 0.569(3)
C3_4 C 0.689(2) 0.930(6) 0.565(3)
C4_4 C 0.689(3) 0.881(6) 0.662(3)
H3_4 H 0.620293 0.852613 0.659999
C5_4 C 0.793(3) 0.874(5) 0.763(3)
H4_4 H 0.792905 0.841638 0.828353
N1_4 N 0.895(2) 0.917(5) 0.767(3)
N2_3 N 0.588(3) 0.968(5) 0.437(3)
N3_3 N 0.527(3) 0.921(3) 0.429(2)
C12_4 C 0.443(3) 0.924(6) 0.301(2)
C13_4 C 0.435(3) 0.969(5) 0.199(3)
C14_4 C 0.333(3) 0.961(5) 0.097(3)
H10_4 H 0.327702 0.991306 0.028813
C15_4 C 0.246(3) 0.863(5) 0.199(3)
H11_4 H 0.182184 0.827897 0.199313
C16_4 C 0.348(3) 0.871(6) 0.301(3)
H12_4 H 0.352909 0.840685 0.369304
H2_4 H 0.791232 0.004622 0.504102
H9_4 H 0.498429 0.004096 0.198802
N2_4 N 0.912(3) 0.468(5) 0.063(3)
N3_4 N 0.973(3) 0.421(3) 0.071(2)
loop_
_geom_bond_atom_site_label_1
_geom_bond_atom_site_label_2
_geom_bond_site_symmetry_1
_geom_bond_site_symmetry_2
O1 C18 1_555 1_555
C6 C7 1_555 1_555
C7 H5 1_555 1_555
C8 C7 1_555 1_555
H6 C8 1_555 1_555
C9 C8 1_555 1_555
C10 C9 1_555 1_555
H7 C10 1_555 1_555
C11 C6 1_555 1_555
H8 C11 1_555 1_555
C17 C9 1_555 1_555
O3 C17 1_555 1_555
C18 C6 1_555 1_555
O4 C17 1_555 1_555
Cd4 O3 1_555 1_555
C10 C11 1_555 1_555
O2 C18 1_555 1_555
O4 Cd4 1_555 1_555
O6 Cd2 1_555 1_555
O7 Cd2 1_555 1_555
Cd1 O1_2 1_555 1_555
O1_2 C18_2 1_555 1_555
C1 H1 1_555 1_555
C2 C1 1_555 1_555
H2 C2 1_555 1_555
C3 C2 1_555 1_555
C4 C3 1_555 1_555
H3 C4 1_555 1_555
C5 C4 1_555 1_555
H4 C5 1_555 1_555
N1 Cd1 1_555 1_555
C6_2 C7_2 1_555 1_555
C7_2 H5_2 1_555 1_555
C8_2 C7_2 1_555 1_555
H6_2 C8_2 1_555 1_555
C9_2 C8_2 1_555 1_555
C10_2 C9_2 1_555 1_555
H7_2 C10_2 1_555 1_555
C11_2 C6_2 1_555 1_555
H8_2 C11_2 1_555 1_555
O2_2 Cd1 1_555 1_555
C17_2 C9_2 1_555 1_555
O3_2 C17_2 1_555 1_555
C18_2 C6_2 1_555 1_555
O4_2 C17_2 1_555 1_555
Cd4 O1_2 1_555 1_555
Cd3 O3_2 1_555 1_555
O5_2 Cd1 1_555 1_555
N5 Cd1 1_555 1_555
O6_2 Cd1 1_555 1_555
O7_2 Cd1 1_555 1_555
C1 N1 1_555 1_555
C5 N1 1_555 1_555
C10_2 C11_2 1_555 1_555
O2_2 C18_2 1_555 1_555
O4_2 Cd3 1_555 1_555
Cd4 O5_2 1_555 1_555
C13 C12 1_555 1_555
H9 C13 1_555 1_555
C14 C13 1_555 1_555
H10 C14 1_555 1_555
N5 C14 1_555 1_555
C15 N5 1_555 1_555
H11 C15 1_555 1_555
C16 C12 1_555 1_555
H12 C16 1_555 1_555
C15 C16 1_555 1_555
O5 C18_3 1_555 1_555
C6_3 C7_3 1_555 1_555
C7_3 H5_3 1_555 1_555
C8_3 C7_3 1_555 1_555
H6_3 C8_3 1_555 1_555
C9_3 C8_3 1_555 1_555
C10_3 C9_3 1_555 1_555
H7_3 C10_3 1_555 1_555
C11_3 C6_3 1_555 1_555
H8_3 C11_3 1_555 1_555
C17_3 C9_3 1_555 1_555
O6_2 C17_3 1_555 1_555
C18_3 C6_3 1_555 1_555
O7_2 C17_3 1_555 1_555
C10_3 C11_3 1_555 1_555
O2_3 C18_3 1_555 1_555
C13_2 C12_2 1_555 1_555
H9_2 C13_2 1_555 1_555
C14_2 C13_2 1_555 1_555
H10_2 C14_2 1_555 1_555
N4 C14_2 1_555 1_555
C15_2 N4 1_555 1_555
H11_2 C15_2 1_555 1_555
C16_2 C12_2 1_555 1_555
H12_2 C16_2 1_555 1_555
Cd4 N4 1_555 1_555
C15_2 C16_2 1_555 1_555
O5_2 C18_4 1_555 1_555
C1_2 H1_2 1_555 1_555
C2_2 C1_2 1_555 1_555
H2_2 C2_2 1_555 1_555
C3_2 C2_2 1_555 1_555
C4_2 C3_2 1_555 1_555
H3_2 C4_2 1_555 1_555
C5_2 C4_2 1_555 1_555
H4_2 C5_2 1_555 1_555
N1_2 Cd4 1_555 1_555
C6_4 C7_4 1_555 1_555
C7_4 H5_4 1_555 1_555
C8_4 C7_4 1_555 1_555
H6_4 C8_4 1_555 1_555
C9_4 C8_4 1_555 1_555
C10_4 C9_4 1_555 1_555
H7_4 C10_4 1_555 1_555
C11_4 C6_4 1_555 1_555
H8_4 C11_4 1_555 1_555
O2_4 Cd4 1_555 1_555
C17_4 C9_4 1_555 1_555
O6 C17_4 1_555 1_555
C18_4 C6_4 1_555 1_555
O7 C17_4 1_555 1_555
C1_2 N1_2 1_555 1_555
C5_2 N1_2 1_555 1_555
C10_4 C11_4 1_555 1_555
O2_4 C18_4 1_555 1_555
C1_3 H1_3 1_555 1_555
C2_3 C1_3 1_555 1_555
C3_3 C2_3 1_555 1_555
C4_3 C3_3 1_555 1_555
H3_3 C4_3 1_555 1_555
C5_3 C4_3 1_555 1_555
H4_3 C5_3 1_555 1_555
N2 C3_3 1_555 1_555
N3 N2 1_555 1_555
C12_3 N3 1_555 1_555
C13_3 C12_3 1_555 1_555
C14_3 C13_3 1_555 1_555
H10_3 C14_3 1_555 1_555
N4_2 C14_3 1_555 1_555
C15_3 N4_2 1_555 1_555
H11_3 C15_3 1_555 1_555
C16_3 C12_3 1_555 1_555
H12_3 C16_3 1_555 1_555
C1_3 N1_3 1_555 1_555
C5_3 N1_3 1_555 1_555
C15_3 C16_3 1_555 1_555
N3_2 N2_2 1_555 1_555
C1_4 H1_4 1_555 1_555
C2_4 C1_4 1_555 1_555
C3_4 C2_4 1_555 1_555
C4_4 C3_4 1_555 1_555
H3_4 C4_4 1_555 1_555
C5_4 C4_4 1_555 1_555
H4_4 C5_4 1_555 1_555
N2_3 C3_4 1_555 1_555
N3_3 N2_3 1_555 1_555
C12_4 N3_3 1_555 1_555
C13_4 C12_4 1_555 1_555
C14_4 C13_4 1_555 1_555
H10_4 C14_4 1_555 1_555
N5_2 C14_4 1_555 1_555
C15_4 N5_2 1_555 1_555
H11_4 C15_4 1_555 1_555
C16_4 C12_4 1_555 1_555
H12_4 C16_4 1_555 1_555
C1_4 N1_4 1_555 1_555
C5_4 N1_4 1_555 1_555
C15_4 C16_4 1_555 1_555
N3_4 N2_4 1_555 1_555

#END
