
###############################################################################
#
# This file contains modified crystal structure data generated from the
# MOF subset of the Cambridge Structural Database (CSD) v543 
# hosted by the Cambridge Crystallographic Data Centre (CCDC).
#
# This work is licensed under the Creative Commons
# Attribution-NonCommercial-ShareAlike 4.0 International License.
# To view a copy of this license, visit
# http://creativecommons.org/licenses/by-nc-sa/4.0/
# or send a letter to
# Creative Commons, PO Box 1866, Mountain View, CA 94042, USA.
#
# CIF created using the CSD Python API on 29 September 2022
# The structure has been converted into the P1 space group
# The structure has a 3D framework
# The original CSD entry OWAGUR is in the trigonal crystal system
# The original CSD entry OWAGUR is in a Sohncke space group
# The framework has been calculated to contain at least 10.0% void space
# The void calculation uses a probe of radius 1.32A, grid spacing 0.4
#
###############################################################################

data_OWAGUR
_chemical_formula_moiety         '(C30 H12 Ni3 O18)n'
_symmetry_cell_setting           triclinic
_symmetry_space_group_name_H-M   'P 1'
_symmetry_Int_Tables_number      1
_space_group_name_Hall           'P 1'
loop_
_symmetry_equiv_pos_site_id
_symmetry_equiv_pos_as_xyz
1 x,y,z
_cell_length_a                   8.8160(3)
_cell_length_b                   8.8160(3)
_cell_length_c                   10.6470(4)
_cell_angle_alpha                90
_cell_angle_beta                 90
_cell_angle_gamma                120
_cell_volume                     716.64
loop_
_atom_site_label
_atom_site_type_symbol
_atom_site_fract_x
_atom_site_fract_y
_atom_site_fract_z
O7 O 0.1706(9) 0.2020(8) 0.1035(5)
O9 O 0.1129(9) -0.0000(13) 0.333333
Ni1 Ni -0.000000 0.95763(19) 0.166667
O6 O 0.1938(9) 0.8856(12) 0.1308(6)
O9_2 O 0.1129(9) 1.0000(13) 0.333333
O8 O 0.8294(9) 0.0314(12) 0.2298(5)
Ni4 Ni 0.95763(19) -0.000000 0.833334
Ni1_2 Ni 1.000000 0.95763(19) 0.166667
O1 O 0.8062(9) 0.6918(8) 0.2025(6)
H1 H 0.776423 0.600157 0.250847
O3 O 0.8871(9) 0.8871(9) 0.000000
C1 C 0.7371(15) 0.7371(15) 0.000000
C2 C 0.6825(13) 0.6270(12) 0.1059(8)
C3 C 0.5260(12) 0.4721(12) 0.1072(9)
H2 H 0.488581 0.399759 0.179751
C4 C 0.4247(15) 0.4247(15) 0.000000
C5 C 0.2520(15) 0.2520(15) 0.000000
O3_2 O 0.8871(9) 0.8871(9) 1.000000
C1_2 C 0.7371(15) 0.7371(15) 1.000000
C4_2 C 0.4247(15) 0.4247(15) 1.000000
C5_2 C 0.2520(15) 0.2520(15) 1.000000
O4 O 0.6918(8) 0.8062(9) 0.7975(6)
H3 H 0.600157 0.776423 0.749153
O5 O 0.2020(8) 0.1706(9) 0.8965(5)
C6 C 0.6270(12) 0.6825(13) 0.8941(8)
C7 C 0.4721(12) 0.5260(12) 0.8928(9)
H4 H 0.399759 0.488581 0.820249
Ni4_2 Ni 0.95763(19) 1.000000 0.833334
Ni2 Ni 0.04237(19) 0.04237(19) 0.500000
O1_2 O 0.3082(8) 0.1144(12) 0.5358(6)
H1_2 H 0.399843 0.176266 0.584180
C1_3 C 0.2629(15) 0.0000(21) 0.333333
C2_2 C 0.3730(12) 0.0555(18) 0.4392(8)
C3_2 C 0.5279(12) 0.0539(17) 0.4405(9)
H2_2 H 0.600241 0.088822 0.513084
C4_3 C 0.5753(15) 0.0000(21) 0.333333
C5_3 C 0.7480(15) 0.0000(21) 0.333333
O6_2 O 0.1144(12) 0.3082(15) 0.4642(6)
O9_3 O 0.0000(13) 0.1129(16) 0.666667
O2 O 0.7980(8) 0.9686(12) 0.4368(5)
C1_4 C 0.2629(15) 1.0000(21) 0.333333
C4_4 C 0.5753(15) 1.0000(21) 0.333333
C5_4 C 0.7480(15) 1.0000(21) 0.333333
H3_2 H 0.223577 0.823734 0.082486
C6_2 C 0.3175(13) 0.9445(18) 0.2274(8)
C7_2 C 0.4740(12) 0.9461(17) 0.2261(9)
H4_2 H 0.511419 0.911178 0.153582
O9_4 O 1.0000(13) 0.1129(16) 0.666667
O8_2 O 0.9686(12) 0.7980(15) 0.5632(5)
O2_2 O 0.0314(12) 0.8294(9) 0.7702(5)
C1_5 C -0.0000(21) 0.2629(15) 0.666667
C4_5 C 0.0000(21) 0.5753(15) 0.666667
C5_5 C -0.0000(21) 0.7480(15) 0.666667
H3_3 H 0.176266 0.399843 0.415820
C6_3 C 0.0555(18) 0.3730(12) 0.5608(8)
C7_3 C 0.0539(17) 0.5279(12) 0.5595(9)
H4_3 H 0.088822 0.600241 0.486916
O1_3 O 0.8856(12) 0.1938(9) 0.8692(6)
H1_3 H 0.823734 0.223577 0.917514
C1_6 C 1.0000(21) 0.2629(15) 0.666667
C2_3 C 0.9445(18) 0.3175(13) 0.7726(8)
C3_3 C 0.9461(17) 0.4740(12) 0.7739(9)
H2_3 H 0.911178 0.511419 0.846418
C4_6 C 1.0000(21) 0.5753(15) 0.666667
C5_6 C 1.0000(21) 0.7480(15) 0.666667
loop_
_geom_bond_atom_site_label_1
_geom_bond_atom_site_label_2
_geom_bond_site_symmetry_1
_geom_bond_site_symmetry_2
O6 Ni1 1_555 1_555
O9_2 Ni1 1_555 1_555
Ni1_2 O1 1_555 1_555
O1 H1 1_555 1_555
O7 C5 1_555 1_555
O3 Ni1_2 1_555 1_555
C1 O3 1_555 1_555
C2 O1 1_555 1_555
C3 C2 1_555 1_555
H2 C3 1_555 1_555
C4 C3 1_555 1_555
C5 C4 1_555 1_555
C1 C2 1_555 1_555
C1_2 O3_2 1_555 1_555
C5_2 C4_2 1_555 1_555
O4 H3 1_555 1_555
O5 C5_2 1_555 1_555
C6 C1_2 1_555 1_555
C7 C4_2 1_555 1_555
H4 C7 1_555 1_555
Ni4_2 O3_2 1_555 1_555
O4 C6 1_555 1_555
O4 Ni4_2 1_555 1_555
C6 C7 1_555 1_555
Ni2 O1_2 1_555 1_555
O1_2 H1_2 1_555 1_555
O9 Ni2 1_555 1_555
C1_3 O9 1_555 1_555
C2_2 O1_2 1_555 1_555
C3_2 C2_2 1_555 1_555
H2_2 C3_2 1_555 1_555
C4_3 C3_2 1_555 1_555
C5_3 C4_3 1_555 1_555
O8 C5_3 1_555 1_555
O6_2 Ni2 1_555 1_555
O9_3 Ni2 1_555 1_555
C1_3 C2_2 1_555 1_555
O2 C5_4 1_555 1_555
C1_4 O9_2 1_555 1_555
C5_4 C4_4 1_555 1_555
O6 H3_2 1_555 1_555
C6_2 C1_4 1_555 1_555
C7_2 C4_4 1_555 1_555
H4_2 C7_2 1_555 1_555
O6 C6_2 1_555 1_555
C6_2 C7_2 1_555 1_555
O2_2 C5_5 1_555 1_555
C1_5 O9_3 1_555 1_555
C5_5 C4_5 1_555 1_555
O6_2 H3_3 1_555 1_555
C6_3 C1_5 1_555 1_555
C7_3 C4_5 1_555 1_555
H4_3 C7_3 1_555 1_555
O6_2 C6_3 1_555 1_555
C6_3 C7_3 1_555 1_555
Ni4 O1_3 1_555 1_555
O1_3 H1_3 1_555 1_555
O9_4 Ni4 1_555 1_555
C1_6 O9_4 1_555 1_555
C2_3 O1_3 1_555 1_555
C3_3 C2_3 1_555 1_555
H2_3 C3_3 1_555 1_555
C4_6 C3_3 1_555 1_555
C5_6 C4_6 1_555 1_555
O8_2 C5_6 1_555 1_555
C1_6 C2_3 1_555 1_555

#END
