
###############################################################################
#
# This file contains modified crystal structure data generated from the
# MOF subset of the Cambridge Structural Database (CSD) v543 
# hosted by the Cambridge Crystallographic Data Centre (CCDC).
#
# This work is licensed under the Creative Commons
# Attribution-NonCommercial-ShareAlike 4.0 International License.
# To view a copy of this license, visit
# http://creativecommons.org/licenses/by-nc-sa/4.0/
# or send a letter to
# Creative Commons, PO Box 1866, Mountain View, CA 94042, USA.
#
# CIF created using the CSD Python API on 29 September 2022
# The structure has been converted into the P1 space group
# The structure has a 3D framework
# The original CSD entry OWAVOY is in the monoclinic crystal system
# The original CSD entry OWAVOY is in a Sohncke space group
# The framework has been calculated to contain at least 10.0% void space
# The void calculation uses a probe of radius 1.32A, grid spacing 0.4
#
###############################################################################

data_OWAVOY
_chemical_formula_moiety         '(C96 H60 N18 O47 Zn12)n'
_symmetry_cell_setting           triclinic
_symmetry_space_group_name_H-M   'P 1'
_symmetry_Int_Tables_number      1
_space_group_name_Hall           'P 1'
loop_
_symmetry_equiv_pos_site_id
_symmetry_equiv_pos_as_xyz
1 x,y,z
_cell_length_a                   19.379(8)
_cell_length_b                   14.639(6)
_cell_length_c                   19.484(7)
_cell_angle_alpha                90
_cell_angle_beta                 116.046(6)
_cell_angle_gamma                90
_cell_volume                     4966.05
loop_
_atom_site_label
_atom_site_type_symbol
_atom_site_fract_x
_atom_site_fract_y
_atom_site_fract_z
C20 C 0.5571(11) 0.2509(13) 0.3555(11)
C21 C 0.5700(9) 0.1579(12) 0.3859(10)
C22 C 0.5782(11) 0.0904(12) 0.3412(10)
H21 H 0.5798 0.1060 0.2957
C23 C 0.5840(12) 0.0006(12) 0.3625(11)
C26 C 0.5716(11) 0.0469(12) 0.4756(10)
C27 C 0.5648(13) 0.0208(14) 0.5482(13)
C28 C 0.5674(11) 0.1341(13) 0.4552(10)
H23 H 0.5628 0.1795 0.4864
O3 O 0.5603(8) 0.2673(9) 0.2953(7)
O4 O 0.5448(8) 0.3123(8) 0.3968(7)
O7 O 0.5964(12) 0.0697(13) 0.6041(9)
Zn7 Zn 0.48916(12) 0.42923(13) 0.36575(11)
Zn9 Zn 0.52562(11) 0.36271(13) 0.21898(11)
N1 N 0.0287(8) 0.0455(9) 0.7741(8)
C8 C 0.0158(11) 0.0756(11) 0.7079(10)
C9 C 0.0668(15) 0.1101(13) 0.8214(12)
N2 N 0.0732(8) 0.1862(10) 0.7836(8)
N3 N 0.0426(9) 0.1607(10) 0.7094(7)
C14 C 0.0956(14) 0.1115(14) 0.9086(10)
H9 H 0.0560 0.0888 0.9211
H10 H 0.1083 0.1730 0.9270
H11 H 0.1403 0.0735 0.9322
Zn12 Zn 0.13456(11) 0.29830(13) 0.82008(10)
Zn14 Zn 0.06899(12) 0.23580(13) 0.64112(10)
O1 O 0.0329(7) 0.4036(10) 0.1358(7)
C1 C 0.1010(11) 0.4168(15) 0.1802(11)
C2 C 0.1583(10) 0.3994(14) 0.1440(9)
C3 C 0.1286(10) 0.3826(13) 0.0674(9)
H1 H 0.0761 0.3846 0.0359
C4 C 0.1807(11) 0.3629(13) 0.0401(9)
C5 C 0.2578(9) 0.3594(12) 0.0843(9)
H2 H 0.2909 0.3452 0.0628
C6 C 0.2857(10) 0.3766(12) 0.1596(10)
C7 C 0.3685(11) 0.3769(13) 0.2081(11)
O2 O 0.3919(7) 0.3962(9) 0.2812(6)
Zn1 Zn 0.58594(12) 0.76808(13) 0.24857(11)
Zn5 Zn 0.86544(11) 0.79830(13) 0.17992(10)
Zn6 Zn 0.93101(12) 0.73580(13) 0.35888(10)
C10 C 0.5863(16) 0.5657(14) 0.1701(12)
H3 H 0.5569 0.6126 0.1350
H4 H 0.5735 0.5074 0.1451
H5 H 0.6401 0.5774 0.1872
C11 C 0.5693(12) 0.5653(13) 0.2335(10)
C12 C 0.5543(11) 0.6046(12) 0.3321(10)
C13 C 0.548(2) 0.6644(17) 0.3890(14)
H6 H 0.5335 0.7247 0.3681
H7 H 0.5960 0.6668 0.4337
H8 H 0.5090 0.6409 0.4025
C16 C 0.6616(11) 0.8103(19) 0.1185(10)
H15 H 0.6293 0.8603 0.1177
H16 H 0.6305 0.7576 0.0955
H17 H 0.6900 0.8266 0.0904
C17 C 0.7171(11) 0.7886(13) 0.2002(10)
C18 C 0.7583(11) 0.7451(13) 0.3121(9)
C19 C 0.7594(12) 0.7177(18) 0.3857(10)
H18 H 0.7705 0.6536 0.3940
H19 H 0.7101 0.7299 0.3845
H20 H 0.7982 0.7518 0.4265
C24 C 0.5878(11) 0.9257(12) 0.3087(11)
C25 C 0.5767(11) 0.9759(13) 0.4292(11)
H22 H 0.5753 0.9149 0.4420
C32 C 0.3936(10) 0.8165(13) 0.0499(10)
C33 C 0.4476(10) 0.7976(14) 0.1277(9)
C34 C 0.3142(11) 0.8329(12) 0.0267(9)
H25 H 0.2962 0.8331 0.0638
C39 C 0.2353(9) 0.3964(12) 0.1900(9)
H27 H 0.2539 0.4077 0.2420
N4 N 0.5374(9) 0.5159(9) 0.3212(7)
N5 N 0.5445(9) 0.4905(9) 0.2581(9)
N6 N 0.5717(10) 0.6361(10) 0.2775(8)
N7 N 0.7908(9) 0.7798(10) 0.2264(7)
N8 N 0.8173(8) 0.7535(10) 0.2985(7)
N9 N 0.6925(8) 0.7683(10) 0.2522(7)
O5 O 0.5914(10) 0.9499(9) 0.2514(7)
O6 O 0.5882(8) 0.8452(8) 0.3326(7)
O8 O 0.5253(9) 0.9528(11) 0.5441(7)
O11 O 0.5134(7) 0.7777(9) 0.1406(6)
O12 O 0.4255(8) 0.8057(15) 0.1770(7)
O15 O 0.1277(8) 0.4372(14) 0.2465(8)
O16 O 0.4128(7) 0.3606(11) 0.1799(7)
Zn8 Zn 0.51084(12) 0.92923(13) 0.63425(11)
N10 N 0.9268(8) 0.6862(10) 0.2164(8)
N11 N 0.9574(9) 0.6607(10) 0.2906(7)
O28 O 0.4747(9) 0.4528(11) 0.4559(7)
O29 O 0.6520(8) 0.3514(10) 0.2127(7)
O30 O 0.5347(8) 0.3325(9) 0.1246(7)
O31 O 0.8038(8) 0.8233(9) 0.0719(6)
O32 O 0.9681(9) 0.7248(10) 0.4677(7)
O33 O 0.9661(8) 0.8615(9) 0.3565(7)
O34 O 0.9197(8) 0.9086(8) 0.2367(7)
Zn4 Zn 0.03217(11) 0.91305(13) 0.81145(11)
H12 H 0.0032 0.9683 0.6376
C29 C 0.3920(12) 0.8401(12) 0.8529(12)
C30 C 0.3655(10) 0.8323(12) 0.9145(9)
C31 C 0.4153(12) 0.8137(14) 0.9876(11)
H24 H 0.4656 0.7983 0.9984
C35 C 0.2638(10) 0.8480(14) 0.9539(11)
C36 C 0.2894(11) 0.8458(13) 0.8947(10)
H26 H 0.2545 0.8535 0.8438
C37 C 0.1807(11) 0.8677(14) 0.9293(12)
C38 C 0.1474(13) 0.3412(14) 0.9533(10)
C40 C 0.0264(12) 0.7462(13) 0.7496(10)
C41 C 0.0162(10) 0.6754(13) 0.6965(9)
C42 C 0.0335(11) 0.5865(11) 0.7193(10)
H28 H 0.0509 0.5722 0.7707
C43 C 0.0258(11) 0.5165(12) 0.6676(10)
C44 C 0.0498(10) 0.4210(12) 0.6952(10)
C45 C 0.0008(12) 0.5391(12) 0.5929(9)
O9 O 0.3480(8) 0.8514(10) 0.7873(7)
O10 O 0.4653(8) 0.8325(9) 0.8754(7)
O13 O 0.1444(7) 0.9075(10) 0.8685(7)
O14 O 0.1571(8) 0.8509(14) 0.9794(9)
O17 O 0.1962(8) 0.3233(9) 0.9281(6)
O18 O 0.0781(8) 0.3398(11) 0.9157(7)
O19 O 0.0142(8) 0.8272(8) 0.7274(7)
O20 O 0.0463(11) 0.7280(10) 0.8189(8)
O23 O 0.0339(8) 0.3615(9) 0.6435(7)
O24 O 0.0803(8) 0.4086(8) 0.7633(7)
Zn10 Zn 0.47438(11) 0.86271(13) 0.78102(11)
Zn11 Zn 0.96783(11) 0.41305(13) 0.18855(11)
H29 H 0.9956 0.4935 0.5578
C46 C 0.9830(11) 0.6265(13) 0.5683(9)
C47 C 0.9573(14) 0.6454(14) 0.4859(11)
C48 C 0.9919(11) 0.6932(13) 0.6201(10)
H30 H 0.9812 0.7533 0.6032
O22 O 0.9212(11) 0.5917(11) 0.4360(8)
O25 O 0.9671(7) 0.9036(10) 0.8642(7)
C15 C 0.0253(14) 0.5227(14) 0.3643(11)
H13 H 0.0300 0.5595 0.4070
H14 H 0.0755 0.5062 0.3701
C46_2 C 0.0170(11) 0.1265(13) 0.4317(9)
C47_2 C 0.0427(14) 0.1454(14) 0.5141(11)
C48_2 C 0.0081(11) 0.1932(13) 0.3799(10)
H30_2 H 0.0188 0.2533 0.3968
O21 O 0.0319(9) 0.2248(10) 0.5323(7)
O22_2 O 0.0788(11) 0.0917(11) 0.5640(8)
N1_2 N 0.9713(8) 0.5455(9) 0.2259(8)
C8_2 C 0.9842(11) 0.5756(11) 0.2921(10)
C9_2 C 0.9332(15) 0.6101(13) 0.1786(12)
C14_2 C 0.9044(14) 0.6115(14) 0.0914(10)
H9_2 H 0.9440 0.5888 0.0789
H10_2 H 0.8917 0.6730 0.0730
H11_2 H 0.8597 0.5735 0.0678
H12_2 H 0.9968 0.4683 0.3624
C29_2 C 0.6080(12) 0.3401(12) 0.1471(12)
C30_2 C 0.6345(10) 0.3323(12) 0.0855(9)
C31_2 C 0.5847(12) 0.3137(14) 0.0124(11)
H24_2 H 0.5344 0.2983 0.0016
C35_2 C 0.7362(10) 0.3480(14) 0.0461(11)
C36_2 C 0.7106(11) 0.3458(13) 0.1053(10)
H26_2 H 0.7455 0.3535 0.1562
C37_2 C 0.8193(11) 0.3677(14) 0.0707(12)
C40_2 C 0.9736(12) 0.2462(13) 0.2504(10)
C41_2 C 0.9838(10) 0.1754(13) 0.3035(9)
C42_2 C 0.9665(11) 0.0865(11) 0.2807(10)
H28_2 H 0.9491 0.0722 0.2293
C43_2 C 0.9742(11) 0.0165(12) 0.3324(10)
C45_2 C 0.9992(12) 0.0391(12) 0.4071(9)
O13_2 O 0.8556(7) 0.4075(10) 0.1315(7)
O14_2 O 0.8429(8) 0.3509(14) 0.0206(9)
O19_2 O 0.9858(8) 0.3272(8) 0.2726(7)
O20_2 O 0.9537(11) 0.2280(10) 0.1811(8)
Zn1_2 Zn 0.41406(12) 0.26808(13) 0.75143(11)
C10_2 C 0.4137(16) 0.0657(14) 0.8299(12)
H3_2 H 0.4431 0.1126 0.8650
H4_2 H 0.4265 0.0074 0.8549
H5_2 H 0.3599 0.0774 0.8128
C11_2 C 0.4307(12) 0.0653(13) 0.7665(10)
C12_2 C 0.4457(11) 0.1046(12) 0.6679(10)
C13_2 C 0.452(2) 0.1644(17) 0.6110(14)
H6_2 H 0.4665 0.2247 0.6319
H7_2 H 0.4040 0.1668 0.5663
H8_2 H 0.4910 0.1409 0.5975
C16_2 C 0.3384(11) 0.3103(19) 0.8815(10)
H15_2 H 0.3707 0.3603 0.8823
H16_2 H 0.3695 0.2576 0.9045
H17_2 H 0.3100 0.3266 0.9096
C17_2 C 0.2829(11) 0.2886(13) 0.7998(10)
C18_2 C 0.2417(11) 0.2451(13) 0.6879(9)
C19_2 C 0.2406(12) 0.2177(18) 0.6143(10)
H18_2 H 0.2295 0.1536 0.6060
H19_2 H 0.2899 0.2299 0.6155
H20_2 H 0.2018 0.2518 0.5735
C20_2 C 0.4429(11) 0.7509(13) 0.6445(11)
C21_2 C 0.4300(9) 0.6579(12) 0.6141(10)
C22_2 C 0.4218(11) 0.5904(12) 0.6588(10)
H21_2 H 0.4202 0.6060 0.7043
C23_2 C 0.4160(12) 0.5006(12) 0.6375(11)
C24_2 C 0.4122(11) 0.4257(12) 0.6913(11)
C25_2 C 0.4233(11) 0.4759(13) 0.5708(11)
H22_2 H 0.4247 0.4149 0.5580
C26_2 C 0.4284(11) 0.5469(12) 0.5244(10)
C27_2 C 0.4352(13) 0.5208(14) 0.4518(13)
C28_2 C 0.4326(11) 0.6341(13) 0.5448(10)
H23_2 H 0.4372 0.6795 0.5136
C32_2 C 0.6064(10) 0.3165(13) 0.9501(10)
C33_2 C 0.5524(10) 0.2976(14) 0.8723(9)
C34_2 C 0.6858(11) 0.3329(12) 0.9733(9)
H25_2 H 0.7038 0.3331 0.9362
N4_2 N 0.4626(9) 0.0159(9) 0.6788(7)
N6_2 N 0.4283(10) 0.1361(10) 0.7225(8)
N7_2 N 0.2092(9) 0.2798(10) 0.7736(7)
N8_2 N 0.1827(8) 0.2535(10) 0.7015(7)
N9_2 N 0.3075(8) 0.2683(10) 0.7478(7)
O3_2 O 0.4397(8) 0.7673(9) 0.7047(7)
O4_2 O 0.4552(8) 0.8123(8) 0.6032(7)
O5_2 O 0.4086(10) 0.4499(9) 0.7486(7)
O6_2 O 0.4118(8) 0.3452(8) 0.6674(7)
O7_2 O 0.4036(12) 0.5697(13) 0.3959(9)
O11_2 O 0.4866(7) 0.2777(9) 0.8594(6)
O12_2 O 0.5745(8) 0.3057(15) 0.8230(7)
C38_2 C 0.8526(13) 0.8412(14) 0.0467(10)
C44_2 C 0.9502(10) 0.9210(12) 0.3048(10)
O18_2 O 0.9219(8) 0.8398(11) 0.0843(7)
C1_2 C 0.8990(11) 0.9168(15) 0.8198(11)
C2_2 C 0.8417(10) 0.8994(14) 0.8560(9)
C3_2 C 0.8714(10) 0.8826(13) 0.9326(9)
H1_2 H 0.9239 0.8846 0.9641
C4_2 C 0.8193(11) 0.8629(13) 0.9599(9)
C5_2 C 0.7422(9) 0.8594(12) 0.9157(9)
H2_2 H 0.7091 0.8452 0.9372
C6_2 C 0.7143(10) 0.8766(12) 0.8404(10)
C7_2 C 0.6315(11) 0.8769(13) 0.7919(11)
O2_2 O 0.6081(7) 0.8962(9) 0.7188(6)
C39_2 C 0.7647(9) 0.8964(12) 0.8100(9)
H27_2 H 0.7461 0.9077 0.7580
N5_2 N 0.4555(9) 0.9905(9) 0.7419(9)
O15_2 O 0.8723(8) 0.9372(14) 0.7535(8)
O16_2 O 0.5872(7) 0.8606(11) 0.8201(7)
C15_2 C 0.9747(14) 0.0227(14) 0.6357(11)
H13_2 H 0.9700 0.0595 0.5930
H14_2 H 0.9245 0.0062 0.6299
H29_2 H 0.0044 0.9935 0.4422
loop_
_geom_bond_atom_site_label_1
_geom_bond_atom_site_label_2
_geom_bond_site_symmetry_1
_geom_bond_site_symmetry_2
C20 C21 1_555 1_555
C21 C22 1_555 1_555
C22 H21 1_555 1_555
C23 C22 1_555 1_555
C27 C26 1_555 1_555
C28 C21 1_555 1_555
H23 C28 1_555 1_555
O3 C20 1_555 1_555
O4 C20 1_555 1_555
O7 C27 1_555 1_555
Zn7 O4 1_555 1_555
Zn9 O3 1_555 1_555
C26 C28 1_555 1_555
N1 C8 1_555 1_555
C8 N3 1_555 1_555
C9 N1 1_555 1_555
N2 C9 1_555 1_555
N3 N2 1_555 1_555
C14 C9 1_555 1_555
H9 C14 1_555 1_555
H10 C14 1_555 1_555
H11 C14 1_555 1_555
Zn12 N2 1_555 1_555
Zn14 N3 1_555 1_555
O1 C1 1_555 1_555
C1 C2 1_555 1_555
C2 C3 1_555 1_555
C3 H1 1_555 1_555
C4 C3 1_555 1_555
C5 C4 1_555 1_555
H2 C5 1_555 1_555
C6 C5 1_555 1_555
C7 C6 1_555 1_555
O2 C7 1_555 1_555
Zn1 N6 1_555 1_555
Zn7 O2 1_555 1_555
Zn9 N5 1_555 1_555
Zn5 N7 1_555 1_555
Zn6 N8 1_555 1_555
C10 H3 1_555 1_555
H4 C10 1_555 1_555
H5 C10 1_555 1_555
C11 C10 1_555 1_555
C12 C13 1_555 1_555
C13 H6 1_555 1_555
H7 C13 1_555 1_555
H8 C13 1_555 1_555
C16 H15 1_555 1_555
H16 C16 1_555 1_555
H17 C16 1_555 1_555
C17 C16 1_555 1_555
C18 C19 1_555 1_555
C19 H18 1_555 1_555
H19 C19 1_555 1_555
H20 C19 1_555 1_555
H22 C25 1_555 1_555
C33 C32 1_555 1_555
C34 C32 1_555 1_555
H25 C34 1_555 1_555
C39 C2 1_555 1_555
H27 C39 1_555 1_555
N4 Zn7 1_555 1_555
N5 C11 1_555 1_555
N6 C11 1_555 1_555
N7 C17 1_555 1_555
N8 C18 1_555 1_555
N9 Zn1 1_555 1_555
O5 C24 1_555 1_555
O6 Zn1 1_555 1_555
O11 Zn1 1_555 1_555
O12 C33 1_555 1_555
O15 C1 1_555 1_555
O16 C7 1_555 1_555
Zn8 O8 1_555 1_555
N10 Zn5 1_555 1_555
N11 Zn6 1_555 1_555
O28 Zn7 1_555 1_555
O29 Zn9 1_555 1_555
O30 Zn9 1_555 1_555
O31 Zn5 1_555 1_555
O32 Zn6 1_555 1_555
O33 Zn6 1_555 1_555
O34 Zn5 1_555 1_555
C6 C39 1_555 1_555
Zn9 O16 1_555 1_555
C12 N4 1_555 1_555
C12 N6 1_555 1_555
C17 N9 1_555 1_555
C18 N9 1_555 1_555
C24 O6 1_555 1_555
C33 O11 1_555 1_555
N4 N5 1_555 1_555
N7 N8 1_555 1_555
N10 N11 1_555 1_555
C29 C30 1_555 1_555
C30 C31 1_555 1_555
C31 H24 1_555 1_555
C36 C30 1_555 1_555
H26 C36 1_555 1_555
C37 C35 1_555 1_555
C40 C41 1_555 1_555
C41 C42 1_555 1_555
C42 H28 1_555 1_555
C43 C42 1_555 1_555
C44 C43 1_555 1_555
C45 C43 1_555 1_555
O9 C29 1_555 1_555
O10 C29 1_555 1_555
O13 Zn4 1_555 1_555
O14 C37 1_555 1_555
O17 C38 1_555 1_555
O18 C38 1_555 1_555
O19 Zn4 1_555 1_555
O20 C40 1_555 1_555
O23 C44 1_555 1_555
O24 C44 1_555 1_555
Zn10 O9 1_555 1_555
Zn12 O17 1_555 1_555
Zn14 O23 1_555 1_555
C35 C36 1_555 1_555
C37 O13 1_555 1_555
C40 O19 1_555 1_555
O10 Zn10 1_555 1_555
O24 Zn12 1_555 1_555
C47 C46 1_555 1_555
H30 C48 1_555 1_555
O32 C47 1_555 1_555
O22 C47 1_555 1_555
C46 C48 1_555 1_555
H13 C15 1_555 1_555
H14 C15 1_555 1_555
C47_2 C46_2 1_555 1_555
H30_2 C48_2 1_555 1_555
O21 C47_2 1_555 1_555
O22_2 C47_2 1_555 1_555
Zn14 O21 1_555 1_555
C46_2 C48_2 1_555 1_555
N1_2 C8_2 1_555 1_555
C8_2 N11 1_555 1_555
C9_2 N1_2 1_555 1_555
N10 C9_2 1_555 1_555
Zn11 N1_2 1_555 1_555
C14_2 C9_2 1_555 1_555
H9_2 C14_2 1_555 1_555
H10_2 C14_2 1_555 1_555
H11_2 C14_2 1_555 1_555
C29_2 C30_2 1_555 1_555
C30_2 C31_2 1_555 1_555
C31_2 H24_2 1_555 1_555
C36_2 C30_2 1_555 1_555
H26_2 C36_2 1_555 1_555
C37_2 C35_2 1_555 1_555
C40_2 C41_2 1_555 1_555
C41_2 C42_2 1_555 1_555
C42_2 H28_2 1_555 1_555
C43_2 C42_2 1_555 1_555
C45_2 C43_2 1_555 1_555
O29 C29_2 1_555 1_555
O30 C29_2 1_555 1_555
O13_2 Zn11 1_555 1_555
O14_2 C37_2 1_555 1_555
O19_2 Zn11 1_555 1_555
O20_2 C40_2 1_555 1_555
C35_2 C36_2 1_555 1_555
C37_2 O13_2 1_555 1_555
C40_2 O19_2 1_555 1_555
Zn1_2 N6_2 1_555 1_555
Zn12 N7_2 1_555 1_555
Zn14 N8_2 1_555 1_555
C10_2 H3_2 1_555 1_555
H4_2 C10_2 1_555 1_555
H5_2 C10_2 1_555 1_555
C11_2 C10_2 1_555 1_555
C12_2 C13_2 1_555 1_555
C13_2 H6_2 1_555 1_555
H7_2 C13_2 1_555 1_555
H8_2 C13_2 1_555 1_555
C16_2 H15_2 1_555 1_555
H16_2 C16_2 1_555 1_555
H17_2 C16_2 1_555 1_555
C17_2 C16_2 1_555 1_555
C18_2 C19_2 1_555 1_555
C19_2 H18_2 1_555 1_555
H19_2 C19_2 1_555 1_555
H20_2 C19_2 1_555 1_555
C20_2 C21_2 1_555 1_555
C21_2 C22_2 1_555 1_555
C22_2 H21_2 1_555 1_555
C23_2 C22_2 1_555 1_555
C24_2 C23_2 1_555 1_555
C25_2 C23_2 1_555 1_555
H22_2 C25_2 1_555 1_555
C26_2 C25_2 1_555 1_555
C27_2 C26_2 1_555 1_555
C28_2 C21_2 1_555 1_555
H23_2 C28_2 1_555 1_555
C33_2 C32_2 1_555 1_555
C34_2 C32_2 1_555 1_555
H25_2 C34_2 1_555 1_555
N6_2 C11_2 1_555 1_555
N7_2 C17_2 1_555 1_555
N8_2 C18_2 1_555 1_555
N9_2 Zn1_2 1_555 1_555
O3_2 C20_2 1_555 1_555
O4_2 C20_2 1_555 1_555
O5_2 C24_2 1_555 1_555
O6_2 Zn1_2 1_555 1_555
O7_2 C27_2 1_555 1_555
O28 C27_2 1_555 1_555
O11_2 Zn1_2 1_555 1_555
O12_2 C33_2 1_555 1_555
Zn8 O4_2 1_555 1_555
Zn10 O3_2 1_555 1_555
C12_2 N4_2 1_555 1_555
C12_2 N6_2 1_555 1_555
C17_2 N9_2 1_555 1_555
C18_2 N9_2 1_555 1_555
C24_2 O6_2 1_555 1_555
C26_2 C28_2 1_555 1_555
C33_2 O11_2 1_555 1_555
N7_2 N8_2 1_555 1_555
O31 C38_2 1_555 1_555
O18_2 C38_2 1_555 1_555
O33 C44_2 1_555 1_555
O34 C44_2 1_555 1_555
O25 C1_2 1_555 1_555
C1_2 C2_2 1_555 1_555
C2_2 C3_2 1_555 1_555
C3_2 H1_2 1_555 1_555
C4_2 C3_2 1_555 1_555
C5_2 C4_2 1_555 1_555
H2_2 C5_2 1_555 1_555
C6_2 C5_2 1_555 1_555
C7_2 C6_2 1_555 1_555
O2_2 C7_2 1_555 1_555
Zn8 O2_2 1_555 1_555
Zn10 N5_2 1_555 1_555
C39_2 C2_2 1_555 1_555
H27_2 C39_2 1_555 1_555
O15_2 C1_2 1_555 1_555
O16_2 C7_2 1_555 1_555
C6_2 C39_2 1_555 1_555
Zn10 O16_2 1_555 1_555
H13_2 C15_2 1_555 1_555
H14_2 C15_2 1_555 1_555

#END
