
###############################################################################
#
# This file contains modified crystal structure data generated from the
# MOF subset of the Cambridge Structural Database (CSD) v543 
# hosted by the Cambridge Crystallographic Data Centre (CCDC).
#
# This work is licensed under the Creative Commons
# Attribution-NonCommercial-ShareAlike 4.0 International License.
# To view a copy of this license, visit
# http://creativecommons.org/licenses/by-nc-sa/4.0/
# or send a letter to
# Creative Commons, PO Box 1866, Mountain View, CA 94042, USA.
#
# CIF created using the CSD Python API on 29 September 2022
# The structure has been converted into the P1 space group
# The structure has a 3D framework
# The original CSD entry OWAWOZ is in the monoclinic crystal system
# The framework has been calculated to contain at least 10.0% void space
# The void calculation uses a probe of radius 1.32A, grid spacing 0.4
#
###############################################################################

data_OWAWOZ
_chemical_formula_moiety         '(C44 H40 Co4 N28 O8)n'
_symmetry_cell_setting           triclinic
_symmetry_space_group_name_H-M   'P 1'
_symmetry_Int_Tables_number      1
_space_group_name_Hall           'P 1'
loop_
_symmetry_equiv_pos_site_id
_symmetry_equiv_pos_as_xyz
1 x,y,z
_cell_length_a                   9.833(2)
_cell_length_b                   12.230(2)
_cell_length_c                   12.764(3)
_cell_angle_alpha                90
_cell_angle_beta                 95.47(3)
_cell_angle_gamma                90
_cell_volume                     1527.98
loop_
_atom_site_label
_atom_site_type_symbol
_atom_site_fract_x
_atom_site_fract_y
_atom_site_fract_z
H16 H 0.2159 0.0110 0.3929
Co1 Co 0.06989(5) 0.41267(4) 0.92093(3)
N1 N 0.0445(3) 0.1004(2) 0.7795(2)
N2 N 0.0653(3) 0.5859(2) 0.9644(2)
C1 C 0.0273(4) 0.4606(3) 0.7252(3)
N4 N 0.0533(3) 0.2447(2) 0.8826(2)
C2 C 0.0126(4) 0.4826(3) 0.6085(2)
O1 O 0.1446(3) 0.4496(2) 0.77255(17)
C3 C 0.0506(4) 0.0355(3) 0.6838(3)
H1 H 0.1428 0.0372 0.6627
C6 C 0.0826(4) 0.2053(3) 0.7915(3)
H5 H 0.1244 0.2453 0.7415
C8 C 0.1258(4) 0.4800(4) 0.5533(3)
H7 H 0.2113 0.4664 0.5885
H9 H 0.0583 0.2054 0.5338
N6 N 0.1231(3) 0.6547(3) 0.9211(3)
N7 N 0.1813(4) 0.7201(3) 0.8762(4)
Co4 Co 0.43011(5) 0.91267(4) 0.57907(3)
N12 N 0.0442(3) 0.9217(2) 0.4012(2)
C15 C 0.0036(4) 0.8409(3) 0.0681(3)
H13 H 0.0327 0.8381 0.0009
C16 C 0.1134(4) 0.4976(4) 0.4450(3)
H14 H 0.1908 0.4959 0.4085
C18 C 0.1742(4) 0.9540(3) 0.4258(3)
C20 C 0.0115(4) 0.9302(3) 0.1308(3)
H18 H 0.0474 0.9982 0.1161
C21 C 0.0219(4) 0.8347(3) 0.4655(3)
N14 N 0.2347(3) 0.8945(2) 0.5026(2)
N16 N 0.2653(3) 0.3945(2) 0.9974(2)
O4 O 0.0774(3) 0.5490(2) 0.22542(18)
C22 C 0.1385(4) 0.8192(3) 0.5269(3)
H20 H 0.1524 0.7655 0.5784
Co5 Co 0.93011(5) 0.58733(4) 0.07907(3)
N11 N 0.9347(3) 0.4141(2) 0.0356(2)
N3 N 0.9558(3) 0.0783(2) 0.5988(2)
C4 C 0.9964(4) 0.1591(3) 0.9319(3)
H3 H 0.9673 0.1619 0.9991
C5 C 0.8866(4) 0.5024(4) 0.5550(3)
H4 H 0.8092 0.5041 0.5915
C7 C 0.8258(4) 0.0460(3) 0.5742(3)
C9 C 0.9885(4) 0.0698(3) 0.8692(3)
H8 H 0.9526 0.0018 0.8839
C10 C 0.9781(4) 0.1653(3) 0.5345(3)
N5 N 0.7653(3) 0.1055(2) 0.4974(2)
O2 O 0.9226(3) 0.4510(2) 0.77458(18)
C11 C 0.8615(4) 0.1808(3) 0.4731(3)
H10 H 0.8476 0.2345 0.4216
Co6 Co 0.56989(5) 0.08733(4) 0.42093(3)
N8 N 0.9555(3) 0.8996(2) 0.2205(2)
C12 C 0.9727(4) 0.5394(3) 0.2748(3)
N13 N 0.9467(3) 0.7553(2) 0.1174(2)
C13 C 0.9874(4) 0.5174(3) 0.3915(2)
O3 O 0.8554(3) 0.5504(2) 0.22745(17)
C14 C 0.9494(4) 0.9645(3) 0.3162(3)
H11 H 0.8572 0.9628 0.3373
C17 C 0.9174(4) 0.7947(3) 0.2085(3)
H15 H 0.8756 0.7547 0.2585
C19 C 0.8742(4) 0.5200(4) 0.4467(3)
H17 H 0.7887 0.5336 0.4115
H19 H 0.9417 0.7946 0.4662
N15 N 0.7347(3) 0.6055(2) 0.0026(2)
N17 N 0.8769(3) 0.3453(3) 0.0789(3)
N18 N 0.8187(4) 0.2799(3) 0.1238(4)
N8_2 N 0.5445(3) 0.3996(2) 0.2795(2)
N10 N 0.4347(3) 0.0859(2) 0.5356(2)
N12_2 N 0.4558(3) 0.4217(2) 0.0988(2)
C12_2 C 0.5273(4) 0.0394(3) 0.2252(3)
N13_2 N 0.5533(3) 0.2553(2) 0.3826(2)
C13_2 C 0.5126(4) 0.0174(3) 0.1085(2)
O3_2 O 0.6446(3) 0.0504(2) 0.27255(17)
C14_2 C 0.5506(4) 0.4645(3) 0.1838(3)
H11_2 H 0.6428 0.4628 0.1627
H12 H 0.5277 0.5399 0.1977
C15_2 C 0.4964(4) 0.3409(3) 0.4319(3)
H13_2 H 0.4673 0.3381 0.4991
C17_2 C 0.5826(4) 0.2947(3) 0.2915(3)
H15_2 H 0.6244 0.2547 0.2415
C18_2 C 0.3258(4) 0.4540(3) 0.0742(3)
H16_2 H 0.2841 0.5110 0.1071
C19_2 C 0.6258(4) 0.0200(4) 0.0533(3)
H17_2 H 0.7113 0.0336 0.0885
C20_2 C 0.4885(4) 0.4302(3) 0.3692(3)
H18_2 H 0.4526 0.4982 0.3839
C21_2 C 0.4781(4) 0.3347(3) 0.0345(3)
H19_2 H 0.5583 0.2946 0.0338
O4_2 O 0.4226(3) 0.0490(2) 0.27458(18)
C5_2 C 0.6134(4) 0.0024(4) 0.9450(3)
H4_2 H 0.6908 0.0041 0.9085
N6_2 N 0.3769(3) 0.1547(3) 0.5789(3)
N7_2 N 0.3187(4) 0.2201(3) 0.6238(4)
C22_2 C 0.3615(4) 0.3192(3) 0.9731(3)
H20_2 H 0.3476 0.2655 0.9216
C11_2 C 0.6385(4) 0.6808(3) 0.0269(3)
H10_2 H 0.6524 0.7345 0.0784
N9 N 0.5653(3) 0.9141(2) 0.4644(2)
C16_2 C 0.3866(4) 0.9976(4) 0.0550(3)
H14_2 H 0.3092 0.9959 0.0915
N17_2 N 0.6231(3) 0.8453(3) 0.4211(3)
N18_2 N 0.6813(4) 0.7799(3) 0.3762(4)
N1_2 N 0.4555(3) 0.6004(2) 0.7205(2)
N3_2 N 0.5442(3) 0.5783(2) 0.9012(2)
C1_2 C 0.4727(4) 0.9606(3) 0.7748(3)
N4_2 N 0.4467(3) 0.7447(2) 0.6174(2)
C2_2 C 0.4874(4) 0.9826(3) 0.8915(2)
O1_2 O 0.3554(3) 0.9496(2) 0.72745(17)
C3_2 C 0.4494(4) 0.5355(3) 0.8162(3)
H1_2 H 0.3572 0.5372 0.8373
H2 H 0.4723 0.4601 0.8023
C4_2 C 0.5036(4) 0.6591(3) 0.5681(3)
H3_2 H 0.5327 0.6619 0.5009
C6_2 C 0.4174(4) 0.7053(3) 0.7085(3)
H5_2 H 0.3756 0.7453 0.7585
C7_2 C 0.6742(4) 0.5460(3) 0.9258(3)
H6 H 0.7159 0.4890 0.8929
C8_2 C 0.3742(4) 0.9800(4) 0.9467(3)
H7_2 H 0.2887 0.9664 0.9115
C9_2 C 0.5115(4) 0.5698(3) 0.6308(3)
H8_2 H 0.5474 0.5018 0.6161
C10_2 C 0.5219(4) 0.6653(3) 0.9655(3)
H9_2 H 0.4417 0.7054 0.9662
O2_2 O 0.5774(3) 0.9510(2) 0.72542(18)
H2_2 H 0.0277 0.9601 0.6977
H12_2 H 0.9723 0.0399 0.3023
H6_2 H 0.7841 0.9890 0.6071
loop_
_geom_bond_atom_site_label_1
_geom_bond_atom_site_label_2
_geom_bond_site_symmetry_1
_geom_bond_site_symmetry_2
Co1 N2 1_555 1_555
N1 C3 1_555 1_555
N2 N6 1_555 1_555
C1 C2 1_555 1_555
N4 Co1 1_555 1_555
O1 Co1 1_555 1_555
C3 H1 1_555 1_555
C6 N1 1_555 1_555
H5 C6 1_555 1_555
C8 C2 1_555 1_555
H7 C8 1_555 1_555
N6 N7 1_555 1_555
Co4 N14 1_555 1_555
H13 C15 1_555 1_555
C16 C8 1_555 1_555
H14 C16 1_555 1_555
C18 N12 1_555 1_555
H18 C20 1_555 1_555
C21 N12 1_555 1_555
N14 C18 1_555 1_555
N16 Co1 1_555 1_555
C22 C21 1_555 1_555
H20 C22 1_555 1_555
C1 O1 1_555 1_555
N4 C6 1_555 1_555
C15 C20 1_555 1_555
N14 C22 1_555 1_555
Co5 N11 1_555 1_555
H3 C4 1_555 1_555
C5 H4 1_555 1_555
C7 N3 1_555 1_555
H8 C9 1_555 1_555
C10 N3 1_555 1_555
N5 C7 1_555 1_555
C11 C10 1_555 1_555
H10 C11 1_555 1_555
Co6 N5 1_555 1_555
N8 C14 1_555 1_555
N11 N17 1_555 1_555
C12 C13 1_555 1_555
N13 Co5 1_555 1_555
O3 Co5 1_555 1_555
C14 H11 1_555 1_555
C17 N8 1_555 1_555
H15 C17 1_555 1_555
C19 C5 1_555 1_555
H17 C19 1_555 1_555
N15 Co5 1_555 1_555
N17 N18 1_555 1_555
C4 C9 1_555 1_555
N5 C11 1_555 1_555
C12 O3 1_555 1_555
N13 C17 1_555 1_555
C13 C19 1_555 1_555
N8_2 C14_2 1_555 1_555
N10 Co6 1_555 1_555
N12_2 C14_2 1_555 1_555
C12_2 C13_2 1_555 1_555
N13_2 Co6 1_555 1_555
O3_2 Co6 1_555 1_555
C14_2 H11_2 1_555 1_555
H12 C14_2 1_555 1_555
C15_2 N13_2 1_555 1_555
H13_2 C15_2 1_555 1_555
C17_2 N8_2 1_555 1_555
H15_2 C17_2 1_555 1_555
C18_2 N12_2 1_555 1_555
H16_2 C18_2 1_555 1_555
H17_2 C19_2 1_555 1_555
C20_2 N8_2 1_555 1_555
H18_2 C20_2 1_555 1_555
C21_2 N12_2 1_555 1_555
H19_2 C21_2 1_555 1_555
O4_2 Co6 1_555 1_555
C12_2 O3_2 1_555 1_555
C12_2 O4_2 1_555 1_555
N13_2 C17_2 1_555 1_555
C13_2 C19_2 1_555 1_555
C15_2 C20_2 1_555 1_555
N10 N6_2 1_555 1_555
C5_2 H4_2 1_555 1_555
N6_2 N7_2 1_555 1_555
H20_2 C22_2 1_555 1_555
N16 C22_2 1_555 1_555
H10_2 C11_2 1_555 1_555
Co4 N9 1_555 1_555
N9 N17_2 1_555 1_555
H14_2 C16_2 1_555 1_555
N17_2 N18_2 1_555 1_555
N15 C11_2 1_555 1_555
N1_2 C3_2 1_555 1_555
N3_2 C3_2 1_555 1_555
C1_2 C2_2 1_555 1_555
N4_2 Co4 1_555 1_555
O1_2 Co4 1_555 1_555
C3_2 H1_2 1_555 1_555
H2 C3_2 1_555 1_555
C4_2 N4_2 1_555 1_555
H3_2 C4_2 1_555 1_555
C6_2 N1_2 1_555 1_555
H5_2 C6_2 1_555 1_555
C7_2 N3_2 1_555 1_555
H6 C7_2 1_555 1_555
C8_2 C2_2 1_555 1_555
H7_2 C8_2 1_555 1_555
C9_2 N1_2 1_555 1_555
H8_2 C9_2 1_555 1_555
C10_2 N3_2 1_555 1_555
H9_2 C10_2 1_555 1_555
O2_2 Co4 1_555 1_555
C1_2 O1_2 1_555 1_555
C1_2 O2_2 1_555 1_555
N4_2 C6_2 1_555 1_555
C4_2 C9_2 1_555 1_555

#END
