
###############################################################################
#
# This file contains modified crystal structure data generated from the
# MOF subset of the Cambridge Structural Database (CSD) v543 
# hosted by the Cambridge Crystallographic Data Centre (CCDC).
#
# This work is licensed under the Creative Commons
# Attribution-NonCommercial-ShareAlike 4.0 International License.
# To view a copy of this license, visit
# http://creativecommons.org/licenses/by-nc-sa/4.0/
# or send a letter to
# Creative Commons, PO Box 1866, Mountain View, CA 94042, USA.
#
# CIF created using the CSD Python API on 29 September 2022
# The structure has been converted into the P1 space group
# The structure has a 3D framework
# The original CSD entry OWIBUU is in the triclinic crystal system
# The framework has been calculated to contain at least 10.0% void space
# The void calculation uses a probe of radius 1.32A, grid spacing 0.4
#
###############################################################################

data_OWIBUU
_chemical_formula_moiety         '(C48 H52 Mn4 O48 P6 U6)n'
_symmetry_cell_setting           triclinic
_symmetry_space_group_name_H-M   'P 1'
_symmetry_Int_Tables_number      1
_space_group_name_Hall           'P 1'
loop_
_symmetry_equiv_pos_site_id
_symmetry_equiv_pos_as_xyz
1 x,y,z
_cell_length_a                   10.5373(11)
_cell_length_b                   12.1125(13)
_cell_length_c                   17.2540(17)
_cell_angle_alpha                96.042(4)
_cell_angle_beta                 104.676(3)
_cell_angle_gamma                99.190(3)
_cell_volume                     2078.36
loop_
_atom_site_label
_atom_site_type_symbol
_atom_site_fract_x
_atom_site_fract_y
_atom_site_fract_z
U10 U 0.20991(2) 0.85979(2) 0.96295(2)
Mn4 Mn 0.03160(9) 0.68737(9) 0.55549(5)
U12 U 0.79009(2) 0.14021(2) 0.03705(2)
Mn2 Mn 0.500000 -0.000000 0.500000
O6 O 0.6058(4) 0.0165(4) 0.9470(3)
O23 O 0.2978(6) 0.0315(5) 0.4550(4)
H21 H 0.306995 0.095314 0.427765
H22 H 0.274965 0.030184 0.505015
O24 O 0.5066(8) 0.1043(6) 0.6178(4)
H23 H 0.522016 0.070426 0.665838
H24 H 0.487806 0.178976 0.616078
O51 O 0.5966(5) 0.1522(4) 0.4786(3)
H11 H 0.714763 0.849347 0.009833
H12 H 0.573226 0.795353 0.020489
O20 O 0.2640(5) 0.7439(4) 0.0070(3)
O25 O 0.1273(5) 0.9163(5) 0.0772(3)
H25 H 0.136561 0.870914 0.119212
H26 H 0.121611 0.994084 0.082522
O53 O 0.3942(4) 0.9835(4) 0.0530(3)
U1 U 0.31942(2) 0.80101(2) 0.74821(2)
U2 U 0.70400(2) 0.81886(2) 0.74546(2)
Mn2_2 Mn 0.500000 1.000000 0.500000
P1 P 0.38698(15) 0.76955(15) 0.58155(9)
P2 P 0.54509(15) 0.89408(14) 0.91259(9)
C1 C 0.4708(6) 0.6300(6) 0.4731(4)
C2 C 0.6059(6) 0.6532(6) 0.4766(4)
C3 C 0.6446(7) 0.6409(6) 0.4052(4)
H1 H 0.737128 0.654834 0.408209
C4 C 0.5524(8) 0.6093(7) 0.3303(4)
H2 H 0.580802 0.600945 0.282349
C5 C 0.4180(7) 0.5899(7) 0.3263(4)
H3 H 0.353148 0.571569 0.275026
C6 C 0.3770(7) 0.5972(6) 0.3974(4)
H4 H 0.284444 0.579659 0.394177
C7 C 0.4177(7) 0.6341(6) 0.5472(4)
H5 H 0.482917 0.611435 0.591944
H6 H 0.333318 0.577864 0.534479
C8 C 0.7147(6) 0.6921(6) 0.5535(4)
C9 C 0.6383(6) 0.6908(6) 0.9435(4)
C10 C 0.7581(6) 0.6698(6) 0.9280(4)
C11 C 0.7739(7) 0.5593(6) 0.9091(4)
H7 H 0.857671 0.545578 0.903565
C12 C 0.6696(8) 0.4696(6) 0.8982(4)
H8 H 0.681474 0.394424 0.885340
C13 C 0.5344(7) 0.5994(7) 0.9296(4)
H9 H 0.450775 0.611732 0.936300
C14 C 0.5490(7) 0.4893(6) 0.9061(4)
H10 H 0.475124 0.428140 0.895502
C15 C 0.6242(6) 0.8067(6) 0.9801(4)
C16 C 0.8648(6) 0.7660(5) 0.9221(3)
C23 C 0.0543(6) 0.4135(6) 0.2566(4)
H17 H 0.108991 0.438508 0.313436
H18 H 0.115967 0.418905 0.221818
O1 O 0.4817(4) 0.8156(4) 0.6684(3)
O2 O 0.2501(4) 0.7518(4) 0.5984(3)
O3 O 0.4034(5) 0.8478(4) 0.5214(3)
O4 O 0.5575(4) 0.8640(4) 0.8258(3)
O5 O 0.3929(4) 0.8651(4) 0.8988(3)
O8 O 0.0776(5) 0.1941(4) 0.2441(3)
O10 O 0.6930(4) 0.7632(4) 0.6078(3)
O11 O 0.8206(5) 0.6582(5) 0.5615(3)
O12 O 0.8271(4) 0.8497(4) 0.8911(3)
O13 O 0.9848(4) 0.7531(4) 0.9426(3)
O14 O 0.0163(5) 0.6607(4) 0.4294(3)
O16 O 0.3364(5) 0.6595(4) 0.7558(3)
O17 O 0.3057(5) 0.9438(4) 0.7419(3)
O18 O 0.6624(5) 0.6736(4) 0.7515(3)
O19 O 0.7486(5) 0.9636(4) 0.7397(3)
O21 O 0.1528(5) 0.9771(4) 0.9218(3)
H20 H 0.057021 0.920034 0.566774
P6 P 0.02298(16) 0.73231(15) 0.75333(9)
C41 C 0.0393(6) 0.5055(6) 0.7649(4)
C42 C 0.0942(7) 0.4981(6) 0.8468(4)
H39 H 0.077882 0.549312 0.887134
C43 C 0.1709(7) 0.4190(7) 0.8710(4)
H40 H 0.208349 0.417320 0.926942
C44 C 0.1927(7) 0.3424(7) 0.8129(4)
H41 H 0.243735 0.286509 0.828742
C45 C 0.1405(7) 0.3470(6) 0.7321(4)
H42 H 0.155007 0.293520 0.692436
C46 C 0.0664(6) 0.4291(6) 0.7072(4)
C48 C 0.0221(6) 0.4329(6) 0.6169(4)
O32 O 0.0852(4) 0.7504(4) 0.6834(2)
O34 O 0.1465(4) 0.7632(4) 0.8276(2)
O40 O 0.0328(6) 0.5270(5) 0.5939(3)
O47 O 0.0024(6) 0.1428(5) 0.4688(3)
H45 H 0.089389 0.143256 0.502226
O49 O 0.7022(6) 0.9685(5) 0.5450(4)
H49 H 0.693005 0.904686 0.572235
H50 H 0.725035 0.969816 0.494985
O50 O 0.4934(8) 0.8957(6) 0.3822(4)
H51 H 0.477984 0.929574 0.334162
H52 H 0.512194 0.821024 0.383922
U8 U 0.29600(2) 0.18114(2) 0.25454(2)
O55 O 0.9224(5) 0.8059(4) 0.7559(3)
O57 O 0.1794(5) 0.3418(5) 0.4385(3)
O59 O 0.0152(4) 0.2469(4) 0.0574(3)
P3 P 0.97702(16) 0.26769(15) 0.24667(9)
C17 C 0.9607(6) 0.4945(6) 0.2351(4)
C18 C 0.9058(7) 0.5019(6) 0.1532(4)
H13 H 0.922118 0.450688 0.112866
C19 C 0.8291(7) 0.5810(7) 0.1290(4)
H14 H 0.791651 0.582680 0.073058
C20 C 0.8073(7) 0.6576(7) 0.1871(4)
H15 H 0.756265 0.713491 0.171258
C21 C 0.8595(7) 0.6530(6) 0.2679(4)
H16 H 0.844993 0.706480 0.307564
C22 C 0.9336(6) 0.5709(6) 0.2928(4)
C24 C 0.9779(6) 0.5671(6) 0.3831(4)
O7 O 0.9148(4) 0.2496(4) 0.3166(2)
O9 O 0.8535(4) 0.2368(4) 0.1724(2)
O15 O 0.9672(6) 0.4730(5) 0.4061(3)
O22 O 0.9976(6) 0.8572(5) 0.5312(3)
H19 H 0.910611 0.856744 0.497774
U4 U 0.68058(2) 0.19899(2) 0.25179(2)
Mn3 Mn 0.96840(9) 0.31263(9) 0.44451(5)
P4 P 0.61302(15) 0.23045(15) 0.41845(9)
P5 P 0.45491(15) 0.10592(14) 0.08741(9)
C25 C 0.5292(6) 0.3700(6) 0.5269(4)
C26 C 0.3941(6) 0.3468(6) 0.5234(4)
C27 C 0.3554(7) 0.3591(6) 0.5948(4)
H27 H 0.262872 0.345166 0.591791
C28 C 0.4476(8) 0.3907(7) 0.6697(4)
H28 H 0.419198 0.399055 0.717651
C29 C 0.5820(7) 0.4101(7) 0.6737(4)
H29 H 0.646852 0.428431 0.724974
C30 C 0.6230(7) 0.4028(6) 0.6026(4)
H30 H 0.715556 0.420341 0.605823
C31 C 0.5823(7) 0.3659(6) 0.4528(4)
H31 H 0.517083 0.388565 0.408056
H32 H 0.666682 0.422136 0.465521
C32 C 0.2853(6) 0.3079(6) 0.4465(4)
C33 C 0.3617(6) 0.3092(6) 0.0565(4)
C34 C 0.2419(6) 0.3302(6) 0.0720(4)
C35 C 0.2261(7) 0.4407(6) 0.0909(4)
H33 H 0.142329 0.454422 0.096435
C36 C 0.3304(8) 0.5304(6) 0.1018(4)
H34 H 0.318526 0.605576 0.114660
C37 C 0.4656(7) 0.4006(7) 0.0704(4)
H35 H 0.549225 0.388268 0.063700
C38 C 0.4510(7) 0.5107(6) 0.0939(4)
H36 H 0.524876 0.571860 0.104498
C39 C 0.3758(6) 0.1933(6) 0.0199(4)
C40 C 0.1352(6) 0.2340(5) 0.0779(3)
C47 C 0.9457(6) 0.5865(6) 0.7434(4)
H43 H 0.891009 0.561492 0.686564
H44 H 0.884033 0.581095 0.778182
O26 O 0.5183(4) 0.1844(4) 0.3316(3)
O27 O 0.7499(4) 0.2482(4) 0.4016(3)
O29 O 0.4425(4) 0.1360(4) 0.1742(3)
O30 O 0.6071(4) 0.1349(4) 0.1012(3)
O35 O 0.3070(4) 0.2368(4) 0.3922(3)
O37 O 0.1729(4) 0.1503(4) 0.1089(3)
O39 O 0.9837(5) 0.3393(4) 0.5706(3)
O41 O 0.6636(5) 0.3405(4) 0.2442(3)
O42 O 0.6943(5) 0.0562(4) 0.2581(3)
O43 O 0.3376(5) 0.3264(4) 0.2485(3)
O44 O 0.2514(5) 0.0364(4) 0.2603(3)
O46 O 0.8472(5) 0.0229(4) 0.0782(3)
H46 H 0.942979 0.079966 0.433226
H37 H 0.285237 0.150653 0.990167
H38 H 0.426774 0.204647 0.979511
O45 O 0.7360(5) 0.2561(4) 0.9930(3)
O48 O 0.8727(5) 0.0837(5) 0.9228(3)
H47 H 0.863439 0.129086 0.880788
H48 H 0.878389 0.005916 0.917478
loop_
_geom_bond_atom_site_label_1
_geom_bond_atom_site_label_2
_geom_bond_site_symmetry_1
_geom_bond_site_symmetry_2
O23 Mn2 1_555 1_555
H21 O23 1_555 1_555
H22 O23 1_555 1_555
O24 Mn2 1_555 1_555
H23 O24 1_555 1_555
H24 O24 1_555 1_555
O51 Mn2 1_555 1_555
H25 O25 1_555 1_555
H26 O25 1_555 1_555
U1 O1 1_555 1_555
U2 O1 1_555 1_555
U10 O5 1_555 1_555
Mn4 O2 1_555 1_555
Mn2_2 O3 1_555 1_555
P1 C7 1_555 1_555
P2 C15 1_555 1_555
C1 C2 1_555 1_555
C2 C3 1_555 1_555
C3 H1 1_555 1_555
C4 C3 1_555 1_555
H2 C4 1_555 1_555
C5 C4 1_555 1_555
H3 C5 1_555 1_555
C6 C1 1_555 1_555
H4 C6 1_555 1_555
C7 C1 1_555 1_555
H5 C7 1_555 1_555
H6 C7 1_555 1_555
C8 C2 1_555 1_555
C9 C10 1_555 1_555
C10 C11 1_555 1_555
C11 H7 1_555 1_555
C12 C11 1_555 1_555
H8 C12 1_555 1_555
C13 C9 1_555 1_555
H9 C13 1_555 1_555
C14 C12 1_555 1_555
H10 C14 1_555 1_555
C15 C9 1_555 1_555
C16 C10 1_555 1_555
H17 C23 1_555 1_555
H18 C23 1_555 1_555
O1 P1 1_555 1_555
O2 U1 1_555 1_555
O3 P1 1_555 1_555
O4 U1 1_555 1_555
O5 U1 1_555 1_555
O10 U2 1_555 1_555
O11 C8 1_555 1_555
O12 U2 1_555 1_555
O13 C16 1_555 1_555
O14 Mn4 1_555 1_555
O16 U1 1_555 1_555
O17 U1 1_555 1_555
O18 U2 1_555 1_555
O19 U2 1_555 1_555
O21 U10 1_555 1_555
C41 C42 1_555 1_555
C42 H39 1_555 1_555
C43 C42 1_555 1_555
H40 C43 1_555 1_555
C44 C43 1_555 1_555
H41 C44 1_555 1_555
C45 C44 1_555 1_555
H42 C45 1_555 1_555
C46 C41 1_555 1_555
C48 C46 1_555 1_555
O32 U1 1_555 1_555
O34 U1 1_555 1_555
O40 Mn4 1_555 1_555
H45 O47 1_555 1_555
O49 Mn2_2 1_555 1_555
H49 O49 1_555 1_555
H50 O49 1_555 1_555
O50 Mn2_2 1_555 1_555
H51 O50 1_555 1_555
H52 O50 1_555 1_555
U8 O8 1_555 1_555
O55 U2 1_555 1_555
U2 O4 1_555 1_555
U10 O34 1_555 1_555
Mn4 O32 1_555 1_555
P1 O2 1_555 1_555
P2 O4 1_555 1_555
P2 O5 1_555 1_555
C5 C6 1_555 1_555
C8 O10 1_555 1_555
C13 C14 1_555 1_555
C16 O12 1_555 1_555
P6 O32 1_555 1_555
P6 O34 1_555 1_555
C45 C46 1_555 1_555
C48 O40 1_555 1_555
C17 C18 1_555 1_555
C18 H13 1_555 1_555
C19 C18 1_555 1_555
H14 C19 1_555 1_555
C20 C19 1_555 1_555
H15 C20 1_555 1_555
C21 C20 1_555 1_555
H16 C21 1_555 1_555
C22 C17 1_555 1_555
C24 C22 1_555 1_555
O7 P3 1_555 1_555
O9 P3 1_555 1_555
O15 C24 1_555 1_555
H19 O22 1_555 1_555
U4 O7 1_555 1_555
U8 O26 1_555 1_555
U12 O9 1_555 1_555
Mn3 O7 1_555 1_555
P4 C31 1_555 1_555
P5 C39 1_555 1_555
C25 C26 1_555 1_555
C26 C27 1_555 1_555
C27 H27 1_555 1_555
C28 C27 1_555 1_555
H28 C28 1_555 1_555
C29 C28 1_555 1_555
H29 C29 1_555 1_555
C30 C25 1_555 1_555
H30 C30 1_555 1_555
C31 C25 1_555 1_555
H31 C31 1_555 1_555
H32 C31 1_555 1_555
C32 C26 1_555 1_555
C33 C34 1_555 1_555
C34 C35 1_555 1_555
C35 H33 1_555 1_555
C36 C35 1_555 1_555
H34 C36 1_555 1_555
C37 C33 1_555 1_555
H35 C37 1_555 1_555
C38 C36 1_555 1_555
H36 C38 1_555 1_555
C39 C33 1_555 1_555
C40 C34 1_555 1_555
H43 C47 1_555 1_555
H44 C47 1_555 1_555
O26 U4 1_555 1_555
O27 U4 1_555 1_555
O51 P4 1_555 1_555
O29 U4 1_555 1_555
O30 U4 1_555 1_555
O35 U8 1_555 1_555
O57 C32 1_555 1_555
O37 U8 1_555 1_555
O59 C40 1_555 1_555
O39 Mn3 1_555 1_555
O41 U4 1_555 1_555
O42 U4 1_555 1_555
O43 U8 1_555 1_555
O44 U8 1_555 1_555
O46 U12 1_555 1_555
C21 C22 1_555 1_555
O9 U4 1_555 1_555
O15 Mn3 1_555 1_555
U8 O29 1_555 1_555
U12 O30 1_555 1_555
Mn3 O27 1_555 1_555
P4 O26 1_555 1_555
P4 O27 1_555 1_555
P5 O29 1_555 1_555
P5 O30 1_555 1_555
C29 C30 1_555 1_555
C32 O35 1_555 1_555
C37 C38 1_555 1_555
C40 O37 1_555 1_555
H47 O48 1_555 1_555
H48 O48 1_555 1_555

#END
