
###############################################################################
#
# This file contains modified crystal structure data generated from the
# MOF subset of the Cambridge Structural Database (CSD) v543 
# hosted by the Cambridge Crystallographic Data Centre (CCDC).
#
# This work is licensed under the Creative Commons
# Attribution-NonCommercial-ShareAlike 4.0 International License.
# To view a copy of this license, visit
# http://creativecommons.org/licenses/by-nc-sa/4.0/
# or send a letter to
# Creative Commons, PO Box 1866, Mountain View, CA 94042, USA.
#
# CIF created using the CSD Python API on 29 September 2022
# The structure has been converted into the P1 space group
# The structure has a 3D framework
# The original CSD entry OWUCER is in the triclinic crystal system
# The framework has been calculated to contain at least 10.0% void space
# The void calculation uses a probe of radius 1.32A, grid spacing 0.4
#
###############################################################################

data_OWUCER
_chemical_formula_moiety         '(C66 H42 N4 O19 Zn4)n'
_symmetry_cell_setting           triclinic
_symmetry_space_group_name_H-M   'P 1'
_symmetry_Int_Tables_number      1
_space_group_name_Hall           'P 1'
loop_
_symmetry_equiv_pos_site_id
_symmetry_equiv_pos_as_xyz
1 x,y,z
_cell_length_a                   9.9294(3)
_cell_length_b                   11.6856(3)
_cell_length_c                   16.2406(5)
_cell_angle_alpha                104.244(2)
_cell_angle_beta                 107.284(3)
_cell_angle_gamma                92.382(2)
_cell_volume                     1730.57
loop_
_atom_site_label
_atom_site_type_symbol
_atom_site_fract_x
_atom_site_fract_y
_atom_site_fract_z
H3 H 0.0285 0.7988 0.2146
Zn2 Zn 0.0000 -0.0000 0.5000
O23 O 0.0110(2) 0.14112(15) 0.43115(11)
O28 O 0.17507(19) 0.10693(15) 0.61180(10)
Zn2_2 Zn 1.0000 1.0000 0.5000
O4 O 0.9890(2) 0.85888(15) 0.56885(11)
O6 O 0.9343(2) 0.63989(17) 0.91912(11)
C20 C 0.9795(3) 0.6193(2) 0.78162(16)
C21 C 0.9293(3) 0.7267(2) 0.77232(16)
H15 H 0.8922 0.7708 0.8146
C22 C 0.9347(3) 0.7673(2) 0.70039(16)
H16 H 0.9015 0.8390 0.6944
C23 C 0.9900(3) 0.7011(2) 0.63621(15)
C25 C 0.9829(3) 0.5771(2) 0.86238(16)
O7 O 0.2522(2) 0.48951(16) 0.02879(12)
O8 O 0.1580(2) 0.65061(17) 0.08281(12)
O9 O 0.91086(19) 0.72602(15) 0.33408(11)
O10 O 0.82493(19) 0.89307(15) 0.38820(10)
C26 C 0.5262(3) 0.5992(2) 0.13171(16)
H17 H 0.5184 0.5338 0.0836
C27 C 0.6581(3) 0.6454(2) 0.19419(16)
H18 H 0.7386 0.6112 0.1877
C28 C 0.6707(3) 0.7433(2) 0.26703(16)
C29 C 0.5494(3) 0.7945(2) 0.27446(16)
H19 H 0.5570 0.8605 0.3221
C30 C 0.4182(3) 0.7489(2) 0.21225(17)
H20 H 0.3380 0.7841 0.2181
C31 C 0.4054(3) 0.6499(2) 0.14051(16)
C32 C 0.2604(3) 0.5929(2) 0.07873(16)
C33 C 0.8129(3) 0.7914(2) 0.33578(15)
O27 O 0.0657(2) 0.36011(17) 0.08088(11)
C53 C 0.0205(3) 0.3807(2) 0.21838(16)
C54 C 0.0707(3) 0.2733(2) 0.22768(16)
H36 H 0.1078 0.2292 0.1854
C55 C 0.0653(3) 0.2327(2) 0.29961(16)
H37 H 0.0985 0.1610 0.3056
C56 C 0.0100(3) 0.2989(2) 0.36379(15)
C58 C 0.0171(3) 0.4229(2) 0.13762(16)
O18 O 0.7478(2) 0.51049(16) 0.97121(12)
O19 O 0.8420(2) 0.34939(17) 0.91719(12)
O20 O 0.08914(19) 0.27398(15) 0.66592(11)
C59 C 0.4738(3) 0.4008(2) 0.86829(16)
H38 H 0.4816 0.4662 0.9164
C60 C 0.3419(3) 0.3546(2) 0.80581(16)
H39 H 0.2614 0.3888 0.8123
C61 C 0.3293(3) 0.2567(2) 0.73297(16)
C62 C 0.4506(3) 0.2055(2) 0.72554(16)
H40 H 0.4430 0.1395 0.6779
C63 C 0.5818(3) 0.2511(2) 0.78775(17)
H41 H 0.6620 0.2159 0.7819
C64 C 0.5946(3) 0.3501(2) 0.85949(16)
C65 C 0.7396(3) 0.4071(2) 0.92127(16)
C66 C 0.1871(3) 0.2086(2) 0.66422(15)
Zn2_3 Zn 0.0000 1.0000 0.5000
Zn3 Zn 0.10670(3) 0.76208(2) 0.42049(2)
O1 O 0.2288(2) 0.67142(16) 0.36395(11)
O2 O 0.4072(2) 0.73842(16) 0.49314(11)
N2 N 0.6281(2) 0.28358(18) 0.28010(13)
C6 C 0.7345(3) 0.0829(2) 0.20943(17)
C7 C 0.7070(3) 0.1710(2) 0.16504(17)
H5 H 0.7230 0.1618 0.1103
C8 C 0.6561(3) 0.2719(2) 0.20200(16)
H6 H 0.6408 0.3322 0.1733
C9 C 0.6534(3) 0.2000(2) 0.32477(16)
H7 H 0.6344 0.2105 0.3787
C10 C 0.7075(3) 0.0989(2) 0.29112(16)
H8 H 0.7259 0.0415 0.3224
C11 C 0.5647(3) 0.3883(2) 0.31409(16)
C12 C 0.4403(3) 0.4112(2) 0.25872(16)
H9 H 0.4009 0.3639 0.2002
C13 C 0.3747(3) 0.5062(2) 0.29193(16)
H10 H 0.2898 0.5224 0.2558
C14 C 0.4357(3) 0.5772(2) 0.37901(16)
C15 C 0.5639(3) 0.5540(2) 0.43279(16)
H11 H 0.6057 0.6032 0.4905
C16 C 0.6292(3) 0.4588(2) 0.40137(16)
H12 H 0.7139 0.4420 0.4374
C17 C 0.3539(3) 0.6719(2) 0.41663(16)
O3 O 0.0760(2) 0.69304(15) 0.51417(11)
O5 O 0.0346(2) 0.48210(16) 0.86750(12)
C18 C 0.0309(3) 0.5904(2) 0.64308(15)
H13 H 0.0616 0.5432 0.5987
C19 C 0.0260(3) 0.5504(2) 0.71506(15)
H14 H 0.0542 0.4766 0.7193
C24 C 0.0171(3) 0.7558(2) 0.56718(15)
O11 O 0.1386(2) 0.92996(17) 0.44494(13)
H21 H 0.203(3) 0.961(3) 0.466(2)
Zn11 Zn 0.05661(3) 0.39336(2) 0.96216(2)
N6 N 0.1156(2) 0.23607(18) 0.90429(13)
C34 C 0.2772(3) 0.0918(2) 0.91848(17)
H22 H 0.3540 0.0650 0.9543
C35 C 0.2280(3) 0.1952(2) 0.95267(17)
C36 C 0.0499(3) 0.1736(2) 0.81911(15)
C37 C 0.0946(3) 0.0694(2) 0.77942(16)
H25 H 0.0473 0.0283 0.7201
C38 C 0.2106(3) 0.0275(2) 0.82955(16)
N1 N 0.8844(2) 0.76393(18) 0.09571(13)
C1 C 0.7228(3) 0.9082(2) 0.08152(17)
H1 H 0.6460 0.9350 0.0457
C2 C 0.7720(3) 0.8048(2) 0.04733(17)
C3 C 0.9501(3) 0.8264(2) 0.18089(15)
C4 C 0.9054(3) 0.9306(2) 0.22058(16)
H4 H 0.9527 0.9717 0.2799
C5 C 0.7894(3) 0.9725(2) 0.17045(16)
Zn8 Zn 0.94339(3) 0.60664(2) 0.03784(2)
Zn2_4 Zn 1.0000 -0.0000 0.5000
O29 O 0.8614(2) 0.07004(17) 0.55506(13)
O25 O 0.9654(2) 0.51790(16) 0.13250(12)
Zn5 Zn 0.89330(3) 0.23792(2) 0.57951(2)
O12 O 0.7712(2) 0.32858(16) 0.63605(11)
O13 O 0.5928(2) 0.26158(16) 0.50686(11)
N4 N 0.3719(2) 0.71642(18) 0.71990(13)
C39 C 0.2655(3) 0.9171(2) 0.79057(17)
C40 C 0.2930(3) 0.8290(2) 0.83496(17)
H26 H 0.2770 0.8382 0.8897
C41 C 0.3439(3) 0.7281(2) 0.79800(16)
H27 H 0.3592 0.6678 0.8267
C42 C 0.3466(3) 0.8000(2) 0.67523(16)
H28 H 0.3656 0.7895 0.6213
C43 C 0.2925(3) 0.9011(2) 0.70888(16)
H29 H 0.2741 0.9585 0.6776
C44 C 0.4353(3) 0.6117(2) 0.68591(16)
C45 C 0.5597(3) 0.5888(2) 0.74128(16)
H30 H 0.5991 0.6361 0.7998
C46 C 0.6253(3) 0.4938(2) 0.70807(16)
H31 H 0.7102 0.4776 0.7442
C47 C 0.5643(3) 0.4228(2) 0.62099(16)
C48 C 0.4361(3) 0.4460(2) 0.56721(16)
H32 H 0.3943 0.3968 0.5095
C49 C 0.3708(3) 0.5412(2) 0.59863(16)
H33 H 0.2861 0.5580 0.5626
C50 C 0.6461(3) 0.3281(2) 0.58337(16)
O14 O 0.9240(2) 0.30696(15) 0.48583(11)
C51 C 0.9691(3) 0.4096(2) 0.35692(15)
H34 H 0.9384 0.4568 0.4013
C52 C 0.9740(3) 0.4496(2) 0.28494(15)
H35 H 0.9458 0.5234 0.2807
C57 C 0.9829(3) 0.2442(2) 0.43282(15)
H42 H 0.797(3) 0.039(3) 0.534(2)
H2 H 0.7256 0.7615 0.9884
H23 H 0.2744 0.2385 0.0116
H24 H 0.9715 0.2012 0.7854
loop_
_geom_bond_atom_site_label_1
_geom_bond_atom_site_label_2
_geom_bond_site_symmetry_1
_geom_bond_site_symmetry_2
O23 Zn2 1_555 1_555
O28 Zn2 1_555 1_555
Zn2_2 O4 1_555 1_555
O6 C25 1_555 1_555
C21 C20 1_555 1_555
H15 C21 1_555 1_555
C22 C21 1_555 1_555
H16 C22 1_555 1_555
C25 C20 1_555 1_555
O7 C32 1_555 1_555
O8 C32 1_555 1_555
O10 Zn2_2 1_555 1_555
C26 H17 1_555 1_555
C27 C26 1_555 1_555
H18 C27 1_555 1_555
C28 C27 1_555 1_555
C29 C28 1_555 1_555
H19 C29 1_555 1_555
C30 C29 1_555 1_555
H20 C30 1_555 1_555
C31 C26 1_555 1_555
C32 C31 1_555 1_555
C33 O9 1_555 1_555
C22 C23 1_555 1_555
O10 C33 1_555 1_555
C28 C33 1_555 1_555
C30 C31 1_555 1_555
O27 C58 1_555 1_555
C54 C53 1_555 1_555
H36 C54 1_555 1_555
C55 C54 1_555 1_555
H37 C55 1_555 1_555
C58 C53 1_555 1_555
O28 C66 1_555 1_555
C59 H38 1_555 1_555
C60 C59 1_555 1_555
H39 C60 1_555 1_555
C61 C60 1_555 1_555
C62 C61 1_555 1_555
H40 C62 1_555 1_555
C63 C62 1_555 1_555
H41 C63 1_555 1_555
C64 C59 1_555 1_555
C65 O18 1_555 1_555
C66 O20 1_555 1_555
C55 C56 1_555 1_555
O19 C65 1_555 1_555
C61 C66 1_555 1_555
C63 C64 1_555 1_555
C64 C65 1_555 1_555
Zn3 O1 1_555 1_555
O1 C17 1_555 1_555
O2 C17 1_555 1_555
N2 C8 1_555 1_555
C7 C6 1_555 1_555
H5 C7 1_555 1_555
C8 C7 1_555 1_555
H6 C8 1_555 1_555
C9 N2 1_555 1_555
H7 C9 1_555 1_555
C10 C6 1_555 1_555
H8 C10 1_555 1_555
C11 N2 1_555 1_555
C12 C11 1_555 1_555
H9 C12 1_555 1_555
C13 C12 1_555 1_555
H10 C13 1_555 1_555
C14 C13 1_555 1_555
C15 C14 1_555 1_555
H11 C15 1_555 1_555
C16 C11 1_555 1_555
H12 C16 1_555 1_555
C17 C14 1_555 1_555
O3 Zn3 1_555 1_555
C18 H13 1_555 1_555
C19 C18 1_555 1_555
H14 C19 1_555 1_555
C24 O3 1_555 1_555
O11 Zn2_3 1_555 1_555
H21 O11 1_555 1_555
Zn11 O5 1_555 1_555
Zn3 O11 1_555 1_555
C9 C10 1_555 1_555
C15 C16 1_555 1_555
N6 Zn11 1_555 1_555
N6 C35 1_555 1_555
C34 H22 1_555 1_555
C35 C34 1_555 1_555
C36 N6 1_555 1_555
C37 C36 1_555 1_555
H25 C37 1_555 1_555
C38 C34 1_555 1_555
C37 C38 1_555 1_555
N1 C2 1_555 1_555
C1 H1 1_555 1_555
C2 C1 1_555 1_555
C3 N1 1_555 1_555
C4 C3 1_555 1_555
H4 C4 1_555 1_555
C5 C1 1_555 1_555
Zn8 N1 1_555 1_555
C4 C5 1_555 1_555
O29 Zn2_4 1_555 1_555
O25 Zn8 1_555 1_555
Zn5 O12 1_555 1_555
O12 C50 1_555 1_555
O13 C50 1_555 1_555
N4 C41 1_555 1_555
C40 C39 1_555 1_555
H26 C40 1_555 1_555
C41 C40 1_555 1_555
H27 C41 1_555 1_555
C42 N4 1_555 1_555
H28 C42 1_555 1_555
C43 C39 1_555 1_555
H29 C43 1_555 1_555
C44 N4 1_555 1_555
C45 C44 1_555 1_555
H30 C45 1_555 1_555
C46 C45 1_555 1_555
H31 C46 1_555 1_555
C47 C46 1_555 1_555
C48 C47 1_555 1_555
H32 C48 1_555 1_555
C49 C44 1_555 1_555
H33 C49 1_555 1_555
C50 C47 1_555 1_555
O14 Zn5 1_555 1_555
C51 H34 1_555 1_555
C52 C51 1_555 1_555
H35 C52 1_555 1_555
C57 O14 1_555 1_555
O29 Zn5 1_555 1_555
H42 O29 1_555 1_555
C42 C43 1_555 1_555
C48 C49 1_555 1_555

#END
