
###############################################################################
#
# This file contains modified crystal structure data generated from the
# MOF subset of the Cambridge Structural Database (CSD) v543 
# hosted by the Cambridge Crystallographic Data Centre (CCDC).
#
# This work is licensed under the Creative Commons
# Attribution-NonCommercial-ShareAlike 4.0 International License.
# To view a copy of this license, visit
# http://creativecommons.org/licenses/by-nc-sa/4.0/
# or send a letter to
# Creative Commons, PO Box 1866, Mountain View, CA 94042, USA.
#
# CIF created using the CSD Python API on 29 September 2022
# The structure has been converted into the P1 space group
# The structure has a 3D framework
# The original CSD entry OWUCER01 is in the triclinic crystal system
# The framework has been calculated to contain at least 10.0% void space
# The void calculation uses a probe of radius 1.32A, grid spacing 0.4
#
###############################################################################

data_OWUCER01
_chemical_formula_moiety         '(C66 H42 N4 O22 Zn5)n'
_symmetry_cell_setting           triclinic
_symmetry_space_group_name_H-M   'P 1'
_symmetry_Int_Tables_number      1
_space_group_name_Hall           'P 1'
loop_
_symmetry_equiv_pos_site_id
_symmetry_equiv_pos_as_xyz
1 x,y,z
_cell_length_a                   9.9784(2)
_cell_length_b                   11.7007(3)
_cell_length_c                   16.3084(4)
_cell_angle_alpha                105.335(2)
_cell_angle_beta                 72.272(2)
_cell_angle_gamma                91.730(2)
_cell_volume                     1746.45
loop_
_atom_site_label
_atom_site_type_symbol
_atom_site_fract_x
_atom_site_fract_y
_atom_site_fract_z
N1 N 0.34362(19) 0.28131(16) 0.27907(11)
C1 C 0.0521(2) 0.57435(19) 0.38028(14)
C2 C 0.2469(2) 0.38664(19) 0.31430(14)
C5 C 0.0742(2) 0.5027(2) 0.29468(15)
H1 H 0.0223 0.5182 0.2598
C9 C 0.3266(2) 0.19783(19) 0.32381(14)
H3 H 0.2552 0.2081 0.3778
C14 C 0.4154(2) 0.09653(19) 0.28933(14)
H5 H 0.4051 0.0395 0.3208
C15 C 0.1316(2) 0.5532(2) 0.43176(14)
H6 H 0.1194 0.6034 0.4885
C20 C 0.1728(2) 0.4079(2) 0.26041(15)
H11 H 0.1887 0.3599 0.2026
C25 C 0.4471(3) 0.2693(2) 0.20084(15)
H14 H 0.4591 0.3296 0.1722
C26 C 0.2292(2) 0.4575(2) 0.39906(15)
H15 H 0.2814 0.4417 0.4337
C27 C 0.5199(2) 0.0801(2) 0.20764(14)
C31 C 0.5344(3) 0.1687(2) 0.16356(15)
H18 H 0.6034 0.1595 0.1087
N2 N 0.78499(19) 0.76235(16) 0.09451(11)
C17 C 0.6803(2) 0.92799(19) 0.21860(14)
H8 H 0.6684 0.9683 0.2779
C21 C 0.7648(2) 0.82437(18) 0.17867(13)
H12 H 0.8098 0.7967 0.2125
C30 C 0.6139(2) 0.9704(2) 0.16857(14)
C32 C 0.7191(3) 0.8034(2) 0.04681(15)
C33 C 0.6366(3) 0.9061(2) 0.08063(16)
H20 H 0.5954 0.9329 0.0446
Zn9 Zn 0.90541(2) 0.60668(2) 0.03759(2)
Zn3 Zn 0.5000 0.0000 0.5000
O23 O 0.56330(16) 0.11056(13) 0.61217(9)
O24 O 0.58457(17) 0.13877(15) 0.42829(10)
O27 O 0.31122(18) 0.07399(15) 0.55033(13)
O26 O 0.98248(18) 0.35653(16) 0.07839(10)
Zn5 Zn 0.31952(2) 0.24108(2) 0.57753(2)
O12 O 0.42393(16) 0.27669(13) 0.66624(10)
O14 O 0.14266(17) 0.33231(15) 0.63134(11)
O15 O 0.44587(17) 0.30577(14) 0.48348(10)
O17 O 0.83286(19) 0.51504(15) 0.12998(10)
O19 O 0.08561(19) 0.26307(16) 0.50632(11)
O21 O 0.78433(19) 0.50986(15) 0.96694(11)
O22 O 0.93107(18) 0.34951(16) 0.91278(11)
C36 C 0.8013(2) 0.37637(19) 0.21444(13)
C37 C 0.7411(2) 0.35115(19) 0.85610(14)
C39 C 0.8781(2) 0.4191(2) 0.13447(13)
C40 C 0.6900(2) 0.44594(19) 0.28114(14)
H23 H 0.6657 0.5199 0.2772
C41 C 0.0665(2) 0.33047(19) 0.58110(14)
C43 C 0.5241(2) 0.21124(18) 0.66405(13)
C44 C 0.5987(2) 0.25969(18) 0.73228(13)
C45 C 0.8407(2) 0.2685(2) 0.22339(15)
H25 H 0.9178 0.2233 0.1803
C46 C 0.6488(2) 0.29505(19) 0.36012(13)
C49 C 0.6155(2) 0.40541(19) 0.35327(14)
H28 H 0.5419 0.4529 0.3980
C51 C 0.6107(2) 0.4017(2) 0.86581(14)
H30 H 0.5709 0.4667 0.9140
C52 C 0.7662(2) 0.2279(2) 0.29561(15)
H31 H 0.7940 0.1561 0.3014
C55 C 0.8247(2) 0.4073(2) 0.91725(14)
C56 C 0.5403(2) 0.3563(2) 0.80459(14)
H34 H 0.4532 0.3906 0.8118
C57 C 0.5556(2) 0.24191(19) 0.43010(13)
C61 C 0.7276(2) 0.2077(2) 0.72350(15)
H37 H 0.7668 0.1419 0.6759
C62 C 0.7974(2) 0.2531(2) 0.78482(15)
H38 H 0.8834 0.2175 0.7784
H42 H 0.256(3) 0.041(3) 0.535(2)
H19 H 0.7302 0.7601 0.9882
O28 O 0.21567(19) 0.49014(15) 0.03306(11)
Zn1 Zn 0.09459(2) 0.39332(2) 0.96241(2)
Zn2 Zn 0.68048(2) 0.75892(2) 0.42247(2)
Zn3_2 Zn 0.5000 1.0000 0.5000
O1 O 0.57607(16) 0.72331(13) 0.33376(10)
O2 O 0.43670(16) 0.88944(13) 0.38783(9)
O3 O 0.85734(17) 0.66769(15) 0.36866(11)
O4 O 0.55413(17) 0.69423(14) 0.51652(10)
O5 O 0.41543(17) 0.86123(15) 0.57171(10)
O6 O 0.16714(19) 0.48496(15) 0.87002(10)
O7 O 0.01752(18) 0.64347(16) 0.92161(10)
O8 O 0.91439(19) 0.73693(16) 0.49368(11)
O9 O 0.68878(18) 0.92601(15) 0.44967(13)
O11 O 0.06893(18) 0.65049(16) 0.08722(11)
C3 C 0.1987(2) 0.62363(19) 0.78556(13)
C4 C 0.2589(2) 0.64885(19) 0.14390(14)
C6 C 0.1219(2) 0.5809(2) 0.86553(13)
C7 C 0.3100(2) 0.55406(19) 0.71886(14)
H2 H 0.3343 0.4801 0.7228
C8 C 0.9335(2) 0.66953(19) 0.41890(14)
C10 C 0.4759(2) 0.78876(18) 0.33595(13)
C11 C 0.4013(2) 0.74031(18) 0.26772(13)
C12 C 0.1593(2) 0.7315(2) 0.77661(15)
H4 H 0.0822 0.7767 0.8197
C13 C 0.3512(2) 0.70495(19) 0.63988(13)
C16 C 0.3845(2) 0.59459(19) 0.64673(14)
H7 H 0.4581 0.5471 0.6020
C18 C 0.3893(2) 0.5983(2) 0.13419(14)
H9 H 0.4291 0.5333 0.0860
C19 C 0.2338(2) 0.7721(2) 0.70439(15)
H10 H 0.2060 0.8439 0.6986
C22 C 0.1753(2) 0.5927(2) 0.08275(14)
C23 C 0.4597(2) 0.6437(2) 0.19541(14)
H13 H 0.5468 0.6094 0.1882
C24 C 0.4444(2) 0.75809(19) 0.56990(13)
C28 C 0.2724(2) 0.7923(2) 0.27650(15)
H16 H 0.2332 0.8581 0.3241
C29 C 0.2026(2) 0.7469(2) 0.21518(15)
H17 H 0.1166 0.7825 0.2216
H21 H 0.744(3) 0.959(3) 0.465(2)
N6 N 0.21501(19) 0.23765(16) 0.90549(11)
C50 C 0.3197(2) 0.07201(19) 0.78140(14)
H29 H 0.3316 0.0317 0.7221
C54 C 0.2352(2) 0.17563(18) 0.82133(13)
H33 H 0.1902 0.2033 0.7875
C63 C 0.3861(2) 0.0296(2) 0.83143(14)
C65 C 0.2809(3) 0.1966(2) 0.95319(15)
C66 C 0.3634(3) 0.0939(2) 0.91937(16)
H41 H 0.4046 0.0671 0.9554
H40 H 0.2698 0.2399 0.0118
N3 N 0.65638(19) 0.71869(16) 0.72093(11)
C34 C 0.9479(2) 0.42565(19) 0.61972(14)
C35 C 0.7531(2) 0.61336(19) 0.68570(14)
C38 C 0.9258(2) 0.4973(2) 0.70532(15)
H22 H 0.9777 0.4818 0.7402
C42 C 0.6734(2) 0.80217(19) 0.67619(14)
H24 H 0.7448 0.7919 0.6222
C47 C 0.5846(2) 0.90347(19) 0.71067(14)
H26 H 0.5949 0.9605 0.6792
C48 C 0.8684(2) 0.4468(2) 0.56824(14)
H27 H 0.8806 0.3966 0.5115
C53 C 0.8272(2) 0.5921(2) 0.73959(15)
H32 H 0.8113 0.6401 0.7974
C58 C 0.5529(3) 0.7307(2) 0.79916(15)
H35 H 0.5409 0.6704 0.8278
C59 C 0.7708(2) 0.5425(2) 0.60094(15)
H36 H 0.7186 0.5583 0.5663
C60 C 0.4801(2) 0.9199(2) 0.79236(14)
C64 C 0.4656(3) 0.8313(2) 0.83644(15)
H39 H 0.3966 0.8405 0.8913
loop_
_geom_bond_atom_site_label_1
_geom_bond_atom_site_label_2
_geom_bond_site_symmetry_1
_geom_bond_site_symmetry_2
N1 C2 1_555 1_555
C1 C5 1_555 1_555
C2 C20 1_555 1_555
C5 H1 1_555 1_555
C9 N1 1_555 1_555
H3 C9 1_555 1_555
C14 C9 1_555 1_555
H5 C14 1_555 1_555
C15 C1 1_555 1_555
H6 C15 1_555 1_555
C20 C5 1_555 1_555
H11 C20 1_555 1_555
C25 N1 1_555 1_555
H14 C25 1_555 1_555
C26 C2 1_555 1_555
H15 C26 1_555 1_555
C27 C14 1_555 1_555
C31 C25 1_555 1_555
H18 C31 1_555 1_555
C15 C26 1_555 1_555
C27 C31 1_555 1_555
N2 C21 1_555 1_555
C17 H8 1_555 1_555
C21 C17 1_555 1_555
H12 C21 1_555 1_555
C30 C17 1_555 1_555
C32 N2 1_555 1_555
C33 C30 1_555 1_555
H20 C33 1_555 1_555
Zn9 N2 1_555 1_555
C32 C33 1_555 1_555
O23 Zn3 1_555 1_555
O24 Zn3 1_555 1_555
O27 Zn3 1_555 1_555
Zn5 O12 1_555 1_555
O12 C43 1_555 1_555
O23 C43 1_555 1_555
O14 Zn5 1_555 1_555
O15 Zn5 1_555 1_555
O24 C57 1_555 1_555
O17 Zn9 1_555 1_555
O26 C39 1_555 1_555
O19 C41 1_555 1_555
O27 Zn5 1_555 1_555
O21 C55 1_555 1_555
C36 C39 1_555 1_555
C37 C51 1_555 1_555
C39 O17 1_555 1_555
C40 C36 1_555 1_555
H23 C40 1_555 1_555
C41 O14 1_555 1_555
C43 C44 1_555 1_555
C44 C56 1_555 1_555
C45 C36 1_555 1_555
H25 C45 1_555 1_555
C46 C49 1_555 1_555
C49 C40 1_555 1_555
H28 C49 1_555 1_555
C51 H30 1_555 1_555
C52 C45 1_555 1_555
H31 C52 1_555 1_555
C55 O22 1_555 1_555
C56 C51 1_555 1_555
H34 C56 1_555 1_555
C57 O15 1_555 1_555
C61 C44 1_555 1_555
H37 C61 1_555 1_555
C62 C37 1_555 1_555
H38 C62 1_555 1_555
H42 O27 1_555 1_555
C37 C55 1_555 1_555
C46 C52 1_555 1_555
C46 C57 1_555 1_555
C61 C62 1_555 1_555
Zn1 O6 1_555 1_555
Zn2 O1 1_555 1_555
Zn3_2 O2 1_555 1_555
O1 C10 1_555 1_555
O2 C10 1_555 1_555
O3 Zn2 1_555 1_555
O4 Zn2 1_555 1_555
O5 Zn3_2 1_555 1_555
O6 C6 1_555 1_555
O7 C6 1_555 1_555
O8 C8 1_555 1_555
O9 Zn2 1_555 1_555
O28 C22 1_555 1_555
O11 C22 1_555 1_555
C3 C6 1_555 1_555
C4 C18 1_555 1_555
C7 C3 1_555 1_555
H2 C7 1_555 1_555
C8 O3 1_555 1_555
C10 C11 1_555 1_555
C11 C23 1_555 1_555
C12 C3 1_555 1_555
H4 C12 1_555 1_555
C13 C16 1_555 1_555
C16 C7 1_555 1_555
H7 C16 1_555 1_555
C18 H9 1_555 1_555
C19 C12 1_555 1_555
H10 C19 1_555 1_555
C22 C4 1_555 1_555
C23 C18 1_555 1_555
H13 C23 1_555 1_555
C24 O4 1_555 1_555
C28 C11 1_555 1_555
H16 C28 1_555 1_555
C29 C4 1_555 1_555
H17 C29 1_555 1_555
H21 O9 1_555 1_555
N6 Zn1 1_555 1_555
Zn3_2 O9 1_555 1_555
O5 C24 1_555 1_555
C13 C19 1_555 1_555
C13 C24 1_555 1_555
C28 C29 1_555 1_555
N6 C54 1_555 1_555
C50 H29 1_555 1_555
C54 C50 1_555 1_555
H33 C54 1_555 1_555
C63 C50 1_555 1_555
C65 N6 1_555 1_555
C66 C63 1_555 1_555
H41 C66 1_555 1_555
C65 C66 1_555 1_555
N3 C35 1_555 1_555
C34 C38 1_555 1_555
C35 C53 1_555 1_555
C38 H22 1_555 1_555
C42 N3 1_555 1_555
H24 C42 1_555 1_555
C47 C42 1_555 1_555
H26 C47 1_555 1_555
C48 C34 1_555 1_555
H27 C48 1_555 1_555
C53 C38 1_555 1_555
H32 C53 1_555 1_555
C58 N3 1_555 1_555
H35 C58 1_555 1_555
C59 C35 1_555 1_555
H36 C59 1_555 1_555
C60 C47 1_555 1_555
C64 C58 1_555 1_555
H39 C64 1_555 1_555
C48 C59 1_555 1_555
C60 C64 1_555 1_555

#END
