
###############################################################################
#
# This file contains modified crystal structure data generated from the
# MOF subset of the Cambridge Structural Database (CSD) v543 
# hosted by the Cambridge Crystallographic Data Centre (CCDC).
#
# This work is licensed under the Creative Commons
# Attribution-NonCommercial-ShareAlike 4.0 International License.
# To view a copy of this license, visit
# http://creativecommons.org/licenses/by-nc-sa/4.0/
# or send a letter to
# Creative Commons, PO Box 1866, Mountain View, CA 94042, USA.
#
# CIF created using the CSD Python API on 29 September 2022
# The structure has been converted into the P1 space group
# The structure has a 3D framework
# The original CSD entry OWUCER02 is in the triclinic crystal system
# The framework has been calculated to contain at least 10.0% void space
# The void calculation uses a probe of radius 1.32A, grid spacing 0.4
#
###############################################################################

data_OWUCER02
_chemical_formula_moiety         '(C66 H42 N4 O22 Zn5)n'
_symmetry_cell_setting           triclinic
_symmetry_space_group_name_H-M   'P 1'
_symmetry_Int_Tables_number      1
_space_group_name_Hall           'P 1'
loop_
_symmetry_equiv_pos_site_id
_symmetry_equiv_pos_as_xyz
1 x,y,z
_cell_length_a                   9.9727(2)
_cell_length_b                   11.6983(2)
_cell_length_c                   16.3121(3)
_cell_angle_alpha                105.282(2)
_cell_angle_beta                 72.345(2)
_cell_angle_gamma                91.728(2)
_cell_volume                     1746.71
loop_
_atom_site_label
_atom_site_type_symbol
_atom_site_fract_x
_atom_site_fract_y
_atom_site_fract_z
N1 N 0.3438(2) 0.28117(16) 0.27888(13)
C1 C 0.0525(2) 0.57394(19) 0.38056(16)
C2 C 0.2466(2) 0.38646(19) 0.31417(16)
C5 C 0.0735(3) 0.5028(2) 0.29521(17)
H1 H 0.0215 0.5189 0.2605
C9 C 0.3271(3) 0.1976(2) 0.32345(16)
H3 H 0.2564 0.2082 0.3777
C14 C 0.4149(3) 0.0961(2) 0.28882(17)
H5 H 0.4042 0.0386 0.3200
C15 C 0.1323(3) 0.5534(2) 0.43154(17)
H6 H 0.1207 0.6039 0.4881
C20 C 0.1717(3) 0.4074(2) 0.26071(18)
H11 H 0.1866 0.3589 0.2031
C25 C 0.4463(3) 0.2688(2) 0.20060(18)
H14 H 0.4576 0.3289 0.1718
C26 C 0.2303(3) 0.4572(2) 0.39850(17)
H15 H 0.2832 0.4414 0.4328
C27 C 0.5194(3) 0.0801(2) 0.20727(17)
C31 C 0.5339(3) 0.1685(2) 0.16305(18)
H18 H 0.6027 0.1596 0.1082
N2 N 0.7841(2) 0.76307(16) 0.09414(13)
C17 C 0.6804(2) 0.92820(19) 0.21765(16)
H8 H 0.6685 0.9686 0.2769
C21 C 0.7651(2) 0.82465(18) 0.17808(15)
H12 H 0.8106 0.7971 0.2117
C30 C 0.6139(3) 0.9706(2) 0.16797(17)
C32 C 0.7198(3) 0.8037(2) 0.04683(19)
C33 C 0.6356(4) 0.9060(3) 0.08011(19)
H20 H 0.5934 0.9320 0.0441
Zn9 Zn 0.90530(2) 0.60672(2) 0.03749(2)
Zn3 Zn 0.5000 0.0000 0.5000
O23 O 0.56250(18) 0.11099(14) 0.61245(11)
O24 O 0.58544(19) 0.13832(15) 0.42813(12)
O27 O 0.3113(2) 0.07420(15) 0.54868(14)
O26 O 0.98217(19) 0.35642(16) 0.07829(12)
Zn5 Zn 0.31996(3) 0.24139(2) 0.57720(2)
O12 O 0.42327(18) 0.27731(14) 0.66668(11)
O14 O 0.14357(18) 0.33287(16) 0.63049(13)
O15 O 0.44776(18) 0.30507(15) 0.48314(11)
O17 O 0.8324(2) 0.51488(16) 0.12993(12)
O19 O 0.0853(2) 0.26329(17) 0.50577(13)
O21 O 0.7840(2) 0.50954(16) 0.96702(13)
O22 O 0.9317(2) 0.34905(16) 0.91247(14)
C36 C 0.8014(2) 0.37605(19) 0.21400(16)
C37 C 0.7410(2) 0.3514(2) 0.85613(16)
C39 C 0.8781(3) 0.4183(2) 0.13458(16)
C40 C 0.6910(3) 0.44528(19) 0.28087(16)
H23 H 0.6670 0.5194 0.2770
C41 C 0.0670(2) 0.33078(19) 0.58060(17)
C43 C 0.5237(2) 0.21184(19) 0.66406(15)
C44 C 0.5982(2) 0.25989(19) 0.73243(15)
C45 C 0.8410(3) 0.2677(2) 0.22307(17)
H25 H 0.9181 0.2224 0.1801
C46 C 0.6503(2) 0.29444(19) 0.35981(16)
C49 C 0.6165(3) 0.40521(19) 0.35315(16)
H28 H 0.5430 0.4528 0.3978
C51 C 0.6111(3) 0.4018(2) 0.86579(16)
H30 H 0.5714 0.4666 0.9140
C52 C 0.7670(3) 0.2277(2) 0.29496(17)
H31 H 0.7946 0.1556 0.3006
C55 C 0.8248(3) 0.4077(2) 0.91683(17)
C56 C 0.5405(3) 0.3568(2) 0.80463(16)
H34 H 0.4536 0.3915 0.8117
C57 C 0.5561(2) 0.2413(2) 0.42984(15)
C61 C 0.7277(3) 0.2081(2) 0.72351(17)
H37 H 0.7671 0.1428 0.6757
C62 C 0.7971(3) 0.2529(2) 0.78470(18)
H38 H 0.8829 0.2170 0.7784
H42 H 0.250(3) 0.038(3) 0.540(2)
H19 H 0.7323 0.7606 0.9881
O28 O 0.2160(2) 0.49046(16) 0.03298(13)
Zn1 Zn 0.09470(2) 0.39328(2) 0.96251(2)
Zn2 Zn 0.68004(3) 0.75861(2) 0.42280(2)
Zn3_2 Zn 0.5000 1.0000 0.5000
O1 O 0.57673(18) 0.72269(14) 0.33332(11)
O2 O 0.43750(18) 0.88901(14) 0.38755(11)
O3 O 0.85643(18) 0.66713(16) 0.36951(13)
O4 O 0.55224(18) 0.69493(15) 0.51686(11)
O5 O 0.41456(19) 0.86168(15) 0.57187(12)
O6 O 0.1676(2) 0.48512(16) 0.87007(12)
O7 O 0.01783(19) 0.64358(16) 0.92171(12)
O8 O 0.9147(2) 0.73671(17) 0.49423(13)
O9 O 0.6887(2) 0.92580(15) 0.45132(14)
O11 O 0.0683(2) 0.65095(16) 0.08753(14)
C3 C 0.1986(2) 0.62395(19) 0.78600(16)
C4 C 0.2590(2) 0.6486(2) 0.14387(16)
C6 C 0.1219(3) 0.5817(2) 0.86542(16)
C7 C 0.3090(3) 0.55472(19) 0.71913(16)
H2 H 0.3330 0.4806 0.7230
C8 C 0.9330(2) 0.66922(19) 0.41940(17)
C10 C 0.4763(2) 0.78816(19) 0.33594(15)
C11 C 0.4018(2) 0.74011(19) 0.26757(15)
C12 C 0.1590(3) 0.7323(2) 0.77693(17)
H4 H 0.0819 0.7776 0.8199
C13 C 0.3497(2) 0.70556(19) 0.64019(16)
C16 C 0.3835(3) 0.59479(19) 0.64685(16)
H7 H 0.4570 0.5472 0.6022
C18 C 0.3889(3) 0.5982(2) 0.13421(16)
H9 H 0.4286 0.5334 0.0860
C19 C 0.2330(3) 0.7723(2) 0.70504(17)
H10 H 0.2054 0.8444 0.6994
C22 C 0.1752(3) 0.5923(2) 0.08317(17)
C23 C 0.4595(3) 0.6432(2) 0.19537(16)
H13 H 0.5464 0.6085 0.1883
C24 C 0.4439(2) 0.7587(2) 0.57016(15)
C28 C 0.2723(3) 0.7919(2) 0.27649(17)
H16 H 0.2329 0.8572 0.3243
C29 C 0.2029(3) 0.7471(2) 0.21530(18)
H17 H 0.1171 0.7830 0.2216
H21 H 0.750(3) 0.962(3) 0.460(2)
N6 N 0.2159(2) 0.23693(16) 0.90586(13)
C50 C 0.3196(2) 0.07180(19) 0.78235(16)
H29 H 0.3315 0.0314 0.7231
C54 C 0.2349(2) 0.17535(18) 0.82192(15)
H33 H 0.1894 0.2029 0.7883
C63 C 0.3861(3) 0.0294(2) 0.83203(17)
C65 C 0.2802(3) 0.1963(2) 0.95317(19)
C66 C 0.3644(4) 0.0940(3) 0.91989(19)
H41 H 0.4066 0.0680 0.9559
H40 H 0.2677 0.2394 0.0119
N3 N 0.6562(2) 0.71883(16) 0.72112(13)
C34 C 0.9475(2) 0.42606(19) 0.61944(16)
C35 C 0.7534(2) 0.61354(19) 0.68583(16)
C38 C 0.9265(3) 0.4972(2) 0.70479(17)
H22 H 0.9785 0.4811 0.7395
C42 C 0.6729(3) 0.8024(2) 0.67655(16)
H24 H 0.7436 0.7918 0.6223
C47 C 0.5851(3) 0.9039(2) 0.71118(17)
H26 H 0.5958 0.9614 0.6800
C48 C 0.8677(3) 0.4466(2) 0.56846(17)
H27 H 0.8793 0.3961 0.5119
C53 C 0.8283(3) 0.5926(2) 0.73929(18)
H32 H 0.8134 0.6411 0.7969
C58 C 0.5537(3) 0.7312(2) 0.79940(18)
H35 H 0.5424 0.6711 0.8282
C59 C 0.7697(3) 0.5428(2) 0.60150(17)
H36 H 0.7168 0.5586 0.5672
C60 C 0.4806(3) 0.9199(2) 0.79273(17)
C64 C 0.4661(3) 0.8315(2) 0.83695(18)
H39 H 0.3973 0.8404 0.8918
loop_
_geom_bond_atom_site_label_1
_geom_bond_atom_site_label_2
_geom_bond_site_symmetry_1
_geom_bond_site_symmetry_2
N1 C2 1_555 1_555
C1 C5 1_555 1_555
C2 C20 1_555 1_555
C5 H1 1_555 1_555
C9 N1 1_555 1_555
H3 C9 1_555 1_555
C14 C9 1_555 1_555
H5 C14 1_555 1_555
C15 C1 1_555 1_555
H6 C15 1_555 1_555
C20 C5 1_555 1_555
H11 C20 1_555 1_555
C25 N1 1_555 1_555
H14 C25 1_555 1_555
C26 C2 1_555 1_555
H15 C26 1_555 1_555
C27 C14 1_555 1_555
C31 C25 1_555 1_555
H18 C31 1_555 1_555
C15 C26 1_555 1_555
C27 C31 1_555 1_555
N2 C21 1_555 1_555
C17 H8 1_555 1_555
C21 C17 1_555 1_555
H12 C21 1_555 1_555
C30 C17 1_555 1_555
C32 N2 1_555 1_555
C33 C30 1_555 1_555
H20 C33 1_555 1_555
Zn9 N2 1_555 1_555
C32 C33 1_555 1_555
O23 Zn3 1_555 1_555
O24 Zn3 1_555 1_555
O27 Zn3 1_555 1_555
Zn5 O12 1_555 1_555
O12 C43 1_555 1_555
O23 C43 1_555 1_555
O14 Zn5 1_555 1_555
O15 Zn5 1_555 1_555
O24 C57 1_555 1_555
O17 Zn9 1_555 1_555
O26 C39 1_555 1_555
O19 C41 1_555 1_555
O27 Zn5 1_555 1_555
O21 C55 1_555 1_555
C36 C39 1_555 1_555
C37 C51 1_555 1_555
C39 O17 1_555 1_555
C40 C36 1_555 1_555
H23 C40 1_555 1_555
C41 O14 1_555 1_555
C43 C44 1_555 1_555
C44 C56 1_555 1_555
C45 C36 1_555 1_555
H25 C45 1_555 1_555
C46 C49 1_555 1_555
C49 C40 1_555 1_555
H28 C49 1_555 1_555
C51 H30 1_555 1_555
C52 C45 1_555 1_555
H31 C52 1_555 1_555
C55 O22 1_555 1_555
C56 C51 1_555 1_555
H34 C56 1_555 1_555
C57 O15 1_555 1_555
C61 C44 1_555 1_555
H37 C61 1_555 1_555
C62 C37 1_555 1_555
H38 C62 1_555 1_555
H42 O27 1_555 1_555
C37 C55 1_555 1_555
C46 C52 1_555 1_555
C46 C57 1_555 1_555
C61 C62 1_555 1_555
Zn1 O6 1_555 1_555
Zn2 O1 1_555 1_555
Zn3_2 O2 1_555 1_555
O1 C10 1_555 1_555
O2 C10 1_555 1_555
O3 Zn2 1_555 1_555
O4 Zn2 1_555 1_555
O5 Zn3_2 1_555 1_555
O6 C6 1_555 1_555
O7 C6 1_555 1_555
O8 C8 1_555 1_555
O9 Zn2 1_555 1_555
O28 C22 1_555 1_555
O11 C22 1_555 1_555
C3 C6 1_555 1_555
C4 C18 1_555 1_555
C7 C3 1_555 1_555
H2 C7 1_555 1_555
C8 O3 1_555 1_555
C10 C11 1_555 1_555
C11 C23 1_555 1_555
C12 C3 1_555 1_555
H4 C12 1_555 1_555
C13 C16 1_555 1_555
C16 C7 1_555 1_555
H7 C16 1_555 1_555
C18 H9 1_555 1_555
C19 C12 1_555 1_555
H10 C19 1_555 1_555
C22 C4 1_555 1_555
C23 C18 1_555 1_555
H13 C23 1_555 1_555
C24 O4 1_555 1_555
C28 C11 1_555 1_555
H16 C28 1_555 1_555
C29 C4 1_555 1_555
H17 C29 1_555 1_555
H21 O9 1_555 1_555
N6 Zn1 1_555 1_555
Zn3_2 O9 1_555 1_555
O5 C24 1_555 1_555
C13 C19 1_555 1_555
C13 C24 1_555 1_555
C28 C29 1_555 1_555
N6 C54 1_555 1_555
C50 H29 1_555 1_555
C54 C50 1_555 1_555
H33 C54 1_555 1_555
C63 C50 1_555 1_555
C65 N6 1_555 1_555
C66 C63 1_555 1_555
H41 C66 1_555 1_555
C65 C66 1_555 1_555
N3 C35 1_555 1_555
C34 C38 1_555 1_555
C35 C53 1_555 1_555
C38 H22 1_555 1_555
C42 N3 1_555 1_555
H24 C42 1_555 1_555
C47 C42 1_555 1_555
H26 C47 1_555 1_555
C48 C34 1_555 1_555
H27 C48 1_555 1_555
C53 C38 1_555 1_555
H32 C53 1_555 1_555
C58 N3 1_555 1_555
H35 C58 1_555 1_555
C59 C35 1_555 1_555
H36 C59 1_555 1_555
C60 C47 1_555 1_555
C64 C58 1_555 1_555
H39 C64 1_555 1_555
C48 C59 1_555 1_555
C60 C64 1_555 1_555

#END
