
###############################################################################
#
# This file contains modified crystal structure data generated from the
# MOF subset of the Cambridge Structural Database (CSD) v543 
# hosted by the Cambridge Crystallographic Data Centre (CCDC).
#
# This work is licensed under the Creative Commons
# Attribution-NonCommercial-ShareAlike 4.0 International License.
# To view a copy of this license, visit
# http://creativecommons.org/licenses/by-nc-sa/4.0/
# or send a letter to
# Creative Commons, PO Box 1866, Mountain View, CA 94042, USA.
#
# CIF created using the CSD Python API on 29 September 2022
# The structure has been converted into the P1 space group
# The structure has a 3D framework
# The original CSD entry OWUCER03 is in the triclinic crystal system
# The framework has been calculated to contain at least 10.0% void space
# The void calculation uses a probe of radius 1.32A, grid spacing 0.4
#
###############################################################################

data_OWUCER03
_chemical_formula_moiety         '(C66 H42 N4 O22 Zn5)n'
_symmetry_cell_setting           triclinic
_symmetry_space_group_name_H-M   'P 1'
_symmetry_Int_Tables_number      1
_space_group_name_Hall           'P 1'
loop_
_symmetry_equiv_pos_site_id
_symmetry_equiv_pos_as_xyz
1 x,y,z
_cell_length_a                   10.0127(5)
_cell_length_b                   11.7088(6)
_cell_length_c                   16.2923(9)
_cell_angle_alpha                104.956(4)
_cell_angle_beta                 72.688(5)
_cell_angle_gamma                91.074(4)
_cell_volume                     1758.26
loop_
_atom_site_label
_atom_site_type_symbol
_atom_site_fract_x
_atom_site_fract_y
_atom_site_fract_z
N1 N 0.3419(2) 0.28096(19) 0.27857(15)
C1 C 0.0485(3) 0.5734(2) 0.38152(17)
C2 C 0.2440(3) 0.3864(2) 0.31404(18)
C5 C 0.0679(3) 0.5016(3) 0.2967(2)
H1 H 0.0145 0.5169 0.2623
C9 C 0.3263(3) 0.1973(2) 0.32243(18)
H3 H 0.2559 0.2074 0.3764
C14 C 0.4143(3) 0.0958(2) 0.28788(18)
H5 H 0.4049 0.0384 0.3191
C15 C 0.1324(3) 0.5532(3) 0.43065(19)
H6 H 0.1229 0.6042 0.4866
C20 C 0.1669(3) 0.4067(3) 0.2624(2)
H11 H 0.1804 0.3577 0.2053
C25 C 0.4431(3) 0.2692(3) 0.2006(2)
H14 H 0.4539 0.3297 0.1722
C26 C 0.2303(3) 0.4580(3) 0.39748(19)
H15 H 0.2854 0.4430 0.4309
C27 C 0.5174(3) 0.0799(2) 0.20594(19)
C31 C 0.5300(3) 0.1686(3) 0.1629(2)
H18 H 0.5980 0.1599 0.1081
N2 N 0.7821(2) 0.76233(18) 0.09350(14)
C17 C 0.6781(3) 0.9267(2) 0.21648(18)
H8 H 0.6663 0.9668 0.2757
C21 C 0.7622(3) 0.8234(2) 0.17774(16)
H12 H 0.8069 0.7952 0.2118
C30 C 0.6120(3) 0.9698(2) 0.16725(19)
C32 C 0.7189(4) 0.8045(3) 0.0458(2)
C33 C 0.6347(4) 0.9060(3) 0.0790(2)
H20 H 0.5926 0.9326 0.0430
Zn9 Zn 0.90496(3) 0.60676(2) 0.03725(2)
Zn3 Zn 0.5000 -0.0000 0.5000
O23 O 0.5641(2) 0.11247(17) 0.61303(12)
O24 O 0.5881(2) 0.13693(18) 0.42625(14)
O27 O 0.3158(3) 0.07702(19) 0.54670(19)
O26 O 0.9815(2) 0.35436(19) 0.07738(13)
Zn5 Zn 0.32490(3) 0.24318(2) 0.57577(2)
O12 O 0.4253(2) 0.27867(16) 0.66642(12)
O14 O 0.1487(2) 0.33432(19) 0.62795(15)
O15 O 0.4527(2) 0.30506(18) 0.48151(13)
O17 O 0.8324(2) 0.51312(18) 0.12823(13)
O19 O 0.0859(3) 0.2634(2) 0.50571(15)
O21 O 0.7874(2) 0.51001(19) 0.96467(14)
O22 O 0.9351(2) 0.3498(2) 0.91036(15)
C36 C 0.8012(3) 0.3736(2) 0.21201(16)
C37 C 0.7441(3) 0.3523(2) 0.85454(18)
C39 C 0.8779(3) 0.4167(2) 0.13252(17)
C40 C 0.6918(3) 0.4437(2) 0.27938(17)
H23 H 0.6682 0.5184 0.2760
C41 C 0.0701(3) 0.3313(2) 0.57942(19)
C43 C 0.5257(3) 0.2128(2) 0.66428(16)
C44 C 0.6006(3) 0.2605(2) 0.73165(16)
C45 C 0.8404(3) 0.2654(2) 0.22079(18)
H25 H 0.9167 0.2196 0.1777
C46 C 0.6524(3) 0.2928(2) 0.35742(17)
C49 C 0.6186(3) 0.4033(2) 0.35092(18)
H28 H 0.5454 0.4509 0.3955
C51 C 0.6144(3) 0.4026(3) 0.86437(18)
H30 H 0.5750 0.4674 0.9124
C52 C 0.7672(3) 0.2255(2) 0.29271(19)
H31 H 0.7945 0.1530 0.2982
C55 C 0.8283(3) 0.4077(3) 0.91493(18)
C56 C 0.5430(3) 0.3579(2) 0.80398(18)
H34 H 0.4561 0.3927 0.8114
C57 C 0.5595(3) 0.2401(2) 0.42805(17)
C61 C 0.7293(3) 0.2090(2) 0.72340(19)
H37 H 0.7680 0.1430 0.6762
C62 C 0.8000(3) 0.2536(3) 0.7833(2)
H38 H 0.8861 0.2179 0.7766
H42 H 0.268(4) 0.047(3) 0.537(2)
H19 H 0.7327 0.7628 0.9867
O28 O 0.2126(2) 0.48999(19) 0.03533(14)
Zn1 Zn 0.09504(3) 0.39324(2) 0.96275(2)
Zn2 Zn 0.67510(3) 0.75682(2) 0.42423(2)
Zn3_2 Zn 0.5000 1.0000 0.5000
O1 O 0.5747(2) 0.72133(16) 0.33358(12)
O2 O 0.4359(2) 0.88753(17) 0.38697(12)
O3 O 0.8513(2) 0.66568(19) 0.37205(15)
O4 O 0.5473(2) 0.69494(18) 0.51849(13)
O5 O 0.4119(2) 0.86307(18) 0.57375(14)
O6 O 0.1676(2) 0.48688(18) 0.87177(13)
O7 O 0.0185(2) 0.64564(19) 0.92262(13)
O8 O 0.9141(3) 0.7366(2) 0.49429(15)
O9 O 0.6842(3) 0.92298(19) 0.45330(19)
O11 O 0.0649(2) 0.6502(2) 0.08964(15)
C3 C 0.1988(3) 0.6264(2) 0.78799(16)
C4 C 0.2559(3) 0.6477(2) 0.14546(18)
C6 C 0.1221(3) 0.5833(2) 0.86748(17)
C7 C 0.3082(3) 0.5563(2) 0.72062(17)
H2 H 0.3318 0.4816 0.7240
C8 C 0.9299(3) 0.6687(2) 0.42058(19)
C10 C 0.4743(3) 0.7872(2) 0.33572(16)
C11 C 0.3994(3) 0.7395(2) 0.26835(16)
C12 C 0.1596(3) 0.7346(2) 0.77921(18)
H4 H 0.0833 0.7804 0.8223
C13 C 0.3476(3) 0.7072(2) 0.64258(17)
C16 C 0.3814(3) 0.5967(2) 0.64908(18)
H7 H 0.4546 0.5491 0.6045
C18 C 0.3856(3) 0.5974(3) 0.13563(18)
H9 H 0.4250 0.5326 0.0876
C19 C 0.2328(3) 0.7745(2) 0.70729(19)
H10 H 0.2055 0.8470 0.7018
C22 C 0.1717(3) 0.5923(3) 0.08507(18)
C23 C 0.4570(3) 0.6421(2) 0.19602(18)
H13 H 0.5439 0.6073 0.1886
C24 C 0.4405(3) 0.7599(2) 0.57195(17)
C28 C 0.2707(3) 0.7910(2) 0.27660(19)
H16 H 0.2320 0.8570 0.3238
C29 C 0.2000(3) 0.7464(3) 0.2167(2)
H17 H 0.1139 0.7821 0.2234
H21 H 0.732(4) 0.953(3) 0.463(2)
N6 N 0.2179(2) 0.23767(18) 0.90650(14)
C50 C 0.3219(3) 0.0733(2) 0.78352(18)
H29 H 0.3337 0.0332 0.7243
C54 C 0.2378(3) 0.1766(2) 0.82226(16)
H33 H 0.1931 0.2048 0.7882
C63 C 0.3880(3) 0.0302(2) 0.83275(19)
C65 C 0.2811(4) 0.1955(3) 0.9542(2)
C66 C 0.3653(4) 0.0940(3) 0.9210(2)
H41 H 0.4074 0.0674 0.9570
H40 H 0.2673 0.2372 0.0133
N3 N 0.6581(2) 0.71904(19) 0.72143(15)
C34 C 0.9515(3) 0.4266(2) 0.61848(17)
C35 C 0.7560(3) 0.6136(2) 0.68596(18)
C38 C 0.9321(3) 0.4984(3) 0.7033(2)
H22 H 0.9855 0.4831 0.7377
C42 C 0.6737(3) 0.8027(2) 0.67757(18)
H24 H 0.7441 0.7926 0.6236
C47 C 0.5857(3) 0.9042(2) 0.71212(18)
H26 H 0.5951 0.9616 0.6809
C48 C 0.8676(3) 0.4468(3) 0.56935(19)
H27 H 0.8771 0.3958 0.5134
C53 C 0.8331(3) 0.5933(3) 0.7376(2)
H32 H 0.8196 0.6423 0.7947
C58 C 0.5569(3) 0.7308(3) 0.7994(2)
H35 H 0.5461 0.6703 0.8278
C59 C 0.7697(3) 0.5420(3) 0.60252(19)
H36 H 0.7146 0.5570 0.5691
C60 C 0.4826(3) 0.9201(2) 0.79406(19)
C64 C 0.4700(3) 0.8314(3) 0.8371(2)
H39 H 0.4020 0.8401 0.8919
loop_
_geom_bond_atom_site_label_1
_geom_bond_atom_site_label_2
_geom_bond_site_symmetry_1
_geom_bond_site_symmetry_2
N1 C2 1_555 1_555
C1 C5 1_555 1_555
C2 C20 1_555 1_555
C5 H1 1_555 1_555
C9 N1 1_555 1_555
H3 C9 1_555 1_555
C14 C9 1_555 1_555
H5 C14 1_555 1_555
C15 C1 1_555 1_555
H6 C15 1_555 1_555
C20 C5 1_555 1_555
H11 C20 1_555 1_555
C25 N1 1_555 1_555
H14 C25 1_555 1_555
C26 C2 1_555 1_555
H15 C26 1_555 1_555
C27 C14 1_555 1_555
C31 C25 1_555 1_555
H18 C31 1_555 1_555
C15 C26 1_555 1_555
C27 C31 1_555 1_555
N2 C21 1_555 1_555
C17 H8 1_555 1_555
C21 C17 1_555 1_555
H12 C21 1_555 1_555
C30 C17 1_555 1_555
C32 N2 1_555 1_555
C33 C30 1_555 1_555
H20 C33 1_555 1_555
Zn9 N2 1_555 1_555
C32 C33 1_555 1_555
O23 Zn3 1_555 1_555
O24 Zn3 1_555 1_555
O27 Zn3 1_555 1_555
Zn5 O12 1_555 1_555
O12 C43 1_555 1_555
O23 C43 1_555 1_555
O14 Zn5 1_555 1_555
O15 Zn5 1_555 1_555
O24 C57 1_555 1_555
O17 Zn9 1_555 1_555
O26 C39 1_555 1_555
O19 C41 1_555 1_555
O27 Zn5 1_555 1_555
O21 C55 1_555 1_555
C36 C39 1_555 1_555
C37 C51 1_555 1_555
C39 O17 1_555 1_555
C40 C36 1_555 1_555
H23 C40 1_555 1_555
C41 O14 1_555 1_555
C43 C44 1_555 1_555
C44 C56 1_555 1_555
C45 C36 1_555 1_555
H25 C45 1_555 1_555
C46 C49 1_555 1_555
C49 C40 1_555 1_555
H28 C49 1_555 1_555
C51 H30 1_555 1_555
C52 C45 1_555 1_555
H31 C52 1_555 1_555
C55 O22 1_555 1_555
C56 C51 1_555 1_555
H34 C56 1_555 1_555
C57 O15 1_555 1_555
C61 C44 1_555 1_555
H37 C61 1_555 1_555
C62 C37 1_555 1_555
H38 C62 1_555 1_555
H42 O27 1_555 1_555
C37 C55 1_555 1_555
C46 C52 1_555 1_555
C46 C57 1_555 1_555
C61 C62 1_555 1_555
Zn1 O6 1_555 1_555
Zn2 O1 1_555 1_555
Zn3_2 O2 1_555 1_555
O1 C10 1_555 1_555
O2 C10 1_555 1_555
O3 Zn2 1_555 1_555
O4 Zn2 1_555 1_555
O5 Zn3_2 1_555 1_555
O6 C6 1_555 1_555
O7 C6 1_555 1_555
O8 C8 1_555 1_555
O9 Zn2 1_555 1_555
O28 C22 1_555 1_555
O11 C22 1_555 1_555
C3 C6 1_555 1_555
C4 C18 1_555 1_555
C7 C3 1_555 1_555
H2 C7 1_555 1_555
C8 O3 1_555 1_555
C10 C11 1_555 1_555
C11 C23 1_555 1_555
C12 C3 1_555 1_555
H4 C12 1_555 1_555
C13 C16 1_555 1_555
C16 C7 1_555 1_555
H7 C16 1_555 1_555
C18 H9 1_555 1_555
C19 C12 1_555 1_555
H10 C19 1_555 1_555
C22 C4 1_555 1_555
C23 C18 1_555 1_555
H13 C23 1_555 1_555
C24 O4 1_555 1_555
C28 C11 1_555 1_555
H16 C28 1_555 1_555
C29 C4 1_555 1_555
H17 C29 1_555 1_555
H21 O9 1_555 1_555
N6 Zn1 1_555 1_555
Zn3_2 O9 1_555 1_555
O5 C24 1_555 1_555
C13 C19 1_555 1_555
C13 C24 1_555 1_555
C28 C29 1_555 1_555
N6 C54 1_555 1_555
C50 H29 1_555 1_555
C54 C50 1_555 1_555
H33 C54 1_555 1_555
C63 C50 1_555 1_555
C65 N6 1_555 1_555
C66 C63 1_555 1_555
H41 C66 1_555 1_555
C65 C66 1_555 1_555
N3 C35 1_555 1_555
C34 C38 1_555 1_555
C35 C53 1_555 1_555
C38 H22 1_555 1_555
C42 N3 1_555 1_555
H24 C42 1_555 1_555
C47 C42 1_555 1_555
H26 C47 1_555 1_555
C48 C34 1_555 1_555
H27 C48 1_555 1_555
C53 C38 1_555 1_555
H32 C53 1_555 1_555
C58 N3 1_555 1_555
H35 C58 1_555 1_555
C59 C35 1_555 1_555
H36 C59 1_555 1_555
C60 C47 1_555 1_555
C64 C58 1_555 1_555
H39 C64 1_555 1_555
C48 C59 1_555 1_555
C60 C64 1_555 1_555

#END
