
###############################################################################
#
# This file contains modified crystal structure data generated from the
# MOF subset of the Cambridge Structural Database (CSD) v543 
# hosted by the Cambridge Crystallographic Data Centre (CCDC).
#
# This work is licensed under the Creative Commons
# Attribution-NonCommercial-ShareAlike 4.0 International License.
# To view a copy of this license, visit
# http://creativecommons.org/licenses/by-nc-sa/4.0/
# or send a letter to
# Creative Commons, PO Box 1866, Mountain View, CA 94042, USA.
#
# CIF created using the CSD Python API on 29 September 2022
# The structure has been converted into the P1 space group
# The structure has a 3D framework
# The original CSD entry OWUGAP is in the monoclinic crystal system
# The framework has been calculated to contain at least 10.0% void space
# The void calculation uses a probe of radius 1.32A, grid spacing 0.4
# The framework is charged, counterions have been retained in the structure
#
###############################################################################

data_OWUGAP
_chemical_formula_moiety         '(C88 H108 Cu8 N48 O36 S4 3+)n'
_symmetry_cell_setting           triclinic
_symmetry_space_group_name_H-M   'P 1'
_symmetry_Int_Tables_number      1
_space_group_name_Hall           'P 1'
loop_
_symmetry_equiv_pos_site_id
_symmetry_equiv_pos_as_xyz
1 x,y,z
_cell_length_a                   13.0162(7)
_cell_length_b                   15.7415(7)
_cell_length_c                   16.3661(7)
_cell_angle_alpha                90
_cell_angle_beta                 92.855(5)
_cell_angle_gamma                90
_cell_volume                     3349.16
loop_
_atom_site_label
_atom_site_type_symbol
_atom_site_fract_x
_atom_site_fract_y
_atom_site_fract_z
C32 C 0.0036(3) 0.0696(2) 0.1276(2)
H32 H 0.0637 0.0878 0.1554
H43 H 0.0298 0.6822 0.0981
H41 H 0.0008 0.6818 0.9019
O11 O 0.03151(16) 0.63308(13) 0.75439(12)
O13 O 0.14874(17) 0.53085(13) 0.76564(14)
H4 H 0.1885 0.0348 0.8997
Cu4 Cu 0.06135(3) 0.03665(2) 0.72857(2)
Cu1 Cu 0.06135(3) 0.46335(2) 0.22857(2)
Cu2 Cu 0.5000 0.5000 0.0000
C11 C 0.1861(3) 0.9202(2) 0.03064(19)
H6 H 0.2464 0.9566 0.0316
H7 H 0.1498 0.9312 0.0799
C12 C 0.2200(3) 0.8277(2) 0.02991(18)
H8 H 0.1593 0.7920 0.0234
H9 H 0.2539 0.8142 0.0824
H12 H 0.4614 0.7033 0.0058
C16 C 0.0337(2) 0.3624(2) 0.07356(18)
C17 C 0.1109(2) 0.4765(2) 0.05047(18)
H15 H 0.1414 0.5294 0.0593
C22 C 0.3475(2) 0.3684(2) 0.05810(19)
H23 H 0.3633 0.3812 0.1127
N1 N 0.06635(19) 0.43257(16) 0.11091(14)
N5 N 0.2819(2) 0.30843(16) 0.03468(15)
O8 O 0.20554(16) 0.38757(13) 0.26225(12)
H24 H 0.2497 0.4205 0.2441
H25 H 0.2012 0.3399 0.2383
O9 O 0.48223(17) 0.52205(13) 0.14106(12)
H26 H 0.4196 0.5326 0.1511
H27 H 0.5070 0.4859 0.1749
C23 C 0.2505(2) 0.68170(19) 0.21651(17)
C24 C 0.3529(2) 0.70548(19) 0.21171(16)
H28 H 0.4025 0.6649 0.2012
C25 C 0.3811(2) 0.79050(19) 0.22274(17)
C26 C 0.3083(2) 0.85045(19) 0.23831(17)
H29 H 0.3277 0.9069 0.2459
C27 C 0.2050(2) 0.82741(19) 0.24278(17)
C28 C 0.1774(2) 0.74222(18) 0.23251(16)
H30 H 0.1091 0.7261 0.2365
C29 C 0.1238(3) 0.8933(2) 0.25594(18)
C30 C 0.2197(2) 0.58987(19) 0.20446(17)
C31 C 0.8671(3) 0.0022(2) 0.09911(18)
C35 C 0.7086(3) 0.1938(2) 0.0364(2)
H37 H 0.6456 0.1613 0.0284
H38 H 0.7405 0.1784 0.0892
C36 C 0.5985(3) 0.3236(2) 0.0139(2)
C37 C 0.7086(2) 0.4137(2) 0.05283(18)
H40 H 0.7391 0.4657 0.0660
C40 C 0.9654(3) 0.6978(2) 0.06971(18)
H44 H 0.9750 0.7529 0.0447
C41 C 0.8843(3) 0.7055(3) 0.1311(2)
H45 H 0.8709 0.6492 0.1523
H46 H 0.9120 0.7395 0.1765
C42 C 0.7822(3) 0.7442(2) 0.1014(2)
H47 H 0.7955 0.7958 0.0713
H48 H 0.7440 0.7598 0.1486
C43 C 0.6532(2) 0.6277(2) 0.07112(19)
H49 H 0.6402 0.6141 0.1249
N14 N 0.8923(2) 0.56087(17) 0.02080(15)
N15 N 0.9419(2) 0.63544(17) 0.00497(15)
N16 N 0.7178(2) 0.68743(16) 0.04865(15)
N18 N 0.60975(19) 0.58998(16) 0.00518(14)
N19 N 0.9444(2) 0.00580(16) 0.15565(15)
N20 N 0.0556(2) 0.50580(16) 0.34435(15)
N22 N 0.8813(2) 0.05869(17) 0.04127(16)
N23 N 0.9690(2) 0.10369(19) 0.05788(17)
N24 N 0.6845(2) 0.28452(17) 0.03561(15)
N25 N 0.7579(2) 0.34168(17) 0.06064(16)
N26 N 0.6088(2) 0.40702(16) 0.02384(15)
O10 O 0.03151(16) 0.86692(13) 0.25439(12)
O12 O 0.14874(17) 0.96915(13) 0.26564(14)
O14 O 0.12413(16) 0.57536(13) 0.20785(12)
O16 O 0.28681(17) 0.53510(13) 0.19246(13)
O17 O 0.52006(19) 0.90809(15) 0.22962(15)
O18 O 0.53162(18) 0.79854(17) 0.12720(14)
O19 O 0.5712(2) 0.76765(18) 0.27003(18)
S2 S 0.51233(7) 0.81825(5) 0.21151(5)
Cu2_2 Cu 0.5000 0.5000 1.0000
C9 C 0.1329(3) 0.9978(2) 0.90089(18)
C13 C 0.2914(3) 0.8062(2) 0.9636(2)
H10 H 0.3544 0.8387 0.9716
H11 H 0.2595 0.8216 0.9108
C14 C 0.4015(3) 0.6764(2) 0.9861(2)
C15 C 0.2914(2) 0.5863(2) 0.94717(18)
H13 H 0.2609 0.5343 0.9340
C18 C 0.0346(3) 0.3022(2) 0.93029(18)
H17 H 0.0250 0.2471 0.9553
C19 C 0.1157(3) 0.2945(3) 0.8689(2)
H18 H 0.1291 0.3508 0.8477
H19 H 0.0880 0.2605 0.8235
C20 C 0.2178(3) 0.2558(2) 0.8986(2)
H20 H 0.2045 0.2042 0.9287
H21 H 0.2560 0.2402 0.8514
C21 C 0.3468(2) 0.3723(2) 0.92888(19)
H22 H 0.3598 0.3859 0.8751
N2 N 0.1077(2) 0.43913(17) 0.97920(15)
N3 N 0.0581(2) 0.36456(17) 0.99503(15)
N4 N 0.2822(2) 0.31257(16) 0.95135(15)
N6 N 0.39025(19) 0.41002(16) 0.99482(14)
N7 N 0.0556(2) 0.99420(16) 0.84435(15)
N8 N 0.1187(2) 0.94131(17) 0.95873(16)
N9 N 0.0310(2) 0.89631(19) 0.94212(17)
N10 N 0.3155(2) 0.71548(17) 0.96439(15)
N11 N 0.2421(2) 0.65832(17) 0.93936(16)
N12 N 0.3912(2) 0.59298(16) 0.97616(15)
Cu3 Cu 0.93865(3) 0.53665(2) 0.77143(2)
C33 C 0.8139(3) 0.0798(2) 0.96936(19)
H33 H 0.7536 0.0434 0.9684
H34 H 0.8502 0.0688 0.9201
C34 C 0.7800(3) 0.1723(2) 0.97009(18)
H35 H 0.8407 0.2080 0.9766
H36 H 0.7461 0.1858 0.9176
H39 H 0.5386 0.2967 0.9942
C38 C 0.9663(2) 0.6376(2) 0.92644(18)
C39 C 0.8891(2) 0.5235(2) 0.94953(18)
H42 H 0.8586 0.4706 0.9407
C44 C 0.6525(2) 0.6316(2) 0.94190(19)
H50 H 0.6367 0.6188 0.8873
N13 N 0.93365(19) 0.56743(16) 0.88909(14)
N17 N 0.7181(2) 0.69157(16) 0.96532(15)
N21 N 0.9444(2) 0.49420(16) 0.65565(15)
O15 O 0.87587(16) 0.42464(13) 0.79215(12)
O20 O 0.79446(16) 0.61243(13) 0.73775(12)
H51 H 0.7503 0.5795 0.7559
H52 H 0.7988 0.6601 0.7617
O21 O 0.51777(17) 0.47795(13) 0.85894(12)
H53 H 0.5804 0.4674 0.8489
H54 H 0.4930 0.5141 0.8251
Cu6 Cu 0.93865(3) 0.96335(2) 0.27143(2)
H31 H 0.8115 0.9652 0.1003
C1 C 0.7495(2) 0.18170(19) 0.28349(17)
C2 C 0.6471(2) 0.20548(19) 0.28829(16)
H1 H 0.5975 0.1649 0.2988
C3 C 0.6189(2) 0.29050(19) 0.27726(17)
C4 C 0.6917(2) 0.35045(19) 0.26169(17)
H2 H 0.6723 0.4069 0.2541
C5 C 0.7950(2) 0.32741(19) 0.25722(17)
C6 C 0.8226(2) 0.24222(18) 0.26749(16)
H3 H 0.8909 0.2261 0.2635
C7 C 0.8762(3) 0.3933(2) 0.24406(18)
C8 C 0.7803(2) 0.08987(19) 0.29554(17)
H14 H 0.9992 0.3182 0.0981
O1 O 0.96849(16) 0.36692(13) 0.24561(12)
O2 O 0.85126(17) 0.46915(13) 0.23436(14)
O3 O 0.87587(16) 0.07536(13) 0.29215(12)
O4 O 0.71319(17) 0.03510(13) 0.30754(13)
O5 O 0.47994(19) 0.40809(15) 0.27038(15)
O6 O 0.46838(18) 0.29854(17) 0.37280(14)
O7 O 0.4288(2) 0.26765(18) 0.22997(18)
S1 S 0.48767(7) 0.31825(5) 0.28849(5)
C10 C 0.0036(3) 0.4304(2) 0.6276(2)
H5 H 0.0637 0.4122 0.6554
H14_2 H 0.0008 0.8182 0.4019
H16 H 0.0298 0.8178 0.5981
Cu2_3 Cu 0.5000 -0.0000 0.5000
C9_2 C 0.8671(3) 0.4978(2) 0.59911(18)
H4_2 H 0.8115 0.5348 0.6003
C11_2 C 0.8139(3) 0.4202(2) 0.46936(19)
H6_2 H 0.7536 0.4566 0.4684
H7_2 H 0.8502 0.4312 0.4201
C12_2 C 0.7800(3) 0.3277(2) 0.47009(18)
H8_2 H 0.8407 0.2920 0.4766
H9_2 H 0.7461 0.3142 0.4176
C13_2 C 0.7086(3) 0.3062(2) 0.5364(2)
H10_2 H 0.6456 0.3387 0.5284
H11_2 H 0.7405 0.3216 0.5892
C14_2 C 0.5985(3) 0.1764(2) 0.5139(2)
H12_2 H 0.5386 0.2033 0.4942
C15_2 C 0.7086(2) 0.0863(2) 0.55283(18)
H13_2 H 0.7391 0.0343 0.5660
H15_2 H 0.8586 0.0294 0.4407
N8_2 N 0.8813(2) 0.44131(17) 0.54127(16)
N9_2 N 0.9690(2) 0.39631(19) 0.55788(17)
N10_2 N 0.6845(2) 0.21548(17) 0.53561(15)
N11_2 N 0.7579(2) 0.15832(17) 0.56064(16)
N12_2 N 0.6088(2) 0.09298(16) 0.52384(15)
O9_2 O 0.51777(17) 0.02205(13) 0.35894(12)
H26_2 H 0.5804 0.0326 0.3489
C38_2 C 0.0337(2) 0.1376(2) 0.57356(18)
C39_2 C 0.1109(2) 0.0235(2) 0.55047(18)
C40_2 C 0.0346(3) 0.1978(2) 0.43029(18)
H44_2 H 0.0250 0.2529 0.4553
C41_2 C 0.1157(3) 0.2055(3) 0.3689(2)
H45_2 H 0.1291 0.1492 0.3477
H46_2 H 0.0880 0.2395 0.3235
C42_2 C 0.2178(3) 0.2442(2) 0.3986(2)
H47_2 H 0.2045 0.2958 0.4287
H48_2 H 0.2560 0.2598 0.3514
C43_2 C 0.3468(2) 0.1277(2) 0.42888(19)
H49_2 H 0.3598 0.1141 0.3751
C44_2 C 0.3475(2) 0.1316(2) 0.55810(19)
H50_2 H 0.3633 0.1188 0.6127
N13_2 N 0.06635(19) 0.06743(16) 0.61091(14)
N14_2 N 0.1077(2) 0.06087(17) 0.47920(15)
N15_2 N 0.0581(2) 0.13544(17) 0.49503(15)
N16_2 N 0.2822(2) 0.18743(16) 0.45135(15)
N17_2 N 0.2819(2) 0.19157(16) 0.53468(15)
N18_2 N 0.39025(19) 0.08998(16) 0.49482(14)
O20_2 O 0.20554(16) 0.11243(13) 0.76225(12)
H51_2 H 0.2497 0.0795 0.7441
H52_2 H 0.2012 0.1601 0.7383
H54_2 H 0.5070 0.0141 0.6749
Cu2_4 Cu 0.5000 1.0000 0.5000
C16_2 C 0.9663(2) 0.8624(2) 0.42644(18)
C17_2 C 0.8891(2) 0.9765(2) 0.44953(18)
C18_2 C 0.9654(3) 0.8022(2) 0.56971(18)
H17_2 H 0.9750 0.7471 0.5447
C19_2 C 0.8843(3) 0.7945(3) 0.6311(2)
H18_2 H 0.8709 0.8508 0.6523
H19_2 H 0.9120 0.7605 0.6765
C20_2 C 0.7822(3) 0.7558(2) 0.6014(2)
H20_2 H 0.7955 0.7042 0.5713
H21_2 H 0.7440 0.7402 0.6486
C21_2 C 0.6532(2) 0.8723(2) 0.57112(19)
H22_2 H 0.6402 0.8859 0.6249
C22_2 C 0.6525(2) 0.8684(2) 0.44190(19)
H23_2 H 0.6367 0.8812 0.3873
N1_2 N 0.93365(19) 0.93257(16) 0.38909(14)
N2_2 N 0.8923(2) 0.93913(17) 0.52080(15)
N3_2 N 0.9419(2) 0.86456(17) 0.50497(15)
N4_2 N 0.7178(2) 0.81257(16) 0.54865(15)
N5_2 N 0.7181(2) 0.80843(16) 0.46532(15)
N6_2 N 0.60975(19) 0.91002(16) 0.50518(14)
O8_2 O 0.79446(16) 0.88757(13) 0.23775(12)
H24_2 H 0.7503 0.9205 0.2559
H25_2 H 0.7988 0.8399 0.2617
H27_2 H 0.4930 0.9859 0.3251
C31_2 C 0.1329(3) 0.5022(2) 0.40089(18)
H31_2 H 0.1885 0.4652 0.3997
C33_2 C 0.1861(3) 0.5798(2) 0.53064(19)
H33_2 H 0.2464 0.5434 0.5316
H34_2 H 0.1498 0.5688 0.5799
C34_2 C 0.2200(3) 0.6723(2) 0.52991(18)
H35_2 H 0.1593 0.7080 0.5234
H36_2 H 0.2539 0.6858 0.5824
C35_2 C 0.2914(3) 0.6938(2) 0.4636(2)
H37_2 H 0.3544 0.6613 0.4716
H38_2 H 0.2595 0.6784 0.4108
C36_2 C 0.4015(3) 0.8236(2) 0.4861(2)
H39_2 H 0.4614 0.7967 0.5058
C37_2 C 0.2914(2) 0.9137(2) 0.44717(18)
H40_2 H 0.2609 0.9657 0.4340
H42_2 H 0.1414 0.9706 0.5593
N22_2 N 0.1187(2) 0.55869(17) 0.45873(16)
N23_2 N 0.0310(2) 0.60369(19) 0.44212(17)
N24_2 N 0.3155(2) 0.78452(17) 0.46439(15)
N25_2 N 0.2421(2) 0.84168(17) 0.43936(16)
N26_2 N 0.3912(2) 0.90702(16) 0.47616(15)
O15_2 O 0.12413(16) 0.92464(13) 0.70785(12)
O21_2 O 0.48223(17) 0.97795(13) 0.64106(12)
H53_2 H 0.4196 0.9674 0.6511
H41_2 H 0.9992 0.1818 0.5981
H43_2 H 0.9702 0.1822 0.4019
O11_2 O 0.96849(16) 0.13308(13) 0.74561(12)
O13_2 O 0.85126(17) 0.03085(13) 0.73436(14)
C32_2 C 0.9964(3) 0.5696(2) 0.3724(2)
H32_2 H 0.9363 0.5878 0.3446
C1_2 C 0.2505(2) 0.81830(19) 0.71651(17)
C2_2 C 0.3529(2) 0.79452(19) 0.71171(16)
H1_2 H 0.4025 0.8351 0.7012
C3_2 C 0.3811(2) 0.70950(19) 0.72274(17)
C4_2 C 0.3083(2) 0.64955(19) 0.73831(17)
H2_2 H 0.3277 0.5931 0.7459
C5_2 C 0.2050(2) 0.67259(19) 0.74278(17)
C6_2 C 0.1774(2) 0.75778(18) 0.73251(16)
H3_2 H 0.1091 0.7739 0.7365
C7_2 C 0.1238(3) 0.6067(2) 0.75594(18)
C8_2 C 0.2197(2) 0.91013(19) 0.70446(17)
O4_2 O 0.28681(17) 0.96490(13) 0.69246(13)
O5_2 O 0.52006(19) 0.59191(15) 0.72962(15)
O6_2 O 0.53162(18) 0.70146(17) 0.62720(14)
O7_2 O 0.5712(2) 0.73235(18) 0.77003(18)
S1_2 S 0.51233(7) 0.68175(5) 0.71151(5)
C23_2 C 0.7495(2) 0.31830(19) 0.78349(17)
C24_2 C 0.6471(2) 0.29452(19) 0.78829(16)
H28_2 H 0.5975 0.3351 0.7988
C25_2 C 0.6189(2) 0.20950(19) 0.77726(17)
C26_2 C 0.6917(2) 0.14955(19) 0.76169(17)
H29_2 H 0.6723 0.0931 0.7541
C27_2 C 0.7950(2) 0.17259(19) 0.75722(17)
C28_2 C 0.8226(2) 0.25778(18) 0.76749(16)
H30_2 H 0.8909 0.2739 0.7635
C29_2 C 0.8762(3) 0.1067(2) 0.74406(18)
C30_2 C 0.7803(2) 0.41013(19) 0.79554(17)
O16_2 O 0.71319(17) 0.46490(13) 0.80754(13)
O17_2 O 0.47994(19) 0.09191(15) 0.77038(15)
O18_2 O 0.46838(18) 0.20146(17) 0.87280(14)
O19_2 O 0.4288(2) 0.23235(18) 0.72997(18)
S2_2 S 0.48767(7) 0.18175(5) 0.78849(5)
C10_2 C 0.9964(3) 0.9304(2) 0.8724(2)
H5_2 H 0.9363 0.9122 0.8446
H16_2 H 0.9702 0.3178 0.9019
loop_
_geom_bond_atom_site_label_1
_geom_bond_atom_site_label_2
_geom_bond_site_symmetry_1
_geom_bond_site_symmetry_2
C32 H32 1_555 1_555
Cu1 N1 1_555 1_555
C11 H6 1_555 1_555
H7 C11 1_555 1_555
C12 C11 1_555 1_555
H8 C12 1_555 1_555
H9 C12 1_555 1_555
C17 H15 1_555 1_555
C22 H23 1_555 1_555
N1 C16 1_555 1_555
N5 C22 1_555 1_555
O8 Cu1 1_555 1_555
H24 O8 1_555 1_555
H25 O8 1_555 1_555
O9 Cu2 1_555 1_555
H26 O9 1_555 1_555
H27 O9 1_555 1_555
C23 C24 1_555 1_555
C24 H28 1_555 1_555
C25 C24 1_555 1_555
C26 C25 1_555 1_555
H29 C26 1_555 1_555
C27 C26 1_555 1_555
C28 C23 1_555 1_555
H30 C28 1_555 1_555
C29 C27 1_555 1_555
C30 C23 1_555 1_555
H37 C35 1_555 1_555
H38 C35 1_555 1_555
C37 H40 1_555 1_555
H44 C40 1_555 1_555
C41 C40 1_555 1_555
H45 C41 1_555 1_555
H46 C41 1_555 1_555
C42 C41 1_555 1_555
H47 C42 1_555 1_555
H48 C42 1_555 1_555
C43 H49 1_555 1_555
N16 C42 1_555 1_555
N18 Cu2 1_555 1_555
N19 C31 1_555 1_555
N20 Cu1 1_555 1_555
N22 C31 1_555 1_555
N24 C35 1_555 1_555
N25 C37 1_555 1_555
N26 Cu2 1_555 1_555
O10 C29 1_555 1_555
O14 Cu1 1_555 1_555
O16 C30 1_555 1_555
O17 S2 1_555 1_555
O18 S2 1_555 1_555
O19 S2 1_555 1_555
S2 C25 1_555 1_555
C17 N1 1_555 1_555
C27 C28 1_555 1_555
C29 O12 1_555 1_555
C30 O14 1_555 1_555
C36 N24 1_555 1_555
C36 N26 1_555 1_555
C37 N26 1_555 1_555
C40 N15 1_555 1_555
C43 N16 1_555 1_555
C43 N18 1_555 1_555
N14 N15 1_555 1_555
N22 N23 1_555 1_555
N24 N25 1_555 1_555
Cu2_2 N6 1_555 1_555
H10 C13 1_555 1_555
H11 C13 1_555 1_555
C15 H13 1_555 1_555
H17 C18 1_555 1_555
C19 C18 1_555 1_555
H18 C19 1_555 1_555
H19 C19 1_555 1_555
C20 C19 1_555 1_555
H20 C20 1_555 1_555
H21 C20 1_555 1_555
C21 H22 1_555 1_555
N4 C20 1_555 1_555
N6 C21 1_555 1_555
N7 C9 1_555 1_555
N8 C9 1_555 1_555
N10 C13 1_555 1_555
N11 C15 1_555 1_555
N12 Cu2_2 1_555 1_555
Cu3 N13 1_555 1_555
C33 H33 1_555 1_555
H34 C33 1_555 1_555
C34 C33 1_555 1_555
H35 C34 1_555 1_555
H36 C34 1_555 1_555
C39 H42 1_555 1_555
C44 H50 1_555 1_555
N13 C38 1_555 1_555
N17 C44 1_555 1_555
N21 Cu3 1_555 1_555
O15 Cu3 1_555 1_555
O20 Cu3 1_555 1_555
H51 O20 1_555 1_555
H52 O20 1_555 1_555
O21 Cu2_2 1_555 1_555
H53 O21 1_555 1_555
H54 O21 1_555 1_555
C14 N10 1_555 1_555
C14 N12 1_555 1_555
C15 N12 1_555 1_555
C18 N3 1_555 1_555
C21 N4 1_555 1_555
N2 N3 1_555 1_555
N8 N9 1_555 1_555
N10 N11 1_555 1_555
C39 N13 1_555 1_555
C1 C2 1_555 1_555
C2 H1 1_555 1_555
C3 C2 1_555 1_555
C4 C3 1_555 1_555
H2 C4 1_555 1_555
C5 C4 1_555 1_555
C6 C1 1_555 1_555
H3 C6 1_555 1_555
C7 C5 1_555 1_555
C8 C1 1_555 1_555
O3 C8 1_555 1_555
O4 C8 1_555 1_555
O5 S1 1_555 1_555
O6 S1 1_555 1_555
O7 S1 1_555 1_555
S1 C3 1_555 1_555
C5 C6 1_555 1_555
C7 O1 1_555 1_555
C7 O2 1_555 1_555
C10 H5 1_555 1_555
C9_2 H4_2 1_555 1_555
C11_2 H6_2 1_555 1_555
H7_2 C11_2 1_555 1_555
C12_2 C11_2 1_555 1_555
H8_2 C12_2 1_555 1_555
H9_2 C12_2 1_555 1_555
C13_2 C12_2 1_555 1_555
H10_2 C13_2 1_555 1_555
H11_2 C13_2 1_555 1_555
C14_2 H12_2 1_555 1_555
C15_2 H13_2 1_555 1_555
N21 C9_2 1_555 1_555
N8_2 C9_2 1_555 1_555
N10_2 C13_2 1_555 1_555
N11_2 C15_2 1_555 1_555
N12_2 Cu2_3 1_555 1_555
O9_2 Cu2_3 1_555 1_555
H26_2 O9_2 1_555 1_555
Cu4 N13_2 1_555 1_555
H44_2 C40_2 1_555 1_555
C41_2 C40_2 1_555 1_555
H45_2 C41_2 1_555 1_555
H46_2 C41_2 1_555 1_555
C42_2 C41_2 1_555 1_555
H47_2 C42_2 1_555 1_555
H48_2 C42_2 1_555 1_555
C43_2 H49_2 1_555 1_555
C44_2 H50_2 1_555 1_555
N13_2 C38_2 1_555 1_555
N14_2 C39_2 1_555 1_555
N15_2 C38_2 1_555 1_555
N16_2 C42_2 1_555 1_555
N17_2 C44_2 1_555 1_555
N18_2 Cu2_3 1_555 1_555
O20_2 Cu4 1_555 1_555
H51_2 O20_2 1_555 1_555
H52_2 O20_2 1_555 1_555
C11_2 N8_2 1_555 1_555
C14_2 N10_2 1_555 1_555
C14_2 N12_2 1_555 1_555
C15_2 N12_2 1_555 1_555
N8_2 N9_2 1_555 1_555
N10_2 N11_2 1_555 1_555
C39_2 N13_2 1_555 1_555
C40_2 N15_2 1_555 1_555
C43_2 N16_2 1_555 1_555
C43_2 N18_2 1_555 1_555
C44_2 N18_2 1_555 1_555
N14_2 N15_2 1_555 1_555
N16_2 N17_2 1_555 1_555
Cu6 N1_2 1_555 1_555
Cu2_4 N6_2 1_555 1_555
H17_2 C18_2 1_555 1_555
C19_2 C18_2 1_555 1_555
H18_2 C19_2 1_555 1_555
H19_2 C19_2 1_555 1_555
C20_2 C19_2 1_555 1_555
H20_2 C20_2 1_555 1_555
H21_2 C20_2 1_555 1_555
C21_2 H22_2 1_555 1_555
C22_2 H23_2 1_555 1_555
N1_2 C16_2 1_555 1_555
N2_2 C17_2 1_555 1_555
N3_2 C16_2 1_555 1_555
N4_2 C20_2 1_555 1_555
N5_2 C22_2 1_555 1_555
N6_2 C21_2 1_555 1_555
O8_2 Cu6 1_555 1_555
H24_2 O8_2 1_555 1_555
H25_2 O8_2 1_555 1_555
C31_2 H31_2 1_555 1_555
C33_2 H33_2 1_555 1_555
H34_2 C33_2 1_555 1_555
C34_2 C33_2 1_555 1_555
H35_2 C34_2 1_555 1_555
H36_2 C34_2 1_555 1_555
C35_2 C34_2 1_555 1_555
H37_2 C35_2 1_555 1_555
H38_2 C35_2 1_555 1_555
C36_2 H39_2 1_555 1_555
C37_2 H40_2 1_555 1_555
N20 C31_2 1_555 1_555
N22_2 C31_2 1_555 1_555
N24_2 C35_2 1_555 1_555
N25_2 C37_2 1_555 1_555
N26_2 Cu2_4 1_555 1_555
O21_2 Cu2_4 1_555 1_555
H53_2 O21_2 1_555 1_555
C17_2 N1_2 1_555 1_555
C18_2 N3_2 1_555 1_555
C21_2 N4_2 1_555 1_555
C22_2 N6_2 1_555 1_555
N2_2 N3_2 1_555 1_555
N4_2 N5_2 1_555 1_555
C33_2 N22_2 1_555 1_555
C36_2 N24_2 1_555 1_555
C36_2 N26_2 1_555 1_555
C37_2 N26_2 1_555 1_555
N22_2 N23_2 1_555 1_555
N24_2 N25_2 1_555 1_555
C32_2 H32_2 1_555 1_555
C1_2 C2_2 1_555 1_555
C2_2 H1_2 1_555 1_555
C3_2 C2_2 1_555 1_555
C4_2 C3_2 1_555 1_555
H2_2 C4_2 1_555 1_555
C5_2 C4_2 1_555 1_555
C6_2 C1_2 1_555 1_555
H3_2 C6_2 1_555 1_555
C7_2 C5_2 1_555 1_555
C8_2 C1_2 1_555 1_555
O15_2 C8_2 1_555 1_555
O4_2 C8_2 1_555 1_555
O5_2 S1_2 1_555 1_555
O6_2 S1_2 1_555 1_555
O7_2 S1_2 1_555 1_555
S1_2 C3_2 1_555 1_555
C5_2 C6_2 1_555 1_555
C7_2 O11 1_555 1_555
C7_2 O13 1_555 1_555
C23_2 C24_2 1_555 1_555
C24_2 H28_2 1_555 1_555
C25_2 C24_2 1_555 1_555
C26_2 C25_2 1_555 1_555
H29_2 C26_2 1_555 1_555
C27_2 C26_2 1_555 1_555
C28_2 C23_2 1_555 1_555
H30_2 C28_2 1_555 1_555
C29_2 C27_2 1_555 1_555
C30_2 C23_2 1_555 1_555
O11_2 C29_2 1_555 1_555
O16_2 C30_2 1_555 1_555
O17_2 S2_2 1_555 1_555
O18_2 S2_2 1_555 1_555
O19_2 S2_2 1_555 1_555
S2_2 C25_2 1_555 1_555
C27_2 C28_2 1_555 1_555
C29_2 O13_2 1_555 1_555
C30_2 O15 1_555 1_555
C10_2 H5_2 1_555 1_555

#END
