
###############################################################################
#
# This file contains modified crystal structure data generated from the
# MOF subset of the Cambridge Structural Database (CSD) v543 
# hosted by the Cambridge Crystallographic Data Centre (CCDC).
#
# This work is licensed under the Creative Commons
# Attribution-NonCommercial-ShareAlike 4.0 International License.
# To view a copy of this license, visit
# http://creativecommons.org/licenses/by-nc-sa/4.0/
# or send a letter to
# Creative Commons, PO Box 1866, Mountain View, CA 94042, USA.
#
# CIF created using the CSD Python API on 29 September 2022
# The structure has been converted into the P1 space group
# The structure has a 3D framework
# The original CSD entry OXANIN is in the orthorhombic crystal system
# The framework has been calculated to contain at least 10.0% void space
# The void calculation uses a probe of radius 1.32A, grid spacing 0.4
#
###############################################################################

data_OXANIN
_chemical_formula_moiety         '(C122 H80 Eu4 N20 O31)n'
_symmetry_cell_setting           triclinic
_symmetry_space_group_name_H-M   'P 1'
_symmetry_Int_Tables_number      1
_space_group_name_Hall           'P 1'
loop_
_symmetry_equiv_pos_site_id
_symmetry_equiv_pos_as_xyz
1 x,y,z
_cell_length_a                   19.6440(2)
_cell_length_b                   12.35500(10)
_cell_length_c                   13.21490(10)
_cell_angle_alpha                90
_cell_angle_beta                 90
_cell_angle_gamma                90
_cell_volume                     3207.28
loop_
_atom_site_label
_atom_site_type_symbol
_atom_site_fract_x
_atom_site_fract_y
_atom_site_fract_z
O7 O 0.4007(2) 0.0716(4) 0.7310(7)
O8 O 0.2965(3) 0.0254(5) 0.7804(6)
C28 C 0.3536(5) 0.0030(8) 0.7513(7)
Eu3 Eu 0.51816(2) 0.03072(2) 0.71988(4)
O3 O 0.0893(3) 0.6216(4) 0.6965(4)
O4 O 0.1875(3) 0.6985(5) 0.6529(5)
O5 O 0.5123(3) 0.0438(5) 0.3782(5)
N2 N 0.1347(4) 0.4266(6) 0.6334(6)
N3 N 0.4917(4) 0.2005(6) 0.5993(5)
N4 N 0.4351(3) 0.8668(5) 0.6954(4)
C5 C 0.2936(4) 0.0269(7) 0.4653(7)
C6 C 0.3414(5) 0.0364(7) 0.3877(7)
H3 H 0.345186 0.102991 0.355442
C7 C 0.2590(5) 0.1243(9) 0.4962(7)
C8 C 0.2372(5) 0.2105(8) 0.5149(8)
C9 C 0.2146(5) 0.3176(8) 0.5438(8)
C10 C 0.1562(4) 0.3314(7) 0.6015(7)
H4 H 0.130876 0.270388 0.618406
C11 C 0.2525(5) 0.4081(9) 0.5200(8)
H5 H 0.291276 0.402048 0.479969
C12 C 0.2322(5) 0.5070(8) 0.5561(8)
H6 H 0.258009 0.568545 0.542925
C13 C 0.1725(5) 0.5146(8) 0.6129(7)
C14 C 0.1473(5) 0.6208(8) 0.6566(7)
C15 C 0.5045(4) 0.0631(7) 0.4698(6)
C16 C 0.4866(4) 0.1777(7) 0.5000(6)
C17 C 0.4657(5) 0.2545(7) 0.4295(6)
H7 H 0.463436 0.237141 0.361059
C18 C 0.4484(5) 0.3572(7) 0.4630(6)
H8 H 0.432812 0.408828 0.417287
C19 C 0.4543(5) 0.3829(8) 0.5651(7)
C20 C 0.4770(4) 0.3004(6) 0.6292(6)
H9 H 0.482193 0.316595 0.697508
C21 C 0.4383(5) 0.4865(7) 0.6062(7)
C22 C 0.4247(5) 0.5724(7) 0.6404(7)
C23 C 0.4062(5) 0.6782(7) 0.6784(6)
C24 C 0.4509(5) 0.7649(7) 0.6683(6)
H10 H 0.493848 0.751686 0.641382
C25 C 0.3434(4) 0.6978(6) 0.7231(12)
H11 H 0.313218 0.641142 0.735028
C26 C 0.3261(4) 0.8031(7) 0.7497(6)
H12 H 0.284660 0.818105 0.780545
C27 C 0.3724(4) 0.8857(6) 0.7291(11)
Eu4 Eu 0.01816(2) 0.46928(2) 0.71988(4)
O9 O 0.4107(3) 0.1216(4) 0.1965(4)
O10 O 0.4894(3) 0.0057(5) 0.0406(5)
N7 N 0.5649(3) 0.1332(5) 0.1954(4)
Eu1 Eu 0.48184(2) 0.96928(2) 0.21988(4)
O1 O 0.4708(4) 0.8045(5) 0.3102(5)
O2 O 0.4249(4) 0.6885(5) 0.4206(6)
O6 O 0.5106(3) 0.9943(5) 0.5406(5)
N1 N 0.3814(4) 0.9574(6) 0.3569(6)
C1 C 0.4270(5) 0.7758(7) 0.3769(6)
C2 C 0.3757(4) 0.8614(7) 0.4064(6)
C3 C 0.3280(5) 0.8439(7) 0.4818(7)
H1 H 0.323814 0.776019 0.511610
C4 C 0.2867(5) 0.9280(8) 0.5120(7)
H2 H 0.254711 0.918059 0.562997
O11 O 0.5993(2) 0.9284(4) 0.2310(7)
N5 N 0.3653(4) 0.9266(6) 0.1334(6)
N6 N 0.5083(4) 0.7995(6) 0.0993(5)
H1_2 H 0.676186 0.223981 0.011610
C4_2 C 0.7133(5) 0.0720(8) 0.0120(7)
H2_2 H 0.745289 0.081941 0.062997
O1_2 O 0.5292(4) 0.1955(5) 0.8102(5)
O2_2 O 0.5751(4) 0.3115(5) 0.9206(6)
N1_2 N 0.6186(4) 0.0426(6) 0.8569(6)
C1_2 C 0.5730(5) 0.2242(7) 0.8769(6)
C2_2 C 0.6243(4) 0.1386(7) 0.9064(6)
C3_2 C 0.6720(5) 0.1561(7) 0.9818(7)
N5_2 N 0.6347(4) 0.0734(6) 0.6334(6)
O3_2 O 0.9107(3) 0.3784(4) 0.1965(4)
O4_2 O 0.8125(3) 0.3015(5) 0.1529(5)
N2_2 N 0.8653(4) 0.5734(6) 0.1334(6)
C8_2 C 0.7628(5) 0.7895(8) 0.0149(8)
C9_2 C 0.7854(5) 0.6824(8) 0.0438(8)
C10_2 C 0.8438(4) 0.6686(7) 0.1015(7)
H4_2 H 0.869124 0.729612 0.118406
C11_2 C 0.7475(5) 0.5919(9) 0.0200(8)
C12_2 C 0.7678(5) 0.4930(8) 0.0561(8)
H6_2 H 0.741991 0.431455 0.042925
C13_2 C 0.8275(5) 0.4854(8) 0.1129(7)
C14_2 C 0.8527(5) 0.3792(8) 0.1566(7)
C16_2 C 0.5134(4) 0.8223(7) -0.0000(6)
C19_2 C 0.5457(5) 0.6171(8) 0.0651(7)
C20_2 C 0.5230(4) 0.6996(6) 0.1292(6)
H9_2 H 0.517807 0.683405 0.197508
C21_2 C 0.5617(5) 0.5135(7) 0.1062(7)
C22_2 C 0.5753(5) 0.4276(7) 0.1404(7)
C23_2 C 0.5938(5) 0.3218(7) 0.1784(6)
C24_2 C 0.5491(5) 0.2351(7) 0.1683(6)
H10_2 H 0.506152 0.248314 0.141382
C25_2 C 0.6566(4) 0.3022(6) 0.2231(12)
H11_2 H 0.686782 0.358858 0.235028
C26_2 C 0.6739(4) 0.1969(7) 0.2497(6)
H12_2 H 0.715340 0.181895 0.280545
C27_2 C 0.6276(4) 0.1143(6) 0.2291(11)
Eu4_2 Eu 0.98184(2) 0.53072(2) 0.21988(4)
O5_2 O 0.4877(3) 0.9562(5) 0.8782(5)
C5_2 C 0.7064(4) 0.9731(7) 0.9653(7)
C6_2 C 0.6586(5) 0.9636(7) 0.8877(7)
H3_2 H 0.654814 0.897009 0.855442
C7_2 C 0.7410(5) 0.8757(9) 0.9962(7)
H5_2 H 0.708724 0.597952 0.979969
C15_2 C 0.4955(4) 0.9369(7) 0.9698(6)
C16_3 C 0.5134(4) 0.8223(7) 1.0000(6)
C17_2 C 0.5343(5) 0.7455(7) 0.9295(6)
H7_2 H 0.536564 0.762859 0.861059
C18_2 C 0.5516(5) 0.6428(7) 0.9630(6)
H8_2 H 0.567188 0.591172 0.917287
O9_2 O 0.5893(3) 0.8784(4) 0.6965(4)
O8_2 O 0.7035(3) 0.9746(5) 0.2804(6)
C28_2 C 0.6464(5) 0.9970(8) 0.2513(7)
O5_3 O 0.0123(3) 0.4562(5) 0.3782(5)
O6_2 O 0.0106(3) 0.5057(5) 0.5406(5)
C15_3 C 0.0045(4) 0.4369(7) 0.4698(6)
O11_2 O 0.0993(2) 0.5716(4) 0.2310(7)
N6_2 N 0.0083(4) 0.7005(6) 0.0993(5)
N7_2 N 0.0649(3) 0.3668(5) 0.1954(4)
O1_3 O 0.9708(4) 0.6955(5) 0.3102(5)
O2_3 O 0.9249(4) 0.8115(5) 0.4206(6)
N1_3 N 0.8814(4) 0.5426(6) 0.3569(6)
N3_2 N 0.9917(4) 0.2995(6) 0.5993(5)
C1_3 C 0.9270(5) 0.7242(7) 0.3769(6)
C2_3 C 0.8757(4) 0.6386(7) 0.4064(6)
C3_3 C 0.8280(5) 0.6561(7) 0.4818(7)
H1_3 H 0.823814 0.723981 0.511610
C4_3 C 0.7867(5) 0.5720(8) 0.5120(7)
H2_3 H 0.754711 0.581941 0.562997
C5_3 C 0.7936(4) 0.4731(7) 0.4653(7)
C6_3 C 0.8414(5) 0.4636(7) 0.3877(7)
H3_3 H 0.845186 0.397009 0.355442
C7_3 C 0.7590(5) 0.3757(9) 0.4962(7)
C8_3 C 0.7372(5) 0.2895(8) 0.5149(8)
C9_3 C 0.7146(5) 0.1824(8) 0.5438(8)
C10_3 C 0.6562(4) 0.1686(7) 0.6015(7)
H4_3 H 0.630876 0.229612 0.618406
C11_3 C 0.7525(5) 0.0919(9) 0.5200(8)
H5_3 H 0.791276 0.097952 0.479969
C16_4 C 0.9866(4) 0.3223(7) 0.5000(6)
C17_3 C 0.9657(5) 0.2455(7) 0.4295(6)
H7_3 H 0.963436 0.262859 0.361059
C18_3 C 0.9484(5) 0.1428(7) 0.4630(6)
H8_3 H 0.932812 0.091172 0.417287
C19_3 C 0.9543(5) 0.1171(8) 0.5651(7)
C20_3 C 0.9770(4) 0.1996(6) 0.6292(6)
H9_3 H 0.982193 0.183405 0.697508
C21_3 C 0.9383(5) 0.0135(7) 0.6062(7)
O10_2 O 0.9894(3) 0.4943(5) 0.0406(5)
O4_3 O 0.6875(3) 0.8015(5) 0.6529(5)
O7_2 O 0.9007(2) 0.4284(4) 0.7310(7)
O8_3 O 0.7965(3) 0.4746(5) 0.7804(6)
N4_2 N 0.9351(3) 0.6332(5) 0.6954(4)
C12_3 C 0.7322(5) 0.9930(8) 0.5561(8)
H6_3 H 0.758009 0.931455 0.542925
C13_3 C 0.6725(5) 0.9854(8) 0.6129(7)
C14_3 C 0.6473(5) 0.8792(8) 0.6566(7)
C22_3 C 0.9247(5) 0.9276(7) 0.6404(7)
C23_3 C 0.9062(5) 0.8218(7) 0.6784(6)
C24_3 C 0.9509(5) 0.7351(7) 0.6683(6)
H10_3 H 0.993848 0.748314 0.641382
C25_3 C 0.8434(4) 0.8022(6) 0.7231(12)
H11_3 H 0.813218 0.858858 0.735028
C26_3 C 0.8261(4) 0.6969(7) 0.7497(6)
H12_3 H 0.784660 0.681895 0.780545
C27_3 C 0.8724(4) 0.6143(6) 0.7291(11)
C28_3 C 0.8536(5) 0.4970(8) 0.7513(7)
O4_4 O 0.3125(3) 0.1985(5) 0.1529(5)
O8_4 O 0.2035(3) 0.5254(5) 0.2804(6)
C12_4 C 0.2678(5) 0.0070(8) 0.0561(8)
H6_4 H 0.241991 0.068545 0.042925
C13_4 C 0.3275(5) 0.0146(8) 0.1129(7)
C14_4 C 0.3527(5) 0.1208(8) 0.1566(7)
C22_4 C 0.0753(5) 0.0724(7) 0.1404(7)
C23_4 C 0.0938(5) 0.1782(7) 0.1784(6)
C24_4 C 0.0491(5) 0.2649(7) 0.1683(6)
H10_4 H 0.006152 0.251686 0.141382
C25_4 C 0.1566(4) 0.1978(6) 0.2231(12)
H11_4 H 0.186782 0.141142 0.235028
C26_4 C 0.1739(4) 0.3031(7) 0.2497(6)
H12_4 H 0.215340 0.318105 0.280545
C27_4 C 0.1276(4) 0.3857(6) 0.2291(11)
C28_4 C 0.1464(5) 0.5030(8) 0.2513(7)
H1_4 H 0.176186 0.276019 0.011610
C4_4 C 0.2133(5) 0.4280(8) 0.0120(7)
H2_4 H 0.245289 0.418059 0.062997
C8_4 C 0.2628(5) 0.7105(8) 0.0149(8)
C9_4 C 0.2854(5) 0.8176(8) 0.0438(8)
C10_4 C 0.3438(4) 0.8314(7) 0.1015(7)
H4_4 H 0.369124 0.770388 0.118406
C11_4 C 0.2475(5) 0.9081(9) 0.0200(8)
C16_5 C 0.0134(4) 0.6777(7) -0.0000(6)
C19_4 C 0.0457(5) 0.8829(8) 0.0651(7)
C20_4 C 0.0230(4) 0.8004(6) 0.1292(6)
H9_4 H 0.017807 0.816595 0.197508
C21_4 C 0.0617(5) 0.9865(7) 0.1062(7)
O1_4 O 0.0292(4) 0.3045(5) 0.8102(5)
O2_4 O 0.0751(4) 0.1885(5) 0.9206(6)
N1_4 N 0.1186(4) 0.4574(6) 0.8569(6)
C1_4 C 0.0730(5) 0.2758(7) 0.8769(6)
C2_4 C 0.1243(4) 0.3614(7) 0.9064(6)
C3_4 C 0.1720(5) 0.3439(7) 0.9818(7)
C5_4 C 0.2064(4) 0.5269(7) 0.9653(7)
C6_4 C 0.1586(5) 0.5364(7) 0.8877(7)
H3_4 H 0.154814 0.602991 0.855442
C7_4 C 0.2410(5) 0.6243(9) 0.9962(7)
H5_4 H 0.208724 0.902048 0.979969
C16_6 C 0.0134(4) 0.6777(7) 1.0000(6)
C17_4 C 0.0343(5) 0.7545(7) 0.9295(6)
H7_4 H 0.036564 0.737141 0.861059
C18_4 C 0.0516(5) 0.8572(7) 0.9630(6)
H8_4 H 0.067188 0.908828 0.917287
O5_4 O 0.9877(3) 0.5438(5) 0.8782(5)
C15_4 C 0.9955(4) 0.5631(7) 0.9698(6)
N8 N 0.6294(5) 0.7391(8) 0.3297(7)
H13 H 0.606(5) 0.791(7) 0.293(8)
H14 H 0.596(4) 0.688(7) 0.347(9)
C29 C 0.6446(8) 0.7854(11) 0.4310(10)
H15 H 0.674027 0.846897 0.423559
H16 H 0.666567 0.731708 0.472056
H17 H 0.602897 0.807565 0.462812
C30 C 0.6919(6) 0.6893(11) 0.2773(10)
H18 H 0.680554 0.671126 0.208673
H19 H 0.705558 0.625096 0.312785
H20 H 0.728607 0.740599 0.277604
N8_2 N 0.3706(5) 0.2609(8) 0.8297(7)
H13_2 H 0.394(5) 0.209(7) 0.793(8)
H14_2 H 0.404(4) 0.312(7) 0.847(9)
C29_2 C 0.3554(8) 0.2146(11) 0.9310(10)
H15_2 H 0.325973 0.153103 0.923559
H16_2 H 0.333433 0.268292 0.972056
H17_2 H 0.397103 0.192435 0.962812
C30_2 C 0.3081(6) 0.3107(11) 0.7773(10)
H18_2 H 0.319446 0.328874 0.708673
H19_2 H 0.294442 0.374904 0.812785
H20_2 H 0.271393 0.259401 0.777604
N8_3 N 0.1294(5) 0.7609(8) 0.3297(7)
H13_3 H 0.106(5) 0.709(7) 0.293(8)
H14_3 H 0.096(4) 0.812(7) 0.347(9)
C29_3 C 0.1446(8) 0.7146(11) 0.4310(10)
H15_3 H 0.174027 0.653103 0.423559
H16_3 H 0.166567 0.768292 0.472056
H17_3 H 0.102897 0.692435 0.462812
C30_3 C 0.1919(6) 0.8107(11) 0.2773(10)
H18_3 H 0.180554 0.828874 0.208673
H19_3 H 0.205558 0.874904 0.312785
H20_3 H 0.228607 0.759401 0.277604
N8_4 N 0.8706(5) 0.2391(8) 0.8297(7)
H13_4 H 0.894(5) 0.291(7) 0.793(8)
H14_4 H 0.904(4) 0.188(7) 0.847(9)
C29_4 C 0.8554(8) 0.2854(11) 0.9310(10)
H15_4 H 0.825973 0.346897 0.923559
H16_4 H 0.833433 0.231708 0.972056
H17_4 H 0.897103 0.307565 0.962812
C30_4 C 0.8081(6) 0.1893(11) 0.7773(10)
H18_4 H 0.819446 0.171126 0.708673
H19_4 H 0.794442 0.125096 0.812785
H20_4 H 0.771393 0.240599 0.777604
loop_
_geom_bond_atom_site_label_1
_geom_bond_atom_site_label_2
_geom_bond_site_symmetry_1
_geom_bond_site_symmetry_2
O7 C28 1_555 1_555
O8 C28 1_555 1_555
Eu3 O7 1_555 1_555
O3 C14 1_555 1_555
O4 C14 1_555 1_555
N2 C10 1_555 1_555
N3 C16 1_555 1_555
N4 C24 1_555 1_555
H3 C6 1_555 1_555
C7 C5 1_555 1_555
C8 C7 1_555 1_555
C9 C8 1_555 1_555
C10 C9 1_555 1_555
H4 C10 1_555 1_555
C11 C9 1_555 1_555
H5 C11 1_555 1_555
C12 C11 1_555 1_555
H6 C12 1_555 1_555
C13 N2 1_555 1_555
C14 C13 1_555 1_555
C15 O5 1_555 1_555
C16 C15 1_555 1_555
C17 C16 1_555 1_555
H7 C17 1_555 1_555
C18 C17 1_555 1_555
H8 C18 1_555 1_555
C19 C18 1_555 1_555
C20 N3 1_555 1_555
H9 C20 1_555 1_555
C21 C19 1_555 1_555
C22 C21 1_555 1_555
C23 C22 1_555 1_555
C24 C23 1_555 1_555
H10 C24 1_555 1_555
C25 C23 1_555 1_555
H11 C25 1_555 1_555
C26 C25 1_555 1_555
H12 C26 1_555 1_555
C27 N4 1_555 1_555
Eu4 O3 1_555 1_555
N2 Eu4 1_555 1_555
N3 Eu3 1_555 1_555
C5 C6 1_555 1_555
C12 C13 1_555 1_555
C19 C20 1_555 1_555
C26 C27 1_555 1_555
Eu1 O1 1_555 1_555
O1 C1 1_555 1_555
O2 C1 1_555 1_555
N1 Eu1 1_555 1_555
C1 C2 1_555 1_555
C2 N1 1_555 1_555
C3 C2 1_555 1_555
H1 C3 1_555 1_555
C4 C3 1_555 1_555
H2 C4 1_555 1_555
O11 Eu1 1_555 1_555
N5 Eu1 1_555 1_555
N6 Eu1 1_555 1_555
H2_2 C4_2 1_555 1_555
Eu3 O1_2 1_555 1_555
O1_2 C1_2 1_555 1_555
O2_2 C1_2 1_555 1_555
N1_2 Eu3 1_555 1_555
C1_2 C2_2 1_555 1_555
C2_2 N1_2 1_555 1_555
C3_2 C2_2 1_555 1_555
N5_2 Eu3 1_555 1_555
O3_2 C14_2 1_555 1_555
O4_2 C14_2 1_555 1_555
N2_2 C10_2 1_555 1_555
N6 C16_2 1_555 1_555
N7 C24_2 1_555 1_555
C9_2 C8_2 1_555 1_555
C10_2 C9_2 1_555 1_555
H4_2 C10_2 1_555 1_555
C11_2 C9_2 1_555 1_555
C12_2 C11_2 1_555 1_555
H6_2 C12_2 1_555 1_555
C13_2 N2_2 1_555 1_555
C14_2 C13_2 1_555 1_555
C20_2 N6 1_555 1_555
H9_2 C20_2 1_555 1_555
C21_2 C19_2 1_555 1_555
C22_2 C21_2 1_555 1_555
C23_2 C22_2 1_555 1_555
C24_2 C23_2 1_555 1_555
H10_2 C24_2 1_555 1_555
C25_2 C23_2 1_555 1_555
H11_2 C25_2 1_555 1_555
C26_2 C25_2 1_555 1_555
H12_2 C26_2 1_555 1_555
C27_2 N7 1_555 1_555
Eu4_2 O3_2 1_555 1_555
N2_2 Eu4_2 1_555 1_555
C12_2 C13_2 1_555 1_555
C19_2 C20_2 1_555 1_555
C26_2 C27_2 1_555 1_555
H3_2 C6_2 1_555 1_555
C7_2 C5_2 1_555 1_555
C15_2 O5_2 1_555 1_555
C16_3 C15_2 1_555 1_555
C17_2 C16_3 1_555 1_555
H7_2 C17_2 1_555 1_555
C18_2 C17_2 1_555 1_555
H8_2 C18_2 1_555 1_555
C5_2 C6_2 1_555 1_555
O11 C28_2 1_555 1_555
O8_2 C28_2 1_555 1_555
O6_2 C15_3 1_555 1_555
C15_3 O5_3 1_555 1_555
Eu4 O6_2 1_555 1_555
Eu4_2 O1_3 1_555 1_555
O1_3 C1_3 1_555 1_555
O2_3 C1_3 1_555 1_555
N1_3 Eu4_2 1_555 1_555
N5_2 C10_3 1_555 1_555
N3_2 C16_4 1_555 1_555
C1_3 C2_3 1_555 1_555
C2_3 N1_3 1_555 1_555
C3_3 C2_3 1_555 1_555
H1_3 C3_3 1_555 1_555
C4_3 C3_3 1_555 1_555
H2_3 C4_3 1_555 1_555
C5_3 C4_3 1_555 1_555
C6_3 N1_3 1_555 1_555
H3_3 C6_3 1_555 1_555
C7_3 C5_3 1_555 1_555
C8_3 C7_3 1_555 1_555
C9_3 C8_3 1_555 1_555
C10_3 C9_3 1_555 1_555
H4_3 C10_3 1_555 1_555
C11_3 C9_3 1_555 1_555
H5_3 C11_3 1_555 1_555
C17_3 C16_4 1_555 1_555
H7_3 C17_3 1_555 1_555
C18_3 C17_3 1_555 1_555
H8_3 C18_3 1_555 1_555
C19_3 C18_3 1_555 1_555
C20_3 N3_2 1_555 1_555
H9_3 C20_3 1_555 1_555
C21_3 C19_3 1_555 1_555
O10_2 Eu4_2 1_555 1_555
C5_3 C6_3 1_555 1_555
C19_3 C20_3 1_555 1_555
O9_2 C14_3 1_555 1_555
O4_3 C14_3 1_555 1_555
O7_2 C28_3 1_555 1_555
O8_3 C28_3 1_555 1_555
N4_2 C24_3 1_555 1_555
H6_3 C12_3 1_555 1_555
C14_3 C13_3 1_555 1_555
C23_3 C22_3 1_555 1_555
C24_3 C23_3 1_555 1_555
H10_3 C24_3 1_555 1_555
C25_3 C23_3 1_555 1_555
H11_3 C25_3 1_555 1_555
C26_3 C25_3 1_555 1_555
H12_3 C26_3 1_555 1_555
C27_3 N4_2 1_555 1_555
C28_3 C27_3 1_555 1_555
C12_3 C13_3 1_555 1_555
C26_3 C27_3 1_555 1_555
O9 C14_4 1_555 1_555
O4_4 C14_4 1_555 1_555
O11_2 C28_4 1_555 1_555
O8_4 C28_4 1_555 1_555
N7_2 C24_4 1_555 1_555
H6_4 C12_4 1_555 1_555
C14_4 C13_4 1_555 1_555
C23_4 C22_4 1_555 1_555
C24_4 C23_4 1_555 1_555
H10_4 C24_4 1_555 1_555
C25_4 C23_4 1_555 1_555
H11_4 C25_4 1_555 1_555
C26_4 C25_4 1_555 1_555
H12_4 C26_4 1_555 1_555
C27_4 N7_2 1_555 1_555
C28_4 C27_4 1_555 1_555
C12_4 C13_4 1_555 1_555
C26_4 C27_4 1_555 1_555
N5 C10_4 1_555 1_555
N6_2 C16_5 1_555 1_555
H2_4 C4_4 1_555 1_555
C9_4 C8_4 1_555 1_555
C10_4 C9_4 1_555 1_555
H4_4 C10_4 1_555 1_555
C11_4 C9_4 1_555 1_555
C20_4 N6_2 1_555 1_555
H9_4 C20_4 1_555 1_555
C21_4 C19_4 1_555 1_555
C19_4 C20_4 1_555 1_555
Eu4 O1_4 1_555 1_555
O1_4 C1_4 1_555 1_555
O2_4 C1_4 1_555 1_555
N1_4 Eu4 1_555 1_555
C1_4 C2_4 1_555 1_555
C2_4 N1_4 1_555 1_555
C3_4 C2_4 1_555 1_555
C6_4 N1_4 1_555 1_555
H3_4 C6_4 1_555 1_555
C7_4 C5_4 1_555 1_555
C17_4 C16_6 1_555 1_555
H7_4 C17_4 1_555 1_555
C18_4 C17_4 1_555 1_555
H8_4 C18_4 1_555 1_555
C5_4 C6_4 1_555 1_555
C15_4 O5_4 1_555 1_555
N8 H13 1_555 1_555
H14 N8 1_555 1_555
C29 N8 1_555 1_555
H15 C29 1_555 1_555
H16 C29 1_555 1_555
H17 C29 1_555 1_555
C30 N8 1_555 1_555
H18 C30 1_555 1_555
H19 C30 1_555 1_555
H20 C30 1_555 1_555
N8_2 H13_2 1_555 1_555
H14_2 N8_2 1_555 1_555
C29_2 N8_2 1_555 1_555
H15_2 C29_2 1_555 1_555
H16_2 C29_2 1_555 1_555
H17_2 C29_2 1_555 1_555
C30_2 N8_2 1_555 1_555
H18_2 C30_2 1_555 1_555
H19_2 C30_2 1_555 1_555
H20_2 C30_2 1_555 1_555
N8_3 H13_3 1_555 1_555
H14_3 N8_3 1_555 1_555
C29_3 N8_3 1_555 1_555
H15_3 C29_3 1_555 1_555
H16_3 C29_3 1_555 1_555
H17_3 C29_3 1_555 1_555
C30_3 N8_3 1_555 1_555
H18_3 C30_3 1_555 1_555
H19_3 C30_3 1_555 1_555
H20_3 C30_3 1_555 1_555
N8_4 H13_4 1_555 1_555
H14_4 N8_4 1_555 1_555
C29_4 N8_4 1_555 1_555
H15_4 C29_4 1_555 1_555
H16_4 C29_4 1_555 1_555
H17_4 C29_4 1_555 1_555
C30_4 N8_4 1_555 1_555
H18_4 C30_4 1_555 1_555
H19_4 C30_4 1_555 1_555
H20_4 C30_4 1_555 1_555

#END
