
###############################################################################
#
# This file contains modified crystal structure data generated from the
# MOF subset of the Cambridge Structural Database (CSD) v543 
# hosted by the Cambridge Crystallographic Data Centre (CCDC).
#
# This work is licensed under the Creative Commons
# Attribution-NonCommercial-ShareAlike 4.0 International License.
# To view a copy of this license, visit
# http://creativecommons.org/licenses/by-nc-sa/4.0/
# or send a letter to
# Creative Commons, PO Box 1866, Mountain View, CA 94042, USA.
#
# CIF created using the CSD Python API on 29 September 2022
# The structure has been converted into the P1 space group
# The structure has a 3D framework
# The original CSD entry OXAZIX is in the monoclinic crystal system
# The framework has been calculated to contain at least 10.0% void space
# The void calculation uses a probe of radius 1.32A, grid spacing 0.4
#
###############################################################################

data_OXAZIX
_chemical_formula_moiety         '(C28 H26 N4 O23 Pr2)n'
_symmetry_cell_setting           triclinic
_symmetry_space_group_name_H-M   'P 1'
_symmetry_Int_Tables_number      1
_space_group_name_Hall           'P 1'
loop_
_symmetry_equiv_pos_site_id
_symmetry_equiv_pos_as_xyz
1 x,y,z
_cell_length_a                   9.350(4)
_cell_length_b                   16.158(6)
_cell_length_c                   8.309(3)
_cell_angle_alpha                90
_cell_angle_beta                 94.078(7)
_cell_angle_gamma                90
_cell_volume                     1252.12
loop_
_atom_site_label
_atom_site_type_symbol
_atom_site_fract_x
_atom_site_fract_y
_atom_site_fract_z
C3 C 0.024(4) 0.234(3) 0.293(5)
H1 H 0.0338 0.2845 0.3460
C4 C 0.140(3) 0.194(2) 0.256(5)
H2 H 0.2304 0.2177 0.2765
C5 C 0.126(3) 0.1165(17) 0.185(4)
C7 C 0.256(3) 0.0705(19) 0.129(3)
O2 O 0.239(2) 0.0012(16) 0.081(3)
O3 O 0.3744(18) 0.1086(11) 0.145(2)
Pr3 Pr 0.60802(16) 0.10653(9) 0.0319(2)
Pr2 Pr 0.39198(16) 0.89347(9) 0.9681(2)
Pr1 Pr 0.60802(16) 0.39347(9) 0.5319(2)
C1 C 0.755(3) 0.246(2) 0.293(4)
C2 C 0.893(3) 0.2034(19) 0.258(4)
C6 C 0.992(3) 0.0876(18) 0.152(3)
H3 H 0.9815 0.0355 0.1053
N1 N 0.873(2) 0.1298(16) 0.184(3)
O1 O 0.469(3) 0.2635(16) 0.454(3)
H4 H 0.5053 0.2163 0.4751
H5 H 0.3854 0.2671 0.4059
O4 O 0.764(2) 0.3075(16) 0.378(3)
O5 O 0.643(2) 0.2110(14) 0.233(3)
O6 O 0.559(3) 0.5291(16) 0.676(3)
H6 H 0.5937 0.5463 0.7787
H7 H 0.4806 0.5545 0.6553
Pr5 Pr 0.39198(16) 0.60653(9) 0.4681(2)
N2 N 0.873(2) 0.3702(16) 0.684(3)
O7 O 0.761(2) 0.5012(16) 0.419(3)
O8 O 0.3744(18) 0.3914(11) 0.645(2)
O9 O 0.643(2) 0.2890(14) 0.733(3)
O10 O 0.441(3) 0.4709(16) 0.324(3)
H8 H 0.4063 0.4537 0.2213
H9 H 0.5194 0.4455 0.3447
O6_2 O 0.441(3) 0.0291(16) 0.824(3)
H6_2 H 0.4063 0.0463 0.7213
H7_2 H 0.5194 0.0545 0.8447
C1_2 C 0.245(3) 0.746(2) 0.207(4)
C2_2 C 0.107(3) 0.7034(19) 0.242(4)
C6_2 C 0.008(3) 0.5876(18) 0.348(3)
H3_2 H 0.0185 0.5355 0.3947
N1_2 N 0.127(2) 0.6298(16) 0.316(3)
O1_2 O 0.531(3) 0.7635(16) 0.046(3)
H4_2 H 0.4947 0.7163 0.0249
H5_2 H 0.6146 0.7671 0.0941
O4_2 O 0.236(2) 0.8075(16) 0.122(3)
O5_2 O 0.357(2) 0.7110(14) 0.267(3)
O10_2 O 0.559(3) 0.9709(16) 0.176(3)
H8_2 H 0.5937 0.9537 0.2787
H9_2 H 0.4806 0.9455 0.1553
N2_2 N 0.127(2) 0.8702(16) 0.816(3)
O8_2 O 0.6256(18) 0.8914(11) 0.855(2)
O9_2 O 0.357(2) 0.7890(14) 0.767(3)
C3_2 C 0.976(4) 0.734(3) 0.207(5)
H1_2 H 0.9662 0.7845 0.1540
C4_2 C 0.860(3) 0.694(2) 0.244(5)
H2_2 H 0.7696 0.7177 0.2235
C5_2 C 0.874(3) 0.6165(17) 0.315(4)
C7_2 C 0.744(3) 0.5705(19) 0.371(3)
O3_2 O 0.6256(18) 0.6086(11) 0.355(2)
C1_3 C 0.245(3) 0.754(2) 0.707(4)
C2_3 C 0.107(3) 0.7966(19) 0.742(4)
C6_3 C 0.008(3) 0.9124(18) 0.848(3)
H3_3 H 0.0185 0.9645 0.8947
O1_3 O 0.531(3) 0.7365(16) 0.546(3)
H4_3 H 0.4947 0.7837 0.5249
H5_3 H 0.6146 0.7329 0.5941
O4_3 O 0.236(2) 0.6925(16) 0.622(3)
O7_2 O 0.239(2) 0.4988(16) 0.581(3)
C3_3 C 0.976(4) 0.766(3) 0.707(5)
H1_3 H 0.9662 0.7155 0.6540
C4_3 C 0.860(3) 0.806(2) 0.744(5)
H2_3 H 0.7696 0.7823 0.7235
C5_3 C 0.874(3) 0.8835(17) 0.815(4)
C7_3 C 0.744(3) 0.9295(19) 0.871(3)
O2_2 O 0.761(2) 0.9988(16) 0.919(3)
C3_4 C 0.024(4) 0.266(3) 0.793(5)
H1_4 H 0.0338 0.2155 0.8460
C4_4 C 0.140(3) 0.306(2) 0.756(5)
H2_4 H 0.2304 0.2823 0.7765
C5_4 C 0.126(3) 0.3835(17) 0.685(4)
C7_4 C 0.256(3) 0.4295(19) 0.629(3)
C1_4 C 0.755(3) 0.254(2) 0.793(4)
C2_4 C 0.893(3) 0.2966(19) 0.758(4)
C6_4 C 0.992(3) 0.4124(18) 0.652(3)
H3_4 H 0.9815 0.4645 0.6053
O1_4 O 0.469(3) 0.2365(16) 0.954(3)
H4_4 H 0.5053 0.2837 0.9751
H5_4 H 0.3854 0.2329 0.9059
O4_4 O 0.764(2) 0.1925(16) 0.878(3)
loop_
_geom_bond_atom_site_label_1
_geom_bond_atom_site_label_2
_geom_bond_site_symmetry_1
_geom_bond_site_symmetry_2
C3 H1 1_555 1_555
C4 C3 1_555 1_555
H2 C4 1_555 1_555
C5 C4 1_555 1_555
C7 C5 1_555 1_555
O2 C7 1_555 1_555
O3 C7 1_555 1_555
Pr3 O3 1_555 1_555
Pr1 O1 1_555 1_555
C1 C2 1_555 1_555
H3 C6 1_555 1_555
N1 C2 1_555 1_555
O1 H4 1_555 1_555
H5 O1 1_555 1_555
O4 Pr1 1_555 1_555
O5 C1 1_555 1_555
O6 Pr1 1_555 1_555
H6 O6 1_555 1_555
H7 O6 1_555 1_555
Pr3 N1 1_555 1_555
Pr5 O6 1_555 1_555
N2 Pr1 1_555 1_555
O7 Pr1 1_555 1_555
O8 Pr1 1_555 1_555
O9 Pr1 1_555 1_555
O10 Pr1 1_555 1_555
H8 O10 1_555 1_555
H9 O10 1_555 1_555
C1 O4 1_555 1_555
C6 N1 1_555 1_555
O5 Pr3 1_555 1_555
Pr5 O10 1_555 1_555
H6_2 O6_2 1_555 1_555
H7_2 O6_2 1_555 1_555
C1_2 C2_2 1_555 1_555
H3_2 C6_2 1_555 1_555
N1_2 C2_2 1_555 1_555
O1_2 H4_2 1_555 1_555
H5_2 O1_2 1_555 1_555
O5_2 C1_2 1_555 1_555
Pr5 N1_2 1_555 1_555
H8_2 O10_2 1_555 1_555
H9_2 O10_2 1_555 1_555
C1_2 O4_2 1_555 1_555
C6_2 N1_2 1_555 1_555
O5_2 Pr5 1_555 1_555
N2_2 Pr2 1_555 1_555
O8_2 Pr2 1_555 1_555
O9_2 Pr2 1_555 1_555
C3_2 H1_2 1_555 1_555
C4_2 C3_2 1_555 1_555
H2_2 C4_2 1_555 1_555
C5_2 C4_2 1_555 1_555
C7_2 C5_2 1_555 1_555
O7 C7_2 1_555 1_555
O3_2 C7_2 1_555 1_555
Pr5 O3_2 1_555 1_555
Pr5 O1_3 1_555 1_555
C1_3 C2_3 1_555 1_555
H3_3 C6_3 1_555 1_555
N2_2 C2_3 1_555 1_555
O1_3 H4_3 1_555 1_555
H5_3 O1_3 1_555 1_555
O4_3 Pr5 1_555 1_555
O9_2 C1_3 1_555 1_555
O7_2 Pr5 1_555 1_555
C1_3 O4_3 1_555 1_555
C6_3 N2_2 1_555 1_555
C3_3 H1_3 1_555 1_555
C4_3 C3_3 1_555 1_555
H2_3 C4_3 1_555 1_555
C5_3 C4_3 1_555 1_555
C7_3 C5_3 1_555 1_555
O2_2 C7_3 1_555 1_555
O8_2 C7_3 1_555 1_555
C3_4 H1_4 1_555 1_555
C4_4 C3_4 1_555 1_555
H2_4 C4_4 1_555 1_555
C5_4 C4_4 1_555 1_555
C7_4 C5_4 1_555 1_555
O7_2 C7_4 1_555 1_555
O8 C7_4 1_555 1_555
C1_4 C2_4 1_555 1_555
H3_4 C6_4 1_555 1_555
N2 C2_4 1_555 1_555
O1_4 H4_4 1_555 1_555
H5_4 O1_4 1_555 1_555
O9 C1_4 1_555 1_555
C1_4 O4_4 1_555 1_555
C6_4 N2 1_555 1_555

#END
