
###############################################################################
#
# This file contains modified crystal structure data generated from the
# MOF subset of the Cambridge Structural Database (CSD) v543 
# hosted by the Cambridge Crystallographic Data Centre (CCDC).
#
# This work is licensed under the Creative Commons
# Attribution-NonCommercial-ShareAlike 4.0 International License.
# To view a copy of this license, visit
# http://creativecommons.org/licenses/by-nc-sa/4.0/
# or send a letter to
# Creative Commons, PO Box 1866, Mountain View, CA 94042, USA.
#
# CIF created using the CSD Python API on 29 September 2022
# The structure has been converted into the P1 space group
# The structure has a 3D framework
# The original CSD entry OXEMEM is in the monoclinic crystal system
# The framework has been calculated to contain at least 10.0% void space
# The void calculation uses a probe of radius 1.32A, grid spacing 0.4
#
###############################################################################

data_OXEMEM
_chemical_formula_moiety         '(C80 H64 In4 N12 O40)n'
_symmetry_cell_setting           triclinic
_symmetry_space_group_name_H-M   'P 1'
_symmetry_Int_Tables_number      1
_space_group_name_Hall           'P 1'
loop_
_symmetry_equiv_pos_site_id
_symmetry_equiv_pos_as_xyz
1 x,y,z
_cell_length_a                   9.9779(4)
_cell_length_b                   17.5209(7)
_cell_length_c                   15.4918(6)
_cell_angle_alpha                90
_cell_angle_beta                 105.2930(10)
_cell_angle_gamma                90
_cell_volume                     2612.4
loop_
_atom_site_label
_atom_site_type_symbol
_atom_site_fract_x
_atom_site_fract_y
_atom_site_fract_z
C14 C 0.2458(9) 0.6136(5) 0.0427(6)
O5 O 0.4358(7) 0.6707(4) 0.1545(5)
C16 C 0.0060(9) 0.6213(5) 0.0402(6)
C17 C 0.1461(9) 0.6354(5) 0.0839(6)
H8 H 0.1712 0.6595 0.1408
C18 C 0.3966(9) 0.6317(5) 0.0848(7)
O9 O 0.4868(6) 0.6065(4) 0.0461(4)
In4 In 0.66642(6) 0.66365(3) 0.14089(4)
N2 N 0.0396(8) 0.5285(4) 0.8324(5)
H2 H 0.0974 0.4934 0.8232
C12 C 0.0739(9) 0.5653(5) 0.9155(5)
C13 C 0.2114(9) 0.5778(5) 0.9599(6)
H7 H 0.2827 0.5618 0.9336
O12 O 0.0642(7) 0.1707(4) 0.3455(5)
O16 O 0.0132(6) 0.1065(4) 0.4539(4)
C15 C 0.8921(9) 0.6412(5) 0.0809(6)
O7 O 0.7702(7) 0.6171(4) 0.0414(4)
O8 O 0.9078(6) 0.6795(4) 0.1507(4)
In1 In 0.83358(6) 0.16365(3) 0.35911(4)
C1 C 0.7705(9) 0.5209(5) 0.3598(6)
O1 O 0.8137(7) 0.2851(3) 0.3191(4)
O2 O 0.8737(8) 0.2634(4) 0.4626(4)
C2 C 0.8390(9) 0.3100(5) 0.3989(6)
C3 C 0.8329(9) 0.4970(5) 0.5174(6)
C4 C 0.9178(10) 0.4921(6) 0.6834(6)
N1 N 0.8542(8) 0.5273(4) 0.6054(5)
H1 H 0.8227 0.5737 0.6096
C5 C 0.7888(9) 0.4429(5) 0.3442(6)
H3 H 0.7738 0.4249 0.2845
C6 C 0.8286(9) 0.3919(5) 0.4153(6)
C7 C 0.8505(9) 0.4193(5) 0.5036(6)
H4 H 0.8768 0.3853 0.5530
C8 C 0.9259(10) 0.5425(6) 0.7655(6)
O3 O 0.8311(10) 0.5858(6) 0.7679(5)
C9 C 0.7946(10) 0.5463(5) 0.4455(6)
H5 H 0.7850 0.5992 0.4561
O4 O 0.7161(6) 0.5470(4) 0.2031(4)
C10 C 0.7355(9) 0.5730(5) 0.2821(5)
C11 C 0.9712(9) 0.5863(5) 0.9579(6)
H6 H 0.8763 0.5761 0.9292
O6 O 0.7220(7) 0.6440(3) 0.2926(4)
O10 O 0.9644(7) 0.4280(4) 0.6929(5)
O11 O 0.7839(6) 0.0470(4) 0.2969(4)
O13 O 0.7780(7) 0.1440(3) 0.2074(4)
O14 O 0.7298(7) 0.1171(4) 0.4586(4)
O15 O 0.5922(6) 0.1795(4) 0.3493(4)
C1_2 C 0.7295(9) 0.0209(5) 0.1402(6)
C9_2 C 0.7054(10) 0.0463(5) 0.0545(6)
H5_2 H 0.7150 0.0992 0.0439
C10_2 C 0.7645(9) 0.0730(5) 0.2179(5)
N1_2 N 0.6458(8) 0.0273(4) 0.8946(5)
H1_2 H 0.6773 0.0737 0.8904
N2_2 N 0.4604(8) 0.0285(4) 0.6676(5)
C8_2 C 0.5741(10) 0.0425(6) 0.7345(6)
O3_2 O 0.6689(10) 0.0858(6) 0.7321(5)
C11_2 C 0.5288(9) 0.0863(5) 0.5421(6)
H6_2 H 0.6237 0.0761 0.5708
C12_2 C 0.4261(9) 0.0653(5) 0.5845(5)
C13_2 C 0.2886(9) 0.0778(5) 0.5401(6)
H7_2 H 0.2173 0.0618 0.5664
C14_2 C 0.2542(9) 0.1136(5) 0.4573(6)
C15_2 C 0.6079(9) 0.1412(5) 0.4191(6)
C16_2 C 0.4940(9) 0.1213(5) 0.4598(6)
C17_2 C 0.3539(9) 0.1354(5) 0.4161(6)
H8_2 H 0.3288 0.1595 0.3592
C18_2 C 0.1034(9) 0.1317(5) 0.4152(7)
O1_2 O 0.6863(7) 0.7851(3) 0.1809(4)
O2_2 O 0.6263(8) 0.7634(4) 0.0374(4)
C2_2 C 0.6610(9) 0.8100(5) 0.1011(6)
C5_2 C 0.7112(9) 0.9429(5) 0.1558(6)
H3_2 H 0.7262 0.9249 0.2155
C6_2 C 0.6714(9) 0.8919(5) 0.0847(6)
C3_2 C 0.6671(9) 0.9970(5) 0.9826(6)
C4_2 C 0.5822(10) 0.9921(6) 0.8166(6)
H2_2 H 0.4026 0.9934 0.6768
C7_2 C 0.6495(9) 0.9193(5) 0.9964(6)
H4_2 H 0.6232 0.8853 0.9470
O10_2 O 0.5356(7) 0.9280(4) 0.8071(5)
In1_2 In 0.16642(6) 0.83635(3) 0.64089(4)
C1_3 C 0.2295(9) 0.4791(5) 0.6402(6)
O1_3 O 0.1863(7) 0.7149(3) 0.6809(4)
O2_3 O 0.1263(8) 0.7366(4) 0.5374(4)
C2_3 C 0.1610(9) 0.6900(5) 0.6011(6)
C3_3 C 0.1671(9) 0.5030(5) 0.4826(6)
C4_3 C 0.0822(10) 0.5079(6) 0.3166(6)
N1_3 N 0.1458(8) 0.4727(4) 0.3946(5)
H1_3 H 0.1773 0.4263 0.3904
C5_3 C 0.2112(9) 0.5571(5) 0.6558(6)
H3_3 H 0.2262 0.5751 0.7155
C6_3 C 0.1714(9) 0.6081(5) 0.5847(6)
C7_3 C 0.1495(9) 0.5807(5) 0.4964(6)
H4_3 H 0.1232 0.6147 0.4470
C8_3 C 0.0741(10) 0.4575(6) 0.2345(6)
O3_3 O 0.1689(10) 0.4142(6) 0.2321(5)
C9_3 C 0.2054(10) 0.4537(5) 0.5545(6)
H5_3 H 0.2150 0.4008 0.5439
O4_2 O 0.2839(6) 0.4530(4) 0.7969(4)
C10_3 C 0.2645(9) 0.4270(5) 0.7179(5)
C11_3 C 0.0288(9) 0.4137(5) 0.0421(6)
H6_3 H 0.1237 0.4239 0.0708
O6_2 O 0.2780(7) 0.3560(3) 0.7074(4)
O10_3 O 0.0356(7) 0.5720(4) 0.3071(5)
In2 In 0.33358(6) 0.33635(3) 0.85911(4)
O11_2 O 0.2161(6) 0.9530(4) 0.7031(4)
O13_2 O 0.2220(7) 0.8560(3) 0.7926(4)
O14_2 O 0.2702(7) 0.8829(4) 0.5414(4)
O15_2 O 0.4078(6) 0.8205(4) 0.6507(4)
C15_3 C 0.1079(9) 0.3588(5) 0.9191(6)
O7_2 O 0.2298(7) 0.3829(4) 0.9586(4)
O8_2 O 0.0922(6) 0.3205(4) 0.8493(4)
N2_3 N 0.9604(8) 0.4715(4) 0.1676(5)
H2_3 H 0.9026 0.5066 0.1768
C12_3 C 0.9261(9) 0.4347(5) 0.0845(5)
C13_3 C 0.7886(9) 0.4222(5) 0.0401(6)
H7_3 H 0.7173 0.4382 0.0664
O12_2 O 0.9358(7) 0.8293(4) 0.6545(5)
O16_2 O 0.9868(6) 0.8935(4) 0.5461(4)
C14_3 C 0.7542(9) 0.3864(5) 0.9573(6)
O5_2 O 0.5642(7) 0.3293(4) 0.8455(5)
C16_3 C 0.9940(9) 0.3787(5) 0.9598(6)
C17_3 C 0.8539(9) 0.3646(5) 0.9161(6)
H8_3 H 0.8288 0.3405 0.8592
C18_3 C 0.6034(9) 0.3683(5) 0.9152(7)
O9_2 O 0.5132(6) 0.3935(4) 0.9539(4)
O1_4 O 0.3137(7) 0.2149(3) 0.8191(4)
O2_4 O 0.3737(8) 0.2366(4) 0.9626(4)
C2_4 C 0.3390(9) 0.1900(5) 0.8989(6)
C5_4 C 0.2888(9) 0.0571(5) 0.8442(6)
H3_4 H 0.2738 0.0751 0.7845
C6_4 C 0.3286(9) 0.1081(5) 0.9153(6)
N1_4 N 0.3542(8) 0.9727(4) 0.1054(5)
H1_4 H 0.3227 0.9263 0.1096
N2_4 N 0.5396(8) 0.9715(4) 0.3324(5)
C8_4 C 0.4259(10) 0.9575(6) 0.2655(6)
O3_4 O 0.3311(10) 0.9142(6) 0.2679(5)
C11_4 C 0.4712(9) 0.9137(5) 0.4579(6)
H6_4 H 0.3763 0.9239 0.4292
C12_4 C 0.5739(9) 0.9347(5) 0.4155(5)
C13_4 C 0.7114(9) 0.9222(5) 0.4599(6)
H7_4 H 0.7827 0.9382 0.4336
C14_4 C 0.7458(9) 0.8864(5) 0.5427(6)
C15_4 C 0.3921(9) 0.8588(5) 0.5809(6)
C16_4 C 0.5060(9) 0.8787(5) 0.5402(6)
C17_4 C 0.6461(9) 0.8646(5) 0.5839(6)
H8_4 H 0.6712 0.8405 0.6408
C18_4 C 0.8966(9) 0.8683(5) 0.5848(7)
C1_4 C 0.2705(9) 0.9791(5) 0.8598(6)
C9_4 C 0.2946(10) 0.9537(5) 0.9455(6)
H5_4 H 0.2850 0.9008 0.9561
C10_4 C 0.2355(9) 0.9270(5) 0.7821(5)
C3_4 C 0.3329(9) 0.0030(5) 0.0174(6)
C4_4 C 0.4178(10) 0.0079(6) 0.1834(6)
H2_4 H 0.5974 0.0066 0.3232
C7_4 C 0.3505(9) 0.0807(5) 0.0036(6)
H4_4 H 0.3768 0.1147 0.0530
O10_4 O 0.4644(7) 0.0720(4) 0.1929(5)
C19 C 0.5464(19) 0.5781(10) 0.8445(15)
H9 H 0.6353 0.5540 0.8453
H10 H 0.5130 0.5586 0.8943
H11 H 0.4782 0.5665 0.7878
C20 C 0.444(2) 0.7122(14) 0.8542(18)
H12 H 0.4750 0.7655 0.8607
H13 H 0.3723 0.7059 0.7979
H14 H 0.4070 0.6980 0.9044
N3 N 0.565(2) 0.6619(10) 0.8536(16)
H15 H 0.6003 0.6779 0.8080
H16 H 0.6320 0.6707 0.9054
H11_2 H 0.0218 0.0665 0.7122
C20_2 C 0.056(2) 0.2122(14) 0.6458(18)
H12_2 H 0.0250 0.2655 0.6393
H13_2 H 0.1277 0.2059 0.7021
H14_2 H 0.0930 0.1980 0.5956
C19_2 C 0.9536(19) 0.0781(10) 0.6555(15)
H9_2 H 0.8647 0.0540 0.6547
H10_2 H 0.9870 0.0586 0.6057
N3_2 N 0.935(2) 0.1619(10) 0.6464(16)
H15_2 H 0.8997 0.1779 0.6920
H16_2 H 0.8680 0.1707 0.5946
C19_3 C 0.4536(19) 0.4219(10) 0.1555(15)
H9_3 H 0.3647 0.4460 0.1547
H10_3 H 0.4870 0.4414 0.1057
H11_3 H 0.5218 0.4335 0.2122
C20_3 C 0.556(2) 0.2878(14) 0.1458(18)
H12_3 H 0.5250 0.2345 0.1393
H13_3 H 0.6277 0.2941 0.2021
H14_3 H 0.5930 0.3020 0.0956
N3_3 N 0.435(2) 0.3381(10) 0.1464(16)
H15_3 H 0.3997 0.3221 0.1920
H16_3 H 0.3680 0.3293 0.0946
C19_4 C 0.0464(19) 0.9219(10) 0.3445(15)
H9_4 H 0.1353 0.9460 0.3453
H10_4 H 0.0130 0.9414 0.3943
N3_4 N 0.065(2) 0.8381(10) 0.3536(16)
H15_4 H 0.1003 0.8221 0.3080
H16_4 H 0.1320 0.8293 0.4054
H11_4 H 0.9782 0.9335 0.2878
C20_4 C 0.944(2) 0.7878(14) 0.3542(18)
H12_4 H 0.9750 0.7345 0.3607
H13_4 H 0.8723 0.7941 0.2979
H14_4 H 0.9070 0.8020 0.4044
loop_
_geom_bond_atom_site_label_1
_geom_bond_atom_site_label_2
_geom_bond_site_symmetry_1
_geom_bond_site_symmetry_2
O5 C18 1_555 1_555
C17 C14 1_555 1_555
H8 C17 1_555 1_555
C18 C14 1_555 1_555
O9 C18 1_555 1_555
In4 O5 1_555 1_555
C16 C17 1_555 1_555
O9 In4 1_555 1_555
N2 H2 1_555 1_555
C12 N2 1_555 1_555
C13 C12 1_555 1_555
H7 C13 1_555 1_555
O7 C15 1_555 1_555
O8 C15 1_555 1_555
In4 O7 1_555 1_555
O8 In4 1_555 1_555
In1 O1 1_555 1_555
C1 C5 1_555 1_555
O1 C2 1_555 1_555
O2 In1 1_555 1_555
C2 O2 1_555 1_555
C3 N1 1_555 1_555
C4 N1 1_555 1_555
N1 H1 1_555 1_555
C5 H3 1_555 1_555
C6 C2 1_555 1_555
C7 C3 1_555 1_555
H4 C7 1_555 1_555
C8 C4 1_555 1_555
O3 C8 1_555 1_555
C9 C1 1_555 1_555
H5 C9 1_555 1_555
O4 C10 1_555 1_555
C10 C1 1_555 1_555
C11 H6 1_555 1_555
O6 C10 1_555 1_555
O10 C4 1_555 1_555
In4 O4 1_555 1_555
O11 In1 1_555 1_555
O13 In1 1_555 1_555
O14 In1 1_555 1_555
O15 In1 1_555 1_555
C3 C9 1_555 1_555
C5 C6 1_555 1_555
C6 C7 1_555 1_555
O6 In4 1_555 1_555
C9_2 C1_2 1_555 1_555
H5_2 C9_2 1_555 1_555
O11 C10_2 1_555 1_555
C10_2 C1_2 1_555 1_555
O13 C10_2 1_555 1_555
N1_2 H1_2 1_555 1_555
O3_2 C8_2 1_555 1_555
C11_2 H6_2 1_555 1_555
C12_2 N2_2 1_555 1_555
C13_2 C12_2 1_555 1_555
H7_2 C13_2 1_555 1_555
C14_2 C13_2 1_555 1_555
O12 C18_2 1_555 1_555
C15_2 C16_2 1_555 1_555
C16_2 C11_2 1_555 1_555
C17_2 C14_2 1_555 1_555
H8_2 C17_2 1_555 1_555
C18_2 C14_2 1_555 1_555
O14 C15_2 1_555 1_555
O15 C15_2 1_555 1_555
O16 C18_2 1_555 1_555
N2_2 C8_2 1_555 1_555
C11_2 C12_2 1_555 1_555
C16_2 C17_2 1_555 1_555
In4 O1_2 1_555 1_555
O1_2 C2_2 1_555 1_555
O2_2 In4 1_555 1_555
C2_2 O2_2 1_555 1_555
C5_2 H3_2 1_555 1_555
C6_2 C2_2 1_555 1_555
C5_2 C6_2 1_555 1_555
C7_2 C3_2 1_555 1_555
H4_2 C7_2 1_555 1_555
O10_2 C4_2 1_555 1_555
In1_2 O1_3 1_555 1_555
C1_3 C5_3 1_555 1_555
O1_3 C2_3 1_555 1_555
O2_3 In1_2 1_555 1_555
C2_3 O2_3 1_555 1_555
C3_3 N1_3 1_555 1_555
C4_3 N1_3 1_555 1_555
N1_3 H1_3 1_555 1_555
C5_3 H3_3 1_555 1_555
C6_3 C2_3 1_555 1_555
C7_3 C3_3 1_555 1_555
H4_3 C7_3 1_555 1_555
C8_3 C4_3 1_555 1_555
O3_3 C8_3 1_555 1_555
C9_3 C1_3 1_555 1_555
H5_3 C9_3 1_555 1_555
O4_2 C10_3 1_555 1_555
C10_3 C1_3 1_555 1_555
C11_3 H6_3 1_555 1_555
O6_2 C10_3 1_555 1_555
O10_3 C4_3 1_555 1_555
In2 O4_2 1_555 1_555
O11_2 In1_2 1_555 1_555
O13_2 In1_2 1_555 1_555
O14_2 In1_2 1_555 1_555
O15_2 In1_2 1_555 1_555
C3_3 C9_3 1_555 1_555
C5_3 C6_3 1_555 1_555
C6_3 C7_3 1_555 1_555
O6_2 In2 1_555 1_555
O7_2 C15_3 1_555 1_555
O8_2 C15_3 1_555 1_555
In2 O7_2 1_555 1_555
O8_2 In2 1_555 1_555
N2_3 H2_3 1_555 1_555
C12_3 N2_3 1_555 1_555
C13_3 C12_3 1_555 1_555
H7_3 C13_3 1_555 1_555
O5_2 C18_3 1_555 1_555
C17_3 C14_3 1_555 1_555
H8_3 C17_3 1_555 1_555
C18_3 C14_3 1_555 1_555
O9_2 C18_3 1_555 1_555
In2 O5_2 1_555 1_555
C16_3 C17_3 1_555 1_555
O9_2 In2 1_555 1_555
In2 O1_4 1_555 1_555
O1_4 C2_4 1_555 1_555
O2_4 In2 1_555 1_555
C2_4 O2_4 1_555 1_555
C5_4 H3_4 1_555 1_555
C6_4 C2_4 1_555 1_555
C5_4 C6_4 1_555 1_555
N1_4 H1_4 1_555 1_555
O3_4 C8_4 1_555 1_555
C11_4 H6_4 1_555 1_555
C12_4 N2_4 1_555 1_555
C13_4 C12_4 1_555 1_555
H7_4 C13_4 1_555 1_555
C14_4 C13_4 1_555 1_555
O12_2 C18_4 1_555 1_555
C15_4 C16_4 1_555 1_555
C16_4 C11_4 1_555 1_555
C17_4 C14_4 1_555 1_555
H8_4 C17_4 1_555 1_555
C18_4 C14_4 1_555 1_555
O14_2 C15_4 1_555 1_555
O15_2 C15_4 1_555 1_555
O16_2 C18_4 1_555 1_555
N2_4 C8_4 1_555 1_555
C11_4 C12_4 1_555 1_555
C16_4 C17_4 1_555 1_555
C9_4 C1_4 1_555 1_555
H5_4 C9_4 1_555 1_555
O11_2 C10_4 1_555 1_555
C10_4 C1_4 1_555 1_555
O13_2 C10_4 1_555 1_555
C7_4 C3_4 1_555 1_555
H4_4 C7_4 1_555 1_555
O10_4 C4_4 1_555 1_555
C19 H9 1_555 1_555
H10 C19 1_555 1_555
H11 C19 1_555 1_555
C20 H12 1_555 1_555
H13 C20 1_555 1_555
H14 C20 1_555 1_555
N3 C19 1_555 1_555
H15 N3 1_555 1_555
H16 N3 1_555 1_555
C20 N3 1_555 1_555
C20_2 H12_2 1_555 1_555
H13_2 C20_2 1_555 1_555
H14_2 C20_2 1_555 1_555
C19_2 H9_2 1_555 1_555
H10_2 C19_2 1_555 1_555
N3_2 C19_2 1_555 1_555
H15_2 N3_2 1_555 1_555
H16_2 N3_2 1_555 1_555
C19_3 H9_3 1_555 1_555
H10_3 C19_3 1_555 1_555
H11_3 C19_3 1_555 1_555
C20_3 H12_3 1_555 1_555
H13_3 C20_3 1_555 1_555
H14_3 C20_3 1_555 1_555
N3_3 C19_3 1_555 1_555
H15_3 N3_3 1_555 1_555
H16_3 N3_3 1_555 1_555
C20_3 N3_3 1_555 1_555
C19_4 H9_4 1_555 1_555
H10_4 C19_4 1_555 1_555
N3_4 C19_4 1_555 1_555
H15_4 N3_4 1_555 1_555
H16_4 N3_4 1_555 1_555
C20_4 H12_4 1_555 1_555
H13_4 C20_4 1_555 1_555
H14_4 C20_4 1_555 1_555

#END
