
###############################################################################
#
# This file contains modified crystal structure data generated from the
# MOF subset of the Cambridge Structural Database (CSD) v543 
# hosted by the Cambridge Crystallographic Data Centre (CCDC).
#
# This work is licensed under the Creative Commons
# Attribution-NonCommercial-ShareAlike 4.0 International License.
# To view a copy of this license, visit
# http://creativecommons.org/licenses/by-nc-sa/4.0/
# or send a letter to
# Creative Commons, PO Box 1866, Mountain View, CA 94042, USA.
#
# CIF created using the CSD Python API on 29 September 2022
# The structure has been converted into the P1 space group
# The structure has a 3D framework
# The original CSD entry OXETUH is in the hexagonal crystal system
# The framework has been calculated to contain at least 10.0% void space
# The void calculation uses a probe of radius 1.32A, grid spacing 0.4
#
###############################################################################

data_OXETUH
_chemical_formula_moiety         '(C60 H36 Cu6 N12 O24)n'
_symmetry_cell_setting           triclinic
_symmetry_space_group_name_H-M   'P 1'
_symmetry_Int_Tables_number      1
_space_group_name_Hall           'P 1'
loop_
_symmetry_equiv_pos_site_id
_symmetry_equiv_pos_as_xyz
1 x,y,z
_cell_length_a                   17.1798(9)
_cell_length_b                   17.1798(9)
_cell_length_c                   6.8893(7)
_cell_angle_alpha                90
_cell_angle_beta                 90
_cell_angle_gamma                120
_cell_volume                     1760.93
loop_
_atom_site_label
_atom_site_type_symbol
_atom_site_fract_x
_atom_site_fract_y
_atom_site_fract_z
Cu7 Cu 0.32600(4) 0.03215(4) 0.2500
O2 O 0.2455(3) 0.1117(3) 0.2500
O3 O 0.4434(2) 0.1381(3) 0.2500
O4 O 0.5386(3) 0.0864(3) 0.2500
C1 C 0.0720(3) 0.0872(3) 0.2500
H1 H 0.1203 0.1458 0.2500
C2 C 0.0874(3) 0.0154(3) 0.2500
C3 C 0.1819(3) 0.0331(4) 0.2500
C4 C 0.6859(3) 0.2642(3) 0.2500
H2 H 0.6988 0.2177 0.2500
C5 C 0.5966(3) 0.2438(3) 0.2500
C6 C 0.5215(4) 0.1481(4) 0.2500
Cu4 Cu 0.70615(6) 0.67400(4) 0.2500
Cu5 Cu 0.96785(4) 0.29385(6) 0.2500
O6 O 0.0351(2) 0.2291(3) 0.2500
O9 O 0.6947(4) 0.5566(2) 0.2500
O10 O 0.8619(3) 0.3053(4) 0.2500
O13 O 0.5478(4) 0.4614(3) 0.2500
O14 O 0.9136(3) 0.4522(4) 0.2500
N3 N 0.32574(19) 0.0271(2) 0.5477(5)
N4 N 0.32574(19) 0.0271(2) 0.9523(5)
C15 C 0.7358(3) 0.4217(4) 0.2500
C16 C 0.5783(4) 0.3141(3) 0.2500
H7 H 0.7823 0.4811 0.2500
H8 H 0.5189 0.3012 0.2500
C17 C 0.7562(3) 0.3528(4) 0.2500
C18 C 0.6472(4) 0.4034(3) 0.2500
C19 C 0.6266(6) 0.4785(4) 0.2500
C20 C 0.8519(4) 0.3734(6) 0.2500
C22 C 0.3367(3) 0.0990(3) 0.6503(7)
C23 C 0.3367(3) 0.0990(3) 0.8497(7)
H10 H 0.3445 0.1496 0.5844
H11 H 0.3445 0.1496 0.9156
O8 O 0.8883(3) 0.1338(4) 0.2500
N9 N 0.9729(2) 0.29864(28) 0.5477(5)
C11 C 0.9846(3) 0.0720(4) 0.2500
C14 C 0.9669(4) 0.1488(5) 0.2500
N8 N 0.9729(2) 0.29864(28) 0.9523(5)
O5 O 0.7709(3) 0.8060(2) 0.2500
O7 O 0.8662(4) 0.7545(3) 0.2500
N7 N 0.70136(28) 0.67426(19) 0.5477(5)
C9 C 0.9128(3) 0.9848(4) 0.2500
H5 H 0.8542 0.9745 0.2500
C12 C 0.9280(4) 0.9126(3) 0.2500
C13 C 0.8512(5) 0.8181(3) 0.2500
N5 N 0.70136(28) 0.67426(19) 0.9523(5)
C24 C 0.7623(4) 0.6633(3) 0.8497(7)
C25 C 0.7623(4) 0.6633(3) 0.6503(7)
H12 H 0.8051 0.6555 0.9156
H13 H 0.8051 0.6555 0.5844
C29 C 0.6436(4) 0.6878(3) 0.8499(7)
C30 C 0.6436(4) 0.6878(3) 0.6501(7)
H17 H 0.6019 0.6976 0.9154
H18 H 0.6019 0.6976 0.5846
C27 C 0.0442(3) 0.3564(4) 0.6501(7)
C28 C 0.0442(3) 0.3564(4) 0.8499(7)
H15 H 0.0957 0.3981 0.5846
H16 H 0.0957 0.3981 0.9154
C22_2 C 0.9010(3) 0.2377(4) 0.6503(7)
C23_2 C 0.9010(3) 0.2377(4) 0.8497(7)
H10_2 H 0.8504 0.1949 0.5844
H11_2 H 0.8504 0.1949 0.9156
O1 O 0.1940(2) 0.9649(2) 0.2500
C10 C 0.0152(4) 0.9280(3) 0.2500
H6 H 0.0255 0.8797 0.2500
C27_2 C 0.3122(3) 0.9558(3) 0.6501(7)
C28_2 C 0.3122(3) 0.9558(3) 0.8499(7)
H15_2 H 0.3024 0.9043 0.5846
H16_2 H 0.3024 0.9043 0.9154
Cu7_2 Cu 0.29385(6) 0.32600(4) 0.7500
N3_2 N 0.29864(28) 0.32574(19) 0.0477(5)
N4_2 N 0.29864(28) 0.32574(19) 0.4523(5)
C22_3 C 0.2377(4) 0.3367(3) 0.1503(7)
C23_3 C 0.2377(4) 0.3367(3) 0.3497(7)
H10_3 H 0.1949 0.3445 0.0844
H11_3 H 0.1949 0.3445 0.4156
C27_3 C 0.3564(4) 0.3122(3) 0.1501(7)
C28_3 C 0.3564(4) 0.3122(3) 0.3499(7)
H15_3 H 0.3981 0.3024 0.0846
H16_3 H 0.3981 0.3024 0.4154
O1_2 O 0.2291(3) 0.1940(2) 0.7500
O2_2 O 0.1338(4) 0.2455(3) 0.7500
O3_2 O 0.3053(4) 0.4434(2) 0.7500
O4_2 O 0.4522(4) 0.5386(3) 0.7500
C2_2 C 0.0720(4) 0.0874(3) 0.7500
C3_2 C 0.1488(5) 0.1819(3) 0.7500
C4_2 C 0.4217(4) 0.6859(3) 0.7500
H2_2 H 0.4811 0.6988 0.7500
C5_2 C 0.3528(4) 0.5966(3) 0.7500
C6_2 C 0.3734(6) 0.5215(4) 0.7500
Cu4_2 Cu 0.03215(7) 0.70615(6) 0.7500
Cu5_2 Cu 0.67400(7) 0.96785(4) 0.7500
O9_2 O 0.1381(4) 0.6947(4) 0.7500
O10_2 O 0.5566(5) 0.8619(3) 0.7500
O13_2 O 0.0864(5) 0.5478(4) 0.7500
O14_2 O 0.4614(5) 0.9136(3) 0.7500
C10_2 C 0.0872(5) 0.0152(4) 0.7500
H6_2 H 0.1458 0.0255 0.7500
C15_2 C 0.3141(5) 0.7358(3) 0.7500
C16_2 C 0.2642(5) 0.5783(4) 0.7500
H7_2 H 0.3012 0.7823 0.7500
H8_2 H 0.2177 0.5189 0.7500
C17_2 C 0.4034(5) 0.7562(3) 0.7500
C18_2 C 0.2438(5) 0.6472(4) 0.7500
C19_2 C 0.1481(7) 0.6266(6) 0.7500
C20_2 C 0.4785(7) 0.8519(4) 0.7500
N7_2 N 0.02710(34) 0.70136(28) 0.0477(5)
O7_2 O 0.1117(5) 0.8662(4) 0.7500
N5_2 N 0.02710(34) 0.70136(28) 0.4523(5)
C12_2 C 0.0154(5) 0.9280(4) 0.7500
C13_2 C 0.0331(6) 0.8512(5) 0.7500
C24_2 C 0.0990(5) 0.7623(4) 0.3497(7)
C25_2 C 0.0990(5) 0.7623(4) 0.1503(7)
H12_2 H 0.1496 0.8051 0.4156
H13_2 H 0.1496 0.8051 0.0844
N9_2 N 0.67426(34) 0.9729(2) 0.0477(5)
O5_2 O 0.9649(4) 0.7709(3) 0.7500
O8_2 O 0.7545(5) 0.8883(3) 0.7500
N8_2 N 0.67426(34) 0.9729(2) 0.4523(5)
C9_2 C 0.9280(5) 0.9128(3) 0.7500
H5_2 H 0.8797 0.8542 0.7500
C11_2 C 0.9126(5) 0.9846(3) 0.7500
C14_2 C 0.8181(6) 0.9669(4) 0.7500
C29_2 C 0.9558(5) 0.6436(4) 0.3499(7)
C30_2 C 0.9558(5) 0.6436(4) 0.1501(7)
H17_2 H 0.9043 0.6019 0.4154
H18_2 H 0.9043 0.6019 0.0846
C22_4 C 0.6633(3) 0.9010(3) 0.1503(7)
C23_4 C 0.6633(3) 0.9010(3) 0.3497(7)
H10_4 H 0.6555 0.8504 0.0844
H11_4 H 0.6555 0.8504 0.4156
C1_2 C 0.9848(4) 0.0720(3) 0.7500
H1_2 H 0.9745 0.1203 0.7500
O6_2 O 0.8060(4) 0.0351(2) 0.7500
C27_4 C 0.6878(3) 0.0442(3) 0.1501(7)
C28_4 C 0.6878(3) 0.0442(3) 0.3499(7)
H15_4 H 0.6976 0.0957 0.0846
H16_4 H 0.6976 0.0957 0.4154
loop_
_geom_bond_atom_site_label_1
_geom_bond_atom_site_label_2
_geom_bond_site_symmetry_1
_geom_bond_site_symmetry_2
O2 Cu7 1_555 1_555
O3 Cu7 1_555 1_555
O4 C6 1_555 1_555
C1 H1 1_555 1_555
C2 C1 1_555 1_555
C3 O2 1_555 1_555
C4 H2 1_555 1_555
C5 C4 1_555 1_555
C6 O3 1_555 1_555
Cu4 O9 1_555 1_555
Cu5 O10 1_555 1_555
O9 C19 1_555 1_555
O10 C20 1_555 1_555
O13 C19 1_555 1_555
O14 C20 1_555 1_555
N3 Cu7 1_555 1_555
N4 C23 1_555 1_555
C15 H7 1_555 1_555
C16 C5 1_555 1_555
H8 C16 1_555 1_555
C17 C4 1_555 1_555
C18 C15 1_555 1_555
C19 C18 1_555 1_555
C20 C17 1_555 1_555
C22 N3 1_555 1_555
C23 C22 1_555 1_555
H10 C22 1_555 1_555
H11 C23 1_555 1_555
C2 C3 1_555 1_555
C5 C6 1_555 1_555
C15 C17 1_555 1_555
C16 C18 1_555 1_555
O8 Cu5 1_555 1_555
N9 Cu5 1_555 1_555
C14 O8 1_555 1_555
C11 C14 1_555 1_555
Cu4 O5 1_555 1_555
O5 C13 1_555 1_555
O7 Cu4 1_555 1_555
N7 Cu4 1_555 1_555
C9 H5 1_555 1_555
C12 C9 1_555 1_555
C13 O7 1_555 1_555
C12 C13 1_555 1_555
N7 C25 1_555 1_555
C24 N5 1_555 1_555
C25 C24 1_555 1_555
H12 C24 1_555 1_555
H13 C25 1_555 1_555
C29 N5 1_555 1_555
C30 N7 1_555 1_555
H17 C29 1_555 1_555
H18 C30 1_555 1_555
C29 C30 1_555 1_555
H15 C27 1_555 1_555
H16 C28 1_555 1_555
C27 C28 1_555 1_555
N8 C23_2 1_555 1_555
C22_2 N9 1_555 1_555
C23_2 C22_2 1_555 1_555
H10_2 C22_2 1_555 1_555
H11_2 C23_2 1_555 1_555
H6 C10 1_555 1_555
H15_2 C27_2 1_555 1_555
H16_2 C28_2 1_555 1_555
C27_2 C28_2 1_555 1_555
Cu7_2 N4_2 1_555 1_555
N4_2 C23_3 1_555 1_555
C22_3 N3_2 1_555 1_555
C23_3 C22_3 1_555 1_555
H10_3 C22_3 1_555 1_555
H11_3 C23_3 1_555 1_555
C27_3 N3_2 1_555 1_555
C28_3 N4_2 1_555 1_555
H15_3 C27_3 1_555 1_555
H16_3 C28_3 1_555 1_555
C27_3 C28_3 1_555 1_555
Cu7_2 O1_2 1_555 1_555
O1_2 C3_2 1_555 1_555
O2_2 Cu7_2 1_555 1_555
O3_2 Cu7_2 1_555 1_555
O4_2 C6_2 1_555 1_555
C3_2 O2_2 1_555 1_555
C4_2 H2_2 1_555 1_555
C5_2 C4_2 1_555 1_555
C6_2 O3_2 1_555 1_555
Cu4_2 O9_2 1_555 1_555
Cu5_2 O10_2 1_555 1_555
O9_2 C19_2 1_555 1_555
O10_2 C20_2 1_555 1_555
O13_2 C19_2 1_555 1_555
O14_2 C20_2 1_555 1_555
C10_2 C2_2 1_555 1_555
H6_2 C10_2 1_555 1_555
C15_2 H7_2 1_555 1_555
C16_2 C5_2 1_555 1_555
H8_2 C16_2 1_555 1_555
C17_2 C4_2 1_555 1_555
C18_2 C15_2 1_555 1_555
C19_2 C18_2 1_555 1_555
C20_2 C17_2 1_555 1_555
C2_2 C3_2 1_555 1_555
C5_2 C6_2 1_555 1_555
C15_2 C17_2 1_555 1_555
C16_2 C18_2 1_555 1_555
O7_2 Cu4_2 1_555 1_555
N5_2 Cu4_2 1_555 1_555
N7_2 C25_2 1_555 1_555
C13_2 O7_2 1_555 1_555
C24_2 N5_2 1_555 1_555
C25_2 C24_2 1_555 1_555
H12_2 C24_2 1_555 1_555
H13_2 C25_2 1_555 1_555
C12_2 C13_2 1_555 1_555
O8_2 Cu5_2 1_555 1_555
N8_2 Cu5_2 1_555 1_555
C9_2 H5_2 1_555 1_555
C14_2 O8_2 1_555 1_555
H17_2 C29_2 1_555 1_555
H18_2 C30_2 1_555 1_555
C9_2 C11_2 1_555 1_555
C11_2 C14_2 1_555 1_555
C29_2 C30_2 1_555 1_555
N8_2 C23_4 1_555 1_555
C22_4 N9_2 1_555 1_555
C23_4 C22_4 1_555 1_555
H10_4 C22_4 1_555 1_555
H11_4 C23_4 1_555 1_555
C1_2 H1_2 1_555 1_555
H15_4 C27_4 1_555 1_555
H16_4 C28_4 1_555 1_555
C27_4 C28_4 1_555 1_555

#END
