
###############################################################################
#
# This file contains modified crystal structure data generated from the
# MOF subset of the Cambridge Structural Database (CSD) v543 
# hosted by the Cambridge Crystallographic Data Centre (CCDC).
#
# This work is licensed under the Creative Commons
# Attribution-NonCommercial-ShareAlike 4.0 International License.
# To view a copy of this license, visit
# http://creativecommons.org/licenses/by-nc-sa/4.0/
# or send a letter to
# Creative Commons, PO Box 1866, Mountain View, CA 94042, USA.
#
# CIF created using the CSD Python API on 29 September 2022
# The structure has been converted into the P1 space group
# The structure has a 3D framework
# The original CSD entry OXICEF is in the orthorhombic crystal system
# The framework has been calculated to contain at least 10.0% void space
# The void calculation uses a probe of radius 1.32A, grid spacing 0.4
#
###############################################################################

data_OXICEF
_chemical_formula_moiety         '(C20 H8 Cu4 N38)n'
_symmetry_cell_setting           triclinic
_symmetry_space_group_name_H-M   'P 1'
_symmetry_Int_Tables_number      1
_space_group_name_Hall           'P 1'
loop_
_symmetry_equiv_pos_site_id
_symmetry_equiv_pos_as_xyz
1 x,y,z
_cell_length_a                   8.6577(6)
_cell_length_b                   9.0478(9)
_cell_length_c                   14.9973(11)
_cell_angle_alpha                90
_cell_angle_beta                 90
_cell_angle_gamma                90
_cell_volume                     1174.79
loop_
_atom_site_label
_atom_site_type_symbol
_atom_site_fract_x
_atom_site_fract_y
_atom_site_fract_z
H1 H 0.0019 0.5189 0.5398
N13 N 0.1517(10) 0.3214(17) 0.8253(6)
N14 N 0.0856(11) 0.1395(18) 0.9677(7)
Cu1 Cu 0.95296(13) 0.2457(13) 0.87617(8)
N1 N 0.6978(8) 0.256(2) 0.7508(5)
N2 N 0.8426(9) 0.2963(16) 0.7632(6)
N3 N 0.8932(10) 0.3865(17) 0.6980(6)
N4 N 0.9068(10) 0.5358(18) 0.5218(7)
C1 C 0.6562(12) 0.541(2) 0.5119(8)
C2 C 0.7724(11) 0.4831(18) 0.5617(7)
C3 C 0.8652(13) 0.617(2) 0.4508(9)
H2 H 0.9363 0.6627 0.4113
N5 N 0.7156(11) 0.6257(18) 0.4426(7)
C4 C 0.7718(11) 0.3980(18) 0.6440(7)
N6 N 0.3914(10) 0.4504(18) 0.5572(7)
N7 N 0.2628(11) 0.6124(19) 0.4794(8)
N8 N 0.6517(10) 0.3214(17) 0.6747(6)
N9 N 0.4144(11) 0.6395(18) 0.4677(7)
N10 N 0.2488(11) 0.5022(18) 0.5338(8)
C5 C 0.4874(12) 0.5383(19) 0.5150(8)
Cu2 Cu 0.45296(13) 0.2457(13) 0.62383(8)
Cu3 Cu 0.54704(13) 0.7457(13) 0.37617(8)
N11 N 0.7844(11) 0.1257(18) 0.9426(7)
N12 N 0.8914(10) 0.4504(18) 0.9428(7)
N4_2 N 0.0932(10) 0.0358(18) 0.4782(7)
C1_2 C 0.3438(12) 0.041(2) 0.4881(8)
C3_2 C 0.1348(13) 0.117(2) 0.5492(9)
H2_2 H 0.0637 0.1627 0.5887
N5_2 N 0.2844(11) 0.1257(18) 0.5574(7)
N7_2 N 0.7372(11) 0.1124(19) 0.5206(8)
N9_2 N 0.5856(11) 0.1395(18) 0.5323(7)
N10_2 N 0.7512(11) 0.0022(18) 0.4662(8)
C5_2 C 0.5126(12) 0.0383(19) 0.4850(8)
Cu1_2 Cu 0.04704(13) 0.7457(13) 0.12383(8)
N1_2 N 0.3022(8) 0.756(2) 0.2492(5)
N2_2 N 0.1574(9) 0.7963(16) 0.2368(6)
N3_2 N 0.1068(10) 0.8865(17) 0.3020(6)
C2_2 C 0.2276(11) 0.9831(18) 0.4383(7)
C4_2 C 0.2282(11) 0.8980(18) 0.3560(7)
N6_2 N 0.6086(10) 0.9504(18) 0.4428(7)
N8_2 N 0.3483(10) 0.8214(17) 0.3253(6)
N11_2 N 0.2156(11) 0.6257(18) 0.0574(7)
N12_2 N 0.1086(10) 0.9504(18) 0.0572(7)
N13_2 N 0.8483(10) 0.8214(17) 0.1747(6)
N14_2 N 0.9144(11) 0.6395(18) 0.0323(7)
C3_3 C 0.3652(13) 0.617(2) 0.0492(9)
H2_3 H 0.4363 0.6627 0.0887
N1_3 N 0.1978(8) 0.256(2) 0.7492(5)
N2_3 N 0.3426(9) 0.2963(16) 0.7368(6)
N3_3 N 0.3932(10) 0.3865(17) 0.8020(6)
N4_3 N 0.4068(10) 0.5358(18) 0.9782(7)
H1_2 H 0.5019 0.5189 0.9602
C1_3 C 0.1562(12) 0.541(2) 0.9881(8)
C2_3 C 0.2724(11) 0.4831(18) 0.9383(7)
C4_3 C 0.2718(11) 0.3980(18) 0.8560(7)
N7_3 N 0.7628(11) 0.6124(19) 0.0206(8)
N10_3 N 0.7488(11) 0.5022(18) 0.9662(8)
C5_3 C 0.9874(12) 0.5383(19) 0.9850(8)
N7_4 N 0.2372(11) 0.1124(19) 0.9794(8)
C3_4 C 0.6348(13) 0.117(2) 0.9508(9)
H2_4 H 0.5637 0.1627 0.9113
N1_4 N 0.8022(8) 0.756(2) 0.2508(5)
N2_4 N 0.6574(9) 0.7963(16) 0.2632(6)
N3_4 N 0.6068(10) 0.8865(17) 0.1980(6)
C2_4 C 0.7276(11) 0.9831(18) 0.0617(7)
C4_4 C 0.7282(11) 0.8980(18) 0.1440(7)
H1_3 H 0.9981 0.0189 0.4602
N10_4 N 0.2512(11) 0.0022(18) 0.0338(8)
C5_4 C 0.0126(12) 0.0383(19) 0.0150(8)
N4_4 N 0.5932(10) 0.0358(18) 0.0218(7)
H1_4 H 0.4981 0.0189 0.0398
C1_4 C 0.8438(12) 0.041(2) 0.0119(8)
loop_
_geom_bond_atom_site_label_1
_geom_bond_atom_site_label_2
_geom_bond_site_symmetry_1
_geom_bond_site_symmetry_2
Cu1 N2 1_555 1_555
N1 N2 1_555 1_555
N2 N3 1_555 1_555
N3 C4 1_555 1_555
C1 C2 1_555 1_555
C2 N4 1_555 1_555
C3 N4 1_555 1_555
H2 C3 1_555 1_555
N5 C1 1_555 1_555
C4 C2 1_555 1_555
N6 N10 1_555 1_555
N7 N9 1_555 1_555
N8 N1 1_555 1_555
N9 C5 1_555 1_555
N10 N7 1_555 1_555
C5 C1 1_555 1_555
Cu2 N6 1_555 1_555
Cu3 N5 1_555 1_555
N11 Cu1 1_555 1_555
N12 Cu1 1_555 1_555
C3 N5 1_555 1_555
C4 N8 1_555 1_555
N6 C5 1_555 1_555
N8 Cu2 1_555 1_555
N9 Cu3 1_555 1_555
C3_2 N4_2 1_555 1_555
H2_2 C3_2 1_555 1_555
N5_2 C1_2 1_555 1_555
N7_2 N9_2 1_555 1_555
N9_2 C5_2 1_555 1_555
N10_2 N7_2 1_555 1_555
C5_2 C1_2 1_555 1_555
Cu2 N5_2 1_555 1_555
C3_2 N5_2 1_555 1_555
N9_2 Cu2 1_555 1_555
Cu1_2 N2_2 1_555 1_555
N1_2 N2_2 1_555 1_555
N2_2 N3_2 1_555 1_555
N3_2 C4_2 1_555 1_555
C4_2 C2_2 1_555 1_555
N8_2 N1_2 1_555 1_555
Cu3 N6_2 1_555 1_555
N11_2 Cu1_2 1_555 1_555
N12_2 Cu1_2 1_555 1_555
C4_2 N8_2 1_555 1_555
N8_2 Cu3 1_555 1_555
H2_3 C3_3 1_555 1_555
C3_3 N11_2 1_555 1_555
Cu2 N2_3 1_555 1_555
N1_3 N2_3 1_555 1_555
N2_3 N3_3 1_555 1_555
N3_3 C4_3 1_555 1_555
N4_3 H1_2 1_555 1_555
C1_3 C2_3 1_555 1_555
C2_3 N4_3 1_555 1_555
C4_3 C2_3 1_555 1_555
N13 N1_3 1_555 1_555
C4_3 N13 1_555 1_555
N7_3 N14_2 1_555 1_555
N12 N10_3 1_555 1_555
N12 C5_3 1_555 1_555
N7_4 N14 1_555 1_555
H2_4 C3_4 1_555 1_555
C3_4 N11 1_555 1_555
Cu3 N2_4 1_555 1_555
N1_4 N2_4 1_555 1_555
N2_4 N3_4 1_555 1_555
N3_4 C4_4 1_555 1_555
C4_4 C2_4 1_555 1_555
N13_2 N1_4 1_555 1_555
C4_4 N13_2 1_555 1_555
N4_4 H1_4 1_555 1_555

#END
