
###############################################################################
#
# This file contains modified crystal structure data generated from the
# MOF subset of the Cambridge Structural Database (CSD) v543 
# hosted by the Cambridge Crystallographic Data Centre (CCDC).
#
# This work is licensed under the Creative Commons
# Attribution-NonCommercial-ShareAlike 4.0 International License.
# To view a copy of this license, visit
# http://creativecommons.org/licenses/by-nc-sa/4.0/
# or send a letter to
# Creative Commons, PO Box 1866, Mountain View, CA 94042, USA.
#
# CIF created using the CSD Python API on 29 September 2022
# The structure has been converted into the P1 space group
# The structure has a 3D framework
# The original CSD entry OXUPUT is in the tetragonal crystal system
# The framework has been calculated to contain at least 10.0% void space
# The void calculation uses a probe of radius 1.32A, grid spacing 0.4
# H atom positions have been added when not included in the experimental data
# Generated hydrogen atom positions removed from atoms on special positions
#
###############################################################################

data_OXUPUT
_chemical_formula_moiety         '(C48 H72 F16 O68 P16 U8)n'
_symmetry_cell_setting           triclinic
_symmetry_space_group_name_H-M   'P 1'
_symmetry_Int_Tables_number      1
_space_group_name_Hall           'P 1'
loop_
_symmetry_equiv_pos_site_id
_symmetry_equiv_pos_as_xyz
1 x,y,z
_cell_length_a                   20.3539(16)
_cell_length_b                   20.3539(16)
_cell_length_c                   7.8010(6)
_cell_angle_alpha                90
_cell_angle_beta                 90
_cell_angle_gamma                90
_cell_volume                     3231.81
loop_
_atom_site_label
_atom_site_type_symbol
_atom_site_fract_x
_atom_site_fract_y
_atom_site_fract_z
U1 U 0.402575(18) 0.2500 0.20838(5)
O1 O 0.4824(4) 0.2500 0.1132(11)
O2 O 0.3220(4) 0.2500 0.3001(10)
O4 O 0.4394(3) 0.1799(3) 0.4185(7)
P1 P 0.42561(10) 0.13573(10) 0.5685(3)
O5 O 0.3549(3) 0.1217(3) 0.6016(8)
O6 O 0.4566(3) 0.1664(3) 0.7337(8)
C1 C 0.4679(4) 0.0593(4) 0.5329(10)
C2 C 0.5339(4) 0.0580(4) 0.4895(13)
C3 C 0.4357(4) 0.0015(4) 0.5462(12)
H1 H 0.3910 0.0015 0.5810
F1 F 0.5828(3) 0.1265(3) 0.4828(13)
U2 U 0.2500 0.097425(18) 0.70838(5)
O8 O 0.4394(3) 0.3201(3) 0.4185(7)
O10 O 0.3783(3) 0.3549(3) 0.1016(8)
O11 O 0.3783(3) 0.1451(3) 0.1016(8)
H3 H 0.437032 0.210364 0.754642
U3 U 0.597425(18) 0.7500 0.79162(5)
U4 U 0.7500 0.902575(18) 0.29162(5)
O7 O 0.5606(3) 0.8201(3) 0.5815(7)
P2 P 0.57439(10) 0.86427(10) 0.4315(3)
O9 O 0.6451(3) 0.8783(3) 0.3984(8)
O12 O 0.5434(3) 0.8336(3) 0.2663(8)
C4 C 0.5321(4) 0.9407(4) 0.4671(10)
C5 C 0.4661(4) 0.9420(4) 0.5105(13)
C6 C 0.5643(4) 0.9985(4) 0.4538(12)
H2 H 0.6090 0.9985 0.4190
F2 F 0.4172(3) 0.8735(3) 0.5172(13)
H6 H 0.495198 0.829091 0.282037
U1_2 U 0.097425(18) 0.2500 0.20838(5)
O1_2 O 0.0176(4) 0.2500 0.1132(11)
O2_2 O 0.1780(4) 0.2500 0.3001(10)
O4_2 O 0.0606(3) 0.3201(3) 0.4185(7)
P1_2 P 0.07439(10) 0.36427(10) 0.5685(3)
O5_2 O 0.1451(3) 0.3783(3) 0.6016(8)
O6_2 O 0.0434(3) 0.3336(3) 0.7337(8)
C1_2 C 0.0321(4) 0.4407(4) 0.5329(10)
C3_2 C 0.0643(4) 0.4985(4) 0.5462(12)
H1_2 H 0.1090 0.4985 0.5810
U2_2 U 0.2500 0.402575(18) 0.70838(5)
O8_2 O 0.0606(3) 0.1799(3) 0.4185(7)
O10_2 O 0.1217(3) 0.1451(3) 0.1016(8)
O11_2 O 0.1217(3) 0.3549(3) 0.1016(8)
C5_2 C 0.0339(4) 0.5580(4) 0.5105(13)
F2_2 F 0.0828(3) 0.6265(3) 0.5172(13)
H3_2 H 0.0629675 0.289636 0.754642
H6_2 H 0.00480203 0.670909 0.282037
C2_2 C 0.9661(4) 0.4420(4) 0.4895(13)
F1_2 F 0.9172(3) 0.3735(3) 0.4828(13)
U3_2 U 0.902575(18) 0.7500 0.79162(5)
U4_2 U 0.7500 0.597425(18) 0.29162(5)
O7_2 O 0.9394(3) 0.6799(3) 0.5815(7)
P2_2 P 0.92561(10) 0.63573(10) 0.4315(3)
O9_2 O 0.8549(3) 0.6217(3) 0.3984(8)
O12_2 O 0.9566(3) 0.6664(3) 0.2663(8)
C4_2 C 0.9679(4) 0.5593(4) 0.4671(10)
C6_2 C 0.9357(4) 0.5015(4) 0.4538(12)
H2_2 H 0.8910 0.5015 0.4190
P1_3 P 0.36427(10) 0.42561(10) 0.0685(3)
O6_3 O 0.3336(3) 0.4566(3) 0.2337(8)
C1_3 C 0.4407(4) 0.4679(4) 0.0329(10)
C3_3 C 0.4985(4) 0.4357(4) 0.0462(12)
H1_3 H 0.4985 0.3910 0.0810
O7_3 O 0.6799(3) 0.5606(3) 0.0815(7)
C5_3 C 0.5580(4) 0.4661(4) 0.0105(13)
F2_3 F 0.6265(3) 0.4172(3) 0.0172(13)
H3_3 H 0.289636 0.437032 0.254642
O1_3 O 0.2500 0.4824(4) 0.6132(11)
O2_3 O 0.2500 0.3220(4) 0.8001(10)
O3 O 0.2500 0.3659(4) 0.3943(11)
O4_3 O 0.3201(3) 0.4394(3) 0.9185(7)
C2_3 C 0.4420(4) 0.5339(4) 0.9895(13)
F1_3 F 0.3735(3) 0.5828(3) 0.9828(13)
O8_3 O 0.1799(3) 0.4394(3) 0.9185(7)
P2_3 P 0.63573(10) 0.57439(10) 0.9315(3)
O9_3 O 0.6217(3) 0.6451(3) 0.8984(8)
O11_3 O 0.3549(3) 0.3783(3) 0.6016(8)
O12_3 O 0.6664(3) 0.5434(3) 0.7663(8)
C4_3 C 0.5593(4) 0.5321(4) 0.9671(10)
C6_3 C 0.5015(4) 0.5643(4) 0.9538(12)
H2_3 H 0.5015 0.6090 0.9190
H6_3 H 0.670909 0.495198 0.782037
P1_4 P 0.13573(10) 0.07439(10) 0.0685(3)
O6_4 O 0.1664(3) 0.0434(3) 0.2337(8)
C1_4 C 0.0593(4) 0.0321(4) 0.0329(10)
C3_4 C 0.0015(4) 0.0643(4) 0.0462(12)
H1_4 H 0.0015 0.1090 0.0810
H3_4 H 0.210364 0.0629675 0.254642
O1_4 O 0.2500 0.0176(4) 0.6132(11)
O2_4 O 0.2500 0.1780(4) 0.8001(10)
O3_2 O 0.2500 0.1341(4) 0.3943(11)
O4_4 O 0.1799(3) 0.0606(3) 0.9185(7)
O8_4 O 0.3201(3) 0.0606(3) 0.9185(7)
O11_4 O 0.1451(3) 0.1217(3) 0.6016(8)
O7_4 O 0.8201(3) 0.9394(3) 0.0815(7)
P2_4 P 0.86427(10) 0.92561(10) 0.9315(3)
O9_4 O 0.8783(3) 0.8549(3) 0.8984(8)
O12_4 O 0.8336(3) 0.9566(3) 0.7663(8)
C4_4 C 0.9407(4) 0.9679(4) 0.9671(10)
C6_4 C 0.9985(4) 0.9357(4) 0.9538(12)
H2_4 H 0.9985 0.8910 0.9190
O1_5 O 0.5176(4) 0.7500 0.8868(11)
O2_5 O 0.6780(4) 0.7500 0.6999(10)
O4_5 O 0.5606(3) 0.6799(3) 0.5815(7)
P1_5 P 0.57439(10) 0.63573(10) 0.4315(3)
O5_3 O 0.6451(3) 0.6217(3) 0.3984(8)
O6_5 O 0.5434(3) 0.6664(3) 0.2663(8)
C1_5 C 0.5321(4) 0.5593(4) 0.4671(10)
C2_4 C 0.4661(4) 0.5580(4) 0.5105(13)
C3_5 C 0.5643(4) 0.5015(4) 0.4538(12)
H1_5 H 0.6090 0.5015 0.4190
F1_4 F 0.4172(3) 0.6265(3) 0.5172(13)
P2_5 P 0.42561(10) 0.36427(10) 0.5685(3)
O10_3 O 0.6217(3) 0.8549(3) 0.8984(8)
O12_5 O 0.4566(3) 0.3336(3) 0.7337(8)
C4_5 C 0.4679(4) 0.4407(4) 0.5329(10)
C5_4 C 0.5339(4) 0.4420(4) 0.4895(13)
C6_5 C 0.4357(4) 0.4985(4) 0.5462(12)
H2_5 H 0.3910 0.4985 0.5810
F2_4 F 0.5828(3) 0.3735(3) 0.4828(13)
H3_5 H 0.562968 0.710364 0.245358
H6_4 H 0.504802 0.329091 0.717963
P2_6 P 0.07439(10) 0.13573(10) 0.5685(3)
O12_6 O 0.0434(3) 0.1664(3) 0.7337(8)
C4_6 C 0.0321(4) 0.0593(4) 0.5329(10)
C6_6 C 0.0643(4) 0.0015(4) 0.5462(12)
H2_6 H 0.1090 0.0015 0.5810
O1_6 O 0.9824(4) 0.7500 0.8868(11)
O2_6 O 0.8220(4) 0.7500 0.6999(10)
O4_6 O 0.9394(3) 0.8201(3) 0.5815(7)
P1_6 P 0.92561(10) 0.86427(10) 0.4315(3)
O5_4 O 0.8549(3) 0.8783(3) 0.3984(8)
O6_6 O 0.9566(3) 0.8336(3) 0.2663(8)
C1_6 C 0.9679(4) 0.9407(4) 0.4671(10)
C3_6 C 0.9357(4) 0.9985(4) 0.4538(12)
H1_6 H 0.8910 0.9985 0.4190
O10_4 O 0.8783(3) 0.6451(3) 0.8984(8)
H3_6 H 0.937032 0.789636 0.245358
C2_5 C 0.5580(4) 0.0339(4) 0.0105(13)
F1_5 F 0.6265(3) 0.0828(3) 0.0172(13)
P2_7 P 0.36427(10) 0.07439(10) 0.0685(3)
O12_7 O 0.3336(3) 0.0434(3) 0.2337(8)
C4_7 C 0.4407(4) 0.0321(4) 0.0329(10)
C6_7 C 0.4985(4) 0.0643(4) 0.0462(12)
H2_7 H 0.4985 0.1090 0.0810
O1_7 O 0.7500 0.9824(4) 0.3868(11)
O2_7 O 0.7500 0.8220(4) 0.1999(10)
O3_3 O 0.7500 0.8659(4) 0.6057(11)
O4_7 O 0.6799(3) 0.9394(3) 0.0815(7)
H6_5 H 0.329091 0.995198 0.217963
P1_7 P 0.63573(10) 0.92561(10) 0.9315(3)
O6_7 O 0.6664(3) 0.9566(3) 0.7663(8)
C1_7 C 0.5593(4) 0.9679(4) 0.9671(10)
C3_7 C 0.5015(4) 0.9357(4) 0.9538(12)
H1_7 H 0.5015 0.8910 0.9190
C5_5 C 0.4420(4) 0.9661(4) 0.9895(13)
F2_5 F 0.3735(3) 0.9172(3) 0.9828(13)
H3_7 H 0.710364 0.937032 0.745358
P2_8 P 0.13573(10) 0.42561(10) 0.0685(3)
O12_8 O 0.1664(3) 0.4566(3) 0.2337(8)
C4_8 C 0.0593(4) 0.4679(4) 0.0329(10)
C6_8 C 0.0015(4) 0.4357(4) 0.0462(12)
H2_8 H 0.0015 0.3910 0.0810
H6_6 H 0.170909 0.504802 0.217963
C5_6 C 0.0580(4) 0.5339(4) 0.9895(13)
F2_6 F 0.1265(3) 0.5828(3) 0.9828(13)
O1_8 O 0.7500 0.5176(4) 0.3868(11)
O2_8 O 0.7500 0.6780(4) 0.1999(10)
O3_4 O 0.7500 0.6341(4) 0.6057(11)
O4_8 O 0.8201(3) 0.5606(3) 0.0815(7)
C2_6 C 0.9420(4) 0.4661(4) 0.0105(13)
F1_6 F 0.8735(3) 0.4172(3) 0.0172(13)
P1_8 P 0.86427(10) 0.57439(10) 0.9315(3)
O6_8 O 0.8336(3) 0.5434(3) 0.7663(8)
C1_8 C 0.9407(4) 0.5321(4) 0.9671(10)
C3_8 C 0.9985(4) 0.5643(4) 0.9538(12)
H1_8 H 0.9985 0.6090 0.9190
H3_8 H 0.789636 0.562968 0.745358
H6_7 H 0.504802 0.170909 0.717963
H3_9 H 0.562968 0.789636 0.245358
H3_10 H 0.937032 0.710364 0.245358
H6_8 H 0.995198 0.329091 0.717963
H6_9 H 0.329091 0.504802 0.217963
H3_11 H 0.710364 0.562968 0.745358
H3_12 H 0.789636 0.937032 0.745358
H3_13 H 0.437032 0.289636 0.754642
H6_10 H 0.495198 0.670909 0.282037
H3_14 H 0.0629675 0.210364 0.754642
H3_15 H 0.289636 0.0629675 0.254642
H6_11 H 0.670909 0.00480203 0.782037
H3_16 H 0.210364 0.437032 0.254642
H6_12 H 0.829091 0.495198 0.782037
O3_5 O 0.3659(4) 0.2500 0.8943(11)
O3_6 O 0.1341(4) 0.2500 0.8943(11)
C2_7 C 0.0580(4) 0.9661(4) 0.9895(13)
F1_7 F 0.1265(3) 0.9172(3) 0.9828(13)
C5_7 C 0.9420(4) 0.0339(4) 0.0105(13)
F2_7 F 0.8735(3) 0.0828(3) 0.0172(13)
H6_13 H 0.829091 0.00480203 0.782037
O3_7 O 0.6341(4) 0.7500 0.1057(11)
C2_8 C 0.0339(4) 0.9420(4) 0.5105(13)
F1_8 F 0.0828(3) 0.8735(3) 0.5172(13)
H6_14 H 0.00480203 0.829091 0.282037
C5_8 C 0.9661(4) 0.0580(4) 0.4895(13)
F2_8 F 0.9172(3) 0.1265(3) 0.4828(13)
H6_15 H 0.995198 0.170909 0.717963
O3_8 O 0.8659(4) 0.7500 0.1057(11)
H6_16 H 0.170909 0.995198 0.217963
loop_
_geom_bond_atom_site_label_1
_geom_bond_atom_site_label_2
_geom_bond_site_symmetry_1
_geom_bond_site_symmetry_2
U1 O1 1_555 1_555
O2 U1 1_555 1_555
O4 U1 1_555 1_555
P1 O4 1_555 1_555
O5 P1 1_555 1_555
O6 P1 1_555 1_555
C1 P1 1_555 1_555
C2 C1 1_555 1_555
C3 C1 1_555 1_555
H1 C3 1_555 1_555
F1 C2 1_555 1_555
U2 O5 1_555 1_555
O8 U1 1_555 1_555
O10 U1 1_555 1_555
O11 U1 1_555 1_555
O6 H3 1_555 1_555
U3 O7 1_555 1_555
U4 O9 1_555 1_555
O7 P2 1_555 1_555
P2 O9 1_555 1_555
O12 P2 1_555 1_555
C4 P2 1_555 1_555
H2 C6 1_555 1_555
F2 C5 1_555 1_555
C4 C5 1_555 1_555
C4 C6 1_555 1_555
O12 H6 1_555 1_555
U1_2 O1_2 1_555 1_555
O2_2 U1_2 1_555 1_555
O4_2 U1_2 1_555 1_555
P1_2 O4_2 1_555 1_555
O5_2 P1_2 1_555 1_555
O6_2 P1_2 1_555 1_555
C1_2 P1_2 1_555 1_555
C3_2 C1_2 1_555 1_555
H1_2 C3_2 1_555 1_555
U2_2 O5_2 1_555 1_555
O8_2 U1_2 1_555 1_555
O10_2 U1_2 1_555 1_555
O11_2 U1_2 1_555 1_555
C5_2 C3_2 1_555 1_555
F2_2 C5_2 1_555 1_555
O6_2 H3_2 1_555 1_555
F1_2 C2_2 1_555 1_555
U3_2 O7_2 1_555 1_555
U4_2 O9_2 1_555 1_555
O7_2 P2_2 1_555 1_555
P2_2 O9_2 1_555 1_555
O12_2 P2_2 1_555 1_555
C4_2 P2_2 1_555 1_555
C6_2 C2_2 1_555 1_555
H2_2 C6_2 1_555 1_555
C4_2 C6_2 1_555 1_555
O10 P1_3 1_555 1_555
O6_3 P1_3 1_555 1_555
C1_3 P1_3 1_555 1_555
C3_3 C1_3 1_555 1_555
H1_3 C3_3 1_555 1_555
U4_2 O7_3 1_555 1_555
C5_3 C3_3 1_555 1_555
F2_3 C5_3 1_555 1_555
O6_3 H3_3 1_555 1_555
U2_2 O1_3 1_555 1_555
O2_3 U2_2 1_555 1_555
O3 U2_2 1_555 1_555
O4_3 U2_2 1_555 1_555
F1_3 C2_3 1_555 1_555
U3 O9_3 1_555 1_555
O8_3 U2_2 1_555 1_555
P2_3 O9_3 1_555 1_555
O11_3 U2_2 1_555 1_555
O12_3 P2_3 1_555 1_555
C4_3 P2_3 1_555 1_555
C6_3 C2_3 1_555 1_555
H2_3 C6_3 1_555 1_555
C4_3 C6_3 1_555 1_555
O12_3 H6_3 1_555 1_555
O10_2 P1_4 1_555 1_555
O6_4 P1_4 1_555 1_555
C1_4 P1_4 1_555 1_555
C3_4 C1_4 1_555 1_555
H1_4 C3_4 1_555 1_555
O6_4 H3_4 1_555 1_555
U2 O1_4 1_555 1_555
O2_4 U2 1_555 1_555
O3_2 U2 1_555 1_555
O4_4 U2 1_555 1_555
O8_4 U2 1_555 1_555
O11_4 U2 1_555 1_555
U4 O7_4 1_555 1_555
U3_2 O9_4 1_555 1_555
P2_4 O9_4 1_555 1_555
O12_4 P2_4 1_555 1_555
C4_4 P2_4 1_555 1_555
H2_4 C6_4 1_555 1_555
C4_4 C6_4 1_555 1_555
U3 O1_5 1_555 1_555
O2_5 U3 1_555 1_555
O4_5 U3 1_555 1_555
P1_5 O4_5 1_555 1_555
O5_3 P1_5 1_555 1_555
O6_5 P1_5 1_555 1_555
C1_5 P1_5 1_555 1_555
C2_4 C1_5 1_555 1_555
C3_5 C1_5 1_555 1_555
H1_5 C3_5 1_555 1_555
F1_4 C2_4 1_555 1_555
U4_2 O5_3 1_555 1_555
O8 P2_5 1_555 1_555
P2_5 O11_3 1_555 1_555
O10_3 U3 1_555 1_555
O12_5 P2_5 1_555 1_555
C4_5 P2_5 1_555 1_555
C5_4 C3_5 1_555 1_555
C6_5 C2_4 1_555 1_555
H2_5 C6_5 1_555 1_555
F2_4 C5_4 1_555 1_555
C4_5 C5_4 1_555 1_555
C4_5 C6_5 1_555 1_555
O6_5 H3_5 1_555 1_555
O12_5 H6_4 1_555 1_555
O8_2 P2_6 1_555 1_555
P2_6 O11_4 1_555 1_555
O12_6 P2_6 1_555 1_555
C4_6 P2_6 1_555 1_555
H2_6 C6_6 1_555 1_555
C4_6 C6_6 1_555 1_555
U3_2 O1_6 1_555 1_555
O2_6 U3_2 1_555 1_555
O4_6 U3_2 1_555 1_555
P1_6 O4_6 1_555 1_555
O5_4 P1_6 1_555 1_555
O6_6 P1_6 1_555 1_555
C1_6 P1_6 1_555 1_555
C3_6 C1_6 1_555 1_555
H1_6 C3_6 1_555 1_555
U4 O5_4 1_555 1_555
O10_4 U3_2 1_555 1_555
O6_6 H3_6 1_555 1_555
F1_5 C2_5 1_555 1_555
P2_7 O11 1_555 1_555
O12_7 P2_7 1_555 1_555
C4_7 P2_7 1_555 1_555
C6_7 C2_5 1_555 1_555
H2_7 C6_7 1_555 1_555
C4_7 C6_7 1_555 1_555
U4 O1_7 1_555 1_555
O2_7 U4 1_555 1_555
O3_3 U4 1_555 1_555
O4_7 U4 1_555 1_555
O10_3 P1_7 1_555 1_555
O6_7 P1_7 1_555 1_555
C1_7 P1_7 1_555 1_555
C3_7 C1_7 1_555 1_555
H1_7 C3_7 1_555 1_555
C5_5 C3_7 1_555 1_555
F2_5 C5_5 1_555 1_555
O6_7 H3_7 1_555 1_555
P2_8 O11_2 1_555 1_555
O12_8 P2_8 1_555 1_555
C4_8 P2_8 1_555 1_555
H2_8 C6_8 1_555 1_555
C4_8 C6_8 1_555 1_555
O12_8 H6_6 1_555 1_555
F2_6 C5_6 1_555 1_555
U4_2 O1_8 1_555 1_555
O2_8 U4_2 1_555 1_555
O3_4 U4_2 1_555 1_555
O4_8 U4_2 1_555 1_555
F1_6 C2_6 1_555 1_555
O10_4 P1_8 1_555 1_555
O6_8 P1_8 1_555 1_555
C1_8 P1_8 1_555 1_555
C3_8 C1_8 1_555 1_555
H1_8 C3_8 1_555 1_555
O6_8 H3_8 1_555 1_555
O6 H6_7 1_555 1_555
O12 H3_9 1_555 1_555
O12_2 H3_10 1_555 1_555
O6_3 H6_9 1_555 1_555
O12_3 H3_11 1_555 1_555
O12_4 H3_12 1_555 1_555
O12_5 H3_13 1_555 1_555
O6_5 H6_10 1_555 1_555
O12_6 H3_14 1_555 1_555
O12_7 H3_15 1_555 1_555
O12_8 H3_16 1_555 1_555
O6_8 H6_12 1_555 1_555
F1_7 C2_7 1_555 1_555
F2_7 C5_7 1_555 1_555
F1_8 C2_8 1_555 1_555
F2_8 C5_8 1_555 1_555

#END
