
###############################################################################
#
# This file contains modified crystal structure data generated from the
# MOF subset of the Cambridge Structural Database (CSD) v543 
# hosted by the Cambridge Crystallographic Data Centre (CCDC).
#
# This work is licensed under the Creative Commons
# Attribution-NonCommercial-ShareAlike 4.0 International License.
# To view a copy of this license, visit
# http://creativecommons.org/licenses/by-nc-sa/4.0/
# or send a letter to
# Creative Commons, PO Box 1866, Mountain View, CA 94042, USA.
#
# CIF created using the CSD Python API on 29 September 2022
# The structure has been converted into the P1 space group
# The structure has a 3D framework
# The original CSD entry OXUYOY is in the monoclinic crystal system
# The framework has been calculated to contain at least 10.0% void space
# The void calculation uses a probe of radius 1.32A, grid spacing 0.4
#
###############################################################################

data_OXUYOY
_chemical_formula_moiety         '(C56 H32 N12 O16 Zn2)n'
_symmetry_cell_setting           triclinic
_symmetry_space_group_name_H-M   'P 1'
_symmetry_Int_Tables_number      1
_space_group_name_Hall           'P 1'
loop_
_symmetry_equiv_pos_site_id
_symmetry_equiv_pos_as_xyz
1 x,y,z
_cell_length_a                   11.3103(17)
_cell_length_b                   16.6608(17)
_cell_length_c                   13.411(2)
_cell_angle_alpha                90
_cell_angle_beta                 99.401(16)
_cell_angle_gamma                90
_cell_volume                     2493.21
loop_
_atom_site_label
_atom_site_type_symbol
_atom_site_fract_x
_atom_site_fract_y
_atom_site_fract_z
Zn1 Zn 0.0000 0.07811(6) 0.2500
O5 O 0.0754(5) 0.1554(3) 0.1721(4)
N5 N 0.1239(5) 0.0024(3) 0.3226(4)
Zn3 Zn 0.0000 0.92189(6) 0.7500
Zn1_2 Zn 1.0000 0.07811(6) 0.2500
O1 O 0.9246(5) 0.1554(3) 0.3279(4)
N1 N 0.7061(5) 0.3974(3) 0.3997(5)
N2 N 0.6239(5) 0.5024(3) 0.3226(4)
O2 O 0.8697(7) 0.0556(3) 0.4181(5)
C1 C 0.8741(6) 0.1278(4) 0.3976(6)
C2 C 0.6063(6) 0.4373(4) 0.3706(6)
H1 H 0.5316 0.4207 0.3832
C3 C 0.7278(6) 0.3234(4) 0.4545(5)
C4 C 0.8123(6) 0.1902(4) 0.4549(5)
C5 C 0.7972(7) 0.4366(5) 0.3664(7)
H2 H 0.8780 0.4230 0.3748
C6 C 0.7904(6) 0.2659(4) 0.4105(5)
H3 H 0.8183 0.2775 0.3506
C7 C 0.7431(9) 0.4981(6) 0.3196(8)
H4 H 0.7829 0.5361 0.2866
O3 O 0.5754(5) 0.3446(3) 0.6721(4)
N3 N 0.7939(5) 0.1026(3) 0.6003(5)
O4 O 0.6303(7) 0.4444(3) 0.5819(5)
C8 C 0.6259(6) 0.3722(4) 0.6024(6)
C9 C 0.8937(6) 0.0627(4) 0.6294(6)
H5 H 0.9684 0.0793 0.6168
C10 C 0.7722(6) 0.1766(4) 0.5455(5)
C11 C 0.6877(6) 0.3098(4) 0.5451(5)
C12 C 0.7028(7) 0.0634(5) 0.6336(7)
H6 H 0.6220 0.0770 0.6252
C13 C 0.7096(6) 0.2341(4) 0.5895(5)
H7 H 0.6817 0.2225 0.6494
C14 C 0.7569(9) 0.0019(6) 0.6804(8)
Zn2 Zn 0.5000 0.57811(6) 0.2500
Zn4 Zn 0.5000 0.42189(6) 0.7500
N6 N 0.8761(5) 0.0024(3) 0.1774(4)
N4 N 0.8761(5) 0.9976(3) 0.6774(4)
H8 H 0.7171 0.9639 0.7134
Zn3_2 Zn 1.0000 0.92189(6) 0.7500
N1_2 N 0.2939(5) 0.3974(3) 0.1003(5)
N2_2 N 0.3761(5) 0.5024(3) 0.1774(4)
O2_2 O 0.1303(7) 0.0556(3) 0.0819(5)
C1_2 C 0.1259(6) 0.1278(4) 0.1024(6)
C2_2 C 0.3937(6) 0.4373(4) 0.1294(6)
H1_2 H 0.4684 0.4207 0.1168
C3_2 C 0.2722(6) 0.3234(4) 0.0455(5)
C4_2 C 0.1877(6) 0.1902(4) 0.0451(5)
C5_2 C 0.2028(7) 0.4366(5) 0.1336(7)
H2_2 H 0.1220 0.4230 0.1252
C6_2 C 0.2096(6) 0.2659(4) 0.0895(5)
H3_2 H 0.1817 0.2775 0.1494
C7_2 C 0.2569(9) 0.4981(6) 0.1804(8)
H4_2 H 0.2171 0.5361 0.2134
O3_2 O 0.4246(5) 0.3446(3) 0.8279(4)
N3_2 N 0.2061(5) 0.1026(3) 0.8997(5)
O4_2 O 0.3697(7) 0.4444(3) 0.9181(5)
C8_2 C 0.3741(6) 0.3722(4) 0.8976(6)
C9_2 C 0.1063(6) 0.0627(4) 0.8706(6)
H5_2 H 0.0316 0.0793 0.8832
C10_2 C 0.2278(6) 0.1766(4) 0.9545(5)
C11_2 C 0.3123(6) 0.3098(4) 0.9549(5)
C12_2 C 0.2972(7) 0.0634(5) 0.8664(7)
H6_2 H 0.3780 0.0770 0.8748
C13_2 C 0.2904(6) 0.2341(4) 0.9105(5)
H7_2 H 0.3183 0.2225 0.8506
C14_2 C 0.2431(9) 0.0019(6) 0.8196(8)
N4_2 N 0.1239(5) 0.9976(3) 0.8226(4)
H8_2 H 0.2829 0.9639 0.7866
H4_3 H 0.2829 0.0361 0.2866
O1_2 O 0.4246(5) 0.6554(3) 0.3279(4)
N1_3 N 0.2061(5) 0.8974(3) 0.3997(5)
O2_3 O 0.3697(7) 0.5556(3) 0.4181(5)
C1_3 C 0.3741(6) 0.6278(4) 0.3976(6)
C2_3 C 0.1063(6) 0.9373(4) 0.3706(6)
H1_3 H 0.0316 0.9207 0.3832
C3_3 C 0.2278(6) 0.8234(4) 0.4545(5)
C4_3 C 0.3123(6) 0.6902(4) 0.4549(5)
C5_3 C 0.2972(7) 0.9366(5) 0.3664(7)
H2_3 H 0.3780 0.9230 0.3748
C6_3 C 0.2904(6) 0.7659(4) 0.4105(5)
H3_3 H 0.3183 0.7775 0.3506
C7_3 C 0.2431(9) 0.9981(6) 0.3196(8)
O3_3 O 0.0754(5) 0.8446(3) 0.6721(4)
N3_3 N 0.2939(5) 0.6026(3) 0.6003(5)
N4_3 N 0.3761(5) 0.4976(3) 0.6774(4)
O4_3 O 0.1303(7) 0.9444(3) 0.5819(5)
C8_3 C 0.1259(6) 0.8722(4) 0.6024(6)
C9_3 C 0.3937(6) 0.5627(4) 0.6294(6)
H5_3 H 0.4684 0.5793 0.6168
C10_3 C 0.2722(6) 0.6766(4) 0.5455(5)
C11_3 C 0.1877(6) 0.8098(4) 0.5451(5)
C12_3 C 0.2028(7) 0.5634(5) 0.6336(7)
H6_3 H 0.1220 0.5770 0.6252
C13_3 C 0.2096(6) 0.7341(4) 0.5895(5)
H7_3 H 0.1817 0.7225 0.6494
C14_3 C 0.2569(9) 0.5019(6) 0.6804(8)
H8_3 H 0.2171 0.4639 0.7134
O5_2 O 0.5754(5) 0.6554(3) 0.1721(4)
H4_4 H 0.7171 0.0361 0.2134
N1_4 N 0.7939(5) 0.8974(3) 0.1003(5)
O2_4 O 0.6303(7) 0.5556(3) 0.0819(5)
C1_4 C 0.6259(6) 0.6278(4) 0.1024(6)
C2_4 C 0.8937(6) 0.9373(4) 0.1294(6)
H1_4 H 0.9684 0.9207 0.1168
C3_4 C 0.7722(6) 0.8234(4) 0.0455(5)
C4_4 C 0.6877(6) 0.6902(4) 0.0451(5)
C5_4 C 0.7028(7) 0.9366(5) 0.1336(7)
H2_4 H 0.6220 0.9230 0.1252
C6_4 C 0.7096(6) 0.7659(4) 0.0895(5)
H3_4 H 0.6817 0.7775 0.1494
C7_4 C 0.7569(9) 0.9981(6) 0.1804(8)
O3_4 O 0.9246(5) 0.8446(3) 0.8279(4)
N3_4 N 0.7061(5) 0.6026(3) 0.8997(5)
N4_4 N 0.6239(5) 0.4976(3) 0.8226(4)
O4_4 O 0.8697(7) 0.9444(3) 0.9181(5)
C8_4 C 0.8741(6) 0.8722(4) 0.8976(6)
C9_4 C 0.6063(6) 0.5627(4) 0.8706(6)
H5_4 H 0.5316 0.5793 0.8832
C10_4 C 0.7278(6) 0.6766(4) 0.9545(5)
C11_4 C 0.8123(6) 0.8098(4) 0.9549(5)
C12_4 C 0.7972(7) 0.5634(5) 0.8664(7)
H6_4 H 0.8780 0.5770 0.8748
C13_4 C 0.7904(6) 0.7341(4) 0.9105(5)
H7_4 H 0.8183 0.7225 0.8506
C14_4 C 0.7431(9) 0.5019(6) 0.8196(8)
H8_4 H 0.7829 0.4639 0.7866
loop_
_geom_bond_atom_site_label_1
_geom_bond_atom_site_label_2
_geom_bond_site_symmetry_1
_geom_bond_site_symmetry_2
O5 Zn1 1_555 1_555
N5 Zn1 1_555 1_555
Zn1_2 O1 1_555 1_555
O1 C1 1_555 1_555
N1 C2 1_555 1_555
N2 C2 1_555 1_555
O2 C1 1_555 1_555
C1 C4 1_555 1_555
C2 H1 1_555 1_555
C3 N1 1_555 1_555
C4 C6 1_555 1_555
C5 N1 1_555 1_555
H2 C5 1_555 1_555
C6 C3 1_555 1_555
H3 C6 1_555 1_555
C7 N2 1_555 1_555
H4 C7 1_555 1_555
O3 C8 1_555 1_555
N3 C9 1_555 1_555
O4 C8 1_555 1_555
C8 C11 1_555 1_555
C9 H5 1_555 1_555
C10 C4 1_555 1_555
C11 C3 1_555 1_555
C12 N3 1_555 1_555
H6 C12 1_555 1_555
C13 C10 1_555 1_555
H7 C13 1_555 1_555
Zn2 N2 1_555 1_555
Zn4 O3 1_555 1_555
N6 Zn1_2 1_555 1_555
C5 C7 1_555 1_555
N3 C10 1_555 1_555
C11 C13 1_555 1_555
C12 C14 1_555 1_555
Zn3_2 N4 1_555 1_555
O5 C1_2 1_555 1_555
N1_2 C2_2 1_555 1_555
N2_2 C2_2 1_555 1_555
O2_2 C1_2 1_555 1_555
C1_2 C4_2 1_555 1_555
C2_2 H1_2 1_555 1_555
C3_2 N1_2 1_555 1_555
C4_2 C6_2 1_555 1_555
C5_2 N1_2 1_555 1_555
H2_2 C5_2 1_555 1_555
C6_2 C3_2 1_555 1_555
H3_2 C6_2 1_555 1_555
C7_2 N2_2 1_555 1_555
H4_2 C7_2 1_555 1_555
Zn2 N2_2 1_555 1_555
C5_2 C7_2 1_555 1_555
O3_2 C8_2 1_555 1_555
N3_2 C9_2 1_555 1_555
O4_2 C8_2 1_555 1_555
C8_2 C11_2 1_555 1_555
C9_2 H5_2 1_555 1_555
C12_2 N3_2 1_555 1_555
H6_2 C12_2 1_555 1_555
C13_2 C10_2 1_555 1_555
H7_2 C13_2 1_555 1_555
Zn4 O3_2 1_555 1_555
N3_2 C10_2 1_555 1_555
C11_2 C13_2 1_555 1_555
C12_2 C14_2 1_555 1_555
Zn3 N4_2 1_555 1_555
Zn2 O1_2 1_555 1_555
O1_2 C1_3 1_555 1_555
N1_3 C2_3 1_555 1_555
O2_3 C1_3 1_555 1_555
C1_3 C4_3 1_555 1_555
C2_3 H1_3 1_555 1_555
C3_3 N1_3 1_555 1_555
C4_3 C6_3 1_555 1_555
C5_3 N1_3 1_555 1_555
H2_3 C5_3 1_555 1_555
C6_3 C3_3 1_555 1_555
H3_3 C6_3 1_555 1_555
O3_3 C8_3 1_555 1_555
N3_3 C9_3 1_555 1_555
N4_3 C9_3 1_555 1_555
O4_3 C8_3 1_555 1_555
C8_3 C11_3 1_555 1_555
C9_3 H5_3 1_555 1_555
C10_3 C4_3 1_555 1_555
C11_3 C3_3 1_555 1_555
C12_3 N3_3 1_555 1_555
H6_3 C12_3 1_555 1_555
C13_3 C10_3 1_555 1_555
H7_3 C13_3 1_555 1_555
C14_3 N4_3 1_555 1_555
H8_3 C14_3 1_555 1_555
Zn4 N4_3 1_555 1_555
Zn3 O3_3 1_555 1_555
O5_2 Zn2 1_555 1_555
C5_3 C7_3 1_555 1_555
N3_3 C10_3 1_555 1_555
C11_3 C13_3 1_555 1_555
C12_3 C14_3 1_555 1_555
O5_2 C1_4 1_555 1_555
N1_4 C2_4 1_555 1_555
O2_4 C1_4 1_555 1_555
C1_4 C4_4 1_555 1_555
C2_4 H1_4 1_555 1_555
C3_4 N1_4 1_555 1_555
C4_4 C6_4 1_555 1_555
C5_4 N1_4 1_555 1_555
H2_4 C5_4 1_555 1_555
C6_4 C3_4 1_555 1_555
H3_4 C6_4 1_555 1_555
C5_4 C7_4 1_555 1_555
O3_4 C8_4 1_555 1_555
N3_4 C9_4 1_555 1_555
N4_4 C9_4 1_555 1_555
O4_4 C8_4 1_555 1_555
C8_4 C11_4 1_555 1_555
C9_4 H5_4 1_555 1_555
C12_4 N3_4 1_555 1_555
H6_4 C12_4 1_555 1_555
C13_4 C10_4 1_555 1_555
H7_4 C13_4 1_555 1_555
C14_4 N4_4 1_555 1_555
H8_4 C14_4 1_555 1_555
Zn4 N4_4 1_555 1_555
Zn3_2 O3_4 1_555 1_555
N3_4 C10_4 1_555 1_555
C11_4 C13_4 1_555 1_555
C12_4 C14_4 1_555 1_555

#END
