
###############################################################################
#
# This file contains modified crystal structure data generated from the
# MOF subset of the Cambridge Structural Database (CSD) v543 
# hosted by the Cambridge Crystallographic Data Centre (CCDC).
#
# This work is licensed under the Creative Commons
# Attribution-NonCommercial-ShareAlike 4.0 International License.
# To view a copy of this license, visit
# http://creativecommons.org/licenses/by-nc-sa/4.0/
# or send a letter to
# Creative Commons, PO Box 1866, Mountain View, CA 94042, USA.
#
# CIF created using the CSD Python API on 29 September 2022
# The structure has been converted into the P1 space group
# The structure has a 3D framework
# The original CSD entry OYAXUK is in the monoclinic crystal system
# The framework has been calculated to contain at least 10.0% void space
# The void calculation uses a probe of radius 1.32A, grid spacing 0.4
#
###############################################################################

data_OYAXUK
_chemical_formula_moiety         '(C76 H60 Cu14 I12 N12 O26 Tb4)n'
_symmetry_cell_setting           triclinic
_symmetry_space_group_name_H-M   'P 1'
_symmetry_Int_Tables_number      1
_space_group_name_Hall           'P 1'
loop_
_symmetry_equiv_pos_site_id
_symmetry_equiv_pos_as_xyz
1 x,y,z
_cell_length_a                   12.516(2)
_cell_length_b                   8.3324(16)
_cell_length_c                   31.140(6)
_cell_angle_alpha                90
_cell_angle_beta                 94.673(3)
_cell_angle_gamma                90
_cell_volume                     3236.74
loop_
_atom_site_label
_atom_site_type_symbol
_atom_site_fract_x
_atom_site_fract_y
_atom_site_fract_z
H14 H 0.297974 0.039119 0.130182
C1 C 0.331(2) 0.258(4) 0.0590(12)
H1 H 0.361139 0.312963 0.035614
H2 H 0.380640 0.176915 0.070137
H3 H 0.319137 0.333338 0.081373
O1 O 0.2339(8) 0.1859(13) 0.0441(3)
Tb1 Tb 0.06777(4) 0.29337(6) 0.01252(2)
O6 O 0.1372(7) 0.4733(11) 0.0642(3)
O7 O 0.0687(7) 0.7105(11) 0.0428(3)
N3 N 0.3070(8) 0.8603(12) 0.1709(3)
C14 C 0.1268(9) 0.6232(14) 0.0673(4)
C15 C 0.1908(10) 0.6986(16) 0.1047(4)
C16 C 0.2215(9) 0.6260(14) 0.1426(4)
H12 H 0.204525 0.518592 0.146457
C17 C 0.2767(11) 0.7077(18) 0.1750(5)
H13 H 0.294106 0.655340 0.200986
C18 C 0.2766(10) 0.9334(17) 0.1338(4)
C19 C 0.2167(11) 0.8628(14) 0.1014(4)
H15 H 0.192653 0.921287 0.077084
Cu6 Cu 0.42767(14) 0.9641(2) 0.20748(6)
O8 O 0.0038(7) 0.1174(10) 0.0594(3)
Cu1 Cu 0.05749(14) 0.3685(2) 0.76259(5)
Cu3 Cu 0.11226(15) 0.3911(2) 0.68524(6)
Cu4 Cu 0.38538(14) 0.1762(2) 0.76957(5)
I3 I 0.26376(6) 0.43856(10) 0.75184(3)
I4 I 0.42544(8) 0.17431(13) 0.85287(3)
O2 O 0.1016(7) 0.0748(11) 0.9700(2)
O4 O 0.2172(7) 0.4015(11) 0.9764(3)
O5 O 0.0740(7) 0.5513(11) 0.9652(2)
N1 N 0.0622(8) 0.2340(11) 0.8161(3)
N2 N 0.3156(9) 0.7570(16) 0.8579(4)
C2 C 0.0538(9) 0.0065(13) 0.9388(4)
C3 C 0.0607(10) 0.0795(13) 0.8946(3)
C6 C 0.1282(10) 0.2705(15) 0.8494(4)
H6 H 0.176103 0.353954 0.845967
C7 C 0.1331(10) 0.1966(14) 0.8890(3)
H7 H 0.184098 0.225940 0.910976
C8 C 0.1682(10) 0.5151(14) 0.9580(4)
C9 C 0.2188(10) 0.6009(16) 0.9226(4)
C10 C 0.3249(13) 0.585(3) 0.9197(6)
H8 H 0.367135 0.525454 0.939773
C11 C 0.3688(15) 0.661(3) 0.8860(7)
H9 H 0.441112 0.643880 0.882710
C12 C 0.2125(10) 0.7572(16) 0.8597(4)
H10 H 0.171034 0.812466 0.838434
C13 C 0.1611(10) 0.6813(17) 0.8909(4)
H11 H 0.086723 0.684847 0.890404
Cu5 Cu 0.57233(14) 0.0359(2) 0.79252(6)
Cu8 Cu 0.38774(15) 0.8911(2) 0.81476(6)
Cu9 Cu 0.11462(14) 0.6762(2) 0.73043(5)
I5 I 0.53790(7) 0.15997(10) 0.71688(3)
I7 I 0.07456(8) 0.67431(13) 0.64713(3)
N4 N 0.1844(9) 0.2570(16) 0.6421(4)
I6 I 0.23624(6) 0.93856(10) 0.74816(3)
O9 O 0.9260(7) 0.4487(11) 0.0348(2)
Cu2 Cu 0.92767(14) 0.5359(2) 0.70748(6)
I1 I 0.96210(7) 0.65997(10) 0.78312(3)
I2 I 0.93420(7) 0.22567(11) 0.70063(3)
C4 C 0.9963(9) 0.0296(14) 0.8594(3)
C5 C 0.9978(9) 0.1069(14) 0.8210(4)
H5 H 0.953272 0.071320 0.797543
Tb3 Tb 0.93223(4) 0.70663(6) 0.98748(2)
O10 O 0.9313(7) 0.2895(11) 0.9572(3)
N5 N 0.8070(8) 0.6397(12) 0.6709(3)
O3 O 0.9962(7) 0.8826(10) 0.9406(3)
H4 H 0.951232 0.941887 0.861775
O5_2 O 0.4260(7) 0.0513(11) 0.5348(2)
O7_2 O 0.4313(7) 0.2105(11) 0.4572(3)
N3_2 N 0.1930(8) 0.3603(12) 0.3291(3)
C8_2 C 0.3318(10) 0.0151(14) 0.5420(4)
C9_2 C 0.2812(10) 0.1009(16) 0.5774(4)
C10_2 C 0.1751(13) 0.085(3) 0.5803(6)
H8_2 H 0.132865 0.025454 0.560227
C11_2 C 0.1312(15) 0.161(3) 0.6140(7)
H9_2 H 0.058888 0.143880 0.617290
C12_2 C 0.2875(10) 0.2572(16) 0.6403(4)
H10_2 H 0.328966 0.312466 0.661566
C13_2 C 0.3389(10) 0.1813(17) 0.6091(4)
H11_2 H 0.413277 0.184847 0.609596
C14_2 C 0.3732(9) 0.1232(14) 0.4327(4)
C15_2 C 0.3092(10) 0.1986(16) 0.3953(4)
C16_2 C 0.2785(9) 0.1260(14) 0.3574(4)
H12_2 H 0.295475 0.018592 0.353543
C17_2 C 0.2233(11) 0.2077(18) 0.3250(5)
H13_2 H 0.205894 0.155340 0.299014
C18_2 C 0.2234(10) 0.4334(17) 0.3662(4)
H14_2 H 0.202026 0.539119 0.369818
C19_2 C 0.2833(11) 0.3628(14) 0.3986(4)
H15_2 H 0.307347 0.421287 0.422916
Tb3_2 Tb 0.56777(4) 0.20663(6) 0.51252(2)
Cu6_2 Cu 0.07233(14) 0.4641(2) 0.29252(6)
N5_2 N 0.6930(8) 0.1397(12) 0.8291(3)
C1_2 C 0.169(2) 0.758(4) 0.4410(12)
H1_2 H 0.138861 0.812963 0.464386
H2_2 H 0.119360 0.676915 0.429863
H3_2 H 0.180863 0.833338 0.418627
O1_2 O 0.2661(8) 0.6859(13) 0.4559(3)
Tb1_2 Tb 0.43223(4) 0.79337(6) 0.48748(2)
Cu1_2 Cu 0.44251(14) 0.8685(2) 0.73741(5)
I2_2 I 0.56580(7) 0.72567(11) 0.79937(3)
O2_2 O 0.3984(7) 0.5748(11) 0.5300(2)
O3_2 O 0.5038(7) 0.3826(10) 0.5594(3)
O4_2 O 0.2828(7) 0.9015(11) 0.5236(3)
O6_2 O 0.3628(7) 0.9733(11) 0.4358(3)
N1_2 N 0.4378(8) 0.7340(11) 0.6839(3)
C2_2 C 0.4462(9) 0.5065(13) 0.5612(4)
C3_2 C 0.4393(10) 0.5795(13) 0.6054(3)
C4_2 C 0.5037(9) 0.5296(14) 0.6406(3)
H4_2 H 0.548768 0.441887 0.638225
C5_2 C 0.5022(9) 0.6069(14) 0.6790(4)
H5_2 H 0.546728 0.571320 0.702457
C6_2 C 0.3718(10) 0.7705(15) 0.6506(4)
H6_2 H 0.323897 0.853954 0.654033
C7_2 C 0.3669(10) 0.6966(14) 0.6110(3)
H7_2 H 0.315902 0.725940 0.589024
O8_2 O 0.4962(7) 0.6174(10) 0.4406(3)
O9_2 O 0.5740(7) 0.9487(11) 0.4652(2)
O10_2 O 0.5687(7) 0.7895(11) 0.5428(3)
H4_3 H 0.048768 0.058113 0.138225
I1_2 I 0.03790(7) 0.34003(10) 0.21688(3)
I2_3 I 0.06580(7) 0.77433(11) 0.29937(3)
C4_3 C 0.0037(9) 0.9704(14) 0.1406(3)
C5_3 C 0.0022(9) 0.8931(14) 0.1790(4)
H5_3 H 0.046728 0.928680 0.202457
Cu7 Cu 0.61226(15) 0.1089(2) 0.18524(6)
I6_2 I 0.76376(6) 0.06144(10) 0.25184(3)
Cu1_3 Cu 0.94251(14) 0.6315(2) 0.23741(5)
Cu3_2 Cu 0.88774(15) 0.6089(2) 0.31476(6)
Cu4_2 Cu 0.61462(14) 0.8238(2) 0.23043(5)
I3_2 I 0.73624(6) 0.56144(10) 0.24816(3)
I4_2 I 0.57456(8) 0.82569(13) 0.14713(3)
O2_3 O 0.8984(7) 0.9252(11) 0.0300(2)
O4_3 O 0.7828(7) 0.5985(11) 0.0236(3)
N1_3 N 0.9378(8) 0.7660(11) 0.1839(3)
N2_2 N 0.6844(9) 0.2430(16) 0.1421(4)
C2_3 C 0.9462(9) 0.9935(13) 0.0612(4)
C3_3 C 0.9393(10) 0.9205(13) 0.1054(3)
C6_3 C 0.8718(10) 0.7295(15) 0.1506(4)
H6_3 H 0.823897 0.646046 0.154033
C7_3 C 0.8669(10) 0.8034(14) 0.1110(3)
H7_3 H 0.815902 0.774060 0.089024
C8_3 C 0.8318(10) 0.4849(14) 0.0420(4)
C9_3 C 0.7812(10) 0.3991(16) 0.0774(4)
C10_3 C 0.6751(13) 0.415(3) 0.0803(6)
H8_3 H 0.632865 0.474546 0.060227
C11_3 C 0.6312(15) 0.339(3) 0.1140(7)
H9_3 H 0.558888 0.356120 0.117290
C12_3 C 0.7875(10) 0.2428(16) 0.1403(4)
H10_3 H 0.828966 0.187534 0.161566
C13_3 C 0.8389(10) 0.3187(17) 0.1091(4)
H11_3 H 0.913277 0.315153 0.109596
Cu9_2 Cu 0.88538(14) 0.3238(2) 0.26957(5)
I5_2 I 0.46210(7) 0.84003(10) 0.28312(3)
I7_2 I 0.92544(8) 0.32569(13) 0.35287(3)
N4_2 N 0.8156(9) 0.7430(16) 0.3579(4)
C1_3 C 0.669(2) 0.742(4) 0.9410(12)
H1_3 H 0.638861 0.687037 0.964386
H2_3 H 0.619360 0.823085 0.929863
H3_3 H 0.680863 0.666662 0.918627
O1_3 O 0.7661(8) 0.8141(13) 0.9559(3)
O6_3 O 0.8628(7) 0.5267(11) 0.9358(3)
C14_3 C 0.8732(9) 0.3768(14) 0.9327(4)
C15_3 C 0.8092(10) 0.3014(16) 0.8953(4)
C16_3 C 0.7785(9) 0.3740(14) 0.8574(4)
H12_3 H 0.795475 0.481408 0.853543
C17_3 C 0.7233(11) 0.2923(18) 0.8250(5)
H13_3 H 0.705894 0.344660 0.799014
C18_3 C 0.7234(10) 0.0666(17) 0.8662(4)
C19_3 C 0.7833(11) 0.1372(14) 0.8986(4)
H15_3 H 0.807347 0.078713 0.922916
C1_4 C 0.831(2) 0.242(4) 0.5590(12)
H1_4 H 0.861139 0.187037 0.535614
H2_4 H 0.880640 0.323085 0.570137
H3_4 H 0.819137 0.166662 0.581373
O1_4 O 0.7339(8) 0.3141(13) 0.5441(3)
Cu1_4 Cu 0.55749(14) 0.1315(2) 0.26259(5)
I2_4 I 0.43420(7) 0.27433(11) 0.20063(3)
O2_4 O 0.6016(7) 0.4252(11) 0.4700(2)
O4_4 O 0.7172(7) 0.0985(11) 0.4764(3)
O6_4 O 0.6372(7) 0.0267(11) 0.5642(3)
N1_4 N 0.5622(8) 0.2660(11) 0.3161(3)
C2_4 C 0.5538(9) 0.4935(13) 0.4388(4)
C3_4 C 0.5607(10) 0.4205(13) 0.3946(3)
C4_4 C 0.4963(9) 0.4704(14) 0.3594(3)
H4_4 H 0.451232 0.558113 0.361775
C5_4 C 0.4978(9) 0.3931(14) 0.3210(4)
H5_4 H 0.453272 0.428680 0.297543
C6_4 C 0.6282(10) 0.2295(15) 0.3494(4)
H6_4 H 0.676103 0.146046 0.345967
C7_4 C 0.6331(10) 0.3034(14) 0.3890(3)
H7_4 H 0.684098 0.274060 0.410976
C8_4 C 0.6682(10) 0.9849(14) 0.4580(4)
C9_4 C 0.7188(10) 0.8991(16) 0.4226(4)
C10_4 C 0.8249(13) 0.915(3) 0.4197(6)
H8_4 H 0.867135 0.974546 0.439773
C11_4 C 0.8688(15) 0.839(3) 0.3860(7)
H9_4 H 0.941112 0.856120 0.382710
C12_4 C 0.7125(10) 0.7428(16) 0.3597(4)
H10_4 H 0.671034 0.687534 0.338434
C13_4 C 0.6611(10) 0.8187(17) 0.3909(4)
H11_4 H 0.586723 0.815153 0.390404
C14_4 C 0.6268(9) 0.8768(14) 0.5673(4)
C15_4 C 0.6908(10) 0.8014(16) 0.6047(4)
C16_4 C 0.7215(9) 0.8740(14) 0.6426(4)
H12_4 H 0.704525 0.981408 0.646457
C17_4 C 0.7767(11) 0.7923(18) 0.6750(5)
H13_4 H 0.794106 0.844660 0.700986
C18_4 C 0.7766(10) 0.5666(17) 0.6338(4)
H14_3 H 0.797974 0.460881 0.630182
C19_4 C 0.7167(11) 0.6372(14) 0.6014(4)
H15_4 H 0.692653 0.578713 0.577084
H14_4 H 0.702026 0.960881 0.869818
loop_
_geom_bond_atom_site_label_1
_geom_bond_atom_site_label_2
_geom_bond_site_symmetry_1
_geom_bond_site_symmetry_2
C1 H1 1_555 1_555
H2 C1 1_555 1_555
H3 C1 1_555 1_555
O1 C1 1_555 1_555
Tb1 O1 1_555 1_555
O6 Tb1 1_555 1_555
O7 C14 1_555 1_555
N3 C17 1_555 1_555
C14 O6 1_555 1_555
C15 C14 1_555 1_555
C16 C15 1_555 1_555
H12 C16 1_555 1_555
C17 C16 1_555 1_555
H13 C17 1_555 1_555
C18 N3 1_555 1_555
C19 C15 1_555 1_555
H15 C19 1_555 1_555
Cu6 N3 1_555 1_555
O8 Tb1 1_555 1_555
C18 C19 1_555 1_555
Cu4 I3 1_555 1_555
I3 Cu1 1_555 1_555
I4 Cu4 1_555 1_555
N1 Cu1 1_555 1_555
N2 C11 1_555 1_555
C2 O2 1_555 1_555
C3 C2 1_555 1_555
C6 N1 1_555 1_555
H6 C6 1_555 1_555
C7 C3 1_555 1_555
H7 C7 1_555 1_555
C8 O4 1_555 1_555
C9 C8 1_555 1_555
C10 C9 1_555 1_555
H8 C10 1_555 1_555
C11 C10 1_555 1_555
H9 C11 1_555 1_555
C12 N2 1_555 1_555
H10 C12 1_555 1_555
C13 C9 1_555 1_555
H11 C13 1_555 1_555
Cu5 I4 1_555 1_555
Cu8 N2 1_555 1_555
Cu9 I3 1_555 1_555
I5 Cu4 1_555 1_555
N4 Cu3 1_555 1_555
Cu3 I3 1_555 1_555
Cu3 I7 1_555 1_555
O5 C8 1_555 1_555
C6 C7 1_555 1_555
C12 C13 1_555 1_555
Cu5 I5 1_555 1_555
Cu9 I7 1_555 1_555
Cu8 I6 1_555 1_555
Cu2 I1 1_555 1_555
H5 C5 1_555 1_555
N5 Cu2 1_555 1_555
Cu2 I2 1_555 1_555
C4 C5 1_555 1_555
Tb3 O3 1_555 1_555
O7_2 C14_2 1_555 1_555
N4 C11_2 1_555 1_555
N3_2 C17_2 1_555 1_555
C9_2 C8_2 1_555 1_555
C10_2 C9_2 1_555 1_555
H8_2 C10_2 1_555 1_555
C11_2 C10_2 1_555 1_555
H9_2 C11_2 1_555 1_555
C12_2 N4 1_555 1_555
H10_2 C12_2 1_555 1_555
C13_2 C9_2 1_555 1_555
H11_2 C13_2 1_555 1_555
C15_2 C14_2 1_555 1_555
C16_2 C15_2 1_555 1_555
H12_2 C16_2 1_555 1_555
C17_2 C16_2 1_555 1_555
H13_2 C17_2 1_555 1_555
C18_2 N3_2 1_555 1_555
H14_2 C18_2 1_555 1_555
C19_2 C15_2 1_555 1_555
H15_2 C19_2 1_555 1_555
Tb3_2 O5_2 1_555 1_555
Cu6_2 N3_2 1_555 1_555
N5_2 Cu5 1_555 1_555
O5_2 C8_2 1_555 1_555
O7_2 Tb3_2 1_555 1_555
C12_2 C13_2 1_555 1_555
C18_2 C19_2 1_555 1_555
C1_2 H1_2 1_555 1_555
H2_2 C1_2 1_555 1_555
H3_2 C1_2 1_555 1_555
O1_2 C1_2 1_555 1_555
Tb1_2 O1_2 1_555 1_555
Cu8 I2_2 1_555 1_555
Cu9 I6 1_555 1_555
I2_2 Cu1_2 1_555 1_555
I6 Cu1_2 1_555 1_555
O2_2 Tb1_2 1_555 1_555
O3_2 C2_2 1_555 1_555
O4_2 Tb1_2 1_555 1_555
O6_2 Tb1_2 1_555 1_555
N1_2 Cu1_2 1_555 1_555
C2_2 O2_2 1_555 1_555
C3_2 C2_2 1_555 1_555
C4_2 C3_2 1_555 1_555
H4_2 C4_2 1_555 1_555
C5_2 N1_2 1_555 1_555
H5_2 C5_2 1_555 1_555
C6_2 N1_2 1_555 1_555
H6_2 C6_2 1_555 1_555
C7_2 C3_2 1_555 1_555
H7_2 C7_2 1_555 1_555
Tb3_2 O3_2 1_555 1_555
O8_2 Tb1_2 1_555 1_555
O9_2 Tb1_2 1_555 1_555
O10_2 Tb1_2 1_555 1_555
C4_2 C5_2 1_555 1_555
C6_2 C7_2 1_555 1_555
Cu6_2 I1_2 1_555 1_555
H5_3 C5_3 1_555 1_555
Cu6_2 I2_3 1_555 1_555
C4_3 C5_3 1_555 1_555
Cu7 I6_2 1_555 1_555
Cu4_2 I3_2 1_555 1_555
I3_2 Cu1_3 1_555 1_555
I4_2 Cu4_2 1_555 1_555
N1_3 Cu1_3 1_555 1_555
N2_2 C11_3 1_555 1_555
C2_3 O2_3 1_555 1_555
C3_3 C2_3 1_555 1_555
C6_3 N1_3 1_555 1_555
H6_3 C6_3 1_555 1_555
C7_3 C3_3 1_555 1_555
H7_3 C7_3 1_555 1_555
C8_3 O4_3 1_555 1_555
C9_3 C8_3 1_555 1_555
C10_3 C9_3 1_555 1_555
H8_3 C10_3 1_555 1_555
C11_3 C10_3 1_555 1_555
H9_3 C11_3 1_555 1_555
C12_3 N2_2 1_555 1_555
H10_3 C12_3 1_555 1_555
C13_3 C9_3 1_555 1_555
H11_3 C13_3 1_555 1_555
Cu6 I4_2 1_555 1_555
Cu7 N2_2 1_555 1_555
Cu9_2 I3_2 1_555 1_555
I5_2 Cu4_2 1_555 1_555
N4_2 Cu3_2 1_555 1_555
Cu3_2 I3_2 1_555 1_555
Cu3_2 I7_2 1_555 1_555
O9 C8_3 1_555 1_555
C6_3 C7_3 1_555 1_555
C12_3 C13_3 1_555 1_555
Cu6 I5_2 1_555 1_555
Cu9_2 I7_2 1_555 1_555
C1_3 H1_3 1_555 1_555
H2_3 C1_3 1_555 1_555
H3_3 C1_3 1_555 1_555
O1_3 C1_3 1_555 1_555
Tb3 O1_3 1_555 1_555
O6_3 Tb3 1_555 1_555
O10 C14_3 1_555 1_555
N5_2 C17_3 1_555 1_555
C14_3 O6_3 1_555 1_555
C15_3 C14_3 1_555 1_555
C16_3 C15_3 1_555 1_555
H12_3 C16_3 1_555 1_555
C17_3 C16_3 1_555 1_555
H13_3 C17_3 1_555 1_555
C18_3 N5_2 1_555 1_555
C19_3 C15_3 1_555 1_555
H15_3 C19_3 1_555 1_555
C18_3 C19_3 1_555 1_555
C1_4 H1_4 1_555 1_555
H2_4 C1_4 1_555 1_555
H3_4 C1_4 1_555 1_555
O1_4 C1_4 1_555 1_555
Tb3_2 O1_4 1_555 1_555
Cu7 I2_4 1_555 1_555
Cu9_2 I6_2 1_555 1_555
I2_4 Cu1_4 1_555 1_555
I6_2 Cu1_4 1_555 1_555
O2_4 Tb3_2 1_555 1_555
O8_2 C2_4 1_555 1_555
O4_4 Tb3_2 1_555 1_555
O6_4 Tb3_2 1_555 1_555
N1_4 Cu1_4 1_555 1_555
C2_4 O2_4 1_555 1_555
C3_4 C2_4 1_555 1_555
C4_4 C3_4 1_555 1_555
H4_4 C4_4 1_555 1_555
C5_4 N1_4 1_555 1_555
H5_4 C5_4 1_555 1_555
C6_4 N1_4 1_555 1_555
H6_4 C6_4 1_555 1_555
C7_4 C3_4 1_555 1_555
H7_4 C7_4 1_555 1_555
C4_4 C5_4 1_555 1_555
C6_4 C7_4 1_555 1_555
O10_2 C14_4 1_555 1_555
N4_2 C11_4 1_555 1_555
N5 C17_4 1_555 1_555
C9_4 C8_4 1_555 1_555
C10_4 C9_4 1_555 1_555
H8_4 C10_4 1_555 1_555
C11_4 C10_4 1_555 1_555
H9_4 C11_4 1_555 1_555
C12_4 N4_2 1_555 1_555
H10_4 C12_4 1_555 1_555
C13_4 C9_4 1_555 1_555
H11_4 C13_4 1_555 1_555
C15_4 C14_4 1_555 1_555
C16_4 C15_4 1_555 1_555
H12_4 C16_4 1_555 1_555
C17_4 C16_4 1_555 1_555
H13_4 C17_4 1_555 1_555
C18_4 N5 1_555 1_555
H14_3 C18_4 1_555 1_555
C19_4 C15_4 1_555 1_555
H15_4 C19_4 1_555 1_555
O9_2 C8_4 1_555 1_555
C12_4 C13_4 1_555 1_555
C18_4 C19_4 1_555 1_555

#END
