
###############################################################################
#
# This file contains modified crystal structure data generated from the
# MOF subset of the Cambridge Structural Database (CSD) v543 
# hosted by the Cambridge Crystallographic Data Centre (CCDC).
#
# This work is licensed under the Creative Commons
# Attribution-NonCommercial-ShareAlike 4.0 International License.
# To view a copy of this license, visit
# http://creativecommons.org/licenses/by-nc-sa/4.0/
# or send a letter to
# Creative Commons, PO Box 1866, Mountain View, CA 94042, USA.
#
# CIF created using the CSD Python API on 29 September 2022
# The structure has been converted into the P1 space group
# The structure has a 3D framework
# The original CSD entry OYEMIR is in the tetragonal crystal system
# The original CSD entry OYEMIR is in a Sohncke space group
# The framework has been calculated to contain at least 10.0% void space
# The void calculation uses a probe of radius 1.32A, grid spacing 0.4
#
###############################################################################

data_OYEMIR
_chemical_formula_moiety         '(C84 H42 Fe9 O37)n'
_symmetry_cell_setting           triclinic
_symmetry_space_group_name_H-M   'P 1'
_symmetry_Int_Tables_number      1
_space_group_name_Hall           'P 1'
loop_
_symmetry_equiv_pos_site_id
_symmetry_equiv_pos_as_xyz
1 x,y,z
_cell_length_a                   15.14940(10)
_cell_length_b                   15.14940(10)
_cell_length_c                   12.0558(2)
_cell_angle_alpha                90
_cell_angle_beta                 90
_cell_angle_gamma                90
_cell_volume                     2766.86
loop_
_atom_site_label
_atom_site_type_symbol
_atom_site_fract_x
_atom_site_fract_y
_atom_site_fract_z
C7 C -0.000000 -0.000000 0.2943(4)
H4 H -0.000001 0.000001 0.371476
C10 C -0.000000 0.000000 0.0628(4)
C14 C 0.1396(3) 0.0891(3) 0.2955(3)
C15 C 0.0685(3) 0.0407(2) 0.2358(4)
C16 C 0.0693(3) 0.0386(3) 0.1207(4)
H7 H 0.116440 0.063215 0.082075
O8 O 0.1213(2) 0.1179(2) 0.3916(2)
O9 O 0.21250(16) 0.09880(16) 0.2454(2)
Fe3 Fe 0.30813(4) 0.19187(4) 0.250000
Fe6 Fe 0.30813(4) 0.30813(4) 0.000000
Fe7 Fe 0.19187(4) 0.19187(4) 0.500000
Fe1 Fe 0.19187(4) 0.30813(4) 0.750000
C1 C 0.0891(3) 0.1396(3) 0.7045(3)
C2 C -0.000000 -0.000000 0.7057(4)
H1 H -0.000001 0.000001 0.628524
C3 C 0.0407(2) 0.0685(3) 0.7642(4)
C4 C 0.0386(3) 0.0693(3) 0.8793(4)
H2 H 0.063215 0.116440 0.917925
C5 C 0.000000 0.000000 0.9372(4)
O1 O 0.2499(3) 0.250000 0.625000
H3 H 0.303909 0.250000 0.625000
O2 O 0.1179(2) 0.1213(2) 0.6084(2)
O3 O 0.09880(16) 0.21250(16) 0.7546(2)
O10 O 0.250000 0.2501(3) 0.875000
H8 H 0.250000 0.196091 0.875000
Fe6_2 Fe 0.30813(4) 0.30813(4) 1.000000
O11 O 0.250000 0.2499(3) 0.375000
O12 O 0.1179(2) 0.3787(2) 0.6416(2)
O13 O 0.1213(2) 0.3821(2) 0.8584(2)
O15 O 0.09880(16) 0.28750(16) 0.4954(2)
O16 O 0.28750(16) 0.09880(16) 0.5046(2)
O17 O 0.28750(16) 0.40120(16) 0.7454(2)
C6 C 0.8604(3) 0.9109(3) 0.2955(3)
C7_2 C 1.000000 1.000000 0.2943(4)
H4_2 H 0.999999 1.000001 0.371476
C8 C 0.9315(3) 0.9593(2) 0.2358(4)
C9 C 0.9307(3) 0.9614(3) 0.1207(4)
H5 H 0.883560 0.936785 0.082075
C10_2 C 1.000000 1.000000 0.0628(4)
O4 O 0.8787(2) 0.8821(2) 0.3916(2)
O5 O 0.78750(16) 0.90120(16) 0.2454(2)
Fe5 Fe 0.80813(4) 0.80813(4) 0.500000
Fe9 Fe 0.69187(4) 0.80813(4) 0.250000
C2_2 C 1.000000 1.000000 0.7057(4)
H1_2 H 0.999999 1.000001 0.628524
C5_2 C 1.000000 1.000000 0.9372(4)
C11 C 0.9109(3) 0.8604(3) 0.7045(3)
C12 C 0.9593(2) 0.9315(3) 0.7642(4)
C13 C 0.9614(3) 0.9307(3) 0.8793(4)
H6 H 0.936785 0.883560 0.917925
O6 O 0.8821(2) 0.8787(2) 0.6084(2)
O7 O 0.90120(16) 0.78750(16) 0.7546(2)
Fe8 Fe 0.80813(4) 0.69187(4) 0.750000
Fe5_2 Fe 0.69187(4) 0.69187(4) -0.000000
C1_2 C 0.4109(3) 0.3604(3) 0.2045(3)
C2_3 C 0.500000 0.500000 0.2057(4)
H1_3 H 0.500001 0.499999 0.128524
C3_2 C 0.4593(2) 0.4315(3) 0.2642(4)
C4_2 C 0.4614(3) 0.4307(3) 0.3793(4)
H2_2 H 0.436785 0.383560 0.417925
C5_3 C 0.500000 0.500000 0.4372(4)
O1_2 O 0.2501(3) 0.250000 0.125000
H3_2 H 0.196091 0.250000 0.125000
O2_2 O 0.3821(2) 0.3787(2) 0.1084(2)
O3_2 O 0.40120(16) 0.28750(16) 0.2546(2)
C6_2 C 0.6396(3) 0.5891(3) 0.7955(3)
C7_3 C 0.500000 0.500000 0.7943(4)
H4_3 H 0.500001 0.499999 0.871476
C8_2 C 0.5685(3) 0.5407(2) 0.7358(4)
C9_2 C 0.5693(3) 0.5386(3) 0.6207(4)
H5_2 H 0.616440 0.563215 0.582075
C10_3 C 0.500000 0.500000 0.5628(4)
O4_2 O 0.6213(2) 0.6179(2) 0.8916(2)
O5_2 O 0.71250(16) 0.59880(16) 0.7454(2)
C11_2 C 0.5891(3) 0.6396(3) 0.2045(3)
C12_2 C 0.5407(2) 0.5685(3) 0.2642(4)
C13_2 C 0.5386(3) 0.5693(3) 0.3793(4)
H6_2 H 0.563215 0.616440 0.417925
O6_2 O 0.6179(2) 0.6213(2) 0.1084(2)
O7_2 O 0.59880(16) 0.71250(16) 0.2546(2)
C14_2 C 0.3604(3) 0.4109(3) 0.7955(3)
C15_2 C 0.4315(3) 0.4593(2) 0.7358(4)
C16_2 C 0.4307(3) 0.4614(3) 0.6207(4)
H7_2 H 0.383560 0.436785 0.582075
O8_2 O 0.3787(2) 0.3821(2) 0.8916(2)
H8_2 H 0.250000 0.303909 0.375000
Fe5_3 Fe 0.69187(4) 0.69187(4) 1.000000
O12_2 O 0.3821(2) 0.1213(2) 0.1416(2)
O13_2 O 0.3787(2) 0.1179(2) 0.3584(2)
O16_2 O 0.21250(16) 0.40120(16) 0.0046(2)
O15_2 O 0.40120(16) 0.21250(16) 0.9954(2)
C5_4 C -0.000000 0.500000 0.1872(4)
C6_3 C 0.0891(3) 0.3604(3) 0.5455(3)
C7_4 C -0.000000 0.500000 0.5443(4)
H4_4 H -0.000001 0.499999 0.621476
C8_3 C 0.0407(2) 0.4315(3) 0.4858(4)
C9_3 C 0.0386(3) 0.4307(3) 0.3707(4)
H5_3 H 0.063215 0.383560 0.332075
C10_4 C 0.000000 0.500000 0.3128(4)
C12_3 C 0.0685(3) 0.4593(2) 0.0142(4)
C13_3 C 0.0693(3) 0.4614(3) 0.1293(4)
H6_3 H 0.116440 0.436785 0.167925
C2_4 C 0.000000 0.500000 0.9557(4)
H1_4 H -0.000001 0.499999 0.878524
C11_3 C 0.1396(3) 0.4109(3) 0.9545(3)
C3_3 C 0.9315(3) 0.5407(2) 0.0142(4)
C4_3 C 0.9307(3) 0.5386(3) 0.1293(4)
H2_3 H 0.883560 0.563215 0.167925
C5_5 C 1.000000 0.500000 0.1872(4)
O3_3 O 0.78750(16) 0.59880(16) 0.0046(2)
C7_5 C 1.000000 0.500000 0.5443(4)
H4_5 H 0.999999 0.499999 0.621476
C10_5 C 1.000000 0.500000 0.3128(4)
C14_3 C 0.9109(3) 0.6396(3) 0.5455(3)
C15_3 C 0.9593(2) 0.5685(3) 0.4858(4)
C16_3 C 0.9614(3) 0.5693(3) 0.3707(4)
H7_3 H 0.936785 0.616440 0.332075
O8_3 O 0.8821(2) 0.6213(2) 0.6416(2)
O9_2 O 0.90120(16) 0.71250(16) 0.4954(2)
O10_2 O 0.7499(3) 0.750000 0.125000
H8_3 H 0.803909 0.750000 0.125000
C1_3 C 0.8604(3) 0.5891(3) 0.9545(3)
C2_5 C 1.000000 0.500000 0.9557(4)
H1_5 H 0.999999 0.499999 0.878524
O1_3 O 0.750000 0.7499(3) 0.875000
H3_3 H 0.750000 0.803909 0.875000
O2_3 O 0.8787(2) 0.6179(2) 0.8584(2)
O11_2 O 0.7501(3) 0.750000 0.625000
O17_2 O 0.59880(16) 0.78750(16) 0.9954(2)
C6_4 C 0.4109(3) 0.1396(3) 0.0455(3)
C7_6 C 0.500000 0.000000 0.0443(4)
H4_6 H 0.500001 0.000001 0.121476
C2_6 C 0.500000 0.000000 0.4557(4)
H1_6 H 0.500001 0.000001 0.378524
C5_6 C 0.500000 -0.000000 0.6872(4)
C8_4 C 0.4593(2) 0.0685(3) 0.9858(4)
C9_4 C 0.4614(3) 0.0693(3) 0.8707(4)
H5_4 H 0.436785 0.116440 0.832075
C10_6 C 0.500000 0.000000 0.8128(4)
C11_4 C 0.3604(3) 0.0891(3) 0.4545(3)
C12_4 C 0.4315(3) 0.0407(2) 0.5142(4)
C13_4 C 0.4307(3) 0.0386(3) 0.6293(4)
H6_4 H 0.383560 0.063215 0.667925
C7_7 C 0.500000 1.000000 0.0443(4)
H4_7 H 0.500001 1.000001 0.121476
C14_4 C 0.5891(3) 0.8604(3) 0.0455(3)
O8_4 O 0.6179(2) 0.8787(2) 0.1416(2)
C1_4 C 0.6396(3) 0.9109(3) 0.4545(3)
C2_7 C 0.500000 1.000000 0.4557(4)
H1_7 H 0.500001 1.000001 0.378524
C3_4 C 0.5685(3) 0.9593(2) 0.5142(4)
C4_4 C 0.5693(3) 0.9614(3) 0.6293(4)
H2_4 H 0.616440 0.936785 0.667925
C5_7 C 0.500000 1.000000 0.6872(4)
O1_4 O 0.750000 0.7501(3) 0.375000
H3_4 H 0.750000 0.696091 0.375000
O2_4 O 0.6213(2) 0.8821(2) 0.3584(2)
O3_4 O 0.71250(16) 0.90120(16) 0.5046(2)
C10_7 C 0.500000 1.000000 0.8128(4)
C15_4 C 0.5407(2) 0.9315(3) 0.9858(4)
C16_4 C 0.5386(3) 0.9307(3) 0.8707(4)
H7_4 H 0.563215 0.883560 0.832075
H8_4 H 0.696091 0.750000 0.625000
C7_8 C -0.000000 1.000000 0.2943(4)
H4_8 H -0.000001 1.000001 0.371476
C10_8 C 0.000000 1.000000 0.0628(4)
C2_8 C 0.000000 1.000000 0.7057(4)
H1_8 H -0.000001 1.000001 0.628524
C5_8 C -0.000000 1.000000 0.9372(4)
C7_9 C 1.000000 -0.000000 0.2943(4)
H4_9 H 0.999999 0.000001 0.371476
C10_9 C 1.000000 0.000000 0.0628(4)
C2_9 C 1.000000 -0.000000 0.7057(4)
H1_9 H 0.999999 0.000001 0.628524
C5_9 C 1.000000 0.000000 0.9372(4)
loop_
_geom_bond_atom_site_label_1
_geom_bond_atom_site_label_2
_geom_bond_site_symmetry_1
_geom_bond_site_symmetry_2
C7 H4 1_555 1_555
C14 C15 1_555 1_555
C15 C7 1_555 1_555
C16 C10 1_555 1_555
H7 C16 1_555 1_555
O8 C14 1_555 1_555
O9 C14 1_555 1_555
Fe3 O9 1_555 1_555
Fe7 O8 1_555 1_555
C15 C16 1_555 1_555
Fe1 O1 1_555 1_555
C1 C3 1_555 1_555
C2 H1 1_555 1_555
C3 C2 1_555 1_555
C4 C3 1_555 1_555
H2 C4 1_555 1_555
C5 C4 1_555 1_555
O1 H3 1_555 1_555
O2 C1 1_555 1_555
O3 Fe1 1_555 1_555
Fe7 O1 1_555 1_555
O10 Fe1 1_555 1_555
H8 O10 1_555 1_555
Fe6_2 O10 1_555 1_555
O11 Fe7 1_555 1_555
O12 Fe1 1_555 1_555
O13 Fe1 1_555 1_555
O15 Fe7 1_555 1_555
O16 Fe7 1_555 1_555
O17 Fe1 1_555 1_555
C1 O3 1_555 1_555
O2 Fe7 1_555 1_555
C6 C8 1_555 1_555
C7_2 H4_2 1_555 1_555
C8 C7_2 1_555 1_555
C9 C8 1_555 1_555
H5 C9 1_555 1_555
O4 C6 1_555 1_555
O5 C6 1_555 1_555
Fe5 O4 1_555 1_555
Fe9 O5 1_555 1_555
C9 C10_2 1_555 1_555
C2_2 H1_2 1_555 1_555
C11 C12 1_555 1_555
C12 C2_2 1_555 1_555
C13 C5_2 1_555 1_555
H6 C13 1_555 1_555
O6 C11 1_555 1_555
O7 C11 1_555 1_555
Fe5 O6 1_555 1_555
Fe8 O7 1_555 1_555
C12 C13 1_555 1_555
Fe3 O1_2 1_555 1_555
C1_2 C3_2 1_555 1_555
C2_3 H1_3 1_555 1_555
C3_2 C2_3 1_555 1_555
C4_2 C3_2 1_555 1_555
H2_2 C4_2 1_555 1_555
C5_3 C4_2 1_555 1_555
O1_2 H3_2 1_555 1_555
O2_2 C1_2 1_555 1_555
O3_2 Fe3 1_555 1_555
C6_2 C8_2 1_555 1_555
C7_3 H4_3 1_555 1_555
C8_2 C7_3 1_555 1_555
C9_2 C8_2 1_555 1_555
H5_2 C9_2 1_555 1_555
C10_3 C5_3 1_555 1_555
O4_2 C6_2 1_555 1_555
O5_2 C6_2 1_555 1_555
C11_2 C12_2 1_555 1_555
C12_2 C2_3 1_555 1_555
C13_2 C5_3 1_555 1_555
H6_2 C13_2 1_555 1_555
O6_2 C11_2 1_555 1_555
O7_2 C11_2 1_555 1_555
C14_2 C15_2 1_555 1_555
C15_2 C7_3 1_555 1_555
C16_2 C10_3 1_555 1_555
H7_2 C16_2 1_555 1_555
O8_2 C14_2 1_555 1_555
O17 C14_2 1_555 1_555
Fe6 O1_2 1_555 1_555
O11 Fe3 1_555 1_555
H8_2 O11 1_555 1_555
Fe5_2 O6_2 1_555 1_555
Fe5_3 O4_2 1_555 1_555
Fe6_2 O8_2 1_555 1_555
Fe9 O7_2 1_555 1_555
Fe8 O5_2 1_555 1_555
O12_2 Fe3 1_555 1_555
O13_2 Fe3 1_555 1_555
O16_2 Fe6 1_555 1_555
C1_2 O3_2 1_555 1_555
O2_2 Fe6 1_555 1_555
C9_2 C10_3 1_555 1_555
C12_2 C13_2 1_555 1_555
C15_2 C16_2 1_555 1_555
O15_2 Fe6_2 1_555 1_555
C6_3 C8_3 1_555 1_555
C7_4 H4_4 1_555 1_555
C8_3 C7_4 1_555 1_555
C9_3 C8_3 1_555 1_555
H5_3 C9_3 1_555 1_555
C10_4 C5_4 1_555 1_555
O12 C6_3 1_555 1_555
O15 C6_3 1_555 1_555
C13_3 C5_4 1_555 1_555
H6_3 C13_3 1_555 1_555
C9_3 C10_4 1_555 1_555
C12_3 C13_3 1_555 1_555
C2_4 H1_4 1_555 1_555
O13 C11_3 1_555 1_555
C4_3 C3_3 1_555 1_555
H2_3 C4_3 1_555 1_555
C5_5 C4_3 1_555 1_555
O3_3 Fe5_2 1_555 1_555
C7_5 H4_5 1_555 1_555
C10_5 C5_5 1_555 1_555
C14_3 C15_3 1_555 1_555
C15_3 C7_5 1_555 1_555
C16_3 C10_5 1_555 1_555
H7_3 C16_3 1_555 1_555
O8_3 C14_3 1_555 1_555
O9_2 C14_3 1_555 1_555
O10_2 Fe5_2 1_555 1_555
H8_3 O10_2 1_555 1_555
Fe5 O9_2 1_555 1_555
Fe9 O10_2 1_555 1_555
Fe8 O8_3 1_555 1_555
C15_3 C16_3 1_555 1_555
Fe5_3 O1_3 1_555 1_555
C2_5 H1_5 1_555 1_555
O1_3 H3_3 1_555 1_555
O2_3 C1_3 1_555 1_555
Fe8 O1_3 1_555 1_555
O11_2 Fe8 1_555 1_555
O17_2 Fe5_3 1_555 1_555
O2_3 Fe8 1_555 1_555
C7_6 H4_6 1_555 1_555
O12_2 C6_4 1_555 1_555
C2_6 H1_6 1_555 1_555
C9_4 C8_4 1_555 1_555
H5_4 C9_4 1_555 1_555
C10_6 C5_6 1_555 1_555
C11_4 C12_4 1_555 1_555
C12_4 C2_6 1_555 1_555
C13_4 C5_6 1_555 1_555
H6_4 C13_4 1_555 1_555
O13_2 C11_4 1_555 1_555
O16 C11_4 1_555 1_555
C9_4 C10_6 1_555 1_555
C12_4 C13_4 1_555 1_555
C7_7 H4_7 1_555 1_555
O8_4 C14_4 1_555 1_555
Fe9 O8_4 1_555 1_555
Fe5 O1_4 1_555 1_555
C1_4 C3_4 1_555 1_555
C2_7 H1_7 1_555 1_555
C3_4 C2_7 1_555 1_555
C4_4 C3_4 1_555 1_555
H2_4 C4_4 1_555 1_555
C5_7 C4_4 1_555 1_555
O1_4 H3_4 1_555 1_555
O2_4 C1_4 1_555 1_555
O3_4 Fe5 1_555 1_555
C10_7 C5_7 1_555 1_555
C16_4 C10_7 1_555 1_555
H7_4 C16_4 1_555 1_555
Fe9 O1_4 1_555 1_555
O11_2 Fe5 1_555 1_555
H8_4 O11_2 1_555 1_555
C1_4 O3_4 1_555 1_555
O2_4 Fe9 1_555 1_555
C15_4 C16_4 1_555 1_555
C7_8 H4_8 1_555 1_555
C2_8 H1_8 1_555 1_555
C7_9 H4_9 1_555 1_555
C2_9 H1_9 1_555 1_555

#END
