
###############################################################################
#
# This file contains modified crystal structure data generated from the
# MOF subset of the Cambridge Structural Database (CSD) v543 
# hosted by the Cambridge Crystallographic Data Centre (CCDC).
#
# This work is licensed under the Creative Commons
# Attribution-NonCommercial-ShareAlike 4.0 International License.
# To view a copy of this license, visit
# http://creativecommons.org/licenses/by-nc-sa/4.0/
# or send a letter to
# Creative Commons, PO Box 1866, Mountain View, CA 94042, USA.
#
# CIF created using the CSD Python API on 29 September 2022
# The structure has been converted into the P1 space group
# The structure has a 3D framework
# The original CSD entry OYINUI is in the triclinic crystal system
# The framework has been calculated to contain at least 10.0% void space
# The void calculation uses a probe of radius 1.32A, grid spacing 0.4
# H atom positions have been added when not included in the experimental data
#
###############################################################################

data_OYINUI
_chemical_formula_moiety         '(C136 H96 Co4 N20 O26)n'
_symmetry_cell_setting           triclinic
_symmetry_space_group_name_H-M   'P 1'
_symmetry_Int_Tables_number      1
_space_group_name_Hall           'P 1'
loop_
_symmetry_equiv_pos_site_id
_symmetry_equiv_pos_as_xyz
1 x,y,z
_cell_length_a                   9.8998(3)
_cell_length_b                   16.9153(6)
_cell_length_c                   23.6693(10)
_cell_angle_alpha                70.492(2)
_cell_angle_beta                 83.1450(10)
_cell_angle_gamma                75.7480(10)
_cell_volume                     3618.1
loop_
_atom_site_label
_atom_site_type_symbol
_atom_site_fract_x
_atom_site_fract_y
_atom_site_fract_z
Co6 Co 0.05505(4) 0.27995(2) 0.46518(2)
O3 O 0.1125(2) 0.39035(13) 0.89067(9)
O9 O 0.0856(3) 0.22544(15) 0.55063(10)
N8 N 0.0625(3) 0.17354(16) 0.44206(12)
N10 N 0.1364(3) 0.04388(16) 0.43375(13)
C8 C 0.0081(3) 0.43592(19) 0.86101(13)
H8 H 0.071570 0.278279 0.850144
O12 O 0.0172(4) 0.33648(17) 0.58448(12)
C27 C 0.0429(3) 0.1951(2) 0.65451(14)
C32 C 0.0843(4) 0.1080(2) 0.66239(14)
H16 H 0.114693 0.088539 0.628733
C36 C 0.0813(4) 0.0489(2) 0.71949(14)
C39 C 0.0378(4) 0.07690(19) 0.76865(14)
H20 H 0.035385 0.036488 0.807684
C49 C 0.1725(4) 0.1115(2) 0.44073(15)
H27 H 0.265724 0.114225 0.444260
C62 C 0.0467(4) 0.2587(2) 0.59225(15)
Co10 Co 0.09386(5) 0.60511(2) 0.80701(2)
O30 O 0.1485(2) 0.36916(13) 0.40798(9)
O10 O 0.1343(3) 0.90159(14) 0.77829(10)
N3 N 0.6858(3) 0.46662(15) 0.43622(11)
N7 N 0.8568(3) 0.35124(15) 0.44929(11)
C11 C 0.6041(3) 0.54728(18) 0.44030(13)
C13 C 0.4500(3) 0.70865(19) 0.44298(13)
C16 C 0.8044(3) 0.42111(19) 0.46461(13)
H10 H 0.845062 0.437398 0.492211
C20 C 0.6606(3) 0.42232(19) 0.40041(13)
H13 H 0.584391 0.438067 0.375085
C28 C 0.3711(3) 0.79666(19) 0.44063(13)
C29 C 0.4701(3) 0.57608(19) 0.42049(14)
H14 H 0.430154 0.541274 0.405993
C38 C 0.6614(3) 0.59695(19) 0.46320(14)
H19 H 0.752961 0.576450 0.477926
C42 C 0.2235(3) 0.96222(19) 0.43414(14)
C45 C 0.5838(3) 0.67649(19) 0.46431(14)
H23 H 0.623196 0.710127 0.480138
C50 C 0.7663(3) 0.3521(2) 0.40865(14)
H28 H 0.776981 0.309627 0.389438
C52 C 0.3936(3) 0.65605(19) 0.42178(14)
H30 H 0.301226 0.675589 0.408014
C53 C 0.1935(4) 0.9233(2) 0.39616(15)
H31 H 0.122600 0.952516 0.367986
O13 O 0.1418(5) 0.93450(18) 0.68056(12)
C58 C 0.2676(3) 0.8410(2) 0.39928(14)
H36 H 0.247367 0.814402 0.372705
C59 C 0.4010(4) 0.8384(2) 0.47775(15)
H37 H 0.472758 0.810018 0.505620
C61 C 0.1231(4) 0.9542(2) 0.72924(14)
C64 C 0.3276(4) 0.9208(2) 0.47462(16)
H40 H 0.348872 0.948592 0.500223
H94 H 0.0742766 0.899886 0.680281
N16 N 0.0778(3) 0.30298(15) 0.23983(11)
N19 N 0.2368(3) 0.18041(16) 0.25979(11)
C103 C 0.2503(3) 0.04496(18) 0.24083(13)
H66 H 0.164423 0.068774 0.221141
C107 C 0.3049(3) 0.09255(18) 0.26623(13)
C115 C 0.1010(3) 0.21890(18) 0.24910(13)
H72 H 0.031182 0.189527 0.248326
C119 C 0.2049(4) 0.3180(2) 0.24619(15)
H75 H 0.220932 0.372687 0.242533
C126 C 0.3036(4) 0.2442(2) 0.25833(16)
H82 H 0.399375 0.237285 0.264607
C133 C 0.4288(4) 0.0572(2) 0.29563(14)
H87 H 0.463936 0.089198 0.314454
O28 O 0.0349(2) 0.48339(13) 0.15008(9)
N13 N 0.7737(3) 0.59224(14) 0.27701(10)
N14 N 0.8528(3) 0.47179(15) 0.25384(10)
C78 C 0.6914(3) 0.67512(18) 0.27524(13)
C80 C 0.9340(3) 0.47278(18) 0.29715(13)
C81 C 0.8880(3) 0.54549(19) 0.31176(13)
H56 H 0.926004 0.561632 0.340177
C82 C 0.7577(3) 0.54454(18) 0.24316(13)
H57 H 0.686529 0.561462 0.215155
C96 C 0.4508(3) 0.92591(18) 0.27170(13)
C97 C 0.5323(3) 0.83856(18) 0.27305(13)
C106 C 0.7044(3) 0.70961(19) 0.31909(14)
H68 H 0.767443 0.677966 0.350282
C113 C 0.5013(4) 0.97559(19) 0.29763(14)
H71 H 0.587559 0.952543 0.317057
C122 C 0.3227(3) 0.96179(19) 0.24452(13)
H78 H 0.283843 0.928586 0.228087
C125 C 0.6260(3) 0.79009(19) 0.31771(14)
H81 H 0.636526 0.812889 0.348167
C135 C 0.6001(4) 0.7223(2) 0.22995(15)
H89 H 0.591254 0.699530 0.199240
C136 C 0.5210(4) 0.8030(2) 0.22912(14)
H90 H 0.457989 0.834435 0.197900
Co12 Co 0.90614(5) 0.39489(2) 0.19299(2)
O1 O 0.9651(2) 0.51661(13) 0.84992(9)
O2 O 0.2555(2) 0.51485(14) 0.85901(10)
O4 O 0.2159(2) 0.69644(13) 0.76469(10)
O5 O 0.6915(2) 0.75061(13) 0.56169(9)
O6 O 0.8515(2) 0.63084(13) 0.59202(9)
O7 O 0.5954(2) 0.43577(13) 0.76381(10)
O8 O 0.9618(3) 0.18418(13) 0.81315(9)
N4 N 0.0288(3) 0.74146(15) 0.93724(10)
N5 N 0.0501(3) 0.66058(16) 0.87871(11)
O11 O 0.2633(3) 0.79437(15) 0.67949(11)
C2 C 0.5085(3) 0.6909(2) 0.65749(13)
H1 H 0.483339 0.748470 0.631713
C7 C 0.0558(3) 0.73632(19) 0.88080(13)
H6 H 0.076311 0.781909 0.846982
C9 C 0.9990(3) 0.22383(19) 0.70373(13)
H7 H 0.970119 0.283633 0.698471
C10 C 0.0053(3) 0.96114(19) 0.99104(13)
C12 C 0.9828(4) 0.30846(19) 0.83440(13)
C14 C 0.6655(3) 0.55158(19) 0.68184(13)
H9 H 0.748479 0.513989 0.673714
C15 C 0.0228(3) 0.81515(19) 0.95548(13)
C17 C 0.9271(3) 0.39198(19) 0.83545(13)
C18 C 0.4575(3) 0.57646(19) 0.74334(14)
H11 H 0.401030 0.556133 0.778048
C19 C 0.7984(3) 0.43551(19) 0.81108(13)
H12 H 0.760274 0.492775 0.811234
C21 C 0.7255(3) 0.39554(19) 0.78657(13)
C22 C 0.4216(3) 0.66115(19) 0.70619(13)
C25 C 0.6314(3) 0.63805(19) 0.64585(13)
C26 C 0.5752(3) 0.52245(19) 0.72947(14)
C31 C 0.7285(3) 0.67619(19) 0.59603(13)
C37 C 0.2905(4) 0.7207(2) 0.71888(14)
C40 C 0.9068(4) 0.27016(19) 0.81005(13)
C44 C 0.9979(4) 0.16413(19) 0.76063(13)
C46 C 0.7775(4) 0.31178(19) 0.78651(14)
H24 H 0.726068 0.283835 0.770793
C47 C 0.0056(4) 0.6624(2) 0.97338(14)
C54 C 0.0625(4) 0.9563(2) 0.93526(14)
C56 C 0.0720(4) 0.8850(2) 0.91750(14)
H34 H 0.112230 0.884037 0.879174
C60 C 0.0186(4) 0.6143(2) 0.93692(14)
H38 H 0.007606 0.556647 0.949503
C63 C 0.9491(4) 0.1425(2) 0.43724(18)
H39 H 0.854419 0.172382 0.437796
C66 C 0.9932(4) 0.0637(2) 0.43166(18)
H42 H 0.936606 0.028436 0.427141
H45 H 0.305(4) 0.530(3) 0.8784(18)
H46 H 0.222(4) 0.4717(18) 0.8793(15)
Co8 Co 0.94495(4) 0.72005(2) 0.53482(2)
N21 N 0.1472(3) 0.52821(15) 0.74616(10)
N11 N 0.9712(3) 0.25854(15) 0.06276(10)
N12 N 0.9499(3) 0.33942(16) 0.12129(11)
C70 C 0.9442(3) 0.26368(19) 0.11920(13)
H48 H 0.923689 0.218091 0.153018
C71 C 0.9947(3) 0.03886(19) 0.00896(13)
C72 C 0.9772(3) 0.18485(19) 0.04452(13)
C74 C 0.9944(4) 0.3376(2) 0.02662(14)
C75 C 0.9375(4) 0.0437(2) 0.06474(14)
C76 C 0.9280(4) 0.1150(2) 0.08250(14)
H52 H 0.887770 0.115963 0.120826
C77 C 0.9814(4) 0.3857(2) 0.06308(14)
H53 H 0.992394 0.443353 0.050497
O15 O 0.7445(2) 0.48515(14) 0.14099(10)
O17 O 0.7841(2) 0.30356(13) 0.23531(10)
O18 O 0.3085(2) 0.24939(13) 0.43831(9)
O20 O 0.4046(2) 0.56423(13) 0.23619(10)
O21 O 0.0382(3) 0.81582(13) 0.18685(9)
O24 O 0.7367(3) 0.20563(15) 0.32051(11)
C79 C 0.4915(3) 0.3091(2) 0.34251(13)
H54 H 0.516661 0.251530 0.368287
C84 C 0.0010(3) 0.77617(19) 0.29627(13)
H58 H 0.029881 0.716367 0.301529
C86 C 0.0172(4) 0.69154(19) 0.16560(13)
C88 C 0.3345(3) 0.44842(19) 0.31816(13)
H60 H 0.251521 0.486011 0.326286
C90 C 0.0729(3) 0.60802(19) 0.16455(13)
C91 C 0.5425(3) 0.42354(19) 0.25666(14)
H62 H 0.598970 0.443867 0.221952
C92 C 0.2016(3) 0.56449(19) 0.18892(13)
H63 H 0.239726 0.507225 0.188766
C94 C 0.2745(3) 0.60446(19) 0.21343(13)
C95 C 0.5784(3) 0.33885(19) 0.29381(13)
C98 C 0.3686(3) 0.36195(19) 0.35415(13)
C99 C 0.4248(3) 0.47755(19) 0.27053(14)
C104 C 0.2715(3) 0.32381(19) 0.40397(13)
C109 C 0.7095(4) 0.2793(2) 0.28112(14)
C112 C 0.0932(4) 0.72984(19) 0.18995(13)
C116 C 0.0021(4) 0.83587(19) 0.23937(13)
C118 C 0.2225(4) 0.68822(19) 0.21349(14)
H74 H 0.273932 0.716165 0.229207
C131 C 0.0509(4) 0.8575(2) 0.56276(18)
H85 H 0.145581 0.827618 0.562204
C134 C 0.0068(4) 0.9363(2) 0.56834(18)
H88 H 0.063394 0.971564 0.572859
H91 H 0.695(4) 0.470(3) 0.1216(18)
H92 H 0.778(4) 0.5283(18) 0.1207(15)
N24 N 0.1432(3) 0.64876(15) 0.55071(11)
N1 N 0.2263(3) 0.40776(14) 0.72299(10)
C1 C 0.3086(3) 0.32488(18) 0.72476(13)
C4 C 0.0660(3) 0.52722(18) 0.70285(13)
C5 C 0.1120(3) 0.45451(19) 0.68824(13)
H4 H 0.073996 0.438368 0.659823
C6 C 0.2423(3) 0.45546(18) 0.75684(13)
H5 H 0.313471 0.438538 0.784845
C23 C 0.5492(3) 0.07409(18) 0.72830(13)
C24 C 0.4677(3) 0.16144(18) 0.72695(13)
C34 C 0.2956(3) 0.29039(19) 0.68091(14)
H18 H 0.232557 0.322034 0.649718
C41 C 0.4987(4) 0.02441(19) 0.70237(14)
H21 H 0.412441 0.047457 0.682943
C51 C 0.6773(3) 0.03821(19) 0.75548(13)
H29 H 0.716157 0.071414 0.771913
C55 C 0.3740(3) 0.20991(19) 0.68229(14)
H33 H 0.363474 0.187111 0.651833
C67 C 0.3999(4) 0.2777(2) 0.77005(15)
H43 H 0.408746 0.300470 0.800760
C68 C 0.4790(4) 0.1970(2) 0.77088(14)
H44 H 0.542011 0.165565 0.802100
N6 N 0.9222(3) 0.69702(15) 0.76017(11)
N9 N 0.7632(3) 0.81959(16) 0.74021(11)
C30 C 0.7497(3) 0.95504(18) 0.75917(13)
H15 H 0.835577 0.931226 0.778859
C35 C 0.6951(3) 0.90745(18) 0.73377(13)
C43 C 0.8990(3) 0.78110(18) 0.75090(13)
H22 H 0.968818 0.810473 0.751674
C48 C 0.7951(4) 0.6820(2) 0.75381(15)
H26 H 0.779068 0.627313 0.757467
C57 C 0.6964(4) 0.7558(2) 0.74167(16)
H35 H 0.600625 0.762715 0.735393
C65 C 0.5712(4) 0.9428(2) 0.70437(14)
H41 H 0.536064 0.910802 0.685546
O23 O 0.8657(3) 0.09841(14) 0.22171(10)
N15 N 0.3142(3) 0.53338(15) 0.56378(11)
C85 C 0.3959(3) 0.45272(18) 0.55970(13)
C87 C 0.5500(3) 0.29135(19) 0.55702(13)
C89 C 0.1956(3) 0.57889(19) 0.53539(13)
H61 H 0.154938 0.562602 0.507789
C93 C 0.3394(3) 0.57768(19) 0.59959(13)
H64 H 0.415609 0.561933 0.624915
C101 C 0.6289(3) 0.20334(19) 0.55937(13)
C102 C 0.5299(3) 0.42392(19) 0.57951(14)
H65 H 0.569846 0.458726 0.594007
C110 C 0.3386(3) 0.40305(19) 0.53680(14)
H69 H 0.247039 0.423550 0.522074
C114 C 0.7765(3) 0.03778(19) 0.56586(14)
C117 C 0.4162(3) 0.32351(19) 0.53569(14)
H73 H 0.376804 0.289873 0.519862
C121 C 0.2337(3) 0.6479(2) 0.59135(14)
H77 H 0.223019 0.690373 0.610562
C123 C 0.6064(3) 0.34395(19) 0.57822(14)
H79 H 0.698774 0.324411 0.591986
C124 C 0.8065(4) 0.0767(2) 0.60384(15)
H80 H 0.877400 0.047484 0.632014
O26 O 0.8582(5) 0.06550(18) 0.31944(12)
C127 C 0.7324(3) 0.1590(2) 0.60072(14)
H83 H 0.752633 0.185598 0.627295
C128 C 0.5990(4) 0.1616(2) 0.52225(15)
H84 H 0.527242 0.189982 0.494380
C129 C 0.8769(4) 0.0458(2) 0.27076(14)
C132 C 0.6724(4) 0.0792(2) 0.52538(16)
H86 H 0.651128 0.051408 0.499777
H93 H 0.761644 0.0995035 0.321859
O16 O 0.8875(2) 0.60965(13) 0.10933(9)
O22 O 0.9144(3) 0.77456(15) 0.44937(10)
N18 N 0.9375(3) 0.82646(16) 0.55794(12)
N20 N 0.8636(3) 0.95612(16) 0.56625(13)
C83 C 0.9919(3) 0.56408(19) 0.13899(13)
H59 H 0.928430 0.721721 0.149856
O25 O 0.9828(4) 0.66352(17) 0.41552(12)
C100 C 0.9571(3) 0.8049(2) 0.34549(14)
C105 C 0.9157(4) 0.8920(2) 0.33761(14)
H67 H 0.885307 0.911461 0.371267
C108 C 0.9187(4) 0.9511(2) 0.28051(14)
C111 C 0.9622(4) 0.92310(19) 0.23135(14)
H70 H 0.964615 0.963512 0.192316
C120 C 0.8275(4) 0.8885(2) 0.55927(15)
H76 H 0.734276 0.885775 0.555740
C130 C 0.9533(4) 0.7413(2) 0.40775(15)
H93_2 H 0.238356 0.900496 0.678141
H94_2 H 0.925723 0.100114 0.319719
H55 H 0.011466 0.428371 0.314194
H32 H 0.096386 0.003791 0.908383
C69 C 0.0298(3) 0.1837(2) 0.98815(13)
H47 H 0.060896 0.232151 0.961118
C73 C 0.0377(3) 0.1122(2) 0.97072(14)
H49 H 0.073488 0.112961 0.931519
H50 H 0.015333 0.354505 0.984630
C3 C 0.9702(3) 0.8163(2) 0.01185(13)
H2 H 0.939104 0.767849 0.038882
C33 C 0.9623(3) 0.8878(2) 0.02928(14)
H17 H 0.926512 0.887039 0.068481
H25 H 0.984667 0.645495 0.015370
H51 H 0.903614 0.996209 0.091617
H3 H 0.988534 0.571629 0.685806
loop_
_geom_bond_atom_site_label_1
_geom_bond_atom_site_label_2
_geom_bond_site_symmetry_1
_geom_bond_site_symmetry_2
Co6 O9 1_555 1_555
O3 C8 1_555 1_555
O9 C62 1_555 1_555
N8 Co6 1_555 1_555
O12 C62 1_555 1_555
C32 C27 1_555 1_555
H16 C32 1_555 1_555
C36 C32 1_555 1_555
C39 C36 1_555 1_555
H20 C39 1_555 1_555
C49 N8 1_555 1_555
H27 C49 1_555 1_555
C62 C27 1_555 1_555
O30 Co6 1_555 1_555
N10 C49 1_555 1_555
O10 C61 1_555 1_555
N3 C11 1_555 1_555
N7 C16 1_555 1_555
C11 C29 1_555 1_555
C13 C28 1_555 1_555
C16 N3 1_555 1_555
H10 C16 1_555 1_555
C20 N3 1_555 1_555
H13 C20 1_555 1_555
C28 C58 1_555 1_555
C29 H14 1_555 1_555
C38 C11 1_555 1_555
H19 C38 1_555 1_555
C42 C53 1_555 1_555
C45 C13 1_555 1_555
H23 C45 1_555 1_555
C50 N7 1_555 1_555
H28 C50 1_555 1_555
C52 C13 1_555 1_555
H30 C52 1_555 1_555
C53 H31 1_555 1_555
O13 C61 1_555 1_555
C58 C53 1_555 1_555
H36 C58 1_555 1_555
C59 C28 1_555 1_555
H37 C59 1_555 1_555
C64 C42 1_555 1_555
H40 C64 1_555 1_555
C20 C50 1_555 1_555
C29 C52 1_555 1_555
C38 C45 1_555 1_555
C59 C64 1_555 1_555
O13 H94 1_555 1_555
N19 C107 1_555 1_555
C103 H66 1_555 1_555
C107 C103 1_555 1_555
C115 N16 1_555 1_555
H72 C115 1_555 1_555
C119 N16 1_555 1_555
H75 C119 1_555 1_555
C126 N19 1_555 1_555
H82 C126 1_555 1_555
C133 C107 1_555 1_555
H87 C133 1_555 1_555
N19 C115 1_555 1_555
C119 C126 1_555 1_555
N13 C78 1_555 1_555
N14 C80 1_555 1_555
C78 C106 1_555 1_555
C81 N13 1_555 1_555
H56 C81 1_555 1_555
C82 N13 1_555 1_555
H57 C82 1_555 1_555
C96 C97 1_555 1_555
C97 C125 1_555 1_555
C106 H68 1_555 1_555
C113 C96 1_555 1_555
H71 C113 1_555 1_555
C122 C96 1_555 1_555
H78 C122 1_555 1_555
C125 C106 1_555 1_555
H81 C125 1_555 1_555
C135 C78 1_555 1_555
H89 C135 1_555 1_555
C136 C97 1_555 1_555
H90 C136 1_555 1_555
Co12 N14 1_555 1_555
N14 C82 1_555 1_555
C80 C81 1_555 1_555
C135 C136 1_555 1_555
Co10 O2 1_555 1_555
O2 H45 1_555 1_555
O4 Co10 1_555 1_555
O5 C31 1_555 1_555
O6 C31 1_555 1_555
O7 C21 1_555 1_555
O8 C40 1_555 1_555
N4 C7 1_555 1_555
N5 Co10 1_555 1_555
O11 C37 1_555 1_555
C2 H1 1_555 1_555
C7 N5 1_555 1_555
H6 C7 1_555 1_555
C9 H7 1_555 1_555
C14 H9 1_555 1_555
C15 N4 1_555 1_555
C17 C12 1_555 1_555
C18 H11 1_555 1_555
C19 C17 1_555 1_555
H12 C19 1_555 1_555
C21 C19 1_555 1_555
C22 C2 1_555 1_555
C25 C2 1_555 1_555
C26 O7 1_555 1_555
C31 C25 1_555 1_555
C37 O4 1_555 1_555
C40 C12 1_555 1_555
C44 O8 1_555 1_555
C46 C21 1_555 1_555
H24 C46 1_555 1_555
C47 N4 1_555 1_555
C54 C10 1_555 1_555
C56 C15 1_555 1_555
H34 C56 1_555 1_555
C60 N5 1_555 1_555
H38 C60 1_555 1_555
H39 C63 1_555 1_555
H42 C66 1_555 1_555
H46 O2 1_555 1_555
Co8 O6 1_555 1_555
N21 Co10 1_555 1_555
C9 C44 1_555 1_555
C14 C25 1_555 1_555
C14 C26 1_555 1_555
C18 C22 1_555 1_555
C18 C26 1_555 1_555
C22 C37 1_555 1_555
C40 C46 1_555 1_555
C47 C60 1_555 1_555
C54 C56 1_555 1_555
C63 C66 1_555 1_555
N11 C70 1_555 1_555
N12 C70 1_555 1_555
C70 H48 1_555 1_555
C72 N11 1_555 1_555
C74 N11 1_555 1_555
C75 C71 1_555 1_555
C76 C72 1_555 1_555
H52 C76 1_555 1_555
C77 N12 1_555 1_555
H53 C77 1_555 1_555
Co12 N12 1_555 1_555
O15 Co12 1_555 1_555
O17 Co12 1_555 1_555
O18 C104 1_555 1_555
O30 C104 1_555 1_555
O20 C94 1_555 1_555
O21 C112 1_555 1_555
O24 C109 1_555 1_555
C79 H54 1_555 1_555
C84 H58 1_555 1_555
C88 H60 1_555 1_555
C90 C86 1_555 1_555
C91 H62 1_555 1_555
C92 C90 1_555 1_555
H63 C92 1_555 1_555
C94 C92 1_555 1_555
C95 C79 1_555 1_555
C98 C79 1_555 1_555
C99 O20 1_555 1_555
C104 C98 1_555 1_555
C109 O17 1_555 1_555
C112 C86 1_555 1_555
C116 O21 1_555 1_555
C118 C94 1_555 1_555
H74 C118 1_555 1_555
H85 C131 1_555 1_555
H88 C134 1_555 1_555
H91 O15 1_555 1_555
H92 O15 1_555 1_555
C74 C77 1_555 1_555
C75 C76 1_555 1_555
C84 C116 1_555 1_555
C88 C98 1_555 1_555
C88 C99 1_555 1_555
C91 C95 1_555 1_555
C91 C99 1_555 1_555
C95 C109 1_555 1_555
C112 C118 1_555 1_555
C131 C134 1_555 1_555
N1 C1 1_555 1_555
N21 C4 1_555 1_555
C1 C34 1_555 1_555
C5 N1 1_555 1_555
H4 C5 1_555 1_555
C6 N1 1_555 1_555
H5 C6 1_555 1_555
C23 C24 1_555 1_555
C24 C55 1_555 1_555
C34 H18 1_555 1_555
C41 C23 1_555 1_555
H21 C41 1_555 1_555
C51 C23 1_555 1_555
H29 C51 1_555 1_555
C55 C34 1_555 1_555
H33 C55 1_555 1_555
C67 C1 1_555 1_555
H43 C67 1_555 1_555
C68 C24 1_555 1_555
H44 C68 1_555 1_555
N21 C6 1_555 1_555
C4 C5 1_555 1_555
C67 C68 1_555 1_555
N9 C35 1_555 1_555
C30 H15 1_555 1_555
C35 C30 1_555 1_555
C43 N6 1_555 1_555
H22 C43 1_555 1_555
C48 N6 1_555 1_555
H26 C48 1_555 1_555
C57 N9 1_555 1_555
H35 C57 1_555 1_555
C65 C35 1_555 1_555
H41 C65 1_555 1_555
N9 C43 1_555 1_555
C48 C57 1_555 1_555
O23 C129 1_555 1_555
N15 C85 1_555 1_555
N24 C89 1_555 1_555
C85 C102 1_555 1_555
C87 C101 1_555 1_555
C89 N15 1_555 1_555
H61 C89 1_555 1_555
C93 N15 1_555 1_555
H64 C93 1_555 1_555
C101 C127 1_555 1_555
C102 H65 1_555 1_555
C110 C85 1_555 1_555
H69 C110 1_555 1_555
C114 C124 1_555 1_555
C117 C87 1_555 1_555
H73 C117 1_555 1_555
C121 N24 1_555 1_555
H77 C121 1_555 1_555
C123 C87 1_555 1_555
H79 C123 1_555 1_555
C124 H80 1_555 1_555
O26 C129 1_555 1_555
C127 C124 1_555 1_555
H83 C127 1_555 1_555
C128 C101 1_555 1_555
H84 C128 1_555 1_555
C132 C114 1_555 1_555
H86 C132 1_555 1_555
C93 C121 1_555 1_555
C102 C123 1_555 1_555
C110 C117 1_555 1_555
C128 C132 1_555 1_555
O26 H93 1_555 1_555
Co8 O22 1_555 1_555
O16 C83 1_555 1_555
O22 C130 1_555 1_555
N18 Co8 1_555 1_555
O25 C130 1_555 1_555
C105 C100 1_555 1_555
H67 C105 1_555 1_555
C108 C105 1_555 1_555
C111 C108 1_555 1_555
H70 C111 1_555 1_555
C120 N18 1_555 1_555
H76 C120 1_555 1_555
C130 C100 1_555 1_555
N20 C120 1_555 1_555
O13 H93_2 1_555 1_555
O26 H94_2 1_555 1_555
C69 H47 1_555 1_555
C73 C69 1_555 1_555
H49 C73 1_555 1_555
C3 H2 1_555 1_555
C33 C3 1_555 1_555
H17 C33 1_555 1_555

#END
