
###############################################################################
#
# This file contains modified crystal structure data generated from the
# MOF subset of the Cambridge Structural Database (CSD) v543 
# hosted by the Cambridge Crystallographic Data Centre (CCDC).
#
# This work is licensed under the Creative Commons
# Attribution-NonCommercial-ShareAlike 4.0 International License.
# To view a copy of this license, visit
# http://creativecommons.org/licenses/by-nc-sa/4.0/
# or send a letter to
# Creative Commons, PO Box 1866, Mountain View, CA 94042, USA.
#
# CIF created using the CSD Python API on 29 September 2022
# The structure has been converted into the P1 space group
# The structure has a 3D framework
# The original CSD entry OYIPIY is in the triclinic crystal system
# The framework has been calculated to contain at least 10.0% void space
# The void calculation uses a probe of radius 1.32A, grid spacing 0.4
#
###############################################################################

data_OYIPIY
_chemical_formula_moiety         '(C92 H46 Co8 O49)n'
_symmetry_cell_setting           triclinic
_symmetry_space_group_name_H-M   'P 1'
_symmetry_Int_Tables_number      1
_space_group_name_Hall           'P 1'
loop_
_symmetry_equiv_pos_site_id
_symmetry_equiv_pos_as_xyz
1 x,y,z
_cell_length_a                   10.7964(8)
_cell_length_b                   13.5998(9)
_cell_length_c                   24.2985(18)
_cell_angle_alpha                90.788(2)
_cell_angle_beta                 100.987(2)
_cell_angle_gamma                91.584(2)
_cell_volume                     3500.33
loop_
_atom_site_label
_atom_site_type_symbol
_atom_site_fract_x
_atom_site_fract_y
_atom_site_fract_z
O4 O 0.1438(3) 0.0359(2) 0.71754(13)
Co5 Co 0.30790(5) 0.02011(4) 0.68542(2)
Co12 Co 0.22904(5) 0.11723(4) 0.78943(2)
O1 O 0.7641(3) 0.0230(2) 0.16788(12)
O9 O 0.4905(3) 0.0428(2) 0.18299(12)
O22 O 0.0105(3) -0.0000(2) 0.16918(14)
Co14 Co 0.64856(5) 0.13869(4) 0.19674(2)
Co2 Co 0.58039(6) 0.20730(4) 0.32317(2)
Co3 Co 0.77096(5) 0.88277(4) 0.21057(2)
O2 O 0.6849(3) 0.1235(2) 0.28434(12)
O3 O 0.6000(3) 0.9278(2) 0.23378(12)
O5 O 0.2926(3) 0.1661(2) 0.66493(13)
O6 O 0.4737(3) 0.0116(2) 0.65601(12)
O8 O 0.2417(3) 0.2389(2) 0.74105(12)
O10 O 0.5036(3) 0.3197(2) 0.27941(13)
O15 O 0.5345(3) 0.2599(2) 0.19772(13)
O16 O 0.6697(3) 0.8122(2) 0.14179(13)
O17 O 0.4444(3) 0.4431(2) 0.55794(14)
O18 O 0.2394(3) 0.6867(2) 0.66506(14)
O19 O 0.5699(4) 0.2475(3) 0.40081(15)
O20 O 0.8095(3) 0.2678(2) 0.64196(15)
O21 O 0.3083(3) 0.6416(2) 0.23790(13)
O22_2 O 0.0105(3) 1.0000(2) 0.16918(14)
O24 O 0.1989(4) 0.5994(2) 0.73760(15)
H5 H 0.189139 0.655780 0.750367
O25 O 0.6363(4) 0.9312(3) 0.07856(15)
O26 O 0.3966(4) 0.5252(2) 0.06165(14)
C1 C 0.2633(4) 0.9324(3) 0.18893(18)
H6 H 0.252357 0.998903 0.177974
C2 C 0.2969(4) 0.3387(3) 0.67003(18)
C3 C 0.3997(4) 0.7974(3) 0.21736(18)
H7 H 0.481816 0.771773 0.226725
C4 C 0.4481(4) 0.4174(3) 0.20001(18)
C5 C 0.2375(4) 0.6072(3) 0.68982(19)
C6 C 0.6956(4) 0.0205(3) 0.67024(17)
C7 C 0.2743(4) 0.2399(3) 0.69417(18)
C8 C 0.9226(4) 0.1251(3) 0.67333(19)
H8 H 0.999644 0.161142 0.674333
C9 C 0.2771(4) 0.5146(3) 0.66791(19)
C10 C 0.3835(4) 0.8960(3) 0.20194(18)
C11 C 0.4983(4) 0.9606(3) 0.20556(17)
C12 C 0.4997(4) 0.3240(3) 0.22673(19)
C13 C 0.9222(4) 0.0274(3) 0.68883(17)
C14 C 0.3488(4) 0.5860(3) 0.14782(19)
H9 H 0.310237 0.641532 0.129312
C15 C 0.8065(4) 0.1689(3) 0.65619(19)
C17 C 0.5400(4) 0.3777(3) 0.55414(19)
C18 C 0.6939(4) 0.1177(3) 0.65497(18)
H10 H 0.615911 0.149177 0.643709
C19 C 0.2570(5) 0.4240(3) 0.69182(19)
H11 H 0.215842 0.421068 0.723049
C20 C 0.6288(4) 0.3555(3) 0.60094(19)
H12 H 0.626574 0.384445 0.636532
C21 C 0.4049(4) 0.4891(3) 0.23064(19)
H13 H 0.408876 0.480938 0.269698
C24 C 0.7269(5) 0.2486(3) 0.5436(2)
H15 H 0.790884 0.203451 0.540383
C25 C 0.6230(5) 0.8436(3) 0.09446(19)
C26 C 0.4478(5) 0.4310(3) 0.14349(19)
H16 H 0.480493 0.382318 0.122235
C27 C 0.5431(5) 0.3389(3) 0.50251(19)
H17 H 0.481876 0.355960 0.470836
C28 C 0.5401(5) 0.7719(3) 0.05550(19)
C29 C 0.1579(4) 0.8721(3) 0.19179(18)
C30 C 0.3618(4) 0.3434(3) 0.62493(19)
H18 H 0.390054 0.285188 0.609873
C31 C 0.3408(4) 0.5190(3) 0.62300(19)
H19 H 0.354553 0.580179 0.606422
C32 C 0.7195(4) 0.2909(3) 0.5945(2)
C33 C 0.0279(4) 0.9112(3) 0.18302(18)
C34 C 0.6381(5) 0.2735(3) 0.49679(19)
C35 C 0.5144(5) 0.6808(3) 0.0762(2)
H20 H 0.554808 0.662425 0.112672
C36 C 0.1743(4) 0.7737(3) 0.20661(18)
H21 H 0.103112 0.731983 0.208279
C37 C 0.2935(4) 0.7378(3) 0.21873(18)
O28 O 0.7417(5) 0.1731(4) 0.44120(19)
C38 C 0.3551(4) 0.5740(3) 0.20509(18)
C39 C 0.4002(5) 0.5150(3) 0.11871(19)
C41 C 0.4836(5) 0.7976(4) 0.00140(19)
C42 C 0.3834(4) 0.4335(3) 0.60307(19)
C44 C 0.4283(5) 0.6163(3) 0.04254(19)
C45 C 0.6489(6) 0.2257(4) 0.4418(2)
Co7 Co 0.69210(5) 0.97989(4) 0.31458(2)
Co9 Co 0.41961(6) 0.79270(4) 0.67683(2)
O32 O 0.4000(3) 0.0722(2) 0.76622(12)
O34 O 0.8562(3) 0.9641(2) 0.28246(13)
O35 O 0.9402(3) 0.8510(2) 0.19093(13)
O36 O 0.7583(3) 0.7611(2) 0.25895(12)
O38 O 0.4215(3) 0.1209(2) 0.31032(13)
O40 O 0.7606(3) 0.3133(2) 0.33494(14)
Co4 Co 0.35144(5) 0.86131(4) 0.80326(2)
O11 O 0.1848(3) 0.7673(2) 0.78875(13)
H1 H 0.117411 0.802170 0.777879
H2 H 0.173229 0.742191 0.820621
O12 O 0.3852(3) 0.8294(2) 0.88845(12)
O27 O 0.2360(4) 0.7129(3) 0.88832(15)
C40 C 0.3716(5) 0.6407(4) 0.98921(19)
H22 H 0.313839 0.595872 0.966552
H23 H 0.502628 0.859854 0.987298
C43 C 0.4006(5) 0.7331(4) 0.9686(2)
C46 C 0.3354(5) 0.7606(4) 0.9111(2)
O29 O 0.2359(3) 0.9770(2) 0.83212(12)
O31 O 0.3151(3) 0.8765(2) 0.71566(12)
O37 O 0.5095(3) 0.9572(2) 0.81701(12)
O39 O 0.4655(3) 0.7401(2) 0.80228(13)
O13 O 0.1987(3) 0.9831(2) 0.60780(14)
H3 H 0.128001 0.952532 0.611903
H4 H 0.237198 0.938586 0.590998
O14 O 0.5785(3) 0.8791(2) 0.68968(13)
C16 C 0.5712(4) 0.9665(3) 0.67193(18)
C23 C 0.8093(4) 0.9741(3) 0.68644(18)
H14 H 0.810156 0.906490 0.695820
O7 O 0.0598(3) 0.1490(2) 0.80907(13)
O13_2 O 0.8013(3) 0.0169(2) 0.39220(14)
H3_2 H 0.871999 0.047468 0.388097
H4_2 H 0.762802 0.061414 0.409002
C16_2 C 0.4288(4) 0.0335(3) 0.32807(18)
C23_2 C 0.1907(4) 0.0259(3) 0.31356(18)
H14_2 H 0.189844 0.093510 0.304180
O11_2 O 0.8152(3) 0.2327(2) 0.21125(13)
H1_2 H 0.882589 0.197830 0.222121
H2_2 H 0.826771 0.257809 0.179379
O12_2 O 0.6148(3) 0.1706(2) 0.11155(12)
O27_2 O 0.7640(4) 0.2871(3) 0.11168(15)
C40_2 C 0.6284(5) 0.3593(4) 0.01079(19)
H22_2 H 0.686161 0.404128 0.033448
H23_2 H 0.497372 0.140146 0.012702
C43_2 C 0.5994(5) 0.2669(4) 0.0314(2)
C46_2 C 0.6646(5) 0.2394(4) 0.0889(2)
O5_2 O 0.7074(3) 0.8339(2) 0.33507(13)
O6_2 O 0.5263(3) 0.9884(2) 0.34399(12)
O10_2 O 0.4964(3) 0.6803(2) 0.72059(13)
O16_2 O 0.3303(3) 0.1878(2) 0.85821(13)
O17_2 O 0.5556(3) 0.5569(2) 0.44206(14)
O19_2 O 0.4301(4) 0.7525(3) 0.59919(15)
O20_2 O 0.1905(3) 0.7322(2) 0.35804(15)
O21_2 O 0.6917(3) 0.3584(2) 0.76210(13)
O22_3 O 0.9895(3) 0.0000(2) 0.83082(14)
O24_2 O 0.8011(4) 0.4006(2) 0.26240(15)
H5_2 H 0.810861 0.344220 0.249633
O25_2 O 0.3637(4) 0.0688(3) 0.92144(15)
O26_2 O 0.6034(4) 0.4748(2) 0.93835(14)
C1_2 C 0.7367(4) 0.0676(3) 0.81107(18)
H6_2 H 0.747643 0.001097 0.822026
C2_2 C 0.7031(4) 0.6613(3) 0.32997(18)
C3_2 C 0.6003(4) 0.2026(3) 0.78264(18)
H7_2 H 0.518184 0.228227 0.773275
C4_2 C 0.5519(4) 0.5826(3) 0.79999(18)
C5_2 C 0.7625(4) 0.3928(3) 0.31018(19)
C6_2 C 0.3044(4) 0.9795(3) 0.32976(17)
C7_2 C 0.7257(4) 0.7601(3) 0.30583(18)
C8_2 C 0.0774(4) 0.8749(3) 0.32667(19)
H8_2 H 0.000356 0.838858 0.325667
C9_2 C 0.7229(4) 0.4854(3) 0.33209(19)
C10_2 C 0.6165(4) 0.1040(3) 0.79806(18)
C11_2 C 0.5017(4) 0.0394(3) 0.79444(17)
C12_2 C 0.5003(4) 0.6760(3) 0.77327(19)
C13_2 C 0.0778(4) 0.9726(3) 0.31117(17)
C14_2 C 0.6512(4) 0.4140(3) 0.85218(19)
H9_2 H 0.689763 0.358468 0.870688
C15_2 C 0.1935(4) 0.8311(3) 0.34381(19)
C17_2 C 0.4600(4) 0.6223(3) 0.44586(19)
C18_2 C 0.3061(4) 0.8823(3) 0.34503(18)
H10_2 H 0.384089 0.850823 0.356291
C19_2 C 0.7430(5) 0.5760(3) 0.30818(19)
H11_2 H 0.784158 0.578932 0.276951
C20_2 C 0.3712(4) 0.6445(3) 0.39906(19)
H12_2 H 0.373426 0.615555 0.363468
C21_2 C 0.5951(4) 0.5109(3) 0.76936(19)
H13_2 H 0.591124 0.519062 0.730302
C24_2 C 0.2731(5) 0.7514(3) 0.4564(2)
H15_2 H 0.209116 0.796549 0.459617
C25_2 C 0.3770(5) 0.1564(3) 0.90554(19)
C26_2 C 0.5522(5) 0.5690(3) 0.85651(19)
H16_2 H 0.519507 0.617682 0.877765
C27_2 C 0.4569(5) 0.6611(3) 0.49749(19)
H17_2 H 0.518124 0.644040 0.529164
C28_2 C 0.4599(5) 0.2281(3) 0.94450(19)
C29_2 C 0.8421(4) 0.1279(3) 0.80821(18)
C30_2 C 0.6382(4) 0.6566(3) 0.37507(19)
H18_2 H 0.609946 0.714812 0.390127
C31_2 C 0.6592(4) 0.4810(3) 0.37700(19)
H19_2 H 0.645447 0.419821 0.393578
C32_2 C 0.2805(4) 0.7091(3) 0.4055(2)
C33_2 C 0.9721(4) 0.0888(3) 0.81698(18)
C34_2 C 0.3619(5) 0.7265(3) 0.50321(19)
C35_2 C 0.4856(5) 0.3192(3) 0.9238(2)
H20_2 H 0.445192 0.337575 0.887328
C36_2 C 0.8257(4) 0.2263(3) 0.79339(18)
H21_2 H 0.896888 0.268017 0.791721
C37_2 C 0.7065(4) 0.2622(3) 0.78127(18)
O28_2 O 0.2583(5) 0.8269(4) 0.55880(19)
C38_2 C 0.6449(4) 0.4260(3) 0.79491(18)
C39_2 C 0.5998(5) 0.4850(3) 0.88129(19)
C41_2 C 0.5164(5) 0.2024(4) 0.99860(19)
C42_2 C 0.6166(4) 0.5665(3) 0.39693(19)
C44_2 C 0.5717(5) 0.3837(3) 0.95746(19)
C45_2 C 0.3511(6) 0.7743(4) 0.5582(2)
O22_4 O 0.9895(3) 1.0000(2) 0.83082(14)
O23 O 0.0475(3) 0.8866(2) 0.70861(16)
C22 C 0.0451(4) 0.9774(3) 0.70608(19)
O23_2 O 0.9525(3) 0.1134(2) 0.29139(16)
C22_2 C 0.9549(4) 0.0226(3) 0.29392(19)
loop_
_geom_bond_atom_site_label_1
_geom_bond_atom_site_label_2
_geom_bond_site_symmetry_1
_geom_bond_site_symmetry_2
Co5 O4 1_555 1_555
Co12 O4 1_555 1_555
O1 Co14 1_555 1_555
Co14 O9 1_555 1_555
Co5 O5 1_555 1_555
Co2 O2 1_555 1_555
O3 Co3 1_555 1_555
O5 C7 1_555 1_555
O6 Co5 1_555 1_555
O8 C7 1_555 1_555
O10 Co2 1_555 1_555
O15 C12 1_555 1_555
O16 Co3 1_555 1_555
O17 C17 1_555 1_555
O18 C5 1_555 1_555
O19 Co2 1_555 1_555
O20 C15 1_555 1_555
O21 C37 1_555 1_555
O22_2 C33 1_555 1_555
O24 H5 1_555 1_555
O25 C25 1_555 1_555
O26 C39 1_555 1_555
C1 H6 1_555 1_555
C2 C7 1_555 1_555
C3 H7 1_555 1_555
C4 C12 1_555 1_555
C5 O24 1_555 1_555
C8 H8 1_555 1_555
C9 C5 1_555 1_555
C10 C1 1_555 1_555
C11 O3 1_555 1_555
C12 O10 1_555 1_555
C13 C8 1_555 1_555
C14 H9 1_555 1_555
C15 C8 1_555 1_555
C17 C20 1_555 1_555
C18 C6 1_555 1_555
H10 C18 1_555 1_555
C19 C2 1_555 1_555
H11 C19 1_555 1_555
C20 H12 1_555 1_555
C21 C4 1_555 1_555
H13 C21 1_555 1_555
C24 H15 1_555 1_555
C25 O16 1_555 1_555
C26 C4 1_555 1_555
H16 C26 1_555 1_555
C27 C17 1_555 1_555
H17 C27 1_555 1_555
C28 C25 1_555 1_555
C29 C1 1_555 1_555
C30 C2 1_555 1_555
H18 C30 1_555 1_555
C31 C9 1_555 1_555
H19 C31 1_555 1_555
C32 O20 1_555 1_555
C33 C29 1_555 1_555
C34 C24 1_555 1_555
C35 C28 1_555 1_555
H20 C35 1_555 1_555
C36 C29 1_555 1_555
H21 C36 1_555 1_555
C37 C3 1_555 1_555
O28 C45 1_555 1_555
C38 O21 1_555 1_555
C39 C14 1_555 1_555
C41 C28 1_555 1_555
C42 O17 1_555 1_555
C44 O26 1_555 1_555
C45 O19 1_555 1_555
Co7 O3 1_555 1_555
Co9 O18 1_555 1_555
Co12 O8 1_555 1_555
Co14 O2 1_555 1_555
O32 Co5 1_555 1_555
O34 Co3 1_555 1_555
O35 Co3 1_555 1_555
O36 Co3 1_555 1_555
O38 Co2 1_555 1_555
O40 Co2 1_555 1_555
O15 Co14 1_555 1_555
C3 C10 1_555 1_555
C9 C19 1_555 1_555
C10 C11 1_555 1_555
C14 C38 1_555 1_555
C15 C18 1_555 1_555
C20 C32 1_555 1_555
C21 C38 1_555 1_555
C24 C32 1_555 1_555
C26 C39 1_555 1_555
C27 C34 1_555 1_555
C30 C42 1_555 1_555
C31 C42 1_555 1_555
C34 C45 1_555 1_555
C35 C44 1_555 1_555
C36 C37 1_555 1_555
Co7 O34 1_555 1_555
Co12 O32 1_555 1_555
Co4 O11 1_555 1_555
O11 H1 1_555 1_555
H2 O11 1_555 1_555
O12 Co4 1_555 1_555
O27 C46 1_555 1_555
C40 H22 1_555 1_555
C43 C40 1_555 1_555
C46 O12 1_555 1_555
O29 Co4 1_555 1_555
O31 Co4 1_555 1_555
O37 Co4 1_555 1_555
O39 Co4 1_555 1_555
C43 C46 1_555 1_555
H3 O13 1_555 1_555
H4 O13 1_555 1_555
O14 C16 1_555 1_555
H14 C23 1_555 1_555
Co9 O14 1_555 1_555
Co9 O31 1_555 1_555
Co12 O7 1_555 1_555
H3_2 O13_2 1_555 1_555
H4_2 O13_2 1_555 1_555
O38 C16_2 1_555 1_555
H14_2 C23_2 1_555 1_555
Co14 O11_2 1_555 1_555
O11_2 H1_2 1_555 1_555
H2_2 O11_2 1_555 1_555
O12_2 Co14 1_555 1_555
O27_2 C46_2 1_555 1_555
C40_2 H22_2 1_555 1_555
C43_2 C40_2 1_555 1_555
C46_2 O12_2 1_555 1_555
C43_2 C46_2 1_555 1_555
Co7 O5_2 1_555 1_555
O5_2 C7_2 1_555 1_555
O6_2 Co7 1_555 1_555
O36 C7_2 1_555 1_555
O10_2 Co9 1_555 1_555
O39 C12_2 1_555 1_555
O16_2 Co12 1_555 1_555
O17_2 C17_2 1_555 1_555
O40 C5_2 1_555 1_555
O19_2 Co9 1_555 1_555
O20_2 C15_2 1_555 1_555
O21_2 C37_2 1_555 1_555
O22_3 C33_2 1_555 1_555
O24_2 H5_2 1_555 1_555
O25_2 C25_2 1_555 1_555
O26_2 C39_2 1_555 1_555
C1_2 H6_2 1_555 1_555
C2_2 C7_2 1_555 1_555
C3_2 H7_2 1_555 1_555
C4_2 C12_2 1_555 1_555
C5_2 O24_2 1_555 1_555
C8_2 H8_2 1_555 1_555
C9_2 C5_2 1_555 1_555
C10_2 C1_2 1_555 1_555
C11_2 O32 1_555 1_555
C12_2 O10_2 1_555 1_555
C13_2 C8_2 1_555 1_555
C14_2 H9_2 1_555 1_555
C15_2 C8_2 1_555 1_555
C17_2 C20_2 1_555 1_555
C18_2 C6_2 1_555 1_555
H10_2 C18_2 1_555 1_555
C19_2 C2_2 1_555 1_555
H11_2 C19_2 1_555 1_555
C20_2 H12_2 1_555 1_555
C21_2 C4_2 1_555 1_555
H13_2 C21_2 1_555 1_555
C24_2 H15_2 1_555 1_555
C25_2 O16_2 1_555 1_555
C26_2 C4_2 1_555 1_555
H16_2 C26_2 1_555 1_555
C27_2 C17_2 1_555 1_555
H17_2 C27_2 1_555 1_555
C28_2 C25_2 1_555 1_555
C29_2 C1_2 1_555 1_555
C30_2 C2_2 1_555 1_555
H18_2 C30_2 1_555 1_555
C31_2 C9_2 1_555 1_555
H19_2 C31_2 1_555 1_555
C32_2 O20_2 1_555 1_555
C33_2 C29_2 1_555 1_555
C34_2 C24_2 1_555 1_555
C35_2 C28_2 1_555 1_555
H20_2 C35_2 1_555 1_555
C36_2 C29_2 1_555 1_555
H21_2 C36_2 1_555 1_555
C37_2 C3_2 1_555 1_555
O28_2 C45_2 1_555 1_555
C38_2 O21_2 1_555 1_555
C39_2 C14_2 1_555 1_555
C41_2 C28_2 1_555 1_555
C42_2 O17_2 1_555 1_555
C44_2 O26_2 1_555 1_555
C45_2 O19_2 1_555 1_555
C3_2 C10_2 1_555 1_555
C9_2 C19_2 1_555 1_555
C10_2 C11_2 1_555 1_555
C14_2 C38_2 1_555 1_555
C15_2 C18_2 1_555 1_555
C20_2 C32_2 1_555 1_555
C21_2 C38_2 1_555 1_555
C24_2 C32_2 1_555 1_555
C26_2 C39_2 1_555 1_555
C27_2 C34_2 1_555 1_555
C30_2 C42_2 1_555 1_555
C31_2 C42_2 1_555 1_555
C34_2 C45_2 1_555 1_555
C35_2 C44_2 1_555 1_555
C36_2 C37_2 1_555 1_555
O23 C22 1_555 1_555
O23_2 C22_2 1_555 1_555

#END
