
###############################################################################
#
# This file contains modified crystal structure data generated from the
# MOF subset of the Cambridge Structural Database (CSD) v543 
# hosted by the Cambridge Crystallographic Data Centre (CCDC).
#
# This work is licensed under the Creative Commons
# Attribution-NonCommercial-ShareAlike 4.0 International License.
# To view a copy of this license, visit
# http://creativecommons.org/licenses/by-nc-sa/4.0/
# or send a letter to
# Creative Commons, PO Box 1866, Mountain View, CA 94042, USA.
#
# CIF created using the CSD Python API on 29 September 2022
# The structure has been converted into the P1 space group
# The structure has a 3D framework
# The original CSD entry OYUVOW is in the orthorhombic crystal system
# The framework has been calculated to contain at least 10.0% void space
# The void calculation uses a probe of radius 1.32A, grid spacing 0.4
#
###############################################################################

data_OYUVOW
_chemical_formula_moiety         '(C88 H48 O20 Sr4)n'
_symmetry_cell_setting           triclinic
_symmetry_space_group_name_H-M   'P 1'
_symmetry_Int_Tables_number      1
_space_group_name_Hall           'P 1'
loop_
_symmetry_equiv_pos_site_id
_symmetry_equiv_pos_as_xyz
1 x,y,z
_cell_length_a                   7.3372(6)
_cell_length_b                   20.3580(16)
_cell_length_c                   16.6199(12)
_cell_angle_alpha                90
_cell_angle_beta                 90
_cell_angle_gamma                90
_cell_volume                     2482.53
loop_
_atom_site_label
_atom_site_type_symbol
_atom_site_fract_x
_atom_site_fract_y
_atom_site_fract_z
Sr8 Sr 0.39360(9) 0.77553(3) 0.000000
C13 C 0.1688(8) 0.8268(3) 0.1356(4)
C14 C 0.0689(9) 0.8475(4) 0.2102(4)
C18 C 0.0692(12) 0.9049(6) 0.3382(6)
H10 H 0.134161 0.926899 0.377962
C19 C 0.1568(14) 0.8883(5) 0.2666(6)
H11 H 0.273308 0.904151 0.256031
O4 O 0.1014(5) 0.7828(2) 0.0928(3)
O5 O 0.3190(7) 0.8517(3) 0.1208(3)
C25 C 0.1688(8) 0.8268(3) 0.8644(4)
C26 C 0.0689(9) 0.8475(4) 0.7898(4)
C30 C 0.0692(12) 0.9049(6) 0.6618(6)
H16 H 0.134161 0.926899 0.622038
C31 C 0.1568(14) 0.8883(5) 0.7334(6)
H17 H 0.273308 0.904151 0.743969
O6 O 0.1014(5) 0.7828(2) 0.9072(3)
O7 O 0.3190(7) 0.8517(3) 0.8792(3)
O10 O 0.2063(9) 0.6597(3) 0.000000
H26 H 0.219(7) 0.6232(12) 0.027(2)
Sr8_2 Sr 0.39360(9) 0.77553(3) 1.000000
H25 H 0.219(7) 0.6232(12) 0.973(2)
O10_2 O 0.2063(9) 0.6597(3) 1.000000
Sr4 Sr 0.89360(9) 0.72447(3) 0.000000
C15 C 0.8932(10) 0.8298(4) 0.2242(5)
H8 H 0.833767 0.801917 0.188409
C16 C 0.8007(12) 0.8534(5) 0.2928(5)
H9 H 0.677157 0.844677 0.299146
C17 C 0.8933(9) 0.8899(3) 0.3512(4)
C20 C 0.8013(9) 0.9148(3) 0.4282(4)
C21 C 0.8760(14) 0.8939(5) 0.500000
H12 H 0.976105 0.865837 0.499999
C22 C 0.6483(8) 0.9576(3) 0.4242(3)
C23 C 0.5776(9) 0.9787(3) 0.3513(4)
H13 H 0.630194 0.965403 0.303096
C24 C 0.5719(12) 0.9779(4) 0.500000
C27 C 0.8932(10) 0.8298(4) 0.7758(5)
H14 H 0.833767 0.801917 0.811591
C28 C 0.8007(12) 0.8534(5) 0.7072(5)
H15 H 0.677157 0.844677 0.700854
C29 C 0.8933(9) 0.8899(3) 0.6488(4)
C32 C 0.8013(9) 0.9148(3) 0.5718(4)
C33 C 0.6483(8) 0.9576(3) 0.5758(3)
C34 C 0.5776(9) 0.9787(3) 0.6487(4)
H18 H 0.630194 0.965403 0.696904
O15 O 0.6014(5) 0.7172(2) 0.0928(3)
O19 O 0.8190(7) 0.6483(3) 0.1208(3)
O22 O 0.7063(9) 0.8403(3) 0.000000
Sr4_2 Sr 0.89360(9) 0.72447(3) 1.000000
O12 O 0.6014(5) 0.7172(2) 0.9072(3)
O18 O 0.8190(7) 0.6483(3) 0.8792(3)
O22_2 O 0.7063(9) 0.8403(3) 1.000000
H25_2 H 0.719(7) 0.8768(12) 0.027(2)
C13_2 C 0.6688(8) 0.6732(3) 0.8644(4)
C14_2 C 0.5689(9) 0.6525(4) 0.7898(4)
C15_2 C 0.3932(10) 0.6702(4) 0.7758(5)
H8_2 H 0.333767 0.698083 0.811591
C16_2 C 0.3007(12) 0.6466(5) 0.7072(5)
H9_2 H 0.177157 0.655323 0.700854
C17_2 C 0.3933(9) 0.6101(3) 0.6488(4)
C18_2 C 0.5692(12) 0.5951(6) 0.6618(6)
H10_2 H 0.634161 0.573101 0.622038
C19_2 C 0.6568(14) 0.6117(5) 0.7334(6)
H11_2 H 0.773308 0.595849 0.743969
C20_2 C 0.3013(9) 0.5852(3) 0.5718(4)
C21_2 C 0.3760(14) 0.6061(5) 0.500000
H12_2 H 0.476105 0.634163 0.500001
C22_2 C 0.1483(8) 0.5424(3) 0.5758(3)
C23_2 C 0.0776(9) 0.5213(3) 0.6487(4)
H13_2 H 0.130194 0.534597 0.696904
C24_2 C 0.0719(12) 0.5221(4) 0.500000
C25_2 C 0.6688(8) 0.6732(3) 0.1356(4)
C26_2 C 0.5689(9) 0.6525(4) 0.2102(4)
C27_2 C 0.3932(10) 0.6702(4) 0.2242(5)
H14_2 H 0.333767 0.698083 0.188409
C28_2 C 0.3007(12) 0.6466(5) 0.2928(5)
H15_2 H 0.177157 0.655323 0.299146
C29_2 C 0.3933(9) 0.6101(3) 0.3512(4)
C30_2 C 0.5692(12) 0.5951(6) 0.3382(6)
H16_2 H 0.634161 0.573101 0.377962
C31_2 C 0.6568(14) 0.6117(5) 0.2666(6)
H17_2 H 0.773308 0.595849 0.256031
C32_2 C 0.3013(9) 0.5852(3) 0.4282(4)
C33_2 C 0.1483(8) 0.5424(3) 0.4242(3)
C34_2 C 0.0776(9) 0.5213(3) 0.3513(4)
H18_2 H 0.130194 0.534597 0.303096
H26_2 H 0.719(7) 0.8768(12) 0.973(2)
Sr3 Sr 0.10640(9) 0.27553(3) 0.000000
C3 C 0.1068(10) 0.1702(4) 0.2242(5)
H1 H 0.166233 0.198083 0.188409
C4 C 0.1993(12) 0.1466(5) 0.2928(5)
H2 H 0.322843 0.155323 0.299146
C5 C 0.1067(9) 0.1101(3) 0.3512(4)
C8 C 0.1987(9) 0.0852(3) 0.4282(4)
C9 C 0.1240(14) 0.1061(5) 0.500000
H5 H 0.023895 0.134163 0.499999
C10 C 0.3517(8) 0.0424(3) 0.4242(3)
C11 C 0.4224(9) 0.0213(3) 0.3513(4)
H6 H 0.369806 0.034597 0.303096
C12 C 0.4281(12) 0.0221(4) 0.500000
C37 C 0.1068(10) 0.1702(4) 0.7758(5)
H19 H 0.166233 0.198083 0.811591
C38 C 0.1993(12) 0.1466(5) 0.7072(5)
H20 H 0.322843 0.155323 0.700854
C39 C 0.1067(9) 0.1101(3) 0.6488(4)
C42 C 0.1987(9) 0.0852(3) 0.5718(4)
C43 C 0.3517(8) 0.0424(3) 0.5758(3)
C44 C 0.4224(9) 0.0213(3) 0.6487(4)
H23 H 0.369806 0.034597 0.696904
O16 O 0.3986(5) 0.2828(2) 0.0928(3)
O20 O 0.1810(7) 0.3517(3) 0.1208(3)
O21 O 0.2937(9) 0.1597(3) 0.000000
Sr3_2 Sr 0.10640(9) 0.27553(3) 1.000000
O11 O 0.3986(5) 0.2828(2) 0.9072(3)
O17 O 0.1810(7) 0.3517(3) 0.8792(3)
O21_2 O 0.2937(9) 0.1597(3) 1.000000
Sr6 Sr 0.60640(9) 0.22447(3) 0.000000
C1 C 0.8312(8) 0.1732(3) 0.1356(4)
C2 C 0.9311(9) 0.1525(4) 0.2102(4)
C6 C 0.9308(12) 0.0951(6) 0.3382(6)
H3 H 0.865839 0.073101 0.377962
C7 C 0.8432(14) 0.1117(5) 0.2666(6)
H4 H 0.726692 0.095849 0.256031
O1 O 0.8986(5) 0.2172(2) 0.0928(3)
O2 O 0.6810(7) 0.1483(3) 0.1208(3)
O3 O 0.7937(9) 0.3403(3) 0.000000
C35 C 0.8312(8) 0.1732(3) 0.8644(4)
C36 C 0.9311(9) 0.1525(4) 0.7898(4)
C40 C 0.9308(12) 0.0951(6) 0.6618(6)
H21 H 0.865839 0.073101 0.622038
C41 C 0.8432(14) 0.1117(5) 0.7334(6)
H22 H 0.726692 0.095849 0.743969
O8 O 0.8986(5) 0.2172(2) 0.9072(3)
O9 O 0.6810(7) 0.1483(3) 0.8792(3)
H24 H 0.781(7) 0.3768(12) 0.027(2)
Sr6_2 Sr 0.60640(9) 0.22447(3) 1.000000
H7 H 0.781(7) 0.3768(12) 0.973(2)
O3_2 O 0.7937(9) 0.3403(3) 1.000000
H7_2 H 0.281(7) 0.1232(12) 0.027(2)
C1_2 C 0.3312(8) 0.3268(3) 0.8644(4)
C2_2 C 0.4311(9) 0.3475(4) 0.7898(4)
C3_2 C 0.6068(10) 0.3298(4) 0.7758(5)
H1_2 H 0.666233 0.301917 0.811591
C4_2 C 0.6993(12) 0.3534(5) 0.7072(5)
H2_2 H 0.822843 0.344677 0.700854
C5_2 C 0.6067(9) 0.3899(3) 0.6488(4)
C6_2 C 0.4308(12) 0.4049(6) 0.6618(6)
H3_2 H 0.365839 0.426899 0.622038
C7_2 C 0.3432(14) 0.3883(5) 0.7334(6)
H4_2 H 0.226692 0.404151 0.743969
C8_2 C 0.6987(9) 0.4148(3) 0.5718(4)
C9_2 C 0.6240(14) 0.3939(5) 0.500000
H5_2 H 0.523895 0.365837 0.500001
C10_2 C 0.8517(8) 0.4576(3) 0.5758(3)
C11_2 C 0.9224(9) 0.4787(3) 0.6487(4)
H6_2 H 0.869806 0.465403 0.696904
C12_2 C 0.9281(12) 0.4779(4) 0.500000
C35_2 C 0.3312(8) 0.3268(3) 0.1356(4)
C36_2 C 0.4311(9) 0.3475(4) 0.2102(4)
C37_2 C 0.6068(10) 0.3298(4) 0.2242(5)
H19_2 H 0.666233 0.301917 0.188409
C38_2 C 0.6993(12) 0.3534(5) 0.2928(5)
H20_2 H 0.822843 0.344677 0.299146
C39_2 C 0.6067(9) 0.3899(3) 0.3512(4)
C40_2 C 0.4308(12) 0.4049(6) 0.3382(6)
H21_2 H 0.365839 0.426899 0.377962
C41_2 C 0.3432(14) 0.3883(5) 0.2666(6)
H22_2 H 0.226692 0.404151 0.256031
C42_2 C 0.6987(9) 0.4148(3) 0.4282(4)
C43_2 C 0.8517(8) 0.4576(3) 0.4242(3)
C44_2 C 0.9224(9) 0.4787(3) 0.3513(4)
H23_2 H 0.869806 0.465403 0.303096
H24_2 H 0.281(7) 0.1232(12) 0.973(2)
loop_
_geom_bond_atom_site_label_1
_geom_bond_atom_site_label_2
_geom_bond_site_symmetry_1
_geom_bond_site_symmetry_2
C13 C14 1_555 1_555
H10 C18 1_555 1_555
C19 C14 1_555 1_555
H11 C19 1_555 1_555
O4 C13 1_555 1_555
O5 C13 1_555 1_555
C25 C26 1_555 1_555
H16 C30 1_555 1_555
C31 C26 1_555 1_555
H17 C31 1_555 1_555
O6 C25 1_555 1_555
O7 C25 1_555 1_555
H26 O10 1_555 1_555
Sr8 O4 1_555 1_555
Sr8_2 O6 1_555 1_555
C18 C19 1_555 1_555
O5 Sr8 1_555 1_555
C30 C31 1_555 1_555
O7 Sr8_2 1_555 1_555
O10 Sr8 1_555 1_555
H25 O10_2 1_555 1_555
O10_2 Sr8_2 1_555 1_555
C15 H8 1_555 1_555
C16 C15 1_555 1_555
H9 C16 1_555 1_555
C17 C16 1_555 1_555
C20 C17 1_555 1_555
C21 C20 1_555 1_555
H12 C21 1_555 1_555
C22 C20 1_555 1_555
H13 C23 1_555 1_555
C27 H14 1_555 1_555
C28 C27 1_555 1_555
H15 C28 1_555 1_555
C29 C28 1_555 1_555
C32 C21 1_555 1_555
C33 C24 1_555 1_555
C34 C33 1_555 1_555
H18 C34 1_555 1_555
O15 Sr4 1_555 1_555
O19 Sr4 1_555 1_555
O22 Sr4 1_555 1_555
C22 C23 1_555 1_555
C22 C24 1_555 1_555
C29 C32 1_555 1_555
C32 C33 1_555 1_555
O12 Sr4_2 1_555 1_555
O18 Sr4_2 1_555 1_555
O22_2 Sr4_2 1_555 1_555
H25_2 O22 1_555 1_555
O22 Sr8 1_555 1_555
O15 Sr8 1_555 1_555
C13_2 C14_2 1_555 1_555
C14_2 C15_2 1_555 1_555
C15_2 H8_2 1_555 1_555
C16_2 C15_2 1_555 1_555
H9_2 C16_2 1_555 1_555
C17_2 C16_2 1_555 1_555
C18_2 C17_2 1_555 1_555
H10_2 C18_2 1_555 1_555
C19_2 C14_2 1_555 1_555
H11_2 C19_2 1_555 1_555
C20_2 C17_2 1_555 1_555
C21_2 C20_2 1_555 1_555
H12_2 C21_2 1_555 1_555
C22_2 C20_2 1_555 1_555
H13_2 C23_2 1_555 1_555
O12 C13_2 1_555 1_555
O18 C13_2 1_555 1_555
C25_2 C26_2 1_555 1_555
C26_2 C27_2 1_555 1_555
C27_2 H14_2 1_555 1_555
C28_2 C27_2 1_555 1_555
H15_2 C28_2 1_555 1_555
C29_2 C28_2 1_555 1_555
C30_2 C29_2 1_555 1_555
H16_2 C30_2 1_555 1_555
C31_2 C26_2 1_555 1_555
H17_2 C31_2 1_555 1_555
C32_2 C21_2 1_555 1_555
C33_2 C24_2 1_555 1_555
C34_2 C33_2 1_555 1_555
H18_2 C34_2 1_555 1_555
O15 C25_2 1_555 1_555
O19 C25_2 1_555 1_555
O22_2 Sr8_2 1_555 1_555
Sr8_2 O12 1_555 1_555
H26_2 O22_2 1_555 1_555
C18_2 C19_2 1_555 1_555
C22_2 C23_2 1_555 1_555
C22_2 C24_2 1_555 1_555
C29_2 C32_2 1_555 1_555
C30_2 C31_2 1_555 1_555
C32_2 C33_2 1_555 1_555
C3 H1 1_555 1_555
C4 C3 1_555 1_555
H2 C4 1_555 1_555
C5 C4 1_555 1_555
C8 C5 1_555 1_555
C9 C8 1_555 1_555
H5 C9 1_555 1_555
C10 C8 1_555 1_555
C11 C10 1_555 1_555
H6 C11 1_555 1_555
C12 C10 1_555 1_555
C37 H19 1_555 1_555
C38 C37 1_555 1_555
H20 C38 1_555 1_555
C39 C38 1_555 1_555
C42 C9 1_555 1_555
C43 C12 1_555 1_555
H23 C44 1_555 1_555
O16 Sr3 1_555 1_555
O20 Sr3 1_555 1_555
O21 Sr3 1_555 1_555
C39 C42 1_555 1_555
C42 C43 1_555 1_555
C43 C44 1_555 1_555
O11 Sr3_2 1_555 1_555
O17 Sr3_2 1_555 1_555
O21_2 Sr3_2 1_555 1_555
C1 C2 1_555 1_555
H3 C6 1_555 1_555
C7 C2 1_555 1_555
H4 C7 1_555 1_555
O1 C1 1_555 1_555
O2 C1 1_555 1_555
C35 C36 1_555 1_555
H21 C40 1_555 1_555
C41 C36 1_555 1_555
H22 C41 1_555 1_555
O8 C35 1_555 1_555
O9 C35 1_555 1_555
H24 O3 1_555 1_555
Sr6 O1 1_555 1_555
Sr6_2 O8 1_555 1_555
C6 C7 1_555 1_555
O2 Sr6 1_555 1_555
O3 Sr6 1_555 1_555
C40 C41 1_555 1_555
O9 Sr6_2 1_555 1_555
H7 O3_2 1_555 1_555
O3_2 Sr6_2 1_555 1_555
H7_2 O21 1_555 1_555
O21 Sr6 1_555 1_555
O16 Sr6 1_555 1_555
C1_2 C2_2 1_555 1_555
C2_2 C3_2 1_555 1_555
C3_2 H1_2 1_555 1_555
C4_2 C3_2 1_555 1_555
H2_2 C4_2 1_555 1_555
C5_2 C4_2 1_555 1_555
C6_2 C5_2 1_555 1_555
H3_2 C6_2 1_555 1_555
C7_2 C2_2 1_555 1_555
H4_2 C7_2 1_555 1_555
C8_2 C5_2 1_555 1_555
C9_2 C8_2 1_555 1_555
H5_2 C9_2 1_555 1_555
C10_2 C8_2 1_555 1_555
C11_2 C10_2 1_555 1_555
H6_2 C11_2 1_555 1_555
C12_2 C10_2 1_555 1_555
O11 C1_2 1_555 1_555
O17 C1_2 1_555 1_555
O21_2 Sr6_2 1_555 1_555
Sr6_2 O11 1_555 1_555
C35_2 C36_2 1_555 1_555
C36_2 C37_2 1_555 1_555
C37_2 H19_2 1_555 1_555
C38_2 C37_2 1_555 1_555
H20_2 C38_2 1_555 1_555
C39_2 C38_2 1_555 1_555
C40_2 C39_2 1_555 1_555
H21_2 C40_2 1_555 1_555
C41_2 C36_2 1_555 1_555
H22_2 C41_2 1_555 1_555
C42_2 C9_2 1_555 1_555
C43_2 C12_2 1_555 1_555
H23_2 C44_2 1_555 1_555
O16 C35_2 1_555 1_555
O20 C35_2 1_555 1_555
H24_2 O21_2 1_555 1_555
C6_2 C7_2 1_555 1_555
C39_2 C42_2 1_555 1_555
C40_2 C41_2 1_555 1_555
C42_2 C43_2 1_555 1_555
C43_2 C44_2 1_555 1_555

#END
