
###############################################################################
#
# This file contains modified crystal structure data generated from the
# MOF subset of the Cambridge Structural Database (CSD) v543 
# hosted by the Cambridge Crystallographic Data Centre (CCDC).
#
# This work is licensed under the Creative Commons
# Attribution-NonCommercial-ShareAlike 4.0 International License.
# To view a copy of this license, visit
# http://creativecommons.org/licenses/by-nc-sa/4.0/
# or send a letter to
# Creative Commons, PO Box 1866, Mountain View, CA 94042, USA.
#
# CIF created using the CSD Python API on 29 September 2022
# The structure has been converted into the P1 space group
# The structure has a 3D framework
# The original CSD entry OZEMIS is in the monoclinic crystal system
# The framework has been calculated to contain at least 10.0% void space
# The void calculation uses a probe of radius 1.32A, grid spacing 0.4
#
###############################################################################

data_OZEMIS
_chemical_formula_moiety         '(C40 H22 Al14 N16 O38)n'
_symmetry_cell_setting           triclinic
_symmetry_space_group_name_H-M   'P 1'
_symmetry_Int_Tables_number      1
_space_group_name_Hall           'P 1'
loop_
_symmetry_equiv_pos_site_id
_symmetry_equiv_pos_as_xyz
1 x,y,z
_cell_length_a                   12.300
_cell_length_b                   15.400
_cell_length_c                   14.300
_cell_angle_alpha                90
_cell_angle_beta                 101.50
_cell_angle_gamma                90
_cell_volume                     2654.33
loop_
_atom_site_label
_atom_site_type_symbol
_atom_site_fract_x
_atom_site_fract_y
_atom_site_fract_z
Al7 Al 0.500000 0.500000 0.000000
Al12 Al 0.2658(6) 0.4347(4) 0.0654(6)
Al14 Al -0.000000 0.500000 0.000000
Al1 Al 0.500000 0.000000 0.500000
Al2 Al 0.2658(6) 0.0653(4) 0.5654(6)
Al3 Al -0.000000 0.000000 0.500000
O1 O 0.3479(7) 0.0312(6) 0.4753(8)
H1 H 0.310517 0.029309 0.412052
O13 O 0.0125(9) 0.0586(8) 0.6213(10)
O14 O 0.1865(10) 0.1083(8) 0.6580(10)
O15 O 0.1922(9) 0.3469(6) 0.9749(9)
O16 O 0.0100(10) 0.3868(7) 0.9431(10)
C11 C 0.0843(13) 0.1052(8) 0.6754(12)
C12 C 0.0638(7) 0.2698(6) 0.8565(7)
C13 C 0.1325(5) 0.2158(6) 0.8124(7)
H9 H 0.209372 0.211830 0.829295
C14 C 0.0633(7) 0.1690(6) 0.7380(7)
C15 C 0.0900(12) 0.3407(8) 0.9283(13)
O17 O 0.5365(8) 0.1022(7) 0.5850(10)
O18 O 0.3781(9) 0.1477(6) 0.6203(9)
O19 O 0.5220(10) 0.4289(6) 0.8920(8)
O20 O 0.6685(9) 0.4743(6) 0.8408(9)
C16 C 0.4763(12) 0.1542(8) 0.6259(13)
C17 C 0.5862(7) 0.3426(6) 0.7825(8)
C18 C 0.4966(6) 0.2881(6) 0.7404(8)
H11 H 0.423872 0.292353 0.749130
C19 C 0.5376(7) 0.2260(6) 0.6827(9)
N7 N 0.6525(7) 0.2421(7) 0.6891(10)
N8 N 0.6826(6) 0.3141(7) 0.7508(10)
H12 H 0.747697 0.336602 0.766226
C20 C 0.5968(12) 0.4199(8) 0.8414(12)
Al7_2 Al 0.500000 0.500000 1.000000
Al9 Al 0.7342(6) 0.5653(4) 0.9346(6)
Al14_2 Al 0.000000 0.500000 1.000000
O23 O 0.5220(10) 0.0711(6) 0.3920(8)
O27 O 0.1922(9) 0.1531(6) 0.4749(9)
O29 O 0.0100(10) 0.1132(7) 0.4431(10)
Al1_2 Al 0.500000 1.000000 0.500000
Al3_2 Al -0.000000 1.000000 0.500000
O2 O 0.1523(9) 0.9854(7) 0.5145(9)
H2 H 0.175711 0.932415 0.494394
O3 O 0.4635(8) 0.8978(7) 0.4150(10)
O4 O 0.6219(9) 0.8523(6) 0.3797(9)
O5 O 0.4780(10) 0.5711(6) 0.1080(8)
O6 O 0.3315(9) 0.5257(6) 0.1592(9)
C1 C 0.5237(12) 0.8458(8) 0.3741(13)
C2 C 0.4138(7) 0.6574(6) 0.2175(8)
C3 C 0.5034(6) 0.7119(6) 0.2596(8)
H3 H 0.576128 0.707647 0.250870
C4 C 0.4624(7) 0.7740(6) 0.3173(9)
N1 N 0.3475(7) 0.7579(7) 0.3109(10)
N2 N 0.3174(6) 0.6859(7) 0.2492(10)
H4 H 0.252303 0.663398 0.233774
C5 C 0.4032(12) 0.5801(8) 0.1586(12)
N3 N 0.0483(6) 0.8060(7) 0.2639(7)
H6 H 0.105876 0.825156 0.302580
N4 N 0.0479(6) 0.7436(7) 0.1906(8)
Al10 Al 0.7342(6) 0.9347(4) 0.4346(6)
O21 O 0.6521(7) 0.9688(6) 0.5247(8)
O24 O 0.4780(10) 0.9289(6) 0.6080(8)
O26 O 0.3315(9) 0.9743(6) 0.6592(9)
Al14_3 Al 1.000000 0.500000 0.000000
Al3_3 Al 1.000000 0.000000 0.500000
O12 O 0.8477(9) 0.0146(7) 0.4855(9)
H8 H 0.824289 0.067585 0.505606
N5 N 0.9517(6) 0.1940(7) 0.7361(7)
H10 H 0.894124 0.174844 0.697420
N6 N 0.9521(6) 0.2564(7) 0.8094(8)
Al14_4 Al 1.000000 0.500000 1.000000
O25 O 0.6685(9) 0.0257(6) 0.3408(9)
Al3_4 Al 1.000000 1.000000 0.500000
O7 O 0.9875(9) 0.9414(8) 0.3787(10)
O8 O 0.8135(10) 0.8917(8) 0.3420(10)
O9 O 0.8078(9) 0.6531(6) 0.0251(9)
O10 O 0.9900(10) 0.6132(7) 0.0569(10)
C6 C 0.9157(13) 0.8948(8) 0.3246(12)
C7 C 0.9362(7) 0.7302(6) 0.1435(7)
C8 C 0.8675(5) 0.7842(6) 0.1876(7)
H5 H 0.790628 0.788170 0.170705
C9 C 0.9367(7) 0.8310(6) 0.2620(7)
C10 C 0.9100(12) 0.6593(8) 0.0717(13)
H7 H 0.689483 0.970691 0.587948
O28 O 0.8078(9) 0.8469(6) 0.5251(9)
O30 O 0.9900(10) 0.8868(7) 0.5569(10)
O7_2 O 0.0125(9) 0.4414(8) 0.1213(10)
O8_2 O 0.1865(10) 0.3917(8) 0.1580(10)
C6_2 C 0.0843(13) 0.3948(8) 0.1754(12)
C7_2 C 0.0638(7) 0.2302(6) 0.3565(7)
C8_2 C 0.1325(5) 0.2842(6) 0.3124(7)
H5_2 H 0.209372 0.288170 0.329295
C9_2 C 0.0633(7) 0.3310(6) 0.2380(7)
C10_2 C 0.0900(12) 0.1593(8) 0.4283(13)
O12_2 O 0.1523(9) 0.5146(7) 0.0145(9)
O22 O 0.3781(9) 0.3523(6) 0.1203(9)
O11 O 0.3479(7) 0.4688(6) 0.9753(8)
H7_2 H 0.310517 0.470691 0.912052
H8_2 H 0.175711 0.567585 0.994394
N5_2 N 0.0483(6) 0.6940(7) 0.7639(7)
H10_2 H 0.105876 0.674844 0.802580
N6_2 N 0.0479(6) 0.7564(7) 0.6906(8)
O1_2 O 0.6521(7) 0.5312(6) 0.0247(8)
H1_2 H 0.689483 0.529309 0.087948
H2_2 H 0.824289 0.432415 0.005606
O3_2 O 0.5365(8) 0.3978(7) 0.0850(10)
C1_2 C 0.4763(12) 0.3458(8) 0.1259(13)
C2_2 C 0.5862(7) 0.1574(6) 0.2825(8)
C3_2 C 0.4966(6) 0.2119(6) 0.2404(8)
H3_2 H 0.423872 0.207647 0.249130
C4_2 C 0.5376(7) 0.2740(6) 0.1827(9)
N1_2 N 0.6525(7) 0.2579(7) 0.1891(10)
N2_2 N 0.6826(6) 0.1859(7) 0.2508(10)
H4_2 H 0.747697 0.163398 0.266226
C5_2 C 0.5968(12) 0.0801(8) 0.3414(12)
N3_2 N 0.9517(6) 0.3060(7) 0.2361(7)
H6_2 H 0.894124 0.325156 0.197420
N4_2 N 0.9521(6) 0.2436(7) 0.3094(8)
O2_2 O 0.8477(9) 0.4854(7) 0.9855(9)
O13_2 O 0.9875(9) 0.5586(8) 0.8787(10)
O14_2 O 0.8135(10) 0.6083(8) 0.8420(10)
C11_2 C 0.9157(13) 0.6052(8) 0.8246(12)
C12_2 C 0.9362(7) 0.7698(6) 0.6435(7)
C13_2 C 0.8675(5) 0.7158(6) 0.6876(7)
H9_2 H 0.790628 0.711830 0.670705
C14_2 C 0.9367(7) 0.6690(6) 0.7620(7)
C15_2 C 0.9100(12) 0.8407(8) 0.5717(13)
O17_2 O 0.4635(8) 0.6022(7) 0.9150(10)
O18_2 O 0.6219(9) 0.6477(6) 0.8797(9)
C16_2 C 0.5237(12) 0.6542(8) 0.8741(13)
C17_2 C 0.4138(7) 0.8426(6) 0.7175(8)
C18_2 C 0.5034(6) 0.7881(6) 0.7596(8)
H11_2 H 0.576128 0.792353 0.750870
C19_2 C 0.4624(7) 0.7260(6) 0.8173(9)
N7_2 N 0.3475(7) 0.7421(7) 0.8109(10)
N8_2 N 0.3174(6) 0.8141(7) 0.7492(10)
H12_2 H 0.252303 0.836602 0.733774
C20_2 C 0.4032(12) 0.9199(8) 0.6586(12)
loop_
_geom_bond_atom_site_label_1
_geom_bond_atom_site_label_2
_geom_bond_site_symmetry_1
_geom_bond_site_symmetry_2
Al1 O1 1_555 1_555
Al2 O1 1_555 1_555
O1 H1 1_555 1_555
O13 Al3 1_555 1_555
O14 Al2 1_555 1_555
O15 C15 1_555 1_555
O16 C15 1_555 1_555
C11 O13 1_555 1_555
C12 C13 1_555 1_555
C13 H9 1_555 1_555
C14 C11 1_555 1_555
C15 C12 1_555 1_555
O17 Al1 1_555 1_555
O18 Al2 1_555 1_555
O19 C20 1_555 1_555
O20 C20 1_555 1_555
C16 O17 1_555 1_555
C17 C18 1_555 1_555
C18 H11 1_555 1_555
C19 C16 1_555 1_555
N7 C19 1_555 1_555
N8 C17 1_555 1_555
H12 N8 1_555 1_555
C20 C17 1_555 1_555
Al7_2 O19 1_555 1_555
Al9 O20 1_555 1_555
Al14_2 O16 1_555 1_555
O23 Al1 1_555 1_555
O27 Al2 1_555 1_555
O29 Al3 1_555 1_555
O14 C11 1_555 1_555
C13 C14 1_555 1_555
O18 C16 1_555 1_555
C18 C19 1_555 1_555
N7 N8 1_555 1_555
Al3_2 O2 1_555 1_555
H2 O2 1_555 1_555
O3 Al1_2 1_555 1_555
O4 C1 1_555 1_555
O5 C5 1_555 1_555
O6 C5 1_555 1_555
C1 O3 1_555 1_555
C2 C3 1_555 1_555
C3 H3 1_555 1_555
C4 C1 1_555 1_555
N1 C4 1_555 1_555
N2 C2 1_555 1_555
H4 N2 1_555 1_555
C5 C2 1_555 1_555
H6 N3 1_555 1_555
Al7 O5 1_555 1_555
Al10 O4 1_555 1_555
Al12 O6 1_555 1_555
O21 Al1_2 1_555 1_555
O24 Al1_2 1_555 1_555
C3 C4 1_555 1_555
N1 N2 1_555 1_555
N3 N4 1_555 1_555
Al10 O21 1_555 1_555
O12 Al3_3 1_555 1_555
H8 O12 1_555 1_555
H10 N5 1_555 1_555
N5 N6 1_555 1_555
O7 Al3_4 1_555 1_555
O8 C6 1_555 1_555
O9 C10 1_555 1_555
O10 C10 1_555 1_555
C6 O7 1_555 1_555
C7 C8 1_555 1_555
C8 H5 1_555 1_555
C9 C6 1_555 1_555
C10 C7 1_555 1_555
Al10 O8 1_555 1_555
H7 O21 1_555 1_555
Al14_3 O10 1_555 1_555
O28 Al10 1_555 1_555
O30 Al3_4 1_555 1_555
C8 C9 1_555 1_555
O7_2 Al14 1_555 1_555
O8_2 C6_2 1_555 1_555
O27 C10_2 1_555 1_555
O29 C10_2 1_555 1_555
C6_2 O7_2 1_555 1_555
C7_2 C8_2 1_555 1_555
C8_2 H5_2 1_555 1_555
C9_2 C6_2 1_555 1_555
C10_2 C7_2 1_555 1_555
Al12 O8_2 1_555 1_555
O12_2 Al14 1_555 1_555
O22 Al12 1_555 1_555
C8_2 C9_2 1_555 1_555
Al12 O12_2 1_555 1_555
H7_2 O11 1_555 1_555
H10_2 N5_2 1_555 1_555
Al7_2 O11 1_555 1_555
N5_2 N6_2 1_555 1_555
Al7 O1_2 1_555 1_555
O1_2 H1_2 1_555 1_555
O3_2 Al7 1_555 1_555
O22 C1_2 1_555 1_555
O23 C5_2 1_555 1_555
O25 C5_2 1_555 1_555
C1_2 O3_2 1_555 1_555
C2_2 C3_2 1_555 1_555
C3_2 H3_2 1_555 1_555
C4_2 C1_2 1_555 1_555
N1_2 C4_2 1_555 1_555
N2_2 C2_2 1_555 1_555
H4_2 N2_2 1_555 1_555
C5_2 C2_2 1_555 1_555
H6_2 N3_2 1_555 1_555
C3_2 C4_2 1_555 1_555
N1_2 N2_2 1_555 1_555
N3_2 N4_2 1_555 1_555
Al14_4 O2_2 1_555 1_555
O2_2 Al9 1_555 1_555
O13_2 Al14_4 1_555 1_555
O14_2 Al9 1_555 1_555
O28 C15_2 1_555 1_555
O30 C15_2 1_555 1_555
C11_2 O13_2 1_555 1_555
C12_2 C13_2 1_555 1_555
C13_2 H9_2 1_555 1_555
C14_2 C11_2 1_555 1_555
C15_2 C12_2 1_555 1_555
O17_2 Al7_2 1_555 1_555
O18_2 Al9 1_555 1_555
O24 C20_2 1_555 1_555
O26 C20_2 1_555 1_555
C16_2 O17_2 1_555 1_555
C17_2 C18_2 1_555 1_555
C18_2 H11_2 1_555 1_555
C19_2 C16_2 1_555 1_555
N7_2 C19_2 1_555 1_555
N8_2 C17_2 1_555 1_555
H12_2 N8_2 1_555 1_555
C20_2 C17_2 1_555 1_555
O14_2 C11_2 1_555 1_555
C13_2 C14_2 1_555 1_555
O18_2 C16_2 1_555 1_555
C18_2 C19_2 1_555 1_555
N7_2 N8_2 1_555 1_555

#END
