
###############################################################################
#
# This file contains modified crystal structure data generated from the
# MOF subset of the Cambridge Structural Database (CSD) v543 
# hosted by the Cambridge Crystallographic Data Centre (CCDC).
#
# This work is licensed under the Creative Commons
# Attribution-NonCommercial-ShareAlike 4.0 International License.
# To view a copy of this license, visit
# http://creativecommons.org/licenses/by-nc-sa/4.0/
# or send a letter to
# Creative Commons, PO Box 1866, Mountain View, CA 94042, USA.
#
# CIF created using the CSD Python API on 29 September 2022
# The structure has been converted into the P1 space group
# The structure has a 3D framework
# The original CSD entry OZETOF is in the monoclinic crystal system
# The framework has been calculated to contain at least 10.0% void space
# The void calculation uses a probe of radius 1.32A, grid spacing 0.4
# H atom positions have been added when not included in the experimental data
#
###############################################################################

data_OZETOF
_chemical_formula_moiety         '(C60 H72 N24 Nd8 O70)n'
_symmetry_cell_setting           triclinic
_symmetry_space_group_name_H-M   'P 1'
_symmetry_Int_Tables_number      1
_space_group_name_Hall           'P 1'
loop_
_symmetry_equiv_pos_site_id
_symmetry_equiv_pos_as_xyz
1 x,y,z
_cell_length_a                   10.2102(3)
_cell_length_b                   20.8511(5)
_cell_length_c                   17.2390(5)
_cell_angle_alpha                90
_cell_angle_beta                 104.185(3)
_cell_angle_gamma                90
_cell_volume                     3558.18
loop_
_atom_site_label
_atom_site_type_symbol
_atom_site_fract_x
_atom_site_fract_y
_atom_site_fract_z
H2 H 0.0260 0.0048 0.8218
C13 C 0.0090(10) 0.8667(4) 0.7891(6)
O13 O 0.1331(7) 0.8771(3) 0.8151(4)
C1 C 0.0219(11) 0.3423(5) 0.7822(7)
C2 C 0.1312(12) 0.3123(6) 0.4431(6)
C3 C 0.3302(11) 0.1770(5) 0.5475(6)
C4 C 0.3910(11) 0.1120(5) 0.5690(6)
C5 C 0.2446(12) 0.1994(5) 0.4772(6)
H1 H 0.2130 0.1769 0.4297
C6 C 0.8135(10) 0.0151(5) 0.7838(7)
C7 C 0.2163(11) 0.2621(5) 0.4926(6)
C8 C 0.2805(10) 0.1290(5) 0.8118(6)
C9 C 0.7784(10) 0.0824(5) 0.7924(7)
C10 C 0.1159(10) 0.2872(5) 0.7868(6)
C11 C 0.2299(10) 0.1944(5) 0.7969(6)
C15 C 0.1107(11) 0.2237(5) 0.8100(6)
H3 H 0.0436 0.2043 0.8300
N1 N 0.2289(8) 0.2916(4) 0.7587(5)
H4 H 0.2522 0.3262 0.7384
N2 N 0.3009(8) 0.2371(4) 0.7654(5)
N3 N 0.3544(9) 0.2226(4) 0.6035(5)
N4 N 0.2838(9) 0.2739(4) 0.5686(5)
H5 H 0.2822 0.3101 0.5922
O1 O 0.3863(9) 0.0717(4) 0.5155(5)
O3 O 0.0587(8) 0.3940(3) 0.7593(5)
O4 O 0.0504(8) 0.2937(4) 0.3792(5)
O5 O 0.5746(9) 0.0134(5) 0.8805(5)
H7 H 0.5425 0.0449 0.9020
O6 O 0.2266(9) 0.0932(4) 0.8518(5)
O9 O 0.2406(10) 0.0090(5) 0.6477(6)
H10 H 0.1827 0.0375 0.6631
H13 H 0.4670 0.0020 0.5721
O11 O 0.3749(8) 0.1135(3) 0.7805(4)
O12 O 0.4505(8) 0.1048(3) 0.6428(4)
O14 O 0.6485(7) 0.0962(3) 0.7707(4)
O15 O 0.8670(9) 0.1201(4) 0.8232(6)
O16 O 0.1402(10) 0.3671(4) 0.4699(6)
Nd1 Nd 0.52573(5) 0.19771(2) 0.73937(3)
Nd2 Nd 0.46800(5) 0.01035(2) 0.73879(3)
O17 O 0.6489(9) 0.2067(4) 0.6336(5)
H14 H 0.7233 0.2342 0.6326
H15 H 0.6328 0.1834 0.5844
O18 O 0.7571(8) 0.2290(4) 0.8036(5)
O19 O 0.5427(8) 0.3123(4) 0.7317(5)
O21 O 0.5504(8) 0.2063(4) 0.8792(5)
Nd4 Nd 0.02573(5) 0.30229(2) 0.23937(3)
Nd5 Nd 0.03200(5) 0.51035(2) 0.76121(3)
H17 H 0.776198 0.219459 0.86173
H18 H 0.820744 0.204625 0.779473
C12 C 0.9423(11) 0.9858(5) 0.8014(7)
C14 C 0.9149(10) 0.9228(4) 0.7814(7)
N5 N 0.7176(9) 0.9718(4) 0.7583(5)
O2 O 0.9573(8) 0.8123(4) 0.7683(5)
H6 H 0.5518 0.9802 0.9035
O8 O 0.3079(9) 0.9800(4) 0.8170(6)
H8 H 0.3475 0.9561 0.8585
H9 H 0.2448 0.9542 0.7893
H11 H 0.1954 0.9706 0.6487
O10 O 0.4943(10) 0.9728(4) 0.6073(5)
H12 H 0.5783 0.9685 0.6088
N6 N 0.7771(9) 0.9162(4) 0.7582(6)
H16 H 0.7355 0.8805 0.7453
O20 O 0.4413(8) 0.8940(3) 0.7407(5)
Nd3 Nd 0.97427(5) 0.69771(2) 0.76063(3)
C2_2 C 0.3688(12) 0.8123(6) 0.0569(6)
C5_2 C 0.2554(12) 0.6994(5) 0.0228(6)
H1_2 H 0.2870 0.6769 0.0703
C7_2 C 0.2837(11) 0.7621(5) 0.0074(6)
O4_2 O 0.4496(8) 0.7937(4) 0.1208(5)
O16_2 O 0.3598(10) 0.8671(4) 0.0301(6)
Nd4_2 Nd 0.47427(5) 0.80229(2) 0.26063(3)
C1_2 C 0.4781(11) 0.8423(5) 0.7178(7)
C3_2 C 0.1698(11) 0.6770(5) 0.9525(6)
C4_2 C 0.1090(11) 0.6120(5) 0.9310(6)
C8_2 C 0.2195(10) 0.6290(5) 0.6882(6)
C10_2 C 0.3841(10) 0.7872(5) 0.7132(6)
C11_2 C 0.2701(10) 0.6944(5) 0.7031(6)
C15_2 C 0.3893(11) 0.7237(5) 0.6900(6)
H3_2 H 0.4564 0.7043 0.6700
N1_2 N 0.2711(8) 0.7916(4) 0.7413(5)
H4_2 H 0.2478 0.8262 0.7616
N2_2 N 0.1991(8) 0.7371(4) 0.7346(5)
N3_2 N 0.1456(9) 0.7226(4) 0.8965(5)
N4_2 N 0.2162(9) 0.7739(4) 0.9314(5)
H5_2 H 0.2178 0.8101 0.9078
O1_2 O 0.1137(9) 0.5717(4) 0.9845(5)
O6_2 O 0.2734(9) 0.5932(4) 0.6482(5)
O7 O 0.5837(8) 0.8320(4) 0.6952(6)
O8_2 O 0.1921(9) 0.4800(4) 0.6830(6)
H8_2 H 0.1525 0.4561 0.6415
H9_2 H 0.2552 0.4542 0.7107
O9_2 O 0.2594(10) 0.5090(5) 0.8523(6)
H10_2 H 0.3173 0.5375 0.8369
H11_2 H 0.3046 0.4706 0.8513
O10_2 O 0.0057(10) 0.4728(4) 0.8927(5)
H13_2 H 0.0330 0.5020 0.9279
O11_2 O 0.1251(8) 0.6135(3) 0.7195(4)
O12_2 O 0.0495(8) 0.6048(3) 0.8572(4)
C6_2 C 0.6865(10) 0.5151(5) 0.7162(7)
C9_2 C 0.7216(10) 0.5824(5) 0.7076(7)
C12_2 C 0.5577(11) 0.4858(5) 0.6986(7)
H2_2 H 0.4740 0.5048 0.6782
C13_2 C 0.4910(10) 0.3667(4) 0.7109(6)
C14_2 C 0.5851(10) 0.4228(4) 0.7186(7)
N5_2 N 0.7824(9) 0.4718(4) 0.7417(5)
O5_2 O 0.9254(9) 0.5134(5) 0.6195(5)
H6_2 H 0.9482 0.4802 0.5965
H7_2 H 0.9575 0.5449 0.5980
H12_2 H 0.9217 0.4685 0.8912
O13_2 O 0.3669(7) 0.3771(3) 0.6849(4)
O14_2 O 0.8515(7) 0.5962(3) 0.7293(4)
O15_2 O 0.6330(9) 0.6201(4) 0.6768(6)
O17_2 O 0.8511(9) 0.7067(4) 0.8664(5)
H14_2 H 0.7767 0.7342 0.8674
H15_2 H 0.8672 0.6834 0.9156
N6_2 N 0.7229(9) 0.4162(4) 0.7418(6)
H16_2 H 0.7645 0.3805 0.7547
O18_2 O 0.7429(8) 0.7290(4) 0.6964(5)
O21_2 O 0.9496(8) 0.7063(4) 0.6208(5)
H17_2 H 0.723802 0.719459 0.63827
H18_2 H 0.679256 0.704625 0.720527
C12_3 C 0.0577(11) 0.0142(5) 0.1986(7)
C14_3 C 0.0851(10) 0.0772(4) 0.2186(7)
N5_3 N 0.2824(9) 0.0282(4) 0.2417(5)
O2_2 O 0.0427(8) 0.1877(4) 0.2317(5)
H6_3 H 0.4482 0.0198 0.0965
O8_3 O 0.6921(9) 0.0200(4) 0.1830(6)
H8_3 H 0.6525 0.0439 0.1415
H9_3 H 0.7552 0.0458 0.2107
H11_3 H 0.8046 0.0294 0.3513
O10_3 O 0.5057(10) 0.0272(4) 0.3927(5)
H12_3 H 0.4217 0.0315 0.3912
N6_3 N 0.2229(9) 0.0838(4) 0.2418(6)
H16_3 H 0.2645 0.1195 0.2547
O20_2 O 0.5587(8) 0.1060(3) 0.2593(5)
C1_3 C 0.9781(11) 0.6577(5) 0.2178(7)
C2_3 C 0.8688(12) 0.6877(6) 0.5569(6)
C3_3 C 0.6698(11) 0.8230(5) 0.4525(6)
C4_3 C 0.6090(11) 0.8880(5) 0.4310(6)
C5_3 C 0.7554(12) 0.8006(5) 0.5228(6)
H1_3 H 0.7870 0.8231 0.5703
C6_3 C 0.1865(10) 0.9849(5) 0.2162(7)
C7_3 C 0.7837(11) 0.7379(5) 0.5074(6)
C8_3 C 0.7195(10) 0.8710(5) 0.1882(6)
C9_3 C 0.2216(10) 0.9176(5) 0.2076(7)
C10_3 C 0.8841(10) 0.7128(5) 0.2132(6)
C11_3 C 0.7701(10) 0.8056(5) 0.2031(6)
C15_3 C 0.8893(11) 0.7763(5) 0.1900(6)
H3_3 H 0.9564 0.7957 0.1700
N1_3 N 0.7711(8) 0.7084(4) 0.2413(5)
H4_3 H 0.7478 0.6738 0.2616
N2_3 N 0.6991(8) 0.7629(4) 0.2346(5)
N3_3 N 0.6456(9) 0.7774(4) 0.3965(5)
N4_3 N 0.7162(9) 0.7261(4) 0.4314(5)
H5_3 H 0.7178 0.6899 0.4078
O1_3 O 0.6137(9) 0.9283(4) 0.4845(5)
O3_2 O 0.9413(8) 0.6060(3) 0.2407(5)
O5_3 O 0.4254(9) 0.9866(5) 0.1195(5)
H7_3 H 0.4575 0.9551 0.0980
O6_3 O 0.7734(9) 0.9068(4) 0.1482(5)
O9_3 O 0.7594(10) 0.9910(5) 0.3523(6)
H10_3 H 0.8173 0.9625 0.3369
H13_3 H 0.5330 0.9980 0.4279
O11_3 O 0.6251(8) 0.8865(3) 0.2195(4)
O12_3 O 0.5495(8) 0.8952(3) 0.3572(4)
O14_3 O 0.3515(7) 0.9038(3) 0.2293(4)
O15_3 O 0.1330(9) 0.8799(4) 0.1768(6)
O16_3 O 0.8598(10) 0.6329(4) 0.5301(6)
Nd2_2 Nd 0.53200(5) 0.98965(2) 0.26121(3)
O17_3 O 0.3511(9) 0.7933(4) 0.3664(5)
H14_3 H 0.2767 0.7658 0.3674
H15_3 H 0.3672 0.8166 0.4156
O18_3 O 0.2429(8) 0.7710(4) 0.1964(5)
O19_2 O 0.4573(8) 0.6877(4) 0.2683(5)
Nd5_2 Nd 0.96800(5) 0.48965(2) 0.23879(3)
H17_3 H 0.223802 0.780541 0.13827
H18_3 H 0.179256 0.795375 0.220527
C6_4 C 0.3135(10) 0.4849(5) 0.2838(7)
C9_4 C 0.2784(10) 0.4176(5) 0.2924(7)
C12_4 C 0.4423(11) 0.5142(5) 0.3014(7)
H2_3 H 0.5260 0.4952 0.3218
C13_3 C 0.5090(10) 0.6333(4) 0.2891(6)
C14_4 C 0.4149(10) 0.5772(4) 0.2814(7)
N5_4 N 0.2176(9) 0.5282(4) 0.2583(5)
O5_4 O 0.0746(9) 0.4866(5) 0.3805(5)
H6_4 H 0.0518 0.5198 0.4035
H7_4 H 0.0425 0.4551 0.4020
H12_4 H 0.0783 0.5315 0.1088
O13_3 O 0.6331(7) 0.6229(3) 0.3151(4)
O14_4 O 0.1485(7) 0.4038(3) 0.2707(4)
O15_4 O 0.3670(9) 0.3799(4) 0.3232(6)
O17_4 O 0.1489(9) 0.2933(4) 0.1336(5)
H14_4 H 0.2233 0.2658 0.1326
H15_4 H 0.1328 0.3166 0.0844
N6_4 N 0.2771(9) 0.5838(4) 0.2582(6)
H16_4 H 0.2355 0.6195 0.2453
O18_4 O 0.2571(8) 0.2710(4) 0.3036(5)
H17_4 H 0.276198 0.280541 0.36173
H18_4 H 0.320744 0.295375 0.279473
C1_4 C 0.5219(11) 0.1577(5) 0.2822(7)
C3_4 C 0.8302(11) 0.3230(5) 0.0475(6)
C4_4 C 0.8910(11) 0.3880(5) 0.0690(6)
C8_4 C 0.7805(10) 0.3710(5) 0.3118(6)
C10_4 C 0.6159(10) 0.2128(5) 0.2868(6)
C11_4 C 0.7299(10) 0.3056(5) 0.2969(6)
C15_4 C 0.6107(11) 0.2763(5) 0.3100(6)
H3_4 H 0.5436 0.2957 0.3300
N1_4 N 0.7289(8) 0.2084(4) 0.2587(5)
H4_4 H 0.7522 0.1738 0.2384
N2_4 N 0.8009(8) 0.2629(4) 0.2654(5)
N3_4 N 0.8544(9) 0.2774(4) 0.1035(5)
N4_4 N 0.7838(9) 0.2261(4) 0.0686(5)
H5_4 H 0.7822 0.1899 0.0922
O1_4 O 0.8863(9) 0.4283(4) 0.0155(5)
O6_4 O 0.7266(9) 0.4068(4) 0.3518(5)
O7_2 O 0.4163(8) 0.1680(4) 0.3048(6)
O8_4 O 0.8079(9) 0.5200(4) 0.3170(6)
H8_4 H 0.8475 0.5439 0.3585
H9_4 H 0.7448 0.5458 0.2893
O9_4 O 0.7406(10) 0.4910(5) 0.1477(6)
H10_4 H 0.6827 0.4625 0.1631
H11_4 H 0.6954 0.5294 0.1487
O10_4 O 0.9943(10) 0.5272(4) 0.1073(5)
H13_4 H 0.9670 0.4980 0.0721
O11_4 O 0.8749(8) 0.3865(3) 0.2805(4)
O12_4 O 0.9505(8) 0.3952(3) 0.1428(4)
C2_4 C 0.6312(12) 0.1877(6) 0.9431(6)
C5_4 C 0.7446(12) 0.3006(5) 0.9772(6)
H1_4 H 0.7130 0.3231 0.9297
C7_4 C 0.7163(11) 0.2379(5) 0.9926(6)
O16_4 O 0.6402(10) 0.1329(4) 0.9699(6)
O7_3 O 0.9163(8) 0.3320(4) 0.8048(6)
O7_4 O 0.0837(8) 0.6680(4) 0.1952(6)
C13_4 C 0.9910(10) 0.1333(4) 0.2109(6)
O13_4 O 0.8669(7) 0.1229(3) 0.1849(4)
H2_4 H 0.9740 0.9952 0.1782
loop_
_geom_bond_atom_site_label_1
_geom_bond_atom_site_label_2
_geom_bond_site_symmetry_1
_geom_bond_site_symmetry_2
O13 C13 1_555 1_555
C1 C10 1_555 1_555
C2 C7 1_555 1_555
C3 C4 1_555 1_555
C4 O1 1_555 1_555
C5 C3 1_555 1_555
H1 C5 1_555 1_555
C6 C9 1_555 1_555
C7 C5 1_555 1_555
C8 C11 1_555 1_555
C9 O14 1_555 1_555
C10 C15 1_555 1_555
C11 C15 1_555 1_555
C15 H3 1_555 1_555
N1 C10 1_555 1_555
H4 N1 1_555 1_555
N2 C11 1_555 1_555
N3 C3 1_555 1_555
N4 C7 1_555 1_555
H5 N4 1_555 1_555
O3 C1 1_555 1_555
O4 C2 1_555 1_555
H7 O5 1_555 1_555
O6 C8 1_555 1_555
O9 H10 1_555 1_555
O11 C8 1_555 1_555
O12 C4 1_555 1_555
O14 Nd1 1_555 1_555
O15 C9 1_555 1_555
O16 C2 1_555 1_555
Nd1 N2 1_555 1_555
O17 Nd1 1_555 1_555
H14 O17 1_555 1_555
H15 O17 1_555 1_555
O18 Nd1 1_555 1_555
O19 Nd1 1_555 1_555
O21 Nd1 1_555 1_555
Nd4 O4 1_555 1_555
Nd5 O3 1_555 1_555
N1 N2 1_555 1_555
N3 N4 1_555 1_555
N3 Nd1 1_555 1_555
O5 Nd2 1_555 1_555
O9 Nd2 1_555 1_555
O11 Nd1 1_555 1_555
O11 Nd2 1_555 1_555
O12 Nd1 1_555 1_555
O12 Nd2 1_555 1_555
O14 Nd2 1_555 1_555
O18 H17 1_555 1_555
O18 H18 1_555 1_555
C14 C12 1_555 1_555
O8 H8 1_555 1_555
H9 O8 1_555 1_555
O10 H12 1_555 1_555
N6 C14 1_555 1_555
H16 N6 1_555 1_555
Nd3 O2 1_555 1_555
N5 N6 1_555 1_555
C2_2 C7_2 1_555 1_555
H1_2 C5_2 1_555 1_555
C7_2 C5_2 1_555 1_555
O4_2 C2_2 1_555 1_555
O16_2 C2_2 1_555 1_555
Nd4_2 O4_2 1_555 1_555
C1_2 C10_2 1_555 1_555
C3_2 C4_2 1_555 1_555
C4_2 O1_2 1_555 1_555
C8_2 C11_2 1_555 1_555
C10_2 C15_2 1_555 1_555
C11_2 C15_2 1_555 1_555
C15_2 H3_2 1_555 1_555
N1_2 C10_2 1_555 1_555
H4_2 N1_2 1_555 1_555
N2_2 C11_2 1_555 1_555
N3_2 C3_2 1_555 1_555
H5_2 N4_2 1_555 1_555
O20 C1_2 1_555 1_555
O6_2 C8_2 1_555 1_555
O7 C1_2 1_555 1_555
O8_2 H8_2 1_555 1_555
H9_2 O8_2 1_555 1_555
O9_2 H10_2 1_555 1_555
H11_2 O9_2 1_555 1_555
H13_2 O10_2 1_555 1_555
O11_2 C8_2 1_555 1_555
O12_2 C4_2 1_555 1_555
N1_2 N2_2 1_555 1_555
N3_2 N4_2 1_555 1_555
O8_2 Nd5 1_555 1_555
O9_2 Nd5 1_555 1_555
O10_2 Nd5 1_555 1_555
O11_2 Nd5 1_555 1_555
O12_2 Nd5 1_555 1_555
C6_2 C9_2 1_555 1_555
C9_2 O14_2 1_555 1_555
C12_2 C6_2 1_555 1_555
H2_2 C12_2 1_555 1_555
C13_2 C14_2 1_555 1_555
C14_2 C12_2 1_555 1_555
N5_2 C6_2 1_555 1_555
O19 C13_2 1_555 1_555
O5_2 H6_2 1_555 1_555
H7_2 O5_2 1_555 1_555
O13_2 C13_2 1_555 1_555
O14_2 Nd3 1_555 1_555
O15_2 C9_2 1_555 1_555
O17_2 Nd3 1_555 1_555
H14_2 O17_2 1_555 1_555
H15_2 O17_2 1_555 1_555
N6_2 C14_2 1_555 1_555
H16_2 N6_2 1_555 1_555
O18_2 Nd3 1_555 1_555
O21_2 Nd3 1_555 1_555
N5_2 N6_2 1_555 1_555
O18_2 H17_2 1_555 1_555
O18_2 H18_2 1_555 1_555
C14_3 C12_3 1_555 1_555
O8_3 H8_3 1_555 1_555
H9_3 O8_3 1_555 1_555
O10_3 H12_3 1_555 1_555
N6_3 C14_3 1_555 1_555
H16_3 N6_3 1_555 1_555
Nd4 O2_2 1_555 1_555
N5_3 N6_3 1_555 1_555
C1_3 C10_3 1_555 1_555
C2_3 C7_3 1_555 1_555
C3_3 C4_3 1_555 1_555
C4_3 O1_3 1_555 1_555
C5_3 C3_3 1_555 1_555
H1_3 C5_3 1_555 1_555
C6_3 C9_3 1_555 1_555
C7_3 C5_3 1_555 1_555
C8_3 C11_3 1_555 1_555
C9_3 O14_3 1_555 1_555
C10_3 C15_3 1_555 1_555
C11_3 C15_3 1_555 1_555
C15_3 H3_3 1_555 1_555
N1_3 C10_3 1_555 1_555
H4_3 N1_3 1_555 1_555
N2_3 C11_3 1_555 1_555
N3_3 C3_3 1_555 1_555
N4_3 C7_3 1_555 1_555
H5_3 N4_3 1_555 1_555
O3_2 C1_3 1_555 1_555
O21_2 C2_3 1_555 1_555
H7_3 O5_3 1_555 1_555
O6_3 C8_3 1_555 1_555
O9_3 H10_3 1_555 1_555
O11_3 C8_3 1_555 1_555
O12_3 C4_3 1_555 1_555
O14_3 Nd4_2 1_555 1_555
O15_3 C9_3 1_555 1_555
O16_3 C2_3 1_555 1_555
Nd4_2 N2_3 1_555 1_555
O17_3 Nd4_2 1_555 1_555
H14_3 O17_3 1_555 1_555
H15_3 O17_3 1_555 1_555
O18_3 Nd4_2 1_555 1_555
O19_2 Nd4_2 1_555 1_555
Nd5_2 O3_2 1_555 1_555
N1_3 N2_3 1_555 1_555
N3_3 N4_3 1_555 1_555
N3_3 Nd4_2 1_555 1_555
O5_3 Nd2_2 1_555 1_555
O9_3 Nd2_2 1_555 1_555
O11_3 Nd4_2 1_555 1_555
O11_3 Nd2_2 1_555 1_555
O12_3 Nd4_2 1_555 1_555
O12_3 Nd2_2 1_555 1_555
O14_3 Nd2_2 1_555 1_555
O18_3 H17_3 1_555 1_555
O18_3 H18_3 1_555 1_555
C6_4 C9_4 1_555 1_555
C9_4 O14_4 1_555 1_555
C12_4 C6_4 1_555 1_555
H2_3 C12_4 1_555 1_555
C13_3 C14_4 1_555 1_555
C14_4 C12_4 1_555 1_555
N5_4 C6_4 1_555 1_555
O19_2 C13_3 1_555 1_555
O5_4 H6_4 1_555 1_555
H7_4 O5_4 1_555 1_555
O13_3 C13_3 1_555 1_555
O14_4 Nd4 1_555 1_555
O15_4 C9_4 1_555 1_555
O17_4 Nd4 1_555 1_555
H14_4 O17_4 1_555 1_555
H15_4 O17_4 1_555 1_555
N6_4 C14_4 1_555 1_555
H16_4 N6_4 1_555 1_555
O18_4 Nd4 1_555 1_555
N5_4 N6_4 1_555 1_555
O18_4 H17_4 1_555 1_555
O18_4 H18_4 1_555 1_555
C1_4 C10_4 1_555 1_555
C3_4 C4_4 1_555 1_555
C4_4 O1_4 1_555 1_555
C8_4 C11_4 1_555 1_555
C10_4 C15_4 1_555 1_555
C11_4 C15_4 1_555 1_555
C15_4 H3_4 1_555 1_555
N1_4 C10_4 1_555 1_555
H4_4 N1_4 1_555 1_555
N2_4 C11_4 1_555 1_555
N3_4 C3_4 1_555 1_555
H5_4 N4_4 1_555 1_555
O20_2 C1_4 1_555 1_555
O6_4 C8_4 1_555 1_555
O7_2 C1_4 1_555 1_555
O8_4 H8_4 1_555 1_555
H9_4 O8_4 1_555 1_555
O9_4 H10_4 1_555 1_555
H11_4 O9_4 1_555 1_555
H13_4 O10_4 1_555 1_555
O11_4 C8_4 1_555 1_555
O12_4 C4_4 1_555 1_555
N1_4 N2_4 1_555 1_555
N3_4 N4_4 1_555 1_555
O8_4 Nd5_2 1_555 1_555
O9_4 Nd5_2 1_555 1_555
O10_4 Nd5_2 1_555 1_555
O11_4 Nd5_2 1_555 1_555
O12_4 Nd5_2 1_555 1_555
C2_4 C7_4 1_555 1_555
H1_4 C5_4 1_555 1_555
C7_4 C5_4 1_555 1_555
O21 C2_4 1_555 1_555
O16_4 C2_4 1_555 1_555
O13_4 C13_4 1_555 1_555

#END
