
###############################################################################
#
# This file contains modified crystal structure data generated from the
# MOF subset of the Cambridge Structural Database (CSD) v543 
# hosted by the Cambridge Crystallographic Data Centre (CCDC).
#
# This work is licensed under the Creative Commons
# Attribution-NonCommercial-ShareAlike 4.0 International License.
# To view a copy of this license, visit
# http://creativecommons.org/licenses/by-nc-sa/4.0/
# or send a letter to
# Creative Commons, PO Box 1866, Mountain View, CA 94042, USA.
#
# CIF created using the CSD Python API on 29 September 2022
# The structure has been converted into the P1 space group
# The structure has a 3D framework
# The original CSD entry OZICAE is in the monoclinic crystal system
# The framework has been calculated to contain at least 10.0% void space
# The void calculation uses a probe of radius 1.32A, grid spacing 0.4
#
###############################################################################

data_OZICAE
_chemical_formula_moiety         '(C72 F32 O38 Zr8)n'
_symmetry_cell_setting           triclinic
_symmetry_space_group_name_H-M   'P 1'
_symmetry_Int_Tables_number      1
_space_group_name_Hall           'P 1'
loop_
_symmetry_equiv_pos_site_id
_symmetry_equiv_pos_as_xyz
1 x,y,z
_cell_length_a                   25.8173
_cell_length_b                   11.6115
_cell_length_c                   8.0821
_cell_angle_alpha                90
_cell_angle_beta                 96.0813
_cell_angle_gamma                90
_cell_volume                     2409.2
loop_
_atom_site_label
_atom_site_type_symbol
_atom_site_fract_x
_atom_site_fract_y
_atom_site_fract_z
_atom_site_U_iso_or_equiv
_atom_site_thermal_displace_type
C5 C 0.54456 0.04531 0.80834 0.0250 Uiso
F4 F 0.58621 0.10226 0.87453 0.0250 Uiso
O4 O 0.46779 0.28459 0.82390 0.0250 Uiso
C7 C 0.50000 0.10445 0.75000 0.0250 Uiso
C10 C 0.50000 0.23124 0.75000 0.0250 Uiso
C15 C 0.45544 0.04531 0.69166 0.0250 Uiso
F8 F 0.41379 0.10226 0.62547 0.0250 Uiso
O9 O 0.53221 0.28459 0.67610 0.0250 Uiso
Zr3 Zr 0.44113 0.48732 0.84690 0.0235 Uiso
Zr4 Zr 0.55887 0.48732 0.65310 0.0235 Uiso
Zr5 Zr 0.55887 0.51268 0.15310 0.0235 Uiso
O17 O 0.46248 0.50924 0.08022 0.0250 Uiso
C1 C 0.21654 0.27405 0.59576 0.0250 Uiso
C2 C 0.25794 0.34419 0.61004 0.0250 Uiso
C3 C 0.29635 0.31782 0.50719 0.0250 Uiso
F1 F 0.27025 0.40264 0.75080 0.0250 Uiso
F2 F 0.18113 0.28145 0.70542 0.0250 Uiso
C4 C 0.34766 0.37037 0.53819 0.0250 Uiso
O1 O 0.36516 0.38575 0.68496 0.0250 Uiso
O2 O 0.36606 0.42422 0.42640 0.0250 Uiso
C6 C 0.54452 0.92691 0.80904 0.0250 Uiso
F3 F 0.58811 0.87036 0.85253 0.0250 Uiso
O3 O 0.46889 0.68763 0.82690 0.0250 Uiso
C8 C 0.50000 0.86767 0.75000 0.0250 Uiso
C9 C 0.50000 0.74078 0.75000 0.0250 Uiso
O5 O 0.46248 0.49076 0.58022 0.0250 Uiso
C11 C 0.28346 0.22595 0.40424 0.0250 Uiso
C12 C 0.24206 0.15581 0.38996 0.0250 Uiso
C13 C 0.20365 0.18218 0.49281 0.0250 Uiso
F5 F 0.22975 0.09736 0.24920 0.0250 Uiso
F6 F 0.31887 0.21855 0.29458 0.0250 Uiso
C14 C 0.15234 0.12963 0.46181 0.0250 Uiso
O6 O 0.13484 0.11425 0.31504 0.0250 Uiso
O7 O 0.13394 0.07578 0.57360 0.0250 Uiso
C16 C 0.45548 0.92691 0.69096 0.0250 Uiso
F7 F 0.41189 0.87036 0.64747 0.0250 Uiso
O8 O 0.53111 0.68763 0.67310 0.0250 Uiso
O10 O 0.53752 0.49076 0.91978 0.0250 Uiso
O11 O 0.63484 0.38575 0.81504 0.0250 Uiso
O12 O 0.63394 0.57578 0.57360 0.0250 Uiso
O13 O 0.36606 0.57578 0.92640 0.0250 Uiso
Zr6 Zr 0.44113 0.51268 0.34690 0.0235 Uiso
Zr8 Zr 0.05887 0.01268 0.15310 0.0235 Uiso
O16 O 0.53752 0.50924 0.41978 0.0250 Uiso
Zr7 Zr 0.05887 0.98732 0.65310 0.0235 Uiso
O2_2 O 0.63394 0.42422 0.07360 0.0250 Uiso
C11_2 C 0.71654 0.22595 0.09576 0.0250 Uiso
C12_2 C 0.75794 0.15581 0.11004 0.0250 Uiso
C13_2 C 0.79635 0.18218 0.00719 0.0250 Uiso
F5_2 F 0.77025 0.09736 0.25080 0.0250 Uiso
F6_2 F 0.68113 0.21855 0.20542 0.0250 Uiso
C14_2 C 0.84766 0.12963 0.03819 0.0250 Uiso
O6_2 O 0.86516 0.11425 0.18496 0.0250 Uiso
Zr8_2 Zr 0.94113 0.01268 0.34690 0.0235 Uiso
C1_2 C 0.78346 0.27405 0.90424 0.0250 Uiso
C2_2 C 0.74206 0.34419 0.88996 0.0250 Uiso
C3_2 C 0.70365 0.31782 0.99281 0.0250 Uiso
F1_2 F 0.72975 0.40264 0.74920 0.0250 Uiso
F2_2 F 0.81887 0.28145 0.79458 0.0250 Uiso
C4_2 C 0.65234 0.37037 0.96181 0.0250 Uiso
O7_2 O 0.86606 0.07578 0.92640 0.0250 Uiso
Zr7_2 Zr 0.94113 0.98732 0.84690 0.0235 Uiso
C5_2 C 0.04456 0.54531 0.80834 0.0250 Uiso
C6_2 C 0.04452 0.42691 0.80904 0.0250 Uiso
F3_2 F 0.08811 0.37036 0.85253 0.0250 Uiso
F4_2 F 0.08621 0.60226 0.87453 0.0250 Uiso
C7_2 C -0.00000 0.60445 0.75000 0.0250 Uiso
C8_2 C 0.00000 0.36767 0.75000 0.0250 Uiso
C9_2 C 0.00000 0.24078 0.75000 0.0250 Uiso
C10_2 C -0.00000 0.73124 0.75000 0.0250 Uiso
O8_2 O 0.03111 0.18763 0.67310 0.0250 Uiso
O9_2 O 0.03221 0.78459 0.67610 0.0250 Uiso
O16_2 O 0.03752 0.00924 0.41978 0.0250 Uiso
O10_2 O 0.03752 0.99076 0.91978 0.0250 Uiso
O11_2 O 0.13484 0.88575 0.81504 0.0250 Uiso
O17_2 O 0.96248 0.00924 0.08022 0.0250 Uiso
O3_2 O 0.96889 0.18763 0.82690 0.0250 Uiso
O4_2 O 0.96779 0.78459 0.82390 0.0250 Uiso
C7_3 C 1.00000 0.60445 0.75000 0.0250 Uiso
C8_3 C 1.00000 0.36767 0.75000 0.0250 Uiso
C9_3 C 1.00000 0.24078 0.75000 0.0250 Uiso
C10_3 C 1.00000 0.73124 0.75000 0.0250 Uiso
C15_2 C 0.95544 0.54531 0.69166 0.0250 Uiso
C16_2 C 0.95548 0.42691 0.69096 0.0250 Uiso
F7_2 F 0.91189 0.37036 0.64747 0.0250 Uiso
F8_2 F 0.91379 0.60226 0.62547 0.0250 Uiso
C1_3 C 0.71654 0.77405 0.59576 0.0250 Uiso
C2_3 C 0.75794 0.84419 0.61004 0.0250 Uiso
C3_3 C 0.79635 0.81782 0.50719 0.0250 Uiso
F1_3 F 0.77025 0.90264 0.75080 0.0250 Uiso
F2_3 F 0.68113 0.78145 0.70542 0.0250 Uiso
C4_3 C 0.84766 0.87037 0.53819 0.0250 Uiso
O1_2 O 0.86516 0.88575 0.68496 0.0250 Uiso
O2_3 O 0.86606 0.92422 0.42640 0.0250 Uiso
O5_2 O 0.96248 0.99076 0.58022 0.0250 Uiso
C11_3 C 0.78346 0.72595 0.40424 0.0250 Uiso
C12_3 C 0.74206 0.65581 0.38996 0.0250 Uiso
C13_3 C 0.70365 0.68218 0.49281 0.0250 Uiso
F5_3 F 0.72975 0.59736 0.24920 0.0250 Uiso
F6_3 F 0.81887 0.71855 0.29458 0.0250 Uiso
C14_3 C 0.65234 0.62963 0.46181 0.0250 Uiso
O6_3 O 0.63484 0.61425 0.31504 0.0250 Uiso
O2_4 O 0.13394 0.92422 0.07360 0.0250 Uiso
C11_4 C 0.21654 0.72595 0.09576 0.0250 Uiso
C12_4 C 0.25794 0.65581 0.11004 0.0250 Uiso
C13_4 C 0.29635 0.68218 0.00719 0.0250 Uiso
F5_4 F 0.27025 0.59736 0.25080 0.0250 Uiso
F6_4 F 0.18113 0.71855 0.20542 0.0250 Uiso
C14_4 C 0.34766 0.62963 0.03819 0.0250 Uiso
O6_4 O 0.36516 0.61425 0.18496 0.0250 Uiso
C1_4 C 0.28346 0.77405 0.90424 0.0250 Uiso
C2_4 C 0.24206 0.84419 0.88996 0.0250 Uiso
C3_4 C 0.20365 0.81782 0.99281 0.0250 Uiso
F1_4 F 0.22975 0.90264 0.74920 0.0250 Uiso
F2_4 F 0.31887 0.78145 0.79458 0.0250 Uiso
C4_4 C 0.15234 0.87037 0.96181 0.0250 Uiso
C6_3 C 0.45548 0.07309 0.19096 0.0250 Uiso
F3_3 F 0.41189 0.12964 0.14747 0.0250 Uiso
O3_3 O 0.53111 0.31237 0.17310 0.0250 Uiso
C8_4 C 0.50000 0.13233 0.25000 0.0250 Uiso
C9_4 C 0.50000 0.25922 0.25000 0.0250 Uiso
C16_3 C 0.54452 0.07309 0.30904 0.0250 Uiso
F7_3 F 0.58811 0.12964 0.35253 0.0250 Uiso
O8_3 O 0.46889 0.31237 0.32690 0.0250 Uiso
O14 O 0.53221 0.71541 0.17610 0.0250 Uiso
O15 O 0.46779 0.71541 0.32390 0.0250 Uiso
C5_3 C 0.45544 0.95469 0.19166 0.0250 Uiso
F4_3 F 0.41379 0.89774 0.12547 0.0250 Uiso
C7_4 C 0.50000 0.89555 0.25000 0.0250 Uiso
C10_4 C 0.50000 0.76876 0.25000 0.0250 Uiso
C15_3 C 0.54456 0.95469 0.30834 0.0250 Uiso
F8_3 F 0.58621 0.89774 0.37453 0.0250 Uiso
O14_2 O 0.03221 0.21541 0.17610 0.0250 Uiso
O3_4 O 0.03111 0.81237 0.17310 0.0250 Uiso
C7_5 C 0.00000 0.39555 0.25000 0.0250 Uiso
C8_5 C 0.00000 0.63233 0.25000 0.0250 Uiso
C9_5 C 0.00000 0.75922 0.25000 0.0250 Uiso
C10_5 C 0.00000 0.26876 0.25000 0.0250 Uiso
C15_4 C 0.04456 0.45469 0.30834 0.0250 Uiso
C16_4 C 0.04452 0.57309 0.30904 0.0250 Uiso
F7_4 F 0.08811 0.62964 0.35253 0.0250 Uiso
F8_4 F 0.08621 0.39774 0.37453 0.0250 Uiso
O15_2 O 0.96779 0.21541 0.32390 0.0250 Uiso
C5_4 C 0.95544 0.45469 0.19166 0.0250 Uiso
C6_4 C 0.95548 0.57309 0.19096 0.0250 Uiso
F3_4 F 0.91189 0.62964 0.14747 0.0250 Uiso
F4_4 F 0.91379 0.39774 0.12547 0.0250 Uiso
C7_6 C 1.00000 0.39555 0.25000 0.0250 Uiso
C8_6 C 1.00000 0.63233 0.25000 0.0250 Uiso
C9_6 C 1.00000 0.75922 0.25000 0.0250 Uiso
C10_6 C 1.00000 0.26876 0.25000 0.0250 Uiso
O8_4 O 0.96889 0.81237 0.32690 0.0250 Uiso
loop_
_geom_bond_atom_site_label_1
_geom_bond_atom_site_label_2
_geom_bond_site_symmetry_1
_geom_bond_site_symmetry_2
F4 C5 1_555 1_555
O4 C10 1_555 1_555
C7 C5 1_555 1_555
C10 C7 1_555 1_555
C15 C7 1_555 1_555
F8 C15 1_555 1_555
O9 C10 1_555 1_555
Zr3 O4 1_555 1_555
Zr4 O9 1_555 1_555
Zr3 Zr4 1_555 1_555
Zr5 O17 1_555 1_555
C1 C2 1_555 1_555
C2 C3 1_555 1_555
C3 C4 1_555 1_555
F1 C2 1_555 1_555
F2 C1 1_555 1_555
C4 O1 1_555 1_555
O1 Zr3 1_555 1_555
O2 C4 1_555 1_555
Zr3 O3 1_555 1_555
C6 F3 1_555 1_555
O3 C9 1_555 1_555
C8 C6 1_555 1_555
C9 C8 1_555 1_555
O5 Zr3 1_555 1_555
C11 C3 1_555 1_555
C12 C11 1_555 1_555
C13 C1 1_555 1_555
F5 C12 1_555 1_555
F6 C11 1_555 1_555
C14 C13 1_555 1_555
O6 C14 1_555 1_555
O7 C14 1_555 1_555
C16 C8 1_555 1_555
F7 C16 1_555 1_555
O8 C9 1_555 1_555
O10 Zr3 1_555 1_555
O11 Zr4 1_555 1_555
O12 Zr4 1_555 1_555
O13 Zr3 1_555 1_555
Zr6 O2 1_555 1_555
Zr8 O6 1_555 1_555
O16 Zr4 1_555 1_555
O5 Zr4 1_555 1_555
O5 Zr6 1_555 1_555
C12 C13 1_555 1_555
O8 Zr4 1_555 1_555
Zr4 O10 1_555 1_555
Zr6 O16 1_555 1_555
C12_2 C11_2 1_555 1_555
F5_2 C12_2 1_555 1_555
F6_2 C11_2 1_555 1_555
C14_2 C13_2 1_555 1_555
O6_2 C14_2 1_555 1_555
Zr5 O2_2 1_555 1_555
Zr8_2 O6_2 1_555 1_555
C12_2 C13_2 1_555 1_555
C1_2 C2_2 1_555 1_555
C2_2 C3_2 1_555 1_555
C3_2 C4_2 1_555 1_555
F1_2 C2_2 1_555 1_555
F2_2 C1_2 1_555 1_555
C4_2 O11 1_555 1_555
C5_2 C6_2 1_555 1_555
C6_2 F3_2 1_555 1_555
F4_2 C5_2 1_555 1_555
C7_2 C5_2 1_555 1_555
C8_2 C6_2 1_555 1_555
C9_2 C8_2 1_555 1_555
C10_2 C7_2 1_555 1_555
O8_2 C9_2 1_555 1_555
O9_2 C10_2 1_555 1_555
Zr7 O9_2 1_555 1_555
O11_2 Zr7 1_555 1_555
Zr7 O10_2 1_555 1_555
O3_2 C9_3 1_555 1_555
O4_2 C10_3 1_555 1_555
C9_3 C8_3 1_555 1_555
C10_3 C7_3 1_555 1_555
C15_2 C7_3 1_555 1_555
C16_2 C8_3 1_555 1_555
F7_2 C16_2 1_555 1_555
F8_2 C15_2 1_555 1_555
Zr7_2 O4_2 1_555 1_555
C15_2 C16_2 1_555 1_555
C1_3 C2_3 1_555 1_555
C2_3 C3_3 1_555 1_555
C3_3 C4_3 1_555 1_555
F1_3 C2_3 1_555 1_555
F2_3 C1_3 1_555 1_555
C4_3 O1_2 1_555 1_555
O1_2 Zr7_2 1_555 1_555
O2_3 C4_3 1_555 1_555
O5_2 Zr7_2 1_555 1_555
C11_3 C3_3 1_555 1_555
C12_3 C11_3 1_555 1_555
C13_3 C1_3 1_555 1_555
F5_3 C12_3 1_555 1_555
F6_3 C11_3 1_555 1_555
C14_3 C13_3 1_555 1_555
O6_3 C14_3 1_555 1_555
O12 C14_3 1_555 1_555
Zr5 O6_3 1_555 1_555
C12_3 C13_3 1_555 1_555
C12_4 C11_4 1_555 1_555
F5_4 C12_4 1_555 1_555
F6_4 C11_4 1_555 1_555
C14_4 C13_4 1_555 1_555
O6_4 C14_4 1_555 1_555
Zr6 O6_4 1_555 1_555
C12_4 C13_4 1_555 1_555
C1_4 C2_4 1_555 1_555
C2_4 C3_4 1_555 1_555
C3_4 C4_4 1_555 1_555
F1_4 C2_4 1_555 1_555
F2_4 C1_4 1_555 1_555
C4_4 O11_2 1_555 1_555
Zr5 O3_3 1_555 1_555
C6_3 F3_3 1_555 1_555
O3_3 C9_4 1_555 1_555
C8_4 C6_3 1_555 1_555
C9_4 C8_4 1_555 1_555
O16 Zr5 1_555 1_555
C16_3 C8_4 1_555 1_555
F7_3 C16_3 1_555 1_555
O8_3 C9_4 1_555 1_555
Zr6 Zr5 1_555 1_555
O14 Zr5 1_555 1_555
O15 Zr6 1_555 1_555
O8_3 Zr6 1_555 1_555
Zr6 O17 1_555 1_555
F4_3 C5_3 1_555 1_555
O14 C10_4 1_555 1_555
C7_4 C5_3 1_555 1_555
C10_4 C7_4 1_555 1_555
C15_3 C7_4 1_555 1_555
F8_3 C15_3 1_555 1_555
O15 C10_4 1_555 1_555
O16_2 Zr8 1_555 1_555
O14_2 Zr8 1_555 1_555
O3_4 C9_5 1_555 1_555
O14_2 C10_5 1_555 1_555
C9_5 C8_5 1_555 1_555
C10_5 C7_5 1_555 1_555
C15_4 C7_5 1_555 1_555
C16_4 C8_5 1_555 1_555
F7_4 C16_4 1_555 1_555
F8_4 C15_4 1_555 1_555
C15_4 C16_4 1_555 1_555
O15_2 Zr8_2 1_555 1_555
Zr8_2 O17_2 1_555 1_555
C5_4 C6_4 1_555 1_555
C6_4 F3_4 1_555 1_555
F4_4 C5_4 1_555 1_555
C7_6 C5_4 1_555 1_555
C8_6 C6_4 1_555 1_555
C9_6 C8_6 1_555 1_555
C10_6 C7_6 1_555 1_555
O8_4 C9_6 1_555 1_555
O15_2 C10_6 1_555 1_555

#END
