
###############################################################################
#
# This file contains modified crystal structure data generated from the
# MOF subset of the Cambridge Structural Database (CSD) v543 
# hosted by the Cambridge Crystallographic Data Centre (CCDC).
#
# This work is licensed under the Creative Commons
# Attribution-NonCommercial-ShareAlike 4.0 International License.
# To view a copy of this license, visit
# http://creativecommons.org/licenses/by-nc-sa/4.0/
# or send a letter to
# Creative Commons, PO Box 1866, Mountain View, CA 94042, USA.
#
# CIF created using the CSD Python API on 29 September 2022
# The structure has been converted into the P1 space group
# The structure has a 3D framework
# The original CSD entry OZIKAM is in the triclinic crystal system
# The framework has been calculated to contain at least 10.0% void space
# The void calculation uses a probe of radius 1.32A, grid spacing 0.4
# The framework is charged, counterions have been retained in the structure
#
###############################################################################

data_OZIKAM
_chemical_formula_moiety         '(C52 H44 Cl2 N8 O15 Zn4 2-)n'
_symmetry_cell_setting           triclinic
_symmetry_space_group_name_H-M   'P 1'
_symmetry_Int_Tables_number      1
_space_group_name_Hall           'P 1'
loop_
_symmetry_equiv_pos_site_id
_symmetry_equiv_pos_as_xyz
1 x,y,z
_cell_length_a                   9.7195(3)
_cell_length_b                   11.4739(2)
_cell_length_c                   18.8336(5)
_cell_angle_alpha                87.203(2)
_cell_angle_beta                 80.313(2)
_cell_angle_gamma                87.767(2)
_cell_volume                     2066.91
loop_
_atom_site_label
_atom_site_type_symbol
_atom_site_fract_x
_atom_site_fract_y
_atom_site_fract_z
Zn2 Zn 0.000000 0.000000 0.500000
N9 N 0.0032(3) 0.1894(3) 0.49555(16)
N10 N 0.0406(3) 0.1741(3) 0.29192(17)
Zn1 Zn 0.03508(4) 0.98394(4) 0.29719(2)
Zn2_2 Zn 0.000000 1.000000 0.500000
N3 N 0.0255(4) 0.9848(3) 0.18607(17)
N4 N 0.0404(3) 0.7933(3) 0.30083(18)
C1 C -0.0001(4) 0.5652(3) 0.5011(2)
C5 C 0.0398(4) 0.4194(4) 0.2940(2)
C6 C 0.0379(4) 0.5476(3) 0.2977(2)
C8 C 0.1099(5) 0.7452(4) 0.5116(3)
H5 H 0.189086 0.782362 0.519327
C11 C 0.1164(5) 0.6247(4) 0.5081(3)
H8 H 0.200204 0.583941 0.510499
C16 C 0.1597(6) 0.3524(4) 0.2928(4)
H14 H 0.244014 0.387923 0.292867
C17 C 0.1535(5) 0.6061(4) 0.3102(3)
H15 H 0.233558 0.563929 0.318207
C18 C 0.0063(4) 0.9967(4) 0.0388(2)
C21 C 0.1371(5) 0.9688(5) 0.1353(2)
H18 H 0.223424 0.954863 0.149645
C22 C 0.1501(5) 0.7252(4) 0.3107(3)
H19 H 0.230066 0.761208 0.318496
C23 C 0.1562(5) 0.2335(5) 0.2915(4)
H20 H 0.240059 0.191141 0.290129
C25 C 0.1312(5) 0.9719(6) 0.0620(2)
H22 H 0.211550 0.957210 0.028785
C26 C 0.0001(4) 0.4348(3) 0.4989(2)
C28 C 0.1142(5) 0.2474(4) 0.5032(3)
H24 H 0.195763 0.204418 0.507451
C29 C 0.1178(5) 0.3667(4) 0.5053(3)
H25 H 0.199765 0.401607 0.510976
O9 O 0.1312(2) 0.9850(2) 0.39080(13)
O11 O 0.2744(3) 0.9752(2) 0.28912(14)
O13 O 0.1659(3) 0.9923(2) 0.55423(14)
C32 C 0.0973(5) 0.9944(5) 0.8364(2)
H27 H 0.177017 0.984828 0.801910
C34 C 0.1111(5) 0.9864(5) 0.9093(2)
H29 H 0.197867 0.969909 0.922751
Zn2_3 Zn 1.000000 0.000000 0.500000
O4 O 0.8341(3) 0.0077(2) 0.44577(14)
H1 H 0.535721 0.049850 0.325422
H4 H 0.582632 0.056876 0.442765
H10 H 0.360060 0.049754 0.426735
C19 C 0.9027(5) 0.0056(5) 0.1636(2)
H16 H 0.822983 0.015172 0.198090
C24 C 0.8889(5) 0.0136(5) 0.0907(2)
H21 H 0.802133 0.030091 0.077249
O5 O 0.8688(2) 0.0150(2) 0.60920(13)
O6 O 0.7256(3) 0.0248(2) 0.71088(14)
O7 O 0.1733(3) 0.0136(2) 0.67039(13)
C36 C 0.4776(4) 0.0173(4) 0.6411(2)
H32 H 0.455207 0.087503 0.667871
C37 C 0.2300(4) 0.0052(3) 0.60565(19)
C38 C 0.7433(4) 0.0202(3) 0.6446(2)
C41 C 0.3860(4) 0.0111(4) 0.5849(2)
H33 H 0.404578 0.078881 0.552350
C42 C 0.0769(5) 0.3830(4) 0.7117(3)
H35 H 0.158216 0.416946 0.719302
C43 C 0.6249(4) 0.0185(5) 0.6024(2)
H37 H 0.632879 0.086302 0.569294
C44 C 0.0717(5) 0.2633(4) 0.7098(3)
H38 H 0.151228 0.219131 0.716311
C45 C 0.0775(5) 0.6404(4) 0.7086(4)
H39 H 0.161404 0.599352 0.710328
C48 C 0.0741(5) 0.7600(4) 0.7089(3)
H42 H 0.157232 0.797002 0.709691
Zn8 Zn 0.96492(4) 0.01606(4) 0.70281(2)
N6 N 0.9745(4) 0.0152(3) 0.81393(17)
C31 C 0.9937(4) 0.0033(4) 0.9612(2)
C33 C 0.8629(5) 0.0312(5) 0.8647(2)
H28 H 0.776576 0.045137 0.850355
C35 C 0.8688(5) 0.0281(6) 0.9380(2)
H30 H 0.788450 0.042790 0.971215
Zn2_4 Zn 1.000000 1.000000 0.500000
O3 O 0.8267(3) 0.9864(2) 0.32961(13)
N1 N 0.9968(3) 0.8106(3) 0.50445(16)
C1_2 C 0.9999(4) 0.5652(3) 0.5011(2)
C2 C 0.5224(4) 0.9827(4) 0.3589(2)
H2 H 0.544793 0.912497 0.332129
C3 C 0.7700(4) 0.9948(3) 0.39435(19)
C4 C 0.2567(4) 0.9798(3) 0.3554(2)
C7 C 0.6140(4) 0.9889(4) 0.4151(2)
H3 H 0.595422 0.921119 0.447650
C9 C 0.8858(5) 0.7526(4) 0.4968(3)
H6 H 0.804237 0.795582 0.492549
C10 C 0.8822(5) 0.6333(4) 0.4947(3)
H7 H 0.800235 0.598393 0.489024
C12 C 0.9231(5) 0.6170(4) 0.2883(3)
H9 H 0.841784 0.583054 0.280698
C13 C 0.3751(4) 0.9815(5) 0.3976(2)
H11 H 0.367121 0.913698 0.430706
C14 C 0.9283(5) 0.7367(4) 0.2902(3)
H12 H 0.848772 0.780869 0.283689
C15 C 0.9225(5) 0.3596(4) 0.2914(4)
H13 H 0.838596 0.400648 0.289672
C20 C 0.9259(5) 0.2400(4) 0.2911(3)
H17 H 0.842768 0.202998 0.290309
C26_2 C 1.0001(4) 0.4348(3) 0.4989(2)
C27 C 0.8901(5) 0.2548(4) 0.4884(3)
H23 H 0.810914 0.217638 0.480673
C30 C 0.8836(5) 0.3753(4) 0.4919(3)
H26 H 0.799796 0.416059 0.489501
H31 H 0.464279 0.950150 0.674578
H34 H 0.417368 0.943124 0.557235
H36 H 0.639940 0.950246 0.573265
N7 N 0.9594(3) 0.8259(3) 0.70808(17)
N8 N 0.9596(3) 0.2067(3) 0.69917(18)
C39 C 0.9602(4) 0.5806(4) 0.7060(2)
C40 C 0.9621(4) 0.4524(3) 0.7023(2)
C46 C 0.8403(6) 0.6476(4) 0.7072(4)
H40 H 0.755986 0.612077 0.707133
C47 C 0.8465(5) 0.3939(4) 0.6898(3)
H41 H 0.766442 0.436071 0.681793
C49 C 0.8499(5) 0.2748(4) 0.6893(3)
H43 H 0.769934 0.238792 0.681504
C50 C 0.8438(5) 0.7665(5) 0.7085(4)
H44 H 0.759941 0.808859 0.709871
Cl1 Cl 0.5098(2) 0.34099(19) 0.40605(13)
O14 O 0.4743(10) 0.2768(7) 0.4733(5)
O15 O 0.4042(8) 0.4333(8) 0.3969(7)
O16 O 0.6241(16) 0.296(4) 0.370(2)
O17 O 0.427(2) 0.262(3) 0.3684(18)
Cl1_2 Cl 0.4902(2) 0.65901(19) 0.59395(13)
O14_2 O 0.5257(10) 0.7232(7) 0.5267(5)
O15_2 O 0.5958(8) 0.5667(8) 0.6031(7)
O16_2 O 0.3759(16) 0.704(4) 0.630(2)
O17_2 O 0.573(2) 0.738(3) 0.6316(18)
loop_
_geom_bond_atom_site_label_1
_geom_bond_atom_site_label_2
_geom_bond_site_symmetry_1
_geom_bond_site_symmetry_2
N9 Zn2 1_555 1_555
N3 Zn1 1_555 1_555
N4 Zn1 1_555 1_555
C5 C6 1_555 1_555
H5 C8 1_555 1_555
C11 C1 1_555 1_555
H8 C11 1_555 1_555
C16 C5 1_555 1_555
H14 C16 1_555 1_555
C17 C6 1_555 1_555
H15 C17 1_555 1_555
C21 N3 1_555 1_555
H18 C21 1_555 1_555
C22 N4 1_555 1_555
H19 C22 1_555 1_555
C23 N10 1_555 1_555
H20 C23 1_555 1_555
C25 C18 1_555 1_555
H22 C25 1_555 1_555
C26 C1 1_555 1_555
C28 N9 1_555 1_555
H24 C28 1_555 1_555
C29 C26 1_555 1_555
H25 C29 1_555 1_555
O9 Zn1 1_555 1_555
O11 Zn1 1_555 1_555
O13 Zn2_2 1_555 1_555
Zn2_2 O9 1_555 1_555
C8 C11 1_555 1_555
C16 C23 1_555 1_555
C17 C22 1_555 1_555
C21 C25 1_555 1_555
C28 C29 1_555 1_555
C32 H27 1_555 1_555
H29 C34 1_555 1_555
C32 C34 1_555 1_555
Zn2_3 O4 1_555 1_555
H16 C19 1_555 1_555
C24 C19 1_555 1_555
H21 C24 1_555 1_555
O5 Zn2_3 1_555 1_555
O6 C38 1_555 1_555
O7 C37 1_555 1_555
H32 C36 1_555 1_555
C37 C41 1_555 1_555
C38 O5 1_555 1_555
C41 C36 1_555 1_555
H33 C41 1_555 1_555
C42 H35 1_555 1_555
C43 C36 1_555 1_555
H37 C43 1_555 1_555
H38 C44 1_555 1_555
H39 C45 1_555 1_555
C48 C45 1_555 1_555
H42 C48 1_555 1_555
Zn8 O5 1_555 1_555
O6 Zn8 1_555 1_555
C38 C43 1_555 1_555
C42 C44 1_555 1_555
C33 N6 1_555 1_555
H28 C33 1_555 1_555
C35 C31 1_555 1_555
H30 C35 1_555 1_555
Zn8 N6 1_555 1_555
C33 C35 1_555 1_555
O9 C4 1_555 1_555
O11 C4 1_555 1_555
O3 C3 1_555 1_555
N1 Zn2_4 1_555 1_555
C1_2 C10 1_555 1_555
H2 C2 1_555 1_555
C3 C7 1_555 1_555
C4 C13 1_555 1_555
C7 C2 1_555 1_555
H3 C7 1_555 1_555
C9 N1 1_555 1_555
H6 C9 1_555 1_555
C10 C9 1_555 1_555
H7 C10 1_555 1_555
C12 H9 1_555 1_555
C13 C2 1_555 1_555
H11 C13 1_555 1_555
H12 C14 1_555 1_555
H13 C15 1_555 1_555
C20 C15 1_555 1_555
H17 C20 1_555 1_555
C26_2 C1_2 1_555 1_555
C27 H23 1_555 1_555
C30 C26_2 1_555 1_555
H26 C30 1_555 1_555
C12 C14 1_555 1_555
C27 C30 1_555 1_555
N8 Zn8 1_555 1_555
C39 C40 1_555 1_555
C46 C39 1_555 1_555
H40 C46 1_555 1_555
C47 C40 1_555 1_555
H41 C47 1_555 1_555
C49 N8 1_555 1_555
H43 C49 1_555 1_555
C50 N7 1_555 1_555
H44 C50 1_555 1_555
C46 C50 1_555 1_555
C47 C49 1_555 1_555
Cl1 O14 1_555 1_555
O15 Cl1 1_555 1_555
O16 Cl1 1_555 1_555
O17 Cl1 1_555 1_555
Cl1_2 O14_2 1_555 1_555
O15_2 Cl1_2 1_555 1_555
O16_2 Cl1_2 1_555 1_555
O17_2 Cl1_2 1_555 1_555

#END
