
###############################################################################
#
# This file contains modified crystal structure data generated from the
# MOF subset of the Cambridge Structural Database (CSD) v543 
# hosted by the Cambridge Crystallographic Data Centre (CCDC).
#
# This work is licensed under the Creative Commons
# Attribution-NonCommercial-ShareAlike 4.0 International License.
# To view a copy of this license, visit
# http://creativecommons.org/licenses/by-nc-sa/4.0/
# or send a letter to
# Creative Commons, PO Box 1866, Mountain View, CA 94042, USA.
#
# CIF created using the CSD Python API on 29 September 2022
# The structure has been converted into the P1 space group
# The structure has a 3D framework
# The original CSD entry OZINAP is in the orthorhombic crystal system
# The framework has been calculated to contain at least 10.0% void space
# The void calculation uses a probe of radius 1.32A, grid spacing 0.4
# The framework is charged, counterions have been retained in the structure
#
###############################################################################

data_OZINAP
_chemical_formula_moiety         '(C62 H48 Ag4 N14 Sb6 4+)n'
_symmetry_cell_setting           triclinic
_symmetry_space_group_name_H-M   'P 1'
_symmetry_Int_Tables_number      1
_space_group_name_Hall           'P 1'
loop_
_symmetry_equiv_pos_site_id
_symmetry_equiv_pos_as_xyz
1 x,y,z
_cell_length_a                   13.3033(3)
_cell_length_b                   18.2923(6)
_cell_length_c                   11.1208(3)
_cell_angle_alpha                90
_cell_angle_beta                 90
_cell_angle_gamma                90
_cell_volume                     2706.22
loop_
_atom_site_label
_atom_site_type_symbol
_atom_site_fract_x
_atom_site_fract_y
_atom_site_fract_z
Sb1 Sb 0.41036(4) 0.68480(4) -0.000000
C6 C 0.3750(6) 0.5696(5) -0.000000
N2 N 0.3437(5) 0.4217(5) -0.000000
C9 C 0.3146(4) 0.7164(3) 0.1457(5)
C10 C 0.2243(6) 0.6833(7) 0.1607(9)
H7 H 0.198075 0.648902 0.104938
C11 C 0.1688(6) 0.7055(7) 0.2733(10)
H8 H 0.109738 0.679529 0.295485
N3 N 0.1980(4) 0.7568(3) 0.3381(5)
C12 C 0.2831(7) 0.7908(8) 0.3157(10)
H9 H 0.303122 0.829204 0.367955
C13 C 0.3444(6) 0.7736(5) 0.2206(8)
H10 H 0.405051 0.799672 0.206387
C14 C 0.3664(6) 0.5329(4) 0.1063(6)
H11 H 0.370200 0.557688 0.181181
C15 C 0.3522(6) 0.4593(4) 0.1008(6)
H12 H 0.348082 0.433182 0.174541
Ag2 Ag 0.10351(5) 0.79345(5) 0.500000
Ag3 Ag 0.39649(5) 0.29345(5) -0.000000
Ag4 Ag 0.60351(5) 0.70655(5) -0.000000
Sb1_2 Sb 0.41036(4) 0.68480(4) 1.000000
C1 C 0.3146(4) 0.7164(3) 0.8543(5)
C2 C 0.2243(6) 0.6833(7) 0.8393(9)
H1 H 0.198075 0.648902 0.895062
C3 C 0.1688(6) 0.7055(7) 0.7267(10)
H2 H 0.109738 0.679529 0.704515
N1 N 0.1980(4) 0.7568(3) 0.6619(5)
C4 C 0.2831(7) 0.7908(8) 0.6843(10)
H3 H 0.303122 0.829204 0.632045
C5 C 0.3444(6) 0.7736(5) 0.7794(8)
H4 H 0.405051 0.799672 0.793613
C6_2 C 0.3750(6) 0.5696(5) 1.000000
C7 C 0.3664(6) 0.5329(4) 0.8937(6)
H5 H 0.370200 0.557688 0.818819
C8 C 0.3522(6) 0.4593(4) 0.8992(6)
H6 H 0.348082 0.433182 0.825459
N2_2 N 0.3437(5) 0.4217(5) 1.000000
Ag3_2 Ag 0.39649(5) 0.29345(5) 1.000000
Ag4_2 Ag 0.60351(5) 0.70655(5) 1.000000
N5 N 0.1563(5) 0.9217(5) 0.500000
Sb2 Sb 0.91036(4) 0.81520(4) 0.500000
Sb2_2 Sb 0.08964(4) 0.18480(4) 0.500000
Sb1_3 Sb 0.58964(4) 0.31520(4) -0.000000
C6_3 C 0.6250(6) 0.4304(5) -0.000000
N2_3 N 0.6563(5) 0.5783(5) -0.000000
C9_2 C 0.6854(4) 0.2836(3) 0.1457(5)
C10_2 C 0.7757(6) 0.3167(7) 0.1607(9)
H7_2 H 0.801925 0.351098 0.104938
C11_2 C 0.8312(6) 0.2945(7) 0.2733(10)
H8_2 H 0.890262 0.320471 0.295485
N3_2 N 0.8020(4) 0.2432(3) 0.3381(5)
C12_2 C 0.7169(7) 0.2092(8) 0.3157(10)
H9_2 H 0.696878 0.170796 0.367955
C13_2 C 0.6556(6) 0.2264(5) 0.2206(8)
H10_2 H 0.594949 0.200328 0.206387
C14_2 C 0.6336(6) 0.4671(4) 0.1063(6)
H11_2 H 0.629800 0.442312 0.181181
C15_2 C 0.6478(6) 0.5407(4) 0.1008(6)
H12_2 H 0.651918 0.566818 0.174541
Ag2_2 Ag 0.89649(5) 0.20655(5) 0.500000
Sb1_4 Sb 0.58964(4) 0.31520(4) 1.000000
C1_2 C 0.6854(4) 0.2836(3) 0.8543(5)
C2_2 C 0.7757(6) 0.3167(7) 0.8393(9)
H1_2 H 0.801925 0.351098 0.895062
C3_2 C 0.8312(6) 0.2945(7) 0.7267(10)
H2_2 H 0.890262 0.320471 0.704515
N1_2 N 0.8020(4) 0.2432(3) 0.6619(5)
C4_2 C 0.7169(7) 0.2092(8) 0.6843(10)
H3_2 H 0.696878 0.170796 0.632045
C5_2 C 0.6556(6) 0.2264(5) 0.7794(8)
H4_2 H 0.594949 0.200328 0.793613
C6_4 C 0.6250(6) 0.4304(5) 1.000000
C7_2 C 0.6336(6) 0.4671(4) 0.8937(6)
H5_2 H 0.629800 0.442312 0.818819
C8_2 C 0.6478(6) 0.5407(4) 0.8992(6)
H6_2 H 0.651918 0.566818 0.825459
N2_4 N 0.6563(5) 0.5783(5) 1.000000
N5_2 N 0.8437(5) 0.0783(5) 0.500000
N4 N 0.3020(4) 0.2568(3) 0.1619(5)
C1_3 C 0.1854(4) 0.2164(3) 0.6457(5)
C2_3 C 0.2757(6) 0.1833(7) 0.6607(9)
H1_3 H 0.301925 0.148902 0.604938
C3_3 C 0.3312(6) 0.2055(7) 0.7733(10)
H2_3 H 0.390262 0.179529 0.795485
N1_3 N 0.3020(4) 0.2568(3) 0.8381(5)
C4_3 C 0.2169(7) 0.2908(8) 0.8157(10)
H3_3 H 0.196878 0.329204 0.867955
C5_3 C 0.1556(6) 0.2736(5) 0.7206(8)
H4_3 H 0.094949 0.299672 0.706387
C6_5 C 0.1250(6) 0.0696(5) 0.500000
C7_3 C 0.1336(6) 0.0329(4) 0.6063(6)
H5_3 H 0.129800 0.057688 0.681181
C9_3 C 0.1854(4) 0.2164(3) 0.3543(5)
C10_3 C 0.2757(6) 0.1833(7) 0.3393(9)
H7_3 H 0.301925 0.148902 0.395062
C11_3 C 0.3312(6) 0.2055(7) 0.2267(10)
H8_3 H 0.390262 0.179529 0.204515
C12_3 C 0.2169(7) 0.2908(8) 0.1843(10)
H9_3 H 0.196878 0.329204 0.132045
C13_3 C 0.1556(6) 0.2736(5) 0.2794(8)
H10_3 H 0.094949 0.299672 0.293613
C14_3 C 0.1336(6) 0.0329(4) 0.3937(6)
H11_3 H 0.129800 0.057688 0.318819
C8_3 C 0.1478(6) 0.9593(4) 0.6008(6)
H6_3 H 0.151918 0.933182 0.674541
C15_3 C 0.1478(6) 0.9593(4) 0.3992(6)
H12_3 H 0.151918 0.933182 0.325459
C8_4 C 0.8522(6) 0.0407(4) 0.6008(6)
H6_4 H 0.848082 0.066818 0.674541
C15_4 C 0.8522(6) 0.0407(4) 0.3992(6)
H12_4 H 0.848082 0.066818 0.325459
N4_2 N 0.6980(4) 0.7432(3) 0.1619(5)
C1_4 C 0.8146(4) 0.7836(3) 0.6457(5)
C2_4 C 0.7243(6) 0.8167(7) 0.6607(9)
H1_4 H 0.698075 0.851098 0.604938
C3_4 C 0.6688(6) 0.7945(7) 0.7733(10)
H2_4 H 0.609738 0.820471 0.795485
N1_4 N 0.6980(4) 0.7432(3) 0.8381(5)
C4_4 C 0.7831(7) 0.7092(8) 0.8157(10)
H3_4 H 0.803122 0.670796 0.867955
C5_4 C 0.8444(6) 0.7264(5) 0.7206(8)
H4_4 H 0.905051 0.700328 0.706387
C6_6 C 0.8750(6) 0.9304(5) 0.500000
C7_4 C 0.8664(6) 0.9671(4) 0.6063(6)
H5_4 H 0.870200 0.942312 0.681181
C9_4 C 0.8146(4) 0.7836(3) 0.3543(5)
C10_4 C 0.7243(6) 0.8167(7) 0.3393(9)
H7_4 H 0.698075 0.851098 0.395062
C11_4 C 0.6688(6) 0.7945(7) 0.2267(10)
H8_4 H 0.609738 0.820471 0.204515
C12_4 C 0.7831(7) 0.7092(8) 0.1843(10)
H9_4 H 0.803122 0.670796 0.132045
C13_4 C 0.8444(6) 0.7264(5) 0.2794(8)
H10_4 H 0.905051 0.700328 0.293613
C14_4 C 0.8664(6) 0.9671(4) 0.3937(6)
H11_4 H 0.870200 0.942312 0.318819
loop_
_geom_bond_atom_site_label_1
_geom_bond_atom_site_label_2
_geom_bond_site_symmetry_1
_geom_bond_site_symmetry_2
C6 Sb1 1_555 1_555
C9 Sb1 1_555 1_555
C10 C9 1_555 1_555
H7 C10 1_555 1_555
C11 C10 1_555 1_555
H8 C11 1_555 1_555
N3 C11 1_555 1_555
C12 N3 1_555 1_555
H9 C12 1_555 1_555
C13 C9 1_555 1_555
H10 C13 1_555 1_555
C14 C6 1_555 1_555
H11 C14 1_555 1_555
C15 N2 1_555 1_555
H12 C15 1_555 1_555
Ag2 N3 1_555 1_555
Ag3 N2 1_555 1_555
Ag4 Sb1 1_555 1_555
C12 C13 1_555 1_555
C14 C15 1_555 1_555
Sb1_2 C1 1_555 1_555
Ag2 N1 1_555 1_555
C1 C2 1_555 1_555
C2 H1 1_555 1_555
C3 C2 1_555 1_555
H2 C3 1_555 1_555
N1 C3 1_555 1_555
C4 N1 1_555 1_555
H3 C4 1_555 1_555
C5 C1 1_555 1_555
H4 C5 1_555 1_555
C6_2 Sb1_2 1_555 1_555
C7 C6_2 1_555 1_555
H5 C7 1_555 1_555
C8 C7 1_555 1_555
H6 C8 1_555 1_555
N2_2 C8 1_555 1_555
Ag3_2 N2_2 1_555 1_555
Ag4_2 Sb1_2 1_555 1_555
N5 Ag2 1_555 1_555
C4 C5 1_555 1_555
C6_3 Sb1_3 1_555 1_555
C9_2 Sb1_3 1_555 1_555
C10_2 C9_2 1_555 1_555
H7_2 C10_2 1_555 1_555
C11_2 C10_2 1_555 1_555
H8_2 C11_2 1_555 1_555
N3_2 C11_2 1_555 1_555
C12_2 N3_2 1_555 1_555
H9_2 C12_2 1_555 1_555
C13_2 C9_2 1_555 1_555
H10_2 C13_2 1_555 1_555
C14_2 C6_3 1_555 1_555
H11_2 C14_2 1_555 1_555
C15_2 N2_3 1_555 1_555
H12_2 C15_2 1_555 1_555
Ag2_2 N3_2 1_555 1_555
Ag4 N2_3 1_555 1_555
Ag3 Sb1_3 1_555 1_555
C12_2 C13_2 1_555 1_555
C14_2 C15_2 1_555 1_555
Sb1_4 C1_2 1_555 1_555
Ag2_2 N1_2 1_555 1_555
C1_2 C2_2 1_555 1_555
C2_2 H1_2 1_555 1_555
C3_2 C2_2 1_555 1_555
H2_2 C3_2 1_555 1_555
N1_2 C3_2 1_555 1_555
C4_2 N1_2 1_555 1_555
H3_2 C4_2 1_555 1_555
C5_2 C1_2 1_555 1_555
H4_2 C5_2 1_555 1_555
C6_4 Sb1_4 1_555 1_555
C7_2 C6_4 1_555 1_555
H5_2 C7_2 1_555 1_555
C8_2 C7_2 1_555 1_555
H6_2 C8_2 1_555 1_555
N2_4 C8_2 1_555 1_555
Ag4_2 N2_4 1_555 1_555
Ag3_2 Sb1_4 1_555 1_555
N5_2 Ag2_2 1_555 1_555
C4_2 C5_2 1_555 1_555
N4 Ag3 1_555 1_555
Sb2_2 C1_3 1_555 1_555
Ag3_2 N1_3 1_555 1_555
C1_3 C2_3 1_555 1_555
C2_3 H1_3 1_555 1_555
C3_3 C2_3 1_555 1_555
H2_3 C3_3 1_555 1_555
N1_3 C3_3 1_555 1_555
C4_3 N1_3 1_555 1_555
H3_3 C4_3 1_555 1_555
C5_3 C1_3 1_555 1_555
H4_3 C5_3 1_555 1_555
C6_5 Sb2_2 1_555 1_555
C7_3 C6_5 1_555 1_555
H5_3 C7_3 1_555 1_555
C9_3 Sb2_2 1_555 1_555
C10_3 C9_3 1_555 1_555
H7_3 C10_3 1_555 1_555
C11_3 C10_3 1_555 1_555
H8_3 C11_3 1_555 1_555
N4 C11_3 1_555 1_555
C12_3 N4 1_555 1_555
H9_3 C12_3 1_555 1_555
C13_3 C9_3 1_555 1_555
H10_3 C13_3 1_555 1_555
C14_3 C6_5 1_555 1_555
H11_3 C14_3 1_555 1_555
C4_3 C5_3 1_555 1_555
C12_3 C13_3 1_555 1_555
H6_3 C8_3 1_555 1_555
N5 C8_3 1_555 1_555
C15_3 N5 1_555 1_555
H12_3 C15_3 1_555 1_555
H6_4 C8_4 1_555 1_555
N5_2 C8_4 1_555 1_555
C15_4 N5_2 1_555 1_555
H12_4 C15_4 1_555 1_555
N4_2 Ag4 1_555 1_555
Sb2 C1_4 1_555 1_555
Ag4_2 N1_4 1_555 1_555
C1_4 C2_4 1_555 1_555
C2_4 H1_4 1_555 1_555
C3_4 C2_4 1_555 1_555
H2_4 C3_4 1_555 1_555
N1_4 C3_4 1_555 1_555
C4_4 N1_4 1_555 1_555
H3_4 C4_4 1_555 1_555
C5_4 C1_4 1_555 1_555
H4_4 C5_4 1_555 1_555
C6_6 Sb2 1_555 1_555
C7_4 C6_6 1_555 1_555
H5_4 C7_4 1_555 1_555
C9_4 Sb2 1_555 1_555
C10_4 C9_4 1_555 1_555
H7_4 C10_4 1_555 1_555
C11_4 C10_4 1_555 1_555
H8_4 C11_4 1_555 1_555
N4_2 C11_4 1_555 1_555
C12_4 N4_2 1_555 1_555
H9_4 C12_4 1_555 1_555
C13_4 C9_4 1_555 1_555
H10_4 C13_4 1_555 1_555
C14_4 C6_6 1_555 1_555
H11_4 C14_4 1_555 1_555
C4_4 C5_4 1_555 1_555
C12_4 C13_4 1_555 1_555

#END
