
###############################################################################
#
# This file contains modified crystal structure data generated from the
# MOF subset of the Cambridge Structural Database (CSD) v543 
# hosted by the Cambridge Crystallographic Data Centre (CCDC).
#
# This work is licensed under the Creative Commons
# Attribution-NonCommercial-ShareAlike 4.0 International License.
# To view a copy of this license, visit
# http://creativecommons.org/licenses/by-nc-sa/4.0/
# or send a letter to
# Creative Commons, PO Box 1866, Mountain View, CA 94042, USA.
#
# CIF created using the CSD Python API on 29 September 2022
# The structure has been converted into the P1 space group
# The structure has a 3D framework
# The original CSD entry OZIPAQ is in the triclinic crystal system
# The framework has been calculated to contain at least 10.0% void space
# The void calculation uses a probe of radius 1.32A, grid spacing 0.4
# H atom positions have been added when not included in the experimental data
#
###############################################################################

data_OZIPAQ
_chemical_formula_moiety         '(C38 H26 Cu3 N5 O8)n'
_symmetry_cell_setting           triclinic
_symmetry_space_group_name_H-M   'P 1'
_symmetry_Int_Tables_number      1
_space_group_name_Hall           'P 1'
loop_
_symmetry_equiv_pos_site_id
_symmetry_equiv_pos_as_xyz
1 x,y,z
_cell_length_a                   6.7553(6)
_cell_length_b                   12.8479(11)
_cell_length_c                   13.0253(11)
_cell_angle_alpha                115.9930(10)
_cell_angle_beta                 95.4750(10)
_cell_angle_gamma                99.5490(10)
_cell_volume                     983.866
loop_
_atom_site_label
_atom_site_type_symbol
_atom_site_fract_x
_atom_site_fract_y
_atom_site_fract_z
N4 N 0.0830(7) 0.1122(4) 0.3695(4)
Cu7 Cu 0.28023(10) 0.17625(7) 0.29991(6)
H6 H 0.0338571 0.28066 0.478649
C9 C 0.1513(9) 0.0539(5) 0.6384(5)
C13 C 0.4401(9) 0.0314(5) 0.5332(5)
C22 C 0.7404(9) 0.0206(5) 0.4373(5)
C23 C 0.8129(9) 0.1440(5) 0.4811(5)
C24 C 0.9804(9) 0.1849(5) 0.4450(5)
H1 H 0.737984 0.206216 0.54251
H5 H 0.19985 0.150083 0.673317
H12 H 0.480164 0.127731 0.567447
Cu1 Cu 0.5000 0.5000 0.5000
O1 O 0.5921(6) 0.3895(3) 0.5482(3)
O2 O 0.5612(7) 0.3238(4) 0.6798(4)
N1 N 0.3105(6) 0.5097(4) 0.6095(4)
C1 C 0.5131(8) 0.3805(5) 0.6310(5)
C2 C 0.3430(8) 0.4458(5) 0.6645(5)
C3 C 0.2255(9) 0.4348(5) 0.7426(5)
C4 C 0.0663(9) 0.4947(5) 0.7637(5)
C5 C 0.0304(8) 0.5600(5) 0.7062(4)
C6 C 0.1555(8) 0.5666(5) 0.6298(5)
C10 C 0.2596(9) 0.9794(5) 0.5627(5)
C11 C 0.1871(9) 0.8560(5) 0.5189(5)
C12 C 0.0196(9) 0.8151(5) 0.5550(5)
C21 C 0.8487(9) 0.9461(5) 0.3616(5)
C25 C 0.5599(9) 0.9686(5) 0.4668(5)
O9 O 0.4079(6) 0.6105(3) 0.4518(3)
O10 O 0.8094(6) 0.6615(3) 0.6543(3)
O11 O 0.1906(6) 0.3385(3) 0.3457(3)
N7 N 0.6895(6) 0.4903(4) 0.3905(4)
H10 H 0.519836 0.872269 0.432553
H13 H 0.255724 0.381695 0.785858
H21 H 0.128595 0.618771 0.584997
H25 H 0.262016 0.793784 0.45749
H26 H 0.80015 0.849917 0.326683
Cu2 Cu 0.71977(10) 0.82375(7) 0.70009(6)
O4 O 0.7819(7) 0.6402(4) 0.8137(4)
N2 N 0.9170(7) 0.8878(4) 0.6305(4)
N3 N 0.5164(7) 0.8642(4) 0.7948(4)
C7 C 0.8585(8) 0.6264(5) 0.7276(5)
C14 C 0.4477(9) 0.9635(6) 0.8118(5)
C15 C 0.2965(9) 0.9973(6) 0.8756(5)
C16 C 0.2100(8) 0.9275(5) 0.9251(5)
C17 C 0.2865(9) 0.8289(5) 0.9113(5)
C18 C 0.4401(8) 0.8010(5) 0.8461(5)
C19 C 0.0437(9) 0.9544(6) 0.9919(5)
H3 H 0.966143 0.71934 0.521351
H15 H 0.971422 0.489701 0.825196
H16 H 0.227204 0.774138 0.950917
H17 H 0.500001 0.724329 0.83682
N5 N 0.4836(7) 0.1358(4) 0.2052(4)
C26 C 0.5523(9) 0.0365(6) 0.1882(5)
C27 C 0.7035(9) 0.0027(6) 0.1244(5)
C28 C 0.7900(8) 0.0725(5) 0.0749(5)
C29 C 0.7135(9) 0.1711(5) 0.0887(5)
C30 C 0.5599(8) 0.1990(5) 0.1539(5)
C31 C 0.9563(9) 0.0456(6) 0.0081(5)
O8 O 0.2181(7) 0.3598(4) 0.1863(4)
C38 C 0.1415(8) 0.3736(5) 0.2724(5)
H9 H 0.0285776 0.510299 0.174804
H18 H 0.499999 0.275671 0.16318
H24 H 0.772796 0.225862 0.0490835
O6 O 0.4388(7) 0.6762(4) 0.3202(4)
C32 C 0.4869(8) 0.6195(5) 0.3690(5)
C33 C 0.6570(8) 0.5542(5) 0.3355(5)
C34 C 0.7745(9) 0.5652(5) 0.2574(5)
C35 C 0.9337(9) 0.5053(5) 0.2363(5)
C36 C 0.9696(8) 0.4400(5) 0.2938(4)
C37 C 0.8445(8) 0.4334(5) 0.3702(5)
H4 H 0.744276 0.618305 0.214142
H7 H 0.871405 0.381229 0.415003
C20 C 0.0178(9) 0.9952(5) 0.3313(5)
H20 H 0.101215 0.935645 0.273741
H2 H 0.485674 0.981766 0.226257
H14 H 0.754674 0.92287 0.112781
H19 H 0.989314 0.897162 0.0299474
C8 C 0.9822(9) 0.0048(5) 0.6687(5)
H8 H 0.245326 0.0771296 0.887219
H11 H 0.898785 0.0643552 0.726259
H22 H 0.0106855 0.102838 0.970053
H23 H 0.514326 0.0182339 0.773743
loop_
_geom_bond_atom_site_label_1
_geom_bond_atom_site_label_2
_geom_bond_site_symmetry_1
_geom_bond_site_symmetry_2
Cu7 N4 1_555 1_555
C22 C23 1_555 1_555
C23 C24 1_555 1_555
C23 H1 1_555 1_555
C9 H5 1_555 1_555
C13 H12 1_555 1_555
Cu1 O1 1_555 1_555
O1 C1 1_555 1_555
O2 C1 1_555 1_555
N1 Cu1 1_555 1_555
C1 C2 1_555 1_555
C2 N1 1_555 1_555
C3 C2 1_555 1_555
C4 C3 1_555 1_555
C5 C4 1_555 1_555
C6 N1 1_555 1_555
C11 C10 1_555 1_555
O9 Cu1 1_555 1_555
O10 Cu1 1_555 1_555
O11 Cu1 1_555 1_555
N7 Cu1 1_555 1_555
C5 C6 1_555 1_555
C11 C12 1_555 1_555
C25 H10 1_555 1_555
C3 H13 1_555 1_555
C6 H21 1_555 1_555
C11 H25 1_555 1_555
C21 H26 1_555 1_555
Cu2 O10 1_555 1_555
O10 C7 1_555 1_555
O4 C7 1_555 1_555
N2 Cu2 1_555 1_555
N3 Cu2 1_555 1_555
C14 N3 1_555 1_555
C15 C14 1_555 1_555
C16 C15 1_555 1_555
C17 C16 1_555 1_555
C18 N3 1_555 1_555
C19 C16 1_555 1_555
C17 C18 1_555 1_555
C17 H16 1_555 1_555
C18 H17 1_555 1_555
N5 C26 1_555 1_555
C26 C27 1_555 1_555
C27 C28 1_555 1_555
C28 C29 1_555 1_555
C29 C30 1_555 1_555
C30 N5 1_555 1_555
Cu7 N5 1_555 1_555
O11 Cu7 1_555 1_555
O8 C38 1_555 1_555
C38 O11 1_555 1_555
C28 C31 1_555 1_555
C30 H18 1_555 1_555
C29 H24 1_555 1_555
O9 C32 1_555 1_555
O6 C32 1_555 1_555
N7 C33 1_555 1_555
C32 C33 1_555 1_555
C33 C34 1_555 1_555
C34 C35 1_555 1_555
C35 C36 1_555 1_555
C36 C37 1_555 1_555
C37 N7 1_555 1_555
C34 H4 1_555 1_555
C37 H7 1_555 1_555
C20 H20 1_555 1_555
C8 H11 1_555 1_555

#END
