
###############################################################################
#
# This file contains modified crystal structure data generated from the
# MOF subset of the Cambridge Structural Database (CSD) v543 
# hosted by the Cambridge Crystallographic Data Centre (CCDC).
#
# This work is licensed under the Creative Commons
# Attribution-NonCommercial-ShareAlike 4.0 International License.
# To view a copy of this license, visit
# http://creativecommons.org/licenses/by-nc-sa/4.0/
# or send a letter to
# Creative Commons, PO Box 1866, Mountain View, CA 94042, USA.
#
# CIF created using the CSD Python API on 29 September 2022
# The structure has been converted into the P1 space group
# The structure has a 3D framework
# The original CSD entry OZOPAX is in the tetragonal crystal system
# The framework has been calculated to contain at least 10.0% void space
# The void calculation uses a probe of radius 1.32A, grid spacing 0.4
#
###############################################################################

data_OZOPAX
_chemical_formula_moiety         '(C184 H128 Ag2 N16)n'
_symmetry_cell_setting           triclinic
_symmetry_space_group_name_H-M   'P 1'
_symmetry_Int_Tables_number      1
_space_group_name_Hall           'P 1'
loop_
_symmetry_equiv_pos_site_id
_symmetry_equiv_pos_as_xyz
1 x,y,z
_cell_length_a                   13.1291(10)
_cell_length_b                   13.1291(10)
_cell_length_c                   25.700(3)
_cell_angle_alpha                90
_cell_angle_beta                 90
_cell_angle_gamma                90
_cell_volume                     4429.99
loop_
_atom_site_label
_atom_site_type_symbol
_atom_site_fract_x
_atom_site_fract_y
_atom_site_fract_z
C16 C 0.0211(4) 0.0787(4) 0.93309(17)
H11 H 0.0909 0.0903 0.9352
C25 C 0.0089(3) 0.1204(4) 0.59905(16)
H18 H 0.0598 0.1506 0.6189
H21 H 0.1275 0.0577 0.6763
Ag1 Ag 0.7500 0.2500 0.0000
N6 N 0.8727(2) 0.3555(3) 0.03915(11)
N7 N 0.6273(2) 0.1445(3) 0.03915(11)
Ag1_2 Ag 0.7500 0.2500 1.0000
N1 N 0.6445(3) 0.3727(2) 0.96085(11)
C1 C 0.6810(3) 0.4443(4) 0.93119(18)
H1 H 0.7513 0.4530 0.9300
C2 C 0.6204(4) 0.5089(3) 0.90095(16)
H2 H 0.6506 0.5598 0.8811
C3 C 0.5172(3) 0.4974(3) 0.90060(13)
C4 C 0.4789(4) 0.4213(4) 0.93309(17)
H3 H 0.4091 0.4097 0.9352
C5 C 0.5452(4) 0.3643(4) 0.96168(16)
H4 H 0.5176 0.3153 0.9836
C6 C 0.4493(3) 0.5618(3) 0.86837(13)
C7 C 0.4879(3) 0.6262(3) 0.82989(15)
H5 H 0.5577 0.6275 0.8237
C8 C 0.4252(4) 0.6873(4) 0.80113(14)
H6 H 0.4537 0.7311 0.7767
C9 C 0.3207(4) 0.6857(3) 0.80738(12)
C10 C 0.2817(4) 0.6202(4) 0.84543(17)
H7 H 0.2116 0.6157 0.8503
C11 C 0.3458(3) 0.5624(4) 0.87569(16)
H8 H 0.3181 0.5225 0.9020
C12 C 0.2500 0.7500 0.77654(18)
C18 C 0.0507(3) 0.9382(3) 0.86837(13)
C19 C 0.0121(3) 0.8738(3) 0.82989(15)
C20 C 0.0748(4) 0.8127(4) 0.80113(14)
H14 H 0.0463 0.7689 0.7767
C21 C 0.1793(4) 0.8143(3) 0.80738(12)
C22 C 0.2183(4) 0.8798(4) 0.84543(17)
H15 H 0.2884 0.8843 0.8503
C23 C 0.1542(3) 0.9376(4) 0.87569(16)
H16 H 0.1819 0.9775 0.9020
C29 C 0.0618(3) 0.9493(3) 0.63163(13)
C30 C 0.1262(3) 0.9879(3) 0.67011(15)
C31 C 0.1873(4) 0.9252(4) 0.69887(14)
H22 H 0.2311 0.9537 0.7233
C32 C 0.1857(3) 0.8207(4) 0.69262(12)
C33 C 0.1202(4) 0.7817(4) 0.65457(17)
H23 H 0.1157 0.7116 0.6497
C34 C 0.0624(4) 0.8458(3) 0.62431(16)
H24 H 0.0225 0.8181 0.5980
C35 C 0.2500 0.7500 0.72346(18)
N4 N 0.6273(2) 0.3555(3) 0.53915(11)
C36 C 0.5557(4) 0.3190(3) 0.56881(18)
H25 H 0.5470 0.2487 0.5700
C37 C 0.4911(3) 0.3796(4) 0.59905(16)
H26 H 0.4402 0.3494 0.6189
C38 C 0.5026(3) 0.4828(3) 0.59940(13)
C39 C 0.5787(4) 0.5211(4) 0.56691(17)
H27 H 0.5903 0.5909 0.5648
C40 C 0.6357(4) 0.4548(4) 0.53832(16)
H28 H 0.6847 0.4824 0.5164
C41 C 0.4382(3) 0.5507(3) 0.63163(13)
C42 C 0.3738(3) 0.5121(3) 0.67011(15)
H29 H 0.3725 0.4423 0.6763
C43 C 0.3127(4) 0.5748(4) 0.69887(14)
H30 H 0.2689 0.5463 0.7233
C44 C 0.3143(3) 0.6793(4) 0.69262(12)
C45 C 0.3798(4) 0.7183(4) 0.65457(17)
H31 H 0.3843 0.7884 0.6497
C46 C 0.4376(4) 0.6542(3) 0.62431(16)
H32 H 0.4775 0.6819 0.5980
Ag4 Ag 0.7500 0.2500 0.5000
N5 N 0.8555(3) 0.1273(2) 0.96085(11)
C13 C 0.8190(3) 0.0557(4) 0.93119(18)
H9 H 0.7487 0.0470 0.9300
C15 C 0.9828(3) 0.0026(3) 0.90060(13)
C17 C 0.9548(4) 0.1357(4) 0.96168(16)
H12 H 0.9824 0.1847 0.9836
N3 N 0.8727(2) 0.1445(3) 0.53915(11)
C24 C 0.9443(4) 0.1810(3) 0.56881(18)
H17 H 0.9530 0.2513 0.5700
C26 C 0.9974(3) 0.0172(3) 0.59940(13)
C28 C 0.8643(4) 0.0452(4) 0.53832(16)
H20 H 0.8153 0.0176 0.5164
N6_2 N 0.8555(3) 0.3727(2) 0.46085(11)
N7_2 N 0.6445(3) 0.1273(2) 0.46085(11)
C13_2 C 0.5557(4) 0.1810(3) 0.06881(18)
H9_2 H 0.5470 0.2513 0.0700
C14 C 0.4911(3) 0.1204(4) 0.09905(16)
H10 H 0.4402 0.1506 0.1189
C15_2 C 0.5026(3) 0.0172(3) 0.09940(13)
C17_2 C 0.6357(4) 0.0452(4) 0.03832(16)
H12_2 H 0.6847 0.0176 0.0164
H13 H 0.3725 0.0577 0.1763
C24_2 C 0.6810(3) 0.0557(4) 0.43119(18)
H17_2 H 0.7513 0.0470 0.4300
C26_2 C 0.5172(3) 0.0026(3) 0.40060(13)
C27 C 0.4789(4) 0.0787(4) 0.43309(17)
H19 H 0.4091 0.0903 0.4352
C28_2 C 0.5452(4) 0.1357(4) 0.46168(16)
H20_2 H 0.5176 0.1847 0.4836
C1_2 C 0.9443(4) 0.3190(3) 0.06881(18)
H1_2 H 0.9530 0.2487 0.0700
C3_2 C 0.9974(3) 0.4828(3) 0.09940(13)
C4_2 C 0.9213(4) 0.5211(4) 0.06691(17)
H3_2 H 0.9097 0.5909 0.0648
C5_2 C 0.8643(4) 0.4548(4) 0.03832(16)
H4_2 H 0.8153 0.4824 0.0164
C36_2 C 0.8190(3) 0.4443(4) 0.43119(18)
H25_2 H 0.7487 0.4530 0.4300
C37_2 C 0.8796(4) 0.5089(3) 0.40095(16)
H26_2 H 0.8494 0.5598 0.3811
C38_2 C 0.9828(3) 0.4974(3) 0.40060(13)
C40_2 C 0.9548(4) 0.3643(4) 0.46168(16)
H28_2 H 0.9824 0.3153 0.4836
H29_2 H 0.9423 0.6275 0.3237
C14_2 C 0.8796(4) 0.9911(3) 0.90095(16)
H10_2 H 0.8494 0.9402 0.8811
H13_2 H 0.9423 0.8725 0.8237
C27_2 C 0.9213(4) 0.9789(4) 0.56691(17)
H19_2 H 0.9097 0.9091 0.5648
Ag1_3 Ag 0.2500 0.7500 0.0000
N6_3 N 0.1445(3) 0.8727(2) 0.03915(11)
N7_3 N 0.3555(3) 0.6273(2) 0.03915(11)
Ag1_4 Ag 0.2500 0.7500 1.0000
N1_2 N 0.1273(2) 0.6445(3) 0.96085(11)
C1_3 C 0.0557(4) 0.6810(3) 0.93119(18)
H1_3 H 0.0470 0.7513 0.9300
C3_3 C 0.0026(3) 0.5172(3) 0.90060(13)
C4_3 C 0.0787(4) 0.4789(4) 0.93309(17)
H3_3 H 0.0903 0.4091 0.9352
C5_3 C 0.1357(4) 0.5452(4) 0.96168(16)
H4_3 H 0.1847 0.5176 0.9836
N4_2 N 0.1445(3) 0.6273(2) 0.53915(11)
C36_3 C 0.1810(3) 0.5557(4) 0.56881(18)
H25_3 H 0.2513 0.5470 0.5700
C37_3 C 0.1204(4) 0.4911(3) 0.59905(16)
H26_3 H 0.1506 0.4402 0.6189
C38_3 C 0.0172(3) 0.5026(3) 0.59940(13)
C40_3 C 0.0452(4) 0.6357(4) 0.53832(16)
H28_3 H 0.0176 0.6847 0.5164
H29_3 H 0.0577 0.3725 0.6763
Ag4_2 Ag 0.2500 0.7500 0.5000
N5_2 N 0.3727(2) 0.8555(3) 0.96085(11)
C13_3 C 0.4443(4) 0.8190(3) 0.93119(18)
H9_3 H 0.4530 0.7487 0.9300
C14_3 C 0.5089(3) 0.8796(4) 0.90095(16)
H10_3 H 0.5598 0.8494 0.8811
C15_3 C 0.4974(3) 0.9828(3) 0.90060(13)
C17_3 C 0.3643(4) 0.9548(4) 0.96168(16)
H12_3 H 0.3153 0.9824 0.9836
H13_3 H 0.6275 0.9423 0.8237
N3_2 N 0.3555(3) 0.8727(2) 0.53915(11)
C24_3 C 0.3190(3) 0.9443(4) 0.56881(18)
H17_3 H 0.2487 0.9530 0.5700
C26_3 C 0.4828(3) 0.9974(3) 0.59940(13)
C27_3 C 0.5211(4) 0.9213(4) 0.56691(17)
H19_3 H 0.5909 0.9097 0.5648
C28_3 C 0.4548(4) 0.8643(4) 0.53832(16)
H20_3 H 0.4824 0.8153 0.5164
N6_4 N 0.1273(2) 0.8555(3) 0.46085(11)
N7_4 N 0.3727(2) 0.6445(3) 0.46085(11)
C13_4 C 0.1810(3) 0.9443(4) 0.06881(18)
H9_4 H 0.2513 0.9530 0.0700
C15_4 C 0.0172(3) 0.9974(3) 0.09940(13)
C17_4 C 0.0452(4) 0.8643(4) 0.03832(16)
H12_4 H 0.0176 0.8153 0.0164
C24_4 C 0.0557(4) 0.8190(3) 0.43119(18)
H17_4 H 0.0470 0.7487 0.4300
C26_4 C 0.0026(3) 0.9828(3) 0.40060(13)
C28_4 C 0.1357(4) 0.9548(4) 0.46168(16)
H20_4 H 0.1847 0.9824 0.4836
C1_4 C 0.3190(3) 0.5557(4) 0.06881(18)
H1_4 H 0.2487 0.5470 0.0700
C2_2 C 0.3796(4) 0.4911(3) 0.09905(16)
H2_2 H 0.3494 0.4402 0.1189
C3_4 C 0.4828(3) 0.5026(3) 0.09940(13)
C4_4 C 0.5211(4) 0.5787(4) 0.06691(17)
H3_4 H 0.5909 0.5903 0.0648
C5_4 C 0.4548(4) 0.6357(4) 0.03832(16)
H4_4 H 0.4824 0.6847 0.0164
C6_2 C 0.5507(3) 0.4382(3) 0.13163(13)
C7_2 C 0.5121(3) 0.3738(3) 0.17011(15)
H5_2 H 0.4423 0.3725 0.1763
C8_2 C 0.5748(4) 0.3127(4) 0.19887(14)
H6_2 H 0.5463 0.2689 0.2233
C9_2 C 0.6793(4) 0.3143(3) 0.19262(12)
C10_2 C 0.7183(4) 0.3798(4) 0.15457(17)
H7_2 H 0.7884 0.3843 0.1497
C11_2 C 0.6542(3) 0.4376(4) 0.12431(16)
H8_2 H 0.6819 0.4775 0.0980
C12_2 C 0.7500 0.2500 0.22346(18)
C18_2 C 0.9493(3) 0.0618(3) 0.13163(13)
C19_2 C 0.9879(3) 0.1262(3) 0.17011(15)
C20_2 C 0.9252(4) 0.1873(4) 0.19887(14)
H14_2 H 0.9537 0.2311 0.2233
C21_2 C 0.8207(4) 0.1857(3) 0.19262(12)
C22_2 C 0.7817(4) 0.1202(4) 0.15457(17)
H15_2 H 0.7116 0.1157 0.1497
C23_2 C 0.8458(3) 0.0624(4) 0.12431(16)
H16_2 H 0.8181 0.0225 0.0980
C29_2 C 0.9382(3) 0.0507(3) 0.36837(13)
C30_2 C 0.8738(3) 0.0121(3) 0.32989(15)
C31_2 C 0.8127(4) 0.0748(4) 0.30113(14)
H22_2 H 0.7689 0.0463 0.2767
C32_2 C 0.8143(3) 0.1793(4) 0.30738(12)
C33_2 C 0.8798(4) 0.2183(4) 0.34543(17)
H23_2 H 0.8843 0.2884 0.3503
C34_2 C 0.9376(4) 0.1542(3) 0.37569(16)
H24_2 H 0.9775 0.1819 0.4020
C35_2 C 0.7500 0.2500 0.27654(18)
C36_4 C 0.4443(4) 0.6810(3) 0.43119(18)
H25_4 H 0.4530 0.7513 0.4300
C37_4 C 0.5089(3) 0.6204(4) 0.40095(16)
H26_4 H 0.5598 0.6506 0.3811
C38_4 C 0.4974(3) 0.5172(3) 0.40060(13)
C39_2 C 0.4213(4) 0.4789(4) 0.43309(17)
H27_2 H 0.4097 0.4091 0.4352
C40_4 C 0.3643(4) 0.5452(4) 0.46168(16)
H28_4 H 0.3153 0.5176 0.4836
C41_2 C 0.5618(3) 0.4493(3) 0.36837(13)
C42_2 C 0.6262(3) 0.4879(3) 0.32989(15)
H29_4 H 0.6275 0.5577 0.3237
C43_2 C 0.6873(4) 0.4252(4) 0.30113(14)
H30_2 H 0.7311 0.4537 0.2767
C44_2 C 0.6857(3) 0.3207(4) 0.30738(12)
C45_2 C 0.6202(4) 0.2817(4) 0.34543(17)
H31_2 H 0.6157 0.2116 0.3503
C46_2 C 0.5624(4) 0.3458(3) 0.37569(16)
H32_2 H 0.5225 0.3181 0.4020
C2_3 C 0.9911(3) 0.6204(4) 0.90095(16)
H2_3 H 0.9402 0.6506 0.8811
C6_3 C 0.9382(3) 0.4493(3) 0.86837(13)
C7_3 C 0.8738(3) 0.4879(3) 0.82989(15)
H5_3 H 0.8725 0.5577 0.8237
C8_3 C 0.8127(4) 0.4252(4) 0.80113(14)
H6_3 H 0.7689 0.4537 0.7767
C9_3 C 0.8143(3) 0.3207(4) 0.80738(12)
C10_3 C 0.8798(4) 0.2817(4) 0.84543(17)
H7_3 H 0.8843 0.2116 0.8503
C11_3 C 0.9376(4) 0.3458(3) 0.87569(16)
H8_3 H 0.9775 0.3181 0.9020
C12_3 C 0.7500 0.2500 0.77654(18)
C16_2 C 0.4213(4) 0.0211(4) 0.93309(17)
H11_2 H 0.4097 0.0909 0.9352
C18_3 C 0.5618(3) 0.0507(3) 0.86837(13)
C19_3 C 0.6262(3) 0.0121(3) 0.82989(15)
C20_3 C 0.6873(4) 0.0748(4) 0.80113(14)
H14_3 H 0.7311 0.0463 0.7767
C21_3 C 0.6857(3) 0.1793(4) 0.80738(12)
C22_3 C 0.6202(4) 0.2183(4) 0.84543(17)
H15_3 H 0.6157 0.2884 0.8503
C23_3 C 0.5624(4) 0.1542(3) 0.87569(16)
H16_3 H 0.5225 0.1819 0.9020
C25_2 C 0.3796(4) 0.0089(3) 0.59905(16)
H18_2 H 0.3494 0.0598 0.6189
C29_3 C 0.5507(3) 0.0618(3) 0.63163(13)
C30_3 C 0.5121(3) 0.1262(3) 0.67011(15)
H21_2 H 0.4423 0.1275 0.6763
C31_3 C 0.5748(4) 0.1873(4) 0.69887(14)
H22_3 H 0.5463 0.2311 0.7233
C32_3 C 0.6793(4) 0.1857(3) 0.69262(12)
C33_3 C 0.7183(4) 0.1202(4) 0.65457(17)
H23_3 H 0.7884 0.1157 0.6497
C34_3 C 0.6542(3) 0.0624(4) 0.62431(16)
H24_3 H 0.6819 0.0225 0.5980
C35_3 C 0.7500 0.2500 0.72346(18)
C39_3 C 0.9789(4) 0.5787(4) 0.56691(17)
H27_3 H 0.9091 0.5903 0.5648
C41_3 C 0.9493(3) 0.4382(3) 0.63163(13)
C42_3 C 0.9879(3) 0.3738(3) 0.67011(15)
C43_3 C 0.9252(4) 0.3127(4) 0.69887(14)
H30_3 H 0.9537 0.2689 0.7233
C44_3 C 0.8207(4) 0.3143(3) 0.69262(12)
C45_3 C 0.7817(4) 0.3798(4) 0.65457(17)
H31_3 H 0.7116 0.3843 0.6497
C46_3 C 0.8458(3) 0.4376(4) 0.62431(16)
H32_3 H 0.8181 0.4775 0.5980
C14_4 C 0.1204(4) 0.0089(3) 0.09905(16)
H10_4 H 0.1506 0.0598 0.1189
H13_4 H 0.0577 0.1275 0.1763
C27_4 C 0.0787(4) 0.0211(4) 0.43309(17)
H19_4 H 0.0903 0.0909 0.4352
C16_3 C 0.9789(4) 0.9213(4) 0.06691(17)
H11_3 H 0.9091 0.9097 0.0648
C25_3 C 0.9911(3) 0.8796(4) 0.40095(16)
H18_3 H 0.9402 0.8494 0.3811
H21_3 H 0.8725 0.9423 0.3237
C2_4 C 0.0089(3) 0.3796(4) 0.09905(16)
H2_4 H 0.0598 0.3494 0.1189
C6_4 C 0.0618(3) 0.5507(3) 0.13163(13)
C7_4 C 0.1262(3) 0.5121(3) 0.17011(15)
H5_4 H 0.1275 0.4423 0.1763
C8_4 C 0.1873(4) 0.5748(4) 0.19887(14)
H6_4 H 0.2311 0.5463 0.2233
C9_4 C 0.1857(3) 0.6793(4) 0.19262(12)
C10_4 C 0.1202(4) 0.7183(4) 0.15457(17)
H7_4 H 0.1157 0.7884 0.1497
C11_4 C 0.0624(4) 0.6542(3) 0.12431(16)
H8_4 H 0.0225 0.6819 0.0980
C12_4 C 0.2500 0.7500 0.22346(18)
C16_4 C 0.5787(4) 0.9789(4) 0.06691(17)
H11_4 H 0.5903 0.9091 0.0648
C18_4 C 0.4382(3) 0.9493(3) 0.13163(13)
C19_4 C 0.3738(3) 0.9879(3) 0.17011(15)
C20_4 C 0.3127(4) 0.9252(4) 0.19887(14)
H14_4 H 0.2689 0.9537 0.2233
C21_4 C 0.3143(3) 0.8207(4) 0.19262(12)
C22_4 C 0.3798(4) 0.7817(4) 0.15457(17)
H15_4 H 0.3843 0.7116 0.1497
C23_4 C 0.4376(4) 0.8458(3) 0.12431(16)
H16_4 H 0.4775 0.8181 0.0980
C25_4 C 0.6204(4) 0.9911(3) 0.40095(16)
H18_4 H 0.6506 0.9402 0.3811
C29_4 C 0.4493(3) 0.9382(3) 0.36837(13)
C30_4 C 0.4879(3) 0.8738(3) 0.32989(15)
H21_4 H 0.5577 0.8725 0.3237
C31_4 C 0.4252(4) 0.8127(4) 0.30113(14)
H22_4 H 0.4537 0.7689 0.2767
C32_4 C 0.3207(4) 0.8143(3) 0.30738(12)
C33_4 C 0.2817(4) 0.8798(4) 0.34543(17)
H23_4 H 0.2116 0.8843 0.3503
C34_4 C 0.3458(3) 0.9376(4) 0.37569(16)
H24_4 H 0.3181 0.9775 0.4020
C35_4 C 0.2500 0.7500 0.27654(18)
C39_4 C 0.0211(4) 0.4213(4) 0.43309(17)
H27_4 H 0.0909 0.4097 0.4352
C41_4 C 0.0507(3) 0.5618(3) 0.36837(13)
C42_4 C 0.0121(3) 0.6262(3) 0.32989(15)
C43_4 C 0.0748(4) 0.6873(4) 0.30113(14)
H30_4 H 0.0463 0.7311 0.2767
C44_4 C 0.1793(4) 0.6857(3) 0.30738(12)
C45_4 C 0.2183(4) 0.6202(4) 0.34543(17)
H31_4 H 0.2884 0.6157 0.3503
C46_4 C 0.1542(3) 0.5624(4) 0.37569(16)
H32_4 H 0.1819 0.5225 0.4020
loop_
_geom_bond_atom_site_label_1
_geom_bond_atom_site_label_2
_geom_bond_site_symmetry_1
_geom_bond_site_symmetry_2
H11 C16 1_555 1_555
H18 C25 1_555 1_555
N6 Ag1 1_555 1_555
N7 Ag1 1_555 1_555
Ag1_2 N1 1_555 1_555
N1 C1 1_555 1_555
C1 H1 1_555 1_555
C2 C1 1_555 1_555
H2 C2 1_555 1_555
C3 C2 1_555 1_555
C4 C3 1_555 1_555
H3 C4 1_555 1_555
C5 N1 1_555 1_555
H4 C5 1_555 1_555
C6 C3 1_555 1_555
C7 C6 1_555 1_555
H5 C7 1_555 1_555
C8 C7 1_555 1_555
H6 C8 1_555 1_555
C9 C8 1_555 1_555
C10 C9 1_555 1_555
H7 C10 1_555 1_555
C11 C6 1_555 1_555
H8 C11 1_555 1_555
C12 C9 1_555 1_555
C19 C18 1_555 1_555
C20 C19 1_555 1_555
H14 C20 1_555 1_555
C21 C12 1_555 1_555
C22 C21 1_555 1_555
H15 C22 1_555 1_555
C23 C18 1_555 1_555
H16 C23 1_555 1_555
C30 C29 1_555 1_555
C31 C30 1_555 1_555
H22 C31 1_555 1_555
C32 C31 1_555 1_555
C33 C32 1_555 1_555
H23 C33 1_555 1_555
C34 C29 1_555 1_555
H24 C34 1_555 1_555
C35 C12 1_555 1_555
N4 C36 1_555 1_555
C36 H25 1_555 1_555
C37 C36 1_555 1_555
H26 C37 1_555 1_555
C38 C37 1_555 1_555
C39 C38 1_555 1_555
H27 C39 1_555 1_555
C40 N4 1_555 1_555
H28 C40 1_555 1_555
C41 C38 1_555 1_555
C42 C41 1_555 1_555
H29 C42 1_555 1_555
C43 C42 1_555 1_555
H30 C43 1_555 1_555
C44 C35 1_555 1_555
C45 C44 1_555 1_555
H31 C45 1_555 1_555
C46 C41 1_555 1_555
H32 C46 1_555 1_555
Ag4 N4 1_555 1_555
N5 Ag1_2 1_555 1_555
C4 C5 1_555 1_555
C10 C11 1_555 1_555
C20 C21 1_555 1_555
C22 C23 1_555 1_555
C32 C35 1_555 1_555
C33 C34 1_555 1_555
C39 C40 1_555 1_555
C43 C44 1_555 1_555
C45 C46 1_555 1_555
N5 C13 1_555 1_555
C13 H9 1_555 1_555
C17 N5 1_555 1_555
H12 C17 1_555 1_555
N3 C24 1_555 1_555
C24 H17 1_555 1_555
C28 N3 1_555 1_555
H20 C28 1_555 1_555
Ag4 N3 1_555 1_555
N6_2 Ag4 1_555 1_555
N7_2 Ag4 1_555 1_555
N7 C13_2 1_555 1_555
C13_2 H9_2 1_555 1_555
C14 C13_2 1_555 1_555
H10 C14 1_555 1_555
C15_2 C14 1_555 1_555
C17_2 N7 1_555 1_555
H12_2 C17_2 1_555 1_555
N7_2 C24_2 1_555 1_555
C24_2 H17_2 1_555 1_555
C27 C26_2 1_555 1_555
H19 C27 1_555 1_555
C28_2 N7_2 1_555 1_555
H20_2 C28_2 1_555 1_555
C27 C28_2 1_555 1_555
N6 C1_2 1_555 1_555
C1_2 H1_2 1_555 1_555
C4_2 C3_2 1_555 1_555
H3_2 C4_2 1_555 1_555
C5_2 N6 1_555 1_555
H4_2 C5_2 1_555 1_555
N6_2 C36_2 1_555 1_555
C36_2 H25_2 1_555 1_555
C37_2 C36_2 1_555 1_555
H26_2 C37_2 1_555 1_555
C38_2 C37_2 1_555 1_555
C40_2 N6_2 1_555 1_555
H28_2 C40_2 1_555 1_555
C4_2 C5_2 1_555 1_555
H10_2 C14_2 1_555 1_555
H19_2 C27_2 1_555 1_555
N6_3 Ag1_3 1_555 1_555
N7_3 Ag1_3 1_555 1_555
Ag1_4 N1_2 1_555 1_555
N1_2 C1_3 1_555 1_555
C1_3 H1_3 1_555 1_555
C4_3 C3_3 1_555 1_555
H3_3 C4_3 1_555 1_555
C5_3 N1_2 1_555 1_555
H4_3 C5_3 1_555 1_555
N4_2 C36_3 1_555 1_555
C36_3 H25_3 1_555 1_555
C37_3 C36_3 1_555 1_555
H26_3 C37_3 1_555 1_555
C38_3 C37_3 1_555 1_555
C40_3 N4_2 1_555 1_555
H28_3 C40_3 1_555 1_555
Ag4_2 N4_2 1_555 1_555
N5_2 Ag1_4 1_555 1_555
C4_3 C5_3 1_555 1_555
N5_2 C13_3 1_555 1_555
C13_3 H9_3 1_555 1_555
C14_3 C13_3 1_555 1_555
H10_3 C14_3 1_555 1_555
C15_3 C14_3 1_555 1_555
C17_3 N5_2 1_555 1_555
H12_3 C17_3 1_555 1_555
N3_2 C24_3 1_555 1_555
C24_3 H17_3 1_555 1_555
C27_3 C26_3 1_555 1_555
H19_3 C27_3 1_555 1_555
C28_3 N3_2 1_555 1_555
H20_3 C28_3 1_555 1_555
Ag4_2 N3_2 1_555 1_555
C27_3 C28_3 1_555 1_555
N6_4 Ag4_2 1_555 1_555
N7_4 Ag4_2 1_555 1_555
N6_3 C13_4 1_555 1_555
C13_4 H9_4 1_555 1_555
C17_4 N6_3 1_555 1_555
H12_4 C17_4 1_555 1_555
N6_4 C24_4 1_555 1_555
C24_4 H17_4 1_555 1_555
C28_4 N6_4 1_555 1_555
H20_4 C28_4 1_555 1_555
N7_3 C1_4 1_555 1_555
C1_4 H1_4 1_555 1_555
C2_2 C1_4 1_555 1_555
H2_2 C2_2 1_555 1_555
C3_4 C2_2 1_555 1_555
C4_4 C3_4 1_555 1_555
H3_4 C4_4 1_555 1_555
C5_4 N7_3 1_555 1_555
H4_4 C5_4 1_555 1_555
C6_2 C3_4 1_555 1_555
C7_2 C6_2 1_555 1_555
H5_2 C7_2 1_555 1_555
C8_2 C7_2 1_555 1_555
H6_2 C8_2 1_555 1_555
C9_2 C8_2 1_555 1_555
C10_2 C9_2 1_555 1_555
H7_2 C10_2 1_555 1_555
C11_2 C6_2 1_555 1_555
H8_2 C11_2 1_555 1_555
C12_2 C9_2 1_555 1_555
C19_2 C18_2 1_555 1_555
C20_2 C19_2 1_555 1_555
H14_2 C20_2 1_555 1_555
C21_2 C12_2 1_555 1_555
C22_2 C21_2 1_555 1_555
H15_2 C22_2 1_555 1_555
C23_2 C18_2 1_555 1_555
H16_2 C23_2 1_555 1_555
C30_2 C29_2 1_555 1_555
C31_2 C30_2 1_555 1_555
H22_2 C31_2 1_555 1_555
C32_2 C31_2 1_555 1_555
C33_2 C32_2 1_555 1_555
H23_2 C33_2 1_555 1_555
C34_2 C29_2 1_555 1_555
H24_2 C34_2 1_555 1_555
C35_2 C12_2 1_555 1_555
N7_4 C36_4 1_555 1_555
C36_4 H25_4 1_555 1_555
C37_4 C36_4 1_555 1_555
H26_4 C37_4 1_555 1_555
C38_4 C37_4 1_555 1_555
C39_2 C38_4 1_555 1_555
H27_2 C39_2 1_555 1_555
C40_4 N7_4 1_555 1_555
H28_4 C40_4 1_555 1_555
C41_2 C38_4 1_555 1_555
C42_2 C41_2 1_555 1_555
H29_4 C42_2 1_555 1_555
C43_2 C42_2 1_555 1_555
H30_2 C43_2 1_555 1_555
C44_2 C35_2 1_555 1_555
C45_2 C44_2 1_555 1_555
H31_2 C45_2 1_555 1_555
C46_2 C41_2 1_555 1_555
H32_2 C46_2 1_555 1_555
C4_4 C5_4 1_555 1_555
C10_2 C11_2 1_555 1_555
C20_2 C21_2 1_555 1_555
C22_2 C23_2 1_555 1_555
C32_2 C35_2 1_555 1_555
C33_2 C34_2 1_555 1_555
C39_2 C40_4 1_555 1_555
C43_2 C44_2 1_555 1_555
C45_2 C46_2 1_555 1_555
H2_3 C2_3 1_555 1_555
C7_3 C6_3 1_555 1_555
H5_3 C7_3 1_555 1_555
C8_3 C7_3 1_555 1_555
H6_3 C8_3 1_555 1_555
C9_3 C8_3 1_555 1_555
C10_3 C9_3 1_555 1_555
H7_3 C10_3 1_555 1_555
C11_3 C6_3 1_555 1_555
H8_3 C11_3 1_555 1_555
C12_3 C9_3 1_555 1_555
H11_2 C16_2 1_555 1_555
C19_3 C18_3 1_555 1_555
C20_3 C19_3 1_555 1_555
H14_3 C20_3 1_555 1_555
C21_3 C12_3 1_555 1_555
C22_3 C21_3 1_555 1_555
H15_3 C22_3 1_555 1_555
C23_3 C18_3 1_555 1_555
H16_3 C23_3 1_555 1_555
H18_2 C25_2 1_555 1_555
C30_3 C29_3 1_555 1_555
H21_2 C30_3 1_555 1_555
C31_3 C30_3 1_555 1_555
H22_3 C31_3 1_555 1_555
C32_3 C31_3 1_555 1_555
C33_3 C32_3 1_555 1_555
H23_3 C33_3 1_555 1_555
C34_3 C29_3 1_555 1_555
H24_3 C34_3 1_555 1_555
C35_3 C12_3 1_555 1_555
H27_3 C39_3 1_555 1_555
C42_3 C41_3 1_555 1_555
C43_3 C42_3 1_555 1_555
H30_3 C43_3 1_555 1_555
C44_3 C35_3 1_555 1_555
C45_3 C44_3 1_555 1_555
H31_3 C45_3 1_555 1_555
C46_3 C41_3 1_555 1_555
H32_3 C46_3 1_555 1_555
C10_3 C11_3 1_555 1_555
C20_3 C21_3 1_555 1_555
C22_3 C23_3 1_555 1_555
C32_3 C35_3 1_555 1_555
C33_3 C34_3 1_555 1_555
C43_3 C44_3 1_555 1_555
C45_3 C46_3 1_555 1_555
H10_4 C14_4 1_555 1_555
H19_4 C27_4 1_555 1_555
H11_3 C16_3 1_555 1_555
H18_3 C25_3 1_555 1_555
H2_4 C2_4 1_555 1_555
C7_4 C6_4 1_555 1_555
H5_4 C7_4 1_555 1_555
C8_4 C7_4 1_555 1_555
H6_4 C8_4 1_555 1_555
C9_4 C8_4 1_555 1_555
C10_4 C9_4 1_555 1_555
H7_4 C10_4 1_555 1_555
C11_4 C6_4 1_555 1_555
H8_4 C11_4 1_555 1_555
C12_4 C9_4 1_555 1_555
H11_4 C16_4 1_555 1_555
C19_4 C18_4 1_555 1_555
C20_4 C19_4 1_555 1_555
H14_4 C20_4 1_555 1_555
C21_4 C12_4 1_555 1_555
C22_4 C21_4 1_555 1_555
H15_4 C22_4 1_555 1_555
C23_4 C18_4 1_555 1_555
H16_4 C23_4 1_555 1_555
H18_4 C25_4 1_555 1_555
C30_4 C29_4 1_555 1_555
H21_4 C30_4 1_555 1_555
C31_4 C30_4 1_555 1_555
H22_4 C31_4 1_555 1_555
C32_4 C31_4 1_555 1_555
C33_4 C32_4 1_555 1_555
H23_4 C33_4 1_555 1_555
C34_4 C29_4 1_555 1_555
H24_4 C34_4 1_555 1_555
C35_4 C12_4 1_555 1_555
H27_4 C39_4 1_555 1_555
C42_4 C41_4 1_555 1_555
C43_4 C42_4 1_555 1_555
H30_4 C43_4 1_555 1_555
C44_4 C35_4 1_555 1_555
C45_4 C44_4 1_555 1_555
H31_4 C45_4 1_555 1_555
C46_4 C41_4 1_555 1_555
H32_4 C46_4 1_555 1_555
C10_4 C11_4 1_555 1_555
C20_4 C21_4 1_555 1_555
C22_4 C23_4 1_555 1_555
C32_4 C35_4 1_555 1_555
C33_4 C34_4 1_555 1_555
C43_4 C44_4 1_555 1_555
C45_4 C46_4 1_555 1_555

#END
