
###############################################################################
#
# This file contains modified crystal structure data generated from the
# MOF subset of the Cambridge Structural Database (CSD) v543 
# hosted by the Cambridge Crystallographic Data Centre (CCDC).
#
# This work is licensed under the Creative Commons
# Attribution-NonCommercial-ShareAlike 4.0 International License.
# To view a copy of this license, visit
# http://creativecommons.org/licenses/by-nc-sa/4.0/
# or send a letter to
# Creative Commons, PO Box 1866, Mountain View, CA 94042, USA.
#
# CIF created using the CSD Python API on 29 September 2022
# The structure has been converted into the P1 space group
# The structure has a 3D framework
# The original CSD entry OZULUS is in the rhombohedral crystal system
# The framework has been calculated to contain at least 10.0% void space
# The void calculation uses a probe of radius 1.32A, grid spacing 0.4
#
###############################################################################

data_OZULUS
_chemical_formula_moiety         '(C72 H18 Cu10 O48)n'
_symmetry_cell_setting           triclinic
_symmetry_space_group_name_H-M   'P 1'
_symmetry_Int_Tables_number      1
_space_group_name_Hall           'P 1'
loop_
_symmetry_equiv_pos_site_id
_symmetry_equiv_pos_as_xyz
1 x,y,z
_cell_length_a                   25.8776(7)
_cell_length_b                   25.8776(7)
_cell_length_c                   6.2623(3)
_cell_angle_alpha                90
_cell_angle_beta                 90
_cell_angle_gamma                120
_cell_volume                     3631.72
loop_
_atom_site_label
_atom_site_type_symbol
_atom_site_fract_x
_atom_site_fract_y
_atom_site_fract_z
O6 O 0.0214(12) 0.3847(12) 0.274(4)
Cu2 Cu 0.0537(7) 0.3685(10) 0.021(2)
Cu4 Cu 0.0352(10) 0.6481(12) 0.312(2)
O9 O 0.0514(12) 0.6966(17) 0.059(4)
O11 O 0.0507(13) 0.3027(9) 0.186(5)
C1 C 0.0064(7) 0.5856(11) 0.711(3)
C2 C 0.0236(8) 0.5062(22) 0.788(2)
C3 C 0.0039(12) 0.5432(11) 0.873(6)
H1 H 0.0383(12) 0.512(2) 0.636(3)
O1 O 0.0406(7) 0.6020(10) 0.542(4)
C6 C 0.0152(9) 0.4572(13) 0.913(8)
O4 O 0.0306(9) 0.4146(9) 0.853(5)
Cu6 Cu 0.0185(12) 0.7204(7) 0.646(2)
O7 O 0.1053(12) 0.3739(7) 0.791(4)
C4 C 0.9848(9) 0.5428(13) 0.087(8)
O3 O 0.9694(9) 0.5854(9) 0.147(5)
C5 C 0.9961(12) 0.4568(11) 0.127(6)
C7 C 0.9936(7) 0.4144(11) 0.289(3)
O5 O 0.9594(7) 0.3980(10) 0.458(4)
C8 C 0.9764(8) 0.4938(22) 0.212(2)
H2 H 0.9617(12) 0.488(2) 0.364(3)
Cu5 Cu 0.9815(12) 0.2796(7) 0.354(2)
Cu8 Cu 0.9648(10) 0.3519(12) 0.688(2)
O8 O 0.8947(12) 0.6261(7) 0.209(4)
Cu1 Cu 0.9463(7) 0.6315(10) 0.979(2)
O2 O 0.9786(12) 0.6153(12) 0.726(4)
O10 O 0.9486(12) 0.3034(17) 0.941(4)
O12 O 0.9493(13) 0.6973(9) 0.814(5)
C4_2 C 0.4572(13) 0.4420(16) 0.087(8)
O3_2 O 0.4146(9) 0.3840(13) 0.147(5)
C5_2 C 0.5432(11) 0.5393(16) 0.127(6)
C7_2 C 0.5856(11) 0.5792(13) 0.289(3)
O5_2 O 0.6020(10) 0.5614(12) 0.458(4)
C8_2 C 0.5062(22) 0.4826(23) 0.212(2)
O6_2 O 0.6153(12) 0.6367(17) 0.274(4)
H2_2 H 0.512(2) 0.4737(23) 0.364(3)
Cu2_2 Cu 0.6315(10) 0.6852(12) 0.021(2)
Cu4_2 Cu 0.3519(12) 0.3870(16) 0.312(2)
Cu5_2 Cu 0.7204(7) 0.7018(14) 0.354(2)
Cu8_2 Cu 0.6481(12) 0.6130(16) 0.688(2)
O8_2 O 0.3739(7) 0.2687(14) 0.209(4)
O9_2 O 0.3034(17) 0.3547(21) 0.059(4)
O11_2 O 0.6973(9) 0.7479(16) 0.186(5)
Cu1_2 Cu 0.3685(10) 0.3148(12) 0.979(2)
C1_2 C 0.4144(11) 0.4208(13) 0.711(3)
C2_2 C 0.4938(22) 0.5174(23) 0.788(2)
C3_2 C 0.4568(11) 0.4607(16) 0.873(6)
H1_2 H 0.488(2) 0.5263(23) 0.636(3)
O1_2 O 0.3980(10) 0.4386(12) 0.542(4)
O2_2 O 0.3847(12) 0.3633(17) 0.726(4)
C6_2 C 0.5428(13) 0.5580(16) 0.913(8)
O4_2 O 0.5854(9) 0.6160(13) 0.853(5)
Cu6_2 Cu 0.2796(7) 0.2982(14) 0.646(2)
O7_2 O 0.6261(7) 0.7313(14) 0.791(4)
O10_2 O 0.6966(17) 0.6453(21) 0.941(4)
O12_2 O 0.3027(9) 0.2521(16) 0.814(5)
C4_3 C 0.5580(16) 0.0152(9) 0.087(8)
O3_3 O 0.6160(13) 0.0306(9) 0.147(5)
C5_3 C 0.4607(16) 0.0039(12) 0.127(6)
C7_3 C 0.4208(13) 0.0064(7) 0.289(3)
O5_3 O 0.4386(12) 0.0406(7) 0.458(4)
C8_3 C 0.5174(23) 0.0236(8) 0.212(2)
H2_3 H 0.5263(23) 0.0383(12) 0.364(3)
Cu5_3 Cu 0.2982(14) 0.0185(12) 0.354(2)
Cu8_3 Cu 0.3870(16) 0.0352(10) 0.688(2)
O8_3 O 0.7313(14) 0.1053(12) 0.209(4)
Cu1_3 Cu 0.6852(12) 0.0537(7) 0.979(2)
O2_3 O 0.6367(17) 0.0214(12) 0.726(4)
O10_3 O 0.3547(21) 0.0514(12) 0.941(4)
O12_3 O 0.7479(16) 0.0507(13) 0.814(5)
O6_3 O 0.3633(17) 0.9786(12) 0.274(4)
Cu2_3 Cu 0.3148(12) 0.9463(7) 0.021(2)
Cu4_3 Cu 0.6130(16) 0.9648(10) 0.312(2)
O9_3 O 0.6453(21) 0.9486(12) 0.059(4)
O11_3 O 0.2521(16) 0.9493(13) 0.186(5)
C1_3 C 0.5792(13) 0.9936(7) 0.711(3)
C2_3 C 0.4826(23) 0.9764(8) 0.788(2)
C3_3 C 0.5393(16) 0.9961(12) 0.873(6)
H1_3 H 0.4737(23) 0.9617(12) 0.636(3)
O1_3 O 0.5614(12) 0.9594(7) 0.542(4)
C6_3 C 0.4420(16) 0.9848(9) 0.913(8)
O4_3 O 0.3840(13) 0.9694(9) 0.853(5)
Cu6_3 Cu 0.7018(14) 0.9815(12) 0.646(2)
O7_3 O 0.2687(14) 0.8947(12) 0.791(4)
O9_4 O 0.7180(12) 0.0300(17) 0.393(4)
C1_4 C 0.6731(7) 0.9189(11) 0.044(3)
C2_4 C 0.6903(8) 0.8395(22) 0.121(2)
C3_4 C 0.6706(12) 0.8765(11) 0.206(6)
C4_4 C 0.6515(9) 0.8761(13) 0.420(8)
O3_4 O 0.6361(9) 0.9187(9) 0.480(5)
C5_4 C 0.6628(12) 0.7901(11) 0.460(6)
C6_4 C 0.6819(9) 0.7905(13) 0.246(8)
C7_4 C 0.6603(7) 0.7477(11) 0.622(3)
C8_4 C 0.6431(8) 0.8271(22) 0.545(2)
O6_4 O 0.6881(12) 0.7180(12) 0.607(4)
H2_4 H 0.6284(12) 0.821(2) 0.697(3)
O7_4 O 0.7719(12) 0.7073(7) 0.125(4)
O11_4 O 0.7173(13) 0.6361(9) 0.520(5)
H1_4 H 0.7050(12) 0.845(2) 0.969(3)
O1_4 O 0.7073(7) 0.9353(10) 0.875(4)
O7_5 O 0.2927(7) 0.0647(14) 0.125(4)
O11_5 O 0.3639(9) 0.0813(16) 0.520(5)
C1_5 C 0.0811(11) 0.7541(13) 0.044(3)
C2_5 C 0.1605(22) 0.8507(23) 0.121(2)
C3_5 C 0.1235(11) 0.7940(16) 0.206(6)
C4_5 C 0.1239(13) 0.7753(16) 0.420(8)
O3_5 O 0.0813(9) 0.7173(13) 0.480(5)
C5_5 C 0.2099(11) 0.8726(16) 0.460(6)
C6_5 C 0.2095(13) 0.8913(16) 0.246(8)
C7_5 C 0.2523(11) 0.9125(13) 0.622(3)
C8_5 C 0.1729(22) 0.8159(23) 0.545(2)
O6_5 O 0.2820(12) 0.9700(17) 0.607(4)
H2_5 H 0.179(2) 0.8070(23) 0.697(3)
H1_5 H 0.155(2) 0.8596(23) 0.969(3)
O1_5 O 0.0647(10) 0.7719(12) 0.875(4)
O9_5 O 0.9700(17) 0.6881(21) 0.393(4)
C1_6 C 0.2459(13) 0.3269(7) 0.044(3)
C2_6 C 0.1493(23) 0.3097(8) 0.121(2)
C3_6 C 0.2060(16) 0.3294(12) 0.206(6)
C4_6 C 0.2247(16) 0.3485(9) 0.420(8)
O3_6 O 0.2827(13) 0.3639(9) 0.480(5)
C5_6 C 0.1274(16) 0.3372(12) 0.460(6)
C6_6 C 0.1087(16) 0.3181(9) 0.246(8)
C7_6 C 0.0875(13) 0.3397(7) 0.622(3)
C8_6 C 0.1841(23) 0.3569(8) 0.545(2)
O6_6 O 0.0300(17) 0.3119(12) 0.607(4)
H2_6 H 0.1930(23) 0.3716(12) 0.697(3)
O9_6 O 0.3119(21) 0.2820(12) 0.393(4)
H1_6 H 0.1404(23) 0.2950(12) 0.969(3)
O1_6 O 0.2281(12) 0.2927(7) 0.875(4)
O7_6 O 0.9353(14) 0.2281(12) 0.125(4)
O11_6 O 0.9187(16) 0.2827(13) 0.520(5)
H2_7 H 0.2950(12) 0.155(2) 0.031(3)
C1_7 C 0.3397(7) 0.2523(11) 0.378(3)
C2_7 C 0.3569(8) 0.1729(22) 0.455(2)
C3_7 C 0.3372(12) 0.2099(11) 0.540(6)
C4_7 C 0.3181(9) 0.2095(13) 0.754(8)
H1_7 H 0.3716(12) 0.179(2) 0.303(3)
C5_7 C 0.3294(12) 0.1235(11) 0.794(6)
C6_7 C 0.3485(9) 0.1239(13) 0.580(8)
C7_7 C 0.3269(7) 0.0811(11) 0.956(3)
C8_7 C 0.3097(8) 0.1605(22) 0.879(2)
H2_8 H 0.845(2) 0.1404(23) 0.031(3)
C1_8 C 0.7477(11) 0.0875(13) 0.378(3)
C2_8 C 0.8271(22) 0.1841(23) 0.455(2)
C3_8 C 0.7901(11) 0.1274(16) 0.540(6)
C4_8 C 0.7905(13) 0.1087(16) 0.754(8)
H1_8 H 0.821(2) 0.1930(23) 0.303(3)
C5_8 C 0.8765(11) 0.2060(16) 0.794(6)
C6_8 C 0.8761(13) 0.2247(16) 0.580(8)
C7_8 C 0.9189(11) 0.2459(13) 0.956(3)
C8_8 C 0.8395(22) 0.1493(23) 0.879(2)
H2_9 H 0.8596(23) 0.7050(12) 0.031(3)
C1_9 C 0.9125(13) 0.6603(7) 0.378(3)
C2_9 C 0.8159(23) 0.6431(8) 0.455(2)
C3_9 C 0.8726(16) 0.6628(12) 0.540(6)
C4_9 C 0.8913(16) 0.6819(9) 0.754(8)
H1_9 H 0.8070(23) 0.6284(12) 0.303(3)
C5_9 C 0.7940(16) 0.6706(12) 0.794(6)
C6_9 C 0.7753(16) 0.6515(9) 0.580(8)
C7_9 C 0.7541(13) 0.6731(7) 0.956(3)
C8_9 C 0.8507(23) 0.6903(8) 0.879(2)
loop_
_geom_bond_atom_site_label_1
_geom_bond_atom_site_label_2
_geom_bond_site_symmetry_1
_geom_bond_site_symmetry_2
O11 Cu2 1_555 1_555
O6 Cu2 1_555 1_555
Cu4 O9 1_555 1_555
C1 C3 1_555 1_555
C2 C3 1_555 1_555
H1 C2 1_555 1_555
O1 C1 1_555 1_555
C6 C2 1_555 1_555
O4 C6 1_555 1_555
Cu4 O1 1_555 1_555
C4 O3 1_555 1_555
C7 C5 1_555 1_555
O5 C7 1_555 1_555
C8 C4 1_555 1_555
H2 C8 1_555 1_555
Cu8 O5 1_555 1_555
C5 C8 1_555 1_555
Cu1 O2 1_555 1_555
O12 Cu1 1_555 1_555
Cu8 O10 1_555 1_555
C4_2 O3_2 1_555 1_555
C7_2 C5_2 1_555 1_555
O5_2 C7_2 1_555 1_555
C8_2 C4_2 1_555 1_555
O6_2 C7_2 1_555 1_555
H2_2 C8_2 1_555 1_555
Cu4_2 O3_2 1_555 1_555
Cu5_2 O6_2 1_555 1_555
Cu8_2 O5_2 1_555 1_555
O11_2 Cu2_2 1_555 1_555
C5_2 C8_2 1_555 1_555
O6_2 Cu2_2 1_555 1_555
Cu4_2 O9_2 1_555 1_555
Cu5_2 O11_2 1_555 1_555
Cu1_2 O2_2 1_555 1_555
C1_2 C3_2 1_555 1_555
C2_2 C3_2 1_555 1_555
H1_2 C2_2 1_555 1_555
O1_2 C1_2 1_555 1_555
O2_2 C1_2 1_555 1_555
C6_2 C2_2 1_555 1_555
O4_2 C6_2 1_555 1_555
Cu4_2 O1_2 1_555 1_555
Cu6_2 O2_2 1_555 1_555
Cu8_2 O4_2 1_555 1_555
O12_2 Cu1_2 1_555 1_555
Cu6_2 O12_2 1_555 1_555
Cu8_2 O10_2 1_555 1_555
C4_3 O3_3 1_555 1_555
C7_3 C5_3 1_555 1_555
O5_3 C7_3 1_555 1_555
C8_3 C4_3 1_555 1_555
H2_3 C8_3 1_555 1_555
Cu8_3 O5_3 1_555 1_555
C5_3 C8_3 1_555 1_555
Cu1_3 O2_3 1_555 1_555
O12_3 Cu1_3 1_555 1_555
Cu8_3 O10_3 1_555 1_555
O11_3 Cu2_3 1_555 1_555
O6_3 Cu2_3 1_555 1_555
Cu4_3 O9_3 1_555 1_555
C1_3 C3_3 1_555 1_555
C2_3 C3_3 1_555 1_555
H1_3 C2_3 1_555 1_555
O1_3 C1_3 1_555 1_555
C6_3 C2_3 1_555 1_555
O4_3 C6_3 1_555 1_555
Cu4_3 O1_3 1_555 1_555
C1_4 C3_4 1_555 1_555
C2_4 C3_4 1_555 1_555
C3_4 C4_4 1_555 1_555
C4_4 O3_4 1_555 1_555
O9_3 C1_4 1_555 1_555
O3_4 Cu4_3 1_555 1_555
C5_4 C6_4 1_555 1_555
C6_4 C2_4 1_555 1_555
O11_2 C6_4 1_555 1_555
C7_4 C5_4 1_555 1_555
O7_2 C7_4 1_555 1_555
C8_4 C4_4 1_555 1_555
O6_4 C7_4 1_555 1_555
H2_4 C8_4 1_555 1_555
Cu6_3 O3_4 1_555 1_555
Cu8_2 O6_4 1_555 1_555
O7_4 Cu5_2 1_555 1_555
O11_4 Cu5_2 1_555 1_555
C5_4 C8_4 1_555 1_555
O6_4 Cu5_2 1_555 1_555
Cu8_2 O11_4 1_555 1_555
Cu6_3 O1_4 1_555 1_555
O7_5 Cu5_3 1_555 1_555
O11_5 Cu5_3 1_555 1_555
Cu8_3 O11_5 1_555 1_555
C1_5 C3_5 1_555 1_555
C2_5 C3_5 1_555 1_555
C3_5 C4_5 1_555 1_555
C4_5 O3_5 1_555 1_555
O9 C1_5 1_555 1_555
O3_5 Cu4 1_555 1_555
C5_5 C6_5 1_555 1_555
C6_5 C2_5 1_555 1_555
O11_3 C6_5 1_555 1_555
C7_5 C5_5 1_555 1_555
O7_3 C7_5 1_555 1_555
C8_5 C4_5 1_555 1_555
O6_5 C7_5 1_555 1_555
H2_5 C8_5 1_555 1_555
Cu6 O3_5 1_555 1_555
C5_5 C8_5 1_555 1_555
Cu6 O1_5 1_555 1_555
C1_6 C3_6 1_555 1_555
C2_6 C3_6 1_555 1_555
C3_6 C4_6 1_555 1_555
C4_6 O3_6 1_555 1_555
O9_2 C1_6 1_555 1_555
O3_6 Cu4_2 1_555 1_555
C5_6 C6_6 1_555 1_555
C6_6 C2_6 1_555 1_555
O11 C6_6 1_555 1_555
C7_6 C5_6 1_555 1_555
O7 C7_6 1_555 1_555
C8_6 C4_6 1_555 1_555
O6_6 C7_6 1_555 1_555
H2_6 C8_6 1_555 1_555
Cu6_2 O3_6 1_555 1_555
O9_6 Cu4_2 1_555 1_555
C5_6 C8_6 1_555 1_555
Cu6_2 O9_6 1_555 1_555
Cu6_2 O1_6 1_555 1_555
O7_6 Cu5 1_555 1_555
O11_6 Cu5 1_555 1_555
Cu8 O11_6 1_555 1_555
C1_7 C3_7 1_555 1_555
C2_7 C3_7 1_555 1_555
C3_7 C4_7 1_555 1_555
C4_7 O12_2 1_555 1_555
H1_7 C2_7 1_555 1_555
O8_2 C1_7 1_555 1_555
O9_6 C1_7 1_555 1_555
C5_7 C6_7 1_555 1_555
C6_7 C2_7 1_555 1_555
O11_5 C6_7 1_555 1_555
C7_7 C5_7 1_555 1_555
C8_7 C4_7 1_555 1_555
O10_3 C7_7 1_555 1_555
C5_7 C8_7 1_555 1_555
C1_8 C3_8 1_555 1_555
C2_8 C3_8 1_555 1_555
C3_8 C4_8 1_555 1_555
C4_8 O12_3 1_555 1_555
H1_8 C2_8 1_555 1_555
O8_3 C1_8 1_555 1_555
O9_4 C1_8 1_555 1_555
C5_8 C6_8 1_555 1_555
C6_8 C2_8 1_555 1_555
O11_6 C6_8 1_555 1_555
C7_8 C5_8 1_555 1_555
C8_8 C4_8 1_555 1_555
O10 C7_8 1_555 1_555
C5_8 C8_8 1_555 1_555
C1_9 C3_9 1_555 1_555
C2_9 C3_9 1_555 1_555
C3_9 C4_9 1_555 1_555
C4_9 O12 1_555 1_555
H1_9 C2_9 1_555 1_555
O8 C1_9 1_555 1_555
O9_5 C1_9 1_555 1_555
C5_9 C6_9 1_555 1_555
C6_9 C2_9 1_555 1_555
O11_4 C6_9 1_555 1_555
C7_9 C5_9 1_555 1_555
C8_9 C4_9 1_555 1_555
O10_2 C7_9 1_555 1_555
C5_9 C8_9 1_555 1_555

#END
