
###############################################################################
#
# This file contains modified crystal structure data generated from the
# MOF subset of the Cambridge Structural Database (CSD) v543 
# hosted by the Cambridge Crystallographic Data Centre (CCDC).
#
# This work is licensed under the Creative Commons
# Attribution-NonCommercial-ShareAlike 4.0 International License.
# To view a copy of this license, visit
# http://creativecommons.org/licenses/by-nc-sa/4.0/
# or send a letter to
# Creative Commons, PO Box 1866, Mountain View, CA 94042, USA.
#
# CIF created using the CSD Python API on 29 September 2022
# The structure has been converted into the P1 space group
# The structure has a 3D framework
# The original CSD entry OZULAY is in the rhombohedral crystal system
# The framework has been calculated to contain at least 10.0% void space
# The void calculation uses a probe of radius 1.32A, grid spacing 0.4
#
###############################################################################

data_OZULAY
_chemical_formula_moiety         '(C72 H18 Mn10 O48)n'
_symmetry_cell_setting           triclinic
_symmetry_space_group_name_H-M   'P 1'
_symmetry_Int_Tables_number      1
_space_group_name_Hall           'P 1'
loop_
_symmetry_equiv_pos_site_id
_symmetry_equiv_pos_as_xyz
1 x,y,z
_cell_length_a                   26.2978(7)
_cell_length_b                   26.2978(7)
_cell_length_c                   7.0741(2)
_cell_angle_alpha                90
_cell_angle_beta                 90
_cell_angle_gamma                120
_cell_volume                     4236.83
loop_
_atom_site_label
_atom_site_type_symbol
_atom_site_fract_x
_atom_site_fract_y
_atom_site_fract_z
Mn4 Mn 0.0282(19) 0.6456(25) 0.351(6)
O9 O 0.0332(11) 0.7085(16) 0.122(4)
O11 O 0.0628(17) 0.3097(11) 0.192(4)
C1 C 0.0125(11) 0.5902(15) 0.755(4)
C2 C 0.0071(11) 0.5455(22) 0.874(8)
O1 O 0.0326(13) 0.5930(16) 0.581(4)
O2 O 0.0087(12) 0.6335(11) 0.789(4)
C7 C 0.0070(14) 0.4567(19) 0.932(8)
C8 C 0.0182(8) 0.502(3) 0.807(4)
H2 H 0.02743 0.50250 0.66276
O6 O 0.0236(11) 0.4197(13) 0.859(4)
Mn2 Mn 0.0492(17) 0.3615(19) 0.982(6)
Mn6 Mn 0.0210(25) 0.7159(17) 0.685(6)
O7 O 0.1063(21) 0.3659(13) 0.752(4)
Mn1 Mn 0.9508(17) 0.6385(19) 0.018(6)
C3 C 0.9930(14) 0.5433(19) 0.068(8)
C4 C 0.9818(8) 0.498(3) 0.193(4)
H1 H 0.97257 0.49750 0.33724
O3 O 0.9764(11) 0.5803(13) 0.141(4)
C5 C 0.9875(11) 0.4098(15) 0.245(4)
C6 C 0.9929(11) 0.4545(22) 0.126(8)
O4 O 0.9674(13) 0.4070(16) 0.419(4)
O5 O 0.9913(12) 0.3665(11) 0.211(4)
Mn5 Mn 0.9790(25) 0.2841(17) 0.315(6)
Mn8 Mn 0.9718(19) 0.3544(25) 0.649(6)
O8 O 0.8937(21) 0.6341(13) 0.248(4)
O10 O 0.9668(11) 0.2915(16) 0.878(4)
O12 O 0.9372(17) 0.6903(11) 0.808(4)
Mn1_2 Mn 0.3615(19) 0.3123(25) 0.018(6)
C3_2 C 0.4567(19) 0.4497(24) 0.068(8)
C4_2 C 0.502(3) 0.4838(31) 0.193(4)
H1_2 H 0.50250 0.47507 0.33724
O3_2 O 0.4197(13) 0.3961(17) 0.141(4)
C5_2 C 0.5902(15) 0.5777(19) 0.245(4)
C6_2 C 0.5455(22) 0.5384(25) 0.126(8)
O4_2 O 0.5930(16) 0.5604(21) 0.419(4)
O5_2 O 0.6335(11) 0.6248(16) 0.211(4)
Mn4_2 Mn 0.3544(25) 0.3825(31) 0.351(6)
Mn5_2 Mn 0.7159(17) 0.6948(30) 0.315(6)
Mn8_2 Mn 0.6456(25) 0.6175(31) 0.649(6)
O8_2 O 0.3659(13) 0.2597(25) 0.248(4)
O9_2 O 0.2915(16) 0.3246(19) 0.122(4)
O11_2 O 0.6903(11) 0.7530(20) 0.192(4)
C1_2 C 0.4098(15) 0.4223(19) 0.755(4)
C2_2 C 0.4545(22) 0.4616(25) 0.874(8)
O1_2 O 0.4070(16) 0.4396(21) 0.581(4)
O2_2 O 0.3665(11) 0.3752(16) 0.789(4)
C7_2 C 0.5433(19) 0.5503(24) 0.932(8)
C8_2 C 0.498(3) 0.5162(31) 0.807(4)
H2_2 H 0.49750 0.52493 0.66276
O6_2 O 0.5803(13) 0.6039(17) 0.859(4)
Mn2_2 Mn 0.6385(19) 0.6877(25) 0.982(6)
Mn6_2 Mn 0.2841(17) 0.3052(30) 0.685(6)
O7_2 O 0.6341(13) 0.7403(25) 0.752(4)
O10_2 O 0.7085(16) 0.6754(19) 0.878(4)
O12_2 O 0.3097(11) 0.2470(20) 0.808(4)
Mn1_3 Mn 0.6877(25) 0.0492(17) 0.018(6)
C3_3 C 0.5503(24) 0.0070(14) 0.068(8)
C4_3 C 0.5162(31) 0.0182(8) 0.193(4)
H1_3 H 0.52493 0.02743 0.33724
O3_3 O 0.6039(17) 0.0236(11) 0.141(4)
C5_3 C 0.4223(19) 0.0125(11) 0.245(4)
C6_3 C 0.4616(25) 0.0071(11) 0.126(8)
O4_3 O 0.4396(21) 0.0326(13) 0.419(4)
O5_3 O 0.3752(16) 0.0087(12) 0.211(4)
Mn5_3 Mn 0.3052(30) 0.0210(25) 0.315(6)
Mn8_3 Mn 0.3825(31) 0.0282(19) 0.649(6)
O8_3 O 0.7403(25) 0.1063(21) 0.248(4)
O10_3 O 0.3246(19) 0.0332(11) 0.878(4)
O12_3 O 0.7530(20) 0.0628(17) 0.808(4)
Mn4_3 Mn 0.6175(31) 0.9718(19) 0.351(6)
O9_3 O 0.6754(19) 0.9668(11) 0.122(4)
O11_3 O 0.2470(20) 0.9372(17) 0.192(4)
C1_3 C 0.5777(19) 0.9875(11) 0.755(4)
C2_3 C 0.5384(25) 0.9929(11) 0.874(8)
O1_3 O 0.5604(21) 0.9674(13) 0.581(4)
O2_3 O 0.6248(16) 0.9913(12) 0.789(4)
C7_3 C 0.4497(24) 0.9930(14) 0.932(8)
C8_3 C 0.4838(31) 0.9818(8) 0.807(4)
H2_3 H 0.47507 0.97257 0.66276
O6_3 O 0.3961(17) 0.9764(11) 0.859(4)
Mn2_3 Mn 0.3123(25) 0.9508(17) 0.982(6)
Mn6_3 Mn 0.6948(30) 0.9790(25) 0.685(6)
O7_3 O 0.2597(25) 0.8937(21) 0.752(4)
O9_4 O 0.6998(11) 0.0419(16) 0.456(4)
C1_4 C 0.6792(11) 0.9235(15) 0.088(4)
C2_4 C 0.6738(11) 0.8788(22) 0.207(8)
C3_4 C 0.6597(14) 0.8766(19) 0.401(8)
C4_4 C 0.6485(8) 0.831(3) 0.526(4)
H1_4 H 0.63924 0.83083 0.67057
O3_4 O 0.6431(11) 0.9136(13) 0.474(4)
C5_4 C 0.6542(11) 0.7431(15) 0.578(4)
C6_4 C 0.6596(11) 0.7878(22) 0.459(8)
C7_4 C 0.6737(14) 0.7900(19) 0.265(8)
C8_4 C 0.6849(8) 0.835(3) 0.140(4)
O5_4 O 0.6580(12) 0.6998(11) 0.544(4)
O7_4 O 0.7729(21) 0.6993(13) 0.086(4)
O11_4 O 0.7294(17) 0.6431(11) 0.526(4)
O1_4 O 0.6993(13) 0.9263(16) 0.914(4)
H2_4 H 0.69410 0.83583 0.99609
O7_5 O 0.3007(13) 0.0737(25) 0.086(4)
O11_5 O 0.3569(11) 0.0864(20) 0.526(4)
C1_5 C 0.0765(15) 0.7556(19) 0.088(4)
C2_5 C 0.1212(22) 0.7949(25) 0.207(8)
C3_5 C 0.1234(19) 0.7830(24) 0.401(8)
C4_5 C 0.169(3) 0.8171(31) 0.526(4)
H1_5 H 0.16917 0.80840 0.67057
O3_5 O 0.0864(13) 0.7294(17) 0.474(4)
C5_5 C 0.2569(15) 0.9110(19) 0.578(4)
C6_5 C 0.2122(22) 0.8717(25) 0.459(8)
C7_5 C 0.2100(19) 0.8836(24) 0.265(8)
C8_5 C 0.165(3) 0.8495(31) 0.140(4)
O5_5 O 0.3002(11) 0.9581(16) 0.544(4)
O1_5 O 0.0737(16) 0.7729(21) 0.914(4)
H2_5 H 0.16417 0.85826 0.99609
O9_5 O 0.9581(16) 0.6580(19) 0.456(4)
C1_6 C 0.2444(19) 0.3208(11) 0.088(4)
C2_6 C 0.2051(25) 0.3262(11) 0.207(8)
C3_6 C 0.2170(24) 0.3403(14) 0.401(8)
C4_6 C 0.1829(31) 0.3515(8) 0.526(4)
H1_6 H 0.19160 0.36076 0.67057
O3_6 O 0.2706(17) 0.3569(11) 0.474(4)
C5_6 C 0.0890(19) 0.3458(11) 0.578(4)
C6_6 C 0.1283(25) 0.3404(11) 0.459(8)
C7_6 C 0.1164(24) 0.3263(14) 0.265(8)
C8_6 C 0.1505(31) 0.3151(8) 0.140(4)
O5_6 O 0.0419(16) 0.3420(12) 0.544(4)
O9_6 O 0.3420(19) 0.3002(11) 0.456(4)
O1_6 O 0.2271(21) 0.3007(13) 0.914(4)
H2_6 H 0.14174 0.30590 0.99609
O7_6 O 0.9263(25) 0.2271(21) 0.086(4)
O11_6 O 0.9136(20) 0.2706(17) 0.526(4)
H1_7 H 0.30590 0.16417 0.00391
C1_7 C 0.3458(11) 0.2569(15) 0.422(4)
C2_7 C 0.3404(11) 0.2122(22) 0.541(8)
C3_7 C 0.3263(14) 0.2100(19) 0.735(8)
C4_7 C 0.3151(8) 0.165(3) 0.860(4)
C5_7 C 0.3208(11) 0.0765(15) 0.912(4)
C6_7 C 0.3262(11) 0.1212(22) 0.793(8)
C7_7 C 0.3403(14) 0.1234(19) 0.599(8)
C8_7 C 0.3515(8) 0.169(3) 0.474(4)
H2_7 H 0.36076 0.16917 0.32943
H1_8 H 0.83583 0.14174 0.00391
C1_8 C 0.7431(15) 0.0890(19) 0.422(4)
C2_8 C 0.7878(22) 0.1283(25) 0.541(8)
C3_8 C 0.7900(19) 0.1164(24) 0.735(8)
C4_8 C 0.835(3) 0.1505(31) 0.860(4)
C5_8 C 0.9235(15) 0.2444(19) 0.912(4)
C6_8 C 0.8788(22) 0.2051(25) 0.793(8)
C7_8 C 0.8766(19) 0.2170(24) 0.599(8)
C8_8 C 0.831(3) 0.1829(31) 0.474(4)
H2_8 H 0.83083 0.19160 0.32943
H1_9 H 0.85826 0.69410 0.00391
C1_9 C 0.9110(19) 0.6542(11) 0.422(4)
C2_9 C 0.8717(25) 0.6596(11) 0.541(8)
C3_9 C 0.8836(24) 0.6737(14) 0.735(8)
C4_9 C 0.8495(31) 0.6849(8) 0.860(4)
C5_9 C 0.7556(19) 0.6792(11) 0.912(4)
C6_9 C 0.7949(25) 0.6738(11) 0.793(8)
C7_9 C 0.7830(24) 0.6597(14) 0.599(8)
C8_9 C 0.8171(31) 0.6485(8) 0.474(4)
H2_9 H 0.80840 0.63924 0.32943
loop_
_geom_bond_atom_site_label_1
_geom_bond_atom_site_label_2
_geom_bond_site_symmetry_1
_geom_bond_site_symmetry_2
Mn4 O9 1_555 1_555
C1 C2 1_555 1_555
O1 C1 1_555 1_555
O2 C1 1_555 1_555
C8 C2 1_555 1_555
H2 C8 1_555 1_555
O6 C7 1_555 1_555
Mn4 O1 1_555 1_555
Mn6 O2 1_555 1_555
O7 Mn2 1_555 1_555
C7 C8 1_555 1_555
O6 Mn2 1_555 1_555
C3 C4 1_555 1_555
C4 H1 1_555 1_555
O3 Mn1 1_555 1_555
C5 C6 1_555 1_555
C6 C4 1_555 1_555
O4 C5 1_555 1_555
O5 C5 1_555 1_555
Mn5 O5 1_555 1_555
Mn8 O4 1_555 1_555
O8 Mn1 1_555 1_555
C3 O3 1_555 1_555
Mn8 O10 1_555 1_555
C3_2 C4_2 1_555 1_555
C4_2 H1_2 1_555 1_555
O3_2 Mn1_2 1_555 1_555
C5_2 C6_2 1_555 1_555
C6_2 C4_2 1_555 1_555
O4_2 C5_2 1_555 1_555
O5_2 C5_2 1_555 1_555
Mn4_2 O3_2 1_555 1_555
Mn5_2 O5_2 1_555 1_555
Mn8_2 O4_2 1_555 1_555
O8_2 Mn1_2 1_555 1_555
O9_2 Mn1_2 1_555 1_555
C3_2 O3_2 1_555 1_555
Mn4_2 O9_2 1_555 1_555
Mn5_2 O11_2 1_555 1_555
C1_2 C2_2 1_555 1_555
O1_2 C1_2 1_555 1_555
O2_2 C1_2 1_555 1_555
C8_2 C2_2 1_555 1_555
H2_2 C8_2 1_555 1_555
O6_2 C7_2 1_555 1_555
Mn4_2 O1_2 1_555 1_555
Mn6_2 O2_2 1_555 1_555
Mn8_2 O6_2 1_555 1_555
O7_2 Mn2_2 1_555 1_555
O10_2 Mn2_2 1_555 1_555
C7_2 C8_2 1_555 1_555
O6_2 Mn2_2 1_555 1_555
Mn6_2 O12_2 1_555 1_555
Mn8_2 O10_2 1_555 1_555
C3_3 C4_3 1_555 1_555
C4_3 H1_3 1_555 1_555
O3_3 Mn1_3 1_555 1_555
C5_3 C6_3 1_555 1_555
C6_3 C4_3 1_555 1_555
O4_3 C5_3 1_555 1_555
O5_3 C5_3 1_555 1_555
Mn5_3 O5_3 1_555 1_555
Mn8_3 O4_3 1_555 1_555
O8_3 Mn1_3 1_555 1_555
C3_3 O3_3 1_555 1_555
Mn8_3 O10_3 1_555 1_555
Mn4_3 O9_3 1_555 1_555
C1_3 C2_3 1_555 1_555
O1_3 C1_3 1_555 1_555
O2_3 C1_3 1_555 1_555
C8_3 C2_3 1_555 1_555
H2_3 C8_3 1_555 1_555
O6_3 C7_3 1_555 1_555
Mn4_3 O1_3 1_555 1_555
Mn6_3 O2_3 1_555 1_555
O7_3 Mn2_3 1_555 1_555
C7_3 C8_3 1_555 1_555
O6_3 Mn2_3 1_555 1_555
C1_4 C2_4 1_555 1_555
C2_4 C3_4 1_555 1_555
C3_4 C4_4 1_555 1_555
C4_4 H1_4 1_555 1_555
O9_3 C1_4 1_555 1_555
O3_4 Mn4_3 1_555 1_555
C5_4 C6_4 1_555 1_555
C6_4 C4_4 1_555 1_555
C7_4 C6_4 1_555 1_555
C8_4 C2_4 1_555 1_555
O7_2 C5_4 1_555 1_555
O5_4 C5_4 1_555 1_555
O11_2 C7_4 1_555 1_555
Mn5_2 O5_4 1_555 1_555
Mn6_3 O3_4 1_555 1_555
Mn8_2 O5_4 1_555 1_555
O7_4 Mn5_2 1_555 1_555
O11_4 Mn5_2 1_555 1_555
C3_4 O3_4 1_555 1_555
C7_4 C8_4 1_555 1_555
Mn8_2 O11_4 1_555 1_555
Mn6_3 O1_4 1_555 1_555
O7_5 Mn5_3 1_555 1_555
O11_5 Mn5_3 1_555 1_555
Mn8_3 O11_5 1_555 1_555
C1_5 C2_5 1_555 1_555
C2_5 C3_5 1_555 1_555
C3_5 C4_5 1_555 1_555
C4_5 H1_5 1_555 1_555
O9 C1_5 1_555 1_555
O3_5 Mn4 1_555 1_555
C5_5 C6_5 1_555 1_555
C6_5 C4_5 1_555 1_555
C7_5 C6_5 1_555 1_555
C8_5 C2_5 1_555 1_555
O7_3 C5_5 1_555 1_555
O5_5 C5_5 1_555 1_555
O11_3 C7_5 1_555 1_555
Mn6 O3_5 1_555 1_555
C3_5 O3_5 1_555 1_555
C7_5 C8_5 1_555 1_555
Mn6 O1_5 1_555 1_555
C1_6 C2_6 1_555 1_555
C2_6 C3_6 1_555 1_555
C3_6 C4_6 1_555 1_555
C4_6 H1_6 1_555 1_555
O9_2 C1_6 1_555 1_555
O3_6 Mn4_2 1_555 1_555
C5_6 C6_6 1_555 1_555
C6_6 C4_6 1_555 1_555
C7_6 C6_6 1_555 1_555
C8_6 C2_6 1_555 1_555
O7 C5_6 1_555 1_555
O5_6 C5_6 1_555 1_555
O11 C7_6 1_555 1_555
Mn6_2 O3_6 1_555 1_555
O9_6 Mn4_2 1_555 1_555
C3_6 O3_6 1_555 1_555
C7_6 C8_6 1_555 1_555
Mn6_2 O9_6 1_555 1_555
Mn6_2 O1_6 1_555 1_555
O7_6 Mn5 1_555 1_555
O11_6 Mn5 1_555 1_555
Mn8 O11_6 1_555 1_555
C1_7 C2_7 1_555 1_555
C2_7 C3_7 1_555 1_555
C3_7 C4_7 1_555 1_555
O8_2 C1_7 1_555 1_555
O9_6 C1_7 1_555 1_555
C5_7 C6_7 1_555 1_555
C6_7 C4_7 1_555 1_555
C7_7 C6_7 1_555 1_555
C8_7 C2_7 1_555 1_555
H2_7 C8_7 1_555 1_555
O10_3 C5_7 1_555 1_555
O11_5 C7_7 1_555 1_555
C3_7 O12_2 1_555 1_555
C7_7 C8_7 1_555 1_555
C1_8 C2_8 1_555 1_555
C2_8 C3_8 1_555 1_555
C3_8 C4_8 1_555 1_555
O8_3 C1_8 1_555 1_555
O9_4 C1_8 1_555 1_555
C5_8 C6_8 1_555 1_555
C6_8 C4_8 1_555 1_555
C7_8 C6_8 1_555 1_555
C8_8 C2_8 1_555 1_555
H2_8 C8_8 1_555 1_555
O10 C5_8 1_555 1_555
O11_6 C7_8 1_555 1_555
C3_8 O12_3 1_555 1_555
C7_8 C8_8 1_555 1_555
C1_9 C2_9 1_555 1_555
C2_9 C3_9 1_555 1_555
C3_9 C4_9 1_555 1_555
O8 C1_9 1_555 1_555
O9_5 C1_9 1_555 1_555
C5_9 C6_9 1_555 1_555
C6_9 C4_9 1_555 1_555
C7_9 C6_9 1_555 1_555
C8_9 C2_9 1_555 1_555
H2_9 C8_9 1_555 1_555
O10_2 C5_9 1_555 1_555
O11_4 C7_9 1_555 1_555
C3_9 O12 1_555 1_555
C7_9 C8_9 1_555 1_555

#END
