
###############################################################################
#
# This file contains modified crystal structure data generated from the
# MOF subset of the Cambridge Structural Database (CSD) v543 
# hosted by the Cambridge Crystallographic Data Centre (CCDC).
#
# This work is licensed under the Creative Commons
# Attribution-NonCommercial-ShareAlike 4.0 International License.
# To view a copy of this license, visit
# http://creativecommons.org/licenses/by-nc-sa/4.0/
# or send a letter to
# Creative Commons, PO Box 1866, Mountain View, CA 94042, USA.
#
# CIF created using the CSD Python API on 29 September 2022
# The structure has been converted into the P1 space group
# The structure has a 3D framework
# The original CSD entry PABSAQ is in the triclinic crystal system
# The original CSD entry PABSAQ is in a Sohncke space group
# The framework has been calculated to contain at least 10.0% void space
# The void calculation uses a probe of radius 1.32A, grid spacing 0.4
#
###############################################################################

data_PABSAQ
_chemical_formula_moiety         '(C12 H16 O20 Y2)n'
_symmetry_cell_setting           triclinic
_symmetry_space_group_name_H-M   'P 1'
_symmetry_Int_Tables_number      1
_space_group_name_Hall           'P 1'
loop_
_symmetry_equiv_pos_site_id
_symmetry_equiv_pos_as_xyz
1 x,y,z
_cell_length_a                   5.9865(2)
_cell_length_b                   7.3445(2)
_cell_length_c                   13.3124(4)
_cell_angle_alpha                102.369(3)
_cell_angle_beta                 101.979(3)
_cell_angle_gamma                90.280(3)
_cell_volume                     558.535
loop_
_atom_site_label
_atom_site_type_symbol
_atom_site_fract_x
_atom_site_fract_y
_atom_site_fract_z
_atom_site_U_iso_or_equiv
_atom_site_thermal_displace_type
Y4 Y 0.02340(6) 0.81790(5) 0.67757(3) 0.0056 Uani
C4 C 0.7816(15) 0.0996(12) 0.0932(6) 0.0128 Uani
O3 O 0.3259(9) 0.2160(7) 0.0321(4) 0.0127 Uani
O5 O 0.7554(11) 0.0155(9) 0.1639(4) 0.0177 Uani
O6 O 0.9279(11) 0.2319(8) 0.1113(5) 0.0198 Uani
H7 H 0.209945 0.229278 0.060705 0.0270 Uiso
Y7 Y 0.97608(7) 0.18187(6) 0.32308(4) 0.0065 Uani
C2 C 0.3784(13) 0.0279(10) 0.9966(5) 0.0082 Uani
C3 C 0.6275(13) 0.0272(11) 0.9846(5) 0.0082 Uani
O2 O 0.0517(10) 0.0147(8) 0.8540(4) 0.0114 Uani
O4 O 0.6520(10) 0.1295(8) 0.9086(4) 0.0146 Uani
H8 H 0.782554 0.089411 0.903780 0.0270 Uiso
O23 O 0.1659(9) 0.1395(7) 0.6898(4) 0.0078 Uani
C1 C 0.2210(14) 0.9334(12) 0.8919(6) 0.0098 Uani
H2 H 0.663262 0.897721 0.958835 0.0100 Uiso
C5 C 0.1590(13) 0.3892(10) 0.5664(5) 0.0082 Uani
C6 C 0.3456(14) 0.2482(10) 0.5635(6) 0.0075 Uani
H3 H 0.487563 0.312176 0.560724 0.0090 Uiso
C7 C 0.3827(12) 0.1793(10) 0.6671(5) 0.0076 Uani
H4 H 0.468239 0.276885 0.724530 0.0100 Uiso
O1 O 0.2692(10) 0.7756(7) 0.8446(4) 0.0117 Uani
O7 O 0.1803(9) 0.5260(7) 0.6416(4) 0.0093 Uani
O9 O 0.2820(9) 0.1028(7) 0.4711(4) 0.0080 Uani
O12 O 0.7196(10) 0.0112(7) 0.6552(4) 0.0107 Uani
O13 O 0.0235(9) 0.8523(7) 0.5073(4) 0.0092 Uani
H9 H 0.199808 0.009062 0.474984 0.0270 Uiso
H10 H 0.145772 0.223299 0.741331 0.0270 Uiso
H16 H 0.363527 0.028031 0.277494 0.0270 Uiso
O24 O 0.4091(10) 0.8558(8) 0.6669(4) 0.0122 Uani
O27 O 0.2761(9) 0.3867(7) 0.3368(4) 0.0119 Uani
C8 C 0.5131(13) 0.9998(10) 0.6613(5) 0.0062 Uani
O20 O 0.2283(10) 0.9760(8) 0.2519(4) 0.0159 Uani
H15 H 0.248681 0.878962 0.205550 0.0270 Uiso
C9 C 0.8482(13) 0.8315(10) 0.4325(5) 0.0076 Uani
C10 C 0.6598(15) 0.6935(11) 0.4345(6) 0.0091 Uani
H5 H 0.519531 0.761077 0.436700 0.0110 Uiso
C11 C 0.6190(13) 0.5456(10) 0.3300(5) 0.0079 Uani
H6 H 0.531519 0.601005 0.274270 0.0090 Uiso
C12 C 0.4844(14) 0.3719(11) 0.3345(5) 0.0089 Uani
O8 O 0.9855(11) 0.3523(8) 0.4913(4) 0.0127 Uani
O14 O 0.8233(10) 0.9139(7) 0.3580(4) 0.0107 Uani
O15 O 0.7166(9) 0.6216(7) 0.5272(4) 0.0078 Uani
O16 O 0.8288(9) 0.4894(7) 0.3024(4) 0.0096 Uani
O17 O 0.5900(9) 0.2251(8) 0.3347(4) 0.0117 Uani
O19 O 0.7586(9) 0.6551(8) 0.7405(4) 0.0129 Uani
H11 H 0.795780 0.524486 0.520618 0.0270 Uiso
H12 H 0.839751 0.523445 0.246945 0.0270 Uiso
H13 H 0.742132 0.617374 0.794977 0.0270 Uiso
H14 H 0.633126 0.707338 0.721958 0.0270 Uiso
H1 H 0.362947 0.957880 0.049955 0.0100 Uiso
loop_
_atom_site_aniso_label
_atom_site_aniso_U_11
_atom_site_aniso_U_22
_atom_site_aniso_U_33
_atom_site_aniso_U_23
_atom_site_aniso_U_13
_atom_site_aniso_U_12
Y4 0.0043 0.0066 0.0064 0.0021 0.0015 0.0011
C4 0.014 0.016 0.005 -0.002 -0.001 0.005
O3 0.011 0.011 0.013 -0.0046 0.003 -0.002
O5 0.016 0.025 0.01 0.003 -0.001 -0.002
O6 0.01 0.016 0.028 -0.007 0.004 -0.004
Y7 0.0043 0.007 0.008 0.0013 0.0013 -0.0003
C2 0.01 0.008 0.007 0.002 0.002 0.002
C3 0.011 0.011 0.003 0.004 0 -0.001
O2 0.007 0.017 0.01 0.003 0.001 0.001
O4 0.012 0.023 0.013 0.01 0.006 0.004
O23 0.006 0.007 0.01 -0.0019 0.0049 0.0006
C1 0.009 0.013 0.01 0.006 0.004 0.003
C5 0.009 0.008 0.009 0.004 0.003 0.004
C6 0.007 0.007 0.007 0 0 -0.002
C7 0.006 0.009 0.009 0.003 0.003 0
O1 0.015 0.011 0.008 0.0014 0.001 0
O7 0.013 0.005 0.009 0.0001 0.0019 0
O9 0.008 0.007 0.008 0 0.0014 0.0006
O12 0.007 0.012 0.014 0.0048 0.0023 0.0039
O13 0.008 0.014 0.006 0.0037 0.0007 -0.003
O24 0.008 0.011 0.018 0.004 0.003 0.001
O27 0.005 0.011 0.02 0.002 0.005 -0.002
C8 0.005 0.007 0.008 0.005 0.001 -0.001
O20 0.007 0.015 0.022 -0.004 0.003 0.002
C9 0.01 0.006 0.006 0.001 0 0.001
C10 0.012 0.01 0.008 0.004 0.006 0.002
C11 0.006 0.008 0.01 0.003 0.001 0.001
C12 0.009 0.009 0.008 0.002 0 -0.001
O8 0.016 0.012 0.008 -0.0011 0.001 0.003
O14 0.012 0.007 0.013 0.0028 0.002 -0.002
O15 0.008 0.007 0.009 0.0026 0.0021 0.002
O16 0.008 0.012 0.01 0.0027 0.0041 0.0021
O17 0.006 0.009 0.021 0.004 0.004 0.002
O19 0.007 0.019 0.018 0.013 0.005 0.003
loop_
_geom_bond_atom_site_label_1
_geom_bond_atom_site_label_2
_geom_bond_site_symmetry_1
_geom_bond_site_symmetry_2
O5 C4 1_555 1_555
O6 C4 1_555 1_555
H7 O3 1_555 1_555
Y7 O5 1_555 1_555
O6 Y7 1_555 1_555
C3 C2 1_555 1_555
O4 C3 1_555 1_555
H8 O4 1_555 1_555
Y4 O1 1_555 1_555
C5 C6 1_555 1_555
C6 H3 1_555 1_555
C7 C6 1_555 1_555
H4 C7 1_555 1_555
O1 C1 1_555 1_555
O7 Y4 1_555 1_555
O23 C7 1_555 1_555
O13 Y4 1_555 1_555
H9 O9 1_555 1_555
H10 O23 1_555 1_555
O24 Y4 1_555 1_555
C5 O7 1_555 1_555
C6 O9 1_555 1_555
O24 C8 1_555 1_555
H15 O20 1_555 1_555
Y7 O8 1_555 1_555
C9 C10 1_555 1_555
C10 H5 1_555 1_555
C11 C10 1_555 1_555
H6 C11 1_555 1_555
C12 C11 1_555 1_555
O14 C9 1_555 1_555
O16 Y7 1_555 1_555
O17 Y7 1_555 1_555
O27 C12 1_555 1_555
H11 O15 1_555 1_555
H12 O16 1_555 1_555
H13 O19 1_555 1_555
H14 O19 1_555 1_555
C10 O15 1_555 1_555
C11 O16 1_555 1_555
C12 O17 1_555 1_555

#END
