
###############################################################################
#
# This file contains modified crystal structure data generated from the
# MOF subset of the Cambridge Structural Database (CSD) v543 
# hosted by the Cambridge Crystallographic Data Centre (CCDC).
#
# This work is licensed under the Creative Commons
# Attribution-NonCommercial-ShareAlike 4.0 International License.
# To view a copy of this license, visit
# http://creativecommons.org/licenses/by-nc-sa/4.0/
# or send a letter to
# Creative Commons, PO Box 1866, Mountain View, CA 94042, USA.
#
# CIF created using the CSD Python API on 29 September 2022
# The structure has been converted into the P1 space group
# The structure has a 3D framework
# The original CSD entry PABSEU is in the triclinic crystal system
# The original CSD entry PABSEU is in a Sohncke space group
# The framework has been calculated to contain at least 10.0% void space
# The void calculation uses a probe of radius 1.32A, grid spacing 0.4
#
###############################################################################

data_PABSEU
_chemical_formula_moiety         '(C12 H16 O19 Y2)n'
_symmetry_cell_setting           triclinic
_symmetry_space_group_name_H-M   'P 1'
_symmetry_Int_Tables_number      1
_space_group_name_Hall           'P 1'
loop_
_symmetry_equiv_pos_site_id
_symmetry_equiv_pos_as_xyz
1 x,y,z
_cell_length_a                   5.9720(2)
_cell_length_b                   7.3806(3)
_cell_length_c                   13.0904(5)
_cell_angle_alpha                102.517(3)
_cell_angle_beta                 101.411(3)
_cell_angle_gamma                90.915(3)
_cell_volume                     551.092
loop_
_atom_site_label
_atom_site_type_symbol
_atom_site_fract_x
_atom_site_fract_y
_atom_site_fract_z
_atom_site_U_iso_or_equiv
_atom_site_thermal_displace_type
Y7 Y 0.01932(7) 0.81642(6) 0.67980(4) 0.0072 Uani
O21 O 0.2496(12) 0.0125(10) 0.8359(5) 0.0164 Uani
O26 O 0.1726(10) 0.0791(9) 0.6392(5) 0.0131 Uani
C9 C 0.1516(14) 0.1671(12) 0.5661(6) 0.0070 Uani
C10 C 0.3381(15) 0.3087(12) 0.5663(6) 0.0080 Uani
H5 H 0.481361 0.246095 0.565108 0.0100 Uiso
C11 C 0.3669(13) 0.4554(12) 0.6724(6) 0.0086 Uani
H6 H 0.443724 0.400941 0.731034 0.0100 Uiso
C12 C 0.5085(15) 0.6282(13) 0.6708(7) 0.0102 Uani
O8 O 0.0170(11) 0.6537(10) 0.5074(5) 0.0125 Uani
O15 O 0.2814(10) 0.3811(9) 0.4732(5) 0.0089 Uani
O16 O 0.1499(10) 0.5109(9) 0.6915(5) 0.0104 Uani
O17 O 0.4065(11) 0.7749(9) 0.6732(5) 0.0138 Uani
O18 O 0.7154(10) 0.6117(9) 0.6685(5) 0.0134 Uani
O19 O 0.2475(10) 0.3453(9) 0.2554(5) 0.0144 Uani
H11 H 0.174955 0.452852 0.491463 0.0310 Uiso
H12 H 0.102753 0.463085 0.737199 0.0310 Uiso
H13 H 0.257436 0.381834 0.198743 0.0310 Uiso
H14 H 0.374773 0.298030 0.273899 0.0310 Uiso
O22 O 0.0783(11) 0.7809(9) 0.8786(5) 0.0129 Uani
O25 O 0.2827(10) 0.9901(8) 0.3447(5) 0.0106 Uani
O11 O 0.5955(10) 0.1421(9) 0.3292(5) 0.0126 Uani
O20 O 0.7662(11) 0.0271(9) 0.7539(5) 0.0160 Uani
H15 H 0.780417 0.136358 0.793511 0.0310 Uiso
H16 H 0.623101 0.009197 0.728671 0.0310 Uiso
Y4 Y 0.98016(7) 0.18336(6) 0.31990(4) 0.0068 Uani
C1 C 0.7926(16) 0.0648(15) 0.1024(8) 0.0102 Uani
H2 H 0.357278 0.103699 0.043794 0.0110 Uiso
C5 C 0.8423(14) 0.6111(13) 0.4306(6) 0.0085 Uani
C6 C 0.6514(14) 0.7510(13) 0.4347(6) 0.0089 Uani
H3 H 0.509129 0.685187 0.436667 0.0110 Uiso
C7 C 0.6168(14) 0.8226(12) 0.3304(6) 0.0084 Uani
H4 H 0.531535 0.725155 0.271747 0.0100 Uiso
C8 C 0.4857(15) 0.9998(13) 0.3355(6) 0.0096 Uani
O1 O 0.7466(11) 0.2215(9) 0.1497(5) 0.0136 Uani
O7 O 0.8191(11) 0.4749(9) 0.3545(5) 0.0113 Uani
O9 O 0.7138(10) 0.8931(9) 0.5292(5) 0.0107 Uani
O10 O 0.8337(10) 0.8605(8) 0.3070(5) 0.0102 Uani
O13 O 0.9733(11) 0.1463(9) 0.4908(5) 0.0128 Uani
H9 H 0.795778 0.971222 0.512434 0.0310 Uiso
H10 H 0.850015 0.769728 0.256907 0.0310 Uiso
H1 H 0.646581 0.035675 0.942408 0.0150 Uiso
C3 C 0.3841(15) 0.9751(14) 0.0119(7) 0.0092 Uani
O2 O 0.9590(11) 0.9806(10) 0.1415(5) 0.0125 Uani
O4 O 0.3542(10) 0.8617(9) 0.0838(5) 0.0125 Uani
H8 H 0.248121 0.909051 0.115120 0.0310 Uiso
C2 C 0.6305(16) 0.9674(14) 0.9972(7) 0.0128 Uani
C4 C 0.2263(17) 0.9170(14) 0.9030(8) 0.0118 Uani
O3 O 0.6772(10) 0.7804(9) 0.9598(5) 0.0117 Uani
H7 H 0.790967 0.778717 0.931593 0.0310 Uiso
loop_
_atom_site_aniso_label
_atom_site_aniso_U_11
_atom_site_aniso_U_22
_atom_site_aniso_U_33
_atom_site_aniso_U_23
_atom_site_aniso_U_13
_atom_site_aniso_U_12
Y7 0.0055 0.0047 0.0099 0.0016 -0.0015 -0.001
O21 0.015 0.02 0.011 0.003 -0.004 -0.002
O26 0.014 0.008 0.014 0.002 -0.004 -0.003
C9 0.007 0.0066 0.007 0.002 -0.0003 0.0006
C10 0.009 0.007 0.0077 0.002 0.0009 0
C11 0.0085 0.008 0.009 0.0019 0.001 -0.0004
C12 0.01 0.01 0.01 0.003 0 -0.002
O8 0.008 0.011 0.016 0.002 -0.003 0.005
O15 0.01 0.005 0.012 0.003 0.002 0
O16 0.011 0.008 0.013 0.005 0.001 0.003
O17 0.008 0.005 0.027 0.004 0 0.002
O18 0.006 0.014 0.019 0.001 0.003 0
O19 0.01 0.016 0.018 0.009 -0.001 0.004
O22 0.008 0.011 0.017 0.001 -0.001 -0.004
O25 0.008 0.007 0.017 0.007 -0.002 0.002
O11 0.007 0.006 0.023 0.003 -0.001 0.001
O20 0.011 0.011 0.022 0 -0.002 0
Y4 0.0043 0.0049 0.0098 0.0017 -0.0017 -0.0002
C1 0.008 0.011 0.011 0.005 -0.002 -0.004
C5 0.009 0.008 0.007 0 0 0
C6 0.009 0.008 0.009 0.0015 0.001 0.0002
C7 0.009 0.004 0.011 0.002 -0.001 -0.001
C8 0.01 0.008 0.008 0.001 -0.004 0
O1 0.014 0.008 0.016 0.001 -0.002 0.002
O7 0.016 0.004 0.012 0.002 -0.002 0.001
O9 0.01 0.011 0.009 0 0 -0.003
O10 0.01 0.005 0.013 -0.002 0.001 0
O13 0.01 0.012 0.015 0.006 -0.004 0.002
C3 0.007 0.011 0.008 0.003 -0.003 -0.004
O2 0.009 0.016 0.012 0.004 0 0.002
O4 0.01 0.016 0.013 0.006 0.003 0
C2 0.013 0.016 0.012 0.008 0.003 0.003
C4 0.009 0.012 0.014 0.002 0.002 0.005
O3 0.01 0.007 0.016 -0.001 0.002 -0.003
loop_
_geom_bond_atom_site_label_1
_geom_bond_atom_site_label_2
_geom_bond_site_symmetry_1
_geom_bond_site_symmetry_2
Y7 O8 1_555 1_555
C9 C10 1_555 1_555
C10 H5 1_555 1_555
C11 C10 1_555 1_555
H6 C11 1_555 1_555
C12 C11 1_555 1_555
O26 C9 1_555 1_555
O16 Y7 1_555 1_555
O17 Y7 1_555 1_555
O18 C12 1_555 1_555
H11 O15 1_555 1_555
H12 O16 1_555 1_555
H13 O19 1_555 1_555
H14 O19 1_555 1_555
O22 Y7 1_555 1_555
C10 O15 1_555 1_555
C11 O16 1_555 1_555
C12 O17 1_555 1_555
H15 O20 1_555 1_555
H16 O20 1_555 1_555
O11 Y4 1_555 1_555
Y4 O1 1_555 1_555
C5 C6 1_555 1_555
C6 H3 1_555 1_555
C7 C6 1_555 1_555
H4 C7 1_555 1_555
C8 C7 1_555 1_555
O1 C1 1_555 1_555
O7 Y4 1_555 1_555
O10 C7 1_555 1_555
O25 C8 1_555 1_555
O13 Y4 1_555 1_555
H9 O9 1_555 1_555
H10 O10 1_555 1_555
C5 O7 1_555 1_555
C6 O9 1_555 1_555
O4 C3 1_555 1_555
H8 O4 1_555 1_555
O3 C2 1_555 1_555
O22 C4 1_555 1_555
H7 O3 1_555 1_555

#END
