
###############################################################################
#
# This file contains modified crystal structure data generated from the
# MOF subset of the Cambridge Structural Database (CSD) v543 
# hosted by the Cambridge Crystallographic Data Centre (CCDC).
#
# This work is licensed under the Creative Commons
# Attribution-NonCommercial-ShareAlike 4.0 International License.
# To view a copy of this license, visit
# http://creativecommons.org/licenses/by-nc-sa/4.0/
# or send a letter to
# Creative Commons, PO Box 1866, Mountain View, CA 94042, USA.
#
# CIF created using the CSD Python API on 29 September 2022
# The structure has been converted into the P1 space group
# The structure has a 3D framework
# The original CSD entry PACDAC is in the triclinic crystal system
# The framework has been calculated to contain at least 10.0% void space
# The void calculation uses a probe of radius 1.32A, grid spacing 0.4
#
###############################################################################

data_PACDAC
_chemical_formula_moiety         '(C44 H64 N4 O16 Zn4)n'
_symmetry_cell_setting           triclinic
_symmetry_space_group_name_H-M   'P 1'
_symmetry_Int_Tables_number      1
_space_group_name_Hall           'P 1'
loop_
_symmetry_equiv_pos_site_id
_symmetry_equiv_pos_as_xyz
1 x,y,z
_cell_length_a                   11.5141(3)
_cell_length_b                   12.6105(4)
_cell_length_c                   14.0347(4)
_cell_angle_alpha                91.690(2)
_cell_angle_beta                 104.165(2)
_cell_angle_gamma                115.309(3)
_cell_volume                     1765.18
loop_
_atom_site_label
_atom_site_type_symbol
_atom_site_fract_x
_atom_site_fract_y
_atom_site_fract_z
Zn3 Zn 0.51305(3) 0.08747(3) 0.43281(3)
O9 O 0.4112(3) 0.0154(2) 0.61654(18)
O11 O 0.6742(2) 0.0514(2) 0.62655(18)
Zn1 Zn 0.48695(3) 0.91253(3) 0.56719(3)
Zn2 Zn 0.49361(3) 0.41251(3) 0.06626(3)
N1 N 0.4928(3) 0.8140(2) 0.68076(19)
C1 C 0.3932(4) 0.6889(3) 0.6447(3)
H1 H 0.4156 0.6562 0.5906
H2 H 0.3032 0.6845 0.6174
C2 C 0.3918(5) 0.6150(4) 0.7296(3)
H3 H 0.3031 0.5839 0.7423
H4 H 0.4060 0.5465 0.7098
C3 C 0.4604(4) 0.8576(3) 0.7655(3)
H5 H 0.3694 0.8526 0.7427
H6 H 0.5250 0.9419 0.7907
C4 C 0.4666(6) 0.7832(4) 0.8493(3)
H7 H 0.5369 0.8348 0.9098
H8 H 0.3797 0.7495 0.8650
C5 C 0.6266(4) 0.8190(4) 0.7185(3)
H9 H 0.6937 0.9019 0.7464
H10 H 0.6517 0.7921 0.6632
C6 C 0.6259(4) 0.7395(5) 0.7992(4)
H11 H 0.6462 0.6757 0.7770
H12 H 0.6969 0.7872 0.8608
N2 N 0.4963(3) 0.6863(2) 0.82067(19)
O1 O 0.5600(3) 0.8430(2) 0.47878(17)
O2 O 0.5888(3) 0.9846(2) 0.38346(18)
C7 C 0.5874(3) 0.8881(3) 0.4040(2)
C8 C 0.6255(3) 0.8226(3) 0.3323(2)
H13 H 0.7244 0.8501 0.3567
C9 C 0.5936(3) 0.8515(3) 0.2268(2)
H14 H 0.6355 0.9387 0.2290
H15 H 0.6323 0.8183 0.1856
C10 C 0.4430(3) 0.8009(3) 0.1791(2)
H16 H 0.4258 0.8192 0.1105
H17 H 0.4051 0.8386 0.2173
C11 C 0.3738(3) 0.6661(3) 0.1767(2)
H18 H 0.2749 0.6388 0.1519
C12 C 0.4046(3) 0.6360(3) 0.2823(2)
H19 H 0.3632 0.5487 0.2795
H20 H 0.3648 0.6683 0.3233
C13 C 0.5564(3) 0.6879(3) 0.3312(2)
H21 H 0.5731 0.6706 0.4003
H22 H 0.5949 0.6497 0.2941
C14 C 0.4122(3) 0.6023(3) 0.1052(2)
O3 O 0.4339(3) 0.6469(2) 0.02904(18)
O4 O 0.4178(2) 0.5085(2) 0.12594(18)
O5 O 0.2983(2) 0.8124(2) 0.47432(18)
O6 O 0.3258(2) 0.9486(2) 0.37345(18)
C15 C 0.2563(3) 0.8538(3) 0.4009(2)
C16 C 0.1114(3) 0.7833(3) 0.3390(2)
H23 H 0.0626 0.7234 0.3781
C17 C 0.0420(3) 0.8627(3) 0.3139(3)
H24 H 0.0922 0.9252 0.2784
H25 H 0.0427 0.9020 0.3763
C21 C 0.1055(3) 0.7175(3) 0.2437(3)
H31 H 0.1470 0.6636 0.2608
H32 H 0.1574 0.7755 0.2058
Zn7 Zn 0.50639(3) 0.58749(3) 0.93374(3)
N3 N 0.5037(3) 0.3137(2) 0.17933(19)
O13 O 0.6791(2) 0.5553(2) 0.12119(18)
O10 O 0.5661(3) 0.3531(2) 0.97096(18)
O12 O 0.3032(2) 0.3079(2) 0.97721(18)
C18 C 0.8975(3) 0.7916(3) 0.2493(3)
H26 H 0.8570 0.8462 0.2319
H27 H 0.8450 0.7345 0.2875
C19 C 0.8901(3) 0.7240(3) 0.1538(2)
H28 H 0.9368 0.7829 0.1132
C20 C 0.9606(3) 0.6453(3) 0.1788(3)
H29 H 0.9603 0.6063 0.1165
H30 H 0.9108 0.5824 0.2144
C22 C 0.7437(3) 0.6506(3) 0.0938(2)
O7 O 0.6968(2) 0.6921(2) 0.02279(18)
C18_2 C 0.1025(3) 0.2084(3) 0.7507(3)
H26_2 H 0.1430 0.1538 0.7681
H27_2 H 0.1550 0.2655 0.7125
C19_2 C 0.1099(3) 0.2760(3) 0.8462(2)
H28_2 H 0.0632 0.2171 0.8868
C20_2 C 0.0394(3) 0.3547(3) 0.8212(3)
H29_2 H 0.0397 0.3937 0.8835
H30_2 H 0.0892 0.4176 0.7856
C22_2 C 0.2563(3) 0.3494(3) 0.9062(2)
O8 O 0.3209(2) 0.4447(2) 0.87881(18)
N1_2 N 0.5072(3) 0.1860(2) 0.31924(19)
C1_2 C 0.6068(4) 0.3111(3) 0.3553(3)
H1_2 H 0.5844 0.3438 0.4094
H2_2 H 0.6968 0.3155 0.3826
C2_2 C 0.6082(5) 0.3850(4) 0.2704(3)
H3_2 H 0.6969 0.4161 0.2577
H4_2 H 0.5940 0.4535 0.2902
C3_2 C 0.5396(4) 0.1424(3) 0.2345(3)
H5_2 H 0.6306 0.1474 0.2573
H6_2 H 0.4750 0.0581 0.2093
C4_2 C 0.5334(6) 0.2168(4) 0.1507(3)
H7_2 H 0.4631 0.1652 0.0902
H8_2 H 0.6203 0.2505 0.1350
C5_2 C 0.3734(4) 0.1810(4) 0.2815(3)
H9_2 H 0.3063 0.0981 0.2536
H10_2 H 0.3483 0.2079 0.3368
C6_2 C 0.3741(4) 0.2605(5) 0.2008(4)
H11_2 H 0.3538 0.3243 0.2230
H12_2 H 0.3031 0.2128 0.1392
O1_2 O 0.4400(3) 0.1570(2) 0.52122(17)
C7_2 C 0.4126(3) 0.1119(3) 0.5960(2)
C8_2 C 0.3745(3) 0.1774(3) 0.6677(2)
H13_2 H 0.2756 0.1499 0.6433
C9_2 C 0.4064(3) 0.1485(3) 0.7732(2)
H14_2 H 0.3645 0.0613 0.7710
H15_2 H 0.3677 0.1817 0.8144
C10_2 C 0.5570(3) 0.1991(3) 0.8209(2)
H16_2 H 0.5742 0.1808 0.8895
H17_2 H 0.5949 0.1614 0.7827
C11_2 C 0.6262(3) 0.3339(3) 0.8233(2)
H18_2 H 0.7251 0.3612 0.8481
C12_2 C 0.5954(3) 0.3640(3) 0.7177(2)
H19_2 H 0.6368 0.4513 0.7205
H20_2 H 0.6352 0.3317 0.6767
C13_2 C 0.4436(3) 0.3121(3) 0.6688(2)
H21_2 H 0.4269 0.3294 0.5997
H22_2 H 0.4051 0.3503 0.7059
C14_2 C 0.5878(3) 0.3977(3) 0.8948(2)
O4_2 O 0.5822(2) 0.4915(2) 0.87406(18)
O5_2 O 0.7017(2) 0.1876(2) 0.52568(18)
C15_2 C 0.7437(3) 0.1462(3) 0.5991(2)
C16_2 C 0.8886(3) 0.2167(3) 0.6610(2)
H23_2 H 0.9374 0.2766 0.6219
C17_2 C 0.9580(3) 0.1373(3) 0.6861(3)
H24_2 H 0.9078 0.0748 0.7216
H25_2 H 0.9573 0.0980 0.6237
C21_2 C 0.8945(3) 0.2825(3) 0.7563(3)
H31_2 H 0.8530 0.3364 0.7392
H32_2 H 0.8426 0.2245 0.7942
loop_
_geom_bond_atom_site_label_1
_geom_bond_atom_site_label_2
_geom_bond_site_symmetry_1
_geom_bond_site_symmetry_2
Zn1 N1 1_555 1_555
Zn2 O4 1_555 1_555
N1 C1 1_555 1_555
C1 H1 1_555 1_555
H2 C1 1_555 1_555
C2 C1 1_555 1_555
H3 C2 1_555 1_555
H4 C2 1_555 1_555
C3 N1 1_555 1_555
H5 C3 1_555 1_555
H6 C3 1_555 1_555
C4 C3 1_555 1_555
H7 C4 1_555 1_555
H8 C4 1_555 1_555
C5 N1 1_555 1_555
H9 C5 1_555 1_555
H10 C5 1_555 1_555
C6 C5 1_555 1_555
H11 C6 1_555 1_555
H12 C6 1_555 1_555
N2 C2 1_555 1_555
O1 Zn1 1_555 1_555
O2 C7 1_555 1_555
C7 O1 1_555 1_555
C8 C7 1_555 1_555
H13 C8 1_555 1_555
C9 C8 1_555 1_555
H14 C9 1_555 1_555
H15 C9 1_555 1_555
C10 C9 1_555 1_555
H16 C10 1_555 1_555
H17 C10 1_555 1_555
C11 C10 1_555 1_555
H18 C11 1_555 1_555
C12 C11 1_555 1_555
H19 C12 1_555 1_555
H20 C12 1_555 1_555
C13 C8 1_555 1_555
H21 C13 1_555 1_555
H22 C13 1_555 1_555
C14 C11 1_555 1_555
O3 C14 1_555 1_555
O4 C14 1_555 1_555
O5 Zn1 1_555 1_555
O6 C15 1_555 1_555
C15 O5 1_555 1_555
C16 C15 1_555 1_555
H23 C16 1_555 1_555
C17 C16 1_555 1_555
H24 C17 1_555 1_555
H25 C17 1_555 1_555
C21 C16 1_555 1_555
H31 C21 1_555 1_555
H32 C21 1_555 1_555
Zn7 N2 1_555 1_555
N3 Zn2 1_555 1_555
O13 Zn2 1_555 1_555
C4 N2 1_555 1_555
C6 N2 1_555 1_555
C12 C13 1_555 1_555
H26 C18 1_555 1_555
H27 C18 1_555 1_555
C19 C18 1_555 1_555
H28 C19 1_555 1_555
C20 C19 1_555 1_555
H29 C20 1_555 1_555
H30 C20 1_555 1_555
C22 C19 1_555 1_555
O7 C22 1_555 1_555
O13 C22 1_555 1_555
H26_2 C18_2 1_555 1_555
H27_2 C18_2 1_555 1_555
C19_2 C18_2 1_555 1_555
H28_2 C19_2 1_555 1_555
C20_2 C19_2 1_555 1_555
H29_2 C20_2 1_555 1_555
H30_2 C20_2 1_555 1_555
C22_2 C19_2 1_555 1_555
O12 C22_2 1_555 1_555
O8 C22_2 1_555 1_555
Zn7 O8 1_555 1_555
Zn3 N1_2 1_555 1_555
Zn7 O4_2 1_555 1_555
N1_2 C1_2 1_555 1_555
C1_2 H1_2 1_555 1_555
H2_2 C1_2 1_555 1_555
C2_2 C1_2 1_555 1_555
H3_2 C2_2 1_555 1_555
H4_2 C2_2 1_555 1_555
C3_2 N1_2 1_555 1_555
H5_2 C3_2 1_555 1_555
H6_2 C3_2 1_555 1_555
C4_2 C3_2 1_555 1_555
H7_2 C4_2 1_555 1_555
H8_2 C4_2 1_555 1_555
C5_2 N1_2 1_555 1_555
H9_2 C5_2 1_555 1_555
H10_2 C5_2 1_555 1_555
C6_2 C5_2 1_555 1_555
H11_2 C6_2 1_555 1_555
H12_2 C6_2 1_555 1_555
N3 C2_2 1_555 1_555
O1_2 Zn3 1_555 1_555
O9 C7_2 1_555 1_555
C7_2 O1_2 1_555 1_555
C8_2 C7_2 1_555 1_555
H13_2 C8_2 1_555 1_555
C9_2 C8_2 1_555 1_555
H14_2 C9_2 1_555 1_555
H15_2 C9_2 1_555 1_555
C10_2 C9_2 1_555 1_555
H16_2 C10_2 1_555 1_555
H17_2 C10_2 1_555 1_555
C11_2 C10_2 1_555 1_555
H18_2 C11_2 1_555 1_555
C12_2 C11_2 1_555 1_555
H19_2 C12_2 1_555 1_555
H20_2 C12_2 1_555 1_555
C13_2 C8_2 1_555 1_555
H21_2 C13_2 1_555 1_555
H22_2 C13_2 1_555 1_555
C14_2 C11_2 1_555 1_555
O10 C14_2 1_555 1_555
O4_2 C14_2 1_555 1_555
O5_2 Zn3 1_555 1_555
O11 C15_2 1_555 1_555
C15_2 O5_2 1_555 1_555
C16_2 C15_2 1_555 1_555
H23_2 C16_2 1_555 1_555
C17_2 C16_2 1_555 1_555
H24_2 C17_2 1_555 1_555
H25_2 C17_2 1_555 1_555
C21_2 C16_2 1_555 1_555
H31_2 C21_2 1_555 1_555
H32_2 C21_2 1_555 1_555
C4_2 N3 1_555 1_555
C6_2 N3 1_555 1_555
C12_2 C13_2 1_555 1_555

#END
