
###############################################################################
#
# This file contains modified crystal structure data generated from the
# MOF subset of the Cambridge Structural Database (CSD) v543 
# hosted by the Cambridge Crystallographic Data Centre (CCDC).
#
# This work is licensed under the Creative Commons
# Attribution-NonCommercial-ShareAlike 4.0 International License.
# To view a copy of this license, visit
# http://creativecommons.org/licenses/by-nc-sa/4.0/
# or send a letter to
# Creative Commons, PO Box 1866, Mountain View, CA 94042, USA.
#
# CIF created using the CSD Python API on 29 September 2022
# The structure has been converted into the P1 space group
# The structure has a 3D framework
# The original CSD entry PAFMUH is in the monoclinic crystal system
# The framework has been calculated to contain at least 10.0% void space
# The void calculation uses a probe of radius 1.32A, grid spacing 0.4
#
###############################################################################

data_PAFMUH
_chemical_formula_moiety         '(C140 H112 Cd8 N24 O36)n'
_symmetry_cell_setting           triclinic
_symmetry_space_group_name_H-M   'P 1'
_symmetry_Int_Tables_number      1
_space_group_name_Hall           'P 1'
loop_
_symmetry_equiv_pos_site_id
_symmetry_equiv_pos_as_xyz
1 x,y,z
_cell_length_a                   16.095(3)
_cell_length_b                   16.492(3)
_cell_length_c                   16.308(3)
_cell_angle_alpha                90
_cell_angle_beta                 118.020(5)
_cell_angle_gamma                90
_cell_volume                     3821.37
loop_
_atom_site_label
_atom_site_type_symbol
_atom_site_fract_x
_atom_site_fract_y
_atom_site_fract_z
N4 N 0.0248(4) 0.2222(3) 0.1550(4)
C16 C 0.0546(5) 0.1827(4) 0.1043(4)
H15 H 0.1174 0.1759 0.1188
Cd5 Cd 0.10988(3) 0.30290(3) 0.29048(3)
O9 O 0.2099(3) 0.3914(3) 0.2736(3)
H1 H 0.221(5) 0.408(3) 0.228(3)
H2 H 0.212(5) 0.437(2) 0.304(4)
N2 N 0.0315(4) 0.2330(3) 0.3617(3)
C3 C 0.0749(5) 0.0278(5) 0.6548(5)
H5 H 0.1295 0.0002 0.6946
C4 C 0.0754(5) 0.0760(5) 0.5854(5)
H6 H 0.1290 0.0801 0.5776
C9 C 0.0696(5) 0.0492(6) 0.8846(5)
H9 H 0.1268 0.0421 0.8844
C10 C 0.0659(6) 0.0957(6) 0.9531(5)
H10 H 0.1201 0.1206 0.9980
C15 C 0.0641(5) 0.1976(4) 0.4411(5)
H14 H 0.1274 0.1944 0.4845
C22 C 0.0448(5) 0.5875(5) 0.1055(5)
C23 C 0.0200(5) 0.5183(4) 0.1377(5)
H19 H 0.0677 0.4886 0.1848
C26 C 0.1447(6) 0.6128(7) 0.1398(7)
H20 H 0.1857 0.5744 0.1850
H21 H 0.1542 0.6655 0.1677
H22 H 0.1586 0.6147 0.0886
O12 O 0.2204(4) 0.2104(3) 0.3690(4)
O13 O 0.1512(4) 0.3805(3) 0.4155(4)
N5 N 0.9296(4) 0.2192(4) 0.1121(4)
N6 N 0.9808(3) 0.1534(3) 0.0282(3)
C17 C 0.9030(5) 0.1773(5) 0.0360(5)
Cd3 Cd 0.83525(3) 0.27358(3) 0.17587(3)
O1 O 0.9710(3) 0.3787(3) 0.2089(3)
O2 O 0.8231(3) 0.3931(3) 0.1059(4)
O5 O 0.7489(3) 0.3094(3) 0.2501(3)
O6 O 0.7204(4) 0.2896(3) 0.3690(4)
O7 O 0.8030(4) 0.5002(3) 0.6134(3)
O8 O 0.8488(4) 0.6195(3) 0.5845(4)
N1 N 0.9354(4) 0.2246(3) 0.3187(4)
N3 N 0.9918(4) 0.1655(3) 0.4521(4)
C2 C 0.9962(5) 0.0196(4) 0.6668(4)
C5 C 0.9954(5) 0.1171(4) 0.5288(4)
C6 C 0.9154(5) 0.1128(5) 0.5393(5)
H7 H 0.8621 0.1430 0.5018
C7 C 0.9171(6) 0.0622(5) 0.6075(5)
H8 H 0.8627 0.0567 0.6135
C8 C 0.9911(5) 0.0137(4) 0.8176(4)
C11 C 0.9830(5) 0.1052(4) 0.9548(4)
C12 C 0.9039(6) 0.0710(6) 0.8889(5)
H11 H 0.8469 0.0787 0.8895
C13 C 0.9075(5) 0.0250(5) 0.8211(5)
H12 H 0.8528 0.0007 0.7764
C14 C 0.9135(4) 0.1843(4) 0.3739(4)
H13 H 0.8527 0.1703 0.3612
H16 H 0.8410 0.1655 0.9936
C18 C 0.9289(5) 0.4913(4) 0.1038(5)
C19 C 0.8578(5) 0.5350(4) 0.0337(4)
H17 H 0.7965 0.5154 0.0070
C20 C 0.8757(4) 0.6063(4) 0.0029(4)
C21 C 0.9684(5) 0.6327(5) 0.0387(5)
H18 H 0.9805 0.6816 0.0180
C24 C 0.9067(5) 0.4164(4) 0.1415(4)
C27 C 0.8037(4) 0.4084(4) 0.3712(4)
C28 C 0.7991(5) 0.4375(4) 0.4484(4)
H23 H 0.7696 0.4067 0.4749
C29 C 0.8376(5) 0.5116(4) 0.4868(5)
C30 C 0.8846(5) 0.5555(4) 0.4484(5)
H24 H 0.9118 0.6050 0.4748
C31 C 0.8923(6) 0.5277(5) 0.3716(6)
C32 C 0.8494(5) 0.4540(4) 0.3335(5)
H25 H 0.8515 0.4348 0.2809
C33 C 0.7555(4) 0.3301(4) 0.3283(4)
C34 C 0.8300(5) 0.5453(4) 0.5683(5)
C35 C 0.9419(8) 0.5748(6) 0.3291(7)
H26 H 0.9683 0.6233 0.3645
H27 H 0.8980 0.5891 0.2664
H28 H 0.9914 0.5423 0.3290
Cd6 Cd 0.89012(3) 0.69710(3) 0.70952(3)
Cd7 Cd 0.60988(3) 0.19710(3) 0.29048(3)
O10 O 0.7668(3) 0.1228(3) 0.1380(3)
O11 O 0.6998(4) 0.2316(3) 0.0564(4)
O3 O 0.7332(3) 0.6228(3) 0.8620(3)
O4 O 0.8002(4) 0.7316(3) 0.9436(4)
C25 C 0.7982(5) 0.6565(4) 0.9300(5)
Cd4 Cd 0.66475(3) 0.77358(3) 0.82413(3)
C25_2 C 0.7018(5) 0.1565(4) 0.0700(5)
O7_2 O 0.6970(4) 0.0002(3) 0.3866(3)
O8_2 O 0.6512(4) 0.1195(3) 0.4155(4)
C19_2 C 0.6422(5) 0.0350(4) 0.9663(4)
H17_2 H 0.7035 0.0154 0.9930
C20_2 C 0.6243(4) 0.1063(4) 0.9971(4)
C21_2 C 0.5316(5) 0.1327(5) 0.9613(5)
H18_2 H 0.5195 0.1816 0.9820
C22_2 C 0.4552(5) 0.0875(5) 0.8945(5)
C23_2 C 0.4800(5) 0.0183(4) 0.8623(5)
C26_2 C 0.3553(6) 0.1128(7) 0.8602(7)
H20_2 H 0.3143 0.0744 0.8150
H21_2 H 0.3458 0.1655 0.8323
H22_2 H 0.3414 0.1147 0.9114
C29_2 C 0.6624(5) 0.0116(4) 0.5132(5)
C30_2 C 0.6154(5) 0.0555(4) 0.5516(5)
H24_2 H 0.5882 0.1050 0.5252
C31_2 C 0.6077(6) 0.0277(5) 0.6284(6)
C34_2 C 0.6700(5) 0.0453(4) 0.4317(5)
C35_2 C 0.5581(8) 0.0748(6) 0.6709(7)
H26_2 H 0.5317 0.1233 0.6355
H27_2 H 0.6020 0.0891 0.7336
H28_2 H 0.5086 0.0423 0.6710
Cd2 Cd 0.39012(3) 0.80290(3) 0.70952(3)
O1_2 O 0.5290(3) 0.8787(3) 0.7911(3)
O2_2 O 0.6769(3) 0.8931(3) 0.8941(4)
O5_2 O 0.7511(3) 0.8094(3) 0.7499(3)
O6_2 O 0.7796(4) 0.7896(3) 0.6310(4)
O9_2 O 0.2901(3) 0.8914(3) 0.7264(3)
H1_2 H 0.279(5) 0.908(3) 0.772(3)
H2_2 H 0.288(5) 0.937(2) 0.696(4)
N1_2 N 0.5646(4) 0.7246(3) 0.6813(4)
N2_2 N 0.4685(4) 0.7330(3) 0.6383(3)
N3_2 N 0.5082(4) 0.6655(3) 0.5479(4)
C1 C 0.5046(6) 0.4647(4) 0.2600(4)
H3 H 0.4483 0.4315 0.2340
H4 H 0.5587 0.4289 0.2881
C2_2 C 0.5038(5) 0.5196(4) 0.3332(4)
C3_2 C 0.4251(5) 0.5278(5) 0.3452(5)
H5_2 H 0.3705 0.5002 0.3054
C4_2 C 0.4246(5) 0.5760(5) 0.4146(5)
H6_2 H 0.3710 0.5801 0.4224
C5_2 C 0.5046(5) 0.6171(4) 0.4712(4)
C6_2 C 0.5846(5) 0.6128(5) 0.4607(5)
H7_2 H 0.6379 0.6430 0.4982
C7_2 C 0.5829(6) 0.5622(5) 0.3925(5)
H8_2 H 0.6373 0.5567 0.3865
C8_2 C 0.5089(5) 0.5137(4) 0.1824(4)
C9_2 C 0.4304(5) 0.5492(6) 0.1154(5)
H9_2 H 0.3732 0.5421 0.1156
C10_2 C 0.4341(6) 0.5957(6) 0.0469(5)
H10_2 H 0.3799 0.6206 0.0020
C11_2 C 0.5170(5) 0.6052(4) 0.0452(4)
C12_2 C 0.5961(6) 0.5710(6) 0.1111(5)
H11_2 H 0.6531 0.5787 0.1105
C13_2 C 0.5925(5) 0.5250(5) 0.1789(5)
H12_2 H 0.6472 0.5007 0.2236
C14_2 C 0.5865(4) 0.6843(4) 0.6261(4)
H13_2 H 0.6473 0.6703 0.6388
C15_2 C 0.4359(5) 0.6976(4) 0.5589(5)
H14_2 H 0.3726 0.6944 0.5155
H16_2 H 0.6590 0.6655 0.0064
C18_2 C 0.5711(5) 0.9913(4) 0.8962(5)
H19_2 H 0.4323 0.9886 0.8152
C24_2 C 0.5933(5) 0.9164(4) 0.8585(4)
C27_2 C 0.6963(4) 0.9084(4) 0.6288(4)
C28_2 C 0.7009(5) 0.9375(4) 0.5516(4)
H23_2 H 0.7304 0.9067 0.5251
C32_2 C 0.6506(5) 0.9540(4) 0.6665(5)
H25_2 H 0.6485 0.9348 0.7191
C33_2 C 0.7445(4) 0.8301(4) 0.6717(4)
O12_2 O 0.2796(4) 0.7104(3) 0.6310(4)
O13_2 O 0.3488(4) 0.8805(3) 0.5845(4)
N7 N 0.4752(4) 0.7222(3) 0.8450(4)
N8 N 0.5704(4) 0.7192(4) 0.8879(4)
N6_2 N 0.5192(3) 0.6534(3) 0.9718(3)
C16_2 C 0.4454(5) 0.6827(4) 0.8957(4)
H15_2 H 0.3826 0.6759 0.8812
C17_2 C 0.5970(5) 0.6773(5) 0.9640(5)
O3_2 O 0.2668(3) 0.3772(3) 0.1380(3)
O4_2 O 0.1998(4) 0.2684(3) 0.0564(4)
C25_3 C 0.2018(5) 0.3435(4) 0.0700(5)
Cd4_2 Cd 0.33525(3) 0.22642(3) 0.17587(3)
Cd1 Cd 0.16475(3) 0.72642(3) 0.82413(3)
O1_3 O 0.0290(3) 0.6213(3) 0.7911(3)
O2_3 O 0.1769(3) 0.6069(3) 0.8941(4)
O5_3 O 0.2511(3) 0.6906(3) 0.7499(3)
O7_3 O 0.1970(4) 0.4998(3) 0.3866(3)
N1_3 N 0.0646(4) 0.7754(3) 0.6813(4)
N3_3 N 0.0082(4) 0.8345(3) 0.5479(4)
C2_3 C 0.0038(5) 0.9804(4) 0.3332(4)
C5_3 C 0.0046(5) 0.8829(4) 0.4712(4)
C6_3 C 0.0846(5) 0.8872(5) 0.4607(5)
H7_3 H 0.1379 0.8570 0.4982
C7_3 C 0.0829(6) 0.9378(5) 0.3925(5)
H8_3 H 0.1373 0.9433 0.3865
C8_3 C 0.0089(5) 0.9863(4) 0.1824(4)
C11_3 C 0.0170(5) 0.8948(4) 0.0452(4)
C12_3 C 0.0961(6) 0.9290(6) 0.1111(5)
H11_3 H 0.1531 0.9213 0.1105
C13_3 C 0.0925(5) 0.9750(5) 0.1789(5)
H12_3 H 0.1472 0.9993 0.2236
C14_3 C 0.0865(4) 0.8157(4) 0.6261(4)
H13_3 H 0.1473 0.8297 0.6388
H16_3 H 0.1590 0.8345 0.0064
C18_3 C 0.0711(5) 0.5087(4) 0.8962(5)
C19_3 C 0.1422(5) 0.4650(4) 0.9663(4)
H17_3 H 0.2035 0.4846 0.9930
C20_3 C 0.1243(4) 0.3937(4) 0.9971(4)
C21_3 C 0.0316(5) 0.3673(5) 0.9613(5)
H18_3 H 0.0195 0.3184 0.9820
C24_3 C 0.0933(5) 0.5836(4) 0.8585(4)
C27_3 C 0.1963(4) 0.5916(4) 0.6288(4)
C28_3 C 0.2009(5) 0.5625(4) 0.5516(4)
H23_3 H 0.2304 0.5933 0.5251
C29_3 C 0.1624(5) 0.4884(4) 0.5132(5)
C30_3 C 0.1154(5) 0.4445(4) 0.5516(5)
H24_3 H 0.0882 0.3950 0.5252
C31_3 C 0.1077(6) 0.4723(5) 0.6284(6)
C32_3 C 0.1506(5) 0.5460(4) 0.6665(5)
H25_3 H 0.1485 0.5652 0.7191
C33_3 C 0.2445(4) 0.6699(4) 0.6717(4)
C34_3 C 0.1700(5) 0.4547(4) 0.4317(5)
C35_3 C 0.0581(8) 0.4252(6) 0.6709(7)
H26_3 H 0.0317 0.3767 0.6355
H27_3 H 0.1020 0.4109 0.7336
H28_3 H 0.0086 0.4577 0.6710
O10_2 O 0.2332(3) 0.8772(3) 0.8620(3)
O11_2 O 0.3002(4) 0.7684(3) 0.9436(4)
N8_2 N 0.0704(4) 0.7808(4) 0.8879(4)
N6_3 N 0.0192(3) 0.8466(3) 0.9718(3)
C17_3 C 0.0970(5) 0.8227(5) 0.9640(5)
O9_3 O 0.7901(3) 0.6086(3) 0.7264(3)
H1_3 H 0.779(5) 0.592(3) 0.772(3)
H2_3 H 0.788(5) 0.563(2) 0.696(4)
N2_3 N 0.9685(4) 0.7670(3) 0.6383(3)
C3_3 C 0.9251(5) 0.9722(5) 0.3452(5)
H5_3 H 0.8705 0.9998 0.3054
C4_3 C 0.9246(5) 0.9240(5) 0.4146(5)
H6_3 H 0.8710 0.9199 0.4224
C9_3 C 0.9304(5) 0.9508(6) 0.1154(5)
H9_3 H 0.8732 0.9579 0.1156
C10_3 C 0.9341(6) 0.9043(6) 0.0469(5)
H10_3 H 0.8799 0.8794 0.0020
C15_3 C 0.9359(5) 0.8024(4) 0.5589(5)
H14_3 H 0.8726 0.8056 0.5155
C22_3 C 0.9552(5) 0.4125(5) 0.8945(5)
C23_3 C 0.9800(5) 0.4817(4) 0.8623(5)
H19_3 H 0.9323 0.5114 0.8152
C26_3 C 0.8553(6) 0.3872(7) 0.8602(7)
H20_3 H 0.8143 0.4256 0.8150
H21_3 H 0.8458 0.3345 0.8323
H22_3 H 0.8414 0.3853 0.9114
N7_2 N 0.9752(4) 0.7778(3) 0.8450(4)
C16_3 C 0.9454(5) 0.8173(4) 0.8957(4)
H15_3 H 0.8826 0.8241 0.8812
N4_2 N 0.5248(4) 0.2778(3) 0.1550(4)
N5_2 N 0.4296(4) 0.2808(4) 0.1121(4)
N6_4 N 0.4808(3) 0.3466(3) 0.0282(3)
C16_4 C 0.5546(5) 0.3173(4) 0.1043(4)
H15_4 H 0.6174 0.3241 0.1188
C17_4 C 0.4030(5) 0.3227(5) 0.0360(5)
O1_4 O 0.4710(3) 0.1213(3) 0.2089(3)
O2_4 O 0.3231(3) 0.1069(3) 0.1059(4)
O5_4 O 0.2489(3) 0.1906(3) 0.2501(3)
O9_4 O 0.7099(3) 0.1086(3) 0.2736(3)
H1_4 H 0.721(5) 0.092(3) 0.228(3)
H2_4 H 0.712(5) 0.063(2) 0.304(4)
N1_4 N 0.4354(4) 0.2754(3) 0.3187(4)
N2_4 N 0.5315(4) 0.2670(3) 0.3617(3)
N3_4 N 0.4918(4) 0.3345(3) 0.4521(4)
C1_2 C 0.4954(6) 0.5353(4) 0.7400(4)
H3_2 H 0.5517 0.5685 0.7660
H4_2 H 0.4413 0.5711 0.7119
C2_4 C 0.4962(5) 0.4804(4) 0.6668(4)
C3_4 C 0.5749(5) 0.4722(5) 0.6548(5)
H5_4 H 0.6295 0.4998 0.6946
C4_4 C 0.5754(5) 0.4240(5) 0.5854(5)
H6_4 H 0.6290 0.4199 0.5776
C5_4 C 0.4954(5) 0.3829(4) 0.5288(4)
C6_4 C 0.4154(5) 0.3872(5) 0.5393(5)
H7_4 H 0.3621 0.3570 0.5018
C7_4 C 0.4171(6) 0.4378(5) 0.6075(5)
H8_4 H 0.3627 0.4433 0.6135
C8_4 C 0.4911(5) 0.4863(4) 0.8176(4)
C9_4 C 0.5696(5) 0.4508(6) 0.8846(5)
H9_4 H 0.6268 0.4579 0.8844
C10_4 C 0.5659(6) 0.4043(6) 0.9531(5)
H10_4 H 0.6201 0.3794 0.9980
C11_4 C 0.4830(5) 0.3948(4) 0.9548(4)
C12_4 C 0.4039(6) 0.4290(6) 0.8889(5)
H11_4 H 0.3469 0.4213 0.8895
C13_4 C 0.4075(5) 0.4750(5) 0.8211(5)
H12_4 H 0.3528 0.4993 0.7764
C14_4 C 0.4135(4) 0.3157(4) 0.3739(4)
H13_4 H 0.3527 0.3297 0.3612
C15_4 C 0.5641(5) 0.3024(4) 0.4411(5)
H14_4 H 0.6274 0.3056 0.4845
H16_4 H 0.3410 0.3345 0.9936
C18_4 C 0.4289(5) 0.0087(4) 0.1038(5)
H19_4 H 0.5677 0.0114 0.1848
C24_4 C 0.4067(5) 0.0836(4) 0.1415(4)
C27_4 C 0.3037(4) 0.0916(4) 0.3712(4)
C28_4 C 0.2991(5) 0.0625(4) 0.4484(4)
H23_4 H 0.2696 0.0933 0.4749
C32_4 C 0.3494(5) 0.0460(4) 0.3335(5)
H25_4 H 0.3515 0.0652 0.2809
C33_4 C 0.2555(4) 0.1699(4) 0.3283(4)
O7_4 O 0.3030(4) 0.9998(3) 0.6134(3)
C19_4 C 0.3578(5) 0.9650(4) 0.0337(4)
H17_4 H 0.2965 0.9846 0.0070
C20_4 C 0.3757(4) 0.8937(4) 0.0029(4)
C21_4 C 0.4684(5) 0.8673(5) 0.0387(5)
H18_4 H 0.4805 0.8184 0.0180
C22_4 C 0.5448(5) 0.9125(5) 0.1055(5)
C23_4 C 0.5200(5) 0.9817(4) 0.1377(5)
C26_4 C 0.6447(6) 0.8872(7) 0.1398(7)
H20_4 H 0.6857 0.9256 0.1850
H21_4 H 0.6542 0.8345 0.1677
H22_4 H 0.6586 0.8853 0.0886
C29_4 C 0.3376(5) 0.9884(4) 0.4868(5)
C30_4 C 0.3846(5) 0.9445(4) 0.4484(5)
H24_4 H 0.4118 0.8950 0.4748
C31_4 C 0.3923(6) 0.9723(5) 0.3716(6)
C34_4 C 0.3300(5) 0.9547(4) 0.5683(5)
C35_4 C 0.4419(8) 0.9252(6) 0.3291(7)
H26_4 H 0.4683 0.8767 0.3645
H27_4 H 0.3980 0.9109 0.2664
H28_4 H 0.4914 0.9577 0.3290
C25_4 C 0.2982(5) 0.8435(4) 0.9300(5)
H3_3 H 0.0517 0.9315 0.7660
C1_3 C 0.9954(6) 0.9647(4) 0.7400(4)
H4_3 H 0.9413 0.9289 0.7119
C1_4 C 0.0046(6) 0.0353(4) 0.2600(4)
H4_4 H 0.0587 0.0711 0.2881
H3_4 H 0.9483 0.0685 0.2340
loop_
_geom_bond_atom_site_label_1
_geom_bond_atom_site_label_2
_geom_bond_site_symmetry_1
_geom_bond_site_symmetry_2
C16 N4 1_555 1_555
H15 C16 1_555 1_555
Cd5 N4 1_555 1_555
O9 Cd5 1_555 1_555
H1 O9 1_555 1_555
H2 O9 1_555 1_555
N2 Cd5 1_555 1_555
H5 C3 1_555 1_555
C4 C3 1_555 1_555
H6 C4 1_555 1_555
H9 C9 1_555 1_555
C10 C9 1_555 1_555
H10 C10 1_555 1_555
C15 N2 1_555 1_555
H14 C15 1_555 1_555
H19 C23 1_555 1_555
C26 C22 1_555 1_555
H20 C26 1_555 1_555
H21 C26 1_555 1_555
H22 C26 1_555 1_555
O12 Cd5 1_555 1_555
O13 Cd5 1_555 1_555
C22 C23 1_555 1_555
N5 C17 1_555 1_555
C17 N6 1_555 1_555
Cd3 N5 1_555 1_555
Cd3 O1 1_555 1_555
O1 C24 1_555 1_555
O2 Cd3 1_555 1_555
O5 Cd3 1_555 1_555
O6 C33 1_555 1_555
O7 C34 1_555 1_555
O8 C34 1_555 1_555
N1 Cd3 1_555 1_555
N3 C5 1_555 1_555
C6 C5 1_555 1_555
H7 C6 1_555 1_555
C7 C2 1_555 1_555
H8 C7 1_555 1_555
C12 C11 1_555 1_555
H11 C12 1_555 1_555
C13 C8 1_555 1_555
H12 C13 1_555 1_555
C14 N1 1_555 1_555
H13 C14 1_555 1_555
C18 C19 1_555 1_555
C19 H17 1_555 1_555
C20 C19 1_555 1_555
C21 C20 1_555 1_555
H18 C21 1_555 1_555
C24 O2 1_555 1_555
C27 C28 1_555 1_555
C28 H23 1_555 1_555
C29 C28 1_555 1_555
C30 C29 1_555 1_555
H24 C30 1_555 1_555
C31 C30 1_555 1_555
C32 C27 1_555 1_555
H25 C32 1_555 1_555
C33 O5 1_555 1_555
C34 C29 1_555 1_555
C35 C31 1_555 1_555
H26 C35 1_555 1_555
H27 C35 1_555 1_555
H28 C35 1_555 1_555
Cd6 O8 1_555 1_555
Cd7 O6 1_555 1_555
O10 Cd3 1_555 1_555
O11 Cd3 1_555 1_555
N3 C14 1_555 1_555
C6 C7 1_555 1_555
C12 C13 1_555 1_555
C18 C24 1_555 1_555
C27 C33 1_555 1_555
C31 C32 1_555 1_555
O3 C25 1_555 1_555
O4 C25 1_555 1_555
Cd4 O3 1_555 1_555
O4 Cd4 1_555 1_555
O10 C25_2 1_555 1_555
O11 C25_2 1_555 1_555
O7_2 C34_2 1_555 1_555
O8_2 C34_2 1_555 1_555
C19_2 H17_2 1_555 1_555
C20_2 C19_2 1_555 1_555
C21_2 C20_2 1_555 1_555
H18_2 C21_2 1_555 1_555
C22_2 C21_2 1_555 1_555
C26_2 C22_2 1_555 1_555
H20_2 C26_2 1_555 1_555
H21_2 C26_2 1_555 1_555
H22_2 C26_2 1_555 1_555
C30_2 C29_2 1_555 1_555
H24_2 C30_2 1_555 1_555
C31_2 C30_2 1_555 1_555
C34_2 C29_2 1_555 1_555
C35_2 C31_2 1_555 1_555
H26_2 C35_2 1_555 1_555
H27_2 C35_2 1_555 1_555
H28_2 C35_2 1_555 1_555
Cd7 O8_2 1_555 1_555
C22_2 C23_2 1_555 1_555
Cd4 O1_2 1_555 1_555
Cd2 O1_2 1_555 1_555
O1_2 C24_2 1_555 1_555
O2_2 Cd4 1_555 1_555
O5_2 Cd4 1_555 1_555
O6_2 C33_2 1_555 1_555
O9_2 Cd2 1_555 1_555
H1_2 O9_2 1_555 1_555
H2_2 O9_2 1_555 1_555
N1_2 Cd4 1_555 1_555
N2_2 Cd2 1_555 1_555
N3_2 C5_2 1_555 1_555
C1 H3 1_555 1_555
H4 C1 1_555 1_555
C2_2 C1 1_555 1_555
C3_2 C2_2 1_555 1_555
H5_2 C3_2 1_555 1_555
C4_2 C3_2 1_555 1_555
H6_2 C4_2 1_555 1_555
C5_2 C4_2 1_555 1_555
C6_2 C5_2 1_555 1_555
H7_2 C6_2 1_555 1_555
C7_2 C2_2 1_555 1_555
H8_2 C7_2 1_555 1_555
C8_2 C1 1_555 1_555
C9_2 C8_2 1_555 1_555
H9_2 C9_2 1_555 1_555
C10_2 C9_2 1_555 1_555
H10_2 C10_2 1_555 1_555
C11_2 C10_2 1_555 1_555
C12_2 C11_2 1_555 1_555
H11_2 C12_2 1_555 1_555
C13_2 C8_2 1_555 1_555
H12_2 C13_2 1_555 1_555
C14_2 N1_2 1_555 1_555
H13_2 C14_2 1_555 1_555
C15_2 N2_2 1_555 1_555
H14_2 C15_2 1_555 1_555
C24_2 O2_2 1_555 1_555
C27_2 C28_2 1_555 1_555
C28_2 H23_2 1_555 1_555
C32_2 C27_2 1_555 1_555
H25_2 C32_2 1_555 1_555
C33_2 O5_2 1_555 1_555
Cd6 O6_2 1_555 1_555
O12_2 Cd2 1_555 1_555
O13_2 Cd2 1_555 1_555
N7 Cd2 1_555 1_555
N8 Cd4 1_555 1_555
N1_2 N2_2 1_555 1_555
N3_2 C14_2 1_555 1_555
N3_2 C15_2 1_555 1_555
C6_2 C7_2 1_555 1_555
C12_2 C13_2 1_555 1_555
C18_2 C24_2 1_555 1_555
C27_2 C33_2 1_555 1_555
N7 N8 1_555 1_555
N8 C17_2 1_555 1_555
C16_2 N7 1_555 1_555
H15_2 C16_2 1_555 1_555
C17_2 N6_2 1_555 1_555
N6_2 C16_2 1_555 1_555
O3_2 C25_3 1_555 1_555
O4_2 C25_3 1_555 1_555
Cd4_2 O3_2 1_555 1_555
O4_2 Cd4_2 1_555 1_555
Cd1 O1_3 1_555 1_555
O1_3 C24_3 1_555 1_555
O2_3 Cd1 1_555 1_555
O5_3 Cd1 1_555 1_555
O12_2 C33_3 1_555 1_555
O7_3 C34_3 1_555 1_555
O13 C34_3 1_555 1_555
N1_3 Cd1 1_555 1_555
N3_3 C5_3 1_555 1_555
C6_3 C5_3 1_555 1_555
H7_3 C6_3 1_555 1_555
C7_3 C2_3 1_555 1_555
H8_3 C7_3 1_555 1_555
C12_3 C11_3 1_555 1_555
H11_3 C12_3 1_555 1_555
C13_3 C8_3 1_555 1_555
H12_3 C13_3 1_555 1_555
C14_3 N1_3 1_555 1_555
H13_3 C14_3 1_555 1_555
C18_3 C19_3 1_555 1_555
C19_3 H17_3 1_555 1_555
C20_3 C19_3 1_555 1_555
C21_3 C20_3 1_555 1_555
H18_3 C21_3 1_555 1_555
C24_3 O2_3 1_555 1_555
C27_3 C28_3 1_555 1_555
C28_3 H23_3 1_555 1_555
C29_3 C28_3 1_555 1_555
C30_3 C29_3 1_555 1_555
H24_3 C30_3 1_555 1_555
C31_3 C30_3 1_555 1_555
C32_3 C27_3 1_555 1_555
H25_3 C32_3 1_555 1_555
C33_3 O5_3 1_555 1_555
C34_3 C29_3 1_555 1_555
C35_3 C31_3 1_555 1_555
H26_3 C35_3 1_555 1_555
H27_3 C35_3 1_555 1_555
H28_3 C35_3 1_555 1_555
O10_2 Cd1 1_555 1_555
O11_2 Cd1 1_555 1_555
N8_2 Cd1 1_555 1_555
N3_3 C14_3 1_555 1_555
C6_3 C7_3 1_555 1_555
C12_3 C13_3 1_555 1_555
C18_3 C24_3 1_555 1_555
C27_3 C33_3 1_555 1_555
C31_3 C32_3 1_555 1_555
N8_2 C17_3 1_555 1_555
C17_3 N6_3 1_555 1_555
O9_3 Cd6 1_555 1_555
H1_3 O9_3 1_555 1_555
H2_3 O9_3 1_555 1_555
N2_3 Cd6 1_555 1_555
H5_3 C3_3 1_555 1_555
C4_3 C3_3 1_555 1_555
H6_3 C4_3 1_555 1_555
H9_3 C9_3 1_555 1_555
C10_3 C9_3 1_555 1_555
H10_3 C10_3 1_555 1_555
C15_3 N2_3 1_555 1_555
H14_3 C15_3 1_555 1_555
H19_3 C23_3 1_555 1_555
C26_3 C22_3 1_555 1_555
H20_3 C26_3 1_555 1_555
H21_3 C26_3 1_555 1_555
H22_3 C26_3 1_555 1_555
N7_2 Cd6 1_555 1_555
C22_3 C23_3 1_555 1_555
C16_3 N7_2 1_555 1_555
H15_3 C16_3 1_555 1_555
N4_2 N5_2 1_555 1_555
N5_2 C17_4 1_555 1_555
C16_4 N4_2 1_555 1_555
H15_4 C16_4 1_555 1_555
C17_4 N6_4 1_555 1_555
Cd4_2 N5_2 1_555 1_555
Cd7 N4_2 1_555 1_555
N6_4 C16_4 1_555 1_555
Cd4_2 O1_4 1_555 1_555
Cd7 O1_4 1_555 1_555
O1_4 C24_4 1_555 1_555
O2_4 Cd4_2 1_555 1_555
O5_4 Cd4_2 1_555 1_555
O12 C33_4 1_555 1_555
O9_4 Cd7 1_555 1_555
H1_4 O9_4 1_555 1_555
H2_4 O9_4 1_555 1_555
N1_4 Cd4_2 1_555 1_555
N2_4 Cd7 1_555 1_555
N3_4 C5_4 1_555 1_555
C1_2 H3_2 1_555 1_555
H4_2 C1_2 1_555 1_555
C2_4 C1_2 1_555 1_555
C3_4 C2_4 1_555 1_555
H5_4 C3_4 1_555 1_555
C4_4 C3_4 1_555 1_555
H6_4 C4_4 1_555 1_555
C5_4 C4_4 1_555 1_555
C6_4 C5_4 1_555 1_555
H7_4 C6_4 1_555 1_555
C7_4 C2_4 1_555 1_555
H8_4 C7_4 1_555 1_555
C8_4 C1_2 1_555 1_555
C9_4 C8_4 1_555 1_555
H9_4 C9_4 1_555 1_555
C10_4 C9_4 1_555 1_555
H10_4 C10_4 1_555 1_555
C11_4 C10_4 1_555 1_555
C12_4 C11_4 1_555 1_555
H11_4 C12_4 1_555 1_555
C13_4 C8_4 1_555 1_555
H12_4 C13_4 1_555 1_555
C14_4 N1_4 1_555 1_555
H13_4 C14_4 1_555 1_555
C15_4 N2_4 1_555 1_555
H14_4 C15_4 1_555 1_555
C24_4 O2_4 1_555 1_555
C27_4 C28_4 1_555 1_555
C28_4 H23_4 1_555 1_555
C32_4 C27_4 1_555 1_555
H25_4 C32_4 1_555 1_555
C33_4 O5_4 1_555 1_555
N1_4 N2_4 1_555 1_555
N3_4 C14_4 1_555 1_555
N3_4 C15_4 1_555 1_555
C6_4 C7_4 1_555 1_555
C12_4 C13_4 1_555 1_555
C18_4 C24_4 1_555 1_555
C27_4 C33_4 1_555 1_555
O7_4 C34_4 1_555 1_555
O13_2 C34_4 1_555 1_555
C19_4 H17_4 1_555 1_555
C20_4 C19_4 1_555 1_555
C21_4 C20_4 1_555 1_555
H18_4 C21_4 1_555 1_555
C22_4 C21_4 1_555 1_555
C26_4 C22_4 1_555 1_555
H20_4 C26_4 1_555 1_555
H21_4 C26_4 1_555 1_555
H22_4 C26_4 1_555 1_555
C30_4 C29_4 1_555 1_555
H24_4 C30_4 1_555 1_555
C31_4 C30_4 1_555 1_555
C34_4 C29_4 1_555 1_555
C35_4 C31_4 1_555 1_555
H26_4 C35_4 1_555 1_555
H27_4 C35_4 1_555 1_555
H28_4 C35_4 1_555 1_555
C22_4 C23_4 1_555 1_555
O10_2 C25_4 1_555 1_555
O11_2 C25_4 1_555 1_555
H4_3 C1_3 1_555 1_555
H4_4 C1_4 1_555 1_555

#END
