
###############################################################################
#
# This file contains modified crystal structure data generated from the
# MOF subset of the Cambridge Structural Database (CSD) v543 
# hosted by the Cambridge Crystallographic Data Centre (CCDC).
#
# This work is licensed under the Creative Commons
# Attribution-NonCommercial-ShareAlike 4.0 International License.
# To view a copy of this license, visit
# http://creativecommons.org/licenses/by-nc-sa/4.0/
# or send a letter to
# Creative Commons, PO Box 1866, Mountain View, CA 94042, USA.
#
# CIF created using the CSD Python API on 29 September 2022
# The structure has been converted into the P1 space group
# The structure has a 3D framework
# The original CSD entry PAFVEA is in the monoclinic crystal system
# The framework has been calculated to contain at least 10.0% void space
# The void calculation uses a probe of radius 1.32A, grid spacing 0.4
#
###############################################################################

data_PAFVEA
_chemical_formula_moiety         '(C52 H56 Cu12 N40)n'
_symmetry_cell_setting           triclinic
_symmetry_space_group_name_H-M   'P 1'
_symmetry_Int_Tables_number      1
_space_group_name_Hall           'P 1'
loop_
_symmetry_equiv_pos_site_id
_symmetry_equiv_pos_as_xyz
1 x,y,z
_cell_length_a                   7.3329(3)
_cell_length_b                   18.6223(7)
_cell_length_c                   14.8934(6)
_cell_angle_alpha                90
_cell_angle_beta                 101.642(2)
_cell_angle_gamma                90
_cell_volume                     1991.94
loop_
_atom_site_label
_atom_site_type_symbol
_atom_site_fract_x
_atom_site_fract_y
_atom_site_fract_z
Cu1 Cu 0.44101(10) 0.06036(3) 0.47873(5)
Cu2 Cu 0.66439(11) 0.31225(3) 0.49626(5)
N1 N 0.1240(6) 0.1377(2) 0.1143(3)
N2 N 0.1572(6) 0.0707(2) 0.4477(3)
N3 N 0.1488(7) 0.1400(2) 0.5747(3)
H1 H 0.2672 0.1463 0.5833
N4 N 0.1094(6) 0.3973(2) 0.6809(3)
N7 N 0.5534(7) 0.1552(2) 0.4907(3)
N8 N 0.6002(8) 0.2143(3) 0.4920(3)
C1 C 0.1238(9) 0.0667(3) 0.1242(4)
H2 H 0.1378 0.0386 0.0744
C2 C 0.1041(8) 0.0324(3) 0.2033(4)
C3 C 0.0828(7) 0.0729(3) 0.2783(3)
C4 C 0.0829(8) 0.1462(3) 0.2691(4)
H4 H 0.0688 0.1754 0.3180
C5 C 0.1039(8) 0.1767(3) 0.1877(4)
H5 H 0.1043 0.2265 0.1832
C6 C 0.0533(8) 0.0366(3) 0.3659(3)
C7 C 0.0646(8) 0.1039(3) 0.4987(4)
C8 C 0.0532(9) 0.1682(3) 0.6415(4)
H9 H 0.0971 0.1439 0.6994
C9 C 0.1188(9) 0.3668(3) 0.6006(4)
H11 H 0.1364 0.3964 0.5527
C10 C 0.1039(9) 0.2946(3) 0.5852(4)
H12 H 0.1089 0.2762 0.5277
C11 C 0.0812(8) 0.2487(3) 0.6558(4)
C12 C 0.0756(8) 0.2804(3) 0.7386(4)
H13 H 0.0628 0.2518 0.7882
C13 C 0.0885(9) 0.3521(3) 0.7491(4)
H14 H 0.0826 0.3715 0.8060
Cu7 Cu 0.12804(10) 0.50557(3) 0.70005(4)
N11 N 0.6240(6) 0.3623(2) 0.6143(3)
N12 N 0.6094(6) 0.1027(2) 0.1809(3)
N13 N 0.4778(7) 0.0071(3) 0.6111(3)
N14 N 0.7389(7) 0.3847(2) 0.4217(3)
Cu6 Cu 0.16439(11) 0.18775(3) 0.99626(5)
Cu3 Cu 0.62804(10) 0.99443(3) 0.20005(4)
N5 N 0.5222(7) 0.9929(3) 0.3889(3)
N6 N 0.5536(7) 0.9835(2) 0.3165(3)
N9 N 0.7080(8) 0.9284(3) 0.1231(3)
N10 N 0.7611(7) 0.8847(2) 0.0783(3)
H3 H 0.1051 0.9825 0.2063
H7 H 0.0909 0.9867 0.3652
Cu4 Cu 0.55899(10) 0.93964(3) 0.52127(5)
Cu5 Cu 0.83561(11) 0.81225(3) 0.00374(5)
Cu7_2 Cu 0.37196(10) 0.00557(3) 0.79995(4)
Cu1_2 Cu 0.05899(10) 0.56036(3) 0.02127(5)
N1_2 N 0.3760(6) 0.6377(2) 0.3857(3)
N2_2 N 0.3428(6) 0.5707(2) 0.0523(3)
C1_2 C 0.3762(9) 0.5667(3) 0.3758(4)
H2_2 H 0.3622 0.5386 0.4256
C2_2 C 0.3959(8) 0.5324(3) 0.2967(4)
H3_2 H 0.3949 0.4825 0.2937
C3_2 C 0.4172(7) 0.5729(3) 0.2217(3)
C4_2 C 0.4171(8) 0.6462(3) 0.2309(4)
H4_2 H 0.4312 0.6754 0.1820
C5_2 C 0.3961(8) 0.6767(3) 0.3123(4)
H5_2 H 0.3957 0.7265 0.3168
C6_2 C 0.4467(8) 0.5366(3) 0.1341(3)
H6 H 0.5782 0.5377 0.1325
H7_2 H 0.4091 0.4867 0.1348
C7_2 C 0.4354(8) 0.6039(3) 0.0013(4)
H8 H 0.5647 0.6033 0.0168
Cu6_2 Cu 0.33561(11) 0.68775(3) 0.50374(5)
N3_2 N 0.3512(7) 0.6400(2) 0.9253(3)
H1_2 H 0.2328 0.6463 0.9167
N4_2 N 0.3906(6) 0.8973(2) 0.8191(3)
C8_2 C 0.4468(9) 0.6682(3) 0.8585(4)
H9_2 H 0.4029 0.6439 0.8006
H10 H 0.5788 0.6584 0.8777
C9_2 C 0.3812(9) 0.8668(3) 0.8994(4)
H11_2 H 0.3636 0.8964 0.9473
C10_2 C 0.3961(9) 0.7946(3) 0.9148(4)
H12_2 H 0.3911 0.7762 0.9723
C11_2 C 0.4188(8) 0.7487(3) 0.8442(4)
C12_2 C 0.4244(8) 0.7804(3) 0.7614(4)
H13_2 H 0.4372 0.7518 0.7118
C13_2 C 0.4115(9) 0.8521(3) 0.7509(4)
H14_2 H 0.4174 0.8715 0.6940
N13_2 N 0.0222(7) 0.5071(3) 0.8889(3)
Cu3_2 Cu 0.87196(10) 0.49443(3) 0.29995(4)
N5_2 N 0.9778(7) 0.4929(3) 0.1111(3)
N6_2 N 0.9464(7) 0.4835(2) 0.1835(3)
N7_2 N 0.9466(7) 0.6552(2) 0.0093(3)
N8_2 N 0.8998(8) 0.7143(3) 0.0080(3)
N9_2 N 0.7920(8) 0.4284(3) 0.3769(3)
N12_2 N 0.8906(6) 0.6027(2) 0.3191(3)
Cu4_2 Cu 0.94101(10) 0.43964(3) 0.97873(5)
N11_2 N 0.8760(6) 0.8623(2) 0.8857(3)
N6_3 N 0.4464(7) 0.0165(2) 0.6835(3)
N9_3 N 0.2920(8) 0.0716(3) 0.8769(3)
N10_2 N 0.2389(7) 0.1153(2) 0.9217(3)
H3_3 H 0.8949 0.0175 0.7937
H7_3 H 0.9091 0.0133 0.6348
N2_3 N 0.8428(6) 0.9293(2) 0.5523(3)
N3_3 N 0.8512(7) 0.8600(2) 0.4253(3)
H1_3 H 0.7328 0.8537 0.4167
N7_3 N 0.4466(7) 0.8448(2) 0.5093(3)
N8_3 N 0.3998(8) 0.7857(3) 0.5080(3)
C1_3 C 0.8762(9) 0.9333(3) 0.8758(4)
H2_3 H 0.8622 0.9614 0.9256
C2_3 C 0.8959(8) 0.9676(3) 0.7967(4)
C3_3 C 0.9172(7) 0.9271(3) 0.7217(3)
C4_3 C 0.9171(8) 0.8538(3) 0.7309(4)
H4_3 H 0.9312 0.8246 0.6820
C5_3 C 0.8961(8) 0.8233(3) 0.8123(4)
H5_3 H 0.8957 0.7735 0.8168
C6_3 C 0.9467(8) 0.9634(3) 0.6341(3)
C7_3 C 0.9354(8) 0.8961(3) 0.5013(4)
C8_3 C 0.9468(9) 0.8318(3) 0.3585(4)
H9_3 H 0.9029 0.8561 0.3006
C9_3 C 0.8812(9) 0.6332(3) 0.3994(4)
H11_3 H 0.8636 0.6036 0.4473
C10_3 C 0.8961(9) 0.7054(3) 0.4148(4)
H12_3 H 0.8911 0.7238 0.4723
C11_3 C 0.9188(8) 0.7513(3) 0.3442(4)
C12_3 C 0.9244(8) 0.7196(3) 0.2614(4)
H13_3 H 0.9372 0.7482 0.2118
C13_3 C 0.9115(9) 0.6479(3) 0.2509(4)
H14_3 H 0.9174 0.6285 0.1940
N14_2 N 0.2611(7) 0.6153(2) 0.5783(3)
N6_4 N 0.0536(7) 0.5165(2) 0.8165(3)
N7_4 N 0.0534(7) 0.3448(2) 0.9907(3)
N8_4 N 0.1002(8) 0.2857(3) 0.9920(3)
N9_4 N 0.2080(8) 0.5716(3) 0.6231(3)
N3_4 N 0.6488(7) 0.3600(2) 0.0747(3)
H1_4 H 0.7672 0.3537 0.0833
C8_4 C 0.5532(9) 0.3318(3) 0.1415(4)
H9_4 H 0.5971 0.3561 0.1994
H10_2 H 0.4212 0.3416 0.1223
C9_4 C 0.6188(9) 0.1332(3) 0.1006(4)
H11_4 H 0.6364 0.1036 0.0527
C10_4 C 0.6039(9) 0.2054(3) 0.0852(4)
H12_4 H 0.6089 0.2238 0.0277
C11_4 C 0.5812(8) 0.2513(3) 0.1558(4)
C12_4 C 0.5756(8) 0.2196(3) 0.2386(4)
H13_4 H 0.5628 0.2482 0.2882
C13_4 C 0.5885(9) 0.1479(3) 0.2491(4)
H14_4 H 0.5826 0.1285 0.3060
N2_4 N 0.6572(6) 0.4293(2) 0.9477(3)
C1_4 C 0.6238(9) 0.4333(3) 0.6242(4)
H2_4 H 0.6378 0.4614 0.5744
C2_4 C 0.6041(8) 0.4676(3) 0.7033(4)
H3_4 H 0.6051 0.5175 0.7063
C3_4 C 0.5828(7) 0.4271(3) 0.7783(3)
C4_4 C 0.5829(8) 0.3538(3) 0.7691(4)
H4_4 H 0.5688 0.3246 0.8180
C5_4 C 0.6039(8) 0.3233(3) 0.6877(4)
H5_4 H 0.6043 0.2735 0.6832
C6_4 C 0.5533(8) 0.4634(3) 0.8659(3)
H6_2 H 0.4218 0.4623 0.8675
H7_4 H 0.5909 0.5133 0.8652
C7_4 C 0.5646(8) 0.3961(3) 0.9987(4)
H8_2 H 0.4353 0.3967 0.9832
H6_3 H 0.9218 0.0377 0.3675
H8_3 H 0.9353 0.1033 0.4832
H10_3 H 0.9212 0.1584 0.6223
H6_4 H 0.0782 0.9623 0.6325
H8_4 H 0.0647 0.8967 0.5168
H10_4 H 0.0788 0.8416 0.3777
loop_
_geom_bond_atom_site_label_1
_geom_bond_atom_site_label_2
_geom_bond_site_symmetry_1
_geom_bond_site_symmetry_2
Cu1 N2 1_555 1_555
Cu2 N8 1_555 1_555
N1 C1 1_555 1_555
N2 C6 1_555 1_555
N3 H1 1_555 1_555
N4 C9 1_555 1_555
N7 Cu1 1_555 1_555
N8 N7 1_555 1_555
C1 H2 1_555 1_555
C2 C1 1_555 1_555
C3 C2 1_555 1_555
C4 C3 1_555 1_555
H4 C4 1_555 1_555
C5 N1 1_555 1_555
H5 C5 1_555 1_555
C6 C3 1_555 1_555
C7 N2 1_555 1_555
C8 N3 1_555 1_555
H9 C8 1_555 1_555
C9 H11 1_555 1_555
C10 C9 1_555 1_555
H12 C10 1_555 1_555
C11 C8 1_555 1_555
C12 C11 1_555 1_555
H13 C12 1_555 1_555
C13 N4 1_555 1_555
H14 C13 1_555 1_555
Cu7 N4 1_555 1_555
N11 Cu2 1_555 1_555
N13 Cu1 1_555 1_555
N14 Cu2 1_555 1_555
N3 C7 1_555 1_555
C4 C5 1_555 1_555
C10 C11 1_555 1_555
C12 C13 1_555 1_555
Cu3 N6 1_555 1_555
N6 N5 1_555 1_555
N9 Cu3 1_555 1_555
N10 N9 1_555 1_555
Cu4 N5 1_555 1_555
Cu5 N10 1_555 1_555
Cu1_2 N2_2 1_555 1_555
N1_2 C1_2 1_555 1_555
N2_2 C6_2 1_555 1_555
C1_2 H2_2 1_555 1_555
C2_2 C1_2 1_555 1_555
H3_2 C2_2 1_555 1_555
C3_2 C2_2 1_555 1_555
C4_2 C3_2 1_555 1_555
H4_2 C4_2 1_555 1_555
C5_2 N1_2 1_555 1_555
H5_2 C5_2 1_555 1_555
C6_2 C3_2 1_555 1_555
H6 C6_2 1_555 1_555
H7_2 C6_2 1_555 1_555
C7_2 N2_2 1_555 1_555
H8 C7_2 1_555 1_555
Cu6_2 N1_2 1_555 1_555
C4_2 C5_2 1_555 1_555
N3_2 H1_2 1_555 1_555
N4_2 C9_2 1_555 1_555
C8_2 N3_2 1_555 1_555
H9_2 C8_2 1_555 1_555
H10 C8_2 1_555 1_555
C9_2 H11_2 1_555 1_555
C10_2 C9_2 1_555 1_555
H12_2 C10_2 1_555 1_555
C11_2 C8_2 1_555 1_555
C12_2 C11_2 1_555 1_555
H13_2 C12_2 1_555 1_555
C13_2 N4_2 1_555 1_555
H14_2 C13_2 1_555 1_555
C10_2 C11_2 1_555 1_555
C12_2 C13_2 1_555 1_555
Cu5 N8_2 1_555 1_555
Cu3_2 N6_2 1_555 1_555
N6_2 N5_2 1_555 1_555
N8_2 N7_2 1_555 1_555
N9_2 Cu3_2 1_555 1_555
N14 N9_2 1_555 1_555
N12_2 Cu3_2 1_555 1_555
Cu7_2 N6_3 1_555 1_555
N6_3 N13 1_555 1_555
N9_3 Cu7_2 1_555 1_555
N10_2 N9_3 1_555 1_555
Cu6 N10_2 1_555 1_555
Cu4 N2_3 1_555 1_555
Cu6_2 N8_3 1_555 1_555
N11_2 C1_3 1_555 1_555
N2_3 C6_3 1_555 1_555
N3_3 H1_3 1_555 1_555
N12_2 C9_3 1_555 1_555
N7_3 Cu4 1_555 1_555
N8_3 N7_3 1_555 1_555
C1_3 H2_3 1_555 1_555
C2_3 C1_3 1_555 1_555
C3_3 C2_3 1_555 1_555
C4_3 C3_3 1_555 1_555
H4_3 C4_3 1_555 1_555
C5_3 N11_2 1_555 1_555
H5_3 C5_3 1_555 1_555
C6_3 C3_3 1_555 1_555
C7_3 N2_3 1_555 1_555
C8_3 N3_3 1_555 1_555
H9_3 C8_3 1_555 1_555
C9_3 H11_3 1_555 1_555
C10_3 C9_3 1_555 1_555
H12_3 C10_3 1_555 1_555
C11_3 C8_3 1_555 1_555
C12_3 C11_3 1_555 1_555
H13_3 C12_3 1_555 1_555
C13_3 N12_2 1_555 1_555
H14_3 C13_3 1_555 1_555
N14_2 Cu6_2 1_555 1_555
N3_3 C7_3 1_555 1_555
C4_3 C5_3 1_555 1_555
C10_3 C11_3 1_555 1_555
C12_3 C13_3 1_555 1_555
Cu6 N8_4 1_555 1_555
Cu7 N6_4 1_555 1_555
N6_4 N13_2 1_555 1_555
N8_4 N7_4 1_555 1_555
N9_4 Cu7 1_555 1_555
N14_2 N9_4 1_555 1_555
N3_4 H1_4 1_555 1_555
N12 C9_4 1_555 1_555
C8_4 N3_4 1_555 1_555
H9_4 C8_4 1_555 1_555
H10_2 C8_4 1_555 1_555
C9_4 H11_4 1_555 1_555
C10_4 C9_4 1_555 1_555
H12_4 C10_4 1_555 1_555
C11_4 C8_4 1_555 1_555
C12_4 C11_4 1_555 1_555
H13_4 C12_4 1_555 1_555
C13_4 N12 1_555 1_555
H14_4 C13_4 1_555 1_555
C10_4 C11_4 1_555 1_555
C12_4 C13_4 1_555 1_555
Cu4_2 N2_4 1_555 1_555
N11 C1_4 1_555 1_555
N2_4 C6_4 1_555 1_555
C1_4 H2_4 1_555 1_555
C2_4 C1_4 1_555 1_555
H3_4 C2_4 1_555 1_555
C3_4 C2_4 1_555 1_555
C4_4 C3_4 1_555 1_555
H4_4 C4_4 1_555 1_555
C5_4 N11 1_555 1_555
H5_4 C5_4 1_555 1_555
C6_4 C3_4 1_555 1_555
H6_2 C6_4 1_555 1_555
H7_4 C6_4 1_555 1_555
C7_4 N2_4 1_555 1_555
H8_2 C7_4 1_555 1_555
C4_4 C5_4 1_555 1_555

#END
