
###############################################################################
#
# This file contains modified crystal structure data generated from the
# MOF subset of the Cambridge Structural Database (CSD) v543 
# hosted by the Cambridge Crystallographic Data Centre (CCDC).
#
# This work is licensed under the Creative Commons
# Attribution-NonCommercial-ShareAlike 4.0 International License.
# To view a copy of this license, visit
# http://creativecommons.org/licenses/by-nc-sa/4.0/
# or send a letter to
# Creative Commons, PO Box 1866, Mountain View, CA 94042, USA.
#
# CIF created using the CSD Python API on 29 September 2022
# The structure has been converted into the P1 space group
# The structure has a 3D framework
# The original CSD entry PAHKIW is in the trigonal crystal system
# The original CSD entry PAHKIW is in a Sohncke space group
# The framework has been calculated to contain at least 10.0% void space
# The void calculation uses a probe of radius 1.32A, grid spacing 0.4
#
###############################################################################

data_PAHKIW
_chemical_formula_moiety         '(C63 H36 Co9 O45)n'
_symmetry_cell_setting           triclinic
_symmetry_space_group_name_H-M   'P 1'
_symmetry_Int_Tables_number      1
_space_group_name_Hall           'P 1'
loop_
_symmetry_equiv_pos_site_id
_symmetry_equiv_pos_as_xyz
1 x,y,z
_cell_length_a                   15.2707(7)
_cell_length_b                   15.2707
_cell_length_c                   10.1072(6)
_cell_angle_alpha                90
_cell_angle_beta                 90
_cell_angle_gamma                120
_cell_volume                     2041.17
loop_
_atom_site_label
_atom_site_type_symbol
_atom_site_fract_x
_atom_site_fract_y
_atom_site_fract_z
_atom_site_U_iso_or_equiv
_atom_site_thermal_displace_type
Co4 Co 0.0021(14) 0.0121(12) 0.7504(18) 0.0053 Uiso
Co6 Co 0.0100(18) 0.9979(14) 0.4171(18) 0.0053 Uiso
O6 O 0.3825(9) 0.5899(8) 0.0130(10) 0.0359 Uiso
C8 C 0.4815(9) 0.5309(8) 0.1111(10) 0.0328 Uiso
C9 C 0.4239(9) 0.5851(8) 0.1191(10) 0.0328 Uiso
O8 O 0.5852(9) 0.3336(8) 0.0329(10) 0.0359 Uiso
C12 C 0.5574(9) 0.4014(8) 0.0605(10) 0.0328 Uiso
O9 O 0.4137(9) 0.6234(8) 0.2275(10) 0.0559 Uiso
H7 H 0.4590(9) 0.4760(8) 0.3139(10) 0.0462 Uiso
O10 O 0.5338(9) 0.3441(8) 0.2771(10) 0.0359 Uiso
C13 C 0.5261(9) 0.4092(8) 0.1898(10) 0.0328 Uiso
C14 C 0.4881(9) 0.4737(8) 0.2161(10) 0.0328 Uiso
H8 H 0.5315(9) 0.3556(8) 0.3755(10) 0.0462 Uiso
O23 O 0.3251(7) 0.7335(11) 0.0570(13) 0.0359 Uiso
Co7 Co 0.2967(13) 0.6658(18) 0.2262(18) 0.0053 Uiso
Co9 Co 0.6628(16) 0.3075(24) 0.1804(20) 0.0053 Uiso
O1 O 0.5513(7) 0.3153(6) 0.5478(9) 0.0359 Uiso
O2 O 0.1756(7) 0.0743(6) 0.3914(9) 0.0359 Uiso
O3 O 0.0691(7) 0.0564(6) 0.6058(9) 0.0359 Uiso
C1 C 0.2310(7) 0.1279(6) 0.5011(9) 0.0328 Uiso
C2 C 0.3358(7) 0.1842(6) 0.5092(9) 0.0328 Uiso
C3 C 0.1696(7) 0.1165(6) 0.6110(9) 0.0328 Uiso
C4 C 0.3810(7) 0.2292(6) 0.6310(9) 0.0328 Uiso
C5 C 0.4921(7) 0.2798(6) 0.6496(9) 0.0328 Uiso
H1 H 0.3826(7) 0.1896(6) 0.4244(9) 0.0462 Uiso
H2 H 0.2187(7) 0.0801(6) 0.3168(9) 0.0462 Uiso
O4 O 0.1481(7) 0.1551(6) 0.8290(9) 0.0359 Uiso
O5 O 0.5244(7) 0.2845(6) 0.7669(9) 0.0359 Uiso
C6 C 0.2162(7) 0.1671(6) 0.7291(9) 0.0328 Uiso
C7 C 0.3207(7) 0.2210(6) 0.7413(9) 0.0328 Uiso
H3 H 0.1689(7) 0.1420(6) 0.9165(9) 0.0462 Uiso
H4 H 0.3568(7) 0.2556(6) 0.8351(9) 0.0462 Uiso
H5 H 0.5162(9) 0.5767(8) 0.9061(10) 0.0462 Uiso
O7 O 0.6074(9) 0.4656(8) 0.8459(10) 0.0359 Uiso
C10 C 0.5611(9) 0.4687(8) 0.9631(10) 0.0328 Uiso
C11 C 0.5205(9) 0.5303(8) 0.9852(10) 0.0328 Uiso
H6 H 0.5922(9) 0.4984(8) 0.7737(10) 0.0462 Uiso
O11 O 0.8561(8) 0.9210(7) 0.4879(13) 0.0359 Uiso
O12 O 0.4586(8) 0.6642(7) 0.4793(13) 0.0359 Uiso
O13 O 0.4084(8) 0.6749(7) 0.7237(13) 0.0359 Uiso
C15 C 0.5388(8) 0.7187(7) 0.5641(13) 0.0328 Uiso
C16 C 0.6406(8) 0.7704(7) 0.5286(13) 0.0328 Uiso
C17 C 0.5068(8) 0.7204(7) 0.6954(13) 0.0328 Uiso
C18 C 0.7138(8) 0.8198(7) 0.6280(13) 0.0328 Uiso
C19 C 0.8240(8) 0.8744(7) 0.5970(13) 0.0328 Uiso
H9 H 0.6639(8) 0.7718(7) 0.4262(13) 0.0462 Uiso
H10 H 0.4726(8) 0.6722(7) 0.3805(13) 0.0462 Uiso
O14 O 0.5439(8) 0.7818(7) 0.9132(13) 0.0359 Uiso
O15 O 0.8841(8) 0.8725(7) 0.6862(13) 0.0559 Uiso
C20 C 0.5818(8) 0.7759(7) 0.7905(13) 0.0328 Uiso
C21 C 0.6841(8) 0.8208(7) 0.7598(13) 0.0328 Uiso
H11 H 0.5982(8) 0.8321(7) 0.9687(13) 0.0462 Uiso
H12 H 0.7417(8) 0.8602(7) 0.8356(13) 0.0462 Uiso
Co2 Co 0.3691(13) 0.7033(13) 0.8929(18) 0.0053 Uiso
Co3 Co 0.6447(18) 0.3372(16) 0.8471(20) 0.0053 Uiso
O16 O 0.6847(6) 0.2360(9) 0.8811(9) 0.0359 Uiso
O19 O 0.7484(12) 0.4148(9) 0.6996(10) 0.0359 Uiso
O20 O 0.2097(12) 0.5863(9) 0.8942(10) 0.0559 Uiso
O22 O 0.3358(7) 0.7944(11) 0.8126(13) 0.0359 Uiso
Co8 Co 0.3342(18) 0.6309(13) 0.5596(18) 0.0053 Uiso
Co10 Co 0.6925(24) 0.3553(18) 0.5138(20) 0.0053 Uiso
O21 O 0.0790(7) 0.9351(11) 0.8212(13) 0.0359 Uiso
O17 O 0.9257(6) 0.1013(9) 0.7247(9) 0.0359 Uiso
O18 O 0.9436(6) 0.0127(9) 0.9391(9) 0.0359 Uiso
O21_2 O 0.0649(11) 0.1439(13) 0.1546(13) 0.0359 Uiso
O24 O 0.1275(7) 0.0116(11) 0.0195(13) 0.0559 Uiso
O5_2 O 0.7155(6) 0.2399(9) 0.1002(9) 0.0359 Uiso
C6_2 C 0.8329(6) 0.0491(9) 0.0624(9) 0.0328 Uiso
C7_2 C 0.7790(6) 0.0997(9) 0.0746(9) 0.0328 Uiso
H3_2 H 0.8580(6) 0.0269(9) 0.2498(9) 0.0462 Uiso
H4_2 H 0.7444(6) 0.1012(9) 0.1684(9) 0.0462 Uiso
O7_2 O 0.5344(8) 0.1418(12) 0.1792(10) 0.0359 Uiso
O8_2 O 0.6664(8) 0.2516(12) 0.3662(10) 0.0359 Uiso
C10_2 C 0.5313(8) 0.0924(12) 0.2964(10) 0.0328 Uiso
C12_2 C 0.5986(8) 0.1560(12) 0.3938(10) 0.0328 Uiso
H6_2 H 0.5016(8) 0.0938(12) 0.1070(10) 0.0462 Uiso
O10_2 O 0.6559(8) 0.1897(12) 0.6104(10) 0.0359 Uiso
C13_2 C 0.5908(8) 0.1169(12) 0.5231(10) 0.0328 Uiso
C14_2 C 0.5263(8) 0.0144(12) 0.5494(10) 0.0328 Uiso
H8_2 H 0.6444(8) 0.1759(12) 0.7088(10) 0.0462 Uiso
O16_2 O 0.7640(9) 0.4487(11) 0.2145(9) 0.0359 Uiso
C1_2 C 0.8721(6) 0.1031(9) 0.8344(9) 0.0328 Uiso
C2_2 C 0.8158(6) 0.1516(9) 0.8425(9) 0.0328 Uiso
C3_2 C 0.8835(6) 0.0531(9) 0.9443(9) 0.0328 Uiso
C4_2 C 0.7708(6) 0.1518(9) 0.9643(9) 0.0328 Uiso
C5_2 C 0.7202(6) 0.2123(9) 0.9829(9) 0.0328 Uiso
H1_2 H 0.8104(6) 0.1930(9) 0.7577(9) 0.0462 Uiso
H2_2 H 0.9199(6) 0.1386(9) 0.6501(9) 0.0462 Uiso
O4_2 O 0.8449(6) 0.9930(9) 0.1623(9) 0.0359 Uiso
O6_2 O 0.4101(8) 0.7926(12) 0.3463(10) 0.0359 Uiso
C8_2 C 0.4691(8) 0.9506(12) 0.4444(10) 0.0328 Uiso
C9_2 C 0.4149(8) 0.8388(12) 0.4524(10) 0.0328 Uiso
H5_2 H 0.4233(8) 0.9395(12) 0.2394(10) 0.0462 Uiso
C11_2 C 0.4697(8) 0.9902(12) 0.3185(10) 0.0328 Uiso
O9_2 O 0.3766(8) 0.7903(12) 0.5608(10) 0.0559 Uiso
H7_2 H 0.5240(8) 0.9830(12) 0.6472(10) 0.0462 Uiso
C17_2 C 0.2796(7) 0.7864(11) 0.0287(13) 0.0328 Uiso
O14_2 O 0.2182(7) 0.7621(11) 0.2465(13) 0.0359 Uiso
C20_2 C 0.2241(7) 0.8059(11) 0.1238(13) 0.0328 Uiso
C21_2 C 0.1792(7) 0.8633(11) 0.0931(13) 0.0328 Uiso
H11_2 H 0.1679(7) 0.7661(11) 0.3020(13) 0.0462 Uiso
H12_2 H 0.1398(7) 0.8815(11) 0.1689(13) 0.0462 Uiso
Co1 Co 0.9879(12) 0.9900(18) 0.0837(18) 0.0053 Uiso
O17_2 O 0.8987(9) 0.8244(11) 0.0581(9) 0.0359 Uiso
O18_2 O 0.9873(9) 0.9309(11) 0.2725(9) 0.0359 Uiso
O22_2 O 0.2056(11) 0.5414(13) 0.1460(13) 0.0359 Uiso
O23_2 O 0.2665(11) 0.5916(13) 0.3904(13) 0.0359 Uiso
C15_2 C 0.2813(7) 0.8201(11) 0.8974(13) 0.0328 Uiso
C16_2 C 0.2296(7) 0.8702(11) 0.8619(13) 0.0328 Uiso
C18_2 C 0.1802(7) 0.8940(11) 0.9613(13) 0.0328 Uiso
C19_2 C 0.1256(7) 0.9496(11) 0.9303(13) 0.0328 Uiso
H9_2 H 0.2282(7) 0.8921(11) 0.7595(13) 0.0462 Uiso
H10_2 H 0.3278(7) 0.8004(11) 0.7138(13) 0.0462 Uiso
O4_3 O 0.0070(9) 0.8519(7) 0.4957(9) 0.0359 Uiso
O6_3 O 0.2074(12) 0.6175(9) 0.6797(10) 0.0359 Uiso
C8_3 C 0.0494(12) 0.5185(9) 0.7778(10) 0.0328 Uiso
C9_3 C 0.1612(12) 0.5761(9) 0.7858(10) 0.0328 Uiso
H5_3 H 0.0605(12) 0.4838(9) 0.5728(10) 0.0462 Uiso
C11_3 C 0.0098(12) 0.4795(9) 0.6519(10) 0.0328 Uiso
H7_3 H 0.0170(12) 0.5410(9) 0.9806(10) 0.0462 Uiso
C15_3 C 0.1799(11) 0.4612(8) 0.2308(13) 0.0328 Uiso
C16_3 C 0.1298(11) 0.3594(8) 0.1953(13) 0.0328 Uiso
C17_3 C 0.2136(11) 0.4932(8) 0.3621(13) 0.0328 Uiso
C18_3 C 0.1060(11) 0.2862(8) 0.2947(13) 0.0328 Uiso
C19_3 C 0.0504(11) 0.1760(8) 0.2637(13) 0.0328 Uiso
H9_3 H 0.1079(11) 0.3361(8) 0.0929(13) 0.0462 Uiso
H10_3 H 0.1996(11) 0.5274(8) 0.0472(13) 0.0462 Uiso
O14_3 O 0.2379(11) 0.4561(8) 0.5799(13) 0.0359 Uiso
C20_3 C 0.1941(11) 0.4182(8) 0.4572(13) 0.0328 Uiso
C21_3 C 0.1367(11) 0.3159(8) 0.4265(13) 0.0328 Uiso
H11_3 H 0.2339(11) 0.4018(8) 0.6354(13) 0.0462 Uiso
H12_3 H 0.1185(11) 0.2583(8) 0.5023(13) 0.0462 Uiso
O24_2 O 0.9884(11) 0.1159(8) 0.3529(13) 0.0559 Uiso
C1_3 C 0.8969(9) 0.7690(7) 0.1678(9) 0.0328 Uiso
C2_3 C 0.8484(9) 0.6642(7) 0.1759(9) 0.0328 Uiso
C3_3 C 0.9469(9) 0.8304(7) 0.2777(9) 0.0328 Uiso
C4_3 C 0.8482(9) 0.6190(7) 0.2977(9) 0.0328 Uiso
C5_3 C 0.7877(9) 0.5079(7) 0.3163(9) 0.0328 Uiso
H1_3 H 0.8070(9) 0.6174(7) 0.0911(9) 0.0462 Uiso
O5_3 O 0.7601(9) 0.4756(7) 0.4336(9) 0.0359 Uiso
C6_3 C 0.9509(9) 0.7838(7) 0.3958(9) 0.0328 Uiso
C7_3 C 0.9003(9) 0.6793(7) 0.4080(9) 0.0328 Uiso
H3_3 H 0.9731(9) 0.8311(7) 0.5832(9) 0.0462 Uiso
H4_3 H 0.8988(9) 0.6432(7) 0.5018(9) 0.0462 Uiso
O7_3 O 0.8582(12) 0.3926(9) 0.5126(10) 0.0359 Uiso
C10_3 C 0.9076(12) 0.4389(9) 0.6298(10) 0.0328 Uiso
C12_3 C 0.8440(12) 0.4426(9) 0.7272(10) 0.0328 Uiso
H6_3 H 0.9062(12) 0.4078(9) 0.4404(10) 0.0462 Uiso
O10_3 O 0.8103(12) 0.4662(9) 0.9438(10) 0.0359 Uiso
C13_3 C 0.8831(12) 0.4739(9) 0.8565(10) 0.0328 Uiso
C14_3 C 0.9856(12) 0.5119(9) 0.8828(10) 0.0328 Uiso
H8_3 H 0.8241(12) 0.4685(9) 0.0422(10) 0.0462 Uiso
H2_3 H 0.8614(9) 0.7813(7) 0.9835(9) 0.0462 Uiso
loop_
_geom_bond_atom_site_label_1
_geom_bond_atom_site_label_2
_geom_bond_site_symmetry_1
_geom_bond_site_symmetry_2
O6 C9 1_555 1_555
C8 C9 1_555 1_555
C9 O9 1_555 1_555
O8 C12 1_555 1_555
O9 Co7 1_555 1_555
H7 C14 1_555 1_555
O10 C13 1_555 1_555
C13 C12 1_555 1_555
C14 C8 1_555 1_555
H8 O10 1_555 1_555
Co7 O23 1_555 1_555
Co9 O8 1_555 1_555
C13 C14 1_555 1_555
O1 C5 1_555 1_555
O2 C1 1_555 1_555
O3 C3 1_555 1_555
C1 C2 1_555 1_555
C2 C4 1_555 1_555
C3 C1 1_555 1_555
C4 C5 1_555 1_555
C5 O5 1_555 1_555
H1 C2 1_555 1_555
H2 O2 1_555 1_555
O4 C6 1_555 1_555
O5 Co3 1_555 1_555
C6 C3 1_555 1_555
C7 C4 1_555 1_555
H3 O4 1_555 1_555
H4 C7 1_555 1_555
H5 C11 1_555 1_555
O7 C10 1_555 1_555
C10 C11 1_555 1_555
H6 O7 1_555 1_555
O11 C19 1_555 1_555
O12 C15 1_555 1_555
O13 C17 1_555 1_555
C15 C16 1_555 1_555
C16 C18 1_555 1_555
C17 C15 1_555 1_555
C18 C19 1_555 1_555
C19 O15 1_555 1_555
H9 C16 1_555 1_555
H10 O12 1_555 1_555
O14 C20 1_555 1_555
C20 C17 1_555 1_555
C21 C18 1_555 1_555
H11 O14 1_555 1_555
H12 C21 1_555 1_555
Co4 O3 1_555 1_555
Co3 O7 1_555 1_555
O16 Co3 1_555 1_555
O19 Co3 1_555 1_555
O20 Co2 1_555 1_555
O22 Co2 1_555 1_555
Co8 O12 1_555 1_555
Co10 O1 1_555 1_555
O4 Co4 1_555 1_555
C6 C7 1_555 1_555
O13 Co2 1_555 1_555
O13 Co8 1_555 1_555
O14 Co2 1_555 1_555
C20 C21 1_555 1_555
O19 Co10 1_555 1_555
O5_2 Co9 1_555 1_555
H4_2 C7_2 1_555 1_555
O7_2 C10_2 1_555 1_555
O8_2 C12_2 1_555 1_555
C12_2 C10_2 1_555 1_555
H6_2 O7_2 1_555 1_555
O10_2 C13_2 1_555 1_555
C13_2 C12_2 1_555 1_555
H8_2 O10_2 1_555 1_555
Co9 O7_2 1_555 1_555
O16_2 Co9 1_555 1_555
Co10 O8_2 1_555 1_555
C6_2 C7_2 1_555 1_555
O8_2 Co9 1_555 1_555
C13_2 C14_2 1_555 1_555
O16 C5_2 1_555 1_555
O17 C1_2 1_555 1_555
O18 C3_2 1_555 1_555
C1_2 C2_2 1_555 1_555
C2_2 C4_2 1_555 1_555
C3_2 C1_2 1_555 1_555
C4_2 C5_2 1_555 1_555
H1_2 C2_2 1_555 1_555
H2_2 O17 1_555 1_555
O6_2 C9_2 1_555 1_555
C8_2 C9_2 1_555 1_555
C9_2 O9_2 1_555 1_555
H5_2 C11_2 1_555 1_555
C11_2 C8_2 1_555 1_555
O9_2 Co8 1_555 1_555
O23 C17_2 1_555 1_555
O14_2 C20_2 1_555 1_555
C20_2 C17_2 1_555 1_555
H11_2 O14_2 1_555 1_555
H12_2 C21_2 1_555 1_555
Co7 O6_2 1_555 1_555
O17_2 Co1 1_555 1_555
O18_2 Co1 1_555 1_555
O22_2 Co7 1_555 1_555
O23_2 Co7 1_555 1_555
Co8 O23_2 1_555 1_555
O4_2 Co1 1_555 1_555
O14_2 Co7 1_555 1_555
C20_2 C21_2 1_555 1_555
O21 C19_2 1_555 1_555
O22 C15_2 1_555 1_555
C15_2 C16_2 1_555 1_555
C16_2 C18_2 1_555 1_555
C18_2 C19_2 1_555 1_555
H9_2 C16_2 1_555 1_555
H10_2 O22 1_555 1_555
O6_3 C9_3 1_555 1_555
C8_3 C9_3 1_555 1_555
C9_3 O20 1_555 1_555
H5_3 C11_3 1_555 1_555
C11_3 C8_3 1_555 1_555
O21_2 C19_3 1_555 1_555
O22_2 C15_3 1_555 1_555
O23_2 C17_3 1_555 1_555
C15_3 C16_3 1_555 1_555
C16_3 C18_3 1_555 1_555
C17_3 C15_3 1_555 1_555
C18_3 C19_3 1_555 1_555
H9_3 C16_3 1_555 1_555
H10_3 O22_2 1_555 1_555
O14_3 C20_3 1_555 1_555
C20_3 C17_3 1_555 1_555
C21_3 C18_3 1_555 1_555
H11_3 O14_3 1_555 1_555
H12_3 C21_3 1_555 1_555
Co8 O6_3 1_555 1_555
O4_3 Co6 1_555 1_555
O14_3 Co8 1_555 1_555
C20_3 C21_3 1_555 1_555
O16_2 C5_3 1_555 1_555
O17_2 C1_3 1_555 1_555
O18_2 C3_3 1_555 1_555
C1_3 C2_3 1_555 1_555
C2_3 C4_3 1_555 1_555
C3_3 C1_3 1_555 1_555
C4_3 C5_3 1_555 1_555
C5_3 O5_3 1_555 1_555
H1_3 C2_3 1_555 1_555
O5_3 Co10 1_555 1_555
C6_3 C3_3 1_555 1_555
C7_3 C4_3 1_555 1_555
H4_3 C7_3 1_555 1_555
O7_3 C10_3 1_555 1_555
O19 C12_3 1_555 1_555
C12_3 C10_3 1_555 1_555
H6_3 O7_3 1_555 1_555
O10_3 C13_3 1_555 1_555
C13_3 C12_3 1_555 1_555
Co10 O7_3 1_555 1_555
C6_3 C7_3 1_555 1_555
C13_3 C14_3 1_555 1_555

#END
