
###############################################################################
#
# This file contains modified crystal structure data generated from the
# MOF subset of the Cambridge Structural Database (CSD) v543 
# hosted by the Cambridge Crystallographic Data Centre (CCDC).
#
# This work is licensed under the Creative Commons
# Attribution-NonCommercial-ShareAlike 4.0 International License.
# To view a copy of this license, visit
# http://creativecommons.org/licenses/by-nc-sa/4.0/
# or send a letter to
# Creative Commons, PO Box 1866, Mountain View, CA 94042, USA.
#
# CIF created using the CSD Python API on 29 September 2022
# The structure has been converted into the P1 space group
# The structure has a 3D framework
# The original CSD entry PAHKOC is in the trigonal crystal system
# The original CSD entry PAHKOC is in a Sohncke space group
# The framework has been calculated to contain at least 10.0% void space
# The void calculation uses a probe of radius 1.32A, grid spacing 0.4
#
###############################################################################

data_PAHKOC
_chemical_formula_moiety         '(C63 H36 Co6 O45)n'
_symmetry_cell_setting           triclinic
_symmetry_space_group_name_H-M   'P 1'
_symmetry_Int_Tables_number      1
_space_group_name_Hall           'P 1'
loop_
_symmetry_equiv_pos_site_id
_symmetry_equiv_pos_as_xyz
1 x,y,z
_cell_length_a                   15.3756(11)
_cell_length_b                   15.3756
_cell_length_c                   10.1873(9)
_cell_angle_alpha                90
_cell_angle_beta                 90
_cell_angle_gamma                120
_cell_volume                     2085.71
loop_
_atom_site_label
_atom_site_type_symbol
_atom_site_fract_x
_atom_site_fract_y
_atom_site_fract_z
_atom_site_U_iso_or_equiv
_atom_site_thermal_displace_type
Co6 Co 0.0120(21) 0.0003(16) 0.4182(22) 0.0053 Uiso
Co4 Co 0.9997(16) 0.0117(13) 0.7515(22) 0.0053 Uiso
O6 O 0.3832(13) 0.5893(11) 0.0137(21) 0.0359 Uiso
C8 C 0.4815(13) 0.5307(11) 0.1111(21) 0.0328 Uiso
C9 C 0.4243(13) 0.5846(11) 0.1191(21) 0.0328 Uiso
O8 O 0.5846(13) 0.3348(11) 0.0335(21) 0.0359 Uiso
C12 C 0.5570(13) 0.4021(11) 0.0609(21) 0.0328 Uiso
O9 O 0.4142(13) 0.6226(11) 0.2266(21) 0.0359 Uiso
H7 H 0.4592(13) 0.4762(11) 0.3124(21) 0.0462 Uiso
O10 O 0.5335(13) 0.3452(11) 0.2758(21) 0.0359 Uiso
C13 C 0.5258(13) 0.4099(11) 0.1892(21) 0.0328 Uiso
C14 C 0.4881(13) 0.4739(11) 0.2152(21) 0.0328 Uiso
H8 H 0.5312(13) 0.3566(11) 0.3734(21) 0.0462 Uiso
O23 O 0.3237(8) 0.7336(14) 0.0574(19) 0.0359 Uiso
Co7 Co 0.2965(14) 0.6656(21) 0.2277(23) 0.0053 Uiso
Co9 Co 0.6608(18) 0.3070(28) 0.1823(22) 0.0053 Uiso
O1 O 0.5526(10) 0.3075(9) 0.5454(14) 0.0359 Uiso
O2 O 0.1803(10) 0.0575(9) 0.3959(14) 0.0359 Uiso
O3 O 0.0752(10) 0.0362(9) 0.6105(14) 0.0359 Uiso
C1 C 0.2353(10) 0.1121(9) 0.5041(14) 0.0328 Uiso
C2 C 0.3392(10) 0.1711(9) 0.5104(14) 0.0328 Uiso
C3 C 0.1746(10) 0.0987(9) 0.6142(14) 0.0328 Uiso
C4 C 0.3843(10) 0.2170(9) 0.6307(14) 0.0328 Uiso
C5 C 0.4949(10) 0.2707(9) 0.6474(14) 0.0328 Uiso
H1 H 0.3856(10) 0.1781(9) 0.4255(14) 0.0462 Uiso
H2 H 0.2231(10) 0.0647(9) 0.3211(14) 0.0462 Uiso
O4 O 0.1533(10) 0.1358(9) 0.8311(14) 0.0359 Uiso
O5 O 0.5286(10) 0.2769(9) 0.7632(14) 0.0359 Uiso
C6 C 0.2209(10) 0.1501(9) 0.7308(14) 0.0328 Uiso
C7 C 0.3246(10) 0.2068(9) 0.7412(14) 0.0328 Uiso
H3 H 0.1758(10) 0.1242(9) 0.9175(14) 0.0462 Uiso
H4 H 0.3606(10) 0.2422(9) 0.8338(14) 0.0462 Uiso
H5 H 0.5160(13) 0.5762(11) 0.9077(21) 0.0462 Uiso
O7 O 0.6066(13) 0.4659(11) 0.8480(21) 0.0359 Uiso
C10 C 0.5606(13) 0.4690(11) 0.9643(21) 0.0328 Uiso
C11 C 0.5203(13) 0.5301(11) 0.9862(21) 0.0328 Uiso
H6 H 0.5915(13) 0.4985(11) 0.7764(21) 0.0462 Uiso
O11 O 0.8545(11) 0.9208(8) 0.4902(19) 0.0359 Uiso
O12 O 0.4597(11) 0.6657(8) 0.4816(19) 0.0359 Uiso
O13 O 0.4099(11) 0.6763(8) 0.7241(19) 0.0359 Uiso
C15 C 0.5394(11) 0.7198(8) 0.5657(19) 0.0328 Uiso
C16 C 0.6405(11) 0.7711(8) 0.5306(19) 0.0328 Uiso
C17 C 0.5076(11) 0.7215(8) 0.6961(19) 0.0328 Uiso
C18 C 0.7132(11) 0.8202(8) 0.6291(19) 0.0328 Uiso
C19 C 0.8226(11) 0.8744(8) 0.5984(19) 0.0328 Uiso
H9 H 0.6636(11) 0.7726(8) 0.4289(19) 0.0462 Uiso
H10 H 0.4737(11) 0.6737(8) 0.3835(19) 0.0462 Uiso
O14 O 0.5445(11) 0.7825(8) 0.9121(19) 0.0359 Uiso
O15 O 0.8824(11) 0.8725(8) 0.6869(19) 0.0359 Uiso
C20 C 0.5821(11) 0.7766(8) 0.7903(19) 0.0328 Uiso
C21 C 0.6837(11) 0.8213(8) 0.7599(19) 0.0328 Uiso
H11 H 0.5984(11) 0.8324(8) 0.9672(19) 0.0462 Uiso
H12 H 0.7409(11) 0.8603(8) 0.8351(19) 0.0462 Uiso
Co2 Co 0.3691(15) 0.7035(14) 0.8944(23) 0.0053 Uiso
Co3 Co 0.6462(21) 0.3392(18) 0.8490(22) 0.0053 Uiso
O16 O 0.6925(9) 0.2451(13) 0.8787(14) 0.0359 Uiso
O19 O 0.7502(17) 0.4154(13) 0.7002(21) 0.0359 Uiso
O20 O 0.2084(17) 0.5858(13) 0.8933(21) 0.0359 Uiso
O22 O 0.3343(8) 0.7940(14) 0.8149(19) 0.0359 Uiso
Co8 Co 0.3344(21) 0.6309(15) 0.5611(23) 0.0053 Uiso
Co10 Co 0.6930(28) 0.3538(21) 0.5157(22) 0.0053 Uiso
O21 O 0.0792(8) 0.9337(14) 0.8235(19) 0.0359 Uiso
O17 O 0.9425(9) 0.1228(13) 0.7292(14) 0.0359 Uiso
O18 O 0.9638(9) 0.0390(13) 0.9438(14) 0.0359 Uiso
O21_2 O 0.0663(14) 0.1455(16) 0.1569(19) 0.0359 Uiso
O24 O 0.1275(8) 0.0099(14) 0.0202(19) 0.0359 Uiso
O4_2 O 0.8642(9) 0.0175(13) 0.1644(14) 0.0359 Uiso
O5_2 O 0.7231(9) 0.2517(13) 0.0965(14) 0.0359 Uiso
C6_2 C 0.8499(9) 0.0708(13) 0.0641(14) 0.0328 Uiso
C7_2 C 0.7932(9) 0.1178(13) 0.0745(14) 0.0328 Uiso
H3_2 H 0.8758(9) 0.0516(13) 0.2508(14) 0.0462 Uiso
H4_2 H 0.7578(9) 0.1184(13) 0.1671(14) 0.0462 Uiso
O7_2 O 0.5341(11) 0.1407(17) 0.1813(21) 0.0359 Uiso
O8_2 O 0.6652(11) 0.2498(17) 0.3668(21) 0.0359 Uiso
C10_2 C 0.5310(11) 0.0916(17) 0.2976(21) 0.0328 Uiso
C12_2 C 0.5979(11) 0.1549(17) 0.3942(21) 0.0328 Uiso
H6_2 H 0.5015(11) 0.0930(17) 0.1097(21) 0.0462 Uiso
O10_2 O 0.6548(11) 0.1883(17) 0.6091(21) 0.0359 Uiso
C13_2 C 0.5901(11) 0.1159(17) 0.5225(21) 0.0328 Uiso
C14_2 C 0.5261(11) 0.0142(17) 0.5485(21) 0.0328 Uiso
H8_2 H 0.6434(11) 0.1746(17) 0.7067(21) 0.0462 Uiso
O16_2 O 0.7549(13) 0.4474(16) 0.2121(14) 0.0359 Uiso
C1_2 C 0.8879(9) 0.1232(13) 0.8374(14) 0.0328 Uiso
C2_2 C 0.8289(9) 0.1681(13) 0.8437(14) 0.0328 Uiso
C3_2 C 0.9013(9) 0.0759(13) 0.9475(14) 0.0328 Uiso
C4_2 C 0.7830(9) 0.1673(13) 0.9640(14) 0.0328 Uiso
C5_2 C 0.7293(9) 0.2242(13) 0.9807(14) 0.0328 Uiso
H1_2 H 0.8219(9) 0.2075(13) 0.7588(14) 0.0462 Uiso
H2_2 H 0.9353(9) 0.1584(13) 0.6544(14) 0.0462 Uiso
O6_2 O 0.4107(11) 0.7939(17) 0.3470(21) 0.0359 Uiso
C8_2 C 0.4693(11) 0.9508(17) 0.4444(21) 0.0328 Uiso
C9_2 C 0.4154(11) 0.8397(17) 0.4524(21) 0.0328 Uiso
H5_2 H 0.4238(11) 0.9398(17) 0.2410(21) 0.0462 Uiso
C11_2 C 0.4699(11) 0.9902(17) 0.3195(21) 0.0328 Uiso
O9_2 O 0.3774(11) 0.7916(17) 0.5599(21) 0.0359 Uiso
H7_2 H 0.5238(11) 0.9830(17) 0.6457(21) 0.0462 Uiso
C17_2 C 0.2785(8) 0.7861(14) 0.0294(19) 0.0328 Uiso
O14_2 O 0.2175(8) 0.7620(14) 0.2454(19) 0.0359 Uiso
C20_2 C 0.2234(8) 0.8055(14) 0.1236(19) 0.0328 Uiso
C21_2 C 0.1787(8) 0.8624(14) 0.0932(19) 0.0328 Uiso
H11_2 H 0.1676(8) 0.7660(14) 0.3005(19) 0.0462 Uiso
H12_2 H 0.1397(8) 0.8806(14) 0.1684(19) 0.0462 Uiso
Co1 Co 0.9883(13) 0.9880(21) 0.0848(22) 0.0053 Uiso
O17_2 O 0.8772(13) 0.8197(16) 0.0626(14) 0.0359 Uiso
O18_2 O 0.9610(13) 0.9248(16) 0.2772(14) 0.0359 Uiso
O22_2 O 0.2060(14) 0.5403(16) 0.1483(19) 0.0359 Uiso
O23_2 O 0.2664(14) 0.5901(16) 0.3908(19) 0.0359 Uiso
C15_2 C 0.2802(8) 0.8196(14) 0.8990(19) 0.0328 Uiso
C16_2 C 0.2289(8) 0.8694(14) 0.8639(19) 0.0328 Uiso
C18_2 C 0.1798(8) 0.8930(14) 0.9624(19) 0.0328 Uiso
C19_2 C 0.1256(8) 0.9482(14) 0.9317(19) 0.0328 Uiso
H9_2 H 0.2274(8) 0.8910(14) 0.7622(19) 0.0462 Uiso
H10_2 H 0.3263(8) 0.8000(14) 0.7168(19) 0.0462 Uiso
O6_3 O 0.2061(17) 0.6168(13) 0.6804(21) 0.0359 Uiso
C8_3 C 0.0492(17) 0.5185(13) 0.7778(21) 0.0328 Uiso
C9_3 C 0.1603(17) 0.5757(13) 0.7858(21) 0.0328 Uiso
H5_3 H 0.0602(17) 0.4840(13) 0.5744(21) 0.0462 Uiso
C11_3 C 0.0098(17) 0.4797(13) 0.6529(21) 0.0328 Uiso
H7_3 H 0.0170(17) 0.5408(13) 0.9791(21) 0.0462 Uiso
C15_3 C 0.1804(14) 0.4606(11) 0.2324(19) 0.0328 Uiso
C16_3 C 0.1306(14) 0.3595(11) 0.1973(19) 0.0328 Uiso
C17_3 C 0.2139(14) 0.4924(11) 0.3628(19) 0.0328 Uiso
C18_3 C 0.1070(14) 0.2868(11) 0.2958(19) 0.0328 Uiso
C19_3 C 0.0518(14) 0.1774(11) 0.2651(19) 0.0328 Uiso
H9_3 H 0.1090(14) 0.3364(11) 0.0956(19) 0.0462 Uiso
H10_3 H 0.2000(14) 0.5263(11) 0.0502(19) 0.0462 Uiso
O14_3 O 0.2380(14) 0.4555(11) 0.5788(19) 0.0359 Uiso
C20_3 C 0.1945(14) 0.4179(11) 0.4570(19) 0.0328 Uiso
C21_3 C 0.1376(14) 0.3163(11) 0.4266(19) 0.0328 Uiso
H11_3 H 0.2340(14) 0.4016(11) 0.6339(19) 0.0462 Uiso
H12_3 H 0.1194(14) 0.2591(11) 0.5018(19) 0.0462 Uiso
O24_2 O 0.9901(14) 0.1176(11) 0.3536(19) 0.0359 Uiso
C1_3 C 0.8768(13) 0.7647(10) 0.1708(14) 0.0328 Uiso
C2_3 C 0.8319(13) 0.6608(10) 0.1771(14) 0.0328 Uiso
C3_3 C 0.9241(13) 0.8254(10) 0.2809(14) 0.0328 Uiso
C4_3 C 0.8327(13) 0.6157(10) 0.2974(14) 0.0328 Uiso
C5_3 C 0.7758(13) 0.5051(10) 0.3141(14) 0.0328 Uiso
H1_3 H 0.7925(13) 0.6144(10) 0.0922(14) 0.0462 Uiso
O4_3 O 0.9825(13) 0.8467(10) 0.4978(14) 0.0359 Uiso
O5_3 O 0.7483(13) 0.4714(10) 0.4299(14) 0.0359 Uiso
C6_3 C 0.9292(13) 0.7791(10) 0.3975(14) 0.0328 Uiso
C7_3 C 0.8822(13) 0.6754(10) 0.4079(14) 0.0328 Uiso
H3_3 H 0.9484(13) 0.8242(10) 0.5842(14) 0.0462 Uiso
H4_3 H 0.8816(13) 0.6394(10) 0.5005(14) 0.0462 Uiso
O7_3 O 0.8593(17) 0.3934(13) 0.5147(21) 0.0359 Uiso
C10_3 C 0.9084(17) 0.4394(13) 0.6310(21) 0.0328 Uiso
C12_3 C 0.8451(17) 0.4430(13) 0.7276(21) 0.0328 Uiso
H6_3 H 0.9070(17) 0.4085(13) 0.4431(21) 0.0462 Uiso
O10_3 O 0.8117(17) 0.4665(13) 0.9425(21) 0.0359 Uiso
C13_3 C 0.8841(17) 0.4742(13) 0.8559(21) 0.0328 Uiso
C14_3 C 0.9858(17) 0.5119(13) 0.8819(21) 0.0328 Uiso
H8_3 H 0.8254(17) 0.4688(13) 0.0401(21) 0.0462 Uiso
H2_3 H 0.8416(13) 0.7769(10) 0.9878(14) 0.0462 Uiso
loop_
_geom_bond_atom_site_label_1
_geom_bond_atom_site_label_2
_geom_bond_site_symmetry_1
_geom_bond_site_symmetry_2
O6 C9 1_555 1_555
C8 C9 1_555 1_555
C9 O9 1_555 1_555
O8 C12 1_555 1_555
O9 Co7 1_555 1_555
H7 C14 1_555 1_555
O10 C13 1_555 1_555
C13 C12 1_555 1_555
C14 C8 1_555 1_555
H8 O10 1_555 1_555
Co7 O23 1_555 1_555
Co9 O8 1_555 1_555
C13 C14 1_555 1_555
O1 C5 1_555 1_555
O2 C1 1_555 1_555
O3 C3 1_555 1_555
C1 C2 1_555 1_555
C2 C4 1_555 1_555
C3 C1 1_555 1_555
C4 C5 1_555 1_555
C5 O5 1_555 1_555
H1 C2 1_555 1_555
H2 O2 1_555 1_555
O4 C6 1_555 1_555
O5 Co3 1_555 1_555
C6 C3 1_555 1_555
C7 C4 1_555 1_555
H3 O4 1_555 1_555
H4 C7 1_555 1_555
H5 C11 1_555 1_555
O7 C10 1_555 1_555
C10 C11 1_555 1_555
H6 O7 1_555 1_555
O11 C19 1_555 1_555
O12 C15 1_555 1_555
O13 C17 1_555 1_555
C15 C16 1_555 1_555
C16 C18 1_555 1_555
C17 C15 1_555 1_555
C18 C19 1_555 1_555
C19 O15 1_555 1_555
H9 C16 1_555 1_555
H10 O12 1_555 1_555
O14 C20 1_555 1_555
C20 C17 1_555 1_555
C21 C18 1_555 1_555
H11 O14 1_555 1_555
H12 C21 1_555 1_555
Co3 O7 1_555 1_555
O16 Co3 1_555 1_555
O19 Co3 1_555 1_555
O20 Co2 1_555 1_555
O22 Co2 1_555 1_555
Co6 O2 1_555 1_555
Co8 O12 1_555 1_555
Co10 O1 1_555 1_555
O3 Co6 1_555 1_555
C6 C7 1_555 1_555
O13 Co2 1_555 1_555
O13 Co8 1_555 1_555
O14 Co2 1_555 1_555
C20 C21 1_555 1_555
O19 Co10 1_555 1_555
O17 Co4 1_555 1_555
O18 Co4 1_555 1_555
O4_2 C6_2 1_555 1_555
O5_2 Co9 1_555 1_555
H3_2 O4_2 1_555 1_555
H4_2 C7_2 1_555 1_555
O7_2 C10_2 1_555 1_555
O8_2 C12_2 1_555 1_555
C12_2 C10_2 1_555 1_555
H6_2 O7_2 1_555 1_555
O10_2 C13_2 1_555 1_555
C13_2 C12_2 1_555 1_555
H8_2 O10_2 1_555 1_555
Co9 O7_2 1_555 1_555
O16_2 Co9 1_555 1_555
Co10 O8_2 1_555 1_555
C6_2 C7_2 1_555 1_555
O8_2 Co9 1_555 1_555
C13_2 C14_2 1_555 1_555
O16 C5_2 1_555 1_555
O17 C1_2 1_555 1_555
O18 C3_2 1_555 1_555
C1_2 C2_2 1_555 1_555
C2_2 C4_2 1_555 1_555
C3_2 C1_2 1_555 1_555
C4_2 C5_2 1_555 1_555
H1_2 C2_2 1_555 1_555
H2_2 O17 1_555 1_555
O6_2 C9_2 1_555 1_555
C8_2 C9_2 1_555 1_555
C9_2 O9_2 1_555 1_555
H5_2 C11_2 1_555 1_555
C11_2 C8_2 1_555 1_555
O9_2 Co8 1_555 1_555
O23 C17_2 1_555 1_555
O14_2 C20_2 1_555 1_555
C20_2 C17_2 1_555 1_555
H11_2 O14_2 1_555 1_555
H12_2 C21_2 1_555 1_555
Co7 O6_2 1_555 1_555
O17_2 Co1 1_555 1_555
O18_2 Co1 1_555 1_555
O22_2 Co7 1_555 1_555
O23_2 Co7 1_555 1_555
Co8 O23_2 1_555 1_555
O14_2 Co7 1_555 1_555
C20_2 C21_2 1_555 1_555
O21 C19_2 1_555 1_555
O22 C15_2 1_555 1_555
C15_2 C16_2 1_555 1_555
C16_2 C18_2 1_555 1_555
C18_2 C19_2 1_555 1_555
H9_2 C16_2 1_555 1_555
H10_2 O22 1_555 1_555
O6_3 C9_3 1_555 1_555
C8_3 C9_3 1_555 1_555
C9_3 O20 1_555 1_555
H5_3 C11_3 1_555 1_555
C11_3 C8_3 1_555 1_555
O21_2 C19_3 1_555 1_555
O22_2 C15_3 1_555 1_555
O23_2 C17_3 1_555 1_555
C15_3 C16_3 1_555 1_555
C16_3 C18_3 1_555 1_555
C17_3 C15_3 1_555 1_555
C18_3 C19_3 1_555 1_555
H9_3 C16_3 1_555 1_555
H10_3 O22_2 1_555 1_555
O14_3 C20_3 1_555 1_555
C20_3 C17_3 1_555 1_555
C21_3 C18_3 1_555 1_555
H11_3 O14_3 1_555 1_555
H12_3 C21_3 1_555 1_555
Co8 O6_3 1_555 1_555
O14_3 Co8 1_555 1_555
C20_3 C21_3 1_555 1_555
O16_2 C5_3 1_555 1_555
O17_2 C1_3 1_555 1_555
O18_2 C3_3 1_555 1_555
C1_3 C2_3 1_555 1_555
C2_3 C4_3 1_555 1_555
C3_3 C1_3 1_555 1_555
C4_3 C5_3 1_555 1_555
C5_3 O5_3 1_555 1_555
H1_3 C2_3 1_555 1_555
O4_3 C6_3 1_555 1_555
O5_3 Co10 1_555 1_555
C6_3 C3_3 1_555 1_555
C7_3 C4_3 1_555 1_555
H3_3 O4_3 1_555 1_555
H4_3 C7_3 1_555 1_555
O7_3 C10_3 1_555 1_555
O19 C12_3 1_555 1_555
C12_3 C10_3 1_555 1_555
H6_3 O7_3 1_555 1_555
O10_3 C13_3 1_555 1_555
C13_3 C12_3 1_555 1_555
Co10 O7_3 1_555 1_555
C6_3 C7_3 1_555 1_555
C13_3 C14_3 1_555 1_555

#END
