
###############################################################################
#
# This file contains modified crystal structure data generated from the
# MOF subset of the Cambridge Structural Database (CSD) v543 
# hosted by the Cambridge Crystallographic Data Centre (CCDC).
#
# This work is licensed under the Creative Commons
# Attribution-NonCommercial-ShareAlike 4.0 International License.
# To view a copy of this license, visit
# http://creativecommons.org/licenses/by-nc-sa/4.0/
# or send a letter to
# Creative Commons, PO Box 1866, Mountain View, CA 94042, USA.
#
# CIF created using the CSD Python API on 29 September 2022
# The structure has been converted into the P1 space group
# The structure has a 3D framework
# The original CSD entry PAKXIK is in the triclinic crystal system
# The framework has been calculated to contain at least 10.0% void space
# The void calculation uses a probe of radius 1.32A, grid spacing 0.4
#
###############################################################################

data_PAKXIK
_chemical_formula_moiety         '(C84 H76 Cd6 N8 O32)n'
_symmetry_cell_setting           triclinic
_symmetry_space_group_name_H-M   'P 1'
_symmetry_Int_Tables_number      1
_space_group_name_Hall           'P 1'
loop_
_symmetry_equiv_pos_site_id
_symmetry_equiv_pos_as_xyz
1 x,y,z
_cell_length_a                   12.6784(9)
_cell_length_b                   13.5433(9)
_cell_length_c                   17.1322(12)
_cell_angle_alpha                77.8390(10)
_cell_angle_beta                 76.4040(10)
_cell_angle_gamma                80.6140(10)
_cell_volume                     2775.09
loop_
_atom_site_label
_atom_site_type_symbol
_atom_site_fract_x
_atom_site_fract_y
_atom_site_fract_z
Cd1 Cd 0.52168(4) 0.47243(3) 0.26101(3)
Cd3 Cd 0.28075(4) 0.69941(4) 0.25095(3)
C1 C 0.3052(5) 0.4609(5) 0.2404(4)
C2 C 0.2023(5) 0.4208(5) 0.2377(4)
C3 C 0.1630(5) 0.3441(5) 0.2993(4)
H1 H 0.1992 0.3204 0.3422
C4 C 0.0718(5) 0.3016(5) 0.2991(4)
H2 H 0.0456 0.2514 0.3422
C5 C 0.0188(5) 0.3346(5) 0.2336(4)
C6 C 0.0587(5) 0.4113(5) 0.1714(4)
H3 H 0.0238 0.4329 0.1277
C7 C 0.1481(5) 0.4568(5) 0.1719(4)
C9 C 0.1832(5) 0.5412(5) 0.1033(4)
C10 C 0.2536(5) 0.5184(5) 0.0325(4)
H4 H 0.2785 0.4508 0.0285
C13 C 0.1793(6) 0.7190(5) 0.0430(4)
H6 H 0.1539 0.7865 0.0468
C14 C 0.1450(5) 0.6419(5) 0.1074(4)
C16 C 0.0697(5) 0.6733(5) 0.1827(4)
C17 C 0.4272(6) 0.7272(5) 0.0754(4)
H7 H 0.4363 0.6565 0.0874
H10 H 0.4612 0.9094 0.0315
C20 C 0.2594(6) 0.5716(5) 0.4287(4)
H14 H 0.3341 0.5558 0.4101
C21 C 0.1009(7) 0.5557(9) 0.5395(6)
H15 H 0.0637 0.5917 0.4972
H16 H 0.0925 0.5970 0.5802
H17 H 0.0703 0.4933 0.5640
C22 C 0.2828(7) 0.4687(6) 0.5590(5)
H18 H 0.2602 0.4018 0.5735
H19 H 0.2728 0.4973 0.6073
H20 H 0.3585 0.4647 0.5322
C23 C 0.5831(6) 0.3550(5) 0.4009(4)
C24 C 0.6203(5) 0.2849(5) 0.4723(4)
C25 C 0.5462(6) 0.2626(5) 0.5454(4)
H21 H 0.4742 0.2926 0.5498
C26 C 0.5766(5) 0.1970(5) 0.6119(4)
C27 C 0.6876(6) 0.1546(5) 0.6048(4)
C28 C 0.7617(6) 0.1769(5) 0.5314(4)
H22 H 0.8345 0.1491 0.5271
C29 C 0.7286(6) 0.2395(5) 0.4652(4)
H23 H 0.7782 0.2517 0.4157
C30 C 0.7270(6) 0.0932(5) 0.6774(4)
C33 C 0.4555(5) 0.3331(5) 0.7323(4)
C34 C 0.4387(5) 0.2235(5) 0.7425(4)
C35 C 0.3600(6) 0.1857(5) 0.8087(4)
H30 H 0.3246 0.2264 0.8468
C36 C 0.3340(6) 0.0883(5) 0.8182(4)
H31 H 0.2829 0.0629 0.8636
C37 C 0.3834(6) 0.0287(5) 0.7608(4)
C38 C 0.4644(6) 0.0654(5) 0.6960(4)
H32 H 0.5000 0.0238 0.6586
C39 C 0.4933(5) 0.1620(5) 0.6858(4)
N1 N 0.4790(5) 0.7717(5) 0.0046(4)
N2 N 0.2174(5) 0.5329(5) 0.5043(3)
O1 O 0.1068(4) 0.7060(4) 0.2320(3)
O2 O 0.3247(4) 0.5481(3) 0.2035(3)
O3 O 0.3680(4) 0.4020(4) 0.2810(3)
O6 O 0.4976(4) 0.4139(4) 0.4111(3)
O7 O 0.6424(4) 0.3525(3) 0.3298(3)
O12 O 0.5522(4) 0.3575(3) 0.7136(3)
O13 O 0.3751(4) 0.3969(4) 0.7430(3)
O14 O 0.2074(4) 0.6275(4) 0.3801(3)
O15 O 0.3664(4) 0.7739(4) 0.1274(3)
O16 O 0.7463(4) 0.1366(4) 0.7290(3)
Cd5 Cd 0.47832(4) 0.52757(3) 0.73899(3)
Cd6 Cd 0.72066(4) 0.24598(4) 0.24118(3)
Cd9 Cd 0.71925(4) 0.30059(4) 0.74905(3)
O18 O 0.5955(4) 0.5200(4) 0.1117(3)
O19 O 0.6125(4) 0.3601(4) 0.1698(3)
O23 O 0.4478(4) 0.6425(3) 0.2864(3)
O24 O 0.6249(4) 0.6031(4) 0.2570(3)
O25 O 0.2537(4) 0.8634(4) 0.2710(3)
C11 C 0.2879(5) 0.5952(5) 0.9668(4)
C12 C 0.2511(5) 0.6955(5) 0.9731(4)
H5 H 0.2745 0.7473 0.9304
C15 C 0.3651(5) 0.5680(5) 0.8917(4)
C18 C 0.4710(10) 0.8809(7) 0.9831(7)
H8 H 0.4096 0.9058 0.9576
H9 H 0.5367 0.9004 0.9459
C19 C 0.5452(7) 0.7150(7) 0.9438(5)
H11 H 0.5461 0.6434 0.9651
H12 H 0.6184 0.7327 0.9304
H13 H 0.5149 0.7313 0.8957
O8 O 0.4045(4) 0.4800(4) 0.8883(3)
O9 O 0.3875(4) 0.6399(4) 0.8302(3)
Cd7 Cd 0.27934(4) 0.75402(4) 0.75882(3)
C31 C 0.7271(9) 0.9342(6) 0.6282(5)
H24 H 0.6950 0.9787 0.5862
H25 H 0.6800 0.8832 0.6559
H26 H 0.7969 0.9020 0.6041
C32 C 0.7780(10) 0.9326(7) 0.7587(6)
H27 H 0.8557 0.9144 0.7455
H28 H 0.7424 0.8720 0.7762
H29 H 0.7601 0.9717 0.8017
C40 C 0.3450(6) 0.9281(5) 0.7648(4)
N4 N 0.7414(6) 0.9931(5) 0.6866(4)
O4 O 0.3849(5) 0.8808(4) 0.7050(3)
O5 O 0.2721(4) 0.8956(4) 0.8228(3)
O17 O 0.3576(4) 0.6475(3) 0.6702(3)
O21 O 0.1146(4) 0.7811(3) 0.7137(3)
O22 O 0.1338(4) 0.6657(4) 0.8225(3)
C8 C 0.9173(5) 0.2923(5) 0.2323(4)
C41 C 0.8912(7) 0.6972(7) 0.2668(5)
H33 H 0.9266 0.6755 0.3124
H34 H 0.8254 0.6658 0.2778
H35 H 0.8737 0.7698 0.2582
C42 C 0.9114(7) 0.6448(7) 0.1319(5)
H36 H 0.8656 0.7043 0.1126
H37 H 0.8678 0.5902 0.1564
H38 H 0.9664 0.6253 0.0870
N3 N 0.9647(5) 0.6673(5) 0.1934(4)
O10 O 0.8854(4) 0.2189(3) 0.2863(3)
O11 O 0.8662(4) 0.3343(4) 0.1775(3)
C8_2 C 0.0827(5) 0.7077(5) 0.7677(4)
C41_2 C 0.1088(7) 0.3028(7) 0.7332(5)
H33_2 H 0.0734 0.3245 0.6876
H34_2 H 0.1746 0.3342 0.7222
H35_2 H 0.1263 0.2302 0.7418
C42_2 C 0.0886(7) 0.3552(7) 0.8681(5)
H36_2 H 0.1344 0.2957 0.8874
H37_2 H 0.1322 0.4098 0.8436
H38_2 H 0.0336 0.3747 0.9130
N3_2 N 0.0353(5) 0.3327(5) 0.8066(4)
C31_2 C 0.2729(9) 0.0658(6) 0.3718(5)
H24_2 H 0.3050 0.0213 0.4138
H25_2 H 0.3200 0.1168 0.3441
H26_2 H 0.2031 0.0980 0.3959
C32_2 C 0.2220(10) 0.0674(7) 0.2413(6)
H27_2 H 0.1443 0.0856 0.2545
H28_2 H 0.2576 0.1280 0.2238
H29_2 H 0.2399 0.0283 0.1983
C40_2 C 0.6550(6) 0.0719(5) 0.2352(4)
N4_2 N 0.2586(6) 0.0069(5) 0.3134(4)
O4_2 O 0.6151(5) 0.1192(4) 0.2950(3)
O5_2 O 0.7279(4) 0.1044(4) 0.1772(3)
C11_2 C 0.7121(5) 0.4048(5) 0.0332(4)
C12_2 C 0.7489(5) 0.3045(5) 0.0269(4)
H5_2 H 0.7255 0.2527 0.0696
C15_2 C 0.6349(5) 0.4320(5) 0.1083(4)
C18_2 C 0.5290(10) 0.1191(7) 0.0169(7)
H8_2 H 0.5904 0.0942 0.0424
H9_2 H 0.4633 0.0996 0.0541
C19_2 C 0.4548(7) 0.2850(7) 0.0562(5)
H11_2 H 0.4539 0.3566 0.0349
H12_2 H 0.3816 0.2673 0.0696
H13_2 H 0.4851 0.2687 0.1043
C1_2 C 0.6948(5) 0.5391(5) 0.7596(4)
C2_2 C 0.7977(5) 0.5792(5) 0.7623(4)
C3_2 C 0.8370(5) 0.6559(5) 0.7007(4)
H1_2 H 0.8008 0.6796 0.6578
C4_2 C 0.9282(5) 0.6984(5) 0.7009(4)
H2_2 H 0.9544 0.7486 0.6578
C5_2 C 0.9812(5) 0.6654(5) 0.7664(4)
C6_2 C 0.9413(5) 0.5887(5) 0.8286(4)
H3_2 H 0.9762 0.5671 0.8723
C7_2 C 0.8519(5) 0.5432(5) 0.8281(4)
C9_2 C 0.8168(5) 0.4588(5) 0.8967(4)
C10_2 C 0.7464(5) 0.4816(5) 0.9675(4)
H4_2 H 0.7215 0.5492 0.9715
C13_2 C 0.8207(6) 0.2810(5) 0.9570(4)
H6_2 H 0.8461 0.2135 0.9532
C14_2 C 0.8550(5) 0.3581(5) 0.8926(4)
C16_2 C 0.9303(5) 0.3267(5) 0.8173(4)
C17_2 C 0.5728(6) 0.2728(5) 0.9246(4)
H7_2 H 0.5637 0.3435 0.9126
H10_2 H 0.5388 0.0906 0.9685
C20_2 C 0.7406(6) 0.4284(5) 0.5713(4)
H14_2 H 0.6659 0.4442 0.5899
C21_2 C 0.8991(7) 0.4443(9) 0.4605(6)
H15_2 H 0.9363 0.4083 0.5028
H16_2 H 0.9075 0.4030 0.4198
H17_2 H 0.9297 0.5067 0.4360
C22_2 C 0.7172(7) 0.5313(6) 0.4410(5)
H18_2 H 0.7398 0.5982 0.4265
H19_2 H 0.7272 0.5027 0.3927
H20_2 H 0.6415 0.5353 0.4678
C23_2 C 0.4169(6) 0.6450(5) 0.5991(4)
C24_2 C 0.3797(5) 0.7151(5) 0.5277(4)
C25_2 C 0.4538(6) 0.7374(5) 0.4546(4)
H21_2 H 0.5258 0.7074 0.4502
C26_2 C 0.4234(5) 0.8030(5) 0.3881(4)
C27_2 C 0.3124(6) 0.8454(5) 0.3952(4)
C28_2 C 0.2383(6) 0.8231(5) 0.4686(4)
H22_2 H 0.1655 0.8509 0.4729
C29_2 C 0.2714(6) 0.7605(5) 0.5348(4)
H23_2 H 0.2218 0.7483 0.5843
C30_2 C 0.2730(6) 0.9068(5) 0.3226(4)
C33_2 C 0.5445(5) 0.6669(5) 0.2677(4)
C34_2 C 0.5613(5) 0.7765(5) 0.2575(4)
C35_2 C 0.6400(6) 0.8143(5) 0.1913(4)
H30_2 H 0.6754 0.7736 0.1532
C36_2 C 0.6660(6) 0.9117(5) 0.1818(4)
H31_2 H 0.7171 0.9371 0.1364
C37_2 C 0.6166(6) 0.9713(5) 0.2392(4)
C38_2 C 0.5356(6) 0.9346(5) 0.3040(4)
H32_2 H 0.5000 0.9762 0.3414
C39_2 C 0.5067(5) 0.8380(5) 0.3142(4)
N1_2 N 0.5210(5) 0.2283(5) 0.9954(4)
N2_2 N 0.7826(5) 0.4671(5) 0.4957(3)
O1_2 O 0.8932(4) 0.2940(4) 0.7680(3)
O2_2 O 0.6753(4) 0.4519(3) 0.7965(3)
O3_2 O 0.6320(4) 0.5980(4) 0.7190(3)
O6_2 O 0.5024(4) 0.5861(4) 0.5889(3)
O14_2 O 0.7926(4) 0.3725(4) 0.6199(3)
O15_2 O 0.6336(4) 0.2261(4) 0.8726(3)
loop_
_geom_bond_atom_site_label_1
_geom_bond_atom_site_label_2
_geom_bond_site_symmetry_1
_geom_bond_site_symmetry_2
Cd1 O3 1_555 1_555
Cd3 O1 1_555 1_555
C1 C2 1_555 1_555
C2 C3 1_555 1_555
C3 H1 1_555 1_555
C4 C3 1_555 1_555
H2 C4 1_555 1_555
C5 C4 1_555 1_555
C6 C5 1_555 1_555
H3 C6 1_555 1_555
C7 C2 1_555 1_555
C9 C7 1_555 1_555
C10 C9 1_555 1_555
H4 C10 1_555 1_555
H6 C13 1_555 1_555
C14 C9 1_555 1_555
C16 C14 1_555 1_555
C17 H7 1_555 1_555
C20 H14 1_555 1_555
C21 H15 1_555 1_555
H16 C21 1_555 1_555
H17 C21 1_555 1_555
C22 H18 1_555 1_555
H19 C22 1_555 1_555
H20 C22 1_555 1_555
C23 C24 1_555 1_555
C24 C25 1_555 1_555
C25 H21 1_555 1_555
C26 C25 1_555 1_555
C27 C26 1_555 1_555
C28 C27 1_555 1_555
H22 C28 1_555 1_555
C29 C24 1_555 1_555
H23 C29 1_555 1_555
C30 C27 1_555 1_555
C33 C34 1_555 1_555
C34 C35 1_555 1_555
C35 H30 1_555 1_555
C36 C35 1_555 1_555
H31 C36 1_555 1_555
C37 C36 1_555 1_555
C38 C37 1_555 1_555
H32 C38 1_555 1_555
C39 C26 1_555 1_555
N1 C17 1_555 1_555
N2 C20 1_555 1_555
O1 C16 1_555 1_555
O2 Cd3 1_555 1_555
O3 C1 1_555 1_555
O6 Cd1 1_555 1_555
O7 Cd1 1_555 1_555
O12 C33 1_555 1_555
O13 C33 1_555 1_555
O14 Cd3 1_555 1_555
O15 Cd3 1_555 1_555
O16 C30 1_555 1_555
Cd5 O12 1_555 1_555
Cd6 O7 1_555 1_555
Cd9 O12 1_555 1_555
O18 Cd1 1_555 1_555
O19 Cd1 1_555 1_555
O23 Cd1 1_555 1_555
O24 Cd1 1_555 1_555
O25 Cd3 1_555 1_555
Cd3 O23 1_555 1_555
C1 O2 1_555 1_555
C6 C7 1_555 1_555
C13 C14 1_555 1_555
C17 O15 1_555 1_555
C20 O14 1_555 1_555
C21 N2 1_555 1_555
C22 N2 1_555 1_555
C23 O6 1_555 1_555
C23 O7 1_555 1_555
C28 C29 1_555 1_555
C34 C39 1_555 1_555
C38 C39 1_555 1_555
O13 Cd5 1_555 1_555
O16 Cd9 1_555 1_555
Cd6 O19 1_555 1_555
C12 C11 1_555 1_555
H5 C12 1_555 1_555
C15 C11 1_555 1_555
C18 H8 1_555 1_555
H9 C18 1_555 1_555
C19 H11 1_555 1_555
H12 C19 1_555 1_555
H13 C19 1_555 1_555
O8 C15 1_555 1_555
O9 C15 1_555 1_555
Cd5 O8 1_555 1_555
Cd7 O9 1_555 1_555
O9 Cd5 1_555 1_555
Cd7 O4 1_555 1_555
C31 H24 1_555 1_555
H25 C31 1_555 1_555
H26 C31 1_555 1_555
C32 H27 1_555 1_555
H28 C32 1_555 1_555
H29 C32 1_555 1_555
O4 C40 1_555 1_555
O5 Cd7 1_555 1_555
O17 Cd7 1_555 1_555
O21 Cd7 1_555 1_555
O22 Cd7 1_555 1_555
C31 N4 1_555 1_555
C32 N4 1_555 1_555
C40 O5 1_555 1_555
C41 H33 1_555 1_555
H34 C41 1_555 1_555
H35 C41 1_555 1_555
C42 H36 1_555 1_555
H37 C42 1_555 1_555
H38 C42 1_555 1_555
O10 C8 1_555 1_555
O11 C8 1_555 1_555
Cd6 O10 1_555 1_555
C41 N3 1_555 1_555
C42 N3 1_555 1_555
O11 Cd6 1_555 1_555
C41_2 H33_2 1_555 1_555
H34_2 C41_2 1_555 1_555
H35_2 C41_2 1_555 1_555
C42_2 H36_2 1_555 1_555
H37_2 C42_2 1_555 1_555
H38_2 C42_2 1_555 1_555
O21 C8_2 1_555 1_555
O22 C8_2 1_555 1_555
C41_2 N3_2 1_555 1_555
C42_2 N3_2 1_555 1_555
Cd6 O4_2 1_555 1_555
C31_2 H24_2 1_555 1_555
H25_2 C31_2 1_555 1_555
H26_2 C31_2 1_555 1_555
C32_2 H27_2 1_555 1_555
H28_2 C32_2 1_555 1_555
H29_2 C32_2 1_555 1_555
O4_2 C40_2 1_555 1_555
O5_2 Cd6 1_555 1_555
C31_2 N4_2 1_555 1_555
C32_2 N4_2 1_555 1_555
C40_2 O5_2 1_555 1_555
C12_2 C11_2 1_555 1_555
H5_2 C12_2 1_555 1_555
C15_2 C11_2 1_555 1_555
C18_2 H8_2 1_555 1_555
H9_2 C18_2 1_555 1_555
C19_2 H11_2 1_555 1_555
H12_2 C19_2 1_555 1_555
H13_2 C19_2 1_555 1_555
O18 C15_2 1_555 1_555
O19 C15_2 1_555 1_555
Cd5 O3_2 1_555 1_555
Cd9 O1_2 1_555 1_555
C1_2 C2_2 1_555 1_555
C2_2 C3_2 1_555 1_555
C3_2 H1_2 1_555 1_555
C4_2 C3_2 1_555 1_555
H2_2 C4_2 1_555 1_555
C5_2 C4_2 1_555 1_555
C6_2 C5_2 1_555 1_555
H3_2 C6_2 1_555 1_555
C7_2 C2_2 1_555 1_555
C9_2 C7_2 1_555 1_555
C10_2 C9_2 1_555 1_555
H4_2 C10_2 1_555 1_555
H6_2 C13_2 1_555 1_555
C14_2 C9_2 1_555 1_555
C16_2 C14_2 1_555 1_555
C17_2 H7_2 1_555 1_555
C20_2 H14_2 1_555 1_555
C21_2 H15_2 1_555 1_555
H16_2 C21_2 1_555 1_555
H17_2 C21_2 1_555 1_555
C22_2 H18_2 1_555 1_555
H19_2 C22_2 1_555 1_555
H20_2 C22_2 1_555 1_555
C23_2 C24_2 1_555 1_555
C24_2 C25_2 1_555 1_555
C25_2 H21_2 1_555 1_555
C26_2 C25_2 1_555 1_555
C27_2 C26_2 1_555 1_555
C28_2 C27_2 1_555 1_555
H22_2 C28_2 1_555 1_555
C29_2 C24_2 1_555 1_555
H23_2 C29_2 1_555 1_555
C30_2 C27_2 1_555 1_555
C33_2 C34_2 1_555 1_555
C34_2 C35_2 1_555 1_555
C35_2 H30_2 1_555 1_555
C36_2 C35_2 1_555 1_555
H31_2 C36_2 1_555 1_555
C37_2 C36_2 1_555 1_555
C38_2 C37_2 1_555 1_555
H32_2 C38_2 1_555 1_555
C39_2 C26_2 1_555 1_555
N1_2 C17_2 1_555 1_555
N2_2 C20_2 1_555 1_555
O1_2 C16_2 1_555 1_555
O2_2 Cd9 1_555 1_555
O3_2 C1_2 1_555 1_555
O6_2 Cd5 1_555 1_555
O17 Cd5 1_555 1_555
O23 C33_2 1_555 1_555
O24 C33_2 1_555 1_555
O14_2 Cd9 1_555 1_555
O15_2 Cd9 1_555 1_555
O25 C30_2 1_555 1_555
C1_2 O2_2 1_555 1_555
C6_2 C7_2 1_555 1_555
C13_2 C14_2 1_555 1_555
C17_2 O15_2 1_555 1_555
C20_2 O14_2 1_555 1_555
C21_2 N2_2 1_555 1_555
C22_2 N2_2 1_555 1_555
C23_2 O6_2 1_555 1_555
C23_2 O17 1_555 1_555
C28_2 C29_2 1_555 1_555
C34_2 C39_2 1_555 1_555
C38_2 C39_2 1_555 1_555

#END
