
###############################################################################
#
# This file contains modified crystal structure data generated from the
# MOF subset of the Cambridge Structural Database (CSD) v543 
# hosted by the Cambridge Crystallographic Data Centre (CCDC).
#
# This work is licensed under the Creative Commons
# Attribution-NonCommercial-ShareAlike 4.0 International License.
# To view a copy of this license, visit
# http://creativecommons.org/licenses/by-nc-sa/4.0/
# or send a letter to
# Creative Commons, PO Box 1866, Mountain View, CA 94042, USA.
#
# CIF created using the CSD Python API on 29 September 2022
# The structure has been converted into the P1 space group
# The structure has a 3D framework
# The original CSD entry PANYEL is in the monoclinic crystal system
# The framework has been calculated to contain at least 10.0% void space
# The void calculation uses a probe of radius 1.32A, grid spacing 0.4
#
###############################################################################

data_PANYEL
_chemical_formula_moiety         '(C144 H88 Cu8 N40 O32 S8)n'
_symmetry_cell_setting           triclinic
_symmetry_space_group_name_H-M   'P 1'
_symmetry_Int_Tables_number      1
_space_group_name_Hall           'P 1'
loop_
_symmetry_equiv_pos_site_id
_symmetry_equiv_pos_as_xyz
1 x,y,z
_cell_length_a                   16.6304(3)
_cell_length_b                   12.4236(2)
_cell_length_c                   21.1103(3)
_cell_angle_alpha                90
_cell_angle_beta                 92.0990(10)
_cell_angle_gamma                90
_cell_volume                     4358.66
loop_
_atom_site_label
_atom_site_type_symbol
_atom_site_fract_x
_atom_site_fract_y
_atom_site_fract_z
O2 O 0.05481(14) 0.16476(19) 0.43887(12)
O7 O 0.00566(16) 0.2864(2) 0.36966(13)
C14 C 0.0002(2) 0.2032(3) 0.40166(16)
Cu3 Cu 0.14678(3) 0.26485(4) 0.45167(2)
N2 N 0.07985(17) 0.6597(2) 0.01334(13)
C19 C 0.0443(2) 0.5206(3) 0.08571(16)
H7 H 0.049310 0.449279 0.098602
C23 C 0.0850(2) 0.5577(3) 0.03402(16)
H10 H 0.117303 0.509808 0.012649
C33 C 0.0341(2) 0.7286(3) 0.04562(18)
H19 H 0.030791 0.799880 0.032238
Cu7 Cu 0.13868(3) 0.71828(4) 0.93907(2)
Cu2 Cu 0.63868(3) 0.78172(4) 0.43907(2)
S2 S 0.41821(5) 0.52690(7) 0.44184(4)
O1 O 0.55243(14) 0.6751(2) 0.42346(12)
O3 O 0.20159(14) 0.40200(19) 0.43667(11)
O4 O 0.69182(14) 0.9214(2) 0.42529(11)
O5 O 0.79984(15) 0.8594(2) 0.48009(11)
O6 O 0.31558(15) 0.3485(2) 0.48681(12)
O8 O 0.49143(16) 0.7819(2) 0.35054(14)
N1 N 0.93625(17) 0.4618(2) 0.19508(13)
H1 H 0.959402 0.404519 0.181869
N3 N 0.70410(16) 0.7150(2) 0.37115(13)
N4 N 0.20457(16) 0.1957(2) 0.38026(13)
N5 N 0.59033(17) 0.1717(2) 0.02649(14)
N6 N 0.90329(17) 0.6319(2) 0.20244(13)
N8 N 0.88347(17) 0.4652(2) 0.24285(13)
N10 N 0.40105(17) 0.1286(2) 0.20748(13)
C1 C 0.7659(2) 0.9256(3) 0.44461(15)
C2 C 0.35946(19) 0.0618(3) 0.24511(15)
C3 C 0.30243(19) 0.1039(3) 0.29057(15)
C4 C 0.86561(19) 0.5699(3) 0.24491(16)
C5 C 0.99587(19) 0.5915(3) 0.11807(15)
C6 C 0.94677(19) 0.5613(3) 0.17160(15)
C7 C 0.2769(2) 0.4095(3) 0.45141(15)
C8 C 0.44385(19) 0.0608(3) 0.17395(15)
C9 C 0.80850(19) 0.6170(3) 0.28866(15)
C10 C 0.4982(2) 0.0953(3) 0.12442(15)
C11 C 0.2703(2) 0.0411(3) 0.33802(16)
C13 C 0.2217(2) 0.0901(3) 0.38196(16)
H4 H 0.200243 0.048157 0.413680
C15 C 0.7159(2) 0.6085(3) 0.37207(16)
H5 H 0.688305 0.567283 0.400943
C16 C 0.4197(2) 0.6356(3) 0.39160(16)
C17 C 0.4935(2) 0.7035(3) 0.38703(16)
C18 C 0.7674(2) 0.5569(3) 0.33201(17)
H6 H 0.774297 0.482706 0.334233
C20 C 0.7938(2) 0.7278(3) 0.28546(16)
H8 H 0.818841 0.770280 0.255720
C21 C 0.31902(19) 0.5013(3) 0.42176(15)
C22 C 0.2804(2) 0.2118(3) 0.28709(16)
H9 H 0.298124 0.254971 0.254405
C25 C 0.7417(2) 0.7728(3) 0.32706(16)
H11 H 0.731995 0.846444 0.324656
C26 C 0.2322(2) 0.2541(3) 0.33252(16)
H12 H 0.218274 0.326464 0.329881
C28 C 0.5835(2) 0.0665(3) 0.03736(17)
H14 H 0.610141 0.018804 0.011455
C29 C 0.3467(2) 0.6515(3) 0.36100(18)
H15 H 0.336088 0.707033 0.332336
C30 C 0.5382(2) 0.0249(3) 0.08568(17)
C32 C 0.9919(2) 0.6980(3) 0.09758(18)
H18 H 0.961070 0.747971 0.118778
C34 C 0.2893(2) 0.5739(3) 0.37802(18)
H20 H 0.236803 0.572270 0.361276
C35 C 0.5545(3) 0.2399(3) 0.0663(2)
H21 H 0.561154 0.313556 0.060504
C36 C 0.5086(3) 0.2048(3) 0.11512(19)
H22 H 0.484615 0.254190 0.141651
Cu4 Cu 0.85322(3) 0.73515(4) 0.54833(2)
Cu6 Cu 0.36132(3) 0.21828(4) 0.56093(2)
O10 O 0.20016(15) 0.1406(2) 0.51991(11)
O11 O 0.68442(15) 0.6515(2) 0.51319(12)
N11 N 0.57985(17) 0.8403(2) 0.51334(13)
N12 N 0.09033(17) 0.3283(2) 0.52649(14)
Cu5 Cu 0.64678(3) 0.23515(4) 0.95167(2)
Cu1 Cu 0.35322(3) 0.76485(4) 0.04833(2)
O3_2 O 0.29841(14) 0.90200(19) 0.06333(11)
O6_2 O 0.18442(15) 0.8485(2) 0.01319(12)
N4_2 N 0.29543(16) 0.6957(2) 0.11974(13)
N7 N 0.07161(17) 0.4589(2) 0.30908(13)
H2 H 0.050039 0.402755 0.325199
N9 N 0.12600(17) 0.4573(2) 0.26297(13)
N10_2 N 0.09895(17) 0.6286(2) 0.29252(13)
C2_2 C 0.14054(19) 0.5618(3) 0.25489(15)
C3_2 C 0.19757(19) 0.6039(3) 0.20943(15)
C7_2 C 0.2231(2) 0.9095(3) 0.04859(15)
C8_2 C 0.05615(19) 0.5608(3) 0.32605(15)
C10_2 C 0.0018(2) 0.5953(3) 0.37558(15)
C11_2 C 0.2297(2) 0.5411(3) 0.16198(16)
H3 H 0.218939 0.467682 0.159661
C13_2 C 0.2783(2) 0.5901(3) 0.11804(16)
H4_2 H 0.299757 0.548157 0.086320
C22_2 C 0.2196(2) 0.7118(3) 0.21291(16)
H9_2 H 0.201876 0.754971 0.245595
C26_2 C 0.2678(2) 0.7541(3) 0.16748(16)
H12_2 H 0.281726 0.826464 0.170119
H22_2 H 0.015385 0.754190 0.358349
O9 O 0.44519(14) 0.66476(19) 0.06113(12)
O10_2 O 0.29984(15) 0.6406(2) 0.98009(11)
N12_2 N 0.40967(17) 0.8283(2) 0.97351(14)
Cu2_2 Cu 0.86132(3) 0.28172(4) 0.06093(2)
S1 S 0.58944(5) 0.53513(7) 0.05139(4)
O1_2 O 0.94757(14) 0.1751(2) 0.07654(12)
O4_2 O 0.80818(14) 0.4214(2) 0.07471(11)
O5_2 O 0.70016(15) 0.3594(2) 0.01991(11)
O7_2 O 0.49434(16) 0.7864(2) 0.13034(13)
N2_2 N 0.42015(17) 0.1597(2) 0.48666(13)
N3_2 N 0.79590(16) 0.2150(2) 0.12885(13)
N6_2 N 0.59671(17) 0.1319(2) 0.29756(13)
C1_2 C 0.7341(2) 0.4256(3) 0.05539(15)
C4_2 C 0.63439(19) 0.0699(3) 0.25509(16)
C5_2 C 0.50413(19) 0.0915(3) 0.38193(15)
C6_2 C 0.55323(19) 0.0613(3) 0.32840(15)
C9_2 C 0.69150(19) 0.1170(3) 0.21134(15)
C12 C 0.5767(2) 0.6424(3) 0.10135(16)
C14_2 C 0.4998(2) 0.7032(3) 0.09834(16)
C15_2 C 0.7841(2) 0.1085(3) 0.12793(16)
H5_2 H 0.811695 0.067283 0.099057
C18_2 C 0.7326(2) 0.0569(3) 0.16799(17)
C19_2 C 0.4557(2) 0.0206(3) 0.41429(16)
C20_2 C 0.7062(2) 0.2278(3) 0.21454(16)
H8_2 H 0.681159 0.270280 0.244280
C23_2 C 0.4150(2) 0.0577(3) 0.46598(16)
H10_2 H 0.382697 0.009808 0.487351
C24 C 0.68622(19) 0.5163(3) 0.08030(16)
C25_2 C 0.7583(2) 0.2728(3) 0.17294(16)
H11_2 H 0.768005 0.346444 0.175344
C27 C 0.6443(2) 0.6616(3) 0.13870(17)
H13 H 0.648269 0.716209 0.168796
C31 C 0.7075(2) 0.5890(3) 0.12633(17)
H17 H 0.757671 0.590734 0.147193
C32_2 C 0.5081(2) 0.1980(3) 0.40242(18)
H18_2 H 0.538930 0.247971 0.381222
C33_2 C 0.4659(2) 0.2286(3) 0.45438(18)
H19_2 H 0.469209 0.299880 0.467762
O11_2 O 0.81558(15) 0.1515(2) 0.98681(12)
N11_2 N 0.92015(17) 0.3403(2) 0.98666(13)
N1_2 N 0.56375(17) 0.9618(2) 0.30492(13)
H1_2 H 0.540598 0.904519 0.318131
N5_2 N 0.90967(17) 0.6717(2) 0.47351(14)
N8_2 N 0.61653(17) 0.9652(2) 0.25715(13)
H6_2 H 0.725703 0.982706 0.165767
H7_2 H 0.450690 0.949279 0.401398
C28_2 C 0.9165(2) 0.5665(3) 0.46264(17)
H14_2 H 0.889859 0.518804 0.488545
C30_2 C 0.9618(2) 0.5249(3) 0.41432(17)
H16 H 0.965127 0.450967 0.408093
C35_2 C 0.9455(3) 0.7399(3) 0.4337(2)
H21_2 H 0.938846 0.813556 0.439496
C36_2 C 0.9914(3) 0.7048(3) 0.38488(19)
S2_2 S 0.58179(5) 0.47310(7) 0.55816(4)
O1_3 O 0.44757(14) 0.3249(2) 0.57654(12)
O3_3 O 0.79841(14) 0.59800(19) 0.56333(11)
O4_3 O 0.30818(14) 0.0786(2) 0.57471(11)
O8_2 O 0.50857(16) 0.2181(2) 0.64946(14)
N1_3 N 0.06375(17) 0.5382(2) 0.80492(13)
H1_3 H 0.040598 0.595481 0.818131
N3_3 N 0.29590(16) 0.2850(2) 0.62885(13)
N4_3 N 0.79543(16) 0.8043(2) 0.61974(13)
N6_3 N 0.09671(17) 0.3681(2) 0.79756(13)
N8_3 N 0.11653(17) 0.5348(2) 0.75715(13)
N10_3 N 0.59895(17) 0.8714(2) 0.79252(13)
C1_3 C 0.2341(2) 0.0744(3) 0.55539(15)
C2_3 C 0.64054(19) 0.9382(3) 0.75489(15)
C3_3 C 0.69757(19) 0.8961(3) 0.70943(15)
C4_3 C 0.13439(19) 0.4301(3) 0.75509(16)
C5_3 C 0.00413(19) 0.4085(3) 0.88193(15)
C6_3 C 0.05323(19) 0.4387(3) 0.82840(15)
C7_3 C 0.7231(2) 0.5905(3) 0.54859(15)
C8_3 C 0.55615(19) 0.9392(3) 0.82605(15)
C9_3 C 0.19150(19) 0.3830(3) 0.71134(15)
C10_3 C 0.5018(2) 0.9047(3) 0.87558(15)
C11_3 C 0.7297(2) 0.9589(3) 0.66198(16)
C13_3 C 0.7783(2) 0.9099(3) 0.61804(16)
H4_3 H 0.799757 0.951843 0.586320
C15_3 C 0.2841(2) 0.3915(3) 0.62793(16)
H5_3 H 0.311695 0.432717 0.599057
C16_2 C 0.5803(2) 0.3644(3) 0.60840(16)
C17_2 C 0.5065(2) 0.2965(3) 0.61297(16)
C18_3 C 0.2326(2) 0.4431(3) 0.66799(17)
H6_3 H 0.225703 0.517294 0.665767
C20_3 C 0.2062(2) 0.2722(3) 0.71454(16)
H8_3 H 0.181159 0.229720 0.744280
C21_2 C 0.68098(19) 0.4987(3) 0.57824(15)
C22_3 C 0.7196(2) 0.7882(3) 0.71291(16)
H9_3 H 0.701876 0.745029 0.745595
C25_3 C 0.2583(2) 0.2272(3) 0.67294(16)
H11_3 H 0.268005 0.153556 0.675344
C26_3 C 0.7678(2) 0.7459(3) 0.66748(16)
H12_3 H 0.781726 0.673536 0.670119
C28_3 C 0.4165(2) 0.9335(3) 0.96264(17)
H14_3 H 0.389859 0.981196 0.988545
C29_2 C 0.6533(2) 0.3485(3) 0.63900(18)
H15_2 H 0.663912 0.292967 0.667664
C30_3 C 0.4618(2) 0.9751(3) 0.91432(17)
C32_3 C 0.0081(2) 0.3020(3) 0.90242(18)
H18_3 H 0.038930 0.252029 0.881222
C34_2 C 0.7107(2) 0.4261(3) 0.62198(18)
H20_2 H 0.763197 0.427730 0.638724
C35_3 C 0.4455(3) 0.7601(3) 0.9337(2)
H21_3 H 0.438846 0.686444 0.939496
C36_3 C 0.4914(3) 0.7952(3) 0.88488(19)
H22_3 H 0.515385 0.745810 0.858349
O9_2 O 0.94519(14) 0.83524(19) 0.56113(12)
C19_3 C 0.9557(2) 0.4794(3) 0.91429(16)
H7_3 H 0.950690 0.550721 0.901398
C23_3 C 0.9150(2) 0.4423(3) 0.96598(16)
H10_3 H 0.882697 0.490192 0.987351
C33_3 C 0.9659(2) 0.2714(3) 0.95438(18)
H19_3 H 0.969209 0.200120 0.967762
O7_3 O 0.99434(16) 0.7136(2) 0.63034(13)
C14_3 C 0.9998(2) 0.7968(3) 0.59834(16)
N1_4 N 0.43625(17) 0.0382(2) 0.69508(13)
H1_4 H 0.459402 0.095481 0.681869
N8_4 N 0.38347(17) 0.0348(2) 0.74285(13)
H6_4 H 0.274297 0.017294 0.834233
H7_4 H 0.549310 0.050721 0.598602
C28_4 C 0.0835(2) 0.4335(3) 0.53736(17)
H14_4 H 0.110141 0.481196 0.511455
C30_4 C 0.0382(2) 0.4751(3) 0.58568(17)
H16_2 H 0.034873 0.549033 0.591907
C35_4 C 0.0545(3) 0.2601(3) 0.5663(2)
H21_4 H 0.061154 0.186444 0.560504
C36_4 C 0.0086(3) 0.2952(3) 0.61512(19)
S1_2 S 0.41056(5) 0.46487(7) 0.94861(4)
O1_4 O 0.05243(14) 0.8249(2) 0.92346(12)
O2_2 O 0.55481(14) 0.33524(19) 0.93887(12)
O4_4 O 0.19182(14) 0.5786(2) 0.92529(11)
O7_4 O 0.50566(16) 0.2136(2) 0.86966(13)
N3_4 N 0.20410(16) 0.7850(2) 0.87115(13)
N6_4 N 0.40329(17) 0.8681(2) 0.70244(13)
C1_4 C 0.2659(2) 0.5744(3) 0.94461(15)
C4_4 C 0.36561(19) 0.9301(3) 0.74491(16)
C5_4 C 0.49587(19) 0.9085(3) 0.61807(15)
C6_4 C 0.44677(19) 0.9387(3) 0.67160(15)
C9_4 C 0.30850(19) 0.8830(3) 0.78866(15)
C12_2 C 0.4233(2) 0.3576(3) 0.89865(16)
C14_4 C 0.5002(2) 0.2968(3) 0.90166(16)
C15_4 C 0.2159(2) 0.8915(3) 0.87207(16)
H5_4 H 0.188305 0.932717 0.900943
C18_4 C 0.2674(2) 0.9431(3) 0.83201(17)
C19_4 C 0.5443(2) 0.9794(3) 0.58571(16)
C20_4 C 0.2938(2) 0.7722(3) 0.78546(16)
H8_4 H 0.318841 0.729720 0.755720
C23_4 C 0.5850(2) 0.9423(3) 0.53402(16)
H10_4 H 0.617303 0.990192 0.512649
C24_2 C 0.31378(19) 0.4837(3) 0.91970(16)
C25_4 C 0.2417(2) 0.7272(3) 0.82706(16)
H11_4 H 0.231995 0.653556 0.824656
C27_2 C 0.3557(2) 0.3384(3) 0.86130(17)
H13_2 H 0.351731 0.283791 0.831204
C31_2 C 0.2925(2) 0.4110(3) 0.87367(17)
H17_2 H 0.242329 0.409266 0.852807
C32_4 C 0.4919(2) 0.8020(3) 0.59758(18)
H18_4 H 0.461070 0.752029 0.618778
C33_4 C 0.5341(2) 0.7714(3) 0.54562(18)
H19_4 H 0.530791 0.700120 0.532238
O3_4 O 0.70159(14) 0.09800(19) 0.93667(11)
N4_4 N 0.70457(16) 0.3043(2) 0.88026(13)
N7_2 N 0.92839(17) 0.5411(2) 0.69092(13)
H2_2 H 0.949961 0.597245 0.674801
N9_2 N 0.87400(17) 0.5427(2) 0.73703(13)
N10_4 N 0.90105(17) 0.3714(2) 0.70748(13)
C2_4 C 0.85946(19) 0.4382(3) 0.74511(15)
C3_4 C 0.80243(19) 0.3961(3) 0.79057(15)
C7_4 C 0.7769(2) 0.0905(3) 0.95141(15)
C8_4 C 0.94385(19) 0.4392(3) 0.67395(15)
C10_4 C 0.9982(2) 0.4047(3) 0.62442(15)
C11_4 C 0.7703(2) 0.4589(3) 0.83802(16)
H3_2 H 0.781061 0.532318 0.840339
C13_4 C 0.7217(2) 0.4099(3) 0.88196(16)
H4_4 H 0.700243 0.451843 0.913680
C22_4 C 0.7804(2) 0.2882(3) 0.78709(16)
H9_4 H 0.798124 0.245029 0.754405
C26_4 C 0.7322(2) 0.2459(3) 0.83252(16)
H12_4 H 0.718274 0.173536 0.829881
H22_4 H 0.984615 0.245810 0.641651
S1_3 S 0.91056(5) 0.03513(7) 0.44861(4)
C12_3 C 0.9233(2) 0.1424(3) 0.39865(16)
C24_3 C 0.81378(19) 0.0163(3) 0.41970(16)
C27_3 C 0.8557(2) 0.1616(3) 0.36130(17)
H13_3 H 0.851731 0.216209 0.331204
C31_3 C 0.7925(2) 0.0890(3) 0.37367(17)
H17_3 H 0.742329 0.090734 0.352807
N7_3 N 0.42839(17) 0.9589(2) 0.19092(13)
H2_3 H 0.449961 0.902755 0.174801
N9_3 N 0.37400(17) 0.9573(2) 0.23703(13)
H3_3 H 0.281061 0.967682 0.340339
H16_3 H 0.534873 0.950967 0.091907
S2_3 S 0.08179(5) 0.02690(7) 0.05816(4)
O8_3 O 0.00857(16) 0.2819(2) 0.14946(14)
C16_3 C 0.0803(2) 0.1356(3) 0.10840(16)
C17_3 C 0.0065(2) 0.2035(3) 0.11297(16)
C21_3 C 0.18098(19) 0.0013(3) 0.07824(15)
C29_3 C 0.1533(2) 0.1515(3) 0.13900(18)
H15_3 H 0.163912 0.207033 0.167664
C34_3 C 0.2107(2) 0.0739(3) 0.12198(18)
H20_3 H 0.263197 0.072270 0.138724
N7_4 N 0.57161(17) 0.0411(2) 0.80908(13)
H2_4 H 0.550039 0.097245 0.825199
N9_4 N 0.62600(17) 0.0427(2) 0.76297(13)
H3_4 H 0.718939 0.032318 0.659661
H16_4 H 0.465127 0.049033 0.908093
S1_4 S 0.08944(5) 0.96487(7) 0.55139(4)
C12_4 C 0.0767(2) 0.8576(3) 0.60135(16)
C24_4 C 0.18622(19) 0.9837(3) 0.58030(16)
C27_4 C 0.1443(2) 0.8384(3) 0.63870(17)
H13_4 H 0.148269 0.783791 0.668796
C31_4 C 0.2075(2) 0.9110(3) 0.62633(17)
H17_4 H 0.257671 0.909266 0.647193
S2_4 S 0.91821(5) 0.97310(7) 0.94184(4)
O8_4 O 0.99143(16) 0.7181(2) 0.85054(14)
C16_4 C 0.9197(2) 0.8644(3) 0.89160(16)
C17_4 C 0.9935(2) 0.7965(3) 0.88703(16)
C21_4 C 0.81902(19) 0.9987(3) 0.92176(15)
C29_4 C 0.8467(2) 0.8485(3) 0.86100(18)
H15_4 H 0.836088 0.792967 0.832336
C34_4 C 0.7893(2) 0.9261(3) 0.87802(18)
H20_4 H 0.736803 0.927730 0.861276
loop_
_geom_bond_atom_site_label_1
_geom_bond_atom_site_label_2
_geom_bond_site_symmetry_1
_geom_bond_site_symmetry_2
O2 C14 1_555 1_555
O7 C14 1_555 1_555
Cu3 O2 1_555 1_555
N2 C23 1_555 1_555
H7 C19 1_555 1_555
C23 C19 1_555 1_555
H10 C23 1_555 1_555
C33 N2 1_555 1_555
H19 C33 1_555 1_555
Cu3 O3 1_555 1_555
Cu2 O1 1_555 1_555
S2 C16 1_555 1_555
O1 C17 1_555 1_555
O3 C7 1_555 1_555
O4 Cu2 1_555 1_555
O5 C1 1_555 1_555
O6 C7 1_555 1_555
O8 C17 1_555 1_555
N1 H1 1_555 1_555
N3 Cu2 1_555 1_555
N4 Cu3 1_555 1_555
N5 C28 1_555 1_555
N6 C4 1_555 1_555
N8 N1 1_555 1_555
N10 C2 1_555 1_555
C1 O4 1_555 1_555
C3 C2 1_555 1_555
C4 N8 1_555 1_555
C5 C6 1_555 1_555
C6 N1 1_555 1_555
C7 C21 1_555 1_555
C9 C4 1_555 1_555
C10 C8 1_555 1_555
C11 C3 1_555 1_555
C13 N4 1_555 1_555
H4 C13 1_555 1_555
C15 N3 1_555 1_555
H5 C15 1_555 1_555
C16 C17 1_555 1_555
C18 C9 1_555 1_555
H6 C18 1_555 1_555
C20 C9 1_555 1_555
H8 C20 1_555 1_555
C21 S2 1_555 1_555
C22 C3 1_555 1_555
H9 C22 1_555 1_555
C25 N3 1_555 1_555
H11 C25 1_555 1_555
C26 N4 1_555 1_555
H12 C26 1_555 1_555
C28 H14 1_555 1_555
C29 C16 1_555 1_555
H15 C29 1_555 1_555
C30 C10 1_555 1_555
C32 C5 1_555 1_555
H18 C32 1_555 1_555
C34 C21 1_555 1_555
H20 C34 1_555 1_555
C35 N5 1_555 1_555
H21 C35 1_555 1_555
C36 C10 1_555 1_555
H22 C36 1_555 1_555
Cu4 O5 1_555 1_555
Cu6 O6 1_555 1_555
O10 Cu3 1_555 1_555
O11 Cu2 1_555 1_555
N11 Cu2 1_555 1_555
N12 Cu3 1_555 1_555
N6 C6 1_555 1_555
N10 C8 1_555 1_555
C11 C13 1_555 1_555
C15 C18 1_555 1_555
C20 C25 1_555 1_555
C22 C26 1_555 1_555
C28 C30 1_555 1_555
C29 C34 1_555 1_555
C35 C36 1_555 1_555
Cu1 O3_2 1_555 1_555
O3_2 C7_2 1_555 1_555
O6_2 C7_2 1_555 1_555
N4_2 Cu1 1_555 1_555
N7 H2 1_555 1_555
N9 N7 1_555 1_555
N10_2 C2_2 1_555 1_555
C2_2 N9 1_555 1_555
C3_2 C2_2 1_555 1_555
C8_2 N7 1_555 1_555
C10_2 C8_2 1_555 1_555
C11_2 C3_2 1_555 1_555
H3 C11_2 1_555 1_555
C13_2 N4_2 1_555 1_555
H4_2 C13_2 1_555 1_555
C22_2 C3_2 1_555 1_555
H9_2 C22_2 1_555 1_555
C26_2 N4_2 1_555 1_555
H12_2 C26_2 1_555 1_555
O9 Cu1 1_555 1_555
N10_2 C8_2 1_555 1_555
C11_2 C13_2 1_555 1_555
C22_2 C26_2 1_555 1_555
Cu2_2 O1_2 1_555 1_555
S1 C12 1_555 1_555
O9 C14_2 1_555 1_555
O4_2 Cu2_2 1_555 1_555
O5_2 C1_2 1_555 1_555
O7_2 C14_2 1_555 1_555
N2_2 C23_2 1_555 1_555
N3_2 Cu2_2 1_555 1_555
N6_2 C4_2 1_555 1_555
C1_2 O4_2 1_555 1_555
C5_2 C6_2 1_555 1_555
C9_2 C4_2 1_555 1_555
C12 C14_2 1_555 1_555
C15_2 N3_2 1_555 1_555
H5_2 C15_2 1_555 1_555
C18_2 C9_2 1_555 1_555
C19_2 C5_2 1_555 1_555
C20_2 C9_2 1_555 1_555
H8_2 C20_2 1_555 1_555
C23_2 C19_2 1_555 1_555
H10_2 C23_2 1_555 1_555
C24 S1 1_555 1_555
C25_2 N3_2 1_555 1_555
H11_2 C25_2 1_555 1_555
C27 C12 1_555 1_555
H13 C27 1_555 1_555
C31 C24 1_555 1_555
H17 C31 1_555 1_555
C32_2 C5_2 1_555 1_555
H18_2 C32_2 1_555 1_555
C33_2 N2_2 1_555 1_555
H19_2 C33_2 1_555 1_555
Cu6 N2_2 1_555 1_555
N6_2 C6_2 1_555 1_555
C1_2 C24 1_555 1_555
C15_2 C18_2 1_555 1_555
C20_2 C25_2 1_555 1_555
C27 C31 1_555 1_555
C32_2 C33_2 1_555 1_555
N1_2 H1_2 1_555 1_555
N5_2 C28_2 1_555 1_555
N8_2 N1_2 1_555 1_555
C28_2 H14_2 1_555 1_555
H16 C30_2 1_555 1_555
C35_2 N5_2 1_555 1_555
H21_2 C35_2 1_555 1_555
Cu4 N5_2 1_555 1_555
C28_2 C30_2 1_555 1_555
C35_2 C36_2 1_555 1_555
Cu4 O3_3 1_555 1_555
Cu6 O1_3 1_555 1_555
S2_2 C16_2 1_555 1_555
O1_3 C17_2 1_555 1_555
O3_3 C7_3 1_555 1_555
O4_3 Cu6 1_555 1_555
O10 C1_3 1_555 1_555
O11 C7_3 1_555 1_555
O8_2 C17_2 1_555 1_555
N1_3 H1_3 1_555 1_555
N3_3 Cu6 1_555 1_555
N4_3 Cu4 1_555 1_555
N12_2 C28_3 1_555 1_555
N6_3 C4_3 1_555 1_555
N8_3 N1_3 1_555 1_555
N10_3 C2_3 1_555 1_555
C1_3 O4_3 1_555 1_555
C3_3 C2_3 1_555 1_555
C4_3 N8_3 1_555 1_555
C5_3 C6_3 1_555 1_555
C6_3 N1_3 1_555 1_555
C7_3 C21_2 1_555 1_555
C9_3 C4_3 1_555 1_555
C10_3 C8_3 1_555 1_555
C11_3 C3_3 1_555 1_555
C13_3 N4_3 1_555 1_555
H4_3 C13_3 1_555 1_555
C15_3 N3_3 1_555 1_555
H5_3 C15_3 1_555 1_555
C16_2 C17_2 1_555 1_555
C18_3 C9_3 1_555 1_555
H6_3 C18_3 1_555 1_555
C20_3 C9_3 1_555 1_555
H8_3 C20_3 1_555 1_555
C21_2 S2_2 1_555 1_555
C22_3 C3_3 1_555 1_555
H9_3 C22_3 1_555 1_555
C25_3 N3_3 1_555 1_555
H11_3 C25_3 1_555 1_555
C26_3 N4_3 1_555 1_555
H12_3 C26_3 1_555 1_555
C28_3 H14_3 1_555 1_555
C29_2 C16_2 1_555 1_555
H15_2 C29_2 1_555 1_555
C30_3 C10_3 1_555 1_555
C32_3 C5_3 1_555 1_555
H18_3 C32_3 1_555 1_555
C34_2 C21_2 1_555 1_555
H20_2 C34_2 1_555 1_555
C35_3 N12_2 1_555 1_555
H21_3 C35_3 1_555 1_555
C36_3 C10_3 1_555 1_555
H22_3 C36_3 1_555 1_555
O9_2 Cu4 1_555 1_555
N6_3 C6_3 1_555 1_555
N10_3 C8_3 1_555 1_555
C11_3 C13_3 1_555 1_555
C15_3 C18_3 1_555 1_555
C20_3 C25_3 1_555 1_555
C22_3 C26_3 1_555 1_555
C28_3 C30_3 1_555 1_555
C29_2 C34_2 1_555 1_555
C35_3 C36_3 1_555 1_555
N11_2 C23_3 1_555 1_555
H7_3 C19_3 1_555 1_555
C23_3 C19_3 1_555 1_555
H10_3 C23_3 1_555 1_555
C33_3 N11_2 1_555 1_555
H19_3 C33_3 1_555 1_555
O9_2 C14_3 1_555 1_555
O7_3 C14_3 1_555 1_555
N1_4 H1_4 1_555 1_555
N12 C28_4 1_555 1_555
N8_4 N1_4 1_555 1_555
C28_4 H14_4 1_555 1_555
H16_2 C30_4 1_555 1_555
C35_4 N12 1_555 1_555
H21_4 C35_4 1_555 1_555
C28_4 C30_4 1_555 1_555
C35_4 C36_4 1_555 1_555
Cu7 O1_4 1_555 1_555
S1_2 C12_2 1_555 1_555
O2_2 C14_4 1_555 1_555
O4_4 Cu7 1_555 1_555
O10_2 C1_4 1_555 1_555
O7_4 C14_4 1_555 1_555
N11 C23_4 1_555 1_555
N3_4 Cu7 1_555 1_555
N6_4 C4_4 1_555 1_555
C1_4 O4_4 1_555 1_555
C5_4 C6_4 1_555 1_555
C9_4 C4_4 1_555 1_555
C12_2 C14_4 1_555 1_555
C15_4 N3_4 1_555 1_555
H5_4 C15_4 1_555 1_555
C18_4 C9_4 1_555 1_555
C19_4 C5_4 1_555 1_555
C20_4 C9_4 1_555 1_555
H8_4 C20_4 1_555 1_555
C23_4 C19_4 1_555 1_555
H10_4 C23_4 1_555 1_555
C24_2 S1_2 1_555 1_555
C25_4 N3_4 1_555 1_555
H11_4 C25_4 1_555 1_555
C27_2 C12_2 1_555 1_555
H13_2 C27_2 1_555 1_555
C31_2 C24_2 1_555 1_555
H17_2 C31_2 1_555 1_555
C32_4 C5_4 1_555 1_555
H18_4 C32_4 1_555 1_555
C33_4 N11 1_555 1_555
H19_4 C33_4 1_555 1_555
Cu5 O2_2 1_555 1_555
N6_4 C6_4 1_555 1_555
C1_4 C24_2 1_555 1_555
C15_4 C18_4 1_555 1_555
C20_4 C25_4 1_555 1_555
C27_2 C31_2 1_555 1_555
C32_4 C33_4 1_555 1_555
Cu5 O3_4 1_555 1_555
O3_4 C7_4 1_555 1_555
O11_2 C7_4 1_555 1_555
N4_4 Cu5 1_555 1_555
N7_2 H2_2 1_555 1_555
N9_2 N7_2 1_555 1_555
N10_4 C2_4 1_555 1_555
C2_4 N9_2 1_555 1_555
C3_4 C2_4 1_555 1_555
C8_4 N7_2 1_555 1_555
C10_4 C8_4 1_555 1_555
C11_4 C3_4 1_555 1_555
H3_2 C11_4 1_555 1_555
C13_4 N4_4 1_555 1_555
H4_4 C13_4 1_555 1_555
C22_4 C3_4 1_555 1_555
H9_4 C22_4 1_555 1_555
C26_4 N4_4 1_555 1_555
H12_4 C26_4 1_555 1_555
N10_4 C8_4 1_555 1_555
C11_4 C13_4 1_555 1_555
C22_4 C26_4 1_555 1_555
S1_3 C12_3 1_555 1_555
C24_3 S1_3 1_555 1_555
C27_3 C12_3 1_555 1_555
H13_3 C27_3 1_555 1_555
C31_3 C24_3 1_555 1_555
H17_3 C31_3 1_555 1_555
C27_3 C31_3 1_555 1_555
N7_3 H2_3 1_555 1_555
N9_3 N7_3 1_555 1_555
S2_3 C16_3 1_555 1_555
O8_3 C17_3 1_555 1_555
C16_3 C17_3 1_555 1_555
C21_3 S2_3 1_555 1_555
C29_3 C16_3 1_555 1_555
H15_3 C29_3 1_555 1_555
C34_3 C21_3 1_555 1_555
H20_3 C34_3 1_555 1_555
C29_3 C34_3 1_555 1_555
N7_4 H2_4 1_555 1_555
N9_4 N7_4 1_555 1_555
S1_4 C12_4 1_555 1_555
C24_4 S1_4 1_555 1_555
C27_4 C12_4 1_555 1_555
H13_4 C27_4 1_555 1_555
C31_4 C24_4 1_555 1_555
H17_4 C31_4 1_555 1_555
C27_4 C31_4 1_555 1_555
S2_4 C16_4 1_555 1_555
O8_4 C17_4 1_555 1_555
C16_4 C17_4 1_555 1_555
C21_4 S2_4 1_555 1_555
C29_4 C16_4 1_555 1_555
H15_4 C29_4 1_555 1_555
C34_4 C21_4 1_555 1_555
H20_4 C34_4 1_555 1_555
C29_4 C34_4 1_555 1_555

#END
