
###############################################################################
#
# This file contains modified crystal structure data generated from the
# MOF subset of the Cambridge Structural Database (CSD) v543 
# hosted by the Cambridge Crystallographic Data Centre (CCDC).
#
# This work is licensed under the Creative Commons
# Attribution-NonCommercial-ShareAlike 4.0 International License.
# To view a copy of this license, visit
# http://creativecommons.org/licenses/by-nc-sa/4.0/
# or send a letter to
# Creative Commons, PO Box 1866, Mountain View, CA 94042, USA.
#
# CIF created using the CSD Python API on 29 September 2022
# The structure has been converted into the P1 space group
# The structure has a 3D framework
# The original CSD entry PAQFUL is in the monoclinic crystal system
# The framework has been calculated to contain at least 10.0% void space
# The void calculation uses a probe of radius 1.32A, grid spacing 0.4
#
###############################################################################

data_PAQFUL
_chemical_formula_moiety         '(C56 H60 Ag8 N50 O24)n'
_symmetry_cell_setting           triclinic
_symmetry_space_group_name_H-M   'P 1'
_symmetry_Int_Tables_number      1
_space_group_name_Hall           'P 1'
loop_
_symmetry_equiv_pos_site_id
_symmetry_equiv_pos_as_xyz
1 x,y,z
_cell_length_a                   14.882(3)
_cell_length_b                   7.0258(14)
_cell_length_c                   22.536(5)
_cell_angle_alpha                90
_cell_angle_beta                 104.06(3)
_cell_angle_gamma                90
_cell_volume                     2285.73
loop_
_atom_site_label
_atom_site_type_symbol
_atom_site_fract_x
_atom_site_fract_y
_atom_site_fract_z
O7 O 0.06057(19) 0.0415(4) 0.18199(12)
N2 N 0.0601(2) 0.6876(5) 0.28687(14)
C9 C 0.0189(2) 0.6200(6) 0.32982(17)
N3 N 0.0635(2) 0.5385(5) 0.38279(14)
C10 C 0.1549(3) 0.5315(6) 0.39210(17)
N4 N 0.2044(2) 0.6062(5) 0.35516(14)
C11 C 0.1535(2) 0.6834(5) 0.30243(16)
N6 N 0.2018(2) 0.4450(6) 0.44414(16)
H6 H 0.1722 0.3982 0.4691
H7 H 0.2612 0.4368 0.4522
N7 N 0.1980(2) 0.7582(5) 0.26355(15)
H8 H 0.1672 0.8072 0.2297
H9 H 0.2575 0.7576 0.2722
C12 C 0.0863(3) 0.6709(6) 0.08008(17)
N9 N 0.1163(2) 0.7315(5) 0.03223(14)
N12 N 0.1502(2) 0.6052(6) 0.12793(15)
H12 H 0.2076 0.6035 0.1269
H13 H 0.1341 0.5646 0.1598
Ag4 Ag 0.35351(2) 0.66100(5) 0.393765(14)
Ag1 Ag 0.97568(2) 0.70865(6) 0.181907(14)
O1 O 0.83091(19) 0.7457(5) 0.20145(14)
O2 O 0.7436(2) 0.6140(6) 0.11784(16)
C1 C 0.7557(3) 0.6821(6) 0.17021(19)
C2 C 0.6744(3) 0.6847(6) 0.19953(17)
C3 C 0.5871(3) 0.6295(6) 0.16619(17)
H1 H 0.5783 0.5882 0.1260
C4 C 0.5134(3) 0.6368(6) 0.19350(17)
C5 C 0.5226(3) 0.6899(6) 0.25411(17)
C6 C 0.6111(3) 0.7423(7) 0.28650(18)
H2 H 0.6207 0.7780 0.3273
C7 C 0.6852(3) 0.7425(6) 0.25947(18)
H3 H 0.7430 0.7822 0.2820
C8 C 0.4470(3) 0.6893(6) 0.28878(17)
O3 O 0.43943(19) 0.5415(4) 0.31801(12)
O4 O 0.4038(2) 0.8387(5) 0.29100(17)
N1 N 0.4213(2) 0.5890(5) 0.15523(16)
O5 O 0.4153(2) 0.5223(6) 0.10450(15)
O6 O 0.3540(2) 0.6207(5) 0.17582(15)
N5 N 0.9276(2) 0.6370(5) 0.31944(16)
H4 H 0.8994 0.5967 0.3461
H5 H 0.8966 0.6884 0.2861
N8 N 0.9971(2) 0.6712(5) 0.08437(14)
C14 C 0.9348(3) 0.7199(6) 0.03230(16)
N11 N 0.8462(2) 0.7176(5) 0.03261(15)
H10 H 0.8297 0.6857 0.0653
H11 H 0.8049 0.7478 0.0001
Ag3 Ag 0.52432(2) 0.20865(6) 0.318093(14)
N15 N 0.4576(2) 0.7282(5) 0.47972(14)
N10 N 0.9576(2) 0.7718(5) 0.97972(14)
Ag5 Ag 0.85351(2) 0.83900(5) 0.893765(14)
Ag2 Ag 0.14649(2) 0.16100(5) 0.106235(14)
C8_2 C 0.0530(3) 0.1893(6) 0.21122(17)
O4_2 O 0.0962(2) 0.3387(5) 0.20900(17)
N1_2 N 0.0787(2) 0.0890(5) 0.34477(16)
O5_2 O 0.0847(2) 0.0223(6) 0.39550(15)
O6_2 O 0.1460(2) 0.1207(5) 0.32418(15)
N14 N 0.2956(2) 0.1062(5) 0.14484(14)
N15_2 N 0.0424(2) 0.2282(5) 0.02028(14)
O1_2 O 0.66909(19) 0.2457(5) 0.29855(14)
O2_2 O 0.7564(2) 0.1140(6) 0.38216(16)
C1_2 C 0.7443(3) 0.1821(6) 0.32979(19)
C2_2 C 0.8256(3) 0.1847(6) 0.30047(17)
C3_2 C 0.9129(3) 0.1295(6) 0.33381(17)
H1_2 H 0.9217 0.0882 0.3740
C4_2 C 0.9866(3) 0.1368(6) 0.30650(17)
C5_2 C 0.9774(3) 0.1899(6) 0.24589(17)
C6_2 C 0.8889(3) 0.2423(7) 0.21350(18)
H2_2 H 0.8793 0.2780 0.1727
C7_2 C 0.8148(3) 0.2425(6) 0.24053(18)
H3_2 H 0.7570 0.2822 0.2180
N2_2 N 0.4399(2) 0.1876(5) 0.21313(14)
C9_2 C 0.4811(2) 0.1200(6) 0.17018(17)
N3_2 N 0.4365(2) 0.0385(5) 0.11721(14)
C10_2 C 0.3451(3) 0.0315(6) 0.10790(17)
C11_2 C 0.3465(2) 0.1834(5) 0.19757(16)
N5_2 N 0.5724(2) 0.1370(5) 0.18056(16)
H4_2 H 0.6006 0.0967 0.1539
H5_2 H 0.6034 0.1884 0.2139
N7_2 N 0.3020(2) 0.2582(5) 0.23645(15)
H8_2 H 0.3328 0.3072 0.2703
H9_2 H 0.2425 0.2576 0.2278
N8_2 N 0.5029(2) 0.1712(5) 0.41563(14)
C12_2 C 0.4137(3) 0.1709(6) 0.41992(17)
N9_2 N 0.3837(2) 0.2315(5) 0.46777(14)
C13 C 0.4505(3) 0.2803(6) 0.51694(16)
N10_2 N 0.5424(2) 0.2718(5) 0.52028(14)
C14_2 C 0.5652(3) 0.2199(6) 0.46770(16)
N11_2 N 0.6538(2) 0.2176(5) 0.46739(15)
H10_2 H 0.6703 0.1857 0.4347
H11_2 H 0.6951 0.2478 0.4999
N12_2 N 0.3498(2) 0.1052(6) 0.37207(15)
H12_2 H 0.2924 0.1035 0.3731
H13_2 H 0.3659 0.0646 0.3402
N13 N 0.4227(2) 0.3397(5) 0.56550(15)
H14 H 0.3645 0.3452 0.5643
H15 H 0.4628 0.3727 0.5982
Ag5_2 Ag 0.64649(2) 0.33900(5) 0.606235(14)
N6_2 N 0.2982(2) 0.9450(6) 0.05586(16)
H6_2 H 0.3278 0.8982 0.0309
H7_2 H 0.2388 0.9368 0.0478
Ag1_2 Ag 0.02432(2) 0.29135(6) 0.818093(14)
O1_3 O 0.16909(19) 0.2543(5) 0.79855(14)
O2_3 O 0.2564(2) 0.3860(6) 0.88216(16)
C1_3 C 0.2443(3) 0.3179(6) 0.82979(19)
C2_3 C 0.3256(3) 0.3153(6) 0.80047(17)
C3_3 C 0.4129(3) 0.3705(6) 0.83381(17)
H1_3 H 0.4217 0.4118 0.8740
C4_3 C 0.4866(3) 0.3632(6) 0.80650(17)
C5_3 C 0.4774(3) 0.3101(6) 0.74589(17)
C6_3 C 0.3889(3) 0.2577(7) 0.71350(18)
H2_3 H 0.3793 0.2220 0.6727
C7_3 C 0.3148(3) 0.2575(6) 0.74053(18)
H3_3 H 0.2570 0.2178 0.7180
C8_3 C 0.5530(3) 0.3107(6) 0.71122(17)
O3_2 O 0.56057(19) 0.4585(4) 0.68199(12)
O4_3 O 0.5962(2) 0.1613(5) 0.70900(17)
N1_3 N 0.5787(2) 0.4110(5) 0.84477(16)
O5_3 O 0.5847(2) 0.4777(6) 0.89550(15)
O6_3 O 0.6460(2) 0.3793(5) 0.82418(15)
N5_3 N 0.0724(2) 0.3630(5) 0.68056(16)
H4_3 H 0.1006 0.4033 0.6539
H5_3 H 0.1034 0.3116 0.7139
N8_3 N 0.0029(2) 0.3288(5) 0.91563(14)
C14_3 C 0.0652(3) 0.2801(6) 0.96770(16)
N11_3 N 0.1538(2) 0.2824(5) 0.96739(15)
H10_3 H 0.1703 0.3143 0.9347
H11_3 H 0.1951 0.2522 0.9999
Ag3_2 Ag 0.47568(2) 0.79135(6) 0.681907(14)
N14_2 N 0.7956(2) 0.3938(5) 0.64484(14)
N2_3 N 0.9399(2) 0.3124(5) 0.71313(14)
C9_3 C 0.9811(2) 0.3800(6) 0.67018(17)
N3_3 N 0.9365(2) 0.4615(5) 0.61721(14)
C10_3 C 0.8451(3) 0.4685(6) 0.60790(17)
C11_3 C 0.8465(2) 0.3166(5) 0.69757(16)
N6_3 N 0.7982(2) 0.5550(6) 0.55586(16)
H6_3 H 0.8278 0.6018 0.5309
H7_3 H 0.7388 0.5632 0.5478
N7_3 N 0.8020(2) 0.2418(5) 0.73645(15)
H8_3 H 0.8328 0.1928 0.7703
H9_3 H 0.7425 0.2424 0.7278
C12_3 C 0.9137(3) 0.3291(6) 0.91992(17)
N9_3 N 0.8837(2) 0.2685(5) 0.96777(14)
N12_3 N 0.8498(2) 0.3948(6) 0.87207(15)
H12_3 H 0.7924 0.3965 0.8731
H13_3 H 0.8659 0.4354 0.8402
O7_2 O 0.93943(19) 0.9585(4) 0.81801(12)
N6_4 N 0.7018(2) 0.0550(6) 0.94414(16)
H6_4 H 0.6722 0.1018 0.9691
H7_4 H 0.7612 0.0632 0.9522
O1_4 O 0.33091(19) 0.7543(5) 0.70145(14)
O2_4 O 0.2436(2) 0.8860(6) 0.61784(16)
C1_4 C 0.2557(3) 0.8179(6) 0.67021(19)
C2_4 C 0.1744(3) 0.8153(6) 0.69953(17)
C3_4 C 0.0871(3) 0.8705(6) 0.66619(17)
H1_4 H 0.0783 0.9118 0.6260
C4_4 C 0.0134(3) 0.8632(6) 0.69350(17)
C5_4 C 0.0226(3) 0.8101(6) 0.75411(17)
C6_4 C 0.1111(3) 0.7577(7) 0.78650(18)
H2_4 H 0.1207 0.7220 0.8273
C7_4 C 0.1852(3) 0.7575(6) 0.75947(18)
H3_4 H 0.2430 0.7178 0.7820
N2_4 N 0.5601(2) 0.8124(5) 0.78687(14)
C9_4 C 0.5189(2) 0.8800(6) 0.82982(17)
N3_4 N 0.5635(2) 0.9615(5) 0.88279(14)
C10_4 C 0.6549(3) 0.9685(6) 0.89210(17)
N4_2 N 0.7044(2) 0.8938(5) 0.85516(14)
C11_4 C 0.6535(2) 0.8166(5) 0.80243(16)
N5_4 N 0.4276(2) 0.8630(5) 0.81944(16)
H4_4 H 0.3994 0.9033 0.8461
H5_4 H 0.3966 0.8116 0.7861
N7_4 N 0.6980(2) 0.7418(5) 0.76355(15)
H8_4 H 0.6672 0.6928 0.7297
H9_4 H 0.7575 0.7424 0.7722
N8_4 N 0.4971(2) 0.8288(5) 0.58437(14)
C12_4 C 0.5863(3) 0.8291(6) 0.58008(17)
N9_4 N 0.6163(2) 0.7685(5) 0.53223(14)
C13_2 C 0.5495(3) 0.7197(6) 0.48306(16)
C14_4 C 0.4348(3) 0.7801(6) 0.53230(16)
N11_4 N 0.3462(2) 0.7824(5) 0.53261(15)
H10_4 H 0.3297 0.8143 0.5653
H11_4 H 0.3049 0.7522 0.5001
N12_4 N 0.6502(2) 0.8948(6) 0.62793(15)
H12_4 H 0.7076 0.8965 0.6269
H13_4 H 0.6341 0.9354 0.6598
N13_2 N 0.5773(2) 0.6603(5) 0.43450(15)
H14_2 H 0.6355 0.6548 0.4357
H15_2 H 0.5372 0.6273 0.4018
C8_4 C 0.9470(3) 0.8107(6) 0.78878(17)
O4_4 O 0.9038(2) 0.6613(5) 0.79100(17)
N1_4 N 0.9213(2) 0.9110(5) 0.65523(16)
O5_4 O 0.9153(2) 0.9777(6) 0.60450(15)
O6_4 O 0.8540(2) 0.8793(5) 0.67582(15)
C13_3 C 0.0495(3) 0.7803(6) 0.98306(16)
N13_3 N 0.0773(2) 0.8397(5) 0.93450(15)
H14_3 H 0.1355 0.8452 0.9357
H15_3 H 0.0372 0.8727 0.9018
C13_4 C 0.9505(3) 0.2197(6) 0.01694(16)
N13_4 N 0.9227(2) 0.1603(5) 0.06550(15)
H14_4 H 0.8645 0.1548 0.0643
H15_4 H 0.9628 0.1273 0.0982
loop_
_geom_bond_atom_site_label_1
_geom_bond_atom_site_label_2
_geom_bond_site_symmetry_1
_geom_bond_site_symmetry_2
C9 N2 1_555 1_555
N3 C9 1_555 1_555
C10 N3 1_555 1_555
N4 C10 1_555 1_555
C11 N2 1_555 1_555
N6 C10 1_555 1_555
H6 N6 1_555 1_555
H7 N6 1_555 1_555
N7 C11 1_555 1_555
H8 N7 1_555 1_555
H9 N7 1_555 1_555
N9 C12 1_555 1_555
N12 C12 1_555 1_555
H12 N12 1_555 1_555
H13 N12 1_555 1_555
Ag4 N4 1_555 1_555
N4 C11 1_555 1_555
Ag1 O1 1_555 1_555
Ag4 O3 1_555 1_555
O1 C1 1_555 1_555
O2 C1 1_555 1_555
C1 C2 1_555 1_555
C2 C3 1_555 1_555
C3 H1 1_555 1_555
C4 C3 1_555 1_555
C5 C4 1_555 1_555
C6 C5 1_555 1_555
H2 C6 1_555 1_555
C7 C2 1_555 1_555
H3 C7 1_555 1_555
C8 C5 1_555 1_555
O3 C8 1_555 1_555
O4 C8 1_555 1_555
N1 C4 1_555 1_555
O5 N1 1_555 1_555
O6 N1 1_555 1_555
H4 N5 1_555 1_555
H5 N5 1_555 1_555
N8 Ag1 1_555 1_555
C14 N8 1_555 1_555
N11 C14 1_555 1_555
H10 N11 1_555 1_555
H11 N11 1_555 1_555
Ag3 O3 1_555 1_555
N15 Ag4 1_555 1_555
C6 C7 1_555 1_555
Ag5 N10 1_555 1_555
Ag2 O7 1_555 1_555
O7 C8_2 1_555 1_555
O4_2 C8_2 1_555 1_555
O5_2 N1_2 1_555 1_555
O6_2 N1_2 1_555 1_555
N14 Ag2 1_555 1_555
N15_2 Ag2 1_555 1_555
Ag3 O1_2 1_555 1_555
O1_2 C1_2 1_555 1_555
O2_2 C1_2 1_555 1_555
C1_2 C2_2 1_555 1_555
C2_2 C3_2 1_555 1_555
C3_2 H1_2 1_555 1_555
C4_2 C3_2 1_555 1_555
C5_2 C4_2 1_555 1_555
C6_2 C5_2 1_555 1_555
H2_2 C6_2 1_555 1_555
C7_2 C2_2 1_555 1_555
H3_2 C7_2 1_555 1_555
N2_2 Ag3 1_555 1_555
C9_2 N2_2 1_555 1_555
N3_2 C9_2 1_555 1_555
C10_2 N3_2 1_555 1_555
N14 C10_2 1_555 1_555
C11_2 N2_2 1_555 1_555
N5_2 C9_2 1_555 1_555
H4_2 N5_2 1_555 1_555
H5_2 N5_2 1_555 1_555
N7_2 C11_2 1_555 1_555
H8_2 N7_2 1_555 1_555
H9_2 N7_2 1_555 1_555
N8_2 Ag3 1_555 1_555
C12_2 N8_2 1_555 1_555
N9_2 C12_2 1_555 1_555
C13 N9_2 1_555 1_555
N10_2 C13 1_555 1_555
C14_2 N8_2 1_555 1_555
N11_2 C14_2 1_555 1_555
H10_2 N11_2 1_555 1_555
H11_2 N11_2 1_555 1_555
N12_2 C12_2 1_555 1_555
H12_2 N12_2 1_555 1_555
H13_2 N12_2 1_555 1_555
N13 C13 1_555 1_555
H14 N13 1_555 1_555
H15 N13 1_555 1_555
Ag5_2 N10_2 1_555 1_555
C6_2 C7_2 1_555 1_555
N14 C11_2 1_555 1_555
N10_2 C14_2 1_555 1_555
H6_2 N6_2 1_555 1_555
H7_2 N6_2 1_555 1_555
Ag1_2 O1_3 1_555 1_555
Ag5_2 O3_2 1_555 1_555
O1_3 C1_3 1_555 1_555
O2_3 C1_3 1_555 1_555
C1_3 C2_3 1_555 1_555
C2_3 C3_3 1_555 1_555
C3_3 H1_3 1_555 1_555
C4_3 C3_3 1_555 1_555
C5_3 C4_3 1_555 1_555
C6_3 C5_3 1_555 1_555
H2_3 C6_3 1_555 1_555
C7_3 C2_3 1_555 1_555
H3_3 C7_3 1_555 1_555
C8_3 C5_3 1_555 1_555
O3_2 C8_3 1_555 1_555
O4_3 C8_3 1_555 1_555
N1_3 C4_3 1_555 1_555
O5_3 N1_3 1_555 1_555
O6_3 N1_3 1_555 1_555
H4_3 N5_3 1_555 1_555
H5_3 N5_3 1_555 1_555
N8_3 Ag1_2 1_555 1_555
C14_3 N8_3 1_555 1_555
N11_3 C14_3 1_555 1_555
H10_3 N11_3 1_555 1_555
H11_3 N11_3 1_555 1_555
Ag3_2 O3_2 1_555 1_555
N14_2 Ag5_2 1_555 1_555
C6_3 C7_3 1_555 1_555
C9_3 N2_3 1_555 1_555
N3_3 C9_3 1_555 1_555
C10_3 N3_3 1_555 1_555
N14_2 C10_3 1_555 1_555
C11_3 N2_3 1_555 1_555
N6_3 C10_3 1_555 1_555
H6_3 N6_3 1_555 1_555
H7_3 N6_3 1_555 1_555
N7_3 C11_3 1_555 1_555
H8_3 N7_3 1_555 1_555
H9_3 N7_3 1_555 1_555
N9_3 C12_3 1_555 1_555
N12_3 C12_3 1_555 1_555
H12_3 N12_3 1_555 1_555
H13_3 N12_3 1_555 1_555
N14_2 C11_3 1_555 1_555
H6_4 N6_4 1_555 1_555
H7_4 N6_4 1_555 1_555
Ag3_2 O1_4 1_555 1_555
O1_4 C1_4 1_555 1_555
O2_4 C1_4 1_555 1_555
C1_4 C2_4 1_555 1_555
C2_4 C3_4 1_555 1_555
C3_4 H1_4 1_555 1_555
C4_4 C3_4 1_555 1_555
C5_4 C4_4 1_555 1_555
C6_4 C5_4 1_555 1_555
H2_4 C6_4 1_555 1_555
C7_4 C2_4 1_555 1_555
H3_4 C7_4 1_555 1_555
N2_4 Ag3_2 1_555 1_555
C9_4 N2_4 1_555 1_555
N3_4 C9_4 1_555 1_555
C10_4 N3_4 1_555 1_555
N4_2 C10_4 1_555 1_555
C11_4 N2_4 1_555 1_555
N5_4 C9_4 1_555 1_555
H4_4 N5_4 1_555 1_555
H5_4 N5_4 1_555 1_555
N7_4 C11_4 1_555 1_555
H8_4 N7_4 1_555 1_555
H9_4 N7_4 1_555 1_555
N8_4 Ag3_2 1_555 1_555
C12_4 N8_4 1_555 1_555
N9_4 C12_4 1_555 1_555
C13_2 N9_4 1_555 1_555
N15 C13_2 1_555 1_555
C14_4 N8_4 1_555 1_555
N11_4 C14_4 1_555 1_555
H10_4 N11_4 1_555 1_555
H11_4 N11_4 1_555 1_555
N12_4 C12_4 1_555 1_555
H12_4 N12_4 1_555 1_555
H13_4 N12_4 1_555 1_555
N13_2 C13_2 1_555 1_555
H14_2 N13_2 1_555 1_555
H15_2 N13_2 1_555 1_555
Ag5 N4_2 1_555 1_555
C6_4 C7_4 1_555 1_555
N4_2 C11_4 1_555 1_555
N15 C14_4 1_555 1_555
Ag5 O7_2 1_555 1_555
O7_2 C8_4 1_555 1_555
O4_4 C8_4 1_555 1_555
O5_4 N1_4 1_555 1_555
O6_4 N1_4 1_555 1_555
N13_3 C13_3 1_555 1_555
H14_3 N13_3 1_555 1_555
H15_3 N13_3 1_555 1_555
N13_4 C13_4 1_555 1_555
H14_4 N13_4 1_555 1_555
H15_4 N13_4 1_555 1_555

#END
