
###############################################################################
#
# This file contains modified crystal structure data generated from the
# MOF subset of the Cambridge Structural Database (CSD) v543 
# hosted by the Cambridge Crystallographic Data Centre (CCDC).
#
# This work is licensed under the Creative Commons
# Attribution-NonCommercial-ShareAlike 4.0 International License.
# To view a copy of this license, visit
# http://creativecommons.org/licenses/by-nc-sa/4.0/
# or send a letter to
# Creative Commons, PO Box 1866, Mountain View, CA 94042, USA.
#
# CIF created using the CSD Python API on 29 September 2022
# The structure has been converted into the P1 space group
# The structure has a 3D framework
# The original CSD entry PARHAS is in the monoclinic crystal system
# The framework has been calculated to contain at least 10.0% void space
# The void calculation uses a probe of radius 1.32A, grid spacing 0.4
#
###############################################################################

data_PARHAS
_chemical_formula_moiety         '(C24 H48 Ca4 O23)n'
_symmetry_cell_setting           triclinic
_symmetry_space_group_name_H-M   'P 1'
_symmetry_Int_Tables_number      1
_space_group_name_Hall           'P 1'
loop_
_symmetry_equiv_pos_site_id
_symmetry_equiv_pos_as_xyz
1 x,y,z
_cell_length_a                   14.855(2)
_cell_length_b                   15.339(3)
_cell_length_c                   7.7790(12)
_cell_angle_alpha                90
_cell_angle_beta                 98.631(6)
_cell_angle_gamma                90
_cell_volume                     1752.46
loop_
_atom_site_label
_atom_site_type_symbol
_atom_site_fract_x
_atom_site_fract_y
_atom_site_fract_z
H3 H 0.0878 0.0175 0.4613
H4 H 0.0404 0.0728 0.5911
C9 C 0.04619(16) 0.01448(17) 0.5460(3)
Ca5 Ca 0.22053(3) 0.78071(3) 0.04889(6)
O5 O 0.32904(17) 0.61718(14) 0.4553(3)
O6 O 0.11072(16) 0.61786(14) 0.6376(3)
H9 H 0.390(2) 0.619(2) 0.504(4)
H10 H 0.331(2) 0.622(2) 0.365(4)
H11 H 0.1082(19) 0.624(2) 0.730(3)
H12 H 0.053(2) 0.614(2) 0.585(4)
Ca4 Ca 0.22053(3) 0.71929(3) 0.54889(6)
O8 O 0.15002(11) 0.81530(11) 0.7664(2)
O9 O 0.15002(11) 0.68470(11) 0.2664(2)
O10 O 0.11907(11) 0.84772(11) 0.4893(2)
O11 O 0.33040(11) 0.84180(11) 0.6091(2)
O13 O 0.29559(11) 0.82138(11) 0.3274(2)
O14 O 0.29559(11) 0.67862(11) 0.8274(2)
C7 C 0.12021(16) 0.86813(17) 0.6466(3)
C8 C 0.08792(18) 0.95540(17) 0.6957(3)
H13 H 0.0429 0.9467 0.7725
H14 H 0.1390 0.9859 0.7617
Ca1 Ca 0.77947(3) 0.28071(3) 0.45111(6)
O1 O 0.84998(11) 0.18470(11) 0.2336(2)
O2 O 0.88093(11) 0.15228(11) 0.5107(2)
O3 O 0.66960(11) 0.15820(11) 0.3909(2)
O4 O 0.70441(11) 0.17862(11) 0.6726(2)
C1 C 0.87979(16) 0.13187(17) 0.3534(3)
C2 C 0.91208(18) 0.04460(17) 0.3043(3)
H1 H 0.9571 0.0533 0.2275
H2 H 0.8610 0.0141 0.2383
C4 C 0.66844(16) 0.13372(17) 0.5459(3)
C5 C 0.62179(17) 0.04870(16) 0.5759(3)
H5 H 0.6211 0.0417 0.6996
H6 H 0.6571 0.0011 0.5383
C6 C 0.52368(16) 0.04220(16) 0.4804(3)
H7 H 0.4889 0.0913 0.5136
H8 H 0.5245 0.0460 0.3562
Ca2 Ca 0.77947(3) 0.21929(3) 0.95111(6)
O7 O 0.84998(11) 0.31530(11) 0.7336(2)
O15 O 0.70441(11) 0.32138(11) 0.1726(2)
O17 O 0.67096(17) 0.38282(14) 0.5447(3)
O18 O 0.88928(16) 0.38214(14) 0.3624(3)
H21 H 0.610(2) 0.381(2) 0.496(4)
H22 H 0.669(2) 0.378(2) 0.635(4)
H23 H 0.8918(19) 0.376(2) 0.270(3)
H24 H 0.947(2) 0.386(2) 0.415(4)
C3 C 0.95381(16) 0.98552(17) 0.4540(3)
H15 H 0.9122 0.9825 0.5387
H16 H 0.9596 0.9272 0.4089
C10 C 0.33156(16) 0.86628(17) 0.4541(3)
C11 C 0.37821(17) 0.95130(16) 0.4241(3)
H17 H 0.3789 0.9583 0.3004
H18 H 0.3429 0.9989 0.4617
C12 C 0.47632(16) 0.95780(16) 0.5196(3)
H19 H 0.5111 0.9087 0.4864
H20 H 0.4755 0.9540 0.6438
O3_2 O 0.33040(11) 0.65820(11) 0.1091(2)
C1_2 C 0.12021(16) 0.63187(17) 0.1466(3)
C2_2 C 0.08792(18) 0.54460(17) 0.1957(3)
H1_2 H 0.0429 0.5533 0.2725
H2_2 H 0.1390 0.5141 0.2617
C3_2 C 0.04619(16) 0.48552(17) 0.0460(3)
C6_2 C 0.47632(16) 0.54220(16) 0.0196(3)
H8_2 H 0.4755 0.5460 0.1438
O18_2 O 0.11072(16) 0.88214(14) 0.1376(3)
H16_2 H 0.0404 0.4272 0.0911
C10_2 C 0.66844(16) 0.36628(17) 0.0459(3)
C11_2 C 0.62179(17) 0.45130(16) 0.0759(3)
H17_2 H 0.6211 0.4583 0.1996
H18_2 H 0.6571 0.4989 0.0383
H19_2 H 0.4889 0.4087 0.0136
H21_2 H 0.390(2) 0.881(2) 0.004(4)
H23_2 H 0.1082(19) 0.876(2) 0.230(3)
H24_2 H 0.053(2) 0.886(2) 0.085(4)
O2_2 O 0.11907(11) 0.65228(11) 0.9893(2)
C4_2 C 0.33156(16) 0.63372(17) 0.9541(3)
C5_2 C 0.37821(17) 0.54870(16) 0.9241(3)
H5_2 H 0.3789 0.5417 0.8004
H6_2 H 0.3429 0.5011 0.9617
H7_2 H 0.5111 0.5913 0.9864
O12 O 0.66960(11) 0.34180(11) 0.8909(2)
O17_2 O 0.32904(17) 0.88282(14) 0.9553(3)
H15_2 H 0.0878 0.4825 0.9613
C12_2 C 0.52368(16) 0.45780(16) 0.9804(3)
H20_2 H 0.5245 0.4540 0.8562
H22_2 H 0.331(2) 0.878(2) 0.865(4)
O5_2 O 0.67096(17) 0.11718(14) 0.0447(3)
H3_2 H 0.9122 0.5175 0.0387
H10_2 H 0.669(2) 0.122(2) 0.135(4)
O10_2 O 0.88093(11) 0.34772(11) 0.0107(2)
O6_2 O 0.88928(16) 0.11786(14) 0.8624(3)
H4_2 H 0.9596 0.5728 0.9089
H9_2 H 0.610(2) 0.119(2) 0.996(4)
H11_2 H 0.8918(19) 0.124(2) 0.770(3)
H12_2 H 0.947(2) 0.114(2) 0.915(4)
C7_2 C 0.87979(16) 0.36813(17) 0.8534(3)
C8_2 C 0.91208(18) 0.45540(17) 0.8043(3)
H13_2 H 0.9571 0.4467 0.7275
H14_2 H 0.8610 0.4859 0.7383
C9_2 C 0.95381(16) 0.51448(17) 0.9540(3)
loop_
_geom_bond_atom_site_label_1
_geom_bond_atom_site_label_2
_geom_bond_site_symmetry_1
_geom_bond_site_symmetry_2
H3 C9 1_555 1_555
H4 C9 1_555 1_555
O5 H9 1_555 1_555
O6 H11 1_555 1_555
H10 O5 1_555 1_555
H12 O6 1_555 1_555
Ca4 O5 1_555 1_555
O8 Ca4 1_555 1_555
O9 Ca4 1_555 1_555
O10 Ca4 1_555 1_555
O11 Ca4 1_555 1_555
O13 Ca4 1_555 1_555
O14 Ca4 1_555 1_555
C7 O8 1_555 1_555
C8 C7 1_555 1_555
H13 C8 1_555 1_555
H14 C8 1_555 1_555
O6 Ca4 1_555 1_555
O10 C7 1_555 1_555
Ca1 O1 1_555 1_555
O1 C1 1_555 1_555
O2 Ca1 1_555 1_555
O3 Ca1 1_555 1_555
O4 Ca1 1_555 1_555
C1 O2 1_555 1_555
C2 C1 1_555 1_555
H1 C2 1_555 1_555
H2 C2 1_555 1_555
C4 O3 1_555 1_555
C5 C4 1_555 1_555
H5 C5 1_555 1_555
H6 C5 1_555 1_555
C6 C5 1_555 1_555
H7 C6 1_555 1_555
H8 C6 1_555 1_555
Ca2 O4 1_555 1_555
O7 Ca1 1_555 1_555
O15 Ca1 1_555 1_555
O17 Ca1 1_555 1_555
O18 Ca1 1_555 1_555
H21 O17 1_555 1_555
H22 O17 1_555 1_555
H23 O18 1_555 1_555
H24 O18 1_555 1_555
O4 C4 1_555 1_555
Ca2 O7 1_555 1_555
Ca5 O13 1_555 1_555
O11 C10 1_555 1_555
H15 C3 1_555 1_555
H16 C3 1_555 1_555
C10 O13 1_555 1_555
C11 C10 1_555 1_555
H17 C11 1_555 1_555
H18 C11 1_555 1_555
H19 C12 1_555 1_555
H20 C12 1_555 1_555
C11 C12 1_555 1_555
Ca5 O9 1_555 1_555
O9 C1_2 1_555 1_555
O3_2 Ca5 1_555 1_555
C2_2 C1_2 1_555 1_555
H1_2 C2_2 1_555 1_555
H2_2 C2_2 1_555 1_555
C3_2 C2_2 1_555 1_555
H8_2 C6_2 1_555 1_555
O18_2 Ca5 1_555 1_555
H16_2 C3_2 1_555 1_555
C10_2 O15 1_555 1_555
C11_2 C10_2 1_555 1_555
H17_2 C11_2 1_555 1_555
H18_2 C11_2 1_555 1_555
H23_2 O18_2 1_555 1_555
H24_2 O18_2 1_555 1_555
C5_2 C4_2 1_555 1_555
H5_2 C5_2 1_555 1_555
H6_2 C5_2 1_555 1_555
Ca2 O12 1_555 1_555
H20_2 C12_2 1_555 1_555
H22_2 O17_2 1_555 1_555
O14 C4_2 1_555 1_555
H10_2 O5_2 1_555 1_555
O6_2 H11_2 1_555 1_555
H4_2 C9_2 1_555 1_555
H12_2 O6_2 1_555 1_555
C7_2 O7 1_555 1_555
C8_2 C7_2 1_555 1_555
H13_2 C8_2 1_555 1_555
H14_2 C8_2 1_555 1_555
O6_2 Ca2 1_555 1_555
C8_2 C9_2 1_555 1_555

#END
