
###############################################################################
#
# This file contains modified crystal structure data generated from the
# MOF subset of the Cambridge Structural Database (CSD) v543 
# hosted by the Cambridge Crystallographic Data Centre (CCDC).
#
# This work is licensed under the Creative Commons
# Attribution-NonCommercial-ShareAlike 4.0 International License.
# To view a copy of this license, visit
# http://creativecommons.org/licenses/by-nc-sa/4.0/
# or send a letter to
# Creative Commons, PO Box 1866, Mountain View, CA 94042, USA.
#
# CIF created using the CSD Python API on 29 September 2022
# The structure has been converted into the P1 space group
# The structure has a 3D framework
# The original CSD entry PASFEW is in the monoclinic crystal system
# The framework has been calculated to contain at least 10.0% void space
# The void calculation uses a probe of radius 1.32A, grid spacing 0.4
#
###############################################################################

data_PASFEW
_chemical_formula_moiety         '(C48 H16 Cu18 N16 O28)n'
_symmetry_cell_setting           triclinic
_symmetry_space_group_name_H-M   'P 1'
_symmetry_Int_Tables_number      1
_space_group_name_Hall           'P 1'
loop_
_symmetry_equiv_pos_site_id
_symmetry_equiv_pos_as_xyz
1 x,y,z
_cell_length_a                   19.3848(4)
_cell_length_b                   12.5209(2)
_cell_length_c                   7.7134(2)
_cell_angle_alpha                90
_cell_angle_beta                 107.8220(10)
_cell_angle_gamma                90
_cell_volume                     1782.32
loop_
_atom_site_label
_atom_site_type_symbol
_atom_site_fract_x
_atom_site_fract_y
_atom_site_fract_z
Cu1 Cu 0.20681(4) 0.68003(5) 0.28648(11)
O1 O 0.1100(2) 0.6160(3) 0.0788(6)
O4 O 0.0915(3) 0.2403(4) 0.1427(8)
N1 N 0.2304(2) 0.5282(3) 0.3105(6)
N2 N 0.2576(2) 0.3116(4) 0.3004(6)
C1 C 0.2909(3) 0.4844(4) 0.4261(8)
H1 H 0.3237 0.5267 0.5117
C2 C 0.3038(3) 0.3751(5) 0.4159(9)
H2 H 0.3463 0.3462 0.4931
C3 C 0.1943(3) 0.3518(4) 0.1941(7)
C4 C 0.1819(2) 0.4630(4) 0.1986(7)
C5 C 0.1155(3) 0.5158(4) 0.0681(7)
C6 C 0.1410(3) 0.2721(4) 0.0820(7)
Cu6 Cu 0.29319(4) 0.18003(5) 0.21352(11)
Cu9 Cu -0.0000 0.36697(14) 0.2500
O8 O 0.1507(2) 0.7594(3) 0.4374(6)
N5 N 0.2424(2) 0.8116(4) 0.1996(6)
Cu2 Cu -0.0000 0.63303(14) 0.7500
Cu3 Cu -0.0000 0.30041(15) 0.7500
O2 O 0.0709(3) 0.4567(3) 0.9603(7)
O3 O 0.1507(2) 0.2406(3) 0.9374(6)
Cu5 Cu 0.20681(4) 0.31997(5) 0.78648(11)
O12 O 0.0915(3) 0.7597(4) 0.6427(8)
Cu9_2 Cu 1.0000 0.36697(14) 0.2500
Cu2_2 Cu 1.0000 0.63303(14) 0.7500
Cu3_2 Cu 1.0000 0.30041(15) 0.7500
Cu4 Cu 0.79319(4) 0.68003(5) 0.21352(11)
Cu7 Cu 0.79319(4) 0.31997(5) 0.71352(11)
Cu8 Cu 0.70681(4) 0.18003(5) 0.28648(11)
O5 O 0.8900(2) 0.6160(3) 0.4212(6)
O6 O 0.9291(3) 0.4567(3) 0.5397(7)
O7 O 0.8493(2) 0.2406(3) 0.5626(6)
O9 O 0.8493(2) 0.7594(3) 0.0626(6)
O10 O 0.9085(3) 0.2403(4) 0.3573(8)
O11 O 0.9085(3) 0.7597(4) 0.8573(8)
N3 N 0.7696(2) 0.5282(3) 0.1895(6)
N4 N 0.7424(2) 0.3116(4) 0.1996(6)
N6 N 0.7576(2) 0.8116(4) 0.3004(6)
C7 C 0.7091(3) 0.4844(4) 0.0739(8)
C8 C 0.6962(3) 0.3751(5) 0.0841(9)
H4 H 0.6537 0.3462 0.0069
C9 C 0.8057(3) 0.3518(4) 0.3059(7)
C10 C 0.8181(2) 0.4630(4) 0.3014(7)
C11 C 0.8845(3) 0.5158(4) 0.4319(7)
C12 C 0.8590(3) 0.2721(4) 0.4180(7)
O1_2 O 0.6100(2) 0.1160(3) 0.0788(6)
N1_2 N 0.7304(2) 0.0282(3) 0.3105(6)
H1_2 H 0.8237 0.0267 0.5117
C5_2 C 0.6155(3) 0.0158(4) 0.0681(7)
O8_2 O 0.6507(2) 0.2594(3) 0.4374(6)
Cu2_3 Cu 0.5000 0.13303(14) 0.7500
O5_2 O 0.3900(2) 0.1160(3) 0.4212(6)
O9_2 O 0.3493(2) 0.2594(3) 0.0626(6)
O11_2 O 0.4085(3) 0.2597(4) 0.8573(8)
O12_2 O 0.5915(3) 0.2597(4) 0.6427(8)
N3_2 N 0.2696(2) 0.0282(3) 0.1895(6)
C11_2 C 0.3845(3) 0.0158(4) 0.4319(7)
O4_2 O 0.5915(3) 0.7403(4) 0.1427(8)
C1_2 C 0.7909(3) 0.9844(4) 0.4261(8)
C2_2 C 0.8038(3) 0.8751(5) 0.4159(9)
H2_2 H 0.8463 0.8462 0.4931
C3_2 C 0.6943(3) 0.8518(4) 0.1941(7)
C4_2 C 0.6819(2) 0.9630(4) 0.1986(7)
C6_2 C 0.6410(3) 0.7721(4) 0.0820(7)
Cu9_3 Cu 0.5000 0.86697(14) 0.2500
Cu3_3 Cu 0.5000 0.80041(15) 0.7500
O2_2 O 0.5709(3) 0.9567(3) 0.9603(7)
O3_2 O 0.6507(2) 0.7406(3) 0.9374(6)
Cu5_2 Cu 0.70681(4) 0.81997(5) 0.78648(11)
Cu7_2 Cu 0.29319(4) 0.81997(5) 0.71352(11)
O6_2 O 0.4291(3) 0.9567(3) 0.5397(7)
O7_2 O 0.3493(2) 0.7406(3) 0.5626(6)
O10_2 O 0.4085(3) 0.7403(4) 0.3573(8)
C7_2 C 0.2091(3) 0.9844(4) 0.0739(8)
C8_2 C 0.1962(3) 0.8751(5) 0.0841(9)
H4_2 H 0.1537 0.8462 0.0069
C9_2 C 0.3057(3) 0.8518(4) 0.3059(7)
C10_2 C 0.3181(2) 0.9630(4) 0.3014(7)
C12_2 C 0.3590(3) 0.7721(4) 0.4180(7)
Cu3_4 Cu -0.0000 0.69959(15) 0.2500
O5_3 O 0.1100(2) 0.3840(3) 0.5788(6)
O6_3 O 0.0709(3) 0.5433(3) 0.4603(7)
N3_3 N 0.2304(2) 0.4718(3) 0.8105(6)
N4_2 N 0.2576(2) 0.6884(4) 0.8004(6)
N6_2 N 0.2424(2) 0.1884(4) 0.6996(6)
C7_3 C 0.2909(3) 0.5156(4) 0.9261(8)
C8_3 C 0.3038(3) 0.6249(5) 0.9159(9)
H4_3 H 0.3463 0.6538 0.9931
C9_3 C 0.1943(3) 0.6482(4) 0.6941(7)
C10_3 C 0.1819(2) 0.5370(4) 0.6986(7)
C11_3 C 0.1155(3) 0.4842(4) 0.5681(7)
C12_3 C 0.1410(3) 0.7279(4) 0.5820(7)
Cu3_5 Cu 1.0000 0.69959(15) 0.2500
O2_3 O 0.9291(3) 0.5433(3) 0.0397(7)
O1_3 O 0.8900(2) 0.3840(3) 0.9212(6)
N1_3 N 0.7696(2) 0.4718(3) 0.6895(6)
N2_2 N 0.7424(2) 0.6884(4) 0.6996(6)
C1_3 C 0.7091(3) 0.5156(4) 0.5739(8)
H1_3 H 0.6763 0.4733 0.4883
C2_3 C 0.6962(3) 0.6249(5) 0.5841(9)
H2_3 H 0.6537 0.6538 0.5069
C3_3 C 0.8057(3) 0.6482(4) 0.8059(7)
C4_3 C 0.8181(2) 0.5370(4) 0.8014(7)
C5_3 C 0.8845(3) 0.4842(4) 0.9319(7)
C6_3 C 0.8590(3) 0.7279(4) 0.9180(7)
N5_2 N 0.7576(2) 0.1884(4) 0.8004(6)
Cu3_6 Cu 0.5000 0.19959(15) 0.2500
O2_4 O 0.4291(3) 0.0433(3) 0.0397(7)
O6_4 O 0.5709(3) 0.0433(3) 0.4603(7)
C7_4 C 0.7909(3) 0.0156(4) 0.9261(8)
C8_4 C 0.8038(3) 0.1249(5) 0.9159(9)
H4_4 H 0.8463 0.1538 0.9931
C9_4 C 0.6943(3) 0.1482(4) 0.6941(7)
C10_4 C 0.6819(2) 0.0370(4) 0.6986(7)
C12_4 C 0.6410(3) 0.2279(4) 0.5820(7)
C1_4 C 0.2091(3) 0.0156(4) 0.5739(8)
C2_4 C 0.1962(3) 0.1249(5) 0.5841(9)
H2_4 H 0.1537 0.1538 0.5069
C3_4 C 0.3057(3) 0.1482(4) 0.8059(7)
C4_4 C 0.3181(2) 0.0370(4) 0.8014(7)
C6_4 C 0.3590(3) 0.2279(4) 0.9180(7)
O5_4 O 0.6100(2) 0.8840(3) 0.5788(6)
N3_4 N 0.7304(2) 0.9718(3) 0.8105(6)
C11_4 C 0.6155(3) 0.9842(4) 0.5681(7)
O1_4 O 0.3900(2) 0.8840(3) 0.9212(6)
N1_4 N 0.2696(2) 0.9718(3) 0.6895(6)
H1_4 H 0.1763 0.9733 0.4883
C5_4 C 0.3845(3) 0.9842(4) 0.9319(7)
H3 H 0.6763 0.5267 0.9883
H3_2 H 0.1763 0.0267 0.9883
H3_3 H 0.3237 0.4733 0.0117
H3_4 H 0.8237 0.9733 0.0117
loop_
_geom_bond_atom_site_label_1
_geom_bond_atom_site_label_2
_geom_bond_site_symmetry_1
_geom_bond_site_symmetry_2
Cu1 O1 1_555 1_555
O1 C5 1_555 1_555
O4 C6 1_555 1_555
N1 Cu1 1_555 1_555
N2 C2 1_555 1_555
C1 N1 1_555 1_555
H1 C1 1_555 1_555
C2 C1 1_555 1_555
H2 C2 1_555 1_555
C3 N2 1_555 1_555
C4 N1 1_555 1_555
C5 C4 1_555 1_555
C6 C3 1_555 1_555
Cu6 N2 1_555 1_555
Cu9 O4 1_555 1_555
O8 Cu1 1_555 1_555
N5 Cu1 1_555 1_555
C3 C4 1_555 1_555
Cu3 O2 1_555 1_555
Cu5 O3 1_555 1_555
O12 Cu2 1_555 1_555
Cu4 O5 1_555 1_555
Cu7 O7 1_555 1_555
Cu8 N4 1_555 1_555
Cu9_2 O10 1_555 1_555
O5 Cu2_2 1_555 1_555
O6 Cu3_2 1_555 1_555
O7 C12 1_555 1_555
O9 Cu4 1_555 1_555
O10 C12 1_555 1_555
O11 Cu2_2 1_555 1_555
N3 Cu4 1_555 1_555
N4 C8 1_555 1_555
N6 Cu4 1_555 1_555
C7 N3 1_555 1_555
C8 C7 1_555 1_555
H4 C8 1_555 1_555
C9 N4 1_555 1_555
C10 N3 1_555 1_555
C11 O5 1_555 1_555
C12 C9 1_555 1_555
O6 C11 1_555 1_555
C9 C10 1_555 1_555
C10 C11 1_555 1_555
Cu8 O1_2 1_555 1_555
O1_2 C5_2 1_555 1_555
N1_2 Cu8 1_555 1_555
O8_2 Cu8 1_555 1_555
Cu6 O5_2 1_555 1_555
O5_2 Cu2_3 1_555 1_555
O9_2 Cu6 1_555 1_555
O11_2 Cu2_3 1_555 1_555
O12_2 Cu2_3 1_555 1_555
N3_2 Cu6 1_555 1_555
C11_2 O5_2 1_555 1_555
O4_2 C6_2 1_555 1_555
N6 C2_2 1_555 1_555
C2_2 C1_2 1_555 1_555
H2_2 C2_2 1_555 1_555
C3_2 N6 1_555 1_555
C6_2 C3_2 1_555 1_555
Cu9_3 O4_2 1_555 1_555
C3_2 C4_2 1_555 1_555
Cu3_3 O2_2 1_555 1_555
Cu5_2 O3_2 1_555 1_555
Cu7_2 O7_2 1_555 1_555
Cu9_3 O10_2 1_555 1_555
O6_2 Cu3_3 1_555 1_555
O7_2 C12_2 1_555 1_555
O10_2 C12_2 1_555 1_555
N5 C8_2 1_555 1_555
C8_2 C7_2 1_555 1_555
H4_2 C8_2 1_555 1_555
C9_2 N5 1_555 1_555
C12_2 C9_2 1_555 1_555
C9_2 C10_2 1_555 1_555
Cu5 O5_3 1_555 1_555
Cu7_2 N4_2 1_555 1_555
O5_3 Cu9 1_555 1_555
O6_3 Cu3_4 1_555 1_555
O8 C12_3 1_555 1_555
O12 C12_3 1_555 1_555
N3_3 Cu5 1_555 1_555
N4_2 C8_3 1_555 1_555
N6_2 Cu5 1_555 1_555
C7_3 N3_3 1_555 1_555
C8_3 C7_3 1_555 1_555
H4_3 C8_3 1_555 1_555
C9_3 N4_2 1_555 1_555
C10_3 N3_3 1_555 1_555
C11_3 O5_3 1_555 1_555
C12_3 C9_3 1_555 1_555
O6_3 C11_3 1_555 1_555
C9_3 C10_3 1_555 1_555
C10_3 C11_3 1_555 1_555
Cu3_5 O2_3 1_555 1_555
Cu7 O1_3 1_555 1_555
O1_3 C5_3 1_555 1_555
O11 C6_3 1_555 1_555
N1_3 Cu7 1_555 1_555
N2_2 C2_3 1_555 1_555
C1_3 N1_3 1_555 1_555
H1_3 C1_3 1_555 1_555
C2_3 C1_3 1_555 1_555
H2_3 C2_3 1_555 1_555
C3_3 N2_2 1_555 1_555
C4_3 N1_3 1_555 1_555
C5_3 C4_3 1_555 1_555
C6_3 C3_3 1_555 1_555
Cu5_2 N2_2 1_555 1_555
N5_2 Cu7 1_555 1_555
C3_3 C4_3 1_555 1_555
Cu3_6 O2_4 1_555 1_555
O6_4 Cu3_6 1_555 1_555
O8_2 C12_4 1_555 1_555
O12_2 C12_4 1_555 1_555
N5_2 C8_4 1_555 1_555
C8_4 C7_4 1_555 1_555
H4_4 C8_4 1_555 1_555
C9_4 N5_2 1_555 1_555
C12_4 C9_4 1_555 1_555
C9_4 C10_4 1_555 1_555
O11_2 C6_4 1_555 1_555
N6_2 C2_4 1_555 1_555
C2_4 C1_4 1_555 1_555
H2_4 C2_4 1_555 1_555
C3_4 N6_2 1_555 1_555
C6_4 C3_4 1_555 1_555
C3_4 C4_4 1_555 1_555
Cu5_2 O5_4 1_555 1_555
O5_4 Cu9_3 1_555 1_555
N3_4 Cu5_2 1_555 1_555
C11_4 O5_4 1_555 1_555
Cu7_2 O1_4 1_555 1_555
O1_4 C5_4 1_555 1_555
N1_4 Cu7_2 1_555 1_555

#END
