
###############################################################################
#
# This file contains modified crystal structure data generated from the
# MOF subset of the Cambridge Structural Database (CSD) v543 
# hosted by the Cambridge Crystallographic Data Centre (CCDC).
#
# This work is licensed under the Creative Commons
# Attribution-NonCommercial-ShareAlike 4.0 International License.
# To view a copy of this license, visit
# http://creativecommons.org/licenses/by-nc-sa/4.0/
# or send a letter to
# Creative Commons, PO Box 1866, Mountain View, CA 94042, USA.
#
# CIF created using the CSD Python API on 29 September 2022
# The structure has been converted into the P1 space group
# The structure has a 3D framework
# The original CSD entry PASFOH is in the monoclinic crystal system
# The framework has been calculated to contain at least 10.0% void space
# The void calculation uses a probe of radius 1.32A, grid spacing 0.4
#
###############################################################################

data_PASFOH
_chemical_formula_moiety         '(C52 H24 N24 O20 Zn8)n'
_symmetry_cell_setting           triclinic
_symmetry_space_group_name_H-M   'P 1'
_symmetry_Int_Tables_number      1
_space_group_name_Hall           'P 1'
loop_
_symmetry_equiv_pos_site_id
_symmetry_equiv_pos_as_xyz
1 x,y,z
_cell_length_a                   9.4268(14)
_cell_length_b                   19.868(3)
_cell_length_c                   10.1096(14)
_cell_angle_alpha                90
_cell_angle_beta                 97.837(4)
_cell_angle_gamma                90
_cell_volume                     1875.76
loop_
_atom_site_label
_atom_site_type_symbol
_atom_site_fract_x
_atom_site_fract_y
_atom_site_fract_z
C2 C 0.0392(16) 0.4189(8) 0.2424(13)
H2 H 0.1009 0.4141 0.1787
C9 C 0.0881(15) 0.4064(7) 0.3790(14)
H5 H 0.0254 0.3992 0.5593
C11 C 0.2395(15) 0.3834(7) 0.4155(14)
O3 O 0.3164(15) 0.3738(9) 0.3298(14)
O4 O 0.2865(13) 0.3798(6) 0.5407(12)
Zn5 Zn 0.4759(2) 0.33016(11) 0.51284(18)
H4 H 0.6522 0.3068 0.0006
Zn6 Zn 0.4759(2) 0.16984(11) 0.01284(18)
C1 C 0.4999(17) 0.2422(8) 0.7547(15)
H1 H 0.4517 0.2081 0.7041
C3 C 0.8059(15) 0.4386(7) 0.3005(14)
C4 C 0.8473(15) 0.4235(8) 0.4322(13)
C5 C 0.457(2) 0.4448(8) 0.1292(17)
H3 H 0.3808 0.4284 0.0703
C6 C 0.8985(16) 0.4383(8) 0.2048(13)
C7 C 0.6069(19) 0.2957(9) 0.9159(16)
C8 C 0.7504(18) 0.4208(8) 0.5392(15)
C10 C 0.9929(15) 0.4083(7) 0.4700(14)
N1 N 0.4518(13) 0.5032(7) 0.1996(11)
N2 N 0.6549(14) 0.4535(6) 0.2496(13)
N3 N 0.5810(17) 0.4142(7) 0.1527(14)
N4 N 0.5390(15) 0.2393(6) 0.8891(12)
O1 O 0.6202(12) 0.4086(6) 0.5121(11)
O2 O 0.8102(12) 0.4336(7) 0.6572(10)
O6 O 0.8144(14) 0.5193(7) 0.0385(12)
Zn1 Zn 0.7041(2) 0.42538(9) 0.80837(16)
C12 C 0.8457(14) 0.4585(8) 0.0644(14)
C13 C 0.5716(15) 0.5051(7) 0.2744(14)
H6 H 0.5978 0.5381 0.3383
N5 N 0.5385(14) 0.2985(6) 0.7064(11)
N6 N 0.6053(14) 0.3369(6) 0.8083(11)
N7 N 0.5482(13) 0.4968(7) 0.8004(11)
N8 N 0.5390(15) 0.2607(6) 0.3891(12)
O9 O 0.8350(13) 0.4134(7) 0.9739(11)
Zn4 Zn 0.2959(2) 0.57462(9) 0.19163(16)
N1_2 N 0.5482(13) 0.0032(7) 0.3004(11)
O6_2 O 0.1856(14) 0.0193(7) 0.4615(12)
C13_2 C 0.4284(15) 0.0051(7) 0.2256(14)
H6_2 H 0.4022 0.0381 0.1617
Zn4_2 Zn 0.7041(2) 0.07462(9) 0.30837(16)
C3_2 C 0.1941(15) 0.9386(7) 0.1995(14)
C4_2 C 0.1527(15) 0.9235(8) 0.0678(13)
C5_2 C 0.543(2) 0.9448(8) 0.3708(17)
H3_2 H 0.6192 0.9284 0.4297
C6_2 C 0.1015(16) 0.9383(8) 0.2952(13)
C10_2 C 0.0071(15) 0.9083(7) 0.0300(14)
N2_2 N 0.3451(14) 0.9535(6) 0.2504(13)
N3_2 N 0.4190(17) 0.9142(7) 0.3473(14)
O5 O 0.1650(13) 0.9134(7) 0.5261(11)
C12_2 C 0.1543(14) 0.9585(8) 0.4356(14)
N8_2 N 0.4610(15) 0.7607(6) 0.1109(12)
O7 O 0.6836(15) 0.8738(9) 0.1702(14)
Zn3 Zn 0.2959(2) 0.92538(9) 0.69163(16)
C1_2 C 0.5001(17) 0.7422(8) 0.7453(15)
H1_2 H 0.5483 0.7081 0.7959
C7_2 C 0.3931(19) 0.7957(9) 0.5841(16)
H4_2 H 0.3478 0.8068 0.4994
C8_2 C 0.2496(18) 0.9208(8) 0.9608(15)
N4_2 N 0.4610(15) 0.7393(6) 0.6109(12)
O1_2 O 0.3798(12) 0.9086(6) 0.9879(11)
O2_2 O 0.1898(12) 0.9336(7) 0.8428(10)
Zn2 Zn 0.5241(2) 0.83016(11) 0.98716(18)
N5_2 N 0.4615(14) 0.7985(6) 0.7936(11)
N6_2 N 0.3947(14) 0.8369(6) 0.6917(11)
N7_2 N 0.4518(13) 0.9968(7) 0.6996(11)
O8 O 0.7135(13) 0.8798(6) 0.9593(12)
Zn6_2 Zn 0.5241(2) 0.66984(11) 0.48716(18)
C2_2 C 0.9608(16) 0.9189(8) 0.2576(13)
H2_2 H 0.8991 0.9141 0.3213
C9_2 C 0.9119(15) 0.9064(7) 0.1210(14)
C11_2 C 0.7605(15) 0.8834(7) 0.0845(14)
H5_2 H 0.9746 0.8992 0.9407
O5_2 O 0.1650(13) 0.5866(7) 0.0261(11)
C1_3 C 0.5001(17) 0.7578(8) 0.2453(15)
H1_3 H 0.5483 0.7919 0.2959
C3_3 C 0.1941(15) 0.5614(7) 0.6995(14)
C4_3 C 0.1527(15) 0.5765(8) 0.5678(13)
C5_3 C 0.543(2) 0.5552(8) 0.8708(17)
H3_3 H 0.6192 0.5716 0.9297
C6_3 C 0.1015(16) 0.5617(8) 0.7952(13)
C7_3 C 0.3931(19) 0.7043(9) 0.0841(16)
C8_3 C 0.2496(18) 0.5792(8) 0.4608(15)
C10_3 C 0.0071(15) 0.5917(7) 0.5300(14)
N2_3 N 0.3451(14) 0.5465(6) 0.7504(13)
N3_3 N 0.4190(17) 0.5858(7) 0.8473(14)
O1_3 O 0.3798(12) 0.5914(6) 0.4879(11)
O2_3 O 0.1898(12) 0.5664(7) 0.3428(10)
O6_3 O 0.1856(14) 0.4807(7) 0.9615(12)
C12_3 C 0.1543(14) 0.5415(8) 0.9356(14)
C13_3 C 0.4284(15) 0.4949(7) 0.7256(14)
H6_3 H 0.4022 0.4619 0.6617
N5_3 N 0.4615(14) 0.7015(6) 0.2936(11)
N6_3 N 0.3947(14) 0.6631(6) 0.1917(11)
O7_2 O 0.6836(15) 0.6262(9) 0.6702(14)
O8_2 O 0.7135(13) 0.6202(6) 0.4593(12)
H4_3 H 0.3478 0.6932 0.9994
C2_3 C 0.9608(16) 0.5811(8) 0.7576(13)
H2_3 H 0.8991 0.5859 0.8213
C9_3 C 0.9119(15) 0.5936(7) 0.6210(14)
H5_3 H 0.9746 0.6008 0.4407
C11_3 C 0.7605(15) 0.6166(7) 0.5845(14)
H5_4 H 0.0254 0.1008 0.0593
O4_2 O 0.2865(13) 0.1202(6) 0.0407(12)
C2_4 C 0.0392(16) 0.0811(8) 0.7424(13)
H2_4 H 0.1009 0.0859 0.6787
C9_4 C 0.0881(15) 0.0936(7) 0.8790(14)
C11_4 C 0.2395(15) 0.1166(7) 0.9155(14)
O3_2 O 0.3164(15) 0.1262(9) 0.8298(14)
C1_4 C 0.4999(17) 0.2578(8) 0.2547(15)
H1_4 H 0.4517 0.2919 0.2041
C7_4 C 0.6069(19) 0.2043(9) 0.4159(16)
H4_4 H 0.6522 0.1932 0.5006
C8_4 C 0.7504(18) 0.0792(8) 0.0392(15)
O1_4 O 0.6202(12) 0.0914(6) 0.0121(11)
O2_4 O 0.8102(12) 0.0664(7) 0.1572(10)
N5_4 N 0.5385(14) 0.2015(6) 0.2064(11)
N6_4 N 0.6053(14) 0.1631(6) 0.3083(11)
O9_2 O 0.8350(13) 0.0866(7) 0.4739(11)
C3_4 C 0.8059(15) 0.0614(7) 0.8005(14)
C4_4 C 0.8473(15) 0.0765(8) 0.9322(13)
C5_4 C 0.457(2) 0.0552(8) 0.6292(17)
H3_4 H 0.3808 0.0716 0.5703
C6_4 C 0.8985(16) 0.0617(8) 0.7048(13)
C10_4 C 0.9929(15) 0.0917(7) 0.9700(14)
N2_4 N 0.6549(14) 0.0465(6) 0.7496(13)
N3_4 N 0.5810(17) 0.0858(7) 0.6527(14)
C12_4 C 0.8457(14) 0.0415(8) 0.5644(14)
O6_4 O 0.8144(14) 0.9807(7) 0.5385(12)
C13_4 C 0.5716(15) 0.9949(7) 0.7744(14)
H6_4 H 0.5978 0.9619 0.8383
loop_
_geom_bond_atom_site_label_1
_geom_bond_atom_site_label_2
_geom_bond_site_symmetry_1
_geom_bond_site_symmetry_2
C2 H2 1_555 1_555
C9 C2 1_555 1_555
C11 C9 1_555 1_555
O3 C11 1_555 1_555
O4 C11 1_555 1_555
Zn5 O3 1_555 1_555
O4 Zn5 1_555 1_555
C1 H1 1_555 1_555
C3 C4 1_555 1_555
C4 C8 1_555 1_555
C5 H3 1_555 1_555
C8 O1 1_555 1_555
C10 C4 1_555 1_555
N1 C5 1_555 1_555
N2 C3 1_555 1_555
N3 C5 1_555 1_555
N4 C1 1_555 1_555
O1 Zn5 1_555 1_555
O2 C8 1_555 1_555
O6 C12 1_555 1_555
Zn1 O2 1_555 1_555
Zn5 N5 1_555 1_555
C12 C6 1_555 1_555
C13 N1 1_555 1_555
H6 C13 1_555 1_555
N5 C1 1_555 1_555
N6 C7 1_555 1_555
N7 Zn1 1_555 1_555
N8 Zn5 1_555 1_555
O9 Zn1 1_555 1_555
Zn4 N1 1_555 1_555
C3 C6 1_555 1_555
C7 N4 1_555 1_555
N2 N3 1_555 1_555
N2 C13 1_555 1_555
Zn1 N6 1_555 1_555
N5 N6 1_555 1_555
C13_2 N1_2 1_555 1_555
H6_2 C13_2 1_555 1_555
Zn4_2 N1_2 1_555 1_555
C3_2 C4_2 1_555 1_555
C5_2 H3_2 1_555 1_555
C10_2 C4_2 1_555 1_555
N2_2 C3_2 1_555 1_555
N3_2 C5_2 1_555 1_555
O5 C12_2 1_555 1_555
C12_2 C6_2 1_555 1_555
Zn3 O5 1_555 1_555
C3_2 C6_2 1_555 1_555
N2_2 N3_2 1_555 1_555
C1_2 H1_2 1_555 1_555
C7_2 H4_2 1_555 1_555
C8_2 O1_2 1_555 1_555
N4_2 C1_2 1_555 1_555
O1_2 Zn2 1_555 1_555
O2_2 C8_2 1_555 1_555
Zn3 O2_2 1_555 1_555
Zn2 N5_2 1_555 1_555
N5_2 C1_2 1_555 1_555
N6_2 C7_2 1_555 1_555
N7_2 Zn3 1_555 1_555
O8 Zn2 1_555 1_555
Zn6_2 N4_2 1_555 1_555
C7_2 N4_2 1_555 1_555
Zn3 N6_2 1_555 1_555
N5_2 N6_2 1_555 1_555
C2_2 H2_2 1_555 1_555
C9_2 C2_2 1_555 1_555
C11_2 C9_2 1_555 1_555
O7 C11_2 1_555 1_555
Zn4 O5_2 1_555 1_555
C1_3 H1_3 1_555 1_555
C3_3 C4_3 1_555 1_555
C4_3 C8_3 1_555 1_555
C5_3 H3_3 1_555 1_555
C8_3 O1_3 1_555 1_555
C10_3 C4_3 1_555 1_555
N7 C5_3 1_555 1_555
N2_3 C3_3 1_555 1_555
N3_3 C5_3 1_555 1_555
N8_2 C1_3 1_555 1_555
O1_3 Zn6_2 1_555 1_555
O2_3 C8_3 1_555 1_555
O6_3 C12_3 1_555 1_555
Zn4 O2_3 1_555 1_555
Zn6_2 N5_3 1_555 1_555
C12_3 C6_3 1_555 1_555
C13_3 N7 1_555 1_555
H6_3 C13_3 1_555 1_555
N5_3 C1_3 1_555 1_555
N6_3 C7_3 1_555 1_555
O7_2 Zn6_2 1_555 1_555
O8_2 Zn6_2 1_555 1_555
C3_3 C6_3 1_555 1_555
C7_3 N8_2 1_555 1_555
N2_3 N3_3 1_555 1_555
N2_3 C13_3 1_555 1_555
Zn4 N6_3 1_555 1_555
N5_3 N6_3 1_555 1_555
C2_3 H2_3 1_555 1_555
C9_3 C2_3 1_555 1_555
C11_3 C9_3 1_555 1_555
O7_2 C11_3 1_555 1_555
O8_2 C11_3 1_555 1_555
O4_2 Zn6 1_555 1_555
C2_4 H2_4 1_555 1_555
C9_4 C2_4 1_555 1_555
C11_4 C9_4 1_555 1_555
O3_2 C11_4 1_555 1_555
C1_4 H1_4 1_555 1_555
C7_4 H4_4 1_555 1_555
C8_4 O1_4 1_555 1_555
N8 C1_4 1_555 1_555
O1_4 Zn6 1_555 1_555
O2_4 C8_4 1_555 1_555
Zn4_2 O2_4 1_555 1_555
Zn6 N5_4 1_555 1_555
N5_4 C1_4 1_555 1_555
N6_4 C7_4 1_555 1_555
O9_2 Zn4_2 1_555 1_555
C7_4 N8 1_555 1_555
Zn4_2 N6_4 1_555 1_555
N5_4 N6_4 1_555 1_555
C3_4 C4_4 1_555 1_555
C5_4 H3_4 1_555 1_555
C10_4 C4_4 1_555 1_555
N2_4 C3_4 1_555 1_555
N3_4 C5_4 1_555 1_555
O9_2 C12_4 1_555 1_555
C12_4 C6_4 1_555 1_555
C3_4 C6_4 1_555 1_555
N2_4 N3_4 1_555 1_555
C13_4 N7_2 1_555 1_555
H6_4 C13_4 1_555 1_555

#END
