
###############################################################################
#
# This file contains modified crystal structure data generated from the
# MOF subset of the Cambridge Structural Database (CSD) v543 
# hosted by the Cambridge Crystallographic Data Centre (CCDC).
#
# This work is licensed under the Creative Commons
# Attribution-NonCommercial-ShareAlike 4.0 International License.
# To view a copy of this license, visit
# http://creativecommons.org/licenses/by-nc-sa/4.0/
# or send a letter to
# Creative Commons, PO Box 1866, Mountain View, CA 94042, USA.
#
# CIF created using the CSD Python API on 29 September 2022
# The structure has been converted into the P1 space group
# The structure has a 3D framework
# The original CSD entry PASFAS is in the monoclinic crystal system
# The framework has been calculated to contain at least 10.0% void space
# The void calculation uses a probe of radius 1.32A, grid spacing 0.4
#
###############################################################################

data_PASFAS
_chemical_formula_moiety         '(C48 H16 Cu18 N16 O28)n'
_symmetry_cell_setting           triclinic
_symmetry_space_group_name_H-M   'P 1'
_symmetry_Int_Tables_number      1
_space_group_name_Hall           'P 1'
loop_
_symmetry_equiv_pos_site_id
_symmetry_equiv_pos_as_xyz
1 x,y,z
_cell_length_a                   19.3929(10)
_cell_length_b                   12.5914(6)
_cell_length_c                   7.5890(3)
_cell_angle_alpha                90
_cell_angle_beta                 107.013(2)
_cell_angle_gamma                90
_cell_volume                     1772.02
loop_
_atom_site_label
_atom_site_type_symbol
_atom_site_fract_x
_atom_site_fract_y
_atom_site_fract_z
Cu1 Cu 0.20535(4) 0.68377(6) 0.27827(11)
O1 O 0.1092(2) 0.6145(3) 0.0829(6)
O4 O 0.1003(3) 0.2411(4) 0.1762(7)
N1 N 0.2322(2) 0.5342(4) 0.3095(6)
N2 N 0.2617(3) 0.3179(4) 0.3020(6)
C1 C 0.2946(3) 0.4935(5) 0.4161(8)
H1 H 0.3283 0.5376 0.4948
C2 C 0.3089(3) 0.3852(5) 0.4089(8)
H2 H 0.3529 0.3590 0.4814
C3 C 0.1972(3) 0.3581(5) 0.1986(8)
C4 C 0.1831(3) 0.4646(4) 0.1982(7)
C5 C 0.1161(3) 0.5158(5) 0.0742(7)
C6 C 0.1441(3) 0.2746(5) 0.0945(8)
Cu6 Cu 0.29465(4) 0.18377(6) 0.22173(11)
Cu9 Cu 0.0000 0.37086(15) 0.2500
O8 O 0.1500(2) 0.7559(3) 0.4432(6)
N5 N 0.2383(3) 0.8179(4) 0.1980(6)
Cu2 Cu 0.0000 0.62914(15) 0.7500
Cu3 Cu 0.0000 0.30281(14) 0.7500
O2 O 0.0716(2) 0.4540(4) 0.9708(7)
O3 O 0.1500(2) 0.2441(3) 0.9432(6)
Cu5 Cu 0.20535(4) 0.31623(6) 0.77827(11)
O12 O 0.1003(3) 0.7589(4) 0.6762(7)
Cu9_2 Cu 1.0000 0.37086(15) 0.2500
Cu2_2 Cu 1.0000 0.62914(15) 0.7500
Cu3_2 Cu 1.0000 0.30281(14) 0.7500
Cu4 Cu 0.79465(4) 0.68377(6) 0.22173(11)
Cu7 Cu 0.79465(4) 0.31623(6) 0.72173(11)
Cu8 Cu 0.70535(4) 0.18377(6) 0.27827(11)
O5 O 0.8908(2) 0.6145(3) 0.4171(6)
O6 O 0.9284(2) 0.4540(4) 0.5292(7)
O7 O 0.8500(2) 0.2441(3) 0.5568(6)
O9 O 0.8500(2) 0.7559(3) 0.0568(6)
O10 O 0.8997(3) 0.2411(4) 0.3238(7)
O11 O 0.8997(3) 0.7589(4) 0.8238(7)
N3 N 0.7678(2) 0.5342(4) 0.1905(6)
N4 N 0.7383(3) 0.3179(4) 0.1980(6)
N6 N 0.7617(3) 0.8179(4) 0.3020(6)
C7 C 0.7054(3) 0.4935(5) 0.0839(8)
H3 H 0.6717 0.5376 0.0052
C8 C 0.6911(3) 0.3852(5) 0.0911(8)
H4 H 0.6471 0.3590 0.0186
C9 C 0.8028(3) 0.3581(5) 0.3014(8)
C10 C 0.8169(3) 0.4646(4) 0.3018(7)
C11 C 0.8839(3) 0.5158(5) 0.4258(7)
C12 C 0.8559(3) 0.2746(5) 0.4055(8)
O1_2 O 0.6092(2) 0.1145(3) 0.0829(6)
N1_2 N 0.7322(2) 0.0342(4) 0.3095(6)
H1_2 H 0.8283 0.0376 0.4948
C5_2 C 0.6161(3) 0.0158(5) 0.0742(7)
O8_2 O 0.6500(2) 0.2559(3) 0.4432(6)
Cu2_3 Cu 0.5000 0.12914(15) 0.7500
O5_2 O 0.3908(2) 0.1145(3) 0.4171(6)
O9_2 O 0.3500(2) 0.2559(3) 0.0568(6)
O11_2 O 0.3997(3) 0.2589(4) 0.8238(7)
O12_2 O 0.6003(3) 0.2589(4) 0.6762(7)
N3_2 N 0.2678(2) 0.0342(4) 0.1905(6)
H3_2 H 0.1717 0.0376 0.0052
C11_2 C 0.3839(3) 0.0158(5) 0.4258(7)
O4_2 O 0.6003(3) 0.7411(4) 0.1762(7)
C1_2 C 0.7946(3) 0.9935(5) 0.4161(8)
C2_2 C 0.8089(3) 0.8852(5) 0.4089(8)
H2_2 H 0.8529 0.8590 0.4814
C3_2 C 0.6972(3) 0.8581(5) 0.1986(8)
C4_2 C 0.6831(3) 0.9646(4) 0.1982(7)
C6_2 C 0.6441(3) 0.7746(5) 0.0945(8)
Cu9_3 Cu 0.5000 0.87086(15) 0.2500
Cu3_3 Cu 0.5000 0.80281(14) 0.7500
O2_2 O 0.5716(2) 0.9540(4) 0.9708(7)
O3_2 O 0.6500(2) 0.7441(3) 0.9432(6)
Cu5_2 Cu 0.70535(4) 0.81623(6) 0.77827(11)
Cu7_2 Cu 0.29465(4) 0.81623(6) 0.72173(11)
O6_2 O 0.4284(2) 0.9540(4) 0.5292(7)
O7_2 O 0.3500(2) 0.7441(3) 0.5568(6)
O10_2 O 0.3997(3) 0.7411(4) 0.3238(7)
C7_2 C 0.2054(3) 0.9935(5) 0.0839(8)
C8_2 C 0.1911(3) 0.8852(5) 0.0911(8)
H4_2 H 0.1471 0.8590 0.0186
C9_2 C 0.3028(3) 0.8581(5) 0.3014(8)
C10_2 C 0.3169(3) 0.9646(4) 0.3018(7)
C12_2 C 0.3559(3) 0.7746(5) 0.4055(8)
Cu3_4 Cu -0.0000 0.69719(14) 0.2500
O5_3 O 0.1092(2) 0.3855(3) 0.5829(6)
O6_3 O 0.0716(2) 0.5460(4) 0.4708(7)
N3_3 N 0.2322(2) 0.4658(4) 0.8095(6)
N4_2 N 0.2617(3) 0.6821(4) 0.8020(6)
N6_2 N 0.2383(3) 0.1821(4) 0.6980(6)
C7_3 C 0.2946(3) 0.5065(5) 0.9161(8)
H3_3 H 0.3283 0.4624 0.9948
C8_3 C 0.3089(3) 0.6148(5) 0.9089(8)
H4_3 H 0.3529 0.6410 0.9814
C9_3 C 0.1972(3) 0.6419(5) 0.6986(8)
C10_3 C 0.1831(3) 0.5354(4) 0.6982(7)
C11_3 C 0.1161(3) 0.4842(5) 0.5742(7)
C12_3 C 0.1441(3) 0.7254(5) 0.5945(8)
Cu3_5 Cu 1.0000 0.69719(14) 0.2500
O2_3 O 0.9284(2) 0.5460(4) 0.0292(7)
O1_3 O 0.8908(2) 0.3855(3) 0.9171(6)
N1_3 N 0.7678(2) 0.4658(4) 0.6905(6)
N2_2 N 0.7383(3) 0.6821(4) 0.6980(6)
C1_3 C 0.7054(3) 0.5065(5) 0.5839(8)
H1_3 H 0.6717 0.4624 0.5052
C2_3 C 0.6911(3) 0.6148(5) 0.5911(8)
H2_3 H 0.6471 0.6410 0.5186
C3_3 C 0.8028(3) 0.6419(5) 0.8014(8)
C4_3 C 0.8169(3) 0.5354(4) 0.8018(7)
C5_3 C 0.8839(3) 0.4842(5) 0.9258(7)
C6_3 C 0.8559(3) 0.7254(5) 0.9055(8)
N5_2 N 0.7617(3) 0.1821(4) 0.8020(6)
Cu3_6 Cu 0.5000 0.19719(14) 0.2500
O2_4 O 0.4284(2) 0.0460(4) 0.0292(7)
O6_4 O 0.5716(2) 0.0460(4) 0.4708(7)
C7_4 C 0.7946(3) 0.0065(5) 0.9161(8)
C8_4 C 0.8089(3) 0.1148(5) 0.9089(8)
H4_4 H 0.8529 0.1410 0.9814
C9_4 C 0.6972(3) 0.1419(5) 0.6986(8)
C10_4 C 0.6831(3) 0.0354(4) 0.6982(7)
C12_4 C 0.6441(3) 0.2254(5) 0.5945(8)
C1_4 C 0.2054(3) 0.0065(5) 0.5839(8)
C2_4 C 0.1911(3) 0.1148(5) 0.5911(8)
H2_4 H 0.1471 0.1410 0.5186
C3_4 C 0.3028(3) 0.1419(5) 0.8014(8)
C4_4 C 0.3169(3) 0.0354(4) 0.8018(7)
C6_4 C 0.3559(3) 0.2254(5) 0.9055(8)
O5_4 O 0.6092(2) 0.8855(3) 0.5829(6)
N3_4 N 0.7322(2) 0.9658(4) 0.8095(6)
H3_4 H 0.8283 0.9624 0.9948
C11_4 C 0.6161(3) 0.9842(5) 0.5742(7)
O1_4 O 0.3908(2) 0.8855(3) 0.9171(6)
N1_4 N 0.2678(2) 0.9658(4) 0.6905(6)
H1_4 H 0.1717 0.9624 0.5052
C5_4 C 0.3839(3) 0.9842(5) 0.9258(7)
loop_
_geom_bond_atom_site_label_1
_geom_bond_atom_site_label_2
_geom_bond_site_symmetry_1
_geom_bond_site_symmetry_2
Cu1 O1 1_555 1_555
O1 C5 1_555 1_555
O4 C6 1_555 1_555
N1 Cu1 1_555 1_555
N2 C2 1_555 1_555
C1 N1 1_555 1_555
H1 C1 1_555 1_555
C2 C1 1_555 1_555
H2 C2 1_555 1_555
C3 N2 1_555 1_555
C4 N1 1_555 1_555
C5 C4 1_555 1_555
C6 C3 1_555 1_555
Cu6 N2 1_555 1_555
Cu9 O4 1_555 1_555
O8 Cu1 1_555 1_555
N5 Cu1 1_555 1_555
C3 C4 1_555 1_555
Cu3 O2 1_555 1_555
Cu5 O3 1_555 1_555
O12 Cu2 1_555 1_555
Cu4 O5 1_555 1_555
Cu7 O7 1_555 1_555
Cu8 N4 1_555 1_555
Cu9_2 O10 1_555 1_555
O5 Cu2_2 1_555 1_555
O6 Cu3_2 1_555 1_555
O7 C12 1_555 1_555
O9 Cu4 1_555 1_555
O10 C12 1_555 1_555
O11 Cu2_2 1_555 1_555
N3 Cu4 1_555 1_555
N4 C8 1_555 1_555
N6 Cu4 1_555 1_555
C7 N3 1_555 1_555
H3 C7 1_555 1_555
C8 C7 1_555 1_555
H4 C8 1_555 1_555
C9 N4 1_555 1_555
C10 N3 1_555 1_555
C11 O5 1_555 1_555
C12 C9 1_555 1_555
O6 C11 1_555 1_555
C9 C10 1_555 1_555
C10 C11 1_555 1_555
Cu8 O1_2 1_555 1_555
O1_2 C5_2 1_555 1_555
N1_2 Cu8 1_555 1_555
O8_2 Cu8 1_555 1_555
Cu6 O5_2 1_555 1_555
O5_2 Cu2_3 1_555 1_555
O9_2 Cu6 1_555 1_555
O11_2 Cu2_3 1_555 1_555
O12_2 Cu2_3 1_555 1_555
N3_2 Cu6 1_555 1_555
C11_2 O5_2 1_555 1_555
O4_2 C6_2 1_555 1_555
N6 C2_2 1_555 1_555
C2_2 C1_2 1_555 1_555
H2_2 C2_2 1_555 1_555
C3_2 N6 1_555 1_555
C6_2 C3_2 1_555 1_555
Cu9_3 O4_2 1_555 1_555
C3_2 C4_2 1_555 1_555
Cu3_3 O2_2 1_555 1_555
Cu5_2 O3_2 1_555 1_555
Cu7_2 O7_2 1_555 1_555
Cu9_3 O10_2 1_555 1_555
O6_2 Cu3_3 1_555 1_555
O7_2 C12_2 1_555 1_555
O10_2 C12_2 1_555 1_555
N5 C8_2 1_555 1_555
C8_2 C7_2 1_555 1_555
H4_2 C8_2 1_555 1_555
C9_2 N5 1_555 1_555
C12_2 C9_2 1_555 1_555
C9_2 C10_2 1_555 1_555
Cu5 O5_3 1_555 1_555
Cu7_2 N4_2 1_555 1_555
O5_3 Cu9 1_555 1_555
O6_3 Cu3_4 1_555 1_555
O8 C12_3 1_555 1_555
O12 C12_3 1_555 1_555
N3_3 Cu5 1_555 1_555
N4_2 C8_3 1_555 1_555
N6_2 Cu5 1_555 1_555
C7_3 N3_3 1_555 1_555
H3_3 C7_3 1_555 1_555
C8_3 C7_3 1_555 1_555
H4_3 C8_3 1_555 1_555
C9_3 N4_2 1_555 1_555
C10_3 N3_3 1_555 1_555
C11_3 O5_3 1_555 1_555
C12_3 C9_3 1_555 1_555
O6_3 C11_3 1_555 1_555
C9_3 C10_3 1_555 1_555
C10_3 C11_3 1_555 1_555
Cu3_5 O2_3 1_555 1_555
Cu7 O1_3 1_555 1_555
O1_3 C5_3 1_555 1_555
O11 C6_3 1_555 1_555
N1_3 Cu7 1_555 1_555
N2_2 C2_3 1_555 1_555
C1_3 N1_3 1_555 1_555
H1_3 C1_3 1_555 1_555
C2_3 C1_3 1_555 1_555
H2_3 C2_3 1_555 1_555
C3_3 N2_2 1_555 1_555
C4_3 N1_3 1_555 1_555
C5_3 C4_3 1_555 1_555
C6_3 C3_3 1_555 1_555
Cu5_2 N2_2 1_555 1_555
N5_2 Cu7 1_555 1_555
C3_3 C4_3 1_555 1_555
Cu3_6 O2_4 1_555 1_555
O6_4 Cu3_6 1_555 1_555
O8_2 C12_4 1_555 1_555
O12_2 C12_4 1_555 1_555
N5_2 C8_4 1_555 1_555
C8_4 C7_4 1_555 1_555
H4_4 C8_4 1_555 1_555
C9_4 N5_2 1_555 1_555
C12_4 C9_4 1_555 1_555
C9_4 C10_4 1_555 1_555
O11_2 C6_4 1_555 1_555
N6_2 C2_4 1_555 1_555
C2_4 C1_4 1_555 1_555
H2_4 C2_4 1_555 1_555
C3_4 N6_2 1_555 1_555
C6_4 C3_4 1_555 1_555
C3_4 C4_4 1_555 1_555
Cu5_2 O5_4 1_555 1_555
O5_4 Cu9_3 1_555 1_555
N3_4 Cu5_2 1_555 1_555
C11_4 O5_4 1_555 1_555
Cu7_2 O1_4 1_555 1_555
O1_4 C5_4 1_555 1_555
N1_4 Cu7_2 1_555 1_555

#END
