
###############################################################################
#
# This file contains modified crystal structure data generated from the
# MOF subset of the Cambridge Structural Database (CSD) v543 
# hosted by the Cambridge Crystallographic Data Centre (CCDC).
#
# This work is licensed under the Creative Commons
# Attribution-NonCommercial-ShareAlike 4.0 International License.
# To view a copy of this license, visit
# http://creativecommons.org/licenses/by-nc-sa/4.0/
# or send a letter to
# Creative Commons, PO Box 1866, Mountain View, CA 94042, USA.
#
# CIF created using the CSD Python API on 29 September 2022
# The structure has been converted into the P1 space group
# The structure has a 3D framework
# The original CSD entry PASGAU is in the monoclinic crystal system
# The framework has been calculated to contain at least 10.0% void space
# The void calculation uses a probe of radius 1.32A, grid spacing 0.4
#
###############################################################################

data_PASGAU
_chemical_formula_moiety         '(C24 H16 Cu4 N20)n'
_symmetry_cell_setting           triclinic
_symmetry_space_group_name_H-M   'P 1'
_symmetry_Int_Tables_number      1
_space_group_name_Hall           'P 1'
loop_
_symmetry_equiv_pos_site_id
_symmetry_equiv_pos_as_xyz
1 x,y,z
_cell_length_a                   5.7415(4)
_cell_length_b                   16.7408(10)
_cell_length_c                   9.2343(10)
_cell_angle_alpha                90
_cell_angle_beta                 95.568(8)
_cell_angle_gamma                90
_cell_volume                     883.388
loop_
_atom_site_label
_atom_site_type_symbol
_atom_site_fract_x
_atom_site_fract_y
_atom_site_fract_z
C5 C 0.1383(8) 0.7025(3) 0.1719(6)
H3 H 0.1940 0.6511 0.1595
C6 C 0.2412(9) 0.7669(3) 0.1099(6)
H4 H 0.3673 0.7572 0.0564
N5 N 0.1706(7) 0.8418(2) 0.1222(5)
Cu2 Cu 0.25424(9) 0.56592(3) 0.48458(7)
Cu4 Cu 0.25424(9) 0.93408(3) 0.98458(7)
C1 C 0.8306(8) 0.6508(3) 0.3197(5)
C2 C 0.9914(11) 0.8539(3) 0.2017(7)
H1 H 0.9413 0.9061 0.2139
C3 C 0.8771(10) 0.7933(3) 0.2665(6)
H2 H 0.7508 0.8045 0.3191
C4 C 0.9528(8) 0.7155(3) 0.2522(5)
N1 N 0.6073(7) 0.6570(2) 0.3443(5)
N2 N 0.5596(6) 0.5876(2) 0.4051(5)
N3 N 0.7436(6) 0.5419(2) 0.4177(4)
N4 N 0.9219(6) 0.5806(2) 0.3640(4)
Cu3 Cu 0.74576(9) 0.43408(3) 0.51542(7)
N6 N 0.2564(6) 0.4581(2) 0.5823(4)
N8 N 0.1706(7) 0.6582(2) 0.6222(5)
N7 N 0.0781(6) 0.0806(2) 0.1360(4)
Cu1 Cu 0.74576(9) 0.06592(3) 0.01542(7)
C1_2 C 0.1694(8) 0.1508(3) 0.1803(5)
C2_2 C 0.0086(11) 0.3539(3) 0.2983(7)
H1_2 H 0.0587 0.4061 0.2861
C3_2 C 0.1229(10) 0.2933(3) 0.2335(6)
H2_2 H 0.2492 0.3045 0.1809
C4_2 C 0.0472(8) 0.2155(3) 0.2478(5)
N1_2 N 0.3927(7) 0.1570(2) 0.1557(5)
N2_2 N 0.4404(6) 0.0876(2) 0.0949(5)
N3_2 N 0.2564(6) 0.0419(2) 0.0823(4)
N8_2 N 0.8294(7) 0.1582(2) 0.8778(5)
N6_2 N 0.7436(6) 0.9581(2) 0.9177(4)
C5_2 C 0.8617(8) 0.2025(3) 0.3281(6)
H3_2 H 0.8060 0.1511 0.3405
C6_2 C 0.7588(9) 0.2669(3) 0.3901(6)
H4_2 H 0.6327 0.2572 0.4436
N5_2 N 0.8294(7) 0.3418(2) 0.3778(5)
N7_2 N 0.0781(6) 0.4194(2) 0.6360(4)
C1_3 C 0.1694(8) 0.3492(3) 0.6803(5)
C2_3 C 0.0086(11) 0.1461(3) 0.7983(7)
H1_3 H 0.0587 0.0939 0.7861
C3_3 C 0.1229(10) 0.2067(3) 0.7335(6)
H2_3 H 0.2492 0.1955 0.6809
C4_3 C 0.0472(8) 0.2845(3) 0.7478(5)
N1_3 N 0.3927(7) 0.3430(2) 0.6557(5)
N2_3 N 0.4404(6) 0.4124(2) 0.5949(5)
C5_3 C 0.8617(8) 0.2975(3) 0.8281(6)
H3_3 H 0.8060 0.3489 0.8405
C6_3 C 0.7588(9) 0.2331(3) 0.8901(6)
H4_3 H 0.6327 0.2428 0.9436
C5_4 C 0.1383(8) 0.7975(3) 0.6719(6)
H3_4 H 0.1940 0.8489 0.6595
C6_4 C 0.2412(9) 0.7331(3) 0.6099(6)
H4_4 H 0.3673 0.7428 0.5564
C1_4 C 0.8306(8) 0.8492(3) 0.8197(5)
C2_4 C 0.9914(11) 0.6461(3) 0.7017(7)
H1_4 H 0.9413 0.5939 0.7139
C3_4 C 0.8771(10) 0.7067(3) 0.7665(6)
H2_4 H 0.7508 0.6955 0.8191
C4_4 C 0.9528(8) 0.7845(3) 0.7522(5)
N1_4 N 0.6073(7) 0.8430(2) 0.8443(5)
N2_4 N 0.5596(6) 0.9124(2) 0.9051(5)
N4_2 N 0.9219(6) 0.9194(2) 0.8640(4)
loop_
_geom_bond_atom_site_label_1
_geom_bond_atom_site_label_2
_geom_bond_site_symmetry_1
_geom_bond_site_symmetry_2
H3 C5 1_555 1_555
C6 C5 1_555 1_555
H4 C6 1_555 1_555
C6 N5 1_555 1_555
Cu2 N2 1_555 1_555
C1 C4 1_555 1_555
C2 H1 1_555 1_555
C3 C2 1_555 1_555
H2 C3 1_555 1_555
C4 C3 1_555 1_555
N1 C1 1_555 1_555
N2 N1 1_555 1_555
N3 N2 1_555 1_555
N4 C1 1_555 1_555
Cu3 N3 1_555 1_555
N6 Cu2 1_555 1_555
N8 Cu2 1_555 1_555
N3 N4 1_555 1_555
Cu1 N2_2 1_555 1_555
C1_2 C4_2 1_555 1_555
C2_2 H1_2 1_555 1_555
C3_2 C2_2 1_555 1_555
H2_2 C3_2 1_555 1_555
C4_2 C3_2 1_555 1_555
N1_2 C1_2 1_555 1_555
N2_2 N1_2 1_555 1_555
N3_2 N2_2 1_555 1_555
N7 C1_2 1_555 1_555
N3_2 N7 1_555 1_555
H3_2 C5_2 1_555 1_555
C6_2 C5_2 1_555 1_555
H4_2 C6_2 1_555 1_555
Cu3 N5_2 1_555 1_555
C6_2 N5_2 1_555 1_555
Cu3 N2_3 1_555 1_555
C1_3 C4_3 1_555 1_555
C2_3 H1_3 1_555 1_555
C3_3 C2_3 1_555 1_555
H2_3 C3_3 1_555 1_555
C4_3 C3_3 1_555 1_555
N1_3 C1_3 1_555 1_555
N2_3 N1_3 1_555 1_555
N6 N2_3 1_555 1_555
N7_2 C1_3 1_555 1_555
N6 N7_2 1_555 1_555
H3_3 C5_3 1_555 1_555
C6_3 C5_3 1_555 1_555
H4_3 C6_3 1_555 1_555
C6_3 N8_2 1_555 1_555
H3_4 C5_4 1_555 1_555
C6_4 C5_4 1_555 1_555
H4_4 C6_4 1_555 1_555
C6_4 N8 1_555 1_555
Cu4 N2_4 1_555 1_555
C1_4 C4_4 1_555 1_555
C2_4 H1_4 1_555 1_555
C3_4 C2_4 1_555 1_555
H2_4 C3_4 1_555 1_555
C4_4 C3_4 1_555 1_555
N1_4 C1_4 1_555 1_555
N2_4 N1_4 1_555 1_555
N6_2 N2_4 1_555 1_555
N4_2 C1_4 1_555 1_555
N6_2 N4_2 1_555 1_555

#END
