
###############################################################################
#
# This file contains modified crystal structure data generated from the
# MOF subset of the Cambridge Structural Database (CSD) v543 
# hosted by the Cambridge Crystallographic Data Centre (CCDC).
#
# This work is licensed under the Creative Commons
# Attribution-NonCommercial-ShareAlike 4.0 International License.
# To view a copy of this license, visit
# http://creativecommons.org/licenses/by-nc-sa/4.0/
# or send a letter to
# Creative Commons, PO Box 1866, Mountain View, CA 94042, USA.
#
# CIF created using the CSD Python API on 29 September 2022
# The structure has been converted into the P1 space group
# The structure has a 3D framework
# The original CSD entry PASNAA01 is in the monoclinic crystal system
# The framework has been calculated to contain at least 10.0% void space
# The void calculation uses a probe of radius 1.32A, grid spacing 0.4
#
###############################################################################

data_PASNAA01
_chemical_formula_moiety         '(C48 H84 Co12 O78)n'
_symmetry_cell_setting           triclinic
_symmetry_space_group_name_H-M   'P 1'
_symmetry_Int_Tables_number      1
_space_group_name_Hall           'P 1'
loop_
_symmetry_equiv_pos_site_id
_symmetry_equiv_pos_as_xyz
1 x,y,z
_cell_length_a                   11.7749(4)
_cell_length_b                   16.2590(7)
_cell_length_c                   14.2792(5)
_cell_angle_alpha                90
_cell_angle_beta                 116.962(2)
_cell_angle_gamma                90
_cell_volume                     2436.59
loop_
_atom_site_label
_atom_site_type_symbol
_atom_site_fract_x
_atom_site_fract_y
_atom_site_fract_z
H15 H 0.1331 0.0178 0.6690
H16 H 0.0079 0.0104 0.6525
Co1 Co 0.45762(4) 0.45182(3) 0.71993(3)
Co3 Co 0.07517(4) 0.86986(2) 0.62692(3)
O1 O 0.15881(19) 0.52833(13) 0.42592(16)
O2 O 0.29908(19) 0.47834(13) 0.57941(16)
O3 O 0.4892(2) 0.57379(13) 0.74665(17)
O4 O 0.4133(2) 0.68770(14) 0.78389(17)
O5 O 0.14918(19) 0.61727(13) 0.60577(16)
O6 O 0.0765(2) 0.74350(13) 0.60540(17)
O7 O 0.1212(2) 0.88568(13) 0.50377(16)
O8 O 0.0664(2) 0.85264(14) 0.33895(17)
O9 O 0.00904(19) 0.68303(13) 0.38602(16)
O10 O 0.02169(19) 0.63849(13) 0.24467(16)
O11 O 0.2629(2) 0.61433(13) 0.23615(16)
O12 O 0.4372(2) 0.56124(14) 0.36467(17)
O13 O 0.4256(2) 0.32510(15) 0.6981(2)
H1 H 0.4670 0.3060 0.6673
H2 H 0.3465 0.3163 0.6605
O14 O 0.6018(2) 0.43032(16) 0.87208(18)
H3 H 0.6732 0.4278 0.8709
H4 H 0.6030 0.4694 0.9121
O15 O 0.3329(2) 0.44918(15) 0.79285(19)
H5 H 0.2599 0.4319 0.7489
H6 H 0.3636 0.4171 0.8456
O16 O 0.08126(19) 0.44066(13) 0.56421(16)
H7 H 0.0608 0.3966 0.5850
H8 H 0.1596 0.4483 0.5813
O17 O 0.09217(19) 0.50791(13) 0.75401(16)
H9 H 0.0668 0.4600 0.7595
H10 H 0.1719 0.5068 0.7735
O20 O 0.0604(2) 0.99751(13) 0.62921(17)
C1 C 0.2628(3) 0.53337(19) 0.5078(2)
C2 C 0.3534(3) 0.60451(19) 0.5195(2)
H17 H 0.4389 0.5791 0.5405
C3 C 0.3725(3) 0.66971(19) 0.6055(2)
H18 H 0.4423 0.7053 0.6065
C4 C 0.2618(3) 0.73025(19) 0.5779(2)
H19 H 0.2973 0.7760 0.6301
C5 C 0.2262(3) 0.77011(18) 0.4691(2)
H20 H 0.3063 0.7992 0.4805
C6 C 0.2034(3) 0.71050(18) 0.3785(2)
H21 H 0.2055 0.7447 0.3212
C7 C 0.3201(3) 0.65240(19) 0.4165(2)
H22 H 0.3922 0.6924 0.4395
C8 C 0.4254(3) 0.64040(19) 0.7197(2)
C9 C 0.1541(3) 0.69389(19) 0.5954(2)
C10 C 0.1280(3) 0.83913(18) 0.4351(2)
C11 C 0.0698(3) 0.67308(18) 0.3332(2)
C12 C 0.3362(3) 0.60380(19) 0.3319(2)
Co4 Co 0.54238(4) 0.54818(3) 0.28007(3)
Co5 Co 0.00180(4) 0.45411(2) 0.40103(3)
Co6 Co 0.07517(4) 0.63014(2) 0.12692(3)
O22 O 0.02169(19) 0.86151(13) 0.74467(16)
O23 O 0.2629(2) 0.88567(13) 0.73615(16)
O24 O 0.5628(2) 0.43876(14) 0.63533(17)
Co2 Co 0.99820(4) 0.54589(2) 0.59897(3)
O18 O 0.9140(2) 0.65065(13) 0.62981(17)
H11 H 0.9402 0.6514 0.6959
H12 H 0.9531 0.6887 0.6155
O19 O 0.8786(2) 0.86539(14) 0.52316(17)
H13 H 0.8560 0.8156 0.5072
H14 H 0.8371 0.8864 0.5528
O21 O 0.84119(19) 0.47167(13) 0.57408(16)
O25 O 0.91874(19) 0.55934(13) 0.43579(16)
H23 H 0.9392 0.6034 0.4150
H24 H 0.8404 0.5517 0.4187
O25_2 O 0.08126(19) 0.05934(13) 0.06421(16)
H23_2 H 0.0608 0.1034 0.0850
H24_2 H 0.1596 0.0517 0.0813
O21_2 O 0.15881(19) 0.97167(13) 0.92592(16)
O1_2 O 0.84119(19) 0.02833(13) 0.07408(16)
O8_2 O 0.9336(2) 0.35264(14) 0.16105(17)
O9_2 O 0.99096(19) 0.18303(13) 0.11398(16)
O10_2 O 0.97831(19) 0.13849(13) 0.25533(16)
O11_2 O 0.7371(2) 0.11433(13) 0.26385(16)
O12_2 O 0.5628(2) 0.06124(14) 0.13533(17)
C5_2 C 0.7738(3) 0.27011(18) 0.0309(2)
H20_2 H 0.6937 0.2992 0.0195
C6_2 C 0.7966(3) 0.21050(18) 0.1215(2)
H21_2 H 0.7945 0.2447 0.1788
C7_2 C 0.6799(3) 0.15240(19) 0.0835(2)
H22_2 H 0.6078 0.1924 0.0605
C10_2 C 0.8720(3) 0.33913(18) 0.0649(2)
C11_2 C 0.9302(3) 0.17308(18) 0.1668(2)
C12_2 C 0.6638(3) 0.10380(19) 0.1681(2)
Co4_2 Co 0.45762(4) 0.04818(3) 0.21993(3)
Co6_2 Co 0.92483(4) 0.13014(2) 0.37308(3)
Co3_2 Co 0.92483(4) 0.36986(2) 0.87308(3)
O3_2 O 0.5108(2) 0.07379(13) 0.75335(17)
O4_2 O 0.5867(2) 0.18770(14) 0.71611(17)
O5_2 O 0.85082(19) 0.11727(13) 0.89423(16)
O6_2 O 0.9235(2) 0.24350(13) 0.89460(17)
O7_2 O 0.8788(2) 0.38568(13) 0.99623(16)
O17_2 O 0.90783(19) 0.00791(13) 0.74599(16)
H10_2 H 0.8281 0.0068 0.7265
O20_2 O 0.9396(2) 0.49751(13) 0.87079(17)
H15_2 H 0.8669 0.5178 0.8310
H16_2 H 0.9921 0.5104 0.8475
C1_2 C 0.7372(3) 0.03337(19) 0.9922(2)
C2_2 C 0.6466(3) 0.10451(19) 0.9805(2)
H17_2 H 0.5611 0.0791 0.9595
C3_2 C 0.6275(3) 0.16971(19) 0.8945(2)
H18_2 H 0.5577 0.2053 0.8935
C4_2 C 0.7382(3) 0.23025(19) 0.9221(2)
H19_2 H 0.7027 0.2760 0.8699
C8_2 C 0.5746(3) 0.14040(19) 0.7803(2)
C9_2 C 0.8459(3) 0.19389(19) 0.9046(2)
O22_2 O 0.97831(19) 0.36151(13) 0.75533(16)
O23_2 O 0.7371(2) 0.38567(13) 0.76385(16)
Co1_2 Co 0.54238(4) 0.95182(3) 0.78007(3)
O2_2 O 0.70092(19) 0.97834(13) 0.92059(16)
O13_2 O 0.5744(2) 0.82510(15) 0.8019(2)
H1_2 H 0.5330 0.8060 0.8327
H2_2 H 0.6535 0.8163 0.8395
O14_2 O 0.3982(2) 0.93032(16) 0.62792(18)
H3_2 H 0.3268 0.9278 0.6291
H4_2 H 0.3970 0.9694 0.5879
O15_2 O 0.6671(2) 0.94918(15) 0.70715(19)
H5_2 H 0.7401 0.9319 0.7511
H6_2 H 0.6364 0.9171 0.6544
O16_2 O 0.91874(19) 0.94066(13) 0.93579(16)
H7_2 H 0.9392 0.8966 0.9150
H8_2 H 0.8404 0.9483 0.9187
H9_2 H 0.9332 0.9600 0.7405
O24_2 O 0.4372(2) 0.93876(14) 0.86467(17)
O18_2 O 0.0860(2) 0.34935(13) 0.37019(17)
H11_2 H 0.0598 0.3486 0.3041
H12_2 H 0.0469 0.3113 0.3845
O19_2 O 0.1214(2) 0.13461(14) 0.47684(17)
H13_2 H 0.1440 0.1844 0.4928
H14_2 H 0.1629 0.1136 0.4472
O2_3 O 0.70092(19) 0.52166(13) 0.42059(16)
O3_3 O 0.5108(2) 0.42621(13) 0.25335(17)
O4_3 O 0.5867(2) 0.31230(14) 0.21611(17)
O5_3 O 0.85082(19) 0.38273(13) 0.39423(16)
O6_3 O 0.9235(2) 0.25650(13) 0.39460(17)
O7_3 O 0.8788(2) 0.11432(13) 0.49623(16)
O8_3 O 0.9336(2) 0.14736(14) 0.66105(17)
O9_3 O 0.99096(19) 0.31697(13) 0.61398(16)
O13_3 O 0.5744(2) 0.67490(15) 0.3019(2)
H1_3 H 0.5330 0.6940 0.3327
H2_3 H 0.6535 0.6837 0.3395
O14_3 O 0.3982(2) 0.56968(16) 0.12792(18)
H3_3 H 0.3268 0.5722 0.1291
H4_3 H 0.3970 0.5306 0.0879
O15_3 O 0.6671(2) 0.55082(15) 0.20715(19)
H5_3 H 0.7401 0.5681 0.2511
H6_3 H 0.6364 0.5829 0.1544
O17_3 O 0.90783(19) 0.49209(13) 0.24599(16)
H9_3 H 0.9332 0.5400 0.2405
H10_3 H 0.8281 0.4932 0.2265
O20_3 O 0.9396(2) 0.00249(13) 0.37079(17)
C1_3 C 0.7372(3) 0.46663(19) 0.4922(2)
C2_3 C 0.6466(3) 0.39549(19) 0.4805(2)
H17_3 H 0.5611 0.4209 0.4595
C3_3 C 0.6275(3) 0.33029(19) 0.3945(2)
H18_3 H 0.5577 0.2947 0.3935
C4_3 C 0.7382(3) 0.26975(19) 0.4221(2)
H19_3 H 0.7027 0.2240 0.3699
C5_3 C 0.7738(3) 0.22989(18) 0.5309(2)
H20_3 H 0.6937 0.2008 0.5195
C6_3 C 0.7966(3) 0.28950(18) 0.6215(2)
H21_3 H 0.7945 0.2553 0.6788
C7_3 C 0.6799(3) 0.34760(19) 0.5835(2)
H22_3 H 0.6078 0.3076 0.5605
C8_3 C 0.5746(3) 0.35960(19) 0.2803(2)
C9_3 C 0.8459(3) 0.30611(19) 0.4046(2)
C10_3 C 0.8720(3) 0.16087(18) 0.5649(2)
C11_3 C 0.9302(3) 0.32692(18) 0.6668(2)
C12_3 C 0.6638(3) 0.39620(19) 0.6681(2)
O2_4 O 0.29908(19) 0.02166(13) 0.07941(16)
O13_4 O 0.4256(2) 0.17490(15) 0.1981(2)
H1_4 H 0.4670 0.1940 0.1673
H2_4 H 0.3465 0.1837 0.1605
O14_4 O 0.6018(2) 0.06968(16) 0.37208(18)
H3_4 H 0.6732 0.0722 0.3709
H4_4 H 0.6030 0.0306 0.4121
O15_4 O 0.3329(2) 0.05082(15) 0.29285(19)
H5_4 H 0.2599 0.0681 0.2489
H6_4 H 0.3636 0.0829 0.3456
H9_4 H 0.0668 0.0400 0.2595
O3_4 O 0.4892(2) 0.92621(13) 0.24665(17)
O4_4 O 0.4133(2) 0.81230(14) 0.28389(17)
O5_4 O 0.14918(19) 0.88273(13) 0.10577(16)
O6_4 O 0.0765(2) 0.75650(13) 0.10540(17)
O7_4 O 0.1212(2) 0.61432(13) 0.00377(16)
O17_4 O 0.09217(19) 0.99209(13) 0.25401(16)
H10_4 H 0.1719 0.9932 0.2735
O20_4 O 0.0604(2) 0.50249(13) 0.12921(17)
H15_3 H 0.1331 0.4822 0.1690
H16_3 H 0.0079 0.4896 0.1525
C1_4 C 0.2628(3) 0.96663(19) 0.0078(2)
C2_4 C 0.3534(3) 0.89549(19) 0.0195(2)
H17_4 H 0.4389 0.9209 0.0405
C3_4 C 0.3725(3) 0.83029(19) 0.1055(2)
H18_4 H 0.4423 0.7947 0.1065
C4_4 C 0.2618(3) 0.76975(19) 0.0779(2)
H19_4 H 0.2973 0.7240 0.1301
C8_4 C 0.4254(3) 0.85960(19) 0.2197(2)
C9_4 C 0.1541(3) 0.80611(19) 0.0954(2)
O8_4 O 0.0664(2) 0.64736(14) 0.83895(17)
O9_4 O 0.00904(19) 0.81697(13) 0.88602(16)
C5_4 C 0.2262(3) 0.72989(18) 0.9691(2)
H20_4 H 0.3063 0.7008 0.9805
C6_4 C 0.2034(3) 0.78950(18) 0.8785(2)
H21_4 H 0.2055 0.7553 0.8212
C7_4 C 0.3201(3) 0.84760(19) 0.9165(2)
H22_4 H 0.3922 0.8076 0.9395
C10_4 C 0.1280(3) 0.66087(18) 0.9351(2)
C11_4 C 0.0698(3) 0.82692(18) 0.8332(2)
C12_4 C 0.3362(3) 0.89620(19) 0.8319(2)
Co2_2 Co 0.00180(4) 0.04589(2) 0.90103(3)
O18_3 O 0.0860(2) 0.15065(13) 0.87019(17)
H11_3 H 0.0598 0.1514 0.8041
H12_3 H 0.0469 0.1887 0.8845
O19_3 O 0.1214(2) 0.36539(14) 0.97684(17)
H13_3 H 0.1440 0.3156 0.9928
H14_3 H 0.1629 0.3864 0.9472
Co5_2 Co 0.99820(4) 0.95411(2) 0.09897(3)
O18_4 O 0.9140(2) 0.84935(13) 0.12981(17)
H11_4 H 0.9402 0.8486 0.1959
H12_4 H 0.9531 0.8113 0.1155
O19_4 O 0.8786(2) 0.63461(14) 0.02316(17)
H13_4 H 0.8560 0.6844 0.0072
H14_4 H 0.8371 0.6136 0.0528
H15_4 H 0.8669 0.9822 0.3310
H16_4 H 0.9921 0.9896 0.3475
loop_
_geom_bond_atom_site_label_1
_geom_bond_atom_site_label_2
_geom_bond_site_symmetry_1
_geom_bond_site_symmetry_2
Co1 O2 1_555 1_555
Co3 O6 1_555 1_555
O1 C1 1_555 1_555
O2 C1 1_555 1_555
O3 Co1 1_555 1_555
O4 C8 1_555 1_555
O5 C9 1_555 1_555
O6 C9 1_555 1_555
O7 Co3 1_555 1_555
O8 C10 1_555 1_555
O9 C11 1_555 1_555
O10 C11 1_555 1_555
O11 C12 1_555 1_555
O12 C12 1_555 1_555
O13 Co1 1_555 1_555
H1 O13 1_555 1_555
H2 O13 1_555 1_555
O14 Co1 1_555 1_555
H3 O14 1_555 1_555
H4 O14 1_555 1_555
O15 Co1 1_555 1_555
H5 O15 1_555 1_555
H6 O15 1_555 1_555
H7 O16 1_555 1_555
H8 O16 1_555 1_555
H9 O17 1_555 1_555
H10 O17 1_555 1_555
O20 Co3 1_555 1_555
C1 C2 1_555 1_555
C2 H17 1_555 1_555
C3 C2 1_555 1_555
H18 C3 1_555 1_555
C4 C3 1_555 1_555
H19 C4 1_555 1_555
C5 C4 1_555 1_555
H20 C5 1_555 1_555
C6 C5 1_555 1_555
H21 C6 1_555 1_555
C7 C2 1_555 1_555
H22 C7 1_555 1_555
C8 O3 1_555 1_555
C9 C4 1_555 1_555
C10 O7 1_555 1_555
C11 C6 1_555 1_555
C12 C7 1_555 1_555
Co4 O12 1_555 1_555
Co5 O1 1_555 1_555
Co6 O10 1_555 1_555
O22 Co3 1_555 1_555
O23 Co3 1_555 1_555
O24 Co1 1_555 1_555
O11 Co6 1_555 1_555
O16 Co5 1_555 1_555
C3 C8 1_555 1_555
C5 C10 1_555 1_555
C6 C7 1_555 1_555
O18 Co2 1_555 1_555
H11 O18 1_555 1_555
H12 O18 1_555 1_555
H13 O19 1_555 1_555
H14 O19 1_555 1_555
O21 Co2 1_555 1_555
O25 Co2 1_555 1_555
H23 O25 1_555 1_555
H24 O25 1_555 1_555
H23_2 O25_2 1_555 1_555
H24_2 O25_2 1_555 1_555
O8_2 C10_2 1_555 1_555
O9_2 C11_2 1_555 1_555
O10_2 C11_2 1_555 1_555
O11_2 C12_2 1_555 1_555
O12_2 C12_2 1_555 1_555
H20_2 C5_2 1_555 1_555
C6_2 C5_2 1_555 1_555
H21_2 C6_2 1_555 1_555
H22_2 C7_2 1_555 1_555
C11_2 C6_2 1_555 1_555
C12_2 C7_2 1_555 1_555
Co4_2 O12_2 1_555 1_555
Co6_2 O10_2 1_555 1_555
O11_2 Co6_2 1_555 1_555
C5_2 C10_2 1_555 1_555
C6_2 C7_2 1_555 1_555
Co3_2 O6_2 1_555 1_555
O4_2 C8_2 1_555 1_555
O5_2 C9_2 1_555 1_555
O6_2 C9_2 1_555 1_555
O7_2 Co3_2 1_555 1_555
H10_2 O17_2 1_555 1_555
O20_2 Co3_2 1_555 1_555
H15_2 O20_2 1_555 1_555
H16_2 O20_2 1_555 1_555
C1_2 C2_2 1_555 1_555
C2_2 H17_2 1_555 1_555
C3_2 C2_2 1_555 1_555
H18_2 C3_2 1_555 1_555
C4_2 C3_2 1_555 1_555
H19_2 C4_2 1_555 1_555
C8_2 O3_2 1_555 1_555
C9_2 C4_2 1_555 1_555
O22_2 Co3_2 1_555 1_555
O23_2 Co3_2 1_555 1_555
C3_2 C8_2 1_555 1_555
Co1_2 O2_2 1_555 1_555
O13_2 Co1_2 1_555 1_555
H1_2 O13_2 1_555 1_555
H2_2 O13_2 1_555 1_555
O14_2 Co1_2 1_555 1_555
H3_2 O14_2 1_555 1_555
H4_2 O14_2 1_555 1_555
O15_2 Co1_2 1_555 1_555
H5_2 O15_2 1_555 1_555
H6_2 O15_2 1_555 1_555
H7_2 O16_2 1_555 1_555
H8_2 O16_2 1_555 1_555
O24_2 Co1_2 1_555 1_555
O18_2 Co5 1_555 1_555
H11_2 O18_2 1_555 1_555
H12_2 O18_2 1_555 1_555
H13_2 O19_2 1_555 1_555
H14_2 O19_2 1_555 1_555
Co4 O2_3 1_555 1_555
Co6_2 O6_3 1_555 1_555
O21 C1_3 1_555 1_555
O2_3 C1_3 1_555 1_555
O3_3 Co4 1_555 1_555
O4_3 C8_3 1_555 1_555
O5_3 C9_3 1_555 1_555
O6_3 C9_3 1_555 1_555
O7_3 Co6_2 1_555 1_555
O8_3 C10_3 1_555 1_555
O9_3 C11_3 1_555 1_555
O22_2 C11_3 1_555 1_555
O23_2 C12_3 1_555 1_555
O24 C12_3 1_555 1_555
O13_3 Co4 1_555 1_555
H1_3 O13_3 1_555 1_555
H2_3 O13_3 1_555 1_555
O14_3 Co4 1_555 1_555
H3_3 O14_3 1_555 1_555
H4_3 O14_3 1_555 1_555
O15_3 Co4 1_555 1_555
H5_3 O15_3 1_555 1_555
H6_3 O15_3 1_555 1_555
H9_3 O17_3 1_555 1_555
H10_3 O17_3 1_555 1_555
O20_3 Co6_2 1_555 1_555
C1_3 C2_3 1_555 1_555
C2_3 H17_3 1_555 1_555
C3_3 C2_3 1_555 1_555
H18_3 C3_3 1_555 1_555
C4_3 C3_3 1_555 1_555
H19_3 C4_3 1_555 1_555
C5_3 C4_3 1_555 1_555
H20_3 C5_3 1_555 1_555
C6_3 C5_3 1_555 1_555
H21_3 C6_3 1_555 1_555
C7_3 C2_3 1_555 1_555
H22_3 C7_3 1_555 1_555
C8_3 O3_3 1_555 1_555
C9_3 C4_3 1_555 1_555
C10_3 O7_3 1_555 1_555
C11_3 C6_3 1_555 1_555
C12_3 C7_3 1_555 1_555
C3_3 C8_3 1_555 1_555
C5_3 C10_3 1_555 1_555
C6_3 C7_3 1_555 1_555
Co4_2 O2_4 1_555 1_555
O13_4 Co4_2 1_555 1_555
H1_4 O13_4 1_555 1_555
H2_4 O13_4 1_555 1_555
O14_4 Co4_2 1_555 1_555
H3_4 O14_4 1_555 1_555
H4_4 O14_4 1_555 1_555
O15_4 Co4_2 1_555 1_555
H5_4 O15_4 1_555 1_555
H6_4 O15_4 1_555 1_555
Co6 O6_4 1_555 1_555
O4_4 C8_4 1_555 1_555
O5_4 C9_4 1_555 1_555
O6_4 C9_4 1_555 1_555
O7_4 Co6 1_555 1_555
H10_4 O17_4 1_555 1_555
O20_4 Co6 1_555 1_555
H15_3 O20_4 1_555 1_555
H16_3 O20_4 1_555 1_555
C1_4 C2_4 1_555 1_555
C2_4 H17_4 1_555 1_555
C3_4 C2_4 1_555 1_555
H18_4 C3_4 1_555 1_555
C4_4 C3_4 1_555 1_555
H19_4 C4_4 1_555 1_555
C8_4 O3_4 1_555 1_555
C9_4 C4_4 1_555 1_555
C3_4 C8_4 1_555 1_555
O8_4 C10_4 1_555 1_555
O9_4 C11_4 1_555 1_555
O22 C11_4 1_555 1_555
O23 C12_4 1_555 1_555
O24_2 C12_4 1_555 1_555
H20_4 C5_4 1_555 1_555
C6_4 C5_4 1_555 1_555
H21_4 C6_4 1_555 1_555
H22_4 C7_4 1_555 1_555
C11_4 C6_4 1_555 1_555
C12_4 C7_4 1_555 1_555
C5_4 C10_4 1_555 1_555
C6_4 C7_4 1_555 1_555
O18_3 Co2_2 1_555 1_555
H11_3 O18_3 1_555 1_555
H12_3 O18_3 1_555 1_555
H13_3 O19_3 1_555 1_555
H14_3 O19_3 1_555 1_555
O18_4 Co5_2 1_555 1_555
H11_4 O18_4 1_555 1_555
H12_4 O18_4 1_555 1_555
H13_4 O19_4 1_555 1_555
H14_4 O19_4 1_555 1_555

#END
