
###############################################################################
#
# This file contains modified crystal structure data generated from the
# MOF subset of the Cambridge Structural Database (CSD) v543 
# hosted by the Cambridge Crystallographic Data Centre (CCDC).
#
# This work is licensed under the Creative Commons
# Attribution-NonCommercial-ShareAlike 4.0 International License.
# To view a copy of this license, visit
# http://creativecommons.org/licenses/by-nc-sa/4.0/
# or send a letter to
# Creative Commons, PO Box 1866, Mountain View, CA 94042, USA.
#
# CIF created using the CSD Python API on 29 September 2022
# The structure has been converted into the P1 space group
# The structure has a 3D framework
# The original CSD entry PASNAA is in the monoclinic crystal system
# The framework has been calculated to contain at least 10.0% void space
# The void calculation uses a probe of radius 1.32A, grid spacing 0.4
#
###############################################################################

data_PASNAA
_chemical_formula_moiety         '(C48 H88 Co12 O80)n'
_symmetry_cell_setting           triclinic
_symmetry_space_group_name_H-M   'P 1'
_symmetry_Int_Tables_number      1
_space_group_name_Hall           'P 1'
loop_
_symmetry_equiv_pos_site_id
_symmetry_equiv_pos_as_xyz
1 x,y,z
_cell_length_a                   11.8151(13)
_cell_length_b                   16.3216(19)
_cell_length_c                   13.8362(16)
_cell_angle_alpha                90
_cell_angle_beta                 112.7660(10)
_cell_angle_gamma                90
_cell_volume                     2460.32
loop_
_atom_site_label
_atom_site_type_symbol
_atom_site_fract_x
_atom_site_fract_y
_atom_site_fract_z
C2 C 0.1922(5) 0.3386(3) 0.0640(4)
C3 C 0.2355(5) 0.1727(3) 0.1667(4)
C4 C 0.5023(5) 0.1035(3) 0.1690(4)
C9 C 0.2558(5) 0.2696(3) 0.0310(4)
H3 H 0.3230 0.2978 0.0197
C10 C 0.3235(5) 0.2105(3) 0.1215(4)
H4 H 0.3815 0.2441 0.1776
C11 C 0.4024(5) 0.1520(3) 0.0845(4)
H5 H 0.4510 0.1909 0.0625
O2 O 0.2266(4) 0.3531(2) 0.1588(3)
O3 O 0.1236(3) 0.1827(2) 0.1154(3)
O4 O 0.2776(3) 0.1388(2) 0.2557(3)
O5 O 0.5261(3) 0.1150(2) 0.2637(3)
O6 O 0.5690(4) 0.0590(3) 0.1370(3)
O7 O 0.2334(3) 0.0285(2) 0.0743(3)
H11 H 0.0206 0.1039 0.0846
Co7 Co 0.75967(7) 0.04652(5) 0.21783(6)
Co10 Co 0.44867(6) 0.13109(4) 0.37331(5)
H29 H 0.1987 0.0376 0.2736
C1 C 0.0577(5) 0.1936(3) 0.9049(4)
C5 C 0.2557(4) 0.0334(3) 0.9929(4)
C6 C 0.2073(5) 0.1401(3) 0.7823(4)
C7 C 0.2663(5) 0.1694(3) 0.8950(4)
H1 H 0.3336 0.2044 0.8946
C8 C 0.1826(5) 0.2296(3) 0.9225(4)
H2 H 0.1662 0.2743 0.8716
C12 C 0.3329(4) 0.1043(3) 0.9812(4)
H6 H 0.3964 0.0798 0.9611
O1 O 0.1169(3) 0.3845(2) 0.9957(3)
O9 O 0.2432(4) 0.0744(2) 0.7550(3)
O10 O 0.1324(4) 0.1875(3) 0.7176(3)
O11 O 0.0419(3) 0.1179(2) 0.8946(3)
O29 O 0.0261(3) 0.3850(2) 0.7637(3)
Co4 Co 0.10152(6) 0.95411(4) 0.09914(5)
Co8 Co 0.05133(6) 0.63109(4) 0.12669(5)
O25 O 0.2224(3) 0.6388(2) 0.2443(3)
O38 O 0.0296(3) 0.7569(2) 0.1055(3)
O39 O 0.1611(3) 0.9922(2) 0.2539(3)
H30 H 0.2039 0.9564 0.2923
O40 O 0.2170(3) 0.8499(2) 0.1314(3)
H31 H 0.1762 0.8085 0.1280
H32 H 0.2333 0.8538 0.1971
O45 O 0.1440(4) 0.6344(3) 0.0228(4)
H42 H 0.2211 0.6338 0.0549
O46 O 0.0672(4) 0.5035(2) 0.1268(3)
H43 H 0.0435 0.4807 0.1713
H44 H 0.1219 0.4667 0.1404
Co2 Co 0.24033(7) 0.95348(5) 0.78217(6)
O8 O 0.2215(3) 0.9786(2) 0.9215(3)
O16 O 0.2322(5) 0.8263(3) 0.8057(4)
H13 H 0.1719 0.8160 0.8190
H14 H 0.2837 0.7892 0.8076
O17 O 0.2330(4) 0.9333(3) 0.6303(3)
H15 H 0.1614 0.9346 0.5885
H16 H 0.2893 0.9202 0.6078
O18 O 0.0427(4) 0.9485(3) 0.7106(4)
H17 H 0.0138 0.9857 0.7337
H18 H 0.0211 0.9045 0.6802
O32 O 0.4310(4) 0.9410(3) 0.8630(3)
O41 O 0.0176(3) 0.9409(2) 0.9366(3)
H34 H 0.0619 0.9484 0.9016
H41 H 0.1109 0.6681 0.9764
O15 O 0.9824(3) 0.0591(2) 0.0634(3)
H12 H 0.9381 0.0516 0.0984
H19 H 0.8891 0.3319 0.0236
O34 O 0.7785(3) 0.0214(2) 0.0785(3)
O42 O 0.7678(5) 0.1737(3) 0.1943(4)
H35 H 0.8281 0.1840 0.1810
H36 H 0.7163 0.2108 0.1924
O43 O 0.7670(4) 0.0667(3) 0.3697(3)
H37 H 0.8386 0.0654 0.4115
H38 H 0.7107 0.0798 0.3922
O44 O 0.9573(4) 0.0515(3) 0.2894(4)
H39 H 0.9862 0.0143 0.2663
H40 H 0.9789 0.0955 0.3198
Co1 Co 0.89848(6) 0.04589(4) 0.90086(5)
Co3 Co 0.94867(6) 0.36891(4) 0.87331(5)
O12 O 0.9704(3) 0.2431(2) 0.8945(3)
O13 O 0.8389(3) 0.0078(2) 0.7461(3)
H8 H 0.7961 0.0436 0.7077
O14 O 0.7830(3) 0.1501(2) 0.8686(3)
H9 H 0.8238 0.1915 0.8720
H10 H 0.7667 0.1462 0.8029
O19 O 0.8560(4) 0.3656(3) 0.9772(4)
H20 H 0.7789 0.3662 0.9451
O20 O 0.9328(4) 0.4965(2) 0.8732(3)
H21 H 0.9565 0.5193 0.8287
H22 H 0.8781 0.5333 0.8596
O26 O 0.7776(3) 0.3612(2) 0.7557(3)
C13 C 0.9423(5) 0.8064(3) 0.0951(4)
C17 C 0.7443(4) 0.9666(3) 0.0071(4)
C18 C 0.7927(5) 0.8599(3) 0.2177(4)
C19 C 0.7337(5) 0.8306(3) 0.1050(4)
H23 H 0.6664 0.7956 0.1054
C20 C 0.8174(5) 0.7704(3) 0.0775(4)
H24 H 0.8338 0.7257 0.1284
C24 C 0.6671(4) 0.8957(3) 0.0188(4)
H28 H 0.6036 0.9202 0.0389
O21 O 0.8831(3) 0.6155(2) 0.0043(3)
O28 O 0.9739(3) 0.6150(2) 0.2363(3)
O35 O 0.7568(4) 0.9256(2) 0.2450(3)
O36 O 0.8676(4) 0.8125(3) 0.2824(3)
O37 O 0.9581(3) 0.8821(2) 0.1054(3)
H7 H 0.8013 0.9624 0.7264
Co9 Co 0.55133(6) 0.86891(4) 0.62669(5)
C14 C 0.8078(5) 0.6614(3) 0.9360(4)
C15 C 0.7645(5) 0.8273(3) 0.8333(4)
C16 C 0.4977(5) 0.8965(3) 0.8310(4)
C21 C 0.7442(5) 0.7304(3) 0.9690(4)
H25 H 0.6770 0.7022 0.9803
C22 C 0.6765(5) 0.7895(3) 0.8785(4)
H26 H 0.6185 0.7559 0.8224
C23 C 0.5976(5) 0.8480(3) 0.9155(4)
H27 H 0.5490 0.8091 0.9375
O22 O 0.7734(4) 0.6469(2) 0.8412(3)
O23 O 0.8764(3) 0.8173(2) 0.8846(3)
O24 O 0.7224(3) 0.8612(2) 0.7443(3)
O27 O 0.4739(3) 0.8850(2) 0.7363(3)
O33 O 0.7666(3) 0.9715(2) 0.9257(3)
H33 H 0.9794 0.8961 0.9154
Co6 Co 0.25967(7) 0.45348(5) 0.71783(6)
C16_2 C 0.0023(5) 0.3965(3) 0.6690(4)
O30 O 0.0690(4) 0.4410(3) 0.6370(3)
Co1_2 Co 0.60152(6) 0.54589(4) 0.59914(5)
C1_2 C 0.4423(5) 0.6936(3) 0.5951(4)
C2_2 C 0.3078(5) 0.8386(3) 0.4360(4)
C3_2 C 0.2645(5) 0.6727(3) 0.3333(4)
C5_2 C 0.2443(4) 0.5334(3) 0.5071(4)
C6_2 C 0.2927(5) 0.6401(3) 0.7177(4)
C7_2 C 0.2337(5) 0.6694(3) 0.6050(4)
H1_2 H 0.1664 0.7044 0.6054
C8_2 C 0.3174(5) 0.7296(3) 0.5775(4)
H2_2 H 0.3338 0.7743 0.6284
C9_2 C 0.2442(5) 0.7696(3) 0.4690(4)
H3_2 H 0.1770 0.7978 0.4803
C10_2 C 0.1765(5) 0.7105(3) 0.3785(4)
H4_2 H 0.1185 0.7441 0.3224
C11_2 C 0.0976(5) 0.6520(3) 0.4155(4)
H5_2 H 0.0490 0.6909 0.4375
C12_2 C 0.1671(4) 0.6043(3) 0.5188(4)
H6_2 H 0.1036 0.5798 0.5389
O1_2 O 0.3831(3) 0.8845(2) 0.5043(3)
O2_2 O 0.2734(4) 0.8531(2) 0.3412(3)
O3_2 O 0.3764(3) 0.6827(2) 0.3846(3)
O7_2 O 0.2666(3) 0.5285(2) 0.4257(3)
O8_2 O 0.2785(3) 0.4786(2) 0.5785(3)
O9_2 O 0.2568(4) 0.5744(2) 0.7450(3)
O10_2 O 0.3676(4) 0.6875(3) 0.7824(3)
O11_2 O 0.4581(3) 0.6179(2) 0.6054(3)
O12_2 O 0.5296(3) 0.7431(2) 0.6055(3)
O13_2 O 0.6611(3) 0.5078(2) 0.7539(3)
H7_2 H 0.6987 0.4624 0.7736
H8_2 H 0.7039 0.5436 0.7923
O14_2 O 0.7170(3) 0.6501(2) 0.6314(3)
H9_2 H 0.6762 0.6915 0.6280
H10_2 H 0.7333 0.6462 0.6971
O15_2 O 0.5176(3) 0.5591(2) 0.4366(3)
H11_2 H 0.4794 0.6039 0.4154
H12_2 H 0.5619 0.5516 0.4016
O16_2 O 0.2678(5) 0.3263(3) 0.6943(4)
H13_2 H 0.3281 0.3160 0.6810
H14_2 H 0.2163 0.2892 0.6924
O17_2 O 0.2670(4) 0.4333(3) 0.8697(3)
H15_2 H 0.3386 0.4346 0.9115
H16_2 H 0.2107 0.4202 0.8922
O18_2 O 0.4573(4) 0.4485(3) 0.7894(4)
H17_2 H 0.4862 0.4857 0.7663
H18_2 H 0.4789 0.4045 0.8198
O19_2 O 0.6440(4) 0.8656(3) 0.5228(4)
H19_2 H 0.6109 0.8319 0.4764
H20_2 H 0.7211 0.8662 0.5549
O20_2 O 0.5672(4) 0.9965(2) 0.6268(3)
Co4_2 Co 0.39848(6) 0.45411(4) 0.40086(5)
Co5 Co 0.74033(7) 0.54652(5) 0.28217(6)
C13_2 C 0.5577(5) 0.3064(3) 0.4049(4)
C14_2 C 0.6922(5) 0.1614(3) 0.5640(4)
C15_2 C 0.7355(5) 0.3273(3) 0.6667(4)
C17_2 C 0.7557(4) 0.4666(3) 0.4929(4)
C18_2 C 0.7073(5) 0.3599(3) 0.2823(4)
C19_2 C 0.7663(5) 0.3306(3) 0.3950(4)
H23_2 H 0.8336 0.2956 0.3946
C20_2 C 0.6826(5) 0.2704(3) 0.4225(4)
H24_2 H 0.6662 0.2257 0.3716
C21_2 C 0.7558(5) 0.2304(3) 0.5310(4)
H25_2 H 0.8230 0.2022 0.5197
C22_2 C 0.8235(5) 0.2895(3) 0.6215(4)
H26_2 H 0.8815 0.2559 0.6776
C23_2 C 0.9024(5) 0.3480(3) 0.5845(4)
H27_2 H 0.9510 0.3091 0.5625
C24_2 C 0.8329(4) 0.3957(3) 0.4812(4)
H28_2 H 0.8964 0.4202 0.4611
O21_2 O 0.6169(3) 0.1155(2) 0.4957(3)
O22_2 O 0.7266(4) 0.1469(2) 0.6588(3)
O23_2 O 0.6236(3) 0.3173(2) 0.6154(3)
O31 O 0.9310(4) 0.5590(3) 0.3630(3)
O33_2 O 0.7334(3) 0.4715(2) 0.5743(3)
O34_2 O 0.7215(3) 0.5214(2) 0.4215(3)
O35_2 O 0.7432(4) 0.4256(2) 0.2550(3)
O36_2 O 0.6324(4) 0.3125(3) 0.2176(3)
O37_2 O 0.5419(3) 0.3821(2) 0.3946(3)
O38_2 O 0.4704(3) 0.2569(2) 0.3945(3)
O39_2 O 0.3389(3) 0.4922(2) 0.2461(3)
H29_2 H 0.3013 0.5376 0.2264
H30_2 H 0.2961 0.4564 0.2077
O40_2 O 0.2830(3) 0.3499(2) 0.3686(3)
H31_2 H 0.3238 0.3085 0.3720
H32_2 H 0.2667 0.3538 0.3029
O41_2 O 0.4824(3) 0.4409(2) 0.5634(3)
H33_2 H 0.5206 0.3961 0.5846
H34_2 H 0.4381 0.4484 0.5984
O42_2 O 0.7322(5) 0.6737(3) 0.3057(4)
H35_2 H 0.6719 0.6840 0.3190
H36_2 H 0.7837 0.7108 0.3076
O43_2 O 0.7330(4) 0.5667(3) 0.1303(3)
H37_2 H 0.6614 0.5654 0.0885
H38_2 H 0.7893 0.5798 0.1078
O44_2 O 0.5427(4) 0.5515(3) 0.2106(4)
H39_2 H 0.5138 0.5143 0.2337
H40_2 H 0.5211 0.5955 0.1802
O45_2 O 0.3560(4) 0.1344(3) 0.4772(4)
H41_2 H 0.3891 0.1681 0.5236
H42_2 H 0.2789 0.1338 0.4451
O46_2 O 0.4328(4) 0.0035(2) 0.3732(3)
C4_2 C 0.9977(5) 0.6035(3) 0.3310(4)
H21_2 H 0.5435 0.0193 0.6713
H22_2 H 0.6219 0.0333 0.6404
H43_2 H 0.4565 0.9807 0.3287
H44_2 H 0.3781 0.9667 0.3596
loop_
_geom_bond_atom_site_label_1
_geom_bond_atom_site_label_2
_geom_bond_site_symmetry_1
_geom_bond_site_symmetry_2
C2 C9 1_555 1_555
C3 C10 1_555 1_555
C4 C11 1_555 1_555
H3 C9 1_555 1_555
C10 C9 1_555 1_555
H4 C10 1_555 1_555
C11 C10 1_555 1_555
H5 C11 1_555 1_555
O2 C2 1_555 1_555
O3 C3 1_555 1_555
O4 C3 1_555 1_555
O5 C4 1_555 1_555
O6 C4 1_555 1_555
Co7 O6 1_555 1_555
Co10 O4 1_555 1_555
O5 Co10 1_555 1_555
C1 C8 1_555 1_555
C5 C12 1_555 1_555
C6 C7 1_555 1_555
C7 H1 1_555 1_555
C8 C7 1_555 1_555
H2 C8 1_555 1_555
C12 C7 1_555 1_555
H6 C12 1_555 1_555
O10 C6 1_555 1_555
O11 C1 1_555 1_555
C6 O9 1_555 1_555
O25 Co8 1_555 1_555
O38 Co8 1_555 1_555
O39 Co4 1_555 1_555
H30 O39 1_555 1_555
O40 Co4 1_555 1_555
H31 O40 1_555 1_555
H32 O40 1_555 1_555
O45 Co8 1_555 1_555
H42 O45 1_555 1_555
O46 Co8 1_555 1_555
H43 O46 1_555 1_555
H44 O46 1_555 1_555
Co2 O8 1_555 1_555
O16 Co2 1_555 1_555
H13 O16 1_555 1_555
H14 O16 1_555 1_555
O17 Co2 1_555 1_555
H15 O17 1_555 1_555
H16 O17 1_555 1_555
O18 Co2 1_555 1_555
H17 O18 1_555 1_555
H18 O18 1_555 1_555
O32 Co2 1_555 1_555
H34 O41 1_555 1_555
H12 O15 1_555 1_555
O34 Co7 1_555 1_555
O42 Co7 1_555 1_555
H35 O42 1_555 1_555
H36 O42 1_555 1_555
O43 Co7 1_555 1_555
H37 O43 1_555 1_555
H38 O43 1_555 1_555
O44 Co7 1_555 1_555
H39 O44 1_555 1_555
H40 O44 1_555 1_555
O12 Co3 1_555 1_555
O13 Co1 1_555 1_555
H8 O13 1_555 1_555
O14 Co1 1_555 1_555
H9 O14 1_555 1_555
H10 O14 1_555 1_555
O19 Co3 1_555 1_555
H20 O19 1_555 1_555
O20 Co3 1_555 1_555
H21 O20 1_555 1_555
H22 O20 1_555 1_555
O26 Co3 1_555 1_555
C13 C20 1_555 1_555
C17 C24 1_555 1_555
C18 C19 1_555 1_555
C19 H23 1_555 1_555
C20 C19 1_555 1_555
H24 C20 1_555 1_555
C24 C19 1_555 1_555
H28 C24 1_555 1_555
O36 C18 1_555 1_555
C13 O37 1_555 1_555
C18 O35 1_555 1_555
Co9 O24 1_555 1_555
C14 C21 1_555 1_555
C15 C22 1_555 1_555
C16 C23 1_555 1_555
H25 C21 1_555 1_555
C22 C21 1_555 1_555
H26 C22 1_555 1_555
C23 C22 1_555 1_555
H27 C23 1_555 1_555
O22 C14 1_555 1_555
O23 C15 1_555 1_555
O24 C15 1_555 1_555
O27 Co9 1_555 1_555
O32 C16 1_555 1_555
C16 O27 1_555 1_555
Co6 O30 1_555 1_555
O30 C16_2 1_555 1_555
C16_2 O29 1_555 1_555
Co1_2 O11_2 1_555 1_555
Co6 O8_2 1_555 1_555
Co9 O1_2 1_555 1_555
C1_2 C8_2 1_555 1_555
C2_2 C9_2 1_555 1_555
C3_2 C10_2 1_555 1_555
C5_2 C12_2 1_555 1_555
C6_2 C7_2 1_555 1_555
C7_2 H1_2 1_555 1_555
C8_2 C7_2 1_555 1_555
H2_2 C8_2 1_555 1_555
C9_2 C8_2 1_555 1_555
H3_2 C9_2 1_555 1_555
C10_2 C9_2 1_555 1_555
H4_2 C10_2 1_555 1_555
C11_2 C10_2 1_555 1_555
H5_2 C11_2 1_555 1_555
C12_2 C7_2 1_555 1_555
H6_2 C12_2 1_555 1_555
O1_2 C2_2 1_555 1_555
O2_2 C2_2 1_555 1_555
O3_2 C3_2 1_555 1_555
O25 C3_2 1_555 1_555
O7_2 C5_2 1_555 1_555
O8_2 C5_2 1_555 1_555
O9_2 Co6 1_555 1_555
O10_2 C6_2 1_555 1_555
O11_2 C1_2 1_555 1_555
O12_2 Co9 1_555 1_555
O13_2 Co1_2 1_555 1_555
H7_2 O13_2 1_555 1_555
H8_2 O13_2 1_555 1_555
O14_2 Co1_2 1_555 1_555
H9_2 O14_2 1_555 1_555
H10_2 O14_2 1_555 1_555
O15_2 Co1_2 1_555 1_555
H11_2 O15_2 1_555 1_555
H12_2 O15_2 1_555 1_555
O16_2 Co6 1_555 1_555
H13_2 O16_2 1_555 1_555
H14_2 O16_2 1_555 1_555
O17_2 Co6 1_555 1_555
H15_2 O17_2 1_555 1_555
H16_2 O17_2 1_555 1_555
O18_2 Co6 1_555 1_555
H17_2 O18_2 1_555 1_555
H18_2 O18_2 1_555 1_555
O19_2 Co9 1_555 1_555
H19_2 O19_2 1_555 1_555
H20_2 O19_2 1_555 1_555
O20_2 Co9 1_555 1_555
Co4_2 O7_2 1_555 1_555
Co5 O31 1_555 1_555
Co10 O21_2 1_555 1_555
C13_2 C20_2 1_555 1_555
C14_2 C21_2 1_555 1_555
C15_2 C22_2 1_555 1_555
C17_2 C24_2 1_555 1_555
C18_2 C19_2 1_555 1_555
C19_2 H23_2 1_555 1_555
C20_2 C19_2 1_555 1_555
H24_2 C20_2 1_555 1_555
C21_2 C20_2 1_555 1_555
H25_2 C21_2 1_555 1_555
C22_2 C21_2 1_555 1_555
H26_2 C22_2 1_555 1_555
C23_2 C22_2 1_555 1_555
H27_2 C23_2 1_555 1_555
C24_2 C19_2 1_555 1_555
H28_2 C24_2 1_555 1_555
O21_2 C14_2 1_555 1_555
O22_2 C14_2 1_555 1_555
O23_2 C15_2 1_555 1_555
O26 C15_2 1_555 1_555
O33_2 Co1_2 1_555 1_555
O34_2 Co5 1_555 1_555
O35_2 Co5 1_555 1_555
O36_2 C18_2 1_555 1_555
O37_2 Co4_2 1_555 1_555
O38_2 Co10 1_555 1_555
O39_2 Co4_2 1_555 1_555
H29_2 O39_2 1_555 1_555
H30_2 O39_2 1_555 1_555
O40_2 Co4_2 1_555 1_555
H31_2 O40_2 1_555 1_555
H32_2 O40_2 1_555 1_555
O41_2 Co1_2 1_555 1_555
H33_2 O41_2 1_555 1_555
H34_2 O41_2 1_555 1_555
O42_2 Co5 1_555 1_555
H35_2 O42_2 1_555 1_555
H36_2 O42_2 1_555 1_555
O43_2 Co5 1_555 1_555
H37_2 O43_2 1_555 1_555
H38_2 O43_2 1_555 1_555
O44_2 Co5 1_555 1_555
H39_2 O44_2 1_555 1_555
H40_2 O44_2 1_555 1_555
O45_2 Co10 1_555 1_555
H41_2 O45_2 1_555 1_555
H42_2 O45_2 1_555 1_555
O46_2 Co10 1_555 1_555
C1_2 O12_2 1_555 1_555
C6_2 O9_2 1_555 1_555
C11_2 C12_2 1_555 1_555
O15_2 Co4_2 1_555 1_555
Co4_2 O41_2 1_555 1_555
C13_2 O37_2 1_555 1_555
C13_2 O38_2 1_555 1_555
C17_2 O33_2 1_555 1_555
C17_2 O34_2 1_555 1_555
C18_2 O35_2 1_555 1_555
C23_2 C24_2 1_555 1_555
O28 C4_2 1_555 1_555
O31 C4_2 1_555 1_555

#END
