
###############################################################################
#
# This file contains modified crystal structure data generated from the
# MOF subset of the Cambridge Structural Database (CSD) v543 
# hosted by the Cambridge Crystallographic Data Centre (CCDC).
#
# This work is licensed under the Creative Commons
# Attribution-NonCommercial-ShareAlike 4.0 International License.
# To view a copy of this license, visit
# http://creativecommons.org/licenses/by-nc-sa/4.0/
# or send a letter to
# Creative Commons, PO Box 1866, Mountain View, CA 94042, USA.
#
# CIF created using the CSD Python API on 29 September 2022
# The structure has been converted into the P1 space group
# The structure has a 3D framework
# The original CSD entry PAVDUP is in the triclinic crystal system
# The framework has been calculated to contain at least 10.0% void space
# The void calculation uses a probe of radius 1.32A, grid spacing 0.4
#
###############################################################################

data_PAVDUP
_chemical_formula_moiety         'C6 H10 I12 K2 N6 O8'
_symmetry_cell_setting           triclinic
_symmetry_space_group_name_H-M   'P 1'
_symmetry_Int_Tables_number      1
_space_group_name_Hall           'P 1'
loop_
_symmetry_equiv_pos_site_id
_symmetry_equiv_pos_as_xyz
1 x,y,z
_cell_length_a                   7.3871(5)
_cell_length_b                   9.6278(6)
_cell_length_c                   10.6689(8)
_cell_angle_alpha                91.446(5)
_cell_angle_beta                 97.857(6)
_cell_angle_gamma                107.050(6)
_cell_volume                     716.918
loop_
_atom_site_label
_atom_site_type_symbol
_atom_site_fract_x
_atom_site_fract_y
_atom_site_fract_z
K4 K 0.3777(2) 0.09791(16) 0.12745(14)
I1 I 0.000000 0.000000 0.500000
I2 I 0.000000 0.500000 0.000000
O1 O 0.5008(6) 0.3972(4) 0.1472(4)
O2 O 0.5120(6) 0.6838(4) 0.4942(4)
O3 O 0.5201(6) 0.8670(4) 0.1090(4)
O4 O 0.5587(6) 0.0803(5) 0.3663(4)
H1 H 0.498196 0.105185 0.427759
H2 H 0.674986 0.147982 0.382165
N1 N 0.5158(6) 0.6329(5) 0.1279(4)
H3 H 0.519594 0.622915 0.048024
N2 N 0.5123(6) 0.5393(5) 0.3233(4)
H4 H 0.514880 0.468620 0.370539
N3 N 0.5149(6) 0.7767(5) 0.3022(4)
H5 H 0.514662 0.859147 0.335018
C1 C 0.5177(8) 0.7649(6) 0.1755(6)
C2 C 0.5084(8) 0.5151(6) 0.1960(5)
C3 C 0.5124(7) 0.6678(6) 0.3807(6)
I2_2 I 0.000000 0.500000 1.000000
I6 I 0.05074(7) 0.78193(6) 0.88830(5)
K8 K 0.6223(2) 0.90209(16) 0.87255(14)
O12 O 0.4799(6) 0.1330(4) 0.8910(4)
I1_2 I 0.000000 1.000000 0.500000
I3 I 0.02907(6) 0.84129(6) 0.27111(5)
I1_3 I 1.000000 0.000000 0.500000
I2_3 I 1.000000 0.500000 0.000000
I4 I 0.94926(7) 0.21807(6) 0.11170(5)
I5 I 0.97093(6) 0.15871(6) 0.72889(5)
I2_4 I 1.000000 0.500000 1.000000
I1_4 I 1.000000 1.000000 0.500000
O5 O 0.4992(6) 0.6028(4) 0.8528(4)
O6 O 0.4880(6) 0.3162(4) 0.5058(4)
O8 O 0.4413(6) 0.9197(5) 0.6337(4)
H6 H 0.501804 0.894815 0.572241
H7 H 0.325014 0.852018 0.617835
N4 N 0.4842(6) 0.3671(5) 0.8721(4)
H8 H 0.480406 0.377085 0.951976
N5 N 0.4877(6) 0.4607(5) 0.6767(4)
H9 H 0.485120 0.531380 0.629461
N6 N 0.4851(6) 0.2233(5) 0.6978(4)
H10 H 0.485338 0.140853 0.664982
C4 C 0.4823(8) 0.2351(6) 0.8245(6)
C5 C 0.4916(8) 0.4849(6) 0.8040(5)
C6 C 0.4876(7) 0.3322(6) 0.6193(6)
loop_
_geom_bond_atom_site_label_1
_geom_bond_atom_site_label_2
_geom_bond_site_symmetry_1
_geom_bond_site_symmetry_2
K4 O1 1_555 1_555
O1 C2 1_555 1_555
O2 C3 1_555 1_555
O3 C1 1_555 1_555
O4 K4 1_555 1_555
H1 O4 1_555 1_555
H2 O4 1_555 1_555
N1 H3 1_555 1_555
N2 H4 1_555 1_555
N3 H5 1_555 1_555
C1 N1 1_555 1_555
C2 N1 1_555 1_555
C3 N2 1_555 1_555
N2 C2 1_555 1_555
N3 C1 1_555 1_555
N3 C3 1_555 1_555
I6 I2_2 1_555 1_555
I1_2 I3 1_555 1_555
I2_3 I4 1_555 1_555
I5 I1_3 1_555 1_555
O5 K8 1_555 1_555
O6 C6 1_555 1_555
O12 C4 1_555 1_555
O8 K8 1_555 1_555
H6 O8 1_555 1_555
H7 O8 1_555 1_555
N4 H8 1_555 1_555
N5 H9 1_555 1_555
N6 H10 1_555 1_555
C4 N4 1_555 1_555
C5 O5 1_555 1_555
C6 N5 1_555 1_555
N4 C5 1_555 1_555
N5 C5 1_555 1_555
N6 C4 1_555 1_555
N6 C6 1_555 1_555

#END
