
###############################################################################
#
# This file contains modified crystal structure data generated from the
# MOF subset of the Cambridge Structural Database (CSD) v543 
# hosted by the Cambridge Crystallographic Data Centre (CCDC).
#
# This work is licensed under the Creative Commons
# Attribution-NonCommercial-ShareAlike 4.0 International License.
# To view a copy of this license, visit
# http://creativecommons.org/licenses/by-nc-sa/4.0/
# or send a letter to
# Creative Commons, PO Box 1866, Mountain View, CA 94042, USA.
#
# CIF created using the CSD Python API on 29 September 2022
# The structure has been converted into the P1 space group
# The structure has a 3D framework
# The original CSD entry PAVLUU is in the tetragonal crystal system
# The framework has been calculated to contain at least 10.0% void space
# The void calculation uses a probe of radius 1.32A, grid spacing 0.4
# The framework is charged, counterions have been retained in the structure
#
###############################################################################

data_PAVLUU
_chemical_formula_moiety         '(C40 H24 Ag2 N24 O6 2+)n'
_symmetry_cell_setting           triclinic
_symmetry_space_group_name_H-M   'P 1'
_symmetry_Int_Tables_number      1
_space_group_name_Hall           'P 1'
loop_
_symmetry_equiv_pos_site_id
_symmetry_equiv_pos_as_xyz
1 x,y,z
_cell_length_a                   10.7845(19)
_cell_length_b                   10.7845(19)
_cell_length_c                   14.119(5)
_cell_angle_alpha                90
_cell_angle_beta                 90
_cell_angle_gamma                90
_cell_volume                     1642.12
loop_
_atom_site_label
_atom_site_type_symbol
_atom_site_fract_x
_atom_site_fract_y
_atom_site_fract_z
Ag1 Ag 0.5000 0.5000 0.31844(3)
O1 O 0.2521(3) 0.2521(3) 0.5000
N1 N 0.3297(3) 0.3297(3) 0.2608(3)
N2 N 0.3888(2) 0.3888(2) 0.4504(3)
N3 N 0.1491(2) 0.1491(2) 0.2246(3)
C1 C 0.3075(3) 0.3075(3) 0.4259(4)
C2 C 0.2715(3) 0.2715(3) 0.3299(3)
C3 C 0.1830(3) 0.1830(3) 0.3120(3)
H1 H 0.1447 0.1447 0.3632
C4 C 0.2079(4) 0.2079(4) 0.1561(4)
H2 H 0.1890 0.1890 0.0935
C5 C 0.2982(5) 0.2982(5) 0.1750(4)
H3 H 0.3372 0.3372 0.1243
Ag2 Ag 0.0000 0.0000 0.18156(3)
Ag3 Ag 0.5000 0.5000 0.68156(3)
Ag4 Ag 0.0000 0.0000 0.81844(3)
N4 N 0.3297(3) 0.3297(3) 0.7392(3)
N5 N 0.6703(3) 0.6703(3) 0.2608(3)
N6 N 0.3888(2) 0.3888(2) 0.5496(3)
N7 N 0.6112(2) 0.6112(2) 0.4504(3)
N8 N 0.1491(2) 0.1491(2) 0.7754(3)
N9 N 0.6491(2) 0.3509(2) 0.2754(3)
N10 N 0.3509(2) 0.6491(2) 0.2754(3)
C6 C 0.3075(3) 0.3075(3) 0.5741(4)
C7 C 0.2715(3) 0.2715(3) 0.6701(3)
C8 C 0.1830(3) 0.1830(3) 0.6880(3)
H4 H 0.1447 0.1447 0.6368
C9 C 0.2079(4) 0.2079(4) 0.8439(4)
H5 H 0.1890 0.1890 0.9065
C10 C 0.2982(5) 0.2982(5) 0.8250(4)
H6 H 0.3372 0.3372 0.8757
Ag2_2 Ag -0.0000 1.0000 0.18156(3)
Ag4_2 Ag -0.0000 1.0000 0.81844(3)
Ag2_3 Ag 1.0000 0.0000 0.18156(3)
Ag4_3 Ag 1.0000 0.0000 0.81844(3)
Ag2_4 Ag 1.0000 1.0000 0.18156(3)
Ag4_4 Ag 1.0000 1.0000 0.81844(3)
O1_2 O 0.2479(3) 0.7521(3) 0.0000
N4_2 N 0.1703(3) 0.8297(3) 0.2392(3)
N6_2 N 0.1112(2) 0.8888(2) 0.0496(3)
C6_2 C 0.1925(3) 0.8075(3) 0.0741(4)
C7_2 C 0.2285(3) 0.7715(3) 0.1701(3)
C8_2 C 0.3170(3) 0.6830(3) 0.1880(3)
H4_2 H 0.3553 0.6447 0.1368
C9_2 C 0.2921(4) 0.7079(4) 0.3439(4)
H5_2 H 0.3110 0.6890 0.4065
C10_2 C 0.2018(5) 0.7982(5) 0.3250(4)
H6_2 H 0.1628 0.8372 0.3757
O1_3 O 0.2479(3) 0.7521(3) 1.0000
N1_2 N 0.1703(3) 0.8297(3) 0.7608(3)
N2_2 N 0.1112(2) 0.8888(2) 0.9504(3)
N3_2 N 0.3509(2) 0.6491(2) 0.7246(3)
C1_2 C 0.1925(3) 0.8075(3) 0.9259(4)
C2_2 C 0.2285(3) 0.7715(3) 0.8299(3)
C3_2 C 0.3170(3) 0.6830(3) 0.8120(3)
H1_2 H 0.3553 0.6447 0.8632
C4_2 C 0.2921(4) 0.7079(4) 0.6561(4)
H2_2 H 0.3110 0.6890 0.5935
C5_2 C 0.2018(5) 0.7982(5) 0.6750(4)
H3_2 H 0.1628 0.8372 0.6243
N5_2 N 0.8297(3) 0.1703(3) 0.7608(3)
N7_2 N 0.8888(2) 0.1112(2) 0.9504(3)
N10_2 N 0.8509(2) 0.8509(2) 0.7754(3)
O1_4 O 0.7521(3) 0.2479(3) 0.0000
N4_3 N 0.8297(3) 0.1703(3) 0.2392(3)
N6_3 N 0.8888(2) 0.1112(2) 0.0496(3)
C6_3 C 0.8075(3) 0.1925(3) 0.0741(4)
C7_3 C 0.7715(3) 0.2285(3) 0.1701(3)
C8_3 C 0.6830(3) 0.3170(3) 0.1880(3)
H4_3 H 0.6447 0.3553 0.1368
C9_3 C 0.7079(4) 0.2921(4) 0.3439(4)
H5_3 H 0.6890 0.3110 0.4065
C10_3 C 0.7982(5) 0.2018(5) 0.3250(4)
H6_3 H 0.8372 0.1628 0.3757
O1_5 O 0.7521(3) 0.2479(3) 1.0000
N3_3 N 0.6491(2) 0.3509(2) 0.7246(3)
C1_3 C 0.8075(3) 0.1925(3) 0.9259(4)
C2_3 C 0.7715(3) 0.2285(3) 0.8299(3)
C3_3 C 0.6830(3) 0.3170(3) 0.8120(3)
H1_3 H 0.6447 0.3553 0.8632
C4_3 C 0.7079(4) 0.2921(4) 0.6561(4)
H2_3 H 0.6890 0.3110 0.5935
C5_3 C 0.7982(5) 0.2018(5) 0.6750(4)
H3_3 H 0.8372 0.1628 0.6243
N5_3 N 0.6703(3) 0.6703(3) 0.7392(3)
N7_3 N 0.6112(2) 0.6112(2) 0.5496(3)
O1_6 O 0.7479(3) 0.7479(3) 0.5000
N3_4 N 0.8509(2) 0.8509(2) 0.2246(3)
C1_4 C 0.6925(3) 0.6925(3) 0.4259(4)
C2_4 C 0.7285(3) 0.7285(3) 0.3299(3)
C3_4 C 0.8170(3) 0.8170(3) 0.3120(3)
H1_4 H 0.8553 0.8553 0.3632
C4_4 C 0.7921(4) 0.7921(4) 0.1561(4)
H2_4 H 0.8110 0.8110 0.0935
C5_4 C 0.7018(5) 0.7018(5) 0.1750(4)
H3_4 H 0.6628 0.6628 0.1243
C6_4 C 0.6925(3) 0.6925(3) 0.5741(4)
C7_4 C 0.7285(3) 0.7285(3) 0.6701(3)
C8_4 C 0.8170(3) 0.8170(3) 0.6880(3)
H4_4 H 0.8553 0.8553 0.6368
C9_4 C 0.7921(4) 0.7921(4) 0.8439(4)
H5_4 H 0.8110 0.8110 0.9065
C10_4 C 0.7018(5) 0.7018(5) 0.8250(4)
H6_4 H 0.6628 0.6628 0.8757
loop_
_geom_bond_atom_site_label_1
_geom_bond_atom_site_label_2
_geom_bond_site_symmetry_1
_geom_bond_site_symmetry_2
Ag1 N1 1_555 1_555
O1 C1 1_555 1_555
N1 C2 1_555 1_555
N2 Ag1 1_555 1_555
N3 C3 1_555 1_555
C1 N2 1_555 1_555
C2 C1 1_555 1_555
C3 C2 1_555 1_555
H1 C3 1_555 1_555
C4 N3 1_555 1_555
H2 C4 1_555 1_555
C5 N1 1_555 1_555
H3 C5 1_555 1_555
Ag2 N3 1_555 1_555
Ag3 N4 1_555 1_555
Ag4 N8 1_555 1_555
N4 C7 1_555 1_555
N5 Ag1 1_555 1_555
N6 N2 1_555 1_555
N7 Ag1 1_555 1_555
N8 C8 1_555 1_555
N9 Ag1 1_555 1_555
N10 Ag1 1_555 1_555
C6 O1 1_555 1_555
C7 C6 1_555 1_555
C8 C7 1_555 1_555
H4 C8 1_555 1_555
C9 N8 1_555 1_555
H5 C9 1_555 1_555
C10 N4 1_555 1_555
H6 C10 1_555 1_555
C4 C5 1_555 1_555
Ag3 N6 1_555 1_555
N6 C6 1_555 1_555
C9 C10 1_555 1_555
Ag2_2 N4_2 1_555 1_555
N4_2 C7_2 1_555 1_555
N10 C8_2 1_555 1_555
C6_2 O1_2 1_555 1_555
C7_2 C6_2 1_555 1_555
C8_2 C7_2 1_555 1_555
H4_2 C8_2 1_555 1_555
C9_2 N10 1_555 1_555
H5_2 C9_2 1_555 1_555
C10_2 N4_2 1_555 1_555
H6_2 C10_2 1_555 1_555
Ag2_2 N6_2 1_555 1_555
N6_2 C6_2 1_555 1_555
C9_2 C10_2 1_555 1_555
Ag4_2 N1_2 1_555 1_555
O1_3 C1_2 1_555 1_555
N1_2 C2_2 1_555 1_555
N2_2 Ag4_2 1_555 1_555
N3_2 C3_2 1_555 1_555
C1_2 N2_2 1_555 1_555
C2_2 C1_2 1_555 1_555
C3_2 C2_2 1_555 1_555
H1_2 C3_2 1_555 1_555
C4_2 N3_2 1_555 1_555
H2_2 C4_2 1_555 1_555
C5_2 N1_2 1_555 1_555
H3_2 C5_2 1_555 1_555
Ag3 N3_2 1_555 1_555
C4_2 C5_2 1_555 1_555
N5_2 Ag4_3 1_555 1_555
N7_2 Ag4_3 1_555 1_555
N10_2 Ag4_4 1_555 1_555
Ag2_3 N4_3 1_555 1_555
N4_3 C7_3 1_555 1_555
N9 C8_3 1_555 1_555
C6_3 O1_4 1_555 1_555
C7_3 C6_3 1_555 1_555
C8_3 C7_3 1_555 1_555
H4_3 C8_3 1_555 1_555
C9_3 N9 1_555 1_555
H5_3 C9_3 1_555 1_555
C10_3 N4_3 1_555 1_555
H6_3 C10_3 1_555 1_555
Ag2_3 N6_3 1_555 1_555
N6_3 C6_3 1_555 1_555
C9_3 C10_3 1_555 1_555
O1_5 C1_3 1_555 1_555
N5_2 C2_3 1_555 1_555
N3_3 C3_3 1_555 1_555
C1_3 N7_2 1_555 1_555
C2_3 C1_3 1_555 1_555
C3_3 C2_3 1_555 1_555
H1_3 C3_3 1_555 1_555
C4_3 N3_3 1_555 1_555
H2_3 C4_3 1_555 1_555
C5_3 N5_2 1_555 1_555
H3_3 C5_3 1_555 1_555
Ag3 N3_3 1_555 1_555
C4_3 C5_3 1_555 1_555
N5_3 Ag3 1_555 1_555
N7_3 Ag3 1_555 1_555
O1_6 C1_4 1_555 1_555
N5 C2_4 1_555 1_555
N3_4 C3_4 1_555 1_555
C1_4 N7 1_555 1_555
C2_4 C1_4 1_555 1_555
C3_4 C2_4 1_555 1_555
H1_4 C3_4 1_555 1_555
C4_4 N3_4 1_555 1_555
H2_4 C4_4 1_555 1_555
C5_4 N5 1_555 1_555
H3_4 C5_4 1_555 1_555
Ag2_4 N3_4 1_555 1_555
N5_3 C7_4 1_555 1_555
N7_3 N7 1_555 1_555
N10_2 C8_4 1_555 1_555
C6_4 O1_6 1_555 1_555
C7_4 C6_4 1_555 1_555
C8_4 C7_4 1_555 1_555
H4_4 C8_4 1_555 1_555
C9_4 N10_2 1_555 1_555
H5_4 C9_4 1_555 1_555
C10_4 N5_3 1_555 1_555
H6_4 C10_4 1_555 1_555
C4_4 C5_4 1_555 1_555
N7_3 C6_4 1_555 1_555
C9_4 C10_4 1_555 1_555

#END
