
###############################################################################
#
# This file contains modified crystal structure data generated from the
# MOF subset of the Cambridge Structural Database (CSD) v543 
# hosted by the Cambridge Crystallographic Data Centre (CCDC).
#
# This work is licensed under the Creative Commons
# Attribution-NonCommercial-ShareAlike 4.0 International License.
# To view a copy of this license, visit
# http://creativecommons.org/licenses/by-nc-sa/4.0/
# or send a letter to
# Creative Commons, PO Box 1866, Mountain View, CA 94042, USA.
#
# CIF created using the CSD Python API on 29 September 2022
# The structure has been converted into the P1 space group
# The structure has a 3D framework
# The original CSD entry PAVLII is in the orthorhombic crystal system
# The framework has been calculated to contain at least 10.0% void space
# The void calculation uses a probe of radius 1.32A, grid spacing 0.4
# The framework is charged, counterions have been retained in the structure
# H atom positions have been added when not included in the experimental data
#
###############################################################################

data_PAVLII
_chemical_formula_moiety         '(C40 H30 Ag4 B4 F12 N24 O12 6-)n'
_symmetry_cell_setting           triclinic
_symmetry_space_group_name_H-M   'P 1'
_symmetry_Int_Tables_number      1
_space_group_name_Hall           'P 1'
loop_
_symmetry_equiv_pos_site_id
_symmetry_equiv_pos_as_xyz
1 x,y,z
_cell_length_a                   13.856(7)
_cell_length_b                   10.659(6)
_cell_length_c                   11.177(6)
_cell_angle_alpha                90
_cell_angle_beta                 90
_cell_angle_gamma                90
_cell_volume                     1650.74
loop_
_atom_site_label
_atom_site_type_symbol
_atom_site_fract_x
_atom_site_fract_y
_atom_site_fract_z
Ag1 Ag 0.18822(6) -0.0000 0.5330(6)
N1 N 0.2435(7) 0.1691(12) 0.3657(8)
C1 C 0.3367(6) 0.2077(15) 0.3379(11)
H1 H 0.3891 0.1734 0.3783
C2 C 0.3515(5) 0.2976(14) 0.2497(11)
H2 H 0.4138 0.3235 0.2311
N2 N 0.2731(6) 0.3489(11) 0.1894(9)
C3 C 0.1800(5) 0.3103(9) 0.2172(8)
H3 H 0.1276 0.3446 0.1768
C4 C 0.1652(5) 0.2204(9) 0.3054(7)
O1 O -0.0000 0.2331(9) 0.2762(11)
N3 N 0.0509(7) 0.0994(8) 0.4118(8)
C5 C 0.0763(6) 0.1786(9) 0.3370(10)
Ag3 Ag 0.31178(6) 0.5000 0.0330(6)
N10 N 0.2269(6) 0.1511(11) 0.6894(9)
Ag1_2 Ag 0.18822(6) 1.0000 0.5330(6)
N5 N 0.2435(7) 0.8309(12) 0.3657(8)
C7 C 0.3367(6) 0.7923(15) 0.3379(11)
H5 H 0.3891 0.8266 0.3783
C10 C 0.3515(5) 0.7024(14) 0.2497(11)
H8 H 0.4138 0.6765 0.2311
N8 N 0.2731(6) 0.6511(11) 0.1894(9)
N11 N 0.2269(6) 0.8489(11) 0.6894(9)
C13 C 0.1800(5) 0.6897(9) 0.2172(8)
H11 H 0.1276 0.6554 0.1768
C16 C 0.1652(5) 0.7796(9) 0.3054(7)
O2 O -0.0000 0.7669(9) 0.2762(11)
N15 N 0.0509(7) 0.9006(8) 0.4118(8)
C19 C 0.0763(6) 0.8214(9) 0.3370(10)
O1_2 O 1.0000 0.2331(9) 0.2762(11)
Ag2 Ag 0.81178(6) -0.0000 0.5330(6)
Ag4 Ag 0.68822(6) 0.5000 0.0330(6)
N4 N 0.7565(7) 0.1691(12) 0.3657(8)
C6 C 0.6633(6) 0.2077(15) 0.3379(11)
H4 H 0.6109 0.1734 0.3783
C9 C 0.6485(5) 0.2976(14) 0.2497(11)
H7 H 0.5862 0.3235 0.2311
N7 N 0.7269(6) 0.3489(11) 0.1894(9)
N13 N 0.7731(6) 0.1511(11) 0.6894(9)
C12 C 0.8200(5) 0.3103(9) 0.2172(8)
H10 H 0.8724 0.3446 0.1768
C15 C 0.8348(5) 0.2204(9) 0.3054(7)
N14 N 0.9491(7) 0.0994(8) 0.4118(8)
C18 C 0.9237(6) 0.1786(9) 0.3370(10)
Ag2_2 Ag 0.81178(6) 1.0000 0.5330(6)
N6 N 0.7565(7) 0.8309(12) 0.3657(8)
C8 C 0.6633(6) 0.7923(15) 0.3379(11)
H6 H 0.6109 0.8266 0.3783
C11 C 0.6485(5) 0.7024(14) 0.2497(11)
H9 H 0.5862 0.6765 0.2311
N9 N 0.7269(6) 0.6511(11) 0.1894(9)
N12 N 0.7731(6) 0.8489(11) 0.6894(9)
C14 C 0.8200(5) 0.6897(9) 0.2172(8)
H12 H 0.8724 0.6554 0.1768
C17 C 0.8348(5) 0.7796(9) 0.3054(7)
O2_2 O 1.0000 0.7669(9) 0.2762(11)
N16 N 0.9491(7) 0.9006(8) 0.4118(8)
C20 C 0.9237(6) 0.8214(9) 0.3370(10)
N1_2 N 0.7435(7) 0.6691(12) 0.8657(8)
C1_2 C 0.8367(6) 0.7077(15) 0.8379(11)
H1_2 H 0.8891 0.6734 0.8783
C2_2 C 0.8515(5) 0.7976(14) 0.7497(11)
H2_2 H 0.9138 0.8235 0.7311
C3_2 C 0.6800(5) 0.8103(9) 0.7172(8)
H3_2 H 0.6276 0.8446 0.6768
C4_2 C 0.6652(5) 0.7204(9) 0.8054(7)
O1_3 O 0.5000 0.7331(9) 0.7762(11)
N3_2 N 0.5509(7) 0.5994(8) 0.9118(8)
C5_2 C 0.5763(6) 0.6786(9) 0.8370(10)
N4_2 N 0.2565(7) 0.6691(12) 0.8657(8)
N5_2 N 0.7435(7) 0.3309(12) 0.8657(8)
N6_2 N 0.2565(7) 0.3309(12) 0.8657(8)
C6_2 C 0.1633(6) 0.7077(15) 0.8379(11)
C7_2 C 0.8367(6) 0.2923(15) 0.8379(11)
C8_2 C 0.1633(6) 0.2923(15) 0.8379(11)
H4_2 H 0.1109 0.6734 0.8783
H5_2 H 0.8891 0.3266 0.8783
H6_2 H 0.1109 0.3266 0.8783
C9_2 C 0.1485(5) 0.7976(14) 0.7497(11)
C10_2 C 0.8515(5) 0.2024(14) 0.7497(11)
C11_2 C 0.1485(5) 0.2024(14) 0.7497(11)
H7_2 H 0.0862 0.8235 0.7311
H8_2 H 0.9138 0.1765 0.7311
H9_2 H 0.0862 0.1765 0.7311
C12_2 C 0.3200(5) 0.8103(9) 0.7172(8)
C13_2 C 0.6800(5) 0.1897(9) 0.7172(8)
C14_2 C 0.3200(5) 0.1897(9) 0.7172(8)
H10_2 H 0.3724 0.8446 0.6768
H11_2 H 0.6276 0.1554 0.6768
H12_2 H 0.3724 0.1554 0.6768
C15_2 C 0.3348(5) 0.7204(9) 0.8054(7)
C16_2 C 0.6652(5) 0.2796(9) 0.8054(7)
C17_2 C 0.3348(5) 0.2796(9) 0.8054(7)
O2_3 O 0.5000 0.2669(9) 0.7762(11)
N14_2 N 0.4491(7) 0.5994(8) 0.9118(8)
N15_2 N 0.5509(7) 0.4006(8) 0.9118(8)
N16_2 N 0.4491(7) 0.4006(8) 0.9118(8)
C18_2 C 0.4237(6) 0.6786(9) 0.8370(10)
C19_2 C 0.5763(6) 0.3214(9) 0.8370(10)
C20_2 C 0.4237(6) 0.3214(9) 0.8370(10)
B1 B -0.0000 0.5000 0.002(2)
F1 F -0.0000 0.3683(12) 0.029(2)
F3 F -0.0000 0.6317(12) 0.029(2)
F4 F 0.0985(9) 0.5000 0.034(3)
B1_2 B 1.0000 0.5000 0.002(2)
F1_2 F 1.0000 0.3683(12) 0.029(2)
F2 F 0.9015(9) 0.5000 0.034(3)
F3_2 F 1.0000 0.6317(12) 0.029(2)
B1_3 B 0.5000 -0.0000 0.502(2)
F2_2 F 0.4015(9) -0.0000 0.534(3)
F3_3 F 0.5000 0.1317(12) 0.529(2)
F4_2 F 0.5985(9) -0.0000 0.534(3)
B1_4 B 0.5000 1.0000 0.502(2)
F1_3 F 0.5000 0.8683(12) 0.529(2)
F2_3 F 0.4015(9) 1.0000 0.534(3)
F4_3 F 0.5985(9) 1.0000 0.534(3)
O3 O 0.126(6) 0.5000 0.494(5)
H13 H 0.197666 0.5 0.494
O3_2 O 0.874(6) 0.5000 0.494(5)
H13_2 H 0.802334 0.5 0.494
O3_3 O 0.626(6) -0.0000 0.994(5)
H13_3 H 0.697666 -1.11022e-16 0.994
O3_4 O 0.626(6) 1.0000 0.994(5)
H13_4 H 0.697666 1 0.994
O3_5 O 0.374(6) 0.0000 0.994(5)
H13_5 H 0.302334 1.11022e-16 0.994
O3_6 O 0.374(6) 1.0000 0.994(5)
H13_6 H 0.302334 1 0.994
loop_
_geom_bond_atom_site_label_1
_geom_bond_atom_site_label_2
_geom_bond_site_symmetry_1
_geom_bond_site_symmetry_2
Ag1 N1 1_555 1_555
N1 C1 1_555 1_555
C1 H1 1_555 1_555
C2 C1 1_555 1_555
H2 C2 1_555 1_555
N2 C2 1_555 1_555
C3 N2 1_555 1_555
H3 C3 1_555 1_555
C4 N1 1_555 1_555
O1 C5 1_555 1_555
N3 Ag1 1_555 1_555
C5 C4 1_555 1_555
Ag3 N2 1_555 1_555
N10 Ag1 1_555 1_555
C3 C4 1_555 1_555
N3 C5 1_555 1_555
Ag3 N8 1_555 1_555
N5 Ag1_2 1_555 1_555
C7 N5 1_555 1_555
H5 C7 1_555 1_555
C10 C7 1_555 1_555
H8 C10 1_555 1_555
N8 C10 1_555 1_555
N11 Ag1_2 1_555 1_555
C13 N8 1_555 1_555
H11 C13 1_555 1_555
C16 N5 1_555 1_555
O2 C19 1_555 1_555
N15 Ag1_2 1_555 1_555
C19 C16 1_555 1_555
C13 C16 1_555 1_555
N15 C19 1_555 1_555
Ag2 N4 1_555 1_555
Ag4 N7 1_555 1_555
N4 C6 1_555 1_555
C6 H4 1_555 1_555
C9 C6 1_555 1_555
H7 C9 1_555 1_555
N7 C9 1_555 1_555
N13 Ag2 1_555 1_555
C12 N7 1_555 1_555
H10 C12 1_555 1_555
C15 N4 1_555 1_555
C18 O1_2 1_555 1_555
Ag2 N14 1_555 1_555
C12 C15 1_555 1_555
C15 C18 1_555 1_555
N14 C18 1_555 1_555
Ag4 N9 1_555 1_555
N6 Ag2_2 1_555 1_555
C8 N6 1_555 1_555
H6 C8 1_555 1_555
C11 C8 1_555 1_555
H9 C11 1_555 1_555
N9 C11 1_555 1_555
N12 Ag2_2 1_555 1_555
C14 N9 1_555 1_555
H12 C14 1_555 1_555
C17 N6 1_555 1_555
N16 Ag2_2 1_555 1_555
C20 C17 1_555 1_555
C14 C17 1_555 1_555
O2_2 C20 1_555 1_555
N16 C20 1_555 1_555
N1_2 C1_2 1_555 1_555
C1_2 H1_2 1_555 1_555
C2_2 C1_2 1_555 1_555
H2_2 C2_2 1_555 1_555
N12 C2_2 1_555 1_555
C3_2 N12 1_555 1_555
H3_2 C3_2 1_555 1_555
C4_2 N1_2 1_555 1_555
O1_3 C5_2 1_555 1_555
C5_2 C4_2 1_555 1_555
N4_2 C6_2 1_555 1_555
C6_2 H4_2 1_555 1_555
C7_2 N5_2 1_555 1_555
C8_2 N6_2 1_555 1_555
H5_2 C7_2 1_555 1_555
H6_2 C8_2 1_555 1_555
C9_2 C6_2 1_555 1_555
C10_2 C7_2 1_555 1_555
C11_2 C8_2 1_555 1_555
H7_2 C9_2 1_555 1_555
H8_2 C10_2 1_555 1_555
H9_2 C11_2 1_555 1_555
N11 C9_2 1_555 1_555
N13 C10_2 1_555 1_555
N10 C11_2 1_555 1_555
C12_2 N11 1_555 1_555
C13_2 N13 1_555 1_555
C14_2 N10 1_555 1_555
H10_2 C12_2 1_555 1_555
H11_2 C13_2 1_555 1_555
H12_2 C14_2 1_555 1_555
C15_2 N4_2 1_555 1_555
C16_2 N5_2 1_555 1_555
C17_2 N6_2 1_555 1_555
O2_3 C19_2 1_555 1_555
N14_2 N3_2 1_555 1_555
C18_2 O1_3 1_555 1_555
C19_2 C16_2 1_555 1_555
C20_2 C17_2 1_555 1_555
C3_2 C4_2 1_555 1_555
N3_2 C5_2 1_555 1_555
C12_2 C15_2 1_555 1_555
C13_2 C16_2 1_555 1_555
C14_2 C17_2 1_555 1_555
C15_2 C18_2 1_555 1_555
O2_3 C20_2 1_555 1_555
N14_2 C18_2 1_555 1_555
N15_2 N16_2 1_555 1_555
N15_2 C19_2 1_555 1_555
N16_2 C20_2 1_555 1_555
B1 F1 1_555 1_555
F3 B1 1_555 1_555
F4 B1 1_555 1_555
B1_2 F1_2 1_555 1_555
F2 B1_2 1_555 1_555
F3_2 B1_2 1_555 1_555
F2_2 B1_3 1_555 1_555
F3_3 B1_3 1_555 1_555
F4_2 B1_3 1_555 1_555
B1_4 F1_3 1_555 1_555
F2_3 B1_4 1_555 1_555
F4_3 B1_4 1_555 1_555
O3 H13 1_555 1_555
O3_2 H13_2 1_555 1_555
O3_3 H13_3 1_555 1_555
O3_4 H13_4 1_555 1_555
O3_5 H13_5 1_555 1_555
O3_6 H13_6 1_555 1_555

#END
