
###############################################################################
#
# This file contains modified crystal structure data generated from the
# MOF subset of the Cambridge Structural Database (CSD) v543 
# hosted by the Cambridge Crystallographic Data Centre (CCDC).
#
# This work is licensed under the Creative Commons
# Attribution-NonCommercial-ShareAlike 4.0 International License.
# To view a copy of this license, visit
# http://creativecommons.org/licenses/by-nc-sa/4.0/
# or send a letter to
# Creative Commons, PO Box 1866, Mountain View, CA 94042, USA.
#
# CIF created using the CSD Python API on 29 September 2022
# The structure has been converted into the P1 space group
# The structure has a 3D framework
# The original CSD entry PAVXOD is in the triclinic crystal system
# The framework has been calculated to contain at least 10.0% void space
# The void calculation uses a probe of radius 1.32A, grid spacing 0.4
# The framework is charged, counterions have been retained in the structure
#
###############################################################################

data_PAVXOD
_chemical_formula_moiety         '(C44 H44 Cd2 Eu2 N18 O28)n'
_symmetry_cell_setting           triclinic
_symmetry_space_group_name_H-M   'P 1'
_symmetry_Int_Tables_number      1
_space_group_name_Hall           'P 1'
loop_
_symmetry_equiv_pos_site_id
_symmetry_equiv_pos_as_xyz
1 x,y,z
_cell_length_a                   9.9363(8)
_cell_length_b                   12.2898(10)
_cell_length_c                   15.0121(12)
_cell_angle_alpha                71.398(2)
_cell_angle_beta                 87.280(3)
_cell_angle_gamma                88.596(3)
_cell_volume                     1735.39
loop_
_atom_site_label
_atom_site_type_symbol
_atom_site_fract_x
_atom_site_fract_y
_atom_site_fract_z
Cd1 Cd 0.27054(4) 0.48838(4) 0.75865(3)
N1 N 0.1021(5) 0.5196(5) 0.6497(4)
N2 N 0.0924(5) 0.4531(5) 0.8682(4)
H9 H 0.005158 0.375336 0.716843
H10 H 0.006945 0.608128 0.814694
C7 C 0.0904(6) 0.6202(6) 0.5815(4)
H11 H 0.163625 0.672029 0.567820
C8 C 0.0704(6) 0.3481(6) 0.9302(5)
H12 H 0.141249 0.292690 0.940432
O12 O 0.2900(5) 0.6789(4) 0.7498(3)
O13 O 0.3150(5) 0.3047(4) 0.7529(3)
N9 N 0.4523(5) 0.5685(4) 0.6523(3)
N10 N 0.4442(5) 0.4085(4) 0.8594(4)
O10 O 0.1844(5) 0.1375(4) 0.7123(3)
H3 H 0.209302 0.206076 0.717521
H4 H 0.115002 0.116235 0.755986
Eu4 Eu 0.63359(3) 0.00149(2) 0.25268(2)
O14 O 0.4528(5) 0.1518(4) 0.7960(3)
O15 O 0.4294(5) 0.1515(4) 0.5967(3)
O17 O 0.3071(6) 0.0126(4) 0.5833(3)
O6 O 0.5625(5) 0.1229(4) 0.0992(3)
O8 O 0.7394(5) 0.0155(4) 0.0885(3)
H14 H 0.936433 0.242574 0.023239
C12 C 0.7071(6) 0.3677(5) 0.0149(4)
H17 H 0.713750 0.295226 0.067806
H18 H 0.677221 0.429229 0.040981
C18 C 0.6567(6) 0.0936(5) 0.0504(4)
Eu1 Eu 0.36641(3) 0.99851(2) 0.74732(2)
O3 O 0.4352(5) 0.8241(4) 0.7151(3)
O5 O 0.5706(5) 0.8485(4) 0.4033(3)
O7 O 0.6929(6) 0.9874(4) 0.4167(3)
O9 O 0.6081(5) 0.9872(4) 0.7273(4)
H1 H 0.632710 0.920820 0.719440
H2 H 0.647820 0.984500 0.780700
O11 O 0.1754(5) 0.8719(4) 0.7800(4)
H5 H 0.183729 0.819588 0.748033
H6 H 0.097829 0.910688 0.757253
N3 N 0.6248(5) 0.6232(4) 0.5610(3)
N4 N 0.6076(5) 0.3550(4) 0.9499(3)
N5 N 0.5406(5) 0.5350(4) 0.5992(4)
N6 N 0.5185(5) 0.4416(4) 0.9145(4)
C1 C 0.8665(6) 0.5780(5) 0.5510(4)
C2 C 0.8437(6) 0.3969(5) 0.9653(4)
C3 C 0.8789(6) 0.4734(5) 0.6211(5)
H7 H 0.806916 0.420271 0.636411
C4 C 0.8670(7) 0.5068(5) 0.9016(5)
H8 H 0.797321 0.563237 0.889793
C5 C 0.9974(6) 0.4472(5) 0.6688(5)
C6 C 0.9913(7) 0.5325(6) 0.8560(5)
C9 C 0.9752(7) 0.6519(6) 0.5300(4)
H13 H 0.970931 0.723278 0.480902
C10 C 0.9482(6) 0.3175(6) 0.9797(5)
C11 C 0.7378(6) 0.6107(5) 0.4984(4)
H15 H 0.750820 0.683933 0.446687
H16 H 0.716377 0.550812 0.470164
C13 C 0.5906(6) 0.7151(5) 0.5903(4)
C14 C 0.5902(6) 0.2659(5) 0.9162(4)
C15 C 0.6596(6) 0.8272(5) 0.5556(4)
H19 H 0.757405 0.814425 0.564767
H20 H 0.626374 0.875668 0.593706
C16 C 0.6695(6) 0.1564(5) 0.9450(4)
H21 H 0.765653 0.173326 0.926531
H22 H 0.638263 0.105471 0.910777
C17 C 0.6378(6) 0.8913(5) 0.4523(4)
C19 C 0.4793(6) 0.6770(5) 0.6503(4)
C20 C 0.4843(6) 0.3027(5) 0.8574(4)
C21 C 0.3953(6) 0.7317(5) 0.7090(4)
C22 C 0.4134(6) 0.2477(5) 0.7980(4)
O16 O 0.4375(5) 0.8771(4) 0.9008(3)
O18 O 0.2606(5) 0.9845(4) 0.9115(3)
O1 O 0.7100(5) 0.3211(4) 0.2502(3)
O2 O 0.6850(5) 0.6953(4) 0.2471(3)
O3_2 O 0.5648(5) 0.1759(4) 0.2849(3)
O4 O 0.5472(5) 0.8482(4) 0.2040(3)
O9_2 O 0.3919(5) 0.0128(4) 0.2727(4)
H1_2 H 0.367290 0.079180 0.280560
H2_2 H 0.352180 0.015500 0.219300
O11_2 O 0.8246(5) 0.1281(4) 0.2200(4)
H5_2 H 0.816271 0.180412 0.251967
H6_2 H 0.902171 0.089312 0.242747
N3_2 N 0.3752(5) 0.3768(4) 0.4390(3)
N4_2 N 0.3924(5) 0.6450(4) 0.0501(3)
N5_2 N 0.4594(5) 0.4650(4) 0.4008(4)
N6_2 N 0.4815(5) 0.5584(4) 0.0855(4)
N7 N 0.5477(5) 0.4315(4) 0.3477(3)
N8 N 0.5558(5) 0.5915(4) 0.1406(4)
C1_2 C 0.1335(6) 0.4220(5) 0.4490(4)
C2_2 C 0.1563(6) 0.6031(5) 0.0347(4)
C3_2 C 0.1211(6) 0.5266(5) 0.3789(5)
H7_2 H 0.193084 0.579729 0.363589
C4_2 C 0.1330(7) 0.4932(5) 0.0984(5)
H8_2 H 0.202679 0.436763 0.110207
C5_2 C 0.0026(6) 0.5528(5) 0.3312(5)
C6_2 C 0.0087(7) 0.4675(6) 0.1440(5)
C9_2 C 0.0248(7) 0.3481(6) 0.4700(4)
H13_2 H 0.029069 0.276722 0.519098
C10_2 C 0.0518(6) 0.6825(6) 0.0203(5)
C11_2 C 0.2622(6) 0.3893(5) 0.5016(4)
H15_2 H 0.249180 0.316067 0.553313
H16_2 H 0.283623 0.449188 0.529836
C13_2 C 0.4094(6) 0.2849(5) 0.4097(4)
C14_2 C 0.4098(6) 0.7341(5) 0.0838(4)
C15_2 C 0.3404(6) 0.1728(5) 0.4444(4)
H19_2 H 0.242595 0.185575 0.435233
H20_2 H 0.373626 0.124332 0.406294
C16_2 C 0.3305(6) 0.8436(5) 0.0550(4)
H21_2 H 0.234347 0.826674 0.073469
H22_2 H 0.361737 0.894529 0.089223
C17_2 C 0.3622(6) 0.1087(5) 0.5477(4)
C19_2 C 0.5207(6) 0.3230(5) 0.3497(4)
C20_2 C 0.5157(6) 0.6973(5) 0.1426(4)
C21_2 C 0.6047(6) 0.2683(5) 0.2910(4)
C22_2 C 0.5866(6) 0.7523(5) 0.2020(4)
Cd2 Cd 0.72946(4) 0.51162(4) 0.24135(3)
H14_2 H 0.063567 0.757426 0.976761
C12_2 C 0.2929(6) 0.6323(5) 0.9851(4)
H17_2 H 0.286250 0.704774 0.932194
H18_2 H 0.322779 0.570771 0.959019
C18_2 C 0.3433(6) 0.9064(5) 0.9496(4)
O10_2 O 0.8156(5) 0.8625(4) 0.2877(3)
H3_2 H 0.790698 0.793924 0.282479
H4_2 H 0.884998 0.883765 0.244014
N1_2 N 0.8979(5) 0.4804(5) 0.3503(4)
N2_2 N 0.9076(5) 0.5469(5) 0.1318(4)
H9_2 H 0.994842 0.624664 0.283157
H10_2 H 0.993055 0.391872 0.185306
C7_2 C 0.9096(6) 0.3798(6) 0.4185(4)
H11_2 H 0.836375 0.327971 0.432180
C8_2 C 0.9296(6) 0.6519(6) 0.0698(5)
H12_2 H 0.858751 0.707310 0.059568
O19 O 0.9502(7) 0.7750(6) 0.6846(5)
O20 O 0.9048(7) 0.8928(6) 0.7626(6)
O21 O 0.7545(6) 0.7708(5) 0.7574(4)
N11 N 0.8709(7) 0.8116(6) 0.7350(5)
O19_2 O 0.0498(7) 0.2250(6) 0.3154(5)
O20_2 O 0.0952(7) 0.1072(6) 0.2374(6)
O21_2 O 0.2455(6) 0.2292(5) 0.2426(4)
N11_2 N 0.1291(7) 0.1884(6) 0.2650(5)
loop_
_geom_bond_atom_site_label_1
_geom_bond_atom_site_label_2
_geom_bond_site_symmetry_1
_geom_bond_site_symmetry_2
Cd1 N1 1_555 1_555
N2 Cd1 1_555 1_555
C7 N1 1_555 1_555
H11 C7 1_555 1_555
C8 N2 1_555 1_555
H12 C8 1_555 1_555
O12 Cd1 1_555 1_555
O13 Cd1 1_555 1_555
N9 Cd1 1_555 1_555
N10 Cd1 1_555 1_555
H3 O10 1_555 1_555
H4 O10 1_555 1_555
O6 C18 1_555 1_555
O8 C18 1_555 1_555
H17 C12 1_555 1_555
H18 C12 1_555 1_555
Eu4 O6 1_555 1_555
O8 Eu4 1_555 1_555
Eu1 O3 1_555 1_555
O12 C21 1_555 1_555
O13 C22 1_555 1_555
O3 C21 1_555 1_555
O14 C22 1_555 1_555
O5 C17 1_555 1_555
O7 C17 1_555 1_555
O9 Eu1 1_555 1_555
H1 O9 1_555 1_555
H2 O9 1_555 1_555
O11 Eu1 1_555 1_555
H5 O11 1_555 1_555
H6 O11 1_555 1_555
N3 N5 1_555 1_555
N4 N6 1_555 1_555
N5 N9 1_555 1_555
N6 N10 1_555 1_555
N9 C19 1_555 1_555
N10 C20 1_555 1_555
C1 C3 1_555 1_555
C2 C4 1_555 1_555
C3 H7 1_555 1_555
C4 H8 1_555 1_555
C5 C3 1_555 1_555
C9 C1 1_555 1_555
H13 C9 1_555 1_555
C10 C2 1_555 1_555
C11 N3 1_555 1_555
H15 C11 1_555 1_555
H16 C11 1_555 1_555
C13 N3 1_555 1_555
C14 N4 1_555 1_555
C15 C13 1_555 1_555
H19 C15 1_555 1_555
H20 C15 1_555 1_555
C16 C14 1_555 1_555
H21 C16 1_555 1_555
H22 C16 1_555 1_555
C17 C15 1_555 1_555
C19 C13 1_555 1_555
C20 C14 1_555 1_555
C21 C19 1_555 1_555
C22 C20 1_555 1_555
O16 Eu1 1_555 1_555
O18 Eu1 1_555 1_555
C1 C11 1_555 1_555
C4 C6 1_555 1_555
Eu4 O3_2 1_555 1_555
O1 C21_2 1_555 1_555
O2 C22_2 1_555 1_555
O3_2 C21_2 1_555 1_555
O4 C22_2 1_555 1_555
O15 C17_2 1_555 1_555
O17 C17_2 1_555 1_555
O9_2 Eu4 1_555 1_555
H1_2 O9_2 1_555 1_555
H2_2 O9_2 1_555 1_555
O11_2 Eu4 1_555 1_555
H5_2 O11_2 1_555 1_555
H6_2 O11_2 1_555 1_555
N3_2 N5_2 1_555 1_555
N4_2 N6_2 1_555 1_555
N5_2 N7 1_555 1_555
N6_2 N8 1_555 1_555
N7 C19_2 1_555 1_555
N8 C20_2 1_555 1_555
C1_2 C3_2 1_555 1_555
C2_2 C4_2 1_555 1_555
C3_2 H7_2 1_555 1_555
C4_2 H8_2 1_555 1_555
C5_2 C3_2 1_555 1_555
C9_2 C1_2 1_555 1_555
H13_2 C9_2 1_555 1_555
C10_2 C2_2 1_555 1_555
C11_2 N3_2 1_555 1_555
H15_2 C11_2 1_555 1_555
H16_2 C11_2 1_555 1_555
C13_2 N3_2 1_555 1_555
C14_2 N4_2 1_555 1_555
C15_2 C13_2 1_555 1_555
H19_2 C15_2 1_555 1_555
H20_2 C15_2 1_555 1_555
C16_2 C14_2 1_555 1_555
H21_2 C16_2 1_555 1_555
H22_2 C16_2 1_555 1_555
C17_2 C15_2 1_555 1_555
C19_2 C13_2 1_555 1_555
C20_2 C14_2 1_555 1_555
C21_2 C19_2 1_555 1_555
C22_2 C20_2 1_555 1_555
Cd2 O1 1_555 1_555
O2 Cd2 1_555 1_555
N7 Cd2 1_555 1_555
N8 Cd2 1_555 1_555
C1_2 C11_2 1_555 1_555
C4_2 C6_2 1_555 1_555
O16 C18_2 1_555 1_555
O18 C18_2 1_555 1_555
H17_2 C12_2 1_555 1_555
H18_2 C12_2 1_555 1_555
H3_2 O10_2 1_555 1_555
H4_2 O10_2 1_555 1_555
Cd2 N1_2 1_555 1_555
N2_2 Cd2 1_555 1_555
C7_2 N1_2 1_555 1_555
H11_2 C7_2 1_555 1_555
C8_2 N2_2 1_555 1_555
H12_2 C8_2 1_555 1_555
O19 N11 1_555 1_555
O20 N11 1_555 1_555
O21 N11 1_555 1_555
O19_2 N11_2 1_555 1_555
O20_2 N11_2 1_555 1_555
O21_2 N11_2 1_555 1_555

#END
