
###############################################################################
#
# This file contains modified crystal structure data generated from the
# MOF subset of the Cambridge Structural Database (CSD) v543 
# hosted by the Cambridge Crystallographic Data Centre (CCDC).
#
# This work is licensed under the Creative Commons
# Attribution-NonCommercial-ShareAlike 4.0 International License.
# To view a copy of this license, visit
# http://creativecommons.org/licenses/by-nc-sa/4.0/
# or send a letter to
# Creative Commons, PO Box 1866, Mountain View, CA 94042, USA.
#
# CIF created using the CSD Python API on 29 September 2022
# The structure has been converted into the P1 space group
# The structure has a 3D framework
# The original CSD entry PAVXUJ is in the triclinic crystal system
# The framework has been calculated to contain at least 10.0% void space
# The void calculation uses a probe of radius 1.32A, grid spacing 0.4
# The framework is charged, counterions have been retained in the structure
#
###############################################################################

data_PAVXUJ
_chemical_formula_moiety         '(C44 H44 Cd2 Gd2 N18 O28)n'
_symmetry_cell_setting           triclinic
_symmetry_space_group_name_H-M   'P 1'
_symmetry_Int_Tables_number      1
_space_group_name_Hall           'P 1'
loop_
_symmetry_equiv_pos_site_id
_symmetry_equiv_pos_as_xyz
1 x,y,z
_cell_length_a                   9.9438(7)
_cell_length_b                   12.2794(9)
_cell_length_c                   14.9960(10)
_cell_angle_alpha                71.374(2)
_cell_angle_beta                 87.209(2)
_cell_angle_gamma                88.544(3)
_cell_volume                     1733.01
loop_
_atom_site_label
_atom_site_type_symbol
_atom_site_fract_x
_atom_site_fract_y
_atom_site_fract_z
N2 N 0.6022(5) 0.0193(4) 0.1499(4)
N4 N 0.1253(5) 0.1229(4) 0.0614(3)
N6 N 0.0416(5) 0.0345(4) 0.0998(4)
C2 C 0.3662(6) 0.0780(5) 0.0512(4)
C3 C 0.3676(6) 0.0065(5) 0.4022(5)
H7 H 0.298354 0.063413 0.390831
C5 C 0.4920(6) 0.0315(6) 0.3562(5)
H9 H 0.507804 0.106927 0.314454
C6 C 0.5908(6) 0.1195(6) 0.0816(4)
H10 H 0.664574 0.170812 0.067219
C10 C 0.4751(7) 0.1522(6) 0.0303(5)
C14 C 0.0906(6) 0.2148(5) 0.0907(4)
C16 C 0.1588(6) 0.3267(5) 0.0555(4)
H21 H 0.125425 0.375236 0.093499
H22 H 0.256530 0.313887 0.064864
O6 O 0.1919(5) 0.4885(4) 0.9164(3)
O8 O 0.0709(4) 0.3483(4) 0.9031(3)
H14 H 0.470657 0.224081 0.981694
C12 C 0.2380(6) 0.1113(5) 0.9983(4)
H17 H 0.251114 0.185114 0.947117
H18 H 0.216762 0.052019 0.969479
C18 C 0.1383(6) 0.3915(5) 0.9520(4)
Gd4 Gd 0.13372(3) 0.50167(2) 0.75283(2)
O5 O 0.0633(5) 0.6224(4) 0.5998(3)
O7 O 0.2399(5) 0.5153(4) 0.5890(3)
O9 O 0.1069(4) 0.4863(4) 0.2276(4)
H1 H 0.141644 0.451788 0.282774
H2 H 0.140933 0.555945 0.210130
N1 N 0.5926(5) 0.9519(5) 0.3687(4)
N3 N 0.1077(5) 0.8540(4) 0.4504(3)
N5 N 0.0191(5) 0.9414(4) 0.4145(4)
C1 C 0.3441(6) 0.8969(5) 0.4655(4)
C4 C 0.3795(6) 0.9728(5) 0.1220(4)
H8 H 0.307680 0.919528 0.137609
C7 C 0.5703(6) 0.8470(6) 0.4303(5)
H11 H 0.640992 0.791378 0.440417
C8 C 0.4974(6) 0.9468(5) 0.1689(4)
H12 H 0.505261 0.874573 0.216764
C9 C 0.4483(6) 0.8162(5) 0.4798(4)
H13 H 0.436019 0.741005 0.522995
C11 C 0.2070(6) 0.8670(5) 0.5154(4)
H15 H 0.213961 0.794455 0.568361
H16 H 0.176768 0.928472 0.541522
C13 C 0.0905(6) 0.7646(5) 0.4169(4)
C15 C 0.1699(6) 0.6557(5) 0.4453(4)
H19 H 0.265870 0.672910 0.426499
H20 H 0.138646 0.604531 0.411378
C17 C 0.1577(6) 0.5932(5) 0.5512(4)
Cd2 Cd 0.77082(4) 0.98761(3) 0.25903(3)
O2 O 0.7901(4) 0.1786(4) 0.2499(3)
O4 O 0.9349(4) 0.3238(4) 0.2159(3)
N8 N 0.9527(5) 0.0678(4) 0.1531(3)
C20 C 0.9798(6) 0.1765(5) 0.1505(4)
C22 C 0.8954(6) 0.2316(5) 0.2092(4)
Gd2 Gd 0.86628(3) 0.49833(2) 0.24717(2)
O1 O 0.8159(4) 0.8041(4) 0.2529(3)
O3 O 0.9530(4) 0.6502(4) 0.2964(3)
O10 O 0.6855(4) 0.6372(4) 0.2113(3)
H3 H 0.713118 0.705043 0.212380
H4 H 0.621237 0.618232 0.256708
O11 O 0.6757(5) 0.3724(4) 0.2796(3)
H5 H 0.688605 0.316621 0.259490
H6 H 0.598466 0.412850 0.265762
N7 N 0.9446(5) 0.9076(4) 0.3594(3)
C19 C 0.9851(6) 0.8018(5) 0.3578(4)
C21 C 0.9139(6) 0.7465(5) 0.2984(4)
O13 O 0.9367(5) 0.3776(4) 0.4002(3)
O14 O 0.8081(5) 0.5115(4) 0.0836(3)
O15 O 0.7601(5) 0.4847(4) 0.4110(3)
O16 O 0.9291(4) 0.6517(4) 0.0969(3)
Cd1 Cd 0.22918(4) 0.01239(3) 0.74097(3)
O1_2 O 0.1841(4) 0.1959(4) 0.7471(3)
O3_2 O 0.0470(4) 0.3498(4) 0.7036(3)
O10_2 O 0.3145(4) 0.3628(4) 0.7887(3)
H3_2 H 0.286882 0.294957 0.787620
H4_2 H 0.378763 0.381768 0.743292
O11_2 O 0.3243(5) 0.6276(4) 0.7204(3)
H5_2 H 0.311395 0.683379 0.740510
H6_2 H 0.401534 0.587150 0.734238
N7_2 N 0.0554(5) 0.0924(4) 0.6406(3)
C19_2 C 0.0149(6) 0.1982(5) 0.6422(4)
C21_2 C 0.0861(6) 0.2535(5) 0.7016(4)
O12 O 0.0651(4) 0.6762(4) 0.7841(3)
N9 N 0.4074(5) 0.0481(5) 0.6313(4)
O2_2 O 0.2099(4) 0.8214(4) 0.7501(3)
N8_2 N 0.0473(5) 0.9322(4) 0.8469(3)
C20_2 C 0.0202(6) 0.8235(5) 0.8495(4)
C22_2 C 0.1046(6) 0.7684(5) 0.7908(4)
N10 N 0.3978(5) 0.9807(4) 0.8501(4)
O9_2 O 0.8931(4) 0.5137(4) 0.7724(4)
H1_2 H 0.858356 0.548212 0.717226
H2_2 H 0.859067 0.444055 0.789870
N3_2 N 0.8923(5) 0.1460(4) 0.5496(3)
N5_2 N 0.9809(5) 0.0586(4) 0.5855(4)
C1_2 C 0.6559(6) 0.1031(5) 0.5345(4)
C4_2 C 0.6205(6) 0.0272(5) 0.8780(4)
H8_2 H 0.692320 0.080472 0.862391
C7_2 C 0.4297(6) 0.1530(6) 0.5697(5)
H11_2 H 0.359008 0.208622 0.559583
C8_2 C 0.5026(6) 0.0532(5) 0.8311(4)
H12_2 H 0.494739 0.125427 0.783236
C9_2 C 0.5517(6) 0.1838(5) 0.5202(4)
H13_2 H 0.563981 0.258995 0.477005
C11_2 C 0.7930(6) 0.1330(5) 0.4846(4)
H15_2 H 0.786039 0.205545 0.431639
H16_2 H 0.823232 0.071528 0.458478
C13_2 C 0.9095(6) 0.2354(5) 0.5831(4)
C15_2 C 0.8301(6) 0.3443(5) 0.5547(4)
H19_2 H 0.734130 0.327090 0.573501
H20_2 H 0.861354 0.395469 0.588622
C17_2 C 0.8423(6) 0.4068(5) 0.4488(4)
H14_2 H 0.529343 0.775919 0.018306
C12_2 C 0.7620(6) 0.8887(5) 0.0017(4)
H17_2 H 0.748886 0.814886 0.052883
H18_2 H 0.783238 0.947981 0.030521
C18_2 C 0.8617(6) 0.6085(5) 0.0480(4)
N4_2 N 0.8747(5) 0.8771(4) 0.9386(3)
N6_2 N 0.9584(5) 0.9655(4) 0.9002(4)
C2_2 C 0.6338(6) 0.9220(5) 0.9488(4)
C3_2 C 0.6324(6) 0.9935(5) 0.5978(5)
H7_2 H 0.701646 0.936587 0.609169
C5_2 C 0.5080(6) 0.9685(6) 0.6438(5)
H9_2 H 0.492196 0.893073 0.685546
C6_2 C 0.4092(6) 0.8805(6) 0.9184(4)
H10_2 H 0.335426 0.829188 0.932781
C10_2 C 0.5249(7) 0.8478(6) 0.9697(5)
C14_2 C 0.9094(6) 0.7852(5) 0.9093(4)
C16_2 C 0.8412(6) 0.6733(5) 0.9445(4)
H21_2 H 0.874575 0.624764 0.906501
H22_2 H 0.743470 0.686113 0.935136
O17 O 0.2546(5) 0.2715(5) 0.2572(4)
O18 O 0.4053(6) 0.3930(5) 0.2630(5)
O19 O 0.4505(6) 0.2755(5) 0.1841(4)
N11 N 0.3717(6) 0.3125(5) 0.2345(4)
O17_2 O 0.7454(5) 0.7285(5) 0.7428(4)
O18_2 O 0.5947(6) 0.6070(5) 0.7370(5)
O19_2 O 0.5495(6) 0.7245(5) 0.8159(4)
N11_2 N 0.6283(6) 0.6875(5) 0.7655(4)
loop_
_geom_bond_atom_site_label_1
_geom_bond_atom_site_label_2
_geom_bond_site_symmetry_1
_geom_bond_site_symmetry_2
N2 C6 1_555 1_555
N4 N6 1_555 1_555
C3 H7 1_555 1_555
C5 C3 1_555 1_555
H9 C5 1_555 1_555
C6 H10 1_555 1_555
C10 C2 1_555 1_555
C14 N4 1_555 1_555
C16 C14 1_555 1_555
H21 C16 1_555 1_555
H22 C16 1_555 1_555
C6 C10 1_555 1_555
O6 C18 1_555 1_555
O8 C18 1_555 1_555
H17 C12 1_555 1_555
H18 C12 1_555 1_555
Gd4 O6 1_555 1_555
O8 Gd4 1_555 1_555
O5 C17 1_555 1_555
O7 C17 1_555 1_555
H1 O9 1_555 1_555
H2 O9 1_555 1_555
N3 N5 1_555 1_555
C4 H8 1_555 1_555
C7 N1 1_555 1_555
H11 C7 1_555 1_555
H12 C8 1_555 1_555
C9 C1 1_555 1_555
H13 C9 1_555 1_555
C11 N3 1_555 1_555
H15 C11 1_555 1_555
H16 C11 1_555 1_555
C13 N3 1_555 1_555
C15 C13 1_555 1_555
H19 C15 1_555 1_555
H20 C15 1_555 1_555
C17 C15 1_555 1_555
Gd4 O5 1_555 1_555
Cd2 N1 1_555 1_555
O7 Gd4 1_555 1_555
C1 C11 1_555 1_555
C4 C8 1_555 1_555
C7 C9 1_555 1_555
O4 C22 1_555 1_555
C20 N8 1_555 1_555
C22 O2 1_555 1_555
Gd2 O4 1_555 1_555
C20 C22 1_555 1_555
Gd2 O3 1_555 1_555
Cd2 O1 1_555 1_555
O1 C21 1_555 1_555
O3 C21 1_555 1_555
O10 Gd2 1_555 1_555
H3 O10 1_555 1_555
H4 O10 1_555 1_555
O11 Gd2 1_555 1_555
H5 O11 1_555 1_555
H6 O11 1_555 1_555
N7 Cd2 1_555 1_555
C19 N7 1_555 1_555
C21 C19 1_555 1_555
O13 Gd2 1_555 1_555
O14 Gd2 1_555 1_555
O15 Gd2 1_555 1_555
O16 Gd2 1_555 1_555
Gd4 O3_2 1_555 1_555
Cd1 O1_2 1_555 1_555
O1_2 C21_2 1_555 1_555
O3_2 C21_2 1_555 1_555
O10_2 Gd4 1_555 1_555
H3_2 O10_2 1_555 1_555
H4_2 O10_2 1_555 1_555
O11_2 Gd4 1_555 1_555
H5_2 O11_2 1_555 1_555
H6_2 O11_2 1_555 1_555
N7_2 Cd1 1_555 1_555
C19_2 N7_2 1_555 1_555
C21_2 C19_2 1_555 1_555
O12 Gd4 1_555 1_555
N9 Cd1 1_555 1_555
O12 C22_2 1_555 1_555
C20_2 N8_2 1_555 1_555
C22_2 O2_2 1_555 1_555
C20_2 C22_2 1_555 1_555
O13 C17_2 1_555 1_555
O15 C17_2 1_555 1_555
H1_2 O9_2 1_555 1_555
H2_2 O9_2 1_555 1_555
N3_2 N5_2 1_555 1_555
C4_2 H8_2 1_555 1_555
C7_2 N9 1_555 1_555
H11_2 C7_2 1_555 1_555
H12_2 C8_2 1_555 1_555
C9_2 C1_2 1_555 1_555
H13_2 C9_2 1_555 1_555
C11_2 N3_2 1_555 1_555
H15_2 C11_2 1_555 1_555
H16_2 C11_2 1_555 1_555
C13_2 N3_2 1_555 1_555
C15_2 C13_2 1_555 1_555
H19_2 C15_2 1_555 1_555
H20_2 C15_2 1_555 1_555
C17_2 C15_2 1_555 1_555
C1_2 C11_2 1_555 1_555
C4_2 C8_2 1_555 1_555
C7_2 C9_2 1_555 1_555
O14 C18_2 1_555 1_555
O16 C18_2 1_555 1_555
H17_2 C12_2 1_555 1_555
H18_2 C12_2 1_555 1_555
N10 C6_2 1_555 1_555
N4_2 N6_2 1_555 1_555
C3_2 H7_2 1_555 1_555
C5_2 C3_2 1_555 1_555
H9_2 C5_2 1_555 1_555
C6_2 H10_2 1_555 1_555
C10_2 C2_2 1_555 1_555
C14_2 N4_2 1_555 1_555
C16_2 C14_2 1_555 1_555
H21_2 C16_2 1_555 1_555
H22_2 C16_2 1_555 1_555
C6_2 C10_2 1_555 1_555
O17 N11 1_555 1_555
O18 N11 1_555 1_555
O19 N11 1_555 1_555
O17_2 N11_2 1_555 1_555
O18_2 N11_2 1_555 1_555
O19_2 N11_2 1_555 1_555

#END
