
###############################################################################
#
# This file contains modified crystal structure data generated from the
# MOF subset of the Cambridge Structural Database (CSD) v543 
# hosted by the Cambridge Crystallographic Data Centre (CCDC).
#
# This work is licensed under the Creative Commons
# Attribution-NonCommercial-ShareAlike 4.0 International License.
# To view a copy of this license, visit
# http://creativecommons.org/licenses/by-nc-sa/4.0/
# or send a letter to
# Creative Commons, PO Box 1866, Mountain View, CA 94042, USA.
#
# CIF created using the CSD Python API on 29 September 2022
# The structure has been converted into the P1 space group
# The structure has a 3D framework
# The original CSD entry PAVYAQ is in the triclinic crystal system
# The framework has been calculated to contain at least 10.0% void space
# The void calculation uses a probe of radius 1.32A, grid spacing 0.4
# The framework is charged, counterions have been retained in the structure
#
###############################################################################

data_PAVYAQ
_chemical_formula_moiety         '(C44 H44 Cd2 N18 O28 Tb2)n'
_symmetry_cell_setting           triclinic
_symmetry_space_group_name_H-M   'P 1'
_symmetry_Int_Tables_number      1
_space_group_name_Hall           'P 1'
loop_
_symmetry_equiv_pos_site_id
_symmetry_equiv_pos_as_xyz
1 x,y,z
_cell_length_a                   9.9229(8)
_cell_length_b                   12.2423(10)
_cell_length_c                   14.9901(11)
_cell_angle_alpha                71.373(3)
_cell_angle_beta                 87.307(3)
_cell_angle_gamma                88.632(3)
_cell_volume                     1723.62
loop_
_atom_site_label
_atom_site_type_symbol
_atom_site_fract_x
_atom_site_fract_y
_atom_site_fract_z
O10 O 0.1860(5) 0.1356(4) 0.2121(3)
H3 H 0.120076 0.112073 0.253746
H4 H 0.211756 0.199703 0.219198
Tb4 Tb 0.63336(3) 0.00184(2) 0.75275(2)
O14 O 0.4519(5) 0.1498(4) 0.2963(3)
O16 O 0.4295(5) 0.1506(4) 0.0981(3)
O17 O 0.3069(6) 0.0112(4) 0.0849(3)
H14 H 0.030439 0.274930 0.019031
C12 C 0.2638(6) 0.3882(5) 0.0026(4)
H17 H 0.285218 0.448015 0.031095
H18 H 0.250491 0.314413 0.054050
C18 C 0.3620(6) 0.1074(5) 0.0490(4)
Tb1 Tb 0.36664(3) 0.99816(2) 0.24725(2)
O1 O 0.6856(5) 0.6968(4) 0.7476(3)
O2 O 0.7102(4) 0.3202(4) 0.7504(3)
O3 O 0.5481(5) 0.8502(4) 0.7037(3)
O4 O 0.5644(5) 0.1747(4) 0.7846(3)
O5 O 0.4361(5) 0.8787(4) 0.3993(3)
O7 O 0.2596(5) 0.9855(4) 0.4104(3)
O9 O 0.1770(5) 0.8731(4) 0.2794(4)
H1 H 0.104433 0.913369 0.259997
H2 H 0.185332 0.827119 0.245666
O11 O 0.6066(5) 0.9874(4) 0.2293(4)
H5 H 0.630213 0.985231 0.172116
H6 H 0.637131 0.921002 0.267102
N3 N 0.3929(5) 0.6456(4) 0.5497(3)
N4 N 0.3763(5) 0.3762(4) 0.9394(3)
N5 N 0.4816(5) 0.5592(4) 0.5852(4)
N6 N 0.4606(5) 0.4648(4) 0.9008(3)
N7 N 0.5568(5) 0.5926(4) 0.6408(3)
N8 N 0.5480(5) 0.4310(4) 0.8475(3)
C1 C 0.1570(6) 0.6027(5) 0.5345(4)
C2 C 0.1350(6) 0.4215(5) 0.9491(4)
C3 C 0.1336(6) 0.4932(6) 0.5986(5)
H7 H 0.203967 0.437044 0.611009
C4 C 0.1221(6) 0.5266(6) 0.8792(4)
H8 H 0.193877 0.580313 0.864061
C5 C 0.0087(6) 0.4662(6) 0.6439(5)
C6 C 0.0039(6) 0.5526(5) 0.8317(4)
C9 C 0.0516(6) 0.6831(6) 0.5195(4)
H13 H 0.062958 0.758015 0.475344
C10 C 0.0260(6) 0.3469(6) 0.9702(4)
C11 C 0.2935(6) 0.6329(5) 0.4845(4)
H15 H 0.323670 0.571534 0.458037
H16 H 0.286290 0.705892 0.431682
C13 C 0.4107(6) 0.7359(5) 0.5831(4)
C14 C 0.4103(5) 0.2842(5) 0.9101(4)
C15 C 0.3311(6) 0.8454(5) 0.5542(4)
H19 H 0.362538 0.896824 0.588098
H20 H 0.234976 0.828121 0.573048
C16 C 0.3410(6) 0.1709(5) 0.9451(4)
H21 H 0.375009 0.121924 0.907473
H22 H 0.243147 0.183462 0.935402
C17 C 0.3431(6) 0.9082(5) 0.4482(4)
C19 C 0.5168(6) 0.6988(5) 0.6426(4)
C20 C 0.5210(5) 0.3223(5) 0.8502(4)
C21 C 0.5874(6) 0.7539(5) 0.7019(4)
C22 C 0.6044(6) 0.2672(5) 0.7911(4)
Cd2 Cd 0.72982(4) 0.51179(3) 0.74146(3)
O15 O 0.4356(5) 0.8253(4) 0.2154(3)
N1 N 0.9083(5) 0.5466(5) 0.6317(4)
N2 N 0.8986(5) 0.4805(5) 0.8506(4)
H9 H 0.992526 0.389878 0.684477
H10 H 0.996433 0.624765 0.783429
C7 C 0.9295(6) 0.6522(6) 0.5699(4)
H11 H 0.858639 0.707764 0.560299
C8 C 0.9097(6) 0.3795(6) 0.9184(4)
H12 H 0.835957 0.327796 0.932133
Cd1 Cd 0.27018(4) 0.48821(3) 0.25854(3)
N1_2 N 0.0917(5) 0.4534(5) 0.3683(4)
N2_2 N 0.1014(5) 0.5195(5) 0.1494(4)
H9_2 H 0.007474 0.610122 0.315523
H10_2 H 0.003567 0.375235 0.216571
C7_2 C 0.0705(6) 0.3478(6) 0.4301(4)
H11_2 H 0.141361 0.292236 0.439701
C8_2 C 0.0903(6) 0.6205(6) 0.0816(4)
H12_2 H 0.164043 0.672204 0.067867
O12 O 0.3144(5) 0.3032(4) 0.2524(3)
O13 O 0.2898(4) 0.6798(4) 0.2496(3)
N9 N 0.4432(5) 0.4074(4) 0.3592(3)
N10 N 0.4520(5) 0.5690(4) 0.1525(3)
O5_2 O 0.5639(5) 0.1213(4) 0.6007(3)
O7_2 O 0.7404(5) 0.0145(4) 0.5896(3)
O9_2 O 0.8230(5) 0.1269(4) 0.7206(4)
H1_2 H 0.895567 0.086631 0.740003
H2_2 H 0.814668 0.172881 0.754334
O11_2 O 0.3934(5) 0.0126(4) 0.7707(4)
H5_2 H 0.369787 0.014769 0.827884
H6_2 H 0.362869 0.078998 0.732898
N3_2 N 0.6071(5) 0.3544(4) 0.4503(3)
N4_2 N 0.6237(5) 0.6238(4) 0.0606(3)
N5_2 N 0.5184(5) 0.4408(4) 0.4148(4)
N6_2 N 0.5394(5) 0.5352(4) 0.0992(3)
C1_2 C 0.8430(6) 0.3973(5) 0.4655(4)
C2_2 C 0.8650(6) 0.5785(5) 0.0509(4)
C3_2 C 0.8664(6) 0.5068(6) 0.4014(5)
H7_2 H 0.796033 0.562956 0.388991
C4_2 C 0.8779(6) 0.4734(6) 0.1208(4)
H8_2 H 0.806123 0.419687 0.135939
C5_2 C 0.9913(6) 0.5338(6) 0.3561(5)
C6_2 C 0.9961(6) 0.4474(5) 0.1683(4)
C9_2 C 0.9484(6) 0.3169(6) 0.4805(4)
H13_2 H 0.937042 0.241985 0.524656
C10_2 C 0.9740(6) 0.6531(6) 0.0298(4)
C11_2 C 0.7065(6) 0.3671(5) 0.5155(4)
H15_2 H 0.676330 0.428466 0.541963
H16_2 H 0.713710 0.294108 0.568318
C13_2 C 0.5893(6) 0.2641(5) 0.4169(4)
C14_2 C 0.5897(5) 0.7158(5) 0.0899(4)
C15_2 C 0.6689(6) 0.1546(5) 0.4458(4)
H19_2 H 0.637462 0.103176 0.411902
H20_2 H 0.765024 0.171879 0.426952
C16_2 C 0.6590(6) 0.8291(5) 0.0549(4)
H21_2 H 0.624991 0.878076 0.092527
H22_2 H 0.756853 0.816538 0.064598
C17_2 C 0.6569(6) 0.0918(5) 0.5518(4)
C19_2 C 0.4832(6) 0.3012(5) 0.3574(4)
C20_2 C 0.4790(5) 0.6777(5) 0.1498(4)
C21_2 C 0.4126(6) 0.2461(5) 0.2981(4)
C22_2 C 0.3956(6) 0.7328(5) 0.2089(4)
O6 O 0.5705(5) 0.8494(4) 0.9019(3)
O8 O 0.6931(6) 0.9888(4) 0.9151(3)
H14_2 H 0.969561 0.725070 0.980969
C12_2 C 0.7362(6) 0.6118(5) 0.9974(4)
H17_2 H 0.714782 0.551985 0.968905
H18_2 H 0.749509 0.685587 0.945950
C18_2 C 0.6380(6) 0.8926(5) 0.9510(4)
O10_2 O 0.8140(5) 0.8644(4) 0.7879(3)
H3_2 H 0.879924 0.887927 0.746254
H4_2 H 0.788244 0.800297 0.780802
O18 O 0.2456(6) 0.2283(5) 0.7432(4)
O19 O 0.0500(7) 0.2231(6) 0.8162(5)
O20 O 0.0944(7) 0.1072(7) 0.7372(7)
N11 N 0.1284(7) 0.1869(6) 0.7657(5)
O18_2 O 0.7544(6) 0.7717(5) 0.2568(4)
O19_2 O 0.9500(7) 0.7769(6) 0.1838(5)
O20_2 O 0.9056(7) 0.8928(7) 0.2628(7)
N11_2 N 0.8716(7) 0.8131(6) 0.2343(5)
loop_
_geom_bond_atom_site_label_1
_geom_bond_atom_site_label_2
_geom_bond_site_symmetry_1
_geom_bond_site_symmetry_2
H3 O10 1_555 1_555
H4 O10 1_555 1_555
O16 C18 1_555 1_555
O17 C18 1_555 1_555
H17 C12 1_555 1_555
H18 C12 1_555 1_555
Tb1 O5 1_555 1_555
O1 C21 1_555 1_555
O2 C22 1_555 1_555
O3 C21 1_555 1_555
O4 C22 1_555 1_555
O5 C17 1_555 1_555
O7 Tb1 1_555 1_555
O9 Tb1 1_555 1_555
H1 O9 1_555 1_555
H2 O9 1_555 1_555
O11 Tb1 1_555 1_555
H5 O11 1_555 1_555
H6 O11 1_555 1_555
N3 N5 1_555 1_555
N4 N6 1_555 1_555
N5 N7 1_555 1_555
N6 N8 1_555 1_555
N7 C19 1_555 1_555
N8 C20 1_555 1_555
C1 C3 1_555 1_555
C2 C4 1_555 1_555
C3 H7 1_555 1_555
C4 H8 1_555 1_555
C5 C3 1_555 1_555
C9 C1 1_555 1_555
H13 C9 1_555 1_555
C10 C2 1_555 1_555
C11 N3 1_555 1_555
H15 C11 1_555 1_555
H16 C11 1_555 1_555
C13 N3 1_555 1_555
C14 N4 1_555 1_555
C15 C13 1_555 1_555
H19 C15 1_555 1_555
H20 C15 1_555 1_555
C16 C14 1_555 1_555
H21 C16 1_555 1_555
H22 C16 1_555 1_555
C17 O7 1_555 1_555
C19 C13 1_555 1_555
C20 C14 1_555 1_555
C21 C19 1_555 1_555
C22 C20 1_555 1_555
Tb4 O4 1_555 1_555
Cd2 O1 1_555 1_555
O15 Tb1 1_555 1_555
O2 Cd2 1_555 1_555
N7 Cd2 1_555 1_555
N8 Cd2 1_555 1_555
C1 C11 1_555 1_555
C4 C6 1_555 1_555
C15 C17 1_555 1_555
Cd2 N1 1_555 1_555
N2 Cd2 1_555 1_555
C7 N1 1_555 1_555
H11 C7 1_555 1_555
C8 N2 1_555 1_555
H12 C8 1_555 1_555
Cd1 N1_2 1_555 1_555
N2_2 Cd1 1_555 1_555
C7_2 N1_2 1_555 1_555
H11_2 C7_2 1_555 1_555
C8_2 N2_2 1_555 1_555
H12_2 C8_2 1_555 1_555
O12 Cd1 1_555 1_555
O13 Cd1 1_555 1_555
N9 Cd1 1_555 1_555
N10 Cd1 1_555 1_555
Tb4 O5_2 1_555 1_555
O12 C21_2 1_555 1_555
O13 C22_2 1_555 1_555
O14 C21_2 1_555 1_555
O15 C22_2 1_555 1_555
O5_2 C17_2 1_555 1_555
O7_2 Tb4 1_555 1_555
O9_2 Tb4 1_555 1_555
H1_2 O9_2 1_555 1_555
H2_2 O9_2 1_555 1_555
O11_2 Tb4 1_555 1_555
H5_2 O11_2 1_555 1_555
H6_2 O11_2 1_555 1_555
N3_2 N5_2 1_555 1_555
N4_2 N6_2 1_555 1_555
N5_2 N9 1_555 1_555
N6_2 N10 1_555 1_555
N9 C19_2 1_555 1_555
N10 C20_2 1_555 1_555
C1_2 C3_2 1_555 1_555
C2_2 C4_2 1_555 1_555
C3_2 H7_2 1_555 1_555
C4_2 H8_2 1_555 1_555
C5_2 C3_2 1_555 1_555
C9_2 C1_2 1_555 1_555
H13_2 C9_2 1_555 1_555
C10_2 C2_2 1_555 1_555
C11_2 N3_2 1_555 1_555
H15_2 C11_2 1_555 1_555
H16_2 C11_2 1_555 1_555
C13_2 N3_2 1_555 1_555
C14_2 N4_2 1_555 1_555
C15_2 C13_2 1_555 1_555
H19_2 C15_2 1_555 1_555
H20_2 C15_2 1_555 1_555
C16_2 C14_2 1_555 1_555
H21_2 C16_2 1_555 1_555
H22_2 C16_2 1_555 1_555
C17_2 O7_2 1_555 1_555
C19_2 C13_2 1_555 1_555
C20_2 C14_2 1_555 1_555
C21_2 C19_2 1_555 1_555
C22_2 C20_2 1_555 1_555
C1_2 C11_2 1_555 1_555
C4_2 C6_2 1_555 1_555
C15_2 C17_2 1_555 1_555
O6 C18_2 1_555 1_555
O8 C18_2 1_555 1_555
H17_2 C12_2 1_555 1_555
H18_2 C12_2 1_555 1_555
H3_2 O10_2 1_555 1_555
H4_2 O10_2 1_555 1_555
O18 N11 1_555 1_555
O19 N11 1_555 1_555
O20 N11 1_555 1_555
O18_2 N11_2 1_555 1_555
O19_2 N11_2 1_555 1_555
O20_2 N11_2 1_555 1_555

#END
