
###############################################################################
#
# This file contains modified crystal structure data generated from the
# MOF subset of the Cambridge Structural Database (CSD) v543 
# hosted by the Cambridge Crystallographic Data Centre (CCDC).
#
# This work is licensed under the Creative Commons
# Attribution-NonCommercial-ShareAlike 4.0 International License.
# To view a copy of this license, visit
# http://creativecommons.org/licenses/by-nc-sa/4.0/
# or send a letter to
# Creative Commons, PO Box 1866, Mountain View, CA 94042, USA.
#
# CIF created using the CSD Python API on 29 September 2022
# The structure has been converted into the P1 space group
# The structure has a 3D framework
# The original CSD entry PAWCAV is in the monoclinic crystal system
# The original CSD entry PAWCAV is in a Sohncke space group
# The framework has been calculated to contain at least 10.0% void space
# The void calculation uses a probe of radius 1.32A, grid spacing 0.4
#
###############################################################################

data_PAWCAV
_chemical_formula_moiety         '(C64 H76 N8 O16 Zn4)n'
_symmetry_cell_setting           triclinic
_symmetry_space_group_name_H-M   'P 1'
_symmetry_Int_Tables_number      1
_space_group_name_Hall           'P 1'
loop_
_symmetry_equiv_pos_site_id
_symmetry_equiv_pos_as_xyz
1 x,y,z
_cell_length_a                   10.1024(5)
_cell_length_b                   12.2598(6)
_cell_length_c                   16.1871(8)
_cell_angle_alpha                90
_cell_angle_beta                 104.355(2)
_cell_angle_gamma                90
_cell_volume                     1942.23
loop_
_atom_site_label
_atom_site_type_symbol
_atom_site_fract_x
_atom_site_fract_y
_atom_site_fract_z
N4 N 0.2512(5) 0.1362(4) 0.2889(3)
C30 C 0.2898(7) 0.0427(6) 0.2633(5)
H36 H 0.37585 0.039861 0.249497
C31 C 0.1313(7) 0.1397(5) 0.3090(5)
H37 H 0.102112 0.206954 0.327678
C32 C 0.0469(7) 0.0492(5) 0.3040(5)
Zn4 Zn 0.35796(6) 0.28155(4) 0.29101(3)
Zn1 Zn 0.61601(6) 0.16813(4) 0.20201(3)
O1 O 0.6554(5) 0.1313(3) 0.3229(2)
O2 O 0.5329(4) 0.2509(3) 0.3762(2)
O5 O 0.4387(3) 0.2539(3) 0.1827(2)
O6 O 0.2298(4) 0.3107(4) 0.1546(3)
O9 O 0.9045(6) 0.8603(5) 0.3112(4)
N1 N 0.7356(4) 0.3040(4) 0.2030(3)
N2 N 0.9477(4) 0.6762(4) 0.2378(3)
C1 C 0.6270(5) 0.1824(4) 0.3844(3)
C2 C 0.7143(6) 0.1614(5) 0.4750(3)
C3 C 0.8382(6) 0.0867(6) 0.4771(4)
H2 H 0.813906 0.028785 0.433338
H3 H 0.915607 0.129395 0.466585
C4 C 0.8754(6) 0.0371(6) 0.5674(4)
H4 H 0.956625 0.07387 0.603516
C5 C 0.7485(6) 0.0553(5) 0.6040(3)
H6 H 0.769822 0.115659 0.646807
C6 C 0.6317(6) 0.0942(5) 0.5280(3)
C8 C 0.7634(9) 0.2713(6) 0.5141(4)
H7 H 0.824258 0.304511 0.482516
H8 H 0.813028 0.2612 0.573795
H9 H 0.684662 0.319119 0.511197
H10 H 0.490579 0.024671 0.426004
C10 C 0.5265(10) 0.1629(9) 0.5587(5)
H13 H 0.460018 0.193118 0.509314
H14 H 0.573058 0.222593 0.594664
H15 H 0.478999 0.116918 0.591697
C11 C 0.3293(5) 0.2823(4) 0.1281(3)
C12 C 0.3221(5) 0.2827(5) 0.0321(3)
C13 C 0.4588(8) 0.2585(6) 0.0114(4)
H16 H 0.476895 0.179107 0.013044
H17 H 0.534689 0.295398 0.052432
H22 H 0.12868 0.214469 0.00039
H23 H 0.247436 0.124765 0.020424
H25 H 0.114901 0.44363 0.034566
C20 C 0.3774(8) 0.4848(5) 0.0487(4)
H27 H 0.364947 0.555241 0.019207
H28 H 0.473437 0.462684 0.059605
H29 H 0.351572 0.491378 0.102982
C21 C 0.6984(6) 0.4004(5) 0.2319(4)
H30 H 0.617486 0.403716 0.25174
C22 C 0.7761(5) 0.4945(5) 0.2331(4)
H31 H 0.747492 0.561529 0.252461
C23 C 0.8962(5) 0.4891(4) 0.2057(3)
C24 C 0.9344(6) 0.3887(5) 0.1788(4)
C25 C 0.8528(5) 0.3005(5) 0.1795(4)
H33 H 0.881249 0.232282 0.162036
C26 C 0.9825(5) 0.5857(4) 0.2052(3)
C27 C 0.9999(5) 0.8548(5) 0.2751(4)
O10 O 0.3755(5) 0.4643(4) 0.3056(3)
O11 O 0.2470(5) 0.3626(4) 0.3640(3)
O12 O 0.7400(6) 0.0640(4) 0.1508(4)
O13 O 0.5328(5) 0.0179(5) 0.1441(4)
O7 O 0.2600(6) 0.5640(4) 0.8492(4)
O8 O 0.4672(5) 0.5179(5) 0.8559(4)
C14 C 0.4424(10) 0.3041(6) 0.9205(4)
H18 H 0.527865 0.339904 0.915423
H19 H 0.420334 0.244599 0.877916
C15 C 0.3246(6) 0.3874(4) 0.9058(3)
H20 H 0.244112 0.353791 0.86509
C16 C 0.2875(5) 0.3991(4) 0.9931(3)
C17 C 0.3530(6) 0.4940(5) 0.8682(3)
C18 C 0.2188(11) 0.1948(6) 0.9926(5)
H21 H 0.214034 0.18886 0.931531
C19 C 0.1358(7) 0.4325(7) 0.9792(5)
H24 H 0.119218 0.500412 0.946251
H26 H 0.077172 0.374728 0.947915
Zn3 Zn 0.38399(6) 0.66813(4) 0.79799(3)
O3 O 0.6245(5) 0.9643(4) 0.6944(3)
O4 O 0.7530(5) 0.8626(4) 0.6360(3)
H5 H 0.895372 0.958273 0.564978
C7 C 0.7076(6) 0.9545(5) 0.6477(3)
C9 C 0.5594(7) 0.9975(6) 0.4755(4)
H11 H 0.514964 0.952655 0.510906
H12 H 0.626657 0.953258 0.455984
Zn5 Zn 0.64204(6) 0.78155(4) 0.70899(3)
H24_2 H 0.880782 0.000412 0.053749
O1_2 O 0.3446(5) 0.6313(3) 0.6771(2)
O2_2 O 0.4671(4) 0.7509(3) 0.6238(2)
O5_2 O 0.5613(3) 0.7539(3) 0.8173(2)
O6_2 O 0.7702(4) 0.8107(4) 0.8454(3)
N1_2 N 0.2644(4) 0.8040(4) 0.7970(3)
C1_2 C 0.3730(5) 0.6824(4) 0.6156(3)
C2_2 C 0.2857(6) 0.6614(5) 0.5250(3)
C3_2 C 0.1618(6) 0.5867(6) 0.5229(4)
H2_2 H 0.186094 0.528785 0.566662
H3_2 H 0.084393 0.629395 0.533415
C4_2 C 0.1246(6) 0.5371(6) 0.4326(4)
H4_2 H 0.043375 0.57387 0.396484
H5_2 H 0.104628 0.458273 0.435022
C5_2 C 0.2515(6) 0.5553(5) 0.3960(3)
H6_2 H 0.230178 0.615659 0.353193
C6_2 C 0.3683(6) 0.5942(5) 0.4720(3)
C7_2 C 0.2924(6) 0.4545(5) 0.3523(3)
C8_2 C 0.2366(9) 0.7713(6) 0.4859(4)
H7_2 H 0.175742 0.804511 0.517484
H8_2 H 0.186972 0.7612 0.426205
H9_2 H 0.315338 0.819119 0.488803
C9_2 C 0.4406(7) 0.4975(6) 0.5245(4)
H10_2 H 0.509421 0.524671 0.573996
H11_2 H 0.485036 0.452655 0.489094
H12_2 H 0.373343 0.453258 0.544016
C10_2 C 0.4735(10) 0.6629(9) 0.4413(5)
H13_2 H 0.539982 0.693118 0.490686
H14_2 H 0.426942 0.722593 0.405336
H15_2 H 0.521001 0.616918 0.408303
C11_2 C 0.6707(5) 0.7823(4) 0.8719(3)
C12_2 C 0.6779(5) 0.7827(5) 0.9679(3)
C13_2 C 0.5412(8) 0.7585(6) 0.9886(4)
H16_2 H 0.523105 0.679107 0.986956
H17_2 H 0.465311 0.795398 0.947568
H22_2 H 0.87132 0.714469 0.99961
H23_2 H 0.752564 0.624765 0.979576
H25_2 H 0.885099 0.94363 0.965434
C20_2 C 0.6226(8) 0.9848(5) 0.9513(4)
H28_2 H 0.526563 0.962684 0.940395
H29_2 H 0.648428 0.991378 0.897018
C21_2 C 0.3016(6) 0.9004(5) 0.7681(4)
H30_2 H 0.382514 0.903716 0.74826
C22_2 C 0.2239(5) 0.9945(5) 0.7669(4)
C23_2 C 0.1038(5) 0.9891(4) 0.7943(3)
C24_2 C 0.0656(6) 0.8887(5) 0.8212(4)
C25_2 C 0.1472(5) 0.8005(5) 0.8205(4)
H33_2 H 0.118751 0.732282 0.837964
N5 N 0.7488(5) 0.6362(4) 0.7111(3)
N3 N 0.9686(4) 0.2631(4) 0.7618(3)
H1 H 0.897873 0.259672 0.784252
H34 H 0.939622 0.082723 0.817772
C28 C 0.9095(5) 0.4502(4) 0.7236(3)
C29 C 0.7860(7) 0.4484(6) 0.7449(5)
H35 H 0.753683 0.383188 0.764913
C30_2 C 0.7102(7) 0.5427(6) 0.7367(5)
H36_2 H 0.62415 0.539861 0.750503
C31_2 C 0.8687(7) 0.6397(5) 0.6910(5)
H37_2 H 0.897888 0.706954 0.672322
C32_2 C 0.9531(7) 0.5492(5) 0.6960(5)
N3_2 N 0.0314(4) 0.7631(4) 0.2382(3)
H1_2 H 0.102127 0.759672 0.215748
H32 H 0.016192 0.381753 0.160376
H34_2 H 0.060378 0.582723 0.182228
C28_2 C 0.0905(5) 0.9502(4) 0.2764(3)
C29_2 C 0.2140(7) 0.9484(6) 0.2551(5)
H35_2 H 0.246317 0.883188 0.235087
H38 H 0.961846 0.054311 0.318879
O9_2 O 0.0955(6) 0.3603(5) 0.6888(4)
N2_2 N 0.0523(4) 0.1762(4) 0.7622(3)
H27_2 H 0.635053 0.055241 0.980793
H31_2 H 0.252508 0.061529 0.747539
C26_2 C 0.0175(5) 0.0857(4) 0.7948(3)
C27_2 C 0.0001(5) 0.3548(5) 0.7249(4)
H38_2 H 0.038154 0.554311 0.681121
C14_2 C 0.5576(10) 0.8041(6) 0.0795(4)
H18_2 H 0.472135 0.839904 0.084577
H19_2 H 0.579666 0.744599 0.122084
C15_2 C 0.6754(6) 0.8874(4) 0.0942(3)
H20_2 H 0.755888 0.853791 0.13491
C16_2 C 0.7125(5) 0.8991(4) 0.0069(3)
C17_2 C 0.6470(6) 0.9940(5) 0.1318(3)
C18_2 C 0.7812(11) 0.6948(6) 0.0074(5)
H21_2 H 0.785966 0.68886 0.068469
C19_2 C 0.8642(7) 0.9325(7) 0.0208(5)
H26_2 H 0.922828 0.874728 0.052085
H32_2 H 0.983808 0.881753 0.839624
loop_
_geom_bond_atom_site_label_1
_geom_bond_atom_site_label_2
_geom_bond_site_symmetry_1
_geom_bond_site_symmetry_2
N4 C30 1_555 1_555
H36 C30 1_555 1_555
C31 N4 1_555 1_555
H37 C31 1_555 1_555
Zn4 N4 1_555 1_555
C31 C32 1_555 1_555
Zn1 O1 1_555 1_555
Zn4 O2 1_555 1_555
O1 C1 1_555 1_555
O2 C1 1_555 1_555
O5 Zn1 1_555 1_555
O6 Zn4 1_555 1_555
O9 C27 1_555 1_555
N1 Zn1 1_555 1_555
C1 C2 1_555 1_555
C2 C3 1_555 1_555
C3 H2 1_555 1_555
H3 C3 1_555 1_555
C4 C3 1_555 1_555
H4 C4 1_555 1_555
C5 C4 1_555 1_555
H6 C5 1_555 1_555
C6 C2 1_555 1_555
C8 C2 1_555 1_555
H7 C8 1_555 1_555
H8 C8 1_555 1_555
H9 C8 1_555 1_555
C10 C6 1_555 1_555
H13 C10 1_555 1_555
H14 C10 1_555 1_555
H15 C10 1_555 1_555
C11 O5 1_555 1_555
C12 C11 1_555 1_555
C13 C12 1_555 1_555
H16 C13 1_555 1_555
H17 C13 1_555 1_555
H27 C20 1_555 1_555
H28 C20 1_555 1_555
H29 C20 1_555 1_555
C21 N1 1_555 1_555
H30 C21 1_555 1_555
C22 C21 1_555 1_555
H31 C22 1_555 1_555
C23 C22 1_555 1_555
C24 C23 1_555 1_555
C25 N1 1_555 1_555
H33 C25 1_555 1_555
C26 N2 1_555 1_555
O10 Zn4 1_555 1_555
O11 Zn4 1_555 1_555
O12 Zn1 1_555 1_555
O13 Zn1 1_555 1_555
Zn4 O5 1_555 1_555
O6 C11 1_555 1_555
C5 C6 1_555 1_555
C23 C26 1_555 1_555
C24 C25 1_555 1_555
O7 C17 1_555 1_555
O8 C17 1_555 1_555
H18 C14 1_555 1_555
H19 C14 1_555 1_555
C15 C14 1_555 1_555
H20 C15 1_555 1_555
C17 C15 1_555 1_555
H21 C18 1_555 1_555
C19 C16 1_555 1_555
H24 C19 1_555 1_555
H26 C19 1_555 1_555
Zn3 O7 1_555 1_555
O8 Zn3 1_555 1_555
C15 C16 1_555 1_555
O3 C7 1_555 1_555
O4 C7 1_555 1_555
H11 C9 1_555 1_555
H12 C9 1_555 1_555
Zn5 O3 1_555 1_555
O4 Zn5 1_555 1_555
Zn3 O1_2 1_555 1_555
Zn5 O2_2 1_555 1_555
O1_2 C1_2 1_555 1_555
O2_2 C1_2 1_555 1_555
O10 C7_2 1_555 1_555
O11 C7_2 1_555 1_555
O5_2 Zn3 1_555 1_555
O6_2 Zn5 1_555 1_555
N1_2 Zn3 1_555 1_555
C1_2 C2_2 1_555 1_555
C2_2 C3_2 1_555 1_555
C3_2 H2_2 1_555 1_555
H3_2 C3_2 1_555 1_555
C4_2 C3_2 1_555 1_555
H4_2 C4_2 1_555 1_555
H5_2 C4_2 1_555 1_555
C5_2 C4_2 1_555 1_555
H6_2 C5_2 1_555 1_555
C6_2 C2_2 1_555 1_555
C7_2 C5_2 1_555 1_555
C8_2 C2_2 1_555 1_555
H7_2 C8_2 1_555 1_555
H8_2 C8_2 1_555 1_555
H9_2 C8_2 1_555 1_555
C9_2 C6_2 1_555 1_555
H10_2 C9_2 1_555 1_555
H11_2 C9_2 1_555 1_555
H12_2 C9_2 1_555 1_555
C10_2 C6_2 1_555 1_555
H13_2 C10_2 1_555 1_555
H14_2 C10_2 1_555 1_555
H15_2 C10_2 1_555 1_555
C11_2 O5_2 1_555 1_555
C12_2 C11_2 1_555 1_555
C13_2 C12_2 1_555 1_555
H16_2 C13_2 1_555 1_555
H17_2 C13_2 1_555 1_555
H28_2 C20_2 1_555 1_555
H29_2 C20_2 1_555 1_555
C21_2 N1_2 1_555 1_555
H30_2 C21_2 1_555 1_555
C22_2 C21_2 1_555 1_555
C23_2 C22_2 1_555 1_555
C24_2 C23_2 1_555 1_555
C25_2 N1_2 1_555 1_555
H33_2 C25_2 1_555 1_555
N5 Zn5 1_555 1_555
Zn5 O5_2 1_555 1_555
O6_2 C11_2 1_555 1_555
C5_2 C6_2 1_555 1_555
C24_2 C25_2 1_555 1_555
N3 H1 1_555 1_555
N5 C30_2 1_555 1_555
C29 C28 1_555 1_555
H35 C29 1_555 1_555
C30_2 C29 1_555 1_555
H36_2 C30_2 1_555 1_555
C31_2 N5 1_555 1_555
H37_2 C31_2 1_555 1_555
C32_2 C28 1_555 1_555
C31_2 C32_2 1_555 1_555
N3_2 H1_2 1_555 1_555
C29_2 C28_2 1_555 1_555
H35_2 C29_2 1_555 1_555
O9_2 C27_2 1_555 1_555
C26_2 N2_2 1_555 1_555
H18_2 C14_2 1_555 1_555
H19_2 C14_2 1_555 1_555
C15_2 C14_2 1_555 1_555
H20_2 C15_2 1_555 1_555
C17_2 C15_2 1_555 1_555
H21_2 C18_2 1_555 1_555
C19_2 C16_2 1_555 1_555
H26_2 C19_2 1_555 1_555
C15_2 C16_2 1_555 1_555

#END
