
###############################################################################
#
# This file contains modified crystal structure data generated from the
# MOF subset of the Cambridge Structural Database (CSD) v543 
# hosted by the Cambridge Crystallographic Data Centre (CCDC).
#
# This work is licensed under the Creative Commons
# Attribution-NonCommercial-ShareAlike 4.0 International License.
# To view a copy of this license, visit
# http://creativecommons.org/licenses/by-nc-sa/4.0/
# or send a letter to
# Creative Commons, PO Box 1866, Mountain View, CA 94042, USA.
#
# CIF created using the CSD Python API on 29 September 2022
# The structure has been converted into the P1 space group
# The structure has a 3D framework
# The original CSD entry PAXHOO is in the monoclinic crystal system
# The framework has been calculated to contain at least 10.0% void space
# The void calculation uses a probe of radius 1.32A, grid spacing 0.4
#
###############################################################################

data_PAXHOO
_chemical_formula_moiety         '(C72 H72 Mg4 N12 O24)n'
_symmetry_cell_setting           triclinic
_symmetry_space_group_name_H-M   'P 1'
_symmetry_Int_Tables_number      1
_space_group_name_Hall           'P 1'
loop_
_symmetry_equiv_pos_site_id
_symmetry_equiv_pos_as_xyz
1 x,y,z
_cell_length_a                   7.5530(8)
_cell_length_b                   20.872(2)
_cell_length_c                   15.1614(17)
_cell_angle_alpha                90
_cell_angle_beta                 97.172(2)
_cell_angle_gamma                90
_cell_volume                     2371.44
loop_
_atom_site_label
_atom_site_type_symbol
_atom_site_fract_x
_atom_site_fract_y
_atom_site_fract_z
C13 C 0.0208(5) 0.6087(2) 0.4190(3)
H13 H 0.1010 0.6395 0.3956
H14 H 0.0214 0.5684 0.3858
H15 H 0.0613 0.6007 0.4820
Ag1 Ag 0.00456(3) 0.51895(2) 0.11387(2)
N6 N 0.2532(4) 0.47816(14) 0.1921(2)
N5 N 0.1406(4) 0.55610(14) 0.97839(19)
Ag2 Ag 0.99544(3) 0.01895(2) 0.38613(2)
H5 H 0.0439 0.3067 0.0256
C13_2 C 0.9792(5) 0.1087(2) 0.0810(3)
H13_2 H 0.8990 0.1395 0.1044
H14_2 H 0.9786 0.0684 0.1142
H15_2 H 0.9387 0.1007 0.0180
N5_2 N 0.8594(4) 0.05610(14) 0.52161(19)
N6_2 N 0.7468(4) 0.97816(14) 0.3079(2)
Mg1 Mg 0.46414(14) 0.30567(5) 0.49846(7)
O1 O 0.4079(3) 0.21091(10) 0.51897(15)
O2 O 0.7140(3) 0.27293(10) 0.48295(14)
O3 O 0.3675(3) 0.29344(10) 0.36727(14)
O4 O 0.5399(3) 0.39471(10) 0.45855(14)
O5 O 0.2215(3) 0.34195(11) 0.52230(15)
O6 O 0.5378(3) 0.32449(11) 0.63041(14)
C1 C 0.4125(5) 0.09756(16) 0.5266(3)
H1 H 0.2860 0.1040 0.5324
H2 H 0.4237 0.0716 0.4737
H3 H 0.4706 0.0754 0.5794
C2 C 0.5004(4) 0.16141(15) 0.5178(2)
C3 C 0.6859(4) 0.16204(15) 0.5076(2)
C4 C 0.7833(4) 0.21844(15) 0.4882(2)
C5 C 0.9747(4) 0.21140(16) 0.4725(3)
H6 H 0.9819 0.1829 0.4218
C6 C 0.7806(4) 0.10356(16) 0.5151(2)
C7 C 0.2346(5) 0.30994(17) 0.2198(2)
H7 H 0.1720 0.2699 0.2291
H8 H 0.1485 0.3422 0.1945
H9 H 0.3230 0.3024 0.1788
C8 C 0.3271(4) 0.33355(16) 0.3070(2)
C9 C 0.3687(4) 0.40045(15) 0.3174(2)
C10 C 0.4792(4) 0.42682(16) 0.3923(2)
C11 C 0.5276(5) 0.49715(17) 0.3897(2)
H10 H 0.6298 0.5058 0.4345
H11 H 0.5588 0.5080 0.3306
H12 H 0.4256 0.5232 0.4021
C12 C 0.3057(5) 0.44311(16) 0.2478(2)
C14 C 0.1663(4) 0.36433(15) 0.5907(2)
C15 C 0.2725(4) 0.36567(15) 0.6752(2)
C16 C 0.4552(5) 0.34702(15) 0.6901(2)
C17 C 0.5536(5) 0.35439(18) 0.7815(2)
H16 H 0.6817 0.3484 0.7793
H17 H 0.5324 0.3973 0.8041
H18 H 0.5113 0.3222 0.8210
C18 C 0.1939(5) 0.39146(16) 0.7481(2)
N3 N 0.1292(4) 0.41187(14) 0.8066(2)
H10_2 H 0.3702 0.0058 0.0655
H11_2 H 0.4412 0.0080 0.1694
H12_2 H 0.5744 0.0232 0.0979
Mg1_2 Mg 0.53586(14) 0.80567(5) 0.00154(7)
O2_2 O 0.2860(3) 0.77293(10) 0.01705(14)
O3_2 O 0.6325(3) 0.79344(10) 0.13273(14)
O4_2 O 0.4601(3) 0.89471(10) 0.04145(14)
H2_2 H 0.5763 0.5716 0.0263
C4_2 C 0.2167(4) 0.71844(15) 0.0118(2)
C5_2 C 0.0253(4) 0.71140(16) 0.0275(3)
H6_2 H 0.0181 0.6829 0.0782
C7_2 C 0.7654(5) 0.80994(17) 0.2802(2)
H7_2 H 0.8280 0.7699 0.2709
H8_2 H 0.8515 0.8422 0.3055
H9_2 H 0.6770 0.8024 0.3212
C8_2 C 0.6729(4) 0.83355(16) 0.1930(2)
C9_2 C 0.6313(4) 0.90045(15) 0.1826(2)
C10_2 C 0.5208(4) 0.92682(16) 0.1077(2)
C11_2 C 0.4724(5) 0.99715(17) 0.1103(2)
C12_2 C 0.6943(5) 0.94311(16) 0.2522(2)
O1_2 O 0.5921(3) 0.71091(10) 0.98103(15)
O5_2 O 0.7785(3) 0.84195(11) 0.97770(15)
O6_2 O 0.4622(3) 0.82449(11) 0.86959(14)
C1_2 C 0.5875(5) 0.59756(16) 0.9734(3)
H1_2 H 0.7140 0.6040 0.9676
H3_2 H 0.5294 0.5754 0.9206
C2_2 C 0.4996(4) 0.66141(15) 0.9822(2)
C3_2 C 0.3141(4) 0.66204(15) 0.9924(2)
C6_2 C 0.2194(4) 0.60356(16) 0.9849(2)
C14_2 C 0.8337(4) 0.86433(15) 0.9093(2)
C15_2 C 0.7275(4) 0.86567(15) 0.8248(2)
C16_2 C 0.5448(5) 0.84702(15) 0.8099(2)
C17_2 C 0.4464(5) 0.85439(18) 0.7185(2)
H16_2 H 0.3183 0.8484 0.7207
H17_2 H 0.4676 0.8973 0.6959
H18_2 H 0.4887 0.8222 0.6790
C18_2 C 0.8061(5) 0.89146(16) 0.7519(2)
N3_2 N 0.8708(4) 0.91187(14) 0.6934(2)
Mg1_3 Mg 0.53586(14) 0.69433(5) 0.50154(7)
O1_3 O 0.5921(3) 0.78909(10) 0.48103(15)
O2_3 O 0.2860(3) 0.72707(10) 0.51705(14)
O3_3 O 0.6325(3) 0.70656(10) 0.63273(14)
O4_3 O 0.4601(3) 0.60529(10) 0.54145(14)
O5_3 O 0.7785(3) 0.65805(11) 0.47770(15)
O6_3 O 0.4622(3) 0.67551(11) 0.36959(14)
C1_3 C 0.5875(5) 0.90244(16) 0.4734(3)
H1_3 H 0.7140 0.8960 0.4676
H2_3 H 0.5763 0.9284 0.5263
H3_3 H 0.5294 0.9246 0.4206
C2_3 C 0.4996(4) 0.83859(15) 0.4822(2)
C3_3 C 0.3141(4) 0.83796(15) 0.4924(2)
C4_3 C 0.2167(4) 0.78156(15) 0.5118(2)
C5_3 C 0.0253(4) 0.78860(16) 0.5275(3)
H6_3 H 0.0181 0.8171 0.5782
C6_3 C 0.2194(4) 0.89644(16) 0.4849(2)
C7_3 C 0.7654(5) 0.69006(17) 0.7802(2)
H7_3 H 0.8280 0.7301 0.7709
H8_3 H 0.8515 0.6578 0.8055
H9_3 H 0.6770 0.6976 0.8212
C8_3 C 0.6729(4) 0.66645(16) 0.6930(2)
C9_3 C 0.6313(4) 0.59955(15) 0.6826(2)
C10_3 C 0.5208(4) 0.57318(16) 0.6077(2)
C11_3 C 0.4724(5) 0.50285(17) 0.6103(2)
H10_3 H 0.3702 0.4942 0.5655
H11_3 H 0.4412 0.4920 0.6694
H12_3 H 0.5744 0.4768 0.5979
C12_3 C 0.6943(5) 0.55689(16) 0.7522(2)
C14_3 C 0.8337(4) 0.63567(15) 0.4093(2)
C15_3 C 0.7275(4) 0.63433(15) 0.3248(2)
C16_3 C 0.5448(5) 0.65298(15) 0.3099(2)
C17_3 C 0.4464(5) 0.64561(18) 0.2185(2)
H16_3 H 0.3183 0.6516 0.2207
H17_3 H 0.4676 0.6027 0.1959
H18_3 H 0.4887 0.6778 0.1790
C18_3 C 0.8061(5) 0.60854(16) 0.2519(2)
N1 N 0.1406(4) 0.94390(14) 0.47839(19)
N2 N 0.7468(4) 0.52184(14) 0.8079(2)
N3_3 N 0.8708(4) 0.58813(14) 0.1934(2)
N4 N 0.8594(4) 0.44390(14) 0.02161(19)
Ag3 Ag 0.99544(3) 0.48105(2) 0.88613(2)
Ag4 Ag 0.00456(3) 0.98105(2) 0.61387(2)
O1_4 O 0.4079(3) 0.28909(10) 0.01897(15)
O5_4 O 0.2215(3) 0.15805(11) 0.02230(15)
O6_4 O 0.5378(3) 0.17551(11) 0.13041(14)
C1_4 C 0.4125(5) 0.40244(16) 0.0266(3)
H1_4 H 0.2860 0.3960 0.0324
H3_4 H 0.4706 0.4246 0.0794
C2_4 C 0.5004(4) 0.33859(15) 0.0178(2)
C3_4 C 0.6859(4) 0.33796(15) 0.0076(2)
C6_4 C 0.7806(4) 0.39644(16) 0.0151(2)
C14_4 C 0.1663(4) 0.13567(15) 0.0907(2)
C15_4 C 0.2725(4) 0.13433(15) 0.1752(2)
C16_4 C 0.4552(5) 0.15298(15) 0.1901(2)
C17_4 C 0.5536(5) 0.14561(18) 0.2815(2)
H16_4 H 0.6817 0.1516 0.2793
H17_4 H 0.5324 0.1027 0.3041
H18_4 H 0.5113 0.1778 0.3210
C18_4 C 0.1939(5) 0.10854(16) 0.2481(2)
N3_4 N 0.1292(4) 0.08813(14) 0.3066(2)
Mg1_4 Mg 0.46414(14) 0.19433(5) 0.99846(7)
O2_4 O 0.7140(3) 0.22707(10) 0.98295(14)
O3_4 O 0.3675(3) 0.20656(10) 0.86727(14)
O4_4 O 0.5399(3) 0.10529(10) 0.95855(14)
H2_4 H 0.4237 0.4284 0.9737
C4_4 C 0.7833(4) 0.28156(15) 0.9882(2)
C5_4 C 0.9747(4) 0.28860(16) 0.9725(3)
H6_4 H 0.9819 0.3171 0.9218
C7_4 C 0.2346(5) 0.19006(17) 0.7198(2)
H7_4 H 0.1720 0.2301 0.7291
H8_4 H 0.1485 0.1578 0.6945
H9_4 H 0.3230 0.1976 0.6788
C8_4 C 0.3271(4) 0.16645(16) 0.8070(2)
C9_4 C 0.3687(4) 0.09955(15) 0.8174(2)
C10_4 C 0.4792(4) 0.07318(16) 0.8923(2)
C11_4 C 0.5276(5) 0.00285(17) 0.8897(2)
C12_4 C 0.3057(5) 0.05689(16) 0.7478(2)
N2_2 N 0.2532(4) 0.02184(14) 0.6921(2)
H10_4 H 0.6298 0.9942 0.9345
H11_4 H 0.5588 0.9920 0.8306
H12_4 H 0.4256 0.9768 0.9021
C13_3 C 0.9792(5) 0.3913(2) 0.5810(3)
H13_3 H 0.8990 0.3605 0.6044
H14_3 H 0.9786 0.4316 0.6142
H15_3 H 0.9387 0.3993 0.5180
C13_4 C 0.0208(5) 0.8913(2) 0.9190(3)
H13_4 H 0.1010 0.8605 0.8956
H14_4 H 0.0214 0.9316 0.8858
H15_4 H 0.0613 0.8993 0.9820
H5_2 H 0.9561 0.6933 0.9744
H4 H 0.9769 0.7465 0.5401
H5_3 H 0.9561 0.8067 0.4744
H4_2 H 0.0231 0.2465 0.9599
H4_3 H 0.0231 0.2535 0.4599
H5_4 H 0.0439 0.1933 0.5256
H4_4 H 0.9769 0.7535 0.0401
loop_
_geom_bond_atom_site_label_1
_geom_bond_atom_site_label_2
_geom_bond_site_symmetry_1
_geom_bond_site_symmetry_2
C13 H13 1_555 1_555
H14 C13 1_555 1_555
H15 C13 1_555 1_555
N6 Ag1 1_555 1_555
C13_2 H13_2 1_555 1_555
H14_2 C13_2 1_555 1_555
H15_2 C13_2 1_555 1_555
N5_2 Ag2 1_555 1_555
Mg1 O1 1_555 1_555
O1 C2 1_555 1_555
O2 Mg1 1_555 1_555
O3 Mg1 1_555 1_555
O4 Mg1 1_555 1_555
O5 Mg1 1_555 1_555
O6 Mg1 1_555 1_555
C1 H1 1_555 1_555
H2 C1 1_555 1_555
H3 C1 1_555 1_555
C2 C1 1_555 1_555
C3 C2 1_555 1_555
C4 O2 1_555 1_555
C5 C4 1_555 1_555
H6 C5 1_555 1_555
C6 C3 1_555 1_555
C7 H7 1_555 1_555
H8 C7 1_555 1_555
H9 C7 1_555 1_555
C8 O3 1_555 1_555
C9 C8 1_555 1_555
C10 O4 1_555 1_555
C11 C10 1_555 1_555
H10 C11 1_555 1_555
H11 C11 1_555 1_555
H12 C11 1_555 1_555
C12 C9 1_555 1_555
C14 O5 1_555 1_555
C15 C14 1_555 1_555
C16 O6 1_555 1_555
C17 C16 1_555 1_555
H16 C17 1_555 1_555
H17 C17 1_555 1_555
H18 C17 1_555 1_555
C18 C15 1_555 1_555
N5_2 C6 1_555 1_555
N6 C12 1_555 1_555
N3 C18 1_555 1_555
C3 C4 1_555 1_555
C7 C8 1_555 1_555
C9 C10 1_555 1_555
C15 C16 1_555 1_555
O2_2 Mg1_2 1_555 1_555
O3_2 Mg1_2 1_555 1_555
O4_2 Mg1_2 1_555 1_555
C4_2 O2_2 1_555 1_555
C5_2 C4_2 1_555 1_555
H6_2 C5_2 1_555 1_555
C7_2 H7_2 1_555 1_555
H8_2 C7_2 1_555 1_555
H9_2 C7_2 1_555 1_555
C8_2 O3_2 1_555 1_555
C9_2 C8_2 1_555 1_555
C10_2 O4_2 1_555 1_555
C11_2 C10_2 1_555 1_555
C12_2 C9_2 1_555 1_555
N6_2 C12_2 1_555 1_555
C7_2 C8_2 1_555 1_555
C9_2 C10_2 1_555 1_555
O1_2 C2_2 1_555 1_555
C1_2 H1_2 1_555 1_555
H3_2 C1_2 1_555 1_555
C2_2 C1_2 1_555 1_555
C3_2 C2_2 1_555 1_555
C6_2 C3_2 1_555 1_555
C14_2 O5_2 1_555 1_555
C15_2 C14_2 1_555 1_555
C16_2 O6_2 1_555 1_555
C17_2 C16_2 1_555 1_555
H16_2 C17_2 1_555 1_555
H17_2 C17_2 1_555 1_555
H18_2 C17_2 1_555 1_555
C18_2 C15_2 1_555 1_555
N5 C6_2 1_555 1_555
N3_2 C18_2 1_555 1_555
C15_2 C16_2 1_555 1_555
Mg1_3 O1_3 1_555 1_555
O1_3 C2_3 1_555 1_555
O2_3 Mg1_3 1_555 1_555
O3_3 Mg1_3 1_555 1_555
O4_3 Mg1_3 1_555 1_555
O5_3 Mg1_3 1_555 1_555
O6_3 Mg1_3 1_555 1_555
C1_3 H1_3 1_555 1_555
H2_3 C1_3 1_555 1_555
H3_3 C1_3 1_555 1_555
C2_3 C1_3 1_555 1_555
C3_3 C2_3 1_555 1_555
C4_3 O2_3 1_555 1_555
C5_3 C4_3 1_555 1_555
H6_3 C5_3 1_555 1_555
C6_3 C3_3 1_555 1_555
C7_3 H7_3 1_555 1_555
H8_3 C7_3 1_555 1_555
H9_3 C7_3 1_555 1_555
C8_3 O3_3 1_555 1_555
C9_3 C8_3 1_555 1_555
C10_3 O4_3 1_555 1_555
C11_3 C10_3 1_555 1_555
H10_3 C11_3 1_555 1_555
H11_3 C11_3 1_555 1_555
H12_3 C11_3 1_555 1_555
C12_3 C9_3 1_555 1_555
C14_3 O5_3 1_555 1_555
C15_3 C14_3 1_555 1_555
C16_3 O6_3 1_555 1_555
C17_3 C16_3 1_555 1_555
H16_3 C17_3 1_555 1_555
H17_3 C17_3 1_555 1_555
H18_3 C17_3 1_555 1_555
C18_3 C15_3 1_555 1_555
N1 C6_3 1_555 1_555
N2 C12_3 1_555 1_555
N3_3 C18_3 1_555 1_555
Ag3 N2 1_555 1_555
Ag4 N1 1_555 1_555
C3_3 C4_3 1_555 1_555
C7_3 C8_3 1_555 1_555
C9_3 C10_3 1_555 1_555
C15_3 C16_3 1_555 1_555
O1_4 C2_4 1_555 1_555
C1_4 H1_4 1_555 1_555
H3_4 C1_4 1_555 1_555
C2_4 C1_4 1_555 1_555
C3_4 C2_4 1_555 1_555
C6_4 C3_4 1_555 1_555
C14_4 O5_4 1_555 1_555
C15_4 C14_4 1_555 1_555
C16_4 O6_4 1_555 1_555
C17_4 C16_4 1_555 1_555
H16_4 C17_4 1_555 1_555
H17_4 C17_4 1_555 1_555
H18_4 C17_4 1_555 1_555
C18_4 C15_4 1_555 1_555
N4 C6_4 1_555 1_555
N3_4 C18_4 1_555 1_555
C15_4 C16_4 1_555 1_555
O2_4 Mg1_4 1_555 1_555
O3_4 Mg1_4 1_555 1_555
O4_4 Mg1_4 1_555 1_555
C4_4 O2_4 1_555 1_555
C5_4 C4_4 1_555 1_555
H6_4 C5_4 1_555 1_555
C7_4 H7_4 1_555 1_555
H8_4 C7_4 1_555 1_555
H9_4 C7_4 1_555 1_555
C8_4 O3_4 1_555 1_555
C9_4 C8_4 1_555 1_555
C10_4 O4_4 1_555 1_555
C11_4 C10_4 1_555 1_555
C12_4 C9_4 1_555 1_555
N2_2 C12_4 1_555 1_555
C7_4 C8_4 1_555 1_555
C9_4 C10_4 1_555 1_555
C13_3 H13_3 1_555 1_555
H14_3 C13_3 1_555 1_555
H15_3 C13_3 1_555 1_555
C13_4 H13_4 1_555 1_555
H14_4 C13_4 1_555 1_555
H15_4 C13_4 1_555 1_555

#END
