
###############################################################################
#
# This file contains modified crystal structure data generated from the
# MOF subset of the Cambridge Structural Database (CSD) v543 
# hosted by the Cambridge Crystallographic Data Centre (CCDC).
#
# This work is licensed under the Creative Commons
# Attribution-NonCommercial-ShareAlike 4.0 International License.
# To view a copy of this license, visit
# http://creativecommons.org/licenses/by-nc-sa/4.0/
# or send a letter to
# Creative Commons, PO Box 1866, Mountain View, CA 94042, USA.
#
# CIF created using the CSD Python API on 29 September 2022
# The structure has been converted into the P1 space group
# The structure has a 3D framework
# The original CSD entry PAXHUU is in the monoclinic crystal system
# The framework has been calculated to contain at least 10.0% void space
# The void calculation uses a probe of radius 1.32A, grid spacing 0.4
#
###############################################################################

data_PAXHUU
_chemical_formula_moiety         '(C72 H72 Ag4 Mg4 N12 O24)n'
_symmetry_cell_setting           triclinic
_symmetry_space_group_name_H-M   'P 1'
_symmetry_Int_Tables_number      1
_space_group_name_Hall           'P 1'
loop_
_symmetry_equiv_pos_site_id
_symmetry_equiv_pos_as_xyz
1 x,y,z
_cell_length_a                   7.6610(8)
_cell_length_b                   20.745(2)
_cell_length_c                   15.2178(17)
_cell_angle_alpha                90
_cell_angle_beta                 94.733(2)
_cell_angle_gamma                90
_cell_volume                     2410.28
loop_
_atom_site_label
_atom_site_type_symbol
_atom_site_fract_x
_atom_site_fract_y
_atom_site_fract_z
C13 C 0.0190(5) 0.6222(3) 0.3964(3)
H13 H 0.0795 0.6518 0.3589
H14 H 0.0247 0.5783 0.3730
H15 H 0.0756 0.6234 0.4565
N6 N 0.2054(5) 0.47354(16) 0.1978(2)
Ag3 Ag 0.02231(3) 0.48660(2) 0.88715(2)
N5 N 0.1461(4) 0.55704(15) 0.9881(2)
H4 H 0.9949 0.7429 0.5553
H5 H 0.9694 0.8006 0.4856
Ag4 Ag 0.97769(3) 0.98660(2) 0.61285(2)
H4_2 H 0.0051 0.2429 0.9447
C13_2 C 0.9810(5) 0.1222(3) 0.1036(3)
H13_2 H 0.9205 0.1518 0.1411
H14_2 H 0.9753 0.0783 0.1270
H15_2 H 0.9244 0.1234 0.0435
N5_2 N 0.8539(4) 0.05704(15) 0.5119(2)
Mg1 Mg 0.45636(14) 0.30492(5) 0.49665(7)
O1 O 0.4068(3) 0.20995(11) 0.52151(16)
O2 O 0.7010(3) 0.27414(11) 0.47289(16)
O3 O 0.3542(3) 0.29060(11) 0.36924(15)
O4 O 0.5162(3) 0.39527(11) 0.45350(16)
O5 O 0.2191(3) 0.33663(12) 0.53179(16)
O6 O 0.5408(3) 0.32439(12) 0.62547(15)
C1 C 0.4173(5) 0.09600(17) 0.5319(3)
H1 H 0.2930 0.1016 0.5408
H2 H 0.4289 0.0689 0.4800
H3 H 0.4769 0.0753 0.5839
C2 C 0.4990(4) 0.16089(16) 0.5181(2)
C3 C 0.6806(4) 0.16327(15) 0.5019(2)
C4 C 0.7722(4) 0.21995(16) 0.4793(2)
C5 C 0.9619(4) 0.21468(18) 0.4613(3)
H6 H 0.9736 0.1841 0.4130
C6 C 0.7759(4) 0.10471(17) 0.5074(2)
C7 C 0.2085(5) 0.30536(19) 0.2277(2)
H7 H 0.1493 0.2649 0.2402
H8 H 0.1215 0.3372 0.2053
H9 H 0.2920 0.2977 0.1834
C8 C 0.3047(4) 0.33029(17) 0.3110(2)
C9 C 0.3420(5) 0.39800(17) 0.3185(2)
C10 C 0.4542(5) 0.42608(17) 0.3882(2)
C11 C 0.5018(7) 0.49641(19) 0.3798(3)
H10 H 0.5904 0.5081 0.4273
H11 H 0.5489 0.5037 0.3227
H12 H 0.3971 0.5230 0.3840
C12 C 0.2687(5) 0.43968(19) 0.2513(2)
C14 C 0.1699(4) 0.35767(18) 0.6025(2)
C15 C 0.2829(4) 0.36338(15) 0.6816(2)
C16 C 0.4646(5) 0.34603(16) 0.6885(2)
C17 C 0.5663(5) 0.3533(2) 0.7761(2)
H16 H 0.6906 0.3449 0.7698
H17 H 0.5524 0.3973 0.7980
H18 H 0.5227 0.3225 0.8180
C18 C 0.2108(5) 0.38846(17) 0.7573(2)
N3 N 0.1515(4) 0.40878(16) 0.8182(2)
O1_2 O 0.5932(3) 0.70995(11) 0.97849(16)
O5_2 O 0.7809(3) 0.83663(12) 0.96821(16)
O6_2 O 0.4592(3) 0.82439(12) 0.87453(15)
C1_2 C 0.5827(5) 0.59600(17) 0.9681(3)
H1_2 H 0.7070 0.6016 0.9592
H3_2 H 0.5231 0.5753 0.9161
C2_2 C 0.5010(4) 0.66089(16) 0.9819(2)
C3_2 C 0.3194(4) 0.66327(15) 0.9981(2)
C6_2 C 0.2241(4) 0.60471(17) 0.9926(2)
C14_2 C 0.8301(4) 0.85767(18) 0.8975(2)
C15_2 C 0.7171(4) 0.86338(15) 0.8184(2)
C16_2 C 0.5354(5) 0.84603(16) 0.8115(2)
C17_2 C 0.4337(5) 0.8533(2) 0.7239(2)
H16_2 H 0.3094 0.8449 0.7302
H17_2 H 0.4476 0.8973 0.7020
H18_2 H 0.4773 0.8225 0.6820
C18_2 C 0.7892(5) 0.88846(17) 0.7427(2)
N3_2 N 0.8485(4) 0.90878(16) 0.6818(2)
Ag2 Ag 0.02231(3) 0.01340(2) 0.38715(2)
Mg1_2 Mg 0.54364(14) 0.69508(5) 0.50335(7)
O1_3 O 0.5932(3) 0.79005(11) 0.47849(16)
O2_2 O 0.2990(3) 0.72586(11) 0.52711(16)
O3_2 O 0.6458(3) 0.70940(11) 0.63076(15)
O4_2 O 0.4838(3) 0.60473(11) 0.54650(16)
O5_3 O 0.7809(3) 0.66337(12) 0.46821(16)
O6_3 O 0.4592(3) 0.67561(12) 0.37453(15)
C1_3 C 0.5827(5) 0.90400(17) 0.4681(3)
H1_3 H 0.7070 0.8984 0.4592
H2_2 H 0.5711 0.9311 0.5200
H3_3 H 0.5231 0.9247 0.4161
C2_3 C 0.5010(4) 0.83911(16) 0.4819(2)
C3_3 C 0.3194(4) 0.83673(15) 0.4981(2)
C4_2 C 0.2278(4) 0.78005(16) 0.5207(2)
C5_2 C 0.0381(4) 0.78532(18) 0.5387(3)
H6_2 H 0.0264 0.8159 0.5870
C6_3 C 0.2241(4) 0.89529(17) 0.4926(2)
C7_2 C 0.7915(5) 0.69464(19) 0.7723(2)
H7_2 H 0.8507 0.7351 0.7598
H8_2 H 0.8785 0.6628 0.7947
H9_2 H 0.7080 0.7023 0.8166
C8_2 C 0.6953(4) 0.66971(17) 0.6890(2)
C9_2 C 0.6580(5) 0.60200(17) 0.6815(2)
C10_2 C 0.5458(5) 0.57392(17) 0.6118(2)
C11_2 C 0.4982(7) 0.50359(19) 0.6202(3)
H10_2 H 0.4096 0.4919 0.5727
H11_2 H 0.4511 0.4963 0.6773
H12_2 H 0.6029 0.4770 0.6160
C12_2 C 0.7313(5) 0.56032(19) 0.7487(2)
C14_3 C 0.8301(4) 0.64233(18) 0.3975(2)
C15_3 C 0.7171(4) 0.63662(15) 0.3184(2)
C16_3 C 0.5354(5) 0.65397(16) 0.3115(2)
C17_3 C 0.4337(5) 0.6467(2) 0.2239(2)
H16_3 H 0.3094 0.6551 0.2302
H17_3 H 0.4476 0.6027 0.2020
H18_3 H 0.4773 0.6775 0.1820
C18_3 C 0.7892(5) 0.61154(17) 0.2427(2)
N1 N 0.1461(4) 0.94296(15) 0.4881(2)
N2 N 0.7946(5) 0.52646(16) 0.8022(2)
N3_3 N 0.8485(4) 0.59122(16) 0.1818(2)
Ag1 Ag 0.97769(3) 0.51340(2) 0.11285(2)
N4 N 0.8539(4) 0.44296(15) 0.0119(2)
O1_4 O 0.4068(3) 0.29005(11) 0.02151(16)
O5_4 O 0.2191(3) 0.16337(12) 0.03179(16)
O6_4 O 0.5408(3) 0.17561(12) 0.12547(15)
C1_4 C 0.4173(5) 0.40400(17) 0.0319(3)
H1_4 H 0.2930 0.3984 0.0408
H3_4 H 0.4769 0.4247 0.0839
C2_4 C 0.4990(4) 0.33911(16) 0.0181(2)
C3_4 C 0.6806(4) 0.33673(15) 0.0019(2)
C6_4 C 0.7759(4) 0.39529(17) 0.0074(2)
C14_4 C 0.1699(4) 0.14233(18) 0.1025(2)
C15_4 C 0.2829(4) 0.13662(15) 0.1816(2)
C16_4 C 0.4646(5) 0.15397(16) 0.1885(2)
C17_4 C 0.5663(5) 0.1467(2) 0.2761(2)
H16_4 H 0.6906 0.1551 0.2698
H17_4 H 0.5524 0.1027 0.2980
H18_4 H 0.5227 0.1775 0.3180
C18_4 C 0.2108(5) 0.11154(17) 0.2573(2)
N3_4 N 0.1515(4) 0.09122(16) 0.3182(2)
H4_3 H 0.0051 0.2571 0.4447
H5_2 H 0.0306 0.1994 0.5144
C13_3 C 0.9810(5) 0.3778(3) 0.6036(3)
H13_3 H 0.9205 0.3482 0.6411
H14_3 H 0.9753 0.4217 0.6270
H15_3 H 0.9244 0.3766 0.5435
C13_4 C 0.0190(5) 0.8778(3) 0.8964(3)
H13_4 H 0.0795 0.8482 0.8589
H14_4 H 0.0247 0.9217 0.8730
H15_4 H 0.0756 0.8766 0.9565
H4_4 H 0.9949 0.7571 0.0553
H5_3 H 0.0306 0.3006 0.0144
Mg1_3 Mg 0.45636(14) 0.19508(5) 0.99665(7)
O2_3 O 0.7010(3) 0.22586(11) 0.97289(16)
O3_3 O 0.3542(3) 0.20940(11) 0.86924(15)
O4_3 O 0.5162(3) 0.10473(11) 0.95350(16)
H2_3 H 0.4289 0.4311 0.9800
C4_3 C 0.7722(4) 0.28005(16) 0.9793(2)
C5_3 C 0.9619(4) 0.28532(18) 0.9613(3)
H6_3 H 0.9736 0.3159 0.9130
C7_3 C 0.2085(5) 0.19464(19) 0.7277(2)
H7_3 H 0.1493 0.2351 0.7402
H8_3 H 0.1215 0.1628 0.7053
H9_3 H 0.2920 0.2023 0.6834
C8_3 C 0.3047(4) 0.16971(17) 0.8110(2)
C9_3 C 0.3420(5) 0.10200(17) 0.8185(2)
C10_3 C 0.4542(5) 0.07392(17) 0.8882(2)
C11_3 C 0.5018(7) 0.00359(19) 0.8798(3)
C12_3 C 0.2687(5) 0.06032(19) 0.7513(2)
N2_2 N 0.2054(5) 0.02646(16) 0.6978(2)
H10_3 H 0.5904 0.9919 0.9273
H11_3 H 0.5489 0.9963 0.8227
H12_3 H 0.3971 0.9770 0.8840
N6_2 N 0.7946(5) 0.97354(16) 0.3022(2)
Mg1_4 Mg 0.54364(14) 0.80492(5) 0.00335(7)
O2_4 O 0.2990(3) 0.77414(11) 0.02711(16)
O3_4 O 0.6458(3) 0.79060(11) 0.13076(15)
O4_4 O 0.4838(3) 0.89527(11) 0.04650(16)
H2_4 H 0.5711 0.5689 0.0200
C4_4 C 0.2278(4) 0.71995(16) 0.0207(2)
C5_4 C 0.0381(4) 0.71468(18) 0.0387(3)
H6_4 H 0.0264 0.6841 0.0870
C7_4 C 0.7915(5) 0.80536(19) 0.2723(2)
H7_4 H 0.8507 0.7649 0.2598
H8_4 H 0.8785 0.8372 0.2947
H9_4 H 0.7080 0.7977 0.3166
C8_4 C 0.6953(4) 0.83029(17) 0.1890(2)
C9_4 C 0.6580(5) 0.89800(17) 0.1815(2)
C10_4 C 0.5458(5) 0.92608(17) 0.1118(2)
C11_4 C 0.4982(7) 0.99641(19) 0.1202(3)
C12_4 C 0.7313(5) 0.93968(19) 0.2487(2)
H10_4 H 0.4096 0.0081 0.0727
H11_4 H 0.4511 0.0037 0.1773
H12_4 H 0.6029 0.0230 0.1160
H5_4 H 0.9694 0.6994 0.9856
loop_
_geom_bond_atom_site_label_1
_geom_bond_atom_site_label_2
_geom_bond_site_symmetry_1
_geom_bond_site_symmetry_2
C13 H13 1_555 1_555
H14 C13 1_555 1_555
H15 C13 1_555 1_555
C13_2 H13_2 1_555 1_555
H14_2 C13_2 1_555 1_555
H15_2 C13_2 1_555 1_555
Mg1 O1 1_555 1_555
O1 C2 1_555 1_555
O2 Mg1 1_555 1_555
O3 Mg1 1_555 1_555
O4 Mg1 1_555 1_555
O5 Mg1 1_555 1_555
O6 Mg1 1_555 1_555
C1 H1 1_555 1_555
H2 C1 1_555 1_555
H3 C1 1_555 1_555
C2 C1 1_555 1_555
C3 C2 1_555 1_555
C4 O2 1_555 1_555
C5 C4 1_555 1_555
H6 C5 1_555 1_555
C6 C3 1_555 1_555
C7 H7 1_555 1_555
H8 C7 1_555 1_555
H9 C7 1_555 1_555
C8 O3 1_555 1_555
C9 C8 1_555 1_555
C10 O4 1_555 1_555
C11 C10 1_555 1_555
H10 C11 1_555 1_555
H11 C11 1_555 1_555
H12 C11 1_555 1_555
C12 C9 1_555 1_555
C14 O5 1_555 1_555
C15 C14 1_555 1_555
C16 O6 1_555 1_555
C17 C16 1_555 1_555
H16 C17 1_555 1_555
H17 C17 1_555 1_555
H18 C17 1_555 1_555
C18 C15 1_555 1_555
N5_2 C6 1_555 1_555
N6 C12 1_555 1_555
N3 C18 1_555 1_555
Ag3 N3 1_555 1_555
N5 Ag3 1_555 1_555
C3 C4 1_555 1_555
C7 C8 1_555 1_555
C9 C10 1_555 1_555
C15 C16 1_555 1_555
O1_2 C2_2 1_555 1_555
C1_2 H1_2 1_555 1_555
H3_2 C1_2 1_555 1_555
C2_2 C1_2 1_555 1_555
C3_2 C2_2 1_555 1_555
C6_2 C3_2 1_555 1_555
C14_2 O5_2 1_555 1_555
C15_2 C14_2 1_555 1_555
C16_2 O6_2 1_555 1_555
C17_2 C16_2 1_555 1_555
H16_2 C17_2 1_555 1_555
H17_2 C17_2 1_555 1_555
H18_2 C17_2 1_555 1_555
C18_2 C15_2 1_555 1_555
N5 C6_2 1_555 1_555
N3_2 C18_2 1_555 1_555
Ag4 N3_2 1_555 1_555
C15_2 C16_2 1_555 1_555
Mg1_2 O1_3 1_555 1_555
O1_3 C2_3 1_555 1_555
O2_2 Mg1_2 1_555 1_555
O3_2 Mg1_2 1_555 1_555
O4_2 Mg1_2 1_555 1_555
O5_3 Mg1_2 1_555 1_555
O6_3 Mg1_2 1_555 1_555
C1_3 H1_3 1_555 1_555
H2_2 C1_3 1_555 1_555
H3_3 C1_3 1_555 1_555
C2_3 C1_3 1_555 1_555
C3_3 C2_3 1_555 1_555
C4_2 O2_2 1_555 1_555
C5_2 C4_2 1_555 1_555
H6_2 C5_2 1_555 1_555
C6_3 C3_3 1_555 1_555
C7_2 H7_2 1_555 1_555
H8_2 C7_2 1_555 1_555
H9_2 C7_2 1_555 1_555
C8_2 O3_2 1_555 1_555
C9_2 C8_2 1_555 1_555
C10_2 O4_2 1_555 1_555
C11_2 C10_2 1_555 1_555
H10_2 C11_2 1_555 1_555
H11_2 C11_2 1_555 1_555
H12_2 C11_2 1_555 1_555
C12_2 C9_2 1_555 1_555
C14_3 O5_3 1_555 1_555
C15_3 C14_3 1_555 1_555
C16_3 O6_3 1_555 1_555
C17_3 C16_3 1_555 1_555
H16_3 C17_3 1_555 1_555
H17_3 C17_3 1_555 1_555
H18_3 C17_3 1_555 1_555
C18_3 C15_3 1_555 1_555
N1 C6_3 1_555 1_555
N2 C12_2 1_555 1_555
N3_3 C18_3 1_555 1_555
Ag1 N3_3 1_555 1_555
N4 Ag1 1_555 1_555
C3_3 C4_2 1_555 1_555
C7_2 C8_2 1_555 1_555
C9_2 C10_2 1_555 1_555
C15_3 C16_3 1_555 1_555
O1_4 C2_4 1_555 1_555
C1_4 H1_4 1_555 1_555
H3_4 C1_4 1_555 1_555
C2_4 C1_4 1_555 1_555
C3_4 C2_4 1_555 1_555
C6_4 C3_4 1_555 1_555
C14_4 O5_4 1_555 1_555
C15_4 C14_4 1_555 1_555
C16_4 O6_4 1_555 1_555
C17_4 C16_4 1_555 1_555
H16_4 C17_4 1_555 1_555
H17_4 C17_4 1_555 1_555
H18_4 C17_4 1_555 1_555
C18_4 C15_4 1_555 1_555
N4 C6_4 1_555 1_555
N3_4 C18_4 1_555 1_555
Ag2 N3_4 1_555 1_555
C15_4 C16_4 1_555 1_555
C13_3 H13_3 1_555 1_555
H14_3 C13_3 1_555 1_555
H15_3 C13_3 1_555 1_555
C13_4 H13_4 1_555 1_555
H14_4 C13_4 1_555 1_555
H15_4 C13_4 1_555 1_555
O2_3 Mg1_3 1_555 1_555
O3_3 Mg1_3 1_555 1_555
O4_3 Mg1_3 1_555 1_555
C4_3 O2_3 1_555 1_555
C5_3 C4_3 1_555 1_555
H6_3 C5_3 1_555 1_555
C7_3 H7_3 1_555 1_555
H8_3 C7_3 1_555 1_555
H9_3 C7_3 1_555 1_555
C8_3 O3_3 1_555 1_555
C9_3 C8_3 1_555 1_555
C10_3 O4_3 1_555 1_555
C11_3 C10_3 1_555 1_555
C12_3 C9_3 1_555 1_555
N2_2 C12_3 1_555 1_555
C7_3 C8_3 1_555 1_555
C9_3 C10_3 1_555 1_555
O2_4 Mg1_4 1_555 1_555
O3_4 Mg1_4 1_555 1_555
O4_4 Mg1_4 1_555 1_555
C4_4 O2_4 1_555 1_555
C5_4 C4_4 1_555 1_555
H6_4 C5_4 1_555 1_555
C7_4 H7_4 1_555 1_555
H8_4 C7_4 1_555 1_555
H9_4 C7_4 1_555 1_555
C8_4 O3_4 1_555 1_555
C9_4 C8_4 1_555 1_555
C10_4 O4_4 1_555 1_555
C11_4 C10_4 1_555 1_555
C12_4 C9_4 1_555 1_555
N6_2 C12_4 1_555 1_555
C7_4 C8_4 1_555 1_555
C9_4 C10_4 1_555 1_555

#END
