
###############################################################################
#
# This file contains modified crystal structure data generated from the
# MOF subset of the Cambridge Structural Database (CSD) v543 
# hosted by the Cambridge Crystallographic Data Centre (CCDC).
#
# This work is licensed under the Creative Commons
# Attribution-NonCommercial-ShareAlike 4.0 International License.
# To view a copy of this license, visit
# http://creativecommons.org/licenses/by-nc-sa/4.0/
# or send a letter to
# Creative Commons, PO Box 1866, Mountain View, CA 94042, USA.
#
# CIF created using the CSD Python API on 29 September 2022
# The structure has been converted into the P1 space group
# The structure has a 3D framework
# The original CSD entry PAXRIT is in the triclinic crystal system
# The framework has been calculated to contain at least 10.0% void space
# The void calculation uses a probe of radius 1.32A, grid spacing 0.4
#
###############################################################################

data_PAXRIT
_chemical_formula_moiety         '(C72 H64 Cd4 N8 O18 S4)n'
_symmetry_cell_setting           triclinic
_symmetry_space_group_name_H-M   'P 1'
_symmetry_Int_Tables_number      1
_space_group_name_Hall           'P 1'
loop_
_symmetry_equiv_pos_site_id
_symmetry_equiv_pos_as_xyz
1 x,y,z
_cell_length_a                   10.3508(9)
_cell_length_b                   11.2848(16)
_cell_length_c                   18.379(2)
_cell_angle_alpha                89.945(11)
_cell_angle_beta                 77.727(10)
_cell_angle_gamma                75.732(11)
_cell_volume                     2030.02
loop_
_atom_site_label
_atom_site_type_symbol
_atom_site_fract_x
_atom_site_fract_y
_atom_site_fract_z
_atom_site_U_iso_or_equiv
_atom_site_thermal_displace_type
O1 O 0.1266(11) 0.3618(11) 0.0866(6) 0.0668 Uani
C1 C 0.2362(16) 0.3224(13) 0.1073(8) 0.0496 Uani
C2 C 0.2336(12) 0.3095(12) 0.1890(6) 0.0352 Uani
C3 C 0.3551(15) 0.2603(15) 0.2117(9) 0.0602 Uani
H1 H 0.4362 0.2355 0.1760 0.0720 Uiso
C4 C 0.3576(14) 0.2474(13) 0.2869(7) 0.0464 Uani
H2 H 0.4371 0.2092 0.3022 0.0550 Uiso
C5 C 0.2316(18) 0.2961(17) 0.3392(8) 0.0670 Uani
C6 C 0.1134(17) 0.3413(17) 0.3133(9) 0.0718 Uani
H3 H 0.0303 0.3677 0.3473 0.0860 Uiso
C7 C 0.1170(16) 0.3476(15) 0.2408(8) 0.0610 Uani
H4 H 0.0360 0.3793 0.2253 0.0730 Uiso
C8 C 0.2328(19) 0.2889(14) 0.4191(8) 0.0588 Uani
H5 H 0.3164 0.2680 0.4331 0.0700 Uiso
C10 C 0.0161(15) 0.3417(13) 0.8228(8) 0.0455 Uani
C13 C 0.0456(14) 0.3052(16) 0.6676(7) 0.0604 Uani
C14 C 0.1370(15) 0.3522(15) 0.6967(7) 0.0548 Uani
H8 H 0.2088 0.3737 0.6644 0.0660 Uiso
C15 C 0.1238(13) 0.3679(14) 0.7736(7) 0.0469 Uani
H9 H 0.1886 0.3965 0.7915 0.0560 Uiso
N1 N 0.1277(16) 0.3095(16) 0.4676(7) 0.0885 Uani
N2 N 0.1475(14) 0.3085(14) 0.5431(7) 0.0713 Uani
O3 O 0.0824(9) 0.4066(7) 0.9302(4) 0.0371 Uani
O5 O 0.3476(11) 0.2912(10) 0.0607(5) 0.0603 Uani
C36 C 0.0491(16) 0.2951(18) 0.5905(8) 0.0726 Uani
Cd9 Cd 0.08568(10) 0.61384(9) 0.93531(5) 0.0417 Uani
Cd13 Cd 0.29304(10) 0.28977(9) 0.94859(5) 0.0425 Uani
C21 C 0.7326(16) 0.9893(16) 0.2871(9) 0.0661 Uani
H12 H 0.7347 0.9074 0.2791 0.0790 Uiso
C32 C 0.6065(17) 0.9815(15) 0.4181(8) 0.0588 Uani
H22 H 0.6225 0.8969 0.4129 0.0700 Uiso
C37 C 0.1646(14) 0.7564(15) 0.8222(7) 0.0464 Uani
C38 C 0.2160(14) 0.8247(14) 0.7619(7) 0.0427 Uani
C39 C 0.2664(17) 0.7694(15) 0.6905(8) 0.0588 Uani
H33 H 0.2639 0.6888 0.6824 0.0700 Uiso
C40 C 0.3209(17) 0.8319(17) 0.6307(9) 0.0663 Uani
H34 H 0.3542 0.7935 0.5833 0.0800 Uiso
C41 C 0.3242(17) 0.9522(16) 0.6433(8) 0.0626 Uani
C43 C 0.2126(17) 0.9448(16) 0.7716(8) 0.0657 Uani
H36 H 0.1732 0.9846 0.8183 0.0790 Uiso
N5 N 0.4732(15) 0.9619(13) 0.5233(6) 0.0695 Uani
O11 O 0.1774(11) 0.6416(10) 0.8122(5) 0.0583 Uani
O12 O 0.1159(12) 0.8038(10) 0.8890(6) 0.0698 Uani
H54 H 0.0570 0.0014 0.0731 0.1050 Uiso
S4 S 0.2625(5) 0.0291(4) 0.0124(2) 0.0652 Uani
O30 O 0.1043(10) 0.6581(9) 0.0502(5) 0.0469 Uani
H18 H 0.9867 0.0936 0.4065 0.0970 Uiso
C45 C 0.4955(16) 0.1639(14) 0.8374(8) 0.0498 Uani
C46 C 0.6060(14) 0.1083(16) 0.7709(8) 0.0551 Uani
C47 C 0.7250(18) 0.0317(14) 0.7801(9) 0.0605 Uani
H38 H 0.7333 0.0101 0.8280 0.0730 Uiso
C49 C 0.8216(17) 0.0103(17) 0.6518(8) 0.0691 Uani
C50 C 0.6963(16) 0.0814(17) 0.6432(8) 0.0691 Uani
H40 H 0.6833 0.0982 0.5954 0.0830 Uiso
C51 C 0.5943(16) 0.1264(17) 0.7012(8) 0.0702 Uani
H41 H 0.5117 0.1722 0.6925 0.0840 Uiso
N6 N 0.9363(16) 0.0278(15) 0.5280(8) 0.0863 Uani
O13 O 0.5223(11) 0.1632(10) 0.9005(6) 0.0666 Uani
O14 O 0.3829(13) 0.2214(12) 0.8257(6) 0.0744 Uani
C61 C 0.0048(15) 0.6402(14) 0.0938(7) 0.0464 Uani
C63 C 0.0701(15) 0.7135(14) 0.2042(7) 0.0528 Uani
H48 H 0.1351 0.7423 0.1709 0.0630 Uiso
C64 C 0.0620(19) 0.7273(16) 0.2814(9) 0.0741 Uani
H49 H 0.1265 0.7575 0.2986 0.0890 Uiso
S3 S 0.4419(4) 0.5373(4) 0.8770(3) 0.0657 Uani
O16 O 0.3282(9) 0.4874(8) 0.9201(5) 0.0471 Uani
C69 C 0.4766(17) 0.4841(16) 0.7876(9) 0.0822 Uani
H55 H 0.4028 0.5229 0.7648 0.1230 Uiso
H56 H 0.5596 0.5019 0.7612 0.1230 Uiso
H57 H 0.4870 0.3972 0.7859 0.1230 Uiso
C70 C 0.5917(15) 0.4454(15) 0.9020(10) 0.0716 Uani
H58 H 0.5871 0.3615 0.9033 0.1070 Uiso
H59 H 0.6712 0.4520 0.8658 0.1070 Uiso
H60 H 0.5973 0.4734 0.9503 0.1070 Uiso
O18 O 0.1959(11) 0.1277(9) 0.9695(6) 0.0655 Uani
H64 H 0.0247 0.7221 0.4248 0.0870 Uiso
C26 C 0.1696(16) 0.0139(15) 0.2768(8) 0.0578 Uani
H15 H 0.0891 0.0628 0.2672 0.0690 Uiso
C30 C 0.061(2) 0.0297(18) 0.4105(10) 0.0807 Uani
C35 C 0.6231(17) 0.0823(14) 0.0535(10) 0.0681 Uani
H29 H 0.5338 0.0674 0.0623 0.1020 Uiso
H30 H 0.6192 0.1622 0.0347 0.1020 Uiso
H31 H 0.6540 0.0779 0.0993 0.1020 Uiso
C31 C 0.8631(19) 0.0525(14) 0.9573(8) 0.0698 Uani
H19 H 0.8867 0.0839 0.9999 0.1050 Uiso
H20 H 0.8278 0.1192 0.9287 0.1050 Uiso
Cd6 Cd 0.91432(10) 0.38616(9) 0.06469(5) 0.0417 Uani
Cd2 Cd 0.70696(10) 0.71023(9) 0.05141(5) 0.0425 Uani
C9 C 0.9952(15) 0.3598(14) 0.9062(7) 0.0464 Uani
C11 C 0.9299(15) 0.2865(14) 0.7958(7) 0.0528 Uani
H6 H 0.8649 0.2577 0.8291 0.0630 Uiso
C12 C 0.9380(19) 0.2727(16) 0.7186(9) 0.0741 Uani
H7 H 0.8735 0.2425 0.7014 0.0890 Uiso
C16 C 0.8354(14) 0.2436(15) 0.1778(7) 0.0464 Uani
C17 C 0.7840(14) 0.1753(14) 0.2381(7) 0.0427 Uani
C18 C 0.7336(17) 0.2306(15) 0.3095(8) 0.0588 Uani
H10 H 0.7361 0.3112 0.3176 0.0700 Uiso
C19 C 0.6791(17) 0.1681(17) 0.3693(9) 0.0663 Uani
H11 H 0.6458 0.2065 0.4167 0.0800 Uiso
C20 C 0.6758(17) 0.0478(16) 0.3567(8) 0.0626 Uani
C22 C 0.7874(17) 0.0552(16) 0.2284(8) 0.0657 Uani
H13 H 0.8268 0.0154 0.1817 0.0790 Uiso
C23 C 0.5045(16) 0.8361(14) 0.1626(8) 0.0498 Uani
C24 C 0.3940(14) 0.8917(16) 0.2291(8) 0.0551 Uani
C25 C 0.2750(18) 0.9683(14) 0.2199(9) 0.0605 Uani
H14 H 0.2667 0.9899 0.1720 0.0730 Uiso
C27 C 0.1784(17) 0.9897(17) 0.3482(8) 0.0691 Uani
C28 C 0.3037(16) 0.9186(17) 0.3568(8) 0.0691 Uani
H16 H 0.3167 0.9018 0.4046 0.0830 Uiso
C29 C 0.4057(16) 0.8736(17) 0.2988(8) 0.0702 Uani
H17 H 0.4883 0.8278 0.3075 0.0840 Uiso
N3 N 0.0637(16) 0.9722(15) 0.4720(8) 0.0863 Uani
N4 N 0.5268(15) 0.0381(13) 0.4767(6) 0.0695 Uani
S1 S 0.5581(4) 0.4627(4) 0.1230(3) 0.0657 Uani
O2 O 0.6718(9) 0.5126(8) 0.0799(5) 0.0471 Uani
C33 C 0.5234(17) 0.5159(16) 0.2124(9) 0.0822 Uani
H23 H 0.5972 0.4771 0.2352 0.1230 Uiso
H24 H 0.4404 0.4981 0.2388 0.1230 Uiso
H25 H 0.5130 0.6028 0.2141 0.1230 Uiso
C34 C 0.4083(15) 0.5546(15) 0.0980(10) 0.0716 Uani
H26 H 0.4129 0.6385 0.0967 0.1070 Uiso
H27 H 0.3288 0.5480 0.1342 0.1070 Uiso
H28 H 0.4027 0.5266 0.0497 0.1070 Uiso
O4 O 0.8041(11) 0.8723(9) 0.0305(6) 0.0655 Uani
O6 O 0.4777(11) 0.8368(10) 0.0995(6) 0.0666 Uani
O7 O 0.6171(13) 0.7786(12) 0.1743(6) 0.0744 Uani
O8 O 0.8957(10) 0.3419(9) 0.9498(5) 0.0469 Uani
O9 O 0.8226(11) 0.3584(10) 0.1878(5) 0.0583 Uani
O10 O 0.8841(12) 0.1962(10) 0.1110(6) 0.0698 Uani
H32 H 0.9753 0.2779 0.5752 0.0870 Uiso
C42 C 0.2674(16) 0.0107(16) 0.7129(9) 0.0661 Uani
H35 H 0.2653 0.0926 0.7209 0.0790 Uiso
C44 C 0.3935(17) 0.0185(15) 0.5819(8) 0.0588 Uani
H37 H 0.3775 0.1031 0.5871 0.0700 Uiso
H42 H 0.0133 0.9064 0.5935 0.0970 Uiso
O26 O 0.9176(9) 0.5934(7) 0.0698(4) 0.0371 Uani
H21 H 0.9430 0.9986 0.9269 0.1050 Uiso
S2 S 0.7375(5) 0.9709(4) 0.9876(2) 0.0652 Uani
O22 O 0.8734(11) 0.6382(11) 0.9134(6) 0.0668 Uani
O28 O 0.6524(11) 0.7088(10) 0.9393(5) 0.0603 Uani
C53 C 0.7638(16) 0.6776(13) 0.8927(8) 0.0496 Uani
C54 C 0.7664(12) 0.6905(12) 0.8110(6) 0.0352 Uani
C55 C 0.6449(15) 0.7397(15) 0.7883(9) 0.0602 Uani
H43 H 0.5638 0.7645 0.8240 0.0720 Uiso
C56 C 0.6424(14) 0.7526(13) 0.7131(7) 0.0464 Uani
H44 H 0.5629 0.7908 0.6978 0.0550 Uiso
C57 C 0.7684(18) 0.7039(17) 0.6608(8) 0.0670 Uani
C58 C 0.8866(17) 0.6587(17) 0.6867(9) 0.0718 Uani
H45 H 0.9697 0.6323 0.6527 0.0860 Uiso
C59 C 0.8830(16) 0.6524(15) 0.7592(8) 0.0610 Uani
H46 H 0.9640 0.6207 0.7747 0.0730 Uiso
C60 C 0.7672(19) 0.7111(14) 0.5809(8) 0.0588 Uani
H47 H 0.6836 0.7320 0.5669 0.0700 Uiso
C62 C 0.9839(15) 0.6583(13) 0.1772(8) 0.0455 Uani
C65 C 0.9544(14) 0.6948(16) 0.3324(7) 0.0604 Uani
C66 C 0.8630(15) 0.6478(15) 0.3033(7) 0.0548 Uani
H50 H 0.7912 0.6263 0.3356 0.0660 Uiso
C67 C 0.8762(13) 0.6321(14) 0.2264(7) 0.0469 Uani
H51 H 0.8114 0.6035 0.2085 0.0560 Uiso
N7 N 0.8723(16) 0.6905(16) 0.5324(7) 0.0885 Uani
N8 N 0.8525(14) 0.6915(14) 0.4569(7) 0.0713 Uani
C72 C 0.9509(16) 0.7049(18) 0.4095(8) 0.0726 Uani
C68 C 0.1369(19) 0.9475(14) 0.0427(8) 0.0698 Uani
H52 H 0.1133 0.9161 0.0001 0.1050 Uiso
H53 H 0.1722 0.8808 0.0713 0.1050 Uiso
C48 C 0.8304(16) 0.9861(15) 0.7232(8) 0.0578 Uani
H39 H 0.9109 0.9372 0.7328 0.0690 Uiso
C52 C 0.939(2) 0.9703(18) 0.5895(10) 0.0807 Uani
C71 C 0.3769(17) 0.9177(14) 0.9465(10) 0.0681 Uani
H61 H 0.4662 0.9326 0.9377 0.1020 Uiso
H62 H 0.3808 0.8378 0.9653 0.1020 Uiso
H63 H 0.3460 0.9221 0.9007 0.1020 Uiso
loop_
_atom_site_aniso_label
_atom_site_aniso_U_11
_atom_site_aniso_U_22
_atom_site_aniso_U_33
_atom_site_aniso_U_23
_atom_site_aniso_U_13
_atom_site_aniso_U_12
O1 0.044 0.115 0.05 -0.001 -0.024 -0.024
C1 0.05 0.05 0.05 -0.001 -0.011 -0.015
C2 0.023 0.052 0.024 -0.01 0.01 -0.01
C3 0.031 0.085 0.075 0.005 -0.02 -0.027
C4 0.047 0.08 0.021 0.021 -0.01 -0.03
C5 0.074 0.104 0.025 0.002 -0.003 -0.033
C6 0.047 0.112 0.039 0.002 0.019 -0.012
C7 0.051 0.094 0.032 0.011 -0.002 -0.013
C8 0.086 0.072 0.03 0.024 -0.011 -0.043
C10 0.052 0.055 0.036 0.005 -0.014 -0.022
C13 0.019 0.117 0.022 0.003 0.007 0.016
C14 0.04 0.099 0.03 0.023 0.003 -0.035
C15 0.032 0.09 0.019 0.002 0.011 -0.03
N1 0.083 0.165 0.015 -0.001 -0.007 -0.03
N2 0.067 0.115 0.037 0.01 -0.018 -0.027
O3 0.048 0.028 0.038 -0.006 -0.01 -0.014
O5 0.053 0.087 0.035 -0.005 0.001 -0.016
C36 0.04 0.145 0.027 -0.012 0.021 -0.037
Cd9 0.0446 0.0515 0.0314 0.0044 -0.0034 -0.0206
Cd13 0.039 0.0535 0.0319 0.0013 -0.0003 -0.0123
C21 0.054 0.088 0.053 0.044 -0.006 -0.017
C32 0.086 0.072 0.03 0.024 -0.011 -0.043
C37 0.047 0.08 0.021 0.021 -0.01 -0.03
C38 0.048 0.068 0.021 0.016 -0.002 -0.036
C39 0.086 0.072 0.03 0.024 -0.011 -0.043
C40 0.064 0.102 0.043 0.005 -0.001 -0.049
C41 0.066 0.081 0.04 0.012 0.006 -0.032
C43 0.073 0.089 0.033 0.004 -0.002 -0.025
N5 0.084 0.1 0.026 0.024 0.008 -0.043
O11 0.068 0.078 0.031 0.019 0.01 -0.04
O12 0.077 0.075 0.056 0.009 0.002 -0.031
S4 0.068 0.068 0.063 0.008 -0.017 -0.021
O30 0.046 0.083 0.021 0.01 -0.009 -0.032
C45 0.052 0.064 0.034 0.004 -0.001 -0.023
C46 0.031 0.098 0.034 -0.014 0.008 -0.025
C47 0.068 0.065 0.044 0.001 -0.001 -0.018
C49 0.044 0.117 0.032 0.003 0.018 -0.016
C50 0.044 0.117 0.032 0.003 0.018 -0.016
C51 0.043 0.126 0.03 -0.032 0.01 -0.015
N6 0.072 0.111 0.05 -0.014 0.029 -0.011
O13 0.056 0.084 0.052 -0.018 0.007 -0.019
O14 0.067 0.114 0.041 0.002 -0.002 -0.029
C61 0.047 0.08 0.021 0.021 -0.01 -0.03
C63 0.054 0.074 0.025 0.008 0.017 -0.028
C64 0.086 0.094 0.057 -0.008 -0.027 -0.04
S3 0.037 0.07 0.083 0.004 0.004 -0.015
O16 0.046 0.044 0.055 -0.004 0.005 -0.032
C69 0.045 0.105 0.083 0.059 0.004 -0.009
C70 0.042 0.089 0.083 -0.006 0.004 -0.03
O18 0.059 0.058 0.081 0.016 -0.023 -0.011
C26 0.048 0.08 0.035 -0.008 0.003 -0.007
C30 0.082 0.1 0.047 -0.015 0.017 -0.025
C35 0.06 0.062 0.084 0.001 -0.028 -0.008
C31 0.125 0.059 0.04 0.01 -0.042 -0.03
Cd6 0.0446 0.0515 0.0314 0.0044 -0.0034 -0.0206
Cd2 0.039 0.0535 0.0319 0.0013 -0.0003 -0.0123
C9 0.047 0.08 0.021 0.021 -0.01 -0.03
C11 0.054 0.074 0.025 0.008 0.017 -0.028
C12 0.086 0.094 0.057 -0.008 -0.027 -0.04
C16 0.047 0.08 0.021 0.021 -0.01 -0.03
C17 0.048 0.068 0.021 0.016 -0.002 -0.036
C18 0.086 0.072 0.03 0.024 -0.011 -0.043
C19 0.064 0.102 0.043 0.005 -0.001 -0.049
C20 0.066 0.081 0.04 0.012 0.006 -0.032
C22 0.073 0.089 0.033 0.004 -0.002 -0.025
C23 0.052 0.064 0.034 0.004 -0.001 -0.023
C24 0.031 0.098 0.034 -0.014 0.008 -0.025
C25 0.068 0.065 0.044 0.001 -0.001 -0.018
C27 0.044 0.117 0.032 0.003 0.018 -0.016
C28 0.044 0.117 0.032 0.003 0.018 -0.016
C29 0.043 0.126 0.03 -0.032 0.01 -0.015
N3 0.072 0.111 0.05 -0.014 0.029 -0.011
N4 0.084 0.1 0.026 0.024 0.008 -0.043
S1 0.037 0.07 0.083 0.004 0.004 -0.015
O2 0.046 0.044 0.055 -0.004 0.005 -0.032
C33 0.045 0.105 0.083 0.059 0.004 -0.009
C34 0.042 0.089 0.083 -0.006 0.004 -0.03
O4 0.059 0.058 0.081 0.016 -0.023 -0.011
O6 0.056 0.084 0.052 -0.018 0.007 -0.019
O7 0.067 0.114 0.041 0.002 -0.002 -0.029
O8 0.046 0.083 0.021 0.01 -0.009 -0.032
O9 0.068 0.078 0.031 0.019 0.01 -0.04
O10 0.077 0.075 0.056 0.009 0.002 -0.031
C42 0.054 0.088 0.053 0.044 -0.006 -0.017
C44 0.086 0.072 0.03 0.024 -0.011 -0.043
O26 0.048 0.028 0.038 -0.006 -0.01 -0.014
S2 0.068 0.068 0.063 0.008 -0.017 -0.021
O22 0.044 0.115 0.05 -0.001 -0.024 -0.024
O28 0.053 0.087 0.035 -0.005 0.001 -0.016
C53 0.05 0.05 0.05 -0.001 -0.011 -0.015
C54 0.023 0.052 0.024 -0.01 0.01 -0.01
C55 0.031 0.085 0.075 0.005 -0.02 -0.027
C56 0.047 0.08 0.021 0.021 -0.01 -0.03
C57 0.074 0.104 0.025 0.002 -0.003 -0.033
C58 0.047 0.112 0.039 0.002 0.019 -0.012
C59 0.051 0.094 0.032 0.011 -0.002 -0.013
C60 0.086 0.072 0.03 0.024 -0.011 -0.043
C62 0.052 0.055 0.036 0.005 -0.014 -0.022
C65 0.019 0.117 0.022 0.003 0.007 0.016
C66 0.04 0.099 0.03 0.023 0.003 -0.035
C67 0.032 0.09 0.019 0.002 0.011 -0.03
N7 0.083 0.165 0.015 -0.001 -0.007 -0.03
N8 0.067 0.115 0.037 0.01 -0.018 -0.027
C72 0.04 0.145 0.027 -0.012 0.021 -0.037
C68 0.125 0.059 0.04 0.01 -0.042 -0.03
C48 0.048 0.08 0.035 -0.008 0.003 -0.007
C52 0.082 0.1 0.047 -0.015 0.017 -0.025
C71 0.06 0.062 0.084 0.001 -0.028 -0.008
loop_
_geom_bond_atom_site_label_1
_geom_bond_atom_site_label_2
_geom_bond_site_symmetry_1
_geom_bond_site_symmetry_2
O1 C1 1_555 1_555
C1 C2 1_555 1_555
C2 C3 1_555 1_555
C3 H1 1_555 1_555
C4 C3 1_555 1_555
H2 C4 1_555 1_555
C5 C4 1_555 1_555
C6 C5 1_555 1_555
H3 C6 1_555 1_555
C7 C2 1_555 1_555
H4 C7 1_555 1_555
C8 C5 1_555 1_555
H5 C8 1_555 1_555
C14 C13 1_555 1_555
H8 C14 1_555 1_555
C15 C10 1_555 1_555
H9 C15 1_555 1_555
N1 C8 1_555 1_555
N2 N1 1_555 1_555
O5 C1 1_555 1_555
C36 C13 1_555 1_555
Cd9 O3 1_555 1_555
Cd13 O3 1_555 1_555
C6 C7 1_555 1_555
C14 C15 1_555 1_555
N2 C36 1_555 1_555
H12 C21 1_555 1_555
H22 C32 1_555 1_555
C37 C38 1_555 1_555
C38 C39 1_555 1_555
C39 H33 1_555 1_555
C40 C39 1_555 1_555
H34 C40 1_555 1_555
C41 C40 1_555 1_555
C43 C38 1_555 1_555
H36 C43 1_555 1_555
O11 C37 1_555 1_555
O12 C37 1_555 1_555
Cd9 O11 1_555 1_555
O12 Cd9 1_555 1_555
C45 C46 1_555 1_555
C46 C47 1_555 1_555
C47 H38 1_555 1_555
C50 C49 1_555 1_555
H40 C50 1_555 1_555
C51 C46 1_555 1_555
H41 C51 1_555 1_555
O13 C45 1_555 1_555
O14 C45 1_555 1_555
Cd13 O13 1_555 1_555
C63 H48 1_555 1_555
C64 C63 1_555 1_555
H49 C64 1_555 1_555
S3 O16 1_555 1_555
O16 Cd9 1_555 1_555
C69 S3 1_555 1_555
H55 C69 1_555 1_555
H56 C69 1_555 1_555
H57 C69 1_555 1_555
C70 S3 1_555 1_555
H58 C70 1_555 1_555
H59 C70 1_555 1_555
H60 C70 1_555 1_555
O18 Cd13 1_555 1_555
O30 C61 1_555 1_555
C50 C51 1_555 1_555
O14 Cd13 1_555 1_555
Cd13 O16 1_555 1_555
H15 C26 1_555 1_555
H29 C35 1_555 1_555
H30 C35 1_555 1_555
H31 C35 1_555 1_555
C31 H19 1_555 1_555
H20 C31 1_555 1_555
Cd2 O2 1_555 1_555
C11 H6 1_555 1_555
C12 C11 1_555 1_555
H7 C12 1_555 1_555
C16 C17 1_555 1_555
C17 C18 1_555 1_555
C18 H10 1_555 1_555
C19 C18 1_555 1_555
H11 C19 1_555 1_555
C20 C19 1_555 1_555
C22 C17 1_555 1_555
H13 C22 1_555 1_555
C23 C24 1_555 1_555
C24 C25 1_555 1_555
C25 H14 1_555 1_555
C28 C27 1_555 1_555
H16 C28 1_555 1_555
C29 C24 1_555 1_555
H17 C29 1_555 1_555
S1 O2 1_555 1_555
O2 Cd6 1_555 1_555
C33 S1 1_555 1_555
H23 C33 1_555 1_555
H24 C33 1_555 1_555
H25 C33 1_555 1_555
C34 S1 1_555 1_555
H26 C34 1_555 1_555
H27 C34 1_555 1_555
H28 C34 1_555 1_555
O4 Cd2 1_555 1_555
O6 Cd2 1_555 1_555
O7 Cd2 1_555 1_555
O8 C9 1_555 1_555
O9 Cd6 1_555 1_555
O10 Cd6 1_555 1_555
H35 C42 1_555 1_555
H37 C44 1_555 1_555
O26 Cd6 1_555 1_555
Cd2 O26 1_555 1_555
C16 O9 1_555 1_555
C16 O10 1_555 1_555
C23 O6 1_555 1_555
C23 O7 1_555 1_555
C28 C29 1_555 1_555
O22 C53 1_555 1_555
C53 C54 1_555 1_555
C54 C55 1_555 1_555
C55 H43 1_555 1_555
C56 C55 1_555 1_555
H44 C56 1_555 1_555
C57 C56 1_555 1_555
C58 C57 1_555 1_555
H45 C58 1_555 1_555
C59 C54 1_555 1_555
H46 C59 1_555 1_555
C60 C57 1_555 1_555
H47 C60 1_555 1_555
C66 C65 1_555 1_555
H50 C66 1_555 1_555
C67 C62 1_555 1_555
H51 C67 1_555 1_555
N7 C60 1_555 1_555
N8 N7 1_555 1_555
O28 C53 1_555 1_555
C72 C65 1_555 1_555
C58 C59 1_555 1_555
C66 C67 1_555 1_555
N8 C72 1_555 1_555
C68 H52 1_555 1_555
H53 C68 1_555 1_555
H39 C48 1_555 1_555
H61 C71 1_555 1_555
H62 C71 1_555 1_555
H63 C71 1_555 1_555

#END
