
###############################################################################
#
# This file contains modified crystal structure data generated from the
# MOF subset of the Cambridge Structural Database (CSD) v543 
# hosted by the Cambridge Crystallographic Data Centre (CCDC).
#
# This work is licensed under the Creative Commons
# Attribution-NonCommercial-ShareAlike 4.0 International License.
# To view a copy of this license, visit
# http://creativecommons.org/licenses/by-nc-sa/4.0/
# or send a letter to
# Creative Commons, PO Box 1866, Mountain View, CA 94042, USA.
#
# CIF created using the CSD Python API on 29 September 2022
# The structure has been converted into the P1 space group
# The structure has a 3D framework
# The original CSD entry PAYKIN is in the triclinic crystal system
# The framework has been calculated to contain at least 10.0% void space
# The void calculation uses a probe of radius 1.32A, grid spacing 0.4
#
###############################################################################

data_PAYKIN
_chemical_formula_moiety         '(C96 H84 Cl24 Cu14 N16 O50 Sc8)n'
_symmetry_cell_setting           triclinic
_symmetry_space_group_name_H-M   'P 1'
_symmetry_Int_Tables_number      1
_space_group_name_Hall           'P 1'
loop_
_symmetry_equiv_pos_site_id
_symmetry_equiv_pos_as_xyz
1 x,y,z
_cell_length_a                   19.6298(12)
_cell_length_b                   20.2011(12)
_cell_length_c                   20.3398(11)
_cell_angle_alpha                82.881(2)
_cell_angle_beta                 78.746(2)
_cell_angle_gamma                87.263(2)
_cell_volume                     7847.24
loop_
_atom_site_label
_atom_site_type_symbol
_atom_site_fract_x
_atom_site_fract_y
_atom_site_fract_z
Cl10 Cl 0.07242(8) 0.20984(10) 0.80048(8)
O10 O 0.1746(2) 0.25834(19) 0.42579(17)
O13 O 0.07696(19) 0.23031(19) 0.39854(17)
N7 N 0.0188(2) 0.2210(2) 0.6496(2)
C7 C 0.0798(3) 0.2346(3) 0.5132(3)
C9 C 0.1135(3) 0.2414(3) 0.4403(3)
C31 C 0.1183(3) 0.2410(3) 0.5615(3)
H25 H 0.1666 0.2495 0.5489
C34 C 0.0855(3) 0.2347(3) 0.6295(3)
H28 H 0.1121 0.2405 0.6626
C39 C 0.0108(3) 0.2200(3) 0.5344(3)
Sc6 Sc 0.25177(5) 0.26581(5) 0.33377(4)
Sc9 Sc 0.09252(5) 0.22900(5) 0.29257(5)
Cu8 Cu 0.02205(4) 0.79547(4) 0.10352(4)
Cl15 Cl 0.08482(14) 0.69682(10) 0.06577(12)
Cl17 Cl 0.07555(10) 0.90354(8) 0.06020(9)
O31 O 0.08237(17) 0.79050(16) 0.16617(16)
O6 O 0.14203(18) 0.13401(17) 0.30938(17)
O14 O 0.2382(2) 0.16030(17) 0.34289(17)
O24 O 0.0488(3) 0.3274(2) 0.2890(2)
H7 H 0.0479 0.3462 0.3284
H8 H 0.0022 0.3287 0.2869
C2 C 0.2318(3) 0.0527(2) 0.3185(2)
C6 C 0.2009(3) 0.1211(2) 0.3239(2)
H11 H 0.1446 0.0032 0.3140
C22 C 0.3016(3) 0.0425(3) 0.3158(3)
H18 H 0.3293 0.0791 0.3181
O26 O 0.18377(18) 0.27221(16) 0.26875(15)
O28 O 0.32253(18) 0.26951(17) 0.24575(16)
O29 O 0.09011(19) 0.22283(17) 0.19091(17)
O33 O 0.32802(19) 0.25263(19) 0.39674(18)
O36 O 0.2429(2) 0.36671(18) 0.33918(18)
Cu1 Cu 0.97093(4) 0.21415(4) 0.74473(4)
Cu2 Cu 0.86191(4) 0.13366(3) 0.85085(4)
Cl3 Cl 0.92794(8) 0.10829(7) 0.74032(7)
Cl6 Cl 0.76708(9) 0.21296(8) 0.86646(13)
Cl7 Cl 0.92508(8) 0.32466(7) 0.72978(8)
Cl12 Cl 0.92445(10) 0.09646(8) 0.93980(9)
O5 O 0.91763(17) 0.20950(16) 0.83383(16)
N1 N 0.8086(2) 0.0510(2) 0.8603(2)
C26 C 0.7403(3) 0.0510(2) 0.8639(3)
H21 H 0.7148 0.0919 0.8679
H33 H 0.9830 0.2146 0.5021
C47 C 0.9815(3) 0.2130(4) 0.6023(3)
H41 H 0.9339 0.2024 0.6160
Cu9 Cu 0.86163(4) 0.28855(4) 0.84198(4)
Cu11 Cu 0.97795(4) 0.20453(4) 0.89648(4)
Cu3 Cu 0.34426(4) 0.84147(3) 0.30497(4)
Cu4 Cu 0.45810(4) 0.75775(4) 0.36703(4)
Cu5 Cu 0.34419(4) 0.68827(4) 0.31611(4)
Cu6 Cu 0.45737(4) 0.76703(4) 0.21333(4)
Sc4 Sc 0.57481(5) 0.73953(5) 0.77088(5)
Cl1 Cl 0.24904(8) 0.76735(8) 0.33009(12)
Cl2 Cl 0.40001(10) 0.65394(8) 0.41178(9)
Cl4 Cl 0.40930(9) 0.66316(8) 0.20827(9)
Cl5 Cl 0.55500(8) 0.75940(10) 0.27377(7)
Cl9 Cl 0.41222(8) 0.87700(7) 0.19398(8)
Cl11 Cl 0.39867(9) 0.85781(8) 0.40044(8)
O8 O 0.40040(17) 0.76381(16) 0.30167(16)
O12 O 0.67198(19) 0.74737(19) 0.60326(18)
O16 O 0.5670(2) 0.7481(2) 0.66886(18)
O19 O 0.5607(2) 0.6350(2) 0.7779(2)
H1 H 0.5989 0.6138 0.7852
H2 H 0.5557 0.6245 0.7387
O20 O 0.5749(2) 0.8447(2) 0.7681(2)
H3 H 0.5720 0.8558 0.8089
H4 H 0.5368 0.8620 0.7557
O21 O 0.4628(2) 0.7492(3) 0.7865(2)
H5 H 0.4337 0.7699 0.8192
H6 H 0.4333 0.7336 0.7624
O23 O 0.1416(3) 0.4146(2) 0.3208(3)
N2 N 0.5106(2) 0.7529(2) 0.4412(2)
N3 N 0.2938(2) 0.9269(2) 0.3091(2)
N5 N 0.2926(2) 0.6056(2) 0.3261(2)
N6 N 0.9670(3) 0.7937(3) 0.0324(2)
N8 N 0.5076(3) 0.7652(2) 0.1210(2)
C3 C 0.6068(3) 0.7482(3) 0.6129(3)
C4 C 0.5737(3) 0.7505(3) 0.5518(2)
C10 C 0.1930(3) 0.9981(2) 0.3139(3)
C15 C 0.2262(3) 0.9363(3) 0.3093(3)
H13 H 0.1996 0.8992 0.3062
H14 H 0.8376 0.7185 0.0002
C18 C 0.2267(3) 0.6022(3) 0.3237(3)
H15 H 0.1998 0.6425 0.3206
C21 C 0.5016(3) 0.7470(3) 0.5599(3)
H17 H 0.4730 0.7448 0.6035
C23 C 0.1945(3) 0.5420(3) 0.3256(3)
H19 H 0.1465 0.5410 0.3241
C24 C 0.5776(3) 0.7554(3) 0.4342(3)
H20 H 0.6046 0.7589 0.3898
C25 C 0.2336(3) 0.4839(3) 0.3295(3)
C27 C 0.6119(3) 0.7534(4) 0.4878(3)
H22 H 0.6612 0.7541 0.4802
C28 C 0.6069(3) 0.7357(3) 0.0408(3)
H23 H 0.6547 0.7227 0.0313
C29 C 0.2017(3) 0.4163(3) 0.3298(3)
C30 C 0.3326(3) 0.9804(3) 0.3098(3)
H24 H 0.3815 0.9751 0.3062
C37 C 0.3308(3) 0.5484(3) 0.3296(3)
H31 H 0.3790 0.5505 0.3302
C38 C 0.3022(3) 0.4875(3) 0.3324(3)
H32 H 0.3300 0.4479 0.3364
C41 C 0.9100(3) 0.7568(4) 0.0424(3)
H35 H 0.8906 0.7388 0.0872
C43 C 0.5007(3) 0.7659(4) 0.0053(3)
C44 C 0.5750(3) 0.7460(3) 0.1052(3)
H38 H 0.6015 0.7394 0.1399
C45 C 0.4733(3) 0.7467(4) 0.5040(3)
H39 H 0.4246 0.7419 0.5099
C48 C 0.4715(3) 0.7757(4) 0.0706(3)
H42 H 0.4244 0.7905 0.0805
Sc8 Sc 0.74823(5) 0.73419(5) 0.66623(4)
Cl16 Cl 0.92758(8) 0.79016(10) 0.19952(8)
O27 O 0.67747(18) 0.73049(17) 0.75425(16)
O35 O 0.56164(19) 0.7335(2) 0.87750(17)
Sc1 Sc 0.74340(5) 0.72099(4) 0.82024(4)
Cl8 Cl 0.91518(14) 0.30318(10) 0.93423(12)
O1 O 0.81623(18) 0.72779(16) 0.73125(15)
O3 O 0.82505(19) 0.71868(17) 0.87869(16)
O4 O 0.90989(19) 0.77717(17) 0.80909(17)
O7 O 0.6649(2) 0.71705(17) 0.90933(16)
O9 O 0.7445(2) 0.82434(17) 0.82833(17)
O11 O 0.7474(2) 0.61682(16) 0.83564(18)
O18 O 0.6414(2) 0.87373(19) 0.8610(2)
O22 O 0.6460(2) 0.5682(2) 0.8462(3)
N4 N 0.8098(3) 0.3738(2) 0.8475(2)
C1 C 0.8788(3) 0.7529(3) 0.8665(3)
C5 C 0.6012(3) 0.7304(3) 0.9196(3)
C8 C 0.7058(3) 0.8717(3) 0.8484(3)
C11 C 0.9086(3) 0.7685(3) 0.9257(3)
C12 C 0.8137(3) 0.9341(2) 0.8524(3)
H12 H 0.8405 0.8938 0.8487
C13 C 0.7429(3) 0.9350(2) 0.8553(3)
C14 C 0.7450(3) 0.4995(3) 0.8445(3)
C16 C 0.5679(3) 0.7446(3) 0.9892(3)
C17 C 0.8787(3) 0.7437(3) 0.9913(3)
C19 C 0.8443(3) 0.9932(3) 0.8548(3)
H16 H 0.8931 0.9931 0.8525
C20 C 0.7098(4) 0.5677(3) 0.8410(3)
C32 C 0.7051(3) 0.9947(3) 0.8619(3)
H26 H 0.6562 0.9963 0.8649
C33 C 0.7421(3) 0.3802(3) 0.8478(3)
H27 H 0.7162 0.3413 0.8495
C35 C 0.7082(3) 0.4420(3) 0.8456(3)
H29 H 0.6599 0.4451 0.8449
C36 C 0.9669(4) 0.8057(3) 0.9154(3)
H30 H 0.9873 0.8243 0.8711
C40 C 0.8461(3) 0.4295(3) 0.8450(3)
H34 H 0.8945 0.4255 0.8447
C42 C 0.8145(3) 0.4924(3) 0.8428(3)
H36 H 0.8415 0.5308 0.8400
H37 H 0.4736 0.7740 0.9711
C46 C 0.9956(4) 0.8158(4) 0.9689(3)
Sc10 Sc 0.90748(5) 0.77100(5) 0.70743(5)
Cu7 Cu 0.13837(4) 0.71145(4) 0.15802(4)
Sc1_2 Sc 0.25660(5) 0.27901(4) 0.17976(4)
O3_2 O 0.17495(19) 0.28132(17) 0.12131(16)
O7_2 O 0.3351(2) 0.28295(17) 0.09067(16)
O9_2 O 0.2555(2) 0.17566(17) 0.17167(17)
O11_2 O 0.2526(2) 0.38318(16) 0.16436(18)
O15 O 0.43836(19) 0.2665(2) 0.12250(17)
O18_2 O 0.3586(2) 0.12627(19) 0.1390(2)
O22_2 O 0.3540(2) 0.4318(2) 0.1538(3)
N4_2 N 0.1902(3) 0.6262(2) 0.1525(2)
C1_2 C 0.1212(3) 0.2471(3) 0.1335(3)
C5_2 C 0.3988(3) 0.2696(3) 0.0804(3)
C8_2 C 0.2942(3) 0.1283(3) 0.1516(3)
C11_2 C 0.0914(3) 0.2315(3) 0.0743(3)
C12_2 C 0.1863(3) 0.0659(2) 0.1476(3)
H12_2 H 0.1595 0.1062 0.1513
C13_2 C 0.2571(3) 0.0650(2) 0.1447(3)
C14_2 C 0.2550(3) 0.5005(3) 0.1555(3)
C16_2 C 0.4321(3) 0.2554(3) 0.0108(3)
C17_2 C 0.1213(3) 0.2563(3) 0.0087(3)
C19_2 C 0.1557(3) 0.0068(3) 0.1452(3)
H16_2 H 0.1069 0.0069 0.1475
C20_2 C 0.2902(4) 0.4323(3) 0.1590(3)
C32_2 C 0.2949(3) 0.0053(3) 0.1381(3)
H26_2 H 0.3438 0.0037 0.1351
C33_2 C 0.2579(3) 0.6198(3) 0.1522(3)
H27_2 H 0.2838 0.6587 0.1505
C35_2 C 0.2918(3) 0.5580(3) 0.1544(3)
H29_2 H 0.3401 0.5549 0.1551
C36_2 C 0.0331(4) 0.1943(3) 0.0846(3)
H30_2 H 0.0127 0.1757 0.1289
C40_2 C 0.1539(3) 0.5705(3) 0.1550(3)
H34_2 H 0.1055 0.5745 0.1553
C42_2 C 0.1855(3) 0.5076(3) 0.1572(3)
H36_2 H 0.1585 0.4692 0.1600
H37_2 H 0.5264 0.2260 0.0289
C46_2 C 0.0044(4) 0.1842(4) 0.0311(3)
Sc11 Sc 0.42519(5) 0.26047(5) 0.22912(5)
Cl13 Cl 0.23292(9) 0.78704(8) 0.13354(13)
Cl14 Cl 0.07492(8) 0.67534(7) 0.27022(8)
Cu3_2 Cu 0.65574(4) 0.15853(3) 0.69503(4)
Cu4_2 Cu 0.54190(4) 0.24225(4) 0.63297(4)
Cu5_2 Cu 0.65581(4) 0.31173(4) 0.68389(4)
Cu6_2 Cu 0.54263(4) 0.23297(4) 0.78667(4)
Cl1_2 Cl 0.75096(8) 0.23265(8) 0.66991(12)
Cl2_2 Cl 0.59999(10) 0.34606(8) 0.58822(9)
Cl4_2 Cl 0.59070(9) 0.33684(8) 0.79173(9)
Cl5_2 Cl 0.44500(8) 0.24060(10) 0.72623(7)
Cl9_2 Cl 0.58778(8) 0.12300(7) 0.80602(8)
Cl11_2 Cl 0.60133(9) 0.14219(8) 0.59956(8)
O8_2 O 0.59960(17) 0.23619(16) 0.69833(16)
O16_2 O 0.4330(2) 0.2519(2) 0.33114(18)
O17 O 0.7571(2) 0.63329(18) 0.66082(18)
O19_2 O 0.4393(2) 0.3650(2) 0.2221(2)
H1_2 H 0.4011 0.3862 0.2148
H2_2 H 0.4443 0.3755 0.2613
O20_2 O 0.4251(2) 0.1553(2) 0.2319(2)
H3_2 H 0.4280 0.1442 0.1911
H4_2 H 0.4632 0.1380 0.2443
O21_2 O 0.5372(2) 0.2508(3) 0.2135(2)
H5_2 H 0.5663 0.2301 0.1808
H6_2 H 0.5667 0.2664 0.2376
O23_2 O 0.8584(3) 0.5854(2) 0.6792(3)
N2_2 N 0.4894(2) 0.2471(2) 0.5588(2)
N3_2 N 0.7062(2) 0.0731(2) 0.6909(2)
N5_2 N 0.7074(2) 0.3944(2) 0.6739(2)
N6_2 N 0.0330(3) 0.2063(3) 0.9676(2)
N8_2 N 0.4924(3) 0.2348(2) 0.8790(2)
C3_2 C 0.3932(3) 0.2518(3) 0.3871(3)
C4_2 C 0.4263(3) 0.2495(3) 0.4482(2)
C10_2 C 0.8070(3) 0.0019(2) 0.6861(3)
C15_2 C 0.7738(3) 0.0637(3) 0.6907(3)
H13_2 H 0.8004 0.1008 0.6938
H14_2 H 0.1624 0.2815 0.9998
C18_2 C 0.7733(3) 0.3978(3) 0.6763(3)
H15_2 H 0.8002 0.3575 0.6794
C21_2 C 0.4984(3) 0.2530(3) 0.4401(3)
H17_2 H 0.5270 0.2552 0.3965
C23_2 C 0.8055(3) 0.4580(3) 0.6744(3)
H19_2 H 0.8535 0.4590 0.6759
C24_2 C 0.4224(3) 0.2446(3) 0.5658(3)
H20_2 H 0.3954 0.2411 0.6102
C25_2 C 0.7664(3) 0.5161(3) 0.6705(3)
C27_2 C 0.3881(3) 0.2466(4) 0.5122(3)
H22_2 H 0.3388 0.2459 0.5198
C28_2 C 0.3931(3) 0.2643(3) 0.9592(3)
H23_2 H 0.3453 0.2773 0.9687
C29_2 C 0.7983(3) 0.5837(3) 0.6702(3)
C30_2 C 0.6674(3) 0.0196(3) 0.6902(3)
H24_2 H 0.6185 0.0249 0.6938
C37_2 C 0.6692(3) 0.4516(3) 0.6704(3)
H31_2 H 0.6210 0.4495 0.6698
C38_2 C 0.6978(3) 0.5125(3) 0.6676(3)
H32_2 H 0.6700 0.5521 0.6636
C41_2 C 0.0900(3) 0.2432(4) 0.9576(3)
H35_2 H 0.1094 0.2612 0.9128
C43_2 C 0.4993(3) 0.2341(4) 0.9947(3)
C44_2 C 0.4250(3) 0.2540(3) 0.8948(3)
H38_2 H 0.3985 0.2606 0.8601
C45_2 C 0.5267(3) 0.2533(4) 0.4960(3)
H39_2 H 0.5754 0.2581 0.4901
C48_2 C 0.5285(3) 0.2243(4) 0.9294(3)
H42_2 H 0.5756 0.2095 0.9195
Cu1_2 Cu 0.02907(4) 0.78585(4) 0.25527(4)
Cu2_2 Cu 0.13809(4) 0.86634(3) 0.14915(4)
Cl3_2 Cl 0.07206(8) 0.89171(7) 0.25968(7)
N1_2 N 0.1914(2) 0.9490(2) 0.1397(2)
C26_2 C 0.2597(3) 0.9490(2) 0.1361(3)
H21_2 H 0.2852 0.9081 0.1321
H33_2 H 0.0170 0.7854 0.4979
C47_2 C 0.0185(3) 0.7870(4) 0.3977(3)
H41_2 H 0.0661 0.7976 0.3840
O6_2 O 0.85797(18) 0.86599(17) 0.69062(17)
O14_2 O 0.7618(2) 0.83970(17) 0.65711(17)
O24_2 O 0.9512(3) 0.6726(2) 0.7110(2)
H7_2 H 0.9521 0.6538 0.6716
H8_2 H 0.9978 0.6713 0.7131
C2_2 C 0.7682(3) 0.9473(2) 0.6815(2)
C6_2 C 0.7991(3) 0.8789(2) 0.6761(2)
H11_2 H 0.8554 0.9968 0.6860
C22_2 C 0.6984(3) 0.9575(3) 0.6842(3)
H18_2 H 0.6707 0.9209 0.6819
O32 O 0.8254(2) 0.74166(19) 0.57421(17)
O34 O 0.92304(19) 0.76969(19) 0.60146(17)
N7_2 N 0.9812(2) 0.7790(2) 0.3504(2)
C7_2 C 0.9202(3) 0.7654(3) 0.4868(3)
C9_2 C 0.8865(3) 0.7586(3) 0.5597(3)
C31_2 C 0.8817(3) 0.7590(3) 0.4385(3)
H25_2 H 0.8334 0.7505 0.4511
C34_2 C 0.9145(3) 0.7653(3) 0.3705(3)
H28_2 H 0.8879 0.7595 0.3374
C39_2 C 0.9892(3) 0.7800(3) 0.4656(3)
H40 H 0.0377 0.8394 0.9608
O25 O 0.9928(2) 0.1859(3) 0.3125(2)
H9 H 0.9624 0.1782 0.3532
H10 H 0.9696 0.1713 0.2820
O25_2 O 0.0072(2) 0.8141(3) 0.6875(2)
H9_2 H 0.0376 0.8218 0.6468
H10_2 H 0.0304 0.8287 0.7180
H40_2 H 0.9623 0.1606 0.0392
loop_
_geom_bond_atom_site_label_1
_geom_bond_atom_site_label_2
_geom_bond_site_symmetry_1
_geom_bond_site_symmetry_2
O10 C9 1_555 1_555
O13 C9 1_555 1_555
C7 C9 1_555 1_555
C31 C7 1_555 1_555
H25 C31 1_555 1_555
C34 N7 1_555 1_555
H28 C34 1_555 1_555
C39 C7 1_555 1_555
Sc6 O10 1_555 1_555
Sc9 O13 1_555 1_555
C31 C34 1_555 1_555
Cl15 Cu8 1_555 1_555
Cl17 Cu8 1_555 1_555
O31 Cu8 1_555 1_555
Sc6 O14 1_555 1_555
Sc9 O6 1_555 1_555
O6 C6 1_555 1_555
O14 C6 1_555 1_555
O24 Sc9 1_555 1_555
H7 O24 1_555 1_555
H8 O24 1_555 1_555
C2 C6 1_555 1_555
C22 C2 1_555 1_555
H18 C22 1_555 1_555
O26 Sc6 1_555 1_555
O28 Sc6 1_555 1_555
O29 Sc9 1_555 1_555
O33 Sc6 1_555 1_555
O36 Sc6 1_555 1_555
Sc9 O26 1_555 1_555
Cu1 Cl3 1_555 1_555
Cu2 Cl3 1_555 1_555
Cl6 Cu2 1_555 1_555
Cl7 Cu1 1_555 1_555
Cl12 Cu2 1_555 1_555
O5 Cu1 1_555 1_555
N1 Cu2 1_555 1_555
C26 N1 1_555 1_555
H21 C26 1_555 1_555
H41 C47 1_555 1_555
Cu9 Cl6 1_555 1_555
Cu2 O5 1_555 1_555
Cl7 Cu9 1_555 1_555
Cl12 Cu11 1_555 1_555
O5 Cu9 1_555 1_555
O5 Cu11 1_555 1_555
Cu3 Cl1 1_555 1_555
Cu4 Cl2 1_555 1_555
Cu5 Cl1 1_555 1_555
Cu6 Cl4 1_555 1_555
Sc4 O16 1_555 1_555
Cl2 Cu5 1_555 1_555
Cl4 Cu5 1_555 1_555
Cl5 Cu4 1_555 1_555
Cl9 Cu3 1_555 1_555
Cl11 Cu3 1_555 1_555
O8 Cu3 1_555 1_555
O12 C3 1_555 1_555
O16 C3 1_555 1_555
O36 C29 1_555 1_555
O19 Sc4 1_555 1_555
H1 O19 1_555 1_555
H2 O19 1_555 1_555
O20 Sc4 1_555 1_555
H3 O20 1_555 1_555
H4 O20 1_555 1_555
O21 Sc4 1_555 1_555
H5 O21 1_555 1_555
H6 O21 1_555 1_555
O23 C29 1_555 1_555
N2 Cu4 1_555 1_555
N3 Cu3 1_555 1_555
N5 Cu5 1_555 1_555
N6 C41 1_555 1_555
N8 Cu6 1_555 1_555
C3 C4 1_555 1_555
C4 C21 1_555 1_555
C15 N3 1_555 1_555
H13 C15 1_555 1_555
C18 N5 1_555 1_555
H15 C18 1_555 1_555
C21 H17 1_555 1_555
C23 C18 1_555 1_555
H19 C23 1_555 1_555
C24 N2 1_555 1_555
H20 C24 1_555 1_555
C25 C23 1_555 1_555
C27 C4 1_555 1_555
H22 C27 1_555 1_555
H23 C28 1_555 1_555
C29 C25 1_555 1_555
C30 N3 1_555 1_555
H24 C30 1_555 1_555
C37 N5 1_555 1_555
H31 C37 1_555 1_555
C38 C25 1_555 1_555
H32 C38 1_555 1_555
H35 C41 1_555 1_555
C44 N8 1_555 1_555
H38 C44 1_555 1_555
C45 N2 1_555 1_555
H39 C45 1_555 1_555
C48 N8 1_555 1_555
H42 C48 1_555 1_555
Sc8 O12 1_555 1_555
O27 Sc4 1_555 1_555
O35 Sc4 1_555 1_555
Cu4 Cl11 1_555 1_555
Cu4 O8 1_555 1_555
Cu5 O8 1_555 1_555
Cu6 Cl5 1_555 1_555
Cu6 Cl9 1_555 1_555
Cu6 O8 1_555 1_555
C10 C15 1_555 1_555
C21 C45 1_555 1_555
C24 C27 1_555 1_555
C28 C44 1_555 1_555
C37 C38 1_555 1_555
C43 C48 1_555 1_555
Sc8 O27 1_555 1_555
Cu9 Cl8 1_555 1_555
Sc1 O1 1_555 1_555
Cl8 Cu11 1_555 1_555
O1 Sc8 1_555 1_555
O27 Sc1 1_555 1_555
O3 Sc1 1_555 1_555
O4 C1 1_555 1_555
O7 Sc1 1_555 1_555
O9 Sc1 1_555 1_555
O11 Sc1 1_555 1_555
O35 C5 1_555 1_555
O18 C8 1_555 1_555
O22 C20 1_555 1_555
N4 Cu9 1_555 1_555
C1 O3 1_555 1_555
C5 O7 1_555 1_555
C8 O9 1_555 1_555
C11 C1 1_555 1_555
C12 H12 1_555 1_555
C13 C8 1_555 1_555
C14 C20 1_555 1_555
C16 C5 1_555 1_555
C17 C11 1_555 1_555
H16 C19 1_555 1_555
C20 O11 1_555 1_555
C32 C13 1_555 1_555
H26 C32 1_555 1_555
C33 N4 1_555 1_555
H27 C33 1_555 1_555
C35 C14 1_555 1_555
H29 C35 1_555 1_555
C36 C11 1_555 1_555
H30 C36 1_555 1_555
C40 N4 1_555 1_555
H34 C40 1_555 1_555
C42 C14 1_555 1_555
H36 C42 1_555 1_555
Sc10 O1 1_555 1_555
O4 Sc10 1_555 1_555
C12 C13 1_555 1_555
C12 C19 1_555 1_555
C33 C35 1_555 1_555
C36 C46 1_555 1_555
C40 C42 1_555 1_555
Cu7 Cl15 1_555 1_555
Sc1_2 O26 1_555 1_555
O28 Sc1_2 1_555 1_555
O3_2 Sc1_2 1_555 1_555
O29 C1_2 1_555 1_555
O7_2 Sc1_2 1_555 1_555
O9_2 Sc1_2 1_555 1_555
O11_2 Sc1_2 1_555 1_555
O15 C5_2 1_555 1_555
O18_2 C8_2 1_555 1_555
O22_2 C20_2 1_555 1_555
N4_2 Cu7 1_555 1_555
C1_2 O3_2 1_555 1_555
C5_2 O7_2 1_555 1_555
C8_2 O9_2 1_555 1_555
C11_2 C1_2 1_555 1_555
C12_2 H12_2 1_555 1_555
C13_2 C8_2 1_555 1_555
C14_2 C20_2 1_555 1_555
C16_2 C5_2 1_555 1_555
C17_2 C11_2 1_555 1_555
H16_2 C19_2 1_555 1_555
C20_2 O11_2 1_555 1_555
C32_2 C13_2 1_555 1_555
H26_2 C32_2 1_555 1_555
C33_2 N4_2 1_555 1_555
H27_2 C33_2 1_555 1_555
C35_2 C14_2 1_555 1_555
H29_2 C35_2 1_555 1_555
C36_2 C11_2 1_555 1_555
H30_2 C36_2 1_555 1_555
C40_2 N4_2 1_555 1_555
H34_2 C40_2 1_555 1_555
C42_2 C14_2 1_555 1_555
H36_2 C42_2 1_555 1_555
Sc11 O28 1_555 1_555
Cl13 Cu7 1_555 1_555
Cl14 Cu7 1_555 1_555
O31 Cu7 1_555 1_555
O15 Sc11 1_555 1_555
C12_2 C13_2 1_555 1_555
C12_2 C19_2 1_555 1_555
C33_2 C35_2 1_555 1_555
C36_2 C46_2 1_555 1_555
C40_2 C42_2 1_555 1_555
Cu3_2 Cl1_2 1_555 1_555
Cu4_2 Cl2_2 1_555 1_555
Cu5_2 Cl1_2 1_555 1_555
Cu6_2 Cl4_2 1_555 1_555
Sc11 O16_2 1_555 1_555
Cl2_2 Cu5_2 1_555 1_555
Cl4_2 Cu5_2 1_555 1_555
Cl5_2 Cu4_2 1_555 1_555
Cl9_2 Cu3_2 1_555 1_555
Cl11_2 Cu3_2 1_555 1_555
O8_2 Cu3_2 1_555 1_555
O33 C3_2 1_555 1_555
O16_2 C3_2 1_555 1_555
O17 C29_2 1_555 1_555
O19_2 Sc11 1_555 1_555
H1_2 O19_2 1_555 1_555
H2_2 O19_2 1_555 1_555
O20_2 Sc11 1_555 1_555
H3_2 O20_2 1_555 1_555
H4_2 O20_2 1_555 1_555
O21_2 Sc11 1_555 1_555
H5_2 O21_2 1_555 1_555
H6_2 O21_2 1_555 1_555
O23_2 C29_2 1_555 1_555
N2_2 Cu4_2 1_555 1_555
N3_2 Cu3_2 1_555 1_555
N5_2 Cu5_2 1_555 1_555
N6_2 C41_2 1_555 1_555
N8_2 Cu6_2 1_555 1_555
C3_2 C4_2 1_555 1_555
C4_2 C21_2 1_555 1_555
C15_2 N3_2 1_555 1_555
H13_2 C15_2 1_555 1_555
C18_2 N5_2 1_555 1_555
H15_2 C18_2 1_555 1_555
C21_2 H17_2 1_555 1_555
C23_2 C18_2 1_555 1_555
H19_2 C23_2 1_555 1_555
C24_2 N2_2 1_555 1_555
H20_2 C24_2 1_555 1_555
C25_2 C23_2 1_555 1_555
C27_2 C4_2 1_555 1_555
H22_2 C27_2 1_555 1_555
H23_2 C28_2 1_555 1_555
C29_2 C25_2 1_555 1_555
C30_2 N3_2 1_555 1_555
H24_2 C30_2 1_555 1_555
C37_2 N5_2 1_555 1_555
H31_2 C37_2 1_555 1_555
C38_2 C25_2 1_555 1_555
H32_2 C38_2 1_555 1_555
H35_2 C41_2 1_555 1_555
C44_2 N8_2 1_555 1_555
H38_2 C44_2 1_555 1_555
C45_2 N2_2 1_555 1_555
H39_2 C45_2 1_555 1_555
C48_2 N8_2 1_555 1_555
H42_2 C48_2 1_555 1_555
Sc8 O17 1_555 1_555
Cu4_2 Cl11_2 1_555 1_555
Cu4_2 O8_2 1_555 1_555
Cu5_2 O8_2 1_555 1_555
Cu6_2 Cl5_2 1_555 1_555
Cu6_2 Cl9_2 1_555 1_555
Cu6_2 O8_2 1_555 1_555
C10_2 C15_2 1_555 1_555
C21_2 C45_2 1_555 1_555
C24_2 C27_2 1_555 1_555
C28_2 C44_2 1_555 1_555
C37_2 C38_2 1_555 1_555
C43_2 C48_2 1_555 1_555
Cu1_2 Cl3_2 1_555 1_555
Cu2_2 Cl3_2 1_555 1_555
Cl13 Cu2_2 1_555 1_555
Cl14 Cu1_2 1_555 1_555
Cl17 Cu2_2 1_555 1_555
O31 Cu1_2 1_555 1_555
N1_2 Cu2_2 1_555 1_555
C26_2 N1_2 1_555 1_555
H21_2 C26_2 1_555 1_555
H41_2 C47_2 1_555 1_555
Cu2_2 O31 1_555 1_555
Sc8 O14_2 1_555 1_555
Sc10 O6_2 1_555 1_555
O6_2 C6_2 1_555 1_555
O14_2 C6_2 1_555 1_555
O24_2 Sc10 1_555 1_555
H7_2 O24_2 1_555 1_555
H8_2 O24_2 1_555 1_555
C2_2 C6_2 1_555 1_555
C22_2 C2_2 1_555 1_555
H18_2 C22_2 1_555 1_555
O32 Sc8 1_555 1_555
O34 Sc10 1_555 1_555
O32 C9_2 1_555 1_555
O34 C9_2 1_555 1_555
C7_2 C9_2 1_555 1_555
C31_2 C7_2 1_555 1_555
H25_2 C31_2 1_555 1_555
C34_2 N7_2 1_555 1_555
H28_2 C34_2 1_555 1_555
C39_2 C7_2 1_555 1_555
C31_2 C34_2 1_555 1_555
H9 O25 1_555 1_555
H10 O25 1_555 1_555
H9_2 O25_2 1_555 1_555
H10_2 O25_2 1_555 1_555

#END
