
###############################################################################
#
# This file contains modified crystal structure data generated from the
# MOF subset of the Cambridge Structural Database (CSD) v543 
# hosted by the Cambridge Crystallographic Data Centre (CCDC).
#
# This work is licensed under the Creative Commons
# Attribution-NonCommercial-ShareAlike 4.0 International License.
# To view a copy of this license, visit
# http://creativecommons.org/licenses/by-nc-sa/4.0/
# or send a letter to
# Creative Commons, PO Box 1866, Mountain View, CA 94042, USA.
#
# CIF created using the CSD Python API on 29 September 2022
# The structure has been converted into the P1 space group
# The structure has a 3D framework
# The original CSD entry PECKIV is in the monoclinic crystal system
# The framework has been calculated to contain at least 10.0% void space
# The void calculation uses a probe of radius 1.32A, grid spacing 0.4
# H atom positions have been added when not included in the experimental data
# Generated hydrogen atom positions removed from atoms on special positions
#
###############################################################################

data_PECKIV
_chemical_formula_moiety         '(C84 H132 Ca13 Dy4 N12 O72)n'
_symmetry_cell_setting           triclinic
_symmetry_space_group_name_H-M   'P 1'
_symmetry_Int_Tables_number      1
_space_group_name_Hall           'P 1'
loop_
_symmetry_equiv_pos_site_id
_symmetry_equiv_pos_as_xyz
1 x,y,z
_cell_length_a                   16.231(3)
_cell_length_b                   9.431(3)
_cell_length_c                   24.107(3)
_cell_angle_alpha                90
_cell_angle_beta                 108.22(3)
_cell_angle_gamma                90
_cell_volume                     3505.15
loop_
_atom_site_label
_atom_site_type_symbol
_atom_site_fract_x
_atom_site_fract_y
_atom_site_fract_z
Dy1 Dy 0.20158(2) 0.00195(4) 0.402949(18)
Ca2 Ca 0.5000 0.5000 0.5000
Ca3 Ca 0.0000 0.5000 0.5000
O3 O 0.3129(3) 0.1780(5) 0.4132(2)
O4 O 0.4341(3) 0.2886(6) 0.4643(2)
O5 O 0.1262(3) 0.1838(5) 0.3367(2)
O6 O 0.0985(3) 0.3066(6) 0.2529(2)
O11 O 0.1651(3) 0.1739(5) 0.4653(2)
O12 O 0.0685(3) 0.2932(5) 0.4953(2)
N2 N 0.2361(4) 0.0174(5) 0.3104(3)
C5 C 0.4645(5) 0.0788(10) 0.5552(4)
H3 H 0.5100 0.1426 0.5604
C6 C 0.3911(4) 0.0868(8) 0.5055(3)
C7 C 0.3795(5) 0.1945(8) 0.4581(3)
C8 C 0.1357(4) 0.2122(8) 0.2870(3)
C9 C 0.2028(4) 0.1205(8) 0.2706(3)
C10 C 0.2261(5) 0.1435(10) 0.2220(4)
H4 H 0.2020 0.2168 0.1962
C11 C 0.2873(6) 0.0532(12) 0.2125(4)
H5 H 0.3060 0.0656 0.1801
C20 C 0.0208(4) 0.0892(7) 0.4346(3)
C21 C 0.0886(5) 0.1954(8) 0.4676(3)
O15 O 0.5093(6) 0.5530(10) 0.4081(4)
O16 O 0.3635(4) 0.6036(6) 0.4668(3)
O17 O 0.0835(4) 0.5953(6) 0.4466(2)
C40 C 0.0608(5) 0.0852(9) 0.0607(3)
H18 H 0.0780 0.1500 0.0374
O33 O 0.4907(6) 0.4470(10) 0.5919(4)
O34 O 0.6365(4) 0.3964(6) 0.5332(3)
O36 O 0.1120(4) 0.5620(7) 0.5866(3)
Ca4 Ca 0.0000 0.50476(15) 0.2500
Ca6 Ca -0.0000 0.5000 0.0000
O37 O 0.5659(3) 0.7114(6) 0.5357(2)
Ca6_2 Ca 0.0000 0.5000 1.0000
O1 O 0.1930(3) 0.8231(5) 0.4739(2)
O2 O 0.2416(3) 0.7225(6) 0.5620(3)
O7 O 0.3054(3) 0.8302(5) 0.3910(2)
O8 O 0.3847(4) 0.7341(6) 0.3403(2)
O9 O 0.1114(3) 0.8251(5) 0.3419(2)
N1 N 0.3234(4) 0.9961(5) 0.4962(3)
N3 N 0.0477(4) 0.9985(5) 0.4028(3)
C1 C 0.2480(5) 0.8049(8) 0.5235(3)
C2 C 0.3280(4) 0.8959(7) 0.5387(3)
C3 C 0.3967(5) 0.8851(9) 0.5872(3)
H1 H 0.3969 0.8172 0.6153
C4 C 0.4681(7) 0.9761(10) 0.5957(5)
H2 H 0.5170 0.9664 0.6283
C12 C 0.3202(6) 0.9459(11) 0.2509(4)
H6 H 0.3601 0.8830 0.2441
C13 C 0.2945(4) 0.9311(9) 0.2991(3)
C14 C 0.3317(5) 0.8211(8) 0.3470(3)
C15 C 0.0327(4) 0.8011(7) 0.3376(3)
O13 O 0.0296(3) 0.4088(5) 0.3517(2)
O14 O 0.1504(3) 0.5902(5) 0.2877(2)
O28 O 0.0125(3) 0.7038(5) 0.1905(2)
C37 C 0.0054(4) 0.8994(8) 0.1276(3)
C38 C 0.0898(5) 0.8878(8) 0.1259(4)
H16 H 0.1268 0.8182 0.1473
C39 C 0.1174(6) 0.9823(8) 0.0916(4)
H17 H 0.1734 0.9766 0.0892
H22 H 0.0416871 0.305563 0.351833
H37 H 0.000484465 0.468387 0.126649
Ca3_2 Ca 1.0000 0.5000 0.5000
C19 C 0.9392(5) 0.0852(9) 0.4393(3)
H9 H 0.9220 0.1500 0.4626
O18 O 0.8880(4) 0.4380(7) 0.4134(3)
Dy2 Dy 0.79842(2) 0.00195(4) 0.097051(18)
O21 O 0.6871(3) 0.1780(5) 0.0868(2)
O22 O 0.5659(3) 0.2886(6) 0.0357(2)
O23 O 0.8738(3) 0.1838(5) 0.1633(2)
O24 O 0.9015(3) 0.3066(6) 0.2471(2)
O29 O 0.8349(3) 0.1739(5) 0.0347(2)
O30 O 0.9315(3) 0.2932(5) 0.0047(2)
N5 N 0.7639(4) 0.0174(5) 0.1896(3)
C28 C 0.6205(5) 0.1945(8) 0.0419(3)
C29 C 0.8643(4) 0.2122(8) 0.2130(3)
C30 C 0.7972(4) 0.1205(8) 0.2294(3)
C31 C 0.7739(5) 0.1435(10) 0.2780(4)
H13 H 0.7980 0.2168 0.3038
C32 C 0.7127(6) 0.0532(12) 0.2875(4)
H14 H 0.6940 0.0656 0.3199
C41 C 0.9792(4) 0.0892(7) 0.0654(3)
C42 C 0.9114(5) 0.1954(8) 0.0324(3)
O35 O 0.9165(4) 0.4047(6) 0.5534(2)
Ca4_2 Ca 1.0000 0.50476(15) 0.2500
Ca5 Ca 0.5000 0.5000 0.0000
Ca6_3 Ca 1.0000 0.5000 0.0000
O40 O 0.9315(3) 0.7068(5) 0.5047(2)
C26 C 0.5355(5) 0.0788(10) 0.9448(4)
H12 H 0.4900 0.1426 0.9396
C27 C 0.6089(4) 0.0868(8) 0.9945(3)
Ca5_2 Ca 0.5000 0.5000 1.0000
Ca6_4 Ca 1.0000 0.5000 1.0000
O10 O 0.9875(3) 0.7038(5) 0.3095(2)
C16 C 0.9946(4) 0.8994(8) 0.3724(3)
C17 C 0.9102(5) 0.8878(8) 0.3741(4)
H7 H 0.8732 0.8182 0.3527
C18 C 0.8826(6) 0.9823(8) 0.4084(4)
H8 H 0.8266 0.9766 0.4108
O19 O 0.8070(3) 0.8231(5) 0.0261(2)
O25 O 0.6946(3) 0.8302(5) 0.1090(2)
O26 O 0.6153(4) 0.7341(6) 0.1597(2)
O27 O 0.8886(3) 0.8251(5) 0.1581(2)
N4 N 0.6766(4) 0.9961(5) 0.0038(3)
N6 N 0.9523(4) 0.9985(5) 0.0972(3)
C33 C 0.6798(6) 0.9459(11) 0.2491(4)
H15 H 0.6399 0.8830 0.2559
C34 C 0.7055(4) 0.9311(9) 0.2009(3)
C35 C 0.6683(5) 0.8211(8) 0.1530(3)
C36 C 0.9673(4) 0.8011(7) 0.1624(3)
O31 O 0.9704(3) 0.4088(5) 0.1483(2)
O32 O 0.8496(3) 0.5902(5) 0.2123(2)
H21 H 0.978173 0.424843 0.364866
H38 H 0.992041 0.30984 0.150332
O18_2 O 0.1120(4) 0.4380(7) 0.0866(3)
O35_2 O 0.0835(4) 0.4047(6) 0.9466(2)
O40_2 O 0.0685(3) 0.7068(5) 0.9953(2)
H21_2 H 0.0218268 0.424843 0.135134
H38_2 H 0.00795919 0.30984 0.349668
O15_2 O 0.4907(6) 0.5530(10) 0.0919(4)
O16_2 O 0.6365(4) 0.6036(6) 0.0332(3)
O17_2 O 0.9165(4) 0.5953(6) 0.0534(2)
H33 H 0.349024 0.353661 0.000241775
O33_2 O 0.5093(6) 0.4470(10) 0.9081(4)
O34_2 O 0.3635(4) 0.3964(6) 0.9668(3)
O36_2 O 0.8880(4) 0.5620(7) 0.9134(3)
O37_2 O 0.4341(3) 0.7114(6) 0.9643(2)
H22_2 H 0.958313 0.305563 0.148167
H37_2 H 0.999516 0.468387 0.373351
Ca1 Ca 0.0000 0.49524(15) 0.7500
O10_2 O 0.0125(3) 0.2962(5) 0.6905(2)
C16_2 C 0.0054(4) 0.1006(8) 0.6276(3)
C17_2 C 0.0898(5) 0.1122(8) 0.6259(4)
H7_2 H 0.1268 0.1818 0.6473
C18_2 C 0.1174(6) 0.0177(8) 0.5916(4)
H8_2 H 0.1734 0.0234 0.5892
O19_2 O 0.1930(3) 0.1769(5) 0.9739(2)
O25_2 O 0.3054(3) 0.1698(5) 0.8910(2)
O26_2 O 0.3847(4) 0.2659(6) 0.8403(2)
O27_2 O 0.1114(3) 0.1749(5) 0.8419(2)
N4_2 N 0.3234(4) 0.0039(5) 0.9962(3)
N6_2 N 0.0477(4) 0.0015(5) 0.9028(3)
C33_2 C 0.3202(6) 0.0541(11) 0.7509(4)
H15_2 H 0.3601 0.1170 0.7441
C34_2 C 0.2945(4) 0.0689(9) 0.7991(3)
C35_2 C 0.3317(5) 0.1789(8) 0.8470(3)
C36_2 C 0.0327(4) 0.1989(7) 0.8376(3)
O31_2 O 0.0296(3) 0.5912(5) 0.8517(2)
O32_2 O 0.1504(3) 0.4098(5) 0.7877(2)
O39 O 0.0985(3) 0.6934(6) 0.7529(2)
H21_3 H 0.0218268 0.575157 0.635134
H38_3 H 0.00795919 0.69016 0.849668
C26_2 C 0.4645(5) 0.9212(10) 0.0552(4)
H12_2 H 0.5100 0.8574 0.0604
C27_2 C 0.3911(4) 0.9132(8) 0.0055(3)
C19_2 C 0.0608(5) 0.9148(9) 0.5607(3)
H9_2 H 0.0780 0.8500 0.5374
Dy2_2 Dy 0.20158(2) 0.99805(4) 0.902949(18)
O21_2 O 0.3129(3) 0.8220(5) 0.9132(2)
O23_2 O 0.1262(3) 0.8162(5) 0.8367(2)
O29_2 O 0.1651(3) 0.8261(5) 0.9653(2)
N5_2 N 0.2361(4) 0.9826(5) 0.8104(3)
C28_2 C 0.3795(5) 0.8055(8) 0.9581(3)
C29_2 C 0.1357(4) 0.7878(8) 0.7870(3)
C30_2 C 0.2028(4) 0.8795(8) 0.7706(3)
C31_2 C 0.2261(5) 0.8565(10) 0.7220(4)
H13_2 H 0.2020 0.7832 0.6962
C32_2 C 0.2873(6) 0.9468(12) 0.7125(4)
H14_2 H 0.3060 0.9344 0.6801
C41_2 C 0.0208(4) 0.9108(7) 0.9346(3)
C42_2 C 0.0886(5) 0.8046(8) 0.9676(3)
Ca1_2 Ca 1.0000 0.49524(15) 0.7500
O1_2 O 0.8070(3) 0.1769(5) 0.5261(2)
O2_2 O 0.7584(3) 0.2775(6) 0.4380(3)
O7_2 O 0.6946(3) 0.1698(5) 0.6090(2)
O8_2 O 0.6153(4) 0.2659(6) 0.6597(2)
O9_2 O 0.8886(3) 0.1749(5) 0.6581(2)
N1_2 N 0.6766(4) 0.0039(5) 0.5038(3)
N3_2 N 0.9523(4) 0.0015(5) 0.5972(3)
C1_2 C 0.7520(5) 0.1951(8) 0.4765(3)
C2_2 C 0.6720(4) 0.1041(7) 0.4613(3)
C3_2 C 0.6033(5) 0.1149(9) 0.4128(3)
H1_2 H 0.6031 0.1828 0.3847
C4_2 C 0.5319(7) 0.0239(10) 0.4043(5)
H2_2 H 0.4830 0.0336 0.3717
C12_2 C 0.6798(6) 0.0541(11) 0.7491(4)
H6_2 H 0.6399 0.1170 0.7559
C13_2 C 0.7055(4) 0.0689(9) 0.7009(3)
C14_2 C 0.6683(5) 0.1789(8) 0.6530(3)
C15_2 C 0.9673(4) 0.1989(7) 0.6624(3)
O13_2 O 0.9704(3) 0.5912(5) 0.6483(2)
O14_2 O 0.8496(3) 0.4098(5) 0.7123(2)
O28_2 O 0.9875(3) 0.2962(5) 0.8095(2)
C37_2 C 0.9946(4) 0.1006(8) 0.8724(3)
C38_2 C 0.9102(5) 0.1122(8) 0.8741(4)
H16_2 H 0.8732 0.1818 0.8527
C39_2 C 0.8826(6) 0.0177(8) 0.9084(4)
H17_2 H 0.8266 0.0234 0.9108
O38 O 0.9015(3) 0.6934(6) 0.7471(2)
H22_3 H 0.958313 0.694437 0.648167
H37_3 H 0.999516 0.531613 0.873351
Dy1_2 Dy 0.79842(2) 0.99805(4) 0.597051(18)
O3_2 O 0.6871(3) 0.8220(5) 0.5868(2)
O5_2 O 0.8738(3) 0.8162(5) 0.6633(2)
O11_2 O 0.8349(3) 0.8261(5) 0.5347(2)
N2_2 N 0.7639(4) 0.9826(5) 0.6896(3)
C5_2 C 0.5355(5) 0.9212(10) 0.4448(4)
H3_2 H 0.4900 0.8574 0.4396
C6_2 C 0.6089(4) 0.9132(8) 0.4945(3)
C7_2 C 0.6205(5) 0.8055(8) 0.5419(3)
C8_2 C 0.8643(4) 0.7878(8) 0.7130(3)
C9_2 C 0.7972(4) 0.8795(8) 0.7294(3)
C10_2 C 0.7739(5) 0.8565(10) 0.7780(4)
H4_2 H 0.7980 0.7832 0.8038
C11_2 C 0.7127(6) 0.9468(12) 0.7875(4)
H5_2 H 0.6940 0.9344 0.8199
C20_2 C 0.9792(4) 0.9108(7) 0.5654(3)
C21_2 C 0.9114(5) 0.8046(8) 0.5324(3)
C40_2 C 0.9392(5) 0.9148(9) 0.9393(3)
H18_2 H 0.9220 0.8500 0.9626
H22_4 H 0.0416871 0.694437 0.851833
H37_4 H 0.000484465 0.531613 0.626649
H33_2 H 0.650976 0.646339 0.999758
H21_4 H 0.978173 0.575157 0.864866
H38_4 H 0.992041 0.69016 0.650332
O20 O 0.7584(3) 0.7225(6) 0.9380(3)
C22 C 0.7520(5) 0.8049(8) 0.9765(3)
C23 C 0.6720(4) 0.8959(7) 0.9613(3)
C24 C 0.6033(5) 0.8851(9) 0.9128(3)
H10 H 0.6031 0.8172 0.8847
C25 C 0.5319(7) 0.9761(10) 0.9043(5)
H11 H 0.4830 0.9664 0.8717
O20_2 O 0.2416(3) 0.2775(6) 0.0620(3)
C22_2 C 0.2480(5) 0.1951(8) 0.0235(3)
C23_2 C 0.3280(4) 0.1041(7) 0.0387(3)
C24_2 C 0.3967(5) 0.1149(9) 0.0872(3)
H10_2 H 0.3969 0.1828 0.1153
C25_2 C 0.4681(7) 0.0239(10) 0.0957(5)
H11_2 H 0.5170 0.0336 0.1283
loop_
_geom_bond_atom_site_label_1
_geom_bond_atom_site_label_2
_geom_bond_site_symmetry_1
_geom_bond_site_symmetry_2
Ca2 O4 1_555 1_555
Ca3 O12 1_555 1_555
O3 Dy1 1_555 1_555
O4 C7 1_555 1_555
O5 Dy1 1_555 1_555
O6 C8 1_555 1_555
O11 Dy1 1_555 1_555
O12 C21 1_555 1_555
N2 Dy1 1_555 1_555
H3 C5 1_555 1_555
C7 O3 1_555 1_555
C8 O5 1_555 1_555
C9 N2 1_555 1_555
C10 C9 1_555 1_555
H4 C10 1_555 1_555
C11 C10 1_555 1_555
H5 C11 1_555 1_555
C21 O11 1_555 1_555
O15 Ca2 1_555 1_555
O16 Ca2 1_555 1_555
O17 Ca3 1_555 1_555
H18 C40 1_555 1_555
O33 Ca2 1_555 1_555
O34 Ca2 1_555 1_555
O36 Ca3 1_555 1_555
Ca4 O6 1_555 1_555
O37 Ca2 1_555 1_555
C5 C6 1_555 1_555
C6 C7 1_555 1_555
C8 C9 1_555 1_555
C20 C21 1_555 1_555
O1 C1 1_555 1_555
O2 C1 1_555 1_555
O8 C14 1_555 1_555
C1 C2 1_555 1_555
C2 N1 1_555 1_555
C3 C2 1_555 1_555
H1 C3 1_555 1_555
C4 C3 1_555 1_555
H2 C4 1_555 1_555
H6 C12 1_555 1_555
C14 O7 1_555 1_555
C15 O9 1_555 1_555
O13 Ca4 1_555 1_555
O14 Ca4 1_555 1_555
O28 Ca4 1_555 1_555
C38 C37 1_555 1_555
H16 C38 1_555 1_555
C39 C38 1_555 1_555
H17 C39 1_555 1_555
C12 C13 1_555 1_555
C13 C14 1_555 1_555
O13 H22 1_555 1_555
H9 C19 1_555 1_555
O18 Ca3_2 1_555 1_555
O21 Dy2 1_555 1_555
O22 C28 1_555 1_555
O23 Dy2 1_555 1_555
O24 C29 1_555 1_555
O29 Dy2 1_555 1_555
O30 C42 1_555 1_555
N5 Dy2 1_555 1_555
C28 O21 1_555 1_555
C29 O23 1_555 1_555
C30 N5 1_555 1_555
C31 C30 1_555 1_555
H13 C31 1_555 1_555
C32 C31 1_555 1_555
H14 C32 1_555 1_555
C42 O29 1_555 1_555
O35 Ca3_2 1_555 1_555
Ca5 O22 1_555 1_555
Ca6_3 O30 1_555 1_555
O40 Ca3_2 1_555 1_555
O24 Ca4_2 1_555 1_555
C29 C30 1_555 1_555
C41 C42 1_555 1_555
H12 C26 1_555 1_555
C26 C27 1_555 1_555
Ca4_2 O10 1_555 1_555
C17 C16 1_555 1_555
H7 C17 1_555 1_555
C18 C17 1_555 1_555
H8 C18 1_555 1_555
O26 C35 1_555 1_555
H15 C33 1_555 1_555
C35 O25 1_555 1_555
C36 O27 1_555 1_555
O31 Ca4_2 1_555 1_555
O32 Ca4_2 1_555 1_555
C33 C34 1_555 1_555
C34 C35 1_555 1_555
O31 H38 1_555 1_555
O18_2 Ca6 1_555 1_555
O35_2 Ca6_2 1_555 1_555
O40_2 Ca6_2 1_555 1_555
O13 H38_2 1_555 1_555
O15_2 Ca5 1_555 1_555
O16_2 Ca5 1_555 1_555
O17_2 Ca6_3 1_555 1_555
O33_2 Ca5_2 1_555 1_555
O34_2 Ca5_2 1_555 1_555
O36_2 Ca6_4 1_555 1_555
O37_2 Ca5_2 1_555 1_555
O31 H22_2 1_555 1_555
Ca1 O10_2 1_555 1_555
C17_2 C16_2 1_555 1_555
H7_2 C17_2 1_555 1_555
C18_2 C17_2 1_555 1_555
H8_2 C18_2 1_555 1_555
O26_2 C35_2 1_555 1_555
H15_2 C33_2 1_555 1_555
C35_2 O25_2 1_555 1_555
C36_2 O27_2 1_555 1_555
O31_2 Ca1 1_555 1_555
O32_2 Ca1 1_555 1_555
O39 Ca1 1_555 1_555
C33_2 C34_2 1_555 1_555
C34_2 C35_2 1_555 1_555
O31_2 H38_3 1_555 1_555
H12_2 C26_2 1_555 1_555
C26_2 C27_2 1_555 1_555
H9_2 C19_2 1_555 1_555
O21_2 Dy2_2 1_555 1_555
O37_2 C28_2 1_555 1_555
O23_2 Dy2_2 1_555 1_555
O39 C29_2 1_555 1_555
O29_2 Dy2_2 1_555 1_555
O40_2 C42_2 1_555 1_555
N5_2 Dy2_2 1_555 1_555
C28_2 O21_2 1_555 1_555
C29_2 O23_2 1_555 1_555
C30_2 N5_2 1_555 1_555
C31_2 C30_2 1_555 1_555
H13_2 C31_2 1_555 1_555
C32_2 C31_2 1_555 1_555
H14_2 C32_2 1_555 1_555
C42_2 O29_2 1_555 1_555
C29_2 C30_2 1_555 1_555
C41_2 C42_2 1_555 1_555
O1_2 C1_2 1_555 1_555
O2_2 C1_2 1_555 1_555
O8_2 C14_2 1_555 1_555
C1_2 C2_2 1_555 1_555
C2_2 N1_2 1_555 1_555
C3_2 C2_2 1_555 1_555
H1_2 C3_2 1_555 1_555
C4_2 C3_2 1_555 1_555
H2_2 C4_2 1_555 1_555
H6_2 C12_2 1_555 1_555
C14_2 O7_2 1_555 1_555
C15_2 O9_2 1_555 1_555
O13_2 Ca1_2 1_555 1_555
O14_2 Ca1_2 1_555 1_555
O28_2 Ca1_2 1_555 1_555
C38_2 C37_2 1_555 1_555
H16_2 C38_2 1_555 1_555
C39_2 C38_2 1_555 1_555
H17_2 C39_2 1_555 1_555
O38 Ca1_2 1_555 1_555
C12_2 C13_2 1_555 1_555
C13_2 C14_2 1_555 1_555
O13_2 H22_3 1_555 1_555
O3_2 Dy1_2 1_555 1_555
O37 C7_2 1_555 1_555
O5_2 Dy1_2 1_555 1_555
O38 C8_2 1_555 1_555
O11_2 Dy1_2 1_555 1_555
O40 C21_2 1_555 1_555
N2_2 Dy1_2 1_555 1_555
H3_2 C5_2 1_555 1_555
C7_2 O3_2 1_555 1_555
C8_2 O5_2 1_555 1_555
C9_2 N2_2 1_555 1_555
C10_2 C9_2 1_555 1_555
H4_2 C10_2 1_555 1_555
C11_2 C10_2 1_555 1_555
H5_2 C11_2 1_555 1_555
C21_2 O11_2 1_555 1_555
H18_2 C40_2 1_555 1_555
C5_2 C6_2 1_555 1_555
C6_2 C7_2 1_555 1_555
C8_2 C9_2 1_555 1_555
C20_2 C21_2 1_555 1_555
O31_2 H22_4 1_555 1_555
O13_2 H38_4 1_555 1_555
O20 C22 1_555 1_555
C22 C23 1_555 1_555
C24 C23 1_555 1_555
H10 C24 1_555 1_555
C25 C24 1_555 1_555
H11 C25 1_555 1_555
O20_2 C22_2 1_555 1_555
C22_2 C23_2 1_555 1_555
C24_2 C23_2 1_555 1_555
H10_2 C24_2 1_555 1_555
C25_2 C24_2 1_555 1_555
H11_2 C25_2 1_555 1_555

#END
