
###############################################################################
#
# This file contains modified crystal structure data generated from the
# MOF subset of the Cambridge Structural Database (CSD) v543 
# hosted by the Cambridge Crystallographic Data Centre (CCDC).
#
# This work is licensed under the Creative Commons
# Attribution-NonCommercial-ShareAlike 4.0 International License.
# To view a copy of this license, visit
# http://creativecommons.org/licenses/by-nc-sa/4.0/
# or send a letter to
# Creative Commons, PO Box 1866, Mountain View, CA 94042, USA.
#
# CIF created using the CSD Python API on 29 September 2022
# The structure has been converted into the P1 space group
# The structure has a 3D framework
# The original CSD entry PEDREZ is in the triclinic crystal system
# The framework has been calculated to contain at least 10.0% void space
# The void calculation uses a probe of radius 1.32A, grid spacing 0.4
#
###############################################################################

data_PEDREZ
_chemical_formula_moiety         '(C28 H74 Co6 Mo12 N12 O72 Te10)n'
_symmetry_cell_setting           triclinic
_symmetry_space_group_name_H-M   'P 1'
_symmetry_Int_Tables_number      1
_space_group_name_Hall           'P 1'
loop_
_symmetry_equiv_pos_site_id
_symmetry_equiv_pos_as_xyz
1 x,y,z
_cell_length_a                   10.2383(7)
_cell_length_b                   13.0154(8)
_cell_length_c                   19.4859(12)
_cell_angle_alpha                78.9600(10)
_cell_angle_beta                 89.1460(10)
_cell_angle_gamma                73.8810(10)
_cell_volume                     2446.34
loop_
_atom_site_label
_atom_site_type_symbol
_atom_site_fract_x
_atom_site_fract_y
_atom_site_fract_z
Co2 Co 0.05100(9) 0.07143(8) 0.36390(5)
O24 O 0.2191(5) 0.1241(4) 0.3380(3)
H9 H 0.253836 0.138058 0.374498
H10 H 0.196713 0.186833 0.309369
O33 O 0.0030(6) 0.1555(4) 0.4471(3)
H15 H 0.068056 0.161565 0.471188
Te2 Te -0.000000 0.000000 0.000000
Mo1 Mo 0.16734(5) 0.09505(5) 0.10456(3)
Co1 Co 0.54463(9) 0.05955(7) 0.13325(4)
O5 O 0.1096(4) 0.2119(3) 0.0251(2)
O12 O 0.4917(5) 0.1544(4) 0.2098(2)
H3 H 0.524596 0.132370 0.251605
H4 H 0.409831 0.190298 0.214068
O13 O 0.3387(4) 0.0900(4) 0.1044(2)
O15 O 0.5457(5) 0.2050(4) 0.0637(2)
H5 H 0.617379 0.194055 0.039235
H6 H 0.479559 0.222522 0.032891
O18 O 0.7575(4) 0.0266(4) 0.1571(2)
H7 H 0.796746 0.047400 0.120302
O22 O 0.1015(5) 0.1582(4) 0.1703(2)
H29 H 0.386346 0.002732 0.264589
Te1 Te 0.500000 -0.000000 0.500000
Te2_2 Te -0.000000 1.000000 0.000000
Mo4 Mo 0.25143(6) 0.83219(5) 0.10357(3)
Co3 Co 0.70044(10) 0.56284(8) 0.25068(5)
O2 O 0.3943(4) 0.1282(3) 0.4375(2)
O3 O 0.0311(4) 0.8662(3) 0.0676(2)
O8 O 0.6053(5) 0.9692(4) 0.0557(2)
H1 H 0.673145 0.971034 0.030320
H2 H 0.588145 0.910242 0.052195
O9 O 0.8816(4) 0.0157(4) 0.3862(2)
O10 O 0.1795(4) 0.9494(3) 0.1542(2)
O14 O 0.6081(4) 0.1045(3) 0.3424(2)
H8 H 0.793575 0.957881 0.167483
O19 O 0.4171(4) 0.8336(4) 0.0986(2)
O23 O 0.5779(5) 0.5384(4) 0.1750(3)
N1 N 0.9177(5) 0.2071(5) 0.2916(3)
N2 N 0.5300(5) 0.9210(4) 0.2091(3)
O29 O 0.2454(5) 0.7274(4) 0.1708(2)
O30 O 0.5462(6) 0.5485(4) 0.3215(3)
H16 H 0.948504 0.219353 0.438040
N3 N 0.7812(6) 0.3899(4) 0.2537(3)
N4 N 0.5870(6) 0.7289(5) 0.2482(3)
O35 O 0.8315(6) 0.6038(5) 0.1753(3)
H17 H 0.897717 0.546978 0.171731
H18 H 0.871978 0.647308 0.188572
N5 N 0.5122(6) 0.4101(5) 0.1316(3)
H19 H 0.524033 0.341453 0.133754
C1 C 0.7415(7) 0.2472(5) 0.2049(3)
H20 H 0.693433 0.224142 0.173597
O36 O 0.8237(6) 0.5609(5) 0.3315(4)
H21 H 0.905298 0.560239 0.322413
H22 H 0.796610 0.611056 0.354899
C2 C 0.5938(7) 0.4407(6) 0.1704(3)
C3 C 0.8823(7) 0.3134(5) 0.2916(3)
H23 H 0.933566 0.336846 0.321136
C4 C 0.8469(7) 0.1749(5) 0.2467(3)
H24 H 0.869729 0.101627 0.243811
C5 C 0.5992(7) 0.8202(6) 0.2073(4)
H25 H 0.664445 0.811453 0.173555
N6 N 0.3829(7) 0.6401(5) 0.3848(3)
H26 H 0.335066 0.702950 0.391226
C6 C 0.4897(7) 0.7430(6) 0.2962(4)
C7 C 0.4022(8) 0.4878(7) 0.0850(4)
H27 H 0.388942 0.560382 0.094646
H28 H 0.318104 0.467928 0.093966
C8 C 0.7098(7) 0.3528(5) 0.2107(3)
C9 C 0.4364(7) 0.9329(6) 0.2603(4)
C10 C 0.4146(8) 0.8456(6) 0.3052(4)
H30 H 0.352121 0.854491 0.340255
C11 C 0.4747(8) 0.6367(6) 0.3373(4)
C12 C 0.4221(8) 0.5181(6) 0.5004(4)
H31 H 0.391031 0.460974 0.529609
H32 H 0.393381 0.582773 0.520855
C13 C 0.3570(9) 0.5425(7) 0.4279(4)
H33 H 0.392813 0.480604 0.405503
H34 H 0.259578 0.553707 0.431377
C14 C 0.4353(8) 0.4885(8) 0.0101(4)
H35 H 0.437443 0.417953 -0.000014
O38 O 0.4421(4) 0.0810(3) 0.5732(2)
O39 O 0.6513(4) 0.0577(3) 0.4756(2)
O40 O 0.1870(4) 0.9902(3) 0.0209(2)
H43 H 0.562557 0.582047 0.000014
H44 H 0.637597 0.457368 0.018832
N10 N 0.4700(5) 0.0790(4) 0.7909(3)
O44 O 0.4538(6) 0.4515(4) 0.6785(3)
N11 N 0.4130(6) 0.2711(5) 0.7518(3)
C22 C 0.4008(7) 0.1798(6) 0.7927(4)
H45 H 0.335555 0.188547 0.826445
N12 N 0.6171(7) 0.3599(5) 0.6152(3)
H46 H 0.664934 0.297050 0.608774
C23 C 0.5103(7) 0.2570(6) 0.7038(4)
C24 C 0.5636(7) 0.0671(6) 0.7397(4)
C25 C 0.5854(8) 0.1544(6) 0.6948(4)
H48 H 0.647879 0.145509 0.659745
C26 C 0.5253(8) 0.3633(6) 0.6627(4)
C27 C 0.5779(8) 0.4819(6) 0.4996(4)
H49 H 0.608969 0.539026 0.470391
H50 H 0.606619 0.417227 0.479145
C28 C 0.6430(9) 0.4575(7) 0.5721(4)
H51 H 0.607187 0.519396 0.594497
H52 H 0.740422 0.446293 0.568623
O48 O 0.2538(4) 0.7630(3) 0.0232(2)
O56 O 0.0759(5) 0.6358(4) 0.0668(2)
Mo10 Mo 0.26222(5) 0.02961(5) 0.61459(3)
Mo11 Mo 0.55645(6) 0.21698(5) 0.39983(3)
Mo12 Mo 0.31586(6) 0.24470(5) 0.51353(3)
O58 O 0.1927(4) 0.1540(3) 0.5391(2)
O61 O 0.4861(4) 0.2665(3) 0.4837(2)
O62 O 0.2471(5) 0.0944(4) 0.6833(2)
O65 O 0.4494(5) 0.3114(4) 0.3373(2)
O66 O 0.2075(5) 0.3377(4) 0.4506(2)
O67 O 0.2999(5) 0.3025(4) 0.5859(2)
O70 O 0.7021(5) 0.2551(4) 0.3996(2)
Co9 Co 0.29956(10) 0.43716(8) 0.74932(5)
Te2_3 Te -0.000000 1.000000 1.000000
O7 O 0.0446(4) 0.9094(3) 0.9307(2)
H35_2 H 0.437443 0.417953 0.999986
H36 H 0.362403 0.542632 0.981168
O43 O 0.4221(5) 0.4616(4) 0.8250(3)
N7 N 0.0823(5) 0.7929(5) 0.7084(3)
N8 N 0.2188(6) 0.6101(4) 0.7463(3)
N9 N 0.4878(6) 0.5899(5) 0.8684(3)
H37 H 0.475967 0.658547 0.866246
C15 C 0.2585(7) 0.7528(5) 0.7951(3)
H38 H 0.306567 0.775858 0.826403
C16 C 0.4062(7) 0.5593(6) 0.8296(3)
C17 C 0.1177(7) 0.6866(5) 0.7084(3)
H39 H 0.066434 0.663154 0.678864
C18 C 0.1531(7) 0.8251(5) 0.7533(3)
H40 H 0.130271 0.898373 0.756189
C19 C 0.5978(8) 0.5122(7) 0.9150(4)
H41 H 0.611058 0.439618 0.905354
H42 H 0.681896 0.532072 0.906034
C20 C 0.2902(7) 0.6472(5) 0.7893(3)
C21 C 0.5647(8) 0.5115(8) 0.9899(4)
H43_2 H 0.562557 0.582047 1.000014
Mo8 Mo 0.08448(6) 0.73693(4) 0.99945(3)
O54 O 0.1388(5) 0.6746(4) 0.9306(2)
O71 O 0.1685(6) 0.3962(5) 0.8247(3)
H69 H 0.102283 0.453022 0.828269
H70 H 0.128022 0.352692 0.811428
O72 O 0.1763(6) 0.4391(5) 0.6685(4)
H71 H 0.094702 0.439761 0.677587
H72 H 0.203390 0.388944 0.645101
Te1_2 Te 0.500000 1.000000 0.500000
Mo3 Mo 0.73778(5) 0.97039(5) 0.38541(3)
Mo5 Mo 0.44355(6) 0.78302(5) 0.60017(3)
Mo6 Mo 0.68414(6) 0.75530(5) 0.48647(3)
O4 O 0.8073(4) 0.8460(3) 0.4609(2)
O6 O 0.5579(4) 0.9190(3) 0.4268(2)
O16 O 0.5139(4) 0.7335(3) 0.5163(2)
O17 O 0.3487(4) 0.9423(3) 0.5244(2)
O21 O 0.7529(5) 0.9056(4) 0.3167(2)
O27 O 0.5506(5) 0.6886(4) 0.6627(2)
O28 O 0.7925(5) 0.6623(4) 0.5494(2)
O31 O 0.7001(5) 0.6975(4) 0.4141(2)
O34 O 0.2979(5) 0.7449(4) 0.6004(2)
O37 O 0.6057(4) 0.8718(3) 0.5625(2)
H47 H 0.613654 0.997268 0.735411
O59 O 0.1184(4) 0.9843(4) 0.6138(2)
O60 O 0.3919(4) 0.8955(3) 0.6576(2)
H68 H 0.051496 0.780647 0.561960
Co7 Co 0.45537(9) 0.94045(7) 0.86675(4)
Te2_4 Te 1.000000 0.000000 0.000000
Mo2 Mo 0.91552(6) 0.26307(4) 0.00055(3)
O20 O 0.8612(5) 0.3254(4) 0.0694(2)
O42 O 0.9554(4) 0.0906(3) 0.0693(2)
Te2_5 Te 1.000000 -0.000000 1.000000
O1 O 0.8130(4) 0.0098(3) 0.9791(2)
O11 O 0.7462(4) 0.2370(3) 0.9768(2)
O26 O 0.9241(5) 0.3642(4) 0.9332(2)
O41 O 0.9689(4) 0.1338(3) 0.9324(2)
Mo9 Mo 0.74857(6) 0.16781(5) 0.89643(3)
O46 O 0.3947(5) 0.0308(4) 0.9443(2)
H53 H 0.326855 0.028966 0.969680
H54 H 0.411855 0.089758 0.947805
O47 O 0.8205(4) 0.0506(3) 0.8458(2)
H60 H 0.206425 0.042119 0.832517
O53 O 0.5829(4) 0.1664(4) 0.9014(2)
O57 O 0.7546(5) 0.2726(4) 0.8292(2)
Te2_6 Te 1.000000 1.000000 1.000000
Mo7 Mo 0.83266(5) 0.90495(5) 0.89544(3)
O45 O 0.8904(4) 0.7881(3) 0.9749(2)
O49 O 0.5083(5) 0.8456(4) 0.7902(2)
H55 H 0.475404 0.867630 0.748395
H56 H 0.590169 0.809702 0.785932
O50 O 0.6613(4) 0.9100(4) 0.8956(2)
O51 O 0.4543(5) 0.7950(4) 0.9363(2)
H57 H 0.382621 0.805945 0.960765
H58 H 0.520441 0.777478 0.967109
O52 O 0.2425(4) 0.9734(4) 0.8429(2)
H59 H 0.203254 0.952600 0.879698
O55 O 0.8985(5) 0.8418(4) 0.8297(2)
Co8 Co 0.94900(9) 0.92857(8) 0.63610(5)
O63 O 0.7809(5) 0.8759(4) 0.6620(3)
H61 H 0.746164 0.861942 0.625502
H62 H 0.803287 0.813167 0.690631
O69 O 0.9970(6) 0.8445(4) 0.5529(3)
H67 H 0.931944 0.838435 0.528812
O25 O 0.0883(6) 0.9684(4) 0.2896(2)
H11 H 0.097124 0.985991 0.245798
H12 H 0.103311 0.899519 0.297266
O32 O 0.1649(5) 0.9321(4) 0.4354(3)
H13 H 0.124791 0.922213 0.477487
H14 H 0.168283 0.868453 0.421407
Te2_7 Te -0.000000 -0.000000 1.000000
Te2_8 Te 1.000000 1.000000 0.000000
O64 O 0.9117(6) 0.0316(4) 0.7104(2)
H63 H 0.902876 0.014009 0.754202
H64 H 0.896689 0.100481 0.702734
O68 O 0.8351(5) 0.0679(4) 0.5646(3)
H65 H 0.875209 0.077787 0.522513
H66 H 0.831717 0.131547 0.578593
loop_
_geom_bond_atom_site_label_1
_geom_bond_atom_site_label_2
_geom_bond_site_symmetry_1
_geom_bond_site_symmetry_2
O24 Co2 1_555 1_555
H9 O24 1_555 1_555
H10 O24 1_555 1_555
O33 Co2 1_555 1_555
H15 O33 1_555 1_555
Mo1 O5 1_555 1_555
O12 Co1 1_555 1_555
H3 O12 1_555 1_555
H4 O12 1_555 1_555
O13 Mo1 1_555 1_555
O15 Co1 1_555 1_555
H5 O15 1_555 1_555
H6 O15 1_555 1_555
O18 Co1 1_555 1_555
H7 O18 1_555 1_555
O22 Mo1 1_555 1_555
Co1 O13 1_555 1_555
Te1 O2 1_555 1_555
Mo4 O3 1_555 1_555
Co3 O23 1_555 1_555
O2 Mo11 1_555 1_555
O3 Te2_2 1_555 1_555
O8 H1 1_555 1_555
H2 O8 1_555 1_555
O19 Mo4 1_555 1_555
O23 C2 1_555 1_555
O29 Mo4 1_555 1_555
O30 Co3 1_555 1_555
N3 Co3 1_555 1_555
N4 Co3 1_555 1_555
O35 Co3 1_555 1_555
H17 O35 1_555 1_555
H18 O35 1_555 1_555
N5 H19 1_555 1_555
C1 H20 1_555 1_555
O36 Co3 1_555 1_555
H21 O36 1_555 1_555
H22 O36 1_555 1_555
C2 N5 1_555 1_555
C3 N1 1_555 1_555
H23 C3 1_555 1_555
C4 N1 1_555 1_555
H24 C4 1_555 1_555
C5 N2 1_555 1_555
H25 C5 1_555 1_555
N6 H26 1_555 1_555
C6 N4 1_555 1_555
C7 N5 1_555 1_555
H27 C7 1_555 1_555
H28 C7 1_555 1_555
C8 N3 1_555 1_555
C9 N2 1_555 1_555
C10 C6 1_555 1_555
H30 C10 1_555 1_555
C11 O30 1_555 1_555
C12 H31 1_555 1_555
H32 C12 1_555 1_555
C13 N6 1_555 1_555
H33 C13 1_555 1_555
H34 C13 1_555 1_555
C14 C7 1_555 1_555
H35 C14 1_555 1_555
O38 Te1 1_555 1_555
O39 Te1 1_555 1_555
O40 Te2_2 1_555 1_555
N10 C22 1_555 1_555
O44 C26 1_555 1_555
N11 C22 1_555 1_555
C22 H45 1_555 1_555
N12 H46 1_555 1_555
C23 N11 1_555 1_555
C24 N10 1_555 1_555
C25 C23 1_555 1_555
H48 C25 1_555 1_555
C26 N12 1_555 1_555
C27 C12 1_555 1_555
H49 C27 1_555 1_555
H50 C27 1_555 1_555
C28 N12 1_555 1_555
H51 C28 1_555 1_555
H52 C28 1_555 1_555
O48 Mo4 1_555 1_555
Mo11 O14 1_555 1_555
Mo12 O2 1_555 1_555
O58 Mo10 1_555 1_555
O61 Mo11 1_555 1_555
O62 Mo10 1_555 1_555
O65 Mo11 1_555 1_555
O66 Mo12 1_555 1_555
O67 Mo12 1_555 1_555
O70 Mo11 1_555 1_555
Co9 O44 1_555 1_555
Mo4 O10 1_555 1_555
Mo4 O40 1_555 1_555
N3 C3 1_555 1_555
N4 C5 1_555 1_555
C1 C4 1_555 1_555
C1 C8 1_555 1_555
C2 C8 1_555 1_555
N6 C11 1_555 1_555
C6 C11 1_555 1_555
C9 C10 1_555 1_555
C12 C13 1_555 1_555
O38 Mo10 1_555 1_555
O38 Mo12 1_555 1_555
O39 Mo11 1_555 1_555
N11 Co9 1_555 1_555
C23 C26 1_555 1_555
C24 C25 1_555 1_555
C27 C28 1_555 1_555
Mo12 O58 1_555 1_555
Mo12 O61 1_555 1_555
O7 Te2_3 1_555 1_555
O43 C16 1_555 1_555
N7 C17 1_555 1_555
N8 C17 1_555 1_555
N9 H37 1_555 1_555
C15 H38 1_555 1_555
C16 N9 1_555 1_555
C17 H39 1_555 1_555
C18 N7 1_555 1_555
H40 C18 1_555 1_555
C19 N9 1_555 1_555
H41 C19 1_555 1_555
H42 C19 1_555 1_555
C20 N8 1_555 1_555
H43_2 C21 1_555 1_555
O54 Mo8 1_555 1_555
Co9 O43 1_555 1_555
O71 Co9 1_555 1_555
H69 O71 1_555 1_555
H70 O71 1_555 1_555
O72 Co9 1_555 1_555
H71 O72 1_555 1_555
H72 O72 1_555 1_555
O7 Mo8 1_555 1_555
N8 Co9 1_555 1_555
C15 C18 1_555 1_555
C15 C20 1_555 1_555
C16 C20 1_555 1_555
C19 C21 1_555 1_555
Mo3 O4 1_555 1_555
Mo5 O16 1_555 1_555
Mo6 O4 1_555 1_555
O6 Te1_2 1_555 1_555
O16 Mo6 1_555 1_555
O17 Te1_2 1_555 1_555
O21 Mo3 1_555 1_555
O27 Mo5 1_555 1_555
O28 Mo6 1_555 1_555
O31 Mo6 1_555 1_555
O34 Mo5 1_555 1_555
O37 Te1_2 1_555 1_555
O60 Mo5 1_555 1_555
Mo3 O6 1_555 1_555
Mo5 O17 1_555 1_555
Mo5 O37 1_555 1_555
Mo6 O6 1_555 1_555
Mo6 O37 1_555 1_555
O20 Mo2 1_555 1_555
O42 Te2_4 1_555 1_555
Mo2 O42 1_555 1_555
Te2_5 O1 1_555 1_555
O41 Te2_5 1_555 1_555
Mo9 O1 1_555 1_555
O46 H53 1_555 1_555
H54 O46 1_555 1_555
O53 Mo9 1_555 1_555
O57 Mo9 1_555 1_555
O11 Mo9 1_555 1_555
O41 Mo9 1_555 1_555
Mo9 O47 1_555 1_555
O45 Mo7 1_555 1_555
O49 Co7 1_555 1_555
H55 O49 1_555 1_555
H56 O49 1_555 1_555
O50 Mo7 1_555 1_555
O51 Co7 1_555 1_555
H57 O51 1_555 1_555
H58 O51 1_555 1_555
O52 Co7 1_555 1_555
H59 O52 1_555 1_555
O55 Mo7 1_555 1_555
Co7 O50 1_555 1_555
O63 Co8 1_555 1_555
H61 O63 1_555 1_555
H62 O63 1_555 1_555
O69 Co8 1_555 1_555
H67 O69 1_555 1_555
H11 O25 1_555 1_555
H12 O25 1_555 1_555
H13 O32 1_555 1_555
H14 O32 1_555 1_555
H63 O64 1_555 1_555
H64 O64 1_555 1_555
H65 O68 1_555 1_555
H66 O68 1_555 1_555

#END
