
###############################################################################
#
# This file contains modified crystal structure data generated from the
# MOF subset of the Cambridge Structural Database (CSD) v543 
# hosted by the Cambridge Crystallographic Data Centre (CCDC).
#
# This work is licensed under the Creative Commons
# Attribution-NonCommercial-ShareAlike 4.0 International License.
# To view a copy of this license, visit
# http://creativecommons.org/licenses/by-nc-sa/4.0/
# or send a letter to
# Creative Commons, PO Box 1866, Mountain View, CA 94042, USA.
#
# CIF created using the CSD Python API on 29 September 2022
# The structure has been converted into the P1 space group
# The structure has a 3D framework
# The original CSD entry PEDRAV is in the triclinic crystal system
# The framework has been calculated to contain at least 10.0% void space
# The void calculation uses a probe of radius 1.32A, grid spacing 0.4
#
###############################################################################

data_PEDRAV
_chemical_formula_moiety         '(C24 H64 Co6 Mo12 N12 O72 Te10)n'
_symmetry_cell_setting           triclinic
_symmetry_space_group_name_H-M   'P 1'
_symmetry_Int_Tables_number      1
_space_group_name_Hall           'P 1'
loop_
_symmetry_equiv_pos_site_id
_symmetry_equiv_pos_as_xyz
1 x,y,z
_cell_length_a                   10.2850(6)
_cell_length_b                   13.0526(8)
_cell_length_c                   19.0027(10)
_cell_angle_alpha                77.5700(10)
_cell_angle_beta                 88.6560(10)
_cell_angle_gamma                72.9790(10)
_cell_volume                     2379.98
loop_
_atom_site_label
_atom_site_type_symbol
_atom_site_fract_x
_atom_site_fract_y
_atom_site_fract_z
Co2 Co 0.04857(10) 0.07344(8) 0.36190(5)
H12 H 0.070305 0.159783 0.467815
O23 O 0.2143(6) 0.1282(5) 0.3352(3)
H13 H 0.268425 0.128924 0.368086
H14 H 0.219844 0.180132 0.300586
Te1 Te 0.000000 0.000000 0.000000
Mo1 Mo 0.16520(6) 0.10091(5) 0.10074(3)
Co1 Co 0.53924(10) 0.06026(8) 0.13498(5)
O6 O 0.3363(5) 0.0941(4) 0.1001(2)
O7 O 0.1047(5) 0.2170(4) 0.0163(2)
O13 O 0.5441(5) 0.2085(4) 0.0633(2)
H1 H 0.614194 0.196216 0.037456
H2 H 0.476524 0.230315 0.032544
O16 O 0.4815(5) 0.1533(5) 0.2104(3)
H3 H 0.527566 0.137469 0.249834
H4 H 0.399941 0.161134 0.222915
O17 O 0.7510(5) 0.0268(4) 0.1589(3)
H5 H 0.795373 0.027849 0.119679
O20 O 0.0985(5) 0.1678(4) 0.1660(3)
Te1_2 Te 0.000000 1.000000 0.000000
Te2 Te 0.500000 0.000000 0.500000
Co3 Co 0.70126(11) 0.56169(8) 0.24648(6)
O2 O 0.1869(4) 0.9922(4) 0.0193(2)
O4 O 0.1832(5) 0.9547(4) 0.1562(2)
O8 O 0.6107(5) 0.1079(4) 0.3397(2)
O10 O 0.8826(5) 0.0166(4) 0.3884(2)
H6 H 0.783846 0.960161 0.183198
O18 O 0.6043(6) 0.9662(4) 0.0594(3)
H7 H 0.657666 0.978717 0.026002
H8 H 0.561170 0.928254 0.044093
O22 O 0.9969(6) 0.1605(4) 0.4460(3)
H11 H 0.958199 0.229794 0.428381
N1 N 0.5231(6) 0.9170(4) 0.2151(3)
O28 O 0.5868(6) 0.5484(4) 0.1584(3)
O29 O 0.8308(6) 0.5492(5) 0.3326(3)
H15 H 0.809649 0.610749 0.350342
H16 H 0.916654 0.544353 0.318777
N2 N 0.7799(6) 0.3921(5) 0.2439(3)
N3 N 0.9110(6) 0.2073(5) 0.2866(3)
O34 O 0.8325(6) 0.6100(5) 0.1730(3)
H17 H 0.884183 0.640465 0.192005
H18 H 0.891216 0.553103 0.161487
O35 O 0.5557(6) 0.5376(4) 0.3253(3)
N4 N 0.5513(7) 0.4277(5) 0.0950(3)
H19 H 0.567528 0.358962 0.095883
N5 N 0.4556(7) 0.6148(6) 0.4167(4)
H20 H 0.422814 0.675136 0.430942
C1 C 0.7087(7) 0.3595(6) 0.1983(4)
C2 C 0.4220(8) 0.8313(6) 0.3165(4)
H21 H 0.360368 0.837456 0.353093
C3 C 0.8388(8) 0.1763(6) 0.2427(4)
H22 H 0.857380 0.102122 0.242825
C4 C 0.7356(7) 0.2527(6) 0.1963(4)
H23 H 0.686722 0.230638 0.164921
C5 C 0.8779(7) 0.3139(6) 0.2853(4)
H24 H 0.927909 0.335957 0.316228
C6 C 0.5028(8) 0.7306(6) 0.3080(4)
C7 C 0.5041(8) 0.6200(6) 0.3517(4)
C8 C 0.6064(7) 0.4533(6) 0.1489(4)
C9 C 0.4359(8) 0.9232(6) 0.2683(4)
H25 H 0.382352 0.992111 0.273258
C10 C 0.4655(9) 0.5049(6) 0.0343(4)
H26 H 0.447382 0.579275 0.041073
H27 H 0.379173 0.489323 0.032463
C11 C 0.4544(10) 0.5106(7) 0.4667(4)
H28 H 0.485996 0.450247 0.442327
H29 H 0.362130 0.514857 0.480954
N6 N 0.5898(6) 0.7234(5) 0.2537(3)
C12 C 0.5965(8) 0.8155(6) 0.2105(4)
H32 H 0.657539 0.809378 0.173630
O39 O 0.0369(5) 0.8665(4) 0.0733(2)
O40 O 0.3944(5) 0.1307(4) 0.4345(2)
O41 O 0.4374(5) 0.0805(4) 0.5741(2)
O42 O 0.6507(5) 0.0575(4) 0.4772(2)
N7 N 0.4769(6) 0.0830(4) 0.7849(3)
O43 O 0.4443(6) 0.4624(4) 0.6747(3)
N8 N 0.5444(7) 0.3852(6) 0.5833(4)
H33 H 0.577186 0.324864 0.569058
C13 C 0.5780(8) 0.1687(6) 0.6835(4)
H34 H 0.639632 0.162544 0.646907
C14 C 0.4972(8) 0.2694(6) 0.6920(4)
C15 C 0.4959(8) 0.3800(6) 0.6483(4)
C16 C 0.5641(8) 0.0768(6) 0.7317(4)
H35 H 0.617648 0.007889 0.726742
C17 C 0.5456(10) 0.4894(7) 0.5333(4)
H36 H 0.514004 0.549753 0.557673
H37 H 0.637870 0.485143 0.519046
N9 N 0.4102(6) 0.2766(5) 0.7463(3)
C18 C 0.4035(8) 0.1845(6) 0.7895(4)
H38 H 0.342461 0.190622 0.826370
Mo8 Mo 0.25619(6) 0.83519(5) 0.10706(3)
Mo9 Mo 0.08908(6) 0.73382(5) 0.00799(3)
O48 O 0.2581(5) 0.7612(4) 0.0275(2)
O54 O 0.0861(5) 0.6351(4) 0.0824(3)
O55 O 0.4202(5) 0.8379(4) 0.0971(3)
O57 O 0.2586(6) 0.7302(4) 0.1787(3)
Mo10 Mo 0.25891(6) 0.02934(5) 0.61481(3)
Mo11 Mo 0.55565(7) 0.21876(5) 0.39765(3)
Mo12 Mo 0.30821(7) 0.24710(5) 0.51050(3)
O60 O 0.1877(5) 0.1572(4) 0.5357(2)
O61 O 0.4831(5) 0.2653(4) 0.4846(3)
O63 O 0.7011(5) 0.2573(4) 0.3998(3)
O66 O 0.2858(6) 0.3075(4) 0.5830(3)
O67 O 0.4491(6) 0.3165(4) 0.3340(3)
O68 O 0.2401(5) 0.0909(4) 0.6856(3)
O69 O 0.2050(6) 0.3409(4) 0.4423(3)
Co6 Co 0.29874(11) 0.43831(8) 0.75352(6)
O71 O 0.1692(6) 0.4508(5) 0.6674(3)
H61 H 0.190351 0.389251 0.649658
H62 H 0.083346 0.455647 0.681223
O72 O 0.1675(6) 0.3900(5) 0.8270(3)
H63 H 0.115817 0.359535 0.807995
H64 H 0.108784 0.446897 0.838513
O73 O 0.4132(6) 0.4516(4) 0.8416(3)
N14 N 0.2201(6) 0.6079(5) 0.7561(3)
Te1_3 Te -0.000000 1.000000 1.000000
O5 O 0.0443(5) 0.9051(4) 0.9322(2)
N11 N 0.0890(6) 0.7927(5) 0.7134(3)
N12 N 0.4487(7) 0.5723(5) 0.9050(3)
H39 H 0.432472 0.641038 0.904117
C19 C 0.2913(7) 0.6405(6) 0.8017(4)
C20 C 0.1612(8) 0.8237(6) 0.7573(4)
H40 H 0.142620 0.897878 0.757175
C21 C 0.2644(7) 0.7473(6) 0.8037(4)
H41 H 0.313278 0.769362 0.835079
C22 C 0.1221(7) 0.6861(6) 0.7147(4)
H42 H 0.072091 0.664043 0.683772
C23 C 0.3936(7) 0.5467(6) 0.8511(4)
C24 C 0.5345(9) 0.4951(6) 0.9657(4)
H43 H 0.552618 0.420725 0.958927
H44 H 0.620827 0.510677 0.967537
O56 O 0.1442(5) 0.6664(4) 0.9404(3)
Te2_2 Te 0.500000 1.000000 0.500000
Mo4 Mo 0.74109(6) 0.97066(5) 0.38519(3)
Mo5 Mo 0.44435(7) 0.78124(5) 0.60235(3)
Mo6 Mo 0.69179(7) 0.75290(5) 0.48950(3)
O1 O 0.6056(5) 0.8693(4) 0.5655(2)
O3 O 0.5626(5) 0.9195(4) 0.4259(2)
O11 O 0.8123(5) 0.8428(4) 0.4643(2)
O14 O 0.3493(5) 0.9425(4) 0.5228(2)
O15 O 0.5169(5) 0.7347(4) 0.5154(3)
O21 O 0.2989(5) 0.7427(4) 0.6002(3)
O30 O 0.7142(6) 0.6925(4) 0.4170(3)
O31 O 0.5509(6) 0.6835(4) 0.6660(3)
O32 O 0.7599(5) 0.9091(4) 0.3144(3)
O33 O 0.7950(6) 0.6591(4) 0.5577(3)
O58 O 0.3893(5) 0.8921(4) 0.6603(2)
O59 O 0.1174(5) 0.9834(4) 0.6116(2)
O64 O 0.0031(6) 0.8395(4) 0.5540(3)
H55 H 0.041801 0.770206 0.571619
Co7 Co 0.46076(10) 0.93974(8) 0.86502(5)
Te1_4 Te 1.000000 0.000000 0.000000
O26 O 0.8558(5) 0.3336(4) 0.0596(3)
O38 O 0.9557(5) 0.0949(4) 0.0678(2)
Te1_5 Te 1.000000 0.000000 1.000000
Mo2 Mo 0.74381(6) 0.16481(5) 0.89294(3)
Mo3 Mo 0.91092(6) 0.26618(5) 0.99201(3)
O9 O 0.7419(5) 0.2388(4) 0.9725(2)
O12 O 0.9631(5) 0.1335(4) 0.9267(2)
O24 O 0.9139(5) 0.3649(4) 0.9176(3)
O25 O 0.5798(5) 0.1621(4) 0.9029(3)
O27 O 0.7414(6) 0.2698(4) 0.8213(3)
O37 O 0.8131(4) 0.0078(4) 0.9807(2)
O45 O 0.8168(5) 0.0453(4) 0.8438(2)
H50 H 0.216154 0.039839 0.816802
O52 O 0.3957(6) 0.0338(4) 0.9406(3)
H51 H 0.342334 0.021283 0.973998
H52 H 0.438830 0.071746 0.955907
Te1_6 Te 1.000000 1.000000 1.000000
Mo7 Mo 0.83480(6) 0.89909(5) 0.89926(3)
O46 O 0.6637(5) 0.9059(4) 0.8999(2)
O47 O 0.8953(5) 0.7830(4) 0.9837(2)
O49 O 0.4559(5) 0.7915(4) 0.9367(2)
H45 H 0.385806 0.803784 0.962544
H46 H 0.523476 0.769685 0.967456
O50 O 0.5185(5) 0.8467(5) 0.7896(3)
H47 H 0.472434 0.862531 0.750166
H48 H 0.600059 0.838866 0.777085
O51 O 0.2490(5) 0.9732(4) 0.8411(3)
H49 H 0.204627 0.972151 0.880321
O53 O 0.9015(5) 0.8322(4) 0.8340(3)
Co8 Co 0.95143(10) 0.92656(8) 0.63810(5)
H56 H 0.929695 0.840217 0.532185
O65 O 0.7857(6) 0.8718(5) 0.6648(3)
H57 H 0.731575 0.871076 0.631914
H58 H 0.780156 0.819868 0.699414
O19 O 0.0846(6) 0.9676(4) 0.2891(3)
H9 H 0.117303 0.961102 0.248291
H10 H 0.072594 0.905713 0.307122
O36 O 0.1598(6) 0.9345(4) 0.4364(3)
H30 H 0.214707 0.952043 0.460925
H31 H 0.106237 0.913546 0.467148
Te1_7 Te 0.000000 0.000000 1.000000
Te1_8 Te 1.000000 1.000000 0.000000
O62 O 0.9154(6) 0.0324(4) 0.7109(3)
H53 H 0.882697 0.038898 0.751709
H54 H 0.927406 0.094287 0.692878
O70 O 0.8402(6) 0.0655(4) 0.5636(3)
H59 H 0.785293 0.047957 0.539075
H60 H 0.893763 0.086454 0.532852
loop_
_geom_bond_atom_site_label_1
_geom_bond_atom_site_label_2
_geom_bond_site_symmetry_1
_geom_bond_site_symmetry_2
O23 Co2 1_555 1_555
H13 O23 1_555 1_555
H14 O23 1_555 1_555
Co1 O6 1_555 1_555
O6 Mo1 1_555 1_555
O7 Mo1 1_555 1_555
O13 Co1 1_555 1_555
H1 O13 1_555 1_555
H2 O13 1_555 1_555
O16 Co1 1_555 1_555
H3 O16 1_555 1_555
H4 O16 1_555 1_555
O17 Co1 1_555 1_555
H5 O17 1_555 1_555
O20 Mo1 1_555 1_555
Te1_2 O2 1_555 1_555
Co3 O28 1_555 1_555
O2 Mo8 1_555 1_555
H7 O18 1_555 1_555
H8 O18 1_555 1_555
H11 O22 1_555 1_555
O28 C8 1_555 1_555
O29 Co3 1_555 1_555
H15 O29 1_555 1_555
H16 O29 1_555 1_555
N2 Co3 1_555 1_555
O34 Co3 1_555 1_555
H17 O34 1_555 1_555
H18 O34 1_555 1_555
O35 Co3 1_555 1_555
N4 H19 1_555 1_555
N5 H20 1_555 1_555
C1 N2 1_555 1_555
C2 H21 1_555 1_555
C3 N3 1_555 1_555
H22 C3 1_555 1_555
C4 C1 1_555 1_555
H23 C4 1_555 1_555
C5 N2 1_555 1_555
H24 C5 1_555 1_555
C6 C2 1_555 1_555
C7 O35 1_555 1_555
C8 N4 1_555 1_555
C9 N1 1_555 1_555
H25 C9 1_555 1_555
C10 N4 1_555 1_555
H26 C10 1_555 1_555
H27 C10 1_555 1_555
C11 N5 1_555 1_555
H28 C11 1_555 1_555
H29 C11 1_555 1_555
N6 Co3 1_555 1_555
C12 N1 1_555 1_555
H32 C12 1_555 1_555
O39 Te1_2 1_555 1_555
O40 Te2 1_555 1_555
O41 Te2 1_555 1_555
O42 Te2 1_555 1_555
N7 C16 1_555 1_555
O43 C15 1_555 1_555
N8 H33 1_555 1_555
C13 H34 1_555 1_555
C14 C13 1_555 1_555
C15 N8 1_555 1_555
C16 C13 1_555 1_555
H35 C16 1_555 1_555
C17 C11 1_555 1_555
H36 C17 1_555 1_555
H37 C17 1_555 1_555
N9 C14 1_555 1_555
C18 N7 1_555 1_555
H38 C18 1_555 1_555
Mo8 O4 1_555 1_555
O48 Mo8 1_555 1_555
O54 Mo9 1_555 1_555
O55 Mo8 1_555 1_555
O57 Mo8 1_555 1_555
Mo11 O8 1_555 1_555
Mo12 O40 1_555 1_555
O60 Mo10 1_555 1_555
O61 Mo11 1_555 1_555
O63 Mo11 1_555 1_555
O66 Mo12 1_555 1_555
O67 Mo11 1_555 1_555
O68 Mo10 1_555 1_555
O69 Mo12 1_555 1_555
Co6 O43 1_555 1_555
O71 Co6 1_555 1_555
H61 O71 1_555 1_555
H62 O71 1_555 1_555
O72 Co6 1_555 1_555
H63 O72 1_555 1_555
H64 O72 1_555 1_555
O73 Co6 1_555 1_555
N14 Co6 1_555 1_555
N3 C5 1_555 1_555
N5 C7 1_555 1_555
C1 C8 1_555 1_555
C2 C9 1_555 1_555
C3 C4 1_555 1_555
C6 C7 1_555 1_555
C6 N6 1_555 1_555
N6 C12 1_555 1_555
O39 Mo8 1_555 1_555
O39 Mo9 1_555 1_555
O40 Mo11 1_555 1_555
O41 Mo10 1_555 1_555
O41 Mo12 1_555 1_555
O42 Mo11 1_555 1_555
N8 C17 1_555 1_555
C14 C15 1_555 1_555
N9 C18 1_555 1_555
N9 Co6 1_555 1_555
Mo9 O48 1_555 1_555
Mo12 O60 1_555 1_555
Mo12 O61 1_555 1_555
O5 Te1_3 1_555 1_555
O73 C23 1_555 1_555
N14 C19 1_555 1_555
N11 C20 1_555 1_555
N12 H39 1_555 1_555
C19 C21 1_555 1_555
C20 H40 1_555 1_555
C21 C20 1_555 1_555
H41 C21 1_555 1_555
C22 N14 1_555 1_555
H42 C22 1_555 1_555
C23 N12 1_555 1_555
H43 C24 1_555 1_555
H44 C24 1_555 1_555
N11 C22 1_555 1_555
N12 C24 1_555 1_555
C19 C23 1_555 1_555
Te2_2 O1 1_555 1_555
Mo4 O3 1_555 1_555
Mo5 O1 1_555 1_555
Mo6 O1 1_555 1_555
O3 Te2_2 1_555 1_555
O11 Mo4 1_555 1_555
O14 Te2_2 1_555 1_555
O15 Mo5 1_555 1_555
O21 Mo5 1_555 1_555
O30 Mo6 1_555 1_555
O31 Mo5 1_555 1_555
O32 Mo4 1_555 1_555
O33 Mo6 1_555 1_555
O58 Mo5 1_555 1_555
H55 O64 1_555 1_555
Mo5 O14 1_555 1_555
Mo6 O3 1_555 1_555
Mo6 O11 1_555 1_555
Mo6 O15 1_555 1_555
O38 Te1_4 1_555 1_555
Mo2 O9 1_555 1_555
O9 Mo3 1_555 1_555
O12 Te1_5 1_555 1_555
O24 Mo3 1_555 1_555
O25 Mo2 1_555 1_555
O27 Mo2 1_555 1_555
O37 Te1_5 1_555 1_555
O45 Mo2 1_555 1_555
H51 O52 1_555 1_555
H52 O52 1_555 1_555
Mo2 O12 1_555 1_555
Mo2 O37 1_555 1_555
Mo3 O12 1_555 1_555
Co7 O46 1_555 1_555
O46 Mo7 1_555 1_555
O47 Mo7 1_555 1_555
O49 Co7 1_555 1_555
H45 O49 1_555 1_555
H46 O49 1_555 1_555
O50 Co7 1_555 1_555
H47 O50 1_555 1_555
H48 O50 1_555 1_555
O51 Co7 1_555 1_555
H49 O51 1_555 1_555
O53 Mo7 1_555 1_555
O65 Co8 1_555 1_555
H57 O65 1_555 1_555
H58 O65 1_555 1_555
H9 O19 1_555 1_555
H10 O19 1_555 1_555
H30 O36 1_555 1_555
H31 O36 1_555 1_555
H53 O62 1_555 1_555
H54 O62 1_555 1_555
H59 O70 1_555 1_555
H60 O70 1_555 1_555

#END
