
###############################################################################
#
# This file contains modified crystal structure data generated from the
# MOF subset of the Cambridge Structural Database (CSD) v543 
# hosted by the Cambridge Crystallographic Data Centre (CCDC).
#
# This work is licensed under the Creative Commons
# Attribution-NonCommercial-ShareAlike 4.0 International License.
# To view a copy of this license, visit
# http://creativecommons.org/licenses/by-nc-sa/4.0/
# or send a letter to
# Creative Commons, PO Box 1866, Mountain View, CA 94042, USA.
#
# CIF created using the CSD Python API on 29 September 2022
# The structure has been converted into the P1 space group
# The structure has a 3D framework
# The original CSD entry PEDWIH is in the monoclinic crystal system
# The original CSD entry PEDWIH is in a Sohncke space group
# The framework has been calculated to contain at least 10.0% void space
# The void calculation uses a probe of radius 1.32A, grid spacing 0.4
#
###############################################################################

data_PEDWIH
_chemical_formula_moiety         '(C62 H62 N6 O22 Zn4)n'
_symmetry_cell_setting           triclinic
_symmetry_space_group_name_H-M   'P 1'
_symmetry_Int_Tables_number      1
_space_group_name_Hall           'P 1'
loop_
_symmetry_equiv_pos_site_id
_symmetry_equiv_pos_as_xyz
1 x,y,z
_cell_length_a                   9.9954(14)
_cell_length_b                   16.749(2)
_cell_length_c                   15.358(2)
_cell_angle_alpha                90
_cell_angle_beta                 107.444(2)
_cell_angle_gamma                90
_cell_volume                     2452.88
loop_
_atom_site_label
_atom_site_type_symbol
_atom_site_fract_x
_atom_site_fract_y
_atom_site_fract_z
Zn2 Zn 0.01299(10) 0.28506(5) 0.16827(6)
O2 O 0.0030(8) 0.3981(4) 0.1022(5)
H3 H 0.0573 0.5092 0.0117
Zn4 Zn 0.27623(10) 0.73473(6) 0.00757(6)
O14 O 0.1890(6) 0.3074(4) 0.2837(4)
O15 O 0.2214(7) 0.2735(5) 0.1543(4)
O3 O 0.1673(7) 0.6330(4) 0.9610(4)
O4 O 0.0106(8) 0.6671(4) 0.8269(4)
C6 C 0.0029(9) 0.5378(5) 0.8788(6)
C7 C 0.0099(10) 0.4910(5) 0.9534(6)
C8 C 0.0638(10) 0.6200(6) 0.8897(6)
O1 O 0.9178(6) 0.2948(4) 0.0172(4)
C1 C 0.9548(10) 0.3684(6) 0.0256(6)
C23 C 0.5061(15) 0.1418(9) 0.0349(12)
H11 H 0.5830 0.1266 0.0833
N1 N 0.3738(17) 0.1267(10) 0.0422(12)
C25 C 0.356(2) 0.0852(13) 0.1257(16)
H15 H 0.3131 0.1210 0.1580
H16 H 0.4467 0.0694 0.1650
H17 H 0.2984 0.0388 0.1072
O12 O 0.8327(7) 0.1330(4) 0.0390(4)
O13 O 0.9894(8) 0.1671(4) 0.1731(4)
O16 O 0.6913(6) 0.2682(4) 0.1148(4)
O17 O 0.8735(6) 0.3114(4) 0.2303(4)
Zn1 Zn 0.72377(10) 0.23473(6) 0.99243(6)
C2 C 0.9454(9) 0.4152(5) 0.9416(5)
C3 C 0.8855(10) 0.3852(5) 0.8545(6)
H1 H 0.8476 0.3341 0.8467
C4 C 0.8822(9) 0.4319(6) 0.7788(6)
C5 C 0.9407(10) 0.5079(5) 0.7926(6)
H2 H 0.9379 0.5394 0.7422
C9 C 0.8193(10) 0.4018(6) 0.6830(6)
C10 C 0.7010(11) 0.3550(6) 0.6589(6)
H4 H 0.6612 0.3392 0.7036
C11 C 0.6391(11) 0.3305(7) 0.5688(6)
H5 H 0.5604 0.2977 0.5545
C12 C 0.6956(11) 0.3554(6) 0.5001(6)
C13 C 0.8159(10) 0.4023(6) 0.5250(6)
H6 H 0.8560 0.4190 0.4807
C14 C 0.8759(11) 0.4243(6) 0.6140(6)
H7 H 0.9569 0.4552 0.6290
C15 C 0.6320(10) 0.3345(5) 0.4040(6)
C16 C 0.4853(10) 0.3238(6) 0.3677(6)
H8 H 0.4282 0.3307 0.4050
C17 C 0.4255(9) 0.3030(5) 0.2757(6)
C18 C 0.5111(9) 0.2927(6) 0.2197(6)
H9 H 0.4721 0.2779 0.1589
C19 C 0.6539(9) 0.3046(5) 0.2546(6)
C20 C 0.7112(10) 0.3244(6) 0.3462(6)
H10 H 0.8078 0.3310 0.3691
C21 C 0.2698(10) 0.2950(6) 0.2367(6)
C22 C 0.7458(9) 0.2944(6) 0.1945(6)
O9 O 0.5295(8) 0.1748(5) 0.9673(5)
C24 C 0.2550(17) 0.1584(15) 0.9652(14)
H12 H 0.2886 0.2006 0.9349
H13 H 0.1829 0.1787 0.9887
H14 H 0.2175 0.1163 0.9225
O10 O 0.7258(8) 0.1989(4) 0.8610(4)
C26 C 0.7190(14) 0.1265(6) 0.8434(7)
H18 H 0.6927 0.0927 0.8835
N2 N 0.7454(13) 0.0939(6) 0.7740(7)
C27 C 0.776(3) 0.1439(11) 0.7043(13)
H19 H 0.8474 0.1187 0.6833
H20 H 0.8095 0.1951 0.7299
H21 H 0.6929 0.1507 0.6539
C28 C 0.7316(19) 0.0099(8) 0.7544(12)
H22 H 0.6481 0.0006 0.7047
O11 O 0.6159(8) 0.3368(4) 0.9349(5)
C29 C 0.493(2) 0.3297(18) 0.878(2)
H25 H 0.4741 0.2837 0.8420
N3 N 0.394(2) 0.3829(16) 0.8658(19)
C30 C 0.252(3) 0.358(2) 0.808(3)
H26 H 0.1873 0.4014 0.8040
H27 H 0.2555 0.3444 0.7482
H28 H 0.2216 0.3126 0.8353
C31 C 0.365(4) 0.426(2) 0.944(2)
H29 H 0.2882 0.4624 0.9211
H30 H 0.3410 0.3879 0.9838
H31 H 0.4468 0.4552 0.9777
Zn7 Zn 0.98701(10) 0.78506(5) 0.83173(6)
C5_2 C 0.0593(10) 0.0079(5) 0.2074(6)
H2_2 H 0.0621 0.0394 0.2578
O5 O 0.8110(6) 0.8074(4) 0.7163(4)
O6 O 0.7786(7) 0.7735(5) 0.8457(4)
O7 O 0.3087(6) 0.7682(4) 0.8852(4)
O8 O 0.1265(6) 0.8114(4) 0.7697(4)
C2_2 C 0.0546(9) 0.9152(5) 0.0584(5)
C3_2 C 0.1145(10) 0.8852(5) 0.1455(6)
H1_2 H 0.1524 0.8341 0.1533
C4_2 C 0.1178(9) 0.9319(6) 0.2212(6)
C9_2 C 0.1807(10) 0.9018(6) 0.3170(6)
C10_2 C 0.2990(11) 0.8550(6) 0.3411(6)
H4_2 H 0.3388 0.8392 0.2964
C11_2 C 0.3609(11) 0.8305(7) 0.4312(6)
H5_2 H 0.4396 0.7977 0.4455
C12_2 C 0.3044(11) 0.8554(6) 0.4999(6)
C13_2 C 0.1841(10) 0.9023(6) 0.4750(6)
H6_2 H 0.1440 0.9190 0.5193
C14_2 C 0.1241(11) 0.9243(6) 0.3860(6)
H7_2 H 0.0431 0.9552 0.3710
C15_2 C 0.3680(10) 0.8345(5) 0.5960(6)
C16_2 C 0.5147(10) 0.8238(6) 0.6323(6)
H8_2 H 0.5718 0.8307 0.5950
C17_2 C 0.5745(9) 0.8030(5) 0.7243(6)
C18_2 C 0.4889(9) 0.7927(6) 0.7803(6)
H9_2 H 0.5279 0.7779 0.8411
C19_2 C 0.3461(9) 0.8046(5) 0.7454(6)
C20_2 C 0.2888(10) 0.8244(6) 0.6538(6)
H10_2 H 0.1922 0.8310 0.6309
C21_2 C 0.7302(10) 0.7950(6) 0.7633(6)
C22_2 C 0.2542(9) 0.7944(6) 0.8055(6)
O9_2 O 0.4705(8) 0.6748(5) 0.0327(5)
C24_2 C 0.7450(17) 0.6584(15) 0.0348(14)
H12_2 H 0.7114 0.7006 0.0651
H13_2 H 0.8171 0.6787 0.0113
H14_2 H 0.7825 0.6163 0.0775
O10_2 O 0.2742(8) 0.6989(4) 0.1390(4)
C26_2 C 0.2810(14) 0.6265(6) 0.1566(7)
H18_2 H 0.3073 0.5927 0.1165
N2_2 N 0.2546(13) 0.5939(6) 0.2260(7)
C27_2 C 0.224(3) 0.6439(11) 0.2957(13)
H19_2 H 0.1526 0.6187 0.3167
H20_2 H 0.1905 0.6951 0.2701
H21_2 H 0.3071 0.6507 0.3461
C28_2 C 0.2684(19) 0.5099(8) 0.2456(12)
H22_2 H 0.3519 0.5006 0.2953
H23 H 0.2742 0.4816 0.1926
H24 H 0.1882 0.4916 0.2621
O11_2 O 0.3841(8) 0.8368(4) 0.0651(5)
C29_2 C 0.507(2) 0.8297(18) 0.122(2)
H25_2 H 0.5259 0.7837 0.1580
N3_2 N 0.606(2) 0.8829(16) 0.1342(19)
C30_2 C 0.748(3) 0.858(2) 0.192(3)
H26_2 H 0.8127 0.9014 0.1960
H27_2 H 0.7445 0.8444 0.2518
H28_2 H 0.7784 0.8126 0.1647
C31_2 C 0.635(4) 0.926(2) 0.056(2)
H29_2 H 0.7118 0.9624 0.0789
H30_2 H 0.6590 0.8879 0.0162
H31_2 H 0.5532 0.9552 0.0223
O1_2 O 0.0822(6) 0.7948(4) 0.9828(4)
C1_2 C 0.0452(10) 0.8684(6) 0.9744(6)
C23_2 C 0.4939(15) 0.6418(9) 0.9651(12)
H11_2 H 0.4170 0.6266 0.9167
N1_2 N 0.6262(17) 0.6267(10) 0.9578(12)
C25_2 C 0.644(2) 0.5852(13) 0.8743(16)
H15_2 H 0.6869 0.6210 0.8420
H16_2 H 0.5533 0.5694 0.8350
H17_2 H 0.7016 0.5388 0.8928
C6_2 C 0.9971(9) 0.0378(5) 0.1212(6)
C8_2 C 0.9362(10) 0.1200(6) 0.1103(6)
H3_2 H 0.9427 0.0092 0.9883
C7_2 C 0.9901(10) 0.9910(5) 0.0466(6)
O2_2 O 0.9970(8) 0.8981(4) 0.8978(5)
H23_2 H 0.7258 0.9816 0.8074
H24_2 H 0.8118 0.9916 0.7379
loop_
_geom_bond_atom_site_label_1
_geom_bond_atom_site_label_2
_geom_bond_site_symmetry_1
_geom_bond_site_symmetry_2
O2 Zn2 1_555 1_555
O14 Zn2 1_555 1_555
O15 Zn2 1_555 1_555
O3 C8 1_555 1_555
O4 C8 1_555 1_555
C8 C6 1_555 1_555
C6 C7 1_555 1_555
O1 C1 1_555 1_555
H11 C23 1_555 1_555
N1 C23 1_555 1_555
C25 N1 1_555 1_555
H15 C25 1_555 1_555
H16 C25 1_555 1_555
H17 C25 1_555 1_555
O14 C21 1_555 1_555
O15 C21 1_555 1_555
O16 C22 1_555 1_555
O17 C22 1_555 1_555
C3 C2 1_555 1_555
H1 C3 1_555 1_555
C4 C3 1_555 1_555
C5 C4 1_555 1_555
H2 C5 1_555 1_555
C9 C4 1_555 1_555
C10 C9 1_555 1_555
H4 C10 1_555 1_555
C11 C10 1_555 1_555
H5 C11 1_555 1_555
C12 C11 1_555 1_555
C13 C12 1_555 1_555
H6 C13 1_555 1_555
C14 C9 1_555 1_555
H7 C14 1_555 1_555
C15 C12 1_555 1_555
C16 C15 1_555 1_555
H8 C16 1_555 1_555
C17 C16 1_555 1_555
C18 C17 1_555 1_555
H9 C18 1_555 1_555
C19 C18 1_555 1_555
C20 C15 1_555 1_555
H10 C20 1_555 1_555
C21 C17 1_555 1_555
C22 C19 1_555 1_555
O9 Zn1 1_555 1_555
H12 C24 1_555 1_555
H13 C24 1_555 1_555
H14 C24 1_555 1_555
O10 Zn1 1_555 1_555
C26 O10 1_555 1_555
H18 C26 1_555 1_555
N2 C26 1_555 1_555
C27 N2 1_555 1_555
H19 C27 1_555 1_555
H20 C27 1_555 1_555
H21 C27 1_555 1_555
C28 N2 1_555 1_555
H22 C28 1_555 1_555
O11 Zn1 1_555 1_555
C29 O11 1_555 1_555
H25 C29 1_555 1_555
N3 C29 1_555 1_555
C30 N3 1_555 1_555
H26 C30 1_555 1_555
H27 C30 1_555 1_555
H28 C30 1_555 1_555
C31 N3 1_555 1_555
H29 C31 1_555 1_555
H30 C31 1_555 1_555
H31 C31 1_555 1_555
C13 C14 1_555 1_555
C19 C20 1_555 1_555
H2_2 C5_2 1_555 1_555
O5 C21_2 1_555 1_555
O6 C21_2 1_555 1_555
O7 C22_2 1_555 1_555
O8 C22_2 1_555 1_555
C3_2 C2_2 1_555 1_555
H1_2 C3_2 1_555 1_555
C4_2 C3_2 1_555 1_555
C9_2 C4_2 1_555 1_555
C10_2 C9_2 1_555 1_555
H4_2 C10_2 1_555 1_555
C11_2 C10_2 1_555 1_555
H5_2 C11_2 1_555 1_555
C12_2 C11_2 1_555 1_555
C13_2 C12_2 1_555 1_555
H6_2 C13_2 1_555 1_555
C14_2 C9_2 1_555 1_555
H7_2 C14_2 1_555 1_555
C15_2 C12_2 1_555 1_555
C16_2 C15_2 1_555 1_555
H8_2 C16_2 1_555 1_555
C17_2 C16_2 1_555 1_555
C18_2 C17_2 1_555 1_555
H9_2 C18_2 1_555 1_555
C19_2 C18_2 1_555 1_555
C20_2 C15_2 1_555 1_555
H10_2 C20_2 1_555 1_555
C21_2 C17_2 1_555 1_555
C22_2 C19_2 1_555 1_555
O9_2 Zn4 1_555 1_555
H12_2 C24_2 1_555 1_555
H13_2 C24_2 1_555 1_555
H14_2 C24_2 1_555 1_555
O10_2 Zn4 1_555 1_555
C26_2 O10_2 1_555 1_555
H18_2 C26_2 1_555 1_555
N2_2 C26_2 1_555 1_555
C27_2 N2_2 1_555 1_555
H19_2 C27_2 1_555 1_555
H20_2 C27_2 1_555 1_555
H21_2 C27_2 1_555 1_555
C28_2 N2_2 1_555 1_555
H22_2 C28_2 1_555 1_555
H23 C28_2 1_555 1_555
H24 C28_2 1_555 1_555
O11_2 Zn4 1_555 1_555
C29_2 O11_2 1_555 1_555
H25_2 C29_2 1_555 1_555
N3_2 C29_2 1_555 1_555
C30_2 N3_2 1_555 1_555
H26_2 C30_2 1_555 1_555
H27_2 C30_2 1_555 1_555
H28_2 C30_2 1_555 1_555
C31_2 N3_2 1_555 1_555
H29_2 C31_2 1_555 1_555
H30_2 C31_2 1_555 1_555
H31_2 C31_2 1_555 1_555
Zn7 O5 1_555 1_555
O6 Zn7 1_555 1_555
C13_2 C14_2 1_555 1_555
C19_2 C20_2 1_555 1_555
O1_2 C1_2 1_555 1_555
H11_2 C23_2 1_555 1_555
N1_2 C23_2 1_555 1_555
C25_2 N1_2 1_555 1_555
H15_2 C25_2 1_555 1_555
H16_2 C25_2 1_555 1_555
H17_2 C25_2 1_555 1_555
O12 C8_2 1_555 1_555
O13 C8_2 1_555 1_555
C8_2 C6_2 1_555 1_555
O2_2 Zn7 1_555 1_555

#END
