
###############################################################################
#
# This file contains modified crystal structure data generated from the
# MOF subset of the Cambridge Structural Database (CSD) v543 
# hosted by the Cambridge Crystallographic Data Centre (CCDC).
#
# This work is licensed under the Creative Commons
# Attribution-NonCommercial-ShareAlike 4.0 International License.
# To view a copy of this license, visit
# http://creativecommons.org/licenses/by-nc-sa/4.0/
# or send a letter to
# Creative Commons, PO Box 1866, Mountain View, CA 94042, USA.
#
# CIF created using the CSD Python API on 29 September 2022
# The structure has been converted into the P1 space group
# The structure has a 3D framework
# The original CSD entry PEFHEO is in the monoclinic crystal system
# The framework has been calculated to contain at least 10.0% void space
# The void calculation uses a probe of radius 1.32A, grid spacing 0.4
# The framework is charged, counterions have been retained in the structure
#
###############################################################################

data_PEFHEO
_chemical_formula_moiety         '(C88 H80 Cu4 N40 O28)n'
_symmetry_cell_setting           triclinic
_symmetry_space_group_name_H-M   'P 1'
_symmetry_Int_Tables_number      1
_space_group_name_Hall           'P 1'
loop_
_symmetry_equiv_pos_site_id
_symmetry_equiv_pos_as_xyz
1 x,y,z
_cell_length_a                   6.7220(9)
_cell_length_b                   26.649(4)
_cell_length_c                   17.515(2)
_cell_angle_alpha                90
_cell_angle_beta                 92.445(3)
_cell_angle_gamma                90
_cell_volume                     3134.69
loop_
_atom_site_label
_atom_site_type_symbol
_atom_site_fract_x
_atom_site_fract_y
_atom_site_fract_z
O1 O 0.8115(7) 0.00775(14) 0.6748(2)
O2 O 0.8928(6) 0.07614(13) 0.7350(2)
N1 N 0.8465(7) 0.05359(17) 0.6740(2)
O3 O 0.8428(9) 0.07691(16) 0.6130(2)
O1_2 O 0.1885(7) 0.50775(14) 0.8252(2)
O2_2 O 0.1072(6) 0.57614(13) 0.7650(2)
N1_2 N 0.1535(7) 0.55359(17) 0.8260(2)
O3_2 O 0.1572(9) 0.57691(16) 0.8870(2)
O1_3 O 0.1885(7) 0.99225(14) 0.3252(2)
O2_3 O 0.1072(6) 0.92386(13) 0.2650(2)
N1_3 N 0.1535(7) 0.94641(17) 0.3260(2)
O3_3 O 0.1572(9) 0.92309(16) 0.3870(2)
O1_4 O 0.8115(7) 0.49225(14) 0.1748(2)
O2_4 O 0.8928(6) 0.42386(13) 0.2350(2)
N1_4 N 0.8465(7) 0.44641(17) 0.1740(2)
O3_4 O 0.8428(9) 0.42309(16) 0.1130(2)
N7 N 0.4218(4) 0.10491(12) 0.93714(16)
C5 C 0.2861(6) 0.03271(15) 0.8736(2)
C7 C 0.2732(6) 0.08167(14) 0.8975(2)
H8 H 0.1544 0.0998 0.8854
C9 C 0.5913(6) 0.07954(15) 0.9539(2)
H10 H 0.6963 0.0956 0.9825
N10 N 0.1243(5) 0.00973(12) 0.83252(19)
H11 H 0.0718 0.0243 0.7913
C10 C 0.4630(6) 0.00670(16) 0.8900(2)
C17 C 0.6154(6) 0.03078(15) 0.9303(2)
H17 H 0.7371 0.0137 0.9417
Cu3 Cu 0.39178(7) 0.176226(17) 0.97721(3)
H1 H 0.0035 0.6456 0.8638
N6 N 0.5754(4) 0.70144(12) 0.63128(18)
O4 O 0.1187(4) 0.75419(10) 0.83850(16)
N8 N 0.2290(5) 0.68171(13) 0.78394(18)
H2 H 0.2056 0.6494 0.7790
C1 C 0.4255(5) 0.68419(14) 0.6729(2)
H3 H 0.3435 0.6581 0.6522
C3 C 0.6950(6) 0.73749(15) 0.6613(2)
H4 H 0.8004 0.7501 0.6324
C8 C 0.5118(6) 0.73924(16) 0.7758(2)
H9 H 0.4911 0.7520 0.8254
H12 H 0.4781 0.9730 0.8737
C11 C 0.1105(6) 0.70895(16) 0.8303(2)
C13 C 0.3865(6) 0.70258(15) 0.7435(2)
C19 C 0.6671(6) 0.75648(17) 0.7336(3)
H18 H 0.7549 0.7814 0.7543
O8 O 0.1105(4) 0.94300(12) 0.91421(18)
C22 C 0.0487(6) 0.96462(14) 0.8568(2)
Cu2 Cu 0.60822(7) 0.676226(17) 0.52279(3)
H1_2 H 0.9965 0.1456 0.6362
N6_2 N 0.4246(4) 0.20144(12) 0.86872(18)
N7_2 N 0.5782(4) 0.60491(12) 0.56286(16)
O4_2 O 0.8813(4) 0.25419(10) 0.66150(16)
N8_2 N 0.7710(5) 0.18171(13) 0.71606(18)
H2_2 H 0.7944 0.1494 0.7210
C1_2 C 0.5745(5) 0.18419(14) 0.8271(2)
H3_2 H 0.6565 0.1581 0.8478
C3_2 C 0.3050(6) 0.23749(15) 0.8387(2)
H4_2 H 0.1996 0.2501 0.8676
C5_2 C 0.7139(6) 0.53271(15) 0.6264(2)
C7_2 C 0.7268(6) 0.58167(14) 0.6025(2)
H8_2 H 0.8456 0.5998 0.6146
C8_2 C 0.4882(6) 0.23924(16) 0.7242(2)
H9_2 H 0.5089 0.2520 0.6746
C9_2 C 0.4087(6) 0.57954(15) 0.5461(2)
H10_2 H 0.3037 0.5956 0.5175
N10_2 N 0.8757(5) 0.50973(12) 0.66748(19)
H11_2 H 0.9282 0.5243 0.7087
C10_2 C 0.5370(6) 0.50670(16) 0.6100(2)
H12_2 H 0.5219 0.4730 0.6263
C11_2 C 0.8895(6) 0.20895(16) 0.6697(2)
C13_2 C 0.6135(6) 0.20258(15) 0.7565(2)
C17_2 C 0.3846(6) 0.53078(15) 0.5697(2)
H17_2 H 0.2629 0.5137 0.5583
C19_2 C 0.3329(6) 0.25648(17) 0.7664(3)
H18_2 H 0.2451 0.2814 0.7457
O8_2 O 0.8895(4) 0.44300(12) 0.58579(18)
C22_2 C 0.9513(6) 0.46462(14) 0.6432(2)
O6 O 0.0424(4) 0.16826(10) 0.95334(17)
N4 N 0.8983(5) 0.19807(13) 0.95941(18)
O5 O 0.7533(4) 0.18433(11) 0.99686(15)
O7 O 0.8990(4) 0.23988(11) 0.92849(18)
H16 H 0.6037 0.2741 0.9733
N2 N 0.9827(5) 0.82189(13) 0.3677(2)
N3 N 0.6371(5) 0.74679(12) 0.48116(18)
N4_2 N 0.1017(5) 0.69807(13) 0.54059(18)
N5 N 0.6115(5) 0.64658(12) 0.41553(18)
O5_2 O 0.2467(4) 0.68433(11) 0.50314(15)
O7_2 O 0.1010(4) 0.73988(11) 0.57151(18)
C2 C 0.7572(6) 0.58939(15) 0.3279(2)
C4 C 0.7943(6) 0.75879(15) 0.4384(2)
H5 H 0.8873 0.7334 0.4266
N9 N 0.8982(5) 0.55277(12) 0.30939(18)
H6 H 0.8883 0.5400 0.2631
C6 C 0.7617(6) 0.61573(14) 0.3972(2)
H7 H 0.8728 0.6118 0.4320
C12 C 0.4584(6) 0.65331(16) 0.3655(2)
H13 H 0.3520 0.6746 0.3789
C14 C 0.5996(6) 0.59841(16) 0.2757(2)
H14 H 0.5964 0.5824 0.2271
C15 C 0.4498(6) 0.63010(17) 0.2940(2)
H15 H 0.3414 0.6363 0.2587
C16 C 0.5063(6) 0.78260(16) 0.4969(2)
H16_2 H 0.3963 0.7741 0.5267
C18 C 0.8227(6) 0.80709(16) 0.4114(2)
C20 C 0.6836(7) 0.84386(18) 0.4289(3)
H19 H 0.6990 0.8773 0.4112
C21 C 0.5240(7) 0.83131(17) 0.4719(3)
H20 H 0.4278 0.8558 0.4840
O9 O 0.9576(4) 0.66826(10) 0.54666(17)
Cu1 Cu 0.60822(7) 0.823774(17) 0.02279(3)
N4_3 N 0.1017(5) 0.80193(13) 0.04059(18)
O5_3 O 0.2467(4) 0.81567(11) 0.00314(15)
O7_3 O 0.1010(4) 0.76012(11) 0.07151(18)
H16_3 H 0.3963 0.7259 0.0267
N11 N 0.5754(4) 0.79856(12) 0.13128(18)
N12 N 0.5782(4) 0.89509(12) 0.06286(16)
O9_2 O 0.9576(4) 0.83174(10) 0.04666(17)
O6_2 O 0.0424(4) 0.33174(10) 0.45334(17)
Cu4 Cu 0.39178(7) 0.323774(17) 0.47721(3)
N2_2 N 0.0173(5) 0.17811(13) 0.6323(2)
N3_2 N 0.3629(5) 0.25321(12) 0.51884(18)
N4_4 N 0.8983(5) 0.30193(13) 0.45941(18)
N5_2 N 0.3885(5) 0.35342(12) 0.58447(18)
O5_4 O 0.7533(4) 0.31567(11) 0.49686(15)
O7_4 O 0.8990(4) 0.26012(11) 0.42849(18)
C2_2 C 0.2428(6) 0.41061(15) 0.6721(2)
C4_2 C 0.2057(6) 0.24121(15) 0.5616(2)
H5_2 H 0.1127 0.2666 0.5734
N9_2 N 0.1018(5) 0.44723(12) 0.69061(18)
H6_2 H 0.1117 0.4600 0.7369
C6_2 C 0.2383(6) 0.38427(14) 0.6028(2)
H7_2 H 0.1272 0.3882 0.5680
C12_2 C 0.5416(6) 0.34669(16) 0.6345(2)
H13_2 H 0.6480 0.3254 0.6211
C14_2 C 0.4004(6) 0.40159(16) 0.7243(2)
H14_2 H 0.4036 0.4176 0.7729
C15_2 C 0.5502(6) 0.36990(17) 0.7060(2)
H15_2 H 0.6586 0.3637 0.7413
C16_2 C 0.4937(6) 0.21740(16) 0.5031(2)
H16_4 H 0.6037 0.2259 0.4733
C18_2 C 0.1773(6) 0.19291(16) 0.5886(2)
C20_2 C 0.3164(7) 0.15614(18) 0.5711(3)
H19_2 H 0.3010 0.1227 0.5888
C21_2 C 0.4760(7) 0.16869(17) 0.5281(3)
H20_2 H 0.5722 0.1442 0.5160
N11_2 N 0.4246(4) 0.29856(12) 0.36872(18)
N12_2 N 0.4218(4) 0.39509(12) 0.43714(16)
H1_3 H 0.9965 0.3544 0.1362
O4_3 O 0.8813(4) 0.24581(10) 0.16150(16)
N8_3 N 0.7710(5) 0.31829(13) 0.21606(18)
H2_3 H 0.7944 0.3506 0.2210
C1_3 C 0.5745(5) 0.31581(14) 0.3271(2)
H3_3 H 0.6565 0.3419 0.3478
C3_3 C 0.3050(6) 0.26251(15) 0.3387(2)
H4_3 H 0.1996 0.2499 0.3676
C8_3 C 0.4882(6) 0.26076(16) 0.2242(2)
H9_3 H 0.5089 0.2480 0.1746
H12_3 H 0.5219 0.0270 0.1263
C11_3 C 0.8895(6) 0.29105(16) 0.1697(2)
C13_3 C 0.6135(6) 0.29742(15) 0.2565(2)
C19_3 C 0.3329(6) 0.24352(17) 0.2664(3)
H18_3 H 0.2451 0.2186 0.2457
O8_3 O 0.8895(4) 0.05700(12) 0.08579(18)
C22_3 C 0.9513(6) 0.03538(14) 0.1432(2)
C5_3 C 0.7139(6) 0.96729(15) 0.1264(2)
C7_3 C 0.7268(6) 0.91833(14) 0.1025(2)
H8_3 H 0.8456 0.9002 0.1146
C9_3 C 0.4087(6) 0.92046(15) 0.0461(2)
H10_3 H 0.3037 0.9044 0.0175
N10_3 N 0.8757(5) 0.99027(12) 0.16748(19)
H11_3 H 0.9282 0.9757 0.2087
C10_3 C 0.5370(6) 0.99330(16) 0.1100(2)
C17_3 C 0.3846(6) 0.96922(15) 0.0697(2)
H17_3 H 0.2629 0.9863 0.0583
H1_4 H 0.0035 0.8544 0.3638
O4_4 O 0.1187(4) 0.74581(10) 0.33850(16)
N8_4 N 0.2290(5) 0.81829(13) 0.28394(18)
H2_4 H 0.2056 0.8506 0.2790
C1_4 C 0.4255(5) 0.81581(14) 0.1729(2)
H3_4 H 0.3435 0.8419 0.1522
C3_4 C 0.6950(6) 0.76251(15) 0.1613(2)
H4_4 H 0.8004 0.7499 0.1324
C5_4 C 0.2861(6) 0.46729(15) 0.3736(2)
C7_4 C 0.2732(6) 0.41833(14) 0.3975(2)
H8_4 H 0.1544 0.4002 0.3854
C8_4 C 0.5118(6) 0.76076(16) 0.2758(2)
H9_4 H 0.4911 0.7480 0.3254
C9_4 C 0.5913(6) 0.42046(15) 0.4539(2)
H10_4 H 0.6963 0.4044 0.4825
N10_4 N 0.1243(5) 0.49027(12) 0.33252(19)
H11_4 H 0.0718 0.4757 0.2913
C10_4 C 0.4630(6) 0.49330(16) 0.3900(2)
H12_4 H 0.4781 0.5270 0.3737
C11_4 C 0.1105(6) 0.79105(16) 0.3303(2)
C13_4 C 0.3865(6) 0.79742(15) 0.2435(2)
C17_4 C 0.6154(6) 0.46922(15) 0.4303(2)
H17_4 H 0.7371 0.4863 0.4417
C19_4 C 0.6671(6) 0.74352(17) 0.2336(3)
H18_4 H 0.7549 0.7186 0.2543
O8_4 O 0.1105(4) 0.55700(12) 0.41421(18)
C22_4 C 0.0487(6) 0.53538(14) 0.3568(2)
N2_3 N 0.9827(5) 0.67811(13) 0.8677(2)
N3_3 N 0.6371(5) 0.75321(12) 0.98116(18)
N5_3 N 0.6115(5) 0.85342(12) 0.91553(18)
C2_3 C 0.7572(6) 0.91061(15) 0.8279(2)
C4_3 C 0.7943(6) 0.74121(15) 0.9384(2)
H5_3 H 0.8873 0.7666 0.9266
N9_3 N 0.8982(5) 0.94723(12) 0.80939(18)
H6_3 H 0.8883 0.9600 0.7631
C6_3 C 0.7617(6) 0.88427(14) 0.8972(2)
H7_3 H 0.8728 0.8882 0.9320
C12_3 C 0.4584(6) 0.84669(16) 0.8655(2)
H13_3 H 0.3520 0.8254 0.8789
C14_3 C 0.5996(6) 0.90159(16) 0.7757(2)
H14_3 H 0.5964 0.9176 0.7271
C15_3 C 0.4498(6) 0.86990(17) 0.7940(2)
H15_3 H 0.3414 0.8637 0.7587
C16_3 C 0.5063(6) 0.71740(16) 0.9969(2)
C18_3 C 0.8227(6) 0.69291(16) 0.9114(2)
C20_3 C 0.6836(7) 0.65614(18) 0.9289(3)
H19_3 H 0.6990 0.6227 0.9112
C21_3 C 0.5240(7) 0.66869(17) 0.9719(3)
H20_3 H 0.4278 0.6442 0.9840
N2_4 N 0.0173(5) 0.32189(13) 0.1323(2)
N3_4 N 0.3629(5) 0.24679(12) 0.01884(18)
N5_4 N 0.3885(5) 0.14658(12) 0.08447(18)
C2_4 C 0.2428(6) 0.08939(15) 0.1721(2)
C4_4 C 0.2057(6) 0.25879(15) 0.0616(2)
H5_4 H 0.1127 0.2334 0.0734
N9_4 N 0.1018(5) 0.05277(12) 0.19061(18)
H6_4 H 0.1117 0.0400 0.2369
C6_4 C 0.2383(6) 0.11573(14) 0.1028(2)
H7_4 H 0.1272 0.1118 0.0680
C12_4 C 0.5416(6) 0.15331(16) 0.1345(2)
H13_4 H 0.6480 0.1746 0.1211
C14_4 C 0.4004(6) 0.09841(16) 0.2243(2)
H14_4 H 0.4036 0.0824 0.2729
C15_4 C 0.5502(6) 0.13010(17) 0.2060(2)
H15_4 H 0.6586 0.1363 0.2413
C16_4 C 0.4937(6) 0.28260(16) 0.0031(2)
C18_4 C 0.1773(6) 0.30709(16) 0.0886(2)
C20_4 C 0.3164(7) 0.34386(18) 0.0711(3)
H19_4 H 0.3010 0.3773 0.0888
C21_4 C 0.4760(7) 0.33131(17) 0.0281(3)
H20_4 H 0.5722 0.3558 0.0160
loop_
_geom_bond_atom_site_label_1
_geom_bond_atom_site_label_2
_geom_bond_site_symmetry_1
_geom_bond_site_symmetry_2
O1 N1 1_555 1_555
O2 N1 1_555 1_555
N1 O3 1_555 1_555
O1_2 N1_2 1_555 1_555
O2_2 N1_2 1_555 1_555
N1_2 O3_2 1_555 1_555
O1_3 N1_3 1_555 1_555
O2_3 N1_3 1_555 1_555
N1_3 O3_3 1_555 1_555
O1_4 N1_4 1_555 1_555
O2_4 N1_4 1_555 1_555
N1_4 O3_4 1_555 1_555
N7 C7 1_555 1_555
C5 C7 1_555 1_555
C7 H8 1_555 1_555
C9 N7 1_555 1_555
H10 C9 1_555 1_555
N10 C5 1_555 1_555
H11 N10 1_555 1_555
C10 C5 1_555 1_555
C17 C9 1_555 1_555
H17 C17 1_555 1_555
Cu3 N7 1_555 1_555
C10 C17 1_555 1_555
N6 C1 1_555 1_555
O4 C11 1_555 1_555
N8 H2 1_555 1_555
C1 H3 1_555 1_555
C3 N6 1_555 1_555
H4 C3 1_555 1_555
C8 H9 1_555 1_555
C13 N8 1_555 1_555
C19 C3 1_555 1_555
H18 C19 1_555 1_555
O8 C22 1_555 1_555
Cu2 N6 1_555 1_555
N8 C11 1_555 1_555
C1 C13 1_555 1_555
C8 C13 1_555 1_555
C8 C19 1_555 1_555
N6_2 C1_2 1_555 1_555
N7_2 C7_2 1_555 1_555
O4_2 C11_2 1_555 1_555
N8_2 H2_2 1_555 1_555
C1_2 H3_2 1_555 1_555
C3_2 N6_2 1_555 1_555
H4_2 C3_2 1_555 1_555
C5_2 C7_2 1_555 1_555
C7_2 H8_2 1_555 1_555
C8_2 H9_2 1_555 1_555
C9_2 N7_2 1_555 1_555
H10_2 C9_2 1_555 1_555
N10_2 C5_2 1_555 1_555
H11_2 N10_2 1_555 1_555
C10_2 C5_2 1_555 1_555
H12_2 C10_2 1_555 1_555
C13_2 N8_2 1_555 1_555
C17_2 C9_2 1_555 1_555
H17_2 C17_2 1_555 1_555
C19_2 C3_2 1_555 1_555
H18_2 C19_2 1_555 1_555
O8_2 C22_2 1_555 1_555
Cu3 N6_2 1_555 1_555
Cu2 N7_2 1_555 1_555
N8_2 C11_2 1_555 1_555
C1_2 C13_2 1_555 1_555
C8_2 C13_2 1_555 1_555
C8_2 C19_2 1_555 1_555
N10_2 C22_2 1_555 1_555
C10_2 C17_2 1_555 1_555
Cu3 O6 1_555 1_555
N4 O5 1_555 1_555
O5 Cu3 1_555 1_555
O7 N4 1_555 1_555
Cu2 N3 1_555 1_555
N3 C4 1_555 1_555
N4_2 O5_2 1_555 1_555
N5 Cu2 1_555 1_555
O5_2 Cu2 1_555 1_555
O7_2 N4_2 1_555 1_555
C2 N9 1_555 1_555
C4 H5 1_555 1_555
N9 H6 1_555 1_555
C6 N5 1_555 1_555
H7 C6 1_555 1_555
C12 N5 1_555 1_555
H13 C12 1_555 1_555
C14 C2 1_555 1_555
H14 C14 1_555 1_555
C15 C12 1_555 1_555
H15 C15 1_555 1_555
C16 N3 1_555 1_555
H16_2 C16 1_555 1_555
C18 N2 1_555 1_555
C20 C18 1_555 1_555
H19 C20 1_555 1_555
C21 C16 1_555 1_555
H20 C21 1_555 1_555
O9 Cu2 1_555 1_555
C2 C6 1_555 1_555
C4 C18 1_555 1_555
C14 C15 1_555 1_555
C20 C21 1_555 1_555
N4_3 O5_3 1_555 1_555
O5_3 Cu1 1_555 1_555
O7_3 N4_3 1_555 1_555
N11 Cu1 1_555 1_555
N12 Cu1 1_555 1_555
O9_2 Cu1 1_555 1_555
Cu4 O6_2 1_555 1_555
Cu4 N3_2 1_555 1_555
N3_2 C4_2 1_555 1_555
N4_4 O5_4 1_555 1_555
N5_2 Cu4 1_555 1_555
O5_4 Cu4 1_555 1_555
O7_4 N4_4 1_555 1_555
C2_2 N9_2 1_555 1_555
C4_2 H5_2 1_555 1_555
N9_2 H6_2 1_555 1_555
C6_2 N5_2 1_555 1_555
H7_2 C6_2 1_555 1_555
C12_2 N5_2 1_555 1_555
H13_2 C12_2 1_555 1_555
C14_2 C2_2 1_555 1_555
H14_2 C14_2 1_555 1_555
C15_2 C12_2 1_555 1_555
H15_2 C15_2 1_555 1_555
C16_2 N3_2 1_555 1_555
H16_4 C16_2 1_555 1_555
C18_2 N2_2 1_555 1_555
C20_2 C18_2 1_555 1_555
H19_2 C20_2 1_555 1_555
C21_2 C16_2 1_555 1_555
H20_2 C21_2 1_555 1_555
N11_2 Cu4 1_555 1_555
N12_2 Cu4 1_555 1_555
C2_2 C6_2 1_555 1_555
C4_2 C18_2 1_555 1_555
C14_2 C15_2 1_555 1_555
C20_2 C21_2 1_555 1_555
N11_2 C1_3 1_555 1_555
O4_3 C11_3 1_555 1_555
N8_3 H2_3 1_555 1_555
C1_3 H3_3 1_555 1_555
C3_3 N11_2 1_555 1_555
H4_3 C3_3 1_555 1_555
C8_3 H9_3 1_555 1_555
C13_3 N8_3 1_555 1_555
C19_3 C3_3 1_555 1_555
H18_3 C19_3 1_555 1_555
O8_3 C22_3 1_555 1_555
N8_3 C11_3 1_555 1_555
C1_3 C13_3 1_555 1_555
C8_3 C13_3 1_555 1_555
C8_3 C19_3 1_555 1_555
N12 C7_3 1_555 1_555
C5_3 C7_3 1_555 1_555
C7_3 H8_3 1_555 1_555
C9_3 N12 1_555 1_555
H10_3 C9_3 1_555 1_555
N10_3 C5_3 1_555 1_555
H11_3 N10_3 1_555 1_555
C10_3 C5_3 1_555 1_555
C17_3 C9_3 1_555 1_555
H17_3 C17_3 1_555 1_555
C10_3 C17_3 1_555 1_555
N11 C1_4 1_555 1_555
N12_2 C7_4 1_555 1_555
O4_4 C11_4 1_555 1_555
N8_4 H2_4 1_555 1_555
C1_4 H3_4 1_555 1_555
C3_4 N11 1_555 1_555
H4_4 C3_4 1_555 1_555
C5_4 C7_4 1_555 1_555
C7_4 H8_4 1_555 1_555
C8_4 H9_4 1_555 1_555
C9_4 N12_2 1_555 1_555
H10_4 C9_4 1_555 1_555
N10_4 C5_4 1_555 1_555
H11_4 N10_4 1_555 1_555
C10_4 C5_4 1_555 1_555
H12_4 C10_4 1_555 1_555
C13_4 N8_4 1_555 1_555
C17_4 C9_4 1_555 1_555
H17_4 C17_4 1_555 1_555
C19_4 C3_4 1_555 1_555
H18_4 C19_4 1_555 1_555
O8_4 C22_4 1_555 1_555
N8_4 C11_4 1_555 1_555
C1_4 C13_4 1_555 1_555
C8_4 C13_4 1_555 1_555
C8_4 C19_4 1_555 1_555
N10_4 C22_4 1_555 1_555
C10_4 C17_4 1_555 1_555
N3_3 C4_3 1_555 1_555
C2_3 N9_3 1_555 1_555
C4_3 H5_3 1_555 1_555
N9_3 H6_3 1_555 1_555
C6_3 N5_3 1_555 1_555
H7_3 C6_3 1_555 1_555
C12_3 N5_3 1_555 1_555
H13_3 C12_3 1_555 1_555
C14_3 C2_3 1_555 1_555
H14_3 C14_3 1_555 1_555
C15_3 C12_3 1_555 1_555
H15_3 C15_3 1_555 1_555
C16_3 N3_3 1_555 1_555
C18_3 N2_3 1_555 1_555
C20_3 C18_3 1_555 1_555
H19_3 C20_3 1_555 1_555
C21_3 C16_3 1_555 1_555
H20_3 C21_3 1_555 1_555
C2_3 C6_3 1_555 1_555
C4_3 C18_3 1_555 1_555
C14_3 C15_3 1_555 1_555
C20_3 C21_3 1_555 1_555
N3_4 C4_4 1_555 1_555
C2_4 N9_4 1_555 1_555
C4_4 H5_4 1_555 1_555
N9_4 H6_4 1_555 1_555
C6_4 N5_4 1_555 1_555
H7_4 C6_4 1_555 1_555
C12_4 N5_4 1_555 1_555
H13_4 C12_4 1_555 1_555
C14_4 C2_4 1_555 1_555
H14_4 C14_4 1_555 1_555
C15_4 C12_4 1_555 1_555
H15_4 C15_4 1_555 1_555
C16_4 N3_4 1_555 1_555
C18_4 N2_4 1_555 1_555
C20_4 C18_4 1_555 1_555
H19_4 C20_4 1_555 1_555
C21_4 C16_4 1_555 1_555
H20_4 C21_4 1_555 1_555
C2_4 C6_4 1_555 1_555
C4_4 C18_4 1_555 1_555
C14_4 C15_4 1_555 1_555
C20_4 C21_4 1_555 1_555

#END
