
###############################################################################
#
# This file contains modified crystal structure data generated from the
# MOF subset of the Cambridge Structural Database (CSD) v543 
# hosted by the Cambridge Crystallographic Data Centre (CCDC).
#
# This work is licensed under the Creative Commons
# Attribution-NonCommercial-ShareAlike 4.0 International License.
# To view a copy of this license, visit
# http://creativecommons.org/licenses/by-nc-sa/4.0/
# or send a letter to
# Creative Commons, PO Box 1866, Mountain View, CA 94042, USA.
#
# CIF created using the CSD Python API on 29 September 2022
# The structure has been converted into the P1 space group
# The structure has a 3D framework
# The original CSD entry PEFRUP is in the monoclinic crystal system
# The framework has been calculated to contain at least 10.0% void space
# The void calculation uses a probe of radius 1.32A, grid spacing 0.4
# H atom positions have been added when not included in the experimental data
# Generated hydrogen atom positions removed from atoms on special positions
#
###############################################################################

data_PEFRUP
_chemical_formula_moiety         '(C144 H100 Gd8 N24 O58)n'
_symmetry_cell_setting           triclinic
_symmetry_space_group_name_H-M   'P 1'
_symmetry_Int_Tables_number      1
_space_group_name_Hall           'P 1'
loop_
_symmetry_equiv_pos_site_id
_symmetry_equiv_pos_as_xyz
1 x,y,z
_cell_length_a                   25.6487(14)
_cell_length_b                   15.1875(19)
_cell_length_c                   17.0378(12)
_cell_angle_alpha                90
_cell_angle_beta                 97.910(6)
_cell_angle_gamma                90
_cell_volume                     6573.75
loop_
_atom_site_label
_atom_site_type_symbol
_atom_site_fract_x
_atom_site_fract_y
_atom_site_fract_z
Gd14 Gd 0.74962(2) 0.70429(5) 0.03678(4)
O31 O 0.2987(3) 0.3061(6) 0.0919(5)
O42 O 0.1892(3) 0.3512(7) 0.0471(6)
Gd1 Gd 0.24971(2) 0.32924(5) 0.68502(4)
O1 O 0.1982(3) 0.3398(7) 0.5591(5)
O2 O 0.3207(3) 0.2245(6) 0.7177(5)
O3 O 0.2007(3) 0.1975(7) 0.6709(5)
O4 O 0.3149(3) 0.3865(6) 0.6085(6)
O7 O 0.2390(4) 0.4912(7) 0.6742(6)
O9 O 0.2987(3) 0.1939(6) 0.5919(5)
O10 O 0.2992(3) 0.3373(7) 0.4847(5)
O11 O 0.1780(3) 0.3030(7) 0.4348(5)
O14 O 0.1892(3) 0.1488(7) 0.5471(6)
C1 C 0.4752(3) 0.4815(7) 0.5030(6)
N1 N 0.4499(3) 0.5121(6) 0.5648(5)
C2 C 0.4011(3) 0.4783(7) 0.5756(5)
H1 H 0.3842 0.4988 0.6170
C3 C 0.3775(3) 0.4139(7) 0.5247(6)
C4 C 0.4027(4) 0.3833(6) 0.4629(6)
H2 H 0.3869 0.3402 0.4288
C5 C 0.4516(4) 0.4171(7) 0.4520(5)
H3 H 0.4685 0.3966 0.4107
C6 C 0.3265(5) 0.3725(11) 0.5390(9)
C7 C 0.0230(3) 0.4778(7) 0.4961(6)
N2 N 0.0603(4) 0.4784(7) 0.5635(5)
C8 C 0.1080(3) 0.4351(7) 0.5634(5)
H4 H 0.1329 0.4355 0.6085
C9 C 0.1185(3) 0.3911(7) 0.4957(6)
C10 C 0.0812(4) 0.3905(8) 0.4282(5)
H5 H 0.0882 0.3611 0.3829
C11 C 0.0335(3) 0.4339(8) 0.4284(5)
H6 H 0.0086 0.4335 0.3832
C12 C 0.1683(5) 0.3395(10) 0.4962(8)
C13 C 0.4646(3) 0.0249(7) 0.6635(6)
N3 N 0.4290(3) 0.0294(7) 0.5943(5)
C14 C 0.3843(3) 0.0817(7) 0.5914(5)
H7 H 0.3605 0.0847 0.5451
C15 C 0.3752(3) 0.1297(6) 0.6577(6)
C16 C 0.4109(4) 0.1253(7) 0.7269(5)
H8 H 0.4048 0.1574 0.7713
C17 C 0.4555(3) 0.0729(8) 0.7298(5)
H9 H 0.4794 0.0699 0.7761
C18 C 0.3285(4) 0.1845(10) 0.6564(10)
H12 H 0.5479 0.0254 0.7675
C31 C 0.0399(3) 0.0144(7) 0.6597(6)
C32 C 0.1088(4) 0.0371(8) 0.5790(5)
H16 H 0.1244 0.0233 0.5344
C33 C 0.1310(3) 0.1010(7) 0.6316(6)
C34 C 0.1077(3) 0.1216(7) 0.6983(6)
H17 H 0.1226 0.1644 0.7335
C35 C 0.0622(3) 0.0783(8) 0.7123(5)
H18 H 0.0466 0.0921 0.7569
C36 C 0.1793(5) 0.1531(11) 0.6168(10)
Gd6 Gd 0.75029(2) 0.67076(5) 0.31498(4)
Gd7 Gd 0.75029(2) 0.82924(5) 0.81498(4)
Gd9 Gd 0.25038(2) 0.29571(5) 0.96322(4)
Gd10 Gd 0.25038(2) 0.20429(5) 0.46322(4)
Gd13 Gd 0.74962(2) 0.79571(5) 0.53678(4)
O17 O 0.6793(3) 0.7245(6) 0.7823(5)
O21 O 0.6851(3) 0.6135(6) 0.3915(6)
O23 O 0.3013(3) 0.3852(6) 0.7951(5)
O25 O 0.1724(4) 0.3618(8) 0.7410(6)
O28 O 0.3312(3) 0.3238(7) 0.9104(5)
O29 O 0.7013(3) 0.6939(6) 0.9081(5)
O32 O 0.7008(3) 0.6627(7) 0.5153(5)
O34 O 0.2992(3) 0.1627(7) 0.9847(5)
O37 O 0.1780(3) 0.1970(7) 0.9348(5)
O38 O 0.2653(4) 0.4635(8) 0.9755(6)
O39 O 0.2500(3) 0.2159(7) 0.8329(6)
O43 O 0.1916(3) 0.3623(7) 0.8670(5)
C37 C 0.5248(3) 0.5185(7) 0.4970(6)
N7 N 0.5501(3) 0.4879(6) 0.4352(5)
C38 C 0.5989(3) 0.5217(7) 0.4244(5)
H19 H 0.6158 0.5012 0.3830
C39 C 0.6225(3) 0.5861(7) 0.4753(6)
C40 C 0.5973(4) 0.6167(6) 0.5371(6)
H20 H 0.6131 0.6598 0.5712
C41 C 0.5484(4) 0.5829(7) 0.5480(5)
H21 H 0.5315 0.6034 0.5893
C42 C 0.6735(5) 0.6275(11) 0.4610(9)
C49 C 0.5354(3) 0.5249(7) 0.8365(6)
N9 N 0.5710(3) 0.5294(7) 0.9057(5)
C50 C 0.6157(3) 0.5817(7) 0.9086(5)
H25 H 0.6395 0.5847 0.9549
C51 C 0.6248(3) 0.6297(6) 0.8423(6)
C52 C 0.5891(4) 0.6253(7) 0.7731(5)
H26 H 0.5952 0.6574 0.7287
C53 C 0.5445(3) 0.5729(8) 0.7702(5)
H27 H 0.5206 0.5699 0.7239
C54 C 0.6715(4) 0.6845(10) 0.8436(10)
C55 C 0.4884(3) 0.4790(7) 0.8372(6)
N10 N 0.4810(3) 0.4279(7) 0.9025(5)
C56 C 0.4324(3) 0.3890(7) 0.9066(5)
H28 H 0.4274 0.3547 0.9502
C57 C 0.3912(3) 0.4011(7) 0.8454(6)
C58 C 0.3986(3) 0.4523(7) 0.7802(5)
H29 H 0.3710 0.4604 0.7393
C59 C 0.4472(4) 0.4912(7) 0.7761(5)
H30 H 0.4521 0.5254 0.7325
C60 C 0.3367(5) 0.3680(9) 0.8487(9)
C61 C 0.0080(3) 0.4723(8) 0.8335(6)
N11 N 0.0296(4) 0.4885(8) 0.7644(5)
C62 C 0.0791(4) 0.4557(8) 0.7560(5)
H31 H 0.0936 0.4665 0.7098
C63 C 0.1071(3) 0.4067(8) 0.8167(6)
C64 C 0.0855(4) 0.3905(7) 0.8858(6)
H32 H 0.1042 0.3578 0.9264
C65 C 0.0360(4) 0.4233(8) 0.8942(6)
H33 H 0.0215 0.4125 0.9404
C66 C 0.1606(4) 0.3757(9) 0.8055(8)
H45 H 0.279998 0.174041 0.837165
H46 H 0.21645 0.183013 0.820043
H47 H 0.266308 0.489021 0.922071
H48 H 0.236107 0.490757 0.999647
O5 O 0.6987(3) 0.8852(6) 0.7049(5)
O8 O 0.6688(3) 0.8238(7) 0.5896(5)
O12 O 0.7347(4) 0.9635(8) 0.5245(6)
O13 O 0.7500(3) 0.7159(7) 0.6671(6)
C19 C 0.5116(3) 0.9790(7) 0.6628(6)
N4 N 0.5190(3) 0.9279(7) 0.5975(5)
C20 C 0.5676(3) 0.8890(7) 0.5934(5)
H10 H 0.5726 0.8547 0.5498
C21 C 0.6088(3) 0.9011(7) 0.6546(6)
C22 C 0.6014(3) 0.9523(7) 0.7198(5)
H11 H 0.6290 0.9604 0.7607
C23 C 0.5528(4) 0.9912(7) 0.7239(5)
C24 C 0.6633(5) 0.8680(9) 0.6513(9)
N6 N 0.0632(4) 0.9938(6) 0.5930(6)
O30 O 0.7013(3) 0.8061(6) 0.4081(5)
O36 O 0.8220(3) 0.6970(7) 0.5652(5)
O41 O 0.8108(3) 0.8512(7) 0.4529(6)
O44 O 0.8084(3) 0.8623(7) 0.6330(5)
H39 H 0.733692 0.989021 0.577929
H40 H 0.763893 0.990757 0.500353
H41 H 0.720002 0.674041 0.662835
H42 H 0.78355 0.683013 0.679957
O16 O 0.8018(3) 0.6602(7) 0.4409(5)
O18 O 0.6793(3) 0.7755(6) 0.2823(5)
O19 O 0.7993(3) 0.6975(7) 0.8291(5)
O20 O 0.7993(3) 0.8025(7) 0.3291(5)
O24 O 0.6987(3) 0.6148(6) 0.2049(5)
O26 O 0.8276(4) 0.6382(8) 0.2590(6)
O27 O 0.7610(4) 0.5088(7) 0.3258(6)
O40 O 0.8108(3) 0.6488(7) 0.9529(6)
C43 C 0.9770(3) 0.5222(7) 0.5039(6)
N8 N 0.9397(4) 0.5216(7) 0.4365(5)
C44 C 0.8920(3) 0.5649(7) 0.4366(5)
H22 H 0.8671 0.5645 0.3915
C45 C 0.8815(3) 0.6089(7) 0.5043(6)
C46 C 0.9188(4) 0.6095(8) 0.5718(5)
H23 H 0.9118 0.6389 0.6171
C47 C 0.9665(3) 0.5661(8) 0.5716(5)
H24 H 0.9914 0.5665 0.6168
C48 C 0.8317(5) 0.6605(10) 0.5038(8)
C67 C 0.9601(3) 0.5144(7) 0.8403(6)
N12 N 0.9368(4) 0.4938(6) 0.9070(6)
C68 C 0.8912(4) 0.5371(8) 0.9210(5)
H34 H 0.8756 0.5233 0.9656
C69 C 0.8690(3) 0.6010(7) 0.8684(6)
C70 C 0.8923(3) 0.6216(7) 0.8017(6)
H35 H 0.8774 0.6644 0.7665
C71 C 0.9378(3) 0.5783(8) 0.7877(5)
H36 H 0.9534 0.5921 0.7431
C72 C 0.8207(5) 0.6531(11) 0.8832(10)
O6 O 0.8276(4) 0.8618(8) 0.7590(6)
C25 C 0.9920(3) 0.9723(8) 0.6665(6)
N5 N 0.9704(4) 0.9885(8) 0.7356(5)
C26 C 0.9209(4) 0.9557(8) 0.7440(5)
H13 H 0.9064 0.9665 0.7902
C27 C 0.8929(3) 0.9067(8) 0.6833(6)
C28 C 0.9145(4) 0.8905(7) 0.6142(6)
H14 H 0.8958 0.8578 0.5736
C29 C 0.9640(4) 0.9233(8) 0.6058(6)
H15 H 0.9785 0.9125 0.5596
C30 C 0.8394(4) 0.8757(9) 0.6945(8)
Gd3 Gd 0.24971(2) 0.17076(5) 0.18502(4)
O16_2 O 0.1982(3) 0.1602(7) 0.0591(5)
O18_2 O 0.3207(3) 0.2755(6) 0.2177(5)
O20_2 O 0.2007(3) 0.3025(7) 0.1709(5)
O22 O 0.3149(3) 0.1135(6) 0.1085(6)
O24_2 O 0.3013(3) 0.1148(6) 0.2951(5)
O26_2 O 0.1724(4) 0.1382(8) 0.2410(6)
O27_2 O 0.2390(4) 0.0088(7) 0.1742(6)
N8_2 N 0.0603(4) 0.0216(7) 0.0635(5)
C44_2 C 0.1080(3) 0.0649(7) 0.0634(5)
H22_2 H 0.1329 0.0645 0.1085
C43_2 C 0.0230(3) 0.0222(7) 0.9961(6)
C45_2 C 0.1185(3) 0.1089(7) 0.9957(6)
C46_2 C 0.0812(4) 0.1095(8) 0.9282(5)
H23_2 H 0.0882 0.1389 0.8829
C47_2 C 0.0335(3) 0.0661(8) 0.9284(5)
H24_2 H 0.0086 0.0665 0.8832
C48_2 C 0.1683(5) 0.1605(10) 0.9962(8)
H43 H 0.254157 0.987386 0.127124
H44 H 0.257559 0.980418 0.222665
C37_2 C 0.4752(3) 0.0185(7) 0.0030(6)
C38_2 C 0.4011(3) 0.0217(7) 0.0756(5)
H19_2 H 0.3842 0.0012 0.1170
C39_2 C 0.3775(3) 0.0861(7) 0.0247(6)
C42_2 C 0.3265(5) 0.1275(11) 0.0390(9)
N1_2 N 0.5501(3) 0.0121(6) 0.9352(5)
C40_2 C 0.4027(4) 0.1167(6) 0.9629(6)
H20_2 H 0.3869 0.1598 0.9288
C41_2 C 0.4516(4) 0.0829(7) 0.9520(5)
H21_2 H 0.4685 0.1034 0.9107
H37 H 0.799007 0.00627711 0.831523
H38 H 0.742441 0.0195818 0.777335
O10_2 O 0.7008(3) 0.8373(7) 0.0153(5)
O11_2 O 0.8220(3) 0.8030(7) 0.0652(5)
C4_2 C 0.5973(4) 0.8833(6) 0.0371(6)
H2_2 H 0.6131 0.8402 0.0712
C5_2 C 0.5484(4) 0.9171(7) 0.0480(5)
H3_2 H 0.5315 0.8966 0.0893
C7_2 C 0.9770(3) 0.9778(7) 0.0039(6)
C9_2 C 0.8815(3) 0.8911(7) 0.0043(6)
C10_2 C 0.9188(4) 0.8905(8) 0.0718(5)
H5_2 H 0.9118 0.8611 0.1171
C11_2 C 0.9665(3) 0.9339(8) 0.0716(5)
H6_2 H 0.9914 0.9335 0.1168
C12_2 C 0.8317(5) 0.8395(10) 0.0038(8)
N7_2 N 0.4499(3) 0.9879(6) 0.0648(5)
O1_2 O 0.8018(3) 0.8398(7) 0.9409(5)
O4_2 O 0.6851(3) 0.8865(6) 0.8915(6)
O7_2 O 0.7610(4) 0.9912(7) 0.8258(6)
C1_2 C 0.5248(3) 0.9815(7) 0.9970(6)
C2_2 C 0.5989(3) 0.9783(7) 0.9244(5)
H1_2 H 0.6158 0.9988 0.8830
C3_2 C 0.6225(3) 0.9139(7) 0.9753(6)
C6_2 C 0.6735(5) 0.8725(11) 0.9610(9)
N2_2 N 0.9397(4) 0.9784(7) 0.9365(5)
C8_2 C 0.8920(3) 0.9351(7) 0.9366(5)
H4_2 H 0.8671 0.9355 0.8915
O15 O 0.1916(3) 0.1377(7) 0.3670(5)
C25_2 C 0.0080(3) 0.0277(8) 0.3335(6)
N5_2 N 0.0296(4) 0.0115(8) 0.2644(5)
C26_2 C 0.0791(4) 0.0443(8) 0.2560(5)
H13_2 H 0.0936 0.0335 0.2098
C27_2 C 0.1071(3) 0.0933(8) 0.3167(6)
C28_2 C 0.0855(4) 0.1095(7) 0.3858(6)
H14_2 H 0.1042 0.1422 0.4264
C29_2 C 0.0360(4) 0.0767(8) 0.3942(6)
H15_2 H 0.0215 0.0875 0.4404
C30_2 C 0.1606(4) 0.1243(9) 0.3055(8)
C67_2 C 0.0399(3) 0.4856(7) 0.1597(6)
N12_2 N 0.0632(4) 0.5062(6) 0.0930(6)
C68_2 C 0.1088(4) 0.4629(8) 0.0790(5)
H34_2 H 0.1244 0.4767 0.0344
C69_2 C 0.1310(3) 0.3990(7) 0.1316(6)
C70_2 C 0.1077(3) 0.3784(7) 0.1983(6)
H35_2 H 0.1226 0.3356 0.2335
C71_2 C 0.0622(3) 0.4217(8) 0.2123(5)
H36_2 H 0.0466 0.4079 0.2569
C72_2 C 0.1793(5) 0.3469(11) 0.1168(10)
O8_2 O 0.3312(3) 0.1762(7) 0.4104(5)
O12_2 O 0.2653(4) 0.0365(8) 0.4755(6)
O13_2 O 0.2500(3) 0.2841(7) 0.3329(6)
C19_2 C 0.4884(3) 0.0210(7) 0.3372(6)
N4_2 N 0.4810(3) 0.0721(7) 0.4025(5)
C20_2 C 0.4324(3) 0.1110(7) 0.4066(5)
H10_2 H 0.4274 0.1453 0.4502
C21_2 C 0.3912(3) 0.0989(7) 0.3454(6)
C22_2 C 0.3986(3) 0.0477(7) 0.2802(5)
H11_2 H 0.3710 0.0396 0.2393
C23_2 C 0.4472(4) 0.0088(7) 0.2761(5)
C24_2 C 0.3367(5) 0.1320(9) 0.3487(9)
N6_2 N 0.9368(4) 0.0062(6) 0.4070(6)
H39_2 H 0.266308 0.0109793 0.422071
H40_2 H 0.236107 0.00924312 0.499647
H41_2 H 0.279998 0.325959 0.337165
H42_2 H 0.21645 0.316987 0.320043
C13_2 C 0.5354(3) 0.9751(7) 0.3365(6)
N3_2 N 0.5710(3) 0.9706(7) 0.4057(5)
C14_2 C 0.6157(3) 0.9183(7) 0.4086(5)
H7_2 H 0.6395 0.9153 0.4549
C15_2 C 0.6248(3) 0.8703(6) 0.3423(6)
C16_2 C 0.5891(4) 0.8747(7) 0.2731(5)
H8_2 H 0.5952 0.8426 0.2287
C17_2 C 0.5445(3) 0.9271(8) 0.2702(5)
H9_2 H 0.5206 0.9301 0.2239
C18_2 C 0.6715(4) 0.8155(10) 0.3436(10)
H12_2 H 0.4521 0.9746 0.2325
C31_2 C 0.9601(3) 0.9856(7) 0.3403(6)
C32_2 C 0.8912(4) 0.9629(8) 0.4210(5)
H16_2 H 0.8756 0.9767 0.4656
C33_2 C 0.8690(3) 0.8990(7) 0.3684(6)
C34_2 C 0.8923(3) 0.8784(7) 0.3017(6)
H17_2 H 0.8774 0.8356 0.2665
C35_2 C 0.9378(3) 0.9217(8) 0.2877(5)
H18_2 H 0.9534 0.9079 0.2431
C36_2 C 0.8207(5) 0.8469(11) 0.3832(10)
O28_2 O 0.6688(3) 0.6762(7) 0.0896(5)
O38_2 O 0.7347(4) 0.5365(8) 0.0245(6)
O39_2 O 0.7500(3) 0.7841(7) 0.1671(6)
O43_2 O 0.8084(3) 0.6377(7) 0.1330(5)
C49_2 C 0.4646(3) 0.4751(7) 0.1635(6)
N9_2 N 0.4290(3) 0.4706(7) 0.0943(5)
C50_2 C 0.3843(3) 0.4183(7) 0.0914(5)
H25_2 H 0.3605 0.4153 0.0451
C51_2 C 0.3752(3) 0.3703(6) 0.1577(6)
C52_2 C 0.4109(4) 0.3747(7) 0.2269(5)
H26_2 H 0.4048 0.3426 0.2713
C53_2 C 0.4555(3) 0.4271(8) 0.2298(5)
H27_2 H 0.4794 0.4301 0.2761
C54_2 C 0.3285(4) 0.3155(10) 0.1564(10)
C55_2 C 0.5116(3) 0.5210(7) 0.1628(6)
N10_2 N 0.5190(3) 0.5721(7) 0.0975(5)
C56_2 C 0.5676(3) 0.6110(7) 0.0934(5)
H28_2 H 0.5726 0.6453 0.0498
C57_2 C 0.6088(3) 0.5989(7) 0.1546(6)
C58_2 C 0.6014(3) 0.5477(7) 0.2198(5)
H29_2 H 0.6290 0.5396 0.2607
C59_2 C 0.5528(4) 0.5088(7) 0.2239(5)
H30_2 H 0.5479 0.4746 0.2675
C60_2 C 0.6633(5) 0.6320(9) 0.1513(9)
C61_2 C 0.9920(3) 0.5277(8) 0.1665(6)
N11_2 N 0.9704(4) 0.5115(8) 0.2356(5)
C62_2 C 0.9209(4) 0.5443(8) 0.2440(5)
H31_2 H 0.9064 0.5335 0.2902
C63_2 C 0.8929(3) 0.5933(8) 0.1833(6)
C64_2 C 0.9145(4) 0.6095(7) 0.1142(6)
H32_2 H 0.8958 0.6422 0.0736
C65_2 C 0.9640(4) 0.5767(8) 0.1058(6)
H33_2 H 0.9785 0.5875 0.0596
C66_2 C 0.8394(4) 0.6243(9) 0.1945(8)
H45_2 H 0.720002 0.825959 0.162835
H46_2 H 0.78355 0.816987 0.179957
H47_2 H 0.733692 0.510979 0.0779291
H48_2 H 0.763893 0.509243 0.000353243
H37_2 H 0.200993 0.993723 0.168477
H43_2 H 0.745843 0.0126139 0.872876
loop_
_geom_bond_atom_site_label_1
_geom_bond_atom_site_label_2
_geom_bond_site_symmetry_1
_geom_bond_site_symmetry_2
Gd1 O1 1_555 1_555
O1 C12 1_555 1_555
O2 Gd1 1_555 1_555
O3 Gd1 1_555 1_555
O4 Gd1 1_555 1_555
O7 Gd1 1_555 1_555
O9 C18 1_555 1_555
O10 C6 1_555 1_555
O11 C12 1_555 1_555
O14 C36 1_555 1_555
C1 N1 1_555 1_555
N1 C2 1_555 1_555
C2 H1 1_555 1_555
C3 C2 1_555 1_555
C4 C3 1_555 1_555
H2 C4 1_555 1_555
C5 C1 1_555 1_555
H3 C5 1_555 1_555
C6 O4 1_555 1_555
C7 N2 1_555 1_555
N2 C8 1_555 1_555
C8 H4 1_555 1_555
C9 C8 1_555 1_555
C10 C9 1_555 1_555
H5 C10 1_555 1_555
C11 C7 1_555 1_555
H6 C11 1_555 1_555
C12 C9 1_555 1_555
C13 N3 1_555 1_555
N3 C14 1_555 1_555
C14 H7 1_555 1_555
C15 C14 1_555 1_555
C16 C15 1_555 1_555
H8 C16 1_555 1_555
C17 C13 1_555 1_555
H9 C17 1_555 1_555
C18 O2 1_555 1_555
H16 C32 1_555 1_555
C33 C32 1_555 1_555
C34 C33 1_555 1_555
H17 C34 1_555 1_555
C35 C31 1_555 1_555
H18 C35 1_555 1_555
C36 O3 1_555 1_555
Gd6 O21 1_555 1_555
Gd7 O17 1_555 1_555
Gd9 O28 1_555 1_555
Gd10 O9 1_555 1_555
Gd13 O32 1_555 1_555
O17 C54 1_555 1_555
O21 C42 1_555 1_555
O23 Gd1 1_555 1_555
O25 Gd1 1_555 1_555
O28 C60 1_555 1_555
O29 C54 1_555 1_555
O32 C42 1_555 1_555
O34 Gd9 1_555 1_555
O37 Gd9 1_555 1_555
O38 Gd9 1_555 1_555
O39 Gd9 1_555 1_555
O43 Gd9 1_555 1_555
C37 C1 1_555 1_555
N7 C37 1_555 1_555
C38 N7 1_555 1_555
H19 C38 1_555 1_555
C39 C38 1_555 1_555
C40 C39 1_555 1_555
H20 C40 1_555 1_555
C41 C37 1_555 1_555
H21 C41 1_555 1_555
C42 C39 1_555 1_555
C49 N9 1_555 1_555
N9 C50 1_555 1_555
C50 H25 1_555 1_555
C51 C50 1_555 1_555
C52 C51 1_555 1_555
H26 C52 1_555 1_555
C53 C49 1_555 1_555
H27 C53 1_555 1_555
C54 C51 1_555 1_555
C55 C49 1_555 1_555
N10 C55 1_555 1_555
C56 N10 1_555 1_555
H28 C56 1_555 1_555
C57 C56 1_555 1_555
C58 C57 1_555 1_555
H29 C58 1_555 1_555
C59 C55 1_555 1_555
H30 C59 1_555 1_555
C60 O23 1_555 1_555
C61 N11 1_555 1_555
N11 C62 1_555 1_555
C62 H31 1_555 1_555
C63 C62 1_555 1_555
C64 C63 1_555 1_555
H32 C64 1_555 1_555
C65 C61 1_555 1_555
H33 C65 1_555 1_555
C66 O25 1_555 1_555
O10 Gd10 1_555 1_555
O11 Gd10 1_555 1_555
O14 Gd10 1_555 1_555
C3 C6 1_555 1_555
C4 C5 1_555 1_555
C10 C11 1_555 1_555
C15 C18 1_555 1_555
C16 C17 1_555 1_555
C33 C36 1_555 1_555
C34 C35 1_555 1_555
O43 C66 1_555 1_555
C40 C41 1_555 1_555
C52 C53 1_555 1_555
C57 C60 1_555 1_555
C58 C59 1_555 1_555
C63 C66 1_555 1_555
C64 C65 1_555 1_555
O39 H45 1_555 1_555
O39 H46 1_555 1_555
O38 H47 1_555 1_555
O38 H48 1_555 1_555
Gd13 O8 1_555 1_555
O5 C24 1_555 1_555
O8 C24 1_555 1_555
O12 Gd13 1_555 1_555
O13 Gd13 1_555 1_555
N4 C19 1_555 1_555
C20 N4 1_555 1_555
H10 C20 1_555 1_555
C21 C20 1_555 1_555
C22 C21 1_555 1_555
H11 C22 1_555 1_555
C23 C19 1_555 1_555
C24 C21 1_555 1_555
Gd7 O5 1_555 1_555
O30 Gd13 1_555 1_555
O36 Gd13 1_555 1_555
O41 Gd13 1_555 1_555
O44 Gd13 1_555 1_555
C22 C23 1_555 1_555
O12 H39 1_555 1_555
O12 H40 1_555 1_555
O13 H41 1_555 1_555
O13 H42 1_555 1_555
Gd6 O16 1_555 1_555
Gd7 O19 1_555 1_555
O16 C48 1_555 1_555
O18 Gd6 1_555 1_555
O19 C72 1_555 1_555
O20 Gd6 1_555 1_555
O24 Gd6 1_555 1_555
O26 Gd6 1_555 1_555
O27 Gd6 1_555 1_555
O36 C48 1_555 1_555
O40 C72 1_555 1_555
N8 C43 1_555 1_555
C44 N8 1_555 1_555
H22 C44 1_555 1_555
C45 C44 1_555 1_555
C46 C45 1_555 1_555
H23 C46 1_555 1_555
C47 C43 1_555 1_555
H24 C47 1_555 1_555
C48 C45 1_555 1_555
N12 C67 1_555 1_555
C68 N12 1_555 1_555
H34 C68 1_555 1_555
C69 C68 1_555 1_555
C70 C69 1_555 1_555
H35 C70 1_555 1_555
C71 C67 1_555 1_555
H36 C71 1_555 1_555
C72 C69 1_555 1_555
C46 C47 1_555 1_555
C70 C71 1_555 1_555
O6 C30 1_555 1_555
O44 C30 1_555 1_555
C25 N5 1_555 1_555
N5 C26 1_555 1_555
C26 H13 1_555 1_555
C27 C26 1_555 1_555
C28 C27 1_555 1_555
H14 C28 1_555 1_555
C29 C25 1_555 1_555
H15 C29 1_555 1_555
C30 C27 1_555 1_555
Gd7 O6 1_555 1_555
C28 C29 1_555 1_555
Gd3 O16_2 1_555 1_555
O18_2 Gd3 1_555 1_555
O20_2 Gd3 1_555 1_555
O22 Gd3 1_555 1_555
O24_2 Gd3 1_555 1_555
O26_2 Gd3 1_555 1_555
O27_2 Gd3 1_555 1_555
C44_2 N8_2 1_555 1_555
H22_2 C44_2 1_555 1_555
O37 C48_2 1_555 1_555
C46_2 C45_2 1_555 1_555
H23_2 C46_2 1_555 1_555
C47_2 C43_2 1_555 1_555
H24_2 C47_2 1_555 1_555
C48_2 C45_2 1_555 1_555
C46_2 C47_2 1_555 1_555
O22 C42_2 1_555 1_555
H19_2 C38_2 1_555 1_555
C39_2 C38_2 1_555 1_555
C42_2 C39_2 1_555 1_555
H20_2 C40_2 1_555 1_555
H21_2 C41_2 1_555 1_555
C40_2 C41_2 1_555 1_555
O11_2 C12_2 1_555 1_555
H2_2 C4_2 1_555 1_555
H3_2 C5_2 1_555 1_555
C10_2 C9_2 1_555 1_555
H5_2 C10_2 1_555 1_555
C11_2 C7_2 1_555 1_555
H6_2 C11_2 1_555 1_555
C12_2 C9_2 1_555 1_555
O10_2 Gd14 1_555 1_555
O11_2 Gd14 1_555 1_555
C4_2 C5_2 1_555 1_555
C10_2 C11_2 1_555 1_555
Gd7 O1_2 1_555 1_555
O4_2 Gd7 1_555 1_555
O7_2 Gd7 1_555 1_555
C2_2 H1_2 1_555 1_555
C3_2 C2_2 1_555 1_555
C6_2 O4_2 1_555 1_555
N2_2 C8_2 1_555 1_555
C8_2 H4_2 1_555 1_555
C3_2 C6_2 1_555 1_555
O26_2 C30_2 1_555 1_555
O15 C30_2 1_555 1_555
C25_2 N5_2 1_555 1_555
N5_2 C26_2 1_555 1_555
C26_2 H13_2 1_555 1_555
C27_2 C26_2 1_555 1_555
C28_2 C27_2 1_555 1_555
H14_2 C28_2 1_555 1_555
C29_2 C25_2 1_555 1_555
H15_2 C29_2 1_555 1_555
C30_2 C27_2 1_555 1_555
Gd10 O15 1_555 1_555
C28_2 C29_2 1_555 1_555
O20_2 C72_2 1_555 1_555
O42 C72_2 1_555 1_555
N12_2 C67_2 1_555 1_555
C68_2 N12_2 1_555 1_555
H34_2 C68_2 1_555 1_555
C69_2 C68_2 1_555 1_555
C70_2 C69_2 1_555 1_555
H35_2 C70_2 1_555 1_555
C71_2 C67_2 1_555 1_555
H36_2 C71_2 1_555 1_555
C72_2 C69_2 1_555 1_555
C70_2 C71_2 1_555 1_555
Gd10 O8_2 1_555 1_555
O24_2 C24_2 1_555 1_555
O8_2 C24_2 1_555 1_555
O12_2 Gd10 1_555 1_555
O13_2 Gd10 1_555 1_555
N4_2 C19_2 1_555 1_555
C20_2 N4_2 1_555 1_555
H10_2 C20_2 1_555 1_555
C21_2 C20_2 1_555 1_555
C22_2 C21_2 1_555 1_555
H11_2 C22_2 1_555 1_555
C23_2 C19_2 1_555 1_555
C24_2 C21_2 1_555 1_555
C22_2 C23_2 1_555 1_555
O12_2 H39_2 1_555 1_555
O12_2 H40_2 1_555 1_555
O13_2 H41_2 1_555 1_555
O13_2 H42_2 1_555 1_555
O30 C18_2 1_555 1_555
O41 C36_2 1_555 1_555
C13_2 N3_2 1_555 1_555
N3_2 C14_2 1_555 1_555
C14_2 H7_2 1_555 1_555
C15_2 C14_2 1_555 1_555
C16_2 C15_2 1_555 1_555
H8_2 C16_2 1_555 1_555
C17_2 C13_2 1_555 1_555
H9_2 C17_2 1_555 1_555
C18_2 O18 1_555 1_555
H16_2 C32_2 1_555 1_555
C33_2 C32_2 1_555 1_555
C34_2 C33_2 1_555 1_555
H17_2 C34_2 1_555 1_555
C35_2 C31_2 1_555 1_555
H18_2 C35_2 1_555 1_555
C36_2 O20 1_555 1_555
Gd14 O28_2 1_555 1_555
O18_2 C54_2 1_555 1_555
O28_2 C60_2 1_555 1_555
O31 C54_2 1_555 1_555
O38_2 Gd14 1_555 1_555
O39_2 Gd14 1_555 1_555
O43_2 Gd14 1_555 1_555
C49_2 N9_2 1_555 1_555
N9_2 C50_2 1_555 1_555
C50_2 H25_2 1_555 1_555
C51_2 C50_2 1_555 1_555
C52_2 C51_2 1_555 1_555
H26_2 C52_2 1_555 1_555
C53_2 C49_2 1_555 1_555
H27_2 C53_2 1_555 1_555
C54_2 C51_2 1_555 1_555
C55_2 C49_2 1_555 1_555
N10_2 C55_2 1_555 1_555
C56_2 N10_2 1_555 1_555
H28_2 C56_2 1_555 1_555
C57_2 C56_2 1_555 1_555
C58_2 C57_2 1_555 1_555
H29_2 C58_2 1_555 1_555
C59_2 C55_2 1_555 1_555
H30_2 C59_2 1_555 1_555
C60_2 O24 1_555 1_555
C61_2 N11_2 1_555 1_555
N11_2 C62_2 1_555 1_555
C62_2 H31_2 1_555 1_555
C63_2 C62_2 1_555 1_555
C64_2 C63_2 1_555 1_555
H32_2 C64_2 1_555 1_555
C65_2 C61_2 1_555 1_555
H33_2 C65_2 1_555 1_555
C66_2 O26 1_555 1_555
C15_2 C18_2 1_555 1_555
C16_2 C17_2 1_555 1_555
C33_2 C36_2 1_555 1_555
C34_2 C35_2 1_555 1_555
O43_2 C66_2 1_555 1_555
C52_2 C53_2 1_555 1_555
C57_2 C60_2 1_555 1_555
C58_2 C59_2 1_555 1_555
C63_2 C66_2 1_555 1_555
C64_2 C65_2 1_555 1_555
O39_2 H45_2 1_555 1_555
O39_2 H46_2 1_555 1_555
O38_2 H47_2 1_555 1_555
O38_2 H48_2 1_555 1_555

#END
