
###############################################################################
#
# This file contains modified crystal structure data generated from the
# MOF subset of the Cambridge Structural Database (CSD) v543 
# hosted by the Cambridge Crystallographic Data Centre (CCDC).
#
# This work is licensed under the Creative Commons
# Attribution-NonCommercial-ShareAlike 4.0 International License.
# To view a copy of this license, visit
# http://creativecommons.org/licenses/by-nc-sa/4.0/
# or send a letter to
# Creative Commons, PO Box 1866, Mountain View, CA 94042, USA.
#
# CIF created using the CSD Python API on 29 September 2022
# The structure has been converted into the P1 space group
# The structure has a 3D framework
# The original CSD entry PEFSEA is in the orthorhombic crystal system
# The original CSD entry PEFSEA is in a Sohncke space group
# The framework has been calculated to contain at least 10.0% void space
# The void calculation uses a probe of radius 1.32A, grid spacing 0.4
#
###############################################################################

data_PEFSEA
_chemical_formula_moiety         '(C72 H88 Cu8 N24 O24)n'
_symmetry_cell_setting           triclinic
_symmetry_space_group_name_H-M   'P 1'
_symmetry_Int_Tables_number      1
_space_group_name_Hall           'P 1'
loop_
_symmetry_equiv_pos_site_id
_symmetry_equiv_pos_as_xyz
1 x,y,z
_cell_length_a                   10.764(4)
_cell_length_b                   26.969(9)
_cell_length_c                   9.724(3)
_cell_angle_alpha                90
_cell_angle_beta                 90
_cell_angle_gamma                90
_cell_volume                     2822.82
loop_
_atom_site_label
_atom_site_type_symbol
_atom_site_fract_x
_atom_site_fract_y
_atom_site_fract_z
Cu2 Cu 0.11481(6) 0.33226(2) 0.31354(8)
C2 C 0.0265(5) 0.23766(18) 0.3145(7)
N1 N 0.1038(5) 0.40089(15) 0.2478(5)
O1 O 0.0136(4) 0.30481(13) 0.1556(4)
O4 O 0.1799(4) 0.34607(14) 0.5025(4)
N3 N 0.0905(4) 0.26795(16) 0.3909(5)
O5 O 0.2153(4) 0.31211(18) 0.7062(5)
C3 C 0.0355(5) 0.47664(17) 0.1916(7)
C4 C 0.1195(6) 0.4607(2) 0.0941(8)
C5 C 0.1819(5) 0.3087(2) 0.5837(7)
C8 C 0.0285(6) 0.4365(2) 0.2823(7)
C9 C 0.1408(5) 0.2581(2) 0.5231(6)
H2 H 0.0759 0.2438 0.5817
N5 N 0.1581(5) 0.41578(17) 0.1320(6)
H3 H 0.2117 0.3985 0.0871
C10 C 0.0584(8) 0.0679(3) 0.1019(9)
H4 H 0.0406 0.0987 0.0568
H5 H 0.0456 0.0410 0.0387
H6 H 0.1432 0.0678 0.1326
C14 C 0.2515(6) 0.2226(2) 0.5183(8)
H14 H 0.2251 0.1912 0.4826
H15 H 0.2841 0.2183 0.6094
H16 H 0.3148 0.2362 0.4598
Cu4 Cu 0.39000(6) 0.333906(19) 0.81320(8)
O14 O 0.2966(4) 0.31409(18) 0.2063(5)
C29 C 0.0457(8) 0.5679(3) 0.4169(9)
H29 H 0.0314 0.5999 0.4571
H30 H 0.1327 0.5641 0.3978
H31 H 0.0195 0.5426 0.4798
H39 H 0.1327 0.0169 0.5488
C12 C 0.1640(8) 0.4848(3) 0.9670(9)
H10 H 0.2209 0.4631 0.9204
H11 H 0.2056 0.5152 0.9899
H12 H 0.0947 0.4918 0.9080
H20 H 0.0221 0.2838 0.9040
H22 H 0.0526 0.2281 0.8736
Cu3 Cu 0.11000(6) 0.833906(19) 0.18680(8)
C19 C 0.0120(5) 0.73970(18) 0.1796(6)
N9 N 0.1072(5) 0.90131(17) 0.2530(6)
O8 O 0.0018(4) 0.80780(13) 0.3412(4)
O9 O 0.1840(4) 0.84680(14) 0.0050(5)
N11 N 0.0699(4) 0.77203(17) 0.1034(5)
O12 O 0.2847(4) 0.81211(18) 0.2938(5)
N13 N 0.1657(5) 0.91699(17) 0.3716(6)
H35 H 0.2227 0.9006 0.4139
C31 C 0.0352(5) 0.97646(17) 0.3157(7)
C33 C 0.0253(6) 0.9381(2) 0.2217(7)
C34 C 0.1216(6) 0.9615(2) 0.4122(8)
C35 C 0.1716(9) 0.9852(3) 0.5362(9)
H40 H 0.2596 0.9896 0.5263
H41 H 0.1552 0.9646 0.6147
Cu9 Cu 0.38519(6) 0.83226(2) 0.68646(8)
O15 O 0.2034(4) 0.81409(18) 0.7937(5)
C24 C 0.1169(6) 0.7628(2) 0.9635(6)
H23 H 0.1809 0.7369 0.9656
C25 C 0.1732(6) 0.8117(2) 0.9161(7)
C36 C 0.0112(8) 0.7471(3) 0.8718(7)
H43 H 0.0409 0.7431 0.7794
Cu1 Cu 0.89000(6) 0.166094(19) 0.18680(8)
C1 C 0.9880(5) 0.26030(18) 0.1796(6)
N2 N 0.8928(5) 0.09869(17) 0.2530(6)
O2 O 0.9982(4) 0.19220(13) 0.3412(4)
O3 O 0.8160(4) 0.15320(14) 0.0050(5)
N4 N 0.9301(4) 0.22797(17) 0.1034(5)
C11 C 0.9543(8) 0.4321(3) 0.4169(9)
H7 H 0.9686 0.4001 0.4571
H8 H 0.8673 0.4359 0.3978
H9 H 0.9805 0.4574 0.4798
N6 N 0.8343(5) 0.08301(17) 0.3716(6)
H13 H 0.7773 0.0994 0.4139
C13 C 0.9648(5) 0.02354(17) 0.3157(7)
C15 C 0.9747(6) 0.0619(2) 0.2217(7)
C16 C 0.8784(6) 0.0385(2) 0.4122(8)
C17 C 0.8284(9) 0.0148(3) 0.5362(9)
H18 H 0.7404 0.0104 0.5263
H19 H 0.8448 0.0354 0.6147
Cu7 Cu 0.88519(6) 0.66774(2) 0.31354(8)
N7 N 0.8962(5) 0.59911(15) 0.2478(5)
O11 O 0.7153(4) 0.18789(18) 0.2938(5)
C21 C 0.9645(5) 0.52336(17) 0.1916(7)
C22 C 0.8805(6) 0.5393(2) 0.0941(8)
C26 C 0.9715(6) 0.5635(2) 0.2823(7)
N12 N 0.8419(5) 0.58422(17) 0.1320(6)
H25 H 0.7883 0.6015 0.0871
O6 O 0.7966(4) 0.18591(18) 0.7937(5)
C6 C 0.8831(6) 0.2372(2) 0.9635(6)
H1 H 0.8191 0.2631 0.9656
C7 C 0.8268(6) 0.1883(2) 0.9161(7)
C18 C 0.9888(8) 0.2529(3) 0.8718(7)
H21 H 0.9591 0.2569 0.7794
Cu6 Cu 0.61481(6) 0.16774(2) 0.68646(8)
C30 C 0.8360(8) 0.5152(3) 0.9670(9)
H32 H 0.7791 0.5369 0.9204
H33 H 0.7944 0.4848 0.9899
H34 H 0.9053 0.5082 0.9080
H17 H 0.8673 0.9831 0.5488
Cu5 Cu 0.61000(6) 0.666094(19) 0.81320(8)
C20 C 0.9735(5) 0.76234(18) 0.3145(7)
O7 O 0.9864(4) 0.69519(13) 0.1556(4)
O10 O 0.8201(4) 0.65393(14) 0.5025(4)
N10 N 0.9095(4) 0.73205(16) 0.3909(5)
O13 O 0.7847(4) 0.68789(18) 0.7062(5)
O16 O 0.7034(4) 0.68591(18) 0.2063(5)
C23 C 0.8181(5) 0.6913(2) 0.5837(7)
C27 C 0.8592(5) 0.7419(2) 0.5231(6)
H24 H 0.9241 0.7562 0.5817
C28 C 0.9416(8) 0.9321(3) 0.1019(9)
H26 H 0.9594 0.9013 0.0568
H27 H 0.9544 0.9590 0.0387
H28 H 0.8568 0.9322 0.1326
C32 C 0.7485(6) 0.7774(2) 0.5183(8)
H36 H 0.7749 0.8088 0.4826
H37 H 0.7159 0.7817 0.6094
H38 H 0.6852 0.7638 0.4598
H42 H 0.9779 0.7162 0.9040
H44 H 0.9474 0.7719 0.8736
H11_2 H 0.2944 0.0152 0.0101
C30_2 C 0.6640(8) 0.0152(3) 0.0330(9)
H32_2 H 0.7209 0.0369 0.0796
H34_2 H 0.5947 0.0082 0.0920
N7_2 N 0.6038(5) 0.09911(15) 0.7522(5)
C21_2 C 0.5355(5) 0.02336(17) 0.8084(7)
C22_2 C 0.6195(6) 0.0393(2) 0.9059(8)
C26_2 C 0.5285(6) 0.0635(2) 0.7177(7)
N12_2 N 0.6581(5) 0.08422(17) 0.8680(6)
H25_2 H 0.7117 0.1015 0.9129
C29_2 C 0.4543(8) 0.0679(3) 0.5831(9)
H29_2 H 0.4686 0.0999 0.5429
H30_2 H 0.3673 0.0641 0.6022
H31_2 H 0.4805 0.0426 0.5202
C6_2 C 0.6169(6) 0.7372(2) 0.0365(6)
H1_2 H 0.6809 0.7631 0.0344
C7_2 C 0.6732(6) 0.6883(2) 0.0839(7)
C12_2 C 0.3360(8) 0.9848(3) 0.0330(9)
H10_2 H 0.2791 0.9631 0.0796
H12_2 H 0.4053 0.9918 0.0920
C18_2 C 0.5112(8) 0.7529(3) 0.1282(7)
H20_2 H 0.4779 0.7838 0.0960
H21_2 H 0.5409 0.7569 0.2206
H22_2 H 0.4474 0.7281 0.1264
C24_2 C 0.3831(6) 0.2628(2) 0.0365(6)
H23_2 H 0.3191 0.2369 0.0344
C25_2 C 0.3268(6) 0.3117(2) 0.0839(7)
H33_2 H 0.7056 0.9848 0.0101
C36_2 C 0.4888(8) 0.2471(3) 0.1282(7)
H42_2 H 0.5221 0.2162 0.0960
H43_2 H 0.4591 0.2431 0.2206
H44_2 H 0.5526 0.2719 0.1264
C1_2 C 0.5120(5) 0.76030(18) 0.8204(6)
C2_2 C 0.4735(5) 0.73766(18) 0.6855(7)
N1_2 N 0.3962(5) 0.90089(15) 0.7522(5)
N2_2 N 0.6072(5) 0.59869(17) 0.7470(6)
O1_2 O 0.4864(4) 0.80481(13) 0.8444(4)
O2_2 O 0.5018(4) 0.69220(13) 0.6588(4)
O3_2 O 0.6840(4) 0.65320(14) 0.9950(5)
O4_2 O 0.3201(4) 0.84607(14) 0.4975(4)
N3_2 N 0.4095(4) 0.76795(16) 0.6091(5)
N4_2 N 0.5699(4) 0.72797(17) 0.8966(5)
C3_2 C 0.4645(5) 0.97664(17) 0.8084(7)
C4_2 C 0.3805(6) 0.9607(2) 0.9059(8)
C5_2 C 0.3181(5) 0.8087(2) 0.4163(7)
C8_2 C 0.4715(6) 0.9365(2) 0.7177(7)
C9_2 C 0.3592(5) 0.7581(2) 0.4769(6)
H2_2 H 0.4241 0.7438 0.4183
N5_2 N 0.3419(5) 0.91578(17) 0.8680(6)
H3_2 H 0.2883 0.8985 0.9129
C10_2 C 0.4416(8) 0.5679(3) 0.8981(9)
H4_2 H 0.4594 0.5987 0.9432
H5_2 H 0.4544 0.5410 0.9613
H6_2 H 0.3568 0.5678 0.8674
C11_2 C 0.5457(8) 0.9321(3) 0.5831(9)
H7_2 H 0.5314 0.9001 0.5429
H8_2 H 0.6327 0.9359 0.6022
H9_2 H 0.5195 0.9574 0.5202
N6_2 N 0.6657(5) 0.58301(17) 0.6284(6)
H13_2 H 0.7227 0.5994 0.5861
C13_2 C 0.5352(5) 0.52354(17) 0.6843(7)
C14_2 C 0.2485(6) 0.7226(2) 0.4817(8)
H14_2 H 0.2749 0.6912 0.5174
H15_2 H 0.2159 0.7183 0.3906
H16_2 H 0.1852 0.7362 0.5402
C15_2 C 0.5253(6) 0.5619(2) 0.7783(7)
C16_2 C 0.6216(6) 0.5385(2) 0.5878(8)
C17_2 C 0.6716(9) 0.5148(3) 0.4638(9)
H17_2 H 0.6327 0.4831 0.4512
H18_2 H 0.7596 0.5104 0.4737
H19_2 H 0.6552 0.5354 0.3853
C19_2 C 0.4880(5) 0.23970(18) 0.8204(6)
C20_2 C 0.5265(5) 0.26234(18) 0.6855(7)
N9_2 N 0.3928(5) 0.40131(17) 0.7470(6)
O7_2 O 0.5136(4) 0.19519(13) 0.8444(4)
O8_2 O 0.4982(4) 0.30780(13) 0.6588(4)
O9_2 O 0.3160(4) 0.34680(14) 0.9950(5)
O10_2 O 0.6799(4) 0.15393(14) 0.4975(4)
N10_2 N 0.5905(4) 0.23205(16) 0.6091(5)
N11_2 N 0.4301(4) 0.27203(17) 0.8966(5)
C23_2 C 0.6819(5) 0.1913(2) 0.4163(7)
C27_2 C 0.6408(5) 0.2419(2) 0.4769(6)
H24_2 H 0.5759 0.2562 0.4183
C28_2 C 0.5584(8) 0.4321(3) 0.8981(9)
H26_2 H 0.5406 0.4013 0.9432
H27_2 H 0.5456 0.4590 0.9613
H28_2 H 0.6432 0.4322 0.8674
N13_2 N 0.3343(5) 0.41699(17) 0.6284(6)
H35_2 H 0.2773 0.4006 0.5861
C31_2 C 0.4648(5) 0.47646(17) 0.6843(7)
C32_2 C 0.7515(6) 0.2774(2) 0.4817(8)
H36_2 H 0.7251 0.3088 0.5174
H37_2 H 0.7841 0.2817 0.3906
H38_2 H 0.8148 0.2638 0.5402
C33_2 C 0.4747(6) 0.4381(2) 0.7783(7)
C34_2 C 0.3784(6) 0.4615(2) 0.5878(8)
C35_2 C 0.3284(9) 0.4852(3) 0.4638(9)
H39_2 H 0.3673 0.5169 0.4512
H40_2 H 0.2404 0.4896 0.4737
H41_2 H 0.3448 0.4646 0.3853
loop_
_geom_bond_atom_site_label_1
_geom_bond_atom_site_label_2
_geom_bond_site_symmetry_1
_geom_bond_site_symmetry_2
Cu2 N1 1_555 1_555
N1 C8 1_555 1_555
O1 Cu2 1_555 1_555
O4 Cu2 1_555 1_555
N3 Cu2 1_555 1_555
O5 C5 1_555 1_555
C3 C4 1_555 1_555
C4 N5 1_555 1_555
C5 O4 1_555 1_555
C8 C3 1_555 1_555
C9 N3 1_555 1_555
H2 C9 1_555 1_555
N5 N1 1_555 1_555
H3 N5 1_555 1_555
C10 H4 1_555 1_555
H5 C10 1_555 1_555
H6 C10 1_555 1_555
C14 C9 1_555 1_555
H14 C14 1_555 1_555
H15 C14 1_555 1_555
H16 C14 1_555 1_555
Cu4 O5 1_555 1_555
O14 Cu2 1_555 1_555
H29 C29 1_555 1_555
H30 C29 1_555 1_555
H31 C29 1_555 1_555
C2 N3 1_555 1_555
C5 C9 1_555 1_555
H10 C12 1_555 1_555
H11 C12 1_555 1_555
H12 C12 1_555 1_555
Cu3 N9 1_555 1_555
N9 N13 1_555 1_555
O8 Cu3 1_555 1_555
O9 Cu3 1_555 1_555
N11 Cu3 1_555 1_555
O12 Cu3 1_555 1_555
N13 H35 1_555 1_555
C33 N9 1_555 1_555
C34 N13 1_555 1_555
C35 C34 1_555 1_555
H40 C35 1_555 1_555
H41 C35 1_555 1_555
C19 N11 1_555 1_555
C31 C33 1_555 1_555
C31 C34 1_555 1_555
Cu9 O15 1_555 1_555
O15 C25 1_555 1_555
H23 C24 1_555 1_555
C36 C24 1_555 1_555
H43 C36 1_555 1_555
C24 C25 1_555 1_555
Cu1 N2 1_555 1_555
N2 N6 1_555 1_555
O2 Cu1 1_555 1_555
O3 Cu1 1_555 1_555
N4 Cu1 1_555 1_555
H7 C11 1_555 1_555
H8 C11 1_555 1_555
H9 C11 1_555 1_555
N6 H13 1_555 1_555
C13 C15 1_555 1_555
C15 N2 1_555 1_555
C16 N6 1_555 1_555
C17 C16 1_555 1_555
H18 C17 1_555 1_555
H19 C17 1_555 1_555
Cu7 N7 1_555 1_555
N7 C26 1_555 1_555
O11 Cu1 1_555 1_555
C22 C21 1_555 1_555
C26 C21 1_555 1_555
N12 N7 1_555 1_555
H25 N12 1_555 1_555
C1 N4 1_555 1_555
C13 C16 1_555 1_555
C22 N12 1_555 1_555
O6 C7 1_555 1_555
H1 C6 1_555 1_555
C18 C6 1_555 1_555
H21 C18 1_555 1_555
Cu6 O6 1_555 1_555
H32 C30 1_555 1_555
H33 C30 1_555 1_555
H34 C30 1_555 1_555
C6 C7 1_555 1_555
Cu5 O13 1_555 1_555
O7 Cu7 1_555 1_555
O10 Cu7 1_555 1_555
N10 Cu7 1_555 1_555
O13 C23 1_555 1_555
O16 Cu7 1_555 1_555
C23 O10 1_555 1_555
C27 N10 1_555 1_555
H24 C27 1_555 1_555
C28 H26 1_555 1_555
H27 C28 1_555 1_555
H28 C28 1_555 1_555
C32 C27 1_555 1_555
H36 C32 1_555 1_555
H37 C32 1_555 1_555
H38 C32 1_555 1_555
C20 N10 1_555 1_555
C23 C27 1_555 1_555
H32_2 C30_2 1_555 1_555
H34_2 C30_2 1_555 1_555
Cu6 N7_2 1_555 1_555
N7_2 C26_2 1_555 1_555
C22_2 C21_2 1_555 1_555
C26_2 C21_2 1_555 1_555
N12_2 N7_2 1_555 1_555
H25_2 N12_2 1_555 1_555
C29_2 C26_2 1_555 1_555
H29_2 C29_2 1_555 1_555
H30_2 C29_2 1_555 1_555
H31_2 C29_2 1_555 1_555
C22_2 N12_2 1_555 1_555
O16 C7_2 1_555 1_555
H1_2 C6_2 1_555 1_555
H10_2 C12_2 1_555 1_555
H12_2 C12_2 1_555 1_555
C18_2 C6_2 1_555 1_555
H20_2 C18_2 1_555 1_555
H21_2 C18_2 1_555 1_555
H22_2 C18_2 1_555 1_555
O14 C25_2 1_555 1_555
H23_2 C24_2 1_555 1_555
C36_2 C24_2 1_555 1_555
H42_2 C36_2 1_555 1_555
H43_2 C36_2 1_555 1_555
H44_2 C36_2 1_555 1_555
C6_2 C7_2 1_555 1_555
C24_2 C25_2 1_555 1_555
Cu5 N2_2 1_555 1_555
Cu9 N1_2 1_555 1_555
C1_2 C2_2 1_555 1_555
C2_2 O2_2 1_555 1_555
N1_2 C8_2 1_555 1_555
N2_2 N6_2 1_555 1_555
O1_2 Cu9 1_555 1_555
O2_2 Cu5 1_555 1_555
O3_2 Cu5 1_555 1_555
O4_2 Cu9 1_555 1_555
N3_2 Cu9 1_555 1_555
N4_2 Cu5 1_555 1_555
O12 C5_2 1_555 1_555
C3_2 C4_2 1_555 1_555
C4_2 N5_2 1_555 1_555
C5_2 O4_2 1_555 1_555
C8_2 C3_2 1_555 1_555
C9_2 N3_2 1_555 1_555
H2_2 C9_2 1_555 1_555
N5_2 N1_2 1_555 1_555
H3_2 N5_2 1_555 1_555
C10_2 H4_2 1_555 1_555
H5_2 C10_2 1_555 1_555
H6_2 C10_2 1_555 1_555
C11_2 C8_2 1_555 1_555
H7_2 C11_2 1_555 1_555
H8_2 C11_2 1_555 1_555
H9_2 C11_2 1_555 1_555
N6_2 H13_2 1_555 1_555
C13_2 C15_2 1_555 1_555
C14_2 C9_2 1_555 1_555
H14_2 C14_2 1_555 1_555
H15_2 C14_2 1_555 1_555
H16_2 C14_2 1_555 1_555
C15_2 N2_2 1_555 1_555
C16_2 N6_2 1_555 1_555
C17_2 C16_2 1_555 1_555
H17_2 C17_2 1_555 1_555
H18_2 C17_2 1_555 1_555
H19_2 C17_2 1_555 1_555
Cu4 N9_2 1_555 1_555
C19_2 C20_2 1_555 1_555
C20_2 O8_2 1_555 1_555
N9_2 N13_2 1_555 1_555
O7_2 Cu6 1_555 1_555
O8_2 Cu4 1_555 1_555
O9_2 Cu4 1_555 1_555
O10_2 Cu6 1_555 1_555
N10_2 Cu6 1_555 1_555
N11_2 Cu4 1_555 1_555
O11 C23_2 1_555 1_555
C23_2 O10_2 1_555 1_555
C27_2 N10_2 1_555 1_555
H24_2 C27_2 1_555 1_555
C28_2 H26_2 1_555 1_555
H27_2 C28_2 1_555 1_555
H28_2 C28_2 1_555 1_555
N13_2 H35_2 1_555 1_555
C31_2 C13_2 1_555 1_555
C32_2 C27_2 1_555 1_555
H36_2 C32_2 1_555 1_555
H37_2 C32_2 1_555 1_555
H38_2 C32_2 1_555 1_555
C33_2 N9_2 1_555 1_555
C34_2 N13_2 1_555 1_555
C35_2 C34_2 1_555 1_555
H39_2 C35_2 1_555 1_555
H40_2 C35_2 1_555 1_555
H41_2 C35_2 1_555 1_555
C1_2 O1_2 1_555 1_555
C1_2 N4_2 1_555 1_555
C2_2 N3_2 1_555 1_555
C5_2 C9_2 1_555 1_555
C10_2 C15_2 1_555 1_555
C13_2 C16_2 1_555 1_555
C19_2 O7_2 1_555 1_555
C19_2 N11_2 1_555 1_555
C20_2 N10_2 1_555 1_555
C23_2 C27_2 1_555 1_555
C28_2 C33_2 1_555 1_555
C31_2 C33_2 1_555 1_555
C31_2 C34_2 1_555 1_555

#END
