
###############################################################################
#
# This file contains modified crystal structure data generated from the
# MOF subset of the Cambridge Structural Database (CSD) v543 
# hosted by the Cambridge Crystallographic Data Centre (CCDC).
#
# This work is licensed under the Creative Commons
# Attribution-NonCommercial-ShareAlike 4.0 International License.
# To view a copy of this license, visit
# http://creativecommons.org/licenses/by-nc-sa/4.0/
# or send a letter to
# Creative Commons, PO Box 1866, Mountain View, CA 94042, USA.
#
# CIF created using the CSD Python API on 29 September 2022
# The structure has been converted into the P1 space group
# The structure has a 3D framework
# The original CSD entry PEGBEK03 is in the monoclinic crystal system
# The framework has been calculated to contain at least 10.0% void space
# The void calculation uses a probe of radius 1.32A, grid spacing 0.4
#
###############################################################################

data_PEGBEK03
_chemical_formula_moiety         '(C56 H64 N48 Zn8)n'
_symmetry_cell_setting           triclinic
_symmetry_space_group_name_H-M   'P 1'
_symmetry_Int_Tables_number      1
_space_group_name_Hall           'P 1'
loop_
_symmetry_equiv_pos_site_id
_symmetry_equiv_pos_as_xyz
1 x,y,z
_cell_length_a                   10.6852(2)
_cell_length_b                   12.3514(2)
_cell_length_c                   17.0862(3)
_cell_angle_alpha                90
_cell_angle_beta                 95.507(2)
_cell_angle_gamma                90
_cell_volume                     2244.58
loop_
_atom_site_label
_atom_site_type_symbol
_atom_site_fract_x
_atom_site_fract_y
_atom_site_fract_z
N2 N 0.0739(3) 0.8720(2) 0.56297(19)
N3 N 0.0583(2) 0.7915(2) 0.50696(16)
H9 H 0.0165 0.9954 0.6731
Zn4 Zn 0.20705(3) 0.74492(3) 0.45760(2)
Zn1 Zn 0.72717(3) 0.73548(3) 0.60122(2)
N1 N 0.8831(2) 0.7980(2) 0.56428(15)
N4 N 0.7446(2) 0.5897(2) 0.55047(15)
N5 N 0.8510(2) 0.4704(2) 0.48368(15)
N6 N 0.7757(2) 0.4154(2) 0.53277(15)
N7 N 0.5654(2) 0.7982(2) 0.55606(15)
N8 N 0.5681(2) 0.8583(2) 0.48759(14)
N9 N 0.3714(2) 0.8064(2) 0.50121(14)
N10 N 0.2308(2) 0.7845(2) 0.34550(15)
N11 N 0.3312(2) 0.8566(2) 0.24908(15)
N12 N 0.2406(2) 0.7835(2) 0.21797(15)
C1 C 0.0861(3) 0.6557(3) 0.26841(19)
H1 H 0.0652 0.6393 0.2126
H2 H 0.0107 0.6812 0.2912
H3 H 0.1177 0.5902 0.2960
C2 C 0.1849(3) 0.7418(2) 0.27678(18)
C3 C 0.3232(3) 0.8535(3) 0.32553(18)
C4 C 0.4046(3) 0.9208(3) 0.38335(19)
H4 H 0.4783 0.9467 0.3578
H5 H 0.3564 0.9850 0.3977
C5 C 0.4498(3) 0.8611(2) 0.45657(17)
C6 C 0.4477(3) 0.7679(3) 0.56197(19)
C7 C 0.4015(3) 0.7017(3) 0.6258(2)
H6 H 0.4731 0.6777 0.6618
H7 H 0.3563 0.6384 0.6030
H8 H 0.3447 0.7453 0.6547
C8 C 0.9437(4) 0.9479(4) 0.6613(3)
H10 H 0.9290 0.9061 0.7084
H11 H 0.8692 0.9917 0.6451
C9 C 0.9683(3) 0.8730(3) 0.5970(2)
C10 C 0.9438(3) 0.7501(2) 0.5093(2)
C11 C 0.8902(3) 0.6632(3) 0.45564(17)
H12 H 0.9583 0.6328 0.4269
H13 H 0.8270 0.6957 0.4164
C12 C 0.8297(3) 0.5731(3) 0.49635(17)
C13 C 0.7139(3) 0.4887(3) 0.57027(17)
C14 C 0.6196(3) 0.4628(3) 0.6271(2)
H14 H 0.6248 0.3858 0.6407
H15 H 0.5349 0.4795 0.6029
H16 H 0.6373 0.5064 0.6748
Zn3 Zn 0.22717(3) 0.76452(3) 0.10122(2)
Zn5 Zn 0.79295(3) 0.25508(3) 0.54240(2)
N14 N 0.2243(2) 0.5846(2) 0.46723(15)
N15 N 0.7406(2) 0.7165(2) 0.71797(15)
Zn2 Zn 0.29295(3) 0.24492(3) 0.04240(2)
N10_2 N 0.2692(2) 0.2845(2) 0.15450(15)
N11_2 N 0.1688(2) 0.3566(2) 0.25092(15)
N12_2 N 0.2594(2) 0.2835(2) 0.28203(15)
C1_2 C 0.4139(3) 0.1557(3) 0.23159(19)
H1_2 H 0.4348 0.1393 0.2874
H2_2 H 0.4893 0.1812 0.2088
H3_2 H 0.3823 0.0902 0.2040
C2_2 C 0.3151(3) 0.2418(2) 0.22322(18)
C3_2 C 0.1768(3) 0.3535(3) 0.17447(18)
C4_2 C 0.0954(3) 0.4208(3) 0.11665(19)
H4_2 H 0.0217 0.4467 0.1422
H5_2 H 0.1436 0.4850 0.1023
C5_2 C 0.0502(3) 0.3611(2) 0.04343(17)
Zn3_2 Zn 0.27283(3) 0.26452(3) 0.39878(2)
N14_2 N 0.2757(2) 0.0846(2) 0.03277(15)
N9_2 N 0.1286(2) 0.3064(2) 0.99879(14)
C6_2 C 0.0523(3) 0.2679(3) 0.93803(19)
C7_2 C 0.0985(3) 0.2017(3) 0.8742(2)
H6_2 H 0.0269 0.1777 0.8382
H7_2 H 0.1437 0.1384 0.8970
H8_2 H 0.1553 0.2453 0.8453
N13 N 0.4417(2) 0.2915(2) 0.99304(16)
N8_2 N 0.9319(2) 0.3583(2) 0.01241(14)
C11_2 C 0.6098(3) 0.1632(3) 0.04436(17)
H12_2 H 0.5417 0.1328 0.0731
H13_2 H 0.6730 0.1957 0.0836
C12_2 C 0.6703(3) 0.0731(3) 0.00365(17)
Zn1_2 Zn 0.77283(3) 0.23548(3) 0.89878(2)
N1_2 N 0.6169(2) 0.2980(2) 0.93572(15)
N2_2 N 0.4261(3) 0.3720(2) 0.93703(19)
N4_2 N 0.7554(2) 0.0897(2) 0.94953(15)
N7_2 N 0.9346(2) 0.2982(2) 0.94394(15)
C8_2 C 0.5563(4) 0.4479(4) 0.8387(3)
H9_2 H 0.4835 0.4954 0.8269
H10_2 H 0.5710 0.4061 0.7916
H11_2 H 0.6308 0.4917 0.8549
C9_2 C 0.5317(3) 0.3730(3) 0.9030(2)
C10_2 C 0.5562(3) 0.2501(2) 0.9907(2)
H16_2 H 0.8627 0.0064 0.8252
N15_2 N 0.7594(2) 0.2165(2) 0.78203(15)
N6_2 N 0.7243(2) 0.9154(2) 0.96723(15)
C13_2 C 0.7861(3) 0.9887(3) 0.92973(17)
C14_2 C 0.8804(3) 0.9628(3) 0.8729(2)
H14_2 H 0.8752 0.8858 0.8593
H15_2 H 0.9651 0.9795 0.8971
Zn5_2 Zn 0.70705(3) 0.75508(3) 0.95760(2)
N1_3 N 0.1169(2) 0.2020(2) 0.43572(15)
N4_3 N 0.2554(2) 0.4103(2) 0.44953(15)
N5_2 N 0.1490(2) 0.5296(2) 0.51632(15)
N7_3 N 0.4346(2) 0.2018(2) 0.44394(15)
N8_3 N 0.4319(2) 0.1417(2) 0.51241(14)
N9_3 N 0.6286(2) 0.1936(2) 0.49879(14)
N10_3 N 0.7692(2) 0.2155(2) 0.65450(15)
N11_3 N 0.6688(2) 0.1434(2) 0.75092(15)
C1_3 C 0.9139(3) 0.3443(3) 0.73159(19)
H1_3 H 0.9348 0.3607 0.7874
H2_3 H 0.9893 0.3188 0.7088
H3_3 H 0.8823 0.4098 0.7040
C2_3 C 0.8151(3) 0.2582(2) 0.72322(18)
C3_3 C 0.6768(3) 0.1465(3) 0.67447(18)
C4_3 C 0.5954(3) 0.0792(3) 0.61665(19)
H4_3 H 0.5217 0.0533 0.6422
H5_3 H 0.6436 0.0150 0.6023
C5_3 C 0.5502(3) 0.1389(2) 0.54343(17)
C6_3 C 0.5523(3) 0.2321(3) 0.43803(19)
C7_3 C 0.5985(3) 0.2983(3) 0.3742(2)
H6_3 H 0.5269 0.3223 0.3382
H7_3 H 0.6437 0.3616 0.3970
H8_3 H 0.6553 0.2547 0.3453
C8_3 C 0.0563(4) 0.0521(4) 0.3387(3)
H10_3 H 0.0710 0.0939 0.2916
H11_3 H 0.1308 0.0083 0.3549
C9_3 C 0.0317(3) 0.1270(3) 0.4030(2)
C10_3 C 0.0562(3) 0.2499(2) 0.4907(2)
C11_3 C 0.1098(3) 0.3368(3) 0.54436(17)
H12_3 H 0.0417 0.3672 0.5731
H13_3 H 0.1730 0.3043 0.5836
C12_3 C 0.1703(3) 0.4269(3) 0.50365(17)
C13_3 C 0.2861(3) 0.5113(3) 0.42973(17)
C14_3 C 0.3804(3) 0.5372(3) 0.3729(2)
H14_3 H 0.3752 0.6142 0.3593
H15_3 H 0.4651 0.5205 0.3971
H16_3 H 0.3627 0.4936 0.3252
N13_2 N 0.9417(2) 0.2085(2) 0.49304(16)
N2_3 N 0.9261(3) 0.1280(2) 0.43703(19)
H9_3 H 0.9835 0.0046 0.3269
C13_4 C 0.2139(3) 0.0113(3) 0.07027(17)
C14_4 C 0.1196(3) 0.0372(3) 0.1271(2)
H14_4 H 0.1248 0.1142 0.1407
H15_4 H 0.0349 0.0205 0.1029
N1_4 N 0.3831(2) 0.7020(2) 0.06428(15)
N2_4 N 0.5739(3) 0.6280(2) 0.06297(19)
N3_2 N 0.5583(2) 0.7085(2) 0.00696(16)
N4_4 N 0.2446(2) 0.9103(2) 0.05047(15)
N7_4 N 0.0654(2) 0.7018(2) 0.05606(15)
C8_4 C 0.4437(4) 0.5521(4) 0.1613(3)
H9_4 H 0.5165 0.5046 0.1731
H10_4 H 0.4290 0.5939 0.2084
H11_4 H 0.3692 0.5083 0.1451
C9_4 C 0.4683(3) 0.6270(3) 0.0970(2)
C10_4 C 0.4438(3) 0.7499(2) 0.0093(2)
H16_4 H 0.1373 0.9936 0.1748
N8_4 N 0.0681(2) 0.6417(2) 0.98759(14)
C11_4 C 0.3902(3) 0.8368(3) 0.95564(17)
H12_4 H 0.4583 0.8672 0.9269
H13_4 H 0.3270 0.8043 0.9164
C12_4 C 0.3297(3) 0.9269(3) 0.99635(17)
N9_4 N 0.8714(2) 0.6936(2) 0.00121(14)
C6_4 C 0.9477(3) 0.7321(3) 0.06197(19)
C7_4 C 0.9015(3) 0.7983(3) 0.1258(2)
H6_4 H 0.9731 0.8223 0.1618
H7_4 H 0.8563 0.8616 0.1030
H8_4 H 0.8447 0.7547 0.1547
N10_4 N 0.7308(2) 0.7155(2) 0.84550(15)
N11_4 N 0.8312(2) 0.6434(2) 0.74908(15)
C1_4 C 0.5861(3) 0.8443(3) 0.76841(19)
H1_4 H 0.5652 0.8607 0.7126
H2_4 H 0.5107 0.8188 0.7912
H3_4 H 0.6177 0.9098 0.7960
C2_4 C 0.6849(3) 0.7582(2) 0.77678(18)
C3_4 C 0.8232(3) 0.6465(3) 0.82553(18)
C4_4 C 0.9046(3) 0.5792(3) 0.88335(19)
H4_4 H 0.9783 0.5533 0.8578
H5_4 H 0.8564 0.5150 0.8977
C5_4 C 0.9498(3) 0.6389(2) 0.95657(17)
N5_3 N 0.6490(2) 0.9704(2) 0.01632(15)
N5_4 N 0.3510(2) 0.0296(2) 0.98368(15)
loop_
_geom_bond_atom_site_label_1
_geom_bond_atom_site_label_2
_geom_bond_site_symmetry_1
_geom_bond_site_symmetry_2
N2 N3 1_555 1_555
Zn4 N3 1_555 1_555
Zn1 N1 1_555 1_555
Zn4 N9 1_555 1_555
N1 C9 1_555 1_555
N4 Zn1 1_555 1_555
N5 N6 1_555 1_555
N6 C13 1_555 1_555
N7 Zn1 1_555 1_555
N8 N7 1_555 1_555
N9 C5 1_555 1_555
N10 Zn4 1_555 1_555
N11 N12 1_555 1_555
N12 C2 1_555 1_555
C1 H1 1_555 1_555
H2 C1 1_555 1_555
H3 C1 1_555 1_555
C2 N10 1_555 1_555
C3 N10 1_555 1_555
C4 C3 1_555 1_555
H4 C4 1_555 1_555
H5 C4 1_555 1_555
C5 N8 1_555 1_555
C6 N7 1_555 1_555
C7 C6 1_555 1_555
H6 C7 1_555 1_555
H7 C7 1_555 1_555
H8 C7 1_555 1_555
H10 C8 1_555 1_555
H11 C8 1_555 1_555
C10 N1 1_555 1_555
C11 C10 1_555 1_555
H12 C11 1_555 1_555
H13 C11 1_555 1_555
C12 N4 1_555 1_555
C13 N4 1_555 1_555
C14 C13 1_555 1_555
H14 C14 1_555 1_555
H15 C14 1_555 1_555
H16 C14 1_555 1_555
Zn3 N12 1_555 1_555
Zn5 N6 1_555 1_555
N14 Zn4 1_555 1_555
N15 Zn1 1_555 1_555
N5 C12 1_555 1_555
N9 C6 1_555 1_555
N11 C3 1_555 1_555
C1 C2 1_555 1_555
C4 C5 1_555 1_555
C8 C9 1_555 1_555
C11 C12 1_555 1_555
N10_2 Zn2 1_555 1_555
N11_2 N12_2 1_555 1_555
N12_2 C2_2 1_555 1_555
C1_2 H1_2 1_555 1_555
H2_2 C1_2 1_555 1_555
H3_2 C1_2 1_555 1_555
C2_2 N10_2 1_555 1_555
C3_2 N10_2 1_555 1_555
C4_2 C3_2 1_555 1_555
H4_2 C4_2 1_555 1_555
H5_2 C4_2 1_555 1_555
Zn3_2 N12_2 1_555 1_555
N14_2 Zn2 1_555 1_555
N11_2 C3_2 1_555 1_555
C1_2 C2_2 1_555 1_555
C4_2 C5_2 1_555 1_555
C7_2 C6_2 1_555 1_555
H6_2 C7_2 1_555 1_555
H7_2 C7_2 1_555 1_555
H8_2 C7_2 1_555 1_555
N9_2 C6_2 1_555 1_555
H12_2 C11_2 1_555 1_555
H13_2 C11_2 1_555 1_555
C11_2 C12_2 1_555 1_555
Zn1_2 N1_2 1_555 1_555
N1_2 C9_2 1_555 1_555
N2_2 N13 1_555 1_555
N13 C10_2 1_555 1_555
N4_2 Zn1_2 1_555 1_555
N7_2 Zn1_2 1_555 1_555
C8_2 H9_2 1_555 1_555
H10_2 C8_2 1_555 1_555
H11_2 C8_2 1_555 1_555
C9_2 N2_2 1_555 1_555
C10_2 N1_2 1_555 1_555
N15_2 Zn1_2 1_555 1_555
C8_2 C9_2 1_555 1_555
N6_2 C13_2 1_555 1_555
C14_2 C13_2 1_555 1_555
H14_2 C14_2 1_555 1_555
H15_2 C14_2 1_555 1_555
Zn5_2 N6_2 1_555 1_555
Zn3_2 N1_3 1_555 1_555
Zn5 N9_3 1_555 1_555
N1_3 C9_3 1_555 1_555
N4_3 Zn3_2 1_555 1_555
N5_2 N14 1_555 1_555
N14 C13_3 1_555 1_555
N7_3 Zn3_2 1_555 1_555
N8_3 N7_3 1_555 1_555
N9_3 C5_3 1_555 1_555
N10_3 Zn5 1_555 1_555
N11_3 N15_2 1_555 1_555
N15_2 C2_3 1_555 1_555
C1_3 H1_3 1_555 1_555
H2_3 C1_3 1_555 1_555
H3_3 C1_3 1_555 1_555
C2_3 N10_3 1_555 1_555
C3_3 N10_3 1_555 1_555
C4_3 C3_3 1_555 1_555
H4_3 C4_3 1_555 1_555
H5_3 C4_3 1_555 1_555
C5_3 N8_3 1_555 1_555
C6_3 N7_3 1_555 1_555
C7_3 C6_3 1_555 1_555
H6_3 C7_3 1_555 1_555
H7_3 C7_3 1_555 1_555
H8_3 C7_3 1_555 1_555
H10_3 C8_3 1_555 1_555
H11_3 C8_3 1_555 1_555
C10_3 N1_3 1_555 1_555
C11_3 C10_3 1_555 1_555
H12_3 C11_3 1_555 1_555
H13_3 C11_3 1_555 1_555
C12_3 N4_3 1_555 1_555
C13_3 N4_3 1_555 1_555
C14_3 C13_3 1_555 1_555
H14_3 C14_3 1_555 1_555
H15_3 C14_3 1_555 1_555
H16_3 C14_3 1_555 1_555
N13_2 Zn5 1_555 1_555
N5_2 C12_3 1_555 1_555
N9_3 C6_3 1_555 1_555
N11_3 C3_3 1_555 1_555
C1_3 C2_3 1_555 1_555
C4_3 C5_3 1_555 1_555
C8_3 C9_3 1_555 1_555
C11_3 C12_3 1_555 1_555
N2_3 N13_2 1_555 1_555
N14_2 C13_4 1_555 1_555
C14_4 C13_4 1_555 1_555
H14_4 C14_4 1_555 1_555
H15_4 C14_4 1_555 1_555
Zn3 N1_4 1_555 1_555
N1_4 C9_4 1_555 1_555
N2_4 N3_2 1_555 1_555
N3_2 C10_4 1_555 1_555
N4_4 Zn3 1_555 1_555
N7_4 Zn3 1_555 1_555
C8_4 H9_4 1_555 1_555
H10_4 C8_4 1_555 1_555
H11_4 C8_4 1_555 1_555
C9_4 N2_4 1_555 1_555
C10_4 N1_4 1_555 1_555
C8_4 C9_4 1_555 1_555
H12_4 C11_4 1_555 1_555
H13_4 C11_4 1_555 1_555
C11_4 C12_4 1_555 1_555
C7_4 C6_4 1_555 1_555
H6_4 C7_4 1_555 1_555
H7_4 C7_4 1_555 1_555
H8_4 C7_4 1_555 1_555
N9_4 C6_4 1_555 1_555
N10_4 Zn5_2 1_555 1_555
N11_4 N15 1_555 1_555
N15 C2_4 1_555 1_555
C1_4 H1_4 1_555 1_555
H2_4 C1_4 1_555 1_555
H3_4 C1_4 1_555 1_555
C2_4 N10_4 1_555 1_555
C3_4 N10_4 1_555 1_555
C4_4 C3_4 1_555 1_555
H4_4 C4_4 1_555 1_555
H5_4 C4_4 1_555 1_555
N11_4 C3_4 1_555 1_555
C1_4 C2_4 1_555 1_555
C4_4 C5_4 1_555 1_555

#END
