
###############################################################################
#
# This file contains modified crystal structure data generated from the
# MOF subset of the Cambridge Structural Database (CSD) v543 
# hosted by the Cambridge Crystallographic Data Centre (CCDC).
#
# This work is licensed under the Creative Commons
# Attribution-NonCommercial-ShareAlike 4.0 International License.
# To view a copy of this license, visit
# http://creativecommons.org/licenses/by-nc-sa/4.0/
# or send a letter to
# Creative Commons, PO Box 1866, Mountain View, CA 94042, USA.
#
# CIF created using the CSD Python API on 29 September 2022
# The structure has been converted into the P1 space group
# The structure has a 3D framework
# The original CSD entry PEGBEK02 is in the monoclinic crystal system
# The framework has been calculated to contain at least 10.0% void space
# The void calculation uses a probe of radius 1.32A, grid spacing 0.4
#
###############################################################################

data_PEGBEK02
_chemical_formula_moiety         '(C56 H64 N48 Zn8)n'
_symmetry_cell_setting           triclinic
_symmetry_space_group_name_H-M   'P 1'
_symmetry_Int_Tables_number      1
_space_group_name_Hall           'P 1'
loop_
_symmetry_equiv_pos_site_id
_symmetry_equiv_pos_as_xyz
1 x,y,z
_cell_length_a                   10.6650(10)
_cell_length_b                   12.4195(12)
_cell_length_c                   17.1416(16)
_cell_angle_alpha                90
_cell_angle_beta                 95.3800(10)
_cell_angle_gamma                90
_cell_volume                     2260.47
loop_
_atom_site_label
_atom_site_type_symbol
_atom_site_fract_x
_atom_site_fract_y
_atom_site_fract_z
N2 N 0.0738(2) 0.86995(19) 0.56159(15)
N3 N 0.05706(19) 0.78979(18) 0.50523(13)
H9 H 0.0167 0.9924 0.6706
Zn4 Zn 0.20638(3) 0.74342(2) 0.456263(16)
Zn1 Zn 0.72599(3) 0.73521(2) 0.601189(16)
N1 N 0.88270(19) 0.79724(18) 0.56407(13)
N4 N 0.74365(19) 0.58939(17) 0.55118(12)
N5 N 0.84991(19) 0.47050(16) 0.48483(12)
N6 N 0.77540(19) 0.41656(17) 0.53431(12)
N7 N 0.56464(18) 0.79746(17) 0.55542(11)
N8 N 0.56828(19) 0.85667(17) 0.48679(11)
N9 N 0.37043(18) 0.80533(17) 0.49945(11)
N10 N 0.23093(19) 0.78358(17) 0.34491(11)
N11 N 0.3310(2) 0.85483(19) 0.24870(12)
N12 N 0.2395(2) 0.78286(19) 0.21751(12)
C1 C 0.0850(3) 0.6562(2) 0.26823(16)
H1 H 0.0665 0.6382 0.2139
H2 H 0.0099 0.6820 0.2889
H3 H 0.1150 0.5933 0.2968
C2 C 0.1834(2) 0.74161(19) 0.27619(14)
C3 C 0.3231(2) 0.8518(2) 0.32444(14)
C4 C 0.4058(3) 0.9175(2) 0.38211(15)
H4 H 0.4786 0.9415 0.3570
H5 H 0.3596 0.9810 0.3957
C5 C 0.4505(2) 0.85891(19) 0.45596(13)
C6 C 0.4455(2) 0.76774(19) 0.56044(14)
C7 C 0.3988(3) 0.7020(3) 0.62424(16)
H6 H 0.4680 0.6837 0.6618
H7 H 0.3606 0.6373 0.6025
H8 H 0.3376 0.7425 0.6496
C8 C 0.9449(4) 0.9463(3) 0.6598(2)
H10 H 0.9311 0.9059 0.7060
H11 H 0.8718 0.9893 0.6446
C9 C 0.9679(3) 0.8712(2) 0.59530(18)
C10 C 0.9429(2) 0.74886(19) 0.50836(15)
C11 C 0.8876(2) 0.6624(2) 0.45582(14)
H12 H 0.9533 0.6326 0.4268
H13 H 0.8246 0.6941 0.4182
C12 C 0.8281(2) 0.5728(2) 0.49733(13)
C13 C 0.7137(2) 0.4892(2) 0.57171(14)
C14 C 0.6187(3) 0.4631(2) 0.62809(19)
H14 H 0.6185 0.3869 0.6374
H15 H 0.5366 0.4855 0.6063
H16 H 0.6403 0.5002 0.6766
Zn3 Zn 0.22599(3) 0.76479(2) 0.101189(16)
Zn5 Zn 0.79362(3) 0.25658(2) 0.543737(16)
N14 N 0.22460(19) 0.58344(17) 0.46569(12)
N15 N 0.7395(2) 0.71714(19) 0.71751(12)
Zn2 Zn 0.29362(3) 0.24342(2) 0.043737(16)
N9_2 N 0.12957(18) 0.30533(17) 0.00055(11)
N10_2 N 0.26907(19) 0.28358(17) 0.15509(11)
N11_2 N 0.1690(2) 0.35483(19) 0.25130(12)
N12_2 N 0.2605(2) 0.28286(19) 0.28249(12)
C1_2 C 0.4150(3) 0.1562(2) 0.23177(16)
H1_2 H 0.4335 0.1382 0.2861
H2_2 H 0.4901 0.1820 0.2111
H3_2 H 0.3850 0.0933 0.2032
C2_2 C 0.3166(2) 0.24161(19) 0.22381(14)
C3_2 C 0.1769(2) 0.3518(2) 0.17556(14)
C4_2 C 0.0942(3) 0.4175(2) 0.11789(15)
H4_2 H 0.0214 0.4415 0.1430
H5_2 H 0.1404 0.4810 0.1043
C5_2 C 0.0495(2) 0.35891(19) 0.04404(13)
Zn3_2 Zn 0.27401(3) 0.26479(2) 0.398811(16)
N14_2 N 0.27540(19) 0.08344(17) 0.03431(12)
C6_2 C 0.0545(2) 0.26774(19) 0.93956(14)
C7_2 C 0.1012(3) 0.2020(3) 0.87576(16)
H6_2 H 0.0320 0.1837 0.8382
H7_2 H 0.1394 0.1373 0.8975
H8_2 H 0.1624 0.2425 0.8504
N13 N 0.44294(19) 0.28979(18) 0.99477(13)
N8_2 N 0.93172(19) 0.35667(17) 0.01321(11)
C11_2 C 0.6124(2) 0.1624(2) 0.04418(14)
H12_2 H 0.5467 0.1326 0.0732
H13_2 H 0.6754 0.1941 0.0818
C12_2 C 0.6719(2) 0.0728(2) 0.00267(13)
Zn1_2 Zn 0.77401(3) 0.23521(2) 0.898811(16)
N1_2 N 0.61730(19) 0.29724(18) 0.93593(13)
N2_2 N 0.4262(2) 0.36995(19) 0.93841(15)
N4_2 N 0.75635(19) 0.08939(17) 0.94882(12)
N7_2 N 0.93536(18) 0.29746(17) 0.94458(11)
C8_2 C 0.5551(4) 0.4463(3) 0.8402(2)
H9_2 H 0.4833 0.4924 0.8294
H10_2 H 0.5689 0.4059 0.7940
H11_2 H 0.6282 0.4893 0.8554
C9_2 C 0.5321(3) 0.3712(2) 0.90470(18)
C10_2 C 0.5571(2) 0.24886(19) 0.99164(15)
H16_2 H 0.8597 0.0002 0.8234
N15_2 N 0.7605(2) 0.21714(19) 0.78249(12)
N6_2 N 0.72460(19) 0.91656(17) 0.96569(12)
C13_2 C 0.7863(2) 0.9892(2) 0.92829(14)
C14_2 C 0.8813(3) 0.9631(2) 0.87191(19)
H14_2 H 0.8815 0.8869 0.8626
H15_2 H 0.9634 0.9855 0.8937
Zn5_2 Zn 0.70638(3) 0.75658(2) 0.956263(16)
N1_3 N 0.11730(19) 0.20276(18) 0.43593(13)
N4_3 N 0.25635(19) 0.41061(17) 0.44882(12)
N5_2 N 0.15009(19) 0.52950(16) 0.51517(12)
N7_3 N 0.43536(18) 0.20254(17) 0.44458(11)
N8_3 N 0.43172(19) 0.14333(17) 0.51321(11)
N9_3 N 0.62957(18) 0.19467(17) 0.50055(11)
N10_3 N 0.76907(19) 0.21642(17) 0.65509(11)
N11_3 N 0.6690(2) 0.14517(19) 0.75130(12)
C1_3 C 0.9150(3) 0.3438(2) 0.73177(16)
H1_3 H 0.9335 0.3618 0.7861
H2_3 H 0.9901 0.3180 0.7111
H3_3 H 0.8850 0.4067 0.7032
C2_3 C 0.8166(2) 0.25839(19) 0.72381(14)
C3_3 C 0.6769(2) 0.1482(2) 0.67556(14)
C4_3 C 0.5942(3) 0.0825(2) 0.61789(15)
H4_3 H 0.5214 0.0585 0.6430
H5_3 H 0.6404 0.0190 0.6043
C5_3 C 0.5495(2) 0.14109(19) 0.54404(13)
C6_3 C 0.5545(2) 0.23226(19) 0.43956(14)
C7_3 C 0.6012(3) 0.2980(3) 0.37576(16)
H6_3 H 0.5320 0.3163 0.3382
H7_3 H 0.6394 0.3627 0.3975
H8_3 H 0.6624 0.2575 0.3504
C8_3 C 0.0551(4) 0.0537(3) 0.3402(2)
H10_3 H 0.0689 0.0941 0.2940
H11_3 H 0.1282 0.0107 0.3554
C9_3 C 0.0321(3) 0.1288(2) 0.40470(18)
C10_3 C 0.0571(2) 0.25114(19) 0.49164(15)
C11_3 C 0.1124(2) 0.3376(2) 0.54418(14)
H12_3 H 0.0467 0.3674 0.5732
H13_3 H 0.1754 0.3059 0.5818
C12_3 C 0.1719(2) 0.4272(2) 0.50267(13)
C13_3 C 0.2863(2) 0.5108(2) 0.42829(14)
C14_3 C 0.3813(3) 0.5369(2) 0.37191(19)
H14_3 H 0.3815 0.6131 0.3626
H15_3 H 0.4634 0.5145 0.3937
H16_3 H 0.3597 0.4998 0.3234
N13_2 N 0.94294(19) 0.21021(18) 0.49477(13)
N2_3 N 0.9262(2) 0.13005(19) 0.43841(15)
H9_3 H 0.9833 0.0076 0.3294
C13_4 C 0.2137(2) 0.0108(2) 0.07171(14)
C14_4 C 0.1187(3) 0.0369(2) 0.12809(19)
H14_4 H 0.1185 0.1131 0.1374
H15_4 H 0.0366 0.0145 0.1063
N1_4 N 0.38270(19) 0.70276(18) 0.06407(13)
N2_4 N 0.5738(2) 0.63005(19) 0.06159(15)
N3_2 N 0.55706(19) 0.71021(18) 0.00523(13)
N4_4 N 0.24365(19) 0.91061(17) 0.05118(12)
N7_4 N 0.06464(18) 0.70254(17) 0.05542(11)
C8_4 C 0.4449(4) 0.5537(3) 0.1598(2)
H9_4 H 0.5167 0.5076 0.1706
H10_4 H 0.4311 0.5941 0.2060
H11_4 H 0.3718 0.5107 0.1446
C9_4 C 0.4679(3) 0.6288(2) 0.09530(18)
C10_4 C 0.4429(2) 0.75114(19) 0.00836(15)
H16_4 H 0.1403 0.9998 0.1766
N8_4 N 0.06828(19) 0.64333(17) 0.98679(11)
C11_4 C 0.3876(2) 0.8376(2) 0.95582(14)
H12_4 H 0.4533 0.8674 0.9268
H13_4 H 0.3246 0.8059 0.9182
C12_4 C 0.3281(2) 0.9272(2) 0.99733(13)
C6_4 C 0.9455(2) 0.73226(19) 0.06044(14)
C7_4 C 0.8988(3) 0.7980(3) 0.12424(16)
H6_4 H 0.9680 0.8163 0.1618
H7_4 H 0.8606 0.8627 0.1025
H8_4 H 0.8376 0.7575 0.1496
N9_4 N 0.87043(18) 0.69467(17) 0.99945(11)
N10_4 N 0.73093(19) 0.71642(17) 0.84491(11)
N11_4 N 0.8310(2) 0.64517(19) 0.74870(12)
C1_4 C 0.5850(3) 0.8438(2) 0.76823(16)
H1_4 H 0.5665 0.8618 0.7139
H2_4 H 0.5099 0.8180 0.7889
H3_4 H 0.6150 0.9067 0.7968
C2_4 C 0.6834(2) 0.75839(19) 0.77619(14)
C3_4 C 0.8231(2) 0.6482(2) 0.82444(14)
C4_4 C 0.9058(3) 0.5825(2) 0.88211(15)
H4_4 H 0.9786 0.5585 0.8570
H5_4 H 0.8596 0.5190 0.8957
C5_4 C 0.9505(2) 0.64109(19) 0.95596(13)
N5_3 N 0.65009(19) 0.97050(16) 0.01517(12)
N5_4 N 0.34991(19) 0.02950(16) 0.98483(12)
loop_
_geom_bond_atom_site_label_1
_geom_bond_atom_site_label_2
_geom_bond_site_symmetry_1
_geom_bond_site_symmetry_2
N2 N3 1_555 1_555
Zn4 N3 1_555 1_555
Zn1 N1 1_555 1_555
Zn4 N9 1_555 1_555
N1 C9 1_555 1_555
N4 Zn1 1_555 1_555
N5 N6 1_555 1_555
N6 C13 1_555 1_555
N7 Zn1 1_555 1_555
N8 N7 1_555 1_555
N9 C5 1_555 1_555
N10 Zn4 1_555 1_555
N11 N12 1_555 1_555
N12 C2 1_555 1_555
C1 H1 1_555 1_555
H2 C1 1_555 1_555
H3 C1 1_555 1_555
C2 N10 1_555 1_555
C3 N10 1_555 1_555
C4 C3 1_555 1_555
H4 C4 1_555 1_555
H5 C4 1_555 1_555
C5 N8 1_555 1_555
C6 N7 1_555 1_555
C7 C6 1_555 1_555
H6 C7 1_555 1_555
H7 C7 1_555 1_555
H8 C7 1_555 1_555
H10 C8 1_555 1_555
H11 C8 1_555 1_555
C10 N1 1_555 1_555
C11 C10 1_555 1_555
H12 C11 1_555 1_555
H13 C11 1_555 1_555
C12 N4 1_555 1_555
C13 N4 1_555 1_555
C14 C13 1_555 1_555
H14 C14 1_555 1_555
H15 C14 1_555 1_555
H16 C14 1_555 1_555
Zn3 N12 1_555 1_555
Zn5 N6 1_555 1_555
N14 Zn4 1_555 1_555
N15 Zn1 1_555 1_555
N5 C12 1_555 1_555
N9 C6 1_555 1_555
N11 C3 1_555 1_555
C1 C2 1_555 1_555
C4 C5 1_555 1_555
C8 C9 1_555 1_555
C11 C12 1_555 1_555
Zn2 N9_2 1_555 1_555
N9_2 C5_2 1_555 1_555
N10_2 Zn2 1_555 1_555
N11_2 N12_2 1_555 1_555
N12_2 C2_2 1_555 1_555
C1_2 H1_2 1_555 1_555
H2_2 C1_2 1_555 1_555
H3_2 C1_2 1_555 1_555
C2_2 N10_2 1_555 1_555
C3_2 N10_2 1_555 1_555
C4_2 C3_2 1_555 1_555
H4_2 C4_2 1_555 1_555
H5_2 C4_2 1_555 1_555
Zn3_2 N12_2 1_555 1_555
N14_2 Zn2 1_555 1_555
N11_2 C3_2 1_555 1_555
C1_2 C2_2 1_555 1_555
C4_2 C5_2 1_555 1_555
C7_2 C6_2 1_555 1_555
H6_2 C7_2 1_555 1_555
H7_2 C7_2 1_555 1_555
H8_2 C7_2 1_555 1_555
H12_2 C11_2 1_555 1_555
H13_2 C11_2 1_555 1_555
C11_2 C12_2 1_555 1_555
Zn1_2 N1_2 1_555 1_555
N1_2 C9_2 1_555 1_555
N2_2 N13 1_555 1_555
N13 C10_2 1_555 1_555
N4_2 Zn1_2 1_555 1_555
N7_2 Zn1_2 1_555 1_555
C8_2 H9_2 1_555 1_555
H10_2 C8_2 1_555 1_555
H11_2 C8_2 1_555 1_555
C9_2 N2_2 1_555 1_555
C10_2 N1_2 1_555 1_555
N15_2 Zn1_2 1_555 1_555
C8_2 C9_2 1_555 1_555
N6_2 C13_2 1_555 1_555
C14_2 C13_2 1_555 1_555
H14_2 C14_2 1_555 1_555
H15_2 C14_2 1_555 1_555
Zn5_2 N6_2 1_555 1_555
Zn3_2 N1_3 1_555 1_555
Zn5 N9_3 1_555 1_555
N1_3 C9_3 1_555 1_555
N4_3 Zn3_2 1_555 1_555
N5_2 N14 1_555 1_555
N14 C13_3 1_555 1_555
N7_3 Zn3_2 1_555 1_555
N8_3 N7_3 1_555 1_555
N9_3 C5_3 1_555 1_555
N10_3 Zn5 1_555 1_555
N11_3 N15_2 1_555 1_555
N15_2 C2_3 1_555 1_555
C1_3 H1_3 1_555 1_555
H2_3 C1_3 1_555 1_555
H3_3 C1_3 1_555 1_555
C2_3 N10_3 1_555 1_555
C3_3 N10_3 1_555 1_555
C4_3 C3_3 1_555 1_555
H4_3 C4_3 1_555 1_555
H5_3 C4_3 1_555 1_555
C5_3 N8_3 1_555 1_555
C6_3 N7_3 1_555 1_555
C7_3 C6_3 1_555 1_555
H6_3 C7_3 1_555 1_555
H7_3 C7_3 1_555 1_555
H8_3 C7_3 1_555 1_555
H10_3 C8_3 1_555 1_555
H11_3 C8_3 1_555 1_555
C10_3 N1_3 1_555 1_555
C11_3 C10_3 1_555 1_555
H12_3 C11_3 1_555 1_555
H13_3 C11_3 1_555 1_555
C12_3 N4_3 1_555 1_555
C13_3 N4_3 1_555 1_555
C14_3 C13_3 1_555 1_555
H14_3 C14_3 1_555 1_555
H15_3 C14_3 1_555 1_555
H16_3 C14_3 1_555 1_555
N13_2 Zn5 1_555 1_555
N5_2 C12_3 1_555 1_555
N9_3 C6_3 1_555 1_555
N11_3 C3_3 1_555 1_555
C1_3 C2_3 1_555 1_555
C4_3 C5_3 1_555 1_555
C8_3 C9_3 1_555 1_555
C11_3 C12_3 1_555 1_555
N2_3 N13_2 1_555 1_555
N14_2 C13_4 1_555 1_555
C14_4 C13_4 1_555 1_555
H14_4 C14_4 1_555 1_555
H15_4 C14_4 1_555 1_555
Zn3 N1_4 1_555 1_555
N1_4 C9_4 1_555 1_555
N2_4 N3_2 1_555 1_555
N3_2 C10_4 1_555 1_555
N4_4 Zn3 1_555 1_555
N7_4 Zn3 1_555 1_555
C8_4 H9_4 1_555 1_555
H10_4 C8_4 1_555 1_555
H11_4 C8_4 1_555 1_555
C9_4 N2_4 1_555 1_555
C10_4 N1_4 1_555 1_555
C8_4 C9_4 1_555 1_555
H12_4 C11_4 1_555 1_555
H13_4 C11_4 1_555 1_555
C11_4 C12_4 1_555 1_555
C7_4 C6_4 1_555 1_555
H6_4 C7_4 1_555 1_555
H7_4 C7_4 1_555 1_555
H8_4 C7_4 1_555 1_555
Zn5_2 N9_4 1_555 1_555
N9_4 C5_4 1_555 1_555
N10_4 Zn5_2 1_555 1_555
N11_4 N15 1_555 1_555
N15 C2_4 1_555 1_555
C1_4 H1_4 1_555 1_555
H2_4 C1_4 1_555 1_555
H3_4 C1_4 1_555 1_555
C2_4 N10_4 1_555 1_555
C3_4 N10_4 1_555 1_555
C4_4 C3_4 1_555 1_555
H4_4 C4_4 1_555 1_555
H5_4 C4_4 1_555 1_555
N11_4 C3_4 1_555 1_555
C1_4 C2_4 1_555 1_555
C4_4 C5_4 1_555 1_555

#END
