
###############################################################################
#
# This file contains modified crystal structure data generated from the
# MOF subset of the Cambridge Structural Database (CSD) v543 
# hosted by the Cambridge Crystallographic Data Centre (CCDC).
#
# This work is licensed under the Creative Commons
# Attribution-NonCommercial-ShareAlike 4.0 International License.
# To view a copy of this license, visit
# http://creativecommons.org/licenses/by-nc-sa/4.0/
# or send a letter to
# Creative Commons, PO Box 1866, Mountain View, CA 94042, USA.
#
# CIF created using the CSD Python API on 29 September 2022
# The structure has been converted into the P1 space group
# The structure has a 3D framework
# The original CSD entry PEGBEK is in the monoclinic crystal system
# The framework has been calculated to contain at least 10.0% void space
# The void calculation uses a probe of radius 1.32A, grid spacing 0.4
#
###############################################################################

data_PEGBEK
_chemical_formula_moiety         '(C56 H64 N46 Zn8)n'
_symmetry_cell_setting           triclinic
_symmetry_space_group_name_H-M   'P 1'
_symmetry_Int_Tables_number      1
_space_group_name_Hall           'P 1'
loop_
_symmetry_equiv_pos_site_id
_symmetry_equiv_pos_as_xyz
1 x,y,z
_cell_length_a                   10.7032(11)
_cell_length_b                   12.3190(12)
_cell_length_c                   17.0785(17)
_cell_angle_alpha                90
_cell_angle_beta                 95.532(2)
_cell_angle_gamma                90
_cell_volume                     2241.36
loop_
_atom_site_label
_atom_site_type_symbol
_atom_site_fract_x
_atom_site_fract_y
_atom_site_fract_z
N7 N 0.06594(16) 0.70061(15) 0.05568(10)
Zn3 Zn 0.22783(2) 0.76333(2) 0.100870(15)
N2 N 0.07414(18) 0.87376(16) 0.56317(12)
N3 N 0.05855(17) 0.79322(15) 0.50642(11)
N8 N 0.06826(17) 0.64013(15) 0.98675(10)
H9 H 0.0200 0.9915 0.6771
Zn4 Zn 0.20751(2) 0.745620(19) 0.457560(15)
N9 N 0.87148(16) 0.69268(15) 0.00070(11)
C6 C 0.9482(2) 0.73066(17) 0.06148(13)
C7 C 0.9027(2) 0.7970(2) 0.12611(14)
H6 H 0.9744 0.8204 0.1621
H7 H 0.8578 0.8608 0.1037
H8 H 0.8459 0.7532 0.1550
N13 N 0.55855(17) 0.70678(15) 0.00642(11)
Zn1 Zn 0.72783(2) 0.73667(2) 0.600870(15)
Zn2 Zn 0.70751(2) 0.754380(19) 0.957560(15)
N1 N 0.88390(17) 0.79970(15) 0.56458(11)
N4 N 0.74593(16) 0.59035(14) 0.55006(10)
N5 N 0.85137(16) 0.46996(15) 0.48337(10)
N6 N 0.77579(17) 0.41566(15) 0.53224(11)
N10 N 0.73167(17) 0.71525(15) 0.84556(11)
N11 N 0.83139(17) 0.64328(15) 0.74863(11)
N12 N 0.74108(18) 0.71721(16) 0.71727(11)
C1 C 0.5867(2) 0.84501(19) 0.76825(13)
H1 H 0.5688 0.8640 0.7126
H2 H 0.5099 0.8185 0.7887
H3 H 0.6171 0.9094 0.7980
C2 C 0.6848(2) 0.75834(16) 0.77660(13)
C3 C 0.8229(2) 0.64592(17) 0.82471(13)
C4 C 0.9046(2) 0.57872(18) 0.88273(13)
H4 H 0.9780 0.5527 0.8570
H5 H 0.8566 0.5142 0.8971
C5 C 0.9507(2) 0.63823(17) 0.95648(13)
C8 C 0.9444(3) 0.9488(3) 0.66159(18)
H10 H 0.9221 0.9060 0.7066
H11 H 0.8750 0.9977 0.6443
C9 C 0.9687(2) 0.87472(19) 0.59615(14)
C10 C 0.9455(2) 0.75133(16) 0.50887(14)
C11 C 0.8910(2) 0.66376(17) 0.45510(12)
H12 H 0.9586 0.6331 0.4261
H13 H 0.8278 0.6965 0.4160
C12 C 0.83046(19) 0.57325(17) 0.49622(12)
C13 C 0.7144(2) 0.48927(18) 0.57023(13)
C14 C 0.6193(2) 0.46358(19) 0.62615(15)
H14 H 0.6169 0.3850 0.6347
H15 H 0.5364 0.4887 0.6040
H16 H 0.6421 0.5003 0.6764
Zn5 Zn 0.79249(2) 0.254380(19) 0.542440(15)
N14 N 0.72421(17) 0.91566(15) 0.96776(11)
N15 N 0.56594(16) 0.79939(15) 0.55568(10)
C11_2 C 0.6090(2) 0.16376(17) 0.04490(12)
H12_2 H 0.5414 0.1331 0.0739
H13_2 H 0.6722 0.1965 0.0840
C12_2 C 0.66954(19) 0.07325(17) 0.00378(12)
Zn4_2 Zn 0.29249(2) 0.245620(19) 0.042440(15)
Zn1_2 Zn 0.77217(2) 0.23667(2) 0.899130(15)
N1_2 N 0.61610(17) 0.29970(15) 0.93542(11)
N2_2 N 0.42586(18) 0.37376(16) 0.93683(12)
N3_2 N 0.44145(17) 0.29322(15) 0.99358(11)
N4_2 N 0.75407(16) 0.09035(14) 0.94994(10)
N7_2 N 0.43406(16) 0.20061(15) 0.44432(10)
N8_2 N 0.43174(17) 0.14013(15) 0.51325(10)
N9_2 N 0.62852(16) 0.19268(15) 0.49930(11)
N10_2 N 0.76833(17) 0.21525(15) 0.65444(11)
N11_2 N 0.66861(17) 0.14328(15) 0.75137(11)
N12_2 N 0.75892(18) 0.21721(16) 0.78273(11)
C1_2 C 0.9133(2) 0.34501(19) 0.73175(13)
H1_2 H 0.9312 0.3640 0.7874
H2_2 H 0.9901 0.3185 0.7113
H3_2 H 0.8829 0.4094 0.7020
C2_2 C 0.8152(2) 0.25834(16) 0.72340(13)
C3_2 C 0.6771(2) 0.14592(17) 0.67529(13)
C4_2 C 0.5954(2) 0.07872(18) 0.61727(13)
H4_2 H 0.5220 0.0527 0.6430
H5_2 H 0.6434 0.0142 0.6029
C5_2 C 0.5493(2) 0.13823(17) 0.54352(13)
C6_2 C 0.5518(2) 0.23066(17) 0.43852(13)
C7_2 C 0.5973(2) 0.2970(2) 0.37389(14)
H6_2 H 0.5256 0.3204 0.3379
H7_2 H 0.6422 0.3608 0.3963
H8_2 H 0.6541 0.2532 0.3450
C8_2 C 0.5556(3) 0.4488(3) 0.83841(18)
H9_2 H 0.4800 0.4915 0.8229
H10_2 H 0.5779 0.4060 0.7934
H11_2 H 0.6250 0.4977 0.8557
C9_2 C 0.5313(2) 0.37472(19) 0.90385(14)
C10_2 C 0.5545(2) 0.25133(16) 0.99113(14)
H16_2 H 0.8579 0.0003 0.8236
Zn3_2 Zn 0.27217(2) 0.26333(2) 0.399130(15)
N13_2 N 0.94145(17) 0.20678(15) 0.49358(11)
N15_2 N 0.93406(16) 0.29939(15) 0.94432(10)
C13_2 C 0.7856(2) 0.98927(18) 0.92977(13)
C14_2 C 0.8807(2) 0.96358(19) 0.87385(15)
H14_2 H 0.8831 0.8850 0.8653
H15_2 H 0.9636 0.9887 0.8960
N1_3 N 0.11610(17) 0.20030(15) 0.43542(11)
N4_3 N 0.25407(16) 0.40965(14) 0.44994(10)
N5_2 N 0.14863(16) 0.53004(15) 0.51663(10)
N6_2 N 0.22421(17) 0.58434(15) 0.46776(11)
N10_3 N 0.26833(17) 0.28475(15) 0.15444(11)
N11_3 N 0.16861(17) 0.35672(15) 0.25137(11)
N12_3 N 0.25892(18) 0.28279(16) 0.28273(11)
C1_3 C 0.4133(2) 0.15499(19) 0.23175(13)
H1_3 H 0.4312 0.1360 0.2874
H2_3 H 0.4901 0.1815 0.2113
H3_3 H 0.3829 0.0906 0.2020
C2_3 C 0.3152(2) 0.24166(16) 0.22340(13)
C3_3 C 0.1771(2) 0.35408(17) 0.17529(13)
C4_3 C 0.0954(2) 0.42128(18) 0.11727(13)
H4_3 H 0.0220 0.4473 0.1430
H5_3 H 0.1434 0.4858 0.1029
C5_3 C 0.0493(2) 0.36177(17) 0.04352(13)
C8_3 C 0.0556(3) 0.0512(3) 0.33841(18)
H10_3 H 0.0779 0.0940 0.2934
H11_3 H 0.1250 0.0023 0.3557
C9_3 C 0.0313(2) 0.12528(19) 0.40385(14)
C10_3 C 0.0545(2) 0.24867(16) 0.49113(14)
C11_3 C 0.1090(2) 0.33624(17) 0.54490(12)
H12_3 H 0.0414 0.3669 0.5739
H13_3 H 0.1722 0.3035 0.5840
C12_3 C 0.16954(19) 0.42675(17) 0.50378(12)
C13_3 C 0.2856(2) 0.51073(18) 0.42977(13)
C14_3 C 0.3807(2) 0.53642(19) 0.37385(15)
H14_3 H 0.3831 0.6150 0.3653
H15_3 H 0.4636 0.5113 0.3960
H16_3 H 0.3579 0.4997 0.3236
N14_2 N 0.27579(17) 0.08434(15) 0.03224(11)
N9_3 N 0.12852(16) 0.30732(15) 0.99930(11)
C6_3 C 0.0518(2) 0.26934(17) 0.93852(13)
C7_3 C 0.0973(2) 0.2030(2) 0.87389(14)
H6_3 H 0.0256 0.1796 0.8379
H7_3 H 0.1422 0.1392 0.8963
H8_3 H 0.1541 0.2468 0.8450
N2_3 N 0.92586(18) 0.12624(16) 0.43683(12)
N8_3 N 0.93174(17) 0.35987(15) 0.01325(10)
H9_3 H 0.9800 0.0085 0.3229
C13_4 C 0.2144(2) 0.01073(18) 0.07023(13)
C14_4 C 0.1193(2) 0.03642(19) 0.12615(15)
H14_4 H 0.1169 0.1150 0.1347
H15_4 H 0.0364 0.0113 0.1040
N1_4 N 0.38390(17) 0.70030(15) 0.06458(11)
N2_4 N 0.57414(18) 0.62624(16) 0.06317(12)
N4_4 N 0.24593(16) 0.90965(14) 0.05006(10)
N8_4 N 0.56826(17) 0.85987(15) 0.48675(10)
N9_4 N 0.37148(16) 0.80732(15) 0.50070(11)
N10_4 N 0.23167(17) 0.78475(15) 0.34556(11)
N11_4 N 0.33139(17) 0.85672(15) 0.24863(11)
N12_4 N 0.24108(18) 0.78279(16) 0.21727(11)
C1_4 C 0.0867(2) 0.65499(19) 0.26825(13)
H1_4 H 0.0688 0.6360 0.2126
H2_4 H 0.0099 0.6815 0.2887
H3_4 H 0.1171 0.5906 0.2980
C2_4 C 0.1848(2) 0.74166(16) 0.27660(13)
C3_4 C 0.3229(2) 0.85408(17) 0.32471(13)
C4_4 C 0.4046(2) 0.92128(18) 0.38273(13)
H4_4 H 0.4780 0.9473 0.3570
H5_4 H 0.3566 0.9858 0.3971
C5_4 C 0.4507(2) 0.86177(17) 0.45648(13)
C6_4 C 0.4482(2) 0.76934(17) 0.56148(13)
C7_4 C 0.4027(2) 0.7030(2) 0.62611(14)
H6_4 H 0.4744 0.6796 0.6621
H7_4 H 0.3578 0.6392 0.6037
H8_4 H 0.3459 0.7468 0.6550
C8_4 C 0.4444(3) 0.5512(3) 0.16159(18)
H9_4 H 0.5200 0.5085 0.1771
H10_4 H 0.4221 0.5940 0.2066
H11_4 H 0.3750 0.5023 0.1443
C9_4 C 0.4687(2) 0.62528(19) 0.09615(14)
C10_4 C 0.4455(2) 0.74867(16) 0.00887(14)
H16_4 H 0.1421 0.9997 0.1764
C11_4 C 0.3910(2) 0.83624(17) 0.95510(12)
H12_4 H 0.4586 0.8669 0.9261
H13_4 H 0.3278 0.8035 0.9160
C12_4 C 0.33046(19) 0.92675(17) 0.99622(12)
N5_3 N 0.64863(16) 0.96996(15) 0.01663(10)
N5_4 N 0.35137(16) 0.03004(15) 0.98337(10)
loop_
_geom_bond_atom_site_label_1
_geom_bond_atom_site_label_2
_geom_bond_site_symmetry_1
_geom_bond_site_symmetry_2
Zn3 N7 1_555 1_555
N2 N3 1_555 1_555
Zn4 N3 1_555 1_555
C7 C6 1_555 1_555
H6 C7 1_555 1_555
H7 C7 1_555 1_555
H8 C7 1_555 1_555
N9 C6 1_555 1_555
Zn1 N1 1_555 1_555
N1 C9 1_555 1_555
N4 Zn1 1_555 1_555
N5 N6 1_555 1_555
N6 C13 1_555 1_555
N10 Zn2 1_555 1_555
N11 N12 1_555 1_555
N12 Zn1 1_555 1_555
C1 H1 1_555 1_555
H2 C1 1_555 1_555
H3 C1 1_555 1_555
C2 N10 1_555 1_555
C3 N10 1_555 1_555
C4 C3 1_555 1_555
H4 C4 1_555 1_555
H5 C4 1_555 1_555
C5 C4 1_555 1_555
H10 C8 1_555 1_555
H11 C8 1_555 1_555
C10 N1 1_555 1_555
C11 C10 1_555 1_555
H12 C11 1_555 1_555
H13 C11 1_555 1_555
C12 N4 1_555 1_555
C13 N4 1_555 1_555
C14 C13 1_555 1_555
H14 C14 1_555 1_555
H15 C14 1_555 1_555
H16 C14 1_555 1_555
Zn5 N6 1_555 1_555
N14 Zn2 1_555 1_555
N15 Zn1 1_555 1_555
N5 C12 1_555 1_555
N11 C3 1_555 1_555
N12 C2 1_555 1_555
C1 C2 1_555 1_555
C8 C9 1_555 1_555
C11 C12 1_555 1_555
H12_2 C11_2 1_555 1_555
H13_2 C11_2 1_555 1_555
C11_2 C12_2 1_555 1_555
Zn1_2 N1_2 1_555 1_555
Zn5 N9_2 1_555 1_555
N1_2 C9_2 1_555 1_555
N2_2 N3_2 1_555 1_555
N3_2 C10_2 1_555 1_555
N4_2 Zn1_2 1_555 1_555
N7_2 N8_2 1_555 1_555
N8_2 C5_2 1_555 1_555
N9_2 C5_2 1_555 1_555
N10_2 Zn5 1_555 1_555
N11_2 N12_2 1_555 1_555
N12_2 Zn1_2 1_555 1_555
C1_2 H1_2 1_555 1_555
H2_2 C1_2 1_555 1_555
H3_2 C1_2 1_555 1_555
C2_2 N10_2 1_555 1_555
C3_2 N10_2 1_555 1_555
C4_2 C3_2 1_555 1_555
H4_2 C4_2 1_555 1_555
H5_2 C4_2 1_555 1_555
C5_2 C4_2 1_555 1_555
C6_2 N7_2 1_555 1_555
C7_2 C6_2 1_555 1_555
H6_2 C7_2 1_555 1_555
H7_2 C7_2 1_555 1_555
H8_2 C7_2 1_555 1_555
C8_2 H9_2 1_555 1_555
H10_2 C8_2 1_555 1_555
H11_2 C8_2 1_555 1_555
C9_2 N2_2 1_555 1_555
C10_2 N1_2 1_555 1_555
Zn3_2 N7_2 1_555 1_555
N13_2 Zn5 1_555 1_555
N15_2 Zn1_2 1_555 1_555
N9_2 C6_2 1_555 1_555
N11_2 C3_2 1_555 1_555
N12_2 C2_2 1_555 1_555
C1_2 C2_2 1_555 1_555
C8_2 C9_2 1_555 1_555
N14 C13_2 1_555 1_555
C14_2 C13_2 1_555 1_555
H14_2 C14_2 1_555 1_555
H15_2 C14_2 1_555 1_555
Zn3_2 N1_3 1_555 1_555
N1_3 C9_3 1_555 1_555
N4_3 Zn3_2 1_555 1_555
N5_2 N6_2 1_555 1_555
N6_2 C13_3 1_555 1_555
N10_3 Zn4_2 1_555 1_555
N11_3 N12_3 1_555 1_555
N12_3 Zn3_2 1_555 1_555
C1_3 H1_3 1_555 1_555
H2_3 C1_3 1_555 1_555
H3_3 C1_3 1_555 1_555
C2_3 N10_3 1_555 1_555
C3_3 N10_3 1_555 1_555
C4_3 C3_3 1_555 1_555
H4_3 C4_3 1_555 1_555
H5_3 C4_3 1_555 1_555
C5_3 C4_3 1_555 1_555
H10_3 C8_3 1_555 1_555
H11_3 C8_3 1_555 1_555
C10_3 N1_3 1_555 1_555
C11_3 C10_3 1_555 1_555
H12_3 C11_3 1_555 1_555
H13_3 C11_3 1_555 1_555
C12_3 N4_3 1_555 1_555
C13_3 N4_3 1_555 1_555
C14_3 C13_3 1_555 1_555
H14_3 C14_3 1_555 1_555
H15_3 C14_3 1_555 1_555
H16_3 C14_3 1_555 1_555
Zn4 N6_2 1_555 1_555
N14_2 Zn4_2 1_555 1_555
N5_2 C12_3 1_555 1_555
N11_3 C3_3 1_555 1_555
N12_3 C2_3 1_555 1_555
C1_3 C2_3 1_555 1_555
C8_3 C9_3 1_555 1_555
C11_3 C12_3 1_555 1_555
C7_3 C6_3 1_555 1_555
H6_3 C7_3 1_555 1_555
H7_3 C7_3 1_555 1_555
H8_3 C7_3 1_555 1_555
N9_3 C6_3 1_555 1_555
N2_3 N13_2 1_555 1_555
N14_2 C13_4 1_555 1_555
C14_4 C13_4 1_555 1_555
H14_4 C14_4 1_555 1_555
H15_4 C14_4 1_555 1_555
Zn3 N1_4 1_555 1_555
Zn4 N9_4 1_555 1_555
N1_4 C9_4 1_555 1_555
N2_4 N13 1_555 1_555
N13 C10_4 1_555 1_555
N4_4 Zn3 1_555 1_555
N15 N8_4 1_555 1_555
N8_4 C5_4 1_555 1_555
N9_4 C5_4 1_555 1_555
N10_4 Zn4 1_555 1_555
N11_4 N12_4 1_555 1_555
N12_4 Zn3 1_555 1_555
C1_4 H1_4 1_555 1_555
H2_4 C1_4 1_555 1_555
H3_4 C1_4 1_555 1_555
C2_4 N10_4 1_555 1_555
C3_4 N10_4 1_555 1_555
C4_4 C3_4 1_555 1_555
H4_4 C4_4 1_555 1_555
H5_4 C4_4 1_555 1_555
C5_4 C4_4 1_555 1_555
C6_4 N15 1_555 1_555
C7_4 C6_4 1_555 1_555
H6_4 C7_4 1_555 1_555
H7_4 C7_4 1_555 1_555
H8_4 C7_4 1_555 1_555
C8_4 H9_4 1_555 1_555
H10_4 C8_4 1_555 1_555
H11_4 C8_4 1_555 1_555
C9_4 N2_4 1_555 1_555
C10_4 N1_4 1_555 1_555
N9_4 C6_4 1_555 1_555
N11_4 C3_4 1_555 1_555
N12_4 C2_4 1_555 1_555
C1_4 C2_4 1_555 1_555
C8_4 C9_4 1_555 1_555
H12_4 C11_4 1_555 1_555
H13_4 C11_4 1_555 1_555
C11_4 C12_4 1_555 1_555

#END
