
###############################################################################
#
# This file contains modified crystal structure data generated from the
# MOF subset of the Cambridge Structural Database (CSD) v543 
# hosted by the Cambridge Crystallographic Data Centre (CCDC).
#
# This work is licensed under the Creative Commons
# Attribution-NonCommercial-ShareAlike 4.0 International License.
# To view a copy of this license, visit
# http://creativecommons.org/licenses/by-nc-sa/4.0/
# or send a letter to
# Creative Commons, PO Box 1866, Mountain View, CA 94042, USA.
#
# CIF created using the CSD Python API on 29 September 2022
# The structure has been converted into the P1 space group
# The structure has a 3D framework
# The original CSD entry PEGCAH is in the monoclinic crystal system
# The framework has been calculated to contain at least 10.0% void space
# The void calculation uses a probe of radius 1.32A, grid spacing 0.4
#
###############################################################################

data_PEGCAH
_chemical_formula_moiety         '(C56 H64 N48 Zn8)n'
_symmetry_cell_setting           triclinic
_symmetry_space_group_name_H-M   'P 1'
_symmetry_Int_Tables_number      1
_space_group_name_Hall           'P 1'
loop_
_symmetry_equiv_pos_site_id
_symmetry_equiv_pos_as_xyz
1 x,y,z
_cell_length_a                   10.8291(17)
_cell_length_b                   12.529(2)
_cell_length_c                   16.848(3)
_cell_angle_alpha                90
_cell_angle_beta                 94.993(3)
_cell_angle_gamma                90
_cell_volume                     2277.23
loop_
_atom_site_label
_atom_site_type_symbol
_atom_site_fract_x
_atom_site_fract_y
_atom_site_fract_z
N2 N 0.0632(3) 0.8739(3) 0.5573(3)
N3 N 0.0549(3) 0.7904(3) 0.5029(2)
H9 H 0.0005 0.9718 0.6830
Zn4 Zn 0.20579(4) 0.74327(3) 0.45673(3)
Zn1 Zn 0.72460(4) 0.73215(4) 0.59558(3)
N1 N 0.8783(3) 0.7954(3) 0.5584(2)
N4 N 0.7484(3) 0.5872(3) 0.54786(19)
N5 N 0.8563(3) 0.4678(3) 0.4827(2)
N6 N 0.7809(3) 0.4150(3) 0.5328(2)
N7 N 0.5645(3) 0.7922(3) 0.5506(2)
N8 N 0.5634(3) 0.8553(3) 0.4825(2)
N9 N 0.3711(3) 0.7999(3) 0.4984(2)
N10 N 0.2288(3) 0.7843(3) 0.3435(2)
N11 N 0.3266(3) 0.8575(3) 0.2456(2)
N12 N 0.2383(3) 0.7852(3) 0.2141(2)
C1 C 0.0858(4) 0.6588(3) 0.2645(3)
H1 H 0.0649 0.6440 0.2078
H2 H 0.0116 0.6833 0.2885
H3 H 0.1171 0.5936 0.2914
C2 C 0.1833(4) 0.7435(3) 0.2735(3)
C3 C 0.3185(4) 0.8535(3) 0.3225(2)
C4 C 0.3981(4) 0.9191(3) 0.3818(3)
H4 H 0.4688 0.9483 0.3552
H5 H 0.3488 0.9802 0.3989
C5 C 0.4470(4) 0.8575(3) 0.4539(2)
C6 C 0.4483(4) 0.7609(3) 0.5578(3)
C7 C 0.4073(4) 0.6926(4) 0.6228(3)
H6 H 0.4798 0.6700 0.6576
H7 H 0.3643 0.6295 0.5997
H8 H 0.3510 0.7332 0.6538
C8 C 0.9249(6) 0.9509(5) 0.6504(5)
H10 H 0.8669 0.9175 0.6845
C9 C 0.9566(4) 0.8740(4) 0.5885(3)
C10 C 0.9441(4) 0.7461(3) 0.5054(3)
C11 C 0.8945(4) 0.6574(3) 0.4520(2)
H12 H 0.8333 0.6873 0.4108
H13 H 0.9635 0.6269 0.4244
C12 C 0.8341(3) 0.5695(3) 0.4949(2)
C13 C 0.7180(4) 0.4875(3) 0.5697(2)
C14 C 0.6243(4) 0.4624(4) 0.6266(3)
H14 H 0.6307 0.3869 0.6416
H15 H 0.5410 0.4769 0.6013
H16 H 0.6394 0.5069 0.6743
Zn3 Zn 0.22460(4) 0.76785(4) 0.09558(3)
Zn5 Zn 0.79421(4) 0.25673(3) 0.54327(3)
N14 N 0.2191(3) 0.5850(3) 0.4672(2)
N15 N 0.7383(3) 0.7148(3) 0.7141(2)
Zn2 Zn 0.29421(4) 0.24327(3) 0.04327(3)
N9_2 N 0.1289(3) 0.2999(3) 0.0016(2)
N10_2 N 0.2712(3) 0.2843(3) 0.1565(2)
N11_2 N 0.1734(3) 0.3575(3) 0.2544(2)
N12_2 N 0.2617(3) 0.2852(3) 0.2859(2)
C1_2 C 0.4142(4) 0.1588(3) 0.2355(3)
H1_2 H 0.4351 0.1440 0.2922
H2_2 H 0.4884 0.1833 0.2115
H3_2 H 0.3829 0.0936 0.2086
C2_2 C 0.3167(4) 0.2435(3) 0.2265(3)
C3_2 C 0.1815(4) 0.3535(3) 0.1775(2)
C4_2 C 0.1019(4) 0.4191(3) 0.1182(3)
H4_2 H 0.0312 0.4483 0.1448
H5_2 H 0.1512 0.4802 0.1011
C5_2 C 0.0530(4) 0.3575(3) 0.0461(2)
Zn3_2 Zn 0.27540(4) 0.26785(4) 0.40442(3)
N14_2 N 0.2809(3) 0.0850(3) 0.0328(2)
C6_2 C 0.0517(4) 0.2609(3) 0.9422(3)
C7_2 C 0.0927(4) 0.1926(4) 0.8772(3)
H6_2 H 0.0202 0.1700 0.8424
H7_2 H 0.1357 0.1295 0.9003
H8_2 H 0.1490 0.2332 0.8462
N13 N 0.4451(3) 0.2904(3) 0.9971(2)
N8_2 N 0.9366(3) 0.3553(3) 0.0175(2)
C11_2 C 0.6055(4) 0.1574(3) 0.0480(2)
H12_2 H 0.6667 0.1873 0.0892
H13_2 H 0.5365 0.1269 0.0756
C12_2 C 0.6659(3) 0.0695(3) 0.0051(2)
Zn1_2 Zn 0.77540(4) 0.23215(4) 0.90442(3)
N1_2 N 0.6217(3) 0.2954(3) 0.9416(2)
N2_2 N 0.4368(3) 0.3739(3) 0.9427(3)
N4_2 N 0.7516(3) 0.0872(3) 0.95214(19)
N7_2 N 0.9355(3) 0.2922(3) 0.9494(2)
C8_2 C 0.5751(6) 0.4509(5) 0.8496(5)
H9_2 H 0.4995 0.4718 0.8170
H10_2 H 0.6331 0.4175 0.8155
H11 H 0.6137 0.5143 0.8752
C9_2 C 0.5434(4) 0.3740(4) 0.9115(3)
C10_2 C 0.5559(4) 0.2461(3) 0.9946(3)
H16_2 H 0.8606 0.0069 0.8257
N15_2 N 0.7617(3) 0.2148(3) 0.7859(2)
N6_2 N 0.7191(3) 0.9150(3) 0.9672(2)
C13_2 C 0.7820(4) 0.9875(3) 0.9303(2)
C14_2 C 0.8757(4) 0.9624(4) 0.8734(3)
H14_2 H 0.8693 0.8869 0.8584
H15_2 H 0.9590 0.9769 0.8987
Zn5_2 Zn 0.70579(4) 0.75673(3) 0.95673(3)
N1_3 N 0.1217(3) 0.2046(3) 0.4416(2)
N4_3 N 0.2516(3) 0.4128(3) 0.45214(19)
N5_2 N 0.1437(3) 0.5322(3) 0.5173(2)
N7_3 N 0.4355(3) 0.2078(3) 0.4494(2)
N8_3 N 0.4366(3) 0.1447(3) 0.5175(2)
N9_3 N 0.6289(3) 0.2001(3) 0.5016(2)
N10_3 N 0.7712(3) 0.2157(3) 0.6565(2)
N11_3 N 0.6734(3) 0.1425(3) 0.7544(2)
C1_3 C 0.9142(4) 0.3412(3) 0.7355(3)
H1_3 H 0.9351 0.3560 0.7922
H2_3 H 0.9884 0.3167 0.7115
H3_3 H 0.8829 0.4064 0.7086
C2_3 C 0.8167(4) 0.2565(3) 0.7265(3)
C3_3 C 0.6815(4) 0.1465(3) 0.6775(2)
C4_3 C 0.6019(4) 0.0809(3) 0.6182(3)
H4_3 H 0.5312 0.0517 0.6448
H5_3 H 0.6512 0.0198 0.6011
C5_3 C 0.5530(4) 0.1425(3) 0.5461(2)
C6_3 C 0.5517(4) 0.2391(3) 0.4422(3)
C7_3 C 0.5927(4) 0.3074(4) 0.3772(3)
H6_3 H 0.5202 0.3300 0.3424
H7_3 H 0.6357 0.3705 0.4003
H8_3 H 0.6490 0.2668 0.3462
C8_3 C 0.0751(6) 0.0491(5) 0.3496(5)
H10_3 H 0.1331 0.0825 0.3155
C9_3 C 0.0434(4) 0.1260(4) 0.4115(3)
C10_3 C 0.0559(4) 0.2539(3) 0.4946(3)
C11_3 C 0.1055(4) 0.3426(3) 0.5480(2)
H12_3 H 0.1667 0.3127 0.5892
H13_3 H 0.0365 0.3731 0.5756
C12_3 C 0.1659(3) 0.4305(3) 0.5051(2)
C13_3 C 0.2820(4) 0.5125(3) 0.4303(2)
C14_3 C 0.3757(4) 0.5376(4) 0.3734(3)
H14_3 H 0.3693 0.6131 0.3584
H15_3 H 0.4590 0.5231 0.3987
H16_3 H 0.3606 0.4931 0.3257
N13_2 N 0.9451(3) 0.2096(3) 0.4971(2)
N2_3 N 0.9368(3) 0.1261(3) 0.4427(3)
H9_3 H 0.9995 0.0282 0.3170
C13_4 C 0.2180(4) 0.0125(3) 0.0697(2)
C14_4 C 0.1243(4) 0.0376(4) 0.1266(3)
H14_4 H 0.1307 0.1131 0.1416
H15_4 H 0.0410 0.0231 0.1013
N1_4 N 0.3783(3) 0.7046(3) 0.0584(2)
N2_4 N 0.5632(3) 0.6261(3) 0.0573(3)
N3_2 N 0.5549(3) 0.7096(3) 0.0029(2)
N4_4 N 0.2484(3) 0.9128(3) 0.04786(19)
N7_4 N 0.0645(3) 0.7078(3) 0.0506(2)
C8_4 C 0.4249(6) 0.5491(5) 0.1504(5)
H9_4 H 0.5005 0.5282 0.1830
H10_4 H 0.3669 0.5825 0.1845
H11_2 H 0.3863 0.4857 0.1248
C9_4 C 0.4566(4) 0.6260(4) 0.0885(3)
C10_4 C 0.4441(4) 0.7539(3) 0.0054(3)
H16_4 H 0.1394 0.9931 0.1743
N8_4 N 0.0634(3) 0.6447(3) 0.9825(2)
C11_4 C 0.3945(4) 0.8426(3) 0.9520(2)
H12_4 H 0.3333 0.8127 0.9108
H13_4 H 0.4635 0.8731 0.9244
C12_4 C 0.3341(3) 0.9305(3) 0.9949(2)
C6_4 C 0.9483(4) 0.7391(3) 0.0578(3)
C7_4 C 0.9073(4) 0.8074(4) 0.1228(3)
H6_4 H 0.9798 0.8300 0.1576
H7_4 H 0.8643 0.8705 0.0997
H8_4 H 0.8510 0.7668 0.1538
N9_4 N 0.8711(3) 0.7001(3) 0.9984(2)
N10_4 N 0.7288(3) 0.7157(3) 0.8435(2)
N11_4 N 0.8266(3) 0.6425(3) 0.7456(2)
C1_4 C 0.5858(4) 0.8412(3) 0.7645(3)
H1_4 H 0.5649 0.8560 0.7078
H2_4 H 0.5116 0.8167 0.7885
H3_4 H 0.6171 0.9064 0.7914
C2_4 C 0.6833(4) 0.7565(3) 0.7735(3)
C3_4 C 0.8185(4) 0.6465(3) 0.8225(2)
C4_4 C 0.8981(4) 0.5809(3) 0.8818(3)
H4_4 H 0.9688 0.5517 0.8552
H5_4 H 0.8488 0.5198 0.8989
C5_4 C 0.9470(4) 0.6425(3) 0.9539(2)
H11_3 H 0.8863 0.0143 0.6248
N5_3 N 0.6437(3) 0.9678(3) 0.0173(2)
H11_4 H 0.1137 0.9857 0.3752
N5_4 N 0.3563(3) 0.0322(3) 0.9827(2)
loop_
_geom_bond_atom_site_label_1
_geom_bond_atom_site_label_2
_geom_bond_site_symmetry_1
_geom_bond_site_symmetry_2
N2 N3 1_555 1_555
Zn4 N3 1_555 1_555
Zn1 N1 1_555 1_555
Zn4 N9 1_555 1_555
N1 C9 1_555 1_555
N4 Zn1 1_555 1_555
N5 N6 1_555 1_555
N6 C13 1_555 1_555
N7 Zn1 1_555 1_555
N8 N7 1_555 1_555
N9 C5 1_555 1_555
N10 Zn4 1_555 1_555
N11 N12 1_555 1_555
N12 C2 1_555 1_555
C1 H1 1_555 1_555
H2 C1 1_555 1_555
H3 C1 1_555 1_555
C2 N10 1_555 1_555
C3 N10 1_555 1_555
C4 C3 1_555 1_555
H4 C4 1_555 1_555
H5 C4 1_555 1_555
C5 N8 1_555 1_555
C6 N7 1_555 1_555
C7 C6 1_555 1_555
H6 C7 1_555 1_555
H7 C7 1_555 1_555
H8 C7 1_555 1_555
H10 C8 1_555 1_555
C10 N1 1_555 1_555
C11 C10 1_555 1_555
H12 C11 1_555 1_555
H13 C11 1_555 1_555
C12 N4 1_555 1_555
C13 N4 1_555 1_555
C14 C13 1_555 1_555
H14 C14 1_555 1_555
H15 C14 1_555 1_555
H16 C14 1_555 1_555
Zn3 N12 1_555 1_555
Zn5 N6 1_555 1_555
N14 Zn4 1_555 1_555
N15 Zn1 1_555 1_555
N5 C12 1_555 1_555
N9 C6 1_555 1_555
N11 C3 1_555 1_555
C1 C2 1_555 1_555
C4 C5 1_555 1_555
C8 C9 1_555 1_555
C11 C12 1_555 1_555
Zn2 N9_2 1_555 1_555
N9_2 C5_2 1_555 1_555
N10_2 Zn2 1_555 1_555
N11_2 N12_2 1_555 1_555
N12_2 C2_2 1_555 1_555
C1_2 H1_2 1_555 1_555
H2_2 C1_2 1_555 1_555
H3_2 C1_2 1_555 1_555
C2_2 N10_2 1_555 1_555
C3_2 N10_2 1_555 1_555
C4_2 C3_2 1_555 1_555
H4_2 C4_2 1_555 1_555
H5_2 C4_2 1_555 1_555
Zn3_2 N12_2 1_555 1_555
N14_2 Zn2 1_555 1_555
N11_2 C3_2 1_555 1_555
C1_2 C2_2 1_555 1_555
C4_2 C5_2 1_555 1_555
C7_2 C6_2 1_555 1_555
H6_2 C7_2 1_555 1_555
H7_2 C7_2 1_555 1_555
H8_2 C7_2 1_555 1_555
H12_2 C11_2 1_555 1_555
H13_2 C11_2 1_555 1_555
C11_2 C12_2 1_555 1_555
Zn1_2 N1_2 1_555 1_555
N1_2 C9_2 1_555 1_555
N2_2 N13 1_555 1_555
N13 C10_2 1_555 1_555
N4_2 Zn1_2 1_555 1_555
N7_2 Zn1_2 1_555 1_555
C8_2 H9_2 1_555 1_555
H10_2 C8_2 1_555 1_555
H11 C8_2 1_555 1_555
C9_2 N2_2 1_555 1_555
C10_2 N1_2 1_555 1_555
N15_2 Zn1_2 1_555 1_555
C8_2 C9_2 1_555 1_555
N6_2 C13_2 1_555 1_555
C14_2 C13_2 1_555 1_555
H14_2 C14_2 1_555 1_555
H15_2 C14_2 1_555 1_555
Zn5_2 N6_2 1_555 1_555
Zn3_2 N1_3 1_555 1_555
Zn5 N9_3 1_555 1_555
N1_3 C9_3 1_555 1_555
N4_3 Zn3_2 1_555 1_555
N5_2 N14 1_555 1_555
N14 C13_3 1_555 1_555
N7_3 Zn3_2 1_555 1_555
N8_3 N7_3 1_555 1_555
N9_3 C5_3 1_555 1_555
N10_3 Zn5 1_555 1_555
N11_3 N15_2 1_555 1_555
N15_2 C2_3 1_555 1_555
C1_3 H1_3 1_555 1_555
H2_3 C1_3 1_555 1_555
H3_3 C1_3 1_555 1_555
C2_3 N10_3 1_555 1_555
C3_3 N10_3 1_555 1_555
C4_3 C3_3 1_555 1_555
H4_3 C4_3 1_555 1_555
H5_3 C4_3 1_555 1_555
C5_3 N8_3 1_555 1_555
C6_3 N7_3 1_555 1_555
C7_3 C6_3 1_555 1_555
H6_3 C7_3 1_555 1_555
H7_3 C7_3 1_555 1_555
H8_3 C7_3 1_555 1_555
H10_3 C8_3 1_555 1_555
C10_3 N1_3 1_555 1_555
C11_3 C10_3 1_555 1_555
H12_3 C11_3 1_555 1_555
H13_3 C11_3 1_555 1_555
C12_3 N4_3 1_555 1_555
C13_3 N4_3 1_555 1_555
C14_3 C13_3 1_555 1_555
H14_3 C14_3 1_555 1_555
H15_3 C14_3 1_555 1_555
H16_3 C14_3 1_555 1_555
N13_2 Zn5 1_555 1_555
N5_2 C12_3 1_555 1_555
N9_3 C6_3 1_555 1_555
N11_3 C3_3 1_555 1_555
C1_3 C2_3 1_555 1_555
C4_3 C5_3 1_555 1_555
C8_3 C9_3 1_555 1_555
C11_3 C12_3 1_555 1_555
N2_3 N13_2 1_555 1_555
N14_2 C13_4 1_555 1_555
C14_4 C13_4 1_555 1_555
H14_4 C14_4 1_555 1_555
H15_4 C14_4 1_555 1_555
Zn3 N1_4 1_555 1_555
N1_4 C9_4 1_555 1_555
N2_4 N3_2 1_555 1_555
N3_2 C10_4 1_555 1_555
N4_4 Zn3 1_555 1_555
N7_4 Zn3 1_555 1_555
C8_4 H9_4 1_555 1_555
H10_4 C8_4 1_555 1_555
H11_2 C8_4 1_555 1_555
C9_4 N2_4 1_555 1_555
C10_4 N1_4 1_555 1_555
C8_4 C9_4 1_555 1_555
H12_4 C11_4 1_555 1_555
H13_4 C11_4 1_555 1_555
C11_4 C12_4 1_555 1_555
C7_4 C6_4 1_555 1_555
H6_4 C7_4 1_555 1_555
H7_4 C7_4 1_555 1_555
H8_4 C7_4 1_555 1_555
Zn5_2 N9_4 1_555 1_555
N9_4 C5_4 1_555 1_555
N10_4 Zn5_2 1_555 1_555
N11_4 N15 1_555 1_555
N15 C2_4 1_555 1_555
C1_4 H1_4 1_555 1_555
H2_4 C1_4 1_555 1_555
H3_4 C1_4 1_555 1_555
C2_4 N10_4 1_555 1_555
C3_4 N10_4 1_555 1_555
C4_4 C3_4 1_555 1_555
H4_4 C4_4 1_555 1_555
H5_4 C4_4 1_555 1_555
N11_4 C3_4 1_555 1_555
C1_4 C2_4 1_555 1_555
C4_4 C5_4 1_555 1_555

#END
