
###############################################################################
#
# This file contains modified crystal structure data generated from the
# MOF subset of the Cambridge Structural Database (CSD) v543 
# hosted by the Cambridge Crystallographic Data Centre (CCDC).
#
# This work is licensed under the Creative Commons
# Attribution-NonCommercial-ShareAlike 4.0 International License.
# To view a copy of this license, visit
# http://creativecommons.org/licenses/by-nc-sa/4.0/
# or send a letter to
# Creative Commons, PO Box 1866, Mountain View, CA 94042, USA.
#
# CIF created using the CSD Python API on 29 September 2022
# The structure has been converted into the P1 space group
# The structure has a 3D framework
# The original CSD entry PEHNOI is in the triclinic crystal system
# The framework has been calculated to contain at least 10.0% void space
# The void calculation uses a probe of radius 1.32A, grid spacing 0.4
# The framework is charged, counterions have been retained in the structure
#
###############################################################################

data_PEHNOI
_chemical_formula_moiety         '(C56 H46 Cu4 N20 O32 2+)n'
_symmetry_cell_setting           triclinic
_symmetry_space_group_name_H-M   'P 1'
_symmetry_Int_Tables_number      1
_space_group_name_Hall           'P 1'
loop_
_symmetry_equiv_pos_site_id
_symmetry_equiv_pos_as_xyz
1 x,y,z
_cell_length_a                   11.424(4)
_cell_length_b                   15.223(6)
_cell_length_c                   16.135(5)
_cell_angle_alpha                98.306(5)
_cell_angle_beta                 96.9310(10)
_cell_angle_gamma                111.263(5)
_cell_volume                     2541.58
loop_
_atom_site_label
_atom_site_type_symbol
_atom_site_fract_x
_atom_site_fract_y
_atom_site_fract_z
O14 O 0.0394(5) 0.7515(4) 0.7028(4)
C27 C 0.8597(6) 0.0002(5) 0.7952(5)
O15 O 0.9765(5) 0.0385(4) 0.8353(4)
O16 O 0.7948(5) 0.0526(4) 0.7968(4)
Cu11 Cu 0.95023(8) 0.16432(6) 0.86784(6)
C2 C 0.1382(6) 0.5430(4) 0.7394(4)
C3 C 0.1773(7) 0.5477(5) 0.8271(4)
C4 C 0.0961(6) 0.5618(5) 0.8825(4)
C5 C 0.3250(6) 0.5371(5) 0.7609(4)
H2 H 0.4038 0.5343 0.7506
C11 C 0.4133(6) 0.5688(5) 0.1207(4)
C12 C 0.3575(7) 0.6015(5) 0.1937(4)
C13 C 0.3792(7) 0.5790(5) 0.2737(5)
H5 H 0.4349 0.5466 0.2843
C14 C 0.3189(6) 0.6043(5) 0.3379(4)
C15 C 0.3383(6) 0.5727(5) 0.4197(5)
C16 C 0.2394(6) 0.6537(5) 0.3215(4)
H6 H 0.1985 0.6713 0.3652
C17 C 0.2193(6) 0.6775(5) 0.2436(4)
C18 C 0.1325(7) 0.7282(5) 0.2222(5)
C19 C 0.2805(7) 0.6505(5) 0.1800(4)
H7 H 0.2679 0.6668 0.1259
C20 C 0.4811(7) 0.7076(6) 0.6430(6)
C21 C 0.6227(7) 0.7584(6) 0.6762(5)
C22 C 0.7035(6) 0.7095(5) 0.6602(5)
H8 H 0.6680 0.6444 0.6302
C23 C 0.8362(6) 0.7562(5) 0.6882(4)
C24 C 0.9245(7) 0.7106(5) 0.6642(5)
C25 C 0.8854(6) 0.8517(5) 0.7345(5)
H9 H 0.9746 0.8837 0.7562
C26 C 0.8053(7) 0.8990(5) 0.7487(5)
C28 C 0.6722(7) 0.8530(5) 0.7187(6)
H10 H 0.6177 0.8866 0.7277
Cu2 Cu 0.25629(7) 0.54412(6) 0.58062(5)
Cu4 Cu 0.04977(8) 0.83568(6) 0.13216(6)
N2 N 0.0267(6) 0.5472(4) 0.7049(4)
N3 N 0.2946(5) 0.5416(4) 0.8391(4)
N4 N 0.2342(5) 0.5368(4) 0.6976(4)
N5 N 0.1254(7) 0.5706(6) 0.9677(4)
H12 H 0.0806 0.5991 0.9928
H13 H 0.1072 0.5133 0.9802
O1 O 0.0695(4) 0.4671(3) 0.5411(3)
H17 H 0.0409 0.4043 0.5603
O2 O 0.3072(6) 0.4030(4) 0.5452(4)
H18 H 0.3916 0.4203 0.5453
H19 H 0.2644 0.3679 0.4929
O3 O 0.1601(6) 0.6954(4) 0.5852(4)
H20 H 0.1431 0.7248 0.5433
H21 H 0.2292 0.6823 0.5774
O4 O 0.1351(8) 0.8777(6) 0.0208(5)
H22 H 0.206(6) 0.866(8) 0.008(7)
O5 O 0.3712(5) 0.5736(4) 0.0477(3)
O6 O 0.4985(5) 0.5351(4) 0.1403(3)
O7 O 0.2546(5) 0.5749(4) 0.4684(3)
O8 O 0.4249(5) 0.5459(5) 0.4377(4)
O9 O 0.1171(5) 0.7387(4) 0.1469(4)
O10 O 0.0809(6) 0.7551(5) 0.2790(4)
O11 O 0.4385(4) 0.6188(4) 0.6206(3)
O12 O 0.4137(7) 0.7571(5) 0.6368(7)
O13 O 0.8810(4) 0.6322(3) 0.6093(3)
Cu6 Cu 0.41664(7) 0.52298(6) 0.94085(5)
Cu8 Cu 0.58336(7) 0.47702(6) 0.05915(5)
Cu9 Cu 0.97823(7) 0.54913(6) 0.58268(5)
Cu10 Cu 0.02177(7) 0.45087(6) 0.41732(5)
O21 O 0.0235(5) 0.9615(4) 0.1647(4)
O22 O 0.2052(5) 0.9474(4) 0.2032(4)
H23 H 0.077(7) 0.836(7) 0.974(5)
N12 N 0.5614(6) 0.6509(4) 0.9556(4)
N13 N 0.2986(5) 0.3913(4) 0.9456(4)
O18 O 0.5015(5) 0.4649(4) 0.8597(3)
C1 C 0.9583(6) 0.5596(5) 0.7648(5)
H1 H 0.8795 0.5641 0.7444
C7 C 0.6736(6) 0.6696(5) 0.0098(5)
C8 C 0.7782(7) 0.7583(6) 0.0255(5)
C10 C 0.8221(6) 0.6600(5) 0.0947(5)
H4 H 0.8682 0.6340 0.1300
N1 N 0.9854(5) 0.5662(5) 0.8470(4)
H11 H 0.9316 0.5736 0.8794
N8 N 0.8736(6) 0.7495(4) 0.0824(5)
N9 N 0.7014(5) 0.6087(4) 0.0544(4)
N10 N 0.8535(8) 0.9217(6) 0.0034(6)
H16 H 0.9265 0.9373 0.0385
O17 O 0.9305(4) 0.5329(3) 0.4589(3)
O19 O 0.7454(5) 0.4251(4) 0.5316(3)
C6 C 0.5585(8) 0.7250(6) 0.9240(6)
H3 H 0.4805 0.7158 0.8887
C9 C 0.7634(8) 0.8323(6) 0.9904(6)
N6 N 0.6520(8) 0.8116(5) 0.9355(5)
H14 H 0.6420 0.8550 0.9080
H15 H 0.8396 0.9645 0.9769
C6_2 C 0.4415(8) 0.2750(6) 0.0760(6)
H3_2 H 0.5195 0.2842 0.1113
C9_2 C 0.2366(8) 0.1677(6) 0.0096(6)
N6_2 N 0.3480(8) 0.1884(5) 0.0645(5)
H14_2 H 0.3580 0.1450 0.0920
N7 N 0.4386(6) 0.3491(4) 0.0444(4)
H15_2 H 0.1604 0.0355 0.0231
C1_2 C 0.0417(6) 0.4404(5) 0.2352(5)
H1_2 H 0.1205 0.4359 0.2556
C7_2 C 0.3264(6) 0.3304(5) 0.9902(5)
C8_2 C 0.2218(7) 0.2417(6) 0.9745(5)
C10_2 C 0.1779(6) 0.3400(5) 0.9053(5)
H4_2 H 0.1318 0.3660 0.8700
N1_2 N 0.0146(5) 0.4338(5) 0.1530(4)
H11_2 H 0.0684 0.4264 0.1206
N8_2 N 0.1264(6) 0.2505(4) 0.9176(5)
N10_2 N 0.1465(8) 0.0783(6) 0.9966(6)
H16_2 H 0.0735 0.0627 0.9615
O20 O 0.1190(4) 0.3678(3) 0.3907(3)
H23_2 H 0.923(7) 0.164(7) 0.026(5)
N11 N 0.7054(5) 0.4584(4) 0.1609(4)
C2_2 C 0.8618(6) 0.4570(4) 0.2606(4)
C3_2 C 0.8227(7) 0.4523(5) 0.1729(4)
C4_2 C 0.9039(6) 0.4382(5) 0.1175(4)
C5_2 C 0.6750(6) 0.4629(5) 0.2391(4)
H2_2 H 0.5962 0.4657 0.2494
C11_2 C 0.5867(6) 0.4312(5) 0.8793(4)
C12_2 C 0.6425(7) 0.3985(5) 0.8063(4)
C13_2 C 0.6208(7) 0.4210(5) 0.7263(5)
H5_2 H 0.5651 0.4534 0.7157
C14_2 C 0.6811(6) 0.3957(5) 0.6621(4)
C15_2 C 0.6617(6) 0.4273(5) 0.5803(5)
C16_2 C 0.7606(6) 0.3463(5) 0.6785(4)
H6_2 H 0.8015 0.3287 0.6348
C17_2 C 0.7807(6) 0.3225(5) 0.7564(4)
C18_2 C 0.8675(7) 0.2718(5) 0.7778(5)
C19_2 C 0.7195(7) 0.3495(5) 0.8200(4)
H7_2 H 0.7321 0.3332 0.8741
C20_2 C 0.5189(7) 0.2924(6) 0.3570(6)
C21_2 C 0.3773(7) 0.2416(6) 0.3238(5)
C22_2 C 0.2965(6) 0.2905(5) 0.3398(5)
H8_2 H 0.3320 0.3556 0.3698
C23_2 C 0.1638(6) 0.2438(5) 0.3118(4)
C24_2 C 0.0755(7) 0.2894(5) 0.3358(5)
C25_2 C 0.1146(6) 0.1483(5) 0.2655(5)
H9_2 H 0.0254 0.1163 0.2438
C26_2 C 0.1947(7) 0.1010(5) 0.2513(5)
C28_2 C 0.3278(7) 0.1470(5) 0.2813(6)
H10_2 H 0.3823 0.1134 0.2723
Cu2_2 Cu 0.74371(7) 0.45588(6) 0.41938(5)
N2_2 N 0.9733(6) 0.4528(4) 0.2951(4)
N4_2 N 0.7658(5) 0.4632(4) 0.3024(4)
N5_2 N 0.8746(7) 0.4294(6) 0.0323(4)
H12_2 H 0.9194 0.4009 0.0072
H13_2 H 0.8928 0.4867 0.0198
H17_2 H 0.9591 0.5957 0.4397
O2_2 O 0.6928(6) 0.5970(4) 0.4548(4)
H18_2 H 0.6084 0.5797 0.4547
H19_2 H 0.7356 0.6321 0.5071
O3_2 O 0.8399(6) 0.3046(4) 0.4148(4)
H20_2 H 0.8569 0.2752 0.4567
H21_2 H 0.7708 0.3177 0.4226
O4_2 O 0.8649(8) 0.1223(6) 0.9792(5)
H22_2 H 0.794(6) 0.134(8) 0.992(7)
O5_2 O 0.6288(5) 0.4264(4) 0.9523(3)
O8_2 O 0.5751(5) 0.4541(5) 0.5623(4)
O9_2 O 0.8829(5) 0.2613(4) 0.8531(4)
O10_2 O 0.9191(6) 0.2449(5) 0.7210(4)
O11_2 O 0.5615(4) 0.3812(4) 0.3794(3)
O12_2 O 0.5863(7) 0.2429(5) 0.3632(7)
C27_2 C 0.1403(6) 0.9998(5) 0.2048(5)
O14_2 O 0.9606(5) 0.2485(4) 0.2972(4)
loop_
_geom_bond_atom_site_label_1
_geom_bond_atom_site_label_2
_geom_bond_site_symmetry_1
_geom_bond_site_symmetry_2
O15 C27 1_555 1_555
O16 C27 1_555 1_555
Cu11 O15 1_555 1_555
O16 Cu11 1_555 1_555
C2 C3 1_555 1_555
C3 C4 1_555 1_555
C5 H2 1_555 1_555
C11 C12 1_555 1_555
C12 C13 1_555 1_555
C13 H5 1_555 1_555
C14 C13 1_555 1_555
C15 C14 1_555 1_555
C16 C14 1_555 1_555
H6 C16 1_555 1_555
C17 C16 1_555 1_555
C18 C17 1_555 1_555
C19 C12 1_555 1_555
H7 C19 1_555 1_555
C20 C21 1_555 1_555
C21 C22 1_555 1_555
C22 H8 1_555 1_555
C23 C22 1_555 1_555
C24 C23 1_555 1_555
C25 C23 1_555 1_555
H9 C25 1_555 1_555
C26 C25 1_555 1_555
C28 C21 1_555 1_555
H10 C28 1_555 1_555
Cu2 N4 1_555 1_555
N3 C3 1_555 1_555
N4 C2 1_555 1_555
N5 C4 1_555 1_555
H12 N5 1_555 1_555
H13 N5 1_555 1_555
O1 Cu2 1_555 1_555
H17 O1 1_555 1_555
O2 Cu2 1_555 1_555
H18 O2 1_555 1_555
H19 O2 1_555 1_555
H20 O3 1_555 1_555
H21 O3 1_555 1_555
O4 Cu4 1_555 1_555
H22 O4 1_555 1_555
O5 C11 1_555 1_555
O6 C11 1_555 1_555
O7 C15 1_555 1_555
O8 C15 1_555 1_555
O9 C18 1_555 1_555
O10 C18 1_555 1_555
O11 C20 1_555 1_555
O12 C20 1_555 1_555
O13 C24 1_555 1_555
Cu6 N3 1_555 1_555
Cu9 O13 1_555 1_555
Cu10 O1 1_555 1_555
O21 Cu4 1_555 1_555
O22 Cu4 1_555 1_555
C2 N2 1_555 1_555
C5 N3 1_555 1_555
C5 N4 1_555 1_555
C17 C19 1_555 1_555
C26 C28 1_555 1_555
Cu2 O7 1_555 1_555
Cu2 O11 1_555 1_555
Cu4 O9 1_555 1_555
O6 Cu8 1_555 1_555
O7 Cu10 1_555 1_555
N12 Cu6 1_555 1_555
N13 Cu6 1_555 1_555
O18 Cu6 1_555 1_555
C1 H1 1_555 1_555
C7 C8 1_555 1_555
C10 H4 1_555 1_555
N1 C1 1_555 1_555
H11 N1 1_555 1_555
N8 C8 1_555 1_555
N9 C7 1_555 1_555
H16 N10 1_555 1_555
Cu8 N9 1_555 1_555
O17 Cu9 1_555 1_555
O19 Cu9 1_555 1_555
C10 N8 1_555 1_555
C10 N9 1_555 1_555
C6 H3 1_555 1_555
C9 N6 1_555 1_555
N6 C6 1_555 1_555
H14 N6 1_555 1_555
N12 C6 1_555 1_555
C6_2 H3_2 1_555 1_555
C9_2 N6_2 1_555 1_555
N6_2 C6_2 1_555 1_555
H14_2 N6_2 1_555 1_555
N7 C6_2 1_555 1_555
Cu8 N7 1_555 1_555
C1_2 H1_2 1_555 1_555
C7_2 C8_2 1_555 1_555
C10_2 H4_2 1_555 1_555
N1_2 C1_2 1_555 1_555
H11_2 N1_2 1_555 1_555
N8_2 C8_2 1_555 1_555
N13 C7_2 1_555 1_555
H16_2 N10_2 1_555 1_555
O20 Cu10 1_555 1_555
C10_2 N8_2 1_555 1_555
C10_2 N13 1_555 1_555
N11 Cu8 1_555 1_555
C2_2 C3_2 1_555 1_555
C3_2 C4_2 1_555 1_555
C5_2 H2_2 1_555 1_555
C11_2 C12_2 1_555 1_555
C12_2 C13_2 1_555 1_555
C13_2 H5_2 1_555 1_555
C14_2 C13_2 1_555 1_555
C15_2 C14_2 1_555 1_555
C16_2 C14_2 1_555 1_555
H6_2 C16_2 1_555 1_555
C17_2 C16_2 1_555 1_555
C18_2 C17_2 1_555 1_555
C19_2 C12_2 1_555 1_555
H7_2 C19_2 1_555 1_555
C20_2 C21_2 1_555 1_555
C21_2 C22_2 1_555 1_555
C22_2 H8_2 1_555 1_555
C23_2 C22_2 1_555 1_555
C24_2 C23_2 1_555 1_555
C25_2 C23_2 1_555 1_555
H9_2 C25_2 1_555 1_555
C26_2 C25_2 1_555 1_555
C28_2 C21_2 1_555 1_555
H10_2 C28_2 1_555 1_555
Cu2_2 N4_2 1_555 1_555
N11 C3_2 1_555 1_555
N4_2 C2_2 1_555 1_555
N5_2 C4_2 1_555 1_555
H12_2 N5_2 1_555 1_555
H13_2 N5_2 1_555 1_555
O17 Cu2_2 1_555 1_555
H17_2 O17 1_555 1_555
O2_2 Cu2_2 1_555 1_555
H18_2 O2_2 1_555 1_555
H19_2 O2_2 1_555 1_555
H20_2 O3_2 1_555 1_555
H21_2 O3_2 1_555 1_555
O4_2 Cu11 1_555 1_555
H22_2 O4_2 1_555 1_555
O5_2 C11_2 1_555 1_555
O18 C11_2 1_555 1_555
O19 C15_2 1_555 1_555
O8_2 C15_2 1_555 1_555
O9_2 C18_2 1_555 1_555
O10_2 C18_2 1_555 1_555
O11_2 C20_2 1_555 1_555
O12_2 C20_2 1_555 1_555
O20 C24_2 1_555 1_555
C2_2 N2_2 1_555 1_555
C5_2 N11 1_555 1_555
C5_2 N4_2 1_555 1_555
C17_2 C19_2 1_555 1_555
C26_2 C28_2 1_555 1_555
Cu2_2 O19 1_555 1_555
Cu2_2 O11_2 1_555 1_555
Cu11 O9_2 1_555 1_555
O21 C27_2 1_555 1_555
O22 C27_2 1_555 1_555

#END
