
###############################################################################
#
# This file contains modified crystal structure data generated from the
# MOF subset of the Cambridge Structural Database (CSD) v543 
# hosted by the Cambridge Crystallographic Data Centre (CCDC).
#
# This work is licensed under the Creative Commons
# Attribution-NonCommercial-ShareAlike 4.0 International License.
# To view a copy of this license, visit
# http://creativecommons.org/licenses/by-nc-sa/4.0/
# or send a letter to
# Creative Commons, PO Box 1866, Mountain View, CA 94042, USA.
#
# CIF created using the CSD Python API on 29 September 2022
# The structure has been converted into the P1 space group
# The structure has a 3D framework
# The original CSD entry PEKCOA is in the monoclinic crystal system
# The framework has been calculated to contain at least 10.0% void space
# The void calculation uses a probe of radius 1.32A, grid spacing 0.4
#
###############################################################################

data_PEKCOA
_chemical_formula_moiety         '(C160 H80 N4 O40 Zn8)n'
_symmetry_cell_setting           triclinic
_symmetry_space_group_name_H-M   'P 1'
_symmetry_Int_Tables_number      1
_space_group_name_Hall           'P 1'
loop_
_symmetry_equiv_pos_site_id
_symmetry_equiv_pos_as_xyz
1 x,y,z
_cell_length_a                   13.848(3)
_cell_length_b                   22.187(4)
_cell_length_c                   19.784(4)
_cell_angle_alpha                90
_cell_angle_beta                 102.60(3)
_cell_angle_gamma                90
_cell_volume                     5932.16
loop_
_atom_site_label
_atom_site_type_symbol
_atom_site_fract_x
_atom_site_fract_y
_atom_site_fract_z
N2 N 0.0107(2) 0.01494(11) 0.33804(14)
H19 H 0.0012 0.0943 0.3793
Zn5 Zn 0.15685(2) 0.015913(14) 0.339217(17)
O1 O 0.20903(16) 0.06026(11) 0.43033(12)
O2 O 0.37257(16) 0.04528(10) 0.44646(12)
O3 O 0.17696(17) 0.40833(10) 0.78702(12)
O4 O 0.33304(17) 0.44093(10) 0.80239(12)
O5 O 0.09478(19) 0.21236(15) 0.61480(17)
C1 C 0.2350(2) 0.13879(15) 0.54272(17)
H1 H 0.1706 0.1258 0.5249
C2 C 0.3148(2) 0.11436(14) 0.51893(16)
C3 C 0.4114(2) 0.13371(15) 0.54814(17)
H2 H 0.4643 0.1163 0.5334
C4 C 0.4297(2) 0.17792(15) 0.59821(18)
H3 H 0.4941 0.1905 0.6168
C5 C 0.4194(3) 0.29076(18) 0.7054(2)
H4 H 0.4858 0.2834 0.7064
C6 C 0.3914(3) 0.33890(17) 0.7415(2)
H5 H 0.4400 0.3642 0.7664
C7 C 0.2921(3) 0.35042(15) 0.74147(17)
C8 C 0.2176(2) 0.31233(15) 0.70494(17)
H6 H 0.1514 0.3190 0.7053
C9 C 0.2543(2) 0.18246(15) 0.59304(17)
C10 C 0.3506(2) 0.20343(15) 0.62040(17)
C11 C 0.3459(2) 0.25368(15) 0.66756(18)
C12 C 0.2455(2) 0.26479(15) 0.66846(17)
C13 C 0.1833(3) 0.21899(17) 0.62411(19)
C29 C 0.2968(2) 0.06983(14) 0.46092(16)
C30 C 0.2659(3) 0.40382(14) 0.77973(16)
C31 C 0.5764(2) 0.02247(14) 0.40696(16)
H13 H 0.5541 0.0428 0.4417
C32 C 0.6731(2) 0.02983(16) 0.40276(18)
H14 H 0.7150 0.0548 0.4337
C36 C 0.8125(2) 0.00496(16) 0.34539(18)
C39 C 0.9651(3) 0.05987(18) 0.3635(2)
C40 C 0.8672(3) 0.05745(19) 0.3673(2)
H20 H 0.8375 0.0901 0.3841
Zn4 Zn 0.36870(2) 0.514339(14) 0.868691(17)
Zn7 Zn 0.15685(2) 0.484087(14) 0.839217(17)
O11 O 0.17696(17) 0.09167(10) 0.28702(12)
O12 O 0.33304(17) 0.05907(10) 0.30239(12)
Zn1 Zn 0.36870(2) 0.985661(14) 0.368691(17)
N1 N 0.51280(19) 0.98777(11) 0.36392(14)
O6 O 0.18093(17) 0.93493(10) 0.39314(12)
O7 O 0.34267(17) 0.91780(10) 0.43265(11)
O8 O 0.15868(16) 0.53608(10) 0.75439(11)
O9 O 0.31590(16) 0.56867(10) 0.78684(11)
O10 O 0.4298(2) 0.73948(14) 0.62548(18)
C14 C 0.3028(2) 0.82349(15) 0.51605(17)
H7 H 0.3690 0.8332 0.5192
C15 C 0.2274(2) 0.85516(14) 0.47136(16)
C16 C 0.1291(3) 0.83938(16) 0.46730(18)
H8 H 0.0796 0.8609 0.4377
C17 C 0.1021(3) 0.79225(17) 0.50627(18)
H9 H 0.0360 0.7821 0.5030
C18 C 0.0943(3) 0.67713(17) 0.6100(2)
H10 H 0.0299 0.6858 0.5869
C19 C 0.1143(3) 0.63057(16) 0.65822(18)
H11 H 0.0623 0.6072 0.6666
C20 C 0.2115(2) 0.61814(15) 0.69468(16)
C21 C 0.2905(3) 0.65165(16) 0.68177(18)
H12 H 0.3550 0.6438 0.7055
C22 C 0.2760(3) 0.77746(16) 0.55530(18)
C23 C 0.1773(3) 0.76123(15) 0.54989(18)
C24 C 0.1737(3) 0.71032(16) 0.59732(18)
C25 C 0.2704(3) 0.69699(16) 0.63273(18)
C26 C 0.3399(3) 0.73858(17) 0.6075(2)
C27 C 0.2293(2) 0.57010(14) 0.74928(15)
C28 C 0.2532(2) 0.90661(14) 0.42887(15)
C33 C 0.7078(2) 0.99889(16) 0.35082(17)
C34 C 0.6419(2) 0.96246(17) 0.30634(18)
H15 H 0.6623 0.9413 0.2713
C35 C 0.5457(2) 0.95775(16) 0.31422(17)
H16 H 0.5020 0.9330 0.2842
C37 C 0.8602(3) 0.9591(2) 0.3181(2)
H17 H 0.8266 0.9238 0.3022
C38 C 0.9571(3) 0.9663(2) 0.3149(2)
H18 H 0.9875 0.9354 0.2953
O13 O 0.15868(16) 0.96392(10) 0.25439(11)
O14 O 0.31590(16) 0.93133(10) 0.28684(11)
N2_2 N 0.0107(2) 0.48506(11) 0.83804(14)
H19_2 H 0.0012 0.4057 0.8793
O5_2 O 0.09478(19) 0.28764(15) 0.11480(17)
O10_2 O 0.4298(2) 0.76052(14) 0.12548(18)
C1_2 C 0.2350(2) 0.36121(15) 0.04272(17)
H1_2 H 0.1706 0.3742 0.0249
C2_2 C 0.3148(2) 0.38564(14) 0.01893(16)
C3_2 C 0.4114(2) 0.36629(15) 0.04814(17)
H2_2 H 0.4643 0.3837 0.0334
C4_2 C 0.4297(2) 0.32208(15) 0.09821(18)
H3_2 H 0.4941 0.3095 0.1168
C5_2 C 0.4194(3) 0.20924(18) 0.2054(2)
H4_2 H 0.4858 0.2166 0.2064
C6_2 C 0.3914(3) 0.16110(17) 0.2415(2)
H5_2 H 0.4400 0.1358 0.2664
C7_2 C 0.2921(3) 0.14958(15) 0.24147(17)
C8_2 C 0.2176(2) 0.18767(15) 0.20494(17)
H6_2 H 0.1514 0.1810 0.2053
C9_2 C 0.2543(2) 0.31754(15) 0.09304(17)
C10_2 C 0.3506(2) 0.29657(15) 0.12040(17)
C11_2 C 0.3459(2) 0.24632(15) 0.16756(18)
C12_2 C 0.2455(2) 0.23521(15) 0.16846(17)
C13_2 C 0.1833(3) 0.28101(17) 0.12411(19)
C14_2 C 0.3028(2) 0.67651(15) 0.01605(17)
H7_2 H 0.3690 0.6668 0.0192
C17_2 C 0.1021(3) 0.70775(17) 0.00627(18)
H9_2 H 0.0360 0.7179 0.0030
C18_2 C 0.0943(3) 0.82287(17) 0.1100(2)
H10_2 H 0.0299 0.8142 0.0869
C19_2 C 0.1143(3) 0.86943(16) 0.15822(18)
H11_2 H 0.0623 0.8928 0.1666
C20_2 C 0.2115(2) 0.88186(15) 0.19468(16)
C21_2 C 0.2905(3) 0.84835(16) 0.18177(18)
H12_2 H 0.3550 0.8562 0.2055
C22_2 C 0.2760(3) 0.72254(16) 0.05530(18)
C23_2 C 0.1773(3) 0.73877(15) 0.04989(18)
C24_2 C 0.1737(3) 0.78968(16) 0.09732(18)
C25_2 C 0.2704(3) 0.80301(16) 0.13273(18)
C26_2 C 0.3399(3) 0.76142(17) 0.1075(2)
C27_2 C 0.2293(2) 0.92990(14) 0.24928(15)
C30_2 C 0.2659(3) 0.09618(14) 0.27973(16)
N1_2 N 0.51280(19) 0.51223(11) 0.86392(14)
O1_2 O 0.20903(16) 0.43974(11) 0.93033(12)
O2_2 O 0.37257(16) 0.45472(10) 0.94646(12)
O6_2 O 0.18093(17) 0.56507(10) 0.89314(12)
O7_2 O 0.34267(17) 0.58220(10) 0.93265(11)
C15_2 C 0.2274(2) 0.64484(14) 0.97136(16)
C16_2 C 0.1291(3) 0.66062(16) 0.96730(18)
H8_2 H 0.0796 0.6391 0.9377
C28_2 C 0.2532(2) 0.59339(14) 0.92887(15)
C29_2 C 0.2968(2) 0.43017(14) 0.96092(16)
C31_2 C 0.5764(2) 0.47753(14) 0.90696(16)
H13_2 H 0.5541 0.4572 0.9417
C32_2 C 0.6731(2) 0.47017(16) 0.90276(18)
H14_2 H 0.7150 0.4452 0.9337
C33_2 C 0.7078(2) 0.50111(16) 0.85082(17)
C34_2 C 0.6419(2) 0.53754(17) 0.80634(18)
H15_2 H 0.6623 0.5587 0.7713
C35_2 C 0.5457(2) 0.54225(16) 0.81422(17)
H16_2 H 0.5020 0.5670 0.7842
C36_2 C 0.8125(2) 0.49504(16) 0.84539(18)
C37_2 C 0.8602(3) 0.5409(2) 0.8181(2)
H17_2 H 0.8266 0.5762 0.8022
C38_2 C 0.9571(3) 0.5337(2) 0.8149(2)
H18_2 H 0.9875 0.5646 0.7953
C39_2 C 0.9651(3) 0.44013(18) 0.8635(2)
C40_2 C 0.8672(3) 0.44255(19) 0.8673(2)
H20_2 H 0.8375 0.4099 0.8841
Zn4_2 Zn 0.63130(2) 0.014339(14) 0.631309(17)
Zn1_2 Zn 0.63130(2) 0.485661(14) 0.131309(17)
Zn2 Zn 0.84315(2) 0.515913(14) 0.160783(17)
N1_3 N 0.48720(19) 0.48777(11) 0.13608(14)
O1_3 O 0.79097(16) 0.56026(11) 0.06967(12)
O2_3 O 0.62743(16) 0.54528(10) 0.05354(12)
O6_3 O 0.81907(17) 0.43493(10) 0.10686(12)
O7_3 O 0.65733(17) 0.41780(10) 0.06735(11)
C15_3 C 0.7726(2) 0.35516(14) 0.02864(16)
C16_3 C 0.8709(3) 0.33938(16) 0.03270(18)
H8_3 H 0.9204 0.3609 0.0623
C28_3 C 0.7468(2) 0.40661(14) 0.07113(15)
C29_3 C 0.7032(2) 0.56983(14) 0.03908(16)
C31_3 C 0.4236(2) 0.52247(14) 0.09304(16)
H13_3 H 0.4459 0.5428 0.0583
C32_3 C 0.3269(2) 0.52983(16) 0.09724(18)
H14_3 H 0.2850 0.5548 0.0663
C33_3 C 0.2922(2) 0.49889(16) 0.14918(17)
C34_3 C 0.3581(2) 0.46246(17) 0.19366(18)
H15_3 H 0.3377 0.4413 0.2287
C35_3 C 0.4543(2) 0.45775(16) 0.18578(17)
H16_3 H 0.4980 0.4330 0.2158
C36_3 C 0.1875(2) 0.50496(16) 0.15461(18)
C37_3 C 0.1398(3) 0.4591(2) 0.1819(2)
H17_3 H 0.1734 0.4238 0.1978
C38_3 C 0.0429(3) 0.4663(2) 0.1851(2)
H18_3 H 0.0125 0.4354 0.2047
C39_3 C 0.0349(3) 0.55987(18) 0.1365(2)
C40_3 C 0.1328(3) 0.55745(19) 0.1327(2)
H20_3 H 0.1625 0.5901 0.1159
N3 N 0.9893(2) 0.51494(11) 0.16196(14)
O11_2 O 0.82304(17) 0.59167(10) 0.21298(12)
O12_2 O 0.66696(17) 0.55907(10) 0.19761(12)
O13_2 O 0.84132(16) 0.46392(10) 0.24561(11)
O14_2 O 0.68410(16) 0.43133(10) 0.21316(11)
O3_2 O 0.82304(17) 0.90833(10) 0.71298(12)
O4_2 O 0.66696(17) 0.94093(10) 0.69761(12)
O5_3 O 0.90522(19) 0.71236(15) 0.88520(17)
O8_2 O 0.84132(16) 0.03608(10) 0.74561(11)
O9_2 O 0.68410(16) 0.06867(10) 0.71316(11)
O10_3 O 0.5702(2) 0.23948(14) 0.87452(18)
C1_3 C 0.7650(2) 0.63879(15) 0.95728(17)
H1_3 H 0.8294 0.6258 0.9751
C2_3 C 0.6852(2) 0.61436(14) 0.98107(16)
C3_3 C 0.5886(2) 0.63371(15) 0.95186(17)
H2_3 H 0.5357 0.6163 0.9666
C4_3 C 0.5703(2) 0.67792(15) 0.90179(18)
H3_3 H 0.5059 0.6905 0.8832
C5_3 C 0.5806(3) 0.79076(18) 0.7946(2)
H4_3 H 0.5142 0.7834 0.7936
C6_3 C 0.6086(3) 0.83890(17) 0.7585(2)
H5_3 H 0.5600 0.8642 0.7336
C7_3 C 0.7079(3) 0.85042(15) 0.75853(17)
C8_3 C 0.7824(2) 0.81233(15) 0.79506(17)
H6_3 H 0.8486 0.8190 0.7947
C9_3 C 0.7457(2) 0.68246(15) 0.90696(17)
C10_3 C 0.6494(2) 0.70343(15) 0.87960(17)
C11_3 C 0.6541(2) 0.75368(15) 0.83244(18)
C12_3 C 0.7545(2) 0.76479(15) 0.83154(17)
C13_3 C 0.8167(3) 0.71899(17) 0.87589(19)
C14_3 C 0.6972(2) 0.32349(15) 0.98395(17)
H7_3 H 0.6310 0.3332 0.9808
C17_3 C 0.8979(3) 0.29225(17) 0.99373(18)
H9_3 H 0.9640 0.2821 0.9970
C18_3 C 0.9057(3) 0.17713(17) 0.8900(2)
H10_3 H 0.9701 0.1858 0.9131
C19_3 C 0.8857(3) 0.13057(16) 0.84178(18)
H11_3 H 0.9377 0.1072 0.8334
C20_3 C 0.7885(2) 0.11814(15) 0.80532(16)
C21_3 C 0.7095(3) 0.15165(16) 0.81823(18)
H12_3 H 0.6450 0.1438 0.7945
C22_3 C 0.7240(3) 0.27746(16) 0.94470(18)
C23_3 C 0.8227(3) 0.26123(15) 0.95011(18)
C24_3 C 0.8263(3) 0.21032(16) 0.90268(18)
C25_3 C 0.7296(3) 0.19699(16) 0.86727(18)
C26_3 C 0.6601(3) 0.23858(17) 0.8925(2)
C27_3 C 0.7707(2) 0.07010(14) 0.75072(15)
C30_3 C 0.7341(3) 0.90382(14) 0.72027(16)
Zn7_2 Zn 0.84315(2) 0.984087(14) 0.660783(17)
H19_3 H 0.9988 0.5943 0.1207
N1_4 N 0.48720(19) 0.01223(11) 0.63608(14)
O6_4 O 0.81907(17) 0.06507(10) 0.60686(12)
O7_4 O 0.65733(17) 0.08220(10) 0.56735(11)
O10_4 O 0.5702(2) 0.26052(14) 0.37452(18)
C14_4 C 0.6972(2) 0.17651(15) 0.48395(17)
H7_4 H 0.6310 0.1668 0.4808
C15_4 C 0.7726(2) 0.14484(14) 0.52864(16)
C16_4 C 0.8709(3) 0.16062(16) 0.53270(18)
H8_4 H 0.9204 0.1391 0.5623
C17_4 C 0.8979(3) 0.20775(17) 0.49373(18)
H9_4 H 0.9640 0.2179 0.4970
C18_4 C 0.9057(3) 0.32287(17) 0.3900(2)
H10_4 H 0.9701 0.3142 0.4131
C19_4 C 0.8857(3) 0.36943(16) 0.34178(18)
H11_4 H 0.9377 0.3928 0.3334
C20_4 C 0.7885(2) 0.38186(15) 0.30532(16)
C21_4 C 0.7095(3) 0.34835(16) 0.31823(18)
H12_4 H 0.6450 0.3562 0.2945
C22_4 C 0.7240(3) 0.22254(16) 0.44470(18)
C23_4 C 0.8227(3) 0.23877(15) 0.45011(18)
C24_4 C 0.8263(3) 0.28968(16) 0.40268(18)
C25_4 C 0.7296(3) 0.30301(16) 0.36727(18)
C26_4 C 0.6601(3) 0.26142(17) 0.3925(2)
C27_4 C 0.7707(2) 0.42990(14) 0.25072(15)
C28_4 C 0.7468(2) 0.09339(14) 0.57113(15)
C33_4 C 0.2922(2) 0.00111(16) 0.64918(17)
C34_4 C 0.3581(2) 0.03754(17) 0.69366(18)
H15_4 H 0.3377 0.0587 0.7287
C35_4 C 0.4543(2) 0.04225(16) 0.68578(17)
H16_4 H 0.4980 0.0670 0.7158
C37_4 C 0.1398(3) 0.0409(2) 0.6819(2)
H17_4 H 0.1734 0.0762 0.6978
C38_4 C 0.0429(3) 0.0337(2) 0.6851(2)
H18_4 H 0.0125 0.0646 0.7047
O1_4 O 0.79097(16) 0.93974(11) 0.56967(12)
O2_4 O 0.62743(16) 0.95472(10) 0.55354(12)
O5_4 O 0.90522(19) 0.78764(15) 0.38520(17)
C1_4 C 0.7650(2) 0.86121(15) 0.45728(17)
H1_4 H 0.8294 0.8742 0.4751
C2_4 C 0.6852(2) 0.88564(14) 0.48107(16)
C3_4 C 0.5886(2) 0.86629(15) 0.45186(17)
H2_4 H 0.5357 0.8837 0.4666
C4_4 C 0.5703(2) 0.82208(15) 0.40179(18)
H3_4 H 0.5059 0.8095 0.3832
C5_4 C 0.5806(3) 0.70924(18) 0.2946(2)
H4_4 H 0.5142 0.7166 0.2936
C6_4 C 0.6086(3) 0.66110(17) 0.2585(2)
H5_4 H 0.5600 0.6358 0.2336
C7_4 C 0.7079(3) 0.64958(15) 0.25853(17)
C8_4 C 0.7824(2) 0.68767(15) 0.29506(17)
H6_4 H 0.8486 0.6810 0.2947
C9_4 C 0.7457(2) 0.81754(15) 0.40696(17)
C10_4 C 0.6494(2) 0.79657(15) 0.37960(17)
C11_4 C 0.6541(2) 0.74632(15) 0.33244(18)
C12_4 C 0.7545(2) 0.73521(15) 0.33154(17)
C13_4 C 0.8167(3) 0.78101(17) 0.37589(19)
C29_4 C 0.7032(2) 0.93017(14) 0.53908(16)
C30_4 C 0.7341(3) 0.59618(14) 0.22027(16)
C31_4 C 0.4236(2) 0.97753(14) 0.59304(16)
H13_4 H 0.4459 0.9572 0.5583
C32_4 C 0.3269(2) 0.97017(16) 0.59724(18)
H14_4 H 0.2850 0.9452 0.5663
C36_4 C 0.1875(2) 0.99504(16) 0.65461(18)
C39_4 C 0.0349(3) 0.94013(18) 0.6365(2)
C40_4 C 0.1328(3) 0.94255(19) 0.6327(2)
H20_4 H 0.1625 0.9099 0.6159
N3_2 N 0.9893(2) 0.98506(11) 0.66196(14)
H19_4 H 0.9988 0.9057 0.6207
loop_
_geom_bond_atom_site_label_1
_geom_bond_atom_site_label_2
_geom_bond_site_symmetry_1
_geom_bond_site_symmetry_2
Zn5 N2 1_555 1_555
Zn5 O1 1_555 1_555
O1 C29 1_555 1_555
O3 C30 1_555 1_555
O4 C30 1_555 1_555
O5 C13 1_555 1_555
C1 H1 1_555 1_555
C2 C1 1_555 1_555
C3 C2 1_555 1_555
H2 C3 1_555 1_555
C4 C3 1_555 1_555
H3 C4 1_555 1_555
C5 H4 1_555 1_555
C6 C5 1_555 1_555
H5 C6 1_555 1_555
C7 C6 1_555 1_555
C8 C7 1_555 1_555
H6 C8 1_555 1_555
C9 C1 1_555 1_555
C10 C4 1_555 1_555
C11 C5 1_555 1_555
C12 C8 1_555 1_555
C13 C9 1_555 1_555
C29 O2 1_555 1_555
C30 C7 1_555 1_555
C31 H13 1_555 1_555
C32 C31 1_555 1_555
H14 C32 1_555 1_555
C40 C36 1_555 1_555
H20 C40 1_555 1_555
Zn4 O4 1_555 1_555
Zn7 O3 1_555 1_555
O11 Zn5 1_555 1_555
C2 C29 1_555 1_555
C9 C10 1_555 1_555
C10 C11 1_555 1_555
C11 C12 1_555 1_555
C12 C13 1_555 1_555
C39 C40 1_555 1_555
Zn1 N1 1_555 1_555
O7 Zn1 1_555 1_555
O8 C27 1_555 1_555
O9 C27 1_555 1_555
O10 C26 1_555 1_555
C14 H7 1_555 1_555
C15 C14 1_555 1_555
C16 C15 1_555 1_555
H8 C16 1_555 1_555
C17 C16 1_555 1_555
H9 C17 1_555 1_555
C18 H10 1_555 1_555
C19 C18 1_555 1_555
H11 C19 1_555 1_555
C20 C19 1_555 1_555
C21 C20 1_555 1_555
H12 C21 1_555 1_555
C22 C14 1_555 1_555
C23 C17 1_555 1_555
C24 C18 1_555 1_555
C25 C21 1_555 1_555
C26 C22 1_555 1_555
C27 C20 1_555 1_555
C28 O6 1_555 1_555
C34 C33 1_555 1_555
H15 C34 1_555 1_555
C35 N1 1_555 1_555
H16 C35 1_555 1_555
H17 C37 1_555 1_555
C38 C37 1_555 1_555
H18 C38 1_555 1_555
Zn4 O9 1_555 1_555
Zn7 O8 1_555 1_555
O14 Zn1 1_555 1_555
O7 C28 1_555 1_555
C15 C28 1_555 1_555
C22 C23 1_555 1_555
C23 C24 1_555 1_555
C24 C25 1_555 1_555
C25 C26 1_555 1_555
C34 C35 1_555 1_555
Zn7 N2_2 1_555 1_555
O11 C30_2 1_555 1_555
O12 C30_2 1_555 1_555
O5_2 C13_2 1_555 1_555
O13 C27_2 1_555 1_555
O14 C27_2 1_555 1_555
O10_2 C26_2 1_555 1_555
C1_2 H1_2 1_555 1_555
C2_2 C1_2 1_555 1_555
C3_2 C2_2 1_555 1_555
H2_2 C3_2 1_555 1_555
C4_2 C3_2 1_555 1_555
H3_2 C4_2 1_555 1_555
C5_2 H4_2 1_555 1_555
C6_2 C5_2 1_555 1_555
H5_2 C6_2 1_555 1_555
C7_2 C6_2 1_555 1_555
C8_2 C7_2 1_555 1_555
H6_2 C8_2 1_555 1_555
C9_2 C1_2 1_555 1_555
C10_2 C4_2 1_555 1_555
C11_2 C5_2 1_555 1_555
C12_2 C8_2 1_555 1_555
C13_2 C9_2 1_555 1_555
C14_2 H7_2 1_555 1_555
H9_2 C17_2 1_555 1_555
C18_2 H10_2 1_555 1_555
C19_2 C18_2 1_555 1_555
H11_2 C19_2 1_555 1_555
C20_2 C19_2 1_555 1_555
C21_2 C20_2 1_555 1_555
H12_2 C21_2 1_555 1_555
C22_2 C14_2 1_555 1_555
C23_2 C17_2 1_555 1_555
C24_2 C18_2 1_555 1_555
C25_2 C21_2 1_555 1_555
C26_2 C22_2 1_555 1_555
C27_2 C20_2 1_555 1_555
C30_2 C7_2 1_555 1_555
C9_2 C10_2 1_555 1_555
C10_2 C11_2 1_555 1_555
C11_2 C12_2 1_555 1_555
C12_2 C13_2 1_555 1_555
C22_2 C23_2 1_555 1_555
C23_2 C24_2 1_555 1_555
C24_2 C25_2 1_555 1_555
C25_2 C26_2 1_555 1_555
Zn4 N1_2 1_555 1_555
Zn7 O1_2 1_555 1_555
N1_2 C31_2 1_555 1_555
O1_2 C29_2 1_555 1_555
O2_2 Zn4 1_555 1_555
O6_2 Zn7 1_555 1_555
O7_2 Zn4 1_555 1_555
C16_2 C15_2 1_555 1_555
H8_2 C16_2 1_555 1_555
C28_2 O6_2 1_555 1_555
C29_2 O2_2 1_555 1_555
C31_2 H13_2 1_555 1_555
C32_2 C31_2 1_555 1_555
H14_2 C32_2 1_555 1_555
C33_2 C32_2 1_555 1_555
C34_2 C33_2 1_555 1_555
H15_2 C34_2 1_555 1_555
C35_2 N1_2 1_555 1_555
H16_2 C35_2 1_555 1_555
C36_2 C33_2 1_555 1_555
C37_2 C36_2 1_555 1_555
H17_2 C37_2 1_555 1_555
C38_2 C37_2 1_555 1_555
H18_2 C38_2 1_555 1_555
C40_2 C36_2 1_555 1_555
H20_2 C40_2 1_555 1_555
O7_2 C28_2 1_555 1_555
C15_2 C28_2 1_555 1_555
C34_2 C35_2 1_555 1_555
C39_2 C40_2 1_555 1_555
Zn1_2 N1_3 1_555 1_555
Zn2 O1_3 1_555 1_555
N1_3 C31_3 1_555 1_555
O1_3 C29_3 1_555 1_555
O2_3 Zn1_2 1_555 1_555
O6_3 Zn2 1_555 1_555
O7_3 Zn1_2 1_555 1_555
C16_3 C15_3 1_555 1_555
H8_3 C16_3 1_555 1_555
C28_3 O6_3 1_555 1_555
C29_3 O2_3 1_555 1_555
C31_3 H13_3 1_555 1_555
C32_3 C31_3 1_555 1_555
H14_3 C32_3 1_555 1_555
C33_3 C32_3 1_555 1_555
C34_3 C33_3 1_555 1_555
H15_3 C34_3 1_555 1_555
C35_3 N1_3 1_555 1_555
H16_3 C35_3 1_555 1_555
C36_3 C33_3 1_555 1_555
C37_3 C36_3 1_555 1_555
H17_3 C37_3 1_555 1_555
C38_3 C37_3 1_555 1_555
H18_3 C38_3 1_555 1_555
C40_3 C36_3 1_555 1_555
H20_3 C40_3 1_555 1_555
N3 Zn2 1_555 1_555
O11_2 Zn2 1_555 1_555
O12_2 Zn1_2 1_555 1_555
O13_2 Zn2 1_555 1_555
O14_2 Zn1_2 1_555 1_555
O7_3 C28_3 1_555 1_555
C15_3 C28_3 1_555 1_555
C34_3 C35_3 1_555 1_555
C39_3 C40_3 1_555 1_555
O3_2 C30_3 1_555 1_555
O4_2 C30_3 1_555 1_555
O5_3 C13_3 1_555 1_555
O8_2 C27_3 1_555 1_555
O9_2 C27_3 1_555 1_555
O10_3 C26_3 1_555 1_555
C1_3 H1_3 1_555 1_555
C2_3 C1_3 1_555 1_555
C3_3 C2_3 1_555 1_555
H2_3 C3_3 1_555 1_555
C4_3 C3_3 1_555 1_555
H3_3 C4_3 1_555 1_555
C5_3 H4_3 1_555 1_555
C6_3 C5_3 1_555 1_555
H5_3 C6_3 1_555 1_555
C7_3 C6_3 1_555 1_555
C8_3 C7_3 1_555 1_555
H6_3 C8_3 1_555 1_555
C9_3 C1_3 1_555 1_555
C10_3 C4_3 1_555 1_555
C11_3 C5_3 1_555 1_555
C12_3 C8_3 1_555 1_555
C13_3 C9_3 1_555 1_555
C14_3 H7_3 1_555 1_555
H9_3 C17_3 1_555 1_555
C18_3 H10_3 1_555 1_555
C19_3 C18_3 1_555 1_555
H11_3 C19_3 1_555 1_555
C20_3 C19_3 1_555 1_555
C21_3 C20_3 1_555 1_555
H12_3 C21_3 1_555 1_555
C22_3 C14_3 1_555 1_555
C23_3 C17_3 1_555 1_555
C24_3 C18_3 1_555 1_555
C25_3 C21_3 1_555 1_555
C26_3 C22_3 1_555 1_555
C27_3 C20_3 1_555 1_555
C30_3 C7_3 1_555 1_555
Zn4_2 O9_2 1_555 1_555
Zn7_2 O3_2 1_555 1_555
C9_3 C10_3 1_555 1_555
C10_3 C11_3 1_555 1_555
C11_3 C12_3 1_555 1_555
C12_3 C13_3 1_555 1_555
C22_3 C23_3 1_555 1_555
C23_3 C24_3 1_555 1_555
C24_3 C25_3 1_555 1_555
C25_3 C26_3 1_555 1_555
Zn4_2 N1_4 1_555 1_555
O7_4 Zn4_2 1_555 1_555
O13_2 C27_4 1_555 1_555
O14_2 C27_4 1_555 1_555
O10_4 C26_4 1_555 1_555
C14_4 H7_4 1_555 1_555
C15_4 C14_4 1_555 1_555
C16_4 C15_4 1_555 1_555
H8_4 C16_4 1_555 1_555
C17_4 C16_4 1_555 1_555
H9_4 C17_4 1_555 1_555
C18_4 H10_4 1_555 1_555
C19_4 C18_4 1_555 1_555
H11_4 C19_4 1_555 1_555
C20_4 C19_4 1_555 1_555
C21_4 C20_4 1_555 1_555
H12_4 C21_4 1_555 1_555
C22_4 C14_4 1_555 1_555
C23_4 C17_4 1_555 1_555
C24_4 C18_4 1_555 1_555
C25_4 C21_4 1_555 1_555
C26_4 C22_4 1_555 1_555
C27_4 C20_4 1_555 1_555
C28_4 O6_4 1_555 1_555
C34_4 C33_4 1_555 1_555
H15_4 C34_4 1_555 1_555
C35_4 N1_4 1_555 1_555
H16_4 C35_4 1_555 1_555
H17_4 C37_4 1_555 1_555
C38_4 C37_4 1_555 1_555
H18_4 C38_4 1_555 1_555
O7_4 C28_4 1_555 1_555
C15_4 C28_4 1_555 1_555
C22_4 C23_4 1_555 1_555
C23_4 C24_4 1_555 1_555
C24_4 C25_4 1_555 1_555
C25_4 C26_4 1_555 1_555
C34_4 C35_4 1_555 1_555
Zn7_2 O1_4 1_555 1_555
O1_4 C29_4 1_555 1_555
O11_2 C30_4 1_555 1_555
O12_2 C30_4 1_555 1_555
O5_4 C13_4 1_555 1_555
C1_4 H1_4 1_555 1_555
C2_4 C1_4 1_555 1_555
C3_4 C2_4 1_555 1_555
H2_4 C3_4 1_555 1_555
C4_4 C3_4 1_555 1_555
H3_4 C4_4 1_555 1_555
C5_4 H4_4 1_555 1_555
C6_4 C5_4 1_555 1_555
H5_4 C6_4 1_555 1_555
C7_4 C6_4 1_555 1_555
C8_4 C7_4 1_555 1_555
H6_4 C8_4 1_555 1_555
C9_4 C1_4 1_555 1_555
C10_4 C4_4 1_555 1_555
C11_4 C5_4 1_555 1_555
C12_4 C8_4 1_555 1_555
C13_4 C9_4 1_555 1_555
C29_4 O2_4 1_555 1_555
C30_4 C7_4 1_555 1_555
C31_4 H13_4 1_555 1_555
C32_4 C31_4 1_555 1_555
H14_4 C32_4 1_555 1_555
C40_4 C36_4 1_555 1_555
H20_4 C40_4 1_555 1_555
N3_2 Zn7_2 1_555 1_555
C2_4 C29_4 1_555 1_555
C9_4 C10_4 1_555 1_555
C10_4 C11_4 1_555 1_555
C11_4 C12_4 1_555 1_555
C12_4 C13_4 1_555 1_555
C39_4 C40_4 1_555 1_555

#END
