
###############################################################################
#
# This file contains modified crystal structure data generated from the
# MOF subset of the Cambridge Structural Database (CSD) v543 
# hosted by the Cambridge Crystallographic Data Centre (CCDC).
#
# This work is licensed under the Creative Commons
# Attribution-NonCommercial-ShareAlike 4.0 International License.
# To view a copy of this license, visit
# http://creativecommons.org/licenses/by-nc-sa/4.0/
# or send a letter to
# Creative Commons, PO Box 1866, Mountain View, CA 94042, USA.
#
# CIF created using the CSD Python API on 29 September 2022
# The structure has been converted into the P1 space group
# The structure has a 3D framework
# The original CSD entry PEKGET is in the monoclinic crystal system
# The framework has been calculated to contain at least 10.0% void space
# The void calculation uses a probe of radius 1.32A, grid spacing 0.4
#
###############################################################################

data_PEKGET
_chemical_formula_moiety         '(C88 H48 Co4 N20 O30 Sm4)n'
_symmetry_cell_setting           triclinic
_symmetry_space_group_name_H-M   'P 1'
_symmetry_Int_Tables_number      1
_space_group_name_Hall           'P 1'
loop_
_symmetry_equiv_pos_site_id
_symmetry_equiv_pos_as_xyz
1 x,y,z
_cell_length_a                   10.7146(10)
_cell_length_b                   12.9385(12)
_cell_length_c                   20.8587(16)
_cell_angle_alpha                90
_cell_angle_beta                 120.343(3)
_cell_angle_gamma                90
_cell_volume                     2495.55
loop_
_atom_site_label
_atom_site_type_symbol
_atom_site_fract_x
_atom_site_fract_y
_atom_site_fract_z
Sm3 Sm 0.57291(3) 0.357029(19) 0.008305(13)
O2 O 0.5460(4) 0.0110(2) 0.58003(18)
O3 O 0.5247(5) 0.2331(3) 0.5878(2)
O4 O 0.5445(4) 0.3342(3) 0.6774(2)
O6 O 0.3068(4) 0.1498(3) 0.4463(2)
N1 N 0.5279(4) 0.1809(3) 0.7565(2)
N2 N 0.4925(4) 0.0099(3) 0.7366(2)
N3 N 0.4963(5) 0.1774(4) 0.9477(3)
C2 C 0.5184(5) 0.0513(4) 0.6840(3)
C3 C 0.5372(5) 0.1571(4) 0.6950(3)
C4 C 0.5390(6) 0.2463(4) 0.6508(3)
C5 C 0.4984(5) 0.0906(4) 0.7785(3)
C6 C 0.4616(6) 0.0890(4) 0.8376(3)
C7 C 0.3502(7) 0.0314(4) 0.8350(3)
C8 C 0.5326(6) 0.1587(4) 0.8959(3)
H2 H 0.6107 0.1948 0.8992
C9 C 0.3164(7) 0.0447(5) 0.8905(4)
H3 H 0.2450 0.0050 0.8915
C10 C 0.3921(8) 0.1186(5) 0.9443(4)
H4 H 0.3679 0.1276 0.9809
C11 C 0.2240(6) 0.0820(4) 0.4470(3)
C12 C 0.0650(5) 0.1071(4) 0.4110(3)
C14 C 0.0054(6) 0.1978(5) 0.3743(3)
H6 H 0.0646 0.2494 0.3731
Sm2 Sm 0.57291(3) 0.142971(19) 0.508305(13)
Co2 Co 0.53219(7) 0.34725(5) 0.77196(3)
Sm1 Sm 0.42709(3) 0.857029(19) 0.491695(13)
Co1 Co 0.46781(7) 0.84725(5) 0.72804(3)
O1 O 0.4793(3) 0.8881(2) 0.62834(17)
O5 O 0.2602(4) 0.9941(3) 0.4760(2)
O7 O 0.2094(4) 0.7697(3) 0.4789(2)
O8 O 0.1929(5) 0.8229(4) 0.3745(2)
C1 C 0.5163(5) 0.9818(4) 0.6284(3)
H1 H 0.2987 0.9846 0.7966
H5 H 0.0069 0.9729 0.4374
C17 C 0.1401(6) 0.7802(5) 0.4100(3)
O9 O 0.4540(4) 0.9890(2) 0.41997(18)
O10 O 0.4753(5) 0.7669(3) 0.4122(2)
O11 O 0.4555(4) 0.8342(3) 0.8226(2)
O12 O 0.6932(4) 0.8502(3) 0.5537(2)
N6 N 0.4721(4) 0.6809(3) 0.7435(2)
N7 N 0.5037(5) 0.6774(4) 0.5523(3)
N8 N 0.2326(4) 0.8563(3) 0.6590(2)
N9 N 0.7029(5) 0.8284(3) 0.7868(3)
N4 N 0.7674(4) 0.1437(3) 0.3410(2)
C13 C 0.9717(6) 0.0357(5) 0.4131(3)
C15 C 0.8267(6) 0.0575(5) 0.3795(3)
H7 H 0.7666 0.0095 0.3838
C16 C 0.8576(6) 0.2127(5) 0.3391(4)
H8 H 0.8194 0.2738 0.3129
Co3 Co 0.53219(7) 0.15275(5) 0.27196(3)
N5 N 0.7029(5) 0.6716(3) 0.2868(3)
C18 C 0.9870(6) 0.7401(5) 0.3660(3)
C19 C 0.9118(6) 0.7405(5) 0.2903(3)
H9 H 0.9553 0.7646 0.2642
C20 C 0.9194(7) 0.7037(6) 0.4025(4)
H10 H 0.9676 0.7016 0.4541
C21 C 0.7719(6) 0.7054(5) 0.2527(3)
H11 H 0.7229 0.7052 0.2010
C22 C 0.7760(7) 0.6698(6) 0.3600(4)
H12 H 0.7301 0.6449 0.3846
Co4 Co 0.46781(7) 0.65275(5) 0.22804(3)
N4_2 N 0.2326(4) 0.6437(3) 0.1590(2)
N5_2 N 0.2971(5) 0.1716(3) 0.2132(3)
C13_2 C 0.0283(6) 0.5357(5) 0.0869(3)
C15_2 C 0.1733(6) 0.5575(5) 0.1205(3)
H7_2 H 0.2334 0.5095 0.1162
C16_2 C 0.1424(6) 0.7127(5) 0.1609(4)
H8_2 H 0.1806 0.7738 0.1871
C18_2 C 0.0130(6) 0.2401(5) 0.1340(3)
C19_2 C 0.0882(6) 0.2405(5) 0.2097(3)
H9_2 H 0.0447 0.2646 0.2358
C20_2 C 0.0806(7) 0.2037(6) 0.0975(4)
H10_2 H 0.0324 0.2016 0.0459
C21_2 C 0.2281(6) 0.2054(5) 0.2473(3)
H11_2 H 0.2771 0.2052 0.2990
C22_2 C 0.2240(7) 0.1698(6) 0.1400(4)
H12_2 H 0.2699 0.1449 0.1154
O5_2 O 0.7398(4) 0.4941(3) 0.0240(2)
O6_2 O 0.6932(4) 0.6498(3) 0.0537(2)
O7_2 O 0.7906(4) 0.2697(3) 0.0211(2)
O8_2 O 0.8071(5) 0.3229(4) 0.1255(2)
C11_2 C 0.7760(6) 0.5820(4) 0.0530(3)
C12_2 C 0.9350(5) 0.6071(4) 0.0890(3)
H5_2 H 0.9931 0.4729 0.0626
C14_2 C 0.9946(6) 0.6978(5) 0.1257(3)
H6_2 H 0.9354 0.7494 0.1269
C17_2 C 0.8599(6) 0.2802(5) 0.0900(3)
O9_2 O 0.5460(4) 0.4890(2) 0.08003(18)
O10_2 O 0.5247(5) 0.2669(3) 0.0878(2)
O1_2 O 0.5207(3) 0.3881(2) 0.87166(17)
O2_2 O 0.4540(4) 0.5110(2) 0.91997(18)
O3_2 O 0.4753(5) 0.7331(3) 0.9122(2)
N2_2 N 0.5075(4) 0.5099(3) 0.7634(2)
C1_2 C 0.4837(5) 0.4818(4) 0.8716(3)
C2_2 C 0.4816(5) 0.5513(4) 0.8160(3)
C3_2 C 0.4628(5) 0.6571(4) 0.8050(3)
C4_2 C 0.4610(6) 0.7463(4) 0.8492(3)
C5_2 C 0.5016(5) 0.5906(4) 0.7215(3)
C6_2 C 0.5384(6) 0.5890(4) 0.6624(3)
C7_2 C 0.6498(7) 0.5314(4) 0.6650(3)
H1_2 H 0.7013 0.4846 0.7034
C8_2 C 0.4674(6) 0.6587(4) 0.6041(3)
H2_2 H 0.3893 0.6948 0.6008
C9_2 C 0.6836(7) 0.5447(5) 0.6095(4)
H3_2 H 0.7550 0.5050 0.6085
C10_2 C 0.6079(8) 0.6186(5) 0.5557(4)
H4_2 H 0.6321 0.6276 0.5191
Sm2_2 Sm 0.42709(3) 0.642971(19) 0.991695(13)
O12_2 O 0.3068(4) 0.3502(3) 0.9463(2)
N8_2 N 0.7674(4) 0.3563(3) 0.8410(2)
N9_2 N 0.2971(5) 0.3284(3) 0.7132(3)
C18_3 C 0.0130(6) 0.2599(5) 0.6340(3)
C19_3 C 0.0882(6) 0.2595(5) 0.7097(3)
H9_3 H 0.0447 0.2354 0.7358
C20_3 C 0.0806(7) 0.2963(6) 0.5975(4)
H10_3 H 0.0324 0.2984 0.5459
C21_3 C 0.2281(6) 0.2946(5) 0.7473(3)
H11_3 H 0.2771 0.2948 0.7990
C22_3 C 0.2240(7) 0.3302(6) 0.6400(4)
H12_3 H 0.2699 0.3551 0.6154
C13_3 C 0.0283(6) 0.9643(5) 0.5869(3)
C15_3 C 0.1733(6) 0.9425(5) 0.6205(3)
H7_3 H 0.2334 0.9905 0.6162
C16_3 C 0.1424(6) 0.7873(5) 0.6609(4)
H8_3 H 0.1806 0.7262 0.6871
O1_3 O 0.5207(3) 0.1119(2) 0.37166(17)
O5_3 O 0.7398(4) 0.0059(3) 0.5240(2)
O7_3 O 0.7906(4) 0.2303(3) 0.5211(2)
O8_3 O 0.8071(5) 0.1771(4) 0.6255(2)
C1_3 C 0.4837(5) 0.0182(4) 0.3716(3)
H1_3 H 0.7013 0.0154 0.2034
H5_3 H 0.9931 0.0271 0.5626
C17_3 C 0.8599(6) 0.2198(5) 0.5900(3)
O11_2 O 0.5445(4) 0.1658(3) 0.1774(2)
N6_2 N 0.5279(4) 0.3191(3) 0.2565(2)
N7_2 N 0.4963(5) 0.3226(4) 0.4477(3)
O4_2 O 0.4555(4) 0.6658(3) 0.3226(2)
N1_2 N 0.4721(4) 0.8191(3) 0.2435(2)
N2_3 N 0.5075(4) 0.9901(3) 0.2634(2)
N3_2 N 0.5037(5) 0.8226(4) 0.0523(3)
C2_3 C 0.4816(5) 0.9487(4) 0.3160(3)
C3_3 C 0.4628(5) 0.8429(4) 0.3050(3)
C4_3 C 0.4610(6) 0.7537(4) 0.3492(3)
C5_3 C 0.5016(5) 0.9094(4) 0.2215(3)
C6_3 C 0.5384(6) 0.9110(4) 0.1624(3)
C7_3 C 0.6498(7) 0.9686(4) 0.1650(3)
C8_3 C 0.4674(6) 0.8413(4) 0.1041(3)
H2_3 H 0.3893 0.8052 0.1008
C9_3 C 0.6836(7) 0.9553(5) 0.1095(4)
H3_3 H 0.7550 0.9950 0.1085
C10_3 C 0.6079(8) 0.8814(5) 0.0557(4)
H4_3 H 0.6321 0.8724 0.0191
C11_3 C 0.7760(6) 0.9180(4) 0.5530(3)
C12_3 C 0.9350(5) 0.8929(4) 0.5890(3)
C14_3 C 0.9946(6) 0.8022(5) 0.6257(3)
H6_3 H 0.9354 0.7506 0.6269
O1_4 O 0.4793(3) 0.6119(2) 0.12834(17)
N2_4 N 0.4925(4) 0.4901(3) 0.2366(2)
C1_4 C 0.5163(5) 0.5182(4) 0.1284(3)
C2_4 C 0.5184(5) 0.4487(4) 0.1840(3)
C3_4 C 0.5372(5) 0.3429(4) 0.1950(3)
C4_4 C 0.5390(6) 0.2537(4) 0.1508(3)
C5_4 C 0.4984(5) 0.4094(4) 0.2785(3)
C6_4 C 0.4616(6) 0.4110(4) 0.3376(3)
C7_4 C 0.3502(7) 0.4686(4) 0.3350(3)
H1_4 H 0.2987 0.5154 0.2966
C8_4 C 0.5326(6) 0.3413(4) 0.3959(3)
H2_4 H 0.6107 0.3052 0.3992
C9_4 C 0.3164(7) 0.4553(5) 0.3905(4)
H3_4 H 0.2450 0.4950 0.3915
C10_4 C 0.3921(8) 0.3814(5) 0.4443(4)
H4_4 H 0.3679 0.3724 0.4809
O5_4 O 0.2602(4) 0.5059(3) 0.9760(2)
O7_4 O 0.2094(4) 0.7303(3) 0.9789(2)
O8_4 O 0.1929(5) 0.6771(4) 0.8745(2)
C11_4 C 0.2240(6) 0.4180(4) 0.9470(3)
C12_4 C 0.0650(5) 0.3929(4) 0.9110(3)
H5_4 H 0.0069 0.5271 0.9374
C14_4 C 0.0054(6) 0.3022(5) 0.8743(3)
H6_4 H 0.0646 0.2506 0.8731
C17_4 C 0.1401(6) 0.7198(5) 0.9100(3)
C13_4 C 0.9717(6) 0.4643(5) 0.9131(3)
C15_4 C 0.8267(6) 0.4425(5) 0.8795(3)
H7_4 H 0.7666 0.4905 0.8838
C16_4 C 0.8576(6) 0.2873(5) 0.8391(4)
H8_4 H 0.8194 0.2262 0.8129
C18_4 C 0.9870(6) 0.7599(5) 0.8660(3)
C19_4 C 0.9118(6) 0.7595(5) 0.7903(3)
H9_4 H 0.9553 0.7354 0.7642
C20_4 C 0.9194(7) 0.7963(6) 0.9025(4)
H10_4 H 0.9676 0.7984 0.9541
C21_4 C 0.7719(6) 0.7946(5) 0.7527(3)
H11_4 H 0.7229 0.7948 0.7010
C22_4 C 0.7760(7) 0.8302(6) 0.8600(4)
H12_4 H 0.7301 0.8551 0.8846
loop_
_geom_bond_atom_site_label_1
_geom_bond_atom_site_label_2
_geom_bond_site_symmetry_1
_geom_bond_site_symmetry_2
O3 C4 1_555 1_555
O4 C4 1_555 1_555
O6 C11 1_555 1_555
N1 C3 1_555 1_555
N3 C8 1_555 1_555
C2 N2 1_555 1_555
C3 C2 1_555 1_555
C4 C3 1_555 1_555
C5 N1 1_555 1_555
C6 C5 1_555 1_555
C7 C6 1_555 1_555
C8 C6 1_555 1_555
H2 C8 1_555 1_555
C9 C7 1_555 1_555
H3 C9 1_555 1_555
C10 N3 1_555 1_555
H4 C10 1_555 1_555
C12 C11 1_555 1_555
C14 C12 1_555 1_555
H6 C14 1_555 1_555
Sm2 O2 1_555 1_555
Co2 O4 1_555 1_555
O3 Sm2 1_555 1_555
O6 Sm2 1_555 1_555
N1 Co2 1_555 1_555
N2 C5 1_555 1_555
C9 C10 1_555 1_555
Sm1 O1 1_555 1_555
Co1 O1 1_555 1_555
O1 C1 1_555 1_555
O5 Sm1 1_555 1_555
O7 Sm1 1_555 1_555
O8 Sm1 1_555 1_555
C17 O7 1_555 1_555
O9 Sm1 1_555 1_555
O10 Sm1 1_555 1_555
O11 Co1 1_555 1_555
O12 Sm1 1_555 1_555
N6 Co1 1_555 1_555
N7 Sm1 1_555 1_555
N8 Co1 1_555 1_555
N9 Co1 1_555 1_555
O8 C17 1_555 1_555
N4 C15 1_555 1_555
C15 C13 1_555 1_555
H7 C15 1_555 1_555
C16 N4 1_555 1_555
H8 C16 1_555 1_555
Co3 N4 1_555 1_555
N5 C21 1_555 1_555
C19 C18 1_555 1_555
H9 C19 1_555 1_555
C20 C18 1_555 1_555
H10 C20 1_555 1_555
C21 C19 1_555 1_555
H11 C21 1_555 1_555
C22 N5 1_555 1_555
H12 C22 1_555 1_555
Co4 N5 1_555 1_555
C20 C22 1_555 1_555
N4_2 C15_2 1_555 1_555
N5_2 C21_2 1_555 1_555
C15_2 C13_2 1_555 1_555
H7_2 C15_2 1_555 1_555
C16_2 N4_2 1_555 1_555
H8_2 C16_2 1_555 1_555
C19_2 C18_2 1_555 1_555
H9_2 C19_2 1_555 1_555
C20_2 C18_2 1_555 1_555
H10_2 C20_2 1_555 1_555
C21_2 C19_2 1_555 1_555
H11_2 C21_2 1_555 1_555
C22_2 N5_2 1_555 1_555
H12_2 C22_2 1_555 1_555
Co4 N4_2 1_555 1_555
Co3 N5_2 1_555 1_555
C20_2 C22_2 1_555 1_555
O5_2 Sm3 1_555 1_555
O6_2 C11_2 1_555 1_555
O7_2 Sm3 1_555 1_555
O8_2 Sm3 1_555 1_555
C11_2 O5_2 1_555 1_555
C12_2 C11_2 1_555 1_555
C14_2 C12_2 1_555 1_555
H6_2 C14_2 1_555 1_555
C17_2 O7_2 1_555 1_555
O9_2 Sm3 1_555 1_555
O10_2 Sm3 1_555 1_555
O8_2 C17_2 1_555 1_555
Co2 O1_2 1_555 1_555
O1_2 C1_2 1_555 1_555
O3_2 C4_2 1_555 1_555
O11 C4_2 1_555 1_555
N6 C3_2 1_555 1_555
N2_2 Co2 1_555 1_555
N7 C8_2 1_555 1_555
C1_2 O2_2 1_555 1_555
C2_2 N2_2 1_555 1_555
C3_2 C2_2 1_555 1_555
C4_2 C3_2 1_555 1_555
C5_2 N6 1_555 1_555
C6_2 C5_2 1_555 1_555
C7_2 C6_2 1_555 1_555
H1_2 C7_2 1_555 1_555
C8_2 C6_2 1_555 1_555
H2_2 C8_2 1_555 1_555
C9_2 C7_2 1_555 1_555
H3_2 C9_2 1_555 1_555
C10_2 N7 1_555 1_555
H4_2 C10_2 1_555 1_555
Sm2_2 O2_2 1_555 1_555
N8_2 Co2 1_555 1_555
N9_2 Co2 1_555 1_555
O3_2 Sm2_2 1_555 1_555
N2_2 C5_2 1_555 1_555
C1_2 C2_2 1_555 1_555
C9_2 C10_2 1_555 1_555
N9_2 C21_3 1_555 1_555
C19_3 C18_3 1_555 1_555
H9_3 C19_3 1_555 1_555
C20_3 C18_3 1_555 1_555
H10_3 C20_3 1_555 1_555
C21_3 C19_3 1_555 1_555
H11_3 C21_3 1_555 1_555
C22_3 N9_2 1_555 1_555
H12_3 C22_3 1_555 1_555
C20_3 C22_3 1_555 1_555
N8 C15_3 1_555 1_555
C15_3 C13_3 1_555 1_555
H7_3 C15_3 1_555 1_555
C16_3 N8 1_555 1_555
H8_3 C16_3 1_555 1_555
Sm2 O1_3 1_555 1_555
Co3 O1_3 1_555 1_555
O1_3 C1_3 1_555 1_555
O5_3 Sm2 1_555 1_555
O7_3 Sm2 1_555 1_555
O8_3 Sm2 1_555 1_555
C17_3 O7_3 1_555 1_555
O11_2 Co3 1_555 1_555
N6_2 Co3 1_555 1_555
N7_2 Sm2 1_555 1_555
O8_3 C17_3 1_555 1_555
O10 C4_3 1_555 1_555
O4_2 C4_3 1_555 1_555
O12 C11_3 1_555 1_555
N1_2 C3_3 1_555 1_555
N3_2 C8_3 1_555 1_555
C2_3 N2_3 1_555 1_555
C3_3 C2_3 1_555 1_555
C4_3 C3_3 1_555 1_555
C5_3 N1_2 1_555 1_555
C6_3 C5_3 1_555 1_555
C7_3 C6_3 1_555 1_555
C8_3 C6_3 1_555 1_555
H2_3 C8_3 1_555 1_555
C9_3 C7_3 1_555 1_555
H3_3 C9_3 1_555 1_555
C10_3 N3_2 1_555 1_555
H4_3 C10_3 1_555 1_555
C12_3 C11_3 1_555 1_555
C14_3 C12_3 1_555 1_555
H6_3 C14_3 1_555 1_555
Co4 O4_2 1_555 1_555
N1_2 Co4 1_555 1_555
N2_3 C5_3 1_555 1_555
C9_3 C10_3 1_555 1_555
Co4 O1_4 1_555 1_555
O1_4 C1_4 1_555 1_555
O10_2 C4_4 1_555 1_555
O11_2 C4_4 1_555 1_555
N6_2 C3_4 1_555 1_555
N2_4 Co4 1_555 1_555
N7_2 C8_4 1_555 1_555
C1_4 O9_2 1_555 1_555
C2_4 N2_4 1_555 1_555
C3_4 C2_4 1_555 1_555
C4_4 C3_4 1_555 1_555
C5_4 N6_2 1_555 1_555
C6_4 C5_4 1_555 1_555
C7_4 C6_4 1_555 1_555
H1_4 C7_4 1_555 1_555
C8_4 C6_4 1_555 1_555
H2_4 C8_4 1_555 1_555
C9_4 C7_4 1_555 1_555
H3_4 C9_4 1_555 1_555
C10_4 N7_2 1_555 1_555
H4_4 C10_4 1_555 1_555
N2_4 C5_4 1_555 1_555
C1_4 C2_4 1_555 1_555
C9_4 C10_4 1_555 1_555
O5_4 Sm2_2 1_555 1_555
O12_2 C11_4 1_555 1_555
O7_4 Sm2_2 1_555 1_555
O8_4 Sm2_2 1_555 1_555
C11_4 O5_4 1_555 1_555
C12_4 C11_4 1_555 1_555
C14_4 C12_4 1_555 1_555
H6_4 C14_4 1_555 1_555
C17_4 O7_4 1_555 1_555
O8_4 C17_4 1_555 1_555
N8_2 C15_4 1_555 1_555
N9 C21_4 1_555 1_555
C15_4 C13_4 1_555 1_555
H7_4 C15_4 1_555 1_555
C16_4 N8_2 1_555 1_555
H8_4 C16_4 1_555 1_555
C19_4 C18_4 1_555 1_555
H9_4 C19_4 1_555 1_555
C20_4 C18_4 1_555 1_555
H10_4 C20_4 1_555 1_555
C21_4 C19_4 1_555 1_555
H11_4 C21_4 1_555 1_555
C22_4 N9 1_555 1_555
H12_4 C22_4 1_555 1_555
C20_4 C22_4 1_555 1_555

#END
