
###############################################################################
#
# This file contains modified crystal structure data generated from the
# MOF subset of the Cambridge Structural Database (CSD) v543 
# hosted by the Cambridge Crystallographic Data Centre (CCDC).
#
# This work is licensed under the Creative Commons
# Attribution-NonCommercial-ShareAlike 4.0 International License.
# To view a copy of this license, visit
# http://creativecommons.org/licenses/by-nc-sa/4.0/
# or send a letter to
# Creative Commons, PO Box 1866, Mountain View, CA 94042, USA.
#
# CIF created using the CSD Python API on 29 September 2022
# The structure has been converted into the P1 space group
# The structure has a 3D framework
# The original CSD entry PEKGIX is in the monoclinic crystal system
# The framework has been calculated to contain at least 10.0% void space
# The void calculation uses a probe of radius 1.32A, grid spacing 0.4
#
###############################################################################

data_PEKGIX
_chemical_formula_moiety         '(C88 H48 N20 Ni4 O27 Sm4)n'
_symmetry_cell_setting           triclinic
_symmetry_space_group_name_H-M   'P 1'
_symmetry_Int_Tables_number      1
_space_group_name_Hall           'P 1'
loop_
_symmetry_equiv_pos_site_id
_symmetry_equiv_pos_as_xyz
1 x,y,z
_cell_length_a                   10.6460(13)
_cell_length_b                   12.7722(16)
_cell_length_c                   20.8458(19)
_cell_angle_alpha                90
_cell_angle_beta                 120.083(4)
_cell_angle_gamma                90
_cell_volume                     2452.66
loop_
_atom_site_label
_atom_site_type_symbol
_atom_site_fract_x
_atom_site_fract_y
_atom_site_fract_z
Ni3 Ni 0.03053(12) 0.65305(9) 0.77149(6)
O6 O 0.1926(6) 0.1520(5) 0.5547(3)
N5 N 0.7379(7) 0.1437(6) 0.6626(4)
C4 C 0.0155(9) 0.0196(6) 0.6280(4)
C11 C 0.2776(10) 0.0833(8) 0.5550(5)
C12 C 0.4381(10) 0.1091(7) 0.5916(5)
C13 C 0.4969(10) 0.2006(8) 0.6291(5)
H5 H 0.4381 0.2527 0.6313
C14 C 0.5304(10) 0.0374(8) 0.5886(5)
C15 C 0.6469(10) 0.2138(8) 0.6639(5)
H7 H 0.6859 0.2758 0.6897
C16 C 0.6781(10) 0.0582(8) 0.6233(5)
H8 H 0.7380 0.0096 0.6185
Ni4 Ni 0.96947(12) 0.15305(9) 0.72851(6)
Sm3 Sm 0.07338(5) 0.64463(4) 0.00878(2)
Sm1 Sm 0.07338(5) 0.85537(4) 0.50878(2)
O1 O 0.0404(7) 0.6633(4) 0.6775(3)
O2 O 0.0227(8) 0.7660(5) 0.5879(3)
O3 O 0.0452(7) 0.9889(4) 0.5799(3)
O5 O 0.2404(7) 0.9928(5) 0.5255(3)
O7 O 0.2908(7) 0.7675(5) 0.5201(4)
O8 O 0.3060(8) 0.8189(6) 0.6244(4)
N1 N 0.0261(8) 0.8184(5) 0.7568(4)
N4 N 0.7999(8) 0.6686(6) 0.7134(4)
C1 C 0.0349(11) 0.7514(7) 0.6499(5)
C2 C 0.0362(9) 0.8416(6) 0.6952(4)
C3 C 0.0185(9) 0.9491(7) 0.6838(4)
C7 C 0.0350(11) 0.8448(7) 0.8974(5)
H1 H 0.1139 0.8084 0.9009
H6 H 0.4943 0.9746 0.5634
C17 C 0.3577(12) 0.7751(8) 0.5881(7)
C18 C 0.5142(11) 0.7345(8) 0.6326(6)
C19 C 0.5881(11) 0.7405(8) 0.7084(6)
H9 H 0.5434 0.7667 0.7336
C20 C 0.5805(12) 0.6928(8) 0.5973(6)
H10 H 0.5312 0.6858 0.5460
C21 C 0.7280(11) 0.7073(7) 0.7460(6)
H11 H 0.7773 0.7117 0.7974
C22 C 0.7251(12) 0.6608(9) 0.6403(6)
H12 H 0.7709 0.6327 0.6163
O10 O 0.0209(6) 0.8848(4) 0.3713(3)
O11 O 0.0209(6) 0.6152(4) 0.8713(3)
N6 N 0.0082(8) 0.4915(5) 0.7639(4)
N9 N 0.2621(7) 0.6437(6) 0.8374(4)
O4 O 0.9791(6) 0.1152(4) 0.6287(3)
H2 H 0.7918 0.0160 0.7945
Sm2 Sm 0.92662(5) 0.14463(4) 0.49122(2)
O9 O 0.9548(7) 0.0111(4) 0.4201(3)
N2 N 0.9918(8) 0.9915(5) 0.7361(4)
N3 N 0.9974(9) 0.8271(6) 0.9497(4)
C5 C 0.9997(10) 0.9093(7) 0.7792(5)
C6 C 0.9624(11) 0.9140(7) 0.8390(5)
C8 C 0.8452(11) 0.9710(7) 0.8341(5)
C9 C 0.8112(12) 0.9592(8) 0.8889(6)
H3 H 0.7379 0.9987 0.8890
C10 C 0.8904(12) 0.8851(8) 0.9455(5)
H4 H 0.8657 0.8766 0.9821
O12 O 0.8074(6) 0.8480(5) 0.4453(3)
N7 N 0.9974(9) 0.6729(6) 0.4497(4)
O9_2 O 0.0452(7) 0.5111(4) 0.0799(3)
O12_2 O 0.1926(6) 0.3480(5) 0.0547(3)
N7_2 N 0.0026(9) 0.1729(6) 0.0503(4)
N3_2 N 0.0026(9) 0.3271(6) 0.5503(4)
C5_2 C 0.0003(10) 0.4093(7) 0.7208(5)
C6_2 C 0.0376(11) 0.4140(7) 0.6610(5)
C8_2 C 0.1548(11) 0.4710(7) 0.6659(5)
H2_2 H 0.2082 0.5160 0.7055
C9_2 C 0.1888(12) 0.4592(8) 0.6111(6)
H3_2 H 0.2621 0.4987 0.6110
C10_2 C 0.1096(12) 0.3851(8) 0.5545(5)
H4_2 H 0.1343 0.3766 0.5179
N8 N 0.2001(8) 0.1686(6) 0.7866(4)
O10_2 O 0.9791(6) 0.3848(4) 0.1287(3)
Sm1_2 Sm 0.92662(5) 0.35537(4) 0.99122(2)
O1_2 O 0.9596(7) 0.1633(4) 0.8225(3)
O2_2 O 0.9773(8) 0.2660(5) 0.9121(3)
O3_2 O 0.9548(7) 0.4889(4) 0.9201(3)
O5_2 O 0.7596(7) 0.4928(5) 0.9745(3)
O6_2 O 0.8074(6) 0.6520(5) 0.9453(3)
O7_2 O 0.7092(7) 0.2675(5) 0.9799(4)
O8_2 O 0.6940(8) 0.3189(6) 0.8756(4)
N1_2 N 0.9739(8) 0.3184(5) 0.7432(4)
C1_2 C 0.9651(11) 0.2514(7) 0.8501(5)
C2_2 C 0.9638(9) 0.3416(6) 0.8048(4)
C3_2 C 0.9815(9) 0.4491(7) 0.8162(4)
C4_2 C 0.9845(9) 0.5196(6) 0.8720(4)
C7_2 C 0.9650(11) 0.3448(7) 0.6026(5)
H1_2 H 0.8861 0.3084 0.5991
C11_2 C 0.7224(10) 0.5833(8) 0.9450(5)
C12_2 C 0.5619(10) 0.6091(7) 0.9084(5)
C13_2 C 0.5031(10) 0.7006(8) 0.8709(5)
H5_2 H 0.5619 0.7527 0.8687
C14_2 C 0.4696(10) 0.5374(8) 0.9114(5)
H6_2 H 0.5057 0.4746 0.9366
C15_2 C 0.3531(10) 0.7138(8) 0.8361(5)
H7_2 H 0.3141 0.7758 0.8103
C16_2 C 0.3219(10) 0.5582(8) 0.8767(5)
H8_2 H 0.2620 0.5096 0.8815
C17_2 C 0.6423(12) 0.2751(8) 0.9119(7)
C18_2 C 0.4858(11) 0.2345(8) 0.8674(6)
C19_2 C 0.4119(11) 0.2405(8) 0.7916(6)
H9_2 H 0.4566 0.2667 0.7664
C20_2 C 0.4195(12) 0.1928(8) 0.9027(6)
H10_2 H 0.4688 0.1858 0.9540
C21_2 C 0.2720(11) 0.2073(7) 0.7540(6)
H11_2 H 0.2227 0.2117 0.7026
C22_2 C 0.2749(12) 0.1608(9) 0.8597(6)
H12_2 H 0.2291 0.1327 0.8837
N2_2 N 0.0082(8) 0.0085(5) 0.2639(4)
C5_3 C 0.0003(10) 0.0907(7) 0.2208(5)
C6_3 C 0.0376(11) 0.0860(7) 0.1610(5)
C8_3 C 0.1548(11) 0.0290(7) 0.1659(5)
C9_3 C 0.1888(12) 0.0408(8) 0.1111(6)
H3_3 H 0.2621 0.0013 0.1110
C10_3 C 0.1096(12) 0.1149(8) 0.0545(5)
H4_3 H 0.1343 0.1234 0.0179
N8_2 N 0.2001(8) 0.3314(6) 0.2866(4)
H2_3 H 0.2082 0.9840 0.2055
Ni2 Ni 0.03053(12) 0.84695(9) 0.27149(6)
Ni1 Ni 0.96947(12) 0.34695(9) 0.22851(6)
O1_3 O 0.9596(7) 0.3367(4) 0.3225(3)
O2_3 O 0.9773(8) 0.2340(5) 0.4121(3)
O5_3 O 0.7596(7) 0.0072(5) 0.4745(3)
O7_3 O 0.7092(7) 0.2325(5) 0.4799(4)
O8_3 O 0.6940(8) 0.1811(6) 0.3756(4)
N1_3 N 0.9739(8) 0.1816(5) 0.2432(4)
C1_3 C 0.9651(11) 0.2486(7) 0.3501(5)
C2_3 C 0.9638(9) 0.1584(6) 0.3048(4)
C3_3 C 0.9815(9) 0.0509(7) 0.3162(4)
C7_3 C 0.9650(11) 0.1552(7) 0.1026(5)
H1_3 H 0.8861 0.1916 0.0991
H6_3 H 0.5057 0.0254 0.4366
C17_3 C 0.6423(12) 0.2249(8) 0.4119(7)
C18_3 C 0.4858(11) 0.2655(8) 0.3674(6)
C19_3 C 0.4119(11) 0.2595(8) 0.2916(6)
H9_3 H 0.4566 0.2333 0.2664
C20_3 C 0.4195(12) 0.3072(8) 0.4027(6)
H10_3 H 0.4688 0.3142 0.4540
C21_3 C 0.2720(11) 0.2927(7) 0.2540(6)
H11_3 H 0.2227 0.2883 0.2026
C22_3 C 0.2749(12) 0.3392(9) 0.3597(6)
H12_3 H 0.2291 0.3673 0.3837
N6_2 N 0.9918(8) 0.5085(5) 0.2361(4)
N9_2 N 0.7379(7) 0.3563(6) 0.1626(4)
N5_2 N 0.2621(7) 0.8563(6) 0.3374(4)
C4_3 C 0.9845(9) 0.9804(6) 0.3720(4)
C11_3 C 0.7224(10) 0.9167(8) 0.4450(5)
C12_3 C 0.5619(10) 0.8909(7) 0.4084(5)
C13_3 C 0.5031(10) 0.7994(8) 0.3709(5)
H5_3 H 0.5619 0.7473 0.3687
C14_3 C 0.4696(10) 0.9626(8) 0.4114(5)
C15_3 C 0.3531(10) 0.7862(8) 0.3361(5)
H7_3 H 0.3141 0.7242 0.3103
C16_3 C 0.3219(10) 0.9418(8) 0.3767(5)
H8_3 H 0.2620 0.9904 0.3815
O1_4 O 0.0404(7) 0.8367(4) 0.1775(3)
O2_4 O 0.0227(8) 0.7340(5) 0.0879(3)
O5_4 O 0.2404(7) 0.5072(5) 0.0255(3)
O7_4 O 0.2908(7) 0.7325(5) 0.0201(4)
O8_4 O 0.3060(8) 0.6811(6) 0.1244(4)
N1_4 N 0.0261(8) 0.6816(5) 0.2568(4)
N4_2 N 0.7999(8) 0.8314(6) 0.2134(4)
C1_4 C 0.0349(11) 0.7486(7) 0.1499(5)
C2_4 C 0.0362(9) 0.6584(6) 0.1952(4)
C3_4 C 0.0185(9) 0.5509(7) 0.1838(4)
C4_4 C 0.0155(9) 0.4804(6) 0.1280(4)
C7_4 C 0.0350(11) 0.6552(7) 0.3974(5)
H1_4 H 0.1139 0.6916 0.4009
C11_4 C 0.2776(10) 0.4167(8) 0.0550(5)
C12_4 C 0.4381(10) 0.3909(7) 0.0916(5)
C13_4 C 0.4969(10) 0.2994(8) 0.1291(5)
H5_4 H 0.4381 0.2473 0.1313
C14_4 C 0.5304(10) 0.4626(8) 0.0886(5)
H6_4 H 0.4943 0.5254 0.0634
C15_4 C 0.6469(10) 0.2862(8) 0.1639(5)
H7_4 H 0.6859 0.2242 0.1897
C16_4 C 0.6781(10) 0.4418(8) 0.1233(5)
H8_4 H 0.7380 0.4904 0.1185
C17_4 C 0.3577(12) 0.7249(8) 0.0881(7)
C18_4 C 0.5142(11) 0.7655(8) 0.1326(6)
C19_4 C 0.5881(11) 0.7595(8) 0.2084(6)
H9_4 H 0.5434 0.7333 0.2336
C20_4 C 0.5805(12) 0.8072(8) 0.0973(6)
H10_4 H 0.5312 0.8142 0.0460
C21_4 C 0.7280(11) 0.7927(7) 0.2460(6)
H11_4 H 0.7773 0.7883 0.2974
C22_4 C 0.7251(12) 0.8392(9) 0.1403(6)
H12_4 H 0.7709 0.8673 0.1163
C5_4 C 0.9997(10) 0.5907(7) 0.2792(5)
C6_4 C 0.9624(11) 0.5860(7) 0.3390(5)
C8_4 C 0.8452(11) 0.5290(7) 0.3341(5)
H2_4 H 0.7918 0.4840 0.2945
C9_4 C 0.8112(12) 0.5408(8) 0.3889(6)
H3_4 H 0.7379 0.5013 0.3890
C10_4 C 0.8904(12) 0.6149(8) 0.4455(5)
H4_4 H 0.8657 0.6234 0.4821
loop_
_geom_bond_atom_site_label_1
_geom_bond_atom_site_label_2
_geom_bond_site_symmetry_1
_geom_bond_site_symmetry_2
O6 C11 1_555 1_555
N5 C15 1_555 1_555
C12 C11 1_555 1_555
C13 C12 1_555 1_555
H5 C13 1_555 1_555
C14 C12 1_555 1_555
C15 C13 1_555 1_555
H7 C15 1_555 1_555
C16 N5 1_555 1_555
H8 C16 1_555 1_555
Ni4 N5 1_555 1_555
C14 C16 1_555 1_555
Sm1 O2 1_555 1_555
Ni3 O1 1_555 1_555
O1 C1 1_555 1_555
O2 C1 1_555 1_555
O3 Sm1 1_555 1_555
O5 Sm1 1_555 1_555
O7 Sm1 1_555 1_555
O8 Sm1 1_555 1_555
N1 Ni3 1_555 1_555
N4 C21 1_555 1_555
C1 C2 1_555 1_555
C2 N1 1_555 1_555
C3 C2 1_555 1_555
H1 C7 1_555 1_555
C17 O7 1_555 1_555
C18 C17 1_555 1_555
C19 C18 1_555 1_555
H9 C19 1_555 1_555
C20 C18 1_555 1_555
H10 C20 1_555 1_555
C21 C19 1_555 1_555
H11 C21 1_555 1_555
C22 N4 1_555 1_555
H12 C22 1_555 1_555
O10 Sm1 1_555 1_555
O11 Ni3 1_555 1_555
N6 Ni3 1_555 1_555
N9 Ni3 1_555 1_555
O8 C17 1_555 1_555
C20 C22 1_555 1_555
Ni4 O4 1_555 1_555
O4 Sm2 1_555 1_555
Sm2 O9 1_555 1_555
C6 C5 1_555 1_555
C8 C6 1_555 1_555
C9 C8 1_555 1_555
H3 C9 1_555 1_555
C10 N3 1_555 1_555
H4 C10 1_555 1_555
N2 C5 1_555 1_555
C9 C10 1_555 1_555
Sm3 O9_2 1_555 1_555
C6_2 C5_2 1_555 1_555
C8_2 C6_2 1_555 1_555
H2_2 C8_2 1_555 1_555
C9_2 C8_2 1_555 1_555
H3_2 C9_2 1_555 1_555
C10_2 N3_2 1_555 1_555
H4_2 C10_2 1_555 1_555
N6 C5_2 1_555 1_555
C9_2 C10_2 1_555 1_555
Sm1_2 O2_2 1_555 1_555
Ni4 O1_2 1_555 1_555
O1_2 C1_2 1_555 1_555
O2_2 C1_2 1_555 1_555
O3_2 Sm1_2 1_555 1_555
O5_2 Sm1_2 1_555 1_555
O6_2 C11_2 1_555 1_555
O7_2 Sm1_2 1_555 1_555
O8_2 Sm1_2 1_555 1_555
N1_2 Ni4 1_555 1_555
N8 C21_2 1_555 1_555
N9 C15_2 1_555 1_555
C1_2 C2_2 1_555 1_555
C2_2 N1_2 1_555 1_555
C3_2 C2_2 1_555 1_555
C4_2 O3_2 1_555 1_555
H1_2 C7_2 1_555 1_555
C11_2 O5_2 1_555 1_555
C12_2 C11_2 1_555 1_555
C13_2 C12_2 1_555 1_555
H5_2 C13_2 1_555 1_555
C14_2 C12_2 1_555 1_555
H6_2 C14_2 1_555 1_555
C15_2 C13_2 1_555 1_555
H7_2 C15_2 1_555 1_555
C16_2 N9 1_555 1_555
H8_2 C16_2 1_555 1_555
C17_2 O7_2 1_555 1_555
C18_2 C17_2 1_555 1_555
C19_2 C18_2 1_555 1_555
H9_2 C19_2 1_555 1_555
C20_2 C18_2 1_555 1_555
H10_2 C20_2 1_555 1_555
C21_2 C19_2 1_555 1_555
H11_2 C21_2 1_555 1_555
C22_2 N8 1_555 1_555
H12_2 C22_2 1_555 1_555
O8_2 C17_2 1_555 1_555
C3_2 C4_2 1_555 1_555
C14_2 C16_2 1_555 1_555
C20_2 C22_2 1_555 1_555
C6_3 C5_3 1_555 1_555
C8_3 C6_3 1_555 1_555
C9_3 C8_3 1_555 1_555
H3_3 C9_3 1_555 1_555
C10_3 N7_2 1_555 1_555
H4_3 C10_3 1_555 1_555
N2_2 C5_3 1_555 1_555
C9_3 C10_3 1_555 1_555
Ni2 O10 1_555 1_555
Sm2 O2_3 1_555 1_555
Ni1 O1_3 1_555 1_555
O1_3 C1_3 1_555 1_555
O2_3 C1_3 1_555 1_555
O5_3 Sm2 1_555 1_555
O7_3 Sm2 1_555 1_555
O8_3 Sm2 1_555 1_555
N1_3 Ni1 1_555 1_555
N8_2 C21_3 1_555 1_555
C1_3 C2_3 1_555 1_555
C2_3 N1_3 1_555 1_555
C3_3 C2_3 1_555 1_555
H1_3 C7_3 1_555 1_555
C17_3 O7_3 1_555 1_555
C18_3 C17_3 1_555 1_555
C19_3 C18_3 1_555 1_555
H9_3 C19_3 1_555 1_555
C20_3 C18_3 1_555 1_555
H10_3 C20_3 1_555 1_555
C21_3 C19_3 1_555 1_555
H11_3 C21_3 1_555 1_555
C22_3 N8_2 1_555 1_555
H12_3 C22_3 1_555 1_555
O10_2 Ni1 1_555 1_555
N6_2 Ni1 1_555 1_555
N9_2 Ni1 1_555 1_555
O8_3 C17_3 1_555 1_555
C20_3 C22_3 1_555 1_555
O12 C11_3 1_555 1_555
N5_2 C15_3 1_555 1_555
C12_3 C11_3 1_555 1_555
C13_3 C12_3 1_555 1_555
H5_3 C13_3 1_555 1_555
C14_3 C12_3 1_555 1_555
C15_3 C13_3 1_555 1_555
H7_3 C15_3 1_555 1_555
C16_3 N5_2 1_555 1_555
H8_3 C16_3 1_555 1_555
Ni2 N5_2 1_555 1_555
C14_3 C16_3 1_555 1_555
Sm3 O2_4 1_555 1_555
Ni2 O1_4 1_555 1_555
O1_4 C1_4 1_555 1_555
O2_4 C1_4 1_555 1_555
O5_4 Sm3 1_555 1_555
O12_2 C11_4 1_555 1_555
O7_4 Sm3 1_555 1_555
O8_4 Sm3 1_555 1_555
N1_4 Ni2 1_555 1_555
N4_2 C21_4 1_555 1_555
N9_2 C15_4 1_555 1_555
C1_4 C2_4 1_555 1_555
C2_4 N1_4 1_555 1_555
C3_4 C2_4 1_555 1_555
C4_4 O9_2 1_555 1_555
H1_4 C7_4 1_555 1_555
C11_4 O5_4 1_555 1_555
C12_4 C11_4 1_555 1_555
C13_4 C12_4 1_555 1_555
H5_4 C13_4 1_555 1_555
C14_4 C12_4 1_555 1_555
H6_4 C14_4 1_555 1_555
C15_4 C13_4 1_555 1_555
H7_4 C15_4 1_555 1_555
C16_4 N9_2 1_555 1_555
H8_4 C16_4 1_555 1_555
C17_4 O7_4 1_555 1_555
C18_4 C17_4 1_555 1_555
C19_4 C18_4 1_555 1_555
H9_4 C19_4 1_555 1_555
C20_4 C18_4 1_555 1_555
H10_4 C20_4 1_555 1_555
C21_4 C19_4 1_555 1_555
H11_4 C21_4 1_555 1_555
C22_4 N4_2 1_555 1_555
H12_4 C22_4 1_555 1_555
O8_4 C17_4 1_555 1_555
C3_4 C4_4 1_555 1_555
C14_4 C16_4 1_555 1_555
C20_4 C22_4 1_555 1_555
C6_4 C5_4 1_555 1_555
C8_4 C6_4 1_555 1_555
H2_4 C8_4 1_555 1_555
C9_4 C8_4 1_555 1_555
H3_4 C9_4 1_555 1_555
C10_4 N7 1_555 1_555
H4_4 C10_4 1_555 1_555
N6_2 C5_4 1_555 1_555
C9_4 C10_4 1_555 1_555

#END
