
###############################################################################
#
# This file contains modified crystal structure data generated from the
# MOF subset of the Cambridge Structural Database (CSD) v543 
# hosted by the Cambridge Crystallographic Data Centre (CCDC).
#
# This work is licensed under the Creative Commons
# Attribution-NonCommercial-ShareAlike 4.0 International License.
# To view a copy of this license, visit
# http://creativecommons.org/licenses/by-nc-sa/4.0/
# or send a letter to
# Creative Commons, PO Box 1866, Mountain View, CA 94042, USA.
#
# CIF created using the CSD Python API on 29 September 2022
# The structure has been converted into the P1 space group
# The structure has a 3D framework
# The original CSD entry PEKGUJ is in the monoclinic crystal system
# The framework has been calculated to contain at least 10.0% void space
# The void calculation uses a probe of radius 1.32A, grid spacing 0.4
#
###############################################################################

data_PEKGUJ
_chemical_formula_moiety         '(C88 H48 Cd4 Eu4 N20 O28)n'
_symmetry_cell_setting           triclinic
_symmetry_space_group_name_H-M   'P 1'
_symmetry_Int_Tables_number      1
_space_group_name_Hall           'P 1'
loop_
_symmetry_equiv_pos_site_id
_symmetry_equiv_pos_as_xyz
1 x,y,z
_cell_length_a                   11.062(2)
_cell_length_b                   13.563(3)
_cell_length_c                   20.895(4)
_cell_angle_alpha                90
_cell_angle_beta                 121.247(8)
_cell_angle_gamma                90
_cell_volume                     2680.2
loop_
_atom_site_label
_atom_site_type_symbol
_atom_site_fract_x
_atom_site_fract_y
_atom_site_fract_z
Eu3 Eu 0.44213(3) 0.36299(2) 0.004048(16)
N3 N 0.3830(5) 0.1940(4) 0.9369(3)
C5 C 0.0469(6) 0.1021(5) 0.7736(3)
C6 C 0.1983(6) 0.1036(5) 0.8334(4)
C7 C 0.2462(6) 0.1756(5) 0.8862(3)
H1 H 0.1789 0.2154 0.8874
C8 C 0.2981(7) 0.0404(5) 0.8349(4)
C9 C 0.4378(8) 0.0546(6) 0.8874(5)
H3 H 0.5063 0.0123 0.8899
C10 C 0.4761(8) 0.1328(6) 0.9368(5)
H4 H 0.5716 0.1428 0.9714
Cd2 Cd 0.00765(4) 0.35495(3) 0.76667(2)
H2 H 0.2705 0.9889 0.8006
H11 H 0.0415 0.6755 0.3954
O11 O 0.2094(5) 0.8307(3) 0.8371(3)
N6 N 0.0272(5) 0.6874(4) 0.7518(3)
N8 N 0.0954(6) 0.8620(4) 0.6581(3)
O2 O 0.6133(4) 0.0184(3) 0.5784(2)
O3 O 0.6438(5) 0.2254(3) 0.5778(2)
O4 O 0.7906(5) 0.3307(3) 0.6629(3)
O6 O 0.3236(5) 0.0089(4) 0.5300(3)
N1 N 0.9723(5) 0.0231(4) 0.7345(3)
N2 N 0.9728(5) 0.1874(4) 0.7482(3)
C2 C 0.8431(6) 0.0591(4) 0.6798(3)
C3 C 0.8453(6) 0.1616(4) 0.6868(3)
C4 C 0.7511(6) 0.2447(5) 0.6397(4)
H5 H 0.1392 0.0239 0.5599
Eu2 Eu 0.44213(3) 0.13701(2) 0.504048(16)
Eu1 Eu 0.55787(3) 0.86299(2) 0.495952(16)
Cd1 Cd 0.99235(4) 0.85495(3) 0.73333(2)
O1 O 0.7724(4) 0.9011(3) 0.6261(2)
O5 O 0.4308(5) 0.8612(3) 0.5631(3)
O7 O 0.7524(5) 0.7846(4) 0.4876(3)
O8 O 0.5555(5) 0.8144(4) 0.3812(3)
N5 N 0.8671(7) 0.6693(5) 0.2969(3)
C1 C 0.7372(6) 0.9906(4) 0.6262(3)
C11 C 0.3444(7) 0.9242(5) 0.5595(4)
C12 C 0.2563(6) 0.8995(5) 0.5928(4)
C13 C 0.1548(7) 0.9653(5) 0.5862(4)
C14 C 0.2700(8) 0.8143(6) 0.6306(4)
H6 H 0.3338 0.7665 0.6345
C15 C 0.0770(8) 0.9440(6) 0.6186(4)
H7 H 0.0083 0.9887 0.6129
C16 C 0.1912(8) 0.7983(6) 0.6626(4)
H8 H 0.2050 0.7399 0.6889
C17 C 0.6808(8) 0.7838(6) 0.4178(4)
C18 C 0.7466(8) 0.7416(6) 0.3754(4)
C19 C 0.8870(9) 0.7210(7) 0.4116(5)
H9 H 0.9436 0.7297 0.4631
C20 C 0.6657(9) 0.7257(7) 0.2992(5)
H10 H 0.5694 0.7396 0.2728
C21 C 0.9446(9) 0.6868(7) 0.3706(5)
C22 C 0.7300(9) 0.6892(6) 0.2631(5)
H12 H 0.6743 0.6778 0.2119
Cd4 Cd 0.99235(4) 0.64505(3) 0.23333(2)
O9 O 0.3867(4) 0.9816(3) 0.4216(2)
O10 O 0.3562(5) 0.7746(3) 0.4222(2)
O12 O 0.6764(5) 0.9911(4) 0.4700(3)
N7 N 0.6170(5) 0.6940(4) 0.5631(3)
N9 N 0.8671(7) 0.8307(5) 0.7969(3)
O7_2 O 0.2476(5) 0.2846(4) 0.0124(3)
O8_2 O 0.4445(5) 0.3144(4) 0.1188(3)
N5_2 N 0.1329(7) 0.1693(5) 0.2031(3)
C17_2 C 0.3192(8) 0.2838(6) 0.0822(4)
C18_2 C 0.2534(8) 0.2416(6) 0.1246(4)
C19_2 C 0.1130(9) 0.2210(7) 0.0884(5)
H9_2 H 0.0564 0.2297 0.0369
C20_2 C 0.3343(9) 0.2257(7) 0.2008(5)
H10_2 H 0.4306 0.2396 0.2272
C21_2 C 0.0554(9) 0.1868(7) 0.1294(5)
C22_2 C 0.2700(9) 0.1892(6) 0.2369(5)
H12_2 H 0.3257 0.1778 0.2881
Cd4_2 Cd 0.00765(4) 0.14505(3) 0.26667(2)
O9_2 O 0.6133(4) 0.4816(3) 0.0784(2)
O10_2 O 0.6438(5) 0.2746(3) 0.0778(2)
O12_2 O 0.3236(5) 0.4911(4) 0.0300(3)
O1_2 O 0.2276(4) 0.4011(3) 0.8739(2)
O2_2 O 0.3867(4) 0.5184(3) 0.9216(2)
O3_2 O 0.3562(5) 0.7254(3) 0.9222(2)
O5_2 O 0.5692(5) 0.3612(3) 0.9369(3)
O6_2 O 0.6764(5) 0.5089(4) 0.9700(3)
N1_2 N 0.0277(5) 0.5231(4) 0.7655(3)
N4 N 0.9046(6) 0.3620(4) 0.8419(3)
C1_2 C 0.2628(6) 0.4906(4) 0.8738(3)
C2_2 C 0.1569(6) 0.5591(4) 0.8202(3)
C3_2 C 0.1547(6) 0.6616(4) 0.8132(3)
C4_2 C 0.2489(6) 0.7447(5) 0.8603(4)
C11_2 C 0.6556(7) 0.4242(5) 0.9405(4)
C12_2 C 0.7437(6) 0.3995(5) 0.9072(4)
C13_2 C 0.8452(7) 0.4653(5) 0.9138(4)
H5_2 H 0.8608 0.5239 0.9401
C14_2 C 0.7300(8) 0.3143(6) 0.8694(4)
H6_2 H 0.6662 0.2665 0.8655
C15_2 C 0.9230(8) 0.4440(6) 0.8814(4)
H7_2 H 0.9917 0.4887 0.8871
C16_2 C 0.8088(8) 0.2983(6) 0.8374(4)
H8_2 H 0.7950 0.2399 0.8111
Eu2_2 Eu 0.55787(3) 0.63701(2) 0.995952(16)
N9_2 N 0.1329(7) 0.3307(5) 0.7031(3)
C5_2 C 0.9531(6) 0.6021(5) 0.7264(3)
C6_2 C 0.8017(6) 0.6036(5) 0.6666(4)
C7_2 C 0.7538(6) 0.6756(5) 0.6138(3)
H1_2 H 0.8211 0.7154 0.6126
C8_2 C 0.7019(7) 0.5404(5) 0.6651(4)
H2_2 H 0.7295 0.4889 0.6994
C9_2 C 0.5622(8) 0.5546(6) 0.6126(5)
H3_2 H 0.4937 0.5123 0.6101
C10_2 C 0.5239(8) 0.6328(6) 0.5632(5)
H4_2 H 0.4284 0.6428 0.5286
O1_3 O 0.2276(4) 0.0989(3) 0.3739(2)
O5_3 O 0.5692(5) 0.1388(3) 0.4369(3)
O7_3 O 0.2476(5) 0.2154(4) 0.5124(3)
O8_3 O 0.4445(5) 0.1856(4) 0.6188(3)
N4_2 N 0.9046(6) 0.1380(4) 0.3419(3)
C1_3 C 0.2628(6) 0.0094(4) 0.3738(3)
C11_3 C 0.6556(7) 0.0758(5) 0.4405(4)
C12_3 C 0.7437(6) 0.1005(5) 0.4072(4)
C13_3 C 0.8452(7) 0.0347(5) 0.4138(4)
C14_3 C 0.7300(8) 0.1857(6) 0.3694(4)
H6_3 H 0.6662 0.2335 0.3655
C15_3 C 0.9230(8) 0.0560(6) 0.3814(4)
H7_3 H 0.9917 0.0113 0.3871
C16_3 C 0.8088(8) 0.2017(6) 0.3374(4)
H8_3 H 0.7950 0.2601 0.3111
C17_3 C 0.3192(8) 0.2162(6) 0.5822(4)
C18_3 C 0.2534(8) 0.2584(6) 0.6246(4)
C19_3 C 0.1130(9) 0.2790(7) 0.5884(5)
H9_3 H 0.0564 0.2703 0.5369
C20_3 C 0.3343(9) 0.2743(7) 0.7008(5)
H10_3 H 0.4306 0.2604 0.7272
C21_3 C 0.0554(9) 0.3132(7) 0.6294(5)
C22_3 C 0.2700(9) 0.3108(6) 0.7369(5)
H12_3 H 0.3257 0.3222 0.7881
N7_2 N 0.3830(5) 0.3060(4) 0.4369(3)
O4_2 O 0.2094(5) 0.6693(3) 0.3371(3)
N1_3 N 0.0277(5) 0.9769(4) 0.2655(3)
N2_2 N 0.0272(5) 0.8126(4) 0.2518(3)
C2_3 C 0.1569(6) 0.9409(4) 0.3202(3)
C3_3 C 0.1547(6) 0.8384(4) 0.3132(3)
C4_3 C 0.2489(6) 0.7553(5) 0.3603(4)
H5_3 H 0.8608 0.9761 0.4401
H2_3 H 0.7295 0.0111 0.1994
H11_2 H 0.9585 0.3245 0.6046
O11_2 O 0.7906(5) 0.1693(3) 0.1629(3)
N6_2 N 0.9728(5) 0.3126(4) 0.2482(3)
N3_2 N 0.6170(5) 0.8060(4) 0.0631(3)
C5_3 C 0.9531(6) 0.8979(5) 0.2264(3)
C6_3 C 0.8017(6) 0.8964(5) 0.1666(4)
C7_3 C 0.7538(6) 0.8244(5) 0.1138(3)
H1_3 H 0.8211 0.7846 0.1126
C8_3 C 0.7019(7) 0.9596(5) 0.1651(4)
C9_3 C 0.5622(8) 0.9454(6) 0.1126(5)
H3_3 H 0.4937 0.9877 0.1101
C10_3 C 0.5239(8) 0.8672(6) 0.0632(5)
H4_3 H 0.4284 0.8572 0.0286
C5_4 C 0.0469(6) 0.3979(5) 0.2736(3)
C6_4 C 0.1983(6) 0.3964(5) 0.3334(4)
C7_4 C 0.2462(6) 0.3244(5) 0.3862(3)
H1_4 H 0.1789 0.2846 0.3874
C8_4 C 0.2981(7) 0.4596(5) 0.3349(4)
H2_4 H 0.2705 0.5111 0.3006
C9_4 C 0.4378(8) 0.4454(6) 0.3874(5)
H3_4 H 0.5063 0.4877 0.3899
C10_4 C 0.4761(8) 0.3672(6) 0.4368(5)
H4_4 H 0.5716 0.3572 0.4714
N8_2 N 0.0954(6) 0.6380(4) 0.1581(3)
O1_4 O 0.7724(4) 0.5989(3) 0.1261(2)
O5_4 O 0.4308(5) 0.6388(3) 0.0631(3)
N1_4 N 0.9723(5) 0.4769(4) 0.2345(3)
C1_4 C 0.7372(6) 0.5094(4) 0.1262(3)
C2_4 C 0.8431(6) 0.4409(4) 0.1798(3)
C3_4 C 0.8453(6) 0.3384(4) 0.1868(3)
C4_4 C 0.7511(6) 0.2553(5) 0.1397(4)
C11_4 C 0.3444(7) 0.5758(5) 0.0595(4)
C12_4 C 0.2563(6) 0.6005(5) 0.0928(4)
C13_4 C 0.1548(7) 0.5347(5) 0.0862(4)
H5_4 H 0.1392 0.4761 0.0599
C14_4 C 0.2700(8) 0.6857(6) 0.1306(4)
H6_4 H 0.3338 0.7335 0.1345
C15_4 C 0.0770(8) 0.5560(6) 0.1186(4)
H7_4 H 0.0083 0.5113 0.1129
C16_4 C 0.1912(8) 0.7017(6) 0.1626(4)
H8_4 H 0.2050 0.7601 0.1889
O7_4 O 0.7524(5) 0.7154(4) 0.9876(3)
O8_4 O 0.5555(5) 0.6856(4) 0.8812(3)
C17_4 C 0.6808(8) 0.7162(6) 0.9178(4)
C18_4 C 0.7466(8) 0.7584(6) 0.8754(4)
C19_4 C 0.8870(9) 0.7790(7) 0.9116(5)
H9_4 H 0.9436 0.7703 0.9631
C20_4 C 0.6657(9) 0.7743(7) 0.7992(5)
H10_4 H 0.5694 0.7604 0.7728
C21_4 C 0.9446(9) 0.8132(7) 0.8706(5)
C22_4 C 0.7300(9) 0.8108(6) 0.7631(5)
H12_4 H 0.6743 0.8222 0.7119
H11_3 H 0.9585 0.1755 0.1046
H11_4 H 0.0415 0.8245 0.8954
loop_
_geom_bond_atom_site_label_1
_geom_bond_atom_site_label_2
_geom_bond_site_symmetry_1
_geom_bond_site_symmetry_2
N3 C7 1_555 1_555
C6 C5 1_555 1_555
C7 C6 1_555 1_555
H1 C7 1_555 1_555
C8 C6 1_555 1_555
C9 C8 1_555 1_555
H3 C9 1_555 1_555
C10 N3 1_555 1_555
H4 C10 1_555 1_555
C9 C10 1_555 1_555
O3 C4 1_555 1_555
O4 C4 1_555 1_555
N2 C3 1_555 1_555
C2 N1 1_555 1_555
C3 C2 1_555 1_555
C4 C3 1_555 1_555
Eu2 O2 1_555 1_555
O3 Eu2 1_555 1_555
O6 Eu2 1_555 1_555
Eu1 O1 1_555 1_555
Cd1 O1 1_555 1_555
O1 C1 1_555 1_555
O5 Eu1 1_555 1_555
O7 Eu1 1_555 1_555
O8 Eu1 1_555 1_555
N8 C15 1_555 1_555
N5 C21 1_555 1_555
C11 O5 1_555 1_555
C12 C11 1_555 1_555
C13 C12 1_555 1_555
C14 C12 1_555 1_555
H6 C14 1_555 1_555
C15 C13 1_555 1_555
H7 C15 1_555 1_555
C16 N8 1_555 1_555
H8 C16 1_555 1_555
C17 O7 1_555 1_555
C18 C17 1_555 1_555
C19 C18 1_555 1_555
H9 C19 1_555 1_555
C20 C18 1_555 1_555
H10 C20 1_555 1_555
C21 C19 1_555 1_555
C22 N5 1_555 1_555
H12 C22 1_555 1_555
Cd4 N5 1_555 1_555
O9 Eu1 1_555 1_555
O10 Eu1 1_555 1_555
O12 Eu1 1_555 1_555
N7 Eu1 1_555 1_555
N9 Cd1 1_555 1_555
O8 C17 1_555 1_555
C14 C16 1_555 1_555
C20 C22 1_555 1_555
O7_2 Eu3 1_555 1_555
O8_2 Eu3 1_555 1_555
N5_2 C21_2 1_555 1_555
C17_2 O7_2 1_555 1_555
C18_2 C17_2 1_555 1_555
C19_2 C18_2 1_555 1_555
H9_2 C19_2 1_555 1_555
C20_2 C18_2 1_555 1_555
H10_2 C20_2 1_555 1_555
C21_2 C19_2 1_555 1_555
C22_2 N5_2 1_555 1_555
H12_2 C22_2 1_555 1_555
Cd4_2 N5_2 1_555 1_555
O9_2 Eu3 1_555 1_555
O10_2 Eu3 1_555 1_555
O12_2 Eu3 1_555 1_555
O8_2 C17_2 1_555 1_555
C20_2 C22_2 1_555 1_555
Cd2 O1_2 1_555 1_555
O1_2 C1_2 1_555 1_555
O3_2 C4_2 1_555 1_555
O11 C4_2 1_555 1_555
O6_2 C11_2 1_555 1_555
N1_2 Cd2 1_555 1_555
N6 C3_2 1_555 1_555
N4 C15_2 1_555 1_555
C1_2 O2_2 1_555 1_555
C2_2 N1_2 1_555 1_555
C3_2 C2_2 1_555 1_555
C4_2 C3_2 1_555 1_555
C11_2 O5_2 1_555 1_555
C12_2 C11_2 1_555 1_555
C13_2 C12_2 1_555 1_555
H5_2 C13_2 1_555 1_555
C14_2 C12_2 1_555 1_555
H6_2 C14_2 1_555 1_555
C15_2 C13_2 1_555 1_555
H7_2 C15_2 1_555 1_555
C16_2 N4 1_555 1_555
H8_2 C16_2 1_555 1_555
Eu2_2 O2_2 1_555 1_555
N9_2 Cd2 1_555 1_555
O3_2 Eu2_2 1_555 1_555
O6_2 Eu2_2 1_555 1_555
C1_2 C2_2 1_555 1_555
C14_2 C16_2 1_555 1_555
N7 C7_2 1_555 1_555
C6_2 C5_2 1_555 1_555
C7_2 C6_2 1_555 1_555
H1_2 C7_2 1_555 1_555
C8_2 C6_2 1_555 1_555
H2_2 C8_2 1_555 1_555
C9_2 C8_2 1_555 1_555
H3_2 C9_2 1_555 1_555
C10_2 N7 1_555 1_555
H4_2 C10_2 1_555 1_555
C9_2 C10_2 1_555 1_555
Eu2 O1_3 1_555 1_555
Cd4_2 O1_3 1_555 1_555
O1_3 C1_3 1_555 1_555
O5_3 Eu2 1_555 1_555
O7_3 Eu2 1_555 1_555
O8_3 Eu2 1_555 1_555
N4_2 C15_3 1_555 1_555
N9_2 C21_3 1_555 1_555
C11_3 O5_3 1_555 1_555
C12_3 C11_3 1_555 1_555
C13_3 C12_3 1_555 1_555
C14_3 C12_3 1_555 1_555
H6_3 C14_3 1_555 1_555
C15_3 C13_3 1_555 1_555
H7_3 C15_3 1_555 1_555
C16_3 N4_2 1_555 1_555
H8_3 C16_3 1_555 1_555
C17_3 O7_3 1_555 1_555
C18_3 C17_3 1_555 1_555
C19_3 C18_3 1_555 1_555
H9_3 C19_3 1_555 1_555
C20_3 C18_3 1_555 1_555
H10_3 C20_3 1_555 1_555
C21_3 C19_3 1_555 1_555
C22_3 N9_2 1_555 1_555
H12_3 C22_3 1_555 1_555
N7_2 Eu2 1_555 1_555
O8_3 C17_3 1_555 1_555
C14_3 C16_3 1_555 1_555
C20_3 C22_3 1_555 1_555
O10 C4_3 1_555 1_555
O4_2 C4_3 1_555 1_555
N2_2 C3_3 1_555 1_555
C2_3 N1_3 1_555 1_555
C3_3 C2_3 1_555 1_555
C4_3 C3_3 1_555 1_555
N3_2 C7_3 1_555 1_555
C6_3 C5_3 1_555 1_555
C7_3 C6_3 1_555 1_555
H1_3 C7_3 1_555 1_555
C8_3 C6_3 1_555 1_555
C9_3 C8_3 1_555 1_555
H3_3 C9_3 1_555 1_555
C10_3 N3_2 1_555 1_555
H4_3 C10_3 1_555 1_555
C9_3 C10_3 1_555 1_555
N7_2 C7_4 1_555 1_555
C6_4 C5_4 1_555 1_555
C7_4 C6_4 1_555 1_555
H1_4 C7_4 1_555 1_555
C8_4 C6_4 1_555 1_555
H2_4 C8_4 1_555 1_555
C9_4 C8_4 1_555 1_555
H3_4 C9_4 1_555 1_555
C10_4 N7_2 1_555 1_555
H4_4 C10_4 1_555 1_555
C9_4 C10_4 1_555 1_555
Cd4 O1_4 1_555 1_555
O1_4 C1_4 1_555 1_555
O10_2 C4_4 1_555 1_555
O11_2 C4_4 1_555 1_555
O12_2 C11_4 1_555 1_555
N1_4 Cd4 1_555 1_555
N6_2 C3_4 1_555 1_555
N8_2 C15_4 1_555 1_555
C1_4 O9_2 1_555 1_555
C2_4 N1_4 1_555 1_555
C3_4 C2_4 1_555 1_555
C4_4 C3_4 1_555 1_555
C11_4 O5_4 1_555 1_555
C12_4 C11_4 1_555 1_555
C13_4 C12_4 1_555 1_555
H5_4 C13_4 1_555 1_555
C14_4 C12_4 1_555 1_555
H6_4 C14_4 1_555 1_555
C15_4 C13_4 1_555 1_555
H7_4 C15_4 1_555 1_555
C16_4 N8_2 1_555 1_555
H8_4 C16_4 1_555 1_555
C1_4 C2_4 1_555 1_555
C14_4 C16_4 1_555 1_555
O7_4 Eu2_2 1_555 1_555
O8_4 Eu2_2 1_555 1_555
N9 C21_4 1_555 1_555
C17_4 O7_4 1_555 1_555
C18_4 C17_4 1_555 1_555
C19_4 C18_4 1_555 1_555
H9_4 C19_4 1_555 1_555
C20_4 C18_4 1_555 1_555
H10_4 C20_4 1_555 1_555
C21_4 C19_4 1_555 1_555
C22_4 N9 1_555 1_555
H12_4 C22_4 1_555 1_555
O8_4 C17_4 1_555 1_555
C20_4 C22_4 1_555 1_555

#END
