
###############################################################################
#
# This file contains modified crystal structure data generated from the
# MOF subset of the Cambridge Structural Database (CSD) v543 
# hosted by the Cambridge Crystallographic Data Centre (CCDC).
#
# This work is licensed under the Creative Commons
# Attribution-NonCommercial-ShareAlike 4.0 International License.
# To view a copy of this license, visit
# http://creativecommons.org/licenses/by-nc-sa/4.0/
# or send a letter to
# Creative Commons, PO Box 1866, Mountain View, CA 94042, USA.
#
# CIF created using the CSD Python API on 29 September 2022
# The structure has been converted into the P1 space group
# The structure has a 3D framework
# The original CSD entry PEKHAQ is in the monoclinic crystal system
# The framework has been calculated to contain at least 10.0% void space
# The void calculation uses a probe of radius 1.32A, grid spacing 0.4
#
###############################################################################

data_PEKHAQ
_chemical_formula_moiety         '(C88 H48 Eu4 N20 O30 Zn4)n'
_symmetry_cell_setting           triclinic
_symmetry_space_group_name_H-M   'P 1'
_symmetry_Int_Tables_number      1
_space_group_name_Hall           'P 1'
loop_
_symmetry_equiv_pos_site_id
_symmetry_equiv_pos_as_xyz
1 x,y,z
_cell_length_a                   10.735(3)
_cell_length_b                   12.978(4)
_cell_length_c                   20.868(5)
_cell_angle_alpha                90
_cell_angle_beta                 120.266(11)
_cell_angle_gamma                90
_cell_volume                     2511.02
loop_
_atom_site_label
_atom_site_type_symbol
_atom_site_fract_x
_atom_site_fract_y
_atom_site_fract_z
N4 N 0.2304(5) 0.1439(4) 0.6578(3)
C13 C 0.0259(6) 0.0354(5) 0.5867(4)
C15 C 0.1717(6) 0.0563(5) 0.6207(4)
H7 H 0.2319 0.0074 0.6177
C16 C 0.1399(7) 0.2130(5) 0.6590(4)
H8 H 0.1779 0.2746 0.6842
Zn3 Zn 0.46630(7) 0.15261(5) 0.72810(3)
N5 N 0.2943(6) 0.6704(4) 0.7144(3)
C18 C 0.0092(7) 0.7400(5) 0.6339(3)
C19 C 0.0835(7) 0.7394(6) 0.7097(4)
H9 H 0.0392 0.7626 0.7355
C20 C 0.0778(8) 0.7037(7) 0.5982(4)
H10 H 0.0305 0.7020 0.5467
C21 C 0.2242(7) 0.7046(6) 0.7481(4)
H11 H 0.2723 0.7049 0.7997
C22 C 0.2198(8) 0.6694(7) 0.6403(4)
H12 H 0.2651 0.6444 0.6155
Zn4 Zn 0.53370(7) 0.65261(5) 0.77190(3)
O2 O 0.4552(4) 0.0122(3) 0.42058(19)
O3 O 0.4773(5) 0.2318(3) 0.4130(2)
O4 O 0.4563(5) 0.3344(3) 0.3240(2)
O6 O 0.6912(4) 0.1480(3) 0.5535(2)
N1 N 0.5069(5) 0.0102(3) 0.2633(2)
N2 N 0.4726(5) 0.1808(3) 0.2436(2)
N3 N 0.5047(6) 0.1794(4) 0.0536(3)
C2 C 0.4819(5) 0.0510(4) 0.3166(3)
C3 C 0.4646(6) 0.1573(4) 0.3054(3)
C4 C 0.4624(6) 0.2465(4) 0.3504(3)
C5 C 0.5007(6) 0.0912(4) 0.2214(3)
C6 C 0.5374(7) 0.0895(4) 0.1614(3)
C7 C 0.6474(8) 0.0316(5) 0.1643(4)
C8 C 0.6842(9) 0.0458(5) 0.1099(4)
H2 H 0.7565 0.0070 0.1093
C9 C 0.6074(9) 0.1216(5) 0.0555(4)
H3 H 0.6308 0.1313 0.0186
C10 C 0.4676(7) 0.1592(5) 0.1044(3)
H4 H 0.3892 0.1946 0.1011
C11 C 0.7743(6) 0.0803(5) 0.5526(3)
C12 C 0.9333(6) 0.1058(4) 0.5884(3)
C14 C 0.9925(7) 0.1981(5) 0.6248(4)
H6 H 0.9334 0.2494 0.6262
Eu2 Eu 0.42761(3) 0.14255(2) 0.491769(13)
Zn2 Zn 0.46630(7) 0.34739(5) 0.22810(3)
Eu3 Eu 0.42761(3) 0.35745(2) 0.991769(13)
Eu1 Eu 0.57239(3) 0.85745(2) 0.508231(13)
Zn1 Zn 0.53370(7) 0.84739(5) 0.27190(3)
O1 O 0.5236(4) 0.8890(3) 0.37386(18)
O5 O 0.7395(4) 0.9922(3) 0.5245(2)
O7 O 0.7876(5) 0.7692(3) 0.5215(2)
O8 O 0.8043(5) 0.8223(4) 0.6256(3)
C1 C 0.4856(5) 0.9816(4) 0.3724(3)
H1 H 0.6963 0.9837 0.2020
H5 H 0.9906 0.9728 0.5624
C17 C 0.8575(7) 0.7785(5) 0.5903(4)
O9 O 0.5448(4) 0.9878(3) 0.57942(19)
O10 O 0.5227(5) 0.7682(3) 0.5870(2)
O11 O 0.5437(5) 0.8344(3) 0.1760(2)
O12 O 0.3088(4) 0.8520(3) 0.4465(2)
N6 N 0.5274(5) 0.6808(3) 0.2564(2)
N7 N 0.4953(6) 0.6794(4) 0.4464(3)
N8 N 0.7696(5) 0.8561(4) 0.3422(3)
N9 N 0.2943(6) 0.8296(4) 0.2144(3)
O1_2 O 0.4764(4) 0.3890(3) 0.12614(18)
O2_2 O 0.5448(4) 0.5122(3) 0.07942(19)
O3_2 O 0.5227(5) 0.7318(3) 0.0870(2)
N1_2 N 0.4931(5) 0.5102(3) 0.2367(2)
C1_2 C 0.5144(5) 0.4816(4) 0.1276(3)
C2_2 C 0.5181(5) 0.5510(4) 0.1834(3)
C3_2 C 0.5354(6) 0.6573(4) 0.1946(3)
C4_2 C 0.5376(6) 0.7465(4) 0.1496(3)
C5_2 C 0.4993(6) 0.5912(4) 0.2786(3)
C6_2 C 0.4626(7) 0.5895(4) 0.3386(3)
C7_2 C 0.3526(8) 0.5316(5) 0.3357(4)
H1_2 H 0.3037 0.4837 0.2980
C8_2 C 0.3158(9) 0.5458(5) 0.3901(4)
H2_2 H 0.2435 0.5070 0.3907
C9_2 C 0.3926(9) 0.6216(5) 0.4445(4)
H3_2 H 0.3692 0.6313 0.4814
C10_2 C 0.5324(7) 0.6592(5) 0.3956(3)
H4_2 H 0.6108 0.6946 0.3989
Eu2_2 Eu 0.57239(3) 0.64255(2) 0.008231(13)
O12_2 O 0.6912(4) 0.3520(3) 0.0535(2)
N8_2 N 0.2304(5) 0.3561(4) 0.1578(3)
N9_2 N 0.7057(6) 0.3296(4) 0.2856(3)
O5_2 O 0.2605(4) 0.4922(3) 0.9755(2)
O6_2 O 0.3088(4) 0.6480(3) 0.9465(2)
O7_2 O 0.2124(5) 0.2692(3) 0.9785(2)
O8_2 O 0.1957(5) 0.3223(4) 0.8744(3)
C11_2 C 0.2257(6) 0.5803(5) 0.9474(3)
C12_2 C 0.0667(6) 0.6058(4) 0.9116(3)
H5_2 H 0.0094 0.4728 0.9376
C14_2 C 0.0075(7) 0.6981(5) 0.8752(4)
H6_2 H 0.0666 0.7494 0.8738
C17_2 C 0.1425(7) 0.2785(5) 0.9097(4)
O9_2 O 0.4552(4) 0.4878(3) 0.92058(19)
O10_2 O 0.4773(5) 0.2682(3) 0.9130(2)
N4_2 N 0.7696(5) 0.6439(4) 0.8422(3)
N5_2 N 0.7057(6) 0.1704(4) 0.7856(3)
C13_2 C 0.9741(6) 0.5354(5) 0.9133(4)
C15_2 C 0.8283(6) 0.5563(5) 0.8793(4)
H7_2 H 0.7681 0.5074 0.8823
C16_2 C 0.8601(7) 0.7130(5) 0.8410(4)
H8_2 H 0.8221 0.7746 0.8158
C18_2 C 0.9908(7) 0.2400(5) 0.8661(3)
C19_2 C 0.9165(7) 0.2394(6) 0.7903(4)
H9_2 H 0.9608 0.2626 0.7645
C20_2 C 0.9222(8) 0.2037(7) 0.9018(4)
H10_2 H 0.9695 0.2020 0.9533
C21_2 C 0.7758(7) 0.2046(6) 0.7519(4)
H11_2 H 0.7277 0.2049 0.7003
C22_2 C 0.7802(8) 0.1694(7) 0.8597(4)
H12_2 H 0.7349 0.1444 0.8845
O1_3 O 0.4764(4) 0.1110(3) 0.62614(18)
O5_3 O 0.2605(4) 0.0078(3) 0.4755(2)
O7_3 O 0.2124(5) 0.2308(3) 0.4785(2)
O8_3 O 0.1957(5) 0.1777(4) 0.3744(3)
C1_3 C 0.5144(5) 0.0184(4) 0.6276(3)
H1_3 H 0.3037 0.0163 0.7980
H5_3 H 0.0094 0.0272 0.4376
C17_3 C 0.1425(7) 0.2215(5) 0.4097(4)
O11_2 O 0.4563(5) 0.1656(3) 0.8240(2)
N6_2 N 0.4726(5) 0.3192(3) 0.7436(2)
N7_2 N 0.5047(6) 0.3206(4) 0.5536(3)
O4_2 O 0.5437(5) 0.6656(3) 0.6760(2)
N1_3 N 0.4931(5) 0.9898(3) 0.7367(2)
N2_2 N 0.5274(5) 0.8192(3) 0.7564(2)
N3_2 N 0.4953(6) 0.8206(4) 0.9464(3)
C2_3 C 0.5181(5) 0.9490(4) 0.6834(3)
C3_3 C 0.5354(6) 0.8427(4) 0.6946(3)
C4_3 C 0.5376(6) 0.7535(4) 0.6496(3)
C5_3 C 0.4993(6) 0.9088(4) 0.7786(3)
C6_3 C 0.4626(7) 0.9105(4) 0.8386(3)
C7_3 C 0.3526(8) 0.9684(5) 0.8357(4)
C8_3 C 0.3158(9) 0.9542(5) 0.8901(4)
H2_3 H 0.2435 0.9930 0.8907
C9_3 C 0.3926(9) 0.8784(5) 0.9445(4)
H3_3 H 0.3692 0.8687 0.9814
C10_3 C 0.5324(7) 0.8408(5) 0.8956(3)
H4_3 H 0.6108 0.8054 0.8989
C11_3 C 0.2257(6) 0.9197(5) 0.4474(3)
C12_3 C 0.0667(6) 0.8942(4) 0.4116(3)
C14_3 C 0.0075(7) 0.8019(5) 0.3752(4)
H6_3 H 0.0666 0.7506 0.3738
C18_3 C 0.9908(7) 0.2600(5) 0.3661(3)
C19_3 C 0.9165(7) 0.2606(6) 0.2903(4)
H9_3 H 0.9608 0.2374 0.2645
C20_3 C 0.9222(8) 0.2963(7) 0.4018(4)
H10_3 H 0.9695 0.2980 0.4533
C21_3 C 0.7758(7) 0.2954(6) 0.2519(4)
H11_3 H 0.7277 0.2951 0.2003
C22_3 C 0.7802(8) 0.3306(7) 0.3597(4)
H12_3 H 0.7349 0.3556 0.3845
C13_3 C 0.9741(6) 0.9646(5) 0.4133(4)
C15_3 C 0.8283(6) 0.9437(5) 0.3793(4)
H7_3 H 0.7681 0.9926 0.3823
C16_3 C 0.8601(7) 0.7870(5) 0.3410(4)
H8_3 H 0.8221 0.7254 0.3158
C13_4 C 0.0259(6) 0.4646(5) 0.0867(4)
C15_4 C 0.1717(6) 0.4437(5) 0.1207(4)
H7_4 H 0.2319 0.4926 0.1177
C16_4 C 0.1399(7) 0.2870(5) 0.1590(4)
H8_4 H 0.1779 0.2254 0.1842
C18_4 C 0.0092(7) 0.7600(5) 0.1339(3)
C19_4 C 0.0835(7) 0.7606(6) 0.2097(4)
H9_4 H 0.0392 0.7374 0.2355
C20_4 C 0.0778(8) 0.7963(7) 0.0982(4)
H10_4 H 0.0305 0.7980 0.0467
C21_4 C 0.2242(7) 0.7954(6) 0.2481(4)
H11_4 H 0.2723 0.7951 0.2997
C22_4 C 0.2198(8) 0.8306(7) 0.1403(4)
H12_4 H 0.2651 0.8556 0.1155
O5_4 O 0.7395(4) 0.5078(3) 0.0245(2)
O7_4 O 0.7876(5) 0.7308(3) 0.0215(2)
O8_4 O 0.8043(5) 0.6777(4) 0.1256(3)
C11_4 C 0.7743(6) 0.4197(5) 0.0526(3)
C12_4 C 0.9333(6) 0.3942(4) 0.0884(3)
H5_4 H 0.9906 0.5272 0.0624
C14_4 C 0.9925(7) 0.3019(5) 0.1248(4)
H6_4 H 0.9334 0.2506 0.1262
C17_4 C 0.8575(7) 0.7215(5) 0.0903(4)
O1_4 O 0.5236(4) 0.6110(3) 0.87386(18)
N1_4 N 0.5069(5) 0.4898(3) 0.7633(2)
C1_4 C 0.4856(5) 0.5184(4) 0.8724(3)
C2_4 C 0.4819(5) 0.4490(4) 0.8166(3)
C3_4 C 0.4646(6) 0.3427(4) 0.8054(3)
C4_4 C 0.4624(6) 0.2535(4) 0.8504(3)
C5_4 C 0.5007(6) 0.4088(4) 0.7214(3)
C6_4 C 0.5374(7) 0.4105(4) 0.6614(3)
C7_4 C 0.6474(8) 0.4684(5) 0.6643(4)
H1_4 H 0.6963 0.5163 0.7020
C8_4 C 0.6842(9) 0.4542(5) 0.6099(4)
H2_4 H 0.7565 0.4930 0.6093
C9_4 C 0.6074(9) 0.3784(5) 0.5555(4)
H3_4 H 0.6308 0.3687 0.5186
C10_4 C 0.4676(7) 0.3408(5) 0.6044(3)
H4_4 H 0.3892 0.3054 0.6011
loop_
_geom_bond_atom_site_label_1
_geom_bond_atom_site_label_2
_geom_bond_site_symmetry_1
_geom_bond_site_symmetry_2
N4 C15 1_555 1_555
C15 C13 1_555 1_555
H7 C15 1_555 1_555
C16 N4 1_555 1_555
H8 C16 1_555 1_555
Zn3 N4 1_555 1_555
N5 C21 1_555 1_555
C19 C18 1_555 1_555
H9 C19 1_555 1_555
C20 C18 1_555 1_555
H10 C20 1_555 1_555
C21 C19 1_555 1_555
H11 C21 1_555 1_555
C22 N5 1_555 1_555
H12 C22 1_555 1_555
Zn4 N5 1_555 1_555
C20 C22 1_555 1_555
O3 C4 1_555 1_555
O4 C4 1_555 1_555
O6 C11 1_555 1_555
N2 C3 1_555 1_555
N3 C9 1_555 1_555
C2 N1 1_555 1_555
C3 C2 1_555 1_555
C4 C3 1_555 1_555
C5 N1 1_555 1_555
C6 C5 1_555 1_555
C7 C6 1_555 1_555
C8 C7 1_555 1_555
H2 C8 1_555 1_555
C9 C8 1_555 1_555
H3 C9 1_555 1_555
C10 N3 1_555 1_555
H4 C10 1_555 1_555
C12 C11 1_555 1_555
C14 C12 1_555 1_555
H6 C14 1_555 1_555
Eu2 O2 1_555 1_555
Zn2 O4 1_555 1_555
O3 Eu2 1_555 1_555
O6 Eu2 1_555 1_555
N2 C5 1_555 1_555
N2 Zn2 1_555 1_555
C6 C10 1_555 1_555
Eu1 O1 1_555 1_555
Zn1 O1 1_555 1_555
O1 C1 1_555 1_555
O5 Eu1 1_555 1_555
O7 Eu1 1_555 1_555
O8 Eu1 1_555 1_555
C17 O7 1_555 1_555
O9 Eu1 1_555 1_555
O10 Eu1 1_555 1_555
O11 Zn1 1_555 1_555
O12 Eu1 1_555 1_555
N6 Zn1 1_555 1_555
N7 Eu1 1_555 1_555
N8 Zn1 1_555 1_555
N9 Zn1 1_555 1_555
O8 C17 1_555 1_555
Zn2 O1_2 1_555 1_555
O1_2 C1_2 1_555 1_555
O3_2 C4_2 1_555 1_555
O11 C4_2 1_555 1_555
N1_2 Zn2 1_555 1_555
N6 C3_2 1_555 1_555
N7 C9_2 1_555 1_555
C1_2 O2_2 1_555 1_555
C2_2 N1_2 1_555 1_555
C3_2 C2_2 1_555 1_555
C4_2 C3_2 1_555 1_555
C5_2 N1_2 1_555 1_555
C6_2 C5_2 1_555 1_555
C7_2 C6_2 1_555 1_555
H1_2 C7_2 1_555 1_555
C8_2 C7_2 1_555 1_555
H2_2 C8_2 1_555 1_555
C9_2 C8_2 1_555 1_555
H3_2 C9_2 1_555 1_555
C10_2 N7 1_555 1_555
H4_2 C10_2 1_555 1_555
Eu2_2 O2_2 1_555 1_555
N8_2 Zn2 1_555 1_555
N9_2 Zn2 1_555 1_555
O3_2 Eu2_2 1_555 1_555
N6 C5_2 1_555 1_555
C1_2 C2_2 1_555 1_555
C6_2 C10_2 1_555 1_555
O5_2 Eu3 1_555 1_555
O6_2 C11_2 1_555 1_555
O7_2 Eu3 1_555 1_555
O8_2 Eu3 1_555 1_555
C11_2 O5_2 1_555 1_555
C12_2 C11_2 1_555 1_555
C14_2 C12_2 1_555 1_555
H6_2 C14_2 1_555 1_555
C17_2 O7_2 1_555 1_555
O9_2 Eu3 1_555 1_555
O10_2 Eu3 1_555 1_555
O8_2 C17_2 1_555 1_555
N4_2 C15_2 1_555 1_555
N5_2 C21_2 1_555 1_555
C15_2 C13_2 1_555 1_555
H7_2 C15_2 1_555 1_555
C16_2 N4_2 1_555 1_555
H8_2 C16_2 1_555 1_555
C19_2 C18_2 1_555 1_555
H9_2 C19_2 1_555 1_555
C20_2 C18_2 1_555 1_555
H10_2 C20_2 1_555 1_555
C21_2 C19_2 1_555 1_555
H11_2 C21_2 1_555 1_555
C22_2 N5_2 1_555 1_555
H12_2 C22_2 1_555 1_555
Zn4 N4_2 1_555 1_555
Zn3 N5_2 1_555 1_555
C20_2 C22_2 1_555 1_555
Eu2 O1_3 1_555 1_555
Zn3 O1_3 1_555 1_555
O1_3 C1_3 1_555 1_555
O5_3 Eu2 1_555 1_555
O7_3 Eu2 1_555 1_555
O8_3 Eu2 1_555 1_555
C17_3 O7_3 1_555 1_555
O11_2 Zn3 1_555 1_555
N6_2 Zn3 1_555 1_555
N7_2 Eu2 1_555 1_555
O8_3 C17_3 1_555 1_555
O10 C4_3 1_555 1_555
O4_2 C4_3 1_555 1_555
O12 C11_3 1_555 1_555
N2_2 C3_3 1_555 1_555
N3_2 C9_3 1_555 1_555
C2_3 N1_3 1_555 1_555
C3_3 C2_3 1_555 1_555
C4_3 C3_3 1_555 1_555
C5_3 N1_3 1_555 1_555
C6_3 C5_3 1_555 1_555
C7_3 C6_3 1_555 1_555
C8_3 C7_3 1_555 1_555
H2_3 C8_3 1_555 1_555
C9_3 C8_3 1_555 1_555
H3_3 C9_3 1_555 1_555
C10_3 N3_2 1_555 1_555
H4_3 C10_3 1_555 1_555
C12_3 C11_3 1_555 1_555
C14_3 C12_3 1_555 1_555
H6_3 C14_3 1_555 1_555
Zn4 O4_2 1_555 1_555
N2_2 C5_3 1_555 1_555
N2_2 Zn4 1_555 1_555
C6_3 C10_3 1_555 1_555
N9_2 C21_3 1_555 1_555
C19_3 C18_3 1_555 1_555
H9_3 C19_3 1_555 1_555
C20_3 C18_3 1_555 1_555
H10_3 C20_3 1_555 1_555
C21_3 C19_3 1_555 1_555
H11_3 C21_3 1_555 1_555
C22_3 N9_2 1_555 1_555
H12_3 C22_3 1_555 1_555
C20_3 C22_3 1_555 1_555
N8 C15_3 1_555 1_555
C15_3 C13_3 1_555 1_555
H7_3 C15_3 1_555 1_555
C16_3 N8 1_555 1_555
H8_3 C16_3 1_555 1_555
N8_2 C15_4 1_555 1_555
N9 C21_4 1_555 1_555
C15_4 C13_4 1_555 1_555
H7_4 C15_4 1_555 1_555
C16_4 N8_2 1_555 1_555
H8_4 C16_4 1_555 1_555
C19_4 C18_4 1_555 1_555
H9_4 C19_4 1_555 1_555
C20_4 C18_4 1_555 1_555
H10_4 C20_4 1_555 1_555
C21_4 C19_4 1_555 1_555
H11_4 C21_4 1_555 1_555
C22_4 N9 1_555 1_555
H12_4 C22_4 1_555 1_555
C20_4 C22_4 1_555 1_555
O5_4 Eu2_2 1_555 1_555
O12_2 C11_4 1_555 1_555
O7_4 Eu2_2 1_555 1_555
O8_4 Eu2_2 1_555 1_555
C11_4 O5_4 1_555 1_555
C12_4 C11_4 1_555 1_555
C14_4 C12_4 1_555 1_555
H6_4 C14_4 1_555 1_555
C17_4 O7_4 1_555 1_555
O8_4 C17_4 1_555 1_555
Zn4 O1_4 1_555 1_555
O1_4 C1_4 1_555 1_555
O10_2 C4_4 1_555 1_555
O11_2 C4_4 1_555 1_555
N1_4 Zn4 1_555 1_555
N6_2 C3_4 1_555 1_555
N7_2 C9_4 1_555 1_555
C1_4 O9_2 1_555 1_555
C2_4 N1_4 1_555 1_555
C3_4 C2_4 1_555 1_555
C4_4 C3_4 1_555 1_555
C5_4 N1_4 1_555 1_555
C6_4 C5_4 1_555 1_555
C7_4 C6_4 1_555 1_555
H1_4 C7_4 1_555 1_555
C8_4 C7_4 1_555 1_555
H2_4 C8_4 1_555 1_555
C9_4 C8_4 1_555 1_555
H3_4 C9_4 1_555 1_555
C10_4 N7_2 1_555 1_555
H4_4 C10_4 1_555 1_555
N6_2 C5_4 1_555 1_555
C1_4 C2_4 1_555 1_555
C6_4 C10_4 1_555 1_555

#END
