
###############################################################################
#
# This file contains modified crystal structure data generated from the
# MOF subset of the Cambridge Structural Database (CSD) v543 
# hosted by the Cambridge Crystallographic Data Centre (CCDC).
#
# This work is licensed under the Creative Commons
# Attribution-NonCommercial-ShareAlike 4.0 International License.
# To view a copy of this license, visit
# http://creativecommons.org/licenses/by-nc-sa/4.0/
# or send a letter to
# Creative Commons, PO Box 1866, Mountain View, CA 94042, USA.
#
# CIF created using the CSD Python API on 29 September 2022
# The structure has been converted into the P1 space group
# The structure has a 3D framework
# The original CSD entry PEKHIY is in the monoclinic crystal system
# The framework has been calculated to contain at least 10.0% void space
# The void calculation uses a probe of radius 1.32A, grid spacing 0.4
#
###############################################################################

data_PEKHIY
_chemical_formula_moiety         '(C88 H48 Cd4 Gd4 N20 O28)n'
_symmetry_cell_setting           triclinic
_symmetry_space_group_name_H-M   'P 1'
_symmetry_Int_Tables_number      1
_space_group_name_Hall           'P 1'
loop_
_symmetry_equiv_pos_site_id
_symmetry_equiv_pos_as_xyz
1 x,y,z
_cell_length_a                   11.0308(10)
_cell_length_b                   13.5717(12)
_cell_length_c                   20.8930(15)
_cell_angle_alpha                90
_cell_angle_beta                 121.259(3)
_cell_angle_gamma                90
_cell_volume                     2673.76
loop_
_atom_site_label
_atom_site_type_symbol
_atom_site_fract_x
_atom_site_fract_y
_atom_site_fract_z
Cd4 Cd 0.006562(15) 0.856320(11) 0.766128(8)
O2 O 0.38909(14) 0.01857(11) 0.92105(8)
O4 O 0.35983(19) 0.22605(13) 0.92182(10)
O7 O 0.68104(16) 0.00875(13) 0.97287(9)
N2 N 0.02805(18) 0.18847(14) 0.75186(10)
O8 O 0.21234(19) 0.33101(13) 0.83747(10)
C3 C 0.1578(2) 0.06069(16) 0.82014(11)
C5 C 0.1567(2) 0.16297(16) 0.81253(11)
N5 N 0.02837(17) 0.02428(13) 0.76554(9)
C6 C 0.2515(2) 0.24495(17) 0.86028(12)
H1 H 0.8594 0.0268 0.9400
Gd2 Gd 0.558807(10) 0.136028(8) 0.996400(5)
Gd1 Gd 0.441193(10) 0.863972(8) 0.003600(5)
O5 O 0.4430(2) 0.82126(19) 0.12028(10)
O6 O 0.25061(18) 0.78316(15) 0.01335(9)
N3 N 0.1331(2) 0.67009(18) 0.20311(11)
C17 C 0.2715(3) 0.6903(2) 0.23812(15)
H9 H 0.3272 0.6785 0.2893
C18 C 0.3349(3) 0.7279(3) 0.20171(15)
H10 H 0.4315 0.7417 0.2280
C19 C 0.1107(3) 0.7252(3) 0.08889(16)
H11 H 0.0526 0.7370 0.0378
C20 C 0.0558(3) 0.6874(3) 0.12983(17)
C21 C 0.3214(3) 0.7852(2) 0.08390(14)
C22 C 0.2537(3) 0.7450(2) 0.12545(14)
Cd3 Cd 0.006562(15) 0.643680(11) 0.266128(8)
O9 O 0.61091(14) 0.98143(11) 0.07895(8)
O10 O 0.64017(19) 0.77395(13) 0.07818(10)
O11 O 0.31896(16) 0.99125(13) 0.02713(9)
O1 O 0.22938(14) 0.90159(11) 0.87389(8)
O3 O 0.57276(16) 0.86178(12) 0.93923(9)
N4 N 0.9057(2) 0.86480(16) 0.84256(11)
C2 C 0.2644(2) 0.99164(15) 0.87395(10)
C7 C 0.6584(2) 0.92508(19) 0.94347(12)
C8 C 0.7475(2) 0.90056(19) 0.90932(12)
C9 C 0.8455(2) 0.9678(2) 0.91443(14)
C14 C 0.7326(3) 0.8136(2) 0.87176(15)
H6 H 0.6698 0.7653 0.8685
C15 C 0.9234(3) 0.9467(2) 0.88118(15)
H7 H 0.9911 0.9920 0.8862
C16 C 0.8127(3) 0.7996(2) 0.83904(15)
H8 H 0.8008 0.7412 0.8131
N6 N 0.3822(2) 0.69713(15) 0.93611(11)
N8 N 0.1331(2) 0.82991(18) 0.70311(11)
N1 N 0.6178(2) 0.19713(15) 0.56389(11)
C1 C 0.8034(2) 0.10590(17) 0.66756(13)
C4 C 0.9538(2) 0.10405(16) 0.72643(12)
C10 C 0.7552(2) 0.17933(18) 0.61442(12)
H2 H 0.8225 0.2195 0.6134
C11 C 0.7028(3) 0.0424(2) 0.66582(17)
C12 C 0.5608(3) 0.0571(2) 0.6123(2)
H4 H 0.4921 0.0142 0.6091
C13 C 0.5227(3) 0.1352(2) 0.5643(2)
H5 H 0.4268 0.1462 0.5305
Gd3 Gd 0.558807(10) 0.363972(8) 0.496400(5)
Cd2 Cd 0.993438(15) 0.356320(11) 0.733872(8)
H3 H 0.7302 0.9909 0.7000
N7 N 0.97195(18) 0.68847(14) 0.74814(10)
O12 O 0.78766(19) 0.83101(13) 0.66253(10)
C1_2 C 0.1966(2) 0.60590(17) 0.83244(13)
C4_2 C 0.0462(2) 0.60405(16) 0.77357(12)
C10_2 C 0.2448(2) 0.67933(18) 0.88558(12)
H2_2 H 0.1775 0.7195 0.8866
C11_2 C 0.2972(3) 0.5424(2) 0.83418(17)
H3_2 H 0.2698 0.4909 0.8000
C12_2 C 0.4392(3) 0.5571(2) 0.8877(2)
H4_2 H 0.5079 0.5142 0.8909
C13_2 C 0.4773(3) 0.6352(2) 0.9357(2)
H5_2 H 0.5732 0.6462 0.9695
H12 H 0.0407 0.1732 0.3951
N9 N 0.0943(2) 0.36480(16) 0.65744(11)
O1_2 O 0.77062(14) 0.40159(11) 0.62611(8)
O2_2 O 0.61091(14) 0.51857(11) 0.57895(8)
O3_2 O 0.42724(16) 0.36178(12) 0.56077(9)
O4_2 O 0.64017(19) 0.72605(13) 0.57818(10)
O5_2 O 0.5570(2) 0.32126(19) 0.37972(10)
O6_2 O 0.74939(18) 0.28316(15) 0.48665(9)
O7_2 O 0.31896(16) 0.50875(13) 0.52713(9)
N3_2 N 0.8669(2) 0.17009(18) 0.29689(11)
C2_2 C 0.7356(2) 0.49164(15) 0.62605(10)
C3_2 C 0.8422(2) 0.56069(16) 0.67986(11)
C5_2 C 0.8433(2) 0.66297(16) 0.68747(11)
N5_2 N 0.97163(17) 0.52428(13) 0.73446(9)
C6_2 C 0.7485(2) 0.74495(17) 0.63972(12)
C7_2 C 0.3416(2) 0.42508(19) 0.55653(12)
C8_2 C 0.2525(2) 0.40056(19) 0.59068(12)
C9_2 C 0.1545(2) 0.4678(2) 0.58557(14)
H1_2 H 0.1406 0.5268 0.5600
C14_2 C 0.2674(3) 0.3136(2) 0.62824(15)
H6_2 H 0.3302 0.2653 0.6315
C15_2 C 0.0766(3) 0.4467(2) 0.61882(15)
H7_2 H 0.0089 0.4920 0.6138
C16_2 C 0.1873(3) 0.2996(2) 0.66096(15)
H8_2 H 0.1992 0.2412 0.6869
C17_2 C 0.7285(3) 0.1903(2) 0.26188(15)
H9_2 H 0.6728 0.1785 0.2107
C18_2 C 0.6651(3) 0.2279(3) 0.29829(15)
H10_2 H 0.5685 0.2417 0.2720
C19_2 C 0.8893(3) 0.2252(3) 0.41111(16)
H11_2 H 0.9474 0.2370 0.4622
C20_2 C 0.9442(3) 0.1874(3) 0.37017(17)
C21_2 C 0.6786(3) 0.2852(2) 0.41610(14)
C22_2 C 0.7463(3) 0.2450(2) 0.37455(14)
Gd2_2 Gd 0.441193(10) 0.636028(8) 0.503600(5)
Cd3_2 Cd 0.993438(15) 0.143680(11) 0.233872(8)
O9_2 O 0.38909(14) 0.48143(11) 0.42105(8)
O10_2 O 0.35983(19) 0.27395(13) 0.42182(10)
O11_2 O 0.68104(16) 0.49125(13) 0.47287(9)
N8_2 N 0.8669(2) 0.32991(18) 0.79689(11)
H3_3 H 0.2698 0.0091 0.3000
N7_2 N 0.02805(18) 0.31153(14) 0.25186(10)
O12_2 O 0.21234(19) 0.16899(13) 0.33747(10)
N9_2 N 0.0943(2) 0.13520(16) 0.15744(11)
N1_2 N 0.3822(2) 0.80287(15) 0.43611(11)
C1_3 C 0.1966(2) 0.89410(17) 0.33244(13)
C4_3 C 0.0462(2) 0.89595(16) 0.27357(12)
C10_3 C 0.2448(2) 0.82067(18) 0.38558(12)
H2_3 H 0.1775 0.7805 0.3866
C11_3 C 0.2972(3) 0.9576(2) 0.33418(17)
C12_3 C 0.4392(3) 0.9429(2) 0.3877(2)
H4_3 H 0.5079 0.9858 0.3909
C13_3 C 0.4773(3) 0.8648(2) 0.4357(2)
H5_3 H 0.5732 0.8538 0.4695
O1_3 O 0.77062(14) 0.09841(11) 0.12611(8)
O3_3 O 0.42724(16) 0.13822(12) 0.06077(9)
C2_3 C 0.7356(2) 0.00836(15) 0.12605(10)
C7_3 C 0.3416(2) 0.07492(19) 0.05653(12)
C8_3 C 0.2525(2) 0.09944(19) 0.09068(12)
C9_3 C 0.1545(2) 0.0322(2) 0.08557(14)
C14_3 C 0.2674(3) 0.1864(2) 0.12824(15)
H6_3 H 0.3302 0.2347 0.1315
C15_3 C 0.0766(3) 0.0533(2) 0.11882(15)
H7_3 H 0.0089 0.0080 0.1138
C16_3 C 0.1873(3) 0.2004(2) 0.16096(15)
H8_3 H 0.1992 0.2588 0.1869
N6_2 N 0.6178(2) 0.30287(15) 0.06389(11)
O5_3 O 0.5570(2) 0.17874(19) 0.87972(10)
O6_3 O 0.74939(18) 0.21684(15) 0.98665(9)
C17_3 C 0.7285(3) 0.3097(2) 0.76188(15)
H9_3 H 0.6728 0.3215 0.7107
C18_3 C 0.6651(3) 0.2721(3) 0.79829(15)
H10_3 H 0.5685 0.2583 0.7720
C19_3 C 0.8893(3) 0.2748(3) 0.91111(16)
H11_3 H 0.9474 0.2630 0.9622
C20_3 C 0.9442(3) 0.3126(3) 0.87017(17)
C21_3 C 0.6786(3) 0.2148(2) 0.91610(14)
C22_3 C 0.7463(3) 0.2550(2) 0.87455(14)
N2_2 N 0.97195(18) 0.81153(14) 0.24814(10)
O8_2 O 0.78766(19) 0.66899(13) 0.16253(10)
C3_3 C 0.8422(2) 0.93931(16) 0.17986(11)
C5_3 C 0.8433(2) 0.83703(16) 0.18747(11)
N5_3 N 0.97163(17) 0.97572(13) 0.23446(9)
C6_3 C 0.7485(2) 0.75505(17) 0.13972(12)
H1_3 H 0.1406 0.9732 0.0600
O1_4 O 0.22938(14) 0.59841(11) 0.37389(8)
O3_4 O 0.57276(16) 0.63822(12) 0.43923(9)
O5_4 O 0.4430(2) 0.67874(19) 0.62028(10)
O6_4 O 0.25061(18) 0.71684(15) 0.51335(9)
N4_2 N 0.9057(2) 0.63520(16) 0.34256(11)
C2_4 C 0.2644(2) 0.50836(15) 0.37395(10)
C3_4 C 0.1578(2) 0.43931(16) 0.32014(11)
C5_4 C 0.1567(2) 0.33703(16) 0.31253(11)
N5_4 N 0.02837(17) 0.47572(13) 0.26554(9)
C6_4 C 0.2515(2) 0.25505(17) 0.36028(12)
C7_4 C 0.6584(2) 0.57492(19) 0.44347(12)
C8_4 C 0.7475(2) 0.59944(19) 0.40932(12)
C9_4 C 0.8455(2) 0.5322(2) 0.41443(14)
H1_4 H 0.8594 0.4732 0.4400
C14_4 C 0.7326(3) 0.6864(2) 0.37176(15)
H6_4 H 0.6698 0.7347 0.3685
C15_4 C 0.9234(3) 0.5533(2) 0.38118(15)
H7_4 H 0.9911 0.5080 0.3862
C16_4 C 0.8127(3) 0.7004(2) 0.33904(15)
H8_4 H 0.8008 0.7588 0.3131
C17_4 C 0.2715(3) 0.8097(2) 0.73812(15)
H9_4 H 0.3272 0.8215 0.7893
C18_4 C 0.3349(3) 0.7721(3) 0.70171(15)
H10_4 H 0.4315 0.7583 0.7280
C19_4 C 0.1107(3) 0.7748(3) 0.58889(16)
H11_4 H 0.0526 0.7630 0.5378
C20_4 C 0.0558(3) 0.8126(3) 0.62983(17)
C21_4 C 0.3214(3) 0.7148(2) 0.58390(14)
C22_4 C 0.2537(3) 0.7550(2) 0.62545(14)
C1_4 C 0.8034(2) 0.39410(17) 0.16756(13)
C4_4 C 0.9538(2) 0.39595(16) 0.22643(12)
C10_4 C 0.7552(2) 0.32067(18) 0.11442(12)
H2_4 H 0.8225 0.2805 0.1134
C11_4 C 0.7028(3) 0.4576(2) 0.16582(17)
H3_4 H 0.7302 0.5091 0.2000
C12_4 C 0.5608(3) 0.4429(2) 0.1123(2)
H4_4 H 0.4921 0.4858 0.1091
C13_4 C 0.5227(3) 0.3648(2) 0.0643(2)
H5_4 H 0.4268 0.3538 0.0305
H12_2 H 0.9593 0.8268 0.6049
H12_3 H 0.9593 0.6732 0.1049
H12_4 H 0.0407 0.3268 0.8951
loop_
_geom_bond_atom_site_label_1
_geom_bond_atom_site_label_2
_geom_bond_site_symmetry_1
_geom_bond_site_symmetry_2
O4 C6 1_555 1_555
O8 C6 1_555 1_555
C5 N2 1_555 1_555
C6 C5 1_555 1_555
Gd2 O2 1_555 1_555
O4 Gd2 1_555 1_555
O7 Gd2 1_555 1_555
C3 C5 1_555 1_555
C3 N5 1_555 1_555
O5 Gd1 1_555 1_555
O6 Gd1 1_555 1_555
N3 C17 1_555 1_555
C17 H9 1_555 1_555
C18 C17 1_555 1_555
H10 C18 1_555 1_555
C19 H11 1_555 1_555
C20 N3 1_555 1_555
C21 O5 1_555 1_555
C22 C18 1_555 1_555
Cd3 N3 1_555 1_555
O9 Gd1 1_555 1_555
O10 Gd1 1_555 1_555
O11 Gd1 1_555 1_555
O6 C21 1_555 1_555
C19 C20 1_555 1_555
C19 C22 1_555 1_555
C21 C22 1_555 1_555
Cd4 O1 1_555 1_555
O1 C2 1_555 1_555
N4 C15 1_555 1_555
C7 O3 1_555 1_555
C8 C7 1_555 1_555
C9 C8 1_555 1_555
C14 C8 1_555 1_555
H6 C14 1_555 1_555
C15 C9 1_555 1_555
H7 C15 1_555 1_555
C16 N4 1_555 1_555
H8 C16 1_555 1_555
N8 Cd4 1_555 1_555
C14 C16 1_555 1_555
N1 C10 1_555 1_555
C1 C4 1_555 1_555
C10 C1 1_555 1_555
H2 C10 1_555 1_555
C11 C1 1_555 1_555
C12 C11 1_555 1_555
H4 C12 1_555 1_555
C13 N1 1_555 1_555
H5 C13 1_555 1_555
Gd3 N1 1_555 1_555
C12 C13 1_555 1_555
N6 C10_2 1_555 1_555
C1_2 C4_2 1_555 1_555
C10_2 C1_2 1_555 1_555
H2_2 C10_2 1_555 1_555
C11_2 C1_2 1_555 1_555
H3_2 C11_2 1_555 1_555
C12_2 C11_2 1_555 1_555
H4_2 C12_2 1_555 1_555
C13_2 N6 1_555 1_555
H5_2 C13_2 1_555 1_555
C12_2 C13_2 1_555 1_555
Gd3 O1_2 1_555 1_555
Cd2 O1_2 1_555 1_555
O1_2 C2_2 1_555 1_555
O2_2 Gd3 1_555 1_555
O3_2 Gd3 1_555 1_555
O4_2 C6_2 1_555 1_555
O5_2 Gd3 1_555 1_555
O6_2 Gd3 1_555 1_555
O7_2 C7_2 1_555 1_555
O12 C6_2 1_555 1_555
N3_2 C17_2 1_555 1_555
N9 C15_2 1_555 1_555
C2_2 O2_2 1_555 1_555
C3_2 C2_2 1_555 1_555
C5_2 N7 1_555 1_555
N5_2 Cd2 1_555 1_555
C6_2 C5_2 1_555 1_555
C7_2 O3_2 1_555 1_555
C8_2 C7_2 1_555 1_555
C9_2 C8_2 1_555 1_555
H1_2 C9_2 1_555 1_555
C14_2 C8_2 1_555 1_555
H6_2 C14_2 1_555 1_555
C15_2 C9_2 1_555 1_555
H7_2 C15_2 1_555 1_555
C16_2 N9 1_555 1_555
H8_2 C16_2 1_555 1_555
C17_2 H9_2 1_555 1_555
C18_2 C17_2 1_555 1_555
H10_2 C18_2 1_555 1_555
C19_2 H11_2 1_555 1_555
C20_2 N3_2 1_555 1_555
C21_2 O5_2 1_555 1_555
C22_2 C18_2 1_555 1_555
Gd2_2 O2_2 1_555 1_555
Cd3_2 N3_2 1_555 1_555
O9_2 Gd3 1_555 1_555
O10_2 Gd3 1_555 1_555
O11_2 Gd3 1_555 1_555
N8_2 Cd2 1_555 1_555
O4_2 Gd2_2 1_555 1_555
O6_2 C21_2 1_555 1_555
O7_2 Gd2_2 1_555 1_555
C3_2 C5_2 1_555 1_555
C3_2 N5_2 1_555 1_555
C14_2 C16_2 1_555 1_555
C19_2 C20_2 1_555 1_555
C19_2 C22_2 1_555 1_555
C21_2 C22_2 1_555 1_555
Gd2_2 O9_2 1_555 1_555
N1_2 C10_3 1_555 1_555
C1_3 C4_3 1_555 1_555
C10_3 C1_3 1_555 1_555
H2_3 C10_3 1_555 1_555
C11_3 C1_3 1_555 1_555
C12_3 C11_3 1_555 1_555
H4_3 C12_3 1_555 1_555
C13_3 N1_2 1_555 1_555
H5_3 C13_3 1_555 1_555
Gd2_2 N1_2 1_555 1_555
C12_3 C13_3 1_555 1_555
Cd3_2 O1_3 1_555 1_555
O1_3 C2_3 1_555 1_555
N9_2 C15_3 1_555 1_555
C7_3 O3_3 1_555 1_555
C8_3 C7_3 1_555 1_555
C9_3 C8_3 1_555 1_555
C14_3 C8_3 1_555 1_555
H6_3 C14_3 1_555 1_555
C15_3 C9_3 1_555 1_555
H7_3 C15_3 1_555 1_555
C16_3 N9_2 1_555 1_555
H8_3 C16_3 1_555 1_555
C14_3 C16_3 1_555 1_555
O5_3 Gd2 1_555 1_555
O6_3 Gd2 1_555 1_555
N8_2 C17_3 1_555 1_555
C17_3 H9_3 1_555 1_555
C18_3 C17_3 1_555 1_555
H10_3 C18_3 1_555 1_555
C19_3 H11_3 1_555 1_555
C20_3 N8_2 1_555 1_555
C21_3 O5_3 1_555 1_555
C22_3 C18_3 1_555 1_555
O6_3 C21_3 1_555 1_555
C19_3 C20_3 1_555 1_555
C19_3 C22_3 1_555 1_555
C21_3 C22_3 1_555 1_555
O10 C6_3 1_555 1_555
O8_2 C6_3 1_555 1_555
C5_3 N2_2 1_555 1_555
C6_3 C5_3 1_555 1_555
C3_3 C5_3 1_555 1_555
C3_3 N5_3 1_555 1_555
Gd2_2 O1_4 1_555 1_555
Cd3 O1_4 1_555 1_555
O1_4 C2_4 1_555 1_555
O3_4 Gd2_2 1_555 1_555
O10_2 C6_4 1_555 1_555
O5_4 Gd2_2 1_555 1_555
O6_4 Gd2_2 1_555 1_555
O11_2 C7_4 1_555 1_555
O12_2 C6_4 1_555 1_555
N8 C17_4 1_555 1_555
N4_2 C15_4 1_555 1_555
C2_4 O9_2 1_555 1_555
C3_4 C2_4 1_555 1_555
C5_4 N7_2 1_555 1_555
N5_4 Cd3 1_555 1_555
C6_4 C5_4 1_555 1_555
C7_4 O3_4 1_555 1_555
C8_4 C7_4 1_555 1_555
C9_4 C8_4 1_555 1_555
H1_4 C9_4 1_555 1_555
C14_4 C8_4 1_555 1_555
H6_4 C14_4 1_555 1_555
C15_4 C9_4 1_555 1_555
H7_4 C15_4 1_555 1_555
C16_4 N4_2 1_555 1_555
H8_4 C16_4 1_555 1_555
C17_4 H9_4 1_555 1_555
C18_4 C17_4 1_555 1_555
H10_4 C18_4 1_555 1_555
C19_4 H11_4 1_555 1_555
C20_4 N8 1_555 1_555
C21_4 O5_4 1_555 1_555
C22_4 C18_4 1_555 1_555
O6_4 C21_4 1_555 1_555
C3_4 C5_4 1_555 1_555
C3_4 N5_4 1_555 1_555
C14_4 C16_4 1_555 1_555
C19_4 C20_4 1_555 1_555
C19_4 C22_4 1_555 1_555
C21_4 C22_4 1_555 1_555
N6_2 C10_4 1_555 1_555
C1_4 C4_4 1_555 1_555
C10_4 C1_4 1_555 1_555
H2_4 C10_4 1_555 1_555
C11_4 C1_4 1_555 1_555
H3_4 C11_4 1_555 1_555
C12_4 C11_4 1_555 1_555
H4_4 C12_4 1_555 1_555
C13_4 N6_2 1_555 1_555
H5_4 C13_4 1_555 1_555
C12_4 C13_4 1_555 1_555

#END
