
###############################################################################
#
# This file contains modified crystal structure data generated from the
# MOF subset of the Cambridge Structural Database (CSD) v543 
# hosted by the Cambridge Crystallographic Data Centre (CCDC).
#
# This work is licensed under the Creative Commons
# Attribution-NonCommercial-ShareAlike 4.0 International License.
# To view a copy of this license, visit
# http://creativecommons.org/licenses/by-nc-sa/4.0/
# or send a letter to
# Creative Commons, PO Box 1866, Mountain View, CA 94042, USA.
#
# CIF created using the CSD Python API on 29 September 2022
# The structure has been converted into the P1 space group
# The structure has a 3D framework
# The original CSD entry PEKHUK is in the monoclinic crystal system
# The framework has been calculated to contain at least 10.0% void space
# The void calculation uses a probe of radius 1.32A, grid spacing 0.4
#
###############################################################################

data_PEKHUK
_chemical_formula_moiety         '(C88 H48 N20 O29 Tb4)n'
_symmetry_cell_setting           triclinic
_symmetry_space_group_name_H-M   'P 1'
_symmetry_Int_Tables_number      1
_space_group_name_Hall           'P 1'
loop_
_symmetry_equiv_pos_site_id
_symmetry_equiv_pos_as_xyz
1 x,y,z
_cell_length_a                   10.9838(19)
_cell_length_b                   13.543(2)
_cell_length_c                   20.830(3)
_cell_angle_alpha                90
_cell_angle_beta                 121.372(6)
_cell_angle_gamma                90
_cell_volume                     2645.55
loop_
_atom_site_label
_atom_site_type_symbol
_atom_site_fract_x
_atom_site_fract_y
_atom_site_fract_z
H12 H 0.0408 0.6715 0.8955
O6 O 0.3190(19) 0.0087(12) 0.0274(10)
H6 H 0.1403 0.0271 0.0622
Tb2 Tb 0.44143(11) 0.13569(8) 0.00382(5)
O9 O 0.6123(14) 0.0165(10) 0.0797(7)
O4 O 0.2301(16) 0.0997(12) 0.8750(8)
C4 C 0.262(2) 0.0079(17) 0.8722(11)
Cd2 Cd 0.00692(16) 0.14390(11) 0.76612(8)
O5 O 0.4290(18) 0.8610(12) 0.0609(10)
N4 N 0.095(2) 0.8634(16) 0.1583(10)
C11 C 0.342(2) 0.9284(18) 0.0557(14)
C12 C 0.254(3) 0.9036(19) 0.0910(14)
C13 C 0.271(3) 0.8157(19) 0.1301(15)
H5 H 0.3376 0.7688 0.1351
C14 C 0.155(3) 0.967(2) 0.0872(15)
C15 C 0.077(3) 0.946(2) 0.1192(16)
H7 H 0.0076 0.9905 0.1134
C16 C 0.189(3) 0.800(2) 0.1608(16)
H8 H 0.1992 0.7398 0.1850
O10 O 0.7699(16) 0.9003(12) 0.1250(8)
N7 N 0.6185(19) 0.6975(15) 0.0636(10)
Tb1 Tb 0.55857(11) 0.86431(8) 0.99618(5)
O1 O 0.2091(18) 0.6681(12) 0.8369(10)
O2 O 0.3590(18) 0.7764(11) 0.9224(9)
O3 O 0.3877(14) 0.9835(10) 0.9203(7)
O7 O 0.555(2) 0.8177(16) 0.8807(11)
O8 O 0.751(2) 0.7848(13) 0.9885(10)
N1 N 0.0257(18) 0.8104(12) 0.7511(9)
N2 N 0.0275(19) 0.9765(13) 0.7649(10)
N5 N 0.867(2) 0.6685(16) 0.7968(13)
C1 C 0.251(2) 0.7531(16) 0.8622(12)
C2 C 0.160(2) 0.8380(15) 0.8139(11)
C3 C 0.158(2) 0.9376(15) 0.8205(11)
C17 C 0.680(3) 0.785(2) 0.9167(15)
C18 C 0.745(3) 0.746(2) 0.8756(15)
C19 C 0.664(3) 0.727(2) 0.8001(15)
H9 H 0.5663 0.7382 0.7735
C20 C 0.888(3) 0.723(2) 0.9114(17)
H10 H 0.9466 0.7319 0.9630
C21 C 0.731(3) 0.690(2) 0.7640(16)
H11 H 0.6743 0.6786 0.7125
C22 C 0.944(4) 0.685(2) 0.8703(17)
Cd4 Cd 0.99308(16) 0.64390(11) 0.73388(8)
O12 O 0.6810(19) 0.9913(12) 0.9726(10)
N8 N 0.095(2) 0.6366(16) 0.6583(10)
Cd3 Cd 0.99308(16) 0.85610(11) 0.23388(8)
N3 N 0.6185(19) 0.8025(15) 0.5636(10)
C5 C 0.952(2) 0.8947(15) 0.7266(12)
C6 C 0.801(2) 0.8938(16) 0.6673(13)
C7 C 0.701(3) 0.9586(18) 0.6655(15)
C8 C 0.559(3) 0.9428(19) 0.6106(16)
H2 H 0.4890 0.9851 0.6070
C9 C 0.522(3) 0.865(2) 0.5623(16)
H3 H 0.4263 0.8556 0.5267
C10 C 0.754(2) 0.8201(15) 0.6134(11)
H4 H 0.8221 0.7805 0.6123
Tb3 Tb 0.55857(11) 0.63569(8) 0.49618(5)
O11 O 0.7699(16) 0.5997(12) 0.6250(8)
N6 N 0.9725(19) 0.4765(13) 0.7351(10)
N3_2 N 0.3815(19) 0.3025(15) 0.9364(10)
C5_2 C 0.048(2) 0.3947(15) 0.7734(12)
C6_2 C 0.199(2) 0.3938(16) 0.8327(13)
C7_2 C 0.299(3) 0.4586(18) 0.8345(15)
H1 H 0.2717 0.5104 0.8004
C8_2 C 0.441(3) 0.4428(19) 0.8894(16)
H2_2 H 0.5110 0.4851 0.8930
C9_2 C 0.478(3) 0.365(2) 0.9377(16)
H3_2 H 0.5737 0.3556 0.9733
C10_2 C 0.246(2) 0.3201(15) 0.8866(11)
H4_2 H 0.1779 0.2805 0.8877
Cd3_2 Cd 0.00692(16) 0.35610(11) 0.26612(8)
N9 N 0.133(2) 0.1685(16) 0.7032(13)
Tb1_2 Tb 0.44143(11) 0.36431(8) 0.50382(5)
O1_2 O 0.7909(18) 0.1681(12) 0.6631(10)
O2_2 O 0.6410(18) 0.2764(11) 0.5776(9)
O3_2 O 0.6123(14) 0.4835(10) 0.5797(7)
O5_2 O 0.5710(18) 0.3610(12) 0.4391(10)
O6_2 O 0.6810(19) 0.5087(12) 0.4726(10)
O7_2 O 0.445(2) 0.3177(16) 0.6193(11)
O8_2 O 0.249(2) 0.2848(13) 0.5115(10)
N1_2 N 0.9743(18) 0.3104(12) 0.7489(9)
N4_2 N 0.905(2) 0.3634(16) 0.3417(10)
C1_2 C 0.749(2) 0.2531(16) 0.6378(12)
C2_2 C 0.840(2) 0.3380(15) 0.6861(11)
C3_2 C 0.842(2) 0.4376(15) 0.6795(11)
C4_2 C 0.738(2) 0.5079(17) 0.6278(11)
C11_2 C 0.658(2) 0.4284(18) 0.4443(14)
C12_2 C 0.746(3) 0.4036(19) 0.4090(14)
C13_2 C 0.729(3) 0.3157(19) 0.3699(15)
H5_2 H 0.6624 0.2688 0.3649
C14_2 C 0.845(3) 0.467(2) 0.4128(15)
H6_2 H 0.8597 0.5271 0.4378
C15_2 C 0.923(3) 0.446(2) 0.3808(16)
H7_2 H 0.9924 0.4905 0.3866
C16_2 C 0.811(3) 0.300(2) 0.3392(16)
H8_2 H 0.8008 0.2398 0.3150
C17_2 C 0.320(3) 0.285(2) 0.5833(15)
C18_2 C 0.255(3) 0.246(2) 0.6244(15)
C19_2 C 0.336(3) 0.227(2) 0.6999(15)
H9_2 H 0.4337 0.2382 0.7265
C20_2 C 0.112(3) 0.223(2) 0.5886(17)
H10_2 H 0.0534 0.2319 0.5370
C21_2 C 0.269(3) 0.190(2) 0.7360(16)
H11_2 H 0.3257 0.1786 0.7875
C22_2 C 0.056(4) 0.185(2) 0.6297(17)
O9_2 O 0.3877(14) 0.5165(10) 0.4203(7)
O10_2 O 0.2301(16) 0.4003(12) 0.3750(8)
O12_2 O 0.3190(19) 0.4913(12) 0.5274(10)
N7_2 N 0.3815(19) 0.1975(15) 0.4364(10)
N8_2 N 0.905(2) 0.1366(16) 0.8417(10)
C5_3 C 0.048(2) 0.1053(15) 0.2734(12)
C6_3 C 0.199(2) 0.1062(16) 0.3327(13)
C7_3 C 0.299(3) 0.0414(18) 0.3345(15)
C8_3 C 0.441(3) 0.0572(19) 0.3894(16)
H2_3 H 0.5110 0.0149 0.3930
C9_3 C 0.478(3) 0.135(2) 0.4377(16)
H3_3 H 0.5737 0.1444 0.4733
C10_3 C 0.246(2) 0.1799(15) 0.3866(11)
H4_3 H 0.1779 0.2195 0.3877
N6_2 N 0.0275(19) 0.5235(13) 0.2649(10)
N9_2 N 0.133(2) 0.3315(16) 0.2032(13)
O1_3 O 0.7909(18) 0.3319(12) 0.1631(10)
O2_3 O 0.6410(18) 0.2236(11) 0.0776(9)
O7_3 O 0.445(2) 0.1823(16) 0.1193(11)
O8_3 O 0.249(2) 0.2152(13) 0.0115(10)
N1_3 N 0.9743(18) 0.1896(12) 0.2489(9)
N2_2 N 0.9725(19) 0.0235(13) 0.2351(10)
C1_3 C 0.749(2) 0.2469(16) 0.1378(12)
C2_3 C 0.840(2) 0.1620(15) 0.1861(11)
C3_3 C 0.842(2) 0.0624(15) 0.1795(11)
C17_3 C 0.320(3) 0.215(2) 0.0833(15)
C18_3 C 0.255(3) 0.254(2) 0.1244(15)
C19_3 C 0.336(3) 0.273(2) 0.1999(15)
H9_3 H 0.4337 0.2618 0.2265
C20_3 C 0.112(3) 0.277(2) 0.0886(17)
H10_3 H 0.0534 0.2681 0.0370
C21_3 C 0.269(3) 0.310(2) 0.2360(16)
H11_3 H 0.3257 0.3214 0.2875
C22_3 C 0.056(4) 0.315(2) 0.1297(17)
O5_3 O 0.5710(18) 0.1390(12) 0.9391(10)
C11_3 C 0.658(2) 0.0716(18) 0.9443(14)
C12_3 C 0.746(3) 0.0964(19) 0.9090(14)
C13_3 C 0.729(3) 0.1843(19) 0.8699(15)
H5_3 H 0.6624 0.2312 0.8649
C14_3 C 0.845(3) 0.033(2) 0.9128(15)
C15_3 C 0.923(3) 0.054(2) 0.8808(16)
H7_3 H 0.9924 0.0095 0.8866
C16_3 C 0.811(3) 0.200(2) 0.8392(16)
H8_3 H 0.8008 0.2602 0.8150
C4_3 C 0.738(2) 0.9921(17) 0.1278(11)
H6_3 H 0.8597 0.9729 0.9378
O1_4 O 0.2091(18) 0.8319(12) 0.3369(10)
O2_4 O 0.3590(18) 0.7236(11) 0.4224(9)
O5_4 O 0.4290(18) 0.6390(12) 0.5609(10)
O7_4 O 0.555(2) 0.6823(16) 0.3807(11)
O8_4 O 0.751(2) 0.7152(13) 0.4885(10)
N1_4 N 0.0257(18) 0.6896(12) 0.2511(9)
N5_2 N 0.867(2) 0.8315(16) 0.2968(13)
C1_4 C 0.251(2) 0.7469(16) 0.3622(12)
C2_4 C 0.160(2) 0.6620(15) 0.3139(11)
C3_4 C 0.158(2) 0.5624(15) 0.3205(11)
C4_4 C 0.262(2) 0.4921(17) 0.3722(11)
C11_4 C 0.342(2) 0.5716(18) 0.5557(14)
C12_4 C 0.254(3) 0.5964(19) 0.5910(14)
C13_4 C 0.271(3) 0.6843(19) 0.6301(15)
H5_4 H 0.3376 0.7312 0.6351
C14_4 C 0.155(3) 0.533(2) 0.5872(15)
H6_4 H 0.1403 0.4729 0.5622
C15_4 C 0.077(3) 0.554(2) 0.6192(16)
H7_4 H 0.0076 0.5095 0.6134
C16_4 C 0.189(3) 0.700(2) 0.6608(16)
H8_4 H 0.1992 0.7602 0.6850
C17_4 C 0.680(3) 0.715(2) 0.4167(15)
C18_4 C 0.745(3) 0.754(2) 0.3756(15)
C19_4 C 0.664(3) 0.773(2) 0.3001(15)
H9_4 H 0.5663 0.7618 0.2735
C20_4 C 0.888(3) 0.777(2) 0.4114(17)
H10_4 H 0.9466 0.7681 0.4630
C21_4 C 0.731(3) 0.810(2) 0.2640(16)
H11_4 H 0.6743 0.8214 0.2125
C22_4 C 0.944(4) 0.815(2) 0.3703(17)
C5_4 C 0.952(2) 0.6053(15) 0.2266(12)
C6_4 C 0.801(2) 0.6062(16) 0.1673(13)
C7_4 C 0.701(3) 0.5414(18) 0.1655(15)
H1_2 H 0.7283 0.4896 0.1996
C8_4 C 0.559(3) 0.5572(19) 0.1106(16)
H2_4 H 0.4890 0.5149 0.1070
C9_4 C 0.522(3) 0.635(2) 0.0623(16)
H3_4 H 0.4263 0.6444 0.0267
C10_4 C 0.754(2) 0.6799(15) 0.1134(11)
H4_4 H 0.8221 0.7195 0.1123
H1_3 H 0.7283 0.0104 0.6996
H12_2 H 0.9592 0.1715 0.6045
H1_4 H 0.2717 0.9896 0.3004
H12_3 H 0.9592 0.3285 0.1045
H12_4 H 0.0408 0.8285 0.3955
loop_
_geom_bond_atom_site_label_1
_geom_bond_atom_site_label_2
_geom_bond_site_symmetry_1
_geom_bond_site_symmetry_2
O6 Tb2 1_555 1_555
Tb2 O9 1_555 1_555
O4 C4 1_555 1_555
Cd2 O4 1_555 1_555
N4 C15 1_555 1_555
C11 O5 1_555 1_555
C12 C11 1_555 1_555
C13 C12 1_555 1_555
H5 C13 1_555 1_555
C14 C12 1_555 1_555
C15 C14 1_555 1_555
H7 C15 1_555 1_555
C16 N4 1_555 1_555
H8 C16 1_555 1_555
C13 C16 1_555 1_555
Tb1 O2 1_555 1_555
O1 C1 1_555 1_555
O2 C1 1_555 1_555
O3 Tb1 1_555 1_555
O7 Tb1 1_555 1_555
O8 Tb1 1_555 1_555
N2 C3 1_555 1_555
N5 C21 1_555 1_555
C1 C2 1_555 1_555
C2 N1 1_555 1_555
C3 C2 1_555 1_555
C17 O7 1_555 1_555
C18 C17 1_555 1_555
C19 C18 1_555 1_555
H9 C19 1_555 1_555
C20 C18 1_555 1_555
H10 C20 1_555 1_555
C21 C19 1_555 1_555
H11 C21 1_555 1_555
C22 N5 1_555 1_555
Cd4 N5 1_555 1_555
O12 Tb1 1_555 1_555
O8 C17 1_555 1_555
C20 C22 1_555 1_555
N3 C9 1_555 1_555
C6 C5 1_555 1_555
C7 C6 1_555 1_555
C8 C7 1_555 1_555
H2 C8 1_555 1_555
C9 C8 1_555 1_555
H3 C9 1_555 1_555
C10 N3 1_555 1_555
H4 C10 1_555 1_555
Tb3 N3 1_555 1_555
O11 Cd4 1_555 1_555
N6 Cd4 1_555 1_555
C6 C10 1_555 1_555
Tb3 O11 1_555 1_555
N3_2 C9_2 1_555 1_555
C6_2 C5_2 1_555 1_555
C7_2 C6_2 1_555 1_555
H1 C7_2 1_555 1_555
C8_2 C7_2 1_555 1_555
H2_2 C8_2 1_555 1_555
C9_2 C8_2 1_555 1_555
H3_2 C9_2 1_555 1_555
C10_2 N3_2 1_555 1_555
H4_2 C10_2 1_555 1_555
N9 Cd2 1_555 1_555
C6_2 C10_2 1_555 1_555
Tb1_2 O2_2 1_555 1_555
O1_2 C1_2 1_555 1_555
O2_2 C1_2 1_555 1_555
O3_2 Tb1_2 1_555 1_555
O11 C4_2 1_555 1_555
O5_2 Tb1_2 1_555 1_555
O6_2 C11_2 1_555 1_555
O7_2 Tb1_2 1_555 1_555
O8_2 Tb1_2 1_555 1_555
N6 C3_2 1_555 1_555
N4_2 C15_2 1_555 1_555
N9 C21_2 1_555 1_555
C1_2 C2_2 1_555 1_555
C2_2 N1_2 1_555 1_555
C3_2 C2_2 1_555 1_555
C4_2 O3_2 1_555 1_555
C11_2 O5_2 1_555 1_555
C12_2 C11_2 1_555 1_555
C13_2 C12_2 1_555 1_555
H5_2 C13_2 1_555 1_555
C14_2 C12_2 1_555 1_555
H6_2 C14_2 1_555 1_555
C15_2 C14_2 1_555 1_555
H7_2 C15_2 1_555 1_555
C16_2 N4_2 1_555 1_555
H8_2 C16_2 1_555 1_555
C17_2 O7_2 1_555 1_555
C18_2 C17_2 1_555 1_555
C19_2 C18_2 1_555 1_555
H9_2 C19_2 1_555 1_555
C20_2 C18_2 1_555 1_555
H10_2 C20_2 1_555 1_555
C21_2 C19_2 1_555 1_555
H11_2 C21_2 1_555 1_555
C22_2 N9 1_555 1_555
Tb3 O3_2 1_555 1_555
O9_2 Tb1_2 1_555 1_555
O10_2 Tb1_2 1_555 1_555
O12_2 Tb1_2 1_555 1_555
N7_2 Tb1_2 1_555 1_555
O6_2 Tb3 1_555 1_555
O8_2 C17_2 1_555 1_555
C3_2 C4_2 1_555 1_555
C13_2 C16_2 1_555 1_555
C20_2 C22_2 1_555 1_555
Tb3 O9_2 1_555 1_555
N7_2 C9_3 1_555 1_555
C6_3 C5_3 1_555 1_555
C7_3 C6_3 1_555 1_555
C8_3 C7_3 1_555 1_555
H2_3 C8_3 1_555 1_555
C9_3 C8_3 1_555 1_555
H3_3 C9_3 1_555 1_555
C10_3 N7_2 1_555 1_555
H4_3 C10_3 1_555 1_555
O10_2 Cd3_2 1_555 1_555
N6_2 Cd3_2 1_555 1_555
N9_2 Cd3_2 1_555 1_555
C6_3 C10_3 1_555 1_555
Tb2 O2_3 1_555 1_555
O1_3 C1_3 1_555 1_555
O2_3 C1_3 1_555 1_555
O7_3 Tb2 1_555 1_555
O8_3 Tb2 1_555 1_555
N2_2 C3_3 1_555 1_555
N9_2 C21_3 1_555 1_555
C1_3 C2_3 1_555 1_555
C2_3 N1_3 1_555 1_555
C3_3 C2_3 1_555 1_555
C17_3 O7_3 1_555 1_555
C18_3 C17_3 1_555 1_555
C19_3 C18_3 1_555 1_555
H9_3 C19_3 1_555 1_555
C20_3 C18_3 1_555 1_555
H10_3 C20_3 1_555 1_555
C21_3 C19_3 1_555 1_555
H11_3 C21_3 1_555 1_555
C22_3 N9_2 1_555 1_555
O8_3 C17_3 1_555 1_555
C20_3 C22_3 1_555 1_555
N8_2 C15_3 1_555 1_555
C11_3 O5_3 1_555 1_555
C12_3 C11_3 1_555 1_555
C13_3 C12_3 1_555 1_555
H5_3 C13_3 1_555 1_555
C14_3 C12_3 1_555 1_555
C15_3 C14_3 1_555 1_555
H7_3 C15_3 1_555 1_555
C16_3 N8_2 1_555 1_555
H8_3 C16_3 1_555 1_555
C13_3 C16_3 1_555 1_555
O10 C4_3 1_555 1_555
Cd3 O10 1_555 1_555
Tb3 O2_4 1_555 1_555
O1_4 C1_4 1_555 1_555
O2_4 C1_4 1_555 1_555
O10_2 C4_4 1_555 1_555
O5_4 Tb3 1_555 1_555
O12_2 C11_4 1_555 1_555
O7_4 Tb3 1_555 1_555
O8_4 Tb3 1_555 1_555
N6_2 C3_4 1_555 1_555
N8 C15_4 1_555 1_555
N5_2 C21_4 1_555 1_555
C1_4 C2_4 1_555 1_555
C2_4 N1_4 1_555 1_555
C3_4 C2_4 1_555 1_555
C4_4 O9_2 1_555 1_555
C11_4 O5_4 1_555 1_555
C12_4 C11_4 1_555 1_555
C13_4 C12_4 1_555 1_555
H5_4 C13_4 1_555 1_555
C14_4 C12_4 1_555 1_555
H6_4 C14_4 1_555 1_555
C15_4 C14_4 1_555 1_555
H7_4 C15_4 1_555 1_555
C16_4 N8 1_555 1_555
H8_4 C16_4 1_555 1_555
C17_4 O7_4 1_555 1_555
C18_4 C17_4 1_555 1_555
C19_4 C18_4 1_555 1_555
H9_4 C19_4 1_555 1_555
C20_4 C18_4 1_555 1_555
H10_4 C20_4 1_555 1_555
C21_4 C19_4 1_555 1_555
H11_4 C21_4 1_555 1_555
C22_4 N5_2 1_555 1_555
Cd3 N5_2 1_555 1_555
O8_4 C17_4 1_555 1_555
C3_4 C4_4 1_555 1_555
C13_4 C16_4 1_555 1_555
C20_4 C22_4 1_555 1_555
N7 C9_4 1_555 1_555
C6_4 C5_4 1_555 1_555
C7_4 C6_4 1_555 1_555
H1_2 C7_4 1_555 1_555
C8_4 C7_4 1_555 1_555
H2_4 C8_4 1_555 1_555
C9_4 C8_4 1_555 1_555
H3_4 C9_4 1_555 1_555
C10_4 N7 1_555 1_555
H4_4 C10_4 1_555 1_555
C6_4 C10_4 1_555 1_555

#END
