
###############################################################################
#
# This file contains modified crystal structure data generated from the
# MOF subset of the Cambridge Structural Database (CSD) v543 
# hosted by the Cambridge Crystallographic Data Centre (CCDC).
#
# This work is licensed under the Creative Commons
# Attribution-NonCommercial-ShareAlike 4.0 International License.
# To view a copy of this license, visit
# http://creativecommons.org/licenses/by-nc-sa/4.0/
# or send a letter to
# Creative Commons, PO Box 1866, Mountain View, CA 94042, USA.
#
# CIF created using the CSD Python API on 29 September 2022
# The structure has been converted into the P1 space group
# The structure has a 3D framework
# The original CSD entry PEKJAS is in the monoclinic crystal system
# The framework has been calculated to contain at least 10.0% void space
# The void calculation uses a probe of radius 1.32A, grid spacing 0.4
#
###############################################################################

data_PEKJAS
_chemical_formula_moiety         '(C88 H48 N20 O30 Tb4 Zn4)n'
_symmetry_cell_setting           triclinic
_symmetry_space_group_name_H-M   'P 1'
_symmetry_Int_Tables_number      1
_space_group_name_Hall           'P 1'
loop_
_symmetry_equiv_pos_site_id
_symmetry_equiv_pos_as_xyz
1 x,y,z
_cell_length_a                   10.6901(12)
_cell_length_b                   12.9647(15)
_cell_length_c                   20.7464(18)
_cell_angle_alpha                90
_cell_angle_beta                 120.143(4)
_cell_angle_gamma                90
_cell_volume                     2486.51
loop_
_atom_site_label
_atom_site_type_symbol
_atom_site_fract_x
_atom_site_fract_y
_atom_site_fract_z
C1 C 0.0159(5) 0.0176(4) 0.6269(3)
O12 O 0.1894(4) 0.1459(3) 0.5520(2)
N7 N 0.0074(5) 0.3166(4) 0.5540(3)
N9 N 0.2073(5) 0.1714(4) 0.7864(3)
Tb3 Tb 0.07149(3) 0.641631(19) 0.007763(13)
O2 O 0.0463(4) 0.9869(3) 0.57866(19)
O3 O 0.0254(5) 0.7673(3) 0.5862(2)
O4 O 0.0433(5) 0.6651(3) 0.6750(2)
N2 N 0.0277(5) 0.8183(3) 0.7559(2)
C2 C 0.0193(6) 0.9483(4) 0.6836(3)
C3 C 0.0371(6) 0.8421(4) 0.6942(3)
C4 C 0.0386(6) 0.7535(4) 0.6490(3)
C10 C 0.0309(6) 0.8372(4) 0.8951(3)
H4 H 0.1087 0.8010 0.8979
Tb2 Tb 0.07149(3) 0.858369(19) 0.507763(13)
Zn2 Zn 0.03291(7) 0.65213(5) 0.77130(3)
Tb1 Tb 0.92851(3) 0.141631(19) 0.492237(13)
Zn1 Zn 0.96709(7) 0.15213(5) 0.72870(3)
O1 O 0.9774(4) 0.1108(3) 0.62583(18)
O5 O 0.7612(4) 0.0099(3) 0.4774(2)
O7 O 0.7148(4) 0.2317(3) 0.4782(2)
O8 O 0.6950(5) 0.1737(4) 0.3736(2)
N5 N 0.2073(5) 0.3286(4) 0.2864(3)
H1 H 0.8016 0.0150 0.7990
H8 H 0.5075 0.0300 0.4370
C17 C 0.6430(7) 0.2192(5) 0.4090(4)
C18 C 0.4898(7) 0.2591(5) 0.3653(4)
C19 C 0.4164(7) 0.2603(5) 0.2891(4)
H9 H 0.4605 0.2373 0.2629
C20 C 0.2772(7) 0.2959(5) 0.2519(4)
H10 H 0.2288 0.2974 0.2001
C21 C 0.2801(7) 0.3289(6) 0.3603(4)
H11 H 0.2343 0.3534 0.3853
C22 C 0.4222(8) 0.2940(6) 0.4021(4)
H12 H 0.4699 0.2946 0.4539
O9 O 0.9537(4) 0.0131(3) 0.42134(19)
O10 O 0.9746(5) 0.2327(3) 0.4138(2)
O11 O 0.9567(5) 0.1651(3) 0.8250(2)
N6 N 0.9723(5) 0.3183(3) 0.7441(2)
N8 N 0.7309(5) 0.1419(4) 0.6584(2)
O6 O 0.8106(4) 0.8541(3) 0.4480(2)
N1 N 0.9941(5) 0.9895(3) 0.7367(2)
N3 N 0.9926(5) 0.8166(4) 0.9460(3)
N4 N 0.2691(5) 0.8581(4) 0.3416(2)
C5 C 0.9991(6) 0.9087(4) 0.7785(3)
C6 C 0.9621(6) 0.9091(4) 0.8381(3)
C7 C 0.8515(7) 0.9668(5) 0.8365(4)
C8 C 0.8160(8) 0.9516(5) 0.8917(4)
H2 H 0.7455 0.9917 0.8934
C9 C 0.8880(8) 0.8755(5) 0.9441(4)
H3 H 0.8623 0.8645 0.9802
C11 C 0.7268(6) 0.9214(5) 0.4489(3)
C12 C 0.5670(6) 0.8958(4) 0.4125(3)
C13 C 0.5082(7) 0.8035(5) 0.3766(3)
H5 H 0.5679 0.7518 0.3759
C14 C 0.3613(7) 0.7883(5) 0.3419(4)
H6 H 0.3241 0.7260 0.3174
C15 C 0.3276(6) 0.9452(5) 0.3787(3)
H7 H 0.2667 0.9941 0.3814
C16 C 0.4730(6) 0.9669(5) 0.4132(4)
Zn3 Zn 0.03291(7) 0.84787(5) 0.27130(3)
Zn4 Zn 0.96709(7) 0.34787(5) 0.22870(3)
O5_2 O 0.2388(4) 0.5099(3) 0.0226(2)
O6_2 O 0.1894(4) 0.3541(3) 0.0520(2)
O7_2 O 0.2852(4) 0.7317(3) 0.0218(2)
O8_2 O 0.3050(5) 0.6737(4) 0.1264(2)
N4_2 N 0.7309(5) 0.3581(4) 0.1584(2)
N5_2 N 0.7927(5) 0.8286(4) 0.2136(3)
C11_2 C 0.2732(6) 0.4214(5) 0.0511(3)
C12_2 C 0.4330(6) 0.3958(4) 0.0875(3)
C13_2 C 0.4918(7) 0.3035(5) 0.1234(3)
H5_2 H 0.4321 0.2518 0.1241
C14_2 C 0.6387(7) 0.2883(5) 0.1581(4)
H6_2 H 0.6759 0.2260 0.1826
C15_2 C 0.6724(6) 0.4452(5) 0.1213(3)
H7_2 H 0.7333 0.4941 0.1186
C16_2 C 0.5270(6) 0.4669(5) 0.0868(4)
H8_2 H 0.4925 0.5300 0.0630
C17_2 C 0.3570(7) 0.7192(5) 0.0910(4)
C18_2 C 0.5102(7) 0.7591(5) 0.1347(4)
C19_2 C 0.5836(7) 0.7603(5) 0.2109(4)
H9_2 H 0.5395 0.7373 0.2371
C20_2 C 0.7228(7) 0.7959(5) 0.2481(4)
H10_2 H 0.7712 0.7974 0.2999
C21_2 C 0.7199(7) 0.8289(6) 0.1397(4)
H11_2 H 0.7657 0.8534 0.1147
C22_2 C 0.5778(8) 0.7940(6) 0.0979(4)
H12_2 H 0.5301 0.7946 0.0461
O9_2 O 0.0463(4) 0.5131(3) 0.07866(19)
O10_2 O 0.0254(5) 0.7327(3) 0.0862(2)
O1_2 O 0.0226(4) 0.6108(3) 0.87417(18)
N1_2 N 0.0059(5) 0.4895(3) 0.7633(2)
C5_2 C 0.0009(6) 0.4087(4) 0.7215(3)
C6_2 C 0.0379(6) 0.4091(4) 0.6619(3)
C7_2 C 0.1485(7) 0.4668(5) 0.6635(4)
H1_2 H 0.1984 0.5150 0.7010
C8_2 C 0.1840(8) 0.4516(5) 0.6083(4)
H2_2 H 0.2545 0.4917 0.6066
C9_2 C 0.1120(8) 0.3755(5) 0.5559(4)
H3_2 H 0.1377 0.3645 0.5198
N8_2 N 0.2691(5) 0.6419(4) 0.8416(2)
O2_2 O 0.9537(4) 0.4869(3) 0.92134(19)
O3_2 O 0.9746(5) 0.2673(3) 0.9138(2)
C1_2 C 0.9841(5) 0.5176(4) 0.8731(3)
C2_2 C 0.9807(6) 0.4483(4) 0.8164(3)
C3_2 C 0.9629(6) 0.3421(4) 0.8058(3)
C4_2 C 0.9614(6) 0.2535(4) 0.8510(3)
C10_2 C 0.9691(6) 0.3372(4) 0.6049(3)
H4_2 H 0.8913 0.3010 0.6021
Tb2_2 Tb 0.92851(3) 0.358369(19) 0.992237(13)
O12_2 O 0.8106(4) 0.6459(3) 0.9480(2)
N9_2 N 0.7927(5) 0.6714(4) 0.7136(3)
N1_3 N 0.0059(5) 0.0105(3) 0.2633(2)
N3_2 N 0.0074(5) 0.1834(4) 0.0540(3)
C5_3 C 0.0009(6) 0.0913(4) 0.2215(3)
C6_3 C 0.0379(6) 0.0909(4) 0.1619(3)
C7_3 C 0.1485(7) 0.0332(5) 0.1635(4)
C8_3 C 0.1840(8) 0.0484(5) 0.1083(4)
H2_3 H 0.2545 0.0083 0.1066
C9_3 C 0.1120(8) 0.1245(5) 0.0559(4)
H3_3 H 0.1377 0.1355 0.0198
C11_3 C 0.2732(6) 0.0786(5) 0.5511(3)
C12_3 C 0.4330(6) 0.1042(4) 0.5875(3)
C13_3 C 0.4918(7) 0.1965(5) 0.6234(3)
H5_3 H 0.4321 0.2482 0.6241
C14_3 C 0.6387(7) 0.2117(5) 0.6581(4)
H6_3 H 0.6759 0.2740 0.6826
C15_3 C 0.6724(6) 0.0548(5) 0.6213(3)
H7_3 H 0.7333 0.0059 0.6186
C16_3 C 0.5270(6) 0.0331(5) 0.5868(4)
O1_3 O 0.0226(4) 0.8892(3) 0.37417(18)
O5_3 O 0.2388(4) 0.9901(3) 0.5226(2)
O7_3 O 0.2852(4) 0.7683(3) 0.5218(2)
O8_3 O 0.3050(5) 0.8263(4) 0.6264(2)
H1_3 H 0.1984 0.9850 0.2010
H8_3 H 0.4925 0.9700 0.5630
C17_3 C 0.3570(7) 0.7808(5) 0.5910(4)
C18_3 C 0.5102(7) 0.7409(5) 0.6347(4)
C19_3 C 0.5836(7) 0.7397(5) 0.7109(4)
H9_3 H 0.5395 0.7627 0.7371
C20_3 C 0.7228(7) 0.7041(5) 0.7481(4)
H10_3 H 0.7712 0.7026 0.7999
C21_3 C 0.7199(7) 0.6711(6) 0.6397(4)
H11_3 H 0.7657 0.6466 0.6147
C22_3 C 0.5778(8) 0.7060(6) 0.5979(4)
H12_3 H 0.5301 0.7054 0.5461
O11_2 O 0.0433(5) 0.8349(3) 0.1750(2)
N6_2 N 0.0277(5) 0.6817(3) 0.2559(2)
O4_2 O 0.9567(5) 0.3349(3) 0.3250(2)
N2_2 N 0.9723(5) 0.1817(3) 0.2441(2)
C2_3 C 0.9807(6) 0.0517(4) 0.3164(3)
C3_3 C 0.9629(6) 0.1579(4) 0.3058(3)
C4_3 C 0.9614(6) 0.2465(4) 0.3510(3)
C10_3 C 0.9691(6) 0.1628(4) 0.1049(3)
H4_3 H 0.8913 0.1990 0.1021
C1_3 C 0.9841(5) 0.9824(4) 0.3731(3)
N7_2 N 0.9926(5) 0.6834(4) 0.4460(3)
C1_4 C 0.0159(5) 0.4824(4) 0.1269(3)
C2_4 C 0.0193(6) 0.5517(4) 0.1836(3)
C3_4 C 0.0371(6) 0.6579(4) 0.1942(3)
C4_4 C 0.0386(6) 0.7465(4) 0.1490(3)
C10_4 C 0.0309(6) 0.6628(4) 0.3951(3)
H4_4 H 0.1087 0.6990 0.3979
O1_4 O 0.9774(4) 0.3892(3) 0.12583(18)
N1_4 N 0.9941(5) 0.5105(3) 0.2367(2)
C5_4 C 0.9991(6) 0.5913(4) 0.2785(3)
C6_4 C 0.9621(6) 0.5909(4) 0.3381(3)
C7_4 C 0.8515(7) 0.5332(5) 0.3365(4)
H1_4 H 0.8016 0.4850 0.2990
C8_4 C 0.8160(8) 0.5484(5) 0.3917(4)
H2_4 H 0.7455 0.5083 0.3934
C9_4 C 0.8880(8) 0.6245(5) 0.4441(4)
H3_4 H 0.8623 0.6355 0.4802
O5_4 O 0.7612(4) 0.4901(3) 0.9774(2)
O7_4 O 0.7148(4) 0.2683(3) 0.9782(2)
O8_4 O 0.6950(5) 0.3263(4) 0.8736(2)
C11_4 C 0.7268(6) 0.5786(5) 0.9489(3)
C12_4 C 0.5670(6) 0.6042(4) 0.9125(3)
C13_4 C 0.5082(7) 0.6965(5) 0.8766(3)
H5_4 H 0.5679 0.7482 0.8759
C14_4 C 0.3613(7) 0.7117(5) 0.8419(4)
H6_4 H 0.3241 0.7740 0.8174
C15_4 C 0.3276(6) 0.5548(5) 0.8787(3)
H7_4 H 0.2667 0.5059 0.8814
C16_4 C 0.4730(6) 0.5331(5) 0.9132(4)
H8_4 H 0.5075 0.4700 0.9370
C17_4 C 0.6430(7) 0.2808(5) 0.9090(4)
C18_4 C 0.4898(7) 0.2409(5) 0.8653(4)
C19_4 C 0.4164(7) 0.2397(5) 0.7891(4)
H9_4 H 0.4605 0.2627 0.7629
C20_4 C 0.2772(7) 0.2041(5) 0.7519(4)
H10_4 H 0.2288 0.2026 0.7001
C21_4 C 0.2801(7) 0.1711(6) 0.8603(4)
H11_4 H 0.2343 0.1466 0.8853
C22_4 C 0.4222(8) 0.2060(6) 0.9021(4)
H12_4 H 0.4699 0.2054 0.9539
loop_
_geom_bond_atom_site_label_1
_geom_bond_atom_site_label_2
_geom_bond_site_symmetry_1
_geom_bond_site_symmetry_2
O3 C4 1_555 1_555
O4 C4 1_555 1_555
N2 C3 1_555 1_555
C3 C2 1_555 1_555
C4 C3 1_555 1_555
H4 C10 1_555 1_555
Tb2 O2 1_555 1_555
Zn2 O4 1_555 1_555
O3 Tb2 1_555 1_555
N2 Zn2 1_555 1_555
Tb1 O1 1_555 1_555
Zn1 O1 1_555 1_555
O5 Tb1 1_555 1_555
O7 Tb1 1_555 1_555
O8 Tb1 1_555 1_555
N5 C20 1_555 1_555
C17 O7 1_555 1_555
C18 C17 1_555 1_555
C19 C18 1_555 1_555
H9 C19 1_555 1_555
C20 C19 1_555 1_555
H10 C20 1_555 1_555
C21 N5 1_555 1_555
H11 C21 1_555 1_555
C22 C18 1_555 1_555
H12 C22 1_555 1_555
O9 Tb1 1_555 1_555
O10 Tb1 1_555 1_555
O11 Zn1 1_555 1_555
N6 Zn1 1_555 1_555
N8 Zn1 1_555 1_555
O8 C17 1_555 1_555
C21 C22 1_555 1_555
O6 C11 1_555 1_555
N3 C9 1_555 1_555
N4 C14 1_555 1_555
C5 N1 1_555 1_555
C6 C5 1_555 1_555
C7 C6 1_555 1_555
C8 C7 1_555 1_555
H2 C8 1_555 1_555
C9 C8 1_555 1_555
H3 C9 1_555 1_555
C12 C11 1_555 1_555
C13 C12 1_555 1_555
H5 C13 1_555 1_555
C14 C13 1_555 1_555
H6 C14 1_555 1_555
C15 N4 1_555 1_555
H7 C15 1_555 1_555
C16 C12 1_555 1_555
Zn3 N4 1_555 1_555
C15 C16 1_555 1_555
O5_2 Tb3 1_555 1_555
O6_2 C11_2 1_555 1_555
O7_2 Tb3 1_555 1_555
O8_2 Tb3 1_555 1_555
N4_2 C14_2 1_555 1_555
N5_2 C20_2 1_555 1_555
C11_2 O5_2 1_555 1_555
C12_2 C11_2 1_555 1_555
C13_2 C12_2 1_555 1_555
H5_2 C13_2 1_555 1_555
C14_2 C13_2 1_555 1_555
H6_2 C14_2 1_555 1_555
C15_2 N4_2 1_555 1_555
H7_2 C15_2 1_555 1_555
C16_2 C12_2 1_555 1_555
H8_2 C16_2 1_555 1_555
C17_2 O7_2 1_555 1_555
C18_2 C17_2 1_555 1_555
C19_2 C18_2 1_555 1_555
H9_2 C19_2 1_555 1_555
C20_2 C19_2 1_555 1_555
H10_2 C20_2 1_555 1_555
C21_2 N5_2 1_555 1_555
H11_2 C21_2 1_555 1_555
C22_2 C18_2 1_555 1_555
H12_2 C22_2 1_555 1_555
Zn4 N4_2 1_555 1_555
O9_2 Tb3 1_555 1_555
O10_2 Tb3 1_555 1_555
O8_2 C17_2 1_555 1_555
C15_2 C16_2 1_555 1_555
C21_2 C22_2 1_555 1_555
Zn2 O1_2 1_555 1_555
N1_2 Zn2 1_555 1_555
N7 C9_2 1_555 1_555
C5_2 N1_2 1_555 1_555
C6_2 C5_2 1_555 1_555
C7_2 C6_2 1_555 1_555
H1_2 C7_2 1_555 1_555
C8_2 C7_2 1_555 1_555
H2_2 C8_2 1_555 1_555
C9_2 C8_2 1_555 1_555
H3_2 C9_2 1_555 1_555
N8_2 Zn2 1_555 1_555
O3_2 C4_2 1_555 1_555
O11 C4_2 1_555 1_555
N6 C3_2 1_555 1_555
C1_2 O2_2 1_555 1_555
C3_2 C2_2 1_555 1_555
C4_2 C3_2 1_555 1_555
H4_2 C10_2 1_555 1_555
Tb2_2 O2_2 1_555 1_555
O3_2 Tb2_2 1_555 1_555
C1_2 C2_2 1_555 1_555
O12 C11_3 1_555 1_555
N3_2 C9_3 1_555 1_555
N8 C14_3 1_555 1_555
C5_3 N1_3 1_555 1_555
C6_3 C5_3 1_555 1_555
C7_3 C6_3 1_555 1_555
C8_3 C7_3 1_555 1_555
H2_3 C8_3 1_555 1_555
C9_3 C8_3 1_555 1_555
H3_3 C9_3 1_555 1_555
C12_3 C11_3 1_555 1_555
C13_3 C12_3 1_555 1_555
H5_3 C13_3 1_555 1_555
C14_3 C13_3 1_555 1_555
H6_3 C14_3 1_555 1_555
C15_3 N8 1_555 1_555
H7_3 C15_3 1_555 1_555
C16_3 C12_3 1_555 1_555
C15_3 C16_3 1_555 1_555
Tb2 O1_3 1_555 1_555
Zn3 O1_3 1_555 1_555
O5_3 Tb2 1_555 1_555
O7_3 Tb2 1_555 1_555
O8_3 Tb2 1_555 1_555
N9_2 C20_3 1_555 1_555
C17_3 O7_3 1_555 1_555
C18_3 C17_3 1_555 1_555
C19_3 C18_3 1_555 1_555
H9_3 C19_3 1_555 1_555
C20_3 C19_3 1_555 1_555
H10_3 C20_3 1_555 1_555
C21_3 N9_2 1_555 1_555
H11_3 C21_3 1_555 1_555
C22_3 C18_3 1_555 1_555
H12_3 C22_3 1_555 1_555
O11_2 Zn3 1_555 1_555
N6_2 Zn3 1_555 1_555
O8_3 C17_3 1_555 1_555
C21_3 C22_3 1_555 1_555
O10 C4_3 1_555 1_555
O4_2 C4_3 1_555 1_555
N2_2 C3_3 1_555 1_555
C3_3 C2_3 1_555 1_555
C4_3 C3_3 1_555 1_555
H4_3 C10_3 1_555 1_555
Zn4 O4_2 1_555 1_555
N2_2 Zn4 1_555 1_555
O10_2 C4_4 1_555 1_555
O11_2 C4_4 1_555 1_555
N6_2 C3_4 1_555 1_555
C1_4 O9_2 1_555 1_555
C3_4 C2_4 1_555 1_555
C4_4 C3_4 1_555 1_555
H4_4 C10_4 1_555 1_555
C1_4 C2_4 1_555 1_555
Zn4 O1_4 1_555 1_555
N1_4 Zn4 1_555 1_555
N7_2 C9_4 1_555 1_555
C5_4 N1_4 1_555 1_555
C6_4 C5_4 1_555 1_555
C7_4 C6_4 1_555 1_555
H1_4 C7_4 1_555 1_555
C8_4 C7_4 1_555 1_555
H2_4 C8_4 1_555 1_555
C9_4 C8_4 1_555 1_555
H3_4 C9_4 1_555 1_555
O5_4 Tb2_2 1_555 1_555
O12_2 C11_4 1_555 1_555
O7_4 Tb2_2 1_555 1_555
O8_4 Tb2_2 1_555 1_555
N8_2 C14_4 1_555 1_555
N9 C20_4 1_555 1_555
C11_4 O5_4 1_555 1_555
C12_4 C11_4 1_555 1_555
C13_4 C12_4 1_555 1_555
H5_4 C13_4 1_555 1_555
C14_4 C13_4 1_555 1_555
H6_4 C14_4 1_555 1_555
C15_4 N8_2 1_555 1_555
H7_4 C15_4 1_555 1_555
C16_4 C12_4 1_555 1_555
H8_4 C16_4 1_555 1_555
C17_4 O7_4 1_555 1_555
C18_4 C17_4 1_555 1_555
C19_4 C18_4 1_555 1_555
H9_4 C19_4 1_555 1_555
C20_4 C19_4 1_555 1_555
H10_4 C20_4 1_555 1_555
C21_4 N9 1_555 1_555
H11_4 C21_4 1_555 1_555
C22_4 C18_4 1_555 1_555
H12_4 C22_4 1_555 1_555
O8_4 C17_4 1_555 1_555
C15_4 C16_4 1_555 1_555
C21_4 C22_4 1_555 1_555

#END
