
###############################################################################
#
# This file contains modified crystal structure data generated from the
# MOF subset of the Cambridge Structural Database (CSD) v543 
# hosted by the Cambridge Crystallographic Data Centre (CCDC).
#
# This work is licensed under the Creative Commons
# Attribution-NonCommercial-ShareAlike 4.0 International License.
# To view a copy of this license, visit
# http://creativecommons.org/licenses/by-nc-sa/4.0/
# or send a letter to
# Creative Commons, PO Box 1866, Mountain View, CA 94042, USA.
#
# CIF created using the CSD Python API on 29 September 2022
# The structure has been converted into the P1 space group
# The structure has a 3D framework
# The original CSD entry PEKYOW is in the monoclinic crystal system
# The framework has been calculated to contain at least 10.0% void space
# The void calculation uses a probe of radius 1.32A, grid spacing 0.4
#
###############################################################################

data_PEKYOW
_chemical_formula_moiety         '(C84 H52 N20 O16 Zn4)n'
_symmetry_cell_setting           triclinic
_symmetry_space_group_name_H-M   'P 1'
_symmetry_Int_Tables_number      1
_space_group_name_Hall           'P 1'
loop_
_symmetry_equiv_pos_site_id
_symmetry_equiv_pos_as_xyz
1 x,y,z
_cell_length_a                   12.208(3)
_cell_length_b                   13.002(3)
_cell_length_c                   16.101(4)
_cell_angle_alpha                90
_cell_angle_beta                 104.197(4)
_cell_angle_gamma                90
_cell_volume                     2477.63
loop_
_atom_site_label
_atom_site_type_symbol
_atom_site_fract_x
_atom_site_fract_y
_atom_site_fract_z
N1 N 0.26843(17) 0.44563(15) 0.09315(13)
C9 C 0.2245(3) 0.0634(2) 0.00795(18)
H4 H 0.1745 0.1191 0.0146
H5 H 0.2733 0.0489 0.0640
C18 C 0.3907(3) 0.3177(3) 0.0636(2)
H10 H 0.4621 0.2879 0.0775
C19 C 0.3677(3) 0.3988(3) 0.1101(2)
H11 H 0.4244 0.4223 0.1559
C21 C 0.1908(2) 0.40977(19) 0.02911(18)
H13 H 0.1206 0.4419 0.0156
Zn2 Zn 0.24494(2) 0.56625(2) 0.16949(2)
O3 O 0.07249(17) 0.62658(15) 0.04388(14)
O4 O 0.23130(16) 0.69621(14) 0.11106(11)
C4 C 0.11123(19) 0.79401(18) 0.00348(15)
C5 C 0.1386(2) 0.6978(2) 0.05568(16)
C6 C 0.1785(2) 0.8809(2) 0.02389(15)
H2 H 0.2413 0.8789 0.0702
N7 N 0.12608(16) 0.51327(16) 0.22728(13)
O5 O 0.39051(16) 0.54878(16) 0.25428(12)
N5 N 0.62608(16) 0.98673(16) 0.72728(13)
C3 C 0.0198(2) 0.79751(18) 0.93477(14)
C7 C 0.1541(2) 0.96933(19) 0.97713(16)
C8 C 0.0631(2) 0.97142(19) 0.90729(16)
C10 C 0.5563(2) 0.9229(2) 0.7523(2)
H6 H 0.5559 0.8541 0.7362
C11 C 0.4845(2) 0.9537(2) 0.8009(2)
H7 H 0.4371 0.9064 0.8178
Zn4 Zn 0.74494(2) 0.93375(2) 0.66949(2)
O1 O 0.89051(16) 0.95122(16) 0.75428(12)
O2 O 0.81662(16) 0.82269(15) 0.81001(12)
C1 C 0.8928(2) 0.8843(2) 0.81175(16)
C2 C 0.9949(2) 0.88437(19) 0.88542(15)
H1 H 0.9736 0.7400 0.9212
C10_2 C 0.0563(2) 0.5771(2) 0.2523(2)
H6_2 H 0.0559 0.6459 0.2362
C13 C 0.0547(2) 0.37794(19) 0.29693(17)
H8 H 0.0553 0.3084 0.3106
C14 C 0.1247(2) 0.41496(19) 0.24928(17)
H9 H 0.1733 0.3695 0.2316
N6 N 0.76843(17) 0.05437(15) 0.59315(13)
N2 N 0.79366(16) 0.40239(15) 0.45231(13)
N3 N 0.84209(18) 0.46840(16) 0.40742(14)
N4 N 0.91048(17) 0.30823(16) 0.40261(15)
O2_2 O 0.31662(16) 0.67731(15) 0.31001(12)
O3_2 O 0.57249(17) 0.87342(15) 0.54388(14)
O4_2 O 0.73130(16) 0.80379(14) 0.61106(11)
C1_2 C 0.3928(2) 0.6157(2) 0.31175(16)
C2_2 C 0.4949(2) 0.61563(19) 0.38542(15)
C3_2 C 0.5198(2) 0.70249(18) 0.43477(14)
H1_2 H 0.4736 0.7600 0.4212
C4_2 C 0.61123(19) 0.70599(18) 0.50348(15)
C5_2 C 0.6386(2) 0.8022(2) 0.55568(16)
C6_2 C 0.6785(2) 0.6191(2) 0.52389(15)
H2_2 H 0.7413 0.6211 0.5702
C7_2 C 0.6541(2) 0.53067(19) 0.47713(16)
C8_2 C 0.5631(2) 0.52858(19) 0.40729(16)
H3 H 0.5469 0.4691 0.3745
C9_2 C 0.7245(3) 0.4366(2) 0.50795(18)
H4_2 H 0.6745 0.3809 0.5146
H5_2 H 0.7733 0.4511 0.5640
C11_2 C 0.9845(2) 0.5463(2) 0.3009(2)
H7_2 H 0.9371 0.5936 0.3178
C12 C 0.9834(2) 0.44471(19) 0.32443(17)
C15 C 0.9110(2) 0.40770(19) 0.37848(17)
C16 C 0.83701(19) 0.30792(19) 0.44924(16)
C17 C 0.8100(2) 0.21978(18) 0.49702(16)
C18_2 C 0.8907(3) 0.1823(3) 0.5636(2)
H10_2 H 0.9621 0.2121 0.5775
C19_2 C 0.8677(3) 0.1012(3) 0.6101(2)
H11_2 H 0.9244 0.0777 0.6559
C20 C 0.7073(2) 0.1728(2) 0.48055(18)
H12 H 0.6485 0.1966 0.4365
C21_2 C 0.6908(2) 0.09023(19) 0.52911(18)
H13_2 H 0.6206 0.0581 0.5156
N2_2 N 0.29366(16) 0.09761(15) 0.95231(13)
N3_2 N 0.34209(18) 0.03160(16) 0.90742(14)
N4_2 N 0.41048(17) 0.19177(16) 0.90261(15)
H3_2 H 0.0469 0.0309 0.8745
C12_2 C 0.4834(2) 0.05529(19) 0.82443(17)
C13_2 C 0.5547(2) 0.12206(19) 0.79693(17)
H8_2 H 0.5553 0.1916 0.8106
C14_2 C 0.6247(2) 0.08504(19) 0.74928(17)
H9_2 H 0.6733 0.1305 0.7316
C15_2 C 0.4110(2) 0.09230(19) 0.87848(17)
C16_2 C 0.33701(19) 0.19208(19) 0.94924(16)
C17_2 C 0.3100(2) 0.28022(18) 0.99702(16)
C20_2 C 0.2073(2) 0.3272(2) 0.98055(18)
H12_2 H 0.1485 0.3034 0.9365
Zn2_2 Zn 0.25506(2) 0.06625(2) 0.33051(2)
N1_2 N 0.23157(17) 0.94563(15) 0.40685(13)
N2_3 N 0.20634(16) 0.59761(15) 0.54769(13)
N3_3 N 0.15791(18) 0.53160(16) 0.59258(14)
N4_3 N 0.08952(17) 0.69177(16) 0.59739(15)
O1_2 O 0.60949(16) 0.45122(16) 0.74572(12)
O2_3 O 0.68338(16) 0.32269(15) 0.68999(12)
O3_3 O 0.42751(17) 0.12658(15) 0.45612(14)
O4_3 O 0.26870(16) 0.19621(14) 0.38894(11)
C1_3 C 0.6072(2) 0.3843(2) 0.68825(16)
C2_3 C 0.5051(2) 0.38437(19) 0.61458(15)
C3_3 C 0.4802(2) 0.29751(18) 0.56523(14)
H1_3 H 0.5264 0.2400 0.5788
C4_3 C 0.38877(19) 0.29401(18) 0.49652(15)
C5_3 C 0.3614(2) 0.1978(2) 0.44432(16)
C6_3 C 0.3215(2) 0.3809(2) 0.47611(15)
H2_3 H 0.2587 0.3789 0.4298
C7_3 C 0.3459(2) 0.46933(19) 0.52287(16)
C8_3 C 0.4369(2) 0.47142(19) 0.59271(16)
H3_3 H 0.4531 0.5309 0.6255
C9_3 C 0.2755(3) 0.5634(2) 0.49205(18)
H4_3 H 0.3255 0.6191 0.4854
H5_3 H 0.2267 0.5489 0.4360
C11_3 C 0.0155(2) 0.4537(2) 0.6991(2)
H7_3 H 0.0629 0.4064 0.6822
C12_3 C 0.0166(2) 0.55529(19) 0.67557(17)
C15_3 C 0.0890(2) 0.59230(19) 0.62152(17)
C16_3 C 0.16299(19) 0.69208(19) 0.55076(16)
C17_3 C 0.1900(2) 0.78022(18) 0.50298(16)
C18_3 C 0.1093(3) 0.8177(3) 0.4364(2)
H10_3 H 0.0379 0.7879 0.4225
C19_3 C 0.1323(3) 0.8988(3) 0.3899(2)
H11_3 H 0.0756 0.9223 0.3441
C20_3 C 0.2927(2) 0.8272(2) 0.51945(18)
H12_3 H 0.3515 0.8034 0.5635
C21_3 C 0.3092(2) 0.90977(19) 0.47089(18)
H13_3 H 0.3794 0.9419 0.4844
Zn3 Zn 0.75506(2) 0.43375(2) 0.83051(2)
N7_2 N 0.37392(16) 0.01327(16) 0.27272(13)
O5_2 O 0.10949(16) 0.04878(16) 0.24572(12)
N5_2 N 0.87392(16) 0.48673(16) 0.77272(13)
C10_3 C 0.9437(2) 0.4229(2) 0.7477(2)
H6_3 H 0.9441 0.3541 0.7638
C13_3 C 0.9453(2) 0.62206(19) 0.70307(17)
H8_3 H 0.9447 0.6916 0.6894
C14_3 C 0.8753(2) 0.58504(19) 0.75072(17)
H9_3 H 0.8267 0.6305 0.7684
O2_4 O 0.18338(16) 0.17731(15) 0.18999(12)
C1_4 C 0.1072(2) 0.1157(2) 0.18825(16)
C2_4 C 0.0051(2) 0.11563(19) 0.11458(15)
H1_4 H 0.0264 0.2600 0.0788
C3_4 C 0.9802(2) 0.20249(18) 0.06523(14)
C7_4 C 0.8459(2) 0.03067(19) 0.02287(16)
C8_4 C 0.9369(2) 0.02858(19) 0.09271(16)
C10_4 C 0.4437(2) 0.0771(2) 0.2477(2)
H6_4 H 0.4441 0.1459 0.2638
C11_4 C 0.5155(2) 0.0463(2) 0.1991(2)
H7_4 H 0.5629 0.0936 0.1822
O3_4 O 0.92751(17) 0.37342(15) 0.95612(14)
O4_4 O 0.76870(16) 0.30379(14) 0.88894(11)
C4_4 C 0.88877(19) 0.20599(18) 0.99652(15)
C5_4 C 0.8614(2) 0.3022(2) 0.94432(16)
C6_4 C 0.8215(2) 0.1191(2) 0.97611(15)
H2_4 H 0.7587 0.1211 0.9298
N6_2 N 0.73157(17) 0.55437(15) 0.90685(13)
C9_4 C 0.7755(3) 0.9366(2) 0.99205(18)
H4_4 H 0.8255 0.8809 0.9854
H5_4 H 0.7267 0.9511 0.9360
C18_4 C 0.6093(3) 0.6823(3) 0.9364(2)
H10_4 H 0.5379 0.7121 0.9225
C19_4 C 0.6323(3) 0.6012(3) 0.8899(2)
H11_4 H 0.5756 0.5777 0.8441
C21_4 C 0.8092(2) 0.59023(19) 0.97089(18)
H13_4 H 0.8794 0.5581 0.9844
N2_4 N 0.70634(16) 0.90239(15) 0.04769(13)
N3_4 N 0.65791(18) 0.96840(16) 0.09258(14)
N4_4 N 0.58952(17) 0.80823(16) 0.09739(15)
H3_4 H 0.9531 0.9691 0.1255
C12_4 C 0.5166(2) 0.94471(19) 0.17557(17)
C13_4 C 0.4453(2) 0.87794(19) 0.20307(17)
H8_4 H 0.4447 0.8084 0.1894
C14_4 C 0.3753(2) 0.91496(19) 0.25072(17)
H9_4 H 0.3267 0.8695 0.2684
C15_4 C 0.5890(2) 0.90770(19) 0.12152(17)
C16_4 C 0.66299(19) 0.80792(19) 0.05076(16)
C17_4 C 0.6900(2) 0.71978(18) 0.00298(16)
C20_4 C 0.7927(2) 0.6728(2) 0.01945(18)
H12_4 H 0.8515 0.6966 0.0635
loop_
_geom_bond_atom_site_label_1
_geom_bond_atom_site_label_2
_geom_bond_site_symmetry_1
_geom_bond_site_symmetry_2
N1 C19 1_555 1_555
H4 C9 1_555 1_555
H5 C9 1_555 1_555
H10 C18 1_555 1_555
C19 C18 1_555 1_555
H11 C19 1_555 1_555
C21 N1 1_555 1_555
H13 C21 1_555 1_555
Zn2 N1 1_555 1_555
Zn2 O4 1_555 1_555
O3 C5 1_555 1_555
O4 C5 1_555 1_555
C5 C4 1_555 1_555
C6 C4 1_555 1_555
H2 C6 1_555 1_555
N7 Zn2 1_555 1_555
O5 Zn2 1_555 1_555
N5 C10 1_555 1_555
C10 H6 1_555 1_555
C11 C10 1_555 1_555
H7 C11 1_555 1_555
Zn4 N5 1_555 1_555
C7 C8 1_555 1_555
O1 C1 1_555 1_555
O2 C1 1_555 1_555
C1 C2 1_555 1_555
Zn4 O1 1_555 1_555
N7 C10_2 1_555 1_555
C10_2 H6_2 1_555 1_555
H8 C13 1_555 1_555
C14 N7 1_555 1_555
H9 C14 1_555 1_555
C13 C14 1_555 1_555
Zn4 O4_2 1_555 1_555
N6 C19_2 1_555 1_555
N2 N3 1_555 1_555
N3 C15 1_555 1_555
N4 C15 1_555 1_555
O5 C1_2 1_555 1_555
O2_2 C1_2 1_555 1_555
O3_2 C5_2 1_555 1_555
O4_2 C5_2 1_555 1_555
C1_2 C2_2 1_555 1_555
C2_2 C3_2 1_555 1_555
C3_2 H1_2 1_555 1_555
C4_2 C3_2 1_555 1_555
C5_2 C4_2 1_555 1_555
C6_2 C4_2 1_555 1_555
H2_2 C6_2 1_555 1_555
C7_2 C6_2 1_555 1_555
C8_2 C2_2 1_555 1_555
H3 C8_2 1_555 1_555
C9_2 N2 1_555 1_555
H4_2 C9_2 1_555 1_555
H5_2 C9_2 1_555 1_555
H7_2 C11_2 1_555 1_555
C12 C11_2 1_555 1_555
C15 C12 1_555 1_555
C16 N2 1_555 1_555
C17 C16 1_555 1_555
C18_2 C17 1_555 1_555
H10_2 C18_2 1_555 1_555
C19_2 C18_2 1_555 1_555
H11_2 C19_2 1_555 1_555
C20 C17 1_555 1_555
H12 C20 1_555 1_555
C21_2 N6 1_555 1_555
H13_2 C21_2 1_555 1_555
N4 C16 1_555 1_555
C7_2 C8_2 1_555 1_555
C7_2 C9_2 1_555 1_555
C20 C21_2 1_555 1_555
N2_2 N3_2 1_555 1_555
N3_2 C15_2 1_555 1_555
N4_2 C15_2 1_555 1_555
C13_2 C12_2 1_555 1_555
H8_2 C13_2 1_555 1_555
H9_2 C14_2 1_555 1_555
C15_2 C12_2 1_555 1_555
C16_2 N2_2 1_555 1_555
C17_2 C16_2 1_555 1_555
C20_2 C17_2 1_555 1_555
H12_2 C20_2 1_555 1_555
N4_2 C16_2 1_555 1_555
C13_2 C14_2 1_555 1_555
Zn2_2 O4_3 1_555 1_555
N1_2 C19_3 1_555 1_555
N2_3 N3_3 1_555 1_555
N3_3 C15_3 1_555 1_555
N4_3 C15_3 1_555 1_555
O1_2 C1_3 1_555 1_555
O2_3 C1_3 1_555 1_555
O3_3 C5_3 1_555 1_555
O4_3 C5_3 1_555 1_555
C1_3 C2_3 1_555 1_555
C2_3 C3_3 1_555 1_555
C3_3 H1_3 1_555 1_555
C4_3 C3_3 1_555 1_555
C5_3 C4_3 1_555 1_555
C6_3 C4_3 1_555 1_555
H2_3 C6_3 1_555 1_555
C7_3 C6_3 1_555 1_555
C8_3 C2_3 1_555 1_555
H3_3 C8_3 1_555 1_555
C9_3 N2_3 1_555 1_555
H4_3 C9_3 1_555 1_555
H5_3 C9_3 1_555 1_555
H7_3 C11_3 1_555 1_555
C12_3 C11_3 1_555 1_555
C15_3 C12_3 1_555 1_555
C16_3 N2_3 1_555 1_555
C17_3 C16_3 1_555 1_555
C18_3 C17_3 1_555 1_555
H10_3 C18_3 1_555 1_555
C19_3 C18_3 1_555 1_555
H11_3 C19_3 1_555 1_555
C20_3 C17_3 1_555 1_555
H12_3 C20_3 1_555 1_555
C21_3 N1_2 1_555 1_555
H13_3 C21_3 1_555 1_555
Zn3 O1_2 1_555 1_555
N7_2 Zn2_2 1_555 1_555
O5_2 Zn2_2 1_555 1_555
N4_3 C16_3 1_555 1_555
C7_3 C8_3 1_555 1_555
C7_3 C9_3 1_555 1_555
C20_3 C21_3 1_555 1_555
N5_2 C10_3 1_555 1_555
C10_3 H6_3 1_555 1_555
H8_3 C13_3 1_555 1_555
C14_3 N5_2 1_555 1_555
H9_3 C14_3 1_555 1_555
Zn3 N5_2 1_555 1_555
C13_3 C14_3 1_555 1_555
O5_2 C1_4 1_555 1_555
O2_4 C1_4 1_555 1_555
C1_4 C2_4 1_555 1_555
N7_2 C10_4 1_555 1_555
C10_4 H6_4 1_555 1_555
C11_4 C10_4 1_555 1_555
H7_4 C11_4 1_555 1_555
C7_4 C8_4 1_555 1_555
Zn3 O4_4 1_555 1_555
O3_4 C5_4 1_555 1_555
O4_4 C5_4 1_555 1_555
C5_4 C4_4 1_555 1_555
C6_4 C4_4 1_555 1_555
H2_4 C6_4 1_555 1_555
N6_2 Zn3 1_555 1_555
N6_2 C19_4 1_555 1_555
H4_4 C9_4 1_555 1_555
H5_4 C9_4 1_555 1_555
H10_4 C18_4 1_555 1_555
C19_4 C18_4 1_555 1_555
H11_4 C19_4 1_555 1_555
C21_4 N6_2 1_555 1_555
H13_4 C21_4 1_555 1_555
N2_4 N3_4 1_555 1_555
N3_4 C15_4 1_555 1_555
N4_4 C15_4 1_555 1_555
C13_4 C12_4 1_555 1_555
H8_4 C13_4 1_555 1_555
H9_4 C14_4 1_555 1_555
C15_4 C12_4 1_555 1_555
C16_4 N2_4 1_555 1_555
C17_4 C16_4 1_555 1_555
C20_4 C17_4 1_555 1_555
H12_4 C20_4 1_555 1_555
N4_4 C16_4 1_555 1_555
C13_4 C14_4 1_555 1_555

#END
