
###############################################################################
#
# This file contains modified crystal structure data generated from the
# MOF subset of the Cambridge Structural Database (CSD) v543 
# hosted by the Cambridge Crystallographic Data Centre (CCDC).
#
# This work is licensed under the Creative Commons
# Attribution-NonCommercial-ShareAlike 4.0 International License.
# To view a copy of this license, visit
# http://creativecommons.org/licenses/by-nc-sa/4.0/
# or send a letter to
# Creative Commons, PO Box 1866, Mountain View, CA 94042, USA.
#
# CIF created using the CSD Python API on 29 September 2022
# The structure has been converted into the P1 space group
# The structure has a 3D framework
# The original CSD entry PELQEE is in the triclinic crystal system
# The framework has been calculated to contain at least 10.0% void space
# The void calculation uses a probe of radius 1.32A, grid spacing 0.4
#
###############################################################################

data_PELQEE
_chemical_formula_moiety         '(C122 H80 Cd2 N6 O24 S4)n'
_symmetry_cell_setting           triclinic
_symmetry_space_group_name_H-M   'P 1'
_symmetry_Int_Tables_number      1
_space_group_name_Hall           'P 1'
loop_
_symmetry_equiv_pos_site_id
_symmetry_equiv_pos_as_xyz
1 x,y,z
_cell_length_a                   12.5309(6)
_cell_length_b                   12.9417(6)
_cell_length_c                   18.3940(9)
_cell_angle_alpha                94.4070(10)
_cell_angle_beta                 93.5910(10)
_cell_angle_gamma                95.0610(10)
_cell_volume                     2955.32
loop_
_atom_site_label
_atom_site_type_symbol
_atom_site_fract_x
_atom_site_fract_y
_atom_site_fract_z
C48 C 0.0295(3) 0.7247(2) 0.22243(19)
C49 C 0.1151(3) 0.6481(2) 0.23238(17)
C50 C 0.0959(2) 0.5647(2) 0.27457(17)
H33 H 0.0313 0.5561 0.2966
C51 C 0.1696(3) 0.4962(2) 0.28396(18)
H34 H 0.1558 0.4404 0.3120
C52 C 0.2671(2) 0.5097(2) 0.25111(17)
C53 C 0.2881(3) 0.5912(3) 0.20836(18)
H35 H 0.3527 0.5999 0.1863
C54 C 0.2094(3) 0.6607(3) 0.19903(18)
H36 H 0.2215 0.7157 0.1700
C55 C 0.1163(3) 0.0548(2) 0.08310(17)
C56 C 0.1828(3) 0.1420(2) 0.12821(17)
C57 C 0.1987(4) 0.1406(3) 0.2034(2)
H37 H 0.1702 0.0836 0.2262
C58 C 0.2564(3) 0.2230(3) 0.2449(2)
H38 H 0.2674 0.2215 0.2952
C59 C 0.2976(2) 0.3078(2) 0.21062(17)
C60 C 0.2844(3) 0.3090(3) 0.13531(19)
H39 H 0.3132 0.3656 0.1123
C61 C 0.2283(3) 0.2256(3) 0.09506(17)
H40 H 0.2207 0.2255 0.0444
O6 O 0.0403(2) 0.7821(2) 0.17305(16)
O8 O 0.10845(19) 0.05808(17) 0.01521(12)
O11 O 0.3676(2) 0.3951(2) 0.33760(14)
O12 O 0.45658(19) 0.4533(2) 0.22894(16)
S1 S 0.36113(6) 0.41782(6) 0.26247(5)
O7 O 0.0750(2) 0.98266(19) 0.11819(14)
C11 C 0.1509(3) 0.9926(3) 0.6244(3)
C12 C 0.1058(3) 0.9060(3) 0.5804(2)
H10 H 0.1492 0.8662 0.5528
H23 H 0.0372 0.7793 0.4506
Cd7 Cd 0.044730(17) 0.148980(15) 0.922600(11)
H9 H 0.2246 0.0100 0.6248
N3 N 0.0934(2) 0.0524(2) 0.66651(18)
Cd3 Cd 0.179446(16) 0.181178(15) 0.750316(11)
O13 O 0.15718(19) 0.29693(17) 0.93087(13)
O16 O 0.18130(19) 0.07480(18) 0.85490(14)
C15 C 0.9908(3) 0.0308(3) 0.6610(3)
H12 H 0.9494 0.0741 0.6876
C41 C 0.2691(3) 0.0439(2) 0.83661(19)
H29 H 0.2811 0.0349 0.9810
O3 O 0.3079(2) 0.0641(2) 0.77879(15)
C1 C 0.4062(3) 0.2706(3) 0.7021(2)
H1 H 0.4171 0.2757 0.7528
C2 C 0.4899(3) 0.3002(3) 0.66233(19)
H2 H 0.5557 0.3252 0.6864
C3 C 0.4790(2) 0.2940(2) 0.58671(18)
C4 C 0.3785(3) 0.2530(3) 0.55577(19)
H3 H 0.3663 0.2441 0.5052
C5 C 0.2987(3) 0.2259(3) 0.59862(19)
H4 H 0.2325 0.1997 0.5758
C6 C 0.9188(3) 0.1757(3) 0.06848(19)
H5 H 0.9077 0.1041 0.0571
C7 C 0.8935(3) 0.2167(3) 0.13627(19)
H6 H 0.8669 0.1728 0.1700
C8 C 0.9078(3) 0.3245(2) 0.15406(17)
C9 C 0.9476(3) 0.3832(3) 0.10152(19)
H7 H 0.9582 0.4552 0.1104
C10 C 0.9722(3) 0.3366(3) 0.03540(19)
H8 H 0.9996 0.3791 0.0011
C13 C 0.9959(3) 0.8787(3) 0.57745(19)
C14 C 0.9380(3) 0.9464(3) 0.6174(3)
H11 H 0.8635 0.9355 0.6153
C16 C 0.5667(3) 0.3348(3) 0.54327(18)
C17 C 0.6725(3) 0.3402(3) 0.56915(19)
H13 H 0.6909 0.3097 0.6118
C18 C 0.7529(3) 0.3913(3) 0.53194(19)
H14 H 0.8242 0.3953 0.5501
C19 C 0.7265(3) 0.4354(2) 0.46882(17)
C20 C 0.6216(3) 0.4259(3) 0.4403(2)
H15 H 0.6043 0.4531 0.3961
C21 C 0.5421(3) 0.3761(3) 0.4771(2)
H16 H 0.4714 0.3699 0.4575
C22 C 0.8809(3) 0.3688(2) 0.22665(16)
C23 C 0.9089(3) 0.3244(3) 0.28966(19)
H17 H 0.9451 0.2647 0.2866
C24 C 0.8848(3) 0.3659(3) 0.35712(19)
H18 H 0.9034 0.3333 0.3988
C25 C 0.8334(2) 0.4553(2) 0.36307(16)
C26 C 0.8055(3) 0.5030(2) 0.30100(18)
H19 H 0.7699 0.5631 0.3046
C27 C 0.8309(3) 0.4609(3) 0.23291(17)
H20 H 0.8144 0.4945 0.1913
C28 C 0.8538(2) 0.5909(2) 0.46745(17)
C29 C 0.8155(3) 0.6331(3) 0.53204(17)
H21 H 0.7587 0.5974 0.5526
C30 C 0.8604(3) 0.7257(3) 0.56509(18)
H22 H 0.8337 0.7513 0.6083
C31 C 0.9457(3) 0.7842(2) 0.53653(18)
C32 C 0.9818(3) 0.7426(3) 0.47195(19)
C33 C 0.9372(3) 0.6469(3) 0.43797(18)
H24 H 0.9640 0.6205 0.3950
C34 C 0.2303(2) 0.3368(2) 0.89575(16)
C35 C 0.2913(2) 0.4376(2) 0.92959(16)
C36 C 0.2544(3) 0.4928(2) 0.98854(18)
C38 C 0.4009(2) 0.6241(2) 0.98761(17)
C39 C 0.4403(3) 0.5685(3) 0.9293(2)
H27 H 0.5037 0.5931 0.9102
C40 C 0.3841(3) 0.4758(2) 0.89970(19)
H28 H 0.4090 0.4392 0.8596
C42 C 0.3269(3) 0.9758(3) 0.8859(2)
C43 C 0.3175(3) 0.9823(3) 0.9594(2)
C45 C 0.4175(3) 0.8368(2) 0.97121(19)
C46 C 0.4348(4) 0.8343(3) 0.8978(2)
H31 H 0.4787 0.7871 0.8775
C47 C 0.3878(4) 0.9008(4) 0.8554(2)
H32 H 0.3963 0.8963 0.8054
N1 N 0.3088(2) 0.2344(2) 0.67165(15)
N2 N 0.9593(2) 0.2366(2) 0.01820(15)
N4 N 0.8071(2) 0.4958(2) 0.43375(15)
O2 O 0.2558(2) 0.30520(18) 0.83382(13)
O5 O 0.0428(2) 0.2773(2) 0.73401(15)
C1_2 C 0.5938(3) 0.7294(3) 0.2979(2)
H1_2 H 0.5829 0.7243 0.2472
C2_2 C 0.5101(3) 0.6998(3) 0.33767(19)
H2_2 H 0.4443 0.6748 0.3136
C3_2 C 0.5210(2) 0.7060(2) 0.41329(18)
C4_2 C 0.6215(3) 0.7470(3) 0.44423(19)
H3_2 H 0.6337 0.7559 0.4948
C5_2 C 0.7013(3) 0.7741(3) 0.40138(19)
H4_2 H 0.7675 0.8003 0.4242
C6_2 C 0.0812(3) 0.8243(3) 0.93152(19)
H5_2 H 0.0923 0.8959 0.9429
C7_2 C 0.1065(3) 0.7833(3) 0.86373(19)
H6_2 H 0.1331 0.8272 0.8300
C8_2 C 0.0922(3) 0.6755(2) 0.84594(17)
C9_2 C 0.0524(3) 0.6168(3) 0.89848(19)
H7_2 H 0.0418 0.5448 0.8896
C10_2 C 0.0278(3) 0.6634(3) 0.96460(19)
H8_2 H 0.0004 0.6209 0.9989
C13_2 C 0.0041(3) 0.1213(3) 0.42255(19)
C14_2 C 0.0620(3) 0.0536(3) 0.3826(3)
H11_2 H 0.1365 0.0645 0.3847
C16_2 C 0.4333(3) 0.6652(3) 0.45673(18)
C17_2 C 0.3275(3) 0.6598(3) 0.43085(19)
H13_2 H 0.3091 0.6903 0.3882
C18_2 C 0.2471(3) 0.6087(3) 0.46806(19)
H14_2 H 0.1758 0.6047 0.4499
C19_2 C 0.2735(3) 0.5646(2) 0.53118(17)
C20_2 C 0.3784(3) 0.5741(3) 0.5597(2)
H15_2 H 0.3957 0.5469 0.6039
C21_2 C 0.4579(3) 0.6239(3) 0.5229(2)
H16_2 H 0.5286 0.6301 0.5425
C22_2 C 0.1191(3) 0.6312(2) 0.77335(16)
C23_2 C 0.0911(3) 0.6756(3) 0.71034(19)
H17_2 H 0.0549 0.7353 0.7134
C24_2 C 0.1152(3) 0.6341(3) 0.64288(19)
H18_2 H 0.0966 0.6667 0.6012
C25_2 C 0.1666(2) 0.5447(2) 0.63693(16)
C26_2 C 0.1945(3) 0.4970(2) 0.69900(18)
H19_2 H 0.2301 0.4369 0.6954
C27_2 C 0.1691(3) 0.5391(3) 0.76709(17)
H20_2 H 0.1856 0.5055 0.8087
C28_2 C 0.1462(2) 0.4091(2) 0.53255(17)
C29_2 C 0.1845(3) 0.3669(3) 0.46796(17)
H21_2 H 0.2413 0.4026 0.4474
C30_2 C 0.1396(3) 0.2743(3) 0.43491(18)
H22_2 H 0.1663 0.2487 0.3917
C31_2 C 0.0543(3) 0.2158(2) 0.46347(18)
C32_2 C 0.0182(3) 0.2574(3) 0.52805(19)
C33_2 C 0.0628(3) 0.3531(3) 0.56203(18)
H24_2 H 0.0360 0.3795 0.6050
C34_2 C 0.7697(2) 0.6632(2) 0.10425(16)
C35_2 C 0.7087(2) 0.5624(2) 0.07041(16)
C36_2 C 0.7456(3) 0.5072(2) 0.01146(18)
C38_2 C 0.5991(2) 0.3759(2) 0.01239(17)
C39_2 C 0.5597(3) 0.4315(3) 0.0707(2)
H27_2 H 0.4963 0.4069 0.0898
C40_2 C 0.6159(3) 0.5242(2) 0.10030(19)
H28_2 H 0.5910 0.5608 0.1404
C42_2 C 0.6731(3) 0.0242(3) 0.1141(2)
C43_2 C 0.6825(3) 0.0177(3) 0.0406(2)
C45_2 C 0.5825(3) 0.1632(2) 0.02879(19)
C46_2 C 0.5652(4) 0.1657(3) 0.1022(2)
H31_2 H 0.5213 0.2129 0.1225
C47_2 C 0.6122(4) 0.0992(4) 0.1446(2)
H32_2 H 0.6037 0.1037 0.1946
Cd1 Cd 0.820554(16) 0.818822(15) 0.249684(11)
N1_2 N 0.6912(2) 0.7656(2) 0.32835(15)
N2_2 N 0.0407(2) 0.7634(2) 0.98180(15)
N4_2 N 0.1929(2) 0.5042(2) 0.56625(15)
O1 O 0.84282(19) 0.70307(17) 0.06913(13)
O2_2 O 0.7442(2) 0.69480(18) 0.16618(13)
O5_2 O 0.9572(2) 0.7227(2) 0.26599(15)
Cd5 Cd 0.955270(17) 0.851020(15) 0.077400(11)
N5 N 0.9066(2) 0.9476(2) 0.33349(18)
O14 O 0.6921(2) 0.9359(2) 0.22121(15)
O15 O 0.81870(19) 0.92520(18) 0.14510(14)
C15_2 C 0.0092(3) 0.9692(3) 0.3390(3)
H12_2 H 0.0506 0.9259 0.3124
C41_2 C 0.7309(3) 0.9561(2) 0.16339(19)
H29_2 H 0.7189 0.9651 0.0190
H9_2 H 0.7754 0.9900 0.3752
H25 H 0.8068 0.5335 0.9905
C37 C 0.6928(3) 0.4134(3) 0.98336(18)
H26 H 0.7200 0.3753 0.9449
C44 C 0.6388(3) 0.0881(3) 0.9978(2)
H30 H 0.6477 0.0844 0.9479
O9 O 0.41908(19) 0.26095(18) 0.98906(16)
O10 O 0.5593(2) 0.23866(18) 0.90173(13)
S2 S 0.52972(7) 0.25771(6) 0.97533(5)
C11_2 C 0.8491(3) 0.0074(3) 0.3756(3)
C12_2 C 0.8942(3) 0.0940(3) 0.4196(2)
H10_2 H 0.8508 0.1338 0.4472
H23_2 H 0.9628 0.2207 0.5494
O19 O 0.89155(19) 0.94192(17) 0.98479(12)
O17 O 0.9597(2) 0.2179(2) 0.82695(16)
O18 O 0.9250(2) 0.01734(19) 0.88181(14)
C48_2 C 0.9705(3) 0.2753(2) 0.77757(19)
C49_2 C 0.8849(3) 0.3519(2) 0.76762(17)
C50_2 C 0.9041(2) 0.4353(2) 0.72543(17)
H33_2 H 0.9687 0.4439 0.7034
C51_2 C 0.8304(3) 0.5038(2) 0.71604(18)
H34_2 H 0.8442 0.5596 0.6880
C52_2 C 0.7329(2) 0.4903(2) 0.74889(17)
C53_2 C 0.7119(3) 0.4088(3) 0.79164(18)
H35_2 H 0.6473 0.4001 0.8137
C54_2 C 0.7906(3) 0.3393(3) 0.80097(18)
H36_2 H 0.7785 0.2843 0.8300
C55_2 C 0.8837(3) 0.9452(2) 0.91690(17)
C56_2 C 0.8172(3) 0.8580(2) 0.87179(17)
C57_2 C 0.8013(4) 0.8594(3) 0.7966(2)
H37_2 H 0.8298 0.9164 0.7738
C58_2 C 0.7436(3) 0.7770(3) 0.7551(2)
H38_2 H 0.7326 0.7785 0.7048
C59_2 C 0.7024(2) 0.6922(2) 0.78938(17)
C60_2 C 0.7156(3) 0.6910(3) 0.86469(19)
H39_2 H 0.6868 0.6344 0.8877
C61_2 C 0.7717(3) 0.7744(3) 0.90494(17)
H40_2 H 0.7793 0.7745 0.9556
O11_2 O 0.6324(2) 0.6049(2) 0.66240(14)
O12_2 O 0.54342(19) 0.5467(2) 0.77106(16)
S1_2 S 0.63887(6) 0.58218(6) 0.73753(5)
H25_2 H 0.1932 0.4665 0.0095
C37_2 C 0.3072(3) 0.5866(3) 0.01664(18)
H26_2 H 0.2800 0.6247 0.0551
C44_2 C 0.3612(3) 0.9119(3) 0.0022(2)
H30_2 H 0.3523 0.9156 0.0521
O9_2 O 0.58092(19) 0.73905(18) 0.01094(16)
O10_2 O 0.4407(2) 0.76134(18) 0.09827(13)
S2_2 S 0.47028(7) 0.74229(6) 0.02467(5)
loop_
_geom_bond_atom_site_label_1
_geom_bond_atom_site_label_2
_geom_bond_site_symmetry_1
_geom_bond_site_symmetry_2
C48 C49 1_555 1_555
C49 C50 1_555 1_555
C50 H33 1_555 1_555
C51 C50 1_555 1_555
H34 C51 1_555 1_555
C52 C51 1_555 1_555
C53 C52 1_555 1_555
H35 C53 1_555 1_555
C54 C49 1_555 1_555
H36 C54 1_555 1_555
C55 C56 1_555 1_555
C56 C57 1_555 1_555
C57 H37 1_555 1_555
C58 C57 1_555 1_555
H38 C58 1_555 1_555
C59 C58 1_555 1_555
C60 C59 1_555 1_555
H39 C60 1_555 1_555
C61 C56 1_555 1_555
H40 C61 1_555 1_555
O6 C48 1_555 1_555
O8 C55 1_555 1_555
O11 S1 1_555 1_555
O12 S1 1_555 1_555
S1 C52 1_555 1_555
C53 C54 1_555 1_555
C59 S1 1_555 1_555
C60 C61 1_555 1_555
C12 C11 1_555 1_555
H10 C12 1_555 1_555
Cd3 N3 1_555 1_555
O13 Cd7 1_555 1_555
O16 Cd7 1_555 1_555
H12 C15 1_555 1_555
O3 C41 1_555 1_555
O16 C41 1_555 1_555
Cd3 O3 1_555 1_555
O16 Cd3 1_555 1_555
C1 H1 1_555 1_555
C2 C1 1_555 1_555
H2 C2 1_555 1_555
C3 C2 1_555 1_555
C4 C3 1_555 1_555
H3 C4 1_555 1_555
C5 C4 1_555 1_555
H4 C5 1_555 1_555
C6 H5 1_555 1_555
C7 C6 1_555 1_555
H6 C7 1_555 1_555
C8 C7 1_555 1_555
C9 C8 1_555 1_555
H7 C9 1_555 1_555
C10 C9 1_555 1_555
H8 C10 1_555 1_555
C14 C13 1_555 1_555
H11 C14 1_555 1_555
C16 C3 1_555 1_555
C17 C16 1_555 1_555
H13 C17 1_555 1_555
C18 C17 1_555 1_555
H14 C18 1_555 1_555
C19 C18 1_555 1_555
C20 C19 1_555 1_555
H15 C20 1_555 1_555
C21 C16 1_555 1_555
H16 C21 1_555 1_555
C22 C8 1_555 1_555
C23 C22 1_555 1_555
H17 C23 1_555 1_555
C24 C23 1_555 1_555
H18 C24 1_555 1_555
C25 C24 1_555 1_555
C26 C25 1_555 1_555
H19 C26 1_555 1_555
C27 C22 1_555 1_555
H20 C27 1_555 1_555
C28 C29 1_555 1_555
C29 H21 1_555 1_555
C30 C29 1_555 1_555
H22 C30 1_555 1_555
C31 C13 1_555 1_555
C32 C31 1_555 1_555
C33 C28 1_555 1_555
H24 C33 1_555 1_555
C34 C35 1_555 1_555
C35 C36 1_555 1_555
C39 C38 1_555 1_555
H27 C39 1_555 1_555
C40 C35 1_555 1_555
H28 C40 1_555 1_555
C42 C43 1_555 1_555
C46 C45 1_555 1_555
H31 C46 1_555 1_555
C47 C42 1_555 1_555
H32 C47 1_555 1_555
Cd3 N1 1_555 1_555
N1 C1 1_555 1_555
N2 C6 1_555 1_555
N4 C19 1_555 1_555
O13 C34 1_555 1_555
O2 C34 1_555 1_555
C5 N1 1_555 1_555
C10 N2 1_555 1_555
C20 C21 1_555 1_555
C25 N4 1_555 1_555
C26 C27 1_555 1_555
C28 N4 1_555 1_555
C30 C31 1_555 1_555
C32 C33 1_555 1_555
C39 C40 1_555 1_555
C46 C47 1_555 1_555
Cd3 O2 1_555 1_555
Cd3 O5 1_555 1_555
C1_2 H1_2 1_555 1_555
C2_2 C1_2 1_555 1_555
H2_2 C2_2 1_555 1_555
C3_2 C2_2 1_555 1_555
C4_2 C3_2 1_555 1_555
H3_2 C4_2 1_555 1_555
C5_2 C4_2 1_555 1_555
H4_2 C5_2 1_555 1_555
C6_2 H5_2 1_555 1_555
C7_2 C6_2 1_555 1_555
H6_2 C7_2 1_555 1_555
C8_2 C7_2 1_555 1_555
C9_2 C8_2 1_555 1_555
H7_2 C9_2 1_555 1_555
C10_2 C9_2 1_555 1_555
H8_2 C10_2 1_555 1_555
C14_2 C13_2 1_555 1_555
H11_2 C14_2 1_555 1_555
C16_2 C3_2 1_555 1_555
C17_2 C16_2 1_555 1_555
H13_2 C17_2 1_555 1_555
C18_2 C17_2 1_555 1_555
H14_2 C18_2 1_555 1_555
C19_2 C18_2 1_555 1_555
C20_2 C19_2 1_555 1_555
H15_2 C20_2 1_555 1_555
C21_2 C16_2 1_555 1_555
H16_2 C21_2 1_555 1_555
C22_2 C8_2 1_555 1_555
C23_2 C22_2 1_555 1_555
H17_2 C23_2 1_555 1_555
C24_2 C23_2 1_555 1_555
H18_2 C24_2 1_555 1_555
C25_2 C24_2 1_555 1_555
C26_2 C25_2 1_555 1_555
H19_2 C26_2 1_555 1_555
C27_2 C22_2 1_555 1_555
H20_2 C27_2 1_555 1_555
C28_2 C29_2 1_555 1_555
C29_2 H21_2 1_555 1_555
C30_2 C29_2 1_555 1_555
H22_2 C30_2 1_555 1_555
C31_2 C13_2 1_555 1_555
C32_2 C31_2 1_555 1_555
C33_2 C28_2 1_555 1_555
H24_2 C33_2 1_555 1_555
C34_2 C35_2 1_555 1_555
C35_2 C36_2 1_555 1_555
C39_2 C38_2 1_555 1_555
H27_2 C39_2 1_555 1_555
C40_2 C35_2 1_555 1_555
H28_2 C40_2 1_555 1_555
C42_2 C43_2 1_555 1_555
C46_2 C45_2 1_555 1_555
H31_2 C46_2 1_555 1_555
C47_2 C42_2 1_555 1_555
H32_2 C47_2 1_555 1_555
Cd1 N1_2 1_555 1_555
N1_2 C1_2 1_555 1_555
N2_2 C6_2 1_555 1_555
N4_2 C19_2 1_555 1_555
O1 C34_2 1_555 1_555
O2_2 C34_2 1_555 1_555
Cd5 O1 1_555 1_555
N5 Cd1 1_555 1_555
O14 Cd1 1_555 1_555
O15 Cd1 1_555 1_555
C5_2 N1_2 1_555 1_555
C10_2 N2_2 1_555 1_555
C20_2 C21_2 1_555 1_555
C25_2 N4_2 1_555 1_555
C26_2 C27_2 1_555 1_555
C28_2 N4_2 1_555 1_555
C30_2 C31_2 1_555 1_555
C32_2 C33_2 1_555 1_555
C39_2 C40_2 1_555 1_555
C46_2 C47_2 1_555 1_555
Cd1 O2_2 1_555 1_555
Cd1 O5_2 1_555 1_555
Cd5 O15 1_555 1_555
H12_2 C15_2 1_555 1_555
O14 C41_2 1_555 1_555
O15 C41_2 1_555 1_555
H26 C37 1_555 1_555
H30 C44 1_555 1_555
O9 S2 1_555 1_555
O10 S2 1_555 1_555
C12_2 C11_2 1_555 1_555
H10_2 C12_2 1_555 1_555
C48_2 C49_2 1_555 1_555
C49_2 C50_2 1_555 1_555
C50_2 H33_2 1_555 1_555
C51_2 C50_2 1_555 1_555
H34_2 C51_2 1_555 1_555
C52_2 C51_2 1_555 1_555
C53_2 C52_2 1_555 1_555
H35_2 C53_2 1_555 1_555
C54_2 C49_2 1_555 1_555
H36_2 C54_2 1_555 1_555
C55_2 C56_2 1_555 1_555
C56_2 C57_2 1_555 1_555
C57_2 H37_2 1_555 1_555
C58_2 C57_2 1_555 1_555
H38_2 C58_2 1_555 1_555
C59_2 C58_2 1_555 1_555
C60_2 C59_2 1_555 1_555
H39_2 C60_2 1_555 1_555
C61_2 C56_2 1_555 1_555
H40_2 C61_2 1_555 1_555
O17 C48_2 1_555 1_555
O19 C55_2 1_555 1_555
O11_2 S1_2 1_555 1_555
O12_2 S1_2 1_555 1_555
S1_2 C52_2 1_555 1_555
C53_2 C54_2 1_555 1_555
C59_2 S1_2 1_555 1_555
C60_2 C61_2 1_555 1_555
H26_2 C37_2 1_555 1_555
H30_2 C44_2 1_555 1_555
O9_2 S2_2 1_555 1_555
O10_2 S2_2 1_555 1_555

#END
