
###############################################################################
#
# This file contains modified crystal structure data generated from the
# MOF subset of the Cambridge Structural Database (CSD) v543 
# hosted by the Cambridge Crystallographic Data Centre (CCDC).
#
# This work is licensed under the Creative Commons
# Attribution-NonCommercial-ShareAlike 4.0 International License.
# To view a copy of this license, visit
# http://creativecommons.org/licenses/by-nc-sa/4.0/
# or send a letter to
# Creative Commons, PO Box 1866, Mountain View, CA 94042, USA.
#
# CIF created using the CSD Python API on 29 September 2022
# The structure has been converted into the P1 space group
# The structure has a 3D framework
# The original CSD entry PENCOD is in the triclinic crystal system
# The framework has been calculated to contain at least 10.0% void space
# The void calculation uses a probe of radius 1.32A, grid spacing 0.4
#
###############################################################################

data_PENCOD
_chemical_formula_moiety         '(C46 H30 Co2 N8 O8)n'
_symmetry_cell_setting           triclinic
_symmetry_space_group_name_H-M   'P 1'
_symmetry_Int_Tables_number      1
_space_group_name_Hall           'P 1'
loop_
_symmetry_equiv_pos_site_id
_symmetry_equiv_pos_as_xyz
1 x,y,z
_cell_length_a                   9.93(2)
_cell_length_b                   10.54(2)
_cell_length_c                   12.84(3)
_cell_angle_alpha                94.83(2)
_cell_angle_beta                 109.147(17)
_cell_angle_gamma                91.194(19)
_cell_volume                     1263.34
loop_
_atom_site_label
_atom_site_type_symbol
_atom_site_fract_x
_atom_site_fract_y
_atom_site_fract_z
_atom_site_U_iso_or_equiv
_atom_site_thermal_displace_type
N3 N 0.1117(2) 0.6495(2) 0.25136(17) 0.0358 Uani
N4 N 0.2687(2) 0.6476(2) 0.41626(17) 0.0326 Uani
C17 C 0.1385(3) 0.6145(3) 0.3535(2) 0.0342 Uani
H9 H 0.0710 0.5707 0.3774 0.0410 Uiso
C18 C 0.3284(3) 0.7066(3) 0.3502(2) 0.0439 Uani
H10 H 0.4237 0.7416 0.3731 0.0530 Uiso
C19 C 0.2338(3) 0.7081(3) 0.2489(2) 0.0467 Uani
H11 H 0.2486 0.7430 0.1874 0.0560 Uiso
Co5 Co 0.36420(3) 0.59240(4) 0.57617(3) 0.0267 Uani
O1 O 0.36754(17) 0.40995(18) 0.51333(14) 0.0349 Uani
O2 O 0.45215(16) 0.30067(17) 0.39702(13) 0.0321 Uani
N1 N 0.4600(2) 0.5298(2) 0.73257(17) 0.0332 Uani
N2 N 0.6193(2) 0.5182(2) 0.89487(17) 0.0356 Uani
C1 C 0.3532(2) 0.3334(2) 0.43169(19) 0.0246 Uani
C2 C 0.2074(2) 0.2772(2) 0.36762(19) 0.0230 Uani
C3 C 0.0926(2) 0.3147(2) 0.39891(19) 0.0254 Uani
H1 H 0.1075 0.3721 0.4632 0.0300 Uiso
C7 C 0.0484(2) 0.1503(2) 0.20809(19) 0.0241 Uani
C8 C 0.1840(2) 0.1962(2) 0.27300(19) 0.0264 Uani
H3 H 0.2632 0.1711 0.2516 0.0320 Uiso
C9 C 0.0240(2) 0.0717(2) 0.10267(19) 0.0258 Uani
C10 C 0.1307(3) 0.0051(2) 0.0797(2) 0.0305 Uani
H4 H 0.2223 0.0072 0.1347 0.0370 Uiso
C12 C 0.5798(3) 0.5785(3) 0.8028(2) 0.0372 Uani
H6 H 0.6327 0.6483 0.7904 0.0440 Uiso
C13 C 0.7441(3) 0.5511(3) 0.9872(2) 0.0330 Uani
H7 H 0.7438 0.7388 0.9666 0.0530 Uiso
C22 C 0.5180(3) 0.4237(3) 0.8823(2) 0.0483 Uani
H14 H 0.5160 0.3640 0.9333 0.0580 Uiso
C23 C 0.4218(3) 0.4336(3) 0.7824(2) 0.0484 Uani
H15 H 0.3376 0.3800 0.7505 0.0580 Uiso
Co8 Co 0.63580(3) 0.40760(4) 0.42383(3) 0.0267 Uani
O10 O 0.54785(16) 0.69933(17) 0.60298(13) 0.0321 Uani
O12 O 0.27778(18) 0.75108(18) 0.65814(15) 0.0411 Uani
O14 O 0.15582(17) 0.57328(17) 0.58690(14) 0.0340 Uani
C27 C 0.0428(2) 0.7311(2) 0.66309(19) 0.0240 Uani
C28 C 0.1666(3) 0.6826(3) 0.63445(19) 0.0269 Uani
C29 C 0.0637(2) 0.8145(2) 0.75620(19) 0.0259 Uani
H17 H 0.1574 0.8485 0.7968 0.0310 Uiso
C34 C 0.1080(3) 0.9363(3) 0.9799(2) 0.0331 Uani
H20 H 0.1847 0.8928 0.9668 0.0400 Uiso
O3 O 0.72222(18) 0.24892(18) 0.34186(15) 0.0411 Uani
O4 O 0.84418(17) 0.42672(17) 0.41310(14) 0.0340 Uani
C4 C 0.9572(2) 0.2689(2) 0.33691(19) 0.0240 Uani
C5 C 0.8334(3) 0.3174(3) 0.36555(19) 0.0269 Uani
C6 C 0.9363(2) 0.1855(2) 0.24380(19) 0.0259 Uani
H2 H 0.8426 0.1515 0.2032 0.0310 Uiso
C11 C 0.8920(3) 0.0637(3) 0.0201(2) 0.0331 Uani
H5 H 0.8153 0.1072 0.0332 0.0400 Uiso
O5 O 0.63246(17) 0.59005(18) 0.48667(14) 0.0349 Uani
C24 C 0.6468(2) 0.6666(2) 0.56831(19) 0.0246 Uani
C25 C 0.7926(2) 0.7228(2) 0.63238(19) 0.0230 Uani
C26 C 0.9074(2) 0.6853(2) 0.60109(19) 0.0254 Uani
H16 H 0.8925 0.6279 0.5368 0.0300 Uiso
C30 C 0.9516(2) 0.8497(2) 0.79191(19) 0.0241 Uani
C31 C 0.8160(2) 0.8038(2) 0.72700(19) 0.0264 Uani
H18 H 0.7368 0.8289 0.7484 0.0320 Uiso
C32 C 0.9760(2) 0.9283(2) 0.89733(19) 0.0258 Uani
C33 C 0.8693(3) 0.9949(2) 0.9203(2) 0.0305 Uani
H19 H 0.7777 0.9928 0.8653 0.0370 Uiso
N5 N 0.5400(2) 0.4702(2) 0.26743(17) 0.0332 Uani
N6 N 0.3807(2) 0.4818(2) 0.10513(17) 0.0356 Uani
C35 C 0.4202(3) 0.4215(3) 0.1972(2) 0.0372 Uani
H21 H 0.3673 0.3517 0.2096 0.0440 Uiso
C36 C 0.2559(3) 0.4489(3) 0.0128(2) 0.0330 Uani
H22 H 0.2562 0.2612 0.0334 0.0530 Uiso
C45 C 0.4820(3) 0.5763(3) 0.1177(2) 0.0483 Uani
H29 H 0.4840 0.6360 0.0667 0.0580 Uiso
C46 C 0.5782(3) 0.5664(3) 0.2176(2) 0.0484 Uani
H30 H 0.6624 0.6200 0.2495 0.0580 Uiso
N10 N 0.7313(2) 0.3524(2) 0.58374(17) 0.0326 Uani
N7 N 0.8883(2) 0.3505(2) 0.74864(17) 0.0358 Uani
C40 C 0.8615(3) 0.3855(3) 0.6465(2) 0.0342 Uani
H24 H 0.9290 0.4293 0.6226 0.0410 Uiso
C41 C 0.6716(3) 0.2934(3) 0.6498(2) 0.0439 Uani
H25 H 0.5763 0.2584 0.6269 0.0530 Uiso
C42 C 0.7662(3) 0.2919(3) 0.7511(2) 0.0467 Uani
H26 H 0.7514 0.2570 0.8126 0.0560 Uiso
C14 C 0.7937(3) 0.6755(3) 0.0106(2) 0.0444 Uani
C15 C 0.9158(3) 0.7085(3) 0.0978(2) 0.0453 Uani
H8 H 0.9519 0.7947 0.1144 0.0540 Uiso
C16 C 0.9853(3) 0.6168(3) 0.1608(2) 0.0340 Uani
C20 C 0.9346(3) 0.4932(3) 0.1376(2) 0.0446 Uani
H12 H 0.9837 0.4301 0.1821 0.0540 Uiso
C21 C 0.8124(3) 0.4597(3) 0.0499(2) 0.0438 Uani
H13 H 0.7761 0.3736 0.0334 0.0530 Uiso
C37 C 0.2063(3) 0.3245(3) 0.9894(2) 0.0444 Uani
C38 C 0.0842(3) 0.2915(3) 0.9022(2) 0.0453 Uani
H23 H 0.0481 0.2053 0.8856 0.0540 Uiso
C39 C 0.0147(3) 0.3832(3) 0.8392(2) 0.0340 Uani
C43 C 0.0654(3) 0.5068(3) 0.8624(2) 0.0446 Uani
H27 H 0.0163 0.5699 0.8179 0.0540 Uiso
C44 C 0.1876(3) 0.5403(3) 0.9501(2) 0.0438 Uani
H28 H 0.2239 0.6264 0.9666 0.0530 Uiso
loop_
_atom_site_aniso_label
_atom_site_aniso_U_11
_atom_site_aniso_U_22
_atom_site_aniso_U_33
_atom_site_aniso_U_23
_atom_site_aniso_U_13
_atom_site_aniso_U_12
N3 0.0294 0.0487 0.0203 0.0027 -0.0036 -0.0034
N4 0.0227 0.0448 0.0237 -0.0008 -0.0002 -0.0001
C17 0.0256 0.0446 0.0247 -0.0003 -0.0011 -0.0016
C18 0.0293 0.065 0.0331 0.0052 0.005 -0.0058
C19 0.0335 0.073 0.0299 0.0115 0.0046 -0.0086
Co5 0.01501 0.0416 0.01856 -0.00929 0.00199 0.00151
O1 0.0264 0.0443 0.0258 -0.0154 0.0021 0.001
O2 0.0154 0.0498 0.0267 -0.012 0.0052 -0.0011
N1 0.025 0.046 0.0211 -0.0063 0 -0.0015
N2 0.03 0.046 0.0227 0.0013 -0.0013 -0.0074
C1 0.0207 0.031 0.0177 -0.0067 0.0027 0.0022
C2 0.0199 0.0283 0.018 -0.0063 0.0044 0.0006
C3 0.023 0.0339 0.0164 -0.0063 0.0048 -0.0002
C7 0.022 0.0258 0.0211 -0.0077 0.005 -0.0015
C8 0.0203 0.033 0.0243 -0.0072 0.0077 0.0021
C9 0.022 0.0315 0.0226 -0.0087 0.0084 -0.0016
C10 0.0224 0.0372 0.0255 -0.009 0.0024 0.001
C12 0.0339 0.049 0.0203 0.0044 -0.0022 -0.0048
C13 0.0279 0.0427 0.0194 0.0007 -0.0035 -0.0036
C22 0.0462 0.06 0.031 0.0067 0.003 -0.0172
C23 0.0368 0.063 0.0369 -0.0023 0.0037 -0.0167
Co8 0.01501 0.0416 0.01856 -0.00929 0.00199 0.00151
O10 0.0154 0.0498 0.0267 -0.012 0.0052 -0.0011
O12 0.024 0.0464 0.0535 -0.0113 0.018 -0.0062
O14 0.0243 0.0405 0.0334 -0.0138 0.0085 0.0044
C27 0.0197 0.0308 0.0194 -0.0046 0.0054 -0.0003
C28 0.0207 0.0389 0.0196 -0.002 0.0059 0.0024
C29 0.0192 0.0324 0.0218 -0.006 0.0035 -0.0045
C34 0.0208 0.0407 0.0336 -0.0135 0.0074 0.0025
O3 0.024 0.0464 0.0535 -0.0113 0.018 -0.0062
O4 0.0243 0.0405 0.0334 -0.0138 0.0085 0.0044
C4 0.0197 0.0308 0.0194 -0.0046 0.0054 -0.0003
C5 0.0207 0.0389 0.0196 -0.002 0.0059 0.0024
C6 0.0192 0.0324 0.0218 -0.006 0.0035 -0.0045
C11 0.0208 0.0407 0.0336 -0.0135 0.0074 0.0025
O5 0.0264 0.0443 0.0258 -0.0154 0.0021 0.001
C24 0.0207 0.031 0.0177 -0.0067 0.0027 0.0022
C25 0.0199 0.0283 0.018 -0.0063 0.0044 0.0006
C26 0.023 0.0339 0.0164 -0.0063 0.0048 -0.0002
C30 0.022 0.0258 0.0211 -0.0077 0.005 -0.0015
C31 0.0203 0.033 0.0243 -0.0072 0.0077 0.0021
C32 0.022 0.0315 0.0226 -0.0087 0.0084 -0.0016
C33 0.0224 0.0372 0.0255 -0.009 0.0024 0.001
N5 0.025 0.046 0.0211 -0.0063 0 -0.0015
N6 0.03 0.046 0.0227 0.0013 -0.0013 -0.0074
C35 0.0339 0.049 0.0203 0.0044 -0.0022 -0.0048
C36 0.0279 0.0427 0.0194 0.0007 -0.0035 -0.0036
C45 0.0462 0.06 0.031 0.0067 0.003 -0.0172
C46 0.0368 0.063 0.0369 -0.0023 0.0037 -0.0167
N10 0.0227 0.0448 0.0237 -0.0008 -0.0002 -0.0001
N7 0.0294 0.0487 0.0203 0.0027 -0.0036 -0.0034
C40 0.0256 0.0446 0.0247 -0.0003 -0.0011 -0.0016
C41 0.0293 0.065 0.0331 0.0052 0.005 -0.0058
C42 0.0335 0.073 0.0299 0.0115 0.0046 -0.0086
C14 0.043 0.042 0.0318 0.006 -0.0103 -0.0005
C15 0.0467 0.0358 0.0364 0.0057 -0.0091 -0.0124
C16 0.0308 0.0437 0.0182 0.0007 -0.0036 -0.0015
C20 0.0461 0.04 0.0308 0.0084 -0.0109 -0.005
C21 0.0513 0.0334 0.0336 0.006 -0.0038 -0.0081
C37 0.043 0.042 0.0318 0.006 -0.0103 -0.0005
C38 0.0467 0.0358 0.0364 0.0057 -0.0091 -0.0124
C39 0.0308 0.0437 0.0182 0.0007 -0.0036 -0.0015
C43 0.0461 0.04 0.0308 0.0084 -0.0109 -0.005
C44 0.0513 0.0334 0.0336 0.006 -0.0038 -0.0081
loop_
_geom_bond_atom_site_label_1
_geom_bond_atom_site_label_2
_geom_bond_site_symmetry_1
_geom_bond_site_symmetry_2
N4 C17 1_555 1_555
C17 N3 1_555 1_555
H9 C17 1_555 1_555
C18 N4 1_555 1_555
H10 C18 1_555 1_555
C19 N3 1_555 1_555
H11 C19 1_555 1_555
Co5 N4 1_555 1_555
C18 C19 1_555 1_555
Co5 O1 1_555 1_555
O1 C1 1_555 1_555
O2 C1 1_555 1_555
N1 Co5 1_555 1_555
N2 C12 1_555 1_555
C1 C2 1_555 1_555
C2 C3 1_555 1_555
C3 H1 1_555 1_555
C8 C2 1_555 1_555
H3 C8 1_555 1_555
C9 C7 1_555 1_555
C10 C9 1_555 1_555
H4 C10 1_555 1_555
C12 N1 1_555 1_555
H6 C12 1_555 1_555
C13 N2 1_555 1_555
C22 N2 1_555 1_555
H14 C22 1_555 1_555
C23 N1 1_555 1_555
H15 C23 1_555 1_555
Co8 O2 1_555 1_555
O10 Co5 1_555 1_555
O12 Co5 1_555 1_555
O14 Co5 1_555 1_555
C7 C8 1_555 1_555
C22 C23 1_555 1_555
O12 C28 1_555 1_555
O14 C28 1_555 1_555
C28 C27 1_555 1_555
C29 C27 1_555 1_555
H17 C29 1_555 1_555
H20 C34 1_555 1_555
O3 C5 1_555 1_555
O4 C5 1_555 1_555
C5 C4 1_555 1_555
C6 C4 1_555 1_555
H2 C6 1_555 1_555
H5 C11 1_555 1_555
Co8 O3 1_555 1_555
O4 Co8 1_555 1_555
O5 C24 1_555 1_555
O10 C24 1_555 1_555
C24 C25 1_555 1_555
C25 C26 1_555 1_555
C26 H16 1_555 1_555
C31 C25 1_555 1_555
H18 C31 1_555 1_555
C32 C30 1_555 1_555
H19 C33 1_555 1_555
Co8 O5 1_555 1_555
N5 Co8 1_555 1_555
N6 C35 1_555 1_555
C35 N5 1_555 1_555
H21 C35 1_555 1_555
C36 N6 1_555 1_555
C45 N6 1_555 1_555
H29 C45 1_555 1_555
C46 N5 1_555 1_555
H30 C46 1_555 1_555
N10 Co8 1_555 1_555
C30 C31 1_555 1_555
C32 C33 1_555 1_555
C45 C46 1_555 1_555
N10 C40 1_555 1_555
C40 N7 1_555 1_555
H24 C40 1_555 1_555
C41 N10 1_555 1_555
H25 C41 1_555 1_555
C42 N7 1_555 1_555
H26 C42 1_555 1_555
C41 C42 1_555 1_555
C15 C14 1_555 1_555
H8 C15 1_555 1_555
C16 C15 1_555 1_555
C20 C16 1_555 1_555
H12 C20 1_555 1_555
H13 C21 1_555 1_555
C20 C21 1_555 1_555
C38 C37 1_555 1_555
H23 C38 1_555 1_555
C39 C38 1_555 1_555
C43 C39 1_555 1_555
H27 C43 1_555 1_555
H28 C44 1_555 1_555
C43 C44 1_555 1_555

#END
