
###############################################################################
#
# This file contains modified crystal structure data generated from the
# MOF subset of the Cambridge Structural Database (CSD) v543 
# hosted by the Cambridge Crystallographic Data Centre (CCDC).
#
# This work is licensed under the Creative Commons
# Attribution-NonCommercial-ShareAlike 4.0 International License.
# To view a copy of this license, visit
# http://creativecommons.org/licenses/by-nc-sa/4.0/
# or send a letter to
# Creative Commons, PO Box 1866, Mountain View, CA 94042, USA.
#
# CIF created using the CSD Python API on 29 September 2022
# The structure has been converted into the P1 space group
# The structure has a 3D framework
# The original CSD entry PEPLIG is in the orthorhombic crystal system
# The original CSD entry PEPLIG is in a Sohncke space group
# The framework has been calculated to contain at least 10.0% void space
# The void calculation uses a probe of radius 1.32A, grid spacing 0.4
#
###############################################################################

data_PEPLIG
_chemical_formula_moiety         '(C32 H16 O17 V2)n'
_symmetry_cell_setting           triclinic
_symmetry_space_group_name_H-M   'P 1'
_symmetry_Int_Tables_number      1
_space_group_name_Hall           'P 1'
loop_
_symmetry_equiv_pos_site_id
_symmetry_equiv_pos_as_xyz
1 x,y,z
_cell_length_a                   6.7858(10)
_cell_length_b                   12.6180(19)
_cell_length_c                   17.086(3)
_cell_angle_alpha                90
_cell_angle_beta                 90
_cell_angle_gamma                90
_cell_volume                     1462.96
loop_
_atom_site_label
_atom_site_type_symbol
_atom_site_fract_x
_atom_site_fract_y
_atom_site_fract_z
O9 O 0.1098(5) 0.8299(2) 0.08930(16)
V1 V 0.05886(7) 0.73460(4) 0.99926(4)
H1 H 0.0505 0.5364 0.8056
H4 H 0.0315 0.4345 0.6921
O6 O 0.2776(3) 0.68534(17) 0.99604(16)
O8 O 0.1096(5) 0.8495(3) 0.92316(17)
O1 O 0.7776(3) 0.81466(17) 0.00396(16)
V4 V 0.55886(7) 0.76540(4) 0.00074(4)
O7 O 0.9410(5) 0.6350(2) 0.07613(16)
O2 O 0.9380(5) 0.6551(2) 0.91167(16)
O3 O 0.5590(5) 0.3650(2) 0.57613(16)
O4 O 0.8904(5) 0.3495(3) 0.57684(17)
O5 O 0.6098(5) 0.6701(2) 0.91070(16)
C1 C 0.7607(7) 0.5744(3) 0.8093(2)
C2 C 0.9305(8) 0.5275(4) 0.7801(3)
C3 C 0.7726(7) 0.6375(4) 0.8826(2)
C4 C 0.5744(8) 0.5033(4) 0.7026(3)
H2 H 0.4547 0.4955 0.6767
C5 C 0.5827(7) 0.5634(4) 0.7699(2)
H3 H 0.4698 0.5963 0.7889
C6 C 0.7397(7) 0.4550(3) 0.6732(2)
C7 C 0.9190(7) 0.4670(4) 0.7119(3)
C8 C 0.7298(7) 0.3846(3) 0.6032(2)
V2 V 0.44114(7) 0.26540(4) 0.49926(4)
V3 V 0.94114(7) 0.23460(4) 0.50074(4)
O1_2 O 0.7224(3) 0.18534(17) 0.50396(16)
O2_2 O 0.5620(5) 0.3449(2) 0.41167(16)
O4_2 O 0.6096(5) 0.6505(3) 0.07684(17)
O5_2 O 0.8902(5) 0.3299(2) 0.41070(16)
C1_2 C 0.7393(7) 0.4256(3) 0.3093(2)
C2_2 C 0.5695(8) 0.4725(4) 0.2801(3)
H1_2 H 0.4495 0.4636 0.3056
C3_2 C 0.7274(7) 0.3625(4) 0.3826(2)
C4_2 C 0.9256(8) 0.4967(4) 0.2026(3)
C5_2 C 0.9173(7) 0.4366(4) 0.2699(2)
C6_2 C 0.7603(7) 0.5450(3) 0.1732(2)
C7_2 C 0.5810(7) 0.5330(4) 0.2119(3)
H4_2 H 0.4685 0.5655 0.1921
C8_2 C 0.7702(7) 0.6154(3) 0.1032(2)
O6_2 O 0.2224(3) 0.31466(17) 0.49604(16)
O8_2 O 0.3904(5) 0.1505(3) 0.42316(17)
O9_2 O 0.3902(5) 0.1701(2) 0.58930(16)
O2_3 O 0.0620(5) 0.1551(2) 0.58833(16)
C1_3 C 0.2393(7) 0.0744(3) 0.6907(2)
C2_3 C 0.0695(8) 0.0275(4) 0.7199(3)
C3_3 C 0.2274(7) 0.1375(4) 0.6174(2)
C4_3 C 0.4256(8) 0.0033(4) 0.7974(3)
C5_3 C 0.4173(7) 0.0634(4) 0.7301(2)
H3_2 H 0.5302 0.0963 0.7111
O7_2 O 0.0590(5) 0.1350(2) 0.42387(16)
O3_2 O 0.4410(5) 0.8650(2) 0.92387(16)
H2_2 H 0.5453 0.9955 0.8233
C6_3 C 0.2603(7) 0.9550(3) 0.8268(2)
C7_3 C 0.0810(7) 0.9670(4) 0.7881(3)
C8_3 C 0.2702(7) 0.8846(3) 0.8968(2)
H1_3 H 0.9495 0.0364 0.6944
C6_4 C 0.2397(7) 0.0450(3) 0.3268(2)
C7_4 C 0.4190(7) 0.0330(4) 0.2881(3)
H4_3 H 0.5315 0.0655 0.3079
C8_4 C 0.2298(7) 0.1154(3) 0.3968(2)
O2_4 O 0.4380(5) 0.8449(2) 0.08833(16)
C1_4 C 0.2607(7) 0.9256(3) 0.1907(2)
C2_4 C 0.4305(8) 0.9725(4) 0.2199(3)
H1_4 H 0.5505 0.9636 0.1944
C3_4 C 0.2726(7) 0.8625(4) 0.1174(2)
C4_4 C 0.0744(8) 0.9967(4) 0.2974(3)
C5_4 C 0.0827(7) 0.9366(4) 0.2301(2)
H2_3 H 0.9547 0.0045 0.3233
H2_4 H 0.0453 0.5045 0.1767
H3_3 H 0.0302 0.4037 0.2889
H4_4 H 0.9685 0.9345 0.8079
H3_4 H 0.9698 0.9037 0.2111
loop_
_geom_bond_atom_site_label_1
_geom_bond_atom_site_label_2
_geom_bond_site_symmetry_1
_geom_bond_site_symmetry_2
O6 V1 1_555 1_555
O8 V1 1_555 1_555
O1 V4 1_555 1_555
O3 C8 1_555 1_555
O4 C8 1_555 1_555
O5 C3 1_555 1_555
C1 C2 1_555 1_555
C3 O2 1_555 1_555
C4 H2 1_555 1_555
C5 C1 1_555 1_555
H3 C5 1_555 1_555
C6 C4 1_555 1_555
C7 C2 1_555 1_555
C8 C6 1_555 1_555
V2 O3 1_555 1_555
V3 O4 1_555 1_555
C1 C3 1_555 1_555
C4 C5 1_555 1_555
C6 C7 1_555 1_555
V2 O1_2 1_555 1_555
O1_2 V3 1_555 1_555
O2_2 V2 1_555 1_555
O7 C8_2 1_555 1_555
O4_2 C8_2 1_555 1_555
O5_2 C3_2 1_555 1_555
C1_2 C2_2 1_555 1_555
C2_2 H1_2 1_555 1_555
C3_2 O2_2 1_555 1_555
C5_2 C1_2 1_555 1_555
C6_2 C4_2 1_555 1_555
C7_2 C2_2 1_555 1_555
H4_2 C7_2 1_555 1_555
C8_2 C6_2 1_555 1_555
V4 O4_2 1_555 1_555
V3 O5_2 1_555 1_555
O6_2 V2 1_555 1_555
O8_2 V2 1_555 1_555
O9_2 V2 1_555 1_555
C1_2 C3_2 1_555 1_555
C4_2 C5_2 1_555 1_555
C6_2 C7_2 1_555 1_555
O9_2 C3_3 1_555 1_555
C1_3 C2_3 1_555 1_555
C3_3 O2_3 1_555 1_555
C5_3 C1_3 1_555 1_555
H3_2 C5_3 1_555 1_555
C1_3 C3_3 1_555 1_555
C4_3 C5_3 1_555 1_555
O3_2 C8_3 1_555 1_555
O8 C8_3 1_555 1_555
C8_3 C6_3 1_555 1_555
C6_3 C7_3 1_555 1_555
O7_2 C8_4 1_555 1_555
O8_2 C8_4 1_555 1_555
H4_3 C7_4 1_555 1_555
C8_4 C6_4 1_555 1_555
C6_4 C7_4 1_555 1_555
O2_4 V4 1_555 1_555
O9 C3_4 1_555 1_555
C1_4 C2_4 1_555 1_555
C2_4 H1_4 1_555 1_555
C3_4 O2_4 1_555 1_555
C5_4 C1_4 1_555 1_555
C1_4 C3_4 1_555 1_555
C4_4 C5_4 1_555 1_555

#END
