
###############################################################################
#
# This file contains modified crystal structure data generated from the
# MOF subset of the Cambridge Structural Database (CSD) v543 
# hosted by the Cambridge Crystallographic Data Centre (CCDC).
#
# This work is licensed under the Creative Commons
# Attribution-NonCommercial-ShareAlike 4.0 International License.
# To view a copy of this license, visit
# http://creativecommons.org/licenses/by-nc-sa/4.0/
# or send a letter to
# Creative Commons, PO Box 1866, Mountain View, CA 94042, USA.
#
# CIF created using the CSD Python API on 29 September 2022
# The structure has been converted into the P1 space group
# The structure has a 3D framework
# The original CSD entry PEPLEC is in the orthorhombic crystal system
# The original CSD entry PEPLEC is in a Sohncke space group
# The framework has been calculated to contain at least 10.0% void space
# The void calculation uses a probe of radius 1.32A, grid spacing 0.4
#
###############################################################################

data_PEPLEC
_chemical_formula_moiety         '(C32 H16 O20 V4)n'
_symmetry_cell_setting           triclinic
_symmetry_space_group_name_H-M   'P 1'
_symmetry_Int_Tables_number      1
_space_group_name_Hall           'P 1'
loop_
_symmetry_equiv_pos_site_id
_symmetry_equiv_pos_as_xyz
1 x,y,z
_cell_length_a                   6.7849(10)
_cell_length_b                   13.0309(19)
_cell_length_c                   16.851(2)
_cell_angle_alpha                90
_cell_angle_beta                 90
_cell_angle_gamma                90
_cell_volume                     1489.85
loop_
_atom_site_label
_atom_site_type_symbol
_atom_site_fract_x
_atom_site_fract_y
_atom_site_fract_z
C1 C 0.2704(5) 0.6323(2) 0.61301(13)
C2 C 0.2607(5) 0.5652(2) 0.68537(13)
C3 C 0.0822(5) 0.5508(3) 0.72343(16)
C4 C 0.0693(5) 0.4894(3) 0.79006(17)
C5 C 0.4202(5) 0.4591(3) 0.78213(17)
H3 H 0.5342 0.4296 0.8025
C6 C 0.4297(5) 0.5195(3) 0.71457(17)
H4 H 0.5496 0.5293 0.6889
C7 C 0.2280(5) 0.3753(2) 0.89051(14)
C8 C 0.2396(5) 0.4426(2) 0.81955(14)
O1 O 0.27884(17) 0.81290(9) 0.49881(11)
O2 O 0.1099(3) 0.66511(16) 0.58593(10)
O3 O 0.0604(4) 0.35603(16) 0.91872(10)
O4 O 0.4404(4) 0.65103(16) 0.58604(10)
O5 O 0.3890(3) 0.34023(16) 0.91691(11)
V1 V 0.05922(4) 0.76464(2) 0.49966(3)
O9 O 0.1110(3) 0.65977(16) 0.41691(11)
V2 V 0.55922(4) 0.73536(2) 0.50034(3)
V4 V 0.44078(4) 0.23536(2) 0.99966(3)
V3 V 0.94078(4) 0.26464(2) 0.00034(3)
H1 H 0.9696 0.5828 0.7039
H2 H 0.9486 0.4793 0.8150
O6 O 0.77884(17) 0.68710(9) 0.50119(11)
O7 O 0.9396(4) 0.85603(16) 0.58128(10)
O8 O 0.9404(4) 0.84897(16) 0.41396(10)
C1_2 C 0.2296(5) 0.3677(2) 0.11301(13)
C2_2 C 0.2393(5) 0.4348(2) 0.18537(13)
C3_2 C 0.4178(5) 0.4492(3) 0.22343(16)
H1_2 H 0.5304 0.4172 0.2039
C4_2 C 0.4307(5) 0.5106(3) 0.29006(17)
H2_2 H 0.5514 0.5207 0.3150
C5_2 C 0.0798(5) 0.5409(3) 0.28213(17)
C6_2 C 0.0703(5) 0.4805(3) 0.21457(17)
C7_2 C 0.2720(5) 0.6247(2) 0.39051(14)
C8_2 C 0.2604(5) 0.5574(2) 0.31955(14)
O2_2 O 0.3901(3) 0.33489(16) 0.08593(10)
O3_2 O 0.4396(4) 0.64397(16) 0.41872(10)
O4_2 O 0.0596(4) 0.34897(16) 0.08604(10)
O6_2 O 0.72116(17) 0.31290(9) 0.00119(11)
O7_2 O 0.5604(4) 0.14397(16) 0.08128(10)
O1_2 O 0.22116(17) 0.18710(9) 0.99881(11)
O8_2 O 0.5596(4) 0.15103(16) 0.91396(10)
H3_2 H 0.9658 0.5704 0.3025
H4_2 H 0.9504 0.4707 0.1889
H1_3 H 0.0304 0.0828 0.7961
H2_3 H 0.0514 0.9793 0.6850
O9_2 O 0.8890(3) 0.15977(16) 0.08309(11)
C1_3 C 0.7296(5) 0.1323(2) 0.88699(13)
C2_3 C 0.7393(5) 0.0652(2) 0.81463(13)
C3_3 C 0.9178(5) 0.0508(3) 0.77657(16)
C6_3 C 0.5703(5) 0.0195(3) 0.78543(17)
H4_3 H 0.4504 0.0293 0.8111
O2_3 O 0.8901(3) 0.16511(16) 0.91407(10)
C4_3 C 0.9307(5) 0.9894(3) 0.70994(17)
C5_3 C 0.5798(5) 0.9591(3) 0.71787(17)
H3_3 H 0.4658 0.9296 0.6975
C7_3 C 0.7720(5) 0.8753(2) 0.60949(14)
C8_3 C 0.7604(5) 0.9426(2) 0.68045(14)
O5_2 O 0.6110(3) 0.84023(16) 0.58309(11)
H4_4 H 0.0496 0.9707 0.3111
C4_4 C 0.5693(5) 0.0106(3) 0.20994(17)
H2_4 H 0.4486 0.0207 0.1850
C5_4 C 0.9202(5) 0.0409(3) 0.21787(17)
C7_4 C 0.7280(5) 0.1247(2) 0.10949(14)
C8_4 C 0.7396(5) 0.0574(2) 0.18045(14)
C1_4 C 0.7704(5) 0.8677(2) 0.38699(13)
C2_4 C 0.7607(5) 0.9348(2) 0.31463(13)
C3_4 C 0.5822(5) 0.9492(3) 0.27657(16)
H1_4 H 0.4696 0.9172 0.2961
C6_4 C 0.9297(5) 0.9805(3) 0.28543(17)
O2_4 O 0.6099(3) 0.83489(16) 0.41407(10)
H3_4 H 0.0342 0.0704 0.1975
loop_
_geom_bond_atom_site_label_1
_geom_bond_atom_site_label_2
_geom_bond_site_symmetry_1
_geom_bond_site_symmetry_2
C1 C2 1_555 1_555
C2 C3 1_555 1_555
C4 C3 1_555 1_555
C5 H3 1_555 1_555
C6 C2 1_555 1_555
H4 C6 1_555 1_555
C7 C8 1_555 1_555
C8 C4 1_555 1_555
O1 V1 1_555 1_555
O2 C1 1_555 1_555
O3 C7 1_555 1_555
O4 C1 1_555 1_555
O5 C7 1_555 1_555
V1 O2 1_555 1_555
O9 V1 1_555 1_555
V2 O1 1_555 1_555
V4 O5 1_555 1_555
C5 C6 1_555 1_555
C5 C8 1_555 1_555
O4 V2 1_555 1_555
C1_2 C2_2 1_555 1_555
C2_2 C3_2 1_555 1_555
C3_2 H1_2 1_555 1_555
C4_2 C3_2 1_555 1_555
H2_2 C4_2 1_555 1_555
C6_2 C2_2 1_555 1_555
C7_2 C8_2 1_555 1_555
C8_2 C4_2 1_555 1_555
O2_2 C1_2 1_555 1_555
O3_2 C7_2 1_555 1_555
O4_2 C1_2 1_555 1_555
O9 C7_2 1_555 1_555
V2 O3_2 1_555 1_555
C5_2 C6_2 1_555 1_555
C5_2 C8_2 1_555 1_555
O1_2 V4 1_555 1_555
O8_2 V4 1_555 1_555
O6_2 V3 1_555 1_555
O9_2 V3 1_555 1_555
C1_3 C2_3 1_555 1_555
C2_3 C3_3 1_555 1_555
C6_3 C2_3 1_555 1_555
H4_3 C6_3 1_555 1_555
O2_3 C1_3 1_555 1_555
O8_2 C1_3 1_555 1_555
C5_3 H3_3 1_555 1_555
C7_3 C8_3 1_555 1_555
C8_3 C4_3 1_555 1_555
O7 C7_3 1_555 1_555
O5_2 C7_3 1_555 1_555
V2 O5_2 1_555 1_555
C5_3 C8_3 1_555 1_555
H2_4 C4_4 1_555 1_555
C7_4 C8_4 1_555 1_555
C8_4 C4_4 1_555 1_555
O7_2 C7_4 1_555 1_555
O9_2 C7_4 1_555 1_555
C5_4 C8_4 1_555 1_555
C1_4 C2_4 1_555 1_555
C2_4 C3_4 1_555 1_555
C3_4 H1_4 1_555 1_555
C6_4 C2_4 1_555 1_555
O6 V2 1_555 1_555
O2_4 C1_4 1_555 1_555
O8 C1_4 1_555 1_555
V2 O2_4 1_555 1_555

#END
