
###############################################################################
#
# This file contains modified crystal structure data generated from the
# MOF subset of the Cambridge Structural Database (CSD) v543 
# hosted by the Cambridge Crystallographic Data Centre (CCDC).
#
# This work is licensed under the Creative Commons
# Attribution-NonCommercial-ShareAlike 4.0 International License.
# To view a copy of this license, visit
# http://creativecommons.org/licenses/by-nc-sa/4.0/
# or send a letter to
# Creative Commons, PO Box 1866, Mountain View, CA 94042, USA.
#
# CIF created using the CSD Python API on 29 September 2022
# The structure has been converted into the P1 space group
# The structure has a 3D framework
# The original CSD entry PEPLOM is in the orthorhombic crystal system
# The framework has been calculated to contain at least 10.0% void space
# The void calculation uses a probe of radius 1.32A, grid spacing 0.4
#
###############################################################################

data_PEPLOM
_chemical_formula_moiety         '(C32 H16 O16 V4)n'
_symmetry_cell_setting           triclinic
_symmetry_space_group_name_H-M   'P 1'
_symmetry_Int_Tables_number      1
_space_group_name_Hall           'P 1'
loop_
_symmetry_equiv_pos_site_id
_symmetry_equiv_pos_as_xyz
1 x,y,z
_cell_length_a                   6.796(3)
_cell_length_b                   18.410(8)
_cell_length_c                   10.214(4)
_cell_angle_alpha                90
_cell_angle_beta                 90
_cell_angle_gamma                90
_cell_volume                     1277.92
loop_
_atom_site_label
_atom_site_type_symbol
_atom_site_fract_x
_atom_site_fract_y
_atom_site_fract_z
_atom_site_U_iso_or_equiv
_atom_site_thermal_displace_type
V4 V 0.3007(4) 0.2500 0.2323(2) 0.0153 Uiso
O7 O 0.1807(12) 0.3283(4) 0.1242(7) 0.0245 Uiso
C5 C 0.0138(16) 0.3563(6) 0.1084(9) 0.0170 Uiso
C6 C 0.0072(17) 0.4303(6) 0.0477(10) 0.0210 Uiso
C7 C 0.177(2) 0.4654(7) 0.0139(11) 0.0340 Uiso
H3 H 0.2974 0.4421 0.0240 0.0410 Uiso
V1 V 0.1993(4) 0.7500 0.7323(2) 0.0153 Uiso
O1 O 0.1483(11) 0.6725(4) 0.8603(6) 0.0196 Uiso
C4 C 0.170(2) 0.5350(7) 0.9648(11) 0.0340 Uiso
H2 H 0.2859 0.5584 0.9401 0.0410 Uiso
O5 O 0.1483(11) 0.8275(4) 0.8603(6) 0.0196 Uiso
O6 O 0.4840(15) 0.7500 0.8284(9) 0.0160 Uiso
O8 O 0.3193(12) 0.6717(4) 0.6242(7) 0.0245 Uiso
O9 O 0.3193(12) 0.8283(4) 0.6242(7) 0.0245 Uiso
V3 V 0.8007(4) 0.2500 0.2677(2) 0.0153 Uiso
O4 O 0.8517(11) 0.3275(4) 0.1397(6) 0.0196 Uiso
C8 C 0.830(2) 0.4650(7) 0.0352(11) 0.0340 Uiso
H4 H 0.7141 0.4416 0.0599 0.0410 Uiso
O2 O 0.9840(15) 0.7500 0.6716(9) 0.0160 Uiso
O3 O 0.8193(12) 0.6717(4) 0.8758(7) 0.0245 Uiso
C1 C 0.9862(16) 0.6437(6) 0.8916(9) 0.0170 Uiso
C2 C 0.9928(17) 0.5697(6) 0.9523(10) 0.0210 Uiso
C3 C 0.823(2) 0.5346(7) 0.9861(11) 0.0340 Uiso
H1 H 0.7026 0.5579 0.9760 0.0410 Uiso
V2 V 0.6993(4) 0.7500 0.7677(2) 0.0153 Uiso
O1_2 O 0.3517(11) 0.3275(4) 0.3603(6) 0.0196 Uiso
O2_2 O 0.5160(15) 0.2500 0.1716(9) 0.0160 Uiso
O3_2 O 0.6807(12) 0.3283(4) 0.3758(7) 0.0245 Uiso
C1_2 C 0.5138(16) 0.3563(6) 0.3916(9) 0.0170 Uiso
C2_2 C 0.5072(17) 0.4303(6) 0.4523(10) 0.0210 Uiso
C3_2 C 0.677(2) 0.4654(7) 0.4861(11) 0.0340 Uiso
H1_2 H 0.7974 0.4421 0.4760 0.0410 Uiso
C4_2 C 0.330(2) 0.4650(7) 0.4648(11) 0.0340 Uiso
H2_2 H 0.2141 0.4416 0.4401 0.0410 Uiso
O4_2 O 0.6483(11) 0.6725(4) 0.6397(6) 0.0196 Uiso
O5_2 O 0.3517(11) 0.1725(4) 0.3603(6) 0.0196 Uiso
O6_2 O 0.0160(15) 0.2500 0.3284(9) 0.0160 Uiso
O9_2 O 0.1807(12) 0.1717(4) 0.1242(7) 0.0245 Uiso
C5_2 C 0.4862(16) 0.6437(6) 0.6084(9) 0.0170 Uiso
C6_2 C 0.4928(17) 0.5697(6) 0.5477(10) 0.0210 Uiso
C7_2 C 0.323(2) 0.5346(7) 0.5139(11) 0.0340 Uiso
H3_2 H 0.2026 0.5579 0.5240 0.0410 Uiso
C8_2 C 0.670(2) 0.5350(7) 0.5352(11) 0.0340 Uiso
H4_2 H 0.7859 0.5584 0.5599 0.0410 Uiso
C1_3 C 0.0138(16) 0.1437(6) 0.1084(9) 0.0170 Uiso
C2_3 C 0.0072(17) 0.0697(6) 0.0477(10) 0.0210 Uiso
C3_3 C 0.177(2) 0.0346(7) 0.0139(11) 0.0340 Uiso
H1_3 H 0.2974 0.0579 0.0240 0.0410 Uiso
C8_3 C 0.170(2) 0.9650(7) 0.9648(11) 0.0340 Uiso
H4_3 H 0.2859 0.9416 0.9401 0.0410 Uiso
O1_3 O 0.8517(11) 0.1725(4) 0.1397(6) 0.0196 Uiso
C4_3 C 0.830(2) 0.0350(7) 0.0352(11) 0.0340 Uiso
H2_3 H 0.7141 0.0584 0.0599 0.0410 Uiso
O8_2 O 0.6807(12) 0.1717(4) 0.3758(7) 0.0245 Uiso
O7_2 O 0.8193(12) 0.8283(4) 0.8758(7) 0.0245 Uiso
C5_3 C 0.9862(16) 0.8563(6) 0.8916(9) 0.0170 Uiso
C6_3 C 0.9928(17) 0.9303(6) 0.9523(10) 0.0210 Uiso
C7_3 C 0.823(2) 0.9654(7) 0.9861(11) 0.0340 Uiso
H3_3 H 0.7026 0.9421 0.9760 0.0410 Uiso
C5_4 C 0.5138(16) 0.1437(6) 0.3916(9) 0.0170 Uiso
C6_4 C 0.5072(17) 0.0697(6) 0.4523(10) 0.0210 Uiso
C7_4 C 0.677(2) 0.0346(7) 0.4861(11) 0.0340 Uiso
H3_4 H 0.7974 0.0579 0.4760 0.0410 Uiso
C8_4 C 0.330(2) 0.0350(7) 0.4648(11) 0.0340 Uiso
H4_4 H 0.2141 0.0584 0.4401 0.0410 Uiso
O1_4 O 0.6483(11) 0.8275(4) 0.6397(6) 0.0196 Uiso
C1_4 C 0.4862(16) 0.8563(6) 0.6084(9) 0.0170 Uiso
C2_4 C 0.4928(17) 0.9303(6) 0.5477(10) 0.0210 Uiso
C3_4 C 0.323(2) 0.9654(7) 0.5139(11) 0.0340 Uiso
H1_4 H 0.2026 0.9421 0.5240 0.0410 Uiso
C4_4 C 0.670(2) 0.9650(7) 0.5352(11) 0.0340 Uiso
H2_4 H 0.7859 0.9416 0.5599 0.0410 Uiso
loop_
_geom_bond_atom_site_label_1
_geom_bond_atom_site_label_2
_geom_bond_site_symmetry_1
_geom_bond_site_symmetry_2
V4 O7 1_555 1_555
O7 C5 1_555 1_555
C5 C6 1_555 1_555
C6 C7 1_555 1_555
H3 C7 1_555 1_555
V1 O1 1_555 1_555
H2 C4 1_555 1_555
O5 V1 1_555 1_555
O6 V1 1_555 1_555
O8 V1 1_555 1_555
O9 V1 1_555 1_555
V3 O4 1_555 1_555
H4 C8 1_555 1_555
O3 C1 1_555 1_555
C1 C2 1_555 1_555
C2 C3 1_555 1_555
C3 H1 1_555 1_555
V2 O2 1_555 1_555
O3 V2 1_555 1_555
V4 O1_2 1_555 1_555
O1_2 C1_2 1_555 1_555
O2_2 V4 1_555 1_555
O3_2 C1_2 1_555 1_555
C1_2 C2_2 1_555 1_555
C2_2 C3_2 1_555 1_555
C3_2 H1_2 1_555 1_555
C4_2 C2_2 1_555 1_555
H2_2 C4_2 1_555 1_555
V3 O2_2 1_555 1_555
V2 O4_2 1_555 1_555
O4_2 C5_2 1_555 1_555
O5_2 V4 1_555 1_555
O6_2 V4 1_555 1_555
O8 C5_2 1_555 1_555
O9_2 V4 1_555 1_555
C5_2 C6_2 1_555 1_555
C6_2 C7_2 1_555 1_555
C7_2 C4_2 1_555 1_555
H3_2 C7_2 1_555 1_555
C8_2 C3_2 1_555 1_555
H4_2 C8_2 1_555 1_555
O3_2 V3 1_555 1_555
C6_2 C8_2 1_555 1_555
O9_2 C1_3 1_555 1_555
C1_3 C2_3 1_555 1_555
C2_3 C3_3 1_555 1_555
C3_3 H1_3 1_555 1_555
H4_3 C8_3 1_555 1_555
V3 O1_3 1_555 1_555
H2_3 C4_3 1_555 1_555
O8_2 V3 1_555 1_555
V2 O7_2 1_555 1_555
O7_2 C5_3 1_555 1_555
C5_3 C6_3 1_555 1_555
C6_3 C7_3 1_555 1_555
H3_3 C7_3 1_555 1_555
O5_2 C5_4 1_555 1_555
O8_2 C5_4 1_555 1_555
C5_4 C6_4 1_555 1_555
C6_4 C7_4 1_555 1_555
H3_4 C7_4 1_555 1_555
H4_4 C8_4 1_555 1_555
C6_4 C8_4 1_555 1_555
V2 O1_4 1_555 1_555
O1_4 C1_4 1_555 1_555
O6 V2 1_555 1_555
O9 C1_4 1_555 1_555
C1_4 C2_4 1_555 1_555
C2_4 C3_4 1_555 1_555
C3_4 H1_4 1_555 1_555
C4_4 C2_4 1_555 1_555
H2_4 C4_4 1_555 1_555

#END
