
###############################################################################
#
# This file contains modified crystal structure data generated from the
# MOF subset of the Cambridge Structural Database (CSD) v543 
# hosted by the Cambridge Crystallographic Data Centre (CCDC).
#
# This work is licensed under the Creative Commons
# Attribution-NonCommercial-ShareAlike 4.0 International License.
# To view a copy of this license, visit
# http://creativecommons.org/licenses/by-nc-sa/4.0/
# or send a letter to
# Creative Commons, PO Box 1866, Mountain View, CA 94042, USA.
#
# CIF created using the CSD Python API on 29 September 2022
# The structure has been converted into the P1 space group
# The structure has a 3D framework
# The original CSD entry PEQHUQ is in the tetragonal crystal system
# The framework has been calculated to contain at least 10.0% void space
# The void calculation uses a probe of radius 1.32A, grid spacing 0.4
#
###############################################################################

data_PEQHUQ
_chemical_formula_moiety         '(C96 H80 N56 O32 Zn14)n'
_symmetry_cell_setting           triclinic
_symmetry_space_group_name_H-M   'P 1'
_symmetry_Int_Tables_number      1
_space_group_name_Hall           'P 1'
loop_
_symmetry_equiv_pos_site_id
_symmetry_equiv_pos_as_xyz
1 x,y,z
_cell_length_a                   12.6672(6)
_cell_length_b                   12.6672(6)
_cell_length_c                   25.4399(18)
_cell_angle_alpha                90
_cell_angle_beta                 90
_cell_angle_gamma                90
_cell_volume                     4082.03
loop_
_atom_site_label
_atom_site_type_symbol
_atom_site_fract_x
_atom_site_fract_y
_atom_site_fract_z
N3 N 0.1015(3) 0.0025(3) 0.55081(12)
N4 N 0.1962(3) 0.0308(4) 0.62946(14)
H1 H 0.1397 0.0483 0.6461
H2 H 0.2559 0.0305 0.6455
C5 C 0.1912(3) 0.0042(3) 0.57896(15)
N5 N 0.5225(3) 0.2752(3) 0.54913(12)
N6 N 0.5270(3) 0.1302(3) 0.49992(12)
N7 N 0.4975(3) 0.1015(3) 0.55081(12)
N8 N 0.4692(4) 0.1962(3) 0.62946(14)
H8 H 0.4517 0.1397 0.6461
H9 H 0.4695 0.2559 0.6455
C11 C 0.4958(3) 0.1912(3) 0.57896(15)
C12 C 0.5399(3) 0.2321(3) 0.50111(15)
H10 H 0.5593 0.2716 0.4718
Zn3 Zn 0.53948(3) 0.43328(4) 0.562588(16)
Zn6 Zn 0.56672(4) 0.03948(3) 0.437412(16)
N1 N 0.2752(3) 0.9775(3) 0.54913(12)
N2 N 0.1302(3) 0.9730(3) 0.49992(12)
C6 C 0.2321(3) 0.9601(3) 0.50111(15)
H5 H 0.2716 0.9407 0.4718
Zn2 Zn 0.43328(4) 0.96052(3) 0.562588(16)
Zn5 Zn 0.03948(3) 0.93328(4) 0.437412(16)
O5 O 0.4480(4) 0.8533(3) 0.61652(14)
N11 N 0.4730(3) 0.8698(3) 0.50008(12)
Zn1 Zn 0.96052(3) 0.06672(4) 0.562588(16)
O1 O 0.8533(3) 0.0520(4) 0.61652(14)
O2 O 0.9882(3) 0.0883(3) 0.66743(15)
C1 C 0.8929(4) 0.0712(4) 0.66111(19)
C2 C 0.8178(4) 0.0731(4) 0.70713(16)
C3 C 0.8573(4) 0.0737(5) 0.7575(2)
H3 H 0.9299 0.0750 0.7628
C4 C 0.7106(4) 0.0724(5) 0.69936(18)
H4 H 0.6834 0.0711 0.6654
O3 O 0.6467(3) 0.0520(4) 0.88348(14)
O4 O 0.5118(3) 0.0883(3) 0.83257(15)
C7 C 0.6071(4) 0.0712(4) 0.83889(19)
C8 C 0.6822(4) 0.0731(4) 0.79287(16)
C9 C 0.6427(4) 0.0737(5) 0.7425(2)
H6 H 0.5701 0.0750 0.7372
C10 C 0.7894(4) 0.0724(5) 0.80064(18)
H7 H 0.8166 0.0711 0.8346
Zn4 Zn 0.53948(3) 0.06672(4) 0.937412(16)
N9 N 0.9775(3) 0.2248(3) 0.54913(12)
N10 N 0.8698(3) 0.0270(3) 0.50008(12)
O1_2 O 0.6467(3) 0.4480(4) 0.61652(14)
O2_2 O 0.5118(3) 0.4117(3) 0.66743(15)
N1_2 N 0.2248(3) 0.5225(3) 0.54913(12)
N2_2 N 0.3698(3) 0.5270(3) 0.49992(12)
N3_2 N 0.3985(3) 0.4975(3) 0.55081(12)
N4_2 N 0.3038(3) 0.4692(4) 0.62946(14)
H1_2 H 0.3603 0.4517 0.6461
H2_2 H 0.2441 0.4695 0.6455
C1_2 C 0.6071(4) 0.4288(4) 0.66111(19)
C2_2 C 0.6822(4) 0.4269(4) 0.70713(16)
C3_2 C 0.6427(4) 0.4263(5) 0.7575(2)
H3_2 H 0.5701 0.4250 0.7628
C4_2 C 0.7894(4) 0.4276(5) 0.69936(18)
H4_2 H 0.8166 0.4289 0.6654
C5_2 C 0.3088(3) 0.4958(3) 0.57896(15)
C6_2 C 0.2679(3) 0.5399(3) 0.50111(15)
H5_2 H 0.2284 0.5593 0.4718
O3_2 O 0.8533(3) 0.4480(4) 0.88348(14)
O4_2 O 0.9882(3) 0.4117(3) 0.83257(15)
C7_2 C 0.8929(4) 0.4288(4) 0.83889(19)
C8_2 C 0.8178(4) 0.4269(4) 0.79287(16)
C9_2 C 0.8573(4) 0.4263(5) 0.7425(2)
H6_2 H 0.9299 0.4250 0.7372
C10_2 C 0.7106(4) 0.4276(5) 0.80064(18)
H7_2 H 0.6834 0.4289 0.8346
Zn2_2 Zn 0.06672(4) 0.53948(3) 0.562588(16)
N7_2 N 0.0025(3) 0.3985(3) 0.55081(12)
N8_2 N 0.0308(4) 0.3038(3) 0.62946(14)
H8_2 H 0.0483 0.3603 0.6461
H9_2 H 0.0305 0.2441 0.6455
C11_2 C 0.0042(3) 0.3088(3) 0.57896(15)
Zn4_2 Zn 0.96052(3) 0.43328(4) 0.937412(16)
Zn5_2 Zn 0.46052(3) 0.56672(4) 0.437412(16)
O5_2 O 0.0520(4) 0.6467(3) 0.61652(14)
N10_2 N 0.6302(3) 0.4730(3) 0.50008(12)
N11_2 N 0.0270(3) 0.6302(3) 0.50008(12)
N6_2 N 0.9730(3) 0.3698(3) 0.49992(12)
C12_2 C 0.9601(3) 0.2679(3) 0.50111(15)
H10_2 H 0.9407 0.2284 0.4718
Zn6_2 Zn 0.93328(4) 0.46052(3) 0.437412(16)
O2_3 O 0.4117(3) 0.9882(3) 0.66743(15)
C1_3 C 0.4288(4) 0.8929(4) 0.66111(19)
C2_3 C 0.4269(4) 0.8178(4) 0.70713(16)
C3_3 C 0.4263(5) 0.8573(4) 0.7575(2)
H3_3 H 0.4250 0.9299 0.7628
C4_3 C 0.4276(5) 0.7106(4) 0.69936(18)
H4_3 H 0.4289 0.6834 0.6654
O3_3 O 0.4480(4) 0.6467(3) 0.88348(14)
O4_3 O 0.4117(3) 0.5118(3) 0.83257(15)
C7_3 C 0.4288(4) 0.6071(4) 0.83889(19)
C8_3 C 0.4269(4) 0.6822(4) 0.79287(16)
C9_3 C 0.4263(5) 0.6427(4) 0.7425(2)
H6_3 H 0.4250 0.5701 0.7372
C10_3 C 0.4276(5) 0.7894(4) 0.80064(18)
H7_3 H 0.4289 0.8166 0.8346
Zn4_3 Zn 0.43328(4) 0.53948(3) 0.937412(16)
O2_4 O 0.0883(3) 0.5118(3) 0.66743(15)
C1_4 C 0.0712(4) 0.6071(4) 0.66111(19)
C2_4 C 0.0731(4) 0.6822(4) 0.70713(16)
C3_4 C 0.0737(5) 0.6427(4) 0.7575(2)
H3_4 H 0.0750 0.5701 0.7628
C4_4 C 0.0724(5) 0.7894(4) 0.69936(18)
H4_4 H 0.0711 0.8166 0.6654
O3_4 O 0.0520(4) 0.8533(3) 0.88348(14)
O4_4 O 0.0883(3) 0.9882(3) 0.83257(15)
C7_4 C 0.0712(4) 0.8929(4) 0.83889(19)
C8_4 C 0.0731(4) 0.8178(4) 0.79287(16)
C9_4 C 0.0737(5) 0.8573(4) 0.7425(2)
H6_4 H 0.0750 0.9299 0.7372
C10_4 C 0.0724(5) 0.7106(4) 0.80064(18)
H7_4 H 0.0711 0.6834 0.8346
Zn4_4 Zn 0.06672(4) 0.96052(3) 0.937412(16)
N3_3 N 0.3985(3) 0.0025(3) 0.94919(12)
N4_3 N 0.3038(3) 0.0308(4) 0.87054(14)
H1_3 H 0.3603 0.0483 0.8539
H2_3 H 0.2441 0.0305 0.8545
C5_3 C 0.3088(3) 0.0042(3) 0.92104(15)
N7_3 N 0.0025(3) 0.1015(3) 0.94919(12)
N8_3 N 0.0308(4) 0.1962(3) 0.87054(14)
H8_3 H 0.0483 0.1397 0.8539
H9_3 H 0.0305 0.2559 0.8545
C11_3 C 0.0042(3) 0.1912(3) 0.92104(15)
N9_2 N 0.5225(3) 0.2248(3) 0.95087(12)
N10_3 N 0.6302(3) 0.0270(3) 0.99992(12)
N2_3 N 0.3698(3) 0.9730(3) 0.00008(12)
H5_3 H 0.2284 0.9407 0.0282
Zn5_3 Zn 0.46052(3) 0.93328(4) 0.062588(16)
N1_3 N 0.2248(3) 0.9775(3) 0.95087(12)
C6_3 C 0.2679(3) 0.9601(3) 0.99889(15)
N11_3 N 0.0270(3) 0.8698(3) 0.99992(12)
N6_3 N 0.9730(3) 0.1302(3) 0.00008(12)
H10_3 H 0.9407 0.2716 0.0282
Zn6_3 Zn 0.93328(4) 0.03948(3) 0.062588(16)
N5_2 N 0.9775(3) 0.2752(3) 0.95087(12)
C12_3 C 0.9601(3) 0.2321(3) 0.99889(15)
N2_4 N 0.1302(3) 0.5270(3) 0.00008(12)
H5_4 H 0.2716 0.5593 0.0282
N6_4 N 0.5270(3) 0.3698(3) 0.00008(12)
H10_4 H 0.5593 0.2284 0.0282
Zn5_4 Zn 0.03948(3) 0.56672(4) 0.062588(16)
Zn6_4 Zn 0.56672(4) 0.46052(3) 0.062588(16)
N1_4 N 0.2752(3) 0.5225(3) 0.95087(12)
N3_4 N 0.1015(3) 0.4975(3) 0.94919(12)
N4_4 N 0.1962(3) 0.4692(4) 0.87054(14)
H1_4 H 0.1397 0.4517 0.8539
H2_4 H 0.2559 0.4695 0.8545
C5_4 C 0.1912(3) 0.4958(3) 0.92104(15)
C6_4 C 0.2321(3) 0.5399(3) 0.99889(15)
N7_4 N 0.4975(3) 0.3985(3) 0.94919(12)
N8_4 N 0.4692(4) 0.3038(3) 0.87054(14)
H8_4 H 0.4517 0.3603 0.8539
H9_4 H 0.4695 0.2441 0.8545
C11_4 C 0.4958(3) 0.3088(3) 0.92104(15)
C12_4 C 0.5399(3) 0.2679(3) 0.99889(15)
N11_4 N 0.4730(3) 0.6302(3) 0.99992(12)
N10_4 N 0.8698(3) 0.4730(3) 0.99992(12)
O1_3 O 0.1467(3) 0.9480(4) 0.38348(14)
O2_5 O 0.0118(3) 0.9117(3) 0.33257(15)
C1_5 C 0.1071(4) 0.9288(4) 0.33889(19)
C2_5 C 0.1822(4) 0.9269(4) 0.29287(16)
C3_5 C 0.1427(4) 0.9263(5) 0.2425(2)
H3_5 H 0.0701 0.9250 0.2372
C4_5 C 0.2894(4) 0.9276(5) 0.30064(18)
H4_5 H 0.3166 0.9289 0.3346
O3_5 O 0.3533(3) 0.9480(4) 0.11652(14)
O4_5 O 0.4882(3) 0.9117(3) 0.16743(15)
C7_5 C 0.3929(4) 0.9288(4) 0.16111(19)
C8_5 C 0.3178(4) 0.9269(4) 0.20713(16)
C9_5 C 0.3573(4) 0.9263(5) 0.2575(2)
H6_5 H 0.4299 0.9250 0.2628
C10_5 C 0.2106(4) 0.9276(5) 0.19936(18)
H7_5 H 0.1834 0.9289 0.1654
N9_3 N 0.0225(3) 0.7752(3) 0.45087(12)
N1_5 N 0.7248(3) 0.0225(3) 0.45087(12)
C6_5 C 0.7679(3) 0.0399(3) 0.49889(15)
H5_5 H 0.7284 0.0593 0.5282
O5_3 O 0.5520(4) 0.1467(3) 0.38348(14)
N3_5 N 0.8985(3) 0.9975(3) 0.44919(12)
N4_5 N 0.8038(3) 0.9692(4) 0.37054(14)
H1_5 H 0.8603 0.9517 0.3539
H2_5 H 0.7441 0.9695 0.3545
C5_5 C 0.8088(3) 0.9958(3) 0.42104(15)
N5_3 N 0.4775(3) 0.7248(3) 0.45087(12)
N7_5 N 0.5025(3) 0.8985(3) 0.44919(12)
N8_5 N 0.5308(4) 0.8038(3) 0.37054(14)
H8_5 H 0.5483 0.8603 0.3539
H9_5 H 0.5305 0.7441 0.3545
C11_5 C 0.5042(3) 0.8088(3) 0.42104(15)
C12_5 C 0.4601(3) 0.7679(3) 0.49889(15)
H10_5 H 0.4407 0.7284 0.5282
C12_6 C 0.0399(3) 0.7321(3) 0.49889(15)
H10_6 H 0.0593 0.7716 0.5282
O1_4 O 0.3533(3) 0.5520(4) 0.38348(14)
O2_6 O 0.4882(3) 0.5883(3) 0.33257(15)
N1_6 N 0.7752(3) 0.4775(3) 0.45087(12)
N3_6 N 0.6015(3) 0.5025(3) 0.44919(12)
N4_6 N 0.6962(3) 0.5308(4) 0.37054(14)
H1_6 H 0.6397 0.5483 0.3539
H2_6 H 0.7559 0.5305 0.3545
C1_6 C 0.3929(4) 0.5712(4) 0.33889(19)
C2_6 C 0.3178(4) 0.5731(4) 0.29287(16)
C3_6 C 0.3573(4) 0.5737(5) 0.2425(2)
H3_6 H 0.4299 0.5750 0.2372
C4_6 C 0.2106(4) 0.5724(5) 0.30064(18)
H4_6 H 0.1834 0.5711 0.3346
C5_6 C 0.6912(3) 0.5042(3) 0.42104(15)
C6_6 C 0.7321(3) 0.4601(3) 0.49889(15)
H5_6 H 0.7716 0.4407 0.5282
O3_6 O 0.1467(3) 0.5520(4) 0.11652(14)
O4_6 O 0.0118(3) 0.5883(3) 0.16743(15)
C7_6 C 0.1071(4) 0.5712(4) 0.16111(19)
C8_6 C 0.1822(4) 0.5731(4) 0.20713(16)
C9_6 C 0.1427(4) 0.5737(5) 0.2575(2)
H6_6 H 0.0701 0.5750 0.2628
C10_6 C 0.2894(4) 0.5724(5) 0.19936(18)
H7_6 H 0.3166 0.5711 0.1654
N7_6 N 0.9975(3) 0.6015(3) 0.44919(12)
N8_6 N 0.9692(4) 0.6962(3) 0.37054(14)
H8_6 H 0.9517 0.6397 0.3539
H9_6 H 0.9695 0.7559 0.3545
C11_6 C 0.9958(3) 0.6912(3) 0.42104(15)
O5_4 O 0.9480(4) 0.3533(3) 0.38348(14)
O2_7 O 0.5883(3) 0.0118(3) 0.33257(15)
C1_7 C 0.5712(4) 0.1071(4) 0.33889(19)
C2_7 C 0.5731(4) 0.1822(4) 0.29287(16)
C3_7 C 0.5737(5) 0.1427(4) 0.2425(2)
H3_7 H 0.5750 0.0701 0.2372
C4_7 C 0.5724(5) 0.2894(4) 0.30064(18)
H4_7 H 0.5711 0.3166 0.3346
O3_7 O 0.5520(4) 0.3533(3) 0.11652(14)
O4_7 O 0.5883(3) 0.4882(3) 0.16743(15)
C7_7 C 0.5712(4) 0.3929(4) 0.16111(19)
C8_7 C 0.5731(4) 0.3178(4) 0.20713(16)
C9_7 C 0.5737(5) 0.3573(4) 0.2575(2)
H6_7 H 0.5750 0.4299 0.2628
C10_7 C 0.5724(5) 0.2106(4) 0.19936(18)
H7_7 H 0.5711 0.1834 0.1654
O2_8 O 0.9117(3) 0.4882(3) 0.33257(15)
C1_8 C 0.9288(4) 0.3929(4) 0.33889(19)
C2_8 C 0.9269(4) 0.3178(4) 0.29287(16)
C3_8 C 0.9263(5) 0.3573(4) 0.2425(2)
H3_8 H 0.9250 0.4299 0.2372
C4_8 C 0.9276(5) 0.2106(4) 0.30064(18)
H4_8 H 0.9289 0.1834 0.3346
O3_8 O 0.9480(4) 0.1467(3) 0.11652(14)
O4_8 O 0.9117(3) 0.0118(3) 0.16743(15)
C7_8 C 0.9288(4) 0.1071(4) 0.16111(19)
C8_8 C 0.9269(4) 0.1822(4) 0.20713(16)
C9_8 C 0.9263(5) 0.1427(4) 0.2575(2)
H6_8 H 0.9250 0.0701 0.2628
C10_8 C 0.9276(5) 0.2894(4) 0.19936(18)
H7_8 H 0.9289 0.3166 0.1654
N5_4 N 0.0225(3) 0.7248(3) 0.04913(12)
C12_7 C 0.0399(3) 0.7679(3) 0.00111(15)
H10_7 H 0.0593 0.7284 0.9718
N1_7 N 0.7752(3) 0.0225(3) 0.04913(12)
C6_7 C 0.7321(3) 0.0399(3) 0.00111(15)
H5_7 H 0.7716 0.0593 0.9718
N3_7 N 0.6015(3) 0.9975(3) 0.05081(12)
N4_7 N 0.6962(3) 0.9692(4) 0.12946(14)
H1_7 H 0.6397 0.9517 0.1461
H2_7 H 0.7559 0.9695 0.1455
C5_7 C 0.6912(3) 0.9958(3) 0.07896(15)
N7_7 N 0.9975(3) 0.8985(3) 0.05081(12)
N8_7 N 0.9692(4) 0.8038(3) 0.12946(14)
H8_7 H 0.9517 0.8603 0.1461
H9_7 H 0.9695 0.7441 0.1455
C11_7 C 0.9958(3) 0.8088(3) 0.07896(15)
N9_4 N 0.4775(3) 0.7752(3) 0.04913(12)
N1_8 N 0.7248(3) 0.4775(3) 0.04913(12)
N3_8 N 0.8985(3) 0.5025(3) 0.05081(12)
N4_8 N 0.8038(3) 0.5308(4) 0.12946(14)
H1_8 H 0.8603 0.5483 0.1461
H2_8 H 0.7441 0.5305 0.1455
C5_8 C 0.8088(3) 0.5042(3) 0.07896(15)
C6_8 C 0.7679(3) 0.4601(3) 0.00111(15)
N7_8 N 0.5025(3) 0.6015(3) 0.05081(12)
N8_8 N 0.5308(4) 0.6962(3) 0.12946(14)
H8_8 H 0.5483 0.6397 0.1461
H9_8 H 0.5305 0.7559 0.1455
C11_8 C 0.5042(3) 0.6912(3) 0.07896(15)
C12_8 C 0.4601(3) 0.7321(3) 0.00111(15)
H5_8 H 0.7284 0.4407 0.9718
H10_8 H 0.4407 0.7716 0.9718
loop_
_geom_bond_atom_site_label_1
_geom_bond_atom_site_label_2
_geom_bond_site_symmetry_1
_geom_bond_site_symmetry_2
N4 H1 1_555 1_555
H2 N4 1_555 1_555
C5 N3 1_555 1_555
N5 C11 1_555 1_555
N6 N7 1_555 1_555
N8 H8 1_555 1_555
H9 N8 1_555 1_555
C11 N7 1_555 1_555
C12 N5 1_555 1_555
H10 C12 1_555 1_555
Zn3 N5 1_555 1_555
Zn6 N6 1_555 1_555
N4 C5 1_555 1_555
N6 C12 1_555 1_555
N8 C11 1_555 1_555
C6 N1 1_555 1_555
H5 C6 1_555 1_555
Zn2 N1 1_555 1_555
Zn5 N2 1_555 1_555
O5 Zn2 1_555 1_555
N11 Zn2 1_555 1_555
N2 C6 1_555 1_555
Zn1 O1 1_555 1_555
O1 C1 1_555 1_555
O2 C1 1_555 1_555
C1 C2 1_555 1_555
C2 C3 1_555 1_555
C3 H3 1_555 1_555
C4 C2 1_555 1_555
H4 C4 1_555 1_555
O3 C7 1_555 1_555
O4 C7 1_555 1_555
C7 C8 1_555 1_555
C8 C9 1_555 1_555
C9 C4 1_555 1_555
H6 C9 1_555 1_555
C10 C3 1_555 1_555
H7 C10 1_555 1_555
Zn4 O3 1_555 1_555
N9 Zn1 1_555 1_555
N10 Zn1 1_555 1_555
C8 C10 1_555 1_555
Zn3 O1_2 1_555 1_555
O1_2 C1_2 1_555 1_555
O2_2 C1_2 1_555 1_555
N1_2 C5_2 1_555 1_555
N2_2 N3_2 1_555 1_555
N3_2 Zn3 1_555 1_555
N4_2 H1_2 1_555 1_555
H2_2 N4_2 1_555 1_555
C1_2 C2_2 1_555 1_555
C2_2 C3_2 1_555 1_555
C3_2 H3_2 1_555 1_555
C4_2 C2_2 1_555 1_555
H4_2 C4_2 1_555 1_555
C5_2 N3_2 1_555 1_555
C6_2 N1_2 1_555 1_555
H5_2 C6_2 1_555 1_555
O3_2 C7_2 1_555 1_555
O4_2 C7_2 1_555 1_555
C7_2 C8_2 1_555 1_555
C8_2 C9_2 1_555 1_555
C9_2 C4_2 1_555 1_555
H6_2 C9_2 1_555 1_555
C10_2 C3_2 1_555 1_555
H7_2 C10_2 1_555 1_555
Zn2_2 N1_2 1_555 1_555
N7_2 Zn2_2 1_555 1_555
N8_2 H8_2 1_555 1_555
H9_2 N8_2 1_555 1_555
C11_2 N7_2 1_555 1_555
Zn4_2 O3_2 1_555 1_555
Zn5_2 N2_2 1_555 1_555
O5_2 Zn2_2 1_555 1_555
N10_2 Zn3 1_555 1_555
N11_2 Zn2_2 1_555 1_555
N2_2 C6_2 1_555 1_555
N4_2 C5_2 1_555 1_555
C8_2 C10_2 1_555 1_555
N8_2 C11_2 1_555 1_555
C12_2 N9 1_555 1_555
H10_2 C12_2 1_555 1_555
Zn6_2 N6_2 1_555 1_555
N6_2 C12_2 1_555 1_555
O5 C1_3 1_555 1_555
O2_3 C1_3 1_555 1_555
C1_3 C2_3 1_555 1_555
C2_3 C3_3 1_555 1_555
C3_3 H3_3 1_555 1_555
C4_3 C2_3 1_555 1_555
H4_3 C4_3 1_555 1_555
O3_3 C7_3 1_555 1_555
O4_3 C7_3 1_555 1_555
C7_3 C8_3 1_555 1_555
C8_3 C9_3 1_555 1_555
C9_3 C4_3 1_555 1_555
H6_3 C9_3 1_555 1_555
C10_3 C3_3 1_555 1_555
H7_3 C10_3 1_555 1_555
Zn4_3 O3_3 1_555 1_555
C8_3 C10_3 1_555 1_555
O5_2 C1_4 1_555 1_555
O2_4 C1_4 1_555 1_555
C1_4 C2_4 1_555 1_555
C2_4 C3_4 1_555 1_555
C3_4 H3_4 1_555 1_555
C4_4 C2_4 1_555 1_555
H4_4 C4_4 1_555 1_555
O3_4 C7_4 1_555 1_555
O4_4 C7_4 1_555 1_555
C7_4 C8_4 1_555 1_555
C8_4 C9_4 1_555 1_555
C9_4 C4_4 1_555 1_555
H6_4 C9_4 1_555 1_555
C10_4 C3_4 1_555 1_555
H7_4 C10_4 1_555 1_555
Zn4_4 O3_4 1_555 1_555
C8_4 C10_4 1_555 1_555
N3_3 Zn4 1_555 1_555
N4_3 H1_3 1_555 1_555
H2_3 N4_3 1_555 1_555
C5_3 N3_3 1_555 1_555
N8_3 H8_3 1_555 1_555
H9_3 N8_3 1_555 1_555
C11_3 N7_3 1_555 1_555
N9_2 Zn4 1_555 1_555
N10_3 Zn4 1_555 1_555
N4_3 C5_3 1_555 1_555
N8_3 C11_3 1_555 1_555
Zn5_3 N2_3 1_555 1_555
C6_3 N1_3 1_555 1_555
Zn4_4 N1_3 1_555 1_555
N11_3 Zn4_4 1_555 1_555
Zn6_3 N6_3 1_555 1_555
C12_3 N5_2 1_555 1_555
Zn4_2 N5_2 1_555 1_555
Zn5_4 N2_4 1_555 1_555
Zn6_4 N6_4 1_555 1_555
N1_4 C5_4 1_555 1_555
N4_4 H1_4 1_555 1_555
H2_4 N4_4 1_555 1_555
C5_4 N3_4 1_555 1_555
C6_4 N1_4 1_555 1_555
Zn4_3 N1_4 1_555 1_555
N9_2 C11_4 1_555 1_555
N7_4 Zn4_3 1_555 1_555
N8_4 H8_4 1_555 1_555
H9_4 N8_4 1_555 1_555
C11_4 N7_4 1_555 1_555
C12_4 N9_2 1_555 1_555
N11_4 Zn4_3 1_555 1_555
N4_4 C5_4 1_555 1_555
N8_4 C11_4 1_555 1_555
N10_4 Zn4_2 1_555 1_555
Zn5 O1_3 1_555 1_555
O1_3 C1_5 1_555 1_555
O2_5 C1_5 1_555 1_555
C1_5 C2_5 1_555 1_555
C2_5 C3_5 1_555 1_555
C3_5 H3_5 1_555 1_555
C4_5 C2_5 1_555 1_555
H4_5 C4_5 1_555 1_555
O3_5 C7_5 1_555 1_555
O4_5 C7_5 1_555 1_555
C7_5 C8_5 1_555 1_555
C8_5 C9_5 1_555 1_555
C9_5 C4_5 1_555 1_555
H6_5 C9_5 1_555 1_555
C10_5 C3_5 1_555 1_555
H7_5 C10_5 1_555 1_555
Zn5_3 O3_5 1_555 1_555
N9_3 Zn5 1_555 1_555
C8_5 C10_5 1_555 1_555
C6_5 N1_5 1_555 1_555
H5_5 C6_5 1_555 1_555
Zn6 N1_5 1_555 1_555
O5_3 Zn6 1_555 1_555
N10 C6_5 1_555 1_555
N4_5 H1_5 1_555 1_555
H2_5 N4_5 1_555 1_555
C5_5 N3_5 1_555 1_555
N5_3 C11_5 1_555 1_555
N11 N7_5 1_555 1_555
N8_5 H8_5 1_555 1_555
H9_5 N8_5 1_555 1_555
C11_5 N7_5 1_555 1_555
C12_5 N5_3 1_555 1_555
H10_5 C12_5 1_555 1_555
Zn5_2 N5_3 1_555 1_555
N4_5 C5_5 1_555 1_555
N11 C12_5 1_555 1_555
N8_5 C11_5 1_555 1_555
C12_6 N9_3 1_555 1_555
H10_6 C12_6 1_555 1_555
N11_2 C12_6 1_555 1_555
Zn5_2 O1_4 1_555 1_555
O1_4 C1_6 1_555 1_555
O2_6 C1_6 1_555 1_555
N1_6 C5_6 1_555 1_555
N10_2 N3_6 1_555 1_555
N3_6 Zn5_2 1_555 1_555
N4_6 H1_6 1_555 1_555
H2_6 N4_6 1_555 1_555
C1_6 C2_6 1_555 1_555
C2_6 C3_6 1_555 1_555
C3_6 H3_6 1_555 1_555
C4_6 C2_6 1_555 1_555
H4_6 C4_6 1_555 1_555
C5_6 N3_6 1_555 1_555
C6_6 N1_6 1_555 1_555
H5_6 C6_6 1_555 1_555
O3_6 C7_6 1_555 1_555
O4_6 C7_6 1_555 1_555
C7_6 C8_6 1_555 1_555
C8_6 C9_6 1_555 1_555
C9_6 C4_6 1_555 1_555
H6_6 C9_6 1_555 1_555
C10_6 C3_6 1_555 1_555
H7_6 C10_6 1_555 1_555
Zn6_2 N1_6 1_555 1_555
N7_6 Zn6_2 1_555 1_555
N8_6 H8_6 1_555 1_555
H9_6 N8_6 1_555 1_555
C11_6 N7_6 1_555 1_555
Zn5_4 O3_6 1_555 1_555
O5_4 Zn6_2 1_555 1_555
N10_2 C6_6 1_555 1_555
N4_6 C5_6 1_555 1_555
C8_6 C10_6 1_555 1_555
N8_6 C11_6 1_555 1_555
O5_3 C1_7 1_555 1_555
O2_7 C1_7 1_555 1_555
C1_7 C2_7 1_555 1_555
C2_7 C3_7 1_555 1_555
C3_7 H3_7 1_555 1_555
C4_7 C2_7 1_555 1_555
H4_7 C4_7 1_555 1_555
O3_7 C7_7 1_555 1_555
O4_7 C7_7 1_555 1_555
C7_7 C8_7 1_555 1_555
C8_7 C9_7 1_555 1_555
C9_7 C4_7 1_555 1_555
H6_7 C9_7 1_555 1_555
C10_7 C3_7 1_555 1_555
H7_7 C10_7 1_555 1_555
Zn6_4 O3_7 1_555 1_555
C8_7 C10_7 1_555 1_555
O5_4 C1_8 1_555 1_555
O2_8 C1_8 1_555 1_555
C1_8 C2_8 1_555 1_555
C2_8 C3_8 1_555 1_555
C3_8 H3_8 1_555 1_555
C4_8 C2_8 1_555 1_555
H4_8 C4_8 1_555 1_555
O3_8 C7_8 1_555 1_555
O4_8 C7_8 1_555 1_555
C7_8 C8_8 1_555 1_555
C8_8 C9_8 1_555 1_555
C9_8 C4_8 1_555 1_555
H6_8 C9_8 1_555 1_555
C10_8 C3_8 1_555 1_555
H7_8 C10_8 1_555 1_555
Zn6_3 O3_8 1_555 1_555
C8_8 C10_8 1_555 1_555
C12_7 N5_4 1_555 1_555
Zn5_4 N5_4 1_555 1_555
C6_7 N1_7 1_555 1_555
Zn6_3 N1_7 1_555 1_555
N3_7 Zn5_3 1_555 1_555
N4_7 H1_7 1_555 1_555
H2_7 N4_7 1_555 1_555
C5_7 N3_7 1_555 1_555
N8_7 H8_7 1_555 1_555
H9_7 N8_7 1_555 1_555
C11_7 N7_7 1_555 1_555
N9_4 Zn5_3 1_555 1_555
N4_7 C5_7 1_555 1_555
N8_7 C11_7 1_555 1_555
N1_8 C5_8 1_555 1_555
N4_8 H1_8 1_555 1_555
H2_8 N4_8 1_555 1_555
C5_8 N3_8 1_555 1_555
C6_8 N1_8 1_555 1_555
Zn6_4 N1_8 1_555 1_555
N9_4 C11_8 1_555 1_555
N7_8 Zn6_4 1_555 1_555
N8_8 H8_8 1_555 1_555
H9_8 N8_8 1_555 1_555
C11_8 N7_8 1_555 1_555
C12_8 N9_4 1_555 1_555
N4_8 C5_8 1_555 1_555
N8_8 C11_8 1_555 1_555

#END
