
###############################################################################
#
# This file contains modified crystal structure data generated from the
# MOF subset of the Cambridge Structural Database (CSD) v543 
# hosted by the Cambridge Crystallographic Data Centre (CCDC).
#
# This work is licensed under the Creative Commons
# Attribution-NonCommercial-ShareAlike 4.0 International License.
# To view a copy of this license, visit
# http://creativecommons.org/licenses/by-nc-sa/4.0/
# or send a letter to
# Creative Commons, PO Box 1866, Mountain View, CA 94042, USA.
#
# CIF created using the CSD Python API on 29 September 2022
# The structure has been converted into the P1 space group
# The structure has a 3D framework
# The original CSD entry PEQREL is in the triclinic crystal system
# The framework has been calculated to contain at least 10.0% void space
# The void calculation uses a probe of radius 1.32A, grid spacing 0.4
#
###############################################################################

data_PEQREL
_chemical_formula_moiety         '(C128 H94 Co12 N10 O34)n'
_symmetry_cell_setting           triclinic
_symmetry_space_group_name_H-M   'P 1'
_symmetry_Int_Tables_number      1
_space_group_name_Hall           'P 1'
loop_
_symmetry_equiv_pos_site_id
_symmetry_equiv_pos_as_xyz
1 x,y,z
_cell_length_a                   15.418(7)
_cell_length_b                   15.576(7)
_cell_length_c                   16.580(8)
_cell_angle_alpha                105.169(7)
_cell_angle_beta                 105.708(7)
_cell_angle_gamma                114.971(7)
_cell_volume                     3135.7
loop_
_atom_site_label
_atom_site_type_symbol
_atom_site_fract_x
_atom_site_fract_y
_atom_site_fract_z
Co16 Co -0.0000 0.0000 0.0000
Co16_2 Co -0.0000 0.0000 1.0000
Co16_3 Co -0.0000 1.0000 0.0000
Co16_4 Co -0.0000 1.0000 1.0000
C50 C 0.5344(6) 0.6526(6) 0.0847(5)
H37 H 0.5297 0.6671 0.1408
C51 C 0.6346(6) 0.6975(6) 0.0835(5)
C53 C 0.3393(8) 0.5307(11) 0.0054(8)
C54 C 0.7307(6) 0.7702(5) 0.1755(5)
O10 O 0.3331(6) 0.5454(10) 0.0785(5)
O11 O 0.7174(4) 0.7947(4) 0.2462(3)
O12 O 0.8208(4) 0.8103(4) 0.1774(3)
Co15 Co 0.87688(7) 0.88769(7) 0.34060(6)
H1 H 0.1734 0.0223 0.7948
C19 C 0.4688(5) 0.3354(6) 0.6694(5)
H17 H 0.4114 0.3405 0.6712
C20 C 0.4672(6) 0.2458(6) 0.6674(5)
H18 H 0.4082 0.1915 0.6655
C21 C 0.5525(7) 0.2354(6) 0.6683(6)
C22 C 0.6413(6) 0.3256(6) 0.6745(6)
H19 H 0.7034 0.3266 0.6799
C23 C 0.6342(6) 0.4102(6) 0.6724(5)
H20 H 0.6914 0.4659 0.6737
C24 C 0.5534(7) 0.1418(6) 0.6642(6)
C25 C 0.6422(9) 0.1476(7) 0.7181(7)
H21 H 0.7027 0.2136 0.7580
C26 C 0.4610(8) 0.0406(7) 0.6013(7)
C35 C 0.6463(9) 0.0598(7) 0.7159(8)
C36 C 0.8334(11) 0.1679(14) 0.8129(13)
H30 H 0.8556 0.1793 0.7659
H31 H 0.8865 0.1673 0.8586
H32 H 0.8241 0.2233 0.8419
C37 C 0.1152(5) 0.0631(5) 0.4659(5)
C38 C 0.1534(5) 0.1247(5) 0.4134(5)
C39 C 0.1062(6) 0.0766(6) 0.3179(5)
H33 H 0.0538 0.0055 0.2858
C40 C 0.1380(5) 0.1357(5) 0.2700(5)
C41 C 0.2121(5) 0.2392(6) 0.3163(5)
H34 H 0.2292 0.2784 0.2831
C42 C 0.2635(5) 0.2884(5) 0.4127(5)
C43 C 0.2309(5) 0.2288(5) 0.4607(5)
H35 H 0.2622 0.2604 0.5252
C44 C 0.3502(6) 0.3997(5) 0.4644(5)
C45 C 0.0837(6) 0.0833(6) 0.1670(5)
C46 C 0.5501(5) 0.5884(5) 0.8237(5)
C47 C 0.5467(6) 0.6093(6) 0.9164(5)
C48 C 0.4492(6) 0.5662(6) 0.9187(5)
H36 H 0.3878 0.5231 0.8630
C49 C 0.4405(6) 0.5850(8) 0.9996(6)
C52 C 0.6388(6) 0.6736(6) 0.9983(5)
H38 H 0.7043 0.7013 0.9965
Co1 Co 0.53327(7) 0.54209(7) 0.65972(6)
Co2 Co 0.12312(7) 0.11231(7) 0.65940(6)
N3 N 0.5499(5) 0.4168(5) 0.6687(4)
O1 O 0.1647(4) 0.1085(4) 0.5532(3)
O3 O 0.3866(4) 0.4416(4) 0.5508(3)
O4 O 0.3842(4) 0.4506(4) 0.4188(3)
O6 O 0.0989(4) 0.1390(4) 0.1232(3)
O7 O 0.4631(4) 0.5359(4) 0.7533(3)
O8 O 0.6382(4) 0.6260(4) 0.8196(4)
O9 O 0.2565(6) 0.4622(8) 0.9235(5)
H47 H 0.2676 0.4184 0.8969
O15 O 0.3778(7) 0.0357(6) 0.5463(6)
O16 O 0.7331(7) 0.0675(6) 0.7706(7)
C65 C 0.7669(6) 0.0865(6) 0.0001(6)
H49 H 0.7617 0.1440 0.0005
C66 C 0.6851(5) 0.0000(6) 0.0006(5)
C70 C 0.5903(6) 0.0004(6) 0.0018(5)
Co9 Co 0.46673(7) 0.45791(7) 0.34028(6)
Co16_5 Co 1.0000 0.0000 0.0000
N11 N 0.1162(4) 0.2470(4) 0.6687(4)
N13 N 0.5401(5) 0.6822(5) 0.6625(4)
O38 O 0.6158(4) 0.5494(4) 0.5812(3)
O40 O 0.2826(4) 0.2053(4) 0.7538(3)
O42 O 0.1792(4) 0.1897(4) 0.8226(3)
C57 C 0.3149(5) 0.0000(6) 0.9994(5)
C58 C 0.3021(5) 0.0825(6) 0.9997(5)
H41 H 0.3545 0.1412 0.9998
C59 C 0.2102(6) 0.0767(6) 0.9999(5)
H42 H 0.2022 0.1327 0.9999
C62 C 0.4546(7) 0.0343(7) 0.9408(7)
C63 C 0.4405(9) 0.0899(9) 0.8220(8)
H44 H 0.5147 0.1433 0.8562
H45 H 0.4030 0.1164 0.7909
H46 H 0.4313 0.0297 0.7770
O17 O 0.4015(5) 0.0622(5) 0.8812(5)
C64 C 0.8566(6) 0.0839(6) 0.9989(5)
H48 H 0.9102 0.1402 0.9973
C69 C 0.5418(7) 0.0306(7) 0.9430(7)
H52 H 0.5697 0.0495 0.9028
N6 N 0.8674(4) 0.0050(5) 0.9999(4)
C81 C 0.1787(8) 0.5178(8) 0.4850(8)
H61 H 0.1724 0.5679 0.5271
H62 H 0.2371 0.5137 0.5186
H63 H 0.1911 0.5395 0.4380
H66 H 0.0303 0.6540 0.3265
H67 H 0.0231 0.7984 0.3288
H68 H 0.0459 0.5589 0.4105
O31 O 0.0833(6) 0.4178(5) 0.4427(5)
Co16_6 Co 1.0000 0.0000 1.0000
C1 C 0.1465(6) 0.9648(6) 0.7396(5)
C2 C 0.1419(6) 0.8770(6) 0.7455(5)
H2 H 0.1669 0.8762 0.8029
C3 C 0.0981(6) 0.7876(6) 0.6621(6)
C4 C 0.0618(7) 0.7974(6) 0.5811(5)
H3 H 0.0291 0.7399 0.5241
C5 C 0.0731(6) 0.8896(6) 0.5832(5)
H4 H 0.0500 0.8939 0.5273
C6 C 0.1875(8) 0.7063(7) 0.7269(8)
H5 H 0.2435 0.7741 0.7687
C7 C 0.0970(6) 0.6933(6) 0.6648(6)
C8 C 0.0073(8) 0.5914(7) 0.6145(7)
C10 C 0.1968(6) 0.3320(6) 0.6714(5)
H9 H 0.2559 0.3293 0.6715
C11 C 0.1984(6) 0.4188(6) 0.6739(5)
H10 H 0.2564 0.4725 0.6740
C12 C 0.1140(6) 0.4295(6) 0.6763(5)
C13 C 0.0292(6) 0.3441(6) 0.6736(5)
C14 C 0.0335(6) 0.2565(6) 0.6712(5)
C15 C 0.1093(6) 0.5212(6) 0.6743(6)
C16 C 0.0148(8) 0.5082(7) 0.6215(7)
C17 C 0.1987(8) 0.6229(7) 0.7298(8)
C18 C 0.3777(8) 0.7349(8) 0.8390(10)
H14 H 0.4000 0.7554 0.7949
H15 H 0.4332 0.7346 0.8824
H16 H 0.3628 0.7836 0.8716
C27 C 0.2829(9) 0.9349(9) 0.4833(7)
H22 H 0.3021 0.8858 0.4598
H23 H 0.2419 0.9411 0.4326
H24 H 0.2415 0.9105 0.5155
C28 C 0.4988(6) 0.6875(6) 0.5843(5)
H25 H 0.4645 0.6275 0.5289
C29 C 0.5031(8) 0.7750(7) 0.5795(5)
H26 H 0.4715 0.7735 0.5224
C30 C 0.5553(7) 0.8673(6) 0.6611(5)
C31 C 0.5988(7) 0.8623(6) 0.7419(6)
H27 H 0.6333 0.9209 0.7983
C32 C 0.5918(7) 0.7686(6) 0.7402(5)
H28 H 0.6247 0.7677 0.7958
C33 C 0.5564(8) 0.9609(7) 0.6617(6)
C34 C 0.4648(8) 0.9527(7) 0.6027(7)
H29 H 0.4047 0.8862 0.5634
C55 C 0.1434(6) 0.9161(6) 0.0011(5)
H39 H 0.0898 0.8598 0.0027
C60 C 0.4582(7) 0.9694(7) 0.0570(7)
H43 H 0.4303 0.9505 0.0972
N1 N 0.1160(5) 0.9741(5) 0.6622(4)
N5 N 0.1326(4) 0.9950(5) 0.0001(4)
O2 O 0.0360(4) 0.9697(4) 0.4199(3)
O5 O 0.0279(4) 0.9856(4) 0.1248(3)
O14 O 0.2847(6) 0.6327(5) 0.7917(6)
C66_2 C 0.6851(5) 1.0000(6) 0.0006(5)
C67 C 0.6979(5) 0.9175(6) 0.0003(5)
H50 H 0.6455 0.8588 0.0002
C68 C 0.7898(6) 0.9233(6) 0.0001(5)
H51 H 0.7978 0.8673 0.0001
C71 C 0.5454(7) 0.9657(7) 0.0592(7)
C72 C 0.5595(9) 0.9101(9) 0.1780(8)
H53 H 0.4853 0.8567 0.1438
H54 H 0.5970 0.8836 0.2091
H55 H 0.5687 0.9703 0.2230
O18 O 0.5985(5) 0.9378(5) 0.1188(5)
Co16_7 Co 1.0000 1.0000 0.0000
C56 C 0.2331(6) 0.9135(6) 0.9999(6)
H40 H 0.2383 0.8560 0.9995
C57_2 C 0.3149(5) 1.0000(6) 0.9994(5)
C61 C 0.4097(6) 0.9996(6) 0.9982(5)
Co16_8 Co 1.0000 1.0000 1.0000
O36 O 0.9640(4) 0.0303(4) 0.5801(3)
C73 C 0.8535(6) 0.0352(6) 0.2604(5)
C74 C 0.8581(6) 0.1230(6) 0.2545(5)
H57 H 0.8331 0.1238 0.1971
C75 C 0.9019(6) 0.2124(6) 0.3379(6)
C76 C 0.9382(7) 0.2026(6) 0.4189(5)
H58 H 0.9709 0.2601 0.4759
C77 C 0.9269(6) 0.1104(6) 0.4168(5)
H59 H 0.9500 0.1061 0.4727
C78 C 0.8125(8) 0.2937(7) 0.2731(8)
H60 H 0.7565 0.2259 0.2313
C79 C 0.9030(6) 0.3067(6) 0.3352(6)
C80 C 0.9927(8) 0.4086(7) 0.3855(7)
C82 C 0.8032(6) 0.6680(6) 0.3286(5)
H64 H 0.7441 0.6707 0.3285
C83 C 0.8016(6) 0.5812(6) 0.3261(5)
H65 H 0.7436 0.5275 0.3260
C84 C 0.8860(6) 0.5705(6) 0.3237(5)
C85 C 0.9708(6) 0.6559(6) 0.3264(5)
C86 C 0.9665(6) 0.7435(6) 0.3288(5)
C87 C 0.8907(6) 0.4788(6) 0.3257(6)
C88 C 0.9852(8) 0.4918(7) 0.3785(7)
C89 C 0.8013(8) 0.3771(7) 0.2702(8)
C90 C 0.6223(8) 0.2651(8) 0.1610(10)
H69 H 0.6000 0.2446 0.2051
H70 H 0.5668 0.2654 0.1176
H71 H 0.6372 0.2164 0.1284
C99 C 0.7171(9) 0.0651(9) 0.5167(7)
H77 H 0.6979 0.1142 0.5402
H78 H 0.7581 0.0589 0.5674
H79 H 0.7585 0.0895 0.4845
C100 C 0.5012(6) 0.3125(6) 0.4157(5)
H80 H 0.5355 0.3725 0.4711
C101 C 0.4969(8) 0.2250(7) 0.4205(5)
H81 H 0.5285 0.2265 0.4776
C102 C 0.4447(7) 0.1327(6) 0.3389(5)
C103 C 0.4012(7) 0.1377(6) 0.2581(6)
H82 H 0.3667 0.0791 0.2017
C104 C 0.4082(7) 0.2314(6) 0.2598(5)
H83 H 0.3753 0.2323 0.2042
C105 C 0.4436(8) 0.0391(7) 0.3383(6)
C106 C 0.5352(8) 0.0473(7) 0.3973(7)
H84 H 0.5953 0.1138 0.4366
N7 N 0.8840(5) 0.0259(5) 0.3378(4)
N8 N 0.8838(4) 0.7530(4) 0.3313(4)
N10 N 0.4599(5) 0.3178(5) 0.3375(4)
O23 O 0.9721(4) 0.0144(4) 0.8752(3)
O32 O 0.7153(6) 0.3673(5) 0.2083(6)
C9 C 0.8213(8) 0.4822(8) 0.5150(8)
H6 H 0.8276 0.4321 0.4729
H7 H 0.7629 0.4863 0.4814
H8 H 0.8089 0.4605 0.5620
H11 H 0.9697 0.3460 0.6735
H12 H 0.9769 0.2016 0.6712
H13 H 0.9541 0.4411 0.5895
O13 O 0.9167(6) 0.5822(5) 0.5573(5)
H56 H 0.8266 0.9777 0.2052
C91 C 0.5312(5) 0.6646(6) 0.3306(5)
H72 H 0.5886 0.6595 0.3288
C92 C 0.5328(6) 0.7542(6) 0.3326(5)
H73 H 0.5918 0.8085 0.3345
C93 C 0.4475(7) 0.7646(6) 0.3317(6)
C94 C 0.3587(6) 0.6744(6) 0.3255(6)
H74 H 0.2966 0.6734 0.3201
C95 C 0.3658(6) 0.5898(6) 0.3276(5)
H75 H 0.3086 0.5341 0.3263
C96 C 0.4466(7) 0.8582(6) 0.3358(6)
C97 C 0.3578(9) 0.8524(7) 0.2819(7)
H76 H 0.2973 0.7864 0.2420
C98 C 0.5390(8) 0.9594(7) 0.3987(7)
C107 C 0.3537(9) 0.9402(7) 0.2841(8)
C108 C 0.1666(11) 0.8321(14) 0.1871(13)
H85 H 0.1444 0.8207 0.2341
H86 H 0.1135 0.8327 0.1414
H87 H 0.1759 0.7767 0.1581
C109 C 0.8848(5) 0.9369(5) 0.5341(5)
C110 C 0.8466(5) 0.8753(5) 0.5866(5)
C111 C 0.8938(6) 0.9234(6) 0.6821(5)
H88 H 0.9462 0.9945 0.7142
C112 C 0.8620(5) 0.8643(5) 0.7300(5)
C113 C 0.7879(5) 0.7608(6) 0.6837(5)
H89 H 0.7708 0.7216 0.7169
C114 C 0.7365(5) 0.7116(5) 0.5873(5)
C115 C 0.7691(5) 0.7712(5) 0.5393(5)
H90 H 0.7378 0.7396 0.4748
C116 C 0.6498(6) 0.6003(5) 0.5356(5)
C117 C 0.9163(6) 0.9167(6) 0.8330(5)
C118 C 0.4499(5) 0.4116(5) 0.1763(5)
C119 C 0.4533(6) 0.3907(6) 0.0836(5)
C120 C 0.5508(6) 0.4338(6) 0.0813(5)
H91 H 0.6122 0.4769 0.1370
C121 C 0.5595(6) 0.4150(8) 0.0004(6)
C124 C 0.3612(6) 0.3264(6) 0.0017(5)
H93 H 0.2957 0.2987 0.0035
N9 N 0.4501(5) 0.5832(5) 0.3313(4)
O19 O 0.8353(4) 0.8915(4) 0.4468(3)
O21 O 0.6134(4) 0.5584(4) 0.4492(3)
O24 O 0.9011(4) 0.8610(4) 0.8768(3)
O25 O 0.5369(4) 0.4641(4) 0.2467(3)
O26 O 0.3618(4) 0.3740(4) 0.1804(4)
O27 O 0.7435(6) 0.5378(8) 0.0765(5)
H94 H 0.7324 0.5816 0.1031
O33 O 0.6222(7) 0.9643(6) 0.4537(6)
O34 O 0.2669(7) 0.9325(6) 0.2294(7)
C122 C 0.4656(6) 0.3474(6) 0.9153(5)
H92 H 0.4703 0.3329 0.8592
C123 C 0.3654(6) 0.3025(6) 0.9165(5)
C125 C 0.6607(8) 0.4693(11) 0.9946(8)
C126 C 0.2693(6) 0.2298(5) 0.8245(5)
O28 O 0.6669(6) 0.4546(10) 0.9215(5)
loop_
_geom_bond_atom_site_label_1
_geom_bond_atom_site_label_2
_geom_bond_site_symmetry_1
_geom_bond_site_symmetry_2
H37 C50 1_555 1_555
C51 C50 1_555 1_555
C54 C51 1_555 1_555
O10 C53 1_555 1_555
O11 C54 1_555 1_555
O12 C54 1_555 1_555
Co15 O11 1_555 1_555
O12 Co15 1_555 1_555
C19 H17 1_555 1_555
C20 C19 1_555 1_555
H18 C20 1_555 1_555
C21 C20 1_555 1_555
C22 C21 1_555 1_555
H19 C22 1_555 1_555
C23 C22 1_555 1_555
H20 C23 1_555 1_555
C24 C21 1_555 1_555
C25 C24 1_555 1_555
H21 C25 1_555 1_555
C26 C24 1_555 1_555
C35 C25 1_555 1_555
C36 H30 1_555 1_555
H31 C36 1_555 1_555
H32 C36 1_555 1_555
C37 C38 1_555 1_555
C38 C39 1_555 1_555
C39 H33 1_555 1_555
C40 C39 1_555 1_555
C41 C40 1_555 1_555
H34 C41 1_555 1_555
C42 C41 1_555 1_555
C43 C38 1_555 1_555
H35 C43 1_555 1_555
C44 C42 1_555 1_555
C45 C40 1_555 1_555
C46 C47 1_555 1_555
C47 C48 1_555 1_555
C48 H36 1_555 1_555
C49 C48 1_555 1_555
C52 C47 1_555 1_555
H38 C52 1_555 1_555
Co1 N3 1_555 1_555
N3 C19 1_555 1_555
O1 C37 1_555 1_555
O3 C44 1_555 1_555
O4 C44 1_555 1_555
O6 C45 1_555 1_555
O7 C46 1_555 1_555
O8 C46 1_555 1_555
H47 O9 1_555 1_555
O15 C26 1_555 1_555
O16 C35 1_555 1_555
H49 C65 1_555 1_555
C66 C65 1_555 1_555
C70 C66 1_555 1_555
Co9 O4 1_555 1_555
N11 Co2 1_555 1_555
N13 Co1 1_555 1_555
O38 Co1 1_555 1_555
O40 Co2 1_555 1_555
O42 Co2 1_555 1_555
C23 N3 1_555 1_555
C36 O16 1_555 1_555
C42 C43 1_555 1_555
Co1 O3 1_555 1_555
Co1 O7 1_555 1_555
Co1 O8 1_555 1_555
Co2 O1 1_555 1_555
Co16 O6 1_555 1_555
C58 C57 1_555 1_555
H41 C58 1_555 1_555
C59 C58 1_555 1_555
H42 C59 1_555 1_555
C63 H44 1_555 1_555
H45 C63 1_555 1_555
H46 C63 1_555 1_555
O17 C62 1_555 1_555
C64 H48 1_555 1_555
C69 C62 1_555 1_555
H52 C69 1_555 1_555
N6 C64 1_555 1_555
C81 H61 1_555 1_555
H62 C81 1_555 1_555
H63 C81 1_555 1_555
Co16_6 N6 1_555 1_555
C63 O17 1_555 1_555
C81 O31 1_555 1_555
C2 C1 1_555 1_555
H2 C2 1_555 1_555
C3 C2 1_555 1_555
C4 C3 1_555 1_555
H3 C4 1_555 1_555
C5 C4 1_555 1_555
H4 C5 1_555 1_555
C6 H5 1_555 1_555
C7 C3 1_555 1_555
C8 C7 1_555 1_555
C10 H9 1_555 1_555
C11 C10 1_555 1_555
H10 C11 1_555 1_555
C12 C11 1_555 1_555
C13 C12 1_555 1_555
C14 C13 1_555 1_555
C15 C12 1_555 1_555
C16 C8 1_555 1_555
C17 C6 1_555 1_555
C18 H14 1_555 1_555
H15 C18 1_555 1_555
H16 C18 1_555 1_555
C27 H22 1_555 1_555
H23 C27 1_555 1_555
H24 C27 1_555 1_555
C28 H25 1_555 1_555
C29 C28 1_555 1_555
H26 C29 1_555 1_555
C30 C29 1_555 1_555
C31 C30 1_555 1_555
H27 C31 1_555 1_555
C32 C31 1_555 1_555
H28 C32 1_555 1_555
C33 C30 1_555 1_555
H29 C34 1_555 1_555
C55 H39 1_555 1_555
C60 H43 1_555 1_555
Co16_3 N5 1_555 1_555
N1 C1 1_555 1_555
N11 C10 1_555 1_555
N13 C28 1_555 1_555
N5 C55 1_555 1_555
O14 C17 1_555 1_555
C67 C66_2 1_555 1_555
H50 C67 1_555 1_555
C68 C67 1_555 1_555
H51 C68 1_555 1_555
C71 C60 1_555 1_555
C72 H53 1_555 1_555
H54 C72 1_555 1_555
H55 C72 1_555 1_555
O18 C71 1_555 1_555
C5 N1 1_555 1_555
C6 C7 1_555 1_555
C14 N11 1_555 1_555
C15 C16 1_555 1_555
C15 C17 1_555 1_555
C18 O14 1_555 1_555
C32 N13 1_555 1_555
C33 C34 1_555 1_555
Co16_3 O5 1_555 1_555
C72 O18 1_555 1_555
H40 C56 1_555 1_555
C57_2 C56 1_555 1_555
C61 C57_2 1_555 1_555
C74 C73 1_555 1_555
H57 C74 1_555 1_555
C75 C74 1_555 1_555
C76 C75 1_555 1_555
H58 C76 1_555 1_555
C77 C76 1_555 1_555
H59 C77 1_555 1_555
C78 H60 1_555 1_555
C79 C75 1_555 1_555
C80 C79 1_555 1_555
C82 H64 1_555 1_555
C83 C82 1_555 1_555
H65 C83 1_555 1_555
C84 C83 1_555 1_555
C85 C84 1_555 1_555
C86 C85 1_555 1_555
C87 C84 1_555 1_555
C88 C80 1_555 1_555
C89 C78 1_555 1_555
C90 H69 1_555 1_555
H70 C90 1_555 1_555
H71 C90 1_555 1_555
C99 H77 1_555 1_555
H78 C99 1_555 1_555
H79 C99 1_555 1_555
C100 H80 1_555 1_555
C101 C100 1_555 1_555
H81 C101 1_555 1_555
C102 C101 1_555 1_555
C103 C102 1_555 1_555
H82 C103 1_555 1_555
C104 C103 1_555 1_555
H83 C104 1_555 1_555
C105 C102 1_555 1_555
H84 C106 1_555 1_555
N7 C73 1_555 1_555
N8 C82 1_555 1_555
N10 C100 1_555 1_555
O23 Co16_6 1_555 1_555
O32 C89 1_555 1_555
Co9 N10 1_555 1_555
Co15 N8 1_555 1_555
C77 N7 1_555 1_555
C78 C79 1_555 1_555
C86 N8 1_555 1_555
C87 C88 1_555 1_555
C87 C89 1_555 1_555
C90 O32 1_555 1_555
C104 N10 1_555 1_555
C105 C106 1_555 1_555
C9 H6 1_555 1_555
H7 C9 1_555 1_555
H8 C9 1_555 1_555
C9 O13 1_555 1_555
C91 H72 1_555 1_555
C92 C91 1_555 1_555
H73 C92 1_555 1_555
C93 C92 1_555 1_555
C94 C93 1_555 1_555
H74 C94 1_555 1_555
C95 C94 1_555 1_555
H75 C95 1_555 1_555
C96 C93 1_555 1_555
C97 C96 1_555 1_555
H76 C97 1_555 1_555
C98 C96 1_555 1_555
C107 C97 1_555 1_555
C108 H85 1_555 1_555
H86 C108 1_555 1_555
H87 C108 1_555 1_555
C109 C110 1_555 1_555
C110 C111 1_555 1_555
C111 H88 1_555 1_555
C112 C111 1_555 1_555
C113 C112 1_555 1_555
H89 C113 1_555 1_555
C114 C113 1_555 1_555
C115 C110 1_555 1_555
H90 C115 1_555 1_555
C116 C114 1_555 1_555
C117 C112 1_555 1_555
C118 C119 1_555 1_555
C119 C120 1_555 1_555
C120 H91 1_555 1_555
C121 C120 1_555 1_555
C124 C119 1_555 1_555
H93 C124 1_555 1_555
Co9 N9 1_555 1_555
N9 C91 1_555 1_555
O19 C109 1_555 1_555
O21 C116 1_555 1_555
O38 C116 1_555 1_555
O24 Co16_8 1_555 1_555
O25 C118 1_555 1_555
O26 C118 1_555 1_555
H94 O27 1_555 1_555
O33 C98 1_555 1_555
O34 C107 1_555 1_555
C95 N9 1_555 1_555
C108 O34 1_555 1_555
C114 C115 1_555 1_555
C117 O24 1_555 1_555
Co9 O21 1_555 1_555
Co9 O25 1_555 1_555
Co9 O26 1_555 1_555
Co15 O19 1_555 1_555
H92 C122 1_555 1_555
C123 C122 1_555 1_555
C126 C123 1_555 1_555
O28 C125 1_555 1_555
O40 C126 1_555 1_555
O42 C126 1_555 1_555

#END
