
###############################################################################
#
# This file contains modified crystal structure data generated from the
# MOF subset of the Cambridge Structural Database (CSD) v543 
# hosted by the Cambridge Crystallographic Data Centre (CCDC).
#
# This work is licensed under the Creative Commons
# Attribution-NonCommercial-ShareAlike 4.0 International License.
# To view a copy of this license, visit
# http://creativecommons.org/licenses/by-nc-sa/4.0/
# or send a letter to
# Creative Commons, PO Box 1866, Mountain View, CA 94042, USA.
#
# CIF created using the CSD Python API on 29 September 2022
# The structure has been converted into the P1 space group
# The structure has a 3D framework
# The original CSD entry PEQREL01 is in the triclinic crystal system
# The framework has been calculated to contain at least 10.0% void space
# The void calculation uses a probe of radius 1.32A, grid spacing 0.4
#
###############################################################################

data_PEQREL01
_chemical_formula_moiety         '(C128 H96 Co6 N10 O34)n'
_symmetry_cell_setting           triclinic
_symmetry_space_group_name_H-M   'P 1'
_symmetry_Int_Tables_number      1
_space_group_name_Hall           'P 1'
loop_
_symmetry_equiv_pos_site_id
_symmetry_equiv_pos_as_xyz
1 x,y,z
_cell_length_a                   15.457(4)
_cell_length_b                   15.611(4)
_cell_length_c                   16.586(5)
_cell_angle_alpha                104.842(4)
_cell_angle_beta                 105.855(4)
_cell_angle_gamma                115.012(4)
_cell_volume                     3155.9
loop_
_atom_site_label
_atom_site_type_symbol
_atom_site_fract_x
_atom_site_fract_y
_atom_site_fract_z
Co3 Co 0.5000 0.5000 0.0000
N1 N 0.3669(4) 0.5049(4) 0.0004(3)
C8 C 0.2892(5) 0.4231(5) 0.0012(4)
H5 H 0.2972 0.3675 0.0020
C10 C 0.1855(5) 0.5007(5) 0.0019(4)
C15 C 0.2681(5) 0.5860(5) 0.0011(5)
H10 H 0.2633 0.6435 0.0014
C17 C 0.3548(5) 0.5837(5) 0.0000(4)
C20 C 0.1987(5) 0.4180(5) 0.0009(4)
H13 H 0.1459 0.3591 0.0000
O14 O 0.0989(4) 0.4388(4) 0.1181(3)
C37 C 0.0908(5) 0.4989(5) 0.0011(4)
C47 C 0.0453(5) 0.4665(5) 0.0602(4)
C57 C 0.0602(7) 0.4109(7) 0.1810(5)
H33 H 0.0688 0.4710 0.2251
H34 H 0.0990 0.3860 0.2128
O39 O 0.5993(3) 0.6390(3) 0.1219(3)
O40 O 0.5292(3) 0.4858(3) 0.1250(3)
O3 O 0.4634(3) 0.5301(3) 0.5794(3)
O4 O 0.1160(3) 0.0501(3) 0.5824(3)
Co1 Co 0.37730(6) 0.38853(5) 0.34045(5)
Co3_2 Co 0.5000 0.5000 1.0000
O5 O 0.1139(3) 0.0593(3) 0.4502(3)
O6 O 0.3349(3) 0.3909(3) 0.4468(2)
O7 O 0.4007(3) 0.3610(3) 0.8781(3)
O8 O 0.4708(3) 0.5142(3) 0.8750(3)
O9 O 0.2168(4) 0.2950(3) 0.2465(3)
N3 N 0.3840(4) 0.2529(4) 0.3307(3)
O10 O 0.3212(3) 0.3120(3) 0.1766(3)
C3 C 0.3039(5) 0.1703(4) 0.3280(4)
H2 H 0.2458 0.1743 0.3288
C5 C 0.0322(5) 0.1661(4) 0.3323(4)
H3 H 0.0903 0.1619 0.3319
C6 C 0.1322(5) 0.1970(4) 0.0831(4)
C11 C 0.4654(5) 0.2436(5) 0.3287(4)
H7 H 0.5226 0.2997 0.3307
C14 C 0.2849(5) 0.2587(4) 0.6833(4)
H9 H 0.2664 0.2194 0.7162
C17_2 C 0.3548(5) 0.5837(5) 1.0000(4)
H11 H 0.4082 0.6404 0.9988
C19 C 0.3839(5) 0.4362(4) 0.5336(4)
H13_2 H 0.1459 0.3591 1.0000
C21 C 0.2365(4) 0.2118(4) 0.5881(4)
C23 C 0.2305(5) 0.2716(4) 0.1734(4)
C24 C 0.3615(5) 0.3651(4) 0.7305(4)
C25 C 0.4706(5) 0.1565(5) 0.3238(4)
H15 H 0.5288 0.1541 0.3208
C27 C 0.3462(5) 0.3758(4) 0.5864(4)
C28 C 0.1488(5) 0.0985(4) 0.5354(4)
O13 O 0.1247(5) 0.4651(4) 0.4558(4)
H17 H 0.0274 0.7253 0.4766
C32 C 0.2683(5) 0.2701(4) 0.5388(4)
H18 H 0.2373 0.2381 0.4744
C34 C 0.3874(5) 0.0719(5) 0.3234(4)
C36 C 0.3005(5) 0.0799(5) 0.3242(4)
H19 H 0.2419 0.0253 0.3222
C39 C 0.0039(5) 0.8135(5) 0.4177(4)
H20 H 0.0390 0.8728 0.4733
C41 C 0.0339(5) 0.2548(5) 0.3349(4)
H21 H 0.0933 0.3096 0.3379
C46 C 0.3920(5) 0.4240(5) 0.6824(4)
H25 H 0.4428 0.4951 0.7142
H26 H 0.5465 0.0587 0.4124
C52 C 0.0388(6) 0.4601(5) 0.3988(4)
C53 C 0.0361(6) 0.5472(5) 0.3982(4)
H29 H 0.0962 0.6132 0.4377
C54 C 0.0411(5) 0.5316(5) 0.9422(4)
H30 H 0.0696 0.5529 0.9032
C56 C 0.0343(6) 0.1523(5) 0.0838(4)
H32 H 0.0298 0.1685 0.1399
C58 C 0.6767(6) 0.0161(6) 0.4851(6)
H36 H 0.6883 0.0411 0.4395
H37 H 0.7351 0.0104 0.5158
H38 H 0.6713 0.0642 0.5297
C59 C 0.2164(8) 0.5645(7) 0.5156(6)
H39 H 0.2421 0.5994 0.4797
H40 H 0.2701 0.5569 0.5526
H41 H 0.1996 0.6051 0.5554
C63 C 0.4143(4) 0.4168(4) 0.8330(4)
H55 H 0.0137 0.6431 0.8522
O33 O 0.2418(5) 0.0367(6) 0.0746(4)
H74 H 0.2214 0.0367 0.1153
O36 O 0.5366(3) 0.4699(3) 0.4206(3)
Co9 Co 0.62270(6) 0.61147(5) 0.65955(5)
Co13 Co 0.03278(6) 0.04139(5) 0.65983(5)
N11 N 0.6331(4) 0.4951(4) 0.9996(3)
N12 N 0.3861(4) 0.5268(4) 0.3374(3)
O2 O 0.1365(3) 0.1241(3) 0.8177(3)
C1 C 0.0502(5) 0.0876(4) 0.8243(4)
C4 C 0.0464(5) 0.1085(4) 0.9152(4)
C9 C 0.1397(5) 0.1747(4) 0.9994(4)
H6 H 0.2058 0.2032 0.9988
N15 N 0.0392(4) 0.1808(4) 0.6626(3)
O11 O 0.5833(4) 0.9186(4) 0.4420(3)
C13 C 0.4299(5) 0.6123(4) 0.4169(4)
H8 H 0.4545 0.6084 0.4729
C16 C 0.4028(5) 0.7130(4) 0.3365(4)
C18 C 0.3523(5) 0.5361(5) 0.2592(4)
H12 H 0.3212 0.4782 0.2034
C30 C 0.3604(6) 0.6257(5) 0.2557(5)
H16 H 0.3373 0.6279 0.1987
O15 O 0.2140(4) 0.8664(4) 0.2095(4)
C33 C 0.3032(6) 0.8774(5) 0.2689(5)
C35 C 0.3904(5) 0.9789(5) 0.3239(4)
C40 C 0.4922(6) 0.9086(5) 0.3868(5)
C43 C 0.4400(5) 0.7059(4) 0.4190(4)
H22 H 0.4713 0.7631 0.4754
C44 C 0.4042(5) 0.8067(5) 0.3331(4)
C48 C 0.4859(5) 0.9920(5) 0.3796(4)
C51 C 0.3106(6) 0.7939(5) 0.2745(5)
H28 H 0.2513 0.7267 0.2381
C60 C 0.1212(7) 0.7650(6) 0.1586(7)
H42 H 0.1337 0.7208 0.1176
H43 H 0.0637 0.7691 0.1231
H44 H 0.1033 0.7365 0.2007
O19 O 0.0371(3) 0.9662(3) 0.2480(3)
C115 C 0.0507(5) 0.9355(5) 0.0813(4)
H78 H 0.1126 0.9787 0.1363
N7 N 0.0484(4) 0.9149(4) 0.6695(3)
C74 C 0.0904(5) 0.2679(5) 0.7401(4)
H56 H 0.1222 0.2664 0.7956
C79 C 0.1334(5) 0.9086(5) 0.6727(4)
H59 H 0.1914 0.9645 0.6754
C82 C 0.0577(5) 0.9168(6) 0.9981(5)
C89 C 0.0992(5) 0.3600(5) 0.7430(4)
H65 H 0.1361 0.4187 0.7993
C93 C 0.0522(5) 0.3649(5) 0.6609(4)
O30 O 0.2339(5) 0.5671(4) 0.7715(5)
C96 C 0.0519(5) 0.7357(5) 0.6670(4)
C98 C 0.0023(6) 0.2745(5) 0.5802(4)
C104 C 0.0543(6) 0.4612(5) 0.6601(4)
C108 C 0.0518(6) 0.6405(5) 0.6619(4)
C111 C 0.1369(6) 0.8216(5) 0.6722(4)
H75 H 0.1974 0.8205 0.6754
C114 C 0.1447(6) 0.5594(5) 0.7171(5)
C119 C 0.1430(6) 0.6476(5) 0.7164(5)
H81 H 0.2046 0.7131 0.7533
O34 O 0.1682(6) 0.9613(7) 0.9229(5)
C124 C 0.1619(7) 0.9732(9) 0.9948(5)
C125 C 0.3337(9) 0.6622(8) 0.8099(9)
H92 H 0.3346 0.7165 0.8541
H93 H 0.3893 0.6528 0.8402
H94 H 0.3444 0.6814 0.7613
H35 H 0.9863 0.3569 0.1478
C67 C 0.6452(5) 0.4163(5) 0.0000(4)
H50 H 0.5918 0.3596 0.0012
H51 H 0.8541 0.6409 0.0000
C71 C 0.9589(5) 0.4684(5) 0.0578(4)
H52 H 0.9304 0.4471 0.0968
N2 N 0.9516(4) 0.0851(4) 0.3305(3)
N5 N 0.9608(4) 0.8192(4) 0.3374(3)
C2 C 0.9096(5) 0.7321(5) 0.2599(4)
H1 H 0.8778 0.7336 0.2044
C7 C 0.8666(5) 0.0914(5) 0.3273(4)
H4 H 0.8086 0.0355 0.3246
C12 C 0.9423(5) 0.0832(6) 0.0019(5)
C22 C 0.9008(5) 0.6400(5) 0.2570(4)
H14 H 0.8639 0.5813 0.2007
C26 C 0.9478(5) 0.6351(5) 0.3391(4)
O12 O 0.7661(5) 0.4329(4) 0.2285(5)
C29 C 0.9481(5) 0.2643(5) 0.3330(4)
C31 C 0.9977(6) 0.7255(5) 0.4198(4)
C38 C 0.9457(6) 0.5388(5) 0.3399(4)
C42 C 0.9482(6) 0.3595(5) 0.3381(4)
C45 C 0.8631(6) 0.1784(5) 0.3278(4)
H24 H 0.8026 0.1795 0.3246
C49 C 0.8553(6) 0.4406(5) 0.2829(5)
C55 C 0.8570(6) 0.3524(5) 0.2836(5)
H31 H 0.7954 0.2869 0.2467
O17 O 0.8318(6) 0.0387(7) 0.0771(5)
C61 C 0.8381(7) 0.0268(9) 0.0052(5)
C62 C 0.6663(9) 0.3378(8) 0.1901(9)
H45 H 0.6654 0.2835 0.1459
H46 H 0.6107 0.3472 0.1598
H47 H 0.6556 0.3186 0.2387
C64 C 0.7108(5) 0.5769(5) 0.9988(4)
H48 H 0.7028 0.6325 0.9980
C65 C 0.8145(5) 0.4993(5) 0.9981(4)
C66 C 0.7319(5) 0.4140(5) 0.9989(5)
H49 H 0.7367 0.3565 0.9986
C67_2 C 0.6452(5) 0.4163(5) 1.0000(4)
C68 C 0.8013(5) 0.5820(5) 0.9991(4)
H51_2 H 0.8541 0.6409 1.0000
O18 O 0.9011(4) 0.5612(4) 0.8819(3)
C69 C 0.9092(5) 0.5011(5) 0.9989(4)
C70 C 0.9547(5) 0.5335(5) 0.9398(4)
C72 C 0.9398(7) 0.5891(7) 0.8190(5)
H53 H 0.9312 0.5290 0.7749
H54 H 0.9010 0.6140 0.7872
Co11 Co 0.96722(6) 0.95861(5) 0.34017(5)
O1 O 0.9629(3) 0.0338(3) 0.7520(3)
C50 C 0.9493(5) 0.0645(5) 0.9187(4)
H27 H 0.8874 0.0213 0.8637
N9 N 0.6139(4) 0.4732(4) 0.6626(3)
O29 O 0.4167(4) 0.0814(4) 0.5580(3)
C83 C 0.5701(5) 0.3877(4) 0.5831(4)
H62 H 0.5455 0.3916 0.5271
C85 C 0.5972(5) 0.2870(4) 0.6635(4)
C86 C 0.6477(5) 0.4639(5) 0.7408(4)
H64 H 0.6788 0.5218 0.7966
C97 C 0.6396(6) 0.3743(5) 0.7443(5)
H67 H 0.6627 0.3721 0.8013
O32 O 0.7860(4) 0.1336(4) 0.7905(4)
C100 C 0.6968(6) 0.1226(5) 0.7311(5)
C102 C 0.6096(5) 0.0211(5) 0.6761(4)
C106 C 0.5078(6) 0.0914(5) 0.6132(5)
C109 C 0.5600(5) 0.2941(4) 0.5810(4)
H73 H 0.5287 0.2369 0.5246
C110 C 0.5958(5) 0.1933(5) 0.6669(4)
C113 C 0.5141(5) 0.0080(5) 0.6204(4)
C116 C 0.6894(6) 0.2061(5) 0.7255(5)
H79 H 0.7487 0.2733 0.7619
C123 C 0.8788(7) 0.2350(6) 0.8414(7)
H89 H 0.8663 0.2792 0.8824
H90 H 0.9363 0.2309 0.8769
H91 H 0.8967 0.2635 0.7993
O20 O 0.8635(3) 0.8759(3) 0.1823(3)
C73 C 0.9498(5) 0.9124(4) 0.1757(4)
C76 C 0.9536(5) 0.8915(4) 0.0848(4)
C80 C 0.8603(5) 0.8253(4) 0.0006(4)
H60 H 0.7942 0.7968 0.0012
O38 O 0.8840(3) 0.9499(3) 0.4176(3)
O16 O 0.7582(5) 0.9633(6) 0.9254(4)
H23 H 0.7786 0.9633 0.8847
O23 O 0.8861(3) 0.9407(3) 0.5498(3)
O24 O 0.6651(3) 0.6091(3) 0.5532(2)
O27 O 0.7832(4) 0.7050(3) 0.7535(3)
N8 N 0.6160(4) 0.7471(4) 0.6693(3)
O28 O 0.6788(3) 0.6880(3) 0.8234(3)
C75 C 0.6961(5) 0.8297(4) 0.6720(4)
H57 H 0.7542 0.8257 0.6712
C77 C 0.9678(5) 0.8339(4) 0.6677(4)
H58 H 0.9097 0.8381 0.6681
C78 C 0.8678(5) 0.8030(4) 0.9169(4)
C81 C 0.5346(5) 0.7564(5) 0.6713(4)
H61 H 0.4774 0.7003 0.6693
C84 C 0.7151(5) 0.7413(4) 0.3167(4)
H63 H 0.7336 0.7806 0.2838
C87 C 0.6161(5) 0.5638(4) 0.4664(4)
C88 C 0.7635(4) 0.7882(4) 0.4119(4)
C90 C 0.7695(5) 0.7284(4) 0.8266(4)
C91 C 0.6385(5) 0.6349(4) 0.2695(4)
C92 C 0.5294(5) 0.8435(5) 0.6762(4)
H66 H 0.4712 0.8459 0.6792
C94 C 0.6538(5) 0.6242(4) 0.4136(4)
C95 C 0.8512(5) 0.9015(4) 0.4646(4)
O31 O 0.8753(5) 0.5349(4) 0.5442(4)
H68 H 0.9726 0.2747 0.5234
C99 C 0.7317(5) 0.7299(4) 0.4612(4)
H69 H 0.7627 0.7619 0.5256
C101 C 0.6126(5) 0.9281(5) 0.6766(4)
C103 C 0.6995(5) 0.9201(5) 0.6758(4)
H70 H 0.7581 0.9747 0.6778
C105 C 0.9961(5) 0.1865(5) 0.5823(4)
H71 H 0.9610 0.1272 0.5267
C107 C 0.9661(5) 0.7452(5) 0.6651(4)
H72 H 0.9067 0.6904 0.6621
C112 C 0.6080(5) 0.5760(5) 0.3176(4)
H76 H 0.5572 0.5049 0.2858
H77 H 0.4535 0.9413 0.5876
C117 C 0.9612(6) 0.5399(5) 0.6012(4)
C118 C 0.9639(6) 0.4528(5) 0.6018(4)
H80 H 0.9038 0.3868 0.5623
C120 C 0.9657(6) 0.8477(5) 0.9162(4)
H82 H 0.9702 0.8315 0.8601
C121 C 0.3233(6) 0.9839(6) 0.5149(6)
H83 H 0.3117 0.9589 0.5605
H84 H 0.2649 0.9896 0.4842
H85 H 0.3287 0.9358 0.4703
C122 C 0.7836(8) 0.4355(7) 0.4844(6)
H86 H 0.7579 0.4006 0.5203
H87 H 0.7299 0.4431 0.4474
H88 H 0.8004 0.3949 0.4446
C126 C 0.5857(4) 0.5832(4) 0.1670(4)
loop_
_geom_bond_atom_site_label_1
_geom_bond_atom_site_label_2
_geom_bond_site_symmetry_1
_geom_bond_site_symmetry_2
N1 Co3 1_555 1_555
C8 N1 1_555 1_555
H5 C8 1_555 1_555
C10 C15 1_555 1_555
C15 H10 1_555 1_555
C17 N1 1_555 1_555
C20 C8 1_555 1_555
H13 C20 1_555 1_555
O14 C47 1_555 1_555
C37 C10 1_555 1_555
C47 C37 1_555 1_555
C57 O14 1_555 1_555
H33 C57 1_555 1_555
H34 C57 1_555 1_555
O39 Co3 1_555 1_555
O40 Co3 1_555 1_555
C10 C20 1_555 1_555
C15 C17 1_555 1_555
O3 C19 1_555 1_555
O4 C28 1_555 1_555
Co1 O6 1_555 1_555
Co3_2 O7 1_555 1_555
O5 C28 1_555 1_555
O6 C19 1_555 1_555
O7 C63 1_555 1_555
O8 Co3_2 1_555 1_555
O9 Co1 1_555 1_555
N3 Co1 1_555 1_555
O10 Co1 1_555 1_555
C3 N3 1_555 1_555
H2 C3 1_555 1_555
H3 C5 1_555 1_555
C11 N3 1_555 1_555
H7 C11 1_555 1_555
C14 H9 1_555 1_555
H11 C17_2 1_555 1_555
C19 C27 1_555 1_555
C21 C14 1_555 1_555
C23 O9 1_555 1_555
C24 C14 1_555 1_555
C25 C11 1_555 1_555
H15 C25 1_555 1_555
C27 C32 1_555 1_555
C28 C21 1_555 1_555
O13 C52 1_555 1_555
C32 C21 1_555 1_555
H18 C32 1_555 1_555
C34 C25 1_555 1_555
C36 C3 1_555 1_555
H19 C36 1_555 1_555
H20 C39 1_555 1_555
C41 C5 1_555 1_555
H21 C41 1_555 1_555
C46 C24 1_555 1_555
H25 C46 1_555 1_555
H29 C53 1_555 1_555
H30 C54 1_555 1_555
C56 C6 1_555 1_555
H32 C56 1_555 1_555
H36 C58 1_555 1_555
H37 C58 1_555 1_555
H38 C58 1_555 1_555
C59 O13 1_555 1_555
H39 C59 1_555 1_555
H40 C59 1_555 1_555
H41 C59 1_555 1_555
C63 O8 1_555 1_555
O33 H74 1_555 1_555
O36 Co1 1_555 1_555
Co9 O3 1_555 1_555
Co13 O4 1_555 1_555
N11 Co3_2 1_555 1_555
N12 Co1 1_555 1_555
O10 C23 1_555 1_555
C6 C23 1_555 1_555
C24 C63 1_555 1_555
C27 C46 1_555 1_555
C34 C36 1_555 1_555
C52 C53 1_555 1_555
O2 C1 1_555 1_555
C1 C4 1_555 1_555
C4 C9 1_555 1_555
C9 H6 1_555 1_555
N15 Co13 1_555 1_555
O2 Co13 1_555 1_555
N12 C13 1_555 1_555
O11 C40 1_555 1_555
C13 H8 1_555 1_555
C16 C30 1_555 1_555
C18 N12 1_555 1_555
H12 C18 1_555 1_555
C30 C18 1_555 1_555
H16 C30 1_555 1_555
O15 C33 1_555 1_555
C33 C35 1_555 1_555
C40 C44 1_555 1_555
C43 C13 1_555 1_555
H22 C43 1_555 1_555
C44 C16 1_555 1_555
C48 C35 1_555 1_555
C51 C33 1_555 1_555
H28 C51 1_555 1_555
C60 O15 1_555 1_555
H42 C60 1_555 1_555
H43 C60 1_555 1_555
H44 C60 1_555 1_555
H78 C115 1_555 1_555
C16 C43 1_555 1_555
C40 C48 1_555 1_555
C44 C51 1_555 1_555
N15 C74 1_555 1_555
C74 H56 1_555 1_555
C79 N7 1_555 1_555
H59 C79 1_555 1_555
C89 C74 1_555 1_555
H65 C89 1_555 1_555
C93 C89 1_555 1_555
O30 C114 1_555 1_555
C98 C93 1_555 1_555
C104 C93 1_555 1_555
C108 C96 1_555 1_555
C111 C79 1_555 1_555
H75 C111 1_555 1_555
C114 C104 1_555 1_555
C119 C108 1_555 1_555
H81 C119 1_555 1_555
O34 C124 1_555 1_555
C124 C82 1_555 1_555
C125 O30 1_555 1_555
H92 C125 1_555 1_555
H93 C125 1_555 1_555
H94 C125 1_555 1_555
C96 C111 1_555 1_555
C114 C119 1_555 1_555
H50 C67 1_555 1_555
H52 C71 1_555 1_555
N5 C2 1_555 1_555
C2 H1 1_555 1_555
C7 N2 1_555 1_555
H4 C7 1_555 1_555
C22 C2 1_555 1_555
H14 C22 1_555 1_555
C26 C22 1_555 1_555
O12 C49 1_555 1_555
C31 C26 1_555 1_555
C38 C26 1_555 1_555
C42 C29 1_555 1_555
C45 C7 1_555 1_555
H24 C45 1_555 1_555
C49 C38 1_555 1_555
C55 C42 1_555 1_555
H31 C55 1_555 1_555
O17 C61 1_555 1_555
C61 C12 1_555 1_555
C62 O12 1_555 1_555
H45 C62 1_555 1_555
H46 C62 1_555 1_555
H47 C62 1_555 1_555
N11 C64 1_555 1_555
C64 H48 1_555 1_555
C65 C66 1_555 1_555
C66 H49 1_555 1_555
C67_2 N11 1_555 1_555
C68 C64 1_555 1_555
H51_2 C68 1_555 1_555
O18 C70 1_555 1_555
C69 C65 1_555 1_555
C72 O18 1_555 1_555
H53 C72 1_555 1_555
H54 C72 1_555 1_555
Co11 N5 1_555 1_555
C29 C45 1_555 1_555
C49 C55 1_555 1_555
C65 C68 1_555 1_555
C66 C67_2 1_555 1_555
C69 C70 1_555 1_555
H27 C50 1_555 1_555
N9 C83 1_555 1_555
O29 C106 1_555 1_555
C83 H62 1_555 1_555
C85 C97 1_555 1_555
C86 N9 1_555 1_555
H64 C86 1_555 1_555
C97 C86 1_555 1_555
H67 C97 1_555 1_555
O32 C100 1_555 1_555
C100 C102 1_555 1_555
C106 C110 1_555 1_555
C109 C83 1_555 1_555
H73 C109 1_555 1_555
C110 C85 1_555 1_555
C113 C102 1_555 1_555
C116 C100 1_555 1_555
H79 C116 1_555 1_555
C123 O32 1_555 1_555
H89 C123 1_555 1_555
H90 C123 1_555 1_555
H91 C123 1_555 1_555
Co9 N9 1_555 1_555
C85 C109 1_555 1_555
C106 C113 1_555 1_555
C110 C116 1_555 1_555
O20 Co11 1_555 1_555
C76 C73 1_555 1_555
C80 C76 1_555 1_555
H60 C80 1_555 1_555
O38 Co11 1_555 1_555
O20 C73 1_555 1_555
O16 H23 1_555 1_555
O36 C87 1_555 1_555
O38 C95 1_555 1_555
Co9 O24 1_555 1_555
O24 C87 1_555 1_555
O39 C126 1_555 1_555
O40 C126 1_555 1_555
O27 Co9 1_555 1_555
N8 Co9 1_555 1_555
O28 Co9 1_555 1_555
C75 N8 1_555 1_555
H57 C75 1_555 1_555
H58 C77 1_555 1_555
C81 N8 1_555 1_555
H61 C81 1_555 1_555
C84 H63 1_555 1_555
C87 C94 1_555 1_555
C88 C84 1_555 1_555
C90 O27 1_555 1_555
C91 C84 1_555 1_555
C92 C81 1_555 1_555
H66 C92 1_555 1_555
C94 C99 1_555 1_555
C95 O23 1_555 1_555
O31 C117 1_555 1_555
C99 C88 1_555 1_555
H69 C99 1_555 1_555
C101 C92 1_555 1_555
C103 C75 1_555 1_555
H70 C103 1_555 1_555
H71 C105 1_555 1_555
C107 C77 1_555 1_555
H72 C107 1_555 1_555
C112 C91 1_555 1_555
H76 C112 1_555 1_555
H80 C118 1_555 1_555
C120 C78 1_555 1_555
H82 C120 1_555 1_555
H83 C121 1_555 1_555
H84 C121 1_555 1_555
H85 C121 1_555 1_555
C122 O31 1_555 1_555
H86 C122 1_555 1_555
H87 C122 1_555 1_555
H88 C122 1_555 1_555
C126 C91 1_555 1_555
O28 C90 1_555 1_555
C78 C90 1_555 1_555
C88 C95 1_555 1_555
C94 C112 1_555 1_555
C101 C103 1_555 1_555
C117 C118 1_555 1_555

#END
