
###############################################################################
#
# This file contains modified crystal structure data generated from the
# MOF subset of the Cambridge Structural Database (CSD) v543 
# hosted by the Cambridge Crystallographic Data Centre (CCDC).
#
# This work is licensed under the Creative Commons
# Attribution-NonCommercial-ShareAlike 4.0 International License.
# To view a copy of this license, visit
# http://creativecommons.org/licenses/by-nc-sa/4.0/
# or send a letter to
# Creative Commons, PO Box 1866, Mountain View, CA 94042, USA.
#
# CIF created using the CSD Python API on 29 September 2022
# The structure has been converted into the P1 space group
# The structure has a 3D framework
# The original CSD entry PEQREL02 is in the triclinic crystal system
# The framework has been calculated to contain at least 10.0% void space
# The void calculation uses a probe of radius 1.32A, grid spacing 0.4
#
###############################################################################

data_PEQREL02
_chemical_formula_moiety         '(C126 H94 Co5 N10 O34)n'
_symmetry_cell_setting           triclinic
_symmetry_space_group_name_H-M   'P 1'
_symmetry_Int_Tables_number      1
_space_group_name_Hall           'P 1'
loop_
_symmetry_equiv_pos_site_id
_symmetry_equiv_pos_as_xyz
1 x,y,z
_cell_length_a                   15.4859(13)
_cell_length_b                   15.6325(13)
_cell_length_c                   16.6017(14)
_cell_angle_alpha                104.5960(10)
_cell_angle_beta                 106.0480(10)
_cell_angle_gamma                115.0190(10)
_cell_volume                     3170.4
loop_
_atom_site_label
_atom_site_type_symbol
_atom_site_fract_x
_atom_site_fract_y
_atom_site_fract_z
Co8 Co 0.03248(4) 0.04104(4) 0.65994(3)
C3 C 0.0510(3) 0.3649(3) 0.6606(3)
C4 C 0.0983(4) 0.3596(3) 0.7430(3)
H3 H 0.1352 0.4180 0.7992
C5 C 0.0895(4) 0.2673(3) 0.7399(3)
H4 H 0.1210 0.2654 0.7954
C6 C 0.0537(4) 0.4605(3) 0.6599(3)
C8 C 0.1456(4) 0.5603(3) 0.7176(3)
C9 C 0.3338(5) 0.6608(5) 0.8080(5)
H6 H 0.3408 0.6848 0.7609
H7 H 0.3896 0.6489 0.8315
H8 H 0.3382 0.7126 0.8574
C11 C 0.1326(3) 0.9082(3) 0.6724(3)
H10 H 0.1907 0.9645 0.6756
C12 C 0.1369(4) 0.8216(3) 0.6710(3)
H11 H 0.1970 0.8202 0.6734
C14 C 0.0502(4) 0.7352(3) 0.6661(3)
C15 C 0.0515(4) 0.6405(3) 0.6615(3)
C16 C 0.1429(4) 0.6469(3) 0.7163(3)
H13 H 0.2043 0.7123 0.7533
N1 N 0.0384(3) 0.1801(2) 0.6618(2)
N2 N 0.0482(3) 0.9150(2) 0.6693(2)
O13 O 0.2339(3) 0.5661(3) 0.7695(3)
O36 O 0.1162(2) 0.05032(19) 0.58262(18)
O42 O 0.1358(2) 0.1235(2) 0.81753(19)
C1 C 0.9953(3) 0.1856(3) 0.5829(3)
H1 H 0.9606 0.1264 0.5277
C2 C 0.9996(3) 0.2747(3) 0.5791(3)
H2 H 0.9684 0.2744 0.5224
C7 C 0.9634(4) 0.4521(3) 0.6013(3)
H5 H 0.9036 0.3864 0.5614
C10 C 0.9667(4) 0.8337(3) 0.6678(3)
H9 H 0.9092 0.8387 0.6686
C13 C 0.9638(4) 0.7434(3) 0.6651(3)
H12 H 0.9049 0.6889 0.6627
C17 C 0.9610(4) 0.5395(3) 0.6013(3)
C18 C 0.7820(5) 0.4352(4) 0.4847(4)
H14 H 0.7988 0.3939 0.4460
H15 H 0.7292 0.4431 0.4467
H16 H 0.7553 0.4012 0.5207
O14 O 0.8741(3) 0.5342(3) 0.5444(3)
O44 O 0.9615(2) 0.0333(2) 0.75215(18)
C25 C 0.3033(3) 0.1711(3) 0.3280(3)
H21 H 0.2452 0.1751 0.3285
C26 C 0.4655(3) 0.2441(3) 0.3281(3)
H22 H 0.5221 0.2995 0.3289
C27 C 0.4702(4) 0.1568(3) 0.3239(3)
H23 H 0.5287 0.1544 0.3221
C28 C 0.3005(4) 0.0803(3) 0.3239(3)
H24 H 0.2424 0.0257 0.3223
C29 C 0.3862(4) 0.0722(3) 0.3222(3)
H25 H 0.5451 0.0592 0.4157
C36 C 0.6774(4) 0.0173(4) 0.4851(4)
H30 H 0.6848 0.0448 0.4401
H31 H 0.7367 0.0108 0.5108
H32 H 0.6749 0.0637 0.5336
C39 C 0.1865(3) 0.5010(3) 0.0022(3)
C40 C 0.2001(3) 0.4183(3) 0.0023(3)
H35 H 0.1482 0.3601 0.0030
C41 C 0.2900(3) 0.4228(3) 0.0015(3)
H36 H 0.2976 0.3669 0.0014
C42 C 0.0904(3) 0.4994(3) 0.0016(3)
C44 C 0.0472(3) 0.4676(3) 0.0601(3)
C45 C 0.0592(4) 0.4104(5) 0.1809(4)
H38 H 0.0598 0.4677 0.2201
H39 H 0.1026 0.3929 0.2181
C46 C 0.8507(3) 0.9010(3) 0.4631(3)
C47 C 0.7635(3) 0.7881(3) 0.4122(3)
C48 C 0.7313(3) 0.7297(3) 0.4602(3)
H41 H 0.7624 0.7617 0.5245
C49 C 0.6538(3) 0.6248(3) 0.4144(3)
C50 C 0.6088(3) 0.5766(3) 0.3182(3)
H42 H 0.5587 0.5055 0.2866
C51 C 0.6392(3) 0.6357(3) 0.2698(3)
C52 C 0.7156(3) 0.7410(3) 0.3158(3)
H43 H 0.7349 0.7799 0.2827
C53 C 0.5873(3) 0.5841(3) 0.1673(3)
C54 C 0.2308(3) 0.2726(3) 0.1727(3)
C55 C 0.1324(3) 0.1981(3) 0.0835(3)
C60 C 0.0344(3) 0.1514(4) 0.0833(3)
H46 H 0.0301 0.1659 0.1394
C63 C 0.6162(3) 0.5635(3) 0.4664(3)
Co2 Co 0.37742(4) 0.38895(4) 0.34044(3)
Co3 Co 0.5000 0.5000 0.0000
N4 N 0.3842(3) 0.2535(2) 0.3312(2)
N5 N 0.3678(3) 0.5049(3) 0.0009(2)
O1 O 0.8854(2) 0.9405(2) 0.54976(18)
O2 O 0.8838(2) 0.94968(19) 0.41738(18)
O3 O 0.6645(2) 0.6091(2) 0.55310(18)
O4 O 0.5378(2) 0.47036(19) 0.42148(18)
O5 O 0.6000(2) 0.6394(2) 0.12173(18)
O6 O 0.5301(2) 0.4861(2) 0.12556(17)
O7 O 0.3216(2) 0.3126(2) 0.17567(19)
O8 O 0.2170(2) 0.2954(2) 0.24604(18)
O17 O 0.0995(2) 0.4391(3) 0.1182(2)
Co10 Co 0.96752(4) 0.95896(4) 0.34006(3)
Co13 Co 0.62258(4) 0.61105(4) 0.65956(3)
N12 N 0.3864(3) 0.5273(3) 0.3374(2)
O38 O 0.3355(2) 0.3909(2) 0.44690(18)
C37 C 0.3545(4) 0.5839(3) 0.9996(3)
H33 H 0.4075 0.6408 0.9983
C38 C 0.2674(4) 0.5849(3) 0.9999(3)
H34 H 0.2616 0.6414 0.9987
C43 C 0.0419(3) 0.5313(3) 0.9420(3)
H37 H 0.0703 0.5523 0.9030
C56 C 0.1386(3) 0.1743(3) 0.9988(3)
H44 H 0.2044 0.2026 0.9978
C57 C 0.0467(3) 0.1087(3) 0.9162(3)
C61 C 0.0485(3) 0.0866(3) 0.8233(3)
Co3_2 Co 0.5000 0.5000 1.0000
H55 H 0.0121 0.6487 0.8534
N13 N 0.6322(3) 0.4951(3) 0.9991(2)
O39 O 0.4000(2) 0.3606(2) 0.87827(18)
O40 O 0.4699(2) 0.5139(2) 0.87444(17)
C19 C 0.3531(4) 0.5369(3) 0.2589(3)
H17 H 0.3231 0.4796 0.2033
C20 C 0.3606(4) 0.6265(3) 0.2556(3)
H18 H 0.3374 0.6290 0.1987
C21 C 0.4026(3) 0.7132(3) 0.3364(3)
C22 C 0.4410(3) 0.7056(3) 0.4186(3)
H19 H 0.4736 0.7630 0.4748
C23 C 0.4309(3) 0.6126(3) 0.4171(3)
H20 H 0.4556 0.6087 0.4730
C24 C 0.4036(4) 0.8068(3) 0.3332(3)
C30 C 0.3905(4) 0.9790(3) 0.3227(3)
C31 C 0.3029(4) 0.8781(3) 0.2688(3)
C32 C 0.4853(4) 0.9923(3) 0.3807(3)
C33 C 0.3091(4) 0.7933(3) 0.2737(3)
H26 H 0.2499 0.7264 0.2372
C34 C 0.1214(5) 0.7649(4) 0.1567(5)
H27 H 0.1354 0.7223 0.1161
H28 H 0.0637 0.7685 0.1208
H29 H 0.1031 0.7351 0.1979
C35 C 0.4916(4) 0.9080(3) 0.3866(3)
O15 O 0.5821(3) 0.9176(2) 0.4419(2)
O16 O 0.2139(3) 0.8676(2) 0.2094(3)
H40 H 0.9879 0.3513 0.1466
C59 C 0.9426(4) 0.0839(4) 0.0025(3)
C62 C 0.8394(4) 0.0274(5) 0.0049(4)
O12 O 0.8332(4) 0.0414(5) 0.0792(3)
C64 C 0.6455(4) 0.4161(3) 0.0004(3)
H48 H 0.5925 0.3592 0.0017
C65 C 0.7326(4) 0.4151(3) 0.0001(3)
H49 H 0.7384 0.3586 0.0013
C70 C 0.9581(3) 0.4687(3) 0.0580(3)
H52 H 0.9297 0.4477 0.0970
C58 C 0.9488(3) 0.0635(3) 0.9184(3)
H45 H 0.8872 0.0195 0.8633
C66 C 0.8135(3) 0.4990(3) 0.9978(3)
C67 C 0.7999(3) 0.5817(3) 0.9977(3)
H50 H 0.8518 0.6399 0.9970
C68 C 0.7100(3) 0.5772(3) 0.9985(3)
H51 H 0.7024 0.6331 0.9986
C69 C 0.9096(3) 0.5006(3) 0.9984(3)
C71 C 0.9528(3) 0.5324(3) 0.9399(3)
C72 C 0.9408(4) 0.5896(5) 0.8191(4)
H53 H 0.9402 0.5323 0.7799
H54 H 0.8974 0.6071 0.7819
O18 O 0.9005(2) 0.5609(3) 0.8818(2)
O11 O 0.7590(3) 0.9625(4) 0.9242(3)
H47 H 0.7125 0.9171 0.9300
O29 O 0.2410(3) 0.0375(4) 0.0758(3)
H94 H 0.2875 0.0829 0.0700
C121 C 0.0512(3) 0.9365(3) 0.0816(3)
H92 H 0.1128 0.9805 0.1367
O28 O 0.0385(2) 0.9667(2) 0.24785(18)
C122 C 0.0574(4) 0.9161(4) 0.9975(3)
C125 C 0.1606(4) 0.9726(5) 0.9951(4)
O30 O 0.1668(4) 0.9586(5) 0.9208(3)
C91 C 0.6469(4) 0.4631(3) 0.7411(3)
H72 H 0.6769 0.5204 0.7967
C92 C 0.6394(4) 0.3735(3) 0.7444(3)
H73 H 0.6626 0.3710 0.8013
C93 C 0.5974(3) 0.2868(3) 0.6636(3)
C94 C 0.5590(3) 0.2944(3) 0.5814(3)
H74 H 0.5264 0.2370 0.5252
C95 C 0.5691(3) 0.3874(3) 0.5829(3)
H75 H 0.5444 0.3913 0.5270
C96 C 0.5964(4) 0.1932(3) 0.6668(3)
C102 C 0.6095(4) 0.0210(3) 0.6773(3)
C103 C 0.6971(4) 0.1219(3) 0.7312(3)
C104 C 0.5147(4) 0.0077(3) 0.6193(3)
C105 C 0.6909(4) 0.2067(3) 0.7263(3)
H81 H 0.7501 0.2736 0.7628
C106 C 0.8786(5) 0.2351(4) 0.8433(5)
H82 H 0.8646 0.2777 0.8839
H83 H 0.9363 0.2315 0.8792
H84 H 0.8969 0.2649 0.8021
C107 C 0.5084(4) 0.0920(3) 0.6134(3)
N9 N 0.6136(3) 0.4727(3) 0.6626(2)
O33 O 0.4179(3) 0.0824(2) 0.5581(2)
O34 O 0.7861(3) 0.1324(2) 0.7906(3)
C119 C 0.8614(3) 0.8257(3) 0.0012(3)
H91 H 0.7956 0.7974 0.0022
C120 C 0.9533(3) 0.8913(3) 0.0838(3)
C124 C 0.9515(3) 0.9134(3) 0.1767(3)
O27 O 0.8642(2) 0.8765(2) 0.18247(19)
C97 C 0.6967(3) 0.8289(3) 0.6720(3)
H76 H 0.7548 0.8249 0.6715
C98 C 0.5345(3) 0.7559(3) 0.6719(3)
H77 H 0.4779 0.7005 0.6711
C99 C 0.5298(4) 0.8432(3) 0.6761(3)
H78 H 0.4713 0.8456 0.6779
C100 C 0.6995(4) 0.9197(3) 0.6761(3)
H79 H 0.7576 0.9743 0.6777
C101 C 0.6138(4) 0.9278(3) 0.6778(3)
H80 H 0.4549 0.9408 0.5843
C108 C 0.3226(4) 0.9827(4) 0.5149(4)
H85 H 0.3152 0.9552 0.5599
H86 H 0.2633 0.9892 0.4892
H87 H 0.3251 0.9363 0.4664
C109 C 0.1493(3) 0.0990(3) 0.5369(3)
C110 C 0.2365(3) 0.2119(3) 0.5878(3)
C111 C 0.2687(3) 0.2703(3) 0.5398(3)
H88 H 0.2376 0.2383 0.4755
C112 C 0.3462(3) 0.3752(3) 0.5856(3)
C113 C 0.3912(3) 0.4234(3) 0.6818(3)
H89 H 0.4413 0.4945 0.7134
C114 C 0.3608(3) 0.3643(3) 0.7302(3)
C115 C 0.2844(3) 0.2590(3) 0.6842(3)
H90 H 0.2651 0.2201 0.7173
C116 C 0.4127(3) 0.4159(3) 0.8327(3)
C117 C 0.7692(3) 0.7274(3) 0.8273(3)
C118 C 0.8676(3) 0.8019(3) 0.9165(3)
C123 C 0.9656(3) 0.8486(4) 0.9167(3)
H93 H 0.9699 0.8341 0.8606
C126 C 0.3838(3) 0.4365(3) 0.5336(3)
N10 N 0.6158(3) 0.7465(2) 0.6688(2)
O19 O 0.1146(2) 0.0595(2) 0.45024(18)
O22 O 0.4622(2) 0.52964(19) 0.57852(18)
O25 O 0.6784(2) 0.6874(2) 0.82433(19)
O26 O 0.7830(2) 0.7046(2) 0.75396(18)
C73 C 0.0047(3) 0.8144(3) 0.4171(3)
H56 H 0.0394 0.8736 0.4723
C74 C 0.0004(3) 0.7253(3) 0.4209(3)
H57 H 0.0316 0.7256 0.4776
C79 C 0.0366(4) 0.5479(3) 0.3987(3)
H60 H 0.0964 0.6136 0.4386
C82 C 0.0333(4) 0.1663(3) 0.3322(3)
H64 H 0.0908 0.1613 0.3314
C85 C 0.0362(4) 0.2566(3) 0.3349(3)
H67 H 0.0951 0.3111 0.3373
C89 C 0.0390(4) 0.4605(3) 0.3987(3)
C90 C 0.2180(5) 0.5648(4) 0.5153(4)
H69 H 0.2012 0.6061 0.5540
H70 H 0.2708 0.5569 0.5533
H71 H 0.2447 0.5988 0.4793
O32 O 0.1259(3) 0.4658(3) 0.4556(3)
N11 N 0.9518(3) 0.0850(2) 0.3307(2)
C75 C 0.9490(3) 0.6351(3) 0.3394(3)
C76 C 0.9017(4) 0.6404(3) 0.2570(3)
H58 H 0.8648 0.5820 0.2008
C77 C 0.9105(4) 0.7327(3) 0.2601(3)
H59 H 0.8790 0.7346 0.2046
C78 C 0.9463(4) 0.5395(3) 0.3401(3)
C80 C 0.8544(4) 0.4397(3) 0.2824(3)
C81 C 0.6662(5) 0.3392(5) 0.1920(5)
H61 H 0.6592 0.3152 0.2391
H62 H 0.6104 0.3511 0.1685
H63 H 0.6618 0.2874 0.1426
C83 C 0.8674(3) 0.0918(3) 0.3276(3)
H65 H 0.8093 0.0355 0.3244
C84 C 0.8631(4) 0.1784(3) 0.3290(3)
H66 H 0.8030 0.1798 0.3266
C86 C 0.9498(4) 0.2648(3) 0.3339(3)
C87 C 0.9485(4) 0.3595(3) 0.3385(3)
C88 C 0.8571(4) 0.3531(3) 0.2837(3)
H68 H 0.7957 0.2877 0.2467
N7 N 0.9616(3) 0.8199(2) 0.3382(2)
O31 O 0.7661(3) 0.4339(3) 0.2305(3)
loop_
_geom_bond_atom_site_label_1
_geom_bond_atom_site_label_2
_geom_bond_site_symmetry_1
_geom_bond_site_symmetry_2
C4 C3 1_555 1_555
H3 C4 1_555 1_555
C5 C4 1_555 1_555
H4 C5 1_555 1_555
C6 C3 1_555 1_555
C8 C6 1_555 1_555
C9 H6 1_555 1_555
H7 C9 1_555 1_555
H8 C9 1_555 1_555
C11 H10 1_555 1_555
C12 C11 1_555 1_555
H11 C12 1_555 1_555
C14 C12 1_555 1_555
C15 C14 1_555 1_555
C16 C8 1_555 1_555
H13 C16 1_555 1_555
Co8 N1 1_555 1_555
O13 C8 1_555 1_555
O36 Co8 1_555 1_555
O42 Co8 1_555 1_555
C5 N1 1_555 1_555
C9 O13 1_555 1_555
C11 N2 1_555 1_555
C15 C16 1_555 1_555
C1 H1 1_555 1_555
C2 C1 1_555 1_555
H2 C2 1_555 1_555
H5 C7 1_555 1_555
C10 H9 1_555 1_555
C13 C10 1_555 1_555
H12 C13 1_555 1_555
C17 C7 1_555 1_555
C18 H14 1_555 1_555
H15 C18 1_555 1_555
H16 C18 1_555 1_555
O14 C17 1_555 1_555
C18 O14 1_555 1_555
C25 H21 1_555 1_555
C26 H22 1_555 1_555
C27 C26 1_555 1_555
H23 C27 1_555 1_555
C28 C25 1_555 1_555
H24 C28 1_555 1_555
C29 C27 1_555 1_555
C36 H30 1_555 1_555
H31 C36 1_555 1_555
H32 C36 1_555 1_555
C40 C39 1_555 1_555
H35 C40 1_555 1_555
C41 C40 1_555 1_555
H36 C41 1_555 1_555
C42 C39 1_555 1_555
C44 C42 1_555 1_555
C45 H38 1_555 1_555
H39 C45 1_555 1_555
C46 C47 1_555 1_555
C47 C48 1_555 1_555
C48 H41 1_555 1_555
C49 C48 1_555 1_555
C50 C49 1_555 1_555
H42 C50 1_555 1_555
C51 C50 1_555 1_555
C52 C47 1_555 1_555
H43 C52 1_555 1_555
C53 C51 1_555 1_555
C54 C55 1_555 1_555
C60 C55 1_555 1_555
H46 C60 1_555 1_555
C63 C49 1_555 1_555
Co2 N4 1_555 1_555
Co3 N5 1_555 1_555
N4 C25 1_555 1_555
O1 C46 1_555 1_555
O2 C46 1_555 1_555
O3 C63 1_555 1_555
O4 C63 1_555 1_555
O5 C53 1_555 1_555
O6 C53 1_555 1_555
O7 C54 1_555 1_555
O8 C54 1_555 1_555
O17 C44 1_555 1_555
Co10 O2 1_555 1_555
Co13 O3 1_555 1_555
N12 Co2 1_555 1_555
O38 Co2 1_555 1_555
C26 N4 1_555 1_555
C28 C29 1_555 1_555
C41 N5 1_555 1_555
C45 O17 1_555 1_555
C51 C52 1_555 1_555
Co2 O4 1_555 1_555
Co2 O7 1_555 1_555
Co2 O8 1_555 1_555
Co3 O5 1_555 1_555
Co3 O6 1_555 1_555
C37 H33 1_555 1_555
C38 C37 1_555 1_555
H34 C38 1_555 1_555
H37 C43 1_555 1_555
C56 H44 1_555 1_555
C57 C56 1_555 1_555
C61 C57 1_555 1_555
O42 C61 1_555 1_555
N13 Co3_2 1_555 1_555
O39 Co3_2 1_555 1_555
O40 Co3_2 1_555 1_555
C19 H17 1_555 1_555
C20 C19 1_555 1_555
H18 C20 1_555 1_555
C21 C20 1_555 1_555
C22 C21 1_555 1_555
H19 C22 1_555 1_555
C23 C22 1_555 1_555
H20 C23 1_555 1_555
C24 C21 1_555 1_555
C31 C30 1_555 1_555
C32 C30 1_555 1_555
C33 C24 1_555 1_555
H26 C33 1_555 1_555
C34 H27 1_555 1_555
H28 C34 1_555 1_555
H29 C34 1_555 1_555
C35 C24 1_555 1_555
N12 C19 1_555 1_555
O15 C35 1_555 1_555
O16 C31 1_555 1_555
C23 N12 1_555 1_555
C31 C33 1_555 1_555
C32 C35 1_555 1_555
C34 O16 1_555 1_555
C62 C59 1_555 1_555
O12 C62 1_555 1_555
C64 H48 1_555 1_555
C65 C64 1_555 1_555
H49 C65 1_555 1_555
H52 C70 1_555 1_555
H45 C58 1_555 1_555
C67 C66 1_555 1_555
H50 C67 1_555 1_555
C68 C67 1_555 1_555
H51 C68 1_555 1_555
C69 C66 1_555 1_555
C72 H53 1_555 1_555
H54 C72 1_555 1_555
O18 C71 1_555 1_555
C68 N13 1_555 1_555
C69 C71 1_555 1_555
C72 O18 1_555 1_555
H47 O11 1_555 1_555
H94 O29 1_555 1_555
H92 C121 1_555 1_555
C125 C122 1_555 1_555
O30 C125 1_555 1_555
C91 H72 1_555 1_555
C92 C91 1_555 1_555
H73 C92 1_555 1_555
C93 C92 1_555 1_555
C94 C93 1_555 1_555
H74 C94 1_555 1_555
C95 C94 1_555 1_555
H75 C95 1_555 1_555
C96 C93 1_555 1_555
C103 C102 1_555 1_555
C104 C102 1_555 1_555
C105 C96 1_555 1_555
H81 C105 1_555 1_555
C106 H82 1_555 1_555
H83 C106 1_555 1_555
H84 C106 1_555 1_555
C107 C96 1_555 1_555
N9 C91 1_555 1_555
O33 C107 1_555 1_555
O34 C103 1_555 1_555
Co13 N9 1_555 1_555
C95 N9 1_555 1_555
C103 C105 1_555 1_555
C104 C107 1_555 1_555
C106 O34 1_555 1_555
C119 H91 1_555 1_555
C120 C119 1_555 1_555
C124 C120 1_555 1_555
O27 C124 1_555 1_555
Co10 O27 1_555 1_555
C97 H76 1_555 1_555
C98 H77 1_555 1_555
C99 C98 1_555 1_555
H78 C99 1_555 1_555
C100 C97 1_555 1_555
H79 C100 1_555 1_555
C101 C99 1_555 1_555
C108 H85 1_555 1_555
H86 C108 1_555 1_555
H87 C108 1_555 1_555
C109 C110 1_555 1_555
C110 C111 1_555 1_555
C111 H88 1_555 1_555
C112 C111 1_555 1_555
C113 C112 1_555 1_555
H89 C113 1_555 1_555
C114 C113 1_555 1_555
C115 C110 1_555 1_555
H90 C115 1_555 1_555
C116 C114 1_555 1_555
C117 C118 1_555 1_555
C123 C118 1_555 1_555
H93 C123 1_555 1_555
C126 C112 1_555 1_555
N10 C97 1_555 1_555
O19 C109 1_555 1_555
O36 C109 1_555 1_555
O38 C126 1_555 1_555
O22 C126 1_555 1_555
O39 C116 1_555 1_555
O40 C116 1_555 1_555
O25 C117 1_555 1_555
O26 C117 1_555 1_555
C98 N10 1_555 1_555
C100 C101 1_555 1_555
C114 C115 1_555 1_555
Co13 N10 1_555 1_555
Co13 O22 1_555 1_555
Co13 O25 1_555 1_555
Co13 O26 1_555 1_555
C73 H56 1_555 1_555
C74 C73 1_555 1_555
H57 C74 1_555 1_555
H60 C79 1_555 1_555
C82 H64 1_555 1_555
C85 C82 1_555 1_555
H67 C85 1_555 1_555
C89 C79 1_555 1_555
C90 H69 1_555 1_555
H70 C90 1_555 1_555
H71 C90 1_555 1_555
O32 C89 1_555 1_555
C90 O32 1_555 1_555
C76 C75 1_555 1_555
H58 C76 1_555 1_555
C77 C76 1_555 1_555
H59 C77 1_555 1_555
C78 C75 1_555 1_555
C80 C78 1_555 1_555
C81 H61 1_555 1_555
H62 C81 1_555 1_555
H63 C81 1_555 1_555
C83 H65 1_555 1_555
C84 C83 1_555 1_555
H66 C84 1_555 1_555
C86 C84 1_555 1_555
C87 C86 1_555 1_555
C88 C80 1_555 1_555
H68 C88 1_555 1_555
Co10 N7 1_555 1_555
O31 C80 1_555 1_555
C77 N7 1_555 1_555
C81 O31 1_555 1_555
C83 N11 1_555 1_555
C87 C88 1_555 1_555

#END
