####################################################################### 
# 
# This file contains crystal structure data downloaded from the 
# Cambridge Structural Database (CSD) hosted by the Cambridge 
# Crystallographic Data Centre (CCDC).
# 
# Full information about CCDC data access policies and citation 
# guidelines are available at http://www.ccdc.cam.ac.uk/access/V1 
# 
# Audit and citation data items may have been added by the CCDC. 
# Please retain this information to preserve the provenance of 
# this file and to allow appropriate attribution of the data. 
# 
#######################################################################

data_PERRAF
_audit_block_doi                 10.5517/cc6kv3p
_database_code_depnum_ccdc_archive 'CCDC 195892'
loop_
_citation_id
_citation_doi
_citation_year
1 10.1107/S0108768102011758 2002
_audit_update_record             
;
2002-10-22 deposited with the CCDC.	2024-07-12 downloaded from the CCDC.
;
_chemical_formula_sum            'C12 H36 N6 O12 Cl3 Bi3'
_symmetry_cell_setting           trigonal
_symmetry_space_group_name_H-M   'R 32'
_symmetry_Int_Tables_number      155
_cell_length_a                   8.114
_cell_length_b                   8.114
_cell_length_c                   35.96
_cell_angle_alpha                90.0
_cell_angle_beta                 90.0
_cell_angle_gamma                120.0
_refine_special_details          
;
The chloride sites are 75% Cl, 25% water.
;

loop_
_atom_site_label
_atom_site_fract_x
_atom_site_fract_y
_atom_site_fract_z

Bi -0.2693 0.0 0.0
Cl1 0.0 0.0 0.6661
Cl2 0.0 0.0 0.8020
O1 0.000 0.204 0.0346
N -0.348 0.000 0.0692
C1 -0.178 0.000 0.0870
C2 -0.001 0.180 0.0736
O3 0.0 0.0 0.5430
O5 0.698 0.698 0.5
