
###############################################################################
#
# This file contains modified crystal structure data generated from the
# MOF subset of the Cambridge Structural Database (CSD) v543 
# hosted by the Cambridge Crystallographic Data Centre (CCDC).
#
# This work is licensed under the Creative Commons
# Attribution-NonCommercial-ShareAlike 4.0 International License.
# To view a copy of this license, visit
# http://creativecommons.org/licenses/by-nc-sa/4.0/
# or send a letter to
# Creative Commons, PO Box 1866, Mountain View, CA 94042, USA.
#
# CIF created using the CSD Python API on 29 September 2022
# The structure has been converted into the P1 space group
# The structure has a 3D framework
# The original CSD entry PESSOY is in the hexagonal crystal system
# The original CSD entry PESSOY is in a Sohncke space group
# The framework has been calculated to contain at least 10.0% void space
# The void calculation uses a probe of radius 1.32A, grid spacing 0.4
#
###############################################################################

data_PESSOY
_chemical_formula_moiety         '(C86 H48 N8 Ni5 O20)n'
_symmetry_cell_setting           triclinic
_symmetry_space_group_name_H-M   'P 1'
_symmetry_Int_Tables_number      1
_space_group_name_Hall           'P 1'
loop_
_symmetry_equiv_pos_site_id
_symmetry_equiv_pos_as_xyz
1 x,y,z
_cell_length_a                   36.611(4)
_cell_length_b                   36.611(4)
_cell_length_c                   5.319(1)
_cell_angle_alpha                90
_cell_angle_beta                 90
_cell_angle_gamma                120
_cell_volume                     6174.24
loop_
_atom_site_label
_atom_site_type_symbol
_atom_site_fract_x
_atom_site_fract_y
_atom_site_fract_z
_atom_site_U_iso_or_equiv
_atom_site_thermal_displace_type
Ni8 Ni -0.00000 0.50000 0.50000 0.1574 Uiso
C36 C 0.52135 -0.00000 -0.00000 0.1574 Uiso
O6 O 0.53680 -0.00000 0.20963 0.1574 Uiso
C37 C 0.47865 -0.00000 -0.00000 0.1574 Uiso
O8 O 0.46320 -0.00000 0.20963 0.1574 Uiso
Ni6 Ni 0.50000 -0.00000 0.50000 0.1574 Uiso
C36_2 C 0.52135 -0.00000 1.00000 0.1574 Uiso
O5 O 0.53680 -0.00000 0.79037 0.1574 Uiso
C37_2 C 0.47865 -0.00000 1.00000 0.1574 Uiso
O7 O 0.46320 -0.00000 0.79037 0.1574 Uiso
N9 N 0.53192 0.06384 0.50000 0.1574 Uiso
C12 C 0.47865 0.47865 -0.00000 0.1574 Uiso
O2 O 0.46320 0.46320 0.20963 0.1574 Uiso
C35 C 0.52135 0.52135 -0.00000 0.1574 Uiso
O4 O 0.53680 0.53680 0.20963 0.1574 Uiso
C36_3 C 0.52135 1.00000 -0.00000 0.1574 Uiso
O6_2 O 0.53680 1.00000 0.20963 0.1574 Uiso
C37_3 C 0.47865 1.00000 -0.00000 0.1574 Uiso
O8_2 O 0.46320 1.00000 0.20963 0.1574 Uiso
C38 C 0.00000 0.52135 -0.00000 0.1574 Uiso
O10 O -0.00000 0.53680 0.20963 0.1574 Uiso
C39 C -0.00000 0.47865 -0.00000 0.1574 Uiso
O12 O -0.00000 0.46320 0.20963 0.1574 Uiso
Ni4 Ni 0.50000 0.50000 0.50000 0.1574 Uiso
Ni6_2 Ni 0.50000 1.00000 0.50000 0.1574 Uiso
C1 C 0.34365 0.60793 0.34512 0.1574 Uiso
C2 C 0.36595 0.58559 0.34483 0.1574 Uiso
H1 H 0.31662 0.59780 0.22199 0.1574 Uiso
H2 H 0.35569 0.55874 0.21966 0.1574 Uiso
C3 C 0.39207 0.65635 0.65488 0.1574 Uiso
H3 H 0.40220 0.68338 0.77801 0.1574 Uiso
C4 C 0.41441 0.63405 0.65517 0.1574 Uiso
H4 H 0.44126 0.64431 0.78034 0.1574 Uiso
C5 C 0.35641 0.64359 0.50000 0.1574 Uiso
C6 C 0.40171 0.59829 0.50000 0.1574 Uiso
C7 C 0.42558 0.57442 0.50000 0.1574 Uiso
N1 N 0.46808 0.53192 0.50000 0.1574 Uiso
C8 C 0.42704 0.50816 0.49213 0.1574 Uiso
H5 H 0.41017 0.47382 0.48734 0.1574 Uiso
C9 C 0.40418 0.52987 0.49050 0.1574 Uiso
H6 H 0.36990 0.51186 0.48611 0.1574 Uiso
C10 C 0.49184 0.57296 0.50787 0.1574 Uiso
H7 H 0.52618 0.58983 0.51265 0.1574 Uiso
C11 C 0.47013 0.59582 0.50950 0.1574 Uiso
H8 H 0.48814 0.63010 0.51389 0.1574 Uiso
C12_2 C 0.47865 0.47865 1.00000 0.1574 Uiso
O1 O 0.46320 0.46320 0.79037 0.1574 Uiso
N2 N 0.33333 0.66667 0.50000 0.1574 Uiso
C13 C 0.39207 0.73572 0.34512 0.1574 Uiso
C14 C 0.41441 0.78036 0.34483 0.1574 Uiso
H9 H 0.40220 0.71882 0.22199 0.1574 Uiso
H10 H 0.44126 0.79695 0.21966 0.1574 Uiso
C15 C 0.34365 0.73572 0.65488 0.1574 Uiso
H11 H 0.31662 0.71882 0.77801 0.1574 Uiso
C16 C 0.36595 0.78036 0.65517 0.1574 Uiso
H12 H 0.35569 0.79695 0.78034 0.1574 Uiso
C17 C 0.35641 0.71282 0.50000 0.1574 Uiso
C18 C 0.40171 0.80342 0.50000 0.1574 Uiso
C19 C 0.42558 0.85116 0.50000 0.1574 Uiso
N3 N 0.46808 0.93616 0.50000 0.1574 Uiso
C20 C 0.49184 0.91888 0.49213 0.1574 Uiso
H13 H 0.52618 0.93635 0.48734 0.1574 Uiso
C21 C 0.47013 0.87431 0.49050 0.1574 Uiso
H14 H 0.48814 0.85804 0.48611 0.1574 Uiso
C22 C 0.42704 0.91888 0.50787 0.1574 Uiso
H15 H 0.41017 0.93635 0.51265 0.1574 Uiso
C23 C 0.40418 0.87431 0.50950 0.1574 Uiso
H16 H 0.36990 0.85804 0.51389 0.1574 Uiso
C24 C 0.26428 0.65635 0.34512 0.1574 Uiso
C25 C 0.21964 0.63405 0.34483 0.1574 Uiso
H17 H 0.28118 0.68338 0.22199 0.1574 Uiso
H18 H 0.20305 0.64431 0.21966 0.1574 Uiso
C26 C 0.26428 0.60793 0.65488 0.1574 Uiso
H19 H 0.28118 0.59780 0.77801 0.1574 Uiso
C27 C 0.21964 0.58559 0.65517 0.1574 Uiso
H20 H 0.20305 0.55874 0.78034 0.1574 Uiso
C28 C 0.28718 0.64359 0.50000 0.1574 Uiso
C29 C 0.19658 0.59829 0.50000 0.1574 Uiso
C30 C 0.14884 0.57442 0.50000 0.1574 Uiso
N4 N 0.06384 0.53192 0.50000 0.1574 Uiso
C31 C 0.08112 0.57296 0.49213 0.1574 Uiso
H21 H 0.06365 0.58983 0.48734 0.1574 Uiso
C32 C 0.12569 0.59582 0.49050 0.1574 Uiso
H22 H 0.14196 0.63010 0.48611 0.1574 Uiso
C33 C 0.08112 0.50816 0.50787 0.1574 Uiso
H23 H 0.06365 0.47382 0.51265 0.1574 Uiso
C34 C 0.12569 0.52987 0.50950 0.1574 Uiso
H24 H 0.14196 0.51186 0.51389 0.1574 Uiso
C35_2 C 0.52135 0.52135 1.00000 0.1574 Uiso
O3 O 0.53680 0.53680 0.79037 0.1574 Uiso
C36_4 C 0.52135 1.00000 1.00000 0.1574 Uiso
O5_2 O 0.53680 1.00000 0.79037 0.1574 Uiso
C37_4 C 0.47865 1.00000 1.00000 0.1574 Uiso
O7_2 O 0.46320 1.00000 0.79037 0.1574 Uiso
C38_2 C -0.00000 0.52135 1.00000 0.1574 Uiso
O9 O -0.00000 0.53680 0.79037 0.1574 Uiso
C39_2 C -0.00000 0.47865 1.00000 0.1574 Uiso
O11 O -0.00000 0.46320 0.79037 0.1574 Uiso
C40 C 0.65635 0.39207 0.34512 0.1574 Uiso
C41 C 0.63405 0.41441 0.34483 0.1574 Uiso
H25 H 0.68338 0.40220 0.22199 0.1574 Uiso
H26 H 0.64431 0.44126 0.21966 0.1574 Uiso
C42 C 0.60793 0.34365 0.65488 0.1574 Uiso
H27 H 0.59780 0.31662 0.77801 0.1574 Uiso
C43 C 0.58559 0.36595 0.65517 0.1574 Uiso
H28 H 0.55874 0.35569 0.78034 0.1574 Uiso
C44 C 0.64359 0.35641 0.50000 0.1574 Uiso
C45 C 0.59829 0.40171 0.50000 0.1574 Uiso
C46 C 0.57442 0.42558 0.50000 0.1574 Uiso
N5 N 0.53192 0.46808 0.50000 0.1574 Uiso
C47 C 0.57296 0.49184 0.49213 0.1574 Uiso
H29 H 0.58983 0.52618 0.48734 0.1574 Uiso
C48 C 0.59582 0.47013 0.49050 0.1574 Uiso
H30 H 0.63010 0.48814 0.48611 0.1574 Uiso
C49 C 0.50816 0.42704 0.50787 0.1574 Uiso
H31 H 0.47382 0.41017 0.51265 0.1574 Uiso
C50 C 0.52987 0.40418 0.50950 0.1574 Uiso
H32 H 0.51186 0.36990 0.51389 0.1574 Uiso
N6 N 0.66667 0.33333 0.50000 0.1574 Uiso
C51 C 0.60793 0.26428 0.34512 0.1574 Uiso
C52 C 0.58559 0.21964 0.34483 0.1574 Uiso
H33 H 0.59780 0.28118 0.22199 0.1574 Uiso
H34 H 0.55874 0.20305 0.21966 0.1574 Uiso
C53 C 0.65635 0.26428 0.65488 0.1574 Uiso
H35 H 0.68338 0.28118 0.77801 0.1574 Uiso
C54 C 0.63405 0.21964 0.65517 0.1574 Uiso
H36 H 0.64431 0.20305 0.78034 0.1574 Uiso
C55 C 0.64359 0.28718 0.50000 0.1574 Uiso
C56 C 0.59829 0.19658 0.50000 0.1574 Uiso
C57 C 0.57442 0.14884 0.50000 0.1574 Uiso
C58 C 0.50816 0.08112 0.49213 0.1574 Uiso
H37 H 0.47382 0.06365 0.48734 0.1574 Uiso
C59 C 0.52987 0.12569 0.49050 0.1574 Uiso
H38 H 0.51186 0.14196 0.48611 0.1574 Uiso
C60 C 0.57296 0.08112 0.50787 0.1574 Uiso
H39 H 0.58983 0.06365 0.51265 0.1574 Uiso
C61 C 0.59582 0.12569 0.50950 0.1574 Uiso
H40 H 0.63010 0.14196 0.51389 0.1574 Uiso
C62 C 0.73572 0.34365 0.34512 0.1574 Uiso
C63 C 0.78036 0.36595 0.34483 0.1574 Uiso
H41 H 0.71882 0.31662 0.22199 0.1574 Uiso
H42 H 0.79695 0.35569 0.21966 0.1574 Uiso
C64 C 0.73572 0.39207 0.65488 0.1574 Uiso
H43 H 0.71882 0.40220 0.77801 0.1574 Uiso
C65 C 0.78036 0.41441 0.65517 0.1574 Uiso
H44 H 0.79695 0.44126 0.78034 0.1574 Uiso
C66 C 0.71282 0.35641 0.50000 0.1574 Uiso
C67 C 0.80342 0.40171 0.50000 0.1574 Uiso
C68 C 0.85116 0.42558 0.50000 0.1574 Uiso
N8 N 0.93616 0.46808 0.50000 0.1574 Uiso
C69 C 0.91888 0.42704 0.49213 0.1574 Uiso
H45 H 0.93635 0.41017 0.48734 0.1574 Uiso
C70 C 0.87431 0.40418 0.49050 0.1574 Uiso
H46 H 0.85804 0.36990 0.48611 0.1574 Uiso
C71 C 0.91888 0.49184 0.50787 0.1574 Uiso
H47 H 0.93635 0.52618 0.51265 0.1574 Uiso
C72 C 0.87431 0.47013 0.50950 0.1574 Uiso
H48 H 0.85804 0.48814 0.51389 0.1574 Uiso
Ni8_2 Ni 1.00000 0.50000 0.50000 0.1574 Uiso
C38_3 C 1.00000 0.52135 -0.00000 0.1574 Uiso
O10_2 O 1.00000 0.53680 0.20963 0.1574 Uiso
C39_3 C 1.00000 0.47865 -0.00000 0.1574 Uiso
O12_2 O 1.00000 0.46320 0.20963 0.1574 Uiso
C38_4 C 1.00000 0.52135 1.00000 0.1574 Uiso
O9_2 O 1.00000 0.53680 0.79037 0.1574 Uiso
C39_4 C 1.00000 0.47865 1.00000 0.1574 Uiso
O11_2 O 1.00000 0.46320 0.79037 0.1574 Uiso
loop_
_geom_bond_atom_site_label_1
_geom_bond_atom_site_label_2
_geom_bond_site_symmetry_1
_geom_bond_site_symmetry_2
O6 C36 1_555 1_555
C37 C36 1_555 1_555
O8 C37 1_555 1_555
Ni6 O6 1_555 1_555
O8 Ni6 1_555 1_555
C36_2 O5 1_555 1_555
O5 Ni6 1_555 1_555
C37_2 C36_2 1_555 1_555
O7 Ni6 1_555 1_555
N9 Ni6 1_555 1_555
C37_2 O7 1_555 1_555
O2 C12 1_555 1_555
C35 C12 1_555 1_555
O4 C35 1_555 1_555
O6_2 C36_3 1_555 1_555
C37_3 C36_3 1_555 1_555
O8_2 C37_3 1_555 1_555
O10 C38 1_555 1_555
C39 C38 1_555 1_555
O12 C39 1_555 1_555
Ni4 O2 1_555 1_555
Ni6_2 O6_2 1_555 1_555
Ni8 O10 1_555 1_555
O4 Ni4 1_555 1_555
O8_2 Ni6_2 1_555 1_555
O12 Ni8 1_555 1_555
C1 C2 1_555 1_555
C2 H2 1_555 1_555
H1 C1 1_555 1_555
C3 H3 1_555 1_555
C4 C3 1_555 1_555
H4 C4 1_555 1_555
C5 C1 1_555 1_555
C6 C2 1_555 1_555
C7 C6 1_555 1_555
N1 C8 1_555 1_555
C8 H5 1_555 1_555
C9 C7 1_555 1_555
H6 C9 1_555 1_555
C10 N1 1_555 1_555
H7 C10 1_555 1_555
C11 C7 1_555 1_555
H8 C11 1_555 1_555
C12_2 O1 1_555 1_555
O1 Ni4 1_555 1_555
N2 C5 1_555 1_555
Ni4 N1 1_555 1_555
C13 C14 1_555 1_555
C14 H10 1_555 1_555
H9 C13 1_555 1_555
C15 H11 1_555 1_555
C16 C15 1_555 1_555
H12 C16 1_555 1_555
C17 N2 1_555 1_555
C18 C14 1_555 1_555
C19 C18 1_555 1_555
N3 C20 1_555 1_555
C20 H13 1_555 1_555
C21 C19 1_555 1_555
H14 C21 1_555 1_555
C22 N3 1_555 1_555
H15 C22 1_555 1_555
C23 C19 1_555 1_555
H16 C23 1_555 1_555
C24 C25 1_555 1_555
C25 H18 1_555 1_555
H17 C24 1_555 1_555
C26 H19 1_555 1_555
C27 C26 1_555 1_555
H20 C27 1_555 1_555
C28 N2 1_555 1_555
C29 C25 1_555 1_555
C30 C29 1_555 1_555
N4 C31 1_555 1_555
C31 H21 1_555 1_555
C32 C30 1_555 1_555
H22 C32 1_555 1_555
C33 N4 1_555 1_555
H23 C33 1_555 1_555
C34 C30 1_555 1_555
H24 C34 1_555 1_555
C35_2 C12_2 1_555 1_555
O3 Ni4 1_555 1_555
C36_4 O5_2 1_555 1_555
O5_2 Ni6_2 1_555 1_555
Ni6_2 N3 1_555 1_555
C37_4 C36_4 1_555 1_555
O7_2 Ni6_2 1_555 1_555
C38_2 O9 1_555 1_555
O9 Ni8 1_555 1_555
Ni8 N4 1_555 1_555
C39_2 C38_2 1_555 1_555
O11 Ni8 1_555 1_555
C40 C41 1_555 1_555
C41 H26 1_555 1_555
H25 C40 1_555 1_555
C42 H27 1_555 1_555
C43 C42 1_555 1_555
H28 C43 1_555 1_555
C44 C40 1_555 1_555
C45 C41 1_555 1_555
C46 C45 1_555 1_555
N5 Ni4 1_555 1_555
C47 N5 1_555 1_555
H29 C47 1_555 1_555
C48 C46 1_555 1_555
H30 C48 1_555 1_555
C49 N5 1_555 1_555
H31 C49 1_555 1_555
C50 C46 1_555 1_555
H32 C50 1_555 1_555
N6 C44 1_555 1_555
C51 C52 1_555 1_555
C52 H34 1_555 1_555
H33 C51 1_555 1_555
C53 H35 1_555 1_555
C54 C53 1_555 1_555
H36 C54 1_555 1_555
C55 N6 1_555 1_555
C56 C52 1_555 1_555
C57 C56 1_555 1_555
N9 C58 1_555 1_555
C58 H37 1_555 1_555
C59 C57 1_555 1_555
H38 C59 1_555 1_555
C60 N9 1_555 1_555
H39 C60 1_555 1_555
C61 C57 1_555 1_555
H40 C61 1_555 1_555
C62 C63 1_555 1_555
C63 H42 1_555 1_555
H41 C62 1_555 1_555
C64 H43 1_555 1_555
C65 C64 1_555 1_555
H44 C65 1_555 1_555
C66 N6 1_555 1_555
C67 C63 1_555 1_555
C68 C67 1_555 1_555
N8 C69 1_555 1_555
C69 H45 1_555 1_555
C70 C68 1_555 1_555
H46 C70 1_555 1_555
C71 N8 1_555 1_555
H47 C71 1_555 1_555
C72 C68 1_555 1_555
H48 C72 1_555 1_555
Ni8_2 N8 1_555 1_555
C3 C5 1_555 1_555
C4 C6 1_555 1_555
C8 C9 1_555 1_555
C10 C11 1_555 1_555
C13 C17 1_555 1_555
C15 C17 1_555 1_555
C16 C18 1_555 1_555
C20 C21 1_555 1_555
C22 C23 1_555 1_555
C24 C28 1_555 1_555
C26 C28 1_555 1_555
C27 C29 1_555 1_555
C31 C32 1_555 1_555
C33 C34 1_555 1_555
C35_2 O3 1_555 1_555
C37_4 O7_2 1_555 1_555
C39_2 O11 1_555 1_555
C42 C44 1_555 1_555
C43 C45 1_555 1_555
C47 C48 1_555 1_555
C49 C50 1_555 1_555
C51 C55 1_555 1_555
C53 C55 1_555 1_555
C54 C56 1_555 1_555
C58 C59 1_555 1_555
C60 C61 1_555 1_555
C62 C66 1_555 1_555
C64 C66 1_555 1_555
C65 C67 1_555 1_555
C69 C70 1_555 1_555
C71 C72 1_555 1_555
O10_2 C38_3 1_555 1_555
C39_3 C38_3 1_555 1_555
O12_2 C39_3 1_555 1_555
Ni8_2 O10_2 1_555 1_555
O12_2 Ni8_2 1_555 1_555
C38_4 O9_2 1_555 1_555
O9_2 Ni8_2 1_555 1_555
C39_4 C38_4 1_555 1_555
O11_2 Ni8_2 1_555 1_555
C39_4 O11_2 1_555 1_555

#END
