
###############################################################################
#
# This file contains modified crystal structure data generated from the
# MOF subset of the Cambridge Structural Database (CSD) v543 
# hosted by the Cambridge Crystallographic Data Centre (CCDC).
#
# This work is licensed under the Creative Commons
# Attribution-NonCommercial-ShareAlike 4.0 International License.
# To view a copy of this license, visit
# http://creativecommons.org/licenses/by-nc-sa/4.0/
# or send a letter to
# Creative Commons, PO Box 1866, Mountain View, CA 94042, USA.
#
# CIF created using the CSD Python API on 29 September 2022
# The structure has been converted into the P1 space group
# The structure has a 3D framework
# The original CSD entry PESSIS is in the hexagonal crystal system
# The framework has been calculated to contain at least 10.0% void space
# The void calculation uses a probe of radius 1.32A, grid spacing 0.4
#
###############################################################################

data_PESSIS
_chemical_formula_moiety         '(C56 H24 N12 Ni5 O20)n'
_symmetry_cell_setting           triclinic
_symmetry_space_group_name_H-M   'P 1'
_symmetry_Int_Tables_number      1
_space_group_name_Hall           'P 1'
loop_
_symmetry_equiv_pos_site_id
_symmetry_equiv_pos_as_xyz
1 x,y,z
_cell_length_a                   26.128(6)
_cell_length_b                   26.128(6)
_cell_length_c                   5.299(3)
_cell_angle_alpha                90
_cell_angle_beta                 90
_cell_angle_gamma                120
_cell_volume                     3132.83
loop_
_atom_site_label
_atom_site_type_symbol
_atom_site_fract_x
_atom_site_fract_y
_atom_site_fract_z
C23 C -0.00000 0.47013 0.00000
C24 C -0.00000 0.52987 0.00000
O11 O -0.00000 0.44828 0.21021
O12 O -0.00000 0.55172 0.21021
Ni8 Ni -0.00000 0.50000 0.50000
O9 O -0.00000 0.44828 0.78979
C23_2 C -0.00000 0.47013 1.00000
O10 O -0.00000 0.55172 0.78979
C24_2 C -0.00000 0.52987 1.00000
N14 N 0.09139 0.54569 0.50000
Ni6 Ni 0.50000 -0.00000 0.50000
C3 C 0.52987 0.52987 0.00000
C6 C 0.47013 0.47013 0.00000
O3 O 0.55172 0.55172 0.21021
O4 O 0.44828 0.44828 0.21021
C21 C 0.47013 0.00000 0.00000
C22 C 0.52987 0.00000 0.00000
O7 O 0.44828 0.00000 0.21021
O8 O 0.55172 0.00000 0.21021
C23_3 C 1.00000 0.47013 0.00000
C24_3 C 1.00000 0.52987 0.00000
O11_2 O 1.00000 0.44828 0.21021
O12_2 O 1.00000 0.55172 0.21021
Ni4 Ni 0.50000 0.50000 0.50000
Ni8_2 Ni 1.00000 0.50000 0.50000
O1 O 0.55172 0.55172 0.78979
N1 N 0.54569 0.45430 0.50000
C1 C 0.60408 0.39592 0.50000
C2 C 0.63668 0.36332 0.50000
N2 N 0.69642 0.39285 0.50000
C3_2 C 0.52987 0.52987 1.00000
C4 C 0.60270 0.48748 0.50000
H1 H 0.62645 0.53503 0.50000
C5 C 0.63424 0.45763 0.50000
H2 H 0.68183 0.48282 0.50000
O2 O 0.44828 0.44828 0.78979
C6_2 C 0.47013 0.47013 1.00000
N3 N 0.54570 0.09139 0.50000
C7 C 0.60408 0.20816 0.50000
C8 C 0.63668 0.27336 0.50000
N4 N 0.60715 0.30357 0.50000
C9 C 0.51252 0.11522 0.50000
H3 H 0.46497 0.09142 0.50000
C10 C 0.54237 0.17661 0.50000
H4 H 0.51718 0.19901 0.50000
N5 N 0.90861 0.45431 0.50000
C11 C 0.79184 0.39592 0.50000
C12 C 0.72664 0.36332 0.50000
N6 N 0.69643 0.30358 0.50000
C13 C 0.88478 0.39730 0.50000
H5 H 0.90858 0.37355 0.50000
C14 C 0.82339 0.36576 0.50000
H6 H 0.80099 0.31817 0.50000
C15 C 0.51252 0.39730 0.50000
H7 H 0.46497 0.37355 0.50000
C16 C 0.54237 0.36576 0.50000
H8 H 0.51718 0.31817 0.50000
C17 C 0.88478 0.48748 0.50000
H9 H 0.90858 0.53503 0.50000
C18 C 0.82339 0.45763 0.50000
H10 H 0.80099 0.48282 0.50000
C19 C 0.60270 0.11522 0.50000
H11 H 0.62645 0.09142 0.50000
C20 C 0.63424 0.17661 0.50000
H12 H 0.68183 0.19901 0.50000
O5 O 0.44828 0.00000 0.78979
C21_2 C 0.47013 0.00000 1.00000
O6 O 0.55172 0.00000 0.78979
C22_2 C 0.52987 0.00000 1.00000
O9_2 O 1.00000 0.44828 0.78979
C23_4 C 1.00000 0.47013 1.00000
O10_2 O 1.00000 0.55172 0.78979
C24_4 C 1.00000 0.52987 1.00000
N7 N 0.45431 0.54570 0.50000
C25 C 0.39592 0.60408 0.50000
C26 C 0.36332 0.63668 0.50000
N8 N 0.30358 0.60715 0.50000
C27 C 0.39730 0.51252 0.50000
H13 H 0.37355 0.46497 0.50000
C28 C 0.36576 0.54237 0.50000
H14 H 0.31817 0.51718 0.50000
N9 N 0.45430 0.90861 0.50000
C29 C 0.39592 0.79184 0.50000
C30 C 0.36332 0.72664 0.50000
N10 N 0.39285 0.69643 0.50000
C31 C 0.48748 0.88478 0.50000
H15 H 0.53503 0.90858 0.50000
C32 C 0.45763 0.82339 0.50000
H16 H 0.48282 0.80099 0.50000
C33 C 0.20816 0.60408 0.50000
C34 C 0.27336 0.63668 0.50000
N12 N 0.30357 0.69642 0.50000
C35 C 0.11522 0.60270 0.50000
H17 H 0.09142 0.62645 0.50000
C36 C 0.17661 0.63424 0.50000
H18 H 0.19901 0.68183 0.50000
C37 C 0.48748 0.60270 0.50000
H19 H 0.53503 0.62645 0.50000
C38 C 0.45763 0.63424 0.50000
H20 H 0.48282 0.68183 0.50000
C39 C 0.11522 0.51252 0.50000
H21 H 0.09142 0.46497 0.50000
C40 C 0.17661 0.54237 0.50000
H22 H 0.19901 0.51718 0.50000
C41 C 0.39730 0.88478 0.50000
H23 H 0.37355 0.90858 0.50000
C42 C 0.36576 0.82339 0.50000
H24 H 0.31817 0.80099 0.50000
Ni6_2 Ni 0.50000 1.00000 0.50000
C21_3 C 0.47013 1.00000 0.00000
C22_3 C 0.52987 1.00000 0.00000
O7_2 O 0.44828 1.00000 0.21021
O8_2 O 0.55172 1.00000 0.21021
O5_2 O 0.44828 1.00000 0.78979
C21_4 C 0.47013 1.00000 1.00000
O6_2 O 0.55172 1.00000 0.78979
C22_4 C 0.52987 1.00000 1.00000
loop_
_geom_bond_atom_site_label_1
_geom_bond_atom_site_label_2
_geom_bond_site_symmetry_1
_geom_bond_site_symmetry_2
C24 C23 1_555 1_555
O11 C23 1_555 1_555
O12 C24 1_555 1_555
Ni8 O11 1_555 1_555
O12 Ni8 1_555 1_555
O9 Ni8 1_555 1_555
C23_2 O9 1_555 1_555
O10 Ni8 1_555 1_555
C24_2 C23_2 1_555 1_555
N14 Ni8 1_555 1_555
O10 C24_2 1_555 1_555
C3 C6 1_555 1_555
O3 C3 1_555 1_555
O4 C6 1_555 1_555
C22 C21 1_555 1_555
O7 C21 1_555 1_555
O8 C22 1_555 1_555
C24_3 C23_3 1_555 1_555
O11_2 C23_3 1_555 1_555
O12_2 C24_3 1_555 1_555
Ni4 O3 1_555 1_555
Ni6 O7 1_555 1_555
Ni8_2 O11_2 1_555 1_555
O4 Ni4 1_555 1_555
O8 Ni6 1_555 1_555
O12_2 Ni8_2 1_555 1_555
Ni4 O1 1_555 1_555
O1 C3_2 1_555 1_555
N1 Ni4 1_555 1_555
C1 C2 1_555 1_555
C2 N2 1_555 1_555
N2 C12 1_555 1_555
C3_2 C6_2 1_555 1_555
C4 N1 1_555 1_555
H1 C4 1_555 1_555
C5 C1 1_555 1_555
H2 C5 1_555 1_555
O2 Ni4 1_555 1_555
C6_2 O2 1_555 1_555
N3 C9 1_555 1_555
C7 C8 1_555 1_555
C8 N4 1_555 1_555
N4 C2 1_555 1_555
C9 H3 1_555 1_555
C10 C7 1_555 1_555
H4 C10 1_555 1_555
N5 C13 1_555 1_555
C11 C12 1_555 1_555
C12 N6 1_555 1_555
N6 C8 1_555 1_555
C13 H5 1_555 1_555
C14 C11 1_555 1_555
H6 C14 1_555 1_555
C15 N1 1_555 1_555
H7 C15 1_555 1_555
C16 C1 1_555 1_555
H8 C16 1_555 1_555
C17 N5 1_555 1_555
H9 C17 1_555 1_555
C18 C11 1_555 1_555
H10 C18 1_555 1_555
C19 N3 1_555 1_555
H11 C19 1_555 1_555
C20 C7 1_555 1_555
H12 C20 1_555 1_555
Ni6 N3 1_555 1_555
O5 Ni6 1_555 1_555
C21_2 O5 1_555 1_555
O6 Ni6 1_555 1_555
C22_2 C21_2 1_555 1_555
Ni8_2 N5 1_555 1_555
O9_2 Ni8_2 1_555 1_555
C23_4 O9_2 1_555 1_555
O10_2 Ni8_2 1_555 1_555
C24_4 C23_4 1_555 1_555
N7 Ni4 1_555 1_555
C25 C26 1_555 1_555
C26 N8 1_555 1_555
N8 C34 1_555 1_555
C27 N7 1_555 1_555
H13 C27 1_555 1_555
C28 C25 1_555 1_555
H14 C28 1_555 1_555
N9 C31 1_555 1_555
C29 C30 1_555 1_555
C30 N10 1_555 1_555
N10 C26 1_555 1_555
C31 H15 1_555 1_555
C32 C29 1_555 1_555
H16 C32 1_555 1_555
N14 C35 1_555 1_555
C33 C34 1_555 1_555
C34 N12 1_555 1_555
N12 C30 1_555 1_555
C35 H17 1_555 1_555
C36 C33 1_555 1_555
H18 C36 1_555 1_555
C37 N7 1_555 1_555
H19 C37 1_555 1_555
C38 C25 1_555 1_555
H20 C38 1_555 1_555
C39 N14 1_555 1_555
H21 C39 1_555 1_555
C40 C33 1_555 1_555
H22 C40 1_555 1_555
C41 N9 1_555 1_555
H23 C41 1_555 1_555
C42 C29 1_555 1_555
H24 C42 1_555 1_555
Ni6_2 N9 1_555 1_555
C4 C5 1_555 1_555
C9 C10 1_555 1_555
C13 C14 1_555 1_555
C15 C16 1_555 1_555
C17 C18 1_555 1_555
C19 C20 1_555 1_555
O6 C22_2 1_555 1_555
O10_2 C24_4 1_555 1_555
C27 C28 1_555 1_555
C31 C32 1_555 1_555
C35 C36 1_555 1_555
C37 C38 1_555 1_555
C39 C40 1_555 1_555
C41 C42 1_555 1_555
C22_3 C21_3 1_555 1_555
O7_2 C21_3 1_555 1_555
O8_2 C22_3 1_555 1_555
Ni6_2 O7_2 1_555 1_555
O8_2 Ni6_2 1_555 1_555
O5_2 Ni6_2 1_555 1_555
C21_4 O5_2 1_555 1_555
O6_2 Ni6_2 1_555 1_555
C22_4 C21_4 1_555 1_555
O6_2 C22_4 1_555 1_555

#END
