
###############################################################################
#
# This file contains modified crystal structure data generated from the
# MOF subset of the Cambridge Structural Database (CSD) v543 
# hosted by the Cambridge Crystallographic Data Centre (CCDC).
#
# This work is licensed under the Creative Commons
# Attribution-NonCommercial-ShareAlike 4.0 International License.
# To view a copy of this license, visit
# http://creativecommons.org/licenses/by-nc-sa/4.0/
# or send a letter to
# Creative Commons, PO Box 1866, Mountain View, CA 94042, USA.
#
# CIF created using the CSD Python API on 29 September 2022
# The structure has been converted into the P1 space group
# The structure has a 3D framework
# The original CSD entry PESSUE is in the hexagonal crystal system
# The original CSD entry PESSUE is in a Sohncke space group
# The framework has been calculated to contain at least 10.0% void space
# The void calculation uses a probe of radius 1.32A, grid spacing 0.4
#
###############################################################################

data_PESSUE
_chemical_formula_moiety         '(C92 H48 N12 Ni5 O20)n'
_symmetry_cell_setting           triclinic
_symmetry_space_group_name_H-M   'P 1'
_symmetry_Int_Tables_number      1
_space_group_name_Hall           'P 1'
loop_
_symmetry_equiv_pos_site_id
_symmetry_equiv_pos_as_xyz
1 x,y,z
_cell_length_a                   41.523(2)
_cell_length_b                   41.523(2)
_cell_length_c                   5.3287(4)
_cell_angle_alpha                90
_cell_angle_beta                 90
_cell_angle_gamma                120
_cell_volume                     7956.63
loop_
_atom_site_label
_atom_site_type_symbol
_atom_site_fract_x
_atom_site_fract_y
_atom_site_fract_z
_atom_site_U_iso_or_equiv
_atom_site_thermal_displace_type
Ni8 Ni 0.00000 0.50000 0.50000 0.8334 Uiso
O5 O 0.46743 -0.00000 0.21131 0.8334 Uiso
C39 C 0.48122 0.00000 0.00000 0.8334 Uiso
Ni2 Ni 0.50000 -0.00000 0.50000 0.8334 Uiso
O7 O 0.53257 -0.00000 0.21131 0.8334 Uiso
C40 C 0.51878 0.00000 0.00000 0.8334 Uiso
O14 O 0.46743 -0.00000 0.78869 0.8334 Uiso
O17 O 0.53257 -0.00000 0.78869 0.8334 Uiso
N13 N 0.52835 0.05670 0.48858 0.8334 Uiso
C39_2 C 0.48122 -0.00000 1.00000 0.8334 Uiso
C40_2 C 0.51878 -0.00000 1.00000 0.8334 Uiso
O1 O 0.53257 0.53257 0.21131 0.8334 Uiso
N1 N 0.47165 0.52835 0.48858 0.8334 Uiso
N2 N 0.37107 0.68554 0.48858 0.8334 Uiso
C1 C 0.43424 0.56576 0.48858 0.8334 Uiso
C2 C 0.41317 0.58683 0.48858 0.8334 Uiso
C3 C 0.37328 0.62672 0.48858 0.8334 Uiso
C4 C 0.35241 0.64759 0.48858 0.8334 Uiso
C5 C 0.43573 0.50763 0.47515 0.8334 Uiso
H1 H 0.42070 0.47762 0.46468 0.8334 Uiso
C6 C 0.41567 0.52667 0.47302 0.8334 Uiso
H2 H 0.38576 0.51063 0.45575 0.8334 Uiso
C7 C 0.42930 0.62342 0.39395 0.8334 Uiso
H3 H 0.45691 0.63692 0.31393 0.8334 Uiso
C8 C 0.40985 0.64309 0.39623 0.8334 Uiso
H4 H 0.42332 0.67105 0.32123 0.8334 Uiso
C9 C 0.51878 0.51878 0.00000 0.8334 Uiso
C10 C 0.47333 0.58433 0.50414 0.8334 Uiso
H5 H 0.48937 0.61424 0.52141 0.8334 Uiso
C11 C 0.49237 0.56427 0.50201 0.8334 Uiso
H6 H 0.52238 0.57930 0.51248 0.8334 Uiso
C12 C 0.37658 0.57070 0.58321 0.8334 Uiso
H7 H 0.36308 0.54309 0.66323 0.8334 Uiso
C13 C 0.35691 0.59015 0.58093 0.8334 Uiso
H8 H 0.32895 0.57668 0.65593 0.8334 Uiso
Ni1 Ni 0.50000 0.50000 0.50000 0.8334 Uiso
O3 O 0.46743 0.46743 0.21131 0.8334 Uiso
C14 C 0.48122 0.48122 0.00000 0.8334 Uiso
N3 N 0.47165 0.94330 0.48858 0.8334 Uiso
N4 N 0.31446 0.68553 0.48858 0.8334 Uiso
C15 C 0.43424 0.86848 0.48858 0.8334 Uiso
C16 C 0.41317 0.82634 0.48858 0.8334 Uiso
C17 C 0.37328 0.74656 0.48858 0.8334 Uiso
C18 C 0.35241 0.70482 0.48858 0.8334 Uiso
C19 C 0.49237 0.92810 0.47515 0.8334 Uiso
H9 H 0.52238 0.94308 0.46468 0.8334 Uiso
C20 C 0.47333 0.88900 0.47302 0.8334 Uiso
H10 H 0.48937 0.87513 0.45575 0.8334 Uiso
C21 C 0.37658 0.80588 0.39395 0.8334 Uiso
H11 H 0.36308 0.81999 0.31393 0.8334 Uiso
C22 C 0.35691 0.76676 0.39623 0.8334 Uiso
H12 H 0.32895 0.75227 0.32123 0.8334 Uiso
C23 C 0.41567 0.88900 0.50414 0.8334 Uiso
H13 H 0.38576 0.87513 0.52141 0.8334 Uiso
C24 C 0.43573 0.92810 0.50201 0.8334 Uiso
H14 H 0.42070 0.94308 0.51248 0.8334 Uiso
C25 C 0.42930 0.80588 0.58321 0.8334 Uiso
H15 H 0.45691 0.81999 0.66323 0.8334 Uiso
C26 C 0.40985 0.76676 0.58093 0.8334 Uiso
H16 H 0.42332 0.75227 0.65593 0.8334 Uiso
N5 N 0.05670 0.52835 0.48858 0.8334 Uiso
N6 N 0.31447 0.62893 0.48858 0.8334 Uiso
C27 C 0.13152 0.56576 0.48858 0.8334 Uiso
C28 C 0.17366 0.58683 0.48858 0.8334 Uiso
C29 C 0.25344 0.62672 0.48858 0.8334 Uiso
C30 C 0.29518 0.64759 0.48858 0.8334 Uiso
C31 C 0.07190 0.56427 0.47515 0.8334 Uiso
H17 H 0.05692 0.57930 0.46468 0.8334 Uiso
C32 C 0.11100 0.58433 0.47302 0.8334 Uiso
H18 H 0.12487 0.61424 0.45575 0.8334 Uiso
C33 C 0.19412 0.57070 0.39395 0.8334 Uiso
H19 H 0.18001 0.54309 0.31393 0.8334 Uiso
C34 C 0.23324 0.59015 0.39623 0.8334 Uiso
H20 H 0.24773 0.57668 0.32123 0.8334 Uiso
C35 C 0.11100 0.52667 0.50414 0.8334 Uiso
H21 H 0.12487 0.51063 0.52141 0.8334 Uiso
C36 C 0.07190 0.50763 0.50201 0.8334 Uiso
H22 H 0.05692 0.47762 0.51248 0.8334 Uiso
C37 C 0.19412 0.62342 0.58321 0.8334 Uiso
H23 H 0.18001 0.63692 0.66323 0.8334 Uiso
C38 C 0.23324 0.64309 0.58093 0.8334 Uiso
H24 H 0.24773 0.67105 0.65593 0.8334 Uiso
O5_2 O 0.46743 1.00000 0.21131 0.8334 Uiso
C39_3 C 0.48122 1.00000 0.00000 0.8334 Uiso
Ni2_2 Ni 0.50000 1.00000 0.50000 0.8334 Uiso
O7_2 O 0.53257 1.00000 0.21131 0.8334 Uiso
C40_3 C 0.51878 1.00000 0.00000 0.8334 Uiso
O9 O -0.00000 0.46743 0.21131 0.8334 Uiso
C41 C 0.00000 0.48122 0.00000 0.8334 Uiso
O11 O 0.00000 0.53257 0.21131 0.8334 Uiso
C42 C 0.00000 0.51878 0.00000 0.8334 Uiso
N7 N 0.52835 0.47165 0.48858 0.8334 Uiso
N8 N 0.62893 0.31446 0.48858 0.8334 Uiso
C43 C 0.56576 0.43424 0.48858 0.8334 Uiso
C44 C 0.58683 0.41317 0.48858 0.8334 Uiso
C45 C 0.62672 0.37328 0.48858 0.8334 Uiso
C46 C 0.64759 0.35241 0.48858 0.8334 Uiso
C47 C 0.56427 0.49237 0.47515 0.8334 Uiso
H25 H 0.57930 0.52238 0.46468 0.8334 Uiso
C48 C 0.58433 0.47333 0.47302 0.8334 Uiso
H26 H 0.61424 0.48937 0.45575 0.8334 Uiso
C49 C 0.57070 0.37658 0.39395 0.8334 Uiso
H27 H 0.54309 0.36308 0.31393 0.8334 Uiso
C50 C 0.59015 0.35691 0.39623 0.8334 Uiso
H28 H 0.57668 0.32895 0.32123 0.8334 Uiso
C51 C 0.52667 0.41567 0.50414 0.8334 Uiso
H29 H 0.51063 0.38576 0.52141 0.8334 Uiso
C52 C 0.50763 0.43573 0.50201 0.8334 Uiso
H30 H 0.47762 0.42070 0.51248 0.8334 Uiso
C53 C 0.62342 0.42930 0.58321 0.8334 Uiso
H31 H 0.63692 0.45691 0.66323 0.8334 Uiso
C54 C 0.64309 0.40985 0.58093 0.8334 Uiso
H32 H 0.67105 0.42332 0.65593 0.8334 Uiso
N10 N 0.68554 0.31447 0.48858 0.8334 Uiso
C55 C 0.56576 0.13152 0.48858 0.8334 Uiso
C56 C 0.58683 0.17366 0.48858 0.8334 Uiso
C57 C 0.62672 0.25344 0.48858 0.8334 Uiso
C58 C 0.64759 0.29518 0.48858 0.8334 Uiso
C59 C 0.50763 0.07190 0.47515 0.8334 Uiso
H33 H 0.47762 0.05692 0.46468 0.8334 Uiso
C60 C 0.52667 0.11100 0.47302 0.8334 Uiso
H34 H 0.51063 0.12487 0.45575 0.8334 Uiso
C61 C 0.62342 0.19412 0.39395 0.8334 Uiso
H35 H 0.63692 0.18001 0.31393 0.8334 Uiso
C62 C 0.64309 0.23324 0.39623 0.8334 Uiso
H36 H 0.67105 0.24773 0.32123 0.8334 Uiso
C63 C 0.58433 0.11100 0.50414 0.8334 Uiso
H37 H 0.61424 0.12487 0.52141 0.8334 Uiso
C64 C 0.56427 0.07190 0.50201 0.8334 Uiso
H38 H 0.57930 0.05692 0.51248 0.8334 Uiso
C65 C 0.57070 0.19412 0.58321 0.8334 Uiso
H39 H 0.54309 0.18001 0.66323 0.8334 Uiso
C66 C 0.59015 0.23324 0.58093 0.8334 Uiso
H40 H 0.57668 0.24773 0.65593 0.8334 Uiso
N11 N 0.94330 0.47165 0.48858 0.8334 Uiso
N12 N 0.68553 0.37107 0.48858 0.8334 Uiso
C67 C 0.86848 0.43424 0.48858 0.8334 Uiso
C68 C 0.82634 0.41317 0.48858 0.8334 Uiso
C69 C 0.74656 0.37328 0.48858 0.8334 Uiso
C70 C 0.70482 0.35241 0.48858 0.8334 Uiso
C71 C 0.92810 0.43573 0.47515 0.8334 Uiso
H41 H 0.94308 0.42070 0.46468 0.8334 Uiso
C72 C 0.88900 0.41567 0.47302 0.8334 Uiso
H42 H 0.87513 0.38576 0.45575 0.8334 Uiso
C73 C 0.80588 0.42930 0.39395 0.8334 Uiso
H43 H 0.81999 0.45691 0.31393 0.8334 Uiso
C74 C 0.76676 0.40985 0.39623 0.8334 Uiso
H44 H 0.75227 0.42332 0.32123 0.8334 Uiso
C75 C 0.88900 0.47333 0.50414 0.8334 Uiso
H45 H 0.87513 0.48937 0.52141 0.8334 Uiso
C76 C 0.92810 0.49237 0.50201 0.8334 Uiso
H46 H 0.94308 0.52238 0.51248 0.8334 Uiso
C77 C 0.80588 0.37658 0.58321 0.8334 Uiso
H47 H 0.81999 0.36308 0.66323 0.8334 Uiso
C78 C 0.76676 0.35691 0.58093 0.8334 Uiso
H48 H 0.75227 0.32895 0.65593 0.8334 Uiso
O13 O 0.53257 0.53257 0.78869 0.8334 Uiso
O14_2 O 0.46743 1.00000 0.78869 0.8334 Uiso
O15 O -0.00000 0.46743 0.78869 0.8334 Uiso
O16 O 0.46743 0.46743 0.78869 0.8334 Uiso
O17_2 O 0.53257 1.00000 0.78869 0.8334 Uiso
O18 O 0.00000 0.53257 0.78869 0.8334 Uiso
Ni8_2 Ni 1.00000 0.50000 0.50000 0.8334 Uiso
C9_2 C 0.51878 0.51878 1.00000 0.8334 Uiso
C14_2 C 0.48122 0.48122 1.00000 0.8334 Uiso
C39_4 C 0.48122 1.00000 1.00000 0.8334 Uiso
C40_4 C 0.51878 1.00000 1.00000 0.8334 Uiso
C41_2 C -0.00000 0.48122 1.00000 0.8334 Uiso
C42_2 C 0.00000 0.51878 1.00000 0.8334 Uiso
O9_2 O 1.00000 0.46743 0.21131 0.8334 Uiso
C41_3 C 1.00000 0.48122 0.00000 0.8334 Uiso
O11_2 O 1.00000 0.53257 0.21131 0.8334 Uiso
C42_3 C 1.00000 0.51878 0.00000 0.8334 Uiso
O15_2 O 1.00000 0.46743 0.78869 0.8334 Uiso
O18_2 O 1.00000 0.53257 0.78869 0.8334 Uiso
C41_4 C 1.00000 0.48122 1.00000 0.8334 Uiso
C42_4 C 1.00000 0.51878 1.00000 0.8334 Uiso
loop_
_geom_bond_atom_site_label_1
_geom_bond_atom_site_label_2
_geom_bond_site_symmetry_1
_geom_bond_site_symmetry_2
O5 C39 1_555 1_555
C39 C40 1_555 1_555
O7 Ni2 1_555 1_555
C40 O7 1_555 1_555
O14 Ni2 1_555 1_555
O17 Ni2 1_555 1_555
N13 Ni2 1_555 1_555
O5 Ni2 1_555 1_555
O14 C39_2 1_555 1_555
C39_2 C40_2 1_555 1_555
O17 C40_2 1_555 1_555
O1 C9 1_555 1_555
N1 C5 1_555 1_555
N2 C4 1_555 1_555
C1 C2 1_555 1_555
C2 C7 1_555 1_555
C3 C4 1_555 1_555
C4 N6 1_555 1_555
C5 H1 1_555 1_555
C6 C1 1_555 1_555
H2 C6 1_555 1_555
C7 H3 1_555 1_555
C8 C3 1_555 1_555
H4 C8 1_555 1_555
C9 C14 1_555 1_555
C10 C1 1_555 1_555
H5 C10 1_555 1_555
C11 N1 1_555 1_555
H6 C11 1_555 1_555
C12 C2 1_555 1_555
H7 C12 1_555 1_555
C13 C3 1_555 1_555
H8 C13 1_555 1_555
Ni1 O1 1_555 1_555
O3 Ni1 1_555 1_555
C14 O3 1_555 1_555
N3 C19 1_555 1_555
N4 C18 1_555 1_555
C15 C16 1_555 1_555
C16 C21 1_555 1_555
C17 C18 1_555 1_555
C18 N2 1_555 1_555
C19 H9 1_555 1_555
C20 C15 1_555 1_555
H10 C20 1_555 1_555
C21 H11 1_555 1_555
C22 C17 1_555 1_555
H12 C22 1_555 1_555
C23 C15 1_555 1_555
H13 C23 1_555 1_555
C24 N3 1_555 1_555
H14 C24 1_555 1_555
C25 C16 1_555 1_555
H15 C25 1_555 1_555
C26 C17 1_555 1_555
H16 C26 1_555 1_555
N5 C31 1_555 1_555
N6 C30 1_555 1_555
C27 C28 1_555 1_555
C28 C33 1_555 1_555
C29 C30 1_555 1_555
C30 N4 1_555 1_555
C31 H17 1_555 1_555
C32 C27 1_555 1_555
H18 C32 1_555 1_555
C33 H19 1_555 1_555
C34 C29 1_555 1_555
H20 C34 1_555 1_555
C35 C27 1_555 1_555
H21 C35 1_555 1_555
C36 N5 1_555 1_555
H22 C36 1_555 1_555
C37 C28 1_555 1_555
H23 C37 1_555 1_555
C38 C29 1_555 1_555
H24 C38 1_555 1_555
O5_2 C39_3 1_555 1_555
C39_3 C40_3 1_555 1_555
Ni2_2 N3 1_555 1_555
O7_2 Ni2_2 1_555 1_555
C40_3 O7_2 1_555 1_555
O9 C41 1_555 1_555
C41 C42 1_555 1_555
Ni8 N5 1_555 1_555
O11 Ni8 1_555 1_555
C42 O11 1_555 1_555
N7 Ni1 1_555 1_555
N8 C46 1_555 1_555
C43 C44 1_555 1_555
C44 C49 1_555 1_555
C45 C46 1_555 1_555
C46 N12 1_555 1_555
C47 N7 1_555 1_555
H25 C47 1_555 1_555
C48 C43 1_555 1_555
H26 C48 1_555 1_555
C49 H27 1_555 1_555
C50 C45 1_555 1_555
H28 C50 1_555 1_555
C51 C43 1_555 1_555
H29 C51 1_555 1_555
C52 N7 1_555 1_555
H30 C52 1_555 1_555
C53 C44 1_555 1_555
H31 C53 1_555 1_555
C54 C45 1_555 1_555
H32 C54 1_555 1_555
N13 C59 1_555 1_555
N10 C58 1_555 1_555
C55 C56 1_555 1_555
C56 C61 1_555 1_555
C57 C58 1_555 1_555
C58 N8 1_555 1_555
C59 H33 1_555 1_555
C60 C55 1_555 1_555
H34 C60 1_555 1_555
C61 H35 1_555 1_555
C62 C57 1_555 1_555
H36 C62 1_555 1_555
C63 C55 1_555 1_555
H37 C63 1_555 1_555
C64 N13 1_555 1_555
H38 C64 1_555 1_555
C65 C56 1_555 1_555
H39 C65 1_555 1_555
C66 C57 1_555 1_555
H40 C66 1_555 1_555
N11 C71 1_555 1_555
N12 C70 1_555 1_555
C67 C68 1_555 1_555
C68 C73 1_555 1_555
C69 C70 1_555 1_555
C70 N10 1_555 1_555
C71 H41 1_555 1_555
C72 C67 1_555 1_555
H42 C72 1_555 1_555
C73 H43 1_555 1_555
C74 C69 1_555 1_555
H44 C74 1_555 1_555
C75 C67 1_555 1_555
H45 C75 1_555 1_555
C76 N11 1_555 1_555
H46 C76 1_555 1_555
C77 C68 1_555 1_555
H47 C77 1_555 1_555
C78 C69 1_555 1_555
H48 C78 1_555 1_555
O13 Ni1 1_555 1_555
O14_2 Ni2_2 1_555 1_555
O15 Ni8 1_555 1_555
O16 Ni1 1_555 1_555
O17_2 Ni2_2 1_555 1_555
O18 Ni8 1_555 1_555
Ni8_2 N11 1_555 1_555
N1 Ni1 1_555 1_555
C5 C6 1_555 1_555
C7 C8 1_555 1_555
C10 C11 1_555 1_555
C12 C13 1_555 1_555
C19 C20 1_555 1_555
C21 C22 1_555 1_555
C23 C24 1_555 1_555
C25 C26 1_555 1_555
C31 C32 1_555 1_555
C33 C34 1_555 1_555
C35 C36 1_555 1_555
C37 C38 1_555 1_555
O5_2 Ni2_2 1_555 1_555
O9 Ni8 1_555 1_555
C47 C48 1_555 1_555
C49 C50 1_555 1_555
C51 C52 1_555 1_555
C53 C54 1_555 1_555
C59 C60 1_555 1_555
C61 C62 1_555 1_555
C63 C64 1_555 1_555
C65 C66 1_555 1_555
C71 C72 1_555 1_555
C73 C74 1_555 1_555
C75 C76 1_555 1_555
C77 C78 1_555 1_555
O13 C9_2 1_555 1_555
C9_2 C14_2 1_555 1_555
O16 C14_2 1_555 1_555
O14_2 C39_4 1_555 1_555
C39_4 C40_4 1_555 1_555
O17_2 C40_4 1_555 1_555
O15 C41_2 1_555 1_555
C41_2 C42_2 1_555 1_555
O18 C42_2 1_555 1_555
O9_2 C41_3 1_555 1_555
C41_3 C42_3 1_555 1_555
O11_2 Ni8_2 1_555 1_555
C42_3 O11_2 1_555 1_555
O15_2 Ni8_2 1_555 1_555
O18_2 Ni8_2 1_555 1_555
O9_2 Ni8_2 1_555 1_555
O15_2 C41_4 1_555 1_555
C41_4 C42_4 1_555 1_555
O18_2 C42_4 1_555 1_555

#END
