
###############################################################################
#
# This file contains modified crystal structure data generated from the
# MOF subset of the Cambridge Structural Database (CSD) v543 
# hosted by the Cambridge Crystallographic Data Centre (CCDC).
#
# This work is licensed under the Creative Commons
# Attribution-NonCommercial-ShareAlike 4.0 International License.
# To view a copy of this license, visit
# http://creativecommons.org/licenses/by-nc-sa/4.0/
# or send a letter to
# Creative Commons, PO Box 1866, Mountain View, CA 94042, USA.
#
# CIF created using the CSD Python API on 29 September 2022
# The structure has been converted into the P1 space group
# The structure has a 3D framework
# The original CSD entry PESYOE is in the orthorhombic crystal system
# The framework has been calculated to contain at least 10.0% void space
# The void calculation uses a probe of radius 1.32A, grid spacing 0.4
#
###############################################################################

data_PESYOE
_chemical_formula_moiety         '(C56 H48 Cl8 N8 O38 Pd4 Zn6)n'
_symmetry_cell_setting           triclinic
_symmetry_space_group_name_H-M   'P 1'
_symmetry_Int_Tables_number      1
_space_group_name_Hall           'P 1'
loop_
_symmetry_equiv_pos_site_id
_symmetry_equiv_pos_as_xyz
1 x,y,z
_cell_length_a                   22.901(7)
_cell_length_b                   12.825(4)
_cell_length_c                   14.820(5)
_cell_angle_alpha                90
_cell_angle_beta                 90
_cell_angle_gamma                90
_cell_volume                     4352.71
loop_
_atom_site_label
_atom_site_type_symbol
_atom_site_fract_x
_atom_site_fract_y
_atom_site_fract_z
Pd1 Pd 0.23898(4) 0.47208(10) 0.3195(2)
Zn1 Zn 0.01647(6) 0.75592(12) 0.5629(2)
Cl1 Cl 0.2339(2) 0.4320(5) 0.4678(4)
Cl2 Cl 0.2422(2) 0.5178(4) 0.1712(4)
O1 O 0.4330(4) 0.3428(8) 0.1403(6)
O2 O 0.4832(4) 0.6440(7) 0.4772(7)
O3 O 0.0687(4) 0.6772(7) 0.4852(6)
O4 O 0.0524(4) 0.2886(6) 0.1411(5)
O7 O 0.3994(4) 0.6060(9) 0.5531(8)
O8 O 0.5119(4) 0.4139(9) 0.2040(7)
N1 N 0.1515(4) 0.4727(9) 0.3175(11)
N2 N 0.3271(4) 0.4792(9) 0.3287(9)
C1 C 0.0634(6) 0.5449(12) 0.3764(11)
C2 C 0.1228(6) 0.5382(11) 0.3767(10)
C3 C 0.0313(7) 0.6137(9) 0.4395(8)
C4 C 0.0299(5) 0.4879(10) 0.3096(10)
C5 C 0.0290 0.3720 0.1770
C6 C 0.4107(6) 0.5468(11) 0.4064(10)
C7 C 0.4469(5) 0.5067(10) 0.3351(11)
C8 C 0.4637(7) 0.3970(10) 0.1989(9)
C9 C 0.4238(5) 0.4536(11) 0.2674(10)
C10 C 0.1217(6) 0.4155(11) 0.2572(10)
C11 C 0.3619(6) 0.4361(12) 0.2633(9)
C12 C 0.0594(5) 0.4228(12) 0.2528(9)
C13 C 0.3505(6) 0.5355(11) 0.3984(9)
C14 C 0.4324(7) 0.6085(14) 0.4825(11)
H1 H 0.4876 0.5211 0.3359
H2 H 0.3449 0.3958 0.2163
H3 H 0.3255 0.5675 0.4413
H4 H 0.1424 0.3721 0.2164
H6 H 0.1445 0.5789 0.4183
Zn2 Zn 0.09612(6) 0.14861(13) 0.1832(2)
O9 O 0.1810(5) 0.2066(10) 0.1635(12)
O10 O 0.0984(5) 0.1918(10) 0.3149(10)
H7 H 0.0661 0.1774 0.3532
H8 H 0.1317 0.2269 0.3381
H9 H 0.2135 0.1752 0.1926
H10 H 0.1866 0.2655 0.1255
Zn3 Zn 0.48353(6) 0.25592(12) 0.0629(2)
Zn4 Zn 0.51647(6) 0.74408(12) 0.5629(2)
O12 O 0.0670(4) 0.8428(8) 0.6403(6)
O15 O 0.0238(3) 0.6233(7) 0.6783(8)
O16 O 0.1006(4) 0.1060(9) 0.0531(8)
O17 O 0.0119(4) 0.0861(9) 0.2040(7)
Zn6 Zn 0.40388(6) 0.64861(13) 0.6832(2)
Zn7 Zn 0.59612(6) 0.35139(13) 0.1832(2)
O5 O 0.9762(3) 0.3767(7) 0.1783(8)
O6 O 0.9827(4) 0.6181(9) 0.4507(8)
H5 H 0.9888 0.4966 0.3058
Zn5 Zn 0.98353(6) 0.24408(12) 0.0629(2)
O13 O 0.9832(4) 0.8560(7) 0.4772(7)
O14 O 0.9476(4) 0.7114(6) 0.6411(5)
O14_2 O 0.5524(4) 0.2114(6) 0.1411(5)
O15_2 O 0.4762(3) 0.1233(7) 0.1783(8)
Cl2_2 Cl 0.2578(2) 0.0178(4) 0.6712(4)
O2_2 O 0.0168(4) 0.1440(7) 0.9772(7)
O3_2 O 0.4313(4) 0.1772(7) 0.9852(6)
O6_2 O 0.5173(4) 0.1181(9) 0.9507(8)
C1_2 C 0.4366(6) 0.0449(12) 0.8764(11)
C2_2 C 0.3772(6) 0.0382(11) 0.8767(10)
C3_2 C 0.4687(7) 0.1137(9) 0.9395(8)
C6_2 C 0.0893(6) 0.0468(11) 0.9064(10)
C7_2 C 0.0531(5) 0.0067(10) 0.8351(11)
C13_2 C 0.1495(6) 0.0355(11) 0.8984(9)
C14_2 C 0.0676(7) 0.1085(14) 0.9825(11)
H1_2 H 0.0124 0.0211 0.8359
H3_2 H 0.1745 0.0675 0.9413
H6_2 H 0.3555 0.0789 0.9183
O13_2 O 0.5168(4) 0.3560(7) 0.9772(7)
Pd1_2 Pd 0.26102(4) 0.97208(10) 0.8195(2)
Cl1_2 Cl 0.2661(2) 0.9320(5) 0.9678(4)
O4_2 O 0.4476(4) 0.7886(6) 0.6411(5)
O5_2 O 0.5238(3) 0.8767(7) 0.6783(8)
N1_2 N 0.3485(4) 0.9727(9) 0.8175(11)
N2_2 N 0.1729(4) 0.9792(9) 0.8287(9)
C4_2 C 0.4701(5) 0.9879(10) 0.8096(10)
C5_2 C 0.4710 0.8720 0.6770
C8_2 C 0.0363(7) 0.8970(10) 0.6989(9)
C9_2 C 0.0762(5) 0.9536(11) 0.7674(10)
C10_2 C 0.3783(6) 0.9155(11) 0.7572(10)
C11_2 C 0.1381(6) 0.9361(12) 0.7633(9)
C12_2 C 0.4406(5) 0.9228(12) 0.7528(9)
H2_2 H 0.1551 0.8958 0.7163
H4_2 H 0.3576 0.8721 0.7164
H5_2 H 0.5112 0.9966 0.8058
O9_2 O 0.3190(5) 0.7066(10) 0.6635(12)
O10_2 O 0.4016(5) 0.6918(10) 0.8149(10)
O11 O 0.3702(5) 0.4978(13) 0.7180(9)
H7_2 H 0.4339 0.6774 0.8532
H8_2 H 0.3683 0.7269 0.8381
H9_2 H 0.2865 0.6752 0.6926
H10_2 H 0.3134 0.7655 0.6255
H11 H 0.3963 0.4431 0.7333
H12 H 0.3293 0.4857 0.7183
O17_2 O 0.4881(4) 0.5861(9) 0.7040(7)
O8_2 O 0.9881(4) 0.9139(9) 0.7040(7)
Zn7_2 Zn 0.90388(6) 0.85139(13) 0.6832(2)
Pd1_3 Pd 0.73898(4) 0.02792(10) 0.3195(2)
Cl1_3 Cl 0.7339(2) 0.0680(5) 0.4678(4)
O1_2 O 0.9330(4) 0.1572(8) 0.1403(6)
N1_3 N 0.6515(4) 0.0273(9) 0.3175(11)
N2_3 N 0.8271(4) 0.0208(9) 0.3287(9)
C4_3 C 0.5299(5) 0.0121(10) 0.3096(10)
C5_3 C 0.5290 0.1280 0.1770
C8_3 C 0.9637(7) 0.1030(10) 0.1989(9)
C9_3 C 0.9238(5) 0.0464(11) 0.2674(10)
C10_3 C 0.6217(6) 0.0845(11) 0.2572(10)
C11_3 C 0.8619(6) 0.0639(12) 0.2633(9)
C12_3 C 0.5594(5) 0.0772(12) 0.2528(9)
H2_3 H 0.8449 0.1042 0.2163
H4_3 H 0.6424 0.1279 0.2164
H5_3 H 0.4888 0.0034 0.3058
O9_3 O 0.6810(5) 0.2934(10) 0.1635(12)
O10_3 O 0.5984(5) 0.3082(10) 0.3149(10)
O11_2 O 0.6298(5) 0.5022(13) 0.2180(9)
H7_3 H 0.5661 0.3226 0.3532
H8_3 H 0.6317 0.2731 0.3381
H9_3 H 0.7135 0.3248 0.1926
H10_3 H 0.6866 0.2345 0.1255
H11_2 H 0.6037 0.5569 0.2333
H12_2 H 0.6707 0.5143 0.2183
O16_2 O 0.6006(4) 0.3940(9) 0.0531(8)
Cl2_3 Cl 0.7422(2) 0.9822(4) 0.1712(4)
O3_3 O 0.5687(4) 0.8228(7) 0.4852(6)
O6_3 O 0.4827(4) 0.8819(9) 0.4507(8)
O7_2 O 0.8994(4) 0.8940(9) 0.5531(8)
C1_3 C 0.5634(6) 0.9551(12) 0.3764(11)
C2_3 C 0.6228(6) 0.9618(11) 0.3767(10)
C3_3 C 0.5313(7) 0.8863(9) 0.4395(8)
C6_3 C 0.9107(6) 0.9532(11) 0.4064(10)
C7_3 C 0.9469(5) 0.9933(10) 0.3351(11)
C13_3 C 0.8505(6) 0.9645(11) 0.3984(9)
C14_3 C 0.9324(7) 0.8915(14) 0.4825(11)
H1_3 H 0.9876 0.9789 0.3359
H3_3 H 0.8255 0.9325 0.4413
H6_3 H 0.6445 0.9211 0.4183
O12_2 O 0.5670(4) 0.6572(8) 0.6403(6)
O6_4 O 0.0173(4) 0.3819(9) 0.9507(8)
H5_4 H 0.0112 0.5034 0.8058
Pd1_4 Pd 0.76102(4) 0.52792(10) 0.8195(2)
Cl1_4 Cl 0.7661(2) 0.5680(5) 0.9678(4)
Cl2_4 Cl 0.7578(2) 0.4822(4) 0.6712(4)
O3_4 O 0.9313(4) 0.3228(7) 0.9852(6)
N1_4 N 0.8485(4) 0.5273(9) 0.8175(11)
N2_4 N 0.6729(4) 0.5208(9) 0.8287(9)
C1_4 C 0.9366(6) 0.4551(12) 0.8764(11)
C2_4 C 0.8772(6) 0.4618(11) 0.8767(10)
C3_4 C 0.9687(7) 0.3863(9) 0.9395(8)
C4_4 C 0.9701(5) 0.5121(10) 0.8096(10)
C5_4 C 0.9710 0.6280 0.6770
C6_4 C 0.5893(6) 0.4532(11) 0.9064(10)
C7_4 C 0.5531(5) 0.4933(10) 0.8351(11)
C8_4 C 0.5363(7) 0.6030(10) 0.6989(9)
C9_4 C 0.5762(5) 0.5464(11) 0.7674(10)
C10_4 C 0.8783(6) 0.5845(11) 0.7572(10)
C11_4 C 0.6381(6) 0.5639(12) 0.7633(9)
C12_4 C 0.9406(5) 0.5772(12) 0.7528(9)
C13_4 C 0.6495(6) 0.4645(11) 0.8984(9)
C14_4 C 0.5676(7) 0.3915(14) 0.9825(11)
H1_4 H 0.5124 0.4789 0.8359
H2_4 H 0.6551 0.6042 0.7163
H3_4 H 0.6745 0.4325 0.9413
H4_4 H 0.8576 0.6279 0.7164
H6_4 H 0.8555 0.4211 0.9183
O9_4 O 0.8190(5) 0.7934(10) 0.6635(12)
O10_4 O 0.9016(5) 0.8082(10) 0.8149(10)
H7_4 H 0.9339 0.8226 0.8532
H8_4 H 0.8683 0.7731 0.8381
H9_4 H 0.7865 0.8248 0.6926
H10_4 H 0.8134 0.7345 0.6255
O11_3 O 0.1298(5) 0.9978(13) 0.2180(9)
H11_3 H 0.1037 0.9431 0.2333
H12_3 H 0.1707 0.9857 0.2183
O11_4 O 0.8702(5) 0.0022(13) 0.7180(9)
H11_4 H 0.8963 0.0569 0.7333
H12_4 H 0.8293 0.0143 0.7183
loop_
_geom_bond_atom_site_label_1
_geom_bond_atom_site_label_2
_geom_bond_site_symmetry_1
_geom_bond_site_symmetry_2
Pd1 Cl1 1_555 1_555
Zn1 O3 1_555 1_555
Cl2 Pd1 1_555 1_555
O1 C8 1_555 1_555
O2 C14 1_555 1_555
O3 C3 1_555 1_555
O4 C5 1_555 1_555
O7 C14 1_555 1_555
O8 C8 1_555 1_555
N1 Pd1 1_555 1_555
N2 Pd1 1_555 1_555
C1 C2 1_555 1_555
C2 N1 1_555 1_555
C4 C1 1_555 1_555
C5 C12 1_555 1_555
C6 C7 1_555 1_555
C7 C9 1_555 1_555
C8 C9 1_555 1_555
C9 C11 1_555 1_555
C10 N1 1_555 1_555
C11 N2 1_555 1_555
C12 C4 1_555 1_555
C13 N2 1_555 1_555
C14 C6 1_555 1_555
H1 C7 1_555 1_555
H2 C11 1_555 1_555
H3 C13 1_555 1_555
H4 C10 1_555 1_555
H6 C2 1_555 1_555
Zn2 O4 1_555 1_555
O9 Zn2 1_555 1_555
O10 Zn2 1_555 1_555
H7 O10 1_555 1_555
H8 O10 1_555 1_555
H9 O9 1_555 1_555
H10 O9 1_555 1_555
Zn3 O1 1_555 1_555
Zn4 O2 1_555 1_555
O12 Zn1 1_555 1_555
O15 Zn1 1_555 1_555
O16 Zn2 1_555 1_555
O17 Zn2 1_555 1_555
Zn6 O7 1_555 1_555
Zn7 O8 1_555 1_555
C1 C3 1_555 1_555
C6 C13 1_555 1_555
C10 C12 1_555 1_555
O5 Zn5 1_555 1_555
O14_2 Zn3 1_555 1_555
O15_2 Zn3 1_555 1_555
O2_2 C14_2 1_555 1_555
O3_2 C3_2 1_555 1_555
C1_2 C2_2 1_555 1_555
C3_2 O6_2 1_555 1_555
C6_2 C7_2 1_555 1_555
C14_2 C6_2 1_555 1_555
H1_2 C7_2 1_555 1_555
H3_2 C13_2 1_555 1_555
H6_2 C2_2 1_555 1_555
C1_2 C3_2 1_555 1_555
C6_2 C13_2 1_555 1_555
Pd1_2 Cl1_2 1_555 1_555
O12 C8_2 1_555 1_555
O4_2 C5_2 1_555 1_555
O5_2 C5_2 1_555 1_555
N1_2 Pd1_2 1_555 1_555
N2_2 Pd1_2 1_555 1_555
C5_2 C12_2 1_555 1_555
C8_2 C9_2 1_555 1_555
C9_2 C11_2 1_555 1_555
C10_2 N1_2 1_555 1_555
C11_2 N2_2 1_555 1_555
C12_2 C4_2 1_555 1_555
H2_2 C11_2 1_555 1_555
H4_2 C10_2 1_555 1_555
H5_2 C4_2 1_555 1_555
Zn6 O4_2 1_555 1_555
O9_2 Zn6 1_555 1_555
O10_2 Zn6 1_555 1_555
O11 Zn6 1_555 1_555
H7_2 O10_2 1_555 1_555
H8_2 O10_2 1_555 1_555
H9_2 O9_2 1_555 1_555
H10_2 O9_2 1_555 1_555
H11 O11 1_555 1_555
H12 O11 1_555 1_555
Zn4 O4_2 1_555 1_555
O17_2 Zn6 1_555 1_555
O5_2 Zn4 1_555 1_555
C10_2 C12_2 1_555 1_555
Zn7_2 O8_2 1_555 1_555
Pd1_3 Cl1_3 1_555 1_555
O1_2 C8_3 1_555 1_555
O14_2 C5_3 1_555 1_555
O15_2 C5_3 1_555 1_555
N1_3 Pd1_3 1_555 1_555
N2_3 Pd1_3 1_555 1_555
C5_3 C12_3 1_555 1_555
C8_3 C9_3 1_555 1_555
C9_3 C11_3 1_555 1_555
C10_3 N1_3 1_555 1_555
C11_3 N2_3 1_555 1_555
C12_3 C4_3 1_555 1_555
H2_3 C11_3 1_555 1_555
H4_3 C10_3 1_555 1_555
H5_3 C4_3 1_555 1_555
Zn7 O14_2 1_555 1_555
O9_3 Zn7 1_555 1_555
O10_3 Zn7 1_555 1_555
O11_2 Zn7 1_555 1_555
H7_3 O10_3 1_555 1_555
H8_3 O10_3 1_555 1_555
H9_3 O9_3 1_555 1_555
H10_3 O9_3 1_555 1_555
H11_2 O11_2 1_555 1_555
H12_2 O11_2 1_555 1_555
Zn5 O1_2 1_555 1_555
O16_2 Zn7 1_555 1_555
C10_3 C12_3 1_555 1_555
Zn4 O3_3 1_555 1_555
O13 C14_3 1_555 1_555
O3_3 C3_3 1_555 1_555
O6_3 Zn4 1_555 1_555
O7_2 C14_3 1_555 1_555
C1_3 C2_3 1_555 1_555
C3_3 O6_3 1_555 1_555
C6_3 C7_3 1_555 1_555
C14_3 C6_3 1_555 1_555
H1_3 C7_3 1_555 1_555
H3_3 C13_3 1_555 1_555
H6_3 C2_3 1_555 1_555
O12_2 Zn4 1_555 1_555
Zn7_2 O7_2 1_555 1_555
C1_3 C3_3 1_555 1_555
C6_3 C13_3 1_555 1_555
Pd1_4 Cl1_4 1_555 1_555
Cl2_4 Pd1_4 1_555 1_555
O12_2 C8_4 1_555 1_555
O13_2 C14_4 1_555 1_555
O3_4 C3_4 1_555 1_555
O14 C5_4 1_555 1_555
O17_2 C8_4 1_555 1_555
N1_4 Pd1_4 1_555 1_555
N2_4 Pd1_4 1_555 1_555
C1_4 C2_4 1_555 1_555
C2_4 N1_4 1_555 1_555
C4_4 C1_4 1_555 1_555
C5_4 C12_4 1_555 1_555
C6_4 C7_4 1_555 1_555
C7_4 C9_4 1_555 1_555
C8_4 C9_4 1_555 1_555
C9_4 C11_4 1_555 1_555
C10_4 N1_4 1_555 1_555
C11_4 N2_4 1_555 1_555
C12_4 C4_4 1_555 1_555
C13_4 N2_4 1_555 1_555
C14_4 C6_4 1_555 1_555
H1_4 C7_4 1_555 1_555
H2_4 C11_4 1_555 1_555
H3_4 C13_4 1_555 1_555
H4_4 C10_4 1_555 1_555
H6_4 C2_4 1_555 1_555
Zn7_2 O14 1_555 1_555
O9_4 Zn7_2 1_555 1_555
O10_4 Zn7_2 1_555 1_555
H7_4 O10_4 1_555 1_555
H8_4 O10_4 1_555 1_555
H9_4 O9_4 1_555 1_555
H10_4 O9_4 1_555 1_555
C1_4 C3_4 1_555 1_555
C6_4 C13_4 1_555 1_555
C10_4 C12_4 1_555 1_555
H11_3 O11_3 1_555 1_555
H12_3 O11_3 1_555 1_555
H11_4 O11_4 1_555 1_555
H12_4 O11_4 1_555 1_555

#END
