
###############################################################################
#
# This file contains modified crystal structure data generated from the
# MOF subset of the Cambridge Structural Database (CSD) v543 
# hosted by the Cambridge Crystallographic Data Centre (CCDC).
#
# This work is licensed under the Creative Commons
# Attribution-NonCommercial-ShareAlike 4.0 International License.
# To view a copy of this license, visit
# http://creativecommons.org/licenses/by-nc-sa/4.0/
# or send a letter to
# Creative Commons, PO Box 1866, Mountain View, CA 94042, USA.
#
# CIF created using the CSD Python API on 29 September 2022
# The structure has been converted into the P1 space group
# The structure has a 3D framework
# The original CSD entry PETFEC is in the orthorhombic crystal system
# The framework has been calculated to contain at least 10.0% void space
# The void calculation uses a probe of radius 1.32A, grid spacing 0.4
#
###############################################################################

data_PETFEC
_chemical_formula_moiety         '(C60 H104 Ce8 O64)n'
_symmetry_cell_setting           triclinic
_symmetry_space_group_name_H-M   'P 1'
_symmetry_Int_Tables_number      1
_space_group_name_Hall           'P 1'
loop_
_symmetry_equiv_pos_site_id
_symmetry_equiv_pos_as_xyz
1 x,y,z
_cell_length_a                   8.75270(10)
_cell_length_b                   30.9753(5)
_cell_length_c                   13.0054(2)
_cell_angle_alpha                90
_cell_angle_beta                 90
_cell_angle_gamma                90
_cell_volume                     3525.99
loop_
_atom_site_label
_atom_site_type_symbol
_atom_site_fract_x
_atom_site_fract_y
_atom_site_fract_z
C1 C 0.3772(12) 0.7500 0.1833(11)
H1 H 0.2865 0.7500 0.1404
H2 H 0.3439 0.7500 0.2544
C2 C 0.4656(7) 0.7089(2) 0.1632(7)
H3 H 0.4963 0.7083 0.0915
H4 H 0.5576 0.7090 0.2047
C3 C 0.3754(6) 0.66905(19) 0.1868(5)
C4 C 0.6653(7) 0.5965(2) 0.4895(5)
C5 C 0.6554(10) 0.5990(2) 0.6045(6)
H5 H 0.6133 0.6267 0.6246
H6 H 0.7570 0.5966 0.6337
C6 C 0.5545(9) 0.5628(2) 0.6466(6)
H7 H 0.5359 0.5677 0.7192
H8 H 0.4568 0.5632 0.6115
C7 C 0.6273(7) 0.5191(2) 0.6327(6)
H9 H 0.6429 0.5141 0.5598
H10 H 0.7269 0.5193 0.6653
C8 C 0.5365(7) 0.48216(19) 0.6758(5)
O1 O 0.4420(4) 0.63492(14) 0.2162(4)
O2 O 0.2314(5) 0.66915(13) 0.1752(4)
O3 O 0.5472(5) 0.60533(16) 0.4371(4)
O4 O 0.7866(5) 0.58531(16) 0.4447(4)
O5 O 0.6038(4) 0.44953(14) 0.7126(3)
O6 O 0.3918(5) 0.48315(14) 0.6722(4)
O7 O 0.5686(5) 0.55012(19) 0.1022(4)
O8 O 0.7545(6) 0.63160(18) 0.0967(4)
Ce1 Ce 0.66958(3) 0.593183(10) 0.26085(3)
H11 H 0.691(6) 0.629(3) 0.043(4)
H12 H 0.846(5) 0.621(3) 0.079(6)
H13 H 0.621(10) 0.540(3) 0.047(4)
H14 H 0.489(8) 0.566(3) 0.078(6)
C9 C 0.4656(7) 0.7911(2) 0.1632(7)
H15 H 0.4963 0.7917 0.0915
H16 H 0.5576 0.7910 0.2047
C10 C 0.3754(6) 0.83095(19) 0.1868(5)
O9 O 0.4420(4) 0.86508(14) 0.2162(4)
O10 O 0.2314(5) 0.83085(13) 0.1752(4)
C11 C 0.3347(7) 0.4035(2) 0.5105(5)
C12 C 0.3446(10) 0.4010(2) 0.3955(6)
H17 H 0.3867 0.3733 0.3754
H18 H 0.2430 0.4034 0.3663
C13 C 0.4455(9) 0.4372(2) 0.3534(6)
H19 H 0.4641 0.4323 0.2808
H20 H 0.5432 0.4368 0.3885
C14 C 0.3727(7) 0.4809(2) 0.3673(6)
H21 H 0.3571 0.4859 0.4402
H22 H 0.2731 0.4807 0.3347
C15 C 0.4635(7) 0.51784(19) 0.3242(5)
O11 O 0.4528(5) 0.39467(16) 0.5629(4)
O12 O 0.2134(5) 0.41469(16) 0.5553(4)
O13 O 0.3962(4) 0.55047(14) 0.2874(3)
O14 O 0.6082(5) 0.51685(14) 0.3278(4)
O15 O 0.4314(5) 0.44988(19) 0.8978(4)
O16 O 0.2455(6) 0.36840(18) 0.9033(4)
Ce2 Ce 0.33042(3) 0.406817(10) 0.73915(3)
H23 H 0.309(6) 0.371(3) 0.957(4)
H24 H 0.154(5) 0.379(3) 0.921(6)
H25 H 0.379(10) 0.460(3) 0.953(4)
H26 H 0.511(8) 0.434(3) 0.922(6)
O17 O 0.0580(4) 0.36508(14) 0.7162(4)
O18 O 0.5580(4) 0.36508(14) 0.7838(4)
O19 O 0.9420(4) 0.63492(14) 0.2838(4)
O20 O 0.2686(5) 0.33085(13) 0.6752(4)
O21 O 0.7314(5) 0.66915(13) 0.3248(4)
O22 O 0.8962(4) 0.55047(14) 0.2126(3)
O23 O 0.1038(4) 0.44953(14) 0.7874(3)
Ce3 Ce 0.83042(3) 0.406817(10) 0.76085(3)
Ce4 Ce 0.16958(3) 0.906817(10) 0.23915(3)
Ce5 Ce 0.16958(3) 0.593183(10) 0.23915(3)
Ce6 Ce 0.66958(3) 0.906817(10) 0.26085(3)
H8_2 H 0.0432 0.4368 0.1115
O6_2 O 0.1082(5) 0.51685(14) 0.1722(4)
C11_2 C 0.1653(7) 0.5965(2) 0.0105(5)
O11_2 O 0.0472(5) 0.60533(16) 0.0629(4)
O12_2 O 0.2866(5) 0.58531(16) 0.0553(4)
O15_2 O 0.0686(5) 0.55012(19) 0.3978(4)
O16_2 O 0.2545(6) 0.63160(18) 0.4033(4)
H23_2 H 0.191(6) 0.629(3) 0.457(4)
H24_2 H 0.346(5) 0.621(3) 0.421(6)
H25_2 H 0.121(10) 0.540(3) 0.453(4)
C1_2 C 0.1228(12) 0.2500 0.6833(11)
H1_2 H 0.2135 0.2500 0.6404
H2_2 H 0.1561 0.2500 0.7544
C2_2 C 0.0344(7) 0.2911(2) 0.6632(7)
H3_2 H 0.0037 0.2917 0.5915
C3_2 C 0.1246(6) 0.33095(19) 0.6868(5)
H14_2 H 0.011(8) 0.434(3) 0.578(6)
C9_2 C 0.0344(7) 0.2089(2) 0.6632(7)
H15_2 H 0.0037 0.2083 0.5915
C10_2 C 0.1246(6) 0.16905(19) 0.6868(5)
O9_2 O 0.0580(4) 0.13492(14) 0.7162(4)
O10_2 O 0.2686(5) 0.16915(13) 0.6752(4)
C12_2 C 0.1554(10) 0.5990(2) 0.8955(6)
H17_2 H 0.1133 0.6267 0.8754
H18_2 H 0.2570 0.5966 0.8663
C13_2 C 0.0545(9) 0.5628(2) 0.8534(6)
H19_2 H 0.0359 0.5677 0.7808
C14_2 C 0.1273(7) 0.5191(2) 0.8673(6)
H21_2 H 0.1429 0.5141 0.9402
H22_2 H 0.2269 0.5193 0.8347
C15_2 C 0.0365(7) 0.48216(19) 0.8242(5)
Ce4_2 Ce 0.33042(3) 0.093183(10) 0.73915(3)
C5_2 C 0.8446(10) 0.4010(2) 0.1045(6)
H5_2 H 0.8867 0.3733 0.1246
H6_2 H 0.7430 0.4034 0.1337
C6_2 C 0.9455(9) 0.4372(2) 0.1466(6)
H7_2 H 0.9641 0.4323 0.2192
C7_2 C 0.8727(7) 0.4809(2) 0.1327(6)
H9_2 H 0.8571 0.4859 0.0598
H10_2 H 0.7731 0.4807 0.1653
C8_2 C 0.9635(7) 0.51784(19) 0.1758(5)
H26_2 H 0.989(8) 0.566(3) 0.422(6)
H4_2 H 0.9424 0.2910 0.7047
C4_2 C 0.8347(7) 0.4035(2) 0.9895(5)
O3_2 O 0.9528(5) 0.39467(16) 0.9371(4)
O4_2 O 0.7134(5) 0.41469(16) 0.9447(4)
O7_2 O 0.9314(5) 0.44988(19) 0.6022(4)
O8_2 O 0.7455(6) 0.36840(18) 0.5967(4)
H11_2 H 0.809(6) 0.371(3) 0.543(4)
H12_2 H 0.654(5) 0.379(3) 0.579(6)
H13_2 H 0.879(10) 0.460(3) 0.547(4)
H16_2 H 0.9424 0.2090 0.7047
H20_2 H 0.9568 0.5632 0.8885
O14_2 O 0.8918(5) 0.48315(14) 0.8278(4)
O21_2 O 0.7686(5) 0.33085(13) 0.8248(4)
Ce6_2 Ce 0.83042(3) 0.093183(10) 0.76085(3)
C1_3 C 0.6228(12) 0.2500 0.8167(11)
H1_3 H 0.7135 0.2500 0.8596
H2_3 H 0.6561 0.2500 0.7456
C2_3 C 0.5344(7) 0.2089(2) 0.8368(7)
H3_3 H 0.5037 0.2083 0.9085
H4_3 H 0.4424 0.2090 0.7953
C3_3 C 0.6246(6) 0.16905(19) 0.8132(5)
C4_3 C 0.3347(7) 0.0965(2) 0.5105(5)
C5_3 C 0.3446(10) 0.0990(2) 0.3955(6)
H5_3 H 0.3867 0.1267 0.3754
H6_3 H 0.2430 0.0966 0.3663
C6_3 C 0.4455(9) 0.0628(2) 0.3534(6)
H7_3 H 0.4641 0.0677 0.2808
H8_3 H 0.5432 0.0632 0.3885
C7_3 C 0.3727(7) 0.0191(2) 0.3673(6)
H9_3 H 0.3571 0.0141 0.4402
H10_3 H 0.2731 0.0193 0.3347
O1_2 O 0.5580(4) 0.13492(14) 0.7838(4)
O2_2 O 0.7686(5) 0.16915(13) 0.8248(4)
O3_3 O 0.4528(5) 0.10533(16) 0.5629(4)
O4_3 O 0.2134(5) 0.08531(16) 0.5553(4)
O7_3 O 0.4314(5) 0.05012(19) 0.8978(4)
O8_3 O 0.2455(6) 0.13160(18) 0.9033(4)
H11_3 H 0.309(6) 0.129(3) 0.957(4)
H12_3 H 0.154(5) 0.121(3) 0.921(6)
H13_3 H 0.379(10) 0.040(3) 0.953(4)
H14_3 H 0.511(8) 0.066(3) 0.922(6)
C9_3 C 0.5344(7) 0.2911(2) 0.8368(7)
H15_3 H 0.5037 0.2917 0.9085
H16_3 H 0.4424 0.2910 0.7953
C10_3 C 0.6246(6) 0.33095(19) 0.8132(5)
C15_3 C 0.5365(7) 0.01784(19) 0.6758(5)
O13_2 O 0.6038(4) 0.05047(14) 0.7126(3)
O14_3 O 0.3918(5) 0.01685(14) 0.6722(4)
O22_2 O 0.1038(4) 0.05047(14) 0.7874(3)
C8_3 C 0.4635(7) 0.98216(19) 0.3242(5)
O5_2 O 0.3962(4) 0.94953(14) 0.2874(3)
O6_3 O 0.6082(5) 0.98315(14) 0.3278(4)
C11_3 C 0.6653(7) 0.9035(2) 0.4895(5)
C12_3 C 0.6554(10) 0.9010(2) 0.6045(6)
H17_3 H 0.6133 0.8733 0.6246
H18_3 H 0.7570 0.9034 0.6337
C13_3 C 0.5545(9) 0.9372(2) 0.6466(6)
H19_3 H 0.5359 0.9323 0.7192
H20_3 H 0.4568 0.9368 0.6115
C14_3 C 0.6273(7) 0.9809(2) 0.6327(6)
H21_3 H 0.6429 0.9859 0.5598
H22_3 H 0.7269 0.9807 0.6653
O11_3 O 0.5472(5) 0.89467(16) 0.4371(4)
O12_3 O 0.7866(5) 0.91469(16) 0.4447(4)
O15_3 O 0.5686(5) 0.94988(19) 0.1022(4)
O16_3 O 0.7545(6) 0.86840(18) 0.0967(4)
H23_3 H 0.691(6) 0.871(3) 0.043(4)
H24_3 H 0.846(5) 0.879(3) 0.079(6)
H25_3 H 0.621(10) 0.960(3) 0.047(4)
H26_3 H 0.489(8) 0.934(3) 0.078(6)
O17_2 O 0.9420(4) 0.86508(14) 0.2838(4)
O20_2 O 0.7314(5) 0.83085(13) 0.3248(4)
O23_2 O 0.8962(4) 0.94953(14) 0.2126(3)
C8_4 C 0.0365(7) 0.01784(19) 0.8242(5)
H26_4 H 0.011(8) 0.066(3) 0.578(6)
H4_4 H 0.0576 0.7910 0.2953
C4_4 C 0.1653(7) 0.9035(2) 0.0105(5)
O3_4 O 0.0472(5) 0.89467(16) 0.0629(4)
O4_4 O 0.2866(5) 0.91469(16) 0.0553(4)
O7_4 O 0.0686(5) 0.94988(19) 0.3978(4)
O8_4 O 0.2545(6) 0.86840(18) 0.4033(4)
H11_4 H 0.191(6) 0.871(3) 0.457(4)
H12_4 H 0.346(5) 0.879(3) 0.421(6)
H13_4 H 0.121(10) 0.960(3) 0.453(4)
H16_4 H 0.0576 0.7090 0.2953
O14_4 O 0.1082(5) 0.98315(14) 0.1722(4)
O6_4 O 0.8918(5) 0.01685(14) 0.8278(4)
C11_4 C 0.8347(7) 0.0965(2) 0.9895(5)
O11_4 O 0.9528(5) 0.10533(16) 0.9371(4)
O12_4 O 0.7134(5) 0.08531(16) 0.9447(4)
O15_4 O 0.9314(5) 0.05012(19) 0.6022(4)
O16_4 O 0.7455(6) 0.13160(18) 0.5967(4)
H23_4 H 0.809(6) 0.129(3) 0.543(4)
H24_4 H 0.654(5) 0.121(3) 0.579(6)
H25_4 H 0.879(10) 0.040(3) 0.547(4)
C1_4 C 0.8772(12) 0.7500 0.3167(11)
H1_4 H 0.7865 0.7500 0.3596
H2_4 H 0.8439 0.7500 0.2456
C2_4 C 0.9656(7) 0.7911(2) 0.3368(7)
H3_4 H 0.9963 0.7917 0.4085
C3_4 C 0.8754(6) 0.83095(19) 0.3132(5)
H14_4 H 0.989(8) 0.934(3) 0.422(6)
C9_4 C 0.9656(7) 0.7089(2) 0.3368(7)
H15_4 H 0.9963 0.7083 0.4085
C10_4 C 0.8754(6) 0.66905(19) 0.3132(5)
C15_4 C 0.9635(7) 0.98216(19) 0.1758(5)
H20_4 H 0.0432 0.0632 0.1115
C5_4 C 0.1554(10) 0.9010(2) 0.8955(6)
H5_4 H 0.1133 0.8733 0.8754
H6_4 H 0.2570 0.9034 0.8663
C6_4 C 0.0545(9) 0.9372(2) 0.8534(6)
H7_4 H 0.0359 0.9323 0.7808
C7_4 C 0.1273(7) 0.9809(2) 0.8673(6)
H9_4 H 0.1429 0.9859 0.9402
H10_4 H 0.2269 0.9807 0.8347
C12_4 C 0.8446(10) 0.0990(2) 0.1045(6)
H17_4 H 0.8867 0.1267 0.1246
H18_4 H 0.7430 0.0966 0.1337
C13_4 C 0.9455(9) 0.0628(2) 0.1466(6)
H19_4 H 0.9641 0.0677 0.2192
C14_4 C 0.8727(7) 0.0191(2) 0.1327(6)
H21_4 H 0.8571 0.0141 0.0598
H22_4 H 0.7731 0.0193 0.1653
H8_4 H 0.9568 0.9368 0.8885
loop_
_geom_bond_atom_site_label_1
_geom_bond_atom_site_label_2
_geom_bond_site_symmetry_1
_geom_bond_site_symmetry_2
C1 H1 1_555 1_555
H2 C1 1_555 1_555
C2 C1 1_555 1_555
H3 C2 1_555 1_555
H4 C2 1_555 1_555
C3 C2 1_555 1_555
C4 C5 1_555 1_555
C5 H5 1_555 1_555
H6 C5 1_555 1_555
C6 C5 1_555 1_555
H7 C6 1_555 1_555
H8 C6 1_555 1_555
C7 C6 1_555 1_555
H9 C7 1_555 1_555
H10 C7 1_555 1_555
C8 C7 1_555 1_555
O1 C3 1_555 1_555
O2 C3 1_555 1_555
O3 C4 1_555 1_555
O4 C4 1_555 1_555
O5 C8 1_555 1_555
O6 C8 1_555 1_555
O7 Ce1 1_555 1_555
O8 Ce1 1_555 1_555
Ce1 O1 1_555 1_555
H11 O8 1_555 1_555
H12 O8 1_555 1_555
H13 O7 1_555 1_555
H14 O7 1_555 1_555
C9 C1 1_555 1_555
H15 C9 1_555 1_555
H16 C9 1_555 1_555
C10 C9 1_555 1_555
O9 C10 1_555 1_555
O10 C10 1_555 1_555
C11 C12 1_555 1_555
C12 H17 1_555 1_555
H18 C12 1_555 1_555
C13 C12 1_555 1_555
H19 C13 1_555 1_555
H20 C13 1_555 1_555
C14 C13 1_555 1_555
H21 C14 1_555 1_555
H22 C14 1_555 1_555
C15 C14 1_555 1_555
O11 C11 1_555 1_555
O12 C11 1_555 1_555
O13 Ce1 1_555 1_555
O14 Ce1 1_555 1_555
O15 Ce2 1_555 1_555
O16 Ce2 1_555 1_555
Ce2 O5 1_555 1_555
H23 O16 1_555 1_555
H24 O16 1_555 1_555
H25 O15 1_555 1_555
H26 O15 1_555 1_555
O17 Ce2 1_555 1_555
O18 Ce2 1_555 1_555
O19 Ce1 1_555 1_555
O20 Ce2 1_555 1_555
O21 Ce1 1_555 1_555
O22 Ce1 1_555 1_555
O23 Ce2 1_555 1_555
Ce3 O5 1_555 1_555
Ce4 O9 1_555 1_555
Ce5 O1 1_555 1_555
Ce6 O9 1_555 1_555
O2 Ce5 1_555 1_555
O3 Ce1 1_555 1_555
O4 Ce1 1_555 1_555
O6 Ce2 1_555 1_555
O10 Ce4 1_555 1_555
C15 O13 1_555 1_555
C15 O14 1_555 1_555
O11 Ce2 1_555 1_555
O12 Ce2 1_555 1_555
O13 Ce5 1_555 1_555
O18 Ce3 1_555 1_555
O11_2 C11_2 1_555 1_555
O12_2 C11_2 1_555 1_555
O15_2 Ce5 1_555 1_555
O16_2 Ce5 1_555 1_555
H23_2 O16_2 1_555 1_555
H24_2 O16_2 1_555 1_555
H25_2 O15_2 1_555 1_555
O6_2 Ce5 1_555 1_555
O11_2 Ce5 1_555 1_555
O12_2 Ce5 1_555 1_555
C1_2 H1_2 1_555 1_555
H2_2 C1_2 1_555 1_555
C2_2 C1_2 1_555 1_555
H3_2 C2_2 1_555 1_555
C3_2 C2_2 1_555 1_555
O17 C3_2 1_555 1_555
O20 C3_2 1_555 1_555
C9_2 C1_2 1_555 1_555
H15_2 C9_2 1_555 1_555
C10_2 C9_2 1_555 1_555
O9_2 C10_2 1_555 1_555
O10_2 C10_2 1_555 1_555
C12_2 H17_2 1_555 1_555
H18_2 C12_2 1_555 1_555
C13_2 C12_2 1_555 1_555
H19_2 C13_2 1_555 1_555
C14_2 C13_2 1_555 1_555
H21_2 C14_2 1_555 1_555
H22_2 C14_2 1_555 1_555
C15_2 C14_2 1_555 1_555
Ce4_2 O9_2 1_555 1_555
O10_2 Ce4_2 1_555 1_555
C15_2 O23 1_555 1_555
C5_2 H5_2 1_555 1_555
H6_2 C5_2 1_555 1_555
C6_2 C5_2 1_555 1_555
H7_2 C6_2 1_555 1_555
C7_2 C6_2 1_555 1_555
H9_2 C7_2 1_555 1_555
H10_2 C7_2 1_555 1_555
C8_2 C7_2 1_555 1_555
O22 C8_2 1_555 1_555
O3_2 C4_2 1_555 1_555
O4_2 C4_2 1_555 1_555
O7_2 Ce3 1_555 1_555
O8_2 Ce3 1_555 1_555
H11_2 O8_2 1_555 1_555
H12_2 O8_2 1_555 1_555
H13_2 O7_2 1_555 1_555
O14_2 Ce3 1_555 1_555
O21_2 Ce3 1_555 1_555
O3_2 Ce3 1_555 1_555
O4_2 Ce3 1_555 1_555
C1_3 H1_3 1_555 1_555
H2_3 C1_3 1_555 1_555
C2_3 C1_3 1_555 1_555
H3_3 C2_3 1_555 1_555
H4_3 C2_3 1_555 1_555
C3_3 C2_3 1_555 1_555
C4_3 C5_3 1_555 1_555
C5_3 H5_3 1_555 1_555
H6_3 C5_3 1_555 1_555
C6_3 C5_3 1_555 1_555
H7_3 C6_3 1_555 1_555
H8_3 C6_3 1_555 1_555
C7_3 C6_3 1_555 1_555
H9_3 C7_3 1_555 1_555
H10_3 C7_3 1_555 1_555
O1_2 C3_3 1_555 1_555
O2_2 C3_3 1_555 1_555
O3_3 C4_3 1_555 1_555
O4_3 C4_3 1_555 1_555
O7_3 Ce4_2 1_555 1_555
O8_3 Ce4_2 1_555 1_555
Ce4_2 O1_2 1_555 1_555
H11_3 O8_3 1_555 1_555
H12_3 O8_3 1_555 1_555
H13_3 O7_3 1_555 1_555
H14_3 O7_3 1_555 1_555
C9_3 C1_3 1_555 1_555
H15_3 C9_3 1_555 1_555
H16_3 C9_3 1_555 1_555
C10_3 C9_3 1_555 1_555
O18 C10_3 1_555 1_555
O21_2 C10_3 1_555 1_555
O13_2 Ce4_2 1_555 1_555
O14_3 Ce4_2 1_555 1_555
O22_2 Ce4_2 1_555 1_555
Ce6_2 O1_2 1_555 1_555
O2_2 Ce6_2 1_555 1_555
O3_3 Ce4_2 1_555 1_555
O4_3 Ce4_2 1_555 1_555
C15_3 O13_2 1_555 1_555
C15_3 O14_3 1_555 1_555
O13_2 Ce6_2 1_555 1_555
O5_2 C8_3 1_555 1_555
O6_3 C8_3 1_555 1_555
C11_3 C12_3 1_555 1_555
C12_3 H17_3 1_555 1_555
H18_3 C12_3 1_555 1_555
C13_3 C12_3 1_555 1_555
H19_3 C13_3 1_555 1_555
H20_3 C13_3 1_555 1_555
C14_3 C13_3 1_555 1_555
H21_3 C14_3 1_555 1_555
H22_3 C14_3 1_555 1_555
O11_3 C11_3 1_555 1_555
O12_3 C11_3 1_555 1_555
O15_3 Ce6 1_555 1_555
O16_3 Ce6 1_555 1_555
Ce6 O5_2 1_555 1_555
H23_3 O16_3 1_555 1_555
H24_3 O16_3 1_555 1_555
H25_3 O15_3 1_555 1_555
H26_3 O15_3 1_555 1_555
O17_2 Ce6 1_555 1_555
O20_2 Ce6 1_555 1_555
O23_2 Ce6 1_555 1_555
Ce4 O5_2 1_555 1_555
O6_3 Ce6 1_555 1_555
O11_3 Ce6 1_555 1_555
O12_3 Ce6 1_555 1_555
O22_2 C8_4 1_555 1_555
O3_4 C4_4 1_555 1_555
O4_4 C4_4 1_555 1_555
O7_4 Ce4 1_555 1_555
O8_4 Ce4 1_555 1_555
H11_4 O8_4 1_555 1_555
H12_4 O8_4 1_555 1_555
H13_4 O7_4 1_555 1_555
O14_4 Ce4 1_555 1_555
O3_4 Ce4 1_555 1_555
O4_4 Ce4 1_555 1_555
O11_4 C11_4 1_555 1_555
O12_4 C11_4 1_555 1_555
O15_4 Ce6_2 1_555 1_555
O16_4 Ce6_2 1_555 1_555
H23_4 O16_4 1_555 1_555
H24_4 O16_4 1_555 1_555
H25_4 O15_4 1_555 1_555
O6_4 Ce6_2 1_555 1_555
O11_4 Ce6_2 1_555 1_555
O12_4 Ce6_2 1_555 1_555
C1_4 H1_4 1_555 1_555
H2_4 C1_4 1_555 1_555
C2_4 C1_4 1_555 1_555
H3_4 C2_4 1_555 1_555
C3_4 C2_4 1_555 1_555
O17_2 C3_4 1_555 1_555
O20_2 C3_4 1_555 1_555
C9_4 C1_4 1_555 1_555
H15_4 C9_4 1_555 1_555
C10_4 C9_4 1_555 1_555
O19 C10_4 1_555 1_555
O21 C10_4 1_555 1_555
C15_4 O23_2 1_555 1_555
C5_4 H5_4 1_555 1_555
H6_4 C5_4 1_555 1_555
C6_4 C5_4 1_555 1_555
H7_4 C6_4 1_555 1_555
C7_4 C6_4 1_555 1_555
H9_4 C7_4 1_555 1_555
H10_4 C7_4 1_555 1_555
C12_4 H17_4 1_555 1_555
H18_4 C12_4 1_555 1_555
C13_4 C12_4 1_555 1_555
H19_4 C13_4 1_555 1_555
C14_4 C13_4 1_555 1_555
H21_4 C14_4 1_555 1_555
H22_4 C14_4 1_555 1_555

#END
