
###############################################################################
#
# This file contains modified crystal structure data generated from the
# MOF subset of the Cambridge Structural Database (CSD) v543 
# hosted by the Cambridge Crystallographic Data Centre (CCDC).
#
# This work is licensed under the Creative Commons
# Attribution-NonCommercial-ShareAlike 4.0 International License.
# To view a copy of this license, visit
# http://creativecommons.org/licenses/by-nc-sa/4.0/
# or send a letter to
# Creative Commons, PO Box 1866, Mountain View, CA 94042, USA.
#
# CIF created using the CSD Python API on 29 September 2022
# The structure has been converted into the P1 space group
# The structure has a 3D framework
# The original CSD entry PEVZAT is in the monoclinic crystal system
# The original CSD entry PEVZAT is in a Sohncke space group
# The framework has been calculated to contain at least 10.0% void space
# The void calculation uses a probe of radius 1.32A, grid spacing 0.4
#
###############################################################################

data_PEVZAT
_chemical_formula_moiety         '(C48 H40 Co4 F4 N8 O10)n'
_symmetry_cell_setting           triclinic
_symmetry_space_group_name_H-M   'P 1'
_symmetry_Int_Tables_number      1
_space_group_name_Hall           'P 1'
loop_
_symmetry_equiv_pos_site_id
_symmetry_equiv_pos_as_xyz
1 x,y,z
_cell_length_a                   17.7950(14)
_cell_length_b                   7.3167(6)
_cell_length_c                   11.3957(9)
_cell_angle_alpha                90
_cell_angle_beta                 97.4790(10)
_cell_angle_gamma                90
_cell_volume                     1471.11
loop_
_atom_site_label
_atom_site_type_symbol
_atom_site_fract_x
_atom_site_fract_y
_atom_site_fract_z
Co3 Co 0.24885(2) 0.19019(10) 0.00350(3)
F1 F 0.29730(8) 0.4392(4) 0.00980(14)
C1 C 0.30987(18) 0.2459(5) 0.2646(3)
H1 H 0.3531 0.2872 0.2315
C2 C 0.31224(17) 0.2470(5) 0.3866(3)
H2 H 0.3568 0.2848 0.4356
C3 C 0.24856(16) 0.1920(8) 0.4366(2)
C4 C 0.18588(18) 0.1321(5) 0.3609(3)
H3 H 0.1417 0.0917 0.3918
C5 C 0.18846(18) 0.1319(5) 0.2395(3)
H4 H 0.1454 0.0895 0.1887
C6 C 0.18562(18) 0.2354(5) 0.7382(3)
H5 H 0.1408 0.2671 0.7706
C7 C 0.18360(17) 0.2360(5) 0.6164(3)
H6 H 0.1381 0.2666 0.5671
C8 C 0.24839(16) 0.1916(8) 0.5664(2)
C9 C 0.31326(18) 0.1466(5) 0.6441(3)
H7 H 0.3588 0.1138 0.6142
C10 C 0.31058(18) 0.1502(5) 0.7652(3)
H8 H 0.3554 0.1214 0.8168
N1 N 0.24909(13) 0.1888(7) 0.19084(19)
N2 N 0.24780(14) 0.1923(7) 0.81292(19)
O6 O 0.00877(13) 0.5923(4) 0.1307(2)
O8 O 0.36262(13) 0.0925(4) 0.0350(2)
C11 C 0.10496(13) 0.4430(6) 0.9680(2)
C12 C 0.01739(14) 0.4427(7) 0.9417(2)
H9 H 0.0015 0.3277 0.8980
O1 O 0.13494(13) 0.2871(4) 0.9903(2)
O2 O 0.13738(13) 0.5925(4) 0.9650(2)
H10 H 0.0110 0.5890 0.8063
Co6 Co 0.25115(2) 0.69019(10) 0.99650(3)
F4 F 0.20270(8) 0.9392(4) 0.99020(14)
C13 C 0.89504(13) 0.4430(6) 0.0320(2)
C14 C 0.98261(14) 0.4427(7) 0.0583(2)
H11 H 0.9985 0.3277 0.1020
O4 O 0.86506(13) 0.2871(4) 0.0097(2)
O5 O 0.86262(13) 0.5925(4) 0.0350(2)
H12 H 0.9890 0.5890 0.1937
Co5 Co 0.74885(2) 0.69019(10) 0.00350(3)
N6 N 0.75220(14) 0.1923(7) 0.18708(19)
O3 O 0.99123(13) 0.5923(4) 0.8693(2)
Co2 Co 0.75115(2) 0.19019(10) 0.99650(3)
F2 F 0.70270(8) 0.4392(4) 0.99020(14)
C15 C 0.69013(18) 0.2459(5) 0.7354(3)
H13 H 0.6469 0.2872 0.7685
C16 C 0.68776(17) 0.2470(5) 0.6134(3)
H14 H 0.6432 0.2848 0.5644
C17 C 0.75144(16) 0.1920(8) 0.5634(2)
C18 C 0.81412(18) 0.1321(5) 0.6391(3)
H15 H 0.8583 0.0917 0.6082
C19 C 0.81154(18) 0.1319(5) 0.7605(3)
H16 H 0.8546 0.0895 0.8113
C20 C 0.81438(18) 0.2354(5) 0.2618(3)
H17 H 0.8592 0.2671 0.2294
C21 C 0.81640(17) 0.2360(5) 0.3836(3)
H18 H 0.8619 0.2666 0.4329
C22 C 0.75161(16) 0.1916(8) 0.4336(2)
C23 C 0.68674(18) 0.1466(5) 0.3559(3)
H19 H 0.6412 0.1138 0.3858
C24 C 0.68942(18) 0.1502(5) 0.2348(3)
H20 H 0.6446 0.1214 0.1832
N3 N 0.75091(13) 0.1888(7) 0.80916(19)
O7 O 0.63738(13) 0.0925(4) 0.9650(2)
F3 F 0.79730(8) 0.9392(4) 0.00980(14)
O6_2 O 0.50877(13) 0.0923(4) 0.1307(2)
H12_2 H 0.4890 0.0890 0.1937
O3_2 O 0.49123(13) 0.0923(4) 0.8693(2)
H10_2 H 0.5110 0.0890 0.8063
C1_2 C 0.80987(18) 0.7459(5) 0.2646(3)
H1_2 H 0.8531 0.7872 0.2315
C2_2 C 0.81224(17) 0.7470(5) 0.3866(3)
H2_2 H 0.8568 0.7848 0.4356
C3_2 C 0.74856(16) 0.6920(8) 0.4366(2)
C4_2 C 0.68588(18) 0.6321(5) 0.3609(3)
H3_2 H 0.6417 0.5917 0.3918
C5_2 C 0.68846(18) 0.6319(5) 0.2395(3)
H4_2 H 0.6454 0.5895 0.1887
C6_2 C 0.68562(18) 0.7354(5) 0.7382(3)
H5_2 H 0.6408 0.7671 0.7706
C7_2 C 0.68360(17) 0.7360(5) 0.6164(3)
H6_2 H 0.6381 0.7666 0.5671
C8_2 C 0.74839(16) 0.6916(8) 0.5664(2)
C9_2 C 0.81326(18) 0.6466(5) 0.6441(3)
H7_2 H 0.8588 0.6138 0.6142
C10_2 C 0.81058(18) 0.6502(5) 0.7652(3)
H8_2 H 0.8554 0.6214 0.8168
N1_2 N 0.74909(13) 0.6888(7) 0.19084(19)
N2_2 N 0.74780(14) 0.6923(7) 0.81292(19)
C13_2 C 0.39504(13) 0.9430(6) 0.0320(2)
C14_2 C 0.48261(14) 0.9427(7) 0.0583(2)
H11_2 H 0.4985 0.8277 0.1020
O4_2 O 0.36506(13) 0.7871(4) 0.0097(2)
N6_2 N 0.25220(14) 0.6923(7) 0.18708(19)
C11_2 C 0.60496(13) 0.9430(6) 0.9680(2)
C12_2 C 0.51739(14) 0.9427(7) 0.9417(2)
H9_2 H 0.5015 0.8277 0.8980
O1_2 O 0.63494(13) 0.7871(4) 0.9903(2)
C15_2 C 0.19013(18) 0.7459(5) 0.7354(3)
H13_2 H 0.1469 0.7872 0.7685
C16_2 C 0.18776(17) 0.7470(5) 0.6134(3)
H14_2 H 0.1432 0.7848 0.5644
C17_2 C 0.25144(16) 0.6920(8) 0.5634(2)
C18_2 C 0.31412(18) 0.6321(5) 0.6391(3)
H15_2 H 0.3583 0.5917 0.6082
C19_2 C 0.31154(18) 0.6319(5) 0.7605(3)
H16_2 H 0.3546 0.5895 0.8113
C20_2 C 0.31438(18) 0.7354(5) 0.2618(3)
H17_2 H 0.3592 0.7671 0.2294
C21_2 C 0.31640(17) 0.7360(5) 0.3836(3)
H18_2 H 0.3619 0.7666 0.4329
C22_2 C 0.25161(16) 0.6916(8) 0.4336(2)
C23_2 C 0.18674(18) 0.6466(5) 0.3559(3)
H19_2 H 0.1412 0.6138 0.3858
C24_2 C 0.18942(18) 0.6502(5) 0.2348(3)
H20_2 H 0.1446 0.6214 0.1832
N3_2 N 0.25091(13) 0.6888(7) 0.80916(19)
loop_
_geom_bond_atom_site_label_1
_geom_bond_atom_site_label_2
_geom_bond_site_symmetry_1
_geom_bond_site_symmetry_2
Co3 F1 1_555 1_555
C1 H1 1_555 1_555
C2 C1 1_555 1_555
H2 C2 1_555 1_555
C3 C2 1_555 1_555
C4 C3 1_555 1_555
H3 C4 1_555 1_555
C5 C4 1_555 1_555
H4 C5 1_555 1_555
C6 H5 1_555 1_555
C7 C6 1_555 1_555
H6 C7 1_555 1_555
C8 C3 1_555 1_555
C9 C8 1_555 1_555
H7 C9 1_555 1_555
C10 C9 1_555 1_555
H8 C10 1_555 1_555
N1 Co3 1_555 1_555
N2 C6 1_555 1_555
O8 Co3 1_555 1_555
C1 N1 1_555 1_555
C5 N1 1_555 1_555
C7 C8 1_555 1_555
C10 N2 1_555 1_555
C11 C12 1_555 1_555
C12 H9 1_555 1_555
O2 C11 1_555 1_555
Co6 O2 1_555 1_555
C11 O1 1_555 1_555
C13 C14 1_555 1_555
H11 C14 1_555 1_555
O4 C13 1_555 1_555
O5 C13 1_555 1_555
Co5 O5 1_555 1_555
F2 Co2 1_555 1_555
C15 H13 1_555 1_555
C16 C15 1_555 1_555
H14 C16 1_555 1_555
C17 C16 1_555 1_555
C18 C17 1_555 1_555
H15 C18 1_555 1_555
C19 C18 1_555 1_555
H16 C19 1_555 1_555
C20 H17 1_555 1_555
C21 C20 1_555 1_555
H18 C21 1_555 1_555
C22 C17 1_555 1_555
C23 C22 1_555 1_555
H19 C23 1_555 1_555
C24 C23 1_555 1_555
H20 C24 1_555 1_555
N3 Co2 1_555 1_555
N6 C20 1_555 1_555
O7 Co2 1_555 1_555
C15 N3 1_555 1_555
C19 N3 1_555 1_555
C21 C22 1_555 1_555
C24 N6 1_555 1_555
H12_2 O6_2 1_555 1_555
H10_2 O3_2 1_555 1_555
Co5 F3 1_555 1_555
C1_2 H1_2 1_555 1_555
C2_2 C1_2 1_555 1_555
H2_2 C2_2 1_555 1_555
C3_2 C2_2 1_555 1_555
C4_2 C3_2 1_555 1_555
H3_2 C4_2 1_555 1_555
C5_2 C4_2 1_555 1_555
H4_2 C5_2 1_555 1_555
C6_2 H5_2 1_555 1_555
C7_2 C6_2 1_555 1_555
H6_2 C7_2 1_555 1_555
C8_2 C3_2 1_555 1_555
C9_2 C8_2 1_555 1_555
H7_2 C9_2 1_555 1_555
C10_2 C9_2 1_555 1_555
H8_2 C10_2 1_555 1_555
N1_2 Co5 1_555 1_555
N2_2 C6_2 1_555 1_555
C13_2 C14_2 1_555 1_555
H11_2 C14_2 1_555 1_555
O4_2 C13_2 1_555 1_555
C1_2 N1_2 1_555 1_555
C5_2 N1_2 1_555 1_555
C7_2 C8_2 1_555 1_555
C10_2 N2_2 1_555 1_555
C11_2 C12_2 1_555 1_555
C12_2 H9_2 1_555 1_555
F4 Co6 1_555 1_555
C15_2 H13_2 1_555 1_555
C16_2 C15_2 1_555 1_555
H14_2 C16_2 1_555 1_555
C17_2 C16_2 1_555 1_555
C18_2 C17_2 1_555 1_555
H15_2 C18_2 1_555 1_555
C19_2 C18_2 1_555 1_555
H16_2 C19_2 1_555 1_555
C20_2 H17_2 1_555 1_555
C21_2 C20_2 1_555 1_555
H18_2 C21_2 1_555 1_555
C22_2 C17_2 1_555 1_555
C23_2 C22_2 1_555 1_555
H19_2 C23_2 1_555 1_555
C24_2 C23_2 1_555 1_555
H20_2 C24_2 1_555 1_555
N3_2 Co6 1_555 1_555
N6_2 C20_2 1_555 1_555
C11_2 O1_2 1_555 1_555
C15_2 N3_2 1_555 1_555
C19_2 N3_2 1_555 1_555
C21_2 C22_2 1_555 1_555
C24_2 N6_2 1_555 1_555

#END
