
###############################################################################
#
# This file contains modified crystal structure data generated from the
# MOF subset of the Cambridge Structural Database (CSD) v543 
# hosted by the Cambridge Crystallographic Data Centre (CCDC).
#
# This work is licensed under the Creative Commons
# Attribution-NonCommercial-ShareAlike 4.0 International License.
# To view a copy of this license, visit
# http://creativecommons.org/licenses/by-nc-sa/4.0/
# or send a letter to
# Creative Commons, PO Box 1866, Mountain View, CA 94042, USA.
#
# CIF created using the CSD Python API on 29 September 2022
# The structure has been converted into the P1 space group
# The structure has a 3D framework
# The original CSD entry PEWFII01 is in the triclinic crystal system
# The framework has been calculated to contain at least 10.0% void space
# The void calculation uses a probe of radius 1.32A, grid spacing 0.4
#
###############################################################################

data_PEWFII01
_chemical_formula_moiety         '(C10 H6 Cu2 O11 U2)n'
_symmetry_cell_setting           triclinic
_symmetry_space_group_name_H-M   'P 1'
_symmetry_Int_Tables_number      1
_space_group_name_Hall           'P 1'
loop_
_symmetry_equiv_pos_site_id
_symmetry_equiv_pos_as_xyz
1 x,y,z
_cell_length_a                   7.1162(7)
_cell_length_b                   7.2353(7)
_cell_length_c                   9.2139(9)
_cell_angle_alpha                95.3610(10)
_cell_angle_beta                 91.2190(10)
_cell_angle_gamma                114.9290(10)
_cell_volume                     427.355
loop_
_atom_site_label
_atom_site_type_symbol
_atom_site_fract_x
_atom_site_fract_y
_atom_site_fract_z
Cu4 Cu -0.0000 0.5000 0.5000
U1 U 0.5000 0.0000 0.5000
O3 O 0.2396(6) 0.0995(6) 0.3780(4)
O5 O 0.0981(7) 0.3371(6) 0.6087(5)
H1 H 0.1161 0.3847 0.7041
H2 H 0.0035 0.2053 0.5964
C1 C 0.2711(8) 0.0401(7) 0.2508(6)
C2 C 0.1323(8) 0.0241(8) 0.1222(6)
O12 O 0.6414(5) 0.2705(5) 0.5363(4)
Cu4_2 Cu 1.0000 0.5000 0.5000
O13 O 0.3586(5) 0.7295(5) 0.4637(4)
O15 O 0.7777(5) 0.0153(5) 0.3541(4)
O18 O 0.5843(6) 0.0168(6) 0.7657(4)
O19 O 0.0105(6) 0.6633(5) 0.6863(4)
U1_2 U 0.5000 1.0000 0.5000
O4 O 0.4157(6) 0.9832(6) 0.2343(4)
O16 O 0.2223(5) 0.9847(5) 0.6459(4)
O17 O 0.7604(6) 0.9005(6) 0.6220(4)
C3 C 0.1724(8) 0.9585(8) 0.9845(6)
H3 H 0.2885 0.9316 0.9739
C9 C 0.0416(8) 0.9324(7) 0.8625(5)
C10 C 0.0937(7) 0.8551(7) 0.7175(5)
O6 O 0.9895(6) 0.3367(5) 0.3137(4)
C4 C 0.9584(8) 0.0676(7) 0.1375(5)
C5 C 0.9063(7) 0.1449(7) 0.2825(5)
C8 C 0.8276(8) 0.0415(8) 0.0155(6)
H4 H 0.7115 0.0684 0.0261
O11 O 0.9019(7) 0.6629(6) 0.3913(5)
H5 H 0.8839 0.6153 0.2959
H6 H 0.9965 0.7947 0.4036
C6 C 0.7289(8) 0.9599(7) 0.7492(6)
C7 C 0.8677(8) 0.9759(8) 0.8778(6)
loop_
_geom_bond_atom_site_label_1
_geom_bond_atom_site_label_2
_geom_bond_site_symmetry_1
_geom_bond_site_symmetry_2
Cu4 O5 1_555 1_555
O3 U1 1_555 1_555
O5 H1 1_555 1_555
H2 O5 1_555 1_555
C1 O3 1_555 1_555
C2 C1 1_555 1_555
O12 U1 1_555 1_555
Cu4_2 O12 1_555 1_555
O13 Cu4 1_555 1_555
O15 U1 1_555 1_555
O18 U1 1_555 1_555
O19 Cu4 1_555 1_555
U1_2 O13 1_555 1_555
O4 U1_2 1_555 1_555
O16 U1_2 1_555 1_555
O17 U1_2 1_555 1_555
H3 C3 1_555 1_555
O19 C10 1_555 1_555
C9 C3 1_555 1_555
C10 C9 1_555 1_555
O16 C10 1_555 1_555
O15 C5 1_555 1_555
O6 Cu4_2 1_555 1_555
C5 O6 1_555 1_555
C8 C4 1_555 1_555
H4 C8 1_555 1_555
O11 Cu4_2 1_555 1_555
H5 O11 1_555 1_555
H6 O11 1_555 1_555
C4 C5 1_555 1_555
O17 C6 1_555 1_555
C6 C7 1_555 1_555

#END
