
###############################################################################
#
# This file contains modified crystal structure data generated from the
# MOF subset of the Cambridge Structural Database (CSD) v543 
# hosted by the Cambridge Crystallographic Data Centre (CCDC).
#
# This work is licensed under the Creative Commons
# Attribution-NonCommercial-ShareAlike 4.0 International License.
# To view a copy of this license, visit
# http://creativecommons.org/licenses/by-nc-sa/4.0/
# or send a letter to
# Creative Commons, PO Box 1866, Mountain View, CA 94042, USA.
#
# CIF created using the CSD Python API on 29 September 2022
# The structure has been converted into the P1 space group
# The structure has a 3D framework
# The original CSD entry PEXTES is in the monoclinic crystal system
# The framework has been calculated to contain at least 10.0% void space
# The void calculation uses a probe of radius 1.32A, grid spacing 0.4
#
###############################################################################

data_PEXTES
_chemical_formula_moiety         '(C36 H32 Eu4 N4 O26)n'
_symmetry_cell_setting           triclinic
_symmetry_space_group_name_H-M   'P 1'
_symmetry_Int_Tables_number      1
_space_group_name_Hall           'P 1'
loop_
_symmetry_equiv_pos_site_id
_symmetry_equiv_pos_as_xyz
1 x,y,z
_cell_length_a                   9.3501(15)
_cell_length_b                   8.3477(13)
_cell_length_c                   16.779(3)
_cell_angle_alpha                90
_cell_angle_beta                 106.18
_cell_angle_gamma                90
_cell_volume                     1257.76
loop_
_atom_site_label
_atom_site_type_symbol
_atom_site_fract_x
_atom_site_fract_y
_atom_site_fract_z
Eu5 Eu 0.332710(18) 0.065070(19) 0.900610(9)
O3 O 0.4291(3) 0.8358(3) 0.10621(15)
O4 O 0.2440(3) 0.9648(3) 0.01367(16)
C3 C 0.1151(5) 0.6379(5) 0.2140(2)
H3 H 0.1369 0.5558 0.2530
C4 C 0.2242(4) 0.6964(5) 0.1803(2)
H4 H 0.3209 0.6569 0.1975
C5 C 0.1857(4) 0.8155(4) 0.1201(2)
C6 C 0.2966(4) 0.8770(4) 0.0766(2)
C7 C 0.0430(4) 0.8758(5) 0.1010(2)
H5 H 0.0184 0.9589 0.0628
Eu4 Eu 0.667290(18) 0.934930(19) 0.099390(9)
O7 O 0.8453(3) 0.1554(4) 0.15378(17)
H1 H 0.9017 0.1895 0.1256
H2 H 0.8501 0.1967 0.2008
O8 O 0.6240(3) 0.0334(3) 0.22574(17)
O11 O 0.5082(3) 0.1524(3) 0.04843(15)
O10 O 0.7560(3) 0.0352(3) 0.98633(16)
N1 N 0.9382(3) 0.8220(4) 0.13428(17)
O1 O 0.7302(3) 0.7251(3) 0.20217(15)
O2 O 0.8760(3) 0.5334(3) 0.27426(17)
O5 O 0.6672(3) 0.6858(3) 0.01806(16)
C1 C 0.8510(4) 0.6476(4) 0.2246(2)
C2 C 0.9749(4) 0.7022(4) 0.1894(2)
Eu3 Eu 0.832710(18) 0.434930(19) 0.400610(9)
O6 O 0.4918(3) 0.8476(3) 0.95157(15)
C8 C 0.5590(4) 0.7158(4) 0.9559(2)
C9 C 0.5116(6) 0.5950(5) 0.8877(3)
H6 H 0.4056 0.5999 0.8646
H7 H 0.5395 0.4898 0.9096
H8 H 0.5595 0.6180 0.8453
O6_2 O 0.0082(3) 0.3476(3) 0.54843(15)
H6_2 H 0.0944 0.0999 0.6354
Eu2 Eu 0.167290(18) 0.565070(19) 0.599390(9)
O9 O 0.0709(3) 0.3358(3) 0.39379(15)
N1_2 N 0.5618(3) 0.3220(4) 0.36572(17)
O1_2 O 0.7698(3) 0.2251(3) 0.29783(15)
O4_2 O 0.2560(3) 0.4648(3) 0.48633(16)
O5_2 O 0.8328(3) 0.1858(3) 0.48194(16)
O7_2 O 0.6547(3) 0.6554(4) 0.34622(17)
H1_2 H 0.5983 0.6895 0.3744
H2_2 H 0.6499 0.6967 0.2992
C1_2 C 0.6490(4) 0.1476(4) 0.2754(2)
C2_2 C 0.5251(4) 0.2022(4) 0.3106(2)
C3_2 C 0.3849(5) 0.1379(5) 0.2860(2)
H3_2 H 0.3631 0.0558 0.2470
C4_2 C 0.2758(4) 0.1964(5) 0.3197(2)
H4_2 H 0.1791 0.1569 0.3025
C5_2 C 0.3143(4) 0.3155(4) 0.3799(2)
C6_2 C 0.2034(4) 0.3770(4) 0.4234(2)
C7_2 C 0.4570(4) 0.3758(5) 0.3990(2)
H5_2 H 0.4816 0.4589 0.4372
C8_2 C 0.9410(4) 0.2158(4) 0.5441(2)
C9_2 C 0.9884(6) 0.0950(5) 0.6123(3)
H8_2 H 0.9405 0.1180 0.6547
O10_2 O 0.7440(3) 0.5352(3) 0.51367(16)
O11_2 O 0.9918(3) 0.6524(3) 0.45157(15)
H7_2 H 0.9605 0.9898 0.5904
C8_3 C 0.4410(4) 0.2842(4) 0.0441(2)
C9_3 C 0.4884(6) 0.4050(5) 0.1123(3)
H6_3 H 0.5944 0.4001 0.1354
H7_3 H 0.4605 0.5102 0.0904
H8_3 H 0.4405 0.3820 0.1547
N1_3 N 0.0618(3) 0.1780(4) 0.86572(17)
O1_3 O 0.2698(3) 0.2749(3) 0.79783(15)
O2_2 O 0.1240(3) 0.4666(3) 0.72574(17)
O5_3 O 0.3328(3) 0.3142(3) 0.98194(16)
C1_3 C 0.1490(4) 0.3524(4) 0.7754(2)
C2_3 C 0.0251(4) 0.2978(4) 0.8106(2)
O9_2 O 0.5709(3) 0.1642(3) 0.89379(15)
O7_3 O 0.1547(3) 0.8446(4) 0.84622(17)
H1_3 H 0.0983 0.8105 0.8744
H2_3 H 0.1499 0.8033 0.7992
O8_2 O 0.3760(3) 0.9666(3) 0.77426(17)
C3_3 C 0.8849(5) 0.3621(5) 0.7860(2)
H3_3 H 0.8631 0.4442 0.7470
C4_3 C 0.7758(4) 0.3036(5) 0.8197(2)
H4_3 H 0.6791 0.3431 0.8025
C5_3 C 0.8143(4) 0.1845(4) 0.8799(2)
C6_3 C 0.7034(4) 0.1230(4) 0.9234(2)
C7_3 C 0.9570(4) 0.1242(5) 0.8990(2)
H5_3 H 0.9816 0.0411 0.9372
H7_4 H 0.0395 0.0102 0.4096
N1_4 N 0.4382(3) 0.6780(4) 0.63428(17)
O1_4 O 0.2302(3) 0.7749(3) 0.70217(15)
O3_2 O 0.9291(3) 0.6642(3) 0.60621(15)
O5_4 O 0.1672(3) 0.8142(3) 0.51806(16)
O7_4 O 0.3453(3) 0.3446(4) 0.65378(17)
H1_4 H 0.4017 0.3105 0.6256
H2_4 H 0.3501 0.3033 0.7008
C1_4 C 0.3510(4) 0.8524(4) 0.7246(2)
C2_4 C 0.4749(4) 0.7978(4) 0.6894(2)
C3_4 C 0.6151(5) 0.8621(5) 0.7140(2)
H3_4 H 0.6369 0.9442 0.7530
C4_4 C 0.7242(4) 0.8036(5) 0.6803(2)
H4_4 H 0.8209 0.8431 0.6975
C5_4 C 0.6857(4) 0.6845(4) 0.6201(2)
C6_4 C 0.7966(4) 0.6230(4) 0.5766(2)
C7_4 C 0.5430(4) 0.6242(5) 0.6010(2)
H5_4 H 0.5184 0.5411 0.5628
C8_4 C 0.0590(4) 0.7842(4) 0.4559(2)
C9_4 C 0.0116(6) 0.9050(5) 0.3877(3)
H8_4 H 0.0595 0.8820 0.3453
H6_4 H 0.9056 0.9001 0.3646
loop_
_geom_bond_atom_site_label_1
_geom_bond_atom_site_label_2
_geom_bond_site_symmetry_1
_geom_bond_site_symmetry_2
O3 C6 1_555 1_555
O4 C6 1_555 1_555
H3 C3 1_555 1_555
C4 C3 1_555 1_555
H4 C4 1_555 1_555
C5 C4 1_555 1_555
C6 C5 1_555 1_555
H5 C7 1_555 1_555
Eu4 O3 1_555 1_555
C5 C7 1_555 1_555
H1 O7 1_555 1_555
H2 O7 1_555 1_555
Eu4 N1 1_555 1_555
N1 C2 1_555 1_555
O1 Eu4 1_555 1_555
O2 C1 1_555 1_555
O5 Eu4 1_555 1_555
C1 O1 1_555 1_555
C2 C1 1_555 1_555
Eu3 O2 1_555 1_555
C9 C8 1_555 1_555
H6 C9 1_555 1_555
H7 C9 1_555 1_555
H8 C9 1_555 1_555
O6 C8 1_555 1_555
Eu2 O6_2 1_555 1_555
Eu3 N1_2 1_555 1_555
N1_2 C2_2 1_555 1_555
O1_2 Eu3 1_555 1_555
O8 C1_2 1_555 1_555
O9 C6_2 1_555 1_555
O4_2 C6_2 1_555 1_555
O5_2 Eu3 1_555 1_555
O7_2 Eu3 1_555 1_555
H1_2 O7_2 1_555 1_555
H2_2 O7_2 1_555 1_555
C1_2 O1_2 1_555 1_555
C2_2 C1_2 1_555 1_555
C3_2 C2_2 1_555 1_555
H3_2 C3_2 1_555 1_555
C4_2 C3_2 1_555 1_555
H4_2 C4_2 1_555 1_555
C5_2 C4_2 1_555 1_555
C6_2 C5_2 1_555 1_555
C7_2 N1_2 1_555 1_555
H5_2 C7_2 1_555 1_555
C8_2 O5_2 1_555 1_555
C9_2 C8_2 1_555 1_555
H8_2 C9_2 1_555 1_555
Eu2 O4_2 1_555 1_555
O10_2 Eu3 1_555 1_555
O11_2 Eu3 1_555 1_555
C5_2 C7_2 1_555 1_555
C9_3 C8_3 1_555 1_555
H6_3 C9_3 1_555 1_555
H7_3 C9_3 1_555 1_555
H8_3 C9_3 1_555 1_555
O11 C8_3 1_555 1_555
Eu5 N1_3 1_555 1_555
N1_3 C2_3 1_555 1_555
O1_3 Eu5 1_555 1_555
O2_2 C1_3 1_555 1_555
O5_3 Eu5 1_555 1_555
C1_3 O1_3 1_555 1_555
C2_3 C1_3 1_555 1_555
Eu2 O2_2 1_555 1_555
O9_2 Eu5 1_555 1_555
H1_3 O7_3 1_555 1_555
H2_3 O7_3 1_555 1_555
O9_2 C6_3 1_555 1_555
O10 C6_3 1_555 1_555
H3_3 C3_3 1_555 1_555
C4_3 C3_3 1_555 1_555
H4_3 C4_3 1_555 1_555
C5_3 C4_3 1_555 1_555
C6_3 C5_3 1_555 1_555
H5_3 C7_3 1_555 1_555
C5_3 C7_3 1_555 1_555
Eu2 N1_4 1_555 1_555
N1_4 C2_4 1_555 1_555
O1_4 Eu2 1_555 1_555
O8_2 C1_4 1_555 1_555
O3_2 C6_4 1_555 1_555
O10_2 C6_4 1_555 1_555
O5_4 Eu2 1_555 1_555
O7_4 Eu2 1_555 1_555
H1_4 O7_4 1_555 1_555
H2_4 O7_4 1_555 1_555
C1_4 O1_4 1_555 1_555
C2_4 C1_4 1_555 1_555
C3_4 C2_4 1_555 1_555
H3_4 C3_4 1_555 1_555
C4_4 C3_4 1_555 1_555
H4_4 C4_4 1_555 1_555
C5_4 C4_4 1_555 1_555
C6_4 C5_4 1_555 1_555
C7_4 N1_4 1_555 1_555
H5_4 C7_4 1_555 1_555
C8_4 O5_4 1_555 1_555
C9_4 C8_4 1_555 1_555
H8_4 C9_4 1_555 1_555
C5_4 C7_4 1_555 1_555

#END
