
###############################################################################
#
# This file contains modified crystal structure data generated from the
# MOF subset of the Cambridge Structural Database (CSD) v543 
# hosted by the Cambridge Crystallographic Data Centre (CCDC).
#
# This work is licensed under the Creative Commons
# Attribution-NonCommercial-ShareAlike 4.0 International License.
# To view a copy of this license, visit
# http://creativecommons.org/licenses/by-nc-sa/4.0/
# or send a letter to
# Creative Commons, PO Box 1866, Mountain View, CA 94042, USA.
#
# CIF created using the CSD Python API on 29 September 2022
# The structure has been converted into the P1 space group
# The structure has a 3D framework
# The original CSD entry PEYWAT is in the monoclinic crystal system
# The framework has been calculated to contain at least 10.0% void space
# The void calculation uses a probe of radius 1.32A, grid spacing 0.4
#
###############################################################################

data_PEYWAT
_chemical_formula_moiety         '(C144 H88 Br8 Co4 N16 O32 S8)n'
_symmetry_cell_setting           triclinic
_symmetry_space_group_name_H-M   'P 1'
_symmetry_Int_Tables_number      1
_space_group_name_Hall           'P 1'
loop_
_symmetry_equiv_pos_site_id
_symmetry_equiv_pos_as_xyz
1 x,y,z
_cell_length_a                   15.284(3)
_cell_length_b                   13.011(3)
_cell_length_c                   23.350(5)
_cell_angle_alpha                90
_cell_angle_beta                 103.853(3)
_cell_angle_gamma                90
_cell_volume                     4508.32
loop_
_atom_site_label
_atom_site_type_symbol
_atom_site_fract_x
_atom_site_fract_y
_atom_site_fract_z
O4 O 0.2151(5) 0.0315(6) 0.9406(4)
H2 H 0.0441 0.0409 0.9213
Co1 Co 0.13795(9) 0.50851(10) 0.02769(7)
O5 O 0.1032(5) 0.3692(5) 0.0580(3)
O6 O 0.2385(5) 0.6142(6) 0.0164(4)
O7 O 0.2849(5) 0.4685(6) 0.0594(4)
N3 N 0.1340(6) 0.5786(7) 0.1108(4)
S1 S 0.1418(4) 0.2503(3) 0.78162(18)
O2 O 0.0388(5) 0.6059(6) 0.9866(4)
O3 O 0.2615(5) 0.8858(6) 0.9836(4)
N1 N 0.1344(6) 0.4335(7) 0.9443(4)
N2 N 0.1340(6) 0.4214(7) 0.6108(4)
C5 C 0.0326(8) 0.9729(9) 0.9294(6)
C6 C 0.1028(7) 0.9086(8) 0.9516(5)
C7 C 0.0862(7) 0.8064(8) 0.9617(5)
H3 H 0.1341 0.7623 0.9766
C8 C 0.1988(8) 0.9442(9) 0.9597(5)
C9 C 0.1048(7) 0.4758(8) 0.8923(5)
H4 H 0.0820 0.5422 0.8910
C10 C 0.1052(8) 0.4284(10) 0.8393(5)
H5 H 0.0827 0.4616 0.8035
C11 C 0.1409(8) 0.3286(9) 0.8413(6)
C12 C 0.1702(8) 0.2829(11) 0.8963(6)
H6 H 0.1921 0.2159 0.8998
C13 C 0.1663(8) 0.3387(9) 0.9453(6)
H7 H 0.1875 0.3078 0.9819
C14 C 0.1001(8) 0.3297(10) 0.6146(6)
H8 H 0.0753 0.2958 0.5793
C15 C 0.0980(9) 0.2790(10) 0.6662(6)
H9 H 0.0722 0.2141 0.6655
C16 C 0.1351(9) 0.3272(10) 0.7184(6)
C17 C 0.1687(11) 0.4266(11) 0.7165(6)
H10 H 0.1910 0.4638 0.7509
C18 C 0.1677(9) 0.4663(10) 0.6643(6)
H11 H 0.1925 0.5315 0.6640
Co3 Co 0.13795(9) 0.49149(10) 0.52769(7)
Co4 Co 0.36205(9) 0.99149(10) 0.97231(7)
O1 O 0.8968(5) 0.6308(5) 0.9420(3)
C1 C 0.9770(7) 0.6612(8) 0.9595(5)
C2 C 0.9979(7) 0.7693(8) 0.9499(4)
C3 C 0.9267(7) 0.8387(8) 0.9287(5)
H1 H 0.8675 0.8155 0.9217
C4 C 0.9428(7) 0.9385(9) 0.9183(6)
Co2 Co 0.86205(9) 0.49149(10) 0.97231(7)
O1_2 O 0.1032(5) 0.6308(5) 0.5580(3)
C1_2 C 0.0230(7) 0.6612(8) 0.5405(5)
C2_2 C 0.0021(7) 0.7693(8) 0.5501(4)
C3_2 C 0.0733(7) 0.8387(8) 0.5713(5)
H1_2 H 0.1325 0.8155 0.5783
C4_2 C 0.0572(7) 0.9385(9) 0.5817(6)
O4_2 O 0.7849(5) 0.0315(6) 0.5594(4)
H2_2 H 0.9559 0.0409 0.5787
Co1_2 Co 0.86205(9) 0.50851(10) 0.47231(7)
S1_2 S 0.8582(4) 0.2503(3) 0.71838(18)
O2_2 O 0.9612(5) 0.6059(6) 0.5134(4)
O3_2 O 0.7385(5) 0.8858(6) 0.5164(4)
N1_2 N 0.8656(6) 0.4335(7) 0.5557(4)
N2_2 N 0.8660(6) 0.4214(7) 0.8892(4)
C5_2 C 0.9674(8) 0.9729(9) 0.5706(6)
C6_2 C 0.8972(7) 0.9086(8) 0.5484(5)
C7_2 C 0.9138(7) 0.8064(8) 0.5383(5)
H3_2 H 0.8659 0.7623 0.5234
C8_2 C 0.8012(8) 0.9442(9) 0.5403(5)
C9_2 C 0.8952(7) 0.4758(8) 0.6077(5)
H4_2 H 0.9180 0.5422 0.6090
C10_2 C 0.8948(8) 0.4284(10) 0.6607(5)
H5_2 H 0.9173 0.4616 0.6965
C11_2 C 0.8591(8) 0.3286(9) 0.6587(6)
C12_2 C 0.8298(8) 0.2829(11) 0.6037(6)
H6_2 H 0.8079 0.2159 0.6002
C13_2 C 0.8337(8) 0.3387(9) 0.5547(6)
H7_2 H 0.8125 0.3078 0.5181
C14_2 C 0.8999(8) 0.3297(10) 0.8854(6)
H8_2 H 0.9247 0.2958 0.9207
C15_2 C 0.9020(9) 0.2790(10) 0.8338(6)
H9_2 H 0.9278 0.2141 0.8345
C16_2 C 0.8649(9) 0.3272(10) 0.7816(6)
C17_2 C 0.8313(11) 0.4266(11) 0.7835(6)
H10_2 H 0.8090 0.4638 0.7491
C18_2 C 0.8323(9) 0.4663(10) 0.8357(6)
H11_2 H 0.8075 0.5315 0.8360
Co4_2 Co 0.63795(9) 0.99149(10) 0.52769(7)
O5_2 O 0.8968(5) 0.3692(5) 0.4420(3)
O6_2 O 0.7615(5) 0.6142(6) 0.4836(4)
O7_2 O 0.7151(5) 0.4685(6) 0.4406(4)
N3_2 N 0.8660(6) 0.5786(7) 0.3892(4)
Co1_3 Co 0.63795(9) 0.00851(10) 0.02769(7)
O6_3 O 0.7385(5) 0.1142(6) 0.0164(4)
N3_3 N 0.6340(6) 0.0786(7) 0.1108(4)
Br1 Br 0.34741(9) 0.52967(11) 0.89004(9)
O1_3 O 0.3968(5) 0.1308(5) 0.9420(3)
O2_3 O 0.5388(5) 0.1059(6) 0.9866(4)
O3_3 O 0.7615(5) 0.3858(6) 0.9836(4)
O4_3 O 0.7151(5) 0.5315(6) 0.9406(4)
C1_3 C 0.4770(7) 0.1612(8) 0.9595(5)
C2_3 C 0.4979(7) 0.2693(8) 0.9499(4)
C3_3 C 0.4267(7) 0.3387(8) 0.9287(5)
H1_3 H 0.3675 0.3155 0.9217
C4_3 C 0.4428(7) 0.4385(9) 0.9183(6)
C5_3 C 0.5326(8) 0.4729(9) 0.9294(6)
H2_3 H 0.5441 0.5409 0.9213
C6_3 C 0.6028(7) 0.4086(8) 0.9516(5)
C7_3 C 0.5862(7) 0.3064(8) 0.9617(5)
H3_3 H 0.6341 0.2623 0.9766
C8_3 C 0.6988(8) 0.4442(9) 0.9597(5)
H4_3 H 0.5820 0.0422 0.8910
H11_3 H 0.6925 0.0315 0.6640
O5_3 O 0.6032(5) 0.8692(5) 0.0580(3)
O7_3 O 0.7849(5) 0.9685(6) 0.0594(4)
S1_3 S 0.6418(4) 0.7503(3) 0.78162(18)
N1_3 N 0.6344(6) 0.9335(7) 0.9443(4)
N2_3 N 0.6340(6) 0.9214(7) 0.6108(4)
C9_3 C 0.6048(7) 0.9758(8) 0.8923(5)
C10_3 C 0.6052(8) 0.9284(10) 0.8393(5)
H5_3 H 0.5827 0.9616 0.8035
C11_3 C 0.6409(8) 0.8286(9) 0.8413(6)
C12_3 C 0.6702(8) 0.7829(11) 0.8963(6)
H6_3 H 0.6921 0.7159 0.8998
C13_3 C 0.6663(8) 0.8387(9) 0.9453(6)
H7_3 H 0.6875 0.8078 0.9819
C14_3 C 0.6001(8) 0.8297(10) 0.6146(6)
H8_3 H 0.5753 0.7958 0.5793
C15_3 C 0.5980(9) 0.7790(10) 0.6662(6)
H9_3 H 0.5722 0.7141 0.6655
C16_3 C 0.6351(9) 0.8272(10) 0.7184(6)
C17_3 C 0.6687(11) 0.9266(11) 0.7165(6)
H10_3 H 0.6910 0.9638 0.7509
C18_3 C 0.6677(9) 0.9663(10) 0.6643(6)
Co1_4 Co 0.36205(9) 0.00851(10) 0.47231(7)
Br1_2 Br 0.65259(9) 0.52967(11) 0.60996(9)
O1_4 O 0.6032(5) 0.1308(5) 0.5580(3)
O2_4 O 0.4612(5) 0.1059(6) 0.5134(4)
O3_4 O 0.2385(5) 0.3858(6) 0.5164(4)
O4_4 O 0.2849(5) 0.5315(6) 0.5594(4)
C1_4 C 0.5230(7) 0.1612(8) 0.5405(5)
C2_4 C 0.5021(7) 0.2693(8) 0.5501(4)
C3_4 C 0.5733(7) 0.3387(8) 0.5713(5)
H1_4 H 0.6325 0.3155 0.5783
C4_4 C 0.5572(7) 0.4385(9) 0.5817(6)
C5_4 C 0.4674(8) 0.4729(9) 0.5706(6)
H2_4 H 0.4559 0.5409 0.5787
C6_4 C 0.3972(7) 0.4086(8) 0.5484(5)
C7_4 C 0.4138(7) 0.3064(8) 0.5383(5)
H3_4 H 0.3659 0.2623 0.5234
C8_4 C 0.3012(8) 0.4442(9) 0.5403(5)
H4_4 H 0.4180 0.0422 0.6090
H11_4 H 0.3075 0.0315 0.8360
O6_4 O 0.2615(5) 0.1142(6) 0.4836(4)
N3_4 N 0.3660(6) 0.0786(7) 0.3892(4)
S1_4 S 0.3582(4) 0.7503(3) 0.71838(18)
N1_4 N 0.3656(6) 0.9335(7) 0.5557(4)
N2_4 N 0.3660(6) 0.9214(7) 0.8892(4)
C9_4 C 0.3952(7) 0.9758(8) 0.6077(5)
C10_4 C 0.3948(8) 0.9284(10) 0.6607(5)
H5_4 H 0.4173 0.9616 0.6965
C11_4 C 0.3591(8) 0.8286(9) 0.6587(6)
C12_4 C 0.3298(8) 0.7829(11) 0.6037(6)
H6_4 H 0.3079 0.7159 0.6002
C13_4 C 0.3337(8) 0.8387(9) 0.5547(6)
H7_4 H 0.3125 0.8078 0.5181
C14_4 C 0.3999(8) 0.8297(10) 0.8854(6)
H8_4 H 0.4247 0.7958 0.9207
C15_4 C 0.4020(9) 0.7790(10) 0.8338(6)
H9_4 H 0.4278 0.7141 0.8345
C16_4 C 0.3649(9) 0.8272(10) 0.7816(6)
C17_4 C 0.3313(11) 0.9266(11) 0.7835(6)
H10_4 H 0.3090 0.9638 0.7491
C18_4 C 0.3323(9) 0.9663(10) 0.8357(6)
O5_4 O 0.3968(5) 0.8692(5) 0.4420(3)
O7_4 O 0.2151(5) 0.9685(6) 0.4406(4)
C1_5 C 0.0230(7) 0.3388(8) 0.0405(5)
C2_5 C 0.0021(7) 0.2307(8) 0.0501(4)
C3_5 C 0.0733(7) 0.1613(8) 0.0713(5)
H1_5 H 0.1325 0.1845 0.0783
C4_5 C 0.0572(7) 0.0615(9) 0.0817(6)
S1_5 S 0.8582(4) 0.7497(3) 0.21838(18)
O2_5 O 0.9612(5) 0.3941(6) 0.0134(4)
N1_5 N 0.8656(6) 0.5665(7) 0.0557(4)
C5_5 C 0.9674(8) 0.0271(9) 0.0706(6)
C6_5 C 0.8972(7) 0.0914(8) 0.0484(5)
C7_5 C 0.9138(7) 0.1936(8) 0.0383(5)
H3_5 H 0.8659 0.2377 0.0234
C8_5 C 0.8012(8) 0.0558(9) 0.0403(5)
C9_5 C 0.8952(7) 0.5242(8) 0.1077(5)
H4_5 H 0.9180 0.4578 0.1090
C10_5 C 0.8948(8) 0.5716(10) 0.1607(5)
H5_5 H 0.9173 0.5384 0.1965
C11_5 C 0.8591(8) 0.6714(9) 0.1587(6)
C12_5 C 0.8298(8) 0.7171(11) 0.1037(6)
H6_5 H 0.8079 0.7841 0.1002
C13_5 C 0.8337(8) 0.6613(9) 0.0547(6)
H7_5 H 0.8125 0.6922 0.0181
C14_5 C 0.8999(8) 0.6703(10) 0.3854(6)
H8_5 H 0.9247 0.7042 0.4207
C15_5 C 0.9020(9) 0.7210(10) 0.3338(6)
H9_5 H 0.9278 0.7859 0.3345
C16_5 C 0.8649(9) 0.6728(10) 0.2816(6)
C17_5 C 0.8313(11) 0.5734(11) 0.2835(6)
H10_5 H 0.8090 0.5362 0.2491
C18_5 C 0.8323(9) 0.5337(10) 0.3357(6)
H11_5 H 0.8075 0.4685 0.3360
H2_5 H 0.9559 0.9591 0.0787
S1_6 S 0.1418(4) 0.7497(3) 0.28162(18)
O2_6 O 0.0388(5) 0.3941(6) 0.4866(4)
N1_6 N 0.1344(6) 0.5665(7) 0.4443(4)
C5_6 C 0.0326(8) 0.0271(9) 0.4294(6)
C6_6 C 0.1028(7) 0.0914(8) 0.4516(5)
C7_6 C 0.0862(7) 0.1936(8) 0.4617(5)
H3_6 H 0.1341 0.2377 0.4766
C8_6 C 0.1988(8) 0.0558(9) 0.4597(5)
C9_6 C 0.1048(7) 0.5242(8) 0.3923(5)
H4_6 H 0.0820 0.4578 0.3910
C10_6 C 0.1052(8) 0.5716(10) 0.3393(5)
H5_6 H 0.0827 0.5384 0.3035
C11_6 C 0.1409(8) 0.6714(9) 0.3413(6)
C12_6 C 0.1702(8) 0.7171(11) 0.3963(6)
H6_6 H 0.1921 0.7841 0.3998
C13_6 C 0.1663(8) 0.6613(9) 0.4453(6)
H7_6 H 0.1875 0.6922 0.4819
C14_6 C 0.1001(8) 0.6703(10) 0.1146(6)
H8_6 H 0.0753 0.7042 0.0793
C15_6 C 0.0980(9) 0.7210(10) 0.1662(6)
H9_6 H 0.0722 0.7859 0.1655
C16_6 C 0.1351(9) 0.6728(10) 0.2184(6)
C17_6 C 0.1687(11) 0.5734(11) 0.2165(6)
H10_6 H 0.1910 0.5362 0.2509
C18_6 C 0.1677(9) 0.5337(10) 0.1643(6)
H11_6 H 0.1925 0.4685 0.1640
H2_6 H 0.0441 0.9591 0.4213
C1_6 C 0.9770(7) 0.3388(8) 0.4595(5)
C2_6 C 0.9979(7) 0.2307(8) 0.4499(4)
C3_6 C 0.9267(7) 0.1613(8) 0.4287(5)
H1_6 H 0.8675 0.1845 0.4217
C4_6 C 0.9428(7) 0.0615(9) 0.4183(6)
S1_7 S 0.3582(4) 0.2497(3) 0.21838(18)
N1_7 N 0.3656(6) 0.0665(7) 0.0557(4)
C9_7 C 0.3952(7) 0.0242(8) 0.1077(5)
C10_7 C 0.3948(8) 0.0716(10) 0.1607(5)
H5_7 H 0.4173 0.0384 0.1965
C11_7 C 0.3591(8) 0.1714(9) 0.1587(6)
C12_7 C 0.3298(8) 0.2171(11) 0.1037(6)
H6_7 H 0.3079 0.2841 0.1002
C13_7 C 0.3337(8) 0.1613(9) 0.0547(6)
H7_7 H 0.3125 0.1922 0.0181
C14_7 C 0.3999(8) 0.1703(10) 0.3854(6)
H8_7 H 0.4247 0.2042 0.4207
C15_7 C 0.4020(9) 0.2210(10) 0.3338(6)
H9_7 H 0.4278 0.2859 0.3345
C16_7 C 0.3649(9) 0.1728(10) 0.2816(6)
C17_7 C 0.3313(11) 0.0734(11) 0.2835(6)
H10_7 H 0.3090 0.0362 0.2491
C18_7 C 0.3323(9) 0.0337(10) 0.3357(6)
Br1_3 Br 0.65259(9) 0.47033(11) 0.10996(9)
O2_7 O 0.4612(5) 0.8941(6) 0.0134(4)
C1_7 C 0.5230(7) 0.8388(8) 0.0405(5)
C2_7 C 0.5021(7) 0.7307(8) 0.0501(4)
C3_7 C 0.5733(7) 0.6613(8) 0.0713(5)
H1_7 H 0.6325 0.6845 0.0783
C4_7 C 0.5572(7) 0.5615(9) 0.0817(6)
C5_7 C 0.4674(8) 0.5271(9) 0.0706(6)
H2_7 H 0.4559 0.4591 0.0787
C6_7 C 0.3972(7) 0.5914(8) 0.0484(5)
C7_7 C 0.4138(7) 0.6936(8) 0.0383(5)
H3_7 H 0.3659 0.7377 0.0234
C8_7 C 0.3012(8) 0.5558(9) 0.0403(5)
H4_7 H 0.4180 0.9578 0.1090
H11_7 H 0.3075 0.9685 0.3360
S1_8 S 0.6418(4) 0.2497(3) 0.28162(18)
N1_8 N 0.6344(6) 0.0665(7) 0.4443(4)
C9_8 C 0.6048(7) 0.0242(8) 0.3923(5)
C10_8 C 0.6052(8) 0.0716(10) 0.3393(5)
H5_8 H 0.5827 0.0384 0.3035
C11_8 C 0.6409(8) 0.1714(9) 0.3413(6)
C12_8 C 0.6702(8) 0.2171(11) 0.3963(6)
H6_8 H 0.6921 0.2841 0.3998
C13_8 C 0.6663(8) 0.1613(9) 0.4453(6)
H7_8 H 0.6875 0.1922 0.4819
C14_8 C 0.6001(8) 0.1703(10) 0.1146(6)
H8_8 H 0.5753 0.2042 0.0793
C15_8 C 0.5980(9) 0.2210(10) 0.1662(6)
H9_8 H 0.5722 0.2859 0.1655
C16_8 C 0.6351(9) 0.1728(10) 0.2184(6)
C17_8 C 0.6687(11) 0.0734(11) 0.2165(6)
H10_8 H 0.6910 0.0362 0.2509
C18_8 C 0.6677(9) 0.0337(10) 0.1643(6)
Br1_4 Br 0.34741(9) 0.47033(11) 0.39004(9)
O2_8 O 0.5388(5) 0.8941(6) 0.4866(4)
C1_8 C 0.4770(7) 0.8388(8) 0.4595(5)
C2_8 C 0.4979(7) 0.7307(8) 0.4499(4)
C3_8 C 0.4267(7) 0.6613(8) 0.4287(5)
H1_8 H 0.3675 0.6845 0.4217
C4_8 C 0.4428(7) 0.5615(9) 0.4183(6)
C5_8 C 0.5326(8) 0.5271(9) 0.4294(6)
H2_8 H 0.5441 0.4591 0.4213
C6_8 C 0.6028(7) 0.5914(8) 0.4516(5)
C7_8 C 0.5862(7) 0.6936(8) 0.4617(5)
H3_8 H 0.6341 0.7377 0.4766
C8_8 C 0.6988(8) 0.5558(9) 0.4597(5)
H4_8 H 0.5820 0.9578 0.3910
H11_8 H 0.6925 0.9685 0.1640
Br1_5 Br 0.84741(9) 0.02967(11) 0.89004(9)
Br1_6 Br 0.15259(9) 0.02967(11) 0.60996(9)
Br1_7 Br 0.15259(9) 0.97033(11) 0.10996(9)
Br1_8 Br 0.84741(9) 0.97033(11) 0.39004(9)
loop_
_geom_bond_atom_site_label_1
_geom_bond_atom_site_label_2
_geom_bond_site_symmetry_1
_geom_bond_site_symmetry_2
O5 Co1 1_555 1_555
O6 Co1 1_555 1_555
O7 Co1 1_555 1_555
N3 Co1 1_555 1_555
S1 C11 1_555 1_555
O3 C8 1_555 1_555
N2 C14 1_555 1_555
C6 C5 1_555 1_555
H3 C7 1_555 1_555
C8 C6 1_555 1_555
C9 N1 1_555 1_555
H4 C9 1_555 1_555
C10 C9 1_555 1_555
H5 C10 1_555 1_555
C11 C10 1_555 1_555
C12 C11 1_555 1_555
H6 C12 1_555 1_555
C13 N1 1_555 1_555
H7 C13 1_555 1_555
C14 H8 1_555 1_555
C15 C14 1_555 1_555
H9 C15 1_555 1_555
C16 S1 1_555 1_555
C17 C16 1_555 1_555
H10 C17 1_555 1_555
C18 N2 1_555 1_555
H11 C18 1_555 1_555
Co3 N2 1_555 1_555
Co4 O3 1_555 1_555
C6 C7 1_555 1_555
C12 C13 1_555 1_555
C15 C16 1_555 1_555
C17 C18 1_555 1_555
O1 C1 1_555 1_555
C1 C2 1_555 1_555
C2 C3 1_555 1_555
C3 H1 1_555 1_555
C4 C3 1_555 1_555
Co2 O1 1_555 1_555
O1_2 C1_2 1_555 1_555
C1_2 C2_2 1_555 1_555
C2_2 C3_2 1_555 1_555
C3_2 H1_2 1_555 1_555
C4_2 C3_2 1_555 1_555
Co3 O1_2 1_555 1_555
Co1_2 O2_2 1_555 1_555
S1_2 C11_2 1_555 1_555
O3_2 C8_2 1_555 1_555
N1_2 Co1_2 1_555 1_555
N2_2 C14_2 1_555 1_555
C6_2 C5_2 1_555 1_555
H3_2 C7_2 1_555 1_555
C8_2 C6_2 1_555 1_555
C9_2 N1_2 1_555 1_555
H4_2 C9_2 1_555 1_555
C10_2 C9_2 1_555 1_555
H5_2 C10_2 1_555 1_555
C11_2 C10_2 1_555 1_555
C12_2 C11_2 1_555 1_555
H6_2 C12_2 1_555 1_555
C13_2 N1_2 1_555 1_555
H7_2 C13_2 1_555 1_555
C14_2 H8_2 1_555 1_555
C15_2 C14_2 1_555 1_555
H9_2 C15_2 1_555 1_555
C16_2 S1_2 1_555 1_555
C17_2 C16_2 1_555 1_555
H10_2 C17_2 1_555 1_555
C18_2 N2_2 1_555 1_555
H11_2 C18_2 1_555 1_555
Co2 N2_2 1_555 1_555
Co4_2 O3_2 1_555 1_555
O5_2 Co1_2 1_555 1_555
O6_2 Co1_2 1_555 1_555
O7_2 Co1_2 1_555 1_555
N3_2 Co1_2 1_555 1_555
C6_2 C7_2 1_555 1_555
C12_2 C13_2 1_555 1_555
C15_2 C16_2 1_555 1_555
C17_2 C18_2 1_555 1_555
O6_3 Co1_3 1_555 1_555
N3_3 Co1_3 1_555 1_555
Br1 C4_3 1_555 1_555
O1_3 C1_3 1_555 1_555
O2_3 C1_3 1_555 1_555
O3_3 C8_3 1_555 1_555
O4_3 C8_3 1_555 1_555
C1_3 C2_3 1_555 1_555
C2_3 C3_3 1_555 1_555
C3_3 H1_3 1_555 1_555
C4_3 C3_3 1_555 1_555
C5_3 C4_3 1_555 1_555
H2_3 C5_3 1_555 1_555
C6_3 C5_3 1_555 1_555
C7_3 C2_3 1_555 1_555
H3_3 C7_3 1_555 1_555
C8_3 C6_3 1_555 1_555
Co2 O3_3 1_555 1_555
O4_3 Co2 1_555 1_555
C6_3 C7_3 1_555 1_555
S1_3 C11_3 1_555 1_555
N2_3 C14_3 1_555 1_555
C9_3 N1_3 1_555 1_555
C10_3 C9_3 1_555 1_555
H5_3 C10_3 1_555 1_555
C11_3 C10_3 1_555 1_555
C12_3 C11_3 1_555 1_555
H6_3 C12_3 1_555 1_555
C13_3 N1_3 1_555 1_555
H7_3 C13_3 1_555 1_555
C14_3 H8_3 1_555 1_555
C15_3 C14_3 1_555 1_555
H9_3 C15_3 1_555 1_555
C16_3 S1_3 1_555 1_555
C17_3 C16_3 1_555 1_555
H10_3 C17_3 1_555 1_555
C18_3 N2_3 1_555 1_555
Co4_2 N2_3 1_555 1_555
C12_3 C13_3 1_555 1_555
C15_3 C16_3 1_555 1_555
C17_3 C18_3 1_555 1_555
Co1_4 O2_4 1_555 1_555
Br1_2 C4_4 1_555 1_555
O1_4 C1_4 1_555 1_555
O2_4 C1_4 1_555 1_555
O3_4 C8_4 1_555 1_555
O4_4 C8_4 1_555 1_555
C1_4 C2_4 1_555 1_555
C2_4 C3_4 1_555 1_555
C3_4 H1_4 1_555 1_555
C4_4 C3_4 1_555 1_555
C5_4 C4_4 1_555 1_555
H2_4 C5_4 1_555 1_555
C6_4 C5_4 1_555 1_555
C7_4 C2_4 1_555 1_555
H3_4 C7_4 1_555 1_555
C8_4 C6_4 1_555 1_555
Co3 O3_4 1_555 1_555
O6_4 Co1_4 1_555 1_555
N3_4 Co1_4 1_555 1_555
O4_4 Co3 1_555 1_555
C6_4 C7_4 1_555 1_555
S1_4 C11_4 1_555 1_555
N2_4 C14_4 1_555 1_555
C9_4 N1_4 1_555 1_555
C10_4 C9_4 1_555 1_555
H5_4 C10_4 1_555 1_555
C11_4 C10_4 1_555 1_555
C12_4 C11_4 1_555 1_555
H6_4 C12_4 1_555 1_555
C13_4 N1_4 1_555 1_555
H7_4 C13_4 1_555 1_555
C14_4 H8_4 1_555 1_555
C15_4 C14_4 1_555 1_555
H9_4 C15_4 1_555 1_555
C16_4 S1_4 1_555 1_555
C17_4 C16_4 1_555 1_555
H10_4 C17_4 1_555 1_555
C18_4 N2_4 1_555 1_555
Co4 N2_4 1_555 1_555
C12_4 C13_4 1_555 1_555
C15_4 C16_4 1_555 1_555
C17_4 C18_4 1_555 1_555
O5 C1_5 1_555 1_555
C1_5 C2_5 1_555 1_555
C2_5 C3_5 1_555 1_555
C3_5 H1_5 1_555 1_555
C4_5 C3_5 1_555 1_555
S1_5 C11_5 1_555 1_555
O6_3 C8_5 1_555 1_555
N3_2 C14_5 1_555 1_555
C6_5 C5_5 1_555 1_555
H3_5 C7_5 1_555 1_555
C8_5 C6_5 1_555 1_555
C9_5 N1_5 1_555 1_555
H4_5 C9_5 1_555 1_555
C10_5 C9_5 1_555 1_555
H5_5 C10_5 1_555 1_555
C11_5 C10_5 1_555 1_555
C12_5 C11_5 1_555 1_555
H6_5 C12_5 1_555 1_555
C13_5 N1_5 1_555 1_555
H7_5 C13_5 1_555 1_555
C14_5 H8_5 1_555 1_555
C15_5 C14_5 1_555 1_555
H9_5 C15_5 1_555 1_555
C16_5 S1_5 1_555 1_555
C17_5 C16_5 1_555 1_555
H10_5 C17_5 1_555 1_555
C18_5 N3_2 1_555 1_555
H11_5 C18_5 1_555 1_555
C6_5 C7_5 1_555 1_555
C12_5 C13_5 1_555 1_555
C15_5 C16_5 1_555 1_555
C17_5 C18_5 1_555 1_555
Co3 O2_6 1_555 1_555
S1_6 C11_6 1_555 1_555
O6_4 C8_6 1_555 1_555
N1_6 Co3 1_555 1_555
N3 C14_6 1_555 1_555
C6_6 C5_6 1_555 1_555
H3_6 C7_6 1_555 1_555
C8_6 C6_6 1_555 1_555
C9_6 N1_6 1_555 1_555
H4_6 C9_6 1_555 1_555
C10_6 C9_6 1_555 1_555
H5_6 C10_6 1_555 1_555
C11_6 C10_6 1_555 1_555
C12_6 C11_6 1_555 1_555
H6_6 C12_6 1_555 1_555
C13_6 N1_6 1_555 1_555
H7_6 C13_6 1_555 1_555
C14_6 H8_6 1_555 1_555
C15_6 C14_6 1_555 1_555
H9_6 C15_6 1_555 1_555
C16_6 S1_6 1_555 1_555
C17_6 C16_6 1_555 1_555
H10_6 C17_6 1_555 1_555
C18_6 N3 1_555 1_555
H11_6 C18_6 1_555 1_555
C6_6 C7_6 1_555 1_555
C12_6 C13_6 1_555 1_555
C15_6 C16_6 1_555 1_555
C17_6 C18_6 1_555 1_555
O5_2 C1_6 1_555 1_555
C1_6 C2_6 1_555 1_555
C2_6 C3_6 1_555 1_555
C3_6 H1_6 1_555 1_555
C4_6 C3_6 1_555 1_555
S1_7 C11_7 1_555 1_555
N3_4 C14_7 1_555 1_555
C9_7 N1_7 1_555 1_555
C10_7 C9_7 1_555 1_555
H5_7 C10_7 1_555 1_555
C11_7 C10_7 1_555 1_555
C12_7 C11_7 1_555 1_555
H6_7 C12_7 1_555 1_555
C13_7 N1_7 1_555 1_555
H7_7 C13_7 1_555 1_555
C14_7 H8_7 1_555 1_555
C15_7 C14_7 1_555 1_555
H9_7 C15_7 1_555 1_555
C16_7 S1_7 1_555 1_555
C17_7 C16_7 1_555 1_555
H10_7 C17_7 1_555 1_555
C18_7 N3_4 1_555 1_555
C12_7 C13_7 1_555 1_555
C15_7 C16_7 1_555 1_555
C17_7 C18_7 1_555 1_555
Br1_3 C4_7 1_555 1_555
O5_3 C1_7 1_555 1_555
O2_7 C1_7 1_555 1_555
O6 C8_7 1_555 1_555
O7 C8_7 1_555 1_555
C1_7 C2_7 1_555 1_555
C2_7 C3_7 1_555 1_555
C3_7 H1_7 1_555 1_555
C4_7 C3_7 1_555 1_555
C5_7 C4_7 1_555 1_555
H2_7 C5_7 1_555 1_555
C6_7 C5_7 1_555 1_555
C7_7 C2_7 1_555 1_555
H3_7 C7_7 1_555 1_555
C8_7 C6_7 1_555 1_555
C6_7 C7_7 1_555 1_555
S1_8 C11_8 1_555 1_555
N3_3 C14_8 1_555 1_555
C9_8 N1_8 1_555 1_555
C10_8 C9_8 1_555 1_555
H5_8 C10_8 1_555 1_555
C11_8 C10_8 1_555 1_555
C12_8 C11_8 1_555 1_555
H6_8 C12_8 1_555 1_555
C13_8 N1_8 1_555 1_555
H7_8 C13_8 1_555 1_555
C14_8 H8_8 1_555 1_555
C15_8 C14_8 1_555 1_555
H9_8 C15_8 1_555 1_555
C16_8 S1_8 1_555 1_555
C17_8 C16_8 1_555 1_555
H10_8 C17_8 1_555 1_555
C18_8 N3_3 1_555 1_555
C12_8 C13_8 1_555 1_555
C15_8 C16_8 1_555 1_555
C17_8 C18_8 1_555 1_555
Co4_2 O2_8 1_555 1_555
Br1_4 C4_8 1_555 1_555
O5_4 C1_8 1_555 1_555
O2_8 C1_8 1_555 1_555
O6_2 C8_8 1_555 1_555
O7_2 C8_8 1_555 1_555
C1_8 C2_8 1_555 1_555
C2_8 C3_8 1_555 1_555
C3_8 H1_8 1_555 1_555
C4_8 C3_8 1_555 1_555
C5_8 C4_8 1_555 1_555
H2_8 C5_8 1_555 1_555
C6_8 C5_8 1_555 1_555
C7_8 C2_8 1_555 1_555
H3_8 C7_8 1_555 1_555
C8_8 C6_8 1_555 1_555
C6_8 C7_8 1_555 1_555

#END
