
###############################################################################
#
# This file contains modified crystal structure data generated from the
# MOF subset of the Cambridge Structural Database (CSD) v543 
# hosted by the Cambridge Crystallographic Data Centre (CCDC).
#
# This work is licensed under the Creative Commons
# Attribution-NonCommercial-ShareAlike 4.0 International License.
# To view a copy of this license, visit
# http://creativecommons.org/licenses/by-nc-sa/4.0/
# or send a letter to
# Creative Commons, PO Box 1866, Mountain View, CA 94042, USA.
#
# CIF created using the CSD Python API on 29 September 2022
# The structure has been converted into the P1 space group
# The structure has a 3D framework
# The original CSD entry PIBBEK is in the monoclinic crystal system
# The framework has been calculated to contain at least 10.0% void space
# The void calculation uses a probe of radius 1.32A, grid spacing 0.4
#
###############################################################################

data_PIBBEK
_chemical_formula_moiety         '(C52 H52 Cu4 N20 O24)n'
_symmetry_cell_setting           triclinic
_symmetry_space_group_name_H-M   'P 1'
_symmetry_Int_Tables_number      1
_space_group_name_Hall           'P 1'
loop_
_symmetry_equiv_pos_site_id
_symmetry_equiv_pos_as_xyz
1 x,y,z
_cell_length_a                   11.1999(18)
_cell_length_b                   17.297(3)
_cell_length_c                   14.0431(19)
_cell_angle_alpha                90
_cell_angle_beta                 124.762(9)
_cell_angle_gamma                90
_cell_volume                     2234.96
loop_
_atom_site_label
_atom_site_type_symbol
_atom_site_fract_x
_atom_site_fract_y
_atom_site_fract_z
Cu2 Cu 0.14058(7) 0.51842(3) 0.61392(5)
O7 O 0.0774(4) 0.4623(2) 0.4726(3)
O8 O 0.2472(4) 0.6090(2) 0.5897(3)
O9 O 0.0304(4) 0.6427(2) 0.4351(3)
O10 O 0.0356(4) 0.6698(2) 0.6712(3)
O11 O 0.1837(4) 0.5674(2) 0.7529(3)
N6 N 0.2918(5) 0.4338(2) 0.7072(3)
Cu1 Cu 0.89661(7) 0.64854(4) 0.50700(5)
O1 O 0.9226(4) 0.5377(2) 0.5274(3)
H1 H 0.889(7) 0.526(4) 0.549(6)
O2 O 0.8641(5) 0.7593(2) 0.4837(4)
O3 O 0.2472(4) 0.8910(2) 0.0897(3)
N1 N 0.6159(5) 0.6792(3) 0.2790(4)
N2 N 0.7208(5) 0.6298(2) 0.3491(4)
N3 N 0.7082(5) 0.5662(2) 0.2928(3)
N4 N 0.5943(5) 0.5719(2) 0.1832(4)
N5 N 0.7153(10) 0.8597(4) 0.3948(8)
C1 C 0.5389(5) 0.6419(3) 0.1777(4)
C2 C 0.4087(5) 0.6753(3) 0.0742(4)
C3 C 0.3566(6) 0.7454(3) 0.0846(4)
H2 H 0.4085 0.7718 0.1548
C8 C 0.1638(6) 0.8478(3) 0.0058(4)
C10 C 0.7668(11) 0.7993(5) 0.4625(9)
C11 C 0.6897(15) 0.7813(8) 0.5233(13)
H5 H 0.6406 0.7325 0.4963
H6 H 0.6204 0.8212 0.5055
H7 H 0.7606 0.7790 0.6056
C12 C 0.789(2) 0.8670(13) 0.3251(15)
H8 H 0.7994 0.8164 0.3024
H9 H 0.8828 0.8907 0.3738
H10 H 0.7285 0.8982 0.2572
C13 C 0.6003(16) 0.9121(8) 0.3679(16)
H11 H 0.5194 0.8833 0.3559
H12 H 0.5701 0.9404 0.2988
H13 H 0.6345 0.9475 0.4311
Cu6 Cu 0.85942(7) 0.48158(3) 0.38608(5)
Cu7 Cu 0.14058(7) 0.98158(3) 0.11392(5)
O4 O 0.0304(4) 0.8573(2) 0.9351(3)
C4 C 0.2282(6) 0.7765(3) 0.9915(4)
C5 C 0.1563(6) 0.7382(3) 0.8856(4)
H3 H 0.0704 0.7587 0.8225
C6 C 0.2106(6) 0.6702(3) 0.8727(4)
C7 C 0.3360(6) 0.6375(3) 0.9682(4)
H4 H 0.3707 0.5906 0.9608
C9 C 0.1370(6) 0.6319(3) 0.7555(4)
Cu4 Cu 0.89661(7) 0.85146(4) 0.00700(5)
Cu3 Cu 0.10339(7) 0.14854(4) 0.99300(5)
Cu4_2 Cu 0.10339(7) 0.35146(4) 0.49300(5)
O2_2 O 0.1359(5) 0.2593(2) 0.0163(4)
O3_2 O 0.7528(4) 0.3910(2) 0.4103(3)
O4_2 O 0.9696(4) 0.3573(2) 0.5649(3)
O5 O 0.9644(4) 0.1698(2) 0.8288(3)
O6 O 0.8163(4) 0.0674(2) 0.7471(3)
N1_2 N 0.3841(5) 0.1792(3) 0.2210(4)
N2_2 N 0.2792(5) 0.1298(2) 0.1509(4)
N3_2 N 0.2918(5) 0.0662(2) 0.2072(3)
N4_2 N 0.4057(5) 0.0719(2) 0.3168(4)
N5_2 N 0.2847(10) 0.3597(4) 0.1052(8)
C1_2 C 0.4611(5) 0.1419(3) 0.3223(4)
C2_2 C 0.5913(5) 0.1753(3) 0.4258(4)
C3_2 C 0.6434(6) 0.2454(3) 0.4154(4)
H2_2 H 0.5915 0.2718 0.3452
C4_2 C 0.7718(6) 0.2765(3) 0.5085(4)
C5_2 C 0.8437(6) 0.2382(3) 0.6144(4)
H3_2 H 0.9296 0.2587 0.6775
C6_2 C 0.7894(6) 0.1702(3) 0.6273(4)
C7_2 C 0.6640(6) 0.1375(3) 0.5318(4)
H4_2 H 0.6293 0.0906 0.5392
C8_2 C 0.8362(6) 0.3478(3) 0.4942(4)
C9_2 C 0.8630(6) 0.1319(3) 0.7445(4)
C10_2 C 0.2332(11) 0.2993(5) 0.0375(9)
H5_2 H 0.3594 0.2325 0.0037
C12_2 C 0.211(2) 0.3670(13) 0.1749(15)
H8_2 H 0.2006 0.3164 0.1976
H9_2 H 0.1172 0.3907 0.1262
H10_2 H 0.2715 0.3982 0.2428
C13_2 C 0.3997(16) 0.4121(8) 0.1321(16)
H11_2 H 0.4806 0.3833 0.1441
H12_2 H 0.4299 0.4404 0.2012
H13_2 H 0.3655 0.4475 0.0689
Cu5 Cu 0.85942(7) 0.01842(3) 0.88608(5)
O1_2 O 0.0774(4) 0.0377(2) 0.9726(3)
H1_2 H 0.111(7) 0.026(4) 0.951(6)
C11_2 C 0.3103(15) 0.2813(8) 0.9767(13)
H6_2 H 0.3796 0.3212 0.9945
H7_2 H 0.2394 0.2790 0.8944
O9_2 O 0.9696(4) 0.1427(2) 0.0649(3)
O8_2 O 0.7528(4) 0.1090(2) 0.9103(3)
O7_2 O 0.9226(4) 0.9623(2) 0.0274(3)
N6_2 N 0.7082(5) 0.9338(2) 0.7928(3)
O5_2 O 0.9644(4) 0.3302(2) 0.3288(3)
O6_2 O 0.8163(4) 0.4326(2) 0.2471(3)
C4_3 C 0.7718(6) 0.2235(3) 0.0085(4)
C5_3 C 0.8437(6) 0.2618(3) 0.1144(4)
H3_3 H 0.9296 0.2413 0.1775
C6_3 C 0.7894(6) 0.3298(3) 0.1273(4)
C7_3 C 0.6640(6) 0.3625(3) 0.0318(4)
H4_3 H 0.6293 0.4094 0.0392
C9_3 C 0.8630(6) 0.3681(3) 0.2445(4)
H1_3 H 0.111(7) 0.474(4) 0.451(6)
O2_3 O 0.1359(5) 0.2407(2) 0.5163(4)
N1_3 N 0.3841(5) 0.3208(3) 0.7210(4)
N2_3 N 0.2792(5) 0.3702(2) 0.6509(4)
N4_3 N 0.4057(5) 0.4281(2) 0.8168(4)
N5_3 N 0.2847(10) 0.1403(4) 0.6052(8)
C1_3 C 0.4611(5) 0.3581(3) 0.8223(4)
C2_3 C 0.5913(5) 0.3247(3) 0.9258(4)
C3_3 C 0.6434(6) 0.2546(3) 0.9154(4)
H2_3 H 0.5915 0.2282 0.8452
C8_3 C 0.8362(6) 0.1522(3) 0.9942(4)
C10_3 C 0.2332(11) 0.2007(5) 0.5375(9)
C11_3 C 0.3103(15) 0.2187(8) 0.4767(13)
H5_3 H 0.3594 0.2675 0.5037
H6_3 H 0.3796 0.1788 0.4945
H7_3 H 0.2394 0.2210 0.3944
C12_3 C 0.211(2) 0.1330(13) 0.6749(15)
H8_3 H 0.2006 0.1836 0.6976
H9_3 H 0.1172 0.1093 0.6262
H10_3 H 0.2715 0.1018 0.7428
C13_3 C 0.3997(16) 0.0879(8) 0.6321(16)
H11_3 H 0.4806 0.1167 0.6441
H12_3 H 0.4299 0.0596 0.7012
H13_3 H 0.3655 0.0525 0.5689
O10_2 O 0.0356(4) 0.8302(2) 0.1712(3)
O11_2 O 0.1837(4) 0.9326(2) 0.2529(3)
H1_4 H 0.889(7) 0.974(4) 0.049(6)
C11_4 C 0.6897(15) 0.7187(8) 0.0233(13)
H6_4 H 0.6204 0.6788 0.0055
H7_4 H 0.7606 0.7210 0.1056
O2_4 O 0.8641(5) 0.7407(2) 0.9837(4)
N1_4 N 0.6159(5) 0.8208(3) 0.7790(4)
N2_4 N 0.7208(5) 0.8702(2) 0.8491(4)
N4_4 N 0.5943(5) 0.9281(2) 0.6832(4)
N5_4 N 0.7153(10) 0.6403(4) 0.8948(8)
C1_4 C 0.5389(5) 0.8581(3) 0.6777(4)
C2_4 C 0.4087(5) 0.8247(3) 0.5742(4)
C3_4 C 0.3566(6) 0.7546(3) 0.5846(4)
H2_4 H 0.4085 0.7282 0.6548
C4_4 C 0.2282(6) 0.7235(3) 0.4915(4)
C5_4 C 0.1563(6) 0.7618(3) 0.3856(4)
H3_4 H 0.0704 0.7413 0.3225
C6_4 C 0.2106(6) 0.8298(3) 0.3727(4)
C7_4 C 0.3360(6) 0.8625(3) 0.4682(4)
H4_4 H 0.3707 0.9094 0.4608
C8_4 C 0.1638(6) 0.6522(3) 0.5058(4)
C9_4 C 0.1370(6) 0.8681(3) 0.2555(4)
C10_4 C 0.7668(11) 0.7007(5) 0.9625(9)
H5_4 H 0.6406 0.7675 0.9963
C12_4 C 0.789(2) 0.6330(13) 0.8251(15)
H8_4 H 0.7994 0.6836 0.8024
H9_4 H 0.8828 0.6093 0.8738
H10_4 H 0.7285 0.6018 0.7572
C13_4 C 0.6003(16) 0.5879(8) 0.8679(16)
H11_4 H 0.5194 0.6167 0.8559
H12_4 H 0.5701 0.5596 0.7988
H13_4 H 0.6345 0.5525 0.9311
loop_
_geom_bond_atom_site_label_1
_geom_bond_atom_site_label_2
_geom_bond_site_symmetry_1
_geom_bond_site_symmetry_2
O7 Cu2 1_555 1_555
O8 Cu2 1_555 1_555
O11 Cu2 1_555 1_555
N6 Cu2 1_555 1_555
Cu1 O1 1_555 1_555
O1 H1 1_555 1_555
O2 Cu1 1_555 1_555
O3 C8 1_555 1_555
N1 N2 1_555 1_555
N2 Cu1 1_555 1_555
N3 N2 1_555 1_555
N4 N3 1_555 1_555
N5 C10 1_555 1_555
C1 N1 1_555 1_555
C2 C1 1_555 1_555
C3 C2 1_555 1_555
H2 C3 1_555 1_555
C10 O2 1_555 1_555
C11 C10 1_555 1_555
H5 C11 1_555 1_555
H6 C11 1_555 1_555
H7 C11 1_555 1_555
C12 N5 1_555 1_555
H8 C12 1_555 1_555
H9 C12 1_555 1_555
H10 C12 1_555 1_555
C13 N5 1_555 1_555
H11 C13 1_555 1_555
H12 C13 1_555 1_555
H13 C13 1_555 1_555
Cu6 O1 1_555 1_555
Cu7 O3 1_555 1_555
N3 Cu6 1_555 1_555
N4 C1 1_555 1_555
O10 C9 1_555 1_555
O11 C9 1_555 1_555
C5 C4 1_555 1_555
H3 C5 1_555 1_555
C6 C5 1_555 1_555
H4 C7 1_555 1_555
C9 C6 1_555 1_555
C6 C7 1_555 1_555
O3_2 C8_2 1_555 1_555
O4_2 C8_2 1_555 1_555
O5 C9_2 1_555 1_555
O6 C9_2 1_555 1_555
N1_2 N2_2 1_555 1_555
N3_2 N2_2 1_555 1_555
N4_2 N3_2 1_555 1_555
N5_2 C10_2 1_555 1_555
C1_2 N1_2 1_555 1_555
C2_2 C1_2 1_555 1_555
C3_2 C2_2 1_555 1_555
H2_2 C3_2 1_555 1_555
C4_2 C3_2 1_555 1_555
C5_2 C4_2 1_555 1_555
H3_2 C5_2 1_555 1_555
C6_2 C5_2 1_555 1_555
C7_2 C2_2 1_555 1_555
H4_2 C7_2 1_555 1_555
C8_2 C4_2 1_555 1_555
C9_2 C6_2 1_555 1_555
C10_2 O2_2 1_555 1_555
C12_2 N5_2 1_555 1_555
H8_2 C12_2 1_555 1_555
H9_2 C12_2 1_555 1_555
H10_2 C12_2 1_555 1_555
C13_2 N5_2 1_555 1_555
H11_2 C13_2 1_555 1_555
H12_2 C13_2 1_555 1_555
H13_2 C13_2 1_555 1_555
Cu5 O6 1_555 1_555
Cu6 O3_2 1_555 1_555
N4_2 C1_2 1_555 1_555
C6_2 C7_2 1_555 1_555
Cu3 O1_2 1_555 1_555
O1_2 H1_2 1_555 1_555
H6_2 C11_2 1_555 1_555
H7_2 C11_2 1_555 1_555
O8_2 Cu5 1_555 1_555
O5_2 C9_3 1_555 1_555
O6_2 C9_3 1_555 1_555
C5_3 C4_3 1_555 1_555
H3_3 C5_3 1_555 1_555
C6_3 C5_3 1_555 1_555
H4_3 C7_3 1_555 1_555
C9_3 C6_3 1_555 1_555
Cu6 O6_2 1_555 1_555
C6_3 C7_3 1_555 1_555
Cu4_2 O7 1_555 1_555
O7 H1_3 1_555 1_555
O2_3 Cu4_2 1_555 1_555
O8_2 C8_3 1_555 1_555
N1_3 N2_3 1_555 1_555
N2_3 Cu4_2 1_555 1_555
N6 N2_3 1_555 1_555
N4_3 N6 1_555 1_555
N5_3 C10_3 1_555 1_555
C1_3 N1_3 1_555 1_555
C2_3 C1_3 1_555 1_555
C3_3 C2_3 1_555 1_555
H2_3 C3_3 1_555 1_555
C10_3 O2_3 1_555 1_555
C11_3 C10_3 1_555 1_555
H5_3 C11_3 1_555 1_555
H6_3 C11_3 1_555 1_555
H7_3 C11_3 1_555 1_555
C12_3 N5_3 1_555 1_555
H8_3 C12_3 1_555 1_555
H9_3 C12_3 1_555 1_555
H10_3 C12_3 1_555 1_555
C13_3 N5_3 1_555 1_555
H11_3 C13_3 1_555 1_555
H12_3 C13_3 1_555 1_555
H13_3 C13_3 1_555 1_555
N4_3 C1_3 1_555 1_555
O11_2 Cu7 1_555 1_555
Cu4 O7_2 1_555 1_555
O7_2 H1_4 1_555 1_555
H6_4 C11_4 1_555 1_555
H7_4 C11_4 1_555 1_555
O8 C8_4 1_555 1_555
O9 C8_4 1_555 1_555
O10_2 C9_4 1_555 1_555
O11_2 C9_4 1_555 1_555
N1_4 N2_4 1_555 1_555
N6_2 N2_4 1_555 1_555
N4_4 N6_2 1_555 1_555
N5_4 C10_4 1_555 1_555
C1_4 N1_4 1_555 1_555
C2_4 C1_4 1_555 1_555
C3_4 C2_4 1_555 1_555
H2_4 C3_4 1_555 1_555
C4_4 C3_4 1_555 1_555
C5_4 C4_4 1_555 1_555
H3_4 C5_4 1_555 1_555
C6_4 C5_4 1_555 1_555
C7_4 C2_4 1_555 1_555
H4_4 C7_4 1_555 1_555
C8_4 C4_4 1_555 1_555
C9_4 C6_4 1_555 1_555
C10_4 O2_4 1_555 1_555
C12_4 N5_4 1_555 1_555
H8_4 C12_4 1_555 1_555
H9_4 C12_4 1_555 1_555
H10_4 C12_4 1_555 1_555
C13_4 N5_4 1_555 1_555
H11_4 C13_4 1_555 1_555
H12_4 C13_4 1_555 1_555
H13_4 C13_4 1_555 1_555
N4_4 C1_4 1_555 1_555
C6_4 C7_4 1_555 1_555

#END
