
###############################################################################
#
# This file contains modified crystal structure data generated from the
# MOF subset of the Cambridge Structural Database (CSD) v543 
# hosted by the Cambridge Crystallographic Data Centre (CCDC).
#
# This work is licensed under the Creative Commons
# Attribution-NonCommercial-ShareAlike 4.0 International License.
# To view a copy of this license, visit
# http://creativecommons.org/licenses/by-nc-sa/4.0/
# or send a letter to
# Creative Commons, PO Box 1866, Mountain View, CA 94042, USA.
#
# CIF created using the CSD Python API on 29 September 2022
# The structure has been converted into the P1 space group
# The structure has a 3D framework
# The original CSD entry PIBZUY is in the tetragonal crystal system
# The framework has been calculated to contain at least 10.0% void space
# The void calculation uses a probe of radius 1.32A, grid spacing 0.4
# H atom positions have been added when not included in the experimental data
#
###############################################################################

data_PIBZUY
_chemical_formula_moiety         '(C96 H32 Al11 O82)n'
_symmetry_cell_setting           triclinic
_symmetry_space_group_name_H-M   'P 1'
_symmetry_Int_Tables_number      1
_space_group_name_Hall           'P 1'
loop_
_symmetry_equiv_pos_site_id
_symmetry_equiv_pos_as_xyz
1 x,y,z
_cell_length_a                   21.07379(13)
_cell_length_b                   21.07379(13)
_cell_length_c                   10.64692(8)
_cell_angle_alpha                90
_cell_angle_beta                 90
_cell_angle_gamma                90
_cell_volume                     4728.35
loop_
_atom_site_label
_atom_site_type_symbol
_atom_site_fract_x
_atom_site_fract_y
_atom_site_fract_z
_atom_site_U_iso_or_equiv
_atom_site_thermal_displace_type
Al1 Al 0.31511(11) 0.000 0.000 0.0034 Uiso
O1 O 0.25530(10) 0.00530(10) 0.125 0.0051 Uiso
O2 O 0.38133(12) 0.00523(10) 0.11497(17) 0.0051 Uiso
O3 O 0.34222(11) 0.06577(10) 0.27510(19) 0.0051 Uiso
C1 C 0.38638(17) 0.03779(11) 0.2117(2) 0.0149 Uiso
C2 C 0.44804(11) 0.05399(14) 0.2823(3) 0.0149 Uiso
C3 C 0.46554(11) 0.08356(16) 0.3883(3) 0.0149 Uiso
O4 O 0.500 0.03475(19) 0.2125(4) 0.0051 Uiso
O5 O 0.61867(12) 0.00523(10) 0.11497(17) 0.0051 Uiso
O6 O 0.65778(11) 0.06577(10) 0.27510(19) 0.0051 Uiso
C4 C 0.61362(17) 0.03779(11) 0.2117(2) 0.0149 Uiso
C5 C 0.55196(11) 0.05399(14) 0.2823(3) 0.0149 Uiso
C6 C 0.53446(11) 0.08356(16) 0.3883(3) 0.0149 Uiso
Al2 Al 0.68489(11) 0.000 0.000 0.0034 Uiso
Al3 Al 0.250 0.06511(11) 0.250 0.0034 Uiso
Al4 Al 0.750 0.06511(11) 0.250 0.0034 Uiso
H1 H 0.434428 0.103504 0.459793 . .
H2 H 0.565572 0.103504 0.459793 . .
Al1_2 Al 0.31511(11) 0.000 1.000 0.0034 Uiso
Al2_2 Al 0.68489(11) 0.000 1.000 0.0034 Uiso
O10 O 0.31577(10) 0.09222(11) 0.97490(19) 0.0051 Uiso
Al1_3 Al 0.31511(11) 1.000 0.000 0.0034 Uiso
Al2_3 Al 0.68489(11) 1.000 0.000 0.0034 Uiso
O9 O 0.31577(10) 0.90778(11) 0.02510(19) 0.0051 Uiso
Al1_4 Al 0.31511(11) 1.000 1.000 0.0034 Uiso
Al2_4 Al 0.68489(11) 1.000 1.000 0.0034 Uiso
O7 O 0.25530(10) 0.99470(10) 0.875 0.0051 Uiso
O8 O 0.38133(12) 0.99477(10) 0.88503(17) 0.0051 Uiso
Al1_5 Al 0.18489(11) 0.000 0.500 0.0034 Uiso
O7_2 O 0.24470(10) 0.00530(10) 0.375 0.0051 Uiso
O8_2 O 0.11867(12) 0.00523(10) 0.38503(17) 0.0051 Uiso
O9_2 O 0.18423(10) 0.09222(11) 0.52510(19) 0.0051 Uiso
Al1_6 Al 0.18489(11) 1.000 0.500 0.0034 Uiso
O1_2 O 0.24470(10) 0.99470(10) 0.625 0.0051 Uiso
O2_2 O 0.11867(12) 0.99477(10) 0.61497(17) 0.0051 Uiso
O3_2 O 0.15778(11) 0.93423(10) 0.77510(19) 0.0051 Uiso
C1_2 C 0.11362(17) 0.96221(11) 0.7117(2) 0.0149 Uiso
C2_2 C 0.05196(11) 0.94601(14) 0.7823(3) 0.0149 Uiso
C3_2 C 0.03446(11) 0.91644(16) 0.8883(3) 0.0149 Uiso
O4_2 O -0.000 0.96525(19) 0.7125(4) 0.0051 Uiso
Al3_2 Al 0.250 0.93489(11) 0.750 0.0034 Uiso
O10_2 O 0.18423(10) 0.90778(11) 0.47490(19) 0.0051 Uiso
H1_2 H 0.0655721 0.896496 0.959793 . .
Al2_5 Al 0.81511(11) 0.000 0.500 0.0034 Uiso
O4_3 O 1.000 0.96525(19) 0.7125(4) 0.0051 Uiso
O5_2 O 0.88133(12) 0.99477(10) 0.61497(17) 0.0051 Uiso
O6_2 O 0.84222(11) 0.93423(10) 0.77510(19) 0.0051 Uiso
C4_2 C 0.88638(17) 0.96221(11) 0.7117(2) 0.0149 Uiso
C5_2 C 0.94804(11) 0.94601(14) 0.7823(3) 0.0149 Uiso
C6_2 C 0.96554(11) 0.91644(16) 0.8883(3) 0.0149 Uiso
Al2_6 Al 0.81511(11) 1.000 0.500 0.0034 Uiso
Al4_2 Al 0.750 0.93489(11) 0.750 0.0034 Uiso
H2_2 H 0.934428 0.896496 0.959793 . .
O3_3 O 0.15778(11) 0.06577(10) 0.22490(19) 0.0051 Uiso
C1_3 C 0.11362(17) 0.03779(11) 0.2883(2) 0.0149 Uiso
C2_3 C 0.05196(11) 0.05399(14) 0.2177(3) 0.0149 Uiso
C3_3 C 0.03446(11) 0.08356(16) 0.1117(3) 0.0149 Uiso
O4_4 O -0.000 0.03475(19) 0.2875(4) 0.0051 Uiso
H1_3 H 0.0655721 0.103504 0.0402068 . .
O4_5 O 1.000 0.03475(19) 0.2875(4) 0.0051 Uiso
O5_3 O 0.88133(12) 0.00523(10) 0.38503(17) 0.0051 Uiso
O6_3 O 0.84222(11) 0.06577(10) 0.22490(19) 0.0051 Uiso
C4_3 C 0.88638(17) 0.03779(11) 0.2883(2) 0.0149 Uiso
C5_3 C 0.94804(11) 0.05399(14) 0.2177(3) 0.0149 Uiso
C6_3 C 0.96554(11) 0.08356(16) 0.1117(3) 0.0149 Uiso
H2_3 H 0.934428 0.103504 0.0402068 . .
O2_3 O 0.24477(10) 0.86867(12) 0.63503(17) 0.0051 Uiso
C1_4 C 0.21221(11) 0.86362(17) 0.5383(2) 0.0149 Uiso
C2_4 C 0.19601(14) 0.80196(11) 0.4677(3) 0.0149 Uiso
C3_4 C 0.16644(16) 0.78446(11) 0.3617(3) 0.0149 Uiso
O4_6 O 0.21525(19) 0.750 0.5375(4) 0.0051 Uiso
O5_4 O 0.24477(10) 0.63133(12) 0.63503(17) 0.0051 Uiso
O6_4 O 0.18423(10) 0.59222(11) 0.47490(19) 0.0051 Uiso
C4_4 C 0.21221(11) 0.63638(17) 0.5383(2) 0.0149 Uiso
C5_4 C 0.19601(14) 0.69804(11) 0.4677(3) 0.0149 Uiso
C6_4 C 0.16644(16) 0.71554(11) 0.3617(3) 0.0149 Uiso
Al2_7 Al 0.250 0.56511(11) 0.750 0.0034 Uiso
Al4_3 Al 0.18489(11) 0.500 0.500 0.0034 Uiso
O8_3 O 0.25523(10) 0.86867(12) 0.86497(17) 0.0051 Uiso
O9_3 O 0.34222(11) 0.93423(10) 0.72490(19) 0.0051 Uiso
H1_4 H 0.146496 0.815572 0.290207 . .
H2_4 H 0.146496 0.684428 0.290207 . .
O2_4 O 0.24477(10) 0.13133(12) 0.36497(17) 0.0051 Uiso
C1_5 C 0.21221(11) 0.13638(17) 0.4617(2) 0.0149 Uiso
C2_5 C 0.19601(14) 0.19804(11) 0.5323(3) 0.0149 Uiso
C3_5 C 0.16644(16) 0.21554(11) 0.6383(3) 0.0149 Uiso
O4_7 O 0.21525(19) 0.250 0.4625(4) 0.0051 Uiso
O5_5 O 0.24477(10) 0.36867(12) 0.36497(17) 0.0051 Uiso
O6_5 O 0.18423(10) 0.40778(11) 0.52510(19) 0.0051 Uiso
C4_5 C 0.21221(11) 0.36362(17) 0.4617(2) 0.0149 Uiso
C5_5 C 0.19601(14) 0.30196(11) 0.5323(3) 0.0149 Uiso
C6_5 C 0.16644(16) 0.28446(11) 0.6383(3) 0.0149 Uiso
Al2_8 Al 0.250 0.43489(11) 0.250 0.0034 Uiso
O8_4 O 0.25523(10) 0.13133(12) 0.13503(17) 0.0051 Uiso
H1_5 H 0.146496 0.184428 0.709793 . .
H2_5 H 0.146496 0.315572 0.709793 . .
C2_6 C 0.30399(14) 0.80196(11) 0.0323(3) 0.0149 Uiso
C3_6 C 0.33356(16) 0.78446(11) 0.1383(3) 0.0149 Uiso
O6_6 O 0.31577(10) 0.59222(11) 0.02510(19) 0.0051 Uiso
C5_6 C 0.30399(14) 0.69804(11) 0.0323(3) 0.0149 Uiso
C6_6 C 0.33356(16) 0.71554(11) 0.1383(3) 0.0149 Uiso
Al4_4 Al 0.31511(11) 0.500 0.000 0.0034 Uiso
H1_6 H 0.353504 0.815572 0.209793 . .
H2_6 H 0.353504 0.684428 0.209793 . .
C1_6 C 0.28779(11) 0.86362(17) 0.9617(2) 0.0149 Uiso
O4_8 O 0.28475(19) 0.750 0.9625(4) 0.0051 Uiso
O5_6 O 0.25523(10) 0.63133(12) 0.86497(17) 0.0051 Uiso
C4_6 C 0.28779(11) 0.63638(17) 0.9617(2) 0.0149 Uiso
Al4_5 Al 0.31511(11) 0.500 1.000 0.0034 Uiso
C1_7 C 0.28779(11) 0.13638(17) 0.0383(2) 0.0149 Uiso
O4_9 O 0.28475(19) 0.250 0.0375(4) 0.0051 Uiso
O5_7 O 0.25523(10) 0.36867(12) 0.13503(17) 0.0051 Uiso
C4_7 C 0.28779(11) 0.36362(17) 0.0383(2) 0.0149 Uiso
C2_7 C 0.30399(14) 0.19804(11) 0.9677(3) 0.0149 Uiso
C3_7 C 0.33356(16) 0.21554(11) 0.8617(3) 0.0149 Uiso
O6_7 O 0.31577(10) 0.40778(11) 0.97490(19) 0.0051 Uiso
C5_7 C 0.30399(14) 0.30196(11) 0.9677(3) 0.0149 Uiso
C6_7 C 0.33356(16) 0.28446(11) 0.8617(3) 0.0149 Uiso
H1_7 H 0.353504 0.184428 0.790207 . .
H2_7 H 0.353504 0.315572 0.790207 . .
C1_8 C 0.38638(17) 0.96221(11) 0.7883(2) 0.0149 Uiso
C2_8 C 0.44804(11) 0.94601(14) 0.7177(3) 0.0149 Uiso
C3_8 C 0.46554(11) 0.91644(16) 0.6117(3) 0.0149 Uiso
O4_10 O 0.500 0.96525(19) 0.7875(4) 0.0051 Uiso
O5_8 O 0.61867(12) 0.99477(10) 0.88503(17) 0.0051 Uiso
O6_8 O 0.65778(11) 0.93423(10) 0.72490(19) 0.0051 Uiso
C4_8 C 0.61362(17) 0.96221(11) 0.7883(2) 0.0149 Uiso
C5_8 C 0.55196(11) 0.94601(14) 0.7177(3) 0.0149 Uiso
C6_8 C 0.53446(11) 0.91644(16) 0.6117(3) 0.0149 Uiso
H1_8 H 0.434428 0.896496 0.540207 . .
H2_8 H 0.565572 0.896496 0.540207 . .
Al1_7 Al 0.68489(11) 0.500 0.000 0.0034 Uiso
O1_3 O 0.74470(10) 0.49470(10) 0.125 0.0051 Uiso
O2_5 O 0.61867(12) 0.49477(10) 0.11497(17) 0.0051 Uiso
O3_4 O 0.65778(11) 0.43423(10) 0.27510(19) 0.0051 Uiso
C1_9 C 0.61362(17) 0.46221(11) 0.2117(2) 0.0149 Uiso
C2_9 C 0.55196(11) 0.44601(14) 0.2823(3) 0.0149 Uiso
C3_9 C 0.53446(11) 0.41644(16) 0.3883(3) 0.0149 Uiso
O4_11 O 0.500 0.46525(19) 0.2125(4) 0.0051 Uiso
O5_9 O 0.38133(12) 0.49477(10) 0.11497(17) 0.0051 Uiso
O6_9 O 0.34222(11) 0.43423(10) 0.27510(19) 0.0051 Uiso
C4_9 C 0.38638(17) 0.46221(11) 0.2117(2) 0.0149 Uiso
C5_9 C 0.44804(11) 0.44601(14) 0.2823(3) 0.0149 Uiso
C6_9 C 0.46554(11) 0.41644(16) 0.3883(3) 0.0149 Uiso
Al3_3 Al 0.750 0.43489(11) 0.250 0.0034 Uiso
O9_4 O 0.68423(10) 0.59222(11) 0.02510(19) 0.0051 Uiso
H1_9 H 0.565572 0.396496 0.459793 . .
H2_9 H 0.434428 0.396496 0.459793 . .
Al1_8 Al 0.68489(11) 0.500 1.000 0.0034 Uiso
O7_3 O 0.74470(10) 0.50530(10) 0.875 0.0051 Uiso
O8_5 O 0.61867(12) 0.50523(10) 0.88503(17) 0.0051 Uiso
O10_3 O 0.68423(10) 0.40778(11) 0.97490(19) 0.0051 Uiso
O3_5 O 0.65778(11) 0.56577(10) 0.72490(19) 0.0051 Uiso
C1_10 C 0.61362(17) 0.53779(11) 0.7883(2) 0.0149 Uiso
C2_10 C 0.55196(11) 0.55399(14) 0.7177(3) 0.0149 Uiso
C3_10 C 0.53446(11) 0.58356(16) 0.6117(3) 0.0149 Uiso
O4_12 O 0.500 0.53475(19) 0.7875(4) 0.0051 Uiso
O5_10 O 0.38133(12) 0.50523(10) 0.88503(17) 0.0051 Uiso
O6_10 O 0.34222(11) 0.56577(10) 0.72490(19) 0.0051 Uiso
C4_10 C 0.38638(17) 0.53779(11) 0.7883(2) 0.0149 Uiso
C5_10 C 0.44804(11) 0.55399(14) 0.7177(3) 0.0149 Uiso
C6_10 C 0.46554(11) 0.58356(16) 0.6117(3) 0.0149 Uiso
Al3_4 Al 0.750 0.56511(11) 0.750 0.0034 Uiso
H1_10 H 0.565572 0.603504 0.540207 . .
H2_10 H 0.434428 0.603504 0.540207 . .
O2_6 O 0.74477(10) 0.36867(12) 0.13503(17) 0.0051 Uiso
C1_11 C 0.71221(11) 0.36362(17) 0.0383(2) 0.0149 Uiso
O4_13 O 0.71525(19) 0.250 0.0375(4) 0.0051 Uiso
O5_11 O 0.74477(10) 0.13133(12) 0.13503(17) 0.0051 Uiso
C4_11 C 0.71221(11) 0.13638(17) 0.0383(2) 0.0149 Uiso
O7_4 O 0.75530(10) 0.49470(10) 0.375 0.0051 Uiso
O8_6 O 0.75523(10) 0.36867(12) 0.36497(17) 0.0051 Uiso
O9_5 O 0.84222(11) 0.43423(10) 0.22490(19) 0.0051 Uiso
C2_11 C 0.69601(14) 0.30196(11) 0.9677(3) 0.0149 Uiso
C3_11 C 0.66644(16) 0.28446(11) 0.8617(3) 0.0149 Uiso
O6_11 O 0.68423(10) 0.09222(11) 0.97490(19) 0.0051 Uiso
C5_11 C 0.69601(14) 0.19804(11) 0.9677(3) 0.0149 Uiso
C6_11 C 0.66644(16) 0.21554(11) 0.8617(3) 0.0149 Uiso
H1_11 H 0.646496 0.315572 0.790207 . .
H2_11 H 0.646496 0.184428 0.790207 . .
C2_12 C 0.69601(14) 0.69804(11) 0.0323(3) 0.0149 Uiso
C3_12 C 0.66644(16) 0.71554(11) 0.1383(3) 0.0149 Uiso
O6_12 O 0.68423(10) 0.90778(11) 0.02510(19) 0.0051 Uiso
C5_12 C 0.69601(14) 0.80196(11) 0.0323(3) 0.0149 Uiso
C6_12 C 0.66644(16) 0.78446(11) 0.1383(3) 0.0149 Uiso
H1_12 H 0.646496 0.684428 0.209793 . .
H2_12 H 0.646496 0.815572 0.209793 . .
O2_7 O 0.74477(10) 0.63133(12) 0.86497(17) 0.0051 Uiso
C1_12 C 0.71221(11) 0.63638(17) 0.9617(2) 0.0149 Uiso
O4_14 O 0.71525(19) 0.750 0.9625(4) 0.0051 Uiso
O5_12 O 0.74477(10) 0.86867(12) 0.86497(17) 0.0051 Uiso
C4_12 C 0.71221(11) 0.86362(17) 0.9617(2) 0.0149 Uiso
O7_5 O 0.75530(10) 0.50530(10) 0.625 0.0051 Uiso
O8_7 O 0.75523(10) 0.63133(12) 0.63503(17) 0.0051 Uiso
O9_6 O 0.84222(11) 0.56577(10) 0.77510(19) 0.0051 Uiso
O3_6 O 0.81577(10) 0.40778(11) 0.52510(19) 0.0051 Uiso
C1_13 C 0.78779(11) 0.36362(17) 0.4617(2) 0.0149 Uiso
C2_13 C 0.80399(14) 0.30196(11) 0.5323(3) 0.0149 Uiso
C3_13 C 0.83356(16) 0.28446(11) 0.6383(3) 0.0149 Uiso
O4_15 O 0.78475(19) 0.250 0.4625(4) 0.0051 Uiso
O5_13 O 0.75523(10) 0.13133(12) 0.36497(17) 0.0051 Uiso
O6_13 O 0.81577(10) 0.09222(11) 0.52510(19) 0.0051 Uiso
C4_13 C 0.78779(11) 0.13638(17) 0.4617(2) 0.0149 Uiso
C5_13 C 0.80399(14) 0.19804(11) 0.5323(3) 0.0149 Uiso
C6_13 C 0.83356(16) 0.21554(11) 0.6383(3) 0.0149 Uiso
Al3_5 Al 0.81511(11) 0.500 0.500 0.0034 Uiso
H1_13 H 0.853504 0.315572 0.709793 . .
H2_13 H 0.853504 0.184428 0.709793 . .
O3_7 O 0.81577(10) 0.59222(11) 0.47490(19) 0.0051 Uiso
C1_14 C 0.78779(11) 0.63638(17) 0.5383(2) 0.0149 Uiso
C2_14 C 0.80399(14) 0.69804(11) 0.4677(3) 0.0149 Uiso
C3_14 C 0.83356(16) 0.71554(11) 0.3617(3) 0.0149 Uiso
O4_16 O 0.78475(19) 0.750 0.5375(4) 0.0051 Uiso
O5_14 O 0.75523(10) 0.86867(12) 0.63503(17) 0.0051 Uiso
O6_14 O 0.81577(10) 0.90778(11) 0.47490(19) 0.0051 Uiso
C4_14 C 0.78779(11) 0.86362(17) 0.5383(2) 0.0149 Uiso
C5_14 C 0.80399(14) 0.80196(11) 0.4677(3) 0.0149 Uiso
C6_14 C 0.83356(16) 0.78446(11) 0.3617(3) 0.0149 Uiso
H1_14 H 0.853504 0.684428 0.290207 . .
H2_14 H 0.853504 0.815572 0.290207 . .
O4_17 O -0.000 0.46525(19) 0.2875(4) 0.0051 Uiso
O5_15 O 0.11867(12) 0.49477(10) 0.38503(17) 0.0051 Uiso
O6_15 O 0.15778(11) 0.43423(10) 0.22490(19) 0.0051 Uiso
C4_15 C 0.11362(17) 0.46221(11) 0.2883(2) 0.0149 Uiso
C5_15 C 0.05196(11) 0.44601(14) 0.2177(3) 0.0149 Uiso
C6_15 C 0.03446(11) 0.41644(16) 0.1117(3) 0.0149 Uiso
H2_15 H 0.0655721 0.396496 0.0402068 . .
O2_8 O 0.88133(12) 0.49477(10) 0.38503(17) 0.0051 Uiso
C1_15 C 0.88638(17) 0.46221(11) 0.2883(2) 0.0149 Uiso
C2_15 C 0.94804(11) 0.44601(14) 0.2177(3) 0.0149 Uiso
C3_15 C 0.96554(11) 0.41644(16) 0.1117(3) 0.0149 Uiso
O4_18 O 1.000 0.46525(19) 0.2875(4) 0.0051 Uiso
O8_8 O 0.88133(12) 0.50523(10) 0.61497(17) 0.0051 Uiso
H1_15 H 0.934428 0.396496 0.0402068 . .
O4_19 O -0.000 0.53475(19) 0.7125(4) 0.0051 Uiso
O5_16 O 0.11867(12) 0.50523(10) 0.61497(17) 0.0051 Uiso
O6_16 O 0.15778(11) 0.56577(10) 0.77510(19) 0.0051 Uiso
C4_16 C 0.11362(17) 0.53779(11) 0.7117(2) 0.0149 Uiso
C5_16 C 0.05196(11) 0.55399(14) 0.7823(3) 0.0149 Uiso
C6_16 C 0.03446(11) 0.58356(16) 0.8883(3) 0.0149 Uiso
H2_16 H 0.0655721 0.603504 0.959793 . .
C1_16 C 0.88638(17) 0.53779(11) 0.7117(2) 0.0149 Uiso
C2_16 C 0.94804(11) 0.55399(14) 0.7823(3) 0.0149 Uiso
C3_16 C 0.96554(11) 0.58356(16) 0.8883(3) 0.0149 Uiso
O4_20 O 1.000 0.53475(19) 0.7125(4) 0.0051 Uiso
H1_16 H 0.934428 0.603504 0.959793 . .
O7_6 O 0.74470(10) 0.00530(10) 0.125 0.0051 Uiso
O1_4 O 0.74470(10) 0.99470(10) 0.875 0.0051 Uiso
O1_5 O 0.75530(10) 0.00530(10) 0.375 0.0051 Uiso
O7_7 O 0.75530(10) 0.99470(10) 0.625 0.0051 Uiso
O7_8 O 0.25530(10) 0.49470(10) 0.125 0.0051 Uiso
O1_6 O 0.25530(10) 0.50530(10) 0.875 0.0051 Uiso
O7_9 O 0.24470(10) 0.50530(10) 0.625 0.0051 Uiso
O7_10 O 0.24470(10) 0.49470(10) 0.375 0.0051 Uiso
loop_
_geom_bond_atom_site_label_1
_geom_bond_atom_site_label_2
_geom_bond_site_symmetry_1
_geom_bond_site_symmetry_2
Al1 O1 1_555 1_555
O1 Al3 1_555 1_555
O2 Al1 1_555 1_555
O3 C1 1_555 1_555
C1 O2 1_555 1_555
C2 C1 1_555 1_555
C3 C2 1_555 1_555
O4 C2 1_555 1_555
O5 C4 1_555 1_555
O6 C4 1_555 1_555
C4 C5 1_555 1_555
C5 O4 1_555 1_555
C6 C3 1_555 1_555
Al2 O5 1_555 1_555
Al3 O3 1_555 1_555
Al4 O6 1_555 1_555
C5 C6 1_555 1_555
C3 H1 1_555 1_555
C6 H2 1_555 1_555
O10 Al1_2 1_555 1_555
O9 Al1_3 1_555 1_555
O7 Al1_4 1_555 1_555
O8 Al1_4 1_555 1_555
O7_2 Al1_5 1_555 1_555
O8_2 Al1_5 1_555 1_555
O9_2 Al1_5 1_555 1_555
Al1_6 O1_2 1_555 1_555
O1_2 Al3_2 1_555 1_555
O2_2 Al1_6 1_555 1_555
O3_2 C1_2 1_555 1_555
C1_2 O2_2 1_555 1_555
C2_2 C1_2 1_555 1_555
C3_2 C2_2 1_555 1_555
O4_2 C2_2 1_555 1_555
Al3_2 O3_2 1_555 1_555
O10_2 Al1_6 1_555 1_555
C3_2 H1_2 1_555 1_555
O5_2 C4_2 1_555 1_555
O6_2 C4_2 1_555 1_555
C4_2 C5_2 1_555 1_555
C5_2 O4_3 1_555 1_555
Al2_6 O5_2 1_555 1_555
Al4_2 O6_2 1_555 1_555
C5_2 C6_2 1_555 1_555
C6_2 H2_2 1_555 1_555
O7_2 Al3 1_555 1_555
O3_3 C1_3 1_555 1_555
C1_3 O8_2 1_555 1_555
C2_3 C1_3 1_555 1_555
C3_3 C2_3 1_555 1_555
O4_4 C2_3 1_555 1_555
Al3 O3_3 1_555 1_555
C3_3 H1_3 1_555 1_555
O5_3 C4_3 1_555 1_555
O6_3 C4_3 1_555 1_555
C4_3 C5_3 1_555 1_555
C5_3 O4_5 1_555 1_555
Al2_5 O5_3 1_555 1_555
Al4 O6_3 1_555 1_555
C5_3 C6_3 1_555 1_555
C6_3 H2_3 1_555 1_555
O2_3 Al3_2 1_555 1_555
O10_2 C1_4 1_555 1_555
C1_4 O2_3 1_555 1_555
C2_4 C1_4 1_555 1_555
C3_4 C2_4 1_555 1_555
O4_6 C2_4 1_555 1_555
O5_4 C4_4 1_555 1_555
O6_4 C4_4 1_555 1_555
C4_4 C5_4 1_555 1_555
C5_4 O4_6 1_555 1_555
C6_4 C3_4 1_555 1_555
Al2_7 O5_4 1_555 1_555
Al4_3 O6_4 1_555 1_555
O7 Al3_2 1_555 1_555
O8_3 Al3_2 1_555 1_555
O9_3 Al3_2 1_555 1_555
C5_4 C6_4 1_555 1_555
C3_4 H1_4 1_555 1_555
C6_4 H2_4 1_555 1_555
O2_4 Al3 1_555 1_555
O9_2 C1_5 1_555 1_555
C1_5 O2_4 1_555 1_555
C2_5 C1_5 1_555 1_555
C3_5 C2_5 1_555 1_555
O4_7 C2_5 1_555 1_555
O5_5 C4_5 1_555 1_555
O6_5 C4_5 1_555 1_555
C4_5 C5_5 1_555 1_555
C5_5 O4_7 1_555 1_555
C6_5 C3_5 1_555 1_555
Al2_8 O5_5 1_555 1_555
Al4_3 O6_5 1_555 1_555
O8_4 Al3 1_555 1_555
C5_5 C6_5 1_555 1_555
C3_5 H1_5 1_555 1_555
C6_5 H2_5 1_555 1_555
C3_6 C2_6 1_555 1_555
C6_6 C3_6 1_555 1_555
Al4_4 O6_6 1_555 1_555
C5_6 C6_6 1_555 1_555
C3_6 H1_6 1_555 1_555
C6_6 H2_6 1_555 1_555
C1_6 O8_3 1_555 1_555
O5_6 C4_6 1_555 1_555
Al2_7 O5_6 1_555 1_555
C1_7 O8_4 1_555 1_555
O5_7 C4_7 1_555 1_555
Al2_8 O5_7 1_555 1_555
C3_7 C2_7 1_555 1_555
C6_7 C3_7 1_555 1_555
Al4_5 O6_7 1_555 1_555
C5_7 C6_7 1_555 1_555
C3_7 H1_7 1_555 1_555
C6_7 H2_7 1_555 1_555
O9_3 C1_8 1_555 1_555
C1_8 O8 1_555 1_555
C2_8 C1_8 1_555 1_555
C3_8 C2_8 1_555 1_555
O4_10 C2_8 1_555 1_555
O5_8 C4_8 1_555 1_555
O6_8 C4_8 1_555 1_555
C4_8 C5_8 1_555 1_555
C5_8 O4_10 1_555 1_555
C6_8 C3_8 1_555 1_555
Al2_4 O5_8 1_555 1_555
Al4_2 O6_8 1_555 1_555
C5_8 C6_8 1_555 1_555
C3_8 H1_8 1_555 1_555
C6_8 H2_8 1_555 1_555
Al1_7 O1_3 1_555 1_555
O1_3 Al3_3 1_555 1_555
O2_5 Al1_7 1_555 1_555
O3_4 C1_9 1_555 1_555
C1_9 O2_5 1_555 1_555
C2_9 C1_9 1_555 1_555
C3_9 C2_9 1_555 1_555
O4_11 C2_9 1_555 1_555
O5_9 C4_9 1_555 1_555
O6_9 C4_9 1_555 1_555
C4_9 C5_9 1_555 1_555
C5_9 O4_11 1_555 1_555
C6_9 C3_9 1_555 1_555
Al4_4 O5_9 1_555 1_555
Al3_3 O3_4 1_555 1_555
Al2_8 O6_9 1_555 1_555
O9_4 Al1_7 1_555 1_555
C5_9 C6_9 1_555 1_555
C3_9 H1_9 1_555 1_555
C6_9 H2_9 1_555 1_555
O7_3 Al1_8 1_555 1_555
O8_5 Al1_8 1_555 1_555
O10_3 Al1_8 1_555 1_555
O7_3 Al3_4 1_555 1_555
O3_5 C1_10 1_555 1_555
C1_10 O8_5 1_555 1_555
C2_10 C1_10 1_555 1_555
C3_10 C2_10 1_555 1_555
O4_12 C2_10 1_555 1_555
O5_10 C4_10 1_555 1_555
O6_10 C4_10 1_555 1_555
C4_10 C5_10 1_555 1_555
C5_10 O4_12 1_555 1_555
C6_10 C3_10 1_555 1_555
Al4_5 O5_10 1_555 1_555
Al3_4 O3_5 1_555 1_555
Al2_7 O6_10 1_555 1_555
C5_10 C6_10 1_555 1_555
C3_10 H1_10 1_555 1_555
C6_10 H2_10 1_555 1_555
O2_6 Al3_3 1_555 1_555
C1_11 O2_6 1_555 1_555
O5_11 C4_11 1_555 1_555
Al4 O5_11 1_555 1_555
O7_4 Al3_3 1_555 1_555
O8_6 Al3_3 1_555 1_555
O9_5 Al3_3 1_555 1_555
C3_11 C2_11 1_555 1_555
C6_11 C3_11 1_555 1_555
Al2_2 O6_11 1_555 1_555
C5_11 C6_11 1_555 1_555
C3_11 H1_11 1_555 1_555
C6_11 H2_11 1_555 1_555
C3_12 C2_12 1_555 1_555
C6_12 C3_12 1_555 1_555
Al2_3 O6_12 1_555 1_555
C5_12 C6_12 1_555 1_555
C3_12 H1_12 1_555 1_555
C6_12 H2_12 1_555 1_555
O2_7 Al3_4 1_555 1_555
C1_12 O2_7 1_555 1_555
O5_12 C4_12 1_555 1_555
Al4_2 O5_12 1_555 1_555
O7_5 Al3_4 1_555 1_555
O8_7 Al3_4 1_555 1_555
O9_6 Al3_4 1_555 1_555
O7_4 Al3_5 1_555 1_555
O3_6 C1_13 1_555 1_555
C1_13 O8_6 1_555 1_555
C2_13 C1_13 1_555 1_555
C3_13 C2_13 1_555 1_555
O4_15 C2_13 1_555 1_555
O5_13 C4_13 1_555 1_555
O6_13 C4_13 1_555 1_555
C4_13 C5_13 1_555 1_555
C5_13 O4_15 1_555 1_555
C6_13 C3_13 1_555 1_555
Al4 O5_13 1_555 1_555
Al3_5 O3_6 1_555 1_555
Al2_5 O6_13 1_555 1_555
C5_13 C6_13 1_555 1_555
C3_13 H1_13 1_555 1_555
C6_13 H2_13 1_555 1_555
O7_5 Al3_5 1_555 1_555
O3_7 C1_14 1_555 1_555
C1_14 O8_7 1_555 1_555
C2_14 C1_14 1_555 1_555
C3_14 C2_14 1_555 1_555
O4_16 C2_14 1_555 1_555
O5_14 C4_14 1_555 1_555
O6_14 C4_14 1_555 1_555
C4_14 C5_14 1_555 1_555
C5_14 O4_16 1_555 1_555
C6_14 C3_14 1_555 1_555
Al4_2 O5_14 1_555 1_555
Al3_5 O3_7 1_555 1_555
Al2_6 O6_14 1_555 1_555
C5_14 C6_14 1_555 1_555
C3_14 H1_14 1_555 1_555
C6_14 H2_14 1_555 1_555
O5_15 C4_15 1_555 1_555
O6_15 C4_15 1_555 1_555
C4_15 C5_15 1_555 1_555
C5_15 O4_17 1_555 1_555
Al4_3 O5_15 1_555 1_555
Al2_8 O6_15 1_555 1_555
C5_15 C6_15 1_555 1_555
C6_15 H2_15 1_555 1_555
O2_8 Al3_5 1_555 1_555
O9_5 C1_15 1_555 1_555
C1_15 O2_8 1_555 1_555
C2_15 C1_15 1_555 1_555
C3_15 C2_15 1_555 1_555
O4_18 C2_15 1_555 1_555
O8_8 Al3_5 1_555 1_555
C3_15 H1_15 1_555 1_555
O5_16 C4_16 1_555 1_555
O6_16 C4_16 1_555 1_555
C4_16 C5_16 1_555 1_555
C5_16 O4_19 1_555 1_555
Al4_3 O5_16 1_555 1_555
Al2_7 O6_16 1_555 1_555
C5_16 C6_16 1_555 1_555
C6_16 H2_16 1_555 1_555
O9_6 C1_16 1_555 1_555
C1_16 O8_8 1_555 1_555
C2_16 C1_16 1_555 1_555
C3_16 C2_16 1_555 1_555
O4_20 C2_16 1_555 1_555
C3_16 H1_16 1_555 1_555
O7_6 Al2 1_555 1_555
Al2_4 O1_4 1_555 1_555
O1_4 Al4_2 1_555 1_555
Al2_5 O1_5 1_555 1_555
O1_5 Al4 1_555 1_555
O7_7 Al2_6 1_555 1_555
O7_7 Al4_2 1_555 1_555
O7_6 Al4 1_555 1_555
O7_8 Al4_4 1_555 1_555
Al4_5 O1_6 1_555 1_555
O1_6 Al2_7 1_555 1_555
O7_8 Al2_8 1_555 1_555
O7_9 Al2_7 1_555 1_555
O7_10 Al2_8 1_555 1_555
O7_9 Al4_3 1_555 1_555
O7_10 Al4_3 1_555 1_555

#END
