
###############################################################################
#
# This file contains modified crystal structure data generated from the
# MOF subset of the Cambridge Structural Database (CSD) v543 
# hosted by the Cambridge Crystallographic Data Centre (CCDC).
#
# This work is licensed under the Creative Commons
# Attribution-NonCommercial-ShareAlike 4.0 International License.
# To view a copy of this license, visit
# http://creativecommons.org/licenses/by-nc-sa/4.0/
# or send a letter to
# Creative Commons, PO Box 1866, Mountain View, CA 94042, USA.
#
# CIF created using the CSD Python API on 29 September 2022
# The structure has been converted into the P1 space group
# The structure has a 3D framework
# The original CSD entry PIBZOS is in the tetragonal crystal system
# The framework has been calculated to contain at least 10.0% void space
# The void calculation uses a probe of radius 1.32A, grid spacing 0.4
# H atom positions have been added when not included in the experimental data
#
###############################################################################

data_PIBZOS
_chemical_formula_moiety         '(C96 H32 Al14 O93)n'
_symmetry_cell_setting           triclinic
_symmetry_space_group_name_H-M   'P 1'
_symmetry_Int_Tables_number      1
_space_group_name_Hall           'P 1'
loop_
_symmetry_equiv_pos_site_id
_symmetry_equiv_pos_as_xyz
1 x,y,z
_cell_length_a                   20.97988(17)
_cell_length_b                   20.97988(17)
_cell_length_c                   10.70096(11)
_cell_angle_alpha                90
_cell_angle_beta                 90
_cell_angle_gamma                90
_cell_volume                     4710.08
loop_
_atom_site_label
_atom_site_type_symbol
_atom_site_fract_x
_atom_site_fract_y
_atom_site_fract_z
_atom_site_U_iso_or_equiv
_atom_site_thermal_displace_type
Al1 Al 0.2539(4) 0.3144(3) 0.2545(11) 0.0025 Uiso
O1 O 0.2526(7) 0.2554(7) 0.3811(15) 0.0025 Uiso
O3 O 0.2551(7) 0.3810(7) 0.1294(14) 0.0025 Uiso
C1 C 0.2289(10) 0.3867(13) 0.0238(19) 0.0025 Uiso
O4 O 0.2388(8) 0.500 0.0319(14) 0.0025 Uiso
O5 O 0.1623(6) 0.3236(7) 0.2767(16) 0.0025 Uiso
O6 O 0.1150(7) 0.2654(7) 0.1183(12) 0.0025 Uiso
C4 C 0.1176(10) 0.3017(10) 0.2122(19) 0.0025 Uiso
C5 C 0.0509(10) 0.3238(8) 0.255(2) 0.0025 Uiso
C6 C 0.0342(8) 0.3537(8) 0.3649(19) 0.0025 Uiso
O7 O -0.000 0.2970(9) 0.1897(18) 0.0025 Uiso
O9 O 0.2551(7) 0.6190(7) 0.1294(14) 0.0025 Uiso
C7 C 0.2289(10) 0.6133(13) 0.0238(19) 0.0025 Uiso
Al2 Al 0.2539(4) 0.6856(3) 0.2545(11) 0.0025 Uiso
O12 O 0.2526(7) 0.7446(7) 0.3811(15) 0.0025 Uiso
Al3 Al 0.1856(3) 0.7461(4) 0.0045(11) 0.0025 Uiso
Al4 Al 0.3144(3) 0.7539(4) 0.5045(11) 0.0025 Uiso
Al6 Al 0.1856(3) 0.2539(4) 0.0045(11) 0.0025 Uiso
Al8 Al 0.3144(3) 0.2461(4) 0.5045(11) 0.0025 Uiso
O13 O 0.2446(7) 0.7474(7) 0.1311(15) 0.0025 Uiso
O14 O 0.2446(7) 0.2526(7) 0.1311(15) 0.0025 Uiso
O15 O 0.3446(7) 0.6919(6) 0.2308(14) 0.0025 Uiso
O16 O 0.3446(7) 0.3081(6) 0.2308(14) 0.0025 Uiso
O17 O 0.1623(6) 0.6764(7) 0.2767(16) 0.0025 Uiso
O18 O 0.2654(7) 0.6150(7) 0.3683(12) 0.0025 Uiso
O19 O 0.2654(7) 0.3850(7) 0.3683(12) 0.0025 Uiso
H3 H 0.0658967 0.373046 0.436006 . .
O2 O 0.1919(6) 0.3446(7) 0.9808(14) 0.0025 Uiso
C2 C 0.2240(10) 0.4499(10) 0.9528(19) 0.0025 Uiso
C3 C 0.2092(8) 0.4665(8) 0.8301(14) 0.0025 Uiso
O8 O 0.1919(6) 0.6554(7) 0.9808(14) 0.0025 Uiso
C8 C 0.2240(10) 0.5501(10) 0.9528(19) 0.0025 Uiso
C9 C 0.2092(8) 0.5335(8) 0.8301(14) 0.0025 Uiso
H1 H 0.199756 0.565288 0.751808 . .
H2 H 0.199756 0.434712 0.751808 . .
O7_2 O 1.000 0.2970(9) 0.1897(18) 0.0025 Uiso
O10 O 0.8377(6) 0.3236(7) 0.2767(16) 0.0025 Uiso
O11 O 0.8850(7) 0.2654(7) 0.1183(12) 0.0025 Uiso
C10 C 0.8824(10) 0.3017(10) 0.2122(19) 0.0025 Uiso
C11 C 0.9491(10) 0.3238(8) 0.255(2) 0.0025 Uiso
C12 C 0.9658(8) 0.3537(8) 0.3649(19) 0.0025 Uiso
Al5 Al 0.7461(4) 0.3144(3) 0.2545(11) 0.0025 Uiso
Al7 Al 0.8144(3) 0.2539(4) 0.0045(11) 0.0025 Uiso
H4 H 0.934103 0.373046 0.436006 . .
O4_2 O 0.2612(8) 0.000 0.5319(14) 0.0025 Uiso
O8_2 O 0.3081(6) 0.1554(7) 0.4808(14) 0.0025 Uiso
O9_2 O 0.2449(7) 0.1190(7) 0.6294(14) 0.0025 Uiso
C7_2 C 0.2711(10) 0.1133(13) 0.5238(19) 0.0025 Uiso
C8_2 C 0.2760(10) 0.0501(10) 0.4528(19) 0.0025 Uiso
C9_2 C 0.2908(8) 0.0335(8) 0.3301(14) 0.0025 Uiso
Al2_2 Al 0.2461(4) 0.1856(3) 0.7545(11) 0.0025 Uiso
O12_2 O 0.2474(7) 0.2446(7) 0.8811(15) 0.0025 Uiso
O13_2 O 0.2554(7) 0.2474(7) 0.6311(15) 0.0025 Uiso
O15_2 O 0.1554(7) 0.1919(6) 0.7308(14) 0.0025 Uiso
O17_2 O 0.3377(6) 0.1764(7) 0.7767(16) 0.0025 Uiso
O18_2 O 0.2346(7) 0.1150(7) 0.8683(12) 0.0025 Uiso
H1_2 H 0.300244 0.0652878 0.251808 . .
Al1_2 Al 0.2461(4) 0.8144(3) 0.7545(11) 0.0025 Uiso
O1_2 O 0.2474(7) 0.7554(7) 0.8811(15) 0.0025 Uiso
O2_2 O 0.3081(6) 0.8446(7) 0.4808(14) 0.0025 Uiso
O3_2 O 0.2449(7) 0.8810(7) 0.6294(14) 0.0025 Uiso
C1_2 C 0.2711(10) 0.8867(13) 0.5238(19) 0.0025 Uiso
C2_2 C 0.2760(10) 0.9499(10) 0.4528(19) 0.0025 Uiso
C3_2 C 0.2908(8) 0.9665(8) 0.3301(14) 0.0025 Uiso
O4_3 O 0.2612(8) 1.000 0.5319(14) 0.0025 Uiso
O5_2 O 0.3377(6) 0.8236(7) 0.7767(16) 0.0025 Uiso
O6_2 O 0.3850(7) 0.7654(7) 0.6183(12) 0.0025 Uiso
C4_2 C 0.3824(10) 0.8017(10) 0.7122(19) 0.0025 Uiso
C5_2 C 0.4491(10) 0.8238(8) 0.755(2) 0.0025 Uiso
C6_2 C 0.4658(8) 0.8537(8) 0.8649(19) 0.0025 Uiso
O7_3 O 0.500 0.7970(9) 0.6897(18) 0.0025 Uiso
O10_2 O 0.6623(6) 0.8236(7) 0.7767(16) 0.0025 Uiso
O11_2 O 0.6150(7) 0.7654(7) 0.6183(12) 0.0025 Uiso
C10_2 C 0.6176(10) 0.8017(10) 0.7122(19) 0.0025 Uiso
C11_2 C 0.5509(10) 0.8238(8) 0.755(2) 0.0025 Uiso
C12_2 C 0.5342(8) 0.8537(8) 0.8649(19) 0.0025 Uiso
Al5_2 Al 0.7539(4) 0.8144(3) 0.7545(11) 0.0025 Uiso
Al7_2 Al 0.6856(3) 0.7539(4) 0.5045(11) 0.0025 Uiso
O14_2 O 0.2554(7) 0.7526(7) 0.6311(15) 0.0025 Uiso
O16_2 O 0.1554(7) 0.8081(6) 0.7308(14) 0.0025 Uiso
O19_2 O 0.2346(7) 0.8850(7) 0.8683(12) 0.0025 Uiso
H2_2 H 0.300244 0.934712 0.251808 . .
H3_2 H 0.434103 0.873046 0.936006 . .
H4_2 H 0.565897 0.873046 0.936006 . .
O1_3 O 0.7446(7) 0.7526(7) 0.6311(15) 0.0025 Uiso
O2_3 O 0.6554(7) 0.6919(6) 0.2308(14) 0.0025 Uiso
O3_3 O 0.6190(7) 0.7551(7) 0.3794(14) 0.0025 Uiso
C1_3 C 0.6133(13) 0.7289(10) 0.2738(19) 0.0025 Uiso
C2_3 C 0.5501(10) 0.7240(10) 0.2028(19) 0.0025 Uiso
C3_3 C 0.5335(8) 0.7092(8) 0.0801(14) 0.0025 Uiso
O4_4 O 0.500 0.7388(8) 0.2819(14) 0.0025 Uiso
O5_3 O 0.6764(7) 0.6623(6) 0.5267(16) 0.0025 Uiso
O6_3 O 0.7346(7) 0.6150(7) 0.3683(12) 0.0025 Uiso
C4_3 C 0.6983(10) 0.6176(10) 0.4622(19) 0.0025 Uiso
C5_3 C 0.6762(8) 0.5509(10) 0.505(2) 0.0025 Uiso
C6_3 C 0.6463(8) 0.5342(8) 0.6149(19) 0.0025 Uiso
O7_4 O 0.7030(9) 0.500 0.4397(18) 0.0025 Uiso
O9_3 O 0.3810(7) 0.7551(7) 0.3794(14) 0.0025 Uiso
C7_3 C 0.3867(13) 0.7289(10) 0.2738(19) 0.0025 Uiso
C8_3 C 0.4499(10) 0.7240(10) 0.2028(19) 0.0025 Uiso
C9_3 C 0.4665(8) 0.7092(8) 0.0801(14) 0.0025 Uiso
O10_3 O 0.6764(7) 0.3377(6) 0.5267(16) 0.0025 Uiso
O11_3 O 0.7346(7) 0.3850(7) 0.3683(12) 0.0025 Uiso
C10_3 C 0.6983(10) 0.3824(10) 0.4622(19) 0.0025 Uiso
C11_3 C 0.6762(8) 0.4491(10) 0.505(2) 0.0025 Uiso
C12_3 C 0.6463(8) 0.4658(8) 0.6149(19) 0.0025 Uiso
Al5_3 Al 0.6856(3) 0.2461(4) 0.5045(11) 0.0025 Uiso
Al6_2 Al 0.7461(4) 0.6856(3) 0.2545(11) 0.0025 Uiso
O14_3 O 0.7474(7) 0.7446(7) 0.3811(15) 0.0025 Uiso
O16_3 O 0.6919(6) 0.8446(7) 0.4808(14) 0.0025 Uiso
O17_3 O 0.3236(7) 0.6623(6) 0.5267(16) 0.0025 Uiso
H1_3 H 0.434712 0.699756 0.00180807 . .
H2_3 H 0.565288 0.699756 0.00180807 . .
H3_3 H 0.626954 0.565897 0.686006 . .
H4_3 H 0.626954 0.434103 0.686006 . .
O10_4 O 0.1764(7) 0.1623(6) 0.0267(16) 0.0025 Uiso
C11_4 C 0.1762(8) 0.0509(10) 0.005(2) 0.0025 Uiso
C12_4 C 0.1463(8) 0.0342(8) 0.1149(19) 0.0025 Uiso
H4_4 H 0.126954 0.0658967 0.186006 . .
O7_5 O 0.2030(9) -0.000 0.9397(18) 0.0025 Uiso
C10_4 C 0.1983(10) 0.1176(10) 0.9622(19) 0.0025 Uiso
O5_4 O 0.1764(7) 0.8377(6) 0.0267(16) 0.0025 Uiso
C5_4 C 0.1762(8) 0.9491(10) 0.005(2) 0.0025 Uiso
C6_4 C 0.1463(8) 0.9658(8) 0.1149(19) 0.0025 Uiso
O19_3 O 0.1150(7) 0.7346(7) 0.1183(12) 0.0025 Uiso
H3_4 H 0.126954 0.934103 0.186006 . .
O3_4 O 0.1190(7) 0.7449(7) 0.8794(14) 0.0025 Uiso
C1_4 C 0.1133(13) 0.7711(10) 0.7738(19) 0.0025 Uiso
C2_4 C 0.0501(10) 0.7760(10) 0.7028(19) 0.0025 Uiso
C3_4 C 0.0335(8) 0.7908(8) 0.5801(14) 0.0025 Uiso
O4_5 O 0.000 0.7612(8) 0.7819(14) 0.0025 Uiso
C4_4 C 0.1983(10) 0.8824(10) 0.9622(19) 0.0025 Uiso
O7_6 O 0.2030(9) 1.000 0.9397(18) 0.0025 Uiso
H2_4 H 0.0652878 0.800244 0.501808 . .
Al2_3 Al 0.8144(3) 0.7461(4) 0.0045(11) 0.0025 Uiso
O12_3 O 0.7554(7) 0.7474(7) 0.1311(15) 0.0025 Uiso
O17_4 O 0.8236(7) 0.8377(6) 0.0267(16) 0.0025 Uiso
O18_3 O 0.8850(7) 0.7346(7) 0.1183(12) 0.0025 Uiso
O4_6 O 1.000 0.7612(8) 0.7819(14) 0.0025 Uiso
O8_3 O 0.8446(7) 0.8081(6) 0.7308(14) 0.0025 Uiso
O9_4 O 0.8810(7) 0.7449(7) 0.8794(14) 0.0025 Uiso
C7_4 C 0.8867(13) 0.7711(10) 0.7738(19) 0.0025 Uiso
C8_4 C 0.9499(10) 0.7760(10) 0.7028(19) 0.0025 Uiso
C9_4 C 0.9665(8) 0.7908(8) 0.5801(14) 0.0025 Uiso
O13_3 O 0.7526(7) 0.7554(7) 0.8811(15) 0.0025 Uiso
O15_3 O 0.8081(6) 0.6554(7) 0.9808(14) 0.0025 Uiso
H1_4 H 0.934712 0.800244 0.501808 . .
C4_5 C 0.3017(10) 0.6176(10) 0.4622(19) 0.0025 Uiso
C5_5 C 0.3238(8) 0.5509(10) 0.505(2) 0.0025 Uiso
C6_5 C 0.3537(8) 0.5342(8) 0.6149(19) 0.0025 Uiso
O7_7 O 0.2970(9) 0.500 0.4397(18) 0.0025 Uiso
O10_5 O 0.3236(7) 0.3377(6) 0.5267(16) 0.0025 Uiso
C10_5 C 0.3017(10) 0.3824(10) 0.4622(19) 0.0025 Uiso
C11_5 C 0.3238(8) 0.4491(10) 0.505(2) 0.0025 Uiso
C12_5 C 0.3537(8) 0.4658(8) 0.6149(19) 0.0025 Uiso
H3_5 H 0.373046 0.565897 0.686006 . .
H4_5 H 0.373046 0.434103 0.686006 . .
O10_6 O 0.8236(7) 0.1623(6) 0.0267(16) 0.0025 Uiso
C11_6 C 0.8238(8) 0.0509(10) 0.005(2) 0.0025 Uiso
C12_6 C 0.8537(8) 0.0342(8) 0.1149(19) 0.0025 Uiso
H4_6 H 0.873046 0.0658967 0.186006 . .
O7_8 O 0.7970(9) -0.000 0.9397(18) 0.0025 Uiso
O11_4 O 0.7654(7) 0.1150(7) 0.8683(12) 0.0025 Uiso
C10_6 C 0.8017(10) 0.1176(10) 0.9622(19) 0.0025 Uiso
Al7_3 Al 0.7539(4) 0.1856(3) 0.7545(11) 0.0025 Uiso
C5_6 C 0.8238(8) 0.9491(10) 0.005(2) 0.0025 Uiso
C6_6 C 0.8537(8) 0.9658(8) 0.1149(19) 0.0025 Uiso
H3_6 H 0.873046 0.934103 0.186006 . .
O6_4 O 0.7654(7) 0.8850(7) 0.8683(12) 0.0025 Uiso
C4_6 C 0.8017(10) 0.8824(10) 0.9622(19) 0.0025 Uiso
O7_9 O 0.7970(9) 1.000 0.9397(18) 0.0025 Uiso
C4_7 C 0.1176(10) 0.6983(10) 0.2122(19) 0.0025 Uiso
C5_7 C 0.0509(10) 0.6762(8) 0.255(2) 0.0025 Uiso
C6_7 C 0.0342(8) 0.6463(8) 0.3649(19) 0.0025 Uiso
O7_10 O 0.000 0.7030(9) 0.1897(18) 0.0025 Uiso
H3_7 H 0.0658967 0.626954 0.436006 . .
O7_11 O 1.000 0.7030(9) 0.1897(18) 0.0025 Uiso
O10_7 O 0.8377(6) 0.6764(7) 0.2767(16) 0.0025 Uiso
C10_7 C 0.8824(10) 0.6983(10) 0.2122(19) 0.0025 Uiso
C11_7 C 0.9491(10) 0.6762(8) 0.255(2) 0.0025 Uiso
C12_7 C 0.9658(8) 0.6463(8) 0.3649(19) 0.0025 Uiso
H4_7 H 0.934103 0.626954 0.436006 . .
O6_5 O 0.3850(7) 0.2346(7) 0.6183(12) 0.0025 Uiso
C4_8 C 0.3824(10) 0.1983(10) 0.7122(19) 0.0025 Uiso
C5_8 C 0.4491(10) 0.1762(8) 0.755(2) 0.0025 Uiso
C6_8 C 0.4658(8) 0.1463(8) 0.8649(19) 0.0025 Uiso
O7_12 O 0.500 0.2030(9) 0.6897(18) 0.0025 Uiso
O10_8 O 0.6623(6) 0.1764(7) 0.7767(16) 0.0025 Uiso
O11_5 O 0.6150(7) 0.2346(7) 0.6183(12) 0.0025 Uiso
C10_8 C 0.6176(10) 0.1983(10) 0.7122(19) 0.0025 Uiso
C11_8 C 0.5509(10) 0.1762(8) 0.755(2) 0.0025 Uiso
C12_8 C 0.5342(8) 0.1463(8) 0.8649(19) 0.0025 Uiso
H3_8 H 0.434103 0.126954 0.936006 . .
H4_8 H 0.565897 0.126954 0.936006 . .
O4_7 O 0.7388(8) 0.000 0.5319(14) 0.0025 Uiso
O8_4 O 0.6919(6) 0.1554(7) 0.4808(14) 0.0025 Uiso
O9_5 O 0.7551(7) 0.1190(7) 0.6294(14) 0.0025 Uiso
C7_5 C 0.7289(10) 0.1133(13) 0.5238(19) 0.0025 Uiso
C8_5 C 0.7240(10) 0.0501(10) 0.4528(19) 0.0025 Uiso
C9_5 C 0.7092(8) 0.0335(8) 0.3301(14) 0.0025 Uiso
O12_4 O 0.7526(7) 0.2446(7) 0.8811(15) 0.0025 Uiso
O13_4 O 0.7446(7) 0.2474(7) 0.6311(15) 0.0025 Uiso
O15_4 O 0.8446(7) 0.1919(6) 0.7308(14) 0.0025 Uiso
H1_5 H 0.699756 0.0652878 0.251808 . .
O3_5 O 0.7551(7) 0.8810(7) 0.6294(14) 0.0025 Uiso
C1_5 C 0.7289(10) 0.8867(13) 0.5238(19) 0.0025 Uiso
C2_5 C 0.7240(10) 0.9499(10) 0.4528(19) 0.0025 Uiso
C3_5 C 0.7092(8) 0.9665(8) 0.3301(14) 0.0025 Uiso
O4_8 O 0.7388(8) 1.000 0.5319(14) 0.0025 Uiso
H2_5 H 0.699756 0.934712 0.251808 . .
O1_4 O 0.7474(7) 0.2554(7) 0.3811(15) 0.0025 Uiso
O3_6 O 0.7449(7) 0.3810(7) 0.1294(14) 0.0025 Uiso
C1_6 C 0.7711(10) 0.3867(13) 0.0238(19) 0.0025 Uiso
O4_9 O 0.7612(8) 0.500 0.0319(14) 0.0025 Uiso
O9_6 O 0.7449(7) 0.6190(7) 0.1294(14) 0.0025 Uiso
C7_6 C 0.7711(10) 0.6133(13) 0.0238(19) 0.0025 Uiso
O14_4 O 0.7554(7) 0.2526(7) 0.1311(15) 0.0025 Uiso
O16_4 O 0.6554(7) 0.3081(6) 0.2308(14) 0.0025 Uiso
O2_4 O 0.8081(6) 0.3446(7) 0.9808(14) 0.0025 Uiso
C2_6 C 0.7760(10) 0.4499(10) 0.9528(19) 0.0025 Uiso
C3_6 C 0.7908(8) 0.4665(8) 0.8301(14) 0.0025 Uiso
C8_6 C 0.7760(10) 0.5501(10) 0.9528(19) 0.0025 Uiso
C9_6 C 0.7908(8) 0.5335(8) 0.8301(14) 0.0025 Uiso
H1_6 H 0.800244 0.565288 0.751808 . .
H2_6 H 0.800244 0.434712 0.751808 . .
O3_7 O 0.1190(7) 0.2551(7) 0.8794(14) 0.0025 Uiso
C1_7 C 0.1133(13) 0.2289(10) 0.7738(19) 0.0025 Uiso
C2_7 C 0.0501(10) 0.2240(10) 0.7028(19) 0.0025 Uiso
C3_7 C 0.0335(8) 0.2092(8) 0.5801(14) 0.0025 Uiso
O4_10 O 0.000 0.2388(8) 0.7819(14) 0.0025 Uiso
H2_7 H 0.0652878 0.199756 0.501808 . .
O4_11 O 1.000 0.2388(8) 0.7819(14) 0.0025 Uiso
O9_7 O 0.8810(7) 0.2551(7) 0.8794(14) 0.0025 Uiso
C7_7 C 0.8867(13) 0.2289(10) 0.7738(19) 0.0025 Uiso
C8_7 C 0.9499(10) 0.2240(10) 0.7028(19) 0.0025 Uiso
C9_7 C 0.9665(8) 0.2092(8) 0.5801(14) 0.0025 Uiso
H1_7 H 0.934712 0.199756 0.501808 . .
O3_8 O 0.6190(7) 0.2449(7) 0.3794(14) 0.0025 Uiso
C1_8 C 0.6133(13) 0.2711(10) 0.2738(19) 0.0025 Uiso
C2_8 C 0.5501(10) 0.2760(10) 0.2028(19) 0.0025 Uiso
C3_8 C 0.5335(8) 0.2908(8) 0.0801(14) 0.0025 Uiso
O4_12 O 0.500 0.2612(8) 0.2819(14) 0.0025 Uiso
O9_8 O 0.3810(7) 0.2449(7) 0.3794(14) 0.0025 Uiso
C7_8 C 0.3867(13) 0.2711(10) 0.2738(19) 0.0025 Uiso
C8_8 C 0.4499(10) 0.2760(10) 0.2028(19) 0.0025 Uiso
C9_8 C 0.4665(8) 0.2908(8) 0.0801(14) 0.0025 Uiso
H1_8 H 0.434712 0.300244 0.00180807 . .
H2_8 H 0.565288 0.300244 0.00180807 . .
loop_
_geom_bond_atom_site_label_1
_geom_bond_atom_site_label_2
_geom_bond_site_symmetry_1
_geom_bond_site_symmetry_2
Al1 O1 1_555 1_555
O1 Al8 1_555 1_555
O3 Al1 1_555 1_555
C1 O3 1_555 1_555
O5 Al1 1_555 1_555
O6 C4 1_555 1_555
C4 O5 1_555 1_555
C5 C4 1_555 1_555
C6 C5 1_555 1_555
O7 C5 1_555 1_555
O9 C7 1_555 1_555
Al2 O9 1_555 1_555
O12 Al2 1_555 1_555
Al4 O12 1_555 1_555
O13 Al2 1_555 1_555
O14 Al1 1_555 1_555
O15 Al2 1_555 1_555
O16 Al1 1_555 1_555
O17 Al2 1_555 1_555
O18 Al2 1_555 1_555
O19 Al1 1_555 1_555
O6 Al6 1_555 1_555
Al3 O13 1_555 1_555
Al6 O14 1_555 1_555
C6 H3 1_555 1_555
C3 C2 1_555 1_555
C9 C3 1_555 1_555
C8 C9 1_555 1_555
C9 H1 1_555 1_555
C3 H2 1_555 1_555
O10 C10 1_555 1_555
O11 C10 1_555 1_555
C10 C11 1_555 1_555
C11 O7_2 1_555 1_555
Al5 O10 1_555 1_555
Al7 O11 1_555 1_555
C11 C12 1_555 1_555
C12 H4 1_555 1_555
O8_2 C7_2 1_555 1_555
O9_2 C7_2 1_555 1_555
C7_2 C8_2 1_555 1_555
C8_2 O4_2 1_555 1_555
Al2_2 O9_2 1_555 1_555
O12_2 Al2_2 1_555 1_555
Al8 O8_2 1_555 1_555
O13_2 Al2_2 1_555 1_555
O15_2 Al2_2 1_555 1_555
O17_2 Al2_2 1_555 1_555
O18_2 Al2_2 1_555 1_555
C8_2 C9_2 1_555 1_555
Al8 O13_2 1_555 1_555
C9_2 H1_2 1_555 1_555
Al1_2 O1_2 1_555 1_555
O2_2 C1_2 1_555 1_555
O3_2 Al1_2 1_555 1_555
C1_2 O3_2 1_555 1_555
C2_2 C1_2 1_555 1_555
C3_2 C2_2 1_555 1_555
O4_3 C2_2 1_555 1_555
O5_2 Al1_2 1_555 1_555
O6_2 C4_2 1_555 1_555
C4_2 O5_2 1_555 1_555
C5_2 C4_2 1_555 1_555
C6_2 C5_2 1_555 1_555
O7_3 C5_2 1_555 1_555
O10_2 C10_2 1_555 1_555
O11_2 C10_2 1_555 1_555
C10_2 C11_2 1_555 1_555
C11_2 O7_3 1_555 1_555
C12_2 C6_2 1_555 1_555
Al5_2 O10_2 1_555 1_555
Al4 O2_2 1_555 1_555
Al7_2 O11_2 1_555 1_555
O14_2 Al1_2 1_555 1_555
O16_2 Al1_2 1_555 1_555
O19_2 Al1_2 1_555 1_555
O6_2 Al4 1_555 1_555
C11_2 C12_2 1_555 1_555
Al4 O14_2 1_555 1_555
C3_2 H2_2 1_555 1_555
C6_2 H3_2 1_555 1_555
C12_2 H4_2 1_555 1_555
Al7_2 O1_3 1_555 1_555
O1_3 Al5_2 1_555 1_555
O2_3 C1_3 1_555 1_555
O3_3 Al7_2 1_555 1_555
C1_3 O3_3 1_555 1_555
C2_3 C1_3 1_555 1_555
C3_3 C2_3 1_555 1_555
O4_4 C2_3 1_555 1_555
O5_3 Al7_2 1_555 1_555
O6_3 C4_3 1_555 1_555
C4_3 O5_3 1_555 1_555
C5_3 C4_3 1_555 1_555
C6_3 C5_3 1_555 1_555
O7_4 C5_3 1_555 1_555
O15 C7_3 1_555 1_555
O9_3 C7_3 1_555 1_555
C7_3 C8_3 1_555 1_555
C8_3 O4_4 1_555 1_555
C9_3 C3_3 1_555 1_555
O10_3 C10_3 1_555 1_555
O11_3 C10_3 1_555 1_555
C10_3 C11_3 1_555 1_555
C11_3 O7_4 1_555 1_555
C12_3 C6_3 1_555 1_555
Al4 O9_3 1_555 1_555
Al5_3 O10_3 1_555 1_555
Al6_2 O2_3 1_555 1_555
Al5 O11_3 1_555 1_555
O14_3 Al7_2 1_555 1_555
O16_3 Al7_2 1_555 1_555
O17_3 Al4 1_555 1_555
O6_3 Al6_2 1_555 1_555
C8_3 C9_3 1_555 1_555
C11_3 C12_3 1_555 1_555
Al6_2 O14_3 1_555 1_555
C9_3 H1_3 1_555 1_555
C3_3 H2_3 1_555 1_555
C6_3 H3_3 1_555 1_555
C12_3 H4_3 1_555 1_555
Al6 O10_4 1_555 1_555
C11_4 C12_4 1_555 1_555
C12_4 H4_4 1_555 1_555
O18_2 C10_4 1_555 1_555
O5_4 Al3 1_555 1_555
C6_4 C5_4 1_555 1_555
O19_3 Al3 1_555 1_555
C6_4 H3_4 1_555 1_555
O16_2 C1_4 1_555 1_555
C1_4 O3_4 1_555 1_555
C2_4 C1_4 1_555 1_555
C3_4 C2_4 1_555 1_555
O4_5 C2_4 1_555 1_555
O19_2 C4_4 1_555 1_555
C3_4 H2_4 1_555 1_555
O12_3 Al2_3 1_555 1_555
Al6_2 O12_3 1_555 1_555
O17_4 Al2_3 1_555 1_555
O18_3 Al2_3 1_555 1_555
O8_3 C7_4 1_555 1_555
O9_4 C7_4 1_555 1_555
C7_4 C8_4 1_555 1_555
C8_4 O4_6 1_555 1_555
Al5_2 O8_3 1_555 1_555
C8_4 C9_4 1_555 1_555
Al5_2 O13_3 1_555 1_555
C9_4 H1_4 1_555 1_555
O18 C4_5 1_555 1_555
C4_5 O17_3 1_555 1_555
C5_5 C4_5 1_555 1_555
C6_5 C5_5 1_555 1_555
O7_7 C5_5 1_555 1_555
O10_5 C10_5 1_555 1_555
O19 C10_5 1_555 1_555
C10_5 C11_5 1_555 1_555
C11_5 O7_7 1_555 1_555
C12_5 C6_5 1_555 1_555
Al8 O10_5 1_555 1_555
C11_5 C12_5 1_555 1_555
C6_5 H3_5 1_555 1_555
C12_5 H4_5 1_555 1_555
Al7 O10_6 1_555 1_555
C11_6 C12_6 1_555 1_555
C12_6 H4_6 1_555 1_555
O11_4 C10_6 1_555 1_555
Al7_3 O11_4 1_555 1_555
C6_6 C5_6 1_555 1_555
C6_6 H3_6 1_555 1_555
O6_4 C4_6 1_555 1_555
O6_4 Al5_2 1_555 1_555
O19_3 C4_7 1_555 1_555
C4_7 O17 1_555 1_555
C5_7 C4_7 1_555 1_555
C6_7 C5_7 1_555 1_555
O7_10 C5_7 1_555 1_555
C6_7 H3_7 1_555 1_555
O10_7 C10_7 1_555 1_555
O18_3 C10_7 1_555 1_555
C10_7 C11_7 1_555 1_555
C11_7 O7_11 1_555 1_555
Al6_2 O10_7 1_555 1_555
C11_7 C12_7 1_555 1_555
C12_7 H4_7 1_555 1_555
O6_5 C4_8 1_555 1_555
C4_8 O17_2 1_555 1_555
C5_8 C4_8 1_555 1_555
C6_8 C5_8 1_555 1_555
O7_12 C5_8 1_555 1_555
O10_8 C10_8 1_555 1_555
O11_5 C10_8 1_555 1_555
C10_8 C11_8 1_555 1_555
C11_8 O7_12 1_555 1_555
C12_8 C6_8 1_555 1_555
Al7_3 O10_8 1_555 1_555
Al5_3 O11_5 1_555 1_555
O6_5 Al8 1_555 1_555
C11_8 C12_8 1_555 1_555
C6_8 H3_8 1_555 1_555
C12_8 H4_8 1_555 1_555
O8_4 C7_5 1_555 1_555
O9_5 C7_5 1_555 1_555
C7_5 C8_5 1_555 1_555
C8_5 O4_7 1_555 1_555
Al7_3 O9_5 1_555 1_555
O12_4 Al7_3 1_555 1_555
Al5_3 O8_4 1_555 1_555
O13_4 Al7_3 1_555 1_555
O15_4 Al7_3 1_555 1_555
C8_5 C9_5 1_555 1_555
Al5_3 O13_4 1_555 1_555
C9_5 H1_5 1_555 1_555
O16_3 C1_5 1_555 1_555
O3_5 Al5_2 1_555 1_555
C1_5 O3_5 1_555 1_555
C2_5 C1_5 1_555 1_555
C3_5 C2_5 1_555 1_555
O4_8 C2_5 1_555 1_555
C3_5 H2_5 1_555 1_555
Al5 O1_4 1_555 1_555
O1_4 Al5_3 1_555 1_555
O3_6 Al5 1_555 1_555
C1_6 O3_6 1_555 1_555
O9_6 C7_6 1_555 1_555
Al6_2 O9_6 1_555 1_555
O14_4 Al5 1_555 1_555
O16_4 Al5 1_555 1_555
Al7 O14_4 1_555 1_555
C3_6 C2_6 1_555 1_555
C9_6 C3_6 1_555 1_555
C8_6 C9_6 1_555 1_555
C9_6 H1_6 1_555 1_555
C3_6 H2_6 1_555 1_555
O15_2 C1_7 1_555 1_555
C1_7 O3_7 1_555 1_555
C2_7 C1_7 1_555 1_555
C3_7 C2_7 1_555 1_555
O4_10 C2_7 1_555 1_555
C3_7 H2_7 1_555 1_555
O15_4 C7_7 1_555 1_555
O9_7 C7_7 1_555 1_555
C7_7 C8_7 1_555 1_555
C8_7 O4_11 1_555 1_555
C8_7 C9_7 1_555 1_555
C9_7 H1_7 1_555 1_555
O16_4 C1_8 1_555 1_555
O3_8 Al5_3 1_555 1_555
C1_8 O3_8 1_555 1_555
C2_8 C1_8 1_555 1_555
C3_8 C2_8 1_555 1_555
O4_12 C2_8 1_555 1_555
O16 C7_8 1_555 1_555
O9_8 C7_8 1_555 1_555
C7_8 C8_8 1_555 1_555
C8_8 O4_12 1_555 1_555
C9_8 C3_8 1_555 1_555
Al8 O9_8 1_555 1_555
C8_8 C9_8 1_555 1_555
C9_8 H1_8 1_555 1_555
C3_8 H2_8 1_555 1_555

#END
