
###############################################################################
#
# This file contains modified crystal structure data generated from the
# MOF subset of the Cambridge Structural Database (CSD) v543 
# hosted by the Cambridge Crystallographic Data Centre (CCDC).
#
# This work is licensed under the Creative Commons
# Attribution-NonCommercial-ShareAlike 4.0 International License.
# To view a copy of this license, visit
# http://creativecommons.org/licenses/by-nc-sa/4.0/
# or send a letter to
# Creative Commons, PO Box 1866, Mountain View, CA 94042, USA.
#
# CIF created using the CSD Python API on 29 September 2022
# The structure has been converted into the P1 space group
# The structure has a 3D framework
# The original CSD entry PICBAH is in the tetragonal crystal system
# The framework has been calculated to contain at least 10.0% void space
# The void calculation uses a probe of radius 1.32A, grid spacing 0.4
# H atom positions have been added when not included in the experimental data
#
###############################################################################

data_PICBAH
_chemical_formula_moiety         '(C96 H32 Al14 O78)n'
_symmetry_cell_setting           triclinic
_symmetry_space_group_name_H-M   'P 1'
_symmetry_Int_Tables_number      1
_space_group_name_Hall           'P 1'
loop_
_symmetry_equiv_pos_site_id
_symmetry_equiv_pos_as_xyz
1 x,y,z
_cell_length_a                   21.1355(3)
_cell_length_b                   21.1355(3)
_cell_length_c                   10.67635(17)
_cell_angle_alpha                90
_cell_angle_beta                 90
_cell_angle_gamma                90
_cell_volume                     4769.23
loop_
_atom_site_label
_atom_site_type_symbol
_atom_site_fract_x
_atom_site_fract_y
_atom_site_fract_z
Al1 Al 0.3150(3) 0.000 0.000
O1 O 0.2551(3) 0.0051(3) 0.125
O3 O 0.3412(3) 0.0637(3) 0.2622(6)
C1 C 0.3840(5) 0.0339(5) 0.2007(11)
C2 C 0.4434(4) 0.0567(5) 0.2697(11)
C3 C 0.4665(4) 0.0969(4) 0.3641(10)
O4 O 0.500 0.0413(5) 0.2169(10)
O6 O 0.6588(3) 0.0637(3) 0.2622(6)
C4 C 0.6160(5) 0.0339(5) 0.2007(11)
C5 C 0.5566(4) 0.0567(5) 0.2697(11)
C6 C 0.5335(4) 0.0969(4) 0.3641(10)
Al2 Al 0.6850(3) 0.000 0.000
Al3 Al 0.250 0.0650(3) 0.250
Al4 Al 0.750 0.0650(3) 0.250
H1 H 0.437066 0.124158 0.428109
H2 H 0.562934 0.124158 0.428109
Al1_2 Al 0.3150(3) -0.000 1.000
Al2_2 Al 0.6850(3) -0.000 1.000
O8 O 0.3812(3) 0.0032(4) 0.8901(6)
O10 O 0.3137(3) 0.0912(3) 0.9878(6)
Al1_3 Al 0.3150(3) 1.000 0.000
O2 O 0.3812(3) 0.9968(4) 0.1099(6)
O5 O 0.6188(3) 0.9968(4) 0.1099(6)
Al2_3 Al 0.6850(3) 1.000 0.000
O9 O 0.3137(3) 0.9088(3) 0.0122(6)
Al1_4 Al 0.3150(3) 1.000 1.000
Al2_4 Al 0.6850(3) 1.000 1.000
O7 O 0.2551(3) 0.9949(3) 0.875
Al1_5 Al 0.1850(3) -0.000 0.500
O2_2 O 0.1188(3) 0.0032(4) 0.6099(6)
O7_2 O 0.2449(3) 0.0051(3) 0.375
O9_2 O 0.1863(3) 0.0912(3) 0.5122(6)
Al1_6 Al 0.1850(3) 1.000 0.500
O1_2 O 0.2449(3) 0.9949(3) 0.625
O3_2 O 0.1588(3) 0.9363(3) 0.7622(6)
C1_2 C 0.1160(5) 0.9661(5) 0.7007(11)
C2_2 C 0.0566(4) 0.9433(5) 0.7697(11)
C3_2 C 0.0335(4) 0.9031(4) 0.8641(10)
O4_2 O -0.000 0.9587(5) 0.7169(10)
Al3_2 Al 0.250 0.9350(3) 0.750
O8_2 O 0.1188(3) 0.9968(4) 0.3901(6)
O10_2 O 0.1863(3) 0.9088(3) 0.4878(6)
H1_2 H 0.0629341 0.875842 0.928109
O5_2 O 0.8812(3) 0.0032(4) 0.6099(6)
Al2_5 Al 0.8150(3) -0.000 0.500
O4_3 O 1.000 0.9587(5) 0.7169(10)
O6_2 O 0.8412(3) 0.9363(3) 0.7622(6)
C4_2 C 0.8840(5) 0.9661(5) 0.7007(11)
C5_2 C 0.9434(4) 0.9433(5) 0.7697(11)
C6_2 C 0.9665(4) 0.9031(4) 0.8641(10)
Al2_6 Al 0.8150(3) 1.000 0.500
Al4_2 Al 0.750 0.9350(3) 0.750
H2_2 H 0.937066 0.875842 0.928109
O3_3 O 0.1588(3) 0.0637(3) 0.2378(6)
C1_3 C 0.1160(5) 0.0339(5) 0.2993(11)
C2_3 C 0.0566(4) 0.0567(5) 0.2303(11)
C3_3 C 0.0335(4) 0.0969(4) 0.1359(10)
O4_4 O 0.000 0.0413(5) 0.2831(10)
H1_3 H 0.0629341 0.124158 0.0718914
O4_5 O 1.000 0.0413(5) 0.2831(10)
O6_3 O 0.8412(3) 0.0637(3) 0.2378(6)
C4_3 C 0.8840(5) 0.0339(5) 0.2993(11)
C5_3 C 0.9434(4) 0.0567(5) 0.2303(11)
C6_3 C 0.9665(4) 0.0969(4) 0.1359(10)
H2_3 H 0.937066 0.124158 0.0718914
O5_3 O 0.8812(3) 0.9968(4) 0.3901(6)
O2_3 O 0.2532(4) 0.8688(3) 0.6401(6)
C1_4 C 0.2161(5) 0.8660(5) 0.5493(11)
C2_4 C 0.1933(5) 0.8066(4) 0.4803(11)
C3_4 C 0.1531(4) 0.7835(4) 0.3859(10)
O4_6 O 0.2087(5) 0.750 0.5331(10)
O5_4 O 0.2532(4) 0.6312(3) 0.6401(6)
O6_4 O 0.1863(3) 0.5912(3) 0.4878(6)
C4_4 C 0.2161(5) 0.6340(5) 0.5493(11)
C5_4 C 0.1933(5) 0.6934(4) 0.4803(11)
C6_4 C 0.1531(4) 0.7165(4) 0.3859(10)
Al2_7 Al 0.250 0.5650(3) 0.750
Al4_3 Al 0.1850(3) 0.500 0.500
O8_3 O 0.2468(4) 0.8688(3) 0.8599(6)
O9_3 O 0.3412(3) 0.9363(3) 0.7378(6)
H1_4 H 0.125842 0.812934 0.321891
H2_4 H 0.125842 0.687066 0.321891
O2_4 O 0.2532(4) 0.1312(3) 0.3599(6)
C1_5 C 0.2161(5) 0.1340(5) 0.4507(11)
C2_5 C 0.1933(5) 0.1934(4) 0.5197(11)
C3_5 C 0.1531(4) 0.2165(4) 0.6141(10)
O4_7 O 0.2087(5) 0.250 0.4669(10)
O5_5 O 0.2532(4) 0.3688(3) 0.3599(6)
O6_5 O 0.1863(3) 0.4088(3) 0.5122(6)
C4_5 C 0.2161(5) 0.3660(5) 0.4507(11)
C5_5 C 0.1933(5) 0.3066(4) 0.5197(11)
C6_5 C 0.1531(4) 0.2835(4) 0.6141(10)
Al2_8 Al 0.250 0.4350(3) 0.250
O8_4 O 0.2468(4) 0.1312(3) 0.1401(6)
H1_5 H 0.125842 0.187066 0.678109
H2_5 H 0.125842 0.312934 0.678109
C2_6 C 0.3067(5) 0.8066(4) 0.0197(11)
C3_6 C 0.3469(4) 0.7835(4) 0.1141(10)
O6_6 O 0.3137(3) 0.5912(3) 0.0122(6)
C5_6 C 0.3067(5) 0.6934(4) 0.0197(11)
C6_6 C 0.3469(4) 0.7165(4) 0.1141(10)
Al4_4 Al 0.3150(3) 0.500 0.000
H1_6 H 0.374158 0.812934 0.178109
H2_6 H 0.374158 0.687066 0.178109
C1_6 C 0.2839(5) 0.8660(5) 0.9507(11)
O4_8 O 0.2913(5) 0.750 0.9669(10)
O5_6 O 0.2468(4) 0.6312(3) 0.8599(6)
C4_6 C 0.2839(5) 0.6340(5) 0.9507(11)
Al4_5 Al 0.3150(3) 0.500 1.000
C1_7 C 0.2839(5) 0.1340(5) 0.0493(11)
O4_9 O 0.2913(5) 0.250 0.0331(10)
O5_7 O 0.2468(4) 0.3688(3) 0.1401(6)
C4_7 C 0.2839(5) 0.3660(5) 0.0493(11)
C2_7 C 0.3067(5) 0.1934(4) 0.9803(11)
C3_7 C 0.3469(4) 0.2165(4) 0.8859(10)
O6_7 O 0.3137(3) 0.4088(3) 0.9878(6)
C5_7 C 0.3067(5) 0.3066(4) 0.9803(11)
C6_7 C 0.3469(4) 0.2835(4) 0.8859(10)
H1_7 H 0.374158 0.187066 0.821891
H2_7 H 0.374158 0.312934 0.821891
O5_8 O 0.6188(3) 0.0032(4) 0.8901(6)
C1_8 C 0.3840(5) 0.9661(5) 0.7993(11)
C2_8 C 0.4434(4) 0.9433(5) 0.7303(11)
C3_8 C 0.4665(4) 0.9031(4) 0.6359(10)
O4_10 O 0.500 0.9587(5) 0.7831(10)
O6_8 O 0.6588(3) 0.9363(3) 0.7378(6)
C4_8 C 0.6160(5) 0.9661(5) 0.7993(11)
C5_8 C 0.5566(4) 0.9433(5) 0.7303(11)
C6_8 C 0.5335(4) 0.9031(4) 0.6359(10)
H1_8 H 0.437066 0.875842 0.571891
H2_8 H 0.562934 0.875842 0.571891
O4_11 O 0.000 0.5413(5) 0.7169(10)
O5_9 O 0.1188(3) 0.4968(4) 0.6099(6)
O6_9 O 0.1588(3) 0.5637(3) 0.7622(6)
C4_9 C 0.1160(5) 0.5339(5) 0.7007(11)
C5_9 C 0.0566(4) 0.5567(5) 0.7697(11)
C6_9 C 0.0335(4) 0.5969(4) 0.8641(10)
H2_9 H 0.0629341 0.624158 0.928109
Al1_7 Al 0.8150(3) 0.500 0.500
O1_3 O 0.7551(3) 0.5051(3) 0.625
O2_5 O 0.8812(3) 0.4968(4) 0.6099(6)
O3_4 O 0.8412(3) 0.5637(3) 0.7622(6)
C1_9 C 0.8840(5) 0.5339(5) 0.7007(11)
C2_9 C 0.9434(4) 0.5567(5) 0.7697(11)
C3_9 C 0.9665(4) 0.5969(4) 0.8641(10)
O4_12 O 1.000 0.5413(5) 0.7169(10)
Al3_3 Al 0.750 0.5650(3) 0.750
O7_3 O 0.7551(3) 0.4949(3) 0.375
O8_5 O 0.8812(3) 0.5032(4) 0.3901(6)
O9_4 O 0.8137(3) 0.4088(3) 0.5122(6)
O10_3 O 0.8137(3) 0.5912(3) 0.4878(6)
H1_9 H 0.937066 0.624158 0.928109
Al1_8 Al 0.6850(3) 0.500 0.000
O1_4 O 0.7449(3) 0.4949(3) 0.125
O2_6 O 0.6188(3) 0.5032(4) 0.1099(6)
O3_5 O 0.6588(3) 0.4363(3) 0.2622(6)
C1_10 C 0.6160(5) 0.4661(5) 0.2007(11)
C2_10 C 0.5566(4) 0.4433(5) 0.2697(11)
C3_10 C 0.5335(4) 0.4031(4) 0.3641(10)
O4_13 O 0.500 0.4587(5) 0.2169(10)
O5_10 O 0.3812(3) 0.5032(4) 0.1099(6)
O6_10 O 0.3412(3) 0.4363(3) 0.2622(6)
C4_10 C 0.3840(5) 0.4661(5) 0.2007(11)
C5_10 C 0.4434(4) 0.4433(5) 0.2697(11)
C6_10 C 0.4665(4) 0.4031(4) 0.3641(10)
Al3_4 Al 0.750 0.4350(3) 0.250
O9_5 O 0.6863(3) 0.5912(3) 0.0122(6)
H1_10 H 0.562934 0.375842 0.428109
H2_10 H 0.437066 0.375842 0.428109
Al1_9 Al 0.6850(3) 0.500 1.000
O7_4 O 0.7449(3) 0.5051(3) 0.875
O8_6 O 0.6188(3) 0.4968(4) 0.8901(6)
O10_4 O 0.6863(3) 0.4088(3) 0.9878(6)
O3_6 O 0.6588(3) 0.5637(3) 0.7378(6)
C1_11 C 0.6160(5) 0.5339(5) 0.7993(11)
C2_11 C 0.5566(4) 0.5567(5) 0.7303(11)
C3_11 C 0.5335(4) 0.5969(4) 0.6359(10)
O4_14 O 0.500 0.5413(5) 0.7831(10)
O5_11 O 0.3812(3) 0.4968(4) 0.8901(6)
O6_11 O 0.3412(3) 0.5637(3) 0.7378(6)
C4_11 C 0.3840(5) 0.5339(5) 0.7993(11)
C5_11 C 0.4434(4) 0.5567(5) 0.7303(11)
C6_11 C 0.4665(4) 0.5969(4) 0.6359(10)
H1_11 H 0.562934 0.624158 0.571891
H2_11 H 0.437066 0.624158 0.571891
O2_7 O 0.7532(4) 0.3688(3) 0.1401(6)
C1_12 C 0.7161(5) 0.3660(5) 0.0493(11)
O4_15 O 0.7087(5) 0.250 0.0331(10)
O5_12 O 0.7532(4) 0.1312(3) 0.1401(6)
C4_12 C 0.7161(5) 0.1340(5) 0.0493(11)
O8_7 O 0.7468(4) 0.3688(3) 0.3599(6)
O9_6 O 0.8412(3) 0.4363(3) 0.2378(6)
C2_12 C 0.6933(5) 0.3066(4) 0.9803(11)
C3_12 C 0.6531(4) 0.2835(4) 0.8859(10)
O6_12 O 0.6863(3) 0.0912(3) 0.9878(6)
C5_12 C 0.6933(5) 0.1934(4) 0.9803(11)
C6_12 C 0.6531(4) 0.2165(4) 0.8859(10)
H1_12 H 0.625842 0.312934 0.821891
H2_12 H 0.625842 0.187066 0.821891
C2_13 C 0.6933(5) 0.6934(4) 0.0197(11)
C3_13 C 0.6531(4) 0.7165(4) 0.1141(10)
O6_13 O 0.6863(3) 0.9088(3) 0.0122(6)
C5_13 C 0.6933(5) 0.8066(4) 0.0197(11)
C6_13 C 0.6531(4) 0.7835(4) 0.1141(10)
H1_13 H 0.625842 0.687066 0.178109
H2_13 H 0.625842 0.812934 0.178109
O2_8 O 0.7532(4) 0.6312(3) 0.8599(6)
C1_13 C 0.7161(5) 0.6340(5) 0.9507(11)
O4_16 O 0.7087(5) 0.750 0.9669(10)
O5_13 O 0.7532(4) 0.8688(3) 0.8599(6)
C4_13 C 0.7161(5) 0.8660(5) 0.9507(11)
O8_8 O 0.7468(4) 0.6312(3) 0.6401(6)
C1_14 C 0.7839(5) 0.3660(5) 0.4507(11)
C2_14 C 0.8067(5) 0.3066(4) 0.5197(11)
C3_14 C 0.8469(4) 0.2835(4) 0.6141(10)
O4_17 O 0.7913(5) 0.250 0.4669(10)
O5_14 O 0.7468(4) 0.1312(3) 0.3599(6)
O6_14 O 0.8137(3) 0.0912(3) 0.5122(6)
C4_14 C 0.7839(5) 0.1340(5) 0.4507(11)
C5_14 C 0.8067(5) 0.1934(4) 0.5197(11)
C6_14 C 0.8469(4) 0.2165(4) 0.6141(10)
H1_14 H 0.874158 0.312934 0.678109
H2_14 H 0.874158 0.187066 0.678109
C1_15 C 0.7839(5) 0.6340(5) 0.5493(11)
C2_15 C 0.8067(5) 0.6934(4) 0.4803(11)
C3_15 C 0.8469(4) 0.7165(4) 0.3859(10)
O4_18 O 0.7913(5) 0.750 0.5331(10)
O5_15 O 0.7468(4) 0.8688(3) 0.6401(6)
O6_15 O 0.8137(3) 0.9088(3) 0.4878(6)
C4_15 C 0.7839(5) 0.8660(5) 0.5493(11)
C5_15 C 0.8067(5) 0.8066(4) 0.4803(11)
C6_15 C 0.8469(4) 0.7835(4) 0.3859(10)
H1_15 H 0.874158 0.687066 0.321891
H2_15 H 0.874158 0.812934 0.321891
O4_19 O -0.000 0.4587(5) 0.2831(10)
O5_16 O 0.1188(3) 0.5032(4) 0.3901(6)
O6_16 O 0.1588(3) 0.4363(3) 0.2378(6)
C4_16 C 0.1160(5) 0.4661(5) 0.2993(11)
C5_16 C 0.0566(4) 0.4433(5) 0.2303(11)
C6_16 C 0.0335(4) 0.4031(4) 0.1359(10)
H2_16 H 0.0629341 0.375842 0.0718914
C1_16 C 0.8840(5) 0.4661(5) 0.2993(11)
C2_16 C 0.9434(4) 0.4433(5) 0.2303(11)
C3_16 C 0.9665(4) 0.4031(4) 0.1359(10)
O4_20 O 1.000 0.4587(5) 0.2831(10)
H1_16 H 0.937066 0.375842 0.0718914
O7_5 O 0.7449(3) 0.0051(3) 0.125
O1_5 O 0.7449(3) 0.9949(3) 0.875
O1_6 O 0.7551(3) 0.0051(3) 0.375
O7_6 O 0.7551(3) 0.9949(3) 0.625
O1_7 O 0.2449(3) 0.4949(3) 0.375
O7_7 O 0.2449(3) 0.5051(3) 0.625
O7_8 O 0.2551(3) 0.4949(3) 0.125
O1_8 O 0.2551(3) 0.5051(3) 0.875
loop_
_geom_bond_atom_site_label_1
_geom_bond_atom_site_label_2
_geom_bond_site_symmetry_1
_geom_bond_site_symmetry_2
Al1 O1 1_555 1_555
O1 Al3 1_555 1_555
O3 C1 1_555 1_555
C2 C1 1_555 1_555
C3 C2 1_555 1_555
O4 C2 1_555 1_555
O6 C4 1_555 1_555
C4 C5 1_555 1_555
C5 O4 1_555 1_555
C6 C3 1_555 1_555
Al3 O3 1_555 1_555
Al4 O6 1_555 1_555
C5 C6 1_555 1_555
C3 H1 1_555 1_555
C6 H2 1_555 1_555
O8 Al1_2 1_555 1_555
O10 Al1_2 1_555 1_555
O2 Al1_3 1_555 1_555
Al2_3 O5 1_555 1_555
O9 Al1_3 1_555 1_555
O7 Al1_4 1_555 1_555
O2_2 Al1_5 1_555 1_555
O7_2 Al1_5 1_555 1_555
O9_2 Al1_5 1_555 1_555
Al1_6 O1_2 1_555 1_555
O1_2 Al3_2 1_555 1_555
O3_2 C1_2 1_555 1_555
C2_2 C1_2 1_555 1_555
C3_2 C2_2 1_555 1_555
O4_2 C2_2 1_555 1_555
Al3_2 O3_2 1_555 1_555
O8_2 Al1_6 1_555 1_555
O10_2 Al1_6 1_555 1_555
C3_2 H1_2 1_555 1_555
Al2_5 O5_2 1_555 1_555
O6_2 C4_2 1_555 1_555
C4_2 C5_2 1_555 1_555
C5_2 O4_3 1_555 1_555
Al4_2 O6_2 1_555 1_555
C5_2 C6_2 1_555 1_555
C6_2 H2_2 1_555 1_555
O7_2 Al3 1_555 1_555
O3_3 C1_3 1_555 1_555
C2_3 C1_3 1_555 1_555
C3_3 C2_3 1_555 1_555
O4_4 C2_3 1_555 1_555
Al3 O3_3 1_555 1_555
C3_3 H1_3 1_555 1_555
O6_3 C4_3 1_555 1_555
C4_3 C5_3 1_555 1_555
C5_3 O4_5 1_555 1_555
Al4 O6_3 1_555 1_555
C5_3 C6_3 1_555 1_555
C6_3 H2_3 1_555 1_555
Al2_6 O5_3 1_555 1_555
O2_3 Al3_2 1_555 1_555
O10_2 C1_4 1_555 1_555
C1_4 O2_3 1_555 1_555
C2_4 C1_4 1_555 1_555
C3_4 C2_4 1_555 1_555
O4_6 C2_4 1_555 1_555
O5_4 C4_4 1_555 1_555
O6_4 C4_4 1_555 1_555
C4_4 C5_4 1_555 1_555
C5_4 O4_6 1_555 1_555
C6_4 C3_4 1_555 1_555
Al2_7 O5_4 1_555 1_555
Al4_3 O6_4 1_555 1_555
O7 Al3_2 1_555 1_555
O8_3 Al3_2 1_555 1_555
O9_3 Al3_2 1_555 1_555
C5_4 C6_4 1_555 1_555
C3_4 H1_4 1_555 1_555
C6_4 H2_4 1_555 1_555
O2_4 Al3 1_555 1_555
O9_2 C1_5 1_555 1_555
C1_5 O2_4 1_555 1_555
C2_5 C1_5 1_555 1_555
C3_5 C2_5 1_555 1_555
O4_7 C2_5 1_555 1_555
O5_5 C4_5 1_555 1_555
O6_5 C4_5 1_555 1_555
C4_5 C5_5 1_555 1_555
C5_5 O4_7 1_555 1_555
C6_5 C3_5 1_555 1_555
Al2_8 O5_5 1_555 1_555
Al4_3 O6_5 1_555 1_555
O8_4 Al3 1_555 1_555
C5_5 C6_5 1_555 1_555
C3_5 H1_5 1_555 1_555
C6_5 H2_5 1_555 1_555
C3_6 C2_6 1_555 1_555
C6_6 C3_6 1_555 1_555
Al4_4 O6_6 1_555 1_555
C5_6 C6_6 1_555 1_555
C3_6 H1_6 1_555 1_555
C6_6 H2_6 1_555 1_555
C1_6 O8_3 1_555 1_555
O5_6 C4_6 1_555 1_555
Al2_7 O5_6 1_555 1_555
C1_7 O8_4 1_555 1_555
O5_7 C4_7 1_555 1_555
Al2_8 O5_7 1_555 1_555
C3_7 C2_7 1_555 1_555
C6_7 C3_7 1_555 1_555
Al4_5 O6_7 1_555 1_555
C5_7 C6_7 1_555 1_555
C3_7 H1_7 1_555 1_555
C6_7 H2_7 1_555 1_555
Al2_2 O5_8 1_555 1_555
O9_3 C1_8 1_555 1_555
C2_8 C1_8 1_555 1_555
C3_8 C2_8 1_555 1_555
O4_10 C2_8 1_555 1_555
O6_8 C4_8 1_555 1_555
C4_8 C5_8 1_555 1_555
C5_8 O4_10 1_555 1_555
C6_8 C3_8 1_555 1_555
Al4_2 O6_8 1_555 1_555
C5_8 C6_8 1_555 1_555
C3_8 H1_8 1_555 1_555
C6_8 H2_8 1_555 1_555
O5_9 C4_9 1_555 1_555
O6_9 C4_9 1_555 1_555
C4_9 C5_9 1_555 1_555
C5_9 O4_11 1_555 1_555
Al4_3 O5_9 1_555 1_555
Al2_7 O6_9 1_555 1_555
C5_9 C6_9 1_555 1_555
C6_9 H2_9 1_555 1_555
Al1_7 O1_3 1_555 1_555
O1_3 Al3_3 1_555 1_555
O2_5 Al1_7 1_555 1_555
O3_4 C1_9 1_555 1_555
C1_9 O2_5 1_555 1_555
C2_9 C1_9 1_555 1_555
C3_9 C2_9 1_555 1_555
O4_12 C2_9 1_555 1_555
Al3_3 O3_4 1_555 1_555
O7_3 Al1_7 1_555 1_555
O8_5 Al1_7 1_555 1_555
O9_4 Al1_7 1_555 1_555
O10_3 Al1_7 1_555 1_555
C3_9 H1_9 1_555 1_555
Al1_8 O1_4 1_555 1_555
O1_4 Al3_4 1_555 1_555
O2_6 Al1_8 1_555 1_555
O3_5 C1_10 1_555 1_555
C1_10 O2_6 1_555 1_555
C2_10 C1_10 1_555 1_555
C3_10 C2_10 1_555 1_555
O4_13 C2_10 1_555 1_555
O5_10 C4_10 1_555 1_555
O6_10 C4_10 1_555 1_555
C4_10 C5_10 1_555 1_555
C5_10 O4_13 1_555 1_555
C6_10 C3_10 1_555 1_555
Al4_4 O5_10 1_555 1_555
Al3_4 O3_5 1_555 1_555
Al2_8 O6_10 1_555 1_555
O9_5 Al1_8 1_555 1_555
C5_10 C6_10 1_555 1_555
C3_10 H1_10 1_555 1_555
C6_10 H2_10 1_555 1_555
O7_4 Al1_9 1_555 1_555
O8_6 Al1_9 1_555 1_555
O10_4 Al1_9 1_555 1_555
O7_4 Al3_3 1_555 1_555
O3_6 C1_11 1_555 1_555
C1_11 O8_6 1_555 1_555
C2_11 C1_11 1_555 1_555
C3_11 C2_11 1_555 1_555
O4_14 C2_11 1_555 1_555
O5_11 C4_11 1_555 1_555
O6_11 C4_11 1_555 1_555
C4_11 C5_11 1_555 1_555
C5_11 O4_14 1_555 1_555
C6_11 C3_11 1_555 1_555
Al4_5 O5_11 1_555 1_555
Al3_3 O3_6 1_555 1_555
Al2_7 O6_11 1_555 1_555
C5_11 C6_11 1_555 1_555
C3_11 H1_11 1_555 1_555
C6_11 H2_11 1_555 1_555
O2_7 Al3_4 1_555 1_555
C1_12 O2_7 1_555 1_555
O5_12 C4_12 1_555 1_555
Al4 O5_12 1_555 1_555
O7_3 Al3_4 1_555 1_555
O8_7 Al3_4 1_555 1_555
O9_6 Al3_4 1_555 1_555
C3_12 C2_12 1_555 1_555
C6_12 C3_12 1_555 1_555
Al2_2 O6_12 1_555 1_555
C5_12 C6_12 1_555 1_555
C3_12 H1_12 1_555 1_555
C6_12 H2_12 1_555 1_555
C3_13 C2_13 1_555 1_555
C6_13 C3_13 1_555 1_555
Al2_3 O6_13 1_555 1_555
C5_13 C6_13 1_555 1_555
C3_13 H1_13 1_555 1_555
C6_13 H2_13 1_555 1_555
O2_8 Al3_3 1_555 1_555
C1_13 O2_8 1_555 1_555
O5_13 C4_13 1_555 1_555
Al4_2 O5_13 1_555 1_555
O8_8 Al3_3 1_555 1_555
O9_4 C1_14 1_555 1_555
C1_14 O8_7 1_555 1_555
C2_14 C1_14 1_555 1_555
C3_14 C2_14 1_555 1_555
O4_17 C2_14 1_555 1_555
O5_14 C4_14 1_555 1_555
O6_14 C4_14 1_555 1_555
C4_14 C5_14 1_555 1_555
C5_14 O4_17 1_555 1_555
C6_14 C3_14 1_555 1_555
Al4 O5_14 1_555 1_555
Al2_5 O6_14 1_555 1_555
C5_14 C6_14 1_555 1_555
C3_14 H1_14 1_555 1_555
C6_14 H2_14 1_555 1_555
O10_3 C1_15 1_555 1_555
C1_15 O8_8 1_555 1_555
C2_15 C1_15 1_555 1_555
C3_15 C2_15 1_555 1_555
O4_18 C2_15 1_555 1_555
O5_15 C4_15 1_555 1_555
O6_15 C4_15 1_555 1_555
C4_15 C5_15 1_555 1_555
C5_15 O4_18 1_555 1_555
C6_15 C3_15 1_555 1_555
Al4_2 O5_15 1_555 1_555
Al2_6 O6_15 1_555 1_555
C5_15 C6_15 1_555 1_555
C3_15 H1_15 1_555 1_555
C6_15 H2_15 1_555 1_555
O5_16 C4_16 1_555 1_555
O6_16 C4_16 1_555 1_555
C4_16 C5_16 1_555 1_555
C5_16 O4_19 1_555 1_555
Al4_3 O5_16 1_555 1_555
Al2_8 O6_16 1_555 1_555
C5_16 C6_16 1_555 1_555
C6_16 H2_16 1_555 1_555
O9_6 C1_16 1_555 1_555
C1_16 O8_5 1_555 1_555
C2_16 C1_16 1_555 1_555
C3_16 C2_16 1_555 1_555
O4_20 C2_16 1_555 1_555
C3_16 H1_16 1_555 1_555
O7_5 Al2 1_555 1_555
Al2_4 O1_5 1_555 1_555
O1_5 Al4_2 1_555 1_555
Al2_5 O1_6 1_555 1_555
O1_6 Al4 1_555 1_555
O7_6 Al2_6 1_555 1_555
O7_6 Al4_2 1_555 1_555
O7_5 Al4 1_555 1_555
Al4_3 O1_7 1_555 1_555
O1_7 Al2_8 1_555 1_555
O7_7 Al4_3 1_555 1_555
O7_8 Al4_4 1_555 1_555
Al4_5 O1_8 1_555 1_555
O1_8 Al2_7 1_555 1_555
O7_8 Al2_8 1_555 1_555
O7_7 Al2_7 1_555 1_555

#END
