
###############################################################################
#
# This file contains modified crystal structure data generated from the
# MOF subset of the Cambridge Structural Database (CSD) v543 
# hosted by the Cambridge Crystallographic Data Centre (CCDC).
#
# This work is licensed under the Creative Commons
# Attribution-NonCommercial-ShareAlike 4.0 International License.
# To view a copy of this license, visit
# http://creativecommons.org/licenses/by-nc-sa/4.0/
# or send a letter to
# Creative Commons, PO Box 1866, Mountain View, CA 94042, USA.
#
# CIF created using the CSD Python API on 29 September 2022
# The structure has been converted into the P1 space group
# The structure has a 3D framework
# The original CSD entry PICCOW is in the monoclinic crystal system
# The framework has been calculated to contain at least 10.0% void space
# The void calculation uses a probe of radius 1.32A, grid spacing 0.4
#
###############################################################################

data_PICCOW
_chemical_formula_moiety         '(C84 H64 Co6 O34 P4)n'
_symmetry_cell_setting           triclinic
_symmetry_space_group_name_H-M   'P 1'
_symmetry_Int_Tables_number      1
_space_group_name_Hall           'P 1'
loop_
_symmetry_equiv_pos_site_id
_symmetry_equiv_pos_as_xyz
1 x,y,z
_cell_length_a                   13.502(2)
_cell_length_b                   13.852(2)
_cell_length_c                   20.841(3)
_cell_angle_alpha                90
_cell_angle_beta                 104.670(2)
_cell_angle_gamma                90
_cell_volume                     3770.82
loop_
_atom_site_label
_atom_site_type_symbol
_atom_site_fract_x
_atom_site_fract_y
_atom_site_fract_z
Co1 Co 0.09864(3) 0.54454(3) 0.051185(17)
O2 O 0.03672(16) 0.21452(15) 0.39249(10)
H12 H 0.015(4) 0.333(4) 0.303(3)
Co7 Co 0.15389(3) 0.13345(3) 0.451435(17)
O12 O 0.25386(17) 0.55839(17) 0.06002(12)
O13 O 0.12922(17) 0.41715(16) 0.10924(10)
O15 O 0.10997(18) 0.62873(18) 0.13373(12)
O9 O 0.0857(2) 0.6797(2) 0.99615(16)
H1 H 0.0270 0.7038 0.9792
H2 H 0.1392 0.7082 0.9916
O17 O 0.06011(15) 0.47839(15) 0.95969(9)
Co5 Co 0.90136(3) 0.04454(3) 0.448815(17)
Co2 Co 0.84611(3) 0.63345(3) 0.048565(17)
P1 P 0.76778(6) 0.53576(5) 0.18194(3)
O1 O 0.82802(16) 0.55968(15) 0.13375(10)
O4 O 0.87078(17) 0.91715(16) 0.39076(10)
O5 O 0.86567(19) 0.79782(16) 0.46259(10)
O6 O 0.89003(18) 0.12873(18) 0.36627(12)
O7 O 0.28915(16) 0.42451(17) 0.00959(11)
O8 O 0.93989(15) 0.52161(15) 0.04031(9)
O10 O 0.75125(19) 0.74786(18) 0.06328(12)
H3 H 0.7246 0.7468 0.0961
H4 H 0.7398 0.7951 0.0364
C1 C 0.8987(2) 0.2763(2) 0.31124(14)
C2 C 0.6331(2) 0.5230(2) 0.14503(14)
C3 C 0.7850(2) 0.6249(2) 0.24701(13)
C4 C 0.8394(3) 0.7833(3) 0.28642(16)
C5 C 0.8296(2) 0.7598(2) 0.34930(14)
C6 C 0.4966(3) 0.4426(3) 0.06723(16)
C7 C 0.8133(2) 0.4266(2) 0.22609(14)
C8 C 0.8571(2) 0.8313(2) 0.40516(14)
C9 C 0.7734(3) 0.6021(3) 0.30932(17)
C10 C 0.9459(2) 0.1998(2) 0.36111(15)
C11 C 0.5619(3) 0.5859(3) 0.15926(19)
C12 C 0.9603(3) 0.3436(3) 0.29128(18)
C13 C 0.7504(3) 0.3591(2) 0.24569(17)
C14 C 0.4592(3) 0.5767(3) 0.12824(19)
H5 H 0.4121 0.6188 0.1388
C15 C 0.7960(3) 0.6687(3) 0.35981(16)
C16 C 0.3132(2) 0.4953(2) 0.04743(14)
C17 C 0.4260(2) 0.5052(2) 0.08172(14)
C18 C 0.9185(3) 0.4169(3) 0.24866(18)
C19 C 0.5995(3) 0.4509(2) 0.09846(16)
C20 C 0.8169(3) 0.7166(2) 0.23577(16)
C21 C 0.7932(3) 0.2846(3) 0.28757(18)
H6 H 0.864(3) 0.849(3) 0.280(2)
H7 H 0.655(3) 0.412(3) 0.091(2)
H8 H 0.965(3) 0.460(3) 0.237(2)
H9 H 0.679(3) 0.368(3) 0.229(2)
H10 H 0.484(3) 0.397(3) 0.037(2)
H11 H 0.790(4) 0.661(3) 0.405(2)
H13 H 0.820(3) 0.732(3) 0.195(2)
H14 H 0.752(4) 0.549(3) 0.316(2)
H15 H 0.587(3) 0.622(3) 0.197(2)
H16 H 0.761(5) 0.225(5) 0.300(3)
Co9 Co 0.84611(3) 0.86655(3) 0.548565(17)
O11 O 0.96328(16) 0.71452(15) 0.10751(10)
Co6 Co 0.90136(3) 0.45546(3) 0.948815(17)
Co8 Co 0.15389(3) 0.36655(3) 0.951435(17)
O14 O 0.86567(19) 0.70218(16) 0.96259(10)
O16 O 0.71085(16) 0.57549(17) 0.99041(11)
P1_2 P 0.23222(6) 0.03576(5) 0.31806(3)
O1_2 O 0.17198(16) 0.05968(15) 0.36625(10)
O3 O 0.74614(17) 0.05839(17) 0.43998(12)
O5_2 O 0.13433(19) 0.29782(16) 0.03741(10)
O8_2 O 0.06011(15) 0.02161(15) 0.45969(9)
O10_2 O 0.24875(19) 0.24786(18) 0.43672(12)
H3_2 H 0.2754 0.2468 0.4039
H4_2 H 0.2602 0.2951 0.4636
C2_2 C 0.3669(2) 0.0230(2) 0.35497(14)
C3_2 C 0.2150(2) 0.1249(2) 0.25299(13)
C4_2 C 0.1606(3) 0.2833(3) 0.21358(16)
C5_2 C 0.1704(2) 0.2598(2) 0.15070(14)
C8_2 C 0.1429(2) 0.3313(2) 0.09484(14)
C9_2 C 0.2266(3) 0.1021(3) 0.19068(17)
C11_2 C 0.4381(3) 0.0859(3) 0.34074(19)
C14_2 C 0.5408(3) 0.0767(3) 0.37176(19)
H5_2 H 0.5879 0.1188 0.3612
C15_2 C 0.2040(3) 0.1687(3) 0.14019(16)
C17_2 C 0.5740(2) 0.0052(2) 0.41828(14)
C20_2 C 0.1831(3) 0.2166(2) 0.26423(16)
H6_2 H 0.136(3) 0.349(3) 0.220(2)
H11_2 H 0.210(4) 0.161(3) 0.095(2)
H13_2 H 0.180(3) 0.232(3) 0.305(2)
H14_2 H 0.248(4) 0.049(3) 0.184(2)
H15_2 H 0.413(3) 0.122(3) 0.303(2)
O14_2 O 0.13433(19) 0.20218(16) 0.53741(10)
O16_2 O 0.28915(16) 0.07549(17) 0.50959(11)
O7_2 O 0.71085(16) 0.92451(17) 0.49041(11)
C1_2 C 0.1013(2) 0.7763(2) 0.18876(14)
C6_2 C 0.5034(3) 0.9426(3) 0.43277(16)
C7_2 C 0.1867(2) 0.9266(2) 0.27391(14)
C10_2 C 0.0541(2) 0.6998(2) 0.13889(15)
C12_2 C 0.0397(3) 0.8436(3) 0.20872(18)
C13_2 C 0.2496(3) 0.8591(2) 0.25431(17)
C16_2 C 0.6868(2) 0.9953(2) 0.45257(14)
C18_2 C 0.0815(3) 0.9169(3) 0.25134(18)
C19_2 C 0.4005(3) 0.9509(2) 0.40154(16)
C21_2 C 0.2068(3) 0.7846(3) 0.21243(18)
H7_2 H 0.345(3) 0.912(3) 0.409(2)
H8_2 H 0.035(3) 0.960(3) 0.263(2)
H9_2 H 0.321(3) 0.868(3) 0.271(2)
H10_2 H 0.516(3) 0.897(3) 0.463(2)
H16_2 H 0.239(5) 0.725(5) 0.200(3)
Co6_2 Co 0.09864(3) 0.95546(3) 0.551185(17)
O9_2 O 0.9143(2) 0.1797(2) 0.50385(16)
H1_2 H 0.9730 0.2038 0.5208
H2_2 H 0.8608 0.2082 0.5084
H12_2 H 0.985(4) 0.833(4) 0.197(3)
O17_2 O 0.93989(15) 0.97839(15) 0.54031(9)
P1_3 P 0.23222(6) 0.46424(5) 0.81806(3)
O1_3 O 0.17198(16) 0.44032(15) 0.86625(10)
O3_2 O 0.74614(17) 0.44161(17) 0.93998(12)
O4_2 O 0.12922(17) 0.08285(16) 0.60924(10)
O6_2 O 0.10997(18) 0.87127(18) 0.63373(12)
O10_3 O 0.24875(19) 0.25214(18) 0.93672(12)
H3_3 H 0.2754 0.2532 0.9039
H4_3 H 0.2602 0.2049 0.9636
C1_3 C 0.1013(2) 0.7237(2) 0.68876(14)
C2_3 C 0.3669(2) 0.4770(2) 0.85497(14)
C3_3 C 0.2150(2) 0.3751(2) 0.75299(13)
C4_3 C 0.1606(3) 0.2167(3) 0.71358(16)
C5_3 C 0.1704(2) 0.2402(2) 0.65070(14)
C6_3 C 0.5034(3) 0.5574(3) 0.93277(16)
C7_3 C 0.1867(2) 0.5734(2) 0.77391(14)
C8_3 C 0.1429(2) 0.1687(2) 0.59484(14)
C9_3 C 0.2266(3) 0.3979(3) 0.69068(17)
C10_3 C 0.0541(2) 0.8002(2) 0.63889(15)
C11_3 C 0.4381(3) 0.4141(3) 0.84074(19)
C12_3 C 0.0397(3) 0.6564(3) 0.70872(18)
C13_3 C 0.2496(3) 0.6409(2) 0.75431(17)
C14_3 C 0.5408(3) 0.4233(3) 0.87176(19)
H5_3 H 0.5879 0.3812 0.8612
C15_3 C 0.2040(3) 0.3313(3) 0.64019(16)
C16_3 C 0.6868(2) 0.5047(2) 0.95257(14)
C17_3 C 0.5740(2) 0.4948(2) 0.91828(14)
C18_3 C 0.0815(3) 0.5831(3) 0.75134(18)
C19_3 C 0.4005(3) 0.5491(2) 0.90154(16)
C20_3 C 0.1831(3) 0.2834(2) 0.76423(16)
C21_3 C 0.2068(3) 0.7154(3) 0.71243(18)
H6_3 H 0.136(3) 0.151(3) 0.720(2)
H7_3 H 0.345(3) 0.588(3) 0.909(2)
H8_3 H 0.035(3) 0.540(3) 0.763(2)
H9_3 H 0.321(3) 0.632(3) 0.771(2)
H10_3 H 0.516(3) 0.603(3) 0.963(2)
H11_3 H 0.210(4) 0.339(3) 0.595(2)
H13_3 H 0.180(3) 0.268(3) 0.805(2)
H14_3 H 0.248(4) 0.451(3) 0.684(2)
H15_3 H 0.413(3) 0.378(3) 0.803(2)
H16_3 H 0.239(5) 0.775(5) 0.700(3)
O11_2 O 0.03672(16) 0.28548(15) 0.89249(10)
O9_3 O 0.9143(2) 0.3203(2) 0.00385(16)
H1_3 H 0.9730 0.2962 0.0208
H2_3 H 0.8608 0.2918 0.0084
O2_2 O 0.96328(16) 0.78548(15) 0.60751(10)
H12_3 H 0.985(4) 0.667(4) 0.697(3)
O13_2 O 0.87078(17) 0.58285(16) 0.89076(10)
O15_2 O 0.89003(18) 0.37127(18) 0.86627(12)
H12_4 H 0.015(4) 0.167(4) 0.803(3)
O9_4 O 0.0857(2) 0.8203(2) 0.49615(16)
H1_4 H 0.0270 0.7962 0.4792
H2_4 H 0.1392 0.7918 0.4916
O12_2 O 0.25386(17) 0.94161(17) 0.56002(12)
C1_4 C 0.8987(2) 0.2237(2) 0.81124(14)
C6_4 C 0.4966(3) 0.0574(3) 0.56723(16)
C7_4 C 0.8133(2) 0.0734(2) 0.72609(14)
C10_4 C 0.9459(2) 0.3002(2) 0.86111(15)
C12_4 C 0.9603(3) 0.1564(3) 0.79128(18)
C13_4 C 0.7504(3) 0.1409(2) 0.74569(17)
C16_4 C 0.3132(2) 0.0047(2) 0.54743(14)
C18_4 C 0.9185(3) 0.0831(3) 0.74866(18)
C19_4 C 0.5995(3) 0.0491(2) 0.59846(16)
C21_4 C 0.7932(3) 0.2154(3) 0.78757(18)
H7_4 H 0.655(3) 0.088(3) 0.591(2)
H8_4 H 0.965(3) 0.040(3) 0.737(2)
H9_4 H 0.679(3) 0.132(3) 0.729(2)
H10_4 H 0.484(3) 0.103(3) 0.537(2)
H16_4 H 0.761(5) 0.275(5) 0.800(3)
P1_4 P 0.76778(6) 0.96424(5) 0.68194(3)
O1_4 O 0.82802(16) 0.94032(15) 0.63375(10)
O10_4 O 0.75125(19) 0.75214(18) 0.56328(12)
H3_4 H 0.7246 0.7532 0.5961
H4_4 H 0.7398 0.7049 0.5364
C2_4 C 0.6331(2) 0.9770(2) 0.64503(14)
C3_4 C 0.7850(2) 0.8751(2) 0.74701(13)
C4_4 C 0.8394(3) 0.7167(3) 0.78642(16)
C5_4 C 0.8296(2) 0.7402(2) 0.84930(14)
C8_4 C 0.8571(2) 0.6687(2) 0.90516(14)
C9_4 C 0.7734(3) 0.8979(3) 0.80932(17)
C11_4 C 0.5619(3) 0.9141(3) 0.65926(19)
C14_4 C 0.4592(3) 0.9233(3) 0.62824(19)
H5_4 H 0.4121 0.8812 0.6388
C15_4 C 0.7960(3) 0.8313(3) 0.85981(16)
C17_4 C 0.4260(2) 0.9948(2) 0.58172(14)
C20_4 C 0.8169(3) 0.7834(2) 0.73577(16)
H6_4 H 0.864(3) 0.651(3) 0.780(2)
H11_4 H 0.790(4) 0.839(3) 0.905(2)
H13_4 H 0.820(3) 0.768(3) 0.695(2)
H14_4 H 0.752(4) 0.951(3) 0.816(2)
H15_4 H 0.587(3) 0.878(3) 0.697(2)
loop_
_geom_bond_atom_site_label_1
_geom_bond_atom_site_label_2
_geom_bond_site_symmetry_1
_geom_bond_site_symmetry_2
Co7 O2 1_555 1_555
O12 Co1 1_555 1_555
O13 Co1 1_555 1_555
O15 Co1 1_555 1_555
H1 O9 1_555 1_555
H2 O9 1_555 1_555
Co2 O1 1_555 1_555
P1 O1 1_555 1_555
O12 C16 1_555 1_555
O4 C8 1_555 1_555
O5 C8 1_555 1_555
O6 C10 1_555 1_555
O7 C16 1_555 1_555
O8 Co2 1_555 1_555
O10 Co2 1_555 1_555
H3 O10 1_555 1_555
H4 O10 1_555 1_555
C1 C10 1_555 1_555
C2 P1 1_555 1_555
C3 P1 1_555 1_555
C4 C5 1_555 1_555
C5 C8 1_555 1_555
C6 C17 1_555 1_555
C7 P1 1_555 1_555
C9 C3 1_555 1_555
C11 C2 1_555 1_555
C12 C1 1_555 1_555
C13 C7 1_555 1_555
C14 C11 1_555 1_555
H5 C14 1_555 1_555
C15 C5 1_555 1_555
C16 C17 1_555 1_555
C17 C14 1_555 1_555
C18 C7 1_555 1_555
C19 C2 1_555 1_555
C20 C3 1_555 1_555
C21 C1 1_555 1_555
H6 C4 1_555 1_555
H7 C19 1_555 1_555
H8 C18 1_555 1_555
H9 C13 1_555 1_555
H10 C6 1_555 1_555
H11 C15 1_555 1_555
H13 C20 1_555 1_555
H14 C9 1_555 1_555
H15 C11 1_555 1_555
H16 C21 1_555 1_555
Co5 O6 1_555 1_555
Co9 O5 1_555 1_555
O11 Co2 1_555 1_555
C4 C20 1_555 1_555
C6 C19 1_555 1_555
C9 C15 1_555 1_555
C12 C18 1_555 1_555
C13 C21 1_555 1_555
Co7 O1_2 1_555 1_555
P1_2 O1_2 1_555 1_555
O13 C8_2 1_555 1_555
O5_2 C8_2 1_555 1_555
O8_2 Co7 1_555 1_555
O10_2 Co7 1_555 1_555
H3_2 O10_2 1_555 1_555
H4_2 O10_2 1_555 1_555
C2_2 P1_2 1_555 1_555
C3_2 P1_2 1_555 1_555
C4_2 C5_2 1_555 1_555
C5_2 C8_2 1_555 1_555
C9_2 C3_2 1_555 1_555
C11_2 C2_2 1_555 1_555
C14_2 C11_2 1_555 1_555
H5_2 C14_2 1_555 1_555
C15_2 C5_2 1_555 1_555
C17_2 C14_2 1_555 1_555
C20_2 C3_2 1_555 1_555
H6_2 C4_2 1_555 1_555
H11_2 C15_2 1_555 1_555
H13_2 C20_2 1_555 1_555
H14_2 C9_2 1_555 1_555
H15_2 C11_2 1_555 1_555
Co5 O3 1_555 1_555
O14_2 Co7 1_555 1_555
O16_2 Co7 1_555 1_555
C4_2 C20_2 1_555 1_555
C9_2 C15_2 1_555 1_555
O15 C10_2 1_555 1_555
O7_2 C16_2 1_555 1_555
C1_2 C10_2 1_555 1_555
C12_2 C1_2 1_555 1_555
C13_2 C7_2 1_555 1_555
C18_2 C7_2 1_555 1_555
C21_2 C1_2 1_555 1_555
H7_2 C19_2 1_555 1_555
H8_2 C18_2 1_555 1_555
H9_2 C13_2 1_555 1_555
H10_2 C6_2 1_555 1_555
H16_2 C21_2 1_555 1_555
Co9 O7_2 1_555 1_555
C6_2 C19_2 1_555 1_555
C12_2 C18_2 1_555 1_555
C13_2 C21_2 1_555 1_555
O9_2 Co5 1_555 1_555
H1_2 O9_2 1_555 1_555
H2_2 O9_2 1_555 1_555
Co8 O1_3 1_555 1_555
P1_3 O1_3 1_555 1_555
O3_2 C16_3 1_555 1_555
O4_2 C8_3 1_555 1_555
O14_2 C8_3 1_555 1_555
O6_2 C10_3 1_555 1_555
O16 C16_3 1_555 1_555
O17 Co8 1_555 1_555
O10_3 Co8 1_555 1_555
H3_3 O10_3 1_555 1_555
H4_3 O10_3 1_555 1_555
C1_3 C10_3 1_555 1_555
C2_3 P1_3 1_555 1_555
C3_3 P1_3 1_555 1_555
C4_3 C5_3 1_555 1_555
C5_3 C8_3 1_555 1_555
C6_3 C17_3 1_555 1_555
C7_3 P1_3 1_555 1_555
C9_3 C3_3 1_555 1_555
C11_3 C2_3 1_555 1_555
C12_3 C1_3 1_555 1_555
C13_3 C7_3 1_555 1_555
C14_3 C11_3 1_555 1_555
H5_3 C14_3 1_555 1_555
C15_3 C5_3 1_555 1_555
C16_3 C17_3 1_555 1_555
C17_3 C14_3 1_555 1_555
C18_3 C7_3 1_555 1_555
C19_3 C2_3 1_555 1_555
C20_3 C3_3 1_555 1_555
C21_3 C1_3 1_555 1_555
H6_3 C4_3 1_555 1_555
H7_3 C19_3 1_555 1_555
H8_3 C18_3 1_555 1_555
H9_3 C13_3 1_555 1_555
H10_3 C6_3 1_555 1_555
H11_3 C15_3 1_555 1_555
H13_3 C20_3 1_555 1_555
H14_3 C9_3 1_555 1_555
H15_3 C11_3 1_555 1_555
H16_3 C21_3 1_555 1_555
Co6 O3_2 1_555 1_555
Co6_2 O6_2 1_555 1_555
O11_2 Co8 1_555 1_555
C4_3 C20_3 1_555 1_555
C6_3 C19_3 1_555 1_555
C9_3 C15_3 1_555 1_555
C12_3 C18_3 1_555 1_555
C13_3 C21_3 1_555 1_555
H1_3 O9_3 1_555 1_555
H2_3 O9_3 1_555 1_555
Co9 O2_2 1_555 1_555
O13_2 Co6 1_555 1_555
O15_2 Co6 1_555 1_555
O9_4 Co6_2 1_555 1_555
H1_4 O9_4 1_555 1_555
H2_4 O9_4 1_555 1_555
O12_2 Co6_2 1_555 1_555
O15_2 C10_4 1_555 1_555
O16_2 C16_4 1_555 1_555
C1_4 C10_4 1_555 1_555
C12_4 C1_4 1_555 1_555
C13_4 C7_4 1_555 1_555
C18_4 C7_4 1_555 1_555
C21_4 C1_4 1_555 1_555
H7_4 C19_4 1_555 1_555
H8_4 C18_4 1_555 1_555
H9_4 C13_4 1_555 1_555
H10_4 C6_4 1_555 1_555
H16_4 C21_4 1_555 1_555
C6_4 C19_4 1_555 1_555
C12_4 C18_4 1_555 1_555
C13_4 C21_4 1_555 1_555
Co9 O1_4 1_555 1_555
P1_4 O1_4 1_555 1_555
O13_2 C8_4 1_555 1_555
O14 C8_4 1_555 1_555
O17_2 Co9 1_555 1_555
O10_4 Co9 1_555 1_555
H3_4 O10_4 1_555 1_555
H4_4 O10_4 1_555 1_555
C2_4 P1_4 1_555 1_555
C3_4 P1_4 1_555 1_555
C4_4 C5_4 1_555 1_555
C5_4 C8_4 1_555 1_555
C9_4 C3_4 1_555 1_555
C11_4 C2_4 1_555 1_555
C14_4 C11_4 1_555 1_555
H5_4 C14_4 1_555 1_555
C15_4 C5_4 1_555 1_555
C17_4 C14_4 1_555 1_555
C20_4 C3_4 1_555 1_555
H6_4 C4_4 1_555 1_555
H11_4 C15_4 1_555 1_555
H13_4 C20_4 1_555 1_555
H14_4 C9_4 1_555 1_555
H15_4 C11_4 1_555 1_555
C4_4 C20_4 1_555 1_555
C9_4 C15_4 1_555 1_555

#END
