
###############################################################################
#
# This file contains modified crystal structure data generated from the
# MOF subset of the Cambridge Structural Database (CSD) v543 
# hosted by the Cambridge Crystallographic Data Centre (CCDC).
#
# This work is licensed under the Creative Commons
# Attribution-NonCommercial-ShareAlike 4.0 International License.
# To view a copy of this license, visit
# http://creativecommons.org/licenses/by-nc-sa/4.0/
# or send a letter to
# Creative Commons, PO Box 1866, Mountain View, CA 94042, USA.
#
# CIF created using the CSD Python API on 29 September 2022
# The structure has been converted into the P1 space group
# The structure has a 3D framework
# The original CSD entry PIDVOQ is in the monoclinic crystal system
# The framework has been calculated to contain at least 10.0% void space
# The void calculation uses a probe of radius 1.32A, grid spacing 0.4
#
###############################################################################

data_PIDVOQ
_chemical_formula_moiety         '(C80 H56 Cu4 N16 O16)n'
_symmetry_cell_setting           triclinic
_symmetry_space_group_name_H-M   'P 1'
_symmetry_Int_Tables_number      1
_space_group_name_Hall           'P 1'
loop_
_symmetry_equiv_pos_site_id
_symmetry_equiv_pos_as_xyz
1 x,y,z
_cell_length_a                   12.809(2)
_cell_length_b                   10.2279(18)
_cell_length_c                   21.515(4)
_cell_angle_alpha                90
_cell_angle_beta                 125.751(4)
_cell_angle_gamma                90
_cell_volume                     2287.52
loop_
_atom_site_label
_atom_site_type_symbol
_atom_site_fract_x
_atom_site_fract_y
_atom_site_fract_z
Cu1 Cu 0.41672(6) 0.00629(6) 0.16364(4)
N3 N 0.3964(4) 0.0192(4) 0.2482(2)
O2 O 0.2316(4) 0.0565(4) 0.0882(2)
O4 O 0.3476(4) 0.2373(4) 0.1204(2)
C2 C 0.1248(5) 0.2518(5) 0.0188(3)
C3 C 0.2432(6) 0.1790(6) 0.0807(3)
H2 H 0.218403 0.415176 0.025119
H10 H 0.300828 0.025793 0.424371
C17 C 0.3390(6) 0.1206(6) 0.2595(4)
H11 H 0.311690 0.198507 0.232056
C19 C 0.3283(7) 0.0905(6) 0.3160(4)
H13 H 0.292928 0.142706 0.334619
N5 N 0.6081(4) 0.0081(4) 0.2331(3)
N4 N 0.8076(5) 0.0595(5) 0.3274(3)
C6 C 0.9145(6) 0.1211(6) 0.3954(3)
C7 C 0.6831(6) 0.0698(6) 0.3001(3)
H1 H 0.653235 0.113905 0.324666
H5 H 0.992449 0.387469 0.491748
C12 C 0.8987(5) 0.2411(6) 0.4166(3)
H6 H 0.817605 0.279402 0.389785
C8 C 0.1382(6) 0.3749(6) 0.9976(3)
C11 C 0.0032(6) 0.1947(6) 0.9777(3)
C15 C 0.0327(6) 0.4386(6) 0.9354(4)
H9 H 0.042112 0.521059 0.920933
O1 O 0.4227(4) 0.5457(4) 0.5768(2)
N2 N 0.3798(5) 0.9669(4) 0.3414(3)
O3 O 0.3774(4) 0.7243(4) 0.6158(2)
C1 C 0.3936(5) 0.7458(5) 0.5111(3)
C4 C 0.3975(5) 0.6685(6) 0.5723(3)
C5 C 0.3844(6) 0.8914(5) 0.3992(3)
C9 C 0.4369(6) 0.7687(6) 0.4175(3)
H3 H 0.470604 0.734499 0.392693
C10 C 0.4213(6) 0.9294(6) 0.2983(3)
H4 H 0.461873 0.850342 0.303848
C13 C 0.4402(7) 0.6960(6) 0.4720(4)
H7 H 0.474336 0.611977 0.482847
C16 C 0.3369(7) 0.9426(6) 0.4365(4)
C20 C 0.3431(7) 0.8695(6) 0.4924(3)
H14 H 0.311912 0.905398 0.518254
Cu3 Cu 0.41672(6) 0.49371(6) 0.66364(4)
O5 O 0.4227(4) 0.9543(4) 0.0768(2)
O6 O 0.3774(4) 0.7757(4) 0.1158(2)
N1 N 0.6081(4) 0.4919(4) 0.7331(3)
N4_2 N 0.8076(5) 0.4405(5) 0.8274(3)
C6_2 C 0.9145(6) 0.3789(6) 0.8954(3)
C7_2 C 0.6831(6) 0.4302(6) 0.8001(3)
H1_2 H 0.653235 0.386095 0.824666
H5_2 H 0.992449 0.112531 0.991748
C12_2 C 0.8987(5) 0.2589(6) 0.9166(3)
H6_2 H 0.817605 0.220598 0.889785
C14 C 0.6909(6) 0.5407(7) 0.7182(4)
H8 H 0.665676 0.588235 0.674670
C18 C 0.8135(7) 0.5106(6) 0.7748(4)
H12 H 0.886790 0.532612 0.777823
C1_2 C 0.3936(5) 0.7542(5) 0.0111(3)
C4_2 C 0.3975(5) 0.8315(6) 0.0723(3)
H14_2 H 0.311912 0.594602 0.018254
N2_2 N 0.3798(5) 0.5331(4) 0.8414(3)
N3_2 N 0.3964(4) 0.4808(4) 0.7482(2)
O2_2 O 0.2316(4) 0.4435(4) 0.5882(2)
O4_2 O 0.3476(4) 0.2627(4) 0.6204(2)
C2_2 C 0.1248(5) 0.2482(5) 0.5188(3)
C3_2 C 0.2432(6) 0.3210(6) 0.5807(3)
C5_2 C 0.3844(6) 0.6086(5) 0.8992(3)
C8_2 C 0.1382(6) 0.1251(6) 0.4976(3)
H2_2 H 0.218403 0.084824 0.525119
C9_2 C 0.4369(6) 0.7313(6) 0.9175(3)
H3_2 H 0.470604 0.765501 0.892693
C10_2 C 0.4213(6) 0.5706(6) 0.7983(3)
H4_2 H 0.461873 0.649658 0.803848
C11_2 C 0.0032(6) 0.3053(6) 0.4777(3)
C13_2 C 0.4402(7) 0.8040(6) 0.9720(4)
H7_2 H 0.474336 0.888023 0.982847
C15_2 C 0.0327(6) 0.0614(6) 0.4354(4)
C16_2 C 0.3369(7) 0.5574(6) 0.9365(4)
H10_2 H 0.300828 0.474207 0.924371
C17_2 C 0.3390(6) 0.3794(6) 0.7595(4)
H11_2 H 0.311690 0.301493 0.732056
C19_2 C 0.3283(7) 0.4095(6) 0.8160(4)
H13_2 H 0.292928 0.357294 0.834619
C20_2 C 0.3431(7) 0.6305(6) 0.9924(3)
C14_2 C 0.3091(6) 0.0407(7) 0.7818(4)
H8_2 H 0.334324 0.088235 0.825330
C18_2 C 0.1865(7) 0.0106(6) 0.7252(4)
H12_2 H 0.113210 0.032612 0.722177
N1_2 N 0.3919(4) 0.9919(4) 0.7669(3)
N4_3 N 0.1924(5) 0.9405(5) 0.6726(3)
C6_3 C 0.0855(6) 0.8789(6) 0.6046(3)
C7_3 C 0.3169(6) 0.9302(6) 0.6999(3)
H1_3 H 0.346765 0.886095 0.675334
H5_3 H 0.007551 0.612531 0.508252
C12_3 C 0.1013(5) 0.7589(6) 0.5834(3)
H6_3 H 0.182395 0.720598 0.610215
Cu2 Cu 0.58328(6) 0.99371(6) 0.83636(4)
N3_3 N 0.6036(4) 0.9808(4) 0.7518(2)
O2_3 O 0.7684(4) 0.9435(4) 0.9118(2)
O4_3 O 0.6524(4) 0.7627(4) 0.8796(2)
C2_3 C 0.8752(5) 0.7482(5) 0.9812(3)
C3_3 C 0.7568(6) 0.8210(6) 0.9193(3)
H2_3 H 0.781597 0.584824 0.974881
H10_3 H 0.699172 0.974207 0.575629
C17_3 C 0.6610(6) 0.8794(6) 0.7405(4)
H11_3 H 0.688310 0.801493 0.767944
C19_3 C 0.6717(7) 0.9095(6) 0.6840(4)
H13_3 H 0.707072 0.857294 0.665381
H9_2 H 0.957888 0.021059 0.579067
Cu1_2 Cu 0.58328(6) 0.50629(6) 0.33636(4)
N2_3 N 0.6202(5) 0.4669(4) 0.1586(3)
N3_4 N 0.6036(4) 0.5192(4) 0.2518(2)
O2_4 O 0.7684(4) 0.5565(4) 0.4118(2)
O4_4 O 0.6524(4) 0.7373(4) 0.3796(2)
C2_4 C 0.8752(5) 0.7518(5) 0.4812(3)
C3_4 C 0.7568(6) 0.6790(6) 0.4193(3)
C5_3 C 0.6156(6) 0.3914(5) 0.1008(3)
C8_3 C 0.8618(6) 0.8749(6) 0.5024(3)
H2_4 H 0.781597 0.915176 0.474881
C9_3 C 0.5631(6) 0.2687(6) 0.0825(3)
H3_3 H 0.529396 0.234499 0.107307
C10_3 C 0.5787(6) 0.4294(6) 0.2017(3)
H4_3 H 0.538127 0.350342 0.196152
C11_3 C 0.9968(6) 0.6947(6) 0.5223(3)
C13_3 C 0.5598(7) 0.1960(6) 0.0280(4)
H7_3 H 0.525664 0.111977 0.017153
C15_3 C 0.9673(6) 0.9386(6) 0.5646(4)
C16_3 C 0.6631(7) 0.4426(6) 0.0635(4)
H10_4 H 0.699172 0.525793 0.075629
C17_4 C 0.6610(6) 0.6206(6) 0.2405(4)
H11_4 H 0.688310 0.698507 0.267944
C19_4 C 0.6717(7) 0.5905(6) 0.1840(4)
H13_4 H 0.707072 0.642706 0.165381
C20_3 C 0.6569(7) 0.3695(6) 0.0076(3)
O5_2 O 0.5773(4) 0.4543(4) 0.4232(2)
N5_2 N 0.3919(4) 0.5081(4) 0.2669(3)
O6_2 O 0.6226(4) 0.2757(4) 0.3842(2)
O1_2 O 0.5773(4) 0.0457(4) 0.9232(2)
O3_2 O 0.6226(4) 0.2243(4) 0.8842(2)
C1_3 C 0.6064(5) 0.2458(5) 0.9889(3)
C4_3 C 0.6025(5) 0.1685(6) 0.9277(3)
H14_3 H 0.688088 0.405398 0.981746
N4_4 N 0.1924(5) 0.5595(5) 0.1726(3)
C6_4 C 0.0855(6) 0.6211(6) 0.1046(3)
C7_4 C 0.3169(6) 0.5698(6) 0.1999(3)
H1_4 H 0.346765 0.613905 0.175334
H5_4 H 0.007551 0.887469 0.008252
C12_4 C 0.1013(5) 0.7411(6) 0.0834(3)
H6_4 H 0.182395 0.779402 0.110215
C14_3 C 0.3091(6) 0.4593(7) 0.2818(4)
H8_3 H 0.334324 0.411765 0.325330
C18_3 C 0.1865(7) 0.4894(6) 0.2252(4)
H12_3 H 0.113210 0.467388 0.222177
N2_4 N 0.6202(5) 0.0331(4) 0.6586(3)
C1_4 C 0.6064(5) 0.2542(5) 0.4889(3)
C4_4 C 0.6025(5) 0.3315(6) 0.4277(3)
C5_4 C 0.6156(6) 0.1086(5) 0.6008(3)
C9_4 C 0.5631(6) 0.2313(6) 0.5825(3)
H3_4 H 0.529396 0.265501 0.607307
C10_4 C 0.5787(6) 0.0706(6) 0.7017(3)
H4_4 H 0.538127 0.149658 0.696152
C13_4 C 0.5598(7) 0.3040(6) 0.5280(4)
H7_4 H 0.525664 0.388023 0.517153
C16_4 C 0.6631(7) 0.0574(6) 0.5635(4)
C20_4 C 0.6569(7) 0.1305(6) 0.5076(3)
H14_4 H 0.688088 0.094602 0.481746
C8_4 C 0.8618(6) 0.6251(6) 0.0024(3)
C11_4 C 0.9968(6) 0.8053(6) 0.0223(3)
C15_4 C 0.9673(6) 0.5614(6) 0.0646(4)
H9_3 H 0.957888 0.478941 0.079067
H9_4 H 0.042112 0.978941 0.420933
C14_4 C 0.6909(6) 0.9593(7) 0.2182(4)
H8_4 H 0.665676 0.911765 0.174670
C18_4 C 0.8135(7) 0.9894(6) 0.2748(4)
H12_4 H 0.886790 0.967388 0.277823
loop_
_geom_bond_atom_site_label_1
_geom_bond_atom_site_label_2
_geom_bond_site_symmetry_1
_geom_bond_site_symmetry_2
Cu1 N3 1_555 1_555
O2 Cu1 1_555 1_555
O4 Cu1 1_555 1_555
C2 C3 1_555 1_555
C3 O2 1_555 1_555
C17 N3 1_555 1_555
H11 C17 1_555 1_555
H13 C19 1_555 1_555
N5 Cu1 1_555 1_555
O4 C3 1_555 1_555
C17 C19 1_555 1_555
N5 C7 1_555 1_555
N4 C6 1_555 1_555
C6 C12 1_555 1_555
C7 N4 1_555 1_555
H1 C7 1_555 1_555
H6 C12 1_555 1_555
H9 C15 1_555 1_555
C8 C15 1_555 1_555
O1 C4 1_555 1_555
N2 C5 1_555 1_555
O3 C4 1_555 1_555
C1 C4 1_555 1_555
C5 C9 1_555 1_555
C9 H3 1_555 1_555
C10 N2 1_555 1_555
H4 C10 1_555 1_555
C13 C1 1_555 1_555
H7 C13 1_555 1_555
C16 C5 1_555 1_555
C20 C1 1_555 1_555
H14 C20 1_555 1_555
Cu3 O1 1_555 1_555
O3 Cu3 1_555 1_555
C9 C13 1_555 1_555
C16 C20 1_555 1_555
N1 C7_2 1_555 1_555
N4_2 C6_2 1_555 1_555
C6_2 C12_2 1_555 1_555
C7_2 N4_2 1_555 1_555
H1_2 C7_2 1_555 1_555
H6_2 C12_2 1_555 1_555
C14 N1 1_555 1_555
H8 C14 1_555 1_555
C18 N4_2 1_555 1_555
H12 C18 1_555 1_555
Cu3 N1 1_555 1_555
C14 C18 1_555 1_555
O5 C4_2 1_555 1_555
O6 C4_2 1_555 1_555
C1_2 C4_2 1_555 1_555
Cu3 N3_2 1_555 1_555
N2_2 C5_2 1_555 1_555
N3_2 C10_2 1_555 1_555
O2_2 Cu3 1_555 1_555
O4_2 Cu3 1_555 1_555
C2_2 C3_2 1_555 1_555
C3_2 O2_2 1_555 1_555
C5_2 C9_2 1_555 1_555
C8_2 C2_2 1_555 1_555
H2_2 C8_2 1_555 1_555
C9_2 H3_2 1_555 1_555
C10_2 N2_2 1_555 1_555
H4_2 C10_2 1_555 1_555
C11_2 C2_2 1_555 1_555
H7_2 C13_2 1_555 1_555
C16_2 C5_2 1_555 1_555
H10_2 C16_2 1_555 1_555
C17_2 N3_2 1_555 1_555
H11_2 C17_2 1_555 1_555
C19_2 N2_2 1_555 1_555
H13_2 C19_2 1_555 1_555
O4_2 C3_2 1_555 1_555
C8_2 C15_2 1_555 1_555
C9_2 C13_2 1_555 1_555
C16_2 C20_2 1_555 1_555
C17_2 C19_2 1_555 1_555
H8_2 C14_2 1_555 1_555
H12_2 C18_2 1_555 1_555
C14_2 C18_2 1_555 1_555
N1_2 C7_3 1_555 1_555
N4_3 C6_3 1_555 1_555
C6_3 C12_3 1_555 1_555
C7_3 N4_3 1_555 1_555
H1_3 C7_3 1_555 1_555
H6_3 C12_3 1_555 1_555
Cu2 N1_2 1_555 1_555
Cu2 N3_3 1_555 1_555
O2_3 Cu2 1_555 1_555
O4_3 Cu2 1_555 1_555
C2_3 C3_3 1_555 1_555
C3_3 O2_3 1_555 1_555
C17_3 N3_3 1_555 1_555
H11_3 C17_3 1_555 1_555
H13_3 C19_3 1_555 1_555
O4_3 C3_3 1_555 1_555
C17_3 C19_3 1_555 1_555
Cu1_2 N3_4 1_555 1_555
N2_3 C5_3 1_555 1_555
N3_4 C10_3 1_555 1_555
O2_4 Cu1_2 1_555 1_555
O4_4 Cu1_2 1_555 1_555
C2_4 C3_4 1_555 1_555
C3_4 O2_4 1_555 1_555
C5_3 C9_3 1_555 1_555
C8_3 C2_4 1_555 1_555
H2_4 C8_3 1_555 1_555
C9_3 H3_3 1_555 1_555
C10_3 N2_3 1_555 1_555
H4_3 C10_3 1_555 1_555
C11_3 C2_4 1_555 1_555
H7_3 C13_3 1_555 1_555
C16_3 C5_3 1_555 1_555
H10_4 C16_3 1_555 1_555
C17_4 N3_4 1_555 1_555
H11_4 C17_4 1_555 1_555
C19_4 N2_3 1_555 1_555
H13_4 C19_4 1_555 1_555
O5_2 Cu1_2 1_555 1_555
N5_2 Cu1_2 1_555 1_555
O6_2 Cu1_2 1_555 1_555
O4_4 C3_4 1_555 1_555
C8_3 C15_3 1_555 1_555
C9_3 C13_3 1_555 1_555
C16_3 C20_3 1_555 1_555
C17_4 C19_4 1_555 1_555
O1_2 C4_3 1_555 1_555
O3_2 C4_3 1_555 1_555
C1_3 C4_3 1_555 1_555
N5_2 C7_4 1_555 1_555
N4_4 C6_4 1_555 1_555
C6_4 C12_4 1_555 1_555
C7_4 N4_4 1_555 1_555
H1_4 C7_4 1_555 1_555
H6_4 C12_4 1_555 1_555
C14_3 N5_2 1_555 1_555
H8_3 C14_3 1_555 1_555
C18_3 N4_4 1_555 1_555
H12_3 C18_3 1_555 1_555
C14_3 C18_3 1_555 1_555
O5_2 C4_4 1_555 1_555
N2_4 C5_4 1_555 1_555
O6_2 C4_4 1_555 1_555
C1_4 C4_4 1_555 1_555
C5_4 C9_4 1_555 1_555
C9_4 H3_4 1_555 1_555
C10_4 N2_4 1_555 1_555
H4_4 C10_4 1_555 1_555
C13_4 C1_4 1_555 1_555
H7_4 C13_4 1_555 1_555
C16_4 C5_4 1_555 1_555
C20_4 C1_4 1_555 1_555
H14_4 C20_4 1_555 1_555
C9_4 C13_4 1_555 1_555
C16_4 C20_4 1_555 1_555
H9_3 C15_4 1_555 1_555
C8_4 C15_4 1_555 1_555
H8_4 C14_4 1_555 1_555
H12_4 C18_4 1_555 1_555
C14_4 C18_4 1_555 1_555

#END
