
###############################################################################
#
# This file contains modified crystal structure data generated from the
# MOF subset of the Cambridge Structural Database (CSD) v543 
# hosted by the Cambridge Crystallographic Data Centre (CCDC).
#
# This work is licensed under the Creative Commons
# Attribution-NonCommercial-ShareAlike 4.0 International License.
# To view a copy of this license, visit
# http://creativecommons.org/licenses/by-nc-sa/4.0/
# or send a letter to
# Creative Commons, PO Box 1866, Mountain View, CA 94042, USA.
#
# CIF created using the CSD Python API on 29 September 2022
# The structure has been converted into the P1 space group
# The structure has a 3D framework
# The original CSD entry PIHJOH01 is in the monoclinic crystal system
# The framework has been calculated to contain at least 10.0% void space
# The void calculation uses a probe of radius 1.32A, grid spacing 0.4
#
###############################################################################

data_PIHJOH01
_chemical_formula_moiety         '(C96 H64 Mn6 N8 O12)n'
_symmetry_cell_setting           triclinic
_symmetry_space_group_name_H-M   'P 1'
_symmetry_Int_Tables_number      1
_space_group_name_Hall           'P 1'
loop_
_symmetry_equiv_pos_site_id
_symmetry_equiv_pos_as_xyz
1 x,y,z
_cell_length_a                   8.5415(10)
_cell_length_b                   14.5539(17)
_cell_length_c                   18.608(2)
_cell_angle_alpha                90
_cell_angle_beta                 98.551(2)
_cell_angle_gamma                90
_cell_volume                     2287.49
loop_
_atom_site_label
_atom_site_type_symbol
_atom_site_fract_x
_atom_site_fract_y
_atom_site_fract_z
O3 O 0.16461(15) 0.52418(9) 0.06561(7)
C13 C 0.0830(2) 0.56616(13) 0.10569(10)
C14 C 0.1542(2) 0.58235(13) 0.18422(10)
C15 C 0.0708(2) 0.63187(13) 0.22992(10)
C16 C 0.1354(2) 0.64934(13) 0.30214(10)
C17 C 0.2869(2) 0.61557(15) 0.32767(10)
H10 H 0.3333 0.6272 0.3764
C18 C 0.3696(3) 0.56541(16) 0.28261(11)
H11 H 0.4718 0.5423 0.3008
C19 C 0.3040(2) 0.54851(14) 0.21068(11)
H12 H 0.3614 0.5141 0.1799
C22 C 0.0453(2) 0.70333(13) 0.34972(10)
C23 C 0.1217(2) 0.76575(13) 0.40013(10)
H15 H 0.2337 0.7714 0.4064
C24 C 0.0345(2) 0.81928(14) 0.44093(10)
H16 H 0.0890 0.8626 0.4737
Mn3 Mn 0.2500 0.41944(3) 0.0000
Mn3_2 Mn 0.2500 0.41944(3) 1.0000
O5 O 0.83539(15) 0.02418(9) 0.43439(7)
O6 O 0.66461(15) 0.02418(9) 0.56561(7)
Mn5 Mn 0.7500 0.58056(3) -0.0000
Mn1 Mn 0.7500 0.91944(3) 0.5000
N1 N 0.62457(18) 0.81319(11) 0.56339(8)
O1 O 0.33539(15) 0.52418(9) 0.93439(7)
O2 O 0.55338(15) 0.59860(9) 0.91396(7)
C1 C 0.4170(2) 0.56616(13) 0.89431(10)
C2 C 0.3458(2) 0.58235(13) 0.81578(10)
C3 C 0.4292(2) 0.63187(13) 0.77008(10)
H1 H 0.5320 0.6543 0.7882
C4 C 0.3646(2) 0.64934(13) 0.69786(10)
C5 C 0.2131(2) 0.61557(15) 0.67233(10)
H2 H 0.1667 0.6272 0.6236
C6 C 0.1304(3) 0.56541(16) 0.71739(11)
H3 H 0.0282 0.5423 0.6992
C7 C 0.1960(2) 0.54851(14) 0.78932(11)
H4 H 0.1386 0.5141 0.8201
C8 C 0.6974(2) 0.75166(14) 0.61072(10)
H5 H 0.8090 0.7455 0.6142
C9 C 0.6193(2) 0.69673(14) 0.65469(10)
H6 H 0.6771 0.6548 0.6877
C10 C 0.4547(2) 0.70333(13) 0.65028(10)
C11 C 0.3783(2) 0.76575(13) 0.59987(10)
H7 H 0.2663 0.7714 0.5936
C12 C 0.4655(2) 0.81928(14) 0.55907(10)
H8 H 0.4110 0.8626 0.5263
N2 N 0.87543(18) 0.81319(11) 0.43661(8)
O4 O 0.94662(15) 0.59860(9) 0.08604(7)
H9 H 0.9680 0.6543 0.2118
C20 C 0.8026(2) 0.75166(14) 0.38928(10)
H13 H 0.6910 0.7455 0.3858
C21 C 0.8807(2) 0.69673(14) 0.34531(10)
H14 H 0.8229 0.6548 0.3123
Mn5_2 Mn 0.7500 0.58056(3) 1.0000
O7 O 0.94662(15) 0.90140(9) 0.58604(7)
O8 O 0.55338(15) 0.90140(9) 0.41396(7)
N1_2 N 0.12457(18) 0.31319(11) 0.06339(8)
O2_2 O 0.05338(15) 0.09860(9) 0.41396(7)
H1_2 H 0.0320 0.1543 0.2882
C8_2 C 0.1974(2) 0.25166(14) 0.11072(10)
H5_2 H 0.3090 0.2455 0.1142
C9_2 C 0.1193(2) 0.19673(14) 0.15469(10)
H6_2 H 0.1771 0.1548 0.1877
Mn5_3 Mn 0.2500 0.08056(3) 0.5000
O7_2 O 0.44662(15) 0.40140(9) 0.08604(7)
N2_2 N 0.37543(18) 0.31319(11) 0.93661(8)
O4_2 O 0.44662(15) 0.09860(9) 0.58604(7)
C13_2 C 0.5830(2) 0.06616(13) 0.60569(10)
C14_2 C 0.6542(2) 0.08235(13) 0.68422(10)
C15_2 C 0.5708(2) 0.13187(13) 0.72992(10)
H9_2 H 0.4680 0.1543 0.7118
C16_2 C 0.6354(2) 0.14934(13) 0.80214(10)
C17_2 C 0.7869(2) 0.11557(15) 0.82767(10)
H10_2 H 0.8333 0.1272 0.8764
C18_2 C 0.8696(3) 0.06541(16) 0.78261(11)
H11_2 H 0.9718 0.0423 0.8008
C19_2 C 0.8040(2) 0.04851(14) 0.71068(11)
H12_2 H 0.8614 0.0141 0.6799
C20_2 C 0.3026(2) 0.25166(14) 0.88928(10)
H13_2 H 0.1910 0.2455 0.8858
C21_2 C 0.3807(2) 0.19673(14) 0.84531(10)
H14_2 H 0.3229 0.1548 0.8123
C22_2 C 0.5453(2) 0.20333(13) 0.84972(10)
C23_2 C 0.6217(2) 0.26575(13) 0.90013(10)
H15_2 H 0.7337 0.2714 0.9064
C24_2 C 0.5345(2) 0.31928(14) 0.94093(10)
H16_2 H 0.5890 0.3626 0.9737
O8_2 O 0.05338(15) 0.40140(9) 0.91396(7)
C1_2 C 0.9170(2) 0.06616(13) 0.39431(10)
C2_2 C 0.8458(2) 0.08235(13) 0.31578(10)
C3_2 C 0.9292(2) 0.13187(13) 0.27008(10)
C4_2 C 0.8646(2) 0.14934(13) 0.19786(10)
C5_2 C 0.7131(2) 0.11557(15) 0.17233(10)
H2_2 H 0.6667 0.1272 0.1236
C6_2 C 0.6304(3) 0.06541(16) 0.21739(11)
H3_2 H 0.5282 0.0423 0.1992
C7_2 C 0.6960(2) 0.04851(14) 0.28932(11)
H4_2 H 0.6386 0.0141 0.3201
C10_2 C 0.9547(2) 0.20333(13) 0.15028(10)
C11_2 C 0.8783(2) 0.26575(13) 0.09987(10)
H7_2 H 0.7663 0.2714 0.0936
C12_2 C 0.9655(2) 0.31928(14) 0.05907(10)
H8_2 H 0.9110 0.3626 0.0263
N1_3 N 0.37543(18) 0.18681(11) 0.43661(8)
O1_2 O 0.66461(15) 0.47582(9) 0.06561(7)
C1_3 C 0.5830(2) 0.43384(13) 0.10569(10)
C2_3 C 0.6542(2) 0.41765(13) 0.18422(10)
C3_3 C 0.5708(2) 0.36813(13) 0.22992(10)
H1_3 H 0.4680 0.3457 0.2118
C4_3 C 0.6354(2) 0.35066(13) 0.30214(10)
C5_3 C 0.7869(2) 0.38443(15) 0.32767(10)
H2_3 H 0.8333 0.3728 0.3764
C6_3 C 0.8696(3) 0.43459(16) 0.28261(11)
H3_3 H 0.9718 0.4577 0.3008
C7_3 C 0.8040(2) 0.45149(14) 0.21068(11)
H4_3 H 0.8614 0.4859 0.1799
C8_3 C 0.3026(2) 0.24834(14) 0.38928(10)
H5_3 H 0.1910 0.2545 0.3858
C9_3 C 0.3807(2) 0.30327(14) 0.34531(10)
H6_3 H 0.3229 0.3452 0.3123
C10_3 C 0.5453(2) 0.29667(13) 0.34972(10)
C11_3 C 0.6217(2) 0.23425(13) 0.40013(10)
H7_3 H 0.7337 0.2286 0.4064
C12_3 C 0.5345(2) 0.18072(14) 0.44093(10)
H8_3 H 0.5890 0.1374 0.4737
N2_3 N 0.12457(18) 0.18681(11) 0.56339(8)
H9_3 H 0.0320 0.3457 0.7882
C20_3 C 0.1974(2) 0.24834(14) 0.61072(10)
H13_3 H 0.3090 0.2545 0.6142
C21_3 C 0.1193(2) 0.30327(14) 0.65469(10)
H14_3 H 0.1771 0.3452 0.6877
O5_2 O 0.16461(15) 0.97582(9) 0.56561(7)
O6_2 O 0.33539(15) 0.97582(9) 0.43439(7)
O3_2 O 0.83539(15) 0.47582(9) 0.93439(7)
C13_3 C 0.9170(2) 0.43384(13) 0.89431(10)
C14_3 C 0.8458(2) 0.41765(13) 0.81578(10)
C15_3 C 0.9292(2) 0.36813(13) 0.77008(10)
C16_3 C 0.8646(2) 0.35066(13) 0.69786(10)
C17_3 C 0.7131(2) 0.38443(15) 0.67233(10)
H10_3 H 0.6667 0.3728 0.6236
C18_3 C 0.6304(3) 0.43459(16) 0.71739(11)
H11_3 H 0.5282 0.4577 0.6992
C19_3 C 0.6960(2) 0.45149(14) 0.78932(11)
H12_3 H 0.6386 0.4859 0.8201
C22_3 C 0.9547(2) 0.29667(13) 0.65028(10)
C23_3 C 0.8783(2) 0.23425(13) 0.59987(10)
H15_3 H 0.7663 0.2286 0.5936
C24_3 C 0.9655(2) 0.18072(14) 0.55907(10)
H16_3 H 0.9110 0.1374 0.5263
C1_4 C 0.0830(2) 0.93384(13) 0.60569(10)
C2_4 C 0.1542(2) 0.91765(13) 0.68422(10)
C3_4 C 0.0708(2) 0.86813(13) 0.72992(10)
C4_4 C 0.1354(2) 0.85066(13) 0.80214(10)
C5_4 C 0.2869(2) 0.88443(15) 0.82767(10)
H2_4 H 0.3333 0.8728 0.8764
C6_4 C 0.3696(3) 0.93459(16) 0.78261(11)
H3_4 H 0.4718 0.9577 0.8008
C7_4 C 0.3040(2) 0.95149(14) 0.71068(11)
H4_4 H 0.3614 0.9859 0.6799
C10_4 C 0.0453(2) 0.79667(13) 0.84972(10)
C11_4 C 0.1217(2) 0.73425(13) 0.90013(10)
H7_4 H 0.2337 0.7286 0.9064
C12_4 C 0.0345(2) 0.68072(14) 0.94093(10)
H8_4 H 0.0890 0.6374 0.9737
N2_4 N 0.62457(18) 0.68681(11) 0.06339(8)
C13_4 C 0.4170(2) 0.93384(13) 0.39431(10)
C14_4 C 0.3458(2) 0.91765(13) 0.31578(10)
C15_4 C 0.4292(2) 0.86813(13) 0.27008(10)
H9_4 H 0.5320 0.8457 0.2882
C16_4 C 0.3646(2) 0.85066(13) 0.19786(10)
C17_4 C 0.2131(2) 0.88443(15) 0.17233(10)
H10_4 H 0.1667 0.8728 0.1236
C18_4 C 0.1304(3) 0.93459(16) 0.21739(11)
H11_4 H 0.0282 0.9577 0.1992
C19_4 C 0.1960(2) 0.95149(14) 0.28932(11)
H12_4 H 0.1386 0.9859 0.3201
C20_4 C 0.6974(2) 0.74834(14) 0.11072(10)
H13_4 H 0.8090 0.7545 0.1142
C21_4 C 0.6193(2) 0.80327(14) 0.15469(10)
H14_4 H 0.6771 0.8452 0.1877
C22_4 C 0.4547(2) 0.79667(13) 0.15028(10)
C23_4 C 0.3783(2) 0.73425(13) 0.09987(10)
H15_4 H 0.2663 0.7286 0.0936
C24_4 C 0.4655(2) 0.68072(14) 0.05907(10)
H16_4 H 0.4110 0.6374 0.0263
N1_4 N 0.87543(18) 0.68681(11) 0.93661(8)
H1_4 H 0.9680 0.8457 0.7118
C8_4 C 0.8026(2) 0.74834(14) 0.88928(10)
H5_4 H 0.6910 0.7545 0.8858
C9_4 C 0.8807(2) 0.80327(14) 0.84531(10)
H6_4 H 0.8229 0.8452 0.8123
loop_
_geom_bond_atom_site_label_1
_geom_bond_atom_site_label_2
_geom_bond_site_symmetry_1
_geom_bond_site_symmetry_2
O3 C13 1_555 1_555
C13 C14 1_555 1_555
C14 C15 1_555 1_555
C16 C15 1_555 1_555
C17 C16 1_555 1_555
H10 C17 1_555 1_555
C18 C17 1_555 1_555
H11 C18 1_555 1_555
C19 C14 1_555 1_555
H12 C19 1_555 1_555
C22 C16 1_555 1_555
C23 C22 1_555 1_555
H15 C23 1_555 1_555
H16 C24 1_555 1_555
Mn3 O3 1_555 1_555
C18 C19 1_555 1_555
C23 C24 1_555 1_555
Mn1 N1 1_555 1_555
N1 C8 1_555 1_555
O1 C1 1_555 1_555
O2 C1 1_555 1_555
C1 C2 1_555 1_555
C2 C3 1_555 1_555
C3 H1 1_555 1_555
C4 C3 1_555 1_555
C5 C4 1_555 1_555
H2 C5 1_555 1_555
C6 C5 1_555 1_555
H3 C6 1_555 1_555
C7 C2 1_555 1_555
H4 C7 1_555 1_555
C8 H5 1_555 1_555
C9 C8 1_555 1_555
H6 C9 1_555 1_555
C10 C4 1_555 1_555
C11 C10 1_555 1_555
H7 C11 1_555 1_555
C12 N1 1_555 1_555
H8 C12 1_555 1_555
N2 Mn1 1_555 1_555
C20 N2 1_555 1_555
H13 C20 1_555 1_555
C21 C20 1_555 1_555
H14 C21 1_555 1_555
Mn3_2 O1 1_555 1_555
Mn5 O4 1_555 1_555
Mn5_2 O2 1_555 1_555
O7 Mn1 1_555 1_555
O8 Mn1 1_555 1_555
C6 C7 1_555 1_555
C9 C10 1_555 1_555
C11 C12 1_555 1_555
Mn3 N1_2 1_555 1_555
N1_2 C8_2 1_555 1_555
C8_2 H5_2 1_555 1_555
C9_2 C8_2 1_555 1_555
H6_2 C9_2 1_555 1_555
Mn5_3 O2_2 1_555 1_555
O7_2 Mn3 1_555 1_555
N2_2 Mn3_2 1_555 1_555
O6 C13_2 1_555 1_555
O4_2 C13_2 1_555 1_555
C13_2 C14_2 1_555 1_555
C14_2 C15_2 1_555 1_555
C15_2 H9_2 1_555 1_555
C16_2 C15_2 1_555 1_555
C17_2 C16_2 1_555 1_555
H10_2 C17_2 1_555 1_555
C18_2 C17_2 1_555 1_555
H11_2 C18_2 1_555 1_555
C19_2 C14_2 1_555 1_555
H12_2 C19_2 1_555 1_555
C20_2 N2_2 1_555 1_555
H13_2 C20_2 1_555 1_555
C21_2 C20_2 1_555 1_555
H14_2 C21_2 1_555 1_555
C22_2 C16_2 1_555 1_555
C23_2 C22_2 1_555 1_555
H15_2 C23_2 1_555 1_555
C24_2 N2_2 1_555 1_555
H16_2 C24_2 1_555 1_555
Mn5_3 O4_2 1_555 1_555
O8_2 Mn3_2 1_555 1_555
C18_2 C19_2 1_555 1_555
C21_2 C22_2 1_555 1_555
C23_2 C24_2 1_555 1_555
O5 C1_2 1_555 1_555
C1_2 C2_2 1_555 1_555
C2_2 C3_2 1_555 1_555
C4_2 C3_2 1_555 1_555
C5_2 C4_2 1_555 1_555
H2_2 C5_2 1_555 1_555
C6_2 C5_2 1_555 1_555
H3_2 C6_2 1_555 1_555
C7_2 C2_2 1_555 1_555
H4_2 C7_2 1_555 1_555
C10_2 C4_2 1_555 1_555
C11_2 C10_2 1_555 1_555
H7_2 C11_2 1_555 1_555
H8_2 C12_2 1_555 1_555
C6_2 C7_2 1_555 1_555
C11_2 C12_2 1_555 1_555
Mn5_3 N1_3 1_555 1_555
N1_3 C8_3 1_555 1_555
O1_2 C1_3 1_555 1_555
O7_2 C1_3 1_555 1_555
C1_3 C2_3 1_555 1_555
C2_3 C3_3 1_555 1_555
C3_3 H1_3 1_555 1_555
C4_3 C3_3 1_555 1_555
C5_3 C4_3 1_555 1_555
H2_3 C5_3 1_555 1_555
C6_3 C5_3 1_555 1_555
H3_3 C6_3 1_555 1_555
C7_3 C2_3 1_555 1_555
H4_3 C7_3 1_555 1_555
C8_3 H5_3 1_555 1_555
C9_3 C8_3 1_555 1_555
H6_3 C9_3 1_555 1_555
C10_3 C4_3 1_555 1_555
C11_3 C10_3 1_555 1_555
H7_3 C11_3 1_555 1_555
C12_3 N1_3 1_555 1_555
H8_3 C12_3 1_555 1_555
N2_3 Mn5_3 1_555 1_555
C20_3 N2_3 1_555 1_555
H13_3 C20_3 1_555 1_555
C21_3 C20_3 1_555 1_555
H14_3 C21_3 1_555 1_555
Mn5 O1_2 1_555 1_555
C6_3 C7_3 1_555 1_555
C9_3 C10_3 1_555 1_555
C11_3 C12_3 1_555 1_555
O3_2 C13_3 1_555 1_555
C13_3 C14_3 1_555 1_555
C14_3 C15_3 1_555 1_555
C16_3 C15_3 1_555 1_555
C17_3 C16_3 1_555 1_555
H10_3 C17_3 1_555 1_555
C18_3 C17_3 1_555 1_555
H11_3 C18_3 1_555 1_555
C19_3 C14_3 1_555 1_555
H12_3 C19_3 1_555 1_555
C22_3 C16_3 1_555 1_555
C23_3 C22_3 1_555 1_555
H15_3 C23_3 1_555 1_555
H16_3 C24_3 1_555 1_555
Mn5_2 O3_2 1_555 1_555
C18_3 C19_3 1_555 1_555
C23_3 C24_3 1_555 1_555
O5_2 C1_4 1_555 1_555
C1_4 C2_4 1_555 1_555
C2_4 C3_4 1_555 1_555
C4_4 C3_4 1_555 1_555
C5_4 C4_4 1_555 1_555
H2_4 C5_4 1_555 1_555
C6_4 C5_4 1_555 1_555
H3_4 C6_4 1_555 1_555
C7_4 C2_4 1_555 1_555
H4_4 C7_4 1_555 1_555
C10_4 C4_4 1_555 1_555
C11_4 C10_4 1_555 1_555
H7_4 C11_4 1_555 1_555
H8_4 C12_4 1_555 1_555
C6_4 C7_4 1_555 1_555
C11_4 C12_4 1_555 1_555
N2_4 Mn5 1_555 1_555
O6_2 C13_4 1_555 1_555
O8 C13_4 1_555 1_555
C13_4 C14_4 1_555 1_555
C14_4 C15_4 1_555 1_555
C15_4 H9_4 1_555 1_555
C16_4 C15_4 1_555 1_555
C17_4 C16_4 1_555 1_555
H10_4 C17_4 1_555 1_555
C18_4 C17_4 1_555 1_555
H11_4 C18_4 1_555 1_555
C19_4 C14_4 1_555 1_555
H12_4 C19_4 1_555 1_555
C20_4 N2_4 1_555 1_555
H13_4 C20_4 1_555 1_555
C21_4 C20_4 1_555 1_555
H14_4 C21_4 1_555 1_555
C22_4 C16_4 1_555 1_555
C23_4 C22_4 1_555 1_555
H15_4 C23_4 1_555 1_555
C24_4 N2_4 1_555 1_555
H16_4 C24_4 1_555 1_555
C18_4 C19_4 1_555 1_555
C21_4 C22_4 1_555 1_555
C23_4 C24_4 1_555 1_555
Mn5_2 N1_4 1_555 1_555
N1_4 C8_4 1_555 1_555
C8_4 H5_4 1_555 1_555
C9_4 C8_4 1_555 1_555
H6_4 C9_4 1_555 1_555

#END
