
###############################################################################
#
# This file contains modified crystal structure data generated from the
# MOF subset of the Cambridge Structural Database (CSD) v543 
# hosted by the Cambridge Crystallographic Data Centre (CCDC).
#
# This work is licensed under the Creative Commons
# Attribution-NonCommercial-ShareAlike 4.0 International License.
# To view a copy of this license, visit
# http://creativecommons.org/licenses/by-nc-sa/4.0/
# or send a letter to
# Creative Commons, PO Box 1866, Mountain View, CA 94042, USA.
#
# CIF created using the CSD Python API on 29 September 2022
# The structure has been converted into the P1 space group
# The structure has a 3D framework
# The original CSD entry PIHJOH is in the monoclinic crystal system
# The framework has been calculated to contain at least 10.0% void space
# The void calculation uses a probe of radius 1.32A, grid spacing 0.4
#
###############################################################################

data_PIHJOH
_chemical_formula_moiety         '(C96 H64 Mn2 N8 O16)n'
_symmetry_cell_setting           triclinic
_symmetry_space_group_name_H-M   'P 1'
_symmetry_Int_Tables_number      1
_space_group_name_Hall           'P 1'
loop_
_symmetry_equiv_pos_site_id
_symmetry_equiv_pos_as_xyz
1 x,y,z
_cell_length_a                   19.627(5)
_cell_length_b                   14.985(5)
_cell_length_c                   8.581(5)
_cell_angle_alpha                90
_cell_angle_beta                 109.527(5)
_cell_angle_gamma                90
_cell_volume                     2378.61
loop_
_atom_site_label
_atom_site_type_symbol
_atom_site_fract_x
_atom_site_fract_y
_atom_site_fract_z
Mn3 Mn 0.0000 0.92153(3) 0.2500
Mn1 Mn 0.5000 0.42153(3) 0.2500
O1 O 0.58475(8) 0.59683(12) 0.6435(2)
O2 O 0.56323(9) 0.52327(12) 0.4072(2)
C1 C 0.68060(13) 0.58137(15) 0.5377(3)
C2 C 0.60348(11) 0.56454(14) 0.5287(3)
C3 C 0.72633(12) 0.63318(16) 0.6634(3)
H1 H 0.7095 0.6556 0.7448
C4 C 0.79701(13) 0.65253(19) 0.6708(3)
C5 C 0.84470(13) 0.70804(18) 0.8045(3)
C7 C 0.84253(15) 0.7051(2) 0.9660(3)
H3 H 0.8105 0.6669 0.9919
C8 C 0.93768(14) 0.81853(19) 0.9051(3)
H4 H 0.9702 0.8573 0.8825
C9 C 0.89477(15) 0.7656(2) 0.7781(3)
H5 H 0.8997 0.7687 0.6741
C10 C 0.70568(16) 0.5461(3) 0.4185(4)
H6 H 0.6758 0.5102 0.3351
C11 C 0.7757(2) 0.5643(3) 0.4234(6)
C12 C 0.82053(18) 0.6184(3) 0.5465(5)
H7 H 0.8667 0.6320 0.5461
H8 H 0.794(3) 0.539(3) 0.341(6)
O4 O 0.43677(9) 0.52327(12) 0.0928(2)
C22 C 0.29432(16) 0.5461(3) 0.0815(4)
H14 H 0.3242 0.5102 0.1649
C23 C 0.2243(2) 0.5643(3) 0.0766(6)
H16 H 0.206(3) 0.539(3) 0.159(6)
Mn5 Mn 0.5000 0.57847(3) 0.7500
O5 O 0.41525(8) 0.40317(12) 0.3565(2)
O6 O 0.58475(8) 0.40317(12) 0.1435(2)
N3 N 0.43489(10) 0.31689(14) 0.0585(2)
N4 N 0.56511(10) 0.31689(14) 0.4415(2)
O3 O 0.41525(8) 0.59683(12) 0.8565(2)
N2 N 0.06511(10) 0.81689(14) 0.4415(2)
C13 C 0.31940(13) 0.58137(15) 0.9623(3)
C14 C 0.39652(11) 0.56454(14) 0.9713(3)
C15 C 0.27367(12) 0.63318(16) 0.8366(3)
H9 H 0.2905 0.6556 0.7552
C16 C 0.20299(13) 0.65253(19) 0.8292(3)
C17 C 0.15530(13) 0.70804(18) 0.6955(3)
C18 C 0.11189(15) 0.7590(2) 0.4136(3)
H10 H 0.1137 0.7549 0.3069
C19 C 0.15747(15) 0.7051(2) 0.5340(3)
H11 H 0.1895 0.6669 0.5081
C20 C 0.06232(14) 0.81853(19) 0.5949(3)
H12 H 0.0298 0.8573 0.6175
C21 C 0.10523(15) 0.7656(2) 0.7219(3)
H13 H 0.1003 0.7687 0.8259
C24 C 0.17947(18) 0.6184(3) 0.9535(5)
H15 H 0.1333 0.6320 0.9539
C6 C 0.38811(15) 0.2590(2) 0.0864(3)
H2 H 0.3863 0.2549 0.1931
O6_2 O 0.08475(8) 0.90317(12) 0.1435(2)
O4_2 O 0.93677(9) 0.02327(12) 0.0928(2)
C22_2 C 0.79432(16) 0.0461(3) 0.0815(4)
H14_2 H 0.8242 0.0102 0.1649
C23_2 C 0.7243(2) 0.0643(3) 0.0766(6)
H16_2 H 0.706(3) 0.039(3) 0.159(6)
Mn5_2 Mn 1.0000 0.07847(3) 0.7500
O3_2 O 0.91525(8) 0.09683(12) 0.8565(2)
C13_2 C 0.81940(13) 0.08137(15) 0.9623(3)
C14_2 C 0.89652(11) 0.06454(14) 0.9713(3)
C15_2 C 0.77367(12) 0.13318(16) 0.8366(3)
H9_2 H 0.7905 0.1556 0.7552
C16_2 C 0.70299(13) 0.15253(19) 0.8292(3)
C17_2 C 0.65530(13) 0.20804(18) 0.6955(3)
C18_2 C 0.61189(15) 0.2590(2) 0.4136(3)
H10_2 H 0.6137 0.2549 0.3069
C19_2 C 0.65747(15) 0.2051(2) 0.5340(3)
H11_2 H 0.6895 0.1669 0.5081
C20_2 C 0.56232(14) 0.31853(19) 0.5949(3)
H12_2 H 0.5298 0.3573 0.6175
C21_2 C 0.60523(15) 0.2656(2) 0.7219(3)
H13_2 H 0.6003 0.2687 0.8259
C24_2 C 0.67947(18) 0.1184(3) 0.9535(5)
H15_2 H 0.6333 0.1320 0.9539
N2_2 N 0.93489(10) 0.18311(14) 0.5585(2)
C13_3 C 0.68060(13) 0.41863(15) 0.0377(3)
C14_3 C 0.60348(11) 0.43546(14) 0.0287(3)
C15_3 C 0.72633(12) 0.36682(16) 0.1634(3)
H9_3 H 0.7095 0.3444 0.2448
C16_3 C 0.79701(13) 0.34747(19) 0.1708(3)
C17_3 C 0.84470(13) 0.29196(18) 0.3045(3)
C18_3 C 0.88811(15) 0.2410(2) 0.5864(3)
H10_3 H 0.8863 0.2451 0.6931
C19_3 C 0.84253(15) 0.2949(2) 0.4660(3)
H11_3 H 0.8105 0.3331 0.4919
C20_3 C 0.93768(14) 0.18147(19) 0.4051(3)
H12_3 H 0.9702 0.1427 0.3825
C21_3 C 0.89477(15) 0.2344(2) 0.2781(3)
H13_3 H 0.8997 0.2313 0.1741
C24_3 C 0.82053(18) 0.3816(3) 0.0465(5)
H15_3 H 0.8667 0.3680 0.0461
O2_2 O 0.43677(9) 0.47673(12) 0.5928(2)
C1_2 C 0.31940(13) 0.41863(15) 0.4623(3)
C2_2 C 0.39652(11) 0.43546(14) 0.4713(3)
C3_2 C 0.27367(12) 0.36682(16) 0.3366(3)
H1_2 H 0.2905 0.3444 0.2552
C4_2 C 0.20299(13) 0.34747(19) 0.3292(3)
C5_2 C 0.15530(13) 0.29196(18) 0.1955(3)
C7_2 C 0.15747(15) 0.2949(2) 0.0340(3)
H3_2 H 0.1895 0.3331 0.0081
C8_2 C 0.06232(14) 0.18147(19) 0.0949(3)
H4_2 H 0.0298 0.1427 0.1175
C9_2 C 0.10523(15) 0.2344(2) 0.2219(3)
H5_2 H 0.1003 0.2313 0.3259
C10_2 C 0.29432(16) 0.4539(3) 0.5815(4)
H6_2 H 0.3242 0.4898 0.6649
C11_2 C 0.2243(2) 0.4357(3) 0.5766(6)
C12_2 C 0.17947(18) 0.3816(3) 0.4535(5)
H7_2 H 0.1333 0.3680 0.4539
H8_2 H 0.206(3) 0.461(3) 0.659(6)
O4_3 O 0.56323(9) 0.47673(12) 0.9072(2)
C22_3 C 0.70568(16) 0.4539(3) 0.9185(4)
H14_3 H 0.6758 0.4898 0.8351
C23_3 C 0.7757(2) 0.4357(3) 0.9234(6)
H16_3 H 0.794(3) 0.461(3) 0.841(6)
N3_2 N 0.56511(10) 0.68311(14) 0.9415(2)
N4_2 N 0.43489(10) 0.68311(14) 0.5585(2)
C13_4 C 0.18060(13) 0.91863(15) 0.0377(3)
C14_4 C 0.10348(11) 0.93546(14) 0.0287(3)
C15_4 C 0.22633(12) 0.86682(16) 0.1634(3)
H9_4 H 0.2095 0.8444 0.2448
C16_4 C 0.29701(13) 0.84747(19) 0.1708(3)
C17_4 C 0.34470(13) 0.79196(18) 0.3045(3)
C18_4 C 0.38811(15) 0.7410(2) 0.5864(3)
H10_4 H 0.3863 0.7451 0.6931
C19_4 C 0.34253(15) 0.7949(2) 0.4660(3)
H11_4 H 0.3105 0.8331 0.4919
C20_4 C 0.43768(14) 0.68147(19) 0.4051(3)
H12_4 H 0.4702 0.6427 0.3825
C21_4 C 0.39477(15) 0.7344(2) 0.2781(3)
H13_4 H 0.3997 0.7313 0.1741
C24_4 C 0.32053(18) 0.8816(3) 0.0465(5)
H15_4 H 0.3667 0.8680 0.0461
O4_4 O 0.06323(9) 0.97673(12) 0.9072(2)
C22_4 C 0.20568(16) 0.9539(3) 0.9185(4)
H14_4 H 0.1758 0.9898 0.8351
C23_4 C 0.2757(2) 0.9357(3) 0.9234(6)
H16_4 H 0.294(3) 0.961(3) 0.841(6)
C6_2 C 0.61189(15) 0.7410(2) 0.9136(3)
H2_2 H 0.6137 0.7451 0.8069
N1 N 0.93489(10) 0.81689(14) 0.0585(2)
C6_3 C 0.88811(15) 0.7590(2) 0.0864(3)
H2_3 H 0.8863 0.7549 0.1931
Mn3_2 Mn 1.0000 0.92153(3) 0.2500
O5_2 O 0.91525(8) 0.90317(12) 0.3565(2)
O2_3 O 0.93677(9) 0.97673(12) 0.5928(2)
C1_3 C 0.81940(13) 0.91863(15) 0.4623(3)
C2_3 C 0.89652(11) 0.93546(14) 0.4713(3)
C3_3 C 0.77367(12) 0.86682(16) 0.3366(3)
H1_3 H 0.7905 0.8444 0.2552
C4_3 C 0.70299(13) 0.84747(19) 0.3292(3)
C5_3 C 0.65530(13) 0.79196(18) 0.1955(3)
C7_3 C 0.65747(15) 0.7949(2) 0.0340(3)
H3_3 H 0.6895 0.8331 0.0081
C8_3 C 0.56232(14) 0.68147(19) 0.0949(3)
H4_3 H 0.5298 0.6427 0.1175
C9_3 C 0.60523(15) 0.7344(2) 0.2219(3)
H5_3 H 0.6003 0.7313 0.3259
C10_3 C 0.79432(16) 0.9539(3) 0.5815(4)
H6_3 H 0.8242 0.9898 0.6649
C11_3 C 0.7243(2) 0.9357(3) 0.5766(6)
C12_3 C 0.67947(18) 0.8816(3) 0.4535(5)
H7_3 H 0.6333 0.8680 0.4539
H8_3 H 0.706(3) 0.961(3) 0.659(6)
O1_2 O 0.08475(8) 0.09683(12) 0.6435(2)
O2_4 O 0.06323(9) 0.02327(12) 0.4072(2)
C1_4 C 0.18060(13) 0.08137(15) 0.5377(3)
C2_4 C 0.10348(11) 0.06454(14) 0.5287(3)
C3_4 C 0.22633(12) 0.13318(16) 0.6634(3)
H1_4 H 0.2095 0.1556 0.7448
C4_4 C 0.29701(13) 0.15253(19) 0.6708(3)
C5_4 C 0.34470(13) 0.20804(18) 0.8045(3)
C7_4 C 0.34253(15) 0.2051(2) 0.9660(3)
H3_4 H 0.3105 0.1669 0.9919
C8_4 C 0.43768(14) 0.31853(19) 0.9051(3)
H4_4 H 0.4702 0.3573 0.8825
C9_4 C 0.39477(15) 0.2656(2) 0.7781(3)
H5_4 H 0.3997 0.2687 0.6741
C10_4 C 0.20568(16) 0.0461(3) 0.4185(4)
H6_4 H 0.1758 0.0102 0.3351
C11_4 C 0.2757(2) 0.0643(3) 0.4234(6)
C12_4 C 0.32053(18) 0.1184(3) 0.5465(5)
H7_4 H 0.3667 0.1320 0.5461
H8_4 H 0.294(3) 0.039(3) 0.341(6)
Mn5_3 Mn 0.0000 0.07847(3) 0.7500
N1_2 N 0.06511(10) 0.18311(14) 0.9415(2)
C6_4 C 0.11189(15) 0.2410(2) 0.9136(3)
H2_4 H 0.1137 0.2451 0.8069
loop_
_geom_bond_atom_site_label_1
_geom_bond_atom_site_label_2
_geom_bond_site_symmetry_1
_geom_bond_site_symmetry_2
Mn1 O2 1_555 1_555
O1 C2 1_555 1_555
O2 C2 1_555 1_555
C1 C2 1_555 1_555
C3 C1 1_555 1_555
H1 C3 1_555 1_555
C4 C3 1_555 1_555
C5 C4 1_555 1_555
C7 C5 1_555 1_555
H3 C7 1_555 1_555
H4 C8 1_555 1_555
C9 C5 1_555 1_555
H5 C9 1_555 1_555
C10 C1 1_555 1_555
H6 C10 1_555 1_555
C11 C10 1_555 1_555
C12 C4 1_555 1_555
H7 C12 1_555 1_555
H8 C11 1_555 1_555
O4 Mn1 1_555 1_555
H14 C22 1_555 1_555
C23 C22 1_555 1_555
H16 C23 1_555 1_555
Mn5 O1 1_555 1_555
O5 Mn1 1_555 1_555
O6 Mn1 1_555 1_555
N3 Mn1 1_555 1_555
N4 Mn1 1_555 1_555
C8 C9 1_555 1_555
C11 C12 1_555 1_555
O3 C14 1_555 1_555
N2 C18 1_555 1_555
C13 C14 1_555 1_555
C15 C13 1_555 1_555
H9 C15 1_555 1_555
C16 C15 1_555 1_555
C17 C16 1_555 1_555
C18 H10 1_555 1_555
C19 C17 1_555 1_555
H11 C19 1_555 1_555
C20 N2 1_555 1_555
H12 C20 1_555 1_555
C21 C17 1_555 1_555
H13 C21 1_555 1_555
C24 C16 1_555 1_555
H15 C24 1_555 1_555
Mn3 N2 1_555 1_555
Mn5 O3 1_555 1_555
C18 C19 1_555 1_555
C20 C21 1_555 1_555
N3 C6 1_555 1_555
C6 H2 1_555 1_555
O6_2 Mn3 1_555 1_555
H14_2 C22_2 1_555 1_555
C23_2 C22_2 1_555 1_555
H16_2 C23_2 1_555 1_555
O3_2 C14_2 1_555 1_555
N4 C18_2 1_555 1_555
C13_2 C14_2 1_555 1_555
C15_2 C13_2 1_555 1_555
H9_2 C15_2 1_555 1_555
C16_2 C15_2 1_555 1_555
C17_2 C16_2 1_555 1_555
C18_2 H10_2 1_555 1_555
C19_2 C17_2 1_555 1_555
H11_2 C19_2 1_555 1_555
C20_2 N4 1_555 1_555
H12_2 C20_2 1_555 1_555
C21_2 C17_2 1_555 1_555
H13_2 C21_2 1_555 1_555
C24_2 C16_2 1_555 1_555
H15_2 C24_2 1_555 1_555
Mn5_2 O3_2 1_555 1_555
C18_2 C19_2 1_555 1_555
C20_2 C21_2 1_555 1_555
O6 C14_3 1_555 1_555
N2_2 C18_3 1_555 1_555
C13_3 C14_3 1_555 1_555
C15_3 C13_3 1_555 1_555
H9_3 C15_3 1_555 1_555
C16_3 C15_3 1_555 1_555
C17_3 C16_3 1_555 1_555
C18_3 H10_3 1_555 1_555
C19_3 C17_3 1_555 1_555
H11_3 C19_3 1_555 1_555
C20_3 N2_2 1_555 1_555
H12_3 C20_3 1_555 1_555
C21_3 C17_3 1_555 1_555
H13_3 C21_3 1_555 1_555
C24_3 C16_3 1_555 1_555
H15_3 C24_3 1_555 1_555
Mn5_2 N2_2 1_555 1_555
C18_3 C19_3 1_555 1_555
C20_3 C21_3 1_555 1_555
Mn5 O2_2 1_555 1_555
O5 C2_2 1_555 1_555
O2_2 C2_2 1_555 1_555
C1_2 C2_2 1_555 1_555
C3_2 C1_2 1_555 1_555
H1_2 C3_2 1_555 1_555
C4_2 C3_2 1_555 1_555
C5_2 C4_2 1_555 1_555
C7_2 C5_2 1_555 1_555
H3_2 C7_2 1_555 1_555
H4_2 C8_2 1_555 1_555
C9_2 C5_2 1_555 1_555
H5_2 C9_2 1_555 1_555
C10_2 C1_2 1_555 1_555
H6_2 C10_2 1_555 1_555
C11_2 C10_2 1_555 1_555
C12_2 C4_2 1_555 1_555
H7_2 C12_2 1_555 1_555
H8_2 C11_2 1_555 1_555
O4_3 Mn5 1_555 1_555
H14_3 C22_3 1_555 1_555
C23_3 C22_3 1_555 1_555
H16_3 C23_3 1_555 1_555
N3_2 Mn5 1_555 1_555
N4_2 Mn5 1_555 1_555
C8_2 C9_2 1_555 1_555
C11_2 C12_2 1_555 1_555
O6_2 C14_4 1_555 1_555
N4_2 C18_4 1_555 1_555
C13_4 C14_4 1_555 1_555
C15_4 C13_4 1_555 1_555
H9_4 C15_4 1_555 1_555
C16_4 C15_4 1_555 1_555
C17_4 C16_4 1_555 1_555
C18_4 H10_4 1_555 1_555
C19_4 C17_4 1_555 1_555
H11_4 C19_4 1_555 1_555
C20_4 N4_2 1_555 1_555
H12_4 C20_4 1_555 1_555
C21_4 C17_4 1_555 1_555
H13_4 C21_4 1_555 1_555
C24_4 C16_4 1_555 1_555
H15_4 C24_4 1_555 1_555
C18_4 C19_4 1_555 1_555
C20_4 C21_4 1_555 1_555
H14_4 C22_4 1_555 1_555
C23_4 C22_4 1_555 1_555
H16_4 C23_4 1_555 1_555
N3_2 C6_2 1_555 1_555
C6_2 H2_2 1_555 1_555
N1 C6_3 1_555 1_555
C6_3 H2_3 1_555 1_555
Mn3_2 N1 1_555 1_555
O5_2 Mn3_2 1_555 1_555
O5_2 C2_3 1_555 1_555
O2_3 C2_3 1_555 1_555
C1_3 C2_3 1_555 1_555
C3_3 C1_3 1_555 1_555
H1_3 C3_3 1_555 1_555
C4_3 C3_3 1_555 1_555
C5_3 C4_3 1_555 1_555
C7_3 C5_3 1_555 1_555
H3_3 C7_3 1_555 1_555
H4_3 C8_3 1_555 1_555
C9_3 C5_3 1_555 1_555
H5_3 C9_3 1_555 1_555
C10_3 C1_3 1_555 1_555
H6_3 C10_3 1_555 1_555
C11_3 C10_3 1_555 1_555
C12_3 C4_3 1_555 1_555
H7_3 C12_3 1_555 1_555
H8_3 C11_3 1_555 1_555
C8_3 C9_3 1_555 1_555
C11_3 C12_3 1_555 1_555
O1_2 C2_4 1_555 1_555
O2_4 C2_4 1_555 1_555
C1_4 C2_4 1_555 1_555
C3_4 C1_4 1_555 1_555
H1_4 C3_4 1_555 1_555
C4_4 C3_4 1_555 1_555
C5_4 C4_4 1_555 1_555
C7_4 C5_4 1_555 1_555
H3_4 C7_4 1_555 1_555
H4_4 C8_4 1_555 1_555
C9_4 C5_4 1_555 1_555
H5_4 C9_4 1_555 1_555
C10_4 C1_4 1_555 1_555
H6_4 C10_4 1_555 1_555
C11_4 C10_4 1_555 1_555
C12_4 C4_4 1_555 1_555
H7_4 C12_4 1_555 1_555
H8_4 C11_4 1_555 1_555
Mn5_3 O1_2 1_555 1_555
C8_4 C9_4 1_555 1_555
C11_4 C12_4 1_555 1_555
N1_2 C6_4 1_555 1_555
C6_4 H2_4 1_555 1_555
Mn5_3 N1_2 1_555 1_555

#END
