
###############################################################################
#
# This file contains modified crystal structure data generated from the
# MOF subset of the Cambridge Structural Database (CSD) v543 
# hosted by the Cambridge Crystallographic Data Centre (CCDC).
#
# This work is licensed under the Creative Commons
# Attribution-NonCommercial-ShareAlike 4.0 International License.
# To view a copy of this license, visit
# http://creativecommons.org/licenses/by-nc-sa/4.0/
# or send a letter to
# Creative Commons, PO Box 1866, Mountain View, CA 94042, USA.
#
# CIF created using the CSD Python API on 29 September 2022
# The structure has been converted into the P1 space group
# The structure has a 3D framework
# The original CSD entry PIHJOH03 is in the monoclinic crystal system
# The framework has been calculated to contain at least 10.0% void space
# The void calculation uses a probe of radius 1.32A, grid spacing 0.4
#
###############################################################################

data_PIHJOH03
_chemical_formula_moiety         '(C96 H64 Mn6 N8 O12)n'
_symmetry_cell_setting           triclinic
_symmetry_space_group_name_H-M   'P 1'
_symmetry_Int_Tables_number      1
_space_group_name_Hall           'P 1'
loop_
_symmetry_equiv_pos_site_id
_symmetry_equiv_pos_as_xyz
1 x,y,z
_cell_length_a                   8.4872(8)
_cell_length_b                   15.6050(15)
_cell_length_c                   18.0163(17)
_cell_angle_alpha                90
_cell_angle_beta                 97.4550(10)
_cell_angle_gamma                90
_cell_volume                     2365.96
loop_
_atom_site_label
_atom_site_type_symbol
_atom_site_fract_x
_atom_site_fract_y
_atom_site_fract_z
O3 O 0.16125(18) 0.51998(10) 0.06863(8)
C13 C 0.0801(2) 0.56178(11) 0.10823(10)
C14 C 0.1493(2) 0.57935(12) 0.18850(11)
C15 C 0.0688(2) 0.63089(12) 0.23358(10)
C16 C 0.1309(2) 0.65063(14) 0.30663(11)
C17 C 0.2772(3) 0.6163(2) 0.33429(14)
H10 H 0.3217 0.6285 0.3830
C18 C 0.3569(4) 0.5644(2) 0.29055(17)
H11 H 0.4547 0.5415 0.3101
C19 C 0.2938(3) 0.5455(2) 0.21750(14)
H12 H 0.3489 0.5102 0.1883
C22 C 0.0434(2) 0.70767(14) 0.35273(10)
C23 C 0.1195(3) 0.76970(16) 0.39842(13)
H15 H 0.2295 0.7747 0.4028
C24 C 0.0337(3) 0.82441(16) 0.43774(13)
H16 H 0.0885 0.8666 0.4670
Mn3 Mn 0.2500 0.42416(2) 0.0000
Mn3_2 Mn 0.2500 0.42416(2) 1.0000
O5 O 0.83875(18) 0.01998(10) 0.43137(8)
O6 O 0.66125(18) 0.01998(10) 0.56863(8)
Mn5 Mn 0.7500 0.57584(2) 0.0000
Mn1 Mn 0.7500 0.92416(2) 0.5000
N1 N 0.6236(2) 0.82035(11) 0.56373(9)
O1 O 0.33875(18) 0.51998(10) 0.93137(8)
O2 O 0.55295(16) 0.59258(10) 0.91272(7)
C1 C 0.4199(2) 0.56178(11) 0.89177(10)
C2 C 0.3507(2) 0.57935(12) 0.81150(11)
C3 C 0.4312(2) 0.63089(12) 0.76642(10)
H1 H 0.5299 0.6529 0.7857
C4 C 0.3691(2) 0.65063(14) 0.69337(11)
C5 C 0.2228(3) 0.6163(2) 0.66571(14)
H2 H 0.1783 0.6285 0.6170
C6 C 0.1431(4) 0.5644(2) 0.70945(17)
H3 H 0.0453 0.5415 0.6899
C7 C 0.2062(3) 0.5455(2) 0.78250(14)
H4 H 0.1511 0.5102 0.8117
C8 C 0.6971(3) 0.75916(16) 0.60661(13)
H5 H 0.8066 0.7540 0.6081
C9 C 0.6206(3) 0.70302(16) 0.64887(14)
H6 H 0.6785 0.6621 0.6784
C10 C 0.4566(2) 0.70767(14) 0.64727(10)
C11 C 0.3805(3) 0.76970(16) 0.60158(13)
H7 H 0.2705 0.7747 0.5972
C12 C 0.4663(3) 0.82441(16) 0.56226(13)
H8 H 0.4115 0.8666 0.5330
N2 N 0.8764(2) 0.82035(11) 0.43627(9)
O4 O 0.94705(16) 0.59258(10) 0.08728(7)
H9 H 0.9701 0.6529 0.2143
C20 C 0.8029(3) 0.75916(16) 0.39339(13)
H13 H 0.6934 0.7540 0.3919
C21 C 0.8794(3) 0.70302(16) 0.35113(14)
H14 H 0.8215 0.6621 0.3216
Mn5_2 Mn 0.7500 0.57584(2) 1.0000
O7 O 0.94705(16) 0.90742(10) 0.58728(7)
O8 O 0.55295(16) 0.90742(10) 0.41272(7)
N1_2 N 0.1236(2) 0.32035(11) 0.06373(9)
O2_2 O 0.05295(16) 0.09258(10) 0.41272(7)
H1_2 H 0.0299 0.1529 0.2857
C8_2 C 0.1971(3) 0.25916(16) 0.10661(13)
H5_2 H 0.3066 0.2540 0.1081
C9_2 C 0.1206(3) 0.20302(16) 0.14887(14)
H6_2 H 0.1785 0.1621 0.1784
Mn5_3 Mn 0.2500 0.07584(2) 0.5000
O7_2 O 0.44705(16) 0.40742(10) 0.08728(7)
N2_2 N 0.3764(2) 0.32035(11) 0.93627(9)
O4_2 O 0.44705(16) 0.09258(10) 0.58728(7)
C13_2 C 0.5801(2) 0.06178(11) 0.60823(10)
C14_2 C 0.6493(2) 0.07935(12) 0.68850(11)
C15_2 C 0.5688(2) 0.13089(12) 0.73358(10)
H9_2 H 0.4701 0.1529 0.7143
C16_2 C 0.6309(2) 0.15063(14) 0.80663(11)
C17_2 C 0.7772(3) 0.1163(2) 0.83429(14)
H10_2 H 0.8217 0.1285 0.8830
C18_2 C 0.8569(4) 0.0644(2) 0.79055(17)
H11_2 H 0.9547 0.0415 0.8101
C19_2 C 0.7938(3) 0.0455(2) 0.71750(14)
H12_2 H 0.8489 0.0102 0.6883
C20_2 C 0.3029(3) 0.25916(16) 0.89339(13)
H13_2 H 0.1934 0.2540 0.8919
C21_2 C 0.3794(3) 0.20302(16) 0.85113(14)
H14_2 H 0.3215 0.1621 0.8216
C22_2 C 0.5434(2) 0.20767(14) 0.85273(10)
C23_2 C 0.6195(3) 0.26970(16) 0.89842(13)
H15_2 H 0.7295 0.2747 0.9028
C24_2 C 0.5337(3) 0.32441(16) 0.93774(13)
H16_2 H 0.5885 0.3666 0.9670
O8_2 O 0.05295(16) 0.40742(10) 0.91272(7)
C1_2 C 0.9199(2) 0.06178(11) 0.39177(10)
C2_2 C 0.8507(2) 0.07935(12) 0.31150(11)
C3_2 C 0.9312(2) 0.13089(12) 0.26642(10)
C4_2 C 0.8691(2) 0.15063(14) 0.19337(11)
C5_2 C 0.7228(3) 0.1163(2) 0.16571(14)
H2_2 H 0.6783 0.1285 0.1170
C6_2 C 0.6431(4) 0.0644(2) 0.20945(17)
H3_2 H 0.5453 0.0415 0.1899
C7_2 C 0.7062(3) 0.0455(2) 0.28250(14)
H4_2 H 0.6511 0.0102 0.3117
C10_2 C 0.9566(2) 0.20767(14) 0.14727(10)
C11_2 C 0.8805(3) 0.26970(16) 0.10158(13)
H7_2 H 0.7705 0.2747 0.0972
C12_2 C 0.9663(3) 0.32441(16) 0.06226(13)
H8_2 H 0.9115 0.3666 0.0330
N1_3 N 0.3764(2) 0.17965(11) 0.43627(9)
O1_2 O 0.66125(18) 0.48002(10) 0.06863(8)
C1_3 C 0.5801(2) 0.43822(11) 0.10823(10)
C2_3 C 0.6493(2) 0.42065(12) 0.18850(11)
C3_3 C 0.5688(2) 0.36911(12) 0.23358(10)
H1_3 H 0.4701 0.3471 0.2143
C4_3 C 0.6309(2) 0.34937(14) 0.30663(11)
C5_3 C 0.7772(3) 0.3837(2) 0.33429(14)
H2_3 H 0.8217 0.3715 0.3830
C6_3 C 0.8569(4) 0.4356(2) 0.29055(17)
H3_3 H 0.9547 0.4585 0.3101
C7_3 C 0.7938(3) 0.4545(2) 0.21750(14)
H4_3 H 0.8489 0.4898 0.1883
C8_3 C 0.3029(3) 0.24084(16) 0.39339(13)
H5_3 H 0.1934 0.2460 0.3919
C9_3 C 0.3794(3) 0.29698(16) 0.35113(14)
H6_3 H 0.3215 0.3379 0.3216
C10_3 C 0.5434(2) 0.29233(14) 0.35273(10)
C11_3 C 0.6195(3) 0.23030(16) 0.39842(13)
H7_3 H 0.7295 0.2253 0.4028
C12_3 C 0.5337(3) 0.17559(16) 0.43774(13)
H8_3 H 0.5885 0.1334 0.4670
N2_3 N 0.1236(2) 0.17965(11) 0.56373(9)
H9_3 H 0.0299 0.3471 0.7857
C20_3 C 0.1971(3) 0.24084(16) 0.60661(13)
H13_3 H 0.3066 0.2460 0.6081
C21_3 C 0.1206(3) 0.29698(16) 0.64887(14)
H14_3 H 0.1785 0.3379 0.6784
O5_2 O 0.16125(18) 0.98002(10) 0.56863(8)
O6_2 O 0.33875(18) 0.98002(10) 0.43137(8)
O3_2 O 0.83875(18) 0.48002(10) 0.93137(8)
C13_3 C 0.9199(2) 0.43822(11) 0.89177(10)
C14_3 C 0.8507(2) 0.42065(12) 0.81150(11)
C15_3 C 0.9312(2) 0.36911(12) 0.76642(10)
C16_3 C 0.8691(2) 0.34937(14) 0.69337(11)
C17_3 C 0.7228(3) 0.3837(2) 0.66571(14)
H10_3 H 0.6783 0.3715 0.6170
C18_3 C 0.6431(4) 0.4356(2) 0.70945(17)
H11_3 H 0.5453 0.4585 0.6899
C19_3 C 0.7062(3) 0.4545(2) 0.78250(14)
H12_3 H 0.6511 0.4898 0.8117
C22_3 C 0.9566(2) 0.29233(14) 0.64727(10)
C23_3 C 0.8805(3) 0.23030(16) 0.60158(13)
H15_3 H 0.7705 0.2253 0.5972
C24_3 C 0.9663(3) 0.17559(16) 0.56226(13)
H16_3 H 0.9115 0.1334 0.5330
C1_4 C 0.0801(2) 0.93822(11) 0.60823(10)
C2_4 C 0.1493(2) 0.92065(12) 0.68850(11)
C3_4 C 0.0688(2) 0.86911(12) 0.73358(10)
C4_4 C 0.1309(2) 0.84937(14) 0.80663(11)
C5_4 C 0.2772(3) 0.8837(2) 0.83429(14)
H2_4 H 0.3217 0.8715 0.8830
C6_4 C 0.3569(4) 0.9356(2) 0.79055(17)
H3_4 H 0.4547 0.9585 0.8101
C7_4 C 0.2938(3) 0.9545(2) 0.71750(14)
H4_4 H 0.3489 0.9898 0.6883
C10_4 C 0.0434(2) 0.79233(14) 0.85273(10)
C11_4 C 0.1195(3) 0.73030(16) 0.89842(13)
H7_4 H 0.2295 0.7253 0.9028
C12_4 C 0.0337(3) 0.67559(16) 0.93774(13)
H8_4 H 0.0885 0.6334 0.9670
N2_4 N 0.6236(2) 0.67965(11) 0.06373(9)
C13_4 C 0.4199(2) 0.93822(11) 0.39177(10)
C14_4 C 0.3507(2) 0.92065(12) 0.31150(11)
C15_4 C 0.4312(2) 0.86911(12) 0.26642(10)
H9_4 H 0.5299 0.8471 0.2857
C16_4 C 0.3691(2) 0.84937(14) 0.19337(11)
C17_4 C 0.2228(3) 0.8837(2) 0.16571(14)
H10_4 H 0.1783 0.8715 0.1170
C18_4 C 0.1431(4) 0.9356(2) 0.20945(17)
H11_4 H 0.0453 0.9585 0.1899
C19_4 C 0.2062(3) 0.9545(2) 0.28250(14)
H12_4 H 0.1511 0.9898 0.3117
C20_4 C 0.6971(3) 0.74084(16) 0.10661(13)
H13_4 H 0.8066 0.7460 0.1081
C21_4 C 0.6206(3) 0.79698(16) 0.14887(14)
H14_4 H 0.6785 0.8379 0.1784
C22_4 C 0.4566(2) 0.79233(14) 0.14727(10)
C23_4 C 0.3805(3) 0.73030(16) 0.10158(13)
H15_4 H 0.2705 0.7253 0.0972
C24_4 C 0.4663(3) 0.67559(16) 0.06226(13)
H16_4 H 0.4115 0.6334 0.0330
N1_4 N 0.8764(2) 0.67965(11) 0.93627(9)
H1_4 H 0.9701 0.8471 0.7143
C8_4 C 0.8029(3) 0.74084(16) 0.89339(13)
H5_4 H 0.6934 0.7460 0.8919
C9_4 C 0.8794(3) 0.79698(16) 0.85113(14)
H6_4 H 0.8215 0.8379 0.8216
loop_
_geom_bond_atom_site_label_1
_geom_bond_atom_site_label_2
_geom_bond_site_symmetry_1
_geom_bond_site_symmetry_2
O3 C13 1_555 1_555
C13 C14 1_555 1_555
C14 C15 1_555 1_555
C16 C15 1_555 1_555
C17 C16 1_555 1_555
H10 C17 1_555 1_555
C18 C17 1_555 1_555
H11 C18 1_555 1_555
C19 C14 1_555 1_555
H12 C19 1_555 1_555
C22 C16 1_555 1_555
C23 C22 1_555 1_555
H15 C23 1_555 1_555
H16 C24 1_555 1_555
Mn3 O3 1_555 1_555
C18 C19 1_555 1_555
C23 C24 1_555 1_555
Mn1 N1 1_555 1_555
N1 C8 1_555 1_555
O1 C1 1_555 1_555
O2 C1 1_555 1_555
C1 C2 1_555 1_555
C2 C3 1_555 1_555
C3 H1 1_555 1_555
C4 C3 1_555 1_555
C5 C4 1_555 1_555
H2 C5 1_555 1_555
C6 C5 1_555 1_555
H3 C6 1_555 1_555
C7 C2 1_555 1_555
H4 C7 1_555 1_555
C8 H5 1_555 1_555
C9 C8 1_555 1_555
H6 C9 1_555 1_555
C10 C4 1_555 1_555
C11 C10 1_555 1_555
H7 C11 1_555 1_555
C12 N1 1_555 1_555
H8 C12 1_555 1_555
N2 Mn1 1_555 1_555
C20 N2 1_555 1_555
H13 C20 1_555 1_555
C21 C20 1_555 1_555
H14 C21 1_555 1_555
Mn3_2 O1 1_555 1_555
Mn5 O4 1_555 1_555
Mn5_2 O2 1_555 1_555
O7 Mn1 1_555 1_555
O8 Mn1 1_555 1_555
C6 C7 1_555 1_555
C9 C10 1_555 1_555
C11 C12 1_555 1_555
Mn3 N1_2 1_555 1_555
N1_2 C8_2 1_555 1_555
C8_2 H5_2 1_555 1_555
C9_2 C8_2 1_555 1_555
H6_2 C9_2 1_555 1_555
Mn5_3 O2_2 1_555 1_555
O7_2 Mn3 1_555 1_555
N2_2 Mn3_2 1_555 1_555
O6 C13_2 1_555 1_555
O4_2 C13_2 1_555 1_555
C13_2 C14_2 1_555 1_555
C14_2 C15_2 1_555 1_555
C15_2 H9_2 1_555 1_555
C16_2 C15_2 1_555 1_555
C17_2 C16_2 1_555 1_555
H10_2 C17_2 1_555 1_555
C18_2 C17_2 1_555 1_555
H11_2 C18_2 1_555 1_555
C19_2 C14_2 1_555 1_555
H12_2 C19_2 1_555 1_555
C20_2 N2_2 1_555 1_555
H13_2 C20_2 1_555 1_555
C21_2 C20_2 1_555 1_555
H14_2 C21_2 1_555 1_555
C22_2 C16_2 1_555 1_555
C23_2 C22_2 1_555 1_555
H15_2 C23_2 1_555 1_555
C24_2 N2_2 1_555 1_555
H16_2 C24_2 1_555 1_555
Mn5_3 O4_2 1_555 1_555
O8_2 Mn3_2 1_555 1_555
C18_2 C19_2 1_555 1_555
C21_2 C22_2 1_555 1_555
C23_2 C24_2 1_555 1_555
O5 C1_2 1_555 1_555
C1_2 C2_2 1_555 1_555
C2_2 C3_2 1_555 1_555
C4_2 C3_2 1_555 1_555
C5_2 C4_2 1_555 1_555
H2_2 C5_2 1_555 1_555
C6_2 C5_2 1_555 1_555
H3_2 C6_2 1_555 1_555
C7_2 C2_2 1_555 1_555
H4_2 C7_2 1_555 1_555
C10_2 C4_2 1_555 1_555
C11_2 C10_2 1_555 1_555
H7_2 C11_2 1_555 1_555
H8_2 C12_2 1_555 1_555
C6_2 C7_2 1_555 1_555
C11_2 C12_2 1_555 1_555
Mn5_3 N1_3 1_555 1_555
N1_3 C8_3 1_555 1_555
O1_2 C1_3 1_555 1_555
O7_2 C1_3 1_555 1_555
C1_3 C2_3 1_555 1_555
C2_3 C3_3 1_555 1_555
C3_3 H1_3 1_555 1_555
C4_3 C3_3 1_555 1_555
C5_3 C4_3 1_555 1_555
H2_3 C5_3 1_555 1_555
C6_3 C5_3 1_555 1_555
H3_3 C6_3 1_555 1_555
C7_3 C2_3 1_555 1_555
H4_3 C7_3 1_555 1_555
C8_3 H5_3 1_555 1_555
C9_3 C8_3 1_555 1_555
H6_3 C9_3 1_555 1_555
C10_3 C4_3 1_555 1_555
C11_3 C10_3 1_555 1_555
H7_3 C11_3 1_555 1_555
C12_3 N1_3 1_555 1_555
H8_3 C12_3 1_555 1_555
N2_3 Mn5_3 1_555 1_555
C20_3 N2_3 1_555 1_555
H13_3 C20_3 1_555 1_555
C21_3 C20_3 1_555 1_555
H14_3 C21_3 1_555 1_555
Mn5 O1_2 1_555 1_555
C6_3 C7_3 1_555 1_555
C9_3 C10_3 1_555 1_555
C11_3 C12_3 1_555 1_555
O3_2 C13_3 1_555 1_555
C13_3 C14_3 1_555 1_555
C14_3 C15_3 1_555 1_555
C16_3 C15_3 1_555 1_555
C17_3 C16_3 1_555 1_555
H10_3 C17_3 1_555 1_555
C18_3 C17_3 1_555 1_555
H11_3 C18_3 1_555 1_555
C19_3 C14_3 1_555 1_555
H12_3 C19_3 1_555 1_555
C22_3 C16_3 1_555 1_555
C23_3 C22_3 1_555 1_555
H15_3 C23_3 1_555 1_555
H16_3 C24_3 1_555 1_555
Mn5_2 O3_2 1_555 1_555
C18_3 C19_3 1_555 1_555
C23_3 C24_3 1_555 1_555
O5_2 C1_4 1_555 1_555
C1_4 C2_4 1_555 1_555
C2_4 C3_4 1_555 1_555
C4_4 C3_4 1_555 1_555
C5_4 C4_4 1_555 1_555
H2_4 C5_4 1_555 1_555
C6_4 C5_4 1_555 1_555
H3_4 C6_4 1_555 1_555
C7_4 C2_4 1_555 1_555
H4_4 C7_4 1_555 1_555
C10_4 C4_4 1_555 1_555
C11_4 C10_4 1_555 1_555
H7_4 C11_4 1_555 1_555
H8_4 C12_4 1_555 1_555
C6_4 C7_4 1_555 1_555
C11_4 C12_4 1_555 1_555
N2_4 Mn5 1_555 1_555
O6_2 C13_4 1_555 1_555
O8 C13_4 1_555 1_555
C13_4 C14_4 1_555 1_555
C14_4 C15_4 1_555 1_555
C15_4 H9_4 1_555 1_555
C16_4 C15_4 1_555 1_555
C17_4 C16_4 1_555 1_555
H10_4 C17_4 1_555 1_555
C18_4 C17_4 1_555 1_555
H11_4 C18_4 1_555 1_555
C19_4 C14_4 1_555 1_555
H12_4 C19_4 1_555 1_555
C20_4 N2_4 1_555 1_555
H13_4 C20_4 1_555 1_555
C21_4 C20_4 1_555 1_555
H14_4 C21_4 1_555 1_555
C22_4 C16_4 1_555 1_555
C23_4 C22_4 1_555 1_555
H15_4 C23_4 1_555 1_555
C24_4 N2_4 1_555 1_555
H16_4 C24_4 1_555 1_555
C18_4 C19_4 1_555 1_555
C21_4 C22_4 1_555 1_555
C23_4 C24_4 1_555 1_555
Mn5_2 N1_4 1_555 1_555
N1_4 C8_4 1_555 1_555
C8_4 H5_4 1_555 1_555
C9_4 C8_4 1_555 1_555
H6_4 C9_4 1_555 1_555

#END
