
###############################################################################
#
# This file contains modified crystal structure data generated from the
# MOF subset of the Cambridge Structural Database (CSD) v543 
# hosted by the Cambridge Crystallographic Data Centre (CCDC).
#
# This work is licensed under the Creative Commons
# Attribution-NonCommercial-ShareAlike 4.0 International License.
# To view a copy of this license, visit
# http://creativecommons.org/licenses/by-nc-sa/4.0/
# or send a letter to
# Creative Commons, PO Box 1866, Mountain View, CA 94042, USA.
#
# CIF created using the CSD Python API on 29 September 2022
# The structure has been converted into the P1 space group
# The structure has a 3D framework
# The original CSD entry PIHNUQ is in the monoclinic crystal system
# The framework has been calculated to contain at least 10.0% void space
# The void calculation uses a probe of radius 1.32A, grid spacing 0.4
#
###############################################################################

data_PIHNUQ
_chemical_formula_moiety         '(C120 H96 N8 O40 Zn8)n'
_symmetry_cell_setting           triclinic
_symmetry_space_group_name_H-M   'P 1'
_symmetry_Int_Tables_number      1
_space_group_name_Hall           'P 1'
loop_
_symmetry_equiv_pos_site_id
_symmetry_equiv_pos_as_xyz
1 x,y,z
_cell_length_a                   20.595(4)
_cell_length_b                   15.012(3)
_cell_length_c                   10.363(2)
_cell_angle_alpha                90
_cell_angle_beta                 93.967(4)
_cell_angle_gamma                90
_cell_volume                     3196.27
loop_
_atom_site_label
_atom_site_type_symbol
_atom_site_fract_x
_atom_site_fract_y
_atom_site_fract_z
Zn1 Zn 0.30090(2) 0.27905(3) 0.10029(4)
O1 O 0.32800(14) 0.15064(17) 0.0961(3)
N1 N 0.35339(15) 0.3317(2) 0.2543(3)
C1 C 0.2956(2) 0.0924(3) 0.0324(4)
H1 H 0.3672 0.0149 0.2218
C10 C 0.4107(2) 0.2983(3) 0.2983(4)
H7 H 0.4241 0.2443 0.2651
C11 C 0.4509(2) 0.3404(3) 0.3909(4)
H8 H 0.4907 0.3151 0.4184
C12 C 0.4322(2) 0.4194(3) 0.4424(4)
C13 C 0.3721(2) 0.4524(3) 0.4016(4)
H9 H 0.3570 0.5049 0.4366
C14 C 0.3343(2) 0.4070(3) 0.3082(4)
H10 H 0.2936 0.4299 0.2816
C15 C 0.4773(2) 0.4707(3) 0.5366(4)
H11 H 0.5027 0.4294 0.5915
H12 H 0.4519 0.5075 0.5913
Zn5 Zn 0.69910(2) 0.72095(3) 0.89971(4)
O7 O 0.25198(14) 0.39165(18) 0.0482(3)
O11 O 0.13744(14) 0.19540(19) 0.0449(3)
O13 O 0.21894(14) 0.23536(18) 0.1878(3)
N2 N 0.64661(15) 0.6683(2) 0.7457(3)
C21 C 0.1928(2) 0.6570(3) 0.0122(4)
H15 H 0.2071 0.6999 0.0723
C22 C 0.2085(2) 0.5684(3) 0.0332(4)
H16 H 0.2343 0.5526 0.1068
C25 C 0.5893(2) 0.7017(3) 0.7017(4)
H19 H 0.5759 0.7557 0.7349
C26 C 0.5491(2) 0.6596(3) 0.6091(4)
H20 H 0.5093 0.6849 0.5816
C27 C 0.5678(2) 0.5806(3) 0.5576(4)
C28 C 0.6279(2) 0.5476(3) 0.5984(4)
H21 H 0.6430 0.4951 0.5634
C29 C 0.6657(2) 0.5930(3) 0.6918(4)
H22 H 0.7064 0.5701 0.7184
C30 C 0.5227(2) 0.5293(3) 0.4634(4)
H23 H 0.4973 0.5706 0.4085
H24 H 0.5481 0.4925 0.4087
O2 O 0.24802(14) 0.10835(18) 0.9518(3)
Zn2 Zn 0.19910(2) 0.22095(3) 0.89971(4)
Zn6 Zn 0.19910(2) 0.77905(3) 0.39971(4)
Zn7 Zn 0.30090(2) 0.72095(3) 0.60029(4)
O6 O 0.17200(14) 0.34936(17) 0.9039(3)
O8 O 0.14302(15) 0.77019(18) 0.8873(3)
O9 O 0.13744(14) 0.80460(19) 0.5449(3)
O10 O 0.36256(14) 0.30460(19) 0.9551(3)
O12 O 0.21894(14) 0.76464(18) 0.6878(3)
O14 O 0.28106(14) 0.26464(18) 0.8122(3)
N3 N 0.14661(15) 0.1683(2) 0.7457(3)
C16 C 0.2044(2) 0.4076(3) 0.9676(4)
C17 C 0.18640(19) 0.5023(2) 0.9463(4)
C18 C 0.1484(2) 0.5283(3) 0.8368(4)
H13 H 0.1328 0.4851 0.7782
C19 C 0.1333(2) 0.6164(3) 0.8129(4)
H14 H 0.1083 0.6324 0.7383
C20 C 0.1558(2) 0.6814(3) 0.9011(4)
C23 C 0.1168(2) 0.8010(3) 0.7654(4)
H17 H 0.0763 0.7699 0.7431
H18 H 0.1068 0.8639 0.7722
C24 C 0.1621(2) 0.7880(3) 0.6570(4)
O3 O 0.35698(15) 0.72981(18) 0.1127(3)
O4 O 0.36256(14) 0.69540(19) 0.4551(3)
O5 O 0.28106(14) 0.73536(18) 0.3122(3)
C2 C 0.31360(19) 0.9977(2) 0.0537(4)
C3 C 0.3516(2) 0.9717(3) 0.1632(4)
C4 C 0.3667(2) 0.8836(3) 0.1871(4)
H2 H 0.3917 0.8676 0.2617
C5 C 0.3442(2) 0.8186(3) 0.0989(4)
C8 C 0.3832(2) 0.6990(3) 0.2346(4)
H5 H 0.4237 0.7301 0.2569
H6 H 0.3932 0.6361 0.2278
C9 C 0.3379(2) 0.7120(3) 0.3430(4)
C25_2 C 0.0893(2) 0.2017(3) 0.7017(4)
H19_2 H 0.0759 0.2557 0.7349
C26_2 C 0.0491(2) 0.1596(3) 0.6091(4)
H20_2 H 0.0093 0.1849 0.5816
C27_2 C 0.0678(2) 0.0806(3) 0.5576(4)
C28_2 C 0.1279(2) 0.0476(3) 0.5984(4)
C29_2 C 0.1657(2) 0.0930(3) 0.6918(4)
H22_2 H 0.2064 0.0701 0.7184
C30_2 C 0.0227(2) 0.0293(3) 0.4634(4)
Zn6_2 Zn 0.69910(2) 0.27905(3) 0.39971(4)
Zn7_2 Zn 0.80090(2) 0.22095(3) 0.60029(4)
O8_2 O 0.64302(15) 0.27019(18) 0.8873(3)
O9_2 O 0.63744(14) 0.30460(19) 0.5449(3)
O12_2 O 0.71894(14) 0.26464(18) 0.6878(3)
C17_2 C 0.68640(19) 0.0023(2) 0.9463(4)
C18_2 C 0.6484(2) 0.0283(3) 0.8368(4)
C19_2 C 0.6333(2) 0.1164(3) 0.8129(4)
H14_2 H 0.6083 0.1324 0.7383
C20_2 C 0.6558(2) 0.1814(3) 0.9011(4)
C23_2 C 0.6168(2) 0.3010(3) 0.7654(4)
H17_2 H 0.5763 0.2699 0.7431
H18_2 H 0.6068 0.3639 0.7722
C24_2 C 0.6621(2) 0.2880(3) 0.6570(4)
Zn1_2 Zn 0.80090(2) 0.77905(3) 0.10029(4)
O1_2 O 0.82800(14) 0.65064(17) 0.0961(3)
O3_2 O 0.85698(15) 0.22981(18) 0.1127(3)
O4_2 O 0.86256(14) 0.19540(19) 0.4551(3)
O5_2 O 0.78106(14) 0.23536(18) 0.3122(3)
N1_2 N 0.85339(15) 0.8317(2) 0.2543(3)
C1_2 C 0.7956(2) 0.5924(3) 0.0324(4)
C2_2 C 0.81360(19) 0.4977(2) 0.0537(4)
C3_2 C 0.8516(2) 0.4717(3) 0.1632(4)
H1_2 H 0.8672 0.5149 0.2218
C4_2 C 0.8667(2) 0.3836(3) 0.1871(4)
H2_2 H 0.8917 0.3676 0.2617
C5_2 C 0.8442(2) 0.3186(3) 0.0989(4)
C8_2 C 0.8832(2) 0.1990(3) 0.2346(4)
H5_2 H 0.9237 0.2301 0.2569
H6_2 H 0.8932 0.1361 0.2278
C9_2 C 0.8379(2) 0.2120(3) 0.3430(4)
C10_2 C 0.9107(2) 0.7983(3) 0.2983(4)
H7_2 H 0.9241 0.7443 0.2651
C11_2 C 0.9509(2) 0.8404(3) 0.3909(4)
H8_2 H 0.9907 0.8151 0.4184
C12_2 C 0.9322(2) 0.9194(3) 0.4424(4)
C13_2 C 0.8721(2) 0.9524(3) 0.4016(4)
C14_2 C 0.8343(2) 0.9070(3) 0.3082(4)
H10_2 H 0.7936 0.9299 0.2816
C15_2 C 0.9773(2) 0.9707(3) 0.5366(4)
O7_2 O 0.75198(14) 0.89165(18) 0.0482(3)
O11_2 O 0.63744(14) 0.69540(19) 0.0449(3)
O13_2 O 0.71894(14) 0.73536(18) 0.1878(3)
O2_2 O 0.74802(14) 0.60835(18) 0.9518(3)
C6 C 0.8072(2) 0.3430(3) 0.9878(4)
H3 H 0.7929 0.3001 0.9277
C7 C 0.7915(2) 0.4316(3) 0.9668(4)
H4 H 0.7657 0.4474 0.8932
O6_2 O 0.67200(14) 0.84936(17) 0.9039(3)
O10_2 O 0.86256(14) 0.80460(19) 0.9551(3)
O14_2 O 0.78106(14) 0.76464(18) 0.8122(3)
C16_2 C 0.7044(2) 0.9076(3) 0.9676(4)
H13_2 H 0.6328 0.9851 0.7782
O1_3 O 0.67200(14) 0.15064(17) 0.4039(3)
O2_3 O 0.75198(14) 0.10835(18) 0.5482(3)
N1_3 N 0.64661(15) 0.3317(2) 0.2457(3)
C1_3 C 0.7044(2) 0.0924(3) 0.4676(4)
H1_3 H 0.6328 0.0149 0.2782
C10_3 C 0.5893(2) 0.2983(3) 0.2017(4)
H7_3 H 0.5759 0.2443 0.2349
C11_3 C 0.5491(2) 0.3404(3) 0.1091(4)
H8_3 H 0.5093 0.3151 0.0816
C12_3 C 0.5678(2) 0.4194(3) 0.0576(4)
C13_3 C 0.6279(2) 0.4524(3) 0.0984(4)
H9_2 H 0.6430 0.5049 0.0634
C14_3 C 0.6657(2) 0.4070(3) 0.1918(4)
H10_3 H 0.7064 0.4299 0.2184
O6_3 O 0.82800(14) 0.34936(17) 0.5961(3)
O7_3 O 0.74802(14) 0.39165(18) 0.4518(3)
O8_3 O 0.85698(15) 0.77019(18) 0.6127(3)
N3_2 N 0.85339(15) 0.1683(2) 0.7543(3)
C16_3 C 0.7956(2) 0.4076(3) 0.5324(4)
C17_3 C 0.81360(19) 0.5023(2) 0.5537(4)
C18_3 C 0.8516(2) 0.5283(3) 0.6632(4)
H13_3 H 0.8672 0.4851 0.7218
C19_3 C 0.8667(2) 0.6164(3) 0.6871(4)
H14_3 H 0.8917 0.6324 0.7617
C20_3 C 0.8442(2) 0.6814(3) 0.5989(4)
C21_2 C 0.8072(2) 0.6570(3) 0.4878(4)
H15_2 H 0.7929 0.6999 0.4277
C22_2 C 0.7915(2) 0.5684(3) 0.4668(4)
H16_2 H 0.7657 0.5526 0.3932
C23_3 C 0.8832(2) 0.8010(3) 0.7346(4)
H17_3 H 0.9237 0.7699 0.7569
H18_3 H 0.8932 0.8639 0.7278
C24_3 C 0.8379(2) 0.7880(3) 0.8430(4)
C30_3 C 0.4773(2) 0.5293(3) 0.0366(4)
H23_2 H 0.5027 0.5706 0.0915
H24_2 H 0.4519 0.4925 0.0913
C15_3 C 0.5227(2) 0.4707(3) 0.9634(4)
H11_2 H 0.4973 0.4294 0.9085
H12_2 H 0.5481 0.5075 0.9087
N2_2 N 0.35339(15) 0.6683(2) 0.7543(3)
C25_3 C 0.4107(2) 0.7017(3) 0.7983(4)
H19_3 H 0.4241 0.7557 0.7651
C26_3 C 0.4509(2) 0.6596(3) 0.8909(4)
H20_3 H 0.4907 0.6849 0.9184
C27_3 C 0.4322(2) 0.5806(3) 0.9424(4)
C28_3 C 0.3721(2) 0.5476(3) 0.9016(4)
H21_2 H 0.3570 0.4951 0.9366
C29_3 C 0.3343(2) 0.5930(3) 0.8082(4)
H22_3 H 0.2936 0.5701 0.7816
O3_3 O 0.64302(15) 0.72981(18) 0.3873(3)
C2_3 C 0.68640(19) 0.9977(2) 0.4463(4)
C3_3 C 0.6484(2) 0.9717(3) 0.3368(4)
C4_3 C 0.6333(2) 0.8836(3) 0.3129(4)
H2_3 H 0.6083 0.8676 0.2383
C5_3 C 0.6558(2) 0.8186(3) 0.4011(4)
C6_2 C 0.6928(2) 0.8430(3) 0.5122(4)
H3_2 H 0.7071 0.8001 0.5723
C7_2 C 0.7085(2) 0.9316(3) 0.5332(4)
H4_2 H 0.7343 0.9474 0.6068
C8_3 C 0.6168(2) 0.6990(3) 0.2654(4)
H5_3 H 0.5763 0.7301 0.2431
H6_3 H 0.6068 0.6361 0.2722
C9_3 C 0.6621(2) 0.7120(3) 0.1570(4)
H9_3 H 0.1430 0.0049 0.0634
O8_4 O 0.35698(15) 0.27019(18) 0.6127(3)
C17_4 C 0.31360(19) 0.0023(2) 0.5537(4)
C18_4 C 0.3516(2) 0.0283(3) 0.6632(4)
C19_4 C 0.3667(2) 0.1164(3) 0.6871(4)
H14_4 H 0.3917 0.1324 0.7617
C20_4 C 0.3442(2) 0.1814(3) 0.5989(4)
C21_3 C 0.3072(2) 0.1570(3) 0.4878(4)
H15_3 H 0.2929 0.1999 0.4277
C22_3 C 0.2915(2) 0.0684(3) 0.4668(4)
H16_3 H 0.2657 0.0526 0.3932
C23_4 C 0.3832(2) 0.3010(3) 0.7346(4)
H17_4 H 0.4237 0.2699 0.7569
H18_4 H 0.3932 0.3639 0.7278
C24_4 C 0.3379(2) 0.2880(3) 0.8430(4)
H23_3 H 0.0027 0.0706 0.0915
O1_4 O 0.17200(14) 0.65064(17) 0.4039(3)
O2_4 O 0.25198(14) 0.60835(18) 0.5482(3)
O3_4 O 0.14302(15) 0.22981(18) 0.3873(3)
N1_4 N 0.14661(15) 0.8317(2) 0.2457(3)
C1_4 C 0.2044(2) 0.5924(3) 0.4676(4)
C2_4 C 0.18640(19) 0.4977(2) 0.4463(4)
C3_4 C 0.1484(2) 0.4717(3) 0.3368(4)
H1_4 H 0.1328 0.5149 0.2782
C4_4 C 0.1333(2) 0.3836(3) 0.3129(4)
H2_4 H 0.1083 0.3676 0.2383
C5_4 C 0.1558(2) 0.3186(3) 0.4011(4)
C6_3 C 0.1928(2) 0.3430(3) 0.5122(4)
H3_3 H 0.2071 0.3001 0.5723
C7_3 C 0.2085(2) 0.4316(3) 0.5332(4)
H4_3 H 0.2343 0.4474 0.6068
C8_4 C 0.1168(2) 0.1990(3) 0.2654(4)
H5_4 H 0.0763 0.2301 0.2431
H6_4 H 0.1068 0.1361 0.2722
C9_4 C 0.1621(2) 0.2120(3) 0.1570(4)
C10_4 C 0.0893(2) 0.7983(3) 0.2017(4)
H7_4 H 0.0759 0.7443 0.2349
C11_4 C 0.0491(2) 0.8404(3) 0.1091(4)
H8_4 H 0.0093 0.8151 0.0816
C12_4 C 0.0678(2) 0.9194(3) 0.0576(4)
C13_4 C 0.1279(2) 0.9524(3) 0.0984(4)
C14_4 C 0.1657(2) 0.9070(3) 0.1918(4)
H10_4 H 0.2064 0.9299 0.2184
O6_4 O 0.32800(14) 0.84936(17) 0.5961(3)
O7_4 O 0.24802(14) 0.89165(18) 0.4518(3)
C16_4 C 0.2956(2) 0.9076(3) 0.5324(4)
H13_4 H 0.3672 0.9851 0.7218
C15_4 C 0.0227(2) 0.9707(3) 0.9634(4)
C30_4 C 0.9773(2) 0.0293(3) 0.0366(4)
C25_4 C 0.9107(2) 0.2017(3) 0.7983(4)
H19_4 H 0.9241 0.2557 0.7651
C26_4 C 0.9509(2) 0.1596(3) 0.8909(4)
H20_4 H 0.9907 0.1849 0.9184
C27_4 C 0.9322(2) 0.0806(3) 0.9424(4)
C28_4 C 0.8721(2) 0.0476(3) 0.9016(4)
C29_4 C 0.8343(2) 0.0930(3) 0.8082(4)
H22_4 H 0.7936 0.0701 0.7816
H11_3 H 0.9973 0.9294 0.9085
H21_3 H 0.8570 0.9951 0.9366
C6_4 C 0.3072(2) 0.8430(3) 0.9878(4)
H3_4 H 0.2929 0.8001 0.9277
C7_4 C 0.2915(2) 0.9316(3) 0.9668(4)
H4_4 H 0.2657 0.9474 0.8932
H11_4 H 0.0027 0.9294 0.5915
H21_4 H 0.1430 0.9951 0.5634
H24_3 H 0.0481 0.9925 0.4087
H9_4 H 0.8570 0.0049 0.4366
H12_3 H 0.9519 0.0075 0.5913
C21_4 C 0.6928(2) 0.1570(3) 0.0122(4)
H15_4 H 0.7071 0.1999 0.0723
C22_4 C 0.7085(2) 0.0684(3) 0.0332(4)
H16_4 H 0.7343 0.0526 0.1068
H23_4 H 0.9973 0.0706 0.4085
H12_4 H 0.0481 0.0075 0.9087
H24_4 H 0.9519 0.9925 0.0913
loop_
_geom_bond_atom_site_label_1
_geom_bond_atom_site_label_2
_geom_bond_site_symmetry_1
_geom_bond_site_symmetry_2
Zn1 O1 1_555 1_555
O1 C1 1_555 1_555
N1 Zn1 1_555 1_555
C10 N1 1_555 1_555
H7 C10 1_555 1_555
C11 C10 1_555 1_555
H8 C11 1_555 1_555
C12 C11 1_555 1_555
C13 C12 1_555 1_555
H9 C13 1_555 1_555
C14 N1 1_555 1_555
H10 C14 1_555 1_555
C15 C12 1_555 1_555
H11 C15 1_555 1_555
H12 C15 1_555 1_555
Zn5 N2 1_555 1_555
O7 Zn1 1_555 1_555
O13 Zn1 1_555 1_555
N2 C25 1_555 1_555
H15 C21 1_555 1_555
H16 C22 1_555 1_555
C25 H19 1_555 1_555
C26 C25 1_555 1_555
H20 C26 1_555 1_555
C27 C26 1_555 1_555
C28 C27 1_555 1_555
H21 C28 1_555 1_555
C29 N2 1_555 1_555
H22 C29 1_555 1_555
C30 C15 1_555 1_555
H23 C30 1_555 1_555
H24 C30 1_555 1_555
C13 C14 1_555 1_555
C21 C22 1_555 1_555
C27 C30 1_555 1_555
C28 C29 1_555 1_555
Zn2 O2 1_555 1_555
Zn6 O9 1_555 1_555
Zn7 O12 1_555 1_555
O6 Zn2 1_555 1_555
O8 C20 1_555 1_555
O9 C24 1_555 1_555
O12 C24 1_555 1_555
O14 Zn2 1_555 1_555
N3 Zn2 1_555 1_555
C16 O6 1_555 1_555
C17 C16 1_555 1_555
C18 C17 1_555 1_555
H13 C18 1_555 1_555
C19 C18 1_555 1_555
H14 C19 1_555 1_555
C20 C19 1_555 1_555
C23 O8 1_555 1_555
H17 C23 1_555 1_555
H18 C23 1_555 1_555
C24 C23 1_555 1_555
O3 C5 1_555 1_555
O4 C9 1_555 1_555
O5 C9 1_555 1_555
C2 C3 1_555 1_555
C4 C3 1_555 1_555
H2 C4 1_555 1_555
C5 C4 1_555 1_555
C8 O3 1_555 1_555
H5 C8 1_555 1_555
H6 C8 1_555 1_555
C9 C8 1_555 1_555
Zn7 O4 1_555 1_555
Zn6 O5 1_555 1_555
N3 C25_2 1_555 1_555
C25_2 H19_2 1_555 1_555
C26_2 C25_2 1_555 1_555
H20_2 C26_2 1_555 1_555
C27_2 C26_2 1_555 1_555
C28_2 C27_2 1_555 1_555
C29_2 N3 1_555 1_555
H22_2 C29_2 1_555 1_555
C27_2 C30_2 1_555 1_555
C28_2 C29_2 1_555 1_555
Zn6_2 O9_2 1_555 1_555
Zn7_2 O12_2 1_555 1_555
O8_2 C20_2 1_555 1_555
O9_2 C24_2 1_555 1_555
O12_2 C24_2 1_555 1_555
C18_2 C17_2 1_555 1_555
C19_2 C18_2 1_555 1_555
H14_2 C19_2 1_555 1_555
C20_2 C19_2 1_555 1_555
C23_2 O8_2 1_555 1_555
H17_2 C23_2 1_555 1_555
H18_2 C23_2 1_555 1_555
C24_2 C23_2 1_555 1_555
Zn1_2 O1_2 1_555 1_555
O1_2 C1_2 1_555 1_555
O3_2 C5_2 1_555 1_555
O4_2 C9_2 1_555 1_555
O5_2 C9_2 1_555 1_555
N1_2 Zn1_2 1_555 1_555
C1_2 C2_2 1_555 1_555
C2_2 C3_2 1_555 1_555
C3_2 H1_2 1_555 1_555
C4_2 C3_2 1_555 1_555
H2_2 C4_2 1_555 1_555
C5_2 C4_2 1_555 1_555
C8_2 O3_2 1_555 1_555
H5_2 C8_2 1_555 1_555
H6_2 C8_2 1_555 1_555
C9_2 C8_2 1_555 1_555
C10_2 N1_2 1_555 1_555
H7_2 C10_2 1_555 1_555
C11_2 C10_2 1_555 1_555
H8_2 C11_2 1_555 1_555
C12_2 C11_2 1_555 1_555
C13_2 C12_2 1_555 1_555
C14_2 N1_2 1_555 1_555
H10_2 C14_2 1_555 1_555
C15_2 C12_2 1_555 1_555
Zn7_2 O4_2 1_555 1_555
Zn6_2 O5_2 1_555 1_555
O7_2 Zn1_2 1_555 1_555
O13_2 Zn1_2 1_555 1_555
C13_2 C14_2 1_555 1_555
H3 C6 1_555 1_555
H4 C7 1_555 1_555
Zn5 O2_2 1_555 1_555
O6_2 Zn5 1_555 1_555
O14_2 Zn5 1_555 1_555
C16_2 O6_2 1_555 1_555
C6 C7 1_555 1_555
Zn6_2 O1_3 1_555 1_555
O1_3 C1_3 1_555 1_555
O2_3 C1_3 1_555 1_555
N1_3 Zn6_2 1_555 1_555
C10_3 N1_3 1_555 1_555
H7_3 C10_3 1_555 1_555
C11_3 C10_3 1_555 1_555
H8_3 C11_3 1_555 1_555
C12_3 C11_3 1_555 1_555
C13_3 C12_3 1_555 1_555
H9_2 C13_3 1_555 1_555
C14_3 N1_3 1_555 1_555
H10_3 C14_3 1_555 1_555
Zn7_2 O2_3 1_555 1_555
O6_3 Zn7_2 1_555 1_555
O7_3 Zn6_2 1_555 1_555
O8_3 C20_3 1_555 1_555
O10_2 C24_3 1_555 1_555
O14_2 C24_3 1_555 1_555
N3_2 Zn7_2 1_555 1_555
C16_3 O6_3 1_555 1_555
C17_3 C16_3 1_555 1_555
C18_3 C17_3 1_555 1_555
H13_3 C18_3 1_555 1_555
C19_3 C18_3 1_555 1_555
H14_3 C19_3 1_555 1_555
C20_3 C19_3 1_555 1_555
C21_2 C20_3 1_555 1_555
H15_2 C21_2 1_555 1_555
C22_2 C17_3 1_555 1_555
H16_2 C22_2 1_555 1_555
C23_3 O8_3 1_555 1_555
H17_3 C23_3 1_555 1_555
H18_3 C23_3 1_555 1_555
C24_3 C23_3 1_555 1_555
H23_2 C30_3 1_555 1_555
H24_2 C30_3 1_555 1_555
C13_3 C14_3 1_555 1_555
O7_3 C16_3 1_555 1_555
C21_2 C22_2 1_555 1_555
H11_2 C15_3 1_555 1_555
H12_2 C15_3 1_555 1_555
Zn7 N2_2 1_555 1_555
N2_2 C25_3 1_555 1_555
C25_3 H19_3 1_555 1_555
C26_3 C25_3 1_555 1_555
H20_3 C26_3 1_555 1_555
C27_3 C26_3 1_555 1_555
C28_3 C27_3 1_555 1_555
H21_2 C28_3 1_555 1_555
C29_3 N2_2 1_555 1_555
H22_3 C29_3 1_555 1_555
C28_3 C29_3 1_555 1_555
O3_3 C5_3 1_555 1_555
O11_2 C9_3 1_555 1_555
O13_2 C9_3 1_555 1_555
C2_3 C3_3 1_555 1_555
C4_3 C3_3 1_555 1_555
H2_3 C4_3 1_555 1_555
C5_3 C4_3 1_555 1_555
C6_2 C5_3 1_555 1_555
H3_2 C6_2 1_555 1_555
C7_2 C2_3 1_555 1_555
H4_2 C7_2 1_555 1_555
C8_3 O3_3 1_555 1_555
H5_3 C8_3 1_555 1_555
H6_3 C8_3 1_555 1_555
C9_3 C8_3 1_555 1_555
C6_2 C7_2 1_555 1_555
O8_4 C20_4 1_555 1_555
O10 C24_4 1_555 1_555
O14 C24_4 1_555 1_555
C18_4 C17_4 1_555 1_555
C19_4 C18_4 1_555 1_555
H14_4 C19_4 1_555 1_555
C20_4 C19_4 1_555 1_555
C21_3 C20_4 1_555 1_555
H15_3 C21_3 1_555 1_555
C22_3 C17_4 1_555 1_555
H16_3 C22_3 1_555 1_555
C23_4 O8_4 1_555 1_555
H17_4 C23_4 1_555 1_555
H18_4 C23_4 1_555 1_555
C24_4 C23_4 1_555 1_555
C21_3 C22_3 1_555 1_555
Zn6 O1_4 1_555 1_555
O1_4 C1_4 1_555 1_555
O2_4 C1_4 1_555 1_555
O3_4 C5_4 1_555 1_555
O11 C9_4 1_555 1_555
O13 C9_4 1_555 1_555
N1_4 Zn6 1_555 1_555
C1_4 C2_4 1_555 1_555
C2_4 C3_4 1_555 1_555
C3_4 H1_4 1_555 1_555
C4_4 C3_4 1_555 1_555
H2_4 C4_4 1_555 1_555
C5_4 C4_4 1_555 1_555
C6_3 C5_4 1_555 1_555
H3_3 C6_3 1_555 1_555
C7_3 C2_4 1_555 1_555
H4_3 C7_3 1_555 1_555
C8_4 O3_4 1_555 1_555
H5_4 C8_4 1_555 1_555
H6_4 C8_4 1_555 1_555
C9_4 C8_4 1_555 1_555
C10_4 N1_4 1_555 1_555
H7_4 C10_4 1_555 1_555
C11_4 C10_4 1_555 1_555
H8_4 C11_4 1_555 1_555
C12_4 C11_4 1_555 1_555
C13_4 C12_4 1_555 1_555
C14_4 N1_4 1_555 1_555
H10_4 C14_4 1_555 1_555
Zn7 O2_4 1_555 1_555
O6_4 Zn7 1_555 1_555
O7_4 Zn6 1_555 1_555
C16_4 O6_4 1_555 1_555
C6_3 C7_3 1_555 1_555
C13_4 C14_4 1_555 1_555
O7_4 C16_4 1_555 1_555
N3_2 C25_4 1_555 1_555
C25_4 H19_4 1_555 1_555
C26_4 C25_4 1_555 1_555
H20_4 C26_4 1_555 1_555
C27_4 C26_4 1_555 1_555
C28_4 C27_4 1_555 1_555
C29_4 N3_2 1_555 1_555
H22_4 C29_4 1_555 1_555
C28_4 C29_4 1_555 1_555
H3_4 C6_4 1_555 1_555
H4_4 C7_4 1_555 1_555
C6_4 C7_4 1_555 1_555
H15_4 C21_4 1_555 1_555
H16_4 C22_4 1_555 1_555
C21_4 C22_4 1_555 1_555

#END
