
###############################################################################
#
# This file contains modified crystal structure data generated from the
# MOF subset of the Cambridge Structural Database (CSD) v543 
# hosted by the Cambridge Crystallographic Data Centre (CCDC).
#
# This work is licensed under the Creative Commons
# Attribution-NonCommercial-ShareAlike 4.0 International License.
# To view a copy of this license, visit
# http://creativecommons.org/licenses/by-nc-sa/4.0/
# or send a letter to
# Creative Commons, PO Box 1866, Mountain View, CA 94042, USA.
#
# CIF created using the CSD Python API on 29 September 2022
# The structure has been converted into the P1 space group
# The structure has a 3D framework
# The original CSD entry PIKCUK is in the hexagonal crystal system
# The original CSD entry PIKCUK is in a Sohncke space group
# The framework has been calculated to contain at least 10.0% void space
# The void calculation uses a probe of radius 1.32A, grid spacing 0.4
# The framework is charged, counterions have been retained in the structure
# H atom positions have been added when not included in the experimental data
# Generated hydrogen atom positions removed from atoms on special positions
#
###############################################################################

data_PIKCUK
_chemical_formula_moiety         '(C30 H84 Cl8 N6 O64 Tb14 1-)n'
_symmetry_cell_setting           triclinic
_symmetry_space_group_name_H-M   'P 1'
_symmetry_Int_Tables_number      1
_space_group_name_Hall           'P 1'
loop_
_symmetry_equiv_pos_site_id
_symmetry_equiv_pos_as_xyz
1 x,y,z
_cell_length_a                   12.1411(12)
_cell_length_b                   12.1411(12)
_cell_length_c                   17.8888(19)
_cell_angle_alpha                90
_cell_angle_beta                 90
_cell_angle_gamma                120
_cell_volume                     2283.64
loop_
_atom_site_label
_atom_site_type_symbol
_atom_site_fract_x
_atom_site_fract_y
_atom_site_fract_z
O23 O 0.6270(22) 0.0769(16) 0.3643(10)
O24 O 0.8286(23) 0.2154(16) 0.3314(9)
O26 O 0.4486(27) 0.0506(18) 0.4803(10)
O28 O 0.4440(24) 0.0450(17) 0.7193(10)
C11 C 0.750(3) 0.127(2) 0.3683(14)
C14 C 0.7182(23) 0.0566(15) 0.5530(10)
H12 H 0.7159 0.1338 0.5425
H13 H 0.7989 0.0803 0.5768
C15 C 0.7996(23) 0.0700(16) 0.4261(10)
H14 H 0.8300 0.0203 0.4000
H15 H 0.8719 0.1391 0.4513
Tb9 Tb 0.87246(9) 0.39927(8) 0.26266(4)
Tb13 Tb 0.52681(12) 0.12754(9) 0.26266(4)
O39 O 0.6250(16) 0.0757(16) 0.8284(9)
H23 H 0.413019 0.0759961 0.761185
H24 H 0.526332 0.115535 0.700802
Tb1 Tb 0.12698(9) 0.60680(8) 0.42941(3)
Tb2 Tb 0.3333 0.6667 0.59340(14)
Tb3 Tb 0.12754(9) 0.60073(8) 0.76266(4)
O3 O 0.2937(15) 0.7751(13) 0.4958(9)
O5 O 0.3333 0.6667 0.3789(14)
O6 O 0.3333 0.6667 0.8158(17)
O7 O 0.2268(14) 0.5154(16) 0.6918(10)
O9 O 0.3750(16) 0.9243(16) 0.3284(9)
O10 O 0.1716(17) 0.7747(17) 0.3475(11)
O11 O 0.1059(9) 0.6106(10) 0.5765(6)
C2 C 0.0262(12) 0.6376(12) 0.6048(14)
N1 N 0.0110(12) 0.7184(13) 0.4828(7)
H1 H 0.0772 0.8054 0.4950
C3 C 0.257(2) 0.875(2) 0.3147(14)
O12 O 0.0147(11) 0.6453(12) 0.6744(7)
Tb4 Tb 0.39320(8) 0.52018(12) 0.42941(3)
Tb5 Tb 0.39927(8) 0.52681(12) 0.76266(4)
O13 O 0.4499(15) 0.3730(22) 0.3643(10)
O14 O 0.3868(16) 0.1714(23) 0.3314(9)
O15 O 0.2249(13) 0.5186(20) 0.4958(9)
O16 O 0.602(2) 0.5514(27) 0.4803(10)
O17 O 0.4846(16) 0.7114(21) 0.6918(10)
O18 O 0.6010(17) 0.5560(24) 0.7193(10)
O19 O 0.0757(16) 0.4507(23) 0.3284(9)
O20 O 0.2253(17) 0.3969(24) 0.3475(11)
O21 O 0.3894(10) 0.4953(13) 0.5765(6)
C6 C 0.377(2) 0.250(3) 0.3683(14)
C7 C 0.3624(12) 0.3886(17) 0.6048(14)
N2 N 0.2816(13) 0.2926(18) 0.4828(7)
H6 H 0.1946 0.2718 0.4950
C8 C 0.125(2) 0.382(3) 0.3147(14)
O22 O 0.3547(12) 0.3694(16) 0.6744(7)
C9 C 0.3384(17) 0.2818(23) 0.5530(10)
H7 H 0.4179 0.2841 0.5425
H8 H 0.2814 0.2011 0.5768
C10 C 0.2704(17) 0.2004(23) 0.4261(10)
H9 H 0.1903 0.1700 0.4000
H10 H 0.2672 0.1281 0.4513
Tb6 Tb 0.47982(12) 0.87302(9) 0.42941(3)
Tb7 Tb 0.47319(12) 0.87246(9) 0.76266(4)
O25 O 0.4814(20) 0.7063(15) 0.4958(9)
O27 O 0.2886(21) 0.7732(14) 0.6918(10)
O29 O 0.5493(23) 0.6250(16) 0.3284(9)
O30 O 0.6031(24) 0.8284(17) 0.3475(11)
O31 O 0.5047(13) 0.8941(9) 0.5765(6)
C12 C 0.6114(17) 0.9738(12) 0.6048(14)
N3 N 0.7074(18) 0.9890(12) 0.4828(7)
H11 H 0.7282 0.9228 0.4950
C13 C 0.618(3) 0.743(2) 0.3147(14)
O32 O 0.6306(16) 0.9853(11) 0.6744(7)
Tb11 Tb 0.60073(8) 0.47319(12) 0.26266(4)
O33 O 0.0769(16) 0.4499(15) 0.8643(10)
O34 O 0.5501(15) 0.6270(22) 0.8643(10)
O35 O 0.3730(22) 0.9231(16) 0.8643(10)
O36 O 0.2154(16) 0.3868(16) 0.8314(9)
O37 O 0.6132(16) 0.8286(23) 0.8314(9)
O38 O 0.1714(23) 0.7846(16) 0.8314(9)
O41 O 0.4507(23) 0.3750(16) 0.8284(9)
H20 H 0.22705 0.920157 0.273102
H21 H 0.662983 0.587001 0.761181
H22 H 0.589207 0.473664 0.700813
H27 H 0.0798427 0.306893 0.273102
H30 H 0.693107 0.77295 0.273102
O1 O 0.9231(16) 0.5501(15) 0.3643(10)
O2 O 0.7846(16) 0.6132(16) 0.3314(9)
O4 O 0.9494(18) 0.398(2) 0.4803(10)
O8 O 0.9550(17) 0.3990(17) 0.7193(10)
C1 C 0.873(2) 0.623(2) 0.3683(14)
C4 C 0.9434(15) 0.6616(17) 0.5530(10)
H2 H 0.8662 0.5821 0.5425
H3 H 0.9197 0.7186 0.5768
C5 C 0.9300(16) 0.7296(17) 0.4261(10)
H4 H 0.9797 0.8097 0.4000
H5 H 0.8609 0.7328 0.4513
O40 O 0.9243(16) 0.5493(23) 0.8284(9)
H18 H 0.924003 0.337024 0.761185
H19 H 0.884465 0.410797 0.700801
O8_2 O 0.0450(17) 0.6010(17) 0.2193(10)
C4_2 C 0.0566(15) 0.3384(17) 0.0530(10)
H2_2 H 0.1338 0.4179 0.0425
H3_2 H 0.0803 0.2814 0.0768
H17 H 0.0161769 0.634317 0.0195681
H18_2 H 0.0759965 0.662976 0.261185
H19_2 H 0.115535 0.589203 0.200801
O4_2 O 0.0506(18) 0.602(2) 0.9803(10)
C1_2 C 0.127(2) 0.377(2) 0.8683(14)
C5_2 C 0.0700(16) 0.2704(17) 0.9261(10)
H4_2 H 0.0203 0.1903 0.9000
H5_2 H 0.1391 0.2672 0.9513
Tb2_2 Tb 0.6667 0.3333 0.09340(14)
O6_2 O 0.6667 0.3333 0.3158(17)
O7_2 O 0.7732(14) 0.4846(16) 0.1918(10)
O11_2 O 0.8941(9) 0.3894(10) 0.0765(6)
C2_2 C 0.9738(12) 0.3624(12) 0.1048(14)
O12_2 O 0.9853(11) 0.3547(12) 0.1744(7)
O17_2 O 0.5154(16) 0.2886(21) 0.1918(10)
O18_2 O 0.3990(17) 0.4440(24) 0.2193(10)
O21_2 O 0.6106(10) 0.5047(13) 0.0765(6)
C7_2 C 0.6376(12) 0.6114(17) 0.1048(14)
O22_2 O 0.6453(12) 0.6306(16) 0.1744(7)
C9_2 C 0.6616(17) 0.7182(23) 0.0530(10)
H7_2 H 0.5821 0.7159 0.0425
H8_2 H 0.7186 0.7989 0.0768
O27_2 O 0.7114(21) 0.2268(14) 0.1918(10)
O31_2 O 0.4953(13) 0.1059(9) 0.0765(6)
C12_2 C 0.3886(17) 0.0262(12) 0.1048(14)
O32_2 O 0.3694(16) 0.0147(11) 0.1744(7)
H21_2 H 0.337017 0.412999 0.261181
H22_2 H 0.410793 0.526336 0.200813
H25 H 0.371063 0.38981 0.0237106
Tb1_2 Tb 0.87302(9) 0.39320(8) 0.92941(3)
O3_2 O 0.7063(15) 0.2249(13) 0.9958(9)
O5_2 O 0.6667 0.3333 0.8789(14)
O10_2 O 0.8284(17) 0.2253(17) 0.8475(11)
N1_2 N 0.9890(12) 0.2816(13) 0.9828(7)
H1_2 H 0.9228 0.1946 0.9950
C3_2 C 0.743(2) 0.125(2) 0.8147(14)
Tb4_2 Tb 0.60680(8) 0.47982(12) 0.92941(3)
O15_2 O 0.7751(13) 0.4814(20) 0.9958(9)
O16_2 O 0.398(2) 0.4486(27) 0.9803(10)
O20_2 O 0.7747(17) 0.6031(24) 0.8475(11)
C6_2 C 0.623(2) 0.750(3) 0.8683(14)
N2_2 N 0.7184(13) 0.7074(18) 0.9828(7)
H6_2 H 0.8054 0.7282 0.9950
C8_2 C 0.875(2) 0.618(3) 0.8147(14)
C10_2 C 0.7296(17) 0.7996(23) 0.9261(10)
H9_2 H 0.8097 0.8300 0.9000
H10_2 H 0.7328 0.8719 0.9513
Tb6_2 Tb 0.52018(12) 0.12698(9) 0.92941(3)
O25_2 O 0.5186(20) 0.2937(15) 0.9958(9)
O30_2 O 0.3969(24) 0.1716(17) 0.8475(11)
N3_2 N 0.2926(18) 0.0110(12) 0.9828(7)
H11_2 H 0.2718 0.0772 0.9950
C13_2 C 0.382(3) 0.257(2) 0.8147(14)
H20_2 H 0.77295 0.0798427 0.773102
H27_2 H 0.920157 0.693107 0.773102
H30_2 H 0.306893 0.22705 0.773102
O28_2 O 0.5560(24) 0.9550(17) 0.2193(10)
C14_2 C 0.2818(23) 0.9434(15) 0.0530(10)
H12_2 H 0.2841 0.8662 0.0425
H13_2 H 0.2011 0.9197 0.0768
H23_2 H 0.586981 0.924004 0.261185
H24_2 H 0.473668 0.884465 0.200802
H28 H 0.554218 0.953373 0.0357576
O26_2 O 0.5514(27) 0.9494(18) 0.9803(10)
C11_2 C 0.250(3) 0.873(2) 0.8683(14)
C15_2 C 0.2004(23) 0.9300(16) 0.9261(10)
H14_2 H 0.1700 0.9797 0.9000
H15_2 H 0.1281 0.8609 0.9513
H28_2 H 0.0466272 0.600845 0.0357576
H17_2 H 0.365683 0.38186 0.0195681
H25_2 H 0.61019 0.981253 0.0237106
H25_3 H 0.0187465 0.628937 0.0237106
H28_3 H 0.399155 0.445782 0.0357576
H17_3 H 0.61814 0.983823 0.0195681
Cl1 Cl 0.0454(5) 0.2706(5) 0.5890(8)
Cl1_2 Cl 0.7294(5) 0.7748(7) 0.5890(8)
Cl1_3 Cl 0.2252(7) 0.9546(5) 0.5890(8)
Cl1_4 Cl 0.9546(5) 0.7294(5) 0.0890(8)
Cl1_5 Cl 0.2706(5) 0.2252(7) 0.0890(8)
Cl1_6 Cl 0.7748(7) 0.0454(5) 0.0890(8)
Cl2 Cl 0.6667 0.3333 0.5016(8)
Cl2_2 Cl 0.3333 0.6667 0.0016(8)
loop_
_geom_bond_atom_site_label_1
_geom_bond_atom_site_label_2
_geom_bond_site_symmetry_1
_geom_bond_site_symmetry_2
O24 C11 1_555 1_555
C11 O23 1_555 1_555
H12 C14 1_555 1_555
H13 C14 1_555 1_555
C15 C11 1_555 1_555
H14 C15 1_555 1_555
H15 C15 1_555 1_555
Tb9 O24 1_555 1_555
O23 Tb13 1_555 1_555
O28 H23 1_555 1_555
O28 H24 1_555 1_555
Tb2 O3 1_555 1_555
Tb3 O6 1_555 1_555
O3 Tb1 1_555 1_555
O5 Tb1 1_555 1_555
O6 Tb5 1_555 1_555
O7 Tb2 1_555 1_555
O9 C3 1_555 1_555
O10 Tb1 1_555 1_555
O11 Tb1 1_555 1_555
C2 O11 1_555 1_555
N1 Tb1 1_555 1_555
H1 N1 1_555 1_555
C3 O10 1_555 1_555
O12 Tb3 1_555 1_555
Tb4 O5 1_555 1_555
Tb5 O7 1_555 1_555
O13 Tb4 1_555 1_555
O14 C6 1_555 1_555
O15 Tb1 1_555 1_555
O16 Tb4 1_555 1_555
O17 Tb2 1_555 1_555
O18 Tb5 1_555 1_555
O19 Tb1 1_555 1_555
O20 Tb4 1_555 1_555
O21 Tb2 1_555 1_555
C6 O13 1_555 1_555
C7 O21 1_555 1_555
N2 Tb4 1_555 1_555
H6 N2 1_555 1_555
C8 O19 1_555 1_555
O22 Tb5 1_555 1_555
C9 C7 1_555 1_555
H7 C9 1_555 1_555
H8 C9 1_555 1_555
C10 C6 1_555 1_555
H9 C10 1_555 1_555
H10 C10 1_555 1_555
Tb6 O3 1_555 1_555
Tb7 O6 1_555 1_555
O25 Tb2 1_555 1_555
O27 Tb2 1_555 1_555
O29 Tb4 1_555 1_555
O30 Tb6 1_555 1_555
O31 Tb2 1_555 1_555
C12 O31 1_555 1_555
N3 Tb6 1_555 1_555
H11 N3 1_555 1_555
C13 O29 1_555 1_555
O32 Tb7 1_555 1_555
Tb11 O13 1_555 1_555
Tb13 O14 1_555 1_555
O33 Tb3 1_555 1_555
O34 Tb5 1_555 1_555
O35 Tb7 1_555 1_555
O36 Tb5 1_555 1_555
O37 Tb7 1_555 1_555
O38 Tb3 1_555 1_555
O41 Tb5 1_555 1_555
Tb2 O11 1_555 1_555
Tb2 O15 1_555 1_555
Tb3 O7 1_555 1_555
Tb3 O27 1_555 1_555
O5 Tb6 1_555 1_555
O9 Tb6 1_555 1_555
C2 O12 1_555 1_555
Tb4 O15 1_555 1_555
Tb4 O21 1_555 1_555
Tb4 O25 1_555 1_555
Tb5 O17 1_555 1_555
O17 Tb7 1_555 1_555
O20 C8 1_555 1_555
C7 O22 1_555 1_555
N2 C9 1_555 1_555
N2 C10 1_555 1_555
Tb6 O25 1_555 1_555
Tb6 O31 1_555 1_555
Tb7 O27 1_555 1_555
O29 Tb11 1_555 1_555
O30 C13 1_555 1_555
C12 O32 1_555 1_555
C3 H20 1_555 1_555
O18 H21 1_555 1_555
O18 H22 1_555 1_555
C8 H27 1_555 1_555
C13 H30 1_555 1_555
O1 C1 1_555 1_555
O2 C1 1_555 1_555
C1 C5 1_555 1_555
H2 C4 1_555 1_555
H3 C4 1_555 1_555
H4 C5 1_555 1_555
H5 C5 1_555 1_555
Tb9 O1 1_555 1_555
Tb11 O2 1_555 1_555
O8 H18 1_555 1_555
O8 H19 1_555 1_555
H2_2 C4_2 1_555 1_555
H3_2 C4_2 1_555 1_555
O8_2 H18_2 1_555 1_555
O8_2 H19_2 1_555 1_555
O33 C1_2 1_555 1_555
O36 C1_2 1_555 1_555
C1_2 C5_2 1_555 1_555
H4_2 C5_2 1_555 1_555
H5_2 C5_2 1_555 1_555
Tb9 O6_2 1_555 1_555
O6_2 Tb11 1_555 1_555
O7_2 Tb2_2 1_555 1_555
C2_2 O11_2 1_555 1_555
O12_2 Tb9 1_555 1_555
Tb11 O7_2 1_555 1_555
O17_2 Tb2_2 1_555 1_555
O18_2 Tb11 1_555 1_555
O21_2 Tb2_2 1_555 1_555
C7_2 O21_2 1_555 1_555
O22_2 Tb11 1_555 1_555
C9_2 C7_2 1_555 1_555
H7_2 C9_2 1_555 1_555
H8_2 C9_2 1_555 1_555
Tb13 O6_2 1_555 1_555
O27_2 Tb2_2 1_555 1_555
O31_2 Tb2_2 1_555 1_555
C12_2 O31_2 1_555 1_555
O32_2 Tb13 1_555 1_555
Tb2_2 O11_2 1_555 1_555
Tb9 O7_2 1_555 1_555
Tb9 O27_2 1_555 1_555
C2_2 O12_2 1_555 1_555
Tb11 O17_2 1_555 1_555
O17_2 Tb13 1_555 1_555
C7_2 O22_2 1_555 1_555
Tb13 O27_2 1_555 1_555
C12_2 O32_2 1_555 1_555
O18_2 H21_2 1_555 1_555
O18_2 H22_2 1_555 1_555
O3_2 Tb1_2 1_555 1_555
O5_2 Tb1_2 1_555 1_555
O39 C3_2 1_555 1_555
O10_2 Tb1_2 1_555 1_555
N1_2 Tb1_2 1_555 1_555
H1_2 N1_2 1_555 1_555
C3_2 O10_2 1_555 1_555
Tb4_2 O5_2 1_555 1_555
O34 Tb4_2 1_555 1_555
O37 C6_2 1_555 1_555
O15_2 Tb1_2 1_555 1_555
O16_2 Tb4_2 1_555 1_555
O40 Tb1_2 1_555 1_555
O20_2 Tb4_2 1_555 1_555
C6_2 O34 1_555 1_555
N2_2 Tb4_2 1_555 1_555
H6_2 N2_2 1_555 1_555
C8_2 O40 1_555 1_555
C10_2 C6_2 1_555 1_555
H9_2 C10_2 1_555 1_555
H10_2 C10_2 1_555 1_555
Tb6_2 O3_2 1_555 1_555
O41 Tb4_2 1_555 1_555
O30_2 Tb6_2 1_555 1_555
N3_2 Tb6_2 1_555 1_555
H11_2 N3_2 1_555 1_555
C13_2 O41 1_555 1_555
O5_2 Tb6_2 1_555 1_555
O39 Tb6_2 1_555 1_555
Tb4_2 O15_2 1_555 1_555
Tb4_2 O25_2 1_555 1_555
O20_2 C8_2 1_555 1_555
N2_2 C10_2 1_555 1_555
Tb6_2 O25_2 1_555 1_555
O30_2 C13_2 1_555 1_555
C3_2 H20_2 1_555 1_555
C8_2 H27_2 1_555 1_555
C13_2 H30_2 1_555 1_555
H12_2 C14_2 1_555 1_555
H13_2 C14_2 1_555 1_555
O28_2 H23_2 1_555 1_555
O28_2 H24_2 1_555 1_555
O38 C11_2 1_555 1_555
C11_2 O35 1_555 1_555
C15_2 C11_2 1_555 1_555
H14_2 C15_2 1_555 1_555
H15_2 C15_2 1_555 1_555

#END
