
###############################################################################
#
# This file contains modified crystal structure data generated from the
# MOF subset of the Cambridge Structural Database (CSD) v543 
# hosted by the Cambridge Crystallographic Data Centre (CCDC).
#
# This work is licensed under the Creative Commons
# Attribution-NonCommercial-ShareAlike 4.0 International License.
# To view a copy of this license, visit
# http://creativecommons.org/licenses/by-nc-sa/4.0/
# or send a letter to
# Creative Commons, PO Box 1866, Mountain View, CA 94042, USA.
#
# CIF created using the CSD Python API on 29 September 2022
# The structure has been converted into the P1 space group
# The structure has a 3D framework
# The original CSD entry PIMTAJ is in the monoclinic crystal system
# The framework has been calculated to contain at least 10.0% void space
# The void calculation uses a probe of radius 1.32A, grid spacing 0.4
#
###############################################################################

data_PIMTAJ
_chemical_formula_moiety         '(C44 H52 Ca4 N4 O22)n'
_symmetry_cell_setting           triclinic
_symmetry_space_group_name_H-M   'P 1'
_symmetry_Int_Tables_number      1
_space_group_name_Hall           'P 1'
loop_
_symmetry_equiv_pos_site_id
_symmetry_equiv_pos_as_xyz
1 x,y,z
_cell_length_a                   12.540(5)
_cell_length_b                   6.683(5)
_cell_length_c                   19.460(5)
_cell_angle_alpha                90
_cell_angle_beta                 116.17(2)
_cell_angle_gamma                90
_cell_volume                     1463.66
loop_
_atom_site_label
_atom_site_type_symbol
_atom_site_fract_x
_atom_site_fract_y
_atom_site_fract_z
Ca7 Ca 0.05758(3) 0.02856(6) 0.22523(2)
C12 C 0.01430(17) 0.5260(3) 0.15272(11)
C13 C 0.00670(18) 0.5128(3) 0.07351(12)
C14 C 0.0416(2) 0.6744(3) 0.04252(12)
H14 H 0.0693 0.7911 0.0709
O7 O 0.01192(14) 0.3668(2) 0.18653(8)
O8 O 0.01841(14) 0.6944(2) 0.18217(8)
C16 C 0.71657(19) 0.5218(3) 0.14188(13)
C17 C 0.60457(19) 0.5108(3) 0.06825(13)
C18 C 0.5390(2) 0.6829(3) 0.03575(13)
H16 H 0.5651 0.8059 0.0596
C19 C 0.5647(2) 0.3279(3) 0.03188(13)
H17 H 0.6079 0.2121 0.0531
O9 O 0.76412(15) 0.3618(3) 0.17509(10)
O10 O 0.75952(16) 0.6895(3) 0.16927(10)
O12 O 0.14849(14) 0.5283(2) 0.36566(9)
H25 H 0.1850 0.6260 0.3612
H26 H 0.1848 0.4291 0.3631
Ca5 Ca 0.94242(3) 0.52856(6) 0.27477(2)
Ca1 Ca 0.05758(3) 0.47144(6) 0.72523(2)
C4 C 0.0351(2) 0.6614(3) 0.96953(12)
H2 H 0.0587 0.7692 0.9493
C5 C 0.28343(19) 0.4782(3) 0.85812(13)
C6 C 0.39543(19) 0.4892(3) 0.93175(13)
C7 C 0.4610(2) 0.3171(3) 0.96425(13)
H3 H 0.4349 0.1941 0.9404
C8 C 0.4353(2) 0.6721(3) 0.96812(13)
H4 H 0.3921 0.7879 0.9469
O3 O 0.23588(15) 0.6382(3) 0.82491(10)
O4 O 0.24048(16) 0.3105(3) 0.83073(10)
O5 O 0.17624(15) 0.4435(3) 0.65909(10)
C9 C 0.2348(3) 0.2953(5) 0.65903(18)
H5 H 0.2423 0.1937 0.6935
N1 N 0.2879(3) 0.2682(5) 0.61420(19)
C10 C 0.2785(4) 0.4082(8) 0.5579(3)
H6 H 0.2314 0.3528 0.5080
H7 H 0.3563 0.4397 0.5630
H8 H 0.2413 0.5278 0.5642
C11 C 0.3500(5) 0.0802(8) 0.6166(3)
H10 H 0.4330 0.1067 0.6335
H11 H 0.3174 0.0217 0.5665
O13 O 0.01192(14) 0.1332(2) 0.68653(8)
O15 O 0.01841(14) 0.8056(2) 0.68217(8)
C15 C 0.9649(2) 0.3386(3) 0.03047(12)
H15 H 0.9413 0.2308 0.0507
O11 O 0.82376(15) 0.5565(3) 0.34091(10)
C20 C 0.7652(3) 0.7047(5) 0.34097(18)
H18 H 0.7577 0.8063 0.3065
N2 N 0.7121(3) 0.7318(5) 0.38580(19)
C21 C 0.7215(4) 0.5918(8) 0.4421(3)
H19 H 0.7686 0.6472 0.4920
H20 H 0.6437 0.5603 0.4370
H21 H 0.7587 0.4722 0.4358
C22 C 0.6500(5) 0.9198(8) 0.3834(3)
H23 H 0.5670 0.8933 0.3665
H24 H 0.6826 0.9783 0.4335
O14 O 0.98808(14) 0.8668(2) 0.31347(8)
O16 O 0.98159(14) 0.1944(2) 0.31783(8)
C1 C 0.98570(17) 0.4740(3) 0.84728(11)
C2 C 0.99330(18) 0.4872(3) 0.92649(12)
C3 C 0.9584(2) 0.3256(3) 0.95748(12)
H1 H 0.9307 0.2089 0.9291
O1 O 0.98808(14) 0.6332(2) 0.81347(8)
O2 O 0.98159(14) 0.3056(2) 0.81783(8)
O6 O 0.85151(14) 0.4717(2) 0.63434(9)
H12 H 0.8150 0.3740 0.6388
H13 H 0.8152 0.5709 0.6369
Ca4 Ca 0.94242(3) 0.97144(6) 0.77477(2)
H13_2 H 0.1848 0.0709 0.8631
O11_2 O 0.17624(15) 0.0565(3) 0.15909(10)
C20_2 C 0.2348(3) 0.2047(5) 0.15903(18)
H18_2 H 0.2423 0.3063 0.1935
N2_2 N 0.2879(3) 0.2318(5) 0.11420(19)
C21_2 C 0.2785(4) 0.0918(8) 0.0579(3)
H19_2 H 0.2314 0.1472 0.0080
H20_2 H 0.3563 0.0603 0.0630
C22_2 C 0.3500(5) 0.4198(8) 0.1166(3)
H22 H 0.3402 0.5108 0.1516
H23_2 H 0.4330 0.3933 0.1335
H24_2 H 0.3174 0.4783 0.0665
O18 O 0.24048(16) 0.1895(3) 0.33073(10)
C1_2 C 0.01430(17) 0.9740(3) 0.65272(11)
C2_2 C 0.00670(18) 0.9872(3) 0.57351(12)
C3_2 C 0.0416(2) 0.8256(3) 0.54252(12)
H1_2 H 0.0693 0.7089 0.5709
O6_2 O 0.14849(14) 0.9717(2) 0.86566(9)
H12_2 H 0.1850 0.8740 0.8612
C15_2 C 0.0351(2) 0.8386(3) 0.46953(12)
H15_2 H 0.0587 0.7308 0.4493
H21_2 H 0.2413 0.9722 0.0642
O17 O 0.23588(15) 0.8618(3) 0.32491(10)
C4_2 C 0.9649(2) 0.1614(3) 0.53047(12)
H2_2 H 0.9413 0.2692 0.5507
C8_2 C 0.5647(2) 0.1721(3) 0.53188(13)
H4_2 H 0.6079 0.2879 0.5531
O3_2 O 0.76412(15) 0.1382(3) 0.67509(10)
H8_2 H 0.7587 0.0278 0.9358
C12_2 C 0.98570(17) 0.0260(3) 0.34728(11)
C13_2 C 0.99330(18) 0.0128(3) 0.42649(12)
C14_2 C 0.9584(2) 0.1744(3) 0.45748(12)
H14_2 H 0.9307 0.2911 0.4291
C16_2 C 0.28343(19) 0.0218(3) 0.35812(13)
C17_2 C 0.39543(19) 0.0108(3) 0.43175(13)
C18_2 C 0.4610(2) 0.1829(3) 0.46425(13)
H16_2 H 0.4349 0.3059 0.4404
O12_2 O 0.85151(14) 0.0283(2) 0.13434(9)
H25_2 H 0.8150 0.1260 0.1388
C5_2 C 0.71657(19) 0.9782(3) 0.64188(13)
C6_2 C 0.60457(19) 0.9892(3) 0.56825(13)
C7_2 C 0.5390(2) 0.8171(3) 0.53575(13)
H3_2 H 0.5651 0.6941 0.5596
O4_2 O 0.75952(16) 0.8105(3) 0.66927(10)
O5_2 O 0.82376(15) 0.9435(3) 0.84091(10)
C9_2 C 0.7652(3) 0.7953(5) 0.84097(18)
H5_2 H 0.7577 0.6937 0.8065
N1_2 N 0.7121(3) 0.7682(5) 0.88580(19)
C10_2 C 0.7215(4) 0.9082(8) 0.9421(3)
H6_2 H 0.7686 0.8528 0.9920
H7_2 H 0.6437 0.9397 0.9370
C11_2 C 0.6500(5) 0.5802(8) 0.8834(3)
H9 H 0.6598 0.4892 0.8484
H10_2 H 0.5670 0.6067 0.8665
H11_2 H 0.6826 0.5217 0.9335
C19_2 C 0.4353(2) 0.8279(3) 0.46812(13)
H17_2 H 0.3921 0.7121 0.4469
H26_2 H 0.8152 0.9291 0.1369
H9_2 H 0.3402 0.9892 0.6516
H22_2 H 0.6598 0.0108 0.3484
loop_
_geom_bond_atom_site_label_1
_geom_bond_atom_site_label_2
_geom_bond_site_symmetry_1
_geom_bond_site_symmetry_2
C12 C13 1_555 1_555
C13 C14 1_555 1_555
H14 C14 1_555 1_555
O7 C12 1_555 1_555
O8 C12 1_555 1_555
C16 C17 1_555 1_555
C17 C18 1_555 1_555
H16 C18 1_555 1_555
H17 C19 1_555 1_555
O9 C16 1_555 1_555
O10 C16 1_555 1_555
H25 O12 1_555 1_555
H26 O12 1_555 1_555
Ca5 O9 1_555 1_555
Ca7 O7 1_555 1_555
C17 C19 1_555 1_555
O10 Ca5 1_555 1_555
H2 C4 1_555 1_555
C5 C6 1_555 1_555
C6 C7 1_555 1_555
C7 H3 1_555 1_555
C8 C6 1_555 1_555
H4 C8 1_555 1_555
O3 Ca1 1_555 1_555
O4 Ca1 1_555 1_555
O5 Ca1 1_555 1_555
C9 O5 1_555 1_555
H5 C9 1_555 1_555
N1 C9 1_555 1_555
C10 N1 1_555 1_555
H6 C10 1_555 1_555
H7 C10 1_555 1_555
H8 C10 1_555 1_555
C11 N1 1_555 1_555
H10 C11 1_555 1_555
H11 C11 1_555 1_555
O13 Ca1 1_555 1_555
O15 Ca1 1_555 1_555
C5 O3 1_555 1_555
C5 O4 1_555 1_555
H15 C15 1_555 1_555
O11 Ca5 1_555 1_555
C20 O11 1_555 1_555
H18 C20 1_555 1_555
N2 C20 1_555 1_555
C21 N2 1_555 1_555
H19 C21 1_555 1_555
H20 C21 1_555 1_555
H21 C21 1_555 1_555
C22 N2 1_555 1_555
H23 C22 1_555 1_555
H24 C22 1_555 1_555
O14 Ca5 1_555 1_555
O16 Ca5 1_555 1_555
C1 C2 1_555 1_555
C2 C3 1_555 1_555
C3 H1 1_555 1_555
O1 C1 1_555 1_555
H12 O6 1_555 1_555
H13 O6 1_555 1_555
Ca4 O1 1_555 1_555
C1 O2 1_555 1_555
O11_2 Ca7 1_555 1_555
C20_2 O11_2 1_555 1_555
H18_2 C20_2 1_555 1_555
N2_2 C20_2 1_555 1_555
C21_2 N2_2 1_555 1_555
H19_2 C21_2 1_555 1_555
H20_2 C21_2 1_555 1_555
C22_2 N2_2 1_555 1_555
H22 C22_2 1_555 1_555
H23_2 C22_2 1_555 1_555
H24_2 C22_2 1_555 1_555
O18 Ca7 1_555 1_555
C1_2 C2_2 1_555 1_555
C2_2 C3_2 1_555 1_555
C3_2 H1_2 1_555 1_555
H12_2 O6_2 1_555 1_555
C15_2 C3_2 1_555 1_555
H15_2 C15_2 1_555 1_555
C1_2 O15 1_555 1_555
H2_2 C4_2 1_555 1_555
H4_2 C8_2 1_555 1_555
C12_2 C13_2 1_555 1_555
C13_2 C14_2 1_555 1_555
C14_2 C4_2 1_555 1_555
H14_2 C14_2 1_555 1_555
O16 C12_2 1_555 1_555
C16_2 C17_2 1_555 1_555
C17_2 C18_2 1_555 1_555
C18_2 C8_2 1_555 1_555
H16_2 C18_2 1_555 1_555
O18 C16_2 1_555 1_555
H25_2 O12_2 1_555 1_555
C5_2 C6_2 1_555 1_555
C6_2 C7_2 1_555 1_555
C7_2 H3_2 1_555 1_555
O4_2 Ca4 1_555 1_555
O5_2 Ca4 1_555 1_555
C9_2 O5_2 1_555 1_555
H5_2 C9_2 1_555 1_555
N1_2 C9_2 1_555 1_555
C10_2 N1_2 1_555 1_555
H6_2 C10_2 1_555 1_555
H7_2 C10_2 1_555 1_555
C11_2 N1_2 1_555 1_555
H9 C11_2 1_555 1_555
H10_2 C11_2 1_555 1_555
H11_2 C11_2 1_555 1_555
C19_2 C7_2 1_555 1_555
H17_2 C19_2 1_555 1_555
C5_2 O4_2 1_555 1_555

#END
