
###############################################################################
#
# This file contains modified crystal structure data generated from the
# MOF subset of the Cambridge Structural Database (CSD) v543 
# hosted by the Cambridge Crystallographic Data Centre (CCDC).
#
# This work is licensed under the Creative Commons
# Attribution-NonCommercial-ShareAlike 4.0 International License.
# To view a copy of this license, visit
# http://creativecommons.org/licenses/by-nc-sa/4.0/
# or send a letter to
# Creative Commons, PO Box 1866, Mountain View, CA 94042, USA.
#
# CIF created using the CSD Python API on 29 September 2022
# The structure has been converted into the P1 space group
# The structure has a 3D framework
# The original CSD entry PIPKOR is in the trigonal crystal system
# The framework has been calculated to contain at least 10.0% void space
# The void calculation uses a probe of radius 1.32A, grid spacing 0.4
# The framework is charged, counterions have been retained in the structure
# H atom positions have been added when not included in the experimental data
# Generated hydrogen atom positions removed from atoms on special positions
#
###############################################################################

data_PIPKOR
_chemical_formula_moiety         '(C72 H84 Cu6 I3 In12 N12 O32 8+)n'
_symmetry_cell_setting           triclinic
_symmetry_space_group_name_H-M   'P 1'
_symmetry_Int_Tables_number      1
_space_group_name_Hall           'P 1'
loop_
_symmetry_equiv_pos_site_id
_symmetry_equiv_pos_as_xyz
1 x,y,z
_cell_length_a                   27.6348(7)
_cell_length_b                   27.6348(7)
_cell_length_c                   13.7629(4)
_cell_angle_alpha                90
_cell_angle_beta                 90
_cell_angle_gamma                120
_cell_volume                     9102.34
loop_
_atom_site_label
_atom_site_type_symbol
_atom_site_fract_x
_atom_site_fract_y
_atom_site_fract_z
I4 I -0.00000(4) 0.58342(3) 0.5000
I6 I -0.00000(4) 0.41658(3) 0.5000
In1 In 0.58172(3) 0.29086(2) -0.00002(4)
O1 O 0.5757(2) 0.3437(3) 0.1115(4)
C2 C 0.6085(3) 0.3915(3) 0.1415(8)
C4 C 0.5880(2) 0.4120(2) 0.2253(8)
C6 C 0.5361(4) 0.3781(5) 0.2618(7)
H2 H 0.5118 0.3431 0.2359
N1 N 0.5507(3) 0.4493(3) 0.3801(8)
C8 C 0.5219(5) 0.4008(5) 0.3437(8)
H4 H 0.4878 0.3773 0.3734
O3 O 0.6667 0.3333 0.0005(6)
O5 O 0.6563(3) 0.4243(2) 0.1115(4)
C9 C 0.6219(5) 0.4639(4) 0.2618(7)
H5 H 0.6569 0.4882 0.2359
C10 C 0.5992(5) 0.4781(5) 0.3437(8)
H6 H 0.6227 0.5122 0.3734
In2 In 0.70914(2) 0.29086(4) -0.00002(4)
O7 O 0.6563(3) 0.2320(4) 0.1115(4)
C14 C 0.6085(3) 0.2170(4) 0.1415(8)
C16 C 0.5880(2) 0.1760(3) 0.2253(8)
C18 C 0.6219(5) 0.1580(6) 0.2618(7)
H10 H 0.6569 0.1687 0.2359
N3 N 0.5507(3) 0.1014(4) 0.3801(8)
C20 C 0.5992(5) 0.1211(7) 0.3437(8)
H12 H 0.6227 0.1105 0.3734
O10 O 0.5757(2) 0.2320(4) 0.1115(4)
C21 C 0.5361(4) 0.1580(6) 0.2618(7)
H13 H 0.5118 0.1687 0.2359
C22 C 0.5219(5) 0.1211(7) 0.3437(8)
H14 H 0.4878 0.1105 0.3734
In3 In 0.70914(4) 0.41828(3) -0.00002(4)
O12 O 0.7680(4) 0.4243(2) 0.1115(4)
C26 C 0.7830(4) 0.3915(3) 0.1415(8)
C28 C 0.8240(3) 0.4120(2) 0.2253(8)
C30 C 0.8420(6) 0.4639(4) 0.2618(7)
H18 H 0.8313 0.4882 0.2359
N5 N 0.8986(4) 0.4493(3) 0.3801(8)
C32 C 0.8789(7) 0.4781(5) 0.3437(8)
H20 H 0.8895 0.5122 0.3734
O15 O 0.7680(4) 0.3437(3) 0.1115(4)
C33 C 0.8420(6) 0.3781(5) 0.2618(7)
H21 H 0.8313 0.3431 0.2359
C34 C 0.8789(7) 0.4008(5) 0.3437(8)
H22 H 0.8895 0.3773 0.3734
Cu4 Cu 0.52704(3) 0.47296(3) 0.49997(11)
Cu5 Cu 0.52704(3) 0.05408(4) 0.49997(11)
Cu6 Cu 0.94592(4) 0.47296(3) 0.49997(11)
H29 H 0.771941 0.526527 0.0642587
In1_2 In 0.58172(3) 0.29086(2) 0.99998(4)
I1 I 0.41658(3) 0.41658(3) 0.5000
O2 O 0.5759(3) 0.3435(3) 0.8890(3)
C1 C 0.5877(2) 0.4123(2) 0.7767(8)
C3 C 0.6087(3) 0.3913(3) 0.8570(8)
C5 C 0.5355(4) 0.3797(5) 0.7390(7)
H1 H 0.5112 0.3448 0.7654
N2 N 0.5518(3) 0.4482(3) 0.6225(7)
C7 C 0.5199(5) 0.3997(5) 0.6615(8)
H3 H 0.4845 0.3773 0.6353
O4 O 0.4876(4) 0.24379(18) 0.9987(6)
O6 O 0.6565(3) 0.4241(3) 0.8890(3)
C11 C 0.6203(5) 0.4645(4) 0.7390(7)
H7 H 0.6552 0.4888 0.7654
C12 C 0.6003(5) 0.4801(5) 0.6615(8)
H8 H 0.6227 0.5155 0.6353
In2_2 In 0.70914(2) 0.29086(4) 0.99998(4)
I2 I 0.58342(3) 0.00000(4) 0.5000
O8 O 0.6565(3) 0.2324(4) 0.8890(3)
C13 C 0.5877(2) 0.1754(3) 0.7767(8)
C15 C 0.6087(3) 0.2174(4) 0.8570(8)
C17 C 0.6203(5) 0.1558(6) 0.7390(7)
H9 H 0.6552 0.1664 0.7654
N4 N 0.5518(3) 0.1036(4) 0.6225(7)
C19 C 0.6003(5) 0.1202(7) 0.6615(8)
H11 H 0.6227 0.1072 0.6353
O9 O 0.75621(18) 0.24381(44) 0.9987(6)
O11 O 0.5759(3) 0.2324(4) 0.8890(3)
C23 C 0.5355(4) 0.1558(6) 0.7390(7)
H15 H 0.5112 0.1664 0.7654
C24 C 0.5199(5) 0.1202(7) 0.6615(8)
H16 H 0.4845 0.1072 0.6353
In3_2 In 0.70914(4) 0.41828(3) 0.99998(4)
O13 O 0.7676(4) 0.4241(3) 0.8890(3)
C25 C 0.8246(3) 0.4123(2) 0.7767(8)
C27 C 0.7826(4) 0.3913(3) 0.8570(8)
C29 C 0.8442(6) 0.4645(4) 0.7390(7)
H17 H 0.8336 0.4888 0.7654
N6 N 0.8964(4) 0.4482(3) 0.6225(7)
C31 C 0.8798(7) 0.4801(5) 0.6615(8)
H19 H 0.8928 0.5155 0.6353
O14 O 0.75619(44) 0.5124(4) 0.9987(6)
O16 O 0.7676(4) 0.3435(3) 0.8890(3)
C35 C 0.8442(6) 0.3797(5) 0.7390(7)
H23 H 0.8336 0.3448 0.7654
C36 C 0.8798(7) 0.3997(5) 0.6615(8)
H24 H 0.8928 0.3773 0.6353
I3 I 0.58342(3) 0.58342(3) 0.5000
I4_2 I 1.00000(4) 0.58342(3) 0.5000
I5 I 0.41658(3) 0.00000(4) 0.5000
I6_2 I 1.00000(4) 0.41658(3) 0.5000
Cu7 Cu 0.47296(3) 0.52704(3) 0.50003(11)
I2_2 I 0.58342(3) 1.00000(4) 0.5000
I5_2 I 0.41658(3) 1.00000(4) 0.5000
Cu8 Cu 0.47296(3) 0.94592(4) 0.50003(11)
Cu8_2 Cu 0.05408(4) 0.52704(5) 0.50003(11)
H29_2 H 0.473473 0.245414 0.0642587
H29_3 H 0.754586 0.228059 0.0642587
In1_3 In 0.29086(2) 0.58172(3) 0.00002(4)
O2_2 O 0.3435(3) 0.5759(3) 0.1110(3)
C1_2 C 0.4123(2) 0.5877(2) 0.2233(8)
C3_2 C 0.3913(3) 0.6087(3) 0.1430(8)
C5_2 C 0.3797(5) 0.5355(4) 0.2610(7)
H1_2 H 0.3448 0.5112 0.2346
N2_2 N 0.4482(3) 0.5518(3) 0.3775(7)
C7_2 C 0.3997(5) 0.5199(5) 0.3385(8)
H3_2 H 0.3773 0.4845 0.3647
O4_2 O 0.24379(18) 0.4876(4) 0.0013(6)
O6_2 O 0.4241(3) 0.6565(3) 0.1110(3)
C11_2 C 0.4645(4) 0.6203(5) 0.2610(7)
H7_2 H 0.4888 0.6552 0.2346
C12_2 C 0.4801(5) 0.6003(5) 0.3385(8)
H8_2 H 0.5155 0.6227 0.3647
In2_3 In 0.29086(4) 0.70914(2) 0.00002(4)
O8_2 O 0.2324(4) 0.6565(3) 0.1110(3)
C13_2 C 0.1754(3) 0.5877(2) 0.2233(8)
C15_2 C 0.2174(4) 0.6087(3) 0.1430(8)
C17_2 C 0.1558(6) 0.6203(5) 0.2610(7)
H9_2 H 0.1664 0.6552 0.2346
N4_2 N 0.1036(4) 0.5518(3) 0.3775(7)
C19_2 C 0.1202(7) 0.6003(5) 0.3385(8)
H11_2 H 0.1072 0.6227 0.3647
O9_2 O 0.24381(44) 0.75621(18) 0.0013(6)
O11_2 O 0.2324(4) 0.5759(3) 0.1110(3)
C23_2 C 0.1558(6) 0.5355(4) 0.2610(7)
H15_2 H 0.1664 0.5112 0.2346
C24_2 C 0.1202(7) 0.5199(5) 0.3385(8)
H16_2 H 0.1072 0.4845 0.3647
In3_3 In 0.41828(3) 0.70914(4) 0.00002(4)
O13_2 O 0.4241(3) 0.7676(4) 0.1110(3)
C25_2 C 0.4123(2) 0.8246(3) 0.2233(8)
C27_2 C 0.3913(3) 0.7826(4) 0.1430(8)
C29_2 C 0.4645(4) 0.8442(6) 0.2610(7)
H17_2 H 0.4888 0.8336 0.2346
N6_2 N 0.4482(3) 0.8964(4) 0.3775(7)
C31_2 C 0.4801(5) 0.8798(7) 0.3385(8)
H19_2 H 0.5155 0.8928 0.3647
O14_2 O 0.5124(4) 0.75619(44) 0.0013(6)
O16_2 O 0.3435(3) 0.7676(4) 0.1110(3)
C35_2 C 0.3797(5) 0.8442(6) 0.2610(7)
H23_2 H 0.3448 0.8336 0.2346
C36_2 C 0.3997(5) 0.8798(7) 0.3385(8)
H24_2 H 0.3773 0.8928 0.3647
N7 N 0.4493(3) 0.5507(3) 0.6199(8)
N8 N 0.1014(4) 0.5507(3) 0.6199(8)
N9 N 0.4493(3) 0.8986(4) 0.6199(8)
In1_4 In 0.29086(2) 0.58172(3) 1.00002(4)
O1_2 O 0.3437(3) 0.5757(2) 0.8885(4)
C2_2 C 0.3915(3) 0.6085(3) 0.8585(8)
C4_2 C 0.4120(2) 0.5880(2) 0.7747(8)
C6_2 C 0.3781(5) 0.5361(4) 0.7382(7)
H2_2 H 0.3431 0.5118 0.7641
C8_2 C 0.4008(5) 0.5219(5) 0.6563(8)
H4_2 H 0.3773 0.4878 0.6266
O3_2 O 0.3333 0.6667 0.9995(6)
O5_2 O 0.4243(2) 0.6563(3) 0.8885(4)
C9_2 C 0.4639(4) 0.6219(5) 0.7382(7)
H5_2 H 0.4882 0.6569 0.7641
C10_2 C 0.4781(5) 0.5992(5) 0.6563(8)
H6_2 H 0.5122 0.6227 0.6266
In2_4 In 0.29086(4) 0.70914(2) 1.00002(4)
O7_2 O 0.2320(4) 0.6563(3) 0.8885(4)
C14_2 C 0.2170(4) 0.6085(3) 0.8585(8)
C16_2 C 0.1760(3) 0.5880(2) 0.7747(8)
C18_2 C 0.1580(6) 0.6219(5) 0.7382(7)
H10_2 H 0.1687 0.6569 0.7641
C20_2 C 0.1211(7) 0.5992(5) 0.6563(8)
H12_2 H 0.1105 0.6227 0.6266
O10_2 O 0.2320(4) 0.5757(2) 0.8885(4)
C21_2 C 0.1580(6) 0.5361(4) 0.7382(7)
H13_2 H 0.1687 0.5118 0.7641
C22_2 C 0.1211(7) 0.5219(5) 0.6563(8)
H14_2 H 0.1105 0.4878 0.6266
In3_4 In 0.41828(3) 0.70914(4) 1.00002(4)
O12_2 O 0.4243(2) 0.7680(4) 0.8885(4)
C26_2 C 0.3915(3) 0.7830(4) 0.8585(8)
C28_2 C 0.4120(2) 0.8240(3) 0.7747(8)
C30_2 C 0.4639(4) 0.8420(6) 0.7382(7)
H18_2 H 0.4882 0.8313 0.7641
C32_2 C 0.4781(5) 0.8789(7) 0.6563(8)
H20_2 H 0.5122 0.8895 0.6266
O15_2 O 0.3437(3) 0.7680(4) 0.8885(4)
C33_2 C 0.3781(5) 0.8420(6) 0.7382(7)
H21_2 H 0.3431 0.8313 0.7641
C34_2 C 0.4008(5) 0.8789(7) 0.6563(8)
H22_2 H 0.3773 0.8895 0.6266
H29_4 H 0.526527 0.771941 0.935741
H29_5 H 0.245414 0.473473 0.935741
H29_6 H 0.228059 0.754586 0.935741
H29_7 H 0.228059 0.473473 0.935741
H29_8 H 0.526527 0.754586 0.935741
H29_9 H 0.245414 0.771941 0.935741
H29_10 H 0.473473 0.228059 0.0642587
H29_11 H 0.754586 0.526527 0.0642587
H29_12 H 0.771941 0.245414 0.0642587
loop_
_geom_bond_atom_site_label_1
_geom_bond_atom_site_label_2
_geom_bond_site_symmetry_1
_geom_bond_site_symmetry_2
In1 O1 1_555 1_555
O1 C2 1_555 1_555
C2 C4 1_555 1_555
C4 C6 1_555 1_555
C6 H2 1_555 1_555
N1 C8 1_555 1_555
C8 C6 1_555 1_555
H4 C8 1_555 1_555
O3 In1 1_555 1_555
O5 C2 1_555 1_555
C9 C4 1_555 1_555
H5 C9 1_555 1_555
C10 N1 1_555 1_555
H6 C10 1_555 1_555
In2 O3 1_555 1_555
O7 In2 1_555 1_555
C14 O7 1_555 1_555
C16 C14 1_555 1_555
C18 C16 1_555 1_555
H10 C18 1_555 1_555
N3 C20 1_555 1_555
C20 C18 1_555 1_555
H12 C20 1_555 1_555
O10 In1 1_555 1_555
C21 C16 1_555 1_555
H13 C21 1_555 1_555
C22 N3 1_555 1_555
H14 C22 1_555 1_555
In3 O3 1_555 1_555
O12 In3 1_555 1_555
C26 O12 1_555 1_555
C28 C26 1_555 1_555
C30 C28 1_555 1_555
H18 C30 1_555 1_555
N5 C32 1_555 1_555
C32 C30 1_555 1_555
H20 C32 1_555 1_555
O15 In2 1_555 1_555
C33 C28 1_555 1_555
H21 C33 1_555 1_555
C34 N5 1_555 1_555
H22 C34 1_555 1_555
Cu4 N1 1_555 1_555
Cu5 N3 1_555 1_555
Cu6 N5 1_555 1_555
O5 In3 1_555 1_555
C9 C10 1_555 1_555
C14 O10 1_555 1_555
C21 C22 1_555 1_555
C26 O15 1_555 1_555
C33 C34 1_555 1_555
I1 Cu4 1_555 1_555
O2 In1_2 1_555 1_555
C1 C3 1_555 1_555
C3 O2 1_555 1_555
C5 C1 1_555 1_555
H1 C5 1_555 1_555
N2 C7 1_555 1_555
C7 C5 1_555 1_555
H3 C7 1_555 1_555
Cu4 N2 1_555 1_555
O4 In1_2 1_555 1_555
O6 C3 1_555 1_555
C11 C1 1_555 1_555
H7 C11 1_555 1_555
C12 N2 1_555 1_555
H8 C12 1_555 1_555
I2 Cu5 1_555 1_555
O8 In2_2 1_555 1_555
C13 C15 1_555 1_555
C15 O8 1_555 1_555
C17 C13 1_555 1_555
H9 C17 1_555 1_555
N4 C19 1_555 1_555
C19 C17 1_555 1_555
H11 C19 1_555 1_555
Cu5 N4 1_555 1_555
O9 In2_2 1_555 1_555
O11 In1_2 1_555 1_555
C23 C13 1_555 1_555
H15 C23 1_555 1_555
C24 N4 1_555 1_555
H16 C24 1_555 1_555
O13 In3_2 1_555 1_555
C25 C27 1_555 1_555
C27 O13 1_555 1_555
C29 C25 1_555 1_555
H17 C29 1_555 1_555
N6 C31 1_555 1_555
C31 C29 1_555 1_555
H19 C31 1_555 1_555
Cu6 N6 1_555 1_555
O14 In3_2 1_555 1_555
O16 In2_2 1_555 1_555
C35 C25 1_555 1_555
H23 C35 1_555 1_555
C36 N6 1_555 1_555
H24 C36 1_555 1_555
I3 Cu4 1_555 1_555
I4_2 Cu6 1_555 1_555
I5 Cu5 1_555 1_555
I6_2 Cu6 1_555 1_555
Cu7 I1 1_555 1_555
O6 In3_2 1_555 1_555
C11 C12 1_555 1_555
C15 O11 1_555 1_555
C23 C24 1_555 1_555
C27 O16 1_555 1_555
C35 C36 1_555 1_555
I3 Cu7 1_555 1_555
Cu8 I2_2 1_555 1_555
I5_2 Cu8 1_555 1_555
Cu8_2 I4 1_555 1_555
I6 Cu8_2 1_555 1_555
O2_2 In1_3 1_555 1_555
C1_2 C3_2 1_555 1_555
C3_2 O2_2 1_555 1_555
C5_2 C1_2 1_555 1_555
H1_2 C5_2 1_555 1_555
N2_2 C7_2 1_555 1_555
C7_2 C5_2 1_555 1_555
H3_2 C7_2 1_555 1_555
Cu7 N2_2 1_555 1_555
O4_2 In1_3 1_555 1_555
O6_2 C3_2 1_555 1_555
C11_2 C1_2 1_555 1_555
H7_2 C11_2 1_555 1_555
C12_2 N2_2 1_555 1_555
H8_2 C12_2 1_555 1_555
O8_2 In2_3 1_555 1_555
C13_2 C15_2 1_555 1_555
C15_2 O8_2 1_555 1_555
C17_2 C13_2 1_555 1_555
H9_2 C17_2 1_555 1_555
N4_2 C19_2 1_555 1_555
C19_2 C17_2 1_555 1_555
H11_2 C19_2 1_555 1_555
Cu8_2 N4_2 1_555 1_555
O9_2 In2_3 1_555 1_555
O11_2 In1_3 1_555 1_555
C23_2 C13_2 1_555 1_555
H15_2 C23_2 1_555 1_555
C24_2 N4_2 1_555 1_555
H16_2 C24_2 1_555 1_555
O13_2 In3_3 1_555 1_555
C25_2 C27_2 1_555 1_555
C27_2 O13_2 1_555 1_555
C29_2 C25_2 1_555 1_555
H17_2 C29_2 1_555 1_555
N6_2 C31_2 1_555 1_555
C31_2 C29_2 1_555 1_555
H19_2 C31_2 1_555 1_555
Cu8 N6_2 1_555 1_555
O14_2 In3_3 1_555 1_555
O16_2 In2_3 1_555 1_555
C35_2 C25_2 1_555 1_555
H23_2 C35_2 1_555 1_555
C36_2 N6_2 1_555 1_555
H24_2 C36_2 1_555 1_555
N7 Cu7 1_555 1_555
N8 Cu8_2 1_555 1_555
N9 Cu8 1_555 1_555
O6_2 In3_3 1_555 1_555
C11_2 C12_2 1_555 1_555
C15_2 O11_2 1_555 1_555
C23_2 C24_2 1_555 1_555
C27_2 O16_2 1_555 1_555
C35_2 C36_2 1_555 1_555
In1_4 O1_2 1_555 1_555
O1_2 C2_2 1_555 1_555
C2_2 C4_2 1_555 1_555
C4_2 C6_2 1_555 1_555
C6_2 H2_2 1_555 1_555
N7 C8_2 1_555 1_555
C8_2 C6_2 1_555 1_555
H4_2 C8_2 1_555 1_555
O3_2 In1_4 1_555 1_555
O5_2 C2_2 1_555 1_555
C9_2 C4_2 1_555 1_555
H5_2 C9_2 1_555 1_555
C10_2 N7 1_555 1_555
H6_2 C10_2 1_555 1_555
In2_4 O3_2 1_555 1_555
O7_2 In2_4 1_555 1_555
C14_2 O7_2 1_555 1_555
C16_2 C14_2 1_555 1_555
C18_2 C16_2 1_555 1_555
H10_2 C18_2 1_555 1_555
N8 C20_2 1_555 1_555
C20_2 C18_2 1_555 1_555
H12_2 C20_2 1_555 1_555
O10_2 In1_4 1_555 1_555
C21_2 C16_2 1_555 1_555
H13_2 C21_2 1_555 1_555
C22_2 N8 1_555 1_555
H14_2 C22_2 1_555 1_555
In3_4 O3_2 1_555 1_555
O12_2 In3_4 1_555 1_555
C26_2 O12_2 1_555 1_555
C28_2 C26_2 1_555 1_555
C30_2 C28_2 1_555 1_555
H18_2 C30_2 1_555 1_555
N9 C32_2 1_555 1_555
C32_2 C30_2 1_555 1_555
H20_2 C32_2 1_555 1_555
O15_2 In2_4 1_555 1_555
C33_2 C28_2 1_555 1_555
H21_2 C33_2 1_555 1_555
C34_2 N9 1_555 1_555
H22_2 C34_2 1_555 1_555
O5_2 In3_4 1_555 1_555
C9_2 C10_2 1_555 1_555
C14_2 O10_2 1_555 1_555
C21_2 C22_2 1_555 1_555
C26_2 O15_2 1_555 1_555
C33_2 C34_2 1_555 1_555

#END
