
###############################################################################
#
# This file contains modified crystal structure data generated from the
# MOF subset of the Cambridge Structural Database (CSD) v543 
# hosted by the Cambridge Crystallographic Data Centre (CCDC).
#
# This work is licensed under the Creative Commons
# Attribution-NonCommercial-ShareAlike 4.0 International License.
# To view a copy of this license, visit
# http://creativecommons.org/licenses/by-nc-sa/4.0/
# or send a letter to
# Creative Commons, PO Box 1866, Mountain View, CA 94042, USA.
#
# CIF created using the CSD Python API on 29 September 2022
# The structure has been converted into the P1 space group
# The structure has a 3D framework
# The original CSD entry PIQQEN is in the monoclinic crystal system
# The framework has been calculated to contain at least 10.0% void space
# The void calculation uses a probe of radius 1.32A, grid spacing 0.4
# H atom positions have been added when not included in the experimental data
#
###############################################################################

data_PIQQEN
_chemical_formula_moiety         '(C108 H68 Cd6 O40)n'
_symmetry_cell_setting           triclinic
_symmetry_space_group_name_H-M   'P 1'
_symmetry_Int_Tables_number      1
_space_group_name_Hall           'P 1'
loop_
_symmetry_equiv_pos_site_id
_symmetry_equiv_pos_as_xyz
1 x,y,z
_cell_length_a                   15.4481(10)
_cell_length_b                   11.4391(7)
_cell_length_c                   19.1156(13)
_cell_angle_alpha                90
_cell_angle_beta                 94.6250(10)
_cell_angle_gamma                90
_cell_volume                     3366.96
loop_
_atom_site_label
_atom_site_type_symbol
_atom_site_fract_x
_atom_site_fract_y
_atom_site_fract_z
C1 C 0.38031(19) 0.3251(3) 0.13364(15)
C2 C 0.31776(19) 0.2255(3) 0.11949(16)
C3 C 0.2708(2) 0.2150(4) 0.05520(18)
H1 H 0.2799 0.2680 0.0196
C4 C 0.2104(3) 0.1262(4) 0.0431(2)
C5 C 0.1977(2) 0.0486(3) 0.0958(2)
C6 C 0.2446(3) 0.0559(3) 0.1600(2)
H3 H 0.2363 0.0014 0.1949
C7 C 0.3042(3) 0.1454(3) 0.17178(19)
C9 C 0.0305(2) 0.0853(3) 0.1322(2)
O1 O 0.39701(15) 0.3864(2) 0.08157(11)
O2 O 0.41077(16) 0.3394(2) 0.19562(12)
O4 O 0.54435(17) 0.7086(2) 0.04058(13)
Cd1 Cd 0.5000 0.46801(3) 0.2500
Cd2 Cd 0.456658(13) 0.566368(18) 0.077100(10)
H13 H 0.067(3) 0.150(4) 0.133(2)
H14 H 0.336(3) 0.156(4) 0.214(2)
C37 C 0.0520(2) 0.0945(3) 0.34524(19)
C38 C 0.1082(2) 0.0006(3) 0.34558(18)
H19 H 0.1634 0.0081 0.3299
C47 C 0.1519(2) 0.2535(3) 0.34081(19)
C48 C 0.1861(2) 0.2507(4) 0.40989(19)
H24 H 0.1587 0.2082 0.4432
C49 C 0.2618(2) 0.3124(3) 0.42876(17)
H25 H 0.2852 0.3115 0.4751
C50 C 0.30269(19) 0.3755(3) 0.37892(15)
C51 C 0.38566(18) 0.4401(3) 0.39814(15)
C52 C 0.2667(2) 0.3779(3) 0.31025(17)
H26 H 0.2935 0.4209 0.2768
C53 C 0.1912(2) 0.3167(4) 0.29090(18)
H27 H 0.1672 0.3183 0.2447
O18 O 0.07395(16) 0.2014(2) 0.31736(16)
O19 O 0.41373(15) 0.4517(2) 0.46096(11)
O20 O 0.42575(13) 0.4846(2) 0.34978(11)
O21 O 0.58923(16) 0.3394(2) 0.30438(12)
O23 O 0.57244(14) 0.6193(2) 0.30835(11)
O24 O 0.42756(14) 0.6193(2) 0.19165(11)
O26 O 0.33432(15) 0.6747(2) 0.10578(11)
O27 O 0.58627(15) 0.4517(2) 0.03904(11)
O31 O 0.57425(13) 0.4846(2) 0.15022(11)
Cd10 Cd 0.543342(13) 0.566368(18) 0.422900(10)
Cd12 Cd 0.456658(13) 0.433632(18) 0.577100(10)
H32 H 0.534484 0.781948 0.0665599
H2 H 0.1790 0.1194 0.9998
O29 O 0.41373(15) 0.5483(2) 0.96096(11)
H31 H 0.53111 0.722012 0.989514
C8 C 0.0563(2) 0.9780(3) 0.10762(18)
C13 C 0.0019(2) 0.8813(3) 0.10562(16)
H5 H 0.0196 0.8098 0.0885
O6 O 0.13711(16) 0.9594(2) 0.08354(16)
C39 C 0.0792(2) 0.8945(3) 0.37024(16)
C41 C 0.1868(2) 0.7742(3) 0.32297(16)
C42 C 0.2702(2) 0.7398(3) 0.34381(17)
H21 H 0.2893 0.7382 0.3912
C43 C 0.3254(2) 0.7076(3) 0.29350(17)
H22 H 0.3821 0.6852 0.3073
C44 C 0.29705(19) 0.7084(3) 0.22303(15)
C45 C 0.2135(2) 0.7455(3) 0.20266(17)
C46 C 0.1578(2) 0.7791(4) 0.25247(17)
H23 H 0.1018 0.8044 0.2388
C54 C 0.35538(19) 0.6658(3) 0.17010(15)
O17 O 0.13306(16) 0.7974(2) 0.37601(12)
H30 H 0.194(3) 0.743(4) 0.156(2)
C10 C 0.9480(2) 0.0945(3) 0.15476(19)
C11 C 0.8918(2) 0.0006(3) 0.15442(18)
H4 H 0.8366 0.0081 0.1701
C20 C 0.8481(2) 0.2535(3) 0.15919(19)
C21 C 0.8139(2) 0.2507(4) 0.09011(19)
H9 H 0.8413 0.2082 0.0568
C22 C 0.7382(2) 0.3124(3) 0.07124(17)
H10 H 0.7148 0.3115 0.0249
C23 C 0.69731(19) 0.3755(3) 0.12108(15)
C24 C 0.61434(18) 0.4401(3) 0.10186(15)
C25 C 0.7333(2) 0.3779(3) 0.18975(17)
H11 H 0.7065 0.4209 0.2232
C26 C 0.8088(2) 0.3167(4) 0.20910(18)
H12 H 0.8328 0.3183 0.2553
O8 O 0.92605(16) 0.2014(2) 0.18264(16)
C28 C 0.61969(19) 0.3251(3) 0.36636(15)
C29 C 0.68224(19) 0.2255(3) 0.38051(16)
C30 C 0.7292(2) 0.2150(4) 0.44480(18)
H16 H 0.7201 0.2680 0.4804
C31 C 0.7896(3) 0.1262(4) 0.4569(2)
H17 H 0.8210 0.1194 0.5002
C32 C 0.8023(2) 0.0486(3) 0.4042(2)
C33 C 0.7554(3) 0.0559(3) 0.3400(2)
H18 H 0.7637 0.0014 0.3051
C34 C 0.6958(3) 0.1454(3) 0.32822(19)
C36 C 0.9695(2) 0.0853(3) 0.3678(2)
O11 O 0.60299(15) 0.3864(2) 0.41843(11)
O14 O 0.45565(17) 0.7086(2) 0.45942(13)
H28 H 0.933(3) 0.150(4) 0.367(2)
H29 H 0.664(3) 0.156(4) 0.286(2)
O25 O 0.66568(15) 0.6747(2) 0.39422(11)
O30 O 0.58627(15) 0.5483(2) 0.53904(11)
H33 H 0.46889 0.722012 0.510486
H34 H 0.465516 0.781948 0.43344
Cd11 Cd 0.543342(13) 0.433632(18) 0.922900(10)
C12 C 0.9208(2) 0.8945(3) 0.12976(16)
C14 C 0.8132(2) 0.7742(3) 0.17703(16)
C15 C 0.7298(2) 0.7398(3) 0.15619(17)
H6 H 0.7107 0.7382 0.1088
C16 C 0.6746(2) 0.7076(3) 0.20650(17)
H7 H 0.6179 0.6852 0.1927
C17 C 0.70295(19) 0.7084(3) 0.27697(15)
C18 C 0.7865(2) 0.7455(3) 0.29734(17)
C19 C 0.8422(2) 0.7791(4) 0.24753(17)
H8 H 0.8982 0.8044 0.2612
C27 C 0.64462(19) 0.6658(3) 0.32990(15)
O7 O 0.86694(16) 0.7974(2) 0.12399(12)
H15 H 0.806(3) 0.743(4) 0.344(2)
C35 C 0.9437(2) 0.9780(3) 0.39238(18)
C40 C 0.9981(2) 0.8813(3) 0.39438(16)
H20 H 0.9804 0.8098 0.4115
O16 O 0.86289(16) 0.9594(2) 0.41646(16)
C12_2 C 0.0792(2) 0.1055(3) 0.87024(16)
C14_2 C 0.1868(2) 0.2258(3) 0.82297(16)
C15_2 C 0.2702(2) 0.2602(3) 0.84381(17)
H6_2 H 0.2893 0.2618 0.8912
C16_2 C 0.3254(2) 0.2924(3) 0.79350(17)
H7_2 H 0.3821 0.3148 0.8073
C17_2 C 0.29705(19) 0.2916(3) 0.72303(15)
C18_2 C 0.2135(2) 0.2545(3) 0.70266(17)
C19_2 C 0.1578(2) 0.2209(4) 0.75247(17)
H8_2 H 0.1018 0.1956 0.7388
C27_2 C 0.35538(19) 0.3342(3) 0.67010(15)
O3 O 0.42756(14) 0.3807(2) 0.69165(11)
O5 O 0.33432(15) 0.3253(2) 0.60578(11)
O7_2 O 0.13306(16) 0.2026(2) 0.87601(12)
H15_2 H 0.194(3) 0.257(4) 0.656(2)
C35_2 C 0.0563(2) 0.0220(3) 0.60762(18)
C40_2 C 0.0019(2) 0.1187(3) 0.60562(16)
H20_2 H 0.0196 0.1902 0.5885
O16_2 O 0.13711(16) 0.0406(2) 0.58354(16)
Cd4 Cd 0.5000 0.53199(3) 0.7500
C10_2 C 0.0520(2) 0.9055(3) 0.84524(19)
C11_2 C 0.1082(2) 0.9994(3) 0.84558(18)
H4_2 H 0.1634 0.9919 0.8299
C20_2 C 0.1519(2) 0.7465(3) 0.84081(19)
C21_2 C 0.1861(2) 0.7493(4) 0.90989(19)
H9_2 H 0.1587 0.7918 0.9432
C22_2 C 0.2618(2) 0.6876(3) 0.92876(17)
H10_2 H 0.2852 0.6885 0.9751
C23_2 C 0.30269(19) 0.6245(3) 0.87892(15)
C24_2 C 0.38566(18) 0.5599(3) 0.89814(15)
C25_2 C 0.2667(2) 0.6221(3) 0.81025(17)
H11_2 H 0.2935 0.5791 0.7768
C26_2 C 0.1912(2) 0.6833(4) 0.79090(18)
H12_2 H 0.1672 0.6817 0.7447
O8_2 O 0.07395(16) 0.7986(2) 0.81736(16)
O10 O 0.42575(13) 0.5154(2) 0.84978(11)
C28_2 C 0.38031(19) 0.6749(3) 0.63364(15)
C29_2 C 0.31776(19) 0.7745(3) 0.61949(16)
C30_2 C 0.2708(2) 0.7850(4) 0.55520(18)
H16_2 H 0.2799 0.7320 0.5196
C31_2 C 0.2104(3) 0.8738(4) 0.5431(2)
H17_2 H 0.1790 0.8806 0.4998
C32_2 C 0.1977(2) 0.9514(3) 0.5958(2)
C33_2 C 0.2446(3) 0.9441(3) 0.6600(2)
H18_2 H 0.2363 0.9986 0.6949
C34_2 C 0.3042(3) 0.8546(3) 0.67178(19)
C36_2 C 0.0305(2) 0.9147(3) 0.6322(2)
O11_2 O 0.39701(15) 0.6136(2) 0.58157(11)
O12 O 0.41077(16) 0.6606(2) 0.69562(12)
O14_2 O 0.54435(17) 0.2914(2) 0.54058(13)
H28_2 H 0.067(3) 0.850(4) 0.633(2)
H29_2 H 0.336(3) 0.844(4) 0.714(2)
O32 O 0.57425(13) 0.5154(2) 0.65022(11)
H33_2 H 0.53111 0.277988 0.489514
H34_2 H 0.534484 0.218052 0.56656
C8_2 C 0.9437(2) 0.0220(3) 0.89238(18)
C13_2 C 0.9981(2) 0.1187(3) 0.89438(16)
H5_2 H 0.9804 0.1902 0.9115
O6_2 O 0.86289(16) 0.0406(2) 0.91646(16)
C39_2 C 0.9208(2) 0.1055(3) 0.62976(16)
C41_2 C 0.8132(2) 0.2258(3) 0.67703(16)
C42_2 C 0.7298(2) 0.2602(3) 0.65619(17)
H21_2 H 0.7107 0.2618 0.6088
C43_2 C 0.6746(2) 0.2924(3) 0.70650(17)
H22_2 H 0.6179 0.3148 0.6927
C44_2 C 0.70295(19) 0.2916(3) 0.77697(15)
C45_2 C 0.7865(2) 0.2545(3) 0.79734(17)
C46_2 C 0.8422(2) 0.2209(4) 0.74753(17)
H23_2 H 0.8982 0.1956 0.7612
C54_2 C 0.64462(19) 0.3342(3) 0.82990(15)
O13 O 0.57244(14) 0.3807(2) 0.80835(11)
O15 O 0.66568(15) 0.3253(2) 0.89422(11)
O17_2 O 0.86694(16) 0.2026(2) 0.62399(12)
H30_2 H 0.806(3) 0.257(4) 0.844(2)
H2_2 H 0.8210 0.8806 0.0002
H31_2 H 0.46889 0.277988 0.0104858
C1_2 C 0.61969(19) 0.6749(3) 0.86636(15)
C2_2 C 0.68224(19) 0.7745(3) 0.88051(16)
C3_2 C 0.7292(2) 0.7850(4) 0.94480(18)
H1_2 H 0.7201 0.7320 0.9804
C4_2 C 0.7896(3) 0.8738(4) 0.9569(2)
C5_2 C 0.8023(2) 0.9514(3) 0.9042(2)
C6_2 C 0.7554(3) 0.9441(3) 0.8400(2)
H3_2 H 0.7637 0.9986 0.8051
C7_2 C 0.6958(3) 0.8546(3) 0.82822(19)
C9_2 C 0.9695(2) 0.9147(3) 0.8678(2)
O1_2 O 0.60299(15) 0.6136(2) 0.91843(11)
O2_2 O 0.58923(16) 0.6606(2) 0.80438(12)
O4_2 O 0.45565(17) 0.2914(2) 0.95942(13)
H13_2 H 0.933(3) 0.850(4) 0.867(2)
H14_2 H 0.664(3) 0.844(4) 0.786(2)
C37_2 C 0.9480(2) 0.9055(3) 0.65476(19)
C38_2 C 0.8918(2) 0.9994(3) 0.65442(18)
H19_2 H 0.8366 0.9919 0.6701
C47_2 C 0.8481(2) 0.7465(3) 0.65919(19)
C48_2 C 0.8139(2) 0.7493(4) 0.59011(19)
H24_2 H 0.8413 0.7918 0.5568
C49_2 C 0.7382(2) 0.6876(3) 0.57124(17)
H25_2 H 0.7148 0.6885 0.5249
C50_2 C 0.69731(19) 0.6245(3) 0.62108(15)
C51_2 C 0.61434(18) 0.5599(3) 0.60186(15)
C52_2 C 0.7333(2) 0.6221(3) 0.68975(17)
H26_2 H 0.7065 0.5791 0.7232
C53_2 C 0.8088(2) 0.6833(4) 0.70910(18)
H27_2 H 0.8328 0.6817 0.7553
O18_2 O 0.92605(16) 0.7986(2) 0.68264(16)
H32_2 H 0.465516 0.218052 0.93344
loop_
_geom_bond_atom_site_label_1
_geom_bond_atom_site_label_2
_geom_bond_site_symmetry_1
_geom_bond_site_symmetry_2
C1 C2 1_555 1_555
C2 C3 1_555 1_555
C3 H1 1_555 1_555
C4 C3 1_555 1_555
C5 C4 1_555 1_555
C6 C5 1_555 1_555
H3 C6 1_555 1_555
C7 C2 1_555 1_555
O1 C1 1_555 1_555
O2 C1 1_555 1_555
O4 Cd2 1_555 1_555
Cd1 O2 1_555 1_555
Cd2 O1 1_555 1_555
H13 C9 1_555 1_555
H14 C7 1_555 1_555
C37 C38 1_555 1_555
C38 H19 1_555 1_555
C47 C48 1_555 1_555
C48 H24 1_555 1_555
C49 C48 1_555 1_555
H25 C49 1_555 1_555
C50 C49 1_555 1_555
C51 C50 1_555 1_555
C52 C50 1_555 1_555
H26 C52 1_555 1_555
C53 C47 1_555 1_555
H27 C53 1_555 1_555
O18 C37 1_555 1_555
O19 C51 1_555 1_555
O20 Cd1 1_555 1_555
O21 Cd1 1_555 1_555
O23 Cd1 1_555 1_555
O24 Cd1 1_555 1_555
O26 Cd2 1_555 1_555
O27 Cd2 1_555 1_555
O31 Cd1 1_555 1_555
Cd10 O19 1_555 1_555
Cd12 O19 1_555 1_555
C6 C7 1_555 1_555
Cd2 O24 1_555 1_555
Cd2 O31 1_555 1_555
C47 O18 1_555 1_555
C51 O20 1_555 1_555
C52 C53 1_555 1_555
O20 Cd10 1_555 1_555
O23 Cd10 1_555 1_555
O4 H32 1_555 1_555
C13 C8 1_555 1_555
H5 C13 1_555 1_555
C41 C42 1_555 1_555
C42 H21 1_555 1_555
C43 C42 1_555 1_555
H22 C43 1_555 1_555
C44 C43 1_555 1_555
C45 C44 1_555 1_555
C46 C41 1_555 1_555
H23 C46 1_555 1_555
C54 C44 1_555 1_555
O24 C54 1_555 1_555
O26 C54 1_555 1_555
O17 C39 1_555 1_555
H30 C45 1_555 1_555
C8 O6 1_555 1_555
C41 O17 1_555 1_555
C45 C46 1_555 1_555
C10 C11 1_555 1_555
C11 H4 1_555 1_555
C20 C21 1_555 1_555
C21 H9 1_555 1_555
C22 C21 1_555 1_555
H10 C22 1_555 1_555
C23 C22 1_555 1_555
C24 C23 1_555 1_555
C25 C23 1_555 1_555
H11 C25 1_555 1_555
C26 C20 1_555 1_555
H12 C26 1_555 1_555
O8 C10 1_555 1_555
O27 C24 1_555 1_555
O31 C24 1_555 1_555
C28 C29 1_555 1_555
C29 C30 1_555 1_555
C30 H16 1_555 1_555
C31 C30 1_555 1_555
H17 C31 1_555 1_555
C32 C31 1_555 1_555
C33 C32 1_555 1_555
H18 C33 1_555 1_555
C34 C29 1_555 1_555
O11 C28 1_555 1_555
O21 C28 1_555 1_555
O14 Cd10 1_555 1_555
Cd10 O11 1_555 1_555
H28 C36 1_555 1_555
H29 C34 1_555 1_555
O25 Cd10 1_555 1_555
O30 Cd10 1_555 1_555
C20 O8 1_555 1_555
C25 C26 1_555 1_555
C33 C34 1_555 1_555
O14 H33 1_555 1_555
O14 H34 1_555 1_555
C14 C15 1_555 1_555
C15 H6 1_555 1_555
C16 C15 1_555 1_555
H7 C16 1_555 1_555
C17 C16 1_555 1_555
C18 C17 1_555 1_555
C19 C14 1_555 1_555
H8 C19 1_555 1_555
C27 C17 1_555 1_555
O23 C27 1_555 1_555
O25 C27 1_555 1_555
O7 C12 1_555 1_555
H15 C18 1_555 1_555
C40 C35 1_555 1_555
H20 C40 1_555 1_555
C14 O7 1_555 1_555
C18 C19 1_555 1_555
C35 O16 1_555 1_555
C14_2 C15_2 1_555 1_555
C15_2 H6_2 1_555 1_555
C16_2 C15_2 1_555 1_555
H7_2 C16_2 1_555 1_555
C17_2 C16_2 1_555 1_555
C18_2 C17_2 1_555 1_555
C19_2 C14_2 1_555 1_555
H8_2 C19_2 1_555 1_555
C27_2 C17_2 1_555 1_555
O3 C27_2 1_555 1_555
O5 C27_2 1_555 1_555
O7_2 C12_2 1_555 1_555
H15_2 C18_2 1_555 1_555
C40_2 C35_2 1_555 1_555
H20_2 C40_2 1_555 1_555
Cd4 O3 1_555 1_555
Cd12 O3 1_555 1_555
C14_2 O7_2 1_555 1_555
C18_2 C19_2 1_555 1_555
O5 Cd12 1_555 1_555
C35_2 O16_2 1_555 1_555
C10_2 C11_2 1_555 1_555
C11_2 H4_2 1_555 1_555
C20_2 C21_2 1_555 1_555
C21_2 H9_2 1_555 1_555
C22_2 C21_2 1_555 1_555
H10_2 C22_2 1_555 1_555
C23_2 C22_2 1_555 1_555
C24_2 C23_2 1_555 1_555
C25_2 C23_2 1_555 1_555
H11_2 C25_2 1_555 1_555
C26_2 C20_2 1_555 1_555
H12_2 C26_2 1_555 1_555
O8_2 C10_2 1_555 1_555
O29 C24_2 1_555 1_555
O10 C24_2 1_555 1_555
C28_2 C29_2 1_555 1_555
C29_2 C30_2 1_555 1_555
C30_2 H16_2 1_555 1_555
C31_2 C30_2 1_555 1_555
H17_2 C31_2 1_555 1_555
C32_2 C31_2 1_555 1_555
C33_2 C32_2 1_555 1_555
H18_2 C33_2 1_555 1_555
C34_2 C29_2 1_555 1_555
O11_2 C28_2 1_555 1_555
O12 C28_2 1_555 1_555
O14_2 Cd12 1_555 1_555
Cd12 O11_2 1_555 1_555
H28_2 C36_2 1_555 1_555
H29_2 C34_2 1_555 1_555
O30 Cd12 1_555 1_555
O32 Cd12 1_555 1_555
Cd4 O10 1_555 1_555
Cd11 O29 1_555 1_555
C20_2 O8_2 1_555 1_555
C25_2 C26_2 1_555 1_555
O10 Cd11 1_555 1_555
C33_2 C34_2 1_555 1_555
O12 Cd4 1_555 1_555
O32 Cd4 1_555 1_555
O14_2 H33_2 1_555 1_555
O14_2 H34_2 1_555 1_555
C13_2 C8_2 1_555 1_555
H5_2 C13_2 1_555 1_555
C41_2 C42_2 1_555 1_555
C42_2 H21_2 1_555 1_555
C43_2 C42_2 1_555 1_555
H22_2 C43_2 1_555 1_555
C44_2 C43_2 1_555 1_555
C45_2 C44_2 1_555 1_555
C46_2 C41_2 1_555 1_555
H23_2 C46_2 1_555 1_555
C54_2 C44_2 1_555 1_555
O13 C54_2 1_555 1_555
O15 C54_2 1_555 1_555
O17_2 C39_2 1_555 1_555
H30_2 C45_2 1_555 1_555
Cd4 O13 1_555 1_555
Cd11 O13 1_555 1_555
C8_2 O6_2 1_555 1_555
C41_2 O17_2 1_555 1_555
C45_2 C46_2 1_555 1_555
O15 Cd11 1_555 1_555
C1_2 C2_2 1_555 1_555
C2_2 C3_2 1_555 1_555
C3_2 H1_2 1_555 1_555
C4_2 C3_2 1_555 1_555
C5_2 C4_2 1_555 1_555
C6_2 C5_2 1_555 1_555
H3_2 C6_2 1_555 1_555
C7_2 C2_2 1_555 1_555
O1_2 C1_2 1_555 1_555
O2_2 C1_2 1_555 1_555
O4_2 Cd11 1_555 1_555
Cd4 O2_2 1_555 1_555
Cd11 O1_2 1_555 1_555
H13_2 C9_2 1_555 1_555
H14_2 C7_2 1_555 1_555
C37_2 C38_2 1_555 1_555
C38_2 H19_2 1_555 1_555
C47_2 C48_2 1_555 1_555
C48_2 H24_2 1_555 1_555
C49_2 C48_2 1_555 1_555
H25_2 C49_2 1_555 1_555
C50_2 C49_2 1_555 1_555
C51_2 C50_2 1_555 1_555
C52_2 C50_2 1_555 1_555
H26_2 C52_2 1_555 1_555
C53_2 C47_2 1_555 1_555
H27_2 C53_2 1_555 1_555
O18_2 C37_2 1_555 1_555
O30 C51_2 1_555 1_555
C6_2 C7_2 1_555 1_555
C47_2 O18_2 1_555 1_555
C51_2 O32 1_555 1_555
C52_2 C53_2 1_555 1_555
O4_2 H32_2 1_555 1_555

#END
