
###############################################################################
#
# This file contains modified crystal structure data generated from the
# MOF subset of the Cambridge Structural Database (CSD) v543 
# hosted by the Cambridge Crystallographic Data Centre (CCDC).
#
# This work is licensed under the Creative Commons
# Attribution-NonCommercial-ShareAlike 4.0 International License.
# To view a copy of this license, visit
# http://creativecommons.org/licenses/by-nc-sa/4.0/
# or send a letter to
# Creative Commons, PO Box 1866, Mountain View, CA 94042, USA.
#
# CIF created using the CSD Python API on 29 September 2022
# The structure has been converted into the P1 space group
# The structure has a 3D framework
# The original CSD entry PIQQAJ is in the monoclinic crystal system
# The framework has been calculated to contain at least 10.0% void space
# The void calculation uses a probe of radius 1.32A, grid spacing 0.4
#
###############################################################################

data_PIQQAJ
_chemical_formula_moiety         '(C124 H96 Cd6 O40)n'
_symmetry_cell_setting           triclinic
_symmetry_space_group_name_H-M   'P 1'
_symmetry_Int_Tables_number      1
_space_group_name_Hall           'P 1'
loop_
_symmetry_equiv_pos_site_id
_symmetry_equiv_pos_as_xyz
1 x,y,z
_cell_length_a                   15.438(5)
_cell_length_b                   11.075(3)
_cell_length_c                   19.180(5)
_cell_angle_alpha                90
_cell_angle_beta                 95.796(8)
_cell_angle_gamma                90
_cell_volume                     3262.55
loop_
_atom_site_label
_atom_site_type_symbol
_atom_site_fract_x
_atom_site_fract_y
_atom_site_fract_z
C1 C 0.3829(6) 0.3060(9) 0.1289(5)
C2 C 0.3210(6) 0.1998(9) 0.1128(5)
C3 C 0.2804(7) 0.1834(11) 0.0463(6)
H1 H 0.2939 0.2335 0.0100
C4 C 0.2192(7) 0.0917(12) 0.0333(6)
C5 C 0.1988(6) 0.0203(10) 0.0871(5)
C6 C 0.2395(8) 0.0354(11) 0.1540(6)
C7 C 0.3003(7) 0.1261(10) 0.1667(5)
H4 H 0.3275 0.1376 0.2117
C13 C 0.0315(6) 0.0616(9) 0.1241(5)
H7 H 0.0676 0.1288 0.1235
O1 O 0.4084(4) 0.3266(6) 0.1916(3)
O2 O 0.4019(4) 0.3681(6) 0.0760(3)
Cd1 Cd 0.5000 0.45496(9) 0.2500
C43 C 0.0487(6) 0.0683(9) 0.3513(5)
C52 C 0.1502(6) 0.2299(9) 0.3443(5)
C53 C 0.1898(7) 0.2899(11) 0.2925(5)
H36 H 0.1658 0.2869 0.2461
C54 C 0.2661(6) 0.3548(11) 0.3110(5)
H37 H 0.2927 0.3958 0.2766
C55 C 0.3030(6) 0.3590(9) 0.3803(4)
C56 C 0.2623(6) 0.2958(9) 0.4311(5)
H38 H 0.2869 0.2959 0.4774
C57 C 0.1852(6) 0.2326(11) 0.4129(6)
H39 H 0.1576 0.1925 0.4471
C58 C 0.3850(5) 0.4279(8) 0.3974(4)
C62 C 0.604(3) 0.055(3) 0.1578(15)
H46 H 0.6571 0.0721 0.1380
H47 H 0.6166 0.0267 0.2050
H48 H 0.5695 0.1275 0.1579
O14 O 0.0698(5) 0.1804(7) 0.3237(4)
O16 O 0.4266(4) 0.4674(5) 0.3487(3)
O17 O 0.4132(4) 0.4476(6) 0.4602(3)
O21 O 0.5916(4) 0.3266(6) 0.3084(3)
O25 O 0.5734(4) 0.4674(5) 0.1513(3)
O31 O 0.5728(4) 0.6108(6) 0.3090(3)
O32 O 0.4272(4) 0.6108(6) 0.1910(3)
Cd8 Cd 0.54395(4) 0.55763(6) 0.42226(3)
Cd10 Cd 0.45605(4) 0.55763(6) 0.07774(3)
Cd11 Cd 0.45605(4) 0.44237(6) 0.57774(3)
H3 H 0.2261 0.9849 0.1901
C8 C 0.0567(6) 0.9493(10) 0.0999(5)
C9 C 0.0040(5) 0.8470(9) 0.1012(5)
H5 H 0.0215 0.7726 0.0850
O3 O 0.1363(4) 0.9305(7) 0.0732(4)
C41 C 0.0752(6) 0.8614(11) 0.3725(5)
C42 C 0.1039(6) 0.9713(10) 0.3488(5)
H30 H 0.1580 0.9790 0.3320
C45 C 0.1816(6) 0.7408(11) 0.3227(5)
C46 C 0.2682(6) 0.7137(10) 0.3432(5)
H32 H 0.2891 0.7130 0.3904
C47 C 0.3228(6) 0.6877(10) 0.2924(5)
H33 H 0.3811 0.6709 0.3058
C48 C 0.2926(6) 0.6863(9) 0.2222(5)
C49 C 0.2058(6) 0.7169(12) 0.2028(5)
H34 H 0.1846 0.7187 0.1556
C50 C 0.1509(7) 0.7447(14) 0.2533(6)
H35 H 0.0933 0.7661 0.2401
C51 C 0.3515(6) 0.6478(9) 0.1694(5)
C59 C 0.4929(17) 0.8273(19) 0.0324(12)
H40 H 0.4344 0.8075 0.0125
C60 C 0.486(3) 0.908(2) 0.0877(14)
H42 H 0.4610 0.8637 0.1246
H43 H 0.4436 0.9690 0.0711
C61 C 0.557(5) 0.966(4) 0.118(3)
H44 H 0.5856 0.8967 0.1403
H45 H 0.5861 0.9759 0.0754
O15 O 0.1281(5) 0.7602(8) 0.3757(4)
O18 O 0.3277(5) 0.6515(8) 0.1054(3)
O20 O 0.5397(4) 0.7142(6) 0.0464(4)
O27 O 0.5868(4) 0.4476(6) 0.0398(3)
H41 H 0.5208 0.8699 0.9965
O29 O 0.4132(4) 0.5524(6) 0.9602(3)
C12 C 0.9513(6) 0.0683(9) 0.1487(5)
C21 C 0.8498(6) 0.2299(9) 0.1557(5)
C22 C 0.8102(7) 0.2899(11) 0.2075(5)
H12 H 0.8342 0.2869 0.2539
C23 C 0.7339(6) 0.3548(11) 0.1890(5)
H13 H 0.7073 0.3958 0.2234
C24 C 0.6970(6) 0.3590(9) 0.1197(4)
C25 C 0.7377(6) 0.2958(9) 0.0689(5)
H14 H 0.7131 0.2959 0.0226
C26 C 0.8148(6) 0.2326(11) 0.0871(6)
H15 H 0.8424 0.1925 0.0529
C27 C 0.6150(5) 0.4279(8) 0.1026(4)
C31 C 0.396(3) 0.055(3) 0.3422(15)
H22 H 0.3429 0.0721 0.3620
H23 H 0.3834 0.0267 0.2950
H24 H 0.4305 0.1275 0.3421
O4 O 0.9302(5) 0.1804(7) 0.1763(4)
C32 C 0.6171(6) 0.3060(9) 0.3711(5)
C33 C 0.6790(6) 0.1998(9) 0.3872(5)
C34 C 0.7196(7) 0.1834(11) 0.4537(6)
H25 H 0.7061 0.2335 0.4900
C35 C 0.7808(7) 0.0917(12) 0.4667(6)
H26 H 0.8075 0.0792 0.5118
C36 C 0.8012(6) 0.0203(10) 0.4129(5)
C37 C 0.7605(8) 0.0354(11) 0.3460(6)
C38 C 0.6997(7) 0.1261(10) 0.3333(5)
H28 H 0.6725 0.1376 0.2883
C44 C 0.9685(6) 0.0616(9) 0.3759(5)
H31 H 0.9324 0.1288 0.3765
O12 O 0.5981(4) 0.3681(6) 0.4240(3)
Cd12 Cd 0.54395(4) 0.44237(6) 0.92226(3)
C10 C 0.9248(6) 0.8614(11) 0.1275(5)
C11 C 0.8961(6) 0.9713(10) 0.1512(5)
H6 H 0.8420 0.9790 0.1680
C14 C 0.8184(6) 0.7408(11) 0.1773(5)
C15 C 0.7318(6) 0.7137(10) 0.1568(5)
H8 H 0.7109 0.7130 0.1096
C16 C 0.6772(6) 0.6877(10) 0.2076(5)
H9 H 0.6189 0.6709 0.1942
C17 C 0.7074(6) 0.6863(9) 0.2778(5)
C18 C 0.7942(6) 0.7169(12) 0.2972(5)
H10 H 0.8154 0.7187 0.3444
C19 C 0.8491(7) 0.7447(14) 0.2467(6)
H11 H 0.9067 0.7661 0.2599
C20 C 0.6485(6) 0.6478(9) 0.3306(5)
C28 C 0.5071(17) 0.8273(19) 0.4676(12)
H16 H 0.5656 0.8075 0.4875
H17 H 0.4792 0.8699 0.5035
C29 C 0.514(3) 0.908(2) 0.4123(14)
H18 H 0.5390 0.8637 0.3754
H19 H 0.5564 0.9690 0.4289
C30 C 0.443(5) 0.966(4) 0.382(3)
H20 H 0.4144 0.8967 0.3597
H21 H 0.4139 0.9759 0.4246
O5 O 0.8719(5) 0.7602(8) 0.1243(4)
O8 O 0.6723(5) 0.6515(8) 0.3946(3)
O10 O 0.4603(4) 0.7142(6) 0.4536(4)
H27 H 0.7739 0.9849 0.3099
C39 C 0.9433(6) 0.9493(10) 0.4001(5)
C40 C 0.9960(5) 0.8470(9) 0.3988(5)
H29 H 0.9785 0.7726 0.4150
O13 O 0.8637(4) 0.9305(7) 0.4268(4)
O30 O 0.5868(4) 0.5524(6) 0.5398(3)
C10_2 C 0.0752(6) 0.1386(11) 0.8725(5)
C11_2 C 0.1039(6) 0.0287(10) 0.8488(5)
H6_2 H 0.1580 0.0210 0.8320
C14_2 C 0.1816(6) 0.2592(11) 0.8227(5)
C15_2 C 0.2682(6) 0.2863(10) 0.8432(5)
H8_2 H 0.2891 0.2870 0.8904
C16_2 C 0.3228(6) 0.3123(10) 0.7924(5)
H9_2 H 0.3811 0.3291 0.8058
C17_2 C 0.2926(6) 0.3137(9) 0.7222(5)
C18_2 C 0.2058(6) 0.2831(12) 0.7028(5)
H10_2 H 0.1846 0.2813 0.6556
C19_2 C 0.1509(7) 0.2553(14) 0.7533(6)
H11_2 H 0.0933 0.2339 0.7401
C20_2 C 0.3515(6) 0.3522(9) 0.6694(5)
C28_2 C 0.4929(17) 0.1727(19) 0.5324(12)
H16_2 H 0.4344 0.1925 0.5125
H17_2 H 0.5208 0.1301 0.4965
C29_2 C 0.486(3) 0.092(2) 0.5877(14)
H18_2 H 0.4610 0.1363 0.6246
H19_2 H 0.4436 0.0310 0.5711
C30_2 C 0.557(5) 0.034(4) 0.618(3)
H20_2 H 0.5856 0.1033 0.6403
H21_2 H 0.5861 0.0241 0.5754
O5_2 O 0.1281(5) 0.2398(8) 0.8757(4)
O8_2 O 0.3277(5) 0.3485(8) 0.6054(3)
O9 O 0.4272(4) 0.3892(6) 0.6910(3)
O10_2 O 0.5397(4) 0.2858(6) 0.5464(4)
H27_2 H 0.2261 0.0151 0.6901
C39_2 C 0.0567(6) 0.0507(10) 0.5999(5)
C40_2 C 0.0040(5) 0.1530(9) 0.6012(5)
H29_2 H 0.0215 0.2274 0.5850
O13_2 O 0.1363(4) 0.0695(7) 0.5732(4)
O23 O 0.4019(4) 0.6319(6) 0.5760(3)
O26 O 0.5734(4) 0.5326(5) 0.6513(3)
Cd4 Cd 0.5000 0.54504(9) 0.7500
C12_2 C 0.0487(6) 0.9317(9) 0.8513(5)
C21_2 C 0.1502(6) 0.7701(9) 0.8443(5)
C22_2 C 0.1898(7) 0.7101(11) 0.7925(5)
H12_2 H 0.1658 0.7131 0.7461
C23_2 C 0.2661(6) 0.6452(11) 0.8110(5)
H13_2 H 0.2927 0.6042 0.7766
C24_2 C 0.3030(6) 0.6410(9) 0.8803(4)
C25_2 C 0.2623(6) 0.7042(9) 0.9311(5)
H14_2 H 0.2869 0.7041 0.9774
C26_2 C 0.1852(6) 0.7674(11) 0.9129(6)
H15_2 H 0.1576 0.8075 0.9471
C27_2 C 0.3850(5) 0.5721(8) 0.8974(4)
C31_2 C 0.604(3) 0.945(3) 0.6578(15)
H22_2 H 0.6571 0.9279 0.6380
H23_2 H 0.6166 0.9733 0.7050
H24_2 H 0.5695 0.8725 0.6579
O4_2 O 0.0698(5) 0.8196(7) 0.8237(4)
O6 O 0.4266(4) 0.5326(5) 0.8487(3)
C32_2 C 0.3829(6) 0.6940(9) 0.6289(5)
C33_2 C 0.3210(6) 0.8002(9) 0.6128(5)
C34_2 C 0.2804(7) 0.8166(11) 0.5463(6)
H25_2 H 0.2939 0.7665 0.5100
C35_2 C 0.2192(7) 0.9083(12) 0.5333(6)
H26_2 H 0.1925 0.9208 0.4882
C36_2 C 0.1988(6) 0.9797(10) 0.5871(5)
C37_2 C 0.2395(8) 0.9646(11) 0.6540(6)
C38_2 C 0.3003(7) 0.8739(10) 0.6667(5)
H28_2 H 0.3275 0.8624 0.7117
C44_2 C 0.0315(6) 0.9384(9) 0.6241(5)
H31_2 H 0.0676 0.8712 0.6235
O11 O 0.4084(4) 0.6734(6) 0.6916(3)
H41_2 H 0.4792 0.1301 0.0035
H3_2 H 0.7739 0.0151 0.8099
C8_2 C 0.9433(6) 0.0507(10) 0.9001(5)
C9_2 C 0.9960(5) 0.1530(9) 0.8988(5)
H5_2 H 0.9785 0.2274 0.9150
O3_2 O 0.8637(4) 0.0695(7) 0.9268(4)
C41_2 C 0.9248(6) 0.1386(11) 0.6275(5)
C42_2 C 0.8961(6) 0.0287(10) 0.6512(5)
H30_2 H 0.8420 0.0210 0.6680
C45_2 C 0.8184(6) 0.2592(11) 0.6773(5)
C46_2 C 0.7318(6) 0.2863(10) 0.6568(5)
H32_2 H 0.7109 0.2870 0.6096
C47_2 C 0.6772(6) 0.3123(10) 0.7076(5)
H33_2 H 0.6189 0.3291 0.6942
C48_2 C 0.7074(6) 0.3137(9) 0.7778(5)
C49_2 C 0.7942(6) 0.2831(12) 0.7972(5)
H34_2 H 0.8154 0.2813 0.8444
C50_2 C 0.8491(7) 0.2553(14) 0.7467(6)
H35_2 H 0.9067 0.2339 0.7599
C51_2 C 0.6485(6) 0.3522(9) 0.8306(5)
C59_2 C 0.5071(17) 0.1727(19) 0.9676(12)
H40_2 H 0.5656 0.1925 0.9875
C60_2 C 0.514(3) 0.092(2) 0.9123(14)
H42_2 H 0.5390 0.1363 0.8754
H43_2 H 0.5564 0.0310 0.9289
C61_2 C 0.443(5) 0.034(4) 0.882(3)
H44_2 H 0.4144 0.1033 0.8597
H45_2 H 0.4139 0.0241 0.9246
O15_2 O 0.8719(5) 0.2398(8) 0.6243(4)
O18_2 O 0.6723(5) 0.3485(8) 0.8946(3)
O19 O 0.5728(4) 0.3892(6) 0.8090(3)
O20_2 O 0.4603(4) 0.2858(6) 0.9536(4)
O22 O 0.5981(4) 0.6319(6) 0.9240(3)
C1_2 C 0.6171(6) 0.6940(9) 0.8711(5)
C2_2 C 0.6790(6) 0.8002(9) 0.8872(5)
C3_2 C 0.7196(7) 0.8166(11) 0.9537(6)
H1_2 H 0.7061 0.7665 0.9900
C4_2 C 0.7808(7) 0.9083(12) 0.9667(6)
C5_2 C 0.8012(6) 0.9797(10) 0.9129(5)
C6_2 C 0.7605(8) 0.9646(11) 0.8460(6)
C7_2 C 0.6997(7) 0.8739(10) 0.8333(5)
H4_2 H 0.6725 0.8624 0.7883
C13_2 C 0.9685(6) 0.9384(9) 0.8759(5)
H7_2 H 0.9324 0.8712 0.8765
O1_2 O 0.5916(4) 0.6734(6) 0.8084(3)
C43_2 C 0.9513(6) 0.9317(9) 0.6487(5)
C52_2 C 0.8498(6) 0.7701(9) 0.6557(5)
C53_2 C 0.8102(7) 0.7101(11) 0.7075(5)
H36_2 H 0.8342 0.7131 0.7539
C54_2 C 0.7339(6) 0.6452(11) 0.6890(5)
H37_2 H 0.7073 0.6042 0.7234
C55_2 C 0.6970(6) 0.6410(9) 0.6197(4)
C56_2 C 0.7377(6) 0.7042(9) 0.5689(5)
H38_2 H 0.7131 0.7041 0.5226
C57_2 C 0.8148(6) 0.7674(11) 0.5871(6)
H39_2 H 0.8424 0.8075 0.5529
C58_2 C 0.6150(5) 0.5721(8) 0.6026(4)
C62_2 C 0.396(3) 0.945(3) 0.8422(15)
H46_2 H 0.3429 0.9279 0.8620
H47_2 H 0.3834 0.9733 0.7950
H48_2 H 0.4305 0.8725 0.8421
O14_2 O 0.9302(5) 0.8196(7) 0.6763(4)
H2 H 0.1925 0.0792 0.9882
H2_2 H 0.8075 0.9208 0.0118
loop_
_geom_bond_atom_site_label_1
_geom_bond_atom_site_label_2
_geom_bond_site_symmetry_1
_geom_bond_site_symmetry_2
C1 C2 1_555 1_555
C2 C3 1_555 1_555
C3 H1 1_555 1_555
C4 C3 1_555 1_555
C5 C4 1_555 1_555
C6 C5 1_555 1_555
C7 C2 1_555 1_555
H4 C7 1_555 1_555
H7 C13 1_555 1_555
O1 C1 1_555 1_555
O2 C1 1_555 1_555
Cd1 O1 1_555 1_555
C52 C53 1_555 1_555
C53 H36 1_555 1_555
C54 C53 1_555 1_555
H37 C54 1_555 1_555
C55 C54 1_555 1_555
C56 C55 1_555 1_555
H38 C56 1_555 1_555
C57 C52 1_555 1_555
H39 C57 1_555 1_555
C58 C55 1_555 1_555
H46 C62 1_555 1_555
H47 C62 1_555 1_555
H48 C62 1_555 1_555
O14 C43 1_555 1_555
O16 Cd1 1_555 1_555
O17 C58 1_555 1_555
O21 Cd1 1_555 1_555
O25 Cd1 1_555 1_555
O31 Cd1 1_555 1_555
O32 Cd1 1_555 1_555
Cd8 O16 1_555 1_555
Cd10 O2 1_555 1_555
Cd11 O17 1_555 1_555
C6 C7 1_555 1_555
C52 O14 1_555 1_555
C56 C57 1_555 1_555
C58 O16 1_555 1_555
O17 Cd8 1_555 1_555
O25 Cd10 1_555 1_555
O31 Cd8 1_555 1_555
O32 Cd10 1_555 1_555
C8 C9 1_555 1_555
C9 H5 1_555 1_555
C42 C41 1_555 1_555
H30 C42 1_555 1_555
C45 C46 1_555 1_555
C46 H32 1_555 1_555
C47 C46 1_555 1_555
H33 C47 1_555 1_555
C48 C47 1_555 1_555
C49 C48 1_555 1_555
H34 C49 1_555 1_555
C50 C45 1_555 1_555
H35 C50 1_555 1_555
C51 C48 1_555 1_555
C59 H40 1_555 1_555
C60 C59 1_555 1_555
H42 C60 1_555 1_555
H43 C60 1_555 1_555
C61 C60 1_555 1_555
H44 C61 1_555 1_555
H45 C61 1_555 1_555
O15 C41 1_555 1_555
O18 C51 1_555 1_555
O32 C51 1_555 1_555
O20 C59 1_555 1_555
Cd10 O18 1_555 1_555
O27 Cd10 1_555 1_555
C8 O3 1_555 1_555
C45 O15 1_555 1_555
C49 C50 1_555 1_555
O20 Cd10 1_555 1_555
C21 C22 1_555 1_555
C22 H12 1_555 1_555
C23 C22 1_555 1_555
H13 C23 1_555 1_555
C24 C23 1_555 1_555
C25 C24 1_555 1_555
H14 C25 1_555 1_555
C26 C21 1_555 1_555
H15 C26 1_555 1_555
C27 C24 1_555 1_555
H22 C31 1_555 1_555
H23 C31 1_555 1_555
H24 C31 1_555 1_555
O4 C12 1_555 1_555
O25 C27 1_555 1_555
O27 C27 1_555 1_555
C32 C33 1_555 1_555
C33 C34 1_555 1_555
C34 H25 1_555 1_555
C35 C34 1_555 1_555
H26 C35 1_555 1_555
C36 C35 1_555 1_555
C37 C36 1_555 1_555
C38 C33 1_555 1_555
H28 C38 1_555 1_555
H31 C44 1_555 1_555
O21 C32 1_555 1_555
O12 C32 1_555 1_555
Cd8 O12 1_555 1_555
C21 O4 1_555 1_555
C25 C26 1_555 1_555
C37 C38 1_555 1_555
C11 C10 1_555 1_555
H6 C11 1_555 1_555
C14 C15 1_555 1_555
C15 H8 1_555 1_555
C16 C15 1_555 1_555
H9 C16 1_555 1_555
C17 C16 1_555 1_555
C18 C17 1_555 1_555
H10 C18 1_555 1_555
C19 C14 1_555 1_555
H11 C19 1_555 1_555
C20 C17 1_555 1_555
C28 H16 1_555 1_555
H17 C28 1_555 1_555
C29 C28 1_555 1_555
H18 C29 1_555 1_555
H19 C29 1_555 1_555
C30 C29 1_555 1_555
H20 C30 1_555 1_555
H21 C30 1_555 1_555
O5 C10 1_555 1_555
O8 C20 1_555 1_555
O31 C20 1_555 1_555
O10 C28 1_555 1_555
Cd8 O8 1_555 1_555
C39 C40 1_555 1_555
C40 H29 1_555 1_555
O30 Cd8 1_555 1_555
C14 O5 1_555 1_555
C18 C19 1_555 1_555
O10 Cd8 1_555 1_555
C39 O13 1_555 1_555
C11_2 C10_2 1_555 1_555
H6_2 C11_2 1_555 1_555
C14_2 C15_2 1_555 1_555
C15_2 H8_2 1_555 1_555
C16_2 C15_2 1_555 1_555
H9_2 C16_2 1_555 1_555
C17_2 C16_2 1_555 1_555
C18_2 C17_2 1_555 1_555
H10_2 C18_2 1_555 1_555
C19_2 C14_2 1_555 1_555
H11_2 C19_2 1_555 1_555
C20_2 C17_2 1_555 1_555
C28_2 H16_2 1_555 1_555
H17_2 C28_2 1_555 1_555
C29_2 C28_2 1_555 1_555
H18_2 C29_2 1_555 1_555
H19_2 C29_2 1_555 1_555
C30_2 C29_2 1_555 1_555
H20_2 C30_2 1_555 1_555
H21_2 C30_2 1_555 1_555
O5_2 C10_2 1_555 1_555
O8_2 C20_2 1_555 1_555
O9 C20_2 1_555 1_555
O10_2 C28_2 1_555 1_555
Cd11 O8_2 1_555 1_555
C39_2 C40_2 1_555 1_555
C40_2 H29_2 1_555 1_555
O23 Cd11 1_555 1_555
O26 Cd11 1_555 1_555
O30 Cd11 1_555 1_555
Cd4 O9 1_555 1_555
C14_2 O5_2 1_555 1_555
C18_2 C19_2 1_555 1_555
O9 Cd11 1_555 1_555
O10_2 Cd11 1_555 1_555
C39_2 O13_2 1_555 1_555
O26 Cd4 1_555 1_555
C21_2 C22_2 1_555 1_555
C22_2 H12_2 1_555 1_555
C23_2 C22_2 1_555 1_555
H13_2 C23_2 1_555 1_555
C24_2 C23_2 1_555 1_555
C25_2 C24_2 1_555 1_555
H14_2 C25_2 1_555 1_555
C26_2 C21_2 1_555 1_555
H15_2 C26_2 1_555 1_555
C27_2 C24_2 1_555 1_555
H22_2 C31_2 1_555 1_555
H23_2 C31_2 1_555 1_555
H24_2 C31_2 1_555 1_555
O4_2 C12_2 1_555 1_555
O6 C27_2 1_555 1_555
O29 C27_2 1_555 1_555
C32_2 C33_2 1_555 1_555
C33_2 C34_2 1_555 1_555
C34_2 H25_2 1_555 1_555
C35_2 C34_2 1_555 1_555
H26_2 C35_2 1_555 1_555
C36_2 C35_2 1_555 1_555
C37_2 C36_2 1_555 1_555
C38_2 C33_2 1_555 1_555
H28_2 C38_2 1_555 1_555
H31_2 C44_2 1_555 1_555
O11 C32_2 1_555 1_555
O23 C32_2 1_555 1_555
Cd4 O6 1_555 1_555
Cd12 O6 1_555 1_555
C21_2 O4_2 1_555 1_555
C25_2 C26_2 1_555 1_555
O29 Cd12 1_555 1_555
C37_2 C38_2 1_555 1_555
O11 Cd4 1_555 1_555
C8_2 C9_2 1_555 1_555
C9_2 H5_2 1_555 1_555
C42_2 C41_2 1_555 1_555
H30_2 C42_2 1_555 1_555
C45_2 C46_2 1_555 1_555
C46_2 H32_2 1_555 1_555
C47_2 C46_2 1_555 1_555
H33_2 C47_2 1_555 1_555
C48_2 C47_2 1_555 1_555
C49_2 C48_2 1_555 1_555
H34_2 C49_2 1_555 1_555
C50_2 C45_2 1_555 1_555
H35_2 C50_2 1_555 1_555
C51_2 C48_2 1_555 1_555
C59_2 H40_2 1_555 1_555
C60_2 C59_2 1_555 1_555
H42_2 C60_2 1_555 1_555
H43_2 C60_2 1_555 1_555
C61_2 C60_2 1_555 1_555
H44_2 C61_2 1_555 1_555
H45_2 C61_2 1_555 1_555
O15_2 C41_2 1_555 1_555
O18_2 C51_2 1_555 1_555
O19 C51_2 1_555 1_555
O20_2 C59_2 1_555 1_555
Cd12 O18_2 1_555 1_555
O22 Cd12 1_555 1_555
Cd4 O19 1_555 1_555
C8_2 O3_2 1_555 1_555
C45_2 O15_2 1_555 1_555
C49_2 C50_2 1_555 1_555
O19 Cd12 1_555 1_555
O20_2 Cd12 1_555 1_555
C1_2 C2_2 1_555 1_555
C2_2 C3_2 1_555 1_555
C3_2 H1_2 1_555 1_555
C4_2 C3_2 1_555 1_555
C5_2 C4_2 1_555 1_555
C6_2 C5_2 1_555 1_555
C7_2 C2_2 1_555 1_555
H4_2 C7_2 1_555 1_555
H7_2 C13_2 1_555 1_555
O1_2 C1_2 1_555 1_555
O22 C1_2 1_555 1_555
Cd4 O1_2 1_555 1_555
C52_2 C53_2 1_555 1_555
C53_2 H36_2 1_555 1_555
C54_2 C53_2 1_555 1_555
H37_2 C54_2 1_555 1_555
C55_2 C54_2 1_555 1_555
C56_2 C55_2 1_555 1_555
H38_2 C56_2 1_555 1_555
C57_2 C52_2 1_555 1_555
H39_2 C57_2 1_555 1_555
C58_2 C55_2 1_555 1_555
H46_2 C62_2 1_555 1_555
H47_2 C62_2 1_555 1_555
H48_2 C62_2 1_555 1_555
O14_2 C43_2 1_555 1_555
O30 C58_2 1_555 1_555
C6_2 C7_2 1_555 1_555
C52_2 O14_2 1_555 1_555
C56_2 C57_2 1_555 1_555
C58_2 O26 1_555 1_555

#END
