
###############################################################################
#
# This file contains modified crystal structure data generated from the
# MOF subset of the Cambridge Structural Database (CSD) v543 
# hosted by the Cambridge Crystallographic Data Centre (CCDC).
#
# This work is licensed under the Creative Commons
# Attribution-NonCommercial-ShareAlike 4.0 International License.
# To view a copy of this license, visit
# http://creativecommons.org/licenses/by-nc-sa/4.0/
# or send a letter to
# Creative Commons, PO Box 1866, Mountain View, CA 94042, USA.
#
# CIF created using the CSD Python API on 29 September 2022
# The structure has been converted into the P1 space group
# The structure has a 3D framework
# The original CSD entry PIZNOB is in the triclinic crystal system
# The framework has been calculated to contain at least 10.0% void space
# The void calculation uses a probe of radius 1.32A, grid spacing 0.4
# H atom positions have been added when not included in the experimental data
# Generated hydrogen atom positions removed from atoms on special positions
#
###############################################################################

data_PIZNOB
_chemical_formula_moiety         '(C12 H22 Eu3 O13)n'
_symmetry_cell_setting           triclinic
_symmetry_space_group_name_H-M   'P 1'
_symmetry_Int_Tables_number      1
_space_group_name_Hall           'P 1'
loop_
_symmetry_equiv_pos_site_id
_symmetry_equiv_pos_as_xyz
1 x,y,z
_cell_length_a                   10.275(3)
_cell_length_b                   8.714(3)
_cell_length_c                   9.325(3)
_cell_angle_alpha                116.19(2)
_cell_angle_beta                 94.84(2)
_cell_angle_gamma                72.37(3)
_cell_volume                     712.833
loop_
_atom_site_label
_atom_site_type_symbol
_atom_site_fract_x
_atom_site_fract_y
_atom_site_fract_z
Eu3 Eu 0.0191(1) 0.2437(1) 0.0000
O4 O 0.0984(5) 0.0168(5) 0.7199(5)
Eu3_2 Eu 0.0191(1) 0.2437(1) 1.0000
O1 O 0.0460(5) 0.5830(5) 0.1473(4)
O2 O 0.1000(5) 0.4100(5) 0.2700(4)
O3 O 0.0424(5) 0.8822(5) 0.8453(4)
O5 O 0.2440(5) 0.0523(6) 0.0270(6)
C1 C 0.0798(6) 0.5613(6) 0.2721(5)
C2 C 0.0882(7) 0.7184(7) 0.4225(7)
C3 C 0.0840(7) 0.7188(7) 0.5645(5)
C4 C 0.0767(6) 0.8819(6) 0.7179(5)
O15 O 0.1892(5) 0.8281(6) 0.1334(6)
H1 H 0.0859494 0.595547 0.569376
H5 H 0.0980527 0.83622 0.416104
O6 O 0.2533(5) 0.2499(6) 0.9444(6)
C5 C 0.3117(6) 0.1242(7) 0.9841(7)
C6 C 0.4661(7) 0.0615(8) 0.9770(9)
O16 O 0.1885(6) 0.5195(7) 0.8333(6)
H2 H 0.522915 0.120191 0.932321
C7 C 0.5339(7) 0.9385(8) 0.0230(9)
C8 C 0.6883(6) 0.8758(7) 0.0159(7)
O10 O 0.7467(5) 0.7501(6) 0.0556(6)
Eu5 Eu 0.9809(1) 0.7563(1) 0.0000
H8 H 0.477085 0.879809 0.0676795
O9 O 0.7560(5) 0.9477(6) 0.9730(6)
Eu5_2 Eu 0.9809(1) 0.7563(1) 1.0000
O21 O 0.9576(5) 0.1178(5) 0.1547(4)
O8 O 0.8115(6) 0.4805(7) 0.1667(6)
O22 O 0.9016(5) 0.9832(5) 0.2801(5)
O7 O 0.8108(5) 0.1719(6) 0.8666(6)
O11 O 0.9540(5) 0.4170(5) 0.8527(4)
O12 O 0.9000(5) 0.5900(5) 0.7300(4)
C9 C 0.9202(6) 0.4387(6) 0.7279(5)
C10 C 0.9118(7) 0.2816(7) 0.5775(7)
C11 C 0.9160(7) 0.2812(7) 0.4355(5)
C12 C 0.9233(6) 0.1181(6) 0.2821(5)
H9 H 0.914051 0.404453 0.430624
H14 H 0.901947 0.16378 0.583896
loop_
_geom_bond_atom_site_label_1
_geom_bond_atom_site_label_2
_geom_bond_site_symmetry_1
_geom_bond_site_symmetry_2
O4 Eu3_2 1_555 1_555
Eu3 O1 1_555 1_555
O1 C1 1_555 1_555
O2 Eu3 1_555 1_555
O3 C4 1_555 1_555
O5 Eu3 1_555 1_555
C1 O2 1_555 1_555
C2 C1 1_555 1_555
C3 C2 1_555 1_555
C4 C3 1_555 1_555
C3 H1 1_555 1_555
C2 H5 1_555 1_555
O6 Eu3_2 1_555 1_555
C6 C5 1_555 1_555
O6 C5 1_555 1_555
C6 H2 1_555 1_555
C8 C7 1_555 1_555
O10 C8 1_555 1_555
O10 Eu5 1_555 1_555
C7 H8 1_555 1_555
Eu5_2 O9 1_555 1_555
O22 Eu5 1_555 1_555
O12 C9 1_555 1_555
O21 C12 1_555 1_555
C9 O11 1_555 1_555
C10 C9 1_555 1_555
C11 C10 1_555 1_555
C12 C11 1_555 1_555
O11 Eu5_2 1_555 1_555
O12 Eu5_2 1_555 1_555
C11 H9 1_555 1_555
C10 H14 1_555 1_555

#END
