
###############################################################################
#
# This file contains modified crystal structure data generated from the
# MOF subset of the Cambridge Structural Database (CSD) v543 
# hosted by the Cambridge Crystallographic Data Centre (CCDC).
#
# This work is licensed under the Creative Commons
# Attribution-NonCommercial-ShareAlike 4.0 International License.
# To view a copy of this license, visit
# http://creativecommons.org/licenses/by-nc-sa/4.0/
# or send a letter to
# Creative Commons, PO Box 1866, Mountain View, CA 94042, USA.
#
# CIF created using the CSD Python API on 29 September 2022
# The structure has been converted into the P1 space group
# The structure has a 3D framework
# The original CSD entry PIZPET is in the monoclinic crystal system
# The framework has been calculated to contain at least 10.0% void space
# The void calculation uses a probe of radius 1.32A, grid spacing 0.4
# H atom positions have been added when not included in the experimental data
# Generated hydrogen atom positions removed from atoms on special positions
#
###############################################################################

data_PIZPET
_chemical_formula_moiety         '(C24 H44 O32 Y4)n'
_symmetry_cell_setting           triclinic
_symmetry_space_group_name_H-M   'P 1'
_symmetry_Int_Tables_number      1
_space_group_name_Hall           'P 1'
loop_
_symmetry_equiv_pos_site_id
_symmetry_equiv_pos_as_xyz
1 x,y,z
_cell_length_a                   8.486(2)
_cell_length_b                   17.271(2)
_cell_length_c                   9.737(1)
_cell_angle_alpha                90
_cell_angle_beta                 112.25(1)
_cell_angle_gamma                90
_cell_volume                     1320.81
loop_
_atom_site_label
_atom_site_type_symbol
_atom_site_fract_x
_atom_site_fract_y
_atom_site_fract_z
Y3 Y 0.1560(1) 0.7575(1) 0.4755(1)
Y7 Y 0.1560(1) 0.7425(1) 0.9755(1)
H11 H 0.112961 0.0251406 0.91854
O1 O 0.0360(7) 0.8554(3) 0.0461(5)
O3 O 0.3363(7) 0.7710(4) 0.3602(6)
O4 O 0.3969(7) 0.7968(3) 0.1622(5)
O8 O 0.3026(8) 0.6366(3) 0.1332(6)
C3 C 0.4392(9) 0.7894(4) 0.3018(7)
C4 C 0.6206(10) 0.8010(4) 0.3939(7)
C10 C 0.6868(10) 0.7825(4) 0.5398(7)
C12 C 0.8727(9) 0.7866(4) 0.6333(7)
O15 O 0.9754(7) 0.8048(3) 0.5753(5)
O16 O 0.9113(7) 0.7688(3) 0.7670(5)
O17 O 0.0360(7) 0.6446(3) 0.5461(5)
O18 O 0.1864(7) 0.6215(3) 0.4093(5)
O19 O 0.3969(7) 0.7032(3) 0.6622(5)
O21 O 0.0734(8) 0.8780(3) 0.3355(6)
O22 O 0.3026(8) 0.8634(3) 0.6332(6)
H6 H 0.600113 0.763639 0.591816
H12 H 0.704004 0.825198 0.343064
O2 O 0.1864(7) 0.8785(3) 0.9093(5)
O7 O 0.0734(8) 0.6220(3) 0.8355(6)
C1 C 0.0963(11) 0.9022(4) 0.9750(8)
C2 C 0.0535(11) 0.9854(4) 0.9713(8)
O10 O 0.3363(7) 0.7290(4) 0.8602(6)
C7 C 0.9465(11) 0.0146(4) 0.0287(8)
C8 C 0.9037(11) 0.0978(4) 0.0250(8)
O12 O 0.8136(7) 0.1215(3) 0.0907(5)
Y4 Y 0.8440(1) 0.2575(1) 0.0245(1)
O11 O 0.9640(7) 0.1446(3) 0.9539(5)
O5 O 0.9754(7) 0.6952(3) 0.0753(5)
O6 O 0.9113(7) 0.7312(3) 0.2670(5)
C5 C 0.6868(10) 0.7175(4) 0.0398(7)
C6 C 0.8727(9) 0.7134(4) 0.1333(7)
H2 H 0.974914 0.901111 0.352081
H5 H 0.600113 0.736361 0.0918159
H13 H 0.887039 0.974859 0.0814604
C9 C 0.6206(10) 0.6990(4) 0.8939(7)
C11 C 0.4392(9) 0.7106(4) 0.8018(7)
H14 H 0.704004 0.674802 0.843064
O5_2 O 0.0246(7) 0.1952(3) 0.4247(5)
O6_2 O 0.0887(7) 0.2312(3) 0.2330(5)
C5_2 C 0.3132(10) 0.2175(4) 0.4602(7)
C6_2 C 0.1273(9) 0.2134(4) 0.3667(7)
C7_2 C 0.0535(11) 0.5146(4) 0.4713(8)
O9 O 0.0887(7) 0.2688(3) 0.7330(5)
C8_2 C 0.0963(11) 0.5978(4) 0.4750(8)
C9_2 C 0.3794(10) 0.1990(4) 0.6061(7)
C11_2 C 0.5608(9) 0.2106(4) 0.6982(7)
O13 O 0.6637(7) 0.2290(4) 0.6398(6)
O14 O 0.6031(7) 0.2032(3) 0.8378(5)
Y5 Y 0.8440(1) 0.2425(1) 0.5245(1)
H2_2 H 0.0250861 0.401111 0.147919
H5_2 H 0.399887 0.236361 0.408184
H13_2 H 0.112961 0.474859 0.41854
H14_2 H 0.295996 0.174802 0.656936
O20 O 0.0246(7) 0.3048(3) 0.9247(5)
O1_2 O 0.9640(7) 0.3554(3) 0.4539(5)
O2_2 O 0.8136(7) 0.3785(3) 0.5907(5)
O3_2 O 0.6637(7) 0.2710(4) 0.1398(6)
O4_2 O 0.6031(7) 0.2968(3) 0.3378(5)
O7_2 O 0.9266(8) 0.1220(3) 0.6645(6)
O8_2 O 0.6974(8) 0.1366(3) 0.3668(6)
C1_2 C 0.9037(11) 0.4022(4) 0.5250(8)
C2_2 C 0.9465(11) 0.4854(4) 0.5287(8)
C3_2 C 0.5608(9) 0.2894(4) 0.1982(7)
C4_2 C 0.3794(10) 0.3010(4) 0.1061(7)
O21_2 O 0.9266(8) 0.3780(3) 0.1645(6)
H11_2 H 0.887039 0.525141 0.58146
H12_2 H 0.295996 0.325198 0.156936
C10_2 C 0.3132(10) 0.2825(4) 0.9602(7)
C12_2 C 0.1273(9) 0.2866(4) 0.8667(7)
O22_2 O 0.6974(8) 0.3634(3) 0.8668(6)
H6_2 H 0.399887 0.263639 0.908184
H2_3 H 0.0250861 0.0988892 0.647919
H2_4 H 0.974914 0.598889 0.852081
loop_
_geom_bond_atom_site_label_1
_geom_bond_atom_site_label_2
_geom_bond_site_symmetry_1
_geom_bond_site_symmetry_2
O3 C3 1_555 1_555
O4 C3 1_555 1_555
C3 C4 1_555 1_555
C4 C10 1_555 1_555
Y3 O3 1_555 1_555
C10 C12 1_555 1_555
C12 O15 1_555 1_555
O16 C12 1_555 1_555
O17 Y3 1_555 1_555
O18 Y3 1_555 1_555
O19 Y3 1_555 1_555
O21 Y3 1_555 1_555
O22 Y3 1_555 1_555
C10 H6 1_555 1_555
C4 H12 1_555 1_555
O2 C1 1_555 1_555
O7 Y7 1_555 1_555
C1 C2 1_555 1_555
O10 Y7 1_555 1_555
O2 Y7 1_555 1_555
C7 C8 1_555 1_555
O12 C8 1_555 1_555
Y4 O12 1_555 1_555
O5 C6 1_555 1_555
O6 C6 1_555 1_555
C5 C6 1_555 1_555
C5 H5 1_555 1_555
C11 C9 1_555 1_555
O10 C11 1_555 1_555
O19 C11 1_555 1_555
C9 H14 1_555 1_555
O5_2 C6_2 1_555 1_555
O6_2 C6_2 1_555 1_555
C5_2 C6_2 1_555 1_555
C7_2 C8_2 1_555 1_555
C8_2 O17 1_555 1_555
C9_2 C5_2 1_555 1_555
O18 C8_2 1_555 1_555
C11_2 C9_2 1_555 1_555
O13 C11_2 1_555 1_555
O14 C11_2 1_555 1_555
Y5 O13 1_555 1_555
C5_2 H5_2 1_555 1_555
C7_2 H13_2 1_555 1_555
C9_2 H14_2 1_555 1_555
O1_2 C1_2 1_555 1_555
O2_2 C1_2 1_555 1_555
O3_2 C3_2 1_555 1_555
O4_2 C3_2 1_555 1_555
O7_2 Y5 1_555 1_555
O8_2 Y5 1_555 1_555
C1_2 C2_2 1_555 1_555
C3_2 C4_2 1_555 1_555
Y5 O1_2 1_555 1_555
Y4 O3_2 1_555 1_555
O21_2 Y4 1_555 1_555
O2_2 Y5 1_555 1_555
O4_2 Y5 1_555 1_555
C2_2 H11_2 1_555 1_555
C4_2 H12_2 1_555 1_555
C10_2 C12_2 1_555 1_555
C12_2 O20 1_555 1_555
O9 C12_2 1_555 1_555
C10_2 H6_2 1_555 1_555

#END
