
###############################################################################
#
# This file contains modified crystal structure data generated from the
# MOF subset of the Cambridge Structural Database (CSD) v543 
# hosted by the Cambridge Crystallographic Data Centre (CCDC).
#
# This work is licensed under the Creative Commons
# Attribution-NonCommercial-ShareAlike 4.0 International License.
# To view a copy of this license, visit
# http://creativecommons.org/licenses/by-nc-sa/4.0/
# or send a letter to
# Creative Commons, PO Box 1866, Mountain View, CA 94042, USA.
#
# CIF created using the CSD Python API on 29 September 2022
# The structure has been converted into the P1 space group
# The structure has a 3D framework
# The original CSD entry PIZPIX is in the monoclinic crystal system
# The framework has been calculated to contain at least 10.0% void space
# The void calculation uses a probe of radius 1.32A, grid spacing 0.4
# H atom positions have been added when not included in the experimental data
# Generated hydrogen atom positions removed from atoms on special positions
#
###############################################################################

data_PIZPIX
_chemical_formula_moiety         '(C24 H44 Er4 O32)n'
_symmetry_cell_setting           triclinic
_symmetry_space_group_name_H-M   'P 1'
_symmetry_Int_Tables_number      1
_space_group_name_Hall           'P 1'
loop_
_symmetry_equiv_pos_site_id
_symmetry_equiv_pos_as_xyz
1 x,y,z
_cell_length_a                   8.478(1)
_cell_length_b                   17.243(4)
_cell_length_c                   9.695(2)
_cell_angle_alpha                90
_cell_angle_beta                 112.28(2)
_cell_angle_gamma                90
_cell_volume                     1311.46
loop_
_atom_site_label
_atom_site_type_symbol
_atom_site_fract_x
_atom_site_fract_y
_atom_site_fract_z
Er5 Er 0.1567(1) 0.7574(1) 0.4765(1)
Er4 Er 0.1567(1) 0.7426(1) 0.9765(1)
H5 H 0.112769 0.0250629 0.915613
O1 O 0.0369(7) 0.8549(3) 0.0455(5)
O8 O 0.3056(8) 0.6376(3) 0.1321(7)
C5 C 0.6877(9) 0.7169(5) 0.0394(8)
O9 O 0.3980(7) 0.7965(3) 0.1631(5)
C8 C 0.8712(8) 0.7133(4) 0.1330(6)
O19 O 0.9754(6) 0.6924(3) 0.0756(5)
O20 O 0.9174(8) 0.7316(4) 0.2686(6)
H2 H 0.600457 0.735548 0.0913046
O2 O 0.1860(7) 0.8783(3) 0.9093(7)
O3 O 0.3356(8) 0.7301(4) 0.8626(7)
O4 O 0.3980(7) 0.7035(3) 0.6631(5)
O7 O 0.0758(8) 0.6225(4) 0.8375(6)
C1 C 0.0956(10) 0.9021(4) 0.9757(8)
C2 C 0.0543(10) 0.9855(4) 0.9699(9)
C3 C 0.4375(8) 0.7114(4) 0.8006(7)
C4 C 0.6233(9) 0.6989(4) 0.8969(7)
O13 O 0.0369(7) 0.6451(3) 0.5455(5)
O14 O 0.1860(7) 0.6217(3) 0.4093(7)
O15 O 0.3356(8) 0.7699(4) 0.3626(7)
O17 O 0.0758(8) 0.8775(4) 0.3375(6)
O18 O 0.3056(8) 0.8624(3) 0.6321(7)
H1 H 0.706885 0.674101 0.846527
C7 C 0.9457(10) 0.0145(4) 0.0301(9)
C10 C 0.9044(10) 0.0979(4) 0.0243(8)
O12 O 0.8140(7) 0.1217(3) 0.0907(7)
Er3 Er 0.8433(1) 0.2574(1) 0.0235(1)
O11 O 0.9631(7) 0.1451(3) 0.9545(5)
H7 H 0.887231 0.974937 0.084387
O5 O 0.9754(6) 0.8076(3) 0.5756(5)
O6 O 0.9174(8) 0.7684(4) 0.7686(6)
C6 C 0.8712(8) 0.7867(4) 0.6330(6)
C9 C 0.6877(9) 0.7831(5) 0.5394(8)
C11 C 0.6233(9) 0.8011(4) 0.3969(7)
C12 C 0.4375(8) 0.7886(4) 0.3006(7)
H6 H 0.600457 0.764452 0.591305
H13 H 0.955218 0.874128 0.266958
H14 H 0.706885 0.825899 0.346527
C11_2 C 0.3767(9) 0.3011(4) 0.1031(7)
O16 O 0.0826(8) 0.2316(4) 0.2314(6)
C12_2 C 0.5625(8) 0.2886(4) 0.1994(7)
O21 O 0.6644(8) 0.2699(4) 0.1374(7)
O22 O 0.6020(7) 0.2965(3) 0.3369(5)
Er7 Er 0.8433(1) 0.2426(1) 0.5235(1)
H13_2 H 0.0447821 0.374128 0.233042
H14_2 H 0.293115 0.325899 0.153473
O5_2 O 0.0246(6) 0.3076(3) 0.9244(5)
O6_2 O 0.0826(8) 0.2684(4) 0.7314(6)
C6_2 C 0.1288(8) 0.2867(4) 0.8670(6)
C7_2 C 0.0543(10) 0.5145(4) 0.4699(9)
O10 O 0.0246(6) 0.1924(3) 0.4244(5)
C9_2 C 0.3123(9) 0.2831(5) 0.9606(8)
C10_2 C 0.0956(10) 0.5979(4) 0.4757(8)
H6_2 H 0.399543 0.264452 0.908695
H7_2 H 0.112769 0.474937 0.415613
O17_2 O 0.9242(8) 0.3775(4) 0.1625(6)
O1_2 O 0.9631(7) 0.3549(3) 0.4545(5)
O2_2 O 0.8140(7) 0.3783(3) 0.5907(7)
O3_2 O 0.6644(8) 0.2301(4) 0.6374(7)
O4_2 O 0.6020(7) 0.2035(3) 0.8369(5)
O7_2 O 0.9242(8) 0.1225(4) 0.6625(6)
O8_2 O 0.6944(8) 0.1376(3) 0.3679(7)
C1_2 C 0.9044(10) 0.4021(4) 0.5243(8)
C2_2 C 0.9457(10) 0.4855(4) 0.5301(9)
C3_2 C 0.5625(8) 0.2114(4) 0.6994(7)
C4_2 C 0.3767(9) 0.1989(4) 0.6031(7)
C5_2 C 0.3123(9) 0.2169(5) 0.4606(8)
C8_2 C 0.1288(8) 0.2133(4) 0.3670(6)
O18_2 O 0.6944(8) 0.3624(3) 0.8679(7)
H1_2 H 0.293115 0.174101 0.653473
H2_2 H 0.399543 0.235548 0.408695
H5_2 H 0.887231 0.525063 0.584387
H13_3 H 0.0447821 0.125872 0.733042
H13_4 H 0.955218 0.625872 0.766958
loop_
_geom_bond_atom_site_label_1
_geom_bond_atom_site_label_2
_geom_bond_site_symmetry_1
_geom_bond_site_symmetry_2
C8 C5 1_555 1_555
O19 C8 1_555 1_555
O20 C8 1_555 1_555
C5 H2 1_555 1_555
O2 Er4 1_555 1_555
O3 Er4 1_555 1_555
O4 C3 1_555 1_555
O7 Er4 1_555 1_555
C1 O2 1_555 1_555
C2 C1 1_555 1_555
C3 O3 1_555 1_555
C4 C3 1_555 1_555
Er5 O4 1_555 1_555
O13 Er5 1_555 1_555
O14 Er5 1_555 1_555
O15 Er5 1_555 1_555
O17 Er5 1_555 1_555
O18 Er5 1_555 1_555
C4 H1 1_555 1_555
C10 C7 1_555 1_555
O12 C10 1_555 1_555
O12 Er3 1_555 1_555
O5 C6 1_555 1_555
C6 O6 1_555 1_555
C9 C6 1_555 1_555
C11 C9 1_555 1_555
C12 C11 1_555 1_555
O15 C12 1_555 1_555
O9 C12 1_555 1_555
C9 H6 1_555 1_555
C11 H14 1_555 1_555
C12_2 C11_2 1_555 1_555
O21 C12_2 1_555 1_555
O22 C12_2 1_555 1_555
Er3 O21 1_555 1_555
Er7 O22 1_555 1_555
C11_2 H14_2 1_555 1_555
O5_2 C6_2 1_555 1_555
C6_2 O6_2 1_555 1_555
C9_2 C6_2 1_555 1_555
C10_2 C7_2 1_555 1_555
O13 C10_2 1_555 1_555
O14 C10_2 1_555 1_555
C9_2 H6_2 1_555 1_555
C7_2 H7_2 1_555 1_555
O17_2 Er3 1_555 1_555
Er7 O1_2 1_555 1_555
O1_2 C1_2 1_555 1_555
O2_2 Er7 1_555 1_555
O3_2 Er7 1_555 1_555
O4_2 C3_2 1_555 1_555
O7_2 Er7 1_555 1_555
O8_2 Er7 1_555 1_555
C1_2 O2_2 1_555 1_555
C2_2 C1_2 1_555 1_555
C3_2 O3_2 1_555 1_555
C4_2 C3_2 1_555 1_555
C5_2 C4_2 1_555 1_555
C8_2 C5_2 1_555 1_555
O10 C8_2 1_555 1_555
O16 C8_2 1_555 1_555
C4_2 H1_2 1_555 1_555
C5_2 H2_2 1_555 1_555
C2_2 H5_2 1_555 1_555

#END
