
###############################################################################
#
# This file contains modified crystal structure data generated from the
# MOF subset of the Cambridge Structural Database (CSD) v543 
# hosted by the Cambridge Crystallographic Data Centre (CCDC).
#
# This work is licensed under the Creative Commons
# Attribution-NonCommercial-ShareAlike 4.0 International License.
# To view a copy of this license, visit
# http://creativecommons.org/licenses/by-nc-sa/4.0/
# or send a letter to
# Creative Commons, PO Box 1866, Mountain View, CA 94042, USA.
#
# CIF created using the CSD Python API on 29 September 2022
# The structure has been converted into the P1 space group
# The structure has a 3D framework
# The original CSD entry PIZPAP is in the monoclinic crystal system
# The framework has been calculated to contain at least 10.0% void space
# The void calculation uses a probe of radius 1.32A, grid spacing 0.4
# H atom positions have been added when not included in the experimental data
# Generated hydrogen atom positions removed from atoms on special positions
#
###############################################################################

data_PIZPAP
_chemical_formula_moiety         '(C24 H44 O32 Tb4)n'
_symmetry_cell_setting           triclinic
_symmetry_space_group_name_H-M   'P 1'
_symmetry_Int_Tables_number      1
_space_group_name_Hall           'P 1'
loop_
_symmetry_equiv_pos_site_id
_symmetry_equiv_pos_as_xyz
1 x,y,z
_cell_length_a                   8.523(2)
_cell_length_b                   17.314(5)
_cell_length_c                   9.764(4)
_cell_angle_alpha                90
_cell_angle_beta                 112.25(3)
_cell_angle_gamma                90
_cell_volume                     1333.56
loop_
_atom_site_label
_atom_site_type_symbol
_atom_site_fract_x
_atom_site_fract_y
_atom_site_fract_z
Tb5 Tb 0.1569(1) 0.7577(1) 0.4740(1)
Tb4 Tb 0.1569(1) 0.7423(1) 0.9740(1)
H14 H 0.114296 0.0269854 0.921487
O1 O 0.0356(7) 0.8559(3) 0.0439(6)
O5 O 0.9765(6) 0.6948(3) 0.0762(6)
O6 O 0.9102(7) 0.7305(4) 0.2651(6)
O8 O 0.3095(8) 0.6358(3) 0.1324(8)
C5 C 0.6866(8) 0.7168(5) 0.0378(8)
C6 C 0.8703(8) 0.7135(4) 0.1317(8)
O11 O 0.4015(6) 0.7967(3) 0.1607(6)
H8 H 0.598272 0.735137 0.0879145
O2 O 0.1863(7) 0.8796(3) 0.9081(7)
O3 O 0.3389(6) 0.7297(4) 0.8548(6)
O4 O 0.4015(6) 0.7033(3) 0.6607(6)
O7 O 0.0719(8) 0.6211(3) 0.8323(7)
C1 C 0.0941(10) 0.9025(4) 0.9771(8)
C2 C 0.0537(11) 0.9869(4) 0.9721(10)
C3 C 0.4423(8) 0.7103(4) 0.7982(7)
C4 C 0.6256(8) 0.6982(4) 0.8946(8)
O14 O 0.0356(7) 0.6441(3) 0.5439(6)
O15 O 0.1863(7) 0.6204(3) 0.4081(7)
O16 O 0.3389(6) 0.7703(4) 0.3548(6)
O19 O 0.0719(8) 0.8789(3) 0.3323(7)
O20 O 0.3095(8) 0.8642(3) 0.6324(8)
H9 H 0.710665 0.673662 0.846407
C7 C 0.9463(11) 0.0131(4) 0.0279(10)
C8 C 0.9059(10) 0.0975(4) 0.0229(8)
O10 O 0.8137(7) 0.1204(3) 0.0919(7)
Tb2 Tb 0.8431(1) 0.2577(1) 0.0260(1)
O9 O 0.9644(7) 0.1441(3) 0.9561(6)
H7 H 0.885704 0.973015 0.0785126
O13 O 0.9102(7) 0.7695(4) 0.7651(6)
O17 O 0.9765(6) 0.8052(3) 0.5762(6)
C9 C 0.8703(8) 0.7865(4) 0.6317(8)
C10 C 0.6866(8) 0.7832(5) 0.5378(8)
C11 C 0.6256(8) 0.8018(4) 0.3946(8)
C12 C 0.4423(8) 0.7897(4) 0.2982(7)
H3 H 0.598272 0.764863 0.587915
H4 H 0.710665 0.826338 0.346407
H6 H 0.951586 0.875161 0.263368
O18 O 0.0898(7) 0.2305(4) 0.2349(6)
C11_2 C 0.3744(8) 0.3018(4) 0.1054(8)
C12_2 C 0.5577(8) 0.2897(4) 0.2018(7)
O21 O 0.6611(6) 0.2703(4) 0.1452(6)
O22 O 0.5985(6) 0.2967(3) 0.3393(6)
Tb7 Tb 0.8431(1) 0.2423(1) 0.5260(1)
H4_2 H 0.289335 0.326338 0.153593
H6_2 H 0.0484144 0.375161 0.236632
C7_2 C 0.0537(11) 0.5131(4) 0.4721(10)
C8_2 C 0.0941(10) 0.5975(4) 0.4771(8)
O12 O 0.0235(6) 0.1948(3) 0.4238(6)
O13_2 O 0.0898(7) 0.2695(4) 0.7349(6)
O17_2 O 0.0235(6) 0.3052(3) 0.9238(6)
C9_2 C 0.1297(8) 0.2865(4) 0.8683(8)
C10_2 C 0.3134(8) 0.2832(5) 0.9622(8)
H3_2 H 0.401728 0.264863 0.912085
H7_2 H 0.114296 0.473015 0.421487
O19_2 O 0.9281(8) 0.3789(3) 0.1677(7)
O1_2 O 0.9644(7) 0.3559(3) 0.4561(6)
O2_2 O 0.8137(7) 0.3796(3) 0.5919(7)
O3_2 O 0.6611(6) 0.2297(4) 0.6452(6)
O4_2 O 0.5985(6) 0.2033(3) 0.8393(6)
O7_2 O 0.9281(8) 0.1211(3) 0.6677(7)
O8_2 O 0.6905(8) 0.1358(3) 0.3676(8)
C1_2 C 0.9059(10) 0.4025(4) 0.5229(8)
C2_2 C 0.9463(11) 0.4869(4) 0.5279(10)
C3_2 C 0.5577(8) 0.2103(4) 0.7018(7)
C4_2 C 0.3744(8) 0.1982(4) 0.6054(8)
C5_2 C 0.3134(8) 0.2168(5) 0.4622(8)
C6_2 C 0.1297(8) 0.2135(4) 0.3683(8)
O20_2 O 0.6905(8) 0.3642(3) 0.8676(8)
H8_2 H 0.401728 0.235137 0.412085
H9_2 H 0.289335 0.173662 0.653593
H14_2 H 0.885704 0.526985 0.578513
H6_3 H 0.0484144 0.124839 0.736632
H6_4 H 0.951586 0.624839 0.763368
loop_
_geom_bond_atom_site_label_1
_geom_bond_atom_site_label_2
_geom_bond_site_symmetry_1
_geom_bond_site_symmetry_2
O5 C6 1_555 1_555
O6 C6 1_555 1_555
C6 C5 1_555 1_555
C5 H8 1_555 1_555
O2 Tb4 1_555 1_555
O3 Tb4 1_555 1_555
O4 C3 1_555 1_555
O7 Tb4 1_555 1_555
C1 O2 1_555 1_555
C2 C1 1_555 1_555
C3 O3 1_555 1_555
C4 C3 1_555 1_555
Tb5 O4 1_555 1_555
O14 Tb5 1_555 1_555
O15 Tb5 1_555 1_555
O16 Tb5 1_555 1_555
O19 Tb5 1_555 1_555
O20 Tb5 1_555 1_555
C4 H9 1_555 1_555
C8 C7 1_555 1_555
O10 C8 1_555 1_555
O10 Tb2 1_555 1_555
C9 O13 1_555 1_555
C10 C9 1_555 1_555
C11 C10 1_555 1_555
C12 C11 1_555 1_555
O16 C12 1_555 1_555
O11 C12 1_555 1_555
O17 C9 1_555 1_555
C10 H3 1_555 1_555
C11 H4 1_555 1_555
C12_2 C11_2 1_555 1_555
O21 C12_2 1_555 1_555
O22 C12_2 1_555 1_555
Tb2 O21 1_555 1_555
Tb7 O22 1_555 1_555
C11_2 H4_2 1_555 1_555
C8_2 C7_2 1_555 1_555
O14 C8_2 1_555 1_555
O15 C8_2 1_555 1_555
C9_2 O13_2 1_555 1_555
C10_2 C9_2 1_555 1_555
O17_2 C9_2 1_555 1_555
C10_2 H3_2 1_555 1_555
C7_2 H7_2 1_555 1_555
O19_2 Tb2 1_555 1_555
Tb7 O1_2 1_555 1_555
O1_2 C1_2 1_555 1_555
O2_2 Tb7 1_555 1_555
O3_2 Tb7 1_555 1_555
O4_2 C3_2 1_555 1_555
O12 C6_2 1_555 1_555
O18 C6_2 1_555 1_555
O7_2 Tb7 1_555 1_555
O8_2 Tb7 1_555 1_555
C1_2 O2_2 1_555 1_555
C2_2 C1_2 1_555 1_555
C3_2 O3_2 1_555 1_555
C4_2 C3_2 1_555 1_555
C5_2 C4_2 1_555 1_555
C6_2 C5_2 1_555 1_555
C5_2 H8_2 1_555 1_555
C4_2 H9_2 1_555 1_555
C2_2 H14_2 1_555 1_555

#END
