
###############################################################################
#
# This file contains modified crystal structure data generated from the
# MOF subset of the Cambridge Structural Database (CSD) v543 
# hosted by the Cambridge Crystallographic Data Centre (CCDC).
#
# This work is licensed under the Creative Commons
# Attribution-NonCommercial-ShareAlike 4.0 International License.
# To view a copy of this license, visit
# http://creativecommons.org/licenses/by-nc-sa/4.0/
# or send a letter to
# Creative Commons, PO Box 1866, Mountain View, CA 94042, USA.
#
# CIF created using the CSD Python API on 29 September 2022
# The structure has been converted into the P1 space group
# The structure has a 3D framework
# The original CSD entry PIZPOD is in the monoclinic crystal system
# The framework has been calculated to contain at least 10.0% void space
# The void calculation uses a probe of radius 1.32A, grid spacing 0.4
# H atom positions have been added when not included in the experimental data
# Generated hydrogen atom positions removed from atoms on special positions
#
###############################################################################

data_PIZPOD
_chemical_formula_moiety         '(C24 H44 Lu4 O32)n'
_symmetry_cell_setting           triclinic
_symmetry_space_group_name_H-M   'P 1'
_symmetry_Int_Tables_number      1
_space_group_name_Hall           'P 1'
loop_
_symmetry_equiv_pos_site_id
_symmetry_equiv_pos_as_xyz
1 x,y,z
_cell_length_a                   8.426(2)
_cell_length_b                   17.159(4)
_cell_length_c                   9.629(2)
_cell_angle_alpha                90
_cell_angle_beta                 112.14(1)
_cell_angle_gamma                90
_cell_volume                     1289.53
loop_
_atom_site_label
_atom_site_type_symbol
_atom_site_fract_x
_atom_site_fract_y
_atom_site_fract_z
Lu5 Lu 0.1558(1) 0.7571(1) 0.4744(1)
Lu4 Lu 0.1558(1) 0.7429(1) 0.9744(1)
H1 H 0.107347 0.0248939 0.906289
O1 O 0.0343(5) 0.8547(3) 0.0458(5)
O8 O 0.3019(6) 0.6378(6) 0.1342(6)
C5 C 0.6880(7) 0.7173(4) 0.0421(7)
O9 O 0.3931(5) 0.7963(3) 0.1645(5)
C8 C 0.8722(6) 0.7142(3) 0.1357(6)
O19 O 0.9776(5) 0.6947(3) 0.0761(5)
O20 O 0.9146(6) 0.7312(3) 0.2699(6)
H7 H 0.600242 0.735363 0.0949804
O2 O 0.1865(6) 0.8767(3) 0.9072(6)
O3 O 0.3375(6) 0.7304(3) 0.8651(6)
O4 O 0.3931(5) 0.7037(3) 0.6645(5)
O7 O 0.0764(6) 0.6232(3) 0.8400(5)
C1 C 0.0933(8) 0.9016(3) 0.9742(7)
C2 C 0.0534(8) 0.9856(4) 0.9658(8)
C3 C 0.4366(7) 0.7111(3) 0.8036(6)
C4 C 0.6221(6) 0.6994(3) 0.8969(6)
O13 O 0.0343(5) 0.6453(3) 0.5458(5)
O14 O 0.1865(6) 0.6233(3) 0.4072(6)
O15 O 0.3375(6) 0.7696(3) 0.3651(6)
O17 O 0.0764(6) 0.8768(3) 0.3400(5)
O18 O 0.3019(6) 0.8622(6) 0.6342(6)
H14 H 0.705809 0.675545 0.844632
C7 C 0.9466(8) 0.0144(4) 0.0342(8)
C10 C 0.9067(8) 0.0984(3) 0.0258(7)
O12 O 0.8135(6) 0.1233(3) 0.0928(6)
Lu3 Lu 0.8442(1) 0.2571(1) 0.0256(1)
O11 O 0.9657(5) 0.1453(3) 0.9542(5)
H10 H 0.892653 0.975106 0.0937109
O5 O 0.9776(5) 0.8053(3) 0.5761(5)
O6 O 0.9146(6) 0.7688(3) 0.7699(6)
C6 C 0.8722(6) 0.7858(3) 0.6357(6)
C9 C 0.6880(7) 0.7827(4) 0.5421(7)
C11 C 0.6221(6) 0.8006(3) 0.3969(6)
C12 C 0.4366(7) 0.7889(3) 0.3036(6)
H6 H 0.705809 0.824455 0.344632
H11 H 0.600242 0.764637 0.59498
H13 H 0.956977 0.872882 0.265737
C11_2 C 0.3779(6) 0.3006(3) 0.1031(6)
O16 O 0.0854(6) 0.2312(3) 0.2301(6)
C12_2 C 0.5634(7) 0.2889(3) 0.1964(6)
O21 O 0.6625(6) 0.2696(3) 0.1349(6)
O22 O 0.6069(5) 0.2963(3) 0.3355(5)
Lu7 Lu 0.8442(1) 0.2429(1) 0.5256(1)
H6_2 H 0.294191 0.324455 0.155368
H13_2 H 0.0430227 0.372882 0.234263
O5_2 O 0.0224(5) 0.3053(3) 0.9239(5)
O6_2 O 0.0854(6) 0.2688(3) 0.7301(6)
C6_2 C 0.1278(6) 0.2858(3) 0.8643(6)
C7_2 C 0.0534(8) 0.5144(4) 0.4658(8)
O10 O 0.0224(5) 0.1947(3) 0.4239(5)
C9_2 C 0.3120(7) 0.2827(4) 0.9579(7)
C10_2 C 0.0933(8) 0.5984(3) 0.4742(7)
H10_2 H 0.107347 0.475106 0.406289
H11_2 H 0.399758 0.264637 0.90502
O17_2 O 0.9236(6) 0.3768(3) 0.1600(5)
O1_2 O 0.9657(5) 0.3547(3) 0.4542(5)
O2_2 O 0.8135(6) 0.3767(3) 0.5928(6)
O3_2 O 0.6625(6) 0.2304(3) 0.6349(6)
O4_2 O 0.6069(5) 0.2037(3) 0.8355(5)
O7_2 O 0.9236(6) 0.1232(3) 0.6600(5)
O8_2 O 0.6981(6) 0.1378(6) 0.3658(6)
C1_2 C 0.9067(8) 0.4016(3) 0.5258(7)
C2_2 C 0.9466(8) 0.4856(4) 0.5342(8)
C3_2 C 0.5634(7) 0.2111(3) 0.6964(6)
C4_2 C 0.3779(6) 0.1994(3) 0.6031(6)
C5_2 C 0.3120(7) 0.2173(4) 0.4579(7)
C8_2 C 0.1278(6) 0.2142(3) 0.3643(6)
O18_2 O 0.6981(6) 0.3622(6) 0.8658(6)
H1_2 H 0.892653 0.524894 0.593711
H7_2 H 0.399758 0.235363 0.40502
H14_2 H 0.294191 0.175545 0.655368
H13_3 H 0.0430227 0.127118 0.734263
H13_4 H 0.956977 0.627118 0.765737
loop_
_geom_bond_atom_site_label_1
_geom_bond_atom_site_label_2
_geom_bond_site_symmetry_1
_geom_bond_site_symmetry_2
C8 C5 1_555 1_555
O19 C8 1_555 1_555
O20 C8 1_555 1_555
C5 H7 1_555 1_555
O2 Lu4 1_555 1_555
O3 Lu4 1_555 1_555
O4 C3 1_555 1_555
O7 Lu4 1_555 1_555
C1 O2 1_555 1_555
C2 C1 1_555 1_555
C3 O3 1_555 1_555
C4 C3 1_555 1_555
Lu5 O4 1_555 1_555
O13 Lu5 1_555 1_555
O14 Lu5 1_555 1_555
O15 Lu5 1_555 1_555
O17 Lu5 1_555 1_555
O18 Lu5 1_555 1_555
C4 H14 1_555 1_555
C10 C7 1_555 1_555
O12 C10 1_555 1_555
O12 Lu3 1_555 1_555
O5 C6 1_555 1_555
C6 O6 1_555 1_555
C9 C6 1_555 1_555
C11 C9 1_555 1_555
C12 C11 1_555 1_555
O15 C12 1_555 1_555
O9 C12 1_555 1_555
C11 H6 1_555 1_555
C9 H11 1_555 1_555
C12_2 C11_2 1_555 1_555
O21 C12_2 1_555 1_555
O22 C12_2 1_555 1_555
Lu3 O21 1_555 1_555
Lu7 O22 1_555 1_555
C11_2 H6_2 1_555 1_555
O5_2 C6_2 1_555 1_555
C6_2 O6_2 1_555 1_555
C9_2 C6_2 1_555 1_555
C10_2 C7_2 1_555 1_555
O13 C10_2 1_555 1_555
O14 C10_2 1_555 1_555
C7_2 H10_2 1_555 1_555
C9_2 H11_2 1_555 1_555
O17_2 Lu3 1_555 1_555
Lu7 O1_2 1_555 1_555
O1_2 C1_2 1_555 1_555
O2_2 Lu7 1_555 1_555
O3_2 Lu7 1_555 1_555
O4_2 C3_2 1_555 1_555
O7_2 Lu7 1_555 1_555
O8_2 Lu7 1_555 1_555
C1_2 O2_2 1_555 1_555
C2_2 C1_2 1_555 1_555
C3_2 O3_2 1_555 1_555
C4_2 C3_2 1_555 1_555
C5_2 C4_2 1_555 1_555
C8_2 C5_2 1_555 1_555
O10 C8_2 1_555 1_555
O16 C8_2 1_555 1_555
C2_2 H1_2 1_555 1_555
C5_2 H7_2 1_555 1_555
C4_2 H14_2 1_555 1_555

#END
