
###############################################################################
#
# This file contains modified crystal structure data generated from the
# MOF subset of the Cambridge Structural Database (CSD) v543 
# hosted by the Cambridge Crystallographic Data Centre (CCDC).
#
# This work is licensed under the Creative Commons
# Attribution-NonCommercial-ShareAlike 4.0 International License.
# To view a copy of this license, visit
# http://creativecommons.org/licenses/by-nc-sa/4.0/
# or send a letter to
# Creative Commons, PO Box 1866, Mountain View, CA 94042, USA.
#
# CIF created using the CSD Python API on 29 September 2022
# The structure has been converted into the P1 space group
# The structure has a 3D framework
# The original CSD entry PIZQIA is in the tetragonal crystal system
# The original CSD entry PIZQIA is in a Sohncke space group
# The framework has been calculated to contain at least 10.0% void space
# The void calculation uses a probe of radius 1.32A, grid spacing 0.4
#
###############################################################################

data_PIZQIA
_chemical_formula_moiety         '(C77 H96 Cu8 N24 O24)n'
_symmetry_cell_setting           triclinic
_symmetry_space_group_name_H-M   'P 1'
_symmetry_Int_Tables_number      1
_space_group_name_Hall           'P 1'
loop_
_symmetry_equiv_pos_site_id
_symmetry_equiv_pos_as_xyz
1 x,y,z
_cell_length_a                   13.533(2)
_cell_length_b                   13.533(2)
_cell_length_c                   14.972(4)
_cell_angle_alpha                90
_cell_angle_beta                 90
_cell_angle_gamma                90
_cell_volume                     2742
loop_
_atom_site_label
_atom_site_type_symbol
_atom_site_fract_x
_atom_site_fract_y
_atom_site_fract_z
Cu1 Cu 0.47309(4) 0.20446(4) 0.03528(3)
C2 C 0.7052(4) 0.1725(3) 0.2175(3)
N2 N 0.5519(3) 0.1230(4) 0.2043(3)
H2 H 0.4961 0.0953 0.2158
C5 C 0.6326(5) 0.1155(4) 0.2567(4)
C6 C 0.6623(4) 0.2097(4) 0.1385(3)
N3 N 0.5694(3) 0.1790(3) 0.1315(3)
C7 C 0.8093(4) 0.1907(4) 0.2500
C8 C 0.6308(8) 0.0535(8) 0.3398(6)
H3 H 0.5667 0.0239 0.3465
H4 H 0.6445 0.0943 0.3908
H5 H 0.6799 0.0025 0.3355
C9 C 0.7088(7) 0.2735(9) 0.0680(5)
H6 H 0.6613 0.2869 0.0219
H7 H 0.7646 0.2398 0.0428
H8 H 0.7301 0.3345 0.0943
H12 H 0.822(6) 0.157(6) 0.298(4)
O4 O 0.1396(3) 0.5537(3) 0.0592(2)
N4 N 0.2679(3) 0.4155(3) 0.0671(2)
C11 C 0.2404(4) 0.4519(4) 0.1547(3)
H13 H 0.2136 0.3973 0.1901
C12 C 0.1588(3) 0.5295(4) 0.1394(3)
C13 C 0.3322(3) 0.3472(4) 0.0504(3)
C14 C 0.3283(6) 0.4973(9) 0.2041(5)
H14 H 0.3782 0.4478 0.2128
H15 H 0.3068 0.5217 0.2610
H16 H 0.3550 0.5507 0.1695
O5 O 0.3830(3) 0.2954(3) 0.1040(2)
O6 O 0.1184(3) 0.5651(3) 0.2060(2)
C15 C 0.8275(3) 0.2948(4) 0.2825(3)
N5 N 0.8770(4) 0.4481(3) 0.2957(3)
H17 H 0.9047 0.5039 0.2842
C16 C 0.8845(4) 0.3674(5) 0.2433(4)
C17 C 0.7903(4) 0.3377(4) 0.3615(3)
N6 N 0.8210(3) 0.4306(3) 0.3685(3)
C18 C 0.9465(8) 0.3692(8) 0.1602(6)
H18 H 0.9761 0.4333 0.1535
H19 H 0.9057 0.3555 0.1092
H20 H 0.9975 0.3201 0.1645
C19 C 0.7265(9) 0.2912(7) 0.4320(5)
H21 H 0.7131 0.3387 0.4781
H22 H 0.7602 0.2354 0.4572
H23 H 0.6655 0.2699 0.4057
H24 H 0.843(6) 0.178(6) 0.202(4)
Cu4 Cu 0.02691(4) 0.70446(4) 0.21472(3)
Cu5 Cu 0.79554(4) 0.52691(4) 0.46472(3)
O7 O 0.3816(3) 0.0651(3) 0.0440(2)
O1 O 0.2954(3) 0.3830(3) 0.8960(2)
O2 O 0.5651(3) 0.1184(3) 0.7940(2)
O3 O 0.5537(3) 0.1396(3) 0.9408(2)
N1 N 0.4155(3) 0.2679(3) 0.9329(2)
C1 C 0.4519(4) 0.2404(4) 0.8453(3)
H1 H 0.3973 0.2136 0.8099
C3 C 0.5295(4) 0.1588(3) 0.8606(3)
C4 C 0.3472(4) 0.3322(3) 0.9496(3)
C10 C 0.4973(9) 0.3283(6) 0.7959(5)
H9 H 0.4478 0.3782 0.7872
H10 H 0.5217 0.3068 0.7390
H11 H 0.5507 0.3550 0.8305
Cu2 Cu 0.20446(4) 0.47309(4) 0.96472(3)
Cu3 Cu 0.70446(4) 0.02691(4) 0.78528(3)
O8 O 0.0651(3) 0.3816(3) 0.9560(2)
N7 N 0.1790(3) 0.5694(3) 0.8685(3)
Cu1_2 Cu 0.52691(4) 0.79554(4) 0.53528(3)
O1_2 O 0.7046(3) 0.6170(3) 0.3960(2)
O2_2 O 0.4349(3) 0.8816(3) 0.2940(2)
O3_2 O 0.4463(3) 0.8604(3) 0.4408(2)
N1_2 N 0.5845(3) 0.7321(3) 0.4329(2)
C1_2 C 0.5481(4) 0.7596(4) 0.3453(3)
H1_2 H 0.6027 0.7864 0.3099
C2_2 C 0.2948(4) 0.8275(3) 0.7175(3)
N2_2 N 0.4481(3) 0.8770(4) 0.7043(3)
H2_2 H 0.5039 0.9047 0.7158
C3_2 C 0.4705(4) 0.8412(3) 0.3606(3)
C4_2 C 0.6528(4) 0.6678(3) 0.4496(3)
C5_2 C 0.3674(5) 0.8845(4) 0.7567(4)
C6_2 C 0.3377(4) 0.7903(4) 0.6385(3)
N3_2 N 0.4306(3) 0.8210(3) 0.6315(3)
C7_2 C 0.1907(4) 0.8093(4) 0.7500
C8_2 C 0.3692(8) 0.9465(8) 0.8398(6)
H3_2 H 0.4333 0.9761 0.8465
H4_2 H 0.3555 0.9057 0.8908
H5_2 H 0.3201 0.9975 0.8355
C9_2 C 0.2912(7) 0.7265(9) 0.5680(5)
H6_2 H 0.3387 0.7131 0.5219
H7_2 H 0.2354 0.7602 0.5428
H8_2 H 0.2699 0.6655 0.5943
C10_2 C 0.5027(9) 0.6717(6) 0.2959(5)
H9_2 H 0.5522 0.6218 0.2872
H10_2 H 0.4783 0.6932 0.2390
H11_2 H 0.4493 0.6450 0.3305
H12_2 H 0.178(6) 0.843(6) 0.798(4)
O4_2 O 0.8604(3) 0.4463(3) 0.5592(2)
N4_2 N 0.7321(3) 0.5845(3) 0.5671(2)
C11_2 C 0.7596(4) 0.5481(4) 0.6547(3)
H13_2 H 0.7864 0.6027 0.6901
C12_2 C 0.8412(3) 0.4705(4) 0.6394(3)
C13_2 C 0.6678(3) 0.6528(4) 0.5504(3)
C14_2 C 0.6717(6) 0.5027(9) 0.7041(5)
H14_2 H 0.6218 0.5522 0.7128
H15_2 H 0.6932 0.4783 0.7610
H16_2 H 0.6450 0.4493 0.6695
O5_2 O 0.6170(3) 0.7046(3) 0.6040(2)
O6_2 O 0.8816(3) 0.4349(3) 0.7060(2)
C15_2 C 0.1725(3) 0.7052(4) 0.7825(3)
N5_2 N 0.1230(4) 0.5519(3) 0.7957(3)
H17_2 H 0.0953 0.4961 0.7842
C16_2 C 0.1155(4) 0.6326(5) 0.7433(4)
C17_2 C 0.2097(4) 0.6623(4) 0.8615(3)
C18_2 C 0.0535(8) 0.6308(8) 0.6602(6)
H18_2 H 0.0239 0.5667 0.6535
H19_2 H 0.0943 0.6445 0.6092
H20_2 H 0.0025 0.6799 0.6645
C19_2 C 0.2735(9) 0.7088(7) 0.9320(5)
H21_2 H 0.2869 0.6613 0.9781
H22_2 H 0.2398 0.7646 0.9572
H23_2 H 0.3345 0.7301 0.9057
H24_2 H 0.157(6) 0.822(6) 0.702(4)
Cu3_2 Cu 0.29554(4) 0.97309(4) 0.28528(3)
Cu4_2 Cu 0.97309(4) 0.29554(4) 0.71472(3)
O7_2 O 0.6184(3) 0.9349(3) 0.5440(2)
O8_2 O 0.9349(3) 0.6184(3) 0.4560(2)
O3_3 O 0.3604(3) 0.0537(3) 0.1908(2)
C2_3 C 0.3275(3) 0.2052(4) 0.4675(3)
N2_3 N 0.3770(4) 0.0519(3) 0.4543(3)
C3_3 C 0.3412(3) 0.0295(4) 0.1106(3)
C5_3 C 0.3845(4) 0.1326(5) 0.5067(4)
C6_3 C 0.2903(4) 0.1623(4) 0.3885(3)
N3_3 N 0.3210(3) 0.0694(3) 0.3815(3)
C7_3 C 0.3093(4) 0.3093(4) 0.5000
C8_3 C 0.4465(8) 0.1308(8) 0.5898(6)
H3_3 H 0.4761 0.0667 0.5965
H4_3 H 0.4057 0.1445 0.6408
H5_3 H 0.4975 0.1799 0.5855
C9_3 C 0.2265(9) 0.2088(7) 0.3180(5)
H6_3 H 0.2131 0.1613 0.2719
H7_3 H 0.2602 0.2646 0.2928
H8_3 H 0.1655 0.2301 0.3443
H11_3 H 0.1450 0.0507 0.0805
H12_3 H 0.343(6) 0.322(6) 0.548(4)
C15_3 C 0.2052(4) 0.3275(3) 0.5325(3)
N5_3 N 0.0519(3) 0.3770(4) 0.5457(3)
C16_3 C 0.1326(5) 0.3845(4) 0.4933(4)
C17_3 C 0.1623(4) 0.2903(4) 0.6115(3)
N6_2 N 0.0694(3) 0.3210(3) 0.6185(3)
C18_3 C 0.1308(8) 0.4465(8) 0.4102(6)
H18_3 H 0.0667 0.4761 0.4035
H19_3 H 0.1445 0.4057 0.3592
H20_3 H 0.1799 0.4975 0.4145
C19_3 C 0.2088(7) 0.2265(9) 0.6820(5)
H21_3 H 0.1613 0.2131 0.7281
H22_3 H 0.2646 0.2602 0.7072
H23_3 H 0.2301 0.1655 0.6557
H24_3 H 0.322(6) 0.343(6) 0.452(4)
O1_3 O 0.1170(3) 0.7954(3) 0.1460(2)
N1_3 N 0.2321(3) 0.9155(3) 0.1829(2)
C1_3 C 0.2596(4) 0.9519(4) 0.0953(3)
H1_3 H 0.2864 0.8973 0.0599
H2_3 H 0.4047 0.9961 0.4658
C4_3 C 0.1678(3) 0.8472(4) 0.1996(3)
C10_3 C 0.1717(6) 0.9973(9) 0.0459(5)
H9_3 H 0.1218 0.9478 0.0372
N4_3 N 0.0845(3) 0.7679(3) 0.3171(2)
C11_3 C 0.0481(4) 0.7404(4) 0.4047(3)
H13_3 H 0.1027 0.7136 0.4401
C13_3 C 0.1528(4) 0.8322(3) 0.3004(3)
C14_3 C 0.0027(9) 0.8283(6) 0.4541(5)
H14_3 H 0.0522 0.8782 0.4628
O5_3 O 0.2046(3) 0.8830(3) 0.3540(2)
H17_3 H 0.9961 0.4047 0.5342
O4_3 O 0.9463(3) 0.6396(3) 0.3092(2)
C12_3 C 0.9705(4) 0.6588(3) 0.3894(3)
H15_3 H 0.9783 0.8068 0.5110
H16_3 H 0.9493 0.8550 0.4195
N7_2 N 0.9306(3) 0.6790(3) 0.1185(3)
O4_4 O 0.0537(3) 0.3604(3) 0.8092(2)
C12_4 C 0.0295(4) 0.3412(3) 0.8894(3)
H16_4 H 0.0507 0.1450 0.9195
H17_4 H 0.0039 0.5953 0.0342
O1_4 O 0.8830(3) 0.2046(3) 0.6460(2)
N1_4 N 0.7679(3) 0.0845(3) 0.6829(2)
C1_4 C 0.7404(4) 0.0481(4) 0.5953(3)
H1_4 H 0.7136 0.1027 0.5599
H2_4 H 0.5953 0.0039 0.9658
C4_4 C 0.8322(3) 0.1528(4) 0.6996(3)
C10_4 C 0.8283(6) 0.0027(9) 0.5459(5)
H9_4 H 0.8782 0.0522 0.5372
N4_4 N 0.9155(3) 0.2321(3) 0.8171(2)
C11_4 C 0.9519(4) 0.2596(4) 0.9047(3)
H13_4 H 0.8973 0.2864 0.9401
C13_4 C 0.8472(4) 0.1678(3) 0.8004(3)
C14_4 C 0.9973(9) 0.1717(6) 0.9541(5)
H14_4 H 0.9478 0.1218 0.9628
O5_4 O 0.7954(3) 0.1170(3) 0.8540(2)
C5_4 C 0.6155(4) 0.8674(5) 0.0067(4)
C7_4 C 0.6907(4) 0.6907(4) 0.0000
C8_4 C 0.5535(8) 0.8692(8) 0.0898(6)
H3_4 H 0.5239 0.9333 0.0965
H4_4 H 0.5943 0.8555 0.1408
H5_4 H 0.5025 0.8201 0.0855
H12_4 H 0.657(6) 0.678(6) 0.048(4)
C15_4 C 0.7948(4) 0.6725(3) 0.0325(3)
N5_4 N 0.9481(3) 0.6230(4) 0.0457(3)
C17_4 C 0.8377(4) 0.7097(4) 0.1115(3)
C19_4 C 0.7912(7) 0.7735(9) 0.1820(5)
H21_4 H 0.8387 0.7869 0.2281
H22_4 H 0.7354 0.7398 0.2072
H23_4 H 0.7699 0.8345 0.1557
O3_4 O 0.6396(3) 0.9463(3) 0.6908(2)
C2_4 C 0.6725(3) 0.7948(4) 0.9675(3)
N2_4 N 0.6230(4) 0.9481(3) 0.9543(3)
C3_4 C 0.6588(3) 0.9705(4) 0.6106(3)
C6_4 C 0.7097(4) 0.8377(4) 0.8885(3)
N3_4 N 0.6790(3) 0.9306(3) 0.8815(3)
C7_5 C 0.6907(4) 0.6907(4) 1.0000
C9_4 C 0.7735(9) 0.7912(7) 0.8180(5)
H6_4 H 0.7869 0.8387 0.7719
H7_4 H 0.7398 0.7354 0.7928
H8_4 H 0.8345 0.7699 0.8443
H10_3 H 0.8068 0.9783 0.4890
H11_4 H 0.8550 0.9493 0.5805
C16_4 C 0.8674(5) 0.6155(4) 0.9933(4)
C18_4 C 0.8692(8) 0.5535(8) 0.9102(6)
H18_4 H 0.9333 0.5239 0.9035
H19_4 H 0.8555 0.5943 0.8592
H20_4 H 0.8201 0.5025 0.9145
H24_4 H 0.678(6) 0.657(6) 0.952(4)
H10_4 H 0.1932 0.0217 0.9890
H15_4 H 0.0217 0.1932 0.0110
loop_
_geom_bond_atom_site_label_1
_geom_bond_atom_site_label_2
_geom_bond_site_symmetry_1
_geom_bond_site_symmetry_2
C2 C5 1_555 1_555
N2 H2 1_555 1_555
C5 N2 1_555 1_555
C6 C2 1_555 1_555
N3 Cu1 1_555 1_555
C7 C2 1_555 1_555
C8 C5 1_555 1_555
H3 C8 1_555 1_555
H4 C8 1_555 1_555
H5 C8 1_555 1_555
C9 C6 1_555 1_555
H6 C9 1_555 1_555
H7 C9 1_555 1_555
H8 C9 1_555 1_555
H12 C7 1_555 1_555
O4 C12 1_555 1_555
N4 C11 1_555 1_555
C11 H13 1_555 1_555
C12 C11 1_555 1_555
C14 C11 1_555 1_555
H14 C14 1_555 1_555
H15 C14 1_555 1_555
H16 C14 1_555 1_555
O5 Cu1 1_555 1_555
O6 C12 1_555 1_555
C15 C7 1_555 1_555
N5 H17 1_555 1_555
C16 C15 1_555 1_555
C17 C15 1_555 1_555
N6 N5 1_555 1_555
C18 C16 1_555 1_555
H18 C18 1_555 1_555
H19 C18 1_555 1_555
H20 C18 1_555 1_555
C19 C17 1_555 1_555
H21 C19 1_555 1_555
H22 C19 1_555 1_555
H23 C19 1_555 1_555
H24 C7 1_555 1_555
Cu4 O6 1_555 1_555
Cu5 N6 1_555 1_555
O7 Cu1 1_555 1_555
N2 N3 1_555 1_555
C6 N3 1_555 1_555
N4 C13 1_555 1_555
C13 O5 1_555 1_555
N5 C16 1_555 1_555
C17 N6 1_555 1_555
O1 C4 1_555 1_555
O2 C3 1_555 1_555
O3 C3 1_555 1_555
C1 N1 1_555 1_555
H1 C1 1_555 1_555
C3 C1 1_555 1_555
C4 N1 1_555 1_555
C10 C1 1_555 1_555
H9 C10 1_555 1_555
H10 C10 1_555 1_555
H11 C10 1_555 1_555
Cu2 O1 1_555 1_555
Cu3 O2 1_555 1_555
O8 Cu2 1_555 1_555
N7 Cu2 1_555 1_555
Cu1_2 O3_2 1_555 1_555
O1_2 C4_2 1_555 1_555
O2_2 C3_2 1_555 1_555
O3_2 C3_2 1_555 1_555
N1_2 Cu1_2 1_555 1_555
C1_2 N1_2 1_555 1_555
H1_2 C1_2 1_555 1_555
C2_2 C5_2 1_555 1_555
N2_2 H2_2 1_555 1_555
C3_2 C1_2 1_555 1_555
C4_2 N1_2 1_555 1_555
C5_2 N2_2 1_555 1_555
C6_2 C2_2 1_555 1_555
N3_2 Cu1_2 1_555 1_555
C7_2 C2_2 1_555 1_555
C8_2 C5_2 1_555 1_555
H3_2 C8_2 1_555 1_555
H4_2 C8_2 1_555 1_555
H5_2 C8_2 1_555 1_555
C9_2 C6_2 1_555 1_555
H6_2 C9_2 1_555 1_555
H7_2 C9_2 1_555 1_555
H8_2 C9_2 1_555 1_555
C10_2 C1_2 1_555 1_555
H9_2 C10_2 1_555 1_555
H10_2 C10_2 1_555 1_555
H11_2 C10_2 1_555 1_555
H12_2 C7_2 1_555 1_555
O4_2 C12_2 1_555 1_555
N4_2 C11_2 1_555 1_555
C11_2 H13_2 1_555 1_555
C12_2 C11_2 1_555 1_555
C13_2 C4_2 1_555 1_555
C14_2 C11_2 1_555 1_555
H14_2 C14_2 1_555 1_555
H15_2 C14_2 1_555 1_555
H16_2 C14_2 1_555 1_555
O5_2 Cu1_2 1_555 1_555
O6_2 C12_2 1_555 1_555
C15_2 C7_2 1_555 1_555
N5_2 H17_2 1_555 1_555
C16_2 C15_2 1_555 1_555
C17_2 C15_2 1_555 1_555
N7 N5_2 1_555 1_555
C18_2 C16_2 1_555 1_555
H18_2 C18_2 1_555 1_555
H19_2 C18_2 1_555 1_555
H20_2 C18_2 1_555 1_555
C19_2 C17_2 1_555 1_555
H21_2 C19_2 1_555 1_555
H22_2 C19_2 1_555 1_555
H23_2 C19_2 1_555 1_555
H24_2 C7_2 1_555 1_555
Cu5 O1_2 1_555 1_555
Cu3_2 O2_2 1_555 1_555
Cu4_2 O6_2 1_555 1_555
O7_2 Cu1_2 1_555 1_555
O8_2 Cu5 1_555 1_555
N2_2 N3_2 1_555 1_555
C6_2 N3_2 1_555 1_555
O4_2 Cu5 1_555 1_555
N4_2 C13_2 1_555 1_555
N4_2 Cu5 1_555 1_555
C13_2 O5_2 1_555 1_555
N5_2 C16_2 1_555 1_555
C17_2 N7 1_555 1_555
O7 C3_3 1_555 1_555
O3_3 C3_3 1_555 1_555
C2_3 C5_3 1_555 1_555
C5_3 N2_3 1_555 1_555
C6_3 C2_3 1_555 1_555
C7_3 C2_3 1_555 1_555
C8_3 C5_3 1_555 1_555
H3_3 C8_3 1_555 1_555
H4_3 C8_3 1_555 1_555
H5_3 C8_3 1_555 1_555
C9_3 C6_3 1_555 1_555
H6_3 C9_3 1_555 1_555
H7_3 C9_3 1_555 1_555
H8_3 C9_3 1_555 1_555
H12_3 C7_3 1_555 1_555
C15_3 C7_3 1_555 1_555
C16_3 C15_3 1_555 1_555
C17_3 C15_3 1_555 1_555
N6_2 N5_3 1_555 1_555
C18_3 C16_3 1_555 1_555
H18_3 C18_3 1_555 1_555
H19_3 C18_3 1_555 1_555
H20_3 C18_3 1_555 1_555
C19_3 C17_3 1_555 1_555
H21_3 C19_3 1_555 1_555
H22_3 C19_3 1_555 1_555
H23_3 C19_3 1_555 1_555
H24_3 C7_3 1_555 1_555
N2_3 N3_3 1_555 1_555
C6_3 N3_3 1_555 1_555
N5_3 C16_3 1_555 1_555
C17_3 N6_2 1_555 1_555
O1_3 C4_3 1_555 1_555
N1_3 Cu3_2 1_555 1_555
C1_3 N1_3 1_555 1_555
H1_3 C1_3 1_555 1_555
C4_3 N1_3 1_555 1_555
C10_3 C1_3 1_555 1_555
H9_3 C10_3 1_555 1_555
N4_3 C11_3 1_555 1_555
C11_3 H13_3 1_555 1_555
C13_3 C4_3 1_555 1_555
C14_3 C11_3 1_555 1_555
H14_3 C14_3 1_555 1_555
O5_3 Cu3_2 1_555 1_555
Cu4 O1_3 1_555 1_555
N4_3 C13_3 1_555 1_555
N4_3 Cu4 1_555 1_555
C13_3 O5_3 1_555 1_555
O4_3 C12_3 1_555 1_555
O8_2 C12_3 1_555 1_555
O4_4 C12_4 1_555 1_555
O8 C12_4 1_555 1_555
O1_4 C4_4 1_555 1_555
N1_4 Cu3 1_555 1_555
C1_4 N1_4 1_555 1_555
H1_4 C1_4 1_555 1_555
C4_4 N1_4 1_555 1_555
C10_4 C1_4 1_555 1_555
H9_4 C10_4 1_555 1_555
N4_4 C11_4 1_555 1_555
C11_4 H13_4 1_555 1_555
C13_4 C4_4 1_555 1_555
C14_4 C11_4 1_555 1_555
H14_4 C14_4 1_555 1_555
O5_4 Cu3 1_555 1_555
Cu4_2 O1_4 1_555 1_555
N4_4 C13_4 1_555 1_555
N4_4 Cu4_2 1_555 1_555
C13_4 O5_4 1_555 1_555
C8_4 C5_4 1_555 1_555
H3_4 C8_4 1_555 1_555
H4_4 C8_4 1_555 1_555
H5_4 C8_4 1_555 1_555
H12_4 C7_4 1_555 1_555
C15_4 C7_4 1_555 1_555
C17_4 C15_4 1_555 1_555
N7_2 N5_4 1_555 1_555
C19_4 C17_4 1_555 1_555
H21_4 C19_4 1_555 1_555
H22_4 C19_4 1_555 1_555
H23_4 C19_4 1_555 1_555
C17_4 N7_2 1_555 1_555
O7_2 C3_4 1_555 1_555
O3_4 C3_4 1_555 1_555
C6_4 C2_4 1_555 1_555
C7_5 C2_4 1_555 1_555
C9_4 C6_4 1_555 1_555
H6_4 C9_4 1_555 1_555
H7_4 C9_4 1_555 1_555
H8_4 C9_4 1_555 1_555
C18_4 C16_4 1_555 1_555
H18_4 C18_4 1_555 1_555
H19_4 C18_4 1_555 1_555
H20_4 C18_4 1_555 1_555
H24_4 C7_5 1_555 1_555
N2_4 N3_4 1_555 1_555
C6_4 N3_4 1_555 1_555

#END
