
###############################################################################
#
# This file contains modified crystal structure data generated from the
# MOF subset of the Cambridge Structural Database (CSD) v543 
# hosted by the Cambridge Crystallographic Data Centre (CCDC).
#
# This work is licensed under the Creative Commons
# Attribution-NonCommercial-ShareAlike 4.0 International License.
# To view a copy of this license, visit
# http://creativecommons.org/licenses/by-nc-sa/4.0/
# or send a letter to
# Creative Commons, PO Box 1866, Mountain View, CA 94042, USA.
#
# CIF created using the CSD Python API on 29 September 2022
# The structure has been converted into the P1 space group
# The structure has a 3D framework
# The original CSD entry PIZROH is in the tetragonal crystal system
# The original CSD entry PIZROH is in a Sohncke space group
# The framework has been calculated to contain at least 10.0% void space
# The void calculation uses a probe of radius 1.32A, grid spacing 0.4
#
###############################################################################

data_PIZROH
_chemical_formula_moiety         '(C77 H96 Cu8 N24 O24)n'
_symmetry_cell_setting           triclinic
_symmetry_space_group_name_H-M   'P 1'
_symmetry_Int_Tables_number      1
_space_group_name_Hall           'P 1'
loop_
_symmetry_equiv_pos_site_id
_symmetry_equiv_pos_as_xyz
1 x,y,z
_cell_length_a                   13.5050(4)
_cell_length_b                   13.5050(4)
_cell_length_c                   14.9246(10)
_cell_angle_alpha                90
_cell_angle_beta                 90
_cell_angle_gamma                90
_cell_volume                     2722.02
loop_
_atom_site_label
_atom_site_type_symbol
_atom_site_fract_x
_atom_site_fract_y
_atom_site_fract_z
Cu1 Cu 0.29531(3) 0.02687(3) 0.03524(3)
H12 H 0.4065 0.0031 0.2151
C11 C 0.1532(3) 0.1676(3) 0.0501(2)
C12 C 0.0483(3) 0.2589(3) 0.1550(2)
H13 H 0.1030 0.2858 0.1906
C13 C 0.0025(5) 0.1717(4) 0.2048(4)
H14 H 0.0519 0.1215 0.2139
N4 N 0.0846(2) 0.2324(2) 0.06730(19)
O5 O 0.2049(2) 0.1170(2) 0.10436(16)
O7 O 0.4344(2) 0.1190(2) 0.04346(18)
O1 O 0.1170(2) 0.2049(2) 0.89564(16)
C1 C 0.1676(3) 0.1532(3) 0.9499(2)
C2 C 0.2589(3) 0.0483(3) 0.8450(2)
H1 H 0.2858 0.1030 0.8094
C3 C 0.1717(4) 0.0025(5) 0.7952(4)
H2 H 0.1215 0.0519 0.7861
N3 N 0.2324(2) 0.0846(2) 0.93270(19)
Cu2 Cu 0.02687(3) 0.29531(3) 0.96476(3)
O8 O 0.1190(2) 0.4344(2) 0.95654(18)
C5 C 0.2898(3) 0.8370(3) 0.1392(2)
C6 C 0.3279(3) 0.7945(3) 0.2175(3)
C7 C 0.3854(3) 0.8667(3) 0.2563(3)
C8 C 0.2249(5) 0.7928(4) 0.0695(3)
H5 H 0.2119 0.8410 0.0237
H6 H 0.1635 0.7725 0.0963
H7 H 0.2572 0.7364 0.0435
C9 C 0.4474(5) 0.8684(5) 0.3390(4)
H8 H 0.4781 0.9322 0.3450
H9 H 0.4977 0.8183 0.3349
H10 H 0.4064 0.8558 0.3903
C10 C 0.3102(3) 0.6898(3) 0.2500
H11 H 0.3554 0.6750 0.2980
N1 N 0.3206(2) 0.9309(2) 0.1324(2)
N2 N 0.3779(3) 0.9476(2) 0.2039(2)
C15 C 0.1630(3) 0.7102(3) 0.3608(2)
C16 C 0.2055(3) 0.6721(3) 0.2825(3)
C17 C 0.1333(3) 0.6146(3) 0.2437(3)
C18 C 0.2072(4) 0.7751(5) 0.4305(3)
H17 H 0.1590 0.7881 0.4763
H18 H 0.2275 0.8365 0.4037
H19 H 0.2636 0.7428 0.4565
C19 C 0.1316(5) 0.5526(5) 0.1610(4)
H20 H 0.0678 0.5219 0.1550
H21 H 0.1817 0.5023 0.1651
H22 H 0.1442 0.5936 0.1097
H23 H 0.3250 0.6446 0.2020
N5 N 0.0691(2) 0.6794(2) 0.3676(2)
N6 N 0.0524(2) 0.6221(3) 0.2961(2)
O2 O 0.36031(19) 0.94614(19) 0.94018(17)
O3 O 0.3810(2) 0.9344(2) 0.79346(18)
H3 H 0.1449 0.9490 0.8299
H4 H 0.1937 0.9779 0.7382
C4 C 0.3401(3) 0.9702(3) 0.8595(2)
Cu3 Cu 0.47313(3) 0.79531(3) 0.78524(3)
O4 O 0.94614(19) 0.36031(19) 0.05982(17)
H15 H 0.9490 0.1449 0.1701
H16 H 0.9779 0.1937 0.2618
C14 C 0.9702(3) 0.3401(3) 0.1405(2)
O6 O 0.9344(2) 0.3810(2) 0.20654(18)
Cu4 Cu 0.79531(3) 0.47313(3) 0.21476(3)
N7 N 0.9309(2) 0.3206(2) 0.8676(2)
H24 H 0.9969 0.5935 0.2849
Cu5 Cu 0.97313(3) 0.70469(3) 0.46476(3)
C7_2 C 0.6333(3) 0.8854(3) 0.0063(3)
C9_2 C 0.6316(5) 0.9474(5) 0.0890(4)
H8_2 H 0.5678 0.9781 0.0950
H9_2 H 0.6817 0.9977 0.0849
H10_2 H 0.6442 0.9064 0.1403
C10_2 C 0.8102(3) 0.8102(3) 0.0000
H11_2 H 0.8250 0.8554 0.0480
H16_2 H 0.3063 0.4779 0.0118
C15_2 C 0.7898(3) 0.6630(3) 0.1108(2)
C16_2 C 0.8279(3) 0.7055(3) 0.0325(3)
C18_2 C 0.7249(5) 0.7072(4) 0.1805(3)
H17_2 H 0.7119 0.6590 0.2263
H18_2 H 0.6635 0.7275 0.1537
H19_2 H 0.7572 0.7636 0.2065
N5_2 N 0.8206(2) 0.5691(2) 0.1176(2)
N6_2 N 0.8779(3) 0.5524(2) 0.0461(2)
H24_2 H 0.9065 0.4969 0.0349
O1_2 O 0.2951(2) 0.6170(2) 0.64564(16)
O2_2 O 0.55386(19) 0.86031(19) 0.69018(17)
O3_2 O 0.5656(2) 0.8810(2) 0.54346(18)
C1_2 C 0.3468(3) 0.6676(3) 0.6999(2)
C2_2 C 0.4517(3) 0.7589(3) 0.5950(2)
H1_2 H 0.3970 0.7858 0.5594
C3_2 C 0.4975(5) 0.6717(4) 0.5452(4)
H2_2 H 0.4481 0.6215 0.5361
H3_2 H 0.5510 0.6449 0.5799
H4_2 H 0.5221 0.6937 0.4882
C4_2 C 0.5298(3) 0.8401(3) 0.6095(2)
C5_2 C 0.6630(3) 0.7898(3) 0.8892(2)
C6_2 C 0.7055(3) 0.8279(3) 0.9675(3)
C8_2 C 0.7072(4) 0.7249(5) 0.8195(3)
H5_2 H 0.6590 0.7119 0.7737
H6_2 H 0.7275 0.6635 0.8463
H7_2 H 0.7636 0.7572 0.7935
C10_3 C 0.8102(3) 0.8102(3) 1.0000
N1_2 N 0.5691(2) 0.8206(2) 0.8824(2)
N2_2 N 0.5524(2) 0.8779(3) 0.9539(2)
H12_2 H 0.4969 0.9065 0.9651
N3_2 N 0.4154(2) 0.7324(2) 0.68270(19)
O4_2 O 0.13969(19) 0.44614(19) 0.80982(17)
C11_2 C 0.3324(3) 0.6532(3) 0.8001(2)
C12_2 C 0.2411(3) 0.5483(3) 0.9050(2)
H13_2 H 0.2142 0.6030 0.9406
C13_2 C 0.3283(4) 0.5025(5) 0.9548(4)
H14_2 H 0.3785 0.5519 0.9639
H15_2 H 0.3551 0.4490 0.9201
C14_2 C 0.1599(3) 0.4702(3) 0.8905(2)
N4_2 N 0.2676(2) 0.5846(2) 0.81730(19)
O5_2 O 0.3830(2) 0.7049(2) 0.85436(16)
C17_2 C 0.8854(3) 0.6333(3) 0.9937(3)
C19_2 C 0.9474(5) 0.6316(5) 0.9110(4)
H20_2 H 0.9781 0.5678 0.9050
H21_2 H 0.9977 0.6817 0.9151
H22_2 H 0.9064 0.6442 0.8597
H23_2 H 0.8554 0.8250 0.9520
Cu2_2 Cu 0.20469(3) 0.52687(3) 0.71476(3)
Cu3_2 Cu 0.70469(3) 0.97313(3) 0.53524(3)
O8_2 O 0.0656(2) 0.6190(2) 0.70654(18)
N7_2 N 0.1794(2) 0.4309(2) 0.6176(2)
H24_3 H 0.0031 0.4065 0.7849
O4_3 O 0.05386(19) 0.63969(19) 0.55982(17)
H15_3 H 0.0510 0.8551 0.6701
H16_3 H 0.0221 0.8063 0.7618
C14_3 C 0.0298(3) 0.6599(3) 0.6405(2)
O2_3 O 0.63969(19) 0.05386(19) 0.44018(17)
O3_3 O 0.6190(2) 0.0656(2) 0.29346(18)
H3_3 H 0.8551 0.0510 0.3299
H4_3 H 0.8063 0.0221 0.2382
C4_3 C 0.6599(3) 0.0298(3) 0.3595(2)
C5_3 C 0.7102(3) 0.1630(3) 0.6392(2)
C6_3 C 0.6721(3) 0.2055(3) 0.7175(3)
C7_3 C 0.6146(3) 0.1333(3) 0.7563(3)
C8_3 C 0.7751(5) 0.2072(4) 0.5695(3)
H5_3 H 0.7881 0.1590 0.5237
H6_3 H 0.8365 0.2275 0.5963
H7_3 H 0.7428 0.2636 0.5435
C9_3 C 0.5526(5) 0.1316(5) 0.8390(4)
H8_3 H 0.5219 0.0678 0.8450
H9_3 H 0.5023 0.1817 0.8349
H10_3 H 0.5936 0.1442 0.8903
C10_4 C 0.6898(3) 0.3102(3) 0.7500
H11_3 H 0.6446 0.3250 0.7980
N1_3 N 0.6794(2) 0.0691(2) 0.6324(2)
N2_3 N 0.6221(3) 0.0524(2) 0.7039(2)
C15_3 C 0.8370(3) 0.2898(3) 0.8608(2)
C16_3 C 0.7945(3) 0.3279(3) 0.7825(3)
C17_3 C 0.8667(3) 0.3854(3) 0.7437(3)
C18_3 C 0.7928(4) 0.2249(5) 0.9305(3)
H17_3 H 0.8410 0.2119 0.9763
H18_3 H 0.7725 0.1635 0.9037
H19_3 H 0.7364 0.2572 0.9565
C19_3 C 0.8684(5) 0.4474(5) 0.6610(4)
H20_3 H 0.9322 0.4781 0.6550
H21_3 H 0.8183 0.4977 0.6651
H22_3 H 0.8558 0.4064 0.6097
H23_3 H 0.6750 0.3554 0.7020
N6_3 N 0.9476(2) 0.3779(3) 0.7961(2)
Cu3_3 Cu 0.52687(3) 0.20469(3) 0.28524(3)
O1_3 O 0.8830(2) 0.7951(2) 0.39564(16)
C1_3 C 0.8324(3) 0.8468(3) 0.4499(2)
C2_3 C 0.7411(3) 0.9517(3) 0.3450(2)
H1_3 H 0.7142 0.8970 0.3094
C3_3 C 0.8283(4) 0.9975(5) 0.2952(4)
H2_3 H 0.8785 0.9481 0.2861
H12_3 H 0.5935 0.9969 0.7151
N3_3 N 0.7676(2) 0.9154(2) 0.43270(19)
C11_3 C 0.8468(3) 0.8324(3) 0.5501(2)
C12_3 C 0.9517(3) 0.7411(3) 0.6550(2)
H13_3 H 0.8970 0.7142 0.6906
C13_3 C 0.9975(5) 0.8283(4) 0.7048(4)
H14_3 H 0.9481 0.8785 0.7139
N4_3 N 0.9154(2) 0.7676(2) 0.56730(19)
O5_3 O 0.7951(2) 0.8830(2) 0.60436(16)
O8_3 O 0.8810(2) 0.5656(2) 0.45654(18)
O1_4 O 0.7049(2) 0.3830(2) 0.14564(16)
O2_4 O 0.44614(19) 0.13969(19) 0.19018(17)
C1_4 C 0.6532(3) 0.3324(3) 0.1999(2)
C2_4 C 0.5483(3) 0.2411(3) 0.0950(2)
H1_4 H 0.6030 0.2142 0.0594
C3_4 C 0.5025(5) 0.3283(4) 0.0452(4)
H2_4 H 0.5519 0.3785 0.0361
H3_4 H 0.4490 0.3551 0.0799
C4_4 C 0.4702(3) 0.1599(3) 0.1095(2)
C5_4 C 0.3370(3) 0.2102(3) 0.3892(2)
C6_4 C 0.2945(3) 0.1721(3) 0.4675(3)
C7_4 C 0.3667(3) 0.1146(3) 0.5063(3)
C8_4 C 0.2928(4) 0.2751(5) 0.3195(3)
H5_4 H 0.3410 0.2881 0.2737
H6_4 H 0.2725 0.3365 0.3463
H7_4 H 0.2364 0.2428 0.2935
C9_4 C 0.3684(5) 0.0526(5) 0.5890(4)
H8_4 H 0.4322 0.0219 0.5950
H9_4 H 0.3183 0.0023 0.5849
H10_4 H 0.3558 0.0936 0.6403
C10_5 C 0.1898(3) 0.1898(3) 0.5000
H11_4 H 0.1750 0.1446 0.5480
N1_4 N 0.4309(2) 0.1794(2) 0.3824(2)
N2_4 N 0.4476(2) 0.1221(3) 0.4539(2)
H12_4 H 0.5031 0.0935 0.4651
N3_4 N 0.5846(2) 0.2676(2) 0.18270(19)
O4_4 O 0.86031(19) 0.55386(19) 0.30982(17)
C11_4 C 0.6676(3) 0.3468(3) 0.3001(2)
C12_4 C 0.7589(3) 0.4517(3) 0.4050(2)
H13_4 H 0.7858 0.3970 0.4406
C13_4 C 0.6717(4) 0.4975(5) 0.4548(4)
H14_4 H 0.6215 0.4481 0.4639
H15_4 H 0.6449 0.5510 0.4201
H16_4 H 0.6937 0.5221 0.5118
C14_4 C 0.8401(3) 0.5298(3) 0.3905(2)
N4_4 N 0.7324(2) 0.4154(2) 0.31730(19)
O5_4 O 0.6170(2) 0.2951(2) 0.35436(16)
C15_4 C 0.2102(3) 0.3370(3) 0.6108(2)
C16_4 C 0.1721(3) 0.2945(3) 0.5325(3)
C17_4 C 0.1146(3) 0.3667(3) 0.4937(3)
C18_4 C 0.2751(5) 0.2928(4) 0.6805(3)
H17_4 H 0.2881 0.3410 0.7263
H18_4 H 0.3365 0.2725 0.6537
H19_4 H 0.2428 0.2364 0.7065
C19_4 C 0.0526(5) 0.3684(5) 0.4110(4)
H20_4 H 0.0219 0.4322 0.4050
H21_4 H 0.0023 0.3183 0.4151
H22_4 H 0.0936 0.3558 0.3597
H23_4 H 0.1446 0.1750 0.4520
N6_4 N 0.1221(3) 0.4476(2) 0.5461(2)
H24_4 H 0.0935 0.5031 0.5349
H4_4 H 0.4779 0.3063 0.9882
loop_
_geom_bond_atom_site_label_1
_geom_bond_atom_site_label_2
_geom_bond_site_symmetry_1
_geom_bond_site_symmetry_2
C12 H13 1_555 1_555
C13 C12 1_555 1_555
H14 C13 1_555 1_555
N4 C11 1_555 1_555
O5 Cu1 1_555 1_555
O7 Cu1 1_555 1_555
C11 O5 1_555 1_555
C12 N4 1_555 1_555
O1 C1 1_555 1_555
C1 N3 1_555 1_555
C2 H1 1_555 1_555
C3 C2 1_555 1_555
H2 C3 1_555 1_555
Cu2 O1 1_555 1_555
O8 Cu2 1_555 1_555
C2 N3 1_555 1_555
C5 C6 1_555 1_555
C6 C7 1_555 1_555
C7 C9 1_555 1_555
C8 C5 1_555 1_555
H5 C8 1_555 1_555
H6 C8 1_555 1_555
H7 C8 1_555 1_555
C9 H8 1_555 1_555
H9 C9 1_555 1_555
H10 C9 1_555 1_555
C10 C6 1_555 1_555
H11 C10 1_555 1_555
N2 C7 1_555 1_555
C15 C16 1_555 1_555
C16 C10 1_555 1_555
C17 C16 1_555 1_555
C18 C15 1_555 1_555
H17 C18 1_555 1_555
H18 C18 1_555 1_555
H19 C18 1_555 1_555
C19 C17 1_555 1_555
H20 C19 1_555 1_555
H21 C19 1_555 1_555
H22 C19 1_555 1_555
H23 C10 1_555 1_555
N5 C15 1_555 1_555
N6 C17 1_555 1_555
C5 N1 1_555 1_555
N1 N2 1_555 1_555
N5 N6 1_555 1_555
O2 C4 1_555 1_555
O3 C4 1_555 1_555
Cu3 O3 1_555 1_555
O4 C14 1_555 1_555
O6 C14 1_555 1_555
Cu4 O6 1_555 1_555
C7_2 C9_2 1_555 1_555
C9_2 H8_2 1_555 1_555
H9_2 C9_2 1_555 1_555
H10_2 C9_2 1_555 1_555
H11_2 C10_2 1_555 1_555
C15_2 C16_2 1_555 1_555
C16_2 C10_2 1_555 1_555
C18_2 C15_2 1_555 1_555
H17_2 C18_2 1_555 1_555
H18_2 C18_2 1_555 1_555
H19_2 C18_2 1_555 1_555
N5_2 C15_2 1_555 1_555
H24_2 N6_2 1_555 1_555
Cu4 N5_2 1_555 1_555
N5_2 N6_2 1_555 1_555
Cu3 O2_2 1_555 1_555
O1_2 C1_2 1_555 1_555
O2_2 C4_2 1_555 1_555
O3_2 C4_2 1_555 1_555
C1_2 N3_2 1_555 1_555
C2_2 H1_2 1_555 1_555
C3_2 C2_2 1_555 1_555
H2_2 C3_2 1_555 1_555
H3_2 C3_2 1_555 1_555
H4_2 C3_2 1_555 1_555
C4_2 C2_2 1_555 1_555
C5_2 C6_2 1_555 1_555
C8_2 C5_2 1_555 1_555
H5_2 C8_2 1_555 1_555
H6_2 C8_2 1_555 1_555
H7_2 C8_2 1_555 1_555
C10_3 C6_2 1_555 1_555
N1_2 Cu3 1_555 1_555
H12_2 N2_2 1_555 1_555
N3_2 Cu3 1_555 1_555
O4_2 C14_2 1_555 1_555
C11_2 C1_2 1_555 1_555
C12_2 H13_2 1_555 1_555
C13_2 C12_2 1_555 1_555
H14_2 C13_2 1_555 1_555
H15_2 C13_2 1_555 1_555
C14_2 C12_2 1_555 1_555
N4_2 C11_2 1_555 1_555
O5_2 Cu3 1_555 1_555
O8 C14_2 1_555 1_555
C19_2 C17_2 1_555 1_555
H20_2 C19_2 1_555 1_555
H21_2 C19_2 1_555 1_555
H22_2 C19_2 1_555 1_555
H23_2 C10_3 1_555 1_555
Cu2_2 O1_2 1_555 1_555
Cu3_2 O3_2 1_555 1_555
O8_2 Cu2_2 1_555 1_555
N7_2 Cu2_2 1_555 1_555
C2_2 N3_2 1_555 1_555
C5_2 N1_2 1_555 1_555
N1_2 N2_2 1_555 1_555
O4_2 Cu2_2 1_555 1_555
C11_2 O5_2 1_555 1_555
C12_2 N4_2 1_555 1_555
N4_2 Cu2_2 1_555 1_555
O4_3 C14_3 1_555 1_555
O8_2 C14_3 1_555 1_555
O2_3 C4_3 1_555 1_555
O3_3 C4_3 1_555 1_555
C5_3 C6_3 1_555 1_555
C6_3 C7_3 1_555 1_555
C7_3 C9_3 1_555 1_555
C8_3 C5_3 1_555 1_555
H5_3 C8_3 1_555 1_555
H6_3 C8_3 1_555 1_555
H7_3 C8_3 1_555 1_555
C9_3 H8_3 1_555 1_555
H9_3 C9_3 1_555 1_555
H10_3 C9_3 1_555 1_555
C10_4 C6_3 1_555 1_555
H11_3 C10_4 1_555 1_555
N2_3 C7_3 1_555 1_555
C15_3 C16_3 1_555 1_555
C16_3 C10_4 1_555 1_555
C17_3 C16_3 1_555 1_555
C18_3 C15_3 1_555 1_555
H17_3 C18_3 1_555 1_555
H18_3 C18_3 1_555 1_555
H19_3 C18_3 1_555 1_555
C19_3 C17_3 1_555 1_555
H20_3 C19_3 1_555 1_555
H21_3 C19_3 1_555 1_555
H22_3 C19_3 1_555 1_555
H23_3 C10_4 1_555 1_555
N7 C15_3 1_555 1_555
N6_3 C17_3 1_555 1_555
Cu3_3 O3_3 1_555 1_555
C5_3 N1_3 1_555 1_555
N1_3 N2_3 1_555 1_555
N7 N6_3 1_555 1_555
O1_3 C1_3 1_555 1_555
C1_3 N3_3 1_555 1_555
C2_3 H1_3 1_555 1_555
C3_3 C2_3 1_555 1_555
H2_3 C3_3 1_555 1_555
N3_3 Cu3_2 1_555 1_555
C11_3 C1_3 1_555 1_555
C12_3 H13_3 1_555 1_555
C13_3 C12_3 1_555 1_555
H14_3 C13_3 1_555 1_555
N4_3 C11_3 1_555 1_555
O5_3 Cu3_2 1_555 1_555
Cu5 O1_3 1_555 1_555
O8_3 Cu5 1_555 1_555
C2_3 N3_3 1_555 1_555
C11_3 O5_3 1_555 1_555
C12_3 N4_3 1_555 1_555
N4_3 Cu5 1_555 1_555
Cu3_3 O2_4 1_555 1_555
O1_4 C1_4 1_555 1_555
O2_4 C4_4 1_555 1_555
O7 C4_4 1_555 1_555
C1_4 N3_4 1_555 1_555
C2_4 H1_4 1_555 1_555
C3_4 C2_4 1_555 1_555
H2_4 C3_4 1_555 1_555
H3_4 C3_4 1_555 1_555
C4_4 C2_4 1_555 1_555
C5_4 C6_4 1_555 1_555
C6_4 C7_4 1_555 1_555
C7_4 C9_4 1_555 1_555
C8_4 C5_4 1_555 1_555
H5_4 C8_4 1_555 1_555
H6_4 C8_4 1_555 1_555
H7_4 C8_4 1_555 1_555
C9_4 H8_4 1_555 1_555
H9_4 C9_4 1_555 1_555
H10_4 C9_4 1_555 1_555
C10_5 C6_4 1_555 1_555
H11_4 C10_5 1_555 1_555
N1_4 Cu3_3 1_555 1_555
N2_4 C7_4 1_555 1_555
H12_4 N2_4 1_555 1_555
N3_4 Cu3_3 1_555 1_555
O4_4 C14_4 1_555 1_555
C11_4 C1_4 1_555 1_555
C12_4 H13_4 1_555 1_555
C13_4 C12_4 1_555 1_555
H14_4 C13_4 1_555 1_555
H15_4 C13_4 1_555 1_555
H16_4 C13_4 1_555 1_555
C14_4 C12_4 1_555 1_555
N4_4 C11_4 1_555 1_555
O5_4 Cu3_3 1_555 1_555
O8_3 C14_4 1_555 1_555
C15_4 C16_4 1_555 1_555
C16_4 C10_5 1_555 1_555
C17_4 C16_4 1_555 1_555
C18_4 C15_4 1_555 1_555
H17_4 C18_4 1_555 1_555
H18_4 C18_4 1_555 1_555
H19_4 C18_4 1_555 1_555
C19_4 C17_4 1_555 1_555
H20_4 C19_4 1_555 1_555
H21_4 C19_4 1_555 1_555
H22_4 C19_4 1_555 1_555
H23_4 C10_5 1_555 1_555
N7_2 C15_4 1_555 1_555
N6_4 C17_4 1_555 1_555
H24_4 N6_4 1_555 1_555
Cu4 O1_4 1_555 1_555
C2_4 N3_4 1_555 1_555
C5_4 N1_4 1_555 1_555
N1_4 N2_4 1_555 1_555
O4_4 Cu4 1_555 1_555
C11_4 O5_4 1_555 1_555
C12_4 N4_4 1_555 1_555
N4_4 Cu4 1_555 1_555
N7_2 N6_4 1_555 1_555

#END
