
###############################################################################
#
# This file contains modified crystal structure data generated from the
# MOF subset of the Cambridge Structural Database (CSD) v543 
# hosted by the Cambridge Crystallographic Data Centre (CCDC).
#
# This work is licensed under the Creative Commons
# Attribution-NonCommercial-ShareAlike 4.0 International License.
# To view a copy of this license, visit
# http://creativecommons.org/licenses/by-nc-sa/4.0/
# or send a letter to
# Creative Commons, PO Box 1866, Mountain View, CA 94042, USA.
#
# CIF created using the CSD Python API on 29 September 2022
# The structure has been converted into the P1 space group
# The structure has a 3D framework
# The original CSD entry PIZYOP is in the triclinic crystal system
# The framework has been calculated to contain at least 10.0% void space
# The void calculation uses a probe of radius 1.32A, grid spacing 0.4
#
###############################################################################

data_PIZYOP
_chemical_formula_moiety         '(C66 H46 Eu4 O32)n'
_symmetry_cell_setting           triclinic
_symmetry_space_group_name_H-M   'P 1'
_symmetry_Int_Tables_number      1
_space_group_name_Hall           'P 1'
loop_
_symmetry_equiv_pos_site_id
_symmetry_equiv_pos_as_xyz
1 x,y,z
_cell_length_a                   10.8203(6)
_cell_length_b                   13.0737(7)
_cell_length_c                   17.7314(10)
_cell_angle_alpha                73.823(2)
_cell_angle_beta                 78.505(2)
_cell_angle_gamma                83.110(2)
_cell_volume                     2355.13
loop_
_atom_site_label
_atom_site_type_symbol
_atom_site_fract_x
_atom_site_fract_y
_atom_site_fract_z
_atom_site_U_iso_or_equiv
_atom_site_thermal_displace_type
Eu10 Eu 0.09170(3) 0.05950(2) 0.24426(2) 0.0193 Uani
O5 O 0.1150(4) 0.2473(4) 0.1968(3) 0.0285 Uani
O6 O 0.1097(4) 0.4082(4) 0.1157(3) 0.0295 Uani
C16 C 0.0543(6) 0.3333(5) 0.1668(4) 0.0188 Uani
Eu16 Eu 0.33938(3) 0.36718(2) 0.09059(2) 0.0164 Uani
O37 O 0.1000(4) 0.0085(4) 0.6662(3) 0.0406 Uani
O35 O 0.1211(4) 0.9161(4) 0.7864(3) 0.0334 Uani
O21 O 0.3048(4) 0.0728(4) 0.2109(3) 0.0286 Uani
O22 O 0.4310(4) 0.2058(4) 0.1628(3) 0.0292 Uani
O23 O 0.8789(4) 0.0839(4) 0.2136(3) 0.0334 Uani
C45 C 0.4015(6) 0.1178(5) 0.2093(4) 0.0217 Uani
C46 C 0.4875(6) 0.0600(5) 0.2664(4) 0.0206 Uani
C47 C 0.6153(6) 0.0737(5) 0.2478(4) 0.0192 Uani
H29 H 0.649635 0.119490 0.199823 0.0230 Uiso
C48 C 0.6925(6) 0.0174(5) 0.3024(4) 0.0193 Uani
C49 C 0.8320(6) 0.0322(5) 0.2815(4) 0.0240 Uani
O29 O 0.1074(5) 0.0945(4) 0.0997(3) 0.0396 Uani
H39 H 0.064931 0.140199 0.063484 0.0590 Uiso
H40 H 0.147411 0.040159 0.082585 0.0590 Uiso
O30 O 0.1007(6) 0.1145(4) 0.3603(3) 0.0469 Uani
H41 H 0.066577 0.088471 0.408947 0.0700 Uiso
H42 H 0.130557 0.169311 0.362817 0.0700 Uiso
O7 O 0.5247(5) 0.4351(4) 0.0985(3) 0.0374 Uani
O8 O 0.6924(4) 0.5115(4) 0.0270(3) 0.0358 Uani
C6 C 0.3592(6) 0.0471(5) 0.6247(4) 0.0201 Uani
H2 H 0.306580 0.082837 0.588717 0.0240 Uiso
C7 C 0.4890(6) 0.0594(5) 0.6041(3) 0.0174 Uani
C8 C 0.5638(6) 0.0069(5) 0.6606(4) 0.0218 Uani
H3 H 0.649906 0.016569 0.649503 0.0260 Uiso
C9 C 0.5472(6) 0.1235(5) 0.5235(4) 0.0197 Uani
C10 C 0.4776(6) 0.1655(5) 0.4620(4) 0.0232 Uani
H4 H 0.391684 0.155324 0.471368 0.0280 Uiso
C11 C 0.5347(6) 0.2224(5) 0.3870(4) 0.0226 Uani
H5 H 0.485979 0.248800 0.347197 0.0270 Uiso
C12 C 0.6610(6) 0.2407(5) 0.3700(4) 0.0204 Uani
C13 C 0.7238(6) 0.2967(5) 0.2882(3) 0.0192 Uani
C14 C 0.8558(6) 0.2944(5) 0.2675(4) 0.0212 Uani
H6 H 0.904775 0.258370 0.305635 0.0250 Uiso
C15 C 0.9151(6) 0.3448(5) 0.1912(4) 0.0193 Uani
C17 C 0.8424(6) 0.4003(5) 0.1338(4) 0.0197 Uani
H7 H 0.881098 0.437409 0.083504 0.0240 Uiso
C18 C 0.7125(6) 0.3994(5) 0.1527(3) 0.0174 Uani
C19 C 0.6366(6) 0.4522(5) 0.0881(4) 0.0181 Uani
C31 C 0.6529(6) 0.3489(5) 0.2283(4) 0.0192 Uani
H13 H 0.565125 0.349573 0.239663 0.0230 Uiso
C32 C 0.7302(6) 0.2003(6) 0.4323(4) 0.0291 Uani
H14 H 0.815335 0.212850 0.423421 0.0350 Uiso
C33 C 0.6746(6) 0.1423(6) 0.5064(4) 0.0283 Uani
H15 H 0.723706 0.115105 0.545893 0.0340 Uiso
O15 O 0.4873(6) 0.6868(4) 0.0120(3) 0.0526 Uani
H20 H 0.431108 0.648191 0.046697 0.0800 Uiso
H22 H 0.744521 0.730273 0.030744 0.1150 Uiso
O45 O 0.8636(5) 0.1139(4) 0.7840(3) 0.0376 Uani
O47 O 0.8319(4) 0.1091(4) 0.6667(3) 0.0263 Uani
Eu2 Eu 0.66062(3) 0.63282(2) 0.90941(2) 0.0164 Uani
O9 O 0.6986(5) 0.5973(3) 0.7780(3) 0.0289 Uani
O10 O 0.7064(5) 0.4515(3) 0.8767(3) 0.0294 Uani
C20 C 0.7050(6) 0.4963(5) 0.8047(4) 0.0258 Uani
C21 C 0.7044(6) 0.4300(5) 0.7479(4) 0.0258 Uani
C22 C 0.7590(7) 0.3271(5) 0.7626(4) 0.0276 Uani
H8 H 0.796439 0.298278 0.807537 0.0340 Uiso
C23 C 0.7573(7) 0.2667(5) 0.7091(4) 0.0279 Uani
C24 C 0.8221(6) 0.1573(5) 0.7198(4) 0.0270 Uani
C25 C 0.6955(7) 0.3086(5) 0.6438(4) 0.0297 Uani
H9 H 0.692967 0.267166 0.609282 0.0350 Uiso
C26 C 0.6376(7) 0.4119(6) 0.6299(4) 0.0320 Uani
C27 C 0.6451(7) 0.4730(5) 0.6826(4) 0.0297 Uani
H10 H 0.609862 0.542913 0.673501 0.0350 Uiso
C28 C 0.5701(7) 0.4555(5) 0.5630(4) 0.0283 Uani
C29 C 0.5735(8) 0.5639(6) 0.5200(5) 0.0386 Uani
H11 H 0.621759 0.608291 0.533409 0.0460 Uiso
C30 C 0.5065(8) 0.6054(6) 0.4583(5) 0.0373 Uani
H12 H 0.513182 0.676595 0.430036 0.0440 Uiso
H21 H 0.473048 0.755921 0.999667 0.0800 Uiso
O16 O 0.7457(7) 0.7390(6) 0.9794(4) 0.0762 Uani
H23 H 0.754281 0.803463 0.949554 0.1150 Uiso
O17 O 0.3014(5) 0.4027(3) 0.2220(3) 0.0289 Uani
O18 O 0.2936(5) 0.5485(3) 0.1233(3) 0.0294 Uani
O19 O 0.1364(5) 0.8861(4) 0.2160(3) 0.0376 Uani
O20 O 0.1681(4) 0.8909(4) 0.3333(3) 0.0263 Uani
C34 C 0.2950(6) 0.5037(5) 0.1953(4) 0.0258 Uani
C35 C 0.2956(6) 0.5700(5) 0.2521(4) 0.0258 Uani
C36 C 0.2410(7) 0.6729(5) 0.2374(4) 0.0276 Uani
H24 H 0.203561 0.701722 0.192463 0.0340 Uiso
C37 C 0.2427(7) 0.7333(5) 0.2909(4) 0.0279 Uani
C38 C 0.1779(6) 0.8427(5) 0.2802(4) 0.0270 Uani
C39 C 0.3045(7) 0.6914(5) 0.3562(4) 0.0297 Uani
H25 H 0.307033 0.732834 0.390718 0.0350 Uiso
C40 C 0.3624(7) 0.5881(6) 0.3701(4) 0.0320 Uani
C41 C 0.3549(7) 0.5270(5) 0.3174(4) 0.0297 Uani
H26 H 0.390138 0.457087 0.326499 0.0350 Uiso
C42 C 0.4299(7) 0.5445(5) 0.4370(4) 0.0283 Uani
C43 C 0.4265(8) 0.4361(6) 0.4800(5) 0.0386 Uani
H27 H 0.378241 0.391709 0.466591 0.0460 Uiso
C44 C 0.4935(8) 0.3946(6) 0.5417(5) 0.0373 Uani
H28 H 0.486818 0.323405 0.569964 0.0440 Uiso
H44 H 0.526952 0.244079 0.000333 0.0800 Uiso
O32 O 0.2543(7) 0.2610(6) 0.0206(4) 0.0762 Uani
H46 H 0.245719 0.196537 0.050446 0.1150 Uiso
O33 O 0.5690(4) 0.7942(4) 0.8372(3) 0.0292 Uani
O42 O 0.8903(4) 0.5918(4) 0.8843(3) 0.0295 Uani
O44 O 0.4753(5) 0.5649(4) 0.9015(3) 0.0374 Uani
O24 O 0.9000(4) 0.9915(4) 0.3338(3) 0.0406 Uani
O28 O 0.3076(4) 0.4885(4) 0.9730(3) 0.0358 Uani
C50 C 0.6408(6) 0.9529(5) 0.3753(4) 0.0201 Uani
H30 H 0.693420 0.917163 0.411283 0.0240 Uiso
C51 C 0.5110(6) 0.9406(5) 0.3959(3) 0.0174 Uani
C52 C 0.4362(6) 0.9931(5) 0.3394(4) 0.0218 Uani
H31 H 0.350094 0.983431 0.350497 0.0260 Uiso
C53 C 0.4528(6) 0.8765(5) 0.4765(4) 0.0197 Uani
C54 C 0.5224(6) 0.8345(5) 0.5380(4) 0.0232 Uani
H32 H 0.608316 0.844676 0.528632 0.0280 Uiso
C55 C 0.4653(6) 0.7776(5) 0.6130(4) 0.0226 Uani
H33 H 0.514021 0.751200 0.652803 0.0270 Uiso
C56 C 0.3390(6) 0.7593(5) 0.6300(4) 0.0204 Uani
C57 C 0.2762(6) 0.7033(5) 0.7118(3) 0.0192 Uani
C58 C 0.1442(6) 0.7056(5) 0.7325(4) 0.0212 Uani
H34 H 0.095225 0.741630 0.694365 0.0250 Uiso
C59 C 0.0849(6) 0.6552(5) 0.8088(4) 0.0193 Uani
C61 C 0.1576(6) 0.5997(5) 0.8662(4) 0.0197 Uani
H35 H 0.118902 0.562591 0.916496 0.0240 Uiso
C62 C 0.2875(6) 0.6006(5) 0.8473(3) 0.0174 Uani
C63 C 0.3634(6) 0.5478(5) 0.9119(4) 0.0181 Uani
C64 C 0.3471(6) 0.6511(5) 0.7717(4) 0.0192 Uani
H36 H 0.434875 0.650427 0.760337 0.0230 Uiso
C65 C 0.2698(6) 0.7997(6) 0.5677(4) 0.0291 Uani
H37 H 0.184665 0.787150 0.576579 0.0350 Uiso
C66 C 0.3254(6) 0.8577(6) 0.4936(4) 0.0283 Uani
H38 H 0.276294 0.884895 0.454107 0.0340 Uiso
O31 O 0.5127(6) 0.3132(4) 0.9880(3) 0.0526 Uani
H43 H 0.568892 0.351809 0.953303 0.0800 Uiso
H45 H 0.255479 0.269727 0.969256 0.1150 Uiso
Eu1 Eu 0.90830(3) 0.94050(2) 0.75574(2) 0.0193 Uani
O1 O 0.6952(4) 0.9272(4) 0.7891(3) 0.0286 Uani
C1 C 0.5985(6) 0.8822(5) 0.7907(4) 0.0217 Uani
C2 C 0.5125(6) 0.9400(5) 0.7336(4) 0.0206 Uani
C3 C 0.3847(6) 0.9263(5) 0.7522(4) 0.0192 Uani
H1 H 0.350365 0.880510 0.800177 0.0230 Uiso
C4 C 0.3075(6) 0.9826(5) 0.6976(4) 0.0193 Uani
C5 C 0.1680(6) 0.9678(5) 0.7185(4) 0.0240 Uani
O13 O 0.8926(5) 0.9055(4) 0.9003(3) 0.0396 Uani
H16 H 0.935069 0.859801 0.936516 0.0590 Uiso
H17 H 0.852589 0.959841 0.917415 0.0590 Uiso
O14 O 0.8993(6) 0.8855(4) 0.6397(3) 0.0469 Uani
H18 H 0.933423 0.911529 0.591053 0.0700 Uiso
H19 H 0.869443 0.830689 0.637183 0.0700 Uiso
O40 O 0.8850(4) 0.7527(4) 0.8032(3) 0.0285 Uani
C60 C 0.9457(6) 0.6667(5) 0.8332(4) 0.0188 Uani
loop_
_atom_site_aniso_label
_atom_site_aniso_U_11
_atom_site_aniso_U_22
_atom_site_aniso_U_33
_atom_site_aniso_U_23
_atom_site_aniso_U_13
_atom_site_aniso_U_12
Eu10 0.01301 0.01949 0.02355 -0.00134 -0.00435 -0.00269
O5 0.022 0.029 0.034 -0.006 -0.01 0.004
O6 0.018 0.033 0.027 0.006 0.002 -0.004
C16 0.012 0.025 0.022 -0.008 -0.008 0.002
Eu16 0.01442 0.01698 0.0159 0.00152 -0.00522 -0.00378
O37 0.014 0.063 0.033 0.012 -0.009 -0.007
O35 0.018 0.045 0.026 0.011 -0.003 -0.008
O21 0.015 0.031 0.036 0 -0.007 -0.004
O22 0.025 0.021 0.032 0.01 -0.005 -0.005
O23 0.018 0.045 0.026 0.011 -0.003 -0.008
C45 0.014 0.024 0.022 0.001 -0.002 0
C46 0.019 0.018 0.025 -0.002 -0.009 -0.002
C47 0.013 0.024 0.017 0 0 -0.005
C48 0.012 0.025 0.021 -0.006 -0.004 0
C49 0.017 0.026 0.029 -0.006 -0.007 0.001
O29 0.045 0.032 0.037 -0.003 -0.006 0
O30 0.064 0.045 0.033 -0.007 -0.007 -0.019
O7 0.026 0.047 0.036 0.007 -0.018 -0.012
O8 0.019 0.051 0.021 0.015 -0.001 -0.001
C6 0.014 0.025 0.02 -0.001 -0.008 0
C7 0.017 0.016 0.017 -0.001 -0.001 -0.004
C8 0.016 0.024 0.023 0.001 -0.004 -0.008
C9 0.017 0.019 0.022 -0.002 -0.006 -0.001
C10 0.013 0.028 0.025 0 -0.004 -0.003
C11 0.015 0.029 0.019 0.002 -0.002 -0.004
C12 0.02 0.021 0.017 0 -0.002 -0.003
C13 0.02 0.02 0.015 0 -0.003 -0.002
C14 0.019 0.02 0.022 0.001 -0.009 0.002
C15 0.014 0.019 0.024 -0.005 -0.002 -0.001
C17 0.013 0.024 0.018 0.002 0 -0.008
C18 0.017 0.019 0.013 0.001 -0.003 -0.001
C19 0.013 0.021 0.02 -0.006 -0.004 0.004
C31 0.015 0.02 0.022 -0.005 -0.003 -0.001
C32 0.019 0.044 0.018 0.005 -0.005 -0.006
C33 0.017 0.048 0.014 0.006 -0.009 -0.003
O15 0.057 0.032 0.049 -0.003 0.027 -0.005
O45 0.054 0.025 0.037 -0.006 -0.026 0.01
O47 0.031 0.021 0.027 -0.004 -0.01 0.001
Eu2 0.01442 0.01698 0.0159 0.00152 -0.00522 -0.00378
O9 0.038 0.02 0.03 -0.005 -0.009 -0.006
O10 0.042 0.021 0.027 -0.005 -0.014 0.001
C20 0.018 0.027 0.035 -0.01 -0.007 -0.003
C21 0.026 0.025 0.03 -0.01 -0.01 -0.001
C22 0.035 0.021 0.029 -0.003 -0.016 -0.001
C23 0.032 0.023 0.032 -0.006 -0.016 0
C24 0.025 0.024 0.032 0 -0.013 -0.006
C25 0.032 0.027 0.037 -0.013 -0.021 0.007
C26 0.045 0.026 0.029 -0.009 -0.016 0.002
C27 0.035 0.016 0.042 -0.006 -0.021 0.003
C28 0.036 0.018 0.036 -0.009 -0.025 0.014
C29 0.056 0.024 0.049 -0.017 -0.032 0.002
C30 0.052 0.02 0.043 -0.006 -0.025 0.008
O16 0.111 0.089 0.044 -0.04 0.024 -0.076
O17 0.038 0.02 0.03 -0.005 -0.009 -0.006
O18 0.042 0.021 0.027 -0.005 -0.014 0.001
O19 0.054 0.025 0.037 -0.006 -0.026 0.01
O20 0.031 0.021 0.027 -0.004 -0.01 0.001
C34 0.018 0.027 0.035 -0.01 -0.007 -0.003
C35 0.026 0.025 0.03 -0.01 -0.01 -0.001
C36 0.035 0.021 0.029 -0.003 -0.016 -0.001
C37 0.032 0.023 0.032 -0.006 -0.016 0
C38 0.025 0.024 0.032 0 -0.013 -0.006
C39 0.032 0.027 0.037 -0.013 -0.021 0.007
C40 0.045 0.026 0.029 -0.009 -0.016 0.002
C41 0.035 0.016 0.042 -0.006 -0.021 0.003
C42 0.036 0.018 0.036 -0.009 -0.025 0.014
C43 0.056 0.024 0.049 -0.017 -0.032 0.002
C44 0.052 0.02 0.043 -0.006 -0.025 0.008
O32 0.111 0.089 0.044 -0.04 0.024 -0.076
O33 0.025 0.021 0.032 0.01 -0.005 -0.005
O42 0.018 0.033 0.027 0.006 0.002 -0.004
O44 0.026 0.047 0.036 0.007 -0.018 -0.012
O24 0.014 0.063 0.033 0.012 -0.009 -0.007
O28 0.019 0.051 0.021 0.015 -0.001 -0.001
C50 0.014 0.025 0.02 -0.001 -0.008 0
C51 0.017 0.016 0.017 -0.001 -0.001 -0.004
C52 0.016 0.024 0.023 0.001 -0.004 -0.008
C53 0.017 0.019 0.022 -0.002 -0.006 -0.001
C54 0.013 0.028 0.025 0 -0.004 -0.003
C55 0.015 0.029 0.019 0.002 -0.002 -0.004
C56 0.02 0.021 0.017 0 -0.002 -0.003
C57 0.02 0.02 0.015 0 -0.003 -0.002
C58 0.019 0.02 0.022 0.001 -0.009 0.002
C59 0.014 0.019 0.024 -0.005 -0.002 -0.001
C61 0.013 0.024 0.018 0.002 0 -0.008
C62 0.017 0.019 0.013 0.001 -0.003 -0.001
C63 0.013 0.021 0.02 -0.006 -0.004 0.004
C64 0.015 0.02 0.022 -0.005 -0.003 -0.001
C65 0.019 0.044 0.018 0.005 -0.005 -0.006
C66 0.017 0.048 0.014 0.006 -0.009 -0.003
O31 0.057 0.032 0.049 -0.003 0.027 -0.005
Eu1 0.01301 0.01949 0.02355 -0.00134 -0.00435 -0.00269
O1 0.015 0.031 0.036 0 -0.007 -0.004
C1 0.014 0.024 0.022 0.001 -0.002 0
C2 0.019 0.018 0.025 -0.002 -0.009 -0.002
C3 0.013 0.024 0.017 0 0 -0.005
C4 0.012 0.025 0.021 -0.006 -0.004 0
C5 0.017 0.026 0.029 -0.006 -0.007 0.001
O13 0.045 0.032 0.037 -0.003 -0.006 0
O14 0.064 0.045 0.033 -0.007 -0.007 -0.019
O40 0.022 0.029 0.034 -0.006 -0.01 0.004
C60 0.012 0.025 0.022 -0.008 -0.008 0.002
loop_
_geom_bond_atom_site_label_1
_geom_bond_atom_site_label_2
_geom_bond_site_symmetry_1
_geom_bond_site_symmetry_2
O5 C16 1_555 1_555
O6 C16 1_555 1_555
Eu10 O5 1_555 1_555
Eu16 O6 1_555 1_555
Eu10 O21 1_555 1_555
O21 C45 1_555 1_555
O22 C45 1_555 1_555
O23 C49 1_555 1_555
C45 C46 1_555 1_555
C46 C47 1_555 1_555
C47 H29 1_555 1_555
C48 C47 1_555 1_555
C49 C48 1_555 1_555
O29 Eu10 1_555 1_555
H39 O29 1_555 1_555
H40 O29 1_555 1_555
O30 Eu10 1_555 1_555
H41 O30 1_555 1_555
H42 O30 1_555 1_555
Eu16 O22 1_555 1_555
O7 C19 1_555 1_555
O8 C19 1_555 1_555
H2 C6 1_555 1_555
C7 C6 1_555 1_555
H3 C8 1_555 1_555
C9 C7 1_555 1_555
C10 C9 1_555 1_555
H4 C10 1_555 1_555
C11 C10 1_555 1_555
H5 C11 1_555 1_555
C12 C11 1_555 1_555
C13 C12 1_555 1_555
C14 C13 1_555 1_555
H6 C14 1_555 1_555
C15 C14 1_555 1_555
C17 C15 1_555 1_555
H7 C17 1_555 1_555
C18 C17 1_555 1_555
C19 C18 1_555 1_555
C31 C13 1_555 1_555
H13 C31 1_555 1_555
C32 C12 1_555 1_555
H14 C32 1_555 1_555
C33 C9 1_555 1_555
H15 C33 1_555 1_555
H20 O15 1_555 1_555
Eu16 O7 1_555 1_555
C7 C8 1_555 1_555
C18 C31 1_555 1_555
C32 C33 1_555 1_555
O9 Eu2 1_555 1_555
O10 Eu2 1_555 1_555
O45 C24 1_555 1_555
O47 C24 1_555 1_555
C20 O9 1_555 1_555
C21 C20 1_555 1_555
C22 C21 1_555 1_555
H8 C22 1_555 1_555
C23 C22 1_555 1_555
C24 C23 1_555 1_555
C25 C23 1_555 1_555
H9 C25 1_555 1_555
C26 C25 1_555 1_555
C27 C21 1_555 1_555
H10 C27 1_555 1_555
C28 C26 1_555 1_555
C29 C28 1_555 1_555
H11 C29 1_555 1_555
C30 C29 1_555 1_555
H12 C30 1_555 1_555
O16 Eu2 1_555 1_555
H23 O16 1_555 1_555
O17 C34 1_555 1_555
O18 C34 1_555 1_555
O19 C38 1_555 1_555
O20 C38 1_555 1_555
C34 C35 1_555 1_555
C35 C36 1_555 1_555
C36 H24 1_555 1_555
C37 C36 1_555 1_555
C38 C37 1_555 1_555
C39 C37 1_555 1_555
H25 C39 1_555 1_555
C40 C39 1_555 1_555
C41 C35 1_555 1_555
H26 C41 1_555 1_555
C42 C30 1_555 1_555
C43 C42 1_555 1_555
H27 C43 1_555 1_555
C44 C28 1_555 1_555
H28 C44 1_555 1_555
Eu16 O17 1_555 1_555
O32 Eu16 1_555 1_555
H46 O32 1_555 1_555
O33 Eu2 1_555 1_555
O42 Eu2 1_555 1_555
O44 Eu2 1_555 1_555
O10 C20 1_555 1_555
C26 C27 1_555 1_555
O18 Eu16 1_555 1_555
C40 C41 1_555 1_555
C40 C42 1_555 1_555
C43 C44 1_555 1_555
O44 C63 1_555 1_555
H30 C50 1_555 1_555
C51 C50 1_555 1_555
H31 C52 1_555 1_555
C53 C51 1_555 1_555
C54 C53 1_555 1_555
H32 C54 1_555 1_555
C55 C54 1_555 1_555
H33 C55 1_555 1_555
C56 C55 1_555 1_555
C57 C56 1_555 1_555
C58 C57 1_555 1_555
H34 C58 1_555 1_555
C59 C58 1_555 1_555
C61 C59 1_555 1_555
H35 C61 1_555 1_555
C62 C61 1_555 1_555
C63 O28 1_555 1_555
C64 C57 1_555 1_555
H36 C64 1_555 1_555
C65 C56 1_555 1_555
H37 C65 1_555 1_555
C66 C53 1_555 1_555
H38 C66 1_555 1_555
H43 O31 1_555 1_555
C51 C52 1_555 1_555
C62 C63 1_555 1_555
C62 C64 1_555 1_555
C65 C66 1_555 1_555
Eu1 O1 1_555 1_555
O1 C1 1_555 1_555
O33 C1 1_555 1_555
O35 C5 1_555 1_555
C1 C2 1_555 1_555
C2 C3 1_555 1_555
C3 H1 1_555 1_555
C4 C3 1_555 1_555
C5 C4 1_555 1_555
O13 Eu1 1_555 1_555
H16 O13 1_555 1_555
H17 O13 1_555 1_555
O14 Eu1 1_555 1_555
H18 O14 1_555 1_555
H19 O14 1_555 1_555
O40 Eu1 1_555 1_555
O40 C60 1_555 1_555
O42 C60 1_555 1_555

#END
