
###############################################################################
#
# This file contains modified crystal structure data generated from the
# MOF subset of the Cambridge Structural Database (CSD) v543 
# hosted by the Cambridge Crystallographic Data Centre (CCDC).
#
# This work is licensed under the Creative Commons
# Attribution-NonCommercial-ShareAlike 4.0 International License.
# To view a copy of this license, visit
# http://creativecommons.org/licenses/by-nc-sa/4.0/
# or send a letter to
# Creative Commons, PO Box 1866, Mountain View, CA 94042, USA.
#
# CIF created using the CSD Python API on 29 September 2022
# The structure has been converted into the P1 space group
# The structure has a 3D framework
# The original CSD entry PODJEZ is in the monoclinic crystal system
# The framework has been calculated to contain at least 10.0% void space
# The void calculation uses a probe of radius 1.32A, grid spacing 0.4
#
###############################################################################

data_PODJEZ
_chemical_formula_moiety         '(C120 H88 Ag2 N32 O16)n'
_symmetry_cell_setting           triclinic
_symmetry_space_group_name_H-M   'P 1'
_symmetry_Int_Tables_number      1
_space_group_name_Hall           'P 1'
loop_
_symmetry_equiv_pos_site_id
_symmetry_equiv_pos_as_xyz
1 x,y,z
_cell_length_a                   23.831(3)
_cell_length_b                   9.8104(13)
_cell_length_c                   16.555(2)
_cell_angle_alpha                90
_cell_angle_beta                 114.275(3)
_cell_angle_gamma                90
_cell_volume                     3528.21
loop_
_atom_site_label
_atom_site_type_symbol
_atom_site_fract_x
_atom_site_fract_y
_atom_site_fract_z
O1 O 0.0543(3) 0.1894(6) 0.0513(4)
C1 C 0.2423(4) 0.1132(7) 0.2015(5)
H1 H 0.2652 0.0604 0.1794
C2 C 0.3892(3) 0.2211(7) 0.2608(5)
C3 C 0.1462(3) 0.2170(7) 0.1822(5)
C4 C 0.1810(4) 0.1442(8) 0.1486(6)
H2 H 0.1635 0.1152 0.0900
N1 N 0.3306(3) 0.1217(6) 0.3447(4)
N2 N 0.4300(3) 0.0888(5) 0.3985(4)
C5 C 0.2684(3) 0.1622(8) 0.2870(5)
O2 O 0.0487(3) 0.2957(7) 0.1669(4)
C6 C 0.4173(3) 0.1619(8) 0.2128(5)
H3 H 0.4306 0.0722 0.2264
N3 N 0.4068(3) 0.0241(6) 0.4531(4)
C7 C 0.3836(3) 0.1451(7) 0.3331(5)
C8 C 0.2358(4) 0.2393(7) 0.3206(5)
H4 H 0.2543 0.2726 0.3782
C9 C 0.3791(5) 0.4200(8) 0.1732(7)
H5 H 0.3659 0.5092 0.1578
C10 C 0.3473(3) 0.0453(8) 0.4190(5)
N4 N 0.4273(3) 0.2225(6) 0.1480(4)
C11 C 0.0774(4) 0.2353(8) 0.1290(6)
C12 C 0.1745(4) 0.2678(8) 0.2682(5)
H6 H 0.1521 0.3215 0.2907
H7 H 0.2881 0.0645 0.4773
C14 C 0.4089(4) 0.3514(9) 0.1310(6)
H10 H 0.4169 0.3974 0.0877
C15 C 0.3691(4) 0.3526(8) 0.2398(6)
H11 H 0.3490 0.3964 0.2701
Ag3 Ag 0.53068(3) 0.10596(6) 0.43221(4)
Ag4 Ag 0.46932(3) 0.10596(6) 0.06779(4)
Ag2 Ag 0.03068(3) 0.39404(6) 0.93221(4)
Ag1 Ag 0.46932(3) 0.89404(6) 0.56779(4)
C13 C 0.3057(4) 0.9904(9) 0.4575(6)
H8 H 0.3286 0.9325 0.5068
H9 H 0.2734 0.9388 0.4133
O3 O 0.4457(3) 0.6894(6) 0.4487(4)
N5 N 0.5700(3) 0.9112(5) 0.6015(4)
N6 N 0.4273(3) 0.7775(6) 0.6480(4)
O1_2 O 0.9457(3) 0.1894(6) 0.4487(4)
C1_2 C 0.7577(4) 0.1132(7) 0.2985(5)
H1_2 H 0.7348 0.0604 0.3206
C2_2 C 0.6108(3) 0.2211(7) 0.2392(5)
C3_2 C 0.8538(3) 0.2170(7) 0.3178(5)
C4_2 C 0.8190(4) 0.1442(8) 0.3514(6)
H2_2 H 0.8365 0.1152 0.4100
N1_2 N 0.6694(3) 0.1217(6) 0.1553(4)
N2_2 N 0.5700(3) 0.0888(5) 0.1015(4)
C5_2 C 0.7316(3) 0.1622(8) 0.2130(5)
O2_2 O 0.9513(3) 0.2957(7) 0.3331(4)
C6_2 C 0.5827(3) 0.1619(8) 0.2872(5)
H3_2 H 0.5694 0.0722 0.2736
N3_2 N 0.5932(3) 0.0241(6) 0.0469(4)
C7_2 C 0.6164(3) 0.1451(7) 0.1669(5)
C8_2 C 0.7642(4) 0.2393(7) 0.1794(5)
H4_2 H 0.7457 0.2726 0.1218
C9_2 C 0.6209(5) 0.4200(8) 0.3268(7)
H5_2 H 0.6341 0.5092 0.3422
C10_2 C 0.6527(3) 0.0453(8) 0.0810(5)
N4_2 N 0.5727(3) 0.2225(6) 0.3520(4)
C11_2 C 0.9226(4) 0.2353(8) 0.3710(6)
C12_2 C 0.8255(4) 0.2678(8) 0.2318(5)
H6_2 H 0.8479 0.3215 0.2093
H7_2 H 0.7119 0.0645 0.0227
C14_2 C 0.5911(4) 0.3514(9) 0.3690(6)
H10_2 H 0.5831 0.3974 0.4123
C15_2 C 0.6309(4) 0.3526(8) 0.2602(6)
H11_2 H 0.6510 0.3964 0.2299
Ag2_2 Ag 0.96932(3) 0.39404(6) 0.56779(4)
C13_2 C 0.6943(4) 0.9904(9) 0.0425(6)
H9_2 H 0.7266 0.9388 0.0867
O3_2 O 0.5543(3) 0.6894(6) 0.0513(4)
Ag1_2 Ag 0.53068(3) 0.89404(6) 0.93221(4)
H8_2 H 0.6714 0.9325 0.9932
N5_2 N 0.4300(3) 0.9112(5) 0.8985(4)
N6_2 N 0.5727(3) 0.7775(6) 0.8520(4)
Ag3_2 Ag 0.03068(3) 0.60596(6) 0.43221(4)
N5_3 N 0.0700(3) 0.4112(5) 0.6015(4)
C1_3 C 0.7423(4) 0.6132(7) 0.2015(5)
H1_3 H 0.7652 0.5604 0.1794
C2_3 C 0.8892(3) 0.7211(7) 0.2608(5)
C3_3 C 0.6462(3) 0.7170(7) 0.1822(5)
C4_3 C 0.6810(4) 0.6442(8) 0.1486(6)
H2_3 H 0.6635 0.6152 0.0900
N1_3 N 0.8306(3) 0.6217(6) 0.3447(4)
N2_3 N 0.9300(3) 0.5888(5) 0.3985(4)
C5_3 C 0.7684(3) 0.6622(8) 0.2870(5)
O2_3 O 0.5487(3) 0.7957(7) 0.1669(4)
C6_3 C 0.9173(3) 0.6619(8) 0.2128(5)
H3_3 H 0.9306 0.5722 0.2264
N3_3 N 0.9068(3) 0.5241(6) 0.4531(4)
C7_3 C 0.8836(3) 0.6451(7) 0.3331(5)
C8_3 C 0.7358(4) 0.7393(7) 0.3206(5)
H4_3 H 0.7543 0.7726 0.3782
C9_3 C 0.8791(5) 0.9200(8) 0.1732(7)
C10_3 C 0.8473(3) 0.5453(8) 0.4190(5)
N4_3 N 0.9273(3) 0.7225(6) 0.1480(4)
C11_3 C 0.5774(4) 0.7353(8) 0.1290(6)
C12_3 C 0.6745(4) 0.7678(8) 0.2682(5)
H6_3 H 0.6521 0.8215 0.2907
C13_3 C 0.8057(4) 0.4904(9) 0.4575(6)
H7_3 H 0.7881 0.5645 0.4773
H8_3 H 0.8286 0.4325 0.5068
H9_3 H 0.7734 0.4388 0.4133
C14_3 C 0.9089(4) 0.8514(9) 0.1310(6)
H10_3 H 0.9169 0.8974 0.0877
C15_3 C 0.8691(4) 0.8526(8) 0.2398(6)
H11_3 H 0.8490 0.8964 0.2701
Ag4_2 Ag 0.96932(3) 0.60596(6) 0.06779(4)
N6_3 N 0.9273(3) 0.2775(6) 0.6480(4)
C1_4 C 0.2577(4) 0.6132(7) 0.2985(5)
H1_4 H 0.2348 0.5604 0.3206
C2_4 C 0.1108(3) 0.7211(7) 0.2392(5)
C3_4 C 0.3538(3) 0.7170(7) 0.3178(5)
C4_4 C 0.3190(4) 0.6442(8) 0.3514(6)
H2_4 H 0.3365 0.6152 0.4100
N1_4 N 0.1694(3) 0.6217(6) 0.1553(4)
N2_4 N 0.0700(3) 0.5888(5) 0.1015(4)
C5_4 C 0.2316(3) 0.6622(8) 0.2130(5)
O2_4 O 0.4513(3) 0.7957(7) 0.3331(4)
C6_4 C 0.0827(3) 0.6619(8) 0.2872(5)
H3_4 H 0.0694 0.5722 0.2736
N3_4 N 0.0932(3) 0.5241(6) 0.0469(4)
C7_4 C 0.1164(3) 0.6451(7) 0.1669(5)
C8_4 C 0.2642(4) 0.7393(7) 0.1794(5)
H4_4 H 0.2457 0.7726 0.1218
C9_4 C 0.1209(5) 0.9200(8) 0.3268(7)
C10_4 C 0.1527(3) 0.5453(8) 0.0810(5)
N4_4 N 0.0727(3) 0.7225(6) 0.3520(4)
C11_4 C 0.4226(4) 0.7353(8) 0.3710(6)
C12_4 C 0.3255(4) 0.7678(8) 0.2318(5)
H6_4 H 0.3479 0.8215 0.2093
C13_4 C 0.1943(4) 0.4904(9) 0.0425(6)
H7_4 H 0.2119 0.5645 0.0227
H9_4 H 0.2266 0.4388 0.0867
C14_4 C 0.0911(4) 0.8514(9) 0.3690(6)
H10_4 H 0.0831 0.8974 0.4123
C15_4 C 0.1309(4) 0.8526(8) 0.2602(6)
H11_4 H 0.1510 0.8964 0.2299
H8_4 H 0.1714 0.4325 0.9932
N6_4 N 0.0727(3) 0.2775(6) 0.8520(4)
N5_4 N 0.9300(3) 0.4112(5) 0.8985(4)
C13_5 C 0.6943(4) 0.0096(9) 0.5425(6)
H8_5 H 0.6714 0.0675 0.4932
H9_5 H 0.7266 0.0612 0.5867
O3_3 O 0.5543(3) 0.3106(6) 0.5513(4)
O1_3 O 0.9457(3) 0.8106(6) 0.9487(4)
C1_5 C 0.7577(4) 0.8868(7) 0.7985(5)
H1_5 H 0.7348 0.9396 0.8206
C2_5 C 0.6108(3) 0.7789(7) 0.7392(5)
C3_5 C 0.8538(3) 0.7830(7) 0.8178(5)
C4_5 C 0.8190(4) 0.8558(8) 0.8514(6)
H2_5 H 0.8365 0.8848 0.9100
N1_5 N 0.6694(3) 0.8783(6) 0.6553(4)
C5_5 C 0.7316(3) 0.8378(8) 0.7130(5)
O2_5 O 0.9513(3) 0.7043(7) 0.8331(4)
C6_5 C 0.5827(3) 0.8381(8) 0.7872(5)
H3_5 H 0.5694 0.9278 0.7736
N3_5 N 0.5932(3) 0.9759(6) 0.5469(4)
C7_5 C 0.6164(3) 0.8549(7) 0.6669(5)
C8_5 C 0.7642(4) 0.7607(7) 0.6794(5)
H4_5 H 0.7457 0.7274 0.6218
C9_5 C 0.6209(5) 0.5800(8) 0.8268(7)
H5_3 H 0.6341 0.4908 0.8422
C10_5 C 0.6527(3) 0.9547(8) 0.5810(5)
C11_5 C 0.9226(4) 0.7647(8) 0.8710(6)
C12_5 C 0.8255(4) 0.7322(8) 0.7318(5)
H6_5 H 0.8479 0.6785 0.7093
H7_5 H 0.7119 0.9355 0.5227
C14_5 C 0.5911(4) 0.6486(9) 0.8690(6)
H10_5 H 0.5831 0.6026 0.9123
C15_5 C 0.6309(4) 0.6474(8) 0.7602(6)
H11_5 H 0.6510 0.6036 0.7299
H8_6 H 0.3286 0.0675 0.0068
C13_6 C 0.3057(4) 0.0096(9) 0.9575(6)
H9_6 H 0.2734 0.0612 0.9133
O3_4 O 0.4457(3) 0.3106(6) 0.9487(4)
O1_4 O 0.0543(3) 0.8106(6) 0.5513(4)
C1_6 C 0.2423(4) 0.8868(7) 0.7015(5)
H1_6 H 0.2652 0.9396 0.6794
C2_6 C 0.3892(3) 0.7789(7) 0.7608(5)
C3_6 C 0.1462(3) 0.7830(7) 0.6822(5)
C4_6 C 0.1810(4) 0.8558(8) 0.6486(6)
H2_6 H 0.1635 0.8848 0.5900
N1_6 N 0.3306(3) 0.8783(6) 0.8447(4)
C5_6 C 0.2684(3) 0.8378(8) 0.7870(5)
O2_6 O 0.0487(3) 0.7043(7) 0.6669(4)
C6_6 C 0.4173(3) 0.8381(8) 0.7128(5)
H3_6 H 0.4306 0.9278 0.7264
N3_6 N 0.4068(3) 0.9759(6) 0.9531(4)
C7_6 C 0.3836(3) 0.8549(7) 0.8331(5)
C8_6 C 0.2358(4) 0.7607(7) 0.8206(5)
H4_6 H 0.2543 0.7274 0.8782
C9_6 C 0.3791(5) 0.5800(8) 0.6732(7)
H5_4 H 0.3659 0.4908 0.6578
C10_6 C 0.3473(3) 0.9547(8) 0.9190(5)
C11_6 C 0.0774(4) 0.7647(8) 0.6290(6)
C12_6 C 0.1745(4) 0.7322(8) 0.7682(5)
H6_6 H 0.1521 0.6785 0.7907
H7_6 H 0.2881 0.9355 0.9773
C14_6 C 0.4089(4) 0.6486(9) 0.6310(6)
H10_6 H 0.4169 0.6026 0.5877
C15_6 C 0.3691(4) 0.6474(8) 0.7398(6)
H11_6 H 0.3490 0.6036 0.7701
C1_7 C 0.2577(4) 0.3868(7) 0.7985(5)
H1_7 H 0.2348 0.4396 0.8206
C2_7 C 0.1108(3) 0.2789(7) 0.7392(5)
C3_7 C 0.3538(3) 0.2830(7) 0.8178(5)
C4_7 C 0.3190(4) 0.3558(8) 0.8514(6)
H2_7 H 0.3365 0.3848 0.9100
N1_7 N 0.1694(3) 0.3783(6) 0.6553(4)
C5_7 C 0.2316(3) 0.3378(8) 0.7130(5)
O2_7 O 0.4513(3) 0.2043(7) 0.8331(4)
C6_7 C 0.0827(3) 0.3381(8) 0.7872(5)
H3_7 H 0.0694 0.4278 0.7736
N3_7 N 0.0932(3) 0.4759(6) 0.5469(4)
C7_7 C 0.1164(3) 0.3549(7) 0.6669(5)
C8_7 C 0.2642(4) 0.2607(7) 0.6794(5)
H4_7 H 0.2457 0.2274 0.6218
C9_7 C 0.1209(5) 0.0800(8) 0.8268(7)
C10_7 C 0.1527(3) 0.4547(8) 0.5810(5)
C11_7 C 0.4226(4) 0.2647(8) 0.8710(6)
C12_7 C 0.3255(4) 0.2322(8) 0.7318(5)
H6_7 H 0.3479 0.1785 0.7093
C13_7 C 0.1943(4) 0.5096(9) 0.5425(6)
H7_7 H 0.2119 0.4355 0.5227
H8_7 H 0.1714 0.5675 0.4932
H9_7 H 0.2266 0.5612 0.5867
C14_7 C 0.0911(4) 0.1486(9) 0.8690(6)
H10_7 H 0.0831 0.1026 0.9123
C15_7 C 0.1309(4) 0.1474(8) 0.7602(6)
H11_7 H 0.1510 0.1036 0.7299
H8_8 H 0.8286 0.5675 0.0068
C1_8 C 0.7423(4) 0.3868(7) 0.7015(5)
H1_8 H 0.7652 0.4396 0.6794
C2_8 C 0.8892(3) 0.2789(7) 0.7608(5)
C3_8 C 0.6462(3) 0.2830(7) 0.6822(5)
C4_8 C 0.6810(4) 0.3558(8) 0.6486(6)
H2_8 H 0.6635 0.3848 0.5900
N1_8 N 0.8306(3) 0.3783(6) 0.8447(4)
C5_8 C 0.7684(3) 0.3378(8) 0.7870(5)
O2_8 O 0.5487(3) 0.2043(7) 0.6669(4)
C6_8 C 0.9173(3) 0.3381(8) 0.7128(5)
H3_8 H 0.9306 0.4278 0.7264
N3_8 N 0.9068(3) 0.4759(6) 0.9531(4)
C7_8 C 0.8836(3) 0.3549(7) 0.8331(5)
C8_8 C 0.7358(4) 0.2607(7) 0.8206(5)
H4_8 H 0.7543 0.2274 0.8782
C9_8 C 0.8791(5) 0.0800(8) 0.6732(7)
C10_8 C 0.8473(3) 0.4547(8) 0.9190(5)
C11_8 C 0.5774(4) 0.2647(8) 0.6290(6)
C12_8 C 0.6745(4) 0.2322(8) 0.7682(5)
H6_8 H 0.6521 0.1785 0.7907
C13_8 C 0.8057(4) 0.5096(9) 0.9575(6)
H7_8 H 0.7881 0.4355 0.9773
H9_8 H 0.7734 0.5612 0.9133
C14_8 C 0.9089(4) 0.1486(9) 0.6310(6)
H10_8 H 0.9169 0.1026 0.5877
C15_8 C 0.8691(4) 0.1474(8) 0.7398(6)
H11_8 H 0.8490 0.1036 0.7701
H5_5 H 0.8659 0.0092 0.1578
H5_6 H 0.1341 0.0092 0.3422
H5_7 H 0.1341 0.9908 0.8422
H5_8 H 0.8659 0.9908 0.6578
loop_
_geom_bond_atom_site_label_1
_geom_bond_atom_site_label_2
_geom_bond_site_symmetry_1
_geom_bond_site_symmetry_2
O1 C11 1_555 1_555
C1 H1 1_555 1_555
C2 C6 1_555 1_555
C3 C4 1_555 1_555
C4 C1 1_555 1_555
H2 C4 1_555 1_555
N1 C5 1_555 1_555
N2 N3 1_555 1_555
C5 C1 1_555 1_555
O2 C11 1_555 1_555
C6 H3 1_555 1_555
N3 C10 1_555 1_555
C7 C2 1_555 1_555
C8 C5 1_555 1_555
H4 C8 1_555 1_555
C9 H5 1_555 1_555
C10 N1 1_555 1_555
N4 C6 1_555 1_555
C11 C3 1_555 1_555
C12 C3 1_555 1_555
H6 C12 1_555 1_555
C14 C9 1_555 1_555
H10 C14 1_555 1_555
C15 C2 1_555 1_555
H11 C15 1_555 1_555
Ag3 N2 1_555 1_555
Ag4 N4 1_555 1_555
N1 C7 1_555 1_555
N2 C7 1_555 1_555
C8 C12 1_555 1_555
C9 C15 1_555 1_555
N4 C14 1_555 1_555
H8 C13 1_555 1_555
H9 C13 1_555 1_555
O3 Ag1 1_555 1_555
N5 Ag1 1_555 1_555
N6 Ag1 1_555 1_555
O1_2 C11_2 1_555 1_555
C1_2 H1_2 1_555 1_555
C2_2 C6_2 1_555 1_555
C3_2 C4_2 1_555 1_555
C4_2 C1_2 1_555 1_555
H2_2 C4_2 1_555 1_555
N1_2 C5_2 1_555 1_555
N2_2 N3_2 1_555 1_555
C5_2 C1_2 1_555 1_555
O2_2 C11_2 1_555 1_555
C6_2 H3_2 1_555 1_555
N3_2 C10_2 1_555 1_555
C7_2 C2_2 1_555 1_555
C8_2 C5_2 1_555 1_555
H4_2 C8_2 1_555 1_555
C9_2 H5_2 1_555 1_555
C10_2 N1_2 1_555 1_555
N4_2 C6_2 1_555 1_555
C11_2 C3_2 1_555 1_555
C12_2 C3_2 1_555 1_555
H6_2 C12_2 1_555 1_555
C14_2 C9_2 1_555 1_555
H10_2 C14_2 1_555 1_555
C15_2 C2_2 1_555 1_555
H11_2 C15_2 1_555 1_555
Ag2_2 O1_2 1_555 1_555
Ag4 N2_2 1_555 1_555
Ag3 N4_2 1_555 1_555
N1_2 C7_2 1_555 1_555
N2_2 C7_2 1_555 1_555
C8_2 C12_2 1_555 1_555
C9_2 C15_2 1_555 1_555
N4_2 C14_2 1_555 1_555
H9_2 C13_2 1_555 1_555
N5_2 Ag1_2 1_555 1_555
N6_2 Ag1_2 1_555 1_555
Ag2_2 N3_3 1_555 1_555
O3_2 C11_3 1_555 1_555
C1_3 H1_3 1_555 1_555
C2_3 C6_3 1_555 1_555
C3_3 C4_3 1_555 1_555
C4_3 C1_3 1_555 1_555
H2_3 C4_3 1_555 1_555
N1_3 C5_3 1_555 1_555
N2_3 N3_3 1_555 1_555
C5_3 C1_3 1_555 1_555
O2_3 C11_3 1_555 1_555
C6_3 H3_3 1_555 1_555
N3_3 C10_3 1_555 1_555
C7_3 C2_3 1_555 1_555
C8_3 C5_3 1_555 1_555
H4_3 C8_3 1_555 1_555
C10_3 N1_3 1_555 1_555
N4_3 C6_3 1_555 1_555
C11_3 C3_3 1_555 1_555
C12_3 C3_3 1_555 1_555
H6_3 C12_3 1_555 1_555
C13_3 C10_3 1_555 1_555
H7_3 C13_3 1_555 1_555
H8_3 C13_3 1_555 1_555
H9_3 C13_3 1_555 1_555
C14_3 C9_3 1_555 1_555
H10_3 C14_3 1_555 1_555
C15_3 C2_3 1_555 1_555
H11_3 C15_3 1_555 1_555
Ag4_2 N4_3 1_555 1_555
N6_3 Ag2_2 1_555 1_555
N1_3 C7_3 1_555 1_555
N2_3 C7_3 1_555 1_555
C8_3 C12_3 1_555 1_555
C9_3 C15_3 1_555 1_555
N4_3 C14_3 1_555 1_555
O3 C11_4 1_555 1_555
C1_4 H1_4 1_555 1_555
C2_4 C6_4 1_555 1_555
C3_4 C4_4 1_555 1_555
C4_4 C1_4 1_555 1_555
H2_4 C4_4 1_555 1_555
N1_4 C5_4 1_555 1_555
N2_4 N3_4 1_555 1_555
C5_4 C1_4 1_555 1_555
O2_4 C11_4 1_555 1_555
C6_4 H3_4 1_555 1_555
N3_4 C10_4 1_555 1_555
C7_4 C2_4 1_555 1_555
C8_4 C5_4 1_555 1_555
H4_4 C8_4 1_555 1_555
C10_4 N1_4 1_555 1_555
N4_4 C6_4 1_555 1_555
C11_4 C3_4 1_555 1_555
C12_4 C3_4 1_555 1_555
H6_4 C12_4 1_555 1_555
C13_4 C10_4 1_555 1_555
H7_4 C13_4 1_555 1_555
H9_4 C13_4 1_555 1_555
C14_4 C9_4 1_555 1_555
H10_4 C14_4 1_555 1_555
C15_4 C2_4 1_555 1_555
H11_4 C15_4 1_555 1_555
Ag3_2 N4_4 1_555 1_555
N1_4 C7_4 1_555 1_555
N2_4 C7_4 1_555 1_555
C8_4 C12_4 1_555 1_555
C9_4 C15_4 1_555 1_555
N4_4 C14_4 1_555 1_555
N6_4 Ag2 1_555 1_555
H8_5 C13_5 1_555 1_555
H9_5 C13_5 1_555 1_555
O3_3 Ag3 1_555 1_555
O1_3 C11_5 1_555 1_555
C1_5 H1_5 1_555 1_555
C2_5 C6_5 1_555 1_555
C3_5 C4_5 1_555 1_555
C4_5 C1_5 1_555 1_555
H2_5 C4_5 1_555 1_555
N1_5 C5_5 1_555 1_555
N5 N3_5 1_555 1_555
C5_5 C1_5 1_555 1_555
O2_5 C11_5 1_555 1_555
C6_5 H3_5 1_555 1_555
N3_5 C10_5 1_555 1_555
C7_5 C2_5 1_555 1_555
C8_5 C5_5 1_555 1_555
H4_5 C8_5 1_555 1_555
C9_5 H5_3 1_555 1_555
C10_5 N1_5 1_555 1_555
N6_2 C6_5 1_555 1_555
C11_5 C3_5 1_555 1_555
C12_5 C3_5 1_555 1_555
H6_5 C12_5 1_555 1_555
C14_5 C9_5 1_555 1_555
H10_5 C14_5 1_555 1_555
C15_5 C2_5 1_555 1_555
H11_5 C15_5 1_555 1_555
N1_5 C7_5 1_555 1_555
N5 C7_5 1_555 1_555
C8_5 C12_5 1_555 1_555
C9_5 C15_5 1_555 1_555
N6_2 C14_5 1_555 1_555
H9_6 C13_6 1_555 1_555
O1_4 C11_6 1_555 1_555
C1_6 H1_6 1_555 1_555
C2_6 C6_6 1_555 1_555
C3_6 C4_6 1_555 1_555
C4_6 C1_6 1_555 1_555
H2_6 C4_6 1_555 1_555
N1_6 C5_6 1_555 1_555
N5_2 N3_6 1_555 1_555
C5_6 C1_6 1_555 1_555
O2_6 C11_6 1_555 1_555
C6_6 H3_6 1_555 1_555
N3_6 C10_6 1_555 1_555
C7_6 C2_6 1_555 1_555
C8_6 C5_6 1_555 1_555
H4_6 C8_6 1_555 1_555
C9_6 H5_4 1_555 1_555
C10_6 N1_6 1_555 1_555
N6 C6_6 1_555 1_555
C11_6 C3_6 1_555 1_555
C12_6 C3_6 1_555 1_555
H6_6 C12_6 1_555 1_555
C14_6 C9_6 1_555 1_555
H10_6 C14_6 1_555 1_555
C15_6 C2_6 1_555 1_555
H11_6 C15_6 1_555 1_555
Ag3_2 O1_4 1_555 1_555
N1_6 C7_6 1_555 1_555
N5_2 C7_6 1_555 1_555
C8_6 C12_6 1_555 1_555
C9_6 C15_6 1_555 1_555
N6 C14_6 1_555 1_555
Ag3_2 N3_7 1_555 1_555
O3_4 C11_7 1_555 1_555
C1_7 H1_7 1_555 1_555
C2_7 C6_7 1_555 1_555
C3_7 C4_7 1_555 1_555
C4_7 C1_7 1_555 1_555
H2_7 C4_7 1_555 1_555
N1_7 C5_7 1_555 1_555
N5_3 N3_7 1_555 1_555
C5_7 C1_7 1_555 1_555
O2_7 C11_7 1_555 1_555
C6_7 H3_7 1_555 1_555
N3_7 C10_7 1_555 1_555
C7_7 C2_7 1_555 1_555
C8_7 C5_7 1_555 1_555
H4_7 C8_7 1_555 1_555
C10_7 N1_7 1_555 1_555
N6_4 C6_7 1_555 1_555
C11_7 C3_7 1_555 1_555
C12_7 C3_7 1_555 1_555
H6_7 C12_7 1_555 1_555
C13_7 C10_7 1_555 1_555
H7_7 C13_7 1_555 1_555
H8_7 C13_7 1_555 1_555
H9_7 C13_7 1_555 1_555
C14_7 C9_7 1_555 1_555
H10_7 C14_7 1_555 1_555
C15_7 C2_7 1_555 1_555
H11_7 C15_7 1_555 1_555
N1_7 C7_7 1_555 1_555
N5_3 C7_7 1_555 1_555
C8_7 C12_7 1_555 1_555
C9_7 C15_7 1_555 1_555
N6_4 C14_7 1_555 1_555
O3_3 C11_8 1_555 1_555
C1_8 H1_8 1_555 1_555
C2_8 C6_8 1_555 1_555
C3_8 C4_8 1_555 1_555
C4_8 C1_8 1_555 1_555
H2_8 C4_8 1_555 1_555
N1_8 C5_8 1_555 1_555
N5_4 N3_8 1_555 1_555
C5_8 C1_8 1_555 1_555
O2_8 C11_8 1_555 1_555
C6_8 H3_8 1_555 1_555
N3_8 C10_8 1_555 1_555
C7_8 C2_8 1_555 1_555
C8_8 C5_8 1_555 1_555
H4_8 C8_8 1_555 1_555
C10_8 N1_8 1_555 1_555
N6_3 C6_8 1_555 1_555
C11_8 C3_8 1_555 1_555
C12_8 C3_8 1_555 1_555
H6_8 C12_8 1_555 1_555
C13_8 C10_8 1_555 1_555
H7_8 C13_8 1_555 1_555
H9_8 C13_8 1_555 1_555
C14_8 C9_8 1_555 1_555
H10_8 C14_8 1_555 1_555
C15_8 C2_8 1_555 1_555
H11_8 C15_8 1_555 1_555
N1_8 C7_8 1_555 1_555
N5_4 C7_8 1_555 1_555
C8_8 C12_8 1_555 1_555
C9_8 C15_8 1_555 1_555
N6_3 C14_8 1_555 1_555

#END
