
###############################################################################
#
# This file contains modified crystal structure data generated from the
# MOF subset of the Cambridge Structural Database (CSD) v543 
# hosted by the Cambridge Crystallographic Data Centre (CCDC).
#
# This work is licensed under the Creative Commons
# Attribution-NonCommercial-ShareAlike 4.0 International License.
# To view a copy of this license, visit
# http://creativecommons.org/licenses/by-nc-sa/4.0/
# or send a letter to
# Creative Commons, PO Box 1866, Mountain View, CA 94042, USA.
#
# CIF created using the CSD Python API on 29 September 2022
# The structure has been converted into the P1 space group
# The structure has a 3D framework
# The original CSD entry PODNIH is in the monoclinic crystal system
# The framework has been calculated to contain at least 10.0% void space
# The void calculation uses a probe of radius 1.32A, grid spacing 0.4
#
###############################################################################

data_PODNIH
_chemical_formula_moiety         '(C120 H88 Cu8 N32 O16)n'
_symmetry_cell_setting           triclinic
_symmetry_space_group_name_H-M   'P 1'
_symmetry_Int_Tables_number      1
_space_group_name_Hall           'P 1'
loop_
_symmetry_equiv_pos_site_id
_symmetry_equiv_pos_as_xyz
1 x,y,z
_cell_length_a                   23.004(3)
_cell_length_b                   9.7714(11)
_cell_length_c                   16.2331(18)
_cell_angle_alpha                90
_cell_angle_beta                 113.152(3)
_cell_angle_gamma                90
_cell_volume                     3355.03
loop_
_atom_site_label
_atom_site_type_symbol
_atom_site_fract_x
_atom_site_fract_y
_atom_site_fract_z
C14 C 0.3092(2) 0.0169(4) 0.4625(3)
H8 H 0.2745 0.0613 0.4159
H9 H 0.3303 0.0812 0.5095
Cu4 Cu 0.4674 0.0989 0.5646
N6 N 0.4155(1) 0.0179(3) 0.9608(2)
Cu1 Cu 0.4674 0.9011 0.0646
N1 N 0.3383(1) 0.8904(3) 0.3485(2)
O1 O 0.0576(1) 0.8136(3) 0.0509(2)
N2 N 0.4404(1) 0.9188(3) 0.4050(2)
C1 C 0.3989(2) 0.7916(3) 0.2628(2)
O2 O 0.0513(1) 0.7098(3) 0.1689(2)
C2 C 0.2492(2) 0.9008(3) 0.2026(3)
H1 H 0.2733 0.9536 0.1800
C3 C 0.0808(2) 0.7706(4) 0.1303(2)
C4 C 0.1870(2) 0.8700(4) 0.1496(2)
H2 H 0.1693 0.9014 0.0908
N3 N 0.4322(1) 0.7987(3) 0.1404(2)
N4 N 0.4155(1) 0.9821(3) 0.4608(2)
C5 C 0.3900(3) 0.5948(4) 0.1742(3)
H3 H 0.3782 0.5040 0.1600
C6 C 0.1507(2) 0.7929(3) 0.1833(2)
C7 C 0.3543(2) 0.9642(3) 0.4254(2)
C8 C 0.4233(2) 0.8589(3) 0.2091(2)
H4 H 0.4342 0.9506 0.2208
C9 C 0.3810(2) 0.6563(4) 0.2446(3)
H5 H 0.3634 0.6084 0.2786
C10 C 0.1788(2) 0.7412(4) 0.2697(2)
H6 H 0.1553 0.6859 0.2919
C11 C 0.3935(2) 0.8656(3) 0.3381(2)
C12 C 0.4163(2) 0.6660(4) 0.1253(3)
H7 H 0.4235 0.6210 0.0797
C13 C 0.2752(2) 0.8520(3) 0.2894(2)
H10 H 0.2934 0.9421 0.4861
C15 C 0.2411(2) 0.7701(4) 0.3235(2)
H11 H 0.2595 0.7353 0.3813
Cu2 Cu 0.5326 0.9011 0.4354
N5 N 0.5596(1) 0.9188(3) 0.0950(2)
Cu3 Cu 0.0326 0.5989 0.9354
O3 O 0.4424(1) 0.6864(3) 0.9491(2)
Cu2_2 Cu 0.0326 0.4011 0.4354
N5_2 N 0.0596(1) 0.4188(3) 0.0950(2)
Cu1_2 Cu 0.9674 0.4011 0.0646
N1_2 N 0.8383(1) 0.3904(3) 0.3485(2)
O1_2 O 0.5576(1) 0.3136(3) 0.0509(2)
N2_2 N 0.9404(1) 0.4188(3) 0.4050(2)
C1_2 C 0.8989(2) 0.2916(3) 0.2628(2)
O2_2 O 0.5513(1) 0.2098(3) 0.1689(2)
C2_2 C 0.7492(2) 0.4008(3) 0.2026(3)
H1_2 H 0.7733 0.4536 0.1800
C3_2 C 0.5808(2) 0.2706(4) 0.1303(2)
C4_2 C 0.6870(2) 0.3700(4) 0.1496(2)
H2_2 H 0.6693 0.4014 0.0908
N3_2 N 0.9322(1) 0.2987(3) 0.1404(2)
N4_2 N 0.9155(1) 0.4821(3) 0.4608(2)
C5_2 C 0.8900(3) 0.0948(4) 0.1742(3)
H3_2 H 0.8782 0.0040 0.1600
C6_2 C 0.6507(2) 0.2929(3) 0.1833(2)
C7_2 C 0.8543(2) 0.4642(3) 0.4254(2)
C8_2 C 0.9233(2) 0.3589(3) 0.2091(2)
H4_2 H 0.9342 0.4506 0.2208
C9_2 C 0.8810(2) 0.1563(4) 0.2446(3)
H5_2 H 0.8634 0.1084 0.2786
C10_2 C 0.6788(2) 0.2412(4) 0.2697(2)
H6_2 H 0.6553 0.1859 0.2919
C11_2 C 0.8935(2) 0.3656(3) 0.3381(2)
C12_2 C 0.9163(2) 0.1660(4) 0.1253(3)
H7_2 H 0.9235 0.1210 0.0797
C13_2 C 0.7752(2) 0.3520(3) 0.2894(2)
C14_2 C 0.8092(2) 0.5169(4) 0.4625(3)
H8_2 H 0.7745 0.5613 0.4159
H9_2 H 0.8303 0.5812 0.5095
H10_2 H 0.7934 0.4421 0.4861
C15_2 C 0.7411(2) 0.2701(4) 0.3235(2)
H11_2 H 0.7595 0.2353 0.3813
Cu4_2 Cu 0.9674 0.5989 0.5646
Cu3_2 Cu 0.5326 0.0989 0.9354
O3_2 O 0.9424(1) 0.1864(3) 0.9491(2)
N6_2 N 0.9155(1) 0.5179(3) 0.9608(2)
N1_3 N 0.1617(1) 0.3904(3) 0.1515(2)
O1_3 O 0.4424(1) 0.3136(3) 0.4491(2)
C1_3 C 0.1011(2) 0.2916(3) 0.2372(2)
O2_3 O 0.4487(1) 0.2098(3) 0.3311(2)
C2_3 C 0.2508(2) 0.4008(3) 0.2974(3)
H1_3 H 0.2267 0.4536 0.3200
C3_3 C 0.4192(2) 0.2706(4) 0.3697(2)
C4_3 C 0.3130(2) 0.3700(4) 0.3504(2)
H2_3 H 0.3307 0.4014 0.4092
N3_3 N 0.0678(1) 0.2987(3) 0.3596(2)
N4_3 N 0.0845(1) 0.4821(3) 0.0392(2)
C5_3 C 0.1100(3) 0.0948(4) 0.3258(3)
H3_3 H 0.1218 0.0040 0.3400
C6_3 C 0.3493(2) 0.2929(3) 0.3167(2)
C7_3 C 0.1457(2) 0.4642(3) 0.0746(2)
C8_3 C 0.0767(2) 0.3589(3) 0.2909(2)
H4_3 H 0.0658 0.4506 0.2792
C9_3 C 0.1190(2) 0.1563(4) 0.2554(3)
H5_3 H 0.1366 0.1084 0.2214
C10_3 C 0.3212(2) 0.2412(4) 0.2303(2)
H6_3 H 0.3447 0.1859 0.2081
C11_3 C 0.1065(2) 0.3656(3) 0.1619(2)
C12_3 C 0.0837(2) 0.1660(4) 0.3747(3)
H7_3 H 0.0765 0.1210 0.4203
C13_3 C 0.2248(2) 0.3520(3) 0.2106(2)
C14_3 C 0.1908(2) 0.5169(4) 0.0375(3)
H8_3 H 0.2255 0.5613 0.0841
H10_3 H 0.2066 0.4421 0.0139
C15_3 C 0.2589(2) 0.2701(4) 0.1765(2)
H11_3 H 0.2405 0.2353 0.1187
O3_3 O 0.0576(1) 0.1864(3) 0.5509(2)
N6_3 N 0.0845(1) 0.5179(3) 0.5392(2)
H9_3 H 0.1697 0.5812 0.9905
C14_4 C 0.6908(2) 0.0169(4) 0.0375(3)
H8_4 H 0.7255 0.0613 0.0841
N6_4 N 0.5845(1) 0.0179(3) 0.5392(2)
H9_4 H 0.6697 0.0812 0.9905
N1_4 N 0.6617(1) 0.8904(3) 0.1515(2)
O1_4 O 0.9424(1) 0.8136(3) 0.4491(2)
C1_4 C 0.6011(2) 0.7916(3) 0.2372(2)
O2_4 O 0.9487(1) 0.7098(3) 0.3311(2)
C2_4 C 0.7508(2) 0.9008(3) 0.2974(3)
H1_4 H 0.7267 0.9536 0.3200
C3_4 C 0.9192(2) 0.7706(4) 0.3697(2)
C4_4 C 0.8130(2) 0.8700(4) 0.3504(2)
H2_4 H 0.8307 0.9014 0.4092
N3_4 N 0.5678(1) 0.7987(3) 0.3596(2)
N4_4 N 0.5845(1) 0.9821(3) 0.0392(2)
C5_4 C 0.6100(3) 0.5948(4) 0.3258(3)
H3_4 H 0.6218 0.5040 0.3400
C6_4 C 0.8493(2) 0.7929(3) 0.3167(2)
C7_4 C 0.6457(2) 0.9642(3) 0.0746(2)
C8_4 C 0.5767(2) 0.8589(3) 0.2909(2)
H4_4 H 0.5658 0.9506 0.2792
C9_4 C 0.6190(2) 0.6563(4) 0.2554(3)
H5_4 H 0.6366 0.6084 0.2214
C10_4 C 0.8212(2) 0.7412(4) 0.2303(2)
H6_4 H 0.8447 0.6859 0.2081
C11_4 C 0.6065(2) 0.8656(3) 0.1619(2)
C12_4 C 0.5837(2) 0.6660(4) 0.3747(3)
H7_4 H 0.5765 0.6210 0.4203
C13_4 C 0.7248(2) 0.8520(3) 0.2106(2)
H10_4 H 0.7066 0.9421 0.0139
C15_4 C 0.7589(2) 0.7701(4) 0.1765(2)
H11_4 H 0.7405 0.7353 0.1187
O3_4 O 0.5576(1) 0.6864(3) 0.5509(2)
N1_5 N 0.6617(1) 0.1096(3) 0.6515(2)
N2_3 N 0.5596(1) 0.0812(3) 0.5950(2)
C1_5 C 0.6011(2) 0.2084(3) 0.7372(2)
O2_5 O 0.9487(1) 0.2902(3) 0.8311(2)
C2_5 C 0.7508(2) 0.0992(3) 0.7974(3)
H1_5 H 0.7267 0.0464 0.8200
C3_5 C 0.9192(2) 0.2294(4) 0.8697(2)
C4_5 C 0.8130(2) 0.1300(4) 0.8504(2)
H2_5 H 0.8307 0.0986 0.9092
N3_5 N 0.5678(1) 0.2013(3) 0.8596(2)
C5_5 C 0.6100(3) 0.4052(4) 0.8258(3)
H3_5 H 0.6218 0.4960 0.8400
C6_5 C 0.8493(2) 0.2071(3) 0.8167(2)
C7_5 C 0.6457(2) 0.0358(3) 0.5746(2)
C8_5 C 0.5767(2) 0.1411(3) 0.7909(2)
H4_5 H 0.5658 0.0494 0.7792
C9_5 C 0.6190(2) 0.3437(4) 0.7554(3)
H5_5 H 0.6366 0.3916 0.7214
C10_5 C 0.8212(2) 0.2588(4) 0.7303(2)
H6_5 H 0.8447 0.3141 0.7081
C11_5 C 0.6065(2) 0.1344(3) 0.6619(2)
C12_5 C 0.5837(2) 0.3340(4) 0.8747(3)
H7_5 H 0.5765 0.3790 0.9203
C13_5 C 0.7248(2) 0.1480(3) 0.7106(2)
H10_5 H 0.7066 0.0579 0.5139
C15_5 C 0.7589(2) 0.2299(4) 0.6765(2)
H11_5 H 0.7405 0.2647 0.6187
N5_3 N 0.4404(1) 0.0812(3) 0.9050(2)
C14_5 C 0.6908(2) 0.9831(4) 0.5375(3)
H8_5 H 0.7255 0.9387 0.5841
H9_5 H 0.6697 0.9188 0.4905
N1_6 N 0.1617(1) 0.6096(3) 0.6515(2)
N2_4 N 0.0596(1) 0.5812(3) 0.5950(2)
C1_6 C 0.1011(2) 0.7084(3) 0.7372(2)
O2_6 O 0.4487(1) 0.7902(3) 0.8311(2)
C2_6 C 0.2508(2) 0.5992(3) 0.7974(3)
H1_6 H 0.2267 0.5464 0.8200
C3_6 C 0.4192(2) 0.7294(4) 0.8697(2)
C4_6 C 0.3130(2) 0.6300(4) 0.8504(2)
H2_6 H 0.3307 0.5986 0.9092
N3_6 N 0.0678(1) 0.7013(3) 0.8596(2)
C5_6 C 0.1100(3) 0.9052(4) 0.8258(3)
H3_6 H 0.1218 0.9960 0.8400
C6_6 C 0.3493(2) 0.7071(3) 0.8167(2)
C7_6 C 0.1457(2) 0.5358(3) 0.5746(2)
C8_6 C 0.0767(2) 0.6411(3) 0.7909(2)
H4_6 H 0.0658 0.5494 0.7792
C9_6 C 0.1190(2) 0.8437(4) 0.7554(3)
H5_6 H 0.1366 0.8916 0.7214
C10_6 C 0.3212(2) 0.7588(4) 0.7303(2)
H6_6 H 0.3447 0.8141 0.7081
C11_6 C 0.1065(2) 0.6344(3) 0.6619(2)
C12_6 C 0.0837(2) 0.8340(4) 0.8747(3)
H7_6 H 0.0765 0.8790 0.9203
C13_6 C 0.2248(2) 0.6480(3) 0.7106(2)
C14_6 C 0.1908(2) 0.4831(4) 0.5375(3)
H8_6 H 0.2255 0.4387 0.5841
H9_6 H 0.1697 0.4188 0.4905
H10_6 H 0.2066 0.5579 0.5139
C15_6 C 0.2589(2) 0.7299(4) 0.6765(2)
H11_6 H 0.2405 0.7647 0.6187
N5_4 N 0.9404(1) 0.5812(3) 0.9050(2)
H9_7 H 0.8303 0.4188 0.0095
N1_7 N 0.8383(1) 0.6096(3) 0.8485(2)
C1_7 C 0.8989(2) 0.7084(3) 0.7628(2)
O2_7 O 0.5513(1) 0.7902(3) 0.6689(2)
C2_7 C 0.7492(2) 0.5992(3) 0.7026(3)
H1_7 H 0.7733 0.5464 0.6800
C3_7 C 0.5808(2) 0.7294(4) 0.6303(2)
C4_7 C 0.6870(2) 0.6300(4) 0.6496(2)
H2_7 H 0.6693 0.5986 0.5908
N3_7 N 0.9322(1) 0.7013(3) 0.6404(2)
C5_7 C 0.8900(3) 0.9052(4) 0.6742(3)
H3_7 H 0.8782 0.9960 0.6600
C6_7 C 0.6507(2) 0.7071(3) 0.6833(2)
C7_7 C 0.8543(2) 0.5358(3) 0.9254(2)
C8_7 C 0.9233(2) 0.6411(3) 0.7091(2)
H4_7 H 0.9342 0.5494 0.7208
C9_7 C 0.8810(2) 0.8437(4) 0.7446(3)
H5_7 H 0.8634 0.8916 0.7786
C10_7 C 0.6788(2) 0.7588(4) 0.7697(2)
H6_7 H 0.6553 0.8141 0.7919
C11_7 C 0.8935(2) 0.6344(3) 0.8381(2)
C12_7 C 0.9163(2) 0.8340(4) 0.6253(3)
H7_7 H 0.9235 0.8790 0.5797
C13_7 C 0.7752(2) 0.6480(3) 0.7894(2)
C14_7 C 0.8092(2) 0.4831(4) 0.9625(3)
H8_7 H 0.7745 0.4387 0.9159
H10_7 H 0.7934 0.5579 0.9861
C15_7 C 0.7411(2) 0.7299(4) 0.8235(2)
H11_7 H 0.7595 0.7647 0.8813
N1_8 N 0.3383(1) 0.1096(3) 0.8485(2)
C1_8 C 0.3989(2) 0.2084(3) 0.7628(2)
O2_8 O 0.0513(1) 0.2902(3) 0.6689(2)
C2_8 C 0.2492(2) 0.0992(3) 0.7026(3)
H1_8 H 0.2733 0.0464 0.6800
C3_8 C 0.0808(2) 0.2294(4) 0.6303(2)
C4_8 C 0.1870(2) 0.1300(4) 0.6496(2)
H2_8 H 0.1693 0.0986 0.5908
N3_8 N 0.4322(1) 0.2013(3) 0.6404(2)
C5_8 C 0.3900(3) 0.4052(4) 0.6742(3)
H3_8 H 0.3782 0.4960 0.6600
C6_8 C 0.1507(2) 0.2071(3) 0.6833(2)
C7_8 C 0.3543(2) 0.0358(3) 0.9254(2)
C8_8 C 0.4233(2) 0.1411(3) 0.7091(2)
H4_8 H 0.4342 0.0494 0.7208
C9_8 C 0.3810(2) 0.3437(4) 0.7446(3)
H5_8 H 0.3634 0.3916 0.7786
C10_8 C 0.1788(2) 0.2588(4) 0.7697(2)
H6_8 H 0.1553 0.3141 0.7919
C11_8 C 0.3935(2) 0.1344(3) 0.8381(2)
C12_8 C 0.4163(2) 0.3340(4) 0.6253(3)
H7_8 H 0.4235 0.3790 0.5797
C13_8 C 0.2752(2) 0.1480(3) 0.7894(2)
H10_8 H 0.2934 0.0579 0.9861
C15_8 C 0.2411(2) 0.2299(4) 0.8235(2)
H11_8 H 0.2595 0.2647 0.8813
H9_8 H 0.3303 0.9188 0.0095
C14_8 C 0.3092(2) 0.9831(4) 0.9625(3)
H8_8 H 0.2745 0.9387 0.9159
loop_
_geom_bond_atom_site_label_1
_geom_bond_atom_site_label_2
_geom_bond_site_symmetry_1
_geom_bond_site_symmetry_2
C14 H8 1_555 1_555
H9 C14 1_555 1_555
Cu1 N3 1_555 1_555
N1 C7 1_555 1_555
O1 C3 1_555 1_555
N2 N4 1_555 1_555
C1 C8 1_555 1_555
O2 C3 1_555 1_555
C2 H1 1_555 1_555
C3 C6 1_555 1_555
C4 C2 1_555 1_555
H2 C4 1_555 1_555
N3 C8 1_555 1_555
N4 C7 1_555 1_555
C5 H3 1_555 1_555
C6 C4 1_555 1_555
C8 H4 1_555 1_555
C9 C1 1_555 1_555
H5 C9 1_555 1_555
C10 C6 1_555 1_555
H6 C10 1_555 1_555
C11 N1 1_555 1_555
C12 N3 1_555 1_555
H7 C12 1_555 1_555
C13 N1 1_555 1_555
C15 C10 1_555 1_555
H11 C15 1_555 1_555
Cu2 N2 1_555 1_555
N5 Cu1 1_555 1_555
N2 C11 1_555 1_555
C1 C11 1_555 1_555
C2 C13 1_555 1_555
C5 C9 1_555 1_555
C5 C12 1_555 1_555
C13 C15 1_555 1_555
Cu1_2 N3_2 1_555 1_555
N1_2 C7_2 1_555 1_555
O1_2 C3_2 1_555 1_555
N2_2 N4_2 1_555 1_555
C1_2 C8_2 1_555 1_555
O2_2 C3_2 1_555 1_555
C2_2 H1_2 1_555 1_555
C3_2 C6_2 1_555 1_555
C4_2 C2_2 1_555 1_555
H2_2 C4_2 1_555 1_555
N3_2 C8_2 1_555 1_555
N4_2 C7_2 1_555 1_555
C5_2 H3_2 1_555 1_555
C6_2 C4_2 1_555 1_555
C7_2 C14_2 1_555 1_555
C8_2 H4_2 1_555 1_555
C9_2 C1_2 1_555 1_555
H5_2 C9_2 1_555 1_555
C10_2 C6_2 1_555 1_555
H6_2 C10_2 1_555 1_555
C11_2 N1_2 1_555 1_555
C12_2 N3_2 1_555 1_555
H7_2 C12_2 1_555 1_555
C13_2 N1_2 1_555 1_555
C14_2 H8_2 1_555 1_555
H9_2 C14_2 1_555 1_555
H10_2 C14_2 1_555 1_555
C15_2 C10_2 1_555 1_555
H11_2 C15_2 1_555 1_555
Cu4_2 N4_2 1_555 1_555
N2_2 C11_2 1_555 1_555
C1_2 C11_2 1_555 1_555
C2_2 C13_2 1_555 1_555
C5_2 C9_2 1_555 1_555
C5_2 C12_2 1_555 1_555
C13_2 C15_2 1_555 1_555
Cu2_2 N3_3 1_555 1_555
N1_3 C7_3 1_555 1_555
O1_3 C3_3 1_555 1_555
N5_2 N4_3 1_555 1_555
C1_3 C8_3 1_555 1_555
O2_3 C3_3 1_555 1_555
C2_3 H1_3 1_555 1_555
C3_3 C6_3 1_555 1_555
C4_3 C2_3 1_555 1_555
H2_3 C4_3 1_555 1_555
N3_3 C8_3 1_555 1_555
N4_3 C7_3 1_555 1_555
C5_3 H3_3 1_555 1_555
C6_3 C4_3 1_555 1_555
C7_3 C14_3 1_555 1_555
C8_3 H4_3 1_555 1_555
C9_3 C1_3 1_555 1_555
H5_3 C9_3 1_555 1_555
C10_3 C6_3 1_555 1_555
H6_3 C10_3 1_555 1_555
C11_3 N1_3 1_555 1_555
C12_3 N3_3 1_555 1_555
H7_3 C12_3 1_555 1_555
C13_3 N1_3 1_555 1_555
C14_3 H8_3 1_555 1_555
H10_3 C14_3 1_555 1_555
C15_3 C10_3 1_555 1_555
H11_3 C15_3 1_555 1_555
Cu4 O1_3 1_555 1_555
O3_3 Cu2_2 1_555 1_555
N6_3 Cu2_2 1_555 1_555
N5_2 C11_3 1_555 1_555
C1_3 C11_3 1_555 1_555
C2_3 C13_3 1_555 1_555
C5_3 C9_3 1_555 1_555
C5_3 C12_3 1_555 1_555
C13_3 C15_3 1_555 1_555
C14_4 H8_4 1_555 1_555
Cu2 N3_4 1_555 1_555
N1_4 C7_4 1_555 1_555
O1_4 C3_4 1_555 1_555
N5 N4_4 1_555 1_555
C1_4 C8_4 1_555 1_555
O2_4 C3_4 1_555 1_555
C2_4 H1_4 1_555 1_555
C3_4 C6_4 1_555 1_555
C4_4 C2_4 1_555 1_555
H2_4 C4_4 1_555 1_555
N3_4 C8_4 1_555 1_555
N4_4 C7_4 1_555 1_555
C5_4 H3_4 1_555 1_555
C6_4 C4_4 1_555 1_555
C8_4 H4_4 1_555 1_555
C9_4 C1_4 1_555 1_555
H5_4 C9_4 1_555 1_555
C10_4 C6_4 1_555 1_555
H6_4 C10_4 1_555 1_555
C11_4 N1_4 1_555 1_555
C12_4 N3_4 1_555 1_555
H7_4 C12_4 1_555 1_555
C13_4 N1_4 1_555 1_555
C15_4 C10_4 1_555 1_555
H11_4 C15_4 1_555 1_555
Cu4_2 O1_4 1_555 1_555
O3_4 Cu2 1_555 1_555
N5 C11_4 1_555 1_555
C1_4 C11_4 1_555 1_555
C2_4 C13_4 1_555 1_555
C5_4 C9_4 1_555 1_555
C5_4 C12_4 1_555 1_555
C13_4 C15_4 1_555 1_555
Cu3_2 N3_5 1_555 1_555
N1_5 C7_5 1_555 1_555
O3_2 C3_5 1_555 1_555
N2_3 N6_4 1_555 1_555
C1_5 C8_5 1_555 1_555
O2_5 C3_5 1_555 1_555
C2_5 H1_5 1_555 1_555
C3_5 C6_5 1_555 1_555
C4_5 C2_5 1_555 1_555
H2_5 C4_5 1_555 1_555
N3_5 C8_5 1_555 1_555
N6_4 C7_5 1_555 1_555
C5_5 H3_5 1_555 1_555
C6_5 C4_5 1_555 1_555
C8_5 H4_5 1_555 1_555
C9_5 C1_5 1_555 1_555
H5_5 C9_5 1_555 1_555
C10_5 C6_5 1_555 1_555
H6_5 C10_5 1_555 1_555
C11_5 N1_5 1_555 1_555
C12_5 N3_5 1_555 1_555
H7_5 C12_5 1_555 1_555
C13_5 N1_5 1_555 1_555
C15_5 C10_5 1_555 1_555
H11_5 C15_5 1_555 1_555
Cu4 N2_3 1_555 1_555
N5_3 Cu3_2 1_555 1_555
N2_3 C11_5 1_555 1_555
C1_5 C11_5 1_555 1_555
C2_5 C13_5 1_555 1_555
C5_5 C9_5 1_555 1_555
C5_5 C12_5 1_555 1_555
C13_5 C15_5 1_555 1_555
C14_5 H8_5 1_555 1_555
H9_5 C14_5 1_555 1_555
Cu3 N3_6 1_555 1_555
N1_6 C7_6 1_555 1_555
O3 C3_6 1_555 1_555
N2_4 N6_3 1_555 1_555
C1_6 C8_6 1_555 1_555
O2_6 C3_6 1_555 1_555
C2_6 H1_6 1_555 1_555
C3_6 C6_6 1_555 1_555
C4_6 C2_6 1_555 1_555
H2_6 C4_6 1_555 1_555
N3_6 C8_6 1_555 1_555
N6_3 C7_6 1_555 1_555
C5_6 H3_6 1_555 1_555
C6_6 C4_6 1_555 1_555
C7_6 C14_6 1_555 1_555
C8_6 H4_6 1_555 1_555
C9_6 C1_6 1_555 1_555
H5_6 C9_6 1_555 1_555
C10_6 C6_6 1_555 1_555
H6_6 C10_6 1_555 1_555
C11_6 N1_6 1_555 1_555
C12_6 N3_6 1_555 1_555
H7_6 C12_6 1_555 1_555
C13_6 N1_6 1_555 1_555
C14_6 H8_6 1_555 1_555
H9_6 C14_6 1_555 1_555
H10_6 C14_6 1_555 1_555
C15_6 C10_6 1_555 1_555
H11_6 C15_6 1_555 1_555
N2_4 C11_6 1_555 1_555
C1_6 C11_6 1_555 1_555
C2_6 C13_6 1_555 1_555
C5_6 C9_6 1_555 1_555
C5_6 C12_6 1_555 1_555
C13_6 C15_6 1_555 1_555
Cu4_2 N3_7 1_555 1_555
N1_7 C7_7 1_555 1_555
O3_4 C3_7 1_555 1_555
N5_4 N6_2 1_555 1_555
C1_7 C8_7 1_555 1_555
O2_7 C3_7 1_555 1_555
C2_7 H1_7 1_555 1_555
C3_7 C6_7 1_555 1_555
C4_7 C2_7 1_555 1_555
H2_7 C4_7 1_555 1_555
N3_7 C8_7 1_555 1_555
N6_2 C7_7 1_555 1_555
C5_7 H3_7 1_555 1_555
C6_7 C4_7 1_555 1_555
C7_7 C14_7 1_555 1_555
C8_7 H4_7 1_555 1_555
C9_7 C1_7 1_555 1_555
H5_7 C9_7 1_555 1_555
C10_7 C6_7 1_555 1_555
H6_7 C10_7 1_555 1_555
C11_7 N1_7 1_555 1_555
C12_7 N3_7 1_555 1_555
H7_7 C12_7 1_555 1_555
C13_7 N1_7 1_555 1_555
C14_7 H8_7 1_555 1_555
H10_7 C14_7 1_555 1_555
C15_7 C10_7 1_555 1_555
H11_7 C15_7 1_555 1_555
N5_4 C11_7 1_555 1_555
C1_7 C11_7 1_555 1_555
C2_7 C13_7 1_555 1_555
C5_7 C9_7 1_555 1_555
C5_7 C12_7 1_555 1_555
C13_7 C15_7 1_555 1_555
Cu4 N3_8 1_555 1_555
N1_8 C7_8 1_555 1_555
O3_3 C3_8 1_555 1_555
N5_3 N6 1_555 1_555
C1_8 C8_8 1_555 1_555
O2_8 C3_8 1_555 1_555
C2_8 H1_8 1_555 1_555
C3_8 C6_8 1_555 1_555
C4_8 C2_8 1_555 1_555
H2_8 C4_8 1_555 1_555
N3_8 C8_8 1_555 1_555
N6 C7_8 1_555 1_555
C5_8 H3_8 1_555 1_555
C6_8 C4_8 1_555 1_555
C8_8 H4_8 1_555 1_555
C9_8 C1_8 1_555 1_555
H5_8 C9_8 1_555 1_555
C10_8 C6_8 1_555 1_555
H6_8 C10_8 1_555 1_555
C11_8 N1_8 1_555 1_555
C12_8 N3_8 1_555 1_555
H7_8 C12_8 1_555 1_555
C13_8 N1_8 1_555 1_555
C15_8 C10_8 1_555 1_555
H11_8 C15_8 1_555 1_555
N5_3 C11_8 1_555 1_555
C1_8 C11_8 1_555 1_555
C2_8 C13_8 1_555 1_555
C5_8 C9_8 1_555 1_555
C5_8 C12_8 1_555 1_555
C13_8 C15_8 1_555 1_555
C14_8 H8_8 1_555 1_555

#END
