
###############################################################################
#
# This file contains modified crystal structure data generated from the
# MOF subset of the Cambridge Structural Database (CSD) v543 
# hosted by the Cambridge Crystallographic Data Centre (CCDC).
#
# This work is licensed under the Creative Commons
# Attribution-NonCommercial-ShareAlike 4.0 International License.
# To view a copy of this license, visit
# http://creativecommons.org/licenses/by-nc-sa/4.0/
# or send a letter to
# Creative Commons, PO Box 1866, Mountain View, CA 94042, USA.
#
# CIF created using the CSD Python API on 29 September 2022
# The structure has been converted into the P1 space group
# The structure has a 3D framework
# The original CSD entry POFHOK is in the monoclinic crystal system
# The framework has been calculated to contain at least 10.0% void space
# The void calculation uses a probe of radius 1.32A, grid spacing 0.4
#
###############################################################################

data_POFHOK
_chemical_formula_moiety         '(C160 H128 N16 O32 Zn8)n'
_symmetry_cell_setting           triclinic
_symmetry_space_group_name_H-M   'P 1'
_symmetry_Int_Tables_number      1
_space_group_name_Hall           'P 1'
loop_
_symmetry_equiv_pos_site_id
_symmetry_equiv_pos_as_xyz
1 x,y,z
_cell_length_a                   12.4678(4)
_cell_length_b                   17.8150(10)
_cell_length_c                   20.6837(11)
_cell_angle_alpha                90
_cell_angle_beta                 96.237(3)
_cell_angle_gamma                90
_cell_volume                     4566.94
loop_
_atom_site_label
_atom_site_type_symbol
_atom_site_fract_x
_atom_site_fract_y
_atom_site_fract_z
O1 O 0.0910(3) 0.0279(3) 0.3674(3)
O3 O 0.2881(3) 0.0057(3) 0.2973(2)
O4 O 0.4068(3) 0.0685(2) 0.3643(2)
C20 C 0.3357(4) 0.0169(3) 0.3507(3)
C31 C 0.0200(7) 0.0307(6) 0.0884(4)
C34 C 0.0402(7) 0.0243(7) 0.0186(4)
H26 H 0.1117 0.0039 0.0163
Zn7 Zn 0.43909(5) 0.13627(4) 0.29527(4)
H25 H 0.0378 0.0739 0.9992
N5 N 0.0177(4) 0.9602(4) 0.7801(3)
C44 C 0.0647(8) 0.9270(7) 0.8919(5)
H35 H 0.1106 0.9004 0.9221
C45 C 0.0796(7) 0.9252(6) 0.8256(4)
H36 H 0.1371 0.8973 0.8133
Zn5 Zn 0.04881(5) 0.95859(4) 0.68552(4)
Zn1 Zn 0.95119(5) 0.04141(4) 0.31448(4)
N3 N 0.9823(4) 0.0398(4) 0.2199(3)
O5 O 0.9129(3) 0.1377(2) 0.3503(3)
O6 O 0.7859(4) 0.1669(3) 0.2698(3)
O7 O 0.5757(3) 0.1760(2) 0.3364(2)
O8 O 0.5655(4) 0.2680(4) 0.2660(4)
C5 C 0.7265(5) 0.0029(4) 0.3382(4)
H4 H 0.7262 0.0509 0.3559
C21 C 0.8046(5) 0.2423(4) 0.3650(4)
C22 C 0.6992(5) 0.2722(4) 0.3568(5)
C23 C 0.6758(7) 0.3318(6) 0.3924(8)
H17 H 0.6097 0.3559 0.3835
C24 C 0.7531(9) 0.3589(8) 0.4448(11)
H18 H 0.7346 0.3972 0.4720
C25 C 0.8577(8) 0.3258(8) 0.4537(10)
H19 H 0.9086 0.3418 0.4871
C26 C 0.8815(6) 0.2710(6) 0.4129(7)
H20 H 0.9511 0.2516 0.4166
C27 C 0.8343(5) 0.1781(4) 0.3232(4)
C28 C 0.6084(5) 0.2373(4) 0.3152(4)
C32 C 0.9353(8) 0.0730(7) 0.1081(5)
H23 H 0.8894 0.0996 0.0779
C33 C 0.9204(7) 0.0748(6) 0.1744(4)
H24 H 0.8629 0.1027 0.1867
Zn2 Zn 0.06091(5) 0.63627(4) 0.20473(4)
N1 N 0.8179(3) 0.9767(3) 0.3175(3)
N2 N 0.1893(4) 0.7057(3) 0.2201(3)
N4 N 0.0314(4) 0.5918(3) 0.2907(3)
C1 C 0.8170(5) 0.9073(5) 0.2940(5)
H1 H 0.8792 0.8885 0.2789
C2 C 0.7254(6) 0.8616(5) 0.2912(5)
H2 H 0.7279 0.8130 0.2751
C3 C 0.6330(5) 0.8878(4) 0.3120(4)
C4 C 0.6328(5) 0.9607(4) 0.3338(4)
H3 H 0.5695 0.9817 0.3457
C6 C 0.5315(6) 0.8398(5) 0.3074(5)
H5 H 0.5512 0.7873 0.3123
H6 H 0.4888 0.8532 0.3422
C7 C 0.4665(6) 0.8516(4) 0.2435(4)
H7 H 0.5113 0.8417 0.2089
H8 H 0.4436 0.9036 0.2400
C8 C 0.3687(5) 0.8017(4) 0.2348(4)
C9 C 0.3738(6) 0.7308(4) 0.2116(5)
H9 H 0.4398 0.7122 0.2017
C10 C 0.2847(5) 0.6859(4) 0.2024(5)
H10 H 0.2911 0.6393 0.1829
C11 C 0.1834(5) 0.7738(5) 0.2429(5)
H11 H 0.1167 0.7902 0.2535
C12 C 0.2697(6) 0.8239(5) 0.2527(5)
H12 H 0.2609 0.8710 0.2708
C38 C 0.0867(8) 0.5298(5) 0.3916(5)
H29 H 0.1407 0.5047 0.4176
C39 C 0.1063(7) 0.5573(5) 0.3286(4)
H30 H 0.1739 0.5503 0.3145
H37 H 0.9622 0.9261 0.0008
C47 C 0.0632(6) 0.4003(6) 0.6879(4)
H39 H 0.1164 0.3758 0.7151
C48 C 0.0902(8) 0.4246(7) 0.6299(5)
H40 H 0.1601 0.4184 0.6190
C49 C 0.0126(7) 0.4589(5) 0.5870(5)
C52 C 0.0425(7) 0.4815(6) 0.5185(5)
H43 H 0.0614 0.4368 0.4955
H44 H 0.1052 0.5141 0.5235
O17 O 0.0932(3) 0.5685(2) 0.1357(2)
O20 O 0.0757(3) 0.3240(2) 0.8364(2)
C43 C 0.9800(7) 0.9693(6) 0.9116(4)
C46 C 0.9598(7) 0.9757(7) 0.9814(4)
H38 H 0.8883 0.9961 0.9837
C35 C 0.9368(6) 0.5997(6) 0.3121(4)
H27 H 0.8836 0.6242 0.2849
C36 C 0.9098(8) 0.5754(7) 0.3701(5)
H28 H 0.8399 0.5816 0.3810
C37 C 0.9874(7) 0.5411(5) 0.4130(5)
C40 C 0.9575(7) 0.5185(6) 0.4815(5)
H31 H 0.9386 0.5632 0.5045
H32 H 0.8948 0.4859 0.4765
N6 N 0.9686(4) 0.4082(3) 0.7093(3)
C50 C 0.9133(8) 0.4702(5) 0.6084(5)
H41 H 0.8593 0.4953 0.5824
C51 C 0.8937(7) 0.4427(5) 0.6714(4)
H42 H 0.8261 0.4497 0.6855
Zn4 Zn 0.93909(5) 0.36373(4) 0.79527(4)
N7 N 0.1821(3) 0.0233(3) 0.6825(3)
N8 N 0.8107(4) 0.2943(3) 0.7799(3)
C53 C 0.1830(5) 0.0927(5) 0.7060(5)
H45 H 0.1208 0.1115 0.7211
C54 C 0.2746(6) 0.1384(5) 0.7088(5)
H46 H 0.2721 0.1870 0.7249
C55 C 0.3670(5) 0.1122(4) 0.6880(4)
C56 C 0.3672(5) 0.0393(4) 0.6662(4)
H47 H 0.4305 0.0183 0.6543
C58 C 0.4685(6) 0.1602(5) 0.6926(5)
H49 H 0.4488 0.2127 0.6877
H50 H 0.5112 0.1468 0.6578
C59 C 0.5335(6) 0.1484(4) 0.7565(4)
H51 H 0.4887 0.1583 0.7911
H52 H 0.5564 0.0964 0.7600
C60 C 0.6313(5) 0.1983(4) 0.7652(4)
C61 C 0.6262(6) 0.2692(4) 0.7884(5)
H53 H 0.5602 0.2878 0.7983
C62 C 0.7153(5) 0.3141(4) 0.7976(5)
H54 H 0.7089 0.3607 0.8171
C63 C 0.8166(5) 0.2262(5) 0.7571(5)
H55 H 0.8833 0.2098 0.7465
C64 C 0.7303(6) 0.1761(5) 0.7473(5)
H56 H 0.7391 0.1290 0.7292
O18 O 0.9068(3) 0.4315(2) 0.8643(2)
O19 O 0.9243(3) 0.6760(2) 0.1636(2)
O13 O 0.0871(3) 0.8623(2) 0.6497(3)
O14 O 0.2141(4) 0.8331(3) 0.7302(3)
O15 O 0.4243(3) 0.8240(2) 0.6636(2)
O16 O 0.4345(4) 0.7320(4) 0.7340(4)
C57 C 0.2735(5) 0.9971(4) 0.6618(4)
H48 H 0.2738 0.9491 0.6441
C73 C 0.1954(5) 0.7577(4) 0.6350(4)
C74 C 0.3008(5) 0.7278(4) 0.6432(5)
C75 C 0.3242(7) 0.6682(6) 0.6076(8)
H61 H 0.3903 0.6441 0.6165
C76 C 0.2469(9) 0.6411(8) 0.5552(11)
H62 H 0.2654 0.6028 0.5280
C77 C 0.1423(8) 0.6742(8) 0.5463(10)
H63 H 0.0914 0.6582 0.5129
C78 C 0.1185(6) 0.7290(6) 0.5871(7)
H64 H 0.0489 0.7484 0.5834
C79 C 0.1657(5) 0.8219(4) 0.6768(4)
C80 C 0.3916(5) 0.7627(4) 0.6848(4)
Zn9 Zn 0.56091(5) 0.86373(4) 0.70473(4)
O9 O 0.9090(3) 0.9721(3) 0.6326(3)
O11 O 0.7119(3) 0.9943(3) 0.7027(2)
O12 O 0.5932(3) 0.9315(2) 0.6357(2)
C72 C 0.6643(4) 0.9831(3) 0.6493(3)
Zn3 Zn 0.45119(5) 0.45859(4) 0.81448(4)
N7_2 N 0.3179(3) 0.5233(3) 0.8175(3)
O9_2 O 0.5910(3) 0.4721(3) 0.8674(3)
O10 O 0.5623(4) 0.5895(3) 0.8401(3)
O11_2 O 0.7881(3) 0.4943(3) 0.7973(2)
O13_2 O 0.4129(3) 0.3623(2) 0.8503(3)
O14_2 O 0.2859(4) 0.3331(3) 0.7698(3)
O16_2 O 0.0655(4) 0.2320(4) 0.7660(4)
C53_2 C 0.3170(5) 0.5927(5) 0.7940(5)
H45_2 H 0.3792 0.6115 0.7789
C54_2 C 0.2254(6) 0.6384(5) 0.7912(5)
H46_2 H 0.2279 0.6870 0.7751
C55_2 C 0.1330(5) 0.6122(4) 0.8120(4)
C56_2 C 0.1328(5) 0.5393(4) 0.8338(4)
H47_2 H 0.0695 0.5183 0.8457
C57_2 C 0.2265(5) 0.4971(4) 0.8382(4)
H48_2 H 0.2262 0.4491 0.8559
C58_2 C 0.0315(6) 0.6602(5) 0.8074(5)
H49_2 H 0.0512 0.7127 0.8123
H51_2 H 0.0113 0.6583 0.7089
C65 C 0.7143(4) 0.5615(4) 0.9143(3)
C66 C 0.8156(4) 0.5319(3) 0.9073(3)
C67 C 0.9023(5) 0.5519(4) 0.9525(4)
H57 H 0.9705 0.5325 0.9485
C70 C 0.7015(6) 0.6098(5) 0.9652(4)
H60 H 0.6336 0.6290 0.9703
C71 C 0.6160(5) 0.5403(5) 0.8702(4)
C72_2 C 0.8357(4) 0.4831(3) 0.8507(3)
C73_2 C 0.3046(5) 0.2577(4) 0.8650(4)
C74_2 C 0.1992(5) 0.2278(4) 0.8568(5)
C75_2 C 0.1758(7) 0.1682(6) 0.8924(8)
H61_2 H 0.1097 0.1441 0.8835
C76_2 C 0.2531(9) 0.1411(8) 0.9448(11)
H62_2 H 0.2346 0.1028 0.9720
C77_2 C 0.3577(8) 0.1742(8) 0.9537(10)
H63_2 H 0.4086 0.1582 0.9871
C78_2 C 0.3815(6) 0.2290(6) 0.9129(7)
H64_2 H 0.4511 0.2484 0.9166
C79_2 C 0.3343(5) 0.3219(4) 0.8232(4)
C80_2 C 0.1084(5) 0.2627(4) 0.8152(4)
N9 N 0.4823(4) 0.4602(4) 0.7199(3)
N2_2 N 0.3107(4) 0.2057(3) 0.2799(3)
N4_2 N 0.4686(4) 0.0918(3) 0.2093(3)
H6_2 H 0.0112 0.3532 0.1578
C7_2 C 0.0335(6) 0.3516(4) 0.2565(4)
H8_2 H 0.0564 0.4036 0.2600
C8_2 C 0.1313(5) 0.3017(4) 0.2652(4)
C9_2 C 0.1262(6) 0.2308(4) 0.2884(5)
H9_2 H 0.0602 0.2122 0.2983
C10_2 C 0.2153(5) 0.1859(4) 0.2976(5)
H10_2 H 0.2089 0.1393 0.3171
C11_2 C 0.3166(5) 0.2738(5) 0.2571(5)
H11_2 H 0.3833 0.2902 0.2465
C12_2 C 0.2303(6) 0.3239(5) 0.2473(5)
H12_2 H 0.2391 0.3710 0.2292
C35_2 C 0.5632(6) 0.0997(6) 0.1879(4)
H27_2 H 0.6164 0.1242 0.2151
C36_2 C 0.5902(8) 0.0754(7) 0.1299(5)
H28_2 H 0.6601 0.0816 0.1190
C37_2 C 0.5126(7) 0.0411(5) 0.0870(5)
C38_2 C 0.4133(8) 0.0298(5) 0.1084(5)
H29_2 H 0.3593 0.0047 0.0824
C39_2 C 0.3937(7) 0.0573(5) 0.1714(4)
H30_2 H 0.3261 0.0503 0.1855
C40_2 C 0.5425(7) 0.0185(6) 0.0185(5)
N6_2 N 0.5314(4) 0.9082(3) 0.7907(3)
C47_2 C 0.4368(6) 0.9003(6) 0.8121(4)
H39_2 H 0.3836 0.8758 0.7849
C48_2 C 0.4098(8) 0.9246(7) 0.8701(5)
H40_2 H 0.3399 0.9184 0.8810
C49_2 C 0.4874(7) 0.9589(5) 0.9130(5)
C50_2 C 0.5867(8) 0.9702(5) 0.8916(5)
H41_2 H 0.6407 0.9953 0.9176
C51_2 C 0.6063(7) 0.9427(5) 0.8286(4)
H42_2 H 0.6739 0.9497 0.8145
C52_2 C 0.4575(7) 0.9815(6) 0.9815(5)
N8_2 N 0.6893(4) 0.7943(3) 0.7201(3)
H50_2 H 0.9888 0.6468 0.8422
C59_2 C 0.9665(6) 0.6484(4) 0.7435(4)
H52_2 H 0.9436 0.5964 0.7400
C60_2 C 0.8687(5) 0.6983(4) 0.7348(4)
C61_2 C 0.8738(6) 0.7692(4) 0.7116(5)
H53_2 H 0.9398 0.7878 0.7017
C62_2 C 0.7847(5) 0.8141(4) 0.7024(5)
H54_2 H 0.7911 0.8607 0.6829
C63_2 C 0.6834(5) 0.7262(5) 0.7429(5)
H55_2 H 0.6167 0.7098 0.7535
C64_2 C 0.7697(6) 0.6761(5) 0.7527(5)
H56_2 H 0.7609 0.6290 0.7708
Zn1_2 Zn 0.54881(5) 0.54141(4) 0.18552(4)
N1_2 N 0.6821(3) 0.4767(3) 0.1825(3)
N3_2 N 0.5177(4) 0.5398(4) 0.2801(3)
O1_2 O 0.4090(3) 0.5279(3) 0.1326(3)
O2 O 0.4377(4) 0.4105(3) 0.1599(3)
O3_2 O 0.2119(3) 0.5057(3) 0.2027(2)
O5_2 O 0.5871(3) 0.6377(2) 0.1497(3)
O6_2 O 0.7141(4) 0.6669(3) 0.2302(3)
O8_2 O 0.9345(4) 0.7680(4) 0.2340(4)
C1_2 C 0.6830(5) 0.4073(5) 0.2060(5)
H1_2 H 0.6208 0.3885 0.2211
C2_2 C 0.7746(6) 0.3616(5) 0.2088(5)
H2_2 H 0.7721 0.3130 0.2249
C3_2 C 0.8670(5) 0.3878(4) 0.1880(4)
C4_2 C 0.8672(5) 0.4607(4) 0.1662(4)
H3_2 H 0.9305 0.4817 0.1543
C5_2 C 0.7735(5) 0.5029(4) 0.1618(4)
H4_2 H 0.7738 0.5509 0.1441
C6_2 C 0.9685(6) 0.3398(5) 0.1926(5)
H5_2 H 0.9488 0.2873 0.1877
H7_2 H 0.9887 0.3417 0.2911
C13 C 0.2857(4) 0.4385(4) 0.0857(3)
C14 C 0.1844(4) 0.4681(3) 0.0927(3)
C15 C 0.0977(5) 0.4481(4) 0.0475(4)
H13 H 0.0295 0.4675 0.0515
C18 C 0.2985(6) 0.3902(5) 0.0348(4)
H16 H 0.3664 0.3710 0.0297
C19 C 0.3840(5) 0.4597(5) 0.1298(4)
C20_2 C 0.1643(4) 0.5169(3) 0.1493(3)
C21_2 C 0.6954(5) 0.7423(4) 0.1350(4)
C22_2 C 0.8008(5) 0.7722(4) 0.1432(5)
C23_2 C 0.8242(7) 0.8318(6) 0.1076(8)
H17_2 H 0.8903 0.8559 0.1165
C24_2 C 0.7469(9) 0.8589(8) 0.0552(11)
H18_2 H 0.7654 0.8972 0.0280
C25_2 C 0.6423(8) 0.8258(8) 0.0463(10)
H19_2 H 0.5914 0.8418 0.0129
C26_2 C 0.6185(6) 0.7710(6) 0.0871(7)
H20_2 H 0.5489 0.7516 0.0834
C27_2 C 0.6657(5) 0.6781(4) 0.1768(4)
C28_2 C 0.8916(5) 0.7373(4) 0.1848(4)
C29 C 0.4387(6) 0.4989(6) 0.2990(4)
H21 H 0.3934 0.4738 0.2675
C30 C 0.4199(6) 0.4916(6) 0.3636(5)
H22 H 0.3656 0.4596 0.3745
C31_2 C 0.4800(7) 0.5307(6) 0.4116(4)
C32_2 C 0.5647(8) 0.5730(7) 0.3919(5)
H23_2 H 0.6106 0.5996 0.4221
C33_2 C 0.5796(7) 0.5748(6) 0.3256(4)
H24_2 H 0.6371 0.6027 0.3133
C34_2 C 0.4598(7) 0.5243(7) 0.4814(4)
H25_2 H 0.4622 0.5739 0.5008
H26_2 H 0.3883 0.5039 0.4837
C41 C 0.5613(6) 0.5011(6) 0.7010(4)
H33 H 0.6066 0.5262 0.7325
C42 C 0.5801(6) 0.5084(6) 0.6364(5)
H34 H 0.6344 0.5404 0.6255
C43_2 C 0.5200(7) 0.4693(6) 0.5884(4)
C44_2 C 0.4353(8) 0.4270(7) 0.6081(5)
H35_2 H 0.3894 0.4004 0.5779
C45_2 C 0.4204(7) 0.4252(6) 0.6744(4)
H36_2 H 0.3629 0.3973 0.6867
C46_2 C 0.5402(7) 0.4757(7) 0.5186(4)
H37_2 H 0.5378 0.4261 0.4992
H38_2 H 0.6117 0.4961 0.5163
O2_2 O 0.0623(4) 0.9105(3) 0.3401(3)
C13_2 C 0.2143(4) 0.9385(4) 0.4143(3)
C14_2 C 0.3156(4) 0.9681(3) 0.4073(3)
C15_2 C 0.4023(5) 0.9481(4) 0.4525(4)
H13_2 H 0.4705 0.9675 0.4485
C16 C 0.3876(6) 0.9001(5) 0.5023(4)
H14 H 0.4458 0.8879 0.5325
C17 C 0.2893(6) 0.8703(5) 0.5084(4)
H15 H 0.2809 0.8363 0.5416
C18_2 C 0.2015(6) 0.8902(5) 0.4652(4)
H16_2 H 0.1336 0.8710 0.4703
C19_2 C 0.1160(5) 0.9597(5) 0.3702(4)
C29_2 C 0.0613(6) 0.9989(6) 0.2010(4)
H21_2 H 0.1066 0.9738 0.2325
C30_2 C 0.0801(6) 0.9916(6) 0.1364(5)
H22_2 H 0.1344 0.9596 0.1255
C41_2 C 0.9387(6) 0.0011(6) 0.7990(4)
H33_2 H 0.8934 0.0262 0.7675
C42_2 C 0.9199(6) 0.0084(6) 0.8636(5)
H34_2 H 0.8656 0.0404 0.8745
O10_2 O 0.9377(4) 0.0895(3) 0.6599(3)
C65_2 C 0.7857(4) 0.0615(4) 0.5857(3)
C66_2 C 0.6844(4) 0.0319(3) 0.5927(3)
C67_2 C 0.5977(5) 0.0519(4) 0.5475(4)
H57_2 H 0.5295 0.0325 0.5515
C68 C 0.6124(6) 0.0999(5) 0.4977(4)
H58 H 0.5542 0.1121 0.4675
C69 C 0.7107(6) 0.1297(5) 0.4916(4)
H59 H 0.7191 0.1637 0.4584
C70_2 C 0.7985(6) 0.1098(5) 0.5348(4)
H60_2 H 0.8664 0.1290 0.5297
C71_2 C 0.8840(5) 0.0403(5) 0.6298(4)
C68_2 C 0.8876(6) 0.5999(5) 0.0023(4)
H58_2 H 0.9458 0.6121 0.0325
C69_2 C 0.7893(6) 0.6297(5) 0.0084(4)
H59_2 H 0.7809 0.6637 0.0416
H31_2 H 0.5614 0.0632 0.9955
H44_2 H 0.3948 0.0141 0.9765
H32_2 H 0.6052 0.9859 0.0235
H43_2 H 0.4386 0.9368 0.0045
C16_2 C 0.1124(6) 0.4001(5) 0.9977(4)
H14_2 H 0.0542 0.3879 0.9675
C17_2 C 0.2107(6) 0.3703(5) 0.9916(4)
H15_2 H 0.2191 0.3363 0.9584
loop_
_geom_bond_atom_site_label_1
_geom_bond_atom_site_label_2
_geom_bond_site_symmetry_1
_geom_bond_site_symmetry_2
O3 C20 1_555 1_555
O4 C20 1_555 1_555
C34 C31 1_555 1_555
H26 C34 1_555 1_555
Zn7 O4 1_555 1_555
H35 C44 1_555 1_555
C45 N5 1_555 1_555
H36 C45 1_555 1_555
Zn5 N5 1_555 1_555
C44 C45 1_555 1_555
N3 Zn1 1_555 1_555
O5 Zn1 1_555 1_555
O6 C27 1_555 1_555
O7 C28 1_555 1_555
O8 C28 1_555 1_555
H4 C5 1_555 1_555
C21 C22 1_555 1_555
C22 C23 1_555 1_555
C23 H17 1_555 1_555
C24 C23 1_555 1_555
H18 C24 1_555 1_555
C25 C24 1_555 1_555
H19 C25 1_555 1_555
C26 C21 1_555 1_555
H20 C26 1_555 1_555
C27 O5 1_555 1_555
C28 C22 1_555 1_555
H23 C32 1_555 1_555
C33 N3 1_555 1_555
H24 C33 1_555 1_555
Zn7 O7 1_555 1_555
C21 C27 1_555 1_555
C25 C26 1_555 1_555
C32 C33 1_555 1_555
Zn2 N2 1_555 1_555
N1 C1 1_555 1_555
N2 C10 1_555 1_555
N4 Zn2 1_555 1_555
C1 H1 1_555 1_555
C2 C1 1_555 1_555
H2 C2 1_555 1_555
C3 C2 1_555 1_555
C4 C3 1_555 1_555
H3 C4 1_555 1_555
C6 C3 1_555 1_555
H5 C6 1_555 1_555
H6 C6 1_555 1_555
C7 C6 1_555 1_555
H7 C7 1_555 1_555
H8 C7 1_555 1_555
C8 C7 1_555 1_555
C9 C8 1_555 1_555
H9 C9 1_555 1_555
C10 C9 1_555 1_555
H10 C10 1_555 1_555
C11 N2 1_555 1_555
H11 C11 1_555 1_555
C12 C8 1_555 1_555
H12 C12 1_555 1_555
H29 C38 1_555 1_555
C39 N4 1_555 1_555
H30 C39 1_555 1_555
C47 H39 1_555 1_555
C48 C47 1_555 1_555
H40 C48 1_555 1_555
C49 C48 1_555 1_555
H43 C52 1_555 1_555
H44 C52 1_555 1_555
O17 Zn2 1_555 1_555
C11 C12 1_555 1_555
C38 C39 1_555 1_555
C49 C52 1_555 1_555
H38 C46 1_555 1_555
C43 C46 1_555 1_555
H27 C35 1_555 1_555
C36 C35 1_555 1_555
H28 C36 1_555 1_555
C37 C36 1_555 1_555
C40 C37 1_555 1_555
H31 C40 1_555 1_555
H32 C40 1_555 1_555
H41 C50 1_555 1_555
C51 N6 1_555 1_555
H42 C51 1_555 1_555
Zn4 N6 1_555 1_555
N7 C53 1_555 1_555
N8 Zn4 1_555 1_555
C53 H45 1_555 1_555
C54 C53 1_555 1_555
H46 C54 1_555 1_555
C55 C54 1_555 1_555
C56 C55 1_555 1_555
H47 C56 1_555 1_555
C58 C55 1_555 1_555
H49 C58 1_555 1_555
H50 C58 1_555 1_555
C59 C58 1_555 1_555
H51 C59 1_555 1_555
H52 C59 1_555 1_555
C60 C59 1_555 1_555
C61 C60 1_555 1_555
H53 C61 1_555 1_555
C62 N8 1_555 1_555
H54 C62 1_555 1_555
C63 N8 1_555 1_555
H55 C63 1_555 1_555
C64 C60 1_555 1_555
H56 C64 1_555 1_555
O18 Zn4 1_555 1_555
C50 C51 1_555 1_555
C61 C62 1_555 1_555
C63 C64 1_555 1_555
O13 Zn5 1_555 1_555
O14 C79 1_555 1_555
O15 C80 1_555 1_555
O16 C80 1_555 1_555
H48 C57 1_555 1_555
C73 C74 1_555 1_555
C74 C75 1_555 1_555
C75 H61 1_555 1_555
C76 C75 1_555 1_555
H62 C76 1_555 1_555
C77 C76 1_555 1_555
H63 C77 1_555 1_555
C78 C73 1_555 1_555
H64 C78 1_555 1_555
C79 O13 1_555 1_555
C80 C74 1_555 1_555
Zn9 O15 1_555 1_555
C73 C79 1_555 1_555
C77 C78 1_555 1_555
O11 C72 1_555 1_555
O12 C72 1_555 1_555
Zn9 O12 1_555 1_555
Zn3 N7_2 1_555 1_555
N7_2 C53_2 1_555 1_555
O9_2 Zn3 1_555 1_555
O10 C71 1_555 1_555
O11_2 C72_2 1_555 1_555
O18 C72_2 1_555 1_555
O13_2 Zn3 1_555 1_555
O14_2 C79_2 1_555 1_555
O20 C80_2 1_555 1_555
O16_2 C80_2 1_555 1_555
C53_2 H45_2 1_555 1_555
C54_2 C53_2 1_555 1_555
H46_2 C54_2 1_555 1_555
C55_2 C54_2 1_555 1_555
C56_2 C55_2 1_555 1_555
H47_2 C56_2 1_555 1_555
C57_2 N7_2 1_555 1_555
H48_2 C57_2 1_555 1_555
C58_2 C55_2 1_555 1_555
H49_2 C58_2 1_555 1_555
C65 C66 1_555 1_555
C66 C67 1_555 1_555
C67 H57 1_555 1_555
C70 C65 1_555 1_555
H60 C70 1_555 1_555
C71 O9_2 1_555 1_555
C72_2 C66 1_555 1_555
C73_2 C74_2 1_555 1_555
C74_2 C75_2 1_555 1_555
C75_2 H61_2 1_555 1_555
C76_2 C75_2 1_555 1_555
H62_2 C76_2 1_555 1_555
C77_2 C76_2 1_555 1_555
H63_2 C77_2 1_555 1_555
C78_2 C73_2 1_555 1_555
H64_2 C78_2 1_555 1_555
C79_2 O13_2 1_555 1_555
C80_2 C74_2 1_555 1_555
N9 Zn3 1_555 1_555
C56_2 C57_2 1_555 1_555
C65 C71 1_555 1_555
C73_2 C79_2 1_555 1_555
C77_2 C78_2 1_555 1_555
Zn7 N2_2 1_555 1_555
N2_2 C10_2 1_555 1_555
N4_2 Zn7 1_555 1_555
H8_2 C7_2 1_555 1_555
C8_2 C7_2 1_555 1_555
C9_2 C8_2 1_555 1_555
H9_2 C9_2 1_555 1_555
C10_2 C9_2 1_555 1_555
H10_2 C10_2 1_555 1_555
C11_2 N2_2 1_555 1_555
H11_2 C11_2 1_555 1_555
C12_2 C8_2 1_555 1_555
H12_2 C12_2 1_555 1_555
C35_2 N4_2 1_555 1_555
H27_2 C35_2 1_555 1_555
C36_2 C35_2 1_555 1_555
H28_2 C36_2 1_555 1_555
C37_2 C36_2 1_555 1_555
C38_2 C37_2 1_555 1_555
H29_2 C38_2 1_555 1_555
C39_2 N4_2 1_555 1_555
H30_2 C39_2 1_555 1_555
C40_2 C37_2 1_555 1_555
C11_2 C12_2 1_555 1_555
C38_2 C39_2 1_555 1_555
N6_2 C47_2 1_555 1_555
C47_2 H39_2 1_555 1_555
C48_2 C47_2 1_555 1_555
H40_2 C48_2 1_555 1_555
C49_2 C48_2 1_555 1_555
C50_2 C49_2 1_555 1_555
H41_2 C50_2 1_555 1_555
C51_2 N6_2 1_555 1_555
H42_2 C51_2 1_555 1_555
Zn9 N6_2 1_555 1_555
N8_2 Zn9 1_555 1_555
H52_2 C59_2 1_555 1_555
C60_2 C59_2 1_555 1_555
C61_2 C60_2 1_555 1_555
H53_2 C61_2 1_555 1_555
C62_2 N8_2 1_555 1_555
H54_2 C62_2 1_555 1_555
C63_2 N8_2 1_555 1_555
H55_2 C63_2 1_555 1_555
C64_2 C60_2 1_555 1_555
H56_2 C64_2 1_555 1_555
C49_2 C52_2 1_555 1_555
C50_2 C51_2 1_555 1_555
C61_2 C62_2 1_555 1_555
C63_2 C64_2 1_555 1_555
Zn1_2 N1_2 1_555 1_555
N1_2 C1_2 1_555 1_555
N3_2 Zn1_2 1_555 1_555
O1_2 Zn1_2 1_555 1_555
O2 C19 1_555 1_555
O3_2 C20_2 1_555 1_555
O17 C20_2 1_555 1_555
O5_2 Zn1_2 1_555 1_555
O6_2 C27_2 1_555 1_555
O19 C28_2 1_555 1_555
O8_2 C28_2 1_555 1_555
C1_2 H1_2 1_555 1_555
C2_2 C1_2 1_555 1_555
H2_2 C2_2 1_555 1_555
C3_2 C2_2 1_555 1_555
C4_2 C3_2 1_555 1_555
H3_2 C4_2 1_555 1_555
C5_2 N1_2 1_555 1_555
H4_2 C5_2 1_555 1_555
C6_2 C3_2 1_555 1_555
H5_2 C6_2 1_555 1_555
C13 C14 1_555 1_555
C14 C15 1_555 1_555
C15 H13 1_555 1_555
C18 C13 1_555 1_555
H16 C18 1_555 1_555
C19 O1_2 1_555 1_555
C20_2 C14 1_555 1_555
C21_2 C22_2 1_555 1_555
C22_2 C23_2 1_555 1_555
C23_2 H17_2 1_555 1_555
C24_2 C23_2 1_555 1_555
H18_2 C24_2 1_555 1_555
C25_2 C24_2 1_555 1_555
H19_2 C25_2 1_555 1_555
C26_2 C21_2 1_555 1_555
H20_2 C26_2 1_555 1_555
C27_2 O5_2 1_555 1_555
C28_2 C22_2 1_555 1_555
C29 N3_2 1_555 1_555
H21 C29 1_555 1_555
C30 C29 1_555 1_555
H22 C30 1_555 1_555
C31_2 C30 1_555 1_555
C32_2 C31_2 1_555 1_555
H23_2 C32_2 1_555 1_555
C33_2 N3_2 1_555 1_555
H24_2 C33_2 1_555 1_555
C34_2 C31_2 1_555 1_555
H25_2 C34_2 1_555 1_555
H26_2 C34_2 1_555 1_555
N9 C41 1_555 1_555
C41 H33 1_555 1_555
C42 C41 1_555 1_555
H34 C42 1_555 1_555
C43_2 C42 1_555 1_555
C44_2 C43_2 1_555 1_555
H35_2 C44_2 1_555 1_555
C45_2 N9 1_555 1_555
H36_2 C45_2 1_555 1_555
C46_2 C34_2 1_555 1_555
H37_2 C46_2 1_555 1_555
H38_2 C46_2 1_555 1_555
C4_2 C5_2 1_555 1_555
C13 C19 1_555 1_555
C21_2 C27_2 1_555 1_555
C25_2 C26_2 1_555 1_555
C32_2 C33_2 1_555 1_555
C43_2 C46_2 1_555 1_555
C44_2 C45_2 1_555 1_555
O2_2 C19_2 1_555 1_555
C13_2 C14_2 1_555 1_555
C14_2 C15_2 1_555 1_555
C15_2 H13_2 1_555 1_555
C16 C15_2 1_555 1_555
H14 C16 1_555 1_555
C17 C16 1_555 1_555
H15 C17 1_555 1_555
C18_2 C13_2 1_555 1_555
H16_2 C18_2 1_555 1_555
H21_2 C29_2 1_555 1_555
C30_2 C29_2 1_555 1_555
H22_2 C30_2 1_555 1_555
C13_2 C19_2 1_555 1_555
C17 C18_2 1_555 1_555
C41_2 H33_2 1_555 1_555
C42_2 C41_2 1_555 1_555
H34_2 C42_2 1_555 1_555
O10_2 C71_2 1_555 1_555
C65_2 C66_2 1_555 1_555
C66_2 C67_2 1_555 1_555
C67_2 H57_2 1_555 1_555
C68 C67_2 1_555 1_555
H58 C68 1_555 1_555
C69 C68 1_555 1_555
H59 C69 1_555 1_555
C70_2 C65_2 1_555 1_555
H60_2 C70_2 1_555 1_555
C65_2 C71_2 1_555 1_555
C69 C70_2 1_555 1_555
H58_2 C68_2 1_555 1_555
C69_2 C68_2 1_555 1_555
H59_2 C69_2 1_555 1_555
H14_2 C16_2 1_555 1_555
C17_2 C16_2 1_555 1_555
H15_2 C17_2 1_555 1_555

#END
