
###############################################################################
#
# This file contains modified crystal structure data generated from the
# MOF subset of the Cambridge Structural Database (CSD) v543 
# hosted by the Cambridge Crystallographic Data Centre (CCDC).
#
# This work is licensed under the Creative Commons
# Attribution-NonCommercial-ShareAlike 4.0 International License.
# To view a copy of this license, visit
# http://creativecommons.org/licenses/by-nc-sa/4.0/
# or send a letter to
# Creative Commons, PO Box 1866, Mountain View, CA 94042, USA.
#
# CIF created using the CSD Python API on 29 September 2022
# The structure has been converted into the P1 space group
# The structure has a 3D framework
# The original CSD entry POFJOK is in the monoclinic crystal system
# The original CSD entry POFJOK is in a Sohncke space group
# The framework has been calculated to contain at least 10.0% void space
# The void calculation uses a probe of radius 1.32A, grid spacing 0.4
#
###############################################################################

data_POFJOK
_chemical_formula_moiety         '(C32 H24 I4 O24 Zn5)n'
_symmetry_cell_setting           triclinic
_symmetry_space_group_name_H-M   'P 1'
_symmetry_Int_Tables_number      1
_space_group_name_Hall           'P 1'
loop_
_symmetry_equiv_pos_site_id
_symmetry_equiv_pos_as_xyz
1 x,y,z
_cell_length_a                   10.9466(16)
_cell_length_b                   9.8135(14)
_cell_length_c                   11.3913(17)
_cell_angle_alpha                90
_cell_angle_beta                 100.187(3)
_cell_angle_gamma                90
_cell_volume                     1204.41
loop_
_atom_site_label
_atom_site_type_symbol
_atom_site_fract_x
_atom_site_fract_y
_atom_site_fract_z
Zn4 Zn -0.0000 0.52673(14) 0.5000
Zn6 Zn -0.0000 0.94976(18) 0.5000
Zn5 Zn 0.5000 0.02673(14) 0.5000
O6 O 0.1005(8) 0.1179(7) 0.5892(7)
H3 H 0.1232 0.1982 0.5746
H4 H 0.1538 0.0920 0.6488
I1 I 0.31728(8) 0.46912(8) 0.05780(7)
Zn4_2 Zn 1.0000 0.52673(14) 0.5000
Zn6_2 Zn 1.0000 0.94976(18) 0.5000
O7 O 0.8459(6) 0.6253(7) 0.4433(6)
O9 O 0.8901(7) 0.8284(7) 0.3728(6)
O11 O 0.6289(6) 0.8475(7) 0.4549(6)
O14 O 0.5161(6) 0.9757(8) 0.3253(6)
C9 C 0.8266(8) 0.7220(12) 0.3699(8)
C10 C 0.5863(9) 0.8752(11) 0.3495(9)
C11 C 0.6172(10) 0.7879(9) 0.2535(9)
C12 C 0.7226(9) 0.7090(10) 0.2669(8)
C13 C 0.7406(9) 0.6187(9) 0.1776(9)
H11 H 0.8119 0.5652 0.1876
C14 C 0.6532(9) 0.6073(9) 0.0734(8)
C15 C 0.5464(8) 0.6899(9) 0.0575(7)
C16 C 0.5300(9) 0.7767(9) 0.1464(9)
H12 H 0.4589 0.8305 0.1364
O1 O 0.1541(6) 0.6253(7) 0.5567(6)
O2 O 0.1099(7) 0.8284(7) 0.6272(6)
O3 O 0.3711(6) 0.8475(7) 0.5451(6)
O4 O 0.4839(6) 0.9757(8) 0.6747(6)
C1 C 0.1734(8) 0.7220(12) 0.6301(8)
C2 C 0.4137(9) 0.8752(11) 0.6505(9)
C3 C 0.3828(10) 0.7879(9) 0.7465(9)
C4 C 0.2774(9) 0.7090(10) 0.7331(8)
C5 C 0.2594(9) 0.6187(9) 0.8224(9)
H5 H 0.1881 0.5652 0.8124
C6 C 0.3468(9) 0.6073(9) 0.9266(8)
C7 C 0.4536(8) 0.6899(9) 0.9425(7)
C8 C 0.4700(9) 0.7767(9) 0.8536(9)
H6 H 0.5411 0.8305 0.8636
I2 I 0.68272(8) 0.46912(8) 0.94220(7)
O13 O 0.1289(6) 0.3475(7) 0.4549(6)
O16 O 0.0161(6) 0.4757(8) 0.3253(6)
O17 O 0.1277(5) 0.9419(7) 0.3888(5)
H7 H 0.2029 0.9518 0.4213
H8 H 0.1254 0.8743 0.3423
O18 O 0.8995(8) 0.1179(7) 0.4108(7)
H9 H 0.8768 0.1982 0.4254
H10 H 0.8462 0.0920 0.3512
O5 O 0.8723(5) 0.9419(7) 0.6112(5)
H1 H 0.7971 0.9518 0.5787
H2 H 0.8746 0.8743 0.6577
O12 O 0.8711(6) 0.3475(7) 0.5451(6)
O15 O 0.9839(6) 0.4757(8) 0.6747(6)
Zn6_3 Zn 0.5000 0.44976(18) 0.5000
O7_2 O 0.3459(6) 0.1253(7) 0.4433(6)
O9_2 O 0.3901(7) 0.3284(7) 0.3728(6)
C9_2 C 0.3266(8) 0.2220(12) 0.3699(8)
C10_2 C 0.0863(9) 0.3752(11) 0.3495(9)
C11_2 C 0.1172(10) 0.2879(9) 0.2535(9)
C12_2 C 0.2226(9) 0.2090(10) 0.2669(8)
C13_2 C 0.2406(9) 0.1187(9) 0.1776(9)
H11_2 H 0.3119 0.0652 0.1876
C14_2 C 0.1532(9) 0.1073(9) 0.0734(8)
C15_2 C 0.0464(8) 0.1899(9) 0.0575(7)
C16_2 C 0.0300(9) 0.2767(9) 0.1464(9)
H6_2 H 0.0411 0.3305 0.8636
H12_2 H 0.9589 0.3305 0.1364
O1_2 O 0.6541(6) 0.1253(7) 0.5567(6)
O2_2 O 0.6099(7) 0.3284(7) 0.6272(6)
O5_2 O 0.3723(5) 0.4419(7) 0.6112(5)
H1_2 H 0.2971 0.4518 0.5787
H2_2 H 0.3746 0.3743 0.6577
O6_2 O 0.6005(8) 0.6179(7) 0.5892(7)
H3_2 H 0.6232 0.6982 0.5746
H4_2 H 0.6538 0.5920 0.6488
C1_2 C 0.6734(8) 0.2220(12) 0.6301(8)
C2_2 C 0.9137(9) 0.3752(11) 0.6505(9)
C3_2 C 0.8828(10) 0.2879(9) 0.7465(9)
C4_2 C 0.7774(9) 0.2090(10) 0.7331(8)
C5_2 C 0.7594(9) 0.1187(9) 0.8224(9)
H5_2 H 0.6881 0.0652 0.8124
C6_2 C 0.8468(9) 0.1073(9) 0.9266(8)
C7_2 C 0.9536(8) 0.1899(9) 0.9425(7)
C8_2 C 0.9700(9) 0.2767(9) 0.8536(9)
O17_2 O 0.6277(5) 0.4419(7) 0.3888(5)
H7_2 H 0.7029 0.4518 0.4213
H8_2 H 0.6254 0.3743 0.3423
O18_2 O 0.3995(8) 0.6179(7) 0.4108(7)
H9_2 H 0.3768 0.6982 0.4254
H10_2 H 0.3462 0.5920 0.3512
I2_2 I 0.18272(8) 0.96912(8) 0.94220(7)
I1_2 I 0.81728(8) 0.96912(8) 0.05780(7)
loop_
_geom_bond_atom_site_label_1
_geom_bond_atom_site_label_2
_geom_bond_site_symmetry_1
_geom_bond_site_symmetry_2
H3 O6 1_555 1_555
H4 O6 1_555 1_555
Zn4_2 O7 1_555 1_555
Zn6_2 O9 1_555 1_555
O7 C9 1_555 1_555
O9 C9 1_555 1_555
O11 C10 1_555 1_555
C9 C12 1_555 1_555
C10 O14 1_555 1_555
C11 C10 1_555 1_555
C12 C11 1_555 1_555
C13 C12 1_555 1_555
H11 C13 1_555 1_555
C14 C13 1_555 1_555
C16 C11 1_555 1_555
H12 C16 1_555 1_555
C14 C15 1_555 1_555
C15 C16 1_555 1_555
Zn4 O1 1_555 1_555
Zn6 O2 1_555 1_555
O1 C1 1_555 1_555
O2 C1 1_555 1_555
O3 C2 1_555 1_555
O4 C2 1_555 1_555
C1 C4 1_555 1_555
C2 C3 1_555 1_555
C3 C4 1_555 1_555
C4 C5 1_555 1_555
C5 H5 1_555 1_555
C6 C5 1_555 1_555
C7 C6 1_555 1_555
C8 C3 1_555 1_555
H6 C8 1_555 1_555
O13 Zn4 1_555 1_555
O16 Zn4 1_555 1_555
O17 Zn6 1_555 1_555
H7 O17 1_555 1_555
H8 O17 1_555 1_555
C7 C8 1_555 1_555
H9 O18 1_555 1_555
H10 O18 1_555 1_555
O5 Zn6_2 1_555 1_555
H1 O5 1_555 1_555
H2 O5 1_555 1_555
O12 Zn4_2 1_555 1_555
O15 Zn4_2 1_555 1_555
Zn5 O7_2 1_555 1_555
Zn6_3 O9_2 1_555 1_555
O7_2 C9_2 1_555 1_555
O9_2 C9_2 1_555 1_555
O13 C10_2 1_555 1_555
C9_2 C12_2 1_555 1_555
C10_2 O16 1_555 1_555
C11_2 C10_2 1_555 1_555
C12_2 C11_2 1_555 1_555
C13_2 C12_2 1_555 1_555
H11_2 C13_2 1_555 1_555
C14_2 C13_2 1_555 1_555
C16_2 C11_2 1_555 1_555
C14_2 C15_2 1_555 1_555
C15_2 C16_2 1_555 1_555
Zn5 O1_2 1_555 1_555
Zn6_3 O2_2 1_555 1_555
O1_2 C1_2 1_555 1_555
O2_2 C1_2 1_555 1_555
O12 C2_2 1_555 1_555
O15 C2_2 1_555 1_555
O5_2 Zn6_3 1_555 1_555
H1_2 O5_2 1_555 1_555
H2_2 O5_2 1_555 1_555
O6_2 Zn6_3 1_555 1_555
H3_2 O6_2 1_555 1_555
H4_2 O6_2 1_555 1_555
C1_2 C4_2 1_555 1_555
C2_2 C3_2 1_555 1_555
C3_2 C4_2 1_555 1_555
C4_2 C5_2 1_555 1_555
C5_2 H5_2 1_555 1_555
C6_2 C5_2 1_555 1_555
C7_2 C6_2 1_555 1_555
C8_2 C3_2 1_555 1_555
O17_2 Zn6_3 1_555 1_555
H7_2 O17_2 1_555 1_555
H8_2 O17_2 1_555 1_555
O18_2 Zn6_3 1_555 1_555
H9_2 O18_2 1_555 1_555
H10_2 O18_2 1_555 1_555
C7_2 C8_2 1_555 1_555

#END
