
###############################################################################
#
# This file contains modified crystal structure data generated from the
# MOF subset of the Cambridge Structural Database (CSD) v543 
# hosted by the Cambridge Crystallographic Data Centre (CCDC).
#
# This work is licensed under the Creative Commons
# Attribution-NonCommercial-ShareAlike 4.0 International License.
# To view a copy of this license, visit
# http://creativecommons.org/licenses/by-nc-sa/4.0/
# or send a letter to
# Creative Commons, PO Box 1866, Mountain View, CA 94042, USA.
#
# CIF created using the CSD Python API on 29 September 2022
# The structure has been converted into the P1 space group
# The structure has a 3D framework
# The original CSD entry POHHAX is in the monoclinic crystal system
# The framework has been calculated to contain at least 10.0% void space
# The void calculation uses a probe of radius 1.32A, grid spacing 0.4
#
###############################################################################

data_POHHAX
_chemical_formula_moiety         '(C164 H112 Cd4 N24 O16)n'
_symmetry_cell_setting           triclinic
_symmetry_space_group_name_H-M   'P 1'
_symmetry_Int_Tables_number      1
_space_group_name_Hall           'P 1'
loop_
_symmetry_equiv_pos_site_id
_symmetry_equiv_pos_as_xyz
1 x,y,z
_cell_length_a                   10.390(2)
_cell_length_b                   15.238(3)
_cell_length_c                   28.827(6)
_cell_angle_alpha                90
_cell_angle_beta                 95.33(3)
_cell_angle_gamma                90
_cell_volume                     4544.24
loop_
_atom_site_label
_atom_site_type_symbol
_atom_site_fract_x
_atom_site_fract_y
_atom_site_fract_z
Cd2 Cd 0.16082(5) 0.25177(3) 0.261272(17)
C17 C 0.0861(7) 0.1191(5) 0.8425(2)
H12 H 0.0063 0.1119 0.8255
C18 C 0.2733(9) 0.1646(6) 0.8652(3)
H13 H 0.3505 0.1958 0.8667
C30 C 0.2477(9) 0.1022(6) 0.8948(3)
H21 H 0.3011 0.0826 0.9203
H22 H 0.1355 0.0072 0.9642
N5 N 0.1731(6) 0.1776(4) 0.83209(19)
N6 N 0.1245(6) 0.0719(4) 0.8798(2)
Cd4 Cd 0.16082(5) 0.24823(3) 0.761272(17)
C1 C 0.4008(7) 0.2179(5) 0.2288(3)
C2 C 0.5236(7) 0.1987(5) 0.2076(2)
C3 C 0.6448(6) 0.2214(4) 0.2302(3)
H1 H 0.6482 0.2470 0.2595
C4 C 0.5183(7) 0.1558(6) 0.1662(3)
H2 H 0.4394 0.1367 0.1518
C5 C 0.6309(9) 0.1407(7) 0.1456(4)
H3 H 0.6274 0.1115 0.1172
C6 C 0.7523(7) 0.1692(7) 0.1672(3)
H4 H 0.8267 0.1619 0.1521
C7 C 0.7592(7) 0.2072(5) 0.2103(3)
C8 C 0.0881(7) 0.4065(5) 0.1859(3)
H5 H 0.0350 0.3658 0.1694
C9 C 0.0476(7) 0.5306(5) 0.1307(2)
C10 C 0.1904(8) 0.5284(6) 0.2055(3)
H6 H 0.2203 0.5859 0.2054
C11 C 0.2200(8) 0.4673(5) 0.2391(3)
H7 H 0.2751 0.4756 0.2660
H14 H 0.0070 0.4192 0.0949
C23 C 0.0325(8) 0.6233(5) 0.1290(3)
H17 H 0.0623 0.6581 0.1542
C41 C 0.8892(7) 0.2301(5) 0.2337(3)
N3 N 0.1556(6) 0.3915(4) 0.2266(2)
N4 N 0.1082(6) 0.4893(4) 0.17200(19)
O1 O 0.2969(4) 0.2028(4) 0.20490(18)
O2 O 0.4051(5) 0.2530(4) 0.2681(2)
O3 O 0.9837(5) 0.2120(4) 0.21330(19)
O4 O 0.8929(5) 0.2672(4) 0.2731(2)
N7 N 0.1823(6) 0.1125(4) 0.2934(2)
N8 N 0.1731(6) 0.3224(4) 0.33209(19)
C19 C 0.9991(7) 0.4800(5) 0.0934(3)
C20 C 0.9387(7) 0.5191(5) 0.0537(2)
H15 H 0.9038 0.4847 0.0290
C21 C 0.9306(7) 0.6114(5) 0.0511(2)
C22 C 0.9724(8) 0.6603(5) 0.0889(2)
H16 H 0.9602 0.7208 0.0877
C24 C 0.8712(7) 0.6533(5) 0.0071(2)
H18 H 0.9921 0.7567 0.0094
C12 C 0.1514(7) 0.4638(6) 0.7714(3)
H8 H 0.0879 0.4687 0.7466
C13 C 0.2237(8) 0.5333(5) 0.7894(3)
H9 H 0.2216 0.5915 0.7798
C14 C 0.4034(7) 0.5353(5) 0.8548(3)
C15 C 0.4081(8) 0.5264(6) 0.9017(3)
H10 H 0.3452 0.4946 0.9154
C16 C 0.2712(8) 0.4087(5) 0.8255(3)
H11 H 0.3109 0.3682 0.8463
C25 C 0.9237(7) 0.7307(4) 0.9913(3)
C26 C 0.7673(7) 0.6154(5) 0.9813(2)
H19 H 0.7301 0.5648 0.9921
C27 C 0.7177(7) 0.6519(5) 0.9393(3)
C28 C 0.7751(7) 0.7304(4) 0.9237(3)
H20 H 0.7430 0.7554 0.8955
C29 C 0.8782(7) 0.7702(5) 0.9500(3)
C33 C 0.9735(7) 0.9481(5) 0.8695(3)
H23 H 0.9549 0.9636 0.8384
C34 C 0.4950(8) 0.5814(5) 0.8337(3)
H24 H 0.4896 0.5866 0.8014
C35 C 0.5952(7) 0.6199(5) 0.8612(3)
H25 H 0.6576 0.6512 0.8470
C36 C 0.5094(8) 0.5661(6) 0.9289(3)
H26 H 0.5124 0.5607 0.9612
C37 C 0.6059(7) 0.6132(5) 0.9100(2)
C38 C 0.9170(7) 0.8754(5) 0.8866(3)
H27 H 0.8622 0.8417 0.8664
C40 C 0.9376(6) 0.8502(5) 0.9322(2)
N1 N 0.1823(6) 0.3875(4) 0.7934(2)
N2 N 0.3016(6) 0.4939(4) 0.8262(2)
C1_2 C 0.4008(7) 0.2821(5) 0.7288(3)
C2_2 C 0.5236(7) 0.3013(5) 0.7076(2)
C3_2 C 0.6448(6) 0.2786(4) 0.7302(3)
H1_2 H 0.6482 0.2530 0.7595
C4_2 C 0.5183(7) 0.3442(6) 0.6662(3)
H2_2 H 0.4394 0.3633 0.6518
C5_2 C 0.6309(9) 0.3593(7) 0.6456(4)
H3_2 H 0.6274 0.3885 0.6172
C6_2 C 0.7523(7) 0.3308(7) 0.6672(3)
H4_2 H 0.8267 0.3381 0.6521
C7_2 C 0.7592(7) 0.2928(5) 0.7103(3)
C8_2 C 0.0881(7) 0.0935(5) 0.6859(3)
H5_2 H 0.0350 0.1342 0.6694
C11_2 C 0.2200(8) 0.0327(5) 0.7391(3)
H7_2 H 0.2751 0.0244 0.7660
H14_2 H 0.0070 0.0808 0.5949
C41_2 C 0.8892(7) 0.2699(5) 0.7337(3)
N3_2 N 0.1556(6) 0.1085(4) 0.7266(2)
N4_2 N 0.1082(6) 0.0107(4) 0.67200(19)
O1_2 O 0.2969(4) 0.2972(4) 0.70490(18)
O2_2 O 0.4051(5) 0.2470(4) 0.7681(2)
O3_2 O 0.9837(5) 0.2880(4) 0.71330(19)
O4_2 O 0.8929(5) 0.2328(4) 0.7731(2)
C9_2 C 0.0476(7) 0.9694(5) 0.6307(2)
C10_2 C 0.1904(8) 0.9716(6) 0.7055(3)
H6_2 H 0.2203 0.9141 0.7054
C17_2 C 0.0861(7) 0.3809(5) 0.3425(2)
H12_2 H 0.0063 0.3881 0.3255
C18_2 C 0.2733(9) 0.3354(6) 0.3652(3)
H13_2 H 0.3505 0.3042 0.3667
C23_2 C 0.0325(8) 0.8767(5) 0.6290(3)
H17_2 H 0.0623 0.8419 0.6542
C30_2 C 0.2477(9) 0.3978(6) 0.3948(3)
H21_2 H 0.3011 0.4174 0.4203
C31 C 0.0574(7) 0.5018(5) 0.3978(2)
C32 C 0.0801(10) 0.5261(6) 0.4440(3)
H22_2 H 0.1355 0.4928 0.4642
C39 C 0.0201(10) 0.6006(5) 0.4604(3)
H28 H 0.0374 0.6166 0.4915
N6_2 N 0.1245(6) 0.4281(4) 0.3798(2)
C12_2 C 0.1514(7) 0.0362(6) 0.2714(3)
H8_2 H 0.0879 0.0313 0.2466
H10_2 H 0.3452 0.0054 0.4154
C16_2 C 0.2712(8) 0.0913(5) 0.3255(3)
H11_2 H 0.3109 0.1318 0.3463
C19_2 C 0.9991(7) 0.0200(5) 0.5934(3)
H15_2 H 0.9038 0.0153 0.5290
N2_2 N 0.3016(6) 0.0061(4) 0.3262(2)
C31_2 C 0.0574(7) 0.9982(5) 0.8978(2)
C32_2 C 0.0801(10) 0.9739(6) 0.9440(3)
C39_2 C 0.0201(10) 0.8994(5) 0.9604(3)
H28_2 H 0.0374 0.8834 0.9915
C13_2 C 0.7763(8) 0.0333(5) 0.7106(3)
H9_2 H 0.7784 0.0915 0.7202
C14_2 C 0.5966(7) 0.0353(5) 0.6452(3)
C15_2 C 0.5919(8) 0.0264(6) 0.5983(3)
C20_2 C 0.0613(7) 0.0191(5) 0.4463(2)
C21_2 C 0.0694(7) 0.1114(5) 0.4489(2)
C22_2 C 0.0276(8) 0.1603(5) 0.4111(2)
H16_2 H 0.0398 0.2208 0.4123
C24_2 C 0.1288(7) 0.1533(5) 0.4929(2)
C25_2 C 0.0763(7) 0.2307(4) 0.5087(3)
H18_2 H 0.0079 0.2567 0.4906
C26_2 C 0.2327(7) 0.1154(5) 0.5187(2)
H19_2 H 0.2699 0.0648 0.5079
C27_2 C 0.2823(7) 0.1519(5) 0.5607(3)
C28_2 C 0.2249(7) 0.2304(4) 0.5763(3)
H20_2 H 0.2570 0.2554 0.6045
C29_2 C 0.1218(7) 0.2702(5) 0.5500(3)
C33_2 C 0.0265(7) 0.4481(5) 0.6305(3)
H23_2 H 0.0451 0.4636 0.6616
C34_2 C 0.5050(8) 0.0814(5) 0.6663(3)
H24_2 H 0.5104 0.0866 0.6986
C35_2 C 0.4048(7) 0.1199(5) 0.6388(3)
H25_2 H 0.3424 0.1512 0.6530
C36_2 C 0.4906(8) 0.0661(6) 0.5711(3)
H26_2 H 0.4876 0.0607 0.5388
C37_2 C 0.3941(7) 0.1132(5) 0.5900(2)
C38_2 C 0.0830(7) 0.3754(5) 0.6134(3)
H27_2 H 0.1378 0.3417 0.6336
C40_2 C 0.0624(6) 0.3502(5) 0.5678(2)
C12_3 C 0.8486(7) 0.9638(6) 0.7286(3)
H8_3 H 0.9121 0.9687 0.7534
H10_3 H 0.6548 0.9946 0.5846
C16_3 C 0.7288(8) 0.9087(5) 0.6745(3)
H11_3 H 0.6891 0.8682 0.6537
C19_3 C 0.0009(7) 0.9800(5) 0.4066(3)
H15_3 H 0.0962 0.9847 0.4710
N1_2 N 0.8177(6) 0.8875(4) 0.7066(2)
N2_3 N 0.6984(6) 0.9939(4) 0.6738(2)
Cd3 Cd 0.83918(5) 0.74823(3) 0.738728(17)
O5 O 0.0163(5) 0.7120(4) 0.28670(19)
C9_3 C 0.9524(7) 0.0306(5) 0.3693(2)
C10_3 C 0.8096(8) 0.0284(6) 0.2945(3)
H6_3 H 0.7797 0.0859 0.2946
C17_3 C 0.9139(7) 0.6191(5) 0.6575(2)
H12_3 H 0.9937 0.6119 0.6745
C18_3 C 0.7267(9) 0.6646(6) 0.6348(3)
H13_3 H 0.6495 0.6958 0.6333
C23_3 C 0.9675(8) 0.1233(5) 0.3710(3)
H17_3 H 0.9377 0.1581 0.3458
C30_3 C 0.7523(9) 0.6022(6) 0.6052(3)
H21_3 H 0.6989 0.5826 0.5797
C31_3 C 0.9426(7) 0.4982(5) 0.6022(2)
C32_3 C 0.9199(10) 0.4739(6) 0.5560(3)
H22_3 H 0.8645 0.5072 0.5358
C39_3 C 0.9799(10) 0.3994(5) 0.5396(3)
H28_3 H 0.9626 0.3834 0.5085
N5_2 N 0.8269(6) 0.6776(4) 0.66791(19)
N6_3 N 0.8755(6) 0.5719(4) 0.6202(2)
C1_3 C 0.5992(7) 0.7179(5) 0.2712(3)
C2_3 C 0.4764(7) 0.6987(5) 0.2924(2)
C3_3 C 0.3552(6) 0.7214(4) 0.2698(3)
H1_3 H 0.3518 0.7470 0.2405
C4_3 C 0.4817(7) 0.6558(6) 0.3338(3)
H2_3 H 0.5606 0.6367 0.3482
C5_3 C 0.3691(9) 0.6407(7) 0.3544(4)
H3_3 H 0.3726 0.6115 0.3828
C6_3 C 0.2477(7) 0.6692(7) 0.3328(3)
H4_3 H 0.1733 0.6619 0.3479
C7_3 C 0.2408(7) 0.7072(5) 0.2897(3)
C8_3 C 0.9119(7) 0.9065(5) 0.3141(3)
H5_3 H 0.9650 0.8658 0.3306
C11_3 C 0.7800(8) 0.9673(5) 0.2609(3)
H7_3 H 0.7249 0.9756 0.2340
H14_3 H 0.9930 0.9192 0.4051
C41_3 C 0.1108(7) 0.7301(5) 0.2663(3)
Cd1 Cd 0.83918(5) 0.75177(3) 0.238728(17)
N3_3 N 0.8444(6) 0.8915(4) 0.2734(2)
N4_3 N 0.8918(6) 0.9893(4) 0.32800(19)
O1_3 O 0.7031(4) 0.7028(4) 0.29510(18)
O2_3 O 0.5949(5) 0.7530(4) 0.2319(2)
O4_3 O 0.1071(5) 0.7672(4) 0.2269(2)
N7_2 N 0.8177(6) 0.6125(4) 0.2066(2)
N8_2 N 0.8269(6) 0.8224(4) 0.16791(19)
C12_4 C 0.8486(7) 0.5362(6) 0.2286(3)
H8_4 H 0.9121 0.5313 0.2534
C13_3 C 0.7763(8) 0.4667(5) 0.2106(3)
H9_3 H 0.7784 0.4085 0.2202
C14_3 C 0.5966(7) 0.4647(5) 0.1452(3)
C15_3 C 0.5919(8) 0.4736(6) 0.0983(3)
H10_4 H 0.6548 0.5054 0.0846
C16_4 C 0.7288(8) 0.5913(5) 0.1745(3)
H11_4 H 0.6891 0.6318 0.1537
C25_3 C 0.0763(7) 0.2693(4) 0.0087(3)
C26_3 C 0.2327(7) 0.3846(5) 0.0187(2)
H19_3 H 0.2699 0.4352 0.0079
C27_3 C 0.2823(7) 0.3481(5) 0.0607(3)
C28_3 C 0.2249(7) 0.2696(4) 0.0763(3)
H20_3 H 0.2570 0.2446 0.1045
C29_3 C 0.1218(7) 0.2298(5) 0.0500(3)
C33_3 C 0.0265(7) 0.0519(5) 0.1305(3)
H23_3 H 0.0451 0.0364 0.1616
C34_3 C 0.5050(8) 0.4186(5) 0.1663(3)
H24_3 H 0.5104 0.4134 0.1986
C35_3 C 0.4048(7) 0.3801(5) 0.1388(3)
H25_3 H 0.3424 0.3488 0.1530
C36_3 C 0.4906(8) 0.4339(6) 0.0711(3)
H26_3 H 0.4876 0.4393 0.0388
C37_3 C 0.3941(7) 0.3868(5) 0.0900(2)
C38_3 C 0.0830(7) 0.1246(5) 0.1134(3)
H27_3 H 0.1378 0.1583 0.1336
C40_3 C 0.0624(6) 0.1498(5) 0.0678(2)
N2_4 N 0.6984(6) 0.5061(4) 0.1738(2)
C19_4 C 0.0009(7) 0.5200(5) 0.9066(3)
C20_3 C 0.0613(7) 0.4809(5) 0.9463(2)
H15_4 H 0.0962 0.5153 0.9710
C21_3 C 0.0694(7) 0.3886(5) 0.9489(2)
C22_3 C 0.0276(8) 0.3397(5) 0.9111(2)
H16_3 H 0.0398 0.2792 0.9123
C24_3 C 0.1288(7) 0.3467(5) 0.9929(2)
H18_3 H 0.0079 0.2433 0.9906
O5_2 O 0.0163(5) 0.7880(4) 0.78670(19)
C1_4 C 0.5992(7) 0.7821(5) 0.7712(3)
C2_4 C 0.4764(7) 0.8013(5) 0.7924(2)
C3_4 C 0.3552(6) 0.7786(4) 0.7698(3)
H1_4 H 0.3518 0.7530 0.7405
C4_4 C 0.4817(7) 0.8442(6) 0.8338(3)
H2_4 H 0.5606 0.8633 0.8482
C5_4 C 0.3691(9) 0.8593(7) 0.8544(4)
H3_4 H 0.3726 0.8885 0.8828
C6_4 C 0.2477(7) 0.8308(7) 0.8328(3)
H4_4 H 0.1733 0.8381 0.8479
C7_4 C 0.2408(7) 0.7928(5) 0.7897(3)
C8_4 C 0.9119(7) 0.5935(5) 0.8141(3)
H5_4 H 0.9650 0.6342 0.8306
C9_4 C 0.9524(7) 0.4694(5) 0.8693(2)
C10_4 C 0.8096(8) 0.4716(6) 0.7945(3)
H6_4 H 0.7797 0.4141 0.7946
C11_4 C 0.7800(8) 0.5327(5) 0.7609(3)
H7_4 H 0.7249 0.5244 0.7340
H14_4 H 0.9930 0.5808 0.9051
C23_4 C 0.9675(8) 0.3767(5) 0.8710(3)
H17_4 H 0.9377 0.3419 0.8458
C41_4 C 0.1108(7) 0.7699(5) 0.7663(3)
N3_4 N 0.8444(6) 0.6085(4) 0.7734(2)
N4_4 N 0.8918(6) 0.5107(4) 0.82800(19)
O1_4 O 0.7031(4) 0.7972(4) 0.79510(18)
O2_4 O 0.5949(5) 0.7470(4) 0.7319(2)
O4_4 O 0.1071(5) 0.7328(4) 0.7269(2)
C17_4 C 0.9139(7) 0.8809(5) 0.1575(2)
H12_4 H 0.9937 0.8881 0.1745
C18_4 C 0.7267(9) 0.8354(6) 0.1348(3)
H13_4 H 0.6495 0.8042 0.1333
C30_4 C 0.7523(9) 0.8978(6) 0.1052(3)
H21_4 H 0.6989 0.9174 0.0797
H22_4 H 0.8645 0.9928 0.0358
N6_4 N 0.8755(6) 0.9281(4) 0.1202(2)
C31_4 C 0.9426(7) 0.0018(5) 0.1022(2)
C32_4 C 0.9199(10) 0.0261(6) 0.0560(3)
C39_4 C 0.9799(10) 0.1006(5) 0.0396(3)
H28_4 H 0.9626 0.1166 0.0085
C13_4 C 0.2237(8) 0.9667(5) 0.2894(3)
H9_4 H 0.2216 0.9085 0.2798
C14_4 C 0.4034(7) 0.9647(5) 0.3548(3)
C15_4 C 0.4081(8) 0.9736(6) 0.4017(3)
C20_4 C 0.9387(7) 0.9809(5) 0.5537(2)
C21_4 C 0.9306(7) 0.8886(5) 0.5511(2)
C22_4 C 0.9724(8) 0.8397(5) 0.5889(2)
H16_4 H 0.9602 0.7792 0.5877
C24_4 C 0.8712(7) 0.8467(5) 0.5071(2)
C25_4 C 0.9237(7) 0.7693(4) 0.4913(3)
H18_4 H 0.9921 0.7433 0.5094
C26_4 C 0.7673(7) 0.8846(5) 0.4813(2)
H19_4 H 0.7301 0.9352 0.4921
C27_4 C 0.7177(7) 0.8481(5) 0.4393(3)
C28_4 C 0.7751(7) 0.7696(4) 0.4237(3)
H20_4 H 0.7430 0.7446 0.3955
C29_4 C 0.8782(7) 0.7298(5) 0.4500(3)
C33_4 C 0.9735(7) 0.5519(5) 0.3695(3)
H23_4 H 0.9549 0.5364 0.3384
C34_4 C 0.4950(8) 0.9186(5) 0.3337(3)
H24_4 H 0.4896 0.9134 0.3014
C35_4 C 0.5952(7) 0.8801(5) 0.3612(3)
H25_4 H 0.6576 0.8488 0.3470
C36_4 C 0.5094(8) 0.9339(6) 0.4289(3)
H26_4 H 0.5124 0.9393 0.4612
C37_4 C 0.6059(7) 0.8868(5) 0.4100(2)
C38_4 C 0.9170(7) 0.6246(5) 0.3866(3)
H27_4 H 0.8622 0.6583 0.3664
C40_4 C 0.9376(6) 0.6498(5) 0.4322(2)
loop_
_geom_bond_atom_site_label_1
_geom_bond_atom_site_label_2
_geom_bond_site_symmetry_1
_geom_bond_site_symmetry_2
C17 H12 1_555 1_555
C18 H13 1_555 1_555
C30 C18 1_555 1_555
H21 C30 1_555 1_555
N5 C17 1_555 1_555
N6 C17 1_555 1_555
Cd4 N5 1_555 1_555
C18 N5 1_555 1_555
C30 N6 1_555 1_555
C1 C2 1_555 1_555
C2 C3 1_555 1_555
C3 H1 1_555 1_555
C4 C2 1_555 1_555
H2 C4 1_555 1_555
C5 C4 1_555 1_555
H3 C5 1_555 1_555
C6 C5 1_555 1_555
H4 C6 1_555 1_555
C7 C3 1_555 1_555
C8 H5 1_555 1_555
C10 H6 1_555 1_555
C11 C10 1_555 1_555
H7 C11 1_555 1_555
C23 C9 1_555 1_555
H17 C23 1_555 1_555
C41 C7 1_555 1_555
Cd2 N3 1_555 1_555
N3 C8 1_555 1_555
N4 C8 1_555 1_555
O1 C1 1_555 1_555
O2 C1 1_555 1_555
O3 C41 1_555 1_555
O4 C41 1_555 1_555
N7 Cd2 1_555 1_555
N8 Cd2 1_555 1_555
C6 C7 1_555 1_555
C9 N4 1_555 1_555
C10 N4 1_555 1_555
C11 N3 1_555 1_555
Cd2 O1 1_555 1_555
Cd2 O2 1_555 1_555
C20 C19 1_555 1_555
H15 C20 1_555 1_555
C21 C20 1_555 1_555
C22 C21 1_555 1_555
H16 C22 1_555 1_555
C24 C21 1_555 1_555
C12 H8 1_555 1_555
C13 C12 1_555 1_555
H9 C13 1_555 1_555
C14 C15 1_555 1_555
C15 H10 1_555 1_555
C16 H11 1_555 1_555
H19 C26 1_555 1_555
C27 C26 1_555 1_555
C28 C27 1_555 1_555
H20 C28 1_555 1_555
C29 C25 1_555 1_555
H23 C33 1_555 1_555
C34 C14 1_555 1_555
H24 C34 1_555 1_555
C35 C34 1_555 1_555
H25 C35 1_555 1_555
C36 C15 1_555 1_555
H26 C36 1_555 1_555
C37 C27 1_555 1_555
C38 C33 1_555 1_555
H27 C38 1_555 1_555
C40 C29 1_555 1_555
N1 C12 1_555 1_555
N2 C13 1_555 1_555
Cd4 N1 1_555 1_555
C14 N2 1_555 1_555
C16 N1 1_555 1_555
C16 N2 1_555 1_555
C28 C29 1_555 1_555
C35 C37 1_555 1_555
C36 C37 1_555 1_555
C38 C40 1_555 1_555
C1_2 C2_2 1_555 1_555
C2_2 C3_2 1_555 1_555
C3_2 H1_2 1_555 1_555
C4_2 C2_2 1_555 1_555
H2_2 C4_2 1_555 1_555
C5_2 C4_2 1_555 1_555
H3_2 C5_2 1_555 1_555
C6_2 C5_2 1_555 1_555
H4_2 C6_2 1_555 1_555
C7_2 C3_2 1_555 1_555
C8_2 H5_2 1_555 1_555
H7_2 C11_2 1_555 1_555
C41_2 C7_2 1_555 1_555
Cd4 N3_2 1_555 1_555
N3_2 C8_2 1_555 1_555
N4_2 C8_2 1_555 1_555
O1_2 C1_2 1_555 1_555
O2_2 C1_2 1_555 1_555
O3_2 C41_2 1_555 1_555
O4_2 C41_2 1_555 1_555
C6_2 C7_2 1_555 1_555
C11_2 N3_2 1_555 1_555
Cd4 O1_2 1_555 1_555
Cd4 O2_2 1_555 1_555
C10_2 H6_2 1_555 1_555
C17_2 H12_2 1_555 1_555
C18_2 H13_2 1_555 1_555
C23_2 C9_2 1_555 1_555
H17_2 C23_2 1_555 1_555
C30_2 C18_2 1_555 1_555
H21_2 C30_2 1_555 1_555
C31 C32 1_555 1_555
C32 H22_2 1_555 1_555
C39 C32 1_555 1_555
H28 C39 1_555 1_555
N8 C17_2 1_555 1_555
N6_2 C17_2 1_555 1_555
C18_2 N8 1_555 1_555
C30_2 N6_2 1_555 1_555
C31 N6_2 1_555 1_555
C12_2 H8_2 1_555 1_555
C16_2 H11_2 1_555 1_555
N7 C12_2 1_555 1_555
C16_2 N7 1_555 1_555
C16_2 N2_2 1_555 1_555
C31_2 C32_2 1_555 1_555
C39_2 C32_2 1_555 1_555
H28_2 C39_2 1_555 1_555
H9_2 C13_2 1_555 1_555
C14_2 C15_2 1_555 1_555
C21_2 C20_2 1_555 1_555
C22_2 C21_2 1_555 1_555
H16_2 C22_2 1_555 1_555
C24_2 C21_2 1_555 1_555
C25_2 C24_2 1_555 1_555
H18_2 C25_2 1_555 1_555
C26_2 C24_2 1_555 1_555
H19_2 C26_2 1_555 1_555
C27_2 C26_2 1_555 1_555
C28_2 C27_2 1_555 1_555
H20_2 C28_2 1_555 1_555
C29_2 C25_2 1_555 1_555
H23_2 C33_2 1_555 1_555
C34_2 C14_2 1_555 1_555
H24_2 C34_2 1_555 1_555
C35_2 C34_2 1_555 1_555
H25_2 C35_2 1_555 1_555
C36_2 C15_2 1_555 1_555
H26_2 C36_2 1_555 1_555
C37_2 C27_2 1_555 1_555
C38_2 C33_2 1_555 1_555
H27_2 C38_2 1_555 1_555
C40_2 C29_2 1_555 1_555
C28_2 C29_2 1_555 1_555
C35_2 C37_2 1_555 1_555
C36_2 C37_2 1_555 1_555
C38_2 C40_2 1_555 1_555
C12_3 H8_3 1_555 1_555
C16_3 H11_3 1_555 1_555
N1_2 C12_3 1_555 1_555
Cd3 N1_2 1_555 1_555
C16_3 N1_2 1_555 1_555
C16_3 N2_3 1_555 1_555
C10_3 H6_3 1_555 1_555
C17_3 H12_3 1_555 1_555
C18_3 H13_3 1_555 1_555
C23_3 C9_3 1_555 1_555
H17_3 C23_3 1_555 1_555
C30_3 C18_3 1_555 1_555
H21_3 C30_3 1_555 1_555
C31_3 C32_3 1_555 1_555
C32_3 H22_3 1_555 1_555
C39_3 C32_3 1_555 1_555
H28_3 C39_3 1_555 1_555
N5_2 C17_3 1_555 1_555
N6_3 C17_3 1_555 1_555
Cd3 N5_2 1_555 1_555
C18_3 N5_2 1_555 1_555
C30_3 N6_3 1_555 1_555
C31_3 N6_3 1_555 1_555
C1_3 C2_3 1_555 1_555
C2_3 C3_3 1_555 1_555
C3_3 H1_3 1_555 1_555
C4_3 C2_3 1_555 1_555
H2_3 C4_3 1_555 1_555
C5_3 C4_3 1_555 1_555
H3_3 C5_3 1_555 1_555
C6_3 C5_3 1_555 1_555
H4_3 C6_3 1_555 1_555
C7_3 C3_3 1_555 1_555
C8_3 H5_3 1_555 1_555
H7_3 C11_3 1_555 1_555
C41_3 C7_3 1_555 1_555
Cd1 N3_3 1_555 1_555
N3_3 C8_3 1_555 1_555
N4_3 C8_3 1_555 1_555
O1_3 C1_3 1_555 1_555
O2_3 C1_3 1_555 1_555
O5 C41_3 1_555 1_555
O4_3 C41_3 1_555 1_555
N7_2 Cd1 1_555 1_555
N8_2 Cd1 1_555 1_555
C6_3 C7_3 1_555 1_555
C11_3 N3_3 1_555 1_555
Cd1 O1_3 1_555 1_555
Cd1 O2_3 1_555 1_555
C12_4 H8_4 1_555 1_555
C13_3 C12_4 1_555 1_555
H9_3 C13_3 1_555 1_555
C14_3 C15_3 1_555 1_555
C15_3 H10_4 1_555 1_555
C16_4 H11_4 1_555 1_555
H19_3 C26_3 1_555 1_555
C27_3 C26_3 1_555 1_555
C28_3 C27_3 1_555 1_555
H20_3 C28_3 1_555 1_555
C29_3 C25_3 1_555 1_555
H23_3 C33_3 1_555 1_555
C34_3 C14_3 1_555 1_555
H24_3 C34_3 1_555 1_555
C35_3 C34_3 1_555 1_555
H25_3 C35_3 1_555 1_555
C36_3 C15_3 1_555 1_555
H26_3 C36_3 1_555 1_555
C37_3 C27_3 1_555 1_555
C38_3 C33_3 1_555 1_555
H27_3 C38_3 1_555 1_555
C40_3 C29_3 1_555 1_555
N7_2 C12_4 1_555 1_555
N2_4 C13_3 1_555 1_555
C14_3 N2_4 1_555 1_555
C16_4 N7_2 1_555 1_555
C16_4 N2_4 1_555 1_555
C28_3 C29_3 1_555 1_555
C35_3 C37_3 1_555 1_555
C36_3 C37_3 1_555 1_555
C38_3 C40_3 1_555 1_555
C20_3 C19_4 1_555 1_555
H15_4 C20_3 1_555 1_555
C21_3 C20_3 1_555 1_555
C22_3 C21_3 1_555 1_555
H16_3 C22_3 1_555 1_555
C24_3 C21_3 1_555 1_555
C1_4 C2_4 1_555 1_555
C2_4 C3_4 1_555 1_555
C3_4 H1_4 1_555 1_555
C4_4 C2_4 1_555 1_555
H2_4 C4_4 1_555 1_555
C5_4 C4_4 1_555 1_555
H3_4 C5_4 1_555 1_555
C6_4 C5_4 1_555 1_555
H4_4 C6_4 1_555 1_555
C7_4 C3_4 1_555 1_555
C8_4 H5_4 1_555 1_555
C10_4 H6_4 1_555 1_555
C11_4 C10_4 1_555 1_555
H7_4 C11_4 1_555 1_555
C23_4 C9_4 1_555 1_555
H17_4 C23_4 1_555 1_555
C41_4 C7_4 1_555 1_555
Cd3 N3_4 1_555 1_555
N3_4 C8_4 1_555 1_555
N4_4 C8_4 1_555 1_555
O1_4 C1_4 1_555 1_555
O2_4 C1_4 1_555 1_555
O5_2 C41_4 1_555 1_555
O4_4 C41_4 1_555 1_555
C6_4 C7_4 1_555 1_555
C9_4 N4_4 1_555 1_555
C10_4 N4_4 1_555 1_555
C11_4 N3_4 1_555 1_555
Cd3 O1_4 1_555 1_555
Cd3 O2_4 1_555 1_555
C17_4 H12_4 1_555 1_555
C18_4 H13_4 1_555 1_555
C30_4 C18_4 1_555 1_555
H21_4 C30_4 1_555 1_555
N8_2 C17_4 1_555 1_555
N6_4 C17_4 1_555 1_555
C18_4 N8_2 1_555 1_555
C30_4 N6_4 1_555 1_555
C31_4 C32_4 1_555 1_555
C39_4 C32_4 1_555 1_555
H28_4 C39_4 1_555 1_555
H9_4 C13_4 1_555 1_555
C14_4 C15_4 1_555 1_555
C21_4 C20_4 1_555 1_555
C22_4 C21_4 1_555 1_555
H16_4 C22_4 1_555 1_555
C24_4 C21_4 1_555 1_555
C25_4 C24_4 1_555 1_555
H18_4 C25_4 1_555 1_555
C26_4 C24_4 1_555 1_555
H19_4 C26_4 1_555 1_555
C27_4 C26_4 1_555 1_555
C28_4 C27_4 1_555 1_555
H20_4 C28_4 1_555 1_555
C29_4 C25_4 1_555 1_555
H23_4 C33_4 1_555 1_555
C34_4 C14_4 1_555 1_555
H24_4 C34_4 1_555 1_555
C35_4 C34_4 1_555 1_555
H25_4 C35_4 1_555 1_555
C36_4 C15_4 1_555 1_555
H26_4 C36_4 1_555 1_555
C37_4 C27_4 1_555 1_555
C38_4 C33_4 1_555 1_555
H27_4 C38_4 1_555 1_555
C40_4 C29_4 1_555 1_555
C28_4 C29_4 1_555 1_555
C35_4 C37_4 1_555 1_555
C36_4 C37_4 1_555 1_555
C38_4 C40_4 1_555 1_555

#END
