
###############################################################################
#
# This file contains modified crystal structure data generated from the
# MOF subset of the Cambridge Structural Database (CSD) v543 
# hosted by the Cambridge Crystallographic Data Centre (CCDC).
#
# This work is licensed under the Creative Commons
# Attribution-NonCommercial-ShareAlike 4.0 International License.
# To view a copy of this license, visit
# http://creativecommons.org/licenses/by-nc-sa/4.0/
# or send a letter to
# Creative Commons, PO Box 1866, Mountain View, CA 94042, USA.
#
# CIF created using the CSD Python API on 29 September 2022
# The structure has been converted into the P1 space group
# The structure has a 3D framework
# The original CSD entry POKVIW is in the monoclinic crystal system
# The framework has been calculated to contain at least 10.0% void space
# The void calculation uses a probe of radius 1.32A, grid spacing 0.4
#
###############################################################################

data_POKVIW
_chemical_formula_moiety         '(C48 H32 Cu6 Er4 N16 O37)n'
_symmetry_cell_setting           triclinic
_symmetry_space_group_name_H-M   'P 1'
_symmetry_Int_Tables_number      1
_space_group_name_Hall           'P 1'
loop_
_symmetry_equiv_pos_site_id
_symmetry_equiv_pos_as_xyz
1 x,y,z
_cell_length_a                   6.0607(5)
_cell_length_b                   23.4943(19)
_cell_length_c                   13.3613(9)
_cell_angle_alpha                90
_cell_angle_beta                 112.654(3)
_cell_angle_gamma                90
_cell_volume                     1755.76
loop_
_atom_site_label
_atom_site_type_symbol
_atom_site_fract_x
_atom_site_fract_y
_atom_site_fract_z
Cu2 Cu 0.0000 0.5000 -0.0000
O15 O 0.0048(7) 0.43811(19) 0.1482(4)
O16 O 0.2903(7) 0.52905(16) 0.1136(3)
N10 N 0.1835(7) 0.25643(19) 0.5405(3)
O20 O 0.3119(6) 0.33723(16) 0.4315(3)
O21 O 0.0376(9) 0.3754(2) 0.5596(4)
C19 C 0.1264(9) 0.2177(2) 0.5991(4)
C20 C 0.4166(9) 0.2702(2) 0.5736(4)
C21 C 0.4725(9) 0.3038(2) 0.4889(4)
H11 H 0.027(10) 0.397(2) 0.507(3)
H12 H 0.178(6) 0.381(3) 0.609(3)
C22 C 0.2982(9) 0.1931(2) 0.6908(4)
C23 C 0.5812(9) 0.2520(2) 0.6730(4)
O24 O 0.6654(6) 0.29373(16) 0.4788(3)
N11 N 0.5226(7) 0.21178(18) 0.7300(3)
H16 H 0.2554 0.1632 0.7252
C24 C 0.8263(9) 0.2786(2) 0.7326(4)
Er5 Er 0.90012(4) 0.329817(11) 0.390768(17)
Er6 Er 0.90012(4) 0.170183(11) 0.890768(17)
O25 O 0.8640(8) 0.32668(17) 0.7049(3)
O26 O 0.9696(6) 0.24972(17) 0.8096(3)
C10 C 0.6422(11) 0.6418(3) 0.0735(5)
H7 H 0.6744 0.6714 0.1233
N6 N 0.7810(8) 0.55964(19) 0.0147(4)
C13 C 0.4613(10) 0.4927(2) 0.1445(4)
C14 C 0.4335(9) 0.4438(2) 0.0677(4)
C15 C 0.8205(11) 0.6016(2) 0.0862(5)
Cu2_2 Cu 1.0000 0.5000 -0.0000
O14 O 0.6366(8) 0.49548(19) 0.2295(4)
C16 C 0.6104(9) 0.4036(2) 0.0771(4)
H9 H 0.9666 0.6042 0.1446
C18 C 0.8599(10) 0.4069(2) 0.1648(4)
N8 N 0.5703(9) 0.3605(2) 0.0064(4)
O18 O 0.9023(7) 0.37391(18) 0.2442(4)
N9 N 0.5226(7) 0.28822(18) 0.2300(3)
O22 O 0.6089(8) 0.40044(19) 0.3595(4)
O23 O 0.9696(6) 0.25028(17) 0.3096(3)
H13 H 0.624(12) 0.4291(18) 0.324(5)
H14 H 0.491(8) 0.394(3) 0.377(5)
H15 H 0.9675 0.2068 0.5783
O4 O 0.0376(9) 0.1246(2) 0.0596(4)
N1 N 0.1835(7) 0.24357(19) 0.0405(3)
H3 H 0.027(10) 0.103(2) 0.007(3)
H4 H 0.178(6) 0.119(3) 0.109(3)
C3 C 0.1264(9) 0.2823(2) 0.0991(4)
C4 C 0.4166(9) 0.2298(2) 0.0736(4)
C6 C 0.2982(9) 0.3069(2) 0.1908(4)
C7 C 0.5812(9) 0.2480(2) 0.1730(4)
H6 H 0.2554 0.3368 0.2252
C9 C 0.8263(9) 0.2214(2) 0.2326(4)
O9 O 0.8640(8) 0.17332(17) 0.2049(3)
O2 O 0.3119(6) 0.16277(16) 0.9315(3)
C2 C 0.4725(9) 0.1962(2) 0.9889(4)
O7 O 0.0048(7) 0.06189(19) 0.6482(4)
Cu1 Cu -0.0000 0.0000 0.5000
O11 O 0.6654(6) 0.20627(16) 0.9788(3)
O1 O 0.9023(7) 0.12609(18) 0.7442(4)
O3 O 0.6089(8) 0.09956(19) 0.8595(4)
C1 C 0.8599(10) 0.0931(2) 0.6648(4)
H1 H 0.624(12) 0.0709(18) 0.824(5)
H2 H 0.491(8) 0.106(3) 0.877(5)
C5 C 0.6104(9) 0.0964(2) 0.5771(4)
Cu1_2 Cu 1.0000 0.0000 0.5000
N3 N 0.5703(9) 0.1395(2) 0.5064(4)
C8 C 0.4335(9) 0.0562(2) 0.5677(4)
O8 O 0.7097(7) 0.02905(16) 0.3864(3)
C10_2 C 0.3578(11) 0.1418(3) 0.4265(5)
C11 C 0.4613(10) 0.0073(2) 0.6445(4)
H7_2 H 0.3256 0.1714 0.3767
O10 O 0.6366(8) 0.00452(19) 0.7295(4)
N6_2 N 0.2190(8) 0.05964(19) 0.4853(4)
C15_2 C 0.1795(11) 0.1016(2) 0.4138(5)
H9_2 H 0.0334 0.1042 0.3554
Cu2_3 Cu 0.0000 0.5000 1.0000
N7 N 0.2190(8) 0.44036(19) 0.9853(4)
Er1 Er 0.09988(4) 0.670183(11) 0.609232(17)
O1_2 O 0.0977(7) 0.62609(18) 0.7558(4)
O3_2 O 0.3911(8) 0.59956(19) 0.6405(4)
O5 O 0.3346(6) 0.70627(16) 0.5212(3)
O6 O 0.0304(6) 0.74972(17) 0.6904(3)
N2 N 0.4774(7) 0.71178(18) 0.7700(3)
C1_2 C 0.1401(10) 0.5931(2) 0.8352(4)
H1_2 H 0.376(12) 0.5709(18) 0.676(5)
H2_2 H 0.509(8) 0.606(3) 0.623(5)
C5_2 C 0.3896(9) 0.5964(2) 0.9229(4)
H5 H 0.0325 0.7932 0.4217
N3_2 N 0.4297(9) 0.6395(2) 0.9936(4)
C8_2 C 0.5665(9) 0.5562(2) 0.9323(4)
C11_2 C 0.5387(10) 0.5073(2) 0.8555(4)
C12 C 0.1795(11) 0.3984(2) 0.9138(5)
O10_2 O 0.3634(8) 0.50452(19) 0.7705(4)
H8 H 0.0334 0.3958 0.8554
Cu2_4 Cu 1.0000 0.5000 1.0000
O13 O 0.7097(7) 0.47095(16) 0.8864(3)
C17 C 0.3578(11) 0.3582(3) 0.9265(5)
O17 O 0.9952(7) 0.56189(19) 0.8518(4)
H10 H 0.3256 0.3286 0.8767
O2_2 O 0.6881(6) 0.66277(16) 0.5685(3)
O4_2 O 0.9624(9) 0.6246(2) 0.4404(4)
N1_2 N 0.8165(7) 0.74357(19) 0.4595(3)
C2_2 C 0.5275(9) 0.6962(2) 0.5111(4)
H3_2 H 0.973(10) 0.603(2) 0.493(3)
H4_2 H 0.822(6) 0.619(3) 0.391(3)
C3_2 C 0.8736(9) 0.7823(2) 0.4009(4)
C4_2 C 0.5834(9) 0.7298(2) 0.4264(4)
C6_2 C 0.7018(9) 0.8069(2) 0.3092(4)
C7_2 C 0.4188(9) 0.7480(2) 0.3270(4)
H6_2 H 0.7446 0.8368 0.2748
C9_2 C 0.1737(9) 0.7214(2) 0.2674(4)
O9_2 O 0.1360(8) 0.67332(17) 0.2951(3)
N5 N 0.4774(7) 0.78822(18) 0.2700(3)
Er3 Er 0.09988(4) 0.829817(11) 0.109232(17)
O12 O 0.0304(6) 0.75028(17) 0.1904(3)
Cu1_3 Cu 0.0000 1.0000 0.5000
Cu1_4 Cu 1.0000 1.0000 0.5000
N4 N 0.7810(8) 0.94036(19) 0.5147(4)
C12_2 C 0.8205(11) 0.8984(2) 0.5862(5)
H8_2 H 0.9666 0.8958 0.6446
C13_2 C 0.5387(10) 0.9927(2) 0.3555(4)
C14_2 C 0.5665(9) 0.9438(2) 0.4323(4)
O13_2 O 0.2903(7) 0.97095(16) 0.6136(3)
O14_2 O 0.3634(8) 0.99548(19) 0.2705(4)
C16_2 C 0.3896(9) 0.9036(2) 0.4229(4)
C17_2 C 0.6422(11) 0.8582(3) 0.5735(5)
C18_2 C 0.1401(10) 0.9069(2) 0.3352(4)
N8_2 N 0.4297(9) 0.8605(2) 0.4936(4)
H10_2 H 0.6744 0.8286 0.6233
O18_2 O 0.0977(7) 0.87391(18) 0.2558(4)
O19 O 0.3346(6) 0.79373(16) 0.0212(3)
O22_2 O 0.3911(8) 0.90044(19) 0.1405(4)
H13_2 H 0.376(12) 0.9291(18) 0.176(5)
H14_2 H 0.509(8) 0.894(3) 0.123(5)
O15_2 O 0.9952(7) 0.93811(19) 0.3518(4)
O20_2 O 0.6881(6) 0.83723(16) 0.0685(3)
C21_2 C 0.5275(9) 0.8038(2) 0.0111(4)
N10_2 N 0.8165(7) 0.75643(19) 0.9595(3)
O21_2 O 0.9624(9) 0.8754(2) 0.9404(4)
C19_2 C 0.8736(9) 0.7177(2) 0.9009(4)
C20_2 C 0.5834(9) 0.7702(2) 0.9264(4)
H11_2 H 0.973(10) 0.897(2) 0.993(3)
H12_2 H 0.822(6) 0.881(3) 0.891(3)
C22_2 C 0.7018(9) 0.6931(2) 0.8092(4)
C23_2 C 0.4188(9) 0.7520(2) 0.8270(4)
H16_2 H 0.7446 0.6632 0.7748
C24_2 C 0.1737(9) 0.7786(2) 0.7674(4)
O25_2 O 0.1360(8) 0.82668(17) 0.7951(3)
H5_2 H 0.9675 0.2932 0.0783
H15_2 H 0.0325 0.7068 0.9217
loop_
_geom_bond_atom_site_label_1
_geom_bond_atom_site_label_2
_geom_bond_site_symmetry_1
_geom_bond_site_symmetry_2
O15 Cu2 1_555 1_555
O16 Cu2 1_555 1_555
C19 N10 1_555 1_555
C20 N10 1_555 1_555
C21 O20 1_555 1_555
H11 O21 1_555 1_555
H12 O21 1_555 1_555
C22 C19 1_555 1_555
C23 C20 1_555 1_555
O24 C21 1_555 1_555
N11 C22 1_555 1_555
H16 C22 1_555 1_555
C24 C23 1_555 1_555
Er5 O24 1_555 1_555
Er6 N11 1_555 1_555
O25 C24 1_555 1_555
O26 C24 1_555 1_555
C20 C21 1_555 1_555
C23 N11 1_555 1_555
Er6 O26 1_555 1_555
O16 C13 1_555 1_555
H7 C10 1_555 1_555
C13 C14 1_555 1_555
C15 C10 1_555 1_555
Cu2_2 N6 1_555 1_555
O14 C13 1_555 1_555
C16 C14 1_555 1_555
H9 C15 1_555 1_555
C18 C16 1_555 1_555
N8 C16 1_555 1_555
O18 C18 1_555 1_555
Er5 O18 1_555 1_555
N9 Er5 1_555 1_555
O22 Er5 1_555 1_555
O23 Er5 1_555 1_555
H13 O22 1_555 1_555
H14 O22 1_555 1_555
N6 C15 1_555 1_555
H3 O4 1_555 1_555
H4 O4 1_555 1_555
C3 N1 1_555 1_555
C4 N1 1_555 1_555
C6 C3 1_555 1_555
C7 C4 1_555 1_555
H6 C6 1_555 1_555
C9 C7 1_555 1_555
O9 C9 1_555 1_555
N9 C6 1_555 1_555
O23 C9 1_555 1_555
C7 N9 1_555 1_555
C2 O2 1_555 1_555
O7 Cu1 1_555 1_555
O11 C2 1_555 1_555
Er6 O11 1_555 1_555
Er6 O1 1_555 1_555
O1 C1 1_555 1_555
O3 Er6 1_555 1_555
H1 O3 1_555 1_555
H2 O3 1_555 1_555
C5 C1 1_555 1_555
Cu1_2 O8 1_555 1_555
N3 C5 1_555 1_555
C8 C5 1_555 1_555
C10_2 N3 1_555 1_555
C11 C8 1_555 1_555
H7_2 C10_2 1_555 1_555
O10 C11 1_555 1_555
N6_2 C8 1_555 1_555
C15_2 C10_2 1_555 1_555
Cu1 N6_2 1_555 1_555
H9_2 C15_2 1_555 1_555
N6_2 C15_2 1_555 1_555
N7 Cu2_3 1_555 1_555
Er1 O1_2 1_555 1_555
O1_2 C1_2 1_555 1_555
O3_2 Er1 1_555 1_555
O5 Er1 1_555 1_555
O6 Er1 1_555 1_555
N2 Er1 1_555 1_555
H1_2 O3_2 1_555 1_555
H2_2 O3_2 1_555 1_555
C5_2 C1_2 1_555 1_555
N3_2 C5_2 1_555 1_555
C8_2 C5_2 1_555 1_555
C11_2 C8_2 1_555 1_555
C12 N7 1_555 1_555
O10_2 C11_2 1_555 1_555
H8 C12 1_555 1_555
O13 C11_2 1_555 1_555
C17 C12 1_555 1_555
O17 Cu2_4 1_555 1_555
H10 C17 1_555 1_555
Cu2_4 O13 1_555 1_555
C2_2 O2_2 1_555 1_555
H3_2 O4_2 1_555 1_555
H4_2 O4_2 1_555 1_555
C3_2 N1_2 1_555 1_555
C4_2 N1_2 1_555 1_555
C6_2 C3_2 1_555 1_555
C7_2 C4_2 1_555 1_555
H6_2 C6_2 1_555 1_555
C9_2 C7_2 1_555 1_555
O9_2 C9_2 1_555 1_555
O5 C2_2 1_555 1_555
N5 C6_2 1_555 1_555
Er3 N5 1_555 1_555
O12 C9_2 1_555 1_555
C2_2 C4_2 1_555 1_555
C7_2 N5 1_555 1_555
Er3 O12 1_555 1_555
N4 Cu1_4 1_555 1_555
C12_2 N4 1_555 1_555
H8_2 C12_2 1_555 1_555
C13_2 C14_2 1_555 1_555
C14_2 N4 1_555 1_555
O14_2 C13_2 1_555 1_555
C16_2 C14_2 1_555 1_555
C17_2 C12_2 1_555 1_555
C18_2 C16_2 1_555 1_555
N8_2 C16_2 1_555 1_555
H10_2 C17_2 1_555 1_555
O18_2 C18_2 1_555 1_555
Er3 O18_2 1_555 1_555
O19 Er3 1_555 1_555
O22_2 Er3 1_555 1_555
H13_2 O22_2 1_555 1_555
H14_2 O22_2 1_555 1_555
Cu1_3 O13_2 1_555 1_555
C17_2 N8_2 1_555 1_555
O15_2 Cu1_4 1_555 1_555
C21_2 O20_2 1_555 1_555
O19 C21_2 1_555 1_555
C19_2 N10_2 1_555 1_555
C20_2 N10_2 1_555 1_555
H11_2 O21_2 1_555 1_555
H12_2 O21_2 1_555 1_555
C22_2 C19_2 1_555 1_555
C23_2 C20_2 1_555 1_555
N2 C22_2 1_555 1_555
H16_2 C22_2 1_555 1_555
C24_2 C23_2 1_555 1_555
O25_2 C24_2 1_555 1_555
O6 C24_2 1_555 1_555
C23_2 N2 1_555 1_555

#END
