
###############################################################################
#
# This file contains modified crystal structure data generated from the
# MOF subset of the Cambridge Structural Database (CSD) v543 
# hosted by the Cambridge Crystallographic Data Centre (CCDC).
#
# This work is licensed under the Creative Commons
# Attribution-NonCommercial-ShareAlike 4.0 International License.
# To view a copy of this license, visit
# http://creativecommons.org/licenses/by-nc-sa/4.0/
# or send a letter to
# Creative Commons, PO Box 1866, Mountain View, CA 94042, USA.
#
# CIF created using the CSD Python API on 29 September 2022
# The structure has been converted into the P1 space group
# The structure has a 3D framework
# The original CSD entry PONVEW is in the triclinic crystal system
# The framework has been calculated to contain at least 10.0% void space
# The void calculation uses a probe of radius 1.32A, grid spacing 0.4
#
###############################################################################

data_PONVEW
_chemical_formula_moiety         '(C100 H56 N8 O22 Zn2)n'
_symmetry_cell_setting           triclinic
_symmetry_space_group_name_H-M   'P 1'
_symmetry_Int_Tables_number      1
_space_group_name_Hall           'P 1'
loop_
_symmetry_equiv_pos_site_id
_symmetry_equiv_pos_as_xyz
1 x,y,z
_cell_length_a                   12.8654(9)
_cell_length_b                   14.0735(7)
_cell_length_c                   14.3395(10)
_cell_angle_alpha                89.625(5)
_cell_angle_beta                 69.380(6)
_cell_angle_gamma                89.523(5)
_cell_volume                     2429.9
loop_
_atom_site_label
_atom_site_type_symbol
_atom_site_fract_x
_atom_site_fract_y
_atom_site_fract_z
_atom_site_U_iso_or_equiv
_atom_site_thermal_displace_type
N5 N 0.0290(8) 0.4111(6) 0.2171(6) 0.0386 Uani
N6 N 0.2929(7) 0.4586(5) 0.4047(6) 0.0307 Uani
O14 O 0.1264(8) 0.2836(6) 0.1319(7) 0.0568 Uani
C52 C 0.1907(8) 0.4470(7) 0.4703(8) 0.0375 Uani
H29 H 0.1770 0.4600 0.5385 0.0450 Uiso
C53 C 0.1043(10) 0.4169(8) 0.4428(9) 0.0471 Uani
H30 H 0.0328 0.4076 0.4918 0.0570 Uiso
C54 C 0.1222(9) 0.4003(7) 0.3431(8) 0.0377 Uani
C55 C 0.2259(10) 0.4138(7) 0.2751(8) 0.0402 Uani
H31 H 0.2405 0.4039 0.2062 0.0480 Uiso
C56 C 0.3121(10) 0.4430(7) 0.3089(8) 0.0395 Uani
H32 H 0.3849 0.4515 0.2620 0.0480 Uiso
C57 C 0.0280(11) 0.3688(8) 0.3121(8) 0.0478 Uani
H34 H 0.0310 0.2987 0.3057 0.0580 Uiso
C58 C 0.0768(11) 0.3587(8) 0.1314(10) 0.0505 Uani
C59 C 0.0642(9) 0.3956(7) 0.0388(9) 0.0381 Uani
C60 C 0.0070(8) 0.4844(7) 0.0433(7) 0.0325 Uani
Zn7 Zn 0.41614(8) 0.50000(7) 0.45188(7) 0.0238 Uani
N1 N 0.9710(8) 0.5889(6) 0.7829(6) 0.0386 Uani
N4 N 0.7071(7) 0.5414(5) 0.5953(6) 0.0307 Uani
Zn1 Zn 0.58386(8) 0.50000(7) 0.54812(7) 0.0238 Uani
O1 O 0.0759(6) 0.0538(5) 0.8425(5) 0.0330 Uani
O2 O 0.1849(6) 0.0501(5) 0.9350(5) 0.0346 Uani
O3 O 0.5446(6) 0.3647(5) 0.6009(5) 0.0366 Uani
O4 O 0.4271(6) 0.3698(5) 0.5192(5) 0.0413 Uani
O5 O 0.6780(6) 0.4487(5) 0.4133(5) 0.0380 Uani
O6 O 0.5530(6) 0.4575(5) 0.3369(5) 0.0363 Uani
O7 O 0.9800(6) 0.1240(5) 0.0629(5) 0.0403 Uani
O10 O 0.8736(8) 0.7164(6) 0.8681(7) 0.0568 Uani
C14 C 0.1661(8) 0.0701(6) 0.8580(7) 0.0295 Uani
C15 C 0.2526(8) 0.1228(6) 0.7754(7) 0.0287 Uani
C16 C 0.2170(9) 0.1841(7) 0.7201(7) 0.0331 Uani
H8 H 0.1405 0.1852 0.7279 0.0400 Uiso
C17 C 0.2908(8) 0.2468(7) 0.6507(7) 0.0321 Uani
H9 H 0.2638 0.2868 0.6106 0.0380 Uiso
C18 C 0.3954(8) 0.2503(6) 0.6411(7) 0.0275 Uani
C19 C 0.4443(8) 0.1787(7) 0.6884(7) 0.0319 Uani
C20 C 0.3709(8) 0.1166(6) 0.7579(6) 0.0253 Uani
C21 C 0.4183(9) 0.0456(7) 0.8040(8) 0.0411 Uani
H10 H 0.3707 0.0025 0.8506 0.0490 Uiso
C22 C 0.5270(9) 0.0393(8) 0.7825(8) 0.0443 Uani
C23 C 0.6006(9) 0.0998(7) 0.7128(8) 0.0388 Uani
H12 H 0.6783 0.0925 0.6972 0.0460 Uiso
C24 C 0.5614(8) 0.1688(8) 0.6673(8) 0.0411 Uani
H13 H 0.6117 0.2108 0.6214 0.0500 Uiso
C25 C 0.4655(9) 0.3331(7) 0.5803(7) 0.0349 Uani
C26 C 0.6436(9) 0.4351(6) 0.3418(8) 0.0331 Uani
C27 C 0.7239(8) 0.3771(7) 0.2544(7) 0.0316 Uani
C28 C 0.7836(8) 0.3071(7) 0.2776(7) 0.0322 Uani
H14 H 0.7831 0.3023 0.3439 0.0380 Uiso
C29 C 0.8465(8) 0.2410(7) 0.2057(7) 0.0333 Uani
H15 H 0.8914 0.1949 0.2225 0.0400 Uiso
C30 C 0.8426(8) 0.2436(6) 0.1121(7) 0.0282 Uani
C31 C 0.7861(8) 0.3203(7) 0.0829(7) 0.0301 Uani
C34 C 0.6808(10) 0.4751(8) 0.0266(8) 0.0455 Uani
H18 H 0.6457 0.5272 0.0069 0.0540 Uiso
C35 C 0.6742(9) 0.4654(7) 0.1255(8) 0.0362 Uani
H19 H 0.6345 0.5114 0.1732 0.0440 Uiso
C36 C 0.7263(7) 0.3873(6) 0.1560(6) 0.0262 Uani
C37 C 0.9011(9) 0.1591(7) 0.0464(7) 0.0311 Uani
C38 C 0.8093(8) 0.5530(7) 0.5297(8) 0.0375 Uani
H20 H 0.8230 0.5400 0.4615 0.0450 Uiso
C39 C 0.8957(10) 0.5831(8) 0.5572(9) 0.0471 Uani
H21 H 0.9672 0.5924 0.5082 0.0570 Uiso
C40 C 0.8778(9) 0.5997(7) 0.6569(8) 0.0377 Uani
C41 C 0.7741(10) 0.5862(7) 0.7249(8) 0.0402 Uani
H22 H 0.7595 0.5961 0.7938 0.0480 Uiso
C42 C 0.6879(10) 0.5570(7) 0.6911(8) 0.0395 Uani
H23 H 0.6151 0.5485 0.7380 0.0480 Uiso
C43 C 0.9720(11) 0.6312(8) 0.6879(8) 0.0478 Uani
H25 H 0.9690 0.7013 0.6943 0.0580 Uiso
C44 C 0.9232(11) 0.6413(8) 0.8686(10) 0.0505 Uani
C45 C 0.9358(9) 0.6044(7) 0.9612(9) 0.0381 Uani
C46 C 0.9930(8) 0.5156(7) 0.9567(7) 0.0325 Uani
O28 O 0.5729(6) 0.6302(5) 0.4808(5) 0.0413 Uani
O30 O 0.4470(6) 0.5425(5) 0.6631(5) 0.0363 Uani
H1 H 0.0033 0.9970 0.7136 0.0490 Uiso
H11 H 0.5557 0.9927 0.8152 0.0530 Uiso
O32 O 0.0200(6) 0.8760(5) 0.9371(5) 0.0403 Uani
O26 O 0.8151(6) 0.9499(5) 0.0650(5) 0.0346 Uani
H37 H 0.9967 0.0030 0.2864 0.0490 Uiso
H48 H 0.4443 0.0073 0.1848 0.0530 Uiso
O17 O 0.9241(6) 0.9462(5) 0.1575(5) 0.0330 Uani
O19 O 0.4554(6) 0.6353(5) 0.3991(5) 0.0366 Uani
O21 O 0.3220(6) 0.5513(5) 0.5867(5) 0.0380 Uani
C77 C 0.8339(8) 0.9299(6) 0.1420(7) 0.0295 Uani
C78 C 0.7474(8) 0.8772(6) 0.2246(7) 0.0287 Uani
C79 C 0.7830(9) 0.8159(7) 0.2799(7) 0.0331 Uani
H45 H 0.8595 0.8148 0.2721 0.0400 Uiso
C80 C 0.7092(8) 0.7532(7) 0.3493(7) 0.0321 Uani
H46 H 0.7362 0.7132 0.3894 0.0380 Uiso
C81 C 0.6046(8) 0.7497(6) 0.3589(7) 0.0275 Uani
C82 C 0.5557(8) 0.8213(7) 0.3116(7) 0.0319 Uani
C83 C 0.6291(8) 0.8834(6) 0.2421(6) 0.0253 Uani
C84 C 0.5817(9) 0.9544(7) 0.1960(8) 0.0411 Uani
H47 H 0.6293 0.9975 0.1494 0.0490 Uiso
C85 C 0.4730(9) 0.9607(8) 0.2175(8) 0.0443 Uani
C86 C 0.3994(9) 0.9002(7) 0.2872(8) 0.0388 Uani
H49 H 0.3217 0.9075 0.3028 0.0460 Uiso
C87 C 0.4386(8) 0.8312(8) 0.3327(8) 0.0411 Uani
H50 H 0.3883 0.7892 0.3786 0.0500 Uiso
C88 C 0.5345(9) 0.6669(7) 0.4197(7) 0.0349 Uani
C89 C 0.3564(9) 0.5649(6) 0.6582(8) 0.0331 Uani
C90 C 0.2761(8) 0.6229(7) 0.7456(7) 0.0316 Uani
C91 C 0.2164(8) 0.6929(7) 0.7224(7) 0.0322 Uani
H51 H 0.2169 0.6977 0.6561 0.0380 Uiso
C92 C 0.1535(8) 0.7590(7) 0.7943(7) 0.0333 Uani
H52 H 0.1086 0.8051 0.7775 0.0400 Uiso
C93 C 0.1574(8) 0.7564(6) 0.8879(7) 0.0282 Uani
C94 C 0.2139(8) 0.6797(7) 0.9171(7) 0.0301 Uani
C97 C 0.3192(10) 0.5249(8) 0.9734(8) 0.0455 Uani
H55 H 0.3543 0.4728 0.9931 0.0540 Uiso
C98 C 0.3258(9) 0.5346(7) 0.8745(8) 0.0362 Uani
H56 H 0.3655 0.4886 0.8268 0.0440 Uiso
C99 C 0.2737(7) 0.6127(6) 0.8440(6) 0.0262 Uani
C100 C 0.0989(9) 0.8409(7) 0.9536(7) 0.0311 Uani
O9 O 0.0440(7) 0.4542(6) 0.7011(6) 0.0511 Uani
C4 C 0.0183(10) 0.5003(8) 0.7774(7) 0.0428 Uani
H24 H 0.0430 0.6143 0.6347 0.0580 Uiso
C47 C 0.0330(9) 0.4649(8) 0.8682(8) 0.0375 Uani
C50 C 0.0885(9) 0.3794(8) 0.8673(8) 0.0418 Uani
H28 H 0.1165 0.3447 0.8068 0.0500 Uiso
C62 C 0.1043(10) 0.3431(8) 0.9508(9) 0.0482 Uani
H35 H 0.1415 0.2841 0.9486 0.0580 Uiso
Zn13 Zn 0.06997(8) 0.99898(7) 0.06401(7) 0.0233 Uani
N2 N 0.8698(7) 0.9566(6) 0.8306(6) 0.0337 Uani
N3 N 0.6961(8) 0.8755(6) 0.5740(7) 0.0404 Uani
O11 O 0.5571(7) 0.7943(6) 0.6899(6) 0.0508 Uani
O12 O 0.8379(6) 0.9609(6) 0.4623(6) 0.0476 Uani
C1 C 0.9364(10) 0.9618(8) 0.7320(8) 0.0409 Uani
C2 C 0.9084(10) 0.9171(9) 0.6594(8) 0.0454 Uani
H2 H 0.9583 0.9198 0.5924 0.0550 Uiso
C3 C 0.8127(9) 0.8698(7) 0.6800(7) 0.0344 Uani
C5 C 0.7777(9) 0.9076(7) 0.8507(9) 0.0396 Uani
H3 H 0.7311 0.9028 0.9187 0.0480 Uiso
C6 C 0.7805(9) 0.8209(7) 0.6008(8) 0.0396 Uani
H4 H 0.8475 0.8123 0.5405 0.0480 Uiso
H5 H 0.7508 0.7572 0.6251 0.0480 Uiso
C7 C 0.5864(10) 0.8502(7) 0.6196(9) 0.0420 Uani
C8 C 0.5020(9) 0.9036(7) 0.5865(8) 0.0389 Uani
C9 C 0.5424(8) 0.9757(7) 0.5123(7) 0.0299 Uani
C10 C 0.6524(9) 0.9987(7) 0.4720(7) 0.0340 Uani
C11 C 0.7371(10) 0.9476(8) 0.5014(8) 0.0408 Uani
C12 C 0.3918(9) 0.8816(8) 0.6302(8) 0.0434 Uani
H6 H 0.3681 0.8349 0.6813 0.0520 Uiso
C48 C 0.7429(10) 0.8630(7) 0.7825(8) 0.0394 Uani
H26 H 0.6751 0.8288 0.8024 0.0470 Uiso
C75 C 0.3152(9) 0.9292(8) 0.5978(9) 0.0448 Uani
H43 H 0.2392 0.9117 0.6243 0.0540 Uiso
O34 O 0.1344(7) 0.8673(5) 0.0204(6) 0.0460 Uani
C95 C 0.2097(9) 0.6664(7) 0.0171(7) 0.0333 Uani
H53 H 0.1700 0.7110 0.0666 0.0400 Uiso
C96 C 0.2602(9) 0.5928(8) 0.0430(8) 0.0404 Uani
H54 H 0.2558 0.5865 0.1103 0.0480 Uiso
C49 C 0.8957(10) 0.6569(8) 0.0492(9) 0.0482 Uani
H27 H 0.8585 0.7159 0.0514 0.0580 Uiso
O13 O 0.9560(7) 0.5458(6) 0.2989(6) 0.0511 Uani
C51 C 0.9817(10) 0.4997(8) 0.2226(7) 0.0428 Uani
H33 H 0.9570 0.3857 0.3653 0.0580 Uiso
C61 C 0.9670(9) 0.5351(8) 0.1318(8) 0.0375 Uani
C63 C 0.9115(9) 0.6206(8) 0.1327(8) 0.0418 Uani
H36 H 0.8835 0.6553 0.1932 0.0500 Uiso
O8 O 0.8656(7) 0.1327(5) 0.9796(6) 0.0460 Uani
C32 C 0.7903(9) 0.3336(7) 0.9829(7) 0.0333 Uani
H16 H 0.8300 0.2890 0.9334 0.0400 Uiso
C33 C 0.7398(9) 0.4072(8) 0.9570(8) 0.0404 Uani
H17 H 0.7442 0.4135 0.8897 0.0480 Uiso
Zn10 Zn 0.93003(8) 0.00102(7) 0.93599(7) 0.0233 Uani
C13 C 0.6848(9) 0.0708(8) 0.4022(9) 0.0448 Uani
H7 H 0.7608 0.0883 0.3757 0.0540 Uiso
N7 N 0.1302(7) 0.0434(6) 0.1694(6) 0.0337 Uani
N8 N 0.3039(8) 0.1245(6) 0.4260(7) 0.0404 Uani
O15 O 0.4429(7) 0.2057(6) 0.3101(6) 0.0508 Uani
O16 O 0.1621(6) 0.0391(6) 0.5377(6) 0.0476 Uani
C64 C 0.0636(10) 0.0382(8) 0.2680(8) 0.0409 Uani
C65 C 0.0916(10) 0.0829(9) 0.3406(8) 0.0454 Uani
H38 H 0.0417 0.0802 0.4076 0.0550 Uiso
C66 C 0.1873(9) 0.1302(7) 0.3200(7) 0.0344 Uani
C67 C 0.2223(9) 0.0924(7) 0.1493(9) 0.0396 Uani
H39 H 0.2689 0.0972 0.0813 0.0480 Uiso
C68 C 0.2195(9) 0.1791(7) 0.3992(8) 0.0396 Uani
H40 H 0.1525 0.1877 0.4595 0.0480 Uiso
H41 H 0.2492 0.2428 0.3749 0.0480 Uiso
C69 C 0.4136(10) 0.1498(7) 0.3804(9) 0.0420 Uani
C70 C 0.4980(9) 0.0964(7) 0.4135(8) 0.0389 Uani
C71 C 0.4576(8) 0.0243(7) 0.4877(7) 0.0299 Uani
C72 C 0.3476(9) 0.0013(7) 0.5280(7) 0.0340 Uani
C73 C 0.2629(10) 0.0524(8) 0.4986(8) 0.0408 Uani
C74 C 0.6082(9) 0.1184(8) 0.3698(8) 0.0434 Uani
H42 H 0.6319 0.1651 0.3187 0.0520 Uiso
C76 C 0.2571(10) 0.1370(7) 0.2175(8) 0.0394 Uani
H44 H 0.3249 0.1712 0.1976 0.0470 Uiso
loop_
_atom_site_aniso_label
_atom_site_aniso_U_11
_atom_site_aniso_U_22
_atom_site_aniso_U_33
_atom_site_aniso_U_23
_atom_site_aniso_U_13
_atom_site_aniso_U_12
N5 0.045 0.041 0.039 0.003 -0.026 -0.009
N6 0.042 0.024 0.031 0.004 -0.019 -0.006
O14 0.07 0.045 0.07 0.002 -0.043 0.012
C52 0.027 0.039 0.048 -0.01 -0.015 0
C53 0.045 0.044 0.057 0.014 -0.024 -0.011
C54 0.043 0.029 0.047 -0.002 -0.023 0
C55 0.06 0.029 0.04 0.002 -0.028 -0.003
C56 0.044 0.036 0.036 -0.004 -0.011 0.005
C57 0.064 0.043 0.045 0.01 -0.03 -0.002
C58 0.069 0.037 0.061 0.003 -0.042 -0.004
C59 0.032 0.035 0.058 -0.002 -0.029 -0.002
C60 0.028 0.041 0.03 -0.001 -0.012 0.002
Zn7 0.0252 0.0211 0.0219 -0.0033 -0.0044 -0.0009
N1 0.045 0.041 0.039 0.003 -0.026 -0.009
N4 0.042 0.024 0.031 0.004 -0.019 -0.006
Zn1 0.0252 0.0211 0.0219 -0.0033 -0.0044 -0.0009
O1 0.039 0.03 0.028 -0.008 -0.009 -0.005
O2 0.036 0.036 0.027 0.005 -0.005 -0.004
O3 0.033 0.029 0.04 -0.003 -0.003 -0.005
O4 0.053 0.032 0.036 0.007 -0.012 -0.002
O5 0.044 0.039 0.022 -0.01 0 -0.015
O6 0.032 0.035 0.039 -0.016 -0.009 0.012
O7 0.046 0.02 0.048 0.001 -0.008 0.004
O10 0.07 0.045 0.07 0.002 -0.043 0.012
C14 0.034 0.022 0.025 -0.007 -0.001 0.006
C15 0.03 0.024 0.03 -0.008 -0.008 0.001
C16 0.04 0.024 0.04 0.003 -0.02 -0.007
C17 0.037 0.031 0.03 0.003 -0.014 0.002
C18 0.031 0.016 0.028 0.001 -0.001 0
C19 0.032 0.033 0.028 -0.015 -0.007 0.006
C20 0.037 0.009 0.028 -0.001 -0.009 -0.006
C21 0.039 0.029 0.052 -0.003 -0.012 0.003
C22 0.041 0.041 0.05 -0.005 -0.015 0.01
C23 0.031 0.039 0.043 0 -0.009 0.006
C24 0.018 0.051 0.048 0.01 -0.004 0
C25 0.04 0.024 0.035 -0.004 -0.006 0.002
C26 0.035 0.018 0.042 -0.003 -0.008 -0.005
C27 0.033 0.021 0.038 -0.002 -0.009 -0.001
C28 0.03 0.033 0.032 -0.003 -0.009 0
C29 0.03 0.03 0.039 -0.003 -0.011 -0.003
C30 0.035 0.014 0.031 0.001 -0.006 0.001
C31 0.033 0.026 0.032 -0.014 -0.012 -0.001
C34 0.049 0.041 0.045 0.001 -0.015 0.014
C35 0.048 0.023 0.039 -0.009 -0.017 0.005
C36 0.025 0.026 0.024 0 -0.004 -0.006
C37 0.036 0.021 0.035 -0.001 -0.011 0.008
C38 0.027 0.039 0.048 -0.01 -0.015 0
C39 0.045 0.044 0.057 0.014 -0.024 -0.011
C40 0.043 0.029 0.047 -0.002 -0.023 0
C41 0.06 0.029 0.04 0.002 -0.028 -0.003
C42 0.044 0.036 0.036 -0.004 -0.011 0.005
C43 0.064 0.043 0.045 0.01 -0.03 -0.002
C44 0.069 0.037 0.061 0.003 -0.042 -0.004
C45 0.032 0.035 0.058 -0.002 -0.029 -0.002
C46 0.028 0.041 0.03 -0.001 -0.012 0.002
O28 0.053 0.032 0.036 0.007 -0.012 -0.002
O30 0.032 0.035 0.039 -0.016 -0.009 0.012
O32 0.046 0.02 0.048 0.001 -0.008 0.004
O26 0.036 0.036 0.027 0.005 -0.005 -0.004
O17 0.039 0.03 0.028 -0.008 -0.009 -0.005
O19 0.033 0.029 0.04 -0.003 -0.003 -0.005
O21 0.044 0.039 0.022 -0.01 0 -0.015
C77 0.034 0.022 0.025 -0.007 -0.001 0.006
C78 0.03 0.024 0.03 -0.008 -0.008 0.001
C79 0.04 0.024 0.04 0.003 -0.02 -0.007
C80 0.037 0.031 0.03 0.003 -0.014 0.002
C81 0.031 0.016 0.028 0.001 -0.001 0
C82 0.032 0.033 0.028 -0.015 -0.007 0.006
C83 0.037 0.009 0.028 -0.001 -0.009 -0.006
C84 0.039 0.029 0.052 -0.003 -0.012 0.003
C85 0.041 0.041 0.05 -0.005 -0.015 0.01
C86 0.031 0.039 0.043 0 -0.009 0.006
C87 0.018 0.051 0.048 0.01 -0.004 0
C88 0.04 0.024 0.035 -0.004 -0.006 0.002
C89 0.035 0.018 0.042 -0.003 -0.008 -0.005
C90 0.033 0.021 0.038 -0.002 -0.009 -0.001
C91 0.03 0.033 0.032 -0.003 -0.009 0
C92 0.03 0.03 0.039 -0.003 -0.011 -0.003
C93 0.035 0.014 0.031 0.001 -0.006 0.001
C94 0.033 0.026 0.032 -0.014 -0.012 -0.001
C97 0.049 0.041 0.045 0.001 -0.015 0.014
C98 0.048 0.023 0.039 -0.009 -0.017 0.005
C99 0.025 0.026 0.024 0 -0.004 -0.006
C100 0.036 0.021 0.035 -0.001 -0.011 0.008
O9 0.046 0.063 0.041 -0.006 -0.011 -0.001
C4 0.053 0.043 0.026 -0.004 -0.006 -0.003
C47 0.031 0.043 0.044 -0.001 -0.02 -0.004
C50 0.045 0.04 0.037 -0.008 -0.01 -0.002
C62 0.049 0.034 0.072 -0.014 -0.034 0.003
Zn13 0.0251 0.0195 0.0222 -0.0041 -0.0044 0.0006
N2 0.04 0.031 0.032 0.001 -0.015 -0.005
N3 0.041 0.036 0.054 0.003 -0.029 -0.001
O11 0.057 0.051 0.053 0.007 -0.03 -0.003
O12 0.029 0.059 0.055 -0.003 -0.015 -0.004
C1 0.048 0.043 0.036 -0.001 -0.02 -0.006
C2 0.042 0.064 0.029 -0.012 -0.011 0.005
C3 0.041 0.034 0.032 -0.004 -0.018 0.014
C5 0.042 0.034 0.052 0.001 -0.028 -0.005
C6 0.049 0.033 0.041 -0.004 -0.021 0.006
C7 0.057 0.027 0.05 -0.004 -0.029 0.004
C8 0.041 0.036 0.041 -0.005 -0.016 0.001
C9 0.038 0.027 0.027 -0.006 -0.014 -0.002
C10 0.035 0.035 0.035 -0.011 -0.016 0.008
C11 0.045 0.038 0.048 -0.004 -0.027 0.004
C12 0.042 0.047 0.045 0.011 -0.02 -0.017
C48 0.044 0.029 0.049 0.007 -0.021 -0.005
C75 0.033 0.045 0.054 -0.001 -0.012 -0.008
O34 0.058 0.021 0.053 -0.013 -0.012 0.002
C95 0.041 0.03 0.028 -0.007 -0.011 -0.002
C96 0.045 0.048 0.029 0 -0.014 0.003
C49 0.049 0.034 0.072 -0.014 -0.034 0.003
O13 0.046 0.063 0.041 -0.006 -0.011 -0.001
C51 0.053 0.043 0.026 -0.004 -0.006 -0.003
C61 0.031 0.043 0.044 -0.001 -0.02 -0.004
C63 0.045 0.04 0.037 -0.008 -0.01 -0.002
O8 0.058 0.021 0.053 -0.013 -0.012 0.002
C32 0.041 0.03 0.028 -0.007 -0.011 -0.002
C33 0.045 0.048 0.029 0 -0.014 0.003
Zn10 0.0251 0.0195 0.0222 -0.0041 -0.0044 0.0006
C13 0.033 0.045 0.054 -0.001 -0.012 -0.008
N7 0.04 0.031 0.032 0.001 -0.015 -0.005
N8 0.041 0.036 0.054 0.003 -0.029 -0.001
O15 0.057 0.051 0.053 0.007 -0.03 -0.003
O16 0.029 0.059 0.055 -0.003 -0.015 -0.004
C64 0.048 0.043 0.036 -0.001 -0.02 -0.006
C65 0.042 0.064 0.029 -0.012 -0.011 0.005
C66 0.041 0.034 0.032 -0.004 -0.018 0.014
C67 0.042 0.034 0.052 0.001 -0.028 -0.005
C68 0.049 0.033 0.041 -0.004 -0.021 0.006
C69 0.057 0.027 0.05 -0.004 -0.029 0.004
C70 0.041 0.036 0.041 -0.005 -0.016 0.001
C71 0.038 0.027 0.027 -0.006 -0.014 -0.002
C72 0.035 0.035 0.035 -0.011 -0.016 0.008
C73 0.045 0.038 0.048 -0.004 -0.027 0.004
C74 0.042 0.047 0.045 0.011 -0.02 -0.017
C76 0.044 0.029 0.049 0.007 -0.021 -0.005
loop_
_geom_bond_atom_site_label_1
_geom_bond_atom_site_label_2
_geom_bond_site_symmetry_1
_geom_bond_site_symmetry_2
N6 C52 1_555 1_555
O14 C58 1_555 1_555
C52 H29 1_555 1_555
C53 C52 1_555 1_555
H30 C53 1_555 1_555
C54 C53 1_555 1_555
C55 C54 1_555 1_555
H31 C55 1_555 1_555
C56 N6 1_555 1_555
H32 C56 1_555 1_555
C57 N5 1_555 1_555
H34 C57 1_555 1_555
C58 N5 1_555 1_555
C59 C58 1_555 1_555
Zn7 N6 1_555 1_555
C54 C57 1_555 1_555
C55 C56 1_555 1_555
C59 C60 1_555 1_555
N4 Zn1 1_555 1_555
Zn1 O3 1_555 1_555
O1 C14 1_555 1_555
O2 C14 1_555 1_555
O3 C25 1_555 1_555
O4 C25 1_555 1_555
O5 Zn1 1_555 1_555
O6 C26 1_555 1_555
O7 C37 1_555 1_555
O10 C44 1_555 1_555
C14 C15 1_555 1_555
C15 C16 1_555 1_555
C16 H8 1_555 1_555
C17 C16 1_555 1_555
H9 C17 1_555 1_555
C18 C17 1_555 1_555
C19 C18 1_555 1_555
C20 C15 1_555 1_555
C21 C20 1_555 1_555
H10 C21 1_555 1_555
C22 C21 1_555 1_555
C23 C22 1_555 1_555
H12 C23 1_555 1_555
C24 C19 1_555 1_555
H13 C24 1_555 1_555
C25 C18 1_555 1_555
C26 O5 1_555 1_555
C27 C26 1_555 1_555
C28 C27 1_555 1_555
H14 C28 1_555 1_555
C29 C28 1_555 1_555
H15 C29 1_555 1_555
C30 C29 1_555 1_555
C31 C30 1_555 1_555
H18 C34 1_555 1_555
C35 C34 1_555 1_555
H19 C35 1_555 1_555
C36 C27 1_555 1_555
C37 C30 1_555 1_555
C38 N4 1_555 1_555
H20 C38 1_555 1_555
C39 C38 1_555 1_555
H21 C39 1_555 1_555
C40 C39 1_555 1_555
C41 C40 1_555 1_555
H22 C41 1_555 1_555
C42 N4 1_555 1_555
H23 C42 1_555 1_555
C43 N1 1_555 1_555
H25 C43 1_555 1_555
C44 N1 1_555 1_555
C45 C44 1_555 1_555
C46 C45 1_555 1_555
Zn7 O4 1_555 1_555
O28 Zn1 1_555 1_555
O30 Zn1 1_555 1_555
O6 Zn7 1_555 1_555
C19 C20 1_555 1_555
C23 C24 1_555 1_555
C31 C36 1_555 1_555
C35 C36 1_555 1_555
C40 C43 1_555 1_555
C41 C42 1_555 1_555
Zn7 O19 1_555 1_555
O26 C77 1_555 1_555
O19 C88 1_555 1_555
O28 C88 1_555 1_555
O21 Zn7 1_555 1_555
O30 C89 1_555 1_555
O32 C100 1_555 1_555
C77 O17 1_555 1_555
C78 C77 1_555 1_555
C79 C78 1_555 1_555
H45 C79 1_555 1_555
C80 C79 1_555 1_555
H46 C80 1_555 1_555
C81 C80 1_555 1_555
C82 C81 1_555 1_555
C83 C78 1_555 1_555
C84 C83 1_555 1_555
H47 C84 1_555 1_555
C85 C84 1_555 1_555
C86 C85 1_555 1_555
H49 C86 1_555 1_555
C87 C82 1_555 1_555
H50 C87 1_555 1_555
C88 C81 1_555 1_555
C89 O21 1_555 1_555
C90 C89 1_555 1_555
C91 C90 1_555 1_555
H51 C91 1_555 1_555
C92 C91 1_555 1_555
H52 C92 1_555 1_555
C93 C92 1_555 1_555
C94 C93 1_555 1_555
H55 C97 1_555 1_555
C98 C97 1_555 1_555
H56 C98 1_555 1_555
C99 C90 1_555 1_555
C100 C93 1_555 1_555
C82 C83 1_555 1_555
C86 C87 1_555 1_555
C94 C99 1_555 1_555
C98 C99 1_555 1_555
O9 C4 1_555 1_555
C4 C47 1_555 1_555
C50 C47 1_555 1_555
H28 C50 1_555 1_555
C62 C50 1_555 1_555
H35 C62 1_555 1_555
N3 C6 1_555 1_555
O11 C7 1_555 1_555
O12 C11 1_555 1_555
C1 N2 1_555 1_555
C2 C1 1_555 1_555
H2 C2 1_555 1_555
C3 C2 1_555 1_555
C5 N2 1_555 1_555
H3 C5 1_555 1_555
C6 C3 1_555 1_555
H4 C6 1_555 1_555
H5 C6 1_555 1_555
C7 N3 1_555 1_555
C8 C7 1_555 1_555
C9 C8 1_555 1_555
C10 C9 1_555 1_555
C11 N3 1_555 1_555
C12 C8 1_555 1_555
H6 C12 1_555 1_555
C48 C3 1_555 1_555
H26 C48 1_555 1_555
C75 C12 1_555 1_555
H43 C75 1_555 1_555
O34 Zn13 1_555 1_555
C5 C48 1_555 1_555
C10 C11 1_555 1_555
H53 C95 1_555 1_555
C96 C95 1_555 1_555
H54 C96 1_555 1_555
H27 C49 1_555 1_555
O13 C51 1_555 1_555
C51 C61 1_555 1_555
C63 C49 1_555 1_555
H36 C63 1_555 1_555
C61 C63 1_555 1_555
H16 C32 1_555 1_555
C33 C32 1_555 1_555
H17 C33 1_555 1_555
Zn10 O8 1_555 1_555
H7 C13 1_555 1_555
N7 C64 1_555 1_555
N8 C68 1_555 1_555
O15 C69 1_555 1_555
O16 C73 1_555 1_555
C65 C64 1_555 1_555
H38 C65 1_555 1_555
C66 C65 1_555 1_555
C67 N7 1_555 1_555
H39 C67 1_555 1_555
C68 C66 1_555 1_555
H40 C68 1_555 1_555
H41 C68 1_555 1_555
C69 N8 1_555 1_555
C70 C69 1_555 1_555
C72 C71 1_555 1_555
C73 N8 1_555 1_555
C74 C13 1_555 1_555
H42 C74 1_555 1_555
C76 C66 1_555 1_555
H44 C76 1_555 1_555
C67 C76 1_555 1_555
C70 C71 1_555 1_555
C70 C74 1_555 1_555
C72 C73 1_555 1_555

#END
