
###############################################################################
#
# This file contains modified crystal structure data generated from the
# MOF subset of the Cambridge Structural Database (CSD) v543 
# hosted by the Cambridge Crystallographic Data Centre (CCDC).
#
# This work is licensed under the Creative Commons
# Attribution-NonCommercial-ShareAlike 4.0 International License.
# To view a copy of this license, visit
# http://creativecommons.org/licenses/by-nc-sa/4.0/
# or send a letter to
# Creative Commons, PO Box 1866, Mountain View, CA 94042, USA.
#
# CIF created using the CSD Python API on 29 September 2022
# The structure has been converted into the P1 space group
# The structure has a 3D framework
# The original CSD entry POPDUW is in the triclinic crystal system
# The framework has been calculated to contain at least 10.0% void space
# The void calculation uses a probe of radius 1.32A, grid spacing 0.4
#
###############################################################################

data_POPDUW
_chemical_formula_moiety         '(C100 H94 N12 O20 Zn4)n'
_symmetry_cell_setting           triclinic
_symmetry_space_group_name_H-M   'P 1'
_symmetry_Int_Tables_number      1
_space_group_name_Hall           'P 1'
loop_
_symmetry_equiv_pos_site_id
_symmetry_equiv_pos_as_xyz
1 x,y,z
_cell_length_a                   11.196(2)
_cell_length_b                   14.812(3)
_cell_length_c                   19.266(4)
_cell_angle_alpha                89.72(3)
_cell_angle_beta                 87.65(3)
_cell_angle_gamma                68.28(3)
_cell_volume                     2965.47
loop_
_atom_site_label
_atom_site_type_symbol
_atom_site_fract_x
_atom_site_fract_y
_atom_site_fract_z
O6 O 0.1764(3) 0.2088(2) 0.7769(2)
O7 O 0.0585(2) 0.61539(18) 0.72885(14)
O8 O 0.0612(3) 0.5841(2) 0.84191(16)
C17 C 0.0658(3) 0.0675(2) 0.75496(19)
H17 H 0.1436 0.0554 0.7305
C20 C 0.0595(4) 0.2341(3) 0.7759(2)
C26 C 0.0324(4) 0.4081(3) 0.77889(19)
H20 H 0.1145 0.3884 0.7961
C28 C 0.0316(4) 0.5755(3) 0.7820(2)
Zn7 Zn 0.16534(4) 0.69498(3) 0.72252(2)
O1 O 0.0694(3) 0.82464(17) 0.75628(15)
O2 O 0.1983(3) 0.8837(2) 0.69723(18)
N3 N 0.1775(3) 0.6974(2) 0.61792(17)
N4 N 0.1095(4) 0.7016(3) 0.51104(18)
N5 N 0.3330(3) 0.6152(2) 0.76239(17)
N6 N 0.4983(3) 0.5679(3) 0.83118(18)
C18 C 0.0193(3) 0.9933(2) 0.76229(19)
C19 C 0.1034(4) 0.8933(3) 0.7347(2)
C30 C 0.0753(4) 0.7175(3) 0.5796(2)
C31 C 0.2845(4) 0.6675(3) 0.5718(2)
C32 C 0.4143(4) 0.6416(3) 0.5842(3)
H24 H 0.4432 0.6407 0.6289
C33 C 0.4981(5) 0.6173(3) 0.5267(3)
H25 H 0.5858 0.5992 0.5328
C34 C 0.4556(6) 0.6191(4) 0.4604(3)
H26 H 0.5157 0.6023 0.4233
C35 C 0.3279(6) 0.6447(4) 0.4473(3)
H27 H 0.3000 0.6459 0.4024
C36 C 0.2422(5) 0.6687(3) 0.5047(2)
C37 C 0.0252(6) 0.6985(4) 0.4552(2)
H28 H 0.0502 0.7239 0.4129
C38 C 0.0336(6) 0.5959(4) 0.4422(3)
H30 H 0.1212 0.5563 0.4274
H32 H 0.0489 0.5521 0.5435
C40 C 0.3810(5) 0.7469(3) 0.8190(3)
H34 H 0.3536 0.7841 0.7777
H35 H 0.4592 0.7522 0.8334
H36 H 0.3154 0.7714 0.8553
C41 C 0.4035(4) 0.6436(3) 0.8046(2)
C42 C 0.3859(3) 0.5140(3) 0.7615(2)
C43 C 0.4896(4) 0.4843(3) 0.8051(2)
C44 C 0.5619(4) 0.3866(3) 0.8154(3)
H37 H 0.6304 0.3667 0.8449
C45 C 0.5267(5) 0.3211(3) 0.7795(3)
H38 H 0.5734 0.2550 0.7848
C46 C 0.4239(5) 0.3498(3) 0.7356(3)
H39 H 0.4037 0.3027 0.7124
C47 C 0.3509(4) 0.4471(3) 0.7259(2)
H40 H 0.2817 0.4667 0.6968
C48 C 0.5899(5) 0.5731(4) 0.8824(3)
H41 H 0.6305 0.6171 0.8658
H42 H 0.6567 0.5093 0.8868
C49 C 0.5244(7) 0.6081(5) 0.9542(3)
H43 H 0.5893 0.6102 0.9853
H44 H 0.4630 0.6741 0.9498
C50 C 0.4562(7) 0.5484(5) 0.9869(3)
H45 H 0.4008 0.5375 0.9532
C62 C 0.0598(4) 0.2408(4) 0.3916(2)
H61 H 0.0601 0.2220 0.3439
H62 H 0.0984 0.2887 0.3942
H63 H 0.1080 0.1849 0.4179
H69 H 0.0630 0.2607 0.5320
H71 H 0.0217 0.4039 0.5953
C72 C 0.0052(6) 0.4492(4) 0.4942(3)
H73 H 0.0934 0.4101 0.4801
H86 H 0.5984 0.4150 0.9745
N7 N 0.4263(3) 0.1256(2) 0.13063(16)
N8 N 0.5913(3) 0.0596(3) 0.05603(19)
C51 C 0.6195(4) 0.0012(3) 0.1781(3)
H50 H 0.6553 0.0383 0.2054
C52 C 0.5454(4) 0.0623(3) 0.1224(2)
C53 C 0.3924(4) 0.1664(3) 0.0653(2)
C54 C 0.2776(4) 0.2358(3) 0.0436(2)
H51 H 0.2080 0.2642 0.0747
C58 C 0.4957(4) 0.1254(3) 0.0182(2)
C60 C 0.8194(4) 0.0454(3) 0.0311(2)
H57 H 0.8260 0.0634 0.0787
H58 H 0.7913 0.1041 0.0036
Zn3 Zn 0.31139(4) 0.15922(3) 0.21706(2)
O13 O 0.2244(3) 0.07191(19) 0.24518(14)
O14 O 0.1560(3) 0.1066(2) 0.13920(15)
O15 O 0.4303(3) 0.1437(2) 0.29607(15)
H87 H 0.4287 0.1973 0.3080
C84 C 0.1602(3) 0.0637(3) 0.1940(2)
H94 H 0.417(5) 0.110(3) 0.3295(15)
O24 O 0.2209(2) 0.30071(17) 0.22335(13)
H48 H 0.5638 0.9797 0.2072
H49 H 0.6878 0.9458 0.1580
C59 C 0.7211(4) 0.9966(4) 0.0283(3)
H55 H 0.7511 0.9372 0.0549
C61 C 0.9505(4) 0.9765(3) 0.0029(2)
H60 H 0.9815 0.9209 0.0333
O20 O 0.3279(4) 0.3359(2) 0.30761(19)
C85 C 0.0983(3) 0.9889(2) 0.20201(18)
C86 C 0.1633(4) 0.8974(3) 0.1731(2)
H88 H 0.2410 0.8850 0.1485
C87 C 0.1153(4) 0.8238(3) 0.1801(2)
H89 H 0.1605 0.7631 0.1600
C88 C 0.0003(3) 0.8405(2) 0.21690(19)
C93 C 0.0199(4) 0.6616(2) 0.23532(19)
C94 C 0.1415(4) 0.6314(3) 0.2622(2)
H91 H 0.1773 0.6770 0.2727
C95 C 0.2098(4) 0.5338(3) 0.2735(2)
H92 H 0.2908 0.5145 0.2920
C96 C 0.1590(4) 0.4642(2) 0.25771(19)
C97 C 0.0353(4) 0.4939(2) 0.23209(19)
C99 C 0.2431(4) 0.3583(3) 0.2649(2)
H46 H 0.4016 0.5850 0.0255
N11 N 0.6670(3) 0.3848(2) 0.23761(17)
N12 N 0.5017(3) 0.4321(3) 0.16882(18)
C73 C 0.6190(5) 0.2531(3) 0.1810(3)
H74 H 0.6464 0.2159 0.2223
H75 H 0.5408 0.2478 0.1666
H76 H 0.6846 0.2286 0.1447
C74 C 0.5965(4) 0.3564(3) 0.1954(2)
C75 C 0.6141(3) 0.4860(3) 0.2385(2)
C76 C 0.5104(4) 0.5157(3) 0.1949(2)
C77 C 0.4381(4) 0.6134(3) 0.1846(3)
H77 H 0.3696 0.6333 0.1551
C78 C 0.4733(5) 0.6789(3) 0.2205(3)
H78 H 0.4266 0.7450 0.2152
C79 C 0.5761(5) 0.6502(3) 0.2644(3)
H79 H 0.5963 0.6973 0.2876
C80 C 0.6491(4) 0.5529(3) 0.2741(2)
H80 H 0.7183 0.5333 0.3032
C81 C 0.4101(5) 0.4269(4) 0.1176(3)
H81 H 0.3695 0.3829 0.1342
H82 H 0.3433 0.4907 0.1132
C82 C 0.4756(7) 0.3919(5) 0.0458(3)
H83 H 0.4107 0.3898 0.0147
H84 H 0.5370 0.3259 0.0502
C83 C 0.5438(7) 0.4516(5) 0.0131(3)
H85 H 0.5992 0.4625 0.0468
Zn10 Zn 0.83466(4) 0.30502(3) 0.27748(2)
O9 O 0.7791(2) 0.69929(17) 0.77665(13)
O10 O 0.6721(4) 0.6641(2) 0.69239(19)
H2 H 0.4362 0.0203 0.7928
H3 H 0.3122 0.0542 0.8420
C9 C 0.2789(4) 0.0034(4) 0.9717(3)
H9 H 0.2489 0.0628 0.9451
C11 C 0.0495(4) 0.0235(3) 0.9971(2)
H14 H 0.0185 0.0791 0.9667
C13 C 0.9017(3) 0.0111(2) 0.79799(18)
C14 C 0.8367(4) 0.1026(3) 0.8269(2)
H15 H 0.7590 0.1150 0.8515
C15 C 0.8847(4) 0.1762(3) 0.8199(2)
H16 H 0.8395 0.2369 0.8400
C16 C 0.9997(3) 0.1595(2) 0.78310(19)
C21 C 0.9801(4) 0.3384(2) 0.76468(19)
C22 C 0.8585(4) 0.3686(3) 0.7378(2)
H18 H 0.8227 0.3230 0.7273
C23 C 0.7902(4) 0.4662(3) 0.7265(2)
H19 H 0.7092 0.4855 0.7080
C24 C 0.8410(4) 0.5358(2) 0.74229(19)
C25 C 0.9647(4) 0.5061(2) 0.76791(19)
C27 C 0.7569(4) 0.6417(3) 0.7351(2)
Zn5 Zn 0.68861(4) 0.84078(3) 0.78294(2)
O3 O 0.7756(3) 0.92809(19) 0.75482(14)
O4 O 0.8440(3) 0.8934(2) 0.86080(15)
O5 O 0.5697(3) 0.8563(2) 0.70393(15)
H1 H 0.5713 0.8027 0.6920
N1 N 0.5737(3) 0.8744(2) 0.86937(16)
N2 N 0.4087(3) 0.9404(3) 0.94397(19)
C1 C 0.3805(4) 0.9988(3) 0.8219(3)
H4 H 0.3447 0.9617 0.7946
C2 C 0.4546(4) 0.9377(3) 0.8776(2)
C3 C 0.6076(4) 0.8336(3) 0.9347(2)
C4 C 0.7224(4) 0.7642(3) 0.9564(2)
H5 H 0.7920 0.7358 0.9253
C8 C 0.5043(4) 0.8746(3) 0.9818(2)
C10 C 0.1806(4) 0.9546(3) 0.9689(2)
H11 H 0.1740 0.9366 0.9213
H12 H 0.2087 0.8959 0.9964
C12 C 0.8398(3) 0.9363(3) 0.8060(2)
C29 C 0.9402(4) 0.7592(4) 0.6084(2)
H21 H 0.9399 0.7780 0.6561
H22 H 0.9016 0.7113 0.6058
H23 H 0.8920 0.8151 0.5821
H29 H 0.9370 0.7393 0.4680
H31 H 0.9783 0.5961 0.4047
C39 C 0.9948(6) 0.5508(4) 0.5058(3)
H33 H 0.9066 0.5899 0.5199
H47 H 0.583(5) 0.890(3) 0.6705(15)
N9 N 0.8225(3) 0.3026(2) 0.38208(17)
N10 N 0.8905(4) 0.2984(3) 0.48896(18)
C63 C 0.9247(4) 0.2825(3) 0.4204(2)
C64 C 0.7155(4) 0.3325(3) 0.4282(2)
C65 C 0.5857(4) 0.3584(3) 0.4158(3)
H64 H 0.5568 0.3593 0.3711
C66 C 0.5019(5) 0.3827(3) 0.4733(3)
H65 H 0.4142 0.4008 0.4672
C67 C 0.5444(6) 0.3809(4) 0.5396(3)
H66 H 0.4843 0.3977 0.5767
C68 C 0.6721(6) 0.3553(4) 0.5527(3)
H67 H 0.7000 0.3541 0.5976
C69 C 0.7578(5) 0.3313(3) 0.4953(2)
C70 C 0.9748(6) 0.3015(4) 0.5448(2)
H68 H 0.9498 0.2761 0.5871
C71 C 0.9664(6) 0.4041(4) 0.5578(3)
H70 H 0.8788 0.4437 0.5726
H72 H 0.9511 0.4479 0.4565
O11 O 0.9306(3) 0.17536(17) 0.24372(15)
O12 O 0.8017(3) 0.1163(2) 0.30277(18)
C90 C 0.9807(3) 0.0067(2) 0.23771(19)
C91 C 0.8966(4) 0.1067(3) 0.2653(2)
O22 O 0.9415(2) 0.38461(18) 0.27115(14)
O16 O 0.8236(3) 0.7912(2) 0.2231(2)
O18 O 0.9388(3) 0.4159(2) 0.15809(16)
C89 C 0.9342(3) 0.9325(2) 0.24504(19)
H90 H 0.8564 0.9446 0.2695
C92 C 0.9405(4) 0.7659(3) 0.2241(2)
C98 C 0.9676(4) 0.5919(3) 0.22111(19)
H93 H 0.8855 0.6116 0.2039
C100 C 0.9684(4) 0.4245(3) 0.2180(2)
H10 H 0.2851 0.0208 0.0195
H13 H 0.0590 0.0471 0.0426
C5 C 0.7288(5) 0.7396(4) 0.0248(3)
H6 H 0.8045 0.6936 0.0405
C6 C 0.6258(6) 0.7811(5) 0.0717(3)
H7 H 0.6343 0.7623 0.1179
C7 C 0.5117(5) 0.8492(4) 0.0517(2)
H8 H 0.4427 0.8771 0.0833
C55 C 0.2712(5) 0.2604(4) 0.9752(3)
H52 H 0.1955 0.3064 0.9595
C56 C 0.3742(6) 0.2189(5) 0.9283(3)
H53 H 0.3657 0.2377 0.8821
C57 C 0.4883(5) 0.1508(4) 0.9483(2)
H54 H 0.5573 0.1229 0.9167
H56 H 0.7149 0.9792 0.9805
H59 H 0.9410 0.9529 0.9574
loop_
_geom_bond_atom_site_label_1
_geom_bond_atom_site_label_2
_geom_bond_site_symmetry_1
_geom_bond_site_symmetry_2
O6 C20 1_555 1_555
O7 C28 1_555 1_555
O8 C28 1_555 1_555
H17 C17 1_555 1_555
H20 C26 1_555 1_555
Zn7 O7 1_555 1_555
Zn7 O1 1_555 1_555
O1 C19 1_555 1_555
O2 C19 1_555 1_555
N3 Zn7 1_555 1_555
N4 C30 1_555 1_555
N5 Zn7 1_555 1_555
N6 C41 1_555 1_555
C19 C18 1_555 1_555
C30 N3 1_555 1_555
C31 N3 1_555 1_555
C32 C31 1_555 1_555
H24 C32 1_555 1_555
C33 C32 1_555 1_555
H25 C33 1_555 1_555
C34 C33 1_555 1_555
H26 C34 1_555 1_555
C35 C34 1_555 1_555
H27 C35 1_555 1_555
C36 N4 1_555 1_555
C37 N4 1_555 1_555
H28 C37 1_555 1_555
C38 C37 1_555 1_555
H30 C38 1_555 1_555
C40 H34 1_555 1_555
H35 C40 1_555 1_555
H36 C40 1_555 1_555
C41 N5 1_555 1_555
C42 N5 1_555 1_555
C43 N6 1_555 1_555
C44 C43 1_555 1_555
H37 C44 1_555 1_555
C45 C44 1_555 1_555
H38 C45 1_555 1_555
C46 C45 1_555 1_555
H39 C46 1_555 1_555
C47 C42 1_555 1_555
H40 C47 1_555 1_555
C48 N6 1_555 1_555
H41 C48 1_555 1_555
H42 C48 1_555 1_555
C49 C48 1_555 1_555
H43 C49 1_555 1_555
H44 C49 1_555 1_555
C50 C49 1_555 1_555
H45 C50 1_555 1_555
C62 H61 1_555 1_555
H62 C62 1_555 1_555
H63 C62 1_555 1_555
H73 C72 1_555 1_555
C31 C36 1_555 1_555
C35 C36 1_555 1_555
C40 C41 1_555 1_555
C42 C43 1_555 1_555
C46 C47 1_555 1_555
N7 C52 1_555 1_555
N8 C52 1_555 1_555
H50 C51 1_555 1_555
C52 C51 1_555 1_555
C53 N7 1_555 1_555
C54 C53 1_555 1_555
H51 C54 1_555 1_555
C58 N8 1_555 1_555
H57 C60 1_555 1_555
H58 C60 1_555 1_555
Zn3 N7 1_555 1_555
O13 Zn3 1_555 1_555
O14 C84 1_555 1_555
O15 Zn3 1_555 1_555
H87 O15 1_555 1_555
C84 O13 1_555 1_555
H94 O15 1_555 1_555
O24 Zn3 1_555 1_555
C53 C58 1_555 1_555
H55 C59 1_555 1_555
H60 C61 1_555 1_555
O24 C99 1_555 1_555
O20 C99 1_555 1_555
C86 C85 1_555 1_555
H88 C86 1_555 1_555
C87 C86 1_555 1_555
H89 C87 1_555 1_555
C88 C87 1_555 1_555
C94 C93 1_555 1_555
H91 C94 1_555 1_555
C95 C94 1_555 1_555
H92 C95 1_555 1_555
C96 C95 1_555 1_555
C97 C96 1_555 1_555
C99 C96 1_555 1_555
N11 C74 1_555 1_555
N12 C74 1_555 1_555
C73 H74 1_555 1_555
H75 C73 1_555 1_555
H76 C73 1_555 1_555
C74 C73 1_555 1_555
C75 N11 1_555 1_555
C76 N12 1_555 1_555
C77 C76 1_555 1_555
H77 C77 1_555 1_555
C78 C77 1_555 1_555
H78 C78 1_555 1_555
C79 C78 1_555 1_555
H79 C79 1_555 1_555
C80 C75 1_555 1_555
H80 C80 1_555 1_555
C81 N12 1_555 1_555
H81 C81 1_555 1_555
H82 C81 1_555 1_555
C82 C81 1_555 1_555
H83 C82 1_555 1_555
H84 C82 1_555 1_555
H85 C83 1_555 1_555
Zn10 N11 1_555 1_555
C75 C76 1_555 1_555
C79 C80 1_555 1_555
C82 C83 1_555 1_555
O9 C27 1_555 1_555
O10 C27 1_555 1_555
H9 C9 1_555 1_555
H14 C11 1_555 1_555
C13 C14 1_555 1_555
C14 H15 1_555 1_555
C15 C14 1_555 1_555
H16 C15 1_555 1_555
C16 C15 1_555 1_555
C22 C21 1_555 1_555
H18 C22 1_555 1_555
C23 C22 1_555 1_555
H19 C23 1_555 1_555
C24 C23 1_555 1_555
C25 C24 1_555 1_555
C27 C24 1_555 1_555
Zn5 O9 1_555 1_555
Zn5 O3 1_555 1_555
O3 C12 1_555 1_555
O4 C12 1_555 1_555
O5 Zn5 1_555 1_555
H1 O5 1_555 1_555
N1 Zn5 1_555 1_555
N2 C2 1_555 1_555
H4 C1 1_555 1_555
C2 N1 1_555 1_555
C3 N1 1_555 1_555
C4 C3 1_555 1_555
H5 C4 1_555 1_555
C8 N2 1_555 1_555
H11 C10 1_555 1_555
H12 C10 1_555 1_555
C29 H21 1_555 1_555
H22 C29 1_555 1_555
H23 C29 1_555 1_555
H33 C39 1_555 1_555
H47 O5 1_555 1_555
N9 C63 1_555 1_555
N10 C63 1_555 1_555
C64 N9 1_555 1_555
C65 C64 1_555 1_555
H64 C65 1_555 1_555
C66 C65 1_555 1_555
H65 C66 1_555 1_555
C67 C66 1_555 1_555
H66 C67 1_555 1_555
C68 C67 1_555 1_555
H67 C68 1_555 1_555
C69 N10 1_555 1_555
C70 N10 1_555 1_555
H68 C70 1_555 1_555
C71 C70 1_555 1_555
H70 C71 1_555 1_555
Zn10 N9 1_555 1_555
C1 C2 1_555 1_555
C3 C8 1_555 1_555
C64 C69 1_555 1_555
C68 C69 1_555 1_555
Zn10 O11 1_555 1_555
O11 C91 1_555 1_555
O12 C91 1_555 1_555
C91 C90 1_555 1_555
O22 Zn10 1_555 1_555
O16 C92 1_555 1_555
O22 C100 1_555 1_555
O18 C100 1_555 1_555
H90 C89 1_555 1_555
H93 C98 1_555 1_555
H6 C5 1_555 1_555
C6 C5 1_555 1_555
H7 C6 1_555 1_555
C7 C6 1_555 1_555
H8 C7 1_555 1_555
H52 C55 1_555 1_555
C56 C55 1_555 1_555
H53 C56 1_555 1_555
C57 C56 1_555 1_555
H54 C57 1_555 1_555

#END
