
###############################################################################
#
# This file contains modified crystal structure data generated from the
# MOF subset of the Cambridge Structural Database (CSD) v543 
# hosted by the Cambridge Crystallographic Data Centre (CCDC).
#
# This work is licensed under the Creative Commons
# Attribution-NonCommercial-ShareAlike 4.0 International License.
# To view a copy of this license, visit
# http://creativecommons.org/licenses/by-nc-sa/4.0/
# or send a letter to
# Creative Commons, PO Box 1866, Mountain View, CA 94042, USA.
#
# CIF created using the CSD Python API on 29 September 2022
# The structure has been converted into the P1 space group
# The structure has a 3D framework
# The original CSD entry POPVIC is in the monoclinic crystal system
# The framework has been calculated to contain at least 10.0% void space
# The void calculation uses a probe of radius 1.32A, grid spacing 0.4
#
###############################################################################

data_POPVIC
_chemical_formula_moiety         '(C112 H80 N8 Ni4 O16)n'
_symmetry_cell_setting           triclinic
_symmetry_space_group_name_H-M   'P 1'
_symmetry_Int_Tables_number      1
_space_group_name_Hall           'P 1'
loop_
_symmetry_equiv_pos_site_id
_symmetry_equiv_pos_as_xyz
1 x,y,z
_cell_length_a                   12.50064(8)
_cell_length_b                   23.31313(15)
_cell_length_c                   8.21615(6)
_cell_angle_alpha                90
_cell_angle_beta                 99.2655(6)
_cell_angle_gamma                90
_cell_volume                     2363.18
loop_
_atom_site_label
_atom_site_type_symbol
_atom_site_fract_x
_atom_site_fract_y
_atom_site_fract_z
O3 O 0.25253(17) 0.53503(10) 0.6941(3)
O4 O 0.20147(19) 0.61755(10) 0.7477(3)
C2 C 0.0885(3) 0.54362(15) 0.7831(4)
C6 C 0.0707(3) 0.48810(15) 0.7826(5)
H4 H 0.1192 0.4628 0.7404
C19 C 0.0180(3) 0.57873(15) 0.8373(5)
H14 H 0.0287 0.6190 0.8347
C22 C 0.1853(3) 0.56619(16) 0.7371(4)
Ni2 Ni 0.35197(3) 0.60278(2) 0.70088(4)
N1 N 0.4844(2) 0.56629(13) 0.6530(4)
N2 N 0.3045(2) 0.63231(13) 0.4794(3)
C4 C 0.8288(3) 0.52201(16) 0.4627(5)
H2 H 0.8308 0.5622 0.4826
C5 C 0.5649(3) 0.49250(15) 0.5361(4)
H3 H 0.5585 0.4555 0.4868
C7 C 0.2849(3) 0.60196(17) 0.3487(5)
H5 H 0.2988 0.5619 0.3571
C8 C 0.9159(3) 0.49820(16) 0.3985(5)
C9 C 0.5769(3) 0.59110(15) 0.6825(4)
H6 H 0.5828 0.6265 0.7404
C10 C 0.6645(3) 0.56923(15) 0.6352(5)
H7 H 0.7314 0.5894 0.6569
C11 C 0.6593(3) 0.51923(15) 0.5576(4)
C12 C 0.4795(3) 0.51689(15) 0.5827(4)
H8 H 0.4120 0.4972 0.5637
C13 C 0.9859(3) 0.53295(16) 0.3402(5)
H9 H 0.9747 0.5733 0.3402
C16 C 0.9334(3) 0.44209(15) 0.3947(4)
H11 H 0.8841 0.4165 0.4340
C17 C 0.1355(3) 0.7471(2) 0.0102(6)
H12 H 0.1317 0.7695 0.1056
C20 C 0.7475(3) 0.49477(16) 0.4967(5)
H15 H 0.7462 0.4545 0.4796
C23 C 0.2453(3) 0.71074(18) 0.3249(5)
H16 H 0.2310 0.7508 0.3193
C24 C 0.2464(3) 0.62350(19) 0.2026(4)
H17 H 0.2339 0.5994 0.1082
C25 C 0.1827(3) 0.70015(19) 0.0308(5)
C26 C 0.2259(3) 0.6778(2) 0.1893(5)
C28 C 0.2850(3) 0.68575(17) 0.4669(5)
H20 H 0.2994 0.7088 0.5633
O5 O 0.42641(18) 0.67539(9) 0.7993(3)
O6 O 0.4061(2) 0.60321(9) 0.9433(3)
C14 C 0.4383(3) 0.65137(15) 0.9318(4)
H13 H 0.5345 0.7502 0.9674
Ni1 Ni 0.35197(3) 0.39722(2) 0.20088(4)
N1_2 N 0.4844(2) 0.43371(13) 0.1530(4)
C5_2 C 0.5649(3) 0.50750(15) 0.0361(4)
C9_2 C 0.5769(3) 0.40890(15) 0.1825(4)
H6_2 H 0.5828 0.3735 0.2404
C10_2 C 0.6645(3) 0.43077(15) 0.1352(5)
H7_2 H 0.7314 0.4106 0.1569
C11_2 C 0.6593(3) 0.48077(15) 0.0576(4)
C12_2 C 0.4795(3) 0.48311(15) 0.0827(4)
H8_2 H 0.4120 0.5028 0.0637
H20_2 H 0.2994 0.2912 0.0633
O5_2 O 0.42641(18) 0.32461(9) 0.2993(3)
O6_2 O 0.4061(2) 0.39679(9) 0.4433(3)
O7 O 0.25253(17) 0.46497(10) 0.1941(3)
O8 O 0.20147(19) 0.38245(10) 0.2477(3)
C2_2 C 0.0885(3) 0.45638(15) 0.2831(4)
C6_2 C 0.0707(3) 0.51190(15) 0.2826(5)
H4_2 H 0.1192 0.5372 0.2404
C19_2 C 0.0180(3) 0.42127(15) 0.3373(5)
H14_2 H 0.0287 0.3810 0.3347
C22_2 C 0.1853(3) 0.43381(16) 0.2371(4)
C1 C 0.4957(3) 0.34638(17) 0.7193(5)
H1 H 0.4658 0.3837 0.7235
C3 C 0.4915(3) 0.32000(15) 0.5766(4)
C14_2 C 0.4383(3) 0.34863(15) 0.4318(4)
C15 C 0.5417(3) 0.32069(19) 0.8574(5)
H10 H 0.5421 0.3395 0.9600
C18 C 0.5365(3) 0.26876(16) 0.5702(5)
H13_2 H 0.5345 0.2498 0.4674
C21 C 0.5867(3) 0.27000(19) 0.8552(5)
H18 H 0.6904 0.1780 0.9363
C27 C 0.5846(3) 0.24412(16) 0.7089(5)
H19 H 0.6179 0.2077 0.7044
N2_2 N 0.3045(2) 0.36769(13) 0.9794(3)
C4_2 C 0.8288(3) 0.47799(16) 0.9627(5)
H2_2 H 0.8308 0.4378 0.9826
H3_2 H 0.5585 0.5445 0.9868
C7_2 C 0.2849(3) 0.39804(17) 0.8487(5)
H5_2 H 0.2988 0.4381 0.8571
C8_2 C 0.9159(3) 0.50180(16) 0.8985(5)
C13_2 C 0.9859(3) 0.46705(16) 0.8402(5)
H9_2 H 0.9747 0.4267 0.8402
C15_2 C 0.0417(3) 0.17931(19) 0.3574(5)
H10_2 H 0.0421 0.1605 0.4600
C16_2 C 0.9334(3) 0.55791(15) 0.8947(4)
H11_2 H 0.8841 0.5835 0.9340
C17_2 C 0.1355(3) 0.2529(2) 0.5102(6)
H12_2 H 0.1317 0.2305 0.6056
C18_2 C 0.0365(3) 0.23124(16) 0.0702(5)
C20_2 C 0.7475(3) 0.50523(16) 0.9967(5)
H15_2 H 0.7462 0.5455 0.9796
C21_2 C 0.0867(3) 0.23000(19) 0.3552(5)
C23_2 C 0.2453(3) 0.28926(18) 0.8249(5)
H16_2 H 0.2310 0.2492 0.8193
C24_2 C 0.2464(3) 0.37650(19) 0.7026(4)
H17_2 H 0.2339 0.4006 0.6082
C25_2 C 0.1827(3) 0.29985(19) 0.5308(5)
H18_2 H 0.1904 0.3220 0.4363
C26_2 C 0.2259(3) 0.3222(2) 0.6893(5)
C27_2 C 0.0846(3) 0.25588(16) 0.2089(5)
H19_2 H 0.1179 0.2923 0.2044
C28_2 C 0.2850(3) 0.31425(17) 0.9669(5)
H13_3 H 0.0345 0.2502 0.9674
C1_2 C 0.9957(3) 0.15362(17) 0.2193(5)
H1_2 H 0.9658 0.1163 0.2235
C3_2 C 0.9915(3) 0.18000(15) 0.0766(4)
O1 O 0.92641(18) 0.17539(9) 0.7993(3)
O2 O 0.9061(2) 0.10321(9) 0.9433(3)
C14_3 C 0.9383(3) 0.15137(15) 0.9318(4)
Ni3 Ni 0.85197(3) 0.10278(2) 0.70088(4)
O3_2 O 0.75253(17) 0.03503(10) 0.6941(3)
O4_2 O 0.70147(19) 0.11755(10) 0.7477(3)
C2_3 C 0.5885(3) 0.04362(15) 0.7831(4)
H3_3 H 0.0585 0.0445 0.9868
C8_3 C 0.4159(3) 0.00180(16) 0.8985(5)
C16_3 C 0.4334(3) 0.05791(15) 0.8947(4)
H11_3 H 0.3841 0.0835 0.9340
C19_3 C 0.5180(3) 0.07873(15) 0.8373(5)
H14_3 H 0.5287 0.1190 0.8347
C20_3 C 0.2475(3) 0.00523(16) 0.9967(5)
H15_3 H 0.2462 0.0455 0.9796
C22_3 C 0.6853(3) 0.06619(16) 0.7371(4)
N1_3 N 0.9844(2) 0.06629(13) 0.6530(4)
N2_3 N 0.8045(2) 0.13231(13) 0.4794(3)
C7_3 C 0.7849(3) 0.10196(17) 0.3487(5)
H5_3 H 0.7988 0.0619 0.3571
C12_3 C 0.9795(3) 0.01689(15) 0.5827(4)
C17_3 C 0.6355(3) 0.2471(2) 0.0102(6)
H12_3 H 0.6317 0.2695 0.1056
C23_3 C 0.7453(3) 0.21074(18) 0.3249(5)
H16_3 H 0.7310 0.2508 0.3193
C24_3 C 0.7464(3) 0.12350(19) 0.2026(4)
H17_3 H 0.7339 0.0994 0.1082
C25_3 C 0.6827(3) 0.20015(19) 0.0308(5)
C26_3 C 0.7259(3) 0.1778(2) 0.1893(5)
C28_3 C 0.7850(3) 0.18575(17) 0.4669(5)
H20_3 H 0.7994 0.2088 0.5633
C15_3 C 0.0417(3) 0.82069(19) 0.8574(5)
H10_3 H 0.0421 0.8395 0.9600
C18_3 C 0.0365(3) 0.76876(16) 0.5702(5)
H13_4 H 0.0345 0.7498 0.4674
C21_3 C 0.0867(3) 0.77000(19) 0.8552(5)
H18_3 H 0.1904 0.6780 0.9363
C27_3 C 0.0846(3) 0.74412(16) 0.7089(5)
H19_3 H 0.1179 0.7077 0.7044
O1_2 O 0.92641(18) 0.82461(9) 0.2993(3)
O2_2 O 0.9061(2) 0.89679(9) 0.4433(3)
C1_3 C 0.9957(3) 0.84638(17) 0.7193(5)
H1_3 H 0.9658 0.8837 0.7235
C3_3 C 0.9915(3) 0.82000(15) 0.5766(4)
C14_4 C 0.9383(3) 0.84863(15) 0.4318(4)
Ni3_2 Ni 0.85197(3) 0.89722(2) 0.20088(4)
N1_4 N 0.9844(2) 0.93371(13) 0.1530(4)
C12_4 C 0.9795(3) 0.98311(15) 0.0827(4)
H20_4 H 0.7994 0.7912 0.0633
O7_2 O 0.75253(17) 0.96497(10) 0.1941(3)
O8_2 O 0.70147(19) 0.88245(10) 0.2477(3)
C2_4 C 0.5885(3) 0.95638(15) 0.2831(4)
C5_3 C 0.0649(3) 0.99250(15) 0.5361(4)
H3_4 H 0.0585 0.9555 0.4868
C8_4 C 0.4159(3) 0.99820(16) 0.3985(5)
C16_4 C 0.4334(3) 0.94209(15) 0.3947(4)
H11_4 H 0.3841 0.9165 0.4340
C19_4 C 0.5180(3) 0.92127(15) 0.3373(5)
H14_4 H 0.5287 0.8810 0.3347
C20_4 C 0.2475(3) 0.99477(16) 0.4967(5)
H15_4 H 0.2462 0.9545 0.4796
C22_4 C 0.6853(3) 0.93381(16) 0.2371(4)
C5_4 C 0.0649(3) 0.00750(15) 0.0361(4)
C9_3 C 0.0769(3) 0.90890(15) 0.1825(4)
H6_3 H 0.0828 0.8735 0.2404
C10_3 C 0.1645(3) 0.93077(15) 0.1352(5)
H7_3 H 0.2314 0.9106 0.1569
C11_3 C 0.1593(3) 0.98077(15) 0.0576(4)
C4_3 C 0.3288(3) 0.97799(16) 0.9627(5)
H2_3 H 0.3308 0.9378 0.9826
C6_3 C 0.5707(3) 0.98810(15) 0.7826(5)
H4_3 H 0.6192 0.9628 0.7404
C13_3 C 0.4859(3) 0.96705(16) 0.8402(5)
H9_3 H 0.4747 0.9267 0.8402
H8_3 H 0.9120 0.0028 0.0637
N2_4 N 0.8045(2) 0.86769(13) 0.9794(3)
C1_4 C 0.4957(3) 0.65362(17) 0.2193(5)
H1_4 H 0.4658 0.6163 0.2235
C3_4 C 0.4915(3) 0.68000(15) 0.0766(4)
C7_4 C 0.7849(3) 0.89804(17) 0.8487(5)
H5_4 H 0.7988 0.9381 0.8571
C15_4 C 0.5417(3) 0.67931(19) 0.3574(5)
H10_4 H 0.5421 0.6605 0.4600
C17_4 C 0.6355(3) 0.7529(2) 0.5102(6)
H12_4 H 0.6317 0.7305 0.6056
C18_4 C 0.5365(3) 0.73124(16) 0.0702(5)
C21_4 C 0.5867(3) 0.73000(19) 0.3552(5)
C23_4 C 0.7453(3) 0.78926(18) 0.8249(5)
H16_4 H 0.7310 0.7492 0.8193
C24_4 C 0.7464(3) 0.87650(19) 0.7026(4)
H17_4 H 0.7339 0.9006 0.6082
C25_4 C 0.6827(3) 0.79985(19) 0.5308(5)
H18_4 H 0.6904 0.8220 0.4363
C26_4 C 0.7259(3) 0.8222(2) 0.6893(5)
C27_4 C 0.5846(3) 0.75588(16) 0.2089(5)
H19_4 H 0.6179 0.7923 0.2044
C28_4 C 0.7850(3) 0.81425(17) 0.9669(5)
C4_4 C 0.3288(3) 0.02201(16) 0.4627(5)
H2_4 H 0.3308 0.0622 0.4826
C6_4 C 0.5707(3) 0.01190(15) 0.2826(5)
H4_4 H 0.6192 0.0372 0.2404
C9_4 C 0.0769(3) 0.09110(15) 0.6825(4)
H6_4 H 0.0828 0.1265 0.7404
C10_4 C 0.1645(3) 0.06923(15) 0.6352(5)
H7_4 H 0.2314 0.0894 0.6569
C11_4 C 0.1593(3) 0.01923(15) 0.5576(4)
C13_4 C 0.4859(3) 0.03295(16) 0.3402(5)
H9_4 H 0.4747 0.0733 0.3402
H8_4 H 0.9120 0.9972 0.5637
loop_
_geom_bond_atom_site_label_1
_geom_bond_atom_site_label_2
_geom_bond_site_symmetry_1
_geom_bond_site_symmetry_2
O3 C22 1_555 1_555
O4 C22 1_555 1_555
C2 C6 1_555 1_555
C6 H4 1_555 1_555
C19 C2 1_555 1_555
H14 C19 1_555 1_555
C22 C2 1_555 1_555
Ni2 O3 1_555 1_555
O4 Ni2 1_555 1_555
Ni2 N1 1_555 1_555
N1 C9 1_555 1_555
N2 Ni2 1_555 1_555
C4 H2 1_555 1_555
C5 H3 1_555 1_555
C7 N2 1_555 1_555
H5 C7 1_555 1_555
C8 C4 1_555 1_555
C9 H6 1_555 1_555
C10 C9 1_555 1_555
H7 C10 1_555 1_555
C11 C5 1_555 1_555
C12 N1 1_555 1_555
H8 C12 1_555 1_555
H9 C13 1_555 1_555
C16 C8 1_555 1_555
H11 C16 1_555 1_555
C17 H12 1_555 1_555
C20 C4 1_555 1_555
H15 C20 1_555 1_555
C23 H16 1_555 1_555
C24 C7 1_555 1_555
H17 C24 1_555 1_555
C25 C17 1_555 1_555
C26 C23 1_555 1_555
C28 N2 1_555 1_555
H20 C28 1_555 1_555
O5 Ni2 1_555 1_555
O6 Ni2 1_555 1_555
C5 C12 1_555 1_555
C8 C13 1_555 1_555
C10 C11 1_555 1_555
C11 C20 1_555 1_555
C23 C28 1_555 1_555
C24 C26 1_555 1_555
C25 C26 1_555 1_555
O5 C14 1_555 1_555
O6 C14 1_555 1_555
Ni1 N1_2 1_555 1_555
N1_2 C9_2 1_555 1_555
C9_2 H6_2 1_555 1_555
C10_2 C9_2 1_555 1_555
H7_2 C10_2 1_555 1_555
C11_2 C5_2 1_555 1_555
C12_2 N1_2 1_555 1_555
H8_2 C12_2 1_555 1_555
O5_2 Ni1 1_555 1_555
O6_2 Ni1 1_555 1_555
O7 Ni1 1_555 1_555
O8 Ni1 1_555 1_555
C5_2 C12_2 1_555 1_555
C10_2 C11_2 1_555 1_555
O7 C22_2 1_555 1_555
O8 C22_2 1_555 1_555
C2_2 C6_2 1_555 1_555
C6_2 H4_2 1_555 1_555
C19_2 C2_2 1_555 1_555
H14_2 C19_2 1_555 1_555
C22_2 C2_2 1_555 1_555
O5_2 C14_2 1_555 1_555
O6_2 C14_2 1_555 1_555
C1 H1 1_555 1_555
C3 C1 1_555 1_555
C14_2 C3 1_555 1_555
C15 C1 1_555 1_555
H10 C15 1_555 1_555
C18 C3 1_555 1_555
H13_2 C18 1_555 1_555
C21 C15 1_555 1_555
C27 C18 1_555 1_555
H19 C27 1_555 1_555
C21 C27 1_555 1_555
C4_2 H2_2 1_555 1_555
C7_2 N2_2 1_555 1_555
H5_2 C7_2 1_555 1_555
C8_2 C4_2 1_555 1_555
H9_2 C13_2 1_555 1_555
H10_2 C15_2 1_555 1_555
C16_2 C8_2 1_555 1_555
H11_2 C16_2 1_555 1_555
C17_2 H12_2 1_555 1_555
C20_2 C4_2 1_555 1_555
H15_2 C20_2 1_555 1_555
C21_2 C15_2 1_555 1_555
C23_2 H16_2 1_555 1_555
C24_2 C7_2 1_555 1_555
H17_2 C24_2 1_555 1_555
C25_2 C17_2 1_555 1_555
H18_2 C25_2 1_555 1_555
C26_2 C23_2 1_555 1_555
C27_2 C18_2 1_555 1_555
H19_2 C27_2 1_555 1_555
C28_2 N2_2 1_555 1_555
C8_2 C13_2 1_555 1_555
C17_2 C21_2 1_555 1_555
C21_2 C27_2 1_555 1_555
C23_2 C28_2 1_555 1_555
C24_2 C26_2 1_555 1_555
C25_2 C26_2 1_555 1_555
C1_2 H1_2 1_555 1_555
C3_2 C1_2 1_555 1_555
O1 C14_3 1_555 1_555
O2 C14_3 1_555 1_555
Ni3 O1 1_555 1_555
O2 Ni3 1_555 1_555
O3_2 C22_3 1_555 1_555
O4_2 C22_3 1_555 1_555
C16_3 C8_3 1_555 1_555
H11_3 C16_3 1_555 1_555
C19_3 C2_3 1_555 1_555
H14_3 C19_3 1_555 1_555
H15_3 C20_3 1_555 1_555
C22_3 C2_3 1_555 1_555
Ni3 O3_2 1_555 1_555
O4_2 Ni3 1_555 1_555
C16_3 C19_3 1_555 1_555
Ni3 N1_3 1_555 1_555
N2_3 Ni3 1_555 1_555
C7_3 N2_3 1_555 1_555
H5_3 C7_3 1_555 1_555
C12_3 N1_3 1_555 1_555
C17_3 H12_3 1_555 1_555
C23_3 H16_3 1_555 1_555
C24_3 C7_3 1_555 1_555
H17_3 C24_3 1_555 1_555
C25_3 C17_3 1_555 1_555
C26_3 C23_3 1_555 1_555
C28_3 N2_3 1_555 1_555
H20_3 C28_3 1_555 1_555
C23_3 C28_3 1_555 1_555
C24_3 C26_3 1_555 1_555
C25_3 C26_3 1_555 1_555
H10_3 C15_3 1_555 1_555
H13_4 C18_3 1_555 1_555
C21_3 C15_3 1_555 1_555
C27_3 C18_3 1_555 1_555
H19_3 C27_3 1_555 1_555
C21_3 C27_3 1_555 1_555
O1_2 C14_4 1_555 1_555
O2_2 C14_4 1_555 1_555
C1_3 H1_3 1_555 1_555
C3_3 C1_3 1_555 1_555
C14_4 C3_3 1_555 1_555
Ni3_2 O1_2 1_555 1_555
O2_2 Ni3_2 1_555 1_555
Ni3_2 N1_4 1_555 1_555
C12_4 N1_4 1_555 1_555
O7_2 Ni3_2 1_555 1_555
O8_2 Ni3_2 1_555 1_555
O7_2 C22_4 1_555 1_555
O8_2 C22_4 1_555 1_555
C5_3 H3_4 1_555 1_555
C16_4 C8_4 1_555 1_555
H11_4 C16_4 1_555 1_555
C19_4 C2_4 1_555 1_555
H14_4 C19_4 1_555 1_555
H15_4 C20_4 1_555 1_555
C22_4 C2_4 1_555 1_555
C16_4 C19_4 1_555 1_555
C9_3 H6_3 1_555 1_555
C10_3 C9_3 1_555 1_555
H7_3 C10_3 1_555 1_555
C10_3 C11_3 1_555 1_555
C4_3 H2_3 1_555 1_555
C6_3 H4_3 1_555 1_555
C13_3 C6_3 1_555 1_555
H9_3 C13_3 1_555 1_555
C1_4 H1_4 1_555 1_555
C3_4 C1_4 1_555 1_555
C7_4 N2_4 1_555 1_555
H5_4 C7_4 1_555 1_555
C15_4 C1_4 1_555 1_555
H10_4 C15_4 1_555 1_555
C17_4 H12_4 1_555 1_555
C18_4 C3_4 1_555 1_555
C21_4 C15_4 1_555 1_555
C23_4 H16_4 1_555 1_555
C24_4 C7_4 1_555 1_555
H17_4 C24_4 1_555 1_555
C25_4 C17_4 1_555 1_555
H18_4 C25_4 1_555 1_555
C26_4 C23_4 1_555 1_555
C27_4 C18_4 1_555 1_555
H19_4 C27_4 1_555 1_555
C28_4 N2_4 1_555 1_555
C17_4 C21_4 1_555 1_555
C21_4 C27_4 1_555 1_555
C23_4 C28_4 1_555 1_555
C24_4 C26_4 1_555 1_555
C25_4 C26_4 1_555 1_555
C4_4 H2_4 1_555 1_555
C6_4 H4_4 1_555 1_555
C9_4 H6_4 1_555 1_555
C10_4 C9_4 1_555 1_555
H7_4 C10_4 1_555 1_555
C13_4 C6_4 1_555 1_555
H9_4 C13_4 1_555 1_555
C10_4 C11_4 1_555 1_555

#END
