
###############################################################################
#
# This file contains modified crystal structure data generated from the
# MOF subset of the Cambridge Structural Database (CSD) v543 
# hosted by the Cambridge Crystallographic Data Centre (CCDC).
#
# This work is licensed under the Creative Commons
# Attribution-NonCommercial-ShareAlike 4.0 International License.
# To view a copy of this license, visit
# http://creativecommons.org/licenses/by-nc-sa/4.0/
# or send a letter to
# Creative Commons, PO Box 1866, Mountain View, CA 94042, USA.
#
# CIF created using the CSD Python API on 29 September 2022
# The structure has been converted into the P1 space group
# The structure has a 3D framework
# The original CSD entry POPVOI is in the monoclinic crystal system
# The framework has been calculated to contain at least 10.0% void space
# The void calculation uses a probe of radius 1.32A, grid spacing 0.4
#
###############################################################################

data_POPVOI
_chemical_formula_moiety         '(C168 H120 Mn10 N12 O24)n'
_symmetry_cell_setting           triclinic
_symmetry_space_group_name_H-M   'P 1'
_symmetry_Int_Tables_number      1
_space_group_name_Hall           'P 1'
loop_
_symmetry_equiv_pos_site_id
_symmetry_equiv_pos_as_xyz
1 x,y,z
_cell_length_a                   13.74094(10)
_cell_length_b                   18.50072(12)
_cell_length_c                   15.90427(11)
_cell_angle_alpha                90
_cell_angle_beta                 103.3711(6)
_cell_angle_gamma                90
_cell_volume                     3933.54
loop_
_atom_site_label
_atom_site_type_symbol
_atom_site_fract_x
_atom_site_fract_y
_atom_site_fract_z
O1 O 0.07089(10) 0.08455(7) 0.43464(9)
O3 O 0.16407(10) 0.18126(7) 0.43395(9)
C2 C 0.08087(15) 0.15020(11) 0.41220(13)
C23 C 0.00432(18) 0.25928(12) 0.32960(17)
H13 H 0.0679 0.2822 0.3439
Mn5 Mn -0.0000 0.0000 0.5000
Mn9 Mn 0.23373(2) 0.07678(2) 0.49506(2)
Mn5_2 Mn -0.0000 1.0000 0.5000
Mn1 Mn 1.0000 0.5000 0.0000
Mn3 Mn 0.76627(2) 0.57678(2) 0.00494(2)
O12 O 0.88461(11) 0.42361(7) 0.01987(9)
H52 H 0.8037 0.1719 0.0007
H59 H 0.8738 0.2866 0.0289
O13 O 0.92911(10) 0.58455(7) 0.06536(9)
O15 O 0.83593(10) 0.68126(7) 0.06605(9)
N8 N 0.74885(13) 0.55427(10) 0.14365(11)
Mn1_2 Mn 1.0000 0.5000 1.0000
O8 O 0.78717(11) 0.60729(8) 0.88041(9)
O10 O 0.91234(10) 0.53055(8) 0.87704(8)
O11 O 0.73082(11) 0.46909(7) 0.97349(9)
N5 N 0.61605(12) 0.62444(9) 0.95980(11)
C43 C 0.79200(16) 0.41704(10) 0.99081(13)
C45 C 0.82510(15) 0.58176(11) 0.74582(13)
C46 C 0.84378(15) 0.57301(10) 0.84237(13)
C47 C 0.44117(16) 0.61501(12) 0.89247(15)
H31 H 0.3823 0.5863 0.8807
C48 C 0.74767(16) 0.34259(11) 0.97473(13)
C49 C 0.87418(17) 0.53692(13) 0.69895(14)
H32 H 0.9231 0.5038 0.7286
C50 C 0.09856(15) 0.84602(11) 0.66783(13)
H33 H 0.1055 0.8949 0.6518
C51 C 0.81566(17) 0.51037(11) 0.19398(14)
H34 H 0.8568 0.4811 0.1674
C52 C 0.00662(15) 0.81135(11) 0.64212(14)
C53 C 0.17989(15) 0.80926(12) 0.71671(14)
H35 H 0.2425 0.8333 0.7339
C54 C 0.43854(16) 0.68585(12) 0.86267(14)
C55 C 0.64720(16) 0.33439(12) 0.93230(14)
H36 H 0.6067 0.3760 0.9158
C56 C 0.75631(16) 0.63180(12) 0.70145(13)
H37 H 0.7240 0.6640 0.7328
C57 C 0.73468(17) 0.63508(13) 0.61216(14)
H38 H 0.6879 0.6698 0.5829
C58 C 0.53063(16) 0.58694(12) 0.93945(14)
H39 H 0.5314 0.5382 0.9583
C59 C 0.76925(17) 0.54799(13) 0.32365(14)
C60 C 0.78857(18) 0.54502(13) 0.41830(14)
H40 H 0.8299 0.5067 0.4458
C61 C 0.82758(18) 0.50571(12) 0.28245(14)
H41 H 0.8757 0.4736 0.3151
C62 C 0.66410(17) 0.20468(12) 0.93843(15)
C63 C 0.78054(17) 0.58820(13) 0.56444(14)
C64 C 0.34950(16) 0.72269(12) 0.81256(15)
H42 H 0.3589 0.7703 0.7935
C66 C 0.17141(16) 0.73723(12) 0.74122(15)
C67 C 0.49887(17) 0.04191(12) 0.84130(15)
C68 C 0.60624(17) 0.26625(12) 0.91416(15)
H44 H 0.5380 0.2615 0.8849
C69 C 0.25757(17) 0.69676(12) 0.79114(15)
H45 H 0.2465 0.6491 0.8091
C71 C 0.69074(18) 0.59361(14) 0.18336(15)
H47 H 0.6419 0.6243 0.1490
C72 C 0.54217(18) 0.11441(12) 0.85841(15)
H48 H 0.5098 0.1526 0.8227
C73 C 0.85270(19) 0.53999(14) 0.61007(14)
H49 H 0.8872 0.5090 0.5791
C74 C 0.42896(18) 0.02746(13) 0.76490(15)
H50 H 0.4096 0.0644 0.7228
C75 C 0.62305(18) 0.13155(12) 0.91961(16)
H51 H 0.6570 0.0932 0.9540
C76 C 0.76375(17) 0.21344(12) 0.98238(16)
C77 C 0.07758(18) 0.70435(12) 0.71926(17)
H53 H 0.0698 0.6564 0.7380
C79 C 0.61306(17) 0.69216(12) 0.92941(17)
H55 H 0.6729 0.7198 0.9419
C81 C 0.75411(18) 0.59056(14) 0.46973(14)
H57 H 0.7091 0.6272 0.4430
C82 C 0.52813(18) 0.72341(13) 0.88135(18)
H58 H 0.5306 0.7714 0.8606
C83 C 0.80550(17) 0.28172(12) 0.99979(15)
C84 C 0.69792(19) 0.59194(16) 0.27125(15)
H60 H 0.6544 0.6206 0.2959
N4 N 0.25115(13) 0.05427(10) 0.35635(11)
C51_2 C 0.18434(17) 0.01037(11) 0.30602(14)
C59_2 C 0.23075(17) 0.04799(13) 0.17635(14)
C60_2 C 0.21143(18) 0.04502(13) 0.08170(14)
H40_2 H 0.1701 0.0067 0.0542
C61_2 C 0.17242(18) 0.00571(12) 0.21755(14)
C71_2 C 0.30926(18) 0.09361(14) 0.31664(15)
H47_2 H 0.3581 0.1243 0.3510
C81_2 C 0.24589(18) 0.09056(14) 0.03027(14)
H57_2 H 0.2909 0.1272 0.0570
C84_2 C 0.30208(19) 0.09194(16) 0.22875(15)
H60_2 H 0.3456 0.1206 0.2041
O8_2 O 0.21283(11) 0.10729(8) 0.61959(9)
O10_2 O 0.08766(10) 0.03055(8) 0.62296(8)
N5_2 N 0.38395(12) 0.12444(9) 0.54020(11)
C45_2 C 0.17490(15) 0.08176(11) 0.75418(13)
C46_2 C 0.15622(15) 0.07301(10) 0.65763(13)
C47_2 C 0.55883(16) 0.11501(12) 0.60753(15)
H31_2 H 0.6177 0.0863 0.6193
C49_2 C 0.12582(17) 0.03692(13) 0.80105(14)
H32_2 H 0.0769 0.0038 0.7714
C50_2 C 0.90144(15) 0.34602(11) 0.83217(13)
H33_2 H 0.8945 0.3949 0.8482
C52_2 C 0.99338(15) 0.31135(11) 0.85788(14)
C53_2 C 0.82011(15) 0.30926(12) 0.78329(14)
H35_2 H 0.7575 0.3333 0.7661
C54_2 C 0.56146(16) 0.18585(12) 0.63733(14)
C56_2 C 0.24369(16) 0.13180(12) 0.79855(13)
H37_2 H 0.2760 0.1640 0.7672
C57_2 C 0.26532(17) 0.13508(13) 0.88784(14)
H38_2 H 0.3121 0.1698 0.9171
C58_2 C 0.46937(16) 0.08694(12) 0.56055(14)
H39_2 H 0.4686 0.0382 0.5417
C63_2 C 0.21946(17) 0.08820(13) 0.93556(14)
C64_2 C 0.65050(16) 0.22269(12) 0.68744(15)
H42_2 H 0.6411 0.2703 0.7065
C66_2 C 0.82859(16) 0.23723(12) 0.75878(15)
C69_2 C 0.74243(17) 0.19676(12) 0.70886(15)
H45_2 H 0.7535 0.1491 0.6909
C73_2 C 0.14730(19) 0.03999(14) 0.88993(14)
H49_2 H 0.1128 0.0090 0.9209
C77_2 C 0.92242(18) 0.20435(12) 0.78074(17)
H53_2 H 0.9302 0.1564 0.7620
C79_2 C 0.38694(17) 0.19216(12) 0.57059(17)
H55_2 H 0.3271 0.2198 0.5581
C82_2 C 0.47187(18) 0.22341(13) 0.61865(18)
H58_2 H 0.4694 0.2714 0.6394
O11_2 O 0.26918(11) 0.96909(7) 0.52651(9)
O12_2 O 0.11539(11) 0.92361(7) 0.48013(9)
N6 N 0.59006(17) 0.40469(11) 0.69364(14)
C43_2 C 0.20800(16) 0.91704(10) 0.50919(13)
C48_2 C 0.25233(16) 0.84259(11) 0.52527(13)
C55_2 C 0.35280(16) 0.83439(12) 0.56770(14)
H36_2 H 0.3933 0.8760 0.5842
C62_2 C 0.33590(17) 0.70468(12) 0.56157(15)
C67_2 C 0.50113(17) 0.54191(12) 0.65870(15)
C68_2 C 0.39376(17) 0.76625(12) 0.58584(15)
H44_2 H 0.4620 0.7615 0.6151
C70 C 0.61223(19) 0.45931(13) 0.74966(16)
H46 H 0.6592 0.4507 0.8027
C72_2 C 0.45783(18) 0.61441(12) 0.64159(15)
H48_2 H 0.4902 0.6526 0.6773
C74_2 C 0.57104(18) 0.52746(13) 0.73510(15)
H50_2 H 0.5904 0.5644 0.7772
C75_2 C 0.37695(18) 0.63155(12) 0.58039(16)
H51_2 H 0.3430 0.5932 0.5460
C76_2 C 0.23625(17) 0.71344(12) 0.51762(16)
H52_2 H 0.1963 0.6719 0.4993
C78 C 0.5243(2) 0.41939(13) 0.61949(17)
H54 H 0.5084 0.3819 0.5778
C80 C 0.47828(18) 0.48543(13) 0.59963(16)
H56 H 0.4314 0.4923 0.5461
C83_2 C 0.19450(17) 0.78172(12) 0.50021(15)
H59_2 H 0.1262 0.7866 0.4711
C2_2 C 0.91913(15) 0.65020(11) 0.08780(13)
C23_2 C 0.99568(18) 0.75928(12) 0.17040(17)
H13_2 H 0.9321 0.7822 0.1561
N3 N 0.59006(17) 0.09531(11) 0.19364(14)
C28 C 0.61223(19) 0.04069(13) 0.24966(16)
H16 H 0.6592 0.0493 0.3027
C36 C 0.5243(2) 0.08061(13) 0.11949(17)
H24 H 0.5084 0.1181 0.0778
C38 C 0.47828(18) 0.01457(13) 0.09963(16)
H26 H 0.4314 0.0077 0.0461
Mn1_3 Mn 0.0000 0.5000 0.0000
O2 O 0.21283(11) 0.39271(8) 0.11959(9)
O4 O 0.08766(10) 0.46945(8) 0.12296(8)
O5 O 0.26918(11) 0.53091(7) 0.02651(9)
N1 N 0.25115(13) 0.44573(10) 0.85635(11)
N2 N 0.38395(12) 0.37556(9) 0.04020(11)
C1 C 0.20800(16) 0.58296(10) 0.00919(13)
C3 C 0.17490(15) 0.41824(11) 0.25418(13)
C4 C 0.15622(15) 0.42699(10) 0.15763(13)
C5 C 0.55883(16) 0.38499(12) 0.10753(15)
H1 H 0.6177 0.4137 0.1193
C6 C 0.25233(16) 0.65741(11) 0.02527(13)
C7 C 0.12582(17) 0.46308(13) 0.30105(14)
H2 H 0.0769 0.4962 0.2714
C8 C 0.90144(15) 0.15398(11) 0.33217(13)
H3 H 0.8945 0.1051 0.3482
C9 C 0.18434(17) 0.48963(11) 0.80602(14)
H4 H 0.1432 0.5189 0.8326
C10 C 0.99338(15) 0.18865(11) 0.35788(14)
C11 C 0.82011(15) 0.19074(12) 0.28329(14)
H5 H 0.7575 0.1667 0.2661
C12 C 0.56146(16) 0.31415(12) 0.13733(14)
C13 C 0.35280(16) 0.66561(12) 0.06770(14)
H6 H 0.3933 0.6240 0.0842
C14 C 0.24369(16) 0.36820(12) 0.29855(13)
H7 H 0.2760 0.3360 0.2672
C15 C 0.26532(17) 0.36492(13) 0.38784(14)
H8 H 0.3121 0.3302 0.4171
C16 C 0.46937(16) 0.41306(12) 0.06055(14)
H9 H 0.4686 0.4618 0.0417
C17 C 0.23075(17) 0.45201(13) 0.67635(14)
C18 C 0.21143(18) 0.45498(13) 0.58170(14)
H10 H 0.1701 0.4933 0.5542
C19 C 0.17242(18) 0.49429(12) 0.71755(14)
H11 H 0.1243 0.5264 0.6849
C20 C 0.33590(17) 0.79532(12) 0.06157(15)
C21 C 0.21946(17) 0.41180(13) 0.43556(14)
C22 C 0.65050(16) 0.27731(12) 0.18744(15)
H12 H 0.6411 0.2297 0.2065
C24 C 0.82859(16) 0.26277(12) 0.25878(15)
C25 C 0.50113(17) 0.95809(12) 0.15870(15)
C26 C 0.39376(17) 0.73375(12) 0.08584(15)
H14 H 0.4620 0.7385 0.1151
C27 C 0.74243(17) 0.30324(12) 0.20886(15)
H15 H 0.7535 0.3509 0.1909
C29 C 0.30926(18) 0.40639(14) 0.81664(15)
H17 H 0.3581 0.3757 0.8510
C30 C 0.45783(18) 0.88559(12) 0.14159(15)
H18 H 0.4902 0.8474 0.1773
C31 C 0.14730(19) 0.46001(14) 0.38993(14)
H19 H 0.1128 0.4910 0.4209
C32 C 0.57104(18) 0.97254(13) 0.23510(15)
H20 H 0.5904 0.9356 0.2772
C33 C 0.37695(18) 0.86845(12) 0.08039(16)
H21 H 0.3430 0.9068 0.0460
C34 C 0.23625(17) 0.78656(12) 0.01762(16)
C35 C 0.92242(18) 0.29565(12) 0.28074(17)
H23 H 0.9302 0.3436 0.2620
C37 C 0.38694(17) 0.30784(12) 0.07059(17)
H25 H 0.3271 0.2802 0.0581
C39 C 0.24589(18) 0.40944(14) 0.53027(14)
H27 H 0.2909 0.3728 0.5570
C40 C 0.47187(18) 0.27659(13) 0.11865(18)
H28 H 0.4694 0.2286 0.1394
C41 C 0.19450(17) 0.71828(12) 0.00021(15)
C42 C 0.30208(19) 0.40806(16) 0.72875(15)
H30 H 0.3456 0.3794 0.7041
Mn5_3 Mn 1.0000 0.0000 0.5000
Mn6 Mn 0.23373(2) 0.42322(2) 0.99506(2)
Mn1_4 Mn -0.0000 0.5000 1.0000
O6 O 0.11539(11) 0.57639(7) 0.98013(9)
H22 H 0.1963 0.8281 0.9993
H29 H 0.1262 0.7134 0.9711
O14 O 0.07089(10) 0.41545(7) 0.93464(9)
O16 O 0.16407(10) 0.31874(7) 0.93395(9)
Mn5_4 Mn 1.0000 1.0000 0.5000
O7 O 0.92911(10) 0.91545(7) 0.56536(9)
O9 O 0.83593(10) 0.81874(7) 0.56605(9)
C44 C 0.91913(15) 0.84980(11) 0.58780(13)
C65 C 0.99568(18) 0.74072(12) 0.67040(17)
H43 H 0.9321 0.7178 0.6561
Mn7 Mn 0.76627(2) 0.92322(2) 0.50494(2)
C44_2 C 0.08087(15) 0.34980(11) 0.91220(13)
C65_2 C 0.00432(18) 0.24072(12) 0.82960(17)
H43_2 H 0.0679 0.2178 0.8439
O5_2 O 0.73082(11) 0.03091(7) 0.47349(9)
O6_2 O 0.88461(11) 0.07639(7) 0.51987(9)
N3_2 N 0.40994(17) 0.59531(11) 0.30636(14)
C1_2 C 0.79200(16) 0.08296(10) 0.49081(13)
C6_2 C 0.74767(16) 0.15741(11) 0.47473(13)
C13_2 C 0.64720(16) 0.16561(12) 0.43230(14)
H6_2 H 0.6067 0.1240 0.4158
C20_2 C 0.66410(17) 0.29532(12) 0.43843(15)
C25_2 C 0.49887(17) 0.45809(12) 0.34130(15)
C26_2 C 0.60624(17) 0.23375(12) 0.41416(15)
H14_2 H 0.5380 0.2385 0.3849
C28_2 C 0.38777(19) 0.54069(13) 0.25034(16)
H16_2 H 0.3408 0.5493 0.1973
C30_2 C 0.54217(18) 0.38559(12) 0.35841(15)
H18_2 H 0.5098 0.3474 0.3227
C32_2 C 0.42896(18) 0.47254(13) 0.26490(15)
H20_2 H 0.4096 0.4356 0.2228
C33_2 C 0.62305(18) 0.36845(12) 0.41961(16)
H21_2 H 0.6570 0.4068 0.4540
C34_2 C 0.76375(17) 0.28656(12) 0.48238(16)
H22_2 H 0.8037 0.3281 0.5007
C36_2 C 0.4757(2) 0.58061(13) 0.38051(17)
H24_2 H 0.4916 0.6181 0.4222
C38_2 C 0.52172(18) 0.51457(13) 0.40037(16)
H26_2 H 0.5686 0.5077 0.4539
C41_2 C 0.80550(17) 0.21828(12) 0.49979(15)
H29_2 H 0.8738 0.2134 0.5289
O2_2 O 0.78717(11) 0.89271(8) 0.38041(9)
O4_2 O 0.91234(10) 0.96945(8) 0.37704(8)
N2_2 N 0.61605(12) 0.87556(9) 0.45980(11)
C3_2 C 0.82510(15) 0.91824(11) 0.24582(13)
C4_2 C 0.84378(15) 0.92699(10) 0.34237(13)
C5_2 C 0.44117(16) 0.88499(12) 0.39247(15)
H1_2 H 0.3823 0.9137 0.3807
C7_2 C 0.87418(17) 0.96308(13) 0.19895(14)
H2_2 H 0.9231 0.9962 0.2286
C8_2 C 0.09856(15) 0.65398(11) 0.16783(13)
H3_2 H 0.1055 0.6051 0.1518
C10_2 C 0.00662(15) 0.68865(11) 0.14212(14)
C11_2 C 0.17989(15) 0.69074(12) 0.21671(14)
H5_2 H 0.2425 0.6667 0.2339
C12_2 C 0.43854(16) 0.81415(12) 0.36267(14)
C14_2 C 0.75631(16) 0.86820(12) 0.20145(13)
H7_2 H 0.7240 0.8360 0.2328
C15_2 C 0.73468(17) 0.86492(13) 0.11216(14)
H8_2 H 0.6879 0.8302 0.0829
C16_2 C 0.53063(16) 0.91306(12) 0.43945(14)
H9_2 H 0.5314 0.9618 0.4583
C21_2 C 0.78054(17) 0.91180(13) 0.06444(14)
C22_2 C 0.34950(16) 0.77731(12) 0.31256(15)
H12_2 H 0.3589 0.7297 0.2935
C24_2 C 0.17141(16) 0.76277(12) 0.24122(15)
C27_2 C 0.25757(17) 0.80324(12) 0.29114(15)
H15_2 H 0.2465 0.8509 0.3091
C31_2 C 0.85270(19) 0.96001(14) 0.11007(14)
H19_2 H 0.8872 0.9910 0.0791
C35_2 C 0.07758(18) 0.79565(12) 0.21926(17)
H23_2 H 0.0698 0.8436 0.2380
C37_2 C 0.61306(17) 0.80784(12) 0.42941(17)
H25_2 H 0.6729 0.7802 0.4419
C40_2 C 0.52813(18) 0.77659(13) 0.38135(18)
H28_2 H 0.5306 0.7286 0.3606
N7 N 0.74885(13) 0.94573(10) 0.64365(11)
C9_2 C 0.81566(17) 0.98963(11) 0.69398(14)
C17_2 C 0.76925(17) 0.95201(13) 0.82365(14)
C18_2 C 0.78857(18) 0.95498(13) 0.91830(14)
H10_2 H 0.8299 0.9933 0.9458
C19_2 C 0.82758(18) 0.99429(12) 0.78245(14)
C29_2 C 0.69074(18) 0.90639(14) 0.68336(15)
H17_2 H 0.6419 0.8757 0.6490
C39_2 C 0.75411(18) 0.90944(14) 0.96973(14)
H27_2 H 0.7091 0.8728 0.9430
C42_2 C 0.69792(19) 0.90806(16) 0.77125(15)
H30_2 H 0.6544 0.8794 0.7959
N6_2 N 0.40994(17) 0.90469(11) 0.80636(14)
C70_2 C 0.38777(19) 0.95931(13) 0.75034(16)
H46_2 H 0.3408 0.9507 0.6973
C78_2 C 0.4757(2) 0.91939(13) 0.88051(17)
H54_2 H 0.4916 0.8819 0.9222
C80_2 C 0.52172(18) 0.98543(13) 0.90037(16)
H56_2 H 0.5686 0.9923 0.9539
H34_2 H 0.1432 0.9811 0.3326
H41_2 H 0.1243 0.9736 0.1849
H4_2 H 0.8568 0.0189 0.6674
H11_2 H 0.8757 0.0264 0.8151
loop_
_geom_bond_atom_site_label_1
_geom_bond_atom_site_label_2
_geom_bond_site_symmetry_1
_geom_bond_site_symmetry_2
O1 C2 1_555 1_555
O3 C2 1_555 1_555
H13 C23 1_555 1_555
Mn5 O1 1_555 1_555
Mn9 O1 1_555 1_555
O3 Mn9 1_555 1_555
O12 Mn1 1_555 1_555
O13 Mn1 1_555 1_555
O15 Mn3 1_555 1_555
N8 Mn3 1_555 1_555
Mn3 O13 1_555 1_555
O8 C46 1_555 1_555
O10 Mn1_2 1_555 1_555
N8 C51 1_555 1_555
C43 O11 1_555 1_555
C45 C46 1_555 1_555
C46 O10 1_555 1_555
C47 H31 1_555 1_555
C48 C43 1_555 1_555
C49 C45 1_555 1_555
H32 C49 1_555 1_555
C50 H33 1_555 1_555
C51 H34 1_555 1_555
C52 C50 1_555 1_555
C53 C50 1_555 1_555
H35 C53 1_555 1_555
C54 C47 1_555 1_555
C55 C48 1_555 1_555
H36 C55 1_555 1_555
C56 C45 1_555 1_555
H37 C56 1_555 1_555
C57 C56 1_555 1_555
H38 C57 1_555 1_555
C58 N5 1_555 1_555
H39 C58 1_555 1_555
C59 C60 1_555 1_555
C60 H40 1_555 1_555
C61 C51 1_555 1_555
H41 C61 1_555 1_555
C62 C68 1_555 1_555
C63 C57 1_555 1_555
C64 C54 1_555 1_555
H42 C64 1_555 1_555
C66 C53 1_555 1_555
C67 C72 1_555 1_555
C68 C55 1_555 1_555
H44 C68 1_555 1_555
C69 C64 1_555 1_555
H45 C69 1_555 1_555
C71 N8 1_555 1_555
H47 C71 1_555 1_555
C72 H48 1_555 1_555
C73 C49 1_555 1_555
H49 C73 1_555 1_555
C74 C67 1_555 1_555
H50 C74 1_555 1_555
C75 C62 1_555 1_555
H51 C75 1_555 1_555
C76 C62 1_555 1_555
H53 C77 1_555 1_555
C79 N5 1_555 1_555
H55 C79 1_555 1_555
C81 C60 1_555 1_555
H57 C81 1_555 1_555
C82 C54 1_555 1_555
H58 C82 1_555 1_555
C83 C48 1_555 1_555
C84 C59 1_555 1_555
H60 C84 1_555 1_555
C47 C58 1_555 1_555
C59 C61 1_555 1_555
C63 C73 1_555 1_555
C63 C81 1_555 1_555
C66 C69 1_555 1_555
C66 C77 1_555 1_555
C71 C84 1_555 1_555
C72 C75 1_555 1_555
C76 C83 1_555 1_555
C79 C82 1_555 1_555
N4 C51_2 1_555 1_555
C59_2 C60_2 1_555 1_555
C60_2 H40_2 1_555 1_555
C61_2 C51_2 1_555 1_555
C71_2 N4 1_555 1_555
H47_2 C71_2 1_555 1_555
C81_2 C60_2 1_555 1_555
H57_2 C81_2 1_555 1_555
C84_2 C59_2 1_555 1_555
H60_2 C84_2 1_555 1_555
Mn9 N4 1_555 1_555
C59_2 C61_2 1_555 1_555
C71_2 C84_2 1_555 1_555
Mn9 O8_2 1_555 1_555
O8_2 C46_2 1_555 1_555
O10_2 Mn5 1_555 1_555
N5_2 Mn9 1_555 1_555
C45_2 C46_2 1_555 1_555
C46_2 O10_2 1_555 1_555
C47_2 H31_2 1_555 1_555
C49_2 C45_2 1_555 1_555
H32_2 C49_2 1_555 1_555
C50_2 H33_2 1_555 1_555
C52_2 C50_2 1_555 1_555
C53_2 C50_2 1_555 1_555
H35_2 C53_2 1_555 1_555
C54_2 C47_2 1_555 1_555
C56_2 C45_2 1_555 1_555
H37_2 C56_2 1_555 1_555
C57_2 C56_2 1_555 1_555
H38_2 C57_2 1_555 1_555
C58_2 N5_2 1_555 1_555
H39_2 C58_2 1_555 1_555
C63_2 C57_2 1_555 1_555
C64_2 C54_2 1_555 1_555
H42_2 C64_2 1_555 1_555
C66_2 C53_2 1_555 1_555
C69_2 C64_2 1_555 1_555
H45_2 C69_2 1_555 1_555
C73_2 C49_2 1_555 1_555
H49_2 C73_2 1_555 1_555
H53_2 C77_2 1_555 1_555
C79_2 N5_2 1_555 1_555
H55_2 C79_2 1_555 1_555
C82_2 C54_2 1_555 1_555
H58_2 C82_2 1_555 1_555
C47_2 C58_2 1_555 1_555
C63_2 C73_2 1_555 1_555
C66_2 C69_2 1_555 1_555
C66_2 C77_2 1_555 1_555
C79_2 C82_2 1_555 1_555
O12_2 Mn5_2 1_555 1_555
N6 C70 1_555 1_555
C43_2 O11_2 1_555 1_555
C48_2 C43_2 1_555 1_555
C55_2 C48_2 1_555 1_555
H36_2 C55_2 1_555 1_555
C62_2 C68_2 1_555 1_555
C67_2 C72_2 1_555 1_555
C68_2 C55_2 1_555 1_555
H44_2 C68_2 1_555 1_555
C70 H46 1_555 1_555
C72_2 H48_2 1_555 1_555
C74_2 C67_2 1_555 1_555
H50_2 C74_2 1_555 1_555
C75_2 C62_2 1_555 1_555
H51_2 C75_2 1_555 1_555
C76_2 C62_2 1_555 1_555
H52_2 C76_2 1_555 1_555
C78 N6 1_555 1_555
H54 C78 1_555 1_555
C80 C67_2 1_555 1_555
H56 C80 1_555 1_555
C83_2 C48_2 1_555 1_555
H59_2 C83_2 1_555 1_555
O12_2 C43_2 1_555 1_555
C70 C74_2 1_555 1_555
C72_2 C75_2 1_555 1_555
C76_2 C83_2 1_555 1_555
C78 C80 1_555 1_555
O13 C2_2 1_555 1_555
O15 C2_2 1_555 1_555
H13_2 C23_2 1_555 1_555
N3 C28 1_555 1_555
C28 H16 1_555 1_555
C36 N3 1_555 1_555
H24 C36 1_555 1_555
H26 C38 1_555 1_555
C36 C38 1_555 1_555
Mn1_3 O4 1_555 1_555
O2 C4 1_555 1_555
O4 C4 1_555 1_555
N1 C9 1_555 1_555
C1 O5 1_555 1_555
C3 C4 1_555 1_555
C5 H1 1_555 1_555
C6 C1 1_555 1_555
C7 C3 1_555 1_555
H2 C7 1_555 1_555
C8 H3 1_555 1_555
C9 H4 1_555 1_555
C10 C8 1_555 1_555
C11 C8 1_555 1_555
H5 C11 1_555 1_555
C12 C5 1_555 1_555
C13 C6 1_555 1_555
H6 C13 1_555 1_555
C14 C3 1_555 1_555
H7 C14 1_555 1_555
C15 C14 1_555 1_555
H8 C15 1_555 1_555
C16 N2 1_555 1_555
H9 C16 1_555 1_555
C17 C18 1_555 1_555
C18 H10 1_555 1_555
C19 C9 1_555 1_555
H11 C19 1_555 1_555
C20 C26 1_555 1_555
C21 C15 1_555 1_555
C22 C12 1_555 1_555
H12 C22 1_555 1_555
C24 C11 1_555 1_555
C25 C30 1_555 1_555
C26 C13 1_555 1_555
H14 C26 1_555 1_555
C27 C22 1_555 1_555
H15 C27 1_555 1_555
C29 N1 1_555 1_555
H17 C29 1_555 1_555
C30 H18 1_555 1_555
C31 C7 1_555 1_555
H19 C31 1_555 1_555
C32 C25 1_555 1_555
H20 C32 1_555 1_555
C33 C20 1_555 1_555
H21 C33 1_555 1_555
C34 C20 1_555 1_555
H23 C35 1_555 1_555
C37 N2 1_555 1_555
H25 C37 1_555 1_555
C39 C18 1_555 1_555
H27 C39 1_555 1_555
C40 C12 1_555 1_555
H28 C40 1_555 1_555
C41 C6 1_555 1_555
C42 C17 1_555 1_555
H30 C42 1_555 1_555
Mn6 N1 1_555 1_555
C5 C16 1_555 1_555
C17 C19 1_555 1_555
C21 C31 1_555 1_555
C21 C39 1_555 1_555
C24 C27 1_555 1_555
C24 C35 1_555 1_555
C29 C42 1_555 1_555
C30 C33 1_555 1_555
C34 C41 1_555 1_555
C37 C40 1_555 1_555
O6 Mn1_4 1_555 1_555
O14 Mn1_4 1_555 1_555
O16 Mn6 1_555 1_555
Mn6 O14 1_555 1_555
O7 C44 1_555 1_555
O9 C44 1_555 1_555
H43 C65 1_555 1_555
Mn5_4 O7 1_555 1_555
Mn7 O7 1_555 1_555
O9 Mn7 1_555 1_555
O14 C44_2 1_555 1_555
O16 C44_2 1_555 1_555
H43_2 C65_2 1_555 1_555
O6_2 Mn5_3 1_555 1_555
N3_2 C28_2 1_555 1_555
C1_2 O5_2 1_555 1_555
C6_2 C1_2 1_555 1_555
C13_2 C6_2 1_555 1_555
H6_2 C13_2 1_555 1_555
C20_2 C26_2 1_555 1_555
C25_2 C30_2 1_555 1_555
C26_2 C13_2 1_555 1_555
H14_2 C26_2 1_555 1_555
C28_2 H16_2 1_555 1_555
C30_2 H18_2 1_555 1_555
C32_2 C25_2 1_555 1_555
H20_2 C32_2 1_555 1_555
C33_2 C20_2 1_555 1_555
H21_2 C33_2 1_555 1_555
C34_2 C20_2 1_555 1_555
H22_2 C34_2 1_555 1_555
C36_2 N3_2 1_555 1_555
H24_2 C36_2 1_555 1_555
C38_2 C25_2 1_555 1_555
H26_2 C38_2 1_555 1_555
C41_2 C6_2 1_555 1_555
H29_2 C41_2 1_555 1_555
O6_2 C1_2 1_555 1_555
C28_2 C32_2 1_555 1_555
C30_2 C33_2 1_555 1_555
C34_2 C41_2 1_555 1_555
C36_2 C38_2 1_555 1_555
Mn5_4 O4_2 1_555 1_555
Mn7 O2_2 1_555 1_555
O2_2 C4_2 1_555 1_555
O4_2 C4_2 1_555 1_555
N2_2 Mn7 1_555 1_555
C3_2 C4_2 1_555 1_555
C5_2 H1_2 1_555 1_555
C7_2 C3_2 1_555 1_555
H2_2 C7_2 1_555 1_555
C8_2 H3_2 1_555 1_555
C10_2 C8_2 1_555 1_555
C11_2 C8_2 1_555 1_555
H5_2 C11_2 1_555 1_555
C12_2 C5_2 1_555 1_555
C14_2 C3_2 1_555 1_555
H7_2 C14_2 1_555 1_555
C15_2 C14_2 1_555 1_555
H8_2 C15_2 1_555 1_555
C16_2 N2_2 1_555 1_555
H9_2 C16_2 1_555 1_555
C21_2 C15_2 1_555 1_555
C22_2 C12_2 1_555 1_555
H12_2 C22_2 1_555 1_555
C24_2 C11_2 1_555 1_555
C27_2 C22_2 1_555 1_555
H15_2 C27_2 1_555 1_555
C31_2 C7_2 1_555 1_555
H19_2 C31_2 1_555 1_555
H23_2 C35_2 1_555 1_555
C37_2 N2_2 1_555 1_555
H25_2 C37_2 1_555 1_555
C40_2 C12_2 1_555 1_555
H28_2 C40_2 1_555 1_555
N7 Mn7 1_555 1_555
C5_2 C16_2 1_555 1_555
C21_2 C31_2 1_555 1_555
C24_2 C27_2 1_555 1_555
C24_2 C35_2 1_555 1_555
C37_2 C40_2 1_555 1_555
N7 C9_2 1_555 1_555
C17_2 C18_2 1_555 1_555
C18_2 H10_2 1_555 1_555
C19_2 C9_2 1_555 1_555
C29_2 N7 1_555 1_555
H17_2 C29_2 1_555 1_555
C39_2 C18_2 1_555 1_555
H27_2 C39_2 1_555 1_555
C42_2 C17_2 1_555 1_555
H30_2 C42_2 1_555 1_555
C17_2 C19_2 1_555 1_555
C29_2 C42_2 1_555 1_555
N6_2 C70_2 1_555 1_555
C70_2 H46_2 1_555 1_555
C78_2 N6_2 1_555 1_555
H54_2 C78_2 1_555 1_555
H56_2 C80_2 1_555 1_555
C78_2 C80_2 1_555 1_555

#END
