
###############################################################################
#
# This file contains modified crystal structure data generated from the
# MOF subset of the Cambridge Structural Database (CSD) v543 
# hosted by the Cambridge Crystallographic Data Centre (CCDC).
#
# This work is licensed under the Creative Commons
# Attribution-NonCommercial-ShareAlike 4.0 International License.
# To view a copy of this license, visit
# http://creativecommons.org/licenses/by-nc-sa/4.0/
# or send a letter to
# Creative Commons, PO Box 1866, Mountain View, CA 94042, USA.
#
# CIF created using the CSD Python API on 29 September 2022
# The structure has been converted into the P1 space group
# The structure has a 3D framework
# The original CSD entry POSGUB is in the orthorhombic crystal system
# The framework has been calculated to contain at least 10.0% void space
# The void calculation uses a probe of radius 1.32A, grid spacing 0.4
#
###############################################################################

data_POSGUB
_chemical_formula_moiety         '(C80 H56 Co6 N16 O16)n'
_symmetry_cell_setting           triclinic
_symmetry_space_group_name_H-M   'P 1'
_symmetry_Int_Tables_number      1
_space_group_name_Hall           'P 1'
loop_
_symmetry_equiv_pos_site_id
_symmetry_equiv_pos_as_xyz
1 x,y,z
_cell_length_a                   15.9834(15)
_cell_length_b                   15.2006(14)
_cell_length_c                   11.3984(11)
_cell_angle_alpha                90
_cell_angle_beta                 90
_cell_angle_gamma                90
_cell_volume                     2769.32
loop_
_atom_site_label
_atom_site_type_symbol
_atom_site_fract_x
_atom_site_fract_y
_atom_site_fract_z
C1 C 0.44756(14) 0.24425(14) 0.5847(2)
C2 C 0.52964(16) 0.21691(16) 0.6046(2)
H1 H 0.5394 0.1647 0.6450
C3 C 0.59557(15) 0.26519(17) 0.5660(2)
H2 H 0.6496 0.2452 0.5806
C4 C 0.58470(14) 0.34342(14) 0.5055(2)
C5 C 0.50282(14) 0.37207(15) 0.4877(2)
H3 H 0.4935 0.4248 0.4484
C6 C 0.43615(15) 0.32452(15) 0.5267(2)
H4 H 0.3823 0.3457 0.5146
C7 C 0.37645(14) 0.19226(14) 0.6276(2)
C8 C 0.24681(14) 0.15634(19) 0.6651(2)
H5 H 0.1887 0.1582 0.6662
C9 C 0.37312(14) 0.11710(14) 0.6942(2)
H6 H 0.4193 0.0852 0.7196
C10 C 0.65695(14) 0.39430(14) 0.4593(2)
Co1 Co 0.2500 -0.0000 0.82802(4)
N1 N 0.29139(12) 0.09623(11) 0.71759(17)
N2 N 0.29489(12) 0.21502(12) 0.60936(18)
H7 H 0.2775 0.2593 0.5692
O1 O 0.64228(11) 0.46140(12) 0.39679(17)
O2 O 0.73046(10) 0.37006(11) 0.48056(19)
Co3 Co 0.7500 0.5000 0.32802(4)
O5 O 0.14228(11) 0.03860(12) 0.89679(17)
C12 C 0.97036(16) 0.78309(16) 0.6046(2)
H8 H 0.9606 0.8353 0.6450
C13 C 0.90443(15) 0.73481(17) 0.5660(2)
H9 H 0.8504 0.7548 0.5806
C14 C 0.91530(14) 0.65658(14) 0.5055(2)
C15 C 0.99718(14) 0.62793(15) 0.4877(2)
C20 C 0.84305(14) 0.60570(14) 0.4593(2)
O3 O 0.85772(11) 0.53860(12) 0.39679(17)
O4 O 0.76954(10) 0.62994(11) 0.48056(19)
C5_2 C 0.00282(14) 0.12793(15) 0.9877(2)
C10_2 C 0.15695(14) 0.10570(14) 0.9593(2)
O2_2 O 0.23046(10) 0.12994(11) 0.98056(19)
C1_2 C 0.94756(14) 0.25575(14) 0.0847(2)
C6_2 C 0.93615(15) 0.17548(15) 0.0267(2)
H4_2 H 0.8823 0.1543 0.0146
C7_2 C 0.87645(14) 0.30774(14) 0.1276(2)
C8_2 C 0.74681(14) 0.34366(19) 0.1651(2)
H5_2 H 0.6887 0.3418 0.1662
C9_2 C 0.87312(14) 0.38290(14) 0.1942(2)
H6_2 H 0.9193 0.4148 0.2196
N1_2 N 0.79139(12) 0.40377(11) 0.21759(17)
N2_2 N 0.79489(12) 0.28498(12) 0.10936(18)
H7_2 H 0.7775 0.2407 0.0692
C11 C 0.55244(14) 0.74425(14) 0.0847(2)
C12_2 C 0.47036(16) 0.71691(16) 0.1046(2)
H8_2 H 0.4606 0.6647 0.1450
C13_2 C 0.40443(15) 0.76519(17) 0.0660(2)
H9_2 H 0.3504 0.7452 0.0806
C14_2 C 0.41530(14) 0.84342(14) 0.0055(2)
C16 C 0.56385(15) 0.82452(15) 0.0267(2)
H11 H 0.6177 0.8457 0.0146
C17 C 0.62355(14) 0.69226(14) 0.1276(2)
C18 C 0.75319(14) 0.65634(19) 0.1651(2)
H12 H 0.8113 0.6582 0.1662
C19 C 0.62688(14) 0.61710(14) 0.1942(2)
H13 H 0.5807 0.5852 0.2196
N3 N 0.70861(12) 0.59623(11) 0.21759(17)
N4 N 0.70511(12) 0.71502(12) 0.10936(18)
H14 H 0.7225 0.7593 0.0692
Co1_2 Co 0.2500 1.0000 0.82802(4)
C11_2 C 0.05244(14) 0.75575(14) 0.5847(2)
H10 H 0.0065 0.5752 0.4484
C16_2 C 0.06385(15) 0.67548(15) 0.5267(2)
H11_2 H 0.1177 0.6543 0.5146
C17_2 C 0.12355(14) 0.80774(14) 0.6276(2)
C18_2 C 0.25319(14) 0.84366(19) 0.6651(2)
H12_2 H 0.3113 0.8418 0.6662
C19_2 C 0.12688(14) 0.88290(14) 0.6942(2)
H13_2 H 0.0807 0.9148 0.7196
N3_2 N 0.20861(12) 0.90377(11) 0.71759(17)
N4_2 N 0.20511(12) 0.78498(12) 0.60936(18)
H14_2 H 0.2225 0.7407 0.5692
O6 O 0.35772(11) 0.96140(12) 0.89679(17)
H3_2 H 0.9935 0.0752 0.9484
C15_2 C 0.49718(14) 0.87207(15) 0.9877(2)
H10_2 H 0.5065 0.9248 0.9484
C20_2 C 0.34305(14) 0.89430(14) 0.9593(2)
O4_2 O 0.26954(10) 0.87006(11) 0.98056(19)
H3_3 H 0.0065 0.9248 0.0516
C15_3 C 0.50282(14) 0.12793(15) 0.0123(2)
H10_3 H 0.4935 0.0752 0.0516
C20_3 C 0.65695(14) 0.10570(14) 0.0407(2)
O3_2 O 0.64228(11) 0.03860(12) 0.10321(17)
O4_3 O 0.73046(10) 0.12994(11) 0.01944(19)
Co2 Co 0.7500 -0.0000 0.17198(4)
C11_3 C 0.94756(14) 0.24425(14) 0.4153(2)
H10_4 H 0.9935 0.4248 0.5516
C16_3 C 0.93615(15) 0.32452(15) 0.4733(2)
H11_3 H 0.8823 0.3457 0.4854
C17_3 C 0.87645(14) 0.19226(14) 0.3724(2)
C18_3 C 0.74681(14) 0.15634(19) 0.3349(2)
H12_3 H 0.6887 0.1582 0.3338
C19_3 C 0.87312(14) 0.11710(14) 0.3058(2)
H13_3 H 0.9193 0.0852 0.2804
N3_3 N 0.79139(12) 0.09623(11) 0.28241(17)
N4_3 N 0.79489(12) 0.21502(12) 0.39064(18)
H14_3 H 0.7775 0.2593 0.4308
C1_3 C 0.05244(14) 0.74425(14) 0.9153(2)
C6_3 C 0.06385(15) 0.82452(15) 0.9733(2)
H4_3 H 0.1177 0.8457 0.9854
C7_3 C 0.12355(14) 0.69226(14) 0.8724(2)
C8_3 C 0.25319(14) 0.65634(19) 0.8349(2)
H5_3 H 0.3113 0.6582 0.8338
C9_3 C 0.12688(14) 0.61710(14) 0.8058(2)
H6_3 H 0.0807 0.5852 0.7804
Co1_3 Co 0.2500 0.5000 0.67198(4)
N1_3 N 0.20861(12) 0.59623(11) 0.78241(17)
N2_3 N 0.20511(12) 0.71502(12) 0.89064(18)
H7_3 H 0.2225 0.7593 0.9308
C11_4 C 0.44756(14) 0.25575(14) 0.9153(2)
C12_3 C 0.52964(16) 0.28309(16) 0.8954(2)
H8_3 H 0.5394 0.3353 0.8550
C13_3 C 0.59557(15) 0.23481(17) 0.9340(2)
H9_3 H 0.6496 0.2548 0.9194
C14_3 C 0.58470(14) 0.15658(14) 0.9945(2)
C16_4 C 0.43615(15) 0.17548(15) 0.9733(2)
H11_4 H 0.3823 0.1543 0.9854
C17_4 C 0.37645(14) 0.30774(14) 0.8724(2)
C18_4 C 0.24681(14) 0.34366(19) 0.8349(2)
H12_4 H 0.1887 0.3418 0.8338
C19_4 C 0.37312(14) 0.38290(14) 0.8058(2)
H13_4 H 0.4193 0.4148 0.7804
N3_4 N 0.29139(12) 0.40377(11) 0.78241(17)
N4_4 N 0.29489(12) 0.28498(12) 0.89064(18)
H14_4 H 0.2775 0.2407 0.9308
O5_2 O 0.35772(11) 0.53860(12) 0.60321(17)
O6_2 O 0.14228(11) 0.46140(12) 0.60321(17)
Co2_2 Co 0.7500 1.0000 0.17198(4)
C5_3 C 0.99718(14) 0.87207(15) 0.0123(2)
C10_3 C 0.84305(14) 0.89430(14) 0.0407(2)
O1_2 O 0.85772(11) 0.96140(12) 0.10321(17)
O2_3 O 0.76954(10) 0.87006(11) 0.01944(19)
C12_4 C 0.02964(16) 0.21691(16) 0.3954(2)
H8_4 H 0.0394 0.1647 0.3550
C13_4 C 0.09557(15) 0.26519(17) 0.4340(2)
H9_4 H 0.1496 0.2452 0.4194
C14_4 C 0.08470(14) 0.34342(14) 0.4945(2)
C15_4 C 0.00282(14) 0.37207(15) 0.5123(2)
C20_4 C 0.15695(14) 0.39430(14) 0.5407(2)
O4_4 O 0.23046(10) 0.37006(11) 0.51944(19)
C1_4 C 0.55244(14) 0.75575(14) 0.4153(2)
C2_2 C 0.47036(16) 0.78309(16) 0.3954(2)
H1_2 H 0.4606 0.8353 0.3550
C3_2 C 0.40443(15) 0.73481(17) 0.4340(2)
H2_2 H 0.3504 0.7548 0.4194
C4_2 C 0.41530(14) 0.65658(14) 0.4945(2)
C5_4 C 0.49718(14) 0.62793(15) 0.5123(2)
H3_4 H 0.5065 0.5752 0.5516
C6_4 C 0.56385(15) 0.67548(15) 0.4733(2)
H4_4 H 0.6177 0.6543 0.4854
C7_4 C 0.62355(14) 0.80774(14) 0.3724(2)
C8_4 C 0.75319(14) 0.84366(19) 0.3349(2)
H5_4 H 0.8113 0.8418 0.3338
C9_4 C 0.62688(14) 0.88290(14) 0.3058(2)
H6_4 H 0.5807 0.9148 0.2804
C10_4 C 0.34305(14) 0.60570(14) 0.5407(2)
N1_4 N 0.70861(12) 0.90377(11) 0.28241(17)
N2_4 N 0.70511(12) 0.78498(12) 0.39064(18)
H7_4 H 0.7225 0.7407 0.4308
O2_4 O 0.26954(10) 0.62994(11) 0.51944(19)
C2_3 C 0.97036(16) 0.71691(16) 0.8954(2)
H1_3 H 0.9606 0.6647 0.8550
C3_3 C 0.90443(15) 0.76519(17) 0.9340(2)
H2_3 H 0.8504 0.7452 0.9194
C4_3 C 0.91530(14) 0.84342(14) 0.9945(2)
C2_4 C 0.02964(16) 0.28309(16) 0.1046(2)
H1_4 H 0.0394 0.3353 0.1450
C3_4 C 0.09557(15) 0.23481(17) 0.0660(2)
H2_4 H 0.1496 0.2548 0.0806
C4_4 C 0.08470(14) 0.15658(14) 0.0055(2)
loop_
_geom_bond_atom_site_label_1
_geom_bond_atom_site_label_2
_geom_bond_site_symmetry_1
_geom_bond_site_symmetry_2
C1 C2 1_555 1_555
C2 H1 1_555 1_555
C3 C2 1_555 1_555
H2 C3 1_555 1_555
C4 C3 1_555 1_555
C5 C4 1_555 1_555
H3 C5 1_555 1_555
C6 C1 1_555 1_555
H4 C6 1_555 1_555
C7 C1 1_555 1_555
C8 H5 1_555 1_555
C9 C7 1_555 1_555
H6 C9 1_555 1_555
C10 C4 1_555 1_555
Co1 N1 1_555 1_555
N1 C8 1_555 1_555
N2 C7 1_555 1_555
H7 N2 1_555 1_555
O1 C10 1_555 1_555
O2 C10 1_555 1_555
Co3 O1 1_555 1_555
O5 Co1 1_555 1_555
C5 C6 1_555 1_555
C8 N2 1_555 1_555
C9 N1 1_555 1_555
C12 H8 1_555 1_555
C13 C12 1_555 1_555
H9 C13 1_555 1_555
C14 C13 1_555 1_555
C15 C14 1_555 1_555
C20 C14 1_555 1_555
O3 C20 1_555 1_555
O4 C20 1_555 1_555
Co3 O3 1_555 1_555
O5 C10_2 1_555 1_555
O2_2 C10_2 1_555 1_555
C6_2 C1_2 1_555 1_555
H4_2 C6_2 1_555 1_555
C7_2 C1_2 1_555 1_555
C8_2 H5_2 1_555 1_555
C9_2 C7_2 1_555 1_555
H6_2 C9_2 1_555 1_555
Co3 N1_2 1_555 1_555
N1_2 C8_2 1_555 1_555
N2_2 C7_2 1_555 1_555
H7_2 N2_2 1_555 1_555
C11 C12_2 1_555 1_555
C12_2 H8_2 1_555 1_555
C13_2 C12_2 1_555 1_555
H9_2 C13_2 1_555 1_555
C14_2 C13_2 1_555 1_555
C16 C11 1_555 1_555
H11 C16 1_555 1_555
C17 C11 1_555 1_555
C18 H12 1_555 1_555
C19 C17 1_555 1_555
H13 C19 1_555 1_555
N3 Co3 1_555 1_555
N4 C17 1_555 1_555
H14 N4 1_555 1_555
C8_2 N2_2 1_555 1_555
C9_2 N1_2 1_555 1_555
C18 N3 1_555 1_555
C18 N4 1_555 1_555
C19 N3 1_555 1_555
C16_2 C11_2 1_555 1_555
H11_2 C16_2 1_555 1_555
C17_2 C11_2 1_555 1_555
C18_2 H12_2 1_555 1_555
C19_2 C17_2 1_555 1_555
H13_2 C19_2 1_555 1_555
N3_2 Co1_2 1_555 1_555
N4_2 C17_2 1_555 1_555
H14_2 N4_2 1_555 1_555
O6 Co1_2 1_555 1_555
C18_2 N3_2 1_555 1_555
C18_2 N4_2 1_555 1_555
C19_2 N3_2 1_555 1_555
H10_2 C15_2 1_555 1_555
O6 C20_2 1_555 1_555
O4_2 C20_2 1_555 1_555
H10_3 C15_3 1_555 1_555
O3_2 C20_3 1_555 1_555
O4_3 C20_3 1_555 1_555
Co2 O3_2 1_555 1_555
C16_3 C11_3 1_555 1_555
H11_3 C16_3 1_555 1_555
C17_3 C11_3 1_555 1_555
C18_3 H12_3 1_555 1_555
C19_3 C17_3 1_555 1_555
H13_3 C19_3 1_555 1_555
N3_3 Co2 1_555 1_555
N4_3 C17_3 1_555 1_555
H14_3 N4_3 1_555 1_555
C18_3 N3_3 1_555 1_555
C18_3 N4_3 1_555 1_555
C19_3 N3_3 1_555 1_555
C6_3 C1_3 1_555 1_555
H4_3 C6_3 1_555 1_555
C7_3 C1_3 1_555 1_555
C8_3 H5_3 1_555 1_555
C9_3 C7_3 1_555 1_555
H6_3 C9_3 1_555 1_555
Co1_3 N1_3 1_555 1_555
N1_3 C8_3 1_555 1_555
N2_3 C7_3 1_555 1_555
H7_3 N2_3 1_555 1_555
C11_4 C12_3 1_555 1_555
C12_3 H8_3 1_555 1_555
C13_3 C12_3 1_555 1_555
H9_3 C13_3 1_555 1_555
C14_3 C13_3 1_555 1_555
C16_4 C11_4 1_555 1_555
H11_4 C16_4 1_555 1_555
C17_4 C11_4 1_555 1_555
C18_4 H12_4 1_555 1_555
C19_4 C17_4 1_555 1_555
H13_4 C19_4 1_555 1_555
N3_4 Co1_3 1_555 1_555
N4_4 C17_4 1_555 1_555
H14_4 N4_4 1_555 1_555
O5_2 Co1_3 1_555 1_555
O6_2 Co1_3 1_555 1_555
C8_3 N2_3 1_555 1_555
C9_3 N1_3 1_555 1_555
C18_4 N3_4 1_555 1_555
C18_4 N4_4 1_555 1_555
C19_4 N3_4 1_555 1_555
O1_2 C10_3 1_555 1_555
O2_3 C10_3 1_555 1_555
Co2_2 O1_2 1_555 1_555
C12_4 H8_4 1_555 1_555
C13_4 C12_4 1_555 1_555
H9_4 C13_4 1_555 1_555
C14_4 C13_4 1_555 1_555
C15_4 C14_4 1_555 1_555
C20_4 C14_4 1_555 1_555
O6_2 C20_4 1_555 1_555
O4_4 C20_4 1_555 1_555
C1_4 C2_2 1_555 1_555
C2_2 H1_2 1_555 1_555
C3_2 C2_2 1_555 1_555
H2_2 C3_2 1_555 1_555
C4_2 C3_2 1_555 1_555
C5_4 C4_2 1_555 1_555
H3_4 C5_4 1_555 1_555
C6_4 C1_4 1_555 1_555
H4_4 C6_4 1_555 1_555
C7_4 C1_4 1_555 1_555
C8_4 H5_4 1_555 1_555
C9_4 C7_4 1_555 1_555
H6_4 C9_4 1_555 1_555
C10_4 C4_2 1_555 1_555
Co2_2 N1_4 1_555 1_555
N1_4 C8_4 1_555 1_555
N2_4 C7_4 1_555 1_555
H7_4 N2_4 1_555 1_555
O5_2 C10_4 1_555 1_555
O2_4 C10_4 1_555 1_555
C5_4 C6_4 1_555 1_555
C8_4 N2_4 1_555 1_555
C9_4 N1_4 1_555 1_555
C2_3 H1_3 1_555 1_555
C3_3 C2_3 1_555 1_555
H2_3 C3_3 1_555 1_555
C4_3 C3_3 1_555 1_555
C2_4 H1_4 1_555 1_555
C3_4 C2_4 1_555 1_555
H2_4 C3_4 1_555 1_555
C4_4 C3_4 1_555 1_555

#END
