
###############################################################################
#
# This file contains modified crystal structure data generated from the
# MOF subset of the Cambridge Structural Database (CSD) v543 
# hosted by the Cambridge Crystallographic Data Centre (CCDC).
#
# This work is licensed under the Creative Commons
# Attribution-NonCommercial-ShareAlike 4.0 International License.
# To view a copy of this license, visit
# http://creativecommons.org/licenses/by-nc-sa/4.0/
# or send a letter to
# Creative Commons, PO Box 1866, Mountain View, CA 94042, USA.
#
# CIF created using the CSD Python API on 29 September 2022
# The structure has been converted into the P1 space group
# The structure has a 3D framework
# The original CSD entry POSXED is in the monoclinic crystal system
# The framework has been calculated to contain at least 10.0% void space
# The void calculation uses a probe of radius 1.32A, grid spacing 0.4
#
###############################################################################

data_POSXED
_chemical_formula_moiety         '(C44 H28 N12 O24 Tm4)n'
_symmetry_cell_setting           triclinic
_symmetry_space_group_name_H-M   'P 1'
_symmetry_Int_Tables_number      1
_space_group_name_Hall           'P 1'
loop_
_symmetry_equiv_pos_site_id
_symmetry_equiv_pos_as_xyz
1 x,y,z
_cell_length_a                   8.3060(3)
_cell_length_b                   14.4387(5)
_cell_length_c                   11.4030(4)
_cell_angle_alpha                90
_cell_angle_beta                 90.666(3)
_cell_angle_gamma                90
_cell_volume                     1367.44
loop_
_atom_site_label
_atom_site_type_symbol
_atom_site_fract_x
_atom_site_fract_y
_atom_site_fract_z
O13 O 0.1167(5) 0.0072(3) 0.1640(3)
Tm6 Tm 0.22496(2) 0.13164(2) 0.06561(2)
Tm1 Tm 0.22496(2) 0.36836(2) 0.56561(2)
N1 N 0.0466(5) 0.2407(3) 0.6278(4)
O1 O 0.2376(4) 0.3360(3) 0.7662(3)
O2 O 0.2259(4) 0.2384(3) 0.9144(3)
O3 O 0.0141(4) 0.0910(3) 0.9561(3)
O5 O 0.4444(4) 0.4582(3) 0.6353(3)
O6 O 0.6476(4) 0.5522(3) 0.5880(3)
O7 O 0.4429(4) 0.2702(3) 0.5912(3)
H2 H 0.447069 0.252246 0.662133
H3 H 0.431669 0.223466 0.546403
C1 C 0.1884(5) 0.2628(4) 0.8138(4)
C2 C 0.0796(6) 0.2060(4) 0.7380(4)
C11 C 0.5246(6) 0.5031(4) 0.5622(5)
O8 O 0.5556(4) 0.5418(3) 0.3647(3)
O9 O 0.3524(4) 0.4478(3) 0.4120(3)
C12 C 0.4754(6) 0.4969(4) 0.4378(5)
Tm2 Tm 0.77504(2) 0.63164(2) 0.43439(2)
N4 N 0.9534(5) 0.7593(3) 0.3722(4)
O10 O 0.7624(4) 0.6640(3) 0.2338(3)
O11 O 0.7741(4) 0.7616(3) 0.0856(3)
O12 O 0.9859(4) 0.9090(3) 0.0439(3)
O14 O 0.5571(4) 0.7298(3) 0.4088(3)
H9 H 0.552931 0.747754 0.337867
H10 H 0.568331 0.776534 0.453597
C13 C 0.8116(5) 0.7372(4) 0.1862(4)
C14 C 0.9204(6) 0.7940(4) 0.2620(4)
O15 O 0.7741(4) 0.7384(3) 0.5856(3)
O16 O 0.2259(4) 0.2616(3) 0.4144(3)
O17 O 0.9859(4) 0.5910(3) 0.5439(3)
O18 O 0.0141(4) 0.4090(3) 0.4561(3)
O19 O 0.1167(5) 0.4928(3) 0.6640(3)
O20 O 0.8833(5) 0.5072(3) 0.3360(3)
Tm4 Tm 0.77504(2) 0.86836(2) 0.93439(2)
O4 O 0.8833(5) 0.9928(3) 0.8360(3)
N2 N 0.0850(5) 0.6095(3) 0.8483(4)
H1 H 0.145154 0.562542 0.863917
C3 C 0.0038(6) 0.6250(4) 0.7459(4)
C4 C 0.0546(6) 0.6806(4) 0.9208(4)
H7 H 0.250690 0.811502 0.998582
C10 C 0.0345(6) 0.5645(4) 0.6429(5)
O8_2 O 0.4444(4) 0.0418(3) 0.1353(3)
N4_2 N 0.0466(5) 0.2593(3) 0.1278(4)
O10_2 O 0.2376(4) 0.1640(3) 0.2662(3)
O14_2 O 0.4429(4) 0.2298(3) 0.0912(3)
H9_2 H 0.447069 0.247754 0.162133
H10_2 H 0.431669 0.276534 0.046403
C13_2 C 0.1884(5) 0.2372(4) 0.3138(4)
C14_2 C 0.0796(6) 0.2940(4) 0.2380(4)
O6_2 O 0.3524(4) 0.0522(3) 0.9120(3)
C11_2 C 0.4754(6) 0.0031(4) 0.9378(5)
O9_2 O 0.6476(4) 0.9478(3) 0.0880(3)
C12_2 C 0.5246(6) 0.9969(4) 0.0622(5)
N1_2 N 0.9534(5) 0.7407(3) 0.8722(4)
O1_2 O 0.7624(4) 0.8360(3) 0.7338(3)
O5_2 O 0.5556(4) 0.9582(3) 0.8647(3)
O7_2 O 0.5571(4) 0.7702(3) 0.9088(3)
H2_2 H 0.552931 0.752246 0.837867
H3_2 H 0.568331 0.723466 0.953597
C1_2 C 0.8116(5) 0.7628(4) 0.6862(4)
C2_2 C 0.9204(6) 0.7060(4) 0.7620(4)
N5 N 0.9150(5) 0.3905(3) 0.1517(4)
H8 H 0.854846 0.437458 0.136083
C15 C 0.9962(6) 0.3750(4) 0.2541(4)
C16 C 0.9454(6) 0.3194(4) 0.0792(4)
H14 H 0.749310 0.188498 0.001418
C22 C 0.9655(6) 0.4355(4) 0.3571(5)
N5_2 N 0.0850(5) 0.8905(3) 0.3483(4)
H8_2 H 0.145154 0.937458 0.363917
N6 N 0.3269(6) 0.7956(4) 0.7398(5)
C15_2 C 0.0038(6) 0.8750(4) 0.2459(4)
C16_2 C 0.0546(6) 0.8194(4) 0.4208(4)
C17 C 0.1445(6) 0.8105(4) 0.5336(5)
C18 C 0.1366(7) 0.8791(4) 0.6196(5)
H11 H 0.070704 0.930653 0.609358
C19 C 0.2292(7) 0.8687(5) 0.7204(6)
H12 H 0.223755 0.914473 0.777633
C20 C 0.3347(7) 0.7317(5) 0.6575(5)
H13 H 0.403706 0.681742 0.669008
C21 C 0.2439(6) 0.7358(5) 0.5536(5)
H14_2 H 0.250690 0.688498 0.498582
C22_2 C 0.0345(6) 0.9355(4) 0.1429(5)
N2_2 N 0.9150(5) 0.1095(3) 0.6517(4)
H1_2 H 0.854846 0.062542 0.636083
N3 N 0.6731(6) 0.2044(4) 0.2602(5)
C3_2 C 0.9962(6) 0.1250(4) 0.7541(4)
C4_2 C 0.9454(6) 0.1806(4) 0.5792(4)
C5 C 0.8555(6) 0.1895(4) 0.4664(5)
C6 C 0.8634(7) 0.1209(4) 0.3804(5)
H4 H 0.929296 0.069347 0.390642
C7 C 0.7708(7) 0.1313(5) 0.2796(6)
H5 H 0.776245 0.085527 0.222367
C8 C 0.6653(7) 0.2683(5) 0.3425(5)
H6 H 0.596294 0.318258 0.330992
C9 C 0.7561(6) 0.2642(5) 0.4464(5)
H7_2 H 0.749310 0.311502 0.501418
C10_2 C 0.9655(6) 0.0645(4) 0.8571(5)
N3_2 N 0.3269(6) 0.7044(4) 0.2398(5)
C5_2 C 0.1445(6) 0.6895(4) 0.0336(5)
C6_2 C 0.1366(7) 0.6209(4) 0.1196(5)
H4_2 H 0.070704 0.569347 0.109358
C7_2 C 0.2292(7) 0.6313(5) 0.2204(6)
H5_2 H 0.223755 0.585527 0.277633
C8_2 C 0.3347(7) 0.7683(5) 0.1575(5)
H6_2 H 0.403706 0.818258 0.169008
C9_2 C 0.2439(6) 0.7642(5) 0.0536(5)
N6_2 N 0.6731(6) 0.2956(4) 0.7602(5)
C17_2 C 0.8555(6) 0.3105(4) 0.9664(5)
C18_2 C 0.8634(7) 0.3791(4) 0.8804(5)
H11_2 H 0.929296 0.430653 0.890642
C19_2 C 0.7708(7) 0.3687(5) 0.7796(6)
H12_2 H 0.776245 0.414473 0.722367
C20_2 C 0.6653(7) 0.2317(5) 0.8425(5)
H13_2 H 0.596294 0.181742 0.830992
C21_2 C 0.7561(6) 0.2358(5) 0.9464(5)
loop_
_geom_bond_atom_site_label_1
_geom_bond_atom_site_label_2
_geom_bond_site_symmetry_1
_geom_bond_site_symmetry_2
Tm6 O13 1_555 1_555
Tm1 N1 1_555 1_555
N1 C2 1_555 1_555
O1 Tm1 1_555 1_555
O2 C1 1_555 1_555
O5 Tm1 1_555 1_555
O6 C11 1_555 1_555
O7 Tm1 1_555 1_555
H2 O7 1_555 1_555
H3 O7 1_555 1_555
C1 O1 1_555 1_555
C2 C1 1_555 1_555
C11 O5 1_555 1_555
O8 C12 1_555 1_555
O9 Tm1 1_555 1_555
C12 C11 1_555 1_555
Tm2 O6 1_555 1_555
N4 Tm2 1_555 1_555
O10 Tm2 1_555 1_555
O11 C13 1_555 1_555
O14 Tm2 1_555 1_555
H9 O14 1_555 1_555
H10 O14 1_555 1_555
C13 O10 1_555 1_555
C14 N4 1_555 1_555
O15 Tm2 1_555 1_555
O16 Tm1 1_555 1_555
O17 Tm2 1_555 1_555
O18 Tm1 1_555 1_555
O19 Tm1 1_555 1_555
O20 Tm2 1_555 1_555
O8 Tm2 1_555 1_555
O9 C12 1_555 1_555
C13 C14 1_555 1_555
Tm4 O4 1_555 1_555
N2 H1 1_555 1_555
O19 C10 1_555 1_555
C3 N2 1_555 1_555
C10 C3 1_555 1_555
N2 C4 1_555 1_555
N4_2 Tm6 1_555 1_555
O10_2 Tm6 1_555 1_555
O16 C13_2 1_555 1_555
O14_2 Tm6 1_555 1_555
H9_2 O14_2 1_555 1_555
H10_2 O14_2 1_555 1_555
C13_2 O10_2 1_555 1_555
C14_2 N4_2 1_555 1_555
O8_2 Tm6 1_555 1_555
C13_2 C14_2 1_555 1_555
O6_2 C11_2 1_555 1_555
O9_2 C12_2 1_555 1_555
Tm4 N1_2 1_555 1_555
N1_2 C2_2 1_555 1_555
O1_2 Tm4 1_555 1_555
O15 C1_2 1_555 1_555
O5_2 Tm4 1_555 1_555
O7_2 Tm4 1_555 1_555
H2_2 O7_2 1_555 1_555
H3_2 O7_2 1_555 1_555
C1_2 O1_2 1_555 1_555
C2_2 C1_2 1_555 1_555
N5 H8 1_555 1_555
O20 C22 1_555 1_555
C15 N5 1_555 1_555
C22 C15 1_555 1_555
N5 C16 1_555 1_555
N5_2 H8_2 1_555 1_555
N6 C19 1_555 1_555
C15_2 N5_2 1_555 1_555
C17 C16_2 1_555 1_555
C18 C17 1_555 1_555
H11 C18 1_555 1_555
C19 C18 1_555 1_555
H12 C19 1_555 1_555
C20 N6 1_555 1_555
H13 C20 1_555 1_555
C21 C17 1_555 1_555
H14_2 C21 1_555 1_555
C22_2 C15_2 1_555 1_555
N5_2 C16_2 1_555 1_555
C20 C21 1_555 1_555
N2_2 H1_2 1_555 1_555
N3 C7 1_555 1_555
C3_2 N2_2 1_555 1_555
C5 C4_2 1_555 1_555
C6 C5 1_555 1_555
H4 C6 1_555 1_555
C7 C6 1_555 1_555
H5 C7 1_555 1_555
C8 N3 1_555 1_555
H6 C8 1_555 1_555
C9 C5 1_555 1_555
H7_2 C9 1_555 1_555
C10_2 C3_2 1_555 1_555
N2_2 C4_2 1_555 1_555
C8 C9 1_555 1_555
N3_2 C7_2 1_555 1_555
C6_2 C5_2 1_555 1_555
H4_2 C6_2 1_555 1_555
C7_2 C6_2 1_555 1_555
H5_2 C7_2 1_555 1_555
C8_2 N3_2 1_555 1_555
H6_2 C8_2 1_555 1_555
C9_2 C5_2 1_555 1_555
C8_2 C9_2 1_555 1_555
N6_2 C19_2 1_555 1_555
C18_2 C17_2 1_555 1_555
H11_2 C18_2 1_555 1_555
C19_2 C18_2 1_555 1_555
H12_2 C19_2 1_555 1_555
C20_2 N6_2 1_555 1_555
H13_2 C20_2 1_555 1_555
C21_2 C17_2 1_555 1_555
C20_2 C21_2 1_555 1_555

#END
