
###############################################################################
#
# This file contains modified crystal structure data generated from the
# MOF subset of the Cambridge Structural Database (CSD) v543 
# hosted by the Cambridge Crystallographic Data Centre (CCDC).
#
# This work is licensed under the Creative Commons
# Attribution-NonCommercial-ShareAlike 4.0 International License.
# To view a copy of this license, visit
# http://creativecommons.org/licenses/by-nc-sa/4.0/
# or send a letter to
# Creative Commons, PO Box 1866, Mountain View, CA 94042, USA.
#
# CIF created using the CSD Python API on 29 September 2022
# The structure has been converted into the P1 space group
# The structure has a 3D framework
# The original CSD entry POTYUV is in the monoclinic crystal system
# The framework has been calculated to contain at least 10.0% void space
# The void calculation uses a probe of radius 1.32A, grid spacing 0.4
#
###############################################################################

data_POTYUV
_chemical_formula_moiety         '(C136 H76 Dy4 O32 S16)n'
_symmetry_cell_setting           triclinic
_symmetry_space_group_name_H-M   'P 1'
_symmetry_Int_Tables_number      1
_space_group_name_Hall           'P 1'
loop_
_symmetry_equiv_pos_site_id
_symmetry_equiv_pos_as_xyz
1 x,y,z
_cell_length_a                   20.8560(4)
_cell_length_b                   10.30930(10)
_cell_length_c                   21.1597(4)
_cell_angle_alpha                90
_cell_angle_beta                 116.201(2)
_cell_angle_gamma                90
_cell_volume                     4082.1
loop_
_atom_site_label
_atom_site_type_symbol
_atom_site_fract_x
_atom_site_fract_y
_atom_site_fract_z
Dy3 Dy 0.49422(2) 0.27662(2) 0.03620(2)
O2 O 0.09798(12) 0.1249(2) 0.54067(12)
O3 O 0.49774(13) 0.1997(2) 0.93002(13)
O4 O 0.60813(13) 0.2303(3) 0.94123(13)
H1 H 0.6118 0.2745 0.9749
C1 C 0.12259(19) 0.0097(3) 0.54939(17)
C6 C 0.31219(19) 0.0805(4) 0.57610(19)
H6 H 0.3406 0.1515 0.5785
C7 C 0.2427(2) 0.0996(4) 0.56786(19)
H7 H 0.2250 0.1833 0.5648
C12 C 0.4440(2) 0.0012(4) 0.73967(19)
C13 C 0.46112(19) 0.0597(3) 0.80406(19)
H9 H 0.4274 0.0623 0.8217
C14 C 0.5280(2) 0.1145(3) 0.84254(18)
C15 C 0.5791(2) 0.1073(4) 0.81690(19)
H10 H 0.6245 0.1417 0.8428
C16 C 0.56165(19) 0.0486(4) 0.75248(18)
H11 H 0.5960 0.0425 0.7358
C17 C 0.54263(19) 0.1845(3) 0.90849(18)
Dy1 Dy 0.00578(2) 0.77662(2) 0.46380(2)
S1 S 0.40837(5) 0.87819(11) 0.50526(5)
S2 S 0.55016(5) 0.90427(11) 0.62531(5)
S3 S 0.48149(6) 0.71010(12) 0.42194(5)
S4 S 0.61899(5) 0.71735(12) 0.55039(5)
O1 O 0.08708(12) 0.9108(2) 0.54568(12)
O5 O 0.90780(13) 0.3921(2) 0.48790(14)
O6 O 0.90791(14) 0.2879(3) 0.57799(14)
O7 O 0.55960(13) 0.2934(2) 0.16311(12)
O8 O 0.48701(14) 0.4525(2) 0.10531(13)
C2 C 0.19984(19) 0.9939(3) 0.56427(18)
C3 C 0.22742(19) 0.8694(4) 0.57111(18)
H4 H 0.1998 0.7983 0.5707
C4 C 0.2966(2) 0.8510(4) 0.57860(19)
H5 H 0.3145 0.7673 0.5822
C5 C 0.33900(18) 0.9557(4) 0.58079(17)
C8 C 0.41118(19) 0.9322(3) 0.58535(18)
C9 C 0.49968(19) 0.8378(4) 0.54137(19)
C10 C 0.47578(19) 0.9457(4) 0.64091(19)
C11 C 0.49328(19) 0.9982(3) 0.71190(18)
H8 H 0.3992 0.9637 0.7148
C18 C 0.5284(2) 0.7654(4) 0.5091(2)
C19 C 0.5516(2) 0.6146(4) 0.42242(19)
C20 C 0.6138(2) 0.6161(4) 0.48108(19)
C21 C 0.6810(2) 0.5503(4) 0.49296(19)
C22 C 0.7083(2) 0.5593(4) 0.4436(2)
H12 H 0.6832 0.6056 0.4022
C23 C 0.7722(2) 0.5002(4) 0.4555(2)
H13 H 0.7895 0.5064 0.4219
C24 C 0.81025(19) 0.4321(4) 0.5169(2)
C25 C 0.7840(2) 0.4209(4) 0.5661(2)
H14 H 0.8089 0.3728 0.6069
C26 C 0.7205(2) 0.4812(4) 0.5550(2)
H15 H 0.7039 0.4756 0.5891
C27 C 0.8803(2) 0.3676(4) 0.52970(19)
C28 C 0.53899(19) 0.5508(4) 0.35546(19)
C29 C 0.5152(3) 0.6251(4) 0.2947(2)
H16 H 0.5028 0.7114 0.2961
C30 C 0.5095(3) 0.5738(4) 0.2327(2)
H17 H 0.4931 0.6250 0.1924
C31 C 0.52815(19) 0.4466(3) 0.23021(18)
C32 C 0.5498(2) 0.3690(4) 0.28959(19)
H18 H 0.5611 0.2823 0.2877
C33 C 0.5544(2) 0.4211(4) 0.3519(2)
H19 H 0.5678 0.3687 0.3915
C34 C 0.52461(19) 0.3952(4) 0.16263(19)
Dy5 Dy 0.99422(2) 0.22338(2) 0.53620(2)
O11 O 0.00226(13) 0.6997(2) 0.56998(13)
O12 O 0.09220(13) 0.6079(2) 0.51210(14)
O13 O 0.09209(14) 0.7121(3) 0.42201(14)
O15 O 0.01299(14) 0.9525(2) 0.39469(13)
O9 O 0.92698(14) 0.6038(2) 0.42546(13)
H2 H 0.8929(15) 0.602(3) 0.3866(12)
H3 H 0.9253(18) 0.544(3) 0.4484(15)
O10 O 0.90202(12) 0.8751(2) 0.45933(12)
O14 O 0.94040(13) 0.7934(2) 0.33689(12)
S3_2 S 0.01851(6) 0.21010(12) 0.07806(5)
O9_2 O 0.57302(14) 0.1038(2) 0.07454(13)
H2_2 H 0.6071(15) 0.102(3) 0.1134(12)
H3_2 H 0.5747(18) 0.044(3) 0.0516(15)
H17_2 H 0.0069 0.1250 0.3076
O10_2 O 0.59798(12) 0.3751(2) 0.04067(12)
O13_2 O 0.40791(14) 0.2121(3) 0.07799(14)
S1_2 S 0.09163(5) 0.37819(11) 0.99474(5)
O1_2 O 0.41292(12) 0.4108(2) 0.95432(12)
O2_2 O 0.40202(12) 0.6249(2) 0.95933(12)
C1_2 C 0.37741(19) 0.5097(3) 0.95061(17)
C2_2 C 0.30016(19) 0.4939(3) 0.93573(18)
C3_2 C 0.27258(19) 0.3694(4) 0.92889(18)
H4_2 H 0.3002 0.2983 0.9293
C4_2 C 0.2034(2) 0.3510(4) 0.92140(19)
H5_2 H 0.1855 0.2673 0.9178
C5_2 C 0.16100(18) 0.4557(4) 0.91921(17)
C6_2 C 0.18781(19) 0.5805(4) 0.92390(19)
H6_2 H 0.1594 0.6515 0.9215
C7_2 C 0.2573(2) 0.5996(4) 0.93214(19)
H7_2 H 0.2750 0.6833 0.9352
C8_2 C 0.08882(19) 0.4322(3) 0.91465(18)
C9_2 C 0.00032(19) 0.3378(4) 0.95863(19)
C10_2 C 0.02422(19) 0.4457(4) 0.85909(19)
C11_2 C 0.00672(19) 0.4982(3) 0.78810(18)
C12_2 C 0.0560(2) 0.5012(4) 0.76033(19)
H8_2 H 0.1008 0.4637 0.7852
C13_2 C 0.03888(19) 0.5597(3) 0.69594(19)
H9_2 H 0.0726 0.5623 0.6783
Dy4 Dy 0.50578(2) 0.72338(2) 0.96380(2)
O12_2 O 0.40780(13) 0.1079(2) 0.98790(14)
O5_2 O 0.59220(13) 0.8921(2) 0.01210(14)
C31_2 C 0.97185(19) 0.9466(3) 0.26979(18)
C32_2 C 0.9502(2) 0.8690(4) 0.21041(19)
H18_2 H 0.9389 0.7823 0.2123
C33_2 C 0.9456(2) 0.9211(4) 0.1481(2)
H19_2 H 0.9322 0.8687 0.1085
C34_2 C 0.97539(19) 0.8952(4) 0.33737(19)
O6_2 O 0.59209(14) 0.7879(3) 0.92201(14)
C24_2 C 0.68975(19) 0.9321(4) 0.9831(2)
C25_2 C 0.7160(2) 0.9209(4) 0.9339(2)
H14_2 H 0.6911 0.8728 0.8931
C26_2 C 0.7795(2) 0.9812(4) 0.9450(2)
H15_2 H 0.7961 0.9756 0.9109
C27_2 C 0.6197(2) 0.8676(4) 0.97030(19)
O9_3 O 0.07302(14) 0.3962(2) 0.57454(13)
H2_3 H 0.1071(15) 0.398(3) 0.6134(12)
H3_3 H 0.0747(18) 0.456(3) 0.5516(15)
O14_2 O 0.05960(13) 0.2066(2) 0.66311(12)
S1_3 S 0.59163(5) 0.12181(11) 0.49474(5)
S2_2 S 0.44984(5) 0.09573(11) 0.37469(5)
S3_3 S 0.51851(6) 0.28990(12) 0.57806(5)
S4_2 S 0.38101(5) 0.28265(12) 0.44961(5)
O1_3 O 0.91292(12) 0.0892(2) 0.45432(12)
O7_2 O 0.44040(13) 0.7066(2) 0.83689(12)
O8_2 O 0.51299(14) 0.5475(2) 0.89469(13)
C2_3 C 0.80016(19) 0.0061(3) 0.43573(18)
C3_3 C 0.77258(19) 0.1306(4) 0.42889(18)
H4_3 H 0.8002 0.2017 0.4293
C4_3 C 0.7034(2) 0.1490(4) 0.42140(19)
H5_3 H 0.6855 0.2327 0.4178
C5_3 C 0.66100(18) 0.0443(4) 0.41921(17)
C8_3 C 0.58882(19) 0.0678(3) 0.41465(18)
C9_3 C 0.50032(19) 0.1622(4) 0.45863(19)
C10_3 C 0.52422(19) 0.0543(4) 0.35909(19)
C11_3 C 0.50672(19) 0.0018(3) 0.28810(18)
H8_3 H 0.6008 0.0363 0.2852
C18_2 C 0.4716(2) 0.2346(4) 0.4909(2)
C19_2 C 0.4484(2) 0.3854(4) 0.57758(19)
C20_2 C 0.3862(2) 0.3839(4) 0.51892(19)
C21_2 C 0.3190(2) 0.4497(4) 0.50704(19)
C22_2 C 0.2917(2) 0.4407(4) 0.5564(2)
H12_2 H 0.3168 0.3944 0.5978
C23_2 C 0.2278(2) 0.4998(4) 0.5445(2)
H13_2 H 0.2105 0.4936 0.5781
C24_3 C 0.18975(19) 0.5679(4) 0.4831(2)
C25_3 C 0.2160(2) 0.5791(4) 0.4339(2)
H14_3 H 0.1911 0.6272 0.3931
C26_3 C 0.2795(2) 0.5188(4) 0.4450(2)
H15_3 H 0.2961 0.5244 0.4109
C27_3 C 0.1197(2) 0.6324(4) 0.47030(19)
C28_2 C 0.46101(19) 0.4492(4) 0.64454(19)
C29_2 C 0.4848(3) 0.3749(4) 0.7053(2)
H16_2 H 0.4972 0.2886 0.7039
C30_2 C 0.4905(3) 0.4262(4) 0.7673(2)
H17_3 H 0.5069 0.3750 0.8076
C31_3 C 0.47185(19) 0.5534(3) 0.76979(18)
C32_3 C 0.4502(2) 0.6310(4) 0.71041(19)
H18_3 H 0.4389 0.7177 0.7123
C33_3 C 0.4456(2) 0.5789(4) 0.6481(2)
H19_3 H 0.4322 0.6313 0.6085
C34_3 C 0.47539(19) 0.6048(4) 0.83737(19)
O11_2 O 0.99774(13) 0.3003(2) 0.43002(13)
O15_2 O 0.98701(14) 0.0475(2) 0.60531(13)
O3_2 O 0.50226(13) 0.8003(2) 0.06998(13)
O4_2 O 0.39187(13) 0.7697(3) 0.05877(13)
H1_2 H 0.3882 0.7255 0.0251
C1_3 C 0.87741(19) 0.9903(3) 0.45061(17)
C6_3 C 0.68781(19) 0.9195(4) 0.42390(19)
H6_3 H 0.6594 0.8485 0.4215
C7_3 C 0.7573(2) 0.9004(4) 0.43214(19)
H7_3 H 0.7750 0.8167 0.4352
C12_3 C 0.5560(2) 0.9988(4) 0.26033(19)
C13_3 C 0.53888(19) 0.9403(3) 0.19594(19)
H9_3 H 0.5726 0.9377 0.1783
C14_2 C 0.4720(2) 0.8855(3) 0.15746(18)
C15_2 C 0.4209(2) 0.8927(4) 0.18310(19)
H10_2 H 0.3755 0.8583 0.1572
C16_2 C 0.43835(19) 0.9514(4) 0.24752(18)
H11_2 H 0.4040 0.9575 0.2642
C17_2 C 0.45737(19) 0.8155(3) 0.09151(18)
C24_4 C 0.31025(19) 0.0679(4) 0.0169(2)
C25_4 C 0.2840(2) 0.0791(4) 0.0661(2)
H14_4 H 0.3089 0.1272 0.1069
C26_4 C 0.2205(2) 0.0188(4) 0.0550(2)
H15_4 H 0.2039 0.0244 0.0891
C27_4 C 0.3803(2) 0.1324(4) 0.02970(19)
C31_4 C 0.02815(19) 0.0534(3) 0.73021(18)
C32_4 C 0.0498(2) 0.1310(4) 0.78959(19)
H18_4 H 0.0611 0.2177 0.7877
C33_4 C 0.0544(2) 0.0789(4) 0.8519(2)
H19_4 H 0.0678 0.1313 0.8915
C34_4 C 0.02461(19) 0.1048(4) 0.66263(19)
S1_4 S 0.90837(5) 0.62181(11) 0.00526(5)
O1_4 O 0.58708(12) 0.5892(2) 0.04568(12)
C1_4 C 0.62259(19) 0.4903(3) 0.04939(17)
C2_4 C 0.69984(19) 0.5061(3) 0.06427(18)
C3_4 C 0.72742(19) 0.6306(4) 0.07111(18)
H4_4 H 0.6998 0.7017 0.0707
C4_4 C 0.7966(2) 0.6490(4) 0.07860(19)
H5_4 H 0.8145 0.7327 0.0822
C5_4 C 0.83900(18) 0.5443(4) 0.08079(17)
C6_4 C 0.81219(19) 0.4195(4) 0.07610(19)
H6_4 H 0.8406 0.3485 0.0785
C7_4 C 0.7427(2) 0.4004(4) 0.06786(19)
H7_4 H 0.7250 0.3167 0.0648
C8_4 C 0.91118(19) 0.5678(3) 0.08535(18)
C9_4 C 0.99968(19) 0.6622(4) 0.04137(19)
C10_4 C 0.97578(19) 0.5543(4) 0.14091(19)
C11_4 C 0.99328(19) 0.5018(3) 0.21190(18)
C12_4 C 0.9440(2) 0.4988(4) 0.23967(19)
H8_4 H 0.8992 0.5363 0.2148
C13_4 C 0.96112(19) 0.4403(3) 0.30406(19)
H9_4 H 0.9274 0.4377 0.3217
S3_4 S 0.98149(6) 0.78990(12) 0.92194(5)
O9_4 O 0.42698(14) 0.8962(2) 0.92546(13)
H2_4 H 0.3929(15) 0.898(3) 0.8866(12)
H3_4 H 0.4253(18) 0.956(3) 0.9484(15)
H17_4 H 0.9931 0.8750 0.6924
C19_3 C 0.9484(2) 0.1146(4) 0.07758(19)
C20_3 C 0.8862(2) 0.1161(4) 0.01892(19)
C21_3 C 0.8190(2) 0.0503(4) 0.00704(19)
C22_3 C 0.7917(2) 0.0593(4) 0.0564(2)
H12_3 H 0.8168 0.1056 0.0978
C23_3 C 0.7278(2) 0.0002(4) 0.0445(2)
H13_3 H 0.7105 0.0064 0.0781
C28_3 C 0.96101(19) 0.0508(4) 0.14454(19)
C29_3 C 0.9848(3) 0.1251(4) 0.2053(2)
H16_3 H 0.9972 0.2114 0.2039
C30_3 C 0.9905(3) 0.0738(4) 0.2673(2)
S2_3 S 0.94984(5) 0.40427(11) 0.87469(5)
S4_3 S 0.88101(5) 0.21735(12) 0.94961(5)
O4_3 O 0.89187(13) 0.7303(3) 0.55877(13)
H1_3 H 0.8882 0.7745 0.5251
C14_3 C 0.9720(2) 0.6145(3) 0.65746(18)
C15_3 C 0.9209(2) 0.6073(4) 0.68310(19)
H10_3 H 0.8755 0.6417 0.6572
C16_3 C 0.93835(19) 0.5486(4) 0.74752(18)
H11_3 H 0.9040 0.5425 0.7642
C17_3 C 0.95737(19) 0.6845(3) 0.59151(18)
C18_3 C 0.9716(2) 0.2654(4) 0.9909(2)
S2_4 S 0.05016(5) 0.59573(11) 0.12531(5)
S4_4 S 0.11899(5) 0.78265(12) 0.05039(5)
O4_4 O 0.10813(13) 0.2697(3) 0.44123(13)
H1_4 H 0.1118 0.2255 0.4749
C14_4 C 0.0280(2) 0.3855(3) 0.34254(18)
C15_4 C 0.0791(2) 0.3927(4) 0.31690(19)
H10_4 H 0.1245 0.3583 0.3428
C16_4 C 0.06165(19) 0.4514(4) 0.25248(18)
H11_4 H 0.0960 0.4575 0.2358
C17_4 C 0.04263(19) 0.3155(3) 0.40849(18)
C18_4 C 0.0284(2) 0.7346(4) 0.0091(2)
C19_4 C 0.0516(2) 0.8854(4) 0.92242(19)
C20_4 C 0.1138(2) 0.8839(4) 0.98108(19)
C21_4 C 0.1810(2) 0.9497(4) 0.99296(19)
C22_4 C 0.2083(2) 0.9407(4) 0.9436(2)
H12_4 H 0.1832 0.8944 0.9022
C23_4 C 0.2722(2) 0.9998(4) 0.9555(2)
H13_4 H 0.2895 0.9936 0.9219
C28_4 C 0.03899(19) 0.9492(4) 0.85546(19)
C29_4 C 0.0152(3) 0.8749(4) 0.7947(2)
H16_4 H 0.0028 0.7886 0.7961
C30_4 C 0.0095(3) 0.9262(4) 0.7327(2)
loop_
_geom_bond_atom_site_label_1
_geom_bond_atom_site_label_2
_geom_bond_site_symmetry_1
_geom_bond_site_symmetry_2
O2 C1 1_555 1_555
O3 C17 1_555 1_555
O4 H1 1_555 1_555
H6 C6 1_555 1_555
H7 C7 1_555 1_555
C13 C12 1_555 1_555
H9 C13 1_555 1_555
C14 C13 1_555 1_555
C15 C14 1_555 1_555
H10 C15 1_555 1_555
H11 C16 1_555 1_555
C17 O4 1_555 1_555
C6 C7 1_555 1_555
C14 C17 1_555 1_555
C15 C16 1_555 1_555
Dy1 O1 1_555 1_555
S1 C8 1_555 1_555
S2 C9 1_555 1_555
S3 C18 1_555 1_555
S4 C18 1_555 1_555
O5 C27 1_555 1_555
O6 C27 1_555 1_555
O7 C34 1_555 1_555
O8 C34 1_555 1_555
C2 C3 1_555 1_555
C3 H4 1_555 1_555
C4 C3 1_555 1_555
H5 C4 1_555 1_555
C5 C4 1_555 1_555
C8 C5 1_555 1_555
C9 S1 1_555 1_555
C10 S2 1_555 1_555
C11 C10 1_555 1_555
C18 C9 1_555 1_555
C19 S3 1_555 1_555
C20 S4 1_555 1_555
C21 C20 1_555 1_555
C22 C21 1_555 1_555
H12 C22 1_555 1_555
C23 C22 1_555 1_555
H13 C23 1_555 1_555
C24 C23 1_555 1_555
C25 C24 1_555 1_555
H14 C25 1_555 1_555
C26 C21 1_555 1_555
H15 C26 1_555 1_555
C27 C24 1_555 1_555
C28 C19 1_555 1_555
C29 C28 1_555 1_555
H16 C29 1_555 1_555
C30 C29 1_555 1_555
H17 C30 1_555 1_555
C31 C30 1_555 1_555
C32 C31 1_555 1_555
H18 C32 1_555 1_555
C33 C28 1_555 1_555
H19 C33 1_555 1_555
C34 C31 1_555 1_555
Dy3 O7 1_555 1_555
Dy5 O5 1_555 1_555
O11 Dy1 1_555 1_555
O12 Dy1 1_555 1_555
O13 Dy1 1_555 1_555
O15 Dy1 1_555 1_555
O6 Dy5 1_555 1_555
O8 Dy3 1_555 1_555
C8 C10 1_555 1_555
C19 C20 1_555 1_555
C25 C26 1_555 1_555
C32 C33 1_555 1_555
H2 O9 1_555 1_555
H3 O9 1_555 1_555
O9_2 Dy3 1_555 1_555
H2_2 O9_2 1_555 1_555
H3_2 O9_2 1_555 1_555
O10_2 Dy3 1_555 1_555
O13_2 Dy3 1_555 1_555
S1_2 C8_2 1_555 1_555
O1_2 C1_2 1_555 1_555
O2_2 C1_2 1_555 1_555
C1_2 C2_2 1_555 1_555
C2_2 C3_2 1_555 1_555
C3_2 H4_2 1_555 1_555
C4_2 C3_2 1_555 1_555
H5_2 C4_2 1_555 1_555
C5_2 C4_2 1_555 1_555
C6_2 C5_2 1_555 1_555
H6_2 C6_2 1_555 1_555
C7_2 C2_2 1_555 1_555
H7_2 C7_2 1_555 1_555
C8_2 C5_2 1_555 1_555
C9_2 S1_2 1_555 1_555
C11_2 C10_2 1_555 1_555
C12_2 C11_2 1_555 1_555
H8_2 C12_2 1_555 1_555
C13_2 C12_2 1_555 1_555
H9_2 C13_2 1_555 1_555
Dy4 O2_2 1_555 1_555
C6_2 C7_2 1_555 1_555
C8_2 C10_2 1_555 1_555
O14 C34_2 1_555 1_555
C32_2 C31_2 1_555 1_555
H18_2 C32_2 1_555 1_555
H19_2 C33_2 1_555 1_555
C34_2 C31_2 1_555 1_555
C32_2 C33_2 1_555 1_555
O6_2 C27_2 1_555 1_555
C25_2 C24_2 1_555 1_555
H14_2 C25_2 1_555 1_555
H15_2 C26_2 1_555 1_555
C27_2 C24_2 1_555 1_555
O6_2 Dy4 1_555 1_555
C25_2 C26_2 1_555 1_555
H2_3 O9_3 1_555 1_555
H3_3 O9_3 1_555 1_555
Dy5 O1_3 1_555 1_555
S1_3 C8_3 1_555 1_555
S2_2 C9_3 1_555 1_555
S3_3 C18_2 1_555 1_555
S4_2 C18_2 1_555 1_555
O12 C27_3 1_555 1_555
O13 C27_3 1_555 1_555
O7_2 C34_3 1_555 1_555
O8_2 C34_3 1_555 1_555
C2_3 C3_3 1_555 1_555
C3_3 H4_3 1_555 1_555
C4_3 C3_3 1_555 1_555
H5_3 C4_3 1_555 1_555
C5_3 C4_3 1_555 1_555
C8_3 C5_3 1_555 1_555
C9_3 S1_3 1_555 1_555
C10_3 S2_2 1_555 1_555
C11_3 C10_3 1_555 1_555
C18_2 C9_3 1_555 1_555
C19_2 S3_3 1_555 1_555
C20_2 S4_2 1_555 1_555
C21_2 C20_2 1_555 1_555
C22_2 C21_2 1_555 1_555
H12_2 C22_2 1_555 1_555
C23_2 C22_2 1_555 1_555
H13_2 C23_2 1_555 1_555
C24_3 C23_2 1_555 1_555
C25_3 C24_3 1_555 1_555
H14_3 C25_3 1_555 1_555
C26_3 C21_2 1_555 1_555
H15_3 C26_3 1_555 1_555
C27_3 C24_3 1_555 1_555
C28_2 C19_2 1_555 1_555
C29_2 C28_2 1_555 1_555
H16_2 C29_2 1_555 1_555
C30_2 C29_2 1_555 1_555
H17_3 C30_2 1_555 1_555
C31_3 C30_2 1_555 1_555
C32_3 C31_3 1_555 1_555
H18_3 C32_3 1_555 1_555
C33_3 C28_2 1_555 1_555
H19_3 C33_3 1_555 1_555
C34_3 C31_3 1_555 1_555
Dy4 O7_2 1_555 1_555
O11_2 Dy5 1_555 1_555
O15_2 Dy5 1_555 1_555
O8_2 Dy4 1_555 1_555
C8_3 C10_3 1_555 1_555
C19_2 C20_2 1_555 1_555
C25_3 C26_3 1_555 1_555
C32_3 C33_3 1_555 1_555
O10 C1_3 1_555 1_555
O3_2 C17_2 1_555 1_555
O4_2 H1_2 1_555 1_555
H6_3 C6_3 1_555 1_555
H7_3 C7_3 1_555 1_555
C13_3 C12_3 1_555 1_555
H9_3 C13_3 1_555 1_555
C14_2 C13_3 1_555 1_555
C15_2 C14_2 1_555 1_555
H10_2 C15_2 1_555 1_555
H11_2 C16_2 1_555 1_555
C17_2 O4_2 1_555 1_555
C6_3 C7_3 1_555 1_555
C14_2 C17_2 1_555 1_555
C15_2 C16_2 1_555 1_555
O13_2 C27_4 1_555 1_555
C25_4 C24_4 1_555 1_555
H14_4 C25_4 1_555 1_555
H15_4 C26_4 1_555 1_555
C27_4 C24_4 1_555 1_555
C25_4 C26_4 1_555 1_555
O14_2 C34_4 1_555 1_555
C32_4 C31_4 1_555 1_555
H18_4 C32_4 1_555 1_555
H19_4 C33_4 1_555 1_555
C34_4 C31_4 1_555 1_555
C32_4 C33_4 1_555 1_555
S1_4 C8_4 1_555 1_555
O1_4 C1_4 1_555 1_555
O10_2 C1_4 1_555 1_555
C1_4 C2_4 1_555 1_555
C2_4 C3_4 1_555 1_555
C3_4 H4_4 1_555 1_555
C4_4 C3_4 1_555 1_555
H5_4 C4_4 1_555 1_555
C5_4 C4_4 1_555 1_555
C6_4 C5_4 1_555 1_555
H6_4 C6_4 1_555 1_555
C7_4 C2_4 1_555 1_555
H7_4 C7_4 1_555 1_555
C8_4 C5_4 1_555 1_555
C9_4 S1_4 1_555 1_555
C11_4 C10_4 1_555 1_555
C12_4 C11_4 1_555 1_555
H8_4 C12_4 1_555 1_555
C13_4 C12_4 1_555 1_555
H9_4 C13_4 1_555 1_555
C6_4 C7_4 1_555 1_555
C8_4 C10_4 1_555 1_555
O9_4 Dy4 1_555 1_555
H2_4 O9_4 1_555 1_555
H3_4 O9_4 1_555 1_555
C21_3 C20_3 1_555 1_555
C22_3 C21_3 1_555 1_555
H12_3 C22_3 1_555 1_555
C23_3 C22_3 1_555 1_555
H13_3 C23_3 1_555 1_555
C28_3 C19_3 1_555 1_555
C29_3 C28_3 1_555 1_555
H16_3 C29_3 1_555 1_555
C30_3 C29_3 1_555 1_555
C19_3 C20_3 1_555 1_555
S4_3 C18_3 1_555 1_555
O4_3 H1_3 1_555 1_555
C15_3 C14_3 1_555 1_555
H10_3 C15_3 1_555 1_555
H11_3 C16_3 1_555 1_555
C17_3 O4_3 1_555 1_555
C14_3 C17_3 1_555 1_555
C15_3 C16_3 1_555 1_555
S4_4 C18_4 1_555 1_555
O4_4 H1_4 1_555 1_555
C15_4 C14_4 1_555 1_555
H10_4 C15_4 1_555 1_555
H11_4 C16_4 1_555 1_555
C17_4 O4_4 1_555 1_555
C14_4 C17_4 1_555 1_555
C15_4 C16_4 1_555 1_555
C21_4 C20_4 1_555 1_555
C22_4 C21_4 1_555 1_555
H12_4 C22_4 1_555 1_555
C23_4 C22_4 1_555 1_555
H13_4 C23_4 1_555 1_555
C28_4 C19_4 1_555 1_555
C29_4 C28_4 1_555 1_555
H16_4 C29_4 1_555 1_555
C30_4 C29_4 1_555 1_555
C19_4 C20_4 1_555 1_555

#END
