
###############################################################################
#
# This file contains modified crystal structure data generated from the
# MOF subset of the Cambridge Structural Database (CSD) v543 
# hosted by the Cambridge Crystallographic Data Centre (CCDC).
#
# This work is licensed under the Creative Commons
# Attribution-NonCommercial-ShareAlike 4.0 International License.
# To view a copy of this license, visit
# http://creativecommons.org/licenses/by-nc-sa/4.0/
# or send a letter to
# Creative Commons, PO Box 1866, Mountain View, CA 94042, USA.
#
# CIF created using the CSD Python API on 29 September 2022
# The structure has been converted into the P1 space group
# The structure has a 3D framework
# The original CSD entry POXHIU is in the monoclinic crystal system
# The framework has been calculated to contain at least 10.0% void space
# The void calculation uses a probe of radius 1.32A, grid spacing 0.4
#
###############################################################################

data_POXHIU
_chemical_formula_moiety         '(C56 H32 Ag4 Ho4 N8 O28)n'
_symmetry_cell_setting           triclinic
_symmetry_space_group_name_H-M   'P 1'
_symmetry_Int_Tables_number      1
_space_group_name_Hall           'P 1'
loop_
_symmetry_equiv_pos_site_id
_symmetry_equiv_pos_as_xyz
1 x,y,z
_cell_length_a                   9.66390(10)
_cell_length_b                   22.2590(3)
_cell_length_c                   9.11370(10)
_cell_angle_alpha                90
_cell_angle_beta                 117.9600(10)
_cell_angle_gamma                90
_cell_volume                     1731.6
loop_
_atom_site_label
_atom_site_type_symbol
_atom_site_fract_x
_atom_site_fract_y
_atom_site_fract_z
C5 C 0.1017(5) 0.1341(2) 0.1452(5)
H3 H 0.1768 0.1589 0.2247
H5 H 0.3620 0.2841 0.0149
C14 C 0.4800(4) 0.03317(18) 0.0022(5)
N1 N 0.1240(4) 0.11524(16) 0.0181(4)
O3 O 0.3924(3) 0.39332(12) 0.0508(3)
O6 O 0.5431(3) 0.05905(12) 0.1395(3)
Ho3 Ho 0.354600(17) 0.491730(8) 0.11922(2)
Ag1 Ag 0.32016(4) 0.148317(16) 0.98823(5)
C6 C 0.0139(4) 0.07920(18) 0.9050(5)
H4 H 0.0289 0.0650 0.8175
C7 C 0.4373(4) 0.27551(18) 0.9816(5)
C8 C 0.5189(4) 0.32280(18) 0.9606(5)
C9 C 0.6331(5) 0.3095(2) 0.9137(5)
H6 H 0.6905 0.3401 0.8982
C10 C 0.6601(5) 0.2502(2) 0.8903(6)
H7 H 0.7375 0.2402 0.8613
C11 C 0.5710(5) 0.2063(2) 0.9106(6)
H8 H 0.5878 0.1666 0.8916
C12 C 0.4832(4) 0.38580(17) 0.9892(4)
N2 N 0.4605(4) 0.21802(15) 0.9567(4)
O4 O 0.5483(3) 0.42736(12) 0.9518(3)
O5 O 0.3851(3) 0.05654(12) 0.8660(3)
O8 O 0.1174(3) 0.06381(12) 0.5493(3)
Ho4 Ho 0.645400(17) 0.508270(8) 0.88078(2)
Ho5 Ho 0.354600(17) 0.008270(8) 0.61922(2)
Ag2 Ag 0.67984(4) 0.851683(16) 0.01177(5)
Ho6 Ho 0.645400(17) 0.991730(8) 0.38078(2)
N6 N 0.5395(4) 0.78198(15) 0.0433(4)
O15 O 0.6149(3) 0.94346(12) 0.1340(3)
C27 C 0.0075(4) 0.96559(18) 0.5081(4)
C28 C 0.5200(4) 0.96683(18) 0.9978(5)
N4 N 0.8760(4) 0.88476(16) 0.9819(4)
O18 O 0.4569(3) 0.94095(12) 0.8605(3)
O21 O 0.1437(3) 0.94439(12) 0.5781(3)
C1 C 0.7539(4) 0.02564(17) 0.7756(4)
C2 C 0.8803(4) 0.06230(17) 0.9119(5)
C13 C 0.9925(4) 0.03441(18) 0.4919(4)
O1 O 0.7874(3) 0.00088(12) 0.6720(3)
O2 O 0.6255(3) 0.02387(13) 0.7765(3)
O7 O 0.8563(3) 0.05561(12) 0.4219(3)
O12 O 0.3924(3) 0.10668(12) 0.5508(3)
O14 O 0.5483(3) 0.07264(12) 0.4518(3)
Ag4 Ag 0.67984(4) 0.648317(16) 0.51177(5)
C15 C 0.2461(4) 0.97436(17) 0.2244(4)
C16 C 0.1197(4) 0.93770(17) 0.0881(5)
C21 C 0.5627(4) 0.77551(18) 0.5184(5)
H13 H 0.6380 0.7841 0.4851
C22 C 0.4811(4) 0.82280(18) 0.5394(5)
C23 C 0.3669(5) 0.8095(2) 0.5863(5)
H14 H 0.3095 0.8401 0.6018
C24 C 0.3399(5) 0.7502(2) 0.6097(6)
H15 H 0.2625 0.7402 0.6387
C25 C 0.4290(5) 0.7063(2) 0.5894(6)
H16 H 0.4122 0.6666 0.6084
C26 C 0.5168(4) 0.88580(17) 0.5108(4)
N5 N 0.5395(4) 0.71802(15) 0.5433(4)
O9 O 0.2126(3) 0.99912(12) 0.3280(3)
O10 O 0.3745(3) 0.97613(13) 0.2235(3)
O11 O 0.6076(3) 0.89332(12) 0.4492(3)
O13 O 0.4517(3) 0.92736(12) 0.5482(3)
O23 O 0.8826(3) 0.93619(12) 0.4507(3)
C20 C 0.9861(4) 0.92080(18) 0.0950(5)
H12 H 0.9711 0.9350 0.1825
C19 C 0.8983(5) 0.8659(2) 0.8548(5)
H11 H 0.8232 0.8411 0.7753
Ag3 Ag 0.32016(4) 0.351683(16) 0.48823(5)
C19_2 C 0.1017(5) 0.3659(2) 0.6452(5)
H11_2 H 0.1768 0.3411 0.7247
C20_2 C 0.0139(4) 0.42080(18) 0.4050(5)
H12_2 H 0.0289 0.4350 0.3175
N3 N 0.1240(4) 0.38476(16) 0.5181(4)
C13_2 C 0.0075(4) 0.53441(18) 0.0081(4)
O7_2 O 0.1437(3) 0.55561(12) 0.0781(3)
C15_2 C 0.7539(4) 0.47436(17) 0.2756(4)
C16_2 C 0.8803(4) 0.43770(17) 0.4119(5)
C17 C 0.8609(4) 0.41787(19) 0.5451(5)
H9 H 0.7728 0.4289 0.5548
C18 C 0.9740(5) 0.3814(2) 0.6635(5)
H10 H 0.9632 0.3678 0.7540
O9_2 O 0.7874(3) 0.49912(12) 0.1720(3)
O10_2 O 0.6255(3) 0.47613(13) 0.2765(3)
O14_2 O 0.4517(3) 0.57264(12) 0.0482(3)
O16 O 0.3851(3) 0.44346(12) 0.3660(3)
O19 O 0.4569(3) 0.55905(12) 0.3605(3)
O23_2 O 0.1174(3) 0.43619(12) 0.0493(3)
C1_2 C 0.2461(4) 0.52564(17) 0.7244(4)
C2_2 C 0.1197(4) 0.56230(17) 0.5881(5)
C3 C 0.1391(4) 0.58213(19) 0.4549(5)
H1 H 0.2272 0.5711 0.4452
C4 C 0.0260(5) 0.6186(2) 0.3365(5)
H2 H 0.0368 0.6322 0.2460
O1_2 O 0.2126(3) 0.50088(12) 0.8280(3)
O2_2 O 0.3745(3) 0.52387(13) 0.7235(3)
O12_2 O 0.6076(3) 0.60668(12) 0.9492(3)
O17 O 0.6149(3) 0.55654(12) 0.6340(3)
O20 O 0.5431(3) 0.44095(12) 0.6395(3)
O22 O 0.8563(3) 0.44439(12) 0.9219(3)
O24 O 0.8826(3) 0.56381(12) 0.9507(3)
C5_2 C 0.8983(5) 0.6341(2) 0.3548(5)
H3_2 H 0.8232 0.6589 0.2753
C6_2 C 0.9861(4) 0.57920(18) 0.5950(5)
H4_2 H 0.9711 0.5650 0.6825
C14_2 C 0.5200(4) 0.53317(18) 0.4978(5)
N1_2 N 0.8760(4) 0.61524(16) 0.4819(4)
C27_2 C 0.9925(4) 0.46559(18) 0.9919(4)
C28_2 C 0.4800(4) 0.46683(18) 0.5022(5)
N6_2 N 0.4605(4) 0.28198(15) 0.4567(4)
C21_2 C 0.4373(4) 0.22449(18) 0.4816(5)
H13_2 H 0.3620 0.2159 0.5149
C22_2 C 0.5189(4) 0.17720(18) 0.4606(5)
C23_2 C 0.6331(5) 0.1905(2) 0.4137(5)
H14_2 H 0.6905 0.1599 0.3982
C24_2 C 0.6601(5) 0.2498(2) 0.3903(6)
H15_2 H 0.7375 0.2598 0.3613
C25_2 C 0.5710(5) 0.2937(2) 0.4106(6)
H16_2 H 0.5878 0.3334 0.3916
C26_2 C 0.4832(4) 0.11420(17) 0.4892(4)
C7_2 C 0.5627(4) 0.72449(18) 0.0184(5)
C8_2 C 0.4811(4) 0.67720(18) 0.0394(5)
C9_2 C 0.3669(5) 0.6905(2) 0.0863(5)
H6_2 H 0.3095 0.6599 0.1018
C10_2 C 0.3399(5) 0.7498(2) 0.1097(6)
H7_2 H 0.2625 0.7598 0.1387
C11_2 C 0.4290(5) 0.7937(2) 0.0894(6)
H8_2 H 0.4122 0.8334 0.1084
C12_2 C 0.5168(4) 0.61420(17) 0.0108(4)
H5_2 H 0.6380 0.7159 0.9851
C3_2 C 0.8609(4) 0.08213(19) 0.0451(5)
H1_2 H 0.7728 0.0711 0.0548
C4_2 C 0.9740(5) 0.1186(2) 0.1635(5)
H2_2 H 0.9632 0.1322 0.2540
C17_2 C 0.1391(4) 0.91787(19) 0.9549(5)
H9_2 H 0.2272 0.9289 0.9452
C18_2 C 0.0260(5) 0.8814(2) 0.8365(5)
H10_2 H 0.0368 0.8678 0.7460
loop_
_geom_bond_atom_site_label_1
_geom_bond_atom_site_label_2
_geom_bond_site_symmetry_1
_geom_bond_site_symmetry_2
H3 C5 1_555 1_555
N1 C5 1_555 1_555
O6 C14 1_555 1_555
Ho3 O3 1_555 1_555
H4 C6 1_555 1_555
C8 C7 1_555 1_555
C9 C8 1_555 1_555
H6 C9 1_555 1_555
C10 C9 1_555 1_555
H7 C10 1_555 1_555
C11 C10 1_555 1_555
H8 C11 1_555 1_555
C12 C8 1_555 1_555
N2 Ag1 1_555 1_555
O4 C12 1_555 1_555
O5 Ag1 1_555 1_555
Ho4 O4 1_555 1_555
Ho5 O5 1_555 1_555
C7 N2 1_555 1_555
C11 N2 1_555 1_555
O8 Ho5 1_555 1_555
N6 Ag2 1_555 1_555
O15 Ag2 1_555 1_555
Ho6 O15 1_555 1_555
C27 O21 1_555 1_555
C28 O18 1_555 1_555
C1 C2 1_555 1_555
C13 O7 1_555 1_555
O1 C1 1_555 1_555
O2 C1 1_555 1_555
Ho5 O2 1_555 1_555
O12 Ho5 1_555 1_555
Ag4 N5 1_555 1_555
C15 C16 1_555 1_555
C21 H13 1_555 1_555
C22 C21 1_555 1_555
C23 C22 1_555 1_555
H14 C23 1_555 1_555
C24 C23 1_555 1_555
H15 C24 1_555 1_555
C25 C24 1_555 1_555
H16 C25 1_555 1_555
C26 C22 1_555 1_555
N5 C21 1_555 1_555
O10 Ho6 1_555 1_555
O11 Ho6 1_555 1_555
O23 Ho6 1_555 1_555
C15 O9 1_555 1_555
C15 O10 1_555 1_555
C25 N5 1_555 1_555
C26 O11 1_555 1_555
C26 O13 1_555 1_555
H12 C20 1_555 1_555
H11 C19 1_555 1_555
N4 C19 1_555 1_555
Ag3 N3 1_555 1_555
H11_2 C19_2 1_555 1_555
H12_2 C20_2 1_555 1_555
N3 C19_2 1_555 1_555
C20_2 N3 1_555 1_555
C13_2 O7_2 1_555 1_555
O7_2 Ho3 1_555 1_555
C15_2 C16_2 1_555 1_555
C16_2 C17 1_555 1_555
C17 H9 1_555 1_555
C18 C17 1_555 1_555
H10 C18 1_555 1_555
O10_2 Ho3 1_555 1_555
O14_2 Ho3 1_555 1_555
O16 Ho3 1_555 1_555
O19 Ho3 1_555 1_555
O23_2 Ho3 1_555 1_555
C15_2 O9_2 1_555 1_555
C15_2 O10_2 1_555 1_555
C1_2 C2_2 1_555 1_555
C2_2 C3 1_555 1_555
C3 H1 1_555 1_555
C4 C3 1_555 1_555
H2 C4 1_555 1_555
O1_2 C1_2 1_555 1_555
O2_2 C1_2 1_555 1_555
Ho4 O2_2 1_555 1_555
O12_2 Ho4 1_555 1_555
O17 Ho4 1_555 1_555
O20 Ho4 1_555 1_555
O22 Ho4 1_555 1_555
O24 Ho4 1_555 1_555
Ag4 N1_2 1_555 1_555
H3_2 C5_2 1_555 1_555
H4_2 C6_2 1_555 1_555
C14_2 O17 1_555 1_555
N1_2 C5_2 1_555 1_555
O17 Ag4 1_555 1_555
O19 C14_2 1_555 1_555
C28_2 C14_2 1_555 1_555
N6_2 Ag3 1_555 1_555
O16 Ag3 1_555 1_555
C6_2 N1_2 1_555 1_555
C27_2 O22 1_555 1_555
C28_2 O16 1_555 1_555
C28_2 O20 1_555 1_555
C21_2 H13_2 1_555 1_555
C22_2 C21_2 1_555 1_555
C23_2 C22_2 1_555 1_555
H14_2 C23_2 1_555 1_555
C24_2 C23_2 1_555 1_555
H15_2 C24_2 1_555 1_555
C25_2 C24_2 1_555 1_555
H16_2 C25_2 1_555 1_555
C26_2 C22_2 1_555 1_555
N6_2 C21_2 1_555 1_555
C25_2 N6_2 1_555 1_555
C26_2 O12 1_555 1_555
C26_2 O14 1_555 1_555
C8_2 C7_2 1_555 1_555
C9_2 C8_2 1_555 1_555
H6_2 C9_2 1_555 1_555
C10_2 C9_2 1_555 1_555
H7_2 C10_2 1_555 1_555
C11_2 C10_2 1_555 1_555
H8_2 C11_2 1_555 1_555
C12_2 C8_2 1_555 1_555
O14_2 C12_2 1_555 1_555
C7_2 N6 1_555 1_555
C11_2 N6 1_555 1_555
C3_2 H1_2 1_555 1_555
C4_2 C3_2 1_555 1_555
H2_2 C4_2 1_555 1_555
C17_2 H9_2 1_555 1_555
C18_2 C17_2 1_555 1_555
H10_2 C18_2 1_555 1_555

#END
