
###############################################################################
#
# This file contains modified crystal structure data generated from the
# MOF subset of the Cambridge Structural Database (CSD) v543 
# hosted by the Cambridge Crystallographic Data Centre (CCDC).
#
# This work is licensed under the Creative Commons
# Attribution-NonCommercial-ShareAlike 4.0 International License.
# To view a copy of this license, visit
# http://creativecommons.org/licenses/by-nc-sa/4.0/
# or send a letter to
# Creative Commons, PO Box 1866, Mountain View, CA 94042, USA.
#
# CIF created using the CSD Python API on 29 September 2022
# The structure has been converted into the P1 space group
# The structure has a 3D framework
# The original CSD entry POXHUG is in the monoclinic crystal system
# The framework has been calculated to contain at least 10.0% void space
# The void calculation uses a probe of radius 1.32A, grid spacing 0.4
#
###############################################################################

data_POXHUG
_chemical_formula_moiety         '(C56 H32 Ag4 Eu4 N8 O28)n'
_symmetry_cell_setting           triclinic
_symmetry_space_group_name_H-M   'P 1'
_symmetry_Int_Tables_number      1
_space_group_name_Hall           'P 1'
loop_
_symmetry_equiv_pos_site_id
_symmetry_equiv_pos_as_xyz
1 x,y,z
_cell_length_a                   9.7109(2)
_cell_length_b                   22.3358(5)
_cell_length_c                   9.1581(2)
_cell_angle_alpha                90
_cell_angle_beta                 117.4850(10)
_cell_angle_gamma                90
_cell_volume                     1762.2
loop_
_atom_site_label
_atom_site_type_symbol
_atom_site_fract_x
_atom_site_fract_y
_atom_site_fract_z
C5 C 0.1038(5) 0.1345(2) 0.1438(5)
H3 H 0.1784 0.1593 0.2218
H5 H 0.3605 0.2824 0.0111
C14 C 0.4801(4) 0.03300(18) 0.0032(4)
N1 N 0.1251(4) 0.11597(16) 0.0162(4)
O3 O 0.3891(3) 0.38922(12) 0.0547(3)
O6 O 0.5416(3) 0.05916(11) 0.1383(3)
Eu3 Eu 0.35660(2) 0.491380(8) 0.117900(19)
Ag1 Ag 0.32030(4) 0.147838(16) 0.98345(5)
C6 C 0.0150(5) 0.08011(18) 0.9053(5)
H4 H 0.0288 0.0658 0.8177
C7 C 0.4366(5) 0.27437(18) 0.9791(4)
C8 C 0.5179(4) 0.32207(17) 0.9601(4)
C9 C 0.6323(5) 0.3100(2) 0.9140(5)
H6 H 0.6889 0.3409 0.8991
C10 C 0.6602(6) 0.2512(2) 0.8907(6)
H7 H 0.7383 0.2419 0.8625
C11 C 0.5728(6) 0.2066(2) 0.9090(5)
H8 H 0.5914 0.1673 0.8896
C12 C 0.4788(4) 0.38373(17) 0.9922(4)
N2 N 0.4616(4) 0.21723(15) 0.9538(4)
O4 O 0.5380(3) 0.42751(12) 0.9542(3)
O5 O 0.3837(3) 0.05607(12) 0.8683(3)
O8 O 0.1163(3) 0.06382(12) 0.5499(3)
Eu4 Eu 0.64340(2) 0.508620(8) 0.882100(19)
Eu5 Eu 0.35660(2) 0.008620(8) 0.617900(19)
Ag2 Ag 0.67970(4) 0.852162(16) 0.01655(5)
Eu6 Eu 0.64340(2) 0.991380(8) 0.382100(19)
N6 N 0.5384(4) 0.78277(15) 0.0462(4)
O15 O 0.6163(3) 0.94393(12) 0.1317(3)
C27 C 0.0083(4) 0.96564(18) 0.5081(4)
C28 C 0.5199(4) 0.96700(18) 0.9968(4)
N4 N 0.8749(4) 0.88403(16) 0.9838(4)
O18 O 0.4584(3) 0.94084(11) 0.8617(3)
O21 O 0.1424(3) 0.94433(12) 0.5785(3)
C1 C 0.7571(5) 0.02711(17) 0.7804(4)
C2 C 0.8828(4) 0.06361(17) 0.9152(4)
C13 C 0.9917(4) 0.03436(18) 0.4919(4)
O1 O 0.7899(3) 0.00277(12) 0.6761(3)
O2 O 0.6299(3) 0.02572(13) 0.7824(3)
O7 O 0.8576(3) 0.05567(12) 0.4215(3)
O12 O 0.3891(3) 0.11078(12) 0.5547(3)
O14 O 0.5380(3) 0.07249(12) 0.4542(3)
Ag4 Ag 0.67970(4) 0.647838(16) 0.51655(5)
C15 C 0.2429(5) 0.97289(17) 0.2196(4)
C16 C 0.1172(4) 0.93639(17) 0.0848(4)
C21 C 0.5634(5) 0.77437(18) 0.5209(4)
H13 H 0.6395 0.7824 0.4889
C22 C 0.4821(4) 0.82207(17) 0.5399(4)
C23 C 0.3677(5) 0.8100(2) 0.5860(5)
H14 H 0.3111 0.8409 0.6009
C24 C 0.3398(6) 0.7512(2) 0.6093(6)
H15 H 0.2617 0.7419 0.6375
C25 C 0.4272(6) 0.7066(2) 0.5910(5)
H16 H 0.4086 0.6673 0.6104
C26 C 0.5212(4) 0.88373(17) 0.5078(4)
N5 N 0.5384(4) 0.71723(15) 0.5462(4)
O9 O 0.2101(3) 0.99723(12) 0.3239(3)
O10 O 0.3701(3) 0.97428(13) 0.2176(3)
O11 O 0.6109(3) 0.88922(12) 0.4453(3)
O13 O 0.4620(3) 0.92751(12) 0.5458(3)
O23 O 0.8837(3) 0.93618(12) 0.4501(3)
C20 C 0.9850(5) 0.91989(18) 0.0947(5)
H12 H 0.9712 0.9342 0.1823
C19 C 0.8962(5) 0.8655(2) 0.8562(5)
H11 H 0.8216 0.8407 0.7782
Ag3 Ag 0.32030(4) 0.352162(16) 0.48345(5)
C19_2 C 0.1038(5) 0.3655(2) 0.6438(5)
H11_2 H 0.1784 0.3407 0.7218
C20_2 C 0.0150(5) 0.41989(18) 0.4053(5)
H12_2 H 0.0288 0.4342 0.3177
N3 N 0.1251(4) 0.38403(16) 0.5162(4)
C13_2 C 0.0083(4) 0.53436(18) 0.0081(4)
O7_2 O 0.1424(3) 0.55567(12) 0.0785(3)
C15_2 C 0.7571(5) 0.47289(17) 0.2804(4)
C16_2 C 0.8828(4) 0.43639(17) 0.4152(4)
C17 C 0.8655(5) 0.41678(18) 0.5486(4)
H9 H 0.7782 0.4275 0.5596
C18 C 0.9781(5) 0.3814(2) 0.6650(5)
H10 H 0.9691 0.3684 0.7567
O9_2 O 0.7899(3) 0.49723(12) 0.1761(3)
O10_2 O 0.6299(3) 0.47428(13) 0.2824(3)
O14_2 O 0.4620(3) 0.57249(12) 0.0458(3)
O16 O 0.3837(3) 0.44393(12) 0.3683(3)
O19 O 0.4584(3) 0.55916(11) 0.3617(3)
O23_2 O 0.1163(3) 0.43618(12) 0.0499(3)
C1_2 C 0.2429(5) 0.52711(17) 0.7196(4)
C2_2 C 0.1172(4) 0.56361(17) 0.5848(4)
C3 C 0.1345(5) 0.58322(18) 0.4514(4)
H1 H 0.2218 0.5725 0.4404
C4 C 0.0219(5) 0.6186(2) 0.3350(5)
H2 H 0.0309 0.6316 0.2433
O1_2 O 0.2101(3) 0.50277(12) 0.8239(3)
O2_2 O 0.3701(3) 0.52572(13) 0.7176(3)
O12_2 O 0.6109(3) 0.61078(12) 0.9453(3)
O17 O 0.6163(3) 0.55607(12) 0.6317(3)
O20 O 0.5416(3) 0.44084(11) 0.6383(3)
O22 O 0.8576(3) 0.44433(12) 0.9215(3)
O24 O 0.8837(3) 0.56382(12) 0.9501(3)
C5_2 C 0.8962(5) 0.6345(2) 0.3562(5)
H3_2 H 0.8216 0.6593 0.2782
C6_2 C 0.9850(5) 0.58011(18) 0.5947(5)
H4_2 H 0.9712 0.5658 0.6823
C14_2 C 0.5199(4) 0.53300(18) 0.4968(4)
N1_2 N 0.8749(4) 0.61597(16) 0.4838(4)
C27_2 C 0.9917(4) 0.46564(18) 0.9919(4)
C28_2 C 0.4801(4) 0.46700(18) 0.5032(4)
N6_2 N 0.4616(4) 0.28277(15) 0.4538(4)
C21_2 C 0.4366(5) 0.22563(18) 0.4791(4)
H13_2 H 0.3605 0.2176 0.5111
C22_2 C 0.5179(4) 0.17793(17) 0.4601(4)
C23_2 C 0.6323(5) 0.1900(2) 0.4140(5)
H14_2 H 0.6889 0.1591 0.3991
C24_2 C 0.6602(6) 0.2488(2) 0.3907(6)
H15_2 H 0.7383 0.2581 0.3625
C25_2 C 0.5728(6) 0.2934(2) 0.4090(5)
H16_2 H 0.5914 0.3327 0.3896
C26_2 C 0.4788(4) 0.11627(17) 0.4922(4)
C7_2 C 0.5634(5) 0.72563(18) 0.0209(4)
C8_2 C 0.4821(4) 0.67793(17) 0.0399(4)
C9_2 C 0.3677(5) 0.6900(2) 0.0860(5)
H6_2 H 0.3111 0.6591 0.1009
C10_2 C 0.3398(6) 0.7488(2) 0.1093(6)
H7_2 H 0.2617 0.7581 0.1375
C11_2 C 0.4272(6) 0.7934(2) 0.0910(5)
H8_2 H 0.4086 0.8327 0.1104
C12_2 C 0.5212(4) 0.61627(17) 0.0078(4)
H5_2 H 0.6395 0.7176 0.9889
C3_2 C 0.8655(5) 0.08322(18) 0.0486(4)
H1_2 H 0.7782 0.0725 0.0596
C4_2 C 0.9781(5) 0.1186(2) 0.1650(5)
H2_2 H 0.9691 0.1316 0.2567
C17_2 C 0.1345(5) 0.91678(18) 0.9514(4)
H9_2 H 0.2218 0.9275 0.9404
C18_2 C 0.0219(5) 0.8814(2) 0.8350(5)
H10_2 H 0.0309 0.8684 0.7433
loop_
_geom_bond_atom_site_label_1
_geom_bond_atom_site_label_2
_geom_bond_site_symmetry_1
_geom_bond_site_symmetry_2
H3 C5 1_555 1_555
N1 C5 1_555 1_555
O6 C14 1_555 1_555
Eu3 O3 1_555 1_555
H4 C6 1_555 1_555
C8 C7 1_555 1_555
C9 C8 1_555 1_555
H6 C9 1_555 1_555
C10 C9 1_555 1_555
H7 C10 1_555 1_555
C11 C10 1_555 1_555
H8 C11 1_555 1_555
C12 C8 1_555 1_555
N2 Ag1 1_555 1_555
O4 C12 1_555 1_555
O5 Ag1 1_555 1_555
Eu4 O4 1_555 1_555
Eu5 O5 1_555 1_555
C7 N2 1_555 1_555
C11 N2 1_555 1_555
O8 Eu5 1_555 1_555
N6 Ag2 1_555 1_555
O15 Ag2 1_555 1_555
Eu6 O15 1_555 1_555
C27 O21 1_555 1_555
C28 O18 1_555 1_555
C1 C2 1_555 1_555
C13 O7 1_555 1_555
O1 C1 1_555 1_555
O2 C1 1_555 1_555
Eu5 O2 1_555 1_555
O12 Eu5 1_555 1_555
Ag4 N5 1_555 1_555
C15 C16 1_555 1_555
C21 H13 1_555 1_555
C22 C21 1_555 1_555
C23 C22 1_555 1_555
H14 C23 1_555 1_555
C24 C23 1_555 1_555
H15 C24 1_555 1_555
C25 C24 1_555 1_555
H16 C25 1_555 1_555
C26 C22 1_555 1_555
N5 C21 1_555 1_555
O10 Eu6 1_555 1_555
O11 Eu6 1_555 1_555
O23 Eu6 1_555 1_555
C15 O9 1_555 1_555
C15 O10 1_555 1_555
C25 N5 1_555 1_555
C26 O11 1_555 1_555
C26 O13 1_555 1_555
H12 C20 1_555 1_555
H11 C19 1_555 1_555
N4 C19 1_555 1_555
Ag3 N3 1_555 1_555
H11_2 C19_2 1_555 1_555
H12_2 C20_2 1_555 1_555
N3 C19_2 1_555 1_555
C20_2 N3 1_555 1_555
C13_2 O7_2 1_555 1_555
O7_2 Eu3 1_555 1_555
C15_2 C16_2 1_555 1_555
C16_2 C17 1_555 1_555
C17 H9 1_555 1_555
C18 C17 1_555 1_555
H10 C18 1_555 1_555
O10_2 Eu3 1_555 1_555
O14_2 Eu3 1_555 1_555
O16 Eu3 1_555 1_555
O19 Eu3 1_555 1_555
O23_2 Eu3 1_555 1_555
C15_2 O9_2 1_555 1_555
C15_2 O10_2 1_555 1_555
C1_2 C2_2 1_555 1_555
C2_2 C3 1_555 1_555
C3 H1 1_555 1_555
C4 C3 1_555 1_555
H2 C4 1_555 1_555
O1_2 C1_2 1_555 1_555
O2_2 C1_2 1_555 1_555
Eu4 O2_2 1_555 1_555
O12_2 Eu4 1_555 1_555
O17 Eu4 1_555 1_555
O20 Eu4 1_555 1_555
O22 Eu4 1_555 1_555
O24 Eu4 1_555 1_555
Ag4 N1_2 1_555 1_555
H3_2 C5_2 1_555 1_555
H4_2 C6_2 1_555 1_555
C14_2 O17 1_555 1_555
N1_2 C5_2 1_555 1_555
O17 Ag4 1_555 1_555
O19 C14_2 1_555 1_555
C28_2 C14_2 1_555 1_555
N6_2 Ag3 1_555 1_555
O16 Ag3 1_555 1_555
C6_2 N1_2 1_555 1_555
C27_2 O22 1_555 1_555
C28_2 O16 1_555 1_555
C28_2 O20 1_555 1_555
C21_2 H13_2 1_555 1_555
C22_2 C21_2 1_555 1_555
C23_2 C22_2 1_555 1_555
H14_2 C23_2 1_555 1_555
C24_2 C23_2 1_555 1_555
H15_2 C24_2 1_555 1_555
C25_2 C24_2 1_555 1_555
H16_2 C25_2 1_555 1_555
C26_2 C22_2 1_555 1_555
N6_2 C21_2 1_555 1_555
C25_2 N6_2 1_555 1_555
C26_2 O12 1_555 1_555
C26_2 O14 1_555 1_555
C8_2 C7_2 1_555 1_555
C9_2 C8_2 1_555 1_555
H6_2 C9_2 1_555 1_555
C10_2 C9_2 1_555 1_555
H7_2 C10_2 1_555 1_555
C11_2 C10_2 1_555 1_555
H8_2 C11_2 1_555 1_555
C12_2 C8_2 1_555 1_555
O14_2 C12_2 1_555 1_555
C7_2 N6 1_555 1_555
C11_2 N6 1_555 1_555
C3_2 H1_2 1_555 1_555
C4_2 C3_2 1_555 1_555
H2_2 C4_2 1_555 1_555
C17_2 H9_2 1_555 1_555
C18_2 C17_2 1_555 1_555
H10_2 C18_2 1_555 1_555

#END
