
###############################################################################
#
# This file contains modified crystal structure data generated from the
# MOF subset of the Cambridge Structural Database (CSD) v543 
# hosted by the Cambridge Crystallographic Data Centre (CCDC).
#
# This work is licensed under the Creative Commons
# Attribution-NonCommercial-ShareAlike 4.0 International License.
# To view a copy of this license, visit
# http://creativecommons.org/licenses/by-nc-sa/4.0/
# or send a letter to
# Creative Commons, PO Box 1866, Mountain View, CA 94042, USA.
#
# CIF created using the CSD Python API on 29 September 2022
# The structure has been converted into the P1 space group
# The structure has a 3D framework
# The original CSD entry POXHOA is in the monoclinic crystal system
# The framework has been calculated to contain at least 10.0% void space
# The void calculation uses a probe of radius 1.32A, grid spacing 0.4
#
###############################################################################

data_POXHOA
_chemical_formula_moiety         '(C56 H32 Ag4 Dy4 N8 O28)n'
_symmetry_cell_setting           triclinic
_symmetry_space_group_name_H-M   'P 1'
_symmetry_Int_Tables_number      1
_space_group_name_Hall           'P 1'
loop_
_symmetry_equiv_pos_site_id
_symmetry_equiv_pos_as_xyz
1 x,y,z
_cell_length_a                   9.67980(10)
_cell_length_b                   22.2733(3)
_cell_length_c                   9.12620(10)
_cell_angle_alpha                90
_cell_angle_beta                 117.8720(10)
_cell_angle_gamma                90
_cell_volume                     1739.36
loop_
_atom_site_label
_atom_site_type_symbol
_atom_site_fract_x
_atom_site_fract_y
_atom_site_fract_z
C5 C 0.1017(6) 0.1344(2) 0.1450(6)
H3 H 0.1764 0.1595 0.2236
H5 H 0.3606 0.2835 0.0130
C14 C 0.4791(5) 0.0332(2) 0.0016(5)
N1 N 0.1235(5) 0.11533(18) 0.0185(5)
O3 O 0.3921(4) 0.39251(13) 0.0518(4)
O6 O 0.5425(4) 0.05906(13) 0.1393(4)
Dy3 Dy 0.35499(2) 0.491670(9) 0.11898(2)
Ag1 Ag 0.31981(5) 0.148129(17) 0.98741(6)
C6 C 0.0134(5) 0.0795(2) 0.9046(6)
H4 H 0.0279 0.0657 0.8167
C7 C 0.4365(5) 0.2750(2) 0.9807(6)
C8 C 0.5189(5) 0.3225(2) 0.9603(5)
C9 C 0.6329(6) 0.3095(2) 0.9136(7)
H6 H 0.6903 0.3400 0.8982
C10 C 0.6592(7) 0.2501(3) 0.8904(7)
H7 H 0.7367 0.2401 0.8617
C11 C 0.5705(6) 0.2059(2) 0.9099(7)
H8 H 0.5871 0.1663 0.8903
C12 C 0.4829(5) 0.3851(2) 0.9902(5)
N2 N 0.4606(5) 0.21771(18) 0.9562(5)
O4 O 0.5463(4) 0.42719(14) 0.9522(4)
O5 O 0.3844(4) 0.05640(14) 0.8663(4)
O8 O 0.1173(3) 0.06372(13) 0.5495(4)
Dy4 Dy 0.64501(2) 0.508330(9) 0.88102(2)
Dy5 Dy 0.35499(2) 0.008330(9) 0.61898(2)
Ag2 Ag 0.68019(5) 0.851871(17) 0.01259(6)
Dy6 Dy 0.64501(2) 0.991670(9) 0.38102(2)
N6 N 0.5394(5) 0.78229(18) 0.0438(5)
O15 O 0.6156(4) 0.94360(14) 0.1337(4)
C27 C 0.0082(5) 0.9655(2) 0.5085(5)
C28 C 0.5209(5) 0.9668(2) 0.9984(5)
N4 N 0.8765(5) 0.88467(18) 0.9815(5)
O18 O 0.4575(4) 0.94094(13) 0.8607(4)
O21 O 0.1435(3) 0.94446(14) 0.5785(4)
C1 C 0.7548(5) 0.0258(2) 0.7761(5)
C2 C 0.8807(5) 0.0625(2) 0.9125(5)
C13 C 0.9918(5) 0.0345(2) 0.4915(5)
O1 O 0.7880(4) 0.00136(14) 0.6729(4)
O2 O 0.6269(4) 0.02445(15) 0.7776(4)
O7 O 0.8565(3) 0.05554(14) 0.4215(4)
O12 O 0.3921(4) 0.10749(13) 0.5518(4)
O14 O 0.5463(4) 0.07281(14) 0.4522(4)
Ag4 Ag 0.68019(5) 0.648129(17) 0.51259(6)
C15 C 0.2452(5) 0.9742(2) 0.2239(5)
C16 C 0.1193(5) 0.9375(2) 0.0875(5)
C21 C 0.5635(5) 0.7750(2) 0.5193(6)
H13 H 0.6394 0.7835 0.4870
C22 C 0.4811(5) 0.8225(2) 0.5397(5)
C23 C 0.3671(6) 0.8095(2) 0.5864(7)
H14 H 0.3097 0.8400 0.6018
C24 C 0.3408(7) 0.7501(3) 0.6096(7)
H15 H 0.2633 0.7401 0.6383
C25 C 0.4295(6) 0.7059(2) 0.5901(7)
H16 H 0.4129 0.6663 0.6097
C26 C 0.5171(5) 0.8851(2) 0.5098(5)
N5 N 0.5394(5) 0.71771(18) 0.5438(5)
O9 O 0.2120(4) 0.99864(14) 0.3271(4)
O10 O 0.3731(4) 0.97555(15) 0.2224(4)
O11 O 0.6079(4) 0.89251(13) 0.4482(4)
O13 O 0.4537(4) 0.92719(14) 0.5478(4)
O23 O 0.8827(3) 0.93628(13) 0.4505(4)
C20 C 0.9866(5) 0.9205(2) 0.0954(6)
H12 H 0.9721 0.9343 0.1833
C19 C 0.8983(6) 0.8656(2) 0.8550(6)
H11 H 0.8236 0.8405 0.7764
Ag3 Ag 0.31981(5) 0.351871(17) 0.48741(6)
C19_2 C 0.1017(6) 0.3656(2) 0.6450(6)
H11_2 H 0.1764 0.3405 0.7236
C20_2 C 0.0134(5) 0.4205(2) 0.4046(6)
H12_2 H 0.0279 0.4343 0.3167
N3 N 0.1235(5) 0.38467(18) 0.5185(5)
C13_2 C 0.0082(5) 0.5345(2) 0.0085(5)
O7_2 O 0.1435(3) 0.55554(14) 0.0785(4)
C15_2 C 0.7548(5) 0.4742(2) 0.2761(5)
C16_2 C 0.8807(5) 0.4375(2) 0.4125(5)
C17 C 0.8618(6) 0.4175(2) 0.5459(6)
H9 H 0.7735 0.4283 0.5553
C18 C 0.9737(6) 0.3816(2) 0.6640(6)
H10 H 0.9633 0.3683 0.7550
O9_2 O 0.7880(4) 0.49864(14) 0.1729(4)
O10_2 O 0.6269(4) 0.47555(15) 0.2776(4)
O14_2 O 0.4537(4) 0.57281(14) 0.0478(4)
O16 O 0.3844(4) 0.44360(14) 0.3663(4)
O19 O 0.4575(4) 0.55906(13) 0.3607(4)
O23_2 O 0.1173(3) 0.43628(13) 0.0495(4)
C1_2 C 0.2452(5) 0.5258(2) 0.7239(5)
C2_2 C 0.1193(5) 0.5625(2) 0.5875(5)
C3 C 0.1382(6) 0.5825(2) 0.4541(6)
H1 H 0.2265 0.5717 0.4447
C4 C 0.0263(6) 0.6184(2) 0.3360(6)
H2 H 0.0367 0.6317 0.2450
O1_2 O 0.2120(4) 0.50136(14) 0.8271(4)
O2_2 O 0.3731(4) 0.52445(15) 0.7224(4)
O12_2 O 0.6079(4) 0.60749(13) 0.9482(4)
O17 O 0.6156(4) 0.55640(14) 0.6337(4)
O20 O 0.5425(4) 0.44094(13) 0.6393(4)
O22 O 0.8565(3) 0.44446(14) 0.9215(4)
O24 O 0.8827(3) 0.56372(13) 0.9505(4)
C5_2 C 0.8983(6) 0.6344(2) 0.3550(6)
H3_2 H 0.8236 0.6595 0.2764
C6_2 C 0.9866(5) 0.5795(2) 0.5954(6)
H4_2 H 0.9721 0.5657 0.6833
C14_2 C 0.5209(5) 0.5332(2) 0.4984(5)
N1_2 N 0.8765(5) 0.61533(18) 0.4815(5)
C27_2 C 0.9918(5) 0.4655(2) 0.9915(5)
C28_2 C 0.4791(5) 0.4668(2) 0.5016(5)
N6_2 N 0.4606(5) 0.28229(18) 0.4562(5)
C21_2 C 0.4365(5) 0.2250(2) 0.4807(6)
H13_2 H 0.3606 0.2165 0.5130
C22_2 C 0.5189(5) 0.1775(2) 0.4603(5)
C23_2 C 0.6329(6) 0.1905(2) 0.4136(7)
H14_2 H 0.6903 0.1600 0.3982
C24_2 C 0.6592(7) 0.2499(3) 0.3904(7)
H15_2 H 0.7367 0.2599 0.3617
C25_2 C 0.5705(6) 0.2941(2) 0.4099(7)
H16_2 H 0.5871 0.3337 0.3903
C26_2 C 0.4829(5) 0.1149(2) 0.4902(5)
C7_2 C 0.5635(5) 0.7250(2) 0.0193(6)
C8_2 C 0.4811(5) 0.6775(2) 0.0397(5)
C9_2 C 0.3671(6) 0.6905(2) 0.0864(7)
H6_2 H 0.3097 0.6600 0.1018
C10_2 C 0.3408(7) 0.7499(3) 0.1096(7)
H7_2 H 0.2633 0.7599 0.1383
C11_2 C 0.4295(6) 0.7941(2) 0.0901(7)
H8_2 H 0.4129 0.8337 0.1097
C12_2 C 0.5171(5) 0.6149(2) 0.0098(5)
H5_2 H 0.6394 0.7165 0.9870
C3_2 C 0.8618(6) 0.0825(2) 0.0459(6)
H1_2 H 0.7735 0.0717 0.0553
C4_2 C 0.9737(6) 0.1184(2) 0.1640(6)
H2_2 H 0.9633 0.1317 0.2550
C17_2 C 0.1382(6) 0.9175(2) 0.9541(6)
H9_2 H 0.2265 0.9283 0.9447
C18_2 C 0.0263(6) 0.8816(2) 0.8360(6)
H10_2 H 0.0367 0.8683 0.7450
loop_
_geom_bond_atom_site_label_1
_geom_bond_atom_site_label_2
_geom_bond_site_symmetry_1
_geom_bond_site_symmetry_2
H3 C5 1_555 1_555
N1 C5 1_555 1_555
O6 C14 1_555 1_555
Dy3 O3 1_555 1_555
H4 C6 1_555 1_555
C8 C7 1_555 1_555
C9 C8 1_555 1_555
H6 C9 1_555 1_555
C10 C9 1_555 1_555
H7 C10 1_555 1_555
C11 C10 1_555 1_555
H8 C11 1_555 1_555
C12 C8 1_555 1_555
N2 Ag1 1_555 1_555
O4 C12 1_555 1_555
O5 Ag1 1_555 1_555
Dy4 O4 1_555 1_555
Dy5 O5 1_555 1_555
C7 N2 1_555 1_555
C11 N2 1_555 1_555
O8 Dy5 1_555 1_555
N6 Ag2 1_555 1_555
O15 Ag2 1_555 1_555
Dy6 O15 1_555 1_555
C27 O21 1_555 1_555
C28 O18 1_555 1_555
C1 C2 1_555 1_555
C13 O7 1_555 1_555
O1 C1 1_555 1_555
O2 C1 1_555 1_555
Dy5 O2 1_555 1_555
O12 Dy5 1_555 1_555
Ag4 N5 1_555 1_555
C15 C16 1_555 1_555
C21 H13 1_555 1_555
C22 C21 1_555 1_555
C23 C22 1_555 1_555
H14 C23 1_555 1_555
C24 C23 1_555 1_555
H15 C24 1_555 1_555
C25 C24 1_555 1_555
H16 C25 1_555 1_555
C26 C22 1_555 1_555
N5 C21 1_555 1_555
O10 Dy6 1_555 1_555
O11 Dy6 1_555 1_555
O23 Dy6 1_555 1_555
C15 O9 1_555 1_555
C15 O10 1_555 1_555
C25 N5 1_555 1_555
C26 O11 1_555 1_555
C26 O13 1_555 1_555
H12 C20 1_555 1_555
H11 C19 1_555 1_555
N4 C19 1_555 1_555
Ag3 N3 1_555 1_555
H11_2 C19_2 1_555 1_555
H12_2 C20_2 1_555 1_555
N3 C19_2 1_555 1_555
C20_2 N3 1_555 1_555
C13_2 O7_2 1_555 1_555
O7_2 Dy3 1_555 1_555
C15_2 C16_2 1_555 1_555
C16_2 C17 1_555 1_555
C17 H9 1_555 1_555
C18 C17 1_555 1_555
H10 C18 1_555 1_555
O10_2 Dy3 1_555 1_555
O14_2 Dy3 1_555 1_555
O16 Dy3 1_555 1_555
O19 Dy3 1_555 1_555
O23_2 Dy3 1_555 1_555
C15_2 O9_2 1_555 1_555
C15_2 O10_2 1_555 1_555
C1_2 C2_2 1_555 1_555
C2_2 C3 1_555 1_555
C3 H1 1_555 1_555
C4 C3 1_555 1_555
H2 C4 1_555 1_555
O1_2 C1_2 1_555 1_555
O2_2 C1_2 1_555 1_555
Dy4 O2_2 1_555 1_555
O12_2 Dy4 1_555 1_555
O17 Dy4 1_555 1_555
O20 Dy4 1_555 1_555
O22 Dy4 1_555 1_555
O24 Dy4 1_555 1_555
Ag4 N1_2 1_555 1_555
H3_2 C5_2 1_555 1_555
H4_2 C6_2 1_555 1_555
C14_2 O17 1_555 1_555
N1_2 C5_2 1_555 1_555
O17 Ag4 1_555 1_555
O19 C14_2 1_555 1_555
C28_2 C14_2 1_555 1_555
N6_2 Ag3 1_555 1_555
O16 Ag3 1_555 1_555
C6_2 N1_2 1_555 1_555
C27_2 O22 1_555 1_555
C28_2 O16 1_555 1_555
C28_2 O20 1_555 1_555
C21_2 H13_2 1_555 1_555
C22_2 C21_2 1_555 1_555
C23_2 C22_2 1_555 1_555
H14_2 C23_2 1_555 1_555
C24_2 C23_2 1_555 1_555
H15_2 C24_2 1_555 1_555
C25_2 C24_2 1_555 1_555
H16_2 C25_2 1_555 1_555
C26_2 C22_2 1_555 1_555
N6_2 C21_2 1_555 1_555
C25_2 N6_2 1_555 1_555
C26_2 O12 1_555 1_555
C26_2 O14 1_555 1_555
C8_2 C7_2 1_555 1_555
C9_2 C8_2 1_555 1_555
H6_2 C9_2 1_555 1_555
C10_2 C9_2 1_555 1_555
H7_2 C10_2 1_555 1_555
C11_2 C10_2 1_555 1_555
H8_2 C11_2 1_555 1_555
C12_2 C8_2 1_555 1_555
O14_2 C12_2 1_555 1_555
C7_2 N6 1_555 1_555
C11_2 N6 1_555 1_555
C3_2 H1_2 1_555 1_555
C4_2 C3_2 1_555 1_555
H2_2 C4_2 1_555 1_555
C17_2 H9_2 1_555 1_555
C18_2 C17_2 1_555 1_555
H10_2 C18_2 1_555 1_555

#END
