
###############################################################################
#
# This file contains modified crystal structure data generated from the
# MOF subset of the Cambridge Structural Database (CSD) v543 
# hosted by the Cambridge Crystallographic Data Centre (CCDC).
#
# This work is licensed under the Creative Commons
# Attribution-NonCommercial-ShareAlike 4.0 International License.
# To view a copy of this license, visit
# http://creativecommons.org/licenses/by-nc-sa/4.0/
# or send a letter to
# Creative Commons, PO Box 1866, Mountain View, CA 94042, USA.
#
# CIF created using the CSD Python API on 29 September 2022
# The structure has been converted into the P1 space group
# The structure has a 3D framework
# The original CSD entry POXLEV is in the monoclinic crystal system
# The framework has been calculated to contain at least 10.0% void space
# The void calculation uses a probe of radius 1.32A, grid spacing 0.4
#
###############################################################################

data_POXLEV
_chemical_formula_moiety         '(C64 H32 O26 Th4)n'
_symmetry_cell_setting           triclinic
_symmetry_space_group_name_H-M   'P 1'
_symmetry_Int_Tables_number      1
_space_group_name_Hall           'P 1'
loop_
_symmetry_equiv_pos_site_id
_symmetry_equiv_pos_as_xyz
1 x,y,z
_cell_length_a                   11.5931(2)
_cell_length_b                   18.0521(3)
_cell_length_c                   9.1948(2)
_cell_angle_alpha                90
_cell_angle_beta                 114.4570(10)
_cell_angle_gamma                90
_cell_volume                     1751.62
loop_
_atom_site_label
_atom_site_type_symbol
_atom_site_fract_x
_atom_site_fract_y
_atom_site_fract_z
Th6 Th -0.0000 0.518687(8) 0.2500
O3 O 0.0967(3) 0.37727(16) 0.6728(4)
O4 O 0.0627(3) 0.41967(16) 0.4337(4)
C1 C 0.1081(4) 0.3725(2) 0.5442(5)
C2 C 0.1812(4) 0.3087(2) 0.5209(5)
C3 C 0.2485(5) 0.2625(2) 0.6481(5)
H1 H 0.2472 0.2707 0.7473
C6 C 0.1826(5) 0.2957(2) 0.3725(5)
H2 H 0.1368 0.3264 0.2866
Th1 Th -0.0000 0.481313(8) 0.7500
O7 O 0.4033(3) 0.12273(16) 0.3272(4)
C13 C 0.3919(4) 0.1275(2) 0.4558(5)
C14 C 0.3188(4) 0.1913(2) 0.4791(5)
C15 C 0.2515(5) 0.2375(2) 0.3519(5)
H7 H 0.2528 0.2293 0.2527
C16 C 0.3174(5) 0.2043(2) 0.6275(5)
H8 H 0.3632 0.1736 0.7134
O8 O 0.4373(3) 0.08033(16) 0.5663(4)
O9 O 0.1905(3) 0.52883(16) 0.7331(4)
O10 O 0.1624(3) 0.43472(17) 0.9890(3)
O14 O 0.0627(3) 0.58033(16) 0.9337(4)
Th7 Th 0.5000 0.018687(8) 0.2500
Th3 Th 0.5000 0.981313(8) 0.7500
O2 O 0.8376(3) 0.56528(17) 0.0110(3)
H4 H 0.6261 0.5772 0.0218
Th6_2 Th 1.0000 0.518687(8) 0.2500
O1 O 0.8095(3) 0.52883(16) 0.7669(4)
C4 C 0.7698(3) 0.5539(2) 0.8648(4)
C5 C 0.6309(3) 0.5689(2) 0.8052(5)
C7 C 0.5557(4) 0.5721(3) 0.6427(5)
H3 H 0.5930 0.5733 0.5706
C8 C 0.5757(4) 0.5733(3) 0.9129(5)
Th1_2 Th 1.0000 0.481313(8) 0.7500
O6 O 0.1624(3) 0.56528(17) 0.4890(3)
C9 C 0.2302(3) 0.5539(2) 0.6352(4)
C10 C 0.3691(3) 0.5689(2) 0.6948(5)
C11 C 0.4443(4) 0.5721(3) 0.8573(5)
H5 H 0.4070 0.5733 0.9294
C12 C 0.4243(4) 0.5733(3) 0.5871(5)
H6 H 0.3739 0.5772 0.4782
O11 O 0.8376(3) 0.43472(17) 0.5110(3)
O12 O 0.9033(3) 0.37727(16) 0.8272(4)
O13 O 0.9373(3) 0.58033(16) 0.5663(4)
O4_2 O 0.9373(3) 0.41967(16) 0.0663(4)
C6_2 C 0.8174(5) 0.2957(2) 0.1275(5)
H2_2 H 0.8632 0.3264 0.2134
O7_2 O 0.5967(3) 0.12273(16) 0.1728(4)
C13_2 C 0.6081(4) 0.1275(2) 0.0442(5)
C14_2 C 0.6812(4) 0.1913(2) 0.0209(5)
C15_2 C 0.7485(5) 0.2375(2) 0.1481(5)
H7_2 H 0.7472 0.2293 0.2473
C1_2 C 0.8919(4) 0.3725(2) 0.9558(5)
C2_2 C 0.8188(4) 0.3087(2) 0.9791(5)
C3_2 C 0.7515(5) 0.2625(2) 0.8519(5)
H1_2 H 0.7528 0.2707 0.7527
C16_2 C 0.6826(5) 0.2043(2) 0.8725(5)
H8_2 H 0.6368 0.1736 0.7866
O8_2 O 0.5627(3) 0.08033(16) 0.9337(4)
O2_2 O 0.3376(3) 0.06528(17) 0.0110(3)
H4_2 H 0.1261 0.0772 0.0218
O1_2 O 0.3095(3) 0.02883(16) 0.7669(4)
C4_2 C 0.2698(3) 0.0539(2) 0.8648(4)
C5_2 C 0.1309(3) 0.0689(2) 0.8052(5)
C7_2 C 0.0557(4) 0.0721(3) 0.6427(5)
H3_2 H 0.0930 0.0733 0.5706
C8_2 C 0.0757(4) 0.0733(3) 0.9129(5)
O9_2 O 0.6905(3) 0.02883(16) 0.7331(4)
O3_2 O 0.5967(3) 0.87727(16) 0.6728(4)
O4_3 O 0.5627(3) 0.91967(16) 0.4337(4)
C1_3 C 0.6081(4) 0.8725(2) 0.5442(5)
C2_3 C 0.6812(4) 0.8087(2) 0.5209(5)
C3_3 C 0.7485(5) 0.7625(2) 0.6481(5)
H1_3 H 0.7472 0.7707 0.7473
C6_3 C 0.6826(5) 0.7957(2) 0.3725(5)
H2_3 H 0.6368 0.8264 0.2866
O7_3 O 0.9033(3) 0.62273(16) 0.3272(4)
C13_3 C 0.8919(4) 0.6275(2) 0.4558(5)
C14_3 C 0.8188(4) 0.6913(2) 0.4791(5)
C15_3 C 0.7515(5) 0.7375(2) 0.3519(5)
H7_3 H 0.7528 0.7293 0.2527
C16_3 C 0.8174(5) 0.7043(2) 0.6275(5)
H8_3 H 0.8632 0.6736 0.7134
O10_2 O 0.6624(3) 0.93472(17) 0.9890(3)
O11_2 O 0.3376(3) 0.93472(17) 0.5110(3)
O12_2 O 0.4033(3) 0.87727(16) 0.8272(4)
O6_2 O 0.6624(3) 0.06528(17) 0.4890(3)
C9_2 C 0.7302(3) 0.0539(2) 0.6352(4)
C10_2 C 0.8691(3) 0.0689(2) 0.6948(5)
C11_2 C 0.9443(4) 0.0721(3) 0.8573(5)
H5_2 H 0.9070 0.0733 0.9294
C12_2 C 0.9243(4) 0.0733(3) 0.5871(5)
H6_2 H 0.8739 0.0772 0.4782
O4_4 O 0.4373(3) 0.91967(16) 0.0663(4)
C6_4 C 0.3174(5) 0.7957(2) 0.1275(5)
H2_4 H 0.3632 0.8264 0.2134
O7_4 O 0.0967(3) 0.62273(16) 0.1728(4)
C13_4 C 0.1081(4) 0.6275(2) 0.0442(5)
C14_4 C 0.1812(4) 0.6913(2) 0.0209(5)
C15_4 C 0.2485(5) 0.7375(2) 0.1481(5)
H7_4 H 0.2472 0.7293 0.2473
C1_4 C 0.3919(4) 0.8725(2) 0.9558(5)
C2_4 C 0.3188(4) 0.8087(2) 0.9791(5)
C3_4 C 0.2515(5) 0.7625(2) 0.8519(5)
H1_4 H 0.2528 0.7707 0.7527
C16_4 C 0.1826(5) 0.7043(2) 0.8725(5)
H8_4 H 0.1368 0.6736 0.7866
O1_3 O 0.1905(3) 0.47117(16) 0.2331(4)
C4_3 C 0.2302(3) 0.4461(2) 0.1352(4)
C5_3 C 0.3691(3) 0.4311(2) 0.1948(5)
C7_3 C 0.4443(4) 0.4279(3) 0.3573(5)
H3_3 H 0.4070 0.4267 0.4294
C8_3 C 0.4243(4) 0.4267(3) 0.0871(5)
O5 O 0.8095(3) 0.47117(16) 0.2669(4)
C9_3 C 0.7698(3) 0.4461(2) 0.3648(4)
C10_3 C 0.6309(3) 0.4311(2) 0.3052(5)
C11_3 C 0.5557(4) 0.4279(3) 0.1427(5)
H5_3 H 0.5930 0.4267 0.0706
C12_3 C 0.5757(4) 0.4267(3) 0.4129(5)
H6_3 H 0.6261 0.4228 0.5218
H4_3 H 0.3739 0.4228 0.9782
O5_2 O 0.3095(3) 0.97117(16) 0.2669(4)
C9_4 C 0.2698(3) 0.9461(2) 0.3648(4)
C10_4 C 0.1309(3) 0.9311(2) 0.3052(5)
C11_4 C 0.0557(4) 0.9279(3) 0.1427(5)
H5_4 H 0.0930 0.9267 0.0706
C12_4 C 0.0757(4) 0.9267(3) 0.4129(5)
H6_4 H 0.1261 0.9228 0.5218
O1_4 O 0.6905(3) 0.97117(16) 0.2331(4)
C4_4 C 0.7302(3) 0.9461(2) 0.1352(4)
C5_4 C 0.8691(3) 0.9311(2) 0.1948(5)
C7_4 C 0.9443(4) 0.9279(3) 0.3573(5)
H3_4 H 0.9070 0.9267 0.4294
C8_4 C 0.9243(4) 0.9267(3) 0.0871(5)
H4_4 H 0.8739 0.9228 0.9782
loop_
_geom_bond_atom_site_label_1
_geom_bond_atom_site_label_2
_geom_bond_site_symmetry_1
_geom_bond_site_symmetry_2
O3 C1 1_555 1_555
O4 C1 1_555 1_555
C1 C2 1_555 1_555
C2 C3 1_555 1_555
C3 H1 1_555 1_555
C6 C2 1_555 1_555
H2 C6 1_555 1_555
O7 C13 1_555 1_555
C13 C14 1_555 1_555
C14 C15 1_555 1_555
C15 C6 1_555 1_555
H7 C15 1_555 1_555
C16 C3 1_555 1_555
H8 C16 1_555 1_555
O8 C13 1_555 1_555
O9 Th1 1_555 1_555
O10 Th1 1_555 1_555
O14 Th1 1_555 1_555
Th6 O4 1_555 1_555
Th7 O7 1_555 1_555
O3 Th1 1_555 1_555
C14 C16 1_555 1_555
Th6_2 O2 1_555 1_555
O1 C4 1_555 1_555
C4 C5 1_555 1_555
C5 C7 1_555 1_555
C7 H3 1_555 1_555
C8 C5 1_555 1_555
Th1_2 O1 1_555 1_555
O9 C9 1_555 1_555
O6 C9 1_555 1_555
C9 C10 1_555 1_555
C10 C11 1_555 1_555
C11 C8 1_555 1_555
H5 C11 1_555 1_555
C12 C7 1_555 1_555
H6 C12 1_555 1_555
O11 Th1_2 1_555 1_555
O12 Th1_2 1_555 1_555
O13 Th1_2 1_555 1_555
Th6 O6 1_555 1_555
C10 C12 1_555 1_555
H2_2 C6_2 1_555 1_555
O7_2 C13_2 1_555 1_555
C13_2 C14_2 1_555 1_555
C14_2 C15_2 1_555 1_555
C15_2 C6_2 1_555 1_555
H7_2 C15_2 1_555 1_555
Th6_2 O4_2 1_555 1_555
Th7 O7_2 1_555 1_555
O12 C1_2 1_555 1_555
C1_2 C2_2 1_555 1_555
C2_2 C3_2 1_555 1_555
C3_2 H1_2 1_555 1_555
C16_2 C3_2 1_555 1_555
H8_2 C16_2 1_555 1_555
Th7 O2_2 1_555 1_555
O1_2 C4_2 1_555 1_555
C4_2 C5_2 1_555 1_555
C5_2 C7_2 1_555 1_555
C7_2 H3_2 1_555 1_555
C8_2 C5_2 1_555 1_555
O3_2 C1_3 1_555 1_555
O4_3 C1_3 1_555 1_555
C1_3 C2_3 1_555 1_555
C2_3 C3_3 1_555 1_555
C3_3 H1_3 1_555 1_555
C6_3 C2_3 1_555 1_555
H2_3 C6_3 1_555 1_555
O7_3 C13_3 1_555 1_555
C13_3 C14_3 1_555 1_555
C14_3 C15_3 1_555 1_555
C15_3 C6_3 1_555 1_555
H7_3 C15_3 1_555 1_555
C16_3 C3_3 1_555 1_555
H8_3 C16_3 1_555 1_555
O13 C13_3 1_555 1_555
O10_2 Th3 1_555 1_555
O11_2 Th3 1_555 1_555
O12_2 Th3 1_555 1_555
Th6_2 O7_3 1_555 1_555
O3_2 Th3 1_555 1_555
C14_3 C16_3 1_555 1_555
O9_2 C9_2 1_555 1_555
O6_2 C9_2 1_555 1_555
C9_2 C10_2 1_555 1_555
C10_2 C11_2 1_555 1_555
H5_2 C11_2 1_555 1_555
H6_2 C12_2 1_555 1_555
Th7 O6_2 1_555 1_555
C10_2 C12_2 1_555 1_555
H2_4 C6_4 1_555 1_555
O7_4 C13_4 1_555 1_555
C13_4 C14_4 1_555 1_555
C14_4 C15_4 1_555 1_555
C15_4 C6_4 1_555 1_555
H7_4 C15_4 1_555 1_555
Th6 O7_4 1_555 1_555
O12_2 C1_4 1_555 1_555
C1_4 C2_4 1_555 1_555
C2_4 C3_4 1_555 1_555
C3_4 H1_4 1_555 1_555
C16_4 C3_4 1_555 1_555
H8_4 C16_4 1_555 1_555
O1_3 C4_3 1_555 1_555
C4_3 C5_3 1_555 1_555
C5_3 C7_3 1_555 1_555
C7_3 H3_3 1_555 1_555
C8_3 C5_3 1_555 1_555
Th6 O1_3 1_555 1_555
O5 C9_3 1_555 1_555
O11 C9_3 1_555 1_555
C9_3 C10_3 1_555 1_555
C10_3 C11_3 1_555 1_555
C11_3 C8_3 1_555 1_555
H5_3 C11_3 1_555 1_555
C12_3 C7_3 1_555 1_555
H6_3 C12_3 1_555 1_555
Th6_2 O5 1_555 1_555
C10_3 C12_3 1_555 1_555
O5_2 C9_4 1_555 1_555
O11_2 C9_4 1_555 1_555
C9_4 C10_4 1_555 1_555
C10_4 C11_4 1_555 1_555
H5_4 C11_4 1_555 1_555
H6_4 C12_4 1_555 1_555
C10_4 C12_4 1_555 1_555
O1_4 C4_4 1_555 1_555
C4_4 C5_4 1_555 1_555
C5_4 C7_4 1_555 1_555
C7_4 H3_4 1_555 1_555
C8_4 C5_4 1_555 1_555

#END
