
###############################################################################
#
# This file contains modified crystal structure data generated from the
# MOF subset of the Cambridge Structural Database (CSD) v543 
# hosted by the Cambridge Crystallographic Data Centre (CCDC).
#
# This work is licensed under the Creative Commons
# Attribution-NonCommercial-ShareAlike 4.0 International License.
# To view a copy of this license, visit
# http://creativecommons.org/licenses/by-nc-sa/4.0/
# or send a letter to
# Creative Commons, PO Box 1866, Mountain View, CA 94042, USA.
#
# CIF created using the CSD Python API on 29 September 2022
# The structure has been converted into the P1 space group
# The structure has a 3D framework
# The original CSD entry PUFVUJ is in the monoclinic crystal system
# The framework has been calculated to contain at least 10.0% void space
# The void calculation uses a probe of radius 1.32A, grid spacing 0.4
#
###############################################################################

data_PUFVUJ
_chemical_formula_moiety         '(C120 H88 Cd4 Cl3 N32 O16)n'
_symmetry_cell_setting           triclinic
_symmetry_space_group_name_H-M   'P 1'
_symmetry_Int_Tables_number      1
_space_group_name_Hall           'P 1'
loop_
_symmetry_equiv_pos_site_id
_symmetry_equiv_pos_as_xyz
1 x,y,z
_cell_length_a                   22.691(2)
_cell_length_b                   6.7093(4)
_cell_length_c                   22.587(2)
_cell_angle_alpha                90
_cell_angle_beta                 96.580(8)
_cell_angle_gamma                90
_cell_volume                     3416.01
loop_
_atom_site_label
_atom_site_type_symbol
_atom_site_fract_x
_atom_site_fract_y
_atom_site_fract_z
C1 C 0.40798(9) 0.1991(4) 0.84954(8)
C2 C 0.40020(9) 0.2780(4) 0.78586(9)
C3 C 0.42059(10) 0.1699(4) 0.73999(9)
H1 H 0.4387 0.0453 0.7480
C4 C 0.41444(10) 0.2454(4) 0.68180(9)
H2 H 0.4290 0.1740 0.6508
C5 C 0.38660(8) 0.4265(3) 0.67090(9)
C6 C 0.36611(14) 0.5358(5) 0.71603(11)
H3 H 0.3473 0.6592 0.7078
C7 C 0.37348(14) 0.4616(5) 0.77380(11)
H4 H 0.3603 0.5363 0.8049
C8 C 0.48070(9) 0.6727(4) 0.61818(10)
H5 H 0.5074 0.5739 0.6047
H6 H 0.4812 0.6634 0.6611
H7 H 0.4934 0.8048 0.6077
C9 C 0.41943(9) 0.6358(3) 0.58911(9)
C10 C 0.32932(8) 0.5172(3) 0.57134(9)
C11 C 0.27408(9) 0.4065(3) 0.57600(9)
C12 C 0.27245(9) 0.2089(4) 0.59428(10)
H8 H 0.3077 0.1391 0.6064
C13 C 0.21753(10) 0.1163(4) 0.59435(11)
C14 C 0.16665(9) 0.2219(4) 0.57526(10)
H10 H 0.1298 0.1577 0.5751
C15 C 0.22040(9) 0.5031(4) 0.55745(9)
H11 H 0.2214 0.6365 0.5449
Cd1 Cd 0.075718(6) 0.58832(2) 0.534749(6)
Cl1 Cl 0.03553(2) 0.28538(9) 0.47377(2)
N1 N 0.37977(7) 0.5120(3) 0.61173(7)
N2 N 0.39449(7) 0.7121(3) 0.53866(7)
N3 N 0.33728(7) 0.6364(3) 0.52708(8)
N4 N 0.16746(7) 0.4120(3) 0.55688(8)
O1 O 0.39126(8) 0.3085(3) 0.88939(7)
O2 O 0.43101(7) 0.0313(3) 0.85918(7)
Cd2 Cd 0.424282(6) 0.08832(2) 0.965251(6)
Cd4 Cd 0.424282(6) 0.91168(2) 0.465251(6)
N5 N 0.10551(7) 0.7879(3) 0.46134(7)
O3 O 0.10874(8) 0.8085(3) 0.61061(7)
O4 O 0.06899(7) 0.5313(3) 0.64082(7)
Cd3 Cd 0.924282(6) 0.41168(2) 0.465251(6)
Cl2 Cl 0.96447(2) 0.71462(9) 0.52623(2)
Cd3_2 Cd 0.075718(6) 0.41168(2) 0.034749(6)
Cl2_2 Cl 0.03553(2) 0.71462(9) 0.97377(2)
Cl1_2 Cl 0.96447(2) 0.28538(9) 0.02623(2)
Cd4_2 Cd 0.575718(6) 0.91168(2) 0.034749(6)
N5_2 N 0.89449(7) 0.7879(3) 0.03866(7)
C1_2 C 0.59202(9) 0.1991(4) 0.65046(8)
C2_2 C 0.59980(9) 0.2780(4) 0.71414(9)
C3_2 C 0.57941(10) 0.1699(4) 0.76001(9)
H1_2 H 0.5613 0.0453 0.7520
C4_2 C 0.58556(10) 0.2454(4) 0.81820(9)
H2_2 H 0.5710 0.1740 0.8492
C5_2 C 0.61340(8) 0.4265(3) 0.82910(9)
C6_2 C 0.63389(14) 0.5358(5) 0.78397(11)
H3_2 H 0.6527 0.6592 0.7922
C7_2 C 0.62652(14) 0.4616(5) 0.72620(11)
H4_2 H 0.6397 0.5363 0.6951
C8_2 C 0.51930(9) 0.6727(4) 0.88182(10)
H5_2 H 0.4926 0.5739 0.8953
H6_2 H 0.5188 0.6634 0.8389
H7_2 H 0.5066 0.8048 0.8923
C9_2 C 0.58057(9) 0.6358(3) 0.91089(9)
C10_2 C 0.67068(8) 0.5172(3) 0.92866(9)
C11_2 C 0.72592(9) 0.4065(3) 0.92400(9)
C12_2 C 0.72755(9) 0.2089(4) 0.90572(10)
H8_2 H 0.6923 0.1391 0.8936
C13_2 C 0.78247(10) 0.1163(4) 0.90565(11)
C14_2 C 0.83335(9) 0.2219(4) 0.92474(10)
H10_2 H 0.8702 0.1577 0.9249
C15_2 C 0.77960(9) 0.5031(4) 0.94255(9)
H11_2 H 0.7786 0.6365 0.9551
Cd1_2 Cd 0.924282(6) 0.58832(2) 0.965251(6)
N1_2 N 0.62023(7) 0.5120(3) 0.88827(7)
N2_2 N 0.60551(7) 0.7121(3) 0.96134(7)
N3_2 N 0.66272(7) 0.6364(3) 0.97292(8)
N4_2 N 0.83254(7) 0.4120(3) 0.94312(8)
O1_2 O 0.60874(8) 0.3085(3) 0.61061(7)
O2_2 O 0.56899(7) 0.0313(3) 0.64082(7)
Cd2_2 Cd 0.575718(6) 0.08832(2) 0.534749(6)
O3_2 O 0.89126(8) 0.8085(3) 0.88939(7)
O4_2 O 0.93101(7) 0.5313(3) 0.85918(7)
C6_3 C 0.86611(14) 0.0358(5) 0.71603(11)
H3_3 H 0.8473 0.1592 0.7078
H4_3 H 0.8603 0.0363 0.8049
C8_3 C 0.98070(9) 0.1727(4) 0.61818(10)
H6_3 H 0.9812 0.1634 0.6611
H7_3 H 0.9934 0.3048 0.6077
C9_3 C 0.91943(9) 0.1358(3) 0.58911(9)
C10_3 C 0.82932(8) 0.0172(3) 0.57134(9)
C15_3 C 0.72040(9) 0.0031(4) 0.55745(9)
H11_3 H 0.7214 0.1365 0.5449
N1_3 N 0.87977(7) 0.0120(3) 0.61173(7)
N2_3 N 0.89449(7) 0.2121(3) 0.53866(7)
N3_3 N 0.83728(7) 0.1364(3) 0.52708(8)
Cl2_3 Cl 0.46447(2) 0.21462(9) 0.52623(2)
N5_3 N 0.60551(7) 0.2879(3) 0.46134(7)
C1_3 C 0.90798(9) 0.6991(4) 0.84954(8)
C2_3 C 0.90020(9) 0.7780(4) 0.78586(9)
C3_3 C 0.92059(10) 0.6699(4) 0.73999(9)
H1_3 H 0.9387 0.5453 0.7480
C4_3 C 0.91444(10) 0.7454(4) 0.68180(9)
H2_3 H 0.9290 0.6740 0.6508
C5_3 C 0.88660(8) 0.9265(3) 0.67090(9)
C7_3 C 0.87348(14) 0.9616(5) 0.77380(11)
C11_3 C 0.77408(9) 0.9065(3) 0.57600(9)
C12_3 C 0.77245(9) 0.7089(4) 0.59428(10)
H8_3 H 0.8077 0.6391 0.6064
C13_3 C 0.71753(10) 0.6163(4) 0.59435(11)
H9 H 0.7151 0.4836 0.6072
C14_3 C 0.66665(9) 0.7219(4) 0.57526(10)
H10_3 H 0.6298 0.6577 0.5751
Cl1_3 Cl 0.53553(2) 0.78538(9) 0.47377(2)
N4_3 N 0.66746(7) 0.9120(3) 0.55688(8)
N5_4 N 0.39449(7) 0.2879(3) 0.03866(7)
C6_4 C 0.13389(14) 0.0358(5) 0.78397(11)
H3_4 H 0.1527 0.1592 0.7922
H4_4 H 0.1397 0.0363 0.6951
C8_4 C 0.01930(9) 0.1727(4) 0.88182(10)
H6_4 H 0.0188 0.1634 0.8389
H7_4 H 0.0066 0.3048 0.8923
C9_4 C 0.08057(9) 0.1358(3) 0.91089(9)
C10_4 C 0.17068(8) 0.0172(3) 0.92866(9)
C15_4 C 0.27960(9) 0.0031(4) 0.94255(9)
H11_4 H 0.2786 0.1365 0.9551
N1_4 N 0.12023(7) 0.0120(3) 0.88827(7)
N2_4 N 0.10551(7) 0.2121(3) 0.96134(7)
N3_4 N 0.16272(7) 0.1364(3) 0.97292(8)
Cl2_4 Cl 0.53553(2) 0.21462(9) 0.97377(2)
Cl1_4 Cl 0.46447(2) 0.78538(9) 0.02623(2)
C1_4 C 0.09202(9) 0.6991(4) 0.65046(8)
C2_4 C 0.09980(9) 0.7780(4) 0.71414(9)
C3_4 C 0.07941(10) 0.6699(4) 0.76001(9)
H1_4 H 0.0613 0.5453 0.7520
C4_4 C 0.08556(10) 0.7454(4) 0.81820(9)
H2_4 H 0.0710 0.6740 0.8492
C5_4 C 0.11340(8) 0.9265(3) 0.82910(9)
C7_4 C 0.12652(14) 0.9616(5) 0.72620(11)
C11_4 C 0.22592(9) 0.9065(3) 0.92400(9)
C12_4 C 0.22755(9) 0.7089(4) 0.90572(10)
H8_4 H 0.1923 0.6391 0.8936
C13_4 C 0.28247(10) 0.6163(4) 0.90565(11)
H9_2 H 0.2849 0.4836 0.8928
C14_4 C 0.33335(9) 0.7219(4) 0.92474(10)
H10_4 H 0.3702 0.6577 0.9249
N4_4 N 0.33254(7) 0.9120(3) 0.94312(8)
C1_5 C 0.59202(9) 0.8009(4) 0.15046(8)
C2_5 C 0.59980(9) 0.7220(4) 0.21414(9)
C3_5 C 0.57941(10) 0.8301(4) 0.26001(9)
H1_5 H 0.5613 0.9547 0.2520
C4_5 C 0.58556(10) 0.7546(4) 0.31820(9)
H2_5 H 0.5710 0.8260 0.3492
C5_5 C 0.61340(8) 0.5735(3) 0.32910(9)
C6_5 C 0.63389(14) 0.4642(5) 0.28397(11)
H3_5 H 0.6527 0.3408 0.2922
C7_5 C 0.62652(14) 0.5384(5) 0.22620(11)
H4_5 H 0.6397 0.4637 0.1951
C8_5 C 0.51930(9) 0.3273(4) 0.38182(10)
H5_3 H 0.4926 0.4261 0.3953
H6_5 H 0.5188 0.3366 0.3389
H7_5 H 0.5066 0.1952 0.3923
C9_5 C 0.58057(9) 0.3642(3) 0.41089(9)
C10_5 C 0.67068(8) 0.4828(3) 0.42866(9)
C11_5 C 0.72592(9) 0.5935(3) 0.42400(9)
C12_5 C 0.72755(9) 0.7911(4) 0.40572(10)
H8_5 H 0.6923 0.8609 0.3936
C13_5 C 0.78247(10) 0.8837(4) 0.40565(11)
C14_5 C 0.83335(9) 0.7781(4) 0.42474(10)
H10_5 H 0.8702 0.8423 0.4249
C15_5 C 0.77960(9) 0.4969(4) 0.44255(9)
H11_5 H 0.7786 0.3635 0.4551
N1_5 N 0.62023(7) 0.4880(3) 0.38827(7)
N3_5 N 0.66272(7) 0.3636(3) 0.47292(8)
N4_5 N 0.83254(7) 0.5880(3) 0.44312(8)
O1_3 O 0.60874(8) 0.6915(3) 0.11061(7)
O2_3 O 0.56899(7) 0.9687(3) 0.14082(7)
O3_3 O 0.89126(8) 0.1915(3) 0.38939(7)
O4_3 O 0.93101(7) 0.4687(3) 0.35918(7)
C1_6 C 0.40798(9) 0.8009(4) 0.34954(8)
C2_6 C 0.40020(9) 0.7220(4) 0.28586(9)
C3_6 C 0.42059(10) 0.8301(4) 0.23999(9)
H1_6 H 0.4387 0.9547 0.2480
C4_6 C 0.41444(10) 0.7546(4) 0.18180(9)
H2_6 H 0.4290 0.8260 0.1508
C5_6 C 0.38660(8) 0.5735(3) 0.17090(9)
C6_6 C 0.36611(14) 0.4642(5) 0.21603(11)
H3_6 H 0.3473 0.3408 0.2078
C7_6 C 0.37348(14) 0.5384(5) 0.27380(11)
H4_6 H 0.3603 0.4637 0.3049
C8_6 C 0.48070(9) 0.3273(4) 0.11818(10)
H5_4 H 0.5074 0.4261 0.1047
H6_6 H 0.4812 0.3366 0.1611
H7_6 H 0.4934 0.1952 0.1077
C9_6 C 0.41943(9) 0.3642(3) 0.08911(9)
C10_6 C 0.32932(8) 0.4828(3) 0.07134(9)
C11_6 C 0.27408(9) 0.5935(3) 0.07600(9)
C12_6 C 0.27245(9) 0.7911(4) 0.09428(10)
H8_6 H 0.3077 0.8609 0.1064
C13_6 C 0.21753(10) 0.8837(4) 0.09435(11)
C14_6 C 0.16665(9) 0.7781(4) 0.07526(10)
H10_6 H 0.1298 0.8423 0.0751
C15_6 C 0.22040(9) 0.4969(4) 0.05745(9)
H11_6 H 0.2214 0.3635 0.0449
N1_6 N 0.37977(7) 0.4880(3) 0.11173(7)
N3_6 N 0.33728(7) 0.3636(3) 0.02708(8)
N4_6 N 0.16746(7) 0.5880(3) 0.05688(8)
O1_4 O 0.39126(8) 0.6915(3) 0.38939(7)
O2_4 O 0.43101(7) 0.9687(3) 0.35918(7)
O3_4 O 0.10874(8) 0.1915(3) 0.11061(7)
O4_4 O 0.06899(7) 0.4687(3) 0.14082(7)
C1_7 C 0.09202(9) 0.3009(4) 0.15046(8)
C2_7 C 0.09980(9) 0.2220(4) 0.21414(9)
C3_7 C 0.07941(10) 0.3301(4) 0.26001(9)
H1_7 H 0.0613 0.4547 0.2520
C4_7 C 0.08556(10) 0.2546(4) 0.31820(9)
H2_7 H 0.0710 0.3260 0.3492
C5_7 C 0.11340(8) 0.0735(3) 0.32910(9)
C7_7 C 0.12652(14) 0.0384(5) 0.22620(11)
C11_7 C 0.22592(9) 0.0935(3) 0.42400(9)
C12_7 C 0.22755(9) 0.2911(4) 0.40572(10)
H8_7 H 0.1923 0.3609 0.3936
C13_7 C 0.28247(10) 0.3837(4) 0.40565(11)
H9_3 H 0.2849 0.5164 0.3928
C14_7 C 0.33335(9) 0.2781(4) 0.42474(10)
H10_7 H 0.3702 0.3423 0.4249
N4_7 N 0.33254(7) 0.0880(3) 0.44312(8)
C6_7 C 0.13389(14) 0.9642(5) 0.28397(11)
H3_7 H 0.1527 0.8408 0.2922
H4_7 H 0.1397 0.9637 0.1951
C8_7 C 0.01930(9) 0.8273(4) 0.38182(10)
H6_7 H 0.0188 0.8366 0.3389
H7_7 H 0.0066 0.6952 0.3923
C9_7 C 0.08057(9) 0.8642(3) 0.41089(9)
C10_7 C 0.17068(8) 0.9828(3) 0.42866(9)
C15_7 C 0.27960(9) 0.9969(4) 0.44255(9)
H11_7 H 0.2786 0.8635 0.4551
N1_7 N 0.12023(7) 0.9880(3) 0.38827(7)
N3_7 N 0.16272(7) 0.8636(3) 0.47292(8)
C1_8 C 0.90798(9) 0.3009(4) 0.34954(8)
C2_8 C 0.90020(9) 0.2220(4) 0.28586(9)
C3_8 C 0.92059(10) 0.3301(4) 0.23999(9)
H1_8 H 0.9387 0.4547 0.2480
C4_8 C 0.91444(10) 0.2546(4) 0.18180(9)
H2_8 H 0.9290 0.3260 0.1508
C5_8 C 0.88660(8) 0.0735(3) 0.17090(9)
C7_8 C 0.87348(14) 0.0384(5) 0.27380(11)
C11_8 C 0.77408(9) 0.0935(3) 0.07600(9)
C12_8 C 0.77245(9) 0.2911(4) 0.09428(10)
H8_8 H 0.8077 0.3609 0.1064
C13_8 C 0.71753(10) 0.3837(4) 0.09435(11)
H9_4 H 0.7151 0.5164 0.1072
C14_8 C 0.66665(9) 0.2781(4) 0.07526(10)
H10_8 H 0.6298 0.3423 0.0751
N4_8 N 0.66746(7) 0.0880(3) 0.05688(8)
C6_8 C 0.86611(14) 0.9642(5) 0.21603(11)
H3_8 H 0.8473 0.8408 0.2078
H4_8 H 0.8603 0.9637 0.3049
C8_8 C 0.98070(9) 0.8273(4) 0.11818(10)
H6_8 H 0.9812 0.8366 0.1611
H7_8 H 0.9934 0.6952 0.1077
C9_8 C 0.91943(9) 0.8642(3) 0.08911(9)
C10_8 C 0.82932(8) 0.9828(3) 0.07134(9)
C15_8 C 0.72040(9) 0.9969(4) 0.05745(9)
H11_8 H 0.7214 0.8635 0.0449
N1_8 N 0.87977(7) 0.9880(3) 0.11173(7)
N3_8 N 0.83728(7) 0.8636(3) 0.02708(8)
H9_5 H 0.2151 0.9836 0.6072
H9_6 H 0.7849 0.9836 0.8928
H5_5 H 0.0074 0.0739 0.6047
H5_6 H 0.9926 0.0739 0.8953
H9_7 H 0.7849 0.0164 0.3928
H9_8 H 0.2151 0.0164 0.1072
H5_7 H 0.9926 0.9261 0.3953
H5_8 H 0.0074 0.9261 0.1047
loop_
_geom_bond_atom_site_label_1
_geom_bond_atom_site_label_2
_geom_bond_site_symmetry_1
_geom_bond_site_symmetry_2
C1 C2 1_555 1_555
C2 C3 1_555 1_555
C3 H1 1_555 1_555
C4 C3 1_555 1_555
H2 C4 1_555 1_555
C5 C4 1_555 1_555
C6 C5 1_555 1_555
H3 C6 1_555 1_555
C7 C2 1_555 1_555
H4 C7 1_555 1_555
C8 H5 1_555 1_555
H6 C8 1_555 1_555
H7 C8 1_555 1_555
C9 C8 1_555 1_555
C10 C11 1_555 1_555
C11 C12 1_555 1_555
C12 H8 1_555 1_555
C13 C12 1_555 1_555
C14 C13 1_555 1_555
H10 C14 1_555 1_555
C15 C11 1_555 1_555
H11 C15 1_555 1_555
Cd1 Cl1 1_555 1_555
N1 C5 1_555 1_555
N2 C9 1_555 1_555
N3 C10 1_555 1_555
N4 C14 1_555 1_555
O1 C1 1_555 1_555
O2 C1 1_555 1_555
Cd2 O1 1_555 1_555
Cd4 N2 1_555 1_555
N5 Cd1 1_555 1_555
O3 Cd1 1_555 1_555
O4 Cd1 1_555 1_555
C6 C7 1_555 1_555
C9 N1 1_555 1_555
C10 N1 1_555 1_555
C15 N4 1_555 1_555
Cd1 N4 1_555 1_555
N2 N3 1_555 1_555
O2 Cd2 1_555 1_555
Cd3 Cl2 1_555 1_555
C1_2 C2_2 1_555 1_555
C2_2 C3_2 1_555 1_555
C3_2 H1_2 1_555 1_555
C4_2 C3_2 1_555 1_555
H2_2 C4_2 1_555 1_555
C5_2 C4_2 1_555 1_555
C6_2 C5_2 1_555 1_555
H3_2 C6_2 1_555 1_555
C7_2 C2_2 1_555 1_555
H4_2 C7_2 1_555 1_555
C8_2 H5_2 1_555 1_555
H6_2 C8_2 1_555 1_555
H7_2 C8_2 1_555 1_555
C9_2 C8_2 1_555 1_555
C10_2 C11_2 1_555 1_555
C11_2 C12_2 1_555 1_555
C12_2 H8_2 1_555 1_555
C13_2 C12_2 1_555 1_555
C14_2 C13_2 1_555 1_555
H10_2 C14_2 1_555 1_555
C15_2 C11_2 1_555 1_555
H11_2 C15_2 1_555 1_555
N1_2 C5_2 1_555 1_555
N2_2 C9_2 1_555 1_555
N3_2 C10_2 1_555 1_555
N4_2 C14_2 1_555 1_555
O1_2 C1_2 1_555 1_555
O2_2 C1_2 1_555 1_555
Cd2_2 O1_2 1_555 1_555
O3_2 Cd1_2 1_555 1_555
O4_2 Cd1_2 1_555 1_555
C6_2 C7_2 1_555 1_555
C9_2 N1_2 1_555 1_555
C10_2 N1_2 1_555 1_555
C15_2 N4_2 1_555 1_555
Cd1_2 N4_2 1_555 1_555
N2_2 N3_2 1_555 1_555
O2_2 Cd2_2 1_555 1_555
H3_3 C6_3 1_555 1_555
H6_3 C8_3 1_555 1_555
H7_3 C8_3 1_555 1_555
C9_3 C8_3 1_555 1_555
H11_3 C15_3 1_555 1_555
N2_3 C9_3 1_555 1_555
N3_3 C10_3 1_555 1_555
Cd3 N2_3 1_555 1_555
Cl2_3 Cd2_2 1_555 1_555
N5_3 Cd2_2 1_555 1_555
C9_3 N1_3 1_555 1_555
C10_3 N1_3 1_555 1_555
N2_3 N3_3 1_555 1_555
C1_3 C2_3 1_555 1_555
C2_3 C3_3 1_555 1_555
C3_3 H1_3 1_555 1_555
C4_3 C3_3 1_555 1_555
H2_3 C4_3 1_555 1_555
C5_3 C4_3 1_555 1_555
C7_3 C2_3 1_555 1_555
C11_3 C12_3 1_555 1_555
C12_3 H8_3 1_555 1_555
C13_3 C12_3 1_555 1_555
H9 C13_3 1_555 1_555
C14_3 C13_3 1_555 1_555
H10_3 C14_3 1_555 1_555
Cl1_3 Cd4 1_555 1_555
N4_3 C14_3 1_555 1_555
O3_2 C1_3 1_555 1_555
O4_2 C1_3 1_555 1_555
H3_4 C6_4 1_555 1_555
H6_4 C8_4 1_555 1_555
H7_4 C8_4 1_555 1_555
C9_4 C8_4 1_555 1_555
H11_4 C15_4 1_555 1_555
N2_4 C9_4 1_555 1_555
N3_4 C10_4 1_555 1_555
Cl2_4 Cd2 1_555 1_555
C9_4 N1_4 1_555 1_555
C10_4 N1_4 1_555 1_555
N2_4 N3_4 1_555 1_555
Cl1_4 Cd4_2 1_555 1_555
C1_4 C2_4 1_555 1_555
C2_4 C3_4 1_555 1_555
C3_4 H1_4 1_555 1_555
C4_4 C3_4 1_555 1_555
H2_4 C4_4 1_555 1_555
C5_4 C4_4 1_555 1_555
C7_4 C2_4 1_555 1_555
C11_4 C12_4 1_555 1_555
C12_4 H8_4 1_555 1_555
C13_4 C12_4 1_555 1_555
H9_2 C13_4 1_555 1_555
C14_4 C13_4 1_555 1_555
H10_4 C14_4 1_555 1_555
N4_4 C14_4 1_555 1_555
O3 C1_4 1_555 1_555
O4 C1_4 1_555 1_555
C1_5 C2_5 1_555 1_555
C2_5 C3_5 1_555 1_555
C3_5 H1_5 1_555 1_555
C4_5 C3_5 1_555 1_555
H2_5 C4_5 1_555 1_555
C5_5 C4_5 1_555 1_555
C6_5 C5_5 1_555 1_555
H3_5 C6_5 1_555 1_555
C7_5 C2_5 1_555 1_555
H4_5 C7_5 1_555 1_555
C8_5 H5_3 1_555 1_555
H6_5 C8_5 1_555 1_555
H7_5 C8_5 1_555 1_555
C9_5 C8_5 1_555 1_555
C10_5 C11_5 1_555 1_555
C11_5 C12_5 1_555 1_555
C12_5 H8_5 1_555 1_555
C13_5 C12_5 1_555 1_555
C14_5 C13_5 1_555 1_555
H10_5 C14_5 1_555 1_555
C15_5 C11_5 1_555 1_555
H11_5 C15_5 1_555 1_555
N1_5 C5_5 1_555 1_555
N5_3 C9_5 1_555 1_555
N3_5 C10_5 1_555 1_555
N4_5 C14_5 1_555 1_555
O1_3 C1_5 1_555 1_555
O2_3 C1_5 1_555 1_555
Cd4_2 O1_3 1_555 1_555
O3_3 Cd3 1_555 1_555
O4_3 Cd3 1_555 1_555
C6_5 C7_5 1_555 1_555
C9_5 N1_5 1_555 1_555
C10_5 N1_5 1_555 1_555
C15_5 N4_5 1_555 1_555
Cd3 N4_5 1_555 1_555
N5_3 N3_5 1_555 1_555
O2_3 Cd4_2 1_555 1_555
C1_6 C2_6 1_555 1_555
C2_6 C3_6 1_555 1_555
C3_6 H1_6 1_555 1_555
C4_6 C3_6 1_555 1_555
H2_6 C4_6 1_555 1_555
C5_6 C4_6 1_555 1_555
C6_6 C5_6 1_555 1_555
H3_6 C6_6 1_555 1_555
C7_6 C2_6 1_555 1_555
H4_6 C7_6 1_555 1_555
C8_6 H5_4 1_555 1_555
H6_6 C8_6 1_555 1_555
H7_6 C8_6 1_555 1_555
C9_6 C8_6 1_555 1_555
C10_6 C11_6 1_555 1_555
C11_6 C12_6 1_555 1_555
C12_6 H8_6 1_555 1_555
C13_6 C12_6 1_555 1_555
C14_6 C13_6 1_555 1_555
H10_6 C14_6 1_555 1_555
C15_6 C11_6 1_555 1_555
H11_6 C15_6 1_555 1_555
N1_6 C5_6 1_555 1_555
N5_4 C9_6 1_555 1_555
N3_6 C10_6 1_555 1_555
N4_6 C14_6 1_555 1_555
O1_4 C1_6 1_555 1_555
O2_4 C1_6 1_555 1_555
Cd4 O1_4 1_555 1_555
O3_4 Cd3_2 1_555 1_555
O4_4 Cd3_2 1_555 1_555
C6_6 C7_6 1_555 1_555
C9_6 N1_6 1_555 1_555
C10_6 N1_6 1_555 1_555
C15_6 N4_6 1_555 1_555
Cd3_2 N4_6 1_555 1_555
N5_4 N3_6 1_555 1_555
O2_4 Cd4 1_555 1_555
C1_7 C2_7 1_555 1_555
C2_7 C3_7 1_555 1_555
C3_7 H1_7 1_555 1_555
C4_7 C3_7 1_555 1_555
H2_7 C4_7 1_555 1_555
C5_7 C4_7 1_555 1_555
C7_7 C2_7 1_555 1_555
C11_7 C12_7 1_555 1_555
C12_7 H8_7 1_555 1_555
C13_7 C12_7 1_555 1_555
H9_3 C13_7 1_555 1_555
C14_7 C13_7 1_555 1_555
H10_7 C14_7 1_555 1_555
N4_7 C14_7 1_555 1_555
O3_4 C1_7 1_555 1_555
O4_4 C1_7 1_555 1_555
H3_7 C6_7 1_555 1_555
H6_7 C8_7 1_555 1_555
H7_7 C8_7 1_555 1_555
C9_7 C8_7 1_555 1_555
H11_7 C15_7 1_555 1_555
N5 C9_7 1_555 1_555
N3_7 C10_7 1_555 1_555
C9_7 N1_7 1_555 1_555
C10_7 N1_7 1_555 1_555
N5 N3_7 1_555 1_555
C1_8 C2_8 1_555 1_555
C2_8 C3_8 1_555 1_555
C3_8 H1_8 1_555 1_555
C4_8 C3_8 1_555 1_555
H2_8 C4_8 1_555 1_555
C5_8 C4_8 1_555 1_555
C7_8 C2_8 1_555 1_555
C11_8 C12_8 1_555 1_555
C12_8 H8_8 1_555 1_555
C13_8 C12_8 1_555 1_555
H9_4 C13_8 1_555 1_555
C14_8 C13_8 1_555 1_555
H10_8 C14_8 1_555 1_555
N4_8 C14_8 1_555 1_555
O3_3 C1_8 1_555 1_555
O4_3 C1_8 1_555 1_555
H3_8 C6_8 1_555 1_555
H6_8 C8_8 1_555 1_555
H7_8 C8_8 1_555 1_555
C9_8 C8_8 1_555 1_555
H11_8 C15_8 1_555 1_555
N5_2 C9_8 1_555 1_555
N3_8 C10_8 1_555 1_555
C9_8 N1_8 1_555 1_555
C10_8 N1_8 1_555 1_555
N5_2 N3_8 1_555 1_555

#END
