
###############################################################################
#
# This file contains modified crystal structure data generated from the
# MOF subset of the Cambridge Structural Database (CSD) v543 
# hosted by the Cambridge Crystallographic Data Centre (CCDC).
#
# This work is licensed under the Creative Commons
# Attribution-NonCommercial-ShareAlike 4.0 International License.
# To view a copy of this license, visit
# http://creativecommons.org/licenses/by-nc-sa/4.0/
# or send a letter to
# Creative Commons, PO Box 1866, Mountain View, CA 94042, USA.
#
# CIF created using the CSD Python API on 29 September 2022
# The structure has been converted into the P1 space group
# The structure has a 3D framework
# The original CSD entry PUFYOG is in the monoclinic crystal system
# The framework has been calculated to contain at least 10.0% void space
# The void calculation uses a probe of radius 1.32A, grid spacing 0.4
#
###############################################################################

data_PUFYOG
_chemical_formula_moiety         '(C52 H36 Cd2 N12 O8)n'
_symmetry_cell_setting           triclinic
_symmetry_space_group_name_H-M   'P 1'
_symmetry_Int_Tables_number      1
_space_group_name_Hall           'P 1'
loop_
_symmetry_equiv_pos_site_id
_symmetry_equiv_pos_as_xyz
1 x,y,z
_cell_length_a                   8.0602(7)
_cell_length_b                   13.9053(9)
_cell_length_c                   13.1597(13)
_cell_angle_alpha                90
_cell_angle_beta                 103.943(7)
_cell_angle_gamma                90
_cell_volume                     1431.48
loop_
_atom_site_label
_atom_site_type_symbol
_atom_site_fract_x
_atom_site_fract_y
_atom_site_fract_z
Cd2 Cd -0.000006(17) 0.181102(8) -0.000004(15)
O5 O 0.2551(3) 0.26492(14) 0.0378(2)
O6 O 0.0810(4) 0.30867(19) 0.1333(2)
Cd2_2 Cd -0.000006(17) 0.181102(8) 0.999996(15)
N7 N 0.1339(3) 0.06096(12) 0.93358(14)
Cd4 Cd 0.999994(17) 0.818898(8) 0.499996(15)
H2 H 0.6498 0.0209 0.9107
C8 C 0.1954(4) 0.1389(2) 0.7735(2)
H5 H 0.1023 0.1827 0.7783
H6 H 0.3017 0.1754 0.7817
H7 H 0.1679 0.1071 0.7051
C9 C 0.2169(3) 0.06493(17) 0.85807(18)
C11 C 0.2184(5) 0.31695(18) 0.1068(3)
C12 C 0.3450(4) 0.39483(18) 0.1559(2)
C13 C 0.5169(5) 0.38475(19) 0.1639(2)
H8 H 0.5592 0.3261 0.1429
C14 C 0.6323(4) 0.46006(19) 0.2030(3)
H9 H 0.7514 0.4531 0.2086
C15 C 0.5656(4) 0.54470(17) 0.2328(2)
C16 C 0.3908(4) 0.5550(2) 0.2289(2)
H10 H 0.3486 0.6124 0.2527
C17 C 0.2808(5) 0.4797(2) 0.1895(2)
H11 H 0.1619 0.4857 0.1854
C18 C 0.8413(6) 0.5654(2) 0.4386(3)
H12 H 0.9075 0.5947 0.5035
H13 H 0.7373 0.5363 0.4512
H14 H 0.9102 0.5157 0.4154
C19 C 0.7937(4) 0.6409(2) 0.3558(2)
C20 C 0.6639(3) 0.71499(16) 0.21202(18)
C21 C 0.5526(3) 0.73194(15) 0.10615(18)
C22 C 0.4779(3) 0.82247(13) 0.08020(17)
H15 H 0.4959 0.8724 0.1310
C26 C 0.5271(5) 0.6599(2) 0.0290(2)
H18 H 0.5797 0.5988 0.0453
N4 N 0.8521(3) 0.72932(15) 0.36012(17)
N5 N 0.7678(3) 0.77684(13) 0.26860(15)
N6 N 0.6768(3) 0.62741(14) 0.26305(17)
C1 C 0.8093(3) 0.89543(17) 0.6274(2)
C2 C 0.6813(3) 0.92321(14) 0.68929(17)
C3 C 0.7343(4) 0.96801(19) 0.7863(2)
H1 H 0.8514 0.9835 0.8131
C4 C 0.6143(3) 0.99037(18) 0.84440(19)
C5 C 0.4453(3) 0.96769(13) 0.80449(16)
C6 C 0.3887(3) 0.92512(17) 0.70630(17)
H3 H 0.2710 0.9113 0.6788
C7 C 0.5094(3) 0.90327(16) 0.64928(17)
H4 H 0.4732 0.8744 0.5822
C10 C 0.2943(3) 0.93429(14) 0.94899(15)
C23 C 0.3769(3) 0.83930(15) 0.97934(17)
C24 C 0.3503(4) 0.76572(17) 0.90357(18)
H16 H 0.2809 0.7768 0.8353
C25 C 0.4269(6) 0.67663(18) 0.9300(3)
H17 H 0.4100 0.6268 0.8792
N2 N 0.1829(3) 0.97685(12) 0.99122(14)
N3 N 0.3215(2) 0.98711(12) 0.86568(13)
O1 O 0.7520(2) 0.85345(15) 0.53978(14)
O2 O 0.9645(3) 0.91230(15) 0.66194(18)
H12_2 H 0.9075 0.4053 0.0035
Cd2_3 Cd 0.999994(17) 0.181102(8) -0.000004(15)
C1_2 C 0.8093(3) 0.10457(17) 0.1274(2)
C2_2 C 0.6813(3) 0.07679(14) 0.18929(17)
C3_2 C 0.7343(4) 0.03199(19) 0.2863(2)
H1_2 H 0.8514 0.0165 0.3131
C4_2 C 0.6143(3) 0.00963(18) 0.34440(19)
C5_2 C 0.4453(3) 0.03231(13) 0.30449(16)
C6_2 C 0.3887(3) 0.07488(17) 0.20630(17)
H3_2 H 0.2710 0.0887 0.1788
C7_2 C 0.5094(3) 0.09673(16) 0.14928(17)
H4_2 H 0.4732 0.1256 0.0822
C10_2 C 0.2943(3) 0.06571(14) 0.44899(15)
C11_2 C 0.2184(5) 0.68305(18) 0.6068(3)
C12_2 C 0.3450(4) 0.60517(18) 0.6559(2)
C13_2 C 0.5169(5) 0.61525(19) 0.6639(2)
H8_2 H 0.5592 0.6739 0.6429
C14_2 C 0.6323(4) 0.53994(19) 0.7030(3)
H9_2 H 0.7514 0.5469 0.7086
C15_2 C 0.5656(4) 0.45530(17) 0.7328(2)
C16_2 C 0.3908(4) 0.4450(2) 0.7289(2)
H10_2 H 0.3486 0.3876 0.7527
C17_2 C 0.2808(5) 0.5203(2) 0.6895(2)
H11_2 H 0.1619 0.5143 0.6854
C18_2 C 0.8413(6) 0.4346(2) 0.9386(3)
H13_2 H 0.7373 0.4637 0.9512
H14_2 H 0.9102 0.4843 0.9154
C19_2 C 0.7937(4) 0.3591(2) 0.8558(2)
C20_2 C 0.6639(3) 0.28501(16) 0.71202(18)
C21_2 C 0.5526(3) 0.26806(15) 0.60615(18)
C22_2 C 0.4779(3) 0.17753(13) 0.58020(17)
H15_2 H 0.4959 0.1276 0.6310
C23_2 C 0.3769(3) 0.16070(15) 0.47934(17)
C24_2 C 0.3503(4) 0.23428(17) 0.40357(18)
H16_2 H 0.2809 0.2232 0.3353
C25_2 C 0.4269(6) 0.32337(18) 0.4300(3)
H17_2 H 0.4100 0.3732 0.3792
C26_2 C 0.5271(5) 0.3401(2) 0.5290(2)
H18_2 H 0.5797 0.4012 0.5453
N2_2 N 0.1829(3) 0.02315(12) 0.49122(14)
N3_2 N 0.3215(2) 0.01289(12) 0.36568(13)
N4_2 N 0.8521(3) 0.27068(15) 0.86012(17)
N5_2 N 0.7678(3) 0.22316(13) 0.76860(15)
N6_2 N 0.6768(3) 0.37259(14) 0.76305(17)
O1_2 O 0.7520(2) 0.14655(15) 0.03978(14)
O2_2 O 0.9645(3) 0.08770(15) 0.16194(18)
O3 O 0.2551(3) 0.73508(14) 0.5378(2)
O4 O 0.0810(4) 0.69133(19) 0.6333(2)
Cd2_4 Cd 0.999994(17) 0.181102(8) 0.999996(15)
Cd4_2 Cd -0.000006(17) 0.818898(8) 0.499996(15)
H2_2 H 0.6498 0.9791 0.4107
C8_2 C 0.1954(4) 0.8611(2) 0.2735(2)
H5_2 H 0.1023 0.8173 0.2783
H6_2 H 0.3017 0.8246 0.2817
H7_2 H 0.1679 0.8929 0.2051
C9_2 C 0.2169(3) 0.93507(17) 0.35807(18)
N1 N 0.1339(3) 0.93904(12) 0.43358(14)
loop_
_geom_bond_atom_site_label_1
_geom_bond_atom_site_label_2
_geom_bond_site_symmetry_1
_geom_bond_site_symmetry_2
O5 Cd2 1_555 1_555
O6 Cd2 1_555 1_555
N7 Cd2_2 1_555 1_555
C8 H5 1_555 1_555
H6 C8 1_555 1_555
H7 C8 1_555 1_555
C9 C8 1_555 1_555
N7 C9 1_555 1_555
C11 C12 1_555 1_555
C12 C13 1_555 1_555
C13 H8 1_555 1_555
C14 C13 1_555 1_555
H9 C14 1_555 1_555
C15 C14 1_555 1_555
C16 C15 1_555 1_555
H10 C16 1_555 1_555
C17 C12 1_555 1_555
H11 C17 1_555 1_555
C18 H12 1_555 1_555
H13 C18 1_555 1_555
H14 C18 1_555 1_555
C19 C18 1_555 1_555
C20 C21 1_555 1_555
C21 C22 1_555 1_555
C22 H15 1_555 1_555
C26 C21 1_555 1_555
H18 C26 1_555 1_555
N4 C19 1_555 1_555
N5 C20 1_555 1_555
N6 C15 1_555 1_555
O5 C11 1_555 1_555
O6 C11 1_555 1_555
Cd4 N4 1_555 1_555
C16 C17 1_555 1_555
C19 N6 1_555 1_555
C20 N6 1_555 1_555
N4 N5 1_555 1_555
C1 C2 1_555 1_555
C2 C3 1_555 1_555
C3 H1 1_555 1_555
C4 C3 1_555 1_555
C5 C4 1_555 1_555
C6 C5 1_555 1_555
H3 C6 1_555 1_555
C7 C2 1_555 1_555
H4 C7 1_555 1_555
C10 C23 1_555 1_555
C24 C23 1_555 1_555
H16 C24 1_555 1_555
C25 C24 1_555 1_555
H17 C25 1_555 1_555
N2 C10 1_555 1_555
N3 C5 1_555 1_555
O1 C1 1_555 1_555
O2 C1 1_555 1_555
Cd4 O1 1_555 1_555
C6 C7 1_555 1_555
C10 N3 1_555 1_555
O2 Cd4 1_555 1_555
C1_2 C2_2 1_555 1_555
C2_2 C3_2 1_555 1_555
C3_2 H1_2 1_555 1_555
C4_2 C3_2 1_555 1_555
C5_2 C4_2 1_555 1_555
C6_2 C5_2 1_555 1_555
H3_2 C6_2 1_555 1_555
C7_2 C2_2 1_555 1_555
H4_2 C7_2 1_555 1_555
C10_2 C23_2 1_555 1_555
C11_2 C12_2 1_555 1_555
C12_2 C13_2 1_555 1_555
C13_2 H8_2 1_555 1_555
C14_2 C13_2 1_555 1_555
H9_2 C14_2 1_555 1_555
C15_2 C14_2 1_555 1_555
C16_2 C15_2 1_555 1_555
H10_2 C16_2 1_555 1_555
C17_2 C12_2 1_555 1_555
H11_2 C17_2 1_555 1_555
H13_2 C18_2 1_555 1_555
H14_2 C18_2 1_555 1_555
C19_2 C18_2 1_555 1_555
C20_2 C21_2 1_555 1_555
C21_2 C22_2 1_555 1_555
C22_2 H15_2 1_555 1_555
C23_2 C22_2 1_555 1_555
C24_2 C23_2 1_555 1_555
H16_2 C24_2 1_555 1_555
C25_2 C24_2 1_555 1_555
H17_2 C25_2 1_555 1_555
C26_2 C21_2 1_555 1_555
H18_2 C26_2 1_555 1_555
N2_2 C10_2 1_555 1_555
N3_2 C5_2 1_555 1_555
N4_2 C19_2 1_555 1_555
N5_2 C20_2 1_555 1_555
N6_2 C15_2 1_555 1_555
O1_2 C1_2 1_555 1_555
O2_2 C1_2 1_555 1_555
O3 C11_2 1_555 1_555
O4 C11_2 1_555 1_555
Cd2_3 O1_2 1_555 1_555
Cd2_4 N4_2 1_555 1_555
Cd4_2 O3 1_555 1_555
C6_2 C7_2 1_555 1_555
C10_2 N3_2 1_555 1_555
C16_2 C17_2 1_555 1_555
C19_2 N6_2 1_555 1_555
C20_2 N6_2 1_555 1_555
C25_2 C26_2 1_555 1_555
N4_2 N5_2 1_555 1_555
O2_2 Cd2_3 1_555 1_555
O4 Cd4_2 1_555 1_555
C8_2 H5_2 1_555 1_555
H6_2 C8_2 1_555 1_555
H7_2 C8_2 1_555 1_555
C9_2 C8_2 1_555 1_555
N1 C9_2 1_555 1_555
Cd4_2 N1 1_555 1_555

#END
