
###############################################################################
#
# This file contains modified crystal structure data generated from the
# MOF subset of the Cambridge Structural Database (CSD) v543 
# hosted by the Cambridge Crystallographic Data Centre (CCDC).
#
# This work is licensed under the Creative Commons
# Attribution-NonCommercial-ShareAlike 4.0 International License.
# To view a copy of this license, visit
# http://creativecommons.org/licenses/by-nc-sa/4.0/
# or send a letter to
# Creative Commons, PO Box 1866, Mountain View, CA 94042, USA.
#
# CIF created using the CSD Python API on 29 September 2022
# The structure has been converted into the P1 space group
# The structure has a 3D framework
# The original CSD entry PUJJEL is in the monoclinic crystal system
# The framework has been calculated to contain at least 10.0% void space
# The void calculation uses a probe of radius 1.32A, grid spacing 0.4
# H atom positions have been added when not included in the experimental data
#
###############################################################################

data_PUJJEL
_chemical_formula_moiety         '(C96 H68 La4 N24 O28)n'
_symmetry_cell_setting           triclinic
_symmetry_space_group_name_H-M   'P 1'
_symmetry_Int_Tables_number      1
_space_group_name_Hall           'P 1'
loop_
_symmetry_equiv_pos_site_id
_symmetry_equiv_pos_as_xyz
1 x,y,z
_cell_length_a                   24.434
_cell_length_b                   18.364
_cell_length_c                   8.259
_cell_angle_alpha                90
_cell_angle_beta                 101.72
_cell_angle_gamma                90
_cell_volume                     3628.6
loop_
_atom_site_label
_atom_site_type_symbol
_atom_site_fract_x
_atom_site_fract_y
_atom_site_fract_z
La6 La 0.24737(4) 0.01396(3) 0.30396(6)
C4 C 0.2961(6) 0.6491(6) 0.0283(15)
C6 C 0.3290(6) 0.3241(6) 0.0216(16)
H1 H 0.3193 0.3710 0.0476
C15 C 0.2840(6) 0.1316(7) 0.0884(14)
C16 C 0.3156(6) 0.1928(6) 0.0403(14)
C17 C 0.3007(6) 0.2620(7) 0.0735(16)
H7 H 0.2720 0.2693 0.1302
C19 C 0.2504(5) 0.8652(7) 0.1463(15)
C20 C 0.2635(5) 0.7903(6) 0.0985(15)
C21 C 0.3083(5) 0.7774(7) 0.0202(16)
C23 C 0.2372(6) 0.7302(6) 0.1479(19)
H11 H 0.2089 0.7364 0.2067
C24 C 0.2524(6) 0.6621(7) 0.1108(18)
H12 H 0.2330 0.6225 0.1414
N5 N 0.3096(5) 0.5764(5) 0.0048(14)
H14 H 0.2878 0.5456 0.0383
O2 O 0.2938(4) 0.0671(4) 0.0408(10)
O3 O 0.2514(4) 0.1408(4) 0.1899(11)
O4 O 0.2170(4) 0.8779(4) 0.2399(10)
O5 O 0.2774(4) 0.9190(4) 0.0936(9)
O8 O 0.6793(3) 0.5124(4) 0.0133(9)
O9 O 0.7938(4) 0.5671(4) 0.0408(10)
O13 O 0.7774(4) 0.4190(4) 0.0936(9)
C1 C 0.3506(5) 0.5452(7) 0.9392(15)
C2 C 0.3896(6) 0.4418(6) 0.8753(15)
C3 C 0.4263(5) 0.5506(6) 0.8213(14)
C5 C 0.3704(5) 0.3137(6) 0.9336(14)
C7 C 0.3848(6) 0.2424(7) 0.9037(16)
H2 H 0.4139 0.2342 0.8487
C8 C 0.5062(5) 0.5795(6) 0.6859(13)
C9 C 0.5267(5) 0.5110(7) 0.6702(14)
H3 H 0.5098 0.4712 0.7095
C10 C 0.5727(5) 0.4996(5) 0.5960(16)
H4 H 0.5858 0.4526 0.5866
C11 C 0.5988(5) 0.5572(7) 0.5371(14)
C12 C 0.5789(6) 0.6265(7) 0.5521(16)
H5 H 0.5969 0.6664 0.5174
C13 C 0.5320(6) 0.6365(7) 0.6189(18)
H6 H 0.5170 0.6831 0.6192
C14 C 0.6483(5) 0.5445(6) 0.4640(13)
C18 C 0.3574(6) 0.1838(6) 0.9527(15)
H8 H 0.3672 0.1370 0.9262
H9 H 0.3285 0.8167 0.9926
C22 C 0.3229(6) 0.7090(6) 0.9835(15)
H10 H 0.3517 0.7027 0.9267
N1 N 0.4289(4) 0.4792(5) 0.8074(12)
N2 N 0.3884(5) 0.5876(5) 0.8906(13)
N3 N 0.3500(5) 0.4724(5) 0.9368(13)
N4 N 0.3965(5) 0.3682(5) 0.8706(13)
H13 H 0.4218 0.3543 0.8187
N6 N 0.4632(5) 0.5965(5) 0.7617(14)
H15 H 0.4582 0.6423 0.7748
O1 O 0.6793(3) 0.4876(4) 0.5133(9)
O6 O 0.8543(4) 0.4662(6) 0.8681(11)
O7 O 0.6618(3) 0.5878(4) 0.3586(10)
La1 La 0.74737(4) 0.48604(3) 0.80396(6)
O10 O 0.7938(4) 0.4329(4) 0.5408(10)
O11 O 0.7514(4) 0.3592(4) 0.6899(11)
O12 O 0.7170(4) 0.6221(4) 0.7399(10)
O14 O 0.7774(4) 0.5810(4) 0.5936(9)
O15 O 0.6618(3) 0.4122(4) 0.8586(10)
La2 La 0.74737(4) 0.51396(3) 0.30396(6)
La4 La 0.24737(4) 0.98604(3) 0.80396(6)
H16 H 0.872476 0.504713 0.813067
H17 H 0.868547 0.468556 0.989467
C1_2 C 0.3506(5) 0.4548(7) 0.4392(15)
C2_2 C 0.3896(6) 0.5582(6) 0.3753(15)
C3_2 C 0.4263(5) 0.4494(6) 0.3213(14)
C4_2 C 0.2961(6) 0.3509(6) 0.5283(15)
C5_2 C 0.3704(5) 0.6863(6) 0.4336(14)
C6_2 C 0.3290(6) 0.6759(6) 0.5216(16)
H1_2 H 0.3193 0.6290 0.5476
C7_2 C 0.3848(6) 0.7576(7) 0.4037(16)
H2_2 H 0.4139 0.7658 0.3487
C8_2 C 0.5062(5) 0.4205(6) 0.1859(13)
C9_2 C 0.5267(5) 0.4890(7) 0.1702(14)
H3_2 H 0.5098 0.5288 0.2095
C10_2 C 0.5727(5) 0.5004(5) 0.0960(16)
H4_2 H 0.5858 0.5474 0.0866
C11_2 C 0.5988(5) 0.4428(7) 0.0371(14)
C12_2 C 0.5789(6) 0.3735(7) 0.0521(16)
H5_2 H 0.5969 0.3336 0.0174
C13_2 C 0.5320(6) 0.3635(7) 0.1189(18)
H6_2 H 0.5170 0.3169 0.1192
C15_2 C 0.2840(6) 0.8684(7) 0.5884(14)
C16_2 C 0.3156(6) 0.8072(6) 0.5403(14)
C17_2 C 0.3007(6) 0.7380(7) 0.5735(16)
H7_2 H 0.2720 0.7307 0.6302
C18_2 C 0.3574(6) 0.8162(6) 0.4527(15)
H8_2 H 0.3672 0.8630 0.4262
C19_2 C 0.2504(5) 0.1348(7) 0.6463(15)
C20_2 C 0.2635(5) 0.2097(6) 0.5985(15)
C21_2 C 0.3083(5) 0.2226(7) 0.5202(16)
H9_2 H 0.3285 0.1833 0.4926
C22_2 C 0.3229(6) 0.2910(6) 0.4835(15)
H10_2 H 0.3517 0.2973 0.4267
C23_2 C 0.2372(6) 0.2698(6) 0.6479(19)
H11_2 H 0.2089 0.2636 0.7067
C24_2 C 0.2524(6) 0.3379(7) 0.6108(18)
H12_2 H 0.2330 0.3775 0.6414
N1_2 N 0.4289(4) 0.5208(5) 0.3074(12)
N2_2 N 0.3884(5) 0.4124(5) 0.3906(13)
N3_2 N 0.3500(5) 0.5276(5) 0.4368(13)
N4_2 N 0.3965(5) 0.6318(5) 0.3706(13)
H13_2 H 0.4218 0.6457 0.3187
N5_2 N 0.3096(5) 0.4236(5) 0.5048(14)
H14_2 H 0.2878 0.4544 0.5383
N6_2 N 0.4632(5) 0.4035(5) 0.2617(14)
H15_2 H 0.4582 0.3577 0.2748
O2_2 O 0.2938(4) 0.9329(4) 0.5408(10)
O3_2 O 0.2514(4) 0.8592(4) 0.6899(11)
O4_2 O 0.2170(4) 0.1221(4) 0.7399(10)
O5_2 O 0.2774(4) 0.0810(4) 0.5936(9)
O6_2 O 0.8543(4) 0.5338(6) 0.3681(11)
O11_2 O 0.7514(4) 0.6408(4) 0.1899(11)
O12_2 O 0.7170(4) 0.3779(4) 0.2399(10)
H16_2 H 0.872476 0.495287 0.313067
H17_2 H 0.868547 0.531444 0.489467
C14_2 C 0.6483(5) 0.4555(6) 0.9640(13)
O8_2 O 0.1793(3) 0.0124(4) 0.0133(9)
C8_3 C 0.0062(5) 0.0795(6) 0.6859(13)
C9_3 C 0.0267(5) 0.0110(7) 0.6702(14)
C11_3 C 0.0988(5) 0.0572(7) 0.5371(14)
C12_3 C 0.0789(6) 0.1265(7) 0.5521(16)
H5_3 H 0.0969 0.1664 0.5174
C13_3 C 0.0320(6) 0.1365(7) 0.6189(18)
H6_3 H 0.0170 0.1831 0.6192
C14_3 C 0.1483(5) 0.0445(6) 0.4640(13)
O7_2 O 0.1618(3) 0.0878(4) 0.3586(10)
H16_3 H 0.372476 0.00471347 0.813067
H3_3 H 0.0098 0.9712 0.7095
C10_3 C 0.0727(5) 0.9996(5) 0.5960(16)
H4_3 H 0.0858 0.9526 0.5866
O1_2 O 0.1793(3) 0.9876(4) 0.5133(9)
O6_3 O 0.3543(4) 0.9662(6) 0.8681(11)
O15_2 O 0.1618(3) 0.9122(4) 0.8586(10)
H17_3 H 0.368547 0.968556 0.989467
C4_3 C 0.7961(6) 0.1491(6) 0.0283(15)
C19_3 C 0.7504(5) 0.3652(7) 0.1463(15)
C20_3 C 0.7635(5) 0.2903(6) 0.0985(15)
C21_3 C 0.8083(5) 0.2774(7) 0.0202(16)
C23_3 C 0.7372(6) 0.2302(6) 0.1479(19)
H11_3 H 0.7089 0.2364 0.2067
C24_3 C 0.7524(6) 0.1621(7) 0.1108(18)
H12_3 H 0.7330 0.1225 0.1414
N5_3 N 0.8096(5) 0.0764(5) 0.0048(14)
H14_3 H 0.7878 0.0456 0.0383
C1_3 C 0.8506(5) 0.0452(7) 0.9392(15)
C3_3 C 0.9263(5) 0.0506(6) 0.8213(14)
H9_3 H 0.8285 0.3167 0.9926
C22_3 C 0.8229(6) 0.2090(6) 0.9835(15)
H10_3 H 0.8517 0.2027 0.9267
N2_3 N 0.8884(5) 0.0876(5) 0.8906(13)
N6_3 N 0.9632(5) 0.0965(5) 0.7617(14)
H15_3 H 0.9582 0.1423 0.7748
C6_3 C 0.8290(6) 0.8241(6) 0.0216(16)
H1_3 H 0.8193 0.8710 0.0476
C15_3 C 0.7840(6) 0.6316(7) 0.0884(14)
C16_3 C 0.8156(6) 0.6928(6) 0.0403(14)
C17_3 C 0.8007(6) 0.7620(7) 0.0735(16)
H7_3 H 0.7720 0.7693 0.1302
C2_3 C 0.8896(6) 0.9418(6) 0.8753(15)
C5_3 C 0.8704(5) 0.8137(6) 0.9336(14)
C7_3 C 0.8848(6) 0.7424(7) 0.9037(16)
H2_3 H 0.9139 0.7342 0.8487
C18_3 C 0.8574(6) 0.6838(6) 0.9527(15)
H8_3 H 0.8672 0.6370 0.9262
N1_3 N 0.9289(4) 0.9792(5) 0.8074(12)
N3_3 N 0.8500(5) 0.9724(5) 0.9368(13)
N4_3 N 0.8965(5) 0.8682(5) 0.8706(13)
H13_3 H 0.9218 0.8543 0.8187
H3_4 H 0.0098 0.0288 0.2095
C10_4 C 0.0727(5) 0.0004(5) 0.0960(16)
H4_4 H 0.0858 0.0474 0.0866
O6_4 O 0.3543(4) 0.0338(6) 0.3681(11)
H17_4 H 0.368547 0.0314444 0.489467
C8_4 C 0.0062(5) 0.9205(6) 0.1859(13)
C9_4 C 0.0267(5) 0.9890(7) 0.1702(14)
C11_4 C 0.0988(5) 0.9428(7) 0.0371(14)
C12_4 C 0.0789(6) 0.8735(7) 0.0521(16)
H5_4 H 0.0969 0.8336 0.0174
C13_4 C 0.0320(6) 0.8635(7) 0.1189(18)
H6_4 H 0.0170 0.8169 0.1192
H16_4 H 0.372476 0.995287 0.313067
C14_4 C 0.1483(5) 0.9555(6) 0.9640(13)
C2_4 C 0.8896(6) 0.0582(6) 0.3753(15)
C5_4 C 0.8704(5) 0.1863(6) 0.4336(14)
C6_4 C 0.8290(6) 0.1759(6) 0.5216(16)
H1_4 H 0.8193 0.1290 0.5476
C7_4 C 0.8848(6) 0.2576(7) 0.4037(16)
H2_4 H 0.9139 0.2658 0.3487
C15_4 C 0.7840(6) 0.3684(7) 0.5884(14)
C16_4 C 0.8156(6) 0.3072(6) 0.5403(14)
C17_4 C 0.8007(6) 0.2380(7) 0.5735(16)
H7_4 H 0.7720 0.2307 0.6302
C18_4 C 0.8574(6) 0.3162(6) 0.4527(15)
H8_4 H 0.8672 0.3630 0.4262
N1_4 N 0.9289(4) 0.0208(5) 0.3074(12)
N3_4 N 0.8500(5) 0.0276(5) 0.4368(13)
N4_4 N 0.8965(5) 0.1318(5) 0.3706(13)
H13_4 H 0.9218 0.1457 0.3187
C1_4 C 0.8506(5) 0.9548(7) 0.4392(15)
C3_4 C 0.9263(5) 0.9494(6) 0.3213(14)
C4_4 C 0.7961(6) 0.8509(6) 0.5283(15)
C19_4 C 0.7504(5) 0.6348(7) 0.6463(15)
C20_4 C 0.7635(5) 0.7097(6) 0.5985(15)
C21_4 C 0.8083(5) 0.7226(7) 0.5202(16)
H9_4 H 0.8285 0.6833 0.4926
C22_4 C 0.8229(6) 0.7910(6) 0.4835(15)
H10_4 H 0.8517 0.7973 0.4267
C23_4 C 0.7372(6) 0.7698(6) 0.6479(19)
H11_4 H 0.7089 0.7636 0.7067
C24_4 C 0.7524(6) 0.8379(7) 0.6108(18)
H12_4 H 0.7330 0.8775 0.6414
N2_4 N 0.8884(5) 0.9124(5) 0.3906(13)
N5_4 N 0.8096(5) 0.9236(5) 0.5048(14)
H14_4 H 0.7878 0.9544 0.5383
N6_4 N 0.9632(5) 0.9035(5) 0.2617(14)
H15_4 H 0.9582 0.8577 0.2748
loop_
_geom_bond_atom_site_label_1
_geom_bond_atom_site_label_2
_geom_bond_site_symmetry_1
_geom_bond_site_symmetry_2
C6 H1 1_555 1_555
C15 C16 1_555 1_555
C16 C17 1_555 1_555
C17 C6 1_555 1_555
H7 C17 1_555 1_555
C19 C20 1_555 1_555
C20 C21 1_555 1_555
C23 C20 1_555 1_555
H11 C23 1_555 1_555
C24 C4 1_555 1_555
H12 C24 1_555 1_555
H14 N5 1_555 1_555
O2 C15 1_555 1_555
O3 C15 1_555 1_555
O4 C19 1_555 1_555
O5 C19 1_555 1_555
La6 O2 1_555 1_555
C4 N5 1_555 1_555
C23 C24 1_555 1_555
O3 La6 1_555 1_555
C1 N2 1_555 1_555
C2 N1 1_555 1_555
C3 N1 1_555 1_555
C7 C5 1_555 1_555
H2 C7 1_555 1_555
C8 C9 1_555 1_555
C9 H3 1_555 1_555
C10 C9 1_555 1_555
H4 C10 1_555 1_555
C11 C10 1_555 1_555
C12 C11 1_555 1_555
H5 C12 1_555 1_555
C13 C8 1_555 1_555
H6 C13 1_555 1_555
C14 C11 1_555 1_555
C18 C7 1_555 1_555
H8 C18 1_555 1_555
H10 C22 1_555 1_555
N2 C3 1_555 1_555
N3 C1 1_555 1_555
N4 C2 1_555 1_555
H13 N4 1_555 1_555
N6 C3 1_555 1_555
H15 N6 1_555 1_555
O1 C14 1_555 1_555
O6 La1 1_555 1_555
O7 C14 1_555 1_555
La1 O1 1_555 1_555
O10 La1 1_555 1_555
O11 La1 1_555 1_555
O12 La1 1_555 1_555
O14 La1 1_555 1_555
O15 La1 1_555 1_555
La2 O1 1_555 1_555
C2 N3 1_555 1_555
C5 N4 1_555 1_555
C8 N6 1_555 1_555
C12 C13 1_555 1_555
O7 La2 1_555 1_555
O10 La2 1_555 1_555
O14 La2 1_555 1_555
O6 H16 1_555 1_555
O6 H17 1_555 1_555
C1_2 N2_2 1_555 1_555
C2_2 N1_2 1_555 1_555
C3_2 N1_2 1_555 1_555
C4_2 C22_2 1_555 1_555
C5_2 C6_2 1_555 1_555
C6_2 H1_2 1_555 1_555
C7_2 C5_2 1_555 1_555
H2_2 C7_2 1_555 1_555
C8_2 C9_2 1_555 1_555
C9_2 H3_2 1_555 1_555
C10_2 C9_2 1_555 1_555
H4_2 C10_2 1_555 1_555
C11_2 C10_2 1_555 1_555
C12_2 C11_2 1_555 1_555
H5_2 C12_2 1_555 1_555
C13_2 C8_2 1_555 1_555
H6_2 C13_2 1_555 1_555
C15_2 C16_2 1_555 1_555
C16_2 C17_2 1_555 1_555
C17_2 C6_2 1_555 1_555
H7_2 C17_2 1_555 1_555
C18_2 C7_2 1_555 1_555
H8_2 C18_2 1_555 1_555
C19_2 C20_2 1_555 1_555
C20_2 C21_2 1_555 1_555
C21_2 H9_2 1_555 1_555
C22_2 C21_2 1_555 1_555
H10_2 C22_2 1_555 1_555
C23_2 C20_2 1_555 1_555
H11_2 C23_2 1_555 1_555
C24_2 C4_2 1_555 1_555
H12_2 C24_2 1_555 1_555
N2_2 C3_2 1_555 1_555
N3_2 C1_2 1_555 1_555
N4_2 C2_2 1_555 1_555
H13_2 N4_2 1_555 1_555
N5_2 C1_2 1_555 1_555
H14_2 N5_2 1_555 1_555
N6_2 C3_2 1_555 1_555
H15_2 N6_2 1_555 1_555
O2_2 C15_2 1_555 1_555
O3_2 C15_2 1_555 1_555
O4_2 C19_2 1_555 1_555
O5_2 C19_2 1_555 1_555
O6_2 La2 1_555 1_555
La2 O8 1_555 1_555
O9 La2 1_555 1_555
O11_2 La2 1_555 1_555
O12_2 La2 1_555 1_555
O13 La2 1_555 1_555
La6 O5_2 1_555 1_555
La4 O2_2 1_555 1_555
C2_2 N3_2 1_555 1_555
C4_2 N5_2 1_555 1_555
C5_2 N4_2 1_555 1_555
C8_2 N6_2 1_555 1_555
C12_2 C13_2 1_555 1_555
C16_2 C18_2 1_555 1_555
C23_2 C24_2 1_555 1_555
O3_2 La4 1_555 1_555
O6_2 H16_2 1_555 1_555
O6_2 H17_2 1_555 1_555
O15 C14_2 1_555 1_555
C8_3 C9_3 1_555 1_555
C12_3 C11_3 1_555 1_555
H5_3 C12_3 1_555 1_555
C13_3 C8_3 1_555 1_555
H6_3 C13_3 1_555 1_555
C14_3 C11_3 1_555 1_555
O7_2 C14_3 1_555 1_555
C12_3 C13_3 1_555 1_555
O7_2 La6 1_555 1_555
H4_3 C10_3 1_555 1_555
O6_3 La4 1_555 1_555
La4 O1_2 1_555 1_555
O15_2 La4 1_555 1_555
O6_3 H17_3 1_555 1_555
C19_3 C20_3 1_555 1_555
C20_3 C21_3 1_555 1_555
C23_3 C20_3 1_555 1_555
H11_3 C23_3 1_555 1_555
C24_3 C4_3 1_555 1_555
H12_3 C24_3 1_555 1_555
H14_3 N5_3 1_555 1_555
O12_2 C19_3 1_555 1_555
O13 C19_3 1_555 1_555
C4_3 N5_3 1_555 1_555
C23_3 C24_3 1_555 1_555
C1_3 N2_3 1_555 1_555
H10_3 C22_3 1_555 1_555
N2_3 C3_3 1_555 1_555
N6_3 C3_3 1_555 1_555
H15_3 N6_3 1_555 1_555
C6_3 H1_3 1_555 1_555
C15_3 C16_3 1_555 1_555
C16_3 C17_3 1_555 1_555
C17_3 C6_3 1_555 1_555
H7_3 C17_3 1_555 1_555
O9 C15_3 1_555 1_555
O11_2 C15_3 1_555 1_555
C2_3 N1_3 1_555 1_555
C7_3 C5_3 1_555 1_555
H2_3 C7_3 1_555 1_555
C18_3 C7_3 1_555 1_555
H8_3 C18_3 1_555 1_555
N4_3 C2_3 1_555 1_555
H13_3 N4_3 1_555 1_555
C2_3 N3_3 1_555 1_555
C5_3 N4_3 1_555 1_555
H4_4 C10_4 1_555 1_555
O6_4 La6 1_555 1_555
La6 O8_2 1_555 1_555
O6_4 H17_4 1_555 1_555
C8_4 C9_4 1_555 1_555
C12_4 C11_4 1_555 1_555
H5_4 C12_4 1_555 1_555
C13_4 C8_4 1_555 1_555
H6_4 C13_4 1_555 1_555
C12_4 C13_4 1_555 1_555
O15_2 C14_4 1_555 1_555
C2_4 N1_4 1_555 1_555
C5_4 C6_4 1_555 1_555
C6_4 H1_4 1_555 1_555
C7_4 C5_4 1_555 1_555
H2_4 C7_4 1_555 1_555
C15_4 C16_4 1_555 1_555
C16_4 C17_4 1_555 1_555
C17_4 C6_4 1_555 1_555
H7_4 C17_4 1_555 1_555
C18_4 C7_4 1_555 1_555
H8_4 C18_4 1_555 1_555
N4_4 C2_4 1_555 1_555
H13_4 N4_4 1_555 1_555
O10 C15_4 1_555 1_555
O11 C15_4 1_555 1_555
C2_4 N3_4 1_555 1_555
C5_4 N4_4 1_555 1_555
C16_4 C18_4 1_555 1_555
C1_4 N2_4 1_555 1_555
C4_4 C22_4 1_555 1_555
C19_4 C20_4 1_555 1_555
C20_4 C21_4 1_555 1_555
C21_4 H9_4 1_555 1_555
C22_4 C21_4 1_555 1_555
H10_4 C22_4 1_555 1_555
C23_4 C20_4 1_555 1_555
H11_4 C23_4 1_555 1_555
C24_4 C4_4 1_555 1_555
H12_4 C24_4 1_555 1_555
N2_4 C3_4 1_555 1_555
N5_4 C1_4 1_555 1_555
H14_4 N5_4 1_555 1_555
N6_4 C3_4 1_555 1_555
H15_4 N6_4 1_555 1_555
O12 C19_4 1_555 1_555
O14 C19_4 1_555 1_555
C4_4 N5_4 1_555 1_555
C23_4 C24_4 1_555 1_555

#END
