
###############################################################################
#
# This file contains modified crystal structure data generated from the
# MOF subset of the Cambridge Structural Database (CSD) v543 
# hosted by the Cambridge Crystallographic Data Centre (CCDC).
#
# This work is licensed under the Creative Commons
# Attribution-NonCommercial-ShareAlike 4.0 International License.
# To view a copy of this license, visit
# http://creativecommons.org/licenses/by-nc-sa/4.0/
# or send a letter to
# Creative Commons, PO Box 1866, Mountain View, CA 94042, USA.
#
# CIF created using the CSD Python API on 29 September 2022
# The structure has been converted into the P1 space group
# The structure has a 3D framework
# The original CSD entry PUKVAU is in the triclinic crystal system
# The framework has been calculated to contain at least 10.0% void space
# The void calculation uses a probe of radius 1.32A, grid spacing 0.4
# H atom positions have been added when not included in the experimental data
# Generated hydrogen atom positions removed from atoms on special positions
#
###############################################################################

data_PUKVAU
_chemical_formula_moiety         '(C76 H84 Cl2 Cu9 N12 O24 S12)n'
_symmetry_cell_setting           triclinic
_symmetry_space_group_name_H-M   'P 1'
_symmetry_Int_Tables_number      1
_space_group_name_Hall           'P 1'
loop_
_symmetry_equiv_pos_site_id
_symmetry_equiv_pos_as_xyz
1 x,y,z
_cell_length_a                   10.3350(4)
_cell_length_b                   13.3823(5)
_cell_length_c                   22.6623(9)
_cell_angle_alpha                100.9032(9)
_cell_angle_beta                 91.3590(10)
_cell_angle_gamma                104.3307(9)
_cell_volume                     2973.78
loop_
_atom_site_label
_atom_site_type_symbol
_atom_site_fract_x
_atom_site_fract_y
_atom_site_fract_z
Cu4 Cu 0.0000 0.0000 0.5000
N15 N 0.0119(4) 0.0145(3) 0.41327(17)
O25 O 0.1679(3) 0.1121(3) 0.52441(16)
Cu4_2 Cu 0.0000 1.0000 0.5000
O4 O 0.0910(3) 0.8470(3) 0.48114(15)
S11 S 0.05894(12) 0.05000(10) 0.21898(5)
C67 C 0.0330(4) 0.0281(4) 0.2922(2)
C70 C 0.0121(7) 0.1032(4) 0.3942(3)
H64 H 0.0046 0.1625 0.4232
C71 C 0.0223(6) 0.1136(4) 0.3355(2)
H65 H 0.0220 0.1786 0.3245
Cu1 Cu 0.5000 0.0000 0.5000
Cu2 Cu 0.04941(7) 0.54785(6) 0.27955(4)
Cu4_3 Cu 1.0000 0.0000 0.5000
S3 S 0.60407(11) 0.41311(8) 0.32361(5)
S4 S 0.45973(11) 0.19175(8) 0.25743(5)
N3 N 0.2178(4) 0.5048(3) 0.28994(18)
N4 N 0.5008(4) 0.0520(3) 0.42229(16)
C12 C 0.2900(5) 0.5350(4) 0.3433(2)
H11 H 0.2580 0.5765 0.3756
C13 C 0.4073(5) 0.5088(4) 0.3533(2)
H12 H 0.4555 0.5330 0.3917
C14 C 0.4557(4) 0.4469(3) 0.3074(2)
C15 C 0.3827(5) 0.4176(3) 0.2519(2)
H13 H 0.4130 0.3768 0.2186
C16 C 0.2669(5) 0.4480(3) 0.2454(2)
H14 H 0.2187 0.4274 0.2069
C17 C 0.6011(5) 0.3039(3) 0.2624(2)
H15 H 0.6021 0.3290 0.2240
H16 H 0.6841 0.2808 0.2670
C18 C 0.4862(4) 0.1419(3) 0.32136(19)
C19 C 0.6013(4) 0.1730(3) 0.3606(2)
H17 H 0.6766 0.2257 0.3537
C20 C 0.6042(4) 0.1261(3) 0.4095(2)
H18 H 0.6835 0.1474 0.4357
C21 C 0.3912(4) 0.0201(3) 0.38323(19)
C22 C 0.3806(4) 0.0621(3) 0.33326(19)
H20 H 0.3017 0.0371 0.3068
C34 C 0.1585(5) 0.6669(4) 0.1889(2)
H31 H 0.1742 0.6710 0.1482
O3 O 0.1459(3) 0.7215(2) 0.33833(15)
O7 O 0.0982(3) 0.5779(3) 0.19825(16)
O8 O 0.1999(3) 0.7500(3) 0.22676(16)
C66 C 0.0792(5) 0.9259(4) 0.1780(2)
H60 H 0.1445 0.9036 0.2018
H61 H 0.1189 0.9378 0.1398
C68 C 0.0282(4) 0.9346(4) 0.3109(2)
H62 H 0.0321 0.8735 0.2825
C69 C 0.0177(4) 0.9312(4) 0.3711(2)
H63 H 0.0145 0.8665 0.3832
C76 C 0.2834(5) 0.1004(4) 0.5246(2)
H70 H 0.3544 0.1619 0.5375
O22 O 0.3149(3) 0.0159(2) 0.50943(14)
Cl2 Cl 0.61676(11) 0.20533(8) 0.56154(5)
O24 O 0.9090(3) 0.1530(3) 0.51886(15)
Cu1_2 Cu 0.5000 1.0000 0.5000
Cu4_4 Cu 1.0000 1.0000 0.5000
Cl1 Cl 0.38324(11) 0.79467(8) 0.43846(5)
H19 H 0.3182 0.9661 0.3907
C36 C 0.7166(5) 0.8996(4) 0.4754(2)
H33 H 0.6456 0.8381 0.4625
O1 O 0.6851(3) 0.9841(2) 0.49057(14)
O2 O 0.8321(3) 0.8879(3) 0.47559(16)
N13 N 0.4992(4) 0.9480(3) 0.57771(16)
N14 N 0.9881(4) 0.9855(3) 0.58673(17)
Cu3 Cu 0.41825(10) 0.06113(12) 0.04813(4)
N1 N 0.5021(5) 0.0225(5) 0.1179(2)
C4 C 0.6778(5) 0.0370(4) 0.1924(2)
H3 H 0.7671 0.0693 0.2088
C5 C 0.6278(5) 0.0665(5) 0.1434(2)
H4 H 0.6841 0.1202 0.1269
H34 H 0.7132 0.2308 0.0237
O9 O 0.6081(4) 0.0899(4) 0.00134(17)
O11 O 0.4255(7) 0.1786(10) 0.0882(5)
O12 O 0.2179(8) 0.1163(4) 0.1061(2)
C38 C 0.2914(12) 0.1880(7) 0.1134(3)
H35 H 0.2765 0.2526 0.1337
H56 H 0.8484 0.0149 0.0124
S6 S 0.07014(14) 0.18146(11) 0.83989(5)
N5 N 0.3134(6) 0.0975(6) 0.9832(2)
C23 C 0.1873(6) 0.0415(6) 0.9680(3)
C24 C 0.1063(6) 0.0619(5) 0.9249(2)
H22 H 0.0165 0.0207 0.9155
C25 C 0.1585(6) 0.1443(5) 0.8952(2)
C26 C 0.2898(6) 0.2030(6) 0.9111(3)
H23 H 0.3286 0.2596 0.8921
C27 C 0.3628(7) 0.1775(7) 0.9553(3)
H24 H 0.4521 0.2184 0.9665
C37 C 0.7092(6) 0.1645(5) 0.9987(3)
O10 O 0.8030(4) 0.1592(3) 0.96656(17)
S7 S 0.33866(11) 0.07394(8) 0.71881(5)
S8 S 0.49955(11) 0.30294(9) 0.75612(6)
N8 N 0.1198(4) 0.4081(3) 0.7306(2)
C39 C 0.5752(5) 0.0516(5) 0.8576(2)
H36 H 0.6641 0.0827 0.8749
C40 C 0.5336(5) 0.0855(4) 0.8086(2)
H37 H 0.5927 0.1390 0.7929
C41 C 0.4044(4) 0.0409(4) 0.78230(19)
C44 C 0.4739(5) 0.1788(4) 0.7042(2)
H40 H 0.4565 0.1899 0.6631
H41 H 0.5577 0.1558 0.7047
C45 C 0.3509(4) 0.3393(3) 0.7438(2)
C46 C 0.2684(5) 0.3059(4) 0.6903(2)
H42 H 0.2899 0.2586 0.6575
C47 C 0.1557(5) 0.3422(4) 0.6856(3)
H43 H 0.1010 0.3195 0.6488
C48 C 0.1994(5) 0.4415(4) 0.7812(2)
H44 H 0.1756 0.4891 0.8132
C49 C 0.3152(5) 0.4099(4) 0.7894(2)
H45 H 0.3698 0.4364 0.8261
C73 C 0.0632(5) 0.5954(4) 0.6454(3)
H67 H 0.0855 0.6118 0.6073
O14 O 0.0120(3) 0.4996(3) 0.64604(17)
O15 O 0.0871(5) 0.6693(4) 0.6884(3)
S1 S 0.66134(11) 0.92606(8) 0.28119(5)
S2 S 0.50045(11) 0.69706(9) 0.24388(6)
N2 N 0.8802(4) 0.5919(3) 0.2694(2)
C1 C 0.4248(5) 0.9484(5) 0.1424(2)
H1 H 0.3359 0.9173 0.1251
C2 C 0.4664(5) 0.9145(4) 0.1914(2)
H2 H 0.4073 0.8610 0.2071
C3 C 0.5956(4) 0.9591(4) 0.21770(19)
C6 C 0.5261(5) 0.8212(4) 0.2958(2)
H5 H 0.5435 0.8101 0.3369
H6 H 0.4423 0.8442 0.2953
C7 C 0.6491(4) 0.6607(3) 0.2562(2)
C8 C 0.7316(5) 0.6941(4) 0.3097(2)
H7 H 0.7101 0.7414 0.3425
C9 C 0.8443(5) 0.6578(4) 0.3144(3)
H8 H 0.8990 0.6805 0.3512
C10 C 0.8006(5) 0.5585(4) 0.2188(2)
H9 H 0.8244 0.5109 0.1868
C11 C 0.6848(5) 0.5901(4) 0.2106(2)
H10 H 0.6302 0.5636 0.1739
C35 C 0.9368(5) 0.4046(4) 0.3546(3)
H32 H 0.9145 0.3882 0.3927
O5 O 0.9880(3) 0.5004(3) 0.35396(17)
O6 O 0.9129(5) 0.3307(4) 0.3116(3)
S12 S 0.92986(14) 0.81854(11) 0.16011(5)
N11 N 0.6866(6) 0.9025(6) 0.0168(2)
C61 C 0.8127(6) 0.9585(6) 0.0320(3)
C62 C 0.8937(6) 0.9381(5) 0.0751(2)
H57 H 0.9835 0.9793 0.0845
C63 C 0.8415(6) 0.8557(5) 0.1048(2)
C64 C 0.7102(6) 0.7970(6) 0.0889(3)
H58 H 0.6714 0.7404 0.1079
C65 C 0.6372(7) 0.8225(7) 0.0447(3)
H59 H 0.5479 0.7816 0.0335
C74 C 0.2908(6) 0.8355(5) 0.0013(3)
O19 O 0.1970(4) 0.8408(3) 0.03344(17)
H21 H 0.1516 0.9851 0.9876
Cu6 Cu 0.58175(10) 0.93887(12) 0.95187(4)
N7 N 0.4979(5) 0.9775(5) 0.8821(2)
C42 C 0.3222(5) 0.9630(4) 0.8076(2)
H38 H 0.2329 0.9307 0.7912
C43 C 0.3722(5) 0.9335(5) 0.8566(2)
H39 H 0.3159 0.8798 0.8731
H68 H 0.2868 0.7692 0.9763
O18 O 0.3919(4) 0.9101(4) 0.99866(17)
O20 O 0.5745(7) 0.8214(10) 0.9118(5)
O21 O 0.7821(8) 0.8837(4) 0.8939(2)
C75 C 0.7086(12) 0.8120(7) 0.8866(3)
H69 H 0.7235 0.7474 0.8663
H54 H 0.6818 0.0339 0.6093
C28 C 0.9208(5) 0.0741(4) 0.8220(2)
H25 H 0.8555 0.0964 0.7982
H26 H 0.8811 0.0622 0.8602
C30 C 0.9718(4) 0.0654(4) 0.6891(2)
H27 H 0.9679 0.1265 0.7175
C31 C 0.9823(4) 0.0688(4) 0.6289(2)
H28 H 0.9855 0.1335 0.6168
Cu5 Cu 0.95059(7) 0.45215(6) 0.72045(4)
S9 S 0.39593(11) 0.58689(8) 0.67639(5)
S10 S 0.54027(11) 0.80825(8) 0.74257(5)
N9 N 0.7822(4) 0.4952(3) 0.71006(18)
C50 C 0.7100(5) 0.4650(4) 0.6567(2)
H46 H 0.7420 0.4235 0.6244
C51 C 0.5927(5) 0.4912(4) 0.6467(2)
H47 H 0.5445 0.4670 0.6083
C52 C 0.5443(4) 0.5531(3) 0.6926(2)
C53 C 0.6173(5) 0.5824(3) 0.7481(2)
H48 H 0.5870 0.6232 0.7814
C54 C 0.7331(5) 0.5520(3) 0.7546(2)
H49 H 0.7813 0.5726 0.7931
C55 C 0.3989(5) 0.6961(3) 0.7376(2)
H50 H 0.3979 0.6710 0.7760
H51 H 0.3159 0.7192 0.7330
C56 C 0.5138(4) 0.8581(3) 0.67864(19)
C57 C 0.3987(4) 0.8270(3) 0.6394(2)
H52 H 0.3234 0.7743 0.6463
C58 C 0.3958(4) 0.8739(3) 0.5905(2)
H53 H 0.3165 0.8526 0.5643
C59 C 0.6088(4) 0.9799(3) 0.61677(19)
C60 C 0.6194(4) 0.9379(3) 0.66674(19)
H55 H 0.6983 0.9629 0.6932
C72 C 0.8415(5) 0.3331(4) 0.8111(2)
H66 H 0.8258 0.3290 0.8518
O13 O 0.8541(3) 0.2785(2) 0.66167(15)
O16 O 0.9018(3) 0.4221(3) 0.80175(16)
O17 O 0.8001(3) 0.2500(3) 0.77324(16)
S5 S 0.94106(12) 0.95000(10) 0.78102(5)
C29 C 0.9670(4) 0.9719(4) 0.7078(2)
C32 C 0.9879(7) 0.8968(4) 0.6058(3)
H29 H 0.9954 0.8375 0.5768
C33 C 0.9777(6) 0.8864(4) 0.6645(2)
H30 H 0.9780 0.8214 0.6755
loop_
_geom_bond_atom_site_label_1
_geom_bond_atom_site_label_2
_geom_bond_site_symmetry_1
_geom_bond_site_symmetry_2
N15 Cu4 1_555 1_555
O25 Cu4 1_555 1_555
O4 Cu4_2 1_555 1_555
C67 S11 1_555 1_555
C70 N15 1_555 1_555
H64 C70 1_555 1_555
C71 C67 1_555 1_555
H65 C71 1_555 1_555
C70 C71 1_555 1_555
S3 C14 1_555 1_555
S4 C17 1_555 1_555
N3 Cu2 1_555 1_555
N4 Cu1 1_555 1_555
C12 N3 1_555 1_555
H11 C12 1_555 1_555
C13 C12 1_555 1_555
H12 C13 1_555 1_555
C14 C13 1_555 1_555
C15 C14 1_555 1_555
H13 C15 1_555 1_555
C16 N3 1_555 1_555
H14 C16 1_555 1_555
C17 S3 1_555 1_555
H15 C17 1_555 1_555
H16 C17 1_555 1_555
C18 S4 1_555 1_555
C19 C18 1_555 1_555
H17 C19 1_555 1_555
C20 N4 1_555 1_555
H18 C20 1_555 1_555
C21 N4 1_555 1_555
C22 C18 1_555 1_555
H20 C22 1_555 1_555
C34 H31 1_555 1_555
O3 Cu2 1_555 1_555
O7 Cu2 1_555 1_555
O8 C34 1_555 1_555
H60 C66 1_555 1_555
H61 C66 1_555 1_555
H62 C68 1_555 1_555
C69 C68 1_555 1_555
H63 C69 1_555 1_555
C76 H70 1_555 1_555
O22 Cu1 1_555 1_555
O25 C76 1_555 1_555
Cl2 Cu1 1_555 1_555
O24 Cu4_3 1_555 1_555
C15 C16 1_555 1_555
C19 C20 1_555 1_555
C21 C22 1_555 1_555
C34 O7 1_555 1_555
C76 O22 1_555 1_555
Cu1_2 Cl1 1_555 1_555
Cu4_4 O2 1_555 1_555
C36 H33 1_555 1_555
O1 Cu1_2 1_555 1_555
O2 C36 1_555 1_555
N13 Cu1_2 1_555 1_555
N14 Cu4_4 1_555 1_555
C36 O1 1_555 1_555
Cu3 N1 1_555 1_555
H3 C4 1_555 1_555
C5 N1 1_555 1_555
H4 C5 1_555 1_555
O9 Cu3 1_555 1_555
O11 Cu3 1_555 1_555
O12 Cu3 1_555 1_555
C38 O11 1_555 1_555
H35 C38 1_555 1_555
C4 C5 1_555 1_555
O12 C38 1_555 1_555
S6 C25 1_555 1_555
C23 N5 1_555 1_555
C24 C23 1_555 1_555
H22 C24 1_555 1_555
C25 C24 1_555 1_555
C26 C25 1_555 1_555
H23 C26 1_555 1_555
C27 N5 1_555 1_555
H24 C27 1_555 1_555
O10 C37 1_555 1_555
S7 C41 1_555 1_555
S8 C44 1_555 1_555
N8 C47 1_555 1_555
H36 C39 1_555 1_555
C40 C39 1_555 1_555
H37 C40 1_555 1_555
C41 C40 1_555 1_555
C44 S7 1_555 1_555
H40 C44 1_555 1_555
H41 C44 1_555 1_555
C45 S8 1_555 1_555
C46 C45 1_555 1_555
H42 C46 1_555 1_555
C47 C46 1_555 1_555
H43 C47 1_555 1_555
C48 N8 1_555 1_555
H44 C48 1_555 1_555
C49 C45 1_555 1_555
H45 C49 1_555 1_555
C73 H67 1_555 1_555
O15 C73 1_555 1_555
C26 C27 1_555 1_555
C48 C49 1_555 1_555
C73 O14 1_555 1_555
S1 C3 1_555 1_555
S2 C6 1_555 1_555
N2 C9 1_555 1_555
C1 H1 1_555 1_555
C2 C1 1_555 1_555
H2 C2 1_555 1_555
C3 C2 1_555 1_555
C6 S1 1_555 1_555
H5 C6 1_555 1_555
H6 C6 1_555 1_555
C7 S2 1_555 1_555
C8 C7 1_555 1_555
H7 C8 1_555 1_555
C9 C8 1_555 1_555
H8 C9 1_555 1_555
C10 N2 1_555 1_555
H9 C10 1_555 1_555
C11 C7 1_555 1_555
H10 C11 1_555 1_555
C35 H32 1_555 1_555
O6 C35 1_555 1_555
S12 C63 1_555 1_555
C61 N11 1_555 1_555
C62 C61 1_555 1_555
H57 C62 1_555 1_555
C63 C62 1_555 1_555
C64 C63 1_555 1_555
H58 C64 1_555 1_555
C65 N11 1_555 1_555
H59 C65 1_555 1_555
O19 C74 1_555 1_555
C10 C11 1_555 1_555
C35 O5 1_555 1_555
C64 C65 1_555 1_555
N7 Cu6 1_555 1_555
H38 C42 1_555 1_555
C43 N7 1_555 1_555
H39 C43 1_555 1_555
O20 Cu6 1_555 1_555
O21 Cu6 1_555 1_555
C75 O20 1_555 1_555
H69 C75 1_555 1_555
Cu6 O18 1_555 1_555
C42 C43 1_555 1_555
O21 C75 1_555 1_555
H25 C28 1_555 1_555
H26 C28 1_555 1_555
H27 C30 1_555 1_555
C31 C30 1_555 1_555
H28 C31 1_555 1_555
S9 C52 1_555 1_555
S10 C55 1_555 1_555
N9 Cu5 1_555 1_555
N13 C58 1_555 1_555
C50 N9 1_555 1_555
H46 C50 1_555 1_555
C51 C50 1_555 1_555
H47 C51 1_555 1_555
C52 C51 1_555 1_555
C53 C52 1_555 1_555
H48 C53 1_555 1_555
C54 N9 1_555 1_555
H49 C54 1_555 1_555
C55 S9 1_555 1_555
H50 C55 1_555 1_555
H51 C55 1_555 1_555
C56 S10 1_555 1_555
C57 C56 1_555 1_555
H52 C57 1_555 1_555
C58 C57 1_555 1_555
H53 C58 1_555 1_555
C59 N13 1_555 1_555
C60 C56 1_555 1_555
H55 C60 1_555 1_555
C72 H66 1_555 1_555
O13 Cu5 1_555 1_555
O16 Cu5 1_555 1_555
O17 C72 1_555 1_555
C53 C54 1_555 1_555
C59 C60 1_555 1_555
C72 O16 1_555 1_555
C29 S5 1_555 1_555
C32 N14 1_555 1_555
H29 C32 1_555 1_555
C33 C29 1_555 1_555
H30 C33 1_555 1_555
C32 C33 1_555 1_555

#END
