
###############################################################################
#
# This file contains modified crystal structure data generated from the
# MOF subset of the Cambridge Structural Database (CSD) v543 
# hosted by the Cambridge Crystallographic Data Centre (CCDC).
#
# This work is licensed under the Creative Commons
# Attribution-NonCommercial-ShareAlike 4.0 International License.
# To view a copy of this license, visit
# http://creativecommons.org/licenses/by-nc-sa/4.0/
# or send a letter to
# Creative Commons, PO Box 1866, Mountain View, CA 94042, USA.
#
# CIF created using the CSD Python API on 29 September 2022
# The structure has been converted into the P1 space group
# The structure has a 3D framework
# The original CSD entry PULQOE is in the triclinic crystal system
# The framework has been calculated to contain at least 10.0% void space
# The void calculation uses a probe of radius 1.32A, grid spacing 0.4
# H atom positions have been added when not included in the experimental data
#
###############################################################################

data_PULQOE
_chemical_formula_moiety         '(C48 H56 Cd4 Cl8 N8 O8)n'
_symmetry_cell_setting           triclinic
_symmetry_space_group_name_H-M   'P 1'
_symmetry_Int_Tables_number      1
_space_group_name_Hall           'P 1'
loop_
_symmetry_equiv_pos_site_id
_symmetry_equiv_pos_as_xyz
1 x,y,z
_cell_length_a                   14.431(5)
_cell_length_b                   15.645(5)
_cell_length_c                   18.541(5)
_cell_angle_alpha                87.253(5)
_cell_angle_beta                 72.501(5)
_cell_angle_gamma                63.291(5)
_cell_volume                     3547.62
loop_
_atom_site_label
_atom_site_type_symbol
_atom_site_fract_x
_atom_site_fract_y
_atom_site_fract_z
_atom_site_U_iso_or_equiv
_atom_site_thermal_displace_type
C25 C 0.0839(5) 0.9786(4) 0.0296(3) 0.0353 Uani
H27 H 0.1400 0.9645 0.0501 0.0420 Uiso
C26 C 0.0215(5) 0.9868(4) 0.9233(3) 0.0364 Uani
C27 C 0.1073(5) 0.9644(4) 0.9518(3) 0.0305 Uani
H28 H 0.0358 0.9782 0.8711 0.0440 Uiso
C30 C 0.2218(5) 0.9286(4) 0.8990(3) 0.0324 Uani
O5 O 0.2424(3) 0.9069(3) 0.8298(2) 0.0444 Uani
O6 O 0.2951(3) 0.9225(3) 0.9259(3) 0.0453 Uani
Cd3 Cd 0.42706(3) 0.87653(3) 0.80503(2) 0.0337 Uani
C35 C 0.9158(8) 0.0234(8) 0.5172(6) 0.1071 Uani
H36 H 0.8811 0.0653 0.4836 0.1290 Uiso
C36 C 0.9370(8) 0.0747(8) 0.5697(6) 0.1071 Uani
N6 N 0.8294(8) 0.1576(7) 0.6252(5) 0.1121 Uani
H39 H 0.9769 0.0289 0.5998 0.1290 Uiso
H40 H 0.9829 0.1024 0.5403 0.1290 Uiso
H43 H 0.7875 0.1998 0.5997 0.1340 Uiso
C39 C 0.8750(9) 0.1971(8) 0.6584(7) 0.0938 Uani
H44 H 0.7899 0.1340 0.6593 0.1340 Uiso
C42 C 0.7611(8) 0.2832(5) 0.7180(4) 0.0673 Uani
C44 C 0.7288(7) 0.3771(5) 0.6989(4) 0.0630 Uani
C45 C 0.7209(6) 0.2681(5) 0.7916(4) 0.0532 Uani
H48 H 0.7588 0.3871 0.6494 0.0760 Uiso
N8 N 0.6570(4) 0.4526(4) 0.7487(3) 0.0391 Uani
H49 H 0.7423 0.2060 0.8061 0.0630 Uiso
C47 C 0.6490(6) 0.3456(5) 0.8429(4) 0.0455 Uani
Cd6 Cd 0.58567(4) 0.61345(3) 0.70913(3) 0.0398 Uani
C48 C 0.6223(5) 0.4360(5) 0.8194(4) 0.0411 Uani
H51 H 0.6184 0.3378 0.8931 0.0540 Uiso
H52 H 0.5768 0.4886 0.8558 0.0500 Uiso
H55 H 0.921718 0.226753 0.617443 . .
H56 H 0.926886 0.145778 0.688544 . .
C28 C 0.9148(5) 0.5094(5) 0.4768(4) 0.0476 Uani
C29 C 0.9851(6) 0.5190(5) 0.5764(4) 0.0466 Uani
C31 C 0.8977(5) 0.5294(4) 0.5534(4) 0.0402 Uani
H29 H 0.8565 0.5156 0.4615 0.0570 Uiso
H30 H 0.9755 0.5312 0.6274 0.0560 Uiso
C32 C 0.9355(8) 0.5321(8) 0.0048(6) 0.1071 Uani
C33 C 0.7866(5) 0.5612(5) 0.6106(4) 0.0450 Uani
H31 H 0.8988 0.5790 0.0491 0.1290 Uiso
H32 H 0.8993 0.4920 0.0087 0.1290 Uiso
O7 O 0.7148(4) 0.5514(4) 0.5910(3) 0.0551 Uani
O8 O 0.7695(4) 0.5964(4) 0.6768(3) 0.0639 Uani
H35 H 0.8857 0.9801 0.5364 0.1290 Uiso
C34 C 0.9386(7) 0.5804(7) 0.9323(6) 0.1071 Uani
H33 H 0.9675 0.5327 0.8895 0.1290 Uiso
H34 H 0.9866 0.6101 0.9252 0.1290 Uiso
N5 N 0.8265(4) 0.6555(4) 0.9353(3) 0.0446 Uani
C37 C 0.8350(5) 0.7026(5) 0.8642(4) 0.0486 Uani
H37 H 0.7984 0.6993 0.9756 0.0540 Uiso
H38 H 0.7822 0.6281 0.9399 0.0540 Uiso
C38 C 0.7333(5) 0.7961(5) 0.8717(4) 0.0411 Uani
H41 H 0.8977 0.7151 0.8520 0.0580 Uiso
H42 H 0.8461 0.6598 0.8228 0.0580 Uiso
C40 C 0.6520(5) 0.7970(5) 0.8457(4) 0.0406 Uani
C41 C 0.7185(6) 0.8798(6) 0.9035(4) 0.0513 Uani
H45 H 0.6629 0.7400 0.8232 0.0490 Uiso
N7 N 0.5592(4) 0.8761(4) 0.8518(3) 0.0399 Uani
H46 H 0.7714 0.8805 0.9220 0.0620 Uiso
C43 C 0.6263(7) 0.9621(6) 0.9082(4) 0.0597 Uani
C46 C 0.5457(6) 0.9585(5) 0.8824(4) 0.0509 Uani
Cl6 Cl 0.53330(13) 0.79368(11) 0.67027(8) 0.0401 Uani
Cl7 Cl 0.48725(13) 0.69059(11) 0.84679(9) 0.0407 Uani
Cl8 Cl 0.43116(14) 0.60405(13) 0.68030(11) 0.0532 Uani
H25 H 0.1143 0.0199 0.4636 0.1290 Uiso
Cd1 Cd 0.57294(3) 0.12347(3) 0.19497(2) 0.0337 Uani
Cl2 Cl 0.46670(13) 0.20632(11) 0.32973(8) 0.0401 Uani
Cl3 Cl 0.51275(13) 0.30941(11) 0.15321(9) 0.0407 Uani
N1 N 0.4408(4) 0.1239(4) 0.1482(3) 0.0399 Uani
O1 O 0.7576(3) 0.0931(3) 0.1702(2) 0.0444 Uani
O2 O 0.7049(3) 0.0775(3) 0.0741(3) 0.0453 Uani
Cd2 Cd 0.41433(4) 0.38655(3) 0.29087(3) 0.0398 Uani
C1 C 0.4543(6) 0.0415(5) 0.1176(4) 0.0509 Uani
C2 C 0.3480(5) 0.2030(5) 0.1543(4) 0.0406 Uani
C3 C 0.7782(5) 0.0714(4) 0.1010(3) 0.0324 Uani
Cl4 Cl 0.56884(14) 0.39595(13) 0.31970(11) 0.0532 Uani
N2 N 0.3430(4) 0.5474(4) 0.2513(3) 0.0391 Uani
O3 O 0.2852(4) 0.4486(4) 0.4090(3) 0.0551 Uani
O4 O 0.2305(4) 0.4036(4) 0.3232(3) 0.0639 Uani
C4 C 0.3737(7) 0.0379(6) 0.0918(4) 0.0597 Uani
H2 H 0.3371 0.2600 0.1768 0.0490 Uiso
C5 C 0.2667(5) 0.2039(5) 0.1283(4) 0.0411 Uani
C6 C 0.8927(5) 0.0356(4) 0.0482(3) 0.0305 Uani
C7 C 0.3777(5) 0.5640(5) 0.1806(4) 0.0411 Uani
C8 C 0.2712(7) 0.6229(5) 0.3011(4) 0.0630 Uani
C9 C 0.2134(5) 0.4388(5) 0.3894(4) 0.0450 Uani
C10 C 0.2815(6) 0.1202(6) 0.0965(4) 0.0513 Uani
C11 C 0.1650(5) 0.2974(5) 0.1358(4) 0.0486 Uani
C12 C 0.9785(5) 0.0132(4) 0.0767(3) 0.0364 Uani
H4 H 0.4232 0.5114 0.1442 0.0500 Uiso
C14 C 0.3510(6) 0.6544(5) 0.1571(4) 0.0455 Uani
C15 C 0.2389(8) 0.7168(5) 0.2820(4) 0.0673 Uani
H5 H 0.2412 0.6129 0.3506 0.0760 Uiso
C16 C 0.1023(5) 0.4706(4) 0.4466(4) 0.0402 Uani
H6 H 0.2286 0.1195 0.0780 0.0620 Uiso
H7 H 0.1023 0.2849 0.1480 0.0580 Uiso
H8 H 0.1539 0.3402 0.1772 0.0580 Uiso
N3 N 0.1735(4) 0.3445(4) 0.0647(3) 0.0446 Uani
H9 H 0.9642 0.0218 0.1289 0.0440 Uiso
H11 H 0.3816 0.6622 0.1069 0.0540 Uiso
C17 C 0.2791(6) 0.7319(5) 0.2084(4) 0.0532 Uani
C18 C 0.1250(9) 0.8029(8) 0.3416(7) 0.0938 Uani
C19 C 0.0149(6) 0.4810(5) 0.4236(4) 0.0466 Uani
C20 C 0.0852(5) 0.4906(5) 0.5232(4) 0.0476 Uani
C21 C 0.0614(7) 0.4196(7) 0.0677(6) 0.1071 Uani
H12 H 0.2016 0.3007 0.0244 0.0540 Uiso
H13 H 0.2178 0.3719 0.0601 0.0540 Uiso
H14 H 0.2577 0.7940 0.1939 0.0630 Uiso
N4 N 0.1706(8) 0.8424(7) 0.3748(5) 0.1121 Uani
H15 H 0.0245 0.4688 0.3726 0.0560 Uiso
H16 H 0.1435 0.4844 0.5385 0.0570 Uiso
H17 H 0.0325 0.4673 0.1105 0.1290 Uiso
H18 H 0.0134 0.3899 0.0748 0.1290 Uiso
C23 C 0.0630(8) 0.9253(8) 0.4303(6) 0.1071 Uani
H19 H 0.2101 0.8660 0.3407 0.1340 Uiso
H20 H 0.2125 0.8002 0.4003 0.1340 Uiso
H23 H 0.0231 0.9711 0.4002 0.1290 Uiso
H24 H 0.0171 0.8976 0.4597 0.1290 Uiso
C24 C 0.0842(8) 0.9766(8) 0.4828(6) 0.1071 Uani
H26 H 0.1189 0.9347 0.5164 0.1290 Uiso
H53 H 0.0782816 0.773247 0.382557 . .
H54 H 0.0731145 0.854222 0.311456 . .
C13 C 0.9161(5) 0.0214(4) 0.9704(3) 0.0353 Uani
H10 H 0.8600 0.0355 0.9499 0.0420 Uiso
C22 C 0.0645(8) 0.4679(8) 0.9952(6) 0.1071 Uani
H21 H 0.1012 0.4210 0.9509 0.1290 Uiso
H22 H 0.1007 0.5080 0.9913 0.1290 Uiso
Cl1 Cl 0.60918(13) 0.95850(11) 0.24049(10) 0.0458 Uani
H1 H 0.5184 0.9854 0.1134 0.0610 Uiso
H3 H 0.3836 0.9799 0.0719 0.0710 Uiso
H47 H 0.6164 0.0201 0.9281 0.0710 Uiso
Cl5 Cl 0.39082(13) 0.04150(11) 0.75951(10) 0.0458 Uani
H50 H 0.4816 0.0146 0.8866 0.0610 Uiso
loop_
_atom_site_aniso_label
_atom_site_aniso_U_11
_atom_site_aniso_U_22
_atom_site_aniso_U_33
_atom_site_aniso_U_23
_atom_site_aniso_U_13
_atom_site_aniso_U_12
C25 0.028 0.041 0.034 0.003 -0.007 -0.015
C26 0.033 0.042 0.033 0.002 -0.004 -0.02
C27 0.027 0.023 0.036 0.003 -0.003 -0.011
C30 0.027 0.021 0.037 0.005 0.003 -0.009
O5 0.031 0.054 0.035 -0.002 0.0043 -0.017
O6 0.025 0.055 0.045 0.004 -0.003 -0.014
Cd3 0.0214 0.0391 0.0346 0.00034 -0.00176 -0.01278
C35 0.086 0.101 0.097 -0.014 -0.032 -0.007
C36 0.086 0.101 0.097 -0.014 -0.032 -0.007
N6 0.125 0.129 0.09 -0.003 -0.032 -0.064
C39 0.088 0.101 0.125 0.039 -0.059 -0.057
C42 0.098 0.026 0.036 0 0.003 -0.008
C44 0.083 0.043 0.041 0.008 -0.003 -0.021
C45 0.059 0.039 0.057 0.011 -0.02 -0.018
N8 0.033 0.029 0.041 -0.002 -0.006 -0.005
C47 0.048 0.049 0.035 0.005 -0.009 -0.021
Cd6 0.0297 0.0349 0.0432 -0.0025 0.0031 -0.0134
C48 0.033 0.042 0.042 -0.004 -0.012 -0.011
C28 0.031 0.044 0.056 0.001 -0.002 -0.014
C29 0.043 0.044 0.046 0.008 -0.01 -0.017
C31 0.036 0.035 0.042 0.004 -0.004 -0.015
C32 0.086 0.101 0.097 -0.014 -0.032 -0.007
C33 0.032 0.036 0.048 0.003 0.001 -0.008
O7 0.035 0.065 0.055 -0.005 0 -0.022
O8 0.041 0.071 0.055 -0.003 0.009 -0.019
C34 0.086 0.101 0.097 -0.014 -0.032 -0.007
N5 0.03 0.052 0.044 0.009 -0.014 -0.011
C37 0.037 0.066 0.042 0.018 -0.011 -0.025
C38 0.036 0.058 0.037 0.02 -0.012 -0.029
C40 0.041 0.043 0.041 0.009 -0.007 -0.026
C41 0.061 0.067 0.048 0.019 -0.03 -0.041
N7 0.033 0.046 0.045 0.008 -0.017 -0.019
C43 0.082 0.056 0.061 0.009 -0.036 -0.04
C46 0.055 0.046 0.06 0.012 -0.03 -0.023
Cl6 0.0394 0.0363 0.0358 0.0001 0.0014 -0.0178
Cl7 0.0386 0.0353 0.0406 -0.0036 0.0008 -0.018
Cl8 0.0428 0.0528 0.0694 0.0152 -0.0183 -0.0267
Cd1 0.0214 0.0391 0.0346 0.00034 -0.00176 -0.01278
Cl2 0.0394 0.0363 0.0358 0.0001 0.0014 -0.0178
Cl3 0.0386 0.0353 0.0406 -0.0036 0.0008 -0.018
N1 0.033 0.046 0.045 0.008 -0.017 -0.019
O1 0.031 0.054 0.035 -0.002 0.0043 -0.017
O2 0.025 0.055 0.045 0.004 -0.003 -0.014
Cd2 0.0297 0.0349 0.0432 -0.0025 0.0031 -0.0134
C1 0.055 0.046 0.06 0.012 -0.03 -0.023
C2 0.041 0.043 0.041 0.009 -0.007 -0.026
C3 0.027 0.021 0.037 0.005 0.003 -0.009
Cl4 0.0428 0.0528 0.0694 0.0152 -0.0183 -0.0267
N2 0.033 0.029 0.041 -0.002 -0.006 -0.005
O3 0.035 0.065 0.055 -0.005 0 -0.022
O4 0.041 0.071 0.055 -0.003 0.009 -0.019
C4 0.082 0.056 0.061 0.009 -0.036 -0.04
C5 0.036 0.058 0.037 0.02 -0.012 -0.029
C6 0.027 0.023 0.036 0.003 -0.003 -0.011
C7 0.033 0.042 0.042 -0.004 -0.012 -0.011
C8 0.083 0.043 0.041 0.008 -0.003 -0.021
C9 0.032 0.036 0.048 0.003 0.001 -0.008
C10 0.061 0.067 0.048 0.019 -0.03 -0.041
C11 0.037 0.066 0.042 0.018 -0.011 -0.025
C12 0.033 0.042 0.033 0.002 -0.004 -0.02
C14 0.048 0.049 0.035 0.005 -0.009 -0.021
C15 0.098 0.026 0.036 0 0.003 -0.008
C16 0.036 0.035 0.042 0.004 -0.004 -0.015
N3 0.03 0.052 0.044 0.009 -0.014 -0.011
C17 0.059 0.039 0.057 0.011 -0.02 -0.018
C18 0.088 0.101 0.125 0.039 -0.059 -0.057
C19 0.043 0.044 0.046 0.008 -0.01 -0.017
C20 0.031 0.044 0.056 0.001 -0.002 -0.014
C21 0.086 0.101 0.097 -0.014 -0.032 -0.007
N4 0.125 0.129 0.09 -0.003 -0.032 -0.064
C23 0.086 0.101 0.097 -0.014 -0.032 -0.007
C24 0.086 0.101 0.097 -0.014 -0.032 -0.007
C13 0.028 0.041 0.034 0.003 -0.007 -0.015
C22 0.086 0.101 0.097 -0.014 -0.032 -0.007
Cl1 0.0328 0.0345 0.0619 0.0043 -0.0138 -0.0091
Cl5 0.0328 0.0345 0.0619 0.0043 -0.0138 -0.0091
loop_
_geom_bond_atom_site_label_1
_geom_bond_atom_site_label_2
_geom_bond_site_symmetry_1
_geom_bond_site_symmetry_2
H27 C25 1_555 1_555
H28 C26 1_555 1_555
C30 C27 1_555 1_555
O5 C30 1_555 1_555
O6 C30 1_555 1_555
Cd3 O5 1_555 1_555
C26 C27 1_555 1_555
O6 Cd3 1_555 1_555
H36 C35 1_555 1_555
C36 C35 1_555 1_555
N6 C36 1_555 1_555
H39 C36 1_555 1_555
H40 C36 1_555 1_555
H43 N6 1_555 1_555
C39 N6 1_555 1_555
H44 N6 1_555 1_555
C42 C39 1_555 1_555
C44 C42 1_555 1_555
C45 C42 1_555 1_555
H48 C44 1_555 1_555
N8 C44 1_555 1_555
H49 C45 1_555 1_555
C47 C45 1_555 1_555
Cd6 N8 1_555 1_555
C48 N8 1_555 1_555
H51 C47 1_555 1_555
H52 C48 1_555 1_555
C47 C48 1_555 1_555
C39 H55 1_555 1_555
C39 H56 1_555 1_555
C31 C28 1_555 1_555
H29 C28 1_555 1_555
H30 C29 1_555 1_555
C33 C31 1_555 1_555
H31 C32 1_555 1_555
H32 C32 1_555 1_555
O7 C33 1_555 1_555
O8 C33 1_555 1_555
Cd6 O7 1_555 1_555
C29 C31 1_555 1_555
O8 Cd6 1_555 1_555
H33 C34 1_555 1_555
H34 C34 1_555 1_555
N5 C34 1_555 1_555
C37 N5 1_555 1_555
H37 N5 1_555 1_555
H38 N5 1_555 1_555
C38 C37 1_555 1_555
H41 C37 1_555 1_555
H42 C37 1_555 1_555
C40 C38 1_555 1_555
C41 C38 1_555 1_555
H45 C40 1_555 1_555
N7 C40 1_555 1_555
H46 C41 1_555 1_555
C43 C41 1_555 1_555
Cd3 N7 1_555 1_555
C46 N7 1_555 1_555
Cl6 Cd3 1_555 1_555
Cl7 Cd3 1_555 1_555
Cd6 Cl6 1_555 1_555
Cl8 Cd6 1_555 1_555
C43 C46 1_555 1_555
Cl7 Cd6 1_555 1_555
Cl2 Cd1 1_555 1_555
Cl3 Cd1 1_555 1_555
N1 Cd1 1_555 1_555
O1 Cd1 1_555 1_555
O2 Cd1 1_555 1_555
Cd2 Cl2 1_555 1_555
C1 N1 1_555 1_555
C2 N1 1_555 1_555
C3 O1 1_555 1_555
Cl4 Cd2 1_555 1_555
N2 Cd2 1_555 1_555
O3 Cd2 1_555 1_555
O4 Cd2 1_555 1_555
C4 C1 1_555 1_555
H2 C2 1_555 1_555
C5 C2 1_555 1_555
C6 C3 1_555 1_555
C7 N2 1_555 1_555
C8 N2 1_555 1_555
C9 O3 1_555 1_555
C10 C4 1_555 1_555
C11 C5 1_555 1_555
C12 C6 1_555 1_555
H4 C7 1_555 1_555
C14 C7 1_555 1_555
C15 C8 1_555 1_555
H5 C8 1_555 1_555
C16 C9 1_555 1_555
H6 C10 1_555 1_555
H7 C11 1_555 1_555
H8 C11 1_555 1_555
N3 C11 1_555 1_555
H9 C12 1_555 1_555
H11 C14 1_555 1_555
C17 C14 1_555 1_555
C18 C15 1_555 1_555
C19 C16 1_555 1_555
C20 C16 1_555 1_555
C21 N3 1_555 1_555
H12 N3 1_555 1_555
H13 N3 1_555 1_555
H14 C17 1_555 1_555
N4 C18 1_555 1_555
H15 C19 1_555 1_555
H16 C20 1_555 1_555
H17 C21 1_555 1_555
H18 C21 1_555 1_555
C23 N4 1_555 1_555
H19 N4 1_555 1_555
H20 N4 1_555 1_555
H23 C23 1_555 1_555
H24 C23 1_555 1_555
C24 C23 1_555 1_555
H26 C24 1_555 1_555
Cl3 Cd2 1_555 1_555
O2 C3 1_555 1_555
O4 C9 1_555 1_555
C5 C10 1_555 1_555
C15 C17 1_555 1_555
C18 H53 1_555 1_555
C18 H54 1_555 1_555
H10 C13 1_555 1_555
H21 C22 1_555 1_555
H22 C22 1_555 1_555

#END
