
###############################################################################
#
# This file contains modified crystal structure data generated from the
# MOF subset of the Cambridge Structural Database (CSD) v543 
# hosted by the Cambridge Crystallographic Data Centre (CCDC).
#
# This work is licensed under the Creative Commons
# Attribution-NonCommercial-ShareAlike 4.0 International License.
# To view a copy of this license, visit
# http://creativecommons.org/licenses/by-nc-sa/4.0/
# or send a letter to
# Creative Commons, PO Box 1866, Mountain View, CA 94042, USA.
#
# CIF created using the CSD Python API on 29 September 2022
# The structure has been converted into the P1 space group
# The structure has a 3D framework
# The original CSD entry PUMCEI is in the triclinic crystal system
# The framework has been calculated to contain at least 10.0% void space
# The void calculation uses a probe of radius 1.32A, grid spacing 0.4
#
###############################################################################

data_PUMCEI
_chemical_formula_moiety         '(C36 H36 N4 O14 Zn3)n'
_symmetry_cell_setting           triclinic
_symmetry_space_group_name_H-M   'P 1'
_symmetry_Int_Tables_number      1
_space_group_name_Hall           'P 1'
loop_
_symmetry_equiv_pos_site_id
_symmetry_equiv_pos_as_xyz
1 x,y,z
_cell_length_a                   8.3953(5)
_cell_length_b                   9.7690(7)
_cell_length_c                   14.2096(11)
_cell_angle_alpha                102.584(4)
_cell_angle_beta                 101.421(4)
_cell_angle_gamma                92.328(4)
_cell_volume                     1110.58
loop_
_atom_site_label
_atom_site_type_symbol
_atom_site_fract_x
_atom_site_fract_y
_atom_site_fract_z
_atom_site_U_iso_or_equiv
_atom_site_thermal_displace_type
C6 C 0.0930(8) 0.6926(7) 0.3192(5) 0.0317 Uani
H5 H 0.098648 0.651845 0.372934 0.0380 Uiso
C7 C 0.0094(9) 0.6164(8) 0.2265(5) 0.0439 Uani
C8 C 0.0016(9) 0.6749(8) 0.1462(5) 0.0364 Uani
C9 C 0.0630(9) 0.8112(8) 0.1627(5) 0.0382 Uani
H7 H 0.049329 0.857344 0.111294 0.0460 Uiso
C10 C 0.1447(8) 0.8802(7) 0.2551(4) 0.0320 Uani
H8 H 0.188767 0.972319 0.264544 0.0380 Uiso
N2 N 0.1642(6) 0.8203(6) 0.3333(3) 0.0237 Uani
C19 C 0.4857(10) 0.7959(8) 0.1282(5) 0.0442 Uani
H18 H 0.536174 0.881063 0.125583 0.0530 Uiso
C20 C 0.3565(11) 0.7330(9) 0.0524(5) 0.0520 Uani
H19 H 0.322828 0.775284 0.000038 0.0620 Uiso
C21 C 0.2771(10) 0.6068(8) 0.0544(5) 0.0432 Uani
C22 C 0.3421(11) 0.5445(8) 0.1305(6) 0.0519 Uani
H20 H 0.298114 0.456757 0.133010 0.0620 Uiso
C23 C 0.4744(9) 0.6149(7) 0.2033(5) 0.0405 Uani
H21 H 0.517579 0.571080 0.253465 0.0490 Uiso
N3 N 0.5415(6) 0.7404(5) 0.2049(3) 0.0242 Uani
Zn5 Zn 0.66883(8) 0.86608(7) 0.33482(5) 0.0182 Uani
Zn9 Zn 0.32753(8) 0.92174(6) 0.46499(4) 0.0138 Uani
C1 C 0.5143(10) 0.2041(8) 0.8718(5) 0.0442 Uani
H1 H 0.463826 0.118937 0.874417 0.0530 Uiso
C2 C 0.6435(11) 0.2670(9) 0.9476(5) 0.0520 Uani
H2 H 0.677172 0.224716 0.999962 0.0620 Uiso
C3 C 0.7229(10) 0.3932(8) 0.9456(5) 0.0432 Uani
C4 C 0.6579(11) 0.4555(8) 0.8695(6) 0.0519 Uani
H3 H 0.701886 0.543243 0.866990 0.0620 Uiso
C5 C 0.5256(9) 0.3851(7) 0.7967(5) 0.0405 Uani
H4 H 0.482421 0.428920 0.746535 0.0490 Uiso
C13 C 0.1828(7) 0.2189(6) 0.4962(4) 0.0194 Uani
C14 C 0.0771(7) 0.3110(6) 0.4424(4) 0.0217 Uani
H11 H 0.145986 0.381129 0.426590 0.0260 Uiso
H12 H 0.010119 0.359810 0.484958 0.0260 Uiso
H14 H 0.034382 0.185576 0.301644 0.0280 Uiso
C17 C 0.5426(7) 0.3079(6) 0.4423(4) 0.0223 Uani
C18 C 0.5088(8) 0.4608(6) 0.4492(4) 0.0236 Uani
H15 H 0.409226 0.464439 0.401926 0.0280 Uiso
H16 H 0.596984 0.508822 0.430651 0.0280 Uiso
N1 N 0.4585(6) 0.2596(5) 0.7951(3) 0.0242 Uani
O1 O 0.5943(5) 0.2718(4) 0.5215(3) 0.0248 Uani
O2 O 0.5179(6) 0.2280(4) 0.3576(3) 0.0310 Uani
O3 O 0.2198(5) 0.2589(4) 0.5904(3) 0.0215 Uani
O4 O 0.2257(5) 0.1118(4) 0.4462(3) 0.0208 Uani
O7 O 0.4846(4) 0.0275(4) 0.5994(3) 0.0149 Uani
Zn1 Zn 0.33117(8) 0.13392(7) 0.66518(5) 0.0182 Uani
Zn2 Zn 0.67247(8) 0.07826(6) 0.53501(4) 0.0138 Uani
C24 C 0.9070(8) 0.3074(7) 0.6808(5) 0.0317 Uani
H22 H 0.901352 0.348155 0.627066 0.0380 Uiso
C25 C 0.9906(9) 0.3836(8) 0.7735(5) 0.0439 Uani
C26 C 0.9984(9) 0.3251(8) 0.8538(5) 0.0364 Uani
C27 C 0.9370(9) 0.1888(8) 0.8373(5) 0.0382 Uani
H24 H 0.950671 0.142656 0.888706 0.0460 Uiso
C28 C 0.8553(8) 0.1198(7) 0.7449(4) 0.0320 Uani
H25 H 0.811233 0.027681 0.735456 0.0380 Uiso
N4 N 0.8358(6) 0.1797(6) 0.6667(3) 0.0237 Uani
C31 C 0.4574(7) 0.6921(6) 0.5577(4) 0.0223 Uani
C32 C 0.4912(8) 0.5392(6) 0.5508(4) 0.0236 Uani
H28 H 0.590774 0.535561 0.598074 0.0280 Uiso
H29 H 0.403016 0.491178 0.569349 0.0280 Uiso
O8 O 0.4057(5) 0.7282(4) 0.4785(3) 0.0248 Uani
O9 O 0.4821(6) 0.7720(4) 0.6424(3) 0.0310 Uani
O18 O 0.8548(5) 0.1095(5) 0.4522(3) 0.0258 Uani
H17 H 0.505430 0.955603 0.633316 0.0220 Uiso
C35 C 0.0325(8) 0.7755(6) 0.6524(4) 0.0234 Uani
H32 H 0.104405 0.714495 0.682551 0.0280 Uiso
C36 C 0.1330(7) 0.8931(6) 0.6333(4) 0.0196 Uani
O12 O 0.1452(5) 0.8905(5) 0.5478(3) 0.0258 Uani
O13 O 0.2004(5) 0.9931(4) 0.7078(3) 0.0246 Uani
O17 O 0.7743(5) 0.8882(4) 0.5538(3) 0.0208 Uani
O21 O 0.5154(4) 0.9725(4) 0.4006(3) 0.0149 Uani
C15 C 0.9675(8) 0.2245(6) 0.3476(4) 0.0234 Uani
H13 H 0.895595 0.285505 0.317449 0.0280 Uiso
C16 C 0.8670(7) 0.1069(6) 0.3667(4) 0.0196 Uani
O6 O 0.7996(5) 0.0069(4) 0.2922(3) 0.0246 Uani
H34 H 0.494570 0.044397 0.366684 0.0220 Uiso
C33 C 0.8172(7) 0.7811(6) 0.5038(4) 0.0194 Uani
C34 C 0.9229(7) 0.6890(6) 0.5576(4) 0.0217 Uani
H30 H 0.854014 0.618871 0.573410 0.0260 Uiso
H31 H 0.989881 0.640190 0.515042 0.0260 Uiso
H33 H 0.965618 0.814424 0.698356 0.0280 Uiso
O10 O 0.7802(5) 0.7411(4) 0.4096(3) 0.0215 Uani
H19_2 H 0.322828 0.775284 1.000038 0.0620 Uiso
H23 H 0.040686 0.473069 0.780820 0.0520 Uiso
C29 C 0.0484(10) 0.4037(8) 0.9611(5) 0.0462 Uani
H26 H 0.123750 0.351508 0.998909 0.0560 Uiso
C30 C 0.1073(10) 0.5593(8) 0.9873(5) 0.0440 Uani
H27 H 0.096647 0.595446 0.927377 0.0530 Uiso
H2_2 H 0.677172 0.224716 -0.000038 0.0620 Uiso
H6 H 0.959314 0.526931 0.219180 0.0520 Uiso
C11 C 0.9516(10) 0.5963(8) 0.0389(5) 0.0462 Uani
H9 H 0.876250 0.648492 0.001091 0.0560 Uiso
C12 C 0.8927(10) 0.4407(8) 0.0127(5) 0.0440 Uani
H10 H 0.903353 0.404554 0.072623 0.0530 Uiso
loop_
_atom_site_aniso_label
_atom_site_aniso_U_11
_atom_site_aniso_U_22
_atom_site_aniso_U_33
_atom_site_aniso_U_23
_atom_site_aniso_U_13
_atom_site_aniso_U_12
C6 0.027 0.044 0.018 -0.005 0.007 -0.013
C7 0.042 0.032 0.042 -0.009 -0.004 -0.019
C8 0.037 0.048 0.014 -0.005 -0.007 0.012
C9 0.05 0.042 0.016 -0.002 -0.001 0.013
C10 0.034 0.036 0.02 0.005 -0.007 0.005
N2 0.016 0.034 0.016 -0.003 0.002 -0.002
C19 0.054 0.046 0.025 0.009 -0.006 -0.018
C20 0.07 0.058 0.019 0.01 -0.009 -0.013
C21 0.062 0.038 0.016 -0.008 -0.005 -0.01
C22 0.062 0.033 0.045 -0.001 -0.011 -0.015
C23 0.047 0.034 0.03 0.006 -0.013 -0.007
N3 0.03 0.021 0.017 -0.005 0.005 0.001
Zn5 0.0166 0.0221 0.0116 -0.004 0.0012 0.0026
Zn9 0.014 0.0144 0.0087 -0.0031 -0.0011 -0.0005
C1 0.054 0.046 0.025 0.009 -0.006 -0.018
C2 0.07 0.058 0.019 0.01 -0.009 -0.013
C3 0.062 0.038 0.016 -0.008 -0.005 -0.01
C4 0.062 0.033 0.045 -0.001 -0.011 -0.015
C5 0.047 0.034 0.03 0.006 -0.013 -0.007
C13 0.011 0.019 0.026 0.001 0.004 -0.002
C14 0.025 0.017 0.025 0.008 0.006 0.002
C17 0.021 0.018 0.026 0 0.007 -0.001
C18 0.032 0.015 0.023 0.005 0.004 0
N1 0.03 0.021 0.017 -0.005 0.005 0.001
O1 0.034 0.019 0.017 -0.0002 -0.0002 0.0036
O2 0.053 0.018 0.018 -0.0009 0.003 0.005
O3 0.02 0.023 0.016 -0.0029 -0.0007 0.0016
O4 0.017 0.024 0.018 0.0003 0.0005 0.0043
O7 0.016 0.014 0.0139 0.0001 0.0045 0.0025
Zn1 0.0166 0.0221 0.0116 -0.004 0.0012 0.0026
Zn2 0.014 0.0144 0.0087 -0.0031 -0.0011 -0.0005
C24 0.027 0.044 0.018 -0.005 0.007 -0.013
C25 0.042 0.032 0.042 -0.009 -0.004 -0.019
C26 0.037 0.048 0.014 -0.005 -0.007 0.012
C27 0.05 0.042 0.016 -0.002 -0.001 0.013
C28 0.034 0.036 0.02 0.005 -0.007 0.005
N4 0.016 0.034 0.016 -0.003 0.002 -0.002
C31 0.021 0.018 0.026 0 0.007 -0.001
C32 0.032 0.015 0.023 0.005 0.004 0
O8 0.034 0.019 0.017 -0.0002 -0.0002 0.0036
O9 0.053 0.018 0.018 -0.0009 0.003 0.005
O18 0.016 0.039 0.019 0.0039 0.0007 -0.0062
C35 0.026 0.021 0.023 0.009 0 0.004
C36 0.014 0.025 0.02 0.006 0.002 0.007
O12 0.016 0.039 0.019 0.0039 0.0007 -0.0062
O13 0.023 0.029 0.016 -0.003 0.0002 0.0005
O17 0.017 0.024 0.018 0.0003 0.0005 0.0043
O21 0.016 0.014 0.0139 0.0001 0.0045 0.0025
C15 0.026 0.021 0.023 0.009 0 0.004
C16 0.014 0.025 0.02 0.006 0.002 0.007
O6 0.023 0.029 0.016 -0.003 0.0002 0.0005
C33 0.011 0.019 0.026 0.001 0.004 -0.002
C34 0.025 0.017 0.025 0.008 0.006 0.002
O10 0.02 0.023 0.016 -0.0029 -0.0007 0.0016
C29 0.057 0.042 0.027 0.001 -0.011 -0.005
C30 0.047 0.049 0.03 0.01 -0.004 -0.011
C11 0.057 0.042 0.027 0.001 -0.011 -0.005
C12 0.047 0.049 0.03 0.01 -0.004 -0.011
loop_
_geom_bond_atom_site_label_1
_geom_bond_atom_site_label_2
_geom_bond_site_symmetry_1
_geom_bond_site_symmetry_2
C6 H5 1_555 1_555
C7 C6 1_555 1_555
C8 C7 1_555 1_555
C9 C8 1_555 1_555
H7 C9 1_555 1_555
C10 C9 1_555 1_555
H8 C10 1_555 1_555
N2 C6 1_555 1_555
C19 H18 1_555 1_555
C20 C19 1_555 1_555
H19 C20 1_555 1_555
C21 C20 1_555 1_555
C22 C21 1_555 1_555
H20 C22 1_555 1_555
C23 C22 1_555 1_555
H21 C23 1_555 1_555
N3 C19 1_555 1_555
Zn5 N3 1_555 1_555
Zn9 N2 1_555 1_555
C10 N2 1_555 1_555
C23 N3 1_555 1_555
C1 H1 1_555 1_555
C2 C1 1_555 1_555
H2 C2 1_555 1_555
C3 C2 1_555 1_555
C4 C3 1_555 1_555
H3 C4 1_555 1_555
C5 C4 1_555 1_555
H4 C5 1_555 1_555
C13 C14 1_555 1_555
C14 H11 1_555 1_555
H12 C14 1_555 1_555
C17 C18 1_555 1_555
C18 H15 1_555 1_555
H16 C18 1_555 1_555
N1 C1 1_555 1_555
O1 C17 1_555 1_555
O2 C17 1_555 1_555
O3 C13 1_555 1_555
O4 C13 1_555 1_555
Zn1 N1 1_555 1_555
Zn2 O1 1_555 1_555
C24 H22 1_555 1_555
C25 C24 1_555 1_555
C26 C25 1_555 1_555
C27 C26 1_555 1_555
H24 C27 1_555 1_555
C28 C27 1_555 1_555
H25 C28 1_555 1_555
N4 Zn2 1_555 1_555
C31 C32 1_555 1_555
C32 C18 1_555 1_555
H28 C32 1_555 1_555
H29 C32 1_555 1_555
O8 C31 1_555 1_555
O9 C31 1_555 1_555
O18 Zn2 1_555 1_555
Zn9 O8 1_555 1_555
C5 N1 1_555 1_555
O3 Zn1 1_555 1_555
O7 Zn1 1_555 1_555
O7 Zn2 1_555 1_555
C24 N4 1_555 1_555
C28 N4 1_555 1_555
H32 C35 1_555 1_555
C36 C35 1_555 1_555
O12 C36 1_555 1_555
C36 O13 1_555 1_555
O12 Zn9 1_555 1_555
O21 Zn9 1_555 1_555
H13 C15 1_555 1_555
C16 C15 1_555 1_555
O18 C16 1_555 1_555
O6 C16 1_555 1_555
C33 C34 1_555 1_555
C34 H30 1_555 1_555
H31 C34 1_555 1_555
O10 C33 1_555 1_555
O17 C33 1_555 1_555
O10 Zn5 1_555 1_555
O21 Zn5 1_555 1_555
H26 C29 1_555 1_555
H27 C30 1_555 1_555
C29 C30 1_555 1_555
H9 C11 1_555 1_555
H10 C12 1_555 1_555
C11 C12 1_555 1_555

#END
