
###############################################################################
#
# This file contains modified crystal structure data generated from the
# MOF subset of the Cambridge Structural Database (CSD) v543 
# hosted by the Cambridge Crystallographic Data Centre (CCDC).
#
# This work is licensed under the Creative Commons
# Attribution-NonCommercial-ShareAlike 4.0 International License.
# To view a copy of this license, visit
# http://creativecommons.org/licenses/by-nc-sa/4.0/
# or send a letter to
# Creative Commons, PO Box 1866, Mountain View, CA 94042, USA.
#
# CIF created using the CSD Python API on 29 September 2022
# The structure has been converted into the P1 space group
# The structure has a 3D framework
# The original CSD entry PUMYII is in the monoclinic crystal system
# The framework has been calculated to contain at least 10.0% void space
# The void calculation uses a probe of radius 1.32A, grid spacing 0.4
#
###############################################################################

data_PUMYII
_chemical_formula_moiety         '(C120 H72 Cd4 N8 O16 S16)n'
_symmetry_cell_setting           triclinic
_symmetry_space_group_name_H-M   'P 1'
_symmetry_Int_Tables_number      1
_space_group_name_Hall           'P 1'
loop_
_symmetry_equiv_pos_site_id
_symmetry_equiv_pos_as_xyz
1 x,y,z
_cell_length_a                   10.1851(4)
_cell_length_b                   28.1899(11)
_cell_length_c                   14.9875(5)
_cell_angle_alpha                90
_cell_angle_beta                 97.675(3)
_cell_angle_gamma                90
_cell_volume                     4264.62
loop_
_atom_site_label
_atom_site_type_symbol
_atom_site_fract_x
_atom_site_fract_y
_atom_site_fract_z
O7 O 0.0544(5) 0.45683(16) 0.0471(3)
Cd2 Cd 0.84881(4) 0.46098(2) 0.95620(2)
O1 O 0.6892(5) 0.41228(15) 0.8565(3)
O2 O 0.8202(5) 0.37940(15) 0.9680(3)
O3 O 0.7533(5) 0.02651(15) 0.6167(3)
O4 O 0.5544(5) 0.04317(16) 0.5471(3)
N1 N 0.9797(6) 0.44594(18) 0.8437(3)
C1 C 0.7416(6) 0.3767(2) 0.8953(4)
C2 C 0.7181(7) 0.3286(2) 0.8538(5)
C3 C 0.6694(9) 0.3241(3) 0.7647(5)
H1 H 0.643331 0.351720 0.730574
C4 C 0.6572(9) 0.2796(3) 0.7226(5)
H2 H 0.625260 0.277334 0.660212
C5 C 0.6921(8) 0.2385(2) 0.7726(5)
C6 C 0.7392(10) 0.2431(3) 0.8639(5)
H3 H 0.761836 0.215582 0.899113
C7 C 0.7534(10) 0.2874(3) 0.9037(5)
H4 H 0.787481 0.289920 0.965718
C8 C 0.6572(6) 0.0552(2) 0.5996(4)
C9 C 0.6665(7) 0.1027(2) 0.6434(4)
C10 C 0.7635(9) 0.1119(3) 0.7151(5)
H5 H 0.825293 0.087719 0.735629
C11 C 0.7722(9) 0.1551(3) 0.7570(6)
H6 H 0.840280 0.160753 0.805673
C12 C 0.6808(9) 0.1913(3) 0.7284(5)
C13 C 0.5836(10) 0.1812(3) 0.6576(7)
H7 H 0.521542 0.205219 0.636801
C14 C 0.5736(8) 0.1382(3) 0.6167(6)
H8 H 0.503290 0.132127 0.569698
C15 C 0.9791(7) 0.4742(2) 0.7727(4)
H9 H 0.918516 0.499944 0.766458
Cd4 Cd 0.34881(4) 0.03902(2) 0.45620(2)
O5 O 0.7467(5) 0.52651(15) 0.8833(3)
O6 O 0.9456(5) 0.54317(16) 0.9529(3)
Cd3 Cd 0.65119(4) 0.96098(2) 0.54380(2)
Cd4_2 Cd 0.15119(4) 0.53902(2) 0.04380(2)
S1 S 0.27491(17) 0.96256(7) 0.94291(10)
S2 S 0.0688(2) 0.88808(7) 0.93627(12)
O1_2 O 0.8108(5) 0.91228(15) 0.6435(3)
O2_2 O 0.6798(5) 0.87940(15) 0.5320(3)
N1_2 N 0.5203(6) 0.94594(18) 0.6563(3)
C1_2 C 0.7584(6) 0.8767(2) 0.6047(4)
C2_2 C 0.7819(7) 0.8286(2) 0.6462(5)
C3_2 C 0.8306(9) 0.8241(3) 0.7353(5)
H1_2 H 0.856669 0.851720 0.769426
C4_2 C 0.8428(9) 0.7796(3) 0.7774(5)
H2_2 H 0.874740 0.777334 0.839788
C5_2 C 0.8079(8) 0.7385(2) 0.7274(5)
C6_2 C 0.7608(10) 0.7431(3) 0.6361(5)
H3_2 H 0.738164 0.715582 0.600887
C7_2 C 0.7466(10) 0.7874(3) 0.5963(5)
H4_2 H 0.712519 0.789920 0.534282
C8_2 C 0.8428(6) 0.5552(2) 0.9004(4)
C9_2 C 0.8335(7) 0.6027(2) 0.8566(4)
C10_2 C 0.7365(9) 0.6119(3) 0.7849(5)
H5_2 H 0.674707 0.587719 0.764371
C11_2 C 0.7278(9) 0.6551(3) 0.7430(6)
H6_2 H 0.659720 0.660753 0.694327
C12_2 C 0.8192(9) 0.6913(3) 0.7716(5)
C13_2 C 0.9164(10) 0.6812(3) 0.8424(7)
H7_2 H 0.978458 0.705219 0.863199
C14_2 C 0.9264(8) 0.6382(3) 0.8833(6)
H8_2 H 0.996710 0.632127 0.930302
C15_2 C 0.5209(7) 0.9742(2) 0.7273(4)
H9_2 H 0.581484 0.999944 0.733542
C16 C 0.4389(8) 0.9682(3) 0.7921(4)
H10 H 0.441836 0.989771 0.841041
C17 C 0.3509(8) 0.9298(3) 0.7848(5)
C18 C 0.3521(9) 0.9001(3) 0.7114(6)
H11 H 0.294966 0.873368 0.704420
C19 C 0.4347(8) 0.9091(3) 0.6489(5)
H12 H 0.431976 0.888734 0.598230
C20 C 0.2594(7) 0.9227(3) 0.8509(5)
C21 C 0.1661(9) 0.8892(3) 0.8484(6)
H13 H 0.153103 0.866780 0.800664
C22 C 0.1400(7) 0.9385(3) 0.9910(4)
O7_2 O 0.4456(5) 0.95683(16) 0.4529(3)
N3 N 0.7559(5) 0.97157(17) 0.4190(3)
S4 S 0.96951(17) 0.93841(6) 0.11772(9)
C25 C 0.9911(7) 0.9819(2) 0.2041(4)
C28 C 0.9059(6) 0.9790(2) 0.2768(4)
C29 C 0.8063(8) 0.9459(3) 0.2760(4)
H17 H 0.787384 0.924791 0.226567
C30 C 0.7336(8) 0.9436(3) 0.3482(5)
H18 H 0.664635 0.920756 0.346319
O1_3 O 0.3108(5) 0.58772(15) 0.1435(3)
O2_3 O 0.1798(5) 0.62060(15) 0.0320(3)
O3_2 O 0.2467(5) 0.97349(15) 0.3833(3)
N1_3 N 0.0203(6) 0.55406(18) 0.1563(3)
C1_3 C 0.2584(6) 0.6233(2) 0.1047(4)
C2_3 C 0.2819(7) 0.6714(2) 0.1462(5)
C3_3 C 0.3306(9) 0.6759(3) 0.2353(5)
H1_3 H 0.356669 0.648280 0.269426
C4_3 C 0.3428(9) 0.7204(3) 0.2774(5)
H2_3 H 0.374740 0.722666 0.339788
C5_3 C 0.3079(8) 0.7615(2) 0.2274(5)
C6_3 C 0.2608(10) 0.7569(3) 0.1361(5)
H3_3 H 0.238164 0.784418 0.100887
C7_3 C 0.2466(10) 0.7126(3) 0.0963(5)
H4_3 H 0.212519 0.710080 0.034282
C8_3 C 0.3428(6) 0.9448(2) 0.4004(4)
C9_3 C 0.3335(7) 0.8973(2) 0.3566(4)
C10_3 C 0.2365(9) 0.8881(3) 0.2849(5)
H5_3 H 0.174707 0.912281 0.264371
C11_3 C 0.2278(9) 0.8449(3) 0.2430(6)
H6_3 H 0.159720 0.839247 0.194327
C12_3 C 0.3192(9) 0.8087(3) 0.2716(5)
C13_3 C 0.4164(10) 0.8188(3) 0.3424(7)
H7_3 H 0.478458 0.794781 0.363199
C14_3 C 0.4264(8) 0.8618(3) 0.3833(6)
H8_3 H 0.496710 0.867873 0.430302
C15_3 C 0.0209(7) 0.5258(2) 0.2273(4)
H9_3 H 0.081484 0.500056 0.233542
O5_2 O 0.2533(5) 0.47349(15) 0.1167(3)
S4_2 S 0.03049(17) 0.06159(6) 0.88228(9)
N2 N 0.2441(5) 0.02843(17) 0.5810(3)
C25_2 C 0.0089(7) 0.0181(2) 0.7959(4)
C28_2 C 0.0941(6) 0.0210(2) 0.7232(4)
C29_2 C 0.1937(8) 0.0541(3) 0.7240(4)
H17_2 H 0.212616 0.075209 0.773433
C30_2 C 0.2664(8) 0.0564(3) 0.6518(5)
H18_2 H 0.335365 0.079244 0.653681
S1_2 S 0.72509(17) 0.03744(7) 0.05709(10)
S2_2 S 0.9312(2) 0.11192(7) 0.06373(12)
O1_4 O 0.1892(5) 0.08772(15) 0.3565(3)
O2_4 O 0.3202(5) 0.12060(15) 0.4680(3)
N1_4 N 0.4797(6) 0.05406(18) 0.3437(3)
C1_4 C 0.2416(6) 0.1233(2) 0.3953(4)
C2_4 C 0.2181(7) 0.1714(2) 0.3538(5)
C3_4 C 0.1694(9) 0.1759(3) 0.2647(5)
H1_4 H 0.143331 0.148280 0.230574
C4_4 C 0.1572(9) 0.2204(3) 0.2226(5)
H2_4 H 0.125260 0.222666 0.160212
C5_4 C 0.1921(8) 0.2615(2) 0.2726(5)
C6_4 C 0.2392(10) 0.2569(3) 0.3639(5)
H3_4 H 0.261836 0.284418 0.399113
C7_4 C 0.2534(10) 0.2126(3) 0.4037(5)
H4_4 H 0.287481 0.210080 0.465718
C8_4 C 0.1572(6) 0.4448(2) 0.0996(4)
C9_4 C 0.1665(7) 0.3973(2) 0.1434(4)
C10_4 C 0.2635(9) 0.3881(3) 0.2151(5)
H5_4 H 0.325293 0.412281 0.235629
C11_4 C 0.2722(9) 0.3449(3) 0.2570(6)
H6_4 H 0.340280 0.339247 0.305673
C12_4 C 0.1808(9) 0.3087(3) 0.2284(5)
C13_4 C 0.0836(10) 0.3188(3) 0.1576(7)
H7_4 H 0.021542 0.294781 0.136801
C14_4 C 0.0736(8) 0.3618(3) 0.1167(6)
H8_4 H 0.003290 0.367873 0.069698
C15_4 C 0.4791(7) 0.0258(2) 0.2727(4)
H9_4 H 0.418516 0.000056 0.266458
C16_2 C 0.5611(8) 0.0318(3) 0.2079(4)
H10_2 H 0.558164 0.010229 0.158959
C17_2 C 0.6491(8) 0.0702(3) 0.2152(5)
C18_2 C 0.6479(9) 0.0999(3) 0.2886(6)
H11_2 H 0.705034 0.126632 0.295580
C19_2 C 0.5653(8) 0.0909(3) 0.3511(5)
H12_2 H 0.568024 0.111266 0.401770
C20_2 C 0.7406(7) 0.0773(3) 0.1491(5)
C21_2 C 0.8339(9) 0.1108(3) 0.1516(6)
H13_2 H 0.846897 0.133220 0.199336
C22_2 C 0.8600(7) 0.0615(3) 0.0090(4)
S1_3 S 0.22509(17) 0.46256(7) 0.55709(10)
S2_3 S 0.4312(2) 0.38808(7) 0.56373(12)
S3 S 0.31831(19) 0.50950(7) 0.38695(11)
S4_3 S 0.53049(17) 0.43841(6) 0.38228(9)
N2_2 N 0.7441(5) 0.47157(17) 0.0810(3)
C16_3 C 0.0611(8) 0.4682(3) 0.7079(4)
H10_3 H 0.058164 0.489771 0.658959
C17_3 C 0.1491(8) 0.4298(3) 0.7152(5)
C18_3 C 0.1479(9) 0.4001(3) 0.7886(6)
H11_3 H 0.205034 0.373368 0.795580
C19_3 C 0.0653(8) 0.4091(3) 0.8511(5)
H12_3 H 0.068024 0.388734 0.901770
C20_3 C 0.2406(7) 0.4227(3) 0.6491(5)
C21_3 C 0.3339(9) 0.3892(3) 0.6516(6)
H13_3 H 0.346897 0.366780 0.699336
C22_3 C 0.3600(7) 0.4385(3) 0.5090(4)
C23 C 0.3992(7) 0.4592(3) 0.4361(4)
C24 C 0.4126(7) 0.5138(3) 0.3000(4)
H14 H 0.396609 0.538174 0.256169
C25_3 C 0.5089(7) 0.4819(2) 0.2959(4)
C26 C 0.6477(7) 0.5036(2) 0.0799(4)
H15 H 0.632630 0.524520 0.029849
C27 C 0.5690(7) 0.5083(2) 0.1468(4)
H16 H 0.499044 0.530851 0.141679
C28_3 C 0.5941(6) 0.4790(2) 0.2232(4)
C29_3 C 0.6937(8) 0.4459(3) 0.2240(4)
H17_3 H 0.712616 0.424791 0.273433
C30_3 C 0.7664(8) 0.4436(3) 0.1518(5)
H18_3 H 0.835365 0.420756 0.153681
S3_2 S 0.18169(19) 0.00950(7) 0.11305(11)
C24_2 C 0.0874(7) 0.0138(3) 0.2000(4)
H14_2 H 0.103391 0.038174 0.243831
H16_2 H 0.000956 0.030851 0.358321
C23_2 C 0.1008(7) 0.9592(3) 0.0639(4)
C26_2 C 0.8523(7) 0.0036(2) 0.4201(4)
H15_2 H 0.867370 0.024520 0.470151
C27_2 C 0.9310(7) 0.0083(2) 0.3532(4)
N3_2 N 0.2559(5) 0.52843(17) 0.9190(3)
S1_4 S 0.77491(17) 0.53744(7) 0.44291(10)
S2_4 S 0.5688(2) 0.61192(7) 0.43627(12)
S3_3 S 0.68169(19) 0.49050(7) 0.61305(11)
S4_4 S 0.46951(17) 0.56159(6) 0.61772(9)
C16_4 C 0.9389(8) 0.5318(3) 0.2921(4)
H10_4 H 0.941836 0.510229 0.341041
C17_4 C 0.8509(8) 0.5702(3) 0.2848(5)
C18_4 C 0.8521(9) 0.5999(3) 0.2114(6)
H11_4 H 0.794966 0.626632 0.204420
C19_4 C 0.9347(8) 0.5909(3) 0.1489(5)
H12_4 H 0.931976 0.611266 0.098230
C20_4 C 0.7594(7) 0.5773(3) 0.3509(5)
C21_4 C 0.6661(9) 0.6108(3) 0.3484(6)
H13_4 H 0.653103 0.633220 0.300664
C22_4 C 0.6400(7) 0.5615(3) 0.4910(4)
C23_3 C 0.6008(7) 0.5408(3) 0.5639(4)
C24_3 C 0.5874(7) 0.4862(3) 0.7000(4)
H14_3 H 0.603391 0.461826 0.743831
C25_4 C 0.4911(7) 0.5181(2) 0.7041(4)
C26_3 C 0.3523(7) 0.4964(2) 0.9201(4)
H15_3 H 0.367370 0.475480 0.970151
C27_3 C 0.4310(7) 0.4917(2) 0.8532(4)
H16_3 H 0.500956 0.469149 0.858321
C28_4 C 0.4059(6) 0.5210(2) 0.7768(4)
C29_4 C 0.3063(8) 0.5541(3) 0.7760(4)
H17_4 H 0.287384 0.575209 0.726567
C30_4 C 0.2336(8) 0.5564(3) 0.8482(5)
H18_4 H 0.164635 0.579244 0.846319
C26_4 C 0.1477(7) 0.9964(2) 0.5799(4)
H15_4 H 0.132630 0.975480 0.529849
C27_4 C 0.0690(7) 0.9917(2) 0.6468(4)
C23_4 C 0.8992(7) 0.0408(3) 0.9361(4)
S3_4 S 0.81831(19) 0.99050(7) 0.88695(11)
C24_4 C 0.9126(7) 0.9862(3) 0.8000(4)
H14_4 H 0.896609 0.961826 0.756169
H16_4 H 0.999044 0.969149 0.641679
loop_
_geom_bond_atom_site_label_1
_geom_bond_atom_site_label_2
_geom_bond_site_symmetry_1
_geom_bond_site_symmetry_2
Cd2 O1 1_555 1_555
O1 C1 1_555 1_555
O2 Cd2 1_555 1_555
O3 C8 1_555 1_555
O4 C8 1_555 1_555
N1 Cd2 1_555 1_555
C1 O2 1_555 1_555
C2 C1 1_555 1_555
C3 C2 1_555 1_555
H1 C3 1_555 1_555
C4 C3 1_555 1_555
H2 C4 1_555 1_555
C5 C4 1_555 1_555
C6 C5 1_555 1_555
H3 C6 1_555 1_555
C7 C2 1_555 1_555
H4 C7 1_555 1_555
C8 C9 1_555 1_555
C9 C10 1_555 1_555
C10 H5 1_555 1_555
C11 C10 1_555 1_555
H6 C11 1_555 1_555
C12 C5 1_555 1_555
C13 C12 1_555 1_555
H7 C13 1_555 1_555
C14 C9 1_555 1_555
H8 C14 1_555 1_555
C15 N1 1_555 1_555
H9 C15 1_555 1_555
Cd4 O4 1_555 1_555
O5 Cd2 1_555 1_555
O6 Cd2 1_555 1_555
C6 C7 1_555 1_555
C11 C12 1_555 1_555
C13 C14 1_555 1_555
Cd3 O1_2 1_555 1_555
S1 C20 1_555 1_555
S2 C21 1_555 1_555
O1_2 C1_2 1_555 1_555
O2_2 Cd3 1_555 1_555
O5 C8_2 1_555 1_555
O6 C8_2 1_555 1_555
N1_2 Cd3 1_555 1_555
C1_2 O2_2 1_555 1_555
C2_2 C1_2 1_555 1_555
C3_2 C2_2 1_555 1_555
H1_2 C3_2 1_555 1_555
C4_2 C3_2 1_555 1_555
H2_2 C4_2 1_555 1_555
C5_2 C4_2 1_555 1_555
C6_2 C5_2 1_555 1_555
H3_2 C6_2 1_555 1_555
C7_2 C2_2 1_555 1_555
H4_2 C7_2 1_555 1_555
C8_2 C9_2 1_555 1_555
C9_2 C10_2 1_555 1_555
C10_2 H5_2 1_555 1_555
C11_2 C10_2 1_555 1_555
H6_2 C11_2 1_555 1_555
C12_2 C5_2 1_555 1_555
C13_2 C12_2 1_555 1_555
H7_2 C13_2 1_555 1_555
C14_2 C9_2 1_555 1_555
H8_2 C14_2 1_555 1_555
C15_2 N1_2 1_555 1_555
H9_2 C15_2 1_555 1_555
C16 C15_2 1_555 1_555
H10 C16 1_555 1_555
C17 C16 1_555 1_555
C18 C17 1_555 1_555
H11 C18 1_555 1_555
C19 N1_2 1_555 1_555
H12 C19 1_555 1_555
C20 C17 1_555 1_555
C21 C20 1_555 1_555
H13 C21 1_555 1_555
C22 S1 1_555 1_555
O7_2 Cd3 1_555 1_555
N3 Cd3 1_555 1_555
S2 C22 1_555 1_555
C6_2 C7_2 1_555 1_555
C11_2 C12_2 1_555 1_555
C13_2 C14_2 1_555 1_555
C18 C19 1_555 1_555
C25 S4 1_555 1_555
C28 C25 1_555 1_555
C29 C28 1_555 1_555
H17 C29 1_555 1_555
C30 N3 1_555 1_555
H18 C30 1_555 1_555
C29 C30 1_555 1_555
Cd4_2 O1_3 1_555 1_555
O1_3 C1_3 1_555 1_555
O2_3 Cd4_2 1_555 1_555
O3_2 C8_3 1_555 1_555
O7_2 C8_3 1_555 1_555
N1_3 Cd4_2 1_555 1_555
C1_3 O2_3 1_555 1_555
C2_3 C1_3 1_555 1_555
C3_3 C2_3 1_555 1_555
H1_3 C3_3 1_555 1_555
C4_3 C3_3 1_555 1_555
H2_3 C4_3 1_555 1_555
C5_3 C4_3 1_555 1_555
C6_3 C5_3 1_555 1_555
H3_3 C6_3 1_555 1_555
C7_3 C2_3 1_555 1_555
H4_3 C7_3 1_555 1_555
C8_3 C9_3 1_555 1_555
C9_3 C10_3 1_555 1_555
C10_3 H5_3 1_555 1_555
C11_3 C10_3 1_555 1_555
H6_3 C11_3 1_555 1_555
C12_3 C5_3 1_555 1_555
C13_3 C12_3 1_555 1_555
H7_3 C13_3 1_555 1_555
C14_3 C9_3 1_555 1_555
H8_3 C14_3 1_555 1_555
C15_3 N1_3 1_555 1_555
H9_3 C15_3 1_555 1_555
O5_2 Cd4_2 1_555 1_555
O7 Cd4_2 1_555 1_555
C6_3 C7_3 1_555 1_555
C11_3 C12_3 1_555 1_555
C13_3 C14_3 1_555 1_555
C25_2 S4_2 1_555 1_555
C28_2 C25_2 1_555 1_555
C29_2 C28_2 1_555 1_555
H17_2 C29_2 1_555 1_555
C30_2 N2 1_555 1_555
H18_2 C30_2 1_555 1_555
Cd4 N2 1_555 1_555
C29_2 C30_2 1_555 1_555
Cd4 O1_4 1_555 1_555
S1_2 C20_2 1_555 1_555
S2_2 C21_2 1_555 1_555
O1_4 C1_4 1_555 1_555
O2_4 Cd4 1_555 1_555
O5_2 C8_4 1_555 1_555
O7 C8_4 1_555 1_555
N1_4 Cd4 1_555 1_555
C1_4 O2_4 1_555 1_555
C2_4 C1_4 1_555 1_555
C3_4 C2_4 1_555 1_555
H1_4 C3_4 1_555 1_555
C4_4 C3_4 1_555 1_555
H2_4 C4_4 1_555 1_555
C5_4 C4_4 1_555 1_555
C6_4 C5_4 1_555 1_555
H3_4 C6_4 1_555 1_555
C7_4 C2_4 1_555 1_555
H4_4 C7_4 1_555 1_555
C8_4 C9_4 1_555 1_555
C9_4 C10_4 1_555 1_555
C10_4 H5_4 1_555 1_555
C11_4 C10_4 1_555 1_555
H6_4 C11_4 1_555 1_555
C12_4 C5_4 1_555 1_555
C13_4 C12_4 1_555 1_555
H7_4 C13_4 1_555 1_555
C14_4 C9_4 1_555 1_555
H8_4 C14_4 1_555 1_555
C15_4 N1_4 1_555 1_555
H9_4 C15_4 1_555 1_555
C16_2 C15_4 1_555 1_555
H10_2 C16_2 1_555 1_555
C17_2 C16_2 1_555 1_555
C18_2 C17_2 1_555 1_555
H11_2 C18_2 1_555 1_555
C19_2 N1_4 1_555 1_555
H12_2 C19_2 1_555 1_555
C20_2 C17_2 1_555 1_555
C21_2 C20_2 1_555 1_555
H13_2 C21_2 1_555 1_555
C22_2 S1_2 1_555 1_555
S2_2 C22_2 1_555 1_555
C6_4 C7_4 1_555 1_555
C11_4 C12_4 1_555 1_555
C13_4 C14_4 1_555 1_555
C18_2 C19_2 1_555 1_555
S1_3 C20_3 1_555 1_555
S2_3 C21_3 1_555 1_555
S3 C23 1_555 1_555
S4_3 C23 1_555 1_555
N2_2 C26 1_555 1_555
H10_3 C16_3 1_555 1_555
C17_3 C16_3 1_555 1_555
C18_3 C17_3 1_555 1_555
H11_3 C18_3 1_555 1_555
H12_3 C19_3 1_555 1_555
C20_3 C17_3 1_555 1_555
C21_3 C20_3 1_555 1_555
H13_3 C21_3 1_555 1_555
C22_3 S1_3 1_555 1_555
C23 C22_3 1_555 1_555
C24 S3 1_555 1_555
H14 C24 1_555 1_555
C25_3 S4_3 1_555 1_555
C26 H15 1_555 1_555
C27 C26 1_555 1_555
H16 C27 1_555 1_555
C28_3 C25_3 1_555 1_555
C29_3 C28_3 1_555 1_555
H17_3 C29_3 1_555 1_555
C30_3 N2_2 1_555 1_555
H18_3 C30_3 1_555 1_555
S2_3 C22_3 1_555 1_555
C18_3 C19_3 1_555 1_555
C24 C25_3 1_555 1_555
C27 C28_3 1_555 1_555
C29_3 C30_3 1_555 1_555
C24_2 S3_2 1_555 1_555
H14_2 C24_2 1_555 1_555
C26_2 H15_2 1_555 1_555
C27_2 C26_2 1_555 1_555
S1_4 C20_4 1_555 1_555
S2_4 C21_4 1_555 1_555
S3_3 C23_3 1_555 1_555
S4_4 C23_3 1_555 1_555
N3_2 C26_3 1_555 1_555
H10_4 C16_4 1_555 1_555
C17_4 C16_4 1_555 1_555
C18_4 C17_4 1_555 1_555
H11_4 C18_4 1_555 1_555
H12_4 C19_4 1_555 1_555
C20_4 C17_4 1_555 1_555
C21_4 C20_4 1_555 1_555
H13_4 C21_4 1_555 1_555
C22_4 S1_4 1_555 1_555
C23_3 C22_4 1_555 1_555
C24_3 S3_3 1_555 1_555
H14_3 C24_3 1_555 1_555
C25_4 S4_4 1_555 1_555
C26_3 H15_3 1_555 1_555
C27_3 C26_3 1_555 1_555
H16_3 C27_3 1_555 1_555
C28_4 C25_4 1_555 1_555
C29_4 C28_4 1_555 1_555
H17_4 C29_4 1_555 1_555
C30_4 N3_2 1_555 1_555
H18_4 C30_4 1_555 1_555
S2_4 C22_4 1_555 1_555
C18_4 C19_4 1_555 1_555
C24_3 C25_4 1_555 1_555
C27_3 C28_4 1_555 1_555
C29_4 C30_4 1_555 1_555
C26_4 H15_4 1_555 1_555
C27_4 C26_4 1_555 1_555
C24_4 S3_4 1_555 1_555
H14_4 C24_4 1_555 1_555

#END
