
###############################################################################
#
# This file contains modified crystal structure data generated from the
# MOF subset of the Cambridge Structural Database (CSD) v543 
# hosted by the Cambridge Crystallographic Data Centre (CCDC).
#
# This work is licensed under the Creative Commons
# Attribution-NonCommercial-ShareAlike 4.0 International License.
# To view a copy of this license, visit
# http://creativecommons.org/licenses/by-nc-sa/4.0/
# or send a letter to
# Creative Commons, PO Box 1866, Mountain View, CA 94042, USA.
#
# CIF created using the CSD Python API on 29 September 2022
# The structure has been converted into the P1 space group
# The structure has a 3D framework
# The original CSD entry PUMYOO is in the monoclinic crystal system
# The framework has been calculated to contain at least 10.0% void space
# The void calculation uses a probe of radius 1.32A, grid spacing 0.4
# H atom positions have been added when not included in the experimental data
#
###############################################################################

data_PUMYOO
_chemical_formula_moiety         '(C120 H72 Cd2 N8 O16 S16)n'
_symmetry_cell_setting           triclinic
_symmetry_space_group_name_H-M   'P 1'
_symmetry_Int_Tables_number      1
_space_group_name_Hall           'P 1'
loop_
_symmetry_equiv_pos_site_id
_symmetry_equiv_pos_as_xyz
1 x,y,z
_cell_length_a                   9.2500(19)
_cell_length_b                   28.297(6)
_cell_length_c                   15.864(3)
_cell_angle_alpha                90
_cell_angle_beta                 95.75(3)
_cell_angle_gamma                90
_cell_volume                     4131.47
loop_
_atom_site_label
_atom_site_type_symbol
_atom_site_fract_x
_atom_site_fract_y
_atom_site_fract_z
N2 N 0.0053(7) 0.4473(2) 0.6696(4)
C24 C 0.0093(7) 0.4818(3) 0.7276(4)
H13 H 0.085368 0.504417 0.728834
Cd5 Cd 0.14848(3) 0.45348(2) 0.55603(2)
O10 O 0.0741(4) 0.54488(9) 0.52578(19)
S3 S 0.2419(4) 0.53113(13) 0.0511(2)
S4 S 0.49019(18) 0.59464(5) 0.06625(9)
C23 C 0.3926(8) 0.5516(2) 0.0053(4)
S5 S 0.4412(2) 0.44060(7) 0.12880(14)
S6 S 0.6964(2) 0.50212(7) 0.13012(13)
N3 N 0.2757(5) 0.45866(17) 0.4389(3)
C31 C 0.2554(7) 0.4281(2) 0.3749(4)
H17 H 0.202715 0.399842 0.382654
C32 C 0.3090(7) 0.4361(2) 0.2968(4)
H18 H 0.289450 0.414076 0.251919
C33 C 0.3907(6) 0.4761(2) 0.2851(3)
C34 C 0.4213(6) 0.5061(2) 0.3545(3)
H19 H 0.482608 0.532844 0.350785
C35 C 0.3601(6) 0.4961(2) 0.4291(3)
H20 H 0.379580 0.517063 0.475608
C36 C 0.4310(5) 0.49061(17) 0.1984(3)
C37 C 0.5646(6) 0.5241(2) 0.1966(4)
C38 C 0.5786(7) 0.4619(4) 0.0725(7)
C40 C 0.2039(6) 0.54605(17) 0.2152(3)
C41 C 0.2040(6) 0.58381(18) 0.2710(3)
H21 H 0.275216 0.607979 0.270554
C42 C 0.0985(8) 0.5858(2) 0.3275(4)
H22 H 0.099713 0.611713 0.365686
C43 C 0.3255(6) 0.53520(17) 0.1615(3)
C44 C 0.4652(6) 0.56690(18) 0.1665(3)
C46 C 0.0910(6) 0.5138(2) 0.2145(3)
H24 H 0.082881 0.488865 0.174244
O6 O 0.2491(3) 0.51968(9) 0.61911(17)
O7 O 0.1741(4) 0.90481(10) 0.84725(19)
O8 O 0.3344(4) 0.87248(10) 0.94296(18)
C47 C 0.1652(4) 0.55220(12) 0.5882(2)
C48 C 0.1767(5) 0.59956(12) 0.6295(2)
C49 C 0.2645(6) 0.60544(16) 0.7044(3)
H25 H 0.319859 0.579571 0.728309
C50 C 0.2725(7) 0.64917(17) 0.7452(4)
H26 H 0.331785 0.652592 0.797297
C51 C 0.1945(6) 0.68798(15) 0.7105(3)
C52 C 0.1081(6) 0.68176(14) 0.6348(3)
H27 H 0.053924 0.707712 0.610338
C53 C 0.0994(5) 0.63813(14) 0.5940(3)
H28 H 0.040448 0.634666 0.541807
C54 C 0.2030(6) 0.73455(15) 0.7544(3)
C55 C 0.2425(13) 0.7389(3) 0.8400(6)
H29 H 0.264392 0.710958 0.872066
C56 C 0.2519(12) 0.7821(3) 0.8817(6)
H30 H 0.276573 0.783480 0.941197
C57 C 0.2250(5) 0.82275(14) 0.8357(3)
C58 C 0.1903(10) 0.8204(3) 0.7475(5)
H31 H 0.173607 0.848555 0.715329
C59 C 0.1805(11) 0.7767(3) 0.7077(5)
H32 H 0.158309 0.775111 0.647985
C60 C 0.2443(5) 0.86980(12) 0.8781(2)
Cd6 Cd 0.35152(3) 0.95348(2) 0.94397(2)
O12 O 0.3259(4) 0.40481(10) 0.65275(19)
O14 O 0.1656(4) 0.37248(10) 0.55704(18)
H34 H 0.463626 0.593192 0.216528
H36 H 0.615326 0.530184 0.260624
O5 O 0.4259(4) 0.04488(9) 0.97422(19)
O6_2 O 0.2509(3) 0.01968(9) 0.88089(17)
C47_2 C 0.3348(4) 0.05220(12) 0.9118(2)
C48_2 C 0.3233(5) 0.09956(12) 0.8705(2)
C49_2 C 0.2355(6) 0.10544(16) 0.7956(3)
H25_2 H 0.180141 0.079571 0.771691
C50_2 C 0.2275(7) 0.14917(17) 0.7548(4)
H26_2 H 0.168215 0.152592 0.702703
C51_2 C 0.3055(6) 0.18798(15) 0.7895(3)
C52_2 C 0.3919(6) 0.18176(14) 0.8652(3)
H27_2 H 0.446076 0.207712 0.889662
C53_2 C 0.4006(5) 0.13813(14) 0.9060(3)
H28_2 H 0.459552 0.134666 0.958193
C54_2 C 0.2970(6) 0.23455(15) 0.7456(3)
C55_2 C 0.2575(13) 0.2389(3) 0.6600(6)
H29_2 H 0.235608 0.210958 0.627934
C56_2 C 0.2481(12) 0.2821(3) 0.6183(6)
H30_2 H 0.223427 0.283480 0.558803
C57_2 C 0.2750(5) 0.32275(14) 0.6643(3)
C58_2 C 0.3097(10) 0.3204(3) 0.7525(5)
H31_2 H 0.326393 0.348555 0.784671
C59_2 C 0.3195(11) 0.2767(3) 0.7923(5)
H32_2 H 0.341691 0.275111 0.852015
C60_2 C 0.2557(5) 0.36980(12) 0.6219(2)
N5 N 0.4947(7) 0.9473(2) 0.8304(4)
S1 S 0.9412(2) 0.05940(7) 0.62880(14)
N1 N 0.7757(5) 0.04134(17) 0.9389(3)
C15 C 0.7554(7) 0.0719(2) 0.8749(4)
H9 H 0.702715 0.100158 0.882654
C16 C 0.8090(7) 0.0639(2) 0.7968(4)
H10 H 0.789450 0.085924 0.751919
C17 C 0.8907(6) 0.0239(2) 0.7851(3)
C19 C 0.8601(6) 0.0039(2) 0.9291(3)
C20 C 0.9310(5) 0.00939(17) 0.6984(3)
H13_2 H 0.414632 0.004417 0.771166
H14 H 0.582881 0.011135 0.674244
S6_2 S 0.8036(2) 0.00212(7) 0.36988(13)
C37_2 C 0.9354(6) 0.0241(2) 0.3034(4)
H36_2 H 0.884674 0.0301841 0.239376
C18 C 0.9213(6) 0.9939(2) 0.8545(3)
H11 H 0.982608 0.967156 0.850785
H12 H 0.879580 0.982937 0.975608
C24_2 C 0.4907(7) 0.9818(3) 0.7724(4)
C25 C 0.5910(6) 0.9862(2) 0.7145(3)
C26 C 0.7039(6) 0.95395(17) 0.7152(3)
C27 C 0.7040(6) 0.91619(18) 0.7710(3)
H15 H 0.775216 0.892021 0.770554
C28 C 0.5985(8) 0.9142(2) 0.8275(4)
H16 H 0.599713 0.888287 0.865686
C29 C 0.8255(6) 0.96480(17) 0.6615(3)
C30 C 0.9652(6) 0.93310(18) 0.6665(3)
S7 S 0.7419(4) 0.96887(13) 0.5511(2)
S8 S 0.99019(18) 0.90536(5) 0.56625(9)
C38_2 C 0.9214(7) 0.9619(4) 0.4275(7)
C39 C 0.8926(8) 0.9484(2) 0.5053(4)
H35 H 0.963626 0.906808 0.716528
Cd1 Cd 0.85152(3) 0.54652(2) 0.44397(2)
O1 O 0.9259(4) 0.45512(9) 0.47422(19)
O2 O 0.7509(3) 0.48032(9) 0.38089(17)
O3 O 0.8259(4) 0.09519(10) 0.15275(19)
O4 O 0.6656(4) 0.12752(10) 0.05704(18)
C1 C 0.8348(4) 0.44780(12) 0.4118(2)
C2 C 0.8233(5) 0.40044(12) 0.3705(2)
C3 C 0.7355(6) 0.39456(16) 0.2956(3)
H1 H 0.680141 0.420429 0.271691
C4 C 0.7275(7) 0.35083(17) 0.2548(4)
H2 H 0.668215 0.347408 0.202703
C5 C 0.8055(6) 0.31202(15) 0.2895(3)
C6 C 0.8919(6) 0.31824(14) 0.3652(3)
H3 H 0.946076 0.292288 0.389662
C7 C 0.9006(5) 0.36187(14) 0.4060(3)
H4 H 0.959552 0.365334 0.458193
C8 C 0.7970(6) 0.26545(15) 0.2456(3)
C9 C 0.7575(13) 0.2611(3) 0.1600(6)
H5 H 0.735608 0.289042 0.127934
C10 C 0.7481(12) 0.2179(3) 0.1183(6)
H6 H 0.723427 0.216520 0.058803
C11 C 0.7750(5) 0.17725(14) 0.1643(3)
C12 C 0.8097(10) 0.1796(3) 0.2525(5)
H7 H 0.826393 0.151445 0.284671
C13 C 0.8195(11) 0.2233(3) 0.2923(5)
H8 H 0.841691 0.224889 0.352015
C14 C 0.7557(5) 0.13020(12) 0.1219(2)
S1_2 S 0.5588(2) 0.55940(7) 0.87120(14)
S2 S 0.3036(2) 0.49788(7) 0.86988(13)
N1_2 N 0.7243(5) 0.54134(17) 0.5611(3)
C15_2 C 0.7446(7) 0.5719(2) 0.6251(4)
H9_2 H 0.797285 0.600158 0.617346
C16_2 C 0.6910(7) 0.5639(2) 0.7032(4)
H10_2 H 0.710550 0.585924 0.748081
C17_2 C 0.6093(6) 0.5239(2) 0.7149(3)
C18_2 C 0.5787(6) 0.4939(2) 0.6455(3)
H11_2 H 0.517392 0.467156 0.649215
C19_2 C 0.6399(6) 0.5039(2) 0.5709(3)
H12_2 H 0.620420 0.482937 0.524392
C20_2 C 0.5690(5) 0.50939(17) 0.8016(3)
C21 C 0.4354(6) 0.4759(2) 0.8034(4)
C22 C 0.4214(7) 0.5381(4) 0.9275(7)
C25_2 C 0.9090(6) 0.4862(2) 0.7855(3)
H14_2 H 0.917119 0.511135 0.825756
C26_2 C 0.7961(6) 0.45395(17) 0.7848(3)
C27_2 C 0.7960(6) 0.41619(18) 0.7290(3)
H15_2 H 0.724784 0.392021 0.729446
C28_2 C 0.9015(8) 0.4142(2) 0.6725(4)
H16_2 H 0.900287 0.388287 0.634314
C29_2 C 0.6745(6) 0.46480(17) 0.8385(3)
C30_2 C 0.5348(6) 0.43310(18) 0.8335(3)
S7_2 S 0.7581(4) 0.46887(13) 0.9489(2)
S8_2 S 0.50981(18) 0.40536(5) 0.93375(9)
C39_2 C 0.6074(8) 0.4484(2) 0.9947(4)
Cd4 Cd 0.64848(3) 0.04652(2) 0.05603(2)
O11 O 0.6741(4) 0.59519(10) 0.34725(19)
O13 O 0.8344(4) 0.62752(10) 0.44296(18)
N6 N 0.9947(7) 0.5527(2) 0.3304(4)
H33 H 0.384674 0.469816 0.739376
H35_2 H 0.536374 0.406808 0.783472
C45 C 0.9907(7) 0.5182(3) 0.2724(4)
H23 H 0.914632 0.495583 0.271166
S3_2 S 0.2581(4) 0.03113(13) 0.4489(2)
S4_2 S 0.00981(18) 0.09464(5) 0.43375(9)
C22_2 C 0.0786(7) 0.0381(4) 0.5725(7)
C23_2 C 0.1074(8) 0.0516(2) 0.4947(4)
C34_2 C 0.0787(6) 0.0061(2) 0.1455(3)
H19_2 H 0.017392 0.032844 0.149215
H20_2 H 0.120420 0.017063 0.024392
C40_2 C 0.2961(6) 0.04605(17) 0.2848(3)
C41_2 C 0.2960(6) 0.08381(18) 0.2290(3)
H21_2 H 0.224784 0.107979 0.229446
C42_2 C 0.4015(8) 0.0858(2) 0.1725(4)
H22_2 H 0.400287 0.111713 0.134314
C43_2 C 0.1745(6) 0.03520(17) 0.3385(3)
C44_2 C 0.0348(6) 0.06690(18) 0.3335(3)
N4 N 0.5053(7) 0.0527(2) 0.1696(4)
C45_2 C 0.5093(7) 0.0182(3) 0.2276(4)
C46_2 C 0.4090(6) 0.0138(2) 0.2855(3)
H34_2 H 0.0363738 0.0931923 0.283472
S2_2 S 0.1964(2) 0.99788(7) 0.63012(13)
C21_2 C 0.0646(6) 0.9759(2) 0.6966(4)
S5_2 S 0.0588(2) 0.94060(7) 0.37120(14)
N3_2 N 0.2243(5) 0.95866(17) 0.0611(3)
C31_2 C 0.2446(7) 0.9281(2) 0.1251(4)
H17_2 H 0.297285 0.899842 0.117346
C32_2 C 0.1910(7) 0.9361(2) 0.2032(4)
H18_2 H 0.210550 0.914076 0.248081
C33_2 C 0.1093(6) 0.9761(2) 0.2149(3)
C35_2 C 0.1399(6) 0.9961(2) 0.0709(3)
C36_2 C 0.0690(5) 0.99061(17) 0.3016(3)
H23_2 H 0.585368 0.995583 0.228834
H24_2 H 0.417119 0.988865 0.325756
O9 O 0.5741(4) 0.95512(9) 0.02578(19)
H33_2 H 0.115326 0.969816 0.760624
O2_2 O 0.7491(3) 0.98032(9) 0.11911(17)
C1_2 C 0.6652(4) 0.94780(12) 0.0882(2)
C2_2 C 0.6767(5) 0.90044(12) 0.1295(2)
C3_2 C 0.7645(6) 0.89456(16) 0.2044(3)
H1_2 H 0.819859 0.920429 0.228309
C4_2 C 0.7725(7) 0.85083(17) 0.2452(4)
H2_2 H 0.831785 0.847408 0.297297
C5_2 C 0.6945(6) 0.81202(15) 0.2105(3)
C6_2 C 0.6081(6) 0.81824(14) 0.1348(3)
H3_2 H 0.553924 0.792288 0.110338
C7_2 C 0.5994(5) 0.86187(14) 0.0940(3)
H4_2 H 0.540448 0.865334 0.041807
C8_2 C 0.7030(6) 0.76545(15) 0.2544(3)
C9_2 C 0.7425(13) 0.7611(3) 0.3400(6)
H5_2 H 0.764392 0.789042 0.372066
C10_2 C 0.7519(12) 0.7179(3) 0.3817(6)
H6_2 H 0.776573 0.716520 0.441197
C11_2 C 0.7250(5) 0.67725(14) 0.3357(3)
C12_2 C 0.6903(10) 0.6796(3) 0.2475(5)
H7_2 H 0.673607 0.651445 0.215329
C13_2 C 0.6805(11) 0.7233(3) 0.2077(5)
H8_2 H 0.658309 0.724889 0.147985
C14_2 C 0.7443(5) 0.63020(12) 0.3781(2)
loop_
_geom_bond_atom_site_label_1
_geom_bond_atom_site_label_2
_geom_bond_site_symmetry_1
_geom_bond_site_symmetry_2
N2 C24 1_555 1_555
C24 H13 1_555 1_555
N2 Cd5 1_555 1_555
Cd5 O10 1_555 1_555
S3 C23 1_555 1_555
S4 C23 1_555 1_555
S5 C36 1_555 1_555
S6 C37 1_555 1_555
N3 C31 1_555 1_555
C31 H17 1_555 1_555
C32 C31 1_555 1_555
H18 C32 1_555 1_555
C33 C32 1_555 1_555
C34 C33 1_555 1_555
H19 C34 1_555 1_555
C35 N3 1_555 1_555
H20 C35 1_555 1_555
C36 C33 1_555 1_555
C37 C36 1_555 1_555
C38 S5 1_555 1_555
C40 C41 1_555 1_555
C41 H21 1_555 1_555
C42 C41 1_555 1_555
H22 C42 1_555 1_555
C43 S3 1_555 1_555
C44 S4 1_555 1_555
C46 C40 1_555 1_555
H24 C46 1_555 1_555
Cd5 N3 1_555 1_555
O6 Cd5 1_555 1_555
O7 C60 1_555 1_555
O8 C60 1_555 1_555
C47 O10 1_555 1_555
C48 C47 1_555 1_555
C49 C48 1_555 1_555
H25 C49 1_555 1_555
C50 C49 1_555 1_555
H26 C50 1_555 1_555
C51 C50 1_555 1_555
C52 C51 1_555 1_555
H27 C52 1_555 1_555
C53 C48 1_555 1_555
H28 C53 1_555 1_555
C54 C51 1_555 1_555
C55 C54 1_555 1_555
H29 C55 1_555 1_555
C56 C55 1_555 1_555
H30 C56 1_555 1_555
C57 C56 1_555 1_555
C58 C57 1_555 1_555
H31 C58 1_555 1_555
C59 C54 1_555 1_555
H32 C59 1_555 1_555
C60 C57 1_555 1_555
Cd6 O7 1_555 1_555
O12 Cd5 1_555 1_555
O14 Cd5 1_555 1_555
S6 C38 1_555 1_555
C34 C35 1_555 1_555
C36 C43 1_555 1_555
C37 C44 1_555 1_555
C40 C43 1_555 1_555
C43 C44 1_555 1_555
O6 C47 1_555 1_555
O8 Cd6 1_555 1_555
C52 C53 1_555 1_555
C58 C59 1_555 1_555
C44 H34 1_555 1_555
C37 H36 1_555 1_555
O12 C60_2 1_555 1_555
O14 C60_2 1_555 1_555
C47_2 O5 1_555 1_555
C48_2 C47_2 1_555 1_555
C49_2 C48_2 1_555 1_555
H25_2 C49_2 1_555 1_555
C50_2 C49_2 1_555 1_555
H26_2 C50_2 1_555 1_555
C51_2 C50_2 1_555 1_555
C52_2 C51_2 1_555 1_555
H27_2 C52_2 1_555 1_555
C53_2 C48_2 1_555 1_555
H28_2 C53_2 1_555 1_555
C54_2 C51_2 1_555 1_555
C55_2 C54_2 1_555 1_555
H29_2 C55_2 1_555 1_555
C56_2 C55_2 1_555 1_555
H30_2 C56_2 1_555 1_555
C57_2 C56_2 1_555 1_555
C58_2 C57_2 1_555 1_555
H31_2 C58_2 1_555 1_555
C59_2 C54_2 1_555 1_555
H32_2 C59_2 1_555 1_555
C60_2 C57_2 1_555 1_555
O6_2 C47_2 1_555 1_555
C52_2 C53_2 1_555 1_555
C58_2 C59_2 1_555 1_555
N5 Cd6 1_555 1_555
S1 C20 1_555 1_555
C15 N1 1_555 1_555
H9 C15 1_555 1_555
C16 C15 1_555 1_555
H10 C16 1_555 1_555
C17 C16 1_555 1_555
C19 N1 1_555 1_555
C20 C17 1_555 1_555
S6_2 C37_2 1_555 1_555
C37_2 H36_2 1_555 1_555
H11 C18 1_555 1_555
N5 C24_2 1_555 1_555
C25 C24_2 1_555 1_555
C26 C25 1_555 1_555
C27 C26 1_555 1_555
H15 C27 1_555 1_555
C28 N5 1_555 1_555
H16 C28 1_555 1_555
S7 C29 1_555 1_555
S8 C30 1_555 1_555
C39 S7 1_555 1_555
C26 C29 1_555 1_555
C27 C28 1_555 1_555
C29 C30 1_555 1_555
S8 C39 1_555 1_555
C38_2 C39 1_555 1_555
C30 H35 1_555 1_555
Cd1 O1 1_555 1_555
O1 C1 1_555 1_555
O2 Cd1 1_555 1_555
O3 C14 1_555 1_555
O4 C14 1_555 1_555
C1 O2 1_555 1_555
C2 C1 1_555 1_555
C3 C2 1_555 1_555
H1 C3 1_555 1_555
C4 C3 1_555 1_555
H2 C4 1_555 1_555
C5 C4 1_555 1_555
C6 C5 1_555 1_555
H3 C6 1_555 1_555
C7 C2 1_555 1_555
H4 C7 1_555 1_555
C8 C5 1_555 1_555
C9 C8 1_555 1_555
H5 C9 1_555 1_555
C10 C9 1_555 1_555
H6 C10 1_555 1_555
C11 C10 1_555 1_555
C12 C11 1_555 1_555
H7 C12 1_555 1_555
C13 C8 1_555 1_555
H8 C13 1_555 1_555
C14 C11 1_555 1_555
S1_2 C20_2 1_555 1_555
S2 C21 1_555 1_555
N1_2 Cd1 1_555 1_555
C15_2 N1_2 1_555 1_555
H9_2 C15_2 1_555 1_555
C16_2 C15_2 1_555 1_555
H10_2 C16_2 1_555 1_555
C17_2 C16_2 1_555 1_555
C18_2 C17_2 1_555 1_555
H11_2 C18_2 1_555 1_555
C19_2 N1_2 1_555 1_555
H12_2 C19_2 1_555 1_555
C20_2 C17_2 1_555 1_555
C21 C20_2 1_555 1_555
C22 S1_2 1_555 1_555
H14_2 C25_2 1_555 1_555
C26_2 C25_2 1_555 1_555
C27_2 C26_2 1_555 1_555
H15_2 C27_2 1_555 1_555
H16_2 C28_2 1_555 1_555
C29_2 C20_2 1_555 1_555
C30_2 C21 1_555 1_555
S7_2 C29_2 1_555 1_555
S8_2 C30_2 1_555 1_555
C39_2 S7_2 1_555 1_555
Cd4 O3 1_555 1_555
O11 Cd1 1_555 1_555
O13 Cd1 1_555 1_555
N6 Cd1 1_555 1_555
O4 Cd4 1_555 1_555
C6 C7 1_555 1_555
C12 C13 1_555 1_555
S2 C22 1_555 1_555
C18_2 C19_2 1_555 1_555
C26_2 C29_2 1_555 1_555
C27_2 C28_2 1_555 1_555
C29_2 C30_2 1_555 1_555
S8_2 C39_2 1_555 1_555
C21 H33 1_555 1_555
C30_2 H35_2 1_555 1_555
C45 N6 1_555 1_555
H23 C45 1_555 1_555
S3_2 C23_2 1_555 1_555
S4_2 C23_2 1_555 1_555
C23_2 C22_2 1_555 1_555
H19_2 C34_2 1_555 1_555
C40_2 C41_2 1_555 1_555
C41_2 H21_2 1_555 1_555
C42_2 C41_2 1_555 1_555
H22_2 C42_2 1_555 1_555
C43_2 S3_2 1_555 1_555
C44_2 S4_2 1_555 1_555
N4 C42_2 1_555 1_555
C45_2 N4 1_555 1_555
C46_2 C40_2 1_555 1_555
Cd4 N4 1_555 1_555
C40_2 C43_2 1_555 1_555
C43_2 C44_2 1_555 1_555
C45_2 C46_2 1_555 1_555
C44_2 H34_2 1_555 1_555
S2_2 C21_2 1_555 1_555
S5_2 C36_2 1_555 1_555
N3_2 C31_2 1_555 1_555
C31_2 H17_2 1_555 1_555
C32_2 C31_2 1_555 1_555
H18_2 C32_2 1_555 1_555
C33_2 C32_2 1_555 1_555
C35_2 N3_2 1_555 1_555
C36_2 C33_2 1_555 1_555
C21_2 H33_2 1_555 1_555
O9 C1_2 1_555 1_555
O11 C14_2 1_555 1_555
O13 C14_2 1_555 1_555
C1_2 O2_2 1_555 1_555
C2_2 C1_2 1_555 1_555
C3_2 C2_2 1_555 1_555
H1_2 C3_2 1_555 1_555
C4_2 C3_2 1_555 1_555
H2_2 C4_2 1_555 1_555
C5_2 C4_2 1_555 1_555
C6_2 C5_2 1_555 1_555
H3_2 C6_2 1_555 1_555
C7_2 C2_2 1_555 1_555
H4_2 C7_2 1_555 1_555
C8_2 C5_2 1_555 1_555
C9_2 C8_2 1_555 1_555
H5_2 C9_2 1_555 1_555
C10_2 C9_2 1_555 1_555
H6_2 C10_2 1_555 1_555
C11_2 C10_2 1_555 1_555
C12_2 C11_2 1_555 1_555
H7_2 C12_2 1_555 1_555
C13_2 C8_2 1_555 1_555
H8_2 C13_2 1_555 1_555
C14_2 C11_2 1_555 1_555
C6_2 C7_2 1_555 1_555
C12_2 C13_2 1_555 1_555

#END
