
###############################################################################
#
# This file contains modified crystal structure data generated from the
# MOF subset of the Cambridge Structural Database (CSD) v543 
# hosted by the Cambridge Crystallographic Data Centre (CCDC).
#
# This work is licensed under the Creative Commons
# Attribution-NonCommercial-ShareAlike 4.0 International License.
# To view a copy of this license, visit
# http://creativecommons.org/licenses/by-nc-sa/4.0/
# or send a letter to
# Creative Commons, PO Box 1866, Mountain View, CA 94042, USA.
#
# CIF created using the CSD Python API on 29 September 2022
# The structure has been converted into the P1 space group
# The structure has a 3D framework
# The original CSD entry PUNSIB is in the monoclinic crystal system
# The framework has been calculated to contain at least 10.0% void space
# The void calculation uses a probe of radius 1.32A, grid spacing 0.4
# The framework is charged, counterions have been retained in the structure
#
###############################################################################

data_PUNSIB
_chemical_formula_moiety         '(C66 H82 Cl12 La6 N16 O56 2+)n'
_symmetry_cell_setting           triclinic
_symmetry_space_group_name_H-M   'P 1'
_symmetry_Int_Tables_number      1
_space_group_name_Hall           'P 1'
loop_
_symmetry_equiv_pos_site_id
_symmetry_equiv_pos_as_xyz
1 x,y,z
_cell_length_a                   9.0154(18)
_cell_length_b                   25.441(5)
_cell_length_c                   11.390(2)
_cell_angle_alpha                90
_cell_angle_beta                 104.41(3)
_cell_angle_gamma                90
_cell_volume                     2530.23
loop_
_atom_site_label
_atom_site_type_symbol
_atom_site_fract_x
_atom_site_fract_y
_atom_site_fract_z
La1 La 0.5000 0.234724(7) 0.5000
O1 O 0.3395(3) 0.15355(9) 0.4374(2)
O2 O 0.2931(4) 0.06853(11) 0.4527(3)
O3 O 0.2416(3) 0.26738(7) 0.3844(2)
O4 O 0.0120(2) 0.29082(9) 0.27838(19)
O5 O 0.5333(3) 0.31810(9) 0.3808(2)
H1 H 0.482(4) 0.3450(12) 0.382(4)
H2 H 0.627(2) 0.3262(16) 0.395(4)
N1 N 0.3960(4) 0.04233(10) 0.2567(3)
N2 N 0.1008(3) 0.31043(12) 0.0747(2)
C1 C 0.3415(4) 0.10601(12) 0.4055(3)
C2 C 0.4164(5) 0.09654(12) 0.3009(3)
H3 H 0.3712 0.1208 0.2336
H4 H 0.5272 0.1044 0.3284
C3 C 0.4551(6) 0.0000 0.3186(4)
H5 H 0.5279 0.0000 0.3949
C4 C 0.2976(5) 0.02619(16) 0.1502(4)
H6 H 0.2402 0.0483 0.0881
C5 C 0.1502(3) 0.28291(11) 0.2875(2)
C6 C 0.2168(4) 0.29099(17) 0.1784(3)
H7 H 0.3023 0.3165 0.1995
H8 H 0.2581 0.2572 0.1570
C7 C -0.0000 0.2800(2) 0.0000
H9 H -0.0000 0.2427 0.0000
C8 C 0.0623(4) 0.36199(15) 0.0470(3)
H10 H 0.1141 0.3920 0.0868
La2 La 0.0000 0.265276(7) 0.5000
O7 O 0.6605(3) 0.15355(9) 0.5626(2)
O10 O 0.7584(3) 0.26738(7) 0.6156(2)
O11 O 0.2584(3) 0.23262(7) 0.6156(2)
O12 O 0.7416(3) 0.23262(7) 0.3844(2)
O14 O 0.4880(2) 0.20918(9) 0.72162(19)
O15 O 0.5120(2) 0.20918(9) 0.27838(19)
O16 O 0.4667(3) 0.31810(9) 0.6192(2)
H11 H 0.518(4) 0.3450(12) 0.618(4)
H12 H 0.373(2) 0.3262(16) 0.605(4)
C7_2 C 0.0000 0.2800(2) 1.0000
H9_2 H 0.0000 0.2427 1.0000
C3_2 C 0.4551(6) 1.0000 0.3186(4)
H5_2 H 0.5279 1.0000 0.3949
La3 La 0.5000 0.765276(7) 0.5000
O6 O 0.3395(3) 0.84645(9) 0.4374(2)
O8 O 0.2931(4) 0.93147(11) 0.4527(3)
N3 N 0.3960(4) 0.95767(10) 0.2567(3)
C9 C 0.3415(4) 0.89399(12) 0.4055(3)
C10 C 0.4164(5) 0.90346(12) 0.3009(3)
H13 H 0.3712 0.8792 0.2336
H14 H 0.5272 0.8956 0.3284
C11 C 0.2976(5) 0.97381(16) 0.1502(4)
H15 H 0.2402 0.9517 0.0881
C7_3 C 1.0000 0.2800(2) 0.0000
H9_3 H 1.0000 0.2427 0.0000
La2_2 La 1.0000 0.265276(7) 0.5000
C7_4 C 1.0000 0.2800(2) 1.0000
H9_4 H 1.0000 0.2427 1.0000
O13 O 0.9880(2) 0.29082(9) 0.72162(19)
N4 N 0.8992(3) 0.31043(12) 0.9253(2)
C12 C 0.8498(3) 0.28291(11) 0.7125(2)
C13 C 0.7832(4) 0.29099(17) 0.8216(3)
H16 H 0.6977 0.3165 0.8005
H17 H 0.7419 0.2572 0.8430
C14 C 0.9377(4) 0.36199(15) 0.9530(3)
H18 H 0.8859 0.3920 0.9132
O2_2 O 0.7069(4) 0.06853(11) 0.5473(3)
N1_2 N 0.6040(4) 0.04233(10) 0.7433(3)
C1_2 C 0.6585(4) 0.10601(12) 0.5945(3)
C2_2 C 0.5836(5) 0.09654(12) 0.6991(3)
H3_2 H 0.6288 0.1208 0.7664
H4_2 H 0.4728 0.1044 0.6716
C3_3 C 0.5449(6) -0.0000 0.6814(4)
H5_3 H 0.4721 0.0000 0.6051
C4_2 C 0.7024(5) 0.02619(16) 0.8498(4)
H6_2 H 0.7598 0.0483 0.9119
C3_4 C 0.5449(6) 1.0000 0.6814(4)
H5_4 H 0.4721 1.0000 0.6051
O6_2 O 0.6605(3) 0.84645(9) 0.5626(2)
O8_2 O 0.7069(4) 0.93147(11) 0.5473(3)
N3_2 N 0.6040(4) 0.95767(10) 0.7433(3)
C9_2 C 0.6585(4) 0.89399(12) 0.5945(3)
C10_2 C 0.5836(5) 0.90346(12) 0.6991(3)
H13_2 H 0.6288 0.8792 0.7664
H14_2 H 0.4728 0.8956 0.6716
C11_2 C 0.7024(5) 0.97381(16) 0.8498(4)
H15_2 H 0.7598 0.9517 0.9119
La1_2 La -0.0000 0.734724(7) 0.5000
O5_2 O 0.0333(3) 0.81810(9) 0.3808(2)
H2_2 H 0.127(2) 0.8262(16) 0.395(4)
H4_3 H 0.0272 0.6044 0.3284
H5_5 H 0.0279 0.5000 0.3949
O7_2 O 0.1605(3) 0.65355(9) 0.5626(2)
O10_2 O 0.2584(3) 0.76738(7) 0.6156(2)
O12_2 O 0.2416(3) 0.73262(7) 0.3844(2)
O15_2 O 0.0120(2) 0.70918(9) 0.27838(19)
H11_2 H 0.018(4) 0.8450(12) 0.618(4)
H14_3 H 0.0272 0.3956 0.3284
La1_3 La 1.0000 0.734724(7) 0.5000
O1_2 O 0.8395(3) 0.65355(9) 0.4374(2)
O2_3 O 0.7931(4) 0.56853(11) 0.4527(3)
O3_2 O 0.7416(3) 0.76738(7) 0.3844(2)
O4_2 O 0.5120(2) 0.79082(9) 0.27838(19)
H1_2 H 0.982(4) 0.8450(12) 0.382(4)
N1_3 N 0.8960(4) 0.54233(10) 0.2567(3)
N2_2 N 0.6008(3) 0.81043(12) 0.0747(2)
C1_3 C 0.8415(4) 0.60601(12) 0.4055(3)
C2_3 C 0.9164(5) 0.59654(12) 0.3009(3)
H3_3 H 0.8712 0.6208 0.2336
C3_5 C 0.9551(6) 0.5000 0.3186(4)
C4_3 C 0.7976(5) 0.52619(16) 0.1502(4)
H6_3 H 0.7402 0.5483 0.0881
C5_2 C 0.6502(3) 0.78291(11) 0.2875(2)
C6_2 C 0.7168(4) 0.79099(17) 0.1784(3)
H7_2 H 0.8023 0.8165 0.1995
H8_2 H 0.7581 0.7572 0.1570
C7_5 C 0.5000 0.7800(2) 0.0000
H9_5 H 0.5000 0.7427 0.0000
C8_2 C 0.5623(4) 0.86199(15) 0.0470(3)
H10_2 H 0.6141 0.8920 0.0868
O6_3 O 0.8395(3) 0.34645(9) 0.4374(2)
O8_3 O 0.7931(4) 0.43147(11) 0.4527(3)
O11_2 O 0.7584(3) 0.73262(7) 0.6156(2)
O14_2 O 0.9880(2) 0.70918(9) 0.72162(19)
O16_2 O 0.9667(3) 0.81810(9) 0.6192(2)
H12_2 H 0.873(2) 0.8262(16) 0.605(4)
N3_3 N 0.8960(4) 0.45767(10) 0.2567(3)
C9_3 C 0.8415(4) 0.39399(12) 0.4055(3)
C10_3 C 0.9164(5) 0.40346(12) 0.3009(3)
H13_3 H 0.8712 0.3792 0.2336
C11_3 C 0.7976(5) 0.47381(16) 0.1502(4)
H15_3 H 0.7402 0.4517 0.0881
C7_6 C 0.5000 0.7800(2) 1.0000
H9_6 H 0.5000 0.7427 1.0000
O13_2 O 0.4880(2) 0.79082(9) 0.72162(19)
N4_2 N 0.3992(3) 0.81043(12) 0.9253(2)
C12_2 C 0.3498(3) 0.78291(11) 0.7125(2)
C13_2 C 0.2832(4) 0.79099(17) 0.8216(3)
H16_2 H 0.1977 0.8165 0.8005
H17_2 H 0.2419 0.7572 0.8430
C14_2 C 0.4377(4) 0.86199(15) 0.9530(3)
H18_2 H 0.3859 0.8920 0.9132
O2_4 O 0.2069(4) 0.56853(11) 0.5473(3)
N1_4 N 0.1040(4) 0.54233(10) 0.7433(3)
C1_4 C 0.1585(4) 0.60601(12) 0.5945(3)
C2_4 C 0.0836(5) 0.59654(12) 0.6991(3)
H3_4 H 0.1288 0.6208 0.7664
C3_6 C 0.0449(6) 0.5000 0.6814(4)
C4_4 C 0.2024(5) 0.52619(16) 0.8498(4)
H6_4 H 0.2598 0.5483 0.9119
O6_4 O 0.1605(3) 0.34645(9) 0.5626(2)
O8_4 O 0.2069(4) 0.43147(11) 0.5473(3)
N3_4 N 0.1040(4) 0.45767(10) 0.7433(3)
C9_4 C 0.1585(4) 0.39399(12) 0.5945(3)
C10_4 C 0.0836(5) 0.40346(12) 0.6991(3)
H13_4 H 0.1288 0.3792 0.7664
C11_4 C 0.2024(5) 0.47381(16) 0.8498(4)
H15_4 H 0.2598 0.4517 0.9119
H4_4 H 0.9728 0.6044 0.6716
H5_6 H 0.9721 0.5000 0.6051
H14_4 H 0.9728 0.3956 0.6716
C7_7 C 0.0000 0.7200(2) 0.0000
H9_7 H 0.0000 0.7573 0.0000
N4_3 N 0.1008(3) 0.68957(12) 0.0747(2)
C12_3 C 0.1502(3) 0.71709(11) 0.2875(2)
C13_3 C 0.2168(4) 0.70901(17) 0.1784(3)
H16_3 H 0.3023 0.6835 0.1995
H17_3 H 0.2581 0.7428 0.1570
C14_3 C 0.0623(4) 0.63801(15) 0.0470(3)
H18_3 H 0.1141 0.6080 0.0868
C7_8 C 0.0000 0.7200(2) 1.0000
H9_8 H 0.0000 0.7573 1.0000
C7_9 C 1.0000 0.7200(2) 0.0000
H9_9 H 1.0000 0.7573 0.0000
O5_3 O 0.4667(3) 0.68190(9) 0.6192(2)
H1_3 H 0.518(4) 0.6550(12) 0.618(4)
H2_3 H 0.373(2) 0.6738(16) 0.605(4)
N2_3 N 0.8992(3) 0.68957(12) 0.9253(2)
C5_3 C 0.8498(3) 0.71709(11) 0.7125(2)
C6_3 C 0.7832(4) 0.70901(17) 0.8216(3)
H7_3 H 0.6977 0.6835 0.8005
H8_3 H 0.7419 0.7428 0.8430
C7_10 C 1.0000 0.7200(2) 1.0000
H9_10 H 1.0000 0.7573 1.0000
C8_3 C 0.9377(4) 0.63801(15) 0.9530(3)
H10_3 H 0.8859 0.6080 0.9132
O16_3 O 0.5333(3) 0.68190(9) 0.3808(2)
H11_3 H 0.482(4) 0.6550(12) 0.382(4)
H12_3 H 0.627(2) 0.6738(16) 0.395(4)
C7_11 C 0.5000 0.2200(2) 0.0000
H9_11 H 0.5000 0.2573 0.0000
N4_4 N 0.6008(3) 0.18957(12) 0.0747(2)
C12_4 C 0.6502(3) 0.21709(11) 0.2875(2)
C13_4 C 0.7168(4) 0.20901(17) 0.1784(3)
H16_4 H 0.8023 0.1835 0.1995
H17_4 H 0.7581 0.2428 0.1570
C14_4 C 0.5623(4) 0.13801(15) 0.0470(3)
H18_4 H 0.6141 0.1080 0.0868
H1_4 H 0.018(4) 0.1550(12) 0.618(4)
N2_4 N 0.3992(3) 0.18957(12) 0.9253(2)
C5_4 C 0.3498(3) 0.21709(11) 0.7125(2)
C6_4 C 0.2832(4) 0.20901(17) 0.8216(3)
H7_4 H 0.1977 0.1835 0.8005
H8_4 H 0.2419 0.2428 0.8430
C7_12 C 0.5000 0.2200(2) 1.0000
H9_12 H 0.5000 0.2573 1.0000
C8_4 C 0.4377(4) 0.13801(15) 0.9530(3)
H10_4 H 0.3859 0.1080 0.9132
O16_4 O 0.0333(3) 0.18190(9) 0.3808(2)
H12_4 H 0.127(2) 0.1738(16) 0.395(4)
O5_4 O 0.9667(3) 0.18190(9) 0.6192(2)
H2_4 H 0.873(2) 0.1738(16) 0.605(4)
H11_4 H 0.982(4) 0.1550(12) 0.382(4)
Cl1 Cl 0.0000 0.12929(6) 0.0000
O18 O 0.1225(4) 0.16154(18) 0.0629(5)
Cl1_2 Cl 0.0000 0.12929(6) 1.0000
O17 O 0.0553(6) 0.0965(2) 0.9210(5)
Cl1_3 Cl 1.0000 0.12929(6) 0.0000
O19 O 0.9447(6) 0.0965(2) 0.0790(5)
Cl1_4 Cl 1.0000 0.12929(6) 1.0000
O20 O 0.8775(4) 0.16154(18) 0.9371(5)
Cl1_5 Cl 0.5000 0.62929(6) 0.0000
O18_2 O 0.6225(4) 0.66154(18) 0.0629(5)
O19_2 O 0.4447(6) 0.5965(2) 0.0790(5)
Cl1_6 Cl 0.5000 0.62929(6) 1.0000
O17_2 O 0.5553(6) 0.5965(2) 0.9210(5)
O20_2 O 0.3775(4) 0.66154(18) 0.9371(5)
Cl1_7 Cl -0.0000 0.87071(6) 0.0000
O20_3 O 0.1225(4) 0.83846(18) 0.0629(5)
Cl1_8 Cl -0.0000 0.87071(6) 1.0000
O19_3 O 0.0553(6) 0.9035(2) 0.9210(5)
Cl1_9 Cl 1.0000 0.87071(6) 0.0000
O17_3 O 0.9447(6) 0.9035(2) 0.0790(5)
Cl1_10 Cl 1.0000 0.87071(6) 1.0000
O18_3 O 0.8775(4) 0.83846(18) 0.9371(5)
Cl1_11 Cl 0.5000 0.37071(6) 0.0000
O17_4 O 0.4447(6) 0.4035(2) 0.0790(5)
O20_4 O 0.6225(4) 0.33846(18) 0.0629(5)
Cl1_12 Cl 0.5000 0.37071(6) 1.0000
O18_4 O 0.3775(4) 0.33846(18) 0.9371(5)
O19_4 O 0.5553(6) 0.4035(2) 0.9210(5)
loop_
_geom_bond_atom_site_label_1
_geom_bond_atom_site_label_2
_geom_bond_site_symmetry_1
_geom_bond_site_symmetry_2
La1 O1 1_555 1_555
O1 C1 1_555 1_555
O2 C1 1_555 1_555
O3 La1 1_555 1_555
O4 C5 1_555 1_555
O5 La1 1_555 1_555
H1 O5 1_555 1_555
H2 O5 1_555 1_555
N1 C2 1_555 1_555
N2 C6 1_555 1_555
C1 C2 1_555 1_555
C2 H3 1_555 1_555
H4 C2 1_555 1_555
C3 N1 1_555 1_555
H5 C3 1_555 1_555
C4 N1 1_555 1_555
H6 C4 1_555 1_555
C5 O3 1_555 1_555
C6 C5 1_555 1_555
H7 C6 1_555 1_555
H8 C6 1_555 1_555
C7 N2 1_555 1_555
H9 C7 1_555 1_555
C8 N2 1_555 1_555
H10 C8 1_555 1_555
La2 O3 1_555 1_555
O7 La1 1_555 1_555
O10 La1 1_555 1_555
O11 La1 1_555 1_555
O12 La1 1_555 1_555
O14 La1 1_555 1_555
O15 La1 1_555 1_555
O16 La1 1_555 1_555
H11 O16 1_555 1_555
H12 O16 1_555 1_555
O4 La2 1_555 1_555
La2 O11 1_555 1_555
H9_2 C7_2 1_555 1_555
H5_2 C3_2 1_555 1_555
La3 O6 1_555 1_555
O6 C9 1_555 1_555
O8 C9 1_555 1_555
N3 C3_2 1_555 1_555
C9 C10 1_555 1_555
C10 N3 1_555 1_555
H13 C10 1_555 1_555
H14 C10 1_555 1_555
H15 C11 1_555 1_555
N3 C11 1_555 1_555
H9_3 C7_3 1_555 1_555
H9_4 C7_4 1_555 1_555
La2_2 O10 1_555 1_555
O10 C12 1_555 1_555
O13 La2_2 1_555 1_555
N4 C7_4 1_555 1_555
C12 O13 1_555 1_555
C13 N4 1_555 1_555
H16 C13 1_555 1_555
H17 C13 1_555 1_555
H18 C14 1_555 1_555
N4 C14 1_555 1_555
C12 C13 1_555 1_555
O7 C1_2 1_555 1_555
O2_2 C1_2 1_555 1_555
N1_2 C2_2 1_555 1_555
C1_2 C2_2 1_555 1_555
C2_2 H3_2 1_555 1_555
H4_2 C2_2 1_555 1_555
C3_3 N1_2 1_555 1_555
H5_3 C3_3 1_555 1_555
C4_2 N1_2 1_555 1_555
H6_2 C4_2 1_555 1_555
La2_2 O12 1_555 1_555
H5_4 C3_4 1_555 1_555
La3 O6_2 1_555 1_555
O6_2 C9_2 1_555 1_555
O8_2 C9_2 1_555 1_555
N3_2 C3_4 1_555 1_555
C9_2 C10_2 1_555 1_555
C10_2 N3_2 1_555 1_555
H13_2 C10_2 1_555 1_555
H14_2 C10_2 1_555 1_555
H15_2 C11_2 1_555 1_555
N3_2 C11_2 1_555 1_555
O5_2 La1_2 1_555 1_555
H2_2 O5_2 1_555 1_555
O7_2 La1_2 1_555 1_555
O10_2 La1_2 1_555 1_555
O12_2 La1_2 1_555 1_555
O15_2 La1_2 1_555 1_555
La1_3 O1_2 1_555 1_555
O1_2 C1_3 1_555 1_555
O2_3 C1_3 1_555 1_555
O3_2 La1_3 1_555 1_555
O4_2 C5_2 1_555 1_555
N1_3 C2_3 1_555 1_555
N2_2 C6_2 1_555 1_555
C1_3 C2_3 1_555 1_555
C2_3 H3_3 1_555 1_555
C3_5 N1_3 1_555 1_555
C4_3 N1_3 1_555 1_555
H6_3 C4_3 1_555 1_555
C5_2 O3_2 1_555 1_555
C6_2 C5_2 1_555 1_555
H7_2 C6_2 1_555 1_555
H8_2 C6_2 1_555 1_555
C7_5 N2_2 1_555 1_555
H9_5 C7_5 1_555 1_555
C8_2 N2_2 1_555 1_555
H10_2 C8_2 1_555 1_555
La3 O3_2 1_555 1_555
La2_2 O6_3 1_555 1_555
O6_3 C9_3 1_555 1_555
O8_3 C9_3 1_555 1_555
O11_2 La1_3 1_555 1_555
O14_2 La1_3 1_555 1_555
O16_2 La1_3 1_555 1_555
H12_2 O16_2 1_555 1_555
N3_3 C3_5 1_555 1_555
C9_3 C10_3 1_555 1_555
C10_3 N3_3 1_555 1_555
H13_3 C10_3 1_555 1_555
C11_3 C4_3 1_555 1_555
H15_3 C11_3 1_555 1_555
O4_2 La3 1_555 1_555
La3 O11_2 1_555 1_555
N3_3 C11_3 1_555 1_555
H9_6 C7_6 1_555 1_555
La3 O10_2 1_555 1_555
O10_2 C12_2 1_555 1_555
O13_2 La3 1_555 1_555
N4_2 C7_6 1_555 1_555
C12_2 O13_2 1_555 1_555
C13_2 N4_2 1_555 1_555
H16_2 C13_2 1_555 1_555
H17_2 C13_2 1_555 1_555
H18_2 C14_2 1_555 1_555
N4_2 C14_2 1_555 1_555
C12_2 C13_2 1_555 1_555
O7_2 C1_4 1_555 1_555
O2_4 C1_4 1_555 1_555
N1_4 C2_4 1_555 1_555
C1_4 C2_4 1_555 1_555
C2_4 H3_4 1_555 1_555
C3_6 N1_4 1_555 1_555
C4_4 N1_4 1_555 1_555
H6_4 C4_4 1_555 1_555
La2 O6_4 1_555 1_555
O6_4 C9_4 1_555 1_555
O8_4 C9_4 1_555 1_555
N3_4 C3_6 1_555 1_555
C9_4 C10_4 1_555 1_555
C10_4 N3_4 1_555 1_555
H13_4 C10_4 1_555 1_555
C11_4 C4_4 1_555 1_555
H15_4 C11_4 1_555 1_555
La3 O12_2 1_555 1_555
N3_4 C11_4 1_555 1_555
H9_7 C7_7 1_555 1_555
O12_2 C12_3 1_555 1_555
N4_3 C7_7 1_555 1_555
C12_3 O15_2 1_555 1_555
C13_3 N4_3 1_555 1_555
H16_3 C13_3 1_555 1_555
H17_3 C13_3 1_555 1_555
H18_3 C14_3 1_555 1_555
N4_3 C14_3 1_555 1_555
C12_3 C13_3 1_555 1_555
H9_8 C7_8 1_555 1_555
H9_9 C7_9 1_555 1_555
O14_2 C5_3 1_555 1_555
O5_3 La3 1_555 1_555
H1_3 O5_3 1_555 1_555
H2_3 O5_3 1_555 1_555
N2_3 C6_3 1_555 1_555
C5_3 O11_2 1_555 1_555
C6_3 C5_3 1_555 1_555
H7_3 C6_3 1_555 1_555
H8_3 C6_3 1_555 1_555
C7_10 N2_3 1_555 1_555
H9_10 C7_10 1_555 1_555
C8_3 N2_3 1_555 1_555
H10_3 C8_3 1_555 1_555
O16_3 La3 1_555 1_555
H11_3 O16_3 1_555 1_555
H12_3 O16_3 1_555 1_555
H9_11 C7_11 1_555 1_555
O12 C12_4 1_555 1_555
N4_4 C7_11 1_555 1_555
C12_4 O15 1_555 1_555
C13_4 N4_4 1_555 1_555
H16_4 C13_4 1_555 1_555
H17_4 C13_4 1_555 1_555
H18_4 C14_4 1_555 1_555
N4_4 C14_4 1_555 1_555
C12_4 C13_4 1_555 1_555
O14 C5_4 1_555 1_555
N2_4 C6_4 1_555 1_555
C5_4 O11 1_555 1_555
C6_4 C5_4 1_555 1_555
H7_4 C6_4 1_555 1_555
H8_4 C6_4 1_555 1_555
C7_12 N2_4 1_555 1_555
H9_12 C7_12 1_555 1_555
C8_4 N2_4 1_555 1_555
H10_4 C8_4 1_555 1_555
O16_4 La2 1_555 1_555
H12_4 O16_4 1_555 1_555
O5_4 La2_2 1_555 1_555
H2_4 O5_4 1_555 1_555
O18 Cl1 1_555 1_555
Cl1_2 O17 1_555 1_555
O19 Cl1_3 1_555 1_555
O20 Cl1_4 1_555 1_555
O18_2 Cl1_5 1_555 1_555
O19_2 Cl1_5 1_555 1_555
Cl1_6 O17_2 1_555 1_555
O20_2 Cl1_6 1_555 1_555
O20_3 Cl1_7 1_555 1_555
O19_3 Cl1_8 1_555 1_555
Cl1_9 O17_3 1_555 1_555
O18_3 Cl1_10 1_555 1_555
Cl1_11 O17_4 1_555 1_555
O20_4 Cl1_11 1_555 1_555
O18_4 Cl1_12 1_555 1_555
O19_4 Cl1_12 1_555 1_555

#END
