
###############################################################################
#
# This file contains modified crystal structure data generated from the
# MOF subset of the Cambridge Structural Database (CSD) v543 
# hosted by the Cambridge Crystallographic Data Centre (CCDC).
#
# This work is licensed under the Creative Commons
# Attribution-NonCommercial-ShareAlike 4.0 International License.
# To view a copy of this license, visit
# http://creativecommons.org/licenses/by-nc-sa/4.0/
# or send a letter to
# Creative Commons, PO Box 1866, Mountain View, CA 94042, USA.
#
# CIF created using the CSD Python API on 29 September 2022
# The structure has been converted into the P1 space group
# The structure has a 3D framework
# The original CSD entry PUNSUN is in the monoclinic crystal system
# The framework has been calculated to contain at least 10.0% void space
# The void calculation uses a probe of radius 1.32A, grid spacing 0.4
# The framework is charged, counterions have been retained in the structure
#
###############################################################################

data_PUNSUN
_chemical_formula_moiety         '(C56 H72 Cl8 La6 N16 O36 2-)n'
_symmetry_cell_setting           triclinic
_symmetry_space_group_name_H-M   'P 1'
_symmetry_Int_Tables_number      1
_space_group_name_Hall           'P 1'
loop_
_symmetry_equiv_pos_site_id
_symmetry_equiv_pos_as_xyz
1 x,y,z
_cell_length_a                   18.755(4)
_cell_length_b                   16.299(3)
_cell_length_c                   8.9294(18)
_cell_angle_alpha                90
_cell_angle_beta                 112.59(3)
_cell_angle_gamma                90
_cell_volume                     2520.19
loop_
_atom_site_label
_atom_site_type_symbol
_atom_site_fract_x
_atom_site_fract_y
_atom_site_fract_z
La4 La 0.0000 0.527928(17) 0.2500
La1 La 0.5000 0.027928(17) 0.2500
O1 O 0.4671(2) 0.15409(19) 0.3702(4)
O2 O 0.4734(3) 0.2864(2) 0.4327(5)
O3 O 0.07540(18) 0.47922(18) 0.0874(4)
N1 N 0.3422(2) 0.3235(2) 0.1755(5)
N2 N 0.2755(2) 0.4250(2) 0.2032(5)
C1 C 0.4432(3) 0.2268(3) 0.3447(6)
C2 C 0.3730(3) 0.2401(3) 0.1873(6)
H3 H 0.3879 0.2297 0.0939
H4 H 0.3322 0.2003 0.1817
C3 C 0.3702(3) 0.3927(3) 0.1282(8)
H5 H 0.4113 0.3951 0.0911
C4 C 0.3278(3) 0.4568(3) 0.1450(7)
H6 H 0.3332 0.5127 0.1213
C5 C 0.2850(3) 0.3442(3) 0.2203(6)
H7 H 0.2559 0.3078 0.2579
C6 C 0.2114(3) 0.4675(3) 0.2237(6)
H8 H 0.2242 0.5264 0.2447
H9 H 0.2033 0.4446 0.3186
C7 C 0.1375(2) 0.4587(2) 0.0732(5)
O7 O 0.5329(2) 0.15409(19) 0.1298(4)
O12 O 0.57540(18) 0.02078(18) 0.5874(4)
O14 O 0.64004(18) 0.0655(2) 0.4443(4)
O15 O 0.35996(18) 0.0655(2) 0.0557(4)
H15 H 0.8332 0.0127 0.1213
H17 H 0.7242 0.0264 0.2447
O4 O 0.14004(18) 0.4345(2) 0.9443(4)
La3 La 0.0000 0.472072(17) 0.7500
O11 O 0.42460(18) 0.02078(18) 0.9126(4)
O5 O 0.5761(2) 0.8928(2) 0.3769(5)
H1 H 0.557(4) 0.876(4) 0.445(6)
H2 H 0.566(4) 0.859(3) 0.300(6)
La4_2 La 1.0000 0.527928(17) 0.2500
O6 O 0.9671(2) 0.65409(19) 0.3702(4)
O8 O 0.9734(3) 0.7864(2) 0.4327(5)
O9 O 0.57540(18) 0.97922(18) 0.0874(4)
O10 O 0.42460(18) 0.97922(18) 0.4126(4)
O16 O 0.4239(2) 0.8928(2) 0.1231(5)
H10 H 0.443(4) 0.876(4) 0.055(6)
H11 H 0.434(4) 0.859(3) 0.200(6)
N3 N 0.8422(2) 0.8235(2) 0.1755(5)
N4 N 0.7755(2) 0.9250(2) 0.2032(5)
C8 C 0.9432(3) 0.7268(3) 0.3447(6)
C9 C 0.8730(3) 0.7401(3) 0.1873(6)
H12 H 0.8879 0.7297 0.0939
H13 H 0.8322 0.7003 0.1817
C10 C 0.8702(3) 0.8927(3) 0.1282(8)
H14 H 0.9113 0.8951 0.0911
C11 C 0.8278(3) 0.9568(3) 0.1450(7)
C12 C 0.7850(3) 0.8442(3) 0.2203(6)
H16 H 0.7559 0.8078 0.2579
C13 C 0.7114(3) 0.9675(3) 0.2237(6)
H18 H 0.7033 0.9446 0.3186
C14 C 0.6375(2) 0.9587(2) 0.0732(5)
La5 La 0.5000 0.972072(17) 0.7500
O13 O 0.64004(18) 0.9345(2) 0.9443(4)
La3_2 La 1.0000 0.472072(17) 0.7500
O2_2 O 0.5266(3) 0.2864(2) 0.0673(5)
O3_2 O 0.92460(18) 0.47922(18) 0.4126(4)
O4_2 O 0.85996(18) 0.4345(2) 0.5557(4)
N1_2 N 0.6578(2) 0.3235(2) 0.3245(5)
N2_2 N 0.7245(2) 0.4250(2) 0.2968(5)
C1_2 C 0.5568(3) 0.2268(3) 0.1553(6)
C2_2 C 0.6270(3) 0.2401(3) 0.3127(6)
H3_2 H 0.6121 0.2297 0.4061
H4_2 H 0.6678 0.2003 0.3183
C3_2 C 0.6298(3) 0.3927(3) 0.3718(8)
H5_2 H 0.5887 0.3951 0.4089
C4_2 C 0.6722(3) 0.4568(3) 0.3550(7)
H6_2 H 0.6668 0.5127 0.3787
C5_2 C 0.7150(3) 0.3442(3) 0.2797(6)
H7_2 H 0.7441 0.3078 0.2421
C6_2 C 0.7886(3) 0.4675(3) 0.2763(6)
H8_2 H 0.7758 0.5264 0.2553
H9_2 H 0.7967 0.4446 0.1814
C7_2 C 0.8625(2) 0.4587(2) 0.4268(5)
H15_2 H 0.1668 0.0127 0.3787
H17_2 H 0.2758 0.0264 0.2553
O6_2 O 0.0329(2) 0.65409(19) 0.1298(4)
O8_2 O 0.0266(3) 0.7864(2) 0.0673(5)
O13_2 O 0.35996(18) 0.9345(2) 0.5557(4)
N3_2 N 0.1578(2) 0.8235(2) 0.3245(5)
N4_2 N 0.2245(2) 0.9250(2) 0.2968(5)
C8_2 C 0.0568(3) 0.7268(3) 0.1553(6)
C9_2 C 0.1270(3) 0.7401(3) 0.3127(6)
H12_2 H 0.1121 0.7297 0.4061
H13_2 H 0.1678 0.7003 0.3183
C10_2 C 0.1298(3) 0.8927(3) 0.3718(8)
H14_2 H 0.0887 0.8951 0.4089
C11_2 C 0.1722(3) 0.9568(3) 0.3550(7)
C12_2 C 0.2150(3) 0.8442(3) 0.2797(6)
H16_2 H 0.2441 0.8078 0.2421
C13_2 C 0.2886(3) 0.9675(3) 0.2763(6)
H18_2 H 0.2967 0.9446 0.1814
C14_2 C 0.3625(2) 0.9587(2) 0.4268(5)
O5_2 O 0.0761(2) 0.3928(2) 0.3769(5)
H1_2 H 0.057(4) 0.376(4) 0.445(6)
H2_2 H 0.066(4) 0.359(3) 0.300(6)
O12_2 O 0.07540(18) 0.52078(18) 0.5874(4)
O14_2 O 0.14004(18) 0.5655(2) 0.4443(4)
O15_2 O 0.85996(18) 0.5655(2) 0.0557(4)
O16_2 O 0.9239(2) 0.3928(2) 0.1231(5)
H10_2 H 0.943(4) 0.376(4) 0.055(6)
H11_2 H 0.934(4) 0.359(3) 0.200(6)
O11_2 O 0.92460(18) 0.52078(18) 0.9126(4)
O5_3 O 0.4239(2) 0.1072(2) 0.6231(5)
H1_3 H 0.443(4) 0.124(4) 0.555(6)
H2_3 H 0.434(4) 0.141(3) 0.700(6)
O6_3 O 0.0329(2) 0.34591(19) 0.6298(4)
O8_3 O 0.0266(3) 0.2136(2) 0.5673(5)
O16_3 O 0.5761(2) 0.1072(2) 0.8769(5)
H10_3 H 0.557(4) 0.124(4) 0.945(6)
H11_3 H 0.566(4) 0.141(3) 0.800(6)
N3_3 N 0.1578(2) 0.1765(2) 0.8245(5)
N4_3 N 0.2245(2) 0.0750(2) 0.7968(5)
C8_3 C 0.0568(3) 0.2732(3) 0.6553(6)
C9_3 C 0.1270(3) 0.2599(3) 0.8127(6)
H12_3 H 0.1121 0.2703 0.9061
H13_3 H 0.1678 0.2997 0.8183
C10_3 C 0.1298(3) 0.1073(3) 0.8718(8)
H14_3 H 0.0887 0.1049 0.9089
C11_3 C 0.1722(3) 0.0432(3) 0.8550(7)
C12_3 C 0.2150(3) 0.1558(3) 0.7797(6)
H16_3 H 0.2441 0.1922 0.7421
C13_3 C 0.2886(3) 0.0325(3) 0.7763(6)
H18_3 H 0.2967 0.0554 0.6814
C14_3 C 0.3625(2) 0.0413(2) 0.9268(5)
O1_2 O 0.5329(2) 0.84591(19) 0.6298(4)
O2_3 O 0.5266(3) 0.7136(2) 0.5673(5)
N1_3 N 0.6578(2) 0.6765(2) 0.8245(5)
N2_3 N 0.7245(2) 0.5750(2) 0.7968(5)
C1_3 C 0.5568(3) 0.7732(3) 0.6553(6)
C2_3 C 0.6270(3) 0.7599(3) 0.8127(6)
H3_3 H 0.6121 0.7703 0.9061
H4_3 H 0.6678 0.7997 0.8183
C3_3 C 0.6298(3) 0.6073(3) 0.8718(8)
H5_3 H 0.5887 0.6049 0.9089
C4_3 C 0.6722(3) 0.5432(3) 0.8550(7)
H6_3 H 0.6668 0.4873 0.8787
C5_3 C 0.7150(3) 0.6558(3) 0.7797(6)
H7_3 H 0.7441 0.6922 0.7421
C6_3 C 0.7886(3) 0.5325(3) 0.7763(6)
H8_3 H 0.7758 0.4736 0.7553
H9_3 H 0.7967 0.5554 0.6814
C7_3 C 0.8625(2) 0.5413(2) 0.9268(5)
O7_2 O 0.4671(2) 0.84591(19) 0.8702(4)
H15_3 H 0.1668 0.9873 0.8787
H17_3 H 0.2758 0.9736 0.7553
O6_4 O 0.9671(2) 0.34591(19) 0.8702(4)
O8_4 O 0.9734(3) 0.2136(2) 0.9327(5)
N3_4 N 0.8422(2) 0.1765(2) 0.6755(5)
N4_4 N 0.7755(2) 0.0750(2) 0.7032(5)
C8_4 C 0.9432(3) 0.2732(3) 0.8447(6)
C9_4 C 0.8730(3) 0.2599(3) 0.6873(6)
H12_4 H 0.8879 0.2703 0.5939
H13_4 H 0.8322 0.2997 0.6817
C10_4 C 0.8702(3) 0.1073(3) 0.6282(8)
H14_4 H 0.9113 0.1049 0.5911
C11_4 C 0.8278(3) 0.0432(3) 0.6450(7)
C12_4 C 0.7850(3) 0.1558(3) 0.7203(6)
H16_4 H 0.7559 0.1922 0.7579
C13_4 C 0.7114(3) 0.0325(3) 0.7237(6)
H18_4 H 0.7033 0.0554 0.8186
C14_4 C 0.6375(2) 0.0413(2) 0.5732(5)
O2_4 O 0.4734(3) 0.7136(2) 0.9327(5)
N1_4 N 0.3422(2) 0.6765(2) 0.6755(5)
N2_4 N 0.2755(2) 0.5750(2) 0.7032(5)
C1_4 C 0.4432(3) 0.7732(3) 0.8447(6)
C2_4 C 0.3730(3) 0.7599(3) 0.6873(6)
H3_4 H 0.3879 0.7703 0.5939
H4_4 H 0.3322 0.7997 0.6817
C3_4 C 0.3702(3) 0.6073(3) 0.6282(8)
H5_4 H 0.4113 0.6049 0.5911
C4_4 C 0.3278(3) 0.5432(3) 0.6450(7)
H6_4 H 0.3332 0.4873 0.6213
C5_4 C 0.2850(3) 0.6558(3) 0.7203(6)
H7_4 H 0.2559 0.6922 0.7579
C6_4 C 0.2114(3) 0.5325(3) 0.7237(6)
H8_4 H 0.2242 0.4736 0.7447
H9_4 H 0.2033 0.5554 0.8186
C7_4 C 0.1375(2) 0.5413(2) 0.5732(5)
H15_4 H 0.8332 0.9873 0.6213
H17_4 H 0.7242 0.9736 0.7447
O16_4 O 0.0761(2) 0.6072(2) 0.8769(5)
H10_4 H 0.057(4) 0.624(4) 0.945(6)
H11_4 H 0.066(4) 0.641(3) 0.800(6)
O5_4 O 0.9239(2) 0.6072(2) 0.6231(5)
H1_4 H 0.943(4) 0.624(4) 0.555(6)
H2_4 H 0.934(4) 0.641(3) 0.700(6)
Cl1 Cl 0.6051(3) 0.7650(4) 0.1961(7)
Cl1_2 Cl 0.3949(3) 0.7650(4) 0.3039(7)
Cl1_3 Cl 0.1051(3) 0.2650(4) 0.1961(7)
Cl1_4 Cl 0.8949(3) 0.2650(4) 0.3039(7)
Cl1_5 Cl 0.3949(3) 0.2350(4) 0.8039(7)
Cl1_6 Cl 0.6051(3) 0.2350(4) 0.6961(7)
Cl1_7 Cl 0.8949(3) 0.7350(4) 0.8039(7)
Cl1_8 Cl 0.1051(3) 0.7350(4) 0.6961(7)
loop_
_geom_bond_atom_site_label_1
_geom_bond_atom_site_label_2
_geom_bond_site_symmetry_1
_geom_bond_site_symmetry_2
La1 O1 1_555 1_555
O1 C1 1_555 1_555
O2 C1 1_555 1_555
O3 C7 1_555 1_555
N1 C2 1_555 1_555
N2 C4 1_555 1_555
C1 C2 1_555 1_555
C2 H3 1_555 1_555
H4 C2 1_555 1_555
C3 N1 1_555 1_555
H5 C3 1_555 1_555
C4 C3 1_555 1_555
H6 C4 1_555 1_555
C5 N1 1_555 1_555
H7 C5 1_555 1_555
C6 N2 1_555 1_555
H8 C6 1_555 1_555
H9 C6 1_555 1_555
C7 C6 1_555 1_555
La4 O3 1_555 1_555
O7 La1 1_555 1_555
O12 La1 1_555 1_555
O14 La1 1_555 1_555
O15 La1 1_555 1_555
N2 C5 1_555 1_555
O4 La3 1_555 1_555
H1 O5 1_555 1_555
H2 O5 1_555 1_555
La4_2 O6 1_555 1_555
O6 C8 1_555 1_555
O8 C8 1_555 1_555
H10 O16 1_555 1_555
H11 O16 1_555 1_555
N3 C9 1_555 1_555
N4 C11 1_555 1_555
C8 C9 1_555 1_555
C9 H12 1_555 1_555
H13 C9 1_555 1_555
C10 N3 1_555 1_555
H14 C10 1_555 1_555
C11 C10 1_555 1_555
C12 N3 1_555 1_555
H16 C12 1_555 1_555
C13 N4 1_555 1_555
H18 C13 1_555 1_555
C14 O9 1_555 1_555
N4 C12 1_555 1_555
C13 C14 1_555 1_555
O13 La5 1_555 1_555
O7 C1_2 1_555 1_555
O2_2 C1_2 1_555 1_555
O3_2 C7_2 1_555 1_555
O4_2 C7_2 1_555 1_555
N1_2 C2_2 1_555 1_555
N2_2 C4_2 1_555 1_555
C1_2 C2_2 1_555 1_555
C2_2 H3_2 1_555 1_555
H4_2 C2_2 1_555 1_555
C3_2 N1_2 1_555 1_555
H5_2 C3_2 1_555 1_555
C4_2 C3_2 1_555 1_555
H6_2 C4_2 1_555 1_555
C5_2 N1_2 1_555 1_555
H7_2 C5_2 1_555 1_555
C6_2 N2_2 1_555 1_555
H8_2 C6_2 1_555 1_555
H9_2 C6_2 1_555 1_555
C7_2 C6_2 1_555 1_555
La4_2 O3_2 1_555 1_555
La3_2 O3_2 1_555 1_555
O4_2 La3_2 1_555 1_555
N2_2 C5_2 1_555 1_555
La4 O6_2 1_555 1_555
La5 O10 1_555 1_555
O6_2 C8_2 1_555 1_555
O8_2 C8_2 1_555 1_555
O13_2 La5 1_555 1_555
N3_2 C9_2 1_555 1_555
N4_2 C11_2 1_555 1_555
C8_2 C9_2 1_555 1_555
C9_2 H12_2 1_555 1_555
H13_2 C9_2 1_555 1_555
C10_2 N3_2 1_555 1_555
H14_2 C10_2 1_555 1_555
C11_2 C10_2 1_555 1_555
C12_2 N3_2 1_555 1_555
H16_2 C12_2 1_555 1_555
C13_2 N4_2 1_555 1_555
H18_2 C13_2 1_555 1_555
C14_2 O10 1_555 1_555
O13_2 C14_2 1_555 1_555
N4_2 C12_2 1_555 1_555
C13_2 C14_2 1_555 1_555
O5_2 La4 1_555 1_555
H1_2 O5_2 1_555 1_555
H2_2 O5_2 1_555 1_555
O12_2 La4 1_555 1_555
O14_2 La4 1_555 1_555
O15_2 La4_2 1_555 1_555
O16_2 La4_2 1_555 1_555
H10_2 O16_2 1_555 1_555
H11_2 O16_2 1_555 1_555
La3_2 O11_2 1_555 1_555
La3 O12_2 1_555 1_555
H1_3 O5_3 1_555 1_555
H2_3 O5_3 1_555 1_555
La3 O6_3 1_555 1_555
O6_3 C8_3 1_555 1_555
O8_3 C8_3 1_555 1_555
H10_3 O16_3 1_555 1_555
H11_3 O16_3 1_555 1_555
N3_3 C9_3 1_555 1_555
N4_3 C11_3 1_555 1_555
C8_3 C9_3 1_555 1_555
C9_3 H12_3 1_555 1_555
H13_3 C9_3 1_555 1_555
C10_3 N3_3 1_555 1_555
H14_3 C10_3 1_555 1_555
C11_3 C10_3 1_555 1_555
C12_3 N3_3 1_555 1_555
H16_3 C12_3 1_555 1_555
C13_3 N4_3 1_555 1_555
H18_3 C13_3 1_555 1_555
C14_3 O11 1_555 1_555
N4_3 C12_3 1_555 1_555
C13_3 C14_3 1_555 1_555
La5 O1_2 1_555 1_555
O1_2 C1_3 1_555 1_555
O2_3 C1_3 1_555 1_555
O11_2 C7_3 1_555 1_555
N1_3 C2_3 1_555 1_555
N2_3 C4_3 1_555 1_555
C1_3 C2_3 1_555 1_555
C2_3 H3_3 1_555 1_555
H4_3 C2_3 1_555 1_555
C3_3 N1_3 1_555 1_555
H5_3 C3_3 1_555 1_555
C4_3 C3_3 1_555 1_555
H6_3 C4_3 1_555 1_555
C5_3 N1_3 1_555 1_555
H7_3 C5_3 1_555 1_555
C6_3 N2_3 1_555 1_555
H8_3 C6_3 1_555 1_555
H9_3 C6_3 1_555 1_555
C7_3 C6_3 1_555 1_555
O7_2 La5 1_555 1_555
N2_3 C5_3 1_555 1_555
La3_2 O6_4 1_555 1_555
O6_4 C8_4 1_555 1_555
O8_4 C8_4 1_555 1_555
N3_4 C9_4 1_555 1_555
N4_4 C11_4 1_555 1_555
C8_4 C9_4 1_555 1_555
C9_4 H12_4 1_555 1_555
H13_4 C9_4 1_555 1_555
C10_4 N3_4 1_555 1_555
H14_4 C10_4 1_555 1_555
C11_4 C10_4 1_555 1_555
C12_4 N3_4 1_555 1_555
H16_4 C12_4 1_555 1_555
C13_4 N4_4 1_555 1_555
H18_4 C13_4 1_555 1_555
C14_4 O12 1_555 1_555
O14 C14_4 1_555 1_555
N4_4 C12_4 1_555 1_555
C13_4 C14_4 1_555 1_555
O7_2 C1_4 1_555 1_555
O2_4 C1_4 1_555 1_555
O12_2 C7_4 1_555 1_555
O14_2 C7_4 1_555 1_555
N1_4 C2_4 1_555 1_555
N2_4 C4_4 1_555 1_555
C1_4 C2_4 1_555 1_555
C2_4 H3_4 1_555 1_555
H4_4 C2_4 1_555 1_555
C3_4 N1_4 1_555 1_555
H5_4 C3_4 1_555 1_555
C4_4 C3_4 1_555 1_555
H6_4 C4_4 1_555 1_555
C5_4 N1_4 1_555 1_555
H7_4 C5_4 1_555 1_555
C6_4 N2_4 1_555 1_555
H8_4 C6_4 1_555 1_555
H9_4 C6_4 1_555 1_555
C7_4 C6_4 1_555 1_555
N2_4 C5_4 1_555 1_555
O16_4 La3 1_555 1_555
H10_4 O16_4 1_555 1_555
H11_4 O16_4 1_555 1_555
O5_4 La3_2 1_555 1_555
H1_4 O5_4 1_555 1_555
H2_4 O5_4 1_555 1_555

#END
