
###############################################################################
#
# This file contains modified crystal structure data generated from the
# MOF subset of the Cambridge Structural Database (CSD) v543 
# hosted by the Cambridge Crystallographic Data Centre (CCDC).
#
# This work is licensed under the Creative Commons
# Attribution-NonCommercial-ShareAlike 4.0 International License.
# To view a copy of this license, visit
# http://creativecommons.org/licenses/by-nc-sa/4.0/
# or send a letter to
# Creative Commons, PO Box 1866, Mountain View, CA 94042, USA.
#
# CIF created using the CSD Python API on 29 September 2022
# The structure has been converted into the P1 space group
# The structure has a 3D framework
# The original CSD entry PUPXII01 is in the orthorhombic crystal system
# The framework has been calculated to contain at least 10.0% void space
# The void calculation uses a probe of radius 1.32A, grid spacing 0.4
#
###############################################################################

data_PUPXII01
_chemical_formula_moiety         '(C40 H28 Mn2 N12 O20)n'
_symmetry_cell_setting           triclinic
_symmetry_space_group_name_H-M   'P 1'
_symmetry_Int_Tables_number      1
_space_group_name_Hall           'P 1'
loop_
_symmetry_equiv_pos_site_id
_symmetry_equiv_pos_as_xyz
1 x,y,z
_cell_length_a                   7.8401(5)
_cell_length_b                   10.3176(7)
_cell_length_c                   15.8809(11)
_cell_angle_alpha                90
_cell_angle_beta                 90
_cell_angle_gamma                90
_cell_volume                     1284.62
loop_
_atom_site_label
_atom_site_type_symbol
_atom_site_fract_x
_atom_site_fract_y
_atom_site_fract_z
Mn3 Mn 0.14426(4) 0.52704(3) 0.96966(3)
Mn1 Mn 0.35574(4) 0.02704(3) 0.46966(3)
H4 H 0.4491 0.0810 0.2824
O6 O 0.1501(2) 0.1407(2) 0.42261(14)
O7 O 0.5339(3) 0.16380(19) 0.41519(11)
N4 N 0.3166(3) 0.2009(2) 0.56908(14)
O1 O 0.8499(2) 0.8593(2) 0.92261(14)
O3 O 0.9661(3) 0.66380(19) 0.91519(11)
C10 C 0.8676(3) 0.7443(3) 0.94821(16)
Mn2 Mn 0.64426(4) 0.97296(3) 0.96966(3)
O3_2 O 0.0339(3) 0.33620(19) 0.41519(11)
O4 O 0.0681(2) 0.57733(17) 0.51617(15)
O5 O 0.3343(2) 0.6353(2) 0.54215(17)
N1 N 0.6158(3) 0.0759(2) 0.84353(16)
N3 N 0.3698(2) 0.3924(2) 0.62522(15)
H3 H 0.4121 0.4500 0.6583
C1 C 0.5496(4) 0.0090(3) 0.7794(2)
C2 C 0.4796(4) 0.0661(3) 0.70903(18)
H5 H 0.4328 0.0154 0.6664
C3 C 0.4797(3) 0.2002(2) 0.70250(17)
C4 C 0.5539(4) 0.2699(3) 0.76744(19)
H6 H 0.5600 0.3598 0.7647
C5 C 0.6185(4) 0.2050(3) 0.8361(2)
H7 H 0.6665 0.2533 0.8795
C6 C 0.3931(3) 0.2626(3) 0.63149(18)
C7 C 0.2341(3) 0.2954(2) 0.52278(16)
C8 C 0.2678(3) 0.4157(2) 0.55765(16)
C9 C 0.2184(3) 0.5531(2) 0.53549(17)
C10_2 C 0.1324(3) 0.2557(3) 0.44821(16)
H4_2 H 0.5509 0.9190 0.7824
O7_2 O 0.4661(3) 0.83620(19) 0.91519(11)
Mn3_2 Mn 0.85574(4) 0.47296(3) 0.46966(3)
N2 N 0.1834(3) 0.7009(2) 0.06908(14)
N3_2 N 0.1302(2) 0.8924(2) 0.12522(15)
H3_2 H 0.0879 0.9500 0.1583
C2_2 C 0.0204(4) 0.5661(3) 0.20903(18)
H5_2 H 0.0672 0.5154 0.1664
C3_2 C 0.0203(3) 0.7002(2) 0.20250(17)
C6_2 C 0.1069(3) 0.7626(3) 0.13149(18)
C7_2 C 0.2659(3) 0.7954(2) 0.02278(16)
C8_2 C 0.2322(3) 0.9157(2) 0.05765(16)
O1_2 O 0.3499(2) 0.6407(2) 0.92261(14)
C10_3 C 0.3676(3) 0.7557(3) 0.94821(16)
O2 O 0.6930(3) 0.61960(19) 0.52442(16)
H1 H 0.733(5) 0.6964(17) 0.523(3)
H2 H 0.5833(14) 0.623(4) 0.523(3)
N1_2 N 0.8842(3) 0.5759(2) 0.34353(16)
C1_2 C 0.9504(4) 0.5090(3) 0.2794(2)
H4_3 H 0.9491 0.4190 0.2824
C4_2 C 0.9461(4) 0.7699(3) 0.26744(19)
H6_2 H 0.9400 0.8598 0.2647
C5_2 C 0.8815(4) 0.7050(3) 0.3361(2)
H7_2 H 0.8335 0.7533 0.3795
O6_2 O 0.6501(2) 0.3593(2) 0.42261(14)
N4_2 N 0.8166(3) 0.2991(2) 0.56908(14)
O2_2 O 0.3070(3) 0.38040(19) 0.02442(16)
H1_2 H 0.267(5) 0.3036(17) 0.023(3)
H2_2 H 0.4167(14) 0.377(4) 0.023(3)
N1_3 N 0.1158(3) 0.4241(2) 0.84353(16)
C1_3 C 0.0496(4) 0.4910(3) 0.7794(2)
H4_4 H 0.0509 0.5810 0.7824
C4_3 C 0.0539(4) 0.2301(3) 0.76744(19)
H6_3 H 0.0600 0.1402 0.7647
C5_3 C 0.1185(4) 0.2950(3) 0.8361(2)
H7_3 H 0.1665 0.2467 0.8795
N3_3 N 0.8698(2) 0.1076(2) 0.62522(15)
H3_3 H 0.9121 0.0500 0.6583
C2_3 C 0.9796(4) 0.4339(3) 0.70903(18)
H5_3 H 0.9328 0.4846 0.6664
C3_3 C 0.9797(3) 0.2998(2) 0.70250(17)
C6_3 C 0.8931(3) 0.2374(3) 0.63149(18)
C7_3 C 0.7341(3) 0.2046(2) 0.52278(16)
C8_3 C 0.7678(3) 0.0843(2) 0.55765(16)
C10_4 C 0.6324(3) 0.2443(3) 0.44821(16)
O2_3 O 0.1930(3) 0.88040(19) 0.52442(16)
H1_3 H 0.233(5) 0.8036(17) 0.523(3)
H2_3 H 0.0833(14) 0.877(4) 0.523(3)
O4_2 O 0.9319(2) 0.42267(17) 0.01617(15)
O5_2 O 0.6657(2) 0.3647(2) 0.04215(17)
N1_4 N 0.3842(3) 0.9241(2) 0.34353(16)
N2_2 N 0.6834(3) 0.7991(2) 0.06908(14)
N3_4 N 0.6302(2) 0.6076(2) 0.12522(15)
H3_4 H 0.5879 0.5500 0.1583
C1_4 C 0.4504(4) 0.9910(3) 0.2794(2)
C2_4 C 0.5204(4) 0.9339(3) 0.20903(18)
H5_4 H 0.5672 0.9846 0.1664
C3_4 C 0.5203(3) 0.7998(2) 0.20250(17)
C4_4 C 0.4461(4) 0.7301(3) 0.26744(19)
H6_4 H 0.4400 0.6402 0.2647
C5_4 C 0.3815(4) 0.7950(3) 0.3361(2)
H7_4 H 0.3335 0.7467 0.3795
C6_4 C 0.6069(3) 0.7374(3) 0.13149(18)
C7_4 C 0.7659(3) 0.7046(2) 0.02278(16)
C8_4 C 0.7322(3) 0.5843(2) 0.05765(16)
C9_2 C 0.7816(3) 0.4469(2) 0.03549(17)
O8 O 0.5681(2) 0.92267(17) 0.51617(15)
O5_3 O 0.8343(2) 0.8647(2) 0.54215(17)
C9_3 C 0.7184(3) 0.9469(2) 0.53549(17)
O2_4 O 0.8070(3) 0.11960(19) 0.02442(16)
H1_4 H 0.767(5) 0.1964(17) 0.023(3)
H2_4 H 0.9167(14) 0.123(4) 0.023(3)
O8_2 O 0.4319(2) 0.07733(17) 0.01617(15)
O5_4 O 0.1657(2) 0.1353(2) 0.04215(17)
C9_4 C 0.2816(3) 0.0531(2) 0.03549(17)
loop_
_geom_bond_atom_site_label_1
_geom_bond_atom_site_label_2
_geom_bond_site_symmetry_1
_geom_bond_site_symmetry_2
O6 Mn1 1_555 1_555
O7 Mn1 1_555 1_555
N4 Mn1 1_555 1_555
O1 C10 1_555 1_555
O3 C10 1_555 1_555
Mn2 O1 1_555 1_555
O6 C10_2 1_555 1_555
O3_2 C10_2 1_555 1_555
O4 C9 1_555 1_555
O5 C9 1_555 1_555
N4 C6 1_555 1_555
N3 H3 1_555 1_555
C1 N1 1_555 1_555
C2 C1 1_555 1_555
H5 C2 1_555 1_555
C3 C2 1_555 1_555
C4 C3 1_555 1_555
H6 C4 1_555 1_555
C5 N1 1_555 1_555
H7 C5 1_555 1_555
C6 N3 1_555 1_555
C7 N4 1_555 1_555
C8 N3 1_555 1_555
C9 C8 1_555 1_555
C10_2 C7 1_555 1_555
C3 C6 1_555 1_555
C4 C5 1_555 1_555
C7 C8 1_555 1_555
O7_2 Mn2 1_555 1_555
N2 C6_2 1_555 1_555
N3_2 H3_2 1_555 1_555
H5_2 C2_2 1_555 1_555
C3_2 C2_2 1_555 1_555
C6_2 N3_2 1_555 1_555
C7_2 N2 1_555 1_555
C8_2 N3_2 1_555 1_555
C3_2 C6_2 1_555 1_555
C7_2 C8_2 1_555 1_555
O1_2 C10_3 1_555 1_555
O7_2 C10_3 1_555 1_555
Mn3 O1_2 1_555 1_555
Mn3_2 O2 1_555 1_555
O2 H1 1_555 1_555
H2 O2 1_555 1_555
N1_2 Mn3_2 1_555 1_555
C1_2 N1_2 1_555 1_555
H4_3 C1_2 1_555 1_555
H6_2 C4_2 1_555 1_555
C5_2 N1_2 1_555 1_555
H7_2 C5_2 1_555 1_555
O6_2 Mn3_2 1_555 1_555
N4_2 Mn3_2 1_555 1_555
C4_2 C5_2 1_555 1_555
O2_2 H1_2 1_555 1_555
H2_2 O2_2 1_555 1_555
N1_3 Mn3 1_555 1_555
C1_3 N1_3 1_555 1_555
H4_4 C1_3 1_555 1_555
H6_3 C4_3 1_555 1_555
C5_3 N1_3 1_555 1_555
H7_3 C5_3 1_555 1_555
C4_3 C5_3 1_555 1_555
O6_2 C10_4 1_555 1_555
O7 C10_4 1_555 1_555
N4_2 C6_3 1_555 1_555
N3_3 H3_3 1_555 1_555
H5_3 C2_3 1_555 1_555
C3_3 C2_3 1_555 1_555
C6_3 N3_3 1_555 1_555
C7_3 N4_2 1_555 1_555
C8_3 N3_3 1_555 1_555
C10_4 C7_3 1_555 1_555
C3_3 C6_3 1_555 1_555
C7_3 C8_3 1_555 1_555
O2_3 H1_3 1_555 1_555
H2_3 O2_3 1_555 1_555
O4_2 C9_2 1_555 1_555
O5_2 C9_2 1_555 1_555
N2_2 C6_4 1_555 1_555
N3_4 H3_4 1_555 1_555
C1_4 N1_4 1_555 1_555
C2_4 C1_4 1_555 1_555
H5_4 C2_4 1_555 1_555
C3_4 C2_4 1_555 1_555
C4_4 C3_4 1_555 1_555
H6_4 C4_4 1_555 1_555
C5_4 N1_4 1_555 1_555
H7_4 C5_4 1_555 1_555
C6_4 N3_4 1_555 1_555
C7_4 N2_2 1_555 1_555
C8_4 N3_4 1_555 1_555
C9_2 C8_4 1_555 1_555
C3_4 C6_4 1_555 1_555
C4_4 C5_4 1_555 1_555
C7_4 C8_4 1_555 1_555
O8 C9_3 1_555 1_555
O5_3 C9_3 1_555 1_555
O2_4 H1_4 1_555 1_555
H2_4 O2_4 1_555 1_555
O8_2 C9_4 1_555 1_555
O5_4 C9_4 1_555 1_555

#END
