
###############################################################################
#
# This file contains modified crystal structure data generated from the
# MOF subset of the Cambridge Structural Database (CSD) v543 
# hosted by the Cambridge Crystallographic Data Centre (CCDC).
#
# This work is licensed under the Creative Commons
# Attribution-NonCommercial-ShareAlike 4.0 International License.
# To view a copy of this license, visit
# http://creativecommons.org/licenses/by-nc-sa/4.0/
# or send a letter to
# Creative Commons, PO Box 1866, Mountain View, CA 94042, USA.
#
# CIF created using the CSD Python API on 29 September 2022
# The structure has been converted into the P1 space group
# The structure has a 3D framework
# The original CSD entry PUPXII is in the monoclinic crystal system
# The framework has been calculated to contain at least 10.0% void space
# The void calculation uses a probe of radius 1.32A, grid spacing 0.4
#
###############################################################################

data_PUPXII
_chemical_formula_moiety         '(C40 H28 Mn4 N12 O20)n'
_symmetry_cell_setting           triclinic
_symmetry_space_group_name_H-M   'P 1'
_symmetry_Int_Tables_number      1
_space_group_name_Hall           'P 1'
loop_
_symmetry_equiv_pos_site_id
_symmetry_equiv_pos_as_xyz
1 x,y,z
_cell_length_a                   16.269(3)
_cell_length_b                   10.545(2)
_cell_length_c                   7.7563(16)
_cell_angle_alpha                90
_cell_angle_beta                 101.11(3)
_cell_angle_gamma                90
_cell_volume                     1305.71
loop_
_atom_site_label
_atom_site_type_symbol
_atom_site_fract_x
_atom_site_fract_y
_atom_site_fract_z
C1 C 0.1915(3) 0.5139(4) 0.7037(6)
C2 C 0.1164(3) 0.5529(4) 0.5678(6)
C3 C 0.1006(4) 0.8070(5) 0.5794(6)
C4 C 0.0803(3) 0.6718(5) 0.5181(6)
C10 C 0.0074(3) 0.5170(5) 0.3612(6)
Mn1 Mn 0.16670(6) 0.27884(6) 0.47499(8)
N1 N 0.0705(3) 0.4575(4) 0.4655(5)
N2 N 0.0116(3) 0.6464(4) 0.3888(5)
O1 O 0.2121(2) 0.3991(3) 0.7025(5)
O2 O 0.2292(2) 0.5970(3) 0.8088(5)
O3 O 0.1256(3) 0.8285(3) 0.7409(5)
O4 O 0.0881(3) 0.8902(4) 0.4595(5)
O5 O 0.0994(3) 0.1381(3) 0.6010(5)
H6 H 0.1305 0.0602 0.6142
H7 H 0.0934 0.1687 0.7145
Mn3 Mn 0.16670(6) 0.72116(6) 0.97499(8)
N4 N 0.2925(3) 0.1754(5) 0.5626(7)
O6 O 0.2292(2) 0.4030(3) 0.3088(5)
O7 O 0.1256(3) 0.1715(3) 0.2409(5)
H2 H 0.7571 0.4965 0.9826
Mn2 Mn 0.66670(6) 0.22116(6) 0.97499(8)
C1_2 C 0.1915(3) 0.4861(4) 0.2037(6)
C2_2 C 0.1164(3) 0.4471(4) 0.0678(6)
C3_2 C 0.1006(4) 0.1930(5) 0.0794(6)
C4_2 C 0.0803(3) 0.3282(5) 0.0181(6)
O1_2 O 0.2121(2) 0.6009(3) 0.2025(5)
O5_2 O 0.0994(3) 0.8619(3) 0.1010(5)
H6_2 H 0.1305 0.9398 0.1142
H7_2 H 0.0934 0.8313 0.2145
N4_2 N 0.2925(3) 0.8246(5) 0.0626(7)
C10_2 C 0.0074(3) 0.4830(5) 0.8612(6)
N1_2 N 0.0705(3) 0.5425(4) 0.9655(5)
N2_2 N 0.0116(3) 0.3536(4) 0.8888(5)
O4_2 O 0.0881(3) 0.1098(4) 0.9595(5)
C5 C 0.8696(3) 0.4805(5) 0.6428(7)
H1 H 0.8725 0.3928 0.6324
C6 C 0.8001(4) 0.5485(6) 0.5527(8)
H2_2 H 0.7571 0.5035 0.4826
C7 C 0.8575(4) 0.7391(6) 0.6617(8)
H3 H 0.8541 0.8271 0.6660
C8 C 0.9283(3) 0.6813(5) 0.7565(7)
H4 H 0.9706 0.7293 0.8238
C9 C 0.9350(3) 0.5485(5) 0.7493(7)
H5 H 0.9771 0.2983 0.8345
N3 N 0.7925(3) 0.6754(5) 0.5626(7)
Mn2_2 Mn 0.66670(6) 0.77884(6) 0.47499(8)
C1_3 C 0.6915(3) 0.0139(4) 0.7037(6)
C2_3 C 0.6164(3) 0.0529(4) 0.5678(6)
C3_3 C 0.6006(4) 0.3070(5) 0.5794(6)
C4_3 C 0.5803(3) 0.1718(5) 0.5181(6)
C5_2 C 0.3696(3) 0.0195(5) 0.1428(7)
H1_2 H 0.3725 0.1072 0.1324
C10_3 C 0.5074(3) 0.0170(5) 0.3612(6)
N2_3 N 0.5116(3) 0.1464(4) 0.3888(5)
H5_2 H 0.4771 0.2017 0.3345
O2_2 O 0.7292(2) 0.0970(3) 0.8088(5)
O3_2 O 0.6256(3) 0.3285(3) 0.7409(5)
O4_3 O 0.5881(3) 0.3902(4) 0.4595(5)
C6_2 C 0.3001(4) 0.9515(6) 0.0527(8)
C7_2 C 0.3575(4) 0.7609(6) 0.1617(8)
H3_2 H 0.3541 0.6729 0.1660
C8_2 C 0.4283(3) 0.8187(5) 0.2565(7)
H4_2 H 0.4706 0.7707 0.3238
C9_2 C 0.4350(3) 0.9515(5) 0.2493(7)
N1_3 N 0.5705(3) 0.9575(4) 0.4655(5)
O1_3 O 0.7121(2) 0.8991(3) 0.7025(5)
O5_3 O 0.5994(3) 0.6381(3) 0.6010(5)
H6_3 H 0.6305 0.5602 0.6142
H7_3 H 0.5934 0.6687 0.7145
O6_2 O 0.7292(2) 0.9030(3) 0.3088(5)
O7_2 O 0.6256(3) 0.6715(3) 0.2409(5)
H2_3 H 0.2571 0.9965 0.9826
C6_3 C 0.3001(4) 0.0485(6) 0.5527(8)
H2_4 H 0.2571 0.0035 0.4826
C7_3 C 0.3575(4) 0.2391(6) 0.6617(8)
H3_3 H 0.3541 0.3271 0.6660
C8_3 C 0.4283(3) 0.1813(5) 0.7565(7)
H4_3 H 0.4706 0.2293 0.8238
C9_3 C 0.4350(3) 0.0485(5) 0.7493(7)
N1_4 N 0.5705(3) 0.0425(4) 0.9655(5)
C1_4 C 0.6915(3) 0.9861(4) 0.2037(6)
C2_4 C 0.6164(3) 0.9471(4) 0.0678(6)
C3_4 C 0.6006(4) 0.6930(5) 0.0794(6)
C4_4 C 0.5803(3) 0.8282(5) 0.0181(6)
C5_3 C 0.8696(3) 0.5195(5) 0.1428(7)
H1_3 H 0.8725 0.6072 0.1324
C6_4 C 0.8001(4) 0.4515(6) 0.0527(8)
C7_4 C 0.8575(4) 0.2609(6) 0.1617(8)
H3_4 H 0.8541 0.1729 0.1660
C8_4 C 0.9283(3) 0.3187(5) 0.2565(7)
H4_4 H 0.9706 0.2707 0.3238
C9_4 C 0.9350(3) 0.4515(5) 0.2493(7)
H5_3 H 0.9771 0.7017 0.3345
N3_2 N 0.7925(3) 0.3246(5) 0.0626(7)
O1_4 O 0.7121(2) 0.1009(3) 0.2025(5)
O5_4 O 0.5994(3) 0.3619(3) 0.1010(5)
H6_4 H 0.6305 0.4398 0.1142
H7_4 H 0.5934 0.3313 0.2145
C5_4 C 0.3696(3) 0.9805(5) 0.6428(7)
H1_4 H 0.3725 0.8928 0.6324
C10_4 C 0.5074(3) 0.9830(5) 0.8612(6)
N2_4 N 0.5116(3) 0.8536(4) 0.8888(5)
H5_4 H 0.4771 0.7983 0.8345
O4_4 O 0.5881(3) 0.6098(4) 0.9595(5)
loop_
_geom_bond_atom_site_label_1
_geom_bond_atom_site_label_2
_geom_bond_site_symmetry_1
_geom_bond_site_symmetry_2
C1 C2 1_555 1_555
C2 C4 1_555 1_555
C3 C4 1_555 1_555
C4 N2 1_555 1_555
Mn1 N1 1_555 1_555
N1 C2 1_555 1_555
N2 C10 1_555 1_555
O1 C1 1_555 1_555
O2 C1 1_555 1_555
O3 C3 1_555 1_555
O4 C3 1_555 1_555
O5 Mn1 1_555 1_555
H6 O5 1_555 1_555
H7 O5 1_555 1_555
Mn3 O2 1_555 1_555
N4 Mn1 1_555 1_555
O6 Mn1 1_555 1_555
O7 Mn1 1_555 1_555
C10 N1 1_555 1_555
Mn1 O1 1_555 1_555
O3 Mn3 1_555 1_555
C1_2 C2_2 1_555 1_555
C2_2 C4_2 1_555 1_555
C3_2 C4_2 1_555 1_555
O1_2 C1_2 1_555 1_555
O6 C1_2 1_555 1_555
O7 C3_2 1_555 1_555
H6_2 O5_2 1_555 1_555
H7_2 O5_2 1_555 1_555
Mn3 N1_2 1_555 1_555
N2_2 C10_2 1_555 1_555
C10_2 N1_2 1_555 1_555
C5 H1 1_555 1_555
C6 C5 1_555 1_555
H2_2 C6 1_555 1_555
C7 H3 1_555 1_555
C8 C7 1_555 1_555
H4 C8 1_555 1_555
C9 C5 1_555 1_555
N3 C6 1_555 1_555
Mn2_2 N3 1_555 1_555
C7 N3 1_555 1_555
C8 C9 1_555 1_555
C1_3 C2_3 1_555 1_555
C2_3 C4_3 1_555 1_555
C3_3 C4_3 1_555 1_555
C4_3 N2_3 1_555 1_555
C5_2 H1_2 1_555 1_555
N2_3 C10_3 1_555 1_555
H5_2 N2_3 1_555 1_555
O2_2 C1_3 1_555 1_555
O3_2 C3_3 1_555 1_555
O4_3 C3_3 1_555 1_555
Mn2 O2_2 1_555 1_555
O3_2 Mn2 1_555 1_555
C7_2 H3_2 1_555 1_555
C8_2 C7_2 1_555 1_555
H4_2 C8_2 1_555 1_555
Mn2_2 N1_3 1_555 1_555
N4_2 C6_2 1_555 1_555
O5_3 Mn2_2 1_555 1_555
H6_3 O5_3 1_555 1_555
H7_3 O5_3 1_555 1_555
O6_2 Mn2_2 1_555 1_555
O7_2 Mn2_2 1_555 1_555
C7_2 N4_2 1_555 1_555
C8_2 C9_2 1_555 1_555
Mn2_2 O1_3 1_555 1_555
H2_4 C6_3 1_555 1_555
C7_3 H3_3 1_555 1_555
C8_3 C7_3 1_555 1_555
H4_3 C8_3 1_555 1_555
Mn2 N1_4 1_555 1_555
N4 C6_3 1_555 1_555
C7_3 N4 1_555 1_555
C8_3 C9_3 1_555 1_555
C1_4 C2_4 1_555 1_555
C2_4 C4_4 1_555 1_555
C3_4 C4_4 1_555 1_555
O6_2 C1_4 1_555 1_555
O7_2 C3_4 1_555 1_555
C5_3 H1_3 1_555 1_555
C6_4 C5_3 1_555 1_555
C7_4 H3_4 1_555 1_555
C8_4 C7_4 1_555 1_555
H4_4 C8_4 1_555 1_555
C9_4 C5_3 1_555 1_555
N3_2 C6_4 1_555 1_555
C7_4 N3_2 1_555 1_555
C8_4 C9_4 1_555 1_555
H6_4 O5_4 1_555 1_555
H7_4 O5_4 1_555 1_555
C5_4 H1_4 1_555 1_555
N2_4 C10_4 1_555 1_555
H5_4 N2_4 1_555 1_555

#END
