
###############################################################################
#
# This file contains modified crystal structure data generated from the
# MOF subset of the Cambridge Structural Database (CSD) v543 
# hosted by the Cambridge Crystallographic Data Centre (CCDC).
#
# This work is licensed under the Creative Commons
# Attribution-NonCommercial-ShareAlike 4.0 International License.
# To view a copy of this license, visit
# http://creativecommons.org/licenses/by-nc-sa/4.0/
# or send a letter to
# Creative Commons, PO Box 1866, Mountain View, CA 94042, USA.
#
# CIF created using the CSD Python API on 29 September 2022
# The structure has been converted into the P1 space group
# The structure has a 3D framework
# The original CSD entry PUQHEP is in the triclinic crystal system
# The framework has been calculated to contain at least 10.0% void space
# The void calculation uses a probe of radius 1.32A, grid spacing 0.4
#
###############################################################################

data_PUQHEP
_chemical_formula_moiety         '(C44 H32 Co2 N4 O14)n'
_symmetry_cell_setting           triclinic
_symmetry_space_group_name_H-M   'P 1'
_symmetry_Int_Tables_number      1
_space_group_name_Hall           'P 1'
loop_
_symmetry_equiv_pos_site_id
_symmetry_equiv_pos_as_xyz
1 x,y,z
_cell_length_a                   9.8385(11)
_cell_length_b                   11.0629(13)
_cell_length_c                   13.5398(16)
_cell_angle_alpha                66.610(2)
_cell_angle_beta                 85.898(2)
_cell_angle_gamma                69.717(2)
_cell_volume                     1264.98
loop_
_atom_site_label
_atom_site_type_symbol
_atom_site_fract_x
_atom_site_fract_y
_atom_site_fract_z
O1 O 0.1358(5) 0.1596(5) 0.1467(4)
O2 O 0.2099(5) 0.1086(5) 0.0035(4)
O7 O 0.1097(6) 0.6453(5) 0.1182(4)
C1 C 0.1887(7) 0.1847(7) 0.0558(6)
C2 C 0.2285(7) 0.3133(7) 0.0054(6)
C7 C 0.1783(7) 0.4192(7) 0.0440(6)
H4 H 0.1215 0.4087 0.1046
C10 C 0.1546(7) 0.6643(7) 0.0262(6)
Co4 Co 0.82947(10) 0.05518(9) 0.01434(7)
Co1 Co 0.10743(10) 0.97677(10) 0.20252(7)
O8 O 0.0225(5) 0.9206(5) 0.1096(3)
H1 H 0.0421 0.8280 0.1293
C21 C 0.0024(11) 0.8576(11) 0.4171(7)
H15 H 0.0809 0.7759 0.4206
O9 O 0.2950(5) 0.8200(5) 0.2593(4)
O10 O 0.3453(5) 0.7943(5) 0.1023(4)
C11 C 0.2895(9) 0.0913(8) 0.7725(6)
H7 H 0.2077 0.1707 0.7688
C12 C 0.3790(9) 0.1064(9) 0.6896(6)
H8 H 0.3581 0.1949 0.6305
C16 C 0.5914(10) 0.0200(13) 0.5996(9)
H11 H 0.5581 0.1084 0.5401
C19 C 0.7824(10) 0.0867(14) 0.4108(11)
H13 H 0.7053 0.1688 0.4083
C20 C 0.8778(9) 0.0921(11) 0.3257(8)
H14 H 0.8641 0.1784 0.2655
N1 N 0.6887(6) 0.0296(6) 0.1415(5)
N2 N 0.0134(6) 0.0244(7) 0.6694(5)
C13 C 0.5011(9) 0.0053(11) 0.3090(7)
C14 C 0.4769(8) 0.1314(10) 0.2208(6)
H9 H 0.3956 0.2118 0.2160
C15 C 0.5720(8) 0.1397(9) 0.1393(6)
H10 H 0.5537 0.2270 0.0794
C17 C 0.2848(11) 0.0707(12) 0.4047(9)
H12 H 0.2492 0.1579 0.3444
C18 C 0.1942(13) 0.0447(14) 0.5007(8)
C22 C 0.0837(12) 0.1561(15) 0.4997(9)
H16 H 0.0652 0.2446 0.4410
O11 O 0.8410(5) 0.2203(5) 0.0429(4)
O3 O 0.5541(6) 0.5344(5) 0.2112(4)
C3 C 0.6819(8) 0.6764(7) 0.0790(6)
H2 H 0.6474 0.7499 0.1040
C4 C 0.6429(8) 0.5574(7) 0.1269(6)
C5 C 0.6962(8) 0.4483(7) 0.0917(6)
H3 H 0.6701 0.3669 0.1253
C6 C 0.7875(7) 0.4578(7) 0.0077(6)
C8 C 0.5024(8) 0.6338(8) 0.2603(6)
H5 H 0.4784 0.5854 0.3345
H6 H 0.5818 0.6671 0.2657
C9 C 0.3692(7) 0.7610(7) 0.1998(6)
O3_2 O 0.4459(6) 0.4656(5) 0.7888(4)
O4 O 0.7050(5) 0.1800(5) 0.7407(4)
O5 O 0.6547(5) 0.2057(5) 0.8977(4)
O6 O 0.1590(5) 0.7797(5) 0.9571(4)
C3_2 C 0.3181(8) 0.3236(7) 0.9210(6)
H2_2 H 0.3526 0.2501 0.8960
C4_2 C 0.3571(8) 0.4426(7) 0.8731(6)
C5_2 C 0.3038(8) 0.5517(7) 0.9083(6)
H3_2 H 0.3299 0.6331 0.8747
C6_2 C 0.2125(7) 0.5422(7) 0.9923(6)
C8_2 C 0.4976(8) 0.3662(8) 0.7397(6)
H5_2 H 0.5216 0.4146 0.6655
H6_2 H 0.4182 0.3329 0.7343
C9_2 C 0.6308(7) 0.2390(7) 0.8002(6)
Co3 Co 0.89257(10) 0.02323(10) 0.79748(7)
Co5 Co 0.17053(10) 0.94482(9) 0.98566(7)
N3 N 0.3113(6) 0.9704(6) 0.8585(5)
O12 O 0.9775(5) 0.0794(5) 0.8904(3)
H17 H 0.9579 0.1720 0.8707
N2_2 N 0.9866(6) 0.9756(7) 0.3306(5)
C13_2 C 0.4989(9) 0.9947(11) 0.6910(7)
C14_2 C 0.5231(8) 0.8686(10) 0.7792(6)
H9_2 H 0.6044 0.7882 0.7840
C15_2 C 0.4280(8) 0.8603(9) 0.8607(6)
H10_2 H 0.4463 0.7730 0.9206
C17_2 C 0.7152(11) 0.9293(12) 0.5953(9)
H12_2 H 0.7508 0.8421 0.6556
C18_2 C 0.8058(13) 0.9553(14) 0.4993(8)
C22_2 C 0.9163(12) 0.8439(15) 0.5003(9)
H16_2 H 0.9348 0.7554 0.5590
C11_2 C 0.7105(9) 0.9087(8) 0.2275(6)
H7_2 H 0.7923 0.8293 0.2312
C12_2 C 0.6210(9) 0.8936(9) 0.3104(6)
H8_2 H 0.6419 0.8051 0.3695
C16_2 C 0.4086(10) 0.9800(13) 0.4004(9)
H11_2 H 0.4419 0.8916 0.4599
C19_2 C 0.2176(10) 0.9133(14) 0.5892(11)
H13_2 H 0.2947 0.8312 0.5917
C20_2 C 0.1222(9) 0.9079(11) 0.6743(8)
H14_2 H 0.1359 0.8216 0.7345
C21_2 C 0.9976(11) 0.1424(11) 0.5829(7)
H15_2 H 0.9191 0.2241 0.5794
O1_2 O 0.8642(5) 0.8404(5) 0.8533(4)
O2_2 O 0.7901(5) 0.8914(5) 0.9965(4)
O7_2 O 0.8903(6) 0.3547(5) 0.8818(4)
C1_2 C 0.8113(7) 0.8153(7) 0.9442(6)
C2_2 C 0.7715(7) 0.6867(7) 0.9946(6)
C7_2 C 0.8217(7) 0.5808(7) 0.9560(6)
H4_2 H 0.8785 0.5913 0.8954
C10_2 C 0.8454(7) 0.3357(7) 0.9738(6)
loop_
_geom_bond_atom_site_label_1
_geom_bond_atom_site_label_2
_geom_bond_site_symmetry_1
_geom_bond_site_symmetry_2
O1 C1 1_555 1_555
O2 C1 1_555 1_555
O7 C10 1_555 1_555
C1 C2 1_555 1_555
C7 C2 1_555 1_555
H4 C7 1_555 1_555
O8 Co1 1_555 1_555
H1 O8 1_555 1_555
H15 C21 1_555 1_555
O9 Co1 1_555 1_555
C11 H7 1_555 1_555
C12 C11 1_555 1_555
H8 C12 1_555 1_555
H11 C16 1_555 1_555
H13 C19 1_555 1_555
H14 C20 1_555 1_555
C19 C20 1_555 1_555
C14 C13 1_555 1_555
H9 C14 1_555 1_555
C15 N1 1_555 1_555
H10 C15 1_555 1_555
H12 C17 1_555 1_555
C18 C17 1_555 1_555
C22 C18 1_555 1_555
H16 C22 1_555 1_555
Co4 N1 1_555 1_555
C14 C15 1_555 1_555
O11 Co4 1_555 1_555
O3 C4 1_555 1_555
O9 C9 1_555 1_555
O10 C9 1_555 1_555
C3 H2 1_555 1_555
C4 C3 1_555 1_555
C5 C4 1_555 1_555
H3 C5 1_555 1_555
C6 C5 1_555 1_555
C8 O3 1_555 1_555
H5 C8 1_555 1_555
H6 C8 1_555 1_555
C9 C8 1_555 1_555
O3_2 C4_2 1_555 1_555
O4 C9_2 1_555 1_555
O5 C9_2 1_555 1_555
C3_2 H2_2 1_555 1_555
C4_2 C3_2 1_555 1_555
C5_2 C4_2 1_555 1_555
H3_2 C5_2 1_555 1_555
C6_2 C5_2 1_555 1_555
C8_2 O3_2 1_555 1_555
H5_2 C8_2 1_555 1_555
H6_2 C8_2 1_555 1_555
C9_2 C8_2 1_555 1_555
Co3 O4 1_555 1_555
Co5 O6 1_555 1_555
N3 Co5 1_555 1_555
H17 O12 1_555 1_555
C14_2 C13_2 1_555 1_555
H9_2 C14_2 1_555 1_555
C15_2 N3 1_555 1_555
H10_2 C15_2 1_555 1_555
H12_2 C17_2 1_555 1_555
C18_2 C17_2 1_555 1_555
C22_2 C18_2 1_555 1_555
H16_2 C22_2 1_555 1_555
C14_2 C15_2 1_555 1_555
C11_2 H7_2 1_555 1_555
C12_2 C11_2 1_555 1_555
H8_2 C12_2 1_555 1_555
H11_2 C16_2 1_555 1_555
H13_2 C19_2 1_555 1_555
H14_2 C20_2 1_555 1_555
C19_2 C20_2 1_555 1_555
O12 Co3 1_555 1_555
H15_2 C21_2 1_555 1_555
O1_2 C1_2 1_555 1_555
O2_2 C1_2 1_555 1_555
O7_2 C10_2 1_555 1_555
C1_2 C2_2 1_555 1_555
C7_2 C2_2 1_555 1_555
H4_2 C7_2 1_555 1_555

#END
