
###############################################################################
#
# This file contains modified crystal structure data generated from the
# MOF subset of the Cambridge Structural Database (CSD) v543 
# hosted by the Cambridge Crystallographic Data Centre (CCDC).
#
# This work is licensed under the Creative Commons
# Attribution-NonCommercial-ShareAlike 4.0 International License.
# To view a copy of this license, visit
# http://creativecommons.org/licenses/by-nc-sa/4.0/
# or send a letter to
# Creative Commons, PO Box 1866, Mountain View, CA 94042, USA.
#
# CIF created using the CSD Python API on 29 September 2022
# The structure has been converted into the P1 space group
# The structure has a 3D framework
# The original CSD entry PUQHOZ is in the triclinic crystal system
# The framework has been calculated to contain at least 10.0% void space
# The void calculation uses a probe of radius 1.32A, grid spacing 0.4
#
###############################################################################

data_PUQHOZ
_chemical_formula_moiety         '(C40 H28 Co3 N4 O16)n'
_symmetry_cell_setting           triclinic
_symmetry_space_group_name_H-M   'P 1'
_symmetry_Int_Tables_number      1
_space_group_name_Hall           'P 1'
loop_
_symmetry_equiv_pos_site_id
_symmetry_equiv_pos_as_xyz
1 x,y,z
_cell_length_a                   9.8886(19)
_cell_length_b                   11.102(2)
_cell_length_c                   11.914(2)
_cell_angle_alpha                64.317(3)
_cell_angle_beta                 78.159(3)
_cell_angle_gamma                68.485(3)
_cell_volume                     1094.94
loop_
_atom_site_label
_atom_site_type_symbol
_atom_site_fract_x
_atom_site_fract_y
_atom_site_fract_z
N1 N 0.0745(7) 0.0061(6) 0.1276(6)
C15 C 0.0809(11) 0.1249(9) 0.0342(9)
H10 H 0.0048 0.2091 0.0304
N2 N 0.6572(6) 0.0348(6) 0.6630(6)
C13 C 0.3041(8) 0.0134(8) 0.9434(7)
C14 C 0.1927(10) 0.1345(9) 0.9406(9)
H9 H 0.1922 0.2231 0.8758
C16 C 0.4272(8) 0.0193(8) 0.8481(7)
C19 C 0.5405(8) 0.1469(8) 0.6572(7)
H13 H 0.5367 0.2334 0.5882
C20 C 0.4248(8) 0.1446(8) 0.7455(7)
H14 H 0.3445 0.2276 0.7361
Co6 Co 0.82464(10) 0.05584(10) 0.51737(9)
C11 C 0.1794(9) 0.8893(8) 0.1276(7)
H7 H 0.1745 0.8019 0.1916
C12 C 0.2950(9) 0.8875(8) 0.0400(8)
H8 H 0.3679 0.8010 0.0457
Co4 Co 0.17536(10) 0.94416(10) 0.48263(9)
O12 O 0.0020(5) 0.9243(5) 0.6249(4)
H15 H 0.0172 0.8352 0.6649
Co2 Co 0.93238(11) 0.00893(10) 0.27518(9)
O8 O 0.9980(5) 0.0757(5) 0.3751(4)
H1 H 0.9828 0.1648 0.3351
O9 O 0.8291(5) 0.2173(5) 0.5566(5)
O10 O 0.6736(5) 0.2089(5) 0.3799(5)
O11 O 0.7528(6) 0.1638(5) 0.2062(5)
O2 O 0.9115(6) 0.3509(5) 0.3737(5)
O3 O 0.5170(6) 0.5350(5) 0.7575(5)
O4 O 0.3264(5) 0.7911(5) 0.6201(5)
O5 O 0.2472(6) 0.8362(5) 0.7938(5)
O6 O 0.7867(6) 0.8902(5) 0.5019(5)
O7 O 0.8945(5) 0.8275(5) 0.3433(5)
C1 C 0.8460(8) 0.3321(8) 0.4785(7)
C2 C 0.7835(7) 0.4534(7) 0.5197(7)
C3 C 0.6772(8) 0.4467(7) 0.6177(7)
H2 H 0.6436 0.3671 0.6558
C4 C 0.6200(8) 0.5556(7) 0.6601(7)
C5 C 0.6691(8) 0.6719(8) 0.6054(7)
H3 H 0.6322 0.7450 0.6355
C6 C 0.7727(7) 0.6805(8) 0.5062(7)
C7 C 0.8291(7) 0.5739(7) 0.4612(7)
H4 H 0.8976 0.5824 0.3917
C8 C 0.4506(8) 0.6382(8) 0.8099(7)
H5 H 0.4074 0.5939 0.8940
H6 H 0.5266 0.6708 0.8195
C9 C 0.3318(8) 0.7661(8) 0.7311(7)
C10 C 0.8226(7) 0.8083(7) 0.4462(7)
Co7 Co 0.06762(11) 0.99107(10) 0.72482(9)
O1 O 0.1709(5) 0.7827(5) 0.4434(5)
O2_2 O 0.0885(6) 0.6491(5) 0.6263(5)
O3_2 O 0.4830(6) 0.4650(5) 0.2425(5)
O6_2 O 0.2133(6) 0.1098(5) 0.4981(5)
O7_2 O 0.1055(5) 0.1725(5) 0.6567(5)
C1_2 C 0.1540(8) 0.6679(8) 0.5215(7)
C2_2 C 0.2165(7) 0.5466(7) 0.4803(7)
C3_2 C 0.3228(8) 0.5533(7) 0.3823(7)
H2_2 H 0.3564 0.6329 0.3442
C4_2 C 0.3800(8) 0.4444(7) 0.3399(7)
C5_2 C 0.3309(8) 0.3281(8) 0.3946(7)
H3_2 H 0.3678 0.2550 0.3645
C6_2 C 0.2273(7) 0.3195(8) 0.4938(7)
C7_2 C 0.1709(7) 0.4261(7) 0.5388(7)
H4_2 H 0.1024 0.4176 0.6083
C8_2 C 0.5494(8) 0.3618(8) 0.1901(7)
H5_2 H 0.5926 0.4061 0.1060
H6_2 H 0.4734 0.3292 0.1805
C9_2 C 0.6682(8) 0.2339(8) 0.2689(7)
C10_2 C 0.1774(7) 0.1917(7) 0.5538(7)
N3 N 0.3428(6) 0.9652(6) 0.3370(6)
C11_2 C 0.8206(9) 0.1107(8) 0.8724(7)
H7_2 H 0.8255 0.1981 0.8084
C12_2 C 0.7050(9) 0.1125(8) 0.9600(8)
H8_2 H 0.6321 0.1990 0.9543
C13_2 C 0.6959(8) 0.9866(8) 0.0566(7)
C14_2 C 0.8073(10) 0.8655(9) 0.0594(9)
H9_2 H 0.8078 0.7769 0.1242
C16_2 C 0.5728(8) 0.9807(8) 0.1519(7)
C19_2 C 0.4595(8) 0.8531(8) 0.3428(7)
H13_2 H 0.4633 0.7666 0.4118
C20_2 C 0.5752(8) 0.8554(8) 0.2545(7)
H14_2 H 0.6555 0.7724 0.2639
C17 C 0.5507(9) 0.9026(9) 0.8556(8)
H11 H 0.5591 0.8151 0.9245
C18 C 0.6604(9) 0.9150(8) 0.7620(7)
H12 H 0.7424 0.8340 0.7687
C17_2 C 0.4493(9) 0.0974(9) 0.1444(8)
H11_2 H 0.4409 0.1849 0.0755
C18_2 C 0.3396(9) 0.0850(8) 0.2380(7)
H12_2 H 0.2576 0.1660 0.2313
N1_2 N 0.9255(7) 0.9939(6) 0.8724(6)
C15_2 C 0.9191(11) 0.8751(9) 0.9658(9)
H10_2 H 0.9952 0.7909 0.9696
loop_
_geom_bond_atom_site_label_1
_geom_bond_atom_site_label_2
_geom_bond_site_symmetry_1
_geom_bond_site_symmetry_2
C15 N1 1_555 1_555
H10 C15 1_555 1_555
C14 C13 1_555 1_555
H9 C14 1_555 1_555
C16 C13 1_555 1_555
C19 N2 1_555 1_555
H13 C19 1_555 1_555
C20 C16 1_555 1_555
H14 C20 1_555 1_555
Co6 N2 1_555 1_555
C19 C20 1_555 1_555
H7 C11 1_555 1_555
C12 C11 1_555 1_555
H8 C12 1_555 1_555
H15 O12 1_555 1_555
Co4 O12 1_555 1_555
O8 Co6 1_555 1_555
H1 O8 1_555 1_555
O9 Co6 1_555 1_555
O10 Co6 1_555 1_555
O11 Co2 1_555 1_555
Co2 O8 1_555 1_555
O9 C1 1_555 1_555
O2 C1 1_555 1_555
O3 C4 1_555 1_555
O4 C9 1_555 1_555
O5 C9 1_555 1_555
O6 C10 1_555 1_555
O7 C10 1_555 1_555
C1 C2 1_555 1_555
C2 C3 1_555 1_555
C3 H2 1_555 1_555
C4 C3 1_555 1_555
C5 C4 1_555 1_555
H3 C5 1_555 1_555
C6 C5 1_555 1_555
C7 C2 1_555 1_555
H4 C7 1_555 1_555
C8 O3 1_555 1_555
H5 C8 1_555 1_555
H6 C8 1_555 1_555
C9 C8 1_555 1_555
C10 C6 1_555 1_555
Co4 O4 1_555 1_555
Co7 O5 1_555 1_555
C6 C7 1_555 1_555
O1 C1_2 1_555 1_555
O2_2 C1_2 1_555 1_555
O3_2 C4_2 1_555 1_555
O10 C9_2 1_555 1_555
O11 C9_2 1_555 1_555
O6_2 C10_2 1_555 1_555
O7_2 C10_2 1_555 1_555
C1_2 C2_2 1_555 1_555
C2_2 C3_2 1_555 1_555
C3_2 H2_2 1_555 1_555
C4_2 C3_2 1_555 1_555
C5_2 C4_2 1_555 1_555
H3_2 C5_2 1_555 1_555
C6_2 C5_2 1_555 1_555
C7_2 C2_2 1_555 1_555
H4_2 C7_2 1_555 1_555
C8_2 O3_2 1_555 1_555
H5_2 C8_2 1_555 1_555
H6_2 C8_2 1_555 1_555
C9_2 C8_2 1_555 1_555
C10_2 C6_2 1_555 1_555
Co4 O1 1_555 1_555
C6_2 C7_2 1_555 1_555
N3 Co4 1_555 1_555
Co7 O12 1_555 1_555
H7_2 C11_2 1_555 1_555
C12_2 C11_2 1_555 1_555
H8_2 C12_2 1_555 1_555
C14_2 C13_2 1_555 1_555
H9_2 C14_2 1_555 1_555
C16_2 C13_2 1_555 1_555
C19_2 N3 1_555 1_555
H13_2 C19_2 1_555 1_555
C20_2 C16_2 1_555 1_555
H14_2 C20_2 1_555 1_555
C19_2 C20_2 1_555 1_555
H11 C17 1_555 1_555
C18 C17 1_555 1_555
H12 C18 1_555 1_555
H11_2 C17_2 1_555 1_555
C18_2 C17_2 1_555 1_555
H12_2 C18_2 1_555 1_555
C15_2 N1_2 1_555 1_555
H10_2 C15_2 1_555 1_555

#END
