
###############################################################################
#
# This file contains modified crystal structure data generated from the
# MOF subset of the Cambridge Structural Database (CSD) v543 
# hosted by the Cambridge Crystallographic Data Centre (CCDC).
#
# This work is licensed under the Creative Commons
# Attribution-NonCommercial-ShareAlike 4.0 International License.
# To view a copy of this license, visit
# http://creativecommons.org/licenses/by-nc-sa/4.0/
# or send a letter to
# Creative Commons, PO Box 1866, Mountain View, CA 94042, USA.
#
# CIF created using the CSD Python API on 29 September 2022
# The structure has been converted into the P1 space group
# The structure has a 3D framework
# The original CSD entry PUQHIT is in the triclinic crystal system
# The framework has been calculated to contain at least 10.0% void space
# The void calculation uses a probe of radius 1.32A, grid spacing 0.4
#
###############################################################################

data_PUQHIT
_chemical_formula_moiety         '(C44 H30 N4 O14 Zn2)n'
_symmetry_cell_setting           triclinic
_symmetry_space_group_name_H-M   'P 1'
_symmetry_Int_Tables_number      1
_space_group_name_Hall           'P 1'
loop_
_symmetry_equiv_pos_site_id
_symmetry_equiv_pos_as_xyz
1 x,y,z
_cell_length_a                   9.8401(11)
_cell_length_b                   11.0617(13)
_cell_length_c                   13.5307(16)
_cell_angle_alpha                66.181(2)
_cell_angle_beta                 85.823(2)
_cell_angle_gamma                69.890(2)
_cell_volume                     1261.47
loop_
_atom_site_label
_atom_site_type_symbol
_atom_site_fract_x
_atom_site_fract_y
_atom_site_fract_z
O12 O 0.0257(4) 0.4188(4) 0.1103(3)
N1 N 0.6904(6) 0.5267(6) 0.1438(5)
N2 N 0.0096(6) 0.5309(6) 0.6687(5)
C11 C 0.7137(8) 0.4054(8) 0.2292(6)
H6 H 0.7957 0.3269 0.2321
C12 C 0.6251(8) 0.3871(9) 0.3143(6)
H7 H 0.6477 0.2983 0.3741
C13 C 0.5038(8) 0.4985(9) 0.3120(6)
C14 C 0.4784(7) 0.6264(8) 0.2233(6)
H8 H 0.3972 0.7064 0.2189
C15 C 0.5723(7) 0.6363(8) 0.1413(6)
H9 H 0.5528 0.7240 0.0808
C16 C 0.4082(9) 0.4775(11) 0.4027(7)
H10 H 0.4407 0.3897 0.4636
C17 C 0.2853(10) 0.5669(10) 0.4068(7)
H11 H 0.2514 0.6531 0.3446
C18 C 0.1906(9) 0.5495(10) 0.4991(7)
C19 C 0.2116(9) 0.4211(10) 0.5877(8)
H12 H 0.2886 0.3386 0.5913
C20 C 0.1178(8) 0.4156(9) 0.6709(7)
H13 H 0.1311 0.3281 0.7306
C22 C 0.0795(10) 0.6640(10) 0.4981(7)
H15 H 0.0611 0.7526 0.4387
Zn6 Zn 0.16858(8) 0.44590(7) 0.98252(6)
Zn7 Zn 0.83142(8) 0.55410(7) 0.01748(6)
O3 O 0.5547(5) 0.0314(5) 0.2132(4)
O4 O 0.3457(5) 0.2928(5) 0.1038(4)
O5 O 0.2985(5) 0.3179(5) 0.2610(4)
C6 C 0.6415(7) 0.0565(7) 0.1283(6)
C7 C 0.6810(7) 0.1759(7) 0.0800(5)
H3 H 0.6466 0.2494 0.1048
C8 C 0.5026(7) 0.1298(7) 0.2616(6)
H4 H 0.5819 0.1628 0.2680
H5 H 0.4774 0.0810 0.3359
C9 C 0.3713(7) 0.2571(7) 0.2006(6)
Zn3 Zn 0.11134(8) 0.47295(8) 0.20420(6)
O11 O 0.8407(5) 0.7207(4) 0.0436(4)
Zn1 Zn 0.88866(8) 0.52705(8) 0.79580(6)
O1 O 0.8579(5) 0.3459(4) 0.8525(4)
O2 O 0.7889(5) 0.3918(5) 0.9984(4)
O8 O 0.9743(4) 0.5812(4) 0.8897(3)
C1 C 0.8090(7) 0.3184(7) 0.9454(6)
C2 C 0.7706(6) 0.1863(6) 0.9957(5)
C3 C 0.8203(7) 0.0825(7) 0.9568(6)
H1 H 0.8772 0.0937 0.8961
C21 C 0.9949(9) 0.6508(10) 0.5828(7)
H14 H 0.9194 0.7333 0.5808
O9 O 0.6543(5) 0.7072(5) 0.8962(4)
O10 O 0.7015(5) 0.6821(5) 0.7390(4)
C4 C 0.7850(7) 0.9590(6) 0.0089(6)
C5 C 0.6965(7) 0.9475(7) 0.0937(6)
H2 H 0.6729 0.8644 0.1287
O6 O 0.1593(5) 0.2793(4) 0.9564(4)
C4_2 C 0.2150(7) 0.0410(6) 0.9911(6)
C5_2 C 0.3035(7) 0.0525(7) 0.9063(6)
H2_2 H 0.3271 0.1356 0.8713
O1_2 O 0.1421(5) 0.6541(4) 0.1475(4)
O2_2 O 0.2111(5) 0.6082(5) 0.0016(4)
C1_2 C 0.1910(7) 0.6816(7) 0.0546(6)
C2_2 C 0.2294(6) 0.8137(6) 0.0043(5)
C3_2 C 0.1797(7) 0.9175(7) 0.0432(6)
H1_2 H 0.1228 0.9063 0.1039
C21_2 C 0.0051(9) 0.3492(10) 0.4172(7)
H14_2 H 0.0806 0.2667 0.4192
O3_2 O 0.4453(5) 0.9686(5) 0.7868(4)
C6_2 C 0.3585(7) 0.9435(7) 0.8717(6)
C7_2 C 0.3190(7) 0.8241(7) 0.9200(5)
H3_2 H 0.3534 0.7506 0.8952
C8_2 C 0.4974(7) 0.8702(7) 0.7384(6)
H4_2 H 0.4181 0.8372 0.7320
H5_2 H 0.5226 0.9190 0.6641
C9_2 C 0.6287(7) 0.7429(7) 0.7994(6)
N3 N 0.3096(6) 0.4733(6) 0.8562(5)
N2_2 N 0.9904(6) 0.4691(6) 0.3313(5)
C11_2 C 0.2863(8) 0.5946(8) 0.7708(6)
H6_2 H 0.2043 0.6731 0.7679
C12_2 C 0.3749(8) 0.6129(9) 0.6857(6)
H7_2 H 0.3523 0.7017 0.6259
C13_2 C 0.4962(8) 0.5015(9) 0.6880(6)
C14_2 C 0.5216(7) 0.3736(8) 0.7767(6)
H8_2 H 0.6028 0.2936 0.7811
C15_2 C 0.4277(7) 0.3637(8) 0.8587(6)
H9_2 H 0.4472 0.2760 0.9192
C16_2 C 0.5918(9) 0.5225(11) 0.5973(7)
H10_2 H 0.5593 0.6103 0.5364
C17_2 C 0.7147(10) 0.4331(10) 0.5932(7)
H11_2 H 0.7486 0.3469 0.6554
C18_2 C 0.8094(9) 0.4505(10) 0.5009(7)
C19_2 C 0.7884(9) 0.5789(10) 0.4123(8)
H12_2 H 0.7114 0.6614 0.4087
C20_2 C 0.8822(8) 0.5844(9) 0.3291(7)
H13_2 H 0.8689 0.6719 0.2694
C22_2 C 0.9205(10) 0.3360(10) 0.5019(7)
H15_2 H 0.9389 0.2474 0.5613
O7 O 0.8907(5) 0.8569(5) 0.8825(4)
C10 C 0.8448(7) 0.8357(7) 0.9744(6)
O7_2 O 0.1093(5) 0.1431(5) 0.1175(4)
C10_2 C 0.1552(7) 0.1643(7) 0.0256(6)
loop_
_geom_bond_atom_site_label_1
_geom_bond_atom_site_label_2
_geom_bond_site_symmetry_1
_geom_bond_site_symmetry_2
N1 C11 1_555 1_555
C11 H6 1_555 1_555
C12 C11 1_555 1_555
H7 C12 1_555 1_555
C13 C12 1_555 1_555
C14 C13 1_555 1_555
H8 C14 1_555 1_555
C15 N1 1_555 1_555
H9 C15 1_555 1_555
C16 C13 1_555 1_555
H10 C16 1_555 1_555
C17 C16 1_555 1_555
H11 C17 1_555 1_555
C18 C17 1_555 1_555
C19 C18 1_555 1_555
H12 C19 1_555 1_555
C20 N2 1_555 1_555
H13 C20 1_555 1_555
C22 C18 1_555 1_555
H15 C22 1_555 1_555
Zn7 N1 1_555 1_555
C14 C15 1_555 1_555
C19 C20 1_555 1_555
O3 C6 1_555 1_555
O4 C9 1_555 1_555
O5 C9 1_555 1_555
H3 C7 1_555 1_555
C8 O3 1_555 1_555
H4 C8 1_555 1_555
H5 C8 1_555 1_555
C9 C8 1_555 1_555
Zn3 O5 1_555 1_555
O11 Zn7 1_555 1_555
C6 C7 1_555 1_555
Zn1 O1 1_555 1_555
O1 C1 1_555 1_555
O2 C1 1_555 1_555
O8 Zn1 1_555 1_555
C1 C2 1_555 1_555
C2 C3 1_555 1_555
C3 H1 1_555 1_555
H14 C21 1_555 1_555
O10 Zn1 1_555 1_555
C5 C4 1_555 1_555
H2 C5 1_555 1_555
C5_2 C4_2 1_555 1_555
H2_2 C5_2 1_555 1_555
Zn6 O6 1_555 1_555
Zn3 O1_2 1_555 1_555
O1_2 C1_2 1_555 1_555
O2_2 C1_2 1_555 1_555
O12 Zn3 1_555 1_555
C1_2 C2_2 1_555 1_555
C2_2 C3_2 1_555 1_555
C3_2 H1_2 1_555 1_555
H14_2 C21_2 1_555 1_555
O3_2 C6_2 1_555 1_555
O9 C9_2 1_555 1_555
O10 C9_2 1_555 1_555
H3_2 C7_2 1_555 1_555
C8_2 O3_2 1_555 1_555
H4_2 C8_2 1_555 1_555
H5_2 C8_2 1_555 1_555
C9_2 C8_2 1_555 1_555
N3 Zn6 1_555 1_555
C6_2 C7_2 1_555 1_555
N3 C11_2 1_555 1_555
C11_2 H6_2 1_555 1_555
C12_2 C11_2 1_555 1_555
H7_2 C12_2 1_555 1_555
C13_2 C12_2 1_555 1_555
C14_2 C13_2 1_555 1_555
H8_2 C14_2 1_555 1_555
C15_2 N3 1_555 1_555
H9_2 C15_2 1_555 1_555
C16_2 C13_2 1_555 1_555
H10_2 C16_2 1_555 1_555
C17_2 C16_2 1_555 1_555
H11_2 C17_2 1_555 1_555
C18_2 C17_2 1_555 1_555
C19_2 C18_2 1_555 1_555
H12_2 C19_2 1_555 1_555
C20_2 N2_2 1_555 1_555
H13_2 C20_2 1_555 1_555
C22_2 C18_2 1_555 1_555
H15_2 C22_2 1_555 1_555
C14_2 C15_2 1_555 1_555
C19_2 C20_2 1_555 1_555
O7 C10 1_555 1_555
O7_2 C10_2 1_555 1_555

#END
