
###############################################################################
#
# This file contains modified crystal structure data generated from the
# MOF subset of the Cambridge Structural Database (CSD) v543 
# hosted by the Cambridge Crystallographic Data Centre (CCDC).
#
# This work is licensed under the Creative Commons
# Attribution-NonCommercial-ShareAlike 4.0 International License.
# To view a copy of this license, visit
# http://creativecommons.org/licenses/by-nc-sa/4.0/
# or send a letter to
# Creative Commons, PO Box 1866, Mountain View, CA 94042, USA.
#
# CIF created using the CSD Python API on 29 September 2022
# The structure has been converted into the P1 space group
# The structure has a 3D framework
# The original CSD entry PURQID is in the monoclinic crystal system
# The framework has been calculated to contain at least 10.0% void space
# The void calculation uses a probe of radius 1.32A, grid spacing 0.4
#
###############################################################################

data_PURQID
_chemical_formula_moiety         '(C64 H96 Ce8 Na6 O85)n'
_symmetry_cell_setting           triclinic
_symmetry_space_group_name_H-M   'P 1'
_symmetry_Int_Tables_number      1
_space_group_name_Hall           'P 1'
loop_
_symmetry_equiv_pos_site_id
_symmetry_equiv_pos_as_xyz
1 x,y,z
_cell_length_a                   22.150(19)
_cell_length_b                   9.893(8)
_cell_length_c                   16.447(14)
_cell_angle_alpha                90
_cell_angle_beta                 114.538(15)
_cell_angle_gamma                90
_cell_volume                     3278.54
loop_
_atom_site_label
_atom_site_type_symbol
_atom_site_fract_x
_atom_site_fract_y
_atom_site_fract_z
Ce5 Ce 0.83545(3) 0.11279(7) 0.20608(4)
H6 H 0.6075 0.4354 0.0465
Ce2 Ce 0.33545(3) 0.61279(7) 0.20608(4)
Ce6 Ce 0.66455(3) 0.61279(7) 0.29392(4)
O12 O 0.8258(5) 0.8707(9) 0.1482(6)
O13 O 0.3258(5) 0.3707(9) 0.1482(6)
C9 C 0.7641(7) 0.8758(13) 0.0936(8)
Na2 Na 0.5000 0.3943(9) 0.2500
O14 O 0.7307(4) 0.9838(9) 0.0878(6)
O15 O 0.2307(4) 0.4838(9) 0.0878(6)
C10 C 0.7352(6) 0.7546(13) 0.0351(7)
H15 H 0.6860 0.7658 0.0035
O16 O 0.7251(5) 0.5142(9) 0.2028(6)
O18 O 0.2749(5) 0.5142(9) 0.2972(6)
C11 C 0.7503(7) 0.6268(12) 0.0903(8)
H16 H 0.7309 0.5490 0.0500
H17 H 0.7990 0.6137 0.1191
O19 O 0.7027(5) 0.7308(9) 0.1822(6)
O21 O 0.2973(5) 0.7308(9) 0.3178(6)
C12 C 0.7237(6) 0.6266(12) 0.1631(8)
O22 O 0.4318(4) 0.5758(11) 0.1593(6)
C13 C 0.3979(6) 0.6061(13) 0.0777(8)
O24 O 0.3389(4) 0.6545(10) 0.0533(6)
C14 C 0.4273(7) 0.5967(15) 0.0108(9)
H19 H 0.4405 0.6885 0.0007
O25 O 0.5727(5) 0.4485(11) 0.1816(6)
O27 O 0.4273(5) 0.4485(11) 0.3184(6)
C15 C 0.4873(6) 0.5035(15) 0.0373(7)
H20 H 0.4727 0.4106 0.0450
O28 O 0.5640(5) 0.6605(12) 0.1367(6)
O30 O 0.4360(5) 0.6605(12) 0.3633(6)
C16 C 0.5438(7) 0.5420(17) 0.1233(9)
O31 O 0.2352(5) 0.7680(10) 0.1264(6)
O32 O 0.3788(7) 0.8570(13) 0.2179(9)
H21 H 0.247(12) 0.845(9) 0.151(10)
H22 H 0.389(10) 0.82(3) 0.269(8)
H23 H 0.227(6) 0.716(10) 0.161(7)
H24 H 0.412(7) 0.90(2) 0.216(14)
Ce1 Ce 0.66455(3) 0.38721(7) 0.79392(4)
O1 O 0.6742(5) 0.6293(9) 0.8518(6)
C1 C 0.7359(7) 0.6242(13) 0.9064(8)
H1 H 0.595(5) 0.771(12) 0.821(8)
H2 H 0.567(7) 0.846(7) 0.867(10)
Na1 Na 0.5000 0.6057(9) 0.7500
O2 O 0.7693(4) 0.5162(9) 0.9122(6)
C2 C 0.7648(6) 0.7454(13) 0.9649(7)
H3 H 0.8140 0.7342 0.9965
O3 O 0.7749(5) 0.9858(9) 0.7972(6)
C3 C 0.7497(7) 0.8732(12) 0.9097(8)
H4 H 0.7691 0.9510 0.9500
H5 H 0.7010 0.8863 0.8809
O4 O 0.7973(5) 0.7692(9) 0.8178(6)
C4 C 0.7763(6) 0.8734(12) 0.8369(8)
O5 O 0.5682(4) 0.4242(11) 0.8407(6)
C5 C 0.6021(6) 0.3939(13) 0.9223(8)
O6 O 0.6611(4) 0.3455(10) 0.9467(6)
C6 C 0.5727(7) 0.4033(15) 0.9892(9)
H7 H 0.5595 0.3115 0.9993
O7 O 0.4273(5) 0.5515(11) 0.8184(6)
C7 C 0.5127(6) 0.4965(15) 0.9627(7)
H8 H 0.5273 0.5894 0.9550
O8 O 0.4360(5) 0.3395(12) 0.8633(6)
C8 C 0.4562(7) 0.4580(17) 0.8767(9)
O9 O 0.7648(5) 0.2320(10) 0.8736(6)
O10 O 0.6212(7) 0.1430(13) 0.7821(9)
O11 O 0.5672(8) 0.7694(16) 0.8434(14)
H9 H 0.753(12) 0.155(9) 0.849(10)
H10 H 0.611(10) 0.18(3) 0.731(8)
H11 H 0.773(6) 0.284(10) 0.839(7)
H12 H 0.588(7) 0.10(2) 0.784(14)
Ce3 Ce 0.83545(3) 0.88721(7) 0.70608(4)
Ce4 Ce 0.33545(3) 0.38721(7) 0.70608(4)
H13 H 0.405(5) 0.771(12) 0.679(8)
H14 H 0.433(7) 0.846(7) 0.633(10)
O17 O 0.7251(5) 0.4858(9) 0.7028(6)
O20 O 0.7027(5) 0.2692(9) 0.6822(6)
O23 O 0.4318(4) 0.4242(11) 0.6593(6)
H18 H 0.3925 0.5646 0.9535
O26 O 0.5727(5) 0.5515(11) 0.6816(6)
O29 O 0.5640(5) 0.3395(12) 0.6367(6)
O33 O 0.4328(8) 0.7694(16) 0.6566(14)
Ce5_2 Ce 0.16455(3) 0.11279(7) 0.29392(4)
O1_2 O 0.3258(5) 0.6293(9) 0.6482(6)
C1_2 C 0.2641(7) 0.6242(13) 0.5936(8)
O2_2 O 0.2307(4) 0.5162(9) 0.5878(6)
C2_2 C 0.2352(6) 0.7454(13) 0.5351(7)
H3_2 H 0.1860 0.7342 0.5035
O3_2 O 0.2251(5) 0.9858(9) 0.7028(6)
C3_2 C 0.2503(7) 0.8732(12) 0.5903(8)
H4_2 H 0.2309 0.9510 0.5500
H5_2 H 0.2990 0.8863 0.6191
O4_2 O 0.2027(5) 0.7692(9) 0.6822(6)
C4_2 C 0.2237(6) 0.8734(12) 0.6631(8)
C5_2 C 0.3979(6) 0.3939(13) 0.5777(8)
O6_2 O 0.3389(4) 0.3455(10) 0.5533(6)
C6_2 C 0.4273(7) 0.4033(15) 0.5108(9)
H6_2 H 0.3925 0.4354 0.4535
H7_2 H 0.4405 0.3115 0.5007
C7_2 C 0.4873(6) 0.4965(15) 0.5373(7)
H8_2 H 0.4727 0.5894 0.5450
C8_2 C 0.5438(7) 0.4580(17) 0.6233(9)
O9_2 O 0.2352(5) 0.2320(10) 0.6264(6)
O10_2 O 0.3788(7) 0.1430(13) 0.7179(9)
H9_2 H 0.247(12) 0.155(9) 0.651(10)
H10_2 H 0.389(10) 0.18(3) 0.769(8)
H11_2 H 0.227(6) 0.284(10) 0.661(7)
H12_2 H 0.412(7) 0.10(2) 0.716(14)
Ce3_2 Ce 0.16455(3) 0.88721(7) 0.79392(4)
O12_2 O 0.1742(5) 0.8707(9) 0.3518(6)
O13_2 O 0.6742(5) 0.3707(9) 0.3518(6)
C9_2 C 0.2359(7) 0.8758(13) 0.4064(8)
O14_2 O 0.2693(4) 0.9838(9) 0.4122(6)
O15_2 O 0.7693(4) 0.4838(9) 0.4122(6)
C10_2 C 0.2648(6) 0.7546(13) 0.4649(7)
H15_2 H 0.3140 0.7658 0.4965
O17_2 O 0.2749(5) 0.4858(9) 0.7972(6)
C11_2 C 0.2497(7) 0.6268(12) 0.4097(8)
H16_2 H 0.2691 0.5490 0.4500
H17_2 H 0.2010 0.6137 0.3809
O20_2 O 0.2973(5) 0.2692(9) 0.8178(6)
C12_2 C 0.2763(6) 0.6266(12) 0.3369(8)
O22_2 O 0.5682(4) 0.5758(11) 0.3407(6)
C13_2 C 0.6021(6) 0.6061(13) 0.4223(8)
O24_2 O 0.6611(4) 0.6545(10) 0.4467(6)
C14_2 C 0.5727(7) 0.5967(15) 0.4892(9)
H18_2 H 0.6075 0.5646 0.5465
H19_2 H 0.5595 0.6885 0.4993
C15_2 C 0.5127(6) 0.5035(15) 0.4627(7)
H20_2 H 0.5273 0.4106 0.4550
C16_2 C 0.4562(7) 0.5420(17) 0.3767(9)
O31_2 O 0.7648(5) 0.7680(10) 0.3736(6)
O32_2 O 0.6212(7) 0.8570(13) 0.2821(9)
H21_2 H 0.753(12) 0.845(9) 0.349(10)
H22_2 H 0.611(10) 0.82(3) 0.231(8)
H23_2 H 0.773(6) 0.716(10) 0.339(7)
H24_2 H 0.588(7) 0.90(2) 0.284(14)
C9_3 C 0.2641(7) 0.3758(13) 0.0936(8)
C10_3 C 0.2352(6) 0.2546(13) 0.0351(7)
H15_3 H 0.1860 0.2658 0.0035
O16_2 O 0.2251(5) 0.0142(9) 0.2028(6)
C11_3 C 0.2503(7) 0.1268(12) 0.0903(8)
H16_3 H 0.2309 0.0490 0.0500
H17_3 H 0.2990 0.1137 0.1191
O19_2 O 0.2027(5) 0.2308(9) 0.1822(6)
C12_3 C 0.2237(6) 0.1266(12) 0.1631(8)
O28_2 O 0.0640(5) 0.1605(12) 0.1367(6)
C16_3 C 0.0438(7) 0.0420(17) 0.1233(9)
O1_3 O 0.1742(5) 0.1293(9) 0.8518(6)
C1_3 C 0.2359(7) 0.1242(13) 0.9064(8)
H1_2 H 0.095(5) 0.271(12) 0.821(8)
H2_2 H 0.067(7) 0.346(7) 0.867(10)
Na1_2 Na -0.0000 0.1057(9) 0.7500
O2_3 O 0.2693(4) 0.0162(9) 0.9122(6)
C2_3 C 0.2648(6) 0.2454(13) 0.9649(7)
H3_3 H 0.3140 0.2342 0.9965
C3_3 C 0.2497(7) 0.3732(12) 0.9097(8)
H4_3 H 0.2691 0.4510 0.9500
H5_3 H 0.2010 0.3863 0.8809
C4_3 C 0.2763(6) 0.3734(12) 0.8369(8)
H8_3 H 0.0273 0.0894 0.9550
O11_2 O 0.0672(8) 0.2694(16) 0.8434(14)
O26_2 O 0.0727(5) 0.0515(11) 0.6816(6)
H6_3 H 0.1075 0.9354 0.0465
Na2_2 Na -0.0000 0.8943(9) 0.2500
O25_2 O 0.0727(5) 0.9485(11) 0.1816(6)
O5_2 O 0.0682(4) 0.9242(11) 0.8407(6)
C5_3 C 0.1021(6) 0.8939(13) 0.9223(8)
O6_3 O 0.1611(4) 0.8455(10) 0.9467(6)
C6_3 C 0.0727(7) 0.9033(15) 0.9892(9)
H7_3 H 0.0595 0.8115 0.9993
C7_3 C 0.0127(6) 0.9965(15) 0.9627(7)
O9_3 O 0.2648(5) 0.7320(10) 0.8736(6)
O10_3 O 0.1212(7) 0.6430(13) 0.7821(9)
H9_3 H 0.253(12) 0.655(9) 0.849(10)
H10_3 H 0.111(10) 0.68(3) 0.731(8)
H11_3 H 0.273(6) 0.784(10) 0.839(7)
H12_3 H 0.088(7) 0.60(2) 0.784(14)
O29_2 O 0.0640(5) 0.8395(12) 0.6367(6)
O18_2 O 0.7749(5) 0.0142(9) 0.2972(6)
O21_2 O 0.7973(5) 0.2308(9) 0.3178(6)
O22_3 O 0.9318(4) 0.0758(11) 0.1593(6)
C13_3 C 0.8979(6) 0.1061(13) 0.0777(8)
O24_3 O 0.8389(4) 0.1545(10) 0.0533(6)
C14_3 C 0.9273(7) 0.0967(15) 0.0108(9)
H19_3 H 0.9405 0.1885 0.0007
C15_3 C 0.9873(6) 0.0035(15) 0.0373(7)
O30_2 O 0.9360(5) 0.1605(12) 0.3633(6)
O31_3 O 0.7352(5) 0.2680(10) 0.1264(6)
O32_3 O 0.8788(7) 0.3570(13) 0.2179(9)
H21_3 H 0.747(12) 0.345(9) 0.151(10)
H22_3 H 0.889(10) 0.32(3) 0.269(8)
H23_3 H 0.727(6) 0.216(10) 0.161(7)
H24_3 H 0.912(7) 0.40(2) 0.216(14)
Na1_3 Na 1.0000 0.1057(9) 0.7500
O7_2 O 0.9273(5) 0.0515(11) 0.8184(6)
H13_2 H 0.905(5) 0.271(12) 0.679(8)
H14_2 H 0.933(7) 0.346(7) 0.633(10)
H18_3 H 0.8925 0.0646 0.9535
O33_2 O 0.9328(8) 0.2694(16) 0.6566(14)
Na2_3 Na 1.0000 0.8943(9) 0.2500
O27_2 O 0.9273(5) 0.9485(11) 0.3184(6)
H20_3 H 0.9727 0.9106 0.0450
O8_2 O 0.9360(5) 0.8395(12) 0.8633(6)
C8_3 C 0.9562(7) 0.9580(17) 0.8767(9)
O23_2 O 0.9318(4) 0.9242(11) 0.6593(6)
O22_4 O 0.0682(4) 0.0758(11) 0.3407(6)
C13_4 C 0.1021(6) 0.1061(13) 0.4223(8)
O24_4 O 0.1611(4) 0.1545(10) 0.4467(6)
C14_4 C 0.0727(7) 0.0967(15) 0.4892(9)
H18_4 H 0.1075 0.0646 0.5465
H19_4 H 0.0595 0.1885 0.4993
C15_4 C 0.0127(6) 0.0035(15) 0.4627(7)
O31_4 O 0.2648(5) 0.2680(10) 0.3736(6)
O32_4 O 0.1212(7) 0.3570(13) 0.2821(9)
H21_4 H 0.253(12) 0.345(9) 0.349(10)
H22_4 H 0.111(10) 0.32(3) 0.231(8)
H23_4 H 0.273(6) 0.216(10) 0.339(7)
H24_4 H 0.088(7) 0.40(2) 0.284(14)
C8_4 C 0.0438(7) 0.9580(17) 0.6233(9)
H20_4 H 0.0273 0.9106 0.4550
O1_4 O 0.8258(5) 0.1293(9) 0.6482(6)
C1_4 C 0.7641(7) 0.1242(13) 0.5936(8)
O2_4 O 0.7307(4) 0.0162(9) 0.5878(6)
C2_4 C 0.7352(6) 0.2454(13) 0.5351(7)
H3_4 H 0.6860 0.2342 0.5035
C3_4 C 0.7503(7) 0.3732(12) 0.5903(8)
H4_4 H 0.7309 0.4510 0.5500
H5_4 H 0.7990 0.3863 0.6191
C4_4 C 0.7237(6) 0.3734(12) 0.6631(8)
H8_4 H 0.9727 0.0894 0.5450
C9_4 C 0.7359(7) 0.3758(13) 0.4064(8)
C10_4 C 0.7648(6) 0.2546(13) 0.4649(7)
H15_4 H 0.8140 0.2658 0.4965
C11_4 C 0.7497(7) 0.1268(12) 0.4097(8)
H16_4 H 0.7691 0.0490 0.4500
H17_4 H 0.7010 0.1137 0.3809
C12_4 C 0.7763(6) 0.1266(12) 0.3369(8)
C16_4 C 0.9562(7) 0.0420(17) 0.3767(9)
C5_4 C 0.8979(6) 0.8939(13) 0.5777(8)
O6_4 O 0.8389(4) 0.8455(10) 0.5533(6)
C6_4 C 0.9273(7) 0.9033(15) 0.5108(9)
H6_4 H 0.8925 0.9354 0.4535
H7_4 H 0.9405 0.8115 0.5007
C7_4 C 0.9873(6) 0.9965(15) 0.5373(7)
O9_4 O 0.7352(5) 0.7320(10) 0.6264(6)
O10_4 O 0.8788(7) 0.6430(13) 0.7179(9)
H9_4 H 0.747(12) 0.655(9) 0.651(10)
H10_4 H 0.889(10) 0.68(3) 0.769(8)
H11_4 H 0.727(6) 0.784(10) 0.661(7)
H12_4 H 0.912(7) 0.60(2) 0.716(14)
H1_3 H 0.405(5) 0.229(12) 0.179(8)
H2_3 H 0.433(7) 0.154(7) 0.133(10)
O11_3 O 0.4328(8) 0.2306(16) 0.1566(14)
H13_3 H 0.595(5) 0.229(12) 0.321(8)
H14_3 H 0.567(7) 0.154(7) 0.367(10)
O33_3 O 0.5672(8) 0.2306(16) 0.3434(14)
H13_4 H 0.095(5) 0.729(12) 0.321(8)
H14_4 H 0.067(7) 0.654(7) 0.367(10)
O33_4 O 0.0672(8) 0.7306(16) 0.3434(14)
H1_4 H 0.905(5) 0.729(12) 0.179(8)
H2_4 H 0.933(7) 0.654(7) 0.133(10)
O11_4 O 0.9328(8) 0.7306(16) 0.1566(14)
loop_
_geom_bond_atom_site_label_1
_geom_bond_atom_site_label_2
_geom_bond_site_symmetry_1
_geom_bond_site_symmetry_2
Ce2 O13 1_555 1_555
Ce6 O16 1_555 1_555
O12 C9 1_555 1_555
C9 O14 1_555 1_555
Na2 O22 1_555 1_555
O15 Ce2 1_555 1_555
H15 C10 1_555 1_555
O16 C12 1_555 1_555
O18 Ce2 1_555 1_555
C11 C10 1_555 1_555
H16 C11 1_555 1_555
H17 C11 1_555 1_555
O19 Ce6 1_555 1_555
O21 Ce2 1_555 1_555
C12 C11 1_555 1_555
O22 Ce2 1_555 1_555
C13 O22 1_555 1_555
O24 Ce2 1_555 1_555
C14 C13 1_555 1_555
H19 C14 1_555 1_555
O25 Ce6 1_555 1_555
O27 Ce2 1_555 1_555
H20 C15 1_555 1_555
O28 Ce6 1_555 1_555
O30 Ce2 1_555 1_555
C16 O25 1_555 1_555
O31 Ce2 1_555 1_555
O32 Ce2 1_555 1_555
H21 O31 1_555 1_555
H22 O32 1_555 1_555
H23 O31 1_555 1_555
H24 O32 1_555 1_555
C9 C10 1_555 1_555
Na2 O25 1_555 1_555
Na2 O27 1_555 1_555
O19 C12 1_555 1_555
C13 O24 1_555 1_555
C14 C15 1_555 1_555
C15 C16 1_555 1_555
O28 C16 1_555 1_555
Ce1 O1 1_555 1_555
O1 C1 1_555 1_555
C1 O2 1_555 1_555
H1 O11 1_555 1_555
H2 O11 1_555 1_555
Na1 O5 1_555 1_555
O2 Ce1 1_555 1_555
C2 C1 1_555 1_555
H3 C2 1_555 1_555
O3 C4 1_555 1_555
C3 C2 1_555 1_555
H4 C3 1_555 1_555
H5 C3 1_555 1_555
O4 C4 1_555 1_555
C4 C3 1_555 1_555
O5 Ce1 1_555 1_555
C5 O5 1_555 1_555
O6 Ce1 1_555 1_555
C6 C5 1_555 1_555
H7 C6 1_555 1_555
O7 Na1 1_555 1_555
C7 C6 1_555 1_555
H8 C7 1_555 1_555
O8 C8 1_555 1_555
C8 O7 1_555 1_555
O9 Ce1 1_555 1_555
O10 Ce1 1_555 1_555
O11 Na1 1_555 1_555
H9 O9 1_555 1_555
H10 O10 1_555 1_555
H11 O9 1_555 1_555
H12 O10 1_555 1_555
Ce3 O3 1_555 1_555
Ce4 O7 1_555 1_555
H13 O33 1_555 1_555
H14 O33 1_555 1_555
O17 Ce1 1_555 1_555
O20 Ce1 1_555 1_555
O23 Na1 1_555 1_555
O26 Ce1 1_555 1_555
O29 Ce1 1_555 1_555
O33 Na1 1_555 1_555
Na1 O26 1_555 1_555
O4 Ce3 1_555 1_555
C5 O6 1_555 1_555
C7 C8 1_555 1_555
O8 Ce4 1_555 1_555
Ce4 O23 1_555 1_555
Ce4 O1_2 1_555 1_555
O1_2 C1_2 1_555 1_555
C1_2 O2_2 1_555 1_555
O2_2 Ce4 1_555 1_555
C2_2 C1_2 1_555 1_555
H3_2 C2_2 1_555 1_555
O3_2 C4_2 1_555 1_555
C3_2 C2_2 1_555 1_555
H4_2 C3_2 1_555 1_555
H5_2 C3_2 1_555 1_555
O4_2 C4_2 1_555 1_555
C4_2 C3_2 1_555 1_555
C5_2 O23 1_555 1_555
O6_2 Ce4 1_555 1_555
C6_2 C5_2 1_555 1_555
H6_2 C6_2 1_555 1_555
H7_2 C6_2 1_555 1_555
C7_2 C6_2 1_555 1_555
H8_2 C7_2 1_555 1_555
O29 C8_2 1_555 1_555
C8_2 O26 1_555 1_555
O9_2 Ce4 1_555 1_555
O10_2 Ce4 1_555 1_555
H9_2 O9_2 1_555 1_555
H10_2 O10_2 1_555 1_555
H11_2 O9_2 1_555 1_555
H12_2 O10_2 1_555 1_555
Ce6 O13_2 1_555 1_555
Ce3_2 O3_2 1_555 1_555
O12_2 C9_2 1_555 1_555
C9_2 O14_2 1_555 1_555
Na2 O22_2 1_555 1_555
O15_2 Ce6 1_555 1_555
C10_2 C2_2 1_555 1_555
H15_2 C10_2 1_555 1_555
O18 C12_2 1_555 1_555
O17_2 Ce4 1_555 1_555
C11_2 C10_2 1_555 1_555
H16_2 C11_2 1_555 1_555
H17_2 C11_2 1_555 1_555
O20_2 Ce4 1_555 1_555
C12_2 C11_2 1_555 1_555
O22_2 Ce6 1_555 1_555
C13_2 O22_2 1_555 1_555
O24_2 Ce6 1_555 1_555
C14_2 C13_2 1_555 1_555
H18_2 C14_2 1_555 1_555
H19_2 C14_2 1_555 1_555
C15_2 C7_2 1_555 1_555
H20_2 C15_2 1_555 1_555
C16_2 O27 1_555 1_555
O31_2 Ce6 1_555 1_555
O32_2 Ce6 1_555 1_555
H21_2 O31_2 1_555 1_555
H22_2 O32_2 1_555 1_555
H23_2 O31_2 1_555 1_555
H24_2 O32_2 1_555 1_555
O4_2 Ce3_2 1_555 1_555
C5_2 O6_2 1_555 1_555
C7_2 C8_2 1_555 1_555
C9_2 C10_2 1_555 1_555
O21 C12_2 1_555 1_555
C13_2 O24_2 1_555 1_555
C14_2 C15_2 1_555 1_555
C15_2 C16_2 1_555 1_555
O30 C16_2 1_555 1_555
Ce5_2 O16_2 1_555 1_555
O13 C9_3 1_555 1_555
C9_3 O15 1_555 1_555
H15_3 C10_3 1_555 1_555
O16_2 C12_3 1_555 1_555
C11_3 C10_3 1_555 1_555
H16_3 C11_3 1_555 1_555
H17_3 C11_3 1_555 1_555
O19_2 Ce5_2 1_555 1_555
C12_3 C11_3 1_555 1_555
O28_2 Ce5_2 1_555 1_555
C9_3 C10_3 1_555 1_555
O19_2 C12_3 1_555 1_555
O28_2 C16_3 1_555 1_555
O1_3 C1_3 1_555 1_555
C1_3 O2_3 1_555 1_555
H1_2 O11_2 1_555 1_555
H2_2 O11_2 1_555 1_555
C2_3 C1_3 1_555 1_555
H3_3 C2_3 1_555 1_555
O17_2 C4_3 1_555 1_555
C3_3 C2_3 1_555 1_555
H4_3 C3_3 1_555 1_555
H5_3 C3_3 1_555 1_555
O20_2 C4_3 1_555 1_555
C4_3 C3_3 1_555 1_555
O11_2 Na1_2 1_555 1_555
Na1_2 O26_2 1_555 1_555
Na2_2 O25_2 1_555 1_555
O5_2 Ce3_2 1_555 1_555
C5_3 O5_2 1_555 1_555
O6_3 Ce3_2 1_555 1_555
C6_3 C5_3 1_555 1_555
H7_3 C6_3 1_555 1_555
C7_3 C6_3 1_555 1_555
O9_3 Ce3_2 1_555 1_555
O10_3 Ce3_2 1_555 1_555
H9_3 O9_3 1_555 1_555
H10_3 O10_3 1_555 1_555
H11_3 O9_3 1_555 1_555
H12_3 O10_3 1_555 1_555
O29_2 Ce3_2 1_555 1_555
C5_3 O6_3 1_555 1_555
O18_2 Ce5 1_555 1_555
O21_2 Ce5 1_555 1_555
O22_3 Ce5 1_555 1_555
C13_3 O22_3 1_555 1_555
O24_3 Ce5 1_555 1_555
C14_3 C13_3 1_555 1_555
H19_3 C14_3 1_555 1_555
O30_2 Ce5 1_555 1_555
O31_3 Ce5 1_555 1_555
O32_3 Ce5 1_555 1_555
H21_3 O31_3 1_555 1_555
H22_3 O32_3 1_555 1_555
H23_3 O31_3 1_555 1_555
H24_3 O32_3 1_555 1_555
C13_3 O24_3 1_555 1_555
C14_3 C15_3 1_555 1_555
O7_2 Na1_3 1_555 1_555
H13_2 O33_2 1_555 1_555
H14_2 O33_2 1_555 1_555
O33_2 Na1_3 1_555 1_555
Na2_3 O27_2 1_555 1_555
O8_2 C8_3 1_555 1_555
O8_2 Ce3 1_555 1_555
Ce3 O23_2 1_555 1_555
O22_4 Ce5_2 1_555 1_555
C13_4 O22_4 1_555 1_555
O24_4 Ce5_2 1_555 1_555
C14_4 C13_4 1_555 1_555
H18_4 C14_4 1_555 1_555
H19_4 C14_4 1_555 1_555
O31_4 Ce5_2 1_555 1_555
O32_4 Ce5_2 1_555 1_555
H21_4 O31_4 1_555 1_555
H22_4 O32_4 1_555 1_555
H23_4 O31_4 1_555 1_555
H24_4 O32_4 1_555 1_555
C13_4 O24_4 1_555 1_555
C14_4 C15_4 1_555 1_555
O29_2 C8_4 1_555 1_555
O1_4 C1_4 1_555 1_555
C1_4 O2_4 1_555 1_555
C2_4 C1_4 1_555 1_555
H3_4 C2_4 1_555 1_555
O17 C4_4 1_555 1_555
C3_4 C2_4 1_555 1_555
H4_4 C3_4 1_555 1_555
H5_4 C3_4 1_555 1_555
O20 C4_4 1_555 1_555
C4_4 C3_4 1_555 1_555
O13_2 C9_4 1_555 1_555
C9_4 O15_2 1_555 1_555
C10_4 C2_4 1_555 1_555
H15_4 C10_4 1_555 1_555
O18_2 C12_4 1_555 1_555
C11_4 C10_4 1_555 1_555
H16_4 C11_4 1_555 1_555
H17_4 C11_4 1_555 1_555
C12_4 C11_4 1_555 1_555
C9_4 C10_4 1_555 1_555
O21_2 C12_4 1_555 1_555
O30_2 C16_4 1_555 1_555
C5_4 O23_2 1_555 1_555
O6_4 Ce3 1_555 1_555
C6_4 C5_4 1_555 1_555
H6_4 C6_4 1_555 1_555
H7_4 C6_4 1_555 1_555
C7_4 C6_4 1_555 1_555
O9_4 Ce3 1_555 1_555
O10_4 Ce3 1_555 1_555
H9_4 O9_4 1_555 1_555
H10_4 O10_4 1_555 1_555
H11_4 O9_4 1_555 1_555
H12_4 O10_4 1_555 1_555
C5_4 O6_4 1_555 1_555
H1_3 O11_3 1_555 1_555
H2_3 O11_3 1_555 1_555
O11_3 Na2 1_555 1_555
H13_3 O33_3 1_555 1_555
H14_3 O33_3 1_555 1_555
O33_3 Na2 1_555 1_555
H13_4 O33_4 1_555 1_555
H14_4 O33_4 1_555 1_555
O33_4 Na2_2 1_555 1_555
H1_4 O11_4 1_555 1_555
H2_4 O11_4 1_555 1_555
O11_4 Na2_3 1_555 1_555

#END
