
###############################################################################
#
# This file contains modified crystal structure data generated from the
# MOF subset of the Cambridge Structural Database (CSD) v543 
# hosted by the Cambridge Crystallographic Data Centre (CCDC).
#
# This work is licensed under the Creative Commons
# Attribution-NonCommercial-ShareAlike 4.0 International License.
# To view a copy of this license, visit
# http://creativecommons.org/licenses/by-nc-sa/4.0/
# or send a letter to
# Creative Commons, PO Box 1866, Mountain View, CA 94042, USA.
#
# CIF created using the CSD Python API on 29 September 2022
# The structure has been converted into the P1 space group
# The structure has a 3D framework
# The original CSD entry PURSUT is in the monoclinic crystal system
# The framework has been calculated to contain at least 10.0% void space
# The void calculation uses a probe of radius 1.32A, grid spacing 0.4
#
###############################################################################

data_PURSUT
_chemical_formula_moiety         '(C136 H88 Cl8 N16 O32 Zn8)n'
_symmetry_cell_setting           triclinic
_symmetry_space_group_name_H-M   'P 1'
_symmetry_Int_Tables_number      1
_space_group_name_Hall           'P 1'
loop_
_symmetry_equiv_pos_site_id
_symmetry_equiv_pos_as_xyz
1 x,y,z
_cell_length_a                   21.899(2)
_cell_length_b                   7.6863(6)
_cell_length_c                   24.158(2)
_cell_angle_alpha                90
_cell_angle_beta                 100.938(5)
_cell_angle_gamma                90
_cell_volume                     3992.46
loop_
_atom_site_label
_atom_site_type_symbol
_atom_site_fract_x
_atom_site_fract_y
_atom_site_fract_z
O2 O 0.2075(4) 0.1456(11) 0.5908(3)
O3 O 0.1314(4) 0.1145(11) 0.5162(4)
C1 C 0.2961(6) 0.0173(15) 0.5319(5)
H1 H 0.309925 0.049164 0.569338
C2 C 0.2340(5) 0.0402(15) 0.5060(5)
H2 H 0.172548 0.009615 0.433010
C5 C 0.1866(5) 0.1079(15) 0.5392(5)
H4 H 0.200502 0.107704 0.335995
C14 C 0.4328(5) 0.0633(15) 0.5530(5)
H8 H 0.412945 0.170135 0.553092
C16 C 0.4928(6) 0.0491(16) 0.5788(5)
H10 H 0.513350 0.145791 0.596568
H11 H 0.162693 0.029348 0.244420
Zn2 Zn 0.13414(6) 0.17722(17) 0.62677(5)
O4 O 0.0819(4) 0.3784(11) 0.6043(4)
C7 C 0.0254(5) 0.3883(16) 0.5794(5)
H9 H 0.009999 0.140638 0.547947
H10_2 H 0.013350 0.645791 0.596568
O5 O 0.1728(4) 0.2814(11) 0.7006(3)
N2 N 0.2339(4) 0.1245(13) 0.8624(4)
C4 C 0.2139(5) 0.0060(15) 0.9501(5)
C6 C 0.2557(5) 0.0752(14) 0.9200(5)
C8 C 0.3175(5) 0.1030(16) 0.9440(5)
H3 H 0.345114 0.151936 0.923542
C9 C 0.2051(6) 0.0064(16) 0.8246(5)
C10 C 0.2180(6) 0.3473(17) 0.7931(5)
H5 H 0.221851 0.463785 0.783987
C11 C 0.2401(6) 0.2904(16) 0.8470(5)
H6 H 0.259929 0.369178 0.873650
C12 C 0.1894(5) 0.2279(17) 0.7513(5)
C17 C 0.1825(6) 0.0530(17) 0.7698(5)
Zn1 Zn 0.63414(6) 0.67722(17) 0.62677(5)
O1 O 0.1728(4) 0.7186(11) 0.2006(3)
O4_2 O 0.5819(4) 0.8784(11) 0.6043(4)
N1 N 0.4005(4) 0.9251(13) 0.5268(4)
N2_2 N 0.2339(4) 0.8755(13) 0.3624(4)
C3 C 0.3366(5) 0.9456(16) 0.5004(5)
C4_2 C 0.2139(5) 0.9940(15) 0.4501(5)
C6_2 C 0.2557(5) 0.9248(14) 0.4200(5)
C7_2 C 0.5254(5) 0.8883(16) 0.5794(5)
C8_2 C 0.3175(5) 0.8970(16) 0.4440(5)
H3_2 H 0.345114 0.848064 0.423542
C9_2 C 0.2051(6) 0.9936(16) 0.3246(5)
C10_2 C 0.2180(6) 0.6527(17) 0.2931(5)
H5_2 H 0.221851 0.536215 0.283987
C11_2 C 0.2401(6) 0.7096(16) 0.3470(5)
H6_2 H 0.259929 0.630822 0.373650
C12_2 C 0.1894(5) 0.7721(17) 0.2513(5)
C13 C 0.4310(5) 0.7689(15) 0.5250(5)
H7 H 0.409490 0.675382 0.506132
C15 C 0.4909(5) 0.7479(16) 0.5499(5)
H9_2 H 0.509999 0.640638 0.547947
C17_2 C 0.1825(6) 0.9470(17) 0.2698(5)
Cl1 Cl 0.58651(15) 0.4211(4) 0.63201(14)
Zn3 Zn 0.13414(6) 0.82278(17) 0.12677(5)
O5_2 O 0.6728(4) 0.7814(11) 0.7006(3)
O6 O 0.7075(4) 0.6456(11) 0.5908(3)
O1_2 O 0.6728(4) 0.2186(11) 0.2006(3)
O3_2 O 0.6314(4) 0.6145(11) 0.5162(4)
N1_2 N 0.9005(4) 0.4251(13) 0.5268(4)
N2_3 N 0.7339(4) 0.3755(13) 0.3624(4)
C1_2 C 0.7961(6) 0.5173(15) 0.5319(5)
H1_2 H 0.809925 0.549164 0.569338
C2_2 C 0.7340(5) 0.5402(15) 0.5060(5)
C3_2 C 0.8366(5) 0.4456(16) 0.5004(5)
C4_3 C 0.7139(5) 0.4940(15) 0.4501(5)
H2_2 H 0.672548 0.509615 0.433010
C5_2 C 0.6866(5) 0.6079(15) 0.5392(5)
C6_3 C 0.7557(5) 0.4248(14) 0.4200(5)
C8_3 C 0.8175(5) 0.3970(16) 0.4440(5)
H3_3 H 0.845114 0.348064 0.423542
C9_3 C 0.7051(6) 0.4936(16) 0.3246(5)
H4_2 H 0.700502 0.607704 0.335995
C10_3 C 0.7180(6) 0.1527(17) 0.2931(5)
H5_3 H 0.721851 0.036215 0.283987
C11_3 C 0.7401(6) 0.2096(16) 0.3470(5)
H6_3 H 0.759929 0.130822 0.373650
C12_3 C 0.6894(5) 0.2721(17) 0.2513(5)
C13_2 C 0.9310(5) 0.2689(15) 0.5250(5)
H7_2 H 0.909490 0.175382 0.506132
C14_2 C 0.9328(5) 0.5633(15) 0.5530(5)
H8_2 H 0.912945 0.670135 0.553092
C15_2 C 0.9909(5) 0.2479(16) 0.5499(5)
C16_2 C 0.9928(6) 0.5491(16) 0.5788(5)
C17_3 C 0.6825(6) 0.4470(17) 0.2698(5)
H11_2 H 0.662693 0.529348 0.244420
Zn3_2 Zn 0.63414(6) 0.32278(17) 0.12677(5)
O4_3 O 0.5819(4) 0.1216(11) 0.1043(4)
N1_3 N 0.4005(4) 0.0749(13) 0.0268(4)
C3_3 C 0.3366(5) 0.0544(16) 0.0004(5)
C7_3 C 0.5254(5) 0.1117(16) 0.0794(5)
C13_3 C 0.4310(5) 0.2311(15) 0.0250(5)
H7_3 H 0.409490 0.324618 0.006132
C15_3 C 0.4909(5) 0.2521(16) 0.0499(5)
H9_3 H 0.509999 0.359362 0.047947
Cl1_2 Cl 0.58651(15) 0.5789(4) 0.13201(14)
O6_2 O 0.7075(4) 0.3544(11) 0.0908(3)
O2_2 O 0.2075(4) 0.8544(11) 0.0908(3)
O3_3 O 0.1314(4) 0.8855(11) 0.0162(4)
C1_3 C 0.2961(6) 0.9827(15) 0.0319(5)
H1_3 H 0.309925 0.950836 0.069338
C2_3 C 0.2340(5) 0.9598(15) 0.0060(5)
C5_3 C 0.1866(5) 0.8921(15) 0.0392(5)
C14_3 C 0.4328(5) 0.9367(15) 0.0530(5)
H8_3 H 0.412945 0.829865 0.053092
C16_3 C 0.4928(6) 0.9509(16) 0.0788(5)
H10_3 H 0.513350 0.854209 0.096568
O4_4 O 0.0819(4) 0.6216(11) 0.1043(4)
C7_4 C 0.0254(5) 0.6117(16) 0.0794(5)
H9_4 H 0.009999 0.859362 0.047947
H10_4 H 0.013350 0.354209 0.096568
O3_4 O 0.6314(4) 0.3855(11) 0.0162(4)
N1_4 N 0.9005(4) 0.5749(13) 0.0268(4)
C1_4 C 0.7961(6) 0.4827(15) 0.0319(5)
H1_4 H 0.809925 0.450836 0.069338
C2_4 C 0.7340(5) 0.4598(15) 0.0060(5)
C3_4 C 0.8366(5) 0.5544(16) 0.0004(5)
C5_4 C 0.6866(5) 0.3921(15) 0.0392(5)
C13_4 C 0.9310(5) 0.7311(15) 0.0250(5)
H7_4 H 0.909490 0.824618 0.006132
C14_4 C 0.9328(5) 0.4367(15) 0.0530(5)
H8_4 H 0.912945 0.329865 0.053092
C15_4 C 0.9909(5) 0.7521(16) 0.0499(5)
C16_4 C 0.9928(6) 0.4509(16) 0.0788(5)
N2_4 N 0.7339(4) 0.6245(13) 0.8624(4)
C4_4 C 0.7139(5) 0.5060(15) 0.9501(5)
H2_3 H 0.672548 0.490385 0.933010
C6_4 C 0.7557(5) 0.5752(14) 0.9200(5)
C8_4 C 0.8175(5) 0.6030(16) 0.9440(5)
H3_4 H 0.845114 0.651936 0.923542
C9_4 C 0.7051(6) 0.5064(16) 0.8246(5)
H4_3 H 0.700502 0.392296 0.835995
C10_4 C 0.7180(6) 0.8473(17) 0.7931(5)
H5_4 H 0.721851 0.963785 0.783987
C11_4 C 0.7401(6) 0.7904(16) 0.8470(5)
H6_4 H 0.759929 0.869178 0.873650
C12_4 C 0.6894(5) 0.7279(17) 0.7513(5)
C17_4 C 0.6825(6) 0.5530(17) 0.7698(5)
H11_3 H 0.662693 0.470652 0.744420
H2_4 H 0.827452 0.009615 0.066990
H4_4 H 0.799498 0.107704 0.164005
H11_4 H 0.837307 0.029348 0.255580
O2_3 O 0.7925(4) 0.1456(11) 0.9092(3)
O3_5 O 0.8686(4) 0.1145(11) 0.9838(4)
C1_5 C 0.7039(6) 0.0173(15) 0.9681(5)
H1_5 H 0.690075 0.049164 0.930662
C2_5 C 0.7660(5) 0.0402(15) 0.9940(5)
C5_5 C 0.8134(5) 0.1079(15) 0.9608(5)
C14_5 C 0.5672(5) 0.0633(15) 0.9470(5)
H8_5 H 0.587055 0.170135 0.946908
C16_5 C 0.5072(6) 0.0491(16) 0.9212(5)
H10_5 H 0.486650 0.145791 0.903432
Zn2_2 Zn 0.86586(6) 0.17722(17) 0.87323(5)
Zn1_2 Zn 0.36586(6) 0.67722(17) 0.87323(5)
O4_5 O 0.4181(4) 0.8784(11) 0.8957(4)
N1_5 N 0.5995(4) 0.9251(13) 0.9732(4)
C3_5 C 0.6634(5) 0.9456(16) 0.9996(5)
C7_5 C 0.4746(5) 0.8883(16) 0.9206(5)
C13_5 C 0.5690(5) 0.7689(15) 0.9750(5)
H7_5 H 0.590510 0.675382 0.993868
C15_5 C 0.5091(5) 0.7479(16) 0.9501(5)
H9_5 H 0.490001 0.640638 0.952053
Cl1_3 Cl 0.41349(15) 0.4211(4) 0.86799(14)
O5_3 O 0.3272(4) 0.7814(11) 0.7994(3)
O6_3 O 0.2925(4) 0.6456(11) 0.9092(3)
O1_3 O 0.3272(4) 0.2186(11) 0.2994(3)
N2_5 N 0.2661(4) 0.3755(13) 0.1376(4)
C4_5 C 0.2861(5) 0.4940(15) 0.0499(5)
H2_5 H 0.327452 0.509615 0.066990
C6_5 C 0.2443(5) 0.4248(14) 0.0800(5)
C8_5 C 0.1825(5) 0.3970(16) 0.0560(5)
H3_5 H 0.154886 0.348064 0.076458
C9_5 C 0.2949(6) 0.4936(16) 0.1754(5)
H4_5 H 0.299498 0.607704 0.164005
C10_5 C 0.2820(6) 0.1527(17) 0.2069(5)
H5_5 H 0.278149 0.036215 0.216013
C11_5 C 0.2599(6) 0.2096(16) 0.1530(5)
H6_5 H 0.240071 0.130822 0.126350
C12_5 C 0.3106(5) 0.2721(17) 0.2487(5)
C17_5 C 0.3175(6) 0.4470(17) 0.2302(5)
H11_5 H 0.337307 0.529348 0.255580
Zn3_3 Zn 0.36586(6) 0.32278(17) 0.37323(5)
O3_6 O 0.3686(4) 0.6145(11) 0.9838(4)
N1_6 N 0.0995(4) 0.4251(13) 0.9732(4)
C1_6 C 0.2039(6) 0.5173(15) 0.9681(5)
H1_6 H 0.190075 0.549164 0.930662
C2_6 C 0.2660(5) 0.5402(15) 0.9940(5)
C3_6 C 0.1634(5) 0.4456(16) 0.9996(5)
C5_6 C 0.3134(5) 0.6079(15) 0.9608(5)
C13_6 C 0.0690(5) 0.2689(15) 0.9750(5)
H7_6 H 0.090510 0.175382 0.993868
C14_6 C 0.0672(5) 0.5633(15) 0.9470(5)
H8_6 H 0.087055 0.670135 0.946908
C15_6 C 0.0091(5) 0.2479(16) 0.9501(5)
C16_6 C 0.0072(6) 0.5491(16) 0.9212(5)
O4_6 O 0.9181(4) 0.3784(11) 0.8957(4)
C7_6 C 0.9746(5) 0.3883(16) 0.9206(5)
H9_6 H 0.990001 0.140638 0.952053
H10_6 H 0.986650 0.645791 0.903432
O5_4 O 0.8272(4) 0.2814(11) 0.7994(3)
O4_7 O 0.4181(4) 0.1216(11) 0.3957(4)
N1_7 N 0.5995(4) 0.0749(13) 0.4732(4)
N2_6 N 0.7661(4) 0.1245(13) 0.6376(4)
C3_7 C 0.6634(5) 0.0544(16) 0.4996(5)
C4_6 C 0.7861(5) 0.0060(15) 0.5499(5)
C6_6 C 0.7443(5) 0.0752(14) 0.5800(5)
C7_7 C 0.4746(5) 0.1117(16) 0.4206(5)
C8_6 C 0.6825(5) 0.1030(16) 0.5560(5)
H3_6 H 0.654886 0.151936 0.576458
C9_6 C 0.7949(6) 0.0064(16) 0.6754(5)
C10_6 C 0.7820(6) 0.3473(17) 0.7069(5)
H5_6 H 0.778149 0.463785 0.716013
C11_6 C 0.7599(6) 0.2904(16) 0.6530(5)
H6_6 H 0.740071 0.369178 0.626350
C12_6 C 0.8106(5) 0.2279(17) 0.7487(5)
C13_7 C 0.5690(5) 0.2311(15) 0.4750(5)
H7_7 H 0.590510 0.324618 0.493868
C15_7 C 0.5091(5) 0.2521(16) 0.4501(5)
H9_7 H 0.490001 0.359362 0.452053
C17_6 C 0.8175(6) 0.0530(17) 0.7302(5)
Cl1_4 Cl 0.41349(15) 0.5789(4) 0.36799(14)
O6_4 O 0.2925(4) 0.3544(11) 0.4092(3)
O3_7 O 0.3686(4) 0.3855(11) 0.4838(4)
N1_8 N 0.0995(4) 0.5749(13) 0.4732(4)
N2_7 N 0.2661(4) 0.6245(13) 0.6376(4)
C1_7 C 0.2039(6) 0.4827(15) 0.4681(5)
H1_7 H 0.190075 0.450836 0.430662
C2_7 C 0.2660(5) 0.4598(15) 0.4940(5)
C3_8 C 0.1634(5) 0.5544(16) 0.4996(5)
C4_7 C 0.2861(5) 0.5060(15) 0.5499(5)
H2_6 H 0.327452 0.490385 0.566990
C5_7 C 0.3134(5) 0.3921(15) 0.4608(5)
C6_7 C 0.2443(5) 0.5752(14) 0.5800(5)
C8_7 C 0.1825(5) 0.6030(16) 0.5560(5)
H3_7 H 0.154886 0.651936 0.576458
C9_7 C 0.2949(6) 0.5064(16) 0.6754(5)
H4_6 H 0.299498 0.392296 0.664005
C10_7 C 0.2820(6) 0.8473(17) 0.7069(5)
H5_7 H 0.278149 0.963785 0.716013
C11_7 C 0.2599(6) 0.7904(16) 0.6530(5)
H6_7 H 0.240071 0.869178 0.626350
C12_7 C 0.3106(5) 0.7279(17) 0.7487(5)
C13_8 C 0.0690(5) 0.7311(15) 0.4750(5)
H7_8 H 0.090510 0.824618 0.493868
C14_7 C 0.0672(5) 0.4367(15) 0.4470(5)
H8_7 H 0.087055 0.329865 0.446908
C15_8 C 0.0091(5) 0.7521(16) 0.4501(5)
C16_7 C 0.0072(6) 0.4509(16) 0.4212(5)
C17_7 C 0.3175(6) 0.5530(17) 0.7302(5)
H11_6 H 0.337307 0.470652 0.755580
O1_4 O 0.8272(4) 0.7186(11) 0.2994(3)
N2_8 N 0.7661(4) 0.8755(13) 0.1376(4)
C4_8 C 0.7861(5) 0.9940(15) 0.0499(5)
C6_8 C 0.7443(5) 0.9248(14) 0.0800(5)
C8_8 C 0.6825(5) 0.8970(16) 0.0560(5)
H3_8 H 0.654886 0.848064 0.076458
C9_8 C 0.7949(6) 0.9936(16) 0.1754(5)
C10_8 C 0.7820(6) 0.6527(17) 0.2069(5)
H5_8 H 0.778149 0.536215 0.216013
C11_8 C 0.7599(6) 0.7096(16) 0.1530(5)
H6_8 H 0.740071 0.630822 0.126350
C12_8 C 0.8106(5) 0.7721(17) 0.2487(5)
C17_8 C 0.8175(6) 0.9470(17) 0.2302(5)
Zn3_4 Zn 0.86586(6) 0.82278(17) 0.37323(5)
O2_4 O 0.7925(4) 0.8544(11) 0.4092(3)
O3_8 O 0.8686(4) 0.8855(11) 0.4838(4)
C1_8 C 0.7039(6) 0.9827(15) 0.4681(5)
H1_8 H 0.690075 0.950836 0.430662
C2_8 C 0.7660(5) 0.9598(15) 0.4940(5)
H2_7 H 0.827452 0.990385 0.566990
C5_8 C 0.8134(5) 0.8921(15) 0.4608(5)
H4_7 H 0.799498 0.892296 0.664005
C14_8 C 0.5672(5) 0.9367(15) 0.4470(5)
H8_8 H 0.587055 0.829865 0.446908
C16_8 C 0.5072(6) 0.9509(16) 0.4212(5)
H10_7 H 0.486650 0.854209 0.403432
H11_7 H 0.837307 0.970652 0.755580
O4_8 O 0.9181(4) 0.6216(11) 0.3957(4)
C7_8 C 0.9746(5) 0.6117(16) 0.4206(5)
H9_8 H 0.990001 0.859362 0.452053
H10_8 H 0.986650 0.354209 0.403432
Cl1_5 Cl 0.08651(15) 0.9211(4) 0.63201(14)
Cl1_6 Cl 0.91349(15) 0.9211(4) 0.86799(14)
H2_8 H 0.172548 0.990385 0.933010
H4_8 H 0.200502 0.892296 0.835995
H11_8 H 0.162693 0.970652 0.744420
Cl1_7 Cl 0.91349(15) 0.0789(4) 0.36799(14)
Cl1_8 Cl 0.08651(15) 0.0789(4) 0.13201(14)
loop_
_geom_bond_atom_site_label_1
_geom_bond_atom_site_label_2
_geom_bond_site_symmetry_1
_geom_bond_site_symmetry_2
O2 C5 1_555 1_555
O3 C5 1_555 1_555
C1 H1 1_555 1_555
C2 C1 1_555 1_555
C5 C2 1_555 1_555
H8 C14 1_555 1_555
H10 C16 1_555 1_555
Zn2 O2 1_555 1_555
C14 C16 1_555 1_555
Zn2 O4 1_555 1_555
O4 C7 1_555 1_555
O5 Zn2 1_555 1_555
O5 C12 1_555 1_555
N2 C6 1_555 1_555
C6 C4 1_555 1_555
H3 C8 1_555 1_555
C9 N2 1_555 1_555
C10 H5 1_555 1_555
C11 N2 1_555 1_555
H6 C11 1_555 1_555
C12 C10 1_555 1_555
C17 C9 1_555 1_555
C6 C8 1_555 1_555
C10 C11 1_555 1_555
C12 C17 1_555 1_555
Zn1 O4_2 1_555 1_555
O1 C12_2 1_555 1_555
O4_2 C7_2 1_555 1_555
N1 C3 1_555 1_555
N2_2 C6_2 1_555 1_555
C6_2 C4_2 1_555 1_555
C7_2 C15 1_555 1_555
C8_2 C3 1_555 1_555
H3_2 C8_2 1_555 1_555
C9_2 N2_2 1_555 1_555
C10_2 H5_2 1_555 1_555
C11_2 N2_2 1_555 1_555
H6_2 C11_2 1_555 1_555
C12_2 C10_2 1_555 1_555
C13 N1 1_555 1_555
H7 C13 1_555 1_555
C15 C13 1_555 1_555
H9_2 C15 1_555 1_555
C17_2 C9_2 1_555 1_555
Cl1 Zn1 1_555 1_555
Zn3 O1 1_555 1_555
O5_2 Zn1 1_555 1_555
O6 Zn1 1_555 1_555
C6_2 C8_2 1_555 1_555
C10_2 C11_2 1_555 1_555
C12_2 C17_2 1_555 1_555
O1_2 C12_3 1_555 1_555
O6 C5_2 1_555 1_555
O3_2 C5_2 1_555 1_555
N1_2 C3_2 1_555 1_555
N2_3 C6_3 1_555 1_555
C1_2 H1_2 1_555 1_555
C2_2 C1_2 1_555 1_555
C3_2 C1_2 1_555 1_555
C4_3 C2_2 1_555 1_555
H2_2 C4_3 1_555 1_555
C5_2 C2_2 1_555 1_555
C6_3 C4_3 1_555 1_555
C8_3 C3_2 1_555 1_555
H3_3 C8_3 1_555 1_555
C9_3 N2_3 1_555 1_555
H4_2 C9_3 1_555 1_555
C10_3 H5_3 1_555 1_555
C11_3 N2_3 1_555 1_555
H6_3 C11_3 1_555 1_555
C12_3 C10_3 1_555 1_555
C13_2 N1_2 1_555 1_555
H7_2 C13_2 1_555 1_555
C14_2 N1_2 1_555 1_555
H8_2 C14_2 1_555 1_555
C15_2 C13_2 1_555 1_555
C17_3 C9_3 1_555 1_555
H11_2 C17_3 1_555 1_555
Zn3_2 O1_2 1_555 1_555
C6_3 C8_3 1_555 1_555
C10_3 C11_3 1_555 1_555
C12_3 C17_3 1_555 1_555
C14_2 C16_2 1_555 1_555
Zn3_2 O4_3 1_555 1_555
O4_3 C7_3 1_555 1_555
N1_3 C3_3 1_555 1_555
C7_3 C15_3 1_555 1_555
C13_3 N1_3 1_555 1_555
H7_3 C13_3 1_555 1_555
C15_3 C13_3 1_555 1_555
H9_3 C15_3 1_555 1_555
Cl1_2 Zn3_2 1_555 1_555
O6_2 Zn3_2 1_555 1_555
O2_2 C5_3 1_555 1_555
O3_3 C5_3 1_555 1_555
C1_3 H1_3 1_555 1_555
C2_3 C1_3 1_555 1_555
C5_3 C2_3 1_555 1_555
H8_3 C14_3 1_555 1_555
H10_3 C16_3 1_555 1_555
Zn3 O2_2 1_555 1_555
C14_3 C16_3 1_555 1_555
Zn3 O4_4 1_555 1_555
O4_4 C7_4 1_555 1_555
O6_2 C5_4 1_555 1_555
O3_4 C5_4 1_555 1_555
N1_4 C3_4 1_555 1_555
C1_4 H1_4 1_555 1_555
C2_4 C1_4 1_555 1_555
C3_4 C1_4 1_555 1_555
C5_4 C2_4 1_555 1_555
C13_4 N1_4 1_555 1_555
H7_4 C13_4 1_555 1_555
C14_4 N1_4 1_555 1_555
H8_4 C14_4 1_555 1_555
C15_4 C13_4 1_555 1_555
C14_4 C16_4 1_555 1_555
O5_2 C12_4 1_555 1_555
N2_4 C6_4 1_555 1_555
H2_3 C4_4 1_555 1_555
C6_4 C4_4 1_555 1_555
H3_4 C8_4 1_555 1_555
C9_4 N2_4 1_555 1_555
H4_3 C9_4 1_555 1_555
C10_4 H5_4 1_555 1_555
C11_4 N2_4 1_555 1_555
H6_4 C11_4 1_555 1_555
C12_4 C10_4 1_555 1_555
C17_4 C9_4 1_555 1_555
H11_3 C17_4 1_555 1_555
C6_4 C8_4 1_555 1_555
C10_4 C11_4 1_555 1_555
C12_4 C17_4 1_555 1_555
O2_3 C5_5 1_555 1_555
O3_5 C5_5 1_555 1_555
C1_5 H1_5 1_555 1_555
C2_5 C1_5 1_555 1_555
C5_5 C2_5 1_555 1_555
H8_5 C14_5 1_555 1_555
H10_5 C16_5 1_555 1_555
Zn2_2 O2_3 1_555 1_555
C14_5 C16_5 1_555 1_555
Zn1_2 O4_5 1_555 1_555
O4_5 C7_5 1_555 1_555
N1_5 C3_5 1_555 1_555
C7_5 C15_5 1_555 1_555
C13_5 N1_5 1_555 1_555
H7_5 C13_5 1_555 1_555
C15_5 C13_5 1_555 1_555
H9_5 C15_5 1_555 1_555
Cl1_3 Zn1_2 1_555 1_555
O5_3 Zn1_2 1_555 1_555
O6_3 Zn1_2 1_555 1_555
O1_3 C12_5 1_555 1_555
N2_5 C6_5 1_555 1_555
H2_5 C4_5 1_555 1_555
C6_5 C4_5 1_555 1_555
H3_5 C8_5 1_555 1_555
C9_5 N2_5 1_555 1_555
H4_5 C9_5 1_555 1_555
C10_5 H5_5 1_555 1_555
C11_5 N2_5 1_555 1_555
H6_5 C11_5 1_555 1_555
C12_5 C10_5 1_555 1_555
C17_5 C9_5 1_555 1_555
H11_5 C17_5 1_555 1_555
Zn3_3 O1_3 1_555 1_555
C6_5 C8_5 1_555 1_555
C10_5 C11_5 1_555 1_555
C12_5 C17_5 1_555 1_555
O6_3 C5_6 1_555 1_555
O3_6 C5_6 1_555 1_555
N1_6 C3_6 1_555 1_555
C1_6 H1_6 1_555 1_555
C2_6 C1_6 1_555 1_555
C3_6 C1_6 1_555 1_555
C5_6 C2_6 1_555 1_555
C13_6 N1_6 1_555 1_555
H7_6 C13_6 1_555 1_555
C14_6 N1_6 1_555 1_555
H8_6 C14_6 1_555 1_555
C15_6 C13_6 1_555 1_555
C14_6 C16_6 1_555 1_555
Zn2_2 O4_6 1_555 1_555
O4_6 C7_6 1_555 1_555
O5_4 Zn2_2 1_555 1_555
Zn3_3 O4_7 1_555 1_555
O5_4 C12_6 1_555 1_555
O4_7 C7_7 1_555 1_555
N1_7 C3_7 1_555 1_555
N2_6 C6_6 1_555 1_555
C6_6 C4_6 1_555 1_555
C7_7 C15_7 1_555 1_555
C8_6 C3_7 1_555 1_555
H3_6 C8_6 1_555 1_555
C9_6 N2_6 1_555 1_555
C10_6 H5_6 1_555 1_555
C11_6 N2_6 1_555 1_555
H6_6 C11_6 1_555 1_555
C12_6 C10_6 1_555 1_555
C13_7 N1_7 1_555 1_555
H7_7 C13_7 1_555 1_555
C15_7 C13_7 1_555 1_555
H9_7 C15_7 1_555 1_555
C17_6 C9_6 1_555 1_555
Cl1_4 Zn3_3 1_555 1_555
O6_4 Zn3_3 1_555 1_555
C6_6 C8_6 1_555 1_555
C10_6 C11_6 1_555 1_555
C12_6 C17_6 1_555 1_555
O5_3 C12_7 1_555 1_555
O6_4 C5_7 1_555 1_555
O3_7 C5_7 1_555 1_555
N1_8 C3_8 1_555 1_555
N2_7 C6_7 1_555 1_555
C1_7 H1_7 1_555 1_555
C2_7 C1_7 1_555 1_555
C3_8 C1_7 1_555 1_555
C4_7 C2_7 1_555 1_555
H2_6 C4_7 1_555 1_555
C5_7 C2_7 1_555 1_555
C6_7 C4_7 1_555 1_555
C8_7 C3_8 1_555 1_555
H3_7 C8_7 1_555 1_555
C9_7 N2_7 1_555 1_555
H4_6 C9_7 1_555 1_555
C10_7 H5_7 1_555 1_555
C11_7 N2_7 1_555 1_555
H6_7 C11_7 1_555 1_555
C12_7 C10_7 1_555 1_555
C13_8 N1_8 1_555 1_555
H7_8 C13_8 1_555 1_555
C14_7 N1_8 1_555 1_555
H8_7 C14_7 1_555 1_555
C15_8 C13_8 1_555 1_555
C17_7 C9_7 1_555 1_555
H11_6 C17_7 1_555 1_555
C6_7 C8_7 1_555 1_555
C10_7 C11_7 1_555 1_555
C12_7 C17_7 1_555 1_555
C14_7 C16_7 1_555 1_555
O1_4 C12_8 1_555 1_555
N2_8 C6_8 1_555 1_555
C6_8 C4_8 1_555 1_555
H3_8 C8_8 1_555 1_555
C9_8 N2_8 1_555 1_555
C10_8 H5_8 1_555 1_555
C11_8 N2_8 1_555 1_555
H6_8 C11_8 1_555 1_555
C12_8 C10_8 1_555 1_555
C17_8 C9_8 1_555 1_555
Zn3_4 O1_4 1_555 1_555
C6_8 C8_8 1_555 1_555
C10_8 C11_8 1_555 1_555
C12_8 C17_8 1_555 1_555
O2_4 C5_8 1_555 1_555
O3_8 C5_8 1_555 1_555
C1_8 H1_8 1_555 1_555
C2_8 C1_8 1_555 1_555
C5_8 C2_8 1_555 1_555
H8_8 C14_8 1_555 1_555
H10_7 C16_8 1_555 1_555
Zn3_4 O2_4 1_555 1_555
C14_8 C16_8 1_555 1_555
Zn3_4 O4_8 1_555 1_555
O4_8 C7_8 1_555 1_555

#END
