
###############################################################################
#
# This file contains modified crystal structure data generated from the
# MOF subset of the Cambridge Structural Database (CSD) v543 
# hosted by the Cambridge Crystallographic Data Centre (CCDC).
#
# This work is licensed under the Creative Commons
# Attribution-NonCommercial-ShareAlike 4.0 International License.
# To view a copy of this license, visit
# http://creativecommons.org/licenses/by-nc-sa/4.0/
# or send a letter to
# Creative Commons, PO Box 1866, Mountain View, CA 94042, USA.
#
# CIF created using the CSD Python API on 29 September 2022
# The structure has been converted into the P1 space group
# The structure has a 3D framework
# The original CSD entry PUTYEI is in the cubic crystal system
# The original CSD entry PUTYEI is in a Sohncke space group
# The framework has been calculated to contain at least 10.0% void space
# The void calculation uses a probe of radius 1.32A, grid spacing 0.4
# The framework is charged, counterions have been retained in the structure
# H atom positions have been added when not included in the experimental data
#
###############################################################################

data_PUTYEI
_chemical_formula_moiety         '(C48 H24 Ag3 N24 3+)n'
_symmetry_cell_setting           triclinic
_symmetry_space_group_name_H-M   'P 1'
_symmetry_Int_Tables_number      1
_space_group_name_Hall           'P 1'
loop_
_symmetry_equiv_pos_site_id
_symmetry_equiv_pos_as_xyz
1 x,y,z
_cell_length_a                   12.463(1)
_cell_length_b                   12.463(1)
_cell_length_c                   12.463(1)
_cell_angle_alpha                90
_cell_angle_beta                 90
_cell_angle_gamma                90
_cell_volume                     1935.83
loop_
_atom_site_label
_atom_site_type_symbol
_atom_site_fract_x
_atom_site_fract_y
_atom_site_fract_z
C3 C 0.6087(14) 0.1361(17) 0.0486(18)
C4 C 0.6965(15) 0.1887(14) 0.0929(17)
N5 N 0.3250(16) 0.0447(13) 0.0616(14)
Ag3 Ag 0.8877(2) 0.3877(2) 0.1123(2)
N10 N 0.7372(12) 0.2803(13) 0.0440(12)
H1 H 0.576805 0.0643878 0.0870069
H2 H 0.733421 0.158129 0.165957
Ag1 Ag 0.3877(2) 0.1123(2) 0.8877(2)
C1 C 0.6901(11) 0.3192(12) 0.9507(12)
C2 C 0.6023(14) 0.2666(12) 0.9063(12)
N1 N 0.5616(14) 0.1750(16) 0.9553(13)
N2 N 0.2803(13) 0.0440(12) 0.7372(12)
C5 C 0.7334(12) 0.4063(12) 0.8977(14)
C6 C 0.6808(12) 0.4507(12) 0.8099(11)
C7 C 0.5937(12) 0.3977(14) 0.7666(12)
C8 C 0.5493(12) 0.3099(11) 0.8192(12)
N3 N 0.4560(12) 0.2628(12) 0.7803(13)
N6 N 0.2372(12) 0.2197(13) 0.9560(12)
C9 C 0.4071(17) 0.3035(15) 0.6887(14)
N7 N 0.5447(13) 0.4384(14) 0.6750(16)
Ag2 Ag 0.6123(2) 0.6123(2) 0.6123(2)
C10 C 0.4514(18) 0.3913(14) 0.6361(17)
N8 N 0.7197(13) 0.5440(12) 0.7628(12)
N9 N 0.8250(16) 0.4553(13) 0.9384(14)
C11 C 0.8639(17) 0.5486(18) 0.8913(14)
C12 C 0.8113(14) 0.5929(17) 0.8035(15)
H3 H 0.841871 0.665957 0.766579
H4 H 0.412993 0.423195 0.564388
H5 H 0.334043 0.266579 0.658129
H6 H 0.935612 0.587007 0.923195
N4 N 0.4553(13) 0.9384(14) 0.8250(16)
C3_2 C 0.0486(18) 0.6087(14) 0.1361(17)
C4_2 C 0.0929(17) 0.6965(15) 0.1887(14)
N5_2 N 0.0616(14) 0.3250(16) 0.0447(13)
Ag3_2 Ag 0.1123(2) 0.8877(2) 0.3877(2)
N10_2 N 0.0440(12) 0.7372(12) 0.2803(13)
H1_2 H 0.0870069 0.576805 0.0643878
H2_2 H 0.165957 0.733421 0.158129
C1_2 C 0.9507(12) 0.6901(11) 0.3192(12)
C2_2 C 0.9063(12) 0.6023(14) 0.2666(12)
N1_2 N 0.9553(13) 0.5616(14) 0.1750(16)
C5_2 C 0.8977(14) 0.7334(12) 0.4063(12)
C6_2 C 0.8099(11) 0.6808(12) 0.4507(12)
C7_2 C 0.7666(12) 0.5937(12) 0.3977(14)
C8_2 C 0.8192(12) 0.5493(12) 0.3099(11)
N3_2 N 0.7803(13) 0.4560(12) 0.2628(12)
N6_2 N 0.9560(12) 0.2372(12) 0.2197(13)
C9_2 C 0.6887(14) 0.4071(17) 0.3035(15)
N7_2 N 0.6750(16) 0.5447(13) 0.4384(14)
C10_2 C 0.6361(17) 0.4514(18) 0.3913(14)
N8_2 N 0.7628(12) 0.7197(13) 0.5440(12)
N9_2 N 0.9384(14) 0.8250(16) 0.4553(13)
C11_2 C 0.8913(14) 0.8639(17) 0.5486(18)
C12_2 C 0.8035(15) 0.8113(14) 0.5929(17)
H3_2 H 0.766579 0.841871 0.665957
H4_2 H 0.564388 0.412993 0.423195
H5_2 H 0.658129 0.334043 0.266579
H6_2 H 0.923195 0.935612 0.587007
C3_3 C 0.1361(17) 0.0486(18) 0.6087(14)
C4_3 C 0.1887(14) 0.0929(17) 0.6965(15)
N5_3 N 0.0447(13) 0.0616(14) 0.3250(16)
H1_3 H 0.0643878 0.0870069 0.576805
H2_3 H 0.158129 0.165957 0.733421
C1_3 C 0.3192(12) 0.9507(12) 0.6901(11)
C2_3 C 0.2666(12) 0.9063(12) 0.6023(14)
N1_3 N 0.1750(16) 0.9553(13) 0.5616(14)
C5_3 C 0.4063(12) 0.8977(14) 0.7334(12)
C6_3 C 0.4507(12) 0.8099(11) 0.6808(12)
C7_3 C 0.3977(14) 0.7666(12) 0.5937(12)
C8_3 C 0.3099(11) 0.8192(12) 0.5493(12)
N3_3 N 0.2628(12) 0.7803(13) 0.4560(12)
N6_3 N 0.2197(13) 0.9560(12) 0.2372(12)
C9_3 C 0.3035(15) 0.6887(14) 0.4071(17)
N7_3 N 0.4384(14) 0.6750(16) 0.5447(13)
C10_3 C 0.3913(14) 0.6361(17) 0.4514(18)
N8_3 N 0.5440(12) 0.7628(12) 0.7197(13)
C11_3 C 0.5486(18) 0.8913(14) 0.8639(17)
C12_3 C 0.5929(17) 0.8035(15) 0.8113(14)
H3_3 H 0.665957 0.766579 0.841871
H4_3 H 0.423195 0.564388 0.412993
H5_3 H 0.266579 0.658129 0.334043
H6_3 H 0.587007 0.923195 0.935612
C1_4 C 0.1901(11) 0.1808(12) 0.0493(12)
C2_4 C 0.1023(14) 0.2334(12) 0.0937(12)
C5_4 C 0.2334(12) 0.0937(12) 0.1023(14)
C6_4 C 0.1808(12) 0.0493(12) 0.1901(11)
C7_4 C 0.0937(12) 0.1023(14) 0.2334(12)
C8_4 C 0.0493(12) 0.1901(11) 0.1808(12)
C3_4 C 0.1087(14) 0.3639(17) 0.9514(18)
C4_4 C 0.1965(15) 0.3113(14) 0.9071(17)
H1_4 H 0.076805 0.435612 0.912993
H2_4 H 0.233421 0.341871 0.834043
C11_4 C 0.3639(17) 0.9514(18) 0.1087(14)
C12_4 C 0.3113(14) 0.9071(17) 0.1965(15)
H3_4 H 0.341871 0.834043 0.233421
H6_4 H 0.435612 0.912993 0.076805
C9_4 C 0.9071(17) 0.1965(15) 0.3113(14)
C10_4 C 0.9514(18) 0.1087(14) 0.3639(17)
H4_4 H 0.912993 0.076805 0.435612
H5_4 H 0.834043 0.233421 0.341871
loop_
_geom_bond_atom_site_label_1
_geom_bond_atom_site_label_2
_geom_bond_site_symmetry_1
_geom_bond_site_symmetry_2
C3 C4 1_555 1_555
C4 N10 1_555 1_555
Ag3 N10 1_555 1_555
C3 H1 1_555 1_555
C4 H2 1_555 1_555
Ag1 N1 1_555 1_555
C1 C2 1_555 1_555
C2 N1 1_555 1_555
N2 Ag1 1_555 1_555
C5 C1 1_555 1_555
C6 C5 1_555 1_555
C7 C6 1_555 1_555
C8 C2 1_555 1_555
N3 Ag1 1_555 1_555
N6 Ag1 1_555 1_555
C9 N3 1_555 1_555
N7 C7 1_555 1_555
Ag2 N7 1_555 1_555
C10 C9 1_555 1_555
N8 C6 1_555 1_555
N9 C5 1_555 1_555
C11 N9 1_555 1_555
C12 N8 1_555 1_555
C7 C8 1_555 1_555
C8 N3 1_555 1_555
N7 C10 1_555 1_555
Ag2 N8 1_555 1_555
C11 C12 1_555 1_555
C12 H3 1_555 1_555
C10 H4 1_555 1_555
C9 H5 1_555 1_555
C11 H6 1_555 1_555
C3_2 C4_2 1_555 1_555
C4_2 N10_2 1_555 1_555
Ag3_2 N10_2 1_555 1_555
C3_2 H1_2 1_555 1_555
C4_2 H2_2 1_555 1_555
Ag3 N1_2 1_555 1_555
C1_2 C2_2 1_555 1_555
C2_2 N1_2 1_555 1_555
C5_2 C1_2 1_555 1_555
C6_2 C5_2 1_555 1_555
C7_2 C6_2 1_555 1_555
C8_2 C2_2 1_555 1_555
N3_2 Ag3 1_555 1_555
N6_2 Ag3 1_555 1_555
C9_2 N3_2 1_555 1_555
N7_2 C7_2 1_555 1_555
Ag2 N7_2 1_555 1_555
C10_2 C9_2 1_555 1_555
N8_2 C6_2 1_555 1_555
N9_2 C5_2 1_555 1_555
C11_2 N9_2 1_555 1_555
C12_2 N8_2 1_555 1_555
C7_2 C8_2 1_555 1_555
C8_2 N3_2 1_555 1_555
N7_2 C10_2 1_555 1_555
Ag2 N8_2 1_555 1_555
C11_2 C12_2 1_555 1_555
C12_2 H3_2 1_555 1_555
C10_2 H4_2 1_555 1_555
C9_2 H5_2 1_555 1_555
C11_2 H6_2 1_555 1_555
C3_3 C4_3 1_555 1_555
C4_3 N2 1_555 1_555
C3_3 H1_3 1_555 1_555
C4_3 H2_3 1_555 1_555
Ag3_2 N1_3 1_555 1_555
C1_3 C2_3 1_555 1_555
C2_3 N1_3 1_555 1_555
C5_3 C1_3 1_555 1_555
C6_3 C5_3 1_555 1_555
C7_3 C6_3 1_555 1_555
C8_3 C2_3 1_555 1_555
N3_3 Ag3_2 1_555 1_555
N6_3 Ag3_2 1_555 1_555
C9_3 N3_3 1_555 1_555
N7_3 C7_3 1_555 1_555
Ag2 N7_3 1_555 1_555
C10_3 C9_3 1_555 1_555
N8_3 C6_3 1_555 1_555
N4 C5_3 1_555 1_555
C11_3 N4 1_555 1_555
C12_3 N8_3 1_555 1_555
C7_3 C8_3 1_555 1_555
C8_3 N3_3 1_555 1_555
N7_3 C10_3 1_555 1_555
Ag2 N8_3 1_555 1_555
C11_3 C12_3 1_555 1_555
C12_3 H3_3 1_555 1_555
C10_3 H4_3 1_555 1_555
C9_3 H5_3 1_555 1_555
C11_3 H6_3 1_555 1_555
C1_4 C2_4 1_555 1_555
C2_4 N5_2 1_555 1_555
C5_4 C1_4 1_555 1_555
C6_4 C5_4 1_555 1_555
C7_4 C6_4 1_555 1_555
C8_4 C2_4 1_555 1_555
N5_3 C7_4 1_555 1_555
N5 C5_4 1_555 1_555
C7_4 C8_4 1_555 1_555
C3_4 C4_4 1_555 1_555
C4_4 N6 1_555 1_555
C3_4 H1_4 1_555 1_555
C4_4 H2_4 1_555 1_555
C12_4 N6_3 1_555 1_555
C11_4 C12_4 1_555 1_555
C12_4 H3_4 1_555 1_555
C11_4 H6_4 1_555 1_555
C9_4 N6_2 1_555 1_555
C10_4 C9_4 1_555 1_555
C10_4 H4_4 1_555 1_555
C9_4 H5_4 1_555 1_555

#END
