
###############################################################################
#
# This file contains modified crystal structure data generated from the
# MOF subset of the Cambridge Structural Database (CSD) v543 
# hosted by the Cambridge Crystallographic Data Centre (CCDC).
#
# This work is licensed under the Creative Commons
# Attribution-NonCommercial-ShareAlike 4.0 International License.
# To view a copy of this license, visit
# http://creativecommons.org/licenses/by-nc-sa/4.0/
# or send a letter to
# Creative Commons, PO Box 1866, Mountain View, CA 94042, USA.
#
# CIF created using the CSD Python API on 29 September 2022
# The structure has been converted into the P1 space group
# The structure has a 3D framework
# The original CSD entry PUXTAF is in the monoclinic crystal system
# The framework has been calculated to contain at least 10.0% void space
# The void calculation uses a probe of radius 1.32A, grid spacing 0.4
#
###############################################################################

data_PUXTAF
_chemical_formula_moiety         '(C24 H24 N32 O16 Zn8)n'
_symmetry_cell_setting           triclinic
_symmetry_space_group_name_H-M   'P 1'
_symmetry_Int_Tables_number      1
_space_group_name_Hall           'P 1'
loop_
_symmetry_equiv_pos_site_id
_symmetry_equiv_pos_as_xyz
1 x,y,z
_cell_length_a                   17.576(4)
_cell_length_b                   7.9026(16)
_cell_length_c                   10.347(2)
_cell_angle_alpha                90
_cell_angle_beta                 100.213(7)
_cell_angle_gamma                90
_cell_volume                     1414.39
loop_
_atom_site_label
_atom_site_type_symbol
_atom_site_fract_x
_atom_site_fract_y
_atom_site_fract_z
Zn2 Zn 0.15536(7) 0.44280(18) 0.08166(13)
N5 N 0.3125(5) 0.6315(12) 0.1220(9)
N6 N 0.2388(5) 0.6280(12) 0.1491(9)
C3 C 0.3521(6) 0.7160(15) 0.2206(12)
H4 H 0.4061 0.7363 0.2294
C4 C 0.2405(7) 0.7122(17) 0.2584(14)
N7 N 0.3102(5) 0.7709(12) 0.3072(9)
N8 N 0.1782(7) 0.730(2) 0.3197(14)
H5 H 0.1338 0.6826 0.2858
H6 H 0.1826 0.7877 0.3932
C5 C 0.0097(7) 0.5947(16) 0.0008(14)
O1 O 0.0778(5) 0.6370(12) 0.0415(12)
O6 O 0.0454(4) 0.3092(11) 0.0413(10)
C8 C 0.5093(7) 0.5921(15) 0.0111(12)
O7 O 0.5793(4) 0.6323(11) 0.0373(10)
O8 O 0.4530(4) 0.6950(10) 0.0030(10)
Zn6 Zn 0.65700(8) 0.43994(17) 0.04539(14)
Zn7 Zn 0.34300(8) 0.93994(17) 0.45461(14)
N18 N 0.1876(5) 0.2860(12) 0.2337(9)
Zn1 Zn 0.34300(8) 0.56006(17) 0.95461(14)
N1 N 0.2581(5) 0.3842(13) 0.8817(10)
N2 N 0.1895(5) 0.3487(12) 0.9199(8)
C1 C 0.1502(6) 0.2487(17) 0.8328(12)
H1 H 0.1005 0.2051 0.8388
N3 N 0.1876(5) 0.2140(12) 0.7337(9)
C2 C 0.2546(6) 0.3001(15) 0.7686(11)
N4 N 0.3105(7) 0.3004(18) 0.6954(13)
H2 H 0.3531 0.3588 0.7210
H3 H 0.3045 0.2421 0.6218
C6 C 0.4907(7) 0.4079(15) 0.9889(12)
O3 O 0.4207(4) 0.3677(11) 0.9627(10)
O4 O 0.5470(4) 0.3050(10) 0.9970(10)
Zn9 Zn 0.15536(7) 0.05720(18) 0.58166(13)
N20 N 0.3102(5) 0.7291(12) 0.8072(9)
N9 N 0.7419(5) 0.6158(13) 0.1183(10)
N10 N 0.8105(5) 0.6513(12) 0.0801(8)
C9 C 0.8498(6) 0.7513(17) 0.1672(12)
H7 H 0.8995 0.7949 0.1612
N11 N 0.8124(5) 0.7860(12) 0.2663(9)
C10 C 0.7454(6) 0.6999(15) 0.2314(11)
N12 N 0.6895(7) 0.6996(18) 0.3046(13)
H8 H 0.6469 0.6412 0.2790
H9 H 0.6955 0.7579 0.3782
Zn8 Zn 0.84464(7) 0.94280(18) 0.41834(13)
N19 N 0.6898(5) 0.2709(12) 0.1928(9)
O2 O 0.9546(4) 0.6908(11) 0.9587(10)
C7 C 0.9903(7) 0.4053(16) 0.9992(14)
O5 O 0.9222(5) 0.3630(12) 0.9585(12)
Zn4 Zn 0.84464(7) 0.55720(18) 0.91834(13)
N13 N 0.6875(5) 0.3685(12) 0.8780(9)
N14 N 0.7612(5) 0.3720(12) 0.8509(9)
C11 C 0.6479(6) 0.2840(15) 0.7794(12)
H10 H 0.5939 0.2637 0.7706
C12 C 0.7595(7) 0.2878(17) 0.7416(14)
N15 N 0.6898(5) 0.2291(12) 0.6928(9)
N16 N 0.8218(7) 0.270(2) 0.6803(14)
H11 H 0.8662 0.3174 0.7142
H12 H 0.8174 0.2123 0.6068
Zn5 Zn 0.65700(8) 0.06006(17) 0.54539(14)
N17 N 0.8124(5) 0.7140(12) 0.7663(9)
O2_2 O 0.0454(4) 0.1908(11) 0.5413(10)
N9_2 N 0.2581(5) 0.1158(13) 0.3817(10)
N10_2 N 0.1895(5) 0.1513(12) 0.4199(8)
C9_2 C 0.1502(6) 0.2513(17) 0.3328(12)
H7_2 H 0.1005 0.2949 0.3388
C10_2 C 0.2546(6) 0.1999(15) 0.2686(11)
N12_2 N 0.3105(7) 0.1996(18) 0.1954(13)
H8_2 H 0.3531 0.1412 0.2210
H9_2 H 0.3045 0.2579 0.1218
O9 O 0.4207(4) 0.1323(11) 0.4627(10)
C7_2 C 0.0097(7) 0.9053(16) 0.5008(14)
O5_2 O 0.0778(5) 0.8630(12) 0.5415(12)
N13_2 N 0.3125(5) 0.8685(12) 0.6220(9)
N14_2 N 0.2388(5) 0.8720(12) 0.6491(9)
C11_2 C 0.3521(6) 0.7840(15) 0.7206(12)
H10_2 H 0.4061 0.7637 0.7294
C12_2 C 0.2405(7) 0.7878(17) 0.7584(14)
N16_2 N 0.1782(7) 0.770(2) 0.8197(14)
H11_2 H 0.1338 0.8174 0.7858
H12_2 H 0.1826 0.7123 0.8932
O10 O 0.4530(4) 0.8050(10) 0.5030(10)
N5_2 N 0.6875(5) 0.1315(12) 0.3780(9)
N6_2 N 0.7612(5) 0.1280(12) 0.3509(9)
C3_2 C 0.6479(6) 0.2160(15) 0.2794(12)
H4_2 H 0.5939 0.2363 0.2706
C4_2 C 0.7595(7) 0.2122(17) 0.2416(14)
N8_2 N 0.8218(7) 0.230(2) 0.1803(14)
H5_2 H 0.8662 0.1826 0.2142
H6_2 H 0.8174 0.2877 0.1068
C5_2 C 0.9903(7) 0.0947(16) 0.4992(14)
O1_2 O 0.9222(5) 0.1370(12) 0.4585(12)
C8_2 C 0.4907(7) 0.0921(15) 0.4889(12)
O8_2 O 0.5470(4) 0.1950(10) 0.4970(10)
N1_2 N 0.7419(5) 0.8842(13) 0.6183(10)
N2_2 N 0.8105(5) 0.8487(12) 0.5801(8)
C1_2 C 0.8498(6) 0.7487(17) 0.6672(12)
H1_2 H 0.8995 0.7051 0.6612
C2_2 C 0.7454(6) 0.8001(15) 0.7314(11)
N4_2 N 0.6895(7) 0.8004(18) 0.8046(13)
H2_2 H 0.6469 0.8588 0.7790
H3_2 H 0.6955 0.7421 0.8782
C6_2 C 0.5093(7) 0.9079(15) 0.5111(12)
O3_2 O 0.5793(4) 0.8677(11) 0.5373(10)
O6_2 O 0.9546(4) 0.8092(11) 0.4587(10)
loop_
_geom_bond_atom_site_label_1
_geom_bond_atom_site_label_2
_geom_bond_site_symmetry_1
_geom_bond_site_symmetry_2
N6 Zn2 1_555 1_555
C3 N5 1_555 1_555
H4 C3 1_555 1_555
C4 N6 1_555 1_555
N7 C3 1_555 1_555
N8 C4 1_555 1_555
H5 N8 1_555 1_555
H6 N8 1_555 1_555
C5 O1 1_555 1_555
O1 Zn2 1_555 1_555
O6 Zn2 1_555 1_555
O7 C8 1_555 1_555
Zn7 N7 1_555 1_555
N18 Zn2 1_555 1_555
N5 N6 1_555 1_555
C4 N7 1_555 1_555
C8 O8 1_555 1_555
O7 Zn6 1_555 1_555
Zn1 N1 1_555 1_555
N1 N2 1_555 1_555
N2 C1 1_555 1_555
C1 H1 1_555 1_555
N3 C1 1_555 1_555
C2 N1 1_555 1_555
N4 C2 1_555 1_555
H2 N4 1_555 1_555
H3 N4 1_555 1_555
C6 O3 1_555 1_555
O3 Zn1 1_555 1_555
O4 C6 1_555 1_555
Zn9 N3 1_555 1_555
N20 Zn1 1_555 1_555
N3 C2 1_555 1_555
Zn6 N9 1_555 1_555
N9 N10 1_555 1_555
C9 N10 1_555 1_555
H7 C9 1_555 1_555
N11 C9 1_555 1_555
C10 N9 1_555 1_555
N12 C10 1_555 1_555
H8 N12 1_555 1_555
H9 N12 1_555 1_555
Zn8 N11 1_555 1_555
N19 Zn6 1_555 1_555
N11 C10 1_555 1_555
O5 C7 1_555 1_555
Zn4 O2 1_555 1_555
N14 Zn4 1_555 1_555
C11 N13 1_555 1_555
H10 C11 1_555 1_555
C12 N14 1_555 1_555
N15 C11 1_555 1_555
N16 C12 1_555 1_555
H11 N16 1_555 1_555
H12 N16 1_555 1_555
Zn5 N15 1_555 1_555
N17 Zn4 1_555 1_555
O5 Zn4 1_555 1_555
N13 N14 1_555 1_555
C12 N15 1_555 1_555
Zn9 O2_2 1_555 1_555
N9_2 N10_2 1_555 1_555
N10_2 Zn9 1_555 1_555
C9_2 N10_2 1_555 1_555
H7_2 C9_2 1_555 1_555
N18 C9_2 1_555 1_555
C10_2 N9_2 1_555 1_555
N12_2 C10_2 1_555 1_555
H8_2 N12_2 1_555 1_555
H9_2 N12_2 1_555 1_555
N18 C10_2 1_555 1_555
O5_2 C7_2 1_555 1_555
N13_2 Zn7 1_555 1_555
C11_2 N13_2 1_555 1_555
H10_2 C11_2 1_555 1_555
C12_2 N14_2 1_555 1_555
N20 C11_2 1_555 1_555
N16_2 C12_2 1_555 1_555
H11_2 N16_2 1_555 1_555
H12_2 N16_2 1_555 1_555
O10 Zn7 1_555 1_555
N13_2 N14_2 1_555 1_555
C12_2 N20 1_555 1_555
N5_2 Zn5 1_555 1_555
C3_2 N5_2 1_555 1_555
H4_2 C3_2 1_555 1_555
C4_2 N6_2 1_555 1_555
N19 C3_2 1_555 1_555
N8_2 C4_2 1_555 1_555
H5_2 N8_2 1_555 1_555
H6_2 N8_2 1_555 1_555
C5_2 O1_2 1_555 1_555
O9 C8_2 1_555 1_555
O8_2 Zn5 1_555 1_555
N5_2 N6_2 1_555 1_555
C4_2 N19 1_555 1_555
C8_2 O8_2 1_555 1_555
Zn8 N2_2 1_555 1_555
N1_2 N2_2 1_555 1_555
N2_2 C1_2 1_555 1_555
C1_2 H1_2 1_555 1_555
N17 C1_2 1_555 1_555
C2_2 N1_2 1_555 1_555
N4_2 C2_2 1_555 1_555
H2_2 N4_2 1_555 1_555
H3_2 N4_2 1_555 1_555
C6_2 O3_2 1_555 1_555
O10 C6_2 1_555 1_555
O6_2 Zn8 1_555 1_555
N17 C2_2 1_555 1_555

#END
