
###############################################################################
#
# This file contains modified crystal structure data generated from the
# MOF subset of the Cambridge Structural Database (CSD) v543 
# hosted by the Cambridge Crystallographic Data Centre (CCDC).
#
# This work is licensed under the Creative Commons
# Attribution-NonCommercial-ShareAlike 4.0 International License.
# To view a copy of this license, visit
# http://creativecommons.org/licenses/by-nc-sa/4.0/
# or send a letter to
# Creative Commons, PO Box 1866, Mountain View, CA 94042, USA.
#
# CIF created using the CSD Python API on 29 September 2022
# The structure has been converted into the P1 space group
# The structure has a 3D framework
# The original CSD entry PUXTUZ is in the monoclinic crystal system
# The framework has been calculated to contain at least 10.0% void space
# The void calculation uses a probe of radius 1.32A, grid spacing 0.4
#
###############################################################################

data_PUXTUZ
_chemical_formula_moiety         '(C24 H24 N32 O16 Zn6)n'
_symmetry_cell_setting           triclinic
_symmetry_space_group_name_H-M   'P 1'
_symmetry_Int_Tables_number      1
_space_group_name_Hall           'P 1'
loop_
_symmetry_equiv_pos_site_id
_symmetry_equiv_pos_as_xyz
1 x,y,z
_cell_length_a                   9.1877(4)
_cell_length_b                   13.6108(6)
_cell_length_c                   12.5305(5)
_cell_angle_alpha                90
_cell_angle_beta                 104.6290(10)
_cell_angle_gamma                90
_cell_volume                     1516.16
loop_
_atom_site_label
_atom_site_type_symbol
_atom_site_fract_x
_atom_site_fract_y
_atom_site_fract_z
Zn1 Zn 0.53762(3) 0.47874(2) 0.35723(2)
C1 C 0.7185(3) 0.51233(17) 0.19257(19)
O1 O 0.6370(2) 0.56559(13) 0.23273(15)
O2 O 0.7748(2) 0.53115(13) 0.11310(15)
C2 C 0.7559(3) 0.41076(17) 0.2462(2)
O3 O 0.6957(2) 0.38870(13) 0.32255(14)
O4 O 0.8443(2) 0.35727(13) 0.21147(15)
C3 C 0.3085(3) 0.55019(19) 0.1560(2)
H1 H 0.3781 0.5984 0.1450
C4 C 0.2088(3) 0.43450(19) 0.2246(2)
N1 N 0.3372(2) 0.48699(15) 0.24231(17)
N2 N 0.1087(2) 0.46149(15) 0.13307(16)
N3 N 0.1751(2) 0.53793(14) 0.08940(16)
N4 N 0.1821(3) 0.3619(2) 0.2925(2)
H2 H 0.0954 0.3306 0.2763
H3 H 0.2516 0.3463 0.3524
C5 C 0.6034(3) 0.68813(17) 0.41029(19)
H4 H 0.6497 0.6941 0.3508
C6 C 0.5038(3) 0.72376(17) 0.53989(19)
N5 N 0.5670(2) 0.60363(14) 0.44645(16)
N6 N 0.5011(2) 0.62564(14) 0.53268(15)
N7 N 0.5686(2) 0.76565(14) 0.46561(16)
N8 N 0.4511(3) 0.77495(17) 0.6148(2)
H5 H 0.4122 0.7437 0.6625
H6 H 0.4557 0.8395 0.6158
Zn3 Zn 0.46238(3) 0.52126(2) 0.64277(2)
Zn4 Zn 0.89874(3) 0.41132(2) 0.06863(2)
Zn5 Zn 0.60126(3) 0.91132(2) 0.43137(2)
N10 N 0.4989(2) 0.37436(14) 0.46732(15)
Zn6 Zn 0.10126(3) 0.58868(2) 0.93137(2)
N11 N 0.9314(2) 0.26565(14) 0.03439(16)
N9 N 0.8249(2) 0.46207(14) 0.91060(16)
C3_2 C 0.1915(3) 0.05019(19) 0.3440(2)
H1_2 H 0.1219 0.0984 0.3550
N3_2 N 0.3249(2) 0.03793(14) 0.41060(16)
Zn6_2 Zn 0.39874(3) 0.08868(2) 0.56863(2)
O5 O 0.7252(2) 0.03115(13) 0.38690(15)
N8_2 N 0.0489(3) 0.27495(17) 0.8852(2)
H5_2 H 0.0878 0.2437 0.8375
H6_2 H 0.0443 0.3395 0.8842
Zn3_2 Zn 0.03762(3) 0.02126(2) 0.85723(2)
C4_2 C 0.2912(3) 0.93450(19) 0.2754(2)
N1_2 N 0.1628(2) 0.98699(15) 0.25769(17)
N2_2 N 0.3913(2) 0.96149(15) 0.36693(16)
N4_2 N 0.3179(3) 0.8619(2) 0.2075(2)
H2_2 H 0.4046 0.8306 0.2237
H3_2 H 0.2484 0.8463 0.1476
O6 O 0.6557(2) 0.85727(13) 0.28853(15)
N9_2 N 0.6751(2) 0.96207(14) 0.58940(16)
N10_2 N 0.0011(2) 0.87436(14) 0.03268(15)
C1_2 C 0.7815(3) 0.01233(17) 0.30743(19)
O1_2 O 0.8630(2) 0.06559(13) 0.26727(15)
C5_2 C 0.8966(3) 0.18813(17) 0.08971(19)
H4_2 H 0.8503 0.1941 0.1492
N5_2 N 0.9330(2) 0.10363(14) 0.05355(16)
C6_2 C 0.9962(3) 0.22376(17) 0.96011(19)
N6_2 N 0.9989(2) 0.12564(14) 0.96732(15)
Zn1_2 Zn 0.96238(3) 0.97874(2) 0.14277(2)
C2_2 C 0.7441(3) 0.91076(17) 0.2538(2)
O3_2 O 0.8043(2) 0.88870(13) 0.17745(14)
O5_2 O 0.2252(2) 0.46885(13) 0.88690(15)
O6_2 O 0.1557(2) 0.64273(13) 0.78853(15)
N11_2 N 0.0686(2) 0.73435(14) 0.96561(16)
C1_3 C 0.2815(3) 0.48767(17) 0.80743(19)
O1_3 O 0.3630(2) 0.43441(13) 0.76727(15)
C2_3 C 0.2441(3) 0.58924(17) 0.7538(2)
O3_3 O 0.3043(2) 0.61130(13) 0.67745(14)
C3_3 C 0.6915(3) 0.44981(19) 0.8440(2)
H1_3 H 0.6219 0.4016 0.8550
C4_3 C 0.7912(3) 0.56550(19) 0.7754(2)
N1_3 N 0.6628(2) 0.51301(15) 0.75769(17)
N2_3 N 0.8913(2) 0.53851(15) 0.86693(16)
N4_3 N 0.8179(3) 0.6381(2) 0.7075(2)
H2_3 H 0.9046 0.6694 0.7237
H3_3 H 0.7484 0.6537 0.6476
C5_3 C 0.3966(3) 0.31187(17) 0.58971(19)
H4_3 H 0.3503 0.3059 0.6492
C6_3 C 0.4962(3) 0.27624(17) 0.46011(19)
N5_3 N 0.4330(2) 0.39637(14) 0.55355(16)
N7_2 N 0.4314(2) 0.23435(14) 0.53439(16)
N8_3 N 0.5489(3) 0.22505(17) 0.3852(2)
H5_3 H 0.5878 0.2563 0.3375
H6_3 H 0.5443 0.1605 0.3842
C2_4 C 0.2559(3) 0.08924(17) 0.7462(2)
O3_4 O 0.1957(2) 0.11130(13) 0.82255(14)
O4_2 O 0.3443(2) 0.14273(13) 0.71147(15)
C6_4 C 0.0038(3) 0.77624(17) 0.03989(19)
C1_4 C 0.2185(3) 0.98767(17) 0.69257(19)
O1_4 O 0.1370(2) 0.93441(13) 0.73273(15)
O2_2 O 0.2748(2) 0.96885(13) 0.61310(15)
C5_4 C 0.1034(3) 0.81187(17) 0.91029(19)
H4_4 H 0.1497 0.8059 0.8508
N5_4 N 0.0670(2) 0.89637(14) 0.94645(16)
C4_4 C 0.7088(3) 0.06550(19) 0.7246(2)
N1_4 N 0.8372(2) 0.01301(15) 0.74231(17)
N2_4 N 0.6087(2) 0.03851(15) 0.63307(16)
N4_4 N 0.6821(3) 0.1381(2) 0.7925(2)
H2_4 H 0.5954 0.1694 0.7763
H3_4 H 0.7516 0.1537 0.8524
N8_4 N 0.9511(3) 0.72505(17) 0.1148(2)
H5_4 H 0.9122 0.7563 0.1625
H6_4 H 0.9557 0.6605 0.1158
C3_4 C 0.8085(3) 0.94981(19) 0.6560(2)
H1_4 H 0.8781 0.9016 0.6450
loop_
_geom_bond_atom_site_label_1
_geom_bond_atom_site_label_2
_geom_bond_site_symmetry_1
_geom_bond_site_symmetry_2
Zn1 O1 1_555 1_555
C1 O1 1_555 1_555
O2 C1 1_555 1_555
C2 C1 1_555 1_555
O3 Zn1 1_555 1_555
O4 C2 1_555 1_555
C3 H1 1_555 1_555
C4 N1 1_555 1_555
N1 Zn1 1_555 1_555
N2 C4 1_555 1_555
N3 C3 1_555 1_555
N4 C4 1_555 1_555
H2 N4 1_555 1_555
H3 N4 1_555 1_555
C5 H4 1_555 1_555
C6 N6 1_555 1_555
N5 Zn1 1_555 1_555
N6 N5 1_555 1_555
N7 C5 1_555 1_555
N8 C6 1_555 1_555
H5 N8 1_555 1_555
H6 N8 1_555 1_555
Zn3 N6 1_555 1_555
Zn4 O2 1_555 1_555
Zn5 N7 1_555 1_555
N10 Zn1 1_555 1_555
C2 O3 1_555 1_555
O4 Zn4 1_555 1_555
C3 N1 1_555 1_555
N2 N3 1_555 1_555
C5 N5 1_555 1_555
C6 N7 1_555 1_555
N11 Zn4 1_555 1_555
C3_2 H1_2 1_555 1_555
N3_2 C3_2 1_555 1_555
Zn6_2 N3_2 1_555 1_555
H5_2 N8_2 1_555 1_555
H6_2 N8_2 1_555 1_555
Zn5 N2_2 1_555 1_555
C4_2 N1_2 1_555 1_555
N2_2 C4_2 1_555 1_555
N4_2 C4_2 1_555 1_555
H2_2 N4_2 1_555 1_555
H3_2 N4_2 1_555 1_555
O6 Zn5 1_555 1_555
N9_2 Zn5 1_555 1_555
C1_2 O1_2 1_555 1_555
O5 C1_2 1_555 1_555
C5_2 H4_2 1_555 1_555
N11 C5_2 1_555 1_555
C5_2 N5_2 1_555 1_555
C6_2 N6_2 1_555 1_555
O3_2 Zn1_2 1_555 1_555
O6 C2_2 1_555 1_555
C2_2 O3_2 1_555 1_555
O5_2 Zn6 1_555 1_555
O6_2 Zn6 1_555 1_555
N11_2 Zn6 1_555 1_555
Zn3 O1_3 1_555 1_555
C1_3 O1_3 1_555 1_555
O5_2 C1_3 1_555 1_555
C2_3 C1_3 1_555 1_555
O3_3 Zn3 1_555 1_555
O6_2 C2_3 1_555 1_555
C3_3 H1_3 1_555 1_555
C4_3 N1_3 1_555 1_555
N1_3 Zn3 1_555 1_555
N2_3 C4_3 1_555 1_555
N9 C3_3 1_555 1_555
N4_3 C4_3 1_555 1_555
H2_3 N4_3 1_555 1_555
H3_3 N4_3 1_555 1_555
C5_3 H4_3 1_555 1_555
C6_3 N10 1_555 1_555
N5_3 Zn3 1_555 1_555
N10 N5_3 1_555 1_555
N7_2 C5_3 1_555 1_555
N8_3 C6_3 1_555 1_555
H5_3 N8_3 1_555 1_555
H6_3 N8_3 1_555 1_555
Zn6_2 N7_2 1_555 1_555
C2_3 O3_3 1_555 1_555
C3_3 N1_3 1_555 1_555
N2_3 N9 1_555 1_555
C5_3 N5_3 1_555 1_555
C6_3 N7_2 1_555 1_555
O3_4 Zn3_2 1_555 1_555
O4_2 C2_4 1_555 1_555
C2_4 O3_4 1_555 1_555
O4_2 Zn6_2 1_555 1_555
C6_4 N10_2 1_555 1_555
C1_4 O1_4 1_555 1_555
O2_2 C1_4 1_555 1_555
C5_4 H4_4 1_555 1_555
N11_2 C5_4 1_555 1_555
C5_4 N5_4 1_555 1_555
Zn6_2 N2_4 1_555 1_555
C4_4 N1_4 1_555 1_555
N2_4 C4_4 1_555 1_555
N4_4 C4_4 1_555 1_555
H2_4 N4_4 1_555 1_555
H3_4 N4_4 1_555 1_555
H5_4 N8_4 1_555 1_555
H6_4 N8_4 1_555 1_555
C3_4 H1_4 1_555 1_555
N9_2 C3_4 1_555 1_555

#END
