
###############################################################################
#
# This file contains modified crystal structure data generated from the
# MOF subset of the Cambridge Structural Database (CSD) v543 
# hosted by the Cambridge Crystallographic Data Centre (CCDC).
#
# This work is licensed under the Creative Commons
# Attribution-NonCommercial-ShareAlike 4.0 International License.
# To view a copy of this license, visit
# http://creativecommons.org/licenses/by-nc-sa/4.0/
# or send a letter to
# Creative Commons, PO Box 1866, Mountain View, CA 94042, USA.
#
# CIF created using the CSD Python API on 29 September 2022
# The structure has been converted into the P1 space group
# The structure has a 3D framework
# The original CSD entry PUYGUO is in the orthorhombic crystal system
# The original CSD entry PUYGUO is in a Sohncke space group
# The framework has been calculated to contain at least 10.0% void space
# The void calculation uses a probe of radius 1.32A, grid spacing 0.4
# H atom positions have been added when not included in the experimental data
#
###############################################################################

data_PUYGUO
_chemical_formula_moiety         '(C132 H76 Ba8 N12 O60)n'
_symmetry_cell_setting           triclinic
_symmetry_space_group_name_H-M   'P 1'
_symmetry_Int_Tables_number      1
_space_group_name_Hall           'P 1'
loop_
_symmetry_equiv_pos_site_id
_symmetry_equiv_pos_as_xyz
1 x,y,z
_cell_length_a                   32.7483(4)
_cell_length_b                   14.0762(2)
_cell_length_c                   12.3761(2)
_cell_angle_alpha                90
_cell_angle_beta                 90
_cell_angle_gamma                90
_cell_volume                     5705.03
loop_
_atom_site_label
_atom_site_type_symbol
_atom_site_fract_x
_atom_site_fract_y
_atom_site_fract_z
Ba1 Ba 0.19817(2) 0.01470(4) 0.00680(5)
Ba2 Ba 0.25314(2) 0.26418(4) 0.14022(5)
O13 O 0.1847(3) 0.1359(9) 0.1950(9)
N3 N 0.2565(6) 0.2950(14) 0.5339(16)
O14 O 0.2611(5) 0.2745(13) 0.3561(16)
C31 C 0.2377(10) 0.284(2) 0.442(2)
H11 H 0.2094 0.2838 0.4373
C32 C 0.2326(11) 0.306(3) 0.633(3)
H12 H 0.2336 0.3714 0.6562
H13 H 0.2439 0.2665 0.6889
H14 H 0.2048 0.2883 0.6201
C33 C 0.3044(16) 0.304(4) 0.546(4)
H15 H 0.3150 0.2481 0.5807
H16 H 0.3108 0.3588 0.5890
H17 H 0.3166 0.3105 0.4759
O16 O 0.1127(9) 0.0347(19) 0.0173(18)
O19 O 0.2375(3) 0.4642(6) 0.1156(7)
O20 O 0.1889(4) 0.3837(7) 0.1979(12)
O22 O 0.2658(3) 0.0630(6) 0.1151(8)
O23 O 0.3174(4) 0.1414(7) 0.1914(12)
O25 O 0.3232(4) 0.3889(9) 0.1727(10)
Ba4 Ba 0.69817(2) 0.48530(4) 0.99320(5)
Ba7 Ba 0.75314(2) 0.23582(4) 0.85978(5)
H18 H 0.1020 0.9823 0.0126
O17 O 0.2096(3) 0.8151(7) 0.0433(8)
O18 O 0.1694(5) 0.8868(7) 0.1585(13)
H2 H 0.6359 0.0111 0.7228
O7 O 0.7375(3) 0.0358(6) 0.8844(7)
C26 C 0.7038(4) 0.0396(9) 0.8381(11)
H9 H 0.3630 0.0261 0.2889
O8 O 0.6889(4) 0.1163(7) 0.8021(12)
C28 C 0.2995(4) 0.0651(9) 0.1619(10)
O15 O 0.8232(4) 0.1111(9) 0.8273(10)
O1 O 0.7096(3) 0.6849(7) 0.9567(8)
C1 C 0.6710(4) 0.7813(9) 0.8367(12)
O2 O 0.6254(3) 0.8662(10) 0.5157(11)
O3 O 0.3700(3) 0.8789(10) 0.4965(11)
N1 N 0.5870(4) 0.8743(9) 0.6669(11)
O4 O 0.6694(5) 0.6132(7) 0.8415(13)
C2 C 0.6921(4) 0.8629(9) 0.8608(11)
H1 H 0.7144 0.8601 0.9071
C3 C 0.6232(4) 0.8713(10) 0.7340(13)
C4 C 0.4835(5) 0.8803(11) 0.3626(14)
C5 C 0.3736(4) 0.8863(9) 0.2759(13)
C6 C 0.6447(4) 0.9539(9) 0.7523(11)
C7 C 0.6840(4) 0.6888(10) 0.8824(13)
C8 C 0.6804(4) 0.9502(9) 0.8165(11)
N2 N 0.4096(3) 0.8850(9) 0.3457(11)
C9 C 0.4410(5) 0.8782(10) 0.5252(13)
C10 C 0.4471(5) 0.8845(15) 0.2915(16)
C11 C 0.4385(5) 0.8747(12) 0.6355(14)
H3 H 0.4130 0.8711 0.6685
C12 C 0.6358(5) 0.7866(10) 0.7767(13)
H4 H 0.6204 0.7321 0.7651
C13 C 0.5543(4) 0.8728(10) 0.4881(13)
C14 C 0.5571(5) 0.8737(12) 0.3801(14)
H5 H 0.5827 0.8734 0.3478
C15 C 0.5124(5) 0.8740(13) 0.6506(15)
O5 O 0.4483(4) 0.8895(17) 0.1952(11)
C16 C 0.5158(5) 0.8738(10) 0.5410(13)
C17 C 0.4800(4) 0.8765(10) 0.4762(13)
C18 C 0.4743(5) 0.8766(14) 0.7004(14)
H6 H 0.4723 0.8794 0.7753
C19 C 0.5919(4) 0.8708(10) 0.5567(12)
C20 C 0.4041(5) 0.8786(10) 0.4575(13)
O6 O 0.5474(4) 0.8783(17) 0.8171(11)
C21 C 0.5223(5) 0.8749(15) 0.3157(15)
H7 H 0.5249 0.8721 0.2409
C22 C 0.5495(5) 0.8752(14) 0.7213(16)
C23 C 0.3088(4) 0.8878(9) 0.1392(12)
H8 H 0.2874 0.8898 0.0897
C24 C 0.3207(4) 0.9723(9) 0.1874(10)
C25 C 0.3262(4) 0.8037(9) 0.1595(12)
C27 C 0.3540(4) 0.9704(10) 0.2562(12)
O9 O 0.2929(3) 0.7131(6) 0.0271(8)
O12 O 0.3215(5) 0.6372(8) 0.1606(12)
C29 C 0.3127(4) 0.7127(9) 0.1106(12)
C30 C 0.3596(4) 0.8023(9) 0.2302(11)
H10 H 0.3724 0.7451 0.2465
O21 O 0.7929(3) 0.7869(6) 0.9729(8)
O24 O 0.8215(5) 0.8628(8) 0.8394(12)
H19 H 0.896776 0.924509 0.956831
O13_2 O 0.6847(3) 0.3641(9) 0.8050(9)
N3_2 N 0.7565(6) 0.2050(14) 0.4661(16)
O14_2 O 0.7611(5) 0.2255(13) 0.6439(16)
C31_2 C 0.7377(10) 0.216(2) 0.558(2)
H11_2 H 0.7094 0.2162 0.5627
C32_2 C 0.7326(11) 0.194(3) 0.367(3)
H12_2 H 0.7336 0.1286 0.3438
H13_2 H 0.7439 0.2335 0.3111
H14_2 H 0.7048 0.2117 0.3799
C33_2 C 0.8044(16) 0.196(4) 0.454(4)
H15_2 H 0.8150 0.2519 0.4193
H16_2 H 0.8108 0.1412 0.4110
H17_2 H 0.8166 0.1895 0.5241
O16_2 O 0.6127(9) 0.4653(19) 0.9827(18)
H18_2 H 0.6020 0.5177 0.9874
O22_2 O 0.7658(3) 0.4370(6) 0.8849(8)
O23_2 O 0.8174(4) 0.3586(7) 0.8086(12)
C1_2 C 0.1710(4) 0.7187(9) 0.1633(12)
O2_2 O 0.1254(3) 0.6338(10) 0.4843(11)
N1_2 N 0.0870(4) 0.6257(9) 0.3331(11)
C2_2 C 0.1921(4) 0.6371(9) 0.1392(11)
H1_2 H 0.2144 0.6399 0.0929
C3_2 C 0.1232(4) 0.6287(10) 0.2660(13)
C6_2 C 0.1447(4) 0.5461(9) 0.2477(11)
H2_2 H 0.1359 0.4889 0.2772
C7_2 C 0.1840(4) 0.8112(10) 0.1176(13)
C8_2 C 0.1804(4) 0.5498(9) 0.1835(11)
C12_2 C 0.1358(5) 0.7134(10) 0.2233(13)
H4_2 H 0.1204 0.7679 0.2349
C13_2 C 0.0543(4) 0.6272(10) 0.5119(13)
C14_2 C 0.0571(5) 0.6263(12) 0.6199(14)
H5_2 H 0.0827 0.6266 0.6522
C15_2 C 0.0124(5) 0.6260(13) 0.3494(15)
C16_2 C 0.0158(5) 0.6262(10) 0.4590(13)
C19_2 C 0.0919(4) 0.6292(10) 0.4433(12)
O6_2 O 0.0474(4) 0.6217(17) 0.1829(11)
C21_2 C 0.0223(5) 0.6251(15) 0.6843(15)
H7_2 H 0.0249 0.6279 0.7591
C22_2 C 0.0495(5) 0.6248(14) 0.2787(16)
C26_2 C 0.2038(4) 0.4604(9) 0.1619(11)
H19_2 H 0.396776 0.575491 0.0431693
O3_2 O 0.8700(3) 0.6211(10) 0.5035(11)
C4_2 C 0.9835(5) 0.6197(11) 0.6374(14)
C5_2 C 0.8736(4) 0.6137(9) 0.7241(13)
N2_2 N 0.9096(3) 0.6150(9) 0.6543(11)
C9_2 C 0.9410(5) 0.6218(10) 0.4748(13)
C10_2 C 0.9471(5) 0.6155(15) 0.7085(16)
C11_2 C 0.9385(5) 0.6253(12) 0.3645(14)
H3_2 H 0.9130 0.6289 0.3315
O5_2 O 0.9483(4) 0.6105(17) 0.8048(11)
C17_2 C 0.9800(4) 0.6235(10) 0.5238(13)
C18_2 C 0.9743(5) 0.6234(14) 0.2996(14)
H6_2 H 0.9723 0.6206 0.2247
C20_2 C 0.9041(5) 0.6214(10) 0.5425(13)
C23_2 C 0.8088(4) 0.6122(9) 0.8608(12)
H8_2 H 0.7874 0.6102 0.9103
C24_2 C 0.8207(4) 0.5277(9) 0.8126(10)
C25_2 C 0.8262(4) 0.6963(9) 0.8405(12)
C27_2 C 0.8540(4) 0.5296(10) 0.7438(12)
H9_2 H 0.8630 0.4739 0.7111
C28_2 C 0.7995(4) 0.4349(9) 0.8381(10)
C29_2 C 0.8127(4) 0.7873(9) 0.8894(12)
C30_2 C 0.8596(4) 0.6977(9) 0.7698(11)
H10_2 H 0.8724 0.7549 0.7535
O1_2 O 0.2904(3) 0.3151(7) 0.9567(8)
C1_3 C 0.3290(4) 0.2187(9) 0.8367(12)
O2_3 O 0.3746(3) 0.1338(10) 0.5157(11)
O3_3 O 0.6300(3) 0.1211(10) 0.4965(11)
N1_3 N 0.4130(4) 0.1257(9) 0.6669(11)
O4_2 O 0.3306(5) 0.3868(7) 0.8415(13)
C2_3 C 0.3079(4) 0.1371(9) 0.8608(11)
H1_3 H 0.2856 0.1399 0.9071
C3_3 C 0.3768(4) 0.1287(10) 0.7340(13)
C4_3 C 0.5165(5) 0.1197(11) 0.3626(14)
C5_3 C 0.6264(4) 0.1137(9) 0.2759(13)
C6_3 C 0.3553(4) 0.0461(9) 0.7523(11)
C7_3 C 0.3160(4) 0.3112(10) 0.8824(13)
C8_3 C 0.3196(4) 0.0498(9) 0.8165(11)
N2_3 N 0.5904(3) 0.1150(9) 0.3457(11)
C9_3 C 0.5590(5) 0.1218(10) 0.5252(13)
C10_3 C 0.5529(5) 0.1155(15) 0.2915(16)
C11_3 C 0.5615(5) 0.1253(12) 0.6355(14)
H3_3 H 0.5870 0.1289 0.6685
C12_3 C 0.3642(5) 0.2134(10) 0.7767(13)
H4_3 H 0.3796 0.2679 0.7651
C13_3 C 0.4457(4) 0.1272(10) 0.4881(13)
C14_3 C 0.4429(5) 0.1263(12) 0.3801(14)
H5_3 H 0.4173 0.1266 0.3478
C15_3 C 0.4876(5) 0.1260(13) 0.6506(15)
O5_3 O 0.5517(4) 0.1105(17) 0.1952(11)
C16_3 C 0.4842(5) 0.1262(10) 0.5410(13)
C17_3 C 0.5200(4) 0.1235(10) 0.4762(13)
C18_3 C 0.5257(5) 0.1234(14) 0.7004(14)
H6_3 H 0.5277 0.1206 0.7753
C19_3 C 0.4081(4) 0.1292(10) 0.5567(12)
C20_3 C 0.5959(5) 0.1214(10) 0.4575(13)
O6_3 O 0.4526(4) 0.1217(17) 0.8171(11)
C21_3 C 0.4777(5) 0.1251(15) 0.3157(15)
H7_3 H 0.4751 0.1279 0.2409
C22_3 C 0.4505(5) 0.1248(14) 0.7213(16)
C23_3 C 0.6912(4) 0.1122(9) 0.1392(12)
H8_3 H 0.7126 0.1102 0.0897
C24_3 C 0.6793(4) 0.0277(9) 0.1874(10)
C25_3 C 0.6738(4) 0.1963(9) 0.1595(12)
C27_3 C 0.6460(4) 0.0296(10) 0.2562(12)
O9_2 O 0.7071(3) 0.2869(6) 0.0271(8)
O12_2 O 0.6785(5) 0.3628(8) 0.1606(12)
C29_3 C 0.6873(4) 0.2873(9) 0.1106(12)
C30_3 C 0.6404(4) 0.1977(9) 0.2302(11)
H10_3 H 0.6276 0.2549 0.2465
Ba5 Ba 0.30183(2) 0.51470(4) 0.99320(5)
O21_2 O 0.2071(3) 0.2131(6) 0.9729(8)
O24_2 O 0.1785(5) 0.1372(8) 0.8394(12)
H19_3 H 0.103224 0.0754906 0.956831
H2_3 H 0.3641 0.9889 0.7228
O7_2 O 0.2625(3) 0.9642(6) 0.8844(7)
C26_3 C 0.2962(4) 0.9604(9) 0.8381(11)
H9_3 H 0.6370 0.9739 0.2889
O8_2 O 0.3111(4) 0.8837(7) 0.8021(12)
O10 O 0.7342(3) 0.9370(6) 0.1151(8)
O11 O 0.6826(4) 0.8586(7) 0.1914(12)
C28_3 C 0.7005(4) 0.9349(9) 0.1619(10)
O15_2 O 0.1768(4) 0.8889(9) 0.8273(10)
Ba3 Ba 0.80183(2) 0.98530(4) 0.00680(5)
Ba6 Ba 0.74686(2) 0.73582(4) 0.14022(5)
Ba8 Ba 0.24686(2) 0.76418(4) 0.85978(5)
H18_3 H 0.8980 0.0177 0.0126
O17_2 O 0.7904(3) 0.1849(7) 0.0433(8)
O18_2 O 0.8306(5) 0.1132(7) 0.1585(13)
O13_3 O 0.8153(3) 0.8641(9) 0.1950(9)
N3_3 N 0.7435(6) 0.7050(14) 0.5339(16)
O14_3 O 0.7389(5) 0.7255(13) 0.3561(16)
C31_3 C 0.7623(10) 0.716(2) 0.442(2)
H11_3 H 0.7906 0.7162 0.4373
C32_3 C 0.7674(11) 0.694(3) 0.633(3)
H12_3 H 0.7664 0.6286 0.6562
H13_3 H 0.7561 0.7335 0.6889
H14_3 H 0.7952 0.7117 0.6201
C33_3 C 0.6956(16) 0.696(4) 0.546(4)
H15_3 H 0.6850 0.7519 0.5807
H16_3 H 0.6892 0.6412 0.5890
H17_3 H 0.6834 0.6895 0.4759
O16_3 O 0.8873(9) 0.9653(19) 0.0173(18)
O19_2 O 0.7625(3) 0.5358(6) 0.1156(7)
O20_2 O 0.8111(4) 0.6163(7) 0.1979(12)
O25_2 O 0.6768(4) 0.6111(9) 0.1727(10)
O3_4 O 0.1300(3) 0.3789(10) 0.5035(11)
C4_4 C 0.0165(5) 0.3803(11) 0.6374(14)
C5_4 C 0.1264(4) 0.3863(9) 0.7241(13)
N2_4 N 0.0904(3) 0.3850(9) 0.6543(11)
C9_4 C 0.0590(5) 0.3782(10) 0.4748(13)
C10_4 C 0.0529(5) 0.3845(15) 0.7085(16)
C11_4 C 0.0615(5) 0.3747(12) 0.3645(14)
H3_4 H 0.0870 0.3711 0.3315
O5_4 O 0.0517(4) 0.3895(17) 0.8048(11)
C17_4 C 0.0200(4) 0.3765(10) 0.5238(13)
C18_4 C 0.0257(5) 0.3766(14) 0.2996(14)
H6_4 H 0.0277 0.3794 0.2247
C20_4 C 0.0959(5) 0.3786(10) 0.5425(13)
C23_4 C 0.1912(4) 0.3878(9) 0.8608(12)
H8_4 H 0.2126 0.3898 0.9103
C24_4 C 0.1793(4) 0.4723(9) 0.8126(10)
C25_4 C 0.1738(4) 0.3037(9) 0.8405(12)
C27_4 C 0.1460(4) 0.4704(10) 0.7438(12)
H9_4 H 0.1370 0.5261 0.7111
O10_2 O 0.2342(3) 0.5630(6) 0.8849(8)
O11_2 O 0.1826(4) 0.6414(7) 0.8086(12)
C28_4 C 0.2005(4) 0.5651(9) 0.8381(10)
C29_4 C 0.1873(4) 0.2127(9) 0.8894(12)
C30_4 C 0.1404(4) 0.3023(9) 0.7698(11)
H10_4 H 0.1276 0.2451 0.7535
C1_4 C 0.8290(4) 0.2813(9) 0.1633(12)
O2_4 O 0.8746(3) 0.3662(10) 0.4843(11)
N1_4 N 0.9130(4) 0.3743(9) 0.3331(11)
C2_4 C 0.8079(4) 0.3629(9) 0.1392(11)
H1_4 H 0.7856 0.3601 0.0929
C3_4 C 0.8768(4) 0.3713(10) 0.2660(13)
C6_4 C 0.8553(4) 0.4539(9) 0.2477(11)
H2_4 H 0.8641 0.5111 0.2772
C7_4 C 0.8160(4) 0.1888(10) 0.1176(13)
C8_4 C 0.8196(4) 0.4502(9) 0.1835(11)
C12_4 C 0.8642(5) 0.2866(10) 0.2233(13)
H4_4 H 0.8796 0.2321 0.2349
C13_4 C 0.9457(4) 0.3728(10) 0.5119(13)
C14_4 C 0.9429(5) 0.3737(12) 0.6199(14)
H5_4 H 0.9173 0.3734 0.6522
C15_4 C 0.9876(5) 0.3740(13) 0.3494(15)
C16_4 C 0.9842(5) 0.3738(10) 0.4590(13)
C19_4 C 0.9081(4) 0.3708(10) 0.4433(12)
O6_4 O 0.9526(4) 0.3783(17) 0.1829(11)
C21_4 C 0.9777(5) 0.3749(15) 0.6843(15)
H7_4 H 0.9751 0.3721 0.7591
C22_4 C 0.9505(5) 0.3752(14) 0.2787(16)
C26_4 C 0.7962(4) 0.5396(9) 0.1619(11)
H19_4 H 0.603224 0.424509 0.0431693
O13_4 O 0.3153(3) 0.6359(9) 0.8050(9)
N3_4 N 0.2435(6) 0.7950(14) 0.4661(16)
O14_4 O 0.2389(5) 0.7745(13) 0.6439(16)
C31_4 C 0.2623(10) 0.784(2) 0.558(2)
H11_4 H 0.2906 0.7838 0.5627
C32_4 C 0.2674(11) 0.806(3) 0.367(3)
H12_4 H 0.2664 0.8714 0.3438
H13_4 H 0.2561 0.7665 0.3111
H14_4 H 0.2952 0.7883 0.3799
C33_4 C 0.1956(16) 0.804(4) 0.454(4)
H15_4 H 0.1850 0.7481 0.4193
H16_4 H 0.1892 0.8588 0.4110
H17_4 H 0.1834 0.8105 0.5241
O16_4 O 0.3873(9) 0.5347(19) 0.9827(18)
H18_4 H 0.3980 0.4823 0.9874
loop_
_geom_bond_atom_site_label_1
_geom_bond_atom_site_label_2
_geom_bond_site_symmetry_1
_geom_bond_site_symmetry_2
O13 Ba1 1_555 1_555
N3 C31 1_555 1_555
O14 Ba2 1_555 1_555
C31 O14 1_555 1_555
H11 C31 1_555 1_555
C32 N3 1_555 1_555
H12 C32 1_555 1_555
H13 C32 1_555 1_555
H14 C32 1_555 1_555
C33 N3 1_555 1_555
H15 C33 1_555 1_555
H16 C33 1_555 1_555
H17 C33 1_555 1_555
O16 Ba1 1_555 1_555
O19 Ba2 1_555 1_555
O20 Ba2 1_555 1_555
O22 Ba1 1_555 1_555
O23 Ba2 1_555 1_555
O25 Ba2 1_555 1_555
Ba2 O13 1_555 1_555
Ba2 O22 1_555 1_555
O7 C26 1_555 1_555
O8 C26 1_555 1_555
O22 C28 1_555 1_555
O23 C28 1_555 1_555
Ba7 O7 1_555 1_555
O8 Ba7 1_555 1_555
O15 Ba7 1_555 1_555
O1 C7 1_555 1_555
C1 C2 1_555 1_555
O2 C19 1_555 1_555
O3 C20 1_555 1_555
N1 C3 1_555 1_555
O4 C7 1_555 1_555
C2 H1 1_555 1_555
C3 C6 1_555 1_555
C4 C10 1_555 1_555
C5 N2 1_555 1_555
C7 C1 1_555 1_555
C8 C2 1_555 1_555
N2 C10 1_555 1_555
C9 C11 1_555 1_555
C10 O5 1_555 1_555
C11 H3 1_555 1_555
C12 C1 1_555 1_555
H4 C12 1_555 1_555
C13 C14 1_555 1_555
C14 H5 1_555 1_555
C15 C16 1_555 1_555
C16 C13 1_555 1_555
C17 C4 1_555 1_555
C18 C11 1_555 1_555
H6 C18 1_555 1_555
C19 N1 1_555 1_555
C20 N2 1_555 1_555
O6 C22 1_555 1_555
C21 C4 1_555 1_555
H7 C21 1_555 1_555
C22 N1 1_555 1_555
C23 H8 1_555 1_555
C24 C23 1_555 1_555
C25 C23 1_555 1_555
C27 C5 1_555 1_555
O9 C29 1_555 1_555
O12 C29 1_555 1_555
C29 C25 1_555 1_555
C30 C5 1_555 1_555
H10 C30 1_555 1_555
Ba4 O1 1_555 1_555
O4 Ba4 1_555 1_555
C3 C12 1_555 1_555
C6 C8 1_555 1_555
C9 C17 1_555 1_555
C9 C20 1_555 1_555
C13 C19 1_555 1_555
C14 C21 1_555 1_555
C15 C18 1_555 1_555
C15 C22 1_555 1_555
C16 C17 1_555 1_555
C24 C27 1_555 1_555
C25 C30 1_555 1_555
O13_2 Ba4 1_555 1_555
N3_2 C31_2 1_555 1_555
O14_2 Ba7 1_555 1_555
C31_2 O14_2 1_555 1_555
H11_2 C31_2 1_555 1_555
C32_2 N3_2 1_555 1_555
H12_2 C32_2 1_555 1_555
H13_2 C32_2 1_555 1_555
H14_2 C32_2 1_555 1_555
C33_2 N3_2 1_555 1_555
H15_2 C33_2 1_555 1_555
H16_2 C33_2 1_555 1_555
H17_2 C33_2 1_555 1_555
O16_2 Ba4 1_555 1_555
H18_2 O16_2 1_555 1_555
O22_2 Ba4 1_555 1_555
O23_2 Ba7 1_555 1_555
Ba7 O13_2 1_555 1_555
Ba7 O22_2 1_555 1_555
O17 C7_2 1_555 1_555
C1_2 C2_2 1_555 1_555
O2_2 C19_2 1_555 1_555
N1_2 C3_2 1_555 1_555
O18 C7_2 1_555 1_555
C2_2 H1_2 1_555 1_555
C3_2 C6_2 1_555 1_555
C6_2 H2_2 1_555 1_555
C7_2 C1_2 1_555 1_555
C8_2 C2_2 1_555 1_555
C12_2 C1_2 1_555 1_555
H4_2 C12_2 1_555 1_555
C13_2 C14_2 1_555 1_555
C14_2 H5_2 1_555 1_555
C15_2 C16_2 1_555 1_555
C16_2 C13_2 1_555 1_555
C19_2 N1_2 1_555 1_555
O6_2 C22_2 1_555 1_555
H7_2 C21_2 1_555 1_555
C22_2 N1_2 1_555 1_555
O19 C26_2 1_555 1_555
C26_2 C8_2 1_555 1_555
O20 C26_2 1_555 1_555
C3_2 C12_2 1_555 1_555
C6_2 C8_2 1_555 1_555
C13_2 C19_2 1_555 1_555
C14_2 C21_2 1_555 1_555
C15_2 C22_2 1_555 1_555
O3_2 C20_2 1_555 1_555
C4_2 C10_2 1_555 1_555
C5_2 N2_2 1_555 1_555
N2_2 C10_2 1_555 1_555
C9_2 C11_2 1_555 1_555
C10_2 O5_2 1_555 1_555
C11_2 H3_2 1_555 1_555
C17_2 C4_2 1_555 1_555
C18_2 C11_2 1_555 1_555
H6_2 C18_2 1_555 1_555
C20_2 N2_2 1_555 1_555
C23_2 H8_2 1_555 1_555
C24_2 C23_2 1_555 1_555
C25_2 C23_2 1_555 1_555
C27_2 C5_2 1_555 1_555
H9_2 C27_2 1_555 1_555
O21 C29_2 1_555 1_555
O22_2 C28_2 1_555 1_555
O23_2 C28_2 1_555 1_555
O24 C29_2 1_555 1_555
C28_2 C24_2 1_555 1_555
C29_2 C25_2 1_555 1_555
C30_2 C5_2 1_555 1_555
H10_2 C30_2 1_555 1_555
C9_2 C17_2 1_555 1_555
C9_2 C20_2 1_555 1_555
C24_2 C27_2 1_555 1_555
C25_2 C30_2 1_555 1_555
O1_2 C7_3 1_555 1_555
C1_3 C2_3 1_555 1_555
O2_3 C19_3 1_555 1_555
O3_3 C20_3 1_555 1_555
N1_3 C3_3 1_555 1_555
O4_2 C7_3 1_555 1_555
C2_3 H1_3 1_555 1_555
C3_3 C6_3 1_555 1_555
C4_3 C10_3 1_555 1_555
C5_3 N2_3 1_555 1_555
C7_3 C1_3 1_555 1_555
C8_3 C2_3 1_555 1_555
N2_3 C10_3 1_555 1_555
C9_3 C11_3 1_555 1_555
C10_3 O5_3 1_555 1_555
C11_3 H3_3 1_555 1_555
C12_3 C1_3 1_555 1_555
H4_3 C12_3 1_555 1_555
C13_3 C14_3 1_555 1_555
C14_3 H5_3 1_555 1_555
C15_3 C16_3 1_555 1_555
C16_3 C13_3 1_555 1_555
C17_3 C4_3 1_555 1_555
C18_3 C11_3 1_555 1_555
H6_3 C18_3 1_555 1_555
C19_3 N1_3 1_555 1_555
C20_3 N2_3 1_555 1_555
O6_3 C22_3 1_555 1_555
C21_3 C4_3 1_555 1_555
H7_3 C21_3 1_555 1_555
C22_3 N1_3 1_555 1_555
C23_3 H8_3 1_555 1_555
C24_3 C23_3 1_555 1_555
C25_3 C23_3 1_555 1_555
C27_3 C5_3 1_555 1_555
O9_2 C29_3 1_555 1_555
O12_2 C29_3 1_555 1_555
C29_3 C25_3 1_555 1_555
C30_3 C5_3 1_555 1_555
H10_3 C30_3 1_555 1_555
Ba5 O1_2 1_555 1_555
O4_2 Ba5 1_555 1_555
C3_3 C12_3 1_555 1_555
C6_3 C8_3 1_555 1_555
C9_3 C17_3 1_555 1_555
C9_3 C20_3 1_555 1_555
C13_3 C19_3 1_555 1_555
C14_3 C21_3 1_555 1_555
C15_3 C18_3 1_555 1_555
C15_3 C22_3 1_555 1_555
C16_3 C17_3 1_555 1_555
C24_3 C27_3 1_555 1_555
C25_3 C30_3 1_555 1_555
O7_2 C26_3 1_555 1_555
O8_2 C26_3 1_555 1_555
O10 C28_3 1_555 1_555
O11 C28_3 1_555 1_555
Ba3 O10 1_555 1_555
Ba6 O10 1_555 1_555
Ba8 O7_2 1_555 1_555
O8_2 Ba8 1_555 1_555
O11 Ba6 1_555 1_555
O15_2 Ba8 1_555 1_555
O13_3 Ba3 1_555 1_555
N3_3 C31_3 1_555 1_555
O14_3 Ba6 1_555 1_555
C31_3 O14_3 1_555 1_555
H11_3 C31_3 1_555 1_555
C32_3 N3_3 1_555 1_555
H12_3 C32_3 1_555 1_555
H13_3 C32_3 1_555 1_555
H14_3 C32_3 1_555 1_555
C33_3 N3_3 1_555 1_555
H15_3 C33_3 1_555 1_555
H16_3 C33_3 1_555 1_555
H17_3 C33_3 1_555 1_555
O16_3 Ba3 1_555 1_555
O19_2 Ba6 1_555 1_555
O20_2 Ba6 1_555 1_555
O25_2 Ba6 1_555 1_555
Ba6 O13_3 1_555 1_555
O3_4 C20_4 1_555 1_555
C4_4 C10_4 1_555 1_555
C5_4 N2_4 1_555 1_555
N2_4 C10_4 1_555 1_555
C9_4 C11_4 1_555 1_555
C10_4 O5_4 1_555 1_555
C11_4 H3_4 1_555 1_555
C17_4 C4_4 1_555 1_555
C18_4 C11_4 1_555 1_555
H6_4 C18_4 1_555 1_555
C20_4 N2_4 1_555 1_555
C23_4 H8_4 1_555 1_555
C24_4 C23_4 1_555 1_555
C25_4 C23_4 1_555 1_555
C27_4 C5_4 1_555 1_555
H9_4 C27_4 1_555 1_555
O21_2 C29_4 1_555 1_555
O10_2 C28_4 1_555 1_555
O11_2 C28_4 1_555 1_555
O24_2 C29_4 1_555 1_555
C28_4 C24_4 1_555 1_555
C29_4 C25_4 1_555 1_555
C30_4 C5_4 1_555 1_555
H10_4 C30_4 1_555 1_555
Ba5 O10_2 1_555 1_555
Ba8 O10_2 1_555 1_555
C9_4 C17_4 1_555 1_555
C9_4 C20_4 1_555 1_555
C24_4 C27_4 1_555 1_555
C25_4 C30_4 1_555 1_555
O11_2 Ba8 1_555 1_555
O17_2 C7_4 1_555 1_555
C1_4 C2_4 1_555 1_555
O2_4 C19_4 1_555 1_555
N1_4 C3_4 1_555 1_555
O18_2 C7_4 1_555 1_555
C2_4 H1_4 1_555 1_555
C3_4 C6_4 1_555 1_555
C6_4 H2_4 1_555 1_555
C7_4 C1_4 1_555 1_555
C8_4 C2_4 1_555 1_555
C12_4 C1_4 1_555 1_555
H4_4 C12_4 1_555 1_555
C13_4 C14_4 1_555 1_555
C14_4 H5_4 1_555 1_555
C15_4 C16_4 1_555 1_555
C16_4 C13_4 1_555 1_555
C19_4 N1_4 1_555 1_555
O6_4 C22_4 1_555 1_555
H7_4 C21_4 1_555 1_555
C22_4 N1_4 1_555 1_555
O19_2 C26_4 1_555 1_555
C26_4 C8_4 1_555 1_555
O20_2 C26_4 1_555 1_555
C3_4 C12_4 1_555 1_555
C6_4 C8_4 1_555 1_555
C13_4 C19_4 1_555 1_555
C14_4 C21_4 1_555 1_555
C15_4 C22_4 1_555 1_555
O13_4 Ba5 1_555 1_555
N3_4 C31_4 1_555 1_555
O14_4 Ba8 1_555 1_555
C31_4 O14_4 1_555 1_555
H11_4 C31_4 1_555 1_555
C32_4 N3_4 1_555 1_555
H12_4 C32_4 1_555 1_555
H13_4 C32_4 1_555 1_555
H14_4 C32_4 1_555 1_555
C33_4 N3_4 1_555 1_555
H15_4 C33_4 1_555 1_555
H16_4 C33_4 1_555 1_555
H17_4 C33_4 1_555 1_555
O16_4 Ba5 1_555 1_555
H18_4 O16_4 1_555 1_555
Ba8 O13_4 1_555 1_555

#END
