
###############################################################################
#
# This file contains modified crystal structure data generated from the
# MOF subset of the Cambridge Structural Database (CSD) v543 
# hosted by the Cambridge Crystallographic Data Centre (CCDC).
#
# This work is licensed under the Creative Commons
# Attribution-NonCommercial-ShareAlike 4.0 International License.
# To view a copy of this license, visit
# http://creativecommons.org/licenses/by-nc-sa/4.0/
# or send a letter to
# Creative Commons, PO Box 1866, Mountain View, CA 94042, USA.
#
# CIF created using the CSD Python API on 29 September 2022
# The structure has been converted into the P1 space group
# The structure has a 3D framework
# The original CSD entry PUYHAV is in the triclinic crystal system
# The framework has been calculated to contain at least 10.0% void space
# The void calculation uses a probe of radius 1.32A, grid spacing 0.4
#
###############################################################################

data_PUYHAV
_chemical_formula_moiety         '(C30 H20 Ba2 N2 O16)n'
_symmetry_cell_setting           triclinic
_symmetry_space_group_name_H-M   'P 1'
_symmetry_Int_Tables_number      1
_space_group_name_Hall           'P 1'
loop_
_symmetry_equiv_pos_site_id
_symmetry_equiv_pos_as_xyz
1 x,y,z
_cell_length_a                   8.3711(8)
_cell_length_b                   8.5132(10)
_cell_length_c                   13.5250(16)
_cell_angle_alpha                72.792(10)
_cell_angle_beta                 80.711(9)
_cell_angle_gamma                76.268(9)
_cell_volume                     890.066
loop_
_atom_site_label
_atom_site_type_symbol
_atom_site_fract_x
_atom_site_fract_y
_atom_site_fract_z
_atom_site_U_iso_or_equiv
_atom_site_thermal_displace_type
O9 O 0.3066(8) 0.4864(8) 0.0281(5) 0.0301 Uani
O12 O 0.2669(8) 0.2235(8) 0.1026(6) 0.0324 Uani
H10 H 0.0468 0.6969 0.0591 0.0260 Uiso
C19 C 0.0521(11) 0.4496(12) 0.1331(7) 0.0259 Uani
C20 C 0.2208(11) 0.3835(11) 0.0858(7) 0.0253 Uani
H12 H 0.0000 0.2286 0.2220 0.0340 Uiso
Ba10 Ba 0.41904(5) 0.76172(6) 0.01232(3) 0.0216 Uani
C13 C 0.553(2) 0.0038(19) 0.6782(9) 0.0713 Uani
O10 O 0.5945(7) 0.9051(8) 0.1014(5) 0.0266 Uani
O11 O 0.8365(8) 0.9767(9) 0.0891(6) 0.0370 Uani
N2 N 0.7089(12) 0.2920(11) 0.3188(6) 0.0393 Uani
O13 O 0.6051(9) 0.2489(9) 0.1878(5) 0.0333 Uani
C16 C 0.7501(11) 0.8686(11) 0.1094(7) 0.0244 Uani
C17 C 0.9850(10) 0.6233(10) 0.1049(6) 0.0219 Uani
C18 C 0.8269(11) 0.6850(12) 0.1456(6) 0.0262 Uani
C21 C 0.7343(12) 0.5748(12) 0.2144(7) 0.0302 Uani
H11 H 0.6269 0.6146 0.2397 0.0360 Uiso
C22 C 0.5333(17) 0.0845(14) 0.3571(8) 0.0450 Uani
C23 C 0.9584(12) 0.3436(11) 0.2029(7) 0.0281 Uani
H12_2 H 1.0000 0.2286 0.2220 0.0340 Uiso
C24 C 0.5384(19) 0.0606(17) 0.4642(8) 0.0539 Uani
C25 C 0.6122(13) 0.2130(12) 0.2803(7) 0.0321 Uani
C26 C 0.8034(12) 0.4076(12) 0.2443(6) 0.0285 Uani
C27 C 0.623(3) 0.154(2) 0.5005(10) 0.0863 Uani
H13 H 0.4356 0.0196 0.2514 0.0860 Uiso
O14 O 0.783(3) 0.366(2) 0.4487(9) 0.1412 Uani
C29 C 0.710(2) 0.281(2) 0.4234(12) 0.0782 Uani
C30 C 0.623(2) 0.130(2) 0.6047(12) 0.0771 Uani
H14 H 0.6703 0.1993 0.6278 0.0920 Uiso
O15 O 0.3266(9) 0.6328(9) 0.2266(5) 0.0363 Uani
H15 H 0.3141 0.5291 0.2598 0.0550 Uiso
H16 H 0.3044 0.6879 0.2751 0.0550 Uiso
O16 O 0.1477(10) 0.9378(9) 0.1486(7) 0.0425 Uani
H17 H 0.0501 0.9624 0.1233 0.0640 Uiso
H18 H 0.1305 0.8686 0.2115 0.0640 Uiso
Ba6 Ba 0.58096(5) 0.23828(6) 0.98768(3) 0.0216 Uani
O2 O 0.4055(7) 0.0949(8) 0.8986(5) 0.0266 Uani
O3 O 0.6734(9) 0.3672(9) 0.7734(5) 0.0363 Uani
H1 H 0.6859 0.4709 0.7402 0.0550 Uiso
H2 H 0.6956 0.3121 0.7249 0.0550 Uiso
O4 O 0.8523(10) 0.0622(9) 0.8514(7) 0.0425 Uani
H3 H 0.9499 0.0376 0.8767 0.0640 Uiso
H4 H 0.8695 0.1314 0.7885 0.0640 Uiso
O5 O 0.1635(8) 0.0233(9) 0.9109(6) 0.0370 Uani
N1 N 0.2911(12) 0.7080(11) 0.6812(6) 0.0393 Uani
O7 O 0.3949(9) 0.7511(9) 0.8122(5) 0.0333 Uani
C1 C 0.2499(11) 0.1314(11) 0.8906(7) 0.0244 Uani
C2 C 0.0150(10) 0.3767(10) 0.8951(6) 0.0219 Uani
C3 C 0.1731(11) 0.3150(12) 0.8544(6) 0.0262 Uani
C6 C 0.2657(12) 0.4252(12) 0.7856(7) 0.0302 Uani
H6 H 0.3731 0.3854 0.7603 0.0360 Uiso
C7 C 0.4667(17) 0.9155(14) 0.6429(8) 0.0450 Uani
C8 C 0.0416(12) 0.6564(11) 0.7971(7) 0.0281 Uani
H7 H -0.0000 0.7714 0.7780 0.0340 Uiso
C9 C 0.4616(19) 0.9394(17) 0.5358(8) 0.0539 Uani
C10 C 0.3878(13) 0.7870(12) 0.7197(7) 0.0321 Uani
C11 C 0.1966(12) 0.5924(12) 0.7557(6) 0.0285 Uani
C12 C 0.377(3) 0.846(2) 0.4995(10) 0.0863 Uani
H8 H 0.5644 0.9804 0.7486 0.0860 Uiso
O8 O 0.217(3) 0.634(2) 0.5513(9) 0.1412 Uani
C14 C 0.290(2) 0.719(2) 0.5766(12) 0.0782 Uani
C15 C 0.377(2) 0.870(2) 0.3953(12) 0.0771 Uani
H9 H 0.3297 0.8007 0.3722 0.0920 Uiso
C28 C 0.447(2) 0.9962(19) 0.3218(9) 0.0713 Uani
O17 O 0.6934(8) 0.5136(8) 0.9719(5) 0.0301 Uani
O6 O 0.7331(8) 0.7765(8) 0.8974(6) 0.0324 Uani
H5 H 0.9532 0.3031 0.9409 0.0260 Uiso
C4 C 0.9479(11) 0.5504(12) 0.8669(7) 0.0259 Uani
C5 C 0.7792(11) 0.6165(11) 0.9142(7) 0.0253 Uani
H7_2 H 1.0000 0.7714 0.7780 0.0340 Uiso
loop_
_atom_site_aniso_label
_atom_site_aniso_U_11
_atom_site_aniso_U_22
_atom_site_aniso_U_33
_atom_site_aniso_U_23
_atom_site_aniso_U_13
_atom_site_aniso_U_12
O9 0.027 0.021 0.043 -0.003 -0.008 -0.01
O12 0.032 0.023 0.044 -0.006 0 -0.015
C19 0.032 0.032 0.02 -0.007 -0.002 -0.019
C20 0.024 0.024 0.031 -0.004 -0.004 -0.014
Ba10 0.0237 0.0231 0.0202 -0.0026 -0.0009 -0.0141
C13 0.137 0.083 0.018 -0.006 0.008 -0.088
O10 0.021 0.033 0.03 -0.01 0.003 -0.015
O11 0.024 0.037 0.048 -0.004 0 -0.014
N2 0.064 0.04 0.022 -0.001 0.006 -0.042
O13 0.045 0.034 0.024 -0.003 0 -0.022
C16 0.023 0.026 0.024 -0.007 0 -0.006
C17 0.021 0.022 0.026 -0.004 -0.006 -0.011
C18 0.023 0.041 0.02 -0.008 0.001 -0.019
C21 0.033 0.04 0.024 -0.013 0.002 -0.017
C22 0.081 0.046 0.017 -0.003 0.006 -0.044
C23 0.043 0.023 0.024 -0.009 -0.002 -0.015
C24 0.095 0.062 0.019 -0.009 0.009 -0.055
C25 0.048 0.039 0.016 -0.009 0.005 -0.025
C26 0.036 0.036 0.019 -0.005 0.004 -0.025
C27 0.16 0.104 0.029 -0.01 0.012 -0.116
O14 0.249 0.189 0.044 -0.014 0.008 -0.192
C29 0.12 0.092 0.049 -0.017 -0.004 -0.077
C30 0.109 0.081 0.055 -0.012 0.007 -0.063
O15 0.04 0.041 0.028 -0.007 0.001 -0.014
O16 0.041 0.034 0.053 -0.002 -0.01 -0.017
Ba6 0.0237 0.0231 0.0202 -0.0026 -0.0009 -0.0141
O2 0.021 0.033 0.03 -0.01 0.003 -0.015
O3 0.04 0.041 0.028 -0.007 0.001 -0.014
O4 0.041 0.034 0.053 -0.002 -0.01 -0.017
O5 0.024 0.037 0.048 -0.004 0 -0.014
N1 0.064 0.04 0.022 -0.001 0.006 -0.042
O7 0.045 0.034 0.024 -0.003 0 -0.022
C1 0.023 0.026 0.024 -0.007 0 -0.006
C2 0.021 0.022 0.026 -0.004 -0.006 -0.011
C3 0.023 0.041 0.02 -0.008 0.001 -0.019
C6 0.033 0.04 0.024 -0.013 0.002 -0.017
C7 0.081 0.046 0.017 -0.003 0.006 -0.044
C8 0.043 0.023 0.024 -0.009 -0.002 -0.015
C9 0.095 0.062 0.019 -0.009 0.009 -0.055
C10 0.048 0.039 0.016 -0.009 0.005 -0.025
C11 0.036 0.036 0.019 -0.005 0.004 -0.025
C12 0.16 0.104 0.029 -0.01 0.012 -0.116
O8 0.249 0.189 0.044 -0.014 0.008 -0.192
C14 0.12 0.092 0.049 -0.017 -0.004 -0.077
C15 0.109 0.081 0.055 -0.012 0.007 -0.063
C28 0.137 0.083 0.018 -0.006 0.008 -0.088
O17 0.027 0.021 0.043 -0.003 -0.008 -0.01
O6 0.032 0.023 0.044 -0.006 0 -0.015
C4 0.032 0.032 0.02 -0.007 -0.002 -0.019
C5 0.024 0.024 0.031 -0.004 -0.004 -0.014
loop_
_geom_bond_atom_site_label_1
_geom_bond_atom_site_label_2
_geom_bond_site_symmetry_1
_geom_bond_site_symmetry_2
O9 C20 1_555 1_555
O12 C20 1_555 1_555
C20 C19 1_555 1_555
Ba10 O9 1_555 1_555
O10 C16 1_555 1_555
O11 C16 1_555 1_555
N2 C25 1_555 1_555
O13 C25 1_555 1_555
C16 C18 1_555 1_555
C18 C17 1_555 1_555
C21 C18 1_555 1_555
H11 C21 1_555 1_555
C22 C24 1_555 1_555
H12_2 C23 1_555 1_555
C25 C22 1_555 1_555
C26 N2 1_555 1_555
C27 C24 1_555 1_555
O14 C29 1_555 1_555
C29 N2 1_555 1_555
C30 C13 1_555 1_555
H14 C30 1_555 1_555
Ba10 O10 1_555 1_555
C21 C26 1_555 1_555
C23 C26 1_555 1_555
C27 C29 1_555 1_555
C27 C30 1_555 1_555
O15 Ba10 1_555 1_555
H15 O15 1_555 1_555
H16 O15 1_555 1_555
O16 Ba10 1_555 1_555
H17 O16 1_555 1_555
H18 O16 1_555 1_555
Ba6 O2 1_555 1_555
O2 C1 1_555 1_555
O3 Ba6 1_555 1_555
H1 O3 1_555 1_555
H2 O3 1_555 1_555
O4 Ba6 1_555 1_555
H3 O4 1_555 1_555
H4 O4 1_555 1_555
O5 C1 1_555 1_555
N1 C10 1_555 1_555
O7 C10 1_555 1_555
C1 C3 1_555 1_555
C3 C2 1_555 1_555
C6 C3 1_555 1_555
H6 C6 1_555 1_555
C7 C9 1_555 1_555
H7 C8 1_555 1_555
C9 C12 1_555 1_555
C10 C7 1_555 1_555
C11 N1 1_555 1_555
C12 C14 1_555 1_555
O8 C14 1_555 1_555
C14 N1 1_555 1_555
C15 C12 1_555 1_555
H9 C15 1_555 1_555
C28 C15 1_555 1_555
O17 Ba6 1_555 1_555
C6 C11 1_555 1_555
C8 C11 1_555 1_555
O17 C5 1_555 1_555
O6 C5 1_555 1_555
C5 C4 1_555 1_555

#END
