
###############################################################################
#
# This file contains modified crystal structure data generated from the
# MOF subset of the Cambridge Structural Database (CSD) v543 
# hosted by the Cambridge Crystallographic Data Centre (CCDC).
#
# This work is licensed under the Creative Commons
# Attribution-NonCommercial-ShareAlike 4.0 International License.
# To view a copy of this license, visit
# http://creativecommons.org/licenses/by-nc-sa/4.0/
# or send a letter to
# Creative Commons, PO Box 1866, Mountain View, CA 94042, USA.
#
# CIF created using the CSD Python API on 29 September 2022
# The structure has been converted into the P1 space group
# The structure has a 3D framework
# The original CSD entry QACGUA is in the triclinic crystal system
# The framework has been calculated to contain at least 10.0% void space
# The void calculation uses a probe of radius 1.32A, grid spacing 0.4
#
###############################################################################

data_QACGUA
_chemical_formula_moiety         '(C38 H36 N2 O9 Zn5)n'
_symmetry_cell_setting           triclinic
_symmetry_space_group_name_H-M   'P 1'
_symmetry_Int_Tables_number      1
_space_group_name_Hall           'P 1'
loop_
_symmetry_equiv_pos_site_id
_symmetry_equiv_pos_as_xyz
1 x,y,z
_cell_length_a                   6.1960(12)
_cell_length_b                   14.364(3)
_cell_length_c                   15.756(3)
_cell_angle_alpha                79.97(3)
_cell_angle_beta                 79.48(3)
_cell_angle_gamma                80.88(3)
_cell_volume                     1345.96
loop_
_atom_site_label
_atom_site_type_symbol
_atom_site_fract_x
_atom_site_fract_y
_atom_site_fract_z
Zn6 Zn 0.000000 -0.000000 0.500000
O1 O 0.1687(5) 0.9704(2) 0.3766(2)
O2 O 0.4563(5) 0.8548(3) 0.3833(2)
O4 O 0.3197(6) 0.1997(2) 0.4516(3)
C1 C 0.1227(7) 0.2077(3) 0.4356(3)
C2 C 0.0462(8) 0.3000(3) 0.3811(3)
C3 C 0.1868(11) 0.3707(5) 0.3532(6)
H1 H 0.330646 0.359939 0.368825
C4 C 0.1195(11) 0.4550(5) 0.3036(6)
H2 H 0.219246 0.500949 0.283645
C10 C 0.2047(8) 0.5166(4) 0.0273(4)
H8 H 0.323915 0.495064 0.063178
H13 H 0.053898 0.704943 0.058112
C13 C 0.0520(8) 0.7489(3) 0.1770(3)
C14 C 0.2543(9) 0.7176(4) 0.2046(4)
H14 H 0.342836 0.662843 0.184722
C15 C 0.3301(8) 0.7649(4) 0.2608(4)
H15 H 0.469146 0.742041 0.279272
C16 C 0.2032(8) 0.8460(4) 0.2906(3)
C17 C 0.2794(7) 0.8938(3) 0.3543(3)
C18 C 0.0012(8) 0.8783(4) 0.2636(4)
Zn2 Zn 0.46157(8) 0.09435(3) 0.52328(3)
H28 H 0.192954 0.378575 0.001400
Zn6_2 Zn 0.000000 1.000000 0.500000
O14 O 0.5437(5) 0.1452(3) 0.6167(2)
O18 O 0.7029(5) 0.0179(2) 0.4511(2)
Zn11 Zn 0.53843(8) 0.90565(3) 0.47672(3)
H9 H 0.233780 0.578556 0.991615
O8 O 0.0037(5) 0.8532(2) 0.5428(2)
N2 N 0.0095(6) 0.4083(3) 0.8492(3)
C24 C 0.0892(8) 0.5262(3) 0.7173(3)
C25 C 0.2256(8) 0.5950(4) 0.6906(4)
H21 H 0.369922 0.583178 0.705841
C26 C 0.1606(9) 0.6813(4) 0.6420(4)
H22 H 0.259754 0.727719 0.624553
C27 C 0.1638(8) 0.4302(4) 0.7684(3)
H23 H 0.312531 0.430765 0.782812
H24 H 0.175053 0.379701 0.731754
C28 C 0.0149(8) 0.4709(3) 0.9139(3)
H25 H 0.036353 0.535262 0.879849
C30 C 0.2065(8) 0.4421(4) 0.9661(4)
H29 H 0.348648 0.437783 0.925471
C31 C 0.0317(9) 0.3059(3) 0.8823(4)
H30 H 0.189205 0.281878 0.885795
H34 H 0.086529 0.066656 0.716763
C38 C 0.0747(8) 0.1706(4) 0.7932(3)
H35 H 0.214197 0.148318 0.811362
O5 O 0.2971(5) 0.9821(2) 0.5489(2)
H18 H 0.253(19) 0.964(9) 0.603(2)
Zn6_3 Zn 1.000000 -0.000000 0.500000
O3 O 0.9963(5) 0.1468(2) 0.4572(2)
N1 N 0.9905(6) 0.5917(3) 0.1508(3)
C5 C 0.9108(8) 0.4738(3) 0.2827(3)
C6 C 0.7744(8) 0.4050(4) 0.3094(4)
H3 H 0.630078 0.416822 0.294159
C7 C 0.8394(9) 0.3187(4) 0.3580(4)
H4 H 0.740246 0.272281 0.375447
C8 C 0.8362(8) 0.5698(4) 0.2316(3)
H5 H 0.687469 0.569235 0.217188
H6 H 0.824947 0.620299 0.268246
C9 C 0.9851(8) 0.5291(3) 0.0861(3)
H7 H 0.963647 0.464738 0.120151
C11 C 0.7935(8) 0.5579(4) 0.0339(4)
H11 H 0.651352 0.562217 0.074529
C12 C 0.9683(9) 0.6941(3) 0.1177(4)
H12 H 0.810795 0.718122 0.114205
H16 H 0.913471 0.933344 0.283237
C19 C 0.9253(8) 0.8294(4) 0.2068(3)
H17 H 0.785803 0.851682 0.188638
H27 H 0.766220 0.421444 0.008385
H36 H 0.747(19) 0.036(9) 0.397(2)
Zn6_4 Zn 1.000000 1.000000 0.500000
O12 O 0.8313(5) 0.0296(2) 0.6234(2)
H10 H 0.807046 0.621425 0.998600
O9 O 0.6803(6) 0.8003(2) 0.5484(3)
C20 C 0.8773(7) 0.7923(3) 0.5644(3)
C21 C 0.9538(8) 0.7000(3) 0.6189(3)
C22 C 0.8132(11) 0.6293(5) 0.6468(6)
H19 H 0.669354 0.640061 0.631175
C23 C 0.8805(11) 0.5450(5) 0.6964(6)
H20 H 0.780754 0.499051 0.716355
C29 C 0.7953(8) 0.4834(4) 0.9727(4)
H26 H 0.676085 0.504936 0.936822
H31 H 0.946102 0.295057 0.941888
C32 C 0.9480(8) 0.2511(3) 0.8230(3)
C33 C 0.7457(9) 0.2824(4) 0.7954(4)
H32 H 0.657164 0.337157 0.815278
C34 C 0.6699(8) 0.2351(4) 0.7392(4)
H33 H 0.530854 0.257959 0.720728
C35 C 0.7968(8) 0.1540(4) 0.7094(3)
C36 C 0.7206(7) 0.1062(3) 0.6457(3)
C37 C 0.9988(8) 0.1217(4) 0.7364(4)
loop_
_geom_bond_atom_site_label_1
_geom_bond_atom_site_label_2
_geom_bond_site_symmetry_1
_geom_bond_site_symmetry_2
O1 C17 1_555 1_555
O2 C17 1_555 1_555
O4 C1 1_555 1_555
C1 C2 1_555 1_555
C2 C3 1_555 1_555
C3 H1 1_555 1_555
C4 C3 1_555 1_555
H2 C4 1_555 1_555
H8 C10 1_555 1_555
C14 C13 1_555 1_555
H14 C14 1_555 1_555
C15 C14 1_555 1_555
H15 C15 1_555 1_555
C16 C15 1_555 1_555
C17 C16 1_555 1_555
C18 C16 1_555 1_555
Zn2 O4 1_555 1_555
Zn6_2 O1 1_555 1_555
O14 Zn2 1_555 1_555
O18 Zn2 1_555 1_555
Zn11 O2 1_555 1_555
N2 C27 1_555 1_555
C25 C24 1_555 1_555
H21 C25 1_555 1_555
H22 C26 1_555 1_555
C27 C24 1_555 1_555
H23 C27 1_555 1_555
H24 C27 1_555 1_555
C28 N2 1_555 1_555
H25 C28 1_555 1_555
H29 C30 1_555 1_555
C31 N2 1_555 1_555
H30 C31 1_555 1_555
H35 C38 1_555 1_555
Zn6_2 O8 1_555 1_555
C25 C26 1_555 1_555
C28 C30 1_555 1_555
O5 Zn6_2 1_555 1_555
H18 O5 1_555 1_555
Zn11 O5 1_555 1_555
Zn6_3 O3 1_555 1_555
N1 C8 1_555 1_555
C6 C5 1_555 1_555
H3 C6 1_555 1_555
H4 C7 1_555 1_555
C8 C5 1_555 1_555
H5 C8 1_555 1_555
H6 C8 1_555 1_555
C9 N1 1_555 1_555
H7 C9 1_555 1_555
C11 C9 1_555 1_555
H11 C11 1_555 1_555
C12 N1 1_555 1_555
H12 C12 1_555 1_555
H17 C19 1_555 1_555
O18 Zn6_3 1_555 1_555
H36 O18 1_555 1_555
O12 Zn6_3 1_555 1_555
C6 C7 1_555 1_555
O12 C36 1_555 1_555
O14 C36 1_555 1_555
O9 C20 1_555 1_555
C20 C21 1_555 1_555
C21 C22 1_555 1_555
C22 H19 1_555 1_555
C23 C22 1_555 1_555
H20 C23 1_555 1_555
H26 C29 1_555 1_555
C33 C32 1_555 1_555
H32 C33 1_555 1_555
C34 C33 1_555 1_555
H33 C34 1_555 1_555
C35 C34 1_555 1_555
C36 C35 1_555 1_555
C37 C35 1_555 1_555
Zn11 O9 1_555 1_555

#END
