
###############################################################################
#
# This file contains modified crystal structure data generated from the
# MOF subset of the Cambridge Structural Database (CSD) v543 
# hosted by the Cambridge Crystallographic Data Centre (CCDC).
#
# This work is licensed under the Creative Commons
# Attribution-NonCommercial-ShareAlike 4.0 International License.
# To view a copy of this license, visit
# http://creativecommons.org/licenses/by-nc-sa/4.0/
# or send a letter to
# Creative Commons, PO Box 1866, Mountain View, CA 94042, USA.
#
# CIF created using the CSD Python API on 29 September 2022
# The structure has been converted into the P1 space group
# The structure has a 3D framework
# The original CSD entry QACWEA is in the orthorhombic crystal system
# The framework has been calculated to contain at least 10.0% void space
# The void calculation uses a probe of radius 1.32A, grid spacing 0.4
# The framework is charged, counterions have been retained in the structure
# H atom positions have been added when not included in the experimental data
# Generated hydrogen atom positions removed from atoms on special positions
#
###############################################################################

data_QACWEA
_chemical_formula_moiety         '(C112 H52 O64 S8 Zn12 4-)n'
_symmetry_cell_setting           triclinic
_symmetry_space_group_name_H-M   'P 1'
_symmetry_Int_Tables_number      1
_space_group_name_Hall           'P 1'
loop_
_symmetry_equiv_pos_site_id
_symmetry_equiv_pos_as_xyz
1 x,y,z
_cell_length_a                   16.93290(10)
_cell_length_b                   16.73970(10)
_cell_length_c                   24.8806(2)
_cell_angle_alpha                90
_cell_angle_beta                 90
_cell_angle_gamma                90
_cell_volume                     7052.45
loop_
_atom_site_label
_atom_site_type_symbol
_atom_site_fract_x
_atom_site_fract_y
_atom_site_fract_z
Zn2 Zn 0.03226(2) 0.63719(2) 0.39577(2)
O7 O 0.05179(11) 0.7500 0.41648(7)
C15 C 0.13461(11) 0.59869(12) 0.48440(7)
C16 C 0.15631(12) 0.54827(13) 0.53225(8)
C17 C 0.22971(13) 0.56067(15) 0.55637(9)
H7 H 0.2660 0.5966 0.5422
C18 C 0.10433(11) 0.49197(12) 0.55280(7)
H8 H 0.0569 0.4829 0.5350
C19 C 0.24591(13) 0.51797(16) 0.60152(9)
C20 C 0.12123(11) 0.44763(12) 0.60015(7)
C21 C 0.19431(12) 0.46311(14) 0.62523(8)
C22 C 0.22444(12) 0.43004(14) 0.67618(8)
C23 C 0.29932(13) 0.45922(16) 0.68947(10)
C24 C 0.18838(12) 0.37863(14) 0.71219(9)
H9 H 0.1390 0.3571 0.7046
C25 C 0.33844(14) 0.44023(17) 0.73587(10)
H10 H 0.3884 0.4607 0.7430
C26 C 0.22666(13) 0.35962(14) 0.75970(9)
H11 H 0.2017 0.3259 0.7841
C27 C 0.30100(12) 0.38930(14) 0.77209(8)
C28 C 0.34169(12) 0.36644(13) 0.82340(8)
O10 O 0.17489(9) 0.65941(9) 0.47686(6)
O11 O 0.07659(8) 0.57540(9) 0.45621(5)
O12 O 0.30194(10) 0.33164(13) 0.85794(7)
O13 O 0.41319(9) 0.38517(10) 0.82790(6)
O14 O 0.07317(8) 0.39458(9) 0.62067(6)
S2 S 0.33494(4) 0.52295(6) 0.63847(3)
O15 O 0.39840(11) 0.4855(2) 0.60908(10)
O16 O 0.34947(18) 0.60113(18) 0.65899(12)
Zn5 Zn 0.18197(2) 0.7500 0.42082(2)
Zn6 Zn 0.31803(2) 0.2500 0.92082(2)
Zn7 Zn 0.46774(2) 0.36281(2) 0.89577(2)
Zn9 Zn 0.03226(2) 0.86281(2) 0.39577(2)
O21 O 0.08681(9) 0.61483(10) 0.32790(6)
Zn1 Zn 0.81803(2) 0.2500 0.57918(2)
C1 C 0.86539(11) 0.40131(12) 0.51560(7)
C2 C 0.84369(12) 0.45173(13) 0.46775(8)
C3 C 0.77029(13) 0.43933(15) 0.44363(9)
H1 H 0.7340 0.4034 0.4578
C4 C 0.89567(11) 0.50803(12) 0.44720(7)
H2 H 0.9431 0.5171 0.4650
C5 C 0.75409(13) 0.48203(16) 0.39848(9)
C6 C 0.87877(11) 0.55237(12) 0.39985(7)
C7 C 0.80569(12) 0.53689(14) 0.37477(8)
C8 C 0.77556(12) 0.56996(14) 0.32382(8)
C9 C 0.70068(13) 0.54078(16) 0.31053(10)
C10 C 0.81162(12) 0.62137(14) 0.28781(9)
H3 H 0.8610 0.6429 0.2954
C11 C 0.66156(14) 0.55977(17) 0.26413(10)
H4 H 0.6116 0.5393 0.2570
C12 C 0.77334(13) 0.64038(14) 0.24030(9)
H5 H 0.7983 0.6741 0.2159
C13 C 0.69900(12) 0.61070(14) 0.22791(8)
C14 C 0.65831(12) 0.63356(13) 0.17660(8)
O1 O 0.69783(12) 0.2500 0.56919(9)
O2 O 0.82511(9) 0.34059(9) 0.52314(6)
O3 O 0.92341(8) 0.42460(9) 0.54379(5)
O4 O 0.69806(10) 0.66836(13) 0.14206(7)
O5 O 0.58681(9) 0.61483(10) 0.17210(6)
O6 O 0.92683(8) 0.60542(9) 0.37933(6)
S1 S 0.66506(4) 0.47705(6) 0.36153(3)
O8 O 0.60160(11) 0.5145(2) 0.39092(10)
O9 O 0.65053(18) 0.39887(18) 0.34101(12)
Zn3 Zn 0.96774(2) 0.36281(2) 0.60423(2)
Zn4 Zn 0.68197(2) 0.7500 0.07918(2)
Zn8 Zn 0.53226(2) 0.63719(2) 0.10423(2)
O17 O 0.82511(9) 0.15941(9) 0.52314(6)
O18 O 0.80194(10) 0.33164(13) 0.64206(7)
O19 O 0.80194(10) 0.16836(13) 0.64206(7)
O20 O 0.91319(9) 0.38517(10) 0.67210(6)
O22 O 0.94821(11) 0.2500 0.58352(7)
C1_2 C 0.63461(11) 0.59869(12) 0.01560(7)
O1_2 O 0.80217(12) 0.7500 0.06919(9)
O2_2 O 0.67489(9) 0.65941(9) 0.02314(6)
O3_2 O 0.57659(8) 0.57540(9) 0.04379(5)
C16_2 C 0.34369(12) 0.45173(13) 0.03225(8)
C17_2 C 0.27029(13) 0.43933(15) 0.05637(9)
H7_2 H 0.2340 0.4034 0.0422
C18_2 C 0.39567(11) 0.50803(12) 0.05280(7)
H8_2 H 0.4431 0.5171 0.0350
C19_2 C 0.25409(13) 0.48203(16) 0.10152(9)
C20_2 C 0.37877(11) 0.55237(12) 0.10015(7)
C21_2 C 0.30569(12) 0.53689(14) 0.12523(8)
C22_2 C 0.27556(12) 0.56996(14) 0.17618(8)
C23_2 C 0.20068(13) 0.54078(16) 0.18947(10)
C24_2 C 0.31162(12) 0.62137(14) 0.21219(9)
H9_2 H 0.3610 0.6429 0.2046
C25_2 C 0.16156(14) 0.55977(17) 0.23587(10)
H10_2 H 0.1116 0.5393 0.2430
C26_2 C 0.27334(13) 0.64038(14) 0.25970(9)
H11_2 H 0.2983 0.6741 0.2841
C27_2 C 0.19900(12) 0.61070(14) 0.27209(8)
C28_2 C 0.15831(12) 0.63356(13) 0.32340(8)
O12_2 O 0.19806(10) 0.66836(13) 0.35794(7)
O14_2 O 0.42683(8) 0.60542(9) 0.12067(6)
S2_2 S 0.16506(4) 0.47705(6) 0.13847(3)
O15_2 O 0.10160(11) 0.5145(2) 0.10908(10)
O16_2 O 0.15053(18) 0.39887(18) 0.15899(12)
O17_2 O 0.67489(9) 0.84059(9) 0.02314(6)
O19_2 O 0.69806(10) 0.83164(13) 0.14206(7)
O22_2 O 0.55179(11) 0.7500 0.08352(7)
C2_2 C 0.65631(12) 0.54827(13) 0.96775(8)
C3_2 C 0.72971(13) 0.56067(15) 0.94363(9)
H1_2 H 0.7660 0.5966 0.9578
C4_2 C 0.60433(11) 0.49197(12) 0.94720(7)
H2_2 H 0.5569 0.4829 0.9650
C5_2 C 0.74591(13) 0.51797(16) 0.89848(9)
C6_2 C 0.62123(11) 0.44763(12) 0.89985(7)
C7_2 C 0.69431(12) 0.46311(14) 0.87477(8)
C8_2 C 0.72444(12) 0.43004(14) 0.82382(8)
C9_2 C 0.79932(13) 0.45922(16) 0.81053(10)
C10_2 C 0.68838(12) 0.37863(14) 0.78781(9)
H3_2 H 0.6390 0.3571 0.7954
C11_2 C 0.83844(14) 0.44023(17) 0.76413(10)
H4_2 H 0.8884 0.4607 0.7570
C12_2 C 0.72666(13) 0.35962(14) 0.74030(9)
H5_2 H 0.7017 0.3259 0.7159
C13_2 C 0.80100(12) 0.38930(14) 0.72791(8)
C14_2 C 0.84169(12) 0.36644(13) 0.67660(8)
O6_2 O 0.57317(8) 0.39458(9) 0.87933(6)
O7_2 O 0.44821(11) 0.2500 0.91648(7)
S1_2 S 0.83494(4) 0.52295(6) 0.86153(3)
O8_2 O 0.89840(11) 0.4855(2) 0.89092(10)
O9_2 O 0.84947(18) 0.60113(18) 0.84101(12)
C15_2 C 0.36539(11) 0.40131(12) 0.98440(7)
O10_2 O 0.32511(9) 0.34059(9) 0.97686(6)
O11_2 O 0.42341(8) 0.42460(9) 0.95621(5)
Zn9_2 Zn 0.46774(2) 0.13719(2) 0.89577(2)
C4_3 C 0.10433(11) 0.00803(12) 0.55280(7)
H2_3 H 0.0569 0.0171 0.5350
C6_3 C 0.12123(11) 0.05237(12) 0.60015(7)
C7_3 C 0.19431(12) 0.03689(14) 0.62523(8)
C8_3 C 0.22444(12) 0.06996(14) 0.67618(8)
C9_3 C 0.29932(13) 0.04078(16) 0.68947(10)
C10_3 C 0.18838(12) 0.12137(14) 0.71219(9)
H3_3 H 0.1390 0.1429 0.7046
C11_3 C 0.33844(14) 0.05977(17) 0.73587(10)
H4_3 H 0.3884 0.0393 0.7430
C12_3 C 0.22666(13) 0.14038(14) 0.75970(9)
H5_3 H 0.2017 0.1741 0.7841
C13_3 C 0.30100(12) 0.11070(14) 0.77209(8)
C14_3 C 0.34169(12) 0.13356(13) 0.82340(8)
O4_2 O 0.30194(10) 0.16836(13) 0.85794(7)
O5_2 O 0.41319(9) 0.11483(10) 0.82790(6)
O6_3 O 0.07317(8) 0.10542(9) 0.62067(6)
O8_3 O 0.39840(11) 0.0145(2) 0.60908(10)
C1_3 C 0.13461(11) 0.90131(12) 0.48440(7)
C2_3 C 0.15631(12) 0.95173(13) 0.53225(8)
C3_3 C 0.22971(13) 0.93933(15) 0.55637(9)
H1_3 H 0.2660 0.9034 0.5422
C5_3 C 0.24591(13) 0.98203(16) 0.60152(9)
O1_3 O 0.30217(12) 0.7500 0.43081(9)
O2_3 O 0.17489(9) 0.84059(9) 0.47686(6)
O3_3 O 0.07659(8) 0.92460(9) 0.45621(5)
S1_3 S 0.33494(4) 0.97705(6) 0.63847(3)
O9_3 O 0.34947(18) 0.89887(18) 0.65899(12)
O18_2 O 0.19806(10) 0.83164(13) 0.35794(7)
O20_2 O 0.08681(9) 0.88517(10) 0.32790(6)
Zn2_2 Zn 0.96774(2) 0.13719(2) 0.60423(2)
C15_3 C 0.86539(11) 0.09869(12) 0.51560(7)
C16_3 C 0.84369(12) 0.04827(13) 0.46775(8)
C17_3 C 0.77029(13) 0.06067(15) 0.44363(9)
H7_3 H 0.7340 0.0966 0.4578
C19_3 C 0.75409(13) 0.01797(16) 0.39848(9)
O11_3 O 0.92341(8) 0.07540(9) 0.54379(5)
S2_3 S 0.66506(4) 0.02295(6) 0.36153(3)
O16_3 O 0.65053(18) 0.10113(18) 0.34101(12)
O21_2 O 0.91319(9) 0.11483(10) 0.67210(6)
C18_3 C 0.89567(11) 0.99197(12) 0.44720(7)
H8_3 H 0.9431 0.9829 0.4650
C20_3 C 0.87877(11) 0.94763(12) 0.39985(7)
C21_3 C 0.80569(12) 0.96311(14) 0.37477(8)
C22_3 C 0.77556(12) 0.93004(14) 0.32382(8)
C23_3 C 0.70068(13) 0.95922(16) 0.31053(10)
C24_3 C 0.81162(12) 0.87863(14) 0.28781(9)
H9_3 H 0.8610 0.8571 0.2954
C25_3 C 0.66156(14) 0.94023(17) 0.26413(10)
H10_3 H 0.6116 0.9607 0.2570
C26_3 C 0.77334(13) 0.85962(14) 0.24030(9)
H11_3 H 0.7983 0.8259 0.2159
C27_3 C 0.69900(12) 0.88930(14) 0.22791(8)
C28_3 C 0.65831(12) 0.86644(13) 0.17660(8)
O13_2 O 0.58681(9) 0.88517(10) 0.17210(6)
O14_3 O 0.92683(8) 0.89458(9) 0.37933(6)
O15_3 O 0.60160(11) 0.9855(2) 0.39092(10)
Zn7_2 Zn 0.53226(2) 0.86281(2) 0.10423(2)
C1_4 C 0.36539(11) 0.09869(12) 0.98440(7)
O1_4 O 0.19783(12) 0.2500 0.93081(9)
O2_4 O 0.32511(9) 0.15941(9) 0.97686(6)
O3_4 O 0.42341(8) 0.07540(9) 0.95621(5)
C18_4 C 0.60433(11) 0.00803(12) 0.94720(7)
H8_4 H 0.5569 0.0171 0.9650
C20_4 C 0.62123(11) 0.05237(12) 0.89985(7)
C21_4 C 0.69431(12) 0.03689(14) 0.87477(8)
C22_4 C 0.72444(12) 0.06996(14) 0.82382(8)
C23_4 C 0.79932(13) 0.04078(16) 0.81053(10)
C24_4 C 0.68838(12) 0.12137(14) 0.78781(9)
H9_4 H 0.6390 0.1429 0.7954
C25_4 C 0.83844(14) 0.05977(17) 0.76413(10)
H10_4 H 0.8884 0.0393 0.7570
C26_4 C 0.72666(13) 0.14038(14) 0.74030(9)
H11_4 H 0.7017 0.1741 0.7159
C27_4 C 0.80100(12) 0.11070(14) 0.72791(8)
C28_4 C 0.84169(12) 0.13356(13) 0.67660(8)
O14_4 O 0.57317(8) 0.10542(9) 0.87933(6)
O15_4 O 0.89840(11) 0.0145(2) 0.89092(10)
C4_4 C 0.39567(11) 0.99197(12) 0.05280(7)
H2_4 H 0.4431 0.9829 0.0350
C6_4 C 0.37877(11) 0.94763(12) 0.10015(7)
C7_4 C 0.30569(12) 0.96311(14) 0.12523(8)
C8_4 C 0.27556(12) 0.93004(14) 0.17618(8)
C9_4 C 0.20068(13) 0.95922(16) 0.18947(10)
C10_4 C 0.31162(12) 0.87863(14) 0.21219(9)
H3_4 H 0.3610 0.8571 0.2046
C11_4 C 0.16156(14) 0.94023(17) 0.23587(10)
H4_4 H 0.1116 0.9607 0.2430
C12_4 C 0.27334(13) 0.85962(14) 0.25970(9)
H5_4 H 0.2983 0.8259 0.2841
C13_4 C 0.19900(12) 0.88930(14) 0.27209(8)
C14_4 C 0.15831(12) 0.86644(13) 0.32340(8)
O6_4 O 0.42683(8) 0.89458(9) 0.12067(6)
O8_4 O 0.10160(11) 0.9855(2) 0.10908(10)
C15_4 C 0.63461(11) 0.90131(12) 0.01560(7)
O11_4 O 0.57659(8) 0.92460(9) 0.04379(5)
C2_4 C 0.34369(12) 0.04827(13) 0.03225(8)
C3_4 C 0.27029(13) 0.06067(15) 0.05637(9)
H1_4 H 0.2340 0.0966 0.0422
C5_4 C 0.25409(13) 0.01797(16) 0.10152(9)
S1_4 S 0.16506(4) 0.02295(6) 0.13847(3)
O9_4 O 0.15053(18) 0.10113(18) 0.15899(12)
C16_4 C 0.65631(12) 0.95173(13) 0.96775(8)
C17_4 C 0.72971(13) 0.93933(15) 0.94363(9)
H7_4 H 0.7660 0.9034 0.9578
C19_4 C 0.74591(13) 0.98203(16) 0.89848(9)
S2_4 S 0.83494(4) 0.97705(6) 0.86153(3)
O16_4 O 0.84947(18) 0.89887(18) 0.84101(12)
loop_
_geom_bond_atom_site_label_1
_geom_bond_atom_site_label_2
_geom_bond_site_symmetry_1
_geom_bond_site_symmetry_2
O7 Zn2 1_555 1_555
C15 C16 1_555 1_555
C16 C17 1_555 1_555
C17 H7 1_555 1_555
C18 C16 1_555 1_555
H8 C18 1_555 1_555
C19 C17 1_555 1_555
C20 C18 1_555 1_555
C21 C19 1_555 1_555
C22 C21 1_555 1_555
C23 C22 1_555 1_555
C24 C22 1_555 1_555
H9 C24 1_555 1_555
C25 C23 1_555 1_555
H10 C25 1_555 1_555
C26 C24 1_555 1_555
H11 C26 1_555 1_555
C27 C25 1_555 1_555
C28 C27 1_555 1_555
O10 C15 1_555 1_555
O11 Zn2 1_555 1_555
O12 C28 1_555 1_555
O13 C28 1_555 1_555
S2 C19 1_555 1_555
O15 S2 1_555 1_555
O16 S2 1_555 1_555
Zn5 O7 1_555 1_555
Zn6 O12 1_555 1_555
Zn7 O13 1_555 1_555
Zn9 O7 1_555 1_555
O21 Zn2 1_555 1_555
C15 O11 1_555 1_555
C20 C21 1_555 1_555
C20 O14 1_555 1_555
C23 S2 1_555 1_555
C26 C27 1_555 1_555
O10 Zn5 1_555 1_555
Zn1 O1 1_555 1_555
C1 C2 1_555 1_555
C2 C3 1_555 1_555
C3 H1 1_555 1_555
C4 C2 1_555 1_555
H2 C4 1_555 1_555
C5 C3 1_555 1_555
C6 C4 1_555 1_555
C7 C5 1_555 1_555
C8 C7 1_555 1_555
C9 C8 1_555 1_555
C10 C8 1_555 1_555
H3 C10 1_555 1_555
C11 C9 1_555 1_555
H4 C11 1_555 1_555
C12 C10 1_555 1_555
H5 C12 1_555 1_555
C13 C11 1_555 1_555
C14 C13 1_555 1_555
O2 Zn1 1_555 1_555
O3 C1 1_555 1_555
O4 C14 1_555 1_555
O5 C14 1_555 1_555
O6 C6 1_555 1_555
S1 C5 1_555 1_555
O8 S1 1_555 1_555
O9 S1 1_555 1_555
Zn3 O3 1_555 1_555
Zn4 O4 1_555 1_555
Zn8 O5 1_555 1_555
O17 Zn1 1_555 1_555
O18 Zn1 1_555 1_555
O19 Zn1 1_555 1_555
O20 Zn3 1_555 1_555
O22 Zn1 1_555 1_555
C1 O2 1_555 1_555
C6 C7 1_555 1_555
C9 S1 1_555 1_555
C12 C13 1_555 1_555
Zn3 O22 1_555 1_555
Zn4 O1_2 1_555 1_555
O2_2 Zn4 1_555 1_555
O3_2 C1_2 1_555 1_555
Zn8 O3_2 1_555 1_555
C16_2 C17_2 1_555 1_555
C17_2 H7_2 1_555 1_555
C18_2 C16_2 1_555 1_555
H8_2 C18_2 1_555 1_555
C19_2 C17_2 1_555 1_555
C20_2 C18_2 1_555 1_555
C21_2 C19_2 1_555 1_555
C22_2 C21_2 1_555 1_555
C23_2 C22_2 1_555 1_555
C24_2 C22_2 1_555 1_555
H9_2 C24_2 1_555 1_555
C25_2 C23_2 1_555 1_555
H10_2 C25_2 1_555 1_555
C26_2 C24_2 1_555 1_555
H11_2 C26_2 1_555 1_555
C27_2 C25_2 1_555 1_555
C28_2 C27_2 1_555 1_555
O12_2 C28_2 1_555 1_555
O21 C28_2 1_555 1_555
O14_2 Zn8 1_555 1_555
S2_2 C19_2 1_555 1_555
O15_2 S2_2 1_555 1_555
O16_2 S2_2 1_555 1_555
Zn5 O12_2 1_555 1_555
O17_2 Zn4 1_555 1_555
O19_2 Zn4 1_555 1_555
O22_2 Zn4 1_555 1_555
C1_2 O2_2 1_555 1_555
Zn8 O22_2 1_555 1_555
C20_2 C21_2 1_555 1_555
C20_2 O14_2 1_555 1_555
C23_2 S2_2 1_555 1_555
C26_2 C27_2 1_555 1_555
Zn7 O6_2 1_555 1_555
C2_2 C3_2 1_555 1_555
C3_2 H1_2 1_555 1_555
C4_2 C2_2 1_555 1_555
H2_2 C4_2 1_555 1_555
C5_2 C3_2 1_555 1_555
C6_2 C4_2 1_555 1_555
C7_2 C5_2 1_555 1_555
C8_2 C7_2 1_555 1_555
C9_2 C8_2 1_555 1_555
C10_2 C8_2 1_555 1_555
H3_2 C10_2 1_555 1_555
C11_2 C9_2 1_555 1_555
H4_2 C11_2 1_555 1_555
C12_2 C10_2 1_555 1_555
H5_2 C12_2 1_555 1_555
C13_2 C11_2 1_555 1_555
C14_2 C13_2 1_555 1_555
O18 C14_2 1_555 1_555
O20 C14_2 1_555 1_555
O6_2 C6_2 1_555 1_555
O7_2 Zn7 1_555 1_555
S1_2 C5_2 1_555 1_555
O8_2 S1_2 1_555 1_555
O9_2 S1_2 1_555 1_555
O10_2 C15_2 1_555 1_555
O11_2 Zn7 1_555 1_555
Zn6 O7_2 1_555 1_555
Zn9_2 O7_2 1_555 1_555
C6_2 C7_2 1_555 1_555
C9_2 S1_2 1_555 1_555
C12_2 C13_2 1_555 1_555
C15_2 O11_2 1_555 1_555
O10_2 Zn6 1_555 1_555
H2_3 C4_3 1_555 1_555
C6_3 C4_3 1_555 1_555
C8_3 C7_3 1_555 1_555
C9_3 C8_3 1_555 1_555
C10_3 C8_3 1_555 1_555
H3_3 C10_3 1_555 1_555
C11_3 C9_3 1_555 1_555
H4_3 C11_3 1_555 1_555
C12_3 C10_3 1_555 1_555
H5_3 C12_3 1_555 1_555
C13_3 C11_3 1_555 1_555
C14_3 C13_3 1_555 1_555
O4_2 C14_3 1_555 1_555
O5_2 C14_3 1_555 1_555
O6_3 C6_3 1_555 1_555
Zn6 O4_2 1_555 1_555
Zn9_2 O5_2 1_555 1_555
C6_3 C7_3 1_555 1_555
C12_3 C13_3 1_555 1_555
Zn5 O1_3 1_555 1_555
C1_3 C2_3 1_555 1_555
C2_3 C3_3 1_555 1_555
C3_3 H1_3 1_555 1_555
C5_3 C3_3 1_555 1_555
O2_3 Zn5 1_555 1_555
O3_3 C1_3 1_555 1_555
S1_3 C5_3 1_555 1_555
O9_3 S1_3 1_555 1_555
Zn9 O3_3 1_555 1_555
O18_2 Zn5 1_555 1_555
O20_2 Zn9 1_555 1_555
C1_3 O2_3 1_555 1_555
O22 Zn2_2 1_555 1_555
C15_3 C16_3 1_555 1_555
C16_3 C17_3 1_555 1_555
C17_3 H7_3 1_555 1_555
C19_3 C17_3 1_555 1_555
O17 C15_3 1_555 1_555
O11_3 Zn2_2 1_555 1_555
S2_3 C19_3 1_555 1_555
O16_3 S2_3 1_555 1_555
O21_2 Zn2_2 1_555 1_555
C15_3 O11_3 1_555 1_555
H8_3 C18_3 1_555 1_555
C20_3 C18_3 1_555 1_555
C22_3 C21_3 1_555 1_555
C23_3 C22_3 1_555 1_555
C24_3 C22_3 1_555 1_555
H9_3 C24_3 1_555 1_555
C25_3 C23_3 1_555 1_555
H10_3 C25_3 1_555 1_555
C26_3 C24_3 1_555 1_555
H11_3 C26_3 1_555 1_555
C27_3 C25_3 1_555 1_555
C28_3 C27_3 1_555 1_555
O19_2 C28_3 1_555 1_555
O13_2 C28_3 1_555 1_555
Zn7_2 O13_2 1_555 1_555
C20_3 C21_3 1_555 1_555
C20_3 O14_3 1_555 1_555
C26_3 C27_3 1_555 1_555
Zn6 O1_4 1_555 1_555
O2_4 Zn6 1_555 1_555
O3_4 C1_4 1_555 1_555
Zn9_2 O3_4 1_555 1_555
H8_4 C18_4 1_555 1_555
C20_4 C18_4 1_555 1_555
C22_4 C21_4 1_555 1_555
C23_4 C22_4 1_555 1_555
C24_4 C22_4 1_555 1_555
H9_4 C24_4 1_555 1_555
C25_4 C23_4 1_555 1_555
H10_4 C25_4 1_555 1_555
C26_4 C24_4 1_555 1_555
H11_4 C26_4 1_555 1_555
C27_4 C25_4 1_555 1_555
C28_4 C27_4 1_555 1_555
O19 C28_4 1_555 1_555
O21_2 C28_4 1_555 1_555
O14_4 Zn9_2 1_555 1_555
C1_4 O2_4 1_555 1_555
C20_4 C21_4 1_555 1_555
C20_4 O14_4 1_555 1_555
C26_4 C27_4 1_555 1_555
Zn7_2 O6_4 1_555 1_555
H2_4 C4_4 1_555 1_555
C6_4 C4_4 1_555 1_555
C8_4 C7_4 1_555 1_555
C9_4 C8_4 1_555 1_555
C10_4 C8_4 1_555 1_555
H3_4 C10_4 1_555 1_555
C11_4 C9_4 1_555 1_555
H4_4 C11_4 1_555 1_555
C12_4 C10_4 1_555 1_555
H5_4 C12_4 1_555 1_555
C13_4 C11_4 1_555 1_555
C14_4 C13_4 1_555 1_555
O18_2 C14_4 1_555 1_555
O20_2 C14_4 1_555 1_555
O6_4 C6_4 1_555 1_555
O22_2 Zn7_2 1_555 1_555
O17_2 C15_4 1_555 1_555
O11_4 Zn7_2 1_555 1_555
C6_4 C7_4 1_555 1_555
C12_4 C13_4 1_555 1_555
C15_4 O11_4 1_555 1_555
C2_4 C3_4 1_555 1_555
C3_4 H1_4 1_555 1_555
C5_4 C3_4 1_555 1_555
S1_4 C5_4 1_555 1_555
O9_4 S1_4 1_555 1_555
C16_4 C17_4 1_555 1_555
C17_4 H7_4 1_555 1_555
C19_4 C17_4 1_555 1_555
S2_4 C19_4 1_555 1_555
O16_4 S2_4 1_555 1_555

#END
