
###############################################################################
#
# This file contains modified crystal structure data generated from the
# MOF subset of the Cambridge Structural Database (CSD) v543 
# hosted by the Cambridge Crystallographic Data Centre (CCDC).
#
# This work is licensed under the Creative Commons
# Attribution-NonCommercial-ShareAlike 4.0 International License.
# To view a copy of this license, visit
# http://creativecommons.org/licenses/by-nc-sa/4.0/
# or send a letter to
# Creative Commons, PO Box 1866, Mountain View, CA 94042, USA.
#
# CIF created using the CSD Python API on 29 September 2022
# The structure has been converted into the P1 space group
# The structure has a 3D framework
# The original CSD entry QADHIQ is in the monoclinic crystal system
# The framework has been calculated to contain at least 10.0% void space
# The void calculation uses a probe of radius 1.32A, grid spacing 0.4
#
###############################################################################

data_QADHIQ
_chemical_formula_moiety         '(C136 H104 N36 Ni4 O20)n'
_symmetry_cell_setting           triclinic
_symmetry_space_group_name_H-M   'P 1'
_symmetry_Int_Tables_number      1
_space_group_name_Hall           'P 1'
loop_
_symmetry_equiv_pos_site_id
_symmetry_equiv_pos_as_xyz
1 x,y,z
_cell_length_a                   16.4307(15)
_cell_length_b                   12.5854(9)
_cell_length_c                   18.7295(12)
_cell_angle_alpha                90
_cell_angle_beta                 105.033(8)
_cell_angle_gamma                90
_cell_volume                     3740.47
loop_
_atom_site_label
_atom_site_type_symbol
_atom_site_fract_x
_atom_site_fract_y
_atom_site_fract_z
C62 C 0.0086(5) 0.3577(6) 0.1964(4)
H44 H 0.020058 0.429910 0.194897
C63 C 0.0275(4) 0.3043(6) 0.2630(3)
C64 C 0.0108(5) 0.1979(6) 0.2657(4)
H45 H 0.023572 0.162732 0.310925
C66 C 0.0374(5) 0.3544(6) 0.3948(4)
C67 C 0.1250(4) 0.4315(5) 0.3433(3)
H48 H 0.153700 0.451099 0.308616
C68 C 0.0855(5) 0.4205(6) 0.4434(4)
H49 H 0.081726 0.431382 0.491510
N17 N 0.0625(3) 0.3613(4) 0.3309(3)
N18 N 0.1414(3) 0.4701(4) 0.4113(3)
Ni4 Ni 0.23212(5) 0.58013(6) 0.46057(4)
H34 H 0.828056 0.062311 0.654952
H35 H 0.810399 0.013662 0.767366
H38 H 0.709648 0.050992 0.168461
C55 C 0.7302(6) 0.0269(6) 0.2779(4)
H39 H 0.740447 0.097501 0.292001
C57 C 0.8809(5) 0.0737(6) 0.9590(4)
H40 H 0.881216 0.055822 0.910856
H41 H 0.980050 0.176200 0.990872
N13 N 0.7886(4) 0.0670(4) 0.4396(3)
H50 H 0.795952 0.121708 0.414405
N14 N 0.8067(4) 0.0621(4) 0.5147(3)
N15 N 0.8238(3) 0.0365(4) 0.9948(3)
N19 N 0.6414(3) 0.0299(4) 0.9113(3)
C1 C 0.2511(4) 0.6623(5) 0.3125(3)
C2 C 0.2675(4) 0.6338(5) 0.2396(3)
C3 C 0.2504(5) 0.7056(5) 0.1818(3)
H1 H 0.234137 0.774499 0.189460
C4 C 0.2574(5) 0.6751(5) 0.1117(3)
H2 H 0.243573 0.722580 0.072379
C5 C 0.2851(4) 0.5738(5) 0.1015(3)
C6 C 0.3068(4) 0.5046(5) 0.1610(3)
H3 H 0.328056 0.437689 0.154952
C7 C 0.2969(5) 0.5343(5) 0.2283(3)
H4 H 0.310399 0.486338 0.267366
C8 C 0.2837(4) 0.5347(5) 0.0266(3)
C17 C 0.3809(5) 0.4263(6) 0.4590(4)
H9 H 0.381216 0.444178 0.410856
C18 C 0.4362(6) 0.3605(7) 0.5027(4)
H10 H 0.480050 0.323800 0.490872
C19 C 0.3458(5) 0.4212(5) 0.5602(4)
H11 H 0.317704 0.432650 0.596726
C20 C 0.4560(5) 0.3033(6) 0.6353(4)
C21 C 0.4731(5) 0.1964(6) 0.6326(4)
H12 H 0.460414 0.161036 0.587439
C22 C 0.5086(5) 0.1423(6) 0.6964(4)
H13 H 0.520058 0.070090 0.694897
C23 C 0.5275(4) 0.1957(6) 0.7630(3)
C24 C 0.5108(5) 0.3021(6) 0.7657(4)
H14 H 0.523572 0.337268 0.810925
C25 C 0.4751(5) 0.3569(6) 0.7017(4)
H15 H 0.464076 0.429192 0.703194
C26 C 0.5374(5) 0.1456(6) 0.8948(4)
H16 H 0.494596 0.188604 0.902840
C27 C 0.6250(4) 0.0685(5) 0.8433(3)
H17 H 0.653700 0.048901 0.808616
C28 C 0.5855(5) 0.0795(6) 0.9434(4)
H18 H 0.581726 0.068618 0.991510
C29 C 0.3485(4) 0.7727(5) 0.4821(3)
H19 H 0.330380 0.789471 0.432173
C30 C 0.3639(5) 0.6975(6) 0.5867(4)
H20 H 0.358298 0.649035 0.622619
C31 C 0.4147(5) 0.7814(6) 0.5993(4)
H21 H 0.448523 0.803727 0.644671
C32 C 0.4535(4) 0.9176(5) 0.5158(3)
C33 C 0.5356(4) 0.9338(6) 0.5598(3)
H22 H 0.559295 0.888699 0.599017
N3 N 0.3067(4) 0.4379(4) 0.0147(3)
N4 N 0.3238(3) 0.4635(4) 0.4948(3)
N5 N 0.4144(4) 0.3587(5) 0.5690(3)
N6 N 0.5625(3) 0.1387(4) 0.8309(3)
N8 N 0.3204(3) 0.6921(4) 0.5129(3)
N9 N 0.4072(3) 0.8284(4) 0.5320(3)
O1 O 0.2678(3) 0.5920(3) 0.3625(2)
O2 O 0.2202(4) 0.7509(4) 0.3190(2)
O5 O 0.1415(3) 0.7006(4) 0.4263(2)
H25 H 0.155128 0.738864 0.393823
H26 H 0.139328 0.737344 0.461933
C40 C 0.4205(4) 0.9819(5) 0.4570(3)
H31 H 0.366598 0.968083 0.427575
O11 O 0.1974(3) 0.5629(3) 0.5595(2)
C9 C 0.2573(5) 0.5272(6) 0.9109(3)
C10 C 0.2336(5) 0.5515(6) 0.8308(3)
C11 C 0.2136(5) 0.6529(6) 0.8086(4)
H5 H 0.212710 0.704944 0.843616
C12 C 0.1944(4) 0.6800(6) 0.7342(3)
H6 H 0.180742 0.749911 0.720078
C13 C 0.1952(4) 0.6045(5) 0.6812(3)
C14 C 0.2114(6) 0.5015(6) 0.7038(4)
H7 H 0.209648 0.449008 0.668461
C15 C 0.2302(6) 0.4731(6) 0.7779(4)
H8 H 0.240447 0.402499 0.792001
C16 C 0.1817(4) 0.6348(5) 0.6015(3)
N1 N 0.2528(4) 0.5933(4) 0.9643(3)
N2 N 0.2886(4) 0.4330(4) 0.9396(3)
H24 H 0.295952 0.378292 0.914405
O4 O 0.1580(3) 0.7271(4) 0.5822(2)
Ni3 Ni 0.26788(5) 0.08013(6) 0.03943(4)
C1_2 C 0.2489(4) 0.1623(5) 0.1875(3)
C2_2 C 0.2325(4) 0.1338(5) 0.2604(3)
C3_2 C 0.2496(5) 0.2056(5) 0.3182(3)
H1_2 H 0.265863 0.274499 0.310540
C4_2 C 0.2426(5) 0.1751(5) 0.3883(3)
H2_2 H 0.256427 0.222580 0.427621
C5_2 C 0.2149(4) 0.0738(5) 0.3985(3)
C6_2 C 0.1932(4) 0.0046(5) 0.3390(3)
C7_2 C 0.2031(5) 0.0343(5) 0.2717(3)
C8_2 C 0.2163(4) 0.0347(5) 0.4734(3)
C9_2 C 0.2427(5) 0.0272(6) 0.5891(3)
C10_2 C 0.2664(5) 0.0515(6) 0.6692(3)
C11_2 C 0.2864(5) 0.1529(6) 0.6914(4)
H5_2 H 0.287290 0.204944 0.656384
C12_2 C 0.3056(4) 0.1800(6) 0.7658(3)
H6_2 H 0.319258 0.249911 0.779922
C13_2 C 0.3048(4) 0.1045(5) 0.8188(3)
C14_2 C 0.2886(6) 0.0015(6) 0.7962(4)
C16_2 C 0.3183(4) 0.1348(5) 0.8985(3)
C29_2 C 0.1515(4) 0.2727(5) 0.0179(3)
H19_2 H 0.169620 0.289471 0.067827
N1_2 N 0.2472(4) 0.0933(4) 0.5357(3)
O1_2 O 0.2322(3) 0.0920(3) 0.1375(2)
O2_2 O 0.2798(4) 0.2509(4) 0.1810(2)
O3 O 0.3026(3) 0.0629(3) 0.9405(2)
O4_2 O 0.3420(3) 0.2271(4) 0.9178(2)
O5_2 O 0.3585(3) 0.2006(4) 0.0737(2)
H25_2 H 0.344872 0.238864 0.106177
H26_2 H 0.360672 0.237344 0.038067
C39 C 0.0356(4) 0.5662(6) 0.0598(3)
H30 H 0.059295 0.611301 0.099017
C40_2 C 0.0795(4) 0.4819(5) 0.0430(3)
H31_2 H 0.133402 0.468083 0.072425
C30_2 C 0.1361(5) 0.1975(6) 0.9133(4)
H20_2 H 0.141702 0.149035 0.877381
C31_2 C 0.0853(5) 0.2814(6) 0.9007(4)
H21_2 H 0.051477 0.303727 0.855329
C32_2 C 0.0465(4) 0.4176(5) 0.9842(3)
N8_2 N 0.1796(3) 0.1921(4) 0.9871(3)
N9_2 N 0.0928(3) 0.3284(4) 0.9680(3)
H3_2 H 0.171944 0.937689 0.345048
H4_2 H 0.189601 0.986338 0.232634
H7_2 H 0.290352 0.949008 0.831539
C15_2 C 0.2698(6) 0.9731(6) 0.7221(4)
H8_2 H 0.259553 0.902499 0.707999
C17_2 C 0.1191(5) 0.9263(6) 0.0410(4)
H9_2 H 0.118784 0.944178 0.089144
H10_2 H 0.019950 0.823800 0.009128
N2_2 N 0.2114(4) 0.9330(4) 0.5604(3)
H24_2 H 0.204048 0.878292 0.585595
N3_2 N 0.1933(4) 0.9379(4) 0.4853(3)
N4_2 N 0.1762(3) 0.9635(4) 0.0052(3)
N20 N 0.3586(3) 0.9701(4) 0.0887(3)
C22_2 C 0.9914(5) 0.6423(6) 0.8036(4)
H13_2 H 0.979942 0.570090 0.805103
C23_2 C 0.9725(4) 0.6957(6) 0.7370(3)
C24_2 C 0.9892(5) 0.8021(6) 0.7343(4)
H14_2 H 0.976428 0.837268 0.689075
C26_2 C 0.9626(5) 0.6456(6) 0.6052(4)
C27_2 C 0.8750(4) 0.5685(5) 0.6567(3)
H17_2 H 0.846300 0.548901 0.691384
C28_2 C 0.9145(5) 0.5795(6) 0.5566(4)
H18_2 H 0.918274 0.568618 0.508490
N6_2 N 0.9375(3) 0.6387(4) 0.6691(3)
N7 N 0.8586(3) 0.5299(4) 0.5887(3)
Ni6 Ni 0.76788(5) 0.41987(6) 0.53943(4)
C49 C 0.7427(5) 0.4728(6) 0.0891(3)
C50 C 0.7664(5) 0.4485(6) 0.1692(3)
C51 C 0.7864(5) 0.3471(6) 0.1914(4)
H36 H 0.787290 0.295056 0.156384
C52 C 0.8056(4) 0.3200(6) 0.2658(3)
H37 H 0.819258 0.250089 0.279922
C53 C 0.8048(4) 0.3955(5) 0.3188(3)
C54 C 0.7886(6) 0.4985(6) 0.2962(4)
H38_2 H 0.790352 0.550992 0.331539
C55_2 C 0.7698(6) 0.5269(6) 0.2221(4)
H39_2 H 0.759553 0.597501 0.207999
C56 C 0.8183(4) 0.3652(5) 0.3985(3)
N12 N 0.7472(4) 0.4067(4) 0.0357(3)
N13_2 N 0.7114(4) 0.5670(4) 0.0604(3)
H50_2 H 0.704048 0.621708 0.085595
O8 O 0.8026(3) 0.4371(3) 0.4405(2)
O9 O 0.8420(3) 0.2729(4) 0.4178(2)
C34 C 0.5795(4) 0.0181(5) 0.5430(3)
H23 H 0.633402 0.031917 0.572425
C35 C 0.6515(4) 0.2273(5) 0.5179(3)
H27 H 0.669620 0.210529 0.567827
C36 C 0.6361(5) 0.3025(6) 0.4133(4)
H28 H 0.641702 0.350965 0.377381
C37 C 0.5853(5) 0.2186(6) 0.4007(4)
H29 H 0.551477 0.196273 0.355329
C38 C 0.5465(4) 0.0824(5) 0.4842(3)
C39_2 C 0.4644(4) 0.0662(6) 0.4402(3)
H30_2 H 0.440705 0.111301 0.400983
N10 N 0.6796(3) 0.3079(4) 0.4871(3)
N11 N 0.5928(3) 0.1716(4) 0.4680(3)
C41 C 0.7489(4) 0.3377(5) 0.6875(3)
C42 C 0.7325(4) 0.3662(5) 0.7604(3)
C43 C 0.7496(5) 0.2944(5) 0.8182(3)
H32 H 0.765863 0.225501 0.810540
C44 C 0.7426(5) 0.3249(5) 0.8883(3)
H33 H 0.756427 0.277420 0.927621
C45 C 0.7149(4) 0.4262(5) 0.8985(3)
C46 C 0.6932(4) 0.4954(5) 0.8390(3)
H34_2 H 0.671944 0.562311 0.845048
C47 C 0.7031(5) 0.4657(5) 0.7717(3)
H35_2 H 0.689601 0.513662 0.732634
C48 C 0.7163(4) 0.4653(5) 0.9734(3)
C57_2 C 0.6191(5) 0.5737(6) 0.5410(4)
H40_2 H 0.618784 0.555822 0.589144
C58 C 0.5638(6) 0.6395(7) 0.4973(4)
H41_2 H 0.519950 0.676200 0.509128
C59 C 0.6542(5) 0.5788(5) 0.4398(4)
H42 H 0.682296 0.567350 0.403274
C60 C 0.5440(5) 0.6967(6) 0.3647(4)
C61 C 0.5269(5) 0.8036(6) 0.3674(4)
H43 H 0.539586 0.838964 0.412561
C62_2 C 0.4914(5) 0.8577(6) 0.3036(4)
H44_2 H 0.479942 0.929910 0.305103
C63_2 C 0.4725(4) 0.8043(6) 0.2370(3)
C64_2 C 0.4892(5) 0.6979(6) 0.2343(4)
H45_2 H 0.476428 0.662732 0.189075
C65 C 0.5249(5) 0.6431(6) 0.2983(4)
H46 H 0.535924 0.570808 0.296806
C66_2 C 0.4626(5) 0.8544(6) 0.1052(4)
H47 H 0.505404 0.811396 0.097160
C67_2 C 0.3750(4) 0.9315(5) 0.1567(3)
H48_2 H 0.346300 0.951099 0.191384
C68_2 C 0.4145(5) 0.9205(6) 0.0566(4)
H49_2 H 0.418274 0.931382 0.008490
N14_2 N 0.6933(4) 0.5621(4) 0.9853(3)
N15_2 N 0.6762(3) 0.5365(4) 0.5052(3)
N16 N 0.5856(4) 0.6413(5) 0.4310(3)
N17_2 N 0.4375(3) 0.8613(4) 0.1691(3)
O6 O 0.7322(3) 0.4080(3) 0.6375(2)
O7 O 0.7798(4) 0.2491(4) 0.6810(2)
O10 O 0.8585(3) 0.2994(4) 0.5737(2)
H51 H 0.844872 0.261136 0.606177
H52 H 0.860672 0.262656 0.538067
C18_2 C 0.0638(6) 0.8605(7) 0.9973(4)
C19_2 C 0.1542(5) 0.9212(5) 0.9398(4)
H11_2 H 0.182296 0.932650 0.903274
C20_2 C 0.0440(5) 0.8033(6) 0.8647(4)
C21_2 C 0.0269(5) 0.6964(6) 0.8674(4)
H12_2 H 0.039586 0.661036 0.912561
C25_2 C 0.0249(5) 0.8569(6) 0.7983(4)
H15_2 H 0.035924 0.929192 0.796806
H16_2 H 0.005404 0.688604 0.597160
N5_2 N 0.0856(4) 0.8587(5) 0.9310(3)
C58_2 C 0.9362(6) 0.1395(7) 0.0027(4)
C59_2 C 0.8458(5) 0.0788(5) 0.0602(4)
H42_2 H 0.817704 0.067350 0.096726
C60_2 C 0.9560(5) 0.1967(6) 0.1353(4)
C61_2 C 0.9731(5) 0.3036(6) 0.1326(4)
H43_2 H 0.960414 0.338964 0.087439
C65_2 C 0.9751(5) 0.1431(6) 0.2017(4)
H46_2 H 0.964076 0.070808 0.203194
H47_2 H 0.994596 0.311396 0.402840
N16_2 N 0.9144(4) 0.1413(5) 0.0690(3)
C36_2 C 0.8639(5) 0.8025(6) 0.0867(4)
H28_2 H 0.858298 0.850965 0.122619
C37_2 C 0.9147(5) 0.7186(6) 0.0993(4)
H29_2 H 0.948523 0.696273 0.144671
C38_2 C 0.9535(4) 0.5824(5) 0.0158(3)
N10_2 N 0.8204(3) 0.8079(4) 0.0129(3)
N11_2 N 0.9072(3) 0.6716(4) 0.0320(3)
O12 O 0.6974(3) 0.9371(3) 0.0595(2)
C33_2 C 0.9644(4) 0.4338(6) 0.9402(3)
H22_2 H 0.940705 0.388699 0.900983
C34_2 C 0.9205(4) 0.5181(5) 0.9570(3)
H23_2 H 0.866598 0.531917 0.927575
C35_2 C 0.8485(4) 0.7273(5) 0.9821(3)
H27_2 H 0.830380 0.710529 0.932173
C41_2 C 0.7511(4) 0.8377(5) 0.8125(3)
C42_2 C 0.7675(4) 0.8662(5) 0.7396(3)
C43_2 C 0.7504(5) 0.7944(5) 0.6818(3)
H32_2 H 0.734137 0.725501 0.689460
C44_2 C 0.7574(5) 0.8249(5) 0.6117(3)
H33_2 H 0.743573 0.777420 0.572379
C45_2 C 0.7851(4) 0.9262(5) 0.6015(3)
C46_2 C 0.8068(4) 0.9954(5) 0.6610(3)
C47_2 C 0.7969(5) 0.9657(5) 0.7283(3)
C48_2 C 0.7837(4) 0.9653(5) 0.5266(3)
C49_2 C 0.7573(5) 0.9728(6) 0.4109(3)
C50_2 C 0.7336(5) 0.9485(6) 0.3308(3)
C51_2 C 0.7136(5) 0.8471(6) 0.3086(4)
H36_2 H 0.712710 0.795056 0.343616
C52_2 C 0.6944(4) 0.8200(6) 0.2342(3)
H37_2 H 0.680742 0.750089 0.220078
C53_2 C 0.6952(4) 0.8955(5) 0.1812(3)
C54_2 C 0.7114(6) 0.9985(6) 0.2038(4)
C56_2 C 0.6817(4) 0.8652(5) 0.1015(3)
N12_2 N 0.7528(4) 0.9067(4) 0.4643(3)
Ni2 Ni 0.73212(5) 0.91987(6) 0.96057(4)
O6_2 O 0.7678(3) 0.9080(3) 0.8625(2)
O7_2 O 0.7202(4) 0.7491(4) 0.8190(2)
O9_2 O 0.6580(3) 0.7729(4) 0.0822(2)
O10_2 O 0.6415(3) 0.7994(4) 0.9263(2)
H51_2 H 0.655128 0.761136 0.893823
H52_2 H 0.639328 0.762656 0.961933
loop_
_geom_bond_atom_site_label_1
_geom_bond_atom_site_label_2
_geom_bond_site_symmetry_1
_geom_bond_site_symmetry_2
H44 C62 1_555 1_555
C63 C62 1_555 1_555
C64 C63 1_555 1_555
H45 C64 1_555 1_555
C67 H48 1_555 1_555
C68 C66 1_555 1_555
H49 C68 1_555 1_555
N17 C63 1_555 1_555
N18 C67 1_555 1_555
Ni4 N18 1_555 1_555
C66 N17 1_555 1_555
C67 N17 1_555 1_555
C68 N18 1_555 1_555
H39 C55 1_555 1_555
C57 H40 1_555 1_555
H50 N13 1_555 1_555
N15 C57 1_555 1_555
N13 N14 1_555 1_555
C1 C2 1_555 1_555
C2 C3 1_555 1_555
C3 H1 1_555 1_555
C4 C3 1_555 1_555
H2 C4 1_555 1_555
C5 C4 1_555 1_555
C6 C5 1_555 1_555
H3 C6 1_555 1_555
C7 C2 1_555 1_555
H4 C7 1_555 1_555
C8 C5 1_555 1_555
C17 H9 1_555 1_555
C18 C17 1_555 1_555
H10 C18 1_555 1_555
C19 H11 1_555 1_555
C20 C21 1_555 1_555
C21 H12 1_555 1_555
C22 C21 1_555 1_555
H13 C22 1_555 1_555
C23 C22 1_555 1_555
C24 C23 1_555 1_555
H14 C24 1_555 1_555
C25 C20 1_555 1_555
H15 C25 1_555 1_555
C26 H16 1_555 1_555
C27 H17 1_555 1_555
C28 C26 1_555 1_555
H18 C28 1_555 1_555
C29 H19 1_555 1_555
C30 H20 1_555 1_555
C31 C30 1_555 1_555
H21 C31 1_555 1_555
C32 C33 1_555 1_555
C33 H22 1_555 1_555
N3 C8 1_555 1_555
N4 C17 1_555 1_555
N5 C18 1_555 1_555
N6 C23 1_555 1_555
N19 C27 1_555 1_555
N8 C29 1_555 1_555
N9 C29 1_555 1_555
Ni4 N4 1_555 1_555
O1 C1 1_555 1_555
O2 C1 1_555 1_555
O5 Ni4 1_555 1_555
H25 O5 1_555 1_555
H26 O5 1_555 1_555
C40 C32 1_555 1_555
H31 C40 1_555 1_555
O11 Ni4 1_555 1_555
C6 C7 1_555 1_555
C19 N4 1_555 1_555
C19 N5 1_555 1_555
C20 N5 1_555 1_555
C24 C25 1_555 1_555
C26 N6 1_555 1_555
C27 N6 1_555 1_555
C28 N19 1_555 1_555
C30 N8 1_555 1_555
C31 N9 1_555 1_555
C32 N9 1_555 1_555
N8 Ni4 1_555 1_555
Ni4 O1 1_555 1_555
C9 C10 1_555 1_555
C10 C11 1_555 1_555
C11 H5 1_555 1_555
C12 C11 1_555 1_555
H6 C12 1_555 1_555
C13 C12 1_555 1_555
C14 C13 1_555 1_555
H7 C14 1_555 1_555
C15 C10 1_555 1_555
H8 C15 1_555 1_555
C16 C13 1_555 1_555
N2 C9 1_555 1_555
H24 N2 1_555 1_555
O11 C16 1_555 1_555
O4 C16 1_555 1_555
C9 N1 1_555 1_555
C14 C15 1_555 1_555
C1_2 C2_2 1_555 1_555
C2_2 C3_2 1_555 1_555
C3_2 H1_2 1_555 1_555
C4_2 C3_2 1_555 1_555
H2_2 C4_2 1_555 1_555
C5_2 C4_2 1_555 1_555
C6_2 C5_2 1_555 1_555
C7_2 C2_2 1_555 1_555
C8_2 C5_2 1_555 1_555
C9_2 C10_2 1_555 1_555
C10_2 C11_2 1_555 1_555
C11_2 H5_2 1_555 1_555
C12_2 C11_2 1_555 1_555
H6_2 C12_2 1_555 1_555
C13_2 C12_2 1_555 1_555
C14_2 C13_2 1_555 1_555
C16_2 C13_2 1_555 1_555
C29_2 H19_2 1_555 1_555
N1_2 C8_2 1_555 1_555
O1_2 C1_2 1_555 1_555
O2_2 C1_2 1_555 1_555
O3 C16_2 1_555 1_555
O4_2 C16_2 1_555 1_555
O5_2 Ni3 1_555 1_555
H25_2 O5_2 1_555 1_555
H26_2 O5_2 1_555 1_555
H30 C39 1_555 1_555
H31_2 C40_2 1_555 1_555
C6_2 C7_2 1_555 1_555
C9_2 N1_2 1_555 1_555
Ni3 O1_2 1_555 1_555
C39 C40_2 1_555 1_555
C30_2 H20_2 1_555 1_555
C31_2 C30_2 1_555 1_555
H21_2 C31_2 1_555 1_555
C30_2 N8_2 1_555 1_555
C31_2 N9_2 1_555 1_555
C32_2 N9_2 1_555 1_555
H8_2 C15_2 1_555 1_555
C17_2 H9_2 1_555 1_555
H24_2 N2_2 1_555 1_555
N4_2 C17_2 1_555 1_555
N2_2 N3_2 1_555 1_555
H13_2 C22_2 1_555 1_555
C23_2 C22_2 1_555 1_555
C24_2 C23_2 1_555 1_555
H14_2 C24_2 1_555 1_555
C27_2 H17_2 1_555 1_555
C28_2 C26_2 1_555 1_555
H18_2 C28_2 1_555 1_555
N6_2 C23_2 1_555 1_555
N7 C27_2 1_555 1_555
Ni6 N7 1_555 1_555
C26_2 N6_2 1_555 1_555
C27_2 N6_2 1_555 1_555
C28_2 N7 1_555 1_555
C49 C50 1_555 1_555
C50 C51 1_555 1_555
C51 H36 1_555 1_555
C52 C51 1_555 1_555
H37 C52 1_555 1_555
C53 C52 1_555 1_555
C54 C53 1_555 1_555
H38_2 C54 1_555 1_555
C55_2 C50 1_555 1_555
H39_2 C55_2 1_555 1_555
C56 C53 1_555 1_555
N13_2 C49 1_555 1_555
H50_2 N13_2 1_555 1_555
O8 C56 1_555 1_555
O9 C56 1_555 1_555
Ni6 O8 1_555 1_555
C49 N12 1_555 1_555
C54 C55_2 1_555 1_555
H23 C34 1_555 1_555
C35 H27 1_555 1_555
C36 H28 1_555 1_555
C37 C36 1_555 1_555
H29 C37 1_555 1_555
C38 C34 1_555 1_555
C39_2 C38 1_555 1_555
H30_2 C39_2 1_555 1_555
N10 C35 1_555 1_555
N11 C35 1_555 1_555
C41 C42 1_555 1_555
C42 C43 1_555 1_555
C43 H32 1_555 1_555
C44 C43 1_555 1_555
H33 C44 1_555 1_555
C45 C44 1_555 1_555
C46 C45 1_555 1_555
H34_2 C46 1_555 1_555
C47 C42 1_555 1_555
H35_2 C47 1_555 1_555
C48 C45 1_555 1_555
C57_2 H40_2 1_555 1_555
C58 C57_2 1_555 1_555
H41_2 C58 1_555 1_555
C59 H42 1_555 1_555
C60 C61 1_555 1_555
C61 H43 1_555 1_555
C62_2 C61 1_555 1_555
H44_2 C62_2 1_555 1_555
C63_2 C62_2 1_555 1_555
C64_2 C63_2 1_555 1_555
H45_2 C64_2 1_555 1_555
C65 C60 1_555 1_555
H46 C65 1_555 1_555
C66_2 H47 1_555 1_555
C67_2 H48_2 1_555 1_555
C68_2 C66_2 1_555 1_555
H49_2 C68_2 1_555 1_555
N14_2 C48 1_555 1_555
N15_2 C57_2 1_555 1_555
N16 C58 1_555 1_555
N17_2 C63_2 1_555 1_555
N20 C67_2 1_555 1_555
Ni6 N10 1_555 1_555
O6 C41 1_555 1_555
O7 C41 1_555 1_555
O10 Ni6 1_555 1_555
H51 O10 1_555 1_555
H52 O10 1_555 1_555
C36 N10 1_555 1_555
C37 N11 1_555 1_555
C38 N11 1_555 1_555
C46 C47 1_555 1_555
C59 N15_2 1_555 1_555
C59 N16 1_555 1_555
C60 N16 1_555 1_555
C64_2 C65 1_555 1_555
C66_2 N17_2 1_555 1_555
C67_2 N17_2 1_555 1_555
C68_2 N20 1_555 1_555
N15_2 Ni6 1_555 1_555
Ni6 O6 1_555 1_555
C19_2 H11_2 1_555 1_555
C20_2 C21_2 1_555 1_555
C21_2 H12_2 1_555 1_555
C25_2 C20_2 1_555 1_555
H15_2 C25_2 1_555 1_555
N5_2 C18_2 1_555 1_555
C19_2 N5_2 1_555 1_555
C20_2 N5_2 1_555 1_555
C59_2 H42_2 1_555 1_555
C60_2 C61_2 1_555 1_555
C61_2 H43_2 1_555 1_555
C65_2 C60_2 1_555 1_555
H46_2 C65_2 1_555 1_555
N16_2 C58_2 1_555 1_555
C59_2 N16_2 1_555 1_555
C60_2 N16_2 1_555 1_555
C36_2 H28_2 1_555 1_555
C37_2 C36_2 1_555 1_555
H29_2 C37_2 1_555 1_555
C36_2 N10_2 1_555 1_555
C37_2 N11_2 1_555 1_555
C38_2 N11_2 1_555 1_555
C33_2 H22_2 1_555 1_555
C34_2 C33_2 1_555 1_555
H23_2 C34_2 1_555 1_555
C35_2 H27_2 1_555 1_555
C41_2 C42_2 1_555 1_555
C42_2 C43_2 1_555 1_555
C43_2 H32_2 1_555 1_555
C44_2 C43_2 1_555 1_555
H33_2 C44_2 1_555 1_555
C45_2 C44_2 1_555 1_555
C46_2 C45_2 1_555 1_555
C47_2 C42_2 1_555 1_555
C48_2 C45_2 1_555 1_555
C49_2 C50_2 1_555 1_555
C50_2 C51_2 1_555 1_555
C51_2 H36_2 1_555 1_555
C52_2 C51_2 1_555 1_555
H37_2 C52_2 1_555 1_555
C53_2 C52_2 1_555 1_555
C54_2 C53_2 1_555 1_555
C56_2 C53_2 1_555 1_555
N12_2 C48_2 1_555 1_555
O6_2 C41_2 1_555 1_555
O7_2 C41_2 1_555 1_555
O12 C56_2 1_555 1_555
O9_2 C56_2 1_555 1_555
O10_2 Ni2 1_555 1_555
H51_2 O10_2 1_555 1_555
H52_2 O10_2 1_555 1_555
C46_2 C47_2 1_555 1_555
C49_2 N12_2 1_555 1_555
Ni2 O6_2 1_555 1_555

#END
