
###############################################################################
#
# This file contains modified crystal structure data generated from the
# MOF subset of the Cambridge Structural Database (CSD) v543 
# hosted by the Cambridge Crystallographic Data Centre (CCDC).
#
# This work is licensed under the Creative Commons
# Attribution-NonCommercial-ShareAlike 4.0 International License.
# To view a copy of this license, visit
# http://creativecommons.org/licenses/by-nc-sa/4.0/
# or send a letter to
# Creative Commons, PO Box 1866, Mountain View, CA 94042, USA.
#
# CIF created using the CSD Python API on 29 September 2022
# The structure has been converted into the P1 space group
# The structure has a 3D framework
# The original CSD entry QADSIB is in the triclinic crystal system
# The framework has been calculated to contain at least 10.0% void space
# The void calculation uses a probe of radius 1.32A, grid spacing 0.4
#
###############################################################################

data_QADSIB
_chemical_formula_moiety         '(C62 H42 Cd6 N8 O18)n'
_symmetry_cell_setting           triclinic
_symmetry_space_group_name_H-M   'P 1'
_symmetry_Int_Tables_number      1
_space_group_name_Hall           'P 1'
loop_
_symmetry_equiv_pos_site_id
_symmetry_equiv_pos_as_xyz
1 x,y,z
_cell_length_a                   9.685(5)
_cell_length_b                   10.309(5)
_cell_length_c                   16.725(5)
_cell_angle_alpha                92.107(5)
_cell_angle_beta                 103.546(5)
_cell_angle_gamma                102.952(5)
_cell_volume                     1575.08
loop_
_atom_site_label
_atom_site_type_symbol
_atom_site_fract_x
_atom_site_fract_y
_atom_site_fract_z
C37 C 0.1957(9) 0.1304(8) 0.6260(5)
H29 H 0.250766 0.076478 0.655400
C45 C 0.1900(12) 0.3314(8) 0.5613(6)
H35 H 0.240505 0.410168 0.545598
C49 C 0.0397(8) 0.0907(7) 0.6080(4)
C51 C 0.0434(12) 0.3008(8) 0.5453(4)
C53 C 0.2637(11) 0.2433(9) 0.6016(6)
H39 H 0.365184 0.263543 0.612090
Cd1 Cd -0.000000 0.500000 0.000000
O2 O 0.2308(5) 0.6362(5) 0.0430(3)
H4 H 0.256919 0.669155 0.001477
H5 H 0.291235 0.589252 0.061001
N3 N 0.0306(6) 0.2059(6) 0.2793(3)
H6 H 0.097180 0.177016 0.263062
C9 C 0.0125(7) 0.3501(6) 0.1703(4)
H11 H 0.041020 0.288191 0.139814
C12 C 0.0399(7) 0.0304(7) 0.3707(4)
C21 C 0.1893(9) 0.0574(8) 0.3874(5)
H17 H 0.240660 0.137025 0.373056
O9 O 0.2853(5) 0.3592(5) 0.0776(3)
C27 C 0.2025(7) 0.2918(6) 0.0130(4)
H21 H 0.131764 0.041566 0.028208
Cd9 Cd 0.52345(5) 0.39610(4) 0.12640(3)
C54 C 0.7584(7) 0.0547(6) 0.0326(4)
H40 H 0.794397 0.139335 0.017755
O14 O 0.6468(5) 0.2649(4) 0.0812(3)
O16 O 0.5164(6) 0.1371(5) 0.1513(3)
C56 C 0.6603(6) 0.0371(6) 0.0830(4)
C62 C 0.6043(7) 0.1524(6) 0.1078(4)
C32 C 0.7347(9) 0.0320(8) 0.5748(5)
H22 H 0.633116 0.011486 0.563325
C33 C 0.5898(7) 0.3215(6) 0.3131(4)
H23 H 0.654444 0.280269 0.294795
C34 C 0.7206(12) 0.2459(10) 0.5178(6)
N6 N 0.6614(7) 0.2312(6) 0.4410(3)
H24 H 0.674779 0.163926 0.414429
C36 C 0.4188(7) 0.4462(7) 0.2878(4)
H28 H 0.363877 0.493428 0.252089
N8 N 0.5141(6) 0.3909(5) 0.2606(3)
C39 C 0.3988(8) 0.4364(7) 0.3654(4)
H31 H 0.332460 0.477195 0.382158
O12 O 0.6810(13) 0.3163(11) 0.5615(6)
C41 C 0.5765(7) 0.3085(7) 0.3920(4)
C44 C 0.4783(7) 0.3650(7) 0.4195(4)
H34 H 0.465592 0.355795 0.472614
C47 C 0.8082(10) 0.1501(8) 0.5543(4)
C50 C 0.9614(9) 0.1818(7) 0.5684(4)
H37 H 0.993292 0.359885 0.517952
Cd1_2 Cd 1.000000 0.500000 0.000000
O1 O 0.8596(6) 0.1604(5) 0.3524(3)
N1 N 0.9879(6) 0.4624(5) 0.1359(3)
C4 C 0.9974(7) 0.3235(6) 0.2481(4)
C7 C 0.9562(9) 0.4172(7) 0.2930(5)
H9 H 0.947621 0.403601 0.346467
C11 C 0.9457(8) 0.5484(7) 0.1804(4)
H12 H 0.926815 0.625427 0.157535
C15 C 0.9284(10) 0.5287(8) 0.2589(5)
H15 H 0.898201 0.591062 0.288080
C17 C 0.9662(8) 0.1350(7) 0.3326(4)
O13 O 0.5179(7) 0.6478(5) 0.1516(3)
O15 O 0.9236(5) 0.6944(4) 0.0175(3)
O17 O 0.6382(6) 0.5705(5) 0.0763(4)
C55 C 0.6562(6) 0.8015(6) 0.0779(4)
C57 C 0.7492(7) 0.8186(6) 0.0249(4)
C59 C 0.6020(7) 0.6649(6) 0.1046(4)
C60 C 0.6127(7) 0.9118(6) 0.1061(3)
H41 H 0.550260 0.899845 0.141228
C61 C 0.8020(7) 0.9456(6) 0.0047(4)
Cd1_3 Cd -0.000000 0.500000 1.000000
Cd2 Cd 0.47655(5) 0.60390(4) 0.87360(3)
O4 O 0.4821(7) 0.3522(5) 0.8484(3)
O6 O 0.0764(5) 0.3056(4) 0.9825(3)
O8 O 0.3618(6) 0.4295(5) 0.9237(4)
C24 C 0.3438(6) 0.1985(6) 0.9221(4)
C26 C 0.2508(7) 0.1814(6) 0.9751(4)
C28 C 0.3980(7) 0.3351(6) 0.8954(4)
C29 C 0.3873(7) 0.0882(6) 0.8939(3)
H20 H 0.449740 0.100155 0.858772
C30 C 0.1980(7) 0.0544(6) 0.9953(4)
O10 O 0.1404(6) 0.8396(5) 0.6476(3)
N5 N 0.0121(6) 0.5376(5) 0.8641(3)
C35 C 0.0026(7) 0.6765(6) 0.7519(4)
C38 C 0.0438(9) 0.5828(7) 0.7070(5)
H30 H 0.052379 0.596399 0.653533
C42 C 0.0543(8) 0.4516(7) 0.8196(4)
H33 H 0.073185 0.374573 0.842465
C46 C 0.0716(10) 0.4713(8) 0.7411(5)
H36 H 0.101799 0.408938 0.711920
C48 C 0.0338(8) 0.8650(7) 0.6674(4)
N9 N 0.4859(6) 0.6091(5) 0.7394(3)
O19 O 0.3532(5) 0.7351(4) 0.9188(3)
O21 O 0.4836(6) 0.8629(5) 0.8487(3)
O24 O 0.7147(5) 0.6408(5) 0.9224(3)
C1 C 0.2653(9) 0.9680(8) 0.4252(5)
H1 H 0.366884 0.988514 0.436675
C2 C 0.4102(7) 0.6785(6) 0.6869(4)
H2 H 0.345556 0.719731 0.705205
C3 C 0.2794(12) 0.7541(10) 0.4822(6)
N2 N 0.3386(7) 0.7688(6) 0.5590(3)
H3 H 0.325221 0.836074 0.585571
C5 C 0.5812(7) 0.5538(7) 0.7122(4)
H7 H 0.636123 0.506572 0.747911
C8 C 0.6012(8) 0.5636(7) 0.6346(4)
H10 H 0.667540 0.522805 0.617842
O3 O 0.3190(13) 0.6837(11) 0.4385(6)
C10 C 0.4235(7) 0.6915(7) 0.6080(4)
C13 C 0.5217(7) 0.6350(7) 0.5805(4)
H13 H 0.534408 0.644205 0.527386
C16 C 0.1918(10) 0.8499(8) 0.4457(4)
C19 C 0.0386(9) 0.8182(7) 0.4316(4)
H16 H 0.006708 0.640115 0.482048
C23 C 0.2416(7) 0.9453(6) 0.9674(4)
H19 H 0.205603 0.860665 0.982245
C25 C 0.3397(6) 0.9629(6) 0.9170(4)
C31 C 0.3957(7) 0.8476(6) 0.8922(4)
Cd1_4 Cd 1.000000 0.500000 1.000000
O11 O 0.7692(5) 0.3638(5) 0.9570(3)
H25 H 0.743081 0.330845 0.998523
H26 H 0.708765 0.410748 0.938999
N7 N 0.9694(6) 0.7941(6) 0.7207(3)
H27 H 0.902820 0.822984 0.736938
C40 C 0.9875(7) 0.6499(6) 0.8297(4)
H32 H 0.958980 0.711809 0.860186
C43 C 0.9601(7) 0.9696(7) 0.6293(4)
C52 C 0.8107(9) 0.9426(8) 0.6126(5)
H38 H 0.759340 0.862975 0.626944
C58 C 0.7975(7) 0.7082(6) 0.9870(4)
H42 H 0.868236 0.958434 0.971792
C6 C 0.8043(9) 0.8696(8) 0.3740(5)
H8 H 0.749234 0.923522 0.344600
C14 C 0.8100(12) 0.6686(8) 0.4387(6)
H14 H 0.759495 0.589832 0.454402
C18 C 0.9603(8) 0.9093(7) 0.3920(4)
C20 C 0.9566(12) 0.6992(8) 0.4547(4)
C22 C 0.7363(11) 0.7567(9) 0.3984(6)
H18 H 0.634816 0.736457 0.387910
loop_
_geom_bond_atom_site_label_1
_geom_bond_atom_site_label_2
_geom_bond_site_symmetry_1
_geom_bond_site_symmetry_2
C37 H29 1_555 1_555
C45 H35 1_555 1_555
C49 C37 1_555 1_555
C51 C45 1_555 1_555
C53 C37 1_555 1_555
H39 C53 1_555 1_555
C45 C53 1_555 1_555
O2 Cd1 1_555 1_555
H4 O2 1_555 1_555
H5 O2 1_555 1_555
N3 H6 1_555 1_555
H11 C9 1_555 1_555
H17 C21 1_555 1_555
O9 C27 1_555 1_555
Cd9 O9 1_555 1_555
C12 C21 1_555 1_555
C54 H40 1_555 1_555
O14 C62 1_555 1_555
O16 C62 1_555 1_555
C56 C54 1_555 1_555
C62 C56 1_555 1_555
Cd9 O14 1_555 1_555
O16 Cd9 1_555 1_555
C32 H22 1_555 1_555
C33 H23 1_555 1_555
C34 N6 1_555 1_555
N6 H24 1_555 1_555
C36 H28 1_555 1_555
N8 C33 1_555 1_555
C39 C36 1_555 1_555
H31 C39 1_555 1_555
O12 C34 1_555 1_555
C41 C33 1_555 1_555
C44 C39 1_555 1_555
H34 C44 1_555 1_555
C47 C32 1_555 1_555
C50 C47 1_555 1_555
Cd9 N8 1_555 1_555
C34 C47 1_555 1_555
N6 C41 1_555 1_555
C36 N8 1_555 1_555
C41 C44 1_555 1_555
Cd1_2 N1 1_555 1_555
O1 C17 1_555 1_555
C7 C4 1_555 1_555
H9 C7 1_555 1_555
C11 N1 1_555 1_555
H12 C11 1_555 1_555
C15 C7 1_555 1_555
H15 C15 1_555 1_555
Cd9 O13 1_555 1_555
O13 C59 1_555 1_555
O15 Cd1_2 1_555 1_555
O17 Cd9 1_555 1_555
C55 C57 1_555 1_555
C59 O17 1_555 1_555
C60 C55 1_555 1_555
H41 C60 1_555 1_555
C11 C15 1_555 1_555
C55 C59 1_555 1_555
C57 C61 1_555 1_555
Cd2 O4 1_555 1_555
O4 C28 1_555 1_555
O6 Cd1_3 1_555 1_555
O8 Cd2 1_555 1_555
C24 C26 1_555 1_555
C28 O8 1_555 1_555
C29 C24 1_555 1_555
H20 C29 1_555 1_555
O10 C48 1_555 1_555
N5 Cd1_3 1_555 1_555
C38 C35 1_555 1_555
H30 C38 1_555 1_555
C42 N5 1_555 1_555
H33 C42 1_555 1_555
C46 C38 1_555 1_555
H36 C46 1_555 1_555
N9 Cd2 1_555 1_555
O19 Cd2 1_555 1_555
O21 Cd2 1_555 1_555
O24 Cd2 1_555 1_555
C24 C28 1_555 1_555
C26 C30 1_555 1_555
C42 C46 1_555 1_555
C1 H1 1_555 1_555
C2 H2 1_555 1_555
C3 N2 1_555 1_555
N2 H3 1_555 1_555
C5 H7 1_555 1_555
N9 C2 1_555 1_555
C8 C5 1_555 1_555
H10 C8 1_555 1_555
O3 C3 1_555 1_555
C10 C2 1_555 1_555
C13 C8 1_555 1_555
H13 C13 1_555 1_555
C16 C1 1_555 1_555
C19 C16 1_555 1_555
C3 C16 1_555 1_555
N2 C10 1_555 1_555
C5 N9 1_555 1_555
C10 C13 1_555 1_555
C23 H19 1_555 1_555
O19 C31 1_555 1_555
O21 C31 1_555 1_555
C25 C23 1_555 1_555
C31 C25 1_555 1_555
O11 Cd1_4 1_555 1_555
H25 O11 1_555 1_555
H26 O11 1_555 1_555
N7 H27 1_555 1_555
H32 C40 1_555 1_555
H38 C52 1_555 1_555
O24 C58 1_555 1_555
C43 C52 1_555 1_555
C6 H8 1_555 1_555
C14 H14 1_555 1_555
C18 C6 1_555 1_555
C20 C14 1_555 1_555
C22 C6 1_555 1_555
H18 C22 1_555 1_555
C14 C22 1_555 1_555

#END
