
###############################################################################
#
# This file contains modified crystal structure data generated from the
# MOF subset of the Cambridge Structural Database (CSD) v543 
# hosted by the Cambridge Crystallographic Data Centre (CCDC).
#
# This work is licensed under the Creative Commons
# Attribution-NonCommercial-ShareAlike 4.0 International License.
# To view a copy of this license, visit
# http://creativecommons.org/licenses/by-nc-sa/4.0/
# or send a letter to
# Creative Commons, PO Box 1866, Mountain View, CA 94042, USA.
#
# CIF created using the CSD Python API on 29 September 2022
# The structure has been converted into the P1 space group
# The structure has a 3D framework
# The original CSD entry QADWOK is in the monoclinic crystal system
# The framework has been calculated to contain at least 10.0% void space
# The void calculation uses a probe of radius 1.32A, grid spacing 0.4
# The framework is charged, counterions have been retained in the structure
#
###############################################################################

data_QADWOK
_chemical_formula_moiety         '(C32 H36 N4 O32 P4 Tb4)n'
_symmetry_cell_setting           triclinic
_symmetry_space_group_name_H-M   'P 1'
_symmetry_Int_Tables_number      1
_space_group_name_Hall           'P 1'
loop_
_symmetry_equiv_pos_site_id
_symmetry_equiv_pos_as_xyz
1 x,y,z
_cell_length_a                   9.7284(3)
_cell_length_b                   10.4717(3)
_cell_length_c                   16.4594(6)
_cell_angle_alpha                90
_cell_angle_beta                 112.511(3)
_cell_angle_gamma                90
_cell_volume                     1549.01
loop_
_atom_site_label
_atom_site_type_symbol
_atom_site_fract_x
_atom_site_fract_y
_atom_site_fract_z
C12 C 0.3566(7) 0.0702(7) 0.0301(4)
H11 H 0.4501 0.1001 0.0663
C6 C 0.0677(5) 0.0756(5) 0.1297(3)
H5 H 0.0929 0.1397 0.0951
H6 H 0.1421 0.0087 0.1436
O1 O 0.0600(3) 0.0452(3) 0.29084(18)
O2 O 0.2349(3) 0.2092(3) 0.2710(2)
H7 H 0.2867 0.1691 0.3148
P1 P 0.07489(11) 0.14779(11) 0.23106(7)
C9 C 0.0716(4) 0.0317(4) 0.5327(3)
O10 O 0.1857(3) 0.0202(3) 0.51530(19)
O11 O 0.0626(3) 0.0877(3) 0.59669(19)
C10 C 0.4823(4) 0.0613(4) 0.4726(3)
O12 O 0.5762(3) 0.1487(3) 0.4948(2)
O13 O 0.3593(3) 0.0633(3) 0.40830(18)
C13 C 0.2536(8) 0.1516(6) 0.9762(4)
H12 H 0.2763 0.2376 0.9750
C14 C 0.1147(8) 0.1066(5) 0.9230(4)
H13 H 0.0444 0.1628 0.8861
Tb4 Tb 0.821271(19) 0.107478(18) 0.606862(11)
C8 C 0.5177(4) 0.9387(4) 0.5274(3)
Tb1 Tb 0.178729(19) 0.892522(18) 0.393138(11)
O7 O 0.4238(3) 0.8513(3) 0.5052(2)
O8 O 0.6407(3) 0.9367(3) 0.59170(18)
O9 O 0.3165(4) 0.8297(5) 0.3081(3)
H8 H 0.2797 0.7751 0.2770
H9 H 0.3945 0.8707 0.3106
C15 C 0.0793(5) 0.9794(5) 0.9240(3)
N2 N 0.1854(4) 0.9006(4) 0.9778(2)
O16 O 0.0404(3) 0.7499(3) 0.79007(18)
O17 O 0.1542(3) 0.7779(3) 0.98224(19)
Tb5 Tb 0.178729(19) 0.607478(18) 0.893138(11)
O19 O 0.0404(3) 0.7501(3) 0.29007(18)
O21 O 0.1542(3) 0.7221(3) 0.48224(19)
C5 C 0.9207(5) 0.0206(5) 0.0760(3)
N1 N 0.8146(4) 0.0994(4) 0.0222(2)
O3 O 0.9596(3) 0.2501(3) 0.20993(18)
O4 O 0.8458(3) 0.2221(3) 0.01776(19)
O18 O 0.6835(4) 0.1703(5) 0.6919(3)
H17 H 0.7203 0.2249 0.7230
H18 H 0.6055 0.1293 0.6894
Tb3 Tb 0.821271(19) 0.392522(18) 0.106862(11)
O20 O 0.9596(3) 0.2499(3) 0.70993(18)
O22 O 0.8458(3) 0.2779(3) 0.51776(19)
C3 C 0.7464(8) 0.8484(6) 0.0238(4)
H3 H 0.7237 0.7624 0.0250
C4 C 0.8853(8) 0.8934(5) 0.0770(4)
H4 H 0.9556 0.8372 0.1139
C7 C 0.9284(4) 0.9683(4) 0.4673(3)
O5 O 0.8143(3) 0.9798(3) 0.48470(19)
O6 O 0.9374(3) 0.9123(3) 0.40331(19)
C16 C 0.9323(5) 0.9244(5) 0.8703(3)
H14 H 0.9071 0.8603 0.9049
H15 H 0.8579 0.9913 0.8564
O14 O 0.9400(3) 0.9548(3) 0.70916(18)
O15 O 0.7651(3) 0.7908(3) 0.7290(2)
H16 H 0.7133 0.8309 0.6852
P2 P 0.92511(11) 0.85221(11) 0.76894(7)
C1 C 0.3216(5) 0.5573(6) 0.5309(4)
H1 H 0.3913 0.6140 0.5677
C2 C 0.3566(7) 0.4298(7) 0.5301(4)
H2 H 0.4501 0.3999 0.5663
C3_2 C 0.2536(8) 0.3484(6) 0.4762(4)
H3_2 H 0.2763 0.2624 0.4750
C4_2 C 0.1147(8) 0.3934(5) 0.4230(4)
H4_2 H 0.0444 0.3372 0.3861
C5_2 C 0.0793(5) 0.5206(5) 0.4240(3)
C7_2 C 0.0716(4) 0.4683(4) 0.0327(3)
N1_2 N 0.1854(4) 0.5994(4) 0.4778(2)
O5_2 O 0.1857(3) 0.4798(3) 0.01530(19)
O6_2 O 0.0626(3) 0.4123(3) 0.09669(19)
O23 O 0.4238(3) 0.6487(3) 0.0052(2)
C16_2 C 0.0677(5) 0.4244(5) 0.6297(3)
H14_2 H 0.0929 0.3603 0.5951
H15_2 H 0.1421 0.4913 0.6436
O14_2 O 0.0600(3) 0.4548(3) 0.79084(18)
O15_2 O 0.2349(3) 0.2908(3) 0.7710(2)
H16_2 H 0.2867 0.3309 0.8148
O18_2 O 0.3165(4) 0.6703(5) 0.8081(3)
H17_2 H 0.2797 0.7249 0.7770
H18_2 H 0.3945 0.6293 0.8106
P2_2 P 0.07489(11) 0.35221(11) 0.73106(7)
O24 O 0.3593(3) 0.4367(3) 0.90830(18)
C6_2 C 0.9323(5) 0.5756(5) 0.3703(3)
H5_2 H 0.9071 0.6397 0.4049
H6_2 H 0.8579 0.5087 0.3564
O1_2 O 0.9400(3) 0.5452(3) 0.20916(18)
O2_2 O 0.7651(3) 0.7092(3) 0.2290(2)
H7_2 H 0.7133 0.6691 0.1852
O9_2 O 0.6835(4) 0.3297(5) 0.1919(3)
H8_2 H 0.7203 0.2751 0.2230
H9_2 H 0.6055 0.3707 0.1894
P1_2 P 0.92511(11) 0.64779(11) 0.26894(7)
C10_2 C 0.5177(4) 0.5613(4) 0.0274(3)
O13_2 O 0.6407(3) 0.5633(3) 0.09170(18)
C8_2 C 0.4823(4) 0.4387(4) 0.9726(3)
O7_2 O 0.5762(3) 0.3513(3) 0.9948(2)
C9_2 C 0.9284(4) 0.5317(4) 0.9673(3)
O10_2 O 0.8143(3) 0.5202(3) 0.98470(19)
O11_2 O 0.9374(3) 0.5877(3) 0.90331(19)
C11 C 0.6784(5) 0.4427(6) 0.4691(4)
H10 H 0.6087 0.3860 0.4323
C12_2 C 0.6434(7) 0.5702(7) 0.4699(4)
H11_2 H 0.5499 0.6001 0.4337
C13_2 C 0.7464(8) 0.6516(6) 0.5238(4)
H12_2 H 0.7237 0.7376 0.5250
C14_2 C 0.8853(8) 0.6066(5) 0.5770(4)
H13_2 H 0.9556 0.6628 0.6139
C15_2 C 0.9207(5) 0.4794(5) 0.5760(3)
N2_2 N 0.8146(4) 0.4006(4) 0.5222(2)
C11_2 C 0.3216(5) 0.9427(6) 0.0309(4)
H10_2 H 0.3913 0.8860 0.0677
C1_2 C 0.6784(5) 0.0573(6) 0.9691(4)
H1_2 H 0.6087 0.1140 0.9323
C2_2 C 0.6434(7) 0.9298(7) 0.9699(4)
H2_2 H 0.5499 0.8999 0.9337
loop_
_geom_bond_atom_site_label_1
_geom_bond_atom_site_label_2
_geom_bond_site_symmetry_1
_geom_bond_site_symmetry_2
H11 C12 1_555 1_555
H5 C6 1_555 1_555
H6 C6 1_555 1_555
O1 P1 1_555 1_555
O2 H7 1_555 1_555
P1 C6 1_555 1_555
O11 C9 1_555 1_555
O12 C10 1_555 1_555
H12 C13 1_555 1_555
C14 C13 1_555 1_555
H13 C14 1_555 1_555
O2 P1 1_555 1_555
C9 O10 1_555 1_555
C10 O13 1_555 1_555
O12 Tb4 1_555 1_555
C8 O7 1_555 1_555
O7 Tb1 1_555 1_555
O8 C8 1_555 1_555
O9 Tb1 1_555 1_555
H8 O9 1_555 1_555
H9 O9 1_555 1_555
O17 N2 1_555 1_555
Tb5 O16 1_555 1_555
O19 Tb1 1_555 1_555
O21 Tb1 1_555 1_555
C15 N2 1_555 1_555
O17 Tb5 1_555 1_555
O4 N1 1_555 1_555
O18 Tb4 1_555 1_555
H17 O18 1_555 1_555
H18 O18 1_555 1_555
Tb3 O3 1_555 1_555
O20 Tb4 1_555 1_555
O22 Tb4 1_555 1_555
C5 N1 1_555 1_555
O4 Tb3 1_555 1_555
H3 C3 1_555 1_555
C4 C3 1_555 1_555
H4 C4 1_555 1_555
C7 O5 1_555 1_555
O6 C7 1_555 1_555
H14 C16 1_555 1_555
H15 C16 1_555 1_555
O15 H16 1_555 1_555
P2 C16 1_555 1_555
O14 P2 1_555 1_555
O15 P2 1_555 1_555
C1 H1 1_555 1_555
C2 C1 1_555 1_555
H2 C2 1_555 1_555
C3_2 C2 1_555 1_555
H3_2 C3_2 1_555 1_555
C4_2 C3_2 1_555 1_555
H4_2 C4_2 1_555 1_555
C5_2 C4_2 1_555 1_555
C7_2 O5_2 1_555 1_555
N1_2 C1 1_555 1_555
O21 N1_2 1_555 1_555
O6_2 C7_2 1_555 1_555
C5_2 N1_2 1_555 1_555
H14_2 C16_2 1_555 1_555
H15_2 C16_2 1_555 1_555
O14_2 Tb5 1_555 1_555
O15_2 H16_2 1_555 1_555
O18_2 Tb5 1_555 1_555
H17_2 O18_2 1_555 1_555
H18_2 O18_2 1_555 1_555
P2_2 C16_2 1_555 1_555
O24 Tb5 1_555 1_555
O14_2 P2_2 1_555 1_555
O15_2 P2_2 1_555 1_555
H5_2 C6_2 1_555 1_555
H6_2 C6_2 1_555 1_555
Tb3 O1_2 1_555 1_555
O1_2 P1_2 1_555 1_555
O2_2 H7_2 1_555 1_555
O9_2 Tb3 1_555 1_555
H8_2 O9_2 1_555 1_555
H9_2 O9_2 1_555 1_555
P1_2 C6_2 1_555 1_555
O23 C10_2 1_555 1_555
O13_2 Tb3 1_555 1_555
O2_2 P1_2 1_555 1_555
C10_2 O13_2 1_555 1_555
C8_2 O7_2 1_555 1_555
O24 C8_2 1_555 1_555
O11_2 C9_2 1_555 1_555
C11 H10 1_555 1_555
C12_2 C11 1_555 1_555
H11_2 C12_2 1_555 1_555
C13_2 C12_2 1_555 1_555
H12_2 C13_2 1_555 1_555
C14_2 C13_2 1_555 1_555
H13_2 C14_2 1_555 1_555
C15_2 C14_2 1_555 1_555
N2_2 C11 1_555 1_555
O22 N2_2 1_555 1_555
C9_2 O10_2 1_555 1_555
C15_2 N2_2 1_555 1_555
C11_2 H10_2 1_555 1_555
C1_2 H1_2 1_555 1_555
H2_2 C2_2 1_555 1_555

#END
