
###############################################################################
#
# This file contains modified crystal structure data generated from the
# MOF subset of the Cambridge Structural Database (CSD) v543 
# hosted by the Cambridge Crystallographic Data Centre (CCDC).
#
# This work is licensed under the Creative Commons
# Attribution-NonCommercial-ShareAlike 4.0 International License.
# To view a copy of this license, visit
# http://creativecommons.org/licenses/by-nc-sa/4.0/
# or send a letter to
# Creative Commons, PO Box 1866, Mountain View, CA 94042, USA.
#
# CIF created using the CSD Python API on 29 September 2022
# The structure has been converted into the P1 space group
# The structure has a 3D framework
# The original CSD entry QAGHEP is in the monoclinic crystal system
# The framework has been calculated to contain at least 10.0% void space
# The void calculation uses a probe of radius 1.32A, grid spacing 0.4
# The framework is charged, counterions have been retained in the structure
#
###############################################################################

data_QAGHEP
_chemical_formula_moiety         '(C60 H48 Co4 N28 O12 4+)n'
_symmetry_cell_setting           triclinic
_symmetry_space_group_name_H-M   'P 1'
_symmetry_Int_Tables_number      1
_space_group_name_Hall           'P 1'
loop_
_symmetry_equiv_pos_site_id
_symmetry_equiv_pos_as_xyz
1 x,y,z
_cell_length_a                   11.3692(7)
_cell_length_b                   17.5938(10)
_cell_length_c                   12.1825(7)
_cell_angle_alpha                90
_cell_angle_beta                 108.6360(10)
_cell_angle_gamma                90
_cell_volume                     2309.07
loop_
_atom_site_label
_atom_site_type_symbol
_atom_site_fract_x
_atom_site_fract_y
_atom_site_fract_z
Co5 Co -0.0000 0.5000 0.5000
H11 H 0.0407 0.6862 0.5933
Co1 Co 0.5000 -0.0000 0.0000
C16 C 0.49705(16) 0.03099(9) 0.25540(14)
C17 C 0.48137(16) 0.08548(9) 0.32743(14)
H14 H 0.4752 0.0785 0.4027
C18 C 0.48740(14) 0.13657(9) 0.16495(14)
H15 H 0.4865 0.1734 0.1077
C19 C 0.45985(14) 0.22792(8) 0.30834(13)
C20 C 0.35092(14) 0.24554(8) 0.33105(13)
H16 H 0.2898 0.2077 0.3260
C21 C 0.33326(13) 0.31990(8) 0.36132(13)
C22 C 0.42314(14) 0.37537(8) 0.37042(13)
H17 H 0.4106 0.4261 0.3910
C23 C 0.53122(14) 0.35498(8) 0.34872(13)
C24 C 0.55127(14) 0.28164(9) 0.31746(13)
H18 H 0.6259 0.2686 0.3027
C25 C 0.74751(14) 0.40250(9) 0.41773(14)
H19 H 0.7823 0.3590 0.4625
C26 C 0.61036(15) 0.48118(9) 0.30629(14)
H20 H 0.5348 0.5038 0.2603
C27 C 0.72590(15) 0.51136(9) 0.33456(14)
H21 H 0.7450 0.5594 0.3091
C28 C 0.12089(14) 0.29077(9) 0.37228(14)
H22 H 0.1129 0.2393 0.3472
C29 C 0.03743(14) 0.33212(8) 0.40522(13)
C30 C 0.19148(14) 0.40676(8) 0.42083(13)
H24 H 0.2437 0.4503 0.4345
N7 N 0.49979(12) 0.06296(7) 0.15235(11)
N8 N 0.47613(12) 0.15309(7) 0.26953(11)
N9 N 0.62546(11) 0.41090(7) 0.35824(11)
N10 N 0.81215(11) 0.46231(7) 0.40579(11)
N11 N 0.22041(11) 0.33892(7) 0.38265(11)
N12 N 0.08203(12) 0.40476(7) 0.43647(11)
Co5_2 Co 1.0000 0.5000 0.5000
H1 H 0.4949 0.0218 0.7271
Co1_2 Co 0.5000 -0.0000 1.0000
N13 N 0.31215(11) 0.03769(7) 0.90579(11)
N15 N 0.58203(12) 0.09524(7) 0.93647(11)
Co1_3 Co 0.5000 1.0000 0.0000
H13 H 0.5051 0.9782 0.2729
N14 N 0.68785(11) 0.96231(7) 0.09421(11)
N16 N 0.41797(12) 0.90476(7) 0.06353(11)
C1 C 0.50295(16) 0.96901(9) 0.74460(14)
C2 C 0.51863(16) 0.91452(9) 0.67257(14)
H2 H 0.5248 0.9215 0.5973
C3 C 0.51260(14) 0.86343(9) 0.83505(14)
H3 H 0.5135 0.8266 0.8923
C4 C 0.54015(14) 0.77208(8) 0.69166(13)
C5 C 0.64908(14) 0.75446(8) 0.66895(13)
H4 H 0.7102 0.7923 0.6740
C6 C 0.66674(13) 0.68010(8) 0.63868(13)
C7 C 0.57686(14) 0.62463(8) 0.62958(13)
H5 H 0.5894 0.5739 0.6090
C8 C 0.46878(14) 0.64502(8) 0.65128(13)
C9 C 0.44873(14) 0.71836(9) 0.68254(13)
H6 H 0.3741 0.7314 0.6973
C10 C 0.25249(14) 0.59750(9) 0.58227(14)
H7 H 0.2177 0.6410 0.5375
C11 C 0.38964(15) 0.51882(9) 0.69371(14)
H8 H 0.4652 0.4962 0.7397
C12 C 0.27410(15) 0.48864(9) 0.66544(14)
H9 H 0.2550 0.4406 0.6909
C13 C 0.87911(14) 0.70923(9) 0.62772(14)
H10 H 0.8871 0.7607 0.6528
C14 C 0.96257(14) 0.66788(8) 0.59478(13)
C15 C 0.80852(14) 0.59324(8) 0.57917(13)
H12 H 0.7563 0.5497 0.5655
Co1_4 Co 0.5000 1.0000 1.0000
N1 N 0.50021(12) 0.93704(7) 0.84765(11)
N2 N 0.52387(12) 0.84691(7) 0.73047(11)
N3 N 0.37454(11) 0.58910(7) 0.64176(11)
N4 N 0.18785(11) 0.53769(7) 0.59421(11)
N5 N 0.77959(11) 0.66108(7) 0.61735(11)
N6 N 0.91797(12) 0.59524(7) 0.56353(11)
H23 H 0.9593 0.3138 0.4067
H1_2 H 0.0051 0.5218 0.7729
C8_2 C 0.03122(14) 0.14502(8) 0.84872(13)
C9_2 C 0.05127(14) 0.21836(9) 0.81746(13)
H6_2 H 0.1259 0.2314 0.8027
C10_2 C 0.24751(14) 0.09750(9) 0.91773(14)
H7_2 H 0.2823 0.1410 0.9625
C11_2 C 0.11036(15) 0.01882(9) 0.80629(14)
N3_2 N 0.12546(11) 0.08910(7) 0.85824(11)
C16_2 C 0.00295(16) 0.53099(9) 0.24460(14)
C17_2 C 0.01863(16) 0.58548(9) 0.17257(14)
H14_2 H 0.0248 0.5785 0.0973
C18_2 C 0.01260(14) 0.63657(9) 0.33505(14)
H15_2 H 0.0135 0.6734 0.3923
C19_2 C 0.04015(14) 0.72792(8) 0.19166(13)
C20_2 C 0.14908(14) 0.74554(8) 0.16895(13)
H16_2 H 0.2102 0.7077 0.1740
C21_2 C 0.16674(13) 0.81990(8) 0.13868(13)
C22_2 C 0.07686(14) 0.87537(8) 0.12958(13)
H17_2 H 0.0894 0.9261 0.1090
C28_2 C 0.37911(14) 0.79077(9) 0.12772(14)
H22_2 H 0.3871 0.7393 0.1528
C29_2 C 0.46257(14) 0.83212(8) 0.09478(13)
H23_2 H 0.5407 0.8138 0.0933
C30_2 C 0.30852(14) 0.90676(8) 0.07917(13)
H24_2 H 0.2563 0.9503 0.0655
N7_2 N 0.00021(12) 0.56296(7) 0.34765(11)
N8_2 N 0.02387(12) 0.65309(7) 0.23047(11)
N11_2 N 0.27959(11) 0.83892(7) 0.11735(11)
H8_2 H 0.0348 0.9962 0.7603
C12_2 C 0.22590(15) 0.98864(9) 0.83456(14)
H9_2 H 0.2450 0.9406 0.8091
H20_2 H 0.9652 0.0038 0.2397
C27_2 C 0.77410(15) 0.01136(9) 0.16544(14)
H21_2 H 0.7550 0.0594 0.1909
C1_2 C 0.99705(16) 0.46901(9) 0.75540(14)
C2_2 C 0.98137(16) 0.41452(9) 0.82743(14)
H2_2 H 0.9752 0.4215 0.9027
C3_2 C 0.98740(14) 0.36343(9) 0.66495(14)
H3_2 H 0.9865 0.3266 0.6077
C4_2 C 0.95985(14) 0.27208(8) 0.80834(13)
C5_2 C 0.85092(14) 0.25446(8) 0.83105(13)
H4_2 H 0.7898 0.2923 0.8260
C6_2 C 0.83326(13) 0.18010(8) 0.86132(13)
C7_2 C 0.92314(14) 0.12463(8) 0.87042(13)
H5_2 H 0.9106 0.0739 0.8910
C13_2 C 0.62089(14) 0.20923(9) 0.87228(14)
H10_2 H 0.6129 0.2607 0.8472
C14_2 C 0.53743(14) 0.16788(8) 0.90522(13)
H11_2 H 0.4593 0.1862 0.9067
C15_2 C 0.69148(14) 0.09324(8) 0.92083(13)
H12_2 H 0.7437 0.0497 0.9345
N1_2 N 0.99979(12) 0.43704(7) 0.65235(11)
N2_2 N 0.97613(12) 0.34691(7) 0.76953(11)
N5_2 N 0.72041(11) 0.16108(7) 0.88265(11)
H13_2 H 0.9949 0.4782 0.2271
C23_2 C 0.96878(14) 0.85498(8) 0.15128(13)
C24_2 C 0.94873(14) 0.78164(9) 0.18254(13)
H18_2 H 0.8741 0.7686 0.1973
C25_2 C 0.75249(14) 0.90250(9) 0.08227(14)
H19_2 H 0.7177 0.8590 0.0375
C26_2 C 0.88964(15) 0.98118(9) 0.19371(14)
N9_2 N 0.87454(11) 0.91090(7) 0.14176(11)
N17 N 0.63197(13) 0.38787(8) 0.66935(13)
O1 O 0.63890(15) 0.44908(7) 0.62282(13)
O2 O 0.61188(14) 0.38539(8) 0.76438(12)
O3 O 0.64540(15) 0.32697(7) 0.62114(12)
N17_2 N 0.86803(13) 0.88787(8) 0.83065(13)
O1_2 O 0.86110(15) 0.94908(7) 0.87718(13)
O2_2 O 0.88812(14) 0.88539(8) 0.73562(12)
O3_2 O 0.85460(15) 0.82697(7) 0.87886(12)
N17_3 N 0.36803(13) 0.61213(8) 0.33065(13)
O1_3 O 0.36110(15) 0.55092(7) 0.37718(13)
O2_3 O 0.38812(14) 0.61461(8) 0.23562(12)
O3_3 O 0.35460(15) 0.67303(7) 0.37886(12)
N17_4 N 0.13197(13) 0.11213(8) 0.16935(13)
O1_4 O 0.13890(15) 0.05092(7) 0.12282(13)
O2_4 O 0.11188(14) 0.11461(8) 0.26438(12)
O3_4 O 0.14540(15) 0.17303(7) 0.12114(12)
loop_
_geom_bond_atom_site_label_1
_geom_bond_atom_site_label_2
_geom_bond_site_symmetry_1
_geom_bond_site_symmetry_2
C17 C16 1_555 1_555
H14 C17 1_555 1_555
C18 H15 1_555 1_555
C19 C20 1_555 1_555
C20 H16 1_555 1_555
C21 C20 1_555 1_555
C22 C21 1_555 1_555
H17 C22 1_555 1_555
C23 C22 1_555 1_555
C24 C19 1_555 1_555
H18 C24 1_555 1_555
C25 H19 1_555 1_555
C26 H20 1_555 1_555
C27 C26 1_555 1_555
H21 C27 1_555 1_555
C28 H22 1_555 1_555
C29 C28 1_555 1_555
C30 H24 1_555 1_555
N7 Co1 1_555 1_555
N8 C17 1_555 1_555
N9 C23 1_555 1_555
N10 C25 1_555 1_555
N11 C21 1_555 1_555
N12 C29 1_555 1_555
Co5 N12 1_555 1_555
Co5_2 N10 1_555 1_555
C16 N7 1_555 1_555
C18 N7 1_555 1_555
C18 N8 1_555 1_555
C19 N8 1_555 1_555
C23 C24 1_555 1_555
C25 N9 1_555 1_555
C26 N9 1_555 1_555
C27 N10 1_555 1_555
C28 N11 1_555 1_555
C30 N11 1_555 1_555
C30 N12 1_555 1_555
N13 Co1_2 1_555 1_555
N15 Co1_2 1_555 1_555
N14 Co1_3 1_555 1_555
N16 Co1_3 1_555 1_555
C2 C1 1_555 1_555
H2 C2 1_555 1_555
C3 H3 1_555 1_555
C4 C5 1_555 1_555
C5 H4 1_555 1_555
C6 C5 1_555 1_555
C7 C6 1_555 1_555
H5 C7 1_555 1_555
C8 C7 1_555 1_555
C9 C4 1_555 1_555
H6 C9 1_555 1_555
C10 H7 1_555 1_555
C11 H8 1_555 1_555
C12 C11 1_555 1_555
H9 C12 1_555 1_555
C13 H10 1_555 1_555
C14 C13 1_555 1_555
C15 H12 1_555 1_555
Co1_4 N1 1_555 1_555
N1 C1 1_555 1_555
N2 C2 1_555 1_555
N3 C8 1_555 1_555
N4 C10 1_555 1_555
N5 C6 1_555 1_555
N6 C14 1_555 1_555
Co5 N4 1_555 1_555
Co5_2 N6 1_555 1_555
C3 N1 1_555 1_555
C3 N2 1_555 1_555
C4 N2 1_555 1_555
C8 C9 1_555 1_555
C10 N3 1_555 1_555
C11 N3 1_555 1_555
C12 N4 1_555 1_555
C13 N5 1_555 1_555
C15 N5 1_555 1_555
C15 N6 1_555 1_555
H6_2 C9_2 1_555 1_555
C10_2 H7_2 1_555 1_555
N3_2 C8_2 1_555 1_555
N13 C10_2 1_555 1_555
C17_2 C16_2 1_555 1_555
H14_2 C17_2 1_555 1_555
C18_2 H15_2 1_555 1_555
C19_2 C20_2 1_555 1_555
C20_2 H16_2 1_555 1_555
C21_2 C20_2 1_555 1_555
C22_2 C21_2 1_555 1_555
H17_2 C22_2 1_555 1_555
C28_2 H22_2 1_555 1_555
C29_2 C28_2 1_555 1_555
H23_2 C29_2 1_555 1_555
C30_2 H24_2 1_555 1_555
N7_2 Co5 1_555 1_555
N8_2 C17_2 1_555 1_555
N11_2 C21_2 1_555 1_555
N16 C29_2 1_555 1_555
C8_2 C9_2 1_555 1_555
C10_2 N3_2 1_555 1_555
C11_2 N3_2 1_555 1_555
C16_2 N7_2 1_555 1_555
C18_2 N7_2 1_555 1_555
C18_2 N8_2 1_555 1_555
C19_2 N8_2 1_555 1_555
C28_2 N11_2 1_555 1_555
C30_2 N11_2 1_555 1_555
C30_2 N16 1_555 1_555
H9_2 C12_2 1_555 1_555
H21_2 C27_2 1_555 1_555
C2_2 C1_2 1_555 1_555
H2_2 C2_2 1_555 1_555
C3_2 H3_2 1_555 1_555
C4_2 C5_2 1_555 1_555
C5_2 H4_2 1_555 1_555
C6_2 C5_2 1_555 1_555
C7_2 C6_2 1_555 1_555
H5_2 C7_2 1_555 1_555
C13_2 H10_2 1_555 1_555
C14_2 C13_2 1_555 1_555
H11_2 C14_2 1_555 1_555
C15_2 H12_2 1_555 1_555
Co5_2 N1_2 1_555 1_555
N1_2 C1_2 1_555 1_555
N2_2 C2_2 1_555 1_555
N5_2 C6_2 1_555 1_555
N15 C14_2 1_555 1_555
H18_2 C24_2 1_555 1_555
C25_2 H19_2 1_555 1_555
N9_2 C23_2 1_555 1_555
N14 C25_2 1_555 1_555
C3_2 N1_2 1_555 1_555
C3_2 N2_2 1_555 1_555
C4_2 N2_2 1_555 1_555
C13_2 N5_2 1_555 1_555
C15_2 N5_2 1_555 1_555
C15_2 N15 1_555 1_555
C23_2 C24_2 1_555 1_555
C25_2 N9_2 1_555 1_555
C26_2 N9_2 1_555 1_555
N17 O1 1_555 1_555
O2 N17 1_555 1_555
O3 N17 1_555 1_555
N17_2 O1_2 1_555 1_555
O2_2 N17_2 1_555 1_555
O3_2 N17_2 1_555 1_555
N17_3 O1_3 1_555 1_555
O2_3 N17_3 1_555 1_555
O3_3 N17_3 1_555 1_555
N17_4 O1_4 1_555 1_555
O2_4 N17_4 1_555 1_555
O3_4 N17_4 1_555 1_555

#END
