
###############################################################################
#
# This file contains modified crystal structure data generated from the
# MOF subset of the Cambridge Structural Database (CSD) v543 
# hosted by the Cambridge Crystallographic Data Centre (CCDC).
#
# This work is licensed under the Creative Commons
# Attribution-NonCommercial-ShareAlike 4.0 International License.
# To view a copy of this license, visit
# http://creativecommons.org/licenses/by-nc-sa/4.0/
# or send a letter to
# Creative Commons, PO Box 1866, Mountain View, CA 94042, USA.
#
# CIF created using the CSD Python API on 29 September 2022
# The structure has been converted into the P1 space group
# The structure has a 3D framework
# The original CSD entry QAKGAN is in the monoclinic crystal system
# The framework has been calculated to contain at least 10.0% void space
# The void calculation uses a probe of radius 1.32A, grid spacing 0.4
#
###############################################################################

data_QAKGAN
_chemical_formula_moiety         '(C68 H58 Cu5 N20 O26)n'
_symmetry_cell_setting           triclinic
_symmetry_space_group_name_H-M   'P 1'
_symmetry_Int_Tables_number      1
_space_group_name_Hall           'P 1'
loop_
_symmetry_equiv_pos_site_id
_symmetry_equiv_pos_as_xyz
1 x,y,z
_cell_length_a                   12.5634(5)
_cell_length_b                   10.1057(5)
_cell_length_c                   18.1729(9)
_cell_angle_alpha                90
_cell_angle_beta                 105.024(5)
_cell_angle_gamma                90
_cell_volume                     2228.4
loop_
_atom_site_label
_atom_site_type_symbol
_atom_site_fract_x
_atom_site_fract_y
_atom_site_fract_z
Cu1 Cu 0.01556(3) 0.33758(3) 0.500775(18)
Cu2 Cu 0.24657(2) 0.55102(3) 0.576315(18)
O1 O 0.10519(14) 0.3294(2) 0.42619(11)
O2 O 0.26287(15) 0.3615(2) 0.51572(11)
O3 O 0.59768(14) 0.4156(2) 0.41630(11)
O4 O 0.62839(17) 0.2432(2) 0.34973(15)
O5 O 0.29094(15) 0.0340(2) 0.17669(11)
O6 O 0.13069(16) 0.0554(2) 0.20656(12)
O7 O 0.08921(14) 0.5431(2) 0.56362(11)
H1 H 0.083(3) 0.522(3) 0.6073(12)
C9 C 0.2740(2) 0.2843(3) 0.39593(15)
C10 C 0.3841(2) 0.3224(3) 0.40779(16)
H13 H 0.4160 0.3783 0.4482
C11 C 0.4464(2) 0.2776(3) 0.35976(15)
C12 C 0.3980(2) 0.1945(3) 0.29911(16)
H14 H 0.4397 0.1632 0.2673
C13 C 0.2881(2) 0.1579(3) 0.28566(16)
C14 C 0.2269(2) 0.2028(3) 0.33487(15)
H15 H 0.1535 0.1777 0.3265
C15 C 0.2108(2) 0.3293(3) 0.45091(16)
C16 C 0.5666(2) 0.3130(3) 0.37497(17)
C17 C 0.2316(2) 0.0753(3) 0.21819(15)
Cu6 Cu 0.75343(2) 0.44898(3) 0.423685(18)
O8 O 0.40232(14) 0.5844(2) 0.58370(11)
O9 O 0.37161(17) 0.7568(2) 0.65027(15)
O10 O 0.29094(15) 0.4660(2) 0.67669(11)
N6 N 0.20746(18) 0.6431(2) 0.47403(13)
N7 N 0.09404(19) 0.1768(2) 0.55205(14)
Cu7 Cu 0.24657(2) 0.94898(3) 0.076315(18)
N1 N 0.90011(18) 0.3281(2) 0.56272(13)
N2 N 0.79254(18) 0.3569(2) 0.52597(13)
N3 N 0.79874(18) 0.3027(3) 0.64304(13)
N4 N 0.8148(2) 0.5337(3) 0.86372(14)
N5 N 0.90596(19) 0.6768(2) 0.94795(14)
C1 C 0.7656(2) 0.2623(3) 0.71195(16)
H2 H 0.7825 0.1692 0.7215
H3 H 0.6865 0.2729 0.7027
C2 C 0.8224(2) 0.3413(3) 0.78278(17)
H4 H 0.8257 0.2876 0.8276
H5 H 0.8975 0.3602 0.7812
C3 C 0.7647(3) 0.4703(3) 0.79014(18)
H6 H 0.7698 0.5294 0.7491
H7 H 0.6874 0.4534 0.7858
C4 C 0.9007(2) 0.2950(3) 0.63259(17)
H8 H 0.9632 0.2696 0.6699
C5 C 0.7339(2) 0.3408(3) 0.57504(17)
H9 H 0.6581 0.3537 0.5646
C6 C 0.8685(2) 0.6489(3) 0.87499(18)
H10 H 0.8784 0.7031 0.8359
C7 C 0.8737(3) 0.5719(3) 0.98541(18)
C8 C 0.8180(3) 0.4832(3) 0.93496(18)
H12 H 0.7877 0.4039 0.9457
Cu3 Cu 0.98444(3) 0.83758(3) 0.999225(18)
Cu4 Cu 0.98444(3) 0.66242(3) 0.499225(18)
O11 O 0.91079(14) 0.4569(2) 0.43638(11)
Cu4_2 Cu 0.01556(3) 0.16242(3) 0.000775(18)
N4_2 N 0.1852(2) 0.0337(3) 0.63628(14)
H6_2 H 0.2302 0.0294 0.7509
C6_2 C 0.1315(2) 0.1489(3) 0.62501(18)
H10_2 H 0.1216 0.2031 0.6641
C7_2 C 0.1263(3) 0.0719(3) 0.51459(18)
H11 H 0.1117 0.0636 0.4619
O11_2 O 0.08921(14) 0.9569(2) 0.06362(11)
Cu2_2 Cu 0.75343(2) 0.05102(3) 0.923685(18)
O7_2 O 0.91079(14) 0.0431(2) 0.93638(11)
H1_2 H 0.917(3) 0.022(3) 0.8927(12)
O8_2 O 0.59768(14) 0.0844(2) 0.91630(11)
O9_2 O 0.62839(17) 0.2568(2) 0.84973(15)
O1_2 O 0.89481(14) 0.8294(2) 0.07381(11)
O3_2 O 0.40232(14) 0.9156(2) 0.08370(11)
O4_2 O 0.37161(17) 0.7432(2) 0.15027(15)
O5_2 O 0.70906(15) 0.5340(2) 0.32331(11)
O6_2 O 0.86931(16) 0.5554(2) 0.29344(12)
C9_2 C 0.7260(2) 0.7843(3) 0.10407(15)
C10_2 C 0.6159(2) 0.8224(3) 0.09221(16)
H13_2 H 0.5840 0.8783 0.0518
C11_2 C 0.5536(2) 0.7776(3) 0.14024(15)
C12_2 C 0.6020(2) 0.6945(3) 0.20089(16)
H14_2 H 0.5603 0.6632 0.2327
C13_2 C 0.7119(2) 0.6579(3) 0.21434(16)
C14_2 C 0.7731(2) 0.7028(3) 0.16513(15)
H15_2 H 0.8465 0.6777 0.1735
C15_2 C 0.7892(2) 0.8293(3) 0.04909(16)
C16_2 C 0.4334(2) 0.8130(3) 0.12503(17)
C17_2 C 0.7684(2) 0.5753(3) 0.28181(15)
O2_2 O 0.73713(15) 0.8615(2) 0.98428(11)
O10_2 O 0.70906(15) 0.9660(2) 0.82331(11)
N1_2 N 0.09989(18) 0.6719(2) 0.43728(13)
N3_2 N 0.20126(18) 0.6973(3) 0.35696(13)
N4_3 N 0.1852(2) 0.4663(3) 0.13628(14)
N5_2 N 0.09404(19) 0.3232(2) 0.05205(14)
C1_2 C 0.2344(2) 0.7377(3) 0.28805(16)
H2_2 H 0.2175 0.8308 0.2785
H3_2 H 0.3135 0.7271 0.2973
C2_2 C 0.1776(2) 0.6587(3) 0.21722(17)
H4_2 H 0.1743 0.7124 0.1724
H5_2 H 0.1025 0.6398 0.2188
C3_2 C 0.2353(3) 0.5297(3) 0.20986(18)
H6_3 H 0.2302 0.4706 0.2509
H7_2 H 0.3126 0.5466 0.2142
C4_2 C 0.0993(2) 0.7050(3) 0.36741(17)
H8_2 H 0.0368 0.7304 0.3301
C5_2 C 0.2661(2) 0.6592(3) 0.42496(17)
H9_2 H 0.3419 0.6463 0.4354
C6_3 C 0.1315(2) 0.3511(3) 0.12501(18)
H10_3 H 0.1216 0.2969 0.1641
C7_3 C 0.1263(3) 0.4281(3) 0.01459(18)
C8_2 C 0.1820(3) 0.5168(3) 0.06504(18)
H12_2 H 0.2123 0.5961 0.0543
O1_3 O 0.89481(14) 0.6706(2) 0.57381(11)
O2_3 O 0.73713(15) 0.6385(2) 0.48428(11)
O6_3 O 0.86931(16) 0.9446(2) 0.79344(12)
H1_3 H 0.917(3) 0.478(3) 0.3927(12)
C9_3 C 0.7260(2) 0.7157(3) 0.60407(15)
C10_3 C 0.6159(2) 0.6776(3) 0.59221(16)
H13_3 H 0.5840 0.6217 0.5518
C11_3 C 0.5536(2) 0.7224(3) 0.64024(15)
C12_3 C 0.6020(2) 0.8055(3) 0.70089(16)
H14_3 H 0.5603 0.8368 0.7327
C13_3 C 0.7119(2) 0.8421(3) 0.71434(16)
C14_3 C 0.7731(2) 0.7972(3) 0.66513(15)
H15_3 H 0.8465 0.8223 0.6735
C15_3 C 0.7892(2) 0.6707(3) 0.54909(16)
C16_3 C 0.4334(2) 0.6870(3) 0.62503(17)
C17_3 C 0.7684(2) 0.9247(3) 0.78181(15)
N7_2 N 0.90596(19) 0.8232(2) 0.44795(14)
O2_4 O 0.26287(15) 0.1385(2) 0.01572(11)
O1_4 O 0.10519(14) 0.1706(2) 0.92619(11)
O6_4 O 0.13069(16) 0.4446(2) 0.70656(12)
C9_4 C 0.2740(2) 0.2157(3) 0.89593(15)
C10_4 C 0.3841(2) 0.1776(3) 0.90779(16)
H13_4 H 0.4160 0.1217 0.9482
C11_4 C 0.4464(2) 0.2224(3) 0.85976(15)
C12_4 C 0.3980(2) 0.3055(3) 0.79911(16)
H14_4 H 0.4397 0.3368 0.7673
C13_4 C 0.2881(2) 0.3421(3) 0.78566(16)
C14_4 C 0.2269(2) 0.2972(3) 0.83487(15)
H15_4 H 0.1535 0.3223 0.8265
C15_4 C 0.2108(2) 0.1707(3) 0.95091(16)
C16_4 C 0.5666(2) 0.1870(3) 0.87497(17)
C17_4 C 0.2316(2) 0.4247(3) 0.71819(15)
H1_4 H 0.083(3) 0.978(3) 0.1073(12)
N4_4 N 0.8148(2) 0.9663(3) 0.36372(14)
H6_4 H 0.7698 0.9706 0.2491
C6_4 C 0.8685(2) 0.8511(3) 0.37499(18)
H10_4 H 0.8784 0.7969 0.3359
C7_4 C 0.8737(3) 0.9281(3) 0.48541(18)
H11_2 H 0.8883 0.9364 0.5381
H11_3 H 0.8883 0.5636 0.0381
N1_3 N 0.09989(18) 0.8281(2) 0.93728(13)
N2_2 N 0.20746(18) 0.8569(2) 0.97403(13)
N3_3 N 0.20126(18) 0.8027(3) 0.85696(13)
C1_3 C 0.2344(2) 0.7623(3) 0.78805(16)
H2_3 H 0.2175 0.6692 0.7785
H3_3 H 0.3135 0.7729 0.7973
C2_3 C 0.1776(2) 0.8413(3) 0.71722(17)
H4_3 H 0.1743 0.7876 0.6724
H5_3 H 0.1025 0.8602 0.7188
C3_3 C 0.2353(3) 0.9703(3) 0.70986(18)
H7_3 H 0.3126 0.9534 0.7142
C4_3 C 0.0993(2) 0.7950(3) 0.86741(17)
H8_3 H 0.0368 0.7696 0.8301
C5_3 C 0.2661(2) 0.8408(3) 0.92496(17)
H9_3 H 0.3419 0.8537 0.9354
C8_3 C 0.1820(3) 0.9832(3) 0.56504(18)
H12_3 H 0.2123 0.9039 0.5543
N6_2 N 0.79254(18) 0.1431(2) 0.02597(13)
N1_4 N 0.90011(18) 0.1719(2) 0.06272(13)
N3_4 N 0.79874(18) 0.1973(3) 0.14304(13)
C1_4 C 0.7656(2) 0.2377(3) 0.21195(16)
H2_4 H 0.7825 0.3308 0.2215
H3_4 H 0.6865 0.2271 0.2027
C2_4 C 0.8224(2) 0.1587(3) 0.28278(17)
H4_4 H 0.8257 0.2124 0.3276
H5_4 H 0.8975 0.1398 0.2812
C3_4 C 0.7647(3) 0.0297(3) 0.29014(18)
H7_4 H 0.6874 0.0466 0.2858
C4_4 C 0.9007(2) 0.2050(3) 0.13259(17)
H8_4 H 0.9632 0.2304 0.1699
C5_4 C 0.7339(2) 0.1592(3) 0.07504(17)
H9_4 H 0.6581 0.1463 0.0646
C8_4 C 0.8180(3) 0.0168(3) 0.43496(18)
H12_4 H 0.7877 0.0961 0.4457
H11_4 H 0.1117 0.4364 0.9619
loop_
_geom_bond_atom_site_label_1
_geom_bond_atom_site_label_2
_geom_bond_site_symmetry_1
_geom_bond_site_symmetry_2
Cu1 O1 1_555 1_555
Cu2 O2 1_555 1_555
O1 C15 1_555 1_555
O2 C15 1_555 1_555
O3 C16 1_555 1_555
O4 C16 1_555 1_555
O5 C17 1_555 1_555
O6 C17 1_555 1_555
O7 Cu1 1_555 1_555
H1 O7 1_555 1_555
C9 C10 1_555 1_555
C10 H13 1_555 1_555
C11 C10 1_555 1_555
C12 C11 1_555 1_555
H14 C12 1_555 1_555
C13 C12 1_555 1_555
C14 C9 1_555 1_555
H15 C14 1_555 1_555
C15 C9 1_555 1_555
C16 C11 1_555 1_555
C17 C13 1_555 1_555
Cu6 O3 1_555 1_555
O8 Cu2 1_555 1_555
O9 Cu2 1_555 1_555
O10 Cu2 1_555 1_555
N6 Cu2 1_555 1_555
N7 Cu1 1_555 1_555
Cu2 O7 1_555 1_555
O4 Cu6 1_555 1_555
C13 C14 1_555 1_555
N2 N1 1_555 1_555
N3 C1 1_555 1_555
N4 C3 1_555 1_555
N5 C6 1_555 1_555
C1 H2 1_555 1_555
H3 C1 1_555 1_555
C2 C1 1_555 1_555
H4 C2 1_555 1_555
H5 C2 1_555 1_555
C3 C2 1_555 1_555
H6 C3 1_555 1_555
H7 C3 1_555 1_555
C4 N1 1_555 1_555
H8 C4 1_555 1_555
C5 N2 1_555 1_555
H9 C5 1_555 1_555
C6 N4 1_555 1_555
H10 C6 1_555 1_555
C7 N5 1_555 1_555
C8 N4 1_555 1_555
H12 C8 1_555 1_555
Cu3 N5 1_555 1_555
Cu6 N2 1_555 1_555
N3 C4 1_555 1_555
N3 C5 1_555 1_555
C7 C8 1_555 1_555
Cu4 O11 1_555 1_555
Cu6 O11 1_555 1_555
N7 C6_2 1_555 1_555
C6_2 N4_2 1_555 1_555
H10_2 C6_2 1_555 1_555
C7_2 N7 1_555 1_555
H11 C7_2 1_555 1_555
Cu7 O11_2 1_555 1_555
H1_2 O7_2 1_555 1_555
O8_2 Cu2_2 1_555 1_555
O9_2 Cu2_2 1_555 1_555
Cu2_2 O7_2 1_555 1_555
O1_2 C15_2 1_555 1_555
O3_2 C16_2 1_555 1_555
O4_2 C16_2 1_555 1_555
O5_2 C17_2 1_555 1_555
O6_2 C17_2 1_555 1_555
C9_2 C10_2 1_555 1_555
C10_2 H13_2 1_555 1_555
C11_2 C10_2 1_555 1_555
C12_2 C11_2 1_555 1_555
H14_2 C12_2 1_555 1_555
C13_2 C12_2 1_555 1_555
C14_2 C9_2 1_555 1_555
H15_2 C14_2 1_555 1_555
C15_2 C9_2 1_555 1_555
C16_2 C11_2 1_555 1_555
C17_2 C13_2 1_555 1_555
Cu7 O3_2 1_555 1_555
Cu6 O5_2 1_555 1_555
O4_2 Cu7 1_555 1_555
C13_2 C14_2 1_555 1_555
N6 N1_2 1_555 1_555
N3_2 C1_2 1_555 1_555
N4_3 C3_2 1_555 1_555
N5_2 C6_3 1_555 1_555
C1_2 H2_2 1_555 1_555
H3_2 C1_2 1_555 1_555
C2_2 C1_2 1_555 1_555
H4_2 C2_2 1_555 1_555
H5_2 C2_2 1_555 1_555
C3_2 C2_2 1_555 1_555
H6_3 C3_2 1_555 1_555
H7_2 C3_2 1_555 1_555
C4_2 N1_2 1_555 1_555
H8_2 C4_2 1_555 1_555
C5_2 N6 1_555 1_555
H9_2 C5_2 1_555 1_555
C6_3 N4_3 1_555 1_555
H10_3 C6_3 1_555 1_555
C7_3 N5_2 1_555 1_555
C8_2 N4_3 1_555 1_555
H12_2 C8_2 1_555 1_555
Cu4_2 N5_2 1_555 1_555
N3_2 C4_2 1_555 1_555
N3_2 C5_2 1_555 1_555
C7_3 C8_2 1_555 1_555
Cu4 O1_3 1_555 1_555
Cu6 O2_3 1_555 1_555
O1_3 C15_3 1_555 1_555
O2_3 C15_3 1_555 1_555
O8 C16_3 1_555 1_555
O9 C16_3 1_555 1_555
O10_2 C17_3 1_555 1_555
O6_3 C17_3 1_555 1_555
H1_3 O11 1_555 1_555
C9_3 C10_3 1_555 1_555
C10_3 H13_3 1_555 1_555
C11_3 C10_3 1_555 1_555
C12_3 C11_3 1_555 1_555
H14_3 C12_3 1_555 1_555
C13_3 C12_3 1_555 1_555
C14_3 C9_3 1_555 1_555
H15_3 C14_3 1_555 1_555
C15_3 C9_3 1_555 1_555
C16_3 C11_3 1_555 1_555
C17_3 C13_3 1_555 1_555
N7_2 Cu4 1_555 1_555
C13_3 C14_3 1_555 1_555
O1_4 C15_4 1_555 1_555
O8_2 C16_4 1_555 1_555
O9_2 C16_4 1_555 1_555
O10 C17_4 1_555 1_555
O6_4 C17_4 1_555 1_555
C9_4 C10_4 1_555 1_555
C10_4 H13_4 1_555 1_555
C11_4 C10_4 1_555 1_555
C12_4 C11_4 1_555 1_555
H14_4 C12_4 1_555 1_555
C13_4 C12_4 1_555 1_555
C14_4 C9_4 1_555 1_555
H15_4 C14_4 1_555 1_555
C15_4 C9_4 1_555 1_555
C16_4 C11_4 1_555 1_555
C17_4 C13_4 1_555 1_555
C13_4 C14_4 1_555 1_555
H1_4 O11_2 1_555 1_555
N7_2 C6_4 1_555 1_555
C6_4 N4_4 1_555 1_555
H10_4 C6_4 1_555 1_555
C7_4 N7_2 1_555 1_555
H11_2 C7_4 1_555 1_555
N2_2 N1_3 1_555 1_555
N3_3 C1_3 1_555 1_555
C1_3 H2_3 1_555 1_555
H3_3 C1_3 1_555 1_555
C2_3 C1_3 1_555 1_555
H4_3 C2_3 1_555 1_555
H5_3 C2_3 1_555 1_555
C3_3 C2_3 1_555 1_555
H7_3 C3_3 1_555 1_555
C4_3 N1_3 1_555 1_555
H8_3 C4_3 1_555 1_555
C5_3 N2_2 1_555 1_555
H9_3 C5_3 1_555 1_555
H12_3 C8_3 1_555 1_555
N3_3 C4_3 1_555 1_555
N3_3 C5_3 1_555 1_555
N6_2 N1_4 1_555 1_555
N3_4 C1_4 1_555 1_555
C1_4 H2_4 1_555 1_555
H3_4 C1_4 1_555 1_555
C2_4 C1_4 1_555 1_555
H4_4 C2_4 1_555 1_555
H5_4 C2_4 1_555 1_555
C3_4 C2_4 1_555 1_555
H7_4 C3_4 1_555 1_555
C4_4 N1_4 1_555 1_555
H8_4 C4_4 1_555 1_555
C5_4 N6_2 1_555 1_555
H9_4 C5_4 1_555 1_555
H12_4 C8_4 1_555 1_555
N3_4 C4_4 1_555 1_555
N3_4 C5_4 1_555 1_555

#END
