
###############################################################################
#
# This file contains modified crystal structure data generated from the
# MOF subset of the Cambridge Structural Database (CSD) v543 
# hosted by the Cambridge Crystallographic Data Centre (CCDC).
#
# This work is licensed under the Creative Commons
# Attribution-NonCommercial-ShareAlike 4.0 International License.
# To view a copy of this license, visit
# http://creativecommons.org/licenses/by-nc-sa/4.0/
# or send a letter to
# Creative Commons, PO Box 1866, Mountain View, CA 94042, USA.
#
# CIF created using the CSD Python API on 29 September 2022
# The structure has been converted into the P1 space group
# The structure has a 3D framework
# The original CSD entry QALGUH is in the orthorhombic crystal system
# The framework has been calculated to contain at least 10.0% void space
# The void calculation uses a probe of radius 1.32A, grid spacing 0.4
#
###############################################################################

data_QALGUH
_chemical_formula_moiety         '(C40 H16 Cr2 O16)n'
_symmetry_cell_setting           triclinic
_symmetry_space_group_name_H-M   'P 1'
_symmetry_Int_Tables_number      1
_space_group_name_Hall           'P 1'
loop_
_symmetry_equiv_pos_site_id
_symmetry_equiv_pos_as_xyz
1 x,y,z
_cell_length_a                   14.8731(3)
_cell_length_b                   15.2449(3)
_cell_length_c                   6.8365(1)
_cell_angle_alpha                90
_cell_angle_beta                 90
_cell_angle_gamma                90
_cell_volume                     1550.1
loop_
_atom_site_label
_atom_site_type_symbol
_atom_site_fract_x
_atom_site_fract_y
_atom_site_fract_z
Cr1 Cr 0.7500 0.2500 0.2500
O1 O 0.7500 0.1985(4) 0.0000
O2 O 0.6570 0.3321 0.1582
C1 C 0.5621 0.4336 0.0000
C2 C 0.5310 0.4668 0.1735
C3 C 0.6287 0.3623 0.0000
H1 H 0.5532 0.4430 0.2977
Cr3 Cr 0.2500 0.7500 0.2500
O3 O 0.7500 0.3015(4) 0.5000
O5 O 0.3430 0.6679 0.1582
O7 O 0.6570 0.1679 0.3418
O8 O 0.8430 0.1679 0.3418
O9 O 0.8430 0.3321 0.1582
C4 C 0.4379 0.5664 0.0000
C5 C 0.4690 0.5332 0.1735
C8 C 0.3713 0.6377 0.0000
H4 H 0.4468 0.5570 0.2977
O1_2 O 0.7500 0.1985(4) 1.0000
C1_2 C 0.5621 0.4336 1.0000
C3_2 C 0.6287 0.3623 1.0000
Cr2 Cr 0.7500 0.2500 0.7500
Cr4 Cr 0.2500 0.7500 0.7500
O4 O 0.6570 0.3321 0.8418
O6 O 0.3430 0.6679 0.8418
C4_2 C 0.4379 0.5664 1.0000
C6 C 0.4690 0.5332 0.8265
C7 C 0.5310 0.4668 0.8265
C8_2 C 0.3713 0.6377 1.0000
H2 H 0.5532 0.4430 0.7023
H3 H 0.4468 0.5570 0.7023
O5_2 O 0.1570 0.8321 0.6582
O6_2 O 0.1570 0.8321 0.3418
C4_3 C 0.0621 0.9336 0.5000
C5_2 C 0.0310 0.9668 0.6735
C6_2 C 0.0310 0.9668 0.3265
C8_3 C 0.1287 0.8623 0.5000
H3_2 H 0.0532 0.9430 0.2023
H4_2 H 0.0532 0.9430 0.7977
O2_2 O 0.8430 0.1679 0.6582
C1_3 C 0.9379 0.0664 0.5000
C2_2 C 0.9690 0.0332 0.6735
C3_3 C 0.8713 0.1377 0.5000
H1_2 H 0.9468 0.0570 0.7977
O7_2 O 0.8430 0.3321 0.8418
O9_2 O 0.6570 0.1679 0.6582
C7_2 C 0.9690 0.0332 0.3265
H2_2 H 0.9468 0.0570 0.2023
C1_4 C 0.5621 0.0664 0.5000
C2_3 C 0.5310 0.0332 0.3265
C3_4 C 0.6287 0.1377 0.5000
H1_3 H 0.5532 0.0570 0.2023
C7_3 C 0.5310 0.0332 0.6735
H2_3 H 0.5532 0.0570 0.7977
O5_3 O 0.3430 0.8321 0.3418
O6_3 O 0.3430 0.8321 0.6582
C4_4 C 0.4379 0.9336 0.5000
C5_3 C 0.4690 0.9668 0.3265
C6_3 C 0.4690 0.9668 0.6735
C8_4 C 0.3713 0.8623 0.5000
H3_3 H 0.4468 0.9430 0.7977
H4_3 H 0.4468 0.9430 0.2023
O3_2 O 0.2500 0.8015(4) 0.0000
O1_3 O 0.2500 0.6985(4) 0.5000
O3_3 O 0.2500 0.8015(4) 1.0000
O7_3 O 0.1570 0.6679 0.8418
O9_3 O 0.1570 0.6679 0.1582
C1_5 C 0.0621 0.5664 0.0000
C3_5 C 0.1287 0.6377 0.0000
C7_4 C 0.0310 0.5332 0.1735
H2_4 H 0.0532 0.5570 0.2977
C1_6 C 0.0621 0.5664 1.0000
C2_4 C 0.0310 0.5332 0.8265
C3_6 C 0.1287 0.6377 1.0000
H1_4 H 0.0532 0.5570 0.7023
C4_5 C 0.9379 0.4336 0.0000
C6_4 C 0.9690 0.4668 0.1735
C8_5 C 0.8713 0.3623 0.0000
H3_4 H 0.9468 0.4430 0.2977
C4_6 C 0.9379 0.4336 1.0000
C5_4 C 0.9690 0.4668 0.8265
C8_6 C 0.8713 0.3623 1.0000
H4_4 H 0.9468 0.4430 0.7023
loop_
_geom_bond_atom_site_label_1
_geom_bond_atom_site_label_2
_geom_bond_site_symmetry_1
_geom_bond_site_symmetry_2
Cr1 O1 1_555 1_555
O2 Cr1 1_555 1_555
C1 C2 1_555 1_555
C2 H1 1_555 1_555
C3 O2 1_555 1_555
Cr3 O5 1_555 1_555
O3 Cr1 1_555 1_555
O5 C8 1_555 1_555
O7 Cr1 1_555 1_555
O8 Cr1 1_555 1_555
O9 Cr1 1_555 1_555
C4 C5 1_555 1_555
C5 C2 1_555 1_555
C8 C4 1_555 1_555
H4 C5 1_555 1_555
C1 C3 1_555 1_555
O1_2 Cr2 1_555 1_555
Cr2 O4 1_555 1_555
Cr4 O6 1_555 1_555
O4 C3_2 1_555 1_555
O6 C8_2 1_555 1_555
C6 C4_2 1_555 1_555
C7 C1_2 1_555 1_555
C8_2 C4_2 1_555 1_555
H2 C7 1_555 1_555
H3 C6 1_555 1_555
C1_2 C3_2 1_555 1_555
C6 C7 1_555 1_555
Cr4 O5_2 1_555 1_555
Cr3 O6_2 1_555 1_555
O5_2 C8_3 1_555 1_555
O6_2 C8_3 1_555 1_555
C4_3 C5_2 1_555 1_555
C6_2 C4_3 1_555 1_555
C8_3 C4_3 1_555 1_555
H3_2 C6_2 1_555 1_555
H4_2 C5_2 1_555 1_555
Cr2 O3 1_555 1_555
O2_2 Cr2 1_555 1_555
C1_3 C2_2 1_555 1_555
C2_2 H1_2 1_555 1_555
C3_3 O2_2 1_555 1_555
O8 C3_3 1_555 1_555
O7_2 Cr2 1_555 1_555
O9_2 Cr2 1_555 1_555
C7_2 C1_3 1_555 1_555
H2_2 C7_2 1_555 1_555
C1_3 C3_3 1_555 1_555
C1_4 C2_3 1_555 1_555
C2_3 H1_3 1_555 1_555
C3_4 O7 1_555 1_555
O9_2 C3_4 1_555 1_555
C7_3 C1_4 1_555 1_555
H2_3 C7_3 1_555 1_555
C1_4 C3_4 1_555 1_555
Cr3 O5_3 1_555 1_555
Cr4 O6_3 1_555 1_555
O5_3 C8_4 1_555 1_555
O6_3 C8_4 1_555 1_555
C4_4 C5_3 1_555 1_555
C6_3 C4_4 1_555 1_555
C8_4 C4_4 1_555 1_555
H3_3 C6_3 1_555 1_555
H4_3 C5_3 1_555 1_555
Cr4 O1_3 1_555 1_555
O1_3 Cr3 1_555 1_555
O3_3 Cr4 1_555 1_555
O7_3 Cr4 1_555 1_555
Cr3 O3_2 1_555 1_555
O9_3 Cr3 1_555 1_555
O9_3 C3_5 1_555 1_555
C7_4 C1_5 1_555 1_555
H2_4 C7_4 1_555 1_555
C1_5 C3_5 1_555 1_555
C1_6 C2_4 1_555 1_555
C2_4 H1_4 1_555 1_555
C3_6 O7_3 1_555 1_555
C1_6 C3_6 1_555 1_555
O9 C8_5 1_555 1_555
C6_4 C4_5 1_555 1_555
C8_5 C4_5 1_555 1_555
H3_4 C6_4 1_555 1_555
O7_2 C8_6 1_555 1_555
C4_6 C5_4 1_555 1_555
C8_6 C4_6 1_555 1_555
H4_4 C5_4 1_555 1_555

#END
