####################################################################### 
# 
# This file contains crystal structure data downloaded from the 
# Cambridge Structural Database (CSD) hosted by the Cambridge 
# Crystallographic Data Centre (CCDC).
# 
# Full information about CCDC data access policies and citation 
# guidelines are available at http://www.ccdc.cam.ac.uk/access/V1 
# 
# Audit and citation data items may have been added by the CCDC. 
# Please retain this information to preserve the provenance of 
# this file and to allow appropriate attribution of the data. 
# 
#######################################################################

data_MIL-53(Cr)_superhydrate_final
_audit_block_doi                 10.5517/ccvmry4
_database_code_depnum_ccdc_archive 'CCDC 793567'
loop_
_citation_id
_citation_doi
_citation_year
1 10.1039/C0CC03882B 2011
_audit_update_record             
;
2010-09-15 deposited with the CCDC.	2024-07-12 downloaded from the CCDC.
;


_audit_creation_method           'Created with Diamond v2.0'
_audit_creation_date             10-10-22
_chemical_formula_sum            'Cr4 O44.886 C32 H16'
_chemical_formula_weight         1326.605
_cell_length_a                   14.8731(3)
_cell_length_b                   15.2449(3)
_cell_length_c                   6.8365(1)
_cell_angle_alpha                90.000
_cell_angle_beta                 90.000
_cell_angle_gamma                90.000
_cell_volume                     1550.1(0)
_symmetry_int_tables_number      74
_symmetry_space_group_name_H-M   'I m c m'
_symmetry_space_group_name_Hall  -I_2_2a

loop_
_atom_type_symbol
_atom_type_oxidation_number
_atom_type_radius_bond
Cr ? 1.200
O ? 0.660
C ? 0.860
H ? 1.200


loop_
_atom_site_label
_atom_site_type_symbol
_atom_site_fract_x
_atom_site_fract_y
_atom_site_fract_z
_atom_site_occupancy
_atom_site_symmetry_multiplicity
_atom_site_Wyckoff_symbol
_atom_site_attached_hydrogens
_atom_site_calc_flag
_atom_site_thermal_displace_type
_atom_site_u_iso_or_equiv
Cr Cr 0.7500 0.2500 0.2500 1.000 4 ? ? d ? ?
O1 O 0.7500 0.1985(4) 0.0000 1.000 4 ? ? d ? ?
O11 O -0.1570 0.1679 0.6582 ? 16 ? ? d ? ?
C11 C -0.0621 0.0664 0.5000 ? 8 ? ? d ? ?
C12 C -0.0310 0.0332 0.6735 ? 16 ? ? d ? ?
C17 C -0.1287 0.1377 0.5000 ? 8 ? ? d ? ?
H12 H -0.0532 0.0570 0.7977 ? 16 ? ? d ? ?
Ow1 O 0.7500 0.5028(3) 0.5000 1.000 4 ? ? d ? ?
Ow2 O 0.7500 0.8865(3) 0.6958(5) 1.000 8 ? ? d ? ?
Ow3 O 0.6298(3) 0.7500 0.7500 1.000 8 ? ? d ? ?
Ow4 O 0.0021(3) 0.2098(5) 0.0000 0.611(4) 8 ? ? d ? ?



