
###############################################################################
#
# This file contains modified crystal structure data generated from the
# MOF subset of the Cambridge Structural Database (CSD) v543 
# hosted by the Cambridge Crystallographic Data Centre (CCDC).
#
# This work is licensed under the Creative Commons
# Attribution-NonCommercial-ShareAlike 4.0 International License.
# To view a copy of this license, visit
# http://creativecommons.org/licenses/by-nc-sa/4.0/
# or send a letter to
# Creative Commons, PO Box 1866, Mountain View, CA 94042, USA.
#
# CIF created using the CSD Python API on 29 September 2022
# The structure has been converted into the P1 space group
# The structure has a 3D framework
# The original CSD entry QALNIA is in the orthorhombic crystal system
# The original CSD entry QALNIA is in a Sohncke space group
# The framework has been calculated to contain at least 10.0% void space
# The void calculation uses a probe of radius 1.32A, grid spacing 0.4
# H atom positions have been added when not included in the experimental data
#
###############################################################################

data_QALNIA
_chemical_formula_moiety         '(C16 H24 O30 Sr4)n'
_symmetry_cell_setting           triclinic
_symmetry_space_group_name_H-M   'P 1'
_symmetry_Int_Tables_number      1
_space_group_name_Hall           'P 1'
loop_
_symmetry_equiv_pos_site_id
_symmetry_equiv_pos_as_xyz
1 x,y,z
_cell_length_a                   9.4921(10)
_cell_length_b                   9.5394(13)
_cell_length_c                   11.0134(13)
_cell_angle_alpha                90
_cell_angle_beta                 90
_cell_angle_gamma                90
_cell_volume                     997.252
loop_
_atom_site_label
_atom_site_type_symbol
_atom_site_fract_x
_atom_site_fract_y
_atom_site_fract_z
O12 O 0.0602(3) 0.7770(3) 0.7151(2)
O11 O 0.6592(3) 0.0263(3) 0.7714(3)
O13 O 0.9301(3) 0.0478(3) 0.8263(3)
O4 O 0.4891(3) 0.7392(4) 0.0098(3)
O10 O 0.7332(3) 0.8555(3) 0.0442(2)
Sr2 Sr 0.31852(4) 0.69297(4) 0.18474(3)
Sr1 Sr 0.81852(4) 0.80703(4) 0.81526(3)
O1 O 0.7759(4) 0.8307(4) 0.5784(3)
O2 O 0.8007(4) 0.5358(3) 0.8442(4)
C1 C 0.4617(4) 0.7403(4) 0.8972(3)
O3 O 0.5481(3) 0.7568(3) 0.8137(3)
C2 C 0.3040(4) 0.7258(3) 0.8644(3)
O5 O 0.2332(3) 0.6445(3) 0.9558(2)
C3 C 0.2827(4) 0.6647(4) 0.7372(4)
O6 O 0.3408(3) 0.5263(3) 0.7286(3)
C4 C 0.1248(4) 0.6620(4) 0.7064(3)
O8 O 0.0699(3) 0.5478(3) 0.6737(3)
O9 O 0.9891(3) 0.7608(4) 0.9902(3)
Sr3 Sr 0.18148(4) 0.30703(4) 0.68474(3)
H1 H 0.336199 0.731877 0.671889
H2 H 0.681813 0.792077 0.557555
H3 H 0.780075 0.931093 0.554844
H4 H 0.874145 0.488915 0.794467
H5 H 0.815063 0.512196 0.931137
H6 H 0.258188 0.830459 0.86511
O1_2 O 0.2759(4) 0.6693(4) 0.4216(3)
O2_2 O 0.3007(4) 0.9642(3) 0.1558(4)
O3_2 O 0.0481(3) 0.7432(3) 0.1863(3)
O11_2 O 0.1592(3) 0.4737(3) 0.2286(3)
O12_2 O 0.5602(3) 0.7230(3) 0.2849(2)
O13_2 O 0.4301(3) 0.4522(3) 0.1737(3)
H2_2 H 0.181813 0.707923 0.442445
H3_2 H 0.280075 0.568907 0.445156
H5_2 H 0.315063 0.987804 0.0688626
Sr3_2 Sr 0.68148(4) 0.19297(4) 0.31526(3)
C1_2 C 0.9617(4) 0.7597(4) 0.1028(3)
C2_2 C 0.8040(4) 0.7742(3) 0.1356(3)
C3_2 C 0.7827(4) 0.8353(4) 0.2628(4)
O6_2 O 0.8408(3) 0.9737(3) 0.2714(3)
C4_2 C 0.6248(4) 0.8380(4) 0.2936(3)
O8_2 O 0.5699(3) 0.9522(3) 0.3263(3)
H1_2 H 0.836199 0.768123 0.328111
H6_2 H 0.758188 0.669541 0.13489
O1_3 O 0.2241(4) 0.3307(4) 0.9216(3)
O2_3 O 0.1993(4) 0.0358(3) 0.6558(4)
C1_3 C 0.5383(4) 0.2403(4) 0.6028(3)
O3_3 O 0.4519(3) 0.2568(3) 0.6863(3)
O4_2 O 0.5109(3) 0.2392(4) 0.4902(3)
C2_3 C 0.6960(4) 0.2258(3) 0.6356(3)
O5_2 O 0.7668(3) 0.1445(3) 0.5442(2)
C3_3 C 0.7173(4) 0.1647(4) 0.7628(4)
C4_3 C 0.8752(4) 0.1620(4) 0.7936(3)
O7 O 0.9398(3) 0.2770(3) 0.7849(2)
O9_2 O 0.0109(3) 0.2608(4) 0.5098(3)
O10_2 O 0.2668(3) 0.3555(3) 0.4558(2)
H1_3 H 0.663801 0.231877 0.828111
H2_3 H 0.318187 0.292077 0.942445
H3_3 H 0.219925 0.431093 0.945156
H5_3 H 0.184937 0.0121959 0.568863
H6_3 H 0.741812 0.330459 0.63489
H4_2 H 0.125855 0.988915 0.705533
C1_4 C 0.0383(4) 0.2597(4) 0.3972(3)
C2_4 C 0.1960(4) 0.2742(3) 0.3644(3)
C3_4 C 0.2173(4) 0.3353(4) 0.2372(4)
C4_4 C 0.3752(4) 0.3380(4) 0.2064(3)
O7_2 O 0.4398(3) 0.2230(3) 0.2151(2)
H1_4 H 0.163801 0.268123 0.171889
H6_4 H 0.241812 0.169541 0.36511
O1_4 O 0.7241(4) 0.1693(4) 0.0784(3)
O2_4 O 0.6993(4) 0.4642(3) 0.3442(4)
O3_4 O 0.9519(3) 0.2432(3) 0.3137(3)
H2_4 H 0.818187 0.207923 0.0575555
H3_4 H 0.719925 0.0689066 0.0548442
H4_3 H 0.625855 0.511085 0.294467
H5_4 H 0.684937 0.487804 0.431137
H4_4 H 0.374145 0.0110846 0.205533
loop_
_geom_bond_atom_site_label_1
_geom_bond_atom_site_label_2
_geom_bond_site_symmetry_1
_geom_bond_site_symmetry_2
Sr2 O4 1_555 1_555
Sr1 O1 1_555 1_555
O2 Sr1 1_555 1_555
C1 O3 1_555 1_555
O3 Sr1 1_555 1_555
C2 C1 1_555 1_555
O5 C2 1_555 1_555
C3 C2 1_555 1_555
O6 C3 1_555 1_555
C4 C3 1_555 1_555
O12 C4 1_555 1_555
O8 C4 1_555 1_555
O9 Sr1 1_555 1_555
Sr3 O6 1_555 1_555
O8 Sr3 1_555 1_555
C3 H1 1_555 1_555
O1 H2 1_555 1_555
O1 H3 1_555 1_555
O2 H4 1_555 1_555
O2 H5 1_555 1_555
C2 H6 1_555 1_555
Sr2 O1_2 1_555 1_555
O2_2 Sr2 1_555 1_555
O3_2 Sr2 1_555 1_555
O11_2 Sr2 1_555 1_555
O12_2 Sr2 1_555 1_555
O13_2 Sr2 1_555 1_555
O1_2 H2_2 1_555 1_555
O1_2 H3_2 1_555 1_555
O2_2 H5_2 1_555 1_555
C2_2 C1_2 1_555 1_555
O10 C2_2 1_555 1_555
C3_2 C2_2 1_555 1_555
O6_2 C3_2 1_555 1_555
C4_2 C3_2 1_555 1_555
O12_2 C4_2 1_555 1_555
O8_2 C4_2 1_555 1_555
C3_2 H1_2 1_555 1_555
C2_2 H6_2 1_555 1_555
Sr3 O1_3 1_555 1_555
O2_3 Sr3 1_555 1_555
C1_3 O3_3 1_555 1_555
O3_3 Sr3 1_555 1_555
O4_2 C1_3 1_555 1_555
C2_3 C1_3 1_555 1_555
O5_2 C2_3 1_555 1_555
C3_3 C2_3 1_555 1_555
O11 C3_3 1_555 1_555
C4_3 C3_3 1_555 1_555
O7 C4_3 1_555 1_555
O13 C4_3 1_555 1_555
O9_2 Sr3 1_555 1_555
O10_2 Sr3 1_555 1_555
Sr3_2 O4_2 1_555 1_555
O5_2 Sr3_2 1_555 1_555
C3_3 H1_3 1_555 1_555
O1_3 H2_3 1_555 1_555
O1_3 H3_3 1_555 1_555
O2_3 H5_3 1_555 1_555
C2_3 H6_3 1_555 1_555
O9_2 C1_4 1_555 1_555
C2_4 C1_4 1_555 1_555
O10_2 C2_4 1_555 1_555
C3_4 C2_4 1_555 1_555
O11_2 C3_4 1_555 1_555
C4_4 C3_4 1_555 1_555
O7_2 C4_4 1_555 1_555
O13_2 C4_4 1_555 1_555
Sr3_2 O7_2 1_555 1_555
C3_4 H1_4 1_555 1_555
C2_4 H6_4 1_555 1_555
Sr3_2 O1_4 1_555 1_555
O2_4 Sr3_2 1_555 1_555
O3_4 Sr3_2 1_555 1_555
O1_4 H2_4 1_555 1_555
O1_4 H3_4 1_555 1_555
O2_4 H4_3 1_555 1_555
O2_4 H5_4 1_555 1_555

#END
