
###############################################################################
#
# This file contains modified crystal structure data generated from the
# MOF subset of the Cambridge Structural Database (CSD) v543 
# hosted by the Cambridge Crystallographic Data Centre (CCDC).
#
# This work is licensed under the Creative Commons
# Attribution-NonCommercial-ShareAlike 4.0 International License.
# To view a copy of this license, visit
# http://creativecommons.org/licenses/by-nc-sa/4.0/
# or send a letter to
# Creative Commons, PO Box 1866, Mountain View, CA 94042, USA.
#
# CIF created using the CSD Python API on 29 September 2022
# The structure has been converted into the P1 space group
# The structure has a 3D framework
# The original CSD entry QALXIO is in the triclinic crystal system
# The framework has been calculated to contain at least 10.0% void space
# The void calculation uses a probe of radius 1.32A, grid spacing 0.4
# H atom positions have been added when not included in the experimental data
# Generated hydrogen atom positions removed from atoms on special positions
#
###############################################################################

data_QALXIO
_chemical_formula_moiety         '(C44 H40 N36 O20 Zn6)n'
_symmetry_cell_setting           triclinic
_symmetry_space_group_name_H-M   'P 1'
_symmetry_Int_Tables_number      1
_space_group_name_Hall           'P 1'
loop_
_symmetry_equiv_pos_site_id
_symmetry_equiv_pos_as_xyz
1 x,y,z
_cell_length_a                   10.464(8)
_cell_length_b                   13.590(10)
_cell_length_c                   16.890(12)
_cell_angle_alpha                84.707(11)
_cell_angle_beta                 79.458(11)
_cell_angle_gamma                69.904(12)
_cell_volume                     2216.43
loop_
_atom_site_label
_atom_site_type_symbol
_atom_site_fract_x
_atom_site_fract_y
_atom_site_fract_z
C8 C 0.2763(15) 0.0385(9) 0.2072(7)
O3 O 0.3691(12) 0.0433(8) 0.1544(6)
O4 O 0.2171(11) 0.1063(6) 0.2623(5)
Zn1 Zn 0.28109(17) 0.22790(11) 0.23599(8)
N20 N 0.1595(10) 0.3270(7) 0.3226(6)
O10 O 0.4647(11) 0.2499(7) 0.2311(5)
N22 N 0.2083(12) 0.3008(8) 0.1338(6)
C1 C 0.0696(18) 0.7888(12) 0.3746(9)
C2 C 0.1159(15) 0.8310(10) 0.2932(9)
C3 C 0.1420(15) 0.7726(10) 0.2209(8)
H1 H 0.116701 0.712985 0.223558
C4 C 0.2023(14) 0.8032(9) 0.1497(7)
C5 C 0.2154(15) 0.7482(9) 0.0727(8)
C6 C 0.2486(15) 0.8924(9) 0.1458(8)
H2 H 0.292962 0.912822 0.097540
C7 C 0.2256(15) 0.9466(10) 0.2150(7)
C9 C 0.1598(14) 0.9162(9) 0.2856(8)
H3 H 0.144035 0.955363 0.330871
N1 N 0.1756(13) 0.6661(8) 0.0725(7)
N4 N 0.2667(18) 0.7771(11) 0.0015(7)
O1 O 0.0342(11) 0.7062(7) 0.3738(5)
O2 O 0.0653(15) 0.8336(9) 0.4345(6)
C10 C 0.1623(12) 0.4273(8) 0.3330(7)
C11 C 0.0809(13) 0.3117(8) 0.3897(7)
N5 N 0.0912(12) 0.4629(8) 0.4008(7)
N6 N 0.0366(13) 0.3882(8) 0.4414(6)
N8 N 0.2361(15) 0.4735(8) 0.2772(7)
H4 H 0.238712 0.534206 0.285630
H5 H 0.280232 0.442209 0.233440
N9 N 0.0464(13) 0.2236(9) 0.4049(7)
H6 H 0.076075 0.175136 0.370068
C12 C 0.2320(17) 0.5290(11) 0.7736(8)
C13 C 0.2886(13) 0.5929(10) 0.7111(7)
C14 C 0.2910(16) 0.5885(11) 0.6315(8)
H8 H 0.254470 0.542038 0.614598
C15 C 0.3452(17) 0.6495(12) 0.5725(8)
C16 C 0.3625(17) 0.6353(12) 0.4843(8)
C17 C 0.410(2) 0.7116(15) 0.5979(10)
H9 H 0.447025 0.753121 0.560233
C18 C 0.4213(16) 0.7129(10) 0.6818(8)
C19 C 0.4952(14) 0.7746(11) 0.7042(9)
C20 C 0.3593(14) 0.6531(11) 0.7331(8)
H10 H 0.364786 0.652589 0.787483
N10 N 0.2871(13) 0.5966(9) 0.4504(6)
N11 N 0.3354(16) 0.5998(10) 0.3683(7)
N12 N 0.4383(16) 0.6335(11) 0.3569(8)
N13 N 0.4619(15) 0.6518(12) 0.4316(7)
O5 O 0.1461(16) 0.4913(12) 0.7525(7)
O6 O 0.2579(10) 0.5239(7) 0.8441(5)
O7 O 0.5270(16) 0.8406(11) 0.6563(7)
O8 O 0.5353(11) 0.7501(7) 0.7689(5)
Zn3 Zn 0.08886(19) 0.59118(11) 0.45514(9)
N21 N 0.1641(11) 0.4199(7) 0.0343(5)
Zn6 Zn 0.71891(17) 0.77210(11) 0.76401(8)
Zn7 Zn 0.14600(17) 0.53252(12) 0.95197(8)
N2 N 0.2082(12) 0.6440(8) 0.9935(7)
N3 N 0.2607(18) 0.7043(10) 0.9519(7)
H12 H 0.074103 0.728074 0.857607
H7 H 0.994944 0.216082 0.449312
N19 N 0.9634(13) 0.6118(8) 0.5586(6)
Zn8 Zn 0.85400(17) 0.46748(12) 0.04803(8)
Zn9 Zn 0.91114(19) 0.40882(11) 0.54486(9)
C21 C 0.9076(17) 0.6920(11) 0.8792(8)
C22 C 0.7459(14) 0.6316(9) 0.9187(7)
N14 N 0.9561(13) 0.6126(8) 0.9389(6)
N15 N 0.8359(11) 0.5801(7) 0.9657(5)
N16 N 0.7917(12) 0.6992(8) 0.8662(6)
N17 N 0.9961(14) 0.7409(10) 0.8419(7)
H11 H 0.974344 0.784881 0.802566
N18 N 0.6170(13) 0.6215(9) 0.9243(7)
H13 H 0.592139 0.579590 0.960198
H14 H 0.562031 0.657097 0.891937
C21_2 C 0.0924(17) 0.3080(11) 0.1208(8)
C22_2 C 0.2541(14) 0.3684(9) 0.0813(7)
N14_2 N 0.0439(13) 0.3874(8) 0.0611(6)
N17_2 N 0.0039(14) 0.2591(10) 0.1581(7)
H11_2 H 0.025656 0.215119 0.197434
N18_2 N 0.3830(13) 0.3785(9) 0.0757(7)
H13_2 H 0.407861 0.420410 0.039802
H14_2 H 0.437969 0.342903 0.108063
H7_2 H 0.005056 0.783918 0.550688
N2_2 N 0.7918(12) 0.3560(8) 0.0065(7)
N3_2 N 0.7393(18) 0.2957(10) 0.0481(7)
H12_2 H 0.925897 0.271926 0.142393
O9 O 0.7421(10) 0.4761(7) 0.1559(5)
C1_2 C 0.9304(18) 0.2112(12) 0.6254(9)
C2_2 C 0.8841(15) 0.1690(10) 0.7068(9)
C3_2 C 0.8580(15) 0.2274(10) 0.7791(8)
H1_2 H 0.883299 0.287015 0.776442
C4_2 C 0.7977(14) 0.1968(9) 0.8503(7)
C5_2 C 0.7846(15) 0.2518(9) 0.9273(8)
C6_2 C 0.7514(15) 0.1076(9) 0.8542(8)
H2_2 H 0.707038 0.087178 0.902460
C7_2 C 0.7744(15) 0.0534(10) 0.7850(7)
C9_2 C 0.8402(14) 0.0838(9) 0.7144(8)
H3_2 H 0.855965 0.044637 0.669129
N1_2 N 0.8244(13) 0.3339(8) 0.9275(7)
N4_2 N 0.7333(18) 0.2229(11) 0.9985(7)
O1_2 O 0.9658(11) 0.2938(7) 0.6262(5)
O2_2 O 0.9347(15) 0.1664(9) 0.5655(6)
C10_2 C 0.8377(12) 0.5727(8) 0.6670(7)
C11_2 C 0.9191(13) 0.6883(8) 0.6103(7)
N5_2 N 0.9088(12) 0.5371(8) 0.5992(7)
N7 N 0.8405(10) 0.6730(7) 0.6774(6)
N8_2 N 0.7639(15) 0.5265(8) 0.7228(7)
H4_2 H 0.761288 0.465794 0.714370
H5_2 H 0.719768 0.557791 0.766560
N9_2 N 0.9536(13) 0.7764(9) 0.5951(7)
H6_2 H 0.923925 0.824864 0.629932
C12_2 C 0.7680(17) 0.4710(11) 0.2264(8)
C13_2 C 0.7114(13) 0.4071(10) 0.2889(7)
C14_2 C 0.7090(16) 0.4115(11) 0.3685(8)
H8_2 H 0.745530 0.457962 0.385402
C15_2 C 0.6548(17) 0.3505(12) 0.4275(8)
C16_2 C 0.6375(17) 0.3647(12) 0.5157(8)
C17_2 C 0.590(2) 0.2884(15) 0.4021(10)
H9_2 H 0.552975 0.246879 0.439767
C18_2 C 0.5787(16) 0.2871(10) 0.3182(8)
C19_2 C 0.5048(14) 0.2254(11) 0.2958(9)
C20_2 C 0.6407(14) 0.3469(11) 0.2669(8)
H10_2 H 0.635214 0.347411 0.212517
N10_2 N 0.7129(13) 0.4034(9) 0.5496(6)
N11_2 N 0.6646(16) 0.4002(10) 0.6317(7)
N12_2 N 0.5617(16) 0.3665(11) 0.6431(8)
N13_2 N 0.5381(15) 0.3482(12) 0.5684(7)
O5_2 O 0.8539(16) 0.5087(12) 0.2475(7)
O7_2 O 0.4730(16) 0.1594(11) 0.3437(7)
C8_2 C 0.7237(15) 0.9615(9) 0.7928(7)
O3_2 O 0.6309(12) 0.9567(8) 0.8456(6)
O4_2 O 0.7829(11) 0.8937(6) 0.7377(5)
O11 O 0.0686(19) 0.3651(16) 0.8580(13)
O11_2 O 0.9314(19) 0.6349(16) 0.1420(13)
O12 O 0.5124(19) 0.4307(14) 0.9089(11)
O12_2 O 0.4876(19) 0.5693(14) 0.0911(11)
loop_
_geom_bond_atom_site_label_1
_geom_bond_atom_site_label_2
_geom_bond_site_symmetry_1
_geom_bond_site_symmetry_2
O3 C8 1_555 1_555
O4 C8 1_555 1_555
Zn1 O4 1_555 1_555
N20 Zn1 1_555 1_555
O10 Zn1 1_555 1_555
N22 Zn1 1_555 1_555
C1 C2 1_555 1_555
C2 C3 1_555 1_555
C3 H1 1_555 1_555
C4 C3 1_555 1_555
C5 C4 1_555 1_555
C6 C4 1_555 1_555
H2 C6 1_555 1_555
C7 C6 1_555 1_555
C9 C2 1_555 1_555
H3 C9 1_555 1_555
N1 C5 1_555 1_555
N4 C5 1_555 1_555
O1 C1 1_555 1_555
O2 C1 1_555 1_555
C10 N5 1_555 1_555
C11 N6 1_555 1_555
N5 N6 1_555 1_555
N20 C10 1_555 1_555
N8 C10 1_555 1_555
H4 N8 1_555 1_555
H5 N8 1_555 1_555
N9 C11 1_555 1_555
H6 N9 1_555 1_555
C12 C13 1_555 1_555
C13 C14 1_555 1_555
C14 H8 1_555 1_555
C15 C14 1_555 1_555
C16 C15 1_555 1_555
C17 C15 1_555 1_555
H9 C17 1_555 1_555
C18 C17 1_555 1_555
C19 C18 1_555 1_555
C20 C13 1_555 1_555
H10 C20 1_555 1_555
N10 C16 1_555 1_555
N11 N10 1_555 1_555
N12 N11 1_555 1_555
N13 C16 1_555 1_555
O5 C12 1_555 1_555
O6 C12 1_555 1_555
O7 C19 1_555 1_555
O8 C19 1_555 1_555
Zn3 O1 1_555 1_555
Zn6 O8 1_555 1_555
Zn7 O6 1_555 1_555
C7 C9 1_555 1_555
C11 N20 1_555 1_555
N5 Zn3 1_555 1_555
C18 C20 1_555 1_555
N10 Zn3 1_555 1_555
N12 N13 1_555 1_555
N3 N2 1_555 1_555
Zn7 N2 1_555 1_555
C21 N14 1_555 1_555
C22 N15 1_555 1_555
N14 N15 1_555 1_555
N16 C21 1_555 1_555
N17 C21 1_555 1_555
H11 N17 1_555 1_555
N18 C22 1_555 1_555
H13 N18 1_555 1_555
H14 N18 1_555 1_555
Zn6 N16 1_555 1_555
C22 N16 1_555 1_555
C21_2 N14_2 1_555 1_555
C22_2 N21 1_555 1_555
N14_2 N21 1_555 1_555
N22 C21_2 1_555 1_555
N17_2 C21_2 1_555 1_555
H11_2 N17_2 1_555 1_555
N18_2 C22_2 1_555 1_555
H13_2 N18_2 1_555 1_555
H14_2 N18_2 1_555 1_555
C22_2 N22 1_555 1_555
N3_2 N2_2 1_555 1_555
Zn8 N2_2 1_555 1_555
O9 Zn8 1_555 1_555
C1_2 C2_2 1_555 1_555
C2_2 C3_2 1_555 1_555
C3_2 H1_2 1_555 1_555
C4_2 C3_2 1_555 1_555
C5_2 C4_2 1_555 1_555
C6_2 C4_2 1_555 1_555
H2_2 C6_2 1_555 1_555
C7_2 C6_2 1_555 1_555
C9_2 C2_2 1_555 1_555
H3_2 C9_2 1_555 1_555
N1_2 C5_2 1_555 1_555
N4_2 C5_2 1_555 1_555
O1_2 C1_2 1_555 1_555
O2_2 C1_2 1_555 1_555
C10_2 N5_2 1_555 1_555
C11_2 N19 1_555 1_555
N5_2 N19 1_555 1_555
N7 C10_2 1_555 1_555
N8_2 C10_2 1_555 1_555
H4_2 N8_2 1_555 1_555
H5_2 N8_2 1_555 1_555
N9_2 C11_2 1_555 1_555
H6_2 N9_2 1_555 1_555
C12_2 C13_2 1_555 1_555
C13_2 C14_2 1_555 1_555
C14_2 H8_2 1_555 1_555
C15_2 C14_2 1_555 1_555
C16_2 C15_2 1_555 1_555
C17_2 C15_2 1_555 1_555
H9_2 C17_2 1_555 1_555
C18_2 C17_2 1_555 1_555
C19_2 C18_2 1_555 1_555
C20_2 C13_2 1_555 1_555
H10_2 C20_2 1_555 1_555
N10_2 C16_2 1_555 1_555
N11_2 N10_2 1_555 1_555
N12_2 N11_2 1_555 1_555
N13_2 C16_2 1_555 1_555
O5_2 C12_2 1_555 1_555
O9 C12_2 1_555 1_555
O7_2 C19_2 1_555 1_555
O10 C19_2 1_555 1_555
Zn9 O1_2 1_555 1_555
Zn6 N7 1_555 1_555
C7_2 C9_2 1_555 1_555
C11_2 N7 1_555 1_555
N5_2 Zn9 1_555 1_555
C18_2 C20_2 1_555 1_555
N10_2 Zn9 1_555 1_555
N12_2 N13_2 1_555 1_555
O3_2 C8_2 1_555 1_555
O4_2 C8_2 1_555 1_555
Zn6 O4_2 1_555 1_555

#END
