
###############################################################################
#
# This file contains modified crystal structure data generated from the
# MOF subset of the Cambridge Structural Database (CSD) v543 
# hosted by the Cambridge Crystallographic Data Centre (CCDC).
#
# This work is licensed under the Creative Commons
# Attribution-NonCommercial-ShareAlike 4.0 International License.
# To view a copy of this license, visit
# http://creativecommons.org/licenses/by-nc-sa/4.0/
# or send a letter to
# Creative Commons, PO Box 1866, Mountain View, CA 94042, USA.
#
# CIF created using the CSD Python API on 29 September 2022
# The structure has been converted into the P1 space group
# The structure has a 3D framework
# The original CSD entry QAMHIY is in the monoclinic crystal system
# The framework has been calculated to contain at least 10.0% void space
# The void calculation uses a probe of radius 1.32A, grid spacing 0.4
#
###############################################################################

data_QAMHIY
_chemical_formula_moiety         '(C144 H100 N20 O16 Zn4)n'
_symmetry_cell_setting           triclinic
_symmetry_space_group_name_H-M   'P 1'
_symmetry_Int_Tables_number      1
_space_group_name_Hall           'P 1'
loop_
_symmetry_equiv_pos_site_id
_symmetry_equiv_pos_as_xyz
1 x,y,z
_cell_length_a                   12.2467(19)
_cell_length_b                   19.625(3)
_cell_length_c                   13.998(2)
_cell_angle_alpha                90
_cell_angle_beta                 97.063(4)
_cell_angle_gamma                90
_cell_volume                     3338.77
loop_
_atom_site_label
_atom_site_type_symbol
_atom_site_fract_x
_atom_site_fract_y
_atom_site_fract_z
C28 C 0.0163(4) 0.4653(3) 0.6872(4)
H18 H 0.0004 0.4959 0.6367
C29 C 0.0932(7) 0.3870(4) 0.7782(6)
H19 H 0.1410 0.3525 0.8019
C30 C 0.0081(7) 0.4095(4) 0.8209(6)
N5 N 0.0997(4) 0.4221(2) 0.6946(4)
Zn3 Zn 0.22092(4) 0.41341(3) 0.61078(4)
C1 C 0.5729(4) 0.1942(2) 0.8757(4)
C2 C 0.5031(4) 0.1753(3) 0.7965(4)
H1 H 0.4877 0.1293 0.7865
C3 C 0.4539(4) 0.2227(3) 0.7299(4)
H2 H 0.4084 0.2077 0.6759
C4 C 0.4721(4) 0.2910(3) 0.7436(4)
C5 C 0.5497(4) 0.3136(2) 0.8218(4)
C6 C 0.6022(4) 0.2650(3) 0.8885(4)
C7 C 0.6770(6) 0.2903(3) 0.9652(5)
C8 C 0.6987(8) 0.3578(4) 0.9727(6)
C9 C 0.6499(7) 0.4051(3) 0.9042(6)
H5 H 0.6694 0.4509 0.9085
C10 C 0.5763(6) 0.3835(3) 0.8339(5)
H6 H 0.5410 0.4150 0.7911
C11 C 0.6084(4) 0.1400(2) 0.9478(4)
C12 C 0.4095(4) 0.3417(3) 0.6766(4)
O2 O 0.5534(3) 0.08747(18) 0.9510(3)
O3 O 0.4408(4) 0.3556(3) 0.6015(4)
O4 O 0.3250(3) 0.3656(2) 0.7037(3)
C1_2 C 0.0729(4) 0.3058(2) 0.3757(4)
C2_2 C 0.0031(4) 0.3247(3) 0.2965(4)
C5_2 C 0.0497(4) 0.1864(2) 0.3218(4)
C6_2 C 0.1022(4) 0.2350(3) 0.3885(4)
C7_2 C 0.1770(6) 0.2097(3) 0.4652(5)
H3 H 0.2115 0.2397 0.5108
C8_2 C 0.1987(8) 0.1422(4) 0.4727(6)
H4 H 0.2471 0.1265 0.5244
C9_2 C 0.1499(7) 0.0949(3) 0.4042(6)
H5_2 H 0.1694 0.0491 0.4085
C10_2 C 0.0763(6) 0.1165(3) 0.3339(5)
H6_2 H 0.0410 0.0850 0.2911
C11_2 C 0.1084(4) 0.3600(2) 0.4478(4)
C13 C 0.3759(5) 0.5199(3) 0.5550(5)
H7 H 0.4365 0.4920 0.5722
C14 C 0.3794(5) 0.5823(3) 0.5152(5)
H8 H 0.4415 0.6054 0.5005
C15 C 0.2096(4) 0.5556(2) 0.5330(4)
H9 H 0.1336 0.5580 0.5319
C16 C 0.2342(4) 0.6686(3) 0.4562(4)
C17 C 0.2826(5) 0.6938(3) 0.3816(5)
H10 H 0.3395 0.6699 0.3584
C18 C 0.2473(5) 0.7545(3) 0.3407(6)
H11 H 0.2808 0.7716 0.2896
C19 C 0.1629(4) 0.7910(3) 0.3737(5)
C20 C 0.1149(5) 0.7652(3) 0.4496(5)
H12 H 0.0581 0.7891 0.4729
C21 C 0.1501(5) 0.7041(3) 0.4918(5)
H13 H 0.1177 0.6870 0.5435
C22 C 0.2067(5) 0.9033(3) 0.3140(5)
C23 C 0.1980(5) 0.9400(3) 0.2313(5)
H14 H 0.1376 0.9339 0.1849
C24 C 0.2798(5) 0.9869(3) 0.2157(5)
C25 C 0.3691(5) 0.9953(3) 0.2800(5)
C26 C 0.3790(5) 0.9582(3) 0.3644(5)
H16 H 0.4402 0.9639 0.4100
C27 C 0.2979(5) 0.9126(3) 0.3807(5)
H17 H 0.3048 0.8876 0.4377
C31 C 0.0135(5) 0.8693(3) 0.3091(5)
H21 H 0.0208 0.9647 0.3561
N1 N 0.2695(3) 0.5040(2) 0.5662(3)
N2 N 0.2712(4) 0.6050(2) 0.5007(4)
N3 N 0.1273(4) 0.8547(2) 0.3307(5)
O1 O 0.1963(3) 0.3495(2) 0.5060(3)
O2_2 O 0.0534(3) 0.41253(18) 0.4510(3)
H3_2 H 0.7115 0.2603 0.0108
H4_2 H 0.7471 0.3735 0.0244
H7_2 H 0.9365 0.0080 0.0722
O1_2 O 0.6963(3) 0.1505(2) 0.0060(3)
Zn1 Zn 0.72092(4) 0.08659(3) 0.11078(4)
N6 N 0.5997(4) 0.0779(2) 0.1946(4)
O5 O 0.8250(3) 0.1344(2) 0.2037(3)
H15 H 0.2721 0.0128 0.1596
C28_2 C 0.5163(4) 0.0347(3) 0.1872(4)
H18_2 H 0.5004 0.0041 0.1367
C29_2 C 0.5932(7) 0.1130(4) 0.2782(6)
H19_2 H 0.6410 0.1475 0.3019
C30_2 C 0.5081(7) 0.0905(4) 0.3209(6)
H20 H 0.4870 0.1055 0.3789
N4 N 0.4578(4) 0.0405(2) 0.2612(4)
H1_2 H 0.9877 0.3707 0.2865
C3_2 C 0.9539(4) 0.2773(3) 0.2299(4)
H2_2 H 0.9084 0.2923 0.1759
C4_2 C 0.9721(4) 0.2090(3) 0.2436(4)
C12_2 C 0.9095(4) 0.1583(3) 0.1766(4)
C32 C 0.9733(5) 0.9313(3) 0.3283(6)
C33 C 0.8626(6) 0.9458(4) 0.3072(7)
H22 H 0.8355 0.9888 0.3197
C34 C 0.7948(7) 0.8966(6) 0.2683(8)
H23 H 0.7201 0.9057 0.2538
C35 C 0.8330(7) 0.8351(6) 0.2503(7)
H24 H 0.7842 0.8016 0.2249
C36 C 0.9417(6) 0.8206(4) 0.2681(6)
H25 H 0.9677 0.7779 0.2527
O3_2 O 0.9408(4) 0.1444(3) 0.1015(4)
C13_2 C 0.8759(5) 0.9801(3) 0.0550(5)
C14_2 C 0.8794(5) 0.9177(3) 0.0152(5)
H8_2 H 0.9415 0.8946 0.0005
C15_2 C 0.7096(4) 0.9444(2) 0.0330(4)
H9_2 H 0.6336 0.9420 0.0319
H13_2 H 0.6177 0.8130 0.0435
N1_2 N 0.7695(3) 0.9960(2) 0.0662(3)
N2_2 N 0.7712(4) 0.8950(2) 0.0007(4)
C16_2 C 0.7342(4) 0.8314(3) 0.9562(4)
C17_2 C 0.7826(5) 0.8062(3) 0.8816(5)
H10_2 H 0.8395 0.8301 0.8584
C18_2 C 0.7473(5) 0.7455(3) 0.8407(6)
H11_2 H 0.7808 0.7284 0.7896
C19_2 C 0.6629(4) 0.7090(3) 0.8737(5)
C20_2 C 0.6149(5) 0.7348(3) 0.9496(5)
H12_2 H 0.5581 0.7109 0.9729
C21_2 C 0.6501(5) 0.7959(3) 0.9918(5)
C22_2 C 0.7067(5) 0.5967(3) 0.8140(5)
C23_2 C 0.6980(5) 0.5600(3) 0.7313(5)
H14_2 H 0.6376 0.5661 0.6849
C24_2 C 0.7798(5) 0.5131(3) 0.7157(5)
H15_2 H 0.7721 0.4872 0.6596
C25_2 C 0.8691(5) 0.5047(3) 0.7800(5)
C26_2 C 0.8790(5) 0.5418(3) 0.8644(5)
H16_2 H 0.9402 0.5361 0.9100
C27_2 C 0.7979(5) 0.5874(3) 0.8807(5)
H17_2 H 0.8048 0.6124 0.9377
H20_2 H 0.9870 0.3945 0.8789
C31_2 C 0.5135(5) 0.6307(3) 0.8091(5)
C32_2 C 0.4733(5) 0.5687(3) 0.8283(6)
H21_2 H 0.5208 0.5353 0.8561
C33_2 C 0.3626(6) 0.5542(4) 0.8072(7)
H22_2 H 0.3355 0.5112 0.8197
C34_2 C 0.2948(7) 0.6034(6) 0.7683(8)
H23_2 H 0.2201 0.5943 0.7538
C35_2 C 0.3330(7) 0.6649(6) 0.7503(7)
H24_2 H 0.2842 0.6984 0.7249
C36_2 C 0.4417(6) 0.6794(4) 0.7681(6)
H25_2 H 0.4677 0.7221 0.7527
N3_2 N 0.6273(4) 0.6453(2) 0.8307(5)
N4_2 N 0.9578(4) 0.4595(2) 0.7612(4)
H1_3 H 0.0123 0.6293 0.7135
C3_3 C 0.0461(4) 0.7227(3) 0.7701(4)
H2_3 H 0.0916 0.7077 0.8241
C4_3 C 0.0279(4) 0.7910(3) 0.7564(4)
C12_3 C 0.0905(4) 0.8417(3) 0.8234(4)
C32_3 C 0.0267(5) 0.0687(3) 0.6717(6)
C33_3 C 0.1374(6) 0.0542(4) 0.6928(7)
H22_3 H 0.1645 0.0112 0.6803
C34_3 C 0.2052(7) 0.1034(6) 0.7317(8)
H23_3 H 0.2799 0.0943 0.7462
C35_3 C 0.1670(7) 0.1649(6) 0.7497(7)
H24_3 H 0.2158 0.1984 0.7751
C36_3 C 0.0583(6) 0.1794(4) 0.7319(6)
H25_3 H 0.0323 0.2221 0.7473
O3_3 O 0.0592(4) 0.8556(3) 0.8985(4)
O4_2 O 0.1750(3) 0.8656(2) 0.7963(3)
Zn2 Zn 0.27908(4) 0.91341(3) 0.88922(4)
H15_3 H 0.7279 0.9872 0.8404
C28_3 C 0.4837(4) 0.9653(3) 0.8128(4)
H18_3 H 0.4996 0.9959 0.8633
C29_3 C 0.4068(7) 0.8870(4) 0.7218(6)
H19_3 H 0.3590 0.8525 0.6981
C30_3 C 0.4919(7) 0.9095(4) 0.6791(6)
H20_3 H 0.5130 0.8945 0.6211
N4_3 N 0.5422(4) 0.9595(2) 0.7388(4)
N5_2 N 0.4003(4) 0.9221(2) 0.8054(4)
H3_3 H 0.2885 0.7397 0.9892
H4_3 H 0.2529 0.6265 0.9756
H7_3 H 0.0635 0.9920 0.9278
O1_3 O 0.3037(3) 0.8495(2) 0.9940(3)
C1_3 C 0.9271(4) 0.6942(2) 0.6243(4)
C2_3 C 0.9969(4) 0.6753(3) 0.7035(4)
C5_3 C 0.9503(4) 0.8136(2) 0.6782(4)
C6_3 C 0.8978(4) 0.7650(3) 0.6115(4)
C7_3 C 0.8230(6) 0.7903(3) 0.5348(5)
H3_4 H 0.7885 0.7603 0.4892
C8_3 C 0.8013(8) 0.8578(4) 0.5273(6)
H4_4 H 0.7529 0.8735 0.4756
C9_3 C 0.8501(7) 0.9051(3) 0.5958(6)
H5_3 H 0.8306 0.9509 0.5915
C10_3 C 0.9237(6) 0.8835(3) 0.6661(5)
H6_3 H 0.9590 0.9150 0.7089
C11_3 C 0.8916(4) 0.6400(2) 0.5522(4)
C13_3 C 0.6241(5) 0.4801(3) 0.4450(5)
H7_4 H 0.5635 0.5080 0.4278
C14_3 C 0.6206(5) 0.4177(3) 0.4848(5)
H8_3 H 0.5585 0.3946 0.4995
C15_3 C 0.7904(4) 0.4444(2) 0.4670(4)
H9_3 H 0.8664 0.4420 0.4681
C16_3 C 0.7658(4) 0.3314(3) 0.5438(4)
C17_3 C 0.7174(5) 0.3062(3) 0.6184(5)
H10_3 H 0.6605 0.3301 0.6416
C18_3 C 0.7527(5) 0.2455(3) 0.6593(6)
H11_3 H 0.7192 0.2284 0.7104
C19_3 C 0.8371(4) 0.2090(3) 0.6263(5)
C20_3 C 0.8851(5) 0.2348(3) 0.5504(5)
H12_3 H 0.9419 0.2109 0.5271
C21_3 C 0.8499(5) 0.2959(3) 0.5082(5)
H13_3 H 0.8823 0.3130 0.4565
C22_3 C 0.7933(5) 0.0967(3) 0.6860(5)
C23_3 C 0.8020(5) 0.0600(3) 0.7687(5)
H14_3 H 0.8624 0.0661 0.8151
C24_3 C 0.7202(5) 0.0131(3) 0.7843(5)
C25_3 C 0.6309(5) 0.0047(3) 0.7200(5)
C26_3 C 0.6210(5) 0.0418(3) 0.6356(5)
H16_3 H 0.5598 0.0361 0.5900
C27_3 C 0.7021(5) 0.0874(3) 0.6193(5)
H17_3 H 0.6952 0.1124 0.5623
C31_3 C 0.9865(5) 0.1307(3) 0.6909(5)
H21_3 H 0.9792 0.0353 0.6439
N1_3 N 0.7305(3) 0.4960(2) 0.4338(3)
N2_3 N 0.7288(4) 0.3950(2) 0.4993(4)
N3_3 N 0.8727(4) 0.1453(2) 0.6693(5)
O1_4 O 0.8037(3) 0.6505(2) 0.4940(3)
O2_3 O 0.9466(3) 0.58747(18) 0.5490(3)
Zn1_2 Zn 0.77908(4) 0.58659(3) 0.38922(4)
N6_2 N 0.9003(4) 0.5779(2) 0.3054(4)
O5_2 O 0.6750(3) 0.6344(2) 0.2963(3)
C1_4 C 0.4271(4) 0.8058(2) 0.1243(4)
C2_4 C 0.4969(4) 0.8247(3) 0.2035(4)
H1_4 H 0.5123 0.8707 0.2135
C3_4 C 0.5461(4) 0.7773(3) 0.2701(4)
H2_4 H 0.5916 0.7923 0.3241
C4_4 C 0.5279(4) 0.7090(3) 0.2564(4)
C5_4 C 0.4503(4) 0.6864(2) 0.1782(4)
C6_4 C 0.3978(4) 0.7350(3) 0.1115(4)
C7_4 C 0.3230(6) 0.7097(3) 0.0348(5)
C8_4 C 0.3013(8) 0.6422(4) 0.0273(6)
C9_4 C 0.3501(7) 0.5949(3) 0.0958(6)
H5_4 H 0.3306 0.5491 0.0915
C10_4 C 0.4237(6) 0.6165(3) 0.1661(5)
H6_4 H 0.4590 0.5850 0.2089
C11_4 C 0.3916(4) 0.8600(2) 0.0522(4)
C12_4 C 0.5905(4) 0.6583(3) 0.3234(4)
O2_4 O 0.4466(3) 0.91253(18) 0.0490(3)
O3_4 O 0.5592(4) 0.6444(3) 0.3985(4)
C28_4 C 0.9837(4) 0.5347(3) 0.3128(4)
H18_4 H 0.9996 0.5041 0.3633
C29_4 C 0.9068(7) 0.6130(4) 0.2218(6)
H19_4 H 0.8590 0.6475 0.1981
C30_4 C 0.9919(7) 0.5905(4) 0.1791(6)
C16_4 C 0.2658(4) 0.1686(3) 0.0438(4)
C17_4 C 0.2174(5) 0.1938(3) 0.1184(5)
H10_4 H 0.1605 0.1699 0.1416
C18_4 C 0.2527(5) 0.2545(3) 0.1593(6)
H11_4 H 0.2192 0.2716 0.2104
C19_4 C 0.3371(4) 0.2910(3) 0.1263(5)
C20_4 C 0.3851(5) 0.2652(3) 0.0504(5)
H12_4 H 0.4419 0.2891 0.0271
C21_4 C 0.3499(5) 0.2041(3) 0.0082(5)
C22_4 C 0.2933(5) 0.4033(3) 0.1860(5)
C23_4 C 0.3020(5) 0.4400(3) 0.2687(5)
H14_4 H 0.3624 0.4339 0.3151
C24_4 C 0.2202(5) 0.4869(3) 0.2843(5)
H15_4 H 0.2279 0.5128 0.3404
C25_4 C 0.1309(5) 0.4953(3) 0.2200(5)
C26_4 C 0.1210(5) 0.4582(3) 0.1356(5)
H16_4 H 0.0598 0.4639 0.0900
C27_4 C 0.2021(5) 0.4126(3) 0.1193(5)
H17_4 H 0.1952 0.3876 0.0623
H20_4 H 0.0130 0.6055 0.1211
C31_4 C 0.4865(5) 0.3693(3) 0.1909(5)
C32_4 C 0.5267(5) 0.4313(3) 0.1717(6)
H21_4 H 0.4792 0.4647 0.1439
C33_4 C 0.6374(6) 0.4458(4) 0.1928(7)
H22_4 H 0.6645 0.4888 0.1803
C34_4 C 0.7052(7) 0.3966(6) 0.2317(8)
H23_4 H 0.7799 0.4057 0.2462
C35_4 C 0.6670(7) 0.3351(6) 0.2497(7)
H24_4 H 0.7158 0.3016 0.2751
C36_4 C 0.5583(6) 0.3206(4) 0.2319(6)
H25_4 H 0.5323 0.2779 0.2473
N3_4 N 0.3727(4) 0.3547(2) 0.1693(5)
N4_4 N 0.0422(4) 0.5405(2) 0.2388(4)
C13_4 C 0.1241(5) 0.0199(3) 0.9450(5)
C14_4 C 0.1206(5) 0.0823(3) 0.9848(5)
H8_4 H 0.0585 0.1054 0.9995
C15_4 C 0.2904(4) 0.0556(2) 0.9670(4)
H9_4 H 0.3664 0.0580 0.9681
H13_4 H 0.3823 0.1870 0.9565
N1_4 N 0.2305(3) 0.0040(2) 0.9338(3)
N2_4 N 0.2288(4) 0.1050(2) 0.9993(4)
loop_
_geom_bond_atom_site_label_1
_geom_bond_atom_site_label_2
_geom_bond_site_symmetry_1
_geom_bond_site_symmetry_2
C28 H18 1_555 1_555
C29 H19 1_555 1_555
C30 C29 1_555 1_555
N5 C28 1_555 1_555
Zn3 N5 1_555 1_555
C29 N5 1_555 1_555
C1 C2 1_555 1_555
C2 H1 1_555 1_555
C3 C2 1_555 1_555
H2 C3 1_555 1_555
C4 C3 1_555 1_555
C5 C4 1_555 1_555
C6 C1 1_555 1_555
C7 C6 1_555 1_555
C8 C7 1_555 1_555
C9 C8 1_555 1_555
H5 C9 1_555 1_555
C10 C5 1_555 1_555
H6 C10 1_555 1_555
C11 C1 1_555 1_555
C12 C4 1_555 1_555
O2 C11 1_555 1_555
O3 C12 1_555 1_555
O4 C12 1_555 1_555
Zn3 O4 1_555 1_555
C5 C6 1_555 1_555
C9 C10 1_555 1_555
C1_2 C2_2 1_555 1_555
C6_2 C1_2 1_555 1_555
C7_2 C6_2 1_555 1_555
H3 C7_2 1_555 1_555
C8_2 C7_2 1_555 1_555
H4 C8_2 1_555 1_555
C9_2 C8_2 1_555 1_555
H5_2 C9_2 1_555 1_555
C10_2 C5_2 1_555 1_555
H6_2 C10_2 1_555 1_555
C11_2 C1_2 1_555 1_555
C13 H7 1_555 1_555
C14 C13 1_555 1_555
H8 C14 1_555 1_555
C15 H9 1_555 1_555
C16 C17 1_555 1_555
C17 H10 1_555 1_555
C18 C17 1_555 1_555
H11 C18 1_555 1_555
C19 C18 1_555 1_555
C20 C19 1_555 1_555
H12 C20 1_555 1_555
C21 C16 1_555 1_555
H13 C21 1_555 1_555
C22 C23 1_555 1_555
C23 H14 1_555 1_555
C24 C23 1_555 1_555
C25 C24 1_555 1_555
C26 C25 1_555 1_555
H16 C26 1_555 1_555
C27 C22 1_555 1_555
H17 C27 1_555 1_555
N1 C13 1_555 1_555
N2 C14 1_555 1_555
N3 C19 1_555 1_555
O1 C11_2 1_555 1_555
O2_2 C11_2 1_555 1_555
Zn3 N1 1_555 1_555
C5_2 C6_2 1_555 1_555
C9_2 C10_2 1_555 1_555
C15 N1 1_555 1_555
C15 N2 1_555 1_555
C16 N2 1_555 1_555
C20 C21 1_555 1_555
C22 N3 1_555 1_555
C26 C27 1_555 1_555
C31 N3 1_555 1_555
O1 Zn3 1_555 1_555
N6 Zn1 1_555 1_555
O5 Zn1 1_555 1_555
O1_2 Zn1 1_555 1_555
C28_2 H18_2 1_555 1_555
C29_2 H19_2 1_555 1_555
C30_2 C29_2 1_555 1_555
H20 C30_2 1_555 1_555
N6 C28_2 1_555 1_555
C28_2 N4 1_555 1_555
C29_2 N6 1_555 1_555
C30_2 N4 1_555 1_555
H2_2 C3_2 1_555 1_555
C4_2 C3_2 1_555 1_555
C12_2 C4_2 1_555 1_555
C33 C32 1_555 1_555
H22 C33 1_555 1_555
C34 C33 1_555 1_555
H23 C34 1_555 1_555
C35 C34 1_555 1_555
H24 C35 1_555 1_555
H25 C36 1_555 1_555
O3_2 C12_2 1_555 1_555
O5 C12_2 1_555 1_555
C35 C36 1_555 1_555
C14_2 C13_2 1_555 1_555
H8_2 C14_2 1_555 1_555
C15_2 H9_2 1_555 1_555
N1_2 C13_2 1_555 1_555
N2_2 C14_2 1_555 1_555
C15_2 N1_2 1_555 1_555
C15_2 N2_2 1_555 1_555
C16_2 C17_2 1_555 1_555
C17_2 H10_2 1_555 1_555
C18_2 C17_2 1_555 1_555
H11_2 C18_2 1_555 1_555
C19_2 C18_2 1_555 1_555
C20_2 C19_2 1_555 1_555
H12_2 C20_2 1_555 1_555
C21_2 C16_2 1_555 1_555
C22_2 C23_2 1_555 1_555
C23_2 H14_2 1_555 1_555
C24_2 C23_2 1_555 1_555
H15_2 C24_2 1_555 1_555
C25_2 C24_2 1_555 1_555
C26_2 C25_2 1_555 1_555
H16_2 C26_2 1_555 1_555
C27_2 C22_2 1_555 1_555
H17_2 C27_2 1_555 1_555
C31_2 C32_2 1_555 1_555
C32_2 H21_2 1_555 1_555
C33_2 C32_2 1_555 1_555
H22_2 C33_2 1_555 1_555
C34_2 C33_2 1_555 1_555
H23_2 C34_2 1_555 1_555
C35_2 C34_2 1_555 1_555
H24_2 C35_2 1_555 1_555
C36_2 C31_2 1_555 1_555
H25_2 C36_2 1_555 1_555
N3_2 C19_2 1_555 1_555
N4_2 C25_2 1_555 1_555
C20_2 C21_2 1_555 1_555
C22_2 N3_2 1_555 1_555
C26_2 C27_2 1_555 1_555
C31_2 N3_2 1_555 1_555
C35_2 C36_2 1_555 1_555
H2_3 C3_3 1_555 1_555
C4_3 C3_3 1_555 1_555
C12_3 C4_3 1_555 1_555
C33_3 C32_3 1_555 1_555
H22_3 C33_3 1_555 1_555
C34_3 C33_3 1_555 1_555
H23_3 C34_3 1_555 1_555
C35_3 C34_3 1_555 1_555
H24_3 C35_3 1_555 1_555
H25_3 C36_3 1_555 1_555
O3_3 C12_3 1_555 1_555
O4_2 C12_3 1_555 1_555
Zn2 O4_2 1_555 1_555
C35_3 C36_3 1_555 1_555
C28_3 H18_3 1_555 1_555
C29_3 H19_3 1_555 1_555
C30_3 C29_3 1_555 1_555
H20_3 C30_3 1_555 1_555
N5_2 C28_3 1_555 1_555
Zn2 N5_2 1_555 1_555
C28_3 N4_3 1_555 1_555
C29_3 N5_2 1_555 1_555
C30_3 N4_3 1_555 1_555
O1_3 Zn2 1_555 1_555
C1_3 C2_3 1_555 1_555
C6_3 C1_3 1_555 1_555
C7_3 C6_3 1_555 1_555
H3_4 C7_3 1_555 1_555
C8_3 C7_3 1_555 1_555
H4_4 C8_3 1_555 1_555
C9_3 C8_3 1_555 1_555
H5_3 C9_3 1_555 1_555
C10_3 C5_3 1_555 1_555
H6_3 C10_3 1_555 1_555
C11_3 C1_3 1_555 1_555
C13_3 H7_4 1_555 1_555
C14_3 C13_3 1_555 1_555
H8_3 C14_3 1_555 1_555
C15_3 H9_3 1_555 1_555
C16_3 C17_3 1_555 1_555
C17_3 H10_3 1_555 1_555
C18_3 C17_3 1_555 1_555
H11_3 C18_3 1_555 1_555
C19_3 C18_3 1_555 1_555
C20_3 C19_3 1_555 1_555
H12_3 C20_3 1_555 1_555
C21_3 C16_3 1_555 1_555
H13_3 C21_3 1_555 1_555
C22_3 C23_3 1_555 1_555
C23_3 H14_3 1_555 1_555
C24_3 C23_3 1_555 1_555
C25_3 C24_3 1_555 1_555
C26_3 C25_3 1_555 1_555
H16_3 C26_3 1_555 1_555
C27_3 C22_3 1_555 1_555
H17_3 C27_3 1_555 1_555
N1_3 C13_3 1_555 1_555
N2_3 C14_3 1_555 1_555
N3_3 C19_3 1_555 1_555
O1_4 C11_3 1_555 1_555
O2_3 C11_3 1_555 1_555
Zn1_2 N1_3 1_555 1_555
N6_2 Zn1_2 1_555 1_555
O5_2 Zn1_2 1_555 1_555
C5_3 C6_3 1_555 1_555
C9_3 C10_3 1_555 1_555
C15_3 N1_3 1_555 1_555
C15_3 N2_3 1_555 1_555
C16_3 N2_3 1_555 1_555
C20_3 C21_3 1_555 1_555
C22_3 N3_3 1_555 1_555
C26_3 C27_3 1_555 1_555
C31_3 N3_3 1_555 1_555
O1_4 Zn1_2 1_555 1_555
C1_4 C2_4 1_555 1_555
C2_4 H1_4 1_555 1_555
C3_4 C2_4 1_555 1_555
H2_4 C3_4 1_555 1_555
C4_4 C3_4 1_555 1_555
C5_4 C4_4 1_555 1_555
C6_4 C1_4 1_555 1_555
C7_4 C6_4 1_555 1_555
C8_4 C7_4 1_555 1_555
C9_4 C8_4 1_555 1_555
H5_4 C9_4 1_555 1_555
C10_4 C5_4 1_555 1_555
H6_4 C10_4 1_555 1_555
C11_4 C1_4 1_555 1_555
C12_4 C4_4 1_555 1_555
O2_4 C11_4 1_555 1_555
O3_4 C12_4 1_555 1_555
O5_2 C12_4 1_555 1_555
C5_4 C6_4 1_555 1_555
C9_4 C10_4 1_555 1_555
C28_4 H18_4 1_555 1_555
C29_4 H19_4 1_555 1_555
C30_4 C29_4 1_555 1_555
N6_2 C28_4 1_555 1_555
C29_4 N6_2 1_555 1_555
C16_4 C17_4 1_555 1_555
C17_4 H10_4 1_555 1_555
C18_4 C17_4 1_555 1_555
H11_4 C18_4 1_555 1_555
C19_4 C18_4 1_555 1_555
C20_4 C19_4 1_555 1_555
H12_4 C20_4 1_555 1_555
C21_4 C16_4 1_555 1_555
C22_4 C23_4 1_555 1_555
C23_4 H14_4 1_555 1_555
C24_4 C23_4 1_555 1_555
H15_4 C24_4 1_555 1_555
C25_4 C24_4 1_555 1_555
C26_4 C25_4 1_555 1_555
H16_4 C26_4 1_555 1_555
C27_4 C22_4 1_555 1_555
H17_4 C27_4 1_555 1_555
C31_4 C32_4 1_555 1_555
C32_4 H21_4 1_555 1_555
C33_4 C32_4 1_555 1_555
H22_4 C33_4 1_555 1_555
C34_4 C33_4 1_555 1_555
H23_4 C34_4 1_555 1_555
C35_4 C34_4 1_555 1_555
H24_4 C35_4 1_555 1_555
C36_4 C31_4 1_555 1_555
H25_4 C36_4 1_555 1_555
N3_4 C19_4 1_555 1_555
N4_4 C25_4 1_555 1_555
C20_4 C21_4 1_555 1_555
C22_4 N3_4 1_555 1_555
C26_4 C27_4 1_555 1_555
C31_4 N3_4 1_555 1_555
C35_4 C36_4 1_555 1_555
C14_4 C13_4 1_555 1_555
H8_4 C14_4 1_555 1_555
C15_4 H9_4 1_555 1_555
N1_4 C13_4 1_555 1_555
N2_4 C14_4 1_555 1_555
C15_4 N1_4 1_555 1_555
C15_4 N2_4 1_555 1_555

#END
