
###############################################################################
#
# This file contains modified crystal structure data generated from the
# MOF subset of the Cambridge Structural Database (CSD) v543 
# hosted by the Cambridge Crystallographic Data Centre (CCDC).
#
# This work is licensed under the Creative Commons
# Attribution-NonCommercial-ShareAlike 4.0 International License.
# To view a copy of this license, visit
# http://creativecommons.org/licenses/by-nc-sa/4.0/
# or send a letter to
# Creative Commons, PO Box 1866, Mountain View, CA 94042, USA.
#
# CIF created using the CSD Python API on 29 September 2022
# The structure has been converted into the P1 space group
# The structure has a 3D framework
# The original CSD entry QAMXIL is in the orthorhombic crystal system
# The framework has been calculated to contain at least 10.0% void space
# The void calculation uses a probe of radius 1.32A, grid spacing 0.4
#
###############################################################################

data_QAMXIL
_chemical_formula_moiety         '(C40 H24 Cu11 Hg4 I8 N16 O16)n'
_symmetry_cell_setting           triclinic
_symmetry_space_group_name_H-M   'P 1'
_symmetry_Int_Tables_number      1
_space_group_name_Hall           'P 1'
loop_
_symmetry_equiv_pos_site_id
_symmetry_equiv_pos_as_xyz
1 x,y,z
_cell_length_a                   10.450(2)
_cell_length_b                   19.989(4)
_cell_length_c                   10.011(2)
_cell_angle_alpha                90
_cell_angle_beta                 90
_cell_angle_gamma                90
_cell_volume                     2091.15
loop_
_atom_site_label
_atom_site_type_symbol
_atom_site_fract_x
_atom_site_fract_y
_atom_site_fract_z
Cu1 Cu 0.0000 0.5000 0.0000
C1 C 0.1801(12) 0.5504(7) 0.1803(13)
C2 C 0.2747(13) 0.5546(7) 0.2707(13)
H1 H 0.3024 0.5966 0.2982
C3 C 0.2877(13) 0.4424(7) 0.2795(14)
H2 H 0.3243 0.4038 0.3145
C4 C 0.1925(13) 0.4359(7) 0.1864(14)
H3 H 0.1658 0.3938 0.1587
C5 C 0.1175(12) 0.6095(7) 0.1138(13)
N1 N 0.1379(9) 0.4914(5) 0.1353(10)
N2 N 0.3296(11) 0.5007(5) 0.3216(12)
O1 O 0.0294(9) 0.5949(5) 0.0260(9)
O2 O 0.1537(9) 0.6650(5) 0.1385(11)
O4 O 0.1537(9) 0.8350(5) 0.1385(11)
Cu2 Cu 0.5000 0.5000 0.5000
Cu1_2 Cu -0.0000 0.5000 1.0000
Hg1 Hg 0.04067(9) 0.7500 0.99277(8)
I1 I 0.19741(16) 0.7500 0.78682(16)
N4 N 0.1704(11) 0.4993(5) 0.8216(12)
Cu1_3 Cu 1.0000 0.5000 0.0000
I2 I 0.82566(15) 0.7500 0.12407(19)
N5 N 0.8296(11) 0.5007(5) 0.1784(12)
Hg2 Hg 0.95933(9) 0.2500 0.00723(8)
Cu1_4 Cu 1.0000 0.5000 1.0000
N3 N 0.8621(9) 0.5086(5) 0.8647(10)
O3 O 0.9706(9) 0.4051(5) 0.9740(9)
C6 C 0.8199(12) 0.4496(7) 0.8197(13)
C7 C 0.8075(13) 0.5641(7) 0.8136(14)
C8 C 0.8825(12) 0.3905(7) 0.8862(13)
C9 C 0.7253(13) 0.4454(7) 0.7293(13)
C10 C 0.7123(13) 0.5576(7) 0.7205(14)
H4 H 0.8342 0.6062 0.8413
O5 O 0.8463(9) 0.3350(5) 0.8615(11)
H5 H 0.6976 0.4034 0.7018
N6 N 0.6704(11) 0.4993(5) 0.6784(12)
H6 H 0.6757 0.5962 0.6855
C1_2 C 0.6801(12) 0.5504(7) 0.3197(13)
C2_2 C 0.7747(13) 0.5546(7) 0.2293(13)
H1_2 H 0.8024 0.5966 0.2018
C3_2 C 0.7877(13) 0.4424(7) 0.2205(14)
H2_2 H 0.8243 0.4038 0.1855
C4_2 C 0.6925(13) 0.4359(7) 0.3136(14)
H3_2 H 0.6658 0.3938 0.3413
C5_2 C 0.6175(12) 0.6095(7) 0.3862(13)
N1_2 N 0.6379(9) 0.4914(5) 0.3647(10)
O1_2 O 0.5294(9) 0.5949(5) 0.4740(9)
O2_2 O 0.6537(9) 0.6650(5) 0.3615(11)
Hg1_2 Hg 0.54067(9) 0.7500 0.50723(8)
I1_2 I 0.69741(16) 0.7500 0.71318(16)
I2_2 I 0.32566(15) 0.7500 0.37593(19)
N3_2 N 0.3621(9) 0.5086(5) 0.6353(10)
O3_2 O 0.4706(9) 0.4051(5) 0.5260(9)
O4_2 O 0.6537(9) 0.8350(5) 0.3615(11)
C6_2 C 0.3199(12) 0.4496(7) 0.6803(13)
C7_2 C 0.3075(13) 0.5641(7) 0.6864(14)
C8_2 C 0.3825(12) 0.3905(7) 0.6138(13)
C9_2 C 0.2253(13) 0.4454(7) 0.7707(13)
C10_2 C 0.2123(13) 0.5576(7) 0.7795(14)
H4_2 H 0.3342 0.6062 0.6587
O5_2 O 0.3463(9) 0.3350(5) 0.6385(11)
H5_2 H 0.1976 0.4034 0.7982
H6_2 H 0.1757 0.5962 0.8145
Hg2_2 Hg 0.45933(9) 0.2500 0.49277(8)
Cu1_5 Cu 0.0000 -0.0000 0.0000
C3_3 C 0.2877(13) 0.0576(7) 0.2795(14)
H2_3 H 0.3243 0.0962 0.3145
C4_3 C 0.1925(13) 0.0641(7) 0.1864(14)
H3_3 H 0.1658 0.1062 0.1587
N1_3 N 0.1379(9) 0.0086(5) 0.1353(10)
Cu2_2 Cu 0.5000 -0.0000 0.5000
Cu1_6 Cu -0.0000 -0.0000 1.0000
N4_2 N 0.1704(11) 0.0007(5) 0.8216(12)
Cu1_7 Cu 0.0000 1.0000 0.0000
C1_3 C 0.1801(12) 0.9496(7) 0.1803(13)
C2_3 C 0.2747(13) 0.9454(7) 0.2707(13)
H1_3 H 0.3024 0.9034 0.2982
C5_3 C 0.1175(12) 0.8905(7) 0.1138(13)
N2_2 N 0.3296(11) 0.9993(5) 0.3216(12)
O1_3 O 0.0294(9) 0.9051(5) 0.0260(9)
Cu2_3 Cu 0.5000 1.0000 0.5000
Cu1_8 Cu 0.0000 1.0000 1.0000
Cu1_9 Cu 1.0000 -0.0000 0.0000
Cu1_10 Cu 1.0000 -0.0000 1.0000
O3_3 O 0.9706(9) 0.0949(5) 0.9740(9)
C6_3 C 0.8199(12) 0.0504(7) 0.8197(13)
C8_3 C 0.8825(12) 0.1095(7) 0.8862(13)
C9_3 C 0.7253(13) 0.0546(7) 0.7293(13)
O5_3 O 0.8463(9) 0.1650(5) 0.8615(11)
H5_3 H 0.6976 0.0966 0.7018
N6_2 N 0.6704(11) 0.0007(5) 0.6784(12)
Cu1_11 Cu 1.0000 1.0000 0.0000
N5_2 N 0.8296(11) 0.9993(5) 0.1784(12)
Cu1_12 Cu 1.0000 1.0000 1.0000
N3_3 N 0.8621(9) 0.9914(5) 0.8647(10)
C7_3 C 0.8075(13) 0.9359(7) 0.8136(14)
C10_3 C 0.7123(13) 0.9424(7) 0.7205(14)
H4_3 H 0.8342 0.8938 0.8413
H6_3 H 0.6757 0.9038 0.6855
C1_4 C 0.3199(12) 0.0504(7) 0.6803(13)
C2_4 C 0.2253(13) 0.0546(7) 0.7707(13)
H1_4 H 0.1976 0.0966 0.7982
C5_4 C 0.3825(12) 0.1095(7) 0.6138(13)
O1_4 O 0.4706(9) 0.0949(5) 0.5260(9)
O2_3 O 0.3463(9) 0.1650(5) 0.6385(11)
I1_3 I 0.30259(16) 0.2500 0.28682(16)
I2_3 I 0.67434(15) 0.2500 0.62407(19)
N3_4 N 0.6379(9) 0.0086(5) 0.3647(10)
C7_4 C 0.6925(13) 0.0641(7) 0.3136(14)
C10_4 C 0.7877(13) 0.0576(7) 0.2205(14)
H4_4 H 0.6658 0.1062 0.3413
H6_4 H 0.8243 0.0962 0.1855
C3_4 C 0.2123(13) 0.9424(7) 0.7795(14)
H2_4 H 0.1757 0.9038 0.8145
C4_4 C 0.3075(13) 0.9359(7) 0.6864(14)
H3_4 H 0.3342 0.8938 0.6587
N1_4 N 0.3621(9) 0.9914(5) 0.6353(10)
O3_4 O 0.5294(9) 0.9051(5) 0.4740(9)
C6_4 C 0.6801(12) 0.9496(7) 0.3197(13)
C8_4 C 0.6175(12) 0.8905(7) 0.3862(13)
C9_4 C 0.7747(13) 0.9454(7) 0.2293(13)
H5_4 H 0.8024 0.9034 0.2018
I2_4 I 0.17434(15) 0.2500 0.87593(19)
I1_4 I 0.80259(16) 0.2500 0.21318(16)
loop_
_geom_bond_atom_site_label_1
_geom_bond_atom_site_label_2
_geom_bond_site_symmetry_1
_geom_bond_site_symmetry_2
Cu1 N1 1_555 1_555
C1 C2 1_555 1_555
C2 H1 1_555 1_555
C3 H2 1_555 1_555
C4 C3 1_555 1_555
H3 C4 1_555 1_555
C5 C1 1_555 1_555
N1 C1 1_555 1_555
N2 C2 1_555 1_555
O1 Cu1 1_555 1_555
O2 C5 1_555 1_555
Cu2 N2 1_555 1_555
C3 N2 1_555 1_555
C4 N1 1_555 1_555
C5 O1 1_555 1_555
I1 Hg1 1_555 1_555
N4 Cu1_2 1_555 1_555
N5 Cu1_3 1_555 1_555
N3 Cu1_4 1_555 1_555
O3 Cu1_4 1_555 1_555
C6 N3 1_555 1_555
C7 N3 1_555 1_555
C8 O3 1_555 1_555
C9 C6 1_555 1_555
C10 C7 1_555 1_555
H4 C7 1_555 1_555
O5 C8 1_555 1_555
H5 C9 1_555 1_555
N6 C9 1_555 1_555
H6 C10 1_555 1_555
Cu2 N6 1_555 1_555
C6 C8 1_555 1_555
C10 N6 1_555 1_555
Cu2 N1_2 1_555 1_555
C1_2 C2_2 1_555 1_555
C2_2 H1_2 1_555 1_555
C3_2 H2_2 1_555 1_555
C4_2 C3_2 1_555 1_555
H3_2 C4_2 1_555 1_555
C5_2 C1_2 1_555 1_555
N1_2 C1_2 1_555 1_555
N5 C2_2 1_555 1_555
O1_2 Cu2 1_555 1_555
O2_2 C5_2 1_555 1_555
Hg1_2 O2_2 1_555 1_555
I1_2 Hg1_2 1_555 1_555
I2_2 Hg1_2 1_555 1_555
N3_2 Cu2 1_555 1_555
O3_2 Cu2 1_555 1_555
O4_2 Hg1_2 1_555 1_555
C6_2 N3_2 1_555 1_555
C7_2 N3_2 1_555 1_555
C8_2 O3_2 1_555 1_555
C9_2 C6_2 1_555 1_555
C10_2 C7_2 1_555 1_555
H4_2 C7_2 1_555 1_555
O5_2 C8_2 1_555 1_555
H5_2 C9_2 1_555 1_555
N4 C9_2 1_555 1_555
H6_2 C10_2 1_555 1_555
Hg2_2 O5_2 1_555 1_555
C3_2 N5 1_555 1_555
C4_2 N1_2 1_555 1_555
C5_2 O1_2 1_555 1_555
C6_2 C8_2 1_555 1_555
C10_2 N4 1_555 1_555
Cu1_5 N1_3 1_555 1_555
C3_3 H2_3 1_555 1_555
C4_3 C3_3 1_555 1_555
H3_3 C4_3 1_555 1_555
C4_3 N1_3 1_555 1_555
N4_2 Cu1_6 1_555 1_555
C1_3 C2_3 1_555 1_555
C2_3 H1_3 1_555 1_555
C5_3 C1_3 1_555 1_555
N2_2 C2_3 1_555 1_555
O1_3 Cu1_7 1_555 1_555
O4 C5_3 1_555 1_555
Cu2_3 N2_2 1_555 1_555
C5_3 O1_3 1_555 1_555
O3_3 Cu1_10 1_555 1_555
C8_3 O3_3 1_555 1_555
C9_3 C6_3 1_555 1_555
O5_3 C8_3 1_555 1_555
H5_3 C9_3 1_555 1_555
N6_2 C9_3 1_555 1_555
Cu2_2 N6_2 1_555 1_555
C6_3 C8_3 1_555 1_555
N5_2 Cu1_11 1_555 1_555
N3_3 Cu1_12 1_555 1_555
C7_3 N3_3 1_555 1_555
C10_3 C7_3 1_555 1_555
H4_3 C7_3 1_555 1_555
H6_3 C10_3 1_555 1_555
C1_4 C2_4 1_555 1_555
C2_4 H1_4 1_555 1_555
C5_4 C1_4 1_555 1_555
N4_2 C2_4 1_555 1_555
O1_4 Cu2_2 1_555 1_555
O2_3 C5_4 1_555 1_555
Hg2_2 O2_3 1_555 1_555
I1_3 Hg2_2 1_555 1_555
I2_3 Hg2_2 1_555 1_555
N3_4 Cu2_2 1_555 1_555
C7_4 N3_4 1_555 1_555
C10_4 C7_4 1_555 1_555
H4_4 C7_4 1_555 1_555
H6_4 C10_4 1_555 1_555
C5_4 O1_4 1_555 1_555
Cu2_3 N1_4 1_555 1_555
C3_4 H2_4 1_555 1_555
C4_4 C3_4 1_555 1_555
H3_4 C4_4 1_555 1_555
O3_4 Cu2_3 1_555 1_555
C8_4 O3_4 1_555 1_555
C9_4 C6_4 1_555 1_555
O4_2 C8_4 1_555 1_555
H5_4 C9_4 1_555 1_555
N5_2 C9_4 1_555 1_555
C4_4 N1_4 1_555 1_555
C6_4 C8_4 1_555 1_555
I1_4 Hg2 1_555 1_555

#END
