
###############################################################################
#
# This file contains modified crystal structure data generated from the
# MOF subset of the Cambridge Structural Database (CSD) v543 
# hosted by the Cambridge Crystallographic Data Centre (CCDC).
#
# This work is licensed under the Creative Commons
# Attribution-NonCommercial-ShareAlike 4.0 International License.
# To view a copy of this license, visit
# http://creativecommons.org/licenses/by-nc-sa/4.0/
# or send a letter to
# Creative Commons, PO Box 1866, Mountain View, CA 94042, USA.
#
# CIF created using the CSD Python API on 29 September 2022
# The structure has been converted into the P1 space group
# The structure has a 3D framework
# The original CSD entry QANTUY is in the triclinic crystal system
# The framework has been calculated to contain at least 10.0% void space
# The void calculation uses a probe of radius 1.32A, grid spacing 0.4
#
###############################################################################

data_QANTUY
_chemical_formula_moiety         '(C44 H28 F6 N4 O8 Si1 Zn2)n'
_symmetry_cell_setting           triclinic
_symmetry_space_group_name_H-M   'P 1'
_symmetry_Int_Tables_number      1
_space_group_name_Hall           'P 1'
loop_
_symmetry_equiv_pos_site_id
_symmetry_equiv_pos_as_xyz
1 x,y,z
_cell_length_a                   7.7996(4)
_cell_length_b                   11.1030(5)
_cell_length_c                   13.5616(7)
_cell_angle_alpha                85.018(2)
_cell_angle_beta                 74.024(2)
_cell_angle_gamma                83.203(2)
_cell_volume                     1119.31
loop_
_atom_site_label
_atom_site_type_symbol
_atom_site_fract_x
_atom_site_fract_y
_atom_site_fract_z
C34 C 0.0458(5) 0.6940(3) 0.6375(3)
H22 H 0.1684 0.6680 0.6078
C35 C 0.0030(5) 0.7793(4) 0.7120(3)
H23 H 0.0952 0.8128 0.7309
Zn4 Zn 0.0000 0.5000 0.5000
N4 N 0.9206(4) 0.6470(3) 0.6058(2)
C36 C 0.8263(5) 0.8145(4) 0.7581(3)
H24 H 0.7937 0.8692 0.8118
C37 C 0.6965(4) 0.7682(3) 0.7239(3)
C38 C 0.7488(5) 0.6862(3) 0.6474(3)
H25 H 0.6591 0.6566 0.6233
C39 C 0.5013(5) 0.8038(4) 0.7652(3)
O7 O 0.3915(4) 0.7972(4) 0.7204(3)
O8 O 0.4656(3) 0.8460(2) 0.8601(2)
C40 C 0.2855(4) 0.8839(3) 0.9087(3)
C43 C 0.1577(5) 0.7989(3) 0.9348(3)
H27 H 0.1914 0.7166 0.9179
Zn4_2 Zn 1.0000 0.5000 0.5000
C4 C 0.0548(6) 0.1969(4) 0.7226(4)
H3 H 0.1478 0.1364 0.7304
C5 C 0.0856(5) 0.2851(4) 0.6425(3)
H4 H 0.2019 0.2846 0.5963
N2 N 0.0794(4) 0.3530(3) 0.3942(2)
C14 C 0.1737(5) 0.1855(4) 0.2419(3)
H10 H 0.2063 0.1308 0.1882
C15 C 0.3035(4) 0.2318(3) 0.2761(3)
C16 C 0.2512(5) 0.3138(3) 0.3526(3)
H11 H 0.3409 0.3434 0.3767
C17 C 0.4987(5) 0.1962(4) 0.2348(3)
O3 O 0.6085(4) 0.2028(4) 0.2796(3)
O4 O 0.5344(3) 0.1540(2) 0.1399(2)
C18 C 0.7145(4) 0.1161(3) 0.0913(3)
C21 C 0.8423(5) 0.2011(3) 0.0652(3)
H13 H 0.8086 0.2834 0.0821
F7 F 0.2744(3) 0.49914(19) 0.50020(16)
N5 N 0.0424(4) 0.6291(3) 0.3722(2)
C8 C 0.3034(7) 0.4298(4) 0.0236(4)
H5 H 0.4056 0.4047 0.0482
C9 C 0.1410(6) 0.4621(4) 0.0917(4)
H6 H 0.1287 0.4603 0.1635
F1 F 0.7256(3) 0.50086(19) 0.49980(16)
F2 F 0.5197(3) 0.3496(2) 0.5116(2)
F3 F 0.5606(3) 0.4949(3) 0.37363(19)
Si1 Si 0.5000 0.5000 0.5000
N1 N 0.9576(4) 0.3709(3) 0.6278(2)
C1 C 0.7951(5) 0.3731(3) 0.6953(3)
H1 H 0.7040 0.4341 0.6857
C2 C 0.7556(5) 0.2902(3) 0.7783(3)
C3 C 0.8855(6) 0.1984(4) 0.7913(3)
H2 H 0.8594 0.1380 0.8458
C6 C 0.5761(5) 0.2973(3) 0.8535(3)
O1 O 0.5159(4) 0.2175(3) 0.9130(2)
O2 O 0.4897(4) 0.4098(3) 0.8469(2)
C7 C 0.3187(5) 0.4339(4) 0.9156(4)
C10 C 0.0035(6) 0.5027(4) 0.9480(3)
C11 C 0.1816(6) 0.4679(4) 0.8775(4)
H7 H 0.1965 0.4701 0.8054
C12 C 0.9542(5) 0.3060(3) 0.3625(3)
H8 H 0.8316 0.3320 0.3922
C13 C 0.9970(5) 0.2207(4) 0.2880(3)
H9 H 0.9048 0.1872 0.2691
F5 F 0.4803(3) 0.6504(2) 0.4884(2)
F6 F 0.4394(3) 0.5051(3) 0.62637(19)
C23 C 0.2049(5) 0.6269(3) 0.3047(3)
H15 H 0.2960 0.5659 0.3143
C24 C 0.2444(5) 0.7098(3) 0.2217(3)
C25 C 0.1145(6) 0.8016(4) 0.2087(3)
H16 H 0.1406 0.8620 0.1542
C28 C 0.4239(5) 0.7027(3) 0.1465(3)
O5 O 0.4841(4) 0.7825(3) 0.0870(2)
O6 O 0.5103(4) 0.5902(3) 0.1531(2)
C29 C 0.6813(5) 0.5661(4) 0.0844(4)
C32 C 0.9965(6) 0.4973(4) 0.0520(3)
C33 C 0.8184(6) 0.5321(4) 0.1225(4)
H21 H 0.8035 0.5299 0.1946
C30 C 0.6966(7) 0.5702(4) 0.9764(4)
H19 H 0.5944 0.5953 0.9518
C31 C 0.8590(6) 0.5379(4) 0.9083(4)
H20 H 0.8713 0.5397 0.8365
C26 C 0.9452(6) 0.8031(4) 0.2774(4)
H17 H 0.8522 0.8636 0.2696
C27 C 0.9144(5) 0.7149(4) 0.3575(3)
H18 H 0.7981 0.7154 0.4037
C44 C 0.0159(5) 0.1637(3) 0.0151(3)
C41 C 0.2451(4) 0.0012(3) 0.9339(3)
H26 H 0.3353 0.0558 0.9162
C42 C 0.0666(4) 0.0419(3) 0.9870(3)
H28 H 0.1036 0.2202 0.9989
C19 C 0.7549(4) 0.9988(3) 0.0661(3)
H12 H 0.6647 0.9442 0.0838
C20 C 0.9334(4) 0.9581(3) 0.0130(3)
H14 H 0.8964 0.7798 0.0011
C22 C 0.9841(5) 0.8363(3) 0.9849(3)
loop_
_geom_bond_atom_site_label_1
_geom_bond_atom_site_label_2
_geom_bond_site_symmetry_1
_geom_bond_site_symmetry_2
C34 H22 1_555 1_555
C35 C34 1_555 1_555
H23 C35 1_555 1_555
H24 C36 1_555 1_555
C37 C36 1_555 1_555
C38 N4 1_555 1_555
H25 C38 1_555 1_555
C39 C37 1_555 1_555
O7 C39 1_555 1_555
O8 C39 1_555 1_555
C40 O8 1_555 1_555
H27 C43 1_555 1_555
Zn4_2 N4 1_555 1_555
C37 C38 1_555 1_555
C40 C43 1_555 1_555
H3 C4 1_555 1_555
H4 C5 1_555 1_555
N2 Zn4 1_555 1_555
H10 C14 1_555 1_555
C15 C14 1_555 1_555
C16 N2 1_555 1_555
H11 C16 1_555 1_555
C17 C15 1_555 1_555
O3 C17 1_555 1_555
O4 C17 1_555 1_555
C18 O4 1_555 1_555
C21 C18 1_555 1_555
H13 C21 1_555 1_555
F7 Zn4 1_555 1_555
N5 Zn4 1_555 1_555
C4 C5 1_555 1_555
C15 C16 1_555 1_555
H5 C8 1_555 1_555
C9 C8 1_555 1_555
H6 C9 1_555 1_555
Zn4_2 F1 1_555 1_555
F1 Si1 1_555 1_555
F2 Si1 1_555 1_555
F3 Si1 1_555 1_555
Si1 F7 1_555 1_555
N1 Zn4_2 1_555 1_555
C1 N1 1_555 1_555
H1 C1 1_555 1_555
C2 C1 1_555 1_555
C3 C2 1_555 1_555
H2 C3 1_555 1_555
C6 C2 1_555 1_555
O1 C6 1_555 1_555
O2 C6 1_555 1_555
C7 O2 1_555 1_555
C10 C11 1_555 1_555
C11 C7 1_555 1_555
H7 C11 1_555 1_555
H8 C12 1_555 1_555
C13 C12 1_555 1_555
H9 C13 1_555 1_555
F5 Si1 1_555 1_555
F6 Si1 1_555 1_555
N5 C23 1_555 1_555
C23 H15 1_555 1_555
C24 C23 1_555 1_555
C25 C24 1_555 1_555
H16 C25 1_555 1_555
C28 C24 1_555 1_555
O5 C28 1_555 1_555
O6 C28 1_555 1_555
C29 O6 1_555 1_555
C33 C29 1_555 1_555
H21 C33 1_555 1_555
C32 C33 1_555 1_555
H19 C30 1_555 1_555
H20 C31 1_555 1_555
C30 C31 1_555 1_555
H17 C26 1_555 1_555
H18 C27 1_555 1_555
C26 C27 1_555 1_555
H26 C41 1_555 1_555
C41 C42 1_555 1_555
H12 C19 1_555 1_555
C20 C19 1_555 1_555

#END
