
###############################################################################
#
# This file contains modified crystal structure data generated from the
# MOF subset of the Cambridge Structural Database (CSD) v543 
# hosted by the Cambridge Crystallographic Data Centre (CCDC).
#
# This work is licensed under the Creative Commons
# Attribution-NonCommercial-ShareAlike 4.0 International License.
# To view a copy of this license, visit
# http://creativecommons.org/licenses/by-nc-sa/4.0/
# or send a letter to
# Creative Commons, PO Box 1866, Mountain View, CA 94042, USA.
#
# CIF created using the CSD Python API on 29 September 2022
# The structure has been converted into the P1 space group
# The structure has a 3D framework
# The original CSD entry QAPFEW is in the monoclinic crystal system
# The framework has been calculated to contain at least 10.0% void space
# The void calculation uses a probe of radius 1.32A, grid spacing 0.4
#
###############################################################################

data_QAPFEW
_chemical_formula_moiety         '(C60 H32 Mn4 N8 O14)n'
_symmetry_cell_setting           triclinic
_symmetry_space_group_name_H-M   'P 1'
_symmetry_Int_Tables_number      1
_space_group_name_Hall           'P 1'
loop_
_symmetry_equiv_pos_site_id
_symmetry_equiv_pos_as_xyz
1 x,y,z
_cell_length_a                   8.8733(3)
_cell_length_b                   18.1176(6)
_cell_length_c                   19.1412(6)
_cell_angle_alpha                90
_cell_angle_beta                 96.2310(10)
_cell_angle_gamma                90
_cell_volume                     3059.02
loop_
_atom_site_label
_atom_site_type_symbol
_atom_site_fract_x
_atom_site_fract_y
_atom_site_fract_z
O3 O 0.0350(4) 0.04885(15) 0.89024(15)
H4 H 0.054029 0.123955 0.783054
O6 O 0.1141(2) 0.41863(16) 0.57773(14)
Mn3 Mn 0.09659(3) 0.96117(2) 0.95297(2)
Mn5 Mn 0.90341(3) 0.03883(2) 0.04703(2)
Mn1 Mn 0.90341(3) 0.46117(2) 0.54703(2)
N1 N 0.7961(3) 0.39580(14) 0.61084(13)
N2 N 0.7715(3) 0.30984(18) 0.69176(16)
O1 O 0.2581(3) 0.47654(15) 0.50718(15)
O4 O 0.8931(4) 0.10611(16) 0.96134(14)
C1 C 0.9468(4) 0.09929(18) 0.90440(17)
C2 C 0.9025(4) 0.15512(19) 0.84835(17)
C3 C 0.7897(5) 0.2051(3) 0.8570(2)
H1 H 0.740143 0.204121 0.898595
C4 C 0.7484(5) 0.2566(3) 0.8057(2)
H2 H 0.672451 0.292030 0.812550
C5 C 0.8159(4) 0.2571(2) 0.74497(19)
C6 C 0.9279(5) 0.2088(2) 0.7356(2)
H3 H 0.975423 0.209633 0.693454
C7 C 0.9736(5) 0.1573(2) 0.7887(2)
C8 C 0.8671(4) 0.35016(19) 0.65671(17)
H5 H 0.974353 0.345980 0.664376
C9 C 0.6434(3) 0.38537(18) 0.61481(16)
C10 C 0.6240(3) 0.3314(2) 0.66572(19)
C11 C 0.4831(4) 0.3087(2) 0.6812(2)
H6 H 0.471684 0.272619 0.716270
C12 C 0.3602(4) 0.3410(2) 0.6435(2)
H7 H 0.261305 0.325087 0.651226
C13 C 0.3759(3) 0.39752(19) 0.59310(18)
C14 C 0.5184(3) 0.41789(17) 0.57749(16)
H8 H 0.530410 0.453385 0.541979
C15 C 0.2386(3) 0.43346(17) 0.55626(16)
Mn4 Mn 0.09659(3) 0.53883(2) 0.45297(2)
O5 O 0.7419(3) 0.52346(15) 0.49282(15)
O7 O 0.9650(4) 0.54885(15) 0.60976(15)
O8 O 0.8931(4) 0.39389(16) 0.46134(14)
O5_2 O 0.2581(3) 0.02346(15) 0.00718(15)
O8_2 O 0.1069(4) 0.89389(16) 0.03866(14)
N1_2 N 0.2039(3) 0.89580(14) 0.88916(13)
N2_2 N 0.2285(3) 0.80984(18) 0.80824(16)
O1_2 O 0.7419(3) 0.97654(15) 0.99282(15)
O2 O 0.8859(2) 0.91863(16) 0.92227(14)
O4_2 O 0.1069(4) 0.60611(16) 0.53866(14)
C1_2 C 0.0532(4) 0.59929(18) 0.59560(17)
C2_2 C 0.0975(4) 0.65512(19) 0.65165(17)
C3_2 C 0.2103(5) 0.7051(3) 0.6430(2)
H1_2 H 0.259857 0.704121 0.601405
C4_2 C 0.2516(5) 0.7566(3) 0.6943(2)
H2_2 H 0.327549 0.792030 0.687450
C5_2 C 0.1841(4) 0.7571(2) 0.75503(19)
C6_2 C 0.0721(5) 0.7088(2) 0.7644(2)
H3_2 H 0.024577 0.709633 0.806546
C7_2 C 0.0264(5) 0.6573(2) 0.7113(2)
C8_2 C 0.1329(4) 0.85016(19) 0.84329(17)
H5_2 H 0.025647 0.845980 0.835624
C9_2 C 0.3566(3) 0.88537(18) 0.88519(16)
C10_2 C 0.3760(3) 0.8314(2) 0.83428(19)
C11_2 C 0.5169(4) 0.8087(2) 0.8188(2)
H6_2 H 0.528316 0.772619 0.783730
C12_2 C 0.6398(4) 0.8410(2) 0.8565(2)
H7_2 H 0.738695 0.825087 0.848774
C13_2 C 0.6241(3) 0.89752(19) 0.90690(18)
C14_2 C 0.4816(3) 0.91789(17) 0.92251(16)
H8_2 H 0.469590 0.953385 0.958021
C15_2 C 0.7614(3) 0.93346(17) 0.94374(16)
H4_2 H 0.945971 0.623955 0.716946
N1_3 N 0.2039(3) 0.60420(14) 0.38916(13)
N2_3 N 0.2285(3) 0.69016(18) 0.30824(16)
O2_2 O 0.8859(2) 0.58137(16) 0.42227(14)
C1_3 C 0.0532(4) 0.90071(18) 0.09560(17)
C2_3 C 0.0975(4) 0.84488(19) 0.15165(17)
C3_3 C 0.2103(5) 0.7949(3) 0.1430(2)
H1_3 H 0.259857 0.795879 0.101405
C4_3 C 0.2516(5) 0.7434(3) 0.1943(2)
H2_3 H 0.327549 0.707970 0.187450
C5_3 C 0.1841(4) 0.7429(2) 0.25503(19)
C6_3 C 0.0721(5) 0.7912(2) 0.2644(2)
H3_3 H 0.024577 0.790367 0.306546
C7_3 C 0.0264(5) 0.8427(2) 0.2113(2)
C8_3 C 0.1329(4) 0.64984(19) 0.34329(17)
H5_3 H 0.025647 0.654020 0.335624
C9_3 C 0.3566(3) 0.61463(18) 0.38519(16)
C10_3 C 0.3760(3) 0.6686(2) 0.33428(19)
C11_3 C 0.5169(4) 0.6913(2) 0.3188(2)
H6_3 H 0.528316 0.727381 0.283730
C12_3 C 0.6398(4) 0.6590(2) 0.3565(2)
H7_3 H 0.738695 0.674913 0.348774
C13_3 C 0.6241(3) 0.60248(19) 0.40690(18)
C14_3 C 0.4816(3) 0.58211(17) 0.42251(16)
H8_3 H 0.469590 0.546615 0.458021
C15_3 C 0.7614(3) 0.56654(17) 0.44374(16)
O7_2 O 0.0350(4) 0.45115(15) 0.39024(15)
O3_2 O 0.9650(4) 0.95115(15) 0.10976(15)
H4_3 H 0.945971 0.876045 0.216946
H4_4 H 0.054029 0.376045 0.283054
O6_2 O 0.1141(2) 0.08137(16) 0.07773(14)
N1_4 N 0.7961(3) 0.10420(14) 0.11084(13)
N2_4 N 0.7715(3) 0.19016(18) 0.19176(16)
C1_4 C 0.9468(4) 0.40071(18) 0.40440(17)
C2_4 C 0.9025(4) 0.34488(19) 0.34835(17)
C3_4 C 0.7897(5) 0.2949(3) 0.3570(2)
H1_4 H 0.740143 0.295879 0.398595
C4_4 C 0.7484(5) 0.2434(3) 0.3057(2)
H2_4 H 0.672451 0.207970 0.312550
C5_4 C 0.8159(4) 0.2429(2) 0.24497(19)
C6_4 C 0.9279(5) 0.2912(2) 0.2356(2)
H3_4 H 0.975423 0.290367 0.193454
C7_4 C 0.9736(5) 0.3427(2) 0.2887(2)
C8_4 C 0.8671(4) 0.14984(19) 0.15671(17)
H5_4 H 0.974353 0.154020 0.164376
C9_4 C 0.6434(3) 0.11463(18) 0.11481(16)
C10_4 C 0.6240(3) 0.1686(2) 0.16572(19)
C11_4 C 0.4831(4) 0.1913(2) 0.1812(2)
H6_4 H 0.471684 0.227381 0.216270
C12_4 C 0.3602(4) 0.1590(2) 0.1435(2)
H7_4 H 0.261305 0.174913 0.151226
C13_4 C 0.3759(3) 0.10248(19) 0.09310(18)
C14_4 C 0.5184(3) 0.08211(17) 0.07749(16)
H8_4 H 0.530410 0.046615 0.041979
C15_4 C 0.2386(3) 0.06654(17) 0.05626(16)
loop_
_geom_bond_atom_site_label_1
_geom_bond_atom_site_label_2
_geom_bond_site_symmetry_1
_geom_bond_site_symmetry_2
Mn1 N1 1_555 1_555
N1 C8 1_555 1_555
N2 C5 1_555 1_555
O1 C15 1_555 1_555
O6 C15 1_555 1_555
O4 C1 1_555 1_555
C1 C2 1_555 1_555
C2 C3 1_555 1_555
C3 H1 1_555 1_555
C4 C3 1_555 1_555
H2 C4 1_555 1_555
C5 C4 1_555 1_555
C6 C5 1_555 1_555
H3 C6 1_555 1_555
C7 C2 1_555 1_555
C8 N2 1_555 1_555
H5 C8 1_555 1_555
C9 N1 1_555 1_555
C10 N2 1_555 1_555
C11 C10 1_555 1_555
H6 C11 1_555 1_555
C12 C11 1_555 1_555
H7 C12 1_555 1_555
C13 C12 1_555 1_555
C14 C9 1_555 1_555
H8 C14 1_555 1_555
C15 C13 1_555 1_555
Mn4 O1 1_555 1_555
O5 Mn1 1_555 1_555
O7 Mn1 1_555 1_555
O8 Mn1 1_555 1_555
C6 C7 1_555 1_555
C9 C10 1_555 1_555
C13 C14 1_555 1_555
Mn3 N1_2 1_555 1_555
N1_2 C8_2 1_555 1_555
N2_2 C5_2 1_555 1_555
O1_2 C15_2 1_555 1_555
O2 C15_2 1_555 1_555
O4_2 C1_2 1_555 1_555
C1_2 C2_2 1_555 1_555
C2_2 C3_2 1_555 1_555
C3_2 H1_2 1_555 1_555
C4_2 C3_2 1_555 1_555
H2_2 C4_2 1_555 1_555
C5_2 C4_2 1_555 1_555
C6_2 C5_2 1_555 1_555
H3_2 C6_2 1_555 1_555
C7_2 C2_2 1_555 1_555
C8_2 N2_2 1_555 1_555
H5_2 C8_2 1_555 1_555
C9_2 N1_2 1_555 1_555
C10_2 N2_2 1_555 1_555
C11_2 C10_2 1_555 1_555
H6_2 C11_2 1_555 1_555
C12_2 C11_2 1_555 1_555
H7_2 C12_2 1_555 1_555
C13_2 C12_2 1_555 1_555
C14_2 C9_2 1_555 1_555
H8_2 C14_2 1_555 1_555
C15_2 C13_2 1_555 1_555
Mn4 O4_2 1_555 1_555
C6_2 C7_2 1_555 1_555
C9_2 C10_2 1_555 1_555
C13_2 C14_2 1_555 1_555
Mn4 N1_3 1_555 1_555
N1_3 C8_3 1_555 1_555
N2_3 C5_3 1_555 1_555
O5 C15_3 1_555 1_555
O2_2 C15_3 1_555 1_555
O8_2 C1_3 1_555 1_555
C1_3 C2_3 1_555 1_555
C2_3 C3_3 1_555 1_555
C3_3 H1_3 1_555 1_555
C4_3 C3_3 1_555 1_555
H2_3 C4_3 1_555 1_555
C5_3 C4_3 1_555 1_555
C6_3 C5_3 1_555 1_555
H3_3 C6_3 1_555 1_555
C7_3 C2_3 1_555 1_555
C8_3 N2_3 1_555 1_555
H5_3 C8_3 1_555 1_555
C9_3 N1_3 1_555 1_555
C10_3 N2_3 1_555 1_555
C11_3 C10_3 1_555 1_555
H6_3 C11_3 1_555 1_555
C12_3 C11_3 1_555 1_555
H7_3 C12_3 1_555 1_555
C13_3 C12_3 1_555 1_555
C14_3 C9_3 1_555 1_555
H8_3 C14_3 1_555 1_555
C15_3 C13_3 1_555 1_555
O7_2 Mn4 1_555 1_555
C6_3 C7_3 1_555 1_555
C9_3 C10_3 1_555 1_555
C13_3 C14_3 1_555 1_555
Mn5 N1_4 1_555 1_555
N1_4 C8_4 1_555 1_555
N2_4 C5_4 1_555 1_555
O5_2 C15_4 1_555 1_555
O6_2 C15_4 1_555 1_555
O8 C1_4 1_555 1_555
C1_4 C2_4 1_555 1_555
C2_4 C3_4 1_555 1_555
C3_4 H1_4 1_555 1_555
C4_4 C3_4 1_555 1_555
H2_4 C4_4 1_555 1_555
C5_4 C4_4 1_555 1_555
C6_4 C5_4 1_555 1_555
H3_4 C6_4 1_555 1_555
C7_4 C2_4 1_555 1_555
C8_4 N2_4 1_555 1_555
H5_4 C8_4 1_555 1_555
C9_4 N1_4 1_555 1_555
C10_4 N2_4 1_555 1_555
C11_4 C10_4 1_555 1_555
H6_4 C11_4 1_555 1_555
C12_4 C11_4 1_555 1_555
H7_4 C12_4 1_555 1_555
C13_4 C12_4 1_555 1_555
C14_4 C9_4 1_555 1_555
H8_4 C14_4 1_555 1_555
C15_4 C13_4 1_555 1_555
C6_4 C7_4 1_555 1_555
C9_4 C10_4 1_555 1_555
C13_4 C14_4 1_555 1_555

#END
