
###############################################################################
#
# This file contains modified crystal structure data generated from the
# MOF subset of the Cambridge Structural Database (CSD) v543 
# hosted by the Cambridge Crystallographic Data Centre (CCDC).
#
# This work is licensed under the Creative Commons
# Attribution-NonCommercial-ShareAlike 4.0 International License.
# To view a copy of this license, visit
# http://creativecommons.org/licenses/by-nc-sa/4.0/
# or send a letter to
# Creative Commons, PO Box 1866, Mountain View, CA 94042, USA.
#
# CIF created using the CSD Python API on 29 September 2022
# The structure has been converted into the P1 space group
# The structure has a 3D framework
# The original CSD entry QAPLIG is in the orthorhombic crystal system
# The framework has been calculated to contain at least 10.0% void space
# The void calculation uses a probe of radius 1.32A, grid spacing 0.4
# H atom positions have been added when not included in the experimental data
#
###############################################################################

data_QAPLIG
_chemical_formula_moiety         '(C44 H36 N28 O8 Zn4)n'
_symmetry_cell_setting           triclinic
_symmetry_space_group_name_H-M   'P 1'
_symmetry_Int_Tables_number      1
_space_group_name_Hall           'P 1'
loop_
_symmetry_equiv_pos_site_id
_symmetry_equiv_pos_as_xyz
1 x,y,z
_cell_length_a                   17.6684(7)
_cell_length_b                   11.3187(5)
_cell_length_c                   8.8658(3)
_cell_angle_alpha                90
_cell_angle_beta                 90
_cell_angle_gamma                90
_cell_volume                     1773.01
loop_
_atom_site_label
_atom_site_type_symbol
_atom_site_fract_x
_atom_site_fract_y
_atom_site_fract_z
Zn1 Zn 0.39355(2) 0.49215(3) 0.03272(11)
O1 O 0.33341(17) 0.6147(3) 0.1270(3)
O2 O 0.3043(2) 0.4827(3) 0.3059(4)
N1 N 0.17097(17) 0.8607(3) 0.4511(3)
N2 N 0.2084(3) 0.5531(3) 0.5297(6)
N3 N 0.47816(18) 0.4337(3) 0.1533(3)
N4 N 0.56340(17) 0.4314(3) 0.3453(3)
N5 N 0.6956(2) 0.2466(4) 0.3386(5)
N6 N 0.6410(2) 0.1853(3) 0.1172(4)
N7 N 0.53141(19) 0.2756(3) 0.0040(4)
C1 C 0.2152(3) 0.8823(4) 0.3284(5)
C2 C 0.2578(2) 0.7920(4) 0.2663(5)
C3 C 0.2556(2) 0.6794(3) 0.3243(4)
C4 C 0.2123(2) 0.6586(3) 0.4554(4)
C5 C 0.1704(2) 0.7550(3) 0.5118(4)
C6 C 0.3006(2) 0.5834(3) 0.2502(4)
C7 C 0.5015(4) 0.4800(3) 0.2845(7)
C8 C 0.5823(2) 0.3440(3) 0.2428(4)
C9 C 0.53085(19) 0.3462(3) 0.1247(4)
C10 C 0.5885(3) 0.1986(4) 0.0090(5)
C11 C 0.6404(2) 0.2594(3) 0.2335(5)
Zn2 Zn 0.60645(2) 0.50785(3) 0.53272(11)
Zn3 Zn 0.10645(2) 0.99215(3) 0.53272(11)
H1 H 0.175855 0.545296 0.623514
H2 H 0.238046 0.482485 0.491114
H4 H 0.293822 0.810499 0.169467
H5 H 0.217041 0.970432 0.279263
H6 H 0.471786 0.552942 0.338436
H7 H 0.135556 0.740886 0.611505
H8 H 0.697289 0.301285 0.429272
H9 H 0.73521 0.182339 0.326562
N8 N 0.32903(17) 0.3607(3) 0.9511(3)
N9 N 0.43660(17) 0.5686(3) 0.8453(3)
H3 H 0.593127 0.138906 0.913111
N2_2 N 0.7916(3) 0.4469(3) 0.0297(6)
C5_2 C 0.8296(2) 0.2450(3) 0.0118(4)
Zn3_2 Zn 0.89355(2) 0.00785(3) 0.03272(11)
H1_2 H 0.824145 0.454704 0.123514
H7_2 H 0.864444 0.259114 0.111505
O1_2 O 0.66659(17) 0.3853(3) 0.6270(3)
O2_2 O 0.6957(2) 0.5173(3) 0.8059(4)
N1_2 N 0.82903(17) 0.1393(3) 0.9511(3)
N3_2 N 0.52184(18) 0.5663(3) 0.6533(3)
N5_2 N 0.3044(2) 0.7534(4) 0.8386(5)
N6_2 N 0.3590(2) 0.8147(3) 0.6172(4)
N7_2 N 0.46859(19) 0.7244(3) 0.5040(4)
C1_2 C 0.7848(3) 0.1177(4) 0.8284(5)
C2_2 C 0.7422(2) 0.2080(4) 0.7663(5)
C3_2 C 0.7444(2) 0.3206(3) 0.8243(4)
C4_2 C 0.7877(2) 0.3414(3) 0.9554(4)
C6_2 C 0.6994(2) 0.4166(3) 0.7502(4)
C7_2 C 0.4985(4) 0.5200(3) 0.7845(7)
C8_2 C 0.4177(2) 0.6560(3) 0.7428(4)
C9_2 C 0.46915(19) 0.6538(3) 0.6247(4)
C10_2 C 0.4115(3) 0.8014(4) 0.5090(5)
C11_2 C 0.3596(2) 0.7406(3) 0.7335(5)
N8_2 N 0.67097(17) 0.6393(3) 0.4511(3)
H2_2 H 0.761954 0.517515 0.991114
H3_2 H 0.406873 0.861094 0.413111
H4_2 H 0.706178 0.189501 0.669467
H5_2 H 0.782959 0.0295683 0.779263
H6_2 H 0.528214 0.447058 0.838436
H8_2 H 0.302711 0.698715 0.929272
H9_2 H 0.26479 0.817661 0.826562
N2_3 N 0.2916(3) 0.0531(3) 0.0297(6)
C5_3 C 0.3296(2) 0.2550(3) 0.0118(4)
H1_3 H 0.324145 0.0452957 0.123514
H7_3 H 0.364444 0.240886 0.111505
O1_3 O 0.16659(17) 0.1147(3) 0.6270(3)
C1_3 C 0.2848(3) 0.3823(4) 0.8284(5)
C2_3 C 0.2422(2) 0.2920(4) 0.7663(5)
C3_3 C 0.2444(2) 0.1794(3) 0.8243(4)
C4_3 C 0.2877(2) 0.1586(3) 0.9554(4)
C6_3 C 0.1994(2) 0.0834(3) 0.7502(4)
N9_2 N 0.06340(17) 0.0686(3) 0.3453(3)
H4_3 H 0.206178 0.310499 0.669467
H5_3 H 0.282959 0.470432 0.779263
H6_3 H 0.0282141 0.0529422 0.838436
O2_3 O 0.1957(2) 0.9827(3) 0.8059(4)
N3_3 N 0.02184(18) 0.9337(3) 0.6533(3)
H2_3 H 0.261954 0.982485 0.991114
N5_3 N 0.1956(2) 0.2534(4) 0.3386(5)
N6_3 N 0.1410(2) 0.3147(3) 0.1172(4)
N7_3 N 0.03141(19) 0.2244(3) 0.0040(4)
C7_3 C 0.0015(4) 0.0200(3) 0.2845(7)
C8_3 C 0.0823(2) 0.1560(3) 0.2428(4)
C9_3 C 0.03085(19) 0.1538(3) 0.1247(4)
C10_3 C 0.0885(3) 0.3014(4) 0.0090(5)
C11_3 C 0.1404(2) 0.2406(3) 0.2335(5)
H8_3 H 0.197289 0.198715 0.429272
H9_3 H 0.23521 0.317661 0.326562
O2_4 O 0.8043(2) 0.0173(3) 0.3059(4)
N3_4 N 0.97816(18) 0.0663(3) 0.1533(3)
H2_4 H 0.738046 0.0175155 0.491114
O1_4 O 0.83341(17) 0.8853(3) 0.1270(3)
N2_4 N 0.7084(3) 0.9469(3) 0.5297(6)
C1_4 C 0.7152(3) 0.6177(4) 0.3284(5)
C2_4 C 0.7578(2) 0.7080(4) 0.2663(5)
C3_4 C 0.7556(2) 0.8206(3) 0.3243(4)
C4_4 C 0.7123(2) 0.8414(3) 0.4554(4)
C5_4 C 0.6704(2) 0.7450(3) 0.5118(4)
C6_4 C 0.8006(2) 0.9166(3) 0.2502(4)
H1_4 H 0.675855 0.954704 0.623514
H4_4 H 0.793822 0.689501 0.169467
H5_4 H 0.717041 0.529568 0.279263
H6_4 H 0.971786 0.947058 0.338436
H7_4 H 0.635556 0.759114 0.611505
N4_2 N 0.93660(17) 0.9314(3) 0.8453(3)
N5_4 N 0.8044(2) 0.7466(4) 0.8386(5)
N6_4 N 0.8590(2) 0.6853(3) 0.6172(4)
N7_4 N 0.96859(19) 0.7756(3) 0.5040(4)
C7_4 C 0.9985(4) 0.9800(3) 0.7845(7)
C8_4 C 0.9177(2) 0.8440(3) 0.7428(4)
C9_4 C 0.96915(19) 0.8462(3) 0.6247(4)
C10_4 C 0.9115(3) 0.6986(4) 0.5090(5)
C11_4 C 0.8596(2) 0.7594(3) 0.7335(5)
H3_3 H 0.906873 0.638906 0.413111
H8_4 H 0.802711 0.801285 0.929272
H9_4 H 0.76479 0.682339 0.826562
H3_4 H 0.0931275 0.361094 0.913111
loop_
_geom_bond_atom_site_label_1
_geom_bond_atom_site_label_2
_geom_bond_site_symmetry_1
_geom_bond_site_symmetry_2
Zn1 O1 1_555 1_555
O1 C6 1_555 1_555
O2 C6 1_555 1_555
N1 C1 1_555 1_555
N2 C4 1_555 1_555
N3 Zn1 1_555 1_555
N4 C7 1_555 1_555
N5 C11 1_555 1_555
N6 C10 1_555 1_555
N7 C9 1_555 1_555
C1 C2 1_555 1_555
C2 C3 1_555 1_555
C3 C4 1_555 1_555
C4 C5 1_555 1_555
C5 N1 1_555 1_555
C6 C3 1_555 1_555
C7 N3 1_555 1_555
C8 N4 1_555 1_555
C9 N3 1_555 1_555
C10 N7 1_555 1_555
C11 N6 1_555 1_555
Zn2 N4 1_555 1_555
Zn3 N1 1_555 1_555
C8 C9 1_555 1_555
C8 C11 1_555 1_555
N2 H1 1_555 1_555
N2 H2 1_555 1_555
C2 H4 1_555 1_555
C1 H5 1_555 1_555
C7 H6 1_555 1_555
C5 H7 1_555 1_555
N5 H8 1_555 1_555
N5 H9 1_555 1_555
N2_2 H1_2 1_555 1_555
C5_2 H7_2 1_555 1_555
Zn2 O1_2 1_555 1_555
O1_2 C6_2 1_555 1_555
O2_2 C6_2 1_555 1_555
N1_2 C1_2 1_555 1_555
N3_2 Zn2 1_555 1_555
N9 C7_2 1_555 1_555
N5_2 C11_2 1_555 1_555
N6_2 C10_2 1_555 1_555
N7_2 C9_2 1_555 1_555
C1_2 C2_2 1_555 1_555
C2_2 C3_2 1_555 1_555
C3_2 C4_2 1_555 1_555
C6_2 C3_2 1_555 1_555
C7_2 N3_2 1_555 1_555
C8_2 N9 1_555 1_555
C9_2 N3_2 1_555 1_555
C10_2 N7_2 1_555 1_555
C11_2 N6_2 1_555 1_555
N8_2 Zn2 1_555 1_555
C8_2 C9_2 1_555 1_555
C8_2 C11_2 1_555 1_555
C10_2 H3_2 1_555 1_555
C2_2 H4_2 1_555 1_555
C1_2 H5_2 1_555 1_555
C7_2 H6_2 1_555 1_555
N5_2 H8_2 1_555 1_555
N5_2 H9_2 1_555 1_555
N2_3 H1_3 1_555 1_555
C5_3 H7_3 1_555 1_555
O1_3 C6_3 1_555 1_555
N8 C1_3 1_555 1_555
C1_3 C2_3 1_555 1_555
C2_3 C3_3 1_555 1_555
C3_3 C4_3 1_555 1_555
C6_3 C3_3 1_555 1_555
C2_3 H4_3 1_555 1_555
C1_3 H5_3 1_555 1_555
N3_3 Zn3 1_555 1_555
N9_2 C7_3 1_555 1_555
N5_3 C11_3 1_555 1_555
N6_3 C10_3 1_555 1_555
N7_3 C9_3 1_555 1_555
C8_3 N9_2 1_555 1_555
C10_3 N7_3 1_555 1_555
C11_3 N6_3 1_555 1_555
C8_3 C9_3 1_555 1_555
C8_3 C11_3 1_555 1_555
N5_3 H8_3 1_555 1_555
N5_3 H9_3 1_555 1_555
N3_4 Zn3_2 1_555 1_555
O1_4 C6_4 1_555 1_555
N8_2 C1_4 1_555 1_555
N2_4 C4_4 1_555 1_555
C1_4 C2_4 1_555 1_555
C2_4 C3_4 1_555 1_555
C3_4 C4_4 1_555 1_555
C4_4 C5_4 1_555 1_555
C5_4 N8_2 1_555 1_555
C6_4 C3_4 1_555 1_555
N2_4 H1_4 1_555 1_555
C2_4 H4_4 1_555 1_555
C1_4 H5_4 1_555 1_555
C5_4 H7_4 1_555 1_555
N4_2 C7_4 1_555 1_555
N5_4 C11_4 1_555 1_555
N6_4 C10_4 1_555 1_555
N7_4 C9_4 1_555 1_555
C8_4 N4_2 1_555 1_555
C10_4 N7_4 1_555 1_555
C11_4 N6_4 1_555 1_555
C8_4 C9_4 1_555 1_555
C8_4 C11_4 1_555 1_555
C10_4 H3_3 1_555 1_555
N5_4 H8_4 1_555 1_555
N5_4 H9_4 1_555 1_555

#END
