
###############################################################################
#
# This file contains modified crystal structure data generated from the
# MOF subset of the Cambridge Structural Database (CSD) v543 
# hosted by the Cambridge Crystallographic Data Centre (CCDC).
#
# This work is licensed under the Creative Commons
# Attribution-NonCommercial-ShareAlike 4.0 International License.
# To view a copy of this license, visit
# http://creativecommons.org/licenses/by-nc-sa/4.0/
# or send a letter to
# Creative Commons, PO Box 1866, Mountain View, CA 94042, USA.
#
# CIF created using the CSD Python API on 29 September 2022
# The structure has been converted into the P1 space group
# The structure has a 3D framework
# The original CSD entry QAPLEC is in the orthorhombic crystal system
# The framework has been calculated to contain at least 10.0% void space
# The void calculation uses a probe of radius 1.32A, grid spacing 0.4
#
###############################################################################

data_QAPLEC
_chemical_formula_moiety         '(C44 H36 N28 O8 Zn4)n'
_symmetry_cell_setting           triclinic
_symmetry_space_group_name_H-M   'P 1'
_symmetry_Int_Tables_number      1
_space_group_name_Hall           'P 1'
loop_
_symmetry_equiv_pos_site_id
_symmetry_equiv_pos_as_xyz
1 x,y,z
_cell_length_a                   17.6512(11)
_cell_length_b                   11.3238(7)
_cell_length_c                   8.8698(5)
_cell_angle_alpha                90
_cell_angle_beta                 90
_cell_angle_gamma                90
_cell_volume                     1772.88
loop_
_atom_site_label
_atom_site_type_symbol
_atom_site_fract_x
_atom_site_fract_y
_atom_site_fract_z
H6 H 0.592322 0.148901 0.075604
N8 N 0.32833(11) 0.36127(18) 0.0510(2)
N9 N 0.43670(11) 0.56832(18) 0.1583(2)
Zn1 Zn 0.39343(2) 0.49228(2) 0.97126(7)
O1 O 0.33338(11) 0.61493(16) 0.87584(19)
O2 O 0.30530(15) 0.48367(17) 0.6968(3)
N1 N 0.17167(11) 0.86127(18) 0.5510(2)
N2 N 0.53117(12) 0.2750(2) 0.9984(2)
C1 C 0.25585(13) 0.6786(2) 0.6775(3)
C2 C 0.21218(14) 0.6586(2) 0.5464(3)
N3 N 0.56330(11) 0.43168(18) 0.6583(2)
C3 C 0.30050(14) 0.5831(2) 0.7516(3)
C4 C 0.5020(2) 0.4805(2) 0.7192(4)
H1 H 0.476906 0.543210 0.673373
C5 C 0.25747(15) 0.7930(2) 0.7365(3)
H2 H 0.287617 0.809094 0.820015
C6 C 0.21540(16) 0.8820(2) 0.6735(3)
H3 H 0.216929 0.957278 0.715270
C7 C 0.58230(13) 0.3448(2) 0.7598(3)
C8 C 0.64028(13) 0.2589(2) 0.7684(3)
N4 N 0.20828(18) 0.5544(2) 0.4731(4)
H4 H 0.171181 0.513117 0.507409
H5 H 0.249960 0.516326 0.485694
C9 C 0.58827(16) 0.1994(3) 0.9933(3)
C10 C 0.53077(13) 0.3466(2) 0.8778(2)
N5 N 0.47834(11) 0.43459(18) 0.8495(2)
N6 N 0.69510(13) 0.2458(2) 0.6627(3)
H7 H 0.738322 0.262822 0.701923
H8 H 0.686244 0.292551 0.588415
C11 C 0.17055(13) 0.7554(2) 0.4907(3)
H9 H 0.140436 0.743521 0.406014
N7 N 0.64100(13) 0.1854(2) 0.8865(3)
Zn2 Zn 0.60657(2) 0.50772(2) 0.47126(7)
Zn3 Zn 0.10657(2) 0.99228(2) 0.47126(7)
O1_2 O 0.66662(11) 0.38507(16) 0.37584(19)
O2_2 O 0.69470(15) 0.51633(17) 0.1968(3)
N1_2 N 0.82833(11) 0.13873(18) 0.0510(2)
N2_2 N 0.46883(12) 0.7250(2) 0.4984(2)
C1_2 C 0.74415(13) 0.3214(2) 0.1775(3)
C2_2 C 0.78782(14) 0.3414(2) 0.0464(3)
C3_2 C 0.69950(14) 0.4169(2) 0.2516(3)
C4_2 C 0.4980(2) 0.5195(2) 0.2192(4)
H1_2 H 0.523094 0.456790 0.173373
C5_2 C 0.74253(15) 0.2070(2) 0.2365(3)
H2_2 H 0.712383 0.190906 0.320015
C6_2 C 0.78460(16) 0.1180(2) 0.1735(3)
H3_2 H 0.783071 0.042722 0.215270
C7_2 C 0.41770(13) 0.6552(2) 0.2598(3)
C8_2 C 0.35972(13) 0.7411(2) 0.2684(3)
H4_2 H 0.828819 0.486883 0.007409
C9_2 C 0.41173(16) 0.8006(3) 0.4933(3)
H6_2 H 0.407678 0.851099 0.575604
C10_2 C 0.46923(13) 0.6534(2) 0.3778(2)
N5_2 N 0.52166(11) 0.56541(18) 0.3495(2)
N6_2 N 0.30490(13) 0.7542(2) 0.1627(3)
H7_2 H 0.261678 0.737178 0.201923
H8_2 H 0.313756 0.707449 0.088415
N7_2 N 0.35900(13) 0.8146(2) 0.3865(3)
N8_2 N 0.67167(11) 0.63873(18) 0.5510(2)
N4_2 N 0.79172(18) 0.4456(2) 0.9731(4)
H5_2 H 0.750040 0.483674 0.985694
C11_2 C 0.82945(13) 0.2446(2) 0.9907(3)
H9_2 H 0.859564 0.256479 0.906014
Zn3_2 Zn 0.89343(2) 0.00772(2) 0.97126(7)
O1_3 O 0.16662(11) 0.11493(16) 0.37584(19)
C1_3 C 0.24415(13) 0.1786(2) 0.1775(3)
C2_3 C 0.28782(14) 0.1586(2) 0.0464(3)
C3_3 C 0.19950(14) 0.0831(2) 0.2516(3)
H1_3 H 0.023094 0.043210 0.173373
C5_3 C 0.24253(15) 0.2930(2) 0.2365(3)
H2_3 H 0.212383 0.309094 0.320015
C6_3 C 0.28460(16) 0.3820(2) 0.1735(3)
H3_3 H 0.283071 0.457278 0.215270
H4_3 H 0.328819 0.013117 0.007409
N9_2 N 0.06330(11) 0.06832(18) 0.6583(2)
N4_3 N 0.29172(18) 0.0544(2) 0.9731(4)
H5_3 H 0.250040 0.016326 0.985694
C11_3 C 0.32945(13) 0.2554(2) 0.9907(3)
H9_3 H 0.359564 0.243521 0.906014
O2_3 O 0.19470(15) 0.98367(17) 0.1968(3)
N5_3 N 0.02166(11) 0.93459(18) 0.3495(2)
N2_3 N 0.03117(12) 0.2250(2) 0.9984(2)
C4_3 C 0.0020(2) 0.0195(2) 0.7192(4)
C7_3 C 0.08230(13) 0.1552(2) 0.7598(3)
C8_3 C 0.14028(13) 0.2411(2) 0.7684(3)
C9_3 C 0.08827(16) 0.3006(3) 0.9933(3)
C10_3 C 0.03077(13) 0.1534(2) 0.8778(2)
N6_3 N 0.19510(13) 0.2542(2) 0.6627(3)
H7_3 H 0.238322 0.237178 0.701923
H8_3 H 0.186244 0.207449 0.588415
N7_3 N 0.14100(13) 0.3146(2) 0.8865(3)
O2_4 O 0.80530(15) 0.01633(17) 0.6968(3)
N5_4 N 0.97834(11) 0.06541(18) 0.8495(2)
O1_4 O 0.83338(11) 0.88507(16) 0.87584(19)
C1_4 C 0.75585(13) 0.8214(2) 0.6775(3)
C2_4 C 0.71218(14) 0.8414(2) 0.5464(3)
C3_4 C 0.80050(14) 0.9169(2) 0.7516(3)
H1_4 H 0.976906 0.956790 0.673373
C5_4 C 0.75747(15) 0.7070(2) 0.7365(3)
H2_4 H 0.787617 0.690906 0.820015
C6_4 C 0.71540(16) 0.6180(2) 0.6735(3)
H3_4 H 0.716929 0.542722 0.715270
N4_4 N 0.70828(18) 0.9456(2) 0.4731(4)
H4_4 H 0.671181 0.986883 0.507409
H5_4 H 0.749960 0.983674 0.485694
C11_4 C 0.67055(13) 0.7446(2) 0.4907(3)
H9_4 H 0.640436 0.756479 0.406014
N2_4 N 0.96883(12) 0.7750(2) 0.4984(2)
N3_2 N 0.93670(11) 0.93168(18) 0.1583(2)
C4_4 C 0.9980(2) 0.9805(2) 0.2192(4)
C7_4 C 0.91770(13) 0.8448(2) 0.2598(3)
C8_4 C 0.85972(13) 0.7589(2) 0.2684(3)
C9_4 C 0.91173(16) 0.6994(3) 0.4933(3)
H6_3 H 0.907678 0.648901 0.575604
C10_4 C 0.96923(13) 0.8466(2) 0.3778(2)
N6_4 N 0.80490(13) 0.7458(2) 0.1627(3)
H7_4 H 0.761678 0.762822 0.201923
H8_4 H 0.813756 0.792551 0.088415
N7_4 N 0.85900(13) 0.6854(2) 0.3865(3)
H6_4 H 0.092322 0.351099 0.075604
loop_
_geom_bond_atom_site_label_1
_geom_bond_atom_site_label_2
_geom_bond_site_symmetry_1
_geom_bond_site_symmetry_2
Zn1 O1 1_555 1_555
O1 C3 1_555 1_555
O2 C3 1_555 1_555
N1 C6 1_555 1_555
N2 C9 1_555 1_555
C1 C2 1_555 1_555
C2 N4 1_555 1_555
N3 C4 1_555 1_555
C3 C1 1_555 1_555
C4 H1 1_555 1_555
C5 C1 1_555 1_555
H2 C5 1_555 1_555
C6 C5 1_555 1_555
H3 C6 1_555 1_555
C7 N3 1_555 1_555
C8 C7 1_555 1_555
N4 H4 1_555 1_555
H5 N4 1_555 1_555
C10 N2 1_555 1_555
N5 Zn1 1_555 1_555
N6 C8 1_555 1_555
H7 N6 1_555 1_555
H8 N6 1_555 1_555
C11 N1 1_555 1_555
H9 C11 1_555 1_555
N7 C8 1_555 1_555
Zn2 N3 1_555 1_555
Zn3 N1 1_555 1_555
C2 C11 1_555 1_555
C4 N5 1_555 1_555
C7 C10 1_555 1_555
C9 N7 1_555 1_555
C10 N5 1_555 1_555
Zn2 O1_2 1_555 1_555
O1_2 C3_2 1_555 1_555
O2_2 C3_2 1_555 1_555
N1_2 C6_2 1_555 1_555
N2_2 C9_2 1_555 1_555
C1_2 C2_2 1_555 1_555
N9 C4_2 1_555 1_555
C3_2 C1_2 1_555 1_555
C4_2 H1_2 1_555 1_555
C5_2 C1_2 1_555 1_555
H2_2 C5_2 1_555 1_555
C6_2 C5_2 1_555 1_555
H3_2 C6_2 1_555 1_555
C7_2 N9 1_555 1_555
C8_2 C7_2 1_555 1_555
C9_2 H6_2 1_555 1_555
C10_2 N2_2 1_555 1_555
N5_2 Zn2 1_555 1_555
N6_2 C8_2 1_555 1_555
H7_2 N6_2 1_555 1_555
H8_2 N6_2 1_555 1_555
N7_2 C8_2 1_555 1_555
N8_2 Zn2 1_555 1_555
C4_2 N5_2 1_555 1_555
C7_2 C10_2 1_555 1_555
C9_2 N7_2 1_555 1_555
C10_2 N5_2 1_555 1_555
H5_2 N4_2 1_555 1_555
H9_2 C11_2 1_555 1_555
O1_3 C3_3 1_555 1_555
N8 C6_3 1_555 1_555
C1_3 C2_3 1_555 1_555
C3_3 C1_3 1_555 1_555
C5_3 C1_3 1_555 1_555
H2_3 C5_3 1_555 1_555
C6_3 C5_3 1_555 1_555
H3_3 C6_3 1_555 1_555
H5_3 N4_3 1_555 1_555
H9_3 C11_3 1_555 1_555
N5_3 Zn3 1_555 1_555
N2_3 C9_3 1_555 1_555
N9_2 C4_3 1_555 1_555
C7_3 N9_2 1_555 1_555
C8_3 C7_3 1_555 1_555
C10_3 N2_3 1_555 1_555
N6_3 C8_3 1_555 1_555
H7_3 N6_3 1_555 1_555
H8_3 N6_3 1_555 1_555
N7_3 C8_3 1_555 1_555
C7_3 C10_3 1_555 1_555
C9_3 N7_3 1_555 1_555
N5_4 Zn3_2 1_555 1_555
O1_4 C3_4 1_555 1_555
N8_2 C6_4 1_555 1_555
C1_4 C2_4 1_555 1_555
C2_4 N4_4 1_555 1_555
C3_4 C1_4 1_555 1_555
C5_4 C1_4 1_555 1_555
H2_4 C5_4 1_555 1_555
C6_4 C5_4 1_555 1_555
H3_4 C6_4 1_555 1_555
N4_4 H4_4 1_555 1_555
H5_4 N4_4 1_555 1_555
C11_4 N8_2 1_555 1_555
H9_4 C11_4 1_555 1_555
C2_4 C11_4 1_555 1_555
N2_4 C9_4 1_555 1_555
N3_2 C4_4 1_555 1_555
C7_4 N3_2 1_555 1_555
C8_4 C7_4 1_555 1_555
C9_4 H6_3 1_555 1_555
C10_4 N2_4 1_555 1_555
N6_4 C8_4 1_555 1_555
H7_4 N6_4 1_555 1_555
H8_4 N6_4 1_555 1_555
N7_4 C8_4 1_555 1_555
C7_4 C10_4 1_555 1_555
C9_4 N7_4 1_555 1_555

#END
