
###############################################################################
#
# This file contains modified crystal structure data generated from the
# MOF subset of the Cambridge Structural Database (CSD) v543 
# hosted by the Cambridge Crystallographic Data Centre (CCDC).
#
# This work is licensed under the Creative Commons
# Attribution-NonCommercial-ShareAlike 4.0 International License.
# To view a copy of this license, visit
# http://creativecommons.org/licenses/by-nc-sa/4.0/
# or send a letter to
# Creative Commons, PO Box 1866, Mountain View, CA 94042, USA.
#
# CIF created using the CSD Python API on 29 September 2022
# The structure has been converted into the P1 space group
# The structure has a 3D framework
# The original CSD entry QARCET is in the triclinic crystal system
# The framework has been calculated to contain at least 10.0% void space
# The void calculation uses a probe of radius 1.32A, grid spacing 0.4
#
###############################################################################

data_QARCET
_chemical_formula_moiety         '(C96 H48 N72 Zn6)n'
_symmetry_cell_setting           triclinic
_symmetry_space_group_name_H-M   'P 1'
_symmetry_Int_Tables_number      1
_space_group_name_Hall           'P 1'
loop_
_symmetry_equiv_pos_site_id
_symmetry_equiv_pos_as_xyz
1 x,y,z
_cell_length_a                   13.551(3)
_cell_length_b                   16.181(3)
_cell_length_c                   16.540(3)
_cell_angle_alpha                109.46(3)
_cell_angle_beta                 101.21(3)
_cell_angle_gamma                109.75(3)
_cell_volume                     3019.67
loop_
_atom_site_label
_atom_site_type_symbol
_atom_site_fract_x
_atom_site_fract_y
_atom_site_fract_z
H18 H 0.0118 0.3994 0.8201
C46 C 0.0696(7) 0.1049(6) 0.7084(6)
H22 H 0.0908 0.0917 0.7580
C47 C 0.1481(7) 0.1550(6) 0.6803(7)
H23 H 0.2236 0.1755 0.7097
C48 C 0.1145(7) 0.1744(7) 0.6095(6)
H24 H 0.1687 0.2083 0.5909
N36 N 0.0053(5) 0.1468(5) 0.5638(4)
Zn3 Zn 0.58919(5) 0.20353(5) 0.51088(5)
C35 C 0.6002(5) 0.0139(4) 0.4386(4)
C37 C 0.8109(5) 0.0674(4) 0.5426(4)
C38 C 0.7650(5) 0.1349(4) 0.5560(4)
C39 C 0.8175(5) 0.2368(4) 0.6301(4)
C40 C 0.9135(6) 0.2784(5) 0.7043(5)
H17 H 0.9556 0.2443 0.7101
C41 C 0.9466(6) 0.3707(5) 0.7699(5)
C42 C 0.8856(5) 0.4200(5) 0.7621(4)
H19 H 0.9067 0.4822 0.8065
C43 C 0.7910(5) 0.3752(5) 0.6862(4)
H20 H 0.7495 0.4095 0.6796
C44 C 0.9305(5) 0.0946(4) 0.5897(5)
C45 C 0.9593(6) 0.0744(6) 0.6622(6)
H21 H 0.9042 0.0403 0.6801
N25 N 0.4670(4) 0.0737(4) 0.3996(3)
N26 N 0.3623(5) 0.0387(5) 0.3424(4)
N33 N 0.6624(4) 0.1063(3) 0.5007(3)
N35 N 0.7549(4) 0.2854(3) 0.6212(3)
N38 N 0.6253(4) 0.3141(3) 0.4722(3)
N40 N 0.5037(4) 0.2184(3) 0.5978(3)
Zn1 Zn 0.49543(6) 0.57685(5) 0.17524(4)
C6 C 0.2690(5) 0.4115(4) 0.0531(4)
C7 C 0.2818(5) 0.4093(4) 0.1438(4)
C8 C 0.1955(6) 0.3577(5) 0.1650(5)
H1 H 0.1241 0.3204 0.1215
C9 C 0.2162(7) 0.3619(5) 0.2525(5)
H2 H 0.1588 0.3290 0.2690
C10 C 0.3241(7) 0.4160(5) 0.3138(5)
H3 H 0.3420 0.4161 0.3711
C11 C 0.4042(6) 0.4692(5) 0.2895(4)
H4 H 0.4761 0.5081 0.3321
C33 C 0.4912(5) 0.9979(4) 0.3833(4)
C34 C 0.5731(5) 0.8380(4) 0.3800(4)
C36 C 0.6413(5) 0.9453(4) 0.4359(4)
N1 N 0.5300(4) 0.6359(3) 0.0823(3)
N2 N 0.6081(5) 0.7117(4) 0.0800(4)
N9 N 0.3522(4) 0.4874(3) 0.0564(3)
N11 N 0.3828(4) 0.4674(3) 0.2062(3)
N27 N 0.3275(5) 0.9447(5) 0.2929(4)
N28 N 0.4090(5) 0.9160(4) 0.3182(4)
N29 N 0.5859(4) 0.7871(3) 0.3054(3)
N30 N 0.5125(4) 0.6950(3) 0.2806(3)
N31 N 0.4597(4) 0.6907(3) 0.3379(3)
N32 N 0.4963(4) 0.7816(3) 0.4022(3)
N34 N 0.7473(4) 0.9728(3) 0.4857(3)
Zn7 Zn 0.41081(5) 0.79647(5) 0.48912(5)
N37 N 0.6401(4) 0.5672(3) 0.2198(3)
Zn2 Zn 0.17041(5) 0.45683(5) 0.57347(4)
C1 C 0.4532(5) 0.5879(4) 0.9995(4)
C2 C 0.2774(5) 0.4381(4) 0.8109(4)
C3 C 0.3546(5) 0.5007(4) 0.9808(4)
C4 C 0.2705(5) 0.4324(4) 0.8971(4)
C5 C 0.1847(5) 0.3441(5) 0.9685(4)
C12 C 0.0945(6) 0.2494(6) 0.9514(5)
C16 C 0.0463(10) 0.0964(7) 0.9539(8)
H8 H 0.0650 0.0510 0.9673
C23 C 0.0713(5) 0.2527(4) 0.4197(4)
C24 C 0.0648(6) 0.1666(5) 0.3599(6)
C25 C 0.1637(7) 0.1593(6) 0.3579(7)
H10 H 0.1615 0.1020 0.3177
C26 C 0.2642(6) 0.2363(5) 0.4151(5)
H11 H 0.3310 0.2323 0.4147
C27 C 0.2639(5) 0.3186(5) 0.4722(4)
H12 H 0.3321 0.3709 0.5116
N3 N 0.5775(5) 0.7084(4) 0.9978(4)
N4 N 0.4779(4) 0.6289(4) 0.9444(3)
N5 N 0.3599(4) 0.4328(3) 0.7802(3)
N6 N 0.3367(4) 0.4379(4) 0.7003(3)
N7 N 0.2426(4) 0.4460(4) 0.6856(3)
N8 N 0.2026(4) 0.4466(4) 0.7538(3)
N10 N 0.1857(4) 0.3567(4) 0.8924(3)
N12 N 0.1310(6) 0.1869(6) 0.9760(5)
N13 N 0.0812(4) 0.5315(3) 0.6304(3)
N14 N 0.1016(4) 0.6163(4) 0.6981(4)
N15 N 0.0048(5) 0.6197(4) 0.6973(4)
N23 N 0.1696(4) 0.3283(3) 0.4748(3)
Zn4 Zn 0.50457(6) 0.42315(5) 0.82476(4)
N39 N 0.2815(4) 0.5613(3) 0.5508(3)
C13 C 0.9886(6) 0.2252(6) 0.9083(5)
H5 H 0.9705 0.2677 0.8892
C14 C 0.9064(8) 0.1392(10) 0.8919(7)
H6 H 0.8317 0.1251 0.8672
C15 C 0.9359(10) 0.0723(9) 0.9128(8)
H7 H 0.8810 0.0115 0.8989
C17 C 0.9701(5) 0.4856(4) 0.5915(4)
C18 C 0.7204(4) 0.3627(4) 0.4629(4)
C19 C 0.9225(5) 0.3886(4) 0.5149(4)
C20 C 0.8099(4) 0.3298(4) 0.4586(4)
C21 C 0.8569(5) 0.2128(4) 0.3747(4)
C22 C 0.9713(5) 0.2714(4) 0.4285(4)
H9 H 0.9959 0.1145 0.3216
C28 C 0.8124(5) 0.1209(4) 0.2901(4)
C29 C 0.8292(7) 0.1235(5) 0.2124(5)
H13 H 0.8745 0.1818 0.2132
C30 C 0.7786(8) 0.0389(6) 0.1323(5)
H14 H 0.7870 0.0393 0.0780
N16 N 0.9193(4) 0.5366(3) 0.6286(3)
N18 N 0.5625(4) 0.3627(4) 0.4652(3)
N19 N 0.6176(4) 0.4369(4) 0.4507(3)
N20 N 0.7185(4) 0.4387(3) 0.4492(3)
N21 N 0.9988(4) 0.3571(3) 0.4987(3)
N22 N 0.7790(4) 0.2418(3) 0.3914(3)
N24 N 0.7498(4) 0.0400(4) 0.2942(4)
Zn5 Zn 0.82959(5) 0.54317(5) 0.42653(4)
C13_2 C 0.0114(6) 0.7748(6) 0.0917(5)
H5_2 H 0.0295 0.7323 0.1108
C14_2 C 0.0936(8) 0.8608(10) 0.1081(7)
H6_2 H 0.1683 0.8749 0.1328
C15_2 C 0.0641(10) 0.9277(9) 0.0872(8)
H7_2 H 0.1190 0.9885 0.1011
C17_2 C 0.0299(5) 0.5144(4) 0.4085(4)
C18_2 C 0.2796(4) 0.6373(4) 0.5371(4)
C19_2 C 0.0775(5) 0.6114(4) 0.4851(4)
C20_2 C 0.1901(4) 0.6702(4) 0.5414(4)
C21_2 C 0.1431(5) 0.7872(4) 0.6253(4)
C22_2 C 0.0287(5) 0.7286(4) 0.5715(4)
H9_2 H 0.0041 0.8855 0.6784
C28_2 C 0.1876(5) 0.8791(4) 0.7099(4)
C29_2 C 0.1708(7) 0.8765(5) 0.7876(5)
H13_2 H 0.1255 0.8182 0.7868
C30_2 C 0.2214(8) 0.9611(6) 0.8677(5)
H14_2 H 0.2130 0.9607 0.9220
N16_2 N 0.0807(4) 0.4634(3) 0.3714(3)
N17 N 0.3747(4) 0.6859(3) 0.5278(3)
N18_2 N 0.4375(4) 0.6373(4) 0.5348(3)
N19_2 N 0.3824(4) 0.5631(4) 0.5493(3)
N21_2 N 0.0012(4) 0.6429(3) 0.5013(3)
N22_2 N 0.2210(4) 0.7582(3) 0.6086(3)
N24_2 N 0.2502(4) 0.9600(4) 0.7058(4)
C1_2 C 0.5468(5) 0.4121(4) 0.0005(4)
C2_2 C 0.7226(5) 0.5619(4) 0.1891(4)
C3_2 C 0.6454(5) 0.4993(4) 0.0192(4)
C4_2 C 0.7295(5) 0.5676(4) 0.1029(4)
C5_2 C 0.8153(5) 0.6559(5) 0.0315(4)
C12_2 C 0.9055(6) 0.7506(6) 0.0486(5)
C16_2 C 0.9537(10) 0.9036(7) 0.0461(8)
H8_2 H 0.9350 0.9490 0.0327
C23_2 C 0.9287(5) 0.7473(4) 0.5803(4)
C24_2 C 0.9352(6) 0.8334(5) 0.6401(6)
C25_2 C 0.8363(7) 0.8407(6) 0.6421(7)
H10_2 H 0.8385 0.8980 0.6823
C26_2 C 0.7358(6) 0.7637(5) 0.5849(5)
H11_2 H 0.6690 0.7677 0.5853
C27_2 C 0.7361(5) 0.6814(5) 0.5278(4)
H12_2 H 0.6679 0.6291 0.4884
N3_2 N 0.4225(5) 0.2916(4) 0.0022(4)
N4_2 N 0.5221(4) 0.3711(4) 0.0556(3)
N6_2 N 0.6633(4) 0.5621(4) 0.2997(3)
N7_2 N 0.7574(4) 0.5540(4) 0.3144(3)
N8_2 N 0.7974(4) 0.5534(4) 0.2462(3)
N10_2 N 0.8143(4) 0.6433(4) 0.1076(3)
N12_2 N 0.8690(6) 0.8131(6) 0.0240(5)
N13_2 N 0.9188(4) 0.4685(3) 0.3696(3)
N14_2 N 0.8984(4) 0.3837(4) 0.3019(4)
N15_2 N 0.9952(5) 0.3803(4) 0.3027(4)
N23_2 N 0.8304(4) 0.6717(3) 0.5252(3)
C6_2 C 0.7310(5) 0.5885(4) 0.9469(4)
C7_2 C 0.7182(5) 0.5907(4) 0.8562(4)
C8_2 C 0.8045(6) 0.6423(5) 0.8350(5)
H1_2 H 0.8759 0.6796 0.8785
C9_2 C 0.7838(7) 0.6381(5) 0.7475(5)
H2_2 H 0.8412 0.6710 0.7310
C10_2 C 0.6759(7) 0.5840(5) 0.6862(5)
H3_2 H 0.6580 0.5839 0.6289
C11_2 C 0.5958(6) 0.5308(5) 0.7105(4)
H4_2 H 0.5239 0.4919 0.6679
C33_2 C 0.5088(5) 0.0021(4) 0.6167(4)
C34_2 C 0.4269(5) 0.1620(4) 0.6200(4)
C36_2 C 0.3587(5) 0.0547(4) 0.5641(4)
N1_2 N 0.4700(4) 0.3641(3) 0.9177(3)
N2_2 N 0.3919(5) 0.2883(4) 0.9200(4)
N9_2 N 0.6478(4) 0.5126(3) 0.9436(3)
N11_2 N 0.6172(4) 0.5326(3) 0.7938(3)
N27_2 N 0.6725(5) 0.0553(5) 0.7071(4)
N28_2 N 0.5910(5) 0.0840(4) 0.6818(4)
N29_2 N 0.4141(4) 0.2129(3) 0.6946(3)
N30_2 N 0.4875(4) 0.3050(3) 0.7194(3)
N31_2 N 0.5403(4) 0.3093(3) 0.6621(3)
N34_2 N 0.2527(4) 0.0272(3) 0.5143(3)
C35_2 C 0.3998(5) 0.9861(4) 0.5614(4)
C37_2 C 0.1891(5) 0.9326(4) 0.4574(4)
C38_2 C 0.2350(5) 0.8651(4) 0.4440(4)
C39_2 C 0.1825(5) 0.7632(4) 0.3699(4)
C40_2 C 0.0865(6) 0.7216(5) 0.2957(5)
H17_2 H 0.0444 0.7557 0.2899
C41_2 C 0.0534(6) 0.6293(5) 0.2301(5)
C42_2 C 0.1144(5) 0.5800(5) 0.2379(4)
H19_2 H 0.0933 0.5178 0.1935
C43_2 C 0.2090(5) 0.6248(5) 0.3138(4)
H20_2 H 0.2505 0.5905 0.3204
C44_2 C 0.0695(5) 0.9054(4) 0.4103(5)
C45_2 C 0.0407(6) 0.9256(6) 0.3378(6)
H21_2 H 0.0958 0.9597 0.3199
N25_2 N 0.5330(4) 0.9263(4) 0.6004(3)
N26_2 N 0.6377(5) 0.9613(5) 0.6576(4)
N33_2 N 0.3376(4) 0.8937(3) 0.4993(3)
N35_2 N 0.2451(4) 0.7146(3) 0.3788(3)
C31 C 0.7159(7) 0.9546(5) 0.1352(5)
H15 H 0.6828 0.8958 0.0831
C32 C 0.7025(6) 0.9580(5) 0.2160(6)
H16 H 0.6582 0.9003 0.2167
C31_2 C 0.2841(7) 0.0454(5) 0.8648(5)
H15_2 H 0.3172 0.1042 0.9169
C32_2 C 0.2975(6) 0.0420(5) 0.7840(6)
H16_2 H 0.3418 0.0997 0.7833
H18_2 H 0.9882 0.6006 0.1799
C46_2 C 0.9304(7) 0.8951(6) 0.2916(6)
H22_2 H 0.9092 0.9083 0.2420
C47_2 C 0.8519(7) 0.8450(6) 0.3197(7)
H23_2 H 0.7764 0.8245 0.2903
C48_2 C 0.8855(7) 0.8256(7) 0.3905(6)
H24_2 H 0.8313 0.7917 0.4091
N36_2 N 0.9947(5) 0.8532(5) 0.4362(4)
loop_
_geom_bond_atom_site_label_1
_geom_bond_atom_site_label_2
_geom_bond_site_symmetry_1
_geom_bond_site_symmetry_2
H22 C46 1_555 1_555
C47 C46 1_555 1_555
H23 C47 1_555 1_555
C48 C47 1_555 1_555
H24 C48 1_555 1_555
C48 N36 1_555 1_555
Zn3 N25 1_555 1_555
C37 C38 1_555 1_555
C38 C39 1_555 1_555
C39 C40 1_555 1_555
C40 H17 1_555 1_555
C41 C40 1_555 1_555
C42 C41 1_555 1_555
H19 C42 1_555 1_555
C43 C42 1_555 1_555
H20 C43 1_555 1_555
C44 C37 1_555 1_555
C45 C44 1_555 1_555
H21 C45 1_555 1_555
N26 N25 1_555 1_555
N33 Zn3 1_555 1_555
N35 Zn3 1_555 1_555
N38 Zn3 1_555 1_555
N40 Zn3 1_555 1_555
C35 N33 1_555 1_555
C38 N33 1_555 1_555
C39 N35 1_555 1_555
C43 N35 1_555 1_555
Zn1 N1 1_555 1_555
C6 C7 1_555 1_555
C7 C8 1_555 1_555
C8 H1 1_555 1_555
C9 C8 1_555 1_555
H2 C9 1_555 1_555
C10 C9 1_555 1_555
H3 C10 1_555 1_555
C11 C10 1_555 1_555
H4 C11 1_555 1_555
C34 C36 1_555 1_555
C36 N34 1_555 1_555
N2 N1 1_555 1_555
N9 Zn1 1_555 1_555
N11 Zn1 1_555 1_555
N28 C33 1_555 1_555
N29 C34 1_555 1_555
N30 Zn1 1_555 1_555
N31 N30 1_555 1_555
N32 C34 1_555 1_555
Zn7 N32 1_555 1_555
N37 Zn1 1_555 1_555
C6 N9 1_555 1_555
C7 N11 1_555 1_555
C11 N11 1_555 1_555
N27 N28 1_555 1_555
N29 N30 1_555 1_555
N31 N32 1_555 1_555
Zn2 N7 1_555 1_555
C1 C3 1_555 1_555
C2 C4 1_555 1_555
C3 C4 1_555 1_555
C4 N10 1_555 1_555
C12 C5 1_555 1_555
H8 C16 1_555 1_555
C23 C24 1_555 1_555
C25 C24 1_555 1_555
H10 C25 1_555 1_555
C26 C25 1_555 1_555
H11 C26 1_555 1_555
C27 C26 1_555 1_555
H12 C27 1_555 1_555
N4 C1 1_555 1_555
N5 C2 1_555 1_555
N6 N5 1_555 1_555
N7 N6 1_555 1_555
N8 C2 1_555 1_555
N10 C5 1_555 1_555
N12 C12 1_555 1_555
N13 Zn2 1_555 1_555
N14 N13 1_555 1_555
N15 N14 1_555 1_555
N23 Zn2 1_555 1_555
Zn4 N5 1_555 1_555
N39 Zn2 1_555 1_555
C16 N12 1_555 1_555
C23 N23 1_555 1_555
C27 N23 1_555 1_555
N3 N4 1_555 1_555
N7 N8 1_555 1_555
H5 C13 1_555 1_555
C14 C13 1_555 1_555
H6 C14 1_555 1_555
C15 C14 1_555 1_555
H7 C15 1_555 1_555
C17 C19 1_555 1_555
C18 C20 1_555 1_555
C19 C20 1_555 1_555
C20 N22 1_555 1_555
C21 C22 1_555 1_555
C28 C21 1_555 1_555
C29 C28 1_555 1_555
H13 C29 1_555 1_555
C30 C29 1_555 1_555
H14 C30 1_555 1_555
N16 C17 1_555 1_555
N38 C18 1_555 1_555
N18 N38 1_555 1_555
N19 N18 1_555 1_555
N20 C18 1_555 1_555
N22 C21 1_555 1_555
N24 C28 1_555 1_555
Zn5 N20 1_555 1_555
C19 N21 1_555 1_555
C22 N21 1_555 1_555
N19 N20 1_555 1_555
H5_2 C13_2 1_555 1_555
C14_2 C13_2 1_555 1_555
H6_2 C14_2 1_555 1_555
C15_2 C14_2 1_555 1_555
H7_2 C15_2 1_555 1_555
C17_2 C19_2 1_555 1_555
C18_2 C20_2 1_555 1_555
C19_2 C20_2 1_555 1_555
C20_2 N22_2 1_555 1_555
C21_2 C22_2 1_555 1_555
C28_2 C21_2 1_555 1_555
C29_2 C28_2 1_555 1_555
H13_2 C29_2 1_555 1_555
C30_2 C29_2 1_555 1_555
H14_2 C30_2 1_555 1_555
N16_2 C17_2 1_555 1_555
N17 C18_2 1_555 1_555
N18_2 N17 1_555 1_555
N19_2 N18_2 1_555 1_555
N39 C18_2 1_555 1_555
N22_2 C21_2 1_555 1_555
N24_2 C28_2 1_555 1_555
Zn7 N17 1_555 1_555
C19_2 N21_2 1_555 1_555
C22_2 N21_2 1_555 1_555
N19_2 N39 1_555 1_555
Zn5 N7_2 1_555 1_555
C1_2 C3_2 1_555 1_555
C2_2 C4_2 1_555 1_555
C3_2 C4_2 1_555 1_555
C4_2 N10_2 1_555 1_555
C12_2 C5_2 1_555 1_555
H8_2 C16_2 1_555 1_555
C23_2 C24_2 1_555 1_555
C25_2 C24_2 1_555 1_555
H10_2 C25_2 1_555 1_555
C26_2 C25_2 1_555 1_555
H11_2 C26_2 1_555 1_555
C27_2 C26_2 1_555 1_555
H12_2 C27_2 1_555 1_555
N4_2 C1_2 1_555 1_555
N37 C2_2 1_555 1_555
N6_2 N37 1_555 1_555
N7_2 N6_2 1_555 1_555
N8_2 C2_2 1_555 1_555
N10_2 C5_2 1_555 1_555
N12_2 C12_2 1_555 1_555
N13_2 Zn5 1_555 1_555
N14_2 N13_2 1_555 1_555
N15_2 N14_2 1_555 1_555
N23_2 Zn5 1_555 1_555
C16_2 N12_2 1_555 1_555
C23_2 N23_2 1_555 1_555
C27_2 N23_2 1_555 1_555
N3_2 N4_2 1_555 1_555
N7_2 N8_2 1_555 1_555
Zn4 N1_2 1_555 1_555
C6_2 C7_2 1_555 1_555
C7_2 C8_2 1_555 1_555
C8_2 H1_2 1_555 1_555
C9_2 C8_2 1_555 1_555
H2_2 C9_2 1_555 1_555
C10_2 C9_2 1_555 1_555
H3_2 C10_2 1_555 1_555
C11_2 C10_2 1_555 1_555
H4_2 C11_2 1_555 1_555
C34_2 C36_2 1_555 1_555
C36_2 N34_2 1_555 1_555
N2_2 N1_2 1_555 1_555
N9_2 Zn4 1_555 1_555
N11_2 Zn4 1_555 1_555
N28_2 C33_2 1_555 1_555
N29_2 C34_2 1_555 1_555
N30_2 Zn4 1_555 1_555
N31_2 N30_2 1_555 1_555
N40 C34_2 1_555 1_555
C6_2 N9_2 1_555 1_555
C7_2 N11_2 1_555 1_555
C11_2 N11_2 1_555 1_555
N27_2 N28_2 1_555 1_555
N29_2 N30_2 1_555 1_555
N31_2 N40 1_555 1_555
Zn7 N25_2 1_555 1_555
C37_2 C38_2 1_555 1_555
C38_2 C39_2 1_555 1_555
C39_2 C40_2 1_555 1_555
C40_2 H17_2 1_555 1_555
C41_2 C40_2 1_555 1_555
C42_2 C41_2 1_555 1_555
H19_2 C42_2 1_555 1_555
C43_2 C42_2 1_555 1_555
H20_2 C43_2 1_555 1_555
C44_2 C37_2 1_555 1_555
C45_2 C44_2 1_555 1_555
H21_2 C45_2 1_555 1_555
N26_2 N25_2 1_555 1_555
N33_2 Zn7 1_555 1_555
N35_2 Zn7 1_555 1_555
C35_2 N33_2 1_555 1_555
C38_2 N33_2 1_555 1_555
C39_2 N35_2 1_555 1_555
C43_2 N35_2 1_555 1_555
H15 C31 1_555 1_555
C32 C31 1_555 1_555
H16 C32 1_555 1_555
H15_2 C31_2 1_555 1_555
C32_2 C31_2 1_555 1_555
H16_2 C32_2 1_555 1_555
H22_2 C46_2 1_555 1_555
C47_2 C46_2 1_555 1_555
H23_2 C47_2 1_555 1_555
C48_2 C47_2 1_555 1_555
H24_2 C48_2 1_555 1_555
C48_2 N36_2 1_555 1_555

#END
