
###############################################################################
#
# This file contains modified crystal structure data generated from the
# MOF subset of the Cambridge Structural Database (CSD) v543 
# hosted by the Cambridge Crystallographic Data Centre (CCDC).
#
# This work is licensed under the Creative Commons
# Attribution-NonCommercial-ShareAlike 4.0 International License.
# To view a copy of this license, visit
# http://creativecommons.org/licenses/by-nc-sa/4.0/
# or send a letter to
# Creative Commons, PO Box 1866, Mountain View, CA 94042, USA.
#
# CIF created using the CSD Python API on 29 September 2022
# The structure has been converted into the P1 space group
# The structure has a 3D framework
# The original CSD entry QARPEI is in the trigonal crystal system
# The original CSD entry QARPEI is in a Sohncke space group
# The framework has been calculated to contain at least 10.0% void space
# The void calculation uses a probe of radius 1.32A, grid spacing 0.4
# H atom positions have been added when not included in the experimental data
#
###############################################################################

data_QARPEI
_chemical_formula_moiety         '(C57 H51 N9 O17 Zn3)n'
_symmetry_cell_setting           triclinic
_symmetry_space_group_name_H-M   'P 1'
_symmetry_Int_Tables_number      1
_space_group_name_Hall           'P 1'
loop_
_symmetry_equiv_pos_site_id
_symmetry_equiv_pos_as_xyz
1 x,y,z
_cell_length_a                   9.4742(6)
_cell_length_b                   9.4742(6)
_cell_length_c                   21.3996(15)
_cell_angle_alpha                90
_cell_angle_beta                 90
_cell_angle_gamma                120
_cell_volume                     1663.49
loop_
_atom_site_label
_atom_site_type_symbol
_atom_site_fract_x
_atom_site_fract_y
_atom_site_fract_z
O2 O 0.0778(8) 0.2983(6) 0.0438(3)
C2 C 0.0831(7) 0.0191(7) 0.0116(2)
H1 H 0.068073 0.034556 0.054386
Zn2 Zn 0.03921(9) 0.46889(7) 0.07361(3)
O3 O 0.0229(6) 0.7611(6) 0.09349(19)
O4 O 0.1305(6) 0.6659(5) 0.02511(19)
C8 C 0.0849(7) 0.7655(7) 0.0420(2)
N4 N 0.1118(7) 0.4767(10) 0.1628(2)
Zn1 Zn 0.53111(7) 0.57032(11) 0.74028(3)
O3_2 O 0.2389(6) 0.2618(8) 0.76016(19)
O4_2 O 0.3341(5) 0.4646(8) 0.69178(19)
N1 N 0.0354(6) 0.1954(9) 0.4888(2)
C1 C 0.1116(6) 0.2136(8) 0.6601(2)
C5 C 0.0241(7) 0.1556(10) 0.5527(3)
C6 C 0.1334(7) 0.2605(10) 0.5975(2)
H3 H 0.222084 0.363289 0.585411
C8_2 C 0.2345(7) 0.3194(10) 0.7087(2)
O5 O 0.2831(7) 0.4307(12) 0.4833(2)
C9 C 0.0565(11) 0.3326(15) 0.1914(3)
C10 C 0.0920(11) 0.3198(15) 0.2527(4)
H5 H 0.050414 0.215439 0.271308
C11 C 0.1888(9) 0.4599(13) 0.2873(3)
C12 C 0.2521(7) 0.6064(11) 0.2569(3)
H6 H 0.324691 0.704349 0.278205
C13 C 0.2108(8) 0.6122(11) 0.1957(3)
H7 H 0.253597 0.715366 0.175887
C14 C 0.2221(9) 0.4519(13) 0.3545(3)
H8 H 0.318567 0.538447 0.372180
C15 C 0.1225(9) 0.3288(13) 0.3907(3)
H9 H 0.027262 0.240199 0.373130
C16 C 0.1569(9) 0.3262(13) 0.4589(3)
N3 N 0.7056(19) 0.2518(24) 0.7837(9)
O6 O 0.6450(11) 0.4432(14) 0.7511(5)
C17 C 0.6080(19) 0.3150(28) 0.7723(9)
H10 H 0.496185 0.247360 0.782688
C18 C 0.882(3) 0.343(4) 0.7839(19)
H11 H 0.924100 0.306012 0.749677
H12 H 0.923052 0.327870 0.823800
H13 H 0.919651 0.459932 0.778151
C19 C 0.621(4) 0.068(6) 0.792(3)
H14 H 0.547143 0.014564 0.756845
H15 H 0.558221 0.037692 0.831101
H16 H 0.702556 0.033593 0.793818
O7 O 0.7017(6) 0.7795(10) 0.7105(3)
N4_2 N 0.5233(10) 0.6351(12) 0.8294(2)
O1 O 0.6614(6) 0.6905(10) 0.6122(2)
C3 C 0.8724(7) 0.9588(10) 0.6332(3)
H2 H 0.824829 0.932500 0.539588
C7 C 0.7336(7) 0.7956(11) 0.6518(3)
C9_2 C 0.6674(15) 0.7239(10) 0.8580(3)
H4 H 0.764347 0.754657 0.835019
C10_2 C 0.6802(15) 0.7722(10) 0.9193(4)
H5_2 H 0.784561 0.834975 0.937974
C11_2 C 0.5401(13) 0.7289(9) 0.9539(3)
C12_2 C 0.3936(11) 0.6457(8) 0.9235(3)
H6_2 H 0.295651 0.620342 0.944871
C13_2 C 0.3878(11) 0.5986(7) 0.8623(3)
H7_2 H 0.284634 0.538231 0.842553
O1_2 O 0.0291(8) 0.3386(6) 0.9455(2)
C3_2 C 0.0864(7) 0.1276(7) 0.9665(3)
C4 C 0.1084(8) 0.1034(7) 0.9038(3)
H2_2 H 0.107671 0.175171 0.872921
C7_2 C 0.0620(8) 0.2664(7) 0.9851(3)
H4_2 H 0.245343 0.009690 0.501686
H17 H 0.175552 0.0592177 0.794972
N1_2 N 0.1600(7) 0.9646(6) 0.8221(2)
C1_2 C 0.1020(6) 0.8884(6) 0.9934(2)
C5_2 C 0.1315(7) 0.9759(7) 0.8860(3)
C6_2 C 0.1271(7) 0.8666(7) 0.9308(2)
H3_2 H 0.141205 0.777916 0.918744
O5_2 O 0.1476(10) 0.7169(7) 0.8166(2)
N2 N 0.3649(7) 0.8882(7) 0.4961(2)
C9_3 C 0.2761(10) 0.9435(11) 0.5247(3)
C10_3 C 0.2278(10) 0.9080(11) 0.5860(4)
H5_3 H 0.165025 0.949586 0.604641
C11_3 C 0.2711(9) 0.8112(9) 0.6206(3)
C12_3 C 0.3543(8) 0.7479(7) 0.5902(3)
H6_3 H 0.379658 0.675309 0.611538
C13_3 C 0.4014(7) 0.7892(8) 0.5290(3)
H7_3 H 0.461769 0.746403 0.509220
C14_2 C 0.2298(9) 0.7779(9) 0.6878(3)
H8_2 H 0.219880 0.681433 0.705513
C15_2 C 0.2063(9) 0.8775(9) 0.7240(3)
H9_2 H 0.212937 0.972738 0.706463
C16_2 C 0.1693(9) 0.8431(9) 0.7922(3)
Zn3 Zn 0.42968(11) 0.96079(9) 0.40694(3)
O1_3 O 0.3095(10) 0.9709(8) 0.2788(2)
O2_2 O 0.2205(10) 0.9222(8) 0.3771(3)
C3_3 C 0.0412(10) 0.9136(7) 0.2998(3)
H2_3 H 0.067500 0.892329 0.206254
C7_3 C 0.2044(11) 0.9380(8) 0.3184(3)
O3_3 O 0.7382(8) 0.9771(6) 0.42682(19)
O4_3 O 0.5354(8) 0.8695(6) 0.35844(19)
N1_3 N 0.8046(9) 0.8400(7) 0.1554(2)
C1_3 C 0.7864(8) 0.8980(6) 0.3267(2)
C2_2 C 0.9360(10) 0.9169(7) 0.3449(2)
H1_2 H 0.966483 0.931927 0.387719
C4_2 C 0.9950(11) 0.8916(8) 0.2371(3)
C5_3 C 0.8444(10) 0.8685(7) 0.2193(3)
C6_3 C 0.7395(10) 0.8729(7) 0.2641(2)
H3_3 H 0.636711 0.858795 0.252077
C8_3 C 0.6806(10) 0.9151(7) 0.3753(2)
O5_3 O 0.5693(12) 0.8524(10) 0.1499(2)
C14_3 C 0.5481(13) 0.7702(9) 0.0211(3)
H8_3 H 0.461553 0.780120 0.038846
C15_3 C 0.6712(13) 0.7937(9) 0.0573(3)
H9_3 H 0.759801 0.787063 0.039796
C16_3 C 0.6738(13) 0.8307(9) 0.1255(3)
H17_2 H 0.883666 0.824448 0.128305
N3_2 N 0.5462(14) 0.2944(19) 0.1170(9)
O6_2 O 0.7982(9) 0.3550(11) 0.0844(5)
C17_2 C 0.707(2) 0.3920(19) 0.1056(9)
H10_2 H 0.751175 0.503815 0.116021
C18_2 C 0.461(3) 0.118(3) 0.1172(19)
H11_2 H 0.381912 0.075900 0.083010
H12_2 H 0.404818 0.076948 0.157133
H13_2 H 0.540281 0.080349 0.111484
C19_2 C 0.447(4) 0.379(4) 0.125(3)
H14_2 H 0.467421 0.452857 0.090178
H15_2 H 0.479471 0.441779 0.164434
H16_2 H 0.331037 0.297444 0.127151
C2_3 C 0.9809(7) 0.0640(10) 0.6783(2)
H1_3 H 0.965444 0.033517 0.721053
C4_3 C 0.8966(7) 0.0050(11) 0.5705(3)
H4_3 H 0.990310 0.235653 0.168353
H17_3 H 0.940782 0.116334 0.461639
N3_3 N 0.7482(24) 0.4538(14) 0.4503(9)
O6_3 O 0.5568(14) 0.2018(9) 0.4177(5)
C17_3 C 0.6850(28) 0.293(2) 0.4389(9)
H10_3 H 0.752640 0.248825 0.449354
C18_3 C 0.657(4) 0.539(3) 0.4505(19)
H11_3 H 0.693988 0.618088 0.416343
H12_3 H 0.672130 0.595182 0.490466
H13_3 H 0.540068 0.459719 0.444817
C19_3 C 0.932(6) 0.553(4) 0.458(3)
H14_3 H 0.985436 0.532579 0.423511
H15_3 H 0.962308 0.520529 0.497767
H16_3 H 0.966407 0.668963 0.460484
loop_
_geom_bond_atom_site_label_1
_geom_bond_atom_site_label_2
_geom_bond_site_symmetry_1
_geom_bond_site_symmetry_2
C2 H1 1_555 1_555
Zn2 O2 1_555 1_555
Zn2 O4 1_555 1_555
O3 C8 1_555 1_555
O4 C8 1_555 1_555
N4 Zn2 1_555 1_555
Zn1 O4_2 1_555 1_555
O3_2 C8_2 1_555 1_555
O4_2 C8_2 1_555 1_555
N1 C5 1_555 1_555
C6 C1 1_555 1_555
H3 C6 1_555 1_555
C8_2 C1 1_555 1_555
O5 C16 1_555 1_555
N4 C9 1_555 1_555
C10 C9 1_555 1_555
H5 C10 1_555 1_555
C11 C10 1_555 1_555
C12 C11 1_555 1_555
H6 C12 1_555 1_555
C13 N4 1_555 1_555
H7 C13 1_555 1_555
C14 C11 1_555 1_555
H8 C14 1_555 1_555
C15 C14 1_555 1_555
H9 C15 1_555 1_555
C16 N1 1_555 1_555
N3 C17 1_555 1_555
O6 Zn1 1_555 1_555
C17 O6 1_555 1_555
H10 C17 1_555 1_555
C18 N3 1_555 1_555
H11 C18 1_555 1_555
H12 C18 1_555 1_555
H13 C18 1_555 1_555
C19 N3 1_555 1_555
H14 C19 1_555 1_555
H15 C19 1_555 1_555
H16 C19 1_555 1_555
O7 Zn1 1_555 1_555
N4_2 Zn1 1_555 1_555
C5 C6 1_555 1_555
C12 C13 1_555 1_555
C15 C16 1_555 1_555
O1 C7 1_555 1_555
O7 C7 1_555 1_555
C7 C3 1_555 1_555
N4_2 C9_2 1_555 1_555
C9_2 H4 1_555 1_555
C10_2 C9_2 1_555 1_555
H5_2 C10_2 1_555 1_555
C11_2 C10_2 1_555 1_555
C12_2 C11_2 1_555 1_555
H6_2 C12_2 1_555 1_555
C13_2 N4_2 1_555 1_555
H7_2 C13_2 1_555 1_555
C12_2 C13_2 1_555 1_555
O1_2 C7_2 1_555 1_555
C4 C3_2 1_555 1_555
H2_2 C4 1_555 1_555
C7_2 C3_2 1_555 1_555
N1_2 C5_2 1_555 1_555
C6_2 C1_2 1_555 1_555
H3_2 C6_2 1_555 1_555
O5_2 C16_2 1_555 1_555
N2 C9_3 1_555 1_555
C10_3 C9_3 1_555 1_555
H5_3 C10_3 1_555 1_555
C11_3 C10_3 1_555 1_555
C12_3 C11_3 1_555 1_555
H6_3 C12_3 1_555 1_555
C13_3 N2 1_555 1_555
H7_3 C13_3 1_555 1_555
C14_2 C11_3 1_555 1_555
H8_2 C14_2 1_555 1_555
C15_2 C14_2 1_555 1_555
H9_2 C15_2 1_555 1_555
C16_2 N1_2 1_555 1_555
Zn3 N2 1_555 1_555
C5_2 C6_2 1_555 1_555
C12_3 C13_3 1_555 1_555
C15_2 C16_2 1_555 1_555
O1_3 C7_3 1_555 1_555
O2_2 C7_3 1_555 1_555
C7_3 C3_3 1_555 1_555
Zn3 O2_2 1_555 1_555
Zn3 O4_3 1_555 1_555
O3_3 C8_3 1_555 1_555
O4_3 C8_3 1_555 1_555
N1_3 C5_3 1_555 1_555
C1_3 C2_2 1_555 1_555
C2_2 H1_2 1_555 1_555
C5_3 C4_2 1_555 1_555
C6_3 C1_3 1_555 1_555
H3_3 C6_3 1_555 1_555
C8_3 C1_3 1_555 1_555
O5_3 C16_3 1_555 1_555
H8_3 C14_3 1_555 1_555
C15_3 C14_3 1_555 1_555
H9_3 C15_3 1_555 1_555
C16_3 N1_3 1_555 1_555
C5_3 C6_3 1_555 1_555
C15_3 C16_3 1_555 1_555
N1_3 H17_2 1_555 1_555
N3_2 C17_2 1_555 1_555
C17_2 O6_2 1_555 1_555
H10_2 C17_2 1_555 1_555
C18_2 N3_2 1_555 1_555
H11_2 C18_2 1_555 1_555
H12_2 C18_2 1_555 1_555
H13_2 C18_2 1_555 1_555
C19_2 N3_2 1_555 1_555
H14_2 C19_2 1_555 1_555
H15_2 C19_2 1_555 1_555
H16_2 C19_2 1_555 1_555
C2_3 H1_3 1_555 1_555
N3_3 C17_3 1_555 1_555
C17_3 O6_3 1_555 1_555
H10_3 C17_3 1_555 1_555
C18_3 N3_3 1_555 1_555
H11_3 C18_3 1_555 1_555
H12_3 C18_3 1_555 1_555
H13_3 C18_3 1_555 1_555
C19_3 N3_3 1_555 1_555
H14_3 C19_3 1_555 1_555
H15_3 C19_3 1_555 1_555
H16_3 C19_3 1_555 1_555

#END
