
###############################################################################
#
# This file contains modified crystal structure data generated from the
# MOF subset of the Cambridge Structural Database (CSD) v543 
# hosted by the Cambridge Crystallographic Data Centre (CCDC).
#
# This work is licensed under the Creative Commons
# Attribution-NonCommercial-ShareAlike 4.0 International License.
# To view a copy of this license, visit
# http://creativecommons.org/licenses/by-nc-sa/4.0/
# or send a letter to
# Creative Commons, PO Box 1866, Mountain View, CA 94042, USA.
#
# CIF created using the CSD Python API on 29 September 2022
# The structure has been converted into the P1 space group
# The structure has a 3D framework
# The original CSD entry QARPUY is in the monoclinic crystal system
# The framework has been calculated to contain at least 10.0% void space
# The void calculation uses a probe of radius 1.32A, grid spacing 0.4
# The framework is charged, counterions have been retained in the structure
#
###############################################################################

data_QARPUY
_chemical_formula_moiety         '(C88 H64 In6 N12 O54 2-)n'
_symmetry_cell_setting           triclinic
_symmetry_space_group_name_H-M   'P 1'
_symmetry_Int_Tables_number      1
_space_group_name_Hall           'P 1'
loop_
_symmetry_equiv_pos_site_id
_symmetry_equiv_pos_as_xyz
1 x,y,z
_cell_length_a                   14.7525(9)
_cell_length_b                   13.4504(10)
_cell_length_c                   23.9570(16)
_cell_angle_alpha                90
_cell_angle_beta                 103.696(3)
_cell_angle_gamma                90
_cell_volume                     4618.55
loop_
_atom_site_label
_atom_site_type_symbol
_atom_site_fract_x
_atom_site_fract_y
_atom_site_fract_z
C1 C 0.4082(12) 0.4405(16) 0.4007(10)
H1 H 0.4442 0.4827 0.4300
H2 H 0.3459 0.4662 0.3885
H3 H 0.4061 0.3746 0.4157
N1 N 0.4517(14) 0.4374(16) 0.3513(8)
H4 H 0.5098 0.4149 0.3631
H5 H 0.4546 0.4989 0.3382
C2 C 0.4005(17) 0.374(2) 0.3040(10)
H6 H 0.4318 0.3747 0.2732
H7 H 0.3984 0.3071 0.3177
H8 H 0.3382 0.3987 0.2905
C1_2 C 0.0918(12) 0.4405(16) 0.0993(10)
H1_2 H 0.0558 0.4827 0.0700
H2_2 H 0.1541 0.4662 0.1115
H3_2 H 0.0939 0.3746 0.0843
N1_2 N 0.0483(14) 0.4374(16) 0.1487(8)
H5_2 H 0.0454 0.4989 0.1618
C2_2 C 0.0995(17) 0.374(2) 0.1960(10)
H6_2 H 0.0682 0.3747 0.2268
H7_2 H 0.1016 0.3071 0.1823
H8_2 H 0.1618 0.3987 0.2095
H4_2 H 0.9902 0.4149 0.1369
C1_3 C 0.5918(12) 0.5595(16) 0.5993(10)
H1_3 H 0.5558 0.5173 0.5700
H2_3 H 0.6541 0.5338 0.6115
H3_3 H 0.5939 0.6254 0.5843
N1_3 N 0.5483(14) 0.5626(16) 0.6487(8)
H4_3 H 0.4902 0.5851 0.6369
H5_3 H 0.5454 0.5011 0.6618
C2_3 C 0.5995(17) 0.626(2) 0.6960(10)
H6_3 H 0.5682 0.6253 0.7268
H7_3 H 0.6016 0.6929 0.6823
H8_3 H 0.6618 0.6013 0.7095
H4_4 H 0.0098 0.5851 0.8631
C1_4 C 0.9082(12) 0.5595(16) 0.9007(10)
H1_4 H 0.9442 0.5173 0.9300
H2_4 H 0.8459 0.5338 0.8885
H3_4 H 0.9061 0.6254 0.9157
N1_4 N 0.9517(14) 0.5626(16) 0.8513(8)
H5_4 H 0.9546 0.5011 0.8382
C2_4 C 0.9005(17) 0.626(2) 0.8040(10)
H6_4 H 0.9318 0.6253 0.7732
H7_4 H 0.8984 0.6929 0.8177
H8_4 H 0.8382 0.6013 0.7905
In2 In 0.26912(3) 0.53633(5) 0.54892(3)
O5 O 0.1611(3) 0.6241(5) 0.5824(3)
O6 O 0.3430(3) 0.6081(5) 0.6290(3)
O7 O 0.3222(4) 0.6847(6) 0.7101(3)
O8 O 0.6102(4) 0.4014(5) 0.4835(3)
O9 O 0.7449(4) 0.3236(5) 0.5095(3)
O10 O 0.7761(5) 0.0491(6) 0.6609(4)
O11 O 0.6557(5) 0.0272(5) 0.7011(3)
O12 O 0.3877(4) 0.4217(5) 0.5808(3)
O13 O 0.2147(4) 0.4214(6) 0.5975(3)
O14 O 0.2327(6) 0.2678(8) 0.6278(6)
H10 H 0.0152 0.5727 0.5864
C8 C 0.0334(5) 0.6714(7) 0.6513(4)
H11 H 0.0206 0.7704 0.7128
C11 C 0.1888(5) 0.6440(7) 0.6332(4)
C12 C 0.2950(6) 0.6460(8) 0.6618(4)
C13 C 0.6625(6) 0.3349(7) 0.5140(4)
C14 C 0.6228(6) 0.2751(7) 0.5543(4)
C15 C 0.6766(6) 0.2032(8) 0.5881(5)
H12 H 0.7380 0.1928 0.5859
C16 C 0.6383(7) 0.1464(8) 0.6254(5)
C17 C 0.5490(7) 0.1696(9) 0.6330(5)
H13 H 0.5260 0.1364 0.6608
C18 C 0.4956(7) 0.2409(8) 0.5996(6)
C19 C 0.5325(7) 0.2960(8) 0.5596(5)
H14 H 0.4971 0.3452 0.5372
C20 C 0.6956(7) 0.0670(8) 0.6636(5)
C21 C 0.3581(6) 0.3442(8) 0.5982(5)
C22 C 0.2597(6) 0.3420(10) 0.6092(6)
N2 N 0.1323(4) 0.6690(7) 0.6678(3)
H15 H 0.1585 0.6847 0.7027
N3 N 0.4061(6) 0.2620(7) 0.6084(4)
H16 H 0.3798 0.2141 0.6225
In7 In 0.73088(3) 0.46367(5) 0.45108(3)
O29 O 0.2538(4) 0.4297(6) 0.4752(3)
O31 O 0.1239(4) 0.5031(6) 0.4831(3)
O33 O 0.3898(4) 0.5986(5) 0.5165(3)
O35 O 0.2551(4) 0.6764(5) 0.4905(3)
In5 In 0.7500 0.92781(7) 0.7500
O38 O 0.8443(5) 0.0272(5) 0.7989(3)
In9 In 0.76912(3) 0.46367(5) 0.04892(3)
O30 O 0.2462(4) 0.4297(6) 0.0248(3)
O32 O 0.3761(4) 0.5031(6) 0.0169(3)
O36 O 0.2449(4) 0.6764(5) 0.0095(3)
O1 O 0.8838(4) 0.8600(5) 0.7373(3)
O2 O 0.7511(4) 0.8144(5) 0.6825(3)
O3 O 0.7462(4) 0.5703(6) 0.5248(3)
O4 O 0.8761(4) 0.4969(6) 0.5169(3)
C3 C 0.8399(6) 0.8076(7) 0.6969(4)
C4 C 0.8900(5) 0.7367(8) 0.6662(4)
C5 C 0.8400(6) 0.6783(7) 0.6210(4)
H9 H 0.7751 0.6806 0.6108
C6 C 0.8874(5) 0.6176(7) 0.5917(4)
C7 C 0.9837(5) 0.6139(8) 0.6066(4)
C9 C 0.9874(5) 0.7328(7) 0.6822(4)
C10 C 0.8349(6) 0.5569(8) 0.5418(4)
In3 In 0.23088(3) 0.53633(5) 0.95108(3)
O15 O 0.6162(4) 0.8600(5) 0.7627(3)
O16 O 0.7489(4) 0.8144(5) 0.8175(3)
O17 O 0.7538(4) 0.5703(6) 0.9752(3)
O18 O 0.6239(4) 0.4969(6) 0.9831(3)
O19 O 0.3389(3) 0.6241(5) 0.9176(3)
O20 O 0.1570(3) 0.6081(5) 0.8710(3)
O21 O 0.1778(4) 0.6847(6) 0.7899(3)
O26 O 0.1123(4) 0.4217(5) 0.9192(3)
O27 O 0.2853(4) 0.4214(6) 0.9025(3)
O28 O 0.2673(6) 0.2678(8) 0.8722(6)
C23 C 0.6601(6) 0.8076(7) 0.8031(4)
C24 C 0.6100(5) 0.7367(8) 0.8338(4)
C25 C 0.6600(6) 0.6783(7) 0.8790(4)
H17 H 0.7249 0.6806 0.8892
C26 C 0.6126(5) 0.6176(7) 0.9083(4)
C27 C 0.5163(5) 0.6139(8) 0.8934(4)
H18 H 0.4848 0.5727 0.9136
C28 C 0.4666(5) 0.6714(7) 0.8487(4)
C29 C 0.5126(5) 0.7328(7) 0.8178(4)
H19 H 0.4794 0.7704 0.7872
C30 C 0.6651(6) 0.5569(8) 0.9582(4)
C31 C 0.3112(5) 0.6440(7) 0.8668(4)
C32 C 0.2050(6) 0.6460(8) 0.8382(4)
C38 C 0.0044(7) 0.2409(8) 0.9004(6)
H22 H 0.0029 0.3452 0.9628
C41 C 0.1419(6) 0.3442(8) 0.9018(5)
C42 C 0.2403(6) 0.3420(10) 0.8908(6)
N4 N 0.3677(4) 0.6690(7) 0.8322(3)
H23 H 0.3415 0.6847 0.7973
N5 N 0.0939(6) 0.2620(7) 0.8916(4)
H24 H 0.1202 0.2141 0.8775
O34 O 0.1102(4) 0.5986(5) 0.9835(3)
O22 O 0.8898(4) 0.4014(5) 0.0165(3)
O23 O 0.7551(4) 0.3236(5) 0.9905(3)
O24 O 0.7239(5) 0.0491(6) 0.8391(4)
C33 C 0.8375(6) 0.3349(7) 0.9860(4)
C34 C 0.8772(6) 0.2751(7) 0.9457(4)
C35 C 0.8234(6) 0.2032(8) 0.9119(5)
H20 H 0.7620 0.1928 0.9141
C36 C 0.8617(7) 0.1464(8) 0.8746(5)
C37 C 0.9510(7) 0.1696(9) 0.8670(5)
H21 H 0.9740 0.1364 0.8392
C39 C 0.9675(7) 0.2960(8) 0.9404(5)
C40 C 0.8044(7) 0.0670(8) 0.8364(5)
In4 In 0.2500 0.07219(7) 0.2500
O24_2 O 0.2761(5) 0.9509(6) 0.1609(4)
O25 O 0.1557(5) 0.9728(5) 0.2011(3)
C33_2 C 0.1625(6) 0.6651(7) 0.0140(4)
C34_2 C 0.1228(6) 0.7249(7) 0.0543(4)
C35_2 C 0.1766(6) 0.7968(8) 0.0881(5)
H20_2 H 0.2380 0.8072 0.0859
C36_2 C 0.1383(7) 0.8536(8) 0.1254(5)
C37_2 C 0.0490(7) 0.8304(9) 0.1330(5)
H21_2 H 0.0260 0.8636 0.1608
C39_2 C 0.0325(7) 0.7040(8) 0.0596(5)
C40_2 C 0.1956(7) 0.9330(8) 0.1636(5)
O1_2 O 0.1162(4) 0.1400(5) 0.2627(3)
O2_2 O 0.2489(4) 0.1856(5) 0.3175(3)
C3_2 C 0.1601(6) 0.1924(7) 0.3031(4)
C4_2 C 0.1100(5) 0.2633(8) 0.3338(4)
C5_2 C 0.1600(6) 0.3217(7) 0.3790(4)
H9_2 H 0.2249 0.3194 0.3892
C6_2 C 0.1126(5) 0.3824(7) 0.4083(4)
C7_2 C 0.0163(5) 0.3861(8) 0.3934(4)
C9_2 C 0.0126(5) 0.2672(7) 0.3178(4)
C10_2 C 0.1651(6) 0.4431(8) 0.4582(4)
O15_2 O 0.3838(4) 0.1400(5) 0.2373(3)
O16_2 O 0.2511(4) 0.1856(5) 0.1825(3)
O19_2 O 0.6611(3) 0.3759(5) 0.0824(3)
O20_2 O 0.8430(3) 0.3919(5) 0.1290(3)
O21_2 O 0.8222(4) 0.3153(6) 0.2101(3)
O26_2 O 0.8877(4) 0.5783(5) 0.0808(3)
O27_2 O 0.7147(4) 0.5786(6) 0.0975(3)
O28_2 O 0.7327(6) 0.7322(8) 0.1278(6)
C23_2 C 0.3399(6) 0.1924(7) 0.1969(4)
C24_2 C 0.3900(5) 0.2633(8) 0.1662(4)
C25_2 C 0.3400(6) 0.3217(7) 0.1210(4)
H17_2 H 0.2751 0.3194 0.1108
C26_2 C 0.3874(5) 0.3824(7) 0.0917(4)
C27_2 C 0.4837(5) 0.3861(8) 0.1066(4)
H18_2 H 0.5152 0.4273 0.0864
C28_2 C 0.5334(5) 0.3286(7) 0.1513(4)
C29_2 C 0.4874(5) 0.2672(7) 0.1822(4)
H19_2 H 0.5206 0.2296 0.2128
C30_2 C 0.3349(6) 0.4431(8) 0.0418(4)
C31_2 C 0.6888(5) 0.3560(7) 0.1332(4)
C32_2 C 0.7950(6) 0.3540(8) 0.1618(4)
C38_2 C 0.9956(7) 0.7591(8) 0.0996(6)
H22_2 H 0.9971 0.6548 0.0372
C41_2 C 0.8581(6) 0.6558(8) 0.0982(5)
C42_2 C 0.7597(6) 0.6580(10) 0.1092(6)
N4_2 N 0.6323(4) 0.3310(7) 0.1678(3)
H23_2 H 0.6585 0.3153 0.2027
N5_2 N 0.9061(6) 0.7380(7) 0.1084(4)
H24_2 H 0.8798 0.7859 0.1225
O37 O 0.3443(5) 0.9728(5) 0.2989(3)
O5_2 O 0.8389(3) 0.3759(5) 0.4176(3)
O6_2 O 0.6570(3) 0.3919(5) 0.3710(3)
O7_2 O 0.6778(4) 0.3153(6) 0.2899(3)
O10_2 O 0.2239(5) 0.9509(6) 0.3391(4)
O12_2 O 0.6123(4) 0.5783(5) 0.4192(3)
O13_2 O 0.7853(4) 0.5786(6) 0.4025(3)
O14_2 O 0.7673(6) 0.7322(8) 0.3722(6)
H10_2 H 0.9848 0.4273 0.4136
C8_2 C 0.9666(5) 0.3286(7) 0.3487(4)
H11_2 H 0.9794 0.2296 0.2872
C11_2 C 0.8112(5) 0.3560(7) 0.3668(4)
C12_2 C 0.7050(6) 0.3540(8) 0.3382(4)
C13_2 C 0.3375(6) 0.6651(7) 0.4860(4)
C14_2 C 0.3772(6) 0.7249(7) 0.4457(4)
C15_2 C 0.3234(6) 0.7968(8) 0.4119(5)
H12_2 H 0.2620 0.8072 0.4141
C16_2 C 0.3617(7) 0.8536(8) 0.3746(5)
C17_2 C 0.4510(7) 0.8304(9) 0.3670(5)
H13_2 H 0.4740 0.8636 0.3392
C18_2 C 0.5044(7) 0.7591(8) 0.4004(6)
C19_2 C 0.4675(7) 0.7040(8) 0.4404(5)
H14_2 H 0.5029 0.6548 0.4628
C20_2 C 0.3044(7) 0.9330(8) 0.3364(5)
C21_2 C 0.6419(6) 0.6558(8) 0.4018(5)
C22_2 C 0.7403(6) 0.6580(10) 0.3908(6)
N2_2 N 0.8677(4) 0.3310(7) 0.3322(3)
H15_2 H 0.8415 0.3153 0.2973
N3_2 N 0.5939(6) 0.7380(7) 0.3916(4)
H16_2 H 0.6202 0.7859 0.3775
loop_
_geom_bond_atom_site_label_1
_geom_bond_atom_site_label_2
_geom_bond_site_symmetry_1
_geom_bond_site_symmetry_2
C1 H1 1_555 1_555
H2 C1 1_555 1_555
H3 C1 1_555 1_555
N1 C1 1_555 1_555
H4 N1 1_555 1_555
H5 N1 1_555 1_555
C2 N1 1_555 1_555
H6 C2 1_555 1_555
H7 C2 1_555 1_555
H8 C2 1_555 1_555
C1_2 H1_2 1_555 1_555
H2_2 C1_2 1_555 1_555
H3_2 C1_2 1_555 1_555
N1_2 C1_2 1_555 1_555
H5_2 N1_2 1_555 1_555
C2_2 N1_2 1_555 1_555
H6_2 C2_2 1_555 1_555
H7_2 C2_2 1_555 1_555
H8_2 C2_2 1_555 1_555
C1_3 H1_3 1_555 1_555
H2_3 C1_3 1_555 1_555
H3_3 C1_3 1_555 1_555
N1_3 C1_3 1_555 1_555
H4_3 N1_3 1_555 1_555
H5_3 N1_3 1_555 1_555
C2_3 N1_3 1_555 1_555
H6_3 C2_3 1_555 1_555
H7_3 C2_3 1_555 1_555
H8_3 C2_3 1_555 1_555
C1_4 H1_4 1_555 1_555
H2_4 C1_4 1_555 1_555
H3_4 C1_4 1_555 1_555
N1_4 C1_4 1_555 1_555
H5_4 N1_4 1_555 1_555
C2_4 N1_4 1_555 1_555
H6_4 C2_4 1_555 1_555
H7_4 C2_4 1_555 1_555
H8_4 C2_4 1_555 1_555
In2 O5 1_555 1_555
O5 C11 1_555 1_555
O6 In2 1_555 1_555
O7 C12 1_555 1_555
O8 C13 1_555 1_555
O9 C13 1_555 1_555
O10 C20 1_555 1_555
O11 C20 1_555 1_555
O12 In2 1_555 1_555
O13 In2 1_555 1_555
O14 C22 1_555 1_555
C11 C12 1_555 1_555
C12 O6 1_555 1_555
C13 C14 1_555 1_555
C14 C15 1_555 1_555
C15 H12 1_555 1_555
C16 C15 1_555 1_555
C17 C16 1_555 1_555
H13 C17 1_555 1_555
C18 C17 1_555 1_555
C19 C14 1_555 1_555
H14 C19 1_555 1_555
C20 C16 1_555 1_555
C21 O12 1_555 1_555
C22 O13 1_555 1_555
N2 C8 1_555 1_555
H15 N2 1_555 1_555
N3 C18 1_555 1_555
H16 N3 1_555 1_555
In7 O8 1_555 1_555
O29 In2 1_555 1_555
O31 In2 1_555 1_555
O33 In2 1_555 1_555
O35 In2 1_555 1_555
O9 In7 1_555 1_555
C11 N2 1_555 1_555
C18 C19 1_555 1_555
C21 C22 1_555 1_555
C21 N3 1_555 1_555
In5 O1 1_555 1_555
O1 C3 1_555 1_555
O2 In5 1_555 1_555
O3 C10 1_555 1_555
O4 C10 1_555 1_555
C3 O2 1_555 1_555
C4 C3 1_555 1_555
C5 C4 1_555 1_555
H9 C5 1_555 1_555
C6 C5 1_555 1_555
C7 C6 1_555 1_555
C9 C4 1_555 1_555
C10 C6 1_555 1_555
In3 O19 1_555 1_555
O15 In5 1_555 1_555
O16 In5 1_555 1_555
O17 C30 1_555 1_555
O18 C30 1_555 1_555
O19 C31 1_555 1_555
O20 In3 1_555 1_555
O21 C32 1_555 1_555
O26 In3 1_555 1_555
O27 In3 1_555 1_555
O28 C42 1_555 1_555
C23 O15 1_555 1_555
C24 C23 1_555 1_555
C25 C24 1_555 1_555
H17 C25 1_555 1_555
C26 C25 1_555 1_555
C27 C26 1_555 1_555
H18 C27 1_555 1_555
C28 C27 1_555 1_555
C29 C24 1_555 1_555
H19 C29 1_555 1_555
C30 C26 1_555 1_555
C31 C32 1_555 1_555
C32 O20 1_555 1_555
C41 O26 1_555 1_555
C42 O27 1_555 1_555
N4 C28 1_555 1_555
H23 N4 1_555 1_555
N5 C38 1_555 1_555
H24 N5 1_555 1_555
In7 O3 1_555 1_555
O34 In3 1_555 1_555
O4 In7 1_555 1_555
O16 C23 1_555 1_555
C28 C29 1_555 1_555
C31 N4 1_555 1_555
C41 C42 1_555 1_555
C41 N5 1_555 1_555
In9 O22 1_555 1_555
O23 C33 1_555 1_555
O24 C40 1_555 1_555
O38 C40 1_555 1_555
C33 C34 1_555 1_555
C34 C35 1_555 1_555
C35 H20 1_555 1_555
C36 C35 1_555 1_555
C37 C36 1_555 1_555
H21 C37 1_555 1_555
C39 C34 1_555 1_555
C40 C36 1_555 1_555
O36 C33_2 1_555 1_555
O24_2 C40_2 1_555 1_555
O25 C40_2 1_555 1_555
C33_2 C34_2 1_555 1_555
C34_2 C35_2 1_555 1_555
C35_2 H20_2 1_555 1_555
C36_2 C35_2 1_555 1_555
C37_2 C36_2 1_555 1_555
H21_2 C37_2 1_555 1_555
C39_2 C34_2 1_555 1_555
C40_2 C36_2 1_555 1_555
In4 O1_2 1_555 1_555
O1_2 C3_2 1_555 1_555
O2_2 In4 1_555 1_555
O29 C10_2 1_555 1_555
O31 C10_2 1_555 1_555
C3_2 O2_2 1_555 1_555
C4_2 C3_2 1_555 1_555
C5_2 C4_2 1_555 1_555
H9_2 C5_2 1_555 1_555
C6_2 C5_2 1_555 1_555
C7_2 C6_2 1_555 1_555
C9_2 C4_2 1_555 1_555
C10_2 C6_2 1_555 1_555
In9 O19_2 1_555 1_555
O15_2 In4 1_555 1_555
O16_2 In4 1_555 1_555
O30 C30_2 1_555 1_555
O32 C30_2 1_555 1_555
O19_2 C31_2 1_555 1_555
O20_2 In9 1_555 1_555
O21_2 C32_2 1_555 1_555
O26_2 In9 1_555 1_555
O27_2 In9 1_555 1_555
O28_2 C42_2 1_555 1_555
C23_2 O15_2 1_555 1_555
C24_2 C23_2 1_555 1_555
C25_2 C24_2 1_555 1_555
H17_2 C25_2 1_555 1_555
C26_2 C25_2 1_555 1_555
C27_2 C26_2 1_555 1_555
H18_2 C27_2 1_555 1_555
C28_2 C27_2 1_555 1_555
C29_2 C24_2 1_555 1_555
H19_2 C29_2 1_555 1_555
C30_2 C26_2 1_555 1_555
C31_2 C32_2 1_555 1_555
C32_2 O20_2 1_555 1_555
C41_2 O26_2 1_555 1_555
C42_2 O27_2 1_555 1_555
N4_2 C28_2 1_555 1_555
H23_2 N4_2 1_555 1_555
N5_2 C38_2 1_555 1_555
H24_2 N5_2 1_555 1_555
O16_2 C23_2 1_555 1_555
C28_2 C29_2 1_555 1_555
C31_2 N4_2 1_555 1_555
C41_2 C42_2 1_555 1_555
C41_2 N5_2 1_555 1_555
In7 O5_2 1_555 1_555
O5_2 C11_2 1_555 1_555
O6_2 In7 1_555 1_555
O7_2 C12_2 1_555 1_555
O33 C13_2 1_555 1_555
O35 C13_2 1_555 1_555
O10_2 C20_2 1_555 1_555
O37 C20_2 1_555 1_555
O12_2 In7 1_555 1_555
O13_2 In7 1_555 1_555
O14_2 C22_2 1_555 1_555
C11_2 C12_2 1_555 1_555
C12_2 O6_2 1_555 1_555
C13_2 C14_2 1_555 1_555
C14_2 C15_2 1_555 1_555
C15_2 H12_2 1_555 1_555
C16_2 C15_2 1_555 1_555
C17_2 C16_2 1_555 1_555
H13_2 C17_2 1_555 1_555
C18_2 C17_2 1_555 1_555
C19_2 C14_2 1_555 1_555
H14_2 C19_2 1_555 1_555
C20_2 C16_2 1_555 1_555
C21_2 O12_2 1_555 1_555
C22_2 O13_2 1_555 1_555
N2_2 C8_2 1_555 1_555
H15_2 N2_2 1_555 1_555
N3_2 C18_2 1_555 1_555
H16_2 N3_2 1_555 1_555
C11_2 N2_2 1_555 1_555
C18_2 C19_2 1_555 1_555
C21_2 C22_2 1_555 1_555
C21_2 N3_2 1_555 1_555

#END
