
###############################################################################
#
# This file contains modified crystal structure data generated from the
# MOF subset of the Cambridge Structural Database (CSD) v543 
# hosted by the Cambridge Crystallographic Data Centre (CCDC).
#
# This work is licensed under the Creative Commons
# Attribution-NonCommercial-ShareAlike 4.0 International License.
# To view a copy of this license, visit
# http://creativecommons.org/licenses/by-nc-sa/4.0/
# or send a letter to
# Creative Commons, PO Box 1866, Mountain View, CA 94042, USA.
#
# CIF created using the CSD Python API on 29 September 2022
# The structure has been converted into the P1 space group
# The structure has a 3D framework
# The original CSD entry QARQAF is in the triclinic crystal system
# The original CSD entry QARQAF is in a Sohncke space group
# The framework has been calculated to contain at least 10.0% void space
# The void calculation uses a probe of radius 1.32A, grid spacing 0.4
#
###############################################################################

data_QARQAF
_chemical_formula_moiety         '(C18 H24 N8 O6 Zn2)n'
_symmetry_cell_setting           triclinic
_symmetry_space_group_name_H-M   'P 1'
_symmetry_Int_Tables_number      1
_space_group_name_Hall           'P 1'
loop_
_symmetry_equiv_pos_site_id
_symmetry_equiv_pos_as_xyz
1 x,y,z
_cell_length_a                   9.08390(10)
_cell_length_b                   9.5608(2)
_cell_length_c                   9.59940(10)
_cell_angle_alpha                119.009(2)
_cell_angle_beta                 90.2080(10)
_cell_angle_gamma                95.6110(10)
_cell_volume                     724.366
loop_
_atom_site_label
_atom_site_type_symbol
_atom_site_fract_x
_atom_site_fract_y
_atom_site_fract_z
_atom_site_U_iso_or_equiv
_atom_site_thermal_displace_type
N4 N 0.1182(5) 0.1701(5) 0.6103(5) 0.0181 Uani
H4 H 0.025843 0.121585 0.583645 0.0220 Uiso
H5 H 0.157224 0.164962 0.523238 0.0220 Uiso
C10 C 0.2056(6) 0.0855(6) 0.6698(7) 0.0228 Uani
H16 H 0.168748 0.101377 0.770553 0.0270 Uiso
H17 H 0.307893 0.133613 0.690036 0.0270 Uiso
Zn4 Zn 0.11511(4) 0.40529(4) 0.77874(4) 0.0119 Uani
N6 N 0.5123(4) 0.5770(5) 0.0492(5) 0.0154 Uani
C9 C 0.3754(7) 0.5010(8) 0.0018(7) 0.0166 Uani
H15 H 0.323449 0.451942 0.052922 0.0200 Uiso
Zn7 Zn 0.63875(4) 0.58847(4) 0.22272(4) 0.0120 Uani
O1 O 0.3620(4) 0.1210(5) 0.3905(5) 0.0256 Uani
O2 O 0.5682(4) 0.4974(5) 0.3548(4) 0.0185 Uani
O3 O 0.3354(4) 0.5562(5) 0.3608(5) 0.0225 Uani
O5 O 0.0660(4) 0.5203(4) 0.6672(4) 0.0181 Uani
N2 N 0.5167(4) 0.3523(4) 0.5312(4) 0.0141 Uani
H3 H 0.602305 0.394484 0.579978 0.0170 Uiso
N3 N 0.3201(4) 0.5026(5) 0.8714(4) 0.0160 Uani
N5 N 0.0504(4) 0.6560(4) 0.4812(4) 0.0140 Uani
H6 H 0.129156 0.613998 0.438656 0.0170 Uiso
C2 C 0.6121(7) 0.1028(7) 0.4589(9) 0.0309 Uani
H9 H 0.691814 0.122678 0.401479 0.0370 Uiso
H10 H 0.648921 0.145678 0.568605 0.0370 Uiso
C3 C 0.4851(5) 0.1918(6) 0.4562(6) 0.0184 Uani
C4 C 0.4111(4) 0.4566(5) 0.5325(5) 0.0126 Uani
H11 H 0.310917 0.400424 0.514888 0.0150 Uiso
C5 C 0.4365(5) 0.5055(5) 0.4028(5) 0.0147 Uani
C6 C 0.4221(5) 0.6133(5) 0.6940(5) 0.0138 Uani
H12 H 0.509193 0.683093 0.698502 0.0170 Uiso
H13 H 0.336010 0.668513 0.701188 0.0170 Uiso
C7 C 0.4315(5) 0.5853(5) 0.8339(5) 0.0128 Uani
C8 C 0.5483(5) 0.6303(5) 0.9418(5) 0.0155 Uani
H14 H 0.637688 0.687422 0.943018 0.0190 Uiso
C11 C 0.2012(6) 0.9066(6) 0.5566(8) 0.0251 Uani
H18 H 0.277492 0.864178 0.591428 0.0300 Uiso
H19 H 0.222421 0.889085 0.450767 0.0300 Uiso
C12 C 0.0513(5) 0.8161(6) 0.5489(6) 0.0182 Uani
C17 C 0.0266(5) 0.3672(6) 0.0665(5) 0.0151 Uani
H23 H 0.108180 0.317416 0.070534 0.0180 Uiso
N9 N 0.6966(5) 0.8302(5) 0.3648(5) 0.0203 Uani
N13 N 0.8180(4) 0.4818(5) 0.1261(4) 0.0150 Uani
H1 H 0.731261 0.848703 0.459764 0.0240 Uiso
H2 H 0.769054 0.863012 0.321468 0.0240 Uiso
C1 C 0.5719(6) 0.9241(7) 0.3866(9) 0.0288 Uani
H7 H 0.503165 0.904547 0.453921 0.0350 Uiso
H8 H 0.520495 0.884764 0.283436 0.0350 Uiso
O4 O 0.9394(4) 0.8862(5) 0.6024(6) 0.0276 Uani
O6 O 0.8214(4) 0.4547(6) 0.6495(5) 0.0274 Uani
C13 C 0.9223(4) 0.5509(5) 0.4769(5) 0.0125 Uani
H20 H 0.833060 0.604577 0.488125 0.0150 Uiso
C14 C 0.9337(5) 0.5067(5) 0.6109(5) 0.0137 Uani
C15 C 0.9069(5) 0.3908(5) 0.3180(5) 0.0147 Uani
H21 H 0.983316 0.326808 0.318304 0.0180 Uiso
H22 H 0.811671 0.331382 0.310541 0.0180 Uiso
C16 C 0.9191(5) 0.4126(5) 0.1737(5) 0.0133 Uani
N12 N 0.9938(4) 0.4077(5) 0.9504(5) 0.0148 Uani
C18 C 0.8678(6) 0.4769(6) 0.9938(6) 0.0151 Uani
H24 H 0.820282 0.517200 0.937225 0.0180 Uiso
loop_
_atom_site_aniso_label
_atom_site_aniso_U_11
_atom_site_aniso_U_22
_atom_site_aniso_U_33
_atom_site_aniso_U_23
_atom_site_aniso_U_13
_atom_site_aniso_U_12
N4 0.0173 0.0193 0.0187 0.0103 -0.0008 0.0011
C10 0.021 0.019 0.03 0.0137 -0.0051 -0.0002
Zn4 0.0106 0.0176 0.0108 0.00956 0.00107 0.0012
N6 0.0119 0.0238 0.0149 0.0134 -0.0008 -0.0005
C9 0.0132 0.0269 0.0157 0.0156 -0.0008 -0.0011
Zn7 0.011 0.0179 0.0104 0.00944 0.00116 0.00203
O1 0.0175 0.0197 0.035 0.0102 -0.0025 -0.0009
O2 0.014 0.0322 0.0199 0.0204 0.0054 0.0061
O3 0.0195 0.039 0.0209 0.0224 0.0065 0.0113
O5 0.0129 0.0289 0.0207 0.0188 -0.0016 0.0007
N2 0.0119 0.0174 0.0169 0.0114 0.002 0.0021
N3 0.0147 0.0241 0.0135 0.0133 -0.0014 -0.0015
N5 0.0138 0.0176 0.0142 0.0107 0.0021 0.0004
C2 0.02 0.018 0.052 0.015 -0.005 0.0026
C3 0.0139 0.0179 0.025 0.0118 0.0017 0.0007
C4 0.0098 0.018 0.0137 0.0105 0.0027 0.0023
C5 0.0146 0.0192 0.0115 0.0087 0.0025 0.0004
C6 0.0154 0.0176 0.0126 0.0107 0.0018 0.0017
C7 0.0139 0.0164 0.0115 0.0093 0.0021 0.0023
C8 0.0132 0.0216 0.0148 0.0118 -0.0011 -0.0005
C11 0.014 0.019 0.042 0.015 0.002 -0.0006
C12 0.015 0.0179 0.024 0.0121 0.0002 0.0015
C17 0.0123 0.0229 0.0154 0.0135 0.0015 0.0018
N9 0.0164 0.0189 0.026 0.0111 -0.003 0.0028
N13 0.0145 0.0233 0.0129 0.0131 0.0032 0.0036
C1 0.015 0.02 0.048 0.014 0.002 0.0018
O4 0.0154 0.0214 0.041 0.0109 0.0027 0.0044
O6 0.0166 0.053 0.0246 0.03 -0.0033 -0.0053
C13 0.0104 0.0198 0.0131 0.0127 0.0015 0.0011
C14 0.0135 0.0168 0.0122 0.0084 -0.0006 0.0007
C15 0.0169 0.0186 0.0114 0.0097 0 0.0008
C16 0.0131 0.0169 0.0134 0.0102 0.0023 0.0011
N12 0.0145 0.0213 0.0143 0.013 0.0033 0.003
C18 0.0145 0.023 0.0131 0.0129 0.0025 0.0026
loop_
_geom_bond_atom_site_label_1
_geom_bond_atom_site_label_2
_geom_bond_site_symmetry_1
_geom_bond_site_symmetry_2
N4 H4 1_555 1_555
H5 N4 1_555 1_555
C10 N4 1_555 1_555
H16 C10 1_555 1_555
H17 C10 1_555 1_555
Zn4 N4 1_555 1_555
H15 C9 1_555 1_555
Zn7 N6 1_555 1_555
N6 C9 1_555 1_555
Zn4 O5 1_555 1_555
Zn7 O2 1_555 1_555
O1 C3 1_555 1_555
O2 C5 1_555 1_555
O3 C5 1_555 1_555
N2 H3 1_555 1_555
N3 Zn4 1_555 1_555
N5 H6 1_555 1_555
H9 C2 1_555 1_555
H10 C2 1_555 1_555
C3 N2 1_555 1_555
C4 N2 1_555 1_555
H11 C4 1_555 1_555
C5 C4 1_555 1_555
C6 C4 1_555 1_555
H12 C6 1_555 1_555
H13 C6 1_555 1_555
C7 N3 1_555 1_555
C8 C7 1_555 1_555
H14 C8 1_555 1_555
H18 C11 1_555 1_555
H19 C11 1_555 1_555
C12 N5 1_555 1_555
H23 C17 1_555 1_555
N9 Zn7 1_555 1_555
N13 Zn7 1_555 1_555
C2 C3 1_555 1_555
C6 C7 1_555 1_555
C11 C12 1_555 1_555
N9 H1 1_555 1_555
H2 N9 1_555 1_555
C1 N9 1_555 1_555
H7 C1 1_555 1_555
H8 C1 1_555 1_555
O6 C14 1_555 1_555
N13 C16 1_555 1_555
H20 C13 1_555 1_555
C14 C13 1_555 1_555
C15 C13 1_555 1_555
H21 C15 1_555 1_555
H22 C15 1_555 1_555
C16 C15 1_555 1_555
C18 N12 1_555 1_555
H24 C18 1_555 1_555

#END
