
###############################################################################
#
# This file contains modified crystal structure data generated from the
# MOF subset of the Cambridge Structural Database (CSD) v543 
# hosted by the Cambridge Crystallographic Data Centre (CCDC).
#
# This work is licensed under the Creative Commons
# Attribution-NonCommercial-ShareAlike 4.0 International License.
# To view a copy of this license, visit
# http://creativecommons.org/licenses/by-nc-sa/4.0/
# or send a letter to
# Creative Commons, PO Box 1866, Mountain View, CA 94042, USA.
#
# CIF created using the CSD Python API on 29 September 2022
# The structure has been converted into the P1 space group
# The structure has a 3D framework
# The original CSD entry QARSOV is in the monoclinic crystal system
# The original CSD entry QARSOV is in a Sohncke space group
# The framework has been calculated to contain at least 10.0% void space
# The void calculation uses a probe of radius 1.32A, grid spacing 0.4
#
###############################################################################

data_QARSOV
_chemical_formula_moiety         '(C18 H24 N6 O6)n'
_symmetry_cell_setting           triclinic
_symmetry_space_group_name_H-M   'P 1'
_symmetry_Int_Tables_number      1
_space_group_name_Hall           'P 1'
loop_
_symmetry_equiv_pos_site_id
_symmetry_equiv_pos_as_xyz
1 x,y,z
_cell_length_a                   9.3164(8)
_cell_length_b                   9.2981(8)
_cell_length_c                   9.6214(8)
_cell_angle_alpha                90
_cell_angle_beta                 118.356(2)
_cell_angle_gamma                90
_cell_volume                     733.449
loop_
_atom_site_label
_atom_site_type_symbol
_atom_site_fract_x
_atom_site_fract_y
_atom_site_fract_z
N3 N 0.0673(3) 0.4073(2) 0.0371(3)
Zn3 Zn 0.07813(3) 0.28860(3) 0.21298(3)
O3 O 0.0249(3) 0.5726(2) 0.3477(2)
C6 C 0.0855(3) 0.4922(3) 0.6717(3)
H9 H 0.161470 0.415511 0.676663
H10 H 0.135791 0.585765 0.671028
C7 C 0.0657(3) 0.4839(3) 0.8158(3)
C8 C 0.1103(3) 0.3737(3) 0.9222(3)
H11 H 0.162647 0.287518 0.917715
N5 N 0.3177(2) 0.2974(3) 0.3811(2)
N7 N 0.0063(3) 0.0892(2) 0.1358(3)
O1 O 0.5829(3) 0.4446(2) 0.3694(3)
O2 O 0.9514(2) 0.34166(19) 0.3186(2)
H1 H 0.357244 0.387025 0.381705
H2 H 0.325367 0.281518 0.477717
N2 N 0.8345(3) 0.3512(2) 0.5226(3)
H3 H 0.890131 0.277090 0.579677
N4 N 0.9937(3) 0.5892(2) 0.8642(3)
C1 C 0.4194(4) 0.1894(3) 0.3529(3)
H4 H 0.401236 0.200446 0.243429
H5 H 0.382408 0.091815 0.362501
C2 C 0.6010(4) 0.2017(3) 0.4657(4)
H6 H 0.619618 0.193546 0.575644
H7 H 0.658608 0.121039 0.446425
C3 C 0.6721(4) 0.3430(3) 0.4471(3)
C4 C 0.9243(3) 0.4765(3) 0.5155(3)
H8 H 0.856270 0.564363 0.499304
C5 C 0.9684(3) 0.4656(3) 0.3812(3)
C9 C 0.9982(5) 0.5360(4) 0.9958(5)
Zn4 Zn 0.92187(3) 0.78860(3) 0.78702(3)
H8_2 H 0.143730 0.064363 0.500696
C9_2 C 0.0018(5) 0.0360(4) 0.0042(5)
O1_2 O 0.4171(3) 0.9446(2) 0.6306(3)
O2_2 O 0.0486(2) 0.84166(19) 0.6814(2)
N1 N 0.6823(2) 0.7974(3) 0.6189(2)
H1_2 H 0.642756 0.887025 0.618295
H2_2 H 0.674633 0.781518 0.522283
N2_2 N 0.1655(3) 0.8512(2) 0.4774(3)
H3_2 H 0.109869 0.777090 0.420323
C1_2 C 0.5806(4) 0.6894(3) 0.6471(3)
H4_2 H 0.598764 0.700446 0.756571
H5_2 H 0.617592 0.591815 0.637499
C2_2 C 0.3990(4) 0.7017(3) 0.5343(4)
H6_2 H 0.380382 0.693546 0.424356
H7_2 H 0.341392 0.621039 0.553575
C3_2 C 0.3279(4) 0.8430(3) 0.5529(3)
C4_2 C 0.0757(3) 0.9765(3) 0.4845(3)
C5_2 C 0.0316(3) 0.9656(3) 0.6188(3)
C6_2 C 0.9145(3) 0.9922(3) 0.3283(3)
H9_2 H 0.838530 0.915511 0.323337
C7_2 C 0.9343(3) 0.9839(3) 0.1842(3)
C8_2 C 0.8897(3) 0.8737(3) 0.0778(3)
H11_2 H 0.837353 0.787518 0.082285
N6 N 0.9327(3) 0.9073(2) 0.9629(3)
H12 H 0.955727 0.586119 0.054277
H12_2 H 0.044273 0.086119 0.945723
O3_2 O 0.9751(3) 0.0726(2) 0.6523(2)
H10_2 H 0.864209 0.085765 0.328972
loop_
_geom_bond_atom_site_label_1
_geom_bond_atom_site_label_2
_geom_bond_site_symmetry_1
_geom_bond_site_symmetry_2
Zn3 N3 1_555 1_555
H9 C6 1_555 1_555
H10 C6 1_555 1_555
C7 C6 1_555 1_555
C8 C7 1_555 1_555
H11 C8 1_555 1_555
N5 Zn3 1_555 1_555
N7 Zn3 1_555 1_555
O1 C3 1_555 1_555
O2 C5 1_555 1_555
N5 H1 1_555 1_555
H2 N5 1_555 1_555
N2 H3 1_555 1_555
C1 N5 1_555 1_555
H4 C1 1_555 1_555
H5 C1 1_555 1_555
C2 C1 1_555 1_555
H6 C2 1_555 1_555
H7 C2 1_555 1_555
C3 N2 1_555 1_555
C4 N2 1_555 1_555
H8 C4 1_555 1_555
C5 C4 1_555 1_555
Zn4 N4 1_555 1_555
N4 C9 1_555 1_555
C2 C3 1_555 1_555
N7 C9_2 1_555 1_555
O1_2 C3_2 1_555 1_555
O2_2 C5_2 1_555 1_555
N1 H1_2 1_555 1_555
H2_2 N1 1_555 1_555
N2_2 H3_2 1_555 1_555
C1_2 N1 1_555 1_555
H4_2 C1_2 1_555 1_555
H5_2 C1_2 1_555 1_555
C2_2 C1_2 1_555 1_555
H6_2 C2_2 1_555 1_555
H7_2 C2_2 1_555 1_555
C3_2 N2_2 1_555 1_555
C4_2 N2_2 1_555 1_555
C5_2 C4_2 1_555 1_555
Zn4 N1 1_555 1_555
C2_2 C3_2 1_555 1_555
H9_2 C6_2 1_555 1_555
C7_2 C6_2 1_555 1_555
C8_2 C7_2 1_555 1_555
H11_2 C8_2 1_555 1_555
N6 Zn4 1_555 1_555

#END
