
###############################################################################
#
# This file contains modified crystal structure data generated from the
# MOF subset of the Cambridge Structural Database (CSD) v543 
# hosted by the Cambridge Crystallographic Data Centre (CCDC).
#
# This work is licensed under the Creative Commons
# Attribution-NonCommercial-ShareAlike 4.0 International License.
# To view a copy of this license, visit
# http://creativecommons.org/licenses/by-nc-sa/4.0/
# or send a letter to
# Creative Commons, PO Box 1866, Mountain View, CA 94042, USA.
#
# CIF created using the CSD Python API on 29 September 2022
# The structure has been converted into the P1 space group
# The structure has a 3D framework
# The original CSD entry QARSAF02 is in the monoclinic crystal system
# The framework has been calculated to contain at least 10.0% void space
# The void calculation uses a probe of radius 1.32A, grid spacing 0.4
#
###############################################################################

data_QARSAF02
_chemical_formula_moiety         '(C44 H28 Gd4 N12 O26)n'
_symmetry_cell_setting           triclinic
_symmetry_space_group_name_H-M   'P 1'
_symmetry_Int_Tables_number      1
_space_group_name_Hall           'P 1'
loop_
_symmetry_equiv_pos_site_id
_symmetry_equiv_pos_as_xyz
1 x,y,z
_cell_length_a                   8.287(8)
_cell_length_b                   14.796(14)
_cell_length_c                   11.559(11)
_cell_angle_alpha                90
_cell_angle_beta                 90.969(15)
_cell_angle_gamma                90
_cell_volume                     1417.1
loop_
_atom_site_label
_atom_site_type_symbol
_atom_site_fract_x
_atom_site_fract_y
_atom_site_fract_z
C1 C 0.0373(4) 0.0645(2) 0.1449(3)
N1 N 0.0892(4) 0.1095(2) 0.3470(3)
H1 H 0.1477 0.0629 0.3628
C2 C 0.0081(4) 0.1255(2) 0.2451(3)
C5 C 0.0611(4) 0.1795(2) 0.4183(3)
C6 C 0.1489(5) 0.1881(3) 0.5303(3)
C7 C 0.1438(6) 0.1215(3) 0.6148(4)
H4 H 0.0799 0.0704 0.6041
C8 C 0.2347(6) 0.1323(3) 0.7144(4)
H5 H 0.2302 0.0875 0.7707
N3 N 0.3295(4) 0.2044(3) 0.7344(3)
C9 C 0.3350(6) 0.2674(3) 0.6536(4)
H6 H 0.4015 0.3172 0.6661
C10 C 0.2462(5) 0.2628(3) 0.5511(4)
H7 H 0.2518 0.3092 0.4970
O1 O 0.1112(4) 0.99290(18) 0.1680(2)
Gd5 Gd 0.220966(19) 0.867658(10) 0.067631(13)
O2 O 0.9963(3) 0.09048(18) 0.0457(2)
N2 N 0.9630(4) 0.2394(2) 0.3698(2)
O3 O 0.7805(3) 0.23692(16) 0.0856(2)
C3 C 0.9288(4) 0.2059(2) 0.2605(3)
C4 C 0.8203(4) 0.2614(2) 0.1850(3)
O4 O 0.7730(3) 0.33417(16) 0.2304(2)
O9 O 0.6460(3) 0.05173(18) 0.0874(2)
C12 C 0.5268(4) 0.0023(2) 0.0644(3)
Gd6 Gd 0.779034(19) 0.367658(10) 0.432369(13)
Gd1 Gd 0.779034(19) 0.132342(10) 0.932369(13)
O5 O 0.5595(3) 0.23479(19) 0.9019(2)
H2 H 0.5633 0.2928 0.9172
H3 H 0.4898 0.2121 0.8566
O6 O 0.5504(3) 0.04365(19) 0.8659(2)
O16 O 0.8888(4) 0.00710(18) 0.8320(2)
N8 N 0.9630(4) 0.2606(2) 0.8698(2)
O18 O 0.7730(3) 0.16583(16) 0.7304(2)
O8 O 0.4496(3) 0.95635(19) 0.1341(2)
O14 O 0.4405(3) 0.76521(19) 0.0981(2)
H9 H 0.4367 0.7072 0.0828
H10 H 0.5102 0.7879 0.1434
N7 N 0.0370(4) 0.7394(2) 0.1302(2)
O17 O 0.2270(3) 0.83417(16) 0.2696(2)
O7 O 0.3540(3) 0.94827(18) 0.9126(2)
C11 C 0.4732(4) 0.9977(2) 0.9356(3)
O11 O 0.0037(3) 0.90952(18) 0.9543(2)
N5 N 0.0370(4) 0.7606(2) 0.6302(2)
O12 O 0.2195(3) 0.76308(16) 0.9144(2)
C15 C 0.0712(4) 0.7941(2) 0.7395(3)
C16 C 0.1797(4) 0.7386(2) 0.8150(3)
O13 O 0.2270(3) 0.66583(16) 0.7696(2)
Gd4 Gd 0.220966(19) 0.632342(10) 0.567631(13)
C13 C 0.0373(4) 0.4355(2) 0.6449(3)
O10 O 0.1112(4) 0.50710(18) 0.6680(2)
N4 N 0.0892(4) 0.3905(2) 0.8470(3)
H8 H 0.1477 0.4371 0.8628
C14 C 0.0081(4) 0.3745(2) 0.7451(3)
C17 C 0.0611(4) 0.3205(2) 0.9183(3)
H14 H 0.2518 0.1908 0.9970
O2_2 O 0.0037(3) 0.59048(18) 0.4543(2)
O3_2 O 0.2195(3) 0.73692(16) 0.4144(2)
C3_2 C 0.0712(4) 0.7059(2) 0.2395(3)
C4_2 C 0.1797(4) 0.7614(2) 0.3150(3)
O5_2 O 0.4405(3) 0.73479(19) 0.5981(2)
H2_2 H 0.4367 0.7928 0.5828
H3_2 H 0.5102 0.7121 0.6434
O6_2 O 0.4496(3) 0.54365(19) 0.6341(2)
O7_2 O 0.6460(3) 0.44827(18) 0.5874(2)
C11_2 C 0.5268(4) 0.4977(2) 0.5644(3)
O8_2 O 0.5504(3) 0.45635(19) 0.3659(2)
O9_2 O 0.3540(3) 0.55173(18) 0.4126(2)
C12_2 C 0.4732(4) 0.5023(2) 0.4356(3)
O11_2 O 0.9963(3) 0.40952(18) 0.5457(2)
O12_2 O 0.7805(3) 0.26308(16) 0.5856(2)
C15_2 C 0.9288(4) 0.2941(2) 0.7605(3)
C16_2 C 0.8203(4) 0.2386(2) 0.6850(3)
O14_2 O 0.5595(3) 0.26521(19) 0.4019(2)
H9_2 H 0.5633 0.2072 0.4172
H10_2 H 0.4898 0.2879 0.3566
O15 O 0.8888(4) 0.49290(18) 0.3320(2)
C1_2 C 0.9627(4) 0.5645(2) 0.3551(3)
N1_2 N 0.9108(4) 0.6095(2) 0.1530(3)
H1_2 H 0.8523 0.5629 0.1372
C2_2 C 0.9919(4) 0.6255(2) 0.2549(3)
C5_2 C 0.9389(4) 0.6795(2) 0.0817(3)
H7_2 H 0.7482 0.8092 0.0030
C13_2 C 0.9627(4) 0.9355(2) 0.8551(3)
N4_2 N 0.9108(4) 0.8905(2) 0.6530(3)
H8_2 H 0.8523 0.9371 0.6372
C14_2 C 0.9919(4) 0.8745(2) 0.7549(3)
C17_2 C 0.9389(4) 0.8205(2) 0.5817(3)
C18 C 0.8511(5) 0.8119(3) 0.4697(3)
C19 C 0.8562(6) 0.8785(3) 0.3852(4)
H11 H 0.9201 0.9296 0.3959
C20 C 0.7653(6) 0.8677(3) 0.2856(4)
H12 H 0.7698 0.9125 0.2293
N6 N 0.6705(4) 0.7956(3) 0.2656(3)
C21 C 0.6650(6) 0.7326(3) 0.3464(4)
H13 H 0.5985 0.6828 0.3339
C22 C 0.7538(5) 0.7372(3) 0.4489(4)
H14_2 H 0.7482 0.6908 0.5030
C18_2 C 0.1489(5) 0.3119(3) 0.0303(3)
C19_2 C 0.1438(6) 0.3785(3) 0.1148(4)
H11_2 H 0.0799 0.4296 0.1041
C20_2 C 0.2347(6) 0.3677(3) 0.2144(4)
H12_2 H 0.2302 0.4125 0.2707
N6_2 N 0.3295(4) 0.2956(3) 0.2344(3)
C21_2 C 0.3350(6) 0.2326(3) 0.1536(4)
H13_2 H 0.4015 0.1828 0.1661
C22_2 C 0.2462(5) 0.2372(3) 0.0511(4)
C6_2 C 0.8511(5) 0.6881(3) 0.9697(3)
C7_2 C 0.8562(6) 0.6215(3) 0.8852(4)
H4_2 H 0.9201 0.5704 0.8959
C8_2 C 0.7653(6) 0.6323(3) 0.7856(4)
H5_2 H 0.7698 0.5875 0.7293
N3_2 N 0.6705(4) 0.7044(3) 0.7656(3)
C9_2 C 0.6650(6) 0.7674(3) 0.8464(4)
H6_2 H 0.5985 0.8172 0.8339
C10_2 C 0.7538(5) 0.7628(3) 0.9489(4)
loop_
_geom_bond_atom_site_label_1
_geom_bond_atom_site_label_2
_geom_bond_site_symmetry_1
_geom_bond_site_symmetry_2
N1 H1 1_555 1_555
C2 C1 1_555 1_555
C5 N1 1_555 1_555
C6 C5 1_555 1_555
C7 C6 1_555 1_555
H4 C7 1_555 1_555
C8 C7 1_555 1_555
H5 C8 1_555 1_555
N3 C8 1_555 1_555
C9 N3 1_555 1_555
H6 C9 1_555 1_555
C10 C6 1_555 1_555
H7 C10 1_555 1_555
N1 C2 1_555 1_555
C9 C10 1_555 1_555
O1 Gd5 1_555 1_555
N2 C3 1_555 1_555
C4 O3 1_555 1_555
O4 C4 1_555 1_555
Gd6 N2 1_555 1_555
C3 C4 1_555 1_555
O4 Gd6 1_555 1_555
O9 C12 1_555 1_555
O5 Gd1 1_555 1_555
H2 O5 1_555 1_555
H3 O5 1_555 1_555
O6 Gd1 1_555 1_555
O16 Gd1 1_555 1_555
N8 Gd1 1_555 1_555
O18 Gd1 1_555 1_555
O14 Gd5 1_555 1_555
H9 O14 1_555 1_555
H10 O14 1_555 1_555
N7 Gd5 1_555 1_555
O17 Gd5 1_555 1_555
O8 Gd5 1_555 1_555
O7 C11 1_555 1_555
N5 C15 1_555 1_555
C16 O12 1_555 1_555
O13 C16 1_555 1_555
Gd4 N5 1_555 1_555
C15 C16 1_555 1_555
O13 Gd4 1_555 1_555
C13 O10 1_555 1_555
O10 Gd4 1_555 1_555
N4 H8 1_555 1_555
C14 C13 1_555 1_555
C17 N4 1_555 1_555
N4 C14 1_555 1_555
Gd4 O2_2 1_555 1_555
N7 C3_2 1_555 1_555
O3_2 Gd4 1_555 1_555
C4_2 O3_2 1_555 1_555
O17 C4_2 1_555 1_555
O5_2 Gd4 1_555 1_555
H2_2 O5_2 1_555 1_555
H3_2 O5_2 1_555 1_555
O6_2 Gd4 1_555 1_555
O7_2 C11_2 1_555 1_555
C11_2 O6_2 1_555 1_555
O8_2 C12_2 1_555 1_555
O9_2 Gd4 1_555 1_555
C12_2 C11_2 1_555 1_555
Gd6 O7_2 1_555 1_555
O11_2 Gd6 1_555 1_555
N8 C15_2 1_555 1_555
O12_2 Gd6 1_555 1_555
C16_2 O12_2 1_555 1_555
O18 C16_2 1_555 1_555
O14_2 Gd6 1_555 1_555
H9_2 O14_2 1_555 1_555
H10_2 O14_2 1_555 1_555
O15 Gd6 1_555 1_555
C3_2 C4_2 1_555 1_555
O8_2 Gd6 1_555 1_555
O9_2 C12_2 1_555 1_555
C15_2 C16_2 1_555 1_555
C1_2 O15 1_555 1_555
N1_2 H1_2 1_555 1_555
C2_2 C1_2 1_555 1_555
C5_2 N1_2 1_555 1_555
N1_2 C2_2 1_555 1_555
N4_2 H8_2 1_555 1_555
C14_2 C13_2 1_555 1_555
C17_2 N4_2 1_555 1_555
C18 C17_2 1_555 1_555
C19 C18 1_555 1_555
H11 C19 1_555 1_555
C20 C19 1_555 1_555
H12 C20 1_555 1_555
N6 C20 1_555 1_555
C21 N6 1_555 1_555
H13 C21 1_555 1_555
C22 C18 1_555 1_555
H14_2 C22 1_555 1_555
N4_2 C14_2 1_555 1_555
C21 C22 1_555 1_555
C19_2 C18_2 1_555 1_555
H11_2 C19_2 1_555 1_555
C20_2 C19_2 1_555 1_555
H12_2 C20_2 1_555 1_555
N6_2 C20_2 1_555 1_555
C21_2 N6_2 1_555 1_555
H13_2 C21_2 1_555 1_555
C22_2 C18_2 1_555 1_555
C21_2 C22_2 1_555 1_555
C7_2 C6_2 1_555 1_555
H4_2 C7_2 1_555 1_555
C8_2 C7_2 1_555 1_555
H5_2 C8_2 1_555 1_555
N3_2 C8_2 1_555 1_555
C9_2 N3_2 1_555 1_555
H6_2 C9_2 1_555 1_555
C10_2 C6_2 1_555 1_555
C9_2 C10_2 1_555 1_555

#END
