
###############################################################################
#
# This file contains modified crystal structure data generated from the
# MOF subset of the Cambridge Structural Database (CSD) v543 
# hosted by the Cambridge Crystallographic Data Centre (CCDC).
#
# This work is licensed under the Creative Commons
# Attribution-NonCommercial-ShareAlike 4.0 International License.
# To view a copy of this license, visit
# http://creativecommons.org/licenses/by-nc-sa/4.0/
# or send a letter to
# Creative Commons, PO Box 1866, Mountain View, CA 94042, USA.
#
# CIF created using the CSD Python API on 29 September 2022
# The structure has been converted into the P1 space group
# The structure has a 3D framework
# The original CSD entry QATPUX04 is in the monoclinic crystal system
# The framework has been calculated to contain at least 10.0% void space
# The void calculation uses a probe of radius 1.32A, grid spacing 0.4
#
###############################################################################

data_QATPUX04
_chemical_formula_moiety         '(C16 H6 Co13 O22)n'
_symmetry_cell_setting           triclinic
_symmetry_space_group_name_H-M   'P 1'
_symmetry_Int_Tables_number      1
_space_group_name_Hall           'P 1'
loop_
_symmetry_equiv_pos_site_id
_symmetry_equiv_pos_as_xyz
1 x,y,z
_cell_length_a                   9.2727(17)
_cell_length_b                   12.891(2)
_cell_length_c                   5.4962(12)
_cell_angle_alpha                90
_cell_angle_beta                 90.015(7)
_cell_angle_gamma                90
_cell_volume                     656.985
loop_
_atom_site_label
_atom_site_type_symbol
_atom_site_fract_x
_atom_site_fract_y
_atom_site_fract_z
Co9 Co -0.000000 0.37983(3) 0.500000
Co11 Co 0.000000 0.500000 0.000000
Co11_2 Co -0.000000 0.500000 1.000000
Co1 Co 0.500000 0.12017(3) 0.500000
Co2 Co 0.500000 0.000000 0.000000
O1 O 0.38062(15) 0.23698(11) 0.3507(2)
O3 O 0.3967(2) 0.000000 0.3257(3)
H1 H 0.304585 0.000000 0.325009
C2 C 0.3095(2) 0.24217(15) 0.1589(3)
O5 O 0.13154(16) 0.38816(11) 0.1714(3)
C3 C 0.1962(2) 0.31233(16) 0.0755(3)
O7 O 0.63154(16) 0.11184(11) 0.1714(3)
C5 C 0.6962(2) 0.18767(16) 0.0755(3)
O9 O 0.88062(15) 0.26302(11) 0.3507(2)
C8 C 0.8095(2) 0.25783(15) 0.1589(3)
Co9_2 Co 1.000000 0.37983(3) 0.500000
Co11_3 Co 1.000000 0.500000 0.000000
O11 O 0.61938(15) 0.23698(11) 0.6493(2)
O14 O 0.36846(16) 0.11184(11) 0.8286(3)
O18 O 0.6033(2) 0.000000 0.6743(3)
Co2_2 Co 0.500000 0.000000 1.000000
C1 C 0.3038(2) 0.18767(16) 0.9245(3)
O4 O 0.11938(15) 0.26302(11) 0.6493(2)
C4 C 0.1905(2) 0.25783(15) 0.8411(3)
H2 H 0.695415 0.000000 0.674991
C6 C 0.6905(2) 0.24217(15) 0.8411(3)
O10 O 0.86846(16) 0.38816(11) 0.8286(3)
C7 C 0.8038(2) 0.31233(16) 0.9245(3)
Co11_4 Co 1.000000 0.500000 1.000000
Co2_3 Co 0.500000 1.000000 0.000000
O3_2 O 0.3967(2) 1.000000 0.3257(3)
H1_2 H 0.304585 1.000000 0.325009
Co3 Co 0.500000 0.87983(3) 0.500000
O12 O 0.61938(15) 0.76302(11) 0.6493(2)
O13 O 0.38062(15) 0.76302(11) 0.3507(2)
O15 O 0.63154(16) 0.88816(11) 0.1714(3)
O17 O 0.36846(16) 0.88816(11) 0.8286(3)
O18_2 O 0.6033(2) 1.000000 0.6743(3)
Co2_4 Co 0.500000 1.000000 1.000000
H2_2 H 0.695415 1.000000 0.674991
Co1_2 Co 0.000000 0.62017(3) 0.500000
O7_2 O 0.13154(16) 0.61184(11) 0.1714(3)
C5_2 C 0.1962(2) 0.68767(16) 0.0755(3)
C8_2 C 0.3095(2) 0.75783(15) 0.1589(3)
O11_2 O 0.11938(15) 0.73698(11) 0.6493(2)
O18_3 O 0.1033(2) 0.500000 0.6743(3)
H2_3 H 0.195415 0.500000 0.674991
C6_2 C 0.1905(2) 0.74217(15) 0.8411(3)
C7_2 C 0.3038(2) 0.81233(16) 0.9245(3)
Co1_3 Co 1.000000 0.62017(3) 0.500000
O1_2 O 0.88062(15) 0.73698(11) 0.3507(2)
O3_3 O 0.8967(2) 0.500000 0.3257(3)
H1_3 H 0.804585 0.500000 0.325009
C2_2 C 0.8095(2) 0.74217(15) 0.1589(3)
C3_2 C 0.6962(2) 0.81233(16) 0.0755(3)
O14_2 O 0.86846(16) 0.61184(11) 0.8286(3)
C1_2 C 0.8038(2) 0.68767(16) 0.9245(3)
C4_2 C 0.6905(2) 0.75783(15) 0.8411(3)
loop_
_geom_bond_atom_site_label_1
_geom_bond_atom_site_label_2
_geom_bond_site_symmetry_1
_geom_bond_site_symmetry_2
Co1 O1 1_555 1_555
O1 C2 1_555 1_555
O3 Co1 1_555 1_555
H1 O3 1_555 1_555
C2 C3 1_555 1_555
O5 C3 1_555 1_555
O7 Co1 1_555 1_555
C5 O7 1_555 1_555
O9 C8 1_555 1_555
C8 C5 1_555 1_555
Co9 O5 1_555 1_555
Co9_2 O9 1_555 1_555
Co11 O5 1_555 1_555
O11 Co1 1_555 1_555
O14 Co1 1_555 1_555
O18 Co1 1_555 1_555
Co2 O3 1_555 1_555
Co2 O7 1_555 1_555
Co2_2 O14 1_555 1_555
O14 C1 1_555 1_555
O4 C4 1_555 1_555
C4 C1 1_555 1_555
O11 C6 1_555 1_555
O18 Co2_2 1_555 1_555
H2 O18 1_555 1_555
O10 C7 1_555 1_555
C7 C6 1_555 1_555
Co9 O4 1_555 1_555
Co9_2 O10 1_555 1_555
Co11_4 O10 1_555 1_555
H1_2 O3_2 1_555 1_555
Co3 O3_2 1_555 1_555
O12 Co3 1_555 1_555
O13 Co3 1_555 1_555
O15 Co2_3 1_555 1_555
O17 Co3 1_555 1_555
Co2_3 O3_2 1_555 1_555
Co3 O15 1_555 1_555
Co3 O18_2 1_555 1_555
O18_2 Co2_4 1_555 1_555
H2_2 O18_2 1_555 1_555
O17 Co2_4 1_555 1_555
O7_2 Co1_2 1_555 1_555
C5_2 O7_2 1_555 1_555
O13 C8_2 1_555 1_555
C8_2 C5_2 1_555 1_555
O11_2 Co1_2 1_555 1_555
O18_3 Co1_2 1_555 1_555
Co11 O7_2 1_555 1_555
Co9 O18_3 1_555 1_555
O11_2 C6_2 1_555 1_555
O18_3 Co11_2 1_555 1_555
H2_3 O18_3 1_555 1_555
O17 C7_2 1_555 1_555
C7_2 C6_2 1_555 1_555
Co1_3 O1_2 1_555 1_555
O1_2 C2_2 1_555 1_555
O3_3 Co1_3 1_555 1_555
H1_3 O3_3 1_555 1_555
C2_2 C3_2 1_555 1_555
O15 C3_2 1_555 1_555
Co9_2 O3_3 1_555 1_555
O14_2 Co1_3 1_555 1_555
Co11_3 O3_3 1_555 1_555
Co11_4 O14_2 1_555 1_555
O14_2 C1_2 1_555 1_555
O12 C4_2 1_555 1_555
C4_2 C1_2 1_555 1_555

#END
