
###############################################################################
#
# This file contains modified crystal structure data generated from the
# MOF subset of the Cambridge Structural Database (CSD) v543 
# hosted by the Cambridge Crystallographic Data Centre (CCDC).
#
# This work is licensed under the Creative Commons
# Attribution-NonCommercial-ShareAlike 4.0 International License.
# To view a copy of this license, visit
# http://creativecommons.org/licenses/by-nc-sa/4.0/
# or send a letter to
# Creative Commons, PO Box 1866, Mountain View, CA 94042, USA.
#
# CIF created using the CSD Python API on 29 September 2022
# The structure has been converted into the P1 space group
# The structure has a 3D framework
# The original CSD entry QATPUX02 is in the monoclinic crystal system
# The framework has been calculated to contain at least 10.0% void space
# The void calculation uses a probe of radius 1.32A, grid spacing 0.4
#
###############################################################################

data_QATPUX02
_chemical_formula_moiety         '(C16 Co9 O22)n'
_symmetry_cell_setting           triclinic
_symmetry_space_group_name_H-M   'P 1'
_symmetry_Int_Tables_number      1
_space_group_name_Hall           'P 1'
loop_
_symmetry_equiv_pos_site_id
_symmetry_equiv_pos_as_xyz
1 x,y,z
_cell_length_a                   9.3173(5)
_cell_length_b                   12.8484(13)
_cell_length_c                   5.5021(4)
_cell_angle_alpha                90
_cell_angle_beta                 90.475(4)
_cell_angle_gamma                90
_cell_volume                     658.647
loop_
_atom_site_label
_atom_site_type_symbol
_atom_site_fract_x
_atom_site_fract_y
_atom_site_fract_z
Co11 Co -0.0000 0.0000 0.0000
Co11_2 Co -0.0000 -0.0000 1.0000
Co8 Co -0.0000 0.87963(8) 0.5000
Co11_3 Co -0.0000 1.0000 0.0000
Co11_4 Co -0.0000 1.0000 1.0000
Co11_5 Co 1.0000 0.0000 0.0000
Co11_6 Co 1.0000 -0.0000 1.0000
Co2 Co 0.5000 0.5000 0.0000
O12 O 0.3704(4) 0.6124(3) 0.1717(7)
O14 O 0.3704(4) 0.3876(3) 0.1717(7)
O16 O 0.6034(5) 0.5000 0.3266(9)
Co1 Co 0.5000 0.62037(8) 0.5000
Co2_2 Co 0.5000 0.5000 1.0000
O2 O 0.3966(5) 0.5000 0.6734(9)
O3 O 0.6196(4) 0.7368(3) 0.3482(6)
C1 C 0.6898(5) 0.7419(4) 0.1598(9)
O4 O 0.8704(4) 0.8876(3) 0.1717(7)
C4 C 0.8044(5) 0.8129(4) 0.0765(9)
C6 C 0.3044(5) 0.6871(4) 0.0765(9)
O9 O 0.1196(4) 0.7632(3) 0.3482(6)
C7 C 0.1898(5) 0.7581(4) 0.1598(9)
Co3 Co 0.5000 0.37963(8) 0.5000
Co8_2 Co 1.0000 0.87963(8) 0.5000
Co11_7 Co 1.0000 1.0000 0.0000
O11 O 0.6296(4) 0.6124(3) 0.8283(7)
O15 O 0.6296(4) 0.3876(3) 0.8283(7)
O17 O 0.3804(4) 0.7368(3) 0.6518(6)
O18 O 0.3804(4) 0.2632(3) 0.6518(6)
O19 O 0.6196(4) 0.2632(3) 0.3482(6)
C2 C 0.6956(5) 0.6871(4) 0.9235(9)
O5 O 0.8804(4) 0.7632(3) 0.6518(6)
C3 C 0.8102(5) 0.7581(4) 0.8402(9)
C5 C 0.3102(5) 0.7419(4) 0.8402(9)
O8 O 0.1296(4) 0.8876(3) 0.8283(7)
C8 C 0.1956(5) 0.8129(4) 0.9235(9)
Co11_8 Co 1.0000 1.0000 1.0000
O16_2 O 0.1034(5) 0.0000 0.3266(9)
Co1_2 Co 0.0000 0.12037(8) 0.5000
O3_2 O 0.1196(4) 0.2368(3) 0.3482(6)
C1_2 C 0.1898(5) 0.2419(4) 0.1598(9)
C4_2 C 0.3044(5) 0.3129(4) 0.0765(9)
O11_2 O 0.1296(4) 0.1124(3) 0.8283(7)
C2_2 C 0.1956(5) 0.1871(4) 0.9235(9)
C3_2 C 0.3102(5) 0.2581(4) 0.8402(9)
O16_3 O 0.1034(5) 1.0000 0.3266(9)
O12_2 O 0.8704(4) 0.1124(3) 0.1717(7)
Co1_3 Co 1.0000 0.12037(8) 0.5000
O2_2 O 0.8966(5) -0.0000 0.6734(9)
C6_2 C 0.8044(5) 0.1871(4) 0.0765(9)
C7_2 C 0.6898(5) 0.2581(4) 0.1598(9)
O17_2 O 0.8804(4) 0.2368(3) 0.6518(6)
C5_2 C 0.8102(5) 0.2419(4) 0.8402(9)
C8_2 C 0.6956(5) 0.3129(4) 0.9235(9)
O2_3 O 0.8966(5) 1.0000 0.6734(9)
loop_
_geom_bond_atom_site_label_1
_geom_bond_atom_site_label_2
_geom_bond_site_symmetry_1
_geom_bond_site_symmetry_2
O12 Co2 1_555 1_555
O14 Co2 1_555 1_555
O16 Co2 1_555 1_555
Co1 O2 1_555 1_555
Co2_2 O2 1_555 1_555
O2 Co3 1_555 1_555
O3 Co1 1_555 1_555
C1 O3 1_555 1_555
O4 C4 1_555 1_555
C4 C1 1_555 1_555
O12 Co1 1_555 1_555
C6 O12 1_555 1_555
O9 C7 1_555 1_555
C7 C6 1_555 1_555
Co3 O16 1_555 1_555
O16 Co1 1_555 1_555
Co8 O9 1_555 1_555
Co8_2 O4 1_555 1_555
Co11_7 O4 1_555 1_555
O11 Co1 1_555 1_555
O14 Co3 1_555 1_555
O15 Co2_2 1_555 1_555
O17 Co1 1_555 1_555
O18 Co3 1_555 1_555
O19 Co3 1_555 1_555
Co2_2 O11 1_555 1_555
Co3 O15 1_555 1_555
O11 C2 1_555 1_555
O5 C3 1_555 1_555
C3 C2 1_555 1_555
O17 C5 1_555 1_555
O8 C8 1_555 1_555
C8 C5 1_555 1_555
Co8 O8 1_555 1_555
Co8_2 O5 1_555 1_555
Co11_4 O8 1_555 1_555
O16_2 Co11 1_555 1_555
O3_2 Co1_2 1_555 1_555
C1_2 O3_2 1_555 1_555
O14 C4_2 1_555 1_555
C4_2 C1_2 1_555 1_555
O16_2 Co1_2 1_555 1_555
O11_2 Co1_2 1_555 1_555
Co11_2 O11_2 1_555 1_555
O11_2 C2_2 1_555 1_555
O18 C3_2 1_555 1_555
C3_2 C2_2 1_555 1_555
O16_3 Co11_3 1_555 1_555
Co8 O16_3 1_555 1_555
O12_2 Co11_5 1_555 1_555
Co1_3 O2_2 1_555 1_555
Co11_6 O2_2 1_555 1_555
O12_2 Co1_3 1_555 1_555
C6_2 O12_2 1_555 1_555
O19 C7_2 1_555 1_555
C7_2 C6_2 1_555 1_555
O17_2 Co1_3 1_555 1_555
O17_2 C5_2 1_555 1_555
O15 C8_2 1_555 1_555
C8_2 C5_2 1_555 1_555
Co11_8 O2_3 1_555 1_555
O2_3 Co8_2 1_555 1_555

#END
