
###############################################################################
#
# This file contains modified crystal structure data generated from the
# MOF subset of the Cambridge Structural Database (CSD) v543 
# hosted by the Cambridge Crystallographic Data Centre (CCDC).
#
# This work is licensed under the Creative Commons
# Attribution-NonCommercial-ShareAlike 4.0 International License.
# To view a copy of this license, visit
# http://creativecommons.org/licenses/by-nc-sa/4.0/
# or send a letter to
# Creative Commons, PO Box 1866, Mountain View, CA 94042, USA.
#
# CIF created using the CSD Python API on 29 September 2022
# The structure has been converted into the P1 space group
# The structure has a 3D framework
# The original CSD entry QATPUX01 is in the monoclinic crystal system
# The framework has been calculated to contain at least 10.0% void space
# The void calculation uses a probe of radius 1.32A, grid spacing 0.4
#
###############################################################################

data_QATPUX01
_chemical_formula_moiety         '(C16 H5 Co12 O21)n'
_symmetry_cell_setting           triclinic
_symmetry_space_group_name_H-M   'P 1'
_symmetry_Int_Tables_number      1
_space_group_name_Hall           'P 1'
loop_
_symmetry_equiv_pos_site_id
_symmetry_equiv_pos_as_xyz
1 x,y,z
_cell_length_a                   9.2250(17)
_cell_length_b                   12.8799(33)
_cell_length_c                   5.4920(15)
_cell_angle_alpha                90
_cell_angle_beta                 90.725(17)
_cell_angle_gamma                90
_cell_volume                     652.491
loop_
_atom_site_label
_atom_site_type_symbol
_atom_site_fract_x
_atom_site_fract_y
_atom_site_fract_z
_atom_site_U_iso_or_equiv
_atom_site_thermal_displace_type
Co9 Co -0.000 0.0768(35) 0.000 0.0056 Uiso
Co6 Co 0.000 0.000 0.500 0.0049 Uiso
Co9_2 Co -0.000 0.0768(35) 1.000 0.0056 Uiso
Co6_2 Co 0.000 1.000 0.500 0.0049 Uiso
Co7 Co 0.500 0.4232(35) 0.000 0.0056 Uiso
Co9_3 Co 1.000 0.0768(35) 0.000 0.0056 Uiso
Co1 Co 0.500 0.500 0.500 0.0049 Uiso
O1 O 0.3687(17) 0.2618(10) 0.1436(32) 0.0085 Uiso
O2 O 0.3906(22) 0.500 0.219(6) 0.0068 Uiso
H1 H 0.3279(34) 0.500 0.253(9) 0.0080 Uiso
C1 C 0.3119(22) 0.2553(14) 0.3381(30) 0.0072 Uiso
O3 O 0.3710(17) 0.3901(9) 0.636(4) 0.0075 Uiso
C2 C 0.3083(17) 0.3163(11) 0.5546(29) 0.0067 Uiso
O4 O 0.1313(17) 0.2382(10) 0.8564(32) 0.0085 Uiso
C3 C 0.1881(22) 0.2447(14) 0.6619(30) 0.0072 Uiso
O5 O 0.1290(17) 0.1099(9) 0.364(4) 0.0075 Uiso
C4 C 0.1917(17) 0.1837(11) 0.4454(29) 0.0067 Uiso
Co3 Co 0.500 0.5768(35) 0.000 0.0056 Uiso
O7 O 0.6313(17) 0.2618(10) 0.8564(32) 0.0085 Uiso
C5 C 0.6881(22) 0.2553(14) 0.6619(30) 0.0072 Uiso
O8 O 0.6290(17) 0.3901(9) 0.364(4) 0.0075 Uiso
C6 C 0.6917(17) 0.3163(11) 0.4454(29) 0.0067 Uiso
O9 O 0.8687(17) 0.2382(10) 0.1436(32) 0.0085 Uiso
C7 C 0.8119(22) 0.2447(14) 0.3381(30) 0.0072 Uiso
O10 O 0.8710(17) 0.1099(9) 0.636(4) 0.0075 Uiso
C8 C 0.8083(17) 0.1837(11) 0.5546(29) 0.0067 Uiso
Co6_3 Co 1.000 0.000 0.500 0.0049 Uiso
Co7_2 Co 0.500 0.4232(35) 1.000 0.0056 Uiso
Co9_4 Co 1.000 0.0768(35) 1.000 0.0056 Uiso
O11 O 0.6094(22) 0.500 0.781(6) 0.0068 Uiso
O13 O 0.6290(17) 0.6099(9) 0.364(4) 0.0075 Uiso
O15 O 0.3710(17) 0.6099(9) 0.636(4) 0.0075 Uiso
H2 H 0.6721(34) 0.500 0.747(9) 0.0080 Uiso
Co3_2 Co 0.500 0.5768(35) 1.000 0.0056 Uiso
Co6_4 Co 1.000 1.000 0.500 0.0049 Uiso
O11_2 O 0.1094(22) -0.000 0.781(6) 0.0068 Uiso
H2_2 H 0.1721(34) 0.000 0.747(9) 0.0080 Uiso
Co7_3 Co 0.000 0.9232(35) 0.000 0.0056 Uiso
O7_2 O 0.1313(17) 0.7618(10) 0.8564(32) 0.0085 Uiso
C5_2 C 0.1881(22) 0.7553(14) 0.6619(30) 0.0072 Uiso
O8_2 O 0.1290(17) 0.8901(9) 0.364(4) 0.0075 Uiso
C6_2 C 0.1917(17) 0.8163(11) 0.4454(29) 0.0067 Uiso
O9_2 O 0.3687(17) 0.7382(10) 0.1436(32) 0.0085 Uiso
C7_2 C 0.3119(22) 0.7447(14) 0.3381(30) 0.0072 Uiso
C8_2 C 0.3083(17) 0.6837(11) 0.5546(29) 0.0067 Uiso
Co7_4 Co -0.000 0.9232(35) 1.000 0.0056 Uiso
O11_3 O 0.1094(22) 1.000 0.781(6) 0.0068 Uiso
H2_3 H 0.1721(34) 1.000 0.747(9) 0.0080 Uiso
O2_2 O 0.8906(22) 0.000 0.219(6) 0.0068 Uiso
H1_2 H 0.8279(34) 0.000 0.253(9) 0.0080 Uiso
Co7_5 Co 1.000 0.9232(35) 0.000 0.0056 Uiso
O1_2 O 0.8687(17) 0.7618(10) 0.1436(32) 0.0085 Uiso
O2_3 O 0.8906(22) 1.000 0.219(6) 0.0068 Uiso
H1_3 H 0.8279(34) 1.000 0.253(9) 0.0080 Uiso
C1_2 C 0.8119(22) 0.7553(14) 0.3381(30) 0.0072 Uiso
O3_2 O 0.8710(17) 0.8901(9) 0.636(4) 0.0075 Uiso
C2_2 C 0.8083(17) 0.8163(11) 0.5546(29) 0.0067 Uiso
O4_2 O 0.6313(17) 0.7382(10) 0.8564(32) 0.0085 Uiso
C3_2 C 0.6881(22) 0.7447(14) 0.6619(30) 0.0072 Uiso
C4_2 C 0.6917(17) 0.6837(11) 0.4454(29) 0.0067 Uiso
Co7_6 Co 1.000 0.9232(35) 1.000 0.0056 Uiso
loop_
_geom_bond_atom_site_label_1
_geom_bond_atom_site_label_2
_geom_bond_site_symmetry_1
_geom_bond_site_symmetry_2
Co1 O2 1_555 1_555
Co7 O2 1_555 1_555
O1 C1 1_555 1_555
O2 H1 1_555 1_555
C1 C2 1_555 1_555
O3 Co1 1_555 1_555
C2 O3 1_555 1_555
O4 C3 1_555 1_555
C3 C2 1_555 1_555
O5 C4 1_555 1_555
C4 C1 1_555 1_555
Co3 Co7 1_555 1_555
O7 C5 1_555 1_555
C5 C6 1_555 1_555
O8 Co1 1_555 1_555
C6 O8 1_555 1_555
O9 C7 1_555 1_555
C7 C6 1_555 1_555
O10 C8 1_555 1_555
C8 C5 1_555 1_555
Co6 O5 1_555 1_555
Co6_3 O10 1_555 1_555
Co7_2 O3 1_555 1_555
Co9 O5 1_555 1_555
Co9_4 O10 1_555 1_555
O11 Co1 1_555 1_555
O13 Co1 1_555 1_555
O15 Co1 1_555 1_555
Co7 O8 1_555 1_555
O2 Co3 1_555 1_555
C3 C4 1_555 1_555
Co3 O13 1_555 1_555
C7 C8 1_555 1_555
Co7_2 O11 1_555 1_555
H2 O11 1_555 1_555
Co3_2 Co7_2 1_555 1_555
O15 Co3_2 1_555 1_555
O11 Co3_2 1_555 1_555
O11_2 Co6 1_555 1_555
H2_2 O11_2 1_555 1_555
O11_2 Co9_2 1_555 1_555
O7_2 C5_2 1_555 1_555
C5_2 C6_2 1_555 1_555
O8_2 Co6_2 1_555 1_555
C6_2 O8_2 1_555 1_555
O9_2 C7_2 1_555 1_555
C7_2 C6_2 1_555 1_555
O15 C8_2 1_555 1_555
C8_2 C5_2 1_555 1_555
O11_3 Co6_2 1_555 1_555
Co7_3 O8_2 1_555 1_555
C7_2 C8_2 1_555 1_555
Co7_4 O11_3 1_555 1_555
H2_3 O11_3 1_555 1_555
Co6_3 O2_2 1_555 1_555
O2_2 H1_2 1_555 1_555
O2_2 Co9_3 1_555 1_555
Co6_4 O2_3 1_555 1_555
Co7_5 O2_3 1_555 1_555
O1_2 C1_2 1_555 1_555
O2_3 H1_3 1_555 1_555
C1_2 C2_2 1_555 1_555
O3_2 Co6_4 1_555 1_555
C2_2 O3_2 1_555 1_555
O4_2 C3_2 1_555 1_555
C3_2 C2_2 1_555 1_555
O13 C4_2 1_555 1_555
C4_2 C1_2 1_555 1_555
Co7_6 O3_2 1_555 1_555
C3_2 C4_2 1_555 1_555

#END
