
###############################################################################
#
# This file contains modified crystal structure data generated from the
# MOF subset of the Cambridge Structural Database (CSD) v543 
# hosted by the Cambridge Crystallographic Data Centre (CCDC).
#
# This work is licensed under the Creative Commons
# Attribution-NonCommercial-ShareAlike 4.0 International License.
# To view a copy of this license, visit
# http://creativecommons.org/licenses/by-nc-sa/4.0/
# or send a letter to
# Creative Commons, PO Box 1866, Mountain View, CA 94042, USA.
#
# CIF created using the CSD Python API on 29 September 2022
# The structure has been converted into the P1 space group
# The structure has a 3D framework
# The original CSD entry QAVWUH is in the monoclinic crystal system
# The framework has been calculated to contain at least 10.0% void space
# The void calculation uses a probe of radius 1.32A, grid spacing 0.4
#
###############################################################################

data_QAVWUH
_chemical_formula_moiety         '(C96 H80 Co4 N32 O16 S4)n'
_symmetry_cell_setting           triclinic
_symmetry_space_group_name_H-M   'P 1'
_symmetry_Int_Tables_number      1
_space_group_name_Hall           'P 1'
loop_
_symmetry_equiv_pos_site_id
_symmetry_equiv_pos_as_xyz
1 x,y,z
_cell_length_a                   9.943(2)
_cell_length_b                   21.7104(15)
_cell_length_c                   13.2658(18)
_cell_angle_alpha                90
_cell_angle_beta                 97.638(3)
_cell_angle_gamma                90
_cell_volume                     2838.23
loop_
_atom_site_label
_atom_site_type_symbol
_atom_site_fract_x
_atom_site_fract_y
_atom_site_fract_z
H19 H 0.0398 0.0215 0.7684
C4 C 0.0381(3) 0.30650(16) 0.4409(2)
C5 C 0.0499(4) 0.28631(15) 0.5406(2)
H4 H 0.0241 0.3123 0.5903
C6 C 0.0988(3) 0.22869(15) 0.5678(2)
H5 H 0.1053 0.2165 0.6355
C7 C 0.1389(3) 0.18824(15) 0.4964(2)
C8 C 0.1269(4) 0.20904(16) 0.3965(3)
H6 H 0.1511 0.1830 0.3463
C9 C 0.0807(4) 0.26649(16) 0.3706(3)
H7 H 0.0776 0.2793 0.3034
C10 C 0.2031(3) 0.09739(15) 0.6172(2)
H8 H 0.1689 0.1119 0.6747
C11 C 0.2988(4) 0.04100(16) 0.5175(3)
H9 H 0.3455 0.0088 0.4916
C12 C 0.2550(3) 0.09015(14) 0.4645(2)
H10 H 0.2639 0.0976 0.3967
N3 N 0.1943(3) 0.12793(13) 0.5267(2)
N4 N 0.2689(3) 0.04265(12) 0.61157(19)
O1 O 0.0541(2) 0.51175(11) 0.18632(16)
O3 O 0.1873(2) 0.60361(11) 0.22839(15)
O4 O 0.2047(2) 0.52038(11) 0.34609(16)
S1 S 0.11408(8) 0.55308(4) 0.26912(6)
C1 C 0.3866(3) 0.04390(15) 0.9245(2)
H1 H 0.3507 0.0097 0.9535
C2 C 0.4402(3) 0.09181(15) 0.9768(2)
C3 C 0.4499(3) 0.10675(15) 0.8175(2)
H3 H 0.4669 0.1240 0.7563
C4_2 C 0.5381(3) 0.19350(16) 0.9409(2)
C7_2 C 0.6389(3) 0.31176(15) 0.9964(2)
C8_2 C 0.6269(4) 0.29096(16) 0.8965(3)
H6_2 H 0.6511 0.3170 0.8463
C9_2 C 0.5807(4) 0.23351(16) 0.8706(3)
H7_2 H 0.5776 0.2207 0.8034
H9_2 H 0.8455 0.4912 0.9916
C12_2 C 0.7550(3) 0.40985(14) 0.9645(2)
H10_2 H 0.7639 0.4024 0.8967
N1 N 0.3905(3) 0.05068(12) 0.82643(18)
N2 N 0.4808(3) 0.13403(13) 0.9093(2)
C17 C 0.01146(19) 0.73150(8) 0.95604(17)
H14 H 0.0617 0.6953 0.9629
C18 C 0.06345(16) 0.78328(9) 0.91320(17)
H15 H 0.1485 0.7817 0.8914
C22 C 0.1725(3) 0.89969(15) 0.8296(2)
H18 H 0.2421 0.8707 0.8374
C23 C 0.0630(3) 0.98209(15) 0.7921(2)
N7 N 0.0484(3) 0.89171(13) 0.8587(2)
N8 N 0.1804(3) 0.95644(12) 0.7874(2)
Co3 Co 0.34632(4) 0.98190(2) 0.72041(3)
C1_2 C 0.8866(3) 0.45610(15) 0.4245(2)
H1_2 H 0.8507 0.4903 0.4535
C2_2 C 0.9402(3) 0.40819(15) 0.4768(2)
H2 H 0.9489 0.4037 0.5471
C3_2 C 0.9499(3) 0.39325(15) 0.3175(2)
H3_2 H 0.9669 0.3760 0.2563
C13 C 0.8948(3) 0.63545(16) 0.0966(2)
H11 H 0.9870 0.6360 0.1208
C14 C 0.7038(3) 0.66077(16) 0.0231(2)
C15 C 0.6956(4) 0.60801(18) 0.0714(3)
H13 H 0.6160 0.5853 0.0695
H17 H 0.7242 0.7896 0.0002
Co1 Co 0.84632(4) 0.51810(2) 0.22041(3)
N1_2 N 0.8905(3) 0.44932(12) 0.32643(18)
N2_2 N 0.9808(3) 0.36597(13) 0.4093(2)
N5 N 0.8072(3) 0.59173(12) 0.12043(19)
N6 N 0.8314(3) 0.67810(13) 0.0335(2)
O2 O 0.9950(2) 0.57787(10) 0.31407(15)
N9 N 0.7689(3) 0.45735(12) 0.11157(19)
N10 N 0.6804(3) 0.54356(12) 0.2874(2)
H2_2 H 0.4489 0.0963 0.0471
C5_2 C 0.5499(4) 0.21369(15) 0.0406(2)
H4_2 H 0.5241 0.1877 0.0903
C6_2 C 0.5988(3) 0.27131(15) 0.0678(2)
H5_2 H 0.6053 0.2835 0.1355
C10_2 C 0.7031(3) 0.40261(15) 0.1172(2)
H8_2 H 0.6689 0.3881 0.1747
C11_2 C 0.7988(4) 0.45900(16) 0.0175(3)
N3_2 N 0.6943(3) 0.37207(13) 0.0267(2)
C13_2 C 0.3948(3) 0.86455(16) 0.5966(2)
H11_2 H 0.4870 0.8640 0.6208
C14_2 C 0.2038(3) 0.83923(16) 0.5231(2)
H12 H 0.1313 0.8179 0.4877
C15_2 C 0.1956(4) 0.89199(18) 0.5714(3)
H13_2 H 0.1160 0.9147 0.5695
C16 C 0.38434(19) 0.76612(8) 0.48862(17)
C17_2 C 0.51146(19) 0.76850(8) 0.45604(17)
H14_2 H 0.5617 0.8047 0.4629
C18_2 C 0.56345(16) 0.71672(9) 0.41320(17)
H15_2 H 0.6485 0.7183 0.3914
C19 C 0.4883(2) 0.66256(8) 0.40294(16)
C20 C 0.3612(2) 0.66018(8) 0.43552(16)
H16 H 0.3109 0.6239 0.4287
C21 C 0.30922(16) 0.71196(10) 0.47836(16)
H17_2 H 0.2242 0.7104 0.5002
C22_2 C 0.6725(3) 0.60031(15) 0.3296(2)
H18_2 H 0.7421 0.6293 0.3374
C23_2 C 0.5630(3) 0.51791(15) 0.2921(2)
H19_2 H 0.5398 0.4785 0.2684
C24 C 0.4798(3) 0.55510(14) 0.3351(2)
H20 H 0.3916 0.5462 0.3466
N5_2 N 0.3072(3) 0.90827(12) 0.62043(19)
N6_2 N 0.3314(3) 0.82190(13) 0.5335(2)
N7_2 N 0.5484(3) 0.60829(13) 0.3587(2)
O1_2 O 0.5541(2) 0.98825(11) 0.68632(16)
O2_2 O 0.4950(2) 0.92213(10) 0.81407(15)
O3_2 O 0.6873(2) 0.89639(11) 0.72839(15)
O4_2 O 0.7047(2) 0.97962(11) 0.84609(16)
S1_2 S 0.61408(8) 0.94692(4) 0.76912(6)
H12_2 H 0.6313 0.6821 0.9877
C16_2 C 0.88434(19) 0.73388(8) 0.98862(17)
C19_2 C 0.9883(2) 0.83744(8) 0.90294(16)
C20_2 C 0.8612(2) 0.83982(8) 0.93552(16)
H16_2 H 0.8109 0.8761 0.9287
C21_2 C 0.80922(16) 0.78804(10) 0.97836(16)
C24_2 C 0.9798(3) 0.94490(14) 0.8351(2)
H20_2 H 0.8916 0.9538 0.8466
C13_3 C 0.6052(3) 0.13545(16) 0.4034(2)
H11_3 H 0.5130 0.1360 0.3792
C14_3 C 0.7962(3) 0.16077(16) 0.4769(2)
H12_3 H 0.8687 0.1821 0.5123
C15_3 C 0.8044(4) 0.10801(18) 0.4286(3)
H13_3 H 0.8840 0.0853 0.4305
C16_3 C 0.61566(19) 0.23388(8) 0.51138(17)
C17_3 C 0.48854(19) 0.23150(8) 0.54396(17)
H14_3 H 0.4383 0.1953 0.5371
C18_3 C 0.43655(16) 0.28328(9) 0.58680(17)
H15_3 H 0.3515 0.2817 0.6086
C19_3 C 0.5117(2) 0.33744(8) 0.59706(16)
C20_3 C 0.6388(2) 0.33982(8) 0.56448(16)
H16_3 H 0.6891 0.3761 0.5713
C21_3 C 0.69078(16) 0.28804(10) 0.52164(16)
H17_3 H 0.7758 0.2896 0.4998
C22_3 C 0.3275(3) 0.39969(15) 0.6704(2)
H18_3 H 0.2579 0.3707 0.6626
C23_3 C 0.4370(3) 0.48209(15) 0.7079(2)
H19_3 H 0.4602 0.5215 0.7316
C24_3 C 0.5202(3) 0.44490(14) 0.6649(2)
H20_3 H 0.6084 0.4538 0.6534
Co1_2 Co 0.65368(4) 0.01810(2) 0.27959(3)
N5_3 N 0.6928(3) 0.09173(12) 0.37957(19)
N6_3 N 0.6686(3) 0.17810(13) 0.4665(2)
N7_3 N 0.4516(3) 0.39171(13) 0.6413(2)
N8_2 N 0.3196(3) 0.45644(12) 0.7126(2)
O1_3 O 0.4459(2) 0.01175(11) 0.31368(16)
O2_3 O 0.5050(2) 0.07787(10) 0.18593(15)
O3_3 O 0.3127(2) 0.10361(11) 0.27161(15)
O4_3 O 0.2953(2) 0.02038(11) 0.15391(16)
S1_3 S 0.38592(8) 0.05308(4) 0.23088(6)
Co3_2 Co 0.15368(4) 0.48190(2) 0.77959(3)
N10_2 N 0.8196(3) 0.04356(12) 0.2126(2)
H2_3 H 0.5511 0.9037 0.9529
C5_3 C 0.4501(4) 0.78631(15) 0.9594(2)
H4_3 H 0.4759 0.8123 0.9097
C6_3 C 0.4012(3) 0.72869(15) 0.9322(2)
H5_3 H 0.3947 0.7165 0.8645
C10_3 C 0.2969(3) 0.59739(15) 0.8828(2)
H8_3 H 0.3311 0.6119 0.8253
C11_3 C 0.2012(4) 0.54100(16) 0.9825(3)
N3_3 N 0.3057(3) 0.62793(13) 0.9733(2)
N4_2 N 0.2311(3) 0.54265(12) 0.88843(19)
C1_3 C 0.1134(3) 0.54390(15) 0.5755(2)
H1_3 H 0.1493 0.5097 0.5465
C2_3 C 0.0598(3) 0.59181(15) 0.5232(2)
H2_4 H 0.0511 0.5963 0.4529
C3_3 C 0.0501(3) 0.60675(15) 0.6825(2)
H3_3 H 0.0331 0.6240 0.7437
C13_4 C 0.1052(3) 0.36455(16) 0.9034(2)
H11_4 H 0.0130 0.3640 0.8792
C14_4 C 0.2962(3) 0.33923(16) 0.9769(2)
C15_4 C 0.3044(4) 0.39199(18) 0.9286(3)
H13_4 H 0.3840 0.4147 0.9305
H17_4 H 0.2758 0.2104 0.9998
N1_3 N 0.1095(3) 0.55068(12) 0.67357(18)
N2_3 N 0.0192(3) 0.63403(13) 0.5907(2)
N5_4 N 0.1928(3) 0.40827(12) 0.87957(19)
N6_4 N 0.1686(3) 0.32190(13) 0.9665(2)
O2_4 O 0.0050(2) 0.42213(10) 0.68593(15)
C17_4 C 0.98854(19) 0.26850(8) 0.04396(17)
H14_4 H 0.9383 0.3047 0.0371
C18_4 C 0.93655(16) 0.21672(9) 0.08680(17)
H15_4 H 0.8515 0.2183 0.1086
C22_4 C 0.8275(3) 0.10031(15) 0.1704(2)
H18_4 H 0.7579 0.1293 0.1626
C23_4 C 0.9370(3) 0.01791(15) 0.2079(2)
N7_4 N 0.9516(3) 0.10829(13) 0.1413(2)
C1_4 C 0.6134(3) 0.95610(15) 0.0755(2)
H1_4 H 0.6493 0.9903 0.0465
C2_4 C 0.5598(3) 0.90819(15) 0.0232(2)
C3_4 C 0.5501(3) 0.89325(15) 0.1825(2)
H3_4 H 0.5331 0.8760 0.2437
C4_3 C 0.4619(3) 0.80650(16) 0.0591(2)
C7_3 C 0.3611(3) 0.68824(15) 0.0036(2)
C8_3 C 0.3731(4) 0.70904(16) 0.1035(3)
H6_3 H 0.3489 0.6830 0.1537
C9_3 C 0.4193(4) 0.76649(16) 0.1294(3)
H7_3 H 0.4224 0.7793 0.1966
H9_3 H 0.1545 0.5088 0.0084
C12_3 C 0.2450(3) 0.59015(14) 0.0355(2)
H10_3 H 0.2361 0.5976 0.1033
N1_4 N 0.6095(3) 0.94932(12) 0.17357(18)
N2_4 N 0.5192(3) 0.86597(13) 0.0907(2)
N9_2 N 0.7311(3) 0.95735(12) 0.38843(19)
C4_4 C 0.9619(3) 0.69350(16) 0.5591(2)
C5_4 C 0.9501(4) 0.71369(15) 0.4594(2)
H4_4 H 0.9759 0.6877 0.4097
C6_4 C 0.9012(3) 0.77131(15) 0.4322(2)
H5_4 H 0.8947 0.7835 0.3645
C7_4 C 0.8611(3) 0.81176(15) 0.5036(2)
C8_4 C 0.8731(4) 0.79096(16) 0.6035(3)
H6_4 H 0.8489 0.8170 0.6537
C9_4 C 0.9193(4) 0.73351(16) 0.6294(3)
H7_4 H 0.9224 0.7207 0.6966
C10_4 C 0.7969(3) 0.90261(15) 0.3828(2)
H8_4 H 0.8311 0.8881 0.3253
C11_4 C 0.7012(4) 0.95900(16) 0.4825(3)
H9_4 H 0.6545 0.9912 0.5084
C12_4 C 0.7450(3) 0.90985(14) 0.5355(2)
H10_4 H 0.7361 0.9024 0.6033
N3_4 N 0.8057(3) 0.87207(13) 0.4733(2)
O1_4 O 0.9459(2) 0.48825(11) 0.81368(16)
O3_4 O 0.8127(2) 0.39639(11) 0.77161(15)
O4_4 O 0.7953(2) 0.47962(11) 0.65391(16)
S1_4 S 0.88592(8) 0.44692(4) 0.73088(6)
H12_4 H 0.3687 0.3179 0.0123
C16_4 C 0.11566(19) 0.26612(8) 0.01138(17)
C19_4 C 0.0117(2) 0.16256(8) 0.09706(16)
C20_4 C 0.1388(2) 0.16018(8) 0.06448(16)
H16_4 H 0.1891 0.1239 0.0713
C21_4 C 0.19078(16) 0.21196(10) 0.02164(16)
C24_4 C 0.0202(3) 0.05510(14) 0.1649(2)
H20_4 H 0.1084 0.0462 0.1534
H19_4 H 0.9602 0.9785 0.2316
loop_
_geom_bond_atom_site_label_1
_geom_bond_atom_site_label_2
_geom_bond_site_symmetry_1
_geom_bond_site_symmetry_2
C4 C5 1_555 1_555
C5 H4 1_555 1_555
C6 C5 1_555 1_555
H5 C6 1_555 1_555
C7 C6 1_555 1_555
C8 C7 1_555 1_555
H6 C8 1_555 1_555
C9 C4 1_555 1_555
H7 C9 1_555 1_555
C10 H8 1_555 1_555
C11 H9 1_555 1_555
C12 C11 1_555 1_555
H10 C12 1_555 1_555
N3 C7 1_555 1_555
N4 C10 1_555 1_555
O3 S1 1_555 1_555
O4 S1 1_555 1_555
S1 O1 1_555 1_555
C8 C9 1_555 1_555
C10 N3 1_555 1_555
C11 N4 1_555 1_555
C12 N3 1_555 1_555
C1 H1 1_555 1_555
C2 C1 1_555 1_555
C3 H3 1_555 1_555
C8_2 C7_2 1_555 1_555
H6_2 C8_2 1_555 1_555
C9_2 C4_2 1_555 1_555
H7_2 C9_2 1_555 1_555
H10_2 C12_2 1_555 1_555
N1 C1 1_555 1_555
N2 C2 1_555 1_555
C3 N1 1_555 1_555
C3 N2 1_555 1_555
C4_2 N2 1_555 1_555
C8_2 C9_2 1_555 1_555
C17 H14 1_555 1_555
C18 C17 1_555 1_555
H15 C18 1_555 1_555
C22 H18 1_555 1_555
N8 C22 1_555 1_555
Co3 N8 1_555 1_555
C22 N7 1_555 1_555
C23 N8 1_555 1_555
C1_2 H1_2 1_555 1_555
C2_2 C1_2 1_555 1_555
H2 C2_2 1_555 1_555
C3_2 H3_2 1_555 1_555
C13 H11 1_555 1_555
C15 C14 1_555 1_555
H13 C15 1_555 1_555
Co1 N1_2 1_555 1_555
N1_2 C1_2 1_555 1_555
N2_2 C2_2 1_555 1_555
N5 C13 1_555 1_555
N6 C13 1_555 1_555
O2 Co1 1_555 1_555
N9 Co1 1_555 1_555
N10 Co1 1_555 1_555
C3_2 N1_2 1_555 1_555
C3_2 N2_2 1_555 1_555
C14 N6 1_555 1_555
C15 N5 1_555 1_555
Co1 N5 1_555 1_555
C5_2 H4_2 1_555 1_555
C6_2 C5_2 1_555 1_555
H5_2 C6_2 1_555 1_555
C10_2 H8_2 1_555 1_555
N9 C10_2 1_555 1_555
C10_2 N3_2 1_555 1_555
C11_2 N9 1_555 1_555
C13_2 H11_2 1_555 1_555
C14_2 H12 1_555 1_555
C15_2 C14_2 1_555 1_555
H13_2 C15_2 1_555 1_555
C16 C17_2 1_555 1_555
C17_2 H14_2 1_555 1_555
C18_2 C17_2 1_555 1_555
H15_2 C18_2 1_555 1_555
C19 C18_2 1_555 1_555
C20 C19 1_555 1_555
H16 C20 1_555 1_555
C21 C16 1_555 1_555
H17_2 C21 1_555 1_555
C22_2 H18_2 1_555 1_555
C23_2 H19_2 1_555 1_555
C24 C23_2 1_555 1_555
H20 C24 1_555 1_555
N5_2 C13_2 1_555 1_555
N6_2 C13_2 1_555 1_555
N7_2 C19 1_555 1_555
N10 C22_2 1_555 1_555
O1_2 Co3 1_555 1_555
O2_2 Co3 1_555 1_555
O3_2 S1_2 1_555 1_555
O4_2 S1_2 1_555 1_555
S1_2 O1_2 1_555 1_555
C14_2 N6_2 1_555 1_555
C15_2 N5_2 1_555 1_555
C16 N6_2 1_555 1_555
C20 C21 1_555 1_555
C22_2 N7_2 1_555 1_555
C23_2 N10 1_555 1_555
C24 N7_2 1_555 1_555
Co3 N5_2 1_555 1_555
O2_2 S1_2 1_555 1_555
C20_2 C19_2 1_555 1_555
H16_2 C20_2 1_555 1_555
C21_2 C16_2 1_555 1_555
H20_2 C24_2 1_555 1_555
C20_2 C21_2 1_555 1_555
C13_3 H11_3 1_555 1_555
C14_3 H12_3 1_555 1_555
C15_3 C14_3 1_555 1_555
H13_3 C15_3 1_555 1_555
C16_3 C17_3 1_555 1_555
C17_3 H14_3 1_555 1_555
C18_3 C17_3 1_555 1_555
H15_3 C18_3 1_555 1_555
C19_3 C18_3 1_555 1_555
C20_3 C19_3 1_555 1_555
H16_3 C20_3 1_555 1_555
C21_3 C16_3 1_555 1_555
H17_3 C21_3 1_555 1_555
C22_3 H18_3 1_555 1_555
C23_3 H19_3 1_555 1_555
C24_3 C23_3 1_555 1_555
H20_3 C24_3 1_555 1_555
N5_3 C13_3 1_555 1_555
N6_3 C13_3 1_555 1_555
N7_3 C19_3 1_555 1_555
N8_2 C22_3 1_555 1_555
O1_3 Co1_2 1_555 1_555
O2_3 Co1_2 1_555 1_555
O3_3 S1_3 1_555 1_555
O4_3 S1_3 1_555 1_555
S1_3 O1_3 1_555 1_555
Co3_2 N8_2 1_555 1_555
N10_2 Co1_2 1_555 1_555
C14_3 N6_3 1_555 1_555
C15_3 N5_3 1_555 1_555
C16_3 N6_3 1_555 1_555
C20_3 C21_3 1_555 1_555
C22_3 N7_3 1_555 1_555
C23_3 N8_2 1_555 1_555
C24_3 N7_3 1_555 1_555
Co1_2 N5_3 1_555 1_555
O2_3 S1_3 1_555 1_555
C5_3 H4_3 1_555 1_555
C6_3 C5_3 1_555 1_555
H5_3 C6_3 1_555 1_555
C10_3 H8_3 1_555 1_555
N4_2 C10_3 1_555 1_555
Co3_2 N4_2 1_555 1_555
C10_3 N3_3 1_555 1_555
C11_3 N4_2 1_555 1_555
C1_3 H1_3 1_555 1_555
C2_3 C1_3 1_555 1_555
H2_4 C2_3 1_555 1_555
C3_3 H3_3 1_555 1_555
C13_4 H11_4 1_555 1_555
C15_4 C14_4 1_555 1_555
H13_4 C15_4 1_555 1_555
Co3_2 N1_3 1_555 1_555
N1_3 C1_3 1_555 1_555
N2_3 C2_3 1_555 1_555
N5_4 C13_4 1_555 1_555
N6_4 C13_4 1_555 1_555
O2_4 Co3_2 1_555 1_555
C3_3 N1_3 1_555 1_555
C3_3 N2_3 1_555 1_555
C14_4 N6_4 1_555 1_555
C15_4 N5_4 1_555 1_555
Co3_2 N5_4 1_555 1_555
C17_4 H14_4 1_555 1_555
C18_4 C17_4 1_555 1_555
H15_4 C18_4 1_555 1_555
C22_4 H18_4 1_555 1_555
N10_2 C22_4 1_555 1_555
C22_4 N7_4 1_555 1_555
C23_4 N10_2 1_555 1_555
C1_4 H1_4 1_555 1_555
C2_4 C1_4 1_555 1_555
C3_4 H3_4 1_555 1_555
C8_3 C7_3 1_555 1_555
H6_3 C8_3 1_555 1_555
C9_3 C4_3 1_555 1_555
H7_3 C9_3 1_555 1_555
H10_3 C12_3 1_555 1_555
N1_4 C1_4 1_555 1_555
N2_4 C2_4 1_555 1_555
C3_4 N1_4 1_555 1_555
C3_4 N2_4 1_555 1_555
C4_3 N2_4 1_555 1_555
C8_3 C9_3 1_555 1_555
C4_4 C5_4 1_555 1_555
C5_4 H4_4 1_555 1_555
C6_4 C5_4 1_555 1_555
H5_4 C6_4 1_555 1_555
C7_4 C6_4 1_555 1_555
C8_4 C7_4 1_555 1_555
H6_4 C8_4 1_555 1_555
C9_4 C4_4 1_555 1_555
H7_4 C9_4 1_555 1_555
C10_4 H8_4 1_555 1_555
C11_4 H9_4 1_555 1_555
C12_4 C11_4 1_555 1_555
H10_4 C12_4 1_555 1_555
N3_4 C7_4 1_555 1_555
N9_2 C10_4 1_555 1_555
O3_4 S1_4 1_555 1_555
O4_4 S1_4 1_555 1_555
S1_4 O1_4 1_555 1_555
C8_4 C9_4 1_555 1_555
C10_4 N3_4 1_555 1_555
C11_4 N9_2 1_555 1_555
C12_4 N3_4 1_555 1_555
C20_4 C19_4 1_555 1_555
H16_4 C20_4 1_555 1_555
C21_4 C16_4 1_555 1_555
H20_4 C24_4 1_555 1_555
C20_4 C21_4 1_555 1_555

#END
