
###############################################################################
#
# This file contains modified crystal structure data generated from the
# MOF subset of the Cambridge Structural Database (CSD) v543 
# hosted by the Cambridge Crystallographic Data Centre (CCDC).
#
# This work is licensed under the Creative Commons
# Attribution-NonCommercial-ShareAlike 4.0 International License.
# To view a copy of this license, visit
# http://creativecommons.org/licenses/by-nc-sa/4.0/
# or send a letter to
# Creative Commons, PO Box 1866, Mountain View, CA 94042, USA.
#
# CIF created using the CSD Python API on 29 September 2022
# The structure has been converted into the P1 space group
# The structure has a 3D framework
# The original CSD entry QAZFAB is in the orthorhombic crystal system
# The original CSD entry QAZFAB is in a Sohncke space group
# The framework has been calculated to contain at least 10.0% void space
# The void calculation uses a probe of radius 1.32A, grid spacing 0.4
# H atom positions have been added when not included in the experimental data
# Generated hydrogen atom positions removed from atoms on special positions
#
###############################################################################

data_QAZFAB
_chemical_formula_moiety         '(C56 H88 N8 O48 Tb13)n'
_symmetry_cell_setting           triclinic
_symmetry_space_group_name_H-M   'P 1'
_symmetry_Int_Tables_number      1
_space_group_name_Hall           'P 1'
loop_
_symmetry_equiv_pos_site_id
_symmetry_equiv_pos_as_xyz
1 x,y,z
_cell_length_a                   14.3444(17)
_cell_length_b                   15.1330(15)
_cell_length_c                   14.3555(14)
_cell_angle_alpha                90
_cell_angle_beta                 90
_cell_angle_gamma                90
_cell_volume                     3116.2
loop_
_atom_site_label
_atom_site_type_symbol
_atom_site_fract_x
_atom_site_fract_y
_atom_site_fract_z
Tb4 Tb 0.000000 0.13148(14) 0.750000
H5 H 0.692030 0.248398 0.007506
Tb5 Tb 0.85612(16) -0.000000 0.000000
Tb7 Tb 0.35612(16) 0.500000 0.000000
Tb1 Tb 0.500000 0.63148(14) 0.750000
O1 O 0.4091(16) 0.502(3) 0.7856(16)
C1 C 0.395(2) 0.397(2) 0.6257(19)
H1 H 0.431148 0.447201 0.620204
N1 N 0.3849(19) 0.348(2) 0.5457(17)
C2 C 0.358(3) 0.382(3) 0.713(2)
O2 O 0.137(3) 0.186(3) 0.693(3)
O3 O 0.208(2) 0.134(3) 0.564(2)
C3 C 0.319(2) 0.281(2) 0.5463(18)
H2 H 0.307970 0.248398 0.492494
C4 C 0.199(2) 0.185(2) 0.628(2)
C5 C 0.362(3) 0.441(3) 0.786(3)
C6 C 0.281(3) 0.321(3) 0.707(2)
H3 H 0.237284 0.318394 0.754582
O4 O 0.332(2) 0.410(2) 0.870(2)
C7 C 0.270(2) 0.263(2) 0.625(2)
O5 O 0.591(2) 0.660(3) 0.8846(19)
Tb2 Tb 0.14388(16) -0.000000 0.500000
O6 O 0.017(3) 0.088(3) 0.535(3)
O7 O 0.5909(16) 0.502(3) 0.7144(16)
C8 C 0.605(2) 0.397(2) 0.8743(19)
H4 H 0.568852 0.447201 0.879796
N2 N 0.6151(19) 0.348(2) 0.9543(17)
C9 C 0.642(3) 0.382(3) 0.787(2)
O8 O 0.863(3) 0.186(3) 0.807(3)
O9 O 0.792(2) 0.134(3) 0.936(2)
C10 C 0.681(2) 0.281(2) 0.9537(18)
C11 C 0.801(2) 0.185(2) 0.872(2)
C12 C 0.638(3) 0.441(3) 0.714(3)
C13 C 0.719(3) 0.321(3) 0.793(2)
H6 H 0.762716 0.318394 0.745418
O10 O 0.668(2) 0.410(2) 0.630(2)
C14 C 0.730(2) 0.263(2) 0.875(2)
O11 O 0.409(2) 0.660(3) 0.6154(19)
Tb4_2 Tb 1.000000 0.13148(14) 0.750000
O13 O 0.637(3) 0.686(3) 0.693(3)
O14 O 0.363(3) 0.686(3) 0.807(3)
O16 O 0.168(2) 0.090(2) 0.370(2)
Tb5_2 Tb 0.85612(16) -0.000000 1.000000
Tb6 Tb 0.64388(16) 0.500000 0.500000
Tb7_2 Tb 0.35612(16) 0.500000 1.000000
H11 H 0.0210446 0.144007 0.499185
Tb5_3 Tb 0.85612(16) 1.000000 0.000000
Tb2_2 Tb 0.14388(16) 1.000000 0.500000
O12 O 0.017(3) 0.912(3) 0.465(3)
O15 O 0.208(2) 0.866(3) 0.436(2)
O17 O 0.168(2) 0.910(2) 0.630(2)
Tb5_4 Tb 0.85612(16) 1.000000 1.000000
H10 H 0.038736 0.856765 0.434625
H12 H 0.958694 0.0564519 0.518135
Tb3 Tb -0.000000 0.86852(14) 0.250000
H12_2 H 0.0413059 0.943548 0.0181347
O17_2 O 0.832(2) 0.090(2) 0.130(2)
O12_2 O 0.983(3) 0.088(3) 0.965(3)
H10_2 H 0.961264 0.143235 0.934625
Tb1_2 Tb 0.500000 0.36852(14) 0.250000
O1_2 O 0.5909(16) 0.498(3) 0.2856(16)
C1_2 C 0.605(2) 0.603(2) 0.1257(19)
H1_2 H 0.568852 0.552799 0.120204
N1_2 N 0.6151(19) 0.652(2) 0.0457(17)
C2_2 C 0.642(3) 0.618(3) 0.213(2)
O2_2 O 0.863(3) 0.814(3) 0.193(3)
O3_2 O 0.792(2) 0.866(3) 0.064(2)
C3_2 C 0.681(2) 0.719(2) 0.0463(18)
C4_2 C 0.801(2) 0.815(2) 0.128(2)
C5_2 C 0.638(3) 0.559(3) 0.286(3)
C6_2 C 0.719(3) 0.679(3) 0.207(2)
H3_2 H 0.762716 0.681606 0.254582
O4_2 O 0.668(2) 0.590(2) 0.370(2)
C7_2 C 0.730(2) 0.737(2) 0.125(2)
O5_2 O 0.409(2) 0.340(3) 0.3846(19)
O6_2 O 0.983(3) 0.912(3) 0.035(3)
O7_2 O 0.4091(16) 0.498(3) 0.2144(16)
C8_2 C 0.395(2) 0.603(2) 0.3743(19)
H4_2 H 0.431148 0.552799 0.379796
N2_2 N 0.3849(19) 0.652(2) 0.4543(17)
C9_2 C 0.358(3) 0.618(3) 0.287(2)
O8_2 O 0.137(3) 0.814(3) 0.307(3)
C10_2 C 0.319(2) 0.719(2) 0.4537(18)
H5_2 H 0.307970 0.751602 0.507506
C11_2 C 0.199(2) 0.815(2) 0.372(2)
C12_2 C 0.362(3) 0.559(3) 0.214(3)
C13_2 C 0.281(3) 0.679(3) 0.293(2)
H6_2 H 0.237284 0.681606 0.245418
O10_2 O 0.332(2) 0.590(2) 0.130(2)
C14_2 C 0.270(2) 0.737(2) 0.375(2)
O11_2 O 0.591(2) 0.340(3) 0.1154(19)
Tb3_2 Tb 1.000000 0.86852(14) 0.250000
O13_2 O 0.363(3) 0.314(3) 0.193(3)
O14_2 O 0.637(3) 0.314(3) 0.307(3)
H2_2 H 0.692030 0.751602 0.992494
O16_2 O 0.832(2) 0.910(2) 0.870(2)
H11_2 H 0.978955 0.855993 0.999185
H12_3 H 0.0413059 0.0564519 0.981865
H11_3 H 0.978955 0.144007 0.000814695
H10_3 H 0.961264 0.856765 0.0653754
H10_4 H 0.038736 0.143235 0.565375
H11_4 H 0.0210446 0.855993 0.500815
H12_4 H 0.958694 0.943548 0.481865
O5_3 O 0.091(2) 0.160(3) 0.8846(19)
O7_3 O 0.0909(16) 0.002(3) 0.7144(16)
H5_3 H 0.192030 0.748398 0.007506
C8_3 C 0.105(2) 0.897(2) 0.8743(19)
H4_3 H 0.068852 0.947201 0.879796
N2_3 N 0.1151(19) 0.848(2) 0.9543(17)
C9_3 C 0.142(3) 0.882(3) 0.787(2)
O9_2 O 0.292(2) 0.634(3) 0.936(2)
C10_3 C 0.181(2) 0.781(2) 0.9537(18)
C11_3 C 0.301(2) 0.685(2) 0.872(2)
C12_3 C 0.138(3) 0.941(3) 0.714(3)
C13_3 C 0.219(3) 0.821(3) 0.793(2)
H6_3 H 0.262716 0.818394 0.745418
C14_3 C 0.230(2) 0.763(2) 0.875(2)
O1_3 O 0.9091(16) 0.002(3) 0.7856(16)
O11_3 O 0.909(2) 0.160(3) 0.6154(19)
C1_3 C 0.895(2) 0.897(2) 0.6257(19)
H1_3 H 0.931148 0.947201 0.620204
N1_3 N 0.8849(19) 0.848(2) 0.5457(17)
C2_3 C 0.858(3) 0.882(3) 0.713(2)
O3_3 O 0.708(2) 0.634(3) 0.564(2)
C3_3 C 0.819(2) 0.781(2) 0.5463(18)
H2_3 H 0.807970 0.748398 0.492494
C4_3 C 0.699(2) 0.685(2) 0.628(2)
C5_3 C 0.862(3) 0.941(3) 0.786(3)
C6_3 C 0.781(3) 0.821(3) 0.707(2)
H3_3 H 0.737284 0.818394 0.754582
C7_3 C 0.770(2) 0.763(2) 0.625(2)
O6_3 O 0.517(3) 0.588(3) 0.535(3)
O12_3 O 0.517(3) 0.412(3) 0.465(3)
O15_2 O 0.708(2) 0.366(3) 0.436(2)
C1_4 C 0.105(2) 0.103(2) 0.1257(19)
H1_4 H 0.068852 0.052799 0.120204
N1_4 N 0.1151(19) 0.152(2) 0.0457(17)
C2_4 C 0.142(3) 0.118(3) 0.213(2)
O3_4 O 0.292(2) 0.366(3) 0.064(2)
C3_4 C 0.181(2) 0.219(2) 0.0463(18)
C4_4 C 0.301(2) 0.315(2) 0.128(2)
C5_4 C 0.138(3) 0.059(3) 0.286(3)
C6_4 C 0.219(3) 0.179(3) 0.207(2)
H3_4 H 0.262716 0.181606 0.254582
C7_4 C 0.230(2) 0.237(2) 0.125(2)
O6_4 O 0.483(3) 0.412(3) 0.035(3)
H2_4 H 0.192030 0.251602 0.992494
O12_4 O 0.483(3) 0.588(3) 0.965(3)
H11_5 H 0.478955 0.355993 0.999185
O1_4 O 0.0909(16) 0.998(3) 0.2856(16)
O11_4 O 0.091(2) 0.840(3) 0.1154(19)
C8_4 C 0.895(2) 0.103(2) 0.3743(19)
H4_4 H 0.931148 0.052799 0.379796
N2_4 N 0.8849(19) 0.152(2) 0.4543(17)
C9_4 C 0.858(3) 0.118(3) 0.287(2)
C10_4 C 0.819(2) 0.219(2) 0.4537(18)
H5_4 H 0.807970 0.251602 0.507506
C11_4 C 0.699(2) 0.315(2) 0.372(2)
C12_4 C 0.862(3) 0.059(3) 0.214(3)
C13_4 C 0.781(3) 0.179(3) 0.293(2)
H6_4 H 0.737284 0.181606 0.245418
C14_4 C 0.770(2) 0.237(2) 0.375(2)
O5_4 O 0.909(2) 0.840(3) 0.3846(19)
O7_4 O 0.9091(16) 0.998(3) 0.2144(16)
H11_6 H 0.478955 0.644007 0.000814695
H9 H 0.974667 0.944245 0.422104
H9_2 H 0.0253328 0.0557553 0.922104
H9_3 H 0.0253328 0.944245 0.0778963
H9_4 H 0.974667 0.0557553 0.577896
loop_
_geom_bond_atom_site_label_1
_geom_bond_atom_site_label_2
_geom_bond_site_symmetry_1
_geom_bond_site_symmetry_2
Tb1 O1 1_555 1_555
O1 C5 1_555 1_555
C1 H1 1_555 1_555
N1 C1 1_555 1_555
C2 C1 1_555 1_555
O2 C4 1_555 1_555
O3 C4 1_555 1_555
C3 N1 1_555 1_555
H2 C3 1_555 1_555
C4 C7 1_555 1_555
C5 C2 1_555 1_555
C6 C2 1_555 1_555
H3 C6 1_555 1_555
O4 C5 1_555 1_555
C7 C3 1_555 1_555
O5 Tb1 1_555 1_555
Tb2 O3 1_555 1_555
O6 Tb2 1_555 1_555
O7 Tb1 1_555 1_555
C8 H4 1_555 1_555
N2 C8 1_555 1_555
C9 C8 1_555 1_555
O8 C11 1_555 1_555
O9 C11 1_555 1_555
C10 N2 1_555 1_555
C11 C14 1_555 1_555
C12 O7 1_555 1_555
C13 C9 1_555 1_555
H6 C13 1_555 1_555
O10 C12 1_555 1_555
C14 C10 1_555 1_555
O11 Tb1 1_555 1_555
Tb4 O2 1_555 1_555
Tb4_2 O8 1_555 1_555
O13 Tb1 1_555 1_555
O14 Tb1 1_555 1_555
O16 Tb2 1_555 1_555
Tb5_2 O9 1_555 1_555
Tb6 O10 1_555 1_555
Tb7_2 O4 1_555 1_555
C6 C7 1_555 1_555
C9 C12 1_555 1_555
C13 C14 1_555 1_555
O6 H11 1_555 1_555
O12 Tb2_2 1_555 1_555
O15 Tb2_2 1_555 1_555
O17 Tb2_2 1_555 1_555
O12 H10 1_555 1_555
O17_2 Tb5 1_555 1_555
O12_2 Tb5_2 1_555 1_555
O12_2 H10_2 1_555 1_555
Tb1_2 O1_2 1_555 1_555
O1_2 C5_2 1_555 1_555
C1_2 H1_2 1_555 1_555
N1_2 C1_2 1_555 1_555
C2_2 C1_2 1_555 1_555
O2_2 C4_2 1_555 1_555
O3_2 C4_2 1_555 1_555
C3_2 N1_2 1_555 1_555
C4_2 C7_2 1_555 1_555
C5_2 C2_2 1_555 1_555
C6_2 C2_2 1_555 1_555
H3_2 C6_2 1_555 1_555
O4_2 C5_2 1_555 1_555
C7_2 C3_2 1_555 1_555
O5_2 Tb1_2 1_555 1_555
Tb5_3 O3_2 1_555 1_555
O6_2 Tb5_3 1_555 1_555
O7_2 Tb1_2 1_555 1_555
C8_2 H4_2 1_555 1_555
N2_2 C8_2 1_555 1_555
C9_2 C8_2 1_555 1_555
O8_2 C11_2 1_555 1_555
O15 C11_2 1_555 1_555
C10_2 N2_2 1_555 1_555
H5_2 C10_2 1_555 1_555
C11_2 C14_2 1_555 1_555
C12_2 O7_2 1_555 1_555
C13_2 C9_2 1_555 1_555
H6_2 C13_2 1_555 1_555
O10_2 C12_2 1_555 1_555
C14_2 C10_2 1_555 1_555
O11_2 Tb1_2 1_555 1_555
Tb3_2 O2_2 1_555 1_555
Tb3 O8_2 1_555 1_555
O13_2 Tb1_2 1_555 1_555
O14_2 Tb1_2 1_555 1_555
Tb7 O10_2 1_555 1_555
Tb6 O4_2 1_555 1_555
C6_2 C7_2 1_555 1_555
C9_2 C12_2 1_555 1_555
C13_2 C14_2 1_555 1_555
O16_2 Tb5_4 1_555 1_555
O6_2 H10_3 1_555 1_555
O6 H10_4 1_555 1_555
O12 H11_4 1_555 1_555
O5_3 Tb4 1_555 1_555
O7_3 Tb4 1_555 1_555
C8_3 H4_3 1_555 1_555
N2_3 C8_3 1_555 1_555
C9_3 C8_3 1_555 1_555
O14 C11_3 1_555 1_555
O9_2 C11_3 1_555 1_555
C10_3 N2_3 1_555 1_555
C11_3 C14_3 1_555 1_555
C13_3 C9_3 1_555 1_555
H6_3 C13_3 1_555 1_555
O17 C12_3 1_555 1_555
C14_3 C10_3 1_555 1_555
Tb7_2 O9_2 1_555 1_555
C9_3 C12_3 1_555 1_555
C13_3 C14_3 1_555 1_555
Tb4_2 O1_3 1_555 1_555
O11_3 Tb4_2 1_555 1_555
C1_3 H1_3 1_555 1_555
N1_3 C1_3 1_555 1_555
C2_3 C1_3 1_555 1_555
O13 C4_3 1_555 1_555
O3_3 C4_3 1_555 1_555
C3_3 N1_3 1_555 1_555
H2_3 C3_3 1_555 1_555
C4_3 C7_3 1_555 1_555
C5_3 C2_3 1_555 1_555
C6_3 C2_3 1_555 1_555
H3_3 C6_3 1_555 1_555
O16_2 C5_3 1_555 1_555
C7_3 C3_3 1_555 1_555
Tb6 O3_3 1_555 1_555
O6_3 Tb6 1_555 1_555
O12_3 Tb6 1_555 1_555
O15_2 Tb6 1_555 1_555
C6_3 C7_3 1_555 1_555
C1_4 H1_4 1_555 1_555
N1_4 C1_4 1_555 1_555
C2_4 C1_4 1_555 1_555
O13_2 C4_4 1_555 1_555
O3_4 C4_4 1_555 1_555
C3_4 N1_4 1_555 1_555
C4_4 C7_4 1_555 1_555
C5_4 C2_4 1_555 1_555
C6_4 C2_4 1_555 1_555
H3_4 C6_4 1_555 1_555
O16 C5_4 1_555 1_555
C7_4 C3_4 1_555 1_555
Tb7 O3_4 1_555 1_555
O6_4 Tb7 1_555 1_555
C6_4 C7_4 1_555 1_555
O12_4 Tb7_2 1_555 1_555
Tb3 O1_4 1_555 1_555
O11_4 Tb3 1_555 1_555
C8_4 H4_4 1_555 1_555
N2_4 C8_4 1_555 1_555
C9_4 C8_4 1_555 1_555
O14_2 C11_4 1_555 1_555
O15_2 C11_4 1_555 1_555
C10_4 N2_4 1_555 1_555
H5_4 C10_4 1_555 1_555
C11_4 C14_4 1_555 1_555
C13_4 C9_4 1_555 1_555
H6_4 C13_4 1_555 1_555
O17_2 C12_4 1_555 1_555
C14_4 C10_4 1_555 1_555
C9_4 C12_4 1_555 1_555
C13_4 C14_4 1_555 1_555
O5_4 Tb3_2 1_555 1_555
O7_4 Tb3_2 1_555 1_555

#END
