
###############################################################################
#
# This file contains modified crystal structure data generated from the
# MOF subset of the Cambridge Structural Database (CSD) v543 
# hosted by the Cambridge Crystallographic Data Centre (CCDC).
#
# This work is licensed under the Creative Commons
# Attribution-NonCommercial-ShareAlike 4.0 International License.
# To view a copy of this license, visit
# http://creativecommons.org/licenses/by-nc-sa/4.0/
# or send a letter to
# Creative Commons, PO Box 1866, Mountain View, CA 94042, USA.
#
# CIF created using the CSD Python API on 29 September 2022
# The structure has been converted into the P1 space group
# The structure has a 3D framework
# The original CSD entry QEBDIN is in the monoclinic crystal system
# The framework has been calculated to contain at least 10.0% void space
# The void calculation uses a probe of radius 1.32A, grid spacing 0.4
#
###############################################################################

data_QEBDIN
_chemical_formula_moiety         '(C88 H88 N16 O16 Zn3)n'
_symmetry_cell_setting           triclinic
_symmetry_space_group_name_H-M   'P 1'
_symmetry_Int_Tables_number      1
_space_group_name_Hall           'P 1'
loop_
_symmetry_equiv_pos_site_id
_symmetry_equiv_pos_as_xyz
1 x,y,z
_cell_length_a                   13.858(6)
_cell_length_b                   12.725(5)
_cell_length_c                   22.667(10)
_cell_angle_alpha                90
_cell_angle_beta                 105.563(8)
_cell_angle_gamma                90
_cell_volume                     3850.62
loop_
_atom_site_label
_atom_site_type_symbol
_atom_site_fract_x
_atom_site_fract_y
_atom_site_fract_z
Zn3 Zn 0.0000 0.06265(4) 0.2500
Zn1 Zn 0.5000 0.56265(4) 0.2500
C1 C 0.4283(3) 0.5095(3) 0.10953(16)
C2 C 0.4653(3) 0.5045(3) 0.05314(16)
C3 C 0.5560(3) 0.5509(4) 0.05165(19)
H1 H 0.5945 0.5853 0.0862
C4 C 0.4107(3) 0.4538(4) 0.0011(2)
H2 H 0.3503 0.4221 0.0011
C5 C 0.4541(3) 0.3380(3) 0.2636(2)
H3 H 0.4139 0.2756 0.2506
H4 H 0.4767 0.3379 0.3080
C6 C 0.3143(3) 0.4480(3) 0.2740(2)
H5 H 0.2753 0.5096 0.2573
H6 H 0.3455 0.4611 0.3171
C7 C 0.2444(3) 0.3542(3) 0.26811(17)
C8 C 0.2421(3) 0.2929(4) 0.31637(19)
H7 H 0.2845 0.3075 0.3548
C9 C 0.1775(3) 0.2091(4) 0.30893(19)
H8 H 0.1802 0.1664 0.3426
C10 C 0.1146(3) 0.2433(3) 0.20979(18)
H9 H 0.0708 0.2270 0.1720
C11 C 0.1796(4) 0.3290(4) 0.2127(2)
H10 H 0.1788 0.3678 0.1778
N1 N 0.3937(2) 0.4327(2) 0.24216(15)
H11 H 0.3645 0.4260 0.2018
N2 N 0.1118(2) 0.1855(2) 0.25657(12)
O1 O 0.4813(2) 0.56249(19) 0.15377(11)
O2 O 0.3506(3) 0.4628(3) 0.11065(15)
C16 C 0.5459(3) 0.3380(3) 0.2364(2)
H14 H 0.5861 0.2756 0.2494
H15 H 0.5233 0.3379 0.1920
C17 C 0.6857(3) 0.4480(3) 0.2260(2)
H16 H 0.7247 0.5096 0.2427
H17 H 0.6545 0.4611 0.1829
C18 C 0.7556(3) 0.3542(3) 0.23189(17)
C19 C 0.7579(3) 0.2929(4) 0.18363(19)
H18 H 0.7155 0.3075 0.1452
C20 C 0.8225(3) 0.2091(4) 0.19107(19)
H19 H 0.8198 0.1664 0.1574
C21 C 0.8854(3) 0.2433(3) 0.29021(18)
H20 H 0.9292 0.2270 0.3280
C22 C 0.8204(4) 0.3290(4) 0.2873(2)
H21 H 0.8212 0.3678 0.3222
N3 N 0.6063(2) 0.4327(2) 0.25784(15)
H22 H 0.6355 0.4260 0.2982
N4 N 0.8882(2) 0.1855(2) 0.24343(12)
Zn3_2 Zn 1.0000 0.06265(4) 0.2500
N5 N 0.6118(2) 0.6855(2) 0.25657(12)
N6 N 0.3882(2) 0.6855(2) 0.24343(12)
O5 O 0.5187(2) 0.56249(19) 0.34623(11)
C12 C 0.5717(3) 0.4905(3) 0.89047(16)
C13 C 0.5347(3) 0.4955(3) 0.94686(16)
C14 C 0.4440(3) 0.4491(4) 0.94835(19)
H12 H 0.4055 0.4147 0.9138
C15 C 0.5893(3) 0.5462(4) 0.9989(2)
H13 H 0.6497 0.5779 0.9989
O3 O 0.5187(2) 0.43751(19) 0.84623(11)
O4 O 0.6494(3) 0.5372(3) 0.88935(15)
Zn4 Zn 0.5000 0.43735(4) 0.7500
C1_2 C 0.5717(3) 0.5095(3) 0.39047(16)
C2_2 C 0.5347(3) 0.5045(3) 0.44686(16)
C3_2 C 0.4440(3) 0.5509(4) 0.44835(19)
H1_2 H 0.4055 0.5853 0.4138
C4_2 C 0.5893(3) 0.4538(4) 0.4989(2)
H2_2 H 0.6497 0.4221 0.4989
O2_2 O 0.6494(3) 0.4628(3) 0.38935(15)
C12_2 C 0.4283(3) 0.4905(3) 0.60953(16)
C13_2 C 0.4653(3) 0.4955(3) 0.55314(16)
C14_2 C 0.5560(3) 0.4491(4) 0.55165(19)
H12_2 H 0.5945 0.4147 0.5862
C15_2 C 0.4107(3) 0.5462(4) 0.5011(2)
H13_2 H 0.3503 0.5779 0.5011
O3_2 O 0.4813(2) 0.43751(19) 0.65377(11)
O4_2 O 0.3506(3) 0.5372(3) 0.61065(15)
C3_3 C 0.0560(3) 0.0509(4) 0.05165(19)
H1_3 H 0.0945 0.0853 0.0862
H16_2 H 0.2247 0.0096 0.2427
O5_2 O 0.0187(2) 0.06249(19) 0.34623(11)
C15_3 C 0.0893(3) 0.0462(4) 0.9989(2)
H13_3 H 0.1497 0.0779 0.9989
O4_3 O 0.1494(3) 0.0372(3) 0.88935(15)
C16_2 C 0.0459(3) 0.8380(3) 0.2364(2)
H14_2 H 0.0861 0.7756 0.2494
H15_2 H 0.0233 0.8379 0.1920
C17_2 C 0.1857(3) 0.9480(3) 0.2260(2)
H17_2 H 0.1545 0.9611 0.1829
C18_2 C 0.2556(3) 0.8542(3) 0.23189(17)
C19_2 C 0.2579(3) 0.7929(4) 0.18363(19)
H18_2 H 0.2155 0.8075 0.1452
C20_2 C 0.3225(3) 0.7091(4) 0.19107(19)
H19_2 H 0.3198 0.6664 0.1574
C21_2 C 0.3854(3) 0.7433(3) 0.29021(18)
H20_2 H 0.4292 0.7270 0.3280
C22_2 C 0.3204(4) 0.8290(4) 0.2873(2)
H21_2 H 0.3212 0.8678 0.3222
N3_2 N 0.1063(2) 0.9327(2) 0.25784(15)
H22_2 H 0.1355 0.9260 0.2982
C12_3 C 0.0717(3) 0.9905(3) 0.89047(16)
C13_3 C 0.0347(3) 0.9955(3) 0.94686(16)
O3_3 O 0.0187(2) 0.93751(19) 0.84623(11)
Zn4_2 Zn 0.0000 0.93735(4) 0.7500
C1_3 C 0.9283(3) 0.0095(3) 0.10953(16)
C2_3 C 0.9653(3) 0.0045(3) 0.05314(16)
H5_2 H 0.7753 0.0096 0.2573
O1_2 O 0.9813(2) 0.06249(19) 0.15377(11)
C4_3 C 0.9107(3) 0.9538(4) 0.0011(2)
H2_3 H 0.8503 0.9221 0.0011
C5_2 C 0.9541(3) 0.8380(3) 0.2636(2)
H3_2 H 0.9139 0.7756 0.2506
H4_2 H 0.9767 0.8379 0.3080
C6_2 C 0.8143(3) 0.9480(3) 0.2740(2)
H6_2 H 0.8455 0.9611 0.3171
C7_2 C 0.7444(3) 0.8542(3) 0.26811(17)
C8_2 C 0.7421(3) 0.7929(4) 0.31637(19)
H7_2 H 0.7845 0.8075 0.3548
C9_2 C 0.6775(3) 0.7091(4) 0.30893(19)
H8_2 H 0.6802 0.6664 0.3426
C10_2 C 0.6146(3) 0.7433(3) 0.20979(18)
H9_2 H 0.5708 0.7270 0.1720
C11_2 C 0.6796(4) 0.8290(4) 0.2127(2)
H10_2 H 0.6788 0.8678 0.1778
N1_2 N 0.8937(2) 0.9327(2) 0.24216(15)
H11_2 H 0.8645 0.9260 0.2018
O2_3 O 0.8506(3) 0.9628(3) 0.11065(15)
C14_3 C 0.9440(3) 0.9491(4) 0.94835(19)
H12_3 H 0.9055 0.9147 0.9138
Zn4_3 Zn 1.0000 0.93735(4) 0.7500
C1_4 C 0.0717(3) 0.0095(3) 0.39047(16)
C2_4 C 0.0347(3) 0.0045(3) 0.44686(16)
C4_4 C 0.0893(3) 0.9538(4) 0.4989(2)
H2_4 H 0.1497 0.9221 0.4989
O2_4 O 0.1494(3) 0.9628(3) 0.38935(15)
C14_4 C 0.0560(3) 0.9491(4) 0.55165(19)
H12_4 H 0.0945 0.9147 0.5862
C3_4 C 0.9440(3) 0.0509(4) 0.44835(19)
H1_4 H 0.9055 0.0853 0.4138
C15_4 C 0.9107(3) 0.0462(4) 0.5011(2)
H13_4 H 0.8503 0.0779 0.5011
O4_4 O 0.8506(3) 0.0372(3) 0.61065(15)
C12_4 C 0.9283(3) 0.9905(3) 0.60953(16)
C13_4 C 0.9653(3) 0.9955(3) 0.55314(16)
O3_4 O 0.9813(2) 0.93751(19) 0.65377(11)
C5_3 C 0.5459(3) 0.6620(3) 0.7364(2)
H3_3 H 0.5861 0.7244 0.7494
H4_3 H 0.5233 0.6621 0.6920
C6_3 C 0.6857(3) 0.5520(3) 0.7260(2)
H5_3 H 0.7247 0.4904 0.7427
H6_3 H 0.6545 0.5389 0.6829
C7_3 C 0.7556(3) 0.6458(3) 0.73189(17)
C8_3 C 0.7579(3) 0.7071(4) 0.68363(19)
H7_3 H 0.7155 0.6925 0.6452
C9_3 C 0.8225(3) 0.7909(4) 0.69107(19)
H8_3 H 0.8198 0.8336 0.6574
C10_3 C 0.8854(3) 0.7567(3) 0.79021(18)
H9_3 H 0.9292 0.7730 0.8280
C11_3 C 0.8204(4) 0.6710(4) 0.7873(2)
H10_3 H 0.8212 0.6322 0.8222
N1_3 N 0.6063(2) 0.5673(2) 0.75784(15)
H11_3 H 0.6355 0.5740 0.7982
N2_2 N 0.8882(2) 0.8145(2) 0.74343(12)
C16_3 C 0.4541(3) 0.6620(3) 0.7636(2)
H14_3 H 0.4139 0.7244 0.7506
H15_3 H 0.4767 0.6621 0.8080
C17_3 C 0.3143(3) 0.5520(3) 0.7740(2)
H16_3 H 0.2753 0.4904 0.7573
H17_3 H 0.3455 0.5389 0.8171
C18_3 C 0.2444(3) 0.6458(3) 0.76811(17)
C19_3 C 0.2421(3) 0.7071(4) 0.81637(19)
H18_3 H 0.2845 0.6925 0.8548
C20_3 C 0.1775(3) 0.7909(4) 0.80893(19)
H19_3 H 0.1802 0.8336 0.8426
C21_3 C 0.1146(3) 0.7567(3) 0.70979(18)
H20_3 H 0.0708 0.7730 0.6720
C22_3 C 0.1796(4) 0.6710(4) 0.7127(2)
H21_3 H 0.1788 0.6322 0.6778
N3_3 N 0.3937(2) 0.5673(2) 0.74216(15)
H22_3 H 0.3645 0.5740 0.7018
N4_2 N 0.1118(2) 0.8145(2) 0.75657(12)
N5_2 N 0.3882(2) 0.3145(2) 0.74343(12)
N6_2 N 0.6118(2) 0.3145(2) 0.75657(12)
C5_4 C 0.0459(3) 0.1620(3) 0.7364(2)
H3_4 H 0.0861 0.2244 0.7494
H4_4 H 0.0233 0.1621 0.6920
C6_4 C 0.1857(3) 0.0520(3) 0.7260(2)
H6_4 H 0.1545 0.0389 0.6829
C7_4 C 0.2556(3) 0.1458(3) 0.73189(17)
C8_4 C 0.2579(3) 0.2071(4) 0.68363(19)
H7_4 H 0.2155 0.1925 0.6452
C9_4 C 0.3225(3) 0.2909(4) 0.69107(19)
H8_4 H 0.3198 0.3336 0.6574
C10_4 C 0.3854(3) 0.2567(3) 0.79021(18)
H9_4 H 0.4292 0.2730 0.8280
C11_4 C 0.3204(4) 0.1710(4) 0.7873(2)
H10_4 H 0.3212 0.1322 0.8222
N1_4 N 0.1063(2) 0.0673(2) 0.75784(15)
H11_4 H 0.1355 0.0740 0.7982
H5_4 H 0.2247 0.9904 0.7427
C16_4 C 0.9541(3) 0.1620(3) 0.7636(2)
H14_4 H 0.9139 0.2244 0.7506
H15_4 H 0.9767 0.1621 0.8080
C17_4 C 0.8143(3) 0.0520(3) 0.7740(2)
H17_4 H 0.8455 0.0389 0.8171
C18_4 C 0.7444(3) 0.1458(3) 0.76811(17)
C19_4 C 0.7421(3) 0.2071(4) 0.81637(19)
H18_4 H 0.7845 0.1925 0.8548
C20_4 C 0.6775(3) 0.2909(4) 0.80893(19)
H19_4 H 0.6802 0.3336 0.8426
C21_4 C 0.6146(3) 0.2567(3) 0.70979(18)
H20_4 H 0.5708 0.2730 0.6720
C22_4 C 0.6796(4) 0.1710(4) 0.7127(2)
H21_4 H 0.6788 0.1322 0.6778
N3_4 N 0.8937(2) 0.0673(2) 0.74216(15)
H22_4 H 0.8645 0.0740 0.7018
H16_4 H 0.7753 0.9904 0.7573
loop_
_geom_bond_atom_site_label_1
_geom_bond_atom_site_label_2
_geom_bond_site_symmetry_1
_geom_bond_site_symmetry_2
Zn1 N1 1_555 1_555
C1 C2 1_555 1_555
C2 C3 1_555 1_555
C3 H1 1_555 1_555
C4 C2 1_555 1_555
H2 C4 1_555 1_555
C5 H3 1_555 1_555
H4 C5 1_555 1_555
C6 H5 1_555 1_555
H6 C6 1_555 1_555
C7 C6 1_555 1_555
C8 C7 1_555 1_555
H7 C8 1_555 1_555
C9 C8 1_555 1_555
H8 C9 1_555 1_555
C10 H9 1_555 1_555
C11 C7 1_555 1_555
H10 C11 1_555 1_555
N1 C5 1_555 1_555
H11 N1 1_555 1_555
N2 C9 1_555 1_555
O1 Zn1 1_555 1_555
O2 C1 1_555 1_555
C16 C5 1_555 1_555
H14 C16 1_555 1_555
H15 C16 1_555 1_555
C17 H16 1_555 1_555
H17 C17 1_555 1_555
C18 C17 1_555 1_555
C19 C18 1_555 1_555
H18 C19 1_555 1_555
C20 C19 1_555 1_555
H19 C20 1_555 1_555
C21 H20 1_555 1_555
C22 C18 1_555 1_555
H21 C22 1_555 1_555
N3 Zn1 1_555 1_555
H22 N3 1_555 1_555
N4 C20 1_555 1_555
Zn3 N2 1_555 1_555
Zn3_2 N4 1_555 1_555
N5 Zn1 1_555 1_555
N6 Zn1 1_555 1_555
O5 Zn1 1_555 1_555
C1 O1 1_555 1_555
C6 N1 1_555 1_555
C10 C11 1_555 1_555
C10 N2 1_555 1_555
C16 N3 1_555 1_555
C17 N3 1_555 1_555
C21 C22 1_555 1_555
C21 N4 1_555 1_555
C12 C13 1_555 1_555
C13 C14 1_555 1_555
H12 C14 1_555 1_555
H13 C15 1_555 1_555
O3 C12 1_555 1_555
O4 C12 1_555 1_555
Zn4 O3 1_555 1_555
C13 C15 1_555 1_555
C1_2 C2_2 1_555 1_555
C2_2 C3_2 1_555 1_555
C3_2 H1_2 1_555 1_555
C4_2 C2_2 1_555 1_555
H2_2 C4_2 1_555 1_555
O2_2 C1_2 1_555 1_555
C12_2 C13_2 1_555 1_555
C13_2 C14_2 1_555 1_555
C14_2 C4_2 1_555 1_555
H12_2 C14_2 1_555 1_555
C15_2 C3_2 1_555 1_555
H13_2 C15_2 1_555 1_555
O3_2 C12_2 1_555 1_555
O4_2 C12_2 1_555 1_555
Zn4 O3_2 1_555 1_555
C1_2 O5 1_555 1_555
C13_2 C15_2 1_555 1_555
C3_3 H1_3 1_555 1_555
O5_2 Zn3 1_555 1_555
H13_3 C15_3 1_555 1_555
H14_2 C16_2 1_555 1_555
H15_2 C16_2 1_555 1_555
H17_2 C17_2 1_555 1_555
C18_2 C17_2 1_555 1_555
C19_2 C18_2 1_555 1_555
H18_2 C19_2 1_555 1_555
C20_2 C19_2 1_555 1_555
H19_2 C20_2 1_555 1_555
C21_2 H20_2 1_555 1_555
C22_2 C18_2 1_555 1_555
H21_2 C22_2 1_555 1_555
H22_2 N3_2 1_555 1_555
N6 C20_2 1_555 1_555
C16_2 N3_2 1_555 1_555
C17_2 N3_2 1_555 1_555
C21_2 C22_2 1_555 1_555
C21_2 N6 1_555 1_555
C12_3 C13_3 1_555 1_555
O3_3 C12_3 1_555 1_555
Zn4_2 O3_3 1_555 1_555
C1_3 C2_3 1_555 1_555
O1_2 Zn3_2 1_555 1_555
C1_3 O1_2 1_555 1_555
H2_3 C4_3 1_555 1_555
C5_2 H3_2 1_555 1_555
H4_2 C5_2 1_555 1_555
H6_2 C6_2 1_555 1_555
C7_2 C6_2 1_555 1_555
C8_2 C7_2 1_555 1_555
H7_2 C8_2 1_555 1_555
C9_2 C8_2 1_555 1_555
H8_2 C9_2 1_555 1_555
C10_2 H9_2 1_555 1_555
C11_2 C7_2 1_555 1_555
H10_2 C11_2 1_555 1_555
N1_2 C5_2 1_555 1_555
H11_2 N1_2 1_555 1_555
N5 C9_2 1_555 1_555
C6_2 N1_2 1_555 1_555
C10_2 C11_2 1_555 1_555
C10_2 N5 1_555 1_555
H12_3 C14_3 1_555 1_555
C1_4 C2_4 1_555 1_555
C1_4 O5_2 1_555 1_555
H2_4 C4_4 1_555 1_555
C14_4 C4_4 1_555 1_555
H12_4 C14_4 1_555 1_555
C3_4 H1_4 1_555 1_555
C15_4 C3_4 1_555 1_555
H13_4 C15_4 1_555 1_555
C12_4 C13_4 1_555 1_555
O3_4 C12_4 1_555 1_555
Zn4_3 O3_4 1_555 1_555
Zn4 N1_3 1_555 1_555
C5_3 H3_3 1_555 1_555
H4_3 C5_3 1_555 1_555
C6_3 H5_3 1_555 1_555
H6_3 C6_3 1_555 1_555
C7_3 C6_3 1_555 1_555
C8_3 C7_3 1_555 1_555
H7_3 C8_3 1_555 1_555
C9_3 C8_3 1_555 1_555
H8_3 C9_3 1_555 1_555
C10_3 H9_3 1_555 1_555
C11_3 C7_3 1_555 1_555
H10_3 C11_3 1_555 1_555
N1_3 C5_3 1_555 1_555
H11_3 N1_3 1_555 1_555
N2_2 C9_3 1_555 1_555
C16_3 C5_3 1_555 1_555
H14_3 C16_3 1_555 1_555
H15_3 C16_3 1_555 1_555
C17_3 H16_3 1_555 1_555
H17_3 C17_3 1_555 1_555
C18_3 C17_3 1_555 1_555
C19_3 C18_3 1_555 1_555
H18_3 C19_3 1_555 1_555
C20_3 C19_3 1_555 1_555
H19_3 C20_3 1_555 1_555
C21_3 H20_3 1_555 1_555
C22_3 C18_3 1_555 1_555
H21_3 C22_3 1_555 1_555
N3_3 Zn4 1_555 1_555
H22_3 N3_3 1_555 1_555
N4_2 C20_3 1_555 1_555
Zn4_3 N2_2 1_555 1_555
Zn4_2 N4_2 1_555 1_555
N5_2 Zn4 1_555 1_555
N6_2 Zn4 1_555 1_555
C6_3 N1_3 1_555 1_555
C10_3 C11_3 1_555 1_555
C10_3 N2_2 1_555 1_555
C16_3 N3_3 1_555 1_555
C17_3 N3_3 1_555 1_555
C21_3 C22_3 1_555 1_555
C21_3 N4_2 1_555 1_555
C5_4 H3_4 1_555 1_555
H4_4 C5_4 1_555 1_555
H6_4 C6_4 1_555 1_555
C7_4 C6_4 1_555 1_555
C8_4 C7_4 1_555 1_555
H7_4 C8_4 1_555 1_555
C9_4 C8_4 1_555 1_555
H8_4 C9_4 1_555 1_555
C10_4 H9_4 1_555 1_555
C11_4 C7_4 1_555 1_555
H10_4 C11_4 1_555 1_555
N1_4 C5_4 1_555 1_555
H11_4 N1_4 1_555 1_555
N5_2 C9_4 1_555 1_555
C6_4 N1_4 1_555 1_555
C10_4 C11_4 1_555 1_555
C10_4 N5_2 1_555 1_555
H14_4 C16_4 1_555 1_555
H15_4 C16_4 1_555 1_555
H17_4 C17_4 1_555 1_555
C18_4 C17_4 1_555 1_555
C19_4 C18_4 1_555 1_555
H18_4 C19_4 1_555 1_555
C20_4 C19_4 1_555 1_555
H19_4 C20_4 1_555 1_555
C21_4 H20_4 1_555 1_555
C22_4 C18_4 1_555 1_555
H21_4 C22_4 1_555 1_555
H22_4 N3_4 1_555 1_555
N6_2 C20_4 1_555 1_555
C16_4 N3_4 1_555 1_555
C17_4 N3_4 1_555 1_555
C21_4 C22_4 1_555 1_555
C21_4 N6_2 1_555 1_555

#END
