
###############################################################################
#
# This file contains modified crystal structure data generated from the
# MOF subset of the Cambridge Structural Database (CSD) v543 
# hosted by the Cambridge Crystallographic Data Centre (CCDC).
#
# This work is licensed under the Creative Commons
# Attribution-NonCommercial-ShareAlike 4.0 International License.
# To view a copy of this license, visit
# http://creativecommons.org/licenses/by-nc-sa/4.0/
# or send a letter to
# Creative Commons, PO Box 1866, Mountain View, CA 94042, USA.
#
# CIF created using the CSD Python API on 29 September 2022
# The structure has been converted into the P1 space group
# The structure has a 3D framework
# The original CSD entry QEBGAH is in the monoclinic crystal system
# The framework has been calculated to contain at least 10.0% void space
# The void calculation uses a probe of radius 1.32A, grid spacing 0.4
#
###############################################################################

data_QEBGAH
_chemical_formula_moiety         '(C122 H68 Co2 N12 O24)n'
_symmetry_cell_setting           triclinic
_symmetry_space_group_name_H-M   'P 1'
_symmetry_Int_Tables_number      1
_space_group_name_Hall           'P 1'
loop_
_symmetry_equiv_pos_site_id
_symmetry_equiv_pos_as_xyz
1 x,y,z
_cell_length_a                   12.565(2)
_cell_length_b                   29.618(5)
_cell_length_c                   9.858(2)
_cell_angle_alpha                90
_cell_angle_beta                 105.695(3)
_cell_angle_gamma                90
_cell_volume                     3531.87
loop_
_atom_site_label
_atom_site_type_symbol
_atom_site_fract_x
_atom_site_fract_y
_atom_site_fract_z
Co1 Co 0.35709(7) 0.05754(3) 0.03802(11)
O7 O 0.3482(5) 0.00720(17) 0.1696(7)
O8 O 0.3931(5) 0.06925(17) 0.2857(7)
N4 N 0.2285(4) 0.10325(18) 0.0154(7)
N5 N 0.5005(5) 0.09171(17) 0.0527(7)
O1 O 0.3360(5) 0.01627(16) 0.8781(6)
O2 O 0.3401(5) 0.07954(16) 0.7624(6)
C1 C 0.3357(6) 0.0374(3) 0.7699(10)
C2 C 0.3315(7) 0.0099(2) 0.6402(9)
C6 C 0.3457(7) 0.0059(2) 0.4063(9)
C7 C 0.3561(6) 0.0302(2) 0.5293(9)
H4 H 0.3802 0.0607 0.5358
C8 C 0.3654(6) 0.0288(2) 0.2807(9)
N1 N 0.1423(4) 0.65709(17) 0.4947(6)
N3 N 0.4995(5) 0.59171(17) 0.4473(7)
C3 C 0.2957(7) 0.9647(2) 0.6318(8)
H2 H 0.2813 0.9509 0.7119
C4 C 0.2813(7) 0.9402(2) 0.5093(9)
C5 C 0.3076(8) 0.9616(2) 0.3961(9)
H3 H 0.2993 0.9456 0.3104
C9 C 0.2398(7) 0.8929(2) 0.4963(8)
C10 C 0.2586(8) 0.8643(2) 0.3929(9)
H5 H 0.2932 0.8758 0.3256
C11 C 0.2273(7) 0.8188(2) 0.3868(9)
H6 H 0.2411 0.8000 0.3154
C12 C 0.1766(6) 0.8008(2) 0.4832(7)
C13 C 0.1528(6) 0.8297(2) 0.5816(8)
H7 H 0.1148 0.8184 0.6458
C14 C 0.1837(7) 0.8750(2) 0.5878(8)
H8 H 0.1661 0.8941 0.6561
C15 C 0.1580(5) 0.7512(2) 0.4844(7)
C16 C 0.2442(5) 0.7234(2) 0.4738(8)
H9 H 0.3107 0.7363 0.4631
C17 C 0.2336(5) 0.6772(2) 0.4786(8)
C18 C 0.0575(5) 0.6832(2) 0.5010(7)
C19 C 0.0616(5) 0.7304(2) 0.4969(7)
H10 H 0.0151 0.6252 0.6896
C26 C 0.3241(5) 0.6465(2) 0.4649(8)
C27 C 0.3375(6) 0.6041(2) 0.5218(8)
H14 H 0.2857 0.5925 0.5675
C28 C 0.4267(6) 0.5781(2) 0.5124(9)
H15 H 0.4357 0.5491 0.5549
C29 C 0.4810(6) 0.6311(3) 0.3795(9)
H16 H 0.5287 0.6398 0.3239
C30 C 0.3970(6) 0.6595(3) 0.3860(9)
H17 H 0.3878 0.6877 0.3379
Co4 Co 0.64291(7) 0.55754(3) 0.46198(11)
O5 O 0.9395(4) 0.76096(16) 0.6176(6)
O6 O 0.9103(5) 0.7784(2) 0.3853(7)
H1 H 0.8729 0.8001 0.4028
N2 N 0.7715(4) 0.60325(18) 0.4846(7)
C20 C 0.9632(5) 0.7581(2) 0.5058(8)
C21 C 0.9563(5) 0.6583(2) 0.5000(8)
C22 C 0.9537(6) 0.6279(3) 0.6090(9)
C23 C 0.8592(7) 0.6022(3) 0.5959(9)
H11 H 0.8571 0.5825 0.6712
C24 C 0.7746(7) 0.6335(3) 0.3814(10)
H12 H 0.7130 0.6353 0.3006
C25 C 0.8638(6) 0.6615(3) 0.3901(10)
H13 H 0.8607 0.6833 0.3185
O6_2 O 0.0897(5) 0.2784(2) 0.1147(7)
H1_2 H 0.1271 0.3001 0.0972
C21_2 C 0.0437(5) 0.1583(2) 0.0000(8)
C24_2 C 0.2254(7) 0.1335(3) 0.1186(10)
H12_2 H 0.2870 0.1353 0.1994
C25_2 C 0.1362(6) 0.1615(3) 0.1099(10)
H13_2 H 0.1393 0.1833 0.1815
O3 O 0.6518(5) 0.50720(17) 0.3304(7)
O4 O 0.6069(5) 0.56925(17) 0.2143(7)
N1_2 N 0.8577(4) 0.15709(17) 0.0053(6)
C5_2 C 0.6924(8) 0.4616(2) 0.1039(9)
H3_2 H 0.7007 0.4456 0.1896
C6_2 C 0.6543(7) 0.5059(2) 0.0937(9)
C8_2 C 0.6346(6) 0.5288(2) 0.2193(9)
C9_2 C 0.7602(7) 0.3929(2) 0.0037(8)
C10_2 C 0.7414(8) 0.3643(2) 0.1071(9)
H5_2 H 0.7068 0.3758 0.1744
C11_2 C 0.7727(7) 0.3188(2) 0.1132(9)
H6_2 H 0.7589 0.3000 0.1846
C12_2 C 0.8234(6) 0.3008(2) 0.0168(7)
C15_2 C 0.8420(5) 0.2512(2) 0.0156(7)
C16_2 C 0.7558(5) 0.2234(2) 0.0262(8)
H9_2 H 0.6893 0.2363 0.0369
C17_2 C 0.7664(5) 0.1772(2) 0.0214(8)
C19_2 C 0.9384(5) 0.2304(2) 0.0031(7)
C26_2 C 0.6759(5) 0.1465(2) 0.0351(8)
C29_2 C 0.5190(6) 0.1311(3) 0.1205(9)
H16_2 H 0.4713 0.1398 0.1761
C30_2 C 0.6030(6) 0.1595(3) 0.1140(9)
H17_2 H 0.6122 0.1877 0.1621
O1_2 O 0.6640(5) 0.51627(16) 0.6219(6)
O2_2 O 0.6599(5) 0.57954(16) 0.7376(6)
C1_2 C 0.6643(6) 0.5374(3) 0.7301(10)
C2_2 C 0.6685(7) 0.5099(2) 0.8598(9)
C3_2 C 0.7043(7) 0.4647(2) 0.8682(8)
H2_2 H 0.7187 0.4509 0.7881
C4_2 C 0.7187(7) 0.4402(2) 0.9907(9)
C7_2 C 0.6439(6) 0.5302(2) 0.9707(9)
H4_2 H 0.6198 0.5607 0.9642
C13_2 C 0.8472(6) 0.3297(2) 0.9184(8)
H7_2 H 0.8852 0.3184 0.8542
C14_2 C 0.8163(7) 0.3750(2) 0.9122(8)
H8_2 H 0.8339 0.3941 0.8439
C18_2 C 0.9425(5) 0.1832(2) 0.9990(7)
H10_2 H 0.9849 0.1252 0.8104
C27_2 C 0.6625(6) 0.1041(2) 0.9782(8)
H14_2 H 0.7143 0.0925 0.9325
C28_2 C 0.5733(6) 0.0781(2) 0.9876(9)
H15_2 H 0.5643 0.0491 0.9451
O5_2 O 0.0605(4) 0.26096(16) 0.8824(6)
C20_2 C 0.0368(5) 0.2581(2) 0.9942(8)
C21_3 C 0.0437(5) 0.1583(2) 1.0000(8)
C22_2 C 0.0463(6) 0.1279(3) 0.8910(9)
C23_2 C 0.1408(7) 0.1022(3) 0.9041(9)
H11_2 H 0.1429 0.0825 0.8288
O5_3 O 0.0605(4) 0.23904(16) 0.3824(6)
O6_3 O 0.0897(5) 0.2216(2) 0.6147(7)
H1_3 H 0.1271 0.1999 0.5972
N2_2 N 0.2285(4) 0.39675(18) 0.5154(7)
C20_3 C 0.0368(5) 0.2419(2) 0.4942(8)
C21_4 C 0.0437(5) 0.3417(2) 0.5000(8)
C22_3 C 0.0463(6) 0.3721(3) 0.3910(9)
C23_3 C 0.1408(7) 0.3978(3) 0.4041(9)
H11_3 H 0.1429 0.4175 0.3288
C24_3 C 0.2254(7) 0.3665(3) 0.6186(10)
H12_3 H 0.2870 0.3647 0.6994
C25_3 C 0.1362(6) 0.3385(3) 0.6099(10)
H13_3 H 0.1393 0.3167 0.6815
Co3 Co 0.35709(7) 0.44246(3) 0.53802(11)
N1_3 N 0.8577(4) 0.34291(17) 0.5053(6)
N3_2 N 0.5005(5) 0.40829(17) 0.5527(7)
C3_3 C 0.7043(7) 0.0353(2) 0.3682(8)
H2_3 H 0.7187 0.0491 0.2881
C4_3 C 0.7187(7) 0.0598(2) 0.4907(9)
C5_3 C 0.6924(8) 0.0384(2) 0.6039(9)
H3_3 H 0.7007 0.0544 0.6896
C9_3 C 0.7602(7) 0.1071(2) 0.5037(8)
C10_3 C 0.7414(8) 0.1357(2) 0.6071(9)
H5_3 H 0.7068 0.1242 0.6744
C11_3 C 0.7727(7) 0.1812(2) 0.6132(9)
H6_3 H 0.7589 0.2000 0.6846
C12_3 C 0.8234(6) 0.1992(2) 0.5168(7)
C13_3 C 0.8472(6) 0.1703(2) 0.4184(8)
H7_3 H 0.8852 0.1816 0.3542
C14_3 C 0.8163(7) 0.1250(2) 0.4122(8)
H8_3 H 0.8339 0.1059 0.3439
C15_3 C 0.8420(5) 0.2488(2) 0.5156(7)
C16_3 C 0.7558(5) 0.2766(2) 0.5262(8)
H9_3 H 0.6893 0.2637 0.5369
C17_3 C 0.7664(5) 0.3228(2) 0.5214(8)
C18_3 C 0.9425(5) 0.3168(2) 0.4990(7)
C19_3 C 0.9384(5) 0.2696(2) 0.5031(7)
H10_3 H 0.9849 0.3748 0.3104
C26_3 C 0.6759(5) 0.3535(2) 0.5351(8)
C27_3 C 0.6625(6) 0.3959(2) 0.4782(8)
H14_3 H 0.7143 0.4075 0.4325
C28_3 C 0.5733(6) 0.4219(2) 0.4876(9)
H15_3 H 0.5643 0.4509 0.4451
C29_3 C 0.5190(6) 0.3689(3) 0.6205(9)
H16_3 H 0.4713 0.3602 0.6761
C30_3 C 0.6030(6) 0.3405(3) 0.6140(9)
H17_3 H 0.6122 0.3123 0.6621
O1_3 O 0.6640(5) 0.98373(16) 0.1219(6)
O2_3 O 0.6599(5) 0.92046(16) 0.2376(6)
O3_2 O 0.6518(5) 0.99280(17) 0.8304(7)
O4_2 O 0.6069(5) 0.93075(17) 0.7143(7)
C1_3 C 0.6643(6) 0.9626(3) 0.2301(10)
C2_3 C 0.6685(7) 0.9901(2) 0.3598(9)
C6_3 C 0.6543(7) 0.9941(2) 0.5937(9)
C7_3 C 0.6439(6) 0.9698(2) 0.4707(9)
H4_3 H 0.6198 0.9393 0.4642
C8_3 C 0.6346(6) 0.9712(2) 0.7193(9)
Co2 Co 0.64291(7) 0.94246(3) 0.96198(11)
N4_2 N 0.7715(4) 0.89675(18) 0.9846(7)
N5_2 N 0.4995(5) 0.90829(17) 0.9473(7)
O1_4 O 0.3360(5) 0.48373(16) 0.3781(6)
O2_4 O 0.3401(5) 0.42046(16) 0.2624(6)
C1_4 C 0.3357(6) 0.4626(3) 0.2699(10)
C2_4 C 0.3315(7) 0.4901(2) 0.1402(9)
C3_4 C 0.2957(7) 0.5353(2) 0.1318(8)
H2_4 H 0.2813 0.5491 0.2119
C4_4 C 0.2813(7) 0.5598(2) 0.0093(9)
C7_4 C 0.3561(6) 0.4698(2) 0.0293(9)
H4_4 H 0.3802 0.4393 0.0358
C13_4 C 0.1528(6) 0.6703(2) 0.0816(8)
H7_4 H 0.1148 0.6816 0.1458
C14_4 C 0.1837(7) 0.6250(2) 0.0878(8)
H8_4 H 0.1661 0.6059 0.1561
C18_4 C 0.0575(5) 0.8168(2) 0.0010(7)
H10_4 H 0.0151 0.8748 0.1896
C27_4 C 0.3375(6) 0.8959(2) 0.0218(8)
H14_4 H 0.2857 0.9075 0.0675
C28_4 C 0.4267(6) 0.9219(2) 0.0124(9)
H15_4 H 0.4357 0.9509 0.0549
O7_2 O 0.3482(5) 0.49280(17) 0.6696(7)
O8_2 O 0.3931(5) 0.43075(17) 0.7857(7)
N1_4 N 0.1423(4) 0.84291(17) 0.9947(6)
C5_4 C 0.3076(8) 0.5384(2) 0.8961(9)
H3_4 H 0.2993 0.5544 0.8104
C6_4 C 0.3457(7) 0.4941(2) 0.9063(9)
C8_4 C 0.3654(6) 0.4712(2) 0.7807(9)
C9_4 C 0.2398(7) 0.6071(2) 0.9963(8)
C10_4 C 0.2586(8) 0.6357(2) 0.8929(9)
H5_4 H 0.2932 0.6242 0.8256
C11_4 C 0.2273(7) 0.6812(2) 0.8868(9)
H6_4 H 0.2411 0.7000 0.8154
C12_4 C 0.1766(6) 0.6992(2) 0.9832(7)
C15_4 C 0.1580(5) 0.7488(2) 0.9844(7)
C16_4 C 0.2442(5) 0.7766(2) 0.9738(8)
H9_4 H 0.3107 0.7637 0.9631
C17_4 C 0.2336(5) 0.8228(2) 0.9786(8)
C19_4 C 0.0616(5) 0.7696(2) 0.9969(7)
C26_4 C 0.3241(5) 0.8535(2) 0.9649(8)
C29_4 C 0.4810(6) 0.8689(3) 0.8795(9)
H16_4 H 0.5287 0.8602 0.8239
C30_4 C 0.3970(6) 0.8405(3) 0.8860(9)
H17_4 H 0.3878 0.8123 0.8379
O6_4 O 0.9103(5) 0.7216(2) 0.8853(7)
H1_4 H 0.8729 0.6999 0.9028
C21_5 C 0.9563(5) 0.8417(2) 1.0000(8)
C24_4 C 0.7746(7) 0.8665(3) 0.8814(10)
H12_4 H 0.7130 0.8647 0.8006
C25_4 C 0.8638(6) 0.8385(3) 0.8901(10)
H13_4 H 0.8607 0.8167 0.8185
O5_4 O 0.9395(4) 0.73904(16) 0.1176(6)
C20_4 C 0.9632(5) 0.7419(2) 0.0058(8)
C21_6 C 0.9563(5) 0.8417(2) 0.0000(8)
C22_4 C 0.9537(6) 0.8721(3) 0.1090(9)
C23_4 C 0.8592(7) 0.8978(3) 0.0959(9)
H11_4 H 0.8571 0.9175 0.1712
loop_
_geom_bond_atom_site_label_1
_geom_bond_atom_site_label_2
_geom_bond_site_symmetry_1
_geom_bond_site_symmetry_2
O7 Co1 1_555 1_555
O8 Co1 1_555 1_555
N4 Co1 1_555 1_555
N5 Co1 1_555 1_555
O1 C1 1_555 1_555
O2 C1 1_555 1_555
O7 C8 1_555 1_555
O8 C8 1_555 1_555
C1 C2 1_555 1_555
C7 C2 1_555 1_555
H4 C7 1_555 1_555
C8 C6 1_555 1_555
C6 C7 1_555 1_555
N1 C17 1_555 1_555
N3 C28 1_555 1_555
C3 H2 1_555 1_555
C4 C3 1_555 1_555
C5 C4 1_555 1_555
H3 C5 1_555 1_555
C9 C4 1_555 1_555
C10 C9 1_555 1_555
H5 C10 1_555 1_555
C11 C10 1_555 1_555
H6 C11 1_555 1_555
C12 C11 1_555 1_555
C13 C12 1_555 1_555
H7 C13 1_555 1_555
C14 C9 1_555 1_555
H8 C14 1_555 1_555
C15 C12 1_555 1_555
C16 C15 1_555 1_555
H9 C16 1_555 1_555
C17 C16 1_555 1_555
C18 N1 1_555 1_555
C19 C15 1_555 1_555
C26 C17 1_555 1_555
C27 C26 1_555 1_555
H14 C27 1_555 1_555
C28 C27 1_555 1_555
H15 C28 1_555 1_555
C29 N3 1_555 1_555
H16 C29 1_555 1_555
C30 C26 1_555 1_555
H17 C30 1_555 1_555
Co4 N3 1_555 1_555
C13 C14 1_555 1_555
C18 C19 1_555 1_555
C29 C30 1_555 1_555
O5 C20 1_555 1_555
O6 H1 1_555 1_555
N2 C23 1_555 1_555
C20 O6 1_555 1_555
C22 C21 1_555 1_555
C23 C22 1_555 1_555
H11 C23 1_555 1_555
C24 N2 1_555 1_555
H12 C24 1_555 1_555
C25 C21 1_555 1_555
H13 C25 1_555 1_555
Co4 N2 1_555 1_555
C24 C25 1_555 1_555
O6_2 H1_2 1_555 1_555
C24_2 N4 1_555 1_555
H12_2 C24_2 1_555 1_555
C25_2 C21_2 1_555 1_555
H13_2 C25_2 1_555 1_555
C24_2 C25_2 1_555 1_555
O3 C8_2 1_555 1_555
O4 C8_2 1_555 1_555
N1_2 C17_2 1_555 1_555
H3_2 C5_2 1_555 1_555
C6_2 C5_2 1_555 1_555
C8_2 C6_2 1_555 1_555
C10_2 C9_2 1_555 1_555
H5_2 C10_2 1_555 1_555
C11_2 C10_2 1_555 1_555
H6_2 C11_2 1_555 1_555
C12_2 C11_2 1_555 1_555
C15_2 C12_2 1_555 1_555
C16_2 C15_2 1_555 1_555
H9_2 C16_2 1_555 1_555
C17_2 C16_2 1_555 1_555
C19_2 C15_2 1_555 1_555
C26_2 C17_2 1_555 1_555
C29_2 N5 1_555 1_555
H16_2 C29_2 1_555 1_555
C30_2 C26_2 1_555 1_555
H17_2 C30_2 1_555 1_555
Co4 O3 1_555 1_555
O4 Co4 1_555 1_555
C29_2 C30_2 1_555 1_555
Co4 O1_2 1_555 1_555
O1_2 C1_2 1_555 1_555
O2_2 C1_2 1_555 1_555
C1_2 C2_2 1_555 1_555
C2_2 C3_2 1_555 1_555
C3_2 H2_2 1_555 1_555
C4_2 C3_2 1_555 1_555
C7_2 C2_2 1_555 1_555
H4_2 C7_2 1_555 1_555
H7_2 C13_2 1_555 1_555
H8_2 C14_2 1_555 1_555
H14_2 C27_2 1_555 1_555
C28_2 C27_2 1_555 1_555
H15_2 C28_2 1_555 1_555
C13_2 C14_2 1_555 1_555
O5_2 C20_2 1_555 1_555
C22_2 C21_3 1_555 1_555
C23_2 C22_2 1_555 1_555
H11_2 C23_2 1_555 1_555
O5_3 C20_3 1_555 1_555
O6_3 H1_3 1_555 1_555
N2_2 C23_3 1_555 1_555
C20_3 O6_3 1_555 1_555
C22_3 C21_4 1_555 1_555
C23_3 C22_3 1_555 1_555
H11_3 C23_3 1_555 1_555
C24_3 N2_2 1_555 1_555
H12_3 C24_3 1_555 1_555
C25_3 C21_4 1_555 1_555
H13_3 C25_3 1_555 1_555
Co3 N2_2 1_555 1_555
C24_3 C25_3 1_555 1_555
N1_3 C17_3 1_555 1_555
N3_2 C28_3 1_555 1_555
C3_3 H2_3 1_555 1_555
C4_3 C3_3 1_555 1_555
C5_3 C4_3 1_555 1_555
H3_3 C5_3 1_555 1_555
C9_3 C4_3 1_555 1_555
C10_3 C9_3 1_555 1_555
H5_3 C10_3 1_555 1_555
C11_3 C10_3 1_555 1_555
H6_3 C11_3 1_555 1_555
C12_3 C11_3 1_555 1_555
C13_3 C12_3 1_555 1_555
H7_3 C13_3 1_555 1_555
C14_3 C9_3 1_555 1_555
H8_3 C14_3 1_555 1_555
C15_3 C12_3 1_555 1_555
C16_3 C15_3 1_555 1_555
H9_3 C16_3 1_555 1_555
C17_3 C16_3 1_555 1_555
C18_3 N1_3 1_555 1_555
C19_3 C15_3 1_555 1_555
C26_3 C17_3 1_555 1_555
C27_3 C26_3 1_555 1_555
H14_3 C27_3 1_555 1_555
C28_3 C27_3 1_555 1_555
H15_3 C28_3 1_555 1_555
C29_3 N3_2 1_555 1_555
H16_3 C29_3 1_555 1_555
C30_3 C26_3 1_555 1_555
H17_3 C30_3 1_555 1_555
Co3 N3_2 1_555 1_555
C13_3 C14_3 1_555 1_555
C18_3 C19_3 1_555 1_555
C29_3 C30_3 1_555 1_555
O1_3 C1_3 1_555 1_555
O2_3 C1_3 1_555 1_555
O3_2 C8_3 1_555 1_555
O4_2 C8_3 1_555 1_555
C1_3 C2_3 1_555 1_555
C7_3 C2_3 1_555 1_555
H4_3 C7_3 1_555 1_555
C8_3 C6_3 1_555 1_555
Co2 O3_2 1_555 1_555
O4_2 Co2 1_555 1_555
C6_3 C7_3 1_555 1_555
N4_2 Co2 1_555 1_555
N5_2 Co2 1_555 1_555
Co3 O1_4 1_555 1_555
O1_4 C1_4 1_555 1_555
O2_4 C1_4 1_555 1_555
C1_4 C2_4 1_555 1_555
C2_4 C3_4 1_555 1_555
C3_4 H2_4 1_555 1_555
C4_4 C3_4 1_555 1_555
C7_4 C2_4 1_555 1_555
H4_4 C7_4 1_555 1_555
H7_4 C13_4 1_555 1_555
H8_4 C14_4 1_555 1_555
H14_4 C27_4 1_555 1_555
C28_4 C27_4 1_555 1_555
H15_4 C28_4 1_555 1_555
O7_2 Co3 1_555 1_555
O8_2 Co3 1_555 1_555
C13_4 C14_4 1_555 1_555
O7_2 C8_4 1_555 1_555
O8_2 C8_4 1_555 1_555
N1_4 C17_4 1_555 1_555
H3_4 C5_4 1_555 1_555
C6_4 C5_4 1_555 1_555
C8_4 C6_4 1_555 1_555
C10_4 C9_4 1_555 1_555
H5_4 C10_4 1_555 1_555
C11_4 C10_4 1_555 1_555
H6_4 C11_4 1_555 1_555
C12_4 C11_4 1_555 1_555
C15_4 C12_4 1_555 1_555
C16_4 C15_4 1_555 1_555
H9_4 C16_4 1_555 1_555
C17_4 C16_4 1_555 1_555
C19_4 C15_4 1_555 1_555
C26_4 C17_4 1_555 1_555
C29_4 N5_2 1_555 1_555
H16_4 C29_4 1_555 1_555
C30_4 C26_4 1_555 1_555
H17_4 C30_4 1_555 1_555
C29_4 C30_4 1_555 1_555
O6_4 H1_4 1_555 1_555
C24_4 N4_2 1_555 1_555
H12_4 C24_4 1_555 1_555
C25_4 C21_5 1_555 1_555
H13_4 C25_4 1_555 1_555
C24_4 C25_4 1_555 1_555
O5_4 C20_4 1_555 1_555
C22_4 C21_6 1_555 1_555
C23_4 C22_4 1_555 1_555
H11_4 C23_4 1_555 1_555

#END
