
###############################################################################
#
# This file contains modified crystal structure data generated from the
# MOF subset of the Cambridge Structural Database (CSD) v543 
# hosted by the Cambridge Crystallographic Data Centre (CCDC).
#
# This work is licensed under the Creative Commons
# Attribution-NonCommercial-ShareAlike 4.0 International License.
# To view a copy of this license, visit
# http://creativecommons.org/licenses/by-nc-sa/4.0/
# or send a letter to
# Creative Commons, PO Box 1866, Mountain View, CA 94042, USA.
#
# CIF created using the CSD Python API on 29 September 2022
# The structure has been converted into the P1 space group
# The structure has a 3D framework
# The original CSD entry QECNIZ is in the triclinic crystal system
# The framework has been calculated to contain at least 10.0% void space
# The void calculation uses a probe of radius 1.32A, grid spacing 0.4
# The framework is charged, counterions have been retained in the structure
#
###############################################################################

data_QECNIZ
_chemical_formula_moiety         '(C68 H40 N4 O16 Zn4 2-)n'
_symmetry_cell_setting           triclinic
_symmetry_space_group_name_H-M   'P 1'
_symmetry_Int_Tables_number      1
_space_group_name_Hall           'P 1'
loop_
_symmetry_equiv_pos_site_id
_symmetry_equiv_pos_as_xyz
1 x,y,z
_cell_length_a                   13.7791(7)
_cell_length_b                   14.3841(7)
_cell_length_c                   14.9267(8)
_cell_angle_alpha                104.690(3)
_cell_angle_beta                 98.295(3)
_cell_angle_gamma                112.986(3)
_cell_volume                     2534.31
loop_
_atom_site_label
_atom_site_type_symbol
_atom_site_fract_x
_atom_site_fract_y
_atom_site_fract_z
Zn6 Zn 0.000000 -0.000000 -0.000000
Zn6_2 Zn 0.000000 -0.000000 1.000000
Zn9 Zn 0.04647(3) 0.08599(3) 0.81944(3)
Zn6_3 Zn -0.000000 1.000000 -0.000000
O2 O 0.1406(5) 0.2698(5) 0.7587(5)
H13 H 0.027788 0.496030 0.645443
C23 C 0.0360(5) 0.3734(5) 0.6810(4)
H14 H 0.110732 0.409581 0.711483
C27 C 0.0408(6) 0.2208(5) 0.7259(5)
O18 O 0.0483(3) 0.1250(2) 0.1261(2)
O25 O 0.2036(2) 0.1362(2) 0.8789(2)
Zn6_4 Zn -0.000000 1.000000 1.000000
O5 O 0.0700(3) 0.2753(3) 0.9605(3)
O24 O 0.1601(2) 0.0679(3) 0.9941(2)
O23 O 0.0335(2) 0.9001(2) 0.07976(19)
Zn6_5 Zn 1.000000 -0.000000 -0.000000
Zn6_6 Zn 1.000000 -0.000000 1.000000
Zn6_7 Zn 1.000000 1.000000 -0.000000
O1 O 0.9810(5) 0.1316(4) 0.7256(3)
O3 O 0.9517(3) 0.8750(2) 0.8739(2)
O4 O 0.9907(3) 0.9321(2) 0.7509(2)
N1 N 0.6790(3) 0.2766(3) 0.1446(2)
N2 N 0.8264(3) 0.4290(3) 0.5508(3)
C2 C 0.9050(3) 0.2191(3) 0.0062(3)
C4 C 0.7273(3) 0.1532(3) 0.0355(3)
H2 H 0.659308 0.096549 0.025433
C5 C 0.7528(3) 0.2564(3) 0.0937(3)
C6 C 0.8527(3) 0.3399(3) 0.1067(3)
H3 H 0.869545 0.408964 0.145476
C7 C 0.9284(3) 0.3220(3) 0.0624(3)
H4 H 0.995220 0.379151 0.070322
C8 C 0.5668(3) 0.2321(3) 0.0961(3)
C9 C 0.5352(3) 0.2272(4) 0.0021(3)
C11 C 0.3453(3) 0.1539(3) 0.0011(3)
C12 C 0.3756(3) 0.1553(3) 0.0946(3)
H7 H 0.322139 0.130071 0.125713
C13 C 0.4857(3) 0.1945(4) 0.1417(3)
H8 H 0.505283 0.195493 0.204340
C15 C 0.7148(3) 0.3145(3) 0.2467(3)
C16 C 0.7846(3) 0.2826(3) 0.2942(3)
H9 H 0.806539 0.235059 0.258661
C17 C 0.8212(3) 0.3207(3) 0.3929(3)
H10 H 0.868431 0.299272 0.423080
C18 C 0.7892(3) 0.3905(3) 0.4483(3)
C19 C 0.7179(3) 0.4208(3) 0.4011(3)
H11 H 0.693205 0.465657 0.436821
C20 C 0.6838(3) 0.3850(3) 0.3025(3)
H12 H 0.638881 0.408700 0.272294
C21 C 0.8734(4) 0.3735(3) 0.5950(3)
C22 C 0.9863(4) 0.4256(4) 0.6414(3)
C24 C 0.9802(5) 0.2728(5) 0.6769(4)
C25 C 0.8686(6) 0.2203(4) 0.6319(5)
H15 H 0.828087 0.150458 0.630079
C26 C 0.8156(5) 0.2700(4) 0.5893(4)
H16 H 0.741230 0.232488 0.557216
C28 C 0.8537(3) 0.5360(3) 0.6055(3)
C29 C 0.8467(4) 0.5583(3) 0.7006(3)
H17 H 0.820905 0.502540 0.725032
C30 C 0.8778(4) 0.6622(3) 0.7583(3)
H18 H 0.871352 0.675705 0.820948
C31 C 0.9186(3) 0.7473(3) 0.7240(3)
C32 C 0.9231(4) 0.7244(3) 0.6298(3)
H19 H 0.947823 0.780204 0.605365
C33 C 0.8916(4) 0.6200(3) 0.5702(3)
H20 H 0.896045 0.606687 0.507013
C34 C 0.9557(3) 0.8603(3) 0.7888(3)
O21 O 0.9665(2) 0.0999(2) 0.92024(19)
Zn6_8 Zn 1.000000 1.000000 1.000000
C1 C 0.9874(3) 0.1983(3) 0.9606(3)
C3 C 0.8038(3) 0.1359(3) 0.9929(3)
H1 H 0.787097 0.066740 0.954397
H5 H 0.588230 0.249639 0.969933
C10 C 0.4269(3) 0.1896(4) 0.9555(3)
H6 H 0.407693 0.188006 0.892530
C14 C 0.2275(3) 0.1155(3) 0.9542(3)
O20 O 0.0093(3) 0.0679(2) 0.2491(2)
O15 O 0.8399(2) 0.9321(3) 0.0059(2)
O16 O 0.7964(2) 0.8638(2) 0.1211(2)
C35 C 0.0126(3) 0.8017(3) 0.0394(3)
C37 C 0.1962(3) 0.8641(3) 0.0071(3)
H21 H 0.212903 0.933260 0.045603
H25 H 0.411770 0.750361 0.030067
C44 C 0.5731(3) 0.8104(4) 0.0445(3)
H26 H 0.592307 0.811994 0.107470
C48 C 0.7725(3) 0.8845(3) 0.0458(3)
Zn12 Zn 0.95353(3) 0.91401(3) 0.18056(3)
O9 O 0.0190(5) 0.8684(4) 0.2744(3)
N3 N 0.3210(3) 0.7234(3) 0.8554(2)
N4 N 0.1736(3) 0.5710(3) 0.4492(3)
C36 C 0.0950(3) 0.7809(3) 0.9938(3)
C38 C 0.2727(3) 0.8468(3) 0.9645(3)
H22 H 0.340692 0.903451 0.974567
C39 C 0.2472(3) 0.7436(3) 0.9063(3)
C40 C 0.1473(3) 0.6601(3) 0.8933(3)
H23 H 0.130455 0.591036 0.854524
C41 C 0.0716(3) 0.6780(3) 0.9376(3)
H24 H 0.004780 0.620849 0.929678
C42 C 0.4332(3) 0.7679(3) 0.9039(3)
C43 C 0.4648(3) 0.7728(4) 0.9979(3)
C45 C 0.6547(3) 0.8461(3) 0.9989(3)
C46 C 0.6244(3) 0.8447(3) 0.9054(3)
H27 H 0.677861 0.869929 0.874287
C47 C 0.5143(3) 0.8055(4) 0.8583(3)
H28 H 0.494717 0.804507 0.795660
C49 C 0.2852(3) 0.6855(3) 0.7533(3)
C50 C 0.2154(3) 0.7174(3) 0.7058(3)
H29 H 0.193461 0.764941 0.741339
C51 C 0.1788(3) 0.6793(3) 0.6071(3)
H30 H 0.131569 0.700728 0.576920
C52 C 0.2108(3) 0.6095(3) 0.5517(3)
C53 C 0.2821(3) 0.5792(3) 0.5989(3)
H31 H 0.306795 0.534343 0.563179
C54 C 0.3162(3) 0.6150(3) 0.6975(3)
H32 H 0.361119 0.591300 0.727706
C55 C 0.1266(4) 0.6265(3) 0.4050(3)
C56 C 0.0137(4) 0.5744(4) 0.3586(3)
C58 C 0.0198(5) 0.7272(5) 0.3231(4)
C59 C 0.1314(6) 0.7797(4) 0.3681(5)
H35 H 0.171913 0.849542 0.369921
C60 C 0.1844(5) 0.7300(4) 0.4107(4)
H36 H 0.258770 0.767512 0.442784
C62 C 0.1463(3) 0.4640(3) 0.3945(3)
C63 C 0.1533(4) 0.4417(3) 0.2994(3)
H37 H 0.179095 0.497460 0.274968
C64 C 0.1222(4) 0.3378(3) 0.2417(3)
H38 H 0.128648 0.324295 0.179052
C65 C 0.0814(3) 0.2527(3) 0.2760(3)
C66 C 0.0769(4) 0.2756(3) 0.3702(3)
H39 H 0.052177 0.219796 0.394635
C67 C 0.1084(4) 0.3800(3) 0.4298(3)
H40 H 0.103955 0.393313 0.492987
C68 C 0.0443(3) 0.1397(3) 0.2112(3)
O13 O 0.9300(3) 0.7247(3) 0.0395(3)
O10 O 0.8594(5) 0.7302(5) 0.2413(5)
H33 H 0.972212 0.503970 0.354557
C57 C 0.9640(5) 0.6266(5) 0.3190(4)
H34 H 0.889268 0.590419 0.288517
C61 C 0.9592(6) 0.7792(5) 0.2741(5)
loop_
_geom_bond_atom_site_label_1
_geom_bond_atom_site_label_2
_geom_bond_site_symmetry_1
_geom_bond_site_symmetry_2
O2 C27 1_555 1_555
H14 C23 1_555 1_555
O18 Zn6 1_555 1_555
O25 Zn9 1_555 1_555
O24 Zn6_2 1_555 1_555
O23 Zn6_3 1_555 1_555
O3 C34 1_555 1_555
O4 C34 1_555 1_555
N1 C5 1_555 1_555
N2 C18 1_555 1_555
H2 C4 1_555 1_555
C5 C4 1_555 1_555
C6 C5 1_555 1_555
H3 C6 1_555 1_555
C7 C2 1_555 1_555
H4 C7 1_555 1_555
C8 N1 1_555 1_555
C9 C8 1_555 1_555
C12 C11 1_555 1_555
H7 C12 1_555 1_555
C13 C8 1_555 1_555
H8 C13 1_555 1_555
C15 N1 1_555 1_555
C16 C15 1_555 1_555
H9 C16 1_555 1_555
C17 C16 1_555 1_555
H10 C17 1_555 1_555
C18 C17 1_555 1_555
C19 C18 1_555 1_555
H11 C19 1_555 1_555
C20 C15 1_555 1_555
H12 C20 1_555 1_555
C21 N2 1_555 1_555
C22 C21 1_555 1_555
C25 C24 1_555 1_555
H15 C25 1_555 1_555
C26 C21 1_555 1_555
H16 C26 1_555 1_555
C28 N2 1_555 1_555
C29 C28 1_555 1_555
H17 C29 1_555 1_555
C30 C29 1_555 1_555
H18 C30 1_555 1_555
C31 C30 1_555 1_555
C32 C31 1_555 1_555
H19 C32 1_555 1_555
C33 C28 1_555 1_555
H20 C33 1_555 1_555
C34 C31 1_555 1_555
Zn6_8 O3 1_555 1_555
C6 C7 1_555 1_555
C12 C13 1_555 1_555
C19 C20 1_555 1_555
C25 C26 1_555 1_555
C32 C33 1_555 1_555
O21 C1 1_555 1_555
O24 C14 1_555 1_555
O25 C14 1_555 1_555
C3 H1 1_555 1_555
H6 C10 1_555 1_555
Zn6_6 O21 1_555 1_555
O23 C35 1_555 1_555
O15 Zn6_7 1_555 1_555
O16 C48 1_555 1_555
C37 H21 1_555 1_555
H26 C44 1_555 1_555
C48 O15 1_555 1_555
Zn12 O16 1_555 1_555
O18 C68 1_555 1_555
O20 C68 1_555 1_555
N3 C39 1_555 1_555
N4 C52 1_555 1_555
H22 C38 1_555 1_555
C39 C38 1_555 1_555
C40 C39 1_555 1_555
H23 C40 1_555 1_555
C41 C36 1_555 1_555
H24 C41 1_555 1_555
C42 N3 1_555 1_555
C43 C42 1_555 1_555
C46 C45 1_555 1_555
H27 C46 1_555 1_555
C47 C42 1_555 1_555
H28 C47 1_555 1_555
C49 N3 1_555 1_555
C50 C49 1_555 1_555
H29 C50 1_555 1_555
C51 C50 1_555 1_555
H30 C51 1_555 1_555
C52 C51 1_555 1_555
C53 C52 1_555 1_555
H31 C53 1_555 1_555
C54 C49 1_555 1_555
H32 C54 1_555 1_555
C55 N4 1_555 1_555
C56 C55 1_555 1_555
C59 C58 1_555 1_555
H35 C59 1_555 1_555
C60 C55 1_555 1_555
H36 C60 1_555 1_555
C62 N4 1_555 1_555
C63 C62 1_555 1_555
H37 C63 1_555 1_555
C64 C63 1_555 1_555
H38 C64 1_555 1_555
C65 C64 1_555 1_555
C66 C65 1_555 1_555
H39 C66 1_555 1_555
C67 C62 1_555 1_555
H40 C67 1_555 1_555
C68 C65 1_555 1_555
C40 C41 1_555 1_555
C46 C47 1_555 1_555
C53 C54 1_555 1_555
C59 C60 1_555 1_555
C66 C67 1_555 1_555
O10 C61 1_555 1_555
H34 C57 1_555 1_555

#END
