
###############################################################################
#
# This file contains modified crystal structure data generated from the
# MOF subset of the Cambridge Structural Database (CSD) v543 
# hosted by the Cambridge Crystallographic Data Centre (CCDC).
#
# This work is licensed under the Creative Commons
# Attribution-NonCommercial-ShareAlike 4.0 International License.
# To view a copy of this license, visit
# http://creativecommons.org/licenses/by-nc-sa/4.0/
# or send a letter to
# Creative Commons, PO Box 1866, Mountain View, CA 94042, USA.
#
# CIF created using the CSD Python API on 29 September 2022
# The structure has been converted into the P1 space group
# The structure has a 3D framework
# The original CSD entry QECNOF is in the monoclinic crystal system
# The framework has been calculated to contain at least 10.0% void space
# The void calculation uses a probe of radius 1.32A, grid spacing 0.4
#
###############################################################################

data_QECNOF
_chemical_formula_moiety         '(C116 H116 Cd8 N20 O48)n'
_symmetry_cell_setting           triclinic
_symmetry_space_group_name_H-M   'P 1'
_symmetry_Int_Tables_number      1
_space_group_name_Hall           'P 1'
loop_
_symmetry_equiv_pos_site_id
_symmetry_equiv_pos_as_xyz
1 x,y,z
_cell_length_a                   16.4163(2)
_cell_length_b                   12.44590(10)
_cell_length_c                   20.3443(2)
_cell_angle_alpha                90
_cell_angle_beta                 105.4340(10)
_cell_angle_gamma                90
_cell_volume                     4006.76
loop_
_atom_site_label
_atom_site_type_symbol
_atom_site_fract_x
_atom_site_fract_y
_atom_site_fract_z
O11 O 0.07007(15) 0.6422(3) 0.69912(13)
Cd3 Cd 0.20576(2) 0.68932(2) 0.72053(2)
Cd6 Cd 0.06509(2) 0.79999(2) 0.56393(2)
O1 O 0.83988(14) 0.35751(19) 0.83091(12)
O2 O 0.32923(15) 0.7488(2) 0.30959(11)
O3 O 0.15702(15) 0.6729(2) 0.55390(13)
O4 O 0.96163(15) 0.4415(2) 0.86992(12)
O5 O 0.20335(15) 0.7631(2) 0.32708(11)
O6 O 0.98097(16) 0.6930(2) 0.60071(13)
O7 O 0.76086(15) 0.5964(2) 0.47475(13)
O8 O 0.23136(18) 0.5078(2) 0.74317(13)
O9 O 0.27347(16) 0.6717(2) 0.64150(12)
O12 O 0.56788(17) 0.6505(3) 0.39454(13)
N1 N 0.69585(17) 0.5609(2) 0.61812(14)
H1 H 0.658835 0.547085 0.639948
N2 N 0.51422(17) 0.6171(2) 0.54425(13)
H2 H 0.524080 0.596717 0.586015
O13 O 0.1309(2) 0.8939(2) 0.49906(16)
C1 C 0.9282(2) 0.5926(3) 0.67876(17)
C2 C 0.3146(2) 0.7047(3) 0.42035(17)
C3 C 0.7805(2) 0.5494(3) 0.65541(17)
C4 C 0.2600(2) 0.7009(3) 0.46259(17)
H3 H 0.203088 0.717631 0.445341
N4 N 0.2456(2) 0.3346(3) 0.71450(17)
C5 C 0.2917(2) 0.6715(3) 0.53099(16)
C6 C 0.7963(2) 0.4952(3) 0.71768(17)
H4 H 0.752066 0.462561 0.730780
C7 C 0.3996(2) 0.6772(3) 0.44557(16)
H5 H 0.435689 0.679237 0.417242
C8 C 0.3761(2) 0.6458(3) 0.55609(15)
H6 H 0.397168 0.627656 0.601830
C9 C 0.5820(2) 0.6157(3) 0.51870(16)
C10 C 0.2806(2) 0.7412(3) 0.34767(16)
C11 C 0.8468(2) 0.5952(3) 0.63503(16)
H7 H 0.837042 0.627444 0.592410
C12 C 0.6653(2) 0.5903(3) 0.55333(17)
C13 C 0.4300(2) 0.6467(3) 0.51363(16)
C14 C 0.9994(2) 0.6473(3) 0.65809(17)
C15 C 0.9438(2) 0.5415(3) 0.74103(17)
H8 H 0.997994 0.541259 0.770335
C16 C 0.8948(2) 0.4260(3) 0.82460(17)
C17 C 0.8777(2) 0.4900(3) 0.75991(17)
C18 C 0.2355(2) 0.6723(3) 0.57866(16)
C19 C 0.6947(2) 0.6044(3) 0.49090(17)
C20 C 0.6035(2) 0.6301(3) 0.45310(17)
C22 C 0.2296(2) 0.4378(3) 0.7000(2)
H10 H 0.216274 0.458458 0.654414
C23 C 0.1509(3) 0.9866(3) 0.5023(2)
H12 H 0.039428 0.572220 0.442490
C25 C 0.2681(4) 0.2972(4) 0.7845(2)
H15 H 0.291179 0.355716 0.814411
H16 H 0.309470 0.241021 0.789842
H17 H 0.218680 0.270042 0.795556
C26 C 0.2430(3) 0.2545(4) 0.6614(2)
H18 H 0.224402 0.287899 0.617421
H19 H 0.204418 0.198215 0.664956
H20 H 0.298405 0.224868 0.667042
C27 C 0.0063(3) 0.6870(4) 0.3237(2)
H21 H 0.006522 0.756436 0.303158
H23 H 0.061334 0.655191 0.331776
C28 C 0.1803(4) 0.9927(5) 0.3929(3)
H24 H 0.151387 0.924888 0.387974
H25 H 0.237799 0.981656 0.391895
Cd4 Cd 0.79424(2) 0.18932(2) 0.77947(2)
Cd5 Cd 0.20576(2) 0.81068(2) 0.22053(2)
Cd7 Cd 0.93491(2) 0.29999(2) 0.93607(2)
O14 O 0.16012(14) 0.85751(19) 0.66909(12)
O15 O 0.32923(15) 0.7512(2) 0.80959(11)
O16 O 0.03837(15) 0.9415(2) 0.63008(12)
O17 O 0.20335(15) 0.7369(2) 0.82708(11)
O10 O 0.95797(18) 0.8117(2) 0.46741(13)
N3 N 0.9845(2) 0.6986(3) 0.38800(17)
C21 C 0.9727(3) 0.7944(3) 0.41142(19)
H9 H 0.975590 0.853428 0.384120
C24 C 0.9834(3) 0.6017(3) 0.4282(2)
H13 H 0.945952 0.549833 0.400882
H14 H 0.964292 0.619291 0.467500
H22 H 0.965435 0.641826 0.293665
O18 O 0.01903(16) 0.1930(2) 0.89929(13)
O2_2 O 0.67077(15) 0.2488(2) 0.19041(11)
O5_2 O 0.79665(15) 0.2631(2) 0.17292(11)
O7_2 O 0.23914(15) 0.0964(2) 0.02525(13)
O12_2 O 0.43212(17) 0.1505(3) 0.10546(13)
O13_2 O 0.8691(2) 0.3939(2) 0.00094(16)
C2_2 C 0.6854(2) 0.2047(3) 0.07965(17)
C4_2 C 0.7400(2) 0.2009(3) 0.03741(17)
H3_2 H 0.796912 0.217631 0.054659
N5 N 0.8212(2) 0.5400(3) 0.04420(18)
C7_2 C 0.6004(2) 0.1772(3) 0.05443(16)
H5_2 H 0.564311 0.179237 0.082758
C10_2 C 0.7194(2) 0.2412(3) 0.15233(16)
C19_2 C 0.3053(2) 0.1044(3) 0.00910(17)
C20_2 C 0.3965(2) 0.1301(3) 0.04690(17)
H12_2 H 0.960572 0.072220 0.057510
C27_2 C 0.9937(3) 0.1870(4) 0.1763(2)
H21_2 H 0.993478 0.256436 0.196842
H23_2 H 0.938666 0.155191 0.168224
C28_2 C 0.8197(4) 0.4927(5) 0.1071(3)
H24_2 H 0.848613 0.424888 0.112026
H25_2 H 0.762201 0.481656 0.108105
H26 H 0.847341 0.539429 0.143797
C29 C 0.7983(5) 0.6520(4) 0.0342(4)
H28 H 0.836091 0.694285 0.068638
H29 H 0.741452 0.661624 0.037370
Cd5_2 Cd 0.79424(2) 0.31068(2) 0.27947(2)
O3_2 O 0.84298(15) 0.1729(2) 0.94610(13)
O8_2 O 0.76864(18) 0.0078(2) 0.75683(13)
O9_2 O 0.72653(16) 0.1717(2) 0.85850(12)
N1_2 N 0.30415(17) 0.0609(2) 0.88188(14)
H1_2 H 0.341165 0.047085 0.860052
N2_2 N 0.48578(17) 0.1171(2) 0.95575(13)
H2_2 H 0.475920 0.096717 0.913985
C1_2 C 0.0718(2) 0.0926(3) 0.82124(17)
C3_2 C 0.2195(2) 0.0494(3) 0.84459(17)
C5_2 C 0.7083(2) 0.1715(3) 0.96901(16)
C8_2 C 0.6239(2) 0.1458(3) 0.94391(15)
H6_2 H 0.602832 0.127656 0.898170
C9_2 C 0.4180(2) 0.1157(3) 0.98130(16)
C11_2 C 0.1532(2) 0.0952(3) 0.86497(16)
H7_2 H 0.162958 0.127444 0.907590
C12_2 C 0.3347(2) 0.0903(3) 0.94667(17)
C13_2 C 0.5700(2) 0.1467(3) 0.98637(16)
C14_2 C 0.0006(2) 0.1473(3) 0.84191(17)
C15_2 C 0.0562(2) 0.0415(3) 0.75897(17)
H8_2 H 0.002006 0.041259 0.729665
C18_2 C 0.7645(2) 0.1723(3) 0.92134(16)
C23_2 C 0.8491(3) 0.4866(3) 0.9977(2)
H11 H 0.853356 0.524663 0.959386
H27 H 0.802120 0.674415 0.989985
O15_2 O 0.67077(15) 0.2512(2) 0.69041(11)
O17_2 O 0.79665(15) 0.2369(2) 0.67292(11)
O19 O 0.92993(15) 0.1422(3) 0.80088(13)
N4_2 N 0.7544(2) 0.8346(3) 0.78550(17)
C6_2 C 0.2037(2) 0.9952(3) 0.78232(17)
H4_2 H 0.247934 0.962561 0.769220
C16_2 C 0.1052(2) 0.9260(3) 0.67540(17)
C17_2 C 0.1223(2) 0.9900(3) 0.74009(17)
C22_2 C 0.7704(2) 0.9378(3) 0.8000(2)
H10_2 H 0.783726 0.958458 0.845586
C25_2 C 0.7319(4) 0.7972(4) 0.7155(2)
H15_2 H 0.708821 0.855716 0.685589
H16_2 H 0.690530 0.741021 0.710158
H17_2 H 0.781320 0.770042 0.704444
C26_2 C 0.7570(3) 0.7545(4) 0.8386(2)
H18_2 H 0.775598 0.787899 0.882579
H19_2 H 0.795582 0.698215 0.835044
H20_2 H 0.701595 0.724868 0.832958
O10_2 O 0.04203(18) 0.1883(2) 0.53259(13)
N3_2 N 0.0155(2) 0.3014(3) 0.61200(17)
C21_2 C 0.0273(3) 0.2056(3) 0.58858(19)
H9_2 H 0.024410 0.146572 0.615880
C24_2 C 0.0166(3) 0.3983(3) 0.5718(2)
H13_2 H 0.054048 0.450167 0.599118
H14_2 H 0.035708 0.380709 0.532500
H22_2 H 0.034565 0.358174 0.706335
O18_2 O 0.01903(16) 0.3070(2) 0.39929(13)
Cd2 Cd 0.93491(2) 0.20001(2) 0.43607(2)
O1_2 O 0.16012(14) 0.64249(19) 0.16909(12)
O3_3 O 0.84298(15) 0.3271(2) 0.44610(13)
O4_2 O 0.03837(15) 0.5585(2) 0.13008(12)
O7_3 O 0.23914(15) 0.4036(2) 0.52525(13)
O8_3 O 0.76864(18) 0.4922(2) 0.25683(13)
O9_3 O 0.72653(16) 0.3283(2) 0.35850(12)
O12_3 O 0.43212(17) 0.3495(3) 0.60546(13)
N1_3 N 0.30415(17) 0.4391(2) 0.38188(14)
H1_3 H 0.341165 0.452915 0.360052
N2_3 N 0.48578(17) 0.3829(2) 0.45575(13)
H2_3 H 0.475920 0.403283 0.413985
O13_3 O 0.8691(2) 0.1061(2) 0.50094(16)
C1_3 C 0.0718(2) 0.4074(3) 0.32124(17)
C2_3 C 0.6854(2) 0.2953(3) 0.57965(17)
C3_3 C 0.2195(2) 0.4506(3) 0.34459(17)
C4_3 C 0.7400(2) 0.2991(3) 0.53741(17)
H3_3 H 0.796912 0.282369 0.554659
N4_3 N 0.7544(2) 0.6654(3) 0.28550(17)
C5_3 C 0.7083(2) 0.3285(3) 0.46901(16)
C6_3 C 0.2037(2) 0.5048(3) 0.28232(17)
H4_3 H 0.247934 0.537439 0.269220
C7_3 C 0.6004(2) 0.3228(3) 0.55443(16)
H5_3 H 0.564311 0.320763 0.582758
C8_3 C 0.6239(2) 0.3542(3) 0.44391(15)
H6_3 H 0.602832 0.372344 0.398170
C9_3 C 0.4180(2) 0.3843(3) 0.48130(16)
C10_3 C 0.7194(2) 0.2588(3) 0.65233(16)
C11_3 C 0.1532(2) 0.4048(3) 0.36497(16)
H7_3 H 0.162958 0.372556 0.407590
C12_3 C 0.3347(2) 0.4097(3) 0.44667(17)
C13_3 C 0.5700(2) 0.3533(3) 0.48637(16)
C14_3 C 0.0006(2) 0.3527(3) 0.34191(17)
C15_3 C 0.0562(2) 0.4585(3) 0.25897(17)
H8_3 H 0.002006 0.458741 0.229665
C16_3 C 0.1052(2) 0.5740(3) 0.17540(17)
C17_3 C 0.1223(2) 0.5100(3) 0.24009(17)
C18_3 C 0.7645(2) 0.3277(3) 0.42134(16)
C19_3 C 0.3053(2) 0.3956(3) 0.50910(17)
C20_3 C 0.3965(2) 0.3699(3) 0.54690(17)
C22_3 C 0.7704(2) 0.5622(3) 0.3000(2)
H10_3 H 0.783726 0.541542 0.345586
C23_3 C 0.8491(3) 0.0134(3) 0.4977(2)
H12_3 H 0.960572 0.427780 0.557510
C25_3 C 0.7319(4) 0.7028(4) 0.2155(2)
H15_3 H 0.708821 0.644284 0.185589
H16_3 H 0.690530 0.758979 0.210158
H17_3 H 0.781320 0.729958 0.204444
C26_3 C 0.7570(3) 0.7455(4) 0.3386(2)
H18_3 H 0.775598 0.712101 0.382579
H19_3 H 0.795582 0.801785 0.335044
H20_3 H 0.701595 0.775132 0.332958
C27_3 C 0.9937(3) 0.3130(4) 0.6763(2)
H21_3 H 0.993478 0.243564 0.696842
H23_3 H 0.938666 0.344809 0.668224
C28_3 C 0.8197(4) 0.0073(5) 0.6071(3)
H24_3 H 0.848613 0.075112 0.612026
H25_3 H 0.762201 0.018344 0.608105
Cd7_2 Cd 0.06509(2) 0.70001(2) 0.06393(2)
O14_2 O 0.83988(14) 0.14249(19) 0.33091(12)
O16_2 O 0.96163(15) 0.0585(2) 0.36992(12)
O19_2 O 0.92993(15) 0.3578(3) 0.30088(13)
O11_2 O 0.07007(15) 0.8578(3) 0.19912(13)
N4_4 N 0.2456(2) 0.1654(3) 0.21450(17)
C6_4 C 0.7963(2) 0.0048(3) 0.21768(17)
H4_4 H 0.752066 0.037439 0.230780
C16_4 C 0.8948(2) 0.0740(3) 0.32460(17)
C17_4 C 0.8777(2) 0.0100(3) 0.25991(17)
C22_4 C 0.2296(2) 0.0622(3) 0.2000(2)
H10_4 H 0.216274 0.041542 0.154414
C25_4 C 0.2681(4) 0.2028(4) 0.2845(2)
H15_4 H 0.291179 0.144284 0.314411
H16_4 H 0.309470 0.258979 0.289842
H17_4 H 0.218680 0.229958 0.295556
C26_4 C 0.2430(3) 0.2455(4) 0.1614(2)
H18_4 H 0.224402 0.212101 0.117421
H19_4 H 0.204418 0.301785 0.164956
H20_4 H 0.298405 0.275132 0.167042
O3_4 O 0.15702(15) 0.8271(2) 0.05390(13)
O6_2 O 0.98097(16) 0.8070(2) 0.10071(13)
O8_4 O 0.23136(18) 0.9922(2) 0.24317(13)
O9_4 O 0.27347(16) 0.8283(2) 0.14150(12)
N1_4 N 0.69585(17) 0.9391(2) 0.11812(14)
H1_4 H 0.658835 0.952915 0.139948
N2_4 N 0.51422(17) 0.8829(2) 0.04425(13)
H2_4 H 0.524080 0.903283 0.086015
C1_4 C 0.9282(2) 0.9074(3) 0.17876(17)
C3_4 C 0.7805(2) 0.9506(3) 0.15541(17)
C5_4 C 0.2917(2) 0.8285(3) 0.03099(16)
C8_4 C 0.3761(2) 0.8542(3) 0.05609(15)
H6_4 H 0.397168 0.872344 0.101830
C9_4 C 0.5820(2) 0.8843(3) 0.01870(16)
C11_4 C 0.8468(2) 0.9048(3) 0.13503(16)
H7_4 H 0.837042 0.872556 0.092410
C12_4 C 0.6653(2) 0.9097(3) 0.05333(17)
C13_4 C 0.4300(2) 0.8533(3) 0.01363(16)
C14_4 C 0.9994(2) 0.8527(3) 0.15809(17)
C15_4 C 0.9438(2) 0.9585(3) 0.24103(17)
H8_4 H 0.997994 0.958741 0.270335
C18_4 C 0.2355(2) 0.8277(3) 0.07866(16)
C23_4 C 0.1509(3) 0.5134(3) 0.0023(2)
H11_2 H 0.146644 0.475337 0.040614
H27_2 H 0.197880 0.325585 0.010015
O7_4 O 0.76086(15) 0.9036(2) 0.97475(13)
O12_4 O 0.56788(17) 0.8495(3) 0.89454(13)
O13_4 O 0.1309(2) 0.6061(2) 0.99906(16)
C2_4 C 0.3146(2) 0.7953(3) 0.92035(17)
C4_4 C 0.2600(2) 0.7991(3) 0.96259(17)
H3_4 H 0.203088 0.782369 0.945341
N5_2 N 0.1788(2) 0.4600(3) 0.95580(18)
C7_4 C 0.3996(2) 0.8228(3) 0.94557(16)
H5_4 H 0.435689 0.820763 0.917242
C10_4 C 0.2806(2) 0.7588(3) 0.84767(16)
C19_4 C 0.6947(2) 0.8956(3) 0.99090(17)
C20_4 C 0.6035(2) 0.8699(3) 0.95310(17)
H12_4 H 0.039428 0.927780 0.942490
C27_4 C 0.0063(3) 0.8130(4) 0.8237(2)
H21_4 H 0.006522 0.743564 0.803158
H23_4 H 0.061334 0.844809 0.831776
C28_4 C 0.1803(4) 0.5073(5) 0.8929(3)
H24_4 H 0.151387 0.575112 0.887974
H25_4 H 0.237799 0.518344 0.891895
H26_2 H 0.152659 0.460571 0.856203
C29_2 C 0.2017(5) 0.3480(4) 0.9658(4)
H28_2 H 0.163909 0.305715 0.931362
H29_2 H 0.258548 0.338376 0.962630
N5_3 N 0.1788(2) 0.0400(3) 0.45580(18)
H11_3 H 0.146644 0.024663 0.540614
H26_3 H 0.152659 0.039429 0.356203
C29_3 C 0.2017(5) 0.1520(4) 0.4658(4)
H27_3 H 0.197880 0.174415 0.510015
H28_3 H 0.163909 0.194285 0.431362
H29_3 H 0.258548 0.161624 0.462630
O10_3 O 0.04203(18) 0.3117(2) 0.03259(13)
N3_3 N 0.0155(2) 0.1986(3) 0.11200(17)
C21_3 C 0.0273(3) 0.2944(3) 0.08858(19)
H9_3 H 0.024410 0.353428 0.115880
C24_3 C 0.0166(3) 0.1017(3) 0.0718(2)
H13_3 H 0.054048 0.049833 0.099118
H14_3 H 0.035708 0.119291 0.032500
H22_3 H 0.034565 0.141826 0.206335
N5_4 N 0.8212(2) 0.9600(3) 0.54420(18)
H11_4 H 0.853356 0.975337 0.459386
H26_4 H 0.847341 0.960571 0.643797
C29_4 C 0.7983(5) 0.8480(4) 0.5342(4)
H27_4 H 0.802120 0.825585 0.489985
H28_4 H 0.836091 0.805715 0.568638
H29_4 H 0.741452 0.838376 0.537370
O10_4 O 0.95797(18) 0.6883(2) 0.96741(13)
N3_4 N 0.9845(2) 0.8014(3) 0.88800(17)
C21_4 C 0.9727(3) 0.7056(3) 0.91142(19)
H9_4 H 0.975590 0.646572 0.884120
C24_4 C 0.9834(3) 0.8983(3) 0.9282(2)
H13_4 H 0.945952 0.950167 0.900882
H14_4 H 0.964292 0.880709 0.967500
H22_4 H 0.965435 0.858174 0.793665
loop_
_geom_bond_atom_site_label_1
_geom_bond_atom_site_label_2
_geom_bond_site_symmetry_1
_geom_bond_site_symmetry_2
Cd3 O11 1_555 1_555
Cd3 O8 1_555 1_555
Cd6 O3 1_555 1_555
O1 C16 1_555 1_555
O2 C10 1_555 1_555
O3 C18 1_555 1_555
O4 C16 1_555 1_555
O5 C10 1_555 1_555
O6 C14 1_555 1_555
O7 C19 1_555 1_555
O8 C22 1_555 1_555
O9 Cd3 1_555 1_555
O12 C20 1_555 1_555
N1 H1 1_555 1_555
N2 H2 1_555 1_555
O13 Cd6 1_555 1_555
C1 C11 1_555 1_555
C2 C4 1_555 1_555
C3 N1 1_555 1_555
C4 H3 1_555 1_555
N4 C22 1_555 1_555
C5 C4 1_555 1_555
C6 C3 1_555 1_555
H4 C6 1_555 1_555
C7 C2 1_555 1_555
H5 C7 1_555 1_555
C8 C5 1_555 1_555
H6 C8 1_555 1_555
C9 N2 1_555 1_555
C10 C2 1_555 1_555
C11 C3 1_555 1_555
H7 C11 1_555 1_555
C12 N1 1_555 1_555
C13 N2 1_555 1_555
C14 C1 1_555 1_555
C15 C1 1_555 1_555
H8 C15 1_555 1_555
C16 C17 1_555 1_555
C17 C6 1_555 1_555
C18 O9 1_555 1_555
C19 C12 1_555 1_555
C20 C9 1_555 1_555
C22 H10 1_555 1_555
C23 O13 1_555 1_555
C25 N4 1_555 1_555
H15 C25 1_555 1_555
H16 C25 1_555 1_555
H17 C25 1_555 1_555
C26 N4 1_555 1_555
H18 C26 1_555 1_555
H19 C26 1_555 1_555
H20 C26 1_555 1_555
H21 C27 1_555 1_555
H23 C27 1_555 1_555
H24 C28 1_555 1_555
H25 C28 1_555 1_555
Cd4 O1 1_555 1_555
Cd5 O2 1_555 1_555
Cd7 O1 1_555 1_555
O14 Cd3 1_555 1_555
O15 Cd3 1_555 1_555
O16 Cd6 1_555 1_555
O17 Cd3 1_555 1_555
Cd6 O14 1_555 1_555
O4 Cd7 1_555 1_555
O5 Cd5 1_555 1_555
C5 C18 1_555 1_555
C7 C13 1_555 1_555
C8 C13 1_555 1_555
C9 C12 1_555 1_555
C15 C17 1_555 1_555
C19 C20 1_555 1_555
N3 C21 1_555 1_555
C21 O10 1_555 1_555
H9 C21 1_555 1_555
C24 N3 1_555 1_555
H13 C24 1_555 1_555
H14 C24 1_555 1_555
O2_2 C10_2 1_555 1_555
O5_2 C10_2 1_555 1_555
O7_2 C19_2 1_555 1_555
O12_2 C20_2 1_555 1_555
C2_2 C4_2 1_555 1_555
C4_2 H3_2 1_555 1_555
C7_2 C2_2 1_555 1_555
H5_2 C7_2 1_555 1_555
C10_2 C2_2 1_555 1_555
H21_2 C27_2 1_555 1_555
H23_2 C27_2 1_555 1_555
C28_2 N5 1_555 1_555
H24_2 C28_2 1_555 1_555
H25_2 C28_2 1_555 1_555
H26 C28_2 1_555 1_555
C29 N5 1_555 1_555
H28 C29 1_555 1_555
H29 C29 1_555 1_555
Cd5_2 O2_2 1_555 1_555
O5_2 Cd5_2 1_555 1_555
C19_2 C20_2 1_555 1_555
Cd4 O8_2 1_555 1_555
Cd7 O3_2 1_555 1_555
O3_2 C18_2 1_555 1_555
O18 C14_2 1_555 1_555
O9_2 Cd4 1_555 1_555
N1_2 H1_2 1_555 1_555
N2_2 H2_2 1_555 1_555
C1_2 C11_2 1_555 1_555
C3_2 N1_2 1_555 1_555
C8_2 C5_2 1_555 1_555
H6_2 C8_2 1_555 1_555
C9_2 N2_2 1_555 1_555
C11_2 C3_2 1_555 1_555
H7_2 C11_2 1_555 1_555
C12_2 N1_2 1_555 1_555
C13_2 N2_2 1_555 1_555
C14_2 C1_2 1_555 1_555
C15_2 C1_2 1_555 1_555
H8_2 C15_2 1_555 1_555
C18_2 O9_2 1_555 1_555
H11 C23_2 1_555 1_555
O15_2 Cd4 1_555 1_555
O17_2 Cd4 1_555 1_555
O19 Cd4 1_555 1_555
C5_2 C18_2 1_555 1_555
C8_2 C13_2 1_555 1_555
C9_2 C12_2 1_555 1_555
O14 C16_2 1_555 1_555
O16 C16_2 1_555 1_555
N4_2 C22_2 1_555 1_555
H4_2 C6_2 1_555 1_555
C16_2 C17_2 1_555 1_555
C17_2 C6_2 1_555 1_555
C22_2 H10_2 1_555 1_555
C25_2 N4_2 1_555 1_555
H15_2 C25_2 1_555 1_555
H16_2 C25_2 1_555 1_555
H17_2 C25_2 1_555 1_555
C26_2 N4_2 1_555 1_555
H18_2 C26_2 1_555 1_555
H19_2 C26_2 1_555 1_555
H20_2 C26_2 1_555 1_555
N3_2 C21_2 1_555 1_555
C21_2 O10_2 1_555 1_555
H9_2 C21_2 1_555 1_555
C24_2 N3_2 1_555 1_555
H13_2 C24_2 1_555 1_555
H14_2 C24_2 1_555 1_555
Cd5_2 O8_3 1_555 1_555
Cd2 O3_3 1_555 1_555
O1_2 C16_3 1_555 1_555
O15_2 C10_3 1_555 1_555
O3_3 C18_3 1_555 1_555
O4_2 C16_3 1_555 1_555
O17_2 C10_3 1_555 1_555
O18_2 C14_3 1_555 1_555
O7_3 C19_3 1_555 1_555
O8_3 C22_3 1_555 1_555
O9_3 Cd5_2 1_555 1_555
O12_3 C20_3 1_555 1_555
N1_3 H1_3 1_555 1_555
N2_3 H2_3 1_555 1_555
O13_3 Cd2 1_555 1_555
C1_3 C11_3 1_555 1_555
C2_3 C4_3 1_555 1_555
C3_3 N1_3 1_555 1_555
C4_3 H3_3 1_555 1_555
N4_3 C22_3 1_555 1_555
C5_3 C4_3 1_555 1_555
C6_3 C3_3 1_555 1_555
H4_3 C6_3 1_555 1_555
C7_3 C2_3 1_555 1_555
H5_3 C7_3 1_555 1_555
C8_3 C5_3 1_555 1_555
H6_3 C8_3 1_555 1_555
C9_3 N2_3 1_555 1_555
C10_3 C2_3 1_555 1_555
C11_3 C3_3 1_555 1_555
H7_3 C11_3 1_555 1_555
C12_3 N1_3 1_555 1_555
C13_3 N2_3 1_555 1_555
C14_3 C1_3 1_555 1_555
C15_3 C1_3 1_555 1_555
H8_3 C15_3 1_555 1_555
C16_3 C17_3 1_555 1_555
C17_3 C6_3 1_555 1_555
C18_3 O9_3 1_555 1_555
C19_3 C12_3 1_555 1_555
C20_3 C9_3 1_555 1_555
C22_3 H10_3 1_555 1_555
C23_3 O13_3 1_555 1_555
C25_3 N4_3 1_555 1_555
H15_3 C25_3 1_555 1_555
H16_3 C25_3 1_555 1_555
H17_3 C25_3 1_555 1_555
C26_3 N4_3 1_555 1_555
H18_3 C26_3 1_555 1_555
H19_3 C26_3 1_555 1_555
H20_3 C26_3 1_555 1_555
H21_3 C27_3 1_555 1_555
H23_3 C27_3 1_555 1_555
H24_3 C28_3 1_555 1_555
H25_3 C28_3 1_555 1_555
Cd5 O1_2 1_555 1_555
Cd7_2 O1_2 1_555 1_555
O14_2 Cd5_2 1_555 1_555
O16_2 Cd2 1_555 1_555
O19_2 Cd5_2 1_555 1_555
Cd2 O14_2 1_555 1_555
O4_2 Cd7_2 1_555 1_555
C5_3 C18_3 1_555 1_555
C7_3 C13_3 1_555 1_555
C8_3 C13_3 1_555 1_555
C9_3 C12_3 1_555 1_555
C15_3 C17_3 1_555 1_555
C19_3 C20_3 1_555 1_555
Cd5 O11_2 1_555 1_555
O14_2 C16_4 1_555 1_555
O16_2 C16_4 1_555 1_555
N4_4 C22_4 1_555 1_555
H4_4 C6_4 1_555 1_555
C16_4 C17_4 1_555 1_555
C17_4 C6_4 1_555 1_555
C22_4 H10_4 1_555 1_555
C25_4 N4_4 1_555 1_555
H15_4 C25_4 1_555 1_555
H16_4 C25_4 1_555 1_555
H17_4 C25_4 1_555 1_555
C26_4 N4_4 1_555 1_555
H18_4 C26_4 1_555 1_555
H19_4 C26_4 1_555 1_555
H20_4 C26_4 1_555 1_555
Cd5 O8_4 1_555 1_555
Cd7_2 O3_4 1_555 1_555
O3_4 C18_4 1_555 1_555
O6_2 C14_4 1_555 1_555
O9_4 Cd5 1_555 1_555
N1_4 H1_4 1_555 1_555
N2_4 H2_4 1_555 1_555
C1_4 C11_4 1_555 1_555
C3_4 N1_4 1_555 1_555
C8_4 C5_4 1_555 1_555
H6_4 C8_4 1_555 1_555
C9_4 N2_4 1_555 1_555
C11_4 C3_4 1_555 1_555
H7_4 C11_4 1_555 1_555
C12_4 N1_4 1_555 1_555
C13_4 N2_4 1_555 1_555
C14_4 C1_4 1_555 1_555
C15_4 C1_4 1_555 1_555
H8_4 C15_4 1_555 1_555
C18_4 O9_4 1_555 1_555
H11_2 C23_4 1_555 1_555
C5_4 C18_4 1_555 1_555
C8_4 C13_4 1_555 1_555
C9_4 C12_4 1_555 1_555
O15 C10_4 1_555 1_555
O17 C10_4 1_555 1_555
O7_4 C19_4 1_555 1_555
O12_4 C20_4 1_555 1_555
C2_4 C4_4 1_555 1_555
C4_4 H3_4 1_555 1_555
C7_4 C2_4 1_555 1_555
H5_4 C7_4 1_555 1_555
C10_4 C2_4 1_555 1_555
H21_4 C27_4 1_555 1_555
H23_4 C27_4 1_555 1_555
C28_4 N5_2 1_555 1_555
H24_4 C28_4 1_555 1_555
H25_4 C28_4 1_555 1_555
H26_2 C28_4 1_555 1_555
C29_2 N5_2 1_555 1_555
H28_2 C29_2 1_555 1_555
H29_2 C29_2 1_555 1_555
C19_4 C20_4 1_555 1_555
C29_3 N5_3 1_555 1_555
H27_3 C29_3 1_555 1_555
H28_3 C29_3 1_555 1_555
H29_3 C29_3 1_555 1_555
N3_3 C21_3 1_555 1_555
C21_3 O10_3 1_555 1_555
H9_3 C21_3 1_555 1_555
C24_3 N3_3 1_555 1_555
H13_3 C24_3 1_555 1_555
H14_3 C24_3 1_555 1_555
C29_4 N5_4 1_555 1_555
H27_4 C29_4 1_555 1_555
H28_4 C29_4 1_555 1_555
H29_4 C29_4 1_555 1_555
N3_4 C21_4 1_555 1_555
C21_4 O10_4 1_555 1_555
H9_4 C21_4 1_555 1_555
C24_4 N3_4 1_555 1_555
H13_4 C24_4 1_555 1_555
H14_4 C24_4 1_555 1_555

#END
