
###############################################################################
#
# This file contains modified crystal structure data generated from the
# MOF subset of the Cambridge Structural Database (CSD) v543 
# hosted by the Cambridge Crystallographic Data Centre (CCDC).
#
# This work is licensed under the Creative Commons
# Attribution-NonCommercial-ShareAlike 4.0 International License.
# To view a copy of this license, visit
# http://creativecommons.org/licenses/by-nc-sa/4.0/
# or send a letter to
# Creative Commons, PO Box 1866, Mountain View, CA 94042, USA.
#
# CIF created using the CSD Python API on 29 September 2022
# The structure has been converted into the P1 space group
# The structure has a 3D framework
# The original CSD entry QECZEG is in the triclinic crystal system
# The framework has been calculated to contain at least 10.0% void space
# The void calculation uses a probe of radius 1.32A, grid spacing 0.4
#
###############################################################################

data_QECZEG
_chemical_formula_moiety         '(C66 H48 N4 O12 Zn2)n'
_symmetry_cell_setting           triclinic
_symmetry_space_group_name_H-M   'P 1'
_symmetry_Int_Tables_number      1
_space_group_name_Hall           'P 1'
loop_
_symmetry_equiv_pos_site_id
_symmetry_equiv_pos_as_xyz
1 x,y,z
_cell_length_a                   8.7666(8)
_cell_length_b                   11.3476(13)
_cell_length_c                   17.1460(15)
_cell_angle_alpha                77.903(2)
_cell_angle_beta                 86.7290(10)
_cell_angle_gamma                69.7160(10)
_cell_volume                     1564.15
loop_
_atom_site_label
_atom_site_type_symbol
_atom_site_fract_x
_atom_site_fract_y
_atom_site_fract_z
C4 C 0.3118(3) 0.0383(3) 0.43284(17)
H3 H 0.1668 0.0237 0.5252
N2 N 0.3009(3) 0.4187(2) 0.43037(14)
C7 C 0.3081(3) 0.1695(3) 0.43139(16)
C8 C 0.2112(3) 0.2425(3) 0.48318(17)
H5 H 0.1469 0.2089 0.5197
C9 C 0.2108(3) 0.3650(3) 0.48014(17)
H6 H 0.1439 0.4126 0.5148
C10 C 0.3995(4) 0.2273(3) 0.3783(2)
H7 H 0.4651 0.1830 0.3418
C11 C 0.3935(4) 0.3489(3) 0.3794(2)
H8 H 0.4562 0.3851 0.3433
Zn4 Zn 0.29799(4) 0.60571(3) 0.432341(17)
C2 C 0.0698(3) 0.5002(3) 0.92386(16)
C5 C 0.2273(6) 0.9804(4) 0.4871(3)
C6 C 0.4027(6) 0.9646(4) 0.3815(3)
H4 H 0.4681 0.9963 0.3446
O1 O 0.0509(2) 0.6936(2) 0.38768(12)
O2 O 0.2429(2) 0.6663(2) 0.29966(13)
O3 O 0.2243(2) 0.59313(18) 0.54746(11)
O4 O 0.4593(2) 0.44448(19) 0.59352(12)
N1 N 0.3116(3) 0.7903(2) 0.43456(14)
C12 C 0.3979(6) 0.8448(4) 0.3841(3)
H9 H 0.4600 0.7986 0.3476
C13 C 0.2297(6) 0.8583(4) 0.4864(3)
H10 H 0.1703 0.8222 0.5246
C15 C 0.0954(4) 0.7051(3) 0.31702(18)
C16 C 0.0152(4) 0.7903(3) 0.17293(19)
H11 H 0.1249 0.7665 0.1604
C24 C 0.3178(3) 0.5162(3) 0.60305(16)
C25 C 0.0307(4) 0.5626(3) 0.77563(17)
C26 C 0.2537(3) 0.5105(3) 0.68622(16)
C27 C 0.1357(4) 0.5037(3) 0.84149(16)
C29 C 0.3590(3) 0.4487(3) 0.75159(17)
H19 H 0.4692 0.4087 0.7436
C30 C 0.3007(4) 0.4465(3) 0.82803(17)
H20 H 0.3725 0.4064 0.8712
C31 C 0.0891(4) 0.5667(3) 0.69895(17)
H21 H 0.0177 0.6074 0.6557
O11 O 0.2693(3) 0.5737(3) 0.96357(14)
C50 C 0.1361(3) 0.5365(3) 0.98325(17)
H39 H 0.4119 0.6546 0.9969
Zn7 Zn 0.70201(4) 0.39429(3) 0.567659(17)
O15 O 0.5407(2) 0.55552(19) 0.40648(12)
O5 O 0.7307(3) 0.4263(3) 0.03643(14)
C28 C 0.8639(3) 0.4635(3) 0.01675(17)
H23 H 0.5881 0.3454 0.0031
C44 C 0.9302(3) 0.4998(3) 0.07614(16)
O10 O 0.7757(2) 0.40687(18) 0.45254(11)
C46 C 0.6822(3) 0.4838(3) 0.39695(16)
C47 C 0.9693(4) 0.4374(3) 0.22437(17)
C48 C 0.7463(3) 0.4895(3) 0.31378(16)
C49 C 0.8643(4) 0.4963(3) 0.15851(16)
C51 C 0.6410(3) 0.5513(3) 0.24841(17)
H35 H 0.5308 0.5913 0.2564
C52 C 0.6993(4) 0.5535(3) 0.17197(17)
H36 H 0.6275 0.5936 0.1288
C53 C 0.9109(4) 0.4333(3) 0.30105(17)
H37 H 0.9823 0.3926 0.3443
O7 O 0.9491(2) 0.3064(2) 0.61232(12)
O8 O 0.7571(2) 0.3337(2) 0.70034(13)
C35 C 0.9046(4) 0.2949(3) 0.68298(18)
C36 C 0.9848(4) 0.2097(3) 0.82707(19)
H26 H 0.8751 0.2335 0.8396
C56 C 0.7727(6) 0.0196(4) 0.5129(3)
C57 C 0.5973(6) 0.0354(4) 0.6185(3)
H42 H 0.5319 0.0037 0.6554
N3 N 0.6884(3) 0.2097(2) 0.56544(14)
C63 C 0.6021(6) 0.1552(4) 0.6159(3)
H47 H 0.5400 0.2014 0.6524
C64 C 0.7703(6) 0.1417(4) 0.5136(3)
H48 H 0.8297 0.1778 0.4754
N6 N 0.6991(3) 0.5813(2) 0.56963(14)
C55 C 0.6882(3) 0.9617(3) 0.56716(17)
H41 H 0.8332 0.9763 0.4748
C58 C 0.6919(3) 0.8305(3) 0.56861(16)
C59 C 0.7888(3) 0.7575(3) 0.51682(17)
H43 H 0.8531 0.7911 0.4803
C60 C 0.7892(3) 0.6350(3) 0.51986(17)
H44 H 0.8561 0.5874 0.4852
C61 C 0.6005(4) 0.7727(3) 0.6217(2)
H45 H 0.5349 0.8170 0.6582
C62 C 0.6065(4) 0.6511(3) 0.6206(2)
H46 H 0.5438 0.6149 0.6567
C45 C 0.0662(4) 0.5354(3) 0.05804(17)
H33 H 0.1120 0.5593 0.0971
H34 H 0.0802 0.4004 0.2165
C54 C 0.3206(5) 0.6307(5) 0.0181(2)
H38 H 0.3518 0.5706 0.0679
H40 H 0.2331 0.7057 0.0267
C33 C 0.3753(4) 0.1138(4) 1.0000(2)
H25 H 0.2915 0.1914 0.9997
C34 C 0.2646(4) 0.1127(3) 0.8703(2)
C37 C 0.0296(4) 0.2336(3) 0.74816(18)
C38 C 0.1954(4) 0.1958(3) 0.73046(19)
H27 H 0.2279 0.2110 0.6778
C40 C 0.1006(4) 0.1510(4) 0.88731(19)
H28 H 0.0680 0.1371 0.9400
C41 C 0.3881(4) 0.0534(3) 0.9362(2)
C42 C 0.3117(4) 0.1355(3) 0.7916(2)
H29 H 0.4216 0.1103 0.7794
O6 O 0.4783(4) 0.1176(3) 0.12768(16)
C19 C 0.4840(5) 0.0616(4) 0.0641(2)
C23 C 0.3600(5) 0.2399(4) 0.1264(2)
H15 H 0.3679 0.2972 0.0776
H16 H 0.3780 0.2726 0.1710
H17 H 0.2536 0.2331 0.1295
C33_2 C 0.3753(4) 0.1138(4) 0.0000(2)
C1 C 0.6247(4) 0.8862(4) 0.0000(2)
H1 H 0.7085 0.8086 0.0003
C3 C 0.9338(4) 0.4646(3) 0.94196(17)
H2 H 0.8880 0.4407 0.9029
C14 C 0.7354(4) 0.8873(3) 0.1297(2)
C17 C 0.9704(4) 0.7664(3) 0.25184(18)
C18 C 0.8046(4) 0.8042(3) 0.26954(19)
H12 H 0.7721 0.7890 0.3222
C20 C 0.8994(4) 0.8490(4) 0.11269(19)
H13 H 0.9320 0.8629 0.0600
C21 C 0.6119(4) 0.9466(3) 0.0638(2)
C22 C 0.6883(4) 0.8645(3) 0.2084(2)
H14 H 0.5784 0.8897 0.2206
H18 H 0.9198 0.5996 0.7835
C32 C 0.6794(5) 0.3693(5) 0.9819(2)
H22 H 0.6482 0.4294 0.9321
H24 H 0.7669 0.2943 0.9733
C1_2 C 0.6247(4) 0.8862(4) 1.0000(2)
O9 O 0.5217(4) 0.8824(3) 0.87232(16)
C39 C 0.5160(5) 0.9384(4) 0.9359(2)
C43 C 0.6400(5) 0.7601(4) 0.8736(2)
H30 H 0.6321 0.7028 0.9224
H31 H 0.6220 0.7274 0.8290
H32 H 0.7464 0.7669 0.8705
loop_
_geom_bond_atom_site_label_1
_geom_bond_atom_site_label_2
_geom_bond_site_symmetry_1
_geom_bond_site_symmetry_2
N2 C9 1_555 1_555
C7 C4 1_555 1_555
C8 C7 1_555 1_555
H5 C8 1_555 1_555
C9 C8 1_555 1_555
H6 C9 1_555 1_555
C10 C7 1_555 1_555
H7 C10 1_555 1_555
C11 N2 1_555 1_555
H8 C11 1_555 1_555
Zn4 N2 1_555 1_555
C10 C11 1_555 1_555
H4 C6 1_555 1_555
Zn4 O1 1_555 1_555
O1 C15 1_555 1_555
O2 Zn4 1_555 1_555
O3 Zn4 1_555 1_555
O4 C24 1_555 1_555
N1 Zn4 1_555 1_555
C12 C6 1_555 1_555
H9 C12 1_555 1_555
C13 C5 1_555 1_555
H10 C13 1_555 1_555
C15 O2 1_555 1_555
C16 H11 1_555 1_555
C24 O3 1_555 1_555
C26 C24 1_555 1_555
C27 C2 1_555 1_555
C29 C26 1_555 1_555
H19 C29 1_555 1_555
C30 C27 1_555 1_555
H20 C30 1_555 1_555
C31 C25 1_555 1_555
H21 C31 1_555 1_555
O11 C50 1_555 1_555
C50 C2 1_555 1_555
Zn7 O4 1_555 1_555
O15 Zn4 1_555 1_555
N1 C12 1_555 1_555
N1 C13 1_555 1_555
C25 C27 1_555 1_555
C26 C31 1_555 1_555
C29 C30 1_555 1_555
O5 C28 1_555 1_555
C44 C28 1_555 1_555
O10 C46 1_555 1_555
C46 C48 1_555 1_555
C48 C51 1_555 1_555
C49 C44 1_555 1_555
C51 H35 1_555 1_555
C52 C49 1_555 1_555
H36 C52 1_555 1_555
C53 C47 1_555 1_555
H37 C53 1_555 1_555
O15 C46 1_555 1_555
Zn7 O10 1_555 1_555
C47 C49 1_555 1_555
C48 C53 1_555 1_555
C51 C52 1_555 1_555
O7 C35 1_555 1_555
O8 C35 1_555 1_555
C36 H26 1_555 1_555
H42 C57 1_555 1_555
Zn7 O7 1_555 1_555
N3 Zn7 1_555 1_555
C63 C57 1_555 1_555
H47 C63 1_555 1_555
C64 C56 1_555 1_555
H48 C64 1_555 1_555
N6 Zn7 1_555 1_555
O8 Zn7 1_555 1_555
N3 C63 1_555 1_555
N3 C64 1_555 1_555
N6 C60 1_555 1_555
C58 C55 1_555 1_555
C59 C58 1_555 1_555
H43 C59 1_555 1_555
C60 C59 1_555 1_555
H44 C60 1_555 1_555
C61 C58 1_555 1_555
H45 C61 1_555 1_555
C62 N6 1_555 1_555
H46 C62 1_555 1_555
C61 C62 1_555 1_555
H33 C45 1_555 1_555
H38 C54 1_555 1_555
H40 C54 1_555 1_555
H25 C33 1_555 1_555
C34 C40 1_555 1_555
C38 C37 1_555 1_555
H27 C38 1_555 1_555
H28 C40 1_555 1_555
C41 C33 1_555 1_555
C42 C34 1_555 1_555
H29 C42 1_555 1_555
C34 C41 1_555 1_555
C38 C42 1_555 1_555
O6 C19 1_555 1_555
C23 O6 1_555 1_555
H15 C23 1_555 1_555
H16 C23 1_555 1_555
H17 C23 1_555 1_555
C33_2 C19 1_555 1_555
C1 H1 1_555 1_555
C3 H2 1_555 1_555
C14 C20 1_555 1_555
C18 C17 1_555 1_555
H12 C18 1_555 1_555
H13 C20 1_555 1_555
C21 C1 1_555 1_555
C22 C14 1_555 1_555
H14 C22 1_555 1_555
H22 C32 1_555 1_555
H24 C32 1_555 1_555
C14 C21 1_555 1_555
C18 C22 1_555 1_555
O9 C39 1_555 1_555
C39 C1_2 1_555 1_555
C43 O9 1_555 1_555
H30 C43 1_555 1_555
H31 C43 1_555 1_555
H32 C43 1_555 1_555

#END
