
###############################################################################
#
# This file contains modified crystal structure data generated from the
# MOF subset of the Cambridge Structural Database (CSD) v543 
# hosted by the Cambridge Crystallographic Data Centre (CCDC).
#
# This work is licensed under the Creative Commons
# Attribution-NonCommercial-ShareAlike 4.0 International License.
# To view a copy of this license, visit
# http://creativecommons.org/licenses/by-nc-sa/4.0/
# or send a letter to
# Creative Commons, PO Box 1866, Mountain View, CA 94042, USA.
#
# CIF created using the CSD Python API on 29 September 2022
# The structure has been converted into the P1 space group
# The structure has a 3D framework
# The original CSD entry QEGNOH is in the orthorhombic crystal system
# The framework has been calculated to contain at least 10.0% void space
# The void calculation uses a probe of radius 1.32A, grid spacing 0.4
#
###############################################################################

data_QEGNOH
_chemical_formula_moiety         '(C102 H88 Co6 N84)n'
_symmetry_cell_setting           triclinic
_symmetry_space_group_name_H-M   'P 1'
_symmetry_Int_Tables_number      1
_space_group_name_Hall           'P 1'
loop_
_symmetry_equiv_pos_site_id
_symmetry_equiv_pos_as_xyz
1 x,y,z
_cell_length_a                   15.230(3)
_cell_length_b                   16.405(3)
_cell_length_c                   13.939(3)
_cell_angle_alpha                90
_cell_angle_beta                 90
_cell_angle_gamma                90
_cell_volume                     3482.63
loop_
_atom_site_label
_atom_site_type_symbol
_atom_site_fract_x
_atom_site_fract_y
_atom_site_fract_z
Co1 Co 0.085272(15) 0.423204(14) 0.333910(16)
N6 N 0.19530(11) 0.50194(11) 0.31053(13)
N7 N -0.0000 0.6418(2) 0.2500
N8 N -0.0000 0.57221(17) 0.2500
N9 N 0.06739(11) 0.48163(12) 0.46681(13)
N10 N -0.0000 0.49993(14) 0.2500
N11 N -0.0000 0.5000 0.5000
C4 C 0.24521(16) 0.52658(16) 0.38341(18)
H3 H 0.2310 0.5082 0.4446
C7 C 0.31668(17) 0.57764(16) 0.3739(2)
H5 H 0.3494 0.5925 0.4274
C9 C 0.41930(16) 0.65903(15) 0.2681(3)
H7 H 0.4290 0.6929 0.3241
H8 H 0.4095 0.6946 0.2135
C10 C 0.5000 0.6068(2) 0.2500
H9 H 0.5104 0.5720 0.3051
C11 C 0.28617(18) 0.58189(16) 0.2077(2)
H10 H 0.2982 0.6002 0.1460
C12 C 0.21620(15) 0.53059(15) 0.22348(17)
H11 H 0.1819 0.5151 0.1714
C13 C 0.33912(14) 0.60646(15) 0.2840(2)
Co2 Co 0.585272(15) 0.076796(14) 0.666090(16)
Co5 Co 0.914728(15) 0.423204(14) 0.166090(16)
Co7 Co 0.414728(15) 0.076796(14) 0.833910(16)
N12 N 0.46372(10) 0.14529(9) 0.63858(10)
N13 N 0.43439(10) 0.18421(10) 0.56066(11)
N14 N 0.17148(10) 0.33638(10) 0.40690(11)
N15 N 0.67148(10) 0.16362(10) 0.59310(11)
N16 N 0.39782(10) 0.13583(9) 0.70030(11)
N17 N 0.10218(10) 0.36417(9) 0.20030(11)
N18 N 0.60218(10) 0.13583(9) 0.79970(11)
N19 N 0.32480(11) 0.16765(11) 0.66449(10)
N20 N 0.80470(11) 0.50194(11) 0.18947(13)
N23 N 0.56739(11) 0.01837(12) 0.53319(13)
N24 N 0.5000 0.00007(14) 0.7500
C14 C 0.34899(12) 0.19690(11) 0.57904(12)
C15 C 0.25171(13) 0.31593(13) 0.37476(14)
H12 H 0.2682 0.3338 0.3141
C16 C 0.14859(12) 0.30758(13) 0.49352(14)
H13 H 0.0929 0.3198 0.5168
C17 C 0.75479(16) 0.52658(16) 0.11659(18)
H14 H 0.7690 0.5082 0.0554
C18 C 0.31122(13) 0.26988(14) 0.42641(13)
H15 H 0.3660 0.2575 0.4008
C19 C 0.28807(12) 0.24240(12) 0.51685(13)
C20 C 0.68332(17) 0.57764(16) 0.1261(2)
H16 H 0.6506 0.5925 0.0726
C21 C 0.20354(13) 0.26088(14) 0.54953(13)
H17 H 0.1845 0.2417 0.6088
C22 C 0.58070(16) 0.65903(15) 0.2319(3)
H18 H 0.5710 0.6929 0.1759
H19 H 0.5905 0.6946 0.2865
H20 H 0.4896 0.5720 0.1949
C23 C 0.71383(18) 0.58189(16) 0.2923(2)
H21 H 0.7018 0.6002 0.3540
C24 C 0.78380(15) 0.53059(15) 0.27652(17)
H22 H 0.8181 0.5151 0.3286
C25 C 0.66088(14) 0.60646(15) 0.2160(2)
N21 N 0.69530(11) 0.99806(11) 0.68947(13)
N1 N 0.96372(10) 0.35471(9) 0.36142(10)
N2 N 0.93439(10) 0.31579(10) 0.43934(11)
N4 N 0.89782(10) 0.36417(9) 0.29970(11)
N5 N 0.82480(11) 0.33235(11) 0.33551(10)
N7_2 N 1.0000 0.6418(2) 0.2500
N8_2 N 1.0000 0.57221(17) 0.2500
N10_2 N 1.0000 0.49993(14) 0.2500
N11_2 N 1.0000 0.5000 0.5000
C1 C 0.84899(12) 0.30310(11) 0.42096(12)
C2 C 0.75171(13) 0.18407(13) 0.62524(14)
H1 H 0.7682 0.1662 0.6859
C3 C 0.64859(12) 0.19242(13) 0.50648(14)
H2 H 0.5929 0.1802 0.4832
C5 C 0.81122(13) 0.23012(14) 0.57359(13)
H4 H 0.8660 0.2425 0.5992
C6 C 0.78807(12) 0.25760(12) 0.48315(13)
C8 C 0.70354(13) 0.23912(14) 0.45047(13)
H6 H 0.6845 0.2583 0.3912
Co6 Co 0.914728(15) 0.576796(14) 0.666090(16)
N22 N 0.93261(11) 0.51837(12) 0.53319(13)
N3 N 0.82852(10) 0.33638(10) 0.09310(11)
N11_3 N 0.5000 0.0000 0.0000
C2_2 C 0.74829(13) 0.31593(13) 0.12524(14)
H1_2 H 0.7318 0.3338 0.1859
C3_2 C 0.85141(12) 0.30758(13) 0.00648(14)
C5_2 C 0.68878(13) 0.26988(14) 0.07359(13)
H4_2 H 0.6340 0.2575 0.0992
N12_2 N 0.03628(10) 0.35471(9) 0.13858(10)
N13_2 N 0.06561(10) 0.31579(10) 0.06066(11)
N19_2 N 0.17520(11) 0.33235(11) 0.16449(10)
C14_2 C 0.15101(12) 0.30310(11) 0.07904(12)
H13_2 H 0.4071 0.1802 0.0168
C19_2 C 0.21193(12) 0.25760(12) 0.01685(13)
C21_2 C 0.29646(13) 0.23912(14) 0.04953(13)
H17_2 H 0.3155 0.2583 0.1088
N1_2 N 0.53628(10) 0.14529(9) 0.86142(10)
N2_2 N 0.56561(10) 0.18421(10) 0.93934(11)
N5_2 N 0.67520(11) 0.16765(11) 0.83551(10)
N9_2 N 0.43261(11) 0.01837(12) 0.96681(13)
N11_4 N 0.5000 0.0000 1.0000
C1_2 C 0.65101(12) 0.19690(11) 0.92096(12)
H2_2 H 0.9071 0.3198 0.9832
C6_2 C 0.71193(12) 0.24240(12) 0.98315(13)
C8_2 C 0.79646(13) 0.26088(14) 0.95047(13)
H6_2 H 0.8155 0.2417 0.8912
N14_2 N 0.32852(10) 0.16362(10) 0.90690(11)
C15_2 C 0.24829(13) 0.18407(13) 0.87476(14)
H12_2 H 0.2318 0.1662 0.8141
C16_2 C 0.35141(12) 0.19242(13) 0.99352(14)
C18_2 C 0.18878(13) 0.23012(14) 0.92641(13)
H15_2 H 0.1340 0.2425 0.9008
N11_5 N 0.5000 1.0000 0.0000
Co6_2 Co 0.585272(15) 0.923204(14) 0.166090(16)
N22_2 N 0.56739(11) 0.98163(12) 0.03319(13)
N6_2 N 0.30470(11) 0.99806(11) 0.81053(13)
N7_3 N 0.5000 0.8582(2) 0.7500
N8_3 N 0.5000 0.92779(17) 0.7500
N11_6 N 0.5000 1.0000 1.0000
C4_2 C 0.25479(16) 0.97342(16) 0.88341(18)
H3_2 H 0.2690 0.9918 0.9446
C7_2 C 0.18332(17) 0.92236(16) 0.8739(2)
H5_2 H 0.1506 0.9075 0.9274
C9_2 C 0.08070(16) 0.84097(15) 0.7681(3)
H7_2 H 0.0710 0.8071 0.8241
H8_2 H 0.0905 0.8054 0.7135
C10_2 C 0.0000 0.8932(2) 0.7500
C11_2 C 0.21383(18) 0.91811(16) 0.7077(2)
H10_2 H 0.2018 0.8998 0.6460
C12_2 C 0.28380(15) 0.96941(15) 0.72348(17)
H11_2 H 0.3181 0.9849 0.6714
C13_2 C 0.16088(14) 0.89354(15) 0.7840(2)
H20_2 H 0.0104 0.9280 0.6949
N23_2 N 0.93261(11) 0.48163(12) 0.03319(13)
C10_3 C 1.0000 0.8932(2) 0.7500
H9_2 H 0.9896 0.9280 0.8051
C17_2 C 0.74521(16) 0.97342(16) 0.61659(18)
H14_2 H 0.7310 0.9918 0.5554
C20_2 C 0.81668(17) 0.92236(16) 0.6261(2)
H16_2 H 0.8494 0.9075 0.5726
C22_2 C 0.91930(16) 0.84097(15) 0.7319(3)
H18_2 H 0.9290 0.8071 0.6759
H19_2 H 0.9095 0.8054 0.7865
C23_2 C 0.78617(18) 0.91811(16) 0.7923(2)
H21_2 H 0.7982 0.8998 0.8540
C24_2 C 0.71620(15) 0.96941(15) 0.77652(17)
H22_2 H 0.6819 0.9849 0.8286
C25_2 C 0.83912(14) 0.89354(15) 0.7160(2)
N11_7 N 0.0000 0.5000 0.0000
N11_8 N -0.0000 0.5000 1.0000
Co6_3 Co 0.085272(15) 0.576796(14) 0.833910(16)
N22_3 N 0.06739(11) 0.51837(12) 0.96681(13)
N11_9 N 1.0000 0.5000 0.0000
N11_10 N 1.0000 0.5000 1.0000
N11_11 N 0.5000 0.0000 0.5000
N11_12 N 0.5000 1.0000 0.5000
Co6_4 Co 0.414728(15) 0.923204(14) 0.333910(16)
N22_4 N 0.43261(11) 0.98163(12) 0.46681(13)
N1_3 N 0.03628(10) 0.64529(9) 0.63858(10)
N2_3 N 0.06561(10) 0.68421(10) 0.56066(11)
N3_2 N 0.32852(10) 0.83638(10) 0.40690(11)
N4_2 N 0.10218(10) 0.63583(9) 0.70030(11)
N5_3 N 0.17520(11) 0.66765(11) 0.66449(10)
N7_4 N 0.0000 0.3582(2) 0.7500
N8_4 N 0.0000 0.42779(17) 0.7500
N10_3 N 0.0000 0.50007(14) 0.7500
C1_3 C 0.15101(12) 0.69690(11) 0.57904(12)
C2_3 C 0.24829(13) 0.81593(13) 0.37476(14)
H1_3 H 0.2318 0.8338 0.3141
C3_3 C 0.35141(12) 0.80758(13) 0.49352(14)
H2_3 H 0.4071 0.8198 0.5168
C5_3 C 0.18878(13) 0.76988(14) 0.42641(13)
H4_3 H 0.1340 0.7575 0.4008
C6_3 C 0.21193(12) 0.74240(12) 0.51685(13)
C8_3 C 0.29646(13) 0.76088(14) 0.54953(13)
H6_3 H 0.3155 0.7417 0.6088
N21_2 N 0.30470(11) 0.00194(11) 0.31053(13)
N6_3 N 0.80470(11) 0.49806(11) 0.68947(13)
N7_5 N 1.0000 0.3582(2) 0.7500
N8_5 N 1.0000 0.42779(17) 0.7500
N10_4 N 1.0000 0.50007(14) 0.7500
C4_3 C 0.75479(16) 0.47342(16) 0.61659(18)
H3_3 H 0.7690 0.4918 0.5554
C7_3 C 0.68332(17) 0.42236(16) 0.6261(2)
H5_3 H 0.6506 0.4075 0.5726
C9_3 C 0.58070(16) 0.34097(15) 0.7319(3)
H7_3 H 0.5710 0.3071 0.6759
H8_3 H 0.5905 0.3054 0.7865
C10_4 C 0.5000 0.3932(2) 0.7500
H9_3 H 0.4896 0.4280 0.6949
C11_3 C 0.71383(18) 0.41811(16) 0.7923(2)
H10_3 H 0.7018 0.3998 0.8540
C12_3 C 0.78380(15) 0.46941(15) 0.77652(17)
H11_3 H 0.8181 0.4849 0.8286
C13_3 C 0.66088(14) 0.39354(15) 0.7160(2)
N12_3 N 0.53628(10) 0.85471(9) 0.36142(10)
N13_3 N 0.56561(10) 0.81579(10) 0.43934(11)
N14_3 N 0.82852(10) 0.66362(10) 0.59310(11)
N16_2 N 0.60218(10) 0.86417(9) 0.29970(11)
N17_2 N 0.89782(10) 0.63583(9) 0.79970(11)
N18_2 N 0.39782(10) 0.86417(9) 0.20030(11)
N19_3 N 0.67520(11) 0.83235(11) 0.33551(10)
N20_2 N 0.19530(11) 0.49806(11) 0.81053(13)
N24_2 N 0.5000 0.99993(14) 0.2500
C14_3 C 0.65101(12) 0.80310(11) 0.42096(12)
C15_3 C 0.74829(13) 0.68407(13) 0.62524(14)
H12_3 H 0.7318 0.6662 0.6859
C16_3 C 0.85141(12) 0.69242(13) 0.50648(14)
H13_3 H 0.9071 0.6802 0.4832
C17_3 C 0.24521(16) 0.47342(16) 0.88341(18)
H14_3 H 0.2310 0.4918 0.9446
C18_3 C 0.68878(13) 0.73012(14) 0.57359(13)
H15_3 H 0.6340 0.7425 0.5992
C19_3 C 0.71193(12) 0.75760(12) 0.48315(13)
C20_3 C 0.31668(17) 0.42236(16) 0.8739(2)
H16_3 H 0.3494 0.4075 0.9274
C21_3 C 0.79646(13) 0.73912(14) 0.45047(13)
H17_3 H 0.8155 0.7583 0.3912
C22_3 C 0.41930(16) 0.34097(15) 0.7681(3)
H18_3 H 0.4290 0.3071 0.8241
H19_3 H 0.4095 0.3054 0.7135
H20_3 H 0.5104 0.4280 0.8051
C23_3 C 0.28617(18) 0.41811(16) 0.7077(2)
H21_3 H 0.2982 0.3998 0.6460
C24_3 C 0.21620(15) 0.46941(15) 0.72348(17)
H22_3 H 0.1819 0.4849 0.6714
C25_3 C 0.33912(14) 0.39354(15) 0.7840(2)
C10_5 C -0.0000 0.1068(2) 0.2500
H9_4 H 0.0104 0.0720 0.1949
C17_4 C 0.25479(16) 0.02658(16) 0.38341(18)
H14_4 H 0.2690 0.0082 0.4446
C20_4 C 0.18332(17) 0.07764(16) 0.3739(2)
H16_4 H 0.1506 0.0925 0.4274
C22_4 C 0.08070(16) 0.15903(15) 0.2681(3)
H18_4 H 0.0710 0.1929 0.3241
H19_4 H 0.0905 0.1946 0.2135
C23_4 C 0.21383(18) 0.08189(16) 0.2077(2)
H21_4 H 0.2018 0.1002 0.1460
C24_4 C 0.28380(15) 0.03059(15) 0.22348(17)
H22_4 H 0.3181 0.0151 0.1714
C25_4 C 0.16088(14) 0.10646(15) 0.2840(2)
N15_2 N 0.17148(10) 0.66362(10) 0.90690(11)
N6_4 N 0.69530(11) 0.00194(11) 0.18947(13)
N7_6 N 0.5000 0.1418(2) 0.2500
N8_6 N 0.5000 0.07221(17) 0.2500
C4_4 C 0.74521(16) 0.02658(16) 0.11659(18)
H3_4 H 0.7310 0.0082 0.0554
C7_4 C 0.81668(17) 0.07764(16) 0.1261(2)
H5_4 H 0.8494 0.0925 0.0726
C9_4 C 0.91930(16) 0.15903(15) 0.2319(3)
H7_4 H 0.9290 0.1929 0.1759
H8_4 H 0.9095 0.1946 0.2865
C10_6 C 1.0000 0.1068(2) 0.2500
C11_4 C 0.78617(18) 0.08189(16) 0.2923(2)
H10_4 H 0.7982 0.1002 0.3540
C12_4 C 0.71620(15) 0.03059(15) 0.27652(17)
H11_4 H 0.6819 0.0151 0.3286
C13_4 C 0.83912(14) 0.10646(15) 0.2160(2)
H20_4 H 0.9896 0.0720 0.3051
N1_4 N 0.46372(10) 0.85471(9) 0.13858(10)
N2_4 N 0.43439(10) 0.81579(10) 0.06066(11)
N5_4 N 0.32480(11) 0.83235(11) 0.16449(10)
C1_4 C 0.34899(12) 0.80310(11) 0.07904(12)
H2_4 H 0.0929 0.6802 0.0168
C6_4 C 0.28807(12) 0.75760(12) 0.01685(13)
C8_4 C 0.20354(13) 0.73912(14) 0.04953(13)
H6_4 H 0.1845 0.7583 0.1088
N14_4 N 0.67148(10) 0.83638(10) 0.09310(11)
C15_4 C 0.75171(13) 0.81593(13) 0.12524(14)
H12_4 H 0.7682 0.8338 0.1859
C16_4 C 0.64859(12) 0.80758(13) 0.00648(14)
C18_4 C 0.81122(13) 0.76988(14) 0.07359(13)
H15_4 H 0.8660 0.7575 0.0992
C2_4 C 0.25171(13) 0.68407(13) 0.87476(14)
H1_4 H 0.2682 0.6662 0.8141
C3_4 C 0.14859(12) 0.69242(13) 0.99352(14)
C5_4 C 0.31122(13) 0.73012(14) 0.92641(13)
H4_4 H 0.3660 0.7425 0.9008
N12_4 N 0.96372(10) 0.64529(9) 0.86142(10)
N13_4 N 0.93439(10) 0.68421(10) 0.93934(11)
N19_4 N 0.82480(11) 0.66765(11) 0.83551(10)
C14_4 C 0.84899(12) 0.69690(11) 0.92096(12)
H13_4 H 0.5929 0.8198 0.9832
C19_4 C 0.78807(12) 0.74240(12) 0.98315(13)
C21_4 C 0.70354(13) 0.76088(14) 0.95047(13)
H17_4 H 0.6845 0.7417 0.8912
loop_
_geom_bond_atom_site_label_1
_geom_bond_atom_site_label_2
_geom_bond_site_symmetry_1
_geom_bond_site_symmetry_2
N6 Co1 1_555 1_555
N7 N8 1_555 1_555
N8 N10 1_555 1_555
N9 Co1 1_555 1_555
N10 Co1 1_555 1_555
N11 N9 1_555 1_555
C4 N6 1_555 1_555
H3 C4 1_555 1_555
C7 C4 1_555 1_555
H5 C7 1_555 1_555
C9 H7 1_555 1_555
H8 C9 1_555 1_555
C10 C9 1_555 1_555
H9 C10 1_555 1_555
C11 H10 1_555 1_555
C12 N6 1_555 1_555
H11 C12 1_555 1_555
C13 C7 1_555 1_555
Co2 N12 1_555 1_555
Co5 N20 1_555 1_555
Co7 N16 1_555 1_555
N12 N13 1_555 1_555
N13 C14 1_555 1_555
N14 Co1 1_555 1_555
N15 Co2 1_555 1_555
N16 N12 1_555 1_555
N17 Co1 1_555 1_555
N18 Co2 1_555 1_555
N19 N16 1_555 1_555
N20 C17 1_555 1_555
N23 Co2 1_555 1_555
N24 Co2 1_555 1_555
C14 N19 1_555 1_555
C15 N14 1_555 1_555
H12 C15 1_555 1_555
C16 N14 1_555 1_555
H13 C16 1_555 1_555
C17 H14 1_555 1_555
C18 C15 1_555 1_555
H15 C18 1_555 1_555
C19 C14 1_555 1_555
C20 C17 1_555 1_555
H16 C20 1_555 1_555
C21 C16 1_555 1_555
H17 C21 1_555 1_555
C22 C10 1_555 1_555
H18 C22 1_555 1_555
H19 C22 1_555 1_555
H20 C10 1_555 1_555
C23 H21 1_555 1_555
C24 N20 1_555 1_555
H22 C24 1_555 1_555
C25 C20 1_555 1_555
C9 C13 1_555 1_555
C11 C12 1_555 1_555
C11 C13 1_555 1_555
Co7 N24 1_555 1_555
C18 C19 1_555 1_555
C19 C21 1_555 1_555
C22 C25 1_555 1_555
C23 C24 1_555 1_555
C23 C25 1_555 1_555
N1 N2 1_555 1_555
N2 C1 1_555 1_555
N15 C2 1_555 1_555
N4 N1 1_555 1_555
N5 N4 1_555 1_555
N7_2 N8_2 1_555 1_555
N8_2 N10_2 1_555 1_555
C1 N5 1_555 1_555
C2 H1 1_555 1_555
C3 N15 1_555 1_555
H2 C3 1_555 1_555
C5 C2 1_555 1_555
H4 C5 1_555 1_555
C6 C1 1_555 1_555
C8 C3 1_555 1_555
H6 C8 1_555 1_555
Co5 N4 1_555 1_555
Co6 N22 1_555 1_555
N22 N11_2 1_555 1_555
N10_2 Co5 1_555 1_555
C5 C6 1_555 1_555
C6 C8 1_555 1_555
N3 C2_2 1_555 1_555
C2_2 H1_2 1_555 1_555
C3_2 N3 1_555 1_555
C5_2 C2_2 1_555 1_555
H4_2 C5_2 1_555 1_555
Co5 N3 1_555 1_555
N12_2 N13_2 1_555 1_555
N13_2 C14_2 1_555 1_555
N17 N12_2 1_555 1_555
N19_2 N17 1_555 1_555
C14_2 N19_2 1_555 1_555
C19_2 C14_2 1_555 1_555
H17_2 C21_2 1_555 1_555
C19_2 C21_2 1_555 1_555
Co7 N1_2 1_555 1_555
N1_2 N2_2 1_555 1_555
N2_2 C1_2 1_555 1_555
N18 N1_2 1_555 1_555
N5_2 N18 1_555 1_555
N9_2 Co7 1_555 1_555
N11_4 N9_2 1_555 1_555
C1_2 N5_2 1_555 1_555
C6_2 C1_2 1_555 1_555
H6_2 C8_2 1_555 1_555
N14_2 Co7 1_555 1_555
C15_2 N14_2 1_555 1_555
H12_2 C15_2 1_555 1_555
C16_2 N14_2 1_555 1_555
C18_2 C15_2 1_555 1_555
H15_2 C18_2 1_555 1_555
C6_2 C8_2 1_555 1_555
Co6_2 N22_2 1_555 1_555
N22_2 N11_5 1_555 1_555
N7_3 N8_3 1_555 1_555
C4_2 N6_2 1_555 1_555
H3_2 C4_2 1_555 1_555
C7_2 C4_2 1_555 1_555
H5_2 C7_2 1_555 1_555
C9_2 H7_2 1_555 1_555
H8_2 C9_2 1_555 1_555
C10_2 C9_2 1_555 1_555
C11_2 H10_2 1_555 1_555
C12_2 N6_2 1_555 1_555
H11_2 C12_2 1_555 1_555
C13_2 C7_2 1_555 1_555
H20_2 C10_2 1_555 1_555
C9_2 C13_2 1_555 1_555
C11_2 C12_2 1_555 1_555
C11_2 C13_2 1_555 1_555
N23_2 Co5 1_555 1_555
H9_2 C10_3 1_555 1_555
N21 C17_2 1_555 1_555
C17_2 H14_2 1_555 1_555
C20_2 C17_2 1_555 1_555
H16_2 C20_2 1_555 1_555
C22_2 C10_3 1_555 1_555
H18_2 C22_2 1_555 1_555
H19_2 C22_2 1_555 1_555
C23_2 H21_2 1_555 1_555
C24_2 N21 1_555 1_555
H22_2 C24_2 1_555 1_555
C25_2 C20_2 1_555 1_555
C22_2 C25_2 1_555 1_555
C23_2 C24_2 1_555 1_555
C23_2 C25_2 1_555 1_555
Co6_3 N22_3 1_555 1_555
N22_3 N11_8 1_555 1_555
N11_9 N23_2 1_555 1_555
N11_11 N23 1_555 1_555
Co6_4 N22_4 1_555 1_555
N22_4 N11_12 1_555 1_555
N1_3 N2_3 1_555 1_555
N2_3 C1_3 1_555 1_555
N3_2 C2_3 1_555 1_555
N4_2 N1_3 1_555 1_555
N5_3 N4_2 1_555 1_555
N7_4 N8_4 1_555 1_555
N8_4 N10_3 1_555 1_555
C1_3 N5_3 1_555 1_555
C2_3 H1_3 1_555 1_555
C3_3 N3_2 1_555 1_555
H2_3 C3_3 1_555 1_555
C5_3 C2_3 1_555 1_555
H4_3 C5_3 1_555 1_555
C6_3 C1_3 1_555 1_555
C8_3 C3_3 1_555 1_555
H6_3 C8_3 1_555 1_555
Co6_4 N3_2 1_555 1_555
Co6_3 N4_2 1_555 1_555
N10_3 Co6_3 1_555 1_555
C5_3 C6_3 1_555 1_555
C6_3 C8_3 1_555 1_555
N6_3 Co6 1_555 1_555
N7_5 N8_5 1_555 1_555
N8_5 N10_4 1_555 1_555
N10_4 Co6 1_555 1_555
C4_3 N6_3 1_555 1_555
H3_3 C4_3 1_555 1_555
C7_3 C4_3 1_555 1_555
H5_3 C7_3 1_555 1_555
C9_3 H7_3 1_555 1_555
H8_3 C9_3 1_555 1_555
C10_4 C9_3 1_555 1_555
H9_3 C10_4 1_555 1_555
C11_3 H10_3 1_555 1_555
C12_3 N6_3 1_555 1_555
H11_3 C12_3 1_555 1_555
C13_3 C7_3 1_555 1_555
Co6_4 N12_3 1_555 1_555
Co6_3 N20_2 1_555 1_555
Co6_2 N16_2 1_555 1_555
N12_3 N13_3 1_555 1_555
N13_3 C14_3 1_555 1_555
N14_3 Co6 1_555 1_555
N16_2 N12_3 1_555 1_555
N17_2 Co6 1_555 1_555
N18_2 Co6_4 1_555 1_555
N19_3 N16_2 1_555 1_555
N20_2 C17_3 1_555 1_555
N24_2 Co6_4 1_555 1_555
C14_3 N19_3 1_555 1_555
C15_3 N14_3 1_555 1_555
H12_3 C15_3 1_555 1_555
C16_3 N14_3 1_555 1_555
H13_3 C16_3 1_555 1_555
C17_3 H14_3 1_555 1_555
C18_3 C15_3 1_555 1_555
H15_3 C18_3 1_555 1_555
C19_3 C14_3 1_555 1_555
C20_3 C17_3 1_555 1_555
H16_3 C20_3 1_555 1_555
C21_3 C16_3 1_555 1_555
H17_3 C21_3 1_555 1_555
C22_3 C10_4 1_555 1_555
H18_3 C22_3 1_555 1_555
H19_3 C22_3 1_555 1_555
H20_3 C10_4 1_555 1_555
C23_3 H21_3 1_555 1_555
C24_3 N20_2 1_555 1_555
H22_3 C24_3 1_555 1_555
C25_3 C20_3 1_555 1_555
C9_3 C13_3 1_555 1_555
C11_3 C12_3 1_555 1_555
C11_3 C13_3 1_555 1_555
Co6_2 N24_2 1_555 1_555
C18_3 C19_3 1_555 1_555
C19_3 C21_3 1_555 1_555
C22_3 C25_3 1_555 1_555
C23_3 C24_3 1_555 1_555
C23_3 C25_3 1_555 1_555
H9_4 C10_5 1_555 1_555
N21_2 C17_4 1_555 1_555
C17_4 H14_4 1_555 1_555
C20_4 C17_4 1_555 1_555
H16_4 C20_4 1_555 1_555
C22_4 C10_5 1_555 1_555
H18_4 C22_4 1_555 1_555
H19_4 C22_4 1_555 1_555
C23_4 H21_4 1_555 1_555
C24_4 N21_2 1_555 1_555
H22_4 C24_4 1_555 1_555
C25_4 C20_4 1_555 1_555
C22_4 C25_4 1_555 1_555
C23_4 C24_4 1_555 1_555
C23_4 C25_4 1_555 1_555
N15_2 Co6_3 1_555 1_555
N7_6 N8_6 1_555 1_555
C4_4 N6_4 1_555 1_555
H3_4 C4_4 1_555 1_555
C7_4 C4_4 1_555 1_555
H5_4 C7_4 1_555 1_555
C9_4 H7_4 1_555 1_555
H8_4 C9_4 1_555 1_555
C10_6 C9_4 1_555 1_555
C11_4 H10_4 1_555 1_555
C12_4 N6_4 1_555 1_555
H11_4 C12_4 1_555 1_555
C13_4 C7_4 1_555 1_555
H20_4 C10_6 1_555 1_555
C9_4 C13_4 1_555 1_555
C11_4 C12_4 1_555 1_555
C11_4 C13_4 1_555 1_555
Co6_2 N1_4 1_555 1_555
N1_4 N2_4 1_555 1_555
N2_4 C1_4 1_555 1_555
N18_2 N1_4 1_555 1_555
N5_4 N18_2 1_555 1_555
C1_4 N5_4 1_555 1_555
C6_4 C1_4 1_555 1_555
H6_4 C8_4 1_555 1_555
N14_4 Co6_2 1_555 1_555
C15_4 N14_4 1_555 1_555
H12_4 C15_4 1_555 1_555
C16_4 N14_4 1_555 1_555
C18_4 C15_4 1_555 1_555
H15_4 C18_4 1_555 1_555
C6_4 C8_4 1_555 1_555
N15_2 C2_4 1_555 1_555
C2_4 H1_4 1_555 1_555
C3_4 N15_2 1_555 1_555
C5_4 C2_4 1_555 1_555
H4_4 C5_4 1_555 1_555
N12_4 N13_4 1_555 1_555
N13_4 C14_4 1_555 1_555
N17_2 N12_4 1_555 1_555
N19_4 N17_2 1_555 1_555
C14_4 N19_4 1_555 1_555
C19_4 C14_4 1_555 1_555
H17_4 C21_4 1_555 1_555
C19_4 C21_4 1_555 1_555

#END
