
###############################################################################
#
# This file contains modified crystal structure data generated from the
# MOF subset of the Cambridge Structural Database (CSD) v543 
# hosted by the Cambridge Crystallographic Data Centre (CCDC).
#
# This work is licensed under the Creative Commons
# Attribution-NonCommercial-ShareAlike 4.0 International License.
# To view a copy of this license, visit
# http://creativecommons.org/licenses/by-nc-sa/4.0/
# or send a letter to
# Creative Commons, PO Box 1866, Mountain View, CA 94042, USA.
#
# CIF created using the CSD Python API on 29 September 2022
# The structure has been converted into the P1 space group
# The structure has a 3D framework
# The original CSD entry QEHZIP is in the trigonal crystal system
# The original CSD entry QEHZIP is in a Sohncke space group
# The framework has been calculated to contain at least 10.0% void space
# The void calculation uses a probe of radius 1.32A, grid spacing 0.4
#
###############################################################################

data_QEHZIP
_chemical_formula_moiety         '(C42 H18 O18 Zn4)n'
_symmetry_cell_setting           triclinic
_symmetry_space_group_name_H-M   'P 1'
_symmetry_Int_Tables_number      1
_space_group_name_Hall           'P 1'
loop_
_symmetry_equiv_pos_site_id
_symmetry_equiv_pos_as_xyz
1 x,y,z
_cell_length_a                   21.6818(7)
_cell_length_b                   21.6818(7)
_cell_length_c                   6.8741(3)
_cell_angle_alpha                90
_cell_angle_beta                 90
_cell_angle_gamma                120
_cell_volume                     2798.58
loop_
_atom_site_label
_atom_site_type_symbol
_atom_site_fract_x
_atom_site_fract_y
_atom_site_fract_z
O4 O 0.58399(12) 0.23953(8) 0.6278(2)
O5 O 0.64928(11) 0.28653(8) 0.2734(2)
O6 O 0.61872(12) 0.20695(8) 0.0343(2)
C8 C 0.55520(15) 0.17596(10) 0.5412(3)
C9 C 0.56515(15) 0.16528(10) 0.3419(3)
C10 C 0.52931(16) 0.09566(10) 0.2656(3)
H4 H 0.536163 0.089114 0.132263
C11 C 0.48447(17) 0.03616(11) 0.3756(3)
C12 C 0.47638(18) 0.04731(11) 0.5737(3)
H5 H 0.446802 0.007662 0.653855
C13 C 0.51087(18) 0.11519(11) 0.6539(3)
H6 H 0.504451 0.120885 0.788016
C14 C 0.61396(14) 0.22362(10) 0.2072(3)
Zn2 Zn 0.60822(3) 0.33057(2) 0.48058(3)
Zn7 Zn 0.66943(2) 0.27765(2) 0.81391(3)
Zn8 Zn 0.72235(2) 0.39178(3) 0.14724(3)
O8 O 0.65554(9) 0.41601(12) 0.2944(2)
O10 O 0.71347(8) 0.36275(8) 0.6067(2)
O12 O 0.58823(9) 0.38128(12) 0.7009(2)
Zn1 Zn 0.27765(2) 0.66943(2) 0.18609(3)
O1 O 0.34446(9) 0.76047(8) 0.0389(2)
O2 O 0.36275(8) 0.71347(8) 0.3933(2)
O3 O 0.41177(9) 0.79305(8) 0.6324(2)
C1 C 0.37924(11) 0.82404(10) 0.1255(3)
C2 C 0.39987(11) 0.83472(10) 0.3248(3)
C3 C 0.43365(12) 0.90434(10) 0.4011(3)
H1 H 0.447049 0.910886 0.534404
C4 C 0.44831(13) 0.96384(11) 0.2911(3)
C5 C 0.42907(14) 0.95269(11) 0.0930(3)
H2 H 0.439140 0.992338 0.012812
C6 C 0.39568(14) 0.88481(11) 0.0128(3)
C7 C 0.39034(10) 0.77638(10) 0.4595(3)
Zn3 Zn 0.33057(2) 0.60822(3) 0.51942(3)
Zn5 Zn 0.39178(3) 0.72235(2) 0.85276(3)
O7 O 0.23953(8) 0.58399(12) 0.3722(2)
O9 O 0.35072(11) 0.63725(8) 0.0600(2)
H3 H 0.383566 0.879115 0.878651
O11 O 0.20695(8) 0.61872(12) 0.9657(2)
O2_2 O 0.28653(8) 0.64928(11) 0.7266(2)
C1_2 C 0.17596(10) 0.55520(15) 0.4588(3)
C2_2 C 0.16528(10) 0.56515(15) 0.6581(3)
C3_2 C 0.09566(10) 0.52931(16) 0.7344(3)
H1_2 H 0.089114 0.536163 0.867737
C4_2 C 0.03616(11) 0.48447(17) 0.6244(3)
C5_2 C 0.04731(11) 0.47638(18) 0.4263(3)
H2_2 H 0.007662 0.446802 0.346145
C6_2 C 0.11519(11) 0.51087(18) 0.3461(3)
H3_2 H 0.120885 0.504451 0.211984
C7_2 C 0.22362(10) 0.61396(14) 0.7928(3)
O7_2 O 0.41601(12) 0.65554(14) 0.7056(2)
O11_2 O 0.38128(12) 0.58823(14) 0.2991(2)
H6_2 H 0.879115 0.383566 0.121349
O4_2 O 0.76047(8) 0.34446(14) 0.9611(2)
O6_2 O 0.79305(8) 0.41177(14) 0.3676(2)
C8_2 C 0.82404(10) 0.37924(18) 0.8745(3)
C9_2 C 0.83472(10) 0.39987(18) 0.6752(3)
C10_2 C 0.90434(10) 0.43365(19) 0.5989(3)
H4_2 H 0.910886 0.447049 0.465596
C11_2 C 0.96384(11) 0.44831(20) 0.7089(3)
C12_2 C 0.95269(11) 0.42907(21) 0.9070(3)
H5_2 H 0.992338 0.439140 0.987188
C13_2 C 0.88481(11) 0.39568(21) 0.9872(3)
C14_2 C 0.77638(10) 0.39034(17) 0.5405(3)
O10_2 O 0.63725(8) 0.35072(11) 0.9400(2)
C3_3 C 0.47069(16) 0.56635(12) 0.0678(3)
H1_3 H 0.463837 0.552951 0.201071
C7_3 C 0.38604(14) 0.60966(10) 0.1262(3)
C8_3 C 0.62076(18) 0.44480(15) 0.2078(3)
C9_3 C 0.60013(18) 0.43485(15) 0.0085(3)
C11_3 C 0.55169(20) 0.51553(17) 0.0422(3)
C12_3 C 0.57093(21) 0.52362(18) 0.2403(3)
H5_3 H 0.560860 0.553198 0.320521
C13_3 C 0.60432(21) 0.48913(18) 0.3205(3)
H6_3 H 0.616434 0.495549 0.454682
C1_3 C 0.44480(15) 0.62076(11) 0.7922(3)
C2_3 C 0.43485(15) 0.60013(11) 0.9915(3)
C4_3 C 0.51553(17) 0.55169(13) 0.9578(3)
C5_3 C 0.52362(18) 0.57093(14) 0.7597(3)
H2_3 H 0.553198 0.560860 0.679479
C6_3 C 0.48913(18) 0.60432(14) 0.6795(3)
H3_3 H 0.495549 0.616434 0.545318
C10_3 C 0.56635(19) 0.47069(16) 0.9322(3)
H4_3 H 0.552951 0.463837 0.798929
C14_3 C 0.60966(17) 0.38604(14) 0.8738(3)
loop_
_geom_bond_atom_site_label_1
_geom_bond_atom_site_label_2
_geom_bond_site_symmetry_1
_geom_bond_site_symmetry_2
O4 C8 1_555 1_555
O5 C14 1_555 1_555
O6 C14 1_555 1_555
C8 C9 1_555 1_555
C9 C10 1_555 1_555
C10 H4 1_555 1_555
C12 C11 1_555 1_555
H5 C12 1_555 1_555
C13 C8 1_555 1_555
H6 C13 1_555 1_555
C14 C9 1_555 1_555
Zn2 O4 1_555 1_555
Zn7 O4 1_555 1_555
Zn8 O5 1_555 1_555
O8 Zn2 1_555 1_555
O10 Zn2 1_555 1_555
O12 Zn2 1_555 1_555
O5 Zn2 1_555 1_555
C10 C11 1_555 1_555
C12 C13 1_555 1_555
Zn7 O10 1_555 1_555
Zn8 O8 1_555 1_555
Zn1 O1 1_555 1_555
O1 C1 1_555 1_555
O2 Zn1 1_555 1_555
O3 C7 1_555 1_555
C1 C2 1_555 1_555
C2 C3 1_555 1_555
C3 H1 1_555 1_555
C4 C3 1_555 1_555
C5 C4 1_555 1_555
H2 C5 1_555 1_555
C6 C1 1_555 1_555
C7 O2 1_555 1_555
Zn3 O2 1_555 1_555
Zn5 O3 1_555 1_555
O7 Zn1 1_555 1_555
O9 Zn1 1_555 1_555
C2 C7 1_555 1_555
C5 C6 1_555 1_555
Zn3 O7 1_555 1_555
O7 C1_2 1_555 1_555
O2_2 Zn3 1_555 1_555
O11 C7_2 1_555 1_555
C1_2 C2_2 1_555 1_555
C2_2 C3_2 1_555 1_555
C3_2 H1_2 1_555 1_555
C4_2 C3_2 1_555 1_555
C5_2 C4_2 1_555 1_555
H2_2 C5_2 1_555 1_555
C6_2 C1_2 1_555 1_555
H3_2 C6_2 1_555 1_555
C7_2 O2_2 1_555 1_555
Zn5 O2_2 1_555 1_555
O7_2 Zn3 1_555 1_555
O11_2 Zn3 1_555 1_555
C2_2 C7_2 1_555 1_555
C5_2 C6_2 1_555 1_555
Zn5 O7_2 1_555 1_555
O4_2 C8_2 1_555 1_555
O10 C14_2 1_555 1_555
O6_2 C14_2 1_555 1_555
C8_2 C9_2 1_555 1_555
C9_2 C10_2 1_555 1_555
C10_2 H4_2 1_555 1_555
C12_2 C11_2 1_555 1_555
H5_2 C12_2 1_555 1_555
C13_2 C8_2 1_555 1_555
C14_2 C9_2 1_555 1_555
Zn7 O4_2 1_555 1_555
Zn8 O6_2 1_555 1_555
O10_2 Zn7 1_555 1_555
C10_2 C11_2 1_555 1_555
C12_2 C13_2 1_555 1_555
O11_2 C7_3 1_555 1_555
C3_3 H1_3 1_555 1_555
C7_3 O9 1_555 1_555
O8 C8_3 1_555 1_555
C8_3 C9_3 1_555 1_555
C12_3 C11_3 1_555 1_555
H5_3 C12_3 1_555 1_555
C13_3 C8_3 1_555 1_555
H6_3 C13_3 1_555 1_555
C12_3 C13_3 1_555 1_555
O7_2 C1_3 1_555 1_555
C1_3 C2_3 1_555 1_555
C5_3 C4_3 1_555 1_555
H2_3 C5_3 1_555 1_555
C6_3 C1_3 1_555 1_555
H3_3 C6_3 1_555 1_555
O10_2 C14_3 1_555 1_555
O12 C14_3 1_555 1_555
C10_3 H4_3 1_555 1_555
C5_3 C6_3 1_555 1_555

#END
