
###############################################################################
#
# This file contains modified crystal structure data generated from the
# MOF subset of the Cambridge Structural Database (CSD) v543 
# hosted by the Cambridge Crystallographic Data Centre (CCDC).
#
# This work is licensed under the Creative Commons
# Attribution-NonCommercial-ShareAlike 4.0 International License.
# To view a copy of this license, visit
# http://creativecommons.org/licenses/by-nc-sa/4.0/
# or send a letter to
# Creative Commons, PO Box 1866, Mountain View, CA 94042, USA.
#
# CIF created using the CSD Python API on 29 September 2022
# The structure has been converted into the P1 space group
# The structure has a 3D framework
# The original CSD entry QEJBEP is in the trigonal crystal system
# The original CSD entry QEJBEP is in a Sohncke space group
# The framework has been calculated to contain at least 10.0% void space
# The void calculation uses a probe of radius 1.32A, grid spacing 0.4
#
###############################################################################

data_QEJBEP
_chemical_formula_moiety         '(C66 H72 N6 O22 Zn6)n'
_symmetry_cell_setting           triclinic
_symmetry_space_group_name_H-M   'P 1'
_symmetry_Int_Tables_number      1
_space_group_name_Hall           'P 1'
loop_
_symmetry_equiv_pos_site_id
_symmetry_equiv_pos_as_xyz
1 x,y,z
_cell_length_a                   21.5292(11)
_cell_length_b                   21.5292(11)
_cell_length_c                   6.6937(4)
_cell_angle_alpha                90
_cell_angle_beta                 90
_cell_angle_gamma                120
_cell_volume                     2686.91
loop_
_atom_site_label
_atom_site_type_symbol
_atom_site_fract_x
_atom_site_fract_y
_atom_site_fract_z
Zn4 Zn 0.39110(3) 0.66707(4) 0.01974(5)
Zn1 Zn 0.27597(2) 0.60890(3) 0.35307(5)
O1 O 0.33761(16) 0.57825(17) 0.1991(4)
O2 O 0.36076(15) 0.64584(16) 0.5601(4)
O3 O 0.41279(17) 0.61675(17) 0.7998(4)
O4 O 0.2206(2) 0.51074(19) 0.5030(5)
N1 N 0.1604(4) 0.4393(4) 0.7590(13)
C1 C 0.3692(2) 0.5462(2) 0.2867(6)
C2 C 0.3927(2) 0.5577(2) 0.4889(5)
C3 C 0.4244(2) 0.5197(2) 0.5677(5)
H1 H 0.439259 0.527322 0.703432
C4 C 0.4349(2) 0.4716(2) 0.4557(6)
C5 C 0.4118(3) 0.4604(3) 0.2569(6)
H2 H 0.418228 0.427553 0.176910
C6 C 0.3796(3) 0.4965(3) 0.1751(6)
H3 H 0.364109 0.487470 0.039999
C7 C 0.3878(2) 0.6101(2) 0.6247(6)
C8 C 0.1647(4) 0.4697(4) 0.5786(12)
C9 C 0.0953(5) 0.4517(5) 0.4785(16)
H4 H 0.103517 0.489778 0.383858
H5 H 0.060434 0.447367 0.579441
H6 H 0.076781 0.406133 0.406716
C10 C 0.2331(4) 0.4672(5) 0.8764(10)
H7 H 0.272516 0.481444 0.781039
H8 H 0.229888 0.428832 0.962496
H9 H 0.242136 0.508518 0.958578
C11 C 0.0946(8) 0.3954(7) 0.8676(19)
H10 H 0.077825 0.425971 0.926652
H11 H 0.103428 0.369359 0.973878
H12 H 0.058104 0.360951 0.776093
O5 O 0.57825(17) 0.33761(16) 0.8009(4)
O6 O 0.64584(16) 0.36076(15) 0.4399(4)
O7 O 0.61675(17) 0.41279(17) 0.2002(4)
C12 C 0.5462(2) 0.3692(2) 0.7133(6)
C13 C 0.5577(2) 0.3927(2) 0.5111(5)
C14 C 0.5197(2) 0.4244(2) 0.4323(5)
H13 H 0.527322 0.439259 0.296568
C15 C 0.4716(2) 0.4349(2) 0.5443(6)
C16 C 0.4604(3) 0.4118(3) 0.7431(6)
H14 H 0.427553 0.418228 0.823090
C17 C 0.4965(3) 0.3796(3) 0.8249(6)
H15 H 0.487470 0.364109 0.960001
C18 C 0.6101(2) 0.3878(2) 0.3753(6)
Zn2 Zn 0.60890(3) 0.27597(2) 0.64693(5)
O8 O 0.51074(19) 0.2206(2) 0.4970(5)
N2 N 0.4393(4) 0.1604(4) 0.2410(13)
C19 C 0.4697(4) 0.1647(4) 0.4214(12)
C20 C 0.4517(5) 0.0953(5) 0.5215(16)
H16 H 0.489778 0.103517 0.616142
H17 H 0.447367 0.060434 0.420559
H18 H 0.406133 0.076781 0.593284
C21 C 0.4672(5) 0.2331(4) 0.1236(10)
H19 H 0.481444 0.272516 0.218961
H20 H 0.428832 0.229888 0.037504
H21 H 0.508518 0.242136 0.041422
C22 C 0.3954(7) 0.0946(8) 0.1324(19)
H22 H 0.425971 0.077825 0.073348
H23 H 0.369359 0.103428 0.026122
H24 H 0.360951 0.058104 0.223907
Zn5 Zn 0.33293(4) 0.72403(2) 0.68640(5)
Zn7 Zn 0.66707(4) 0.39110(3) 0.98026(5)
Zn8 Zn 0.72403(2) 0.33293(4) 0.31360(5)
O9 O 0.24064(23) 0.66239(16) 0.5324(4)
O10 O 0.66239(16) 0.24064(23) 0.4676(4)
O11 O 0.35416(16) 0.71492(22) 0.2268(4)
O12 O 0.71492(22) 0.35416(16) 0.7732(4)
O13 O 0.20396(24) 0.58721(17) 0.1331(4)
O14 O 0.58721(17) 0.20396(24) 0.8669(4)
O6_2 O 0.63924(15) 0.28508(22) 0.1066(4)
C12_2 C 0.6308(2) 0.1770(3) 0.3800(6)
C13_2 C 0.6073(2) 0.1650(3) 0.1778(5)
C14_2 C 0.5756(2) 0.0953(3) 0.0990(5)
C15_2 C 0.5651(2) 0.0367(3) 0.2110(6)
C16_2 C 0.5882(3) 0.0486(4) 0.4098(6)
H14_2 H 0.581772 0.009325 0.489757
C17_2 C 0.6204(3) 0.1169(4) 0.4916(6)
H15_2 H 0.635891 0.123361 0.626668
C18_2 C 0.6122(2) 0.2223(3) 0.0420(6)
O8_2 O 0.7794(2) 0.29014(28) 0.1637(5)
C19_2 C 0.8353(4) 0.3050(6) 0.0881(12)
C20_2 C 0.9047(5) 0.3564(7) 0.1882(16)
H16_2 H 0.896483 0.386261 0.282809
H17_2 H 0.939566 0.386933 0.087226
H18_2 H 0.923219 0.329352 0.259951
O10_2 O 0.75936(23) 0.42175(28) 0.1342(4)
O14_2 O 0.79604(24) 0.38325(29) 0.5335(4)
H13_2 H 0.560741 0.088063 0.963235
N2_2 N 0.8396(4) 0.2789(6) 0.9077(13)
C21_2 C 0.7669(4) 0.2341(6) 0.7903(10)
H19_2 H 0.727484 0.208928 0.885628
H20_2 H 0.770112 0.198944 0.704171
H21_2 H 0.757864 0.266382 0.708089
C22_2 C 0.9054(8) 0.3008(11) 0.7991(19)
H22_2 H 0.922175 0.348146 0.740015
H23_2 H 0.896572 0.265931 0.692789
H24_2 H 0.941896 0.302847 0.890574
O3_2 O 0.38325(17) 0.79604(24) 0.4665(4)
O4_2 O 0.48926(19) 0.70986(28) 0.1697(5)
N1_2 N 0.5607(4) 0.7211(6) 0.4257(13)
C2_2 C 0.4423(2) 0.8350(3) 0.1556(5)
C3_2 C 0.4803(2) 0.9047(3) 0.2344(5)
H1_2 H 0.472678 0.911937 0.370099
C4_2 C 0.5284(2) 0.9633(3) 0.1224(6)
C7_2 C 0.3899(2) 0.7777(3) 0.2914(6)
C8_2 C 0.5303(4) 0.6950(6) 0.2453(12)
C9_2 C 0.5483(5) 0.6436(7) 0.1452(16)
H4_2 H 0.510222 0.613739 0.050525
H5_2 H 0.552633 0.613067 0.246108
H6_2 H 0.593867 0.670648 0.073383
C10_2 C 0.5328(5) 0.7659(6) 0.5431(10)
H7_2 H 0.518556 0.791072 0.447706
H8_2 H 0.571168 0.801056 0.629163
H9_2 H 0.491482 0.733618 0.625245
C11_2 C 0.6046(7) 0.6992(11) 0.5343(19)
H10_2 H 0.574029 0.651854 0.593319
H11_2 H 0.630641 0.734069 0.640545
H12_2 H 0.639049 0.697153 0.442760
O1_2 O 0.42175(17) 0.75936(23) 0.8658(4)
C1_2 C 0.4538(2) 0.8230(3) 0.9534(6)
C5_2 C 0.5396(3) 0.9514(4) 0.9236(6)
H2_2 H 0.572447 0.990675 0.843577
C6_2 C 0.5035(3) 0.8831(4) 0.8418(6)
H3_2 H 0.512530 0.876639 0.706666
O11_2 O 0.28508(22) 0.63924(27) 0.8934(4)
N1_3 N 0.2789(6) 0.8396(4) 0.0923(13)
H1_3 H 0.088063 0.560741 0.036765
C10_3 C 0.2341(6) 0.7669(4) 0.2097(10)
H7_3 H 0.208928 0.727484 0.114372
H8_3 H 0.198944 0.770112 0.295829
H9_3 H 0.266382 0.757864 0.291911
C11_3 C 0.3008(11) 0.9054(8) 0.2009(19)
H10_3 H 0.348146 0.922175 0.259985
H11_3 H 0.265931 0.896572 0.307211
H12_3 H 0.302847 0.941896 0.109426
O4_3 O 0.29014(28) 0.7794(2) 0.8363(5)
C1_3 C 0.1770(3) 0.6308(2) 0.6200(6)
C2_3 C 0.1650(3) 0.6073(2) 0.8222(5)
C3_3 C 0.0953(3) 0.5756(2) 0.9010(5)
C4_3 C 0.0367(3) 0.5651(2) 0.7890(6)
C5_3 C 0.0486(4) 0.5882(3) 0.5902(6)
H2_3 H 0.009325 0.581772 0.510243
C6_3 C 0.1169(4) 0.6204(3) 0.5084(6)
H3_3 H 0.123361 0.635891 0.373332
C7_3 C 0.2223(3) 0.6122(2) 0.9580(6)
C8_3 C 0.3050(6) 0.8353(4) 0.9119(12)
C9_3 C 0.3564(7) 0.9047(5) 0.8118(16)
H4_3 H 0.386261 0.896483 0.717191
H5_3 H 0.386933 0.939566 0.912774
H6_3 H 0.329352 0.923219 0.740049
C12_3 C 0.8230(3) 0.4538(2) 0.0466(6)
C16_3 C 0.9514(4) 0.5396(3) 0.0764(6)
H14_3 H 0.990675 0.572447 0.156423
C17_3 C 0.8831(4) 0.5035(3) 0.1582(6)
H15_3 H 0.876639 0.512530 0.293334
C13_3 C 0.8350(3) 0.4423(2) 0.8444(5)
C14_3 C 0.9047(3) 0.4803(2) 0.7656(5)
H13_3 H 0.911937 0.472678 0.629901
C15_3 C 0.9633(3) 0.5284(2) 0.8776(6)
C18_3 C 0.7777(3) 0.3899(2) 0.7086(6)
O8_3 O 0.70986(28) 0.48926(19) 0.8303(5)
N2_3 N 0.7211(6) 0.5607(4) 0.5743(13)
C19_3 C 0.6950(6) 0.5303(4) 0.7547(12)
C20_3 C 0.6436(7) 0.5483(5) 0.8548(16)
H16_3 H 0.613739 0.510222 0.949475
H17_3 H 0.613067 0.552633 0.753892
H18_3 H 0.670648 0.593867 0.926617
C21_3 C 0.7659(6) 0.5328(5) 0.4569(10)
H19_3 H 0.791072 0.518556 0.552294
H20_3 H 0.801056 0.571168 0.370837
H21_3 H 0.733618 0.491482 0.374755
C22_3 C 0.6992(11) 0.6046(7) 0.4657(19)
H22_3 H 0.651854 0.574029 0.406681
H23_3 H 0.734069 0.630641 0.359455
H24_3 H 0.697153 0.639049 0.557240
loop_
_geom_bond_atom_site_label_1
_geom_bond_atom_site_label_2
_geom_bond_site_symmetry_1
_geom_bond_site_symmetry_2
Zn1 O1 1_555 1_555
O1 C1 1_555 1_555
O2 Zn1 1_555 1_555
O3 C7 1_555 1_555
O4 Zn1 1_555 1_555
N1 C8 1_555 1_555
C1 C2 1_555 1_555
C2 C3 1_555 1_555
C3 H1 1_555 1_555
C4 C3 1_555 1_555
C5 C4 1_555 1_555
H2 C5 1_555 1_555
C6 C1 1_555 1_555
H3 C6 1_555 1_555
C7 O2 1_555 1_555
C8 O4 1_555 1_555
C9 C8 1_555 1_555
H4 C9 1_555 1_555
H5 C9 1_555 1_555
H6 C9 1_555 1_555
C10 N1 1_555 1_555
H7 C10 1_555 1_555
H8 C10 1_555 1_555
H9 C10 1_555 1_555
C11 N1 1_555 1_555
H10 C11 1_555 1_555
H11 C11 1_555 1_555
H12 C11 1_555 1_555
O5 C12 1_555 1_555
O6 C18 1_555 1_555
O7 C18 1_555 1_555
C12 C13 1_555 1_555
C13 C14 1_555 1_555
C14 H13 1_555 1_555
C15 C4 1_555 1_555
C16 C15 1_555 1_555
H14 C16 1_555 1_555
C17 C12 1_555 1_555
H15 C17 1_555 1_555
C18 C13 1_555 1_555
Zn2 O5 1_555 1_555
O8 Zn2 1_555 1_555
N2 C19 1_555 1_555
C19 O8 1_555 1_555
C20 C19 1_555 1_555
H16 C20 1_555 1_555
H17 C20 1_555 1_555
H18 C20 1_555 1_555
C21 N2 1_555 1_555
H19 C21 1_555 1_555
H20 C21 1_555 1_555
H21 C21 1_555 1_555
C22 N2 1_555 1_555
H22 C22 1_555 1_555
H23 C22 1_555 1_555
H24 C22 1_555 1_555
Zn4 O1 1_555 1_555
Zn5 O2 1_555 1_555
Zn7 O5 1_555 1_555
Zn8 O6 1_555 1_555
O9 Zn1 1_555 1_555
O10 Zn2 1_555 1_555
O11 Zn1 1_555 1_555
O12 Zn2 1_555 1_555
O13 Zn1 1_555 1_555
O14 Zn2 1_555 1_555
C2 C7 1_555 1_555
C5 C6 1_555 1_555
O6 Zn2 1_555 1_555
C14 C15 1_555 1_555
C16 C17 1_555 1_555
Zn4 O11 1_555 1_555
Zn5 O9 1_555 1_555
Zn7 O12 1_555 1_555
Zn8 O10 1_555 1_555
O10 C12_2 1_555 1_555
O6_2 C18_2 1_555 1_555
C12_2 C13_2 1_555 1_555
C13_2 C14_2 1_555 1_555
C16_2 C15_2 1_555 1_555
H14_2 C16_2 1_555 1_555
C17_2 C12_2 1_555 1_555
H15_2 C17_2 1_555 1_555
C18_2 C13_2 1_555 1_555
O8_2 Zn8 1_555 1_555
C19_2 O8_2 1_555 1_555
C20_2 C19_2 1_555 1_555
H16_2 C20_2 1_555 1_555
H17_2 C20_2 1_555 1_555
H18_2 C20_2 1_555 1_555
O10_2 Zn8 1_555 1_555
O14_2 Zn8 1_555 1_555
O6_2 Zn8 1_555 1_555
C14_2 C15_2 1_555 1_555
C16_2 C17_2 1_555 1_555
C21_2 N2_2 1_555 1_555
H19_2 C21_2 1_555 1_555
H20_2 C21_2 1_555 1_555
H21_2 C21_2 1_555 1_555
C22_2 N2_2 1_555 1_555
H22_2 C22_2 1_555 1_555
H23_2 C22_2 1_555 1_555
H24_2 C22_2 1_555 1_555
O3_2 C7_2 1_555 1_555
O4_2 Zn4 1_555 1_555
N1_2 C8_2 1_555 1_555
C2_2 C3_2 1_555 1_555
C3_2 H1_2 1_555 1_555
C4_2 C3_2 1_555 1_555
C7_2 O11 1_555 1_555
C8_2 O4_2 1_555 1_555
C9_2 C8_2 1_555 1_555
H4_2 C9_2 1_555 1_555
H5_2 C9_2 1_555 1_555
H6_2 C9_2 1_555 1_555
C10_2 N1_2 1_555 1_555
H7_2 C10_2 1_555 1_555
H8_2 C10_2 1_555 1_555
H9_2 C10_2 1_555 1_555
C11_2 N1_2 1_555 1_555
H10_2 C11_2 1_555 1_555
H11_2 C11_2 1_555 1_555
H12_2 C11_2 1_555 1_555
Zn5 O3_2 1_555 1_555
C2_2 C7_2 1_555 1_555
O1_2 C1_2 1_555 1_555
H2_2 C5_2 1_555 1_555
C6_2 C1_2 1_555 1_555
H3_2 C6_2 1_555 1_555
Zn5 O1_2 1_555 1_555
C5_2 C6_2 1_555 1_555
Zn5 O11_2 1_555 1_555
C10_3 N1_3 1_555 1_555
H7_3 C10_3 1_555 1_555
H8_3 C10_3 1_555 1_555
H9_3 C10_3 1_555 1_555
C11_3 N1_3 1_555 1_555
H10_3 C11_3 1_555 1_555
H11_3 C11_3 1_555 1_555
H12_3 C11_3 1_555 1_555
O9 C1_3 1_555 1_555
O4_3 Zn5 1_555 1_555
C1_3 C2_3 1_555 1_555
C2_3 C3_3 1_555 1_555
C4_3 C3_3 1_555 1_555
C5_3 C4_3 1_555 1_555
H2_3 C5_3 1_555 1_555
C6_3 C1_3 1_555 1_555
H3_3 C6_3 1_555 1_555
C7_3 O11_2 1_555 1_555
C8_3 O4_3 1_555 1_555
C9_3 C8_3 1_555 1_555
H4_3 C9_3 1_555 1_555
H5_3 C9_3 1_555 1_555
H6_3 C9_3 1_555 1_555
C2_3 C7_3 1_555 1_555
C5_3 C6_3 1_555 1_555
O10_2 C12_3 1_555 1_555
H14_3 C16_3 1_555 1_555
C17_3 C12_3 1_555 1_555
H15_3 C17_3 1_555 1_555
C16_3 C17_3 1_555 1_555
O12 C18_3 1_555 1_555
O14_2 C18_3 1_555 1_555
C13_3 C14_3 1_555 1_555
C14_3 H13_3 1_555 1_555
C18_3 C13_3 1_555 1_555
O8_3 Zn7 1_555 1_555
N2_3 C19_3 1_555 1_555
C19_3 O8_3 1_555 1_555
C20_3 C19_3 1_555 1_555
H16_3 C20_3 1_555 1_555
H17_3 C20_3 1_555 1_555
H18_3 C20_3 1_555 1_555
C21_3 N2_3 1_555 1_555
H19_3 C21_3 1_555 1_555
H20_3 C21_3 1_555 1_555
H21_3 C21_3 1_555 1_555
C22_3 N2_3 1_555 1_555
H22_3 C22_3 1_555 1_555
H23_3 C22_3 1_555 1_555
H24_3 C22_3 1_555 1_555
C14_3 C15_3 1_555 1_555

#END
