
###############################################################################
#
# This file contains modified crystal structure data generated from the
# MOF subset of the Cambridge Structural Database (CSD) v543 
# hosted by the Cambridge Crystallographic Data Centre (CCDC).
#
# This work is licensed under the Creative Commons
# Attribution-NonCommercial-ShareAlike 4.0 International License.
# To view a copy of this license, visit
# http://creativecommons.org/licenses/by-nc-sa/4.0/
# or send a letter to
# Creative Commons, PO Box 1866, Mountain View, CA 94042, USA.
#
# CIF created using the CSD Python API on 29 September 2022
# The structure has been converted into the P1 space group
# The structure has a 3D framework
# The original CSD entry QEMFIA03 is in the orthorhombic crystal system
# The framework has been calculated to contain at least 10.0% void space
# The void calculation uses a probe of radius 1.32A, grid spacing 0.4
#
###############################################################################

data_QEMFIA03
_chemical_formula_moiety         '(C127 H72 Fe10 N69 Pt16)n'
_symmetry_cell_setting           triclinic
_symmetry_space_group_name_H-M   'P 1'
_symmetry_Int_Tables_number      1
_space_group_name_Hall           'P 1'
loop_
_symmetry_equiv_pos_site_id
_symmetry_equiv_pos_as_xyz
1 x,y,z
_cell_length_a                   27.3734(7)
_cell_length_b                   28.6387(9)
_cell_length_c                   7.1961(2)
_cell_angle_alpha                90
_cell_angle_beta                 90
_cell_angle_gamma                90
_cell_volume                     5641.3
loop_
_atom_site_label
_atom_site_type_symbol
_atom_site_fract_x
_atom_site_fract_y
_atom_site_fract_z
Fe8 Fe -0.0000 0.0000 0.5000
Pt6 Pt 0.37413(2) 0.46497(2) 0.0000
Fe2 Fe 0.5000 0.5000 0.5000
N6 N 0.4449(2) 0.5100(2) 0.2908(9)
C7 C 0.4174(3) 0.4939(2) 0.1876(10)
N31 N 0.3017(2) 0.43042(18) 0.3082(8)
C59 C 0.3301(2) 0.4392(2) 0.1945(10)
N35 N 0.4449(2) 0.5100(2) 0.7092(9)
C63 C 0.4174(3) 0.4939(2) 0.8124(10)
Pt6_2 Pt 0.37413(2) 0.46497(2) 1.0000
Pt8 Pt 0.12609(2) 0.46797(2) 0.0000
Fe10 Fe 0.25255(5) 0.43797(5) 0.5000
N40 N 0.4824(3) 0.4260(3) 0.5000
N41 N 0.5176(3) 0.5740(3) 0.5000
N42 N 0.5551(2) 0.4900(2) 0.2908(9)
N43 N 0.5551(2) 0.4900(2) 0.7092(9)
N2 N 0.3017(2) 0.43042(18) 0.6918(8)
N3 N 0.2305(3) 0.0072(3) 0.5000
N7 N 0.2352(3) 0.3703(3) 0.5000
N8 N 0.2045(2) 0.44930(18) 0.3100(8)
N9 N 0.2237(3) 0.1892(3) 0.5000
C1 C 0.1756(2) 0.4559(2) 0.1960(10)
C2 C 0.2091(4) 0.2757(3) 0.5000
C5 C 0.1714(4) 0.0681(3) 0.5000
H2 H 0.1379 0.0768 0.5000
C6 C 0.1840(3) 0.0216(3) 0.5000
C8 C 0.2659(4) 0.0404(3) 0.5000
H4 H 0.2992 0.0309 0.5000
C9 C 0.2068(4) 0.1023(3) 0.5000
C11 C 0.3301(2) 0.4392(2) 0.8055(10)
C12 C 0.1947(4) 0.2257(4) 0.5000
C15 C 0.1885(4) 0.3569(3) 0.5000
H8 H 0.1639 0.3803 0.5000
C17 C 0.1928(4) 0.1517(4) 0.5000
C18 C 0.2554(4) 0.0872(4) 0.5000
H9 H 0.2812 0.1094 0.5000
C22 C 0.2580(4) 0.2893(4) 0.5000
H12 H 0.2832 0.2666 0.5000
C23 C 0.1741(4) 0.3105(3) 0.5000
H13 H 0.1403 0.3027 0.5000
C27 C 0.2690(4) 0.3360(3) 0.5000
H16 H 0.3025 0.3448 0.5000
N13 N 0.1486(4) 0.2118(3) 0.5000
H18 H 0.1230 0.2305 0.5000
N14 N 0.1466(4) 0.1643(3) 0.5000
N36 N 0.2045(2) 0.44930(18) 0.6900(8)
C64 C 0.1756(2) 0.4559(2) 0.8040(10)
Pt8_2 Pt 0.12609(2) 0.46797(2) 1.0000
N38 N 0.2695(3) 0.5072(3) 0.5000
C69 C 0.0765(2) 0.4802(2) 0.1958(10)
Fe1 Fe -0.0000 0.5000 0.5000
N1 N 0.0478(2) 0.48769(18) 0.6905(8)
N4 N 0.0192(3) 0.5662(3) 0.5000
N5 N 0.0176(3) 0.9260(3) 0.5000
C4 C 0.0451(4) 0.6607(4) 0.5000
C10 C 0.0789(4) 0.8671(4) 0.5000
H5 H 0.1126 0.8592 0.5000
C13 C 0.0662(4) 0.5797(3) 0.5000
H6 H 0.0908 0.5564 0.5000
C16 C 0.0765(2) 0.4802(2) 0.8042(10)
N10 N 0.0291(3) 0.7458(3) 0.5000
C20 C 0.0437(4) 0.8318(4) 0.5000
C21 C 0.0803(4) 0.6256(3) 0.5000
H11 H 0.1140 0.6335 0.5000
C24 C 0.0651(4) 0.9128(3) 0.5000
H14 H 0.0897 0.9363 0.5000
C26 C 0.0591(4) 0.7833(4) 0.5000
C28 C 0.0588(4) 0.7099(4) 0.5000
N11 N 0.1054(4) 0.7725(3) 0.5000
N12 N 0.1042(4) 0.7248(3) 0.5000
H17 H 0.1302 0.7067 0.5000
C31 C 0.0162(4) 0.1075(4) 0.5000
H19 H 0.0496 0.0987 0.5000
C42 C 0.0150(3) 0.3995(3) 0.5000
H25 H 0.0485 0.4082 0.5000
C47 C 0.0049(4) 0.1544(4) 0.5000
H28 H 0.0302 0.1771 0.5000
C53 C 0.0035(4) 0.3531(3) 0.5000
H33 H 0.0287 0.3303 0.5000
N30 N 0.0478(2) 0.48769(18) 0.3095(8)
Fe8_2 Fe -0.0000 1.0000 0.5000
H3 H 0.1587 0.9988 0.5000
Fe11 Fe 0.24745(5) 0.93797(5) 0.5000
H21 H 0.8413 0.0012 0.5000
Fe12 Fe 0.75255(5) 0.06203(5) 0.5000
Fe8_3 Fe 1.0000 0.0000 0.5000
Pt3 Pt 0.62587(2) 0.53503(2) 0.0000
C35 C 0.5826(3) 0.5061(2) 0.1876(10)
C67 C 0.6699(2) 0.5608(2) 0.1945(10)
Pt3_2 Pt 0.62587(2) 0.53503(2) 1.0000
Pt4 Pt 0.87391(2) 0.53203(2) 0.0000
Fe4 Fe 0.74745(5) 0.56203(5) 0.5000
N16 N 0.6983(2) 0.56958(18) 0.6918(8)
N17 N 0.7695(3) 0.9928(3) 0.5000
N21 N 0.7648(3) 0.6297(3) 0.5000
N22 N 0.7955(2) 0.55070(18) 0.3100(8)
N23 N 0.7763(3) 0.8108(3) 0.5000
C29 C 0.8244(2) 0.5441(2) 0.1960(10)
C30 C 0.7909(4) 0.7243(3) 0.5000
C33 C 0.8286(4) 0.9319(3) 0.5000
H20 H 0.8621 0.9232 0.5000
C34 C 0.8160(3) 0.9784(3) 0.5000
C36 C 0.7341(4) 0.9596(3) 0.5000
H22 H 0.7008 0.9691 0.5000
C37 C 0.7932(4) 0.8977(3) 0.5000
C39 C 0.6699(2) 0.5608(2) 0.8055(10)
C40 C 0.8053(4) 0.7743(4) 0.5000
C43 C 0.8115(4) 0.6431(3) 0.5000
H26 H 0.8361 0.6197 0.5000
C45 C 0.8072(4) 0.8483(4) 0.5000
C46 C 0.7446(4) 0.9128(4) 0.5000
H27 H 0.7188 0.8906 0.5000
C50 C 0.7420(4) 0.7107(4) 0.5000
H30 H 0.7168 0.7334 0.5000
C51 C 0.8259(4) 0.6895(3) 0.5000
H31 H 0.8597 0.6973 0.5000
C55 C 0.7310(4) 0.6640(3) 0.5000
H34 H 0.6975 0.6552 0.5000
N27 N 0.8514(4) 0.7882(3) 0.5000
H36 H 0.8770 0.7695 0.5000
N28 N 0.8534(4) 0.8357(3) 0.5000
N37 N 0.6983(2) 0.56958(18) 0.3082(8)
N39 N 0.7305(3) 0.4928(3) 0.5000
N44 N 0.7955(2) 0.55070(18) 0.6900(8)
C66 C 0.5826(3) 0.5061(2) 0.8124(10)
C68 C 0.9235(2) 0.5198(2) 0.1958(10)
Fe1_2 Fe 1.0000 0.5000 0.5000
C3 C 0.9838(4) 0.8925(4) 0.5000
H1 H 0.9504 0.9013 0.5000
C14 C 0.9850(3) 0.6005(3) 0.5000
H7 H 0.9515 0.5918 0.5000
C19 C 0.9951(4) 0.8456(4) 0.5000
H10 H 0.9698 0.8229 0.5000
C25 C 0.9965(4) 0.6469(3) 0.5000
H15 H 0.9713 0.6697 0.5000
Pt4_2 Pt 0.87391(2) 0.53203(2) 1.0000
N15 N 0.9522(2) 0.51231(18) 0.6905(8)
N18 N 0.9808(3) 0.4338(3) 0.5000
N19 N 0.9824(3) 0.0740(3) 0.5000
C32 C 0.9549(4) 0.3393(4) 0.5000
C38 C 0.9211(4) 0.1329(4) 0.5000
H23 H 0.8874 0.1408 0.5000
C41 C 0.9338(4) 0.4203(3) 0.5000
H24 H 0.9092 0.4436 0.5000
C44 C 0.9235(2) 0.5198(2) 0.8042(10)
N24 N 0.9709(3) 0.2542(3) 0.5000
C48 C 0.9563(4) 0.1682(4) 0.5000
C49 C 0.9197(4) 0.3744(3) 0.5000
H29 H 0.8860 0.3665 0.5000
C52 C 0.9349(4) 0.0872(3) 0.5000
H32 H 0.9103 0.0637 0.5000
C54 C 0.9409(4) 0.2167(4) 0.5000
C56 C 0.9412(4) 0.2901(4) 0.5000
N25 N 0.8946(4) 0.2275(3) 0.5000
N26 N 0.8958(4) 0.2752(3) 0.5000
H35 H 0.8698 0.2933 0.5000
N29 N 0.9522(2) 0.51231(18) 0.3095(8)
Fe8_4 Fe 1.0000 1.0000 0.5000
C65 C 0.8244(2) 0.5441(2) 0.8040(10)
Pt9 Pt 0.62609(2) 0.03203(2) 0.0000
Fe1_3 Fe 0.5000 0.0000 0.5000
N4_2 N 0.4808(3) 0.0662(3) 0.5000
C3_2 C 0.5162(4) 0.3925(4) 0.5000
H1_2 H 0.5496 0.4013 0.5000
C4_2 C 0.4549(4) 0.1607(4) 0.5000
C10_2 C 0.4211(4) 0.3671(4) 0.5000
H5_2 H 0.3874 0.3592 0.5000
C13_2 C 0.4338(4) 0.0797(3) 0.5000
H6_2 H 0.4092 0.0564 0.5000
C14_2 C 0.5150(3) 0.1005(3) 0.5000
H7_2 H 0.5485 0.0918 0.5000
N10_2 N 0.4709(3) 0.2458(3) 0.5000
C19_2 C 0.5049(4) 0.3456(4) 0.5000
H10_2 H 0.5302 0.3229 0.5000
C20_2 C 0.4563(4) 0.3318(4) 0.5000
C21_2 C 0.4197(4) 0.1256(3) 0.5000
H11_2 H 0.3860 0.1335 0.5000
C24_2 C 0.4349(4) 0.4128(3) 0.5000
H14_2 H 0.4103 0.4363 0.5000
C25_2 C 0.5035(4) 0.1469(3) 0.5000
H15_2 H 0.5287 0.1697 0.5000
C26_2 C 0.4409(4) 0.2833(4) 0.5000
C28_2 C 0.4412(4) 0.2099(4) 0.5000
N11_2 N 0.3946(4) 0.2725(3) 0.5000
N12_2 N 0.3958(4) 0.2248(3) 0.5000
H17_2 H 0.3698 0.2067 0.5000
N15_2 N 0.5478(2) 0.01231(18) 0.3095(8)
C44_2 C 0.5765(2) 0.0198(2) 0.1958(10)
N29_2 N 0.5478(2) 0.01231(18) 0.6905(8)
C57 C 0.5765(2) 0.0198(2) 0.8042(10)
Pt9_2 Pt 0.62609(2) 0.03203(2) 1.0000
C65_2 C 0.6756(2) 0.0441(2) 0.1960(10)
Pt3_3 Pt 0.87413(2) 0.03503(2) -0.0000
N16_2 N 0.8017(2) 0.06958(18) 0.3082(8)
N21_2 N 0.7352(3) 0.1297(3) 0.5000
N22_2 N 0.7045(2) 0.05070(18) 0.6900(8)
N23_2 N 0.7237(3) 0.3108(3) 0.5000
C29_2 C 0.6756(2) 0.0441(2) 0.8040(10)
C30_2 C 0.7091(4) 0.2243(3) 0.5000
C33_2 C 0.6714(4) 0.4319(3) 0.5000
H20_2 H 0.6379 0.4232 0.5000
C34_2 C 0.6840(3) 0.4784(3) 0.5000
H21_2 H 0.6587 0.5012 0.5000
C36_2 C 0.7659(4) 0.4596(3) 0.5000
H22_2 H 0.7992 0.4691 0.5000
C37_2 C 0.7068(4) 0.3977(3) 0.5000
C39_2 C 0.8301(2) 0.0608(2) 0.1945(10)
C40_2 C 0.6947(4) 0.2743(4) 0.5000
C43_2 C 0.6885(4) 0.1431(3) 0.5000
H26_2 H 0.6639 0.1197 0.5000
C45_2 C 0.6928(4) 0.3483(4) 0.5000
C46_2 C 0.7554(4) 0.4128(4) 0.5000
H27_2 H 0.7812 0.3906 0.5000
C50_2 C 0.7580(4) 0.2107(4) 0.5000
H30_2 H 0.7832 0.2334 0.5000
C51_2 C 0.6741(4) 0.1895(3) 0.5000
H31_2 H 0.6403 0.1973 0.5000
C55_2 C 0.7690(4) 0.1640(3) 0.5000
H34_2 H 0.8025 0.1552 0.5000
N27_2 N 0.6486(4) 0.2882(3) 0.5000
H36_2 H 0.6230 0.2695 0.5000
N28_2 N 0.6466(4) 0.3357(3) 0.5000
N32 N 0.0551(2) 0.0100(2) 0.2908(9)
N37_2 N 0.8017(2) 0.06958(18) 0.6918(8)
N44_2 N 0.7045(2) 0.05070(18) 0.3100(8)
C66_2 C 0.9174(3) 0.0061(2) 0.1876(10)
N6_2 N 0.0551(2) 0.0100(2) 0.7092(9)
Pt3_4 Pt 0.87413(2) 0.03503(2) 1.0000
C35_2 C 0.9174(3) 0.0061(2) 0.8124(10)
C67_2 C 0.8301(2) 0.0608(2) 0.8055(10)
Pt7 Pt 0.37391(2) 0.96797(2) 0.0000
Fe1_4 Fe 0.5000 1.0000 0.5000
N1_2 N 0.4522(2) 0.98769(18) 0.3095(8)
C16_2 C 0.4235(2) 0.9802(2) 0.1958(10)
N18_2 N 0.5192(3) 0.9338(3) 0.5000
C31_2 C 0.4838(4) 0.6075(4) 0.5000
H19_2 H 0.4504 0.5987 0.5000
C32_2 C 0.5451(4) 0.8393(4) 0.5000
C38_2 C 0.5789(4) 0.6329(4) 0.5000
H23_2 H 0.6126 0.6408 0.5000
C41_2 C 0.5662(4) 0.9203(3) 0.5000
H24_2 H 0.5908 0.9436 0.5000
C42_2 C 0.4850(3) 0.8995(3) 0.5000
H25_2 H 0.4515 0.9082 0.5000
N24_2 N 0.5291(3) 0.7542(3) 0.5000
C47_2 C 0.4951(4) 0.6544(4) 0.5000
H28_2 H 0.4698 0.6771 0.5000
C48_2 C 0.5437(4) 0.6682(4) 0.5000
C49_2 C 0.5803(4) 0.8744(3) 0.5000
H29_2 H 0.6140 0.8665 0.5000
C52_2 C 0.5651(4) 0.5872(3) 0.5000
H32_2 H 0.5897 0.5637 0.5000
C53_2 C 0.4965(4) 0.8531(3) 0.5000
H33_2 H 0.4713 0.8303 0.5000
C54_2 C 0.5591(4) 0.7167(4) 0.5000
C56_2 C 0.5588(4) 0.7901(4) 0.5000
N25_2 N 0.6054(4) 0.7275(3) 0.5000
N26_2 N 0.6042(4) 0.7752(3) 0.5000
H35_2 H 0.6302 0.7933 0.5000
N30_2 N 0.4522(2) 0.98769(18) 0.6905(8)
C58 C 0.4235(2) 0.9802(2) 0.8042(10)
N33 N 0.2955(2) 0.94930(18) 0.3100(8)
C61 C 0.3244(2) 0.9559(2) 0.1960(10)
Pt5 Pt 0.12587(2) 0.96497(2) 0.0000
Pt7_2 Pt 0.37391(2) 0.96797(2) 1.0000
N2_2 N 0.1983(2) 0.93042(18) 0.3082(8)
N7_2 N 0.2648(3) 0.8703(3) 0.5000
N8_2 N 0.2955(2) 0.94930(18) 0.6900(8)
N9_2 N 0.2763(3) 0.6892(3) 0.5000
C1_2 C 0.3244(2) 0.9559(2) 0.8040(10)
C2_2 C 0.2909(4) 0.7757(3) 0.5000
C5_2 C 0.3286(4) 0.5681(3) 0.5000
H2_2 H 0.3621 0.5768 0.5000
C6_2 C 0.3160(3) 0.5216(3) 0.5000
H3_2 H 0.3413 0.4988 0.5000
C8_2 C 0.2341(4) 0.5404(3) 0.5000
H4_2 H 0.2008 0.5309 0.5000
C9_2 C 0.2932(4) 0.6023(3) 0.5000
C11_2 C 0.1699(2) 0.9392(2) 0.1945(10)
C12_2 C 0.3053(4) 0.7257(4) 0.5000
C15_2 C 0.3115(4) 0.8569(3) 0.5000
H8_2 H 0.3361 0.8803 0.5000
C17_2 C 0.3072(4) 0.6517(4) 0.5000
C18_2 C 0.2446(4) 0.5872(4) 0.5000
H9_2 H 0.2188 0.6094 0.5000
C22_2 C 0.2420(4) 0.7893(4) 0.5000
H12_2 H 0.2168 0.7666 0.5000
C23_2 C 0.3259(4) 0.8105(3) 0.5000
H13_2 H 0.3597 0.8027 0.5000
C27_2 C 0.2310(4) 0.8360(3) 0.5000
H16_2 H 0.1975 0.8448 0.5000
N13_2 N 0.3514(4) 0.7118(3) 0.5000
H18_2 H 0.3770 0.7305 0.5000
N14_2 N 0.3534(4) 0.6643(3) 0.5000
C60 C 0.0826(3) 0.9939(2) 0.1876(10)
N34 N 0.1983(2) 0.93042(18) 0.6918(8)
C62 C 0.1699(2) 0.9392(2) 0.8055(10)
Pt5_2 Pt 0.12587(2) 0.96497(2) 1.0000
C7_2 C 0.0826(3) 0.9939(2) 0.8124(10)
N20 N 0.9449(2) 0.9900(2) 0.7092(9)
N43_2 N 0.9449(2) 0.9900(2) 0.2908(9)
loop_
_geom_bond_atom_site_label_1
_geom_bond_atom_site_label_2
_geom_bond_site_symmetry_1
_geom_bond_site_symmetry_2
Pt6 C7 1_555 1_555
Fe2 N6 1_555 1_555
N6 C7 1_555 1_555
N31 C59 1_555 1_555
C59 Pt6 1_555 1_555
N35 Fe2 1_555 1_555
C63 N35 1_555 1_555
Pt6_2 C63 1_555 1_555
Fe10 N31 1_555 1_555
N40 Fe2 1_555 1_555
N41 Fe2 1_555 1_555
N42 Fe2 1_555 1_555
N43 Fe2 1_555 1_555
Pt8 C1 1_555 1_555
Fe10 N2 1_555 1_555
N2 C11 1_555 1_555
N3 C6 1_555 1_555
N7 Fe10 1_555 1_555
N8 Fe10 1_555 1_555
N9 C12 1_555 1_555
C1 N8 1_555 1_555
C2 C12 1_555 1_555
C5 H2 1_555 1_555
C6 C5 1_555 1_555
C8 N3 1_555 1_555
H4 C8 1_555 1_555
C9 C5 1_555 1_555
C11 Pt6_2 1_555 1_555
C12 N13 1_555 1_555
C15 N7 1_555 1_555
H8 C15 1_555 1_555
C17 N9 1_555 1_555
C18 C8 1_555 1_555
H9 C18 1_555 1_555
C22 C2 1_555 1_555
H12 C22 1_555 1_555
C23 C2 1_555 1_555
H13 C23 1_555 1_555
C27 N7 1_555 1_555
H16 C27 1_555 1_555
N13 H18 1_555 1_555
N14 C17 1_555 1_555
N36 Fe10 1_555 1_555
C64 N36 1_555 1_555
Pt8_2 C64 1_555 1_555
N38 Fe10 1_555 1_555
C69 Pt8 1_555 1_555
C9 C17 1_555 1_555
C9 C18 1_555 1_555
C15 C23 1_555 1_555
C22 C27 1_555 1_555
N13 N14 1_555 1_555
Fe1 N1 1_555 1_555
N1 C16 1_555 1_555
N4 Fe1 1_555 1_555
C4 C21 1_555 1_555
C10 H5 1_555 1_555
C13 N4 1_555 1_555
H6 C13 1_555 1_555
C16 Pt8_2 1_555 1_555
N10 C26 1_555 1_555
C20 C10 1_555 1_555
C21 C13 1_555 1_555
H11 C21 1_555 1_555
C24 N5 1_555 1_555
H14 C24 1_555 1_555
C26 C20 1_555 1_555
C28 C4 1_555 1_555
N11 C26 1_555 1_555
N12 C28 1_555 1_555
H17 N12 1_555 1_555
C31 H19 1_555 1_555
H25 C42 1_555 1_555
C47 C31 1_555 1_555
H28 C47 1_555 1_555
H33 C53 1_555 1_555
N30 Fe1 1_555 1_555
C69 N30 1_555 1_555
Fe8_2 N5 1_555 1_555
C10 C24 1_555 1_555
N10 C28 1_555 1_555
N11 N12 1_555 1_555
C42 C53 1_555 1_555
Pt3 C35 1_555 1_555
N42 C35 1_555 1_555
C67 Pt3 1_555 1_555
Pt4 C29 1_555 1_555
Fe4 N16 1_555 1_555
N16 C39 1_555 1_555
N17 C34 1_555 1_555
N21 Fe4 1_555 1_555
N22 Fe4 1_555 1_555
N23 C40 1_555 1_555
C29 N22 1_555 1_555
C30 C40 1_555 1_555
C33 H20 1_555 1_555
C34 C33 1_555 1_555
C36 N17 1_555 1_555
H22 C36 1_555 1_555
C37 C33 1_555 1_555
C39 Pt3_2 1_555 1_555
C40 N27 1_555 1_555
C43 N21 1_555 1_555
H26 C43 1_555 1_555
C45 N23 1_555 1_555
C46 C36 1_555 1_555
H27 C46 1_555 1_555
C50 C30 1_555 1_555
H30 C50 1_555 1_555
C51 C30 1_555 1_555
H31 C51 1_555 1_555
C55 N21 1_555 1_555
H34 C55 1_555 1_555
N27 H36 1_555 1_555
N28 C45 1_555 1_555
N37 Fe4 1_555 1_555
N39 Fe4 1_555 1_555
N44 Fe4 1_555 1_555
C66 Pt3_2 1_555 1_555
C68 Pt4 1_555 1_555
C37 C45 1_555 1_555
C37 C46 1_555 1_555
C43 C51 1_555 1_555
C50 C55 1_555 1_555
N27 N28 1_555 1_555
C3 H1 1_555 1_555
H7 C14 1_555 1_555
C19 C3 1_555 1_555
H10 C19 1_555 1_555
H15 C25 1_555 1_555
N15 Fe1_2 1_555 1_555
N18 Fe1_2 1_555 1_555
C32 C49 1_555 1_555
C38 H23 1_555 1_555
C41 N18 1_555 1_555
H24 C41 1_555 1_555
C44 Pt4_2 1_555 1_555
N24 C54 1_555 1_555
C48 C38 1_555 1_555
C49 C41 1_555 1_555
H29 C49 1_555 1_555
C52 N19 1_555 1_555
H32 C52 1_555 1_555
C54 C48 1_555 1_555
C56 C32 1_555 1_555
N25 C54 1_555 1_555
N26 C56 1_555 1_555
H35 N26 1_555 1_555
N29 Fe1_2 1_555 1_555
C68 N29 1_555 1_555
Fe8_3 N19 1_555 1_555
C65 Pt4_2 1_555 1_555
C14 C25 1_555 1_555
N15 C44 1_555 1_555
C38 C52 1_555 1_555
N24 C56 1_555 1_555
N25 N26 1_555 1_555
N37 C67 1_555 1_555
C66 N43 1_555 1_555
C65 N44 1_555 1_555
N4_2 Fe1_3 1_555 1_555
N40 C3_2 1_555 1_555
C3_2 H1_2 1_555 1_555
C4_2 C21_2 1_555 1_555
C10_2 H5_2 1_555 1_555
C13_2 N4_2 1_555 1_555
H6_2 C13_2 1_555 1_555
C14_2 N4_2 1_555 1_555
H7_2 C14_2 1_555 1_555
N10_2 C26_2 1_555 1_555
C19_2 C3_2 1_555 1_555
H10_2 C19_2 1_555 1_555
C20_2 C10_2 1_555 1_555
C21_2 C13_2 1_555 1_555
H11_2 C21_2 1_555 1_555
C24_2 N40 1_555 1_555
H14_2 C24_2 1_555 1_555
C25_2 C4_2 1_555 1_555
H15_2 C25_2 1_555 1_555
C26_2 C20_2 1_555 1_555
C28_2 C4_2 1_555 1_555
N11_2 C26_2 1_555 1_555
N12_2 C28_2 1_555 1_555
H17_2 N12_2 1_555 1_555
N15_2 Fe1_3 1_555 1_555
C44_2 Pt9 1_555 1_555
N29_2 Fe1_3 1_555 1_555
C57 N29_2 1_555 1_555
Pt9_2 C57 1_555 1_555
C65_2 Pt9 1_555 1_555
C10_2 C24_2 1_555 1_555
C14_2 C25_2 1_555 1_555
N10_2 C28_2 1_555 1_555
C19_2 C20_2 1_555 1_555
N11_2 N12_2 1_555 1_555
N15_2 C44_2 1_555 1_555
Pt9_2 C29_2 1_555 1_555
Fe12 N16_2 1_555 1_555
N16_2 C39_2 1_555 1_555
N39 C34_2 1_555 1_555
N21_2 Fe12 1_555 1_555
N22_2 Fe12 1_555 1_555
N23_2 C40_2 1_555 1_555
C29_2 N22_2 1_555 1_555
C30_2 C40_2 1_555 1_555
C33_2 H20_2 1_555 1_555
C34_2 C33_2 1_555 1_555
H21_2 C34_2 1_555 1_555
C36_2 N39 1_555 1_555
H22_2 C36_2 1_555 1_555
C37_2 C33_2 1_555 1_555
C39_2 Pt3_3 1_555 1_555
C40_2 N27_2 1_555 1_555
C43_2 N21_2 1_555 1_555
H26_2 C43_2 1_555 1_555
C45_2 N23_2 1_555 1_555
C46_2 C36_2 1_555 1_555
H27_2 C46_2 1_555 1_555
C50_2 C30_2 1_555 1_555
H30_2 C50_2 1_555 1_555
C51_2 C30_2 1_555 1_555
H31_2 C51_2 1_555 1_555
C55_2 N21_2 1_555 1_555
H34_2 C55_2 1_555 1_555
N27_2 H36_2 1_555 1_555
N28_2 C45_2 1_555 1_555
Fe8 N32 1_555 1_555
N37_2 Fe12 1_555 1_555
N44_2 Fe12 1_555 1_555
C66_2 Pt3_3 1_555 1_555
C37_2 C45_2 1_555 1_555
C37_2 C46_2 1_555 1_555
C43_2 C51_2 1_555 1_555
C50_2 C55_2 1_555 1_555
N27_2 N28_2 1_555 1_555
Fe8 N6_2 1_555 1_555
Pt3_4 C35_2 1_555 1_555
C67_2 Pt3_4 1_555 1_555
Fe1_4 N1_2 1_555 1_555
N1_2 C16_2 1_555 1_555
C16_2 Pt7 1_555 1_555
N18_2 Fe1_4 1_555 1_555
N41 C31_2 1_555 1_555
C31_2 H19_2 1_555 1_555
C32_2 C49_2 1_555 1_555
C38_2 H23_2 1_555 1_555
C41_2 N18_2 1_555 1_555
H24_2 C41_2 1_555 1_555
C42_2 N18_2 1_555 1_555
H25_2 C42_2 1_555 1_555
N24_2 C54_2 1_555 1_555
C47_2 C31_2 1_555 1_555
H28_2 C47_2 1_555 1_555
C48_2 C38_2 1_555 1_555
C49_2 C41_2 1_555 1_555
H29_2 C49_2 1_555 1_555
C52_2 N41 1_555 1_555
H32_2 C52_2 1_555 1_555
C53_2 C32_2 1_555 1_555
H33_2 C53_2 1_555 1_555
C54_2 C48_2 1_555 1_555
C56_2 C32_2 1_555 1_555
N25_2 C54_2 1_555 1_555
N26_2 C56_2 1_555 1_555
H35_2 N26_2 1_555 1_555
N30_2 Fe1_4 1_555 1_555
C58 N30_2 1_555 1_555
N33 C61 1_555 1_555
C61 Pt7 1_555 1_555
Pt7_2 C58 1_555 1_555
Fe11 N33 1_555 1_555
C38_2 C52_2 1_555 1_555
C42_2 C53_2 1_555 1_555
N24_2 C56_2 1_555 1_555
C47_2 C48_2 1_555 1_555
N25_2 N26_2 1_555 1_555
Pt7_2 C1_2 1_555 1_555
Fe11 N2_2 1_555 1_555
N2_2 C11_2 1_555 1_555
N38 C6_2 1_555 1_555
N7_2 Fe11 1_555 1_555
N8_2 Fe11 1_555 1_555
N9_2 C12_2 1_555 1_555
C1_2 N8_2 1_555 1_555
C2_2 C12_2 1_555 1_555
C5_2 H2_2 1_555 1_555
C6_2 C5_2 1_555 1_555
H3_2 C6_2 1_555 1_555
C8_2 N38 1_555 1_555
H4_2 C8_2 1_555 1_555
C9_2 C5_2 1_555 1_555
C11_2 Pt5 1_555 1_555
C12_2 N13_2 1_555 1_555
C15_2 N7_2 1_555 1_555
H8_2 C15_2 1_555 1_555
C17_2 N9_2 1_555 1_555
C18_2 C8_2 1_555 1_555
H9_2 C18_2 1_555 1_555
C22_2 C2_2 1_555 1_555
H12_2 C22_2 1_555 1_555
C23_2 C2_2 1_555 1_555
H13_2 C23_2 1_555 1_555
C27_2 N7_2 1_555 1_555
H16_2 C27_2 1_555 1_555
N13_2 H18_2 1_555 1_555
N14_2 C17_2 1_555 1_555
C60 Pt5 1_555 1_555
N34 Fe11 1_555 1_555
C62 N34 1_555 1_555
Pt5_2 C62 1_555 1_555
C9_2 C17_2 1_555 1_555
C9_2 C18_2 1_555 1_555
C15_2 C23_2 1_555 1_555
C22_2 C27_2 1_555 1_555
N13_2 N14_2 1_555 1_555
Pt5_2 C7_2 1_555 1_555
Fe8_4 N20 1_555 1_555
N43_2 Fe8_4 1_555 1_555
N44_2 C65_2 1_555 1_555
C67_2 N37_2 1_555 1_555

#END
