
###############################################################################
#
# This file contains modified crystal structure data generated from the
# MOF subset of the Cambridge Structural Database (CSD) v543 
# hosted by the Cambridge Crystallographic Data Centre (CCDC).
#
# This work is licensed under the Creative Commons
# Attribution-NonCommercial-ShareAlike 4.0 International License.
# To view a copy of this license, visit
# http://creativecommons.org/licenses/by-nc-sa/4.0/
# or send a letter to
# Creative Commons, PO Box 1866, Mountain View, CA 94042, USA.
#
# CIF created using the CSD Python API on 29 September 2022
# The structure has been converted into the P1 space group
# The structure has a 3D framework
# The original CSD entry QEMFIA01 is in the orthorhombic crystal system
# The framework has been calculated to contain at least 10.0% void space
# The void calculation uses a probe of radius 1.32A, grid spacing 0.4
#
###############################################################################

data_QEMFIA01
_chemical_formula_moiety         '(C127 H72 Fe10 N69 Pt16)n'
_symmetry_cell_setting           triclinic
_symmetry_space_group_name_H-M   'P 1'
_symmetry_Int_Tables_number      1
_space_group_name_Hall           'P 1'
loop_
_symmetry_equiv_pos_site_id
_symmetry_equiv_pos_as_xyz
1 x,y,z
_cell_length_a                   27.5743(7)
_cell_length_b                   28.9781(9)
_cell_length_c                   7.3466(2)
_cell_angle_alpha                90
_cell_angle_beta                 90
_cell_angle_gamma                90
_cell_volume                     5870.31
loop_
_atom_site_label
_atom_site_type_symbol
_atom_site_fract_x
_atom_site_fract_y
_atom_site_fract_z
Fe8 Fe 0.0000 -0.0000 0.5000
Pt6 Pt 0.37769(2) 0.46611(3) -0.0000
Fe2 Fe 0.5000 0.5000 0.5000
N6 N 0.4456(4) 0.5096(4) 0.2943(16)
C7 C 0.4194(4) 0.4951(5) 0.1854(19)
N31 N 0.3093(3) 0.4235(4) 0.2953(16)
C59 C 0.3350(4) 0.4373(4) 0.1874(19)
N35 N 0.4456(4) 0.5096(4) 0.7057(16)
C63 C 0.4194(4) 0.4951(5) 0.8146(19)
Pt6_2 Pt 0.37769(2) 0.46611(3) 1.0000
Pt8 Pt 0.12275(2) 0.46793(2) -0.0000
Fe10 Fe 0.25501(8) 0.43396(10) 0.5000
N40 N 0.4812(5) 0.4245(6) 0.5000
N41 N 0.5188(5) 0.5755(6) 0.5000
N42 N 0.5544(4) 0.4904(4) 0.2943(16)
N43 N 0.5544(4) 0.4904(4) 0.7057(16)
N2 N 0.3093(3) 0.4235(4) 0.7047(16)
N3 N 0.2253(5) 0.0077(6) 0.5000
N7 N 0.2342(6) 0.3628(5) 0.5000
N8 N 0.2009(4) 0.4472(4) 0.2946(15)
N9 N 0.2183(6) 0.1852(6) 0.5000
C1 C 0.1720(4) 0.4547(5) 0.1915(18)
C2 C 0.2054(7) 0.2702(7) 0.5000
C5 C 0.1656(7) 0.0667(7) 0.5000
H2 H 0.1326 0.0747 0.5000
C6 C 0.1793(7) 0.0202(7) 0.5000
C8 C 0.2598(7) 0.0407(7) 0.5000
H4 H 0.2925 0.0317 0.5000
C9 C 0.2005(7) 0.1007(7) 0.5000
C11 C 0.3350(4) 0.4373(4) 0.8126(19)
C12 C 0.1897(7) 0.2221(7) 0.5000
C15 C 0.1868(6) 0.3502(7) 0.5000
H8 H 0.1632 0.3736 0.5000
C17 C 0.1866(7) 0.1488(7) 0.5000
C18 C 0.2492(6) 0.0866(8) 0.5000
H9 H 0.2742 0.1086 0.5000
C22 C 0.2541(6) 0.2821(7) 0.5000
H12 H 0.2778 0.2588 0.5000
C23 C 0.1718(7) 0.3060(7) 0.5000
H13 H 0.1385 0.2994 0.5000
C27 C 0.2677(7) 0.3267(7) 0.5000
H16 H 0.3010 0.3338 0.5000
N13 N 0.1436(6) 0.2086(6) 0.5000
H18 H 0.1187 0.2271 0.5000
N14 N 0.1409(6) 0.1616(6) 0.5000
N36 N 0.2009(4) 0.4472(4) 0.7054(15)
C64 C 0.1720(4) 0.4547(5) 0.8085(18)
Pt8_2 Pt 0.12275(2) 0.46793(2) 1.0000
N38 N 0.2747(5) 0.5077(6) 0.5000
C69 C 0.0743(4) 0.4809(4) 0.1971(18)
Fe1 Fe 0.0000 0.5000 0.5000
N1 N 0.0474(3) 0.4876(4) 0.6890(15)
N4 N 0.0193(5) 0.5671(5) 0.5000
N5 N 0.0188(5) 0.9245(6) 0.5000
C4 C 0.0458(6) 0.6610(6) 0.5000
C10 C 0.0793(7) 0.8651(7) 0.5000
H5 H 0.1124 0.8574 0.5000
C13 C 0.0660(6) 0.5800(6) 0.5000
H6 H 0.0902 0.5571 0.5000
C16 C 0.0743(4) 0.4809(4) 0.8029(18)
N10 N 0.0297(5) 0.7456(6) 0.5000
C20 C 0.0441(7) 0.8304(7) 0.5000
C21 C 0.0800(6) 0.6261(6) 0.5000
H11 H 0.1131 0.6337 0.5000
C24 C 0.0654(6) 0.9104(7) 0.5000
H14 H 0.0898 0.9331 0.5000
C26 C 0.0596(7) 0.7832(7) 0.5000
C28 C 0.0588(7) 0.7092(7) 0.5000
N11 N 0.1061(6) 0.7713(6) 0.5000
N12 N 0.1056(6) 0.7242(5) 0.5000
H17 H 0.1312 0.7066 0.5000
C31 C 0.0149(6) 0.1098(7) 0.5000
H19 H 0.0479 0.1018 0.5000
C42 C 0.0148(6) 0.3994(6) 0.5000
H25 H 0.0477 0.4081 0.5000
C47 C 0.0030(7) 0.1542(7) 0.5000
H28 H 0.0280 0.1762 0.5000
C53 C 0.0039(6) 0.3539(7) 0.5000
H33 H 0.0289 0.3319 0.5000
N30 N 0.0474(3) 0.4876(4) 0.3110(15)
Fe8_2 Fe 0.0000 1.0000 0.5000
H3 H 0.1552 0.9974 0.5000
Fe11 Fe 0.24499(8) 0.93396(10) 0.5000
H21 H 0.8448 0.0026 0.5000
Fe12 Fe 0.75501(8) 0.06604(10) 0.5000
Fe8_3 Fe 1.0000 -0.0000 0.5000
Pt3 Pt 0.62231(2) 0.53389(3) -0.0000
C35 C 0.5806(4) 0.5049(5) 0.1854(19)
C67 C 0.6650(4) 0.5627(4) 0.1874(19)
Pt3_2 Pt 0.62231(2) 0.53389(3) 1.0000
Pt4 Pt 0.87725(2) 0.53207(2) 0.0000
Fe4 Fe 0.74499(8) 0.56604(10) 0.5000
N16 N 0.6907(3) 0.5765(4) 0.7047(16)
N17 N 0.7747(5) 0.9923(6) 0.5000
N21 N 0.7658(6) 0.6372(5) 0.5000
N22 N 0.7991(4) 0.5528(4) 0.2946(15)
N23 N 0.7817(6) 0.8148(6) 0.5000
C29 C 0.8280(4) 0.5453(5) 0.1915(18)
C30 C 0.7946(7) 0.7298(7) 0.5000
C33 C 0.8344(7) 0.9333(7) 0.5000
H20 H 0.8674 0.9253 0.5000
C34 C 0.8207(7) 0.9798(7) 0.5000
C36 C 0.7402(7) 0.9593(7) 0.5000
H22 H 0.7075 0.9683 0.5000
C37 C 0.7995(7) 0.8993(7) 0.5000
C39 C 0.6650(4) 0.5627(4) 0.8126(19)
C40 C 0.8103(7) 0.7779(7) 0.5000
C43 C 0.8132(6) 0.6498(7) 0.5000
H26 H 0.8368 0.6264 0.5000
C45 C 0.8134(7) 0.8512(7) 0.5000
C46 C 0.7508(6) 0.9134(8) 0.5000
H27 H 0.7258 0.8914 0.5000
C50 C 0.7459(6) 0.7179(7) 0.5000
H30 H 0.7222 0.7412 0.5000
C51 C 0.8282(7) 0.6940(7) 0.5000
H31 H 0.8615 0.7006 0.5000
C55 C 0.7323(7) 0.6733(7) 0.5000
H34 H 0.6990 0.6662 0.5000
N27 N 0.8564(6) 0.7914(6) 0.5000
H36 H 0.8813 0.7729 0.5000
N28 N 0.8591(6) 0.8384(6) 0.5000
N37 N 0.6907(3) 0.5765(4) 0.2953(16)
N39 N 0.7253(5) 0.4923(6) 0.5000
N44 N 0.7991(4) 0.5528(4) 0.7054(15)
C66 C 0.5806(4) 0.5049(5) 0.8146(19)
C68 C 0.9257(4) 0.5191(4) 0.1971(18)
Fe1_2 Fe 1.0000 0.5000 0.5000
C3 C 0.9851(6) 0.8902(7) 0.5000
H1 H 0.9521 0.8982 0.5000
C14 C 0.9852(6) 0.6006(6) 0.5000
H7 H 0.9523 0.5919 0.5000
C19 C 0.9970(7) 0.8458(7) 0.5000
H10 H 0.9720 0.8238 0.5000
C25 C 0.9961(6) 0.6461(7) 0.5000
H15 H 0.9711 0.6681 0.5000
Pt4_2 Pt 0.87725(2) 0.53207(2) 1.0000
N15 N 0.9526(3) 0.5124(4) 0.6890(15)
N18 N 0.9807(5) 0.4329(5) 0.5000
N19 N 0.9812(5) 0.0755(6) 0.5000
C32 C 0.9542(6) 0.3390(6) 0.5000
C38 C 0.9207(7) 0.1349(7) 0.5000
H23 H 0.8876 0.1426 0.5000
C41 C 0.9340(6) 0.4200(6) 0.5000
H24 H 0.9098 0.4429 0.5000
C44 C 0.9257(4) 0.5191(4) 0.8029(18)
N24 N 0.9703(5) 0.2544(6) 0.5000
C48 C 0.9559(7) 0.1696(7) 0.5000
C49 C 0.9200(6) 0.3739(6) 0.5000
H29 H 0.8869 0.3663 0.5000
C52 C 0.9346(6) 0.0896(7) 0.5000
H32 H 0.9102 0.0669 0.5000
C54 C 0.9404(7) 0.2168(7) 0.5000
C56 C 0.9412(7) 0.2908(7) 0.5000
N25 N 0.8939(6) 0.2287(6) 0.5000
N26 N 0.8944(6) 0.2758(5) 0.5000
H35 H 0.8688 0.2934 0.5000
N29 N 0.9526(3) 0.5124(4) 0.3110(15)
Fe8_4 Fe 1.0000 1.0000 0.5000
C65 C 0.8280(4) 0.5453(5) 0.8085(18)
Pt9 Pt 0.62275(2) 0.03207(2) -0.0000
Fe1_3 Fe 0.5000 -0.0000 0.5000
N4_2 N 0.4807(5) 0.0671(5) 0.5000
C3_2 C 0.5149(6) 0.3902(7) 0.5000
H1_2 H 0.5479 0.3982 0.5000
C4_2 C 0.4542(6) 0.1610(6) 0.5000
C10_2 C 0.4207(7) 0.3651(7) 0.5000
H5_2 H 0.3876 0.3574 0.5000
C13_2 C 0.4340(6) 0.0800(6) 0.5000
H6_2 H 0.4098 0.0571 0.5000
C14_2 C 0.5148(6) 0.1006(6) 0.5000
H7_2 H 0.5477 0.0919 0.5000
N10_2 N 0.4703(5) 0.2456(6) 0.5000
C19_2 C 0.5030(7) 0.3458(7) 0.5000
H10_2 H 0.5280 0.3238 0.5000
C20_2 C 0.4559(7) 0.3304(7) 0.5000
C21_2 C 0.4200(6) 0.1261(6) 0.5000
H11_2 H 0.3869 0.1337 0.5000
C24_2 C 0.4346(6) 0.4104(7) 0.5000
H14_2 H 0.4102 0.4331 0.5000
C25_2 C 0.5039(6) 0.1461(7) 0.5000
H15_2 H 0.5289 0.1681 0.5000
C26_2 C 0.4404(7) 0.2832(7) 0.5000
C28_2 C 0.4412(7) 0.2092(7) 0.5000
N11_2 N 0.3939(6) 0.2713(6) 0.5000
N12_2 N 0.3944(6) 0.2242(5) 0.5000
H17_2 H 0.3688 0.2066 0.5000
N15_2 N 0.5474(3) 0.0124(4) 0.3110(15)
C44_2 C 0.5743(4) 0.0191(4) 0.1971(18)
N29_2 N 0.5474(3) 0.0124(4) 0.6890(15)
C57 C 0.5743(4) 0.0191(4) 0.8029(18)
Pt9_2 Pt 0.62275(2) 0.03207(2) 1.0000
C65_2 C 0.6720(4) 0.0453(5) 0.1915(18)
Pt3_3 Pt 0.87769(2) 0.03389(3) 0.0000
N16_2 N 0.8093(3) 0.0765(4) 0.2953(16)
N21_2 N 0.7342(6) 0.1372(5) 0.5000
N22_2 N 0.7009(4) 0.0528(4) 0.7054(15)
N23_2 N 0.7183(6) 0.3148(6) 0.5000
C29_2 C 0.6720(4) 0.0453(5) 0.8085(18)
C30_2 C 0.7054(7) 0.2298(7) 0.5000
C33_2 C 0.6656(7) 0.4333(7) 0.5000
H20_2 H 0.6326 0.4253 0.5000
C34_2 C 0.6793(7) 0.4798(7) 0.5000
H21_2 H 0.6552 0.5026 0.5000
C36_2 C 0.7598(7) 0.4593(7) 0.5000
H22_2 H 0.7925 0.4683 0.5000
C37_2 C 0.7005(7) 0.3993(7) 0.5000
C39_2 C 0.8350(4) 0.0627(4) 0.1874(19)
C40_2 C 0.6897(7) 0.2779(7) 0.5000
C43_2 C 0.6868(6) 0.1498(7) 0.5000
H26_2 H 0.6632 0.1264 0.5000
C45_2 C 0.6866(7) 0.3512(7) 0.5000
C46_2 C 0.7492(6) 0.4134(8) 0.5000
H27_2 H 0.7742 0.3914 0.5000
C50_2 C 0.7541(6) 0.2179(7) 0.5000
H30_2 H 0.7778 0.2412 0.5000
C51_2 C 0.6718(7) 0.1940(7) 0.5000
H31_2 H 0.6385 0.2006 0.5000
C55_2 C 0.7677(7) 0.1733(7) 0.5000
H34_2 H 0.8010 0.1662 0.5000
N27_2 N 0.6436(6) 0.2914(6) 0.5000
H36_2 H 0.6187 0.2729 0.5000
N28_2 N 0.6409(6) 0.3384(6) 0.5000
N32 N 0.0544(4) 0.0096(4) 0.2943(16)
N37_2 N 0.8093(3) 0.0765(4) 0.7047(16)
N44_2 N 0.7009(4) 0.0528(4) 0.2946(15)
C66_2 C 0.9194(4) 0.0049(5) 0.1854(19)
N6_2 N 0.0544(4) 0.0096(4) 0.7057(16)
Pt3_4 Pt 0.87769(2) 0.03389(3) 1.0000
C35_2 C 0.9194(4) 0.0049(5) 0.8146(19)
C67_2 C 0.8350(4) 0.0627(4) 0.8126(19)
Pt7 Pt 0.37725(2) 0.96793(2) -0.0000
Fe1_4 Fe 0.5000 1.0000 0.5000
N1_2 N 0.4526(3) 0.9876(4) 0.3110(15)
C16_2 C 0.4257(4) 0.9809(4) 0.1971(18)
N18_2 N 0.5193(5) 0.9329(5) 0.5000
C31_2 C 0.4851(6) 0.6098(7) 0.5000
H19_2 H 0.4521 0.6018 0.5000
C32_2 C 0.5458(6) 0.8390(6) 0.5000
C38_2 C 0.5793(7) 0.6349(7) 0.5000
H23_2 H 0.6124 0.6426 0.5000
C41_2 C 0.5660(6) 0.9200(6) 0.5000
H24_2 H 0.5902 0.9429 0.5000
C42_2 C 0.4852(6) 0.8994(6) 0.5000
H25_2 H 0.4523 0.9081 0.5000
N24_2 N 0.5297(5) 0.7544(6) 0.5000
C47_2 C 0.4970(7) 0.6542(7) 0.5000
H28_2 H 0.4720 0.6762 0.5000
C48_2 C 0.5441(7) 0.6696(7) 0.5000
C49_2 C 0.5800(6) 0.8739(6) 0.5000
H29_2 H 0.6131 0.8663 0.5000
C52_2 C 0.5654(6) 0.5896(7) 0.5000
H32_2 H 0.5898 0.5669 0.5000
C53_2 C 0.4961(6) 0.8539(7) 0.5000
H33_2 H 0.4711 0.8319 0.5000
C54_2 C 0.5596(7) 0.7168(7) 0.5000
C56_2 C 0.5588(7) 0.7908(7) 0.5000
N25_2 N 0.6061(6) 0.7287(6) 0.5000
N26_2 N 0.6056(6) 0.7758(5) 0.5000
H35_2 H 0.6312 0.7934 0.5000
N30_2 N 0.4526(3) 0.9876(4) 0.6890(15)
C58 C 0.4257(4) 0.9809(4) 0.8029(18)
N33 N 0.2991(4) 0.9472(4) 0.2946(15)
C61 C 0.3280(4) 0.9547(5) 0.1915(18)
Pt5 Pt 0.12231(2) 0.96611(3) 0.0000
Pt7_2 Pt 0.37725(2) 0.96793(2) 1.0000
N2_2 N 0.1907(3) 0.9235(4) 0.2953(16)
N7_2 N 0.2658(6) 0.8628(5) 0.5000
N8_2 N 0.2991(4) 0.9472(4) 0.7054(15)
N9_2 N 0.2817(6) 0.6852(6) 0.5000
C1_2 C 0.3280(4) 0.9547(5) 0.8085(18)
C2_2 C 0.2946(7) 0.7702(7) 0.5000
C5_2 C 0.3344(7) 0.5667(7) 0.5000
H2_2 H 0.3674 0.5747 0.5000
C6_2 C 0.3207(7) 0.5202(7) 0.5000
H3_2 H 0.3448 0.4974 0.5000
C8_2 C 0.2402(7) 0.5407(7) 0.5000
H4_2 H 0.2075 0.5317 0.5000
C9_2 C 0.2995(7) 0.6007(7) 0.5000
C11_2 C 0.1650(4) 0.9373(4) 0.1874(19)
C12_2 C 0.3103(7) 0.7221(7) 0.5000
C15_2 C 0.3132(6) 0.8502(7) 0.5000
H8_2 H 0.3368 0.8736 0.5000
C17_2 C 0.3134(7) 0.6488(7) 0.5000
C18_2 C 0.2508(6) 0.5866(8) 0.5000
H9_2 H 0.2258 0.6086 0.5000
C22_2 C 0.2459(6) 0.7821(7) 0.5000
H12_2 H 0.2222 0.7588 0.5000
C23_2 C 0.3282(7) 0.8060(7) 0.5000
H13_2 H 0.3615 0.7994 0.5000
C27_2 C 0.2323(7) 0.8267(7) 0.5000
H16_2 H 0.1990 0.8338 0.5000
N13_2 N 0.3564(6) 0.7086(6) 0.5000
H18_2 H 0.3813 0.7271 0.5000
N14_2 N 0.3591(6) 0.6616(6) 0.5000
C60 C 0.0806(4) 0.9951(5) 0.1854(19)
N34 N 0.1907(3) 0.9235(4) 0.7047(16)
C62 C 0.1650(4) 0.9373(4) 0.8126(19)
Pt5_2 Pt 0.12231(2) 0.96611(3) 1.0000
C7_2 C 0.0806(4) 0.9951(5) 0.8146(19)
N20 N 0.9456(4) 0.9904(4) 0.7057(16)
N43_2 N 0.9456(4) 0.9904(4) 0.2943(16)
loop_
_geom_bond_atom_site_label_1
_geom_bond_atom_site_label_2
_geom_bond_site_symmetry_1
_geom_bond_site_symmetry_2
Pt6 C7 1_555 1_555
Fe2 N6 1_555 1_555
N6 C7 1_555 1_555
N31 C59 1_555 1_555
C59 Pt6 1_555 1_555
N35 Fe2 1_555 1_555
C63 N35 1_555 1_555
Pt6_2 C63 1_555 1_555
Fe10 N31 1_555 1_555
N40 Fe2 1_555 1_555
N41 Fe2 1_555 1_555
N42 Fe2 1_555 1_555
N43 Fe2 1_555 1_555
Pt8 C1 1_555 1_555
Fe10 N2 1_555 1_555
N2 C11 1_555 1_555
N3 C6 1_555 1_555
N7 Fe10 1_555 1_555
N8 Fe10 1_555 1_555
N9 C12 1_555 1_555
C1 N8 1_555 1_555
C2 C12 1_555 1_555
C5 H2 1_555 1_555
C6 C5 1_555 1_555
C8 N3 1_555 1_555
H4 C8 1_555 1_555
C9 C5 1_555 1_555
C11 Pt6_2 1_555 1_555
C12 N13 1_555 1_555
C15 N7 1_555 1_555
H8 C15 1_555 1_555
C17 N9 1_555 1_555
C18 C8 1_555 1_555
H9 C18 1_555 1_555
C22 C2 1_555 1_555
H12 C22 1_555 1_555
C23 C2 1_555 1_555
H13 C23 1_555 1_555
C27 N7 1_555 1_555
H16 C27 1_555 1_555
N13 H18 1_555 1_555
N14 C17 1_555 1_555
N36 Fe10 1_555 1_555
C64 N36 1_555 1_555
Pt8_2 C64 1_555 1_555
N38 Fe10 1_555 1_555
C69 Pt8 1_555 1_555
C9 C17 1_555 1_555
C9 C18 1_555 1_555
C15 C23 1_555 1_555
C22 C27 1_555 1_555
N13 N14 1_555 1_555
Fe1 N1 1_555 1_555
N1 C16 1_555 1_555
N4 Fe1 1_555 1_555
C4 C21 1_555 1_555
C10 H5 1_555 1_555
C13 N4 1_555 1_555
H6 C13 1_555 1_555
C16 Pt8_2 1_555 1_555
N10 C26 1_555 1_555
C20 C10 1_555 1_555
C21 C13 1_555 1_555
H11 C21 1_555 1_555
C24 N5 1_555 1_555
H14 C24 1_555 1_555
C26 C20 1_555 1_555
C28 C4 1_555 1_555
N11 C26 1_555 1_555
N12 C28 1_555 1_555
H17 N12 1_555 1_555
C31 H19 1_555 1_555
H25 C42 1_555 1_555
C47 C31 1_555 1_555
H28 C47 1_555 1_555
H33 C53 1_555 1_555
N30 Fe1 1_555 1_555
C69 N30 1_555 1_555
Fe8_2 N5 1_555 1_555
C10 C24 1_555 1_555
N10 C28 1_555 1_555
N11 N12 1_555 1_555
C42 C53 1_555 1_555
Pt3 C35 1_555 1_555
N42 C35 1_555 1_555
C67 Pt3 1_555 1_555
Pt4 C29 1_555 1_555
Fe4 N16 1_555 1_555
N16 C39 1_555 1_555
N17 C34 1_555 1_555
N21 Fe4 1_555 1_555
N22 Fe4 1_555 1_555
N23 C40 1_555 1_555
C29 N22 1_555 1_555
C30 C40 1_555 1_555
C33 H20 1_555 1_555
C34 C33 1_555 1_555
C36 N17 1_555 1_555
H22 C36 1_555 1_555
C37 C33 1_555 1_555
C39 Pt3_2 1_555 1_555
C40 N27 1_555 1_555
C43 N21 1_555 1_555
H26 C43 1_555 1_555
C45 N23 1_555 1_555
C46 C36 1_555 1_555
H27 C46 1_555 1_555
C50 C30 1_555 1_555
H30 C50 1_555 1_555
C51 C30 1_555 1_555
H31 C51 1_555 1_555
C55 N21 1_555 1_555
H34 C55 1_555 1_555
N27 H36 1_555 1_555
N28 C45 1_555 1_555
N37 Fe4 1_555 1_555
N39 Fe4 1_555 1_555
N44 Fe4 1_555 1_555
C66 Pt3_2 1_555 1_555
C68 Pt4 1_555 1_555
C37 C45 1_555 1_555
C37 C46 1_555 1_555
C43 C51 1_555 1_555
C50 C55 1_555 1_555
N27 N28 1_555 1_555
C3 H1 1_555 1_555
H7 C14 1_555 1_555
C19 C3 1_555 1_555
H10 C19 1_555 1_555
H15 C25 1_555 1_555
N15 Fe1_2 1_555 1_555
N18 Fe1_2 1_555 1_555
C32 C49 1_555 1_555
C38 H23 1_555 1_555
C41 N18 1_555 1_555
H24 C41 1_555 1_555
C44 Pt4_2 1_555 1_555
N24 C54 1_555 1_555
C48 C38 1_555 1_555
C49 C41 1_555 1_555
H29 C49 1_555 1_555
C52 N19 1_555 1_555
H32 C52 1_555 1_555
C54 C48 1_555 1_555
C56 C32 1_555 1_555
N25 C54 1_555 1_555
N26 C56 1_555 1_555
H35 N26 1_555 1_555
N29 Fe1_2 1_555 1_555
C68 N29 1_555 1_555
Fe8_3 N19 1_555 1_555
C65 Pt4_2 1_555 1_555
C14 C25 1_555 1_555
N15 C44 1_555 1_555
C38 C52 1_555 1_555
N24 C56 1_555 1_555
N25 N26 1_555 1_555
N37 C67 1_555 1_555
C66 N43 1_555 1_555
C65 N44 1_555 1_555
N4_2 Fe1_3 1_555 1_555
N40 C3_2 1_555 1_555
C3_2 H1_2 1_555 1_555
C4_2 C21_2 1_555 1_555
C10_2 H5_2 1_555 1_555
C13_2 N4_2 1_555 1_555
H6_2 C13_2 1_555 1_555
C14_2 N4_2 1_555 1_555
H7_2 C14_2 1_555 1_555
N10_2 C26_2 1_555 1_555
C19_2 C3_2 1_555 1_555
H10_2 C19_2 1_555 1_555
C20_2 C10_2 1_555 1_555
C21_2 C13_2 1_555 1_555
H11_2 C21_2 1_555 1_555
C24_2 N40 1_555 1_555
H14_2 C24_2 1_555 1_555
C25_2 C4_2 1_555 1_555
H15_2 C25_2 1_555 1_555
C26_2 C20_2 1_555 1_555
C28_2 C4_2 1_555 1_555
N11_2 C26_2 1_555 1_555
N12_2 C28_2 1_555 1_555
H17_2 N12_2 1_555 1_555
N15_2 Fe1_3 1_555 1_555
C44_2 Pt9 1_555 1_555
N29_2 Fe1_3 1_555 1_555
C57 N29_2 1_555 1_555
Pt9_2 C57 1_555 1_555
C65_2 Pt9 1_555 1_555
C10_2 C24_2 1_555 1_555
C14_2 C25_2 1_555 1_555
N10_2 C28_2 1_555 1_555
C19_2 C20_2 1_555 1_555
N11_2 N12_2 1_555 1_555
N15_2 C44_2 1_555 1_555
Pt9_2 C29_2 1_555 1_555
Fe12 N16_2 1_555 1_555
N16_2 C39_2 1_555 1_555
N39 C34_2 1_555 1_555
N21_2 Fe12 1_555 1_555
N22_2 Fe12 1_555 1_555
N23_2 C40_2 1_555 1_555
C29_2 N22_2 1_555 1_555
C30_2 C40_2 1_555 1_555
C33_2 H20_2 1_555 1_555
C34_2 C33_2 1_555 1_555
H21_2 C34_2 1_555 1_555
C36_2 N39 1_555 1_555
H22_2 C36_2 1_555 1_555
C37_2 C33_2 1_555 1_555
C39_2 Pt3_3 1_555 1_555
C40_2 N27_2 1_555 1_555
C43_2 N21_2 1_555 1_555
H26_2 C43_2 1_555 1_555
C45_2 N23_2 1_555 1_555
C46_2 C36_2 1_555 1_555
H27_2 C46_2 1_555 1_555
C50_2 C30_2 1_555 1_555
H30_2 C50_2 1_555 1_555
C51_2 C30_2 1_555 1_555
H31_2 C51_2 1_555 1_555
C55_2 N21_2 1_555 1_555
H34_2 C55_2 1_555 1_555
N27_2 H36_2 1_555 1_555
N28_2 C45_2 1_555 1_555
Fe8 N32 1_555 1_555
N37_2 Fe12 1_555 1_555
N44_2 Fe12 1_555 1_555
C66_2 Pt3_3 1_555 1_555
C37_2 C45_2 1_555 1_555
C37_2 C46_2 1_555 1_555
C43_2 C51_2 1_555 1_555
C50_2 C55_2 1_555 1_555
N27_2 N28_2 1_555 1_555
Fe8 N6_2 1_555 1_555
Pt3_4 C35_2 1_555 1_555
C67_2 Pt3_4 1_555 1_555
Fe1_4 N1_2 1_555 1_555
N1_2 C16_2 1_555 1_555
C16_2 Pt7 1_555 1_555
N18_2 Fe1_4 1_555 1_555
N41 C31_2 1_555 1_555
C31_2 H19_2 1_555 1_555
C32_2 C49_2 1_555 1_555
C38_2 H23_2 1_555 1_555
C41_2 N18_2 1_555 1_555
H24_2 C41_2 1_555 1_555
C42_2 N18_2 1_555 1_555
H25_2 C42_2 1_555 1_555
N24_2 C54_2 1_555 1_555
C47_2 C31_2 1_555 1_555
H28_2 C47_2 1_555 1_555
C48_2 C38_2 1_555 1_555
C49_2 C41_2 1_555 1_555
H29_2 C49_2 1_555 1_555
C52_2 N41 1_555 1_555
H32_2 C52_2 1_555 1_555
C53_2 C32_2 1_555 1_555
H33_2 C53_2 1_555 1_555
C54_2 C48_2 1_555 1_555
C56_2 C32_2 1_555 1_555
N25_2 C54_2 1_555 1_555
N26_2 C56_2 1_555 1_555
H35_2 N26_2 1_555 1_555
N30_2 Fe1_4 1_555 1_555
C58 N30_2 1_555 1_555
N33 C61 1_555 1_555
C61 Pt7 1_555 1_555
Pt7_2 C58 1_555 1_555
Fe11 N33 1_555 1_555
C38_2 C52_2 1_555 1_555
C42_2 C53_2 1_555 1_555
N24_2 C56_2 1_555 1_555
C47_2 C48_2 1_555 1_555
N25_2 N26_2 1_555 1_555
Pt7_2 C1_2 1_555 1_555
Fe11 N2_2 1_555 1_555
N2_2 C11_2 1_555 1_555
N38 C6_2 1_555 1_555
N7_2 Fe11 1_555 1_555
N8_2 Fe11 1_555 1_555
N9_2 C12_2 1_555 1_555
C1_2 N8_2 1_555 1_555
C2_2 C12_2 1_555 1_555
C5_2 H2_2 1_555 1_555
C6_2 C5_2 1_555 1_555
H3_2 C6_2 1_555 1_555
C8_2 N38 1_555 1_555
H4_2 C8_2 1_555 1_555
C9_2 C5_2 1_555 1_555
C11_2 Pt5 1_555 1_555
C12_2 N13_2 1_555 1_555
C15_2 N7_2 1_555 1_555
H8_2 C15_2 1_555 1_555
C17_2 N9_2 1_555 1_555
C18_2 C8_2 1_555 1_555
H9_2 C18_2 1_555 1_555
C22_2 C2_2 1_555 1_555
H12_2 C22_2 1_555 1_555
C23_2 C2_2 1_555 1_555
H13_2 C23_2 1_555 1_555
C27_2 N7_2 1_555 1_555
H16_2 C27_2 1_555 1_555
N13_2 H18_2 1_555 1_555
N14_2 C17_2 1_555 1_555
C60 Pt5 1_555 1_555
N34 Fe11 1_555 1_555
C62 N34 1_555 1_555
Pt5_2 C62 1_555 1_555
C9_2 C17_2 1_555 1_555
C9_2 C18_2 1_555 1_555
C15_2 C23_2 1_555 1_555
C22_2 C27_2 1_555 1_555
N13_2 N14_2 1_555 1_555
Pt5_2 C7_2 1_555 1_555
Fe8_4 N20 1_555 1_555
N43_2 Fe8_4 1_555 1_555
N44_2 C65_2 1_555 1_555
C67_2 N37_2 1_555 1_555

#END
