
###############################################################################
#
# This file contains modified crystal structure data generated from the
# MOF subset of the Cambridge Structural Database (CSD) v543 
# hosted by the Cambridge Crystallographic Data Centre (CCDC).
#
# This work is licensed under the Creative Commons
# Attribution-NonCommercial-ShareAlike 4.0 International License.
# To view a copy of this license, visit
# http://creativecommons.org/licenses/by-nc-sa/4.0/
# or send a letter to
# Creative Commons, PO Box 1866, Mountain View, CA 94042, USA.
#
# CIF created using the CSD Python API on 29 September 2022
# The structure has been converted into the P1 space group
# The structure has a 3D framework
# The original CSD entry QERZUI is in the monoclinic crystal system
# The framework has been calculated to contain at least 10.0% void space
# The void calculation uses a probe of radius 1.32A, grid spacing 0.4
#
###############################################################################

data_QERZUI
_chemical_formula_moiety         '(C48 H32 Cu4 N7 O16)n'
_symmetry_cell_setting           triclinic
_symmetry_space_group_name_H-M   'P 1'
_symmetry_Int_Tables_number      1
_space_group_name_Hall           'P 1'
loop_
_symmetry_equiv_pos_site_id
_symmetry_equiv_pos_as_xyz
1 x,y,z
_cell_length_a                   5.0328(10)
_cell_length_b                   24.855(5)
_cell_length_c                   11.176(2)
_cell_angle_alpha                90.00
_cell_angle_beta                 99.35(3)
_cell_angle_gamma                90.00
_cell_volume                     1379.44
loop_
_atom_site_label
_atom_site_type_symbol
_atom_site_fract_x
_atom_site_fract_y
_atom_site_fract_z
Cu3 Cu 0.21406(7) 0.386500(14) 0.69775(5)
Cu1 Cu 0.21406(7) 0.613500(14) 0.19775(5)
O1 O 0.4014(7) 0.67043(15) 0.3030(3)
O2 O 0.5815(6) 0.39856(14) 0.5975(3)
C1 C 0.3856(8) 0.73227(17) 0.4616(4)
C2 C 0.2819(8) 0.68247(16) 0.3915(4)
C3 C 0.2772(8) 0.74810(16) 0.5636(4)
H1 H 0.1428 0.7277 0.5899
O3 O 0.0918(9) 0.65768(14) 0.4201(5)
N1 N 0.3794(6) 0.55498(15) 0.3129(3)
C4 C 0.3601(8) 0.46840(15) 0.4051(4)
H2 H 0.2660 0.4365 0.4106
C5 C 0.2560(8) 0.50785(16) 0.3232(4)
H3 H 0.0929 0.5013 0.2730
C6 C 0.7343(8) 0.52603(16) 0.4668(4)
H4 H 0.8996 0.5334 0.5144
C7 C 0.6062(7) 0.47689(14) 0.4789(3)
C8 C 0.7267(7) 0.43450(13) 0.5676(3)
C9 C 0.6148(8) 0.56369(15) 0.3839(4)
H5 H 0.7022 0.5963 0.3775
O4 O 0.9789(6) 0.43926(11) 0.6042(3)
N2 N 0.5656(7) 0.82482(16) 0.5905(3)
C10 C 0.5832(11) 0.76446(17) 0.4252(5)
H6 H 0.6589 0.7555 0.3573
C11 C 0.6666(9) 0.81063(18) 0.4923(4)
H7 H 0.7980 0.8323 0.4673
C12 C 0.3716(7) 0.79422(15) 0.6250(3)
H8 H 0.2982 0.8045 0.6927
N3 N 0.0656(7) 0.67518(16) 0.0905(3)
Cu2 Cu 0.71406(7) 0.886500(14) 0.69775(5)
O5 O 0.5815(6) 0.60144(14) 0.0975(3)
O6 O 0.9789(6) 0.56074(11) 0.1042(3)
C3_2 C 0.2772(8) 0.25190(16) 0.0636(4)
H1_2 H 0.1428 0.2723 0.0899
H4_2 H 0.8996 0.4666 0.0144
C8_2 C 0.7267(7) 0.56550(13) 0.0676(3)
N2_2 N 0.5656(7) 0.17518(16) 0.0905(3)
C12_2 C 0.3716(7) 0.20578(15) 0.1250(3)
H8_2 H 0.2982 0.1955 0.1927
Cu2_2 Cu 0.71406(7) 0.113500(14) 0.19775(5)
O1_2 O 0.4014(7) 0.32957(15) 0.8030(3)
C1_2 C 0.3856(8) 0.26773(17) 0.9616(4)
C2_2 C 0.2819(8) 0.31753(16) 0.8915(4)
O3_2 O 0.0918(9) 0.34232(14) 0.9201(5)
N1_2 N 0.3794(6) 0.44502(15) 0.8129(3)
C4_2 C 0.3601(8) 0.53160(15) 0.9051(4)
H2_2 H 0.2660 0.5635 0.9106
C5_2 C 0.2560(8) 0.49215(16) 0.8232(4)
H3_2 H 0.0929 0.4987 0.7730
C6_2 C 0.7343(8) 0.47397(16) 0.9668(4)
C7_2 C 0.6062(7) 0.52311(14) 0.9789(3)
C9_2 C 0.6148(8) 0.43631(15) 0.8839(4)
H5_2 H 0.7022 0.4037 0.8775
C10_2 C 0.5832(11) 0.23554(17) 0.9252(5)
H6_2 H 0.6589 0.2445 0.8573
C11_2 C 0.6666(9) 0.18937(18) 0.9923(4)
H7_2 H 0.7980 0.1677 0.9673
N3_2 N 0.0656(7) 0.32482(16) 0.5905(3)
C6_3 C 0.2343(8) 0.02603(16) 0.4668(4)
H4_3 H 0.3996 0.0334 0.5144
C9_3 C 0.1148(8) 0.06369(15) 0.3839(4)
H5_3 H 0.2022 0.0963 0.3775
C10_3 C 0.0832(11) 0.26446(17) 0.4252(5)
H6_3 H 0.1589 0.2555 0.3573
C11_3 C 0.1666(9) 0.31063(18) 0.4923(4)
H7_3 H 0.2980 0.3323 0.4673
O5_2 O 0.0815(6) 0.10144(14) 0.0975(3)
O2_2 O 0.0815(6) 0.89856(14) 0.5975(3)
C7_3 C 0.1062(7) 0.97689(14) 0.4789(3)
C8_3 C 0.2267(7) 0.93450(13) 0.5676(3)
O4_2 O 0.4789(6) 0.93926(11) 0.6042(3)
O1_3 O 0.9014(7) 0.17043(15) 0.3030(3)
C1_3 C 0.8856(8) 0.23227(17) 0.4616(4)
C2_3 C 0.7819(8) 0.18247(16) 0.3915(4)
C3_3 C 0.7772(8) 0.24810(16) 0.5636(4)
H1_3 H 0.6428 0.2277 0.5899
O3_3 O 0.5918(9) 0.15768(14) 0.4201(5)
N1_3 N 0.8794(6) 0.05498(15) 0.3129(3)
C5_3 C 0.7560(8) 0.00785(16) 0.3232(4)
H3_3 H 0.5929 0.0013 0.2730
C12_3 C 0.8716(7) 0.29422(15) 0.6250(3)
H8_3 H 0.7982 0.3045 0.6927
O6_2 O 0.4789(6) 0.06074(11) 0.1042(3)
C4_3 C 0.8601(8) 0.96840(15) 0.4051(4)
H2_3 H 0.7660 0.9365 0.4106
C8_4 C 0.2267(7) 0.06550(13) 0.0676(3)
H4_4 H 0.3996 0.9666 0.0144
C6_4 C 0.2343(8) 0.97397(16) 0.9668(4)
C9_4 C 0.1148(8) 0.93631(15) 0.8839(4)
H5_4 H 0.2022 0.9037 0.8775
C10_4 C 0.0832(11) 0.73554(17) 0.9252(5)
H6_4 H 0.1589 0.7445 0.8573
C11_4 C 0.1666(9) 0.68937(18) 0.9923(4)
H7_4 H 0.2980 0.6677 0.9673
O1_4 O 0.9014(7) 0.82957(15) 0.8030(3)
C1_4 C 0.8856(8) 0.76773(17) 0.9616(4)
C2_4 C 0.7819(8) 0.81753(16) 0.8915(4)
O3_4 O 0.5918(9) 0.84232(14) 0.9201(5)
N1_4 N 0.8794(6) 0.94502(15) 0.8129(3)
C5_4 C 0.7560(8) 0.99215(16) 0.8232(4)
H3_4 H 0.5929 0.9987 0.7730
C7_4 C 0.1062(7) 0.02311(14) 0.9789(3)
C4_4 C 0.8601(8) 0.03160(15) 0.9051(4)
H2_4 H 0.7660 0.0635 0.9106
C3_4 C 0.7772(8) 0.75190(16) 0.0636(4)
H1_4 H 0.6428 0.7723 0.0899
C12_4 C 0.8716(7) 0.70578(15) 0.1250(3)
H8_4 H 0.7982 0.6955 0.1927
loop_
_geom_bond_atom_site_label_1
_geom_bond_atom_site_label_2
_geom_bond_site_symmetry_1
_geom_bond_site_symmetry_2
Cu1 O1 1_555 1_555
O1 C2 1_555 1_555
O2 C8 1_555 1_555
C1 C2 1_555 1_555
C2 O3 1_555 1_555
C3 C1 1_555 1_555
H1 C3 1_555 1_555
N1 Cu1 1_555 1_555
C4 H2 1_555 1_555
C5 N1 1_555 1_555
H3 C5 1_555 1_555
C6 H4 1_555 1_555
C7 C4 1_555 1_555
C8 C7 1_555 1_555
C9 N1 1_555 1_555
H5 C9 1_555 1_555
O4 C8 1_555 1_555
N2 C11 1_555 1_555
C10 C1 1_555 1_555
H6 C10 1_555 1_555
C11 C10 1_555 1_555
H7 C11 1_555 1_555
C12 C3 1_555 1_555
H8 C12 1_555 1_555
N3 Cu1 1_555 1_555
Cu2 N2 1_555 1_555
O5 Cu1 1_555 1_555
Cu3 O2 1_555 1_555
C4 C5 1_555 1_555
C6 C7 1_555 1_555
C6 C9 1_555 1_555
N2 C12 1_555 1_555
O5 C8_2 1_555 1_555
H1_2 C3_2 1_555 1_555
O6 C8_2 1_555 1_555
C12_2 C3_2 1_555 1_555
H8_2 C12_2 1_555 1_555
Cu2_2 N2_2 1_555 1_555
N2_2 C12_2 1_555 1_555
Cu3 O1_2 1_555 1_555
O1_2 C2_2 1_555 1_555
C1_2 C2_2 1_555 1_555
C2_2 O3_2 1_555 1_555
N1_2 Cu3 1_555 1_555
C4_2 H2_2 1_555 1_555
C5_2 N1_2 1_555 1_555
H3_2 C5_2 1_555 1_555
C7_2 C4_2 1_555 1_555
C9_2 N1_2 1_555 1_555
H5_2 C9_2 1_555 1_555
C10_2 C1_2 1_555 1_555
H6_2 C10_2 1_555 1_555
C11_2 C10_2 1_555 1_555
H7_2 C11_2 1_555 1_555
N3_2 Cu3 1_555 1_555
C4_2 C5_2 1_555 1_555
C6_2 C7_2 1_555 1_555
C6_2 C9_2 1_555 1_555
C6_3 H4_3 1_555 1_555
H5_3 C9_3 1_555 1_555
N3_2 C11_3 1_555 1_555
H6_3 C10_3 1_555 1_555
C11_3 C10_3 1_555 1_555
H7_3 C11_3 1_555 1_555
C6_3 C9_3 1_555 1_555
O2_2 C8_3 1_555 1_555
C8_3 C7_3 1_555 1_555
O4_2 C8_3 1_555 1_555
Cu2 O4_2 1_555 1_555
Cu2_2 O1_3 1_555 1_555
O1_3 C2_3 1_555 1_555
C1_3 C2_3 1_555 1_555
C2_3 O3_3 1_555 1_555
C3_3 C1_3 1_555 1_555
H1_3 C3_3 1_555 1_555
N1_3 Cu2_2 1_555 1_555
C5_3 N1_3 1_555 1_555
H3_3 C5_3 1_555 1_555
C12_3 C3_3 1_555 1_555
H8_3 C12_3 1_555 1_555
O6_2 Cu2_2 1_555 1_555
C4_3 H2_3 1_555 1_555
O5_2 C8_4 1_555 1_555
O6_2 C8_4 1_555 1_555
H5_4 C9_4 1_555 1_555
H6_4 C10_4 1_555 1_555
C11_4 C10_4 1_555 1_555
H7_4 C11_4 1_555 1_555
C6_4 C9_4 1_555 1_555
Cu2 O1_4 1_555 1_555
O1_4 C2_4 1_555 1_555
C1_4 C2_4 1_555 1_555
C2_4 O3_4 1_555 1_555
N1_4 Cu2 1_555 1_555
C5_4 N1_4 1_555 1_555
H3_4 C5_4 1_555 1_555
C4_4 H2_4 1_555 1_555
H1_4 C3_4 1_555 1_555
C12_4 C3_4 1_555 1_555
H8_4 C12_4 1_555 1_555

#END
