
###############################################################################
#
# This file contains modified crystal structure data generated from the
# MOF subset of the Cambridge Structural Database (CSD) v543 
# hosted by the Cambridge Crystallographic Data Centre (CCDC).
#
# This work is licensed under the Creative Commons
# Attribution-NonCommercial-ShareAlike 4.0 International License.
# To view a copy of this license, visit
# http://creativecommons.org/licenses/by-nc-sa/4.0/
# or send a letter to
# Creative Commons, PO Box 1866, Mountain View, CA 94042, USA.
#
# CIF created using the CSD Python API on 29 September 2022
# The structure has been converted into the P1 space group
# The structure has a 3D framework
# The original CSD entry QESYUJ is in the monoclinic crystal system
# The original CSD entry QESYUJ is in a Sohncke space group
# The framework has been calculated to contain at least 10.0% void space
# The void calculation uses a probe of radius 1.32A, grid spacing 0.4
#
###############################################################################

data_QESYUJ
_chemical_formula_moiety         '(C64 H80 Br15 Cu8 N16)n'
_symmetry_cell_setting           triclinic
_symmetry_space_group_name_H-M   'P 1'
_symmetry_Int_Tables_number      1
_space_group_name_Hall           'P 1'
loop_
_symmetry_equiv_pos_site_id
_symmetry_equiv_pos_as_xyz
1 x,y,z
_cell_length_a                   13.2917(12)
_cell_length_b                   17.1187(18)
_cell_length_c                   11.2791(12)
_cell_angle_alpha                90
_cell_angle_beta                 126.00(1)
_cell_angle_gamma                90
_cell_volume                     2076.27
loop_
_atom_site_label
_atom_site_type_symbol
_atom_site_fract_x
_atom_site_fract_y
_atom_site_fract_z
Br5 Br 0.31444(4) 0.50852(3) 0.14604(4)
Br6 Br 0.5000 0.57320(4) 0.0000
N11 N 0.4578(4) 0.3675(3) 0.0180(4)
Br1 Br 0.0000 0.37509(4) 0.0000
C1 C 0.0376(4) 0.4507(3) 0.3662(5)
C2 C 0.0523(5) 0.4477(3) 0.5015(6)
C6 C 0.1512(5) 0.4500(4) 0.3683(5)
H3 H 0.1355 0.4788 0.2859
H4 H 0.1683 0.3968 0.3586
C15 C 0.0034(5) 0.7413(4) 0.3385(6)
H16 H 0.0487 0.7779 0.3218
H17 H 0.0461 0.6921 0.3644
Cu4 Cu 0.09510(6) 0.48164(3) 0.95148(7)
Cu5 Cu 0.35494(6) 0.46956(3) 0.96803(8)
Cu8 Cu 0.14506(6) 0.96956(3) 0.03197(8)
Br6_2 Br 0.5000 0.57320(4) 1.0000
N5 N 0.0755(4) 0.4579(3) 0.7601(4)
N7 N 0.1821(3) 0.4579(3) 0.7641(4)
C19 C 0.1708(4) 0.4504(3) 0.6398(5)
C20 C 0.2860(5) 0.4449(4) 0.6441(5)
H21 H 0.3068 0.3909 0.6474
H22 H 0.3544 0.4699 0.7311
C21 C 0.2647(4) 0.4846(3) 0.5085(7)
C23 C 0.2459(7) 0.5720(4) 0.5110(9)
H25 H 0.2566 0.5971 0.4430
H26 H 0.3056 0.5931 0.6069
H27 H 0.1638 0.5831 0.4828
C24 C 0.3794(5) 0.4687(6) 0.5097(7)
H28 H 0.3650 0.4884 0.4213
H29 H 0.3955 0.4136 0.5177
H30 H 0.4508 0.4938 0.5931
Br1_2 Br 0.0000 0.37509(4) 1.0000
N8 N 0.0316(4) 0.5891(2) 0.9690(4)
N9 N 0.0422(4) 0.8675(3) 0.9820(4)
C25 C 0.0659(5) 0.6552(3) 0.9425(5)
C26 C 0.0350(4) 0.7279(3) 0.9731(5)
C27 C 0.0752(4) 0.8015(3) 0.9554(5)
C28 C 0.1597(5) 0.8008(3) 0.9080(6)
H31 H 0.2446 0.7971 0.9923
H32 H 0.1500 0.8487 0.8580
C29 C 0.1274(5) 0.7324(3) 0.8031(5)
C30 C 0.1379(5) 0.6546(3) 0.8785(6)
H33 H 0.1082 0.6129 0.8086
H34 H 0.2239 0.6448 0.9552
H35 H 0.0009 0.7595 0.5841
C32 C 0.2234(6) 0.7313(4) 0.7674(7)
H38 H 0.3063 0.7283 0.8561
H39 H 0.2141 0.7779 0.7145
H40 H 0.2076 0.6873 0.7059
Cu1 Cu 0.90490(6) 0.48164(3) 0.04852(7)
Cu2 Cu 0.64506(6) 0.46956(3) 0.03197(8)
Br1_3 Br 1.0000 0.37509(4) 0.0000
N1 N 0.9245(4) 0.4579(3) 0.2399(4)
N2 N 0.8179(3) 0.4579(3) 0.2359(4)
N3 N 0.9684(4) 0.5891(2) 0.0310(4)
N4 N 0.9578(4) 0.8675(3) 0.0180(4)
C3 C 0.8292(4) 0.4504(3) 0.3602(5)
C4 C 0.7140(5) 0.4449(4) 0.3559(5)
H1 H 0.6932 0.3909 0.3526
H2 H 0.6456 0.4699 0.2689
C5 C 0.7353(4) 0.4846(3) 0.4915(7)
C7 C 0.7541(7) 0.5720(4) 0.4890(9)
H5 H 0.7434 0.5971 0.5570
H6 H 0.6944 0.5931 0.3931
H7 H 0.8362 0.5831 0.5172
C8 C 0.6206(5) 0.4687(6) 0.4903(7)
H8 H 0.6350 0.4884 0.5787
H9 H 0.6045 0.4136 0.4823
H10 H 0.5492 0.4938 0.4069
C9 C 0.9341(5) 0.6552(3) 0.0575(5)
C10 C 0.9650(4) 0.7279(3) 0.0269(5)
C11 C 0.9248(4) 0.8015(3) 0.0446(5)
C12 C 0.8403(5) 0.8008(3) 0.0920(6)
H11 H 0.7554 0.7971 0.0077
H12 H 0.8500 0.8487 0.1420
C13 C 0.8726(5) 0.7324(3) 0.1969(5)
C14 C 0.8621(5) 0.6546(3) 0.1215(6)
H13 H 0.8918 0.6129 0.1914
H14 H 0.7761 0.6448 0.0448
H15 H 0.9991 0.7595 0.4159
C16 C 0.7766(6) 0.7313(4) 0.2326(7)
H18 H 0.6937 0.7283 0.1439
H19 H 0.7859 0.7779 0.2855
H20 H 0.7924 0.6873 0.2941
C17 C 0.9624(4) 0.4507(3) 0.6338(5)
C18 C 0.9477(5) 0.4477(3) 0.4985(6)
C22 C 0.8488(5) 0.4500(4) 0.6317(5)
H23 H 0.8645 0.4788 0.7141
H24 H 0.8317 0.3968 0.6414
Br1_4 Br 1.0000 0.37509(4) 1.0000
Br2 Br 0.68556(4) 0.50852(3) 0.85396(4)
Cu7 Cu 0.85494(6) 0.96956(3) 0.96803(8)
N10 N 0.5422(4) 0.3675(3) 0.9820(4)
C31 C 0.9966(5) 0.7413(4) 0.6615(6)
H36 H 0.9513 0.7779 0.6782
H37 H 0.9539 0.6921 0.6356
Br6_3 Br 0.0000 0.07320(4) 0.0000
Br6_4 Br 0.0000 0.07320(4) 1.0000
Br5_2 Br 0.81444(4) 0.00852(3) 0.14604(4)
Br6_5 Br 1.0000 0.07320(4) 0.0000
N3_2 N 0.4684(4) 0.0891(2) 0.0310(4)
C7_2 C 0.2541(7) 0.0720(4) 0.4890(9)
H5_2 H 0.2434 0.0971 0.5570
H6_2 H 0.1944 0.0931 0.3931
H7_2 H 0.3362 0.0831 0.5172
C9_2 C 0.4341(5) 0.1552(3) 0.0575(5)
C10_2 C 0.4650(4) 0.2279(3) 0.0269(5)
C11_2 C 0.4248(4) 0.3015(3) 0.0446(5)
C12_2 C 0.3403(5) 0.3008(3) 0.0920(6)
H11_2 H 0.2554 0.2971 0.0077
H12_2 H 0.3500 0.3487 0.1420
C13_2 C 0.3726(5) 0.2324(3) 0.1969(5)
C14_2 C 0.3621(5) 0.1546(3) 0.1215(6)
H13_2 H 0.3918 0.1129 0.1914
H14_2 H 0.2761 0.1448 0.0448
C15_2 C 0.5034(5) 0.2413(4) 0.3385(6)
H15_2 H 0.4991 0.2595 0.4159
H16_2 H 0.5487 0.2779 0.3218
H17_2 H 0.5461 0.1921 0.3644
C16_2 C 0.2766(6) 0.2313(4) 0.2326(7)
H18_2 H 0.1937 0.2283 0.1439
H19_2 H 0.2859 0.2779 0.2855
H20_2 H 0.2924 0.1873 0.2941
Br6_6 Br 1.0000 0.07320(4) 1.0000
C23_2 C 0.7459(7) 0.0720(4) 0.5110(9)
H25_2 H 0.7566 0.0971 0.4430
H26_2 H 0.8056 0.0931 0.6069
H27_2 H 0.6638 0.0831 0.4828
Br2_2 Br 0.18556(4) 0.00852(3) 0.85396(4)
N8_2 N 0.5316(4) 0.0891(2) 0.9690(4)
C25_2 C 0.5659(5) 0.1552(3) 0.9425(5)
C26_2 C 0.5350(4) 0.2279(3) 0.9731(5)
C27_2 C 0.5752(4) 0.3015(3) 0.9554(5)
C28_2 C 0.6597(5) 0.3008(3) 0.9080(6)
H31_2 H 0.7446 0.2971 0.9923
H32_2 H 0.6500 0.3487 0.8580
C29_2 C 0.6274(5) 0.2324(3) 0.8031(5)
C30_2 C 0.6379(5) 0.1546(3) 0.8785(6)
H33_2 H 0.6082 0.1129 0.8086
H34_2 H 0.7239 0.1448 0.9552
C31_2 C 0.4966(5) 0.2413(4) 0.6615(6)
H35_2 H 0.5009 0.2595 0.5841
H36_2 H 0.4513 0.2779 0.6782
H37_2 H 0.4539 0.1921 0.6356
C32_2 C 0.7234(6) 0.2313(4) 0.7674(7)
H38_2 H 0.8063 0.2283 0.8561
H39_2 H 0.7141 0.2779 0.7145
H40_2 H 0.7076 0.1873 0.7059
Cu1_2 Cu 0.40490(6) 0.98164(3) 0.04852(7)
Br1_5 Br 0.5000 0.87509(4) 0.0000
N1_2 N 0.4245(4) 0.9579(3) 0.2399(4)
N2_2 N 0.3179(3) 0.9579(3) 0.2359(4)
C1_2 C 0.5376(4) 0.9507(3) 0.3662(5)
C2_2 C 0.5523(5) 0.9477(3) 0.5015(6)
C3_2 C 0.3292(4) 0.9504(3) 0.3602(5)
C4_2 C 0.2140(5) 0.9449(4) 0.3559(5)
H1_2 H 0.1932 0.8909 0.3526
H2_2 H 0.1456 0.9699 0.2689
C5_2 C 0.2353(4) 0.9846(3) 0.4915(7)
C6_2 C 0.6512(5) 0.9500(4) 0.3683(5)
H3_2 H 0.6355 0.9788 0.2859
H4_2 H 0.6683 0.8968 0.3586
C8_2 C 0.1206(5) 0.9687(6) 0.4903(7)
H8_2 H 0.1350 0.9884 0.5787
H9_2 H 0.1045 0.9136 0.4823
H10_2 H 0.0492 0.9938 0.4069
Cu4_2 Cu 0.59510(6) 0.98164(3) 0.95148(7)
N5_2 N 0.5755(4) 0.9579(3) 0.7601(4)
N7_2 N 0.6821(3) 0.9579(3) 0.7641(4)
C17_2 C 0.4624(4) 0.9507(3) 0.6338(5)
C18_2 C 0.4477(5) 0.9477(3) 0.4985(6)
C19_2 C 0.6708(4) 0.9504(3) 0.6398(5)
C20_2 C 0.7860(5) 0.9449(4) 0.6441(5)
H21_2 H 0.8068 0.8909 0.6474
H22_2 H 0.8544 0.9699 0.7311
C21_2 C 0.7647(4) 0.9846(3) 0.5085(7)
C22_2 C 0.3488(5) 0.9500(4) 0.6317(5)
H23_2 H 0.3645 0.9788 0.7141
H24_2 H 0.3317 0.8968 0.6414
C24_2 C 0.8794(5) 0.9687(6) 0.5097(7)
H28_2 H 0.8650 0.9884 0.4213
H29_2 H 0.8955 0.9136 0.5177
H30_2 H 0.9508 0.9938 0.5931
Br1_6 Br 0.5000 0.87509(4) 1.0000
loop_
_geom_bond_atom_site_label_1
_geom_bond_atom_site_label_2
_geom_bond_site_symmetry_1
_geom_bond_site_symmetry_2
C2 C1 1_555 1_555
C6 C1 1_555 1_555
H3 C6 1_555 1_555
H4 C6 1_555 1_555
H16 C15 1_555 1_555
H17 C15 1_555 1_555
Br6_2 Cu5 1_555 1_555
N5 Cu4 1_555 1_555
N7 Cu5 1_555 1_555
C19 C2 1_555 1_555
C20 C19 1_555 1_555
H21 C20 1_555 1_555
H22 C20 1_555 1_555
C21 C6 1_555 1_555
C23 C21 1_555 1_555
H25 C23 1_555 1_555
H26 C23 1_555 1_555
H27 C23 1_555 1_555
C24 C21 1_555 1_555
H28 C24 1_555 1_555
H29 C24 1_555 1_555
H30 C24 1_555 1_555
N5 N7 1_555 1_555
N7 C19 1_555 1_555
C20 C21 1_555 1_555
Br1_2 Cu4 1_555 1_555
C25 N8 1_555 1_555
C27 N9 1_555 1_555
C28 C27 1_555 1_555
H31 C28 1_555 1_555
H32 C28 1_555 1_555
C29 C28 1_555 1_555
C30 C25 1_555 1_555
H33 C30 1_555 1_555
H34 C30 1_555 1_555
C32 C29 1_555 1_555
H38 C32 1_555 1_555
H39 C32 1_555 1_555
H40 C32 1_555 1_555
Cu4 N8 1_555 1_555
C25 C26 1_555 1_555
C26 C27 1_555 1_555
C29 C30 1_555 1_555
Cu1 Br1_3 1_555 1_555
Br6 Cu2 1_555 1_555
N1 Cu1 1_555 1_555
N2 Cu2 1_555 1_555
N3 Cu1 1_555 1_555
N4 C11 1_555 1_555
C3 N2 1_555 1_555
C4 C3 1_555 1_555
H1 C4 1_555 1_555
H2 C4 1_555 1_555
C5 C4 1_555 1_555
C7 C5 1_555 1_555
H5 C7 1_555 1_555
H6 C7 1_555 1_555
H7 C7 1_555 1_555
C8 C5 1_555 1_555
H8 C8 1_555 1_555
H9 C8 1_555 1_555
H10 C8 1_555 1_555
C9 N3 1_555 1_555
C10 C9 1_555 1_555
C11 C10 1_555 1_555
C12 C11 1_555 1_555
H11 C12 1_555 1_555
H12 C12 1_555 1_555
C13 C12 1_555 1_555
C14 C9 1_555 1_555
H13 C14 1_555 1_555
H14 C14 1_555 1_555
C16 C13 1_555 1_555
H18 C16 1_555 1_555
H19 C16 1_555 1_555
H20 C16 1_555 1_555
C22 C5 1_555 1_555
H23 C22 1_555 1_555
H24 C22 1_555 1_555
N1 N2 1_555 1_555
C3 C18 1_555 1_555
C13 C14 1_555 1_555
C17 C18 1_555 1_555
C17 C22 1_555 1_555
H36 C31 1_555 1_555
H37 C31 1_555 1_555
N11 C11_2 1_555 1_555
H5_2 C7_2 1_555 1_555
H6_2 C7_2 1_555 1_555
H7_2 C7_2 1_555 1_555
C9_2 N3_2 1_555 1_555
C10_2 C9_2 1_555 1_555
C11_2 C10_2 1_555 1_555
C12_2 C11_2 1_555 1_555
H11_2 C12_2 1_555 1_555
H12_2 C12_2 1_555 1_555
C13_2 C12_2 1_555 1_555
C14_2 C9_2 1_555 1_555
H13_2 C14_2 1_555 1_555
H14_2 C14_2 1_555 1_555
C15_2 C13_2 1_555 1_555
H15_2 C15_2 1_555 1_555
H16_2 C15_2 1_555 1_555
H17_2 C15_2 1_555 1_555
C16_2 C13_2 1_555 1_555
H18_2 C16_2 1_555 1_555
H19_2 C16_2 1_555 1_555
H20_2 C16_2 1_555 1_555
H25_2 C23_2 1_555 1_555
H26_2 C23_2 1_555 1_555
H27_2 C23_2 1_555 1_555
C13_2 C14_2 1_555 1_555
C25_2 N8_2 1_555 1_555
C27_2 N10 1_555 1_555
C28_2 C27_2 1_555 1_555
H31_2 C28_2 1_555 1_555
H32_2 C28_2 1_555 1_555
C29_2 C28_2 1_555 1_555
C30_2 C25_2 1_555 1_555
H33_2 C30_2 1_555 1_555
H34_2 C30_2 1_555 1_555
C31_2 C29_2 1_555 1_555
H35_2 C31_2 1_555 1_555
H36_2 C31_2 1_555 1_555
H37_2 C31_2 1_555 1_555
C32_2 C29_2 1_555 1_555
H38_2 C32_2 1_555 1_555
H39_2 C32_2 1_555 1_555
H40_2 C32_2 1_555 1_555
C25_2 C26_2 1_555 1_555
C26_2 C27_2 1_555 1_555
C29_2 C30_2 1_555 1_555
Cu1_2 Br1_5 1_555 1_555
N1_2 Cu1_2 1_555 1_555
N2_2 Cu8 1_555 1_555
C1_2 N1_2 1_555 1_555
C2_2 C1_2 1_555 1_555
C3_2 N2_2 1_555 1_555
C4_2 C3_2 1_555 1_555
H1_2 C4_2 1_555 1_555
H2_2 C4_2 1_555 1_555
C5_2 C4_2 1_555 1_555
C6_2 C1_2 1_555 1_555
H3_2 C6_2 1_555 1_555
H4_2 C6_2 1_555 1_555
C8_2 C5_2 1_555 1_555
H8_2 C8_2 1_555 1_555
H9_2 C8_2 1_555 1_555
H10_2 C8_2 1_555 1_555
N5_2 Cu4_2 1_555 1_555
N7_2 Cu7 1_555 1_555
C17_2 N5_2 1_555 1_555
C18_2 C2_2 1_555 1_555
C19_2 C2_2 1_555 1_555
C20_2 C19_2 1_555 1_555
H21_2 C20_2 1_555 1_555
H22_2 C20_2 1_555 1_555
C21_2 C6_2 1_555 1_555
C22_2 C5_2 1_555 1_555
H23_2 C22_2 1_555 1_555
H24_2 C22_2 1_555 1_555
C24_2 C21_2 1_555 1_555
H28_2 C24_2 1_555 1_555
H29_2 C24_2 1_555 1_555
H30_2 C24_2 1_555 1_555
N1_2 N2_2 1_555 1_555
C3_2 C18_2 1_555 1_555
N5_2 N7_2 1_555 1_555
N7_2 C19_2 1_555 1_555
C17_2 C18_2 1_555 1_555
C17_2 C22_2 1_555 1_555
C20_2 C21_2 1_555 1_555
Br1_6 Cu4_2 1_555 1_555

#END
