
###############################################################################
#
# This file contains modified crystal structure data generated from the
# MOF subset of the Cambridge Structural Database (CSD) v543 
# hosted by the Cambridge Crystallographic Data Centre (CCDC).
#
# This work is licensed under the Creative Commons
# Attribution-NonCommercial-ShareAlike 4.0 International License.
# To view a copy of this license, visit
# http://creativecommons.org/licenses/by-nc-sa/4.0/
# or send a letter to
# Creative Commons, PO Box 1866, Mountain View, CA 94042, USA.
#
# CIF created using the CSD Python API on 29 September 2022
# The structure has been converted into the P1 space group
# The structure has a 3D framework
# The original CSD entry QETBAV is in the triclinic crystal system
# The framework has been calculated to contain at least 10.0% void space
# The void calculation uses a probe of radius 1.32A, grid spacing 0.4
#
###############################################################################

data_QETBAV
_chemical_formula_moiety         '(C36 H22 N4 O8 Zn2)n'
_symmetry_cell_setting           triclinic
_symmetry_space_group_name_H-M   'P 1'
_symmetry_Int_Tables_number      1
_space_group_name_Hall           'P 1'
loop_
_symmetry_equiv_pos_site_id
_symmetry_equiv_pos_as_xyz
1 x,y,z
_cell_length_a                   7.8673(16)
_cell_length_b                   10.4103(16)
_cell_length_c                   13.089(2)
_cell_angle_alpha                111.529(3)
_cell_angle_beta                 102.297(3)
_cell_angle_gamma                91.516(2)
_cell_volume                     967.855
loop_
_atom_site_label
_atom_site_type_symbol
_atom_site_fract_x
_atom_site_fract_y
_atom_site_fract_z
_atom_site_U_iso_or_equiv
_atom_site_thermal_displace_type
C22 C 0.0116(6) 0.0647(5) 0.1786(5) 0.1126 Uani
C23 C 0.1458(5) 0.1545(4) 0.2624(5) 0.0971 Uani
H15 H 0.2578 0.1250 0.2730 0.1160 Uiso
N3 N 0.1238(3) 0.2799(2) 0.32830(19) 0.0284 Uani
Zn7 Zn 0.33521(3) 0.40671(2) 0.442752(19) 0.0177 Uani
C25 C 0.3311(3) 0.7115(3) 0.5157(2) 0.0247 Uani
C26 C 0.2328(3) 0.8338(3) 0.5188(2) 0.0315 Uani
C27 C 0.0556(4) 0.8188(3) 0.4830(3) 0.0387 Uani
C30 C 0.3093(7) 0.9599(5) 0.5483(5) 0.0837 Uani
H19 H 0.4321 0.9771 0.5702 0.1000 Uiso
O5 O 0.2443(2) 0.59461(19) 0.47467(17) 0.0324 Uani
O6 O 0.4939(2) 0.7363(2) 0.55447(18) 0.0350 Uani
Zn4 Zn 0.66479(3) 0.59329(2) 0.557248(19) 0.0177 Uani
C31 C 0.5670(3) 0.5131(3) 0.3195(2) 0.0263 Uani
C32 C 0.5725(4) 0.5191(3) 0.2078(2) 0.0355 Uani
C33 C 0.6902(8) 0.5901(8) 0.1908(5) 0.1025 Uani
H20 H 0.7854 0.6403 0.2513 0.1220 Uiso
C34 C 0.6805(9) 0.5951(8) 0.0789(6) 0.1129 Uani
H21 H 0.7743 0.6477 0.0731 0.1360 Uiso
C35 C 0.4354(6) 0.4612(5) 0.0078(3) 0.0577 Uani
C36 C 0.4410(5) 0.4528(4) 0.1153(3) 0.0521 Uani
H22 H 0.3492 0.3989 0.1218 0.0630 Uiso
O7 O 0.4415(3) 0.4415(2) 0.32289(16) 0.0375 Uani
O8 O 0.6902(3) 0.5828(2) 0.40292(16) 0.0355 Uani
C4 C 0.9884(6) 0.9353(5) 0.8214(5) 0.1126 Uani
C5 C 0.8542(5) 0.8455(4) 0.7376(5) 0.0971 Uani
H4 H 0.7422 0.8750 0.7270 0.1160 Uiso
C7 C 0.6689(3) 0.2885(3) 0.4843(2) 0.0247 Uani
C8 C 0.7672(3) 0.1662(3) 0.4812(2) 0.0315 Uani
C9 C 0.9444(4) 0.1812(3) 0.5170(3) 0.0387 Uani
C12 C 0.6907(7) 0.0401(5) 0.4517(5) 0.0837 Uani
H8 H 0.5679 0.0229 0.4298 0.1000 Uiso
C13 C 0.4330(3) 0.4869(3) 0.6805(2) 0.0263 Uani
C14 C 0.4275(4) 0.4809(3) 0.7922(2) 0.0355 Uani
C15 C 0.3098(8) 0.4099(8) 0.8092(5) 0.1025 Uani
H9 H 0.2146 0.3597 0.7487 0.1220 Uiso
C16 C 0.3195(9) 0.4049(8) 0.9211(6) 0.1129 Uani
H10 H 0.2257 0.3523 0.9269 0.1360 Uiso
C17 C 0.5646(6) 0.5388(5) 0.9922(3) 0.0577 Uani
C18 C 0.5590(5) 0.5472(4) 0.8847(3) 0.0521 Uani
H11 H 0.6508 0.6011 0.8782 0.0630 Uiso
N1 N 0.8762(3) 0.7201(2) 0.67170(19) 0.0284 Uani
O1 O 0.7557(2) 0.40539(19) 0.52533(17) 0.0324 Uani
O2 O 0.5061(2) 0.2637(2) 0.44553(18) 0.0350 Uani
O3 O 0.5585(3) 0.5585(2) 0.67711(16) 0.0375 Uani
O4 O 0.3098(3) 0.4172(2) 0.59708(16) 0.0355 Uani
H14 H 0.0324 0.9756 0.1334 0.1360 Uiso
C19 C 0.9655(4) 0.3188(3) 0.3129(2) 0.0359 Uani
H12 H 0.9483 0.4081 0.3600 0.0430 Uiso
C20 C 0.8234(4) 0.2350(3) 0.2311(3) 0.0433 Uani
H13 H 0.7123 0.2665 0.2237 0.0520 Uiso
C21 C 0.8470(5) 0.1062(4) 0.1614(4) 0.0598 Uani
C24 C 0.7047(5) 0.0120(4) 0.0696(4) 0.0795 Uani
N4 N 0.5587(4) 0.0521(3) 0.0455(3) 0.0702 Uani
H17 H 0.9944 0.7296 0.4571 0.0460 Uiso
C28 C 0.9579(4) 0.9332(4) 0.4830(3) 0.0461 Uani
C29 C 0.7933(6) 0.9276(6) 0.4526(5) 0.0855 Uani
H18 H 0.7302 0.8394 0.4274 0.1020 Uiso
H5 H 0.2763 0.0794 0.9714 0.0960 Uiso
H16 H 0.7237 0.9206 0.0286 0.0960 Uiso
C1 C 0.0345(4) 0.6812(3) 0.6871(2) 0.0359 Uani
H1 H 0.0517 0.5919 0.6400 0.0430 Uiso
C2 C 0.1766(4) 0.7650(3) 0.7689(3) 0.0433 Uani
H2 H 0.2877 0.7335 0.7763 0.0520 Uiso
C3 C 0.1530(5) 0.8938(4) 0.8386(4) 0.0598 Uani
C6 C 0.2953(5) 0.9880(4) 0.9304(4) 0.0795 Uani
H6 H 0.0056 0.2704 0.5429 0.0460 Uiso
C10 C 0.0421(4) 0.0668(4) 0.5170(3) 0.0461 Uani
C11 C 0.2067(6) 0.0724(6) 0.5474(5) 0.0855 Uani
H7 H 0.2698 0.1606 0.5726 0.1020 Uiso
N2 N 0.4413(4) 0.9479(3) 0.9545(3) 0.0702 Uani
H3 H 0.9676 0.0244 0.8666 0.1360 Uiso
loop_
_atom_site_aniso_label
_atom_site_aniso_U_11
_atom_site_aniso_U_22
_atom_site_aniso_U_33
_atom_site_aniso_U_23
_atom_site_aniso_U_13
_atom_site_aniso_U_12
C22 0.052 0.057 0.129 -0.044 -0.042 0.022
C23 0.038 0.048 0.121 -0.034 -0.036 0.0187
N3 0.0207 0.0263 0.0295 0.0059 -0.0033 0.0012
Zn7 0.0144 0.01763 0.01862 0.00655 -0.0006 0.00129
C25 0.0221 0.0258 0.0267 0.0111 0.0043 0.0079
C26 0.0253 0.0303 0.0404 0.0157 0.006 0.0118
C27 0.0346 0.041 0.0455 0.0209 0.0099 0.0215
C30 0.058 0.054 0.131 0.033 0.011 0.0001
O5 0.0269 0.022 0.0447 0.0115 0.0026 0.0075
O6 0.0227 0.0269 0.052 0.015 0.0013 0.0085
Zn4 0.0144 0.01763 0.01862 0.00655 -0.0006 0.00129
C31 0.0296 0.031 0.0225 0.0139 0.0078 0.0091
C32 0.0449 0.0425 0.025 0.0171 0.0123 0.0121
C33 0.089 0.137 0.078 0.048 0.007 -0.042
C34 0.107 0.145 0.087 0.055 0.011 -0.039
C35 0.073 0.073 0.0201 0.0145 0.0016 0.018
C36 0.067 0.069 0.0249 0.0222 0.0114 0.0163
O7 0.0388 0.0498 0.0251 0.0166 0.0074 -0.0045
O8 0.0395 0.0418 0.0245 0.0143 0.0043 -0.0031
C4 0.052 0.057 0.129 -0.044 -0.042 0.022
C5 0.038 0.048 0.121 -0.034 -0.036 0.0187
C7 0.0221 0.0258 0.0267 0.0111 0.0043 0.0079
C8 0.0253 0.0303 0.0404 0.0157 0.006 0.0118
C9 0.0346 0.041 0.0455 0.0209 0.0099 0.0215
C12 0.058 0.054 0.131 0.033 0.011 0.0001
C13 0.0296 0.031 0.0225 0.0139 0.0078 0.0091
C14 0.0449 0.0425 0.025 0.0171 0.0123 0.0121
C15 0.089 0.137 0.078 0.048 0.007 -0.042
C16 0.107 0.145 0.087 0.055 0.011 -0.039
C17 0.073 0.073 0.0201 0.0145 0.0016 0.018
C18 0.067 0.069 0.0249 0.0222 0.0114 0.0163
N1 0.0207 0.0263 0.0295 0.0059 -0.0033 0.0012
O1 0.0269 0.022 0.0447 0.0115 0.0026 0.0075
O2 0.0227 0.0269 0.052 0.015 0.0013 0.0085
O3 0.0388 0.0498 0.0251 0.0166 0.0074 -0.0045
O4 0.0395 0.0418 0.0245 0.0143 0.0043 -0.0031
C19 0.0233 0.033 0.0364 0.0009 -0.0013 0.003
C20 0.0211 0.0426 0.0472 0.0043 -0.0077 0.0024
C21 0.0322 0.0399 0.067 -0.0074 -0.0205 0.0008
C24 0.04 0.047 0.091 -0.017 -0.03 0.0031
N4 0.0402 0.0488 0.073 -0.0082 -0.0278 -0.0074
C28 0.0383 0.0589 0.0488 0.027 0.0122 0.0276
C29 0.0472 0.068 0.131 0.038 0.001 -0.001
C1 0.0233 0.033 0.0364 0.0009 -0.0013 0.003
C2 0.0211 0.0426 0.0472 0.0043 -0.0077 0.0024
C3 0.0322 0.0399 0.067 -0.0074 -0.0205 0.0008
C6 0.04 0.047 0.091 -0.017 -0.03 0.0031
C10 0.0383 0.0589 0.0488 0.027 0.0122 0.0276
C11 0.0472 0.068 0.131 0.038 0.001 -0.001
N2 0.0402 0.0488 0.073 -0.0082 -0.0278 -0.0074
loop_
_geom_bond_atom_site_label_1
_geom_bond_atom_site_label_2
_geom_bond_site_symmetry_1
_geom_bond_site_symmetry_2
C23 C22 1_555 1_555
H15 C23 1_555 1_555
Zn7 N3 1_555 1_555
C23 N3 1_555 1_555
C25 C26 1_555 1_555
C26 C27 1_555 1_555
H19 C30 1_555 1_555
O5 C25 1_555 1_555
O6 C25 1_555 1_555
Zn4 O6 1_555 1_555
Zn7 O5 1_555 1_555
C26 C30 1_555 1_555
C31 C32 1_555 1_555
C32 C33 1_555 1_555
C33 H20 1_555 1_555
H21 C34 1_555 1_555
C36 C32 1_555 1_555
H22 C36 1_555 1_555
O7 C31 1_555 1_555
O8 C31 1_555 1_555
Zn4 O8 1_555 1_555
Zn7 O7 1_555 1_555
C33 C34 1_555 1_555
C35 C36 1_555 1_555
C5 C4 1_555 1_555
H4 C5 1_555 1_555
C7 C8 1_555 1_555
C8 C9 1_555 1_555
C12 C8 1_555 1_555
H8 C12 1_555 1_555
C13 C14 1_555 1_555
C14 C15 1_555 1_555
C15 H9 1_555 1_555
C16 C15 1_555 1_555
H10 C16 1_555 1_555
C17 C18 1_555 1_555
C18 C14 1_555 1_555
H11 C18 1_555 1_555
O1 C7 1_555 1_555
O2 C7 1_555 1_555
O3 C13 1_555 1_555
O4 C13 1_555 1_555
Zn4 N1 1_555 1_555
Zn7 O2 1_555 1_555
C5 N1 1_555 1_555
O1 Zn4 1_555 1_555
O3 Zn4 1_555 1_555
O4 Zn7 1_555 1_555
C19 H12 1_555 1_555
C20 C19 1_555 1_555
H13 C20 1_555 1_555
C21 C20 1_555 1_555
C24 C21 1_555 1_555
C24 N4 1_555 1_555
H18 C29 1_555 1_555
C28 C29 1_555 1_555
C1 H1 1_555 1_555
C2 C1 1_555 1_555
H2 C2 1_555 1_555
C3 C2 1_555 1_555
C6 C3 1_555 1_555
C11 C10 1_555 1_555
H7 C11 1_555 1_555
N2 C6 1_555 1_555

#END
