
###############################################################################
#
# This file contains modified crystal structure data generated from the
# MOF subset of the Cambridge Structural Database (CSD) v543 
# hosted by the Cambridge Crystallographic Data Centre (CCDC).
#
# This work is licensed under the Creative Commons
# Attribution-NonCommercial-ShareAlike 4.0 International License.
# To view a copy of this license, visit
# http://creativecommons.org/licenses/by-nc-sa/4.0/
# or send a letter to
# Creative Commons, PO Box 1866, Mountain View, CA 94042, USA.
#
# CIF created using the CSD Python API on 29 September 2022
# The structure has been converted into the P1 space group
# The structure has a 3D framework
# The original CSD entry QETBUP is in the monoclinic crystal system
# The framework has been calculated to contain at least 10.0% void space
# The void calculation uses a probe of radius 1.32A, grid spacing 0.4
# H atom positions have been added when not included in the experimental data
#
###############################################################################

data_QETBUP
_chemical_formula_moiety         '(C88 H88 N16 O16 Zn4)n'
_symmetry_cell_setting           triclinic
_symmetry_space_group_name_H-M   'P 1'
_symmetry_Int_Tables_number      1
_space_group_name_Hall           'P 1'
loop_
_symmetry_equiv_pos_site_id
_symmetry_equiv_pos_as_xyz
1 x,y,z
_cell_length_a                   13.906(3)
_cell_length_b                   12.518(3)
_cell_length_c                   21.857(4)
_cell_angle_alpha                90
_cell_angle_beta                 106.367(5)
_cell_angle_gamma                90
_cell_volume                     3650.58
loop_
_atom_site_label
_atom_site_type_symbol
_atom_site_fract_x
_atom_site_fract_y
_atom_site_fract_z
Zn2 Zn -0.0000 0.11854(7) 0.2500
O1 O 0.0233(3) 0.1143(3) 0.3513(2)
O2 O 0.1593(3) 0.0155(4) 0.3920(2)
N1 N 0.1115(4) 0.2427(4) 0.2584(2)
N2 N 0.3951(4) 0.4883(4) 0.2435(3)
C1 C 0.1701(7) 0.2703(7) 0.3143(4)
H1 H 0.1656 0.2326 0.3501
C2 C 0.2388(7) 0.3532(7) 0.3226(4)
H2 H 0.2790 0.3696 0.3633
C3 C 0.2476(5) 0.4110(4) 0.2715(3)
C4 C 0.1860(7) 0.3804(7) 0.2131(4)
H3 H 0.1890 0.4166 0.1765
C5 C 0.1194(6) 0.2961(6) 0.2081(3)
H4 H 0.0791 0.2767 0.1680
C6 C 0.4559(5) 0.3939(5) 0.2647(3)
H5 H 0.4156 0.3302 0.2516
H6 H 0.4810 0.3937 0.3108
C7 C 0.3184(5) 0.5031(5) 0.2784(3)
H7 H 0.2803 0.5673 0.2628
H8 H 0.3522 0.5136 0.3233
C8 C 0.0776(5) 0.0563(5) 0.3938(3)
C9 C 0.0376(4) 0.0277(5) 0.4496(3)
N3 N 0.8885(4) 0.2427(4) 0.2416(2)
C16 C 0.8299(7) 0.2703(7) 0.1857(4)
H13 H 0.8344 0.2326 0.1499
C17 C 0.7612(7) 0.3532(7) 0.1774(4)
H14 H 0.7210 0.3696 0.1367
C18 C 0.7524(5) 0.4110(4) 0.2285(3)
C19 C 0.8140(7) 0.3804(7) 0.2869(4)
H15 H 0.8110 0.4166 0.3235
C20 C 0.8806(6) 0.2961(6) 0.2919(3)
H16 H 0.9209 0.2767 0.3320
N4 N 0.6049(4) 0.4883(4) 0.2565(3)
C21 C 0.5441(5) 0.3939(5) 0.2353(3)
H17 H 0.5844 0.3302 0.2484
H18 H 0.5190 0.3937 0.1892
C22 C 0.6816(5) 0.5031(5) 0.2216(3)
H19 H 0.7197 0.5673 0.2372
H20 H 0.6478 0.5136 0.1767
Zn2_2 Zn 1.0000 0.11854(7) 0.2500
Zn3 Zn 0.5000 0.61854(7) 0.2500
H21 H 0.358253 0.477976 0.196699
H22 H 0.641747 0.477976 0.303301
C11 C 0.0824(5) 0.9468(6) 0.4917(3)
H10 H 0.1380 0.9113 0.4861
C14 C 0.0448(5) 0.9185(6) 0.5421(3)
H11 H 0.0746 0.8639 0.5699
Zn4 Zn -0.0000 0.88146(7) 0.7500
N7 N 0.1049(4) 0.9883(4) 0.2565(3)
C10 C 0.9552(5) 0.0815(6) 0.4579(3)
H9 H 0.9254 0.1361 0.4301
C15 C 0.9176(5) 0.0532(6) 0.5083(3)
H12 H 0.8620 0.0887 0.5139
O5 O 0.9767(3) 0.1143(3) 0.1487(2)
O3 O 0.9767(3) 0.8857(3) 0.6487(2)
O4 O 0.8407(3) 0.9845(4) 0.6080(2)
C12 C 0.9224(5) 0.9437(5) 0.6062(3)
C13 C 0.9624(4) 0.9723(5) 0.5504(3)
Zn4_2 Zn 1.0000 0.88146(7) 0.7500
N6 N 0.8951(4) 0.9883(4) 0.2435(3)
C10_2 C 0.0448(5) 0.0815(6) 0.0421(3)
H9_2 H 0.0746 0.1361 0.0699
C15_2 C 0.0824(5) 0.0532(6) 0.9917(3)
H12_2 H 0.1380 0.0887 0.9861
O3_2 O 0.0233(3) 0.8857(3) 0.8513(2)
O4_2 O 0.1593(3) 0.9845(4) 0.8920(2)
C12_2 C 0.0776(5) 0.9437(5) 0.8938(3)
C13_2 C 0.0376(4) 0.9723(5) 0.9496(3)
O2_2 O 0.8407(3) 0.0155(4) 0.1080(2)
C8_2 C 0.9224(5) 0.0563(5) 0.1062(3)
C9_2 C 0.9624(4) 0.0277(5) 0.0504(3)
C11_2 C 0.9176(5) 0.9468(6) 0.0083(3)
H10_2 H 0.8620 0.9113 0.0139
C14_2 C 0.9552(5) 0.9185(6) 0.9579(3)
H11_2 H 0.9254 0.8639 0.9301
C22_2 C 0.1816(5) 0.0031(5) 0.2216(3)
H19_2 H 0.2197 0.0673 0.2372
H20_2 H 0.1478 0.0136 0.1767
N3_2 N 0.3885(4) 0.7427(4) 0.2416(2)
C16_2 C 0.3299(7) 0.7703(7) 0.1857(4)
H13_2 H 0.3344 0.7326 0.1499
C17_2 C 0.2612(7) 0.8532(7) 0.1774(4)
H14_2 H 0.2210 0.8696 0.1367
C18_2 C 0.2524(5) 0.9110(4) 0.2285(3)
C19_2 C 0.3140(7) 0.8804(7) 0.2869(4)
H15_2 H 0.3110 0.9166 0.3235
C20_2 C 0.3806(6) 0.7961(6) 0.2919(3)
H16_2 H 0.4209 0.7767 0.3320
C21_2 C 0.0441(5) 0.8939(5) 0.2353(3)
H17_2 H 0.0844 0.8302 0.2484
H18_2 H 0.0190 0.8937 0.1892
H22_2 H 0.141747 0.977976 0.303301
C7_2 C 0.8184(5) 0.0031(5) 0.2784(3)
H7_2 H 0.7803 0.0673 0.2628
H8_2 H 0.8522 0.0136 0.3233
O1_2 O 0.5233(3) 0.6143(3) 0.3513(2)
O2_3 O 0.6593(3) 0.5155(4) 0.3920(2)
N1_2 N 0.6115(4) 0.7427(4) 0.2584(2)
C1_2 C 0.6701(7) 0.7703(7) 0.3143(4)
H1_2 H 0.6656 0.7326 0.3501
C2_2 C 0.7388(7) 0.8532(7) 0.3226(4)
H2_2 H 0.7790 0.8696 0.3633
C3_2 C 0.7476(5) 0.9110(4) 0.2715(3)
C4_2 C 0.6860(7) 0.8804(7) 0.2131(4)
H3_2 H 0.6890 0.9166 0.1765
C5_2 C 0.6194(6) 0.7961(6) 0.2081(3)
H4_2 H 0.5791 0.7767 0.1680
C6_2 C 0.9559(5) 0.8939(5) 0.2647(3)
H5_2 H 0.9156 0.8302 0.2516
H6_2 H 0.9810 0.8937 0.3108
C8_3 C 0.5776(5) 0.5563(5) 0.3938(3)
C9_3 C 0.5376(4) 0.5277(5) 0.4496(3)
C10_3 C 0.4552(5) 0.5815(6) 0.4579(3)
H9_3 H 0.4254 0.6361 0.4301
C11_3 C 0.5824(5) 0.4468(6) 0.4917(3)
H10_3 H 0.6380 0.4113 0.4861
O3_3 O 0.4767(3) 0.3857(3) 0.6487(2)
O4_3 O 0.3407(3) 0.4845(4) 0.6080(2)
C12_3 C 0.4224(5) 0.4437(5) 0.6062(3)
C13_3 C 0.4624(4) 0.4723(5) 0.5504(3)
C14_3 C 0.5448(5) 0.4185(6) 0.5421(3)
H11_3 H 0.5746 0.3639 0.5699
C15_3 C 0.4176(5) 0.5532(6) 0.5083(3)
H12_3 H 0.3620 0.5887 0.5139
Zn4_3 Zn 0.5000 0.38146(7) 0.7500
O5_2 O 0.4767(3) 0.6143(3) 0.1487(2)
H21_2 H 0.858253 0.977976 0.196699
O2_4 O 0.3407(3) 0.5155(4) 0.1080(2)
C8_4 C 0.4224(5) 0.5563(5) 0.1062(3)
C9_4 C 0.4624(4) 0.5277(5) 0.0504(3)
C10_4 C 0.5448(5) 0.5815(6) 0.0421(3)
H9_4 H 0.5746 0.6361 0.0699
C11_4 C 0.4176(5) 0.4468(6) 0.0083(3)
H10_4 H 0.3620 0.4113 0.0139
O3_4 O 0.5233(3) 0.3857(3) 0.8513(2)
O4_4 O 0.6593(3) 0.4845(4) 0.8920(2)
C12_4 C 0.5776(5) 0.4437(5) 0.8938(3)
C13_4 C 0.5376(4) 0.4723(5) 0.9496(3)
C14_4 C 0.4552(5) 0.4185(6) 0.9579(3)
H11_4 H 0.4254 0.3639 0.9301
C15_4 C 0.5824(5) 0.5532(6) 0.9917(3)
H12_4 H 0.6380 0.5887 0.9861
N6_2 N 0.1049(4) 0.0117(4) 0.7565(3)
N5 N 0.1115(4) 0.7573(4) 0.7584(2)
N7_2 N 0.8951(4) 0.0117(4) 0.7435(3)
N1_3 N 0.8885(4) 0.7573(4) 0.7416(2)
N2_2 N 0.6049(4) 0.5117(4) 0.7565(3)
C1_3 C 0.8299(7) 0.7297(7) 0.6857(4)
H1_3 H 0.8344 0.7674 0.6499
C2_3 C 0.7612(7) 0.6468(7) 0.6774(4)
H2_3 H 0.7210 0.6304 0.6367
C3_3 C 0.7524(5) 0.5890(4) 0.7285(3)
C4_3 C 0.8140(7) 0.6196(7) 0.7869(4)
H3_3 H 0.8110 0.5834 0.8235
C5_3 C 0.8806(6) 0.7039(6) 0.7919(3)
H4_3 H 0.9209 0.7233 0.8320
C6_3 C 0.5441(5) 0.6061(5) 0.7353(3)
H5_3 H 0.5844 0.6698 0.7484
H6_3 H 0.5190 0.6063 0.6892
C7_3 C 0.6816(5) 0.4969(5) 0.7216(3)
H7_3 H 0.7197 0.4327 0.7372
H8_3 H 0.6478 0.4864 0.6767
C16_3 C 0.1701(7) 0.7297(7) 0.8143(4)
H13_3 H 0.1656 0.7674 0.8501
C17_3 C 0.2388(7) 0.6468(7) 0.8226(4)
H14_3 H 0.2790 0.6304 0.8633
C18_3 C 0.2476(5) 0.5890(4) 0.7715(3)
C19_3 C 0.1860(7) 0.6196(7) 0.7131(4)
H15_3 H 0.1890 0.5834 0.6765
C20_3 C 0.1194(6) 0.7039(6) 0.7081(3)
H16_3 H 0.0791 0.7233 0.6680
N4_2 N 0.3951(4) 0.5117(4) 0.7435(3)
C21_3 C 0.4559(5) 0.6061(5) 0.7647(3)
H17_3 H 0.4156 0.6698 0.7516
H18_3 H 0.4810 0.6063 0.8108
C22_3 C 0.3184(5) 0.4969(5) 0.7784(3)
H19_3 H 0.2803 0.4327 0.7628
H20_3 H 0.3522 0.4864 0.8233
H21_3 H 0.641747 0.522024 0.803301
H22_3 H 0.358253 0.522024 0.696699
N1_4 N 0.3885(4) 0.2573(4) 0.7416(2)
C1_4 C 0.3299(7) 0.2297(7) 0.6857(4)
H1_4 H 0.3344 0.2674 0.6499
C2_4 C 0.2612(7) 0.1468(7) 0.6774(4)
H2_4 H 0.2210 0.1304 0.6367
C3_4 C 0.2524(5) 0.0890(4) 0.7285(3)
C4_4 C 0.3140(7) 0.1196(7) 0.7869(4)
H3_4 H 0.3110 0.0834 0.8235
C5_4 C 0.3806(6) 0.2039(6) 0.7919(3)
H4_4 H 0.4209 0.2233 0.8320
C6_4 C 0.0441(5) 0.1061(5) 0.7353(3)
H5_4 H 0.0844 0.1698 0.7484
H6_4 H 0.0190 0.1063 0.6892
N5_2 N 0.6115(4) 0.2573(4) 0.7584(2)
H21_4 H 0.141747 0.0220241 0.803301
C7_4 C 0.1816(5) 0.9969(5) 0.7216(3)
H7_4 H 0.2197 0.9327 0.7372
H8_4 H 0.1478 0.9864 0.6767
C16_4 C 0.6701(7) 0.2297(7) 0.8143(4)
H13_4 H 0.6656 0.2674 0.8501
C17_4 C 0.7388(7) 0.1468(7) 0.8226(4)
H14_4 H 0.7790 0.1304 0.8633
C18_4 C 0.7476(5) 0.0890(4) 0.7715(3)
C19_4 C 0.6860(7) 0.1196(7) 0.7131(4)
H15_4 H 0.6890 0.0834 0.6765
C20_4 C 0.6194(6) 0.2039(6) 0.7081(3)
H16_4 H 0.5791 0.2233 0.6680
C21_4 C 0.9559(5) 0.1061(5) 0.7647(3)
H17_4 H 0.9156 0.1698 0.7516
H18_4 H 0.9810 0.1063 0.8108
H22_4 H 0.858253 0.0220241 0.696699
C22_4 C 0.8184(5) 0.9969(5) 0.7784(3)
H19_4 H 0.7803 0.9327 0.7628
H20_4 H 0.8522 0.9864 0.8233
loop_
_geom_bond_atom_site_label_1
_geom_bond_atom_site_label_2
_geom_bond_site_symmetry_1
_geom_bond_site_symmetry_2
Zn2 O1 1_555 1_555
O1 C8 1_555 1_555
O2 C8 1_555 1_555
N1 Zn2 1_555 1_555
N2 C6 1_555 1_555
C1 N1 1_555 1_555
H1 C1 1_555 1_555
C2 C1 1_555 1_555
H2 C2 1_555 1_555
C3 C2 1_555 1_555
C4 C3 1_555 1_555
H3 C4 1_555 1_555
C5 N1 1_555 1_555
H4 C5 1_555 1_555
C6 H5 1_555 1_555
H6 C6 1_555 1_555
C7 N2 1_555 1_555
H7 C7 1_555 1_555
H8 C7 1_555 1_555
C8 C9 1_555 1_555
N3 C16 1_555 1_555
C16 H13 1_555 1_555
C17 C16 1_555 1_555
H14 C17 1_555 1_555
C18 C17 1_555 1_555
C19 C18 1_555 1_555
H15 C19 1_555 1_555
C20 N3 1_555 1_555
H16 C20 1_555 1_555
N4 C21 1_555 1_555
C21 C6 1_555 1_555
H17 C21 1_555 1_555
H18 C21 1_555 1_555
C22 C18 1_555 1_555
H19 C22 1_555 1_555
H20 C22 1_555 1_555
Zn2_2 N3 1_555 1_555
Zn3 N2 1_555 1_555
C3 C7 1_555 1_555
C4 C5 1_555 1_555
C19 C20 1_555 1_555
N4 C22 1_555 1_555
N4 Zn3 1_555 1_555
N2 H21 1_555 1_555
N4 H22 1_555 1_555
H10 C11 1_555 1_555
C14 C11 1_555 1_555
H11 C14 1_555 1_555
C10 H9 1_555 1_555
C15 C10 1_555 1_555
H12 C15 1_555 1_555
O5 Zn2_2 1_555 1_555
O3 C12 1_555 1_555
O4 C12 1_555 1_555
C12 C13 1_555 1_555
Zn4_2 O3 1_555 1_555
C10_2 H9_2 1_555 1_555
H12_2 C15_2 1_555 1_555
O3_2 C12_2 1_555 1_555
O4_2 C12_2 1_555 1_555
C12_2 C13_2 1_555 1_555
Zn4 O3_2 1_555 1_555
O5 C8_2 1_555 1_555
O2_2 C8_2 1_555 1_555
C8_2 C9_2 1_555 1_555
H10_2 C11_2 1_555 1_555
H11_2 C14_2 1_555 1_555
H19_2 C22_2 1_555 1_555
H20_2 C22_2 1_555 1_555
N3_2 C16_2 1_555 1_555
C16_2 H13_2 1_555 1_555
C17_2 C16_2 1_555 1_555
H14_2 C17_2 1_555 1_555
C18_2 C17_2 1_555 1_555
C19_2 C18_2 1_555 1_555
H15_2 C19_2 1_555 1_555
C20_2 N3_2 1_555 1_555
H16_2 C20_2 1_555 1_555
N7 C21_2 1_555 1_555
H17_2 C21_2 1_555 1_555
H18_2 C21_2 1_555 1_555
Zn3 N3_2 1_555 1_555
C19_2 C20_2 1_555 1_555
N7 H22_2 1_555 1_555
H7_2 C7_2 1_555 1_555
H8_2 C7_2 1_555 1_555
Zn3 O1_2 1_555 1_555
O1_2 C8_3 1_555 1_555
O2_3 C8_3 1_555 1_555
N1_2 Zn3 1_555 1_555
N6 C6_2 1_555 1_555
C1_2 N1_2 1_555 1_555
H1_2 C1_2 1_555 1_555
C2_2 C1_2 1_555 1_555
H2_2 C2_2 1_555 1_555
C3_2 C2_2 1_555 1_555
C4_2 C3_2 1_555 1_555
H3_2 C4_2 1_555 1_555
C5_2 N1_2 1_555 1_555
H4_2 C5_2 1_555 1_555
C6_2 H5_2 1_555 1_555
H6_2 C6_2 1_555 1_555
C8_3 C9_3 1_555 1_555
C9_3 C10_3 1_555 1_555
C10_3 H9_3 1_555 1_555
C11_3 C9_3 1_555 1_555
H10_3 C11_3 1_555 1_555
O3_3 C12_3 1_555 1_555
O4_3 C12_3 1_555 1_555
C12_3 C13_3 1_555 1_555
C13_3 C14_3 1_555 1_555
C14_3 C11_3 1_555 1_555
H11_3 C14_3 1_555 1_555
C15_3 C10_3 1_555 1_555
H12_3 C15_3 1_555 1_555
Zn4_3 O3_3 1_555 1_555
O5_2 Zn3 1_555 1_555
C4_2 C5_2 1_555 1_555
C13_3 C15_3 1_555 1_555
N6 H21_2 1_555 1_555
O5_2 C8_4 1_555 1_555
O2_4 C8_4 1_555 1_555
C8_4 C9_4 1_555 1_555
C9_4 C10_4 1_555 1_555
C10_4 H9_4 1_555 1_555
C11_4 C9_4 1_555 1_555
H10_4 C11_4 1_555 1_555
O3_4 C12_4 1_555 1_555
O4_4 C12_4 1_555 1_555
C12_4 C13_4 1_555 1_555
C13_4 C14_4 1_555 1_555
H11_4 C14_4 1_555 1_555
H12_4 C15_4 1_555 1_555
Zn4_3 O3_4 1_555 1_555
C13_4 C15_4 1_555 1_555
N5 Zn4 1_555 1_555
N1_3 Zn4_2 1_555 1_555
N2_2 C6_3 1_555 1_555
C1_3 N1_3 1_555 1_555
H1_3 C1_3 1_555 1_555
C2_3 C1_3 1_555 1_555
H2_3 C2_3 1_555 1_555
C3_3 C2_3 1_555 1_555
C4_3 C3_3 1_555 1_555
H3_3 C4_3 1_555 1_555
C5_3 N1_3 1_555 1_555
H4_3 C5_3 1_555 1_555
C6_3 H5_3 1_555 1_555
H6_3 C6_3 1_555 1_555
C7_3 N2_2 1_555 1_555
H7_3 C7_3 1_555 1_555
H8_3 C7_3 1_555 1_555
N5 C16_3 1_555 1_555
C16_3 H13_3 1_555 1_555
C17_3 C16_3 1_555 1_555
H14_3 C17_3 1_555 1_555
C18_3 C17_3 1_555 1_555
C19_3 C18_3 1_555 1_555
H15_3 C19_3 1_555 1_555
C20_3 N5 1_555 1_555
H16_3 C20_3 1_555 1_555
N4_2 C21_3 1_555 1_555
C21_3 C6_3 1_555 1_555
H17_3 C21_3 1_555 1_555
H18_3 C21_3 1_555 1_555
C22_3 C18_3 1_555 1_555
H19_3 C22_3 1_555 1_555
H20_3 C22_3 1_555 1_555
Zn4_3 N2_2 1_555 1_555
C3_3 C7_3 1_555 1_555
C4_3 C5_3 1_555 1_555
C19_3 C20_3 1_555 1_555
N4_2 C22_3 1_555 1_555
N4_2 Zn4_3 1_555 1_555
N2_2 H21_3 1_555 1_555
N4_2 H22_3 1_555 1_555
N1_4 Zn4_3 1_555 1_555
N6_2 C6_4 1_555 1_555
C1_4 N1_4 1_555 1_555
H1_4 C1_4 1_555 1_555
C2_4 C1_4 1_555 1_555
H2_4 C2_4 1_555 1_555
C3_4 C2_4 1_555 1_555
C4_4 C3_4 1_555 1_555
H3_4 C4_4 1_555 1_555
C5_4 N1_4 1_555 1_555
H4_4 C5_4 1_555 1_555
C6_4 H5_4 1_555 1_555
H6_4 C6_4 1_555 1_555
N5_2 Zn4_3 1_555 1_555
C4_4 C5_4 1_555 1_555
N6_2 H21_4 1_555 1_555
H7_4 C7_4 1_555 1_555
H8_4 C7_4 1_555 1_555
N5_2 C16_4 1_555 1_555
C16_4 H13_4 1_555 1_555
C17_4 C16_4 1_555 1_555
H14_4 C17_4 1_555 1_555
C18_4 C17_4 1_555 1_555
C19_4 C18_4 1_555 1_555
H15_4 C19_4 1_555 1_555
C20_4 N5_2 1_555 1_555
H16_4 C20_4 1_555 1_555
N7_2 C21_4 1_555 1_555
H17_4 C21_4 1_555 1_555
H18_4 C21_4 1_555 1_555
C19_4 C20_4 1_555 1_555
N7_2 H22_4 1_555 1_555
H19_4 C22_4 1_555 1_555
H20_4 C22_4 1_555 1_555

#END
