
###############################################################################
#
# This file contains modified crystal structure data generated from the
# MOF subset of the Cambridge Structural Database (CSD) v543 
# hosted by the Cambridge Crystallographic Data Centre (CCDC).
#
# This work is licensed under the Creative Commons
# Attribution-NonCommercial-ShareAlike 4.0 International License.
# To view a copy of this license, visit
# http://creativecommons.org/licenses/by-nc-sa/4.0/
# or send a letter to
# Creative Commons, PO Box 1866, Mountain View, CA 94042, USA.
#
# CIF created using the CSD Python API on 29 September 2022
# The structure has been converted into the P1 space group
# The structure has a 3D framework
# The original CSD entry QETCAW is in the monoclinic crystal system
# The framework has been calculated to contain at least 10.0% void space
# The void calculation uses a probe of radius 1.32A, grid spacing 0.4
# H atom positions have been added when not included in the experimental data
#
###############################################################################

data_QETCAW
_chemical_formula_moiety         '(C88 H96 N24 O13 Zn4)n'
_symmetry_cell_setting           triclinic
_symmetry_space_group_name_H-M   'P 1'
_symmetry_Int_Tables_number      1
_space_group_name_Hall           'P 1'
loop_
_symmetry_equiv_pos_site_id
_symmetry_equiv_pos_as_xyz
1 x,y,z
_cell_length_a                   13.906(5)
_cell_length_b                   12.551(5)
_cell_length_c                   22.786(5)
_cell_angle_alpha                90
_cell_angle_beta                 104.318(5)
_cell_angle_gamma                90
_cell_volume                     3853.41
loop_
_atom_site_label
_atom_site_type_symbol
_atom_site_fract_x
_atom_site_fract_y
_atom_site_fract_z
Zn1 Zn 0.5000 0.44821(3) 0.2500
O1 O 0.48379(15) 0.44649(15) 0.15524(9)
O2 O 0.3582(2) 0.5545(2) 0.11339(11)
N1 N 0.38912(16) 0.32560(18) 0.24188(10)
N2 N 0.10434(17) 0.07977(17) 0.25549(12)
N3 N 0.6181(6) 0.3766(8) 0.0967(3)
H1 H 0.6042 0.3632 0.1307
H2 H 0.6694 0.3479 0.0884
C1 C 0.4690(3) 0.4990(3) 0.05405(14)
C2 C 0.4158(3) 0.5587(3) 0.00418(15)
H3 H 0.3605 0.5982 0.0069
C3 C 0.5525(3) 0.4420(3) 0.04982(16)
C4 C 0.4351(2) 0.5001(3) 0.11207(14)
C5 C 0.3150(2) 0.3131(3) 0.19197(14)
H4 H 0.3091 0.3629 0.1611
C6 C 0.2473(3) 0.2315(3) 0.18351(15)
H5 H 0.1974 0.2268 0.1479
C7 C 0.2542(2) 0.1565(2) 0.22870(13)
C8 C 0.3301(3) 0.1682(3) 0.28021(17)
H6 H 0.3377 0.1190 0.3115
C9 C 0.3942(3) 0.2523(3) 0.28516(16)
H7 H 0.4442 0.2589 0.3206
C10 C 0.1810(2) 0.0660(2) 0.22143(16)
H8 H 0.1485 0.0582 0.1788
H9 H 0.2170 0.0006 0.2346
C11 C 0.0444(2) 0.1763(2) 0.23561(15)
H10 H 0.0212 0.1769 0.1918
H11 H 0.0845 0.2395 0.2480
O5 O 0.51621(15) 0.44649(15) 0.34476(9)
N7 N 0.61088(16) 0.32560(18) 0.25812(10)
N8 N 0.60434(17) 0.57977(17) 0.25549(12)
N9 N 0.39566(17) 0.57977(17) 0.24451(12)
H23 H 0.139697 0.0897164 0.299776
O3 O 0.51621(15) 0.55351(15) 0.84476(9)
O4 O 0.6418(2) 0.4455(2) 0.88661(11)
N4 N 0.3819(6) 0.6234(8) 0.9033(3)
H12 H 0.3958 0.6368 0.8693
H13 H 0.3306 0.6521 0.9116
C12 C 0.5310(3) 0.5010(3) 0.94595(14)
C13 C 0.5842(3) 0.4413(3) 0.99582(15)
H14 H 0.6395 0.4018 0.9931
C14 C 0.4475(3) 0.5580(3) 0.95018(16)
C15 C 0.5649(2) 0.4999(3) 0.88793(14)
Zn4 Zn 0.5000 0.55179(3) 0.7500
Zn3 Zn 0.0000 0.94821(3) 0.2500
C16 C 0.6850(2) 0.3131(3) 0.30803(14)
H15 H 0.6909 0.3629 0.3389
C17 C 0.7527(3) 0.2315(3) 0.31649(15)
H16 H 0.8026 0.2268 0.3521
C18 C 0.7458(2) 0.1565(2) 0.27130(13)
C19 C 0.6699(3) 0.1682(3) 0.21979(17)
H17 H 0.6623 0.1190 0.1885
C20 C 0.6058(3) 0.2523(3) 0.21484(16)
H18 H 0.5558 0.2589 0.1794
N6 N 0.89566(17) 0.07977(17) 0.24451(12)
C21 C 0.8190(2) 0.0660(2) 0.27857(16)
H19 H 0.8515 0.0582 0.3212
H20 H 0.7830 0.0006 0.2654
C22 C 0.9556(2) 0.1763(2) 0.26439(15)
H21 H 0.9788 0.1769 0.3082
H22 H 0.9155 0.2395 0.2520
H24 H 0.860303 0.0897164 0.200224
Zn3_2 Zn 1.0000 0.94821(3) 0.2500
O2_2 O 0.6418(2) 0.5545(2) 0.38661(11)
N3_2 N 0.3819(6) 0.3766(8) 0.4033(3)
H1_2 H 0.3958 0.3632 0.3693
H2_2 H 0.3306 0.3479 0.4116
C1_2 C 0.5310(3) 0.4990(3) 0.44595(14)
C2_2 C 0.5842(3) 0.5587(3) 0.49582(15)
H3_2 H 0.6395 0.5982 0.4931
C3_2 C 0.4475(3) 0.4420(3) 0.45018(16)
C4_2 C 0.5649(2) 0.5001(3) 0.38793(14)
O3_2 O 0.48379(15) 0.55351(15) 0.65524(9)
O4_2 O 0.3582(2) 0.4455(2) 0.61339(11)
N4_2 N 0.6181(6) 0.6234(8) 0.5967(3)
H12_2 H 0.6042 0.6368 0.6307
H13_2 H 0.6694 0.6521 0.5884
C12_2 C 0.4690(3) 0.5010(3) 0.55405(14)
C13_2 C 0.4158(3) 0.4413(3) 0.50418(15)
H14_2 H 0.3605 0.4018 0.5069
C14_2 C 0.5525(3) 0.5580(3) 0.54982(16)
C15_2 C 0.4351(2) 0.4999(3) 0.61207(14)
O3_3 O 0.01621(15) 0.05351(15) 0.84476(9)
C12_3 C 0.0310(3) 0.0010(3) 0.94595(14)
Zn4_2 Zn 0.0000 0.05179(3) 0.7500
N3_3 N 0.1181(6) 0.8766(8) 0.0967(3)
H1_3 H 0.1042 0.8632 0.1307
H2_3 H 0.1694 0.8479 0.0884
C3_3 C 0.0525(3) 0.9420(3) 0.04982(16)
O5_2 O 0.01621(15) 0.94649(15) 0.34476(9)
N7_2 N 0.11088(16) 0.82560(18) 0.25812(10)
O4_3 O 0.1418(2) 0.9455(2) 0.88661(11)
C13_3 C 0.0842(3) 0.9413(3) 0.99582(15)
H14_3 H 0.1395 0.9018 0.9931
C15_3 C 0.0649(2) 0.9999(3) 0.88793(14)
O2_3 O 0.8582(2) 0.0545(2) 0.11339(11)
C2_3 C 0.9158(3) 0.0587(3) 0.00418(15)
H3_3 H 0.8605 0.0982 0.0069
C4_3 C 0.9351(2) 0.0001(3) 0.11207(14)
N4_3 N 0.8819(6) 0.1234(8) 0.9033(3)
H12_3 H 0.8958 0.1368 0.8693
H13_3 H 0.8306 0.1521 0.9116
C14_3 C 0.9475(3) 0.0580(3) 0.95018(16)
Zn4_3 Zn 1.0000 0.05179(3) 0.7500
O1_2 O 0.98379(15) 0.94649(15) 0.15524(9)
N1_2 N 0.88912(16) 0.82560(18) 0.24188(10)
C1_3 C 0.9690(3) 0.9990(3) 0.05405(14)
C5_2 C 0.8150(2) 0.8131(3) 0.19197(14)
H4_2 H 0.8091 0.8629 0.1611
C6_2 C 0.7473(3) 0.7315(3) 0.18351(15)
H5_2 H 0.6974 0.7268 0.1479
C7_2 C 0.7542(2) 0.6565(2) 0.22870(13)
C8_2 C 0.8301(3) 0.6682(3) 0.28021(17)
H6_2 H 0.8377 0.6190 0.3115
C9_2 C 0.8942(3) 0.7523(3) 0.28516(16)
H7_2 H 0.9442 0.7589 0.3206
C10_2 C 0.6810(2) 0.5660(2) 0.22143(16)
H8_2 H 0.6485 0.5582 0.1788
H9_2 H 0.7170 0.5006 0.2346
C11_2 C 0.5444(2) 0.6763(2) 0.23561(15)
H10_2 H 0.5212 0.6769 0.1918
H11_2 H 0.5845 0.7395 0.2480
C16_2 C 0.1850(2) 0.8131(3) 0.30803(14)
H15_2 H 0.1909 0.8629 0.3389
C17_2 C 0.2527(3) 0.7315(3) 0.31649(15)
H16_2 H 0.3026 0.7268 0.3521
C18_2 C 0.2458(2) 0.6565(2) 0.27130(13)
C19_2 C 0.1699(3) 0.6682(3) 0.21979(17)
H17_2 H 0.1623 0.6190 0.1885
C20_2 C 0.1058(3) 0.7523(3) 0.21484(16)
H18_2 H 0.0558 0.7589 0.1794
C21_2 C 0.3190(2) 0.5660(2) 0.27857(16)
H19_2 H 0.3515 0.5582 0.3212
H20_2 H 0.2830 0.5006 0.2654
C22_2 C 0.4556(2) 0.6763(2) 0.26439(15)
H21_2 H 0.4788 0.6769 0.3082
H22_2 H 0.4155 0.7395 0.2520
H23_2 H 0.639697 0.589716 0.299776
H24_2 H 0.360303 0.589716 0.200224
O2_4 O 0.1418(2) 0.0545(2) 0.38661(11)
C2_4 C 0.0842(3) 0.0587(3) 0.49582(15)
H3_4 H 0.1395 0.0982 0.4931
C4_4 C 0.0649(2) 0.0001(3) 0.38793(14)
N4_4 N 0.1181(6) 0.1234(8) 0.5967(3)
H12_4 H 0.1042 0.1368 0.6307
H13_4 H 0.1694 0.1521 0.5884
C14_4 C 0.0525(3) 0.0580(3) 0.54982(16)
C1_4 C 0.0310(3) 0.9990(3) 0.44595(14)
O3_4 O 0.98379(15) 0.05351(15) 0.65524(9)
C12_4 C 0.9690(3) 0.0010(3) 0.55405(14)
N3_4 N 0.8819(6) 0.8766(8) 0.4033(3)
H1_4 H 0.8958 0.8632 0.3693
H2_4 H 0.8306 0.8479 0.4116
C3_4 C 0.9475(3) 0.9420(3) 0.45018(16)
O4_4 O 0.8582(2) 0.9455(2) 0.61339(11)
C13_4 C 0.9158(3) 0.9413(3) 0.50418(15)
H14_4 H 0.8605 0.9018 0.5069
C15_4 C 0.9351(2) 0.9999(3) 0.61207(14)
N5 N 0.38912(16) 0.67440(18) 0.74188(10)
C16_3 C 0.3150(2) 0.6869(3) 0.69197(14)
H15_3 H 0.3091 0.6371 0.6611
C17_3 C 0.2473(3) 0.7685(3) 0.68351(15)
H16_3 H 0.1974 0.7732 0.6479
C18_3 C 0.2542(2) 0.8435(2) 0.72870(13)
C19_3 C 0.3301(3) 0.8318(3) 0.78021(17)
H17_3 H 0.3377 0.8810 0.8115
C20_3 C 0.3942(3) 0.7477(3) 0.78516(16)
H18_3 H 0.4442 0.7411 0.8206
N6_2 N 0.10434(17) 0.92023(17) 0.75549(12)
C21_3 C 0.1810(2) 0.9340(2) 0.72143(16)
H19_3 H 0.1485 0.9418 0.6788
H20_3 H 0.2170 0.9994 0.7346
C22_3 C 0.0444(2) 0.8237(2) 0.73561(15)
H21_3 H 0.0212 0.8231 0.6918
H22_3 H 0.0845 0.7605 0.7480
H24_3 H 0.139697 0.910284 0.799776
N1_3 N 0.61088(16) 0.67440(18) 0.75812(10)
N2_2 N 0.89566(17) 0.92023(17) 0.74451(12)
C5_3 C 0.6850(2) 0.6869(3) 0.80803(14)
H4_3 H 0.6909 0.6371 0.8389
C6_3 C 0.7527(3) 0.7685(3) 0.81649(15)
H5_3 H 0.8026 0.7732 0.8521
C7_3 C 0.7458(2) 0.8435(2) 0.77130(13)
C8_3 C 0.6699(3) 0.8318(3) 0.71979(17)
H6_3 H 0.6623 0.8810 0.6885
C9_3 C 0.6058(3) 0.7477(3) 0.71484(16)
H7_3 H 0.5558 0.7411 0.6794
C10_3 C 0.8190(2) 0.9340(2) 0.77857(16)
H8_3 H 0.8515 0.9418 0.8212
H9_3 H 0.7830 0.9994 0.7654
C11_3 C 0.9556(2) 0.8237(2) 0.76439(15)
H10_3 H 0.9788 0.8231 0.8082
H11_3 H 0.9155 0.7605 0.7520
N8_2 N 0.39566(17) 0.42023(17) 0.74451(12)
N9_2 N 0.60434(17) 0.42023(17) 0.75549(12)
H23_3 H 0.860303 0.910284 0.700224
N1_4 N 0.11088(16) 0.17440(18) 0.75812(10)
C5_4 C 0.1850(2) 0.1869(3) 0.80803(14)
H4_4 H 0.1909 0.1371 0.8389
C6_4 C 0.2527(3) 0.2685(3) 0.81649(15)
H5_4 H 0.3026 0.2732 0.8521
C7_4 C 0.2458(2) 0.3435(2) 0.77130(13)
C8_4 C 0.1699(3) 0.3318(3) 0.71979(17)
H6_4 H 0.1623 0.3810 0.6885
C9_4 C 0.1058(3) 0.2477(3) 0.71484(16)
H7_4 H 0.0558 0.2411 0.6794
C10_4 C 0.3190(2) 0.4340(2) 0.77857(16)
H8_4 H 0.3515 0.4418 0.8212
H9_4 H 0.2830 0.4994 0.7654
C11_4 C 0.4556(2) 0.3237(2) 0.76439(15)
H10_4 H 0.4788 0.3231 0.8082
H11_4 H 0.4155 0.2605 0.7520
N5_2 N 0.88912(16) 0.17440(18) 0.74188(10)
C16_4 C 0.8150(2) 0.1869(3) 0.69197(14)
H15_4 H 0.8091 0.1371 0.6611
C17_4 C 0.7473(3) 0.2685(3) 0.68351(15)
H16_4 H 0.6974 0.2732 0.6479
C18_4 C 0.7542(2) 0.3435(2) 0.72870(13)
C19_4 C 0.8301(3) 0.3318(3) 0.78021(17)
H17_4 H 0.8377 0.3810 0.8115
C20_4 C 0.8942(3) 0.2477(3) 0.78516(16)
H18_4 H 0.9442 0.2411 0.8206
C21_4 C 0.6810(2) 0.4340(2) 0.72143(16)
H19_4 H 0.6485 0.4418 0.6788
H20_4 H 0.7170 0.4994 0.7346
C22_4 C 0.5444(2) 0.3237(2) 0.73561(15)
H21_4 H 0.5212 0.3231 0.6918
H22_4 H 0.5845 0.2605 0.7480
H23_4 H 0.360303 0.410284 0.700224
H24_4 H 0.639697 0.410284 0.799776
loop_
_geom_bond_atom_site_label_1
_geom_bond_atom_site_label_2
_geom_bond_site_symmetry_1
_geom_bond_site_symmetry_2
Zn1 O1 1_555 1_555
O1 C4 1_555 1_555
O2 C4 1_555 1_555
N1 Zn1 1_555 1_555
N2 C10 1_555 1_555
N3 H1 1_555 1_555
H2 N3 1_555 1_555
C1 C2 1_555 1_555
C2 H3 1_555 1_555
C3 N3 1_555 1_555
C4 C1 1_555 1_555
C5 N1 1_555 1_555
H4 C5 1_555 1_555
C6 C5 1_555 1_555
H5 C6 1_555 1_555
C7 C6 1_555 1_555
C8 C7 1_555 1_555
H6 C8 1_555 1_555
C9 N1 1_555 1_555
H7 C9 1_555 1_555
C10 C7 1_555 1_555
H8 C10 1_555 1_555
H9 C10 1_555 1_555
C11 N2 1_555 1_555
H10 C11 1_555 1_555
H11 C11 1_555 1_555
O5 Zn1 1_555 1_555
N7 Zn1 1_555 1_555
N8 Zn1 1_555 1_555
N9 Zn1 1_555 1_555
C1 C3 1_555 1_555
C8 C9 1_555 1_555
N2 H23 1_555 1_555
O3 C15 1_555 1_555
O4 C15 1_555 1_555
N4 H12 1_555 1_555
H13 N4 1_555 1_555
C12 C13 1_555 1_555
H14 C13 1_555 1_555
C15 C12 1_555 1_555
Zn4 O3 1_555 1_555
N4 C14 1_555 1_555
C12 C14 1_555 1_555
N7 C16 1_555 1_555
C16 H15 1_555 1_555
C17 C16 1_555 1_555
H16 C17 1_555 1_555
C18 C17 1_555 1_555
C19 C18 1_555 1_555
H17 C19 1_555 1_555
C20 N7 1_555 1_555
H18 C20 1_555 1_555
N6 C21 1_555 1_555
C21 C18 1_555 1_555
H19 C21 1_555 1_555
H20 C21 1_555 1_555
H21 C22 1_555 1_555
H22 C22 1_555 1_555
C19 C20 1_555 1_555
N6 C22 1_555 1_555
N6 H24 1_555 1_555
O5 C4_2 1_555 1_555
O2_2 C4_2 1_555 1_555
N3_2 H1_2 1_555 1_555
H2_2 N3_2 1_555 1_555
C1_2 C2_2 1_555 1_555
C2_2 H3_2 1_555 1_555
C3_2 N3_2 1_555 1_555
C4_2 C1_2 1_555 1_555
O3_2 C15_2 1_555 1_555
O4_2 C15_2 1_555 1_555
N4_2 H12_2 1_555 1_555
H13_2 N4_2 1_555 1_555
C12_2 C13_2 1_555 1_555
C13_2 C3_2 1_555 1_555
H14_2 C13_2 1_555 1_555
C14_2 C2_2 1_555 1_555
C15_2 C12_2 1_555 1_555
Zn4 O3_2 1_555 1_555
C1_2 C3_2 1_555 1_555
N4_2 C14_2 1_555 1_555
C12_2 C14_2 1_555 1_555
Zn4_2 O3_3 1_555 1_555
N3_3 H1_3 1_555 1_555
H2_3 N3_3 1_555 1_555
C3_3 N3_3 1_555 1_555
O5_2 Zn3 1_555 1_555
N7_2 Zn3 1_555 1_555
O4_3 C15_3 1_555 1_555
H14_3 C13_3 1_555 1_555
O2_3 C4_3 1_555 1_555
C2_3 H3_3 1_555 1_555
N4_3 H12_3 1_555 1_555
H13_3 N4_3 1_555 1_555
N4_3 C14_3 1_555 1_555
Zn3_2 O1_2 1_555 1_555
N1_2 Zn3_2 1_555 1_555
N8 C10_2 1_555 1_555
C5_2 N1_2 1_555 1_555
H4_2 C5_2 1_555 1_555
C6_2 C5_2 1_555 1_555
H5_2 C6_2 1_555 1_555
C7_2 C6_2 1_555 1_555
C8_2 C7_2 1_555 1_555
H6_2 C8_2 1_555 1_555
C9_2 N1_2 1_555 1_555
H7_2 C9_2 1_555 1_555
C10_2 C7_2 1_555 1_555
H8_2 C10_2 1_555 1_555
H9_2 C10_2 1_555 1_555
C11_2 N8 1_555 1_555
H10_2 C11_2 1_555 1_555
H11_2 C11_2 1_555 1_555
N7_2 C16_2 1_555 1_555
C16_2 H15_2 1_555 1_555
C17_2 C16_2 1_555 1_555
H16_2 C17_2 1_555 1_555
C18_2 C17_2 1_555 1_555
C19_2 C18_2 1_555 1_555
H17_2 C19_2 1_555 1_555
C20_2 N7_2 1_555 1_555
H18_2 C20_2 1_555 1_555
N9 C21_2 1_555 1_555
C21_2 C18_2 1_555 1_555
H19_2 C21_2 1_555 1_555
H20_2 C21_2 1_555 1_555
C22_2 C11_2 1_555 1_555
H21_2 C22_2 1_555 1_555
H22_2 C22_2 1_555 1_555
C8_2 C9_2 1_555 1_555
C19_2 C20_2 1_555 1_555
N9 C22_2 1_555 1_555
N8 H23_2 1_555 1_555
N9 H24_2 1_555 1_555
O2_4 C4_4 1_555 1_555
C2_4 H3_4 1_555 1_555
N4_4 H12_4 1_555 1_555
H13_4 N4_4 1_555 1_555
C14_4 C2_4 1_555 1_555
N4_4 C14_4 1_555 1_555
Zn4_3 O3_4 1_555 1_555
N3_4 H1_4 1_555 1_555
H2_4 N3_4 1_555 1_555
C3_4 N3_4 1_555 1_555
O4_4 C15_4 1_555 1_555
C13_4 C3_4 1_555 1_555
H14_4 C13_4 1_555 1_555
N5 C16_3 1_555 1_555
C16_3 H15_3 1_555 1_555
C17_3 C16_3 1_555 1_555
H16_3 C17_3 1_555 1_555
C18_3 C17_3 1_555 1_555
C19_3 C18_3 1_555 1_555
H17_3 C19_3 1_555 1_555
C20_3 N5 1_555 1_555
H18_3 C20_3 1_555 1_555
N6_2 C21_3 1_555 1_555
C21_3 C18_3 1_555 1_555
H19_3 C21_3 1_555 1_555
H20_3 C21_3 1_555 1_555
H21_3 C22_3 1_555 1_555
H22_3 C22_3 1_555 1_555
Zn4 N5 1_555 1_555
C19_3 C20_3 1_555 1_555
N6_2 C22_3 1_555 1_555
N6_2 H24_3 1_555 1_555
N1_3 Zn4 1_555 1_555
N2_2 C10_3 1_555 1_555
C5_3 N1_3 1_555 1_555
H4_3 C5_3 1_555 1_555
C6_3 C5_3 1_555 1_555
H5_3 C6_3 1_555 1_555
C7_3 C6_3 1_555 1_555
C8_3 C7_3 1_555 1_555
H6_3 C8_3 1_555 1_555
C9_3 N1_3 1_555 1_555
H7_3 C9_3 1_555 1_555
C10_3 C7_3 1_555 1_555
H8_3 C10_3 1_555 1_555
H9_3 C10_3 1_555 1_555
C11_3 N2_2 1_555 1_555
H10_3 C11_3 1_555 1_555
H11_3 C11_3 1_555 1_555
N8_2 Zn4 1_555 1_555
N9_2 Zn4 1_555 1_555
C8_3 C9_3 1_555 1_555
N2_2 H23_3 1_555 1_555
N1_4 Zn4_2 1_555 1_555
N8_2 C10_4 1_555 1_555
C5_4 N1_4 1_555 1_555
H4_4 C5_4 1_555 1_555
C6_4 C5_4 1_555 1_555
H5_4 C6_4 1_555 1_555
C7_4 C6_4 1_555 1_555
C8_4 C7_4 1_555 1_555
H6_4 C8_4 1_555 1_555
C9_4 N1_4 1_555 1_555
H7_4 C9_4 1_555 1_555
C10_4 C7_4 1_555 1_555
H8_4 C10_4 1_555 1_555
H9_4 C10_4 1_555 1_555
C11_4 N8_2 1_555 1_555
H10_4 C11_4 1_555 1_555
H11_4 C11_4 1_555 1_555
N5_2 C16_4 1_555 1_555
C16_4 H15_4 1_555 1_555
C17_4 C16_4 1_555 1_555
H16_4 C17_4 1_555 1_555
C18_4 C17_4 1_555 1_555
C19_4 C18_4 1_555 1_555
H17_4 C19_4 1_555 1_555
C20_4 N5_2 1_555 1_555
H18_4 C20_4 1_555 1_555
N9_2 C21_4 1_555 1_555
C21_4 C18_4 1_555 1_555
H19_4 C21_4 1_555 1_555
H20_4 C21_4 1_555 1_555
C22_4 C11_4 1_555 1_555
H21_4 C22_4 1_555 1_555
H22_4 C22_4 1_555 1_555
Zn4_3 N5_2 1_555 1_555
C8_4 C9_4 1_555 1_555
C19_4 C20_4 1_555 1_555
N9_2 C22_4 1_555 1_555
N8_2 H23_4 1_555 1_555
N9_2 H24_4 1_555 1_555

#END
