
###############################################################################
#
# This file contains modified crystal structure data generated from the
# MOF subset of the Cambridge Structural Database (CSD) v543 
# hosted by the Cambridge Crystallographic Data Centre (CCDC).
#
# This work is licensed under the Creative Commons
# Attribution-NonCommercial-ShareAlike 4.0 International License.
# To view a copy of this license, visit
# http://creativecommons.org/licenses/by-nc-sa/4.0/
# or send a letter to
# Creative Commons, PO Box 1866, Mountain View, CA 94042, USA.
#
# CIF created using the CSD Python API on 29 September 2022
# The structure has been converted into the P1 space group
# The structure has a 3D framework
# The original CSD entry QETSOY01 is in the monoclinic crystal system
# The framework has been calculated to contain at least 10.0% void space
# The void calculation uses a probe of radius 1.32A, grid spacing 0.4
#
###############################################################################

data_QETSOY01
_chemical_formula_moiety         '(C40 H20 Er4 O36)n'
_symmetry_cell_setting           triclinic
_symmetry_space_group_name_H-M   'P 1'
_symmetry_Int_Tables_number      1
_space_group_name_Hall           'P 1'
loop_
_symmetry_equiv_pos_site_id
_symmetry_equiv_pos_as_xyz
1 x,y,z
_cell_length_a                   10.702(3)
_cell_length_b                   7.135(2)
_cell_length_c                   19.019(4)
_cell_angle_alpha                90
_cell_angle_beta                 116.788(12)
_cell_angle_gamma                90
_cell_volume                     1296.41
loop_
_atom_site_label
_atom_site_type_symbol
_atom_site_fract_x
_atom_site_fract_y
_atom_site_fract_z
H1 H 0.1276 0.0415 0.9411
C5 C 0.1259(9) 0.5892(14) 0.0302(5)
H4 H 0.2105 0.6536 0.0517
C16 C 0.1157(9) 0.4281(13) 0.0668(5)
C20 C 0.2460(9) 0.3514(13) 0.1350(5)
O16 O 0.3320(8) 0.4720(9) 0.1772(4)
O17 O 0.2596(6) 0.1788(9) 0.1447(3)
Er7 Er 0.56918(4) 0.52042(5) 0.24663(2)
Er9 Er 0.43082(4) 0.02042(5) 0.25337(2)
O3 O 0.1166(10) 0.9579(11) 0.9674(5)
O4 O 0.0016(8) 0.8226(11) 0.8496(4)
C7 C 0.0164(10) 0.6609(13) 0.9627(5)
C9 C 0.0425(10) 0.8231(13) 0.9209(5)
O10 O 0.5276(8) 0.4247(9) 0.1146(4)
O11 O 0.5477(6) 0.1904(9) 0.1932(3)
C12 C 0.5140(10) 0.1166(13) 0.0623(5)
C15 C 0.5292(10) 0.2539(13) 0.1254(5)
O14 O 0.8834(10) 0.0421(11) 0.0326(5)
O15 O 0.9984(8) 0.1774(11) 0.1504(4)
C18 C 0.9836(10) 0.3391(13) 0.0373(5)
C19 C 0.9575(10) 0.1769(13) 0.0791(5)
Er1 Er 0.43082(4) 0.47958(5) 0.75337(2)
C1 C 0.8843(9) 0.5719(13) 0.9332(5)
C2 C 0.4664(10) 0.0743(13) 0.9261(5)
C4 C 0.4362(10) 0.1746(12) 0.8503(5)
O5 O 0.2123(8) 0.6175(11) 0.7183(5)
H2 H 0.2884 0.6753 0.7456
H3 H 0.2296 0.5251 0.6959
C6 C 0.4811(10) 0.1906(13) 0.9879(5)
H5 H 0.4688 0.3192 0.9797
C10 C 0.7540(9) 0.6486(13) 0.8650(5)
O6 O 0.6680(8) 0.5280(9) 0.8228(4)
O7 O 0.7404(6) 0.8212(9) 0.8553(3)
O8 O 0.3225(7) 0.2555(9) 0.8146(4)
O9 O 0.5332(7) 0.1915(8) 0.8284(3)
C17 C 0.8741(9) 0.4108(14) 0.9698(5)
H8 H 0.7895 0.3464 0.9483
O19 O 0.4724(8) 0.5753(9) 0.8854(4)
O21 O 0.4523(6) 0.8096(9) 0.8068(3)
O22 O 0.5477(6) 0.3096(9) 0.6932(3)
Er5 Er 0.56918(4) 0.97958(5) 0.74663(2)
O26 O 0.2596(6) 0.3212(9) 0.6447(3)
O28 O 0.4668(7) 0.6915(8) 0.6716(3)
C11 C 0.5336(10) 0.9257(13) 0.0739(5)
C13 C 0.5638(10) 0.8254(12) 0.1497(5)
C14 C 0.5189(10) 0.8094(13) 0.0121(5)
H6 H 0.5312 0.6808 0.0203
O12 O 0.6775(7) 0.7445(9) 0.1854(4)
O13 O 0.4668(7) 0.8085(8) 0.1716(3)
H7 H 0.8724 0.9585 0.0589
O18 O 0.7877(8) 0.3825(11) 0.2817(5)
H9 H 0.7116 0.3247 0.2544
H10 H 0.7704 0.4749 0.3041
O24 O 0.4523(6) 0.6904(9) 0.3068(3)
O27 O 0.7404(6) 0.6788(9) 0.3553(3)
O29 O 0.5332(7) 0.3085(8) 0.3284(3)
C3 C 0.4860(10) 0.8834(13) 0.9377(5)
C8 C 0.4708(10) 0.7461(13) 0.8746(5)
C1_2 C 0.1157(9) 0.0719(13) 0.5668(5)
O5_2 O 0.7877(8) 0.1175(11) 0.7817(5)
H2_2 H 0.7116 0.1753 0.7544
H3_2 H 0.7704 0.0251 0.8041
C10_2 C 0.2460(9) 0.1486(13) 0.6350(5)
O6_2 O 0.3320(8) 0.0280(9) 0.6772(4)
O19_2 O 0.5276(8) 0.0753(9) 0.6146(4)
C2_2 C 0.5336(10) 0.5743(13) 0.5739(5)
C3_2 C 0.5140(10) 0.3834(13) 0.5623(5)
C4_2 C 0.5638(10) 0.6746(12) 0.6497(5)
C6_2 C 0.5189(10) 0.6906(13) 0.5121(5)
H5_2 H 0.5312 0.8192 0.5203
C8_2 C 0.5292(10) 0.2461(13) 0.6254(5)
O8_2 O 0.6775(7) 0.7555(9) 0.6854(4)
O10_2 O 0.4724(8) 0.9247(9) 0.3854(4)
C11_2 C 0.4664(10) 0.4257(13) 0.4261(5)
C12_2 C 0.4860(10) 0.6166(13) 0.4377(5)
C13_2 C 0.4362(10) 0.3254(12) 0.3503(5)
C14_2 C 0.4811(10) 0.3094(13) 0.4879(5)
H6_2 H 0.4688 0.1808 0.4797
C15_2 C 0.4708(10) 0.7539(13) 0.3746(5)
O12_2 O 0.3225(7) 0.2445(9) 0.3146(4)
O14_2 O 0.1166(10) 0.5421(11) 0.4674(5)
H7_2 H 0.1276 0.4585 0.4411
O15_2 O 0.0016(8) 0.6774(11) 0.3496(4)
C17_2 C 0.1259(9) 0.9108(14) 0.5302(5)
H8_2 H 0.2105 0.8464 0.5517
C18_2 C 0.0164(10) 0.8391(13) 0.4627(5)
C19_2 C 0.0425(10) 0.6769(13) 0.4209(5)
O18_2 O 0.2123(8) 0.8825(11) 0.2183(5)
H9_2 H 0.2884 0.8247 0.2456
H10_2 H 0.2296 0.9749 0.1959
O25 O 0.6680(8) 0.9720(9) 0.3228(4)
O3_2 O 0.8834(10) 0.4579(11) 0.5326(5)
H1_2 H 0.8724 0.5415 0.5589
O4_2 O 0.9984(8) 0.3226(11) 0.6504(4)
C5_2 C 0.8741(9) 0.0892(14) 0.4698(5)
H4_2 H 0.7895 0.1536 0.4483
C7_2 C 0.9836(10) 0.1609(13) 0.5373(5)
C9_2 C 0.9575(10) 0.3231(13) 0.5791(5)
C16_2 C 0.8843(9) 0.9281(13) 0.4332(5)
C20_2 C 0.7540(9) 0.8514(13) 0.3650(5)
loop_
_geom_bond_atom_site_label_1
_geom_bond_atom_site_label_2
_geom_bond_site_symmetry_1
_geom_bond_site_symmetry_2
C5 H4 1_555 1_555
C16 C5 1_555 1_555
C20 C16 1_555 1_555
O16 C20 1_555 1_555
O17 C20 1_555 1_555
Er7 O16 1_555 1_555
Er9 O17 1_555 1_555
O4 C9 1_555 1_555
C9 O3 1_555 1_555
C7 C9 1_555 1_555
O10 C15 1_555 1_555
O11 C15 1_555 1_555
C15 C12 1_555 1_555
O15 C19 1_555 1_555
C19 O14 1_555 1_555
Er7 O10 1_555 1_555
Er9 O11 1_555 1_555
O11 Er7 1_555 1_555
C18 C19 1_555 1_555
Er1 O5 1_555 1_555
C4 C2 1_555 1_555
O5 H2 1_555 1_555
H3 O5 1_555 1_555
C6 C2 1_555 1_555
H5 C6 1_555 1_555
C10 C1 1_555 1_555
O6 Er1 1_555 1_555
O7 C10 1_555 1_555
O8 Er1 1_555 1_555
O9 Er1 1_555 1_555
C17 C1 1_555 1_555
H8 C17 1_555 1_555
O19 Er1 1_555 1_555
O21 Er1 1_555 1_555
O22 Er1 1_555 1_555
Er5 O7 1_555 1_555
O26 Er1 1_555 1_555
O28 Er1 1_555 1_555
C4 O8 1_555 1_555
C4 O9 1_555 1_555
C10 O6 1_555 1_555
O21 Er5 1_555 1_555
Er5 O28 1_555 1_555
C13 C11 1_555 1_555
H6 C14 1_555 1_555
O12 C13 1_555 1_555
O13 C13 1_555 1_555
Er7 O12 1_555 1_555
O18 Er7 1_555 1_555
H9 O18 1_555 1_555
H10 O18 1_555 1_555
O24 Er7 1_555 1_555
O27 Er7 1_555 1_555
O29 Er7 1_555 1_555
C11 C14 1_555 1_555
O13 Er7 1_555 1_555
O19 C8 1_555 1_555
O21 C8 1_555 1_555
C3 C8 1_555 1_555
O5_2 H2_2 1_555 1_555
H3_2 O5_2 1_555 1_555
C10_2 C1_2 1_555 1_555
O26 C10_2 1_555 1_555
C10_2 O6_2 1_555 1_555
O19_2 C8_2 1_555 1_555
O22 C8_2 1_555 1_555
C2_2 C3_2 1_555 1_555
C3_2 C8_2 1_555 1_555
C4_2 C2_2 1_555 1_555
C6_2 C2_2 1_555 1_555
H5_2 C6_2 1_555 1_555
O8_2 Er5 1_555 1_555
O10_2 C15_2 1_555 1_555
O24 C15_2 1_555 1_555
C11_2 C12_2 1_555 1_555
C12_2 C6_2 1_555 1_555
C13_2 C11_2 1_555 1_555
C14_2 C3_2 1_555 1_555
H6_2 C14_2 1_555 1_555
C15_2 C12_2 1_555 1_555
O12_2 C13_2 1_555 1_555
O29 C13_2 1_555 1_555
O14_2 H7_2 1_555 1_555
O15_2 C19_2 1_555 1_555
H8_2 C17_2 1_555 1_555
C19_2 O14_2 1_555 1_555
Er9 O12_2 1_555 1_555
C4_2 O8_2 1_555 1_555
C4_2 O28 1_555 1_555
C11_2 C14_2 1_555 1_555
O29 Er9 1_555 1_555
C17_2 C18_2 1_555 1_555
C18_2 C19_2 1_555 1_555
H9_2 O18_2 1_555 1_555
H10_2 O18_2 1_555 1_555
O3_2 H1_2 1_555 1_555
O4_2 C9_2 1_555 1_555
C5_2 H4_2 1_555 1_555
C7_2 C5_2 1_555 1_555
C9_2 O3_2 1_555 1_555
C7_2 C9_2 1_555 1_555
C20_2 C16_2 1_555 1_555
O25 C20_2 1_555 1_555
O27 C20_2 1_555 1_555

#END
