
###############################################################################
#
# This file contains modified crystal structure data generated from the
# MOF subset of the Cambridge Structural Database (CSD) v543 
# hosted by the Cambridge Crystallographic Data Centre (CCDC).
#
# This work is licensed under the Creative Commons
# Attribution-NonCommercial-ShareAlike 4.0 International License.
# To view a copy of this license, visit
# http://creativecommons.org/licenses/by-nc-sa/4.0/
# or send a letter to
# Creative Commons, PO Box 1866, Mountain View, CA 94042, USA.
#
# CIF created using the CSD Python API on 29 September 2022
# The structure has been converted into the P1 space group
# The structure has a 3D framework
# The original CSD entry QEYXAU is in the monoclinic crystal system
# The framework has been calculated to contain at least 10.0% void space
# The void calculation uses a probe of radius 1.32A, grid spacing 0.4
#
###############################################################################

data_QEYXAU
_chemical_formula_moiety         '(C24 H20 Ag4 N24 O8)n'
_symmetry_cell_setting           triclinic
_symmetry_space_group_name_H-M   'P 1'
_symmetry_Int_Tables_number      1
_space_group_name_Hall           'P 1'
loop_
_symmetry_equiv_pos_site_id
_symmetry_equiv_pos_as_xyz
1 x,y,z
_cell_length_a                   6.6119(13)
_cell_length_b                   10.960(2)
_cell_length_c                   16.952(3)
_cell_angle_alpha                90
_cell_angle_beta                 100.340(2)
_cell_angle_gamma                90
_cell_volume                     1208.5
loop_
_atom_site_label
_atom_site_type_symbol
_atom_site_fract_x
_atom_site_fract_y
_atom_site_fract_z
C6 C 0.3768(6) 0.0213(3) 0.5944(3)
H5 H 0.3722 0.1058 0.5985
Ag4 Ag 0.89571(4) 0.00658(3) 0.62124(2)
N9 N 0.4483(5) 0.0409(3) 0.4050(2)
Ag1 Ag 0.10429(4) 0.99342(3) 0.37876(2)
O2 O 0.0310(5) 0.7887(3) 0.44319(18)
N1 N 0.0534(5) 0.6221(3) 0.76229(19)
N3 N 0.0938(4) 0.7039(2) 0.64969(19)
N4 N 0.2905(4) 0.8381(3) 0.58302(18)
N5 N 0.2129(4) 0.9521(3) 0.5874(2)
N6 N 0.5517(5) 0.9591(3) 0.5950(2)
C1 C 0.1465(6) 0.6118(3) 0.7000(2)
H1 H 0.2360 0.5491 0.6925
C3 C 0.1647(5) 0.7288(3) 0.5753(2)
H3 H 0.2544 0.6608 0.5665
C5 C 0.4937(6) 0.8461(4) 0.5872(2)
H4 H 0.5809 0.7801 0.5848
Ag2 Ag 0.10429(4) 0.50658(3) 0.87876(2)
N7 N 0.0534(5) 0.8779(3) 0.26229(19)
N8 N 0.7871(4) 0.0479(3) 0.4126(2)
N8_2 N 0.2129(4) 0.5479(3) 0.0874(2)
O1 O 0.1689(5) 0.1769(3) 0.99429(17)
N2 N 0.0381(5) 0.2796(3) 0.8212(2)
C2 C 0.0555(6) 0.2269(3) 0.7535(2)
H2 H 0.1363 0.2588 0.7189
C4 C 0.0094(6) 0.2344(4) 0.9989(2)
Ag1_2 Ag 0.89571(4) 0.49342(3) 0.12124(2)
O2_2 O 0.9690(5) 0.2887(3) 0.05681(18)
N7_2 N 0.9466(5) 0.3779(3) 0.23771(19)
N9_2 N 0.5517(5) 0.5409(3) 0.0950(2)
N1_2 N 0.9466(5) 0.1221(3) 0.73771(19)
N3_2 N 0.9062(4) 0.2039(2) 0.85031(19)
N4_2 N 0.7095(4) 0.3381(3) 0.91698(18)
N5_2 N 0.7871(4) 0.4521(3) 0.9126(2)
N6_2 N 0.4483(5) 0.4591(3) 0.9050(2)
C1_2 C 0.8535(6) 0.1118(3) 0.8000(2)
H1_2 H 0.7640 0.0491 0.8075
C3_2 C 0.8353(5) 0.2288(3) 0.9247(2)
H3_2 H 0.7456 0.1608 0.9335
C5_2 C 0.5063(6) 0.3461(4) 0.9128(2)
H4_2 H 0.4191 0.2801 0.9152
C6_2 C 0.6232(6) 0.5213(3) 0.9056(3)
H5_2 H 0.6278 0.6058 0.9015
O2_3 O 0.9690(5) 0.2113(3) 0.55681(18)
N3_3 N 0.9062(4) 0.2961(2) 0.35031(19)
N4_3 N 0.7095(4) 0.1619(3) 0.41698(18)
C1_3 C 0.8535(6) 0.3882(3) 0.3000(2)
H1_3 H 0.7640 0.4509 0.3075
C3_3 C 0.8353(5) 0.2712(3) 0.4247(2)
H3_3 H 0.7456 0.3392 0.4335
C5_3 C 0.5063(6) 0.1539(4) 0.4128(2)
H4_3 H 0.4191 0.2199 0.4152
C6_3 C 0.6232(6) 0.9787(3) 0.4056(3)
H5_3 H 0.6278 0.8942 0.4015
N3_4 N 0.0938(4) 0.7961(2) 0.14969(19)
N4_4 N 0.2905(4) 0.6619(3) 0.08302(18)
C1_4 C 0.1465(6) 0.8882(3) 0.2000(2)
H1_4 H 0.2360 0.9509 0.1925
C3_4 C 0.1647(5) 0.7712(3) 0.0753(2)
H3_4 H 0.2544 0.8392 0.0665
C5_4 C 0.4937(6) 0.6539(4) 0.0872(2)
H4_4 H 0.5809 0.7199 0.0848
C6_4 C 0.3768(6) 0.4787(3) 0.0944(3)
H5_4 H 0.3722 0.3942 0.0985
O2_4 O 0.0310(5) 0.7113(3) 0.94319(18)
O1_2 O 0.8311(5) 0.8231(3) 0.00571(17)
N2_2 N 0.9619(5) 0.7204(3) 0.1788(2)
C2_2 C 0.9445(6) 0.7731(3) 0.2465(2)
H2_2 H 0.8637 0.7412 0.2811
C4_2 C 0.9906(6) 0.7656(4) 0.0011(2)
O1_3 O 0.8311(5) 0.6769(3) 0.50571(17)
N2_3 N 0.9619(5) 0.7796(3) 0.6788(2)
C2_3 C 0.9445(6) 0.7269(3) 0.7465(2)
H2_3 H 0.8637 0.7588 0.7811
C4_3 C 0.9906(6) 0.7344(4) 0.5011(2)
O1_4 O 0.1689(5) 0.3231(3) 0.49429(17)
N2_4 N 0.0381(5) 0.2204(3) 0.3212(2)
C2_4 C 0.0555(6) 0.2731(3) 0.2535(2)
H2_4 H 0.1363 0.2412 0.2189
C4_4 C 0.0094(6) 0.2656(4) 0.4989(2)
loop_
_geom_bond_atom_site_label_1
_geom_bond_atom_site_label_2
_geom_bond_site_symmetry_1
_geom_bond_site_symmetry_2
H5 C6 1_555 1_555
Ag1 O2 1_555 1_555
N1 C1 1_555 1_555
N3 C1 1_555 1_555
N4 N5 1_555 1_555
N6 C5 1_555 1_555
C1 H1 1_555 1_555
C3 N3 1_555 1_555
H3 C3 1_555 1_555
C5 N4 1_555 1_555
H4 C5 1_555 1_555
Ag2 N1 1_555 1_555
N7 Ag1 1_555 1_555
N4 C3 1_555 1_555
O1 C4 1_555 1_555
H2 C2 1_555 1_555
N2 C2 1_555 1_555
Ag1_2 O2_2 1_555 1_555
N7_2 Ag1_2 1_555 1_555
N9_2 Ag1_2 1_555 1_555
N1_2 C1_2 1_555 1_555
N3_2 C1_2 1_555 1_555
N4_2 N5_2 1_555 1_555
N5_2 C6_2 1_555 1_555
N6_2 C5_2 1_555 1_555
C1_2 H1_2 1_555 1_555
C3_2 N3_2 1_555 1_555
H3_2 C3_2 1_555 1_555
C5_2 N4_2 1_555 1_555
H4_2 C5_2 1_555 1_555
C6_2 N6_2 1_555 1_555
H5_2 C6_2 1_555 1_555
Ag4 N1_2 1_555 1_555
Ag2 N6_2 1_555 1_555
N4_2 C3_2 1_555 1_555
Ag4 O2_3 1_555 1_555
N7_2 C1_3 1_555 1_555
N3_3 C1_3 1_555 1_555
N4_3 N8 1_555 1_555
N9 C5_3 1_555 1_555
C1_3 H1_3 1_555 1_555
C3_3 N3_3 1_555 1_555
H3_3 C3_3 1_555 1_555
C5_3 N4_3 1_555 1_555
H4_3 C5_3 1_555 1_555
N4_3 C3_3 1_555 1_555
H5_3 C6_3 1_555 1_555
N7 C1_4 1_555 1_555
N3_4 C1_4 1_555 1_555
N4_4 N8_2 1_555 1_555
N8_2 C6_4 1_555 1_555
N9_2 C5_4 1_555 1_555
C1_4 H1_4 1_555 1_555
C3_4 N3_4 1_555 1_555
H3_4 C3_4 1_555 1_555
C5_4 N4_4 1_555 1_555
H4_4 C5_4 1_555 1_555
C6_4 N9_2 1_555 1_555
H5_4 C6_4 1_555 1_555
N4_4 C3_4 1_555 1_555
Ag2 O2_4 1_555 1_555
O1_2 C4_2 1_555 1_555
H2_2 C2_2 1_555 1_555
N2_2 C2_2 1_555 1_555
O1_3 C4_3 1_555 1_555
H2_3 C2_3 1_555 1_555
N2_3 C2_3 1_555 1_555
O1_4 C4_4 1_555 1_555
H2_4 C2_4 1_555 1_555
N2_4 C2_4 1_555 1_555

#END
