
###############################################################################
#
# This file contains modified crystal structure data generated from the
# MOF subset of the Cambridge Structural Database (CSD) v543 
# hosted by the Cambridge Crystallographic Data Centre (CCDC).
#
# This work is licensed under the Creative Commons
# Attribution-NonCommercial-ShareAlike 4.0 International License.
# To view a copy of this license, visit
# http://creativecommons.org/licenses/by-nc-sa/4.0/
# or send a letter to
# Creative Commons, PO Box 1866, Mountain View, CA 94042, USA.
#
# CIF created using the CSD Python API on 29 September 2022
# The structure has been converted into the P1 space group
# The structure has a 3D framework
# The original CSD entry QEZZOL is in the orthorhombic crystal system
# The framework has been calculated to contain at least 10.0% void space
# The void calculation uses a probe of radius 1.32A, grid spacing 0.4
# H atom positions have been added when not included in the experimental data
# Generated hydrogen atom positions removed from atoms on special positions
#
###############################################################################

data_QEZZOL
_chemical_formula_moiety         '(C96 H56 Cu30 N80 O4 W8)n'
_symmetry_cell_setting           triclinic
_symmetry_space_group_name_H-M   'P 1'
_symmetry_Int_Tables_number      1
_space_group_name_Hall           'P 1'
loop_
_symmetry_equiv_pos_site_id
_symmetry_equiv_pos_as_xyz
1 x,y,z
_cell_length_a                   14.761(2)
_cell_length_b                   25.593(4)
_cell_length_c                   11.5284(19)
_cell_angle_alpha                90
_cell_angle_beta                 90
_cell_angle_gamma                90
_cell_volume                     4355.18
loop_
_atom_site_label
_atom_site_type_symbol
_atom_site_fract_x
_atom_site_fract_y
_atom_site_fract_z
W6 W 0.2500 0.38944(2) 0.72330(4)
W11 W 0.2500 0.599490(10) 0.22739(4)
W12 W 0.2500 0.900510(10) 0.22739(4)
Cu4 Cu -0.0000 0.5000 0.5000
Cu6 Cu -0.0000 0.5000 0.0000
Cu8 Cu 0.01404(9) 0.7500 0.31494(12)
O2 O 0.0261(8) 0.7500 0.5026(9)
N15 N 0.1037(4) 0.4620(2) 0.5768(5)
N25 N 0.1024(4) 0.5634(2) 0.4296(5)
N28 N 0.0862(4) 0.5540(2) 0.0582(5)
N31 N 0.1072(4) 0.6958(2) 0.2844(6)
N32 N 0.1072(4) 0.8042(2) 0.2844(6)
N37 N 0.0224(4) 0.4573(2) 0.3538(5)
N41 N 0.0241(4) 0.4577(2) 0.1462(5)
C17 C 0.1571(4) 0.4391(2) 0.6260(6)
C32 C 0.1557(5) 0.5764(2) 0.3633(6)
C36 C 0.1421(5) 0.5725(2) 0.1164(6)
C42 C 0.1578(4) 0.6631(2) 0.2651(6)
C43 C 0.1578(4) 0.8369(2) 0.2651(6)
C51 C 0.0139(4) 0.4801(2) 0.2498(6)
C54 C 0.0465(6) 0.4060(3) 0.3523(8)
C57 C 0.0606(8) 0.3804(3) 0.2496(8)
C60 C 0.0477(7) 0.4073(3) 0.1481(8)
H10 H 0.0535 0.3881 0.4219
H13 H 0.0785 0.3456 0.2488
H16 H 0.0556 0.3898 0.0781
Cu6_2 Cu -0.0000 0.5000 1.0000
N18 N 0.1142(4) 0.4533(2) 0.9021(5)
C21 C 0.1610(4) 0.4313(3) 0.8410(6)
Cu7 Cu 0.5000 0.5000 0.0000
N33 N 0.7500 0.3233(5) 0.0058(10)
W1 W 0.7500 0.61056(2) 0.27670(4)
Cu1 Cu 0.5000 0.5000 0.5000
Cu3 Cu 0.48596(9) 0.7500 0.31494(12)
O1 O 0.4739(8) 0.7500 0.5026(9)
N1 N 0.6037(4) 0.5380(2) 0.4232(5)
N2 N 0.6142(4) 0.5467(2) 0.0979(5)
N3 N 0.5805(4) 0.6958(2) 0.2982(6)
N4 N 0.7500 0.6584(4) 0.5453(9)
N5 N 0.7500 0.6760(5) 0.0279(11)
N6 N 0.3976(4) 0.5634(2) 0.4296(5)
N7 N 0.4138(4) 0.5540(2) 0.0582(5)
N8 N 0.3928(4) 0.6958(2) 0.2844(6)
N10 N 0.2500 0.4696(4) 0.2339(9)
N11 N 0.4776(4) 0.4573(2) 0.3538(5)
N12 N 0.4759(4) 0.4577(2) 0.1462(5)
C1 C 0.6571(4) 0.5609(2) 0.3740(6)
C2 C 0.6610(4) 0.5687(3) 0.1590(6)
C3 C 0.6384(5) 0.6655(2) 0.2896(7)
C4 C 0.7500 0.6412(4) 0.4529(11)
C5 C 0.7500 0.6532(5) 0.1147(11)
C6 C 0.3443(5) 0.5764(2) 0.3633(6)
C7 C 0.3579(5) 0.5725(2) 0.1164(6)
C8 C 0.3422(4) 0.6631(2) 0.2651(6)
C9 C 0.2500 0.6492(4) 0.0747(11)
C10 C 0.2500 0.5141(4) 0.2325(9)
C11 C 0.4861(4) 0.4801(2) 0.2498(6)
C12 C 0.4535(6) 0.4060(3) 0.3523(8)
C13 C 0.4394(8) 0.3804(3) 0.2496(8)
C14 C 0.4523(7) 0.4073(3) 0.1481(8)
H1 H 0.5008 0.5154 0.2499
H2 H 0.4465 0.3881 0.4219
H3 H 0.4215 0.3456 0.2488
H4 H 0.4444 0.3898 0.0781
W5 W 0.7500 0.88944(2) 0.27670(4)
W8 W 0.7500 0.400510(10) 0.77261(4)
Cu4_2 Cu 1.0000 0.5000 0.5000
Cu6_3 Cu 1.0000 0.5000 0.0000
Cu7_2 Cu 0.5000 0.5000 1.0000
N13 N 0.8963(4) 0.5380(2) 0.4232(5)
N14 N 0.3963(4) 0.4620(2) 0.5768(5)
N16 N 0.8858(4) 0.5467(2) 0.0979(5)
N19 N 0.9195(4) 0.6958(2) 0.2982(6)
N20 N 0.5805(4) 0.8042(2) 0.2982(6)
N21 N 0.9195(4) 0.8042(2) 0.2982(6)
N22 N 0.2500 0.3416(4) 0.4547(9)
N23 N 0.2500 0.3240(5) 0.9721(11)
N24 N 0.6024(4) 0.4366(2) 0.5704(5)
N26 N 0.8976(4) 0.4366(2) 0.5704(5)
N30 N 0.3928(4) 0.8042(2) 0.2844(6)
N34 N 0.7500 0.5304(4) 0.7661(9)
N35 N 0.5224(4) 0.5427(2) 0.6462(5)
N38 N 0.9776(4) 0.5427(2) 0.6462(5)
N39 N 0.5241(4) 0.5423(2) 0.8538(5)
C15 C 0.8429(4) 0.5609(2) 0.3740(6)
C16 C 0.3429(4) 0.4391(2) 0.6260(6)
C19 C 0.8390(4) 0.5687(3) 0.1590(6)
C22 C 0.3390(4) 0.4313(3) 0.8410(6)
C24 C 0.8616(5) 0.6655(2) 0.2896(7)
C25 C 0.6384(5) 0.8345(2) 0.2896(7)
C26 C 0.8616(5) 0.8345(2) 0.2896(7)
C27 C 0.3616(5) 0.3345(2) 0.7104(7)
C28 C 0.1384(5) 0.3345(2) 0.7104(7)
C29 C 0.2500 0.3588(4) 0.5471(11)
C30 C 0.2500 0.3468(5) 0.8853(11)
C31 C 0.6557(5) 0.4236(2) 0.6367(6)
C33 C 0.8443(5) 0.4236(2) 0.6367(6)
C39 C 0.6421(5) 0.4275(2) 0.8836(6)
C40 C 0.8579(5) 0.4275(2) 0.8836(6)
C41 C 0.3422(4) 0.8369(2) 0.2651(6)
C45 C 0.6578(4) 0.3369(2) 0.7349(6)
C46 C 0.8422(4) 0.3369(2) 0.7349(6)
C47 C 0.7500 0.3508(4) 0.9253(11)
C48 C 0.7500 0.4859(4) 0.7675(9)
C49 C 0.5139(4) 0.5199(2) 0.7502(6)
C52 C 0.5465(6) 0.5940(3) 0.6477(8)
C55 C 0.5606(8) 0.6196(3) 0.7504(8)
C58 C 0.5477(7) 0.5927(3) 0.8519(8)
H5 H 0.4992 0.4846 0.7501
H7 H 0.9992 0.5154 0.2499
H8 H 0.5535 0.6119 0.5781
H11 H 0.5785 0.6544 0.7512
H14 H 0.5556 0.6102 0.9219
N9 N 0.2500 0.6767(5) 0.9942(10)
Cu6_4 Cu 1.0000 0.5000 1.0000
N17 N 0.3858(4) 0.4533(2) 0.9021(5)
N27 N 0.5862(4) 0.4460(2) 0.9418(5)
N29 N 0.9138(4) 0.4460(2) 0.9418(5)
N42 N 0.9759(4) 0.5423(2) 0.8538(5)
N3_2 N 0.0805(4) 0.3042(2) 0.7018(6)
H1_2 H 0.0008 0.4846 0.7501
W5_2 W 0.2500 0.11056(2) 0.72330(4)
W12_2 W 0.7500 0.099490(10) 0.77261(4)
Cu8_2 Cu 0.51404(9) 0.2500 0.68506(12)
O2_2 O 0.5261(8) 0.2500 0.4974(9)
N19_2 N 0.4195(4) 0.3042(2) 0.7018(6)
N20_2 N 0.0805(4) 0.1958(2) 0.7018(6)
N21_2 N 0.4195(4) 0.1958(2) 0.7018(6)
N31_2 N 0.6072(4) 0.3042(2) 0.7156(6)
N32_2 N 0.6072(4) 0.1958(2) 0.7156(6)
C25_2 C 0.1384(5) 0.1655(2) 0.7104(7)
C26_2 C 0.3616(5) 0.1655(2) 0.7104(7)
C43_2 C 0.6578(4) 0.1631(2) 0.7349(6)
H17 H 0.0331895 0.240688 0.462345
Cu3_2 Cu 0.98596(9) 0.2500 0.68506(12)
O1_2 O 0.9739(8) 0.2500 0.4974(9)
N8_2 N 0.8928(4) 0.3042(2) 0.7156(6)
C11_2 C 0.9861(4) 0.5199(2) 0.7502(6)
C12_2 C 0.9535(6) 0.5940(3) 0.6477(8)
C13_2 C 0.9394(8) 0.6196(3) 0.7504(8)
C14_2 C 0.9523(7) 0.5927(3) 0.8519(8)
H2_2 H 0.9465 0.6119 0.5781
H3_2 H 0.9215 0.6544 0.7512
H4_2 H 0.9444 0.6102 0.9219
N30_2 N 0.8928(4) 0.1958(2) 0.7156(6)
C41_2 C 0.8422(4) 0.1631(2) 0.7349(6)
Cu2 Cu 0.5000 0.0000 0.0000
N9_2 N 0.7500 0.1767(5) 0.0058(10)
Cu5 Cu 0.5000 0.0000 0.5000
Cu6_5 Cu 0.0000 0.0000 0.0000
N36 N 0.4776(4) 0.0427(2) 0.3538(5)
N40 N 0.4759(4) 0.0423(2) 0.1462(5)
N42_2 N 0.0241(4) 0.0423(2) 0.1462(5)
C50 C 0.4861(4) 0.0199(2) 0.2498(6)
C53 C 0.4535(6) 0.0940(3) 0.3523(8)
C56 C 0.4394(8) 0.1196(3) 0.2496(8)
C59 C 0.4523(7) 0.0927(3) 0.1481(8)
H9 H 0.4465 0.1119 0.4219
H12 H 0.4215 0.1544 0.2488
H15 H 0.4444 0.1102 0.0781
Cu2_2 Cu 0.5000 0.0000 1.0000
N1_2 N 0.3963(4) 0.0380(2) 0.5768(5)
N2_2 N 0.3858(4) 0.0467(2) 0.9021(5)
N4_2 N 0.2500 0.1584(4) 0.4547(9)
N5_2 N 0.2500 0.1760(5) 0.9721(11)
N6_2 N 0.6024(4) 0.0634(2) 0.5704(5)
N7_2 N 0.5862(4) 0.0540(2) 0.9418(5)
C1_2 C 0.3429(4) 0.0609(2) 0.6260(6)
C2_2 C 0.3390(4) 0.0687(3) 0.8410(6)
C4_2 C 0.2500 0.1412(4) 0.5471(11)
C5_2 C 0.2500 0.1532(5) 0.8853(11)
C6_2 C 0.6557(5) 0.0764(2) 0.6367(6)
C7_2 C 0.6421(5) 0.0725(2) 0.8836(6)
C9_2 C 0.7500 0.1492(4) 0.9253(11)
C10_2 C 0.7500 0.0141(4) 0.7675(9)
H1_3 H 0.4992 0.0154 0.7501
Cu4_3 Cu 0.0000 0.0000 0.5000
Cu6_6 Cu 0.0000 0.0000 1.0000
N13_2 N 0.1037(4) 0.0380(2) 0.5768(5)
N16_2 N 0.1142(4) 0.0467(2) 0.9021(5)
N34_2 N 0.2500 0.0304(4) 0.2339(9)
N38_2 N 0.0224(4) 0.0427(2) 0.3538(5)
C15_2 C 0.1571(4) 0.0609(2) 0.6260(6)
C19_2 C 0.1610(4) 0.0687(3) 0.8410(6)
C34 C 0.8443(5) 0.0764(2) 0.6367(6)
C38 C 0.8579(5) 0.0725(2) 0.8836(6)
H7_2 H 0.0008 0.0154 0.7501
Cu2_3 Cu 0.5000 1.0000 0.0000
Cu5_2 Cu 0.5000 1.0000 0.5000
Cu6_7 Cu 0.0000 1.0000 0.0000
N17_2 N 0.6142(4) 0.9533(2) 0.0979(5)
N27_2 N 0.4138(4) 0.9460(2) 0.0582(5)
N29_2 N 0.0862(4) 0.9460(2) 0.0582(5)
C20 C 0.6610(4) 0.9313(3) 0.1590(6)
C35 C 0.3579(5) 0.9275(2) 0.1164(6)
C37 C 0.1421(5) 0.9275(2) 0.1164(6)
H6 H 0.5008 0.9846 0.2499
Cu2_4 Cu 0.5000 1.0000 1.0000
N10_2 N 0.7500 0.9696(4) 0.7661(9)
N11_2 N 0.5224(4) 0.9573(2) 0.6462(5)
N12_2 N 0.5241(4) 0.9577(2) 0.8538(5)
C11_3 C 0.5139(4) 0.9801(2) 0.7502(6)
C12_3 C 0.5465(6) 0.9060(3) 0.6477(8)
C13_3 C 0.5606(8) 0.8804(3) 0.7504(8)
C14_3 C 0.5477(7) 0.9073(3) 0.8519(8)
H2_3 H 0.5535 0.8881 0.5781
H3_3 H 0.5785 0.8456 0.7512
H4_3 H 0.5556 0.8898 0.9219
Cu4_4 Cu 0.0000 1.0000 0.5000
Cu6_8 Cu 0.0000 1.0000 1.0000
N14_2 N 0.6037(4) 0.9620(2) 0.4232(5)
N22_2 N 0.7500 0.8416(4) 0.5453(9)
N23_2 N 0.7500 0.8240(5) 0.0279(11)
N24_2 N 0.3976(4) 0.9366(2) 0.4296(5)
N26_2 N 0.1024(4) 0.9366(2) 0.4296(5)
C16_2 C 0.6571(4) 0.9391(2) 0.3740(6)
C18 C 0.8429(4) 0.9391(2) 0.3740(6)
C23 C 0.8390(4) 0.9313(3) 0.1590(6)
C29_2 C 0.7500 0.8588(4) 0.4529(11)
C30_2 C 0.7500 0.8468(5) 0.1147(11)
C31_2 C 0.3443(5) 0.9236(2) 0.3633(6)
C33_2 C 0.1557(5) 0.9236(2) 0.3633(6)
C47_2 C 0.2500 0.8508(4) 0.0747(11)
C48_2 C 0.2500 0.9859(4) 0.2325(9)
N33_2 N 0.2500 0.8233(5) 0.9942(10)
Cu6_9 Cu 1.0000 0.0000 0.0000
Cu4_5 Cu 1.0000 0.0000 0.5000
Cu6_10 Cu 1.0000 0.0000 1.0000
N25_2 N 0.8976(4) 0.0634(2) 0.5704(5)
N28_2 N 0.9138(4) 0.0540(2) 0.9418(5)
Cu6_11 Cu 1.0000 1.0000 0.0000
N18_2 N 0.8858(4) 0.9533(2) 0.0979(5)
Cu4_6 Cu 1.0000 1.0000 0.5000
Cu6_12 Cu 1.0000 1.0000 1.0000
N15_2 N 0.8963(4) 0.9620(2) 0.4232(5)
N37_2 N 0.9776(4) 0.9573(2) 0.6462(5)
N41_2 N 0.9759(4) 0.9577(2) 0.8538(5)
C51_2 C 0.9861(4) 0.9801(2) 0.7502(6)
C54_2 C 0.9535(6) 0.9060(3) 0.6477(8)
C57_2 C 0.9394(8) 0.8804(3) 0.7504(8)
C60_2 C 0.9523(7) 0.9073(3) 0.8519(8)
H10_2 H 0.9465 0.8881 0.5781
H13_2 H 0.9215 0.8456 0.7512
H16_2 H 0.9444 0.8898 0.9219
C11_4 C 0.0139(4) 0.0199(2) 0.2498(6)
C12_4 C 0.0465(6) 0.0940(3) 0.3523(8)
C13_4 C 0.0606(8) 0.1196(3) 0.2496(8)
C14_4 C 0.0477(7) 0.0927(3) 0.1481(8)
H2_4 H 0.0535 0.1119 0.4219
H3_4 H 0.0785 0.1544 0.2488
H4_4 H 0.0556 0.1102 0.0781
H1_4 H 0.9992 0.9846 0.2499
H17_2 H 0.96681 0.740688 0.537655
H17_3 H 0.96681 0.759312 0.537655
H17_4 H 0.0331895 0.259312 0.462345
loop_
_geom_bond_atom_site_label_1
_geom_bond_atom_site_label_2
_geom_bond_site_symmetry_1
_geom_bond_site_symmetry_2
W6 C17 1_555 1_555
W11 C32 1_555 1_555
W12 C43 1_555 1_555
Cu8 O2 1_555 1_555
N15 Cu4 1_555 1_555
N25 Cu4 1_555 1_555
N28 Cu6 1_555 1_555
N31 Cu8 1_555 1_555
N32 Cu8 1_555 1_555
N37 Cu4 1_555 1_555
N41 Cu6 1_555 1_555
C17 N15 1_555 1_555
C32 N25 1_555 1_555
C36 W11 1_555 1_555
C42 W11 1_555 1_555
C43 N32 1_555 1_555
C51 N37 1_555 1_555
C54 N37 1_555 1_555
C57 C54 1_555 1_555
C60 N41 1_555 1_555
H10 C54 1_555 1_555
H13 C57 1_555 1_555
H16 C60 1_555 1_555
N28 C36 1_555 1_555
N31 C42 1_555 1_555
N41 C51 1_555 1_555
C57 C60 1_555 1_555
W6 C21 1_555 1_555
N18 Cu6_2 1_555 1_555
C21 N18 1_555 1_555
W1 C1 1_555 1_555
W11 C6 1_555 1_555
Cu1 N1 1_555 1_555
Cu7 N2 1_555 1_555
Cu3 O1 1_555 1_555
N1 C1 1_555 1_555
N2 C2 1_555 1_555
N3 Cu3 1_555 1_555
N4 C4 1_555 1_555
N5 C5 1_555 1_555
N6 Cu1 1_555 1_555
N7 Cu7 1_555 1_555
N8 Cu3 1_555 1_555
N10 C10 1_555 1_555
N11 Cu1 1_555 1_555
N12 Cu7 1_555 1_555
C2 W1 1_555 1_555
C3 W1 1_555 1_555
C4 W1 1_555 1_555
C5 W1 1_555 1_555
C6 N6 1_555 1_555
C7 W11 1_555 1_555
C8 W11 1_555 1_555
C9 W11 1_555 1_555
C10 W11 1_555 1_555
C11 N11 1_555 1_555
C12 N11 1_555 1_555
C13 C12 1_555 1_555
C14 N12 1_555 1_555
H1 C11 1_555 1_555
H2 C12 1_555 1_555
H3 C13 1_555 1_555
H4 C14 1_555 1_555
W6 C16 1_555 1_555
W5 C25 1_555 1_555
W8 C31 1_555 1_555
W12 C41 1_555 1_555
Cu4_2 N13 1_555 1_555
Cu6_3 N16 1_555 1_555
Cu7_2 N39 1_555 1_555
N13 C15 1_555 1_555
N14 Cu1 1_555 1_555
N16 C19 1_555 1_555
N20 Cu3 1_555 1_555
N22 C29 1_555 1_555
N23 C30 1_555 1_555
N24 Cu1 1_555 1_555
N26 Cu4_2 1_555 1_555
N30 Cu3 1_555 1_555
N34 C48 1_555 1_555
N35 Cu1 1_555 1_555
N38 Cu4_2 1_555 1_555
N39 C49 1_555 1_555
C15 W1 1_555 1_555
C16 N14 1_555 1_555
C19 W1 1_555 1_555
C22 W6 1_555 1_555
C24 W1 1_555 1_555
C25 N20 1_555 1_555
C26 W5 1_555 1_555
C27 W6 1_555 1_555
C28 W6 1_555 1_555
C29 W6 1_555 1_555
C30 W6 1_555 1_555
C31 N24 1_555 1_555
C33 W8 1_555 1_555
C39 W8 1_555 1_555
C40 W8 1_555 1_555
C41 N30 1_555 1_555
C45 W8 1_555 1_555
C46 W8 1_555 1_555
C47 W8 1_555 1_555
C48 W8 1_555 1_555
C49 N35 1_555 1_555
C52 N35 1_555 1_555
C55 C52 1_555 1_555
C58 N39 1_555 1_555
H5 C49 1_555 1_555
H8 C52 1_555 1_555
H11 C55 1_555 1_555
H14 C58 1_555 1_555
N3 C3 1_555 1_555
N7 C7 1_555 1_555
N8 C8 1_555 1_555
N12 C11 1_555 1_555
C13 C14 1_555 1_555
N19 C24 1_555 1_555
N21 C26 1_555 1_555
N26 C33 1_555 1_555
C55 C58 1_555 1_555
N17 Cu7_2 1_555 1_555
N27 Cu7_2 1_555 1_555
N29 Cu6_4 1_555 1_555
N42 Cu6_4 1_555 1_555
C22 N17 1_555 1_555
C39 N27 1_555 1_555
N29 C40 1_555 1_555
W5_2 C25_2 1_555 1_555
W12_2 C43_2 1_555 1_555
Cu8_2 O2_2 1_555 1_555
N19_2 Cu8_2 1_555 1_555
N21_2 Cu8_2 1_555 1_555
N31_2 Cu8_2 1_555 1_555
N32_2 Cu8_2 1_555 1_555
C25_2 N20_2 1_555 1_555
C26_2 W5_2 1_555 1_555
C43_2 N32_2 1_555 1_555
N3_2 C28 1_555 1_555
N19_2 C27 1_555 1_555
N21_2 C26_2 1_555 1_555
N31_2 C45 1_555 1_555
Cu3_2 O1_2 1_555 1_555
N8_2 Cu3_2 1_555 1_555
C11_2 N38 1_555 1_555
C12_2 N38 1_555 1_555
C13_2 C12_2 1_555 1_555
C14_2 N42 1_555 1_555
H2_2 C12_2 1_555 1_555
H3_2 C13_2 1_555 1_555
H4_2 C14_2 1_555 1_555
W12_2 C41_2 1_555 1_555
N30_2 Cu3_2 1_555 1_555
C41_2 N30_2 1_555 1_555
N8_2 C46 1_555 1_555
N42 C11_2 1_555 1_555
C13_2 C14_2 1_555 1_555
Cu5 N36 1_555 1_555
N36 C50 1_555 1_555
N40 Cu2 1_555 1_555
N42_2 Cu6_5 1_555 1_555
C50 N40 1_555 1_555
C53 N36 1_555 1_555
C56 C53 1_555 1_555
C59 N40 1_555 1_555
H9 C53 1_555 1_555
H12 C56 1_555 1_555
H15 C59 1_555 1_555
C56 C59 1_555 1_555
W5_2 C1_2 1_555 1_555
W12_2 C6_2 1_555 1_555
Cu5 N1_2 1_555 1_555
Cu2_2 N2_2 1_555 1_555
N1_2 C1_2 1_555 1_555
N2_2 C2_2 1_555 1_555
N4_2 C4_2 1_555 1_555
N5_2 C5_2 1_555 1_555
N6_2 Cu5 1_555 1_555
N7_2 Cu2_2 1_555 1_555
C2_2 W5_2 1_555 1_555
C4_2 W5_2 1_555 1_555
C5_2 W5_2 1_555 1_555
C6_2 N6_2 1_555 1_555
C7_2 W12_2 1_555 1_555
C9_2 W12_2 1_555 1_555
C10_2 W12_2 1_555 1_555
Cu4_3 N13_2 1_555 1_555
Cu6_6 N16_2 1_555 1_555
N13_2 C15_2 1_555 1_555
N16_2 C19_2 1_555 1_555
N38_2 Cu4_3 1_555 1_555
C15_2 W5_2 1_555 1_555
C19_2 W5_2 1_555 1_555
C34 W12_2 1_555 1_555
C38 W12_2 1_555 1_555
N7_2 C7_2 1_555 1_555
W5 C20 1_555 1_555
W12 C35 1_555 1_555
N17_2 Cu2_3 1_555 1_555
N27_2 Cu2_3 1_555 1_555
N29_2 Cu6_7 1_555 1_555
C20 N17_2 1_555 1_555
C35 N27_2 1_555 1_555
C37 W12 1_555 1_555
N29_2 C37 1_555 1_555
N11_2 Cu5_2 1_555 1_555
N12_2 Cu2_4 1_555 1_555
C11_3 N11_2 1_555 1_555
C12_3 N11_2 1_555 1_555
C13_3 C12_3 1_555 1_555
C14_3 N12_2 1_555 1_555
H2_3 C12_3 1_555 1_555
H3_3 C13_3 1_555 1_555
H4_3 C14_3 1_555 1_555
W5 C16_2 1_555 1_555
W12 C31_2 1_555 1_555
N14_2 Cu5_2 1_555 1_555
N22_2 C29_2 1_555 1_555
N23_2 C30_2 1_555 1_555
N24_2 Cu5_2 1_555 1_555
N26_2 Cu4_4 1_555 1_555
C16_2 N14_2 1_555 1_555
C18 W5 1_555 1_555
C23 W5 1_555 1_555
C29_2 W5 1_555 1_555
C30_2 W5 1_555 1_555
C31_2 N24_2 1_555 1_555
C33_2 W12 1_555 1_555
C47_2 W12 1_555 1_555
C48_2 W12 1_555 1_555
N12_2 C11_3 1_555 1_555
C13_3 C14_3 1_555 1_555
N26_2 C33_2 1_555 1_555
N25_2 Cu4_5 1_555 1_555
N28_2 Cu6_10 1_555 1_555
C34 N25_2 1_555 1_555
N28_2 C38 1_555 1_555
N18_2 Cu6_11 1_555 1_555
C23 N18_2 1_555 1_555
N15_2 Cu4_6 1_555 1_555
N37_2 Cu4_6 1_555 1_555
N41_2 Cu6_12 1_555 1_555
C18 N15_2 1_555 1_555
C51_2 N37_2 1_555 1_555
C54_2 N37_2 1_555 1_555
C57_2 C54_2 1_555 1_555
C60_2 N41_2 1_555 1_555
H10_2 C54_2 1_555 1_555
H13_2 C57_2 1_555 1_555
H16_2 C60_2 1_555 1_555
N41_2 C51_2 1_555 1_555
C57_2 C60_2 1_555 1_555
C11_4 N38_2 1_555 1_555
C12_4 N38_2 1_555 1_555
C13_4 C12_4 1_555 1_555
C14_4 N42_2 1_555 1_555
H2_4 C12_4 1_555 1_555
H3_4 C13_4 1_555 1_555
H4_4 C14_4 1_555 1_555
N42_2 C11_4 1_555 1_555
C13_4 C14_4 1_555 1_555

#END
