
###############################################################################
#
# This file contains modified crystal structure data generated from the
# MOF subset of the Cambridge Structural Database (CSD) v543 
# hosted by the Cambridge Crystallographic Data Centre (CCDC).
#
# This work is licensed under the Creative Commons
# Attribution-NonCommercial-ShareAlike 4.0 International License.
# To view a copy of this license, visit
# http://creativecommons.org/licenses/by-nc-sa/4.0/
# or send a letter to
# Creative Commons, PO Box 1866, Mountain View, CA 94042, USA.
#
# CIF created using the CSD Python API on 29 September 2022
# The structure has been converted into the P1 space group
# The structure has a 3D framework
# The original CSD entry QIDDAI01 is in the monoclinic crystal system
# The framework has been calculated to contain at least 10.0% void space
# The void calculation uses a probe of radius 1.32A, grid spacing 0.4
# H atom positions have been added when not included in the experimental data
#
###############################################################################

data_QIDDAI01
_chemical_formula_moiety         '(C144 H96 Cd6 F32 N24 O24)n'
_symmetry_cell_setting           triclinic
_symmetry_space_group_name_H-M   'P 1'
_symmetry_Int_Tables_number      1
_space_group_name_Hall           'P 1'
loop_
_symmetry_equiv_pos_site_id
_symmetry_equiv_pos_as_xyz
1 x,y,z
_cell_length_a                   17.8430
_cell_length_b                   19.0360
_cell_length_c                   16.6850
_cell_angle_alpha                90.0
_cell_angle_beta                 119.17
_cell_angle_gamma                90.0
_cell_volume                     4948.49
loop_
_atom_site_label
_atom_site_type_symbol
_atom_site_fract_x
_atom_site_fract_y
_atom_site_fract_z
Cd1 Cd -0.00000 0.12249 0.25000
O1 O 0.13015 0.10190 0.23200
O2 O 0.17800 0.17760 0.34325
O3 O 0.24960 0.15875 0.27165
N1 N 0.01710 0.20850 0.36050
N3 N 0.18815 0.14655 0.28335
C2 C 0.08550 0.20340 0.44600
C4 C 0.09800 0.25210 0.51700
C5 C 0.03450 0.30535 0.49600
C6 C 0.04800 0.35550 0.57300
C7 C 0.02300 0.43015 0.53500
C19 C 0.08150 0.47560 0.53150
F5 F 0.16315 0.45370 0.55990
C20 C 0.05820 0.54355 0.49600
F6 F 0.11985 0.58490 0.49360
C24 C 0.03450 0.69170 0.59200
C25 C 0.04500 0.74095 0.66350
N8 N 0.06000 0.03175 0.36300
Cd2 Cd 0.00000 0.87751 0.75000
H2 H 0.154174 0.248666 0.584921
H5 H 0.131955 0.161411 0.461085
H10 H 0.115261 0.354672 0.625789
H11 H 0.00827439 0.339043 0.602607
H16 H 0.0994731 0.737814 0.732634
H19 H 0.0620686 0.00900855 0.14892
H21 H 0.0827617 0.651034 0.608416
F2 F 0.16315 0.54630 0.05990
C1 C 0.04500 0.25905 0.16350
C3 C 0.03450 0.30830 0.09200
C9 C 0.08150 0.52440 0.03150
C10 C 0.14300 0.01470 0.40100
C21 C 0.02300 0.56985 0.03500
C22 C 0.04800 0.64450 0.07300
C27 C 0.09800 0.74790 0.01700
H6 H 0.115261 0.645328 0.125789
H7 H 0.00827439 0.660957 0.102607
H9 H 0.184415 0.0461018 0.384105
H12 H 0.0994731 0.262186 0.232634
H13 H 0.0827617 0.348966 0.108416
H24 H 0.154174 0.751334 0.0849208
F1 F 0.11985 0.41510 0.99360
C8 C 0.05820 0.45645 0.99600
C23 C 0.03450 0.69465 0.99600
N4 N 0.01710 0.79150 0.86050
C26 C 0.08550 0.79660 0.94600
H4 H 0.131955 0.838589 0.961085
C34 C 0.14300 0.98530 0.90100
N5 N 0.06000 0.96825 0.86300
H8 H 0.184415 0.953898 0.884105
H20 H 0.0620686 0.990991 0.64892
O4 O 0.13015 0.89810 0.73200
O5 O 0.17800 0.82240 0.84325
O6 O 0.24960 0.84125 0.77165
N6 N 0.18815 0.85345 0.78335
H1 H 0.00379031 0.906333 0.0371968
Cd1_2 Cd 1.00000 0.12249 0.25000
F1_2 F 0.88015 0.41510 0.50640
F2_2 F 0.83685 0.54630 0.44010
N2 N 0.94000 0.03175 0.13700
C1_2 C 0.95500 0.25905 0.33650
C3_2 C 0.96550 0.30830 0.40800
C8_2 C 0.94180 0.45645 0.50400
C9_2 C 0.91850 0.52440 0.46850
C10_2 C 0.85700 0.01470 0.09900
C21_2 C 0.97700 0.56985 0.46500
C22_2 C 0.95200 0.64450 0.42700
C23_2 C 0.96550 0.69465 0.50400
N4_2 N 0.98290 0.79150 0.63950
C26_2 C 0.91450 0.79660 0.55400
C27_2 C 0.90200 0.74790 0.48300
O4_2 O 0.86985 0.10190 0.26800
O5_2 O 0.82200 0.17760 0.15675
O6_2 O 0.75040 0.15875 0.22835
N6_2 N 0.81185 0.14655 0.21665
N7 N 0.98290 0.20850 0.13950
Cd2_2 Cd 1.00000 0.87751 0.75000
H4_2 H 0.868045 0.838589 0.538915
H6_2 H 0.884739 0.645328 0.374211
H7_2 H 0.991726 0.660957 0.397393
H9_2 H 0.815585 0.0461018 0.115895
H12_2 H 0.900527 0.262186 0.267366
H13_2 H 0.917238 0.348966 0.391584
H24_2 H 0.845826 0.751334 0.415079
C2_2 C 0.91450 0.20340 0.05400
C5_2 C 0.96550 0.30535 0.00400
C20_2 C 0.94180 0.54355 0.00400
F6_2 F 0.88015 0.58490 0.00640
H5_2 H 0.868045 0.161411 0.0389147
H19_2 H 0.937931 0.00900855 0.35108
C4_2 C 0.90200 0.25210 0.98300
C6_2 C 0.95200 0.35550 0.92700
C7_2 C 0.97700 0.43015 0.96500
C19_2 C 0.91850 0.47560 0.96850
F5_2 F 0.83685 0.45370 0.94010
C24_2 C 0.96550 0.69170 0.90800
C25_2 C 0.95500 0.74095 0.83650
H2_2 H 0.845826 0.248666 0.915079
H10_2 H 0.884739 0.354672 0.874211
H11_2 H 0.991726 0.339043 0.897393
H16_2 H 0.900527 0.737814 0.767366
H21_2 H 0.917238 0.651034 0.891584
H20_2 H 0.937931 0.990991 0.85108
C34_2 C 0.85700 0.98530 0.59900
N5_2 N 0.94000 0.96825 0.63700
H8_2 H 0.815585 0.953898 0.615895
O1_2 O 0.86985 0.89810 0.76800
O2_2 O 0.82200 0.82240 0.65675
O3_2 O 0.75040 0.84125 0.72835
N3_2 N 0.81185 0.85345 0.71665
C11 C 0.99450 0.99475 0.11750
C12 C 0.82050 0.95735 0.03750
C13 C 0.96100 0.93585 0.05400
C14 C 0.87600 0.91705 0.01500
C28 C 0.83600 0.75320 0.04400
F7 F 0.92345 0.75680 0.08990
C29 C 0.79650 0.70295 0.06800
F8 F 0.84505 0.65910 0.13845
C30 C 0.70650 0.69700 0.02600
C31 C 0.66050 0.64345 0.05600
H3 H 0.752765 0.944295 0.00832974
H22 H 0.60817 0.669341 0.0603411
H23 H 0.705882 0.622151 0.12294
F3 F 0.65495 0.84090 0.86155
F4 F 0.57655 0.74320 0.91010
C15 C 0.83950 0.85655 0.94400
C16 C 0.79350 0.80300 0.97400
C17 C 0.70350 0.79705 0.93200
C18 C 0.66400 0.74680 0.95600
C32 C 0.62400 0.58295 0.98500
C33 C 0.67950 0.54265 0.96250
C34_3 C 0.64300 0.48530 0.90100
N5_3 N 0.56000 0.46825 0.86300
C35 C 0.50550 0.50525 0.88250
C36 C 0.53900 0.56415 0.94600
Cd3 Cd 0.50000 0.37751 0.75000
H8_3 H 0.684415 0.453898 0.884105
H14 H 0.89183 0.830659 0.939659
H15 H 0.794118 0.877849 0.87706
H17 H 0.747235 0.555705 0.99167
H18 H 0.49621 0.593667 0.962803
H20_3 H 0.437931 0.490991 0.85108
F3_2 F 0.34505 0.84090 0.63845
F4_2 F 0.42345 0.74320 0.58990
C11_2 C 0.00550 0.99475 0.38250
C12_2 C 0.17950 0.95735 0.46250
C13_2 C 0.03900 0.93585 0.44600
C14_2 C 0.12400 0.91705 0.48500
C15_2 C 0.16050 0.85655 0.55600
C16_2 C 0.20650 0.80300 0.52600
C17_2 C 0.29650 0.79705 0.56800
C18_2 C 0.33600 0.74680 0.54400
C28_2 C 0.16400 0.75320 0.45600
F7_2 F 0.07655 0.75680 0.41010
C29_2 C 0.20350 0.70295 0.43200
F8_2 F 0.15495 0.65910 0.36155
C30_2 C 0.29350 0.69700 0.47400
C31_2 C 0.33950 0.64345 0.44400
C32_2 C 0.37600 0.58295 0.51500
C33_2 C 0.32050 0.54265 0.53750
C34_4 C 0.35700 0.48530 0.59900
N5_4 N 0.44000 0.46825 0.63700
C35_2 C 0.49450 0.50525 0.61750
C36_2 C 0.46100 0.56415 0.55400
H3_2 H 0.247235 0.944295 0.49167
H8_4 H 0.315585 0.453898 0.615895
H14_2 H 0.10817 0.830659 0.560341
H15_2 H 0.205882 0.877849 0.62294
H17_2 H 0.252765 0.555705 0.50833
H18_2 H 0.50379 0.593667 0.537197
H20_4 H 0.562069 0.490991 0.64892
H22_2 H 0.39183 0.669341 0.439659
H23_2 H 0.294118 0.622151 0.37706
F2_3 F 0.33685 0.04630 0.44010
C9_3 C 0.41850 0.02440 0.46850
C20_3 C 0.55820 0.04355 0.49600
F6_3 F 0.61985 0.08490 0.49360
C21_3 C 0.47700 0.06985 0.46500
C22_3 C 0.45200 0.14450 0.42700
C23_3 C 0.46550 0.19465 0.50400
C24_3 C 0.53450 0.19170 0.59200
C25_3 C 0.54500 0.24095 0.66350
N4_3 N 0.48290 0.29150 0.63950
C26_3 C 0.41450 0.29660 0.55400
C27_3 C 0.40200 0.24790 0.48300
H4_3 H 0.368045 0.338589 0.538915
H6_3 H 0.384739 0.145328 0.374211
H7_3 H 0.491726 0.160957 0.397393
H16_3 H 0.599473 0.237814 0.732634
H21_3 H 0.582762 0.151034 0.608416
H24_3 H 0.345826 0.251334 0.415079
C23_4 C 0.53450 0.19465 0.99600
C24_4 C 0.46550 0.19170 0.90800
C25_4 C 0.45500 0.24095 0.83650
N4_4 N 0.51710 0.29150 0.86050
C26_4 C 0.58550 0.29660 0.94600
H4_4 H 0.631955 0.338589 0.961085
H16_4 H 0.400527 0.237814 0.767366
H21_4 H 0.417238 0.151034 0.891584
O1_3 O 0.36985 0.39810 0.76800
O2_3 O 0.32200 0.32240 0.65675
O3_3 O 0.25040 0.34125 0.72835
N3_3 N 0.31185 0.35345 0.71665
O4_3 O 0.63015 0.39810 0.73200
O5_3 O 0.67800 0.32240 0.84325
O6_3 O 0.74960 0.34125 0.77165
N6_3 N 0.68815 0.35345 0.78335
H1_2 H 0.99621 0.906333 0.462803
Cd1_3 Cd 0.50000 0.62249 0.25000
F1_3 F 0.38015 0.91510 0.50640
O1_4 O 0.63015 0.60190 0.23200
O2_4 O 0.67800 0.67760 0.34325
O3_4 O 0.74960 0.65875 0.27165
N1_2 N 0.51710 0.70850 0.36050
N2_2 N 0.44000 0.53175 0.13700
N3_4 N 0.68815 0.64655 0.28335
C1_3 C 0.45500 0.75905 0.33650
C2_3 C 0.58550 0.70340 0.44600
C3_3 C 0.46550 0.80830 0.40800
C4_3 C 0.59800 0.75210 0.51700
C5_3 C 0.53450 0.80535 0.49600
C6_3 C 0.54800 0.85550 0.57300
C7_3 C 0.52300 0.93015 0.53500
C8_3 C 0.44180 0.95645 0.50400
C10_3 C 0.35700 0.51470 0.09900
C11_3 C 0.49450 0.49475 0.11750
C12_3 C 0.32050 0.45735 0.03750
C13_3 C 0.46100 0.43585 0.05400
C14_3 C 0.37600 0.41705 0.01500
C19_3 C 0.58150 0.97560 0.53150
F5_3 F 0.66315 0.95370 0.55990
C28_3 C 0.33600 0.25320 0.04400
F7_3 F 0.42345 0.25680 0.08990
C29_3 C 0.29650 0.20295 0.06800
F8_3 F 0.34505 0.15910 0.13845
C30_3 C 0.20650 0.19700 0.02600
C31_3 C 0.16050 0.14345 0.05600
O4_4 O 0.36985 0.60190 0.26800
O5_4 O 0.32200 0.67760 0.15675
O6_4 O 0.25040 0.65875 0.22835
N6_4 N 0.31185 0.64655 0.21665
N7_2 N 0.48290 0.70850 0.13950
N8_2 N 0.56000 0.53175 0.36300
H1_3 H 0.50379 0.406333 0.0371968
H2_3 H 0.654174 0.748666 0.584921
H3_3 H 0.252765 0.444295 0.00832974
H5_3 H 0.631955 0.661411 0.461085
H9_3 H 0.315585 0.546102 0.115895
H10_3 H 0.615261 0.854672 0.625789
H11_3 H 0.508274 0.839043 0.602607
H12_3 H 0.400527 0.762186 0.267366
H13_3 H 0.417238 0.848966 0.391584
H19_3 H 0.562069 0.509009 0.14892
H22_3 H 0.10817 0.169341 0.0603411
H23_3 H 0.205882 0.122151 0.12294
F3_3 F 0.84505 0.34090 0.63845
F4_3 F 0.92345 0.24320 0.58990
C1_4 C 0.54500 0.75905 0.16350
C2_4 C 0.41450 0.70340 0.05400
C3_4 C 0.53450 0.80830 0.09200
C5_4 C 0.46550 0.80535 0.00400
C10_4 C 0.64300 0.51470 0.40100
C11_4 C 0.50550 0.49475 0.38250
C12_4 C 0.67950 0.45735 0.46250
C13_4 C 0.53900 0.43585 0.44600
C14_4 C 0.62400 0.41705 0.48500
C15_3 C 0.66050 0.35655 0.55600
C16_3 C 0.70650 0.30300 0.52600
C17_3 C 0.79650 0.29705 0.56800
C18_3 C 0.83600 0.24680 0.54400
C28_4 C 0.66400 0.25320 0.45600
F7_4 F 0.57655 0.25680 0.41010
C29_4 C 0.70350 0.20295 0.43200
F8_4 F 0.65495 0.15910 0.36155
C30_4 C 0.79350 0.19700 0.47400
C31_4 C 0.83950 0.14345 0.44400
C32_3 C 0.87600 0.08295 0.51500
C33_3 C 0.82050 0.04265 0.53750
C35_3 C 0.99450 0.00525 0.61750
C36_3 C 0.96100 0.06415 0.55400
H1_4 H 0.49621 0.406333 0.462803
H3_4 H 0.747235 0.444295 0.49167
H5_4 H 0.368045 0.661411 0.0389147
H9_4 H 0.684415 0.546102 0.384105
H12_4 H 0.599473 0.762186 0.232634
H13_4 H 0.582762 0.848966 0.108416
H14_3 H 0.60817 0.330659 0.560341
H15_3 H 0.705882 0.377849 0.62294
H17_3 H 0.752765 0.0557049 0.50833
H19_4 H 0.437931 0.509009 0.35108
H22_4 H 0.89183 0.169341 0.439659
H23_4 H 0.794118 0.122151 0.37706
F3_4 F 0.15495 0.34090 0.86155
F4_4 F 0.07655 0.24320 0.91010
C15_4 C 0.33950 0.35655 0.94400
C16_4 C 0.29350 0.30300 0.97400
C17_4 C 0.20350 0.29705 0.93200
C18_4 C 0.16400 0.24680 0.95600
C32_4 C 0.12400 0.08295 0.98500
C33_4 C 0.17950 0.04265 0.96250
C35_4 C 0.00550 0.00525 0.88250
C36_4 C 0.03900 0.06415 0.94600
H14_4 H 0.39183 0.330659 0.939659
H15_4 H 0.294118 0.377849 0.87706
H17_4 H 0.247235 0.0557049 0.99167
H18_3 H 0.99621 0.0936668 0.962803
H18_4 H 0.00379031 0.0936668 0.537197
F2_4 F 0.66315 0.04630 0.05990
C9_4 C 0.58150 0.02440 0.03150
C20_4 C 0.44180 0.04355 0.00400
F6_4 F 0.38015 0.08490 0.00640
C21_4 C 0.52300 0.06985 0.03500
C22_4 C 0.54800 0.14450 0.07300
C27_4 C 0.59800 0.24790 0.01700
H6_4 H 0.615261 0.145328 0.125789
H7_4 H 0.508274 0.160957 0.102607
H24_4 H 0.654174 0.251334 0.0849208
F1_4 F 0.61985 0.91510 0.99360
C4_4 C 0.40200 0.75210 0.98300
C6_4 C 0.45200 0.85550 0.92700
C7_4 C 0.47700 0.93015 0.96500
C8_4 C 0.55820 0.95645 0.99600
C19_4 C 0.41850 0.97560 0.96850
F5_4 F 0.33685 0.95370 0.94010
H2_4 H 0.345826 0.748666 0.915079
H10_4 H 0.384739 0.854672 0.874211
H11_4 H 0.491726 0.839043 0.897393
loop_
_geom_bond_atom_site_label_1
_geom_bond_atom_site_label_2
_geom_bond_site_symmetry_1
_geom_bond_site_symmetry_2
Cd1 O1 1_555 1_555
O1 N3 1_555 1_555
O2 N3 1_555 1_555
O3 N3 1_555 1_555
N1 Cd1 1_555 1_555
C2 N1 1_555 1_555
C4 C2 1_555 1_555
C6 C5 1_555 1_555
C7 C6 1_555 1_555
C19 C7 1_555 1_555
F5 C19 1_555 1_555
C20 C19 1_555 1_555
F6 C20 1_555 1_555
C25 C24 1_555 1_555
N8 Cd1 1_555 1_555
C4 C5 1_555 1_555
C4 H2 1_555 1_555
C2 H5 1_555 1_555
C6 H10 1_555 1_555
C6 H11 1_555 1_555
C25 H16 1_555 1_555
C24 H21 1_555 1_555
F2 C9 1_555 1_555
C3 C1 1_555 1_555
C10 N8 1_555 1_555
C21 C9 1_555 1_555
C22 C21 1_555 1_555
C22 H6 1_555 1_555
C22 H7 1_555 1_555
C10 H9 1_555 1_555
C1 H12 1_555 1_555
C3 H13 1_555 1_555
C27 H24 1_555 1_555
F1 C8 1_555 1_555
C26 N4 1_555 1_555
Cd2 N4 1_555 1_555
C26 H4 1_555 1_555
N5 C34 1_555 1_555
Cd2 N5 1_555 1_555
C34 H8 1_555 1_555
O4 Cd2 1_555 1_555
O5 N6 1_555 1_555
O6 N6 1_555 1_555
N6 O4 1_555 1_555
F1_2 C8_2 1_555 1_555
F2_2 C9_2 1_555 1_555
N2 Cd1_2 1_555 1_555
C3_2 C1_2 1_555 1_555
C9_2 C8_2 1_555 1_555
C10_2 N2 1_555 1_555
C21_2 C9_2 1_555 1_555
C22_2 C21_2 1_555 1_555
C23_2 C22_2 1_555 1_555
C26_2 N4_2 1_555 1_555
C27_2 C23_2 1_555 1_555
O4_2 Cd1_2 1_555 1_555
O5_2 N6_2 1_555 1_555
O6_2 N6_2 1_555 1_555
N6_2 O4_2 1_555 1_555
N7 Cd1_2 1_555 1_555
Cd2_2 N4_2 1_555 1_555
C26_2 C27_2 1_555 1_555
C26_2 H4_2 1_555 1_555
C22_2 H6_2 1_555 1_555
C22_2 H7_2 1_555 1_555
C10_2 H9_2 1_555 1_555
C1_2 H12_2 1_555 1_555
C3_2 H13_2 1_555 1_555
C27_2 H24_2 1_555 1_555
C2_2 N7 1_555 1_555
F6_2 C20_2 1_555 1_555
C2_2 H5_2 1_555 1_555
C7_2 C6_2 1_555 1_555
C19_2 C7_2 1_555 1_555
F5_2 C19_2 1_555 1_555
C25_2 C24_2 1_555 1_555
C4_2 H2_2 1_555 1_555
C6_2 H10_2 1_555 1_555
C6_2 H11_2 1_555 1_555
C25_2 H16_2 1_555 1_555
C24_2 H21_2 1_555 1_555
N5_2 C34_2 1_555 1_555
Cd2_2 N5_2 1_555 1_555
C34_2 H8_2 1_555 1_555
Cd2_2 O1_2 1_555 1_555
O1_2 N3_2 1_555 1_555
O2_2 N3_2 1_555 1_555
O3_2 N3_2 1_555 1_555
C13 C11 1_555 1_555
C14 C12 1_555 1_555
F7 C28 1_555 1_555
C29 C28 1_555 1_555
F8 C29 1_555 1_555
C31 C30 1_555 1_555
C13 C14 1_555 1_555
C29 C30 1_555 1_555
C12 H3 1_555 1_555
C31 H22 1_555 1_555
C31 H23 1_555 1_555
F3 C17 1_555 1_555
F4 C18 1_555 1_555
C16 C15 1_555 1_555
C17 C16 1_555 1_555
C18 C17 1_555 1_555
C33 C32 1_555 1_555
C34_3 C33 1_555 1_555
N5_3 C34_3 1_555 1_555
C35 N5_3 1_555 1_555
C36 C32 1_555 1_555
Cd3 N5_3 1_555 1_555
C35 C36 1_555 1_555
C34_3 H8_3 1_555 1_555
C15 H14 1_555 1_555
C15 H15 1_555 1_555
C33 H17 1_555 1_555
C36 H18 1_555 1_555
C35 H20_3 1_555 1_555
F3_2 C17_2 1_555 1_555
F4_2 C18_2 1_555 1_555
C13_2 C11_2 1_555 1_555
C14_2 C12_2 1_555 1_555
C15_2 C14_2 1_555 1_555
C16_2 C15_2 1_555 1_555
C17_2 C16_2 1_555 1_555
C18_2 C17_2 1_555 1_555
C28_2 C16_2 1_555 1_555
F7_2 C28_2 1_555 1_555
C29_2 C28_2 1_555 1_555
F8_2 C29_2 1_555 1_555
C30_2 C18_2 1_555 1_555
C31_2 C30_2 1_555 1_555
C32_2 C31_2 1_555 1_555
C33_2 C32_2 1_555 1_555
C34_4 C33_2 1_555 1_555
N5_4 C34_4 1_555 1_555
C35_2 N5_4 1_555 1_555
C36_2 C32_2 1_555 1_555
Cd3 N5_4 1_555 1_555
C13_2 C14_2 1_555 1_555
C29_2 C30_2 1_555 1_555
C35_2 C36_2 1_555 1_555
C12_2 H3_2 1_555 1_555
C34_4 H8_4 1_555 1_555
C15_2 H14_2 1_555 1_555
C15_2 H15_2 1_555 1_555
C33_2 H17_2 1_555 1_555
C36_2 H18_2 1_555 1_555
C35_2 H20_4 1_555 1_555
C31_2 H22_2 1_555 1_555
C31_2 H23_2 1_555 1_555
F2_3 C9_3 1_555 1_555
F6_3 C20_3 1_555 1_555
C21_3 C9_3 1_555 1_555
C22_3 C21_3 1_555 1_555
C23_3 C22_3 1_555 1_555
C24_3 C23_3 1_555 1_555
C25_3 C24_3 1_555 1_555
N4_3 C25_3 1_555 1_555
C26_3 N4_3 1_555 1_555
C27_3 C23_3 1_555 1_555
Cd3 N4_3 1_555 1_555
C20_3 C21_3 1_555 1_555
C26_3 C27_3 1_555 1_555
C26_3 H4_3 1_555 1_555
C22_3 H6_3 1_555 1_555
C22_3 H7_3 1_555 1_555
C25_3 H16_3 1_555 1_555
C24_3 H21_3 1_555 1_555
C27_3 H24_3 1_555 1_555
C24_4 C23_4 1_555 1_555
C25_4 C24_4 1_555 1_555
N4_4 C25_4 1_555 1_555
C26_4 N4_4 1_555 1_555
Cd3 N4_4 1_555 1_555
C26_4 H4_4 1_555 1_555
C25_4 H16_4 1_555 1_555
C24_4 H21_4 1_555 1_555
Cd3 O1_3 1_555 1_555
O1_3 N3_3 1_555 1_555
O2_3 N3_3 1_555 1_555
O3_3 N3_3 1_555 1_555
O4_3 Cd3 1_555 1_555
O5_3 N6_3 1_555 1_555
O6_3 N6_3 1_555 1_555
N6_3 O4_3 1_555 1_555
Cd1_3 O1_4 1_555 1_555
F1_3 C8_3 1_555 1_555
O1_4 N3_4 1_555 1_555
O2_4 N3_4 1_555 1_555
O3_4 N3_4 1_555 1_555
N1_2 Cd1_3 1_555 1_555
N2_2 Cd1_3 1_555 1_555
C1_3 N1_2 1_555 1_555
C2_3 N1_2 1_555 1_555
C3_3 C1_3 1_555 1_555
C4_3 C2_3 1_555 1_555
C5_3 C3_3 1_555 1_555
C6_3 C5_3 1_555 1_555
C7_3 C6_3 1_555 1_555
C8_3 C7_3 1_555 1_555
C10_3 N2_2 1_555 1_555
C11_3 N2_2 1_555 1_555
C12_3 C10_3 1_555 1_555
C13_3 C11_3 1_555 1_555
C14_3 C12_3 1_555 1_555
C19_3 C7_3 1_555 1_555
F5_3 C19_3 1_555 1_555
F7_3 C28_3 1_555 1_555
C29_3 C28_3 1_555 1_555
F8_3 C29_3 1_555 1_555
C31_3 C30_3 1_555 1_555
O4_4 Cd1_3 1_555 1_555
O5_4 N6_4 1_555 1_555
O6_4 N6_4 1_555 1_555
N6_4 O4_4 1_555 1_555
N7_2 Cd1_3 1_555 1_555
N8_2 Cd1_3 1_555 1_555
C4_3 C5_3 1_555 1_555
C13_3 C14_3 1_555 1_555
C29_3 C30_3 1_555 1_555
C13_3 H1_3 1_555 1_555
C4_3 H2_3 1_555 1_555
C12_3 H3_3 1_555 1_555
C2_3 H5_3 1_555 1_555
C10_3 H9_3 1_555 1_555
C6_3 H10_3 1_555 1_555
C6_3 H11_3 1_555 1_555
C1_3 H12_3 1_555 1_555
C3_3 H13_3 1_555 1_555
C11_3 H19_3 1_555 1_555
C31_3 H22_3 1_555 1_555
C31_3 H23_3 1_555 1_555
F3_3 C17_3 1_555 1_555
F4_3 C18_3 1_555 1_555
C1_4 N7_2 1_555 1_555
C2_4 N7_2 1_555 1_555
C3_4 C1_4 1_555 1_555
C5_4 C3_4 1_555 1_555
C10_4 N8_2 1_555 1_555
C11_4 N8_2 1_555 1_555
C12_4 C10_4 1_555 1_555
C13_4 C11_4 1_555 1_555
C14_4 C12_4 1_555 1_555
C15_3 C14_4 1_555 1_555
C16_3 C15_3 1_555 1_555
C17_3 C16_3 1_555 1_555
C18_3 C17_3 1_555 1_555
C28_4 C16_3 1_555 1_555
F7_4 C28_4 1_555 1_555
C29_4 C28_4 1_555 1_555
F8_4 C29_4 1_555 1_555
C30_4 C18_3 1_555 1_555
C31_4 C30_4 1_555 1_555
C32_3 C31_4 1_555 1_555
C33_3 C32_3 1_555 1_555
C36_3 C32_3 1_555 1_555
C13_4 C14_4 1_555 1_555
C29_4 C30_4 1_555 1_555
C35_3 C36_3 1_555 1_555
C13_4 H1_4 1_555 1_555
C12_4 H3_4 1_555 1_555
C2_4 H5_4 1_555 1_555
C10_4 H9_4 1_555 1_555
C1_4 H12_4 1_555 1_555
C3_4 H13_4 1_555 1_555
C15_3 H14_3 1_555 1_555
C15_3 H15_3 1_555 1_555
C33_3 H17_3 1_555 1_555
C11_4 H19_4 1_555 1_555
C31_4 H22_4 1_555 1_555
C31_4 H23_4 1_555 1_555
F3_4 C17_4 1_555 1_555
F4_4 C18_4 1_555 1_555
C16_4 C15_4 1_555 1_555
C17_4 C16_4 1_555 1_555
C18_4 C17_4 1_555 1_555
C33_4 C32_4 1_555 1_555
C36_4 C32_4 1_555 1_555
C35_4 C36_4 1_555 1_555
C15_4 H14_4 1_555 1_555
C15_4 H15_4 1_555 1_555
C33_4 H17_4 1_555 1_555
F2_4 C9_4 1_555 1_555
F6_4 C20_4 1_555 1_555
C21_4 C9_4 1_555 1_555
C22_4 C21_4 1_555 1_555
C20_4 C21_4 1_555 1_555
C22_4 H6_4 1_555 1_555
C22_4 H7_4 1_555 1_555
C27_4 H24_4 1_555 1_555
F1_4 C8_4 1_555 1_555
C7_4 C6_4 1_555 1_555
C8_4 C7_4 1_555 1_555
C19_4 C7_4 1_555 1_555
F5_4 C19_4 1_555 1_555
C4_4 H2_4 1_555 1_555
C6_4 H10_4 1_555 1_555
C6_4 H11_4 1_555 1_555

#END
