
###############################################################################
#
# This file contains modified crystal structure data generated from the
# MOF subset of the Cambridge Structural Database (CSD) v543 
# hosted by the Cambridge Crystallographic Data Centre (CCDC).
#
# This work is licensed under the Creative Commons
# Attribution-NonCommercial-ShareAlike 4.0 International License.
# To view a copy of this license, visit
# http://creativecommons.org/licenses/by-nc-sa/4.0/
# or send a letter to
# Creative Commons, PO Box 1866, Mountain View, CA 94042, USA.
#
# CIF created using the CSD Python API on 29 September 2022
# The structure has been converted into the P1 space group
# The structure has a 3D framework
# The original CSD entry QIDQUS is in the triclinic crystal system
# The framework has been calculated to contain at least 10.0% void space
# The void calculation uses a probe of radius 1.32A, grid spacing 0.4
#
###############################################################################

data_QIDQUS
_chemical_formula_moiety         '(C46 H26 N4 O8)n'
_symmetry_cell_setting           triclinic
_symmetry_space_group_name_H-M   'P 1'
_symmetry_Int_Tables_number      1
_space_group_name_Hall           'P 1'
loop_
_symmetry_equiv_pos_site_id
_symmetry_equiv_pos_as_xyz
1 x,y,z
_cell_length_a                   10.1188(7)
_cell_length_b                   10.9420(11)
_cell_length_c                   11.7024(10)
_cell_angle_alpha                63.853(9)
_cell_angle_beta                 82.358(6)
_cell_angle_gamma                72.588(7)
_cell_volume                     1109.8
loop_
_atom_site_label
_atom_site_type_symbol
_atom_site_fract_x
_atom_site_fract_y
_atom_site_fract_z
N1 N 0.3777(3) 0.3764(3) 0.0657(3)
C3 C 0.1573(4) 0.5293(4) 0.0791(4)
C6 C 0.5985(4) 0.2118(4) 0.0781(4)
C9 C 0.0387(4) 0.6394(5) 0.0275(4)
C14 C 0.7210(4) 0.1584(5) 0.0293(4)
C17 C 0.8124(4) 0.0341(5) 0.1083(5)
H9 H 0.8957 0.0006 0.0736
C19 C 0.1715(4) 0.4699(5) 0.2108(4)
H10 H 0.2449 0.3912 0.2503
C21 C 0.0788(5) 0.5260(5) 0.2825(5)
H11 H 0.0921 0.4855 0.3701
C22 C 0.5768(5) 0.1419(5) 0.2067(5)
H12 H 0.4986 0.1790 0.2449
C23 C 0.6704(5) 0.0176(6) 0.2788(5)
O1 O 0.7378(3) 0.6858(3) 0.4582(3)
O2 O 0.1350(3) 0.8149(4) 0.2638(3)
O3 O 0.0299(3) 0.7099(3) 0.4445(3)
O4 O 0.6457(3) 0.7391(4) 0.2763(3)
C1 C 0.1349(4) 0.7461(5) 0.3810(4)
C2 C 0.6386(4) 0.7026(5) 0.3926(4)
C4 C 0.4934(4) 0.4016(4) 0.8682(4)
H1 H 0.5727 0.3733 0.8261
C5 C 0.2695(4) 0.4819(4) 0.9999(4)
C7 C 0.4867(4) 0.3367(4) 0.9987(4)
C8 C 0.5038(4) 0.6095(4) 0.5936(4)
H2 H 0.5845 0.5805 0.6393
H3 H 0.0207 0.6793 0.9408
C10 C 0.2632(4) 0.6279(4) 0.5886(4)
H4 H 0.1814 0.6106 0.6306
C11 C 0.2669(4) 0.5496(5) 0.8684(4)
H5 H 0.1893 0.6211 0.8265
C13 C 0.3811(4) 0.5101(4) 0.7990(4)
H7 H 0.7427 0.2049 0.9440
C15 C 0.3820(4) 0.5835(4) 0.6584(4)
C16 C 0.3867(4) 0.7233(4) 0.3937(4)
H8 H 0.3880 0.7708 0.3055
C18 C 0.2642(4) 0.6982(4) 0.4561(4)
C20 C 0.5059(4) 0.6780(4) 0.4621(4)
Zn4 Zn 0.87980(4) 0.75173(5) 0.33167(5)
N2 N 0.7885(4) 0.9609(4) 0.2296(4)
H13 H 0.6518 0.9705 0.3649
N3 N 0.9688(3) 0.6376(4) 0.2313(4)
C12 C 0.9478(4) 0.6886(5) 0.1070(4)
H6 H 0.8681 0.7610 0.0717
Zn1 Zn 0.12020(4) 0.24827(5) 0.66833(5)
O5 O 0.2622(3) 0.3142(3) 0.5418(3)
N4 N 0.2115(4) 0.0391(4) 0.7704(4)
N5 N 0.0312(3) 0.3624(4) 0.7687(4)
C12_2 C 0.0522(4) 0.3114(5) 0.8930(4)
H6_2 H 0.1319 0.2390 0.9283
H13_2 H 0.3482 0.0295 0.6351
O2_2 O 0.8650(3) 0.1851(4) 0.7362(3)
O3_2 O 0.9701(3) 0.2901(3) 0.5555(3)
O4_2 O 0.3543(3) 0.2609(4) 0.7237(3)
C1_2 C 0.8651(4) 0.2539(5) 0.6190(4)
C2_2 C 0.3614(4) 0.2974(5) 0.6074(4)
C4_2 C 0.5066(4) 0.5984(4) 0.1318(4)
H1_2 H 0.4273 0.6267 0.1739
C5_2 C 0.7305(4) 0.5181(4) 0.0001(4)
C7_2 C 0.5133(4) 0.6633(4) 0.0013(4)
C8_2 C 0.4962(4) 0.3905(4) 0.4064(4)
H2_2 H 0.4155 0.4195 0.3607
H3_2 H 0.9793 0.3207 0.0592
C10_2 C 0.7368(4) 0.3721(4) 0.4114(4)
H4_2 H 0.8186 0.3894 0.3694
C11_2 C 0.7331(4) 0.4504(5) 0.1316(4)
H5_2 H 0.8107 0.3789 0.1735
C13_2 C 0.6189(4) 0.4899(4) 0.2010(4)
H7_2 H 0.2573 0.7951 0.0560
C15_2 C 0.6180(4) 0.4165(4) 0.3416(4)
C16_2 C 0.6133(4) 0.2767(4) 0.6063(4)
H8_2 H 0.6120 0.2292 0.6945
C18_2 C 0.7358(4) 0.3018(4) 0.5439(4)
C20_2 C 0.4941(4) 0.3220(4) 0.5379(4)
N1_2 N 0.6223(3) 0.6236(3) 0.9343(3)
C3_2 C 0.8427(4) 0.4707(4) 0.9209(4)
C6_2 C 0.4015(4) 0.7882(4) 0.9219(4)
C9_2 C 0.9613(4) 0.3606(5) 0.9725(4)
C14_2 C 0.2790(4) 0.8416(5) 0.9707(4)
C17_2 C 0.1876(4) 0.9659(5) 0.8917(5)
H9_2 H 0.1043 0.9994 0.9264
C19_2 C 0.8285(4) 0.5301(5) 0.7892(4)
H10_2 H 0.7551 0.6088 0.7497
C21_2 C 0.9212(5) 0.4740(5) 0.7175(5)
H11_2 H 0.9079 0.5145 0.6299
C22_2 C 0.4232(5) 0.8581(5) 0.7933(5)
H12_2 H 0.5014 0.8210 0.7551
C23_2 C 0.3296(5) 0.9824(6) 0.7212(5)
loop_
_geom_bond_atom_site_label_1
_geom_bond_atom_site_label_2
_geom_bond_site_symmetry_1
_geom_bond_site_symmetry_2
C9 C3 1_555 1_555
C14 C6 1_555 1_555
C17 C14 1_555 1_555
H9 C17 1_555 1_555
C19 C3 1_555 1_555
H10 C19 1_555 1_555
H11 C21 1_555 1_555
C22 C6 1_555 1_555
H12 C22 1_555 1_555
C19 C21 1_555 1_555
C22 C23 1_555 1_555
O1 C2 1_555 1_555
O2 C1 1_555 1_555
O3 C1 1_555 1_555
O4 C2 1_555 1_555
C1 C18 1_555 1_555
C2 C20 1_555 1_555
C4 H1 1_555 1_555
C5 C11 1_555 1_555
C8 H2 1_555 1_555
C10 H4 1_555 1_555
C11 H5 1_555 1_555
C13 C4 1_555 1_555
C15 C8 1_555 1_555
C16 H8 1_555 1_555
C18 C10 1_555 1_555
C20 C8 1_555 1_555
Zn4 O1 1_555 1_555
C4 C7 1_555 1_555
C10 C15 1_555 1_555
C11 C13 1_555 1_555
C13 C15 1_555 1_555
C16 C18 1_555 1_555
C16 C20 1_555 1_555
Zn4 N2 1_555 1_555
N3 C12 1_555 1_555
H6 C12 1_555 1_555
Zn4 N3 1_555 1_555
O5 Zn1 1_555 1_555
N4 Zn1 1_555 1_555
N5 Zn1 1_555 1_555
N5 C12_2 1_555 1_555
H6_2 C12_2 1_555 1_555
O5 C2_2 1_555 1_555
O2_2 C1_2 1_555 1_555
O3_2 C1_2 1_555 1_555
O4_2 C2_2 1_555 1_555
C1_2 C18_2 1_555 1_555
C2_2 C20_2 1_555 1_555
C4_2 H1_2 1_555 1_555
C5_2 C11_2 1_555 1_555
C8_2 H2_2 1_555 1_555
C10_2 H4_2 1_555 1_555
C11_2 H5_2 1_555 1_555
C13_2 C4_2 1_555 1_555
C15_2 C8_2 1_555 1_555
C16_2 H8_2 1_555 1_555
C18_2 C10_2 1_555 1_555
C20_2 C8_2 1_555 1_555
C4_2 C7_2 1_555 1_555
C10_2 C15_2 1_555 1_555
C11_2 C13_2 1_555 1_555
C13_2 C15_2 1_555 1_555
C16_2 C18_2 1_555 1_555
C16_2 C20_2 1_555 1_555
C9_2 C3_2 1_555 1_555
C14_2 C6_2 1_555 1_555
C17_2 C14_2 1_555 1_555
H9_2 C17_2 1_555 1_555
C19_2 C3_2 1_555 1_555
H10_2 C19_2 1_555 1_555
H11_2 C21_2 1_555 1_555
C22_2 C6_2 1_555 1_555
H12_2 C22_2 1_555 1_555
C19_2 C21_2 1_555 1_555
C22_2 C23_2 1_555 1_555

#END
