
###############################################################################
#
# This file contains modified crystal structure data generated from the
# MOF subset of the Cambridge Structural Database (CSD) v543 
# hosted by the Cambridge Crystallographic Data Centre (CCDC).
#
# This work is licensed under the Creative Commons
# Attribution-NonCommercial-ShareAlike 4.0 International License.
# To view a copy of this license, visit
# http://creativecommons.org/licenses/by-nc-sa/4.0/
# or send a letter to
# Creative Commons, PO Box 1866, Mountain View, CA 94042, USA.
#
# CIF created using the CSD Python API on 29 September 2022
# The structure has been converted into the P1 space group
# The structure has a 3D framework
# The original CSD entry QIDSII is in the triclinic crystal system
# The framework has been calculated to contain at least 10.0% void space
# The void calculation uses a probe of radius 1.32A, grid spacing 0.4
#
###############################################################################

data_QIDSII
_chemical_formula_moiety         '(C42 H30 N6 O30 Pr4)n'
_symmetry_cell_setting           triclinic
_symmetry_space_group_name_H-M   'P 1'
_symmetry_Int_Tables_number      1
_space_group_name_Hall           'P 1'
loop_
_symmetry_equiv_pos_site_id
_symmetry_equiv_pos_as_xyz
1 x,y,z
_cell_length_a                   8.8422(7)
_cell_length_b                   10.7274(8)
_cell_length_c                   18.8231(16)
_cell_angle_alpha                75.375(7)
_cell_angle_beta                 83.809(7)
_cell_angle_gamma                69.205(7)
_cell_volume                     1614.72
loop_
_atom_site_label
_atom_site_type_symbol
_atom_site_fract_x
_atom_site_fract_y
_atom_site_fract_z
Pr4 Pr 0.10397(5) 0.46786(4) 0.77640(2)
O5 O 0.4353(8) 0.3714(6) 0.7443(4)
O11 O 0.2943(8) 0.2379(7) 0.7478(5)
O15 O 0.2457(9) 0.3040(9) 0.8866(4)
H5 H 0.1984 0.2885 0.9354
H6 H 0.3576 0.2445 0.8882
N3 N 0.8704(10) 0.0510(9) 0.7569(6)
C5 C 0.5813(10) 0.1340(9) 0.7500(5)
C7 C 0.4281(11) 0.2564(8) 0.7462(5)
C8 C 0.7291(11) 0.1516(9) 0.7545(6)
H10 H 0.7281 0.2379 0.7560
C17 C 0.5826(10) 0.0047(9) 0.7504(5)
Pr7 Pr 0.49814(5) 0.58847(4) 0.71293(2)
O16 O 0.2794(8) 0.6036(7) 0.8102(3)
O22 O 0.0703(8) 0.5907(8) 0.8807(4)
O24 O 0.2031(8) 0.6065(6) 0.6680(3)
O3 O 0.0972(8) 0.6028(8) 0.1492(4)
O8 O 0.3493(8) 0.5585(7) 0.1806(3)
C3 C 0.4227(11) 0.6750(10) 0.0370(5)
H8 H 0.4776 0.6819 0.0744
C9 C 0.2903(10) 0.6313(9) 0.0560(4)
C15 C 0.2413(10) 0.5942(8) 0.1358(4)
C21 C 0.2105(10) 0.6165(9) 0.0013(5)
H15 H 0.1203 0.5891 0.0118
Pr9 Pr 0.50186(5) 0.41153(4) 0.28707(2)
O2 O 0.2989(9) 0.8284(8) 0.6898(5)
H1 H 0.3364 0.8837 0.6563
H2 H 0.2801 0.8583 0.7301
O4 O 0.6093(8) 0.7308(7) 0.7591(4)
O6 O 0.2638(7) 0.5404(7) 0.3406(4)
O7 O 0.0040(8) 0.5902(7) 0.3177(3)
O10 O 0.8766(8) 0.6734(6) 0.7428(4)
O12 O 0.4037(8) 0.5725(9) 0.5879(4)
O14 O 0.5823(10) 0.7484(8) 0.6042(4)
H3 H 0.5001 0.7988 0.5756
H4 H 0.6591 0.7013 0.5780
N1 N 0.4754(11) 0.7075(10) 0.9683(5)
C1 C 0.7270(10) 0.8992(8) 0.7529(5)
C2 C 0.8688(11) 0.9282(10) 0.7557(6)
H7 H 0.9675 0.8572 0.7566
C4 C 0.3981(12) 0.6917(11) 0.9159(5)
H9 H 0.4329 0.7143 0.8674
C6 C 0.2578(10) 0.5996(9) 0.6038(4)
C10 C 0.2711(11) 0.6444(9) 0.9292(5)
C11 C 0.7388(11) 0.7556(8) 0.7521(5)
C12 C 0.1868(10) 0.5983(9) 0.4774(4)
H11 H 0.2959 0.5621 0.4653
C14 C 0.1381(10) 0.6288(8) 0.5456(4)
C16 C 0.1152(10) 0.5821(8) 0.3559(4)
H13 H 0.4859 0.9894 0.7490
C18 C 0.0689(10) 0.6234(8) 0.4281(4)
C19 C 0.1991(11) 0.6125(9) 0.8702(5)
O19 O 0.7362(7) 0.4596(7) 0.6594(4)
O21 O 0.6507(8) 0.4415(7) 0.8194(3)
O17 O 0.9028(8) 0.3972(8) 0.8508(4)
O20 O 0.9960(8) 0.4098(7) 0.6823(3)
Pr6 Pr 0.89603(5) 0.53214(4) 0.22360(2)
N2 N 0.8596(9) 0.7113(8) 0.5130(4)
C13 C 0.9744(10) 0.6846(9) 0.5603(4)
H12 H 0.9427 0.7047 0.6061
C20 C 0.9085(10) 0.6811(9) 0.4478(5)
H14 H 0.8300 0.7000 0.4137
N2_2 N 0.1404(9) 0.2887(8) 0.4870(4)
C13_2 C 0.0256(10) 0.3154(9) 0.4397(4)
H12_2 H 0.0573 0.2953 0.3939
C20_2 C 0.0915(10) 0.3189(9) 0.5522(5)
H14_2 H 0.1700 0.3000 0.5863
O23 O 0.1234(8) 0.3266(6) 0.2572(4)
O1 O 0.7206(8) 0.3964(7) 0.1898(3)
O2_2 O 0.7011(9) 0.1716(8) 0.3102(5)
H1_2 H 0.6636 0.1163 0.3437
H2_2 H 0.7199 0.1417 0.2699
O4_2 O 0.3907(8) 0.2692(7) 0.2409(4)
O9 O 0.9297(8) 0.4093(8) 0.1193(4)
O12_2 O 0.5963(8) 0.4275(9) 0.4121(4)
O13 O 0.7969(8) 0.3935(6) 0.3320(3)
O14_2 O 0.4177(10) 0.2516(8) 0.3958(4)
H3_2 H 0.4999 0.2012 0.4244
H4_2 H 0.3409 0.2987 0.4220
N1_2 N 0.5246(11) 0.2925(10) 0.0317(5)
C1_2 C 0.2730(10) 0.1008(8) 0.2471(5)
C2_2 C 0.1312(11) 0.0718(10) 0.2443(6)
H7_2 H 0.0325 0.1428 0.2434
C4_2 C 0.6019(12) 0.3083(11) 0.0841(5)
H9_2 H 0.5671 0.2857 0.1326
C6_2 C 0.7422(10) 0.4004(9) 0.3962(4)
C10_2 C 0.7289(11) 0.3556(9) 0.0708(5)
C11_2 C 0.2612(11) 0.2444(8) 0.2479(5)
C12_2 C 0.8132(10) 0.4017(9) 0.5226(4)
H11_2 H 0.7041 0.4379 0.5347
C14_2 C 0.8619(10) 0.3712(8) 0.4544(4)
C16_2 C 0.8848(10) 0.4179(8) 0.6441(4)
H13_2 H 0.5141 0.0106 0.2510
C18_2 C 0.9311(10) 0.3766(8) 0.5719(4)
C19_2 C 0.8009(11) 0.3875(9) 0.1298(5)
O18 O 0.5647(8) 0.6286(6) 0.2557(4)
C3_2 C 0.5773(11) 0.3250(10) 0.9630(5)
H8_2 H 0.5224 0.3181 0.9256
C9_2 C 0.7097(10) 0.3687(9) 0.9440(4)
C15_2 C 0.7587(10) 0.4058(8) 0.8642(4)
C21_2 C 0.7895(10) 0.3835(9) 0.9987(5)
H15_2 H 0.8797 0.4109 0.9882
O11_2 O 0.7057(8) 0.7621(7) 0.2522(5)
O15_2 O 0.7543(9) 0.6960(9) 0.1134(4)
H5_2 H 0.8016 0.7115 0.0646
H6_2 H 0.6424 0.7555 0.1118
N3_2 N 0.1296(10) 0.9490(9) 0.2431(6)
C5_2 C 0.4187(10) 0.8660(9) 0.2500(5)
C7_2 C 0.5719(11) 0.7436(8) 0.2538(5)
C8_2 C 0.2709(11) 0.8484(9) 0.2455(6)
H10_2 H 0.2719 0.7621 0.2440
C17_2 C 0.4174(10) 0.9953(9) 0.2496(5)
loop_
_geom_bond_atom_site_label_1
_geom_bond_atom_site_label_2
_geom_bond_site_symmetry_1
_geom_bond_site_symmetry_2
Pr4 O5 1_555 1_555
O5 C7 1_555 1_555
O11 Pr4 1_555 1_555
O15 Pr4 1_555 1_555
H5 O15 1_555 1_555
H6 O15 1_555 1_555
C5 C7 1_555 1_555
C7 O11 1_555 1_555
C8 N3 1_555 1_555
H10 C8 1_555 1_555
Pr7 O5 1_555 1_555
O16 Pr4 1_555 1_555
O22 Pr4 1_555 1_555
O24 Pr4 1_555 1_555
C5 C8 1_555 1_555
C5 C17 1_555 1_555
Pr7 O16 1_555 1_555
Pr7 O24 1_555 1_555
O3 C15 1_555 1_555
O8 C15 1_555 1_555
C3 H8 1_555 1_555
C9 C3 1_555 1_555
C15 C9 1_555 1_555
C21 C9 1_555 1_555
H15 C21 1_555 1_555
Pr9 O8 1_555 1_555
O16 C19 1_555 1_555
O2 Pr7 1_555 1_555
H1 O2 1_555 1_555
H2 O2 1_555 1_555
O4 Pr7 1_555 1_555
O6 C16 1_555 1_555
O7 C16 1_555 1_555
O22 C19 1_555 1_555
O10 C11 1_555 1_555
O12 Pr7 1_555 1_555
O14 Pr7 1_555 1_555
H3 O14 1_555 1_555
H4 O14 1_555 1_555
C1 C2 1_555 1_555
C2 H7 1_555 1_555
C4 N1 1_555 1_555
H9 C4 1_555 1_555
C6 O12 1_555 1_555
C10 C4 1_555 1_555
C11 O4 1_555 1_555
C12 H11 1_555 1_555
C14 C6 1_555 1_555
C16 C18 1_555 1_555
C18 C12 1_555 1_555
C19 C10 1_555 1_555
Pr9 O6 1_555 1_555
O19 Pr7 1_555 1_555
O21 Pr7 1_555 1_555
O24 C6 1_555 1_555
C1 C11 1_555 1_555
C12 C14 1_555 1_555
N2 C13 1_555 1_555
C13 H12 1_555 1_555
C20 N2 1_555 1_555
H14 C20 1_555 1_555
N2_2 C13_2 1_555 1_555
C13_2 H12_2 1_555 1_555
C20_2 N2_2 1_555 1_555
H14_2 C20_2 1_555 1_555
Pr9 O1 1_555 1_555
O1 C19_2 1_555 1_555
O2_2 Pr9 1_555 1_555
H1_2 O2_2 1_555 1_555
H2_2 O2_2 1_555 1_555
O4_2 Pr9 1_555 1_555
O19 C16_2 1_555 1_555
O20 C16_2 1_555 1_555
O9 C19_2 1_555 1_555
O23 C11_2 1_555 1_555
O12_2 Pr9 1_555 1_555
O13 Pr9 1_555 1_555
O14_2 Pr9 1_555 1_555
H3_2 O14_2 1_555 1_555
H4_2 O14_2 1_555 1_555
C1_2 C2_2 1_555 1_555
C2_2 H7_2 1_555 1_555
C4_2 N1_2 1_555 1_555
H9_2 C4_2 1_555 1_555
C6_2 O12_2 1_555 1_555
C10_2 C4_2 1_555 1_555
C11_2 O4_2 1_555 1_555
C12_2 H11_2 1_555 1_555
C14_2 C6_2 1_555 1_555
C16_2 C18_2 1_555 1_555
C18_2 C12_2 1_555 1_555
C19_2 C10_2 1_555 1_555
Pr6 O1 1_555 1_555
O18 Pr9 1_555 1_555
O9 Pr6 1_555 1_555
O13 C6_2 1_555 1_555
O13 Pr6 1_555 1_555
C1_2 C11_2 1_555 1_555
C12_2 C14_2 1_555 1_555
Pr6 O18 1_555 1_555
O17 C15_2 1_555 1_555
O21 C15_2 1_555 1_555
C3_2 H8_2 1_555 1_555
C9_2 C3_2 1_555 1_555
C15_2 C9_2 1_555 1_555
C21_2 C9_2 1_555 1_555
H15_2 C21_2 1_555 1_555
O18 C7_2 1_555 1_555
O11_2 Pr6 1_555 1_555
O15_2 Pr6 1_555 1_555
H5_2 O15_2 1_555 1_555
H6_2 O15_2 1_555 1_555
C5_2 C7_2 1_555 1_555
C7_2 O11_2 1_555 1_555
C8_2 N3_2 1_555 1_555
H10_2 C8_2 1_555 1_555
C5_2 C8_2 1_555 1_555
C5_2 C17_2 1_555 1_555

#END
