
###############################################################################
#
# This file contains modified crystal structure data generated from the
# MOF subset of the Cambridge Structural Database (CSD) v543 
# hosted by the Cambridge Crystallographic Data Centre (CCDC).
#
# This work is licensed under the Creative Commons
# Attribution-NonCommercial-ShareAlike 4.0 International License.
# To view a copy of this license, visit
# http://creativecommons.org/licenses/by-nc-sa/4.0/
# or send a letter to
# Creative Commons, PO Box 1866, Mountain View, CA 94042, USA.
#
# CIF created using the CSD Python API on 29 September 2022
# The structure has been converted into the P1 space group
# The structure has a 3D framework
# The original CSD entry QIFLUO is in the monoclinic crystal system
# The framework has been calculated to contain at least 10.0% void space
# The void calculation uses a probe of radius 1.32A, grid spacing 0.4
#
###############################################################################

data_QIFLUO
_chemical_formula_moiety         '(C76 H56 N32 O20 Zn8)n'
_symmetry_cell_setting           triclinic
_symmetry_space_group_name_H-M   'P 1'
_symmetry_Int_Tables_number      1
_space_group_name_Hall           'P 1'
loop_
_symmetry_equiv_pos_site_id
_symmetry_equiv_pos_as_xyz
1 x,y,z
_cell_length_a                   17.2330(8)
_cell_length_b                   13.8250(6)
_cell_length_c                   12.1786(7)
_cell_angle_alpha                90
_cell_angle_beta                 92.4829(18)
_cell_angle_gamma                90
_cell_volume                     2898.78
loop_
_atom_site_label
_atom_site_type_symbol
_atom_site_fract_x
_atom_site_fract_y
_atom_site_fract_z
Zn6 Zn 0.07323(5) 0.40287(5) 0.03703(7)
Zn1 Zn 0.09840(4) 0.52485(5) 0.56046(7)
Zn2 Zn 0.07323(5) 0.09713(5) 0.53703(7)
C1 C 0.0972(4) 0.3111(4) 0.5172(6)
H1 H 0.1504 0.3034 0.5299
C3 C 0.1103(4) 0.4646(5) 0.8060(6)
C4 C 0.0207(4) 0.5684(5) 0.7693(6)
C5 C 0.2490(4) 0.5400(5) 0.5587(7)
C6 C 0.3295(4) 0.5827(5) 0.5540(7)
C7 C 0.3420(5) 0.6678(6) 0.5000(9)
H3 H 0.3008 0.6989 0.4631
C8 C 0.4160(5) 0.7079(7) 0.5000(9)
H4 H 0.4244 0.7643 0.4607
C9 C 0.4762(5) 0.6648(6) 0.5575(7)
C10 C 0.4642(5) 0.5778(6) 0.6081(8)
H5 H 0.5056 0.5455 0.6429
C11 C 0.3924(5) 0.5392(6) 0.6073(7)
H6 H 0.3850 0.4812 0.6441
C12 C 0.6037(5) 0.6900(6) 0.6353(7)
C13 C 0.5905(5) 0.7129(8) 0.7439(8)
H7 H 0.5436 0.7402 0.7626
C14 C 0.6482(5) 0.6945(6) 0.8240(8)
H8 H 0.6393 0.7083 0.8971
C15 C 0.7201(4) 0.6552(5) 0.7964(7)
C16 C 0.7318(4) 0.6385(5) 0.6843(7)
H9 H 0.7796 0.6154 0.6631
C17 C 0.6741(4) 0.6558(6) 0.6062(7)
H10 H 0.6830 0.6443 0.5326
C18 C 0.7814(4) 0.6344(5) 0.8827(8)
N1 N 0.0808(3) 0.5208(4) 0.7228(5)
N2 N 0.0719(3) 0.4776(3) 0.8999(5)
N3 N 0.0128(3) 0.5448(4) 0.8730(5)
N4 N 0.1689(4) 0.4021(5) 0.7973(6)
H11 H 0.1907 0.3953 0.7356
H12 H 0.1848 0.3687 0.8534
N6 N 0.0473(3) 0.2373(4) 0.5082(5)
N7 N 0.0626(3) 0.3965(3) 0.5059(5)
O1 O 0.5475(3) 0.7113(5) 0.5535(5)
O2 O 0.7720(4) 0.6528(4) 0.9801(5)
O3 O 0.8462(3) 0.5988(4) 0.8470(5)
O4 O 0.2386(3) 0.4587(4) 0.5963(5)
O5 O 0.1933(3) 0.5924(4) 0.5185(5)
Zn5 Zn 0.92677(5) 0.59713(5) 0.96297(7)
N9 N 0.0719(3) 0.0224(3) 0.3999(5)
N11 N 0.0171(3) 0.6229(4) 0.5108(5)
O6 O 0.1538(3) 0.0988(4) 0.6530(5)
C2 C 0.9773(4) 0.2803(5) 0.4909(7)
H2 H 0.9888 0.6127 0.7316
N5 N 0.9829(3) 0.3771(4) 0.4892(5)
N8 N 0.9083(4) 0.2318(5) 0.4773(8)
H13 H 0.8656 0.2635 0.4671
H14 H 0.9076 0.1696 0.4789
Zn3 Zn 0.90160(4) 0.47515(5) 0.43954(7)
N10 N 0.9872(3) 0.0448(4) 0.6270(5)
H2_2 H 0.0112 0.1127 0.7684
C2_2 C 0.0227(4) 0.7803(5) 0.0091(7)
N5_2 N 0.0171(3) 0.8771(4) 0.0108(5)
N8_2 N 0.0917(4) 0.7318(5) 0.0227(8)
H13_2 H 0.1344 0.7635 0.0329
H14_2 H 0.0924 0.6696 0.0211
Zn3_2 Zn 0.09840(4) 0.97515(5) 0.06046(7)
Zn1_2 Zn 0.90160(4) 0.02485(5) 0.93954(7)
C4_2 C 0.9793(4) 0.0684(5) 0.7307(6)
C5_2 C 0.7510(4) 0.0400(5) 0.9413(7)
C6_2 C 0.6705(4) 0.0827(5) 0.9460(7)
C7_2 C 0.6580(5) 0.1678(6) 1.0000(9)
C8_2 C 0.5840(5) 0.2079(7) 1.0000(9)
C9_2 C 0.5238(5) 0.1648(6) 0.9425(7)
C10_2 C 0.5358(5) 0.0778(6) 0.8919(8)
H5_2 H 0.4944 0.0455 0.8571
C11_2 C 0.6076(5) 0.0392(6) 0.8927(7)
C12_2 C 0.3963(5) 0.1900(6) 0.8647(7)
C13_2 C 0.4095(5) 0.2129(8) 0.7561(8)
H7_2 H 0.4564 0.2402 0.7374
C14_2 C 0.3518(5) 0.1945(6) 0.6760(8)
H8_2 H 0.3607 0.2083 0.6029
C15_2 C 0.2799(4) 0.1552(5) 0.7036(7)
C16_2 C 0.2682(4) 0.1385(5) 0.8157(7)
H9_2 H 0.2204 0.1154 0.8369
C17_2 C 0.3259(4) 0.1558(6) 0.8938(7)
H10_2 H 0.3170 0.1443 0.9674
C18_2 C 0.2186(4) 0.1344(5) 0.6173(8)
N1_2 N 0.9192(3) 0.0208(4) 0.7772(5)
O1_2 O 0.4525(3) 0.2113(5) 0.9465(5)
O2_2 O 0.2280(4) 0.1528(4) 0.5199(5)
O5_2 O 0.8067(3) 0.0924(4) 0.9815(5)
N11_2 N 0.9829(3) 0.1229(4) 0.9892(5)
N9_2 N 0.9281(3) 0.5224(3) 0.1001(5)
C1_2 C 0.9028(4) 0.8111(4) 0.9828(6)
H1_2 H 0.8496 0.8034 0.9701
C3_2 C 0.8897(4) 0.9646(5) 0.6940(6)
H6_2 H 0.6150 0.9812 0.8559
N2_2 N 0.9281(3) 0.9776(3) 0.6001(5)
N4_2 N 0.8311(4) 0.9021(5) 0.7027(6)
H11_2 H 0.8093 0.8953 0.7644
H12_2 H 0.8152 0.8687 0.6466
N6_2 N 0.9527(3) 0.7373(4) 0.9918(5)
N7_2 N 0.9374(3) 0.8965(3) 0.9941(5)
O4_2 O 0.7614(3) 0.9587(4) 0.9037(5)
Zn6_2 Zn 0.92677(5) 0.90287(5) 0.46297(7)
C2_3 C 0.0227(4) 0.7197(5) 0.5091(7)
H2_3 H 0.0112 0.3873 0.2684
N8_3 N 0.0917(4) 0.7682(5) 0.5227(8)
H13_3 H 0.1344 0.7365 0.5329
H14_3 H 0.0924 0.8304 0.5211
N10_2 N 0.0128(3) 0.9552(4) 0.3730(5)
C1_3 C 0.9028(4) 0.6889(4) 0.4828(6)
H1_3 H 0.8496 0.6966 0.4701
C3_3 C 0.8897(4) 0.5354(5) 0.1940(6)
C4_3 C 0.9793(4) 0.4316(5) 0.2307(6)
C5_3 C 0.7510(4) 0.4600(5) 0.4413(7)
C6_3 C 0.6705(4) 0.4173(5) 0.4460(7)
C7_3 C 0.6580(5) 0.3322(6) 0.5000(9)
H3_2 H 0.6992 0.3011 0.5369
C8_3 C 0.5840(5) 0.2921(7) 0.5000(9)
H4_2 H 0.5756 0.2357 0.5393
C9_3 C 0.5238(5) 0.3352(6) 0.4425(7)
C10_3 C 0.5358(5) 0.4222(6) 0.3919(8)
H5_3 H 0.4944 0.4545 0.3571
C11_3 C 0.6076(5) 0.4608(6) 0.3927(7)
H6_3 H 0.6150 0.5188 0.3559
C12_3 C 0.3963(5) 0.3100(6) 0.3647(7)
C13_3 C 0.4095(5) 0.2871(8) 0.2561(8)
H7_3 H 0.4564 0.2598 0.2374
C14_3 C 0.3518(5) 0.3055(6) 0.1760(8)
H8_3 H 0.3607 0.2917 0.1029
C15_3 C 0.2799(4) 0.3448(5) 0.2036(7)
C16_3 C 0.2682(4) 0.3615(5) 0.3157(7)
H9_3 H 0.2204 0.3846 0.3369
C17_3 C 0.3259(4) 0.3442(6) 0.3938(7)
H10_3 H 0.3170 0.3557 0.4674
C18_3 C 0.2186(4) 0.3656(5) 0.1173(8)
N1_3 N 0.9192(3) 0.4792(4) 0.2772(5)
N3_2 N 0.9872(3) 0.4552(4) 0.1270(5)
N4_3 N 0.8311(4) 0.5979(5) 0.2027(6)
H11_3 H 0.8093 0.6047 0.2644
H12_3 H 0.8152 0.6313 0.1466
N6_3 N 0.9527(3) 0.7627(4) 0.4918(5)
N7_3 N 0.9374(3) 0.6035(3) 0.4941(5)
O1_3 O 0.4525(3) 0.2887(5) 0.4465(5)
O2_3 O 0.2280(4) 0.3472(4) 0.0199(5)
O3_2 O 0.1538(3) 0.4012(4) 0.1530(5)
O4_3 O 0.7614(3) 0.5413(4) 0.4037(5)
O5_3 O 0.8067(3) 0.4076(4) 0.4815(5)
O6_2 O 0.8462(3) 0.9012(4) 0.3470(5)
C1_4 C 0.0972(4) 0.1889(4) 0.0172(6)
H1_4 H 0.1504 0.1966 0.0299
C3_4 C 0.1103(4) 0.0354(5) 0.3060(6)
H6_4 H 0.3850 0.0188 0.1441
N4_4 N 0.1689(4) 0.0979(5) 0.2973(6)
H11_4 H 0.1907 0.1047 0.2356
H12_4 H 0.1848 0.1313 0.3534
N6_4 N 0.0473(3) 0.2627(4) 0.0082(5)
N7_4 N 0.0626(3) 0.1035(3) 0.0059(5)
O4_4 O 0.2386(3) 0.0413(4) 0.0963(5)
C4_4 C 0.0207(4) 0.9316(5) 0.2693(6)
C5_4 C 0.2490(4) 0.9600(5) 0.0587(7)
C6_4 C 0.3295(4) 0.9173(5) 0.0540(7)
C7_4 C 0.3420(5) 0.8322(6) -0.0000(9)
C8_4 C 0.4160(5) 0.7921(7) -0.0000(9)
C9_4 C 0.4762(5) 0.8352(6) 0.0575(7)
C10_4 C 0.4642(5) 0.9222(6) 0.1081(8)
H5_4 H 0.5056 0.9545 0.1429
C11_4 C 0.3924(5) 0.9608(6) 0.1073(7)
C12_4 C 0.6037(5) 0.8100(6) 0.1353(7)
C13_4 C 0.5905(5) 0.7871(8) 0.2439(8)
H7_4 H 0.5436 0.7598 0.2626
C14_4 C 0.6482(5) 0.8055(6) 0.3240(8)
H8_4 H 0.6393 0.7917 0.3971
C15_4 C 0.7201(4) 0.8448(5) 0.2964(7)
C16_4 C 0.7318(4) 0.8615(5) 0.1843(7)
H9_4 H 0.7796 0.8846 0.1631
C17_4 C 0.6741(4) 0.8442(6) 0.1062(7)
H10_4 H 0.6830 0.8557 0.0326
C18_4 C 0.7814(4) 0.8656(5) 0.3827(8)
N1_4 N 0.0808(3) 0.9792(4) 0.2228(5)
O1_4 O 0.5475(3) 0.7887(5) 0.0535(5)
O2_4 O 0.7720(4) 0.8472(4) 0.4801(5)
O5_4 O 0.1933(3) 0.9076(4) 0.0185(5)
C2_4 C 0.9773(4) 0.2197(5) 0.9909(7)
N8_4 N 0.9083(4) 0.2682(5) 0.9773(8)
H13_4 H 0.8656 0.2365 0.9671
H14_4 H 0.9076 0.3304 0.9789
H2_4 H 0.9888 0.8873 0.2316
C7_5 C 0.6580(5) 0.1678(6) 0.0000(9)
H3_3 H 0.6992 0.1989 0.0369
C8_5 C 0.5840(5) 0.2079(7) 0.0000(9)
H4_3 H 0.5756 0.2643 0.0393
C7_6 C 0.3420(5) 0.8322(6) 1.0000(9)
H3_4 H 0.3008 0.8011 0.9631
C8_6 C 0.4160(5) 0.7921(7) 1.0000(9)
H4_4 H 0.4244 0.7357 0.9607
loop_
_geom_bond_atom_site_label_1
_geom_bond_atom_site_label_2
_geom_bond_site_symmetry_1
_geom_bond_site_symmetry_2
Zn1 N1 1_555 1_555
Zn2 N6 1_555 1_555
C1 H1 1_555 1_555
C3 N1 1_555 1_555
C5 C6 1_555 1_555
C6 C7 1_555 1_555
C7 H3 1_555 1_555
C8 C7 1_555 1_555
H4 C8 1_555 1_555
C9 C8 1_555 1_555
C10 C9 1_555 1_555
H5 C10 1_555 1_555
C11 C6 1_555 1_555
H6 C11 1_555 1_555
C12 C13 1_555 1_555
C13 H7 1_555 1_555
C14 C13 1_555 1_555
H8 C14 1_555 1_555
C15 C14 1_555 1_555
C16 C15 1_555 1_555
H9 C16 1_555 1_555
C17 C12 1_555 1_555
H10 C17 1_555 1_555
C18 C15 1_555 1_555
N1 C4 1_555 1_555
N2 C3 1_555 1_555
N3 C4 1_555 1_555
N4 C3 1_555 1_555
H11 N4 1_555 1_555
H12 N4 1_555 1_555
N6 C1 1_555 1_555
N7 Zn1 1_555 1_555
O1 C9 1_555 1_555
O2 C18 1_555 1_555
O3 C18 1_555 1_555
O4 C5 1_555 1_555
O5 Zn1 1_555 1_555
Zn5 O3 1_555 1_555
N9 Zn2 1_555 1_555
N11 Zn1 1_555 1_555
O6 Zn2 1_555 1_555
C1 N7 1_555 1_555
C5 O5 1_555 1_555
C10 C11 1_555 1_555
C12 O1 1_555 1_555
C16 C17 1_555 1_555
N2 N3 1_555 1_555
C2 N5 1_555 1_555
N8 C2 1_555 1_555
H13 N8 1_555 1_555
H14 N8 1_555 1_555
Zn3 N5 1_555 1_555
C2_2 N5_2 1_555 1_555
N8_2 C2_2 1_555 1_555
H13_2 N8_2 1_555 1_555
H14_2 N8_2 1_555 1_555
Zn3_2 N5_2 1_555 1_555
Zn1_2 N1_2 1_555 1_555
C5_2 C6_2 1_555 1_555
C6_2 C7_2 1_555 1_555
C8_2 C7_2 1_555 1_555
C9_2 C8_2 1_555 1_555
C10_2 C9_2 1_555 1_555
H5_2 C10_2 1_555 1_555
C11_2 C6_2 1_555 1_555
C12_2 C13_2 1_555 1_555
C13_2 H7_2 1_555 1_555
C14_2 C13_2 1_555 1_555
H8_2 C14_2 1_555 1_555
C15_2 C14_2 1_555 1_555
C16_2 C15_2 1_555 1_555
H9_2 C16_2 1_555 1_555
C17_2 C12_2 1_555 1_555
H10_2 C17_2 1_555 1_555
C18_2 C15_2 1_555 1_555
N1_2 C4_2 1_555 1_555
N10 C4_2 1_555 1_555
O1_2 C9_2 1_555 1_555
O2_2 C18_2 1_555 1_555
O6 C18_2 1_555 1_555
O5_2 Zn1_2 1_555 1_555
N11_2 Zn1_2 1_555 1_555
C5_2 O5_2 1_555 1_555
C10_2 C11_2 1_555 1_555
C12_2 O1_2 1_555 1_555
C16_2 C17_2 1_555 1_555
Zn5 N6_2 1_555 1_555
C1_2 H1_2 1_555 1_555
N2_2 C3_2 1_555 1_555
N4_2 C3_2 1_555 1_555
H11_2 N4_2 1_555 1_555
H12_2 N4_2 1_555 1_555
N6_2 C1_2 1_555 1_555
Zn6_2 N2_2 1_555 1_555
C1_2 N7_2 1_555 1_555
C2_3 N11 1_555 1_555
N8_3 C2_3 1_555 1_555
H13_3 N8_3 1_555 1_555
H14_3 N8_3 1_555 1_555
Zn3 N1_3 1_555 1_555
Zn6_2 N6_3 1_555 1_555
C1_3 H1_3 1_555 1_555
C3_3 N1_3 1_555 1_555
C5_3 C6_3 1_555 1_555
C6_3 C7_3 1_555 1_555
C7_3 H3_2 1_555 1_555
C8_3 C7_3 1_555 1_555
H4_2 C8_3 1_555 1_555
C9_3 C8_3 1_555 1_555
C10_3 C9_3 1_555 1_555
H5_3 C10_3 1_555 1_555
C11_3 C6_3 1_555 1_555
H6_3 C11_3 1_555 1_555
C12_3 C13_3 1_555 1_555
C13_3 H7_3 1_555 1_555
C14_3 C13_3 1_555 1_555
H8_3 C14_3 1_555 1_555
C15_3 C14_3 1_555 1_555
C16_3 C15_3 1_555 1_555
H9_3 C16_3 1_555 1_555
C17_3 C12_3 1_555 1_555
H10_3 C17_3 1_555 1_555
C18_3 C15_3 1_555 1_555
N1_3 C4_3 1_555 1_555
N9_2 C3_3 1_555 1_555
N3_2 C4_3 1_555 1_555
N4_3 C3_3 1_555 1_555
H11_3 N4_3 1_555 1_555
H12_3 N4_3 1_555 1_555
N6_3 C1_3 1_555 1_555
N7_3 Zn3 1_555 1_555
O1_3 C9_3 1_555 1_555
O2_3 C18_3 1_555 1_555
O3_2 C18_3 1_555 1_555
O4_3 C5_3 1_555 1_555
O5_3 Zn3 1_555 1_555
Zn6 O3_2 1_555 1_555
O6_2 Zn6_2 1_555 1_555
C1_3 N7_3 1_555 1_555
C5_3 O5_3 1_555 1_555
C10_3 C11_3 1_555 1_555
C12_3 O1_3 1_555 1_555
C16_3 C17_3 1_555 1_555
N9_2 N3_2 1_555 1_555
Zn6 N6_4 1_555 1_555
C1_4 H1_4 1_555 1_555
N9 C3_4 1_555 1_555
N4_4 C3_4 1_555 1_555
H11_4 N4_4 1_555 1_555
H12_4 N4_4 1_555 1_555
N6_4 C1_4 1_555 1_555
C1_4 N7_4 1_555 1_555
Zn3_2 N1_4 1_555 1_555
C5_4 C6_4 1_555 1_555
C6_4 C7_4 1_555 1_555
C8_4 C7_4 1_555 1_555
C9_4 C8_4 1_555 1_555
C10_4 C9_4 1_555 1_555
H5_4 C10_4 1_555 1_555
C11_4 C6_4 1_555 1_555
C12_4 C13_4 1_555 1_555
C13_4 H7_4 1_555 1_555
C14_4 C13_4 1_555 1_555
H8_4 C14_4 1_555 1_555
C15_4 C14_4 1_555 1_555
C16_4 C15_4 1_555 1_555
H9_4 C16_4 1_555 1_555
C17_4 C12_4 1_555 1_555
H10_4 C17_4 1_555 1_555
C18_4 C15_4 1_555 1_555
N1_4 C4_4 1_555 1_555
N10_2 C4_4 1_555 1_555
O1_4 C9_4 1_555 1_555
O2_4 C18_4 1_555 1_555
O6_2 C18_4 1_555 1_555
O5_4 Zn3_2 1_555 1_555
C5_4 O5_4 1_555 1_555
C10_4 C11_4 1_555 1_555
C12_4 O1_4 1_555 1_555
C16_4 C17_4 1_555 1_555
C2_4 N11_2 1_555 1_555
N8_4 C2_4 1_555 1_555
H13_4 N8_4 1_555 1_555
H14_4 N8_4 1_555 1_555
C7_5 H3_3 1_555 1_555
C8_5 C7_5 1_555 1_555
H4_3 C8_5 1_555 1_555
C7_6 H3_4 1_555 1_555
C8_6 C7_6 1_555 1_555
H4_4 C8_6 1_555 1_555

#END
