
###############################################################################
#
# This file contains modified crystal structure data generated from the
# MOF subset of the Cambridge Structural Database (CSD) v543 
# hosted by the Cambridge Crystallographic Data Centre (CCDC).
#
# This work is licensed under the Creative Commons
# Attribution-NonCommercial-ShareAlike 4.0 International License.
# To view a copy of this license, visit
# http://creativecommons.org/licenses/by-nc-sa/4.0/
# or send a letter to
# Creative Commons, PO Box 1866, Mountain View, CA 94042, USA.
#
# CIF created using the CSD Python API on 29 September 2022
# The structure has been converted into the P1 space group
# The structure has a 3D framework
# The original CSD entry QIFVOT is in the triclinic crystal system
# The framework has been calculated to contain at least 10.0% void space
# The void calculation uses a probe of radius 1.32A, grid spacing 0.4
#
###############################################################################

data_QIFVOT
_chemical_formula_moiety         '(C34 H24 Cu4 I4 N12)n'
_symmetry_cell_setting           triclinic
_symmetry_space_group_name_H-M   'P 1'
_symmetry_Int_Tables_number      1
_space_group_name_Hall           'P 1'
loop_
_symmetry_equiv_pos_site_id
_symmetry_equiv_pos_as_xyz
1 x,y,z
_cell_length_a                   7.3533(5)
_cell_length_b                   10.4850(7)
_cell_length_c                   16.6092(12)
_cell_angle_alpha                86.037(6)
_cell_angle_beta                 86.026(6)
_cell_angle_gamma                81.851(6)
_cell_volume                     1262.3
loop_
_atom_site_label
_atom_site_type_symbol
_atom_site_fract_x
_atom_site_fract_y
_atom_site_fract_z
I5 I 0.22163(10) 0.81221(6) 0.03789(5)
Cu3 Cu 0.0882(2) 0.64565(13) 0.95874(10)
I7 I 0.26192(9) 0.41153(6) 0.95771(4)
H3 H 0.0232 0.6883 0.6624
C5 C 0.0412(12) 0.6689(9) 0.7826(6)
H4 H 0.1093 0.5870 0.7826
Cu1 Cu 0.47910(17) 0.40867(12) 0.45518(8)
Cu2 Cu 0.35949(19) 0.57096(12) 0.05421(8)
I1 I 0.75395(9) 0.55004(7) 0.42766(5)
I3 I 0.73808(9) 0.58847(6) 0.04229(4)
C7 C 0.7957(13) 0.0557(9) 0.6233(6)
H5 H 0.8044 0.1021 0.6684
C8 C 0.7434(12) 0.1221(8) 0.5517(6)
H6 H 0.7191 0.2117 0.5493
C9 C 0.7271(11) 0.0560(7) 0.4836(5)
C12 C 0.6653(12) 0.1213(9) 0.4089(6)
C13 C 0.5467(12) 0.2532(9) 0.3192(5)
C14 C 0.4383(13) 0.3691(9) 0.2832(7)
C15 C 0.4288(12) 0.3992(9) 0.2013(6)
H9 H 0.4927 0.3430 0.1649
C16 C 0.2341(13) 0.5813(8) 0.2294(7)
H10 H 0.1562 0.6543 0.2121
C17 C 0.2467(12) 0.5538(8) 0.3092(6)
H11 H 0.1794 0.6094 0.3451
N2 N 0.6902(10) 0.0682(6) 0.3361(5)
N3 N 0.6100(10) 0.1524(7) 0.2786(5)
N4 N 0.5749(9) 0.2397(6) 0.3992(5)
N5 N 0.3530(10) 0.4490(7) 0.3388(5)
N6 N 0.3297(10) 0.5074(7) 0.1735(5)
Cu4 Cu 0.52090(17) 0.59133(12) 0.54482(8)
Cu8 Cu 0.9118(2) 0.35435(13) 0.04126(10)
I4 I 0.24605(9) 0.44996(7) 0.57234(5)
Cu5 Cu 0.64051(19) 0.42904(12) 0.94579(8)
N7 N 0.9967(10) 0.7227(7) 0.8527(5)
C1 C 0.9010(13) 0.8404(9) 0.8498(7)
H1 H 0.8709 0.8799 0.8983
C2 C 0.8441(13) 0.9072(9) 0.7802(6)
H2 H 0.7750 0.9885 0.7826
C3 C 0.8891(11) 0.8542(8) 0.7064(6)
C4 C 0.9902(13) 0.7299(9) 0.7100(6)
C6 C 0.8350(12) 0.9238(8) 0.6299(6)
C10 C 0.7673(12) 0.9224(8) 0.4902(6)
H7 H 0.7566 0.8761 0.4454
C11 C 0.8229(12) 0.8554(9) 0.5615(6)
H8 H 0.8519 0.7660 0.5637
H12 H 0.7480 0.9927 0.3276
C1_2 C 0.0990(13) 0.1596(9) 0.1502(7)
H1_2 H 0.1291 0.1201 0.1017
C2_2 C 0.1559(13) 0.0928(9) 0.2198(6)
H2_2 H 0.2250 0.0115 0.2174
C3_2 C 0.1109(11) 0.1458(8) 0.2936(6)
C4_2 C 0.0098(13) 0.2701(9) 0.2900(6)
C6_2 C 0.1650(12) 0.0762(8) 0.3701(6)
C10_2 C 0.2327(12) 0.0776(8) 0.5098(6)
H7_2 H 0.2434 0.1239 0.5546
C11_2 C 0.1771(12) 0.1446(9) 0.4385(6)
H8_2 H 0.1481 0.2340 0.4363
N1 N 0.0033(10) 0.2773(7) 0.1473(5)
H12_2 H 0.2520 0.0073 0.6724
I2 I 0.77837(10) 0.18779(6) 0.96211(5)
C7_2 C 0.2043(13) 0.9443(9) 0.3767(6)
H5_2 H 0.1956 0.8979 0.3316
C8_2 C 0.2566(12) 0.8779(8) 0.4483(6)
H6_2 H 0.2809 0.7883 0.4507
C9_2 C 0.2729(11) 0.9440(7) 0.5164(5)
C12_2 C 0.3347(12) 0.8787(9) 0.5911(6)
C13_2 C 0.4533(12) 0.7468(9) 0.6808(5)
C14_2 C 0.5617(13) 0.6309(9) 0.7168(7)
C15_2 C 0.5712(12) 0.6008(9) 0.7987(6)
H9_2 H 0.5073 0.6570 0.8351
C16_2 C 0.7659(13) 0.4187(8) 0.7706(7)
H10_2 H 0.8438 0.3457 0.7879
C17_2 C 0.7533(12) 0.4462(8) 0.6908(6)
H11_2 H 0.8206 0.3906 0.6549
N2_2 N 0.3098(10) 0.9318(6) 0.6639(5)
N3_2 N 0.3900(10) 0.8476(7) 0.7214(5)
N4_2 N 0.4251(9) 0.7603(6) 0.6008(5)
N5_2 N 0.6470(10) 0.5510(7) 0.6612(5)
N6_2 N 0.6703(10) 0.4926(7) 0.8265(5)
H3_2 H 0.9768 0.3117 0.3376
C5_2 C 0.9588(12) 0.3311(9) 0.2174(6)
H4_2 H 0.8907 0.4130 0.2174
loop_
_geom_bond_atom_site_label_1
_geom_bond_atom_site_label_2
_geom_bond_site_symmetry_1
_geom_bond_site_symmetry_2
I7 Cu3 1_555 1_555
H4 C5 1_555 1_555
Cu1 I1 1_555 1_555
Cu2 I5 1_555 1_555
I1 Cu4 1_555 1_555
I3 Cu2 1_555 1_555
H5 C7 1_555 1_555
C8 C7 1_555 1_555
H6 C8 1_555 1_555
C9 C8 1_555 1_555
C12 C9 1_555 1_555
C13 C14 1_555 1_555
C14 C15 1_555 1_555
C15 H9 1_555 1_555
C16 H10 1_555 1_555
C17 C16 1_555 1_555
H11 C17 1_555 1_555
N2 C12 1_555 1_555
N3 C13 1_555 1_555
N4 Cu1 1_555 1_555
N5 Cu1 1_555 1_555
N6 Cu2 1_555 1_555
Cu4 I4 1_555 1_555
Cu8 I3 1_555 1_555
I4 Cu1 1_555 1_555
C12 N4 1_555 1_555
C13 N4 1_555 1_555
C14 N5 1_555 1_555
C15 N6 1_555 1_555
C16 N6 1_555 1_555
C17 N5 1_555 1_555
N2 N3 1_555 1_555
Cu5 I7 1_555 1_555
C1 H1 1_555 1_555
C2 C1 1_555 1_555
H2 C2 1_555 1_555
C3 C2 1_555 1_555
C4 C3 1_555 1_555
C6 C3 1_555 1_555
H7 C10 1_555 1_555
C11 C6 1_555 1_555
H8 C11 1_555 1_555
N7 C1 1_555 1_555
C10 C11 1_555 1_555
C1_2 H1_2 1_555 1_555
C2_2 C1_2 1_555 1_555
H2_2 C2_2 1_555 1_555
C3_2 C2_2 1_555 1_555
C4_2 C3_2 1_555 1_555
C6_2 C3_2 1_555 1_555
H7_2 C10_2 1_555 1_555
C11_2 C6_2 1_555 1_555
H8_2 C11_2 1_555 1_555
N1 C1_2 1_555 1_555
C10_2 C11_2 1_555 1_555
Cu5 I2 1_555 1_555
H5_2 C7_2 1_555 1_555
C8_2 C7_2 1_555 1_555
H6_2 C8_2 1_555 1_555
C9_2 C8_2 1_555 1_555
C12_2 C9_2 1_555 1_555
C13_2 C14_2 1_555 1_555
C14_2 C15_2 1_555 1_555
C15_2 H9_2 1_555 1_555
C16_2 H10_2 1_555 1_555
C17_2 C16_2 1_555 1_555
H11_2 C17_2 1_555 1_555
N2_2 C12_2 1_555 1_555
N3_2 C13_2 1_555 1_555
N4_2 Cu4 1_555 1_555
N5_2 Cu4 1_555 1_555
N6_2 Cu5 1_555 1_555
C12_2 N4_2 1_555 1_555
C13_2 N4_2 1_555 1_555
C14_2 N5_2 1_555 1_555
C15_2 N6_2 1_555 1_555
C16_2 N6_2 1_555 1_555
C17_2 N5_2 1_555 1_555
N2_2 N3_2 1_555 1_555
H4_2 C5_2 1_555 1_555

#END
