
###############################################################################
#
# This file contains modified crystal structure data generated from the
# MOF subset of the Cambridge Structural Database (CSD) v543 
# hosted by the Cambridge Crystallographic Data Centre (CCDC).
#
# This work is licensed under the Creative Commons
# Attribution-NonCommercial-ShareAlike 4.0 International License.
# To view a copy of this license, visit
# http://creativecommons.org/licenses/by-nc-sa/4.0/
# or send a letter to
# Creative Commons, PO Box 1866, Mountain View, CA 94042, USA.
#
# CIF created using the CSD Python API on 29 September 2022
# The structure has been converted into the P1 space group
# The structure has a 3D framework
# The original CSD entry QIHLIF is in the triclinic crystal system
# The framework has been calculated to contain at least 10.0% void space
# The void calculation uses a probe of radius 1.32A, grid spacing 0.4
# The framework is charged, counterions have been retained in the structure
#
###############################################################################

data_QIHLIF
_chemical_formula_moiety         '(C54 H50 Gd2 N6 O16 6+)n'
_symmetry_cell_setting           triclinic
_symmetry_space_group_name_H-M   'P 1'
_symmetry_Int_Tables_number      1
_space_group_name_Hall           'P 1'
loop_
_symmetry_equiv_pos_site_id
_symmetry_equiv_pos_as_xyz
1 x,y,z
_cell_length_a                   9.5109(8)
_cell_length_b                   11.7875(14)
_cell_length_c                   18.7323(16)
_cell_angle_alpha                103.3280(10)
_cell_angle_beta                 98.6050(10)
_cell_angle_gamma                109.3500(10)
_cell_volume                     1868.75
loop_
_atom_site_label
_atom_site_type_symbol
_atom_site_fract_x
_atom_site_fract_y
_atom_site_fract_z
H25 H 0.0374 0.1961 0.9950
Gd6 Gd 0.26521(6) 0.98739(6) 0.00368(3)
H4 H 0.0172 0.7901 0.7545
H17 H 0.0362 0.6620 0.3776
H21 H 0.0337 0.4852 0.2821
O1 O 0.0670(9) 0.8999(10) 0.8889(5)
H24 H 0.9343 0.2748 0.0088
O9 O 0.9330(9) 0.1001(10) 0.1111(5)
O12 O 0.6983(10) 0.1974(8) 0.0528(5)
H10 H 0.7618 0.0247 0.4602
H11 H 0.9129 0.0367 0.4328
Gd1 Gd 0.73479(6) 0.01261(6) 0.99632(3)
O8 O 0.9380(10) 0.1984(9) 0.9788(6)
O11 O 0.6320(10) 0.0601(9) 0.8857(5)
O7 O 0.7795(11) 0.8384(10) 0.0304(6)
H22 H 0.7331 0.8248 0.0716
O10 O 0.5836(10) 0.9593(9) 0.0807(5)
C1 C 0.9353(13) 0.8971(11) 0.8713(6)
C2 C 0.8525(12) 0.8413(11) 0.7883(6)
C3 C 0.7032(13) 0.8349(13) 0.7626(7)
H1 H 0.6560 0.8692 0.7970
C4 C 0.6255(13) 0.7795(13) 0.6886(7)
H2 H 0.5266 0.7766 0.6726
C5 C 0.8413(13) 0.7364(12) 0.6623(7)
H3 H 0.8896 0.7054 0.6273
C6 C 0.9197(14) 0.7898(11) 0.7383(7)
C7 C 0.6052(15) 0.6609(13) 0.5595(6)
H5 H 0.5108 0.6761 0.5508
H6 H 0.5778 0.5710 0.5509
C8 C 0.7001(15) 0.7042(12) 0.5026(7)
C9 C 0.7060(17) 0.8152(13) 0.4874(7)
H7 H 0.6516 0.8605 0.5091
C10 C 0.7971(15) 0.8584(11) 0.4380(6)
C11 C 0.8660(15) 0.7855(11) 0.4058(7)
H8 H 0.9242 0.8122 0.3727
C12 C 0.8553(13) 0.6714(12) 0.4190(7)
C13 C 0.7744(13) 0.6349(12) 0.4690(7)
H9 H 0.7697 0.5613 0.4805
C14 C 0.8061(18) 0.9825(14) 0.4246(8)
C15 C 0.5821(18) 0.9498(14) 0.3296(7)
H12 H 0.5320 0.9513 0.3687
C16 C 0.5001(14) 0.9366(13) 0.2577(7)
H13 H 0.3964 0.9240 0.2487
C17 C 0.5750(14) 0.9425(11) 0.2008(8)
C18 C 0.7285(13) 0.9502(15) 0.2192(8)
H14 H 0.7829 0.9502 0.1818
C19 C 0.7974(15) 0.9574(15) 0.2886(9)
H15 H 0.8977 0.9608 0.2988
C20 C 0.5053(13) 0.9453(11) 0.1267(7)
C21 C 0.9418(15) 0.6018(13) 0.3818(7)
H16 H 0.9697 0.5544 0.4136
C22 C 0.7030(17) 0.4814(15) 0.2782(7)
H18 H 0.6525 0.5226 0.3068
C23 C 0.6220(15) 0.3892(12) 0.2097(8)
H19 H 0.5161 0.3646 0.1934
C24 C 0.6999(14) 0.3350(11) 0.1663(7)
C25 C 0.8601(14) 0.3755(13) 0.1936(7)
H20 H 0.9177 0.3438 0.1647
C26 C 0.9288(14) 0.4611(13) 0.2627(9)
C27 C 0.6142(13) 0.2273(11) 0.0942(7)
N1 N 0.6931(12) 0.7286(10) 0.6380(6)
N2 N 0.7201(13) 0.9598(10) 0.3444(6)
N3 N 0.8517(11) 0.5104(9) 0.3026(5)
O2 O 0.8660(9) 0.9422(9) 0.9162(4)
O4 O 0.3680(10) 0.9399(9) 0.1143(5)
O6 O 0.4727(9) 0.1744(8) 0.0841(5)
H23 H 0.7293 0.7632 0.9874
O13 O 0.5273(9) 0.8256(8) 0.9159(5)
C1_2 C 0.0647(13) 0.1029(11) 0.1287(6)
C2_2 C 0.1475(12) 0.1587(11) 0.2117(6)
C3_2 C 0.2968(13) 0.1651(13) 0.2374(7)
H1_2 H 0.3440 0.1308 0.2030
C4_2 C 0.3745(13) 0.2205(13) 0.3114(7)
H2_2 H 0.4734 0.2234 0.3274
C5_2 C 0.1587(13) 0.2636(12) 0.3377(7)
H3_2 H 0.1104 0.2946 0.3727
C6_2 C 0.0803(14) 0.2102(11) 0.2617(7)
C7_2 C 0.3948(15) 0.3391(13) 0.4405(6)
H5_2 H 0.4892 0.3239 0.4492
H6_2 H 0.4222 0.4290 0.4491
C8_2 C 0.2999(15) 0.2958(12) 0.4974(7)
C9_2 C 0.2940(17) 0.1848(13) 0.5126(7)
H7_2 H 0.3484 0.1395 0.4909
C10_2 C 0.2029(15) 0.1416(11) 0.5620(6)
C11_2 C 0.1340(15) 0.2145(11) 0.5942(7)
H8_2 H 0.0758 0.1878 0.6273
C12_2 C 0.1447(13) 0.3286(12) 0.5810(7)
C13_2 C 0.2256(13) 0.3651(12) 0.5310(7)
H9_2 H 0.2303 0.4387 0.5195
C14_2 C 0.1939(18) 0.0175(14) 0.5754(8)
C15_2 C 0.4179(18) 0.0502(14) 0.6704(7)
H12_2 H 0.4680 0.0487 0.6313
C16_2 C 0.4999(14) 0.0634(13) 0.7423(7)
H13_2 H 0.6036 0.0760 0.7513
C17_2 C 0.4250(14) 0.0575(11) 0.7992(8)
C18_2 C 0.2715(13) 0.0498(15) 0.7808(8)
H14_2 H 0.2171 0.0498 0.8182
C19_2 C 0.2026(15) 0.0426(15) 0.7114(9)
H15_2 H 0.1023 0.0392 0.7012
C20_2 C 0.4947(13) 0.0547(11) 0.8733(7)
C21_2 C 0.0582(15) 0.3982(13) 0.6182(7)
H16_2 H 0.0303 0.4456 0.5864
C22_2 C 0.2970(17) 0.5186(15) 0.7218(7)
H18_2 H 0.3475 0.4774 0.6932
C23_2 C 0.3780(15) 0.6108(12) 0.7903(8)
H19_2 H 0.4839 0.6354 0.8066
C24_2 C 0.3001(14) 0.6650(11) 0.8337(7)
C25_2 C 0.1399(14) 0.6245(13) 0.8064(7)
H20_2 H 0.0823 0.6562 0.8353
C26_2 C 0.0712(14) 0.5389(13) 0.7373(9)
C27_2 C 0.3858(13) 0.7727(11) 0.9058(7)
N1_2 N 0.3069(12) 0.2714(10) 0.3620(6)
N2_2 N 0.2799(13) 0.0402(10) 0.6556(6)
N3_2 N 0.1483(11) 0.4896(9) 0.6974(5)
O2_2 O 0.1340(9) 0.0578(9) 0.0838(4)
O3 O 0.4164(10) 0.0407(9) 0.9193(5)
O5 O 0.3017(10) 0.8026(8) 0.9472(5)
H23_2 H 0.2707 0.2368 0.0126
O7_2 O 0.2205(11) 0.1616(10) 0.9696(6)
H22_2 H 0.2669 0.1752 0.9284
H10_2 H 0.2382 0.9753 0.5398
H11_2 H 0.0871 0.9633 0.5672
O8_2 O 0.0620(10) 0.8016(9) 0.0212(6)
H24_2 H 0.0657 0.7252 0.9912
H4_2 H 0.9828 0.2099 0.2455
H17_2 H 0.9638 0.3380 0.6224
H21_2 H 0.9663 0.5148 0.7179
H25_2 H 0.9626 0.8039 0.0050
loop_
_geom_bond_atom_site_label_1
_geom_bond_atom_site_label_2
_geom_bond_site_symmetry_1
_geom_bond_site_symmetry_2
O8 Gd1 1_555 1_555
O11 Gd1 1_555 1_555
H22 O7 1_555 1_555
C1 C2 1_555 1_555
C2 C3 1_555 1_555
C3 H1 1_555 1_555
C4 C3 1_555 1_555
H2 C4 1_555 1_555
C5 H3 1_555 1_555
C6 C2 1_555 1_555
C7 H5 1_555 1_555
H6 C7 1_555 1_555
C8 C7 1_555 1_555
C9 C8 1_555 1_555
H7 C9 1_555 1_555
C10 C9 1_555 1_555
C11 C10 1_555 1_555
H8 C11 1_555 1_555
C12 C11 1_555 1_555
C13 C8 1_555 1_555
H9 C13 1_555 1_555
C14 C10 1_555 1_555
C15 H12 1_555 1_555
C16 C15 1_555 1_555
H13 C16 1_555 1_555
C17 C16 1_555 1_555
C18 C17 1_555 1_555
H14 C18 1_555 1_555
C19 C18 1_555 1_555
H15 C19 1_555 1_555
C20 C17 1_555 1_555
C21 C12 1_555 1_555
H16 C21 1_555 1_555
C22 H18 1_555 1_555
C23 C22 1_555 1_555
H19 C23 1_555 1_555
C24 C23 1_555 1_555
C25 C24 1_555 1_555
H20 C25 1_555 1_555
C26 C25 1_555 1_555
C27 C24 1_555 1_555
N1 C4 1_555 1_555
N2 C14 1_555 1_555
N3 C21 1_555 1_555
O2 C1 1_555 1_555
O10 C20 1_555 1_555
O4 C20 1_555 1_555
O12 C27 1_555 1_555
O6 C27 1_555 1_555
Gd6 O4 1_555 1_555
C5 C6 1_555 1_555
C5 N1 1_555 1_555
C7 N1 1_555 1_555
C12 C13 1_555 1_555
C15 N2 1_555 1_555
C19 N2 1_555 1_555
C22 N3 1_555 1_555
C26 N3 1_555 1_555
C1_2 C2_2 1_555 1_555
C2_2 C3_2 1_555 1_555
C3_2 H1_2 1_555 1_555
C4_2 C3_2 1_555 1_555
H2_2 C4_2 1_555 1_555
C5_2 H3_2 1_555 1_555
C6_2 C2_2 1_555 1_555
C7_2 H5_2 1_555 1_555
H6_2 C7_2 1_555 1_555
C8_2 C7_2 1_555 1_555
C9_2 C8_2 1_555 1_555
H7_2 C9_2 1_555 1_555
C10_2 C9_2 1_555 1_555
C11_2 C10_2 1_555 1_555
H8_2 C11_2 1_555 1_555
C12_2 C11_2 1_555 1_555
C13_2 C8_2 1_555 1_555
H9_2 C13_2 1_555 1_555
C14_2 C10_2 1_555 1_555
C15_2 H12_2 1_555 1_555
C16_2 C15_2 1_555 1_555
H13_2 C16_2 1_555 1_555
C17_2 C16_2 1_555 1_555
C18_2 C17_2 1_555 1_555
H14_2 C18_2 1_555 1_555
C19_2 C18_2 1_555 1_555
H15_2 C19_2 1_555 1_555
C20_2 C17_2 1_555 1_555
C21_2 C12_2 1_555 1_555
H16_2 C21_2 1_555 1_555
C22_2 H18_2 1_555 1_555
C23_2 C22_2 1_555 1_555
H19_2 C23_2 1_555 1_555
C24_2 C23_2 1_555 1_555
C25_2 C24_2 1_555 1_555
H20_2 C25_2 1_555 1_555
C26_2 C25_2 1_555 1_555
C27_2 C24_2 1_555 1_555
N1_2 C4_2 1_555 1_555
N2_2 C14_2 1_555 1_555
N3_2 C21_2 1_555 1_555
O2_2 C1_2 1_555 1_555
O3 C20_2 1_555 1_555
O11 C20_2 1_555 1_555
O5 C27_2 1_555 1_555
O13 C27_2 1_555 1_555
C5_2 C6_2 1_555 1_555
C5_2 N1_2 1_555 1_555
C7_2 N1_2 1_555 1_555
C12_2 C13_2 1_555 1_555
C15_2 N2_2 1_555 1_555
C19_2 N2_2 1_555 1_555
C22_2 N3_2 1_555 1_555
C26_2 N3_2 1_555 1_555
H22_2 O7_2 1_555 1_555
O8_2 Gd6 1_555 1_555

#END
