
###############################################################################
#
# This file contains modified crystal structure data generated from the
# MOF subset of the Cambridge Structural Database (CSD) v543 
# hosted by the Cambridge Crystallographic Data Centre (CCDC).
#
# This work is licensed under the Creative Commons
# Attribution-NonCommercial-ShareAlike 4.0 International License.
# To view a copy of this license, visit
# http://creativecommons.org/licenses/by-nc-sa/4.0/
# or send a letter to
# Creative Commons, PO Box 1866, Mountain View, CA 94042, USA.
#
# CIF created using the CSD Python API on 29 September 2022
# The structure has been converted into the P1 space group
# The structure has a 3D framework
# The original CSD entry QIHLEB is in the triclinic crystal system
# The framework has been calculated to contain at least 10.0% void space
# The void calculation uses a probe of radius 1.32A, grid spacing 0.4
# The framework is charged, counterions have been retained in the structure
#
###############################################################################

data_QIHLEB
_chemical_formula_moiety         '(C54 H50 Eu2 N6 O16 6+)n'
_symmetry_cell_setting           triclinic
_symmetry_space_group_name_H-M   'P 1'
_symmetry_Int_Tables_number      1
_space_group_name_Hall           'P 1'
loop_
_symmetry_equiv_pos_site_id
_symmetry_equiv_pos_as_xyz
1 x,y,z
_cell_length_a                   9.5206(9)
_cell_length_b                   11.8475(11)
_cell_length_c                   18.7274(17)
_cell_angle_alpha                102.7150(10)
_cell_angle_beta                 99.0520(10)
_cell_angle_gamma                109.5530(10)
_cell_volume                     1879.43
loop_
_atom_site_label
_atom_site_type_symbol
_atom_site_fract_x
_atom_site_fract_y
_atom_site_fract_z
Eu6 Eu 0.26589(3) 0.48710(3) 0.00401(2)
H6 H 0.0395 0.1558 0.3799
H14 H 0.0195 0.2971 0.7528
O5 O 0.0672(4) 0.4000(4) 0.88828(19)
H1 H 0.6495 0.0153 0.3081
C7 C 0.9412(7) 0.0986(6) 0.3825(3)
H5 H 0.9619 0.0490 0.4146
C8 C 0.7955(7) 0.4603(6) 0.2897(4)
H7 H 0.8978 0.4685 0.3006
C9 C 0.7243(6) 0.4494(6) 0.2180(4)
H8 H 0.7771 0.4488 0.1802
C10 C 0.5728(6) 0.4394(5) 0.2018(3)
C11 C 0.4964(7) 0.4339(6) 0.2583(3)
H9 H 0.3926 0.4216 0.2483
C12 C 0.5762(7) 0.4470(6) 0.3305(4)
H10 H 0.5265 0.4471 0.3695
C13 C 0.4984(6) 0.4423(5) 0.1253(3)
C14 C 0.8049(8) 0.4778(6) 0.4231(3)
H11 H 0.9128 0.5298 0.4317
H12 H 0.7625 0.5213 0.4585
C15 C 0.8389(6) 0.2358(5) 0.6621(3)
H13 H 0.8839 0.2002 0.6276
C16 C 0.9194(6) 0.2922(5) 0.7370(3)
C17 C 0.8500(5) 0.3410(5) 0.7882(3)
C18 C 0.7050(6) 0.3380(6) 0.7617(3)
H15 H 0.6580 0.3738 0.7949
C19 C 0.6305(6) 0.2833(6) 0.6876(3)
H16 H 0.5322 0.2812 0.6705
C20 C 0.9357(5) 0.4008(5) 0.8704(3)
C21 C 0.6104(7) 0.1639(6) 0.5592(3)
H17 H 0.5151 0.1775 0.5497
H18 H 0.5840 0.0748 0.5515
C22 C 0.8573(6) 0.1735(5) 0.4181(3)
C23 C 0.8667(7) 0.2845(5) 0.4037(3)
H19 H 0.9245 0.3125 0.3709
C24 C 0.7915(7) 0.3556(5) 0.4374(3)
C25 C 0.7082(7) 0.3148(6) 0.4867(3)
H20 H 0.6568 0.3614 0.5092
C26 C 0.6998(7) 0.2043(5) 0.5032(3)
C27 C 0.7731(6) 0.1346(5) 0.4688(3)
H21 H 0.7666 0.0602 0.4794
N1 N 0.8545(5) 0.0127(4) 0.3043(3)
N2 N 0.7222(6) 0.4593(4) 0.3443(3)
N3 N 0.6969(5) 0.2321(4) 0.6387(2)
O3 O 0.5778(4) 0.4590(4) 0.0793(2)
O4 O 0.3621(4) 0.4350(4) 0.1149(2)
O6 O 0.8674(4) 0.4421(4) 0.9146(2)
Eu3 Eu 0.73411(3) 0.51290(3) 0.99599(2)
C1 C 0.7027(7) 0.9789(6) 0.2793(3)
C2 C 0.6257(6) 0.8901(5) 0.2108(3)
H2 H 0.5202 0.8675 0.1934
C3 C 0.7012(6) 0.8341(5) 0.1675(3)
C4 C 0.8589(6) 0.8768(6) 0.1930(3)
H3 H 0.9150 0.8449 0.1637
C5 C 0.9338(6) 0.9663(5) 0.2617(4)
C6 C 0.6181(6) 0.7271(5) 0.0965(3)
O1 O 0.6986(4) 0.6966(4) 0.0557(2)
O2 O 0.4734(4) 0.6756(4) 0.0858(2)
O7 O 0.7734(5) 0.3336(4) 0.0291(3)
H23 H 0.8469 0.3632 0.0772
H24 H 0.9446 0.7747 0.0153
O12 O 0.9328(4) 0.6000(4) 0.11172(19)
H22 H 0.8117 0.2928 0.9911
O8 O 0.9405(4) 0.6996(4) 0.9811(2)
H25 H 0.9170 0.7033 0.9301
O9 O 0.5266(4) 0.3244(4) 0.9142(2)
O11 O 0.6379(4) 0.5650(4) 0.8851(2)
H22_2 H 0.1883 0.7072 0.0089
O8_2 O 0.0595(4) 0.3004(4) 0.0189(2)
H25_2 H 0.0830 0.2967 0.0699
O13 O 0.1326(4) 0.5579(4) 0.0854(2)
C1_2 C 0.2973(7) 0.0211(6) 0.7207(3)
C2_2 C 0.3743(6) 0.1099(5) 0.7892(3)
H2_2 H 0.4798 0.1325 0.8066
C3_2 C 0.2988(6) 0.1659(5) 0.8325(3)
C4_2 C 0.1411(6) 0.1232(6) 0.8070(3)
H3_2 H 0.0850 0.1551 0.8363
C5_2 C 0.0662(6) 0.0337(5) 0.7383(4)
C6_2 C 0.3819(6) 0.2729(5) 0.9035(3)
O1_2 O 0.3014(4) 0.3034(4) 0.9443(2)
O7_2 O 0.2266(5) 0.6664(4) 0.9709(3)
H23_2 H 0.1531 0.6368 0.9228
H24_2 H 0.0554 0.2253 0.9847
O10 O 0.4222(4) 0.5410(4) 0.9207(2)
H1_2 H 0.3505 0.9847 0.6919
C7_2 C 0.0588(7) 0.9014(6) 0.6175(3)
H5_2 H 0.0381 0.9510 0.5854
C8_2 C 0.2045(7) 0.5397(6) 0.7103(4)
H7_2 H 0.1022 0.5315 0.6994
C9_2 C 0.2757(6) 0.5506(6) 0.7820(4)
H8_2 H 0.2229 0.5512 0.8198
C10_2 C 0.4272(6) 0.5606(5) 0.7982(3)
C11_2 C 0.5036(7) 0.5661(6) 0.7417(3)
H9_2 H 0.6074 0.5784 0.7517
C12_2 C 0.4238(7) 0.5530(6) 0.6695(4)
H10_2 H 0.4735 0.5529 0.6305
C13_2 C 0.5016(6) 0.5577(5) 0.8747(3)
C14_2 C 0.1951(8) 0.5222(6) 0.5769(3)
H11_2 H 0.0872 0.4702 0.5683
H12_2 H 0.2375 0.4787 0.5415
C15_2 C 0.1611(6) 0.7642(5) 0.3379(3)
H13_2 H 0.1161 0.7998 0.3724
C16_2 C 0.0806(6) 0.7078(5) 0.2630(3)
C17_2 C 0.1500(5) 0.6590(5) 0.2118(3)
C18_2 C 0.2950(6) 0.6620(6) 0.2383(3)
H15_2 H 0.3420 0.6262 0.2051
C19_2 C 0.3695(6) 0.7167(6) 0.3124(3)
H16_2 H 0.4678 0.7188 0.3295
C20_2 C 0.0643(5) 0.5992(5) 0.1296(3)
C21_2 C 0.3896(7) 0.8361(6) 0.4408(3)
H17_2 H 0.4849 0.8225 0.4503
H18_2 H 0.4160 0.9252 0.4485
C22_2 C 0.1427(6) 0.8265(5) 0.5819(3)
C23_2 C 0.1333(7) 0.7155(5) 0.5963(3)
H19_2 H 0.0755 0.6875 0.6291
C24_2 C 0.2085(7) 0.6444(5) 0.5626(3)
C25_2 C 0.2918(7) 0.6852(6) 0.5133(3)
H20_2 H 0.3432 0.6386 0.4908
C26_2 C 0.3002(7) 0.7957(5) 0.4968(3)
C27_2 C 0.2269(6) 0.8654(5) 0.5312(3)
H21_2 H 0.2334 0.9398 0.5206
N1_2 N 0.1455(5) 0.9873(4) 0.6957(3)
N2_2 N 0.2778(6) 0.5407(4) 0.6557(3)
N3_2 N 0.3031(5) 0.7679(4) 0.3613(2)
H6_2 H 0.9605 0.8442 0.6201
H14_2 H 0.9805 0.7029 0.2472
H4 H 0.0403 0.9947 0.2785
H4_2 H 0.9597 0.0053 0.7215
loop_
_geom_bond_atom_site_label_1
_geom_bond_atom_site_label_2
_geom_bond_site_symmetry_1
_geom_bond_site_symmetry_2
C7 H5 1_555 1_555
C8 H7 1_555 1_555
C9 C8 1_555 1_555
H8 C9 1_555 1_555
C10 C9 1_555 1_555
C11 C10 1_555 1_555
H9 C11 1_555 1_555
C12 C11 1_555 1_555
H10 C12 1_555 1_555
C13 C10 1_555 1_555
C14 H11 1_555 1_555
H12 C14 1_555 1_555
C15 H13 1_555 1_555
C16 C15 1_555 1_555
C17 C16 1_555 1_555
C18 C17 1_555 1_555
H15 C18 1_555 1_555
C19 C18 1_555 1_555
H16 C19 1_555 1_555
C20 C17 1_555 1_555
C21 H17 1_555 1_555
H18 C21 1_555 1_555
C22 C7 1_555 1_555
C23 C22 1_555 1_555
H19 C23 1_555 1_555
C24 C14 1_555 1_555
C25 C24 1_555 1_555
H20 C25 1_555 1_555
C26 C21 1_555 1_555
C27 C22 1_555 1_555
H21 C27 1_555 1_555
N2 C8 1_555 1_555
N3 C15 1_555 1_555
O3 C13 1_555 1_555
O4 C13 1_555 1_555
O6 C20 1_555 1_555
Eu3 O6 1_555 1_555
Eu6 O4 1_555 1_555
C7 N1 1_555 1_555
C12 N2 1_555 1_555
C14 N2 1_555 1_555
C19 N3 1_555 1_555
C21 N3 1_555 1_555
C23 C24 1_555 1_555
C25 C26 1_555 1_555
C26 C27 1_555 1_555
C2 C1 1_555 1_555
H2 C2 1_555 1_555
C3 C2 1_555 1_555
C4 C3 1_555 1_555
H3 C4 1_555 1_555
C5 C4 1_555 1_555
C6 C3 1_555 1_555
O1 C6 1_555 1_555
O2 C6 1_555 1_555
H23 O7 1_555 1_555
Eu6 O2 1_555 1_555
O8 Eu3 1_555 1_555
H25 O8 1_555 1_555
O9 Eu3 1_555 1_555
O11 Eu3 1_555 1_555
O8_2 Eu6 1_555 1_555
H25_2 O8_2 1_555 1_555
O13 Eu6 1_555 1_555
C2_2 C1_2 1_555 1_555
H2_2 C2_2 1_555 1_555
C3_2 C2_2 1_555 1_555
C4_2 C3_2 1_555 1_555
H3_2 C4_2 1_555 1_555
C5_2 C4_2 1_555 1_555
C6_2 C3_2 1_555 1_555
O1_2 C6_2 1_555 1_555
O9 C6_2 1_555 1_555
H23_2 O7_2 1_555 1_555
C7_2 H5_2 1_555 1_555
C8_2 H7_2 1_555 1_555
C9_2 C8_2 1_555 1_555
H8_2 C9_2 1_555 1_555
C10_2 C9_2 1_555 1_555
C11_2 C10_2 1_555 1_555
H9_2 C11_2 1_555 1_555
C12_2 C11_2 1_555 1_555
H10_2 C12_2 1_555 1_555
C13_2 C10_2 1_555 1_555
C14_2 H11_2 1_555 1_555
H12_2 C14_2 1_555 1_555
C15_2 H13_2 1_555 1_555
C16_2 C15_2 1_555 1_555
C17_2 C16_2 1_555 1_555
C18_2 C17_2 1_555 1_555
H15_2 C18_2 1_555 1_555
C19_2 C18_2 1_555 1_555
H16_2 C19_2 1_555 1_555
C20_2 C17_2 1_555 1_555
C21_2 H17_2 1_555 1_555
H18_2 C21_2 1_555 1_555
C22_2 C7_2 1_555 1_555
C23_2 C22_2 1_555 1_555
H19_2 C23_2 1_555 1_555
C24_2 C14_2 1_555 1_555
C25_2 C24_2 1_555 1_555
H20_2 C25_2 1_555 1_555
C26_2 C21_2 1_555 1_555
C27_2 C22_2 1_555 1_555
H21_2 C27_2 1_555 1_555
N2_2 C8_2 1_555 1_555
N3_2 C15_2 1_555 1_555
O10 C13_2 1_555 1_555
O11 C13_2 1_555 1_555
O13 C20_2 1_555 1_555
C7_2 N1_2 1_555 1_555
C12_2 N2_2 1_555 1_555
C14_2 N2_2 1_555 1_555
C19_2 N3_2 1_555 1_555
C21_2 N3_2 1_555 1_555
C23_2 C24_2 1_555 1_555
C25_2 C26_2 1_555 1_555
C26_2 C27_2 1_555 1_555

#END
