
###############################################################################
#
# This file contains modified crystal structure data generated from the
# MOF subset of the Cambridge Structural Database (CSD) v543 
# hosted by the Cambridge Crystallographic Data Centre (CCDC).
#
# This work is licensed under the Creative Commons
# Attribution-NonCommercial-ShareAlike 4.0 International License.
# To view a copy of this license, visit
# http://creativecommons.org/licenses/by-nc-sa/4.0/
# or send a letter to
# Creative Commons, PO Box 1866, Mountain View, CA 94042, USA.
#
# CIF created using the CSD Python API on 29 September 2022
# The structure has been converted into the P1 space group
# The structure has a 3D framework
# The original CSD entry QIKCEV is in the monoclinic crystal system
# The framework has been calculated to contain at least 10.0% void space
# The void calculation uses a probe of radius 1.32A, grid spacing 0.4
#
###############################################################################

data_QIKCEV
_chemical_formula_moiety         '(C108 H96 Cd8 N16 O48 S8)n'
_symmetry_cell_setting           triclinic
_symmetry_space_group_name_H-M   'P 1'
_symmetry_Int_Tables_number      1
_space_group_name_Hall           'P 1'
loop_
_symmetry_equiv_pos_site_id
_symmetry_equiv_pos_as_xyz
1 x,y,z
_cell_length_a                   13.9650(14)
_cell_length_b                   12.5870(13)
_cell_length_c                   20.273(2)
_cell_angle_alpha                90
_cell_angle_beta                 109.178(2)
_cell_angle_gamma                90
_cell_volume                     3365.77
loop_
_atom_site_label
_atom_site_type_symbol
_atom_site_fract_x
_atom_site_fract_y
_atom_site_fract_z
Cd5 Cd 0.11226(2) 0.08468(2) 0.70764(2)
O17 O 0.06681(18) 0.60242(17) 0.84236(12)
S2 S 0.90185(7) 0.80953(7) 0.03014(4)
O9 O 0.9037(2) 0.92548(19) 0.15941(14)
O10 O 0.88092(18) 0.78452(19) 0.21785(12)
C9 C 0.8822(3) 0.6088(3) 0.03805(18)
H9 H 0.8773 0.5351 0.0272
C10 C 0.8785(3) 0.6496(3) 0.10163(17)
H10 H 0.8705 0.6069 0.1381
C11 C 0.8876(2) 0.7573(3) 0.10502(16)
C12 C 0.8903(2) 0.8267(3) 0.16346(17)
Cd6 Cd 0.88774(2) 0.91532(2) 0.29236(2)
Cd1 Cd 0.62291(2) 0.59422(2) 0.19829(2)
Cd2 Cd 0.88774(2) 0.58468(2) 0.79236(2)
S1 S 0.63030(7) 0.70347(7) 0.46097(4)
O1 O 0.79892(19) 0.59396(19) 0.24007(13)
H1 H 0.8230 0.6537 0.2277
H2 H 0.8237 0.5391 0.2228
O2 O 0.63090(18) 0.73669(18) 0.26818(11)
O3 O 0.6371(2) 0.59148(18) 0.33005(13)
O4 O 0.6209(2) 0.7644(2) 0.60544(13)
O5 O 0.6160(2) 0.9369(2) 0.58606(13)
O6 O 0.71240(19) 0.5755(2) 0.74747(14)
H3 H 0.6850 0.6348 0.7569
H4 H 0.6891 0.5212 0.7658
O7 O 0.8826(2) 0.5730(2) 0.90065(13)
O8 O 0.9020(2) 0.7447(2) 0.88398(12)
O11 O 0.93319(18) 0.10242(17) 0.65764(12)
O12 O 0.55520(17) 0.11805(18) 0.33735(12)
N1 N 0.6169(2) 0.4112(2) 0.20935(14)
N2 N 0.6460(2) 0.2550(2) 0.39961(14)
H5 H 0.6739 0.3173 0.3984
N3 N 0.8511(2) 0.2428(2) 0.59345(14)
H6 H 0.8263 0.3069 0.5944
N4 N 0.8873(2) 0.4041(2) 0.78305(14)
C1 C 0.6340(2) 0.6906(3) 0.32476(17)
C2 C 0.6301(2) 0.7589(3) 0.38311(16)
C3 C 0.6195(2) 0.8662(3) 0.38337(17)
H7 H 0.6183 0.9105 0.3452
C4 C 0.6105(3) 0.9048(3) 0.44595(18)
H8 H 0.6012 0.9777 0.4542
C5 C 0.6165(2) 0.8270(3) 0.49356(17)
C6 C 0.6181(2) 0.8421(3) 0.56659(17)
C7 C 0.8926(3) 0.6686(3) 0.92091(18)
C8 C 0.8933(2) 0.6848(3) 0.99365(17)
C13 C 0.6264(2) 0.3479(3) 0.15876(16)
H11 H 0.6352 0.3798 0.1187
C14 C 0.6240(3) 0.2384(3) 0.16218(18)
H12 H 0.6295 0.1963 0.1247
C15 C 0.6134(2) 0.1907(3) 0.22091(18)
H13 H 0.6116 0.1156 0.2246
C16 C 0.6054(2) 0.2554(2) 0.27444(16)
C17 C 0.6054(2) 0.3647(3) 0.26638(16)
H14 H 0.5970 0.4085 0.3022
C18 C 0.5985(2) 0.2044(3) 0.33980(17)
C19 C 0.6524(2) 0.2080(3) 0.46703(16)
H15 H 0.5904 0.1660 0.4618
H16 H 0.6561 0.2654 0.5012
C20 C 0.7453(2) 0.1364(3) 0.49456(15)
H17 H 0.7505 0.0916 0.4557
H18 H 0.7353 0.0885 0.5305
C21 C 0.8450(2) 0.1966(3) 0.52626(16)
H19 H 0.9026 0.1474 0.5326
H20 H 0.8499 0.2538 0.4939
C22 C 0.8928(2) 0.1914(3) 0.65339(17)
C23 C 0.8694(2) 0.3442(3) 0.83265(17)
H21 H 0.8628 0.3786 0.8727
C24 C 0.8601(3) 0.2354(3) 0.82813(18)
H22 H 0.8473 0.1957 0.8642
C25 C 0.8696(2) 0.1848(3) 0.76993(17)
H23 H 0.8649 0.1096 0.7659
C26 C 0.8862(2) 0.2453(3) 0.71766(17)
C27 C 0.8955(2) 0.3543(3) 0.72656(16)
H24 H 0.9082 0.3957 0.6911
Cd3 Cd 0.37709(2) 0.09422(2) 0.30171(2)
Cd4 Cd 0.62291(2) 0.90578(2) 0.69829(2)
O13 O 0.6209(2) 0.7356(2) 0.10544(13)
O14 O 0.6160(2) 0.5631(2) 0.08606(13)
O15 O 0.9037(2) 0.57452(19) 0.65941(14)
O16 O 0.88092(18) 0.71548(19) 0.71785(12)
O18 O 0.44480(17) 0.61805(18) 0.16265(12)
S1_2 S 0.36970(7) 0.20347(7) 0.03903(4)
O1_2 O 0.20108(19) 0.09396(19) 0.25993(13)
H1_2 H 0.1770 0.1537 0.2723
H2_2 H 0.1763 0.0391 0.2772
O2_2 O 0.36910(18) 0.23669(18) 0.23182(11)
O3_2 O 0.3629(2) 0.09148(18) 0.16995(13)
C1_2 C 0.3660(2) 0.1906(3) 0.17524(17)
C2_2 C 0.3699(2) 0.2589(3) 0.11689(16)
C3_2 C 0.3805(2) 0.3662(3) 0.11663(17)
H7_2 H 0.3817 0.4105 0.1548
C4_2 C 0.3895(3) 0.4048(3) 0.05405(18)
H8_2 H 0.3988 0.4777 0.0458
C5_2 C 0.3835(2) 0.3270(3) 0.00644(17)
O13_2 O 0.3791(2) 0.2356(2) 0.39456(13)
O14_2 O 0.3840(2) 0.0631(2) 0.41394(13)
S2_2 S 0.09815(7) 0.30953(7) 0.46986(4)
O4_2 O 0.3791(2) 0.2644(2) 0.89456(13)
O5_2 O 0.3840(2) 0.4369(2) 0.91394(13)
O6_2 O 0.28760(19) 0.0755(2) 0.75253(14)
H3_2 H 0.3150 0.1348 0.7431
H4_2 H 0.3109 0.0212 0.7342
O7_2 O 0.1174(2) 0.0730(2) 0.59935(13)
O8_2 O 0.0980(2) 0.2447(2) 0.61602(12)
O9_2 O 0.0963(2) 0.42548(19) 0.34059(14)
O10_2 O 0.11908(18) 0.28452(19) 0.28215(12)
C6_2 C 0.3819(2) 0.3421(3) 0.93341(17)
C7_2 C 0.1074(3) 0.1686(3) 0.57909(18)
C8_2 C 0.1067(2) 0.1848(3) 0.50635(17)
C9_2 C 0.1178(3) 0.1088(3) 0.46195(18)
H9_2 H 0.1227 0.0351 0.4728
C10_2 C 0.1215(3) 0.1496(3) 0.39837(17)
H10_2 H 0.1295 0.1069 0.3619
C11_2 C 0.1124(2) 0.2573(3) 0.39498(16)
C12_2 C 0.1097(2) 0.3267(3) 0.33654(17)
Cd4_2 Cd 0.37709(2) 0.40578(2) 0.80171(2)
Cd6_2 Cd 0.11226(2) 0.41532(2) 0.20764(2)
O15_2 O 0.0963(2) 0.07452(19) 0.84059(14)
O16_2 O 0.11908(18) 0.21548(19) 0.78215(12)
N1_2 N 0.3831(2) 0.9112(2) 0.29065(14)
N2_2 N 0.3540(2) 0.7550(2) 0.10039(14)
H5_2 H 0.3261 0.8173 0.1016
C13_2 C 0.3736(2) 0.8479(3) 0.34124(16)
H11_2 H 0.3648 0.8798 0.3813
C14_2 C 0.3760(3) 0.7384(3) 0.33782(18)
H12_2 H 0.3705 0.6963 0.3753
C15_2 C 0.3866(2) 0.6907(3) 0.27909(18)
H13_2 H 0.3884 0.6156 0.2754
C16_2 C 0.3946(2) 0.7554(2) 0.22556(16)
C17_2 C 0.3946(2) 0.8647(3) 0.23362(16)
H14_2 H 0.4030 0.9085 0.1978
C18_2 C 0.4015(2) 0.7044(3) 0.16020(17)
C19_2 C 0.3476(2) 0.7080(3) 0.03297(16)
H15_2 H 0.4096 0.6660 0.0382
C20_2 C 0.2547(2) 0.6364(3) 0.00544(15)
H17_2 H 0.2495 0.5916 0.0443
H20_2 H 0.1501 0.7538 0.0061
N3_2 N 0.1489(2) 0.7428(2) 0.90655(14)
H6_2 H 0.1737 0.8069 0.9056
N4_2 N 0.1127(2) 0.9041(2) 0.71695(14)
H16_2 H 0.3439 0.7654 0.9988
H18_2 H 0.2647 0.5885 0.9695
C21_2 C 0.1550(2) 0.6966(3) 0.97374(16)
H19_2 H 0.0974 0.6474 0.9674
C22_2 C 0.1072(2) 0.6914(3) 0.84661(17)
C23_2 C 0.1306(2) 0.8442(3) 0.66735(17)
H21_2 H 0.1372 0.8786 0.6273
C24_2 C 0.1399(3) 0.7354(3) 0.67187(18)
H22_2 H 0.1527 0.6957 0.6358
C25_2 C 0.1304(2) 0.6848(3) 0.73007(17)
H23_2 H 0.1351 0.6096 0.7341
C26_2 C 0.1138(2) 0.7453(3) 0.78234(17)
C27_2 C 0.1045(2) 0.8543(3) 0.77344(16)
H24_2 H 0.0918 0.8957 0.8089
S1_3 S 0.36970(7) 0.29653(7) 0.53903(4)
O1_3 O 0.20108(19) 0.40604(19) 0.75993(13)
H1_3 H 0.1770 0.3463 0.7723
H2_3 H 0.1763 0.4609 0.7772
O2_3 O 0.36910(18) 0.26331(18) 0.73182(11)
O3_3 O 0.3629(2) 0.40852(18) 0.66995(13)
O6_3 O 0.28760(19) 0.4245(2) 0.25253(14)
H3_3 H 0.3150 0.3652 0.2431
H4_3 H 0.3109 0.4788 0.2342
O7_3 O 0.1174(2) 0.4270(2) 0.09935(13)
O8_3 O 0.0980(2) 0.2553(2) 0.11602(12)
O11_2 O 0.06681(18) 0.89758(17) 0.34236(12)
O12_2 O 0.44480(17) 0.88195(18) 0.66265(12)
N1_3 N 0.3831(2) 0.5888(2) 0.79065(14)
N2_3 N 0.3540(2) 0.7450(2) 0.60039(14)
H5_3 H 0.3261 0.6827 0.6016
N3_3 N 0.1489(2) 0.7572(2) 0.40655(14)
H6_3 H 0.1737 0.6931 0.4056
N4_3 N 0.1127(2) 0.5959(2) 0.21695(14)
C1_3 C 0.3660(2) 0.3094(3) 0.67524(17)
C2_3 C 0.3699(2) 0.2411(3) 0.61689(16)
C3_3 C 0.3805(2) 0.1338(3) 0.61663(17)
H7_3 H 0.3817 0.0895 0.6548
C4_3 C 0.3895(3) 0.0952(3) 0.55405(18)
H8_3 H 0.3988 0.0223 0.5458
C5_3 C 0.3835(2) 0.1730(3) 0.50644(17)
C6_3 C 0.3819(2) 0.1579(3) 0.43341(17)
C7_3 C 0.1074(3) 0.3314(3) 0.07909(18)
C8_3 C 0.1067(2) 0.3152(3) 0.00635(17)
C13_3 C 0.3736(2) 0.6521(3) 0.84124(16)
H11_3 H 0.3648 0.6202 0.8813
C14_3 C 0.3760(3) 0.7616(3) 0.83782(18)
H12_3 H 0.3705 0.8037 0.8753
C15_3 C 0.3866(2) 0.8093(3) 0.77909(18)
H13_3 H 0.3884 0.8844 0.7754
C16_3 C 0.3946(2) 0.7446(2) 0.72556(16)
C17_3 C 0.3946(2) 0.6353(3) 0.73362(16)
H14_3 H 0.4030 0.5915 0.6978
C18_3 C 0.4015(2) 0.7956(3) 0.66020(17)
C19_3 C 0.3476(2) 0.7920(3) 0.53297(16)
H15_3 H 0.4096 0.8340 0.5382
H16_3 H 0.3439 0.7346 0.4988
C20_3 C 0.2547(2) 0.8636(3) 0.50544(15)
H17_3 H 0.2495 0.9084 0.5443
H18_3 H 0.2647 0.9115 0.4695
C21_3 C 0.1550(2) 0.8034(3) 0.47374(16)
H19_3 H 0.0974 0.8526 0.4674
H20_3 H 0.1501 0.7462 0.5061
C22_3 C 0.1072(2) 0.8086(3) 0.34661(17)
C23_3 C 0.1306(2) 0.6558(3) 0.16735(17)
H21_3 H 0.1372 0.6214 0.1273
C24_3 C 0.1399(3) 0.7646(3) 0.17187(18)
H22_3 H 0.1527 0.8043 0.1358
C25_3 C 0.1304(2) 0.8152(3) 0.23007(17)
H23_3 H 0.1351 0.8904 0.2341
C26_3 C 0.1138(2) 0.7547(3) 0.28234(17)
C27_3 C 0.1045(2) 0.6457(3) 0.27344(16)
H24_3 H 0.0918 0.6043 0.3089
O18_2 O 0.55520(17) 0.38195(18) 0.83735(12)
S2_3 S 0.09815(7) 0.19047(7) 0.96986(4)
C9_3 C 0.1178(3) 0.3912(3) 0.96195(18)
H9_3 H 0.1227 0.4649 0.9728
C10_3 C 0.1215(3) 0.3504(3) 0.89837(17)
H10_3 H 0.1295 0.3931 0.8619
C11_3 C 0.1124(2) 0.2427(3) 0.89498(16)
C12_3 C 0.1097(2) 0.1733(3) 0.83654(17)
O17_2 O 0.93319(18) 0.39758(17) 0.15764(12)
N3_4 N 0.8511(2) 0.2572(2) 0.09345(14)
H6_4 H 0.8263 0.1931 0.0944
N4_4 N 0.8873(2) 0.0959(2) 0.28305(14)
H16_4 H 0.6561 0.2346 0.0012
H18_4 H 0.7353 0.4115 0.0305
C21_4 C 0.8450(2) 0.3034(3) 0.02626(16)
H19_4 H 0.9026 0.3526 0.0326
C22_4 C 0.8928(2) 0.3086(3) 0.15339(17)
C23_4 C 0.8694(2) 0.1558(3) 0.33265(17)
H21_4 H 0.8628 0.1214 0.3727
C24_4 C 0.8601(3) 0.2646(3) 0.32813(18)
H22_4 H 0.8473 0.3043 0.3642
C25_4 C 0.8696(2) 0.3152(3) 0.26993(17)
H23_4 H 0.8649 0.3904 0.2659
C26_4 C 0.8862(2) 0.2547(3) 0.21766(17)
C27_4 C 0.8955(2) 0.1457(3) 0.22656(16)
H24_4 H 0.9082 0.1043 0.1911
N1_4 N 0.6169(2) 0.0888(2) 0.70935(14)
N2_4 N 0.6460(2) 0.2450(2) 0.89961(14)
H5_4 H 0.6739 0.1827 0.8984
C13_4 C 0.6264(2) 0.1521(3) 0.65876(16)
H11_4 H 0.6352 0.1202 0.6187
C14_4 C 0.6240(3) 0.2616(3) 0.66218(18)
H12_4 H 0.6295 0.3037 0.6247
C15_4 C 0.6134(2) 0.3093(3) 0.72091(18)
H13_4 H 0.6116 0.3844 0.7246
C16_4 C 0.6054(2) 0.2446(2) 0.77444(16)
C17_4 C 0.6054(2) 0.1353(3) 0.76638(16)
H14_4 H 0.5970 0.0915 0.8022
C18_4 C 0.5985(2) 0.2956(3) 0.83980(17)
C19_4 C 0.6524(2) 0.2920(3) 0.96703(16)
H15_4 H 0.5904 0.3340 0.9618
C20_4 C 0.7453(2) 0.3636(3) 0.99456(15)
H17_4 H 0.7505 0.4084 0.9557
H20_4 H 0.8499 0.2462 0.9939
S2_4 S 0.90185(7) 0.69047(7) 0.53014(4)
O6_4 O 0.71240(19) 0.9245(2) 0.24747(14)
H3_4 H 0.6850 0.8652 0.2569
H4_4 H 0.6891 0.9788 0.2658
O7_4 O 0.8826(2) 0.9270(2) 0.40065(13)
O8_4 O 0.9020(2) 0.7553(2) 0.38398(12)
C6_4 C 0.6181(2) 0.6579(3) 0.06659(17)
C7_4 C 0.8926(3) 0.8314(3) 0.42091(18)
C8_4 C 0.8933(2) 0.8152(3) 0.49365(17)
C9_4 C 0.8822(3) 0.8912(3) 0.53805(18)
H9_4 H 0.8773 0.9649 0.5272
C10_4 C 0.8785(3) 0.8504(3) 0.60163(17)
H10_4 H 0.8705 0.8931 0.6381
C11_4 C 0.8876(2) 0.7427(3) 0.60502(16)
C12_4 C 0.8903(2) 0.6733(3) 0.66346(17)
S1_4 S 0.63030(7) 0.79653(7) 0.96097(4)
O1_4 O 0.79892(19) 0.90604(19) 0.74007(13)
H1_4 H 0.8230 0.8463 0.7277
H2_4 H 0.8237 0.9609 0.7228
O2_4 O 0.63090(18) 0.76331(18) 0.76818(11)
O3_4 O 0.6371(2) 0.90852(18) 0.83005(13)
C1_4 C 0.6340(2) 0.8094(3) 0.82476(17)
C2_4 C 0.6301(2) 0.7411(3) 0.88311(16)
C3_4 C 0.6195(2) 0.6338(3) 0.88337(17)
H7_4 H 0.6183 0.5895 0.8452
C4_4 C 0.6105(3) 0.5952(3) 0.94595(18)
H8_4 H 0.6012 0.5223 0.9542
C5_4 C 0.6165(2) 0.6730(3) 0.99356(17)
loop_
_geom_bond_atom_site_label_1
_geom_bond_atom_site_label_2
_geom_bond_site_symmetry_1
_geom_bond_site_symmetry_2
O9 C12 1_555 1_555
O10 C12 1_555 1_555
H9 C9 1_555 1_555
C10 C9 1_555 1_555
H10 C10 1_555 1_555
C11 S2 1_555 1_555
C12 C11 1_555 1_555
Cd6 O9 1_555 1_555
O10 Cd6 1_555 1_555
C10 C11 1_555 1_555
Cd1 O1 1_555 1_555
Cd2 O6 1_555 1_555
S1 C2 1_555 1_555
O1 H1 1_555 1_555
H2 O1 1_555 1_555
O2 Cd1 1_555 1_555
O3 Cd1 1_555 1_555
O4 C6 1_555 1_555
O5 C6 1_555 1_555
O6 H3 1_555 1_555
H4 O6 1_555 1_555
O7 Cd2 1_555 1_555
O8 Cd2 1_555 1_555
O11 C22 1_555 1_555
O12 C18 1_555 1_555
N1 Cd1 1_555 1_555
N2 H5 1_555 1_555
N3 H6 1_555 1_555
N4 Cd2 1_555 1_555
C1 O2 1_555 1_555
C2 C1 1_555 1_555
C3 C2 1_555 1_555
H7 C3 1_555 1_555
C4 C3 1_555 1_555
H8 C4 1_555 1_555
C5 S1 1_555 1_555
C6 C5 1_555 1_555
C7 O7 1_555 1_555
C8 C7 1_555 1_555
C13 N1 1_555 1_555
H11 C13 1_555 1_555
C14 C13 1_555 1_555
H12 C14 1_555 1_555
C15 C14 1_555 1_555
H13 C15 1_555 1_555
C16 C15 1_555 1_555
C17 N1 1_555 1_555
H14 C17 1_555 1_555
C18 N2 1_555 1_555
C19 N2 1_555 1_555
H15 C19 1_555 1_555
H16 C19 1_555 1_555
C20 C19 1_555 1_555
H17 C20 1_555 1_555
H18 C20 1_555 1_555
C21 N3 1_555 1_555
H19 C21 1_555 1_555
H20 C21 1_555 1_555
C22 N3 1_555 1_555
C23 N4 1_555 1_555
H21 C23 1_555 1_555
C24 C23 1_555 1_555
H22 C24 1_555 1_555
C25 C24 1_555 1_555
H23 C25 1_555 1_555
C26 C22 1_555 1_555
C27 N4 1_555 1_555
H24 C27 1_555 1_555
Cd3 O12 1_555 1_555
Cd4 O4 1_555 1_555
O13 Cd1 1_555 1_555
O14 Cd1 1_555 1_555
O15 Cd2 1_555 1_555
O16 Cd2 1_555 1_555
O18 Cd1 1_555 1_555
O3 C1 1_555 1_555
O5 Cd4 1_555 1_555
O8 C7 1_555 1_555
C4 C5 1_555 1_555
C16 C17 1_555 1_555
C16 C18 1_555 1_555
C20 C21 1_555 1_555
C25 C26 1_555 1_555
C26 C27 1_555 1_555
Cd3 O1_2 1_555 1_555
S1_2 C2_2 1_555 1_555
O1_2 H1_2 1_555 1_555
H2_2 O1_2 1_555 1_555
O2_2 Cd3 1_555 1_555
O3_2 Cd3 1_555 1_555
C1_2 O2_2 1_555 1_555
C2_2 C1_2 1_555 1_555
C3_2 C2_2 1_555 1_555
H7_2 C3_2 1_555 1_555
C4_2 C3_2 1_555 1_555
H8_2 C4_2 1_555 1_555
C5_2 S1_2 1_555 1_555
O13_2 Cd3 1_555 1_555
O14_2 Cd3 1_555 1_555
O3_2 C1_2 1_555 1_555
C4_2 C5_2 1_555 1_555
Cd5 O6_2 1_555 1_555
S2_2 C8_2 1_555 1_555
O4_2 C6_2 1_555 1_555
O5_2 C6_2 1_555 1_555
O6_2 H3_2 1_555 1_555
H4_2 O6_2 1_555 1_555
O7_2 Cd5 1_555 1_555
O8_2 Cd5 1_555 1_555
O9_2 C12_2 1_555 1_555
O10_2 C12_2 1_555 1_555
C7_2 O7_2 1_555 1_555
C8_2 C7_2 1_555 1_555
C9_2 C8_2 1_555 1_555
H9_2 C9_2 1_555 1_555
C10_2 C9_2 1_555 1_555
H10_2 C10_2 1_555 1_555
C11_2 S2_2 1_555 1_555
C12_2 C11_2 1_555 1_555
Cd4_2 O4_2 1_555 1_555
Cd6_2 O9_2 1_555 1_555
O15_2 Cd5 1_555 1_555
O16_2 Cd5 1_555 1_555
O5_2 Cd4_2 1_555 1_555
O8_2 C7_2 1_555 1_555
O10_2 Cd6_2 1_555 1_555
C10_2 C11_2 1_555 1_555
O18 C18_2 1_555 1_555
N2_2 H5_2 1_555 1_555
C13_2 N1_2 1_555 1_555
H11_2 C13_2 1_555 1_555
C14_2 C13_2 1_555 1_555
H12_2 C14_2 1_555 1_555
C15_2 C14_2 1_555 1_555
H13_2 C15_2 1_555 1_555
C16_2 C15_2 1_555 1_555
C17_2 N1_2 1_555 1_555
H14_2 C17_2 1_555 1_555
C18_2 N2_2 1_555 1_555
C19_2 N2_2 1_555 1_555
H15_2 C19_2 1_555 1_555
C20_2 C19_2 1_555 1_555
H17_2 C20_2 1_555 1_555
C16_2 C17_2 1_555 1_555
C16_2 C18_2 1_555 1_555
O17 C22_2 1_555 1_555
N3_2 H6_2 1_555 1_555
C21_2 N3_2 1_555 1_555
H19_2 C21_2 1_555 1_555
C22_2 N3_2 1_555 1_555
C23_2 N4_2 1_555 1_555
H21_2 C23_2 1_555 1_555
C24_2 C23_2 1_555 1_555
H22_2 C24_2 1_555 1_555
C25_2 C24_2 1_555 1_555
H23_2 C25_2 1_555 1_555
C26_2 C22_2 1_555 1_555
C27_2 N4_2 1_555 1_555
H24_2 C27_2 1_555 1_555
C25_2 C26_2 1_555 1_555
C26_2 C27_2 1_555 1_555
Cd4_2 O1_3 1_555 1_555
Cd6_2 O6_3 1_555 1_555
S1_3 C2_3 1_555 1_555
O1_3 H1_3 1_555 1_555
H2_3 O1_3 1_555 1_555
O2_3 Cd4_2 1_555 1_555
O3_3 Cd4_2 1_555 1_555
O13_2 C6_3 1_555 1_555
O14_2 C6_3 1_555 1_555
O6_3 H3_3 1_555 1_555
H4_3 O6_3 1_555 1_555
O7_3 Cd6_2 1_555 1_555
O8_3 Cd6_2 1_555 1_555
O11_2 C22_3 1_555 1_555
O12_2 C18_3 1_555 1_555
N1_3 Cd4_2 1_555 1_555
N2_3 H5_3 1_555 1_555
N3_3 H6_3 1_555 1_555
N4_3 Cd6_2 1_555 1_555
C1_3 O2_3 1_555 1_555
C2_3 C1_3 1_555 1_555
C3_3 C2_3 1_555 1_555
H7_3 C3_3 1_555 1_555
C4_3 C3_3 1_555 1_555
H8_3 C4_3 1_555 1_555
C5_3 S1_3 1_555 1_555
C6_3 C5_3 1_555 1_555
C7_3 O7_3 1_555 1_555
C8_3 C7_3 1_555 1_555
C13_3 N1_3 1_555 1_555
H11_3 C13_3 1_555 1_555
C14_3 C13_3 1_555 1_555
H12_3 C14_3 1_555 1_555
C15_3 C14_3 1_555 1_555
H13_3 C15_3 1_555 1_555
C16_3 C15_3 1_555 1_555
C17_3 N1_3 1_555 1_555
H14_3 C17_3 1_555 1_555
C18_3 N2_3 1_555 1_555
C19_3 N2_3 1_555 1_555
H15_3 C19_3 1_555 1_555
H16_3 C19_3 1_555 1_555
C20_3 C19_3 1_555 1_555
H17_3 C20_3 1_555 1_555
H18_3 C20_3 1_555 1_555
C21_3 N3_3 1_555 1_555
H19_3 C21_3 1_555 1_555
H20_3 C21_3 1_555 1_555
C22_3 N3_3 1_555 1_555
C23_3 N4_3 1_555 1_555
H21_3 C23_3 1_555 1_555
C24_3 C23_3 1_555 1_555
H22_3 C24_3 1_555 1_555
C25_3 C24_3 1_555 1_555
H23_3 C25_3 1_555 1_555
C26_3 C22_3 1_555 1_555
C27_3 N4_3 1_555 1_555
H24_3 C27_3 1_555 1_555
Cd4 O12_2 1_555 1_555
O18_2 Cd4_2 1_555 1_555
O3_3 C1_3 1_555 1_555
O8_3 C7_3 1_555 1_555
C4_3 C5_3 1_555 1_555
C16_3 C17_3 1_555 1_555
C16_3 C18_3 1_555 1_555
C20_3 C21_3 1_555 1_555
C25_3 C26_3 1_555 1_555
C26_3 C27_3 1_555 1_555
O15_2 C12_3 1_555 1_555
O16_2 C12_3 1_555 1_555
H9_3 C9_3 1_555 1_555
C10_3 C9_3 1_555 1_555
H10_3 C10_3 1_555 1_555
C11_3 S2_3 1_555 1_555
C12_3 C11_3 1_555 1_555
C10_3 C11_3 1_555 1_555
O17_2 C22_4 1_555 1_555
N3_4 H6_4 1_555 1_555
C21_4 N3_4 1_555 1_555
H19_4 C21_4 1_555 1_555
C22_4 N3_4 1_555 1_555
C23_4 N4_4 1_555 1_555
H21_4 C23_4 1_555 1_555
C24_4 C23_4 1_555 1_555
H22_4 C24_4 1_555 1_555
C25_4 C24_4 1_555 1_555
H23_4 C25_4 1_555 1_555
C26_4 C22_4 1_555 1_555
C27_4 N4_4 1_555 1_555
H24_4 C27_4 1_555 1_555
C25_4 C26_4 1_555 1_555
C26_4 C27_4 1_555 1_555
O18_2 C18_4 1_555 1_555
N2_4 H5_4 1_555 1_555
C13_4 N1_4 1_555 1_555
H11_4 C13_4 1_555 1_555
C14_4 C13_4 1_555 1_555
H12_4 C14_4 1_555 1_555
C15_4 C14_4 1_555 1_555
H13_4 C15_4 1_555 1_555
C16_4 C15_4 1_555 1_555
C17_4 N1_4 1_555 1_555
H14_4 C17_4 1_555 1_555
C18_4 N2_4 1_555 1_555
C19_4 N2_4 1_555 1_555
H15_4 C19_4 1_555 1_555
C20_4 C19_4 1_555 1_555
H17_4 C20_4 1_555 1_555
C16_4 C17_4 1_555 1_555
C16_4 C18_4 1_555 1_555
Cd6 O6_4 1_555 1_555
S2_4 C8_4 1_555 1_555
O13 C6_4 1_555 1_555
O14 C6_4 1_555 1_555
O6_4 H3_4 1_555 1_555
H4_4 O6_4 1_555 1_555
O7_4 Cd6 1_555 1_555
O8_4 Cd6 1_555 1_555
O15 C12_4 1_555 1_555
O16 C12_4 1_555 1_555
C7_4 O7_4 1_555 1_555
C8_4 C7_4 1_555 1_555
C9_4 C8_4 1_555 1_555
H9_4 C9_4 1_555 1_555
C10_4 C9_4 1_555 1_555
H10_4 C10_4 1_555 1_555
C11_4 S2_4 1_555 1_555
C12_4 C11_4 1_555 1_555
O8_4 C7_4 1_555 1_555
C10_4 C11_4 1_555 1_555
Cd4 O1_4 1_555 1_555
S1_4 C2_4 1_555 1_555
O1_4 H1_4 1_555 1_555
H2_4 O1_4 1_555 1_555
O2_4 Cd4 1_555 1_555
O3_4 Cd4 1_555 1_555
C1_4 O2_4 1_555 1_555
C2_4 C1_4 1_555 1_555
C3_4 C2_4 1_555 1_555
H7_4 C3_4 1_555 1_555
C4_4 C3_4 1_555 1_555
H8_4 C4_4 1_555 1_555
C5_4 S1_4 1_555 1_555
O3_4 C1_4 1_555 1_555
C4_4 C5_4 1_555 1_555

#END
