
###############################################################################
#
# This file contains modified crystal structure data generated from the
# MOF subset of the Cambridge Structural Database (CSD) v543 
# hosted by the Cambridge Crystallographic Data Centre (CCDC).
#
# This work is licensed under the Creative Commons
# Attribution-NonCommercial-ShareAlike 4.0 International License.
# To view a copy of this license, visit
# http://creativecommons.org/licenses/by-nc-sa/4.0/
# or send a letter to
# Creative Commons, PO Box 1866, Mountain View, CA 94042, USA.
#
# CIF created using the CSD Python API on 29 September 2022
# The structure has been converted into the P1 space group
# The structure has a 3D framework
# The original CSD entry QITSAQ is in the hexagonal crystal system
# The framework has been calculated to contain at least 10.0% void space
# The void calculation uses a probe of radius 1.32A, grid spacing 0.4
# The framework is charged, counterions have been retained in the structure
# H atom positions have been added when not included in the experimental data
# Generated hydrogen atom positions removed from atoms on special positions
#
###############################################################################

data_QITSAQ
_chemical_formula_moiety         '(C92 H126 N34 O61 Sc16 10+)n'
_symmetry_cell_setting           triclinic
_symmetry_space_group_name_H-M   'P 1'
_symmetry_Int_Tables_number      1
_space_group_name_Hall           'P 1'
loop_
_symmetry_equiv_pos_site_id
_symmetry_equiv_pos_as_xyz
1 x,y,z
_cell_length_a                   18.1419(9)
_cell_length_b                   18.1419(9)
_cell_length_c                   20.5197(18)
_cell_angle_alpha                90
_cell_angle_beta                 90
_cell_angle_gamma                120
_cell_volume                     5848.81
loop_
_atom_site_label
_atom_site_type_symbol
_atom_site_fract_x
_atom_site_fract_y
_atom_site_fract_z
C1 C 0.1418(10) -0.0000 0.0919(9)
C2 C 0.1879(12) 0.0000 0.1530(10)
C3 C 0.2436(12) 0.0745(11) 0.1849(9)
H1 H 0.2534 0.1266 0.1690
C4 C 0.2842(4) 0.0711(5) 0.2396(3)
C5 C 0.4075(4) 0.1481(5) 0.3172(3)
H2 H 0.4234 0.1073 0.3241
C6 C 0.4372(4) 0.2242(5) 0.3495(3)
C7 C 0.3936(4) 0.2616(5) 0.3209(3)
H3 H 0.4008 0.3142 0.3331
N1 N 0.3505(4) 0.1448(5) 0.2732(3)
N2 N 0.3409(4) 0.2128(5) 0.2745(3)
C8 C 0.4975(8) 0.2531(10) 0.4057(7)
N3 N 0.2681(10) 0.0000 0.2720(9)
O1 O 0.0000 0.0000 0.0000
O2 O 0.6667 0.3333 0.5000
O3 O 0.1631(5) 0.0766(6) 0.0728(4)
O4 O 0.5184(6) 0.3244(7) 0.4270(5)
O5 O 0.5195(6) 0.2028(6) 0.4257(5)
O6 O 0.2283(10) 0.2283(10) 0.0000
O7 O 0.5410(12) 0.4676(11) 0.5000
Sc1 Sc 0.1114(2) 0.1114(2) 0.0000
Sc2 Sc 0.6021(2) 0.3968(2) 0.5000
C29 C 0.0000 0.1418(10) 0.0919(9)
C30 C 0.0000 0.1879(12) 0.1530(10)
N13 N 0.0000 0.2681(10) 0.2720(9)
C37 C 0.0745(11) 0.2436(12) 0.1849(9)
H16 H 0.1266 0.2534 0.1690
C38 C 0.0711(5) 0.2842(4) 0.2396(3)
C39 C 0.1481(5) 0.4075(4) 0.3172(3)
H17 H 0.1073 0.4234 0.3241
C40 C 0.2242(5) 0.4372(4) 0.3495(3)
C41 C 0.2616(5) 0.3936(4) 0.3209(3)
H18 H 0.3142 0.4008 0.3331
N14 N 0.1448(5) 0.3505(4) 0.2732(3)
N15 N 0.2128(5) 0.3409(4) 0.2745(3)
C42 C 0.2531(10) 0.4975(8) 0.4057(7)
O23 O 0.0766(6) 0.1631(5) 0.0728(4)
O24 O 0.3244(7) 0.5184(6) 0.4270(5)
O25 O 0.2028(6) 0.5195(6) 0.4257(5)
O45 O 0.4676(11) 0.5410(12) 0.5000
Sc7 Sc 0.3968(2) 0.6021(2) 0.5000
O52 O 0.3333 0.6667 0.5000
O54 O 0.5184(6) 0.3244(7) 0.5730(5)
O57 O 0.3244(7) 0.5184(6) 0.5730(5)
O60 O 0.6833(8) 0.4805(6) 0.5743(5)
O63 O 0.6833(8) 0.4805(6) 0.4257(5)
O67 O 0.4805(6) 0.6833(8) 0.4257(5)
O70 O 0.4805(6) 0.6833(8) 0.5743(5)
Sc17 Sc 0.7947(3) 0.3979(2) 0.5000
Sc20 Sc 0.6032(2) 0.2053(3) 0.5000
Sc26 Sc 0.2053(3) 0.6032(2) 0.5000
O1_2 O 0.0000 0.0000 1.0000
O6_2 O 0.2283(10) 0.2283(10) 1.0000
Sc1_2 Sc 0.1114(2) 0.1114(2) 1.0000
C43 C 0.1418(10) 0.0000 0.9081(9)
C44 C 0.1879(12) -0.0000 0.8470(10)
C45 C 0.2436(12) 0.0745(11) 0.8151(9)
H19 H 0.2534 0.1266 0.8310
C46 C 0.2842(4) 0.0711(5) 0.7604(3)
C47 C 0.4075(4) 0.1481(5) 0.6828(3)
H20 H 0.4234 0.1073 0.6759
C48 C 0.4372(4) 0.2242(5) 0.6505(3)
C49 C 0.3936(4) 0.2616(5) 0.6791(3)
H21 H 0.4008 0.3142 0.6669
N16 N 0.3505(4) 0.1448(5) 0.7268(3)
N17 N 0.3409(4) 0.2128(5) 0.7255(3)
C50 C 0.4975(8) 0.2531(10) 0.5943(7)
N18 N 0.2681(10) -0.0000 0.7280(9)
O26 O 0.1631(5) 0.0766(6) 0.9272(4)
O28 O 0.5195(6) 0.2028(6) 0.5743(5)
C71 C 0.0000 0.1418(10) 0.9081(9)
C72 C 0.0000 0.1879(12) 0.8470(10)
N28 N 0.0000 0.2681(10) 0.7280(9)
C79 C 0.0745(11) 0.2436(12) 0.8151(9)
H34 H 0.1266 0.2534 0.8310
C80 C 0.0711(5) 0.2842(4) 0.7604(3)
C81 C 0.1481(5) 0.4075(4) 0.6828(3)
H35 H 0.1073 0.4234 0.6759
C82 C 0.2242(5) 0.4372(4) 0.6505(3)
C83 C 0.2616(5) 0.3936(4) 0.6791(3)
H36 H 0.3142 0.4008 0.6669
N29 N 0.1448(5) 0.3505(4) 0.7268(3)
N30 N 0.2128(5) 0.3409(4) 0.7255(3)
C84 C 0.2531(10) 0.4975(8) 0.5943(7)
O42 O 0.0766(6) 0.1631(5) 0.9272(4)
O44 O 0.2028(6) 0.5195(6) 0.5743(5)
C1_2 C 0.1418(10) 1.0000 0.0919(9)
C2_2 C 0.1879(12) 1.0000 0.1530(10)
N3_2 N 0.2681(10) 1.0000 0.2720(9)
O1_3 O 0.0000 1.0000 0.0000
C9 C 0.1691(16) 0.9255(11) 0.1849(9)
H4 H 0.1268 0.8734 0.1690
C10 C 0.2131(6) 0.9289(5) 0.2396(3)
C11 C 0.2594(6) 0.8519(5) 0.3172(3)
H5 H 0.3161 0.8927 0.3241
C12 C 0.2130(6) 0.7758(5) 0.3495(3)
C13 C 0.1320(6) 0.7384(5) 0.3209(3)
H6 H 0.0866 0.6858 0.3331
N4 N 0.2057(6) 0.8552(5) 0.2732(3)
N5 N 0.1281(6) 0.7872(5) 0.2745(3)
C14 C 0.2444(13) 0.7469(10) 0.4057(7)
O8 O 0.0865(8) 0.9234(6) 0.0728(4)
O9 O 0.1940(9) 0.6756(7) 0.4270(5)
O10 O 0.3167(8) 0.7972(6) 0.4257(5)
O14 O 0.0000(14) 0.7717(10) 0.0000
Sc3 Sc 0.0000(3) 0.8886(2) 0.0000
O47 O 0.0734(16) 0.5324(11) 0.5000
O56 O 0.1940(9) 0.6756(7) 0.5730(5)
Sc29 Sc 0.3979(2) 0.7947(3) 0.5000
O1_4 O 0.0000 1.0000 1.0000
O14_2 O 0.0000(14) 0.7717(10) 1.0000
Sc3_2 Sc 0.0000(3) 0.8886(2) 1.0000
C43_2 C 0.1418(10) 1.0000 0.9081(9)
C44_2 C 0.1879(12) 1.0000 0.8470(10)
N18_2 N 0.2681(10) 1.0000 0.7280(9)
C51 C 0.1691(16) 0.9255(11) 0.8151(9)
H22 H 0.1268 0.8734 0.8310
C52 C 0.2131(6) 0.9289(5) 0.7604(3)
C53 C 0.2594(6) 0.8519(5) 0.6828(3)
H23 H 0.3161 0.8927 0.6759
C54 C 0.2130(6) 0.7758(5) 0.6505(3)
C55 C 0.1320(6) 0.7384(5) 0.6791(3)
H24 H 0.0866 0.6858 0.6669
N19 N 0.2057(6) 0.8552(5) 0.7268(3)
N20 N 0.1281(6) 0.7872(5) 0.7255(3)
C56 C 0.2444(13) 0.7469(10) 0.5943(7)
O29 O 0.0865(8) 0.9234(6) 0.9272(4)
O31 O 0.3167(8) 0.7972(6) 0.5743(5)
O1_5 O 1.0000 0.0000 0.0000
C29_2 C 1.0000 0.1418(10) 0.0919(9)
C30_2 C 1.0000 0.1879(12) 0.1530(10)
C31 C 0.9255(11) 0.1691(16) 0.1849(9)
H13 H 0.8734 0.1268 0.1690
C32 C 0.9289(5) 0.2131(6) 0.2396(3)
C33 C 0.8519(5) 0.2594(6) 0.3172(3)
H14 H 0.8927 0.3161 0.3241
C34 C 0.7758(5) 0.2130(6) 0.3495(3)
C35 C 0.7384(5) 0.1320(6) 0.3209(3)
H15 H 0.6858 0.0866 0.3331
N11 N 0.8552(5) 0.2057(6) 0.2732(3)
N12 N 0.7872(5) 0.1281(6) 0.2745(3)
C36 C 0.7469(10) 0.2444(13) 0.4057(7)
N13_2 N 1.0000 0.2681(10) 0.2720(9)
O18 O 0.9234(6) 0.0865(8) 0.0728(4)
O19 O 0.6756(7) 0.1940(9) 0.4270(5)
O20 O 0.7972(6) 0.3167(8) 0.4257(5)
O21 O 0.7717(10) 0.0000(14) 0.0000
O22 O 0.5324(11) 0.0734(16) 0.5000
Sc4 Sc 0.8886(2) 0.0000(3) 0.0000
O55 O 0.6756(7) 0.1940(9) 0.5730(5)
O1_6 O 1.0000 0.0000 1.0000
O21_2 O 0.7717(10) 0.0000(14) 1.0000
Sc4_2 Sc 0.8886(2) 0.0000(3) 1.0000
C71_2 C 1.0000 0.1418(10) 0.9081(9)
C72_2 C 1.0000 0.1879(12) 0.8470(10)
C73 C 0.9255(11) 0.1691(16) 0.8151(9)
H31 H 0.8734 0.1268 0.8310
C74 C 0.9289(5) 0.2131(6) 0.7604(3)
C75 C 0.8519(5) 0.2594(6) 0.6828(3)
H32 H 0.8927 0.3161 0.6759
C76 C 0.7758(5) 0.2130(6) 0.6505(3)
C77 C 0.7384(5) 0.1320(6) 0.6791(3)
H33 H 0.6858 0.0866 0.6669
N26 N 0.8552(5) 0.2057(6) 0.7268(3)
N27 N 0.7872(5) 0.1281(6) 0.7255(3)
C78 C 0.7469(10) 0.2444(13) 0.5943(7)
N28_2 N 1.0000 0.2681(10) 0.7280(9)
O39 O 0.9234(6) 0.0865(8) 0.9272(4)
O41 O 0.7972(6) 0.3167(8) 0.5743(5)
O1_7 O 1.0000 1.0000 0.0000
O14_3 O 1.0000(14) 0.7717(10) 0.0000
Sc3_3 Sc 1.0000(3) 0.8886(2) 0.0000
O21_3 O 0.7717(10) 1.0000(14) 0.0000
Sc4_3 Sc 0.8886(2) 1.0000(3) 0.0000
C57 C 0.8582(10) 0.8582(10) 0.0919(9)
C58 C 0.8121(12) 0.8121(12) 0.1530(10)
C59 C 0.8309(16) 0.7564(12) 0.1849(9)
H25 H 0.8732 0.7466 0.1690
C60 C 0.7869(6) 0.7158(4) 0.2396(3)
C61 C 0.7406(6) 0.5925(4) 0.3172(3)
H26 H 0.6839 0.5766 0.3241
C62 C 0.7870(6) 0.5628(4) 0.3495(3)
C63 C 0.8680(6) 0.6064(4) 0.3209(3)
H27 H 0.9134 0.5992 0.3331
N21 N 0.7943(6) 0.6495(4) 0.2732(3)
N22 N 0.8719(6) 0.6591(4) 0.2745(3)
C64 C 0.7556(13) 0.5025(8) 0.4057(7)
N23 N 0.7319(10) 0.7319(10) 0.2720(9)
O32 O 0.9135(8) 0.8369(5) 0.0728(4)
O33 O 0.8060(9) 0.4816(6) 0.4270(5)
O35 O 0.9266(16) 0.4590(12) 0.5000
C65 C 0.7564(12) 0.8309(16) 0.1849(9)
H28 H 0.7466 0.8732 0.1690
C66 C 0.7158(4) 0.7869(6) 0.2396(3)
C67 C 0.5925(4) 0.7406(6) 0.3172(3)
H29 H 0.5766 0.6839 0.3241
C68 C 0.5628(4) 0.7870(6) 0.3495(3)
C69 C 0.6064(4) 0.8680(6) 0.3209(3)
H30 H 0.5992 0.9134 0.3331
N24 N 0.6495(4) 0.7943(6) 0.2732(3)
N25 N 0.6591(4) 0.8719(6) 0.2745(3)
C70 C 0.5025(8) 0.7556(13) 0.4057(7)
O36 O 0.8369(5) 0.9135(8) 0.0728(4)
O37 O 0.4816(6) 0.8060(9) 0.4270(5)
O46 O 0.4590(12) 0.9266(16) 0.5000
O53 O 0.8060(9) 0.4816(6) 0.5730(5)
O58 O 0.4816(6) 0.8060(9) 0.5730(5)
O1_8 O 1.0000 1.0000 1.0000
C15 C 0.8582(10) 0.8582(10) 0.9081(9)
C16 C 0.8121(12) 0.8121(12) 0.8470(10)
C17 C 0.8309(16) 0.7564(12) 0.8151(9)
H7 H 0.8732 0.7466 0.8310
C18 C 0.7869(6) 0.7158(4) 0.7604(3)
C19 C 0.7406(6) 0.5925(4) 0.6828(3)
H8 H 0.6839 0.5766 0.6759
C20 C 0.7870(6) 0.5628(4) 0.6505(3)
C21 C 0.8680(6) 0.6064(4) 0.6791(3)
H9 H 0.9134 0.5992 0.6669
N6 N 0.7943(6) 0.6495(4) 0.7268(3)
N7 N 0.8719(6) 0.6591(4) 0.7255(3)
C22 C 0.7556(13) 0.5025(8) 0.5943(7)
N8 N 0.7319(10) 0.7319(10) 0.7280(9)
O11 O 0.9135(8) 0.8369(5) 0.9272(4)
O14_4 O 1.0000(14) 0.7717(10) 1.0000
Sc3_4 Sc 1.0000(3) 0.8886(2) 1.0000
C23 C 0.7564(12) 0.8309(16) 0.8151(9)
H10 H 0.7466 0.8732 0.8310
C24 C 0.7158(4) 0.7869(6) 0.7604(3)
C25 C 0.5925(4) 0.7406(6) 0.6828(3)
H11 H 0.5766 0.6839 0.6759
C26 C 0.5628(4) 0.7870(6) 0.6505(3)
C27 C 0.6064(4) 0.8680(6) 0.6791(3)
H12 H 0.5992 0.9134 0.6669
N9 N 0.6495(4) 0.7943(6) 0.7268(3)
N10 N 0.6591(4) 0.8719(6) 0.7255(3)
C28 C 0.5025(8) 0.7556(13) 0.5943(7)
O15 O 0.8369(5) 0.9135(8) 0.9272(4)
O21_4 O 0.7717(10) 1.0000(14) 1.0000
Sc4_4 Sc 0.8886(2) 1.0000(3) 1.0000
loop_
_geom_bond_atom_site_label_1
_geom_bond_atom_site_label_2
_geom_bond_site_symmetry_1
_geom_bond_site_symmetry_2
C1 C2 1_555 1_555
C2 C3 1_555 1_555
C3 H1 1_555 1_555
C4 C3 1_555 1_555
C5 H2 1_555 1_555
C6 C5 1_555 1_555
C7 C6 1_555 1_555
H3 C7 1_555 1_555
N1 C4 1_555 1_555
N2 C7 1_555 1_555
C8 C6 1_555 1_555
N3 C4 1_555 1_555
O1 Sc1 1_555 1_555
O2 Sc2 1_555 1_555
O3 C1 1_555 1_555
O4 C8 1_555 1_555
O5 C8 1_555 1_555
O6 Sc1 1_555 1_555
O7 Sc2 1_555 1_555
Sc1 O3 1_555 1_555
Sc2 O4 1_555 1_555
C29 C30 1_555 1_555
C37 C30 1_555 1_555
H16 C37 1_555 1_555
C38 N13 1_555 1_555
C39 H17 1_555 1_555
C40 C39 1_555 1_555
C41 C40 1_555 1_555
H18 C41 1_555 1_555
N14 C38 1_555 1_555
N15 C41 1_555 1_555
C42 C40 1_555 1_555
O23 Sc1 1_555 1_555
O24 C42 1_555 1_555
O25 C42 1_555 1_555
O45 Sc7 1_555 1_555
Sc7 O24 1_555 1_555
O52 Sc7 1_555 1_555
O54 Sc2 1_555 1_555
O57 Sc7 1_555 1_555
O60 Sc2 1_555 1_555
O63 Sc2 1_555 1_555
O67 Sc7 1_555 1_555
O70 Sc7 1_555 1_555
Sc17 O2 1_555 1_555
Sc20 O2 1_555 1_555
Sc26 O25 1_555 1_555
C5 N1 1_555 1_555
N1 N2 1_555 1_555
O5 Sc20 1_555 1_555
C29 O23 1_555 1_555
C37 C38 1_555 1_555
C39 N14 1_555 1_555
N14 N15 1_555 1_555
O52 Sc26 1_555 1_555
O1_2 Sc1_2 1_555 1_555
O6_2 Sc1_2 1_555 1_555
C43 C44 1_555 1_555
C44 C45 1_555 1_555
C45 H19 1_555 1_555
C46 C45 1_555 1_555
C47 H20 1_555 1_555
C48 C47 1_555 1_555
C49 C48 1_555 1_555
H21 C49 1_555 1_555
N16 C46 1_555 1_555
N17 C49 1_555 1_555
C50 C48 1_555 1_555
N18 C46 1_555 1_555
O26 Sc1_2 1_555 1_555
O54 C50 1_555 1_555
O28 C50 1_555 1_555
C71 C72 1_555 1_555
C79 C72 1_555 1_555
H34 C79 1_555 1_555
C80 N28 1_555 1_555
C81 H35 1_555 1_555
C82 C81 1_555 1_555
C83 C82 1_555 1_555
H36 C83 1_555 1_555
N29 C80 1_555 1_555
N30 C83 1_555 1_555
C84 C82 1_555 1_555
O42 Sc1_2 1_555 1_555
O57 C84 1_555 1_555
O44 C84 1_555 1_555
Sc20 O28 1_555 1_555
Sc26 O44 1_555 1_555
C43 O26 1_555 1_555
C47 N16 1_555 1_555
N16 N17 1_555 1_555
C71 O42 1_555 1_555
C79 C80 1_555 1_555
C81 N29 1_555 1_555
N29 N30 1_555 1_555
C1_2 C2_2 1_555 1_555
C9 C2_2 1_555 1_555
H4 C9 1_555 1_555
C10 N3_2 1_555 1_555
C11 H5 1_555 1_555
C12 C11 1_555 1_555
C13 C12 1_555 1_555
H6 C13 1_555 1_555
N4 C10 1_555 1_555
N5 C13 1_555 1_555
C14 C12 1_555 1_555
O8 C1_2 1_555 1_555
O9 C14 1_555 1_555
O10 C14 1_555 1_555
O14 Sc3 1_555 1_555
Sc3 O1_3 1_555 1_555
O47 Sc26 1_555 1_555
Sc26 O9 1_555 1_555
O56 Sc26 1_555 1_555
Sc29 O10 1_555 1_555
C9 C10 1_555 1_555
C11 N4 1_555 1_555
N4 N5 1_555 1_555
O8 Sc3 1_555 1_555
O52 Sc29 1_555 1_555
O14_2 Sc3_2 1_555 1_555
Sc3_2 O1_4 1_555 1_555
C43_2 C44_2 1_555 1_555
C51 C44_2 1_555 1_555
H22 C51 1_555 1_555
C52 N18_2 1_555 1_555
C53 H23 1_555 1_555
C54 C53 1_555 1_555
C55 C54 1_555 1_555
H24 C55 1_555 1_555
N19 C52 1_555 1_555
N20 C55 1_555 1_555
C56 C54 1_555 1_555
O29 Sc3_2 1_555 1_555
O56 C56 1_555 1_555
O31 C56 1_555 1_555
Sc29 O31 1_555 1_555
C43_2 O29 1_555 1_555
C51 C52 1_555 1_555
C53 N19 1_555 1_555
N19 N20 1_555 1_555
C29_2 C30_2 1_555 1_555
C30_2 C31 1_555 1_555
C31 H13 1_555 1_555
C32 C31 1_555 1_555
C33 H14 1_555 1_555
C34 C33 1_555 1_555
C35 C34 1_555 1_555
H15 C35 1_555 1_555
N11 C32 1_555 1_555
N12 C35 1_555 1_555
C36 C34 1_555 1_555
N13_2 C32 1_555 1_555
O18 C29_2 1_555 1_555
O19 C36 1_555 1_555
O20 C36 1_555 1_555
O21 Sc4 1_555 1_555
O22 Sc20 1_555 1_555
Sc4 O1_5 1_555 1_555
Sc20 O19 1_555 1_555
O55 Sc20 1_555 1_555
Sc17 O20 1_555 1_555
C33 N11 1_555 1_555
N11 N12 1_555 1_555
O18 Sc4 1_555 1_555
O21_2 Sc4_2 1_555 1_555
Sc4_2 O1_6 1_555 1_555
C71_2 C72_2 1_555 1_555
C72_2 C73 1_555 1_555
C73 H31 1_555 1_555
C74 C73 1_555 1_555
C75 H32 1_555 1_555
C76 C75 1_555 1_555
C77 C76 1_555 1_555
H33 C77 1_555 1_555
N26 C74 1_555 1_555
N27 C77 1_555 1_555
C78 C76 1_555 1_555
N28_2 C74 1_555 1_555
O39 Sc4_2 1_555 1_555
O55 C78 1_555 1_555
O41 C78 1_555 1_555
Sc17 O41 1_555 1_555
C71_2 O39 1_555 1_555
C75 N26 1_555 1_555
N26 N27 1_555 1_555
O14_3 Sc3_3 1_555 1_555
Sc3_3 O1_7 1_555 1_555
O21_3 Sc4_3 1_555 1_555
Sc4_3 O1_7 1_555 1_555
C57 C58 1_555 1_555
C58 C59 1_555 1_555
C59 H25 1_555 1_555
C60 C59 1_555 1_555
C61 H26 1_555 1_555
C62 C61 1_555 1_555
C63 C62 1_555 1_555
H27 C63 1_555 1_555
N21 C60 1_555 1_555
N22 C63 1_555 1_555
C64 C62 1_555 1_555
N23 C60 1_555 1_555
O32 Sc3_3 1_555 1_555
O33 C64 1_555 1_555
O63 C64 1_555 1_555
O35 Sc17 1_555 1_555
Sc17 O33 1_555 1_555
C65 C58 1_555 1_555
H28 C65 1_555 1_555
C66 N23 1_555 1_555
C67 H29 1_555 1_555
C68 C67 1_555 1_555
C69 C68 1_555 1_555
H30 C69 1_555 1_555
N24 C66 1_555 1_555
N25 C69 1_555 1_555
C70 C68 1_555 1_555
O36 Sc4_3 1_555 1_555
O37 C70 1_555 1_555
O67 C70 1_555 1_555
O46 Sc29 1_555 1_555
Sc29 O37 1_555 1_555
O53 Sc17 1_555 1_555
O58 Sc29 1_555 1_555
C57 O32 1_555 1_555
C57 O36 1_555 1_555
C61 N21 1_555 1_555
N21 N22 1_555 1_555
C65 C66 1_555 1_555
C67 N24 1_555 1_555
N24 N25 1_555 1_555
C15 C16 1_555 1_555
C16 C17 1_555 1_555
C17 H7 1_555 1_555
C18 C17 1_555 1_555
C19 H8 1_555 1_555
C20 C19 1_555 1_555
C21 C20 1_555 1_555
H9 C21 1_555 1_555
N6 C18 1_555 1_555
N7 C21 1_555 1_555
C22 C20 1_555 1_555
N8 C18 1_555 1_555
O11 C15 1_555 1_555
O53 C22 1_555 1_555
O60 C22 1_555 1_555
O14_4 Sc3_4 1_555 1_555
Sc3_4 O1_8 1_555 1_555
C23 C16 1_555 1_555
H10 C23 1_555 1_555
C24 N8 1_555 1_555
C25 H11 1_555 1_555
C26 C25 1_555 1_555
C27 C26 1_555 1_555
H12 C27 1_555 1_555
N9 C24 1_555 1_555
N10 C27 1_555 1_555
C28 C26 1_555 1_555
O15 C15 1_555 1_555
O58 C28 1_555 1_555
O70 C28 1_555 1_555
O21_4 Sc4_4 1_555 1_555
Sc4_4 O1_8 1_555 1_555
C19 N6 1_555 1_555
N6 N7 1_555 1_555
O11 Sc3_4 1_555 1_555
C23 C24 1_555 1_555
C25 N9 1_555 1_555
N9 N10 1_555 1_555
O15 Sc4_4 1_555 1_555

#END
