
###############################################################################
#
# This file contains modified crystal structure data generated from the
# MOF subset of the Cambridge Structural Database (CSD) v543 
# hosted by the Cambridge Crystallographic Data Centre (CCDC).
#
# This work is licensed under the Creative Commons
# Attribution-NonCommercial-ShareAlike 4.0 International License.
# To view a copy of this license, visit
# http://creativecommons.org/licenses/by-nc-sa/4.0/
# or send a letter to
# Creative Commons, PO Box 1866, Mountain View, CA 94042, USA.
#
# CIF created using the CSD Python API on 29 September 2022
# The structure has been converted into the P1 space group
# The structure has a 3D framework
# The original CSD entry QIVGEK is in the triclinic crystal system
# The framework has been calculated to contain at least 10.0% void space
# The void calculation uses a probe of radius 1.32A, grid spacing 0.4
#
###############################################################################

data_QIVGEK
_chemical_formula_moiety         '(C96 H88 Co8 N8 O42)n'
_symmetry_cell_setting           triclinic
_symmetry_space_group_name_H-M   'P 1'
_symmetry_Int_Tables_number      1
_space_group_name_Hall           'P 1'
loop_
_symmetry_equiv_pos_site_id
_symmetry_equiv_pos_as_xyz
1 x,y,z
_cell_length_a                   11.887(5)
_cell_length_b                   12.930(6)
_cell_length_c                   21.037(9)
_cell_angle_alpha                103.317(5)
_cell_angle_beta                 97.498(6)
_cell_angle_gamma                90.347(5)
_cell_volume                     3117.33
loop_
_atom_site_label
_atom_site_type_symbol
_atom_site_fract_x
_atom_site_fract_y
_atom_site_fract_z
C3 C 0.1896(3) 0.0577(3) 0.13446(18)
C6 C 0.1372(4) 0.2916(3) 0.0839(2)
H3 H 0.1942 0.3035 0.1199
C8 C 0.0553(4) 0.3661(3) 0.0786(2)
C19 C 0.0170(3) 0.6251(3) 0.18942(18)
C22 C 0.1330(3) 0.1999(3) 0.03530(19)
C24 C 0.2656(3) 0.1056(3) 0.0951(2)
H16 H 0.2968 0.1739 0.1216
H17 H 0.3286 0.0595 0.0863
O6 O 0.0865(2) 0.0783(2) 0.12831(13)
O7 O 0.2394(2) 0.0037(2) 0.17171(14)
O8 O 0.0670(3) 0.4533(2) 0.13001(16)
O10 O 0.2085(3) 0.1203(2) 0.03422(13)
O13 O 0.0989(2) 0.6169(2) 0.23145(14)
H41 H 0.043(3) 0.282(4) 0.2403(16)
H42 H 0.003(4) 0.270(4) 0.1766(13)
Co9 Co 0.20777(4) 0.73390(4) 0.29385(2)
O27 O 0.1153(2) 0.1000(2) 0.27979(12)
Co4 Co 0.17017(4) 0.93967(4) 0.24024(2)
O15 O 0.1026(2) 0.85730(19) 0.30150(12)
H39 H 0.1091 0.8999 0.3469
O16 O 0.0030(2) 0.92758(19) 0.19536(12)
O22 O 0.3387(3) 0.6185(3) 0.27587(16)
H43 H 0.3736 0.6793 0.2885
H44 H 0.2952 0.6242 0.2414
Co5 Co 0.02576(4) 0.91613(4) 0.80100(2)
N6 N 0.1894(3) 0.6731(3) 0.37734(17)
O23 O 0.3267(2) 0.9697(2) 0.29589(14)
O24 O 0.3434(2) 0.8353(2) 0.34723(14)
O28 O 0.2271(2) 0.7807(2) 0.20017(13)
Co1 Co 0.97424(4) 0.08387(4) 0.19900(2)
C1 C 0.8849(3) 0.0725(3) 0.32439(17)
C2 C 0.8563(3) 0.0136(3) 0.51843(18)
H1 H 0.9279 0.0335 0.5420
C7 C 0.6463(3) 0.1241(3) 0.0371(2)
C10 C 0.8209(3) 0.0509(3) 0.46321(18)
C12 C 0.7125(3) 0.0228(3) 0.42809(19)
H7 H 0.6871 0.0495 0.3915
C15 C 0.8745(4) 0.1527(3) 0.38825(19)
H9 H 0.9255 0.2131 0.3916
H10 H 0.7978 0.1780 0.3860
C17 C 0.7570(3) 0.1213(3) 0.0216(2)
H12 H 0.4796 0.1510 0.0096
C20 C 0.7260(3) 0.0922(4) 0.1421(2)
H13 H 0.7146 0.0839 0.1835
H15 H 0.4853 0.0437 0.3860
C26 C 0.8445(3) 0.1029(3) 0.06746(19)
H18 H 0.9177 0.1009 0.0562
C28 C 0.9694(4) 0.3510(3) 0.0253(2)
H20 H 0.9143 0.4012 0.0226
C31 C 0.6320(3) 0.1087(4) 0.0989(2)
H21 H 0.5598 0.1094 0.1114
C33 C 0.9835(4) 0.5312(3) 0.1320(2)
H24 H 0.9111 0.5005 0.1364
H25 H 0.9750 0.5549 0.0912
N3 N 0.8310(3) 0.0879(3) 0.12682(15)
O1 O 0.8734(2) 0.1110(2) 0.27380(13)
O3 O 0.8987(2) 0.1148(2) 0.44629(13)
O14 O 0.9562(2) 0.7026(2) 0.18799(13)
O19 O 0.9884(3) 0.2542(3) 0.21163(16)
Co6 Co 0.93153(4) 0.84195(4) 0.25529(2)
Co14 Co 0.82983(4) 0.06033(4) 0.75976(2)
C11 C 0.8009(4) 0.3051(3) 0.9148(2)
H5 H 0.8321 0.3775 0.9256
H6 H 0.7496 0.2998 0.9463
C13 C 0.4372(3) 0.1531(3) 0.8855(2)
C14 C 0.5424(4) 0.1394(3) 0.9284(2)
H8 H 0.6094 0.1301 0.9097
H11 H 0.7718 0.1316 0.9811
C18 C 0.5474(4) 0.1396(4) 0.9918(2)
C21 C 0.9685(4) 0.2582(3) 0.97589(19)
C27 C 0.2427(3) 0.1960(4) 0.8682(2)
H19 H 0.1788 0.2232 0.8865
C30 C 0.7354(4) 0.2809(3) 0.8462(2)
C36 C 0.3304(4) 0.1304(4) 0.7790(2)
H28 H 0.3285 0.1096 0.7335
C37 C 0.4309(4) 0.1242(4) 0.8173(2)
H29 H 0.4949 0.1007 0.7979
C38 C 0.3392(4) 0.1908(4) 0.9102(2)
H30 H 0.3390 0.2126 0.9555
N1 N 0.2343(3) 0.1643(3) 0.80254(16)
O9 O 0.8905(2) 0.2344(2) 0.92032(13)
O18 O 0.7729(2) 0.2193(2) 0.79983(13)
O21 O 0.6482(3) 0.3333(3) 0.84147(17)
Co7 Co 0.06847(4) 0.15805(4) 0.74471(2)
Co11 Co 0.79223(4) 0.26610(4) 0.70615(2)
C4 C 0.3771(3) 0.9188(3) 0.33505(18)
C5 C 0.6789(3) 0.9146(4) 0.50433(19)
H2 H 0.6319 0.8680 0.5175
C16 C 0.6448(3) 0.9545(3) 0.44914(19)
C23 C 0.4926(3) 0.9686(3) 0.3672(2)
H14 H 0.5436 0.9619 0.3342
C25 C 0.8433(4) 0.8192(3) 0.6777(2)
C29 C 0.7849(3) 0.9464(3) 0.53880(18)
C32 C 0.7743(4) 0.8343(3) 0.6147(2)
H22 H 0.7700 0.7689 0.5806
H23 H 0.6978 0.8539 0.6224
C34 C 0.9054(4) 0.7923(3) 0.3864(2)
H26 H 0.9323 0.8627 0.4003
C35 C 0.8981(4) 0.7364(4) 0.4333(2)
H27 H 0.9225 0.7677 0.4775
C39 C 0.8326(4) 0.6536(4) 0.3041(2)
H31 H 0.8088 0.6243 0.2597
C40 C 0.8547(4) 0.6341(4) 0.4153(2)
C41 C 0.7522(4) 0.2876(4) 0.5626(2)
H32 H 0.7099 0.2243 0.5557
C42 C 0.7519(5) 0.3360(4) 0.5112(2)
H33 H 0.7097 0.3054 0.4707
C43 C 0.8104(5) 0.4812(4) 0.4633(3)
H34 H 0.7770 0.4438 0.4218
C44 C 0.8209(5) 0.5920(4) 0.3488(3)
H35 H 0.7906 0.5228 0.3342
C45 C 0.8516(5) 0.5747(4) 0.4687(3)
H36 H 0.8836 0.6105 0.5108
C46 C 0.8739(5) 0.4705(4) 0.5803(3)
H37 H 0.9161 0.5339 0.5878
C47 C 0.8719(4) 0.4172(4) 0.6306(2)
H38 H 0.9147 0.4455 0.6713
C48 C 0.8125(5) 0.4284(4) 0.5189(2)
N2 N 0.8766(3) 0.7532(3) 0.32159(16)
N4 N 0.8106(3) 0.3269(3) 0.62266(17)
O2 O 0.9028(2) 0.9783(2) 0.32589(13)
O4 O 0.5386(2) 0.9186(3) 0.41715(15)
O5 O 0.8306(2) 0.9167(3) 0.59507(14)
H40 H 0.9965 0.8861 0.1497
O17 O 0.8847(2) 0.9000(2) 0.72021(12)
O20 O 0.8567(4) 0.7260(3) 0.6834(2)
N5 N 0.7657(3) 0.8357(3) 0.19746(16)
C4_2 C 0.6229(3) 0.0812(3) 0.66495(18)
C5_2 C 0.3211(3) 0.0854(4) 0.49567(19)
H2_2 H 0.3681 0.1320 0.4825
C16_2 C 0.3552(3) 0.0455(3) 0.55086(19)
C23_2 C 0.5074(3) 0.0314(3) 0.6328(2)
H14_2 H 0.4564 0.0381 0.6658
C25_2 C 0.1567(4) 0.1808(3) 0.3223(2)
C29_2 C 0.2151(3) 0.0536(3) 0.46120(18)
C32_2 C 0.2257(4) 0.1657(3) 0.3853(2)
H22_2 H 0.2300 0.2311 0.4194
H23_2 H 0.3022 0.1461 0.3776
C34_2 C 0.0946(4) 0.2077(3) 0.6136(2)
H26_2 H 0.0677 0.1373 0.5997
C35_2 C 0.1019(4) 0.2636(4) 0.5667(2)
H27_2 H 0.0775 0.2323 0.5225
C39_2 C 0.1674(4) 0.3464(4) 0.6959(2)
H31_2 H 0.1912 0.3757 0.7403
C40_2 C 0.1453(4) 0.3659(4) 0.5847(2)
C41_2 C 0.2478(4) 0.7124(4) 0.4374(2)
H32_2 H 0.2901 0.7757 0.4443
C42_2 C 0.2481(5) 0.6640(4) 0.4888(2)
H33_2 H 0.2903 0.6946 0.5293
C43_2 C 0.1896(5) 0.5188(4) 0.5367(3)
H34_2 H 0.2230 0.5562 0.5782
C44_2 C 0.1791(5) 0.4080(4) 0.6512(3)
H35_2 H 0.2094 0.4772 0.6658
C45_2 C 0.1484(5) 0.4253(4) 0.5313(3)
H36_2 H 0.1164 0.3895 0.4892
C46_2 C 0.1261(5) 0.5295(4) 0.4197(3)
H37_2 H 0.0839 0.4661 0.4122
C47_2 C 0.1281(4) 0.5828(4) 0.3694(2)
H38_2 H 0.0853 0.5545 0.3287
C48_2 C 0.1875(5) 0.5716(4) 0.4811(2)
N2_2 N 0.1234(3) 0.2468(3) 0.67841(16)
O2_2 O 0.0972(2) 0.0217(2) 0.67411(13)
O4_2 O 0.4614(2) 0.0814(3) 0.58285(15)
O5_2 O 0.1694(2) 0.0833(3) 0.40493(14)
O11 O 0.6733(2) 0.0303(2) 0.70411(14)
O12 O 0.6566(2) 0.1647(2) 0.65277(14)
H40_2 H 0.0035 0.1139 0.8503
O20_2 O 0.1433(4) 0.2740(3) 0.3166(2)
O26 O 0.0438(2) 0.2974(2) 0.81201(13)
C11_2 C 0.1991(4) 0.6949(3) 0.0852(2)
H5_2 H 0.1679 0.6225 0.0744
H6_2 H 0.2504 0.7002 0.0537
C13_2 C 0.5628(3) 0.8469(3) 0.1145(2)
C14_2 C 0.4576(4) 0.8606(3) 0.0716(2)
H8_2 H 0.3906 0.8699 0.0903
H11_2 H 0.2282 0.8684 0.0189
C18_2 C 0.4526(4) 0.8604(4) 0.0082(2)
C21_2 C 0.0315(4) 0.7418(3) 0.02411(19)
C27_2 C 0.7573(3) 0.8040(4) 0.1318(2)
H19_2 H 0.8212 0.7768 0.1135
C30_2 C 0.2646(4) 0.7191(3) 0.1538(2)
C36_2 C 0.6696(4) 0.8696(4) 0.2210(2)
H28_2 H 0.6715 0.8904 0.2665
C37_2 C 0.5691(4) 0.8758(4) 0.1827(2)
H29_2 H 0.5051 0.8993 0.2021
C38_2 C 0.6608(4) 0.8092(4) 0.0898(2)
H30_2 H 0.6610 0.7874 0.0445
O9_2 O 0.1095(2) 0.7656(2) 0.07968(13)
O21_2 O 0.3518(3) 0.6667(3) 0.15853(17)
C1_2 C 0.1151(3) 0.9275(3) 0.67561(17)
C2_2 C 0.1437(3) 0.9864(3) 0.48157(18)
H1_2 H 0.0721 0.9665 0.4580
C7_2 C 0.3537(3) 0.8759(3) 0.9629(2)
C10_2 C 0.1791(3) 0.9491(3) 0.53679(18)
C12_2 C 0.2875(3) 0.9772(3) 0.57191(19)
H7_2 H 0.3129 0.9505 0.6085
C15_2 C 0.1255(4) 0.8473(3) 0.61175(19)
H9_2 H 0.0745 0.7869 0.6084
H10_2 H 0.2022 0.8220 0.6140
C17_2 C 0.2430(3) 0.8787(3) 0.9784(2)
H12_2 H 0.5204 0.8490 0.9904
C20_2 C 0.2740(3) 0.9078(4) 0.8579(2)
H13_2 H 0.2854 0.9161 0.8165
H15_2 H 0.5147 0.9563 0.6140
C26_2 C 0.1555(3) 0.8971(3) 0.93254(19)
H18_2 H 0.0823 0.8991 0.9438
C28_2 C 0.0306(4) 0.6490(3) 0.9747(2)
H20_2 H 0.0857 0.5988 0.9774
C31_2 C 0.3680(3) 0.8913(4) 0.9011(2)
H21_2 H 0.4402 0.8906 0.8886
C33_2 C 0.0165(4) 0.4688(3) 0.8680(2)
H24_2 H 0.0889 0.4995 0.8636
H25_2 H 0.0250 0.4451 0.9088
N3_2 N 0.1690(3) 0.9121(3) 0.87318(15)
O1_2 O 0.1266(2) 0.8890(2) 0.72620(13)
O3_2 O 0.1013(2) 0.8852(2) 0.55371(13)
O19_2 O 0.0116(3) 0.7458(3) 0.78837(16)
O15_2 O 0.8974(2) 0.14270(19) 0.69850(12)
H39_2 H 0.8909 0.1001 0.6531
O16_2 O 0.9970(2) 0.07242(19) 0.80464(12)
O22_2 O 0.6613(3) 0.3815(3) 0.72413(16)
H43_2 H 0.6264 0.3207 0.7115
H44_2 H 0.7048 0.3758 0.7586
O25 O 0.9011(2) 0.3831(2) 0.76855(14)
C3_2 C 0.8104(3) 0.9423(3) 0.86554(18)
C6_2 C 0.8628(4) 0.7084(3) 0.9161(2)
H3_2 H 0.8058 0.6965 0.8801
C8_2 C 0.9447(4) 0.6339(3) 0.9214(2)
C19_2 C 0.9830(3) 0.3749(3) 0.81058(18)
C22_2 C 0.8670(3) 0.8001(3) 0.96470(19)
C24_2 C 0.7344(3) 0.8944(3) 0.9049(2)
H16_2 H 0.7032 0.8261 0.8784
H17_2 H 0.6714 0.9405 0.9137
O6_2 O 0.9135(2) 0.9217(2) 0.87169(13)
O7_2 O 0.7606(2) 0.9963(2) 0.82829(14)
O8_2 O 0.9330(3) 0.5467(2) 0.86999(16)
O10_2 O 0.7915(3) 0.8797(2) 0.96578(13)
H41_2 H 0.957(3) 0.718(4) 0.7597(16)
H42_2 H 0.997(4) 0.730(4) 0.8234(13)
C9 C 0.0494(4) 0.1822(3) 0.98050(19)
H4 H 0.0479 0.1204 0.9474
C9_2 C 0.9506(4) 0.8178(3) 0.01950(19)
H4_2 H 0.9521 0.8796 0.0526
loop_
_geom_bond_atom_site_label_1
_geom_bond_atom_site_label_2
_geom_bond_site_symmetry_1
_geom_bond_site_symmetry_2
C3 C24 1_555 1_555
C6 H3 1_555 1_555
C8 C6 1_555 1_555
C22 C6 1_555 1_555
C24 H16 1_555 1_555
H17 C24 1_555 1_555
O7 C3 1_555 1_555
O8 C8 1_555 1_555
O10 C22 1_555 1_555
O13 C19 1_555 1_555
Co9 O13 1_555 1_555
C3 O6 1_555 1_555
C24 O10 1_555 1_555
Co9 O15 1_555 1_555
H39 O15 1_555 1_555
O22 Co9 1_555 1_555
H43 O22 1_555 1_555
H44 O22 1_555 1_555
N6 Co9 1_555 1_555
O23 Co4 1_555 1_555
O24 Co9 1_555 1_555
O28 Co9 1_555 1_555
Co4 O15 1_555 1_555
Co4 O16 1_555 1_555
Co4 O28 1_555 1_555
Co1 N3 1_555 1_555
C1 C15 1_555 1_555
C2 H1 1_555 1_555
C7 C17 1_555 1_555
C10 C2 1_555 1_555
C12 C10 1_555 1_555
H7 C12 1_555 1_555
C15 H9 1_555 1_555
H10 C15 1_555 1_555
C20 H13 1_555 1_555
C26 C17 1_555 1_555
H18 C26 1_555 1_555
H20 C28 1_555 1_555
C31 C7 1_555 1_555
H21 C31 1_555 1_555
C33 H24 1_555 1_555
H25 C33 1_555 1_555
N3 C20 1_555 1_555
O1 Co1 1_555 1_555
O3 C10 1_555 1_555
O19 Co1 1_555 1_555
Co6 O14 1_555 1_555
C1 O1 1_555 1_555
C15 O3 1_555 1_555
C20 C31 1_555 1_555
C26 N3 1_555 1_555
C11 H5 1_555 1_555
H6 C11 1_555 1_555
C13 C14 1_555 1_555
C14 H8 1_555 1_555
C27 H19 1_555 1_555
C30 C11 1_555 1_555
C36 H28 1_555 1_555
C37 C13 1_555 1_555
H29 C37 1_555 1_555
C38 C13 1_555 1_555
H30 C38 1_555 1_555
N1 C27 1_555 1_555
O9 C11 1_555 1_555
O18 C30 1_555 1_555
O21 C30 1_555 1_555
Co7 N1 1_555 1_555
Co11 O18 1_555 1_555
Co14 O18 1_555 1_555
C14 C18 1_555 1_555
C21 O9 1_555 1_555
C27 C38 1_555 1_555
C36 C37 1_555 1_555
C36 N1 1_555 1_555
Co6 N2 1_555 1_555
C4 C23 1_555 1_555
C5 H2 1_555 1_555
C16 C5 1_555 1_555
C23 H14 1_555 1_555
C25 C32 1_555 1_555
C32 H22 1_555 1_555
H23 C32 1_555 1_555
C34 H26 1_555 1_555
C35 C34 1_555 1_555
H27 C35 1_555 1_555
C39 H31 1_555 1_555
C40 C35 1_555 1_555
C41 H32 1_555 1_555
C42 C41 1_555 1_555
H33 C42 1_555 1_555
C43 H34 1_555 1_555
C44 C39 1_555 1_555
H35 C44 1_555 1_555
C45 C40 1_555 1_555
H36 C45 1_555 1_555
C46 H37 1_555 1_555
C47 C46 1_555 1_555
H38 C47 1_555 1_555
C48 C42 1_555 1_555
N2 C34 1_555 1_555
N4 C41 1_555 1_555
O2 Co6 1_555 1_555
O4 C16 1_555 1_555
O5 C29 1_555 1_555
O23 C4 1_555 1_555
O24 C4 1_555 1_555
O17 C25 1_555 1_555
O20 C25 1_555 1_555
Co11 N4 1_555 1_555
N5 Co6 1_555 1_555
C5 C29 1_555 1_555
C23 O4 1_555 1_555
C32 O5 1_555 1_555
C39 N2 1_555 1_555
C40 C44 1_555 1_555
C43 C45 1_555 1_555
C43 C48 1_555 1_555
C46 C48 1_555 1_555
C47 N4 1_555 1_555
Co7 N2_2 1_555 1_555
C4_2 C23_2 1_555 1_555
C5_2 H2_2 1_555 1_555
C16_2 C5_2 1_555 1_555
C23_2 H14_2 1_555 1_555
C25_2 C32_2 1_555 1_555
C32_2 H22_2 1_555 1_555
H23_2 C32_2 1_555 1_555
C34_2 H26_2 1_555 1_555
C35_2 C34_2 1_555 1_555
H27_2 C35_2 1_555 1_555
C39_2 H31_2 1_555 1_555
C40_2 C35_2 1_555 1_555
C41_2 H32_2 1_555 1_555
C42_2 C41_2 1_555 1_555
H33_2 C42_2 1_555 1_555
C43_2 H34_2 1_555 1_555
C44_2 C39_2 1_555 1_555
H35_2 C44_2 1_555 1_555
C45_2 C40_2 1_555 1_555
H36_2 C45_2 1_555 1_555
C46_2 H37_2 1_555 1_555
C47_2 C46_2 1_555 1_555
H38_2 C47_2 1_555 1_555
C48_2 C42_2 1_555 1_555
N2_2 C34_2 1_555 1_555
N6 C41_2 1_555 1_555
O2_2 Co7 1_555 1_555
O4_2 C16_2 1_555 1_555
O5_2 C29_2 1_555 1_555
O11 C4_2 1_555 1_555
O12 C4_2 1_555 1_555
O27 C25_2 1_555 1_555
O20_2 C25_2 1_555 1_555
Co11 O12 1_555 1_555
Co14 O11 1_555 1_555
O26 Co7 1_555 1_555
C5_2 C29_2 1_555 1_555
C23_2 O4_2 1_555 1_555
C32_2 O5_2 1_555 1_555
C39_2 N2_2 1_555 1_555
C40_2 C44_2 1_555 1_555
C43_2 C45_2 1_555 1_555
C43_2 C48_2 1_555 1_555
C46_2 C48_2 1_555 1_555
C47_2 N6 1_555 1_555
C11_2 H5_2 1_555 1_555
H6_2 C11_2 1_555 1_555
C13_2 C14_2 1_555 1_555
C14_2 H8_2 1_555 1_555
C27_2 H19_2 1_555 1_555
C30_2 C11_2 1_555 1_555
C36_2 H28_2 1_555 1_555
C37_2 C13_2 1_555 1_555
H29_2 C37_2 1_555 1_555
C38_2 C13_2 1_555 1_555
H30_2 C38_2 1_555 1_555
N5 C27_2 1_555 1_555
O9_2 C11_2 1_555 1_555
O28 C30_2 1_555 1_555
O21_2 C30_2 1_555 1_555
C14_2 C18_2 1_555 1_555
C21_2 O9_2 1_555 1_555
C27_2 C38_2 1_555 1_555
C36_2 C37_2 1_555 1_555
C36_2 N5 1_555 1_555
Co5 N3_2 1_555 1_555
C1_2 C15_2 1_555 1_555
C2_2 H1_2 1_555 1_555
C7_2 C17_2 1_555 1_555
C10_2 C2_2 1_555 1_555
C12_2 C10_2 1_555 1_555
H7_2 C12_2 1_555 1_555
C15_2 H9_2 1_555 1_555
H10_2 C15_2 1_555 1_555
C20_2 H13_2 1_555 1_555
C26_2 C17_2 1_555 1_555
H18_2 C26_2 1_555 1_555
H20_2 C28_2 1_555 1_555
C31_2 C7_2 1_555 1_555
H21_2 C31_2 1_555 1_555
C33_2 H24_2 1_555 1_555
H25_2 C33_2 1_555 1_555
N3_2 C20_2 1_555 1_555
O1_2 Co5 1_555 1_555
O3_2 C10_2 1_555 1_555
O19_2 Co5 1_555 1_555
C1_2 O1_2 1_555 1_555
C15_2 O3_2 1_555 1_555
C20_2 C31_2 1_555 1_555
C26_2 N3_2 1_555 1_555
Co11 O15_2 1_555 1_555
H39_2 O15_2 1_555 1_555
O22_2 Co11 1_555 1_555
H43_2 O22_2 1_555 1_555
H44_2 O22_2 1_555 1_555
O25 Co11 1_555 1_555
Co14 O15_2 1_555 1_555
Co14 O16_2 1_555 1_555
C3_2 C24_2 1_555 1_555
C6_2 H3_2 1_555 1_555
C8_2 C6_2 1_555 1_555
C22_2 C6_2 1_555 1_555
C24_2 H16_2 1_555 1_555
H17_2 C24_2 1_555 1_555
O7_2 C3_2 1_555 1_555
O8_2 C8_2 1_555 1_555
O10_2 C22_2 1_555 1_555
O25 C19_2 1_555 1_555
C3_2 O6_2 1_555 1_555
C24_2 O10_2 1_555 1_555
C9 H4 1_555 1_555
C9_2 H4_2 1_555 1_555

#END
