
###############################################################################
#
# This file contains modified crystal structure data generated from the
# MOF subset of the Cambridge Structural Database (CSD) v543 
# hosted by the Cambridge Crystallographic Data Centre (CCDC).
#
# This work is licensed under the Creative Commons
# Attribution-NonCommercial-ShareAlike 4.0 International License.
# To view a copy of this license, visit
# http://creativecommons.org/licenses/by-nc-sa/4.0/
# or send a letter to
# Creative Commons, PO Box 1866, Mountain View, CA 94042, USA.
#
# CIF created using the CSD Python API on 29 September 2022
# The structure has been converted into the P1 space group
# The structure has a 3D framework
# The original CSD entry QIVGAG is in the triclinic crystal system
# The framework has been calculated to contain at least 10.0% void space
# The void calculation uses a probe of radius 1.32A, grid spacing 0.4
# The framework is charged, counterions have been retained in the structure
#
###############################################################################

data_QIVGAG
_chemical_formula_moiety         '(C96 H88 Co8 N8 O42)n'
_symmetry_cell_setting           triclinic
_symmetry_space_group_name_H-M   'P 1'
_symmetry_Int_Tables_number      1
_space_group_name_Hall           'P 1'
loop_
_symmetry_equiv_pos_site_id
_symmetry_equiv_pos_as_xyz
1 x,y,z
_cell_length_a                   11.7241(15)
_cell_length_b                   14.677(2)
_cell_length_c                   19.290(3)
_cell_angle_alpha                79.327(2)
_cell_angle_beta                 82.002(2)
_cell_angle_gamma                68.331(2)
_cell_volume                     3022.27
loop_
_atom_site_label
_atom_site_type_symbol
_atom_site_fract_x
_atom_site_fract_y
_atom_site_fract_z
O5 O 0.0467(3) 0.9468(2) 0.25438(18)
Co5 Co 0.23910(6) 0.85785(5) 0.24088(3)
Co11 Co 0.12553(6) 0.69798(5) 0.28438(3)
C2 C 0.4325(5) 0.0240(4) 0.3094(3)
H2 H 0.4983 0.0440 0.2904
C3 C 0.3783(5) 0.0432(4) 0.3765(3)
C4 C 0.4206(5) 0.0920(4) 0.4220(3)
H3 H 0.3724 0.1066 0.4639
C5 C 0.2781(5) 0.0147(4) 0.4000(3)
H4 H 0.2368 0.0280 0.4439
C7 C 0.5162(6) 0.2494(5) 0.5596(3)
H6 H 0.4658 0.2687 0.6000
C8 C 0.4810(6) 0.1981(5) 0.5190(3)
H7 H 0.4105 0.1823 0.5326
C9 C 0.5522(5) 0.1704(4) 0.4573(3)
C10 C 0.5186(5) 0.1176(4) 0.4106(3)
H8 H 0.5703 0.1010 0.3701
C11 C 0.6567(5) 0.1942(4) 0.4425(3)
H9 H 0.7085 0.1762 0.4024
C12 C 0.6848(5) 0.2447(4) 0.4874(3)
H10 H 0.7561 0.2598 0.4759
H14 H 0.6998 0.0554 0.1520
H16 H 0.8231 0.0270 0.3101
H17 H 0.8236 0.0404 0.2276
N2 N 0.6161(4) 0.2734(3) 0.5460(2)
O3 O 0.6521(5) 0.0348(3) 0.03599(18)
Co8 Co 0.65955(6) 0.34845(5) 0.61675(3)
C22 C 0.6945(5) 0.0834(4) 0.9127(2)
C23 C 0.6771(6) 0.0017(4) 0.9688(2)
O1 O 0.7354(3) 0.0574(2) 0.85298(16)
O2 O 0.6689(4) 0.1667(3) 0.93061(17)
Co6 Co 0.76090(6) 0.14215(5) 0.75912(3)
Co10 Co 0.64443(6) 0.30108(5) 0.86464(3)
Co2 Co 0.34045(6) 0.65155(5) 0.38325(3)
Co3 Co 0.35557(6) 0.69892(5) 0.13536(3)
C1 C 0.3890(5) 0.9755(4) 0.2711(3)
H1 H 0.4275 0.9630 0.2265
C6 C 0.2394(5) 0.9662(4) 0.3579(3)
H5 H 0.1719 0.9475 0.3750
C13 C 0.5093(4) 0.6946(3) 0.2553(2)
C14 C 0.6437(4) 0.6608(4) 0.2245(3)
H11 H 0.6953 0.6632 0.2589
H12 H 0.6689 0.5925 0.2167
C15 C 0.6729(4) 0.8105(4) 0.1619(2)
C16 C 0.6978(4) 0.8365(4) 0.2225(3)
H13 H 0.7059 0.7942 0.2653
C17 C 0.7101(4) 0.9279(4) 0.2161(2)
C18 C 0.6941(5) 0.9934(4) 0.1544(3)
C19 C 0.6691(6) 0.9640(4) 0.0953(3)
C20 C 0.6591(5) 0.8727(4) 0.0983(3)
H15 H 0.6434 0.8536 0.0583
C21 C 0.8316(5) 0.9925(4) 0.2703(3)
C24 C 0.9586(5) 0.9132(4) 0.2669(2)
C26 C 0.3862(5) 0.5318(3) 0.2616(3)
C27 C 0.4756(6) 0.4298(4) 0.2898(3)
H20 H 0.4899 0.3854 0.2555
H21 H 0.5537 0.4356 0.2949
C28 C 0.3357(7) 0.3579(4) 0.3547(3)
C29 C 0.2535(9) 0.3662(5) 0.4146(3)
H22 H 0.2627 0.3948 0.4517
C30 C 0.3185(6) 0.3177(4) 0.2979(3)
H23 H 0.3729 0.3125 0.2576
C31 C 0.2196(7) 0.2857(4) 0.3026(3)
C32 C 0.1396(7) 0.2919(5) 0.3642(3)
H24 H 0.0743 0.2692 0.3685
C33 C 0.1600(8) 0.3323(5) 0.4182(4)
C34 C 0.0532(6) 0.5321(4) 0.2514(3)
H25 H 0.0897 0.4989 0.2931
C35 C 0.0107(7) 0.4816(5) 0.2145(4)
H26 H 0.0176 0.4162 0.2311
C40 C 0.2637(6) 0.2507(5) 0.1840(3)
H30 H 0.3463 0.2023 0.1882
H31 H 0.2701 0.3158 0.1707
C41 C 0.2032(7) 0.2289(5) 0.1255(4)
H37 H 0.453(4) 0.467(2) 0.418(3)
H38 H 0.580(4) 0.674(3) 0.097(2)
H39 H 0.5400(15) 0.505(3) 0.423(3)
H40 H 0.518(5) 0.688(3) 0.0420(13)
N1 N 0.2930(4) 0.9449(3) 0.2947(2)
N3 N 0.0455(4) 0.6269(3) 0.2309(2)
O4 O 0.4284(3) 0.7575(2) 0.21686(16)
O6 O 0.9664(3) 0.8255(3) 0.27719(18)
O7 O 0.1964(3) 0.7599(2) 0.19101(15)
H41 H 0.1309 0.7968 0.1592
O8 O 0.4935(3) 0.6526(2) 0.31611(16)
O9 O 0.2114(3) 0.7678(2) 0.33377(15)
H42 H 0.1534 0.8075 0.3679
O12 O 0.4637(4) 0.5144(3) 0.43138(19)
O13 O 0.2955(3) 0.5755(2) 0.30268(16)
O14 O 0.4131(3) 0.5640(2) 0.20034(16)
O15 O 0.5322(4) 0.6520(3) 0.08225(19)
O16 O 0.6638(3) 0.7193(2) 0.15984(16)
O17 O 0.7343(3) 0.9535(3) 0.27766(17)
O18 O 0.4331(5) 0.3878(3) 0.35572(19)
O19 O 0.0954(6) 0.3405(4) 0.4854(3)
O20 O 0.1938(4) 0.2470(3) 0.2507(2)
O21 O 0.1041(5) 0.2157(4) 0.1411(3)
O22 O 0.2641(5) 0.2292(4) 0.0661(2)
N5 N 0.3839(4) 0.7266(3) 0.4540(2)
N6 N 0.2874(4) 0.6377(3) 0.0650(2)
O23 O 0.2646(3) 0.9426(2) 0.14702(16)
O24 O 0.3311(4) 0.8333(3) 0.06939(17)
O27 O 0.2070(4) 0.6169(3) 0.45414(17)
O28 O 0.0525(3) 0.6483(3) 0.3867(2)
C25 C 0.9010(5) 0.3693(4) 0.5555(3)
C36 C 0.9571(6) 0.5295(5) 0.1518(4)
C37 C 0.9485(5) 0.6274(5) 0.1297(3)
H27 H 0.9136 0.6618 0.0877
C38 C 0.9931(5) 0.6728(5) 0.1713(3)
H28 H 0.9858 0.7386 0.1566
C39 C 0.9129(7) 0.4728(6) 0.1116(4)
H29 H 0.9299 0.4057 0.1277
C45 C 0.8313(7) 0.3520(6) 0.0292(4)
H35 H 0.8795 0.3125 0.0655
C46 C 0.8068(6) 0.4534(5) 0.0167(4)
C47 C 0.8542(7) 0.5101(6) 0.0576(4)
H36 H 0.8384 0.5770 0.0413
O10 O 0.7930(4) 0.3831(3) 0.54586(17)
O11 O 0.9475(3) 0.3517(3) 0.6133(2)
C48 C 0.9812(7) 0.3651(8) 0.4783(5)
H43 H 0.9687 0.3177 0.4541
H44 H 0.9521 0.4297 0.4495
Co12 Co 0.87447(6) 0.30202(5) 0.71562(3)
C42 C 0.7384(7) 0.5056(6) 0.9630(4)
H32 H 0.7220 0.5734 0.9518
C43 C 0.6923(7) 0.4588(5) 0.9241(3)
H33 H 0.6436 0.4976 0.8878
C44 C 0.7831(7) 0.3096(5) 0.9868(3)
H34 H 0.8014 0.2414 0.9953
N4 N 0.7126(4) 0.3623(3) 0.9350(2)
C42_2 C 0.2616(7) 0.4944(6) 0.0370(4)
H32_2 H 0.2780 0.4266 0.0482
C43_2 C 0.3077(7) 0.5412(5) 0.0759(3)
H33_2 H 0.3564 0.5024 0.1122
C44_2 C 0.2169(7) 0.6904(5) 0.0132(3)
H34_2 H 0.1986 0.7586 0.0047
C25_2 C 0.0990(5) 0.6307(4) 0.4445(3)
C36_2 C 0.0429(6) 0.4705(5) 0.8482(4)
C37_2 C 0.0515(5) 0.3726(5) 0.8703(3)
H27_2 H 0.0864 0.3382 0.9123
C38_2 C 0.0069(5) 0.3272(5) 0.8287(3)
H28_2 H 0.0142 0.2614 0.8434
C39_2 C 0.0871(7) 0.5272(6) 0.8884(4)
H29_2 H 0.0701 0.5943 0.8723
C45_2 C 0.1687(7) 0.6480(6) 0.9708(4)
H35_2 H 0.1205 0.6875 0.9345
C46_2 C 0.1932(6) 0.5466(5) 0.9833(4)
C47_2 C 0.1458(7) 0.4899(6) 0.9424(4)
H36_2 H 0.1616 0.4230 0.9587
C48_2 C 0.0188(7) 0.6349(8) 0.5217(5)
H43_2 H 0.0313 0.6823 0.5459
H44_2 H 0.0479 0.5703 0.5505
O26 O 0.0336(3) 0.1745(3) 0.72281(18)
C1_2 C 0.6110(5) 0.0245(4) 0.7289(3)
H1_2 H 0.5725 0.0370 0.7735
C6_2 C 0.7606(5) 0.0338(4) 0.6421(3)
H5_2 H 0.8281 0.0525 0.6250
C13_2 C 0.4907(4) 0.3054(3) 0.7447(2)
C14_2 C 0.3563(4) 0.3392(4) 0.7755(3)
H11_2 H 0.3047 0.3368 0.7411
H12_2 H 0.3311 0.4075 0.7833
C15_2 C 0.3271(4) 0.1895(4) 0.8381(2)
C16_2 C 0.3022(4) 0.1635(4) 0.7775(3)
H13_2 H 0.2941 0.2058 0.7347
C17_2 C 0.2899(4) 0.0721(4) 0.7839(2)
C18_2 C 0.3059(5) 0.0066(4) 0.8456(3)
C19_2 C 0.3309(6) 0.0360(4) 0.9047(3)
C20_2 C 0.3409(5) 0.1273(4) 0.9017(3)
H15_2 H 0.3566 0.1464 0.9417
C21_2 C 0.1684(5) 0.0075(4) 0.7297(3)
C24_2 C 0.0414(5) 0.0868(4) 0.7331(2)
C26_2 C 0.6138(5) 0.4682(3) 0.7384(3)
C27_2 C 0.5244(6) 0.5702(4) 0.7102(3)
H20_2 H 0.5101 0.6146 0.7445
H21_2 H 0.4463 0.5644 0.7051
C28_2 C 0.6643(7) 0.6421(4) 0.6453(3)
C29_2 C 0.7465(9) 0.6338(5) 0.5854(3)
H22_2 H 0.7373 0.6052 0.5483
C30_2 C 0.6815(6) 0.6823(4) 0.7021(3)
H23_2 H 0.6271 0.6875 0.7424
C31_2 C 0.7804(7) 0.7143(4) 0.6974(3)
C32_2 C 0.8604(7) 0.7081(5) 0.6358(3)
H24_2 H 0.9257 0.7308 0.6315
C33_2 C 0.8400(8) 0.6677(5) 0.5818(4)
C34_2 C 0.9468(6) 0.4679(4) 0.7486(3)
H25_2 H 0.9103 0.5011 0.7069
C35_2 C 0.9893(7) 0.5184(5) 0.7855(4)
H26_2 H 0.9824 0.5838 0.7689
C40_2 C 0.7363(6) 0.7493(5) 0.8160(3)
H30_2 H 0.6537 0.7977 0.8118
H31_2 H 0.7299 0.6842 0.8293
C41_2 C 0.7968(7) 0.7711(5) 0.8745(4)
H37_2 H 0.547(4) 0.533(2) 0.582(3)
H38_2 H 0.420(4) 0.326(3) 0.903(2)
H39_2 H 0.4600(15) 0.495(3) 0.577(3)
H40_2 H 0.482(5) 0.312(3) 0.9580(13)
N1_2 N 0.7070(4) 0.0551(3) 0.7053(2)
N3_2 N 0.9545(4) 0.3731(3) 0.7691(2)
O4_2 O 0.5716(3) 0.2425(2) 0.78314(16)
O7_2 O 0.8036(3) 0.2401(2) 0.80899(15)
H41_2 H 0.8691 0.2032 0.8408
O8_2 O 0.5065(3) 0.3474(2) 0.68389(16)
O9_2 O 0.7886(3) 0.2322(2) 0.66623(15)
H42_2 H 0.8466 0.1925 0.6321
O12_2 O 0.5363(4) 0.4856(3) 0.56862(19)
O13_2 O 0.7045(3) 0.4245(2) 0.69732(16)
O14_2 O 0.5869(3) 0.4360(2) 0.79966(16)
O15_2 O 0.4678(4) 0.3480(3) 0.91775(19)
O16_2 O 0.3362(3) 0.2807(2) 0.84016(16)
O17_2 O 0.2657(3) 0.0465(3) 0.72234(17)
O18_2 O 0.5669(5) 0.6122(3) 0.64428(19)
O19_2 O 0.9046(6) 0.6595(4) 0.5146(3)
O20_2 O 0.8062(4) 0.7530(3) 0.7493(2)
O21_2 O 0.8959(5) 0.7843(4) 0.8589(3)
O22_2 O 0.7359(5) 0.7708(4) 0.9339(2)
O25 O 0.9533(3) 0.0532(2) 0.74562(18)
C22_2 C 0.3055(5) 0.9166(4) 0.0873(2)
C23_2 C 0.3229(6) 0.9983(4) 0.0312(2)
C2_2 C 0.5675(5) 0.9760(4) 0.6906(3)
H2_2 H 0.5017 0.9560 0.7096
C3_2 C 0.6217(5) 0.9568(4) 0.6235(3)
C4_2 C 0.5794(5) 0.9080(4) 0.5780(3)
H3_2 H 0.6276 0.8934 0.5361
C5_2 C 0.7219(5) 0.9853(4) 0.6000(3)
H4_2 H 0.7632 0.9720 0.5561
C7_2 C 0.4838(6) 0.7506(5) 0.4404(3)
H6_2 H 0.5342 0.7313 0.4000
C8_2 C 0.5190(6) 0.8019(5) 0.4810(3)
H7_2 H 0.5895 0.8177 0.4674
C9_2 C 0.4478(5) 0.8296(4) 0.5427(3)
C10_2 C 0.4814(5) 0.8824(4) 0.5894(3)
H8_2 H 0.4297 0.8990 0.6299
C11_2 C 0.3433(5) 0.8058(4) 0.5575(3)
H9_2 H 0.2915 0.8238 0.5976
C12_2 C 0.3152(5) 0.7553(4) 0.5126(3)
H10_2 H 0.2439 0.7402 0.5241
H14_2 H 0.3002 0.9446 0.8480
H16_2 H 0.1769 0.9730 0.6899
H17_2 H 0.1764 0.9596 0.7724
O3_2 O 0.3479(5) 0.9652(3) 0.96401(18)
H18 H 0.7510 0.9430 0.9690
H19 H 0.6092 0.9849 0.9586
H18_2 H 0.2490 0.0570 0.0310
H19_2 H 0.3908 0.0151 0.0414
loop_
_geom_bond_atom_site_label_1
_geom_bond_atom_site_label_2
_geom_bond_site_symmetry_1
_geom_bond_site_symmetry_2
Co5 O5 1_555 1_555
Co5 Co11 1_555 1_555
H2 C2 1_555 1_555
C3 C2 1_555 1_555
C4 C3 1_555 1_555
H3 C4 1_555 1_555
C5 C3 1_555 1_555
H4 C5 1_555 1_555
C7 H6 1_555 1_555
C8 C7 1_555 1_555
H7 C8 1_555 1_555
C9 C8 1_555 1_555
C10 C4 1_555 1_555
H8 C10 1_555 1_555
C11 C9 1_555 1_555
H9 C11 1_555 1_555
C12 C11 1_555 1_555
H10 C12 1_555 1_555
N2 C7 1_555 1_555
Co8 N2 1_555 1_555
C9 C10 1_555 1_555
C12 N2 1_555 1_555
C22 C23 1_555 1_555
O1 C22 1_555 1_555
O2 C22 1_555 1_555
Co6 O1 1_555 1_555
Co10 O2 1_555 1_555
Co2 O8 1_555 1_555
Co3 O4 1_555 1_555
Co11 N3 1_555 1_555
C1 H1 1_555 1_555
H5 C6 1_555 1_555
C13 C14 1_555 1_555
C14 H11 1_555 1_555
H12 C14 1_555 1_555
C15 C16 1_555 1_555
C16 H13 1_555 1_555
C17 C16 1_555 1_555
C18 C17 1_555 1_555
C19 C18 1_555 1_555
C20 C15 1_555 1_555
H15 C20 1_555 1_555
C24 C21 1_555 1_555
C26 C27 1_555 1_555
C27 H20 1_555 1_555
H21 C27 1_555 1_555
C28 C29 1_555 1_555
C29 H22 1_555 1_555
C30 C28 1_555 1_555
H23 C30 1_555 1_555
C31 C30 1_555 1_555
C32 C31 1_555 1_555
H24 C32 1_555 1_555
C33 C29 1_555 1_555
C34 H25 1_555 1_555
C35 C34 1_555 1_555
H26 C35 1_555 1_555
C40 H30 1_555 1_555
H31 C40 1_555 1_555
C41 C40 1_555 1_555
H37 O12 1_555 1_555
H38 O15 1_555 1_555
H39 O12 1_555 1_555
H40 O15 1_555 1_555
N1 Co5 1_555 1_555
N3 C34 1_555 1_555
O4 Co5 1_555 1_555
O6 C24 1_555 1_555
O7 Co5 1_555 1_555
H41 O7 1_555 1_555
O8 C13 1_555 1_555
O9 Co5 1_555 1_555
H42 O9 1_555 1_555
O12 Co2 1_555 1_555
O13 Co2 1_555 1_555
O14 Co3 1_555 1_555
O15 Co3 1_555 1_555
O16 C14 1_555 1_555
O17 C17 1_555 1_555
O18 C27 1_555 1_555
O19 C33 1_555 1_555
O20 C31 1_555 1_555
O21 C41 1_555 1_555
O22 C41 1_555 1_555
N5 Co2 1_555 1_555
N6 Co3 1_555 1_555
O23 Co5 1_555 1_555
O24 Co3 1_555 1_555
O27 Co2 1_555 1_555
O28 Co11 1_555 1_555
Co2 O9 1_555 1_555
Co3 O7 1_555 1_555
Co11 O7 1_555 1_555
Co11 O9 1_555 1_555
Co11 O13 1_555 1_555
C1 N1 1_555 1_555
C6 N1 1_555 1_555
C13 O4 1_555 1_555
C15 O16 1_555 1_555
C19 C20 1_555 1_555
C21 O17 1_555 1_555
C26 O13 1_555 1_555
C26 O14 1_555 1_555
C28 O18 1_555 1_555
C32 C33 1_555 1_555
C40 O20 1_555 1_555
C25 O10 1_555 1_555
C37 C36 1_555 1_555
H27 C37 1_555 1_555
C38 C37 1_555 1_555
H28 C38 1_555 1_555
C39 C36 1_555 1_555
H29 C39 1_555 1_555
H35 C45 1_555 1_555
C47 C39 1_555 1_555
H36 C47 1_555 1_555
O10 Co8 1_555 1_555
O11 C25 1_555 1_555
C48 C25 1_555 1_555
H43 C48 1_555 1_555
H44 C48 1_555 1_555
Co12 O11 1_555 1_555
C45 C46 1_555 1_555
C46 C47 1_555 1_555
C42 H32 1_555 1_555
C43 C42 1_555 1_555
H33 C43 1_555 1_555
C44 H34 1_555 1_555
N4 C43 1_555 1_555
Co10 N4 1_555 1_555
C44 N4 1_555 1_555
C42_2 H32_2 1_555 1_555
C43_2 C42_2 1_555 1_555
H33_2 C43_2 1_555 1_555
C44_2 H34_2 1_555 1_555
N6 C43_2 1_555 1_555
C44_2 N6 1_555 1_555
C25_2 O27 1_555 1_555
C37_2 C36_2 1_555 1_555
H27_2 C37_2 1_555 1_555
C38_2 C37_2 1_555 1_555
H28_2 C38_2 1_555 1_555
C39_2 C36_2 1_555 1_555
H29_2 C39_2 1_555 1_555
H35_2 C45_2 1_555 1_555
C47_2 C39_2 1_555 1_555
H36_2 C47_2 1_555 1_555
O28 C25_2 1_555 1_555
C48_2 C25_2 1_555 1_555
H43_2 C48_2 1_555 1_555
H44_2 C48_2 1_555 1_555
C45_2 C46_2 1_555 1_555
C46_2 C47_2 1_555 1_555
Co6 Co12 1_555 1_555
Co8 O8_2 1_555 1_555
Co10 O4_2 1_555 1_555
Co12 N3_2 1_555 1_555
C1_2 H1_2 1_555 1_555
H5_2 C6_2 1_555 1_555
C13_2 C14_2 1_555 1_555
C14_2 H11_2 1_555 1_555
H12_2 C14_2 1_555 1_555
C15_2 C16_2 1_555 1_555
C16_2 H13_2 1_555 1_555
C17_2 C16_2 1_555 1_555
C18_2 C17_2 1_555 1_555
C19_2 C18_2 1_555 1_555
C20_2 C15_2 1_555 1_555
H15_2 C20_2 1_555 1_555
C24_2 C21_2 1_555 1_555
C26_2 C27_2 1_555 1_555
C27_2 H20_2 1_555 1_555
H21_2 C27_2 1_555 1_555
C28_2 C29_2 1_555 1_555
C29_2 H22_2 1_555 1_555
C30_2 C28_2 1_555 1_555
H23_2 C30_2 1_555 1_555
C31_2 C30_2 1_555 1_555
C32_2 C31_2 1_555 1_555
H24_2 C32_2 1_555 1_555
C33_2 C29_2 1_555 1_555
C34_2 H25_2 1_555 1_555
C35_2 C34_2 1_555 1_555
H26_2 C35_2 1_555 1_555
C40_2 H30_2 1_555 1_555
H31_2 C40_2 1_555 1_555
C41_2 C40_2 1_555 1_555
H37_2 O12_2 1_555 1_555
H38_2 O15_2 1_555 1_555
H39_2 O12_2 1_555 1_555
H40_2 O15_2 1_555 1_555
N1_2 Co6 1_555 1_555
N3_2 C34_2 1_555 1_555
O4_2 Co6 1_555 1_555
O26 C24_2 1_555 1_555
O7_2 Co6 1_555 1_555
H41_2 O7_2 1_555 1_555
O8_2 C13_2 1_555 1_555
O9_2 Co6 1_555 1_555
H42_2 O9_2 1_555 1_555
O12_2 Co8 1_555 1_555
O13_2 Co8 1_555 1_555
O14_2 Co10 1_555 1_555
O15_2 Co10 1_555 1_555
O16_2 C14_2 1_555 1_555
O17_2 C17_2 1_555 1_555
O18_2 C27_2 1_555 1_555
O19_2 C33_2 1_555 1_555
O20_2 C31_2 1_555 1_555
O21_2 C41_2 1_555 1_555
O22_2 C41_2 1_555 1_555
O25 Co6 1_555 1_555
Co8 O9_2 1_555 1_555
Co10 O7_2 1_555 1_555
Co12 O7_2 1_555 1_555
Co12 O9_2 1_555 1_555
Co12 O13_2 1_555 1_555
C1_2 N1_2 1_555 1_555
C6_2 N1_2 1_555 1_555
C13_2 O4_2 1_555 1_555
C15_2 O16_2 1_555 1_555
C19_2 C20_2 1_555 1_555
C21_2 O17_2 1_555 1_555
C26_2 O13_2 1_555 1_555
C26_2 O14_2 1_555 1_555
C28_2 O18_2 1_555 1_555
C32_2 C33_2 1_555 1_555
C40_2 O20_2 1_555 1_555
C22_2 C23_2 1_555 1_555
O23 C22_2 1_555 1_555
O24 C22_2 1_555 1_555
H2_2 C2_2 1_555 1_555
C3_2 C2_2 1_555 1_555
C4_2 C3_2 1_555 1_555
H3_2 C4_2 1_555 1_555
C5_2 C3_2 1_555 1_555
H4_2 C5_2 1_555 1_555
C7_2 H6_2 1_555 1_555
C8_2 C7_2 1_555 1_555
H7_2 C8_2 1_555 1_555
C9_2 C8_2 1_555 1_555
C10_2 C4_2 1_555 1_555
H8_2 C10_2 1_555 1_555
C11_2 C9_2 1_555 1_555
H9_2 C11_2 1_555 1_555
C12_2 C11_2 1_555 1_555
H10_2 C12_2 1_555 1_555
N5 C7_2 1_555 1_555
C9_2 C10_2 1_555 1_555
C12_2 N5 1_555 1_555

#END
