
###############################################################################
#
# This file contains modified crystal structure data generated from the
# MOF subset of the Cambridge Structural Database (CSD) v543 
# hosted by the Cambridge Crystallographic Data Centre (CCDC).
#
# This work is licensed under the Creative Commons
# Attribution-NonCommercial-ShareAlike 4.0 International License.
# To view a copy of this license, visit
# http://creativecommons.org/licenses/by-nc-sa/4.0/
# or send a letter to
# Creative Commons, PO Box 1866, Mountain View, CA 94042, USA.
#
# CIF created using the CSD Python API on 29 September 2022
# The structure has been converted into the P1 space group
# The structure has a 3D framework
# The original CSD entry QIVTOH is in the triclinic crystal system
# The framework has been calculated to contain at least 10.0% void space
# The void calculation uses a probe of radius 1.32A, grid spacing 0.4
# H atom positions have been added when not included in the experimental data
#
###############################################################################

data_QIVTOH
_chemical_formula_moiety         '(C76 H58 N16 Ni2 O12 Tc2 2-)n'
_symmetry_cell_setting           triclinic
_symmetry_space_group_name_H-M   'P 1'
_symmetry_Int_Tables_number      1
_space_group_name_Hall           'P 1'
loop_
_symmetry_equiv_pos_site_id
_symmetry_equiv_pos_as_xyz
1 x,y,z
_cell_length_a                   14.665(2)
_cell_length_b                   16.116(3)
_cell_length_c                   16.329(3)
_cell_angle_alpha                106.100(5)
_cell_angle_beta                 109.903(5)
_cell_angle_gamma                109.451(5)
_cell_volume                     3071.51
loop_
_atom_site_label
_atom_site_type_symbol
_atom_site_fract_x
_atom_site_fract_y
_atom_site_fract_z
Ni8 Ni 0.07633(2) 0.89089(2) 0.91340(2)
N2 N 0.01045(16) 0.21815(15) 0.38249(14)
N3 N 0.20127(16) 0.02845(13) 0.95403(14)
N4 N 0.28637(16) 0.15835(14) 0.93602(15)
N5 N 0.18674(16) 0.84144(14) 0.96639(14)
N6 N 0.94423(17) 0.75435(14) 0.86724(16)
N7 N 0.26802(17) 0.74894(15) 0.96755(15)
C1 C 0.33731(17) 0.36516(15) 0.82260(15)
C2 C 0.33393(17) 0.52578(16) 0.83890(16)
N8 N 0.78299(17) 0.63749(15) 0.82642(18)
C3 C 0.25749(18) 0.38464(16) 0.67505(16)
C4 C 0.34953(17) 0.44216(15) 0.78255(15)
C6 C 0.46443(18) 0.49145(15) 0.79110(16)
C7 C 0.30308(19) 0.22617(16) 0.89509(17)
C8 C 0.02904(19) 0.20156(17) 0.30596(17)
H1 H 0.0987 0.2228 0.3107
C9 C 0.1924(2) 0.07573(16) 0.90002(18)
H2 H 0.1287 0.0545 0.8436
C10 C 0.09322(19) 0.27322(18) 0.48302(16)
C11 C 0.2173(2) 0.24424(18) 0.85103(19)
H3 H 0.1489 0.2111 0.8463
C12 C 0.85306(19) 0.73298(17) 0.87070(19)
H4 H 0.8376 0.7803 0.9015
C13 C 0.3133(2) 0.53225(18) 0.91664(18)
H5 H 0.3115 0.4849 0.9390
C14 C 0.2352(2) 0.31200(18) 0.81458(19)
H6 H 0.1771 0.3227 0.7835
C15 C 0.20868(19) 0.78086(17) 0.91430(18)
H7 H 0.1860 0.7622 0.8485
C16 C 0.29776(19) 0.67749(17) 0.92884(17)
C17 C 0.6750(2) 0.59002(17) 0.81550(19)
C18 C 0.2955(2) 0.6064(2) 0.96185(19)
C19 C 0.5556(2) 0.54721(19) 0.88273(18)
H9 H 0.5457 0.5522 0.9369
C21 C 0.4192(2) 0.34195(18) 0.86202(19)
H11 H 0.4868 0.3732 0.8646
C22 C 0.3448(2) 0.60307(17) 0.81269(18)
H12 H 0.3646 0.6040 0.7644
C23 C 0.3267(2) 0.67796(18) 0.85723(19)
H13 H 0.3341 0.7285 0.8388
C24 C 0.1697(2) 0.4039(2) 0.63978(19)
H14 H 0.1659 0.4543 0.6808
C26 C 0.4814(2) 0.4884(2) 0.7114(2)
H16 H 0.4216 0.4526 0.6492
C27 C 0.6612(2) 0.59581(19) 0.8958(2)
H17 H 0.7215 0.6316 0.9578
C28 C 0.4022(2) 0.2724(2) 0.8980(2)
H18 H 0.4581 0.2573 0.9241
C29 C 0.0877(2) 0.3479(2) 0.54338(19)
H19 H 0.0295 0.3611 0.5199
C30 C 0.1770(2) 0.2517(2) 0.51653(19)
H20 H 0.1793 0.2004 0.4752
C31 C 0.2584(2) 0.30656(19) 0.61238(18)
H21 H 0.3148 0.2910 0.6353
C32 C 0.5864(2) 0.5383(3) 0.7238(2)
H22 H 0.5966 0.5367 0.6703
C37 C 0.9268(3) 0.6652(2) 0.8062(3)
H27 H 0.9764 0.6562 0.7862
C38 C 0.8275(3) 0.5929(2) 0.7798(3)
H28 H 0.7961 0.5268 0.7386
O4 O 0.03418(13) 0.05292(11) 0.12247(11)
N22 N 0.05577(17) 0.24565(14) 0.13276(16)
O3 O 0.07920(14) 0.94771(12) 0.04674(12)
C39 C 0.03304(17) 0.99991(15) 0.04866(15)
N9 N 0.06287(16) 0.84806(13) 0.77604(13)
C58 C 0.1453(2) 0.86402(19) 0.75061(18)
H38 H 0.2203 0.8981 0.7942
C63 C 0.1015(2) 0.8231(2) 0.65355(19)
H43 H 0.1394 0.8229 0.6180
Ni1 Ni 0.92367(2) 0.10911(2) 0.08660(2)
N1 N 0.93713(16) 0.15194(13) 0.22396(13)
C20 C 0.8547(2) 0.13598(19) 0.24939(18)
H10 H 0.7797 0.1019 0.2058
C25 C 0.8985(2) 0.1769(2) 0.34645(19)
H15 H 0.8606 0.1771 0.3820
N20 N 0.81326(16) 0.15856(14) 0.03361(14)
O1 O 0.92080(14) 0.05229(12) 0.95326(12)
C5 C 0.96696(17) 0.00009(15) 0.95134(15)
N18 N 0.79873(16) 0.97155(13) 0.04597(14)
O2 O 0.96582(13) 0.94708(11) 0.87753(11)
N10 N 0.98955(16) 0.78185(15) 0.61751(14)
N12 N 0.71363(16) 0.84165(14) 0.06398(15)
N15 N 0.73198(17) 0.25106(15) 0.03245(15)
C40 C 0.66269(17) 0.63484(15) 0.17740(15)
C41 C 0.66607(17) 0.47422(16) 0.16110(16)
N16 N 0.21701(17) 0.36251(15) 0.17358(18)
C42 C 0.74251(18) 0.61536(16) 0.32495(16)
C43 C 0.65047(17) 0.55784(15) 0.21745(15)
C44 C 0.53557(18) 0.50855(15) 0.20890(16)
C45 C 0.69692(19) 0.77383(16) 0.10491(17)
C46 C 0.97096(19) 0.79844(17) 0.69404(17)
H29 H 0.9013 0.7772 0.6893
C47 C 0.8076(2) 0.92427(16) 0.09998(18)
H30 H 0.8713 0.9455 0.1564
C48 C 0.90678(19) 0.72678(18) 0.51698(16)
C49 C 0.7827(2) 0.75576(18) 0.14897(19)
H31 H 0.8511 0.7889 0.1537
C50 C 0.14694(19) 0.26702(17) 0.12930(19)
H32 H 0.1624 0.2197 0.0985
C51 C 0.6867(2) 0.46775(18) 0.08336(18)
H33 H 0.6885 0.5151 0.0610
C52 C 0.7648(2) 0.68800(18) 0.18542(19)
H34 H 0.8229 0.6773 0.2165
C53 C 0.79132(19) 0.21914(17) 0.08570(18)
H35 H 0.8140 0.2378 0.1515
C54 C 0.70224(19) 0.32251(17) 0.07116(17)
C55 C 0.3250(2) 0.40998(17) 0.18450(19)
C56 C 0.7045(2) 0.3936(2) 0.03815(19)
C57 C 0.4444(2) 0.45279(19) 0.11727(18)
H37 H 0.4543 0.4478 0.0631
C59 C 0.5808(2) 0.65805(18) 0.13798(19)
H39 H 0.5132 0.6268 0.1354
C60 C 0.6552(2) 0.39693(17) 0.18731(18)
H40 H 0.6354 0.3960 0.2356
C61 C 0.6733(2) 0.32204(18) 0.14277(19)
H41 H 0.6659 0.2715 0.1612
C62 C 0.8303(2) 0.5961(2) 0.36022(19)
H42 H 0.8341 0.5457 0.3192
C64 C 0.5186(2) 0.5116(2) 0.2886(2)
H44 H 0.5784 0.5474 0.3508
C65 C 0.3388(2) 0.40419(19) 0.1042(2)
H45 H 0.2785 0.3684 0.0422
C66 C 0.5978(2) 0.7276(2) 0.1020(2)
H46 H 0.5419 0.7427 0.0759
C67 C 0.9123(2) 0.6521(2) 0.45662(19)
H47 H 0.9705 0.6389 0.4801
C68 C 0.8230(2) 0.7483(2) 0.48347(19)
H48 H 0.8207 0.7996 0.5248
C69 C 0.7416(2) 0.69344(19) 0.38762(18)
H49 H 0.6852 0.7090 0.3647
C70 C 0.4136(2) 0.4617(3) 0.2762(2)
H50 H 0.4034 0.4633 0.3297
C75 C 0.0732(3) 0.3348(2) 0.1938(3)
H55 H 0.0236 0.3438 0.2138
C76 C 0.1725(3) 0.4071(2) 0.2202(3)
H56 H 0.2039 0.4732 0.2614
H8 H 0.2820 0.6089 0.0139
C33 C 0.2342(3) 0.8494(3) 0.0571(2)
H23 H 0.2324 0.8882 0.1100
C34 C 0.2847(3) 0.7926(3) 0.0597(2)
H24 H 0.3229 0.7850 0.1132
C35 C 0.3043(3) 0.0850(2) 0.0294(3)
H25 H 0.3345 0.0707 0.0803
C36 C 0.3569(3) 0.1646(3) 0.0201(3)
H26 H 0.4283 0.2148 0.0632
H36 H 0.7180 0.3911 0.9861
C71 C 0.7658(3) 0.1506(3) 0.9429(2)
H51 H 0.7676 0.1118 0.8900
C72 C 0.7153(3) 0.2074(3) 0.9403(2)
H52 H 0.6771 0.2150 0.8868
C73 C 0.6957(3) 0.9150(2) 0.9706(3)
H53 H 0.6655 0.9293 0.9197
C74 C 0.6431(3) 0.8354(3) 0.9799(3)
H54 H 0.5717 0.7852 0.9368
Tc1 Tc 0.61559(9) 0.29723(7) 0.71265(7)
O5 O 0.6685(9) 0.3474(6) 0.6463(7)
O6 O 0.6884(16) 0.3858(9) 0.8283(8)
O7 O 0.6405(11) 0.1992(8) 0.7114(9)
O8 O 0.4713(12) 0.2549(11) 0.6580(10)
H57 H 0.435667 0.203996 0.590312
Tc1_2 Tc 0.38441(9) 0.70277(7) 0.28735(7)
O5_2 O 0.3315(9) 0.6526(6) 0.3537(7)
O6_2 O 0.3116(16) 0.6142(9) 0.1717(8)
O7_2 O 0.3595(11) 0.8008(8) 0.2886(9)
O8_2 O 0.5287(12) 0.7451(11) 0.3420(10)
H57_2 H 0.564333 0.796004 0.409688
loop_
_geom_bond_atom_site_label_1
_geom_bond_atom_site_label_2
_geom_bond_site_symmetry_1
_geom_bond_site_symmetry_2
N2 C8 1_555 1_555
N3 C9 1_555 1_555
N4 C7 1_555 1_555
N5 C15 1_555 1_555
N6 C12 1_555 1_555
N7 C15 1_555 1_555
C1 C4 1_555 1_555
C2 C4 1_555 1_555
N8 C12 1_555 1_555
C3 C4 1_555 1_555
C4 C6 1_555 1_555
C6 C19 1_555 1_555
C7 C11 1_555 1_555
H1 C8 1_555 1_555
C9 N4 1_555 1_555
H2 C9 1_555 1_555
C10 N2 1_555 1_555
C11 H3 1_555 1_555
C12 H4 1_555 1_555
C13 C2 1_555 1_555
H5 C13 1_555 1_555
C14 C1 1_555 1_555
H6 C14 1_555 1_555
C15 H7 1_555 1_555
C16 N7 1_555 1_555
C17 N8 1_555 1_555
C18 C13 1_555 1_555
C19 H9 1_555 1_555
C21 C1 1_555 1_555
H11 C21 1_555 1_555
C22 C2 1_555 1_555
H12 C22 1_555 1_555
C23 C16 1_555 1_555
H13 C23 1_555 1_555
C24 C3 1_555 1_555
H14 C24 1_555 1_555
C26 C6 1_555 1_555
H16 C26 1_555 1_555
C27 C17 1_555 1_555
H17 C27 1_555 1_555
C28 C7 1_555 1_555
H18 C28 1_555 1_555
C29 C10 1_555 1_555
H19 C29 1_555 1_555
C30 C10 1_555 1_555
H20 C30 1_555 1_555
C31 C3 1_555 1_555
H21 C31 1_555 1_555
C32 C17 1_555 1_555
H22 C32 1_555 1_555
C37 N6 1_555 1_555
H27 C37 1_555 1_555
C38 N8 1_555 1_555
H28 C38 1_555 1_555
Ni8 N5 1_555 1_555
C11 C14 1_555 1_555
C16 C18 1_555 1_555
C19 C27 1_555 1_555
C21 C28 1_555 1_555
C22 C23 1_555 1_555
C24 C29 1_555 1_555
C26 C32 1_555 1_555
C30 C31 1_555 1_555
C37 C38 1_555 1_555
O3 C39 1_555 1_555
N9 Ni8 1_555 1_555
C58 N9 1_555 1_555
H38 C58 1_555 1_555
H43 C63 1_555 1_555
C58 C63 1_555 1_555
N1 Ni1 1_555 1_555
C20 N1 1_555 1_555
H10 C20 1_555 1_555
H15 C25 1_555 1_555
N20 Ni1 1_555 1_555
C20 C25 1_555 1_555
O1 C5 1_555 1_555
N10 C46 1_555 1_555
N18 C47 1_555 1_555
N12 C45 1_555 1_555
N20 C53 1_555 1_555
N22 C50 1_555 1_555
N15 C53 1_555 1_555
C40 C43 1_555 1_555
C41 C43 1_555 1_555
N16 C50 1_555 1_555
C42 C43 1_555 1_555
C43 C44 1_555 1_555
C44 C57 1_555 1_555
C45 C49 1_555 1_555
H29 C46 1_555 1_555
C47 N12 1_555 1_555
H30 C47 1_555 1_555
C48 N10 1_555 1_555
C49 H31 1_555 1_555
C50 H32 1_555 1_555
C51 C41 1_555 1_555
H33 C51 1_555 1_555
C52 C40 1_555 1_555
H34 C52 1_555 1_555
C53 H35 1_555 1_555
C54 N15 1_555 1_555
C55 N16 1_555 1_555
C56 C51 1_555 1_555
C57 H37 1_555 1_555
C59 C40 1_555 1_555
H39 C59 1_555 1_555
C60 C41 1_555 1_555
H40 C60 1_555 1_555
C61 C54 1_555 1_555
H41 C61 1_555 1_555
C62 C42 1_555 1_555
H42 C62 1_555 1_555
C64 C44 1_555 1_555
H44 C64 1_555 1_555
C65 C55 1_555 1_555
H45 C65 1_555 1_555
C66 C45 1_555 1_555
H46 C66 1_555 1_555
C67 C48 1_555 1_555
H47 C67 1_555 1_555
C68 C48 1_555 1_555
H48 C68 1_555 1_555
C69 C42 1_555 1_555
H49 C69 1_555 1_555
C70 C55 1_555 1_555
H50 C70 1_555 1_555
C75 N22 1_555 1_555
H55 C75 1_555 1_555
C76 N16 1_555 1_555
H56 C76 1_555 1_555
C49 C52 1_555 1_555
C54 C56 1_555 1_555
C57 C65 1_555 1_555
C59 C66 1_555 1_555
C60 C61 1_555 1_555
C62 C67 1_555 1_555
C64 C70 1_555 1_555
C68 C69 1_555 1_555
C75 C76 1_555 1_555
H23 C33 1_555 1_555
H24 C34 1_555 1_555
H25 C35 1_555 1_555
H26 C36 1_555 1_555
C33 C34 1_555 1_555
C35 C36 1_555 1_555
H51 C71 1_555 1_555
H52 C72 1_555 1_555
H53 C73 1_555 1_555
H54 C74 1_555 1_555
C71 C72 1_555 1_555
C73 C74 1_555 1_555
Tc1 O5 1_555 1_555
O6 Tc1 1_555 1_555
O7 Tc1 1_555 1_555
O8 Tc1 1_555 1_555
O8 H57 1_555 1_555
Tc1_2 O5_2 1_555 1_555
O6_2 Tc1_2 1_555 1_555
O7_2 Tc1_2 1_555 1_555
O8_2 Tc1_2 1_555 1_555
O8_2 H57_2 1_555 1_555

#END
