
###############################################################################
#
# This file contains modified crystal structure data generated from the
# MOF subset of the Cambridge Structural Database (CSD) v543 
# hosted by the Cambridge Crystallographic Data Centre (CCDC).
#
# This work is licensed under the Creative Commons
# Attribution-NonCommercial-ShareAlike 4.0 International License.
# To view a copy of this license, visit
# http://creativecommons.org/licenses/by-nc-sa/4.0/
# or send a letter to
# Creative Commons, PO Box 1866, Mountain View, CA 94042, USA.
#
# CIF created using the CSD Python API on 29 September 2022
# The structure has been converted into the P1 space group
# The structure has a 3D framework
# The original CSD entry QIVTEX is in the triclinic crystal system
# The framework has been calculated to contain at least 10.0% void space
# The void calculation uses a probe of radius 1.32A, grid spacing 0.4
#
###############################################################################

data_QIVTEX
_chemical_formula_moiety         '(C76 H56 N16 Ni2 O4)n'
_symmetry_cell_setting           triclinic
_symmetry_space_group_name_H-M   'P 1'
_symmetry_Int_Tables_number      1
_space_group_name_Hall           'P 1'
loop_
_symmetry_equiv_pos_site_id
_symmetry_equiv_pos_as_xyz
1 x,y,z
_cell_length_a                   14.487(2)
_cell_length_b                   16.155(2)
_cell_length_c                   16.239(2)
_cell_angle_alpha                106.811(5)
_cell_angle_beta                 109.400(5)
_cell_angle_gamma                109.306(5)
_cell_volume                     3024.22
loop_
_atom_site_label
_atom_site_type_symbol
_atom_site_fract_x
_atom_site_fract_y
_atom_site_fract_z
_atom_site_U_iso_or_equiv
_atom_site_thermal_displace_type
Ni8 Ni 0.07734(2) 0.88926(2) 0.91451(2) 0.0294 Uani
N2 N 0.20174(16) 0.02884(13) 0.95785(13) 0.0362 Uani
N3 N 0.18954(16) 0.84240(14) 0.96994(14) 0.0369 Uani
N4 N 0.94483(17) 0.75118(14) 0.86439(15) 0.0422 Uani
N5 N 0.00424(16) 0.21605(15) 0.38136(13) 0.0418 Uani
C2 C 0.25391(18) 0.37995(16) 0.67515(16) 0.0336 Uani
N6 N 0.28479(16) 0.15769(14) 0.93925(14) 0.0407 Uani
C3 C 0.33388(18) 0.52277(16) 0.84098(16) 0.0340 Uani
N7 N 0.27039(17) 0.74888(15) 0.97131(14) 0.0427 Uani
C4 C 0.46348(18) 0.48560(16) 0.79003(16) 0.0313 Uani
N8 N 0.78336(18) 0.63298(15) 0.82248(17) 0.0487 Uani
C5 C 0.0235(2) 0.19915(18) 0.30448(16) 0.0393 Uani
H1 H 0.0939 0.2187 0.3094 0.0470 Uiso
C6 C 0.08746(19) 0.26983(18) 0.48232(16) 0.0400 Uani
C7 C 0.0833(2) 0.3459(2) 0.54443(19) 0.0541 Uani
H2 H 0.0258 0.3608 0.5222 0.0650 Uiso
C8 C 0.1669(2) 0.4001(2) 0.64108(18) 0.0479 Uani
H3 H 0.1642 0.4509 0.6837 0.0570 Uiso
C9 C 0.2524(2) 0.30047(19) 0.61109(18) 0.0483 Uani
H4 H 0.3080 0.2836 0.6336 0.0580 Uiso
C10 C 0.1708(2) 0.2459(2) 0.51509(19) 0.0506 Uani
H5 H 0.1720 0.1936 0.4730 0.0610 Uiso
C11 C 0.34770(18) 0.43692(16) 0.78243(15) 0.0302 Uani
C12 C 0.33536(18) 0.36105(16) 0.82285(15) 0.0309 Uani
C13 C 0.2326(2) 0.30841(18) 0.81512(18) 0.0436 Uani
H6 H 0.1738 0.3186 0.7837 0.0520 Uiso
C14 C 0.2149(2) 0.24142(18) 0.85271(18) 0.0433 Uani
H7 H 0.1459 0.2080 0.8480 0.0520 Uiso
C15 C 0.30261(19) 0.22502(16) 0.89771(16) 0.0353 Uani
C16 C 0.4014(2) 0.27142(19) 0.9017(2) 0.0490 Uani
H8 H 0.4587 0.2582 0.9298 0.0590 Uiso
C17 C 0.4182(2) 0.33909(18) 0.86385(19) 0.0429 Uani
H9 H 0.4865 0.3699 0.8664 0.0510 Uiso
C20 C 0.1933(2) 0.07459(17) 0.90285(17) 0.0402 Uani
H12 H 0.1299 0.0511 0.8447 0.0480 Uiso
C21 C 0.3110(2) 0.52866(18) 0.91777(17) 0.0411 Uani
H13 H 0.3074 0.4809 0.9394 0.0490 Uiso
C22 C 0.2930(2) 0.60454(19) 0.96358(18) 0.0448 Uani
C23 C 0.29926(19) 0.67554(17) 0.93251(16) 0.0370 Uani
C24 C 0.3290(2) 0.67497(18) 0.85955(18) 0.0436 Uani
H15 H 0.3371 0.7252 0.8410 0.0520 Uiso
C25 C 0.3465(2) 0.59962(18) 0.81481(18) 0.0430 Uani
H16 H 0.3671 0.5997 0.7663 0.0520 Uiso
C26 C 0.2101(2) 0.77958(18) 0.91745(18) 0.0399 Uani
H17 H 0.1859 0.7587 0.8509 0.0480 Uiso
C29 C 0.5551(2) 0.54246(18) 0.88048(17) 0.0424 Uani
H20 H 0.5457 0.5487 0.9355 0.0510 Uiso
C30 C 0.6615(2) 0.59101(19) 0.89313(19) 0.0476 Uani
H21 H 0.7224 0.6277 0.9552 0.0570 Uiso
C31 C 0.6743(2) 0.58344(18) 0.81174(18) 0.0419 Uani
C32 C 0.5847(2) 0.5282(2) 0.7209(2) 0.0652 Uani
H22 H 0.5946 0.5234 0.6663 0.0780 Uiso
C33 C 0.4795(2) 0.4794(2) 0.7091(2) 0.0569 Uani
H23 H 0.4191 0.4423 0.6467 0.0680 Uiso
C34 C 0.8282(3) 0.5898(2) 0.7726(3) 0.0827 Uani
H24 H 0.7962 0.5242 0.7287 0.0990 Uiso
C35 C 0.9283(3) 0.6627(2) 0.8007(3) 0.0788 Uani
H25 H 0.9790 0.6548 0.7803 0.0950 Uiso
C36 C 0.8534(2) 0.72831(17) 0.86959(18) 0.0412 Uani
H26 H 0.8381 0.7747 0.9034 0.0500 Uiso
O4 O 0.03578(13) 0.05605(11) 0.12334(11) 0.0362 Uani
C39 C 0.03296(18) 0.00073(16) 0.04916(16) 0.0312 Uani
N22 N 0.05517(17) 0.24882(14) 0.13561(15) 0.0422 Uani
O3 O 0.07606(14) 0.94533(12) 0.04657(11) 0.0369 Uani
N9 N 0.06853(15) 0.84814(13) 0.77833(13) 0.0338 Uani
C75 C 0.1082(2) 0.8223(2) 0.65462(18) 0.0533 Uani
H55 H 0.1469 0.8211 0.6190 0.0640 Uiso
C76 C 0.1515(2) 0.86237(19) 0.75296(18) 0.0452 Uani
H56 H 0.2269 0.8949 0.7970 0.0540 Uiso
Ni1 Ni 0.92266(2) 0.11074(2) 0.08549(2) 0.0294 Uani
N1 N 0.93147(15) 0.15186(13) 0.22167(13) 0.0338 Uani
C37 C 0.8918(2) 0.1777(2) 0.34538(18) 0.0533 Uani
H27 H 0.8531 0.1789 0.3810 0.0640 Uiso
C38 C 0.8485(2) 0.13763(19) 0.24704(18) 0.0452 Uani
H28 H 0.7731 0.1051 0.2030 0.0540 Uiso
N20 N 0.81046(16) 0.15760(14) 0.03006(14) 0.0369 Uani
O1 O 0.92394(14) 0.05467(12) 0.95343(11) 0.0369 Uani
N18 N 0.79826(16) 0.97116(13) 0.04215(13) 0.0362 Uani
O2 O 0.96422(13) 0.94395(11) 0.87666(11) 0.0362 Uani
C1 C 0.96704(18) 0.99927(16) 0.95084(16) 0.0312 Uani
N13 N 0.99576(16) 0.78395(15) 0.61864(13) 0.0418 Uani
C40 C 0.74609(18) 0.62005(16) 0.32485(16) 0.0336 Uani
N14 N 0.71521(16) 0.84231(14) 0.06075(14) 0.0407 Uani
C41 C 0.66612(18) 0.47723(16) 0.15902(16) 0.0340 Uani
N15 N 0.72961(17) 0.25112(15) 0.02869(14) 0.0427 Uani
C42 C 0.53652(18) 0.51440(16) 0.20997(16) 0.0313 Uani
N16 N 0.21664(18) 0.36702(15) 0.17752(17) 0.0487 Uani
C43 C 0.9765(2) 0.80085(18) 0.69552(16) 0.0393 Uani
H29 H 0.9061 0.7813 0.6906 0.0470 Uiso
C44 C 0.91254(19) 0.73017(18) 0.51768(16) 0.0400 Uani
C45 C 0.9167(2) 0.6541(2) 0.45557(19) 0.0541 Uani
H30 H 0.9742 0.6392 0.4778 0.0650 Uiso
C46 C 0.8331(2) 0.5999(2) 0.35892(18) 0.0479 Uani
H31 H 0.8358 0.5491 0.3163 0.0570 Uiso
C47 C 0.7476(2) 0.69953(19) 0.38891(18) 0.0483 Uani
H32 H 0.6920 0.7164 0.3664 0.0580 Uiso
C48 C 0.8292(2) 0.7541(2) 0.48491(19) 0.0506 Uani
H33 H 0.8280 0.8064 0.5270 0.0610 Uiso
C49 C 0.65230(18) 0.56308(16) 0.21757(15) 0.0302 Uani
C50 C 0.66464(18) 0.63895(16) 0.17715(15) 0.0309 Uani
C51 C 0.7674(2) 0.69159(18) 0.18488(18) 0.0436 Uani
H34 H 0.8262 0.6814 0.2163 0.0520 Uiso
C52 C 0.7851(2) 0.75858(18) 0.14729(18) 0.0433 Uani
H35 H 0.8541 0.7920 0.1520 0.0520 Uiso
C53 C 0.69739(19) 0.77498(16) 0.10229(16) 0.0353 Uani
C54 C 0.5986(2) 0.72858(19) 0.0983(2) 0.0490 Uani
H36 H 0.5413 0.7418 0.0702 0.0590 Uiso
C55 C 0.5818(2) 0.66091(18) 0.13615(19) 0.0429 Uani
H37 H 0.5135 0.6301 0.1336 0.0510 Uiso
C58 C 0.8067(2) 0.92541(17) 0.09715(17) 0.0402 Uani
H40 H 0.8701 0.9489 0.1553 0.0480 Uiso
C59 C 0.6890(2) 0.47134(18) 0.08223(17) 0.0411 Uani
H41 H 0.6926 0.5191 0.0606 0.0490 Uiso
C60 C 0.7070(2) 0.39546(19) 0.03642(18) 0.0448 Uani
C61 C 0.70074(19) 0.32446(17) 0.06749(16) 0.0370 Uani
C62 C 0.6710(2) 0.32503(18) 0.14045(18) 0.0436 Uani
H43 H 0.6629 0.2748 0.1590 0.0520 Uiso
C63 C 0.6535(2) 0.40038(18) 0.18519(18) 0.0430 Uani
H44 H 0.6329 0.4003 0.2337 0.0520 Uiso
C64 C 0.7899(2) 0.22042(18) 0.08255(18) 0.0399 Uani
H45 H 0.8141 0.2413 0.1491 0.0480 Uiso
C67 C 0.4449(2) 0.45754(18) 0.11952(17) 0.0424 Uani
H48 H 0.4543 0.4513 0.0645 0.0510 Uiso
C68 C 0.3385(2) 0.40899(19) 0.10687(19) 0.0476 Uani
H49 H 0.2776 0.3723 0.0448 0.0570 Uiso
C69 C 0.3257(2) 0.41656(18) 0.18826(18) 0.0419 Uani
C70 C 0.4153(2) 0.4718(2) 0.2791(2) 0.0652 Uani
H50 H 0.4054 0.4766 0.3337 0.0780 Uiso
C71 C 0.5205(2) 0.5206(2) 0.2909(2) 0.0569 Uani
H51 H 0.5809 0.5577 0.3533 0.0680 Uiso
C72 C 0.1718(3) 0.4102(2) 0.2274(3) 0.0827 Uani
H52 H 0.2038 0.4758 0.2713 0.0990 Uiso
C73 C 0.0717(3) 0.3373(2) 0.1993(3) 0.0788 Uani
H53 H 0.0210 0.3452 0.2197 0.0950 Uiso
C74 C 0.1466(2) 0.27169(17) 0.13041(18) 0.0412 Uani
H54 H 0.1619 0.2253 0.0966 0.0500 Uiso
C18 C 0.3551(3) 0.1688(3) 0.0276(3) 0.0968 Uani
H10 H 0.4251 0.2214 0.0729 0.1160 Uiso
C19 C 0.3020(3) 0.0879(2) 0.0354(2) 0.0770 Uani
H11 H 0.3312 0.0750 0.0876 0.0920 Uiso
H14 H 0.2768 0.6070 0.0148 0.0540 Uiso
C27 C 0.2378(3) 0.8512(2) 0.0621(2) 0.0629 Uani
H18 H 0.2356 0.8903 0.1155 0.0750 Uiso
C28 C 0.2882(3) 0.7961(2) 0.0648(2) 0.0683 Uani
H19 H 0.3279 0.7904 0.1192 0.0820 Uiso
C56 C 0.6449(3) 0.8312(3) 0.9724(3) 0.0968 Uani
H38 H 0.5749 0.7786 0.9271 0.1160 Uiso
C57 C 0.6980(3) 0.9121(2) 0.9646(2) 0.0770 Uani
H39 H 0.6688 0.9250 0.9124 0.0920 Uiso
H42 H 0.7232 0.3930 0.9852 0.0540 Uiso
C65 C 0.7622(3) 0.1488(2) 0.9379(2) 0.0629 Uani
H46 H 0.7644 0.1097 0.8845 0.0750 Uiso
C66 C 0.7118(3) 0.2039(2) 0.9352(2) 0.0683 Uani
H47 H 0.6721 0.2096 0.8808 0.0820 Uiso
loop_
_atom_site_aniso_label
_atom_site_aniso_U_11
_atom_site_aniso_U_22
_atom_site_aniso_U_33
_atom_site_aniso_U_23
_atom_site_aniso_U_13
_atom_site_aniso_U_12
Ni8 0.0332 0.02492 0.03356 0.0137 0.0179 0.01471
N2 0.0387 0.0272 0.0355 0.0139 0.015 0.0105
N3 0.0403 0.0351 0.0419 0.0177 0.0214 0.0226
N4 0.0443 0.0297 0.061 0.0191 0.0348 0.0174
N5 0.0353 0.0494 0.0326 0.0134 0.0139 0.0178
C2 0.035 0.0329 0.0323 0.0147 0.0156 0.0157
N6 0.0369 0.0284 0.0444 0.0199 0.0128 0.0058
C3 0.0338 0.0319 0.0349 0.0145 0.0156 0.0152
N7 0.0502 0.0449 0.0391 0.017 0.0192 0.0325
C4 0.0362 0.0274 0.0335 0.0145 0.0183 0.0158
N8 0.0445 0.0371 0.0697 0.0212 0.0377 0.0164
C5 0.0364 0.0423 0.0368 0.0131 0.0196 0.0178
C6 0.0359 0.0435 0.0286 0.0109 0.0114 0.0144
C7 0.049 0.0662 0.0414 0.0166 0.0143 0.0347
C8 0.051 0.0498 0.0374 0.0111 0.0178 0.0285
C9 0.0474 0.0465 0.0429 0.0132 0.0134 0.0274
C10 0.0538 0.0466 0.0413 0.0102 0.0175 0.0263
C11 0.0323 0.0292 0.0309 0.014 0.0157 0.0153
C12 0.0302 0.0279 0.0307 0.0114 0.0145 0.011
C13 0.0391 0.0432 0.051 0.0257 0.0195 0.0201
C14 0.0359 0.0411 0.0511 0.0234 0.0219 0.0127
C15 0.037 0.0265 0.0383 0.017 0.0153 0.011
C16 0.0414 0.0457 0.0689 0.0358 0.0247 0.0227
C17 0.0371 0.0406 0.0579 0.0278 0.0251 0.0182
C20 0.0384 0.0301 0.0386 0.0164 0.01 0.0092
C21 0.0533 0.0455 0.0402 0.0258 0.0255 0.0309
C22 0.0561 0.0557 0.0399 0.0265 0.0273 0.0359
C23 0.0354 0.0368 0.0377 0.0131 0.0135 0.0229
C24 0.0483 0.0365 0.0537 0.0245 0.0264 0.0224
C25 0.0532 0.0395 0.0468 0.0229 0.0291 0.0244
C26 0.0465 0.0429 0.0415 0.022 0.0231 0.0282
C29 0.0424 0.0448 0.0375 0.0168 0.0228 0.0154
C30 0.0386 0.0417 0.046 0.0115 0.0172 0.0114
C31 0.0404 0.0356 0.0521 0.0194 0.0297 0.0129
C32 0.0563 0.091 0.052 0.0374 0.0374 0.0224
C33 0.0433 0.077 0.042 0.0302 0.0197 0.0171
C34 0.074 0.035 0.123 0.0101 0.064 0.0129
C35 0.068 0.0418 0.128 0.0191 0.07 0.0199
C36 0.04 0.0276 0.0483 0.0092 0.0229 0.0124
O4 0.0433 0.035 0.0314 0.0128 0.0172 0.022
C39 0.0331 0.0272 0.0371 0.016 0.0195 0.0141
N22 0.0443 0.0297 0.061 0.0191 0.0348 0.0174
O3 0.0487 0.0402 0.0364 0.0214 0.023 0.0301
N9 0.0295 0.0314 0.0324 0.0103 0.0132 0.0107
C75 0.0391 0.075 0.0398 0.0209 0.0213 0.022
C76 0.032 0.0558 0.0411 0.0199 0.0176 0.015
Ni1 0.0332 0.02492 0.03356 0.0137 0.0179 0.01471
N1 0.0295 0.0314 0.0324 0.0103 0.0132 0.0107
C37 0.0391 0.075 0.0398 0.0209 0.0213 0.022
C38 0.032 0.0558 0.0411 0.0199 0.0176 0.015
N20 0.0403 0.0351 0.0419 0.0177 0.0214 0.0226
O1 0.0487 0.0402 0.0364 0.0214 0.023 0.0301
N18 0.0387 0.0272 0.0355 0.0139 0.015 0.0105
O2 0.0433 0.035 0.0314 0.0128 0.0172 0.022
C1 0.0331 0.0272 0.0371 0.016 0.0195 0.0141
N13 0.0353 0.0494 0.0326 0.0134 0.0139 0.0178
C40 0.035 0.0329 0.0323 0.0147 0.0156 0.0157
N14 0.0369 0.0284 0.0444 0.0199 0.0128 0.0058
C41 0.0338 0.0319 0.0349 0.0145 0.0156 0.0152
N15 0.0502 0.0449 0.0391 0.017 0.0192 0.0325
C42 0.0362 0.0274 0.0335 0.0145 0.0183 0.0158
N16 0.0445 0.0371 0.0697 0.0212 0.0377 0.0164
C43 0.0364 0.0423 0.0368 0.0131 0.0196 0.0178
C44 0.0359 0.0435 0.0286 0.0109 0.0114 0.0144
C45 0.049 0.0662 0.0414 0.0166 0.0143 0.0347
C46 0.051 0.0498 0.0374 0.0111 0.0178 0.0285
C47 0.0474 0.0465 0.0429 0.0132 0.0134 0.0274
C48 0.0538 0.0466 0.0413 0.0102 0.0175 0.0263
C49 0.0323 0.0292 0.0309 0.014 0.0157 0.0153
C50 0.0302 0.0279 0.0307 0.0114 0.0145 0.011
C51 0.0391 0.0432 0.051 0.0257 0.0195 0.0201
C52 0.0359 0.0411 0.0511 0.0234 0.0219 0.0127
C53 0.037 0.0265 0.0383 0.017 0.0153 0.011
C54 0.0414 0.0457 0.0689 0.0358 0.0247 0.0227
C55 0.0371 0.0406 0.0579 0.0278 0.0251 0.0182
C58 0.0384 0.0301 0.0386 0.0164 0.01 0.0092
C59 0.0533 0.0455 0.0402 0.0258 0.0255 0.0309
C60 0.0561 0.0557 0.0399 0.0265 0.0273 0.0359
C61 0.0354 0.0368 0.0377 0.0131 0.0135 0.0229
C62 0.0483 0.0365 0.0537 0.0245 0.0264 0.0224
C63 0.0532 0.0395 0.0468 0.0229 0.0291 0.0244
C64 0.0465 0.0429 0.0415 0.022 0.0231 0.0282
C67 0.0424 0.0448 0.0375 0.0168 0.0228 0.0154
C68 0.0386 0.0417 0.046 0.0115 0.0172 0.0114
C69 0.0404 0.0356 0.0521 0.0194 0.0297 0.0129
C70 0.0563 0.091 0.052 0.0374 0.0374 0.0224
C71 0.0433 0.077 0.042 0.0302 0.0197 0.0171
C72 0.074 0.035 0.123 0.0101 0.064 0.0129
C73 0.068 0.0418 0.128 0.0191 0.07 0.0199
C74 0.04 0.0276 0.0483 0.0092 0.0229 0.0124
C18 0.057 0.073 0.084 0.058 -0.0204 -0.0158
C19 0.0575 0.059 0.0624 0.0424 -0.0097 -0.0027
C27 0.089 0.071 0.0407 0.0199 0.0258 0.06
C28 0.098 0.09 0.0377 0.0285 0.0258 0.073
C56 0.057 0.073 0.084 0.058 -0.0204 -0.0158
C57 0.0575 0.059 0.0624 0.0424 -0.0097 -0.0027
C65 0.089 0.071 0.0407 0.0199 0.0258 0.06
C66 0.098 0.09 0.0377 0.0285 0.0258 0.073
loop_
_geom_bond_atom_site_label_1
_geom_bond_atom_site_label_2
_geom_bond_site_symmetry_1
_geom_bond_site_symmetry_2
N3 C26 1_555 1_555
N4 C35 1_555 1_555
N5 C5 1_555 1_555
C2 C8 1_555 1_555
N6 C15 1_555 1_555
C3 C11 1_555 1_555
N7 C23 1_555 1_555
C4 C11 1_555 1_555
N8 C31 1_555 1_555
H1 C5 1_555 1_555
C6 N5 1_555 1_555
C7 C6 1_555 1_555
H2 C7 1_555 1_555
C8 C7 1_555 1_555
H3 C8 1_555 1_555
C9 C2 1_555 1_555
H4 C9 1_555 1_555
C10 C6 1_555 1_555
H5 C10 1_555 1_555
C11 C2 1_555 1_555
C12 C11 1_555 1_555
C13 C12 1_555 1_555
H6 C13 1_555 1_555
C14 C13 1_555 1_555
H7 C14 1_555 1_555
C15 C14 1_555 1_555
C16 C15 1_555 1_555
H8 C16 1_555 1_555
C17 C12 1_555 1_555
H9 C17 1_555 1_555
C20 N2 1_555 1_555
H12 C20 1_555 1_555
C21 C3 1_555 1_555
H13 C21 1_555 1_555
C22 C21 1_555 1_555
C23 C22 1_555 1_555
C24 C23 1_555 1_555
H15 C24 1_555 1_555
C25 C3 1_555 1_555
H16 C25 1_555 1_555
C26 N7 1_555 1_555
H17 C26 1_555 1_555
C29 C4 1_555 1_555
H20 C29 1_555 1_555
C30 C29 1_555 1_555
H21 C30 1_555 1_555
C31 C30 1_555 1_555
C32 C31 1_555 1_555
H22 C32 1_555 1_555
C33 C4 1_555 1_555
H23 C33 1_555 1_555
C34 N8 1_555 1_555
H24 C34 1_555 1_555
C35 C34 1_555 1_555
H25 C35 1_555 1_555
C36 N4 1_555 1_555
H26 C36 1_555 1_555
C39 O4 1_555 1_555
Ni8 N3 1_555 1_555
N6 C20 1_555 1_555
N8 C36 1_555 1_555
C9 C10 1_555 1_555
C16 C17 1_555 1_555
C24 C25 1_555 1_555
C32 C33 1_555 1_555
N9 Ni8 1_555 1_555
H55 C75 1_555 1_555
C76 N9 1_555 1_555
H56 C76 1_555 1_555
C75 C76 1_555 1_555
N1 Ni1 1_555 1_555
H27 C37 1_555 1_555
C38 N1 1_555 1_555
H28 C38 1_555 1_555
N20 Ni1 1_555 1_555
C37 C38 1_555 1_555
O2 C1 1_555 1_555
N20 C64 1_555 1_555
N22 C73 1_555 1_555
N13 C43 1_555 1_555
C40 C46 1_555 1_555
N14 C53 1_555 1_555
C41 C49 1_555 1_555
N15 C61 1_555 1_555
C42 C49 1_555 1_555
N16 C69 1_555 1_555
H29 C43 1_555 1_555
C44 N13 1_555 1_555
C45 C44 1_555 1_555
H30 C45 1_555 1_555
C46 C45 1_555 1_555
H31 C46 1_555 1_555
C47 C40 1_555 1_555
H32 C47 1_555 1_555
C48 C44 1_555 1_555
H33 C48 1_555 1_555
C49 C40 1_555 1_555
C50 C49 1_555 1_555
C51 C50 1_555 1_555
H34 C51 1_555 1_555
C52 C51 1_555 1_555
H35 C52 1_555 1_555
C53 C52 1_555 1_555
C54 C53 1_555 1_555
H36 C54 1_555 1_555
C55 C50 1_555 1_555
H37 C55 1_555 1_555
C58 N18 1_555 1_555
H40 C58 1_555 1_555
C59 C41 1_555 1_555
H41 C59 1_555 1_555
C60 C59 1_555 1_555
C61 C60 1_555 1_555
C62 C61 1_555 1_555
H43 C62 1_555 1_555
C63 C41 1_555 1_555
H44 C63 1_555 1_555
C64 N15 1_555 1_555
H45 C64 1_555 1_555
C67 C42 1_555 1_555
H48 C67 1_555 1_555
C68 C67 1_555 1_555
H49 C68 1_555 1_555
C69 C68 1_555 1_555
C70 C69 1_555 1_555
H50 C70 1_555 1_555
C71 C42 1_555 1_555
H51 C71 1_555 1_555
C72 N16 1_555 1_555
H52 C72 1_555 1_555
C73 C72 1_555 1_555
H53 C73 1_555 1_555
C74 N22 1_555 1_555
H54 C74 1_555 1_555
N14 C58 1_555 1_555
N16 C74 1_555 1_555
C47 C48 1_555 1_555
C54 C55 1_555 1_555
C62 C63 1_555 1_555
C70 C71 1_555 1_555
H10 C18 1_555 1_555
C19 C18 1_555 1_555
H11 C19 1_555 1_555
H18 C27 1_555 1_555
H19 C28 1_555 1_555
C27 C28 1_555 1_555
H38 C56 1_555 1_555
C57 C56 1_555 1_555
H39 C57 1_555 1_555
H46 C65 1_555 1_555
H47 C66 1_555 1_555
C65 C66 1_555 1_555

#END
