
###############################################################################
#
# This file contains modified crystal structure data generated from the
# MOF subset of the Cambridge Structural Database (CSD) v543 
# hosted by the Cambridge Crystallographic Data Centre (CCDC).
#
# This work is licensed under the Creative Commons
# Attribution-NonCommercial-ShareAlike 4.0 International License.
# To view a copy of this license, visit
# http://creativecommons.org/licenses/by-nc-sa/4.0/
# or send a letter to
# Creative Commons, PO Box 1866, Mountain View, CA 94042, USA.
#
# CIF created using the CSD Python API on 29 September 2022
# The structure has been converted into the P1 space group
# The structure has a 3D framework
# The original CSD entry QIVTIB is in the triclinic crystal system
# The framework has been calculated to contain at least 10.0% void space
# The void calculation uses a probe of radius 1.32A, grid spacing 0.4
# H atom positions have been added when not included in the experimental data
#
###############################################################################

data_QIVTIB
_chemical_formula_moiety         '(C76 H58 N16 Ni2 O12 Re2 2-)n'
_symmetry_cell_setting           triclinic
_symmetry_space_group_name_H-M   'P 1'
_symmetry_Int_Tables_number      1
_space_group_name_Hall           'P 1'
loop_
_symmetry_equiv_pos_site_id
_symmetry_equiv_pos_as_xyz
1 x,y,z
_cell_length_a                   14.689(3)
_cell_length_b                   16.134(4)
_cell_length_c                   16.338(4)
_cell_angle_alpha                105.911(6)
_cell_angle_beta                 109.936(6)
_cell_angle_gamma                109.388(6)
_cell_volume                     3088.68
loop_
_atom_site_label
_atom_site_type_symbol
_atom_site_fract_x
_atom_site_fract_y
_atom_site_fract_z
O1 O 0.0334(2) 0.05189(19) 0.12222(18)
N20 N 0.2015(3) 0.0283(2) 0.9525(2)
O2 O 0.0799(2) 0.9475(2) 0.04592(19)
C6 C 0.0322(3) 0.9997(3) 0.0482(3)
Ni1 Ni 0.07635(4) 0.89130(3) 0.91301(3)
N1 N 0.0624(3) 0.8479(2) 0.7760(2)
C9 C 0.1436(3) 0.8638(3) 0.7495(3)
H3 H 0.2200 0.8996 0.7935
C18 C 0.0997(4) 0.8215(4) 0.6522(3)
H8 H 0.1378 0.8200 0.6155
N18 N 0.1857(3) 0.8408(2) 0.9650(2)
Ni7 Ni 0.92365(4) 0.10870(3) 0.08699(3)
O4 O 0.9201(2) 0.0525(2) 0.95408(19)
C39 C 0.9678(3) 0.0003(3) 0.9518(3)
N2 N 0.8143(3) 0.1592(2) 0.0350(2)
N3 N 0.7985(3) 0.9717(2) 0.0475(2)
N4 N 0.0546(3) 0.2445(2) 0.1321(3)
N5 N 0.9876(3) 0.7808(3) 0.6174(2)
N6 N 0.7138(3) 0.8423(2) 0.0652(2)
N7 N 0.7336(3) 0.2526(3) 0.0332(2)
N8 N 0.2171(3) 0.3614(3) 0.1730(3)
C1 C 0.6653(3) 0.4734(3) 0.1615(3)
C2 C 0.6618(3) 0.6345(3) 0.1775(3)
C3 C 0.1469(3) 0.2658(3) 0.1286(3)
H1 H 0.1626 0.2176 0.0973
C4 C 0.6497(3) 0.5569(3) 0.2175(3)
C5 C 0.9703(3) 0.7990(3) 0.6937(3)
H2 H 0.8996 0.7791 0.6892
C7 C 0.7417(3) 0.6146(3) 0.3254(3)
C8 C 0.5347(3) 0.5075(3) 0.2086(3)
C10 C 0.6965(3) 0.7743(3) 0.1059(3)
C11 C 0.7032(3) 0.3232(3) 0.0719(3)
C12 C 0.3245(3) 0.4089(3) 0.1838(3)
C13 C 0.9043(3) 0.7246(3) 0.5170(3)
C14 C 0.7927(3) 0.2191(3) 0.0867(3)
H4 H 0.8153 0.2374 0.1536
C15 C 0.6869(4) 0.4688(3) 0.0835(3)
H5 H 0.6889 0.5174 0.0608
C16 C 0.8068(3) 0.9235(3) 0.1001(3)
H6 H 0.8720 0.9441 0.1569
C17 C 0.6545(3) 0.3964(3) 0.1868(3)
H7 H 0.6338 0.3950 0.2357
C19 C 0.5801(3) 0.6573(3) 0.1379(3)
H9 H 0.5112 0.6254 0.1353
C20 C 0.6732(4) 0.3217(3) 0.1429(3)
H10 H 0.6653 0.2700 0.1615
C21 C 0.4446(3) 0.4510(3) 0.1171(3)
H11 H 0.4550 0.4451 0.0619
C22 C 0.3392(4) 0.4024(3) 0.1043(3)
H12 H 0.2781 0.3652 0.0411
C23 C 0.4118(4) 0.4608(4) 0.2750(4)
H13 H 0.4010 0.4628 0.3295
C25 C 0.0711(5) 0.3333(4) 0.1919(5)
H15 H 0.0206 0.3426 0.2125
C27 C 0.1712(5) 0.4063(4) 0.2172(5)
H17 H 0.2021 0.4739 0.2571
C29 C 0.8285(4) 0.5955(3) 0.3602(3)
H19 H 0.8327 0.5445 0.3184
C30 C 0.9103(4) 0.6511(4) 0.4567(3)
H20 H 0.9700 0.6379 0.4805
C31 C 0.5968(4) 0.7268(3) 0.1014(4)
H21 H 0.5392 0.7411 0.0734
C32 C 0.7825(4) 0.7563(3) 0.1501(3)
H22 H 0.8526 0.7913 0.1561
C33 C 0.7056(4) 0.3939(4) 0.0389(3)
C34 C 0.7646(3) 0.6864(3) 0.1852(3)
H24 H 0.8229 0.6736 0.2150
C35 C 0.7395(4) 0.6911(3) 0.3868(3)
H25 H 0.6819 0.7067 0.3628
C36 C 0.8207(4) 0.7463(4) 0.4841(3)
H26 H 0.8175 0.7979 0.5262
C37 C 0.5165(4) 0.5108(4) 0.2875(3)
H27 H 0.5769 0.5478 0.3511
O3 O 0.9666(2) 0.94811(19) 0.87778(18)
N12 N 0.9454(3) 0.7555(2) 0.8679(3)
N13 N 0.0124(3) 0.2192(3) 0.3826(2)
N14 N 0.2862(3) 0.1577(2) 0.9348(2)
N15 N 0.2664(3) 0.7474(3) 0.9668(2)
N16 N 0.7829(3) 0.6386(3) 0.8270(3)
C40 C 0.3347(3) 0.5266(3) 0.8385(3)
C41 C 0.3382(3) 0.3655(3) 0.8225(3)
C42 C 0.8531(3) 0.7342(3) 0.8714(3)
H29 H 0.8374 0.7824 0.9027
C43 C 0.3503(3) 0.4431(3) 0.7825(3)
C44 C 0.0297(3) 0.2010(3) 0.3063(3)
H30 H 0.1004 0.2209 0.3108
C45 C 0.2583(3) 0.3854(3) 0.6746(3)
C46 C 0.4653(3) 0.4925(3) 0.7914(3)
C48 C 0.3035(3) 0.2257(3) 0.8941(3)
C49 C 0.2968(3) 0.6768(3) 0.9281(3)
C50 C 0.6755(3) 0.5911(3) 0.8162(3)
C51 C 0.0957(3) 0.2754(3) 0.4830(3)
C52 C 0.2073(3) 0.7809(3) 0.9133(3)
H32 H 0.1847 0.7626 0.8464
C53 C 0.3131(4) 0.5312(3) 0.9165(3)
H33 H 0.3111 0.4826 0.9392
C54 C 0.1932(3) 0.0765(3) 0.8999(3)
H34 H 0.1280 0.0559 0.8431
C55 C 0.3455(3) 0.6036(3) 0.8132(3)
H35 H 0.3662 0.6050 0.7643
C57 C 0.4199(3) 0.3427(3) 0.8621(3)
H37 H 0.4888 0.3746 0.8647
C58 C 0.3268(4) 0.6783(3) 0.8571(3)
H38 H 0.3347 0.7300 0.8385
C59 C 0.5554(3) 0.5490(3) 0.8829(3)
H39 H 0.5450 0.5549 0.9381
C60 C 0.6608(4) 0.5976(3) 0.8957(3)
H40 H 0.7219 0.6348 0.9589
C61 C 0.5882(4) 0.5392(4) 0.7250(4)
H41 H 0.5990 0.5372 0.6705
C63 C 0.9289(5) 0.6667(4) 0.8081(5)
H43 H 0.9794 0.6574 0.7875
C65 C 0.8288(5) 0.5937(4) 0.7828(5)
H45 H 0.7979 0.5261 0.7429
C67 C 0.1715(4) 0.4045(3) 0.6398(3)
H47 H 0.1673 0.4555 0.6816
C68 C 0.0897(4) 0.3489(4) 0.5433(3)
H48 H 0.0300 0.3621 0.5195
C69 C 0.4032(4) 0.2732(3) 0.8986(4)
H49 H 0.4608 0.2589 0.9266
C70 C 0.2175(4) 0.2437(3) 0.8499(3)
H50 H 0.1474 0.2087 0.8439
C71 C 0.2944(4) 0.6061(4) 0.9611(3)
C72 C 0.2354(3) 0.3136(3) 0.8148(3)
H52 H 0.1771 0.3264 0.7850
C73 C 0.2605(4) 0.3089(3) 0.6132(3)
H53 H 0.3181 0.2933 0.6372
C74 C 0.1793(4) 0.2537(4) 0.5159(3)
H54 H 0.1825 0.2021 0.4738
C75 C 0.4835(4) 0.4892(4) 0.7125(3)
H55 H 0.4231 0.4522 0.6489
N9 N 0.9376(3) 0.1521(2) 0.2240(2)
C47 C 0.8564(3) 0.1362(3) 0.2505(3)
H31 H 0.7800 0.1004 0.2065
C56 C 0.9003(4) 0.1785(4) 0.3478(3)
H36 H 0.8622 0.1800 0.3845
C62 C 0.3043(4) 0.0845(4) 0.0296(4)
H42 H 0.3340 0.0696 0.0818
C64 C 0.3575(5) 0.1649(4) 0.0204(5)
H44 H 0.4300 0.2163 0.0644
C66 C 0.2833(5) 0.7917(5) 0.0590(4)
H46 H 0.3229 0.7846 0.1140
H51 H 0.2800 0.6087 0.0140
C76 C 0.2323(5) 0.8475(4) 0.0559(3)
H56 H 0.2293 0.8860 0.1095
C24 C 0.6957(4) 0.9155(4) 0.9704(4)
H14 H 0.6660 0.9304 0.9182
C26 C 0.6425(5) 0.8351(4) 0.9796(5)
H16 H 0.5700 0.7837 0.9356
C28 C 0.7167(5) 0.2083(5) 0.9410(4)
H18 H 0.6771 0.2154 0.8860
H23 H 0.7200 0.3913 0.9860
C38 C 0.7677(5) 0.1525(4) 0.9441(3)
H28 H 0.7707 0.1140 0.8905
Re1 Re 0.38633(5) 0.70441(4) 0.28885(4)
O7 O 0.3318(17) 0.6257(13) 0.1762(9)
O8 O 0.3300(13) 0.6475(8) 0.3495(9)
O9 O 0.3667(13) 0.8059(10) 0.2946(11)
O10 O 0.5285(11) 0.7421(12) 0.3465(14)
H57 H 0.562912 0.773091 0.312641
Re1_2 Re 0.61367(5) 0.29559(4) 0.71115(4)
O7_2 O 0.6682(17) 0.3743(13) 0.8238(9)
O8_2 O 0.6700(13) 0.3525(8) 0.6505(9)
O9_2 O 0.6333(13) 0.1941(10) 0.7054(11)
O10_2 O 0.4715(11) 0.2579(12) 0.6535(14)
H57_2 H 0.437088 0.226909 0.687359
loop_
_geom_bond_atom_site_label_1
_geom_bond_atom_site_label_2
_geom_bond_site_symmetry_1
_geom_bond_site_symmetry_2
O2 C6 1_555 1_555
N1 Ni1 1_555 1_555
C9 N1 1_555 1_555
H3 C9 1_555 1_555
H8 C18 1_555 1_555
N18 Ni1 1_555 1_555
C9 C18 1_555 1_555
O4 C39 1_555 1_555
N2 C14 1_555 1_555
N3 C16 1_555 1_555
N4 C3 1_555 1_555
N5 C5 1_555 1_555
N6 C10 1_555 1_555
N7 C11 1_555 1_555
N8 C3 1_555 1_555
C1 C4 1_555 1_555
C2 C4 1_555 1_555
C3 H1 1_555 1_555
C4 C7 1_555 1_555
H2 C5 1_555 1_555
C7 C29 1_555 1_555
C8 C4 1_555 1_555
C10 C31 1_555 1_555
C11 C20 1_555 1_555
C12 N8 1_555 1_555
C13 N5 1_555 1_555
C14 N7 1_555 1_555
H4 C14 1_555 1_555
C15 C1 1_555 1_555
H5 C15 1_555 1_555
C16 N6 1_555 1_555
H6 C16 1_555 1_555
C17 C1 1_555 1_555
H7 C17 1_555 1_555
C19 C2 1_555 1_555
H9 C19 1_555 1_555
C20 C17 1_555 1_555
H10 C20 1_555 1_555
C21 C8 1_555 1_555
H11 C21 1_555 1_555
C22 C12 1_555 1_555
H12 C22 1_555 1_555
C23 C12 1_555 1_555
H13 C23 1_555 1_555
C25 N4 1_555 1_555
H15 C25 1_555 1_555
C27 N8 1_555 1_555
H17 C27 1_555 1_555
C29 H19 1_555 1_555
C30 C13 1_555 1_555
H20 C30 1_555 1_555
C31 C19 1_555 1_555
H21 C31 1_555 1_555
C32 C10 1_555 1_555
H22 C32 1_555 1_555
C33 C11 1_555 1_555
C34 C2 1_555 1_555
H24 C34 1_555 1_555
C35 C7 1_555 1_555
H25 C35 1_555 1_555
C36 C13 1_555 1_555
H26 C36 1_555 1_555
C37 C8 1_555 1_555
H27 C37 1_555 1_555
N18 C52 1_555 1_555
N20 C54 1_555 1_555
N13 C44 1_555 1_555
N14 C48 1_555 1_555
N15 C49 1_555 1_555
N16 C42 1_555 1_555
C40 C43 1_555 1_555
C41 C43 1_555 1_555
C42 N12 1_555 1_555
H29 C42 1_555 1_555
C43 C45 1_555 1_555
H30 C44 1_555 1_555
C45 C67 1_555 1_555
C46 C43 1_555 1_555
C48 C69 1_555 1_555
C49 C58 1_555 1_555
C50 N16 1_555 1_555
C51 N13 1_555 1_555
C52 N15 1_555 1_555
H32 C52 1_555 1_555
C53 C40 1_555 1_555
H33 C53 1_555 1_555
C54 N14 1_555 1_555
H34 C54 1_555 1_555
C55 C40 1_555 1_555
H35 C55 1_555 1_555
C57 C41 1_555 1_555
H37 C57 1_555 1_555
C58 C55 1_555 1_555
H38 C58 1_555 1_555
C59 C46 1_555 1_555
H39 C59 1_555 1_555
C60 C50 1_555 1_555
H40 C60 1_555 1_555
C61 C50 1_555 1_555
H41 C61 1_555 1_555
C63 N12 1_555 1_555
H43 C63 1_555 1_555
C65 N16 1_555 1_555
H45 C65 1_555 1_555
C67 H47 1_555 1_555
C68 C51 1_555 1_555
H48 C68 1_555 1_555
C69 C57 1_555 1_555
H49 C69 1_555 1_555
C70 C48 1_555 1_555
H50 C70 1_555 1_555
C71 C49 1_555 1_555
C72 C41 1_555 1_555
H52 C72 1_555 1_555
C73 C45 1_555 1_555
H53 C73 1_555 1_555
C74 C51 1_555 1_555
H54 C74 1_555 1_555
C75 C46 1_555 1_555
H55 C75 1_555 1_555
Ni7 N2 1_555 1_555
C15 C33 1_555 1_555
C21 C22 1_555 1_555
C23 C37 1_555 1_555
C25 C27 1_555 1_555
C29 C30 1_555 1_555
C32 C34 1_555 1_555
C35 C36 1_555 1_555
C53 C71 1_555 1_555
C59 C60 1_555 1_555
C61 C75 1_555 1_555
C63 C65 1_555 1_555
C67 C68 1_555 1_555
C70 C72 1_555 1_555
C73 C74 1_555 1_555
N9 Ni7 1_555 1_555
C47 N9 1_555 1_555
H31 C47 1_555 1_555
H36 C56 1_555 1_555
C47 C56 1_555 1_555
H42 C62 1_555 1_555
H44 C64 1_555 1_555
H46 C66 1_555 1_555
H56 C76 1_555 1_555
C62 C64 1_555 1_555
C66 C76 1_555 1_555
H14 C24 1_555 1_555
H16 C26 1_555 1_555
H18 C28 1_555 1_555
H28 C38 1_555 1_555
C24 C26 1_555 1_555
C28 C38 1_555 1_555
Re1 O7 1_555 1_555
O8 Re1 1_555 1_555
O9 Re1 1_555 1_555
O10 Re1 1_555 1_555
O10 H57 1_555 1_555
Re1_2 O7_2 1_555 1_555
O8_2 Re1_2 1_555 1_555
O9_2 Re1_2 1_555 1_555
O10_2 Re1_2 1_555 1_555
O10_2 H57_2 1_555 1_555

#END
