
###############################################################################
#
# This file contains modified crystal structure data generated from the
# MOF subset of the Cambridge Structural Database (CSD) v543 
# hosted by the Cambridge Crystallographic Data Centre (CCDC).
#
# This work is licensed under the Creative Commons
# Attribution-NonCommercial-ShareAlike 4.0 International License.
# To view a copy of this license, visit
# http://creativecommons.org/licenses/by-nc-sa/4.0/
# or send a letter to
# Creative Commons, PO Box 1866, Mountain View, CA 94042, USA.
#
# CIF created using the CSD Python API on 29 September 2022
# The structure has been converted into the P1 space group
# The structure has a 3D framework
# The original CSD entry QIVZUT is in the hexagonal crystal system
# The original CSD entry QIVZUT is in a Sohncke space group
# The framework has been calculated to contain at least 10.0% void space
# The void calculation uses a probe of radius 1.32A, grid spacing 0.4
# H atom positions have been added when not included in the experimental data
#
###############################################################################

data_QIVZUT
_chemical_formula_moiety         '(C132 H66 Cu2 N6 O60)n'
_symmetry_cell_setting           triclinic
_symmetry_space_group_name_H-M   'P 1'
_symmetry_Int_Tables_number      1
_space_group_name_Hall           'P 1'
loop_
_symmetry_equiv_pos_site_id
_symmetry_equiv_pos_as_xyz
1 x,y,z
_cell_length_a                   22.6180(5)
_cell_length_b                   22.6180(5)
_cell_length_c                   10.8128(4)
_cell_angle_alpha                90
_cell_angle_beta                 90
_cell_angle_gamma                120
_cell_volume                     4790.46
loop_
_atom_site_label
_atom_site_type_symbol
_atom_site_fract_x
_atom_site_fract_y
_atom_site_fract_z
C4 C 0.8104(12) 0.2884(12) 0.0207(14)
C5 C 0.7668(11) 0.3144(11) 0.0356(16)
H2 H 0.785425 0.358247 0.067838
C6 C 0.6941(10) 0.2789(10) 0.0053(15)
C8 C 0.8852(11) 0.3214(10) 0.0505(18)
C10 C 0.3590(6) 0.1440(5) 0.0494(14)
C11 C 0.3261(4) 0.1644(7) 0.1331(16)
H4 H 0.280009 0.135803 0.150460
C12 C 0.3619(6) 0.2276(8) 0.1909(17)
C13 C 0.4308(6) 0.2704(6) 0.1650(16)
H5 H 0.454776 0.312672 0.203720
C14 C 0.4637(5) 0.2500(6) 0.0813(14)
C15 C 0.4279(6) 0.1868(6) 0.0235(13)
C16 C 0.3226(12) 0.2488(11) 0.287(3)
C17 C 0.6371(11) 0.4082(11) 0.035(3)
C18 C 0.6812(12) 0.3815(12) 0.015(3)
C19 C 0.6511(12) 0.3109(11) 0.023(2)
C20 C 0.5818(10) 0.2687(11) 0.045(2)
H8 H 0.563766 0.221888 0.053020
C21 C 0.5394(11) 0.2963(11) 0.053(2)
C22 C 0.5673(10) 0.3652(11) 0.054(2)
H9 H 0.539462 0.384067 0.066627
N1 N 0.6650(14) 0.4783(13) 0.026(3)
O3 O 0.9120(8) 0.2908(8) 0.042(2)
O4 O 0.9157(10) 0.3832(7) 0.087(2)
O7 O 0.2661(12) 0.2098(12) 0.313(3)
O8 O 0.3559(8) 0.3059(9) 0.316(2)
O9 O 0.7300(12) 0.5168(10) 0.029(3)
O10 O 0.6262(16) 0.5015(16) 0.031(4)
Cu3 Cu 0.33163(16) 0.33172(10) 0.4665(7)
Cu4 Cu 0.99991(13) 0.33163(16) 0.1331(7)
H10 H 0.893947 0.386884 0.164158
C1 C 0.6773(10) 0.1150(9) 0.8878(10)
C2 C 0.7100(9) 0.1841(8) 0.93919(2)
C3 C 0.7794(11) 0.2185(10) 0.9692(12)
H1 H 0.805626 0.197913 0.956922
C7 C 0.6704(11) 0.2130(10) 0.9563(13)
H3 H 0.624582 0.187609 0.934241
C9 C 0.3218(11) 0.0789(10) 0.990(2)
H6 H 0.449909 0.173133 0.967544
H7 H 0.727304 0.409413 0.997246
O1 O 0.7174(6) 0.0884(6) 0.8847(15)
O2 O 0.6183(8) 0.0887(10) 0.853(2)
O5 O 0.3598(8) 0.0497(7) 0.9487(16)
O6 O 0.2604(11) 0.0553(10) 0.956(2)
Cu2 Cu 0.33172(10) 0.00009(13) 0.7998(7)
O13 O 0.6941(9) 0.0500(12) 0.649(2)
H11 H 0.257888 0.086956 0.895391
Cu1 Cu 0.66828(10) 0.99991(13) 0.7998(7)
O11 O 0.6212(11) 0.9120(8) 0.709(2)
O12 O 0.6402(8) 0.9503(7) 0.9487(16)
C1_2 C 0.5623(13) 0.6773(10) 0.5545(10)
C2_2 C 0.5259(12) 0.7100(9) 0.60586(2)
C3_2 C 0.5609(15) 0.7794(11) 0.6359(12)
H1_2 H 0.607713 0.805626 0.623589
C4_2 C 0.5220(17) 0.8104(12) 0.6874(14)
C5_2 C 0.4524(16) 0.7668(11) 0.7023(16)
H2_2 H 0.427178 0.785425 0.734505
C6_2 C 0.4152(14) 0.6941(10) 0.6720(15)
C7_2 C 0.4574(15) 0.6704(11) 0.6230(13)
H3_2 H 0.436973 0.624582 0.600908
C8_2 C 0.5638(15) 0.8852(11) 0.7172(18)
C9_2 C 0.2429(15) 0.3218(11) 0.657(2)
C10_2 C 0.2150(8) 0.3590(6) 0.7161(14)
C11_2 C 0.1617(8) 0.3261(4) 0.7998(16)
H4_2 H 0.144206 0.280009 0.817127
C12_2 C 0.1343(10) 0.3619(6) 0.8576(17)
C13_2 C 0.1604(8) 0.4308(6) 0.8317(16)
H5_2 H 0.142104 0.454776 0.870387
C14_2 C 0.2137(8) 0.4637(5) 0.7480(14)
C15_2 C 0.2411(8) 0.4279(6) 0.6902(13)
H6_2 H 0.276776 0.449909 0.634211
C16_2 C 0.0738(16) 0.3226(12) 0.954(3)
C17_2 C 0.2289(16) 0.6371(11) 0.702(3)
C18_2 C 0.2997(17) 0.6812(12) 0.682(3)
H7_2 H 0.317891 0.727304 0.663913
C19_2 C 0.3402(16) 0.6511(12) 0.690(2)
C20_2 C 0.3131(15) 0.5818(10) 0.712(2)
H8_2 H 0.341878 0.563766 0.719687
C21_2 C 0.2431(16) 0.5394(11) 0.720(2)
C22_2 C 0.2021(15) 0.5673(10) 0.721(2)
H9_2 H 0.155395 0.539462 0.733294
Cu1_2 Cu 0.66837(16) 0.66828(10) 0.4665(7)
N1_2 N 0.1867(19) 0.6650(14) 0.693(3)
O1_2 O 0.6290(8) 0.7174(6) 0.5514(15)
O2_2 O 0.5296(13) 0.6183(8) 0.520(2)
O4_2 O 0.5325(12) 0.9157(10) 0.754(2)
O5_2 O 0.3101(11) 0.3598(8) 0.6154(16)
O6_2 O 0.2051(15) 0.2604(11) 0.623(2)
O7_2 O 0.0563(17) 0.2661(12) 0.980(3)
O8_2 O 0.0500(12) 0.3559(8) 0.983(2)
O9_2 O 0.2132(16) 0.7300(12) 0.696(3)
O10_2 O 0.1247(23) 0.6262(16) 0.698(4)
O11_2 O 0.7092(14) 0.6212(11) 0.375(2)
O12_2 O 0.6899(11) 0.6402(8) 0.6154(16)
O13_2 O 0.6441(15) 0.6941(9) 0.316(2)
H10_2 H 0.507063 0.893947 0.830825
H11_2 H 0.170932 0.257888 0.562058
Cu1_3 Cu 0.00009(13) 0.66837(16) 0.1331(7)
O11_3 O 0.0880(8) 0.7092(14) 0.042(2)
O12_3 O 0.0497(7) 0.6899(11) 0.2820(16)
C1_3 C 0.8850(9) 0.5623(13) 0.2211(10)
C2_3 C 0.8159(8) 0.5259(12) 0.27252(2)
C3_3 C 0.7815(10) 0.5609(15) 0.3025(12)
H1_3 H 0.802087 0.607713 0.290255
C4_3 C 0.7116(12) 0.5220(17) 0.3540(14)
C5_3 C 0.6856(11) 0.4524(16) 0.3689(16)
H2_3 H 0.641753 0.427178 0.401171
C6_3 C 0.7211(10) 0.4152(14) 0.3386(15)
C7_3 C 0.7870(10) 0.4574(15) 0.2896(13)
H3_3 H 0.812391 0.436973 0.267574
C8_3 C 0.6786(10) 0.5638(15) 0.3838(18)
C9_3 C 0.9211(10) 0.2429(15) 0.323(2)
C10_3 C 0.8560(5) 0.2150(8) 0.3827(14)
C11_3 C 0.8356(7) 0.1617(8) 0.4664(16)
H4_3 H 0.864197 0.144206 0.483793
C12_3 C 0.7724(8) 0.1343(10) 0.5242(17)
C13_3 C 0.7296(6) 0.1604(8) 0.4983(16)
H5_3 H 0.687328 0.142104 0.537053
C14_3 C 0.7500(6) 0.2137(8) 0.4146(14)
C15_3 C 0.8132(6) 0.2411(8) 0.3568(13)
H6_3 H 0.826867 0.276776 0.300877
C16_3 C 0.7512(11) 0.0738(16) 0.620(3)
C17_3 C 0.5918(11) 0.2289(16) 0.368(3)
C18_3 C 0.6185(12) 0.2997(17) 0.348(3)
H7_3 H 0.590587 0.317891 0.330579
C19_3 C 0.6891(11) 0.3402(16) 0.356(2)
C20_3 C 0.7313(11) 0.3131(15) 0.378(2)
H8_3 H 0.778112 0.341878 0.386353
C21_3 C 0.7037(11) 0.2431(16) 0.386(2)
C22_3 C 0.6348(11) 0.2021(15) 0.387(2)
H9_3 H 0.615933 0.155395 0.399960
N1_3 N 0.5217(13) 0.1867(19) 0.359(3)
O1_3 O 0.9116(6) 0.6290(8) 0.2180(15)
O2_3 O 0.9113(10) 0.5296(13) 0.186(2)
O4_3 O 0.6168(7) 0.5325(12) 0.420(2)
O5_3 O 0.9503(7) 0.3101(11) 0.2820(16)
O6_3 O 0.9447(10) 0.2051(15) 0.289(2)
O7_3 O 0.7902(12) 0.0563(17) 0.646(3)
O9_3 O 0.4832(10) 0.2132(16) 0.362(3)
O10_3 O 0.4985(16) 0.1247(23) 0.364(4)
H10_3 H 0.613116 0.507063 0.497491
H11_3 H 0.913044 0.170932 0.228724
O13_3 O 0.9500(12) 0.6441(15) 0.983(2)
O11_4 O 0.3788(11) 0.0880(8) 0.709(2)
C4_4 C 0.1896(12) 0.7116(12) 0.0207(14)
C5_4 C 0.2332(11) 0.6856(11) 0.0356(16)
H2_4 H 0.214575 0.641753 0.067838
C6_4 C 0.3059(10) 0.7211(10) 0.0053(15)
C8_4 C 0.1148(11) 0.6786(10) 0.0505(18)
C10_4 C 0.6410(6) 0.8560(5) 0.0494(14)
C11_4 C 0.6739(4) 0.8356(7) 0.1331(16)
H4_4 H 0.719991 0.864197 0.150460
C12_4 C 0.6381(6) 0.7724(8) 0.1909(17)
C13_4 C 0.5692(6) 0.7296(6) 0.1650(16)
H5_4 H 0.545224 0.687328 0.203720
C14_4 C 0.5363(5) 0.7500(6) 0.0813(14)
C15_4 C 0.5721(6) 0.8132(6) 0.0235(13)
C16_4 C 0.6774(12) 0.7512(11) 0.287(3)
C17_4 C 0.3629(11) 0.5918(11) 0.035(3)
C18_4 C 0.3188(12) 0.6185(12) 0.015(3)
C19_4 C 0.3489(12) 0.6891(11) 0.023(2)
C20_4 C 0.4182(10) 0.7313(11) 0.045(2)
H8_4 H 0.436234 0.778112 0.053020
C21_4 C 0.4606(11) 0.7037(11) 0.053(2)
C22_4 C 0.4327(10) 0.6348(11) 0.054(2)
H9_4 H 0.460538 0.615933 0.066627
N1_4 N 0.3350(14) 0.5217(13) 0.026(3)
O4_4 O 0.0843(10) 0.6168(7) 0.087(2)
O7_4 O 0.7339(12) 0.7902(12) 0.313(3)
O9_4 O 0.2700(12) 0.4832(10) 0.029(3)
O10_4 O 0.3738(16) 0.4985(16) 0.031(4)
H10_4 H 0.106053 0.613116 0.164158
C1_4 C 0.3227(10) 0.8850(9) 0.8878(10)
C2_4 C 0.2900(9) 0.8159(8) 0.93919(2)
C3_4 C 0.2206(11) 0.7815(10) 0.9692(12)
H1_4 H 0.194374 0.802087 0.956922
C7_4 C 0.3296(11) 0.7870(10) 0.9563(13)
H3_4 H 0.375418 0.812391 0.934241
C9_4 C 0.6782(11) 0.9211(10) 0.990(2)
H6_4 H 0.550091 0.826867 0.967544
H7_4 H 0.272696 0.590587 0.997246
O1_4 O 0.2826(6) 0.9116(6) 0.8847(15)
O2_4 O 0.3817(8) 0.9113(10) 0.853(2)
O6_4 O 0.7396(11) 0.9447(10) 0.956(2)
O13_4 O 0.3059(9) 0.9500(12) 0.649(2)
H11_4 H 0.742112 0.913044 0.895391
C1_5 C 0.4377(13) 0.3227(10) 0.5545(10)
C2_5 C 0.4741(12) 0.2900(9) 0.60586(2)
C3_5 C 0.4391(15) 0.2206(11) 0.6359(12)
H1_5 H 0.392287 0.194374 0.623589
C4_5 C 0.4780(17) 0.1896(12) 0.6874(14)
C5_5 C 0.5476(16) 0.2332(11) 0.7023(16)
H2_5 H 0.572822 0.214575 0.734505
C6_5 C 0.5848(14) 0.3059(10) 0.6720(15)
C7_5 C 0.5426(15) 0.3296(11) 0.6230(13)
H3_5 H 0.563027 0.375418 0.600908
C8_5 C 0.4362(15) 0.1148(11) 0.7172(18)
C9_5 C 0.7571(15) 0.6782(11) 0.657(2)
C10_5 C 0.7850(8) 0.6410(6) 0.7161(14)
C11_5 C 0.8383(8) 0.6739(4) 0.7998(16)
H4_5 H 0.855794 0.719991 0.817127
C12_5 C 0.8657(10) 0.6381(6) 0.8576(17)
C13_5 C 0.8396(8) 0.5692(6) 0.8317(16)
H5_5 H 0.857896 0.545224 0.870387
C14_5 C 0.7863(8) 0.5363(5) 0.7480(14)
C15_5 C 0.7589(8) 0.5721(6) 0.6902(13)
H6_5 H 0.723224 0.550091 0.634211
C16_5 C 0.9262(16) 0.6774(12) 0.954(3)
C17_5 C 0.7711(16) 0.3629(11) 0.702(3)
C18_5 C 0.7003(17) 0.3188(12) 0.682(3)
H7_5 H 0.682109 0.272696 0.663913
C19_5 C 0.6598(16) 0.3489(12) 0.690(2)
C20_5 C 0.6869(15) 0.4182(10) 0.712(2)
H8_5 H 0.658122 0.436234 0.719687
C21_5 C 0.7569(16) 0.4606(11) 0.720(2)
C22_5 C 0.7979(15) 0.4327(10) 0.721(2)
H9_5 H 0.844605 0.460538 0.733294
N1_5 N 0.8133(19) 0.3350(14) 0.693(3)
O1_5 O 0.3710(8) 0.2826(6) 0.5514(15)
O2_5 O 0.4704(13) 0.3817(8) 0.520(2)
O4_5 O 0.4675(12) 0.0843(10) 0.754(2)
O6_5 O 0.7949(15) 0.7396(11) 0.623(2)
O7_5 O 0.9437(17) 0.7339(12) 0.980(3)
O9_5 O 0.7868(16) 0.2700(12) 0.696(3)
O10_5 O 0.8753(23) 0.3738(16) 0.698(4)
O11_5 O 0.2908(14) 0.3788(11) 0.375(2)
H10_5 H 0.492937 0.106053 0.830825
H11_5 H 0.829068 0.742112 0.562058
C1_6 C 0.1150(9) 0.4377(13) 0.2211(10)
C2_6 C 0.1841(8) 0.4741(12) 0.27252(2)
C3_6 C 0.2185(10) 0.4391(15) 0.3025(12)
H1_6 H 0.197913 0.392287 0.290255
C4_6 C 0.2884(12) 0.4780(17) 0.3540(14)
C5_6 C 0.3144(11) 0.5476(16) 0.3689(16)
H2_6 H 0.358247 0.572822 0.401171
C6_6 C 0.2789(10) 0.5848(14) 0.3386(15)
C7_6 C 0.2130(10) 0.5426(15) 0.2896(13)
H3_6 H 0.187609 0.563027 0.267574
C8_6 C 0.3214(10) 0.4362(15) 0.3838(18)
C9_6 C 0.0789(10) 0.7571(15) 0.323(2)
C10_6 C 0.1440(5) 0.7850(8) 0.3827(14)
C11_6 C 0.1644(7) 0.8383(8) 0.4664(16)
H4_6 H 0.135803 0.855794 0.483793
C12_6 C 0.2276(8) 0.8657(10) 0.5242(17)
C13_6 C 0.2704(6) 0.8396(8) 0.4983(16)
H5_6 H 0.312672 0.857896 0.537053
C14_6 C 0.2500(6) 0.7863(8) 0.4146(14)
C15_6 C 0.1868(6) 0.7589(8) 0.3568(13)
H6_6 H 0.173133 0.723224 0.300877
C16_6 C 0.2488(11) 0.9262(16) 0.620(3)
C17_6 C 0.4082(11) 0.7711(16) 0.368(3)
C18_6 C 0.3815(12) 0.7003(17) 0.348(3)
H7_6 H 0.409413 0.682109 0.330579
C19_6 C 0.3109(11) 0.6598(16) 0.356(2)
C20_6 C 0.2687(11) 0.6869(15) 0.378(2)
H8_6 H 0.221888 0.658122 0.386353
C21_6 C 0.2963(11) 0.7569(16) 0.386(2)
C22_6 C 0.3652(11) 0.7979(15) 0.387(2)
H9_6 H 0.384067 0.844605 0.399960
N1_6 N 0.4783(13) 0.8133(19) 0.359(3)
O1_6 O 0.0884(6) 0.3710(8) 0.2180(15)
O2_6 O 0.0887(10) 0.4704(13) 0.186(2)
O4_6 O 0.3832(7) 0.4675(12) 0.420(2)
O6_6 O 0.0553(10) 0.7949(15) 0.289(2)
O7_6 O 0.2098(12) 0.9437(17) 0.646(3)
O9_6 O 0.5168(10) 0.7868(16) 0.362(3)
O10_6 O 0.5015(16) 0.8753(23) 0.364(4)
H10_6 H 0.386884 0.492937 0.497491
H11_6 H 0.086956 0.829068 0.228724
loop_
_geom_bond_atom_site_label_1
_geom_bond_atom_site_label_2
_geom_bond_site_symmetry_1
_geom_bond_site_symmetry_2
C5 C4 1_555 1_555
H2 C5 1_555 1_555
C6 C5 1_555 1_555
C8 C4 1_555 1_555
C10 C11 1_555 1_555
C11 H4 1_555 1_555
C12 C11 1_555 1_555
C13 C12 1_555 1_555
H5 C13 1_555 1_555
C14 C13 1_555 1_555
C15 C10 1_555 1_555
C16 C12 1_555 1_555
C17 C18 1_555 1_555
C19 C6 1_555 1_555
C20 C19 1_555 1_555
H8 C20 1_555 1_555
C21 C14 1_555 1_555
C22 C17 1_555 1_555
H9 C22 1_555 1_555
N1 C17 1_555 1_555
O3 C8 1_555 1_555
O4 C8 1_555 1_555
O7 C16 1_555 1_555
O8 C16 1_555 1_555
O9 N1 1_555 1_555
O10 N1 1_555 1_555
Cu3 O8 1_555 1_555
Cu4 O3 1_555 1_555
C14 C15 1_555 1_555
C18 C19 1_555 1_555
C20 C21 1_555 1_555
C21 C22 1_555 1_555
O4 H10 1_555 1_555
C1 C2 1_555 1_555
C2 C3 1_555 1_555
C3 H1 1_555 1_555
C7 C2 1_555 1_555
H3 C7 1_555 1_555
O1 C1 1_555 1_555
O2 C1 1_555 1_555
O5 C9 1_555 1_555
O6 C9 1_555 1_555
Cu2 O5 1_555 1_555
O6 H11 1_555 1_555
O11 Cu1 1_555 1_555
O12 Cu1 1_555 1_555
C1_2 C2_2 1_555 1_555
C2_2 C3_2 1_555 1_555
C3_2 H1_2 1_555 1_555
C4_2 C3_2 1_555 1_555
C5_2 C4_2 1_555 1_555
H2_2 C5_2 1_555 1_555
C6_2 C5_2 1_555 1_555
C7_2 C2_2 1_555 1_555
H3_2 C7_2 1_555 1_555
C8_2 C4_2 1_555 1_555
C9_2 C10_2 1_555 1_555
C10_2 C11_2 1_555 1_555
C11_2 H4_2 1_555 1_555
C12_2 C11_2 1_555 1_555
C13_2 C12_2 1_555 1_555
H5_2 C13_2 1_555 1_555
C14_2 C13_2 1_555 1_555
C15_2 C10_2 1_555 1_555
H6_2 C15_2 1_555 1_555
C16_2 C12_2 1_555 1_555
C17_2 C18_2 1_555 1_555
C18_2 H7_2 1_555 1_555
C19_2 C6_2 1_555 1_555
C20_2 C19_2 1_555 1_555
H8_2 C20_2 1_555 1_555
C21_2 C14_2 1_555 1_555
C22_2 C17_2 1_555 1_555
H9_2 C22_2 1_555 1_555
Cu1_2 O1_2 1_555 1_555
N1_2 C17_2 1_555 1_555
O1_2 C1_2 1_555 1_555
O2_2 C1_2 1_555 1_555
O11 C8_2 1_555 1_555
O4_2 C8_2 1_555 1_555
O5_2 C9_2 1_555 1_555
O6_2 C9_2 1_555 1_555
O7_2 C16_2 1_555 1_555
O8_2 C16_2 1_555 1_555
O9_2 N1_2 1_555 1_555
O10_2 N1_2 1_555 1_555
Cu3 O5_2 1_555 1_555
O11_2 Cu1_2 1_555 1_555
O12_2 Cu1_2 1_555 1_555
O13_2 Cu1_2 1_555 1_555
C6_2 C7_2 1_555 1_555
C14_2 C15_2 1_555 1_555
C18_2 C19_2 1_555 1_555
C20_2 C21_2 1_555 1_555
C21_2 C22_2 1_555 1_555
O4_2 H10_2 1_555 1_555
O6_2 H11_2 1_555 1_555
O11_3 Cu1_3 1_555 1_555
O12_3 Cu1_3 1_555 1_555
C1_3 C2_3 1_555 1_555
C2_3 C3_3 1_555 1_555
C3_3 H1_3 1_555 1_555
C4_3 C3_3 1_555 1_555
C5_3 C4_3 1_555 1_555
H2_3 C5_3 1_555 1_555
C6_3 C5_3 1_555 1_555
C7_3 C2_3 1_555 1_555
H3_3 C7_3 1_555 1_555
C8_3 C4_3 1_555 1_555
C9_3 C10_3 1_555 1_555
C10_3 C11_3 1_555 1_555
C11_3 H4_3 1_555 1_555
C12_3 C11_3 1_555 1_555
C13_3 C12_3 1_555 1_555
H5_3 C13_3 1_555 1_555
C14_3 C13_3 1_555 1_555
C15_3 C10_3 1_555 1_555
H6_3 C15_3 1_555 1_555
C16_3 C12_3 1_555 1_555
C17_3 C18_3 1_555 1_555
C18_3 H7_3 1_555 1_555
C19_3 C6_3 1_555 1_555
C20_3 C19_3 1_555 1_555
H8_3 C20_3 1_555 1_555
C21_3 C14_3 1_555 1_555
C22_3 C17_3 1_555 1_555
H9_3 C22_3 1_555 1_555
N1_3 C17_3 1_555 1_555
O1_3 C1_3 1_555 1_555
O2_3 C1_3 1_555 1_555
O11_2 C8_3 1_555 1_555
O4_3 C8_3 1_555 1_555
O5_3 C9_3 1_555 1_555
O6_3 C9_3 1_555 1_555
O7_3 C16_3 1_555 1_555
O13 C16_3 1_555 1_555
O9_3 N1_3 1_555 1_555
O10_3 N1_3 1_555 1_555
Cu4 O5_3 1_555 1_555
C6_3 C7_3 1_555 1_555
C14_3 C15_3 1_555 1_555
C18_3 C19_3 1_555 1_555
C20_3 C21_3 1_555 1_555
C21_3 C22_3 1_555 1_555
O4_3 H10_3 1_555 1_555
O6_3 H11_3 1_555 1_555
O11_4 Cu2 1_555 1_555
C5_4 C4_4 1_555 1_555
H2_4 C5_4 1_555 1_555
C6_4 C5_4 1_555 1_555
C8_4 C4_4 1_555 1_555
C10_4 C11_4 1_555 1_555
C11_4 H4_4 1_555 1_555
C12_4 C11_4 1_555 1_555
C13_4 C12_4 1_555 1_555
H5_4 C13_4 1_555 1_555
C14_4 C13_4 1_555 1_555
C15_4 C10_4 1_555 1_555
C16_4 C12_4 1_555 1_555
C17_4 C18_4 1_555 1_555
C19_4 C6_4 1_555 1_555
C20_4 C19_4 1_555 1_555
H8_4 C20_4 1_555 1_555
C21_4 C14_4 1_555 1_555
C22_4 C17_4 1_555 1_555
H9_4 C22_4 1_555 1_555
N1_4 C17_4 1_555 1_555
O11_3 C8_4 1_555 1_555
O4_4 C8_4 1_555 1_555
O7_4 C16_4 1_555 1_555
O13_2 C16_4 1_555 1_555
O9_4 N1_4 1_555 1_555
O10_4 N1_4 1_555 1_555
C14_4 C15_4 1_555 1_555
C18_4 C19_4 1_555 1_555
C20_4 C21_4 1_555 1_555
C21_4 C22_4 1_555 1_555
O4_4 H10_4 1_555 1_555
C1_4 C2_4 1_555 1_555
C2_4 C3_4 1_555 1_555
C3_4 H1_4 1_555 1_555
C7_4 C2_4 1_555 1_555
H3_4 C7_4 1_555 1_555
O1_4 C1_4 1_555 1_555
O2_4 C1_4 1_555 1_555
O12 C9_4 1_555 1_555
O6_4 C9_4 1_555 1_555
O6_4 H11_4 1_555 1_555
C1_5 C2_5 1_555 1_555
C2_5 C3_5 1_555 1_555
C3_5 H1_5 1_555 1_555
C4_5 C3_5 1_555 1_555
C5_5 C4_5 1_555 1_555
H2_5 C5_5 1_555 1_555
C6_5 C5_5 1_555 1_555
C7_5 C2_5 1_555 1_555
H3_5 C7_5 1_555 1_555
C8_5 C4_5 1_555 1_555
C9_5 C10_5 1_555 1_555
C10_5 C11_5 1_555 1_555
C11_5 H4_5 1_555 1_555
C12_5 C11_5 1_555 1_555
C13_5 C12_5 1_555 1_555
H5_5 C13_5 1_555 1_555
C14_5 C13_5 1_555 1_555
C15_5 C10_5 1_555 1_555
H6_5 C15_5 1_555 1_555
C16_5 C12_5 1_555 1_555
C17_5 C18_5 1_555 1_555
C18_5 H7_5 1_555 1_555
C19_5 C6_5 1_555 1_555
C20_5 C19_5 1_555 1_555
H8_5 C20_5 1_555 1_555
C21_5 C14_5 1_555 1_555
C22_5 C17_5 1_555 1_555
H9_5 C22_5 1_555 1_555
Cu3 O1_5 1_555 1_555
N1_5 C17_5 1_555 1_555
O1_5 C1_5 1_555 1_555
O2_5 C1_5 1_555 1_555
O11_4 C8_5 1_555 1_555
O4_5 C8_5 1_555 1_555
O12_2 C9_5 1_555 1_555
O6_5 C9_5 1_555 1_555
O7_5 C16_5 1_555 1_555
O13_3 C16_5 1_555 1_555
O9_5 N1_5 1_555 1_555
O10_5 N1_5 1_555 1_555
O11_5 Cu3 1_555 1_555
C6_5 C7_5 1_555 1_555
C14_5 C15_5 1_555 1_555
C18_5 C19_5 1_555 1_555
C20_5 C21_5 1_555 1_555
C21_5 C22_5 1_555 1_555
O4_5 H10_5 1_555 1_555
O6_5 H11_5 1_555 1_555
C1_6 C2_6 1_555 1_555
C2_6 C3_6 1_555 1_555
C3_6 H1_6 1_555 1_555
C4_6 C3_6 1_555 1_555
C5_6 C4_6 1_555 1_555
H2_6 C5_6 1_555 1_555
C6_6 C5_6 1_555 1_555
C7_6 C2_6 1_555 1_555
H3_6 C7_6 1_555 1_555
C8_6 C4_6 1_555 1_555
C9_6 C10_6 1_555 1_555
C10_6 C11_6 1_555 1_555
C11_6 H4_6 1_555 1_555
C12_6 C11_6 1_555 1_555
C13_6 C12_6 1_555 1_555
H5_6 C13_6 1_555 1_555
C14_6 C13_6 1_555 1_555
C15_6 C10_6 1_555 1_555
H6_6 C15_6 1_555 1_555
C16_6 C12_6 1_555 1_555
C17_6 C18_6 1_555 1_555
C18_6 H7_6 1_555 1_555
C19_6 C6_6 1_555 1_555
C20_6 C19_6 1_555 1_555
H8_6 C20_6 1_555 1_555
C21_6 C14_6 1_555 1_555
C22_6 C17_6 1_555 1_555
H9_6 C22_6 1_555 1_555
N1_6 C17_6 1_555 1_555
O1_6 C1_6 1_555 1_555
O2_6 C1_6 1_555 1_555
O11_5 C8_6 1_555 1_555
O4_6 C8_6 1_555 1_555
O12_3 C9_6 1_555 1_555
O6_6 C9_6 1_555 1_555
O7_6 C16_6 1_555 1_555
O13_4 C16_6 1_555 1_555
O9_6 N1_6 1_555 1_555
O10_6 N1_6 1_555 1_555
C6_6 C7_6 1_555 1_555
C14_6 C15_6 1_555 1_555
C18_6 C19_6 1_555 1_555
C20_6 C21_6 1_555 1_555
C21_6 C22_6 1_555 1_555
O4_6 H10_6 1_555 1_555
O6_6 H11_6 1_555 1_555

#END
