
###############################################################################
#
# This file contains modified crystal structure data generated from the
# MOF subset of the Cambridge Structural Database (CSD) v543 
# hosted by the Cambridge Crystallographic Data Centre (CCDC).
#
# This work is licensed under the Creative Commons
# Attribution-NonCommercial-ShareAlike 4.0 International License.
# To view a copy of this license, visit
# http://creativecommons.org/licenses/by-nc-sa/4.0/
# or send a letter to
# Creative Commons, PO Box 1866, Mountain View, CA 94042, USA.
#
# CIF created using the CSD Python API on 29 September 2022
# The structure has been converted into the P1 space group
# The structure has a 3D framework
# The original CSD entry QIVZED is in the monoclinic crystal system
# The framework has been calculated to contain at least 10.0% void space
# The void calculation uses a probe of radius 1.32A, grid spacing 0.4
#
###############################################################################

data_QIVZED
_chemical_formula_moiety         '(C128 H63 Cu10 F48 O41)n'
_symmetry_cell_setting           triclinic
_symmetry_space_group_name_H-M   'P 1'
_symmetry_Int_Tables_number      1
_space_group_name_Hall           'P 1'
loop_
_symmetry_equiv_pos_site_id
_symmetry_equiv_pos_as_xyz
1 x,y,z
_cell_length_a                   14.6342(11)
_cell_length_b                   30.307(2)
_cell_length_c                   10.6342(7)
_cell_angle_alpha                90
_cell_angle_beta                 109.888(8)
_cell_angle_gamma                90
_cell_volume                     4435.17
loop_
_atom_site_label
_atom_site_type_symbol
_atom_site_fract_x
_atom_site_fract_y
_atom_site_fract_z
Cu10 Cu 0.15870(7) 0.29797(3) 0.07580(8)
Cu1 Cu 0.22268(7) 0.28647(3) 0.80375(8)
O1 O 0.1218(4) 0.33059(17) 0.7573(4)
O2 O 0.0880(4) 0.34284(17) 0.9444(4)
C1 C 0.0788(5) 0.3513(2) 0.8240(7)
C2 C 0.0158(5) 0.3886(3) 0.7600(7)
C7 C 0.0189(6) 0.4058(3) 0.6421(8)
H7 H 0.0591 0.3925 0.5990
O13 O 0.3483(3) 0.26278(16) 0.8070(4)
O16 O 0.1205(3) 0.23372(17) 0.8337(4)
O17 O 0.1793(3) 0.26821(15) 0.6168(4)
O19 O 0.2616(3) 0.28791(15) 0.9999(4)
Cu7 Cu 0.27630(7) 0.22337(3) 0.03120(8)
Cu3 Cu 0.15870(7) 0.20203(3) 0.57580(8)
O8 O 0.0517(3) 0.19821(16) 0.6399(4)
H1 H 0.1188 0.2847 0.5658
O10 O 0.2616(3) 0.21209(15) 0.4999(4)
H2 H 0.3223 0.1949 0.5447
O11 O 0.2562(4) 0.16173(18) 0.7315(4)
H3 H 0.2507 0.1328 0.7099
H4 H 0.2434 0.1641 0.8083
C32 C 0.0497(5) 0.2144(2) 0.7491(6)
Cu6 Cu 0.22268(7) 0.21353(3) 0.30375(8)
Cu8 Cu 0.27630(7) 0.27663(3) 0.53120(8)
O12 O 0.0880(4) 0.15716(17) 0.4444(4)
F7 F 0.6959(5) 0.1398(2) 0.1137(7)
F8 F 0.7986(6) 0.1925(3) 0.1428(7)
O4 O 0.3047(5) 0.1371(2) 0.1962(5)
C10 C 0.2236(7) 0.0077(3) 0.0364(9)
C11 C 0.2623(7) 0.0487(3) 0.0873(9)
H8 H 0.3149 0.0503 0.1696
C12 C 0.2242(5) 0.0869(3) 0.0180(7)
C16 C 0.2643(6) 0.1313(3) 0.0757(7)
H11 H 0.5516 0.1843 0.0179
C24 C 0.7340(8) 0.1645(4) 0.0462(11)
O14 O 0.3483(3) 0.23722(16) 0.3070(4)
O18 O 0.1793(3) 0.23179(15) 0.1168(4)
F9 F 0.7882(4) 0.1419(2) 0.9984(6)
F10 F 0.6648(4) 0.1350(2) 0.6993(6)
F11 F 0.7405(4) 0.1275(3) 0.5657(7)
F12 F 0.6425(5) 0.1807(2) 0.5491(6)
O3 O 0.2472(3) 0.16229(15) 0.9897(4)
O5 O 0.3916(3) 0.21909(15) 0.9869(4)
C9 C 0.1465(6) 0.0048(3) 0.9138(8)
C13 C 0.1500(5) 0.0842(3) 0.8971(6)
H9 H 0.1265 0.1103 0.8470
C14 C 0.1095(6) 0.0440(3) 0.8478(8)
H10 H 0.0552 0.0431 0.7672
C17 C 0.4072(5) 0.2378(2) 0.8904(6)
C18 C 0.5024(5) 0.2291(2) 0.8729(6)
C19 C 0.5681(6) 0.2002(3) 0.9516(9)
C20 C 0.6579(6) 0.1929(3) 0.9394(9)
C21 C 0.6822(5) 0.2155(3) 0.8418(7)
C22 C 0.6204(5) 0.2474(3) 0.7694(7)
H12 H 0.6383 0.2643 0.7063
C23 C 0.5320(5) 0.2555(3) 0.7864(7)
H13 H 0.4917 0.2789 0.7392
C25 C 0.7797(5) 0.2109(3) 0.8199(7)
C26 C 0.7924(5) 0.1852(3) 0.7210(7)
C27 C 0.8812(5) 0.1855(2) 0.6975(7)
H14 H 0.8899 0.1674 0.6295
C28 C 0.9566(5) 0.2124(2) 0.7749(6)
C29 C 0.9417(5) 0.2381(3) 0.8740(7)
H15 H 0.9920 0.2571 0.9265
C30 C 0.8547(6) 0.2365(3) 0.8970(7)
H16 H 0.8466 0.2535 0.9675
C31 C 0.7115(6) 0.1577(3) 0.6317(9)
O7 O 0.1205(3) 0.26628(17) 0.3337(4)
O8_2 O 0.0517(3) 0.30179(16) 0.1399(4)
H1_2 H 0.1188 0.2153 0.0658
H2_2 H 0.3223 0.3051 0.0447
O11_2 O 0.2562(4) 0.33827(18) 0.2315(4)
H3_2 H 0.2507 0.3672 0.2099
H4_2 H 0.2434 0.3359 0.3083
C32_2 C 0.0497(5) 0.2856(2) 0.2491(6)
F1 F 0.1899(7) 0.5675(3) 0.0939(9)
F2 F 0.1389(8) 0.5023(3) 0.1067(9)
F3 F 0.2558(6) 0.5261(3) 0.2602(10)
F4 F 0.2962(7) 0.5630(3) 0.5498(11)
F5 F 0.2121(8) 0.5530(3) 0.6711(9)
F6 F 0.3509(8) 0.5216(3) 0.7281(11)
F7_2 F 0.6959(5) 0.3602(2) 0.6137(7)
F8_2 F 0.7986(6) 0.3075(3) 0.6428(7)
F9_2 F 0.7882(4) 0.3581(2) 0.4984(6)
F10_2 F 0.6648(4) 0.3650(2) 0.1993(6)
F11_2 F 0.7405(4) 0.3725(3) 0.0657(7)
F12_2 F 0.6425(5) 0.3193(2) 0.0491(6)
O3_2 O 0.2472(3) 0.33771(15) 0.4897(4)
O4_2 O 0.3047(5) 0.3629(2) 0.6962(5)
O5_2 O 0.3916(3) 0.28091(15) 0.4869(4)
C3 C 0.0466(6) 0.5933(3) 0.1832(8)
H5 H 0.0505 0.6058 0.1031
C4 C 0.1046(6) 0.5571(3) 0.2397(8)
C5 C 0.0978(6) 0.5370(3) 0.3569(8)
C6 C 0.0358(6) 0.5578(3) 0.4138(8)
H6 H 0.0314 0.5463 0.4946
C8 C 0.1726(12) 0.5409(5) 0.1770(16)
C9_2 C 0.1465(6) 0.4952(3) 0.4138(8)
C10_2 C 0.2236(7) 0.4923(3) 0.5364(9)
C11_2 C 0.2623(7) 0.4513(3) 0.5873(9)
H8_2 H 0.3149 0.4497 0.6696
C12_2 C 0.2242(5) 0.4131(3) 0.5180(7)
C13_2 C 0.1500(5) 0.4158(3) 0.3971(6)
H9_2 H 0.1265 0.3897 0.3470
C14_2 C 0.1095(6) 0.4560(3) 0.3478(8)
H10_2 H 0.0552 0.4569 0.2672
C15 C 0.2669(12) 0.5309(5) 0.6216(16)
C16_2 C 0.2643(6) 0.3687(3) 0.5757(7)
C17_2 C 0.4072(5) 0.2622(2) 0.3904(6)
C18_2 C 0.5024(5) 0.2709(2) 0.3729(6)
C19_2 C 0.5681(6) 0.2998(3) 0.4516(9)
H11_2 H 0.5516 0.3157 0.5179
C20_2 C 0.6579(6) 0.3071(3) 0.4394(9)
C21_2 C 0.6822(5) 0.2845(3) 0.3418(7)
C22_2 C 0.6204(5) 0.2526(3) 0.2694(7)
H12_2 H 0.6383 0.2357 0.2063
C23_2 C 0.5320(5) 0.2445(3) 0.2864(7)
H13_2 H 0.4917 0.2211 0.2392
C24_2 C 0.7340(8) 0.3355(4) 0.5462(11)
C25_2 C 0.7797(5) 0.2891(3) 0.3199(7)
C26_2 C 0.7924(5) 0.3148(3) 0.2210(7)
C27_2 C 0.8812(5) 0.3145(2) 0.1975(7)
H14_2 H 0.8899 0.3326 0.1295
C28_2 C 0.9566(5) 0.2876(2) 0.2749(6)
C29_2 C 0.9417(5) 0.2619(3) 0.3740(7)
H15_2 H 0.9920 0.2429 0.4265
C30_2 C 0.8547(6) 0.2635(3) 0.3970(7)
H16_2 H 0.8466 0.2465 0.4675
C31_2 C 0.7115(6) 0.3423(3) 0.1317(9)
O1_2 O 0.1218(4) 0.16941(17) 0.2573(4)
C1_2 C 0.0788(5) 0.1487(2) 0.3240(7)
C2_2 C 0.0158(5) 0.1114(3) 0.2600(7)
C7_2 C 0.0189(6) 0.0942(3) 0.1421(8)
H7_2 H 0.0591 0.1075 0.0990
Cu2 Cu 0.72370(7) 0.72337(3) 0.46880(8)
F1_2 F 0.8101(7) 0.4325(3) 0.9061(9)
F2_2 F 0.8611(8) 0.4977(3) 0.8933(9)
F3_2 F 0.7442(6) 0.4739(3) 0.7398(10)
F4_2 F 0.7038(7) 0.4370(3) 0.4502(11)
F5_2 F 0.7879(8) 0.4470(3) 0.3289(9)
F6_2 F 0.6491(8) 0.4784(3) 0.2719(11)
F7_3 F 0.3041(5) 0.6398(2) 0.3863(7)
F8_3 F 0.2014(6) 0.6925(3) 0.3572(7)
F9_3 F 0.2118(4) 0.6419(2) 0.5016(6)
F10_3 F 0.3352(4) 0.6350(2) 0.8007(6)
F11_3 F 0.2595(4) 0.6275(3) 0.9343(7)
F12_3 F 0.3575(5) 0.6807(2) 0.9509(6)
O3_3 O 0.7528(3) 0.66229(15) 0.5103(4)
O4_3 O 0.6953(5) 0.6371(2) 0.3038(5)
O5_3 O 0.6084(3) 0.71909(15) 0.5131(4)
O6 O 0.6517(3) 0.76278(16) 0.6930(4)
C3_2 C 0.9534(6) 0.4067(3) 0.8168(8)
H5_2 H 0.9495 0.3942 0.8969
C4_2 C 0.8954(6) 0.4429(3) 0.7603(8)
C5_2 C 0.9022(6) 0.4630(3) 0.6431(8)
C6_2 C 0.9642(6) 0.4422(3) 0.5862(8)
H6_2 H 0.9686 0.4537 0.5054
C8_2 C 0.8274(12) 0.4591(5) 0.8230(16)
C9_3 C 0.8535(6) 0.5048(3) 0.5862(8)
C10_3 C 0.7764(7) 0.5077(3) 0.4636(9)
C11_3 C 0.7377(7) 0.5487(3) 0.4127(9)
H8_3 H 0.6851 0.5503 0.3304
C12_3 C 0.7758(5) 0.5869(3) 0.4820(7)
C13_3 C 0.8500(5) 0.5842(3) 0.6029(6)
H9_3 H 0.8735 0.6103 0.6530
C14_3 C 0.8905(6) 0.5440(3) 0.6522(8)
H10_3 H 0.9448 0.5431 0.7328
C15_2 C 0.7331(12) 0.4691(5) 0.3784(16)
C16_3 C 0.7357(6) 0.6313(3) 0.4243(7)
C17_3 C 0.5928(5) 0.7378(2) 0.6096(6)
C18_3 C 0.4976(5) 0.7291(2) 0.6271(6)
C19_3 C 0.4319(6) 0.7002(3) 0.5484(9)
H11_3 H 0.4484 0.6843 0.4821
C20_3 C 0.3421(6) 0.6929(3) 0.5606(9)
C21_3 C 0.3178(5) 0.7155(3) 0.6582(7)
C22_3 C 0.3796(5) 0.7474(3) 0.7306(7)
H12_3 H 0.3617 0.7643 0.7937
C23_3 C 0.4680(5) 0.7555(3) 0.7136(7)
H13_3 H 0.5083 0.7789 0.7608
C24_3 C 0.2660(8) 0.6645(4) 0.4538(11)
C25_3 C 0.2203(5) 0.7109(3) 0.6801(7)
C26_3 C 0.2076(5) 0.6852(3) 0.7790(7)
C27_3 C 0.1188(5) 0.6855(2) 0.8025(7)
H14_3 H 0.1101 0.6674 0.8705
C28_3 C 0.0434(5) 0.7124(2) 0.7251(6)
C29_3 C 0.0583(5) 0.7381(3) 0.6260(7)
H15_3 H 0.0080 0.7571 0.5735
C30_3 C 0.1453(6) 0.7365(3) 0.6030(7)
H16_3 H 0.1534 0.7535 0.5325
C31_3 C 0.2885(6) 0.6577(3) 0.8683(9)
Cu5 Cu 0.77732(7) 0.78647(3) 0.69625(8)
Cu9 Cu 0.72370(7) 0.77663(3) 0.96880(8)
O14_2 O 0.6517(3) 0.73722(16) 0.1930(4)
O15 O 0.8795(3) 0.73372(17) 0.6663(4)
O18_2 O 0.8207(3) 0.73179(15) 0.3832(4)
O20 O 0.7384(3) 0.78791(15) 0.5001(4)
O10_2 O 0.7384(3) 0.71209(15) 0.0001(4)
Cu6_2 Cu 0.77732(7) 0.71353(3) 0.19625(8)
O12_2 O 0.9120(4) 0.65716(17) 0.0556(4)
Cu3_2 Cu 0.84130(7) 0.70203(3) 0.92420(8)
O8_3 O 0.9483(3) 0.69821(16) 0.8601(4)
O9 O 0.8207(3) 0.76821(15) 0.8832(4)
H1_3 H 0.8812 0.7847 0.9342
H2_3 H 0.6777 0.6949 0.9553
O11_3 O 0.7438(4) 0.66173(18) 0.7685(4)
H3_3 H 0.7493 0.6328 0.7901
H4_3 H 0.7566 0.6641 0.6917
C32_3 C 0.9503(5) 0.7144(2) 0.7509(6)
O1_3 O 0.8782(4) 0.83059(17) 0.7427(4)
O2_2 O 0.9120(4) 0.84284(17) 0.5556(4)
C1_3 C 0.9212(5) 0.8513(2) 0.6760(7)
C2_3 C 0.9842(5) 0.8886(3) 0.7400(7)
C7_3 C 0.9811(6) 0.9058(3) 0.8579(8)
H7_3 H 0.9409 0.8925 0.9010
Cu10_2 Cu 0.84130(7) 0.79797(3) 0.42420(8)
O1_4 O 0.8782(4) 0.66941(17) 0.2427(4)
C1_4 C 0.9212(5) 0.6487(2) 0.1760(7)
C2_4 C 0.9842(5) 0.6114(3) 0.2400(7)
C7_4 C 0.9811(6) 0.5942(3) 0.3579(8)
H7_4 H 0.9409 0.6075 0.4010
O16_2 O 0.8795(3) 0.76628(17) 0.1663(4)
F9_4 F 0.2118(4) 0.8581(2) 0.0016(6)
F10_4 F 0.3352(4) 0.8650(2) 0.3007(6)
F11_4 F 0.2595(4) 0.8725(3) 0.4343(7)
F12_4 F 0.3575(5) 0.8193(2) 0.4509(6)
O3_4 O 0.7528(3) 0.83771(15) 0.0103(4)
O5_4 O 0.6084(3) 0.78091(15) 0.0131(4)
C9_4 C 0.8535(6) 0.9952(3) 0.0862(8)
C13_4 C 0.8500(5) 0.9158(3) 0.1029(6)
H9_4 H 0.8735 0.8897 0.1530
C14_4 C 0.8905(6) 0.9560(3) 0.1522(8)
H10_4 H 0.9448 0.9569 0.2328
C17_4 C 0.5928(5) 0.7622(2) 0.1096(6)
C18_4 C 0.4976(5) 0.7709(2) 0.1271(6)
C19_4 C 0.4319(6) 0.7998(3) 0.0484(9)
C20_4 C 0.3421(6) 0.8071(3) 0.0606(9)
C21_4 C 0.3178(5) 0.7845(3) 0.1582(7)
C22_4 C 0.3796(5) 0.7526(3) 0.2306(7)
H12_4 H 0.3617 0.7357 0.2937
C23_4 C 0.4680(5) 0.7445(3) 0.2136(7)
H13_4 H 0.5083 0.7211 0.2608
C25_4 C 0.2203(5) 0.7891(3) 0.1801(7)
C26_4 C 0.2076(5) 0.8148(3) 0.2790(7)
C27_4 C 0.1188(5) 0.8145(2) 0.3025(7)
H14_4 H 0.1101 0.8326 0.3705
C28_4 C 0.0434(5) 0.7876(2) 0.2251(6)
C29_4 C 0.0583(5) 0.7619(3) 0.1260(7)
H15_4 H 0.0080 0.7429 0.0735
C30_4 C 0.1453(6) 0.7635(3) 0.1030(7)
H16_4 H 0.1534 0.7465 0.0325
C31_4 C 0.2885(6) 0.8423(3) 0.3683(9)
F7_4 F 0.3041(5) 0.8602(2) 0.8863(7)
F8_4 F 0.2014(6) 0.8075(3) 0.8572(7)
O4_4 O 0.6953(5) 0.8629(2) 0.8038(5)
C10_4 C 0.7764(7) 0.9923(3) 0.9636(9)
C11_4 C 0.7377(7) 0.9513(3) 0.9127(9)
H8_4 H 0.6851 0.9497 0.8304
C12_4 C 0.7758(5) 0.9131(3) 0.9820(7)
C16_4 C 0.7357(6) 0.8687(3) 0.9243(7)
H11_4 H 0.4484 0.8157 0.9821
C24_4 C 0.2660(8) 0.8355(4) 0.9538(11)
O8_4 O 0.9483(3) 0.80179(16) 0.3601(4)
H1_4 H 0.8812 0.7153 0.4342
H2_4 H 0.6777 0.8051 0.4553
O11_4 O 0.7438(4) 0.83827(18) 0.2685(4)
H3_4 H 0.7493 0.8672 0.2901
H4_4 H 0.7566 0.8359 0.1917
C32_4 C 0.9503(5) 0.7856(2) 0.2509(6)
F4_3 F 0.2962(7) 0.9370(3) 0.0498(11)
F5_3 F 0.2121(8) 0.9470(3) 0.1711(9)
F6_3 F 0.3509(8) 0.9784(3) 0.2281(11)
C15_3 C 0.2669(12) 0.9691(5) 0.1216(16)
F1_3 F 0.1899(7) 0.9325(3) 0.5939(9)
F2_3 F 0.1389(8) 0.9977(3) 0.6067(9)
F3_3 F 0.2558(6) 0.9739(3) 0.7602(10)
C3_3 C 0.0466(6) 0.9067(3) 0.6832(8)
H5_3 H 0.0505 0.8942 0.6031
C4_3 C 0.1046(6) 0.9429(3) 0.7397(8)
C5_3 C 0.0978(6) 0.9630(3) 0.8569(8)
C6_3 C 0.0358(6) 0.9422(3) 0.9138(8)
H6_3 H 0.0314 0.9537 0.9946
C8_3 C 0.1726(12) 0.9591(5) 0.6770(16)
F1_4 F 0.8101(7) 0.0675(3) 0.4061(9)
F2_4 F 0.8611(8) 0.0023(3) 0.3933(9)
F3_4 F 0.7442(6) 0.0261(3) 0.2398(10)
C3_4 C 0.9534(6) 0.0933(3) 0.3168(8)
H5_4 H 0.9495 0.1058 0.3969
C4_4 C 0.8954(6) 0.0571(3) 0.2603(8)
C5_4 C 0.9022(6) 0.0370(3) 0.1431(8)
C6_4 C 0.9642(6) 0.0578(3) 0.0862(8)
H6_4 H 0.9686 0.0463 0.0054
C8_4 C 0.8274(12) 0.0409(5) 0.3230(16)
F4_4 F 0.7038(7) 0.0630(3) 0.9502(11)
F5_4 F 0.7879(8) 0.0530(3) 0.8289(9)
F6_4 F 0.6491(8) 0.0216(3) 0.7719(11)
C15_4 C 0.7331(12) 0.0309(5) 0.8784(16)
loop_
_geom_bond_atom_site_label_1
_geom_bond_atom_site_label_2
_geom_bond_site_symmetry_1
_geom_bond_site_symmetry_2
Cu1 O1 1_555 1_555
O1 C1 1_555 1_555
O2 C1 1_555 1_555
C1 C2 1_555 1_555
C7 C2 1_555 1_555
H7 C7 1_555 1_555
O13 Cu1 1_555 1_555
O16 Cu1 1_555 1_555
O17 Cu1 1_555 1_555
O19 Cu1 1_555 1_555
Cu3 O8 1_555 1_555
O16 C32 1_555 1_555
O8 C32 1_555 1_555
O17 Cu3 1_555 1_555
H1 O17 1_555 1_555
O10 Cu3 1_555 1_555
H2 O10 1_555 1_555
O11 Cu3 1_555 1_555
H3 O11 1_555 1_555
H4 O11 1_555 1_555
Cu6 O10 1_555 1_555
Cu8 O17 1_555 1_555
O12 Cu3 1_555 1_555
O10 Cu8 1_555 1_555
F7 C24 1_555 1_555
F8 C24 1_555 1_555
O4 C16 1_555 1_555
C11 C10 1_555 1_555
H8 C11 1_555 1_555
C12 C11 1_555 1_555
C16 C12 1_555 1_555
O14 Cu7 1_555 1_555
O18 Cu7 1_555 1_555
F10 C31 1_555 1_555
F11 C31 1_555 1_555
F12 C31 1_555 1_555
O13 C17 1_555 1_555
H9 C13 1_555 1_555
C14 C9 1_555 1_555
H10 C14 1_555 1_555
C17 O5 1_555 1_555
C18 C17 1_555 1_555
C19 C18 1_555 1_555
C20 C19 1_555 1_555
C21 C20 1_555 1_555
C22 C21 1_555 1_555
H12 C22 1_555 1_555
C23 C18 1_555 1_555
H13 C23 1_555 1_555
C25 C21 1_555 1_555
C26 C25 1_555 1_555
C27 C26 1_555 1_555
H14 C27 1_555 1_555
C28 C27 1_555 1_555
C29 C28 1_555 1_555
H15 C29 1_555 1_555
C30 C25 1_555 1_555
H16 C30 1_555 1_555
C31 C26 1_555 1_555
Cu8 O13 1_555 1_555
C13 C14 1_555 1_555
C22 C23 1_555 1_555
C29 C30 1_555 1_555
Cu10 O8_2 1_555 1_555
O7 C32_2 1_555 1_555
O8_2 C32_2 1_555 1_555
O18 Cu10 1_555 1_555
H1_2 O18 1_555 1_555
O11_2 Cu10 1_555 1_555
H3_2 O11_2 1_555 1_555
H4_2 O11_2 1_555 1_555
Cu6 O7 1_555 1_555
Cu8 O7 1_555 1_555
O18 Cu6 1_555 1_555
Cu8 O3_2 1_555 1_555
F1 C8 1_555 1_555
F2 C8 1_555 1_555
F3 C8 1_555 1_555
F4 C15 1_555 1_555
F5 C15 1_555 1_555
F6 C15 1_555 1_555
F7_2 C24_2 1_555 1_555
F8_2 C24_2 1_555 1_555
F9_2 C24_2 1_555 1_555
F10_2 C31_2 1_555 1_555
F11_2 C31_2 1_555 1_555
F12_2 C31_2 1_555 1_555
O3_2 C16_2 1_555 1_555
O4_2 C16_2 1_555 1_555
O5_2 Cu8 1_555 1_555
O14 C17_2 1_555 1_555
C3 H5 1_555 1_555
C4 C3 1_555 1_555
C5 C4 1_555 1_555
C6 C5 1_555 1_555
H6 C6 1_555 1_555
C8 C4 1_555 1_555
C9_2 C5 1_555 1_555
C10_2 C9_2 1_555 1_555
C11_2 C10_2 1_555 1_555
H8_2 C11_2 1_555 1_555
C12_2 C11_2 1_555 1_555
C13_2 C12_2 1_555 1_555
H9_2 C13_2 1_555 1_555
C14_2 C9_2 1_555 1_555
H10_2 C14_2 1_555 1_555
C15 C10_2 1_555 1_555
C16_2 C12_2 1_555 1_555
C17_2 O5_2 1_555 1_555
C18_2 C17_2 1_555 1_555
C19_2 C18_2 1_555 1_555
H11_2 C19_2 1_555 1_555
C20_2 C19_2 1_555 1_555
C21_2 C20_2 1_555 1_555
C22_2 C21_2 1_555 1_555
H12_2 C22_2 1_555 1_555
C23_2 C18_2 1_555 1_555
H13_2 C23_2 1_555 1_555
C24_2 C20_2 1_555 1_555
C25_2 C21_2 1_555 1_555
C26_2 C25_2 1_555 1_555
C27_2 C26_2 1_555 1_555
H14_2 C27_2 1_555 1_555
C28_2 C27_2 1_555 1_555
C29_2 C28_2 1_555 1_555
H15_2 C29_2 1_555 1_555
C30_2 C25_2 1_555 1_555
H16_2 C30_2 1_555 1_555
C31_2 C26_2 1_555 1_555
Cu6 O14 1_555 1_555
C13_2 C14_2 1_555 1_555
C22_2 C23_2 1_555 1_555
C29_2 C30_2 1_555 1_555
Cu6 O1_2 1_555 1_555
O1_2 C1_2 1_555 1_555
O12 C1_2 1_555 1_555
C1_2 C2_2 1_555 1_555
C7_2 C2_2 1_555 1_555
H7_2 C7_2 1_555 1_555
Cu2 O3_3 1_555 1_555
F1_2 C8_2 1_555 1_555
F2_2 C8_2 1_555 1_555
F3_2 C8_2 1_555 1_555
F4_2 C15_2 1_555 1_555
F5_2 C15_2 1_555 1_555
F6_2 C15_2 1_555 1_555
F7_3 C24_3 1_555 1_555
F8_3 C24_3 1_555 1_555
F9_3 C24_3 1_555 1_555
F10_3 C31_3 1_555 1_555
F11_3 C31_3 1_555 1_555
F12_3 C31_3 1_555 1_555
O3_3 C16_3 1_555 1_555
O4_3 C16_3 1_555 1_555
O5_3 Cu2 1_555 1_555
O6 C17_3 1_555 1_555
C3_2 H5_2 1_555 1_555
C4_2 C3_2 1_555 1_555
C5_2 C4_2 1_555 1_555
C6_2 C5_2 1_555 1_555
H6_2 C6_2 1_555 1_555
C8_2 C4_2 1_555 1_555
C9_3 C5_2 1_555 1_555
C10_3 C9_3 1_555 1_555
C11_3 C10_3 1_555 1_555
H8_3 C11_3 1_555 1_555
C12_3 C11_3 1_555 1_555
C13_3 C12_3 1_555 1_555
H9_3 C13_3 1_555 1_555
C14_3 C9_3 1_555 1_555
H10_3 C14_3 1_555 1_555
C15_2 C10_3 1_555 1_555
C16_3 C12_3 1_555 1_555
C17_3 O5_3 1_555 1_555
C18_3 C17_3 1_555 1_555
C19_3 C18_3 1_555 1_555
H11_3 C19_3 1_555 1_555
C20_3 C19_3 1_555 1_555
C21_3 C20_3 1_555 1_555
C22_3 C21_3 1_555 1_555
H12_3 C22_3 1_555 1_555
C23_3 C18_3 1_555 1_555
H13_3 C23_3 1_555 1_555
C24_3 C20_3 1_555 1_555
C25_3 C21_3 1_555 1_555
C26_3 C25_3 1_555 1_555
C27_3 C26_3 1_555 1_555
H14_3 C27_3 1_555 1_555
C28_3 C27_3 1_555 1_555
C29_3 C28_3 1_555 1_555
H15_3 C29_3 1_555 1_555
C30_3 C25_3 1_555 1_555
H16_3 C30_3 1_555 1_555
C31_3 C26_3 1_555 1_555
Cu5 O6 1_555 1_555
Cu9 O6 1_555 1_555
O14_2 Cu2 1_555 1_555
O15 Cu2 1_555 1_555
O18_2 Cu2 1_555 1_555
O20 Cu2 1_555 1_555
C13_3 C14_3 1_555 1_555
C22_3 C23_3 1_555 1_555
C29_3 C30_3 1_555 1_555
Cu5 O15 1_555 1_555
Cu5 O20 1_555 1_555
Cu6_2 O10_2 1_555 1_555
Cu3_2 O8_3 1_555 1_555
O15 C32_3 1_555 1_555
O8_3 C32_3 1_555 1_555
O9 Cu3_2 1_555 1_555
H1_3 O9 1_555 1_555
O11_3 Cu3_2 1_555 1_555
H3_3 O11_3 1_555 1_555
H4_3 O11_3 1_555 1_555
Cu9 O9 1_555 1_555
O9 Cu5 1_555 1_555
Cu5 O1_3 1_555 1_555
O1_3 C1_3 1_555 1_555
O2_2 C1_3 1_555 1_555
C1_3 C2_3 1_555 1_555
C7_3 C2_3 1_555 1_555
H7_3 C7_3 1_555 1_555
Cu10_2 O2_2 1_555 1_555
Cu10_2 O20 1_555 1_555
Cu6_2 O1_4 1_555 1_555
O1_4 C1_4 1_555 1_555
O12_2 C1_4 1_555 1_555
C1_4 C2_4 1_555 1_555
C7_4 C2_4 1_555 1_555
H7_4 C7_4 1_555 1_555
O14_2 Cu6_2 1_555 1_555
O16_2 Cu6_2 1_555 1_555
O18_2 Cu6_2 1_555 1_555
F10_4 C31_4 1_555 1_555
F11_4 C31_4 1_555 1_555
F12_4 C31_4 1_555 1_555
O14_2 C17_4 1_555 1_555
H9_4 C13_4 1_555 1_555
C14_4 C9_4 1_555 1_555
H10_4 C14_4 1_555 1_555
C17_4 O5_4 1_555 1_555
C18_4 C17_4 1_555 1_555
C19_4 C18_4 1_555 1_555
C20_4 C19_4 1_555 1_555
C21_4 C20_4 1_555 1_555
C22_4 C21_4 1_555 1_555
H12_4 C22_4 1_555 1_555
C23_4 C18_4 1_555 1_555
H13_4 C23_4 1_555 1_555
C25_4 C21_4 1_555 1_555
C26_4 C25_4 1_555 1_555
C27_4 C26_4 1_555 1_555
H14_4 C27_4 1_555 1_555
C28_4 C27_4 1_555 1_555
C29_4 C28_4 1_555 1_555
H15_4 C29_4 1_555 1_555
C30_4 C25_4 1_555 1_555
H16_4 C30_4 1_555 1_555
C31_4 C26_4 1_555 1_555
C13_4 C14_4 1_555 1_555
C22_4 C23_4 1_555 1_555
C29_4 C30_4 1_555 1_555
F7_4 C24_4 1_555 1_555
F8_4 C24_4 1_555 1_555
O4_4 C16_4 1_555 1_555
C11_4 C10_4 1_555 1_555
H8_4 C11_4 1_555 1_555
C12_4 C11_4 1_555 1_555
C16_4 C12_4 1_555 1_555
Cu10_2 O8_4 1_555 1_555
O16_2 C32_4 1_555 1_555
O8_4 C32_4 1_555 1_555
O18_2 Cu10_2 1_555 1_555
H1_4 O18_2 1_555 1_555
H2_4 O20 1_555 1_555
O11_4 Cu10_2 1_555 1_555
H3_4 O11_4 1_555 1_555
H4_4 O11_4 1_555 1_555
F4_3 C15_3 1_555 1_555
F5_3 C15_3 1_555 1_555
F6_3 C15_3 1_555 1_555
F1_3 C8_3 1_555 1_555
F2_3 C8_3 1_555 1_555
F3_3 C8_3 1_555 1_555
C3_3 H5_3 1_555 1_555
C4_3 C3_3 1_555 1_555
C5_3 C4_3 1_555 1_555
C6_3 C5_3 1_555 1_555
H6_3 C6_3 1_555 1_555
C8_3 C4_3 1_555 1_555
F1_4 C8_4 1_555 1_555
F2_4 C8_4 1_555 1_555
F3_4 C8_4 1_555 1_555
C3_4 H5_4 1_555 1_555
C4_4 C3_4 1_555 1_555
C5_4 C4_4 1_555 1_555
C6_4 C5_4 1_555 1_555
H6_4 C6_4 1_555 1_555
C8_4 C4_4 1_555 1_555
F4_4 C15_4 1_555 1_555
F5_4 C15_4 1_555 1_555
F6_4 C15_4 1_555 1_555

#END
