
###############################################################################
#
# This file contains modified crystal structure data generated from the
# MOF subset of the Cambridge Structural Database (CSD) v543 
# hosted by the Cambridge Crystallographic Data Centre (CCDC).
#
# This work is licensed under the Creative Commons
# Attribution-NonCommercial-ShareAlike 4.0 International License.
# To view a copy of this license, visit
# http://creativecommons.org/licenses/by-nc-sa/4.0/
# or send a letter to
# Creative Commons, PO Box 1866, Mountain View, CA 94042, USA.
#
# CIF created using the CSD Python API on 29 September 2022
# The structure has been converted into the P1 space group
# The structure has a 3D framework
# The original CSD entry QIWBIK is in the triclinic crystal system
# The framework has been calculated to contain at least 10.0% void space
# The void calculation uses a probe of radius 1.32A, grid spacing 0.4
#
###############################################################################

data_QIWBIK
_chemical_formula_moiety         'C20 H24 N2 O16 P4 Zn4'
_symmetry_cell_setting           triclinic
_symmetry_space_group_name_H-M   'P 1'
_symmetry_Int_Tables_number      1
_space_group_name_Hall           'P 1'
loop_
_symmetry_equiv_pos_site_id
_symmetry_equiv_pos_as_xyz
1 x,y,z
_cell_length_a                   5.4607(3)
_cell_length_b                   8.5135(5)
_cell_length_c                   18.0158(11)
_cell_angle_alpha                87.6780(10)
_cell_angle_beta                 82.1720(10)
_cell_angle_gamma                81.0300(10)
_cell_volume                     819.437
loop_
_atom_site_label
_atom_site_type_symbol
_atom_site_fract_x
_atom_site_fract_y
_atom_site_fract_z
_atom_site_U_iso_or_equiv
_atom_site_thermal_displace_type
Zn7 Zn 0.04458(4) 0.89510(2) 0.16436(2) 0.0105 Uani
C13 C 0.4092(4) 0.9574(3) 0.37908(12) 0.0184 Uani
C14 C 0.4186(4) 0.8441(3) 0.32506(13) 0.0233 Uani
H15 H 0.295278 0.775783 0.329132 0.0280 Uiso
C15 C 0.6081(4) 0.8311(3) 0.26531(13) 0.0213 Uani
H16 H 0.612208 0.752992 0.228797 0.0260 Uiso
C16 C 0.2010(4) 0.9785(3) 0.44199(12) 0.0209 Uani
C17 C 0.0884(5) 0.8505(3) 0.47164(13) 0.0272 Uani
H17 H 0.148033 0.747265 0.452453 0.0330 Uiso
N2 N 0.7860(3) 0.9248(2) 0.25705(9) 0.0137 Uani
O20 O 0.0896(2) 0.24089(16) 0.05515(8) 0.0128 Uani
O18 O 0.2284(3) 0.06723(16) 0.16333(8) 0.0159 Uani
Zn2 Zn 0.76061(4) 0.35161(2) 0.04411(2) 0.0100 Uani
C19 C 0.2228(4) 0.3820(2) 0.17576(11) 0.0103 Uani
C20 C 0.3665(4) 0.3376(2) 0.24222(12) 0.0170 Uani
H19 H 0.301084 0.249048 0.270596 0.0250 Uiso
H20 H 0.544184 0.305727 0.224091 0.0250 Uiso
H21 H 0.346749 0.429472 0.274756 0.0250 Uiso
O11 O 0.2421(3) 0.69507(16) 0.18252(8) 0.0140 Uani
O12 O 0.5420(2) 0.19018(15) 0.07489(8) 0.0117 Uani
O13 O 0.1931(3) 0.58687(17) 0.05879(8) 0.0154 Uani
O15 O 0.6091(3) 0.52411(16) 0.11072(8) 0.0126 Uani
P3 P 0.32424(9) 0.55954(5) 0.12791(3) 0.0087 Uani
P4 P 0.27074(9) 0.20992(5) 0.11291(3) 0.0085 Uani
O10 O 0.8249(3) 0.90407(17) 0.08621(8) 0.0185 Uani
H22 H 0.836588 0.851721 0.053674 0.0220 Uiso
H23 H 0.727231 0.994880 0.081321 0.0220 Uiso
O16 O 0.9613(3) 0.41323(17) 0.20651(8) 0.0168 Uani
H24 H 0.872495 0.467115 0.172883 0.0200 Uiso
C11 C 0.7787(4) 0.0338(3) 0.30925(12) 0.0166 Uani
H13 H 0.904374 0.100603 0.303896 0.0200 Uiso
C12 C 0.5957(4) 0.0528(3) 0.37048(12) 0.0192 Uani
H14 H 0.597408 0.130871 0.406564 0.0230 Uiso
C18 C 0.1104(4) 0.1287(3) 0.47103(13) 0.0257 Uani
H18 H 0.185303 0.217710 0.451398 0.0310 Uiso
C3 C 0.5908(4) 0.0426(3) 0.62092(12) 0.0184 Uani
C4 C 0.5814(4) 0.1559(3) 0.67494(13) 0.0233 Uani
H3 H 0.704722 0.224217 0.670868 0.0280 Uiso
C5 C 0.3919(4) 0.1689(3) 0.73469(13) 0.0213 Uani
H4 H 0.387792 0.247008 0.771203 0.0260 Uiso
C6 C 0.7990(4) 0.0215(3) 0.55801(12) 0.0209 Uani
C9 C 0.9116(5) 0.1495(3) 0.52836(13) 0.0272 Uani
H8 H 0.851967 0.252735 0.547547 0.0330 Uiso
N1 N 0.2140(3) 0.0752(2) 0.74295(9) 0.0137 Uani
O2 O 0.1751(3) 0.09593(17) 0.91379(8) 0.0185 Uani
H10 H 0.163412 0.148279 0.946326 0.0220 Uiso
H11 H 0.272769 0.005120 0.918679 0.0220 Uiso
O8 O 0.0387(3) 0.58677(17) 0.79349(8) 0.0168 Uani
H12 H 0.127505 0.532885 0.827117 0.0200 Uiso
Zn9 Zn 0.23939(4) 0.64839(2) 0.95589(2) 0.0100 Uani
Zn5 Zn 0.95542(4) 0.10490(2) 0.83564(2) 0.0105 Uani
O1 O 0.7716(3) 0.93277(16) 0.83667(8) 0.0159 Uani
C7 C 0.7772(4) 0.6180(2) 0.82424(11) 0.0103 Uani
C8 C 0.6335(4) 0.6624(2) 0.75778(12) 0.0170 Uani
H5 H 0.698916 0.750952 0.729404 0.0250 Uiso
H6 H 0.455816 0.694273 0.775909 0.0250 Uiso
H7 H 0.653251 0.570528 0.725244 0.0250 Uiso
O3 O 0.7579(3) 0.30493(16) 0.81748(8) 0.0140 Uani
O4 O 0.4580(2) 0.80982(15) 0.92511(8) 0.0117 Uani
O5 O 0.8069(3) 0.41313(17) 0.94121(8) 0.0154 Uani
O6 O 0.9104(2) 0.75911(16) 0.94485(8) 0.0128 Uani
O7 O 0.3909(3) 0.47589(16) 0.88928(8) 0.0126 Uani
P1 P 0.67576(9) 0.44046(5) 0.87209(3) 0.0087 Uani
P2 P 0.72926(9) 0.79008(5) 0.88709(3) 0.0085 Uani
C1 C 0.2213(4) 0.9662(3) 0.69075(12) 0.0166 Uani
H1 H 0.095626 0.899397 0.696104 0.0200 Uiso
C2 C 0.4043(4) 0.9472(3) 0.62952(12) 0.0192 Uani
H2 H 0.402592 0.869129 0.593436 0.0230 Uiso
C10 C 0.8896(4) 0.8713(3) 0.52897(13) 0.0257 Uani
H9 H 0.814697 0.782290 0.548602 0.0310 Uiso
loop_
_atom_site_aniso_label
_atom_site_aniso_U_11
_atom_site_aniso_U_22
_atom_site_aniso_U_33
_atom_site_aniso_U_23
_atom_site_aniso_U_13
_atom_site_aniso_U_12
Zn7 0.00974 0.00757 0.01301 -0.00037 0.00182 -0.00077
C13 0.0123 0.0289 0.0117 0.0016 0.0012 0.0014
C14 0.0153 0.0337 0.021 -0.0022 0.0036 -0.0086
C15 0.0175 0.0276 0.0191 -0.0068 0.0021 -0.007
C16 0.0122 0.0387 0.01 0.0003 0.0009 -0.0001
C17 0.0234 0.0351 0.0196 -0.0006 0.0057 -0.0013
N2 0.0109 0.0164 0.0128 -0.0002 0.0004 -0.0004
O20 0.0072 0.0135 0.0171 -0.0035 -0.0028 0.002
O18 0.0185 0.0112 0.0196 0.0035 -0.0041 -0.007
Zn2 0.00681 0.0103 0.01167 0.00144 -0.00017 0.00087
C19 0.0074 0.0097 0.0134 0.0013 -0.0002 -0.0015
C20 0.0233 0.0144 0.0149 0.0041 -0.0089 -0.0036
O11 0.0162 0.0087 0.0161 -0.002 -0.0016 0.0015
O12 0.0057 0.0085 0.0203 -0.0006 -0.0003 -0.0002
O13 0.0158 0.0187 0.0115 0.0047 -0.0039 -0.0017
O15 0.0087 0.0104 0.0181 -0.0014 0.0014 -0.0017
P3 0.0083 0.0066 0.0107 0.00041 -0.00072 1e-05
P4 0.0059 0.0066 0.013 0.00065 -0.0013 -0.00075
O10 0.0209 0.0136 0.0196 -0.0073 -0.0072 0.0073
O16 0.0093 0.0205 0.0187 0.0009 0.0025 -0.0002
C11 0.0135 0.02 0.0157 -0.001 -0.0009 -0.0014
C12 0.0172 0.0254 0.0136 -0.0037 -0.0003 0.0006
C18 0.021 0.035 0.0183 0.0016 0.006 -0.0034
C3 0.0123 0.0289 0.0117 0.0016 0.0012 0.0014
C4 0.0153 0.0337 0.021 -0.0022 0.0036 -0.0086
C5 0.0175 0.0276 0.0191 -0.0068 0.0021 -0.007
C6 0.0122 0.0387 0.01 0.0003 0.0009 -0.0001
C9 0.0234 0.0351 0.0196 -0.0006 0.0057 -0.0013
N1 0.0109 0.0164 0.0128 -0.0002 0.0004 -0.0004
O2 0.0209 0.0136 0.0196 -0.0073 -0.0072 0.0073
O8 0.0093 0.0205 0.0187 0.0009 0.0025 -0.0002
Zn9 0.00681 0.0103 0.01167 0.00144 -0.00017 0.00087
Zn5 0.00974 0.00757 0.01301 -0.00037 0.00182 -0.00077
O1 0.0185 0.0112 0.0196 0.0035 -0.0041 -0.007
C7 0.0074 0.0097 0.0134 0.0013 -0.0002 -0.0015
C8 0.0233 0.0144 0.0149 0.0041 -0.0089 -0.0036
O3 0.0162 0.0087 0.0161 -0.002 -0.0016 0.0015
O4 0.0057 0.0085 0.0203 -0.0006 -0.0003 -0.0002
O5 0.0158 0.0187 0.0115 0.0047 -0.0039 -0.0017
O6 0.0072 0.0135 0.0171 -0.0035 -0.0028 0.002
O7 0.0087 0.0104 0.0181 -0.0014 0.0014 -0.0017
P1 0.0083 0.0066 0.0107 0.00041 -0.00072 1e-05
P2 0.0059 0.0066 0.013 0.00065 -0.0013 -0.00075
C1 0.0135 0.02 0.0157 -0.001 -0.0009 -0.0014
C2 0.0172 0.0254 0.0136 -0.0037 -0.0003 0.0006
C10 0.021 0.035 0.0183 0.0016 0.006 -0.0034
loop_
_geom_bond_atom_site_label_1
_geom_bond_atom_site_label_2
_geom_bond_site_symmetry_1
_geom_bond_site_symmetry_2
C14 C13 1_555 1_555
H15 C14 1_555 1_555
C15 C14 1_555 1_555
H16 C15 1_555 1_555
C16 C13 1_555 1_555
H17 C17 1_555 1_555
C15 N2 1_555 1_555
C16 C17 1_555 1_555
O18 P4 1_555 1_555
C19 C20 1_555 1_555
C20 H19 1_555 1_555
H20 C20 1_555 1_555
H21 C20 1_555 1_555
O11 P3 1_555 1_555
O12 Zn2 1_555 1_555
O13 P3 1_555 1_555
O20 P4 1_555 1_555
O15 Zn2 1_555 1_555
P3 C19 1_555 1_555
P4 C19 1_555 1_555
O11 Zn7 1_555 1_555
O12 P4 1_555 1_555
O15 P3 1_555 1_555
O10 H22 1_555 1_555
H23 O10 1_555 1_555
H24 O16 1_555 1_555
C11 H13 1_555 1_555
C12 C11 1_555 1_555
H14 C12 1_555 1_555
H18 C18 1_555 1_555
C4 C3 1_555 1_555
H3 C4 1_555 1_555
C5 C4 1_555 1_555
H4 C5 1_555 1_555
C6 C3 1_555 1_555
C9 C6 1_555 1_555
H8 C9 1_555 1_555
O2 H10 1_555 1_555
H11 O2 1_555 1_555
H12 O8 1_555 1_555
C5 N1 1_555 1_555
O1 P2 1_555 1_555
C7 C8 1_555 1_555
C8 H5 1_555 1_555
H6 C8 1_555 1_555
H7 C8 1_555 1_555
O3 P1 1_555 1_555
O4 P2 1_555 1_555
O5 P1 1_555 1_555
O6 P2 1_555 1_555
O7 P1 1_555 1_555
P1 C7 1_555 1_555
P2 C7 1_555 1_555
Zn9 O4 1_555 1_555
O3 Zn5 1_555 1_555
O7 Zn9 1_555 1_555
C1 H1 1_555 1_555
C2 C1 1_555 1_555
H2 C2 1_555 1_555
H9 C10 1_555 1_555

#END
