
###############################################################################
#
# This file contains modified crystal structure data generated from the
# MOF subset of the Cambridge Structural Database (CSD) v543 
# hosted by the Cambridge Crystallographic Data Centre (CCDC).
#
# This work is licensed under the Creative Commons
# Attribution-NonCommercial-ShareAlike 4.0 International License.
# To view a copy of this license, visit
# http://creativecommons.org/licenses/by-nc-sa/4.0/
# or send a letter to
# Creative Commons, PO Box 1866, Mountain View, CA 94042, USA.
#
# CIF created using the CSD Python API on 29 September 2022
# The structure has been converted into the P1 space group
# The structure has a 3D framework
# The original CSD entry QIWSUK is in the orthorhombic crystal system
# The framework has been calculated to contain at least 10.0% void space
# The void calculation uses a probe of radius 1.32A, grid spacing 0.4
#
###############################################################################

data_QIWSUK
_chemical_formula_moiety         '(C84 H68 N8 O16 Zn2)n'
_symmetry_cell_setting           triclinic
_symmetry_space_group_name_H-M   'P 1'
_symmetry_Int_Tables_number      1
_space_group_name_Hall           'P 1'
loop_
_symmetry_equiv_pos_site_id
_symmetry_equiv_pos_as_xyz
1 x,y,z
_cell_length_a                   10.0200(10)
_cell_length_b                   15.1945(15)
_cell_length_c                   13.6885(13)
_cell_angle_alpha                90
_cell_angle_beta                 90
_cell_angle_gamma                90
_cell_volume                     2084.06
loop_
_atom_site_label
_atom_site_type_symbol
_atom_site_fract_x
_atom_site_fract_y
_atom_site_fract_z
H6 H 0.3571 0.1786 0.0450
H14 H 0.5414 0.0778 0.0521
Zn1 Zn 0.07481(5) 0.2500 0.7500
N1 N 0.2153(2) 0.18546(15) 0.83312(17)
C6 C 0.2883(3) 0.12230(19) 0.7911(2)
H4 H 0.2708 0.1081 0.7247
C7 C 0.3870(3) 0.0771(2) 0.8387(2)
H5 H 0.4360 0.0325 0.8059
C8 C 0.4146(3) 0.09708(19) 0.9353(2)
C9 C 0.3406(3) 0.1628(2) 0.9789(2)
C10 C 0.2427(3) 0.20537(19) 0.9263(2)
H7 H 0.1928 0.2506 0.9573
C11 C 0.5220(3) 0.04750(18) 0.9896(3)
H15 H 0.6048 0.0469 0.9502
N3 N 0.2153(2) 0.31454(15) 0.66688(17)
H9 H 0.3952 0.9531 0.0498
C15 C 0.4780(3) 0.95250(18) 0.0104(3)
C16 C 0.5854(3) 0.90292(19) 0.0647(2)
C17 C 0.6130(3) 0.9229(2) 0.1613(2)
C18 C 0.7117(3) 0.87770(19) 0.2089(2)
N2 N 0.7847(2) 0.81454(15) 0.16688(17)
Zn3 Zn 0.92519(5) 0.7500 0.2500
C19 C 0.7573(3) 0.79463(19) 0.0737(2)
C20 C 0.6594(3) 0.8372(2) 0.0211(2)
H11 H 0.8072 0.7494 0.0427
H12 H 0.7292 0.8919 0.2753
H13 H 0.5640 0.9675 0.1941
C6_2 C 0.2883(3) 0.37770(19) 0.7089(2)
H4_2 H 0.2708 0.3919 0.7753
C7_2 C 0.3870(3) 0.4229(2) 0.6613(2)
H5_2 H 0.4360 0.4675 0.6941
C8_2 C 0.4146(3) 0.40292(19) 0.5647(2)
C9_2 C 0.3406(3) 0.3372(2) 0.5211(2)
H6_2 H 0.3571 0.3214 0.4550
C10_2 C 0.2427(3) 0.29463(19) 0.5737(2)
H7_2 H 0.1928 0.2494 0.5427
C11_2 C 0.5220(3) 0.45250(18) 0.5104(3)
H8 H 0.4586 0.5778 0.5521
H9_2 H 0.3952 0.5469 0.4502
C15_2 C 0.4780(3) 0.54750(18) 0.4896(3)
C16_2 C 0.5854(3) 0.59708(19) 0.4353(2)
C17_2 C 0.6130(3) 0.5771(2) 0.3387(2)
C18_2 C 0.7117(3) 0.62230(19) 0.2911(2)
N2_2 N 0.7847(2) 0.68546(15) 0.33312(17)
C19_2 C 0.7573(3) 0.70537(19) 0.4263(2)
C20_2 C 0.6594(3) 0.6628(2) 0.4789(2)
H10 H 0.6429 0.6786 0.5450
H11_2 H 0.8072 0.7506 0.4573
H12_2 H 0.7292 0.6081 0.2247
H13_2 H 0.5640 0.5325 0.3059
H14_2 H 0.5414 0.4222 0.4479
H15_2 H 0.6048 0.4531 0.5498
H8_2 H 0.4586 0.9222 0.9479
H10_2 H 0.6429 0.8214 0.9550
C4 C 0.7500 0.0000 0.4895(4)
H2 H 0.7500 0.0000 0.4201
C5 C 0.7500 0.0000 0.6906(3)
H3 H 0.7500 -0.0000 0.7600
C12 C 0.8356(4) 0.0555(3) 0.5397(3)
C13 C 0.8348(3) 0.0565(2) 0.6411(2)
C14 C 0.9263(3) 0.1211(2) 0.6957(2)
O3 O 0.9945(2) 0.16843(16) 0.65076(17)
O4 O 0.9945(2) 0.33157(16) 0.84924(17)
O5 O 0.9148(3) 0.1218(2) 0.7868(2)
H16 H 0.8948 0.0929 0.5047
O1 O 0.5055(2) 0.83157(16) 0.65076(17)
O2 O 0.5852(3) 0.8782(2) 0.7868(2)
C1 C 0.5737(3) 0.8789(2) 0.6957(2)
C2 C 0.6652(3) 0.9435(2) 0.6411(2)
C3 C 0.6644(4) 0.9445(3) 0.5397(3)
H1 H 0.6052 0.9071 0.5047
C4_2 C 0.7500 1.0000 0.4895(4)
H2_2 H 0.7500 1.0000 0.4201
C5_2 C 0.7500 1.0000 0.6906(3)
H3_2 H 0.7500 1.0000 0.7600
Zn2 Zn 0.42519(5) 0.7500 0.7500
H8_3 H 0.0414 0.0778 0.9479
N1_2 N 0.2847(2) 0.81454(15) 0.83312(17)
C6_3 C 0.2117(3) 0.87770(19) 0.7911(2)
H4_3 H 0.2292 0.8919 0.7247
C7_3 C 0.1130(3) 0.9229(2) 0.8387(2)
H5_3 H 0.0640 0.9675 0.8059
C8_3 C 0.0854(3) 0.90292(19) 0.9353(2)
C9_3 C 0.1594(3) 0.8372(2) 0.9789(2)
C10_3 C 0.2573(3) 0.79463(19) 0.9263(2)
H7_3 H 0.3072 0.7494 0.9573
O4_2 O 0.5055(2) 0.66843(16) 0.84924(17)
N3_2 N 0.2847(2) 0.68546(15) 0.66688(17)
O2_2 O 0.5852(3) 0.6218(2) 0.7132(2)
C1_2 C 0.5737(3) 0.6211(2) 0.8043(2)
C2_2 C 0.6652(3) 0.5565(2) 0.8589(2)
C3_2 C 0.6644(4) 0.5555(3) 0.9603(3)
H1_2 H 0.6052 0.5929 0.9953
C5_3 C 0.7500 0.5000 0.8094(3)
H3_3 H 0.7500 0.5000 0.7400
C12_2 C 0.8356(4) 0.4445(3) 0.9603(3)
C13_2 C 0.8348(3) 0.4435(2) 0.8589(2)
C14_2 C 0.9263(3) 0.3789(2) 0.8043(2)
O5_2 O 0.9148(3) 0.3782(2) 0.7132(2)
H16_2 H 0.8948 0.4071 0.9953
C6_4 C 0.2117(3) 0.62230(19) 0.7089(2)
H4_4 H 0.2292 0.6081 0.7753
C7_4 C 0.1130(3) 0.5771(2) 0.6613(2)
H5_4 H 0.0640 0.5325 0.6941
C8_4 C 0.0854(3) 0.59708(19) 0.5647(2)
C9_4 C 0.1594(3) 0.6628(2) 0.5211(2)
H6_3 H 0.1429 0.6786 0.4550
C10_4 C 0.2573(3) 0.70537(19) 0.5737(2)
H7_4 H 0.3072 0.7506 0.5427
H8_4 H 0.0414 0.4222 0.5521
H9_3 H 0.1048 0.4531 0.4502
C15_3 C 0.0220(3) 0.45250(18) 0.4896(3)
H9_4 H 0.1048 0.0469 0.0498
C15_4 C 0.0220(3) 0.04750(18) 0.0104(3)
H6_4 H 0.1429 0.8214 0.0450
C16_3 C 0.9146(3) 0.09708(19) 0.0647(2)
C17_3 C 0.8870(3) 0.0771(2) 0.1613(2)
C18_3 C 0.7883(3) 0.12230(19) 0.2089(2)
N2_3 N 0.7153(2) 0.18546(15) 0.16688(17)
Zn3_2 Zn 0.57481(5) 0.2500 0.2500
C19_3 C 0.7427(3) 0.20537(19) 0.0737(2)
C20_3 C 0.8406(3) 0.1628(2) 0.0211(2)
H11_3 H 0.6928 0.2506 0.0427
H12_3 H 0.7708 0.1081 0.2753
H13_3 H 0.9360 0.0325 0.1941
H14_3 H 0.9586 0.9222 0.0521
C11_3 C 0.9780(3) 0.54750(18) 0.5104(3)
C16_4 C 0.9146(3) 0.40292(19) 0.4353(2)
C17_4 C 0.8870(3) 0.4229(2) 0.3387(2)
C18_4 C 0.7883(3) 0.37770(19) 0.2911(2)
N2_4 N 0.7153(2) 0.31454(15) 0.33312(17)
C19_4 C 0.7427(3) 0.29463(19) 0.4263(2)
C20_4 C 0.8406(3) 0.3372(2) 0.4789(2)
H10_3 H 0.8571 0.3214 0.5450
H11_4 H 0.6928 0.2494 0.4573
H12_4 H 0.7708 0.3919 0.2247
H13_4 H 0.9360 0.4675 0.3059
H14_4 H 0.9586 0.5778 0.4479
H15_3 H 0.8952 0.5469 0.5498
O1_2 O 0.4945(2) 0.16843(16) 0.34924(17)
O2_3 O 0.4148(3) 0.1218(2) 0.2132(2)
C1_3 C 0.4263(3) 0.1211(2) 0.3043(2)
C2_3 C 0.3348(3) 0.0565(2) 0.3589(2)
C3_3 C 0.3356(4) 0.0555(3) 0.4603(3)
H1_3 H 0.3948 0.0929 0.4953
C4_3 C 0.2500 0.0000 0.5105(4)
H2_3 H 0.2500 -0.0000 0.5799
C5_4 C 0.2500 -0.0000 0.3094(3)
H3_4 H 0.2500 -0.0000 0.2400
C4_4 C 0.2500 1.0000 0.5105(4)
H2_4 H 0.2500 1.0000 0.5799
C5_5 C 0.2500 1.0000 0.3094(3)
H3_5 H 0.2500 1.0000 0.2400
C12_3 C 0.1644(4) 0.9445(3) 0.4603(3)
C13_3 C 0.1652(3) 0.9435(2) 0.3589(2)
C14_3 C 0.0737(3) 0.8789(2) 0.3043(2)
O3_2 O 0.0055(2) 0.83157(16) 0.34924(17)
O4_3 O 0.0055(2) 0.66843(16) 0.15076(17)
O5_3 O 0.0852(3) 0.8782(2) 0.2132(2)
H16_3 H 0.1052 0.9071 0.4953
O4_4 O 0.4945(2) 0.33157(16) 0.15076(17)
O2_4 O 0.4148(3) 0.3782(2) 0.2868(2)
C1_4 C 0.4263(3) 0.3789(2) 0.1957(2)
C2_4 C 0.3348(3) 0.4435(2) 0.1411(2)
C3_4 C 0.3356(4) 0.4445(3) 0.0397(3)
H1_4 H 0.3948 0.4071 0.0047
C5_6 C 0.2500 0.5000 0.1906(3)
H3_6 H 0.2500 0.5000 0.2600
C12_4 C 0.1644(4) 0.5555(3) 0.0397(3)
C13_4 C 0.1652(3) 0.5565(2) 0.1411(2)
C14_4 C 0.0737(3) 0.6211(2) 0.1957(2)
O5_4 O 0.0852(3) 0.6218(2) 0.2868(2)
H16_4 H 0.1052 0.5929 0.0047
H10_4 H 0.8571 0.1786 0.9550
C11_4 C 0.9780(3) 0.95250(18) 0.9896(3)
H15_4 H 0.8952 0.9531 0.9502
C4_5 C 0.7500 0.5000 0.0105(4)
H2_5 H 0.7500 0.5000 0.0799
C4_6 C 0.2500 0.5000 0.9895(4)
H2_6 H 0.2500 0.5000 0.9201
loop_
_geom_bond_atom_site_label_1
_geom_bond_atom_site_label_2
_geom_bond_site_symmetry_1
_geom_bond_site_symmetry_2
Zn1 N1 1_555 1_555
N1 C6 1_555 1_555
C6 H4 1_555 1_555
C7 C6 1_555 1_555
H5 C7 1_555 1_555
C8 C7 1_555 1_555
C9 C8 1_555 1_555
C10 N1 1_555 1_555
H7 C10 1_555 1_555
C11 C8 1_555 1_555
H15 C11 1_555 1_555
N3 Zn1 1_555 1_555
C9 C10 1_555 1_555
H9 C15 1_555 1_555
C16 C15 1_555 1_555
C17 C16 1_555 1_555
C18 C17 1_555 1_555
N2 C18 1_555 1_555
Zn3 N2 1_555 1_555
C19 N2 1_555 1_555
C20 C16 1_555 1_555
H11 C19 1_555 1_555
H12 C18 1_555 1_555
H13 C17 1_555 1_555
C19 C20 1_555 1_555
N3 C6_2 1_555 1_555
C6_2 H4_2 1_555 1_555
C7_2 C6_2 1_555 1_555
H5_2 C7_2 1_555 1_555
C8_2 C7_2 1_555 1_555
C9_2 C8_2 1_555 1_555
H6_2 C9_2 1_555 1_555
C10_2 N3 1_555 1_555
H7_2 C10_2 1_555 1_555
C11_2 C8_2 1_555 1_555
H8 C15_2 1_555 1_555
H9_2 C15_2 1_555 1_555
C15_2 C11_2 1_555 1_555
C16_2 C15_2 1_555 1_555
C17_2 C16_2 1_555 1_555
C18_2 C17_2 1_555 1_555
N2_2 C18_2 1_555 1_555
Zn3 N2_2 1_555 1_555
C19_2 N2_2 1_555 1_555
C20_2 C16_2 1_555 1_555
H10 C20_2 1_555 1_555
H11_2 C19_2 1_555 1_555
H12_2 C18_2 1_555 1_555
H13_2 C17_2 1_555 1_555
H14_2 C11_2 1_555 1_555
H15_2 C11_2 1_555 1_555
C9_2 C10_2 1_555 1_555
C19_2 C20_2 1_555 1_555
H2 C4 1_555 1_555
H3 C5 1_555 1_555
C12 C4 1_555 1_555
C13 C5 1_555 1_555
C14 C13 1_555 1_555
O5 C14 1_555 1_555
H16 C12 1_555 1_555
C12 C13 1_555 1_555
C14 O3 1_555 1_555
O1 C1 1_555 1_555
O2 C1 1_555 1_555
C1 C2 1_555 1_555
C2 C3 1_555 1_555
C3 H1 1_555 1_555
C4_2 C3 1_555 1_555
H2_2 C4_2 1_555 1_555
C5_2 C2 1_555 1_555
H3_2 C5_2 1_555 1_555
Zn2 O1 1_555 1_555
Zn2 N1_2 1_555 1_555
N1_2 C6_3 1_555 1_555
C6_3 H4_3 1_555 1_555
C7_3 C6_3 1_555 1_555
H5_3 C7_3 1_555 1_555
C8_3 C7_3 1_555 1_555
C9_3 C8_3 1_555 1_555
C10_3 N1_2 1_555 1_555
H7_3 C10_3 1_555 1_555
O4_2 Zn2 1_555 1_555
N3_2 Zn2 1_555 1_555
C9_3 C10_3 1_555 1_555
O4_2 C1_2 1_555 1_555
O2_2 C1_2 1_555 1_555
C1_2 C2_2 1_555 1_555
C2_2 C3_2 1_555 1_555
C3_2 H1_2 1_555 1_555
C5_3 C2_2 1_555 1_555
H3_3 C5_3 1_555 1_555
C13_2 C5_3 1_555 1_555
C14_2 C13_2 1_555 1_555
O5_2 C14_2 1_555 1_555
H16_2 C12_2 1_555 1_555
C12_2 C13_2 1_555 1_555
C14_2 O4 1_555 1_555
N3_2 C6_4 1_555 1_555
C6_4 H4_4 1_555 1_555
C7_4 C6_4 1_555 1_555
H5_4 C7_4 1_555 1_555
C8_4 C7_4 1_555 1_555
C9_4 C8_4 1_555 1_555
H6_3 C9_4 1_555 1_555
C10_4 N3_2 1_555 1_555
H7_4 C10_4 1_555 1_555
H8_4 C15_3 1_555 1_555
H9_3 C15_3 1_555 1_555
C9_4 C10_4 1_555 1_555
H9_4 C15_4 1_555 1_555
C17_3 C16_3 1_555 1_555
C18_3 C17_3 1_555 1_555
N2_3 C18_3 1_555 1_555
Zn3_2 N2_3 1_555 1_555
C19_3 N2_3 1_555 1_555
C20_3 C16_3 1_555 1_555
H11_3 C19_3 1_555 1_555
H12_3 C18_3 1_555 1_555
H13_3 C17_3 1_555 1_555
C19_3 C20_3 1_555 1_555
C17_4 C16_4 1_555 1_555
C18_4 C17_4 1_555 1_555
N2_4 C18_4 1_555 1_555
Zn3_2 N2_4 1_555 1_555
C19_4 N2_4 1_555 1_555
C20_4 C16_4 1_555 1_555
H10_3 C20_4 1_555 1_555
H11_4 C19_4 1_555 1_555
H12_4 C18_4 1_555 1_555
H13_4 C17_4 1_555 1_555
H14_4 C11_3 1_555 1_555
H15_3 C11_3 1_555 1_555
C19_4 C20_4 1_555 1_555
O1_2 C1_3 1_555 1_555
O2_3 C1_3 1_555 1_555
C1_3 C2_3 1_555 1_555
C2_3 C3_3 1_555 1_555
C3_3 H1_3 1_555 1_555
C4_3 C3_3 1_555 1_555
H2_3 C4_3 1_555 1_555
C5_4 C2_3 1_555 1_555
H3_4 C5_4 1_555 1_555
Zn3_2 O1_2 1_555 1_555
H2_4 C4_4 1_555 1_555
H3_5 C5_5 1_555 1_555
C12_3 C4_4 1_555 1_555
C13_3 C5_5 1_555 1_555
C14_3 C13_3 1_555 1_555
O5_3 C14_3 1_555 1_555
H16_3 C12_3 1_555 1_555
C12_3 C13_3 1_555 1_555
C14_3 O3_2 1_555 1_555
O4_4 Zn3_2 1_555 1_555
O4_4 C1_4 1_555 1_555
O2_4 C1_4 1_555 1_555
C1_4 C2_4 1_555 1_555
C2_4 C3_4 1_555 1_555
C3_4 H1_4 1_555 1_555
C5_6 C2_4 1_555 1_555
H3_6 C5_6 1_555 1_555
C13_4 C5_6 1_555 1_555
C14_4 C13_4 1_555 1_555
O5_4 C14_4 1_555 1_555
H16_4 C12_4 1_555 1_555
C12_4 C13_4 1_555 1_555
C14_4 O4_3 1_555 1_555
H15_4 C11_4 1_555 1_555
H2_5 C4_5 1_555 1_555
H2_6 C4_6 1_555 1_555

#END
