
###############################################################################
#
# This file contains modified crystal structure data generated from the
# MOF subset of the Cambridge Structural Database (CSD) v543 
# hosted by the Cambridge Crystallographic Data Centre (CCDC).
#
# This work is licensed under the Creative Commons
# Attribution-NonCommercial-ShareAlike 4.0 International License.
# To view a copy of this license, visit
# http://creativecommons.org/licenses/by-nc-sa/4.0/
# or send a letter to
# Creative Commons, PO Box 1866, Mountain View, CA 94042, USA.
#
# CIF created using the CSD Python API on 29 September 2022
# The structure has been converted into the P1 space group
# The structure has a 3D framework
# The original CSD entry QIXNIW is in the monoclinic crystal system
# The framework has been calculated to contain at least 10.0% void space
# The void calculation uses a probe of radius 1.32A, grid spacing 0.4
#
###############################################################################

data_QIXNIW
_chemical_formula_moiety         '(C84 H64 Er8 O64)n'
_symmetry_cell_setting           triclinic
_symmetry_space_group_name_H-M   'P 1'
_symmetry_Int_Tables_number      1
_space_group_name_Hall           'P 1'
loop_
_symmetry_equiv_pos_site_id
_symmetry_equiv_pos_as_xyz
1 x,y,z
_cell_length_a                   9.8475(8)
_cell_length_b                   29.058(2)
_cell_length_c                   10.8151(9)
_cell_angle_alpha                90
_cell_angle_beta                 92.3110(10)
_cell_angle_gamma                90
_cell_volume                     3092.21
loop_
_atom_site_label
_atom_site_type_symbol
_atom_site_fract_x
_atom_site_fract_y
_atom_site_fract_z
C8 C 0.0751(6) 0.2361(2) 0.0794(6)
H4 H 0.1365 0.2130 0.1089
C9 C 0.1223(6) 0.27168(19) 0.0104(5)
C15 C 0.0262(6) 0.4866(2) 0.2304(6)
H5 H 0.0576 0.4833 0.3141
C16 C 0.1182(6) 0.48940(19) 0.1402(5)
C17 C 0.2635(6) 0.4770(2) 0.1731(5)
C18 C 0.0714(5) 0.49878(19) 0.0140(5)
O2 O 0.2930(4) 0.35851(14) 0.0152(3)
O8 O 0.3575(4) 0.25534(14) 0.0492(4)
O9 O 0.3155(4) 0.49100(15) 0.2750(4)
O10 O 0.3221(4) 0.45016(14) 0.1016(4)
O11 O 0.3400(4) 0.54627(14) 0.0152(4)
O14 O 0.5485(5) 0.38937(15) 0.1453(4)
H9 H 0.579(7) 0.3627(11) 0.144(5)
H10 H 0.563(7) 0.4029(18) 0.213(3)
C30 C 0.0165(6) 0.6196(2) 0.1338(5)
C31 C 0.1568(6) 0.6279(2) 0.1290(5)
H20 H 0.2192 0.6061 0.1640
C32 C 0.2050(6) 0.6666(2) 0.0752(5)
C33 C 0.1116(6) 0.69844(18) 0.0158(5)
C40 C 0.3521(6) 0.6775(2) 0.0983(5)
O24 O 0.4366(4) 0.64587(15) 0.0961(4)
O25 O 0.3827(4) 0.71818(14) 0.1288(4)
Er6 Er 0.54488(2) 0.581228(9) 0.04236(2)
Er7 Er 0.46109(3) 0.251700(9) 0.23726(2)
Er9 Er 0.53891(3) 0.751700(9) 0.26274(2)
C1 C 0.0764(6) 0.3491(2) 0.9123(5)
H1 H 0.0144 0.4082 0.8304
C10 C 0.0319(5) 0.30716(19) 0.9674(5)
C11 C 0.2193(6) 0.36584(19) 0.9200(5)
C14 C 0.2682(6) 0.26743(19) 0.9697(6)
C19 C 0.1615(6) 0.5064(2) 0.9170(5)
C20 C 0.3112(6) 0.5146(2) 0.9410(5)
C21 C 0.1136(6) 0.5116(2) 0.7976(6)
H6 H 0.1758 0.5141 0.7330
O1 O 0.2644(4) 0.39064(14) 0.8335(4)
O7 O 0.2882(4) 0.27296(14) 0.8578(3)
O12 O 0.3950(4) 0.49090(14) 0.8839(4)
O13 O 0.5215(4) 0.42877(15) 0.7480(4)
H7 H 0.576(5) 0.4092(14) 0.720(6)
H8 H 0.549(6) 0.4559(9) 0.733(6)
Er1 Er 0.45512(2) 0.418772(9) 0.95764(2)
C34 C 0.1550(6) 0.7362(2) 0.9400(5)
C35 C 0.0630(6) 0.7669(2) 0.8926(6)
H21 H 0.0923 0.7907 0.8397
C41 C 0.2958(6) 0.7385(2) 0.8940(5)
O26 O 0.3534(4) 0.70327(14) 0.8524(4)
O27 O 0.3538(4) 0.77765(14) 0.8874(4)
O32 O 0.6809(5) 0.68266(15) 0.7618(4)
H27 H 0.691(7) 0.6703(19) 0.832(3)
H28 H 0.677(7) 0.6634(17) 0.704(4)
O33 O 0.4573(5) 0.69468(16) 0.6141(4)
H29 H 0.533(4) 0.683(2) 0.603(5)
H30 H 0.418(6) 0.704(2) 0.548(4)
O34 O 0.5942(4) 0.82465(15) 0.8203(4)
H31 H 0.616(6) 0.8433(17) 0.767(4)
H32 H 0.616(6) 0.832(2) 0.892(2)
Er4 Er 0.53891(3) 0.748300(9) 0.76274(2)
O35 O 0.5634(4) 0.35413(15) 0.9039(4)
O37 O 0.3827(4) 0.78182(14) 0.6288(4)
O39 O 0.7118(4) 0.77296(14) 0.6422(3)
O42 O 0.6425(4) 0.74466(14) 0.9508(4)
O44 O 0.6600(4) 0.45373(14) 0.9848(4)
Er12 Er 0.46109(3) 0.248300(9) 0.73726(2)
C6 C 0.8450(6) 0.2638(2) 0.0600(5)
C7 C 0.9370(6) 0.2331(2) 0.1074(6)
H3 H 0.9077 0.2093 0.1603
C13 C 0.7042(6) 0.2615(2) 0.1060(5)
O5 O 0.6466(4) 0.29673(14) 0.1476(4)
O6 O 0.6462(4) 0.22235(14) 0.1126(4)
O15 O 0.3191(5) 0.31734(15) 0.2382(4)
H11 H 0.309(7) 0.3297(19) 0.168(3)
H12 H 0.323(7) 0.3366(17) 0.296(4)
O16 O 0.5427(5) 0.30532(16) 0.3859(4)
H13 H 0.467(4) 0.317(2) 0.397(5)
H14 H 0.582(6) 0.296(2) 0.452(4)
O17 O 0.4058(4) 0.17535(15) 0.1797(4)
H15 H 0.384(6) 0.1567(17) 0.233(4)
H16 H 0.384(6) 0.168(2) 0.108(2)
C26 C 0.8385(6) 0.4936(2) 0.0830(5)
C27 C 0.6888(6) 0.4854(2) 0.0590(5)
C28 C 0.8864(6) 0.4884(2) 0.2024(6)
H18 H 0.8242 0.4859 0.2670
O21 O 0.6050(4) 0.50910(14) 0.1161(4)
C29 C 0.9236(6) 0.6509(2) 0.0877(5)
H19 H 0.9856 0.5918 0.1696
C38 C 0.9681(5) 0.69284(19) 0.0326(5)
C39 C 0.7807(6) 0.63416(19) 0.0800(5)
C42 C 0.7318(6) 0.73257(19) 0.0303(6)
O22 O 0.7356(4) 0.60936(14) 0.1665(4)
O28 O 0.7118(4) 0.72704(14) 0.1422(3)
O30 O 0.4785(4) 0.57123(15) 0.2520(4)
H23 H 0.424(5) 0.5908(14) 0.280(6)
H24 H 0.451(6) 0.5441(9) 0.267(6)
O38 O 0.6173(4) 0.21818(14) 0.3712(4)
O40 O 0.2882(4) 0.22704(14) 0.3578(3)
C2 C 0.9835(6) 0.3804(2) 0.8662(5)
C3 C 0.8432(6) 0.3721(2) 0.8710(5)
H2 H 0.7808 0.3939 0.8360
C4 C 0.7950(6) 0.3334(2) 0.9248(5)
C5 C 0.8884(6) 0.30156(18) 0.9842(5)
C12 C 0.6479(6) 0.3225(2) 0.9017(5)
O4 O 0.6173(4) 0.28182(14) 0.8712(4)
C22 C 0.9738(6) 0.5134(2) 0.7696(6)
H17 H 0.9424 0.5167 0.6859
C23 C 0.8818(6) 0.51060(19) 0.8598(5)
C24 C 0.7365(6) 0.5230(2) 0.8269(5)
C25 C 0.9286(5) 0.50122(19) 0.9860(5)
O18 O 0.6845(4) 0.50900(15) 0.7250(4)
O19 O 0.6779(4) 0.54984(14) 0.8984(4)
C36 C 0.9249(6) 0.7639(2) 0.9206(6)
H22 H 0.8635 0.7870 0.8911
C37 C 0.8777(6) 0.72832(19) 0.9896(5)
O23 O 0.7070(4) 0.64149(14) 0.9848(3)
O31 O 0.4515(5) 0.61063(15) 0.8547(4)
H25 H 0.421(7) 0.6373(11) 0.856(5)
H26 H 0.437(7) 0.5971(18) 0.787(3)
C22_2 C 0.0262(6) 0.0134(2) 0.7304(6)
H17_2 H 0.0576 0.0167 0.8141
C23_2 C 0.1182(6) 0.01060(19) 0.6402(5)
C24_2 C 0.2635(6) 0.0230(2) 0.6731(5)
C25_2 C 0.0714(5) 0.00122(19) 0.5140(5)
O18_2 O 0.3155(4) 0.00900(15) 0.7750(4)
O19_2 O 0.3221(4) 0.04984(14) 0.6016(4)
O21_2 O 0.3950(4) 0.00910(14) 0.3839(4)
C29_2 C 0.0764(6) 0.1509(2) 0.4123(5)
H19_2 H 0.0144 0.0918 0.3304
C36_2 C 0.0751(6) 0.2639(2) 0.5794(6)
H22_2 H 0.1365 0.2870 0.6089
C37_2 C 0.1223(6) 0.22832(19) 0.5104(5)
C38_2 C 0.0319(5) 0.19284(19) 0.4674(5)
C39_2 C 0.2193(6) 0.13416(19) 0.4200(5)
C42_2 C 0.2682(6) 0.23257(19) 0.4697(6)
O22_2 O 0.2644(4) 0.10936(14) 0.3335(4)
O23_2 O 0.2930(4) 0.14149(14) 0.5152(3)
O29 O 0.3575(4) 0.24466(14) 0.5492(4)
O30_2 O 0.5215(4) 0.07123(15) 0.2480(4)
H23_2 H 0.576(5) 0.0908(14) 0.220(6)
H24_2 H 0.549(6) 0.0441(9) 0.233(6)
O31_2 O 0.5485(5) 0.11063(15) 0.6453(4)
H25_2 H 0.579(7) 0.1373(11) 0.644(5)
H26_2 H 0.563(7) 0.0971(18) 0.713(3)
Er3 Er 0.45512(2) 0.081228(9) 0.45764(2)
O36 O 0.5634(4) 0.14587(15) 0.4039(4)
O43 O 0.6600(4) 0.04627(14) 0.4848(4)
C2_2 C 0.0165(6) 0.8804(2) 0.6338(5)
C3_2 C 0.1568(6) 0.8721(2) 0.6290(5)
H2_2 H 0.2192 0.8939 0.6640
C4_2 C 0.2050(6) 0.8334(2) 0.5752(5)
C5_2 C 0.1116(6) 0.80156(18) 0.5158(5)
C6_2 C 0.1550(6) 0.7638(2) 0.4400(5)
C7_2 C 0.0630(6) 0.7331(2) 0.3926(6)
H3_2 H 0.0923 0.7093 0.3397
C12_2 C 0.3521(6) 0.8225(2) 0.5983(5)
C13_2 C 0.2958(6) 0.7615(2) 0.3940(5)
O3 O 0.4366(4) 0.85413(15) 0.5961(4)
O5_2 O 0.3534(4) 0.79673(14) 0.3524(4)
O6_2 O 0.3538(4) 0.72235(14) 0.3874(4)
O15_2 O 0.6809(5) 0.81734(15) 0.2618(4)
H11_2 H 0.691(7) 0.8297(19) 0.332(3)
H12_2 H 0.677(7) 0.8366(17) 0.204(4)
O16_2 O 0.4573(5) 0.80532(16) 0.1141(4)
H13_2 H 0.533(4) 0.817(2) 0.103(5)
H14_2 H 0.418(6) 0.796(2) 0.048(4)
O17_2 O 0.5942(4) 0.67535(15) 0.3203(4)
H15_2 H 0.616(6) 0.6567(17) 0.267(4)
H16_2 H 0.616(6) 0.668(2) 0.392(2)
C26_2 C 0.1615(6) 0.9936(2) 0.4170(5)
C27_2 C 0.3112(6) 0.9854(2) 0.4410(5)
C28_2 C 0.1136(6) 0.9884(2) 0.2976(6)
H18_2 H 0.1758 0.9859 0.2330
O20 O 0.3400(4) 0.95373(14) 0.5152(4)
O41 O 0.6425(4) 0.75534(14) 0.4508(4)
Er5 Er 0.54488(2) 0.918772(9) 0.54236(2)
C19_2 C 0.8385(6) 0.0064(2) 0.5830(5)
C20_2 C 0.6888(6) 0.0146(2) 0.5590(5)
C21_2 C 0.8864(6) 0.0116(2) 0.7024(6)
H6_2 H 0.8242 0.0141 0.7670
C30_2 C 0.9835(6) 0.1196(2) 0.3662(5)
C31_2 C 0.8432(6) 0.1279(2) 0.3710(5)
H20_2 H 0.7808 0.1061 0.3360
C32_2 C 0.7950(6) 0.1666(2) 0.4248(5)
C33_2 C 0.8884(6) 0.19844(18) 0.4842(5)
C34_2 C 0.8450(6) 0.2362(2) 0.5600(5)
C35_2 C 0.9370(6) 0.2669(2) 0.6074(6)
H21_2 H 0.9077 0.2907 0.6603
C40_2 C 0.6479(6) 0.1775(2) 0.4017(5)
C41_2 C 0.7042(6) 0.2385(2) 0.6060(5)
O26_2 O 0.6466(4) 0.20327(14) 0.6476(4)
O27_2 O 0.6462(4) 0.27765(14) 0.6126(4)
O32_2 O 0.3191(5) 0.18266(15) 0.7382(4)
H27_2 H 0.309(7) 0.1703(19) 0.668(3)
H28_2 H 0.323(7) 0.1634(17) 0.796(4)
O33_2 O 0.5427(5) 0.19468(16) 0.8859(4)
H29_2 H 0.467(4) 0.183(2) 0.897(5)
H30_2 H 0.582(6) 0.204(2) 0.952(4)
O34_2 O 0.4058(4) 0.32465(15) 0.6797(4)
H31_2 H 0.384(6) 0.3433(17) 0.733(4)
H32_2 H 0.384(6) 0.332(2) 0.608(2)
C1_2 C 0.9236(6) 0.8491(2) 0.5877(5)
H1_2 H 0.9856 0.9082 0.6696
C8_2 C 0.9249(6) 0.7361(2) 0.4206(6)
H4_2 H 0.8635 0.7130 0.3911
C9_2 C 0.8777(6) 0.77168(19) 0.4896(5)
C10_2 C 0.9681(5) 0.80716(19) 0.5326(5)
C11_2 C 0.7807(6) 0.86584(19) 0.5800(5)
C14_2 C 0.7318(6) 0.76743(19) 0.5303(6)
C15_2 C 0.9738(6) 0.9866(2) 0.2696(6)
H5_2 H 0.9424 0.9833 0.1859
C16_2 C 0.8818(6) 0.98940(19) 0.3598(5)
C17_2 C 0.7365(6) 0.9770(2) 0.3269(5)
C18_2 C 0.9286(5) 0.99878(19) 0.4860(5)
O1_2 O 0.7356(4) 0.89064(14) 0.6665(4)
O2_2 O 0.7070(4) 0.85851(14) 0.4848(3)
O9_2 O 0.6845(4) 0.99100(15) 0.2250(4)
O10_2 O 0.6779(4) 0.95016(14) 0.3984(4)
O12_2 O 0.6050(4) 0.99090(14) 0.6161(4)
O13_2 O 0.4785(4) 0.92877(15) 0.7520(4)
H7_2 H 0.424(5) 0.9092(14) 0.780(6)
H8_2 H 0.451(6) 0.9559(9) 0.767(6)
O14_2 O 0.4515(5) 0.88937(15) 0.3547(4)
H9_2 H 0.421(7) 0.8627(11) 0.356(5)
H10_2 H 0.437(7) 0.9029(18) 0.287(3)
loop_
_geom_bond_atom_site_label_1
_geom_bond_atom_site_label_2
_geom_bond_site_symmetry_1
_geom_bond_site_symmetry_2
H4 C8 1_555 1_555
C9 C8 1_555 1_555
C15 H5 1_555 1_555
C16 C15 1_555 1_555
C17 C16 1_555 1_555
C18 C16 1_555 1_555
O9 C17 1_555 1_555
O10 C17 1_555 1_555
O14 H9 1_555 1_555
H10 O14 1_555 1_555
C31 C30 1_555 1_555
H20 C31 1_555 1_555
C32 C31 1_555 1_555
C33 C32 1_555 1_555
C40 C32 1_555 1_555
O24 C40 1_555 1_555
O25 C40 1_555 1_555
Er6 O11 1_555 1_555
Er7 O8 1_555 1_555
Er9 O25 1_555 1_555
O24 Er6 1_555 1_555
C10 C1 1_555 1_555
C11 C1 1_555 1_555
C20 C19 1_555 1_555
C21 C19 1_555 1_555
H6 C21 1_555 1_555
O1 C11 1_555 1_555
O7 C14 1_555 1_555
O12 C20 1_555 1_555
O13 H7 1_555 1_555
H8 O13 1_555 1_555
Er1 O1 1_555 1_555
C35 C34 1_555 1_555
H21 C35 1_555 1_555
C41 C34 1_555 1_555
O26 C41 1_555 1_555
O27 C41 1_555 1_555
O32 H27 1_555 1_555
H28 O32 1_555 1_555
O33 H29 1_555 1_555
H30 O33 1_555 1_555
O34 H31 1_555 1_555
H32 O34 1_555 1_555
Er4 O26 1_555 1_555
O35 Er1 1_555 1_555
O37 Er4 1_555 1_555
O39 Er4 1_555 1_555
O42 Er4 1_555 1_555
O44 Er1 1_555 1_555
Er12 O7 1_555 1_555
O12 Er1 1_555 1_555
O13 Er1 1_555 1_555
O27 Er4 1_555 1_555
O32 Er4 1_555 1_555
O33 Er4 1_555 1_555
O34 Er4 1_555 1_555
C7 C6 1_555 1_555
H3 C7 1_555 1_555
C13 C6 1_555 1_555
O5 C13 1_555 1_555
O6 C13 1_555 1_555
O15 H11 1_555 1_555
H12 O15 1_555 1_555
O16 H13 1_555 1_555
H14 O16 1_555 1_555
O17 H15 1_555 1_555
H16 O17 1_555 1_555
Er7 O5 1_555 1_555
C27 C26 1_555 1_555
H18 C28 1_555 1_555
O21 C27 1_555 1_555
C38 C29 1_555 1_555
C39 C29 1_555 1_555
O22 C39 1_555 1_555
O28 C42 1_555 1_555
O30 H23 1_555 1_555
H24 O30 1_555 1_555
O38 Er7 1_555 1_555
O40 Er7 1_555 1_555
Er9 O28 1_555 1_555
O6 Er7 1_555 1_555
O15 Er7 1_555 1_555
O16 Er7 1_555 1_555
O17 Er7 1_555 1_555
C26 C28 1_555 1_555
O21 Er6 1_555 1_555
O22 Er6 1_555 1_555
O30 Er6 1_555 1_555
C3 C2 1_555 1_555
H2 C3 1_555 1_555
C4 C3 1_555 1_555
C5 C4 1_555 1_555
C12 C4 1_555 1_555
O35 C12 1_555 1_555
O4 C12 1_555 1_555
H17 C22 1_555 1_555
C23 C22 1_555 1_555
C24 C23 1_555 1_555
O18 C24 1_555 1_555
O19 C24 1_555 1_555
H22 C36 1_555 1_555
C37 C36 1_555 1_555
O31 H25 1_555 1_555
H26 O31 1_555 1_555
Er12 O4 1_555 1_555
C23 C25 1_555 1_555
H17_2 C22_2 1_555 1_555
C23_2 C22_2 1_555 1_555
C24_2 C23_2 1_555 1_555
O18_2 C24_2 1_555 1_555
O19_2 C24_2 1_555 1_555
H22_2 C36_2 1_555 1_555
C37_2 C36_2 1_555 1_555
C38_2 C29_2 1_555 1_555
C39_2 C29_2 1_555 1_555
C42_2 C37_2 1_555 1_555
O22_2 C39_2 1_555 1_555
O23_2 C39_2 1_555 1_555
O40 C42_2 1_555 1_555
O29 C42_2 1_555 1_555
O30_2 H23_2 1_555 1_555
H24_2 O30_2 1_555 1_555
O31_2 H25_2 1_555 1_555
H26_2 O31_2 1_555 1_555
Er3 O19_2 1_555 1_555
O36 Er3 1_555 1_555
O43 Er3 1_555 1_555
Er12 O29 1_555 1_555
C23_2 C25_2 1_555 1_555
O21_2 Er3 1_555 1_555
C37_2 C38_2 1_555 1_555
O22_2 Er3 1_555 1_555
O23_2 Er3 1_555 1_555
O30_2 Er3 1_555 1_555
O31_2 Er3 1_555 1_555
C3_2 C2_2 1_555 1_555
H2_2 C3_2 1_555 1_555
C4_2 C3_2 1_555 1_555
C5_2 C4_2 1_555 1_555
C6_2 C5_2 1_555 1_555
C7_2 C6_2 1_555 1_555
H3_2 C7_2 1_555 1_555
C12_2 C4_2 1_555 1_555
C13_2 C6_2 1_555 1_555
O3 C12_2 1_555 1_555
O37 C12_2 1_555 1_555
O5_2 C13_2 1_555 1_555
O6_2 C13_2 1_555 1_555
O15_2 H11_2 1_555 1_555
H12_2 O15_2 1_555 1_555
O16_2 H13_2 1_555 1_555
H14_2 O16_2 1_555 1_555
O17_2 H15_2 1_555 1_555
H16_2 O17_2 1_555 1_555
Er9 O5_2 1_555 1_555
C27_2 C26_2 1_555 1_555
H18_2 C28_2 1_555 1_555
O20 C27_2 1_555 1_555
O41 Er9 1_555 1_555
Er5 O3 1_555 1_555
O6_2 Er9 1_555 1_555
O15_2 Er9 1_555 1_555
O16_2 Er9 1_555 1_555
O17_2 Er9 1_555 1_555
C26_2 C28_2 1_555 1_555
O20 Er5 1_555 1_555
C20_2 C19_2 1_555 1_555
C21_2 C19_2 1_555 1_555
H6_2 C21_2 1_555 1_555
O43 C20_2 1_555 1_555
C31_2 C30_2 1_555 1_555
H20_2 C31_2 1_555 1_555
C32_2 C31_2 1_555 1_555
C33_2 C32_2 1_555 1_555
C34_2 C33_2 1_555 1_555
C35_2 C34_2 1_555 1_555
H21_2 C35_2 1_555 1_555
C40_2 C32_2 1_555 1_555
C41_2 C34_2 1_555 1_555
O36 C40_2 1_555 1_555
O38 C40_2 1_555 1_555
O26_2 C41_2 1_555 1_555
O27_2 C41_2 1_555 1_555
O32_2 H27_2 1_555 1_555
H28_2 O32_2 1_555 1_555
O33_2 H29_2 1_555 1_555
H30_2 O33_2 1_555 1_555
O34_2 H31_2 1_555 1_555
H32_2 O34_2 1_555 1_555
Er12 O26_2 1_555 1_555
O27_2 Er12 1_555 1_555
O32_2 Er12 1_555 1_555
O33_2 Er12 1_555 1_555
O34_2 Er12 1_555 1_555
H4_2 C8_2 1_555 1_555
C9_2 C8_2 1_555 1_555
C10_2 C1_2 1_555 1_555
C11_2 C1_2 1_555 1_555
C14_2 C9_2 1_555 1_555
C15_2 H5_2 1_555 1_555
C16_2 C15_2 1_555 1_555
C17_2 C16_2 1_555 1_555
C18_2 C16_2 1_555 1_555
O1_2 C11_2 1_555 1_555
O2_2 C11_2 1_555 1_555
O39 C14_2 1_555 1_555
O41 C14_2 1_555 1_555
O9_2 C17_2 1_555 1_555
O10_2 C17_2 1_555 1_555
O13_2 H7_2 1_555 1_555
H8_2 O13_2 1_555 1_555
O14_2 H9_2 1_555 1_555
H10_2 O14_2 1_555 1_555
Er5 O1_2 1_555 1_555
C9_2 C10_2 1_555 1_555
O2_2 Er5 1_555 1_555
O10_2 Er5 1_555 1_555
O12_2 Er5 1_555 1_555
O13_2 Er5 1_555 1_555
O14_2 Er5 1_555 1_555

#END
