
###############################################################################
#
# This file contains modified crystal structure data generated from the
# MOF subset of the Cambridge Structural Database (CSD) v543 
# hosted by the Cambridge Crystallographic Data Centre (CCDC).
#
# This work is licensed under the Creative Commons
# Attribution-NonCommercial-ShareAlike 4.0 International License.
# To view a copy of this license, visit
# http://creativecommons.org/licenses/by-nc-sa/4.0/
# or send a letter to
# Creative Commons, PO Box 1866, Mountain View, CA 94042, USA.
#
# CIF created using the CSD Python API on 29 September 2022
# The structure has been converted into the P1 space group
# The structure has a 3D framework
# The original CSD entry QOBSIM is in the monoclinic crystal system
# The framework has been calculated to contain at least 10.0% void space
# The void calculation uses a probe of radius 1.32A, grid spacing 0.4
#
###############################################################################

data_QOBSIM
_chemical_formula_moiety         '(C88 H88 N20 O16 Zn4)n'
_symmetry_cell_setting           triclinic
_symmetry_space_group_name_H-M   'P 1'
_symmetry_Int_Tables_number      1
_space_group_name_Hall           'P 1'
loop_
_symmetry_equiv_pos_site_id
_symmetry_equiv_pos_as_xyz
1 x,y,z
_cell_length_a                   9.1863(6)
_cell_length_b                   16.2887(12)
_cell_length_c                   17.3750(14)
_cell_angle_alpha                90
_cell_angle_beta                 99.022(7)
_cell_angle_gamma                90
_cell_volume                     2567.71
loop_
_atom_site_label
_atom_site_type_symbol
_atom_site_fract_x
_atom_site_fract_y
_atom_site_fract_z
N9 N 0.5224(4) 0.6588(3) 0.7767(3)
N10 N 0.7047(4) 0.7448(2) 0.7766(2)
C38 C 0.5854(5) 0.7133(3) 0.7360(3)
H34 H 0.5493 0.7276 0.6848
C39 C 0.7169(5) 0.7095(3) 0.8487(3)
H35 H 0.7909 0.7202 0.8905
C40 C 0.6040(6) 0.6567(4) 0.8492(3)
H36 H 0.5855 0.6250 0.8911
C41 C 0.0128(5) 0.5825(3) 0.8014(3)
H38 H 0.0454 0.5689 0.8558
C42 C 0.1360(5) 0.5688(3) 0.7567(3)
H39 H 0.1649 0.5115 0.7603
H40 H 0.1032 0.5816 0.7022
C43 C 0.2687(5) 0.6226(3) 0.7881(4)
H41 H 0.2967 0.6127 0.8435
H42 H 0.2413 0.6800 0.7812
C44 C 0.3949(6) 0.6059(4) 0.7485(4)
H43 H 0.4235 0.5488 0.7565
H44 H 0.3659 0.6144 0.6929
Zn6 Zn 0.85542(4) 0.81816(3) 0.73794(2)
Zn1 Zn 0.35542(4) 0.68184(3) 0.23794(2)
N2 N 0.1160(4) 0.4679(2) 0.2290(2)
N3 N 0.2755(3) 0.5682(2) 0.24130(18)
O1 O 0.5194(3) 0.69865(18) 0.32233(16)
O2 O 0.6604(3) 0.6179(2) 0.26278(18)
O3 O 0.9102(3) 0.7682(2) 0.64458(16)
O4 O 0.6921(4) 0.8065(2) 0.5860(2)
C1 C 0.6406(4) 0.6624(2) 0.3174(2)
C2 C 0.8110(4) 0.7715(2) 0.5851(2)
C3 C 0.7623(4) 0.6767(2) 0.3849(2)
C4 C 0.7361(4) 0.7238(2) 0.4479(2)
H2 H 0.6479 0.7524 0.4457
C5 C 0.8422(4) 0.7278(2) 0.5140(2)
C6 C 0.9761(4) 0.6871(2) 0.5159(2)
C8 C 0.8967(4) 0.6373(2) 0.3867(2)
H4 H 0.9144 0.6073 0.3435
C13 C 0.1572(5) 0.5377(3) 0.1990(3)
H9 H 0.1082 0.5618 0.1538
C14 C 0.3117(4) 0.5148(2) 0.3018(2)
H10 H 0.3918 0.5202 0.3415
C15 C 0.2133(5) 0.4529(3) 0.2950(3)
H11 H 0.2121 0.4086 0.3287
H15 H 0.0148 0.3600 0.2015
N11 N 0.2047(4) 0.7552(2) 0.2766(2)
O10 O 0.4102(3) 0.7318(2) 0.14458(16)
N4 N 0.0224(4) 0.8412(3) 0.2767(3)
C16 C 0.0854(5) 0.7867(3) 0.2360(3)
H12 H 0.0493 0.7724 0.1848
C17 C 0.2169(5) 0.7905(3) 0.3487(3)
H13 H 0.2909 0.7798 0.3905
C18 C 0.1040(6) 0.8433(4) 0.3492(3)
H14 H 0.0855 0.8750 0.3911
O8 O 0.1921(4) 0.6935(2) 0.0860(2)
C24 C 0.3110(4) 0.7285(2) 0.0851(2)
C27 C 0.3422(4) 0.7722(2) 0.0140(2)
C28 C 0.4761(4) 0.8129(2) 0.0159(2)
H25 H 0.5467 0.8099 0.0604
C31 C 0.7452(4) 0.9024(3) 0.0225(2)
H27 H 0.7000 0.9262 0.0642
H28 H 0.7770 0.8473 0.0381
C32 C 0.8775(4) 0.9530(3) 0.0112(2)
N8 N 0.7755(3) 0.9318(2) 0.74130(18)
C35 C 0.6572(5) 0.9623(3) 0.6990(3)
H31 H 0.6082 0.9382 0.6538
C36 C 0.8117(4) 0.9852(2) 0.8018(2)
H32 H 0.8918 0.9798 0.8415
O5 O 0.4806(3) 0.30135(18) 0.67767(16)
O6 O 0.3396(3) 0.3821(2) 0.73722(18)
O7 O 0.0898(3) 0.2318(2) 0.35542(16)
O8_2 O 0.3079(4) 0.1935(2) 0.4140(2)
C23 C 0.3594(4) 0.3376(2) 0.6826(2)
C24_2 C 0.1890(4) 0.2285(2) 0.4149(2)
C25 C 0.2377(4) 0.3233(2) 0.6151(2)
C26 C 0.2639(4) 0.2762(2) 0.5521(2)
H24 H 0.3521 0.2476 0.5543
C27_2 C 0.1578(4) 0.2722(2) 0.4860(2)
C28_2 C 0.0239(4) 0.3129(2) 0.4841(2)
C30 C 0.1033(4) 0.3627(2) 0.6133(2)
H26 H 0.0856 0.3927 0.6565
Zn2 Zn 0.64458(4) 0.31816(3) 0.76206(2)
N7 N 0.8840(4) 0.5321(2) 0.7710(2)
N8_2 N 0.7245(3) 0.4318(2) 0.75870(18)
C35_2 C 0.8428(5) 0.4623(3) 0.8010(3)
H31_2 H 0.8918 0.4382 0.8462
C36_2 C 0.6883(4) 0.4852(2) 0.6982(2)
H32_2 H 0.6082 0.4798 0.6585
C37 C 0.7867(5) 0.5471(3) 0.7050(3)
H33 H 0.7879 0.5914 0.6713
H37 H 0.9852 0.6400 0.7985
Zn4 Zn 0.14458(4) 0.18184(3) 0.26206(2)
N12 N 0.7953(4) 0.2448(2) 0.7234(2)
O9 O 0.5898(3) 0.2682(2) 0.85542(16)
N4_2 N 0.4776(4) 0.3412(3) 0.2233(3)
N5 N 0.2953(4) 0.2552(2) 0.2234(2)
C16_2 C 0.4146(5) 0.2867(3) 0.2640(3)
H12_2 H 0.4507 0.2724 0.3152
C17_2 C 0.2831(5) 0.2905(3) 0.1513(3)
H13_2 H 0.2091 0.2798 0.1095
C18_2 C 0.3960(6) 0.3433(4) 0.1508(3)
H14_2 H 0.4145 0.3750 0.1089
C19 C 0.9872(5) 0.4175(3) 0.1986(3)
H16 H 0.9546 0.4311 0.1442
C20 C 0.8640(5) 0.4312(3) 0.2433(3)
H17 H 0.8351 0.4885 0.2397
H18 H 0.8968 0.4184 0.2978
C21 C 0.7313(5) 0.3774(3) 0.2119(4)
H19 H 0.7033 0.3873 0.1565
H20 H 0.7587 0.3200 0.2188
C22 C 0.6051(6) 0.3941(4) 0.2515(4)
H21 H 0.5765 0.4512 0.2435
H22 H 0.6341 0.3856 0.3071
N3_2 N 0.2245(3) 0.0682(2) 0.25870(18)
C13_2 C 0.3428(5) 0.0377(3) 0.3010(3)
H9_2 H 0.3918 0.0618 0.3462
C14_2 C 0.1883(4) 0.0148(2) 0.1982(2)
H10_2 H 0.1082 0.0202 0.1585
O4_2 O 0.8079(4) 0.3065(2) 0.9140(2)
C2_2 C 0.6890(4) 0.2715(2) 0.9149(2)
C5_2 C 0.6578(4) 0.2278(2) 0.9860(2)
C6_2 C 0.5239(4) 0.1871(2) 0.9841(2)
H3 H 0.4533 0.1901 0.9396
C9 C 0.2548(4) 0.0976(3) 0.9775(2)
H5 H 0.3000 0.0738 0.9358
H6 H 0.2230 0.1527 0.9619
C10 C 0.1225(4) 0.0470(3) 0.9888(2)
N9_2 N 0.9776(4) 0.1588(3) 0.7233(3)
C38_2 C 0.9146(5) 0.2133(3) 0.7640(3)
H34_2 H 0.9507 0.2276 0.8152
C39_2 C 0.7831(5) 0.2095(3) 0.6513(3)
H35_2 H 0.7091 0.2202 0.6095
C40_2 C 0.8960(6) 0.1567(4) 0.6508(3)
H36_2 H 0.9145 0.1250 0.6089
N1 N 0.1384(4) 0.6016(3) 0.4534(2)
H1 H 0.1572 0.5784 0.4116
H3_2 H 0.0467 0.6901 0.5604
C7 C 0.0056(4) 0.6420(3) 0.4521(2)
C9_2 C 0.2452(4) 0.5976(3) 0.5225(2)
H5_2 H 0.2000 0.5738 0.5642
H6_2 H 0.2770 0.6527 0.5381
C10_2 C 0.3775(4) 0.5470(3) 0.5112(2)
C11 C 0.5145(4) 0.5831(3) 0.5132(2)
H7 H 0.5254 0.6392 0.5220
C12 C 0.3646(4) 0.4636(3) 0.4977(2)
H8 H 0.2733 0.4384 0.4960
N6 N 0.8616(4) 0.3984(3) 0.5466(2)
H23 H 0.8428 0.4216 0.5884
H25_2 H 0.9533 0.3099 0.4396
C29 C 0.9944(4) 0.3580(3) 0.5479(2)
C31_2 C 0.7548(4) 0.4024(3) 0.4775(2)
H27_2 H 0.8000 0.4262 0.4358
H28_2 H 0.7230 0.3473 0.4619
C32_2 C 0.6225(4) 0.4530(3) 0.4888(2)
C33 C 0.4855(4) 0.4169(3) 0.4868(2)
H29 H 0.4746 0.3608 0.4780
C34 C 0.6354(4) 0.5364(3) 0.5023(2)
H30 H 0.7267 0.5616 0.5040
N2_2 N 0.3840(4) 0.9679(2) 0.2710(2)
C15_2 C 0.2867(5) 0.9529(3) 0.2050(3)
H11_2 H 0.2879 0.9086 0.1713
C19_2 C 0.5128(5) 0.9175(3) 0.3014(3)
H15_2 H 0.4852 0.8600 0.2985
H16_2 H 0.5454 0.9311 0.3558
C20_2 C 0.6360(5) 0.9312(3) 0.2567(3)
H17_2 H 0.6649 0.9885 0.2603
H18_2 H 0.6032 0.9184 0.2022
C21_2 C 0.7687(5) 0.8774(3) 0.2881(4)
H19_2 H 0.7967 0.8873 0.3435
H20_2 H 0.7413 0.8200 0.2812
C22_2 C 0.8949(6) 0.8941(4) 0.2485(4)
H21_2 H 0.9235 0.9512 0.2565
H22_2 H 0.8659 0.8856 0.1929
N1_2 N 0.3616(4) 0.1016(3) 0.0466(2)
H1_2 H 0.3428 0.0784 0.0884
O1_2 O 0.9806(3) 0.19865(18) 0.17767(16)
O2_2 O 0.8396(3) 0.1179(2) 0.23722(18)
C1_2 C 0.8594(4) 0.1624(2) 0.1826(2)
C3_2 C 0.7377(4) 0.1767(2) 0.1151(2)
C4_2 C 0.7639(4) 0.2238(2) 0.0521(2)
H2_2 H 0.8521 0.2524 0.0543
C7_2 C 0.4944(4) 0.1420(3) 0.0479(2)
C8_2 C 0.6033(4) 0.1373(2) 0.1133(2)
H4_2 H 0.5856 0.1073 0.1565
C12_2 C 0.1354(4) 0.9636(3) 0.0023(2)
H8_2 H 0.2267 0.9384 0.0040
C33_2 C 0.0145(4) 0.9169(3) 0.0132(2)
H29_2 H 0.0254 0.8608 0.0220
C11_2 C 0.9855(4) 0.0831(3) 0.9868(2)
H7_2 H 0.9746 0.1392 0.9780
C34_2 C 0.8646(4) 0.0364(3) 0.9977(2)
H30_2 H 0.7733 0.0616 0.9960
N6_2 N 0.6384(4) 0.8984(3) 0.9534(2)
H23_2 H 0.6572 0.9216 0.9116
O5_2 O 0.0194(3) 0.80135(18) 0.82233(16)
O6_2 O 0.1604(3) 0.8821(2) 0.76278(18)
C23_2 C 0.1406(4) 0.8376(2) 0.8174(2)
C25_2 C 0.2623(4) 0.8233(2) 0.8849(2)
C26_2 C 0.2361(4) 0.7762(2) 0.9479(2)
H24_2 H 0.1479 0.7476 0.9457
C29_2 C 0.5056(4) 0.8580(3) 0.9521(2)
C30_2 C 0.3967(4) 0.8627(2) 0.8867(2)
H26_2 H 0.4144 0.8927 0.8435
N7_2 N 0.6160(4) 0.0321(2) 0.7290(2)
C37_2 C 0.7133(5) 0.0471(3) 0.7950(3)
H33_2 H 0.7121 0.0914 0.8287
C41_2 C 0.4872(5) 0.0825(3) 0.6986(3)
H37_2 H 0.5148 0.1400 0.7015
H38_2 H 0.4546 0.0689 0.6442
C42_2 C 0.3640(5) 0.0688(3) 0.7433(3)
H39_2 H 0.3351 0.0115 0.7397
H40_2 H 0.3968 0.0816 0.7978
C43_2 C 0.2313(5) 0.1226(3) 0.7119(4)
H41_2 H 0.2033 0.1127 0.6565
H42_2 H 0.2587 0.1800 0.7188
C44_2 C 0.1051(6) 0.1059(4) 0.7515(4)
H43_2 H 0.0765 0.0488 0.7435
H44_2 H 0.1341 0.1144 0.8071
loop_
_geom_bond_atom_site_label_1
_geom_bond_atom_site_label_2
_geom_bond_site_symmetry_1
_geom_bond_site_symmetry_2
N9 C38 1_555 1_555
N10 C38 1_555 1_555
C38 H34 1_555 1_555
C39 N10 1_555 1_555
H35 C39 1_555 1_555
C40 N9 1_555 1_555
H36 C40 1_555 1_555
H38 C41 1_555 1_555
C42 C41 1_555 1_555
H39 C42 1_555 1_555
H40 C42 1_555 1_555
C43 C42 1_555 1_555
H41 C43 1_555 1_555
H42 C43 1_555 1_555
C44 N9 1_555 1_555
H43 C44 1_555 1_555
H44 C44 1_555 1_555
Zn6 N10 1_555 1_555
C39 C40 1_555 1_555
C43 C44 1_555 1_555
Zn1 N3 1_555 1_555
N2 C13 1_555 1_555
N3 C13 1_555 1_555
O1 Zn1 1_555 1_555
O2 C1 1_555 1_555
O3 C2 1_555 1_555
O4 C2 1_555 1_555
C1 O1 1_555 1_555
C2 C5 1_555 1_555
C3 C1 1_555 1_555
C4 C3 1_555 1_555
H2 C4 1_555 1_555
C5 C4 1_555 1_555
C6 C5 1_555 1_555
C8 C3 1_555 1_555
H4 C8 1_555 1_555
C13 H9 1_555 1_555
C14 N3 1_555 1_555
H10 C14 1_555 1_555
C15 N2 1_555 1_555
H11 C15 1_555 1_555
Zn6 O3 1_555 1_555
N11 Zn1 1_555 1_555
O10 Zn1 1_555 1_555
C14 C15 1_555 1_555
N4 C16 1_555 1_555
N11 C16 1_555 1_555
C16 H12 1_555 1_555
C17 N11 1_555 1_555
H13 C17 1_555 1_555
C18 N4 1_555 1_555
H14 C18 1_555 1_555
C17 C18 1_555 1_555
O10 C24 1_555 1_555
O8 C24 1_555 1_555
C24 C27 1_555 1_555
C28 C27 1_555 1_555
H25 C28 1_555 1_555
H27 C31 1_555 1_555
H28 C31 1_555 1_555
C32 C31 1_555 1_555
N8 Zn6 1_555 1_555
C35 N8 1_555 1_555
H31 C35 1_555 1_555
C36 N8 1_555 1_555
H32 C36 1_555 1_555
O5 C23 1_555 1_555
O6 C23 1_555 1_555
O7 C24_2 1_555 1_555
O8_2 C24_2 1_555 1_555
C23 C25 1_555 1_555
C24_2 C27_2 1_555 1_555
C25 C26 1_555 1_555
C26 H24 1_555 1_555
C27_2 C26 1_555 1_555
C28_2 C27_2 1_555 1_555
C30 C25 1_555 1_555
H26 C30 1_555 1_555
Zn2 O5 1_555 1_555
N7 C35_2 1_555 1_555
N8_2 Zn2 1_555 1_555
C35_2 N8_2 1_555 1_555
H31_2 C35_2 1_555 1_555
C36_2 N8_2 1_555 1_555
H32_2 C36_2 1_555 1_555
C37 N7 1_555 1_555
H33 C37 1_555 1_555
Zn4 O7 1_555 1_555
N12 Zn2 1_555 1_555
O9 Zn2 1_555 1_555
C36_2 C37 1_555 1_555
N4_2 C16_2 1_555 1_555
N5 C16_2 1_555 1_555
C16_2 H12_2 1_555 1_555
C17_2 N5 1_555 1_555
H13_2 C17_2 1_555 1_555
C18_2 N4_2 1_555 1_555
H14_2 C18_2 1_555 1_555
H16 C19 1_555 1_555
C20 C19 1_555 1_555
H17 C20 1_555 1_555
H18 C20 1_555 1_555
C21 C20 1_555 1_555
H19 C21 1_555 1_555
H20 C21 1_555 1_555
C22 N4_2 1_555 1_555
H21 C22 1_555 1_555
H22 C22 1_555 1_555
Zn4 N5 1_555 1_555
C17_2 C18_2 1_555 1_555
C21 C22 1_555 1_555
Zn4 N3_2 1_555 1_555
N3_2 C13_2 1_555 1_555
C13_2 H9_2 1_555 1_555
C14_2 N3_2 1_555 1_555
H10_2 C14_2 1_555 1_555
O9 C2_2 1_555 1_555
O4_2 C2_2 1_555 1_555
C2_2 C5_2 1_555 1_555
C6_2 C5_2 1_555 1_555
H3 C6_2 1_555 1_555
H5 C9 1_555 1_555
H6 C9 1_555 1_555
C10 C9 1_555 1_555
N9_2 C38_2 1_555 1_555
N12 C38_2 1_555 1_555
C38_2 H34_2 1_555 1_555
C39_2 N12 1_555 1_555
H35_2 C39_2 1_555 1_555
C40_2 N9_2 1_555 1_555
H36_2 C40_2 1_555 1_555
C39_2 C40_2 1_555 1_555
N1 H1 1_555 1_555
C7 N1 1_555 1_555
C9_2 N1 1_555 1_555
H5_2 C9_2 1_555 1_555
H6_2 C9_2 1_555 1_555
C10_2 C9_2 1_555 1_555
C11 C10_2 1_555 1_555
H7 C11 1_555 1_555
C12 C10_2 1_555 1_555
H8 C12 1_555 1_555
N6 H23 1_555 1_555
C29 N6 1_555 1_555
C31_2 N6 1_555 1_555
H27_2 C31_2 1_555 1_555
H28_2 C31_2 1_555 1_555
C32_2 C31_2 1_555 1_555
C33 C12 1_555 1_555
H29 C33 1_555 1_555
C34 C11 1_555 1_555
H30 C34 1_555 1_555
C32_2 C33 1_555 1_555
C32_2 C34 1_555 1_555
C15_2 N2_2 1_555 1_555
H11_2 C15_2 1_555 1_555
C19_2 N2_2 1_555 1_555
H15_2 C19_2 1_555 1_555
H16_2 C19_2 1_555 1_555
C20_2 C19_2 1_555 1_555
H17_2 C20_2 1_555 1_555
H18_2 C20_2 1_555 1_555
C21_2 C20_2 1_555 1_555
H19_2 C21_2 1_555 1_555
H20_2 C21_2 1_555 1_555
H21_2 C22_2 1_555 1_555
H22_2 C22_2 1_555 1_555
C21_2 C22_2 1_555 1_555
N1_2 H1_2 1_555 1_555
O2_2 C1_2 1_555 1_555
C1_2 O1_2 1_555 1_555
C3_2 C1_2 1_555 1_555
C4_2 C3_2 1_555 1_555
H2_2 C4_2 1_555 1_555
C7_2 N1_2 1_555 1_555
C8_2 C3_2 1_555 1_555
H4_2 C8_2 1_555 1_555
C7_2 C8_2 1_555 1_555
H8_2 C12_2 1_555 1_555
C33_2 C12_2 1_555 1_555
H29_2 C33_2 1_555 1_555
H7_2 C11_2 1_555 1_555
C34_2 C11_2 1_555 1_555
H30_2 C34_2 1_555 1_555
N6_2 H23_2 1_555 1_555
O5_2 C23_2 1_555 1_555
O6_2 C23_2 1_555 1_555
C23_2 C25_2 1_555 1_555
C25_2 C26_2 1_555 1_555
C26_2 H24_2 1_555 1_555
C29_2 N6_2 1_555 1_555
C30_2 C25_2 1_555 1_555
H26_2 C30_2 1_555 1_555
C29_2 C30_2 1_555 1_555
C37_2 N7_2 1_555 1_555
H33_2 C37_2 1_555 1_555
C41_2 N7_2 1_555 1_555
H37_2 C41_2 1_555 1_555
H38_2 C41_2 1_555 1_555
C42_2 C41_2 1_555 1_555
H39_2 C42_2 1_555 1_555
H40_2 C42_2 1_555 1_555
C43_2 C42_2 1_555 1_555
H41_2 C43_2 1_555 1_555
H42_2 C43_2 1_555 1_555
H43_2 C44_2 1_555 1_555
H44_2 C44_2 1_555 1_555
C43_2 C44_2 1_555 1_555

#END
