
###############################################################################
#
# This file contains modified crystal structure data generated from the
# MOF subset of the Cambridge Structural Database (CSD) v543 
# hosted by the Cambridge Crystallographic Data Centre (CCDC).
#
# This work is licensed under the Creative Commons
# Attribution-NonCommercial-ShareAlike 4.0 International License.
# To view a copy of this license, visit
# http://creativecommons.org/licenses/by-nc-sa/4.0/
# or send a letter to
# Creative Commons, PO Box 1866, Mountain View, CA 94042, USA.
#
# CIF created using the CSD Python API on 29 September 2022
# The structure has been converted into the P1 space group
# The structure has a 3D framework
# The original CSD entry QOCBEQ is in the tetragonal crystal system
# The framework has been calculated to contain at least 10.0% void space
# The void calculation uses a probe of radius 1.32A, grid spacing 0.4
#
###############################################################################

data_QOCBEQ
_chemical_formula_moiety         '(C98 H128 N16 Ni17 O16)n'
_symmetry_cell_setting           triclinic
_symmetry_space_group_name_H-M   'P 1'
_symmetry_Int_Tables_number      1
_space_group_name_Hall           'P 1'
loop_
_symmetry_equiv_pos_site_id
_symmetry_equiv_pos_as_xyz
1 x,y,z
_cell_length_a                   16.7640(10)
_cell_length_b                   16.7640(10)
_cell_length_c                   12.2840(10)
_cell_angle_alpha                90
_cell_angle_beta                 90
_cell_angle_gamma                90
_cell_volume                     3452.19
loop_
_atom_site_label
_atom_site_type_symbol
_atom_site_fract_x
_atom_site_fract_y
_atom_site_fract_z
Ni2 Ni 0.0000 0.0000 -0.0000
N7 N 0.09421(16) 0.00589(18) 0.1067(2)
H30 H 0.0736 0.0170 0.1735
C46 C 0.0853(2) 0.1436(2) 0.0422(3)
H55 H 0.0556 0.1608 0.1058
H58 H 0.1160 0.1886 0.0155
C48 C 0.1408(2) 0.0762(2) 0.0727(3)
H60 H 0.1740 0.0625 0.0108
H63 H 0.1754 0.0930 0.1318
Ni1 Ni 0.5000 1.0000 1.0000
N2 N 0.50589(18) 0.90579(16) 0.8933(2)
H5 H 0.5170 0.9264 0.8265
C8 C 0.3293(2) 0.9649(2) 0.9341(3)
H6 H 0.2791 0.9867 0.9087
C10 C 0.3620(2) 0.9082(2) 0.8489(3)
H9 H 0.3194 0.8723 0.8271
H10 H 0.3769 0.9391 0.7853
C11 C 0.4324(2) 0.8589(2) 0.8826(3)
H11 H 0.4409 0.8171 0.8291
H12 H 0.4208 0.8334 0.9517
C13 C 0.5762(2) 0.8592(2) 0.9273(3)
H15 H 0.5625 0.8260 0.9892
H16 H 0.5930 0.8246 0.8682
Ni4 Ni 0.0000 0.5000 1.0000
C44 C 0.6436(2) 0.9147(2) 0.9578(3)
H53 H 0.6608 0.9444 0.8942
H56 H 0.6886 0.8840 0.9845
Ni2_2 Ni 1.0000 1.0000 -0.0000
N4 N 0.96998(16) 0.88380(15) 0.0423(2)
H18 H 0.9408 0.8874 0.1046
O9 O 0.05225(16) 0.3842(2) 0.7795(2)
H24 H 0.0017 0.2924 0.6338
O10 O 0.8842(2) 0.94775(16) 0.2205(2)
H25 H 0.7924 0.9983 0.3662
N5 N 0.11620(15) 0.46998(16) 0.9577(2)
H19 H 0.1126 0.4408 0.8954
C34 C 0.1707(2) 0.5351(2) 0.9341(3)
H34 H 0.2209 0.5133 0.9087
C40 C 0.1380(2) 0.5918(2) 0.8489(3)
H43 H 0.1806 0.6277 0.8271
H46 H 0.1231 0.5609 0.7853
C43 C 0.0676(2) 0.6411(2) 0.8826(3)
H49 H 0.0591 0.6829 0.8291
H52 H 0.0792 0.6666 0.9517
Ni1_2 Ni 0.5000 0.0000 0.0000
C12 C 0.3564(2) 0.0853(2) 0.0422(3)
H13 H 0.3392 0.0556 0.1058
H14 H 0.3114 0.1160 0.0155
Ni2_3 Ni 0.0000 0.0000 1.0000
N5_2 N 0.03002(16) 0.11620(15) 0.9577(2)
H19_2 H 0.0592 0.1126 0.8954
O8 O 0.1158(2) 0.05225(16) 0.7795(2)
H23 H 0.2076 0.0017 0.6338
N6 N 0.49411(18) 0.09421(16) 0.1067(2)
H29 H 0.4830 0.0736 0.1735
C32 C 0.6707(2) 0.0351(2) 0.0659(3)
H32 H 0.7209 0.0133 0.0913
C38 C 0.6380(2) 0.0918(2) 0.1511(3)
H41 H 0.6806 0.1277 0.1729
H44 H 0.6231 0.0609 0.2147
C41 C 0.5676(2) 0.1411(2) 0.1174(3)
H47 H 0.5591 0.1829 0.1709
H50 H 0.5792 0.1666 0.0483
C47 C 0.4238(2) 0.1408(2) 0.0727(3)
H59 H 0.4375 0.1740 0.0108
H62 H 0.4070 0.1754 0.1318
Ni2_4 Ni 1.0000 1.0000 1.0000
Ni4_2 Ni 1.0000 0.5000 0.0000
O10_2 O 0.94775(16) 0.6158(2) 0.2205(2)
H25_2 H 0.9983 0.7076 0.3662
N8 N 0.90579(16) 0.99411(18) 0.8933(2)
H31 H 0.9264 0.9830 0.8265
C45 C 0.9147(2) 0.8564(2) 0.9578(3)
H54 H 0.9444 0.8392 0.8942
H57 H 0.8840 0.8114 0.9845
C49 C 0.8592(2) 0.9238(2) 0.9273(3)
H61 H 0.8260 0.9375 0.9892
H64 H 0.8246 0.9070 0.8682
N4_2 N 0.88380(15) 0.53002(16) 0.0423(2)
H18_2 H 0.8874 0.5592 0.1046
C33 C 0.8293(2) 0.4649(2) 0.0659(3)
H33 H 0.7791 0.4867 0.0913
C39 C 0.8620(2) 0.4082(2) 0.1511(3)
H42 H 0.8194 0.3723 0.1729
H45 H 0.8769 0.4391 0.2147
C42 C 0.9324(2) 0.3589(2) 0.1174(3)
H48 H 0.9409 0.3171 0.1709
H51 H 0.9208 0.3334 0.0483
Ni1_3 Ni 0.5000 0.0000 1.0000
N1 N 0.38380(15) 0.03002(16) 0.9577(2)
H1 H 0.3874 0.0592 0.8954
O6 O 0.54796(13) 0.07258(13) 0.87746(16)
H35 H 0.6811 0.0645 0.9994
Ni2_5 Ni 0.0000 1.0000 -0.0000
Ni3 Ni 0.5000 0.5000 -0.0000
C33_2 C 0.0351(2) 0.8293(2) 0.0659(3)
H33_2 H 0.0133 0.7791 0.0913
C39_2 C 0.0918(2) 0.8620(2) 0.1511(3)
H42_2 H 0.1277 0.8194 0.1729
H45_2 H 0.0609 0.8769 0.2147
C42_2 C 0.1411(2) 0.9324(2) 0.1174(3)
H48_2 H 0.1829 0.9409 0.1709
H51_2 H 0.1666 0.9208 0.0483
Ni2_6 Ni 1.0000 0.0000 -0.0000
O7 O 0.92742(13) 0.04796(13) 0.12254(16)
H37 H 0.9355 0.1811 0.0006
Ni4_3 Ni 1.0000 0.5000 1.0000
O1 O 0.57258(13) 0.45204(13) 0.12254(16)
C1 C 0.64521(19) 0.42226(18) 0.2792(2)
C2 C 0.71293(18) 0.31419(19) 0.42420(19)
C3 C 0.7500 0.2500 0.5000
O2 O 0.6158(2) 0.55225(16) 0.2205(2)
C4 C 0.6627(2) 0.28821(19) 0.3406(2)
H2 H 0.6518 0.2341 0.3327
C5 C 0.6960(2) 0.4476(2) 0.3598(3)
H3 H 0.7076 0.5017 0.3662
C6 C 0.62967(19) 0.34176(19) 0.2708(2)
H4 H 0.5958 0.3237 0.2161
C7 C 0.6078(2) 0.4809(2) 0.1998(3)
H7 H 0.5645 0.3189 0.0006
C9 C 0.7299(2) 0.3941(2) 0.4317(2)
H8 H 0.7645 0.4123 0.4854
C12_2 C 0.4147(2) 0.3564(2) 0.0422(3)
H13_2 H 0.4444 0.3392 0.1058
H14_2 H 0.3840 0.3114 0.0155
O4 O 0.95204(13) 0.42742(13) 0.87746(16)
N3 N 0.53002(16) 0.61620(15) 0.0423(2)
H17 H 0.5592 0.6126 0.1046
C14 C 0.57774(18) 0.14521(19) 0.7208(2)
C15 C 0.92226(18) 0.35479(19) 0.7208(2)
C16 C 0.85479(19) 0.07774(18) 0.2792(2)
C17 C 0.68581(19) 0.21293(18) 0.57580(19)
C18 C 0.81419(19) 0.28707(18) 0.57580(19)
C19 C 0.78707(18) 0.18581(19) 0.42420(19)
O8_2 O 0.44775(16) 0.1158(2) 0.7795(2)
C20 C 0.71179(19) 0.1627(2) 0.6594(2)
C21 C 0.78821(19) 0.3373(2) 0.6594(2)
C22 C 0.8373(2) 0.21179(19) 0.3406(2)
H20 H 0.7659 0.1518 0.6673
H21 H 0.7341 0.3482 0.6673
H22 H 0.8482 0.2659 0.3327
C23 C 0.5524(2) 0.1960(2) 0.6402(3)
C24 C 0.9476(2) 0.3040(2) 0.6402(3)
C25 C 0.8040(2) 0.0524(2) 0.3598(3)
H23_2 H 0.4983 0.2076 0.6338
C26 C 0.65824(19) 0.12967(19) 0.7292(2)
C27 C 0.84176(19) 0.37033(19) 0.7292(2)
C28 C 0.87033(19) 0.15824(19) 0.2708(2)
H26 H 0.6763 0.0958 0.7839
H27 H 0.8237 0.4042 0.7839
H28 H 0.9042 0.1763 0.2161
N6_2 N 0.40579(16) 0.49411(18) 0.1067(2)
H29_2 H 0.4264 0.4830 0.1735
C29 C 0.5191(2) 0.1078(2) 0.8002(3)
C30 C 0.9809(2) 0.3922(2) 0.8002(3)
C31 C 0.8922(2) 0.0191(2) 0.1998(3)
C32_2 C 0.4649(2) 0.6707(2) 0.0659(3)
H32_2 H 0.4867 0.7209 0.0913
C35 C 0.6059(2) 0.2299(2) 0.5683(2)
C36 C 0.8941(2) 0.2701(2) 0.5683(2)
C37 C 0.7701(2) 0.1059(2) 0.4317(2)
H38 H 0.5877 0.2645 0.5146
H39 H 0.9123 0.2355 0.5146
H40 H 0.7355 0.0877 0.4854
C38_2 C 0.4082(2) 0.6380(2) 0.1511(3)
H41_2 H 0.3723 0.6806 0.1729
H44_2 H 0.4391 0.6231 0.2147
C41_2 C 0.3589(2) 0.5676(2) 0.1174(3)
H47_2 H 0.3171 0.5591 0.1709
H50_2 H 0.3334 0.5792 0.0483
C47_2 C 0.3592(2) 0.4238(2) 0.0727(3)
H59_2 H 0.3260 0.4375 0.0108
H62_2 H 0.3246 0.4070 0.1318
N8_2 N 0.99411(18) 0.59421(16) 0.8933(2)
H31_2 H 0.9830 0.5736 0.8265
H36 H 0.8189 0.4355 0.9994
C45_2 C 0.8564(2) 0.5853(2) 0.9578(3)
H54_2 H 0.8392 0.5556 0.8942
H57_2 H 0.8114 0.6160 0.9845
C49_2 C 0.9238(2) 0.6408(2) 0.9273(3)
H61_2 H 0.9375 0.6740 0.9892
H64_2 H 0.9070 0.6754 0.8682
Ni1_4 Ni 0.5000 1.0000 0.0000
O1_2 O 0.45204(13) 0.92742(13) 0.12254(16)
C1_2 C 0.42226(18) 0.85479(19) 0.2792(2)
C2_2 C 0.31419(19) 0.78707(18) 0.42420(19)
C3_2 C 0.2500 0.7500 0.5000
O2_2 O 0.55225(16) 0.8842(2) 0.2205(2)
C4_2 C 0.28821(19) 0.8373(2) 0.3406(2)
H2_2 H 0.2341 0.8482 0.3327
C5_2 C 0.4476(2) 0.8040(2) 0.3598(3)
H3_2 H 0.5017 0.7924 0.3662
C6_2 C 0.34176(19) 0.87033(19) 0.2708(2)
H4_2 H 0.3237 0.9042 0.2161
C7_2 C 0.4809(2) 0.8922(2) 0.1998(3)
H7_2 H 0.3189 0.9355 0.0006
C9_2 C 0.3941(2) 0.7701(2) 0.4317(2)
H8_2 H 0.4123 0.7355 0.4854
Ni2_7 Ni 0.0000 1.0000 1.0000
Ni3_2 Ni 0.5000 0.5000 1.0000
Ni4_4 Ni 0.0000 0.5000 0.0000
O3 O 0.07258(13) 0.95204(13) 0.87746(16)
O4_2 O 0.42742(13) 0.54796(13) 0.87746(16)
O5 O 0.04796(13) 0.57258(13) 0.12254(16)
N3_2 N 0.61620(15) 0.96998(16) 0.0423(2)
H17_2 H 0.6126 0.9408 0.1046
C14_2 C 0.14521(19) 0.92226(18) 0.7208(2)
C15_2 C 0.35479(19) 0.57774(18) 0.7208(2)
C16_2 C 0.07774(18) 0.64521(19) 0.2792(2)
C17_2 C 0.21293(18) 0.81419(19) 0.57580(19)
C18_2 C 0.28707(18) 0.68581(19) 0.57580(19)
C19_2 C 0.18581(19) 0.71293(18) 0.42420(19)
O9_2 O 0.3842(2) 0.44775(16) 0.7795(2)
C20_2 C 0.1627(2) 0.78821(19) 0.6594(2)
C21_2 C 0.3373(2) 0.71179(19) 0.6594(2)
C22_2 C 0.21179(19) 0.6627(2) 0.3406(2)
H20_2 H 0.1518 0.7341 0.6673
H21_2 H 0.3482 0.7659 0.6673
H22_2 H 0.2659 0.6518 0.3327
C23_2 C 0.1960(2) 0.9476(2) 0.6402(3)
C24_2 C 0.3040(2) 0.5524(2) 0.6402(3)
C25_2 C 0.0524(2) 0.6960(2) 0.3598(3)
H24_2 H 0.2924 0.4983 0.6338
C26_2 C 0.12967(19) 0.84176(19) 0.7292(2)
C27_2 C 0.37033(19) 0.65824(19) 0.7292(2)
C28_2 C 0.15824(19) 0.62967(19) 0.2708(2)
H26_2 H 0.0958 0.8237 0.7839
H27_2 H 0.4042 0.6763 0.7839
H28_2 H 0.1763 0.5958 0.2161
C29_2 C 0.1078(2) 0.9809(2) 0.8002(3)
C30_2 C 0.3922(2) 0.5191(2) 0.8002(3)
C31_2 C 0.0191(2) 0.6078(2) 0.1998(3)
H36_2 H 0.0645 0.8189 0.9994
C35_2 C 0.2299(2) 0.8941(2) 0.5683(2)
C36_2 C 0.2701(2) 0.6059(2) 0.5683(2)
C37_2 C 0.1059(2) 0.7299(2) 0.4317(2)
H38_2 H 0.2645 0.9123 0.5146
H39_2 H 0.2355 0.5877 0.5146
H40_2 H 0.0877 0.7645 0.4854
Ni2_8 Ni 1.0000 0.0000 1.0000
C34_2 C 0.9649(2) 0.1707(2) 0.9341(3)
H34_2 H 0.9867 0.2209 0.9087
C40_2 C 0.9082(2) 0.1380(2) 0.8489(3)
H43_2 H 0.8723 0.1806 0.8271
H46_2 H 0.9391 0.1231 0.7853
C43_2 C 0.8589(2) 0.0676(2) 0.8826(3)
H49_2 H 0.8171 0.0591 0.8291
H52_2 H 0.8334 0.0792 0.9517
N1_2 N 0.46998(16) 0.38380(15) 0.9577(2)
H1_2 H 0.4408 0.3874 0.8954
N2_2 N 0.59421(16) 0.50589(18) 0.8933(2)
H5_2 H 0.5736 0.5170 0.8265
C8_2 C 0.5351(2) 0.3293(2) 0.9341(3)
H6_2 H 0.5133 0.2791 0.9087
C10_2 C 0.5918(2) 0.3620(2) 0.8489(3)
H9_2 H 0.6277 0.3194 0.8271
H10_2 H 0.5609 0.3769 0.7853
C11_2 C 0.6411(2) 0.4324(2) 0.8826(3)
H11_2 H 0.6829 0.4409 0.8291
H12_2 H 0.6666 0.4208 0.9517
C13_2 C 0.6408(2) 0.5762(2) 0.9273(3)
H15_2 H 0.6740 0.5625 0.9892
H16_2 H 0.6754 0.5930 0.8682
H35_2 H 0.4355 0.6811 0.9994
C44_2 C 0.5853(2) 0.6436(2) 0.9578(3)
H53_2 H 0.5556 0.6608 0.8942
H56_2 H 0.6160 0.6886 0.9845
N7_2 N 0.00589(18) 0.40579(16) 0.1067(2)
H30_2 H 0.0170 0.4264 0.1735
H37_2 H 0.1811 0.5645 0.0006
C46_2 C 0.1436(2) 0.4147(2) 0.0422(3)
H55_2 H 0.1608 0.4444 0.1058
H58_2 H 0.1886 0.3840 0.0155
C48_2 C 0.0762(2) 0.3592(2) 0.0727(3)
H60_2 H 0.0625 0.3260 0.0108
H63_2 H 0.0930 0.3246 0.1318
loop_
_geom_bond_atom_site_label_1
_geom_bond_atom_site_label_2
_geom_bond_site_symmetry_1
_geom_bond_site_symmetry_2
N7 Ni2 1_555 1_555
H30 N7 1_555 1_555
H55 C46 1_555 1_555
H58 C46 1_555 1_555
C48 N7 1_555 1_555
H60 C48 1_555 1_555
H63 C48 1_555 1_555
C46 C48 1_555 1_555
N2 Ni1 1_555 1_555
H5 N2 1_555 1_555
H6 C8 1_555 1_555
C10 C8 1_555 1_555
H9 C10 1_555 1_555
H10 C10 1_555 1_555
C11 N2 1_555 1_555
H11 C11 1_555 1_555
H12 C11 1_555 1_555
C13 N2 1_555 1_555
H15 C13 1_555 1_555
H16 C13 1_555 1_555
C44 C13 1_555 1_555
H53 C44 1_555 1_555
H56 C44 1_555 1_555
C10 C11 1_555 1_555
N4 Ni2_2 1_555 1_555
H18 N4 1_555 1_555
N5 Ni4 1_555 1_555
H19 N5 1_555 1_555
C34 N5 1_555 1_555
H34 C34 1_555 1_555
C40 C34 1_555 1_555
H43 C40 1_555 1_555
H46 C40 1_555 1_555
H49 C43 1_555 1_555
H52 C43 1_555 1_555
C40 C43 1_555 1_555
H13 C12 1_555 1_555
H14 C12 1_555 1_555
N5_2 Ni2_3 1_555 1_555
H19_2 N5_2 1_555 1_555
N6 Ni1_2 1_555 1_555
H29 N6 1_555 1_555
H32 C32 1_555 1_555
C38 C32 1_555 1_555
H41 C38 1_555 1_555
H44 C38 1_555 1_555
C41 N6 1_555 1_555
H47 C41 1_555 1_555
H50 C41 1_555 1_555
C47 C12 1_555 1_555
H59 C47 1_555 1_555
H62 C47 1_555 1_555
N6 C47 1_555 1_555
C38 C41 1_555 1_555
N8 Ni2_4 1_555 1_555
H31 N8 1_555 1_555
H54 C45 1_555 1_555
H57 C45 1_555 1_555
C49 N8 1_555 1_555
H61 C49 1_555 1_555
H64 C49 1_555 1_555
C45 C49 1_555 1_555
N4_2 Ni4_2 1_555 1_555
H18_2 N4_2 1_555 1_555
C33 N4_2 1_555 1_555
H33 C33 1_555 1_555
C39 C33 1_555 1_555
H42 C39 1_555 1_555
H45 C39 1_555 1_555
H48 C42 1_555 1_555
H51 C42 1_555 1_555
C39 C42 1_555 1_555
N1 Ni1_3 1_555 1_555
H1 N1 1_555 1_555
O6 Ni1_3 1_555 1_555
H33_2 C33_2 1_555 1_555
C39_2 C33_2 1_555 1_555
H42_2 C39_2 1_555 1_555
H45_2 C39_2 1_555 1_555
H48_2 C42_2 1_555 1_555
H51_2 C42_2 1_555 1_555
C39_2 C42_2 1_555 1_555
O7 Ni2_6 1_555 1_555
Ni3 O1 1_555 1_555
O1 C7 1_555 1_555
C1 C5 1_555 1_555
C2 C3 1_555 1_555
C3 C17 1_555 1_555
O2 C7 1_555 1_555
C4 C2 1_555 1_555
H2 C4 1_555 1_555
C5 H3 1_555 1_555
C6 C1 1_555 1_555
H4 C6 1_555 1_555
C7 C1 1_555 1_555
C9 C2 1_555 1_555
H8 C9 1_555 1_555
H13_2 C12_2 1_555 1_555
H14_2 C12_2 1_555 1_555
Ni4_3 O4 1_555 1_555
O6 C29 1_555 1_555
O4 C30 1_555 1_555
O7 C31 1_555 1_555
N3 Ni3 1_555 1_555
H17 N3 1_555 1_555
C14 C23 1_555 1_555
C15 C24 1_555 1_555
C16 C25 1_555 1_555
C17 C20 1_555 1_555
C18 C3 1_555 1_555
C19 C3 1_555 1_555
O8_2 C29 1_555 1_555
C20 H20 1_555 1_555
C21 C18 1_555 1_555
C22 C19 1_555 1_555
H21 C21 1_555 1_555
H22 C22 1_555 1_555
C23 H23_2 1_555 1_555
C26 C14 1_555 1_555
C27 C15 1_555 1_555
C28 C16 1_555 1_555
H26 C26 1_555 1_555
H27 C27 1_555 1_555
H28 C28 1_555 1_555
N6_2 Ni3 1_555 1_555
H29_2 N6_2 1_555 1_555
C29 C14 1_555 1_555
C30 C15 1_555 1_555
C31 C16 1_555 1_555
C32_2 N3 1_555 1_555
H32_2 C32_2 1_555 1_555
C35 C17 1_555 1_555
C36 C18 1_555 1_555
C37 C19 1_555 1_555
H38 C35 1_555 1_555
H39 C36 1_555 1_555
H40 C37 1_555 1_555
C38_2 C32_2 1_555 1_555
H41_2 C38_2 1_555 1_555
H44_2 C38_2 1_555 1_555
C41_2 N6_2 1_555 1_555
H47_2 C41_2 1_555 1_555
H50_2 C41_2 1_555 1_555
C47_2 C12_2 1_555 1_555
H59_2 C47_2 1_555 1_555
H62_2 C47_2 1_555 1_555
C4 C6 1_555 1_555
C5 C9 1_555 1_555
C20 C26 1_555 1_555
C21 C27 1_555 1_555
C22 C28 1_555 1_555
C23 C35 1_555 1_555
C24 C36 1_555 1_555
C25 C37 1_555 1_555
N6_2 C47_2 1_555 1_555
C38_2 C41_2 1_555 1_555
N8_2 Ni4_3 1_555 1_555
H31_2 N8_2 1_555 1_555
H54_2 C45_2 1_555 1_555
H57_2 C45_2 1_555 1_555
C49_2 N8_2 1_555 1_555
H61_2 C49_2 1_555 1_555
H64_2 C49_2 1_555 1_555
C45_2 C49_2 1_555 1_555
Ni1_4 O1_2 1_555 1_555
O1_2 C7_2 1_555 1_555
C1_2 C5_2 1_555 1_555
C2_2 C3_2 1_555 1_555
C3_2 C17_2 1_555 1_555
O2_2 C7_2 1_555 1_555
C4_2 C2_2 1_555 1_555
H2_2 C4_2 1_555 1_555
C5_2 H3_2 1_555 1_555
C6_2 C1_2 1_555 1_555
H4_2 C6_2 1_555 1_555
C7_2 C1_2 1_555 1_555
C9_2 C2_2 1_555 1_555
H8_2 C9_2 1_555 1_555
Ni2_7 O3 1_555 1_555
Ni3_2 O4_2 1_555 1_555
Ni4_4 O5 1_555 1_555
O3 C29_2 1_555 1_555
O4_2 C30_2 1_555 1_555
O5 C31_2 1_555 1_555
N3_2 Ni1_4 1_555 1_555
H17_2 N3_2 1_555 1_555
C14_2 C23_2 1_555 1_555
C15_2 C24_2 1_555 1_555
C16_2 C25_2 1_555 1_555
C17_2 C20_2 1_555 1_555
C18_2 C3_2 1_555 1_555
C19_2 C3_2 1_555 1_555
O9_2 C30_2 1_555 1_555
C20_2 H20_2 1_555 1_555
C21_2 C18_2 1_555 1_555
C22_2 C19_2 1_555 1_555
H21_2 C21_2 1_555 1_555
H22_2 C22_2 1_555 1_555
C24_2 H24_2 1_555 1_555
C26_2 C14_2 1_555 1_555
C27_2 C15_2 1_555 1_555
C28_2 C16_2 1_555 1_555
H26_2 C26_2 1_555 1_555
H27_2 C27_2 1_555 1_555
H28_2 C28_2 1_555 1_555
C29_2 C14_2 1_555 1_555
C30_2 C15_2 1_555 1_555
C31_2 C16_2 1_555 1_555
C35_2 C17_2 1_555 1_555
C36_2 C18_2 1_555 1_555
C37_2 C19_2 1_555 1_555
H38_2 C35_2 1_555 1_555
H39_2 C36_2 1_555 1_555
H40_2 C37_2 1_555 1_555
C4_2 C6_2 1_555 1_555
C5_2 C9_2 1_555 1_555
C20_2 C26_2 1_555 1_555
C21_2 C27_2 1_555 1_555
C22_2 C28_2 1_555 1_555
C23_2 C35_2 1_555 1_555
C24_2 C36_2 1_555 1_555
C25_2 C37_2 1_555 1_555
H34_2 C34_2 1_555 1_555
C40_2 C34_2 1_555 1_555
H43_2 C40_2 1_555 1_555
H46_2 C40_2 1_555 1_555
H49_2 C43_2 1_555 1_555
H52_2 C43_2 1_555 1_555
C40_2 C43_2 1_555 1_555
N1_2 Ni3_2 1_555 1_555
H1_2 N1_2 1_555 1_555
N2_2 Ni3_2 1_555 1_555
H5_2 N2_2 1_555 1_555
C8_2 N1_2 1_555 1_555
H6_2 C8_2 1_555 1_555
C10_2 C8_2 1_555 1_555
H9_2 C10_2 1_555 1_555
H10_2 C10_2 1_555 1_555
C11_2 N2_2 1_555 1_555
H11_2 C11_2 1_555 1_555
H12_2 C11_2 1_555 1_555
C13_2 N2_2 1_555 1_555
H15_2 C13_2 1_555 1_555
H16_2 C13_2 1_555 1_555
C44_2 C13_2 1_555 1_555
H53_2 C44_2 1_555 1_555
H56_2 C44_2 1_555 1_555
C10_2 C11_2 1_555 1_555
N7_2 Ni4_4 1_555 1_555
H30_2 N7_2 1_555 1_555
H55_2 C46_2 1_555 1_555
H58_2 C46_2 1_555 1_555
C48_2 N7_2 1_555 1_555
H60_2 C48_2 1_555 1_555
H63_2 C48_2 1_555 1_555
C46_2 C48_2 1_555 1_555

#END
