
###############################################################################
#
# This file contains modified crystal structure data generated from the
# MOF subset of the Cambridge Structural Database (CSD) v543 
# hosted by the Cambridge Crystallographic Data Centre (CCDC).
#
# This work is licensed under the Creative Commons
# Attribution-NonCommercial-ShareAlike 4.0 International License.
# To view a copy of this license, visit
# http://creativecommons.org/licenses/by-nc-sa/4.0/
# or send a letter to
# Creative Commons, PO Box 1866, Mountain View, CA 94042, USA.
#
# CIF created using the CSD Python API on 29 September 2022
# The structure has been converted into the P1 space group
# The structure has a 3D framework
# The original CSD entry QODJEB is in the monoclinic crystal system
# The framework has been calculated to contain at least 10.0% void space
# The void calculation uses a probe of radius 1.32A, grid spacing 0.4
#
###############################################################################

data_QODJEB
_chemical_formula_moiety         '(C48 H32 N12 O8 Zn4)n'
_symmetry_cell_setting           triclinic
_symmetry_space_group_name_H-M   'P 1'
_symmetry_Int_Tables_number      1
_space_group_name_Hall           'P 1'
loop_
_symmetry_equiv_pos_site_id
_symmetry_equiv_pos_as_xyz
1 x,y,z
_cell_length_a                   11.2067(5)
_cell_length_b                   11.2671(6)
_cell_length_c                   11.6106(5)
_cell_angle_alpha                90
_cell_angle_beta                 104.136(4)
_cell_angle_gamma                90
_cell_volume                     1421.64
loop_
_atom_site_label
_atom_site_type_symbol
_atom_site_fract_x
_atom_site_fract_y
_atom_site_fract_z
Zn5 Zn 0.65191(4) 0.54942(5) 0.07961(4)
N8 N 0.2816(3) 0.3329(4) 0.0235(3)
N10 N 0.3768(3) 0.5851(3) 0.0348(3)
C7 C 0.9534(4) 0.5467(4) 0.5896(4)
H4 H 0.9216 0.5782 0.6499
O3 O 0.7467(3) 0.5482(3) 0.2405(3)
O4 O 0.8934(3) 0.4579(3) 0.1771(2)
C13 C 0.9289(4) 0.5003(4) 0.3835(3)
C14 C 0.8829(4) 0.5470(4) 0.4745(4)
H9 H 0.8039 0.5788 0.4575
C16 C 0.8535(4) 0.5003(5) 0.2571(4)
N4 N 0.4920(3) 0.6027(3) 0.1055(3)
N5 N 0.2184(3) 0.8329(4) 0.4765(3)
C17 C 0.3560(4) 0.6731(4) 0.2012(3)
C18 C 0.4791(4) 0.6564(4) 0.2042(3)
H11 H 0.5441 0.6796 0.2665
C19 C 0.3074(4) 0.7273(4) 0.2949(3)
C20 C 0.2961(4) 0.6280(4) 0.0927(4)
H12 H 0.2111 0.6272 0.0632
C21 C 0.3363(4) 0.8428(6) 0.4713(4)
H13 H 0.3899 0.8856 0.5307
C22 C 0.1464(4) 0.7688(5) 0.3916(4)
H14 H 0.0644 0.7596 0.3932
C23 C 0.1863(4) 0.7152(5) 0.3013(4)
H15 H 0.1317 0.6707 0.2443
C24 C 0.3815(4) 0.7936(5) 0.3838(4)
H16 H 0.4637 0.8049 0.3840
Zn4 Zn 0.15191(4) 0.95058(5) 0.57961(4)
N4_2 N 0.0080(3) 0.1027(3) 0.3945(3)
N6 N 0.1232(3) 0.0851(3) 0.4652(3)
C17_2 C 0.1440(4) 0.1731(4) 0.2988(3)
C18_2 C 0.0209(4) 0.1564(4) 0.2958(3)
C19_2 C 0.1926(4) 0.2273(4) 0.2051(3)
C20_2 C 0.2039(4) 0.1280(4) 0.4073(4)
H12_2 H 0.2889 0.1272 0.4368
C21_2 C 0.1637(4) 0.3428(6) 0.0287(4)
C22_2 C 0.3536(4) 0.2688(5) 0.1084(4)
H14_2 H 0.4356 0.2596 0.1068
C23_2 C 0.3137(4) 0.2152(5) 0.1987(4)
H15_2 H 0.3683 0.1707 0.2557
C24_2 C 0.1185(4) 0.2936(5) 0.1162(4)
H16_2 H 0.0363 0.3049 0.1160
O2 O 0.3934(3) 0.0421(3) 0.6771(2)
C7_2 C 0.5466(4) 0.0467(4) 0.9104(4)
H4_2 H 0.5784 0.0782 0.8501
O1 O 0.2467(3) 0.9518(3) 0.7405(3)
H1 H 0.0441 0.8204 0.7665
C4 C 0.4289(4) 0.9997(4) 0.8835(3)
C6 C 0.3829(4) 0.9530(4) 0.9745(4)
H3 H 0.3039 0.9212 0.9575
C8 C 0.3535(4) 0.9997(5) 0.7571(4)
H5 H 0.8899 0.6144 0.0307
Zn1 Zn 0.34809(4) 0.45058(5) 0.92039(4)
O1_2 O 0.2533(3) 0.4518(3) 0.7595(3)
N1 N 0.5080(3) 0.3973(3) 0.8945(3)
N2 N 0.7816(3) 0.1671(4) 0.5235(3)
O2_2 O 0.1066(3) 0.5421(3) 0.8229(2)
N3 N 0.6232(3) 0.4149(3) 0.9652(3)
C1 C 0.6440(4) 0.3269(4) 0.7988(3)
C2 C 0.5209(4) 0.3436(4) 0.7958(3)
H1_2 H 0.4559 0.3204 0.7335
C3 C 0.6926(4) 0.2727(4) 0.7051(3)
C4_2 C 0.0711(4) 0.4997(4) 0.6165(3)
C5 C 0.7039(4) 0.3720(4) 0.9073(4)
H2 H 0.7889 0.3728 0.9368
C6_2 C 0.1171(4) 0.4530(4) 0.5255(4)
H3_2 H 0.1961 0.4212 0.5425
C8_2 C 0.1465(4) 0.4997(5) 0.7429(4)
C9 C 0.6637(4) 0.1572(6) 0.5287(4)
H5_2 H 0.6101 0.1144 0.4693
C10 C 0.8536(4) 0.2312(5) 0.6084(4)
H6 H 0.9356 0.2404 0.6068
C11 C 0.8137(4) 0.2848(5) 0.6987(4)
H7 H 0.8683 0.3293 0.7557
C12 C 0.6185(4) 0.2064(5) 0.6162(4)
H8 H 0.5363 0.1951 0.6160
C15 C 0.0466(4) 0.4533(4) 0.4104(4)
H10 H 0.0784 0.4218 0.3501
Zn6 Zn 0.84809(4) 0.04942(5) 0.42039(4)
N7 N 0.7184(3) 0.6671(4) 0.9765(3)
H13_2 H 0.1101 0.3856 0.9693
O3_2 O 0.7533(3) 0.0482(3) 0.2595(3)
C13_2 C 0.5711(4) 0.0003(4) 0.1165(3)
C14_2 C 0.6171(4) 0.0470(4) 0.0255(4)
H9_2 H 0.6961 0.0788 0.0425
C16_2 C 0.6465(4) 0.0003(5) 0.2429(4)
H11_2 H 0.9559 0.1796 0.2335
O4_2 O 0.6066(3) 0.9579(3) 0.3229(2)
C15_2 C 0.4534(4) 0.9533(4) 0.0896(4)
H10_2 H 0.4216 0.9218 0.1499
N9 N 0.8768(3) 0.9149(3) 0.5348(3)
N1_2 N 0.9920(3) 0.8973(3) 0.6055(3)
C1_2 C 0.8560(4) 0.8269(4) 0.7012(3)
C2_2 C 0.9791(4) 0.8436(4) 0.7042(3)
C3_2 C 0.8074(4) 0.7727(4) 0.7949(3)
C5_2 C 0.7961(4) 0.8720(4) 0.5927(4)
H2_2 H 0.7111 0.8728 0.5632
C9_2 C 0.8363(4) 0.6572(6) 0.9713(4)
C10_2 C 0.6464(4) 0.7312(5) 0.8916(4)
H6_2 H 0.5644 0.7404 0.8932
C11_2 C 0.6863(4) 0.7848(5) 0.8013(4)
H7_2 H 0.6317 0.8293 0.7443
C12_2 C 0.8815(4) 0.7064(5) 0.8838(4)
H8_2 H 0.9637 0.6951 0.8840
loop_
_geom_bond_atom_site_label_1
_geom_bond_atom_site_label_2
_geom_bond_site_symmetry_1
_geom_bond_site_symmetry_2
H4 C7 1_555 1_555
O3 C16 1_555 1_555
O4 C16 1_555 1_555
C13 C14 1_555 1_555
C14 C7 1_555 1_555
H9 C14 1_555 1_555
C16 C13 1_555 1_555
Zn5 O3 1_555 1_555
N4 Zn5 1_555 1_555
N5 C21 1_555 1_555
N10 N4 1_555 1_555
C17 C18 1_555 1_555
C18 N4 1_555 1_555
H11 C18 1_555 1_555
C19 C17 1_555 1_555
C20 N10 1_555 1_555
H12 C20 1_555 1_555
C21 H13 1_555 1_555
C22 N5 1_555 1_555
H14 C22 1_555 1_555
C23 C19 1_555 1_555
H15 C23 1_555 1_555
C24 C19 1_555 1_555
H16 C24 1_555 1_555
Zn4 N5 1_555 1_555
C17 C20 1_555 1_555
C21 C24 1_555 1_555
C22 C23 1_555 1_555
N8 C21_2 1_555 1_555
N6 N4_2 1_555 1_555
C17_2 C18_2 1_555 1_555
C18_2 N4_2 1_555 1_555
C19_2 C17_2 1_555 1_555
C20_2 N6 1_555 1_555
H12_2 C20_2 1_555 1_555
C22_2 N8 1_555 1_555
H14_2 C22_2 1_555 1_555
C23_2 C19_2 1_555 1_555
H15_2 C23_2 1_555 1_555
C24_2 C19_2 1_555 1_555
H16_2 C24_2 1_555 1_555
C17_2 C20_2 1_555 1_555
C21_2 C24_2 1_555 1_555
C22_2 C23_2 1_555 1_555
H4_2 C7_2 1_555 1_555
Zn4 O1 1_555 1_555
O1 C8 1_555 1_555
C4 C6 1_555 1_555
C6 H3 1_555 1_555
C8 C4 1_555 1_555
Zn1 O1_2 1_555 1_555
O1_2 C8_2 1_555 1_555
N1 Zn1 1_555 1_555
N2 C9 1_555 1_555
O2_2 C8_2 1_555 1_555
N3 N1 1_555 1_555
C1 C2 1_555 1_555
C2 N1 1_555 1_555
H1_2 C2 1_555 1_555
C3 C1 1_555 1_555
C4_2 C6_2 1_555 1_555
C5 N3 1_555 1_555
H2 C5 1_555 1_555
C6_2 H3_2 1_555 1_555
C8_2 C4_2 1_555 1_555
C9 H5_2 1_555 1_555
C10 N2 1_555 1_555
H6 C10 1_555 1_555
C11 C3 1_555 1_555
H7 C11 1_555 1_555
C12 C3 1_555 1_555
H8 C12 1_555 1_555
C15 C6_2 1_555 1_555
H10 C15 1_555 1_555
Zn6 N2 1_555 1_555
C1 C5 1_555 1_555
C9 C12 1_555 1_555
C10 C11 1_555 1_555
O3_2 C16_2 1_555 1_555
C13_2 C14_2 1_555 1_555
H9_2 C14_2 1_555 1_555
C16_2 C13_2 1_555 1_555
Zn6 O3_2 1_555 1_555
H10_2 C15_2 1_555 1_555
N7 C9_2 1_555 1_555
N9 N1_2 1_555 1_555
C1_2 C2_2 1_555 1_555
C2_2 N1_2 1_555 1_555
C3_2 C1_2 1_555 1_555
C5_2 N9 1_555 1_555
H2_2 C5_2 1_555 1_555
C10_2 N7 1_555 1_555
H6_2 C10_2 1_555 1_555
C11_2 C3_2 1_555 1_555
H7_2 C11_2 1_555 1_555
C12_2 C3_2 1_555 1_555
H8_2 C12_2 1_555 1_555
C1_2 C5_2 1_555 1_555
C9_2 C12_2 1_555 1_555
C10_2 C11_2 1_555 1_555

#END
