
###############################################################################
#
# This file contains modified crystal structure data generated from the
# MOF subset of the Cambridge Structural Database (CSD) v543 
# hosted by the Cambridge Crystallographic Data Centre (CCDC).
#
# This work is licensed under the Creative Commons
# Attribution-NonCommercial-ShareAlike 4.0 International License.
# To view a copy of this license, visit
# http://creativecommons.org/licenses/by-nc-sa/4.0/
# or send a letter to
# Creative Commons, PO Box 1866, Mountain View, CA 94042, USA.
#
# CIF created using the CSD Python API on 29 September 2022
# The structure has been converted into the P1 space group
# The structure has a 3D framework
# The original CSD entry QODTOU is in the orthorhombic crystal system
# The original CSD entry QODTOU is in a Sohncke space group
# The framework has been calculated to contain at least 10.0% void space
# The void calculation uses a probe of radius 1.32A, grid spacing 0.4
#
###############################################################################

data_QODTOU
_chemical_formula_moiety         '(C73 H72 N8 O24 Zn4)n'
_symmetry_cell_setting           triclinic
_symmetry_space_group_name_H-M   'P 1'
_symmetry_Int_Tables_number      1
_space_group_name_Hall           'P 1'
loop_
_symmetry_equiv_pos_site_id
_symmetry_equiv_pos_as_xyz
1 x,y,z
_cell_length_a                   16.397(3)
_cell_length_b                   18.642(3)
_cell_length_c                   7.9656(13)
_cell_angle_alpha                90
_cell_angle_beta                 90
_cell_angle_gamma                90
_cell_volume                     2434.87
loop_
_atom_site_label
_atom_site_type_symbol
_atom_site_fract_x
_atom_site_fract_y
_atom_site_fract_z
H23 H 0.0299 0.0810 0.0588
C1 C 0.1602(3) 0.1997(3) 0.4086(6)
H1 H 0.1454 0.2374 0.3383
C2 C 0.0989(3) 0.1629(3) 0.4939(6)
H2 H 0.0446 0.1764 0.4820
C3 C 0.1195(3) 0.1066(2) 0.5952(5)
C4 C 0.2010(2) 0.0889(2) 0.6109(6)
H3 H 0.2171 0.0510 0.6789
C5 C 0.2568(3) 0.1279(2) 0.5255(6)
H4 H 0.3114 0.1155 0.5383
C12 C -0.0000 -0.0000 0.8922(6)
C13 C 0.0763(2) 0.0152(2) 0.7835(5)
H11 H 0.1224 0.0268 0.8547
N1 N 0.2393(2) 0.18329(18) 0.4234(5)
O6 O 0.05763(16) 0.07472(16) 0.6754(4)
Zn4 Zn 0.32763(2) 0.24542(2) 0.31160(5)
C15 C 0.2985(3) 0.7949(3) 0.1129(7)
H13 H 0.2781 0.7766 0.2188
H14 H 0.2927 0.8467 0.1140
C16 C 0.3879(3) 0.7758(3) 0.0958(6)
H16 H 0.3946 0.7245 0.1095
C17 C 0.4399(3) 0.8145(3) 0.2249(6)
H17 H 0.4428 0.8648 0.1949
H18 H 0.4132 0.8112 0.3333
C18 C 0.5253(3) 0.7860(3) 0.2418(6)
O3 O 0.5472(2) 0.72889(18) 0.1793(5)
O4 O 0.57548(18) 0.82205(17) 0.3281(4)
Zn6 Zn 0.67237(2) 0.75458(2) 0.31160(5)
C32 C 0.7015(3) 0.2051(3) 0.1129(7)
H31 H 0.7219 0.2234 0.2188
H32 H 0.7073 0.1533 0.1140
C33 C 0.6121(3) 0.2242(3) 0.0958(6)
H34 H 0.6054 0.2755 0.1095
C34 C 0.5601(3) 0.1855(3) 0.2249(6)
H35 H 0.5572 0.1352 0.1949
H36 H 0.5868 0.1888 0.3333
C35 C 0.4747(3) 0.2140(3) 0.2418(6)
O11 O 0.4528(2) 0.27111(18) 0.1793(5)
O12 O 0.42452(18) 0.17795(17) 0.3281(4)
C12_2 C 1.0000 1.0000 0.8922(6)
C25 C 0.8398(3) 0.8003(3) 0.4086(6)
H25 H 0.8546 0.7626 0.3383
C26 C 0.9011(3) 0.8371(3) 0.4939(6)
H26 H 0.9554 0.8236 0.4820
C27 C 0.8805(3) 0.8934(2) 0.5952(5)
C28 C 0.7990(2) 0.9111(2) 0.6109(6)
H27 H 0.7829 0.9490 0.6789
C29 C 0.7432(3) 0.8721(2) 0.5255(6)
H28 H 0.6886 0.8845 0.5383
C30 C 0.9237(2) 0.9848(2) 0.7835(5)
H29 H 0.8776 0.9732 0.8547
N4 N 0.7607(2) 0.81671(18) 0.4234(5)
O8 O 0.94237(16) 0.92528(16) 0.6754(4)
C6 C 0.3236(3) 0.3818(2) 0.5199(5)
H5 H 0.2897 0.3987 0.4350
C7 C 0.3454(3) 0.4278(2) 0.6448(5)
H6 H 0.3270 0.4750 0.6434
C8 C 0.3953(2) 0.4039(2) 0.7748(5)
C9 C 0.4174(2) 0.3322(2) 0.7743(5)
H7 H 0.4482 0.3132 0.8616
C10 C 0.3933(2) 0.2899(2) 0.6438(5)
H8 H 0.4087 0.2419 0.6460
H9 H 0.5299 0.4190 0.9412
C14 C 0.2504(3) 0.2648(3) 0.0260(6)
H15 H 0.0935 0.2885 0.0159
N2 N 0.34906(19) 0.31232(17) 0.5129(4)
O1 O 0.2784(2) 0.2027(2) 0.0264(5)
O2 O 0.2644(2) 0.3057(2) 0.1513(5)
O5 O 0.41739(18) 0.45217(15) 0.8907(4)
C19 C 0.6764(3) 0.6182(2) 0.5199(5)
H19 H 0.7103 0.6013 0.4350
C20 C 0.6546(3) 0.5722(2) 0.6448(5)
H20 H 0.6730 0.5250 0.6434
C21 C 0.6047(2) 0.5961(2) 0.7748(5)
C22 C 0.5826(2) 0.6678(2) 0.7743(5)
H21 H 0.5518 0.6868 0.8616
C23 C 0.6067(2) 0.7101(2) 0.6438(5)
H22 H 0.5913 0.7581 0.6460
H23_2 H 0.4701 0.5810 0.9412
N3 N 0.65094(19) 0.68768(17) 0.5129(4)
O7 O 0.58261(18) 0.54783(15) 0.8907(4)
C31 C 0.7496(3) 0.7352(3) 0.0260(6)
H33 H 0.9065 0.7115 0.0159
O9 O 0.7216(2) 0.7973(2) 0.0264(5)
O10 O 0.7356(2) 0.6943(2) 0.1513(5)
C6_2 C 0.1764(3) 0.8818(2) 0.4801(5)
H5_2 H 0.2103 0.8987 0.5650
C7_2 C 0.1546(3) 0.9278(2) 0.3552(5)
H6_2 H 0.1730 0.9750 0.3566
C8_2 C 0.1047(2) 0.9039(2) 0.2252(5)
C9_2 C 0.0826(2) 0.8322(2) 0.2257(5)
H7_2 H 0.0518 0.8132 0.1384
C10_2 C 0.1067(2) 0.7899(2) 0.3562(5)
H8_2 H 0.0913 0.7419 0.3540
C14_2 C 0.2496(3) 0.7648(3) 0.9740(6)
H15_2 H 0.4065 0.7885 0.9841
Zn1 Zn 0.17237(2) 0.74542(2) 0.68840(5)
N2_2 N 0.15094(19) 0.81232(17) 0.4871(4)
O1_2 O 0.2216(2) 0.7027(2) 0.9736(5)
O2_2 O 0.2356(2) 0.8057(2) 0.8487(5)
O5_2 O 0.08261(18) 0.95217(15) 0.1093(4)
N5 N 0.2607(2) 0.68329(18) 0.5766(5)
O14 O 0.0472(2) 0.77111(18) 0.8207(5)
O16 O 0.07548(18) 0.67795(17) 0.6719(4)
C19_2 C 0.8236(3) 0.1182(2) 0.4801(5)
H19_2 H 0.7897 0.1013 0.5650
C20_2 C 0.8454(3) 0.0722(2) 0.3552(5)
H20_2 H 0.8270 0.0250 0.3566
C21_2 C 0.8953(2) 0.0961(2) 0.2252(5)
C22_2 C 0.9174(2) 0.1678(2) 0.2257(5)
H21_2 H 0.9482 0.1868 0.1384
C23_2 C 0.8933(2) 0.2101(2) 0.3562(5)
H22_2 H 0.9087 0.2581 0.3540
N3_2 N 0.84906(19) 0.18768(17) 0.4871(4)
O7_2 O 0.91739(18) 0.04783(15) 0.1093(4)
C31_2 C 0.7504(3) 0.2352(3) 0.9740(6)
H33_2 H 0.5935 0.2115 0.9841
Zn2 Zn 0.82763(2) 0.25458(2) 0.68840(5)
O9_2 O 0.7784(2) 0.2973(2) 0.9736(5)
O10_2 O 0.7644(2) 0.1943(2) 0.8487(5)
N6 N 0.7393(2) 0.31671(18) 0.5766(5)
O13 O 0.9528(2) 0.22889(18) 0.8207(5)
O15 O 0.92452(18) 0.32205(17) 0.6719(4)
C35_2 C 0.0253(3) 0.7140(3) 0.7582(6)
C1_2 C 0.3398(3) 0.6997(3) 0.5914(6)
H1_2 H 0.3546 0.7374 0.6617
C2_2 C 0.4011(3) 0.6629(3) 0.5061(6)
H2_2 H 0.4554 0.6764 0.5180
C3_2 C 0.3805(3) 0.6066(2) 0.4048(5)
C4_2 C 0.2990(2) 0.5889(2) 0.3891(6)
H3_2 H 0.2829 0.5510 0.3211
C5_2 C 0.2432(3) 0.6279(2) 0.4745(6)
H4_2 H 0.1886 0.6155 0.4617
C11 C 0.4818(3) 0.4335(2) 0.0034(5)
H10 H 0.4652 0.3942 0.0754
C12_3 C 0.5000 0.5000 0.1078(6)
C13_2 C 0.4237(2) 0.5152(2) 0.2165(5)
H11_2 H 0.3776 0.5268 0.1453
H12 H 0.4100 0.4733 0.2828
O6_2 O 0.44237(16) 0.57472(16) 0.3246(4)
C24 C 0.5182(3) 0.5665(2) 0.0034(5)
H24 H 0.5348 0.6058 0.0754
C25_2 C 0.6602(3) 0.3003(3) 0.5914(6)
H25_2 H 0.6454 0.2626 0.6617
C26_2 C 0.5989(3) 0.3371(3) 0.5061(6)
H26_2 H 0.5446 0.3236 0.5180
C27_2 C 0.6195(3) 0.3934(2) 0.4048(5)
C28_2 C 0.7010(2) 0.4111(2) 0.3891(6)
H27_2 H 0.7171 0.4490 0.3211
C29_2 C 0.7568(3) 0.3721(2) 0.4745(6)
H28_2 H 0.8114 0.3845 0.4617
C30_2 C 0.5763(2) 0.4848(2) 0.2165(5)
H29_2 H 0.6224 0.4732 0.1453
H30 H 0.5900 0.5267 0.2828
O8_2 O 0.55763(16) 0.42528(16) 0.3246(4)
C18_2 C 0.9747(3) 0.2860(3) 0.7582(6)
C11_2 C 0.0182(3) 0.9335(2) 0.9966(5)
H10_2 H 0.0348 0.8942 0.9246
C12_4 C -0.0000 1.0000 0.8922(6)
H12_2 H 0.0900 0.9733 0.7172
C12_5 C 1.0000 -0.0000 0.8922(6)
C24_2 C 0.9818(3) 0.0665(2) 0.9966(5)
H24_2 H 0.9652 0.1058 0.9246
H30_2 H 0.9100 0.0267 0.7172
H9_2 H 0.9701 0.9190 0.0588
C15_2 C 0.2015(3) 0.2949(3) 0.8871(7)
H13_2 H 0.2219 0.2766 0.7812
H14_2 H 0.2073 0.3467 0.8860
C16_2 C 0.1121(3) 0.2758(3) 0.9042(6)
H16_2 H 0.1054 0.2245 0.8905
C17_2 C 0.0601(3) 0.3145(3) 0.7751(6)
H17_2 H 0.0572 0.3648 0.8051
H18_2 H 0.0868 0.3112 0.6667
C32_2 C 0.7985(3) 0.7051(3) 0.8871(7)
H31_2 H 0.7781 0.7234 0.7812
H32_2 H 0.7927 0.6533 0.8860
C33_2 C 0.8879(3) 0.7242(3) 0.9042(6)
H34_2 H 0.8946 0.7755 0.8905
C34_2 C 0.9399(3) 0.6855(3) 0.7751(6)
H35_2 H 0.9428 0.6352 0.8051
H36_2 H 0.9132 0.6888 0.6667
loop_
_geom_bond_atom_site_label_1
_geom_bond_atom_site_label_2
_geom_bond_site_symmetry_1
_geom_bond_site_symmetry_2
C1 H1 1_555 1_555
C2 C1 1_555 1_555
H2 C2 1_555 1_555
C3 C2 1_555 1_555
C4 C3 1_555 1_555
H3 C4 1_555 1_555
C5 C4 1_555 1_555
H4 C5 1_555 1_555
C13 C12 1_555 1_555
H11 C13 1_555 1_555
N1 C1 1_555 1_555
O6 C3 1_555 1_555
Zn4 N1 1_555 1_555
C5 N1 1_555 1_555
C13 O6 1_555 1_555
C15 H13 1_555 1_555
H14 C15 1_555 1_555
C16 C15 1_555 1_555
H16 C16 1_555 1_555
C17 C16 1_555 1_555
H17 C17 1_555 1_555
H18 C17 1_555 1_555
C18 C17 1_555 1_555
O3 C18 1_555 1_555
O4 C18 1_555 1_555
Zn6 O3 1_555 1_555
O4 Zn6 1_555 1_555
C32 H31 1_555 1_555
H32 C32 1_555 1_555
C33 C32 1_555 1_555
H34 C33 1_555 1_555
C34 C33 1_555 1_555
H35 C34 1_555 1_555
H36 C34 1_555 1_555
C35 C34 1_555 1_555
O11 C35 1_555 1_555
O12 C35 1_555 1_555
Zn4 O11 1_555 1_555
O12 Zn4 1_555 1_555
C25 H25 1_555 1_555
C26 C25 1_555 1_555
H26 C26 1_555 1_555
C27 C26 1_555 1_555
C28 C27 1_555 1_555
H27 C28 1_555 1_555
C29 C28 1_555 1_555
H28 C29 1_555 1_555
C30 C12_2 1_555 1_555
H29 C30 1_555 1_555
N4 C25 1_555 1_555
O8 C27 1_555 1_555
Zn6 N4 1_555 1_555
C29 N4 1_555 1_555
C30 O8 1_555 1_555
C6 H5 1_555 1_555
C7 C6 1_555 1_555
H6 C7 1_555 1_555
C8 C7 1_555 1_555
C9 C8 1_555 1_555
H7 C9 1_555 1_555
C10 C9 1_555 1_555
H8 C10 1_555 1_555
Zn4 N2 1_555 1_555
N2 C6 1_555 1_555
O1 C14 1_555 1_555
O2 C14 1_555 1_555
O5 C8 1_555 1_555
C19 H19 1_555 1_555
C20 C19 1_555 1_555
H20 C20 1_555 1_555
C21 C20 1_555 1_555
C22 C21 1_555 1_555
H21 C22 1_555 1_555
C23 C22 1_555 1_555
H22 C23 1_555 1_555
N3 C19 1_555 1_555
O7 C21 1_555 1_555
Zn6 N3 1_555 1_555
O9 C31 1_555 1_555
O10 C31 1_555 1_555
C10 N2 1_555 1_555
Zn4 O1 1_555 1_555
Zn4 O2 1_555 1_555
C23 N3 1_555 1_555
Zn6 O9 1_555 1_555
Zn6 O10 1_555 1_555
C6_2 H5_2 1_555 1_555
C7_2 C6_2 1_555 1_555
H6_2 C7_2 1_555 1_555
C8_2 C7_2 1_555 1_555
C9_2 C8_2 1_555 1_555
H7_2 C9_2 1_555 1_555
C10_2 C9_2 1_555 1_555
H8_2 C10_2 1_555 1_555
Zn1 N2_2 1_555 1_555
N2_2 C6_2 1_555 1_555
O1_2 C14_2 1_555 1_555
O2_2 C14_2 1_555 1_555
O5_2 C8_2 1_555 1_555
N5 Zn1 1_555 1_555
O14 Zn1 1_555 1_555
O16 Zn1 1_555 1_555
C10_2 N2_2 1_555 1_555
Zn1 O1_2 1_555 1_555
Zn1 O2_2 1_555 1_555
C19_2 H19_2 1_555 1_555
C20_2 C19_2 1_555 1_555
H20_2 C20_2 1_555 1_555
C21_2 C20_2 1_555 1_555
C22_2 C21_2 1_555 1_555
H21_2 C22_2 1_555 1_555
C23_2 C22_2 1_555 1_555
H22_2 C23_2 1_555 1_555
N3_2 C19_2 1_555 1_555
O7_2 C21_2 1_555 1_555
Zn2 N3_2 1_555 1_555
O9_2 C31_2 1_555 1_555
O10_2 C31_2 1_555 1_555
N6 Zn2 1_555 1_555
O13 Zn2 1_555 1_555
O15 Zn2 1_555 1_555
C23_2 N3_2 1_555 1_555
Zn2 O9_2 1_555 1_555
Zn2 O10_2 1_555 1_555
O14 C35_2 1_555 1_555
O16 C35_2 1_555 1_555
C1_2 H1_2 1_555 1_555
C2_2 C1_2 1_555 1_555
H2_2 C2_2 1_555 1_555
C3_2 C2_2 1_555 1_555
C4_2 C3_2 1_555 1_555
H3_2 C4_2 1_555 1_555
C5_2 C4_2 1_555 1_555
H4_2 C5_2 1_555 1_555
H10 C11 1_555 1_555
C12_3 C11 1_555 1_555
C13_2 C12_3 1_555 1_555
H11_2 C13_2 1_555 1_555
H12 C13_2 1_555 1_555
N5 C1_2 1_555 1_555
O6_2 C3_2 1_555 1_555
C24 C12_3 1_555 1_555
H24 C24 1_555 1_555
C25_2 H25_2 1_555 1_555
C26_2 C25_2 1_555 1_555
H26_2 C26_2 1_555 1_555
C27_2 C26_2 1_555 1_555
C28_2 C27_2 1_555 1_555
H27_2 C28_2 1_555 1_555
C29_2 C28_2 1_555 1_555
H28_2 C29_2 1_555 1_555
C30_2 C12_3 1_555 1_555
H29_2 C30_2 1_555 1_555
H30 C30_2 1_555 1_555
N6 C25_2 1_555 1_555
O8_2 C27_2 1_555 1_555
C5_2 N5 1_555 1_555
C13_2 O6_2 1_555 1_555
C29_2 N6 1_555 1_555
C30_2 O8_2 1_555 1_555
O13 C18_2 1_555 1_555
O15 C18_2 1_555 1_555
H10_2 C11_2 1_555 1_555
C12_4 C11_2 1_555 1_555
C24_2 C12_5 1_555 1_555
H24_2 C24_2 1_555 1_555
C15_2 H13_2 1_555 1_555
H14_2 C15_2 1_555 1_555
C16_2 C15_2 1_555 1_555
H16_2 C16_2 1_555 1_555
C17_2 C16_2 1_555 1_555
H17_2 C17_2 1_555 1_555
H18_2 C17_2 1_555 1_555
C32_2 H31_2 1_555 1_555
H32_2 C32_2 1_555 1_555
C33_2 C32_2 1_555 1_555
H34_2 C33_2 1_555 1_555
C34_2 C33_2 1_555 1_555
H35_2 C34_2 1_555 1_555
H36_2 C34_2 1_555 1_555

#END
