
###############################################################################
#
# This file contains modified crystal structure data generated from the
# MOF subset of the Cambridge Structural Database (CSD) v543 
# hosted by the Cambridge Crystallographic Data Centre (CCDC).
#
# This work is licensed under the Creative Commons
# Attribution-NonCommercial-ShareAlike 4.0 International License.
# To view a copy of this license, visit
# http://creativecommons.org/licenses/by-nc-sa/4.0/
# or send a letter to
# Creative Commons, PO Box 1866, Mountain View, CA 94042, USA.
#
# CIF created using the CSD Python API on 29 September 2022
# The structure has been converted into the P1 space group
# The structure has a 3D framework
# The original CSD entry QOHYET01 is in the triclinic crystal system
# The framework has been calculated to contain at least 10.0% void space
# The void calculation uses a probe of radius 1.32A, grid spacing 0.4
#
###############################################################################

data_QOHYET01
_chemical_formula_moiety         '(C84 H64 Ce4 N4 O30)n'
_symmetry_cell_setting           triclinic
_symmetry_space_group_name_H-M   'P 1'
_symmetry_Int_Tables_number      1
_space_group_name_Hall           'P 1'
loop_
_symmetry_equiv_pos_site_id
_symmetry_equiv_pos_as_xyz
1 x,y,z
_cell_length_a                   12.524(6)
_cell_length_b                   12.570(6)
_cell_length_c                   16.507(7)
_cell_angle_alpha                81.716(9)
_cell_angle_beta                 76.618(8)
_cell_angle_gamma                60.47(2)
_cell_volume                     2198.3
loop_
_atom_site_label
_atom_site_type_symbol
_atom_site_fract_x
_atom_site_fract_y
_atom_site_fract_z
_atom_site_U_iso_or_equiv
_atom_site_thermal_displace_type
Ce15 Ce 0.01361(4) 0.40853(4) 0.40109(2) 0.0091 Uani
O10 O 0.1386(5) 0.3771(5) 0.5044(3) 0.0125 Uani
O11 O 0.2082(5) 0.4122(5) 0.6041(4) 0.0187 Uani
C25 C 0.2184(7) 0.3452(7) 0.5503(5) 0.0116 Uani
C26 C 0.3337(7) 0.2163(7) 0.5413(5) 0.0127 Uani
C27 C 0.3529(7) 0.1403(7) 0.4801(5) 0.0131 Uani
H13 H 0.2955 0.1683 0.4433 0.0160 Uiso
C28 C 0.4581(7) 0.0206(7) 0.4719(5) 0.0153 Uani
O15 O 0.1034(6) 0.1713(5) 0.4338(4) 0.0192 Uani
C40 C 0.1342(9) 0.1036(8) 0.3753(6) 0.0237 Uani
H26 H 0.1338 0.1393 0.3205 0.0280 Uiso
C47 C 0.5183(8) 0.0585(8) 0.5905(5) 0.0219 Uani
H34 H 0.5735 0.0313 0.6289 0.0260 Uiso
C48 C 0.4165(8) 0.1749(8) 0.5968(5) 0.0201 Uani
H35 H 0.4029 0.2268 0.6389 0.0240 Uiso
Ce8 Ce 0.07498(4) 0.40144(4) 0.10057(2) 0.0086 Uani
O31 O 0.2230(5) 0.2948(5) 0.3155(3) 0.0168 Uani
O38 O 0.0943(6) 0.5596(6) 0.3605(3) 0.0187 Uani
C29 C 0.4817(8) 0.9415(8) 0.4095(5) 0.0219 Uani
H14 H 0.4265 0.9687 0.3711 0.0260 Uiso
C30 C 0.5835(8) 0.8251(8) 0.4032(5) 0.0201 Uani
H15 H 0.5971 0.7732 0.3611 0.0240 Uiso
N2 N 0.1676(8) 0.9851(7) 0.3836(5) 0.0305 Uani
C41 C 0.1754(13) 0.9207(10) 0.4646(7) 0.0447 Uani
H27 H 0.1410 0.9799 0.5085 0.0670 Uiso
H28 H 0.2629 0.8626 0.4671 0.0670 Uiso
H29 H 0.1274 0.8764 0.4725 0.0670 Uiso
C42 C 0.2026(16) 0.9131(12) 0.3101(8) 0.0635 Uani
H30 H 0.1887 0.9675 0.2603 0.0960 Uiso
H31 H 0.1514 0.8723 0.3173 0.0960 Uiso
H32 H 0.2910 0.8515 0.3037 0.0960 Uiso
O16 O 0.8614(5) 0.6229(5) 0.4956(3) 0.0125 Uani
O17 O 0.7918(5) 0.5878(5) 0.3959(4) 0.0187 Uani
C43 C 0.7816(7) 0.6548(7) 0.4497(5) 0.0116 Uani
C44 C 0.6663(7) 0.7837(7) 0.4587(5) 0.0127 Uani
C45 C 0.6471(7) 0.8597(7) 0.5199(5) 0.0131 Uani
H33 H 0.7045 0.8317 0.5567 0.0160 Uiso
C46 C 0.5419(7) 0.9794(7) 0.5281(5) 0.0153 Uani
Ce18 Ce 0.98639(4) 0.59147(4) 0.59891(2) 0.0091 Uani
O1 O 0.2400(5) 0.3216(5) 0.1776(3) 0.0154 Uani
C1 C 0.2819(7) 0.3031(7) 0.2437(5) 0.0108 Uani
C2 C 0.4082(7) 0.2928(7) 0.2339(5) 0.0134 Uani
C3 C 0.4540(7) 0.2887(7) 0.3029(5) 0.0130 Uani
H1 H 0.4074 0.2878 0.3571 0.0160 Uiso
O3 O 0.9931(5) 0.5074(5) 0.2481(3) 0.0156 Uani
C4 C 0.5711(8) 0.2858(7) 0.2935(5) 0.0157 Uani
C5 C 0.6194(7) 0.2841(8) 0.3634(5) 0.0147 Uani
H2 H 0.5753 0.2803 0.4180 0.0180 Uiso
C6 C 0.7289(7) 0.2879(8) 0.3531(5) 0.0157 Uani
H3 H 0.7579 0.2919 0.4004 0.0180 Uiso
C7 C 0.7998(7) 0.2860(7) 0.2718(5) 0.0133 Uani
C8 C 0.7574(7) 0.2840(7) 0.2034(5) 0.0132 Uani
H4 H 0.8055 0.2825 0.1494 0.0160 Uiso
C9 C 0.6414(7) 0.2841(7) 0.2123(5) 0.0145 Uani
C10 C 0.5920(7) 0.2884(7) 0.1417(5) 0.0149 Uani
H5 H 0.6377 0.2887 0.0871 0.0180 Uiso
C11 C 0.4784(7) 0.2919(7) 0.1526(5) 0.0141 Uani
H6 H 0.4462 0.2938 0.1053 0.0170 Uiso
C12 C 0.9156(7) 0.2972(7) 0.2624(4) 0.0087 Uani
O4 O 0.9335(5) 0.3232(5) 0.3268(3) 0.0172 Uani
O5 O 0.9910(5) 0.2758(6) 0.1934(3) 0.0181 Uani
O6 O 0.8849(5) 0.3758(5) 0.5265(3) 0.0156 Uani
O7 O 0.9057(6) 0.4404(6) 0.6395(3) 0.0187 Uani
C13 C 0.8496(8) 0.4083(7) 0.6016(5) 0.0139 Uani
C14 C 0.7323(7) 0.4040(8) 0.6482(5) 0.0156 Uani
C15 C 0.7050(8) 0.4036(8) 0.7334(5) 0.0170 Uani
H7 H 0.7606 0.4048 0.7634 0.0210 Uiso
C16 C 0.5937(7) 0.4015(7) 0.7773(5) 0.0147 Uani
C17 C 0.5635(8) 0.4013(8) 0.8654(5) 0.0171 Uani
H8 H 0.6202 0.3980 0.8965 0.0200 Uiso
C18 C 0.4526(8) 0.4057(8) 0.9059(5) 0.0174 Uani
H9 H 0.4331 0.4050 0.9651 0.0210 Uiso
C19 C 0.3670(8) 0.4115(8) 0.8604(5) 0.0176 Uani
C20 C 0.3937(7) 0.4107(7) 0.7746(5) 0.0150 Uani
H10 H 0.3352 0.4152 0.7447 0.0180 Uiso
C21 C 0.5104(8) 0.4030(7) 0.7307(5) 0.0167 Uani
C22 C 0.5414(8) 0.4035(8) 0.6426(5) 0.0174 Uani
H11 H 0.4861 0.4043 0.6113 0.0210 Uiso
C23 C 0.6507(8) 0.4028(8) 0.6019(5) 0.0181 Uani
H12 H 0.6715 0.4015 0.5428 0.0210 Uiso
C24 C 0.2420(7) 0.4234(7) 0.9063(5) 0.0153 Uani
O8 O 0.1531(5) 0.4706(6) 0.8678(3) 0.0192 Uani
O9 O 0.2379(5) 0.3857(5) 0.9814(3) 0.0140 Uani
C33 C 0.0027(8) 0.1416(7) 0.0202(5) 0.0155 Uani
H16 H 0.0239 0.1708 0.0607 0.0180 Uiso
C34 C 0.0159(7) 0.0222(7) 0.0307(5) 0.0143 Uani
O14 O 0.2234(5) 0.1726(5) 0.0670(4) 0.0182 Uani
C37 C 0.3078(11) 0.0970(9) 0.1014(7) 0.0372 Uani
H19 H 0.3226 0.1239 0.1465 0.0450 Uiso
O49 O 0.0074(5) 0.6249(5) 0.0120(3) 0.0119 Uani
O51 O 0.1128(6) 0.5854(5) 0.1125(4) 0.0179 Uani
C35 C 0.0596(9) 0.9435(8) 0.1001(5) 0.0233 Uani
H17 H 0.0794 0.9718 0.1420 0.0280 Uiso
C36 C 0.0736(9) 0.8278(8) 0.1075(5) 0.0222 Uani
H18 H 0.1061 0.7759 0.1533 0.0270 Uiso
N1 N 0.3817(9) 0.9801(8) 0.0821(6) 0.0387 Uani
C38 C 0.3680(14) 0.9275(11) 0.0181(8) 0.0534 Uani
H21 H 0.3462 0.8631 0.0419 0.0800 Uiso
C39 C 0.4808(19) 0.8962(12) 0.1266(11) 0.0874 Uani
H23 H 0.5484 0.8342 0.0887 0.1310 Uiso
H24 H 0.4480 0.8562 0.1732 0.1310 Uiso
H25 H 0.5130 0.9415 0.1479 0.1310 Uiso
C49 C 0.0548(8) 0.6575(7) 0.0584(5) 0.0144 Uani
C50 C 0.0403(8) 0.7833(7) 0.0476(5) 0.0153 Uani
H20 H 0.3016 0.9906 0.9899 0.0800 Uiso
H22 H 0.4467 0.8921 0.9778 0.0800 Uiso
O34 O 0.0069(5) 0.4926(5) 0.7519(3) 0.0156 Uani
O36 O 0.0090(5) 0.7242(6) 0.8066(3) 0.0181 Uani
H52 H 0.6984 0.0094 0.0101 0.0800 Uiso
H54 H 0.5533 0.1079 0.0222 0.0800 Uiso
Ce12 Ce 0.92502(4) 0.59856(4) 0.89943(2) 0.0086 Uani
O40 O 0.8469(5) 0.5294(6) 0.1322(3) 0.0192 Uani
O12 O 0.9926(5) 0.3751(5) 0.9880(3) 0.0119 Uani
O13 O 0.8872(6) 0.4146(5) 0.8875(4) 0.0179 Uani
C31 C 0.9452(8) 0.3425(7) 0.9416(5) 0.0144 Uani
C32 C 0.9597(8) 0.2167(7) 0.9524(5) 0.0153 Uani
C53 C 0.9404(9) 0.0565(8) 0.8999(5) 0.0233 Uani
H37 H 0.9206 0.0282 0.8580 0.0280 Uiso
C54 C 0.9264(9) 0.1722(8) 0.8925(5) 0.0222 Uani
H38 H 0.8939 0.2241 0.8467 0.0270 Uiso
N3 N 0.6183(9) 0.0199(8) 0.9179(6) 0.0387 Uani
C80 C 0.6320(14) 0.0725(11) 0.9819(8) 0.0534 Uani
H53 H 0.6538 0.1369 0.9581 0.0800 Uiso
C81 C 0.5192(19) 0.1038(12) 0.8734(11) 0.0874 Uani
H55 H 0.4516 0.1658 0.9113 0.1310 Uiso
H56 H 0.5520 0.1438 0.8268 0.1310 Uiso
H57 H 0.4870 0.0585 0.8521 0.1310 Uiso
O42 O 0.7621(5) 0.6143(5) 0.0186(3) 0.0140 Uani
C51 C 0.9973(8) 0.8584(7) 0.9798(5) 0.0155 Uani
H36 H 0.9761 0.8292 0.9393 0.0180 Uiso
C52 C 0.9841(7) 0.9778(7) 0.9693(5) 0.0143 Uani
O20 O 0.7600(5) 0.6784(5) 0.8224(3) 0.0154 Uani
O21 O 0.7770(5) 0.7052(5) 0.6845(3) 0.0168 Uani
C55 C 0.7181(7) 0.6969(7) 0.7563(5) 0.0108 Uani
C56 C 0.5918(7) 0.7072(7) 0.7661(5) 0.0134 Uani
C57 C 0.5460(7) 0.7113(7) 0.6971(5) 0.0130 Uani
H39 H 0.5926 0.7122 0.6429 0.0160 Uiso
C58 C 0.4289(8) 0.7142(7) 0.7065(5) 0.0157 Uani
C59 C 0.3806(7) 0.7159(8) 0.6366(5) 0.0147 Uani
H40 H 0.4247 0.7197 0.5820 0.0180 Uiso
C60 C 0.2711(7) 0.7121(8) 0.6469(5) 0.0157 Uani
H41 H 0.2421 0.7081 0.5996 0.0180 Uiso
C61 C 0.2002(7) 0.7140(7) 0.7282(5) 0.0133 Uani
C62 C 0.2426(7) 0.7160(7) 0.7966(5) 0.0132 Uani
H42 H 0.1945 0.7175 0.8506 0.0160 Uiso
C63 C 0.3586(7) 0.7159(7) 0.7877(5) 0.0145 Uani
C64 C 0.4080(7) 0.7116(7) 0.8583(5) 0.0149 Uani
H43 H 0.3623 0.7113 0.9129 0.0180 Uiso
C65 C 0.5216(7) 0.7081(7) 0.8474(5) 0.0141 Uani
H44 H 0.5538 0.7062 0.8947 0.0170 Uiso
C66 C 0.0844(7) 0.7028(7) 0.7376(4) 0.0087 Uani
O23 O 0.0665(5) 0.6768(5) 0.6732(3) 0.0172 Uani
O25 O 0.1151(5) 0.6242(5) 0.4735(3) 0.0156 Uani
C67 C 0.1504(8) 0.5917(7) 0.3984(5) 0.0139 Uani
C68 C 0.2677(7) 0.5960(8) 0.3518(5) 0.0156 Uani
C69 C 0.2950(8) 0.5964(8) 0.2666(5) 0.0170 Uani
H45 H 0.2394 0.5952 0.2366 0.0210 Uiso
C70 C 0.4063(7) 0.5985(7) 0.2227(5) 0.0147 Uani
C71 C 0.4365(8) 0.5987(8) 0.1346(5) 0.0171 Uani
H46 H 0.3798 0.6020 0.1035 0.0200 Uiso
C72 C 0.5474(8) 0.5943(8) 0.0941(5) 0.0174 Uani
H47 H 0.5669 0.5950 0.0349 0.0210 Uiso
C73 C 0.6330(8) 0.5885(8) 0.1396(5) 0.0176 Uani
C74 C 0.6063(7) 0.5893(7) 0.2254(5) 0.0150 Uani
H48 H 0.6648 0.5848 0.2553 0.0180 Uiso
C75 C 0.4896(8) 0.5970(7) 0.2693(5) 0.0167 Uani
C76 C 0.4586(8) 0.5965(8) 0.3574(5) 0.0174 Uani
H49 H 0.5139 0.5957 0.3887 0.0210 Uiso
C77 C 0.3493(8) 0.5972(8) 0.3981(5) 0.0181 Uani
H50 H 0.3285 0.5985 0.4572 0.0210 Uiso
C78 C 0.7580(7) 0.5766(7) 0.0937(5) 0.0153 Uani
O29 O 0.7766(5) 0.8274(5) 0.9330(4) 0.0182 Uani
C79 C 0.6922(11) 0.9030(9) 0.8986(7) 0.0372 Uani
H51 H 0.6774 0.8761 0.8535 0.0450 Uiso
N4 N 0.8324(8) 0.0149(7) 0.6164(5) 0.0305 Uani
C83 C 0.8246(13) 0.0793(10) 0.5354(7) 0.0447 Uani
H59 H 0.8590 0.0201 0.4915 0.0670 Uiso
H60 H 0.7371 0.1374 0.5329 0.0670 Uiso
H61 H 0.8726 0.1236 0.5275 0.0670 Uiso
C84 C 0.7974(16) 0.0869(12) 0.6899(8) 0.0635 Uani
H62 H 0.8113 0.0325 0.7397 0.0960 Uiso
H63 H 0.8486 0.1277 0.6827 0.0960 Uiso
H64 H 0.7090 0.1485 0.6963 0.0960 Uiso
O30 O 0.8966(6) 0.8287(5) 0.5662(4) 0.0192 Uani
C82 C 0.8658(9) 0.8964(8) 0.6247(6) 0.0237 Uani
H58 H 0.8662 0.8607 0.6795 0.0280 Uiso
loop_
_atom_site_aniso_label
_atom_site_aniso_U_11
_atom_site_aniso_U_22
_atom_site_aniso_U_33
_atom_site_aniso_U_23
_atom_site_aniso_U_13
_atom_site_aniso_U_12
Ce15 0.008 0.0113 0.0085 -0.00151 -0.00051 -0.00502
O10 0.006 0.014 0.016 -0.002 -0.005 -0.002
O11 0.014 0.016 0.021 -0.006 -0.008 0
C25 0.014 0.006 0.015 -0.003 -0.001 -0.005
C26 0.011 0.009 0.016 -0.001 -0.005 -0.002
C27 0.015 0.004 0.02 -0.002 -0.008 -0.002
C28 0.013 0.007 0.019 -0.001 -0.004 0.001
O15 0.019 0.011 0.026 -0.005 -0.004 -0.005
C40 0.028 0.009 0.027 -0.003 -0.007 -0.002
C47 0.022 0.017 0.024 -0.003 -0.013 -0.003
C48 0.014 0.018 0.022 -0.007 -0.009 0.001
Ce8 0.0066 0.0097 0.0083 0.00032 -0.00124 -0.00327
O31 0.013 0.024 0.015 -0.001 0 -0.011
O38 0.023 0.028 0.016 -0.001 -0.002 -0.021
C29 0.022 0.017 0.024 -0.003 -0.013 -0.003
C30 0.014 0.018 0.022 -0.007 -0.009 0.001
N2 0.041 0.011 0.034 -0.004 -0.013 -0.005
C41 0.069 0.021 0.036 0.007 -0.011 -0.017
C42 0.099 0.031 0.045 -0.009 -0.031 -0.01
O16 0.006 0.014 0.016 -0.002 -0.005 -0.002
O17 0.014 0.016 0.021 -0.006 -0.008 0
C43 0.014 0.006 0.015 -0.003 -0.001 -0.005
C44 0.011 0.009 0.016 -0.001 -0.005 -0.002
C45 0.015 0.004 0.02 -0.002 -0.008 -0.002
C46 0.013 0.007 0.019 -0.001 -0.004 0.001
Ce18 0.008 0.0113 0.0085 -0.00151 -0.00051 -0.00502
O1 0.008 0.023 0.016 0 -0.005 -0.007
C1 0.009 0.003 0.014 -0.004 0 0.002
C2 0.009 0.014 0.015 0.001 -0.003 -0.004
C3 0.008 0.012 0.015 0.002 -0.003 -0.002
O3 0.017 0.014 0.012 -0.002 -0.003 -0.004
C4 0.019 0.016 0.014 0 -0.003 -0.01
C5 0.017 0.019 0.009 -0.001 -0.003 -0.009
C6 0.015 0.021 0.013 -0.001 -0.005 -0.009
C7 0.013 0.007 0.018 0 -0.004 -0.003
C8 0.01 0.016 0.012 -0.001 -0.002 -0.005
C9 0.014 0.014 0.018 -0.001 -0.004 -0.008
C10 0.015 0.016 0.012 0 -0.003 -0.006
C11 0.01 0.017 0.014 -0.003 -0.004 -0.004
C12 0.009 0.007 0.013 -0.001 -0.004 -0.005
O4 0.018 0.019 0.017 -0.002 -0.004 -0.01
O5 0.017 0.03 0.013 0 -0.002 -0.016
O6 0.016 0.019 0.011 -0.005 0.003 -0.009
O7 0.023 0.028 0.016 -0.001 -0.002 -0.021
C13 0.015 0.011 0.017 0 0.001 -0.009
C14 0.013 0.017 0.019 -0.001 0 -0.01
C15 0.014 0.019 0.015 -0.002 0.004 -0.008
C16 0.012 0.011 0.016 -0.001 0.001 -0.003
C17 0.016 0.017 0.015 0 -0.002 -0.006
C18 0.016 0.02 0.013 0.002 0 -0.008
C19 0.012 0.014 0.016 0.004 0.004 -0.002
C20 0.012 0.014 0.016 0 -0.003 -0.004
C21 0.017 0.013 0.015 0.002 -0.003 -0.004
C22 0.014 0.024 0.015 -0.001 -0.002 -0.01
C23 0.017 0.02 0.013 -0.003 0.002 -0.007
C24 0.012 0.017 0.009 0.001 0.002 -0.003
O8 0.009 0.031 0.011 0 0.001 -0.006
O9 0.007 0.011 0.017 0.002 0.001 -0.001
C33 0.018 0.011 0.02 -0.001 -0.01 -0.006
C34 0.017 0.011 0.02 0.001 -0.008 -0.009
O14 0.013 0.01 0.026 -0.001 -0.004 -0.001
C37 0.054 0.017 0.041 0 -0.022 -0.012
O49 0.011 0.006 0.018 -0.001 -0.006 -0.002
O51 0.03 0.014 0.019 0.004 -0.011 -0.016
C35 0.038 0.018 0.022 0.004 -0.017 -0.016
C36 0.034 0.016 0.021 0.006 -0.017 -0.012
N1 0.038 0.016 0.06 -0.001 -0.022 -0.006
C38 0.074 0.028 0.044 -0.018 0.007 -0.017
C39 0.137 0.02 0.102 -0.001 -0.071 -0.015
C49 0.02 0.005 0.018 0.001 -0.004 -0.006
C50 0.016 0.011 0.023 -0.001 -0.007 -0.008
O34 0.017 0.014 0.012 -0.002 -0.003 -0.004
O36 0.017 0.03 0.013 0 -0.002 -0.016
Ce12 0.0066 0.0097 0.0083 0.00032 -0.00124 -0.00327
O40 0.009 0.031 0.011 0 0.001 -0.006
O12 0.011 0.006 0.018 -0.001 -0.006 -0.002
O13 0.03 0.014 0.019 0.004 -0.011 -0.016
C31 0.02 0.005 0.018 0.001 -0.004 -0.006
C32 0.016 0.011 0.023 -0.001 -0.007 -0.008
C53 0.038 0.018 0.022 0.004 -0.017 -0.016
C54 0.034 0.016 0.021 0.006 -0.017 -0.012
N3 0.038 0.016 0.06 -0.001 -0.022 -0.006
C80 0.074 0.028 0.044 -0.018 0.007 -0.017
C81 0.137 0.02 0.102 -0.001 -0.071 -0.015
O42 0.007 0.011 0.017 0.002 0.001 -0.001
C51 0.018 0.011 0.02 -0.001 -0.01 -0.006
C52 0.017 0.011 0.02 0.001 -0.008 -0.009
O20 0.008 0.023 0.016 0 -0.005 -0.007
O21 0.013 0.024 0.015 -0.001 0 -0.011
C55 0.009 0.003 0.014 -0.004 0 0.002
C56 0.009 0.014 0.015 0.001 -0.003 -0.004
C57 0.008 0.012 0.015 0.002 -0.003 -0.002
C58 0.019 0.016 0.014 0 -0.003 -0.01
C59 0.017 0.019 0.009 -0.001 -0.003 -0.009
C60 0.015 0.021 0.013 -0.001 -0.005 -0.009
C61 0.013 0.007 0.018 0 -0.004 -0.003
C62 0.01 0.016 0.012 -0.001 -0.002 -0.005
C63 0.014 0.014 0.018 -0.001 -0.004 -0.008
C64 0.015 0.016 0.012 0 -0.003 -0.006
C65 0.01 0.017 0.014 -0.003 -0.004 -0.004
C66 0.009 0.007 0.013 -0.001 -0.004 -0.005
O23 0.018 0.019 0.017 -0.002 -0.004 -0.01
O25 0.016 0.019 0.011 -0.005 0.003 -0.009
C67 0.015 0.011 0.017 0 0.001 -0.009
C68 0.013 0.017 0.019 -0.001 0 -0.01
C69 0.014 0.019 0.015 -0.002 0.004 -0.008
C70 0.012 0.011 0.016 -0.001 0.001 -0.003
C71 0.016 0.017 0.015 0 -0.002 -0.006
C72 0.016 0.02 0.013 0.002 0 -0.008
C73 0.012 0.014 0.016 0.004 0.004 -0.002
C74 0.012 0.014 0.016 0 -0.003 -0.004
C75 0.017 0.013 0.015 0.002 -0.003 -0.004
C76 0.014 0.024 0.015 -0.001 -0.002 -0.01
C77 0.017 0.02 0.013 -0.003 0.002 -0.007
C78 0.012 0.017 0.009 0.001 0.002 -0.003
O29 0.013 0.01 0.026 -0.001 -0.004 -0.001
C79 0.054 0.017 0.041 0 -0.022 -0.012
N4 0.041 0.011 0.034 -0.004 -0.013 -0.005
C83 0.069 0.021 0.036 0.007 -0.011 -0.017
C84 0.099 0.031 0.045 -0.009 -0.031 -0.01
O30 0.019 0.011 0.026 -0.005 -0.004 -0.005
C82 0.028 0.009 0.027 -0.003 -0.007 -0.002
loop_
_geom_bond_atom_site_label_1
_geom_bond_atom_site_label_2
_geom_bond_site_symmetry_1
_geom_bond_site_symmetry_2
O10 Ce15 1_555 1_555
O11 C25 1_555 1_555
C25 O10 1_555 1_555
C26 C25 1_555 1_555
C27 C26 1_555 1_555
H13 C27 1_555 1_555
C28 C27 1_555 1_555
O15 Ce15 1_555 1_555
C40 O15 1_555 1_555
H26 C40 1_555 1_555
H34 C47 1_555 1_555
C48 C26 1_555 1_555
H35 C48 1_555 1_555
O31 Ce15 1_555 1_555
O38 Ce15 1_555 1_555
C47 C48 1_555 1_555
H14 C29 1_555 1_555
C30 C29 1_555 1_555
H15 C30 1_555 1_555
C41 N2 1_555 1_555
H27 C41 1_555 1_555
H28 C41 1_555 1_555
H29 C41 1_555 1_555
C42 N2 1_555 1_555
H30 C42 1_555 1_555
H31 C42 1_555 1_555
H32 C42 1_555 1_555
O16 C43 1_555 1_555
O17 C43 1_555 1_555
C43 C44 1_555 1_555
C44 C30 1_555 1_555
C45 C44 1_555 1_555
H33 C45 1_555 1_555
Ce18 O16 1_555 1_555
C45 C46 1_555 1_555
Ce8 O1 1_555 1_555
O1 C1 1_555 1_555
O31 C1 1_555 1_555
C1 C2 1_555 1_555
C2 C3 1_555 1_555
C3 H1 1_555 1_555
C4 C3 1_555 1_555
C5 C4 1_555 1_555
H2 C5 1_555 1_555
C6 C5 1_555 1_555
H3 C6 1_555 1_555
C7 C6 1_555 1_555
C8 C7 1_555 1_555
H4 C8 1_555 1_555
C9 C4 1_555 1_555
C10 C9 1_555 1_555
H5 C10 1_555 1_555
C11 C2 1_555 1_555
H6 C11 1_555 1_555
C12 C7 1_555 1_555
O5 C12 1_555 1_555
O7 C13 1_555 1_555
C13 O6 1_555 1_555
C14 C13 1_555 1_555
C15 C14 1_555 1_555
H7 C15 1_555 1_555
C16 C15 1_555 1_555
C17 C16 1_555 1_555
H8 C17 1_555 1_555
C18 C17 1_555 1_555
H9 C18 1_555 1_555
C19 C18 1_555 1_555
C20 C19 1_555 1_555
H10 C20 1_555 1_555
C21 C16 1_555 1_555
C22 C21 1_555 1_555
H11 C22 1_555 1_555
C23 C14 1_555 1_555
H12 C23 1_555 1_555
C24 C19 1_555 1_555
O8 C24 1_555 1_555
O9 C24 1_555 1_555
H16 C33 1_555 1_555
C34 C33 1_555 1_555
O14 Ce8 1_555 1_555
C37 O14 1_555 1_555
H19 C37 1_555 1_555
Ce18 O7 1_555 1_555
O49 Ce8 1_555 1_555
O51 Ce8 1_555 1_555
C8 C9 1_555 1_555
C10 C11 1_555 1_555
C12 O4 1_555 1_555
C20 C21 1_555 1_555
C22 C23 1_555 1_555
H17 C35 1_555 1_555
C36 C35 1_555 1_555
H18 C36 1_555 1_555
C38 N1 1_555 1_555
H21 C38 1_555 1_555
C39 N1 1_555 1_555
H23 C39 1_555 1_555
H24 C39 1_555 1_555
H25 C39 1_555 1_555
O49 C49 1_555 1_555
O51 C49 1_555 1_555
C49 C50 1_555 1_555
C50 C36 1_555 1_555
O13 C31 1_555 1_555
C31 O12 1_555 1_555
C32 C31 1_555 1_555
H37 C53 1_555 1_555
C54 C32 1_555 1_555
H38 C54 1_555 1_555
C80 N3 1_555 1_555
H53 C80 1_555 1_555
C81 N3 1_555 1_555
H55 C81 1_555 1_555
H56 C81 1_555 1_555
H57 C81 1_555 1_555
Ce12 O12 1_555 1_555
O13 Ce12 1_555 1_555
C53 C54 1_555 1_555
H36 C51 1_555 1_555
O20 Ce12 1_555 1_555
O21 C55 1_555 1_555
C55 O20 1_555 1_555
C56 C55 1_555 1_555
C57 C56 1_555 1_555
H39 C57 1_555 1_555
C58 C57 1_555 1_555
C59 C58 1_555 1_555
H40 C59 1_555 1_555
C60 C59 1_555 1_555
H41 C60 1_555 1_555
C61 C60 1_555 1_555
C62 C61 1_555 1_555
H42 C62 1_555 1_555
C63 C58 1_555 1_555
C64 C63 1_555 1_555
H43 C64 1_555 1_555
C65 C56 1_555 1_555
H44 C65 1_555 1_555
C66 C61 1_555 1_555
O36 C66 1_555 1_555
O38 C67 1_555 1_555
C67 O25 1_555 1_555
C68 C67 1_555 1_555
C69 C68 1_555 1_555
H45 C69 1_555 1_555
C70 C69 1_555 1_555
C71 C70 1_555 1_555
H46 C71 1_555 1_555
C72 C71 1_555 1_555
H47 C72 1_555 1_555
C73 C72 1_555 1_555
C74 C73 1_555 1_555
H48 C74 1_555 1_555
C75 C70 1_555 1_555
C76 C75 1_555 1_555
H49 C76 1_555 1_555
C77 C68 1_555 1_555
H50 C77 1_555 1_555
C78 C73 1_555 1_555
O40 C78 1_555 1_555
O42 C78 1_555 1_555
O29 Ce12 1_555 1_555
C79 O29 1_555 1_555
H51 C79 1_555 1_555
Ce18 O21 1_555 1_555
C51 C52 1_555 1_555
C62 C63 1_555 1_555
C64 C65 1_555 1_555
C66 O23 1_555 1_555
C74 C75 1_555 1_555
C76 C77 1_555 1_555
C83 N4 1_555 1_555
H59 C83 1_555 1_555
H60 C83 1_555 1_555
H61 C83 1_555 1_555
C84 N4 1_555 1_555
H62 C84 1_555 1_555
H63 C84 1_555 1_555
H64 C84 1_555 1_555
O30 Ce18 1_555 1_555
C82 O30 1_555 1_555
H58 C82 1_555 1_555

#END
