
###############################################################################
#
# This file contains modified crystal structure data generated from the
# MOF subset of the Cambridge Structural Database (CSD) v543 
# hosted by the Cambridge Crystallographic Data Centre (CCDC).
#
# This work is licensed under the Creative Commons
# Attribution-NonCommercial-ShareAlike 4.0 International License.
# To view a copy of this license, visit
# http://creativecommons.org/licenses/by-nc-sa/4.0/
# or send a letter to
# Creative Commons, PO Box 1866, Mountain View, CA 94042, USA.
#
# CIF created using the CSD Python API on 29 September 2022
# The structure has been converted into the P1 space group
# The structure has a 3D framework
# The original CSD entry QOJVAM is in the monoclinic crystal system
# The framework has been calculated to contain at least 10.0% void space
# The void calculation uses a probe of radius 1.32A, grid spacing 0.4
#
###############################################################################

data_QOJVAM
_chemical_formula_moiety         '(C80 H56 Cu8 I8 N16)n'
_symmetry_cell_setting           triclinic
_symmetry_space_group_name_H-M   'P 1'
_symmetry_Int_Tables_number      1
_space_group_name_Hall           'P 1'
loop_
_symmetry_equiv_pos_site_id
_symmetry_equiv_pos_as_xyz
1 x,y,z
_cell_length_a                   13.9745(13)
_cell_length_b                   14.5627(14)
_cell_length_c                   16.4373(15)
_cell_angle_alpha                90
_cell_angle_beta                 98.5760(18)
_cell_angle_gamma                90
_cell_volume                     3307.69
loop_
_atom_site_label
_atom_site_type_symbol
_atom_site_fract_x
_atom_site_fract_y
_atom_site_fract_z
I1 I 0.44966(4) 0.26023(9) 0.23580(4)
I2 I 0.74927(4) 0.24022(9) 0.14526(4)
Cu1 Cu 0.59779(15) 0.33770(16) 0.17212(14)
Cu2 Cu 0.60107(16) 0.16192(16) 0.20870(15)
N1 N 0.6613(6) 0.4375(5) 0.2533(4)
C1 C 0.6024(4) 0.4678(5) 0.3089(5)
H1 H 0.5403 0.4411 0.3088
C2 C 0.6343(6) 0.5370(6) 0.3646(5)
C3 C 0.7251(7) 0.5760(6) 0.3647(5)
H2 H 0.7469 0.6233 0.4028
C4 C 0.7840(5) 0.5457(7) 0.3092(6)
H3 H 0.8461 0.5724 0.3093
C5 C 0.7522(6) 0.4765(7) 0.2534(5)
H4 H 0.7925 0.4559 0.2154
N2 N 0.5349(6) 0.6164(6) 0.5591(4)
C6 C 0.5984(4) 0.5897(6) 0.5060(5)
H5 H 0.6660 0.5878 0.5249
C7 C 0.5629(6) 0.5657(6) 0.4252(4)
C8 C 0.4640(7) 0.5684(6) 0.3976(4)
H6 H 0.4398 0.5520 0.3425
C9 C 0.4005(4) 0.5951(7) 0.4507(6)
C10 C 0.4359(5) 0.6191(7) 0.5315(5)
H7 H 0.3925 0.6374 0.5678
N3 N 0.1527(5) 0.6201(6) 0.3271(4)
C11 C 0.2528(5) 0.6187(6) 0.3483(4)
H8 H 0.2930 0.6358 0.3090
C12 C 0.2941(4) 0.5923(6) 0.4270(5)
C13 C 0.2353(7) 0.5673(7) 0.4845(4)
H9 H 0.2635 0.5492 0.5383
C14 C 0.1352(6) 0.5687(7) 0.4633(5)
C15 C 0.0939(4) 0.5951(7) 0.3846(5)
H10 H 0.0255 0.5961 0.3701
N4 N 0.0491(6) 0.4317(5) 0.6230(5)
C16 C 0.1075(4) 0.4680(7) 0.5695(6)
H11 H 0.1717 0.4460 0.5707
C17 C 0.0719(6) 0.5365(7) 0.5143(6)
N5 N 0.5349(6) 0.3836(6) 0.0591(4)
N6 N 0.6527(5) 0.1201(6) 0.3271(4)
N7 N 0.5491(6) 0.0683(5) 0.1230(5)
Cu3 Cu 0.59779(15) 0.66230(16) 0.67212(14)
Cu4 Cu 0.10107(16) 0.66192(16) 0.20870(15)
Cu5 Cu 0.10107(16) 0.33808(16) 0.70870(15)
C6_2 C 0.5984(4) 0.4103(6) 0.0060(5)
H5_2 H 0.6660 0.4122 0.0249
C10_2 C 0.4359(5) 0.3809(7) 0.0315(5)
H7_2 H 0.3925 0.3626 0.0678
H9_2 H 0.2635 0.4508 0.0383
N4_2 N 0.0491(6) 0.5683(5) 0.1230(5)
C16_2 C 0.1075(4) 0.5320(7) 0.0695(6)
H11_2 H 0.1717 0.5540 0.0707
C17_2 C 0.0719(6) 0.4635(7) 0.0143(6)
I1_2 I 0.44966(4) 0.73977(9) 0.73580(4)
I2_2 I 0.74927(4) 0.75978(9) 0.64526(4)
Cu2_2 Cu 0.60107(16) 0.83808(16) 0.70870(15)
N1_2 N 0.6613(6) 0.5625(5) 0.7533(4)
C1_2 C 0.6024(4) 0.5322(5) 0.8089(5)
H1_2 H 0.5403 0.5589 0.8088
C2_2 C 0.6343(6) 0.4630(6) 0.8646(5)
C3_2 C 0.7251(7) 0.4240(6) 0.8647(5)
H2_2 H 0.7469 0.3767 0.9028
C4_2 C 0.7840(5) 0.4543(7) 0.8092(6)
H3_2 H 0.8461 0.4276 0.8093
C5_2 C 0.7522(6) 0.5235(7) 0.7534(5)
H4_2 H 0.7925 0.5441 0.7154
C7_2 C 0.5629(6) 0.4343(6) 0.9252(4)
C8_2 C 0.4640(7) 0.4316(6) 0.8976(4)
H6_2 H 0.4398 0.4480 0.8425
C9_2 C 0.4005(4) 0.4049(7) 0.9507(6)
N3_2 N 0.1527(5) 0.3799(6) 0.8271(4)
C11_2 C 0.2528(5) 0.3813(6) 0.8483(4)
H8_2 H 0.2930 0.3642 0.8090
C12_2 C 0.2941(4) 0.4077(6) 0.9270(5)
C13_2 C 0.2353(7) 0.4327(7) 0.9845(4)
C14_2 C 0.1352(6) 0.4313(7) 0.9633(5)
C15_2 C 0.0939(4) 0.4049(7) 0.8846(5)
H10_2 H 0.0255 0.4039 0.8701
N6_2 N 0.6527(5) 0.8799(6) 0.8271(4)
N7_2 N 0.5491(6) 0.9317(5) 0.6230(5)
C2_3 C 0.1343(6) 0.0370(6) 0.3646(5)
C3_3 C 0.2251(7) 0.0760(6) 0.3647(5)
H2_3 H 0.2469 0.1233 0.4028
C4_3 C 0.2840(5) 0.0457(7) 0.3092(6)
H3_3 H 0.3461 0.0724 0.3093
N2_2 N 0.0349(6) 0.1164(6) 0.5591(4)
C6_3 C 0.0984(4) 0.0897(6) 0.5060(5)
H5_3 H 0.1660 0.0878 0.5249
C7_3 C 0.0629(6) 0.0657(6) 0.4252(4)
Cu3_2 Cu 0.09779(15) 0.16230(16) 0.67212(14)
I2_3 I 0.24927(4) 0.74022(9) 0.14526(4)
Cu1_2 Cu 0.09779(15) 0.83770(16) 0.17212(14)
N1_3 N 0.1613(6) 0.9375(5) 0.2533(4)
C1_3 C 0.1024(4) 0.9678(5) 0.3089(5)
H1_3 H 0.0403 0.9411 0.3088
C5_3 C 0.2522(6) 0.9765(7) 0.2534(5)
H4_3 H 0.2925 0.9559 0.2154
N5_2 N 0.0349(6) 0.8836(6) 0.0591(4)
C8_3 C 0.9640(7) 0.0684(6) 0.3976(4)
H6_3 H 0.9398 0.0520 0.3425
C9_3 C 0.9005(4) 0.0951(7) 0.4507(6)
C10_3 C 0.9359(5) 0.1191(7) 0.5315(5)
H7_3 H 0.8925 0.1374 0.5678
C11_3 C 0.7528(5) 0.1187(6) 0.3483(4)
H8_3 H 0.7930 0.1358 0.3090
C12_3 C 0.7941(4) 0.0923(6) 0.4270(5)
C13_3 C 0.7353(7) 0.0673(7) 0.4845(4)
H9_3 H 0.7635 0.0492 0.5383
C14_3 C 0.6352(6) 0.0687(7) 0.4633(5)
C15_3 C 0.5939(4) 0.0951(7) 0.3846(5)
H10_3 H 0.5255 0.0961 0.3701
C17_3 C 0.5719(6) 0.0365(7) 0.5143(6)
C18 C 0.4780(7) 0.0687(6) 0.5125(6)
H12 H 0.4537 0.1155 0.4747
C19 C 0.4196(5) 0.0323(6) 0.5660(5)
H13 H 0.3554 0.0543 0.5648
I1_3 I 0.94966(4) 0.76023(9) 0.23580(4)
C16_3 C 0.6075(4) 0.9680(7) 0.5695(6)
H11_3 H 0.6717 0.9460 0.5707
C20 C 0.4552(6) 0.9638(6) 0.6212(5)
H14 H 0.4153 0.9390 0.6578
I2_4 I 0.24927(4) 0.25978(9) 0.64526(4)
N1_4 N 0.1613(6) 0.0625(5) 0.7533(4)
C1_4 C 0.1024(4) 0.0322(5) 0.8089(5)
H1_4 H 0.0403 0.0589 0.8088
C5_4 C 0.2522(6) 0.0235(7) 0.7534(5)
H4_4 H 0.2925 0.0441 0.7154
C6_4 C 0.0984(4) 0.9103(6) 0.0060(5)
H5_4 H 0.1660 0.9122 0.0249
C16_4 C 0.6075(4) 0.0320(7) 0.0695(6)
H11_4 H 0.6717 0.0540 0.0707
C20_2 C 0.4552(6) 0.0362(6) 0.1212(5)
H14_2 H 0.4153 0.0610 0.1578
C8_4 C 0.9640(7) 0.9316(6) 0.8976(4)
H6_4 H 0.9398 0.9480 0.8425
C9_4 C 0.9005(4) 0.9049(7) 0.9507(6)
C11_4 C 0.7528(5) 0.8813(6) 0.8483(4)
H8_4 H 0.7930 0.8642 0.8090
C12_4 C 0.7941(4) 0.9077(6) 0.9270(5)
C13_4 C 0.7353(7) 0.9327(7) 0.9845(4)
C14_4 C 0.6352(6) 0.9313(7) 0.9633(5)
C15_4 C 0.5939(4) 0.9049(7) 0.8846(5)
H10_4 H 0.5255 0.9039 0.8701
H12_2 H 0.4537 0.8845 0.9747
C18_2 C 0.9780(7) 0.5687(6) 0.5125(6)
H12_3 H 0.9537 0.6155 0.4747
C19_2 C 0.9196(5) 0.5323(6) 0.5660(5)
H13_2 H 0.8554 0.5543 0.5648
C20_3 C 0.9552(6) 0.4638(6) 0.6212(5)
H14_3 H 0.9153 0.4390 0.6578
C18_3 C 0.9780(7) 0.4313(6) 0.0125(6)
C19_3 C 0.9196(5) 0.4677(6) 0.0660(5)
H13_3 H 0.8554 0.4457 0.0648
C20_4 C 0.9552(6) 0.5362(6) 0.1212(5)
H14_4 H 0.9153 0.5610 0.1578
H12_4 H 0.9537 0.3845 0.9747
C2_4 C 0.1343(6) 0.9630(6) 0.8646(5)
C3_4 C 0.2251(7) 0.9240(6) 0.8647(5)
H2_4 H 0.2469 0.8767 0.9028
C4_4 C 0.2840(5) 0.9543(7) 0.8092(6)
H3_4 H 0.3461 0.9276 0.8093
C7_4 C 0.0629(6) 0.9343(6) 0.9252(4)
I1_4 I 0.94966(4) 0.23977(9) 0.73580(4)
C10_4 C 0.9359(5) 0.8809(7) 0.0315(5)
H7_4 H 0.8925 0.8626 0.0678
H9_4 H 0.7635 0.9508 0.0383
C17_4 C 0.5719(6) 0.9635(7) 0.0143(6)
C18_4 C 0.4780(7) 0.9313(6) 0.0125(6)
C19_4 C 0.4196(5) 0.9677(6) 0.0660(5)
H13_4 H 0.3554 0.9457 0.0648
loop_
_geom_bond_atom_site_label_1
_geom_bond_atom_site_label_2
_geom_bond_site_symmetry_1
_geom_bond_site_symmetry_2
I1 Cu1 1_555 1_555
I2 Cu1 1_555 1_555
Cu1 Cu2 1_555 1_555
Cu2 I1 1_555 1_555
N1 Cu1 1_555 1_555
C1 N1 1_555 1_555
H1 C1 1_555 1_555
C2 C1 1_555 1_555
C3 C2 1_555 1_555
H2 C3 1_555 1_555
C4 C3 1_555 1_555
H3 C4 1_555 1_555
C5 N1 1_555 1_555
H4 C5 1_555 1_555
N2 C6 1_555 1_555
C6 H5 1_555 1_555
C7 C2 1_555 1_555
C8 C7 1_555 1_555
H6 C8 1_555 1_555
C9 C8 1_555 1_555
C10 N2 1_555 1_555
H7 C10 1_555 1_555
N3 C11 1_555 1_555
C11 H8 1_555 1_555
C12 C9 1_555 1_555
C13 C12 1_555 1_555
H9 C13 1_555 1_555
C14 C13 1_555 1_555
C15 N3 1_555 1_555
H10 C15 1_555 1_555
N4 C16 1_555 1_555
C16 H11 1_555 1_555
C17 C14 1_555 1_555
N5 Cu1 1_555 1_555
N6 Cu2 1_555 1_555
N7 Cu2 1_555 1_555
Cu3 N2 1_555 1_555
Cu4 N3 1_555 1_555
Cu5 N4 1_555 1_555
I2 Cu2 1_555 1_555
C4 C5 1_555 1_555
C6 C7 1_555 1_555
C9 C10 1_555 1_555
C11 C12 1_555 1_555
C14 C15 1_555 1_555
C16 C17 1_555 1_555
N5 C6_2 1_555 1_555
C6_2 H5_2 1_555 1_555
C10_2 N5 1_555 1_555
H7_2 C10_2 1_555 1_555
N4_2 C16_2 1_555 1_555
C16_2 H11_2 1_555 1_555
Cu4 N4_2 1_555 1_555
C16_2 C17_2 1_555 1_555
I1_2 Cu3 1_555 1_555
I2_2 Cu3 1_555 1_555
Cu3 Cu2_2 1_555 1_555
Cu2_2 I1_2 1_555 1_555
N1_2 Cu3 1_555 1_555
C1_2 N1_2 1_555 1_555
H1_2 C1_2 1_555 1_555
C2_2 C1_2 1_555 1_555
C3_2 C2_2 1_555 1_555
H2_2 C3_2 1_555 1_555
C4_2 C3_2 1_555 1_555
H3_2 C4_2 1_555 1_555
C5_2 N1_2 1_555 1_555
H4_2 C5_2 1_555 1_555
C7_2 C2_2 1_555 1_555
C8_2 C7_2 1_555 1_555
H6_2 C8_2 1_555 1_555
C9_2 C8_2 1_555 1_555
N3_2 C11_2 1_555 1_555
C11_2 H8_2 1_555 1_555
C12_2 C9_2 1_555 1_555
C13_2 C12_2 1_555 1_555
C14_2 C13_2 1_555 1_555
C15_2 N3_2 1_555 1_555
H10_2 C15_2 1_555 1_555
N6_2 Cu2_2 1_555 1_555
N7_2 Cu2_2 1_555 1_555
Cu5 N3_2 1_555 1_555
I2_2 Cu2_2 1_555 1_555
C4_2 C5_2 1_555 1_555
C11_2 C12_2 1_555 1_555
C14_2 C15_2 1_555 1_555
C3_3 C2_3 1_555 1_555
H2_3 C3_3 1_555 1_555
C4_3 C3_3 1_555 1_555
H3_3 C4_3 1_555 1_555
N2_2 C6_3 1_555 1_555
C6_3 H5_3 1_555 1_555
C7_3 C2_3 1_555 1_555
Cu3_2 N2_2 1_555 1_555
C6_3 C7_3 1_555 1_555
I2_3 Cu1_2 1_555 1_555
Cu1_2 Cu4 1_555 1_555
N1_3 Cu1_2 1_555 1_555
C1_3 N1_3 1_555 1_555
H1_3 C1_3 1_555 1_555
C5_3 N1_3 1_555 1_555
H4_3 C5_3 1_555 1_555
N5_2 Cu1_2 1_555 1_555
I2_3 Cu4 1_555 1_555
H6_3 C8_3 1_555 1_555
C9_3 C8_3 1_555 1_555
H7_3 C10_3 1_555 1_555
N6 C11_3 1_555 1_555
C11_3 H8_3 1_555 1_555
C12_3 C9_3 1_555 1_555
C13_3 C12_3 1_555 1_555
H9_3 C13_3 1_555 1_555
C14_3 C13_3 1_555 1_555
C15_3 N6 1_555 1_555
H10_3 C15_3 1_555 1_555
C17_3 C14_3 1_555 1_555
C18 C17_3 1_555 1_555
H12 C18 1_555 1_555
C19 C18 1_555 1_555
H13 C19 1_555 1_555
C9_3 C10_3 1_555 1_555
C11_3 C12_3 1_555 1_555
C14_3 C15_3 1_555 1_555
N7_2 C16_3 1_555 1_555
C16_3 H11_3 1_555 1_555
C20 N7_2 1_555 1_555
H14 C20 1_555 1_555
I2_4 Cu3_2 1_555 1_555
Cu3_2 Cu5 1_555 1_555
N1_4 Cu3_2 1_555 1_555
C1_4 N1_4 1_555 1_555
H1_4 C1_4 1_555 1_555
C5_4 N1_4 1_555 1_555
H4_4 C5_4 1_555 1_555
I2_4 Cu5 1_555 1_555
N5_2 C6_4 1_555 1_555
C6_4 H5_4 1_555 1_555
N7 C16_4 1_555 1_555
C16_4 H11_4 1_555 1_555
C20_2 N7 1_555 1_555
H14_2 C20_2 1_555 1_555
H6_4 C8_4 1_555 1_555
C9_4 C8_4 1_555 1_555
N6_2 C11_4 1_555 1_555
C11_4 H8_4 1_555 1_555
C12_4 C9_4 1_555 1_555
C13_4 C12_4 1_555 1_555
C14_4 C13_4 1_555 1_555
C15_4 N6_2 1_555 1_555
H10_4 C15_4 1_555 1_555
C11_4 C12_4 1_555 1_555
C14_4 C15_4 1_555 1_555
H12_3 C18_2 1_555 1_555
C19_2 C18_2 1_555 1_555
H13_2 C19_2 1_555 1_555
H14_3 C20_3 1_555 1_555
C19_2 C20_3 1_555 1_555
C19_3 C18_3 1_555 1_555
H13_3 C19_3 1_555 1_555
H14_4 C20_4 1_555 1_555
C19_3 C20_4 1_555 1_555
C3_4 C2_4 1_555 1_555
H2_4 C3_4 1_555 1_555
C4_4 C3_4 1_555 1_555
H3_4 C4_4 1_555 1_555
C7_4 C2_4 1_555 1_555
H7_4 C10_4 1_555 1_555
C18_4 C17_4 1_555 1_555
C19_4 C18_4 1_555 1_555
H13_4 C19_4 1_555 1_555

#END
