
###############################################################################
#
# This file contains modified crystal structure data generated from the
# MOF subset of the Cambridge Structural Database (CSD) v543 
# hosted by the Cambridge Crystallographic Data Centre (CCDC).
#
# This work is licensed under the Creative Commons
# Attribution-NonCommercial-ShareAlike 4.0 International License.
# To view a copy of this license, visit
# http://creativecommons.org/licenses/by-nc-sa/4.0/
# or send a letter to
# Creative Commons, PO Box 1866, Mountain View, CA 94042, USA.
#
# CIF created using the CSD Python API on 29 September 2022
# The structure has been converted into the P1 space group
# The structure has a 3D framework
# The original CSD entry QOMFEE is in the monoclinic crystal system
# The original CSD entry QOMFEE is in a Sohncke space group
# The framework has been calculated to contain at least 10.0% void space
# The void calculation uses a probe of radius 1.32A, grid spacing 0.4
#
###############################################################################

data_QOMFEE
_chemical_formula_moiety         '(C88 H72 N8 O34 Zn8)n'
_symmetry_cell_setting           triclinic
_symmetry_space_group_name_H-M   'P 1'
_symmetry_Int_Tables_number      1
_space_group_name_Hall           'P 1'
loop_
_symmetry_equiv_pos_site_id
_symmetry_equiv_pos_as_xyz
1 x,y,z
_cell_length_a                   8.7994(6)
_cell_length_b                   53.888(3)
_cell_length_c                   8.8039(6)
_cell_angle_alpha                90
_cell_angle_beta                 90.111(2)
_cell_angle_gamma                90
_cell_volume                     4174.64
loop_
_atom_site_label
_atom_site_type_symbol
_atom_site_fract_x
_atom_site_fract_y
_atom_site_fract_z
O7 O 0.0420(10) 0.25418(12) 0.1570(7)
O8 O 0.0227(14) 0.21371(14) 0.2130(11)
O15 O 0.3519(11) 0.46474(14) 0.3469(11)
O16 O 0.3738(10) 0.50548(16) 0.3594(11)
C38 C 0.0429(13) 0.46949(18) 0.3570(11)
H33 H 0.0853 0.4537 0.3539
C39 C 0.1306(13) 0.48811(17) 0.3601(12)
H34 H 0.0877 0.5038 0.3669
C40 C 0.2983(13) 0.48607(19) 0.3535(11)
Zn5 Zn 0.26565(16) 0.253511(15) 0.17697(9)
Zn7 Zn 0.22756(17) 0.197880(15) 0.21188(9)
Zn9 Zn 0.56839(13) 0.451517(14) 0.33714(9)
Zn12 Zn 0.60378(12) 0.505930(14) 0.37088(9)
Zn4 Zn 0.39622(12) 0.005930(14) 0.62912(9)
N1 N 0.3142(11) 0.29088(11) 0.1707(7)
N2 N 0.5261(9) 0.41544(12) 0.2923(7)
C1 C 0.3085(10) 0.30632(13) 0.0475(8)
C6 C 0.3548(10) 0.33098(12) 0.0583(7)
C7 C 0.4109(11) 0.34006(13) 0.1955(9)
C8 C 0.4198(12) 0.32362(15) 0.3183(9)
H7 H 0.4558 0.3291 0.4118
C9 C 0.3750(14) 0.29929(14) 0.3004(9)
H8 H 0.3873 0.2883 0.3811
C10 C 0.4275(13) 0.40249(15) 0.3805(9)
H9 H 0.3850 0.4103 0.4644
C11 C 0.3880(13) 0.37832(16) 0.3508(9)
H10 H 0.3190 0.3701 0.4129
C12 C 0.4532(11) 0.36604(13) 0.2248(8)
C13 C 0.5536(12) 0.37931(15) 0.1372(10)
H11 H 0.6007 0.3718 0.0547
C14 C 0.5845(13) 0.40376(16) 0.1720(10)
H12 H 0.6493 0.4126 0.1083
N3 N 0.2272(11) 0.16084(13) 0.2773(8)
N4 N 0.3557(10) 0.04165(11) 0.5672(7)
C15 C 0.1126(12) 0.14494(17) 0.2659(12)
H15 H 0.0030 0.1494 0.0708
H20 H 0.0089 0.0888 0.3528
C20 C 0.1263(12) 0.12153(17) 0.3273(13)
C21 C 0.2560(12) 0.11416(14) 0.3996(9)
C22 C 0.3758(17) 0.1305(2) 0.4075(19)
H21 H 0.4704 0.1255 0.4440
C23 C 0.3493(19) 0.1550(2) 0.358(2)
H22 H 0.4192 0.1673 0.3822
C24 C 0.419(2) 0.0504(2) 0.4421(15)
H23 H 0.4699 0.0393 0.3795
C25 C 0.4137(17) 0.0754(2) 0.3979(13)
H24 H 0.4862 0.0829 0.3362
C26 C 0.2830(12) 0.08830(14) 0.4588(9)
C27 C 0.2167(12) 0.07943(17) 0.5864(11)
H25 H 0.1402 0.0884 0.6346
C28 C 0.2658(14) 0.05637(17) 0.6452(12)
H26 H 0.2338 0.0515 0.7413
O5 O 0.4824(12) 0.24364(12) 0.2070(8)
O6 O 0.4609(11) 0.20194(13) 0.1930(8)
C29 C 0.5390(15) 0.22160(16) 0.1981(11)
C30 C 0.7013(16) 0.2182(2) 0.2009(11)
H29 H 0.7403 0.2023 0.2091
C31 C 0.7977(16) 0.23737(18) 0.1919(11)
H30 H 0.7578 0.2533 0.1864
C32 C 0.9635(17) 0.2344(2) 0.1904(12)
O13 O 0.7968(10) 0.45298(14) 0.3474(11)
O14 O 0.8195(10) 0.49326(15) 0.3641(10)
C37 C 0.8666(13) 0.47205(17) 0.3582(10)
O17 O 0.5818(12) 0.46478(14) 0.1229(7)
O18 O 0.6030(11) 0.50538(13) 0.1416(6)
C41 C 0.5966(12) 0.48574(17) 0.0695(9)
O23 O 0.2427(10) 0.24973(12) 0.4076(6)
O24 O 0.2471(14) 0.20947(12) 0.4311(7)
O27 O 0.6262(10) 0.00548(16) 0.6406(11)
O28 O 0.3970(11) 0.00538(13) 0.8584(6)
O29 O 0.5648(10) 0.45112(12) 0.5667(6)
C2 C 0.2340(14) 0.29528(15) 0.9155(10)
H1 H 0.1270 0.2931 0.9381
H2 H 0.2771 0.2790 0.8980
C3 C 0.2496(13) 0.31128(14) 0.7632(9)
H3 H 0.3484 0.3085 0.7176
H4 H 0.1720 0.3064 0.6909
C4 C 0.2318(11) 0.33786(14) 0.8022(8)
H5 H 0.1311 0.3403 0.8471
C5 C 0.3527(10) 0.34693(15) 0.9159(8)
H6 H 0.3311 0.3642 0.9439
O1 O 0.2395(10) 0.35149(11) 0.6646(6)
H13 H 0.2299 0.3663 0.6828
O2 O 0.5013(9) 0.34543(13) 0.8522(7)
H14 H 0.5050 0.3539 0.7747
O9 O 0.2759(11) 0.23661(12) 0.9687(7)
O10 O 0.2208(9) 0.19626(12) 0.9845(6)
C33 C 0.2446(13) 0.21603(14) 0.9118(9)
C34 C 0.2512(13) 0.21383(16) 0.7439(9)
H31 H 0.2615 0.1981 0.7020
C35 C 0.2432(14) 0.23330(16) 0.6492(10)
H32 H 0.2347 0.2492 0.6901
C36 C 0.2473(14) 0.23049(16) 0.4854(10)
O20 O 0.5890(12) 0.49270(12) 0.5842(7)
C42 C 0.5865(12) 0.48791(16) 0.8994(10)
H35 H 0.5819 0.5037 0.8565
C43 C 0.5840(13) 0.46864(15) 0.8095(9)
H36 H 0.5815 0.4529 0.8524
C44 C 0.5849(13) 0.47094(17) 0.6424(10)
O25 O 0.1805(10) 0.99326(15) 0.6359(10)
O30 O 0.4110(12) 0.99270(12) 0.4158(7)
H35_2 H 0.4181 0.0037 0.1435
C2_2 C 0.7660(14) 0.79528(15) 0.0845(10)
H1_2 H 0.8730 0.7931 0.0619
H2_2 H 0.7229 0.7790 0.1020
C3_2 C 0.7504(13) 0.81128(14) 0.2368(9)
H3_2 H 0.6516 0.8085 0.2824
H4_2 H 0.8280 0.8064 0.3091
C4_2 C 0.7682(11) 0.83786(14) 0.1978(8)
H5_2 H 0.8689 0.8403 0.1529
C5_2 C 0.6473(10) 0.84693(15) 0.0841(8)
H6_2 H 0.6689 0.8642 0.0561
O1_2 O 0.7605(10) 0.85149(11) 0.3354(6)
H13_2 H 0.7701 0.8663 0.3172
O2_2 O 0.4987(9) 0.84543(13) 0.1478(7)
H14_2 H 0.4950 0.8539 0.2253
O9_2 O 0.7241(11) 0.73661(12) 0.0313(7)
O10_2 O 0.7792(9) 0.69626(12) 0.0155(6)
O11 O 0.7573(10) 0.74973(12) 0.5924(6)
O12 O 0.7529(14) 0.70947(12) 0.5689(7)
C33_2 C 0.7554(13) 0.71603(14) 0.0882(9)
C34_2 C 0.7488(13) 0.71383(16) 0.2561(9)
H31_2 H 0.7385 0.6981 0.2980
C35_2 C 0.7568(14) 0.73330(16) 0.3508(10)
H32_2 H 0.7653 0.7492 0.3099
C36_2 C 0.7527(14) 0.73049(16) 0.5146(10)
O19 O 0.4352(10) 0.95112(12) 0.4333(6)
C42_2 C 0.4135(12) 0.98791(16) 0.1006(10)
C43_2 C 0.4160(13) 0.96864(15) 0.1905(9)
H36_2 H 0.4185 0.9529 0.1476
C44_2 C 0.4151(13) 0.97094(17) 0.3576(10)
Zn6 Zn 0.73435(16) 0.753511(15) 0.82303(9)
Zn8 Zn 0.77244(17) 0.697880(15) 0.78812(9)
Zn10 Zn 0.43161(13) 0.951517(14) 0.66286(9)
N1_2 N 0.6858(11) 0.79088(11) 0.8293(7)
N2_2 N 0.4739(9) 0.91544(12) 0.7077(7)
C1_2 C 0.6915(10) 0.80632(13) 0.9525(8)
C6_2 C 0.6452(10) 0.83098(12) 0.9417(7)
C7_2 C 0.5891(11) 0.84006(13) 0.8045(9)
C8_2 C 0.5802(12) 0.82362(15) 0.6817(9)
H7_2 H 0.5442 0.8291 0.5882
C9_2 C 0.6250(14) 0.79929(14) 0.6996(9)
H8_2 H 0.6127 0.7883 0.6189
C10_2 C 0.5725(13) 0.90249(15) 0.6195(9)
H9_2 H 0.6150 0.9103 0.5356
C11_2 C 0.6120(13) 0.87832(16) 0.6492(9)
H10_2 H 0.6810 0.8701 0.5871
C12_2 C 0.5468(11) 0.86604(13) 0.7752(8)
C13_2 C 0.4464(12) 0.87931(15) 0.8628(10)
H11_2 H 0.3993 0.8718 0.9453
C14_2 C 0.4155(13) 0.90376(16) 0.8280(10)
H12_2 H 0.3507 0.9126 0.8917
N3_2 N 0.7728(11) 0.66084(13) 0.7227(8)
N4_2 N 0.6443(10) 0.54165(11) 0.4328(7)
C15_2 C 0.8874(12) 0.64494(17) 0.7341(12)
H15_2 H 0.9970 0.6494 0.9292
H20_2 H 0.9911 0.5888 0.6472
C20_2 C 0.8737(12) 0.62153(17) 0.6727(13)
C21_2 C 0.7440(12) 0.61416(14) 0.6004(9)
C22_2 C 0.6242(17) 0.6305(2) 0.5925(19)
H21_2 H 0.5296 0.6255 0.5560
C23_2 C 0.6507(19) 0.6550(2) 0.642(2)
H22_2 H 0.5808 0.6673 0.6178
C24_2 C 0.581(2) 0.5504(2) 0.5579(15)
H23_2 H 0.5301 0.5393 0.6205
C25_2 C 0.5863(17) 0.5754(2) 0.6021(13)
H24_2 H 0.5138 0.5829 0.6638
C26_2 C 0.7170(12) 0.58830(14) 0.5412(9)
C27_2 C 0.7833(12) 0.57943(17) 0.4136(11)
H25_2 H 0.8598 0.5884 0.3654
C28_2 C 0.7342(14) 0.55637(17) 0.3548(12)
H26_2 H 0.7662 0.5515 0.2587
O5_2 O 0.5176(12) 0.74364(12) 0.7930(8)
O6_2 O 0.5391(11) 0.70194(13) 0.8070(8)
C29_2 C 0.4610(15) 0.72160(16) 0.8019(11)
C30_2 C 0.2987(16) 0.7182(2) 0.7991(11)
H29_2 H 0.2597 0.7023 0.7909
C31_2 C 0.2023(16) 0.73737(18) 0.8081(11)
H30_2 H 0.2422 0.7533 0.8136
C32_2 C 0.0365(17) 0.7344(2) 0.8096(12)
O13_2 O 0.2032(10) 0.95298(14) 0.6526(11)
C37_2 C 0.1334(13) 0.97205(17) 0.6418(10)
O17_2 O 0.4182(12) 0.96478(14) 0.8771(7)
C41_2 C 0.4034(12) 0.98574(17) 0.9305(9)
O21 O 0.9580(10) 0.75418(12) 0.8430(7)
O22 O 0.9773(14) 0.71371(14) 0.7870(11)
O26 O 0.6481(11) 0.96474(14) 0.6531(11)
H34_2 H 0.9123 0.0038 0.6331
C38_2 C 0.9571(13) 0.96949(18) 0.6430(11)
H33_2 H 0.9147 0.9537 0.6461
C39_2 C 0.8694(13) 0.98811(17) 0.6399(12)
C40_2 C 0.7017(13) 0.98607(19) 0.6465(11)
C16 C 0.9867(16) 0.1535(3) 0.177(2)
H16 H 0.9775 0.1713 0.1856
C17 C 0.8291(16) 0.1400(2) 0.2378(17)
H17 H 0.8071 0.1446 0.3420
H18 H 0.7429 0.1443 0.1741
C18 C 0.8685(14) 0.1127(2) 0.2247(16)
H19 H 0.9051 0.1078 0.1240
C19 C 0.9829(14) 0.1064(2) 0.3583(13)
O3 O 0.7328(14) 0.1007(3) 0.2687(18)
H27 H 0.7445 0.0856 0.2643
O4 O 0.9398(16) 0.1122(2) 0.5126(13)
H28 H 0.8629 0.1044 0.5348
C16_2 C 0.0133(16) 0.6535(3) 0.823(2)
H16_2 H 0.0225 0.6713 0.8144
C17_2 C 0.1709(16) 0.6400(2) 0.7622(17)
H17_2 H 0.1929 0.6446 0.6580
H18_2 H 0.2571 0.6443 0.8259
C18_2 C 0.1315(14) 0.6127(2) 0.7753(16)
H19_2 H 0.0949 0.6078 0.8760
C19_2 C 0.0171(14) 0.6064(2) 0.6417(13)
O3_2 O 0.2672(14) 0.6007(3) 0.7313(18)
H27_2 H 0.2555 0.5856 0.7357
O4_2 O 0.0602(16) 0.6122(2) 0.4874(13)
H28_2 H 0.1371 0.6044 0.4652
loop_
_geom_bond_atom_site_label_1
_geom_bond_atom_site_label_2
_geom_bond_site_symmetry_1
_geom_bond_site_symmetry_2
O15 C40 1_555 1_555
O16 C40 1_555 1_555
H33 C38 1_555 1_555
C39 C38 1_555 1_555
H34 C39 1_555 1_555
C40 C39 1_555 1_555
Zn5 O7 1_555 1_555
Zn7 O8 1_555 1_555
Zn9 O15 1_555 1_555
Zn12 O16 1_555 1_555
Zn5 N1 1_555 1_555
Zn7 N3 1_555 1_555
Zn9 N2 1_555 1_555
Zn4 N4 1_555 1_555
N1 C1 1_555 1_555
N2 C10 1_555 1_555
C6 C1 1_555 1_555
C7 C6 1_555 1_555
C8 C7 1_555 1_555
H7 C8 1_555 1_555
C9 N1 1_555 1_555
H8 C9 1_555 1_555
C10 H9 1_555 1_555
C11 C10 1_555 1_555
H10 C11 1_555 1_555
C12 C7 1_555 1_555
C13 C12 1_555 1_555
H11 C13 1_555 1_555
C14 N2 1_555 1_555
H12 C14 1_555 1_555
N3 C15 1_555 1_555
N4 C24 1_555 1_555
C20 C15 1_555 1_555
C21 C20 1_555 1_555
C22 C21 1_555 1_555
H21 C22 1_555 1_555
C23 N3 1_555 1_555
H22 C23 1_555 1_555
C24 H23 1_555 1_555
C25 C24 1_555 1_555
H24 C25 1_555 1_555
C26 C21 1_555 1_555
C27 C26 1_555 1_555
H25 C27 1_555 1_555
C28 N4 1_555 1_555
H26 C28 1_555 1_555
O5 Zn5 1_555 1_555
O6 Zn7 1_555 1_555
C29 O5 1_555 1_555
C30 C29 1_555 1_555
H29 C30 1_555 1_555
C31 C30 1_555 1_555
H30 C31 1_555 1_555
C32 C31 1_555 1_555
O13 Zn9 1_555 1_555
O14 C37 1_555 1_555
C37 O13 1_555 1_555
O17 Zn9 1_555 1_555
O18 C41 1_555 1_555
C41 O17 1_555 1_555
Zn12 O14 1_555 1_555
O23 Zn5 1_555 1_555
O24 Zn7 1_555 1_555
O27 Zn4 1_555 1_555
O28 Zn4 1_555 1_555
O29 Zn9 1_555 1_555
C8 C9 1_555 1_555
C11 C12 1_555 1_555
C13 C14 1_555 1_555
C22 C23 1_555 1_555
C25 C26 1_555 1_555
C27 C28 1_555 1_555
O6 C29 1_555 1_555
O18 Zn12 1_555 1_555
C2 H1 1_555 1_555
H2 C2 1_555 1_555
C3 C2 1_555 1_555
H3 C3 1_555 1_555
H4 C3 1_555 1_555
C4 C3 1_555 1_555
H5 C4 1_555 1_555
C5 C4 1_555 1_555
H6 C5 1_555 1_555
O1 C4 1_555 1_555
H13 O1 1_555 1_555
O2 C5 1_555 1_555
H14 O2 1_555 1_555
O23 C36 1_555 1_555
O24 C36 1_555 1_555
C33 O9 1_555 1_555
C34 C33 1_555 1_555
H31 C34 1_555 1_555
C35 C34 1_555 1_555
H32 C35 1_555 1_555
C36 C35 1_555 1_555
O29 C44 1_555 1_555
O20 C44 1_555 1_555
H35 C42 1_555 1_555
C43 C42 1_555 1_555
H36 C43 1_555 1_555
C44 C43 1_555 1_555
Zn12 O20 1_555 1_555
O10 C33 1_555 1_555
C2_2 H1_2 1_555 1_555
H2_2 C2_2 1_555 1_555
C3_2 C2_2 1_555 1_555
H3_2 C3_2 1_555 1_555
H4_2 C3_2 1_555 1_555
C4_2 C3_2 1_555 1_555
H5_2 C4_2 1_555 1_555
C5_2 C4_2 1_555 1_555
H6_2 C5_2 1_555 1_555
O1_2 C4_2 1_555 1_555
H13_2 O1_2 1_555 1_555
O2_2 C5_2 1_555 1_555
H14_2 O2_2 1_555 1_555
O11 C36_2 1_555 1_555
O12 C36_2 1_555 1_555
C33_2 O9_2 1_555 1_555
C34_2 C33_2 1_555 1_555
H31_2 C34_2 1_555 1_555
C35_2 C34_2 1_555 1_555
H32_2 C35_2 1_555 1_555
C36_2 C35_2 1_555 1_555
O19 C44_2 1_555 1_555
O30 C44_2 1_555 1_555
C43_2 C42_2 1_555 1_555
H36_2 C43_2 1_555 1_555
C44_2 C43_2 1_555 1_555
Zn6 O11 1_555 1_555
Zn8 O12 1_555 1_555
Zn10 O19 1_555 1_555
O10_2 C33_2 1_555 1_555
Zn6 N1_2 1_555 1_555
Zn8 N3_2 1_555 1_555
Zn10 N2_2 1_555 1_555
Zn12 N4_2 1_555 1_555
N1_2 C1_2 1_555 1_555
N2_2 C10_2 1_555 1_555
C6_2 C1_2 1_555 1_555
C7_2 C6_2 1_555 1_555
C8_2 C7_2 1_555 1_555
H7_2 C8_2 1_555 1_555
C9_2 N1_2 1_555 1_555
H8_2 C9_2 1_555 1_555
C10_2 H9_2 1_555 1_555
C11_2 C10_2 1_555 1_555
H10_2 C11_2 1_555 1_555
C12_2 C7_2 1_555 1_555
C13_2 C12_2 1_555 1_555
H11_2 C13_2 1_555 1_555
C14_2 N2_2 1_555 1_555
H12_2 C14_2 1_555 1_555
N3_2 C15_2 1_555 1_555
N4_2 C24_2 1_555 1_555
C20_2 C15_2 1_555 1_555
C21_2 C20_2 1_555 1_555
C22_2 C21_2 1_555 1_555
H21_2 C22_2 1_555 1_555
C23_2 N3_2 1_555 1_555
H22_2 C23_2 1_555 1_555
C24_2 H23_2 1_555 1_555
C25_2 C24_2 1_555 1_555
H24_2 C25_2 1_555 1_555
C26_2 C21_2 1_555 1_555
C27_2 C26_2 1_555 1_555
H25_2 C27_2 1_555 1_555
C28_2 N4_2 1_555 1_555
H26_2 C28_2 1_555 1_555
O5_2 Zn6 1_555 1_555
O6_2 Zn8 1_555 1_555
C29_2 O5_2 1_555 1_555
C30_2 C29_2 1_555 1_555
H29_2 C30_2 1_555 1_555
C31_2 C30_2 1_555 1_555
H30_2 C31_2 1_555 1_555
C32_2 C31_2 1_555 1_555
O13_2 Zn10 1_555 1_555
O25 C37_2 1_555 1_555
C37_2 O13_2 1_555 1_555
O17_2 Zn10 1_555 1_555
C41_2 O17_2 1_555 1_555
O21 Zn6 1_555 1_555
O22 Zn8 1_555 1_555
O26 Zn10 1_555 1_555
C8_2 C9_2 1_555 1_555
C11_2 C12_2 1_555 1_555
C13_2 C14_2 1_555 1_555
C22_2 C23_2 1_555 1_555
C25_2 C26_2 1_555 1_555
C27_2 C28_2 1_555 1_555
O6_2 C29_2 1_555 1_555
O26 C40_2 1_555 1_555
H33_2 C38_2 1_555 1_555
C39_2 C38_2 1_555 1_555
C40_2 C39_2 1_555 1_555
H16 C16 1_555 1_555
C17 C16 1_555 1_555
H17 C17 1_555 1_555
H18 C17 1_555 1_555
C18 C17 1_555 1_555
H19 C18 1_555 1_555
C19 C18 1_555 1_555
O3 C18 1_555 1_555
H27 O3 1_555 1_555
O4 C19 1_555 1_555
H28 O4 1_555 1_555
H16_2 C16_2 1_555 1_555
C17_2 C16_2 1_555 1_555
H17_2 C17_2 1_555 1_555
H18_2 C17_2 1_555 1_555
C18_2 C17_2 1_555 1_555
H19_2 C18_2 1_555 1_555
C19_2 C18_2 1_555 1_555
O3_2 C18_2 1_555 1_555
H27_2 O3_2 1_555 1_555
O4_2 C19_2 1_555 1_555
H28_2 O4_2 1_555 1_555

#END
