
###############################################################################
#
# This file contains modified crystal structure data generated from the
# MOF subset of the Cambridge Structural Database (CSD) v543 
# hosted by the Cambridge Crystallographic Data Centre (CCDC).
#
# This work is licensed under the Creative Commons
# Attribution-NonCommercial-ShareAlike 4.0 International License.
# To view a copy of this license, visit
# http://creativecommons.org/licenses/by-nc-sa/4.0/
# or send a letter to
# Creative Commons, PO Box 1866, Mountain View, CA 94042, USA.
#
# CIF created using the CSD Python API on 29 September 2022
# The structure has been converted into the P1 space group
# The structure has a 3D framework
# The original CSD entry QOMGEG is in the orthorhombic crystal system
# The framework has been calculated to contain at least 10.0% void space
# The void calculation uses a probe of radius 1.32A, grid spacing 0.4
# The framework is charged, counterions have been retained in the structure
#
###############################################################################

data_QOMGEG
_chemical_formula_moiety         '(C78 H50 N12 O16 Zn1 2+)n'
_symmetry_cell_setting           triclinic
_symmetry_space_group_name_H-M   'P 1'
_symmetry_Int_Tables_number      1
_space_group_name_Hall           'P 1'
loop_
_symmetry_equiv_pos_site_id
_symmetry_equiv_pos_as_xyz
1 x,y,z
_cell_length_a                   29.177(5)
_cell_length_b                   10.248(5)
_cell_length_c                   11.658(5)
_cell_angle_alpha                90
_cell_angle_beta                 90
_cell_angle_gamma                90
_cell_volume                     3485.81
loop_
_atom_site_label
_atom_site_type_symbol
_atom_site_fract_x
_atom_site_fract_y
_atom_site_fract_z
O1 O 0.04093(15) 0.1256(4) 0.8926(9)
O2 O 0.10891(12) 0.2124(4) 0.9279(3)
C3 C 0.08405(19) 0.1186(5) 0.9198(5)
H9 H 0.1675 0.0541 0.9914
O5 O 0.45907(15) 0.1256(4) 0.8926(9)
C21 C 0.41595(19) 0.1186(5) 0.9198(5)
H16 H 0.3325 0.0541 0.9914
O8 O 0.39109(12) 0.2124(4) 0.9279(3)
Zn4 Zn 0.045734(15) 0.35743(4) 0.90053(7)
Zn7 Zn 0.454266(15) 0.35743(4) 0.90053(7)
N1 N 0.04305(16) 0.3614(5) 0.0997(6)
N2 N 0.0414(3) 0.3681(8) 0.7061(9)
C1 C 0.04042(19) 0.3544(5) 0.4653(6)
C2 C 0.0440(3) 0.3734(10) 0.3382(10)
C4 C 0.0152(2) 0.2924(8) 0.6460(6)
C5 C 0.00197(19) 0.3315(5) 0.2744(5)
C6 C 0.0804(2) 0.3898(6) 0.2746(5)
H3 H 0.1089 0.4042 0.3120
C7 C 0.0142(3) 0.2840(7) 0.5302(5)
C8 C 0.0724(2) 0.4393(7) 0.6424(6)
H5 H 0.0956 0.4867 0.6817
C9 C 0.0011(2) 0.3345(5) 0.1595(5)
N3 N 0.21277(18) 0.8380(5) 0.0416(5)
C13 C 0.1674(3) 0.8559(7) 0.0006(8)
C16 C 0.0798(2) 0.3875(6) 0.1560(5)
H10 H 0.1073 0.4056 0.1151
C17 C 0.0713(3) 0.4447(7) 0.5284(6)
H11 H 0.0900 0.5052 0.4880
C19 C 0.2275(3) 0.7662(8) 0.1340(7)
H13 H 0.2085 0.7239 0.1886
N4 N 0.28723(18) 0.8380(5) 0.0416(5)
C25 C 0.3326(3) 0.8559(7) 0.0006(8)
C28 C 0.2725(3) 0.7662(8) 0.1340(7)
H17 H 0.2915 0.7239 0.1886
H18 H 0.0052 0.7624 0.6872
H19 H 0.0242 0.6973 0.3155
H21 H 0.0065 0.7756 0.4952
H23 H 0.0265 0.6807 0.1187
C10 C 0.07907(19) 0.8749(5) 0.9168(6)
H7 H 0.0487 0.8802 0.8875
C11 C 0.1430(2) 0.7383(7) 0.9789(6)
H8 H 0.1563 0.6552 0.9929
C12 C 0.10005(19) 0.7506(5) 0.9375(5)
C14 C 0.1036(2) 0.9866(7) 0.9400(6)
C15 C 0.1496(2) 0.9779(6) 0.9797(5)
C18 C 0.2500 0.8882(8) 0.9789(9)
H12 H 0.2500 0.9415 0.9123
O3 O 0.09753(12) 0.5225(3) 0.8821(3)
C20 C 0.07320(16) 0.6222(5) 0.9180(5)
O4 O 0.03205(14) 0.6259(4) 0.8812(4)
C22 C 0.42093(19) 0.8749(5) 0.9168(6)
H14 H 0.4513 0.8802 0.8875
C23 C 0.3570(2) 0.7383(7) 0.9789(6)
H15 H 0.3437 0.6552 0.9929
C24 C 0.39995(19) 0.7506(5) 0.9375(5)
C26 C 0.3964(2) 0.9866(7) 0.9400(6)
C27 C 0.3504(2) 0.9779(6) 0.9797(5)
O6 O 0.40247(12) 0.5225(3) 0.8821(3)
C29 C 0.42680(16) 0.6222(5) 0.9180(5)
O7 O 0.46795(14) 0.6259(4) 0.8812(4)
Zn8 Zn 0.545734(15) 0.64257(4) 0.90053(7)
H1 H 0.9948 0.2376 0.6872
H2 H 0.9758 0.3027 0.3155
H4 H 0.9935 0.2244 0.4952
H6 H 0.9735 0.3193 0.1187
N5 N 0.95695(16) 0.6386(5) 0.0997(6)
N6 N 0.9586(3) 0.6319(8) 0.7061(9)
C30 C 0.95958(19) 0.6456(5) 0.4653(6)
C31 C 0.9560(3) 0.6266(10) 0.3382(10)
C32 C 0.9848(2) 0.7076(8) 0.6460(6)
C33 C 0.99803(19) 0.6685(5) 0.2744(5)
C34 C 0.9196(2) 0.6102(6) 0.2746(5)
H20 H 0.8911 0.5958 0.3120
C35 C 0.9858(3) 0.7160(7) 0.5302(5)
C36 C 0.9276(2) 0.5607(7) 0.6424(6)
H22 H 0.9044 0.5133 0.6817
C37 C 0.9989(2) 0.6655(5) 0.1595(5)
C38 C 0.9202(2) 0.6125(6) 0.1560(5)
H24 H 0.8927 0.5944 0.1151
C39 C 0.9287(3) 0.5553(7) 0.5284(6)
H25 H 0.9100 0.4948 0.4880
Zn5 Zn 0.954266(15) 0.64257(4) 0.90053(7)
O10 O 0.95907(15) 0.8744(4) 0.8926(9)
O12 O 0.89109(12) 0.7876(4) 0.9279(3)
O13 O 0.90247(12) 0.4775(3) 0.8821(3)
O14 O 0.96795(14) 0.3741(4) 0.8812(4)
N3_2 N 0.78723(18) 0.1620(5) 0.0416(5)
C13_2 C 0.8326(3) 0.1441(7) 0.0006(8)
C19_2 C 0.7725(3) 0.2338(8) 0.1340(7)
H13_2 H 0.7915 0.2761 0.1886
N4_2 N 0.71277(18) 0.1620(5) 0.0416(5)
C25_2 C 0.6674(3) 0.1441(7) 0.0006(8)
C28_2 C 0.7275(3) 0.2338(8) 0.1340(7)
H17_2 H 0.7085 0.2761 0.1886
C10_2 C 0.92093(19) 0.1251(5) 0.9168(6)
H7_2 H 0.9513 0.1198 0.8875
C11_2 C 0.8570(2) 0.2617(7) 0.9789(6)
H8_2 H 0.8437 0.3448 0.9929
C12_2 C 0.89995(19) 0.2494(5) 0.9375(5)
C14_2 C 0.8964(2) 0.0134(7) 0.9400(6)
C15_2 C 0.8504(2) 0.0221(6) 0.9797(5)
C18_2 C 0.7500 0.1118(8) 0.9789(9)
H12_2 H 0.7500 0.0585 0.9123
C20_2 C 0.92680(16) 0.3778(5) 0.9180(5)
C22_2 C 0.57907(19) 0.1251(5) 0.9168(6)
H14_2 H 0.5487 0.1198 0.8875
C23_2 C 0.6430(2) 0.2617(7) 0.9789(6)
H15_2 H 0.6563 0.3448 0.9929
C24_2 C 0.60005(19) 0.2494(5) 0.9375(5)
C26_2 C 0.6036(2) 0.0134(7) 0.9400(6)
C27_2 C 0.6496(2) 0.0221(6) 0.9797(5)
O6_2 O 0.59753(12) 0.4775(3) 0.8821(3)
C29_2 C 0.57320(16) 0.3778(5) 0.9180(5)
O7_2 O 0.53205(14) 0.3741(4) 0.8812(4)
C3_2 C 0.91595(19) 0.8814(5) 0.9198(5)
H9_2 H 0.8325 0.9459 0.9914
O5_2 O 0.54093(15) 0.8744(4) 0.8926(9)
C21_2 C 0.58405(19) 0.8814(5) 0.9198(5)
H16_2 H 0.6675 0.9459 0.9914
O8_2 O 0.60891(12) 0.7876(4) 0.9279(3)
N1_2 N 0.45695(16) 0.3614(5) 0.0997(6)
N2_2 N 0.4586(3) 0.3681(8) 0.7061(9)
C1_2 C 0.45958(19) 0.3544(5) 0.4653(6)
C2_2 C 0.4560(3) 0.3734(10) 0.3382(10)
C4_2 C 0.4848(2) 0.2924(8) 0.6460(6)
H1_2 H 0.5052 0.2376 0.6872
C5_2 C 0.49803(19) 0.3315(5) 0.2744(5)
H2_2 H 0.5242 0.3027 0.3155
C6_2 C 0.4196(2) 0.3898(6) 0.2746(5)
H3_2 H 0.3911 0.4042 0.3120
C7_2 C 0.4858(3) 0.2840(7) 0.5302(5)
H4_2 H 0.5065 0.2244 0.4952
C8_2 C 0.4276(2) 0.4393(7) 0.6424(6)
H5_2 H 0.4044 0.4867 0.6817
C9_2 C 0.4989(2) 0.3345(5) 0.1595(5)
H6_2 H 0.5265 0.3193 0.1187
C16_2 C 0.4202(2) 0.3875(6) 0.1560(5)
H10_2 H 0.3927 0.4056 0.1151
C17_2 C 0.4287(3) 0.4447(7) 0.5284(6)
H11_2 H 0.4100 0.5052 0.4880
N5_2 N 0.54305(16) 0.6386(5) 0.0997(6)
N6_2 N 0.5414(3) 0.6319(8) 0.7061(9)
C30_2 C 0.54042(19) 0.6456(5) 0.4653(6)
C31_2 C 0.5440(3) 0.6266(10) 0.3382(10)
C32_2 C 0.5152(2) 0.7076(8) 0.6460(6)
H18_2 H 0.4948 0.7624 0.6872
C33_2 C 0.50197(19) 0.6685(5) 0.2744(5)
H19_2 H 0.4758 0.6973 0.3155
C34_2 C 0.5804(2) 0.6102(6) 0.2746(5)
H20_2 H 0.6089 0.5958 0.3120
C35_2 C 0.5142(3) 0.7160(7) 0.5302(5)
H21_2 H 0.4935 0.7756 0.4952
C36_2 C 0.5724(2) 0.5607(7) 0.6424(6)
H22_2 H 0.5956 0.5133 0.6817
C37_2 C 0.5011(2) 0.6655(5) 0.1595(5)
H23_2 H 0.4735 0.6807 0.1187
C38_2 C 0.5798(2) 0.6125(6) 0.1560(5)
H24_2 H 0.6073 0.5944 0.1151
C39_2 C 0.5713(3) 0.5553(7) 0.5284(6)
H25_2 H 0.5900 0.4948 0.4880
loop_
_geom_bond_atom_site_label_1
_geom_bond_atom_site_label_2
_geom_bond_site_symmetry_1
_geom_bond_site_symmetry_2
O1 C3 1_555 1_555
O2 C3 1_555 1_555
O5 C21 1_555 1_555
O8 C21 1_555 1_555
Zn4 O1 1_555 1_555
Zn7 O5 1_555 1_555
O2 Zn4 1_555 1_555
O8 Zn7 1_555 1_555
N1 C9 1_555 1_555
N2 C4 1_555 1_555
C1 C2 1_555 1_555
C2 C5 1_555 1_555
C6 C2 1_555 1_555
H3 C6 1_555 1_555
C7 C1 1_555 1_555
C8 N2 1_555 1_555
H5 C8 1_555 1_555
C9 C5 1_555 1_555
N3 C13 1_555 1_555
C16 N1 1_555 1_555
H10 C16 1_555 1_555
C17 C1 1_555 1_555
H11 C17 1_555 1_555
C19 N3 1_555 1_555
H13 C19 1_555 1_555
C28 C19 1_555 1_555
H17 C28 1_555 1_555
Zn4 N2 1_555 1_555
C4 C7 1_555 1_555
C6 C16 1_555 1_555
C8 C17 1_555 1_555
N4 C25 1_555 1_555
N4 C28 1_555 1_555
C10 H7 1_555 1_555
C11 H8 1_555 1_555
C12 C10 1_555 1_555
C14 C10 1_555 1_555
H12 C18 1_555 1_555
O3 Zn4 1_555 1_555
C20 C12 1_555 1_555
O4 C20 1_555 1_555
C22 H14 1_555 1_555
C23 H15 1_555 1_555
C24 C22 1_555 1_555
C26 C22 1_555 1_555
O6 C29 1_555 1_555
C29 C24 1_555 1_555
O7 C29 1_555 1_555
Zn7 O6 1_555 1_555
Zn8 O7 1_555 1_555
C11 C12 1_555 1_555
C14 C15 1_555 1_555
O3 C20 1_555 1_555
C23 C24 1_555 1_555
C26 C27 1_555 1_555
N6 C32 1_555 1_555
C30 C31 1_555 1_555
C31 C33 1_555 1_555
C34 C31 1_555 1_555
H20 C34 1_555 1_555
C35 C30 1_555 1_555
C36 N6 1_555 1_555
H22 C36 1_555 1_555
C37 N5 1_555 1_555
C38 N5 1_555 1_555
H24 C38 1_555 1_555
C39 C30 1_555 1_555
H25 C39 1_555 1_555
Zn5 N6 1_555 1_555
C32 C35 1_555 1_555
C33 C37 1_555 1_555
C34 C38 1_555 1_555
C36 C39 1_555 1_555
O10 Zn5 1_555 1_555
O12 Zn5 1_555 1_555
O13 Zn5 1_555 1_555
N3_2 C13_2 1_555 1_555
C19_2 N3_2 1_555 1_555
H13_2 C19_2 1_555 1_555
C28_2 C19_2 1_555 1_555
H17_2 C28_2 1_555 1_555
N4_2 C25_2 1_555 1_555
N4_2 C28_2 1_555 1_555
C10_2 H7_2 1_555 1_555
C11_2 H8_2 1_555 1_555
C12_2 C10_2 1_555 1_555
C14_2 C10_2 1_555 1_555
H12_2 C18_2 1_555 1_555
C20_2 C12_2 1_555 1_555
O14 C20_2 1_555 1_555
C22_2 H14_2 1_555 1_555
C23_2 H15_2 1_555 1_555
C24_2 C22_2 1_555 1_555
C26_2 C22_2 1_555 1_555
O6_2 C29_2 1_555 1_555
C29_2 C24_2 1_555 1_555
O7_2 C29_2 1_555 1_555
Zn8 O6_2 1_555 1_555
Zn7 O7_2 1_555 1_555
C11_2 C12_2 1_555 1_555
C14_2 C15_2 1_555 1_555
O13 C20_2 1_555 1_555
C23_2 C24_2 1_555 1_555
C26_2 C27_2 1_555 1_555
O10 C3_2 1_555 1_555
O12 C3_2 1_555 1_555
O5_2 C21_2 1_555 1_555
O8_2 C21_2 1_555 1_555
Zn8 O5_2 1_555 1_555
O8_2 Zn8 1_555 1_555
N1_2 C9_2 1_555 1_555
N2_2 C4_2 1_555 1_555
C1_2 C2_2 1_555 1_555
C2_2 C5_2 1_555 1_555
C4_2 H1_2 1_555 1_555
C5_2 H2_2 1_555 1_555
C6_2 C2_2 1_555 1_555
H3_2 C6_2 1_555 1_555
C7_2 C1_2 1_555 1_555
H4_2 C7_2 1_555 1_555
C8_2 N2_2 1_555 1_555
H5_2 C8_2 1_555 1_555
C9_2 C5_2 1_555 1_555
H6_2 C9_2 1_555 1_555
C16_2 N1_2 1_555 1_555
H10_2 C16_2 1_555 1_555
C17_2 C1_2 1_555 1_555
H11_2 C17_2 1_555 1_555
N6_2 C32_2 1_555 1_555
C30_2 C31_2 1_555 1_555
C31_2 C33_2 1_555 1_555
C32_2 H18_2 1_555 1_555
C33_2 H19_2 1_555 1_555
C34_2 C31_2 1_555 1_555
H20_2 C34_2 1_555 1_555
C35_2 C30_2 1_555 1_555
H21_2 C35_2 1_555 1_555
C36_2 N6_2 1_555 1_555
H22_2 C36_2 1_555 1_555
C37_2 N5_2 1_555 1_555
H23_2 C37_2 1_555 1_555
C38_2 N5_2 1_555 1_555
H24_2 C38_2 1_555 1_555
C39_2 C30_2 1_555 1_555
H25_2 C39_2 1_555 1_555
Zn7 N2_2 1_555 1_555
Zn8 N6_2 1_555 1_555
C4_2 C7_2 1_555 1_555
C6_2 C16_2 1_555 1_555
C8_2 C17_2 1_555 1_555
C32_2 C35_2 1_555 1_555
C33_2 C37_2 1_555 1_555
C34_2 C38_2 1_555 1_555
C36_2 C39_2 1_555 1_555

#END
