
###############################################################################
#
# This file contains modified crystal structure data generated from the
# MOF subset of the Cambridge Structural Database (CSD) v543 
# hosted by the Cambridge Crystallographic Data Centre (CCDC).
#
# This work is licensed under the Creative Commons
# Attribution-NonCommercial-ShareAlike 4.0 International License.
# To view a copy of this license, visit
# http://creativecommons.org/licenses/by-nc-sa/4.0/
# or send a letter to
# Creative Commons, PO Box 1866, Mountain View, CA 94042, USA.
#
# CIF created using the CSD Python API on 29 September 2022
# The structure has been converted into the P1 space group
# The structure has a 3D framework
# The original CSD entry QOMSAO is in the monoclinic crystal system
# The framework has been calculated to contain at least 10.0% void space
# The void calculation uses a probe of radius 1.32A, grid spacing 0.4
#
###############################################################################

data_QOMSAO
_chemical_formula_moiety         '(C48 H32 Cu10 N52)n'
_symmetry_cell_setting           triclinic
_symmetry_space_group_name_H-M   'P 1'
_symmetry_Int_Tables_number      1
_space_group_name_Hall           'P 1'
loop_
_symmetry_equiv_pos_site_id
_symmetry_equiv_pos_as_xyz
1 x,y,z
_cell_length_a                   13.5980(8)
_cell_length_b                   15.0950(8)
_cell_length_c                   15.2510(10)
_cell_angle_alpha                90
_cell_angle_beta                 93.613(6)
_cell_angle_gamma                90
_cell_volume                     3124.23
loop_
_atom_site_label
_atom_site_type_symbol
_atom_site_fract_x
_atom_site_fract_y
_atom_site_fract_z
Cu1 Cu 0.0000 -0.0000 0.5000
C1 C 0.3170(5) 0.1585(4) 0.1221(4)
H1 H 0.3391 0.1429 0.0677
C2 C 0.2581(5) 0.0998(4) 0.1639(4)
H2 H 0.2414 0.0456 0.1381
C3 C 0.2241(4) 0.1221(3) 0.2443(3)
C4 C 0.2514(5) 0.2027(4) 0.2794(4)
H3 H 0.2295 0.2202 0.3333
C5 C 0.3107(5) 0.2571(4) 0.2349(4)
H4 H 0.3293 0.3111 0.2601
C6 C 0.1628(4) 0.0619(3) 0.2935(3)
N1 N 0.3436(3) 0.2364(3) 0.1560(3)
N4 N 0.0731(3) 0.0141(3) 0.3898(3)
N5 N 0.1165(3) 0.0869(3) 0.3643(3)
N24 N 0.0520(3) 0.1171(2) 0.5497(3)
N25 N 0.1358(4) 0.1363(3) 0.5551(4)
N26 N 0.2180(4) 0.1567(6) 0.5609(6)
Cu5 Cu 0.44546(4) 0.31385(4) 0.10411(4)
N30 N 0.0452(3) 0.2320(3) 0.6967(3)
Cu1_2 Cu 0.0000 1.0000 0.5000
Cu2 Cu 0.05454(4) 0.81385(4) 0.39589(4)
N2 N 0.1499(3) 0.9764(3) 0.2753(3)
N3 N 0.0922(3) 0.9479(3) 0.3375(3)
C19 C 0.4198(6) 0.8133(4) 0.8070(4)
H13 H 0.4437 0.8500 0.8524
C20 C 0.3496(5) 0.8461(4) 0.7470(4)
H14 H 0.3251 0.9032 0.7529
C21 C 0.3164(4) 0.7934(4) 0.6782(3)
C22 C 0.3549(6) 0.7109(4) 0.6735(4)
H15 H 0.3352 0.6742 0.6267
C23 C 0.4220(5) 0.6814(4) 0.7365(5)
H16 H 0.4459 0.6238 0.7326
C24 C 0.2389(4) 0.8273(3) 0.6135(3)
N19 N 0.4548(3) 0.7320(3) 0.8033(3)
N20 N 0.1921(4) 0.9038(3) 0.6222(3)
N21 N 0.1304(3) 0.9083(3) 0.5518(3)
N22 N 0.1394(3) 0.8352(3) 0.5050(3)
N23 N 0.2091(3) 0.7829(3) 0.5420(3)
Cu7 Cu 0.55454(4) 0.68615(4) 0.89589(4)
N27 N 0.1564(3) 0.7364(3) 0.3440(3)
Cu1_3 Cu 1.0000 -0.0000 0.5000
C7 C 0.5802(6) 0.1867(4) 0.1930(4)
H5 H 0.5563 0.1500 0.1476
C8 C 0.6504(5) 0.1539(4) 0.2530(4)
H6 H 0.6749 0.0968 0.2471
C9 C 0.6836(4) 0.2066(4) 0.3218(3)
C10 C 0.6451(6) 0.2891(4) 0.3265(4)
H7 H 0.6648 0.3258 0.3733
C11 C 0.5780(5) 0.3186(4) 0.2635(5)
H8 H 0.5541 0.3762 0.2674
C12 C 0.7611(4) 0.1727(3) 0.3865(3)
N6 N 0.5452(3) 0.2680(3) 0.1967(3)
N7 N 0.8079(4) 0.0962(3) 0.3778(3)
N8 N 0.8696(3) 0.0917(3) 0.4482(3)
N9 N 0.8606(3) 0.1648(3) 0.4950(3)
N10 N 0.7909(3) 0.2171(3) 0.4580(3)
Cu3 Cu 0.94546(4) 0.18615(4) 0.60411(4)
N15 N 0.8501(3) 0.0236(3) 0.7247(3)
N16 N 0.9078(3) 0.0521(3) 0.6625(3)
N28 N 0.8436(3) 0.2636(3) 0.6560(3)
Cu1_4 Cu 1.0000 1.0000 0.5000
N11 N 0.9480(3) 0.8829(2) 0.4503(3)
N12 N 0.8642(4) 0.8637(3) 0.4449(4)
N13 N 0.7820(4) 0.8433(6) 0.4391(6)
C13 C 0.6830(5) 0.8415(4) 0.8779(4)
H9 H 0.6609 0.8571 0.9323
C14 C 0.7419(5) 0.9002(4) 0.8361(4)
H10 H 0.7586 0.9544 0.8619
C15 C 0.7759(4) 0.8779(3) 0.7557(3)
C16 C 0.7486(5) 0.7973(4) 0.7206(4)
H11 H 0.7705 0.7798 0.6667
C17 C 0.6893(5) 0.7429(4) 0.7651(4)
H12 H 0.6707 0.6889 0.7399
C18 C 0.8372(4) 0.9381(3) 0.7065(3)
N14 N 0.6564(3) 0.7636(3) 0.8440(3)
N17 N 0.9269(3) 0.9859(3) 0.6102(3)
N18 N 0.8835(3) 0.9131(3) 0.6357(3)
N29 N 0.9548(3) 0.7680(3) 0.3033(3)
Cu1_5 Cu 0.5000 0.5000 0.0000
C1_2 C 0.1830(5) 0.6585(4) 0.3779(4)
H1_2 H 0.1609 0.6429 0.4323
C2_2 C 0.2419(5) 0.5998(4) 0.3361(4)
H2_2 H 0.2586 0.5456 0.3619
C3_2 C 0.2759(4) 0.6221(3) 0.2557(3)
C4_2 C 0.2486(5) 0.7027(4) 0.2206(4)
H3_2 H 0.2705 0.7202 0.1667
C5_2 C 0.1893(5) 0.7571(4) 0.2651(4)
H4_2 H 0.1707 0.8111 0.2399
C6_2 C 0.3372(4) 0.5619(3) 0.2065(3)
C7_2 C 0.9198(6) 0.6867(4) 0.3070(4)
H5_2 H 0.9437 0.6500 0.3524
C8_2 C 0.8496(5) 0.6539(4) 0.2470(4)
H6_2 H 0.8251 0.5968 0.2529
C9_2 C 0.8164(4) 0.7066(4) 0.1782(3)
C10_2 C 0.8549(6) 0.7891(4) 0.1735(4)
H7_2 H 0.8352 0.8258 0.1267
C11_2 C 0.9220(5) 0.8186(4) 0.2365(5)
H8_2 H 0.9459 0.8762 0.2326
C12_2 C 0.7389(4) 0.6727(3) 0.1135(3)
N2_2 N 0.3501(3) 0.4764(3) 0.2247(3)
N3_2 N 0.4078(3) 0.4479(3) 0.1625(3)
N4_2 N 0.4269(3) 0.5141(3) 0.1102(3)
N5_2 N 0.3835(3) 0.5869(3) 0.1357(3)
N7_2 N 0.6921(4) 0.5962(3) 0.1222(3)
N8_2 N 0.6304(3) 0.5917(3) 0.0518(3)
N9_2 N 0.6394(3) 0.6648(3) 0.0050(3)
N10_2 N 0.7091(3) 0.7171(3) 0.0420(3)
N11_2 N 0.5520(3) 0.3829(2) 0.0497(3)
N12_2 N 0.6358(4) 0.3637(3) 0.0551(4)
N13_2 N 0.7180(4) 0.3433(6) 0.0609(6)
Cu1_6 Cu 0.5000 0.5000 1.0000
C13_2 C 0.8170(5) 0.3415(4) 0.6221(4)
H9_2 H 0.8391 0.3571 0.5677
C14_2 C 0.7581(5) 0.4002(4) 0.6639(4)
H10_2 H 0.7414 0.4544 0.6381
C15_2 C 0.7241(4) 0.3779(3) 0.7443(3)
C16_2 C 0.7514(5) 0.2973(4) 0.7794(4)
H11_2 H 0.7295 0.2798 0.8333
C17_2 C 0.8107(5) 0.2429(4) 0.7349(4)
H12_2 H 0.8293 0.1889 0.7601
C18_2 C 0.6628(4) 0.4381(3) 0.7935(3)
C19_2 C 0.0802(6) 0.3133(4) 0.6930(4)
H13_2 H 0.0563 0.3500 0.6476
C20_2 C 0.1504(5) 0.3461(4) 0.7530(4)
H14_2 H 0.1749 0.4032 0.7471
C21_2 C 0.1836(4) 0.2934(4) 0.8218(3)
C22_2 C 0.1451(6) 0.2109(4) 0.8265(4)
H15_2 H 0.1648 0.1742 0.8733
C23_2 C 0.0780(5) 0.1814(4) 0.7635(5)
H16_2 H 0.0541 0.1238 0.7674
C24_2 C 0.2611(4) 0.3273(3) 0.8865(3)
N15_2 N 0.6499(3) 0.5236(3) 0.7753(3)
N16_2 N 0.5922(3) 0.5521(3) 0.8375(3)
N17_2 N 0.5731(3) 0.4859(3) 0.8898(3)
N18_2 N 0.6165(3) 0.4131(3) 0.8643(3)
N20_2 N 0.3079(4) 0.4038(3) 0.8778(3)
N21_2 N 0.3696(3) 0.4083(3) 0.9482(3)
N22_2 N 0.3606(3) 0.3352(3) 0.9950(3)
N23_2 N 0.2909(3) 0.2829(3) 0.9580(3)
N24_2 N 0.4480(3) 0.6171(2) 0.9503(3)
N25_2 N 0.3642(4) 0.6363(3) 0.9449(4)
N26_2 N 0.2820(4) 0.6567(6) 0.9391(6)
loop_
_geom_bond_atom_site_label_1
_geom_bond_atom_site_label_2
_geom_bond_site_symmetry_1
_geom_bond_site_symmetry_2
Cu1 N4 1_555 1_555
C1 H1 1_555 1_555
C2 C1 1_555 1_555
H2 C2 1_555 1_555
C3 C2 1_555 1_555
C4 C3 1_555 1_555
H3 C4 1_555 1_555
C5 C4 1_555 1_555
H4 C5 1_555 1_555
C6 C3 1_555 1_555
N1 C1 1_555 1_555
N5 C6 1_555 1_555
N24 Cu1 1_555 1_555
N25 N24 1_555 1_555
N26 N25 1_555 1_555
Cu5 N1 1_555 1_555
C5 N1 1_555 1_555
N4 N5 1_555 1_555
Cu2 N3 1_555 1_555
N3 N2 1_555 1_555
C19 H13 1_555 1_555
C20 C19 1_555 1_555
H14 C20 1_555 1_555
C21 C20 1_555 1_555
C22 C21 1_555 1_555
H15 C22 1_555 1_555
C23 C22 1_555 1_555
H16 C23 1_555 1_555
C24 C21 1_555 1_555
N19 C19 1_555 1_555
N20 C24 1_555 1_555
N21 Cu1_2 1_555 1_555
N22 Cu2 1_555 1_555
N23 C24 1_555 1_555
Cu7 N19 1_555 1_555
N27 Cu2 1_555 1_555
C23 N19 1_555 1_555
N20 N21 1_555 1_555
N21 N22 1_555 1_555
N22 N23 1_555 1_555
C7 H5 1_555 1_555
C8 C7 1_555 1_555
H6 C8 1_555 1_555
C9 C8 1_555 1_555
C10 C9 1_555 1_555
H7 C10 1_555 1_555
C11 C10 1_555 1_555
H8 C11 1_555 1_555
C12 C9 1_555 1_555
N6 C7 1_555 1_555
N7 C12 1_555 1_555
N8 Cu1_3 1_555 1_555
N9 N8 1_555 1_555
N10 C12 1_555 1_555
Cu3 N9 1_555 1_555
N16 Cu3 1_555 1_555
Cu5 N6 1_555 1_555
N28 Cu3 1_555 1_555
C11 N6 1_555 1_555
N7 N8 1_555 1_555
N9 N10 1_555 1_555
N15 N16 1_555 1_555
N11 Cu1_4 1_555 1_555
N12 N11 1_555 1_555
N13 N12 1_555 1_555
C13 H9 1_555 1_555
C14 C13 1_555 1_555
H10 C14 1_555 1_555
C15 C14 1_555 1_555
C16 C15 1_555 1_555
H11 C16 1_555 1_555
C17 C16 1_555 1_555
H12 C17 1_555 1_555
C18 C15 1_555 1_555
N14 C13 1_555 1_555
N17 Cu1_4 1_555 1_555
N18 C18 1_555 1_555
Cu7 N14 1_555 1_555
C17 N14 1_555 1_555
N17 N18 1_555 1_555
Cu1_5 N4_2 1_555 1_555
Cu5 N3_2 1_555 1_555
C1_2 H1_2 1_555 1_555
C2_2 C1_2 1_555 1_555
H2_2 C2_2 1_555 1_555
C3_2 C2_2 1_555 1_555
C4_2 C3_2 1_555 1_555
H3_2 C4_2 1_555 1_555
C5_2 C4_2 1_555 1_555
H4_2 C5_2 1_555 1_555
C6_2 C3_2 1_555 1_555
C7_2 H5_2 1_555 1_555
C8_2 C7_2 1_555 1_555
H6_2 C8_2 1_555 1_555
C9_2 C8_2 1_555 1_555
C10_2 C9_2 1_555 1_555
H7_2 C10_2 1_555 1_555
C11_2 C10_2 1_555 1_555
H8_2 C11_2 1_555 1_555
C12_2 C9_2 1_555 1_555
N27 C1_2 1_555 1_555
N2_2 C6_2 1_555 1_555
N3_2 N2_2 1_555 1_555
N4_2 N3_2 1_555 1_555
N5_2 C6_2 1_555 1_555
N29 C7_2 1_555 1_555
N7_2 C12_2 1_555 1_555
N8_2 Cu1_5 1_555 1_555
N9_2 N8_2 1_555 1_555
N10_2 C12_2 1_555 1_555
N11_2 Cu1_5 1_555 1_555
N12_2 N11_2 1_555 1_555
N13_2 N12_2 1_555 1_555
Cu5 N11_2 1_555 1_555
C5_2 N27 1_555 1_555
C11_2 N29 1_555 1_555
N4_2 N5_2 1_555 1_555
N7_2 N8_2 1_555 1_555
N9_2 N10_2 1_555 1_555
C13_2 H9_2 1_555 1_555
C14_2 C13_2 1_555 1_555
H10_2 C14_2 1_555 1_555
C15_2 C14_2 1_555 1_555
C16_2 C15_2 1_555 1_555
H11_2 C16_2 1_555 1_555
C17_2 C16_2 1_555 1_555
H12_2 C17_2 1_555 1_555
C18_2 C15_2 1_555 1_555
C19_2 H13_2 1_555 1_555
C20_2 C19_2 1_555 1_555
H14_2 C20_2 1_555 1_555
C21_2 C20_2 1_555 1_555
C22_2 C21_2 1_555 1_555
H15_2 C22_2 1_555 1_555
C23_2 C22_2 1_555 1_555
H16_2 C23_2 1_555 1_555
C24_2 C21_2 1_555 1_555
N28 C13_2 1_555 1_555
N15_2 C18_2 1_555 1_555
N16_2 Cu7 1_555 1_555
N17_2 Cu1_6 1_555 1_555
N18_2 C18_2 1_555 1_555
N30 C19_2 1_555 1_555
N20_2 C24_2 1_555 1_555
N21_2 Cu1_6 1_555 1_555
N23_2 C24_2 1_555 1_555
N24_2 Cu1_6 1_555 1_555
N25_2 N24_2 1_555 1_555
N26_2 N25_2 1_555 1_555
Cu7 N24_2 1_555 1_555
C17_2 N28 1_555 1_555
C23_2 N30 1_555 1_555
N15_2 N16_2 1_555 1_555
N16_2 N17_2 1_555 1_555
N17_2 N18_2 1_555 1_555
N20_2 N21_2 1_555 1_555
N21_2 N22_2 1_555 1_555
N22_2 N23_2 1_555 1_555

#END
