
###############################################################################
#
# This file contains modified crystal structure data generated from the
# MOF subset of the Cambridge Structural Database (CSD) v543 
# hosted by the Cambridge Crystallographic Data Centre (CCDC).
#
# This work is licensed under the Creative Commons
# Attribution-NonCommercial-ShareAlike 4.0 International License.
# To view a copy of this license, visit
# http://creativecommons.org/licenses/by-nc-sa/4.0/
# or send a letter to
# Creative Commons, PO Box 1866, Mountain View, CA 94042, USA.
#
# CIF created using the CSD Python API on 29 September 2022
# The structure has been converted into the P1 space group
# The structure has a 3D framework
# The original CSD entry QONDOP is in the monoclinic crystal system
# The framework has been calculated to contain at least 10.0% void space
# The void calculation uses a probe of radius 1.32A, grid spacing 0.4
#
###############################################################################

data_QONDOP
_chemical_formula_moiety         '(C72 H40 N8 O27 Zn9)n'
_symmetry_cell_setting           triclinic
_symmetry_space_group_name_H-M   'P 1'
_symmetry_Int_Tables_number      1
_space_group_name_Hall           'P 1'
loop_
_symmetry_equiv_pos_site_id
_symmetry_equiv_pos_as_xyz
1 x,y,z
_cell_length_a                   5.9994(12)
_cell_length_b                   29.661(6)
_cell_length_c                   19.068(4)
_cell_angle_alpha                90
_cell_angle_beta                 90.09
_cell_angle_gamma                90
_cell_volume                     3393.11
loop_
_atom_site_label
_atom_site_type_symbol
_atom_site_fract_x
_atom_site_fract_y
_atom_site_fract_z
Zn6 Zn -0.000000 0.000000 0.000000
Zn6_2 Zn -0.000000 0.000000 1.000000
Zn6_3 Zn -0.000000 1.000000 0.000000
C2 C 0.1347(13) 0.8817(2) 0.8350(4)
H1 H 0.22626 0.905721 0.847300
C16 C 0.2117(12) 0.8504(3) 0.7874(4)
H9 H 0.34825 0.853882 0.765007
C18 C 0.0758(14) 0.8134(3) 0.7744(4)
H10 H 0.125052 0.791059 0.743947
Zn6_4 Zn -0.000000 1.000000 1.000000
Zn6_5 Zn 1.000000 0.000000 0.000000
Zn6_6 Zn 1.000000 0.000000 1.000000
Zn6_7 Zn 1.000000 1.000000 0.000000
Zn1 Zn -0.000000 0.500000 0.500000
O2 O 0.3659(8) 0.58616(15) 0.5668(2)
O3 O 0.6385(9) 0.91200(14) 0.9295(3)
O4 O 0.0787(7) 0.54091(16) 0.5881(2)
C1 C 0.1365(12) 0.6020(2) 0.6648(4)
O5 O 0.9715(8) 0.94185(14) 0.9362(2)
C3 C 0.5829(16) 0.7532(2) 0.8291(4)
C4 C 0.1946(13) 0.5738(2) 0.6013(4)
C5 C 0.4190(15) 0.7189(2) 0.8168(4)
C6 C 0.7874(11) 0.8418(2) 0.8497(3)
H2 H 0.645195 0.839407 0.868677
C7 C 0.8745(14) 0.8092(2) 0.8047(4)
N1 N 0.7409(11) 0.7722(2) 0.7886(3)
H3 H 0.761755 0.760063 0.748130
C8 C 0.8449(13) 0.9148(2) 0.9147(3)
C9 C 0.3309(19) 0.7211(3) 0.8880(5)
C11 C 0.9271(12) 0.8785(2) 0.8647(3)
C12 C 0.2788(11) 0.6359(2) 0.6848(4)
H5 H 0.405599 0.641493 0.658115
C13 C 0.2391(15) 0.6618(3) 0.7428(4)
O6 O 0.1810(14) 0.7033(2) 0.9206(3)
N2 N 0.3964(10) 0.69608(18) 0.7559(3)
H6 H 0.485581 0.703033 0.722354
C15 C 0.0461(15) 0.6556(3) 0.7798(4)
H8 H 0.014257 0.674802 0.816961
O7 O 0.5512(11) 0.77735(18) 0.9547(3)
C17 C 0.4977(16) 0.7561(3) 0.9037(4)
C28 C 0.0575(14) 0.4048(3) 0.2979(4)
H14 H 0.158717 0.426498 0.312899
C32 C 0.1049(14) 0.3789(3) 0.2367(5)
H17 H 0.229589 0.384552 0.209167
Zn6_8 Zn 1.000000 1.000000 1.000000
Zn7 Zn 0.49417(12) 0.95101(2) 0.99608(4)
Zn8 Zn 0.49417(12) 0.54899(2) 0.49608(4)
O15 O 0.3148(5) 0.49812(12) 0.45897(18)
O19 O 0.0285(8) 0.44185(14) 0.5638(2)
Zn1_2 Zn 1.000000 0.500000 0.500000
Zn2 Zn 0.50583(12) 0.45101(2) 0.50392(4)
O1 O 0.6852(5) 0.50188(12) 0.54103(18)
C10 C 0.9425(14) 0.5952(3) 0.7021(4)
H4 H 0.841283 0.573502 0.687101
C14 C 0.8951(14) 0.6211(3) 0.7633(5)
H7 H 0.770411 0.615448 0.790833
O9 O 0.6341(8) 0.41384(15) 0.4332(2)
O10 O 0.3615(9) 0.08800(14) 0.0705(3)
O11 O 0.9213(7) 0.45909(16) 0.4119(2)
C19 C 0.8635(12) 0.3980(2) 0.3352(4)
O12 O 0.0285(8) 0.05815(14) 0.0638(2)
C21 C 0.4171(16) 0.2468(2) 0.1709(4)
C22 C 0.8054(13) 0.4262(2) 0.3987(4)
C23 C 0.5810(15) 0.2811(2) 0.1832(4)
C24 C 0.2126(11) 0.1582(2) 0.1503(3)
H12 H 0.354805 0.160593 0.131323
C25 C 0.1255(14) 0.1908(2) 0.1953(4)
N3 N 0.2591(11) 0.2278(2) 0.2114(3)
H13 H 0.238245 0.239937 0.251870
C26 C 0.1551(13) 0.0852(2) 0.0853(3)
C27 C 0.6691(19) 0.2789(3) 0.1120(5)
C29 C 0.0729(12) 0.1215(2) 0.1353(3)
C30 C 0.7212(11) 0.3641(2) 0.3152(4)
H15 H 0.594401 0.358507 0.341885
C31 C 0.7609(15) 0.3382(3) 0.2572(4)
O13 O 0.8190(14) 0.2967(2) 0.0794(3)
N4 N 0.6036(10) 0.30392(18) 0.2441(3)
H16 H 0.514419 0.296967 0.277646
C33 C 0.9539(15) 0.3444(3) 0.2202(4)
H18 H 0.985743 0.325198 0.183039
O14 O 0.4488(11) 0.22265(18) 0.0453(3)
C35 C 0.5023(16) 0.2439(3) 0.0963(4)
Zn9 Zn 0.50583(12) 0.04899(2) 0.00392(4)
O17 O 0.3615(9) 0.41200(14) 0.5705(3)
O18 O 0.6385(9) 0.58800(14) 0.4295(3)
O20 O 0.9715(8) 0.55815(14) 0.4362(2)
C20 C 0.8653(13) 0.1183(2) 0.1650(4)
H11 H 0.77374 0.094279 0.152700
C34 C 0.7883(12) 0.1496(3) 0.2126(4)
H19 H 0.65175 0.146118 0.234993
C36 C 0.9242(14) 0.1866(3) 0.2256(4)
H20 H 0.874948 0.208941 0.256053
C20_2 C 0.1347(13) 0.6183(2) 0.3350(4)
H11_2 H 0.22626 0.594279 0.347300
C34_2 C 0.2117(12) 0.6496(3) 0.2874(4)
H19_2 H 0.34825 0.646118 0.265007
C36_2 C 0.0758(14) 0.6866(3) 0.2744(4)
H20_2 H 0.125052 0.708941 0.243947
O1_2 O 0.3148(5) 0.00188(12) 0.95897(18)
C10_2 C 0.0575(14) 0.0952(3) 0.7979(4)
H4_2 H 0.158717 0.073502 0.812899
C14_2 C 0.1049(14) 0.1211(3) 0.7367(5)
H7_2 H 0.229589 0.115448 0.709167
O16 O 0.6341(8) 0.08616(15) 0.9332(2)
O8 O 0.6852(5) 0.99812(12) 0.04103(18)
O9_2 O 0.3659(8) 0.91384(15) 0.0668(2)
O11_2 O 0.0787(7) 0.95909(16) 0.0881(2)
C19_2 C 0.1365(12) 0.8980(2) 0.1648(4)
C21_2 C 0.5829(16) 0.7468(2) 0.3291(4)
C22_2 C 0.1946(13) 0.9262(2) 0.1013(4)
C23_2 C 0.4190(15) 0.7811(2) 0.3168(4)
C24_2 C 0.7874(11) 0.6582(2) 0.3497(3)
H12_2 H 0.645195 0.660593 0.368677
C25_2 C 0.8745(14) 0.6908(2) 0.3047(4)
N3_2 N 0.7409(11) 0.7278(2) 0.2886(3)
H13_2 H 0.761755 0.739937 0.248130
C26_2 C 0.8449(13) 0.5852(2) 0.4147(3)
C27_2 C 0.3309(19) 0.7789(3) 0.3880(5)
C29_2 C 0.9271(12) 0.6215(2) 0.3647(3)
C30_2 C 0.2788(11) 0.8641(2) 0.1848(4)
H15_2 H 0.405599 0.858507 0.158115
C31_2 C 0.2391(15) 0.8382(3) 0.2428(4)
O13_2 O 0.1810(14) 0.7967(2) 0.4206(3)
N4_2 N 0.3964(10) 0.80392(18) 0.2559(3)
H16_2 H 0.485581 0.796967 0.222354
C33_2 C 0.0461(15) 0.8444(3) 0.2798(4)
H18_2 H 0.014257 0.825198 0.316961
O14_2 O 0.5512(11) 0.72265(18) 0.4547(3)
C35_2 C 0.4977(16) 0.7439(3) 0.4037(4)
O4_2 O 0.9213(7) 0.04091(16) 0.9119(2)
C1_2 C 0.8635(12) 0.1020(2) 0.8352(4)
C3_2 C 0.4171(16) 0.2532(2) 0.6709(4)
C4_2 C 0.8054(13) 0.0738(2) 0.8987(4)
C5_2 C 0.5810(15) 0.2189(2) 0.6832(4)
C6_2 C 0.2126(11) 0.3418(2) 0.6503(3)
H2_2 H 0.354805 0.339407 0.631323
C7_2 C 0.1255(14) 0.3092(2) 0.6953(4)
N1_2 N 0.2591(11) 0.2722(2) 0.7114(3)
H3_2 H 0.238245 0.260063 0.751870
C8_2 C 0.1551(13) 0.4148(2) 0.5853(3)
C9_2 C 0.6691(19) 0.2211(3) 0.6120(5)
C11_2 C 0.0729(12) 0.3785(2) 0.6353(3)
C12_2 C 0.7212(11) 0.1359(2) 0.8152(4)
H5_2 H 0.594401 0.141493 0.841885
C13_2 C 0.7609(15) 0.1618(3) 0.7572(4)
O6_2 O 0.8190(14) 0.2033(2) 0.5794(3)
N2_2 N 0.6036(10) 0.19608(18) 0.7441(3)
H6_2 H 0.514419 0.203033 0.777646
C15_2 C 0.9539(15) 0.1556(3) 0.7202(4)
H8_2 H 0.985743 0.174802 0.683039
O7_2 O 0.4488(11) 0.27735(18) 0.5453(3)
C17_2 C 0.5023(16) 0.2561(3) 0.5963(4)
C28_2 C 0.9425(14) 0.9048(3) 0.2021(4)
H14_2 H 0.841283 0.926498 0.187101
C32_2 C 0.8951(14) 0.8789(3) 0.2633(5)
H17_2 H 0.770411 0.884552 0.290833
C2_2 C 0.8653(13) 0.3817(2) 0.6650(4)
H1_2 H 0.77374 0.405721 0.652700
C16_2 C 0.7883(12) 0.3504(3) 0.7126(4)
H9_2 H 0.65175 0.353882 0.734993
C18_2 C 0.9242(14) 0.3134(3) 0.7256(4)
H10_2 H 0.874948 0.291059 0.756053
loop_
_geom_bond_atom_site_label_1
_geom_bond_atom_site_label_2
_geom_bond_site_symmetry_1
_geom_bond_site_symmetry_2
C2 H1 1_555 1_555
C16 C2 1_555 1_555
H9 C16 1_555 1_555
H10 C18 1_555 1_555
C16 C18 1_555 1_555
O2 C4 1_555 1_555
O3 C8 1_555 1_555
O4 Zn1 1_555 1_555
C1 C4 1_555 1_555
O5 C8 1_555 1_555
C3 C5 1_555 1_555
C4 O4 1_555 1_555
C5 C9 1_555 1_555
C6 H2 1_555 1_555
C7 C6 1_555 1_555
N1 C3 1_555 1_555
H3 N1 1_555 1_555
C8 C11 1_555 1_555
C9 O6 1_555 1_555
C12 C1 1_555 1_555
H5 C12 1_555 1_555
C13 C12 1_555 1_555
N2 C5 1_555 1_555
H6 N2 1_555 1_555
C15 C13 1_555 1_555
H8 C15 1_555 1_555
O7 C17 1_555 1_555
C17 C3 1_555 1_555
H14 C28 1_555 1_555
C32 C28 1_555 1_555
H17 C32 1_555 1_555
Zn6_8 O5 1_555 1_555
Zn7 O3 1_555 1_555
Zn8 O2 1_555 1_555
O15 Zn1 1_555 1_555
O19 Zn1 1_555 1_555
C6 C11 1_555 1_555
C7 N1 1_555 1_555
C9 C17 1_555 1_555
C13 N2 1_555 1_555
Zn8 O15 1_555 1_555
Zn1_2 O1 1_555 1_555
Zn2 O1 1_555 1_555
O1 Zn8 1_555 1_555
H4 C10 1_555 1_555
C14 C10 1_555 1_555
H7 C14 1_555 1_555
O15 Zn2 1_555 1_555
O9 Zn2 1_555 1_555
O10 C26 1_555 1_555
O11 Zn1_2 1_555 1_555
C19 C22 1_555 1_555
O12 C26 1_555 1_555
C21 C23 1_555 1_555
C22 O9 1_555 1_555
C23 C27 1_555 1_555
C24 H12 1_555 1_555
C25 C24 1_555 1_555
N3 C21 1_555 1_555
H13 N3 1_555 1_555
C26 C29 1_555 1_555
C27 O13 1_555 1_555
C30 C19 1_555 1_555
H15 C30 1_555 1_555
C31 C30 1_555 1_555
N4 C23 1_555 1_555
H16 N4 1_555 1_555
C33 C31 1_555 1_555
H18 C33 1_555 1_555
O14 C35 1_555 1_555
C35 C21 1_555 1_555
Zn6 O12 1_555 1_555
Zn9 O10 1_555 1_555
O17 Zn2 1_555 1_555
O18 Zn8 1_555 1_555
O20 Zn1_2 1_555 1_555
O11 C22 1_555 1_555
C24 C29 1_555 1_555
C25 N3 1_555 1_555
C27 C35 1_555 1_555
C31 N4 1_555 1_555
C20 H11 1_555 1_555
C34 C20 1_555 1_555
H19 C34 1_555 1_555
H20 C36 1_555 1_555
C34 C36 1_555 1_555
C20_2 H11_2 1_555 1_555
C34_2 C20_2 1_555 1_555
H19_2 C34_2 1_555 1_555
H20_2 C36_2 1_555 1_555
C34_2 C36_2 1_555 1_555
Zn6_2 O1_2 1_555 1_555
H4_2 C10_2 1_555 1_555
C14_2 C10_2 1_555 1_555
H7_2 C14_2 1_555 1_555
O18 C26_2 1_555 1_555
O11_2 Zn6_3 1_555 1_555
C19_2 C22_2 1_555 1_555
O20 C26_2 1_555 1_555
C21_2 C23_2 1_555 1_555
C22_2 O9_2 1_555 1_555
C23_2 C27_2 1_555 1_555
C24_2 H12_2 1_555 1_555
C25_2 C24_2 1_555 1_555
N3_2 C21_2 1_555 1_555
H13_2 N3_2 1_555 1_555
C26_2 C29_2 1_555 1_555
C27_2 O13_2 1_555 1_555
C30_2 C19_2 1_555 1_555
H15_2 C30_2 1_555 1_555
C31_2 C30_2 1_555 1_555
N4_2 C23_2 1_555 1_555
H16_2 N4_2 1_555 1_555
C33_2 C31_2 1_555 1_555
H18_2 C33_2 1_555 1_555
O14_2 C35_2 1_555 1_555
C35_2 C21_2 1_555 1_555
Zn6_7 O8 1_555 1_555
O11_2 C22_2 1_555 1_555
C24_2 C29_2 1_555 1_555
C25_2 N3_2 1_555 1_555
C27_2 C35_2 1_555 1_555
C31_2 N4_2 1_555 1_555
O16 C4_2 1_555 1_555
O17 C8_2 1_555 1_555
O4_2 Zn6_6 1_555 1_555
C1_2 C4_2 1_555 1_555
O19 C8_2 1_555 1_555
C3_2 C5_2 1_555 1_555
C4_2 O4_2 1_555 1_555
C5_2 C9_2 1_555 1_555
C6_2 H2_2 1_555 1_555
C7_2 C6_2 1_555 1_555
N1_2 C3_2 1_555 1_555
H3_2 N1_2 1_555 1_555
C8_2 C11_2 1_555 1_555
C9_2 O6_2 1_555 1_555
C12_2 C1_2 1_555 1_555
H5_2 C12_2 1_555 1_555
C13_2 C12_2 1_555 1_555
N2_2 C5_2 1_555 1_555
H6_2 N2_2 1_555 1_555
C15_2 C13_2 1_555 1_555
H8_2 C15_2 1_555 1_555
O7_2 C17_2 1_555 1_555
C17_2 C3_2 1_555 1_555
C6_2 C11_2 1_555 1_555
C7_2 N1_2 1_555 1_555
C9_2 C17_2 1_555 1_555
C13_2 N2_2 1_555 1_555
H14_2 C28_2 1_555 1_555
C32_2 C28_2 1_555 1_555
H17_2 C32_2 1_555 1_555
C2_2 H1_2 1_555 1_555
C16_2 C2_2 1_555 1_555
H9_2 C16_2 1_555 1_555
H10_2 C18_2 1_555 1_555
C16_2 C18_2 1_555 1_555

#END
