
###############################################################################
#
# This file contains modified crystal structure data generated from the
# MOF subset of the Cambridge Structural Database (CSD) v543 
# hosted by the Cambridge Crystallographic Data Centre (CCDC).
#
# This work is licensed under the Creative Commons
# Attribution-NonCommercial-ShareAlike 4.0 International License.
# To view a copy of this license, visit
# http://creativecommons.org/licenses/by-nc-sa/4.0/
# or send a letter to
# Creative Commons, PO Box 1866, Mountain View, CA 94042, USA.
#
# CIF created using the CSD Python API on 29 September 2022
# The structure has been converted into the P1 space group
# The structure has a 3D framework
# The original CSD entry QONLEM is in the monoclinic crystal system
# The framework has been calculated to contain at least 10.0% void space
# The void calculation uses a probe of radius 1.32A, grid spacing 0.4
#
###############################################################################

data_QONLEM
_chemical_formula_moiety         '(C60 H60 Cu13 N56 O4)n'
_symmetry_cell_setting           triclinic
_symmetry_space_group_name_H-M   'P 1'
_symmetry_Int_Tables_number      1
_space_group_name_Hall           'P 1'
loop_
_symmetry_equiv_pos_site_id
_symmetry_equiv_pos_as_xyz
1 x,y,z
_cell_length_a                   12.8250(8)
_cell_length_b                   14.9030(12)
_cell_length_c                   15.9630(12)
_cell_angle_alpha                90
_cell_angle_beta                 92.847(7)
_cell_angle_gamma                90
_cell_volume                     3047.26
loop_
_atom_site_label
_atom_site_type_symbol
_atom_site_fract_x
_atom_site_fract_y
_atom_site_fract_z
Cu1 Cu 0.0000 0.0000 0.0000
N11 N 0.0843(4) 0.1261(4) 0.0578(4)
N12 N 0.1701(6) 0.1378(6) 0.0709(7)
N13 N 0.2560(12) 0.1453(11) 0.0868(11)
O1 O 0.0263(6) 0.3409(5) 0.0122(4)
N30 N 0.0695(4) 0.2384(4) 0.2015(4)
Cu1_2 Cu 0.0000 0.0000 1.0000
C7 C 0.3225(6) 0.2526(5) 0.7313(5)
H5 H 0.3455 0.3066 0.7549
C8 C 0.2562(7) 0.2012(5) 0.7750(5)
H6 H 0.2347 0.2205 0.8268
C9 C 0.2211(5) 0.1206(5) 0.7423(4)
C10 C 0.2540(6) 0.0968(5) 0.6640(5)
H7 H 0.2311 0.0437 0.6386
C11 C 0.3212(6) 0.1532(6) 0.6242(5)
H8 H 0.3432 0.1365 0.5718
C12 C 0.1555(5) 0.0604(5) 0.7900(4)
C13 C 0.0273(7) 0.3093(7) 0.9427(7)
H9 H 0.0510 0.2506 0.9384
H11 H 0.0046 0.4815 0.9025
H15 H 0.0559 0.2764 0.7796
N6 N 0.3559(4) 0.2299(4) 0.6571(4)
N7 N 0.1175(5) 0.0845(4) 0.8631(4)
N8 N 0.0697(4) 0.0121(4) 0.8885(3)
Cu7 Cu 0.47122(6) 0.30330(6) 0.60749(5)
Cu1_3 Cu 0.0000 1.0000 0.0000
C16 C 0.4012(7) 0.6854(6) 0.2350(6)
H16 H 0.4276 0.6274 0.2335
C17 C 0.3326(7) 0.7135(6) 0.1708(5)
H17 H 0.3151 0.6749 0.1265
C18 C 0.2904(5) 0.7979(5) 0.1721(4)
C19 C 0.3200(7) 0.8526(5) 0.2392(5)
H18 H 0.2938 0.9105 0.2428
C20 C 0.3888(7) 0.8197(5) 0.3001(5)
H19 H 0.4073 0.8567 0.3454
C21 C 0.2170(5) 0.8298(5) 0.1058(4)
C29 C 0.0459(16) 0.5582(11) 0.1242(11)
H25 H 0.0630 0.5375 0.1801
H27 H 0.1078 0.5590 0.0928
C30 C 0.0107(13) 0.6985(10) 0.2084(7)
H28 H 0.0325 0.6575 0.2523
H29 H 0.0611 0.7458 0.2051
N15 N 0.4305(4) 0.7384(4) 0.2985(4)
N16 N 0.1894(5) 0.7816(4) 0.0371(4)
N18 N 0.1073(4) 0.9085(4) 0.0384(3)
N19 N 0.1673(4) 0.9076(4) 0.1078(3)
N28 N 0.0018(8) 0.6500(6) 0.1274(5)
Cu5 Cu 0.52878(6) 0.69670(6) 0.39251(5)
Cu1_4 Cu 0.0000 1.0000 1.0000
N9 N 0.0792(4) 0.9456(4) 0.8337(4)
N10 N 0.1344(5) 0.9752(4) 0.7705(4)
Cu3 Cu 0.02878(6) 0.80330(6) 0.89251(5)
N17 N 0.1209(4) 0.8339(4) 0.9956(3)
N31 N 0.1441(4) 0.7299(4) 0.8429(4)
Cu1_5 Cu 1.0000 0.0000 0.0000
Cu2 Cu 0.97122(6) 0.19670(6) 0.10749(5)
N3 N 0.8791(4) 0.1661(4) 0.0044(3)
N23 N 0.9208(4) 0.0544(4) 0.1663(4)
N24 N 0.8656(5) 0.0248(4) 0.2295(4)
N32 N 0.8559(4) 0.2701(4) 0.1571(4)
Cu1_6 Cu 1.0000 0.0000 1.0000
C1 C 0.5988(7) 0.3146(6) 0.7650(6)
H1 H 0.5724 0.3726 0.7665
C2 C 0.6674(7) 0.2865(6) 0.8292(5)
H2 H 0.6849 0.3251 0.8735
C3 C 0.7096(5) 0.2021(5) 0.8279(4)
C4 C 0.6800(7) 0.1474(5) 0.7608(5)
H3 H 0.7062 0.0895 0.7572
C5 C 0.6112(7) 0.1803(5) 0.6999(5)
H4 H 0.5927 0.1433 0.6546
C6 C 0.7830(5) 0.1702(5) 0.8942(4)
C14 C 0.9541(16) 0.4418(11) 0.8758(11)
H10 H 0.9370 0.4625 0.8199
H12 H 0.8922 0.4410 0.9072
C15 C 0.9893(13) 0.3015(10) 0.7916(7)
H13 H 0.9675 0.3425 0.7477
H14 H 0.9389 0.2542 0.7949
N1 N 0.5695(4) 0.2616(4) 0.7015(4)
N2 N 0.8106(5) 0.2184(4) 0.9629(4)
N4 N 0.8927(4) 0.0915(4) 0.9616(3)
N5 N 0.8327(4) 0.0924(4) 0.8922(3)
N14 N 0.9982(8) 0.3500(6) 0.8726(5)
Cu1_7 Cu 1.0000 1.0000 0.0000
C22 C 0.6775(6) 0.7474(5) 0.2687(5)
H20 H 0.6545 0.6934 0.2451
C23 C 0.7438(7) 0.7988(5) 0.2250(5)
H21 H 0.7653 0.7795 0.1732
C24 C 0.7789(5) 0.8794(5) 0.2577(4)
C25 C 0.7460(6) 0.9032(5) 0.3360(5)
H22 H 0.7689 0.9563 0.3614
C26 C 0.6788(6) 0.8468(6) 0.3758(5)
H23 H 0.6568 0.8635 0.4282
C27 C 0.8445(5) 0.9396(5) 0.2100(4)
C28 C 0.9727(7) 0.6907(7) 0.0573(7)
H24 H 0.9490 0.7494 0.0616
H26 H 0.9954 0.5185 0.0975
H30 H 0.9441 0.7236 0.2204
N20 N 0.6441(4) 0.7701(4) 0.3429(4)
N21 N 0.8825(5) 0.9155(4) 0.1369(4)
N22 N 0.9303(4) 0.9879(4) 0.1115(3)
Cu1_8 Cu 1.0000 1.0000 1.0000
N25 N 0.9157(4) 0.8739(4) 0.9422(4)
N26 N 0.8299(6) 0.8622(6) 0.9291(7)
N27 N 0.7440(12) 0.8547(11) 0.9132(11)
O2 O 0.9737(6) 0.6591(5) 0.9878(4)
N29 N 0.9305(4) 0.7616(4) 0.7985(4)
Cu1_9 Cu 0.5000 0.5000 0.5000
C1_2 C 0.9012(7) 0.8146(6) 0.7350(6)
H1_2 H 0.9276 0.8726 0.7335
C2_2 C 0.8326(7) 0.7865(6) 0.6708(5)
H2_2 H 0.8151 0.8251 0.6265
C3_2 C 0.7904(5) 0.7021(5) 0.6721(4)
C4_2 C 0.8200(7) 0.6474(5) 0.7392(5)
H3_2 H 0.7938 0.5895 0.7428
C5_2 C 0.8888(7) 0.6803(5) 0.8001(5)
H4_2 H 0.9073 0.6433 0.8454
C6_2 C 0.7170(5) 0.6702(5) 0.6058(4)
C7_2 C 0.1775(6) 0.7526(5) 0.7687(5)
H5_2 H 0.1545 0.8066 0.7451
C8_2 C 0.2438(7) 0.7012(5) 0.7250(5)
H6_2 H 0.2653 0.7205 0.6732
C9_2 C 0.2789(5) 0.6206(5) 0.7577(4)
C10_2 C 0.2460(6) 0.5968(5) 0.8360(5)
H7_2 H 0.2689 0.5437 0.8614
C11_2 C 0.1788(6) 0.6532(6) 0.8758(5)
H8_2 H 0.1568 0.6365 0.9282
C12_2 C 0.3445(5) 0.5604(5) 0.7100(4)
C13_2 C 0.4727(7) 0.8093(7) 0.5573(7)
H9_2 H 0.4490 0.7506 0.5616
C14_2 C 0.5459(16) 0.9418(11) 0.6242(11)
H10_2 H 0.5630 0.9625 0.6801
H11_2 H 0.4954 0.9815 0.5975
H12_2 H 0.6078 0.9410 0.5928
C15_2 C 0.5107(13) 0.8015(10) 0.7084(7)
H13_2 H 0.5325 0.8425 0.7523
H14_2 H 0.5611 0.7542 0.7051
H15_2 H 0.4441 0.7764 0.7204
N2_2 N 0.6894(5) 0.7184(4) 0.5371(4)
N3_2 N 0.6209(4) 0.6661(4) 0.4956(3)
N4_2 N 0.6073(4) 0.5915(4) 0.5384(3)
N5_2 N 0.6673(4) 0.5924(4) 0.6078(3)
N7_2 N 0.3825(5) 0.5845(4) 0.6369(4)
N8_2 N 0.4303(4) 0.5121(4) 0.6115(3)
N9_2 N 0.4208(4) 0.4456(4) 0.6663(4)
N10_2 N 0.3656(5) 0.4752(4) 0.7295(4)
N11_2 N 0.4157(4) 0.6261(4) 0.4422(4)
N12_2 N 0.3299(6) 0.6378(6) 0.4291(7)
N13_2 N 0.2440(12) 0.6453(11) 0.4132(11)
N14_2 N 0.5018(8) 0.8500(6) 0.6274(5)
O1_2 O 0.4737(6) 0.8409(5) 0.4878(4)
C16_2 C 0.0988(7) 0.1854(6) 0.2650(6)
H16_2 H 0.0724 0.1274 0.2665
C17_2 C 0.1674(7) 0.2135(6) 0.3292(5)
H17_2 H 0.1849 0.1749 0.3735
C18_2 C 0.2096(5) 0.2979(5) 0.3279(4)
C19_2 C 0.1800(7) 0.3526(5) 0.2608(5)
H18_2 H 0.2062 0.4105 0.2572
C20_2 C 0.1112(7) 0.3197(5) 0.1999(5)
H19_2 H 0.0927 0.3567 0.1546
C21_2 C 0.2830(5) 0.3298(5) 0.3942(4)
C22_2 C 0.8225(6) 0.2474(5) 0.2313(5)
H20_2 H 0.8455 0.1934 0.2549
C23_2 C 0.7562(7) 0.2988(5) 0.2750(5)
H21_2 H 0.7347 0.2795 0.3268
C24_2 C 0.7211(5) 0.3794(5) 0.2423(4)
C25_2 C 0.7540(6) 0.4032(5) 0.1640(5)
H22_2 H 0.7311 0.4563 0.1386
C26_2 C 0.8212(6) 0.3468(6) 0.1242(5)
H23_2 H 0.8432 0.3635 0.0718
C27_2 C 0.6555(5) 0.4396(5) 0.2900(4)
C28_2 C 0.5273(7) 0.1907(7) 0.4427(7)
H24_2 H 0.5510 0.2494 0.4384
C29_2 C 0.4541(16) 0.0582(11) 0.3758(11)
H25_2 H 0.4370 0.0375 0.3199
H26_2 H 0.5046 0.0185 0.4025
H27_2 H 0.3922 0.0590 0.4072
C30_2 C 0.4893(13) 0.1985(10) 0.2916(7)
H28_2 H 0.4675 0.1575 0.2477
H29_2 H 0.4389 0.2458 0.2949
H30_2 H 0.5559 0.2236 0.2796
N16_2 N 0.3106(5) 0.2816(4) 0.4629(4)
N17_2 N 0.3791(4) 0.3339(4) 0.5044(3)
N18_2 N 0.3927(4) 0.4085(4) 0.4616(3)
N19_2 N 0.3327(4) 0.4076(4) 0.3922(3)
N21_2 N 0.6175(5) 0.4155(4) 0.3631(4)
N22_2 N 0.5697(4) 0.4879(4) 0.3885(3)
N23_2 N 0.5792(4) 0.5544(4) 0.3337(4)
N24_2 N 0.6344(5) 0.5248(4) 0.2705(4)
N25_2 N 0.5843(4) 0.3739(4) 0.5578(4)
N26_2 N 0.6701(6) 0.3622(6) 0.5709(7)
N27_2 N 0.7560(12) 0.3547(11) 0.5868(11)
N28_2 N 0.4982(8) 0.1500(6) 0.3726(5)
O2_2 O 0.5263(6) 0.1591(5) 0.5122(4)
loop_
_geom_bond_atom_site_label_1
_geom_bond_atom_site_label_2
_geom_bond_site_symmetry_1
_geom_bond_site_symmetry_2
N11 Cu1 1_555 1_555
N12 N11 1_555 1_555
N13 N12 1_555 1_555
C7 H5 1_555 1_555
C8 C7 1_555 1_555
H6 C8 1_555 1_555
C9 C8 1_555 1_555
C10 C9 1_555 1_555
H7 C10 1_555 1_555
C11 C10 1_555 1_555
H8 C11 1_555 1_555
C12 C9 1_555 1_555
C13 H9 1_555 1_555
N6 C7 1_555 1_555
N7 C12 1_555 1_555
N8 Cu1_2 1_555 1_555
Cu7 N6 1_555 1_555
C11 N6 1_555 1_555
N7 N8 1_555 1_555
C16 H16 1_555 1_555
C17 C16 1_555 1_555
H17 C17 1_555 1_555
C18 C17 1_555 1_555
C19 C18 1_555 1_555
H18 C19 1_555 1_555
C20 C19 1_555 1_555
H19 C20 1_555 1_555
C21 C18 1_555 1_555
C29 H25 1_555 1_555
H27 C29 1_555 1_555
C30 H28 1_555 1_555
H29 C30 1_555 1_555
N15 C16 1_555 1_555
N16 C21 1_555 1_555
N18 Cu1_3 1_555 1_555
N19 C21 1_555 1_555
Cu5 N15 1_555 1_555
C20 N15 1_555 1_555
C29 N28 1_555 1_555
C30 N28 1_555 1_555
N18 N19 1_555 1_555
Cu3 N9 1_555 1_555
N17 Cu3 1_555 1_555
N31 Cu3 1_555 1_555
N9 N10 1_555 1_555
Cu2 N3 1_555 1_555
N23 Cu2 1_555 1_555
N32 Cu2 1_555 1_555
N23 N24 1_555 1_555
Cu1_6 N4 1_555 1_555
C1 H1 1_555 1_555
C2 C1 1_555 1_555
H2 C2 1_555 1_555
C3 C2 1_555 1_555
C4 C3 1_555 1_555
H3 C4 1_555 1_555
C5 C4 1_555 1_555
H4 C5 1_555 1_555
C6 C3 1_555 1_555
C14 H10 1_555 1_555
H12 C14 1_555 1_555
C15 H13 1_555 1_555
H14 C15 1_555 1_555
N1 C1 1_555 1_555
N2 C6 1_555 1_555
N5 C6 1_555 1_555
Cu7 N1 1_555 1_555
C5 N1 1_555 1_555
C14 N14 1_555 1_555
C15 N14 1_555 1_555
N4 N5 1_555 1_555
C22 H20 1_555 1_555
C23 C22 1_555 1_555
H21 C23 1_555 1_555
C24 C23 1_555 1_555
C25 C24 1_555 1_555
H22 C25 1_555 1_555
C26 C25 1_555 1_555
H23 C26 1_555 1_555
C27 C24 1_555 1_555
C28 H24 1_555 1_555
N20 C22 1_555 1_555
N21 C27 1_555 1_555
N22 Cu1_7 1_555 1_555
Cu5 N20 1_555 1_555
C26 N20 1_555 1_555
N21 N22 1_555 1_555
N25 Cu1_8 1_555 1_555
N26 N25 1_555 1_555
N27 N26 1_555 1_555
Cu1_9 N4_2 1_555 1_555
Cu5 N3_2 1_555 1_555
C1_2 H1_2 1_555 1_555
C2_2 C1_2 1_555 1_555
H2_2 C2_2 1_555 1_555
C3_2 C2_2 1_555 1_555
C4_2 C3_2 1_555 1_555
H3_2 C4_2 1_555 1_555
C5_2 C4_2 1_555 1_555
H4_2 C5_2 1_555 1_555
C6_2 C3_2 1_555 1_555
C7_2 H5_2 1_555 1_555
C8_2 C7_2 1_555 1_555
H6_2 C8_2 1_555 1_555
C9_2 C8_2 1_555 1_555
C10_2 C9_2 1_555 1_555
H7_2 C10_2 1_555 1_555
C11_2 C10_2 1_555 1_555
H8_2 C11_2 1_555 1_555
C12_2 C9_2 1_555 1_555
C13_2 H9_2 1_555 1_555
C14_2 H10_2 1_555 1_555
H11_2 C14_2 1_555 1_555
H12_2 C14_2 1_555 1_555
C15_2 H13_2 1_555 1_555
H14_2 C15_2 1_555 1_555
H15_2 C15_2 1_555 1_555
N29 C1_2 1_555 1_555
N2_2 C6_2 1_555 1_555
N3_2 N2_2 1_555 1_555
N4_2 N3_2 1_555 1_555
N5_2 C6_2 1_555 1_555
N31 C7_2 1_555 1_555
N7_2 C12_2 1_555 1_555
N8_2 Cu1_9 1_555 1_555
N9_2 N8_2 1_555 1_555
N10_2 C12_2 1_555 1_555
N11_2 Cu1_9 1_555 1_555
N12_2 N11_2 1_555 1_555
N13_2 N12_2 1_555 1_555
N14_2 C13_2 1_555 1_555
O1_2 Cu5 1_555 1_555
Cu7 N9_2 1_555 1_555
C16_2 H16_2 1_555 1_555
C17_2 C16_2 1_555 1_555
H17_2 C17_2 1_555 1_555
C18_2 C17_2 1_555 1_555
C19_2 C18_2 1_555 1_555
H18_2 C19_2 1_555 1_555
C20_2 C19_2 1_555 1_555
H19_2 C20_2 1_555 1_555
C21_2 C18_2 1_555 1_555
C22_2 H20_2 1_555 1_555
C23_2 C22_2 1_555 1_555
H21_2 C23_2 1_555 1_555
C24_2 C23_2 1_555 1_555
C25_2 C24_2 1_555 1_555
H22_2 C25_2 1_555 1_555
C26_2 C25_2 1_555 1_555
H23_2 C26_2 1_555 1_555
C27_2 C24_2 1_555 1_555
C28_2 H24_2 1_555 1_555
C29_2 H25_2 1_555 1_555
H26_2 C29_2 1_555 1_555
H27_2 C29_2 1_555 1_555
C30_2 H28_2 1_555 1_555
H29_2 C30_2 1_555 1_555
H30_2 C30_2 1_555 1_555
N30 C16_2 1_555 1_555
N16_2 C21_2 1_555 1_555
N17_2 Cu7 1_555 1_555
N18_2 Cu1_9 1_555 1_555
N19_2 C21_2 1_555 1_555
N32 C22_2 1_555 1_555
N21_2 C27_2 1_555 1_555
N22_2 Cu1_9 1_555 1_555
N23_2 Cu5 1_555 1_555
N24_2 C27_2 1_555 1_555
N25_2 Cu1_9 1_555 1_555
N26_2 N25_2 1_555 1_555
N27_2 N26_2 1_555 1_555
N28_2 C28_2 1_555 1_555
O2_2 Cu7 1_555 1_555
Cu5 N11_2 1_555 1_555
C5_2 N29 1_555 1_555
C11_2 N31 1_555 1_555
C13_2 O1_2 1_555 1_555
C14_2 N14_2 1_555 1_555
C15_2 N14_2 1_555 1_555
N4_2 N5_2 1_555 1_555
N7_2 N8_2 1_555 1_555
N9_2 N10_2 1_555 1_555
Cu7 N25_2 1_555 1_555
C20_2 N30 1_555 1_555
C26_2 N32 1_555 1_555
C28_2 O2_2 1_555 1_555
C29_2 N28_2 1_555 1_555
C30_2 N28_2 1_555 1_555
N16_2 N17_2 1_555 1_555
N17_2 N18_2 1_555 1_555
N18_2 N19_2 1_555 1_555
N21_2 N22_2 1_555 1_555
N22_2 N23_2 1_555 1_555
N23_2 N24_2 1_555 1_555

#END
