
###############################################################################
#
# This file contains modified crystal structure data generated from the
# MOF subset of the Cambridge Structural Database (CSD) v543 
# hosted by the Cambridge Crystallographic Data Centre (CCDC).
#
# This work is licensed under the Creative Commons
# Attribution-NonCommercial-ShareAlike 4.0 International License.
# To view a copy of this license, visit
# http://creativecommons.org/licenses/by-nc-sa/4.0/
# or send a letter to
# Creative Commons, PO Box 1866, Mountain View, CA 94042, USA.
#
# CIF created using the CSD Python API on 29 September 2022
# The structure has been converted into the P1 space group
# The structure has a 3D framework
# The original CSD entry QOPHEI is in the monoclinic crystal system
# The framework has been calculated to contain at least 10.0% void space
# The void calculation uses a probe of radius 1.32A, grid spacing 0.4
# H atom positions have been added when not included in the experimental data
# Generated hydrogen atom positions removed from atoms on special positions
#
###############################################################################

data_QOPHEI
_chemical_formula_moiety         '(C16 H35 Co12 O25)n'
_symmetry_cell_setting           triclinic
_symmetry_space_group_name_H-M   'P 1'
_symmetry_Int_Tables_number      1
_space_group_name_Hall           'P 1'
loop_
_symmetry_equiv_pos_site_id
_symmetry_equiv_pos_as_xyz
1 x,y,z
_cell_length_a                   17.167(3)
_cell_length_b                   10.022(2)
_cell_length_c                   6.4680(13)
_cell_angle_alpha                90
_cell_angle_beta                 107.88(3)
_cell_angle_gamma                90
_cell_volume                     1059.06
loop_
_atom_site_label
_atom_site_type_symbol
_atom_site_fract_x
_atom_site_fract_y
_atom_site_fract_z
Co4 Co -0.0000 0.15226(4) 0.0000
Co1 Co 0.0000 0.0000 0.5000
O3 O 0.03458(14) 0.0000 0.8317(4)
H3 H 0.0821 0.0000 0.8427
O13 O 0.08945(11) 0.15171(19) 0.5329(3)
Co4_2 Co 0.0000 0.15226(4) 1.0000
Co2 Co -0.0000 0.84774(4) 0.0000
O15 O 0.12133(11) 0.8317(2) 0.2255(3)
Co1_2 Co 0.0000 1.0000 0.5000
Co2_2 Co 0.0000 0.84774(4) 1.0000
O3_2 O 0.03458(14) 1.0000 0.8317(4)
H3_2 H 0.0821 1.0000 0.8427
O12 O 0.04091(12) 0.6988(2) 0.8215(3)
H13 H 0.0592 0.7361 0.7225
H14 H 0.0649 0.7384 0.9416
O14 O 0.08945(11) 0.84829(19) 0.5329(3)
O16 O 0.96542(14) 0.0000 0.1683(4)
Co4_3 Co 1.0000 0.15226(4) 0.0000
H15 H 0.9179 0.0000 0.1573
Co1_3 Co 1.0000 0.0000 0.5000
O7 O 0.87867(11) 0.1683(2) 0.7745(3)
O8 O 0.91055(11) 0.15171(19) 0.4671(3)
C5 C 0.86201(14) 0.1801(3) 0.5720(4)
C6 C 0.77924(17) 0.2338(4) 0.4390(4)
H8 H 0.7577 0.1799 0.3118
H9 H 0.7859 0.3302 0.3845
C7 C 0.72076(17) 0.2662(4) 0.5610(4)
C8 C 0.63799(14) 0.3199(3) 0.4280(4)
O9 O 0.62133(11) 0.3317(2) 0.2255(3)
O10 O 0.58945(11) 0.34829(19) 0.5329(3)
H10 H 0.7423 0.3201 0.6882
H11 H 0.7141 0.1698 0.6155
Co4_4 Co 1.0000 0.15226(4) 1.0000
Co6 Co 0.5000 0.34774(4) 0.0000
Co7 Co 0.5000 0.5000 0.5000
Co6_2 Co 0.5000 0.34774(4) 1.0000
Co2_3 Co 1.0000 0.84774(4) 0.0000
O4 O 0.95909(12) 0.6988(2) 0.1785(3)
H4 H 0.9408 0.7361 0.2775
H5 H 0.9351 0.7384 0.0584
O16_2 O 0.96542(14) 1.0000 0.1683(4)
H15_2 H 0.9179 1.0000 0.1573
Co1_4 Co 1.0000 1.0000 0.5000
Co2_4 Co 1.0000 0.84774(4) 1.0000
O1 O 0.87867(11) 0.8317(2) 0.7745(3)
O2 O 0.91055(11) 0.84829(19) 0.4671(3)
C1 C 0.86201(14) 0.8199(3) 0.5720(4)
C2 C 0.77924(17) 0.7662(4) 0.4390(4)
H1 H 0.7577 0.8201 0.3118
H2 H 0.7859 0.6698 0.3845
C3 C 0.72076(17) 0.7338(4) 0.5610(4)
C4 C 0.63799(14) 0.6801(3) 0.4280(4)
O5 O 0.62133(11) 0.6683(2) 0.2255(3)
O6 O 0.58945(11) 0.65171(19) 0.5329(3)
H6 H 0.7423 0.6799 0.6882
H7 H 0.7141 0.8302 0.6155
Co3 Co 0.5000 0.65226(4) 0.0000
O19 O 0.46542(14) 0.5000 0.1683(4)
O20 O 0.45909(12) 0.8012(2) 0.1785(3)
H18 H 0.4408 0.7639 0.2775
H19 H 0.4351 0.7616 0.0584
Co3_2 Co 0.5000 0.65226(4) 1.0000
O17 O 0.37867(11) 0.6683(2) 0.7745(3)
O18 O 0.53458(14) 0.5000 0.8317(4)
O21 O 0.54091(12) 0.8012(2) 0.8215(3)
H20 H 0.5592 0.7639 0.7225
H21 H 0.5649 0.7616 0.9416
O4_2 O 0.45909(12) 0.1988(2) 0.1785(3)
H4_2 H 0.4408 0.2361 0.2775
H5_2 H 0.4351 0.2384 0.0584
O1_2 O 0.37867(11) 0.3317(2) 0.7745(3)
O2_2 O 0.41055(11) 0.34829(19) 0.4671(3)
C1_2 C 0.36201(14) 0.3199(3) 0.5720(4)
C2_2 C 0.27924(17) 0.2662(4) 0.4390(4)
H1_2 H 0.2577 0.3201 0.3118
H2_2 H 0.2859 0.1698 0.3845
C3_2 C 0.22076(17) 0.2338(4) 0.5610(4)
C4_2 C 0.13799(14) 0.1801(3) 0.4280(4)
O5_2 O 0.12133(11) 0.1683(2) 0.2255(3)
H6_2 H 0.2423 0.1799 0.6882
H7_2 H 0.2141 0.3302 0.6155
O8_2 O 0.41055(11) 0.65171(19) 0.4671(3)
C5_2 C 0.36201(14) 0.6801(3) 0.5720(4)
C6_2 C 0.27924(17) 0.7338(4) 0.4390(4)
H8_2 H 0.2577 0.6799 0.3118
H9_2 H 0.2859 0.8302 0.3845
C7_2 C 0.22076(17) 0.7662(4) 0.5610(4)
C8_2 C 0.13799(14) 0.8199(3) 0.4280(4)
H10_2 H 0.2423 0.8201 0.6882
H11_2 H 0.2141 0.6698 0.6155
O12_2 O 0.54091(12) 0.1988(2) 0.8215(3)
H13_2 H 0.5592 0.2361 0.7225
H14_2 H 0.5649 0.2384 0.9416
O21_2 O 0.04091(12) 0.3012(2) 0.8215(3)
H20_2 H 0.0592 0.2639 0.7225
H21_2 H 0.0649 0.2616 0.9416
H22 H 0.00300902 0.00885758 0.675505
O20_2 O 0.95909(12) 0.3012(2) 0.1785(3)
H18_2 H 0.9408 0.2639 0.2775
H19_2 H 0.9351 0.2616 0.0584
H22_2 H 0.996991 0.00885758 0.324495
H22_3 H 0.996991 0.991142 0.324495
H22_4 H 0.00300902 0.991142 0.675505
loop_
_geom_bond_atom_site_label_1
_geom_bond_atom_site_label_2
_geom_bond_site_symmetry_1
_geom_bond_site_symmetry_2
O3 Co1 1_555 1_555
H3 O3 1_555 1_555
O13 Co1 1_555 1_555
Co4_2 O3 1_555 1_555
O15 Co2 1_555 1_555
O3_2 Co1_2 1_555 1_555
H3_2 O3_2 1_555 1_555
O12 Co2_2 1_555 1_555
H13 O12 1_555 1_555
H14 O12 1_555 1_555
O14 Co1_2 1_555 1_555
Co2_2 O3_2 1_555 1_555
H15 O16 1_555 1_555
O16 Co4_3 1_555 1_555
O7 C5 1_555 1_555
O8 Co1_3 1_555 1_555
C5 O8 1_555 1_555
C6 C5 1_555 1_555
H8 C6 1_555 1_555
H9 C6 1_555 1_555
C7 C6 1_555 1_555
C8 C7 1_555 1_555
O9 C8 1_555 1_555
O10 C8 1_555 1_555
H10 C7 1_555 1_555
H11 C7 1_555 1_555
O16 Co1_3 1_555 1_555
Co6 O9 1_555 1_555
Co7 O10 1_555 1_555
O7 Co4_4 1_555 1_555
O4 Co2_3 1_555 1_555
H4 O4 1_555 1_555
H5 O4 1_555 1_555
O16_2 Co2_3 1_555 1_555
H15_2 O16_2 1_555 1_555
Co1_4 O2 1_555 1_555
Co2_4 O1 1_555 1_555
O1 C1 1_555 1_555
O2 C1 1_555 1_555
C1 C2 1_555 1_555
C2 H1 1_555 1_555
H2 C2 1_555 1_555
C3 C2 1_555 1_555
C4 C3 1_555 1_555
O5 C4 1_555 1_555
O6 C4 1_555 1_555
H6 C3 1_555 1_555
H7 C3 1_555 1_555
O16_2 Co1_4 1_555 1_555
Co3 O5 1_555 1_555
Co7 O6 1_555 1_555
O19 Co3 1_555 1_555
O20 Co3 1_555 1_555
H18 O20 1_555 1_555
H19 O20 1_555 1_555
Co7 O19 1_555 1_555
O17 Co3_2 1_555 1_555
O18 Co3_2 1_555 1_555
O21 Co3_2 1_555 1_555
H20 O21 1_555 1_555
H21 O21 1_555 1_555
O4_2 Co6 1_555 1_555
H4_2 O4_2 1_555 1_555
H5_2 O4_2 1_555 1_555
O19 Co6 1_555 1_555
Co7 O2_2 1_555 1_555
Co6_2 O1_2 1_555 1_555
O1_2 C1_2 1_555 1_555
O2_2 C1_2 1_555 1_555
C1_2 C2_2 1_555 1_555
C2_2 H1_2 1_555 1_555
O18 Co7 1_555 1_555
H2_2 C2_2 1_555 1_555
C3_2 C2_2 1_555 1_555
C4_2 C3_2 1_555 1_555
O5_2 C4_2 1_555 1_555
O13 C4_2 1_555 1_555
H6_2 C3_2 1_555 1_555
H7_2 C3_2 1_555 1_555
O17 C5_2 1_555 1_555
O8_2 Co7 1_555 1_555
C5_2 O8_2 1_555 1_555
C6_2 C5_2 1_555 1_555
H8_2 C6_2 1_555 1_555
H9_2 C6_2 1_555 1_555
C7_2 C6_2 1_555 1_555
C8_2 C7_2 1_555 1_555
O15 C8_2 1_555 1_555
O14 C8_2 1_555 1_555
H10_2 C7_2 1_555 1_555
H11_2 C7_2 1_555 1_555
Co4 O5_2 1_555 1_555
O12_2 Co6_2 1_555 1_555
H13_2 O12_2 1_555 1_555
H14_2 O12_2 1_555 1_555
Co6_2 O18 1_555 1_555
O21_2 Co4_2 1_555 1_555
H20_2 O21_2 1_555 1_555
H21_2 O21_2 1_555 1_555
O3 H22 1_555 1_555
O20_2 Co4_3 1_555 1_555
H18_2 O20_2 1_555 1_555
H19_2 O20_2 1_555 1_555
O16 H22_2 1_555 1_555
O16_2 H22_3 1_555 1_555
O3_2 H22_4 1_555 1_555

#END
