
###############################################################################
#
# This file contains modified crystal structure data generated from the
# MOF subset of the Cambridge Structural Database (CSD) v543 
# hosted by the Cambridge Crystallographic Data Centre (CCDC).
#
# This work is licensed under the Creative Commons
# Attribution-NonCommercial-ShareAlike 4.0 International License.
# To view a copy of this license, visit
# http://creativecommons.org/licenses/by-nc-sa/4.0/
# or send a letter to
# Creative Commons, PO Box 1866, Mountain View, CA 94042, USA.
#
# CIF created using the CSD Python API on 29 September 2022
# The structure has been converted into the P1 space group
# The structure has a 3D framework
# The original CSD entry QOSHEO is in the triclinic crystal system
# The framework has been calculated to contain at least 10.0% void space
# The void calculation uses a probe of radius 1.32A, grid spacing 0.4
#
###############################################################################

data_QOSHEO
_chemical_formula_moiety         '(C88 H60 Co2 N20 O12)n'
_symmetry_cell_setting           triclinic
_symmetry_space_group_name_H-M   'P 1'
_symmetry_Int_Tables_number      1
_space_group_name_Hall           'P 1'
loop_
_symmetry_equiv_pos_site_id
_symmetry_equiv_pos_as_xyz
1 x,y,z
_cell_length_a                   12.2928(7)
_cell_length_b                   13.9784(7)
_cell_length_c                   14.7922(7)
_cell_angle_alpha                62.286(5)
_cell_angle_beta                 68.658(5)
_cell_angle_gamma                78.161(5)
_cell_volume                     2093.91
loop_
_atom_site_label
_atom_site_type_symbol
_atom_site_fract_x
_atom_site_fract_y
_atom_site_fract_z
N1 N 0.2600(3) 0.4556(2) 0.0358(2)
C4 C 0.5060(3) 0.0022(3) 0.3078(3)
C10 C 0.6205(4) 0.0511(3) 0.3796(3)
H10 H 0.652262 0.106446 0.381301
C15 C 0.5543(3) 0.0815(3) 0.3114(3)
H14 H 0.542088 0.155818 0.267446
C17 C 0.4365(3) 0.0300(3) 0.2344(3)
C18 C 0.3270(3) 0.0780(3) 0.0869(3)
H16 H 0.292772 0.092899 0.033314
C25 C 0.3088(3) 0.3554(3) 0.0718(3)
H20 H 0.371794 0.343820 0.099047
C41 C 0.3287(3) 0.1582(3) 0.1174(3)
C42 C 0.3848(3) 0.1325(3) 0.1925(3)
H29 H 0.387819 0.185003 0.215222
C43 C 0.1824(4) 0.2863(3) 0.0293(3)
H30 H 0.154626 0.228326 0.028277
C44 C 0.2726(3) 0.2676(3) 0.0716(3)
Co3 Co 0.31629(4) 0.58248(3) 0.05050(4)
O2 O 0.1539(2) 0.5600(2) 0.2051(2)
H1 H 0.128(4) 0.625(2) 0.178(4)
N9 N 0.1918(3) 0.0496(2) 0.4487(3)
H4 H 0.225217 0.036619 0.496961
C1 C 0.1000(3) 0.3772(3) 0.2928(3)
C5 C 0.0181(3) 0.0839(3) 0.0377(3)
C21 C 0.0710(4) 0.4936(3) 0.2326(3)
C22 C 0.2201(4) 0.2355(3) 0.3859(3)
H19 H 0.283431 0.213558 0.414691
C23 C 0.1558(3) 0.1572(3) 0.3963(3)
C30 C 0.1926(4) 0.3441(3) 0.3343(3)
H21 H 0.237455 0.396461 0.327283
C33 C 0.1332(4) 0.3890(3) 0.9889(4)
H23 H 0.072862 0.403089 0.957916
C35 C 0.1731(3) 0.4720(3) 0.9942(3)
H24 H 0.137901 0.542583 0.967640
C36 C 0.0345(3) 0.2994(3) 0.3057(3)
C37 C 0.0612(3) 0.1910(3) 0.3562(3)
H26 H 0.015304 0.139106 0.363717
N2 N 0.6422(3) 0.9485(3) 0.4430(3)
N4 N 0.4298(3) 0.9512(2) 0.2087(2)
N5 N 0.3546(3) 0.7130(2) 0.0704(2)
C7 C 0.5949(4) 0.8726(3) 0.4391(3)
H8 H 0.609083 0.798949 0.483567
C8 C 0.5269(3) 0.8951(3) 0.3743(3)
H9 H 0.494857 0.838151 0.375222
C9 C 0.3760(3) 0.9762(3) 0.1361(3)
C13 C 0.3651(4) 0.6972(3) 0.1641(3)
H12 H 0.365287 0.625117 0.217853
C27 C 0.3716(3) 0.8862(3) 0.1101(3)
C38 C 0.3617(3) 0.9031(3) 0.0136(3)
C40 C 0.3755(4) 0.7797(3) 0.1858(3)
H28 H 0.385284 0.764015 0.252185
O9 O 0.4081(2) 0.48336(19) 0.1565(2)
O3 O 0.8059(2) 0.3087(2) 0.0234(2)
O6 O 0.9809(3) 0.5256(2) 0.2096(3)
C2 C 0.8986(3) 0.1351(3) 0.1782(3)
H5 H 0.840748 0.182138 0.201988
C24 C 0.9339(3) 0.1538(3) 0.0707(3)
C31 C 0.9466(4) 0.0490(3) 0.2508(3)
H22 H 0.922500 0.037539 0.323697
H25 H 0.969648 0.321667 0.278986
O4 O 0.0865(2) 0.7472(2) 0.1025(2)
C29 C 0.1188(3) 0.7553(3) 0.0085(3)
O1 O 0.5495(2) 0.3849(2) 0.0885(2)
N3 N 0.7071(3) 0.3063(2) 0.4847(3)
H2 H 0.700313 0.355376 0.508124
N6 N 0.9216(3) 0.1129(3) 0.7124(3)
H3 H 0.924673 0.174937 0.713006
N7 N 0.8759(3) 0.0267(2) 0.6304(3)
N8 N 0.8208(3) 0.2122(2) 0.5938(3)
N10 N 0.7625(3) 0.1285(2) 0.5104(2)
C3 C 0.4977(3) 0.4226(3) 0.3295(3)
H6 H 0.425492 0.463441 0.332839
C6 C 0.6550(3) 0.3330(3) 0.4047(3)
C11 C 0.8715(3) 0.1166(3) 0.6420(3)
C12 C 0.5484(4) 0.3926(3) 0.4095(3)
H11 H 0.510755 0.412537 0.467226
C14 C 0.9345(4) 0.0031(3) 0.8906(3)
H13 H 0.878091 0.050852 0.914497
C16 C 0.6582(3) 0.3347(3) 0.2407(3)
H15 H 0.696202 0.314633 0.183039
C19 C 0.6448(3) 0.1841(3) 0.0036(3)
H17 H 0.648933 0.170694 0.071390
C20 C 0.7093(3) 0.3052(3) 0.3200(3)
H18 H 0.782219 0.265478 0.315996
C26 C 0.7666(3) 0.2122(3) 0.5292(3)
C28 C 0.5512(3) 0.3936(3) 0.2448(3)
C32 C 0.9690(3) 0.0212(3) 0.7838(3)
C34 C 0.5000(3) 0.4239(3) 0.1561(3)
H27 H 0.640687 0.025472 0.040730
C39 C 0.8176(3) 0.0381(3) 0.5648(3)
H7 H 0.043563 0.096151 0.964454
O1_2 O 0.4505(2) 0.6151(2) 0.9115(2)
O5 O 0.5919(2) 0.51664(19) 0.8435(2)
N3_2 N 0.2929(3) 0.6937(2) 0.5153(3)
H2_2 H 0.299687 0.644624 0.491876
N6_2 N 0.0784(3) 0.8871(3) 0.2876(3)
H3_2 H 0.075327 0.825063 0.286994
N7_2 N 0.1241(3) 0.9733(2) 0.3696(3)
N8_2 N 0.1792(3) 0.7878(2) 0.4062(3)
N10_2 N 0.2375(3) 0.8715(2) 0.4896(2)
C3_2 C 0.5023(3) 0.5774(3) 0.6705(3)
H6_2 H 0.574508 0.536559 0.667161
C6_2 C 0.3450(3) 0.6670(3) 0.5953(3)
C11_2 C 0.1285(3) 0.8834(3) 0.3580(3)
C12_2 C 0.4516(4) 0.6074(3) 0.5905(3)
H11_2 H 0.489245 0.587463 0.532774
C14_2 C 0.0655(4) 0.9969(3) 0.1094(3)
H13_2 H 0.121909 0.949148 0.085503
C16_2 C 0.3418(3) 0.6653(3) 0.7593(3)
H15_2 H 0.303798 0.685367 0.816961
C19_2 C 0.3552(3) 0.8159(3) 0.9964(3)
H17_2 H 0.351067 0.829306 0.928610
C20_2 C 0.2907(3) 0.6948(3) 0.6800(3)
H18_2 H 0.217781 0.734522 0.684004
C26_2 C 0.2334(3) 0.7878(3) 0.4708(3)
C28_2 C 0.4488(3) 0.6064(3) 0.7552(3)
C32_2 C 0.0310(3) 0.9788(3) 0.2162(3)
C34_2 C 0.5000(3) 0.5761(3) 0.8439(3)
H27_2 H 0.359313 0.974528 0.959270
C39_2 C 0.1824(3) 0.9619(3) 0.4352(3)
Co5 Co 0.68371(4) 0.41752(3) 0.94950(4)
O8 O 0.1941(2) 0.6913(2) 0.9766(2)
O4_2 O 0.9135(2) 0.2528(2) 0.8975(2)
C29_2 C 0.8812(3) 0.2447(3) 0.9915(3)
O6_2 O 0.0191(3) 0.4744(2) 0.7904(3)
C2_2 C 0.1014(3) 0.8649(3) 0.8218(3)
H5_2 H 0.159252 0.817862 0.798012
C24_2 C 0.0661(3) 0.8462(3) 0.9293(3)
C31_2 C 0.0534(4) 0.9510(3) 0.7492(3)
H22_2 H 0.077500 0.962461 0.676303
H25_2 H 0.030352 0.678333 0.721014
N2_2 N 0.3578(3) 0.0515(3) 0.5570(3)
N4_2 N 0.5702(3) 0.0488(2) 0.7913(2)
N5_2 N 0.6454(3) 0.2870(2) 0.9296(2)
C7_2 C 0.4051(4) 0.1274(3) 0.5609(3)
H8_2 H 0.390917 0.201051 0.516433
C8_2 C 0.4731(3) 0.1049(3) 0.6257(3)
H9_2 H 0.505143 0.161849 0.624778
C9_2 C 0.6240(3) 0.0238(3) 0.8639(3)
C13_2 C 0.6349(4) 0.3028(3) 0.8359(3)
H12_2 H 0.634713 0.374883 0.782147
C27_2 C 0.6284(3) 0.1138(3) 0.8899(3)
C38_2 C 0.6383(3) 0.0969(3) 0.9864(3)
C40_2 C 0.6245(4) 0.2203(3) 0.8142(3)
H28_2 H 0.614716 0.235985 0.747815
O7 O 0.8461(2) 0.4400(2) 0.7949(2)
N11 N 0.7400(3) 0.5444(2) 0.9642(2)
H1_2 H 0.872(4) 0.375(2) 0.822(4)
N9_2 N 0.8082(3) 0.9504(2) 0.5513(3)
H4_2 H 0.774783 0.963381 0.503039
C1_2 C 0.9000(3) 0.6228(3) 0.7072(3)
C5_2 C 0.9819(3) 0.9161(3) 0.9623(3)
C21_2 C 0.9290(4) 0.5064(3) 0.7674(3)
C22_2 C 0.7799(4) 0.7645(3) 0.6141(3)
H19_2 H 0.716569 0.786442 0.585309
C23_2 C 0.8442(3) 0.8428(3) 0.6037(3)
C30_2 C 0.8074(4) 0.6559(3) 0.6657(3)
H21_2 H 0.762545 0.603539 0.672717
C33_2 C 0.8668(4) 0.6110(3) 0.0111(4)
H23_2 H 0.927138 0.596911 0.042084
C35_2 C 0.8269(3) 0.5280(3) 0.0058(3)
H24_2 H 0.862099 0.457417 0.032360
C36_2 C 0.9655(3) 0.7006(3) 0.6943(3)
C37_2 C 0.9388(3) 0.8090(3) 0.6438(3)
H26_2 H 0.984696 0.860894 0.636283
C4_2 C 0.4940(3) 0.9978(3) 0.6922(3)
C10_2 C 0.3795(4) 0.9489(3) 0.6204(3)
H10_2 H 0.347738 0.893554 0.618699
C15_2 C 0.4457(3) 0.9185(3) 0.6886(3)
H14_2 H 0.457912 0.844182 0.732554
C17_2 C 0.5635(3) 0.9700(3) 0.7656(3)
C18_2 C 0.6730(3) 0.9220(3) 0.9131(3)
H16_2 H 0.707228 0.907101 0.966686
C25_2 C 0.6912(3) 0.6446(3) 0.9282(3)
H20_2 H 0.628206 0.656180 0.900953
C41_2 C 0.6713(3) 0.8418(3) 0.8826(3)
C42_2 C 0.6152(3) 0.8675(3) 0.8075(3)
H29_2 H 0.612181 0.814997 0.784778
C43_2 C 0.8176(4) 0.7137(3) 0.9707(3)
H30_2 H 0.845374 0.771674 0.971723
C44_2 C 0.7274(3) 0.7324(3) 0.9284(3)
H7_2 H 0.956437 0.903849 0.035546
loop_
_geom_bond_atom_site_label_1
_geom_bond_atom_site_label_2
_geom_bond_site_symmetry_1
_geom_bond_site_symmetry_2
N1 C25 1_555 1_555
H10 C10 1_555 1_555
C15 C4 1_555 1_555
H14 C15 1_555 1_555
C18 H16 1_555 1_555
C25 H20 1_555 1_555
C41 C18 1_555 1_555
C42 C17 1_555 1_555
H29 C42 1_555 1_555
H30 C43 1_555 1_555
C44 C25 1_555 1_555
Co3 N1 1_555 1_555
C4 C17 1_555 1_555
C10 C15 1_555 1_555
C41 C42 1_555 1_555
C41 C44 1_555 1_555
C43 C44 1_555 1_555
O2 H1 1_555 1_555
N9 H4 1_555 1_555
C1 C21 1_555 1_555
C21 O2 1_555 1_555
C22 H19 1_555 1_555
C23 N9 1_555 1_555
C30 C1 1_555 1_555
H21 C30 1_555 1_555
C33 H23 1_555 1_555
H24 C35 1_555 1_555
C36 C1 1_555 1_555
C37 C23 1_555 1_555
H26 C37 1_555 1_555
Co3 O2 1_555 1_555
C22 C23 1_555 1_555
C22 C30 1_555 1_555
C33 C35 1_555 1_555
C36 C37 1_555 1_555
N2 C7 1_555 1_555
N4 C9 1_555 1_555
N5 Co3 1_555 1_555
C7 H8 1_555 1_555
C8 C7 1_555 1_555
H9 C8 1_555 1_555
C13 N5 1_555 1_555
H12 C13 1_555 1_555
C27 C9 1_555 1_555
C40 C13 1_555 1_555
H28 C40 1_555 1_555
O9 Co3 1_555 1_555
C27 C38 1_555 1_555
C27 C40 1_555 1_555
C2 H5 1_555 1_555
C24 C2 1_555 1_555
C31 C2 1_555 1_555
H22 C31 1_555 1_555
O4 C29 1_555 1_555
O1 C34 1_555 1_555
O9 C34 1_555 1_555
N3 H2 1_555 1_555
N6 H3 1_555 1_555
N7 C11 1_555 1_555
N8 C11 1_555 1_555
N10 C26 1_555 1_555
C3 H6 1_555 1_555
C6 N3 1_555 1_555
C11 N6 1_555 1_555
C12 C3 1_555 1_555
H11 C12 1_555 1_555
H13 C14 1_555 1_555
C16 H15 1_555 1_555
H17 C19 1_555 1_555
C20 C6 1_555 1_555
H18 C20 1_555 1_555
C26 N3 1_555 1_555
C28 C3 1_555 1_555
C32 N6 1_555 1_555
C34 C28 1_555 1_555
C39 N7 1_555 1_555
N8 C26 1_555 1_555
N10 C39 1_555 1_555
C6 C12 1_555 1_555
C14 C32 1_555 1_555
C16 C20 1_555 1_555
C16 C28 1_555 1_555
O1_2 C34_2 1_555 1_555
O5 C34_2 1_555 1_555
N3_2 H2_2 1_555 1_555
N6_2 H3_2 1_555 1_555
N7_2 C11_2 1_555 1_555
N8_2 C11_2 1_555 1_555
N10_2 C26_2 1_555 1_555
C3_2 H6_2 1_555 1_555
C6_2 N3_2 1_555 1_555
C11_2 N6_2 1_555 1_555
C12_2 C3_2 1_555 1_555
H11_2 C12_2 1_555 1_555
H13_2 C14_2 1_555 1_555
C16_2 H15_2 1_555 1_555
H17_2 C19_2 1_555 1_555
C20_2 C6_2 1_555 1_555
H18_2 C20_2 1_555 1_555
C26_2 N3_2 1_555 1_555
C28_2 C3_2 1_555 1_555
C32_2 N6_2 1_555 1_555
C34_2 C28_2 1_555 1_555
C39_2 N7_2 1_555 1_555
Co5 O5 1_555 1_555
N8_2 C26_2 1_555 1_555
N10_2 C39_2 1_555 1_555
C6_2 C12_2 1_555 1_555
C14_2 C32_2 1_555 1_555
C16_2 C20_2 1_555 1_555
C16_2 C28_2 1_555 1_555
O4_2 C29_2 1_555 1_555
C2_2 H5_2 1_555 1_555
C24_2 C2_2 1_555 1_555
C31_2 C2_2 1_555 1_555
H22_2 C31_2 1_555 1_555
N2_2 C7_2 1_555 1_555
N4_2 C9_2 1_555 1_555
N5_2 Co5 1_555 1_555
C7_2 H8_2 1_555 1_555
C8_2 C7_2 1_555 1_555
H9_2 C8_2 1_555 1_555
C13_2 N5_2 1_555 1_555
H12_2 C13_2 1_555 1_555
C27_2 C9_2 1_555 1_555
C40_2 C13_2 1_555 1_555
H28_2 C40_2 1_555 1_555
O7 Co5 1_555 1_555
N11 Co5 1_555 1_555
C27_2 C38_2 1_555 1_555
C27_2 C40_2 1_555 1_555
O7 H1_2 1_555 1_555
N9_2 H4_2 1_555 1_555
C1_2 C21_2 1_555 1_555
C21_2 O7 1_555 1_555
C22_2 H19_2 1_555 1_555
C23_2 N9_2 1_555 1_555
C30_2 C1_2 1_555 1_555
H21_2 C30_2 1_555 1_555
C33_2 H23_2 1_555 1_555
H24_2 C35_2 1_555 1_555
C36_2 C1_2 1_555 1_555
C37_2 C23_2 1_555 1_555
H26_2 C37_2 1_555 1_555
C22_2 C23_2 1_555 1_555
C22_2 C30_2 1_555 1_555
C33_2 C35_2 1_555 1_555
C36_2 C37_2 1_555 1_555
N11 C25_2 1_555 1_555
H10_2 C10_2 1_555 1_555
C15_2 C4_2 1_555 1_555
H14_2 C15_2 1_555 1_555
C18_2 H16_2 1_555 1_555
C25_2 H20_2 1_555 1_555
C41_2 C18_2 1_555 1_555
C42_2 C17_2 1_555 1_555
H29_2 C42_2 1_555 1_555
H30_2 C43_2 1_555 1_555
C44_2 C25_2 1_555 1_555
C4_2 C17_2 1_555 1_555
C10_2 C15_2 1_555 1_555
C41_2 C42_2 1_555 1_555
C41_2 C44_2 1_555 1_555
C43_2 C44_2 1_555 1_555

#END
