
###############################################################################
#
# This file contains modified crystal structure data generated from the
# MOF subset of the Cambridge Structural Database (CSD) v543 
# hosted by the Cambridge Crystallographic Data Centre (CCDC).
#
# This work is licensed under the Creative Commons
# Attribution-NonCommercial-ShareAlike 4.0 International License.
# To view a copy of this license, visit
# http://creativecommons.org/licenses/by-nc-sa/4.0/
# or send a letter to
# Creative Commons, PO Box 1866, Mountain View, CA 94042, USA.
#
# CIF created using the CSD Python API on 29 September 2022
# The structure has been converted into the P1 space group
# The structure has a 3D framework
# The original CSD entry QOVSOL is in the monoclinic crystal system
# The framework has been calculated to contain at least 10.0% void space
# The void calculation uses a probe of radius 1.32A, grid spacing 0.4
#
###############################################################################

data_QOVSOL
_chemical_formula_moiety         '(C108 H72 Cd4 N22 O16)n'
_symmetry_cell_setting           triclinic
_symmetry_space_group_name_H-M   'P 1'
_symmetry_Int_Tables_number      1
_space_group_name_Hall           'P 1'
loop_
_symmetry_equiv_pos_site_id
_symmetry_equiv_pos_as_xyz
1 x,y,z
_cell_length_a                   11.328(4)
_cell_length_b                   24.951(7)
_cell_length_c                   13.624(5)
_cell_angle_alpha                90
_cell_angle_beta                 114.073(4)
_cell_angle_gamma                90
_cell_volume                     3515.84
loop_
_atom_site_label
_atom_site_type_symbol
_atom_site_fract_x
_atom_site_fract_y
_atom_site_fract_z
C16 C 0.4796(4) 0.23585(18) 0.0179(4)
C18 C 0.3480(5) 0.3040(2) 0.0502(4)
H14 H 0.2999 0.3353 0.0276
C19 C 0.3627(5) 0.2813(2) 0.1463(4)
C20 C 0.4656(5) 0.2099(2) 0.2836(4)
H15 H 0.4234 0.2225 0.3250
C21 C 0.5479(6) 0.1676(2) 0.3198(5)
H16 H 0.5613 0.1518 0.3853
C22 C 0.6116(6) 0.1480(3) 0.2604(5)
H17 H 0.6697 0.1198 0.2875
C23 C 0.5909(5) 0.1691(2) 0.1628(5)
H18 H 0.6337 0.1548 0.1233
C24 C 0.5040(4) 0.21305(18) 0.1202(4)
C25 C 0.4428(4) 0.2348(2) 0.1847(4)
C27 C 0.2912(5) 0.3072(2) 0.2069(4)
O3 O 0.2794(5) 0.35687(18) 0.2035(4)
O4 O 0.2459(4) 0.27759(16) 0.2577(3)
Cd4 Cd 0.14754(3) 0.340227(12) 0.32527(2)
C1 C 0.2249(4) 0.55539(17) 0.2253(4)
C2 C 0.3319(5) 0.57762(18) 0.3065(4)
H1 H 0.3655 0.5630 0.3753
C3 C 0.3881(4) 0.62253(18) 0.2823(4)
C4 C 0.3382(4) 0.64499(19) 0.1813(4)
H2 H 0.3752 0.6757 0.1670
C5 C 0.2316(4) 0.62108(17) 0.1008(3)
C6 C 0.1746(4) 0.57613(18) 0.1217(4)
H3 H 0.1040 0.5601 0.0675
C7 C 0.0317(5) 0.5064(2) 0.2237(5)
C8 C 0.0162(5) 0.4586(2) 0.2617(5)
C9 C 0.2177(5) 0.46596(18) 0.3010(4)
H6 H 0.3060 0.4591 0.3272
C10 C 0.5050(6) 0.7028(2) 0.3846(5)
H7 H 0.4518 0.7296 0.3416
C11 C 0.6111(5) 0.7092(2) 0.4773(5)
H8 H 0.6429 0.7421 0.5094
C12 C 0.5914(4) 0.62489(19) 0.4500(4)
H9 H 0.6051 0.5881 0.4579
N1 N 0.1327(4) 0.43276(15) 0.3095(3)
N2 N 0.1609(4) 0.51123(14) 0.2496(3)
N3 N 0.6649(4) 0.66080(15) 0.5172(3)
N4 N 0.4922(4) 0.64856(15) 0.3671(3)
Cd2 Cd 0.85246(3) 0.659773(12) 0.67473(2)
H12 H 0.9908 0.6256 0.9360
C21_2 C 0.9521(6) 0.6676(2) 0.1802(5)
H16_2 H 0.9387 0.6518 0.1147
C22_2 C 0.8884(6) 0.6480(3) 0.2396(5)
H17_2 H 0.8303 0.6198 0.2125
C23_2 C 0.9091(5) 0.6691(2) 0.3372(5)
H18_2 H 0.8663 0.6548 0.3767
C24_2 C 0.9960(4) 0.71305(18) 0.3798(4)
C26 C 0.9702(4) 0.71116(19) 0.5594(4)
O1 O 0.9751(4) 0.66096(14) 0.5698(3)
O2 O 0.9275(3) 0.74045(13) 0.6102(3)
N7 N 0.8673(4) 0.56724(15) 0.6905(3)
O5 O 0.7206(5) 0.64313(18) 0.7965(4)
O6 O 0.7541(4) 0.72241(16) 0.7423(3)
C16_2 C 0.5204(4) 0.76415(18) 0.9821(4)
C18_2 C 0.6520(5) 0.6960(2) 0.9498(4)
H14_2 H 0.7001 0.6647 0.9724
C19_2 C 0.6373(5) 0.7187(2) 0.8537(4)
C20_2 C 0.5344(5) 0.7901(2) 0.7164(4)
H15_2 H 0.5766 0.7775 0.6750
C21_3 C 0.4521(6) 0.8324(2) 0.6802(5)
H16_3 H 0.4387 0.8482 0.6147
C22_3 C 0.3884(6) 0.8520(3) 0.7396(5)
H17_3 H 0.3303 0.8802 0.7125
C23_3 C 0.4091(5) 0.8309(2) 0.8372(5)
H18_3 H 0.3663 0.8452 0.8767
C24_3 C 0.4960(4) 0.78695(18) 0.8798(4)
C25_2 C 0.5572(4) 0.7652(2) 0.8153(4)
C27_2 C 0.7088(5) 0.6928(2) 0.7931(4)
H12_2 H 0.0092 0.3744 0.0640
C21_4 C 0.0479(6) 0.3324(2) 0.8198(5)
H16_4 H 0.0613 0.3482 0.8853
C22_4 C 0.1116(6) 0.3520(3) 0.7604(5)
H17_4 H 0.1697 0.3802 0.7875
C23_4 C 0.0909(5) 0.3309(2) 0.6628(5)
H18_4 H 0.1337 0.3452 0.6233
C24_4 C 0.0040(4) 0.28695(18) 0.6202(4)
C26_2 C 0.0298(4) 0.28884(19) 0.4406(4)
O1_2 O 0.0249(4) 0.33904(14) 0.4302(3)
O2_2 O 0.0725(3) 0.25955(13) 0.3898(3)
N8 N 0.3351(4) 0.33920(15) 0.4828(3)
C1_2 C 0.7751(4) 0.44461(17) 0.7747(4)
C2_2 C 0.6681(5) 0.42238(18) 0.6935(4)
H1_2 H 0.6345 0.4370 0.6247
C3_2 C 0.6119(4) 0.37747(18) 0.7177(4)
C4_2 C 0.6618(4) 0.35501(19) 0.8187(4)
H2_2 H 0.6248 0.3243 0.8330
C5_2 C 0.7684(4) 0.37892(17) 0.8992(3)
C6_2 C 0.8254(4) 0.42387(18) 0.8783(4)
H3_2 H 0.8960 0.4399 0.9325
C7_2 C 0.9683(5) 0.4936(2) 0.7763(5)
C8_2 C 0.9838(5) 0.5414(2) 0.7383(5)
C9_2 C 0.7823(5) 0.53404(18) 0.6990(4)
H6_2 H 0.6940 0.5409 0.6728
C10_2 C 0.4950(6) 0.2972(2) 0.6154(5)
H7_2 H 0.5482 0.2704 0.6584
C11_2 C 0.3889(5) 0.2908(2) 0.5227(5)
H8_2 H 0.3571 0.2579 0.4906
C12_2 C 0.4086(4) 0.37511(19) 0.5500(4)
H9_2 H 0.3949 0.4119 0.5421
N2_2 N 0.8391(4) 0.48877(14) 0.7504(3)
N4_2 N 0.5078(4) 0.35144(15) 0.6329(3)
Cd1 Cd 0.64754(3) 0.159773(12) 0.82527(2)
C1_3 C 0.2751(4) 0.05539(17) 0.2747(4)
C2_3 C 0.1681(5) 0.07762(18) 0.1935(4)
H1_3 H 0.1345 0.0630 0.1247
C3_3 C 0.1119(4) 0.12253(18) 0.2177(4)
C4_3 C 0.1618(4) 0.14499(19) 0.3187(4)
H2_3 H 0.1248 0.1757 0.3330
C5_3 C 0.2684(4) 0.12108(17) 0.3992(3)
C6_3 C 0.3254(4) 0.07613(18) 0.3783(4)
H3_3 H 0.3960 0.0601 0.4325
C7_3 C 0.4683(5) 0.0064(2) 0.2763(5)
H4 H 0.5325 0.0313 0.3129
H7_3 H 0.0482 0.2296 0.1584
C13 C 0.2497(5) 0.1683(2) 0.5549(4)
H10 H 0.1617 0.1760 0.5253
C14 C 0.3367(5) 0.1802(2) 0.6561(4)
H11 H 0.3175 0.1973 0.7085
C15 C 0.4425(4) 0.1408(2) 0.5776(4)
H12_3 H 0.5092 0.1256 0.5640
C17 C 0.4040(5) 0.2811(2) 0.9853(4)
H13 H 0.3900 0.2967 0.9194
C26_3 C 0.5298(4) 0.21116(19) 0.9406(4)
N2_3 N 0.3391(4) 0.01123(14) 0.2504(3)
N4_3 N 0.0078(4) 0.14856(15) 0.1329(3)
N5 N 0.4576(4) 0.16298(15) 0.6689(3)
N6 N 0.3177(4) 0.14270(15) 0.5053(3)
O1_3 O 0.5249(4) 0.16096(14) 0.9302(3)
O2_3 O 0.5725(3) 0.24045(13) 0.8898(3)
N7_2 N 0.6327(4) 0.06724(15) 0.8095(3)
N8_2 N 0.8351(4) 0.16080(15) 0.9828(3)
O5_2 O 0.7794(5) 0.14313(18) 0.7035(4)
O6_2 O 0.7459(4) 0.22241(16) 0.7577(3)
H8_3 H 0.8571 0.2421 0.9906
C8_3 C 0.5162(5) 0.0414(2) 0.7617(5)
H5 H 0.4375 0.0552 0.7564
C9_3 C 0.7177(5) 0.03404(18) 0.8010(4)
H6_3 H 0.8060 0.0409 0.8272
C13_2 C 0.7497(5) 0.3317(2) 0.0549(4)
H10_2 H 0.6617 0.3240 0.0253
C14_2 C 0.8367(5) 0.3198(2) 0.1561(4)
H11_2 H 0.8175 0.3027 0.2085
C15_2 C 0.9425(4) 0.3592(2) 0.0776(4)
C16_3 C 0.9796(4) 0.26415(18) 0.5179(4)
C17_2 C 0.9040(5) 0.2189(2) 0.4853(4)
H13_2 H 0.8900 0.2033 0.4194
C18_3 C 0.8480(5) 0.1960(2) 0.5502(4)
H14_3 H 0.7999 0.1647 0.5276
C19_3 C 0.8627(5) 0.2187(2) 0.6463(4)
C20_3 C 0.9656(5) 0.2901(2) 0.7836(4)
H15_3 H 0.9234 0.2775 0.8250
C25_3 C 0.9428(4) 0.2652(2) 0.6847(4)
C27_3 C 0.7912(5) 0.1928(2) 0.7069(4)
N5_2 N 0.9576(4) 0.33702(15) 0.1689(3)
N6_2 N 0.8177(4) 0.35730(15) 0.0053(3)
C8_4 C 0.4838(5) 0.9586(2) 0.2383(5)
H5_2 H 0.5625 0.9448 0.2436
C9_4 C 0.2823(5) 0.96596(18) 0.1990(4)
H6_4 H 0.1940 0.9591 0.1728
N1_2 N 0.3673(4) 0.93276(15) 0.1905(3)
Cd3 Cd 0.35246(3) 0.840227(12) 0.17473(2)
C13_3 C 0.2503(5) 0.6683(2) 0.9451(4)
H10_3 H 0.3383 0.6760 0.9747
C14_3 C 0.1633(5) 0.6802(2) 0.8439(4)
H11_3 H 0.1825 0.6973 0.7915
C15_3 C 0.0575(4) 0.6408(2) 0.9224(4)
C16_4 C 0.0204(4) 0.73585(18) 0.4821(4)
C17_3 C 0.0960(5) 0.7811(2) 0.5147(4)
H13_3 H 0.1100 0.7967 0.5806
C18_4 C 0.1520(5) 0.8040(2) 0.4498(4)
H14_4 H 0.2001 0.8353 0.4724
C19_4 C 0.1373(5) 0.7813(2) 0.3537(4)
C20_4 C 0.0344(5) 0.7099(2) 0.2164(4)
H15_4 H 0.0766 0.7225 0.1750
C25_4 C 0.0572(4) 0.7348(2) 0.3153(4)
C27_4 C 0.2088(5) 0.8072(2) 0.2931(4)
N5_3 N 0.0424(4) 0.66298(15) 0.8311(3)
N6_3 N 0.1823(4) 0.64270(15) 0.9947(3)
O3_2 O 0.2206(5) 0.85687(18) 0.2965(4)
O4_2 O 0.2541(4) 0.77759(16) 0.2423(3)
H8_4 H 0.1429 0.7579 0.0094
N3_2 N 0.1649(4) 0.83920(15) 0.0172(3)
C1_4 C 0.7249(4) 0.94461(17) 0.7253(4)
C2_4 C 0.8319(5) 0.92238(18) 0.8065(4)
H1_4 H 0.8655 0.9370 0.8753
C3_4 C 0.8881(4) 0.87747(18) 0.7823(4)
C4_4 C 0.8382(4) 0.85501(19) 0.6813(4)
H2_4 H 0.8752 0.8243 0.6670
C5_4 C 0.7316(4) 0.87892(17) 0.6008(3)
C6_4 C 0.6746(4) 0.92387(18) 0.6217(4)
H3_4 H 0.6040 0.9399 0.5675
C7_4 C 0.5317(5) 0.9936(2) 0.7237(5)
H4_2 H 0.4675 0.9687 0.6871
H7_4 H 0.9518 0.7704 0.8416
C13_4 C 0.7503(5) 0.8317(2) 0.4451(4)
H10_4 H 0.8383 0.8240 0.4747
C14_4 C 0.6633(5) 0.8198(2) 0.3439(4)
H11_4 H 0.6825 0.8027 0.2915
C15_4 C 0.5575(4) 0.8592(2) 0.4224(4)
H12_4 H 0.4908 0.8744 0.4360
C17_4 C 0.5960(5) 0.7189(2) 0.0147(4)
H13_4 H 0.6100 0.7033 0.0806
C26_4 C 0.4702(4) 0.78884(19) 0.0594(4)
N2_4 N 0.6609(4) 0.98877(14) 0.7496(3)
N4_4 N 0.9922(4) 0.85144(15) 0.8671(3)
N5_4 N 0.5424(4) 0.83702(15) 0.3311(3)
N6_4 N 0.6823(4) 0.85730(15) 0.4947(3)
O1_4 O 0.4751(4) 0.83904(14) 0.0698(3)
O2_4 O 0.4275(3) 0.75955(13) 0.1102(3)
C10_3 C 0.9950(6) 0.2028(2) 0.1154(5)
C11_3 C 0.8889(5) 0.2092(2) 0.0227(5)
C12_3 C 0.9086(4) 0.12489(19) 0.0500(4)
H9_3 H 0.8949 0.0881 0.0421
H4_3 H 0.9675 0.5313 0.1871
H5_3 H 0.9375 0.4448 0.2564
C10_4 C 0.0050(6) 0.7972(2) 0.8846(5)
C11_4 C 0.1111(5) 0.7908(2) 0.9773(5)
C12_4 C 0.0914(4) 0.87511(19) 0.9500(4)
H9_4 H 0.1051 0.9119 0.9579
H4_4 H 0.0325 0.4687 0.8129
H5_4 H 0.0625 0.5552 0.7436
loop_
_geom_bond_atom_site_label_1
_geom_bond_atom_site_label_2
_geom_bond_site_symmetry_1
_geom_bond_site_symmetry_2
H14 C18 1_555 1_555
C19 C18 1_555 1_555
C20 H15 1_555 1_555
C21 C20 1_555 1_555
H16 C21 1_555 1_555
C22 C21 1_555 1_555
H17 C22 1_555 1_555
C23 C22 1_555 1_555
H18 C23 1_555 1_555
C24 C16 1_555 1_555
C25 C19 1_555 1_555
C27 C19 1_555 1_555
O3 C27 1_555 1_555
O4 C27 1_555 1_555
Cd4 O3 1_555 1_555
C20 C25 1_555 1_555
C23 C24 1_555 1_555
C24 C25 1_555 1_555
O4 Cd4 1_555 1_555
C1 C2 1_555 1_555
C2 H1 1_555 1_555
C3 C2 1_555 1_555
C4 C3 1_555 1_555
H2 C4 1_555 1_555
C5 C4 1_555 1_555
C6 C1 1_555 1_555
H3 C6 1_555 1_555
C8 C7 1_555 1_555
C9 H6 1_555 1_555
C10 H7 1_555 1_555
C11 C10 1_555 1_555
H8 C11 1_555 1_555
C12 H9 1_555 1_555
N1 C8 1_555 1_555
N2 C1 1_555 1_555
N3 C11 1_555 1_555
N4 C3 1_555 1_555
Cd2 N3 1_555 1_555
Cd4 N1 1_555 1_555
C5 C6 1_555 1_555
C7 N2 1_555 1_555
C9 N1 1_555 1_555
C9 N2 1_555 1_555
C10 N4 1_555 1_555
C12 N3 1_555 1_555
C12 N4 1_555 1_555
H16_2 C21_2 1_555 1_555
C22_2 C21_2 1_555 1_555
H17_2 C22_2 1_555 1_555
C23_2 C22_2 1_555 1_555
H18_2 C23_2 1_555 1_555
O1 Cd2 1_555 1_555
O2 Cd2 1_555 1_555
N7 Cd2 1_555 1_555
O5 Cd2 1_555 1_555
O6 Cd2 1_555 1_555
C23_2 C24_2 1_555 1_555
C26 O1 1_555 1_555
C26 O2 1_555 1_555
H14_2 C18_2 1_555 1_555
C19_2 C18_2 1_555 1_555
C20_2 H15_2 1_555 1_555
C21_3 C20_2 1_555 1_555
H16_3 C21_3 1_555 1_555
C22_3 C21_3 1_555 1_555
H17_3 C22_3 1_555 1_555
C23_3 C22_3 1_555 1_555
H18_3 C23_3 1_555 1_555
C24_3 C16_2 1_555 1_555
C25_2 C19_2 1_555 1_555
C27_2 C19_2 1_555 1_555
O5 C27_2 1_555 1_555
O6 C27_2 1_555 1_555
C20_2 C25_2 1_555 1_555
C23_3 C24_3 1_555 1_555
C24_3 C25_2 1_555 1_555
H16_4 C21_4 1_555 1_555
C22_4 C21_4 1_555 1_555
H17_4 C22_4 1_555 1_555
C23_4 C22_4 1_555 1_555
H18_4 C23_4 1_555 1_555
O1_2 Cd4 1_555 1_555
O2_2 Cd4 1_555 1_555
N8 Cd4 1_555 1_555
C23_4 C24_4 1_555 1_555
C26_2 O1_2 1_555 1_555
C26_2 O2_2 1_555 1_555
C1_2 C2_2 1_555 1_555
C2_2 H1_2 1_555 1_555
C3_2 C2_2 1_555 1_555
C4_2 C3_2 1_555 1_555
H2_2 C4_2 1_555 1_555
C5_2 C4_2 1_555 1_555
C6_2 C1_2 1_555 1_555
H3_2 C6_2 1_555 1_555
C8_2 C7_2 1_555 1_555
C9_2 H6_2 1_555 1_555
C10_2 H7_2 1_555 1_555
C11_2 C10_2 1_555 1_555
H8_2 C11_2 1_555 1_555
C12_2 H9_2 1_555 1_555
N7 C8_2 1_555 1_555
N2_2 C1_2 1_555 1_555
N8 C11_2 1_555 1_555
N4_2 C3_2 1_555 1_555
C5_2 C6_2 1_555 1_555
C7_2 N2_2 1_555 1_555
C9_2 N7 1_555 1_555
C9_2 N2_2 1_555 1_555
C10_2 N4_2 1_555 1_555
C12_2 N8 1_555 1_555
C12_2 N4_2 1_555 1_555
Cd1 N5 1_555 1_555
C1_3 C2_3 1_555 1_555
C2_3 H1_3 1_555 1_555
C3_3 C2_3 1_555 1_555
C4_3 C3_3 1_555 1_555
H2_3 C4_3 1_555 1_555
C5_3 C4_3 1_555 1_555
C6_3 C1_3 1_555 1_555
H3_3 C6_3 1_555 1_555
C7_3 H4 1_555 1_555
C13 H10 1_555 1_555
C14 C13 1_555 1_555
H11 C14 1_555 1_555
C15 H12_3 1_555 1_555
C17 H13 1_555 1_555
N2_3 C1_3 1_555 1_555
N4_3 C3_3 1_555 1_555
N5 C14 1_555 1_555
N6 C5_3 1_555 1_555
O1_3 Cd1 1_555 1_555
O2_3 Cd1 1_555 1_555
N7_2 Cd1 1_555 1_555
N8_2 Cd1 1_555 1_555
O5_2 Cd1 1_555 1_555
O6_2 Cd1 1_555 1_555
C5_3 C6_3 1_555 1_555
C7_3 N2_3 1_555 1_555
C13 N6 1_555 1_555
C15 N5 1_555 1_555
C15 N6 1_555 1_555
C26_3 O1_3 1_555 1_555
C26_3 O2_3 1_555 1_555
H5 C8_3 1_555 1_555
C9_3 H6_3 1_555 1_555
N7_2 C8_3 1_555 1_555
C9_3 N7_2 1_555 1_555
C13_2 H10_2 1_555 1_555
C14_2 C13_2 1_555 1_555
H11_2 C14_2 1_555 1_555
C16_3 C17_2 1_555 1_555
C17_2 H13_2 1_555 1_555
C18_3 C17_2 1_555 1_555
H14_3 C18_3 1_555 1_555
C19_3 C18_3 1_555 1_555
C20_3 H15_3 1_555 1_555
C25_3 C19_3 1_555 1_555
C27_3 C19_3 1_555 1_555
N5_2 C14_2 1_555 1_555
O5_2 C27_3 1_555 1_555
O6_2 C27_3 1_555 1_555
C13_2 N6_2 1_555 1_555
C15_2 N5_2 1_555 1_555
C15_2 N6_2 1_555 1_555
C20_3 C25_3 1_555 1_555
H5_2 C8_4 1_555 1_555
C9_4 H6_4 1_555 1_555
N1_2 C8_4 1_555 1_555
Cd3 N1_2 1_555 1_555
C9_4 N1_2 1_555 1_555
C13_3 H10_3 1_555 1_555
C14_3 C13_3 1_555 1_555
H11_3 C14_3 1_555 1_555
C16_4 C17_3 1_555 1_555
C17_3 H13_3 1_555 1_555
C18_4 C17_3 1_555 1_555
H14_4 C18_4 1_555 1_555
C19_4 C18_4 1_555 1_555
C20_4 H15_4 1_555 1_555
C25_4 C19_4 1_555 1_555
C27_4 C19_4 1_555 1_555
N5_3 C14_3 1_555 1_555
O3_2 C27_4 1_555 1_555
O4_2 C27_4 1_555 1_555
Cd3 O3_2 1_555 1_555
C13_3 N6_3 1_555 1_555
C15_3 N5_3 1_555 1_555
C15_3 N6_3 1_555 1_555
C20_4 C25_4 1_555 1_555
O4_2 Cd3 1_555 1_555
Cd3 N3_2 1_555 1_555
Cd3 N5_4 1_555 1_555
C1_4 C2_4 1_555 1_555
C2_4 H1_4 1_555 1_555
C3_4 C2_4 1_555 1_555
C4_4 C3_4 1_555 1_555
H2_4 C4_4 1_555 1_555
C5_4 C4_4 1_555 1_555
C6_4 C1_4 1_555 1_555
H3_4 C6_4 1_555 1_555
C7_4 H4_2 1_555 1_555
C13_4 H10_4 1_555 1_555
C14_4 C13_4 1_555 1_555
H11_4 C14_4 1_555 1_555
C15_4 H12_4 1_555 1_555
C17_4 H13_4 1_555 1_555
N2_4 C1_4 1_555 1_555
N4_4 C3_4 1_555 1_555
N5_4 C14_4 1_555 1_555
N6_4 C5_4 1_555 1_555
O1_4 Cd3 1_555 1_555
O2_4 Cd3 1_555 1_555
C5_4 C6_4 1_555 1_555
C7_4 N2_4 1_555 1_555
C13_4 N6_4 1_555 1_555
C15_4 N5_4 1_555 1_555
C15_4 N6_4 1_555 1_555
C26_4 O1_4 1_555 1_555
C26_4 O2_4 1_555 1_555
C11_3 C10_3 1_555 1_555
C12_3 H9_3 1_555 1_555
C11_4 C10_4 1_555 1_555
C12_4 H9_4 1_555 1_555

#END
