
###############################################################################
#
# This file contains modified crystal structure data generated from the
# MOF subset of the Cambridge Structural Database (CSD) v543 
# hosted by the Cambridge Crystallographic Data Centre (CCDC).
#
# This work is licensed under the Creative Commons
# Attribution-NonCommercial-ShareAlike 4.0 International License.
# To view a copy of this license, visit
# http://creativecommons.org/licenses/by-nc-sa/4.0/
# or send a letter to
# Creative Commons, PO Box 1866, Mountain View, CA 94042, USA.
#
# CIF created using the CSD Python API on 29 September 2022
# The structure has been converted into the P1 space group
# The structure has a 3D framework
# The original CSD entry QOVWAB is in the triclinic crystal system
# The framework has been calculated to contain at least 10.0% void space
# The void calculation uses a probe of radius 1.32A, grid spacing 0.4
#
###############################################################################

data_QOVWAB
_chemical_formula_moiety         '(C40 H30 Cd1 N4 O7)n'
_symmetry_cell_setting           triclinic
_symmetry_space_group_name_H-M   'P 1'
_symmetry_Int_Tables_number      1
_space_group_name_Hall           'P 1'
loop_
_symmetry_equiv_pos_site_id
_symmetry_equiv_pos_as_xyz
1 x,y,z
_cell_length_a                   8.3360(5)
_cell_length_b                   10.5155(6)
_cell_length_c                   13.4550(8)
_cell_angle_alpha                105.088(5)
_cell_angle_beta                 107.870(5)
_cell_angle_gamma                90.637(5)
_cell_volume                     1078.5
loop_
_atom_site_label
_atom_site_type_symbol
_atom_site_fract_x
_atom_site_fract_y
_atom_site_fract_z
_atom_site_U_iso_or_equiv
_atom_site_thermal_displace_type
C2 C 0.0195(10) 0.0314(10) 0.4118(7) 0.0698 Uani
H3 H 0.0355 0.0535 0.3527 0.0840 Uiso
C21 C 0.2888(10) 0.0020(7) 0.6883(7) 0.0587 Uani
N3 N 0.3782(6) 0.1360(5) 0.7450(4) 0.0393 Uani
C23 C 0.1375(9) 0.0025(7) 0.5910(6) 0.0462 Uani
C24 C 0.6754(10) 0.0714(8) 0.7717(7) 0.0604 Uani
H19 H 0.6606 0.0361 0.6957 0.0910 Uiso
H20 H 0.7870 0.1167 0.8084 0.0910 Uiso
H21 H 0.6615 0.0005 0.8020 0.0910 Uiso
N4 N 0.5824(6) 0.2928(5) 0.8405(4) 0.0312 Uani
C25 C 0.5475(8) 0.1656(6) 0.7855(5) 0.0354 Uani
C26 C 0.3038(8) 0.2498(7) 0.7768(6) 0.0426 Uani
H22 H 0.1884 0.2584 0.7602 0.0520 Uiso
C27 C 0.1589(10) 0.0341(11) 0.5016(7) 0.0734 Uani
H23 H 0.2670 0.0572 0.5019 0.0880 Uiso
C28 C 0.4290(8) 0.3444(6) 0.8356(5) 0.0380 Uani
H24 H 0.4157 0.4314 0.8683 0.0450 Uiso
Cd7 Cd 0.83109(4) 0.40575(3) 0.93841(3) 0.0207 Uani
C31 C 0.7200(7) 0.8365(5) 0.0011(5) 0.0288 Uani
C32 C 0.8092(7) 0.9645(6) 0.0401(5) 0.0307 Uani
H27 H 0.9268 0.9733 0.0610 0.0370 Uiso
O6 O 0.9765(5) 0.7379(4) 0.0390(4) 0.0445 Uani
O5 O 0.7372(6) 0.6050(4) 0.9524(4) 0.0400 Uani
C29 C 0.5482(7) 0.8238(5) 0.9715(5) 0.0284 Uani
H25 H 0.4902 0.7396 0.9444 0.0340 Uiso
C30 C 0.2756(7) 0.9257(5) 0.9527(5) 0.0310 Uani
H26 H 0.2152 0.8426 0.9290 0.0370 Uiso
C33 C 0.4555(7) 0.9356(5) 0.9809(5) 0.0263 Uani
C34 C 0.8181(7) 0.7161(6) 0.9968(5) 0.0302 Uani
O3 O 0.8354(6) 0.4177(4) 0.1084(3) 0.0411 Uani
C6 C 0.9486(8) 0.4754(6) 0.3007(5) 0.0331 Uani
C14 C 0.8453(9) 0.3721(6) 0.3065(5) 0.0421 Uani
H12 H 0.7759 0.3135 0.2426 0.0500 Uiso
C17 C 0.9498(8) 0.4862(6) 0.1910(5) 0.0322 Uani
C35 C 0.9505(8) 0.4471(6) 0.5032(5) 0.0346 Uani
C36 C 0.9545(8) 0.4358(6) 0.6062(5) 0.0357 Uani
H28 H 0.8895 0.3662 0.6104 0.0430 Uiso
O7 O 0.9349(6) 0.4367(5) 0.8090(4) 0.0447 Uani
C38 C 0.8455(10) 0.3568(7) 0.4049(6) 0.0476 Uani
H29 H 0.7774 0.2878 0.4074 0.0570 Uiso
H16 H 0.3669 0.9433 0.6644 0.0700 Uiso
H17 H 0.2511 0.9679 0.7387 0.0700 Uiso
Cd4 Cd 0.16891(4) 0.59425(3) 0.06159(3) 0.0207 Uani
C1 C 0.7112(10) 0.9980(7) 0.3117(7) 0.0587 Uani
O1 O 0.2628(6) 0.3950(4) 0.0476(4) 0.0400 Uani
C3 C 0.0495(8) 0.5529(6) 0.4968(5) 0.0346 Uani
C4 C 0.0455(8) 0.5642(6) 0.3938(5) 0.0357 Uani
H4 H 0.1105 0.6338 0.3896 0.0430 Uiso
N1 N 0.6218(6) 0.8640(5) 0.2550(4) 0.0393 Uani
O4 O 0.0651(6) 0.5633(5) 0.1910(4) 0.0447 Uani
C5 C 0.4518(7) 0.1762(5) 0.0285(5) 0.0284 Uani
H5 H 0.5098 0.2604 0.0556 0.0340 Uiso
C7 C 0.8625(9) 0.9975(7) 0.4090(6) 0.0462 Uani
C8 C 0.7244(7) 0.0743(5) 0.0473(5) 0.0310 Uani
H6 H 0.7848 0.1574 0.0710 0.0370 Uiso
C9 C 0.3246(10) 0.9286(8) 0.2283(7) 0.0604 Uani
H7 H 0.3394 0.9639 0.3043 0.0910 Uiso
H8 H 0.2130 0.8833 0.1916 0.0910 Uiso
H9 H 0.3385 0.9995 0.1980 0.0910 Uiso
N2 N 0.4176(6) 0.7072(5) 0.1595(4) 0.0312 Uani
C12 C 0.1545(10) 0.6432(7) 0.5951(6) 0.0476 Uani
H11 H 0.2226 0.7122 0.5926 0.0570 Uiso
C13 C 0.5445(7) 0.0644(5) 0.0191(5) 0.0263 Uani
C15 C 0.1819(7) 0.2839(6) 0.0032(5) 0.0302 Uani
C16 C 0.4525(8) 0.8344(6) 0.2145(5) 0.0354 Uani
C18 C 0.6962(8) 0.7502(7) 0.2232(6) 0.0426 Uani
H13 H 0.8116 0.7416 0.2398 0.0520 Uiso
C19 C 0.8411(10) 0.9659(11) 0.4984(7) 0.0734 Uani
H14 H 0.7330 0.9428 0.4981 0.0880 Uiso
C20 C 0.5710(8) 0.6556(6) 0.1644(5) 0.0380 Uani
H15 H 0.5843 0.5686 0.1317 0.0450 Uiso
C22 C 0.9805(10) 0.9686(10) 0.5882(7) 0.0698 Uani
H18 H 0.9645 0.9465 0.6473 0.0840 Uiso
C37 C 0.0514(8) 0.5246(6) 0.6993(5) 0.0331 Uani
C39 C 0.1547(9) 0.6279(6) 0.6935(5) 0.0421 Uani
H30 H 0.2241 0.6865 0.7574 0.0500 Uiso
C40 C 0.0502(8) 0.5138(6) 0.8090(5) 0.0322 Uani
O8 O 0.1646(6) 0.5823(4) 0.8916(3) 0.0411 Uani
O2 O 0.0235(5) 0.2621(4) 0.9610(4) 0.0445 Uani
C10 C 0.2800(7) 0.1635(5) 0.9989(5) 0.0288 Uani
C11 C 0.1908(7) 0.0355(6) 0.9599(5) 0.0307 Uani
H10 H 0.0732 0.0267 0.9390 0.0370 Uiso
H1 H 0.6331 0.0567 0.3356 0.0700 Uiso
H2 H 0.7489 0.0321 0.2613 0.0700 Uiso
loop_
_atom_site_aniso_label
_atom_site_aniso_U_11
_atom_site_aniso_U_22
_atom_site_aniso_U_33
_atom_site_aniso_U_23
_atom_site_aniso_U_13
_atom_site_aniso_U_12
C2 0.047 0.115 0.046 0.029 0.008 -0.015
C21 0.053 0.045 0.054 0.009 -0.012 -0.016
N3 0.03 0.038 0.037 0.004 -0.002 -0.005
C23 0.04 0.047 0.036 0.004 -0.003 -0.013
C24 0.046 0.048 0.06 -0.012 0.001 0.011
N4 0.026 0.033 0.028 0.002 0.005 0.001
C25 0.03 0.038 0.029 0.004 0.001 0
C26 0.023 0.05 0.05 0.016 0.003 0.005
C27 0.033 0.126 0.056 0.031 0.003 -0.016
C28 0.031 0.038 0.041 0.007 0.009 0.006
Cd7 0.02 0.02 0.0209 0.0051 0.0052 0.00465
C31 0.031 0.025 0.034 0.011 0.013 0.013
C32 0.021 0.032 0.041 0.014 0.009 0.009
O6 0.031 0.038 0.067 0.02 0.014 0.0206
O5 0.043 0.025 0.05 0.009 0.013 0.0157
C29 0.032 0.02 0.035 0.009 0.012 0.009
C30 0.028 0.023 0.042 0.008 0.012 0.004
C33 0.028 0.023 0.031 0.012 0.01 0.009
C34 0.035 0.029 0.033 0.014 0.015 0.016
O3 0.054 0.046 0.023 0.008 0.013 0.006
C6 0.044 0.034 0.023 0.008 0.013 0.007
C14 0.056 0.043 0.021 0.004 0.008 -0.009
C17 0.043 0.033 0.026 0.011 0.016 0.015
C35 0.043 0.033 0.026 0.007 0.01 -0.005
C36 0.044 0.038 0.031 0.014 0.017 -0.006
O7 0.052 0.056 0.034 0.016 0.022 0.001
C38 0.066 0.039 0.033 0.003 0.016 -0.02
Cd4 0.02 0.02 0.0209 0.0051 0.0052 0.00465
C1 0.053 0.045 0.054 0.009 -0.012 -0.016
O1 0.043 0.025 0.05 0.009 0.013 0.0157
C3 0.043 0.033 0.026 0.007 0.01 -0.005
C4 0.044 0.038 0.031 0.014 0.017 -0.006
N1 0.03 0.038 0.037 0.004 -0.002 -0.005
O4 0.052 0.056 0.034 0.016 0.022 0.001
C5 0.032 0.02 0.035 0.009 0.012 0.009
C7 0.04 0.047 0.036 0.004 -0.003 -0.013
C8 0.028 0.023 0.042 0.008 0.012 0.004
C9 0.046 0.048 0.06 -0.012 0.001 0.011
N2 0.026 0.033 0.028 0.002 0.005 0.001
C12 0.066 0.039 0.033 0.003 0.016 -0.02
C13 0.028 0.023 0.031 0.012 0.01 0.009
C15 0.035 0.029 0.033 0.014 0.015 0.016
C16 0.03 0.038 0.029 0.004 0.001 0
C18 0.023 0.05 0.05 0.016 0.003 0.005
C19 0.033 0.126 0.056 0.031 0.003 -0.016
C20 0.031 0.038 0.041 0.007 0.009 0.006
C22 0.047 0.115 0.046 0.029 0.008 -0.015
C37 0.044 0.034 0.023 0.008 0.013 0.007
C39 0.056 0.043 0.021 0.004 0.008 -0.009
C40 0.043 0.033 0.026 0.011 0.016 0.015
O8 0.054 0.046 0.023 0.008 0.013 0.006
O2 0.031 0.038 0.067 0.02 0.014 0.0206
C10 0.031 0.025 0.034 0.011 0.013 0.013
C11 0.021 0.032 0.041 0.014 0.009 0.009
loop_
_geom_bond_atom_site_label_1
_geom_bond_atom_site_label_2
_geom_bond_site_symmetry_1
_geom_bond_site_symmetry_2
C2 H3 1_555 1_555
N3 C21 1_555 1_555
C23 C21 1_555 1_555
C24 H19 1_555 1_555
H20 C24 1_555 1_555
H21 C24 1_555 1_555
N4 C25 1_555 1_555
C25 N3 1_555 1_555
C26 N3 1_555 1_555
H22 C26 1_555 1_555
C27 C2 1_555 1_555
H23 C27 1_555 1_555
C28 N4 1_555 1_555
H24 C28 1_555 1_555
Cd7 N4 1_555 1_555
C23 C27 1_555 1_555
C24 C25 1_555 1_555
C26 C28 1_555 1_555
H27 C32 1_555 1_555
C31 C32 1_555 1_555
O5 C34 1_555 1_555
C29 H25 1_555 1_555
H26 C30 1_555 1_555
Cd7 O5 1_555 1_555
C29 C33 1_555 1_555
C30 C33 1_555 1_555
O3 C17 1_555 1_555
C14 C6 1_555 1_555
H12 C14 1_555 1_555
C36 C35 1_555 1_555
H28 C36 1_555 1_555
C38 C14 1_555 1_555
H29 C38 1_555 1_555
Cd7 O7 1_555 1_555
C6 C17 1_555 1_555
C35 C38 1_555 1_555
Cd4 O1 1_555 1_555
O1 C15 1_555 1_555
C3 C4 1_555 1_555
C4 H4 1_555 1_555
N1 C1 1_555 1_555
O4 Cd4 1_555 1_555
C5 H5 1_555 1_555
C7 C1 1_555 1_555
C8 H6 1_555 1_555
C9 H7 1_555 1_555
H8 C9 1_555 1_555
H9 C9 1_555 1_555
N2 Cd4 1_555 1_555
C12 C3 1_555 1_555
H11 C12 1_555 1_555
C13 C5 1_555 1_555
C16 N1 1_555 1_555
C18 N1 1_555 1_555
H13 C18 1_555 1_555
C19 C7 1_555 1_555
H14 C19 1_555 1_555
C20 N2 1_555 1_555
H15 C20 1_555 1_555
C22 C19 1_555 1_555
H18 C22 1_555 1_555
C39 C12 1_555 1_555
H30 C39 1_555 1_555
C40 C37 1_555 1_555
O8 C40 1_555 1_555
C8 C13 1_555 1_555
C9 C16 1_555 1_555
N2 C16 1_555 1_555
C18 C20 1_555 1_555
C37 C39 1_555 1_555
C11 C10 1_555 1_555
H10 C11 1_555 1_555

#END
