
###############################################################################
#
# This file contains modified crystal structure data generated from the
# MOF subset of the Cambridge Structural Database (CSD) v543 
# hosted by the Cambridge Crystallographic Data Centre (CCDC).
#
# This work is licensed under the Creative Commons
# Attribution-NonCommercial-ShareAlike 4.0 International License.
# To view a copy of this license, visit
# http://creativecommons.org/licenses/by-nc-sa/4.0/
# or send a letter to
# Creative Commons, PO Box 1866, Mountain View, CA 94042, USA.
#
# CIF created using the CSD Python API on 29 September 2022
# The structure has been converted into the P1 space group
# The structure has a 3D framework
# The original CSD entry QOWLOE01 is in the monoclinic crystal system
# The framework has been calculated to contain at least 10.0% void space
# The void calculation uses a probe of radius 1.32A, grid spacing 0.4
#
###############################################################################

data_QOWLOE01
_chemical_formula_moiety         '(C18 Ca3 O20)n'
_symmetry_cell_setting           triclinic
_symmetry_space_group_name_H-M   'P 1'
_symmetry_Int_Tables_number      1
_space_group_name_Hall           'P 1'
loop_
_symmetry_equiv_pos_site_id
_symmetry_equiv_pos_as_xyz
1 x,y,z
_cell_length_a                   9.767(2)
_cell_length_b                   7.3994(12)
_cell_length_c                   6.236(4)
_cell_angle_alpha                90
_cell_angle_beta                 100.86(4)
_cell_angle_gamma                90
_cell_volume                     442.604
loop_
_atom_site_label
_atom_site_type_symbol
_atom_site_fract_x
_atom_site_fract_y
_atom_site_fract_z
Ca9 Ca 0.32108(12) -0.0000 0.0356(2)
Ca7 Ca 0.67892(12) 0.0000 0.9644(2)
O1 O 0.0553(5) 0.5000 0.2487(8)
O2 O 0.3875(3) 0.6803(4) 0.0173(6)
O3 O 0.1799(6) 0.5000 0.5866(10)
C1 C 0.0704(7) 0.5000 0.4548(13)
C2 C 0.5000 0.6064(9) 0.0000
C4 C 0.5000 0.3936(9) 0.0000
O8 O 0.3875(3) 0.3197(4) 0.0173(6)
Ca3 Ca 0.17892(12) 0.5000 0.9644(2)
Ca5 Ca 0.82108(12) 0.5000 0.0356(2)
Ca9_2 Ca 0.32108(12) 1.0000 0.0356(2)
C2_2 C 0.5000 0.6064(9) 1.0000
O6 O 0.6125(3) 0.6803(4) 0.9827(6)
O7 O 0.6125(3) 0.3197(4) 0.9827(6)
C4_2 C 0.5000 0.3936(9) 1.0000
Ca7_2 Ca 0.67892(12) 1.0000 0.9644(2)
O12 O 0.1125(3) 0.1803(4) 0.9827(6)
O14 O 0.1125(3) 0.8197(4) 0.9827(6)
O4 O 0.9447(5) 0.5000 0.7513(8)
O5 O 0.8201(6) 0.5000 0.4134(10)
C3 C 0.9296(7) 0.5000 0.5452(13)
O11 O 0.8875(3) 0.1803(4) 0.0173(6)
O15 O 0.8875(3) 0.8197(4) 0.0173(6)
C2_3 C -0.0000 0.1064(9) 0.0000
C2_4 C -0.0000 0.1064(9) 1.0000
C4_3 C 0.0000 0.8936(9) 0.0000
C4_4 C -0.0000 0.8936(9) 1.0000
O1_2 O 0.5553(5) -0.0000 0.2487(8)
O3_2 O 0.6799(6) -0.0000 0.5866(10)
C1_2 C 0.5704(7) -0.0000 0.4548(13)
C2_5 C 1.0000 0.1064(9) 0.0000
O4_2 O 0.4447(5) -0.0000 0.7513(8)
O5_2 O 0.3201(6) 0.0000 0.4134(10)
C3_2 C 0.4296(7) -0.0000 0.5452(13)
C2_6 C 1.0000 0.1064(9) 1.0000
O1_3 O 0.5553(5) 1.0000 0.2487(8)
O3_3 O 0.6799(6) 1.0000 0.5866(10)
C1_3 C 0.5704(7) 1.0000 0.4548(13)
O4_3 O 0.4447(5) 1.0000 0.7513(8)
O5_3 O 0.3201(6) 1.0000 0.4134(10)
C3_3 C 0.4296(7) 1.0000 0.5452(13)
C4_5 C 1.0000 0.8936(9) 0.0000
C4_6 C 1.0000 0.8936(9) 1.0000
loop_
_geom_bond_atom_site_label_1
_geom_bond_atom_site_label_2
_geom_bond_site_symmetry_1
_geom_bond_site_symmetry_2
O1 C1 1_555 1_555
O3 C1 1_555 1_555
C2 O2 1_555 1_555
C4 C2 1_555 1_555
Ca3 O3 1_555 1_555
Ca9 O8 1_555 1_555
Ca9_2 O2 1_555 1_555
C4 O8 1_555 1_555
O6 C2_2 1_555 1_555
O7 C4_2 1_555 1_555
C4_2 C2_2 1_555 1_555
Ca7 O7 1_555 1_555
Ca7_2 O6 1_555 1_555
O12 Ca3 1_555 1_555
O14 Ca3 1_555 1_555
O4 C3 1_555 1_555
O5 C3 1_555 1_555
O11 Ca5 1_555 1_555
O15 Ca5 1_555 1_555
O5 Ca5 1_555 1_555
O12 C2_4 1_555 1_555
O14 C4_4 1_555 1_555
O1_2 C1_2 1_555 1_555
O3_2 C1_2 1_555 1_555
C1_2 C3_2 1_555 1_555
C2_5 O11 1_555 1_555
O4_2 C3_2 1_555 1_555
O5_2 C3_2 1_555 1_555
Ca9 O1_2 1_555 1_555
Ca7 O3_2 1_555 1_555
O4_2 Ca7 1_555 1_555
O5_2 Ca9 1_555 1_555
O1_3 C1_3 1_555 1_555
O3_3 C1_3 1_555 1_555
C1_3 C3_3 1_555 1_555
O4_3 C3_3 1_555 1_555
O5_3 C3_3 1_555 1_555
Ca9_2 O1_3 1_555 1_555
Ca7_2 O3_3 1_555 1_555
O4_3 Ca7_2 1_555 1_555
O5_3 Ca9_2 1_555 1_555
C4_5 O15 1_555 1_555

#END
