
###############################################################################
#
# This file contains modified crystal structure data generated from the
# MOF subset of the Cambridge Structural Database (CSD) v543 
# hosted by the Cambridge Crystallographic Data Centre (CCDC).
#
# This work is licensed under the Creative Commons
# Attribution-NonCommercial-ShareAlike 4.0 International License.
# To view a copy of this license, visit
# http://creativecommons.org/licenses/by-nc-sa/4.0/
# or send a letter to
# Creative Commons, PO Box 1866, Mountain View, CA 94042, USA.
#
# CIF created using the CSD Python API on 29 September 2022
# The structure has been converted into the P1 space group
# The structure has a 3D framework
# The original CSD entry QOYPUS is in the monoclinic crystal system
# The framework has been calculated to contain at least 10.0% void space
# The void calculation uses a probe of radius 1.32A, grid spacing 0.4
#
###############################################################################

data_QOYPUS
_chemical_formula_moiety         '(C98 H64 Cu8 O34)n'
_symmetry_cell_setting           triclinic
_symmetry_space_group_name_H-M   'P 1'
_symmetry_Int_Tables_number      1
_space_group_name_Hall           'P 1'
loop_
_symmetry_equiv_pos_site_id
_symmetry_equiv_pos_as_xyz
1 x,y,z
_cell_length_a                   18.0119(2)
_cell_length_b                   25.5207(3)
_cell_length_c                   5.78740(10)
_cell_angle_alpha                90
_cell_angle_beta                 98.9520(10)
_cell_angle_gamma                90
_cell_volume                     2627.93
loop_
_atom_site_label
_atom_site_type_symbol
_atom_site_fract_x
_atom_site_fract_y
_atom_site_fract_z
C19 C 0.1831(2) 0.17331(15) 0.0855(6)
H14 H 0.1464 0.1851 0.1696
O8 O 0.33264(12) 0.05483(9) 0.3467(4)
C21 C 0.28369(16) 0.11339(11) 0.0467(5)
C22 C 0.2298(2) 0.13196(15) 0.1717(6)
H16 H 0.2246 0.1167 0.3144
C23 C 0.33225(16) 0.06799(11) 0.1356(5)
Cu8 Cu 0.41706(2) 0.021916(14) 0.54900(7)
O4 O -0.0000 0.50911(11) 0.2500
H1 H -0.0000 0.5420 0.2500
C1 C -0.0000 0.38606(15) 0.2500
C2 C -0.0000 0.32717(15) 0.2500
C5 C -0.0000 0.21883(16) 0.2500
H3 H -0.0000 0.1824 0.2500
O6 O 0.04078(12) 0.40820(7) 0.4176(4)
O7 O 0.08809(14) 0.21494(8) 0.5876(5)
C14 C 0.04507(15) 0.30063(11) 0.4312(5)
H10 H 0.0743 0.3189 0.5515
C15 C 0.04501(16) 0.24607(11) 0.4265(5)
C16 C 0.13835(19) 0.23938(12) 0.7730(6)
H11 H 0.1108 0.2537 0.8896
H12 H 0.1661 0.2675 0.7124
C17 C 0.19089(17) 0.19675(12) 0.8770(6)
C18 C 0.2471(2) 0.17959(14) 0.7579(6)
H13 H 0.2546 0.1965 0.6210
C20 C 0.2926(2) 0.13774(14) 0.8384(6)
H15 H 0.3290 0.1259 0.7532
O9 O 0.36917(13) 0.04616(9) 0.9937(4)
Cu2 Cu 0.08294(2) 0.478084(14) 0.45100(7)
O10 O 0.13083(13) 0.54616(9) 0.5063(4)
O13 O 0.16736(12) 0.44517(9) 0.6533(4)
O15 O -0.0000 0.49089(11) 0.7500
Cu5 Cu 0.08294(2) 0.521916(14) 0.95100(7)
Cu3 Cu 0.41706(2) 0.978084(14) 0.04900(7)
Cu1 Cu 0.91706(2) 0.478084(14) 0.04900(7)
O3 O 0.95922(12) 0.40820(7) 0.0824(4)
O4_2 O 1.0000 0.50911(11) 0.2500
H1_2 H 1.0000 0.5420 0.2500
C1_2 C 1.0000 0.38606(15) 0.2500
C2_2 C 1.0000 0.32717(15) 0.2500
C3 C 0.95493(15) 0.30063(11) 0.0688(5)
C4 C 0.95499(16) 0.24607(11) 0.0735(5)
C5_2 C 1.0000 0.21883(16) 0.2500
H3_2 H 1.0000 0.1824 0.2500
Cu6 Cu 0.91706(2) 0.521916(14) 0.54900(7)
O15_2 O 1.0000 0.49089(11) 0.7500
O1 O 0.63083(13) 0.04616(9) 0.5063(4)
O2 O 0.66736(12) 0.05483(9) 0.1533(4)
O5 O 0.91191(14) 0.21494(8) 0.9124(5)
H2 H 0.9257 0.3189 0.9485
C6 C 0.86165(19) 0.23938(12) 0.7270(6)
H4 H 0.8892 0.2537 0.6104
H5 H 0.8339 0.2675 0.7876
C7 C 0.80911(17) 0.19675(12) 0.6230(6)
C8 C 0.7529(2) 0.17959(14) 0.7421(6)
H6 H 0.7454 0.1965 0.8790
C9 C 0.7074(2) 0.13774(14) 0.6616(6)
H7 H 0.6710 0.1259 0.7468
C10 C 0.71631(16) 0.11339(11) 0.4533(5)
C11 C 0.7702(2) 0.13196(15) 0.3283(6)
H8 H 0.7754 0.1167 0.1856
C12 C 0.8169(2) 0.17331(15) 0.4145(6)
H9 H 0.8536 0.1851 0.3304
C13 C 0.66775(16) 0.06799(11) 0.3644(5)
O11 O 0.86917(13) 0.54616(9) 0.9937(4)
O12 O 0.83264(12) 0.44517(9) 0.8467(4)
Cu7 Cu 0.58294(2) 0.021916(14) 0.95100(7)
Cu4 Cu 0.58294(2) 0.978084(14) 0.45100(7)
O4_3 O 0.5000 0.00911(11) 0.2500
H1_3 H 0.5000 0.0420 0.2500
C19_2 C 0.6831(2) 0.67331(15) 0.0855(6)
H14_2 H 0.6464 0.6851 0.1696
O8_2 O 0.83264(12) 0.55483(9) 0.3467(4)
C21_2 C 0.78369(16) 0.61339(11) 0.0467(5)
C22_2 C 0.7298(2) 0.63196(15) 0.1717(6)
H16_2 H 0.7246 0.6167 0.3144
C23_2 C 0.83225(16) 0.56799(11) 0.1356(5)
O3_2 O 0.45922(12) 0.90820(7) 0.0824(4)
C1_3 C 0.5000 0.88606(15) 0.2500
C2_3 C 0.5000 0.82717(15) 0.2500
C3_2 C 0.45493(15) 0.80063(11) 0.0688(5)
C4_2 C 0.45499(16) 0.74607(11) 0.0735(5)
C5_3 C 0.5000 0.71883(16) 0.2500
H3_3 H 0.5000 0.6824 0.2500
O6_2 O 0.54078(12) 0.90820(7) 0.4176(4)
O7_2 O 0.58809(14) 0.71494(8) 0.5876(5)
C14_2 C 0.54507(15) 0.80063(11) 0.4312(5)
H10_2 H 0.5743 0.8189 0.5515
C15_2 C 0.54501(16) 0.74607(11) 0.4265(5)
C16_2 C 0.63835(19) 0.73938(12) 0.7730(6)
H11_2 H 0.6108 0.7537 0.8896
H12_2 H 0.6661 0.7675 0.7124
C17_2 C 0.69089(17) 0.69675(12) 0.8770(6)
C18_2 C 0.7471(2) 0.67959(14) 0.7579(6)
H13_2 H 0.7546 0.6965 0.6210
C20_2 C 0.7926(2) 0.63774(14) 0.8384(6)
H15_2 H 0.8290 0.6259 0.7532
O13_2 O 0.66736(12) 0.94517(9) 0.6533(4)
O15_3 O 0.5000 0.99089(11) 0.7500
O2_2 O 0.16736(12) 0.55483(9) 0.1533(4)
O5_2 O 0.41191(14) 0.71494(8) 0.9124(5)
H2_2 H 0.4257 0.8189 0.9485
C6_2 C 0.36165(19) 0.73938(12) 0.7270(6)
H4_2 H 0.3892 0.7537 0.6104
H5_2 H 0.3339 0.7675 0.7876
C7_2 C 0.30911(17) 0.69675(12) 0.6230(6)
C8_2 C 0.2529(2) 0.67959(14) 0.7421(6)
H6_2 H 0.2454 0.6965 0.8790
C9_2 C 0.2074(2) 0.63774(14) 0.6616(6)
H7_2 H 0.1710 0.6259 0.7468
C10_2 C 0.21631(16) 0.61339(11) 0.4533(5)
C11_2 C 0.2702(2) 0.63196(15) 0.3283(6)
H8_2 H 0.2754 0.6167 0.1856
C12_2 C 0.3169(2) 0.67331(15) 0.4145(6)
H9_2 H 0.3536 0.6851 0.3304
C13_2 C 0.16775(16) 0.56799(11) 0.3644(5)
O12_2 O 0.33264(12) 0.94517(9) 0.8467(4)
O1_2 O 0.36917(13) 0.95384(9) 0.4937(4)
O5_3 O 0.08809(14) 0.78506(8) 0.0876(5)
H2_3 H 0.0743 0.6811 0.0515
C6_3 C 0.13835(19) 0.76062(12) 0.2730(6)
H4_3 H 0.1108 0.7463 0.3896
H5_3 H 0.1661 0.7325 0.2124
C7_3 C 0.19089(17) 0.80325(12) 0.3770(6)
C8_3 C 0.2471(2) 0.82041(14) 0.2579(6)
H6_3 H 0.2546 0.8035 0.1210
C9_3 C 0.2926(2) 0.86226(14) 0.3384(6)
H7_3 H 0.3290 0.8741 0.2532
C10_3 C 0.28369(16) 0.88661(11) 0.5467(5)
C11_3 C 0.2298(2) 0.86804(15) 0.6717(6)
H8_3 H 0.2246 0.8833 0.8144
C12_3 C 0.1831(2) 0.82669(15) 0.5855(6)
H9_3 H 0.1464 0.8149 0.6696
C13_3 C 0.33225(16) 0.93201(11) 0.6356(5)
O11_2 O 0.13083(13) 0.45384(9) 0.0063(4)
O3_3 O 0.04078(12) 0.59180(7) 0.9176(4)
H1_4 H 0.0000 0.4580 0.7500
C1_4 C 0.0000 0.61394(15) 0.7500
C2_4 C 0.0000 0.67283(15) 0.7500
C3_3 C 0.04507(15) 0.69937(11) 0.9312(5)
C4_3 C 0.04501(16) 0.75393(11) 0.9265(5)
C5_4 C 0.0000 0.78117(16) 0.7500
H3_4 H 0.0000 0.8176 0.7500
H1_5 H 1.0000 0.4580 0.7500
C1_5 C 1.0000 0.61394(15) 0.7500
C2_5 C 1.0000 0.67283(15) 0.7500
C5_5 C 1.0000 0.78117(16) 0.7500
H3_5 H 1.0000 0.8176 0.7500
O6_3 O 0.95922(12) 0.59180(7) 0.5824(4)
O7_3 O 0.91191(14) 0.78506(8) 0.4124(5)
C14_3 C 0.95493(15) 0.69937(11) 0.5688(5)
H10_3 H 0.9257 0.6811 0.4485
C15_3 C 0.95499(16) 0.75393(11) 0.5735(5)
C16_3 C 0.86165(19) 0.76062(12) 0.2270(6)
H11_3 H 0.8892 0.7463 0.1104
H12_3 H 0.8339 0.7325 0.2876
C17_3 C 0.80911(17) 0.80325(12) 0.1230(6)
C18_3 C 0.7529(2) 0.82041(14) 0.2421(6)
H13_3 H 0.7454 0.8035 0.3790
C20_3 C 0.7074(2) 0.86226(14) 0.1616(6)
H15_3 H 0.6710 0.8741 0.2468
O9_2 O 0.63083(13) 0.95384(9) 0.0063(4)
O10_2 O 0.86917(13) 0.45384(9) 0.4937(4)
C19_3 C 0.8169(2) 0.82669(15) 0.9145(6)
H14_3 H 0.8536 0.8149 0.8304
C21_3 C 0.71631(16) 0.88661(11) 0.9533(5)
C22_3 C 0.7702(2) 0.86804(15) 0.8283(6)
H16_3 H 0.7754 0.8833 0.6856
C23_3 C 0.66775(16) 0.93201(11) 0.8644(5)
O5_4 O 0.58809(14) 0.28506(8) 0.0876(5)
H2_4 H 0.5743 0.1811 0.0515
C6_4 C 0.63835(19) 0.26062(12) 0.2730(6)
H4_4 H 0.6108 0.2463 0.3896
H5_4 H 0.6661 0.2325 0.2124
C7_4 C 0.69089(17) 0.30325(12) 0.3770(6)
C8_4 C 0.7471(2) 0.32041(14) 0.2579(6)
H6_4 H 0.7546 0.3035 0.1210
C9_4 C 0.7926(2) 0.36226(14) 0.3384(6)
H7_4 H 0.8290 0.3741 0.2532
C10_4 C 0.78369(16) 0.38661(11) 0.5467(5)
C11_4 C 0.7298(2) 0.36804(15) 0.6717(6)
H8_4 H 0.7246 0.3833 0.8144
C12_4 C 0.6831(2) 0.32669(15) 0.5855(6)
H9_4 H 0.6464 0.3149 0.6696
C13_4 C 0.83225(16) 0.43201(11) 0.6356(5)
O3_4 O 0.54078(12) 0.09180(7) 0.9176(4)
C1_6 C 0.5000 0.11394(15) 0.7500
C2_6 C 0.5000 0.17283(15) 0.7500
C3_4 C 0.54507(15) 0.19937(11) 0.9312(5)
C4_4 C 0.54501(16) 0.25393(11) 0.9265(5)
C5_6 C 0.5000 0.28117(16) 0.7500
H3_6 H 0.5000 0.3176 0.7500
O6_4 O 0.45922(12) 0.09180(7) 0.5824(4)
O7_4 O 0.41191(14) 0.28506(8) 0.4124(5)
C14_4 C 0.45493(15) 0.19937(11) 0.5688(5)
H10_4 H 0.4257 0.1811 0.4485
C15_4 C 0.45499(16) 0.25393(11) 0.5735(5)
C16_4 C 0.36165(19) 0.26062(12) 0.2270(6)
H11_4 H 0.3892 0.2463 0.1104
H12_4 H 0.3339 0.2325 0.2876
C17_4 C 0.30911(17) 0.30325(12) 0.1230(6)
C18_4 C 0.2529(2) 0.32041(14) 0.2421(6)
H13_4 H 0.2454 0.3035 0.3790
C20_4 C 0.2074(2) 0.36226(14) 0.1616(6)
H15_4 H 0.1710 0.3741 0.2468
C19_4 C 0.3169(2) 0.32669(15) 0.9145(6)
H14_4 H 0.3536 0.3149 0.8304
C21_4 C 0.21631(16) 0.38661(11) 0.9533(5)
C22_4 C 0.2702(2) 0.36804(15) 0.8283(6)
H16_4 H 0.2754 0.3833 0.6856
C23_4 C 0.16775(16) 0.43201(11) 0.8644(5)
H1_6 H 0.5000 0.9580 0.7500
loop_
_geom_bond_atom_site_label_1
_geom_bond_atom_site_label_2
_geom_bond_site_symmetry_1
_geom_bond_site_symmetry_2
H14 C19 1_555 1_555
O8 C23 1_555 1_555
C22 C19 1_555 1_555
H16 C22 1_555 1_555
C23 C21 1_555 1_555
Cu8 O8 1_555 1_555
C21 C22 1_555 1_555
H1 O4 1_555 1_555
C1 C2 1_555 1_555
H3 C5 1_555 1_555
O6 C1 1_555 1_555
O7 C15 1_555 1_555
C14 C2 1_555 1_555
H10 C14 1_555 1_555
C15 C5 1_555 1_555
C16 O7 1_555 1_555
H11 C16 1_555 1_555
H12 C16 1_555 1_555
C17 C16 1_555 1_555
C18 C17 1_555 1_555
H13 C18 1_555 1_555
C20 C18 1_555 1_555
H15 C20 1_555 1_555
Cu2 O4 1_555 1_555
O10 Cu2 1_555 1_555
O13 Cu2 1_555 1_555
O15 Cu2 1_555 1_555
O6 Cu2 1_555 1_555
C14 C15 1_555 1_555
Cu5 O15 1_555 1_555
Cu1 O3 1_555 1_555
O3 C1_2 1_555 1_555
O4_2 Cu1 1_555 1_555
H1_2 O4_2 1_555 1_555
C1_2 C2_2 1_555 1_555
C2_2 C3 1_555 1_555
C4 C3 1_555 1_555
C5_2 C4 1_555 1_555
H3_2 C5_2 1_555 1_555
Cu6 O4_2 1_555 1_555
Cu6 O15_2 1_555 1_555
O1 C13 1_555 1_555
O2 C13 1_555 1_555
C6 O5 1_555 1_555
H4 C6 1_555 1_555
H5 C6 1_555 1_555
C7 C6 1_555 1_555
C8 C7 1_555 1_555
H6 C8 1_555 1_555
C9 C8 1_555 1_555
H7 C9 1_555 1_555
C10 C9 1_555 1_555
C11 C10 1_555 1_555
H8 C11 1_555 1_555
C12 C7 1_555 1_555
H9 C12 1_555 1_555
C13 C10 1_555 1_555
C11 C12 1_555 1_555
H1_3 O4_3 1_555 1_555
Cu8 O4_3 1_555 1_555
H14_2 C19_2 1_555 1_555
O8_2 C23_2 1_555 1_555
C22_2 C19_2 1_555 1_555
H16_2 C22_2 1_555 1_555
C23_2 C21_2 1_555 1_555
Cu6 O8_2 1_555 1_555
C21_2 C22_2 1_555 1_555
Cu3 O3_2 1_555 1_555
O3_2 C1_3 1_555 1_555
C1_3 C2_3 1_555 1_555
C2_3 C3_2 1_555 1_555
C4_2 C3_2 1_555 1_555
C5_3 C4_2 1_555 1_555
H3_3 C5_3 1_555 1_555
O6_2 C1_3 1_555 1_555
O7_2 C15_2 1_555 1_555
C14_2 C2_3 1_555 1_555
H10_2 C14_2 1_555 1_555
C15_2 C5_3 1_555 1_555
C16_2 O7_2 1_555 1_555
H11_2 C16_2 1_555 1_555
H12_2 C16_2 1_555 1_555
C17_2 C16_2 1_555 1_555
C18_2 C17_2 1_555 1_555
H13_2 C18_2 1_555 1_555
C20_2 C18_2 1_555 1_555
H15_2 C20_2 1_555 1_555
O13_2 Cu4 1_555 1_555
O15_3 Cu4 1_555 1_555
O6_2 Cu4 1_555 1_555
C14_2 C15_2 1_555 1_555
O10 C13_2 1_555 1_555
O2_2 C13_2 1_555 1_555
C6_2 O5_2 1_555 1_555
H4_2 C6_2 1_555 1_555
H5_2 C6_2 1_555 1_555
C7_2 C6_2 1_555 1_555
C8_2 C7_2 1_555 1_555
H6_2 C8_2 1_555 1_555
C9_2 C8_2 1_555 1_555
H7_2 C9_2 1_555 1_555
C10_2 C9_2 1_555 1_555
C11_2 C10_2 1_555 1_555
H8_2 C11_2 1_555 1_555
C12_2 C7_2 1_555 1_555
H9_2 C12_2 1_555 1_555
C13_2 C10_2 1_555 1_555
C11_2 C12_2 1_555 1_555
O1_2 C13_3 1_555 1_555
O12_2 C13_3 1_555 1_555
C6_3 O5_3 1_555 1_555
H4_3 C6_3 1_555 1_555
H5_3 C6_3 1_555 1_555
C7_3 C6_3 1_555 1_555
C8_3 C7_3 1_555 1_555
H6_3 C8_3 1_555 1_555
C9_3 C8_3 1_555 1_555
H7_3 C9_3 1_555 1_555
C10_3 C9_3 1_555 1_555
C11_3 C10_3 1_555 1_555
H8_3 C11_3 1_555 1_555
C12_3 C7_3 1_555 1_555
H9_3 C12_3 1_555 1_555
C13_3 C10_3 1_555 1_555
C11_3 C12_3 1_555 1_555
Cu5 O3_3 1_555 1_555
O3_3 C1_4 1_555 1_555
H1_4 O15 1_555 1_555
C1_4 C2_4 1_555 1_555
C2_4 C3_3 1_555 1_555
C4_3 C3_3 1_555 1_555
C5_4 C4_3 1_555 1_555
H3_4 C5_4 1_555 1_555
H1_5 O15_2 1_555 1_555
C1_5 C2_5 1_555 1_555
H3_5 C5_5 1_555 1_555
O6_3 C1_5 1_555 1_555
O7_3 C15_3 1_555 1_555
C14_3 C2_5 1_555 1_555
H10_3 C14_3 1_555 1_555
C15_3 C5_5 1_555 1_555
C16_3 O7_3 1_555 1_555
H11_3 C16_3 1_555 1_555
H12_3 C16_3 1_555 1_555
C17_3 C16_3 1_555 1_555
C18_3 C17_3 1_555 1_555
H13_3 C18_3 1_555 1_555
C20_3 C18_3 1_555 1_555
H15_3 C20_3 1_555 1_555
O10_2 Cu6 1_555 1_555
O6_3 Cu6 1_555 1_555
C14_3 C15_3 1_555 1_555
H14_3 C19_3 1_555 1_555
O13_2 C23_3 1_555 1_555
C22_3 C19_3 1_555 1_555
H16_3 C22_3 1_555 1_555
C23_3 C21_3 1_555 1_555
C21_3 C22_3 1_555 1_555
O10_2 C13_4 1_555 1_555
O12 C13_4 1_555 1_555
C6_4 O5_4 1_555 1_555
H4_4 C6_4 1_555 1_555
H5_4 C6_4 1_555 1_555
C7_4 C6_4 1_555 1_555
C8_4 C7_4 1_555 1_555
H6_4 C8_4 1_555 1_555
C9_4 C8_4 1_555 1_555
H7_4 C9_4 1_555 1_555
C10_4 C9_4 1_555 1_555
C11_4 C10_4 1_555 1_555
H8_4 C11_4 1_555 1_555
C12_4 C7_4 1_555 1_555
H9_4 C12_4 1_555 1_555
C13_4 C10_4 1_555 1_555
C11_4 C12_4 1_555 1_555
Cu7 O3_4 1_555 1_555
O3_4 C1_6 1_555 1_555
C1_6 C2_6 1_555 1_555
C2_6 C3_4 1_555 1_555
C4_4 C3_4 1_555 1_555
C5_6 C4_4 1_555 1_555
H3_6 C5_6 1_555 1_555
O6_4 C1_6 1_555 1_555
O7_4 C15_4 1_555 1_555
C14_4 C2_6 1_555 1_555
H10_4 C14_4 1_555 1_555
C15_4 C5_6 1_555 1_555
C16_4 O7_4 1_555 1_555
H11_4 C16_4 1_555 1_555
H12_4 C16_4 1_555 1_555
C17_4 C16_4 1_555 1_555
C18_4 C17_4 1_555 1_555
H13_4 C18_4 1_555 1_555
C20_4 C18_4 1_555 1_555
H15_4 C20_4 1_555 1_555
O6_4 Cu8 1_555 1_555
C14_4 C15_4 1_555 1_555
H14_4 C19_4 1_555 1_555
O13 C23_4 1_555 1_555
C22_4 C19_4 1_555 1_555
H16_4 C22_4 1_555 1_555
C23_4 C21_4 1_555 1_555
C21_4 C22_4 1_555 1_555
H1_6 O15_3 1_555 1_555

#END
