
###############################################################################
#
# This file contains modified crystal structure data generated from the
# MOF subset of the Cambridge Structural Database (CSD) v543 
# hosted by the Cambridge Crystallographic Data Centre (CCDC).
#
# This work is licensed under the Creative Commons
# Attribution-NonCommercial-ShareAlike 4.0 International License.
# To view a copy of this license, visit
# http://creativecommons.org/licenses/by-nc-sa/4.0/
# or send a letter to
# Creative Commons, PO Box 1866, Mountain View, CA 94042, USA.
#
# CIF created using the CSD Python API on 29 September 2022
# The structure has been converted into the P1 space group
# The structure has a 3D framework
# The original CSD entry QOZPIG is in the orthorhombic crystal system
# The framework has been calculated to contain at least 10.0% void space
# The void calculation uses a probe of radius 1.32A, grid spacing 0.4
#
###############################################################################

data_QOZPIG
_chemical_formula_moiety         '(C56 H32 Cd2 N32 O20)n'
_symmetry_cell_setting           triclinic
_symmetry_space_group_name_H-M   'P 1'
_symmetry_Int_Tables_number      1
_space_group_name_Hall           'P 1'
loop_
_symmetry_equiv_pos_site_id
_symmetry_equiv_pos_as_xyz
1 x,y,z
_cell_length_a                   14.919(7)
_cell_length_b                   9.376(4)
_cell_length_c                   19.138(9)
_cell_angle_alpha                90
_cell_angle_beta                 90
_cell_angle_gamma                90
_cell_volume                     2677.03
loop_
_atom_site_label
_atom_site_type_symbol
_atom_site_fract_x
_atom_site_fract_y
_atom_site_fract_z
Cd1 Cd 0.0000 0.19059(7) 0.2500
N9 N 0.1156(4) 0.0561(6) 0.2118(3)
O7 O 0.0584(3) 0.3757(5) 0.1770(2)
O10 O 0.0544(3) 0.2450(6) 0.3607(2)
Cd1_2 Cd 1.0000 0.19059(7) 0.2500
N2 N 0.8844(4) 0.0561(6) 0.2882(3)
C2 C 0.8499(4) 0.0554(7) 0.3509(3)
H2 H 0.8747 0.1012 0.3908
O1 O 0.6444(3) 0.1712(5) 0.3672(3)
C3 C 0.5679(4) 0.0271(6) 0.4523(3)
C4 C 0.6424(4) 0.0627(7) 0.4023(3)
C7 C 0.5644(4) 0.1019(7) 0.5144(3)
H4 H 0.6085 0.1723 0.5241
N5 N 0.1711(4) 0.0212(7) 0.7559(3)
N7 N 0.2262(3) 0.0206(6) 0.6501(3)
C8 C 0.2376(5) 0.0640(8) 0.7172(4)
H5 H 0.2872 0.1180 0.7336
N8 N 0.2881(3) 0.0322(6) 0.5961(3)
H7 H 0.2830 0.0968 0.5630
C12 C 0.4972(4) 0.0754(6) 0.5628(3)
O5 O 0.4416(3) 0.1243(5) 0.6770(2)
C13 C 0.4982(4) 0.1569(7) 0.6309(3)
O6 O 0.5544(3) 0.2550(6) 0.6393(2)
Cd2 Cd 0.5000 0.30941(7) 0.7500
O8 O 0.9416(3) 0.3757(5) 0.3230(2)
O9 O 0.9456(3) 0.2450(6) 0.1393(2)
N1 N 0.8289(4) 0.9788(7) 0.2441(3)
N3 N 0.7738(3) 0.9794(6) 0.3499(3)
C1 C 0.7624(5) 0.9360(8) 0.2828(4)
H1 H 0.7128 0.8820 0.2664
N4 N 0.7119(3) 0.9678(6) 0.4039(3)
H3 H 0.7170 0.9032 0.4370
C5 C 0.5028(4) 0.9246(6) 0.4372(3)
O2 O 0.5584(3) 0.8757(5) 0.3230(2)
C6 C 0.5018(4) 0.8431(7) 0.3691(3)
O3 O 0.4456(3) 0.7450(6) 0.3607(2)
N6 N 0.1156(4) 0.9439(6) 0.7118(3)
C9 C 0.1501(4) 0.9446(7) 0.6491(3)
H6 H 0.1253 0.8988 0.6092
O4 O 0.3556(3) 0.8288(5) 0.6328(3)
C10 C 0.4321(4) 0.9729(6) 0.5477(3)
C11 C 0.3576(4) 0.9373(7) 0.5977(3)
C14 C 0.4356(4) 0.8981(7) 0.4856(3)
H8 H 0.3915 0.8277 0.4759
Cd3 Cd 0.0000 0.80941(7) 0.7500
Cd4 Cd 0.5000 0.69059(7) 0.2500
Cd3_2 Cd 1.0000 0.80941(7) 0.7500
N5_2 N 0.3289(4) 0.4788(7) 0.2559(3)
N6_2 N 0.3844(4) 0.5561(6) 0.2118(3)
N7_2 N 0.2738(3) 0.4794(6) 0.1501(3)
C8_2 C 0.2624(5) 0.4360(8) 0.2172(4)
H5_2 H 0.2128 0.3820 0.2336
C9_2 C 0.3499(4) 0.5554(7) 0.1491(3)
H6_2 H 0.3747 0.6012 0.1092
O4_2 O 0.1444(3) 0.6712(5) 0.1328(3)
N8_2 N 0.2119(3) 0.4678(6) 0.0961(3)
H7_2 H 0.2170 0.4032 0.0630
C10_2 C 0.0679(4) 0.5271(6) 0.0477(3)
C11_2 C 0.1424(4) 0.5627(7) 0.0977(3)
C12_2 C 0.0028(4) 0.4246(6) 0.0628(3)
C13_2 C 0.0018(4) 0.3431(7) 0.1309(3)
O3_2 O 0.0544(3) 0.7550(6) 0.8607(2)
C14_2 C 0.0644(4) 0.6019(7) 0.9856(3)
H8_2 H 0.1085 0.6723 0.9759
C7_2 C 0.9356(4) 0.3981(7) 0.0144(3)
H4_2 H 0.8915 0.3277 0.0241
N1_2 N 0.6711(4) 0.5212(7) 0.7441(3)
N2_2 N 0.6156(4) 0.4439(6) 0.7882(3)
N3_2 N 0.7262(3) 0.5206(6) 0.8499(3)
C1_2 C 0.7376(5) 0.5640(8) 0.7828(4)
H1_2 H 0.7872 0.6180 0.7664
C2_2 C 0.6501(4) 0.4446(7) 0.8509(3)
H2_2 H 0.6253 0.3988 0.8908
O1_2 O 0.8556(3) 0.3288(5) 0.8672(3)
N4_2 N 0.7881(3) 0.5322(6) 0.9039(3)
H3_2 H 0.7830 0.5968 0.9370
C3_2 C 0.9321(4) 0.4729(6) 0.9523(3)
C4_2 C 0.8576(4) 0.4373(7) 0.9023(3)
C5_2 C 0.9972(4) 0.5754(6) 0.9372(3)
O2_2 O 0.9416(3) 0.6243(5) 0.8230(2)
C6_2 C 0.9982(4) 0.6569(7) 0.8691(3)
N9_2 N 0.3844(4) 0.4439(6) 0.7118(3)
O8_2 O 0.5584(3) 0.1243(5) 0.8230(2)
O10_2 O 0.4456(3) 0.2550(6) 0.8607(2)
N1_3 N 0.3289(4) 0.5212(7) 0.7559(3)
N3_3 N 0.2738(3) 0.5206(6) 0.6501(3)
C1_3 C 0.2624(5) 0.5640(8) 0.7172(4)
H1_3 H 0.2128 0.6180 0.7336
C2_3 C 0.3499(4) 0.4446(7) 0.6491(3)
H2_3 H 0.3747 0.3988 0.6092
O1_3 O 0.1444(3) 0.3288(5) 0.6328(3)
N4_3 N 0.2119(3) 0.5322(6) 0.5961(3)
H3_3 H 0.2170 0.5968 0.5630
C3_3 C 0.0679(4) 0.4729(6) 0.5477(3)
C4_3 C 0.1424(4) 0.4373(7) 0.5977(3)
C5_3 C 0.0028(4) 0.5754(6) 0.5628(3)
O2_3 O 0.0584(3) 0.6243(5) 0.6770(2)
C6_3 C 0.0018(4) 0.6569(7) 0.6309(3)
C7_3 C 0.0644(4) 0.3981(7) 0.4856(3)
H4_3 H 0.1085 0.3277 0.4759
O3_3 O 0.9456(3) 0.7550(6) 0.6393(2)
N5_3 N 0.6711(4) 0.4788(7) 0.2441(3)
N6_3 N 0.6156(4) 0.5561(6) 0.2882(3)
N7_3 N 0.7262(3) 0.4794(6) 0.3499(3)
C8_3 C 0.7376(5) 0.4360(8) 0.2828(4)
H5_3 H 0.7872 0.3820 0.2664
C9_3 C 0.6501(4) 0.5554(7) 0.3509(3)
H6_3 H 0.6253 0.6012 0.3908
O4_3 O 0.8556(3) 0.6712(5) 0.3672(3)
N8_3 N 0.7881(3) 0.4678(6) 0.4039(3)
H7_3 H 0.7830 0.4032 0.4370
C10_3 C 0.9321(4) 0.5271(6) 0.4523(3)
C11_3 C 0.8576(4) 0.5627(7) 0.4023(3)
C12_3 C 0.9972(4) 0.4246(6) 0.4372(3)
C13_3 C 0.9982(4) 0.3431(7) 0.3691(3)
C14_3 C 0.9356(4) 0.6019(7) 0.5144(3)
H8_3 H 0.8915 0.6723 0.5241
C2_4 C 0.1501(4) 0.0554(7) 0.1491(3)
H2_4 H 0.1253 0.1012 0.1092
O1_4 O 0.3556(3) 0.1712(5) 0.1328(3)
C3_4 C 0.4321(4) 0.0271(6) 0.0477(3)
C4_4 C 0.3576(4) 0.0627(7) 0.0977(3)
C7_4 C 0.4356(4) 0.1019(7) 0.9856(3)
H4_4 H 0.3915 0.1723 0.9759
N5_4 N 0.8289(4) 0.0212(7) 0.7441(3)
N7_4 N 0.7738(3) 0.0206(6) 0.8499(3)
C8_4 C 0.7624(5) 0.0640(8) 0.7828(4)
H5_4 H 0.7128 0.1180 0.7664
N8_4 N 0.7119(3) 0.0322(6) 0.9039(3)
H7_4 H 0.7170 0.0968 0.9370
C12_4 C 0.5028(4) 0.0754(6) 0.9372(3)
C13_4 C 0.5018(4) 0.1569(7) 0.8691(3)
N1_4 N 0.1711(4) 0.9788(7) 0.2559(3)
N3_4 N 0.2262(3) 0.9794(6) 0.1501(3)
C1_4 C 0.2376(5) 0.9360(8) 0.2172(4)
H1_4 H 0.2872 0.8820 0.2336
N4_4 N 0.2881(3) 0.9678(6) 0.0961(3)
H3_4 H 0.2830 0.9032 0.0630
C5_4 C 0.4972(4) 0.9246(6) 0.0628(3)
O2_4 O 0.4416(3) 0.8757(5) 0.1770(2)
C6_4 C 0.4982(4) 0.8431(7) 0.1309(3)
O3_4 O 0.5544(3) 0.7450(6) 0.1393(2)
C14_4 C 0.5644(4) 0.8981(7) 0.0144(3)
H8_4 H 0.6085 0.8277 0.0241
N6_4 N 0.8844(4) 0.9439(6) 0.7882(3)
C9_4 C 0.8499(4) 0.9446(7) 0.8509(3)
H6_4 H 0.8747 0.8988 0.8908
O4_4 O 0.6444(3) 0.8288(5) 0.8672(3)
C10_4 C 0.5679(4) 0.9729(6) 0.9523(3)
C11_4 C 0.6424(4) 0.9373(7) 0.9023(3)
loop_
_geom_bond_atom_site_label_1
_geom_bond_atom_site_label_2
_geom_bond_site_symmetry_1
_geom_bond_site_symmetry_2
N9 Cd1 1_555 1_555
O7 Cd1 1_555 1_555
O10 Cd1 1_555 1_555
Cd1_2 N2 1_555 1_555
N2 C2 1_555 1_555
H2 C2 1_555 1_555
O1 C4 1_555 1_555
C3 C4 1_555 1_555
C7 C3 1_555 1_555
H4 C7 1_555 1_555
N7 C8 1_555 1_555
C8 N5 1_555 1_555
H5 C8 1_555 1_555
N8 N7 1_555 1_555
H7 N8 1_555 1_555
C12 C7 1_555 1_555
O5 C13 1_555 1_555
C13 C12 1_555 1_555
O6 C13 1_555 1_555
Cd2 O5 1_555 1_555
O8 Cd1_2 1_555 1_555
O9 Cd1_2 1_555 1_555
O6 Cd2 1_555 1_555
N3 C1 1_555 1_555
C1 N1 1_555 1_555
H1 C1 1_555 1_555
N4 N3 1_555 1_555
H3 N4 1_555 1_555
O2 C6 1_555 1_555
C6 C5 1_555 1_555
O3 C6 1_555 1_555
N6 C9 1_555 1_555
H6 C9 1_555 1_555
O4 C11 1_555 1_555
C10 C11 1_555 1_555
C14 C5 1_555 1_555
H8 C14 1_555 1_555
Cd3 N6 1_555 1_555
Cd4 O2 1_555 1_555
O3 Cd4 1_555 1_555
C10 C14 1_555 1_555
N5_2 N6_2 1_555 1_555
N6_2 C9_2 1_555 1_555
N7_2 C8_2 1_555 1_555
C8_2 N5_2 1_555 1_555
H5_2 C8_2 1_555 1_555
C9_2 N7_2 1_555 1_555
H6_2 C9_2 1_555 1_555
O4_2 C11_2 1_555 1_555
N8_2 N7_2 1_555 1_555
H7_2 N8_2 1_555 1_555
C10_2 C11_2 1_555 1_555
C11_2 N8_2 1_555 1_555
O7 C13_2 1_555 1_555
C13_2 C12_2 1_555 1_555
Cd4 N6_2 1_555 1_555
C10_2 C12_2 1_555 1_555
H8_2 C14_2 1_555 1_555
O3_2 Cd3 1_555 1_555
H4_2 C7_2 1_555 1_555
Cd2 N2_2 1_555 1_555
N1_2 N2_2 1_555 1_555
N2_2 C2_2 1_555 1_555
N3_2 C1_2 1_555 1_555
C1_2 N1_2 1_555 1_555
H1_2 C1_2 1_555 1_555
C2_2 N3_2 1_555 1_555
H2_2 C2_2 1_555 1_555
O1_2 C4_2 1_555 1_555
N4_2 N3_2 1_555 1_555
H3_2 N4_2 1_555 1_555
C3_2 C4_2 1_555 1_555
C4_2 N4_2 1_555 1_555
C5_2 C3_2 1_555 1_555
O2_2 C6_2 1_555 1_555
C6_2 C5_2 1_555 1_555
Cd3_2 O2_2 1_555 1_555
N9_2 Cd2 1_555 1_555
O8_2 Cd2 1_555 1_555
O10_2 Cd2 1_555 1_555
N1_3 N9_2 1_555 1_555
N9_2 C2_3 1_555 1_555
N3_3 C1_3 1_555 1_555
C1_3 N1_3 1_555 1_555
H1_3 C1_3 1_555 1_555
C2_3 N3_3 1_555 1_555
H2_3 C2_3 1_555 1_555
O1_3 C4_3 1_555 1_555
N4_3 N3_3 1_555 1_555
H3_3 N4_3 1_555 1_555
C3_3 C4_3 1_555 1_555
C4_3 N4_3 1_555 1_555
C5_3 C3_3 1_555 1_555
O2_3 C6_3 1_555 1_555
C6_3 C5_3 1_555 1_555
C7_3 C3_3 1_555 1_555
H4_3 C7_3 1_555 1_555
Cd3 O2_3 1_555 1_555
N5_3 N6_3 1_555 1_555
N6_3 C9_3 1_555 1_555
N7_3 C8_3 1_555 1_555
C8_3 N5_3 1_555 1_555
H5_3 C8_3 1_555 1_555
C9_3 N7_3 1_555 1_555
H6_3 C9_3 1_555 1_555
O4_3 C11_3 1_555 1_555
N8_3 N7_3 1_555 1_555
H7_3 N8_3 1_555 1_555
C10_3 C11_3 1_555 1_555
C11_3 N8_3 1_555 1_555
O8 C13_3 1_555 1_555
C13_3 C12_3 1_555 1_555
H8_3 C14_3 1_555 1_555
Cd4 N6_3 1_555 1_555
O3_3 Cd3_2 1_555 1_555
C10_3 C12_3 1_555 1_555
C10_3 C14_3 1_555 1_555
N9 C2_4 1_555 1_555
H2_4 C2_4 1_555 1_555
O1_4 C4_4 1_555 1_555
C3_4 C4_4 1_555 1_555
H4_4 C7_4 1_555 1_555
N7_4 C8_4 1_555 1_555
C8_4 N5_4 1_555 1_555
H5_4 C8_4 1_555 1_555
N8_4 N7_4 1_555 1_555
H7_4 N8_4 1_555 1_555
C12_4 C7_4 1_555 1_555
O8_2 C13_4 1_555 1_555
C13_4 C12_4 1_555 1_555
O10_2 C13_4 1_555 1_555
N3_4 C1_4 1_555 1_555
C1_4 N1_4 1_555 1_555
H1_4 C1_4 1_555 1_555
N4_4 N3_4 1_555 1_555
H3_4 N4_4 1_555 1_555
O2_4 C6_4 1_555 1_555
C6_4 C5_4 1_555 1_555
O3_4 C6_4 1_555 1_555
C14_4 C5_4 1_555 1_555
H8_4 C14_4 1_555 1_555
Cd4 O2_4 1_555 1_555
O3_4 Cd4 1_555 1_555
N6_4 C9_4 1_555 1_555
H6_4 C9_4 1_555 1_555
O4_4 C11_4 1_555 1_555
C10_4 C11_4 1_555 1_555
Cd3_2 N6_4 1_555 1_555

#END
