####################################################################### 
# 
# This file contains crystal structure data downloaded from the 
# Cambridge Structural Database (CSD) hosted by the Cambridge 
# Crystallographic Data Centre (CCDC).
# 
# Full information about CCDC data access policies and citation 
# guidelines are available at http://www.ccdc.cam.ac.uk/access/V1 
# 
# Audit and citation data items may have been added by the CCDC. 
# Please retain this information to preserve the provenance of 
# this file and to allow appropriate attribution of the data. 
# 
#######################################################################

data_CAU-11
_audit_block_doi                 10.5517/cc145sps
_database_code_depnum_ccdc_archive 'CCDC 1048255'
loop_
_citation_id
_citation_doi
_citation_year
1 10.1021/ic502242j 2015
_audit_update_record             
;
2015-02-06 deposited with the CCDC.	2024-07-12 downloaded from the CCDC.
;
_audit_creation_method           
'Created with CONVERT.DLL (www.crystalimpact.com)'
_audit_creation_date             2014-11-21
_chemical_formula_sum            'Al4 O28 S4 C56'
_chemical_formula_weight         1356.789
_cell_length_a                   6.6111(5)
_cell_length_b                   12.8888(12)
_cell_length_c                   20.0197(14)
_cell_angle_alpha                90.000
_cell_angle_beta                 90.000
_cell_angle_gamma                90.000
_cell_volume                     1705.9(2)
_symmetry_int_tables_number      62
_symmetry_space_group_name_H-M   'P n m a'
_symmetry_space_group_name_Hall  -P_2ac_2n

loop_
_symmetry_equiv_pos_site_id
_symmetry_equiv_pos_as_xyz
1 x,y,z
2 1/2-x,-y,1/2+z
3 1/2+x,1/2-y,1/2-z
4 -x,1/2+y,-z
5 -x,-y,-z
6 1/2+x,y,1/2-z
7 1/2-x,1/2+y,1/2+z
8 x,1/2-y,z

loop_
_atom_type_symbol
_atom_type_oxidation_number
_atom_type_radius_bond
Al ? 1.200
O ? 1.200
S ? 1.200
C ? 1.200


loop_
_atom_site_label
_atom_site_type_symbol
_atom_site_fract_x
_atom_site_fract_y
_atom_site_fract_z
_atom_site_occupancy
_atom_site_symmetry_multiplicity
_atom_site_Wyckoff_symbol
_atom_site_attached_hydrogens
_atom_site_calc_flag
_atom_site_thermal_displace_type
_atom_site_u_iso_or_equiv
Al1 Al 0.0865(29) 0.7500 0.2492(7) 1.000 4 c ? d ? ?
O5 O -0.1671(50) 0.7500 0.2065(14) 1.000 4 c ? d ? ?
S1 S 0.3809(13) 0.2500 -0.0155(3) 1.000 4 c ? d ? ?
O3 O 0.2012(29) 0.2500 -0.0649(6) 1.000 4 c ? d ? ?
O4 O 0.5922(25) 0.2500 -0.0510(6) 1.000 4 c ? d ? ?
C1 C 0.8267 0.9802 0.9060 1.000 8 d ? d ? ?
C2 C 0.8196 0.8978 0.9481 1.000 8 d ? d ? ?
C3 C 0.6403 0.8510 0.9614 1.000 8 d ? d ? ?
C4 C 0.4681 0.8867 0.9327 1.000 8 d ? d ? ?
C5 C 0.4751 0.9692 0.8906 1.000 8 d ? d ? ?
C6 C 0.6544 1.0159 0.8773 1.000 8 d ? d ? ?
C7 C 0.6623 1.1071 0.8308 1.000 8 d ? d ? ?
O1 O 0.5083 1.1451 0.8106 1.000 8 d ? d ? ?
O2 O 0.8225 1.1421 0.8139 1.000 8 d ? d ? ?


loop_
_geom_bond_atom_site_label_1
_geom_bond_atom_site_label_2
_geom_bond_site_symmetry_1
_geom_bond_site_symmetry_2
_geom_bond_distance
_geom_bond_publ_flag
O5 O3 . 4 2.8445(307) no
_chemical_name_systematic        CAU-11
