
###############################################################################
#
# This file contains modified crystal structure data generated from the
# MOF subset of the Cambridge Structural Database (CSD) v543 
# hosted by the Cambridge Crystallographic Data Centre (CCDC).
#
# This work is licensed under the Creative Commons
# Attribution-NonCommercial-ShareAlike 4.0 International License.
# To view a copy of this license, visit
# http://creativecommons.org/licenses/by-nc-sa/4.0/
# or send a letter to
# Creative Commons, PO Box 1866, Mountain View, CA 94042, USA.
#
# CIF created using the CSD Python API on 29 September 2022
# The structure has been converted into the P1 space group
# The structure has a 3D framework
# The original CSD entry QUCZIZ is in the orthorhombic crystal system
# The original CSD entry QUCZIZ is in a Sohncke space group
# The framework has been calculated to contain at least 10.0% void space
# The void calculation uses a probe of radius 1.32A, grid spacing 0.4
#
###############################################################################

data_QUCZIZ
_chemical_formula_moiety         '(C80 H88 Cd4 N12 O26)n'
_symmetry_cell_setting           triclinic
_symmetry_space_group_name_H-M   'P 1'
_symmetry_Int_Tables_number      1
_space_group_name_Hall           'P 1'
loop_
_symmetry_equiv_pos_site_id
_symmetry_equiv_pos_as_xyz
1 x,y,z
_cell_length_a                   12.9705(10)
_cell_length_b                   12.9057(11)
_cell_length_c                   23.0960(12)
_cell_angle_alpha                90
_cell_angle_beta                 90
_cell_angle_gamma                90
_cell_volume                     3866.12
loop_
_atom_site_label
_atom_site_type_symbol
_atom_site_fract_x
_atom_site_fract_y
_atom_site_fract_z
C6 C 0.0285(2) 0.0362(3) 0.23378(11)
H4 H 0.0683 0.0990 0.2280
H19 H 0.1053 0.0422 0.1308
O8 O 0.00162(16) 0.19090(16) 0.06885(8)
O4 O 0.01132(14) 0.76752(16) 0.34848(7)
C14 C 0.1329(2) 0.8932(2) 0.15661(12)
H10 H 0.2038 0.9168 0.1592
H11 H 0.1299 0.8355 0.1298
N3 N 0.09416(18) 0.8602(2) 0.21581(9)
C15 C 0.0961(2) 0.9541(2) 0.25531(12)
H12 H 0.0741 0.9339 0.2938
H13 H 0.1660 0.9802 0.2580
C19 C 0.0639(3) 0.9803(3) 0.13614(12)
H20 H 0.0350 0.9618 0.0988
Cd3 Cd 0.128439(13) 0.636779(14) 0.356596(6)
Cd1 Cd 0.871561(13) 0.136779(14) 0.143404(6)
O1 O 0.85345(13) 0.13588(15) 0.33758(8)
N1 N 0.97822(15) 0.00432(17) 0.17660(8)
O6 O 0.74315(15) 0.07295(18) 0.21456(9)
C4 C 0.77961(17) 0.0833(2) 0.35418(10)
C5 C 0.5923(2) 0.0469(3) 0.34918(16)
H2 H 0.5847 0.0412 0.3908
H5 H 0.9754 0.0506 0.2622
N2 N 0.68592(15) 0.1003(2) 0.33359(9)
O7 O 0.78823(13) 0.23341(15) 0.21752(7)
H6 H 0.7108 0.0453 0.4640
C10 C 0.73977(18) 0.1599(3) 0.23663(10)
C16 C 0.66901(19) 0.1807(3) 0.29004(12)
H14 H 0.6823 0.2496 0.3063
C18 C 0.5554(3) 0.1695(3) 0.27267(17)
H17 H 0.5255 0.2366 0.2640
H18 H 0.5485 0.1253 0.2389
C20 C 0.5063(3) 0.1242(4) 0.3212(2)
H21 H 0.4455 0.0858 0.3095
H22 H 0.4860 0.1770 0.3489
O9 O 0.75527(13) 0.17528(18) 0.07294(7)
O10 O 0.98868(14) 0.26752(16) 0.15152(7)
O11 O 0.82125(15) 0.02282(16) 0.06403(7)
O2 O 0.99838(16) 0.69090(16) 0.43115(8)
C1 C 0.86737(19) 0.92119(19) 0.37911(9)
H1 H 0.8992 0.9245 0.3431
O3 O 0.74473(13) 0.82472(18) 0.57294(7)
C2 C 0.97184(19) 0.7585(2) 0.39736(10)
O5 O 0.67875(15) 0.97718(16) 0.56403(7)
C3 C 0.72981(17) 0.9060(2) 0.54510(10)
H3 H 0.5893 0.9783 0.3320
C7 C 0.79737(17) 0.9984(2) 0.39411(9)
C8 C 0.89139(16) 0.84009(16) 0.41549(9)
C9 C 0.75447(16) 0.9932(2) 0.45086(10)
C11 C 0.77847(18) 0.9097(2) 0.48627(9)
C12 C 0.84584(17) 0.8365(2) 0.46916(10)
H7 H 0.8619 0.7824 0.4942
C13 C 0.9866(2) 0.8199(2) 0.21114(13)
H8 H 0.9628 0.7957 0.2486
H9 H 0.9840 0.7624 0.1841
C17 C 0.9166(2) 0.9105(2) 0.18926(13)
H15 H 0.8805 0.8889 0.1545
H16 H 0.8654 0.9266 0.2185
Cd2 Cd 0.628439(13) 0.863221(14) 0.643404(6)
C3_2 C 0.77019(17) 0.0940(2) 0.04510(10)
O2_2 O 0.50162(16) 0.30910(16) 0.93115(8)
C1_2 C 0.63263(19) 0.07881(19) 0.87911(9)
H1_2 H 0.6008 0.0755 0.8431
C2_2 C 0.52816(19) 0.2415(2) 0.89736(10)
O4_2 O 0.48868(14) 0.23248(16) 0.84848(7)
H3_2 H 0.9107 0.0217 0.8320
C7_2 C 0.70263(17) 0.0016(2) 0.89411(9)
C8_2 C 0.60861(16) 0.15991(16) 0.91549(9)
C9_2 C 0.74553(16) 0.0068(2) 0.95086(10)
C11_2 C 0.72153(18) 0.0903(2) 0.98627(9)
C12_2 C 0.65416(17) 0.1635(2) 0.96916(10)
H7_2 H 0.6381 0.2176 0.9942
C13_2 C 0.5134(2) 0.1801(2) 0.71114(13)
H8_2 H 0.5372 0.2043 0.7486
H9_2 H 0.5160 0.2376 0.6841
C14_2 C 0.3671(2) 0.1068(2) 0.65661(12)
H10_2 H 0.2962 0.0832 0.6592
H11_2 H 0.3701 0.1645 0.6298
N3_2 N 0.40584(18) 0.1398(2) 0.71581(9)
C15_2 C 0.4039(2) 0.0459(2) 0.75531(12)
H12_2 H 0.4259 0.0661 0.7938
H13_2 H 0.3340 0.0198 0.7580
C17_2 C 0.5834(2) 0.0895(2) 0.68926(13)
H15_2 H 0.6195 0.1111 0.6545
H16_2 H 0.6346 0.0734 0.7185
C19_2 C 0.4361(3) 0.0197(3) 0.63614(12)
H20_2 H 0.4650 0.0382 0.5988
Cd3_2 Cd 0.371561(13) 0.363221(14) 0.856596(6)
O1_2 O 0.64655(13) 0.86412(15) 0.83758(8)
N1_2 N 0.52178(15) 0.99568(17) 0.67660(8)
O6_2 O 0.75685(15) 0.92705(18) 0.71456(9)
C4_2 C 0.72039(17) 0.9167(2) 0.85418(10)
C5_2 C 0.9077(2) 0.9531(3) 0.84918(16)
H2_2 H 0.9153 0.9588 0.8908
C6_2 C 0.4715(2) 0.9638(3) 0.73378(11)
H4_2 H 0.4317 0.9010 0.7280
H5_2 H 0.5246 0.9494 0.7622
N2_2 N 0.81408(15) 0.8997(2) 0.83359(9)
O7_2 O 0.71177(13) 0.76659(15) 0.71752(7)
H6_2 H 0.7892 0.9547 0.9640
C10_2 C 0.76023(18) 0.8401(3) 0.73663(10)
C16_2 C 0.83099(19) 0.8193(3) 0.79004(12)
H14_2 H 0.8177 0.7504 0.8063
C18_2 C 0.9446(3) 0.8305(3) 0.77267(17)
H17_2 H 0.9745 0.7634 0.7640
H18_2 H 0.9515 0.8747 0.7389
H19_2 H 0.3947 0.9578 0.6308
C20_2 C 0.9937(3) 0.8758(4) 0.8212(2)
O8_2 O 0.49838(16) 0.80910(16) 0.56885(8)
O10_2 O 0.51132(14) 0.73248(16) 0.65152(7)
O1_3 O 0.14655(13) 0.63588(15) 0.16242(8)
C1_3 C 0.13263(19) 0.42119(19) 0.12089(9)
H1_3 H 0.1008 0.4245 0.1569
C2_3 C 0.02816(19) 0.2585(2) 0.10264(10)
N1_3 N 0.02178(15) 0.50432(17) 0.32340(8)
O6_3 O 0.25685(15) 0.57295(18) 0.28544(9)
C4_3 C 0.22039(17) 0.5833(2) 0.14582(10)
C5_3 C 0.4077(2) 0.5469(3) 0.15082(16)
H2_3 H 0.4153 0.5412 0.1092
H3_3 H 0.4107 0.4783 0.1680
H5_3 H 0.0246 0.5506 0.2378
C7_3 C 0.20263(17) 0.4984(2) 0.10589(9)
N2_3 N 0.31408(15) 0.6003(2) 0.16641(9)
C8_3 C 0.10861(16) 0.34009(16) 0.08451(9)
O7_3 O 0.21177(13) 0.73341(15) 0.28248(7)
C9_3 C 0.24553(16) 0.4932(2) 0.04914(10)
H6_3 H 0.2892 0.5453 0.0360
C10_3 C 0.26023(18) 0.6599(3) 0.26337(10)
C11_3 C 0.22153(18) 0.4097(2) 0.01373(9)
C12_3 C 0.15416(17) 0.3365(2) 0.03084(10)
H7_3 H 0.1381 0.2824 0.0058
C13_3 C 0.0134(2) 0.3199(2) 0.28886(13)
H8_3 H 0.0372 0.2957 0.2514
H9_3 H 0.0160 0.2624 0.3159
C16_3 C 0.33099(19) 0.6807(3) 0.20996(12)
H14_3 H 0.3177 0.7496 0.1937
C17_3 C 0.0834(2) 0.4105(2) 0.31074(13)
H15_3 H 0.1195 0.3889 0.3455
H16_3 H 0.1346 0.4266 0.2815
C18_3 C 0.4446(3) 0.6695(3) 0.22733(17)
H17_3 H 0.4745 0.7366 0.2360
H18_3 H 0.4515 0.6253 0.2611
C20_3 C 0.4937(3) 0.6242(4) 0.1788(2)
H21_2 H 0.5545 0.5858 0.1905
H22_2 H 0.5140 0.6770 0.1511
O9_2 O 0.24473(13) 0.67528(18) 0.42706(7)
O11_2 O 0.17875(15) 0.52282(16) 0.43597(7)
O3_2 O 0.25527(13) 0.32472(18) 0.92706(7)
O5_2 O 0.32125(15) 0.47718(16) 0.93597(7)
C3_3 C 0.27019(17) 0.4060(2) 0.95490(10)
C6_3 C 0.9715(2) 0.5362(3) 0.26622(11)
H4_3 H 0.9317 0.5990 0.2720
C14_3 C 0.8671(2) 0.3932(2) 0.34339(12)
H10_3 H 0.7962 0.4168 0.3408
H11_3 H 0.8701 0.3355 0.3702
N3_3 N 0.90584(18) 0.3602(2) 0.28419(9)
C15_3 C 0.9039(2) 0.4541(2) 0.24469(12)
H12_3 H 0.9259 0.4339 0.2062
H13_3 H 0.8340 0.4802 0.2420
C19_3 C 0.9361(3) 0.4803(3) 0.36386(12)
H19_3 H 0.8947 0.5422 0.3692
H20_3 H 0.9650 0.4618 0.4012
O1_4 O 0.35345(13) 0.36412(15) 0.66242(8)
C1_4 C 0.36737(19) 0.57881(19) 0.62089(9)
H1_4 H 0.3992 0.5755 0.6569
C2_4 C 0.47184(19) 0.7415(2) 0.60264(10)
N1_4 N 0.47822(15) 0.49568(17) 0.82340(8)
O6_4 O 0.24315(15) 0.42705(18) 0.78544(9)
C3_4 C 0.22981(17) 0.5940(2) 0.45490(10)
C4_4 C 0.27961(17) 0.4167(2) 0.64582(10)
C5_4 C 0.0923(2) 0.4531(3) 0.65082(16)
H2_4 H 0.0847 0.4588 0.6092
H3_4 H 0.0893 0.5217 0.6680
C6_4 C 0.5285(2) 0.4638(3) 0.76622(11)
H4_4 H 0.5683 0.4010 0.7720
H5_4 H 0.4754 0.4494 0.7378
C7_4 C 0.29737(17) 0.5016(2) 0.60589(9)
N2_4 N 0.18592(15) 0.3997(2) 0.66641(9)
C8_4 C 0.39139(16) 0.65991(16) 0.58451(9)
O7_4 O 0.28823(13) 0.26659(15) 0.78248(7)
C9_4 C 0.25447(16) 0.5068(2) 0.54914(10)
H6_4 H 0.2108 0.4547 0.5360
C10_4 C 0.23977(18) 0.3401(3) 0.76337(10)
C11_4 C 0.27847(18) 0.5903(2) 0.51373(9)
C12_4 C 0.34584(17) 0.6635(2) 0.53084(10)
H7_4 H 0.3619 0.7176 0.5058
C13_4 C 0.4866(2) 0.6801(2) 0.78886(13)
H8_4 H 0.4628 0.7043 0.7514
H9_4 H 0.4840 0.7376 0.8159
C14_4 C 0.6329(2) 0.6068(2) 0.84339(12)
H10_4 H 0.7038 0.5832 0.8408
H11_4 H 0.6299 0.6645 0.8702
N3_4 N 0.59416(18) 0.6398(2) 0.78419(9)
C15_4 C 0.5961(2) 0.5459(2) 0.74469(12)
H12_4 H 0.5741 0.5661 0.7062
H13_4 H 0.6660 0.5198 0.7420
C16_4 C 0.16901(19) 0.3193(3) 0.70996(12)
H14_4 H 0.1823 0.2504 0.6937
C17_4 C 0.4166(2) 0.5895(2) 0.81074(13)
H15_4 H 0.3805 0.6111 0.8455
H16_4 H 0.3654 0.5734 0.7815
C18_4 C 0.0554(3) 0.3305(3) 0.72733(17)
H17_4 H 0.0255 0.2634 0.7360
H18_4 H 0.0485 0.3747 0.7611
C19_4 C 0.5639(3) 0.5197(3) 0.86386(12)
H19_4 H 0.6053 0.4578 0.8692
H20_4 H 0.5350 0.5382 0.9012
C20_4 C 0.0063(3) 0.3758(4) 0.6788(2)
H21_3 H 0.0545 0.9142 0.8095
H22_3 H 0.0140 0.8230 0.8489
H21_4 H 0.9455 0.4142 0.6905
H22_4 H 0.9860 0.3230 0.6511
loop_
_geom_bond_atom_site_label_1
_geom_bond_atom_site_label_2
_geom_bond_site_symmetry_1
_geom_bond_site_symmetry_2
C6 H4 1_555 1_555
O4 Cd3 1_555 1_555
C14 H10 1_555 1_555
H11 C14 1_555 1_555
H12 C15 1_555 1_555
H13 C15 1_555 1_555
H20 C19 1_555 1_555
C14 N3 1_555 1_555
C14 C19 1_555 1_555
N3 C15 1_555 1_555
Cd1 N1 1_555 1_555
O1 C4 1_555 1_555
O6 Cd1 1_555 1_555
C5 H2 1_555 1_555
N2 C4 1_555 1_555
O7 Cd1 1_555 1_555
C10 O6 1_555 1_555
C16 N2 1_555 1_555
H14 C16 1_555 1_555
C18 C16 1_555 1_555
H17 C18 1_555 1_555
H18 C18 1_555 1_555
C20 C5 1_555 1_555
H21 C20 1_555 1_555
H22 C20 1_555 1_555
O9 Cd1 1_555 1_555
O10 Cd1 1_555 1_555
O11 Cd1 1_555 1_555
C5 N2 1_555 1_555
O7 C10 1_555 1_555
C10 C16 1_555 1_555
C18 C20 1_555 1_555
O2 C2 1_555 1_555
C1 H1 1_555 1_555
O3 C3 1_555 1_555
O5 C3 1_555 1_555
C3 C11 1_555 1_555
C7 C1 1_555 1_555
C8 C1 1_555 1_555
C9 C7 1_555 1_555
C11 C9 1_555 1_555
C12 C8 1_555 1_555
H7 C12 1_555 1_555
C13 H8 1_555 1_555
H9 C13 1_555 1_555
H15 C17 1_555 1_555
H16 C17 1_555 1_555
Cd2 O3 1_555 1_555
C2 C8 1_555 1_555
O5 Cd2 1_555 1_555
C11 C12 1_555 1_555
C13 C17 1_555 1_555
O9 C3_2 1_555 1_555
O11 C3_2 1_555 1_555
O2_2 C2_2 1_555 1_555
C1_2 H1_2 1_555 1_555
C2_2 O4_2 1_555 1_555
O4_2 Cd3_2 1_555 1_555
C7_2 C1_2 1_555 1_555
C8_2 C1_2 1_555 1_555
C9_2 C7_2 1_555 1_555
C11_2 C9_2 1_555 1_555
C12_2 C8_2 1_555 1_555
H7_2 C12_2 1_555 1_555
C13_2 H8_2 1_555 1_555
H9_2 C13_2 1_555 1_555
C14_2 H10_2 1_555 1_555
H11_2 C14_2 1_555 1_555
N3_2 C13_2 1_555 1_555
H12_2 C15_2 1_555 1_555
H13_2 C15_2 1_555 1_555
H15_2 C17_2 1_555 1_555
H16_2 C17_2 1_555 1_555
H20_2 C19_2 1_555 1_555
Cd3_2 O2_2 1_555 1_555
C2_2 C8_2 1_555 1_555
C11_2 C12_2 1_555 1_555
C13_2 C17_2 1_555 1_555
C14_2 N3_2 1_555 1_555
C14_2 C19_2 1_555 1_555
N3_2 C15_2 1_555 1_555
Cd2 N1_2 1_555 1_555
O1_2 C4_2 1_555 1_555
N1_2 C6_2 1_555 1_555
O6_2 Cd2 1_555 1_555
C5_2 H2_2 1_555 1_555
C6_2 H4_2 1_555 1_555
H5_2 C6_2 1_555 1_555
N2_2 C4_2 1_555 1_555
O7_2 Cd2 1_555 1_555
C10_2 O6_2 1_555 1_555
C16_2 N2_2 1_555 1_555
H14_2 C16_2 1_555 1_555
C18_2 C16_2 1_555 1_555
H17_2 C18_2 1_555 1_555
H18_2 C18_2 1_555 1_555
C20_2 C5_2 1_555 1_555
O8_2 Cd2 1_555 1_555
O10_2 Cd2 1_555 1_555
C5_2 N2_2 1_555 1_555
O7_2 C10_2 1_555 1_555
C10_2 C16_2 1_555 1_555
C18_2 C20_2 1_555 1_555
Cd3 N1_3 1_555 1_555
O1_3 C4_3 1_555 1_555
O8 C2_3 1_555 1_555
C1_3 H1_3 1_555 1_555
O6_3 Cd3 1_555 1_555
C4_3 C7_3 1_555 1_555
C5_3 H2_3 1_555 1_555
H3_3 C5_3 1_555 1_555
C7_3 C1_3 1_555 1_555
N2_3 C4_3 1_555 1_555
C8_3 C1_3 1_555 1_555
O7_3 Cd3 1_555 1_555
C9_3 C7_3 1_555 1_555
H6_3 C9_3 1_555 1_555
C10_3 O6_3 1_555 1_555
C11_3 C9_3 1_555 1_555
C12_3 C8_3 1_555 1_555
H7_3 C12_3 1_555 1_555
C13_3 H8_3 1_555 1_555
H9_3 C13_3 1_555 1_555
C16_3 N2_3 1_555 1_555
H14_3 C16_3 1_555 1_555
C17_3 N1_3 1_555 1_555
H15_3 C17_3 1_555 1_555
H16_3 C17_3 1_555 1_555
C18_3 C16_3 1_555 1_555
H17_3 C18_3 1_555 1_555
H18_3 C18_3 1_555 1_555
C20_3 C5_3 1_555 1_555
H21_2 C20_3 1_555 1_555
H22_2 C20_3 1_555 1_555
O9_2 Cd3 1_555 1_555
O11_2 Cd3 1_555 1_555
C2_3 C8_3 1_555 1_555
C5_3 N2_3 1_555 1_555
O7_3 C10_3 1_555 1_555
C10_3 C16_3 1_555 1_555
C11_3 C12_3 1_555 1_555
C13_3 C17_3 1_555 1_555
C18_3 C20_3 1_555 1_555
O3_2 C3_3 1_555 1_555
O5_2 C3_3 1_555 1_555
Cd3_2 O3_2 1_555 1_555
O5_2 Cd3_2 1_555 1_555
C6_3 H4_3 1_555 1_555
C14_3 H10_3 1_555 1_555
H11_3 C14_3 1_555 1_555
C15_3 C6_3 1_555 1_555
H12_3 C15_3 1_555 1_555
H13_3 C15_3 1_555 1_555
H19_3 C19_3 1_555 1_555
H20_3 C19_3 1_555 1_555
C14_3 N3_3 1_555 1_555
C14_3 C19_3 1_555 1_555
N3_3 C15_3 1_555 1_555
Cd3_2 N1_4 1_555 1_555
O1_4 C4_4 1_555 1_555
O8_2 C2_4 1_555 1_555
C1_4 H1_4 1_555 1_555
O9_2 C3_4 1_555 1_555
C2_4 O10_2 1_555 1_555
N1_4 C6_4 1_555 1_555
O11_2 C3_4 1_555 1_555
O6_4 Cd3_2 1_555 1_555
C3_4 C11_4 1_555 1_555
C4_4 C7_4 1_555 1_555
C5_4 H2_4 1_555 1_555
H3_4 C5_4 1_555 1_555
C6_4 H4_4 1_555 1_555
H5_4 C6_4 1_555 1_555
C7_4 C1_4 1_555 1_555
N2_4 C4_4 1_555 1_555
C8_4 C1_4 1_555 1_555
O7_4 Cd3_2 1_555 1_555
C9_4 C7_4 1_555 1_555
H6_4 C9_4 1_555 1_555
C10_4 O6_4 1_555 1_555
C11_4 C9_4 1_555 1_555
C12_4 C8_4 1_555 1_555
H7_4 C12_4 1_555 1_555
C13_4 H8_4 1_555 1_555
H9_4 C13_4 1_555 1_555
C14_4 H10_4 1_555 1_555
H11_4 C14_4 1_555 1_555
N3_4 C13_4 1_555 1_555
C15_4 C6_4 1_555 1_555
H12_4 C15_4 1_555 1_555
H13_4 C15_4 1_555 1_555
C16_4 N2_4 1_555 1_555
H14_4 C16_4 1_555 1_555
C17_4 N1_4 1_555 1_555
H15_4 C17_4 1_555 1_555
H16_4 C17_4 1_555 1_555
C18_4 C16_4 1_555 1_555
H17_4 C18_4 1_555 1_555
H18_4 C18_4 1_555 1_555
C19_4 N1_4 1_555 1_555
H19_4 C19_4 1_555 1_555
H20_4 C19_4 1_555 1_555
C20_4 C5_4 1_555 1_555
C2_4 C8_4 1_555 1_555
C5_4 N2_4 1_555 1_555
O7_4 C10_4 1_555 1_555
C10_4 C16_4 1_555 1_555
C11_4 C12_4 1_555 1_555
C13_4 C17_4 1_555 1_555
C14_4 N3_4 1_555 1_555
C14_4 C19_4 1_555 1_555
N3_4 C15_4 1_555 1_555
C18_4 C20_4 1_555 1_555

#END
