
###############################################################################
#
# This file contains modified crystal structure data generated from the
# MOF subset of the Cambridge Structural Database (CSD) v543 
# hosted by the Cambridge Crystallographic Data Centre (CCDC).
#
# This work is licensed under the Creative Commons
# Attribution-NonCommercial-ShareAlike 4.0 International License.
# To view a copy of this license, visit
# http://creativecommons.org/licenses/by-nc-sa/4.0/
# or send a letter to
# Creative Commons, PO Box 1866, Mountain View, CA 94042, USA.
#
# CIF created using the CSD Python API on 29 September 2022
# The structure has been converted into the P1 space group
# The structure has a 3D framework
# The original CSD entry QUDCUQ is in the monoclinic crystal system
# The framework has been calculated to contain at least 10.0% void space
# The void calculation uses a probe of radius 1.32A, grid spacing 0.4
#
###############################################################################

data_QUDCUQ
_chemical_formula_moiety         '(C104 H64 Mg12 N8 O40)n'
_symmetry_cell_setting           triclinic
_symmetry_space_group_name_H-M   'P 1'
_symmetry_Int_Tables_number      1
_space_group_name_Hall           'P 1'
loop_
_symmetry_equiv_pos_site_id
_symmetry_equiv_pos_as_xyz
1 x,y,z
_cell_length_a                   24.220(5)
_cell_length_b                   17.812(4)
_cell_length_c                   10.975(2)
_cell_angle_alpha                90
_cell_angle_beta                 92.83(3)
_cell_angle_gamma                90
_cell_volume                     4728.91
loop_
_atom_site_label
_atom_site_type_symbol
_atom_site_fract_x
_atom_site_fract_y
_atom_site_fract_z
Mg9 Mg -0.0000 0.57157(11) 0.2500
Mg1 Mg 0.43796(5) 0.02110(8) 0.47964(11)
Mg2 Mg 0.5000 0.07157(11) 0.2500
O5 O 0.51381(11) 0.06316(17) 0.4400(2)
H1 H 0.524(2) 0.1097(16) 0.473(4)
Mg3 Mg 0.56204(5) 0.02110(8) 0.02036(11)
O10 O 0.48619(11) 0.06316(17) 0.0600(2)
H9 H 0.476(2) 0.1097(16) 0.027(4)
O11 O 0.61076(12) 0.10830(19) 0.0978(3)
O12 O 0.38924(12) 0.10830(19) 0.4022(3)
O13 O 0.55983(12) 0.15242(18) 0.2468(3)
O14 O 0.44017(12) 0.15242(18) 0.2532(3)
O16 O 0.40102(12) 0.06074(19) 0.6308(2)
O15 O 0.59898(12) 0.06074(19) 0.8692(2)
O1 O 0.44497(11) 0.98700(17) 0.2972(2)
O2 O 0.11076(12) 0.60830(19) 0.0978(3)
O3 O 0.05983(12) 0.65242(18) 0.2468(3)
O4 O 0.40102(12) 0.93926(19) 0.1308(2)
N1 N 0.36800(15) 0.9426(2) 0.4400(3)
C1 C 0.36229(18) 0.9205(3) 0.3224(4)
C2 C 0.32117(19) 0.8745(3) 0.2764(4)
H2 H 0.3195 0.8610 0.1926
C3 C 0.2814(2) 0.8474(3) 0.3541(4)
C4 C 0.2875(2) 0.8700(3) 0.4768(4)
H3 H 0.2619 0.8530 0.5337
C5 C 0.3297(2) 0.9162(3) 0.5145(4)
H4 H 0.3324 0.9306 0.5979
C6 C 0.40670(17) 0.9512(2) 0.2429(4)
C7 C 0.2359(2) 0.7981(3) 0.3092(4)
C8 C 0.1841(2) 0.8011(3) 0.3616(5)
H5 H 0.1782 0.8359 0.4254
C9 C 0.1416(2) 0.7542(3) 0.3215(4)
H6 H 0.1072 0.7567 0.3589
C10 C 0.14851(19) 0.7034(3) 0.2269(4)
C11 C 0.1999(2) 0.7007(3) 0.1738(4)
H7 H 0.2055 0.6666 0.1090
C12 C 0.2421(2) 0.7468(3) 0.2145(4)
H8 H 0.2767 0.7438 0.1772
C13 C 0.10301(18) 0.6503(3) 0.1869(4)
O6 O 0.55503(11) 0.98700(17) 0.2028(2)
O7 O 0.88924(12) 0.60830(19) 0.4022(3)
O8 O 0.94017(12) 0.65242(18) 0.2532(3)
O9 O 0.59898(12) 0.93926(19) 0.3692(2)
N2 N 0.63200(15) 0.9426(2) 0.0600(3)
C14 C 0.63771(18) 0.9205(3) 0.1776(4)
C15 C 0.67883(19) 0.8745(3) 0.2236(4)
H10 H 0.6805 0.8610 0.3074
C16 C 0.7186(2) 0.8474(3) 0.1459(4)
C17 C 0.7125(2) 0.8700(3) 0.0232(4)
C19 C 0.59330(17) 0.9512(2) 0.2571(4)
C20 C 0.7641(2) 0.7981(3) 0.1908(4)
C21 C 0.8159(2) 0.8011(3) 0.1384(5)
H13 H 0.8218 0.8359 0.0746
C22 C 0.8584(2) 0.7542(3) 0.1785(4)
H14 H 0.8928 0.7567 0.1411
C23 C 0.85149(19) 0.7034(3) 0.2731(4)
C24 C 0.8001(2) 0.7007(3) 0.3262(4)
H15 H 0.7945 0.6666 0.3910
C25 C 0.7579(2) 0.7468(3) 0.2855(4)
H16 H 0.7233 0.7438 0.3228
C26 C 0.89699(18) 0.6503(3) 0.3131(4)
Mg4 Mg 0.93796(5) 0.52110(8) 0.47964(11)
Mg5 Mg 0.06204(5) 0.52110(8) 0.02036(11)
Mg6 Mg 0.56204(5) 0.97890(8) 0.52036(11)
Mg9_2 Mg 1.0000 0.57157(11) 0.2500
O17 O 0.48619(11) 0.93684(17) 0.5600(2)
H11 H 0.7381 0.8530 0.9663
C18 C 0.6703(2) 0.9162(3) 0.9855(4)
H12 H 0.6676 0.9306 0.9021
Mg7 Mg 0.43796(5) 0.97890(8) 0.97964(11)
O18 O 0.51381(11) 0.93684(17) 0.9400(2)
O5_2 O 0.01381(11) 0.56316(17) 0.4400(2)
H1_2 H 0.024(2) 0.6097(16) 0.473(4)
O6_2 O 0.05503(11) 0.48700(17) 0.2028(2)
O9_2 O 0.09898(12) 0.43926(19) 0.3692(2)
N2_2 N 0.13200(15) 0.4426(2) 0.0600(3)
C14_2 C 0.13771(18) 0.4205(3) 0.1776(4)
C15_2 C 0.17883(19) 0.3745(3) 0.2236(4)
H10_2 H 0.1805 0.3610 0.3074
C16_2 C 0.2186(2) 0.3474(3) 0.1459(4)
C17_2 C 0.2125(2) 0.3700(3) 0.0232(4)
C19_2 C 0.09330(17) 0.4512(2) 0.2571(4)
C20_2 C 0.2641(2) 0.2981(3) 0.1908(4)
C21_2 C 0.3159(2) 0.3011(3) 0.1384(5)
H13_2 H 0.3218 0.3359 0.0746
C22_2 C 0.3584(2) 0.2542(3) 0.1785(4)
H14_2 H 0.3928 0.2567 0.1411
C23_2 C 0.35149(19) 0.2034(3) 0.2731(4)
C24_2 C 0.3001(2) 0.2007(3) 0.3262(4)
H15_2 H 0.2945 0.1666 0.3910
C25_2 C 0.2579(2) 0.2468(3) 0.2855(4)
H16_2 H 0.2233 0.2438 0.3228
C26_2 C 0.39699(18) 0.1503(3) 0.3131(4)
Mg6_2 Mg 0.06204(5) 0.47890(8) 0.52036(11)
H11_2 H 0.2381 0.3530 0.9663
C18_2 C 0.1703(2) 0.4162(3) 0.9855(4)
H12_2 H 0.1676 0.4306 0.9021
O15_2 O 0.09898(12) 0.56074(19) 0.8692(2)
O18_2 O 0.01381(11) 0.43684(17) 0.9400(2)
O1_2 O 0.94497(11) 0.48700(17) 0.2972(2)
O4_2 O 0.90102(12) 0.43926(19) 0.1308(2)
N1_2 N 0.86800(15) 0.4426(2) 0.4400(3)
C1_2 C 0.86229(18) 0.4205(3) 0.3224(4)
C2_2 C 0.82117(19) 0.3745(3) 0.2764(4)
H2_2 H 0.8195 0.3610 0.1926
C3_2 C 0.7814(2) 0.3474(3) 0.3541(4)
C4_2 C 0.7875(2) 0.3700(3) 0.4768(4)
H3_2 H 0.7619 0.3530 0.5337
C5_2 C 0.8297(2) 0.4162(3) 0.5145(4)
H4_2 H 0.8324 0.4306 0.5979
C6_2 C 0.90670(17) 0.4512(2) 0.2429(4)
C7_2 C 0.7359(2) 0.2981(3) 0.3092(4)
C8_2 C 0.6841(2) 0.3011(3) 0.3616(5)
H5_2 H 0.6782 0.3359 0.4254
C9_2 C 0.6416(2) 0.2542(3) 0.3215(4)
H6_2 H 0.6072 0.2567 0.3589
C10_2 C 0.64851(19) 0.2034(3) 0.2269(4)
C11_2 C 0.6999(2) 0.2007(3) 0.1738(4)
H7_2 H 0.7055 0.1666 0.1090
C12_2 C 0.7421(2) 0.2468(3) 0.2145(4)
H8_2 H 0.7767 0.2438 0.1772
C13_2 C 0.60301(18) 0.1503(3) 0.1869(4)
O10_2 O 0.98619(11) 0.56316(17) 0.0600(2)
H9_2 H 0.976(2) 0.6097(16) 0.027(4)
O16_2 O 0.90102(12) 0.56074(19) 0.6308(2)
O17_2 O 0.98619(11) 0.43684(17) 0.5600(2)
Mg7_2 Mg 0.93796(5) 0.47890(8) 0.97964(11)
Mg8 Mg -0.0000 0.42843(11) 0.7500
H11_3 H 0.2619 0.1470 0.0337
C18_3 C 0.3297(2) 0.0838(3) 0.0145(4)
H12_3 H 0.3324 0.0694 0.0979
O1_3 O 0.55503(11) 0.01300(17) 0.7028(2)
O2_2 O 0.88924(12) 0.39170(19) 0.9022(3)
O3_2 O 0.94017(12) 0.34758(18) 0.7532(3)
N1_3 N 0.63200(15) 0.0574(2) 0.5600(3)
C1_3 C 0.63771(18) 0.0795(3) 0.6776(4)
C2_3 C 0.67883(19) 0.1255(3) 0.7236(4)
H2_3 H 0.6805 0.1390 0.8074
C3_3 C 0.7186(2) 0.1526(3) 0.6459(4)
C4_3 C 0.7125(2) 0.1300(3) 0.5232(4)
H3_3 H 0.7381 0.1470 0.4663
C5_3 C 0.6703(2) 0.0838(3) 0.4855(4)
H4_3 H 0.6676 0.0694 0.4021
C6_3 C 0.59330(17) 0.0488(2) 0.7571(4)
C7_3 C 0.7641(2) 0.2019(3) 0.6908(4)
C8_3 C 0.8159(2) 0.1989(3) 0.6384(5)
H5_3 H 0.8218 0.1641 0.5746
C9_3 C 0.8584(2) 0.2458(3) 0.6785(4)
H6_3 H 0.8928 0.2433 0.6411
C10_3 C 0.85149(19) 0.2966(3) 0.7731(4)
C11_3 C 0.8001(2) 0.2993(3) 0.8262(4)
H7_3 H 0.7945 0.3334 0.8910
C12_3 C 0.7579(2) 0.2532(3) 0.7855(4)
H8_3 H 0.7233 0.2562 0.8228
C13_3 C 0.89699(18) 0.3497(3) 0.8131(4)
O6_3 O 0.44497(11) 0.01300(17) 0.7972(2)
O7_2 O 0.11076(12) 0.39170(19) 0.5978(3)
O8_2 O 0.05983(12) 0.34758(18) 0.7468(3)
N2_3 N 0.36800(15) 0.0574(2) 0.9400(3)
C14_3 C 0.36229(18) 0.0795(3) 0.8224(4)
C15_3 C 0.32117(19) 0.1255(3) 0.7764(4)
H10_3 H 0.3195 0.1390 0.6926
C16_3 C 0.2814(2) 0.1526(3) 0.8541(4)
C17_3 C 0.2875(2) 0.1300(3) 0.9768(4)
C19_3 C 0.40670(17) 0.0488(2) 0.7429(4)
C20_3 C 0.2359(2) 0.2019(3) 0.8092(4)
C21_3 C 0.1841(2) 0.1989(3) 0.8616(5)
H13_3 H 0.1782 0.1641 0.9254
C22_3 C 0.1416(2) 0.2458(3) 0.8215(4)
H14_3 H 0.1072 0.2433 0.8589
C23_3 C 0.14851(19) 0.2966(3) 0.7269(4)
C24_3 C 0.1999(2) 0.2993(3) 0.6738(4)
H15_3 H 0.2055 0.3334 0.6090
C25_3 C 0.2421(2) 0.2532(3) 0.7145(4)
H16_3 H 0.2767 0.2562 0.6772
C26_3 C 0.10301(18) 0.3497(3) 0.6869(4)
Mg8_2 Mg 1.0000 0.42843(11) 0.7500
Mg2_2 Mg 0.5000 0.92843(11) 0.7500
H1_3 H 0.476(2) 0.8903(16) 0.527(4)
H9_3 H 0.524(2) 0.8903(16) 0.973(4)
O11_2 O 0.38924(12) 0.89170(19) 0.9022(3)
O12_2 O 0.61076(12) 0.89170(19) 0.5978(3)
O13_2 O 0.44017(12) 0.84758(18) 0.7532(3)
O14_2 O 0.55983(12) 0.84758(18) 0.7468(3)
O1_4 O 0.05503(11) 0.51300(17) 0.7028(2)
N1_4 N 0.13200(15) 0.5574(2) 0.5600(3)
C1_4 C 0.13771(18) 0.5795(3) 0.6776(4)
C2_4 C 0.17883(19) 0.6255(3) 0.7236(4)
H2_4 H 0.1805 0.6390 0.8074
C3_4 C 0.2186(2) 0.6526(3) 0.6459(4)
C4_4 C 0.2125(2) 0.6300(3) 0.5232(4)
H3_4 H 0.2381 0.6470 0.4663
C5_4 C 0.1703(2) 0.5838(3) 0.4855(4)
H4_4 H 0.1676 0.5694 0.4021
C6_4 C 0.09330(17) 0.5488(2) 0.7571(4)
C7_4 C 0.2641(2) 0.7019(3) 0.6908(4)
C8_4 C 0.3159(2) 0.6989(3) 0.6384(5)
H5_4 H 0.3218 0.6641 0.5746
C9_4 C 0.3584(2) 0.7458(3) 0.6785(4)
H6_4 H 0.3928 0.7433 0.6411
C10_4 C 0.35149(19) 0.7966(3) 0.7731(4)
C11_4 C 0.3001(2) 0.7993(3) 0.8262(4)
H7_4 H 0.2945 0.8334 0.8910
C12_4 C 0.2579(2) 0.7532(3) 0.7855(4)
H8_4 H 0.2233 0.7562 0.8228
C13_4 C 0.39699(18) 0.8497(3) 0.8131(4)
H9_4 H 0.024(2) 0.3903(16) 0.973(4)
H11_4 H 0.7619 0.6470 0.0337
C18_4 C 0.8297(2) 0.5838(3) 0.0145(4)
H12_4 H 0.8324 0.5694 0.0979
H1_4 H 0.976(2) 0.3903(16) 0.527(4)
O6_4 O 0.94497(11) 0.51300(17) 0.7972(2)
N2_4 N 0.86800(15) 0.5574(2) 0.9400(3)
C14_4 C 0.86229(18) 0.5795(3) 0.8224(4)
C15_4 C 0.82117(19) 0.6255(3) 0.7764(4)
H10_4 H 0.8195 0.6390 0.6926
C16_4 C 0.7814(2) 0.6526(3) 0.8541(4)
C17_4 C 0.7875(2) 0.6300(3) 0.9768(4)
C19_4 C 0.90670(17) 0.5488(2) 0.7429(4)
C20_4 C 0.7359(2) 0.7019(3) 0.8092(4)
C21_4 C 0.6841(2) 0.6989(3) 0.8616(5)
H13_4 H 0.6782 0.6641 0.9254
C22_4 C 0.6416(2) 0.7458(3) 0.8215(4)
H14_4 H 0.6072 0.7433 0.8589
C23_4 C 0.64851(19) 0.7966(3) 0.7269(4)
C24_4 C 0.6999(2) 0.7993(3) 0.6738(4)
H15_4 H 0.7055 0.8334 0.6090
C25_4 C 0.7421(2) 0.7532(3) 0.7145(4)
H16_4 H 0.7767 0.7562 0.6772
C26_4 C 0.60301(18) 0.8497(3) 0.6869(4)
loop_
_geom_bond_atom_site_label_1
_geom_bond_atom_site_label_2
_geom_bond_site_symmetry_1
_geom_bond_site_symmetry_2
O5 Mg1 1_555 1_555
H1 O5 1_555 1_555
O10 Mg2 1_555 1_555
H9 O10 1_555 1_555
O11 Mg3 1_555 1_555
O12 Mg1 1_555 1_555
O13 Mg2 1_555 1_555
O14 Mg2 1_555 1_555
O16 Mg1 1_555 1_555
Mg2 O5 1_555 1_555
Mg3 O10 1_555 1_555
O1 C6 1_555 1_555
O2 C13 1_555 1_555
O3 C13 1_555 1_555
O4 C6 1_555 1_555
C1 N1 1_555 1_555
C2 C1 1_555 1_555
H2 C2 1_555 1_555
C3 C2 1_555 1_555
C4 C3 1_555 1_555
H3 C4 1_555 1_555
C5 N1 1_555 1_555
H4 C5 1_555 1_555
C6 C1 1_555 1_555
C7 C3 1_555 1_555
C8 C7 1_555 1_555
H5 C8 1_555 1_555
C9 C8 1_555 1_555
H6 C9 1_555 1_555
C10 C9 1_555 1_555
C11 C10 1_555 1_555
H7 C11 1_555 1_555
C12 C7 1_555 1_555
H8 C12 1_555 1_555
C13 C10 1_555 1_555
O7 C26 1_555 1_555
O8 C26 1_555 1_555
O9 C19 1_555 1_555
C14 N2 1_555 1_555
C15 C14 1_555 1_555
H10 C15 1_555 1_555
C16 C15 1_555 1_555
C17 C16 1_555 1_555
C19 O6 1_555 1_555
C20 C16 1_555 1_555
C21 C20 1_555 1_555
H13 C21 1_555 1_555
C22 C21 1_555 1_555
H14 C22 1_555 1_555
C23 C22 1_555 1_555
C24 C23 1_555 1_555
H15 C24 1_555 1_555
C25 C20 1_555 1_555
H16 C25 1_555 1_555
C26 C23 1_555 1_555
Mg4 O7 1_555 1_555
Mg5 O2 1_555 1_555
Mg9 O3 1_555 1_555
Mg9_2 O8 1_555 1_555
C4 C5 1_555 1_555
C11 C12 1_555 1_555
O9 Mg6 1_555 1_555
C14 C19 1_555 1_555
C24 C25 1_555 1_555
Mg6 O17 1_555 1_555
H12 C18 1_555 1_555
Mg7 O18 1_555 1_555
H1_2 O5_2 1_555 1_555
Mg5 O6_2 1_555 1_555
O6_2 Mg9 1_555 1_555
O12 C26_2 1_555 1_555
O14 C26_2 1_555 1_555
O9_2 C19_2 1_555 1_555
N2_2 Mg5 1_555 1_555
C14_2 N2_2 1_555 1_555
C15_2 C14_2 1_555 1_555
H10_2 C15_2 1_555 1_555
C16_2 C15_2 1_555 1_555
C17_2 C16_2 1_555 1_555
C19_2 O6_2 1_555 1_555
C20_2 C16_2 1_555 1_555
C21_2 C20_2 1_555 1_555
H13_2 C21_2 1_555 1_555
C22_2 C21_2 1_555 1_555
H14_2 C22_2 1_555 1_555
C23_2 C22_2 1_555 1_555
C24_2 C23_2 1_555 1_555
H15_2 C24_2 1_555 1_555
C25_2 C20_2 1_555 1_555
H16_2 C25_2 1_555 1_555
C26_2 C23_2 1_555 1_555
Mg6_2 O5_2 1_555 1_555
Mg9 O5_2 1_555 1_555
O9_2 Mg6_2 1_555 1_555
C14_2 C19_2 1_555 1_555
C24_2 C25_2 1_555 1_555
H12_2 C18_2 1_555 1_555
Mg4 O1_2 1_555 1_555
Mg9_2 O1_2 1_555 1_555
O1_2 C6_2 1_555 1_555
O11 C13_2 1_555 1_555
O13 C13_2 1_555 1_555
O4_2 C6_2 1_555 1_555
N1_2 Mg4 1_555 1_555
C1_2 N1_2 1_555 1_555
C2_2 C1_2 1_555 1_555
H2_2 C2_2 1_555 1_555
C3_2 C2_2 1_555 1_555
C4_2 C3_2 1_555 1_555
H3_2 C4_2 1_555 1_555
C5_2 N1_2 1_555 1_555
H4_2 C5_2 1_555 1_555
C6_2 C1_2 1_555 1_555
C7_2 C3_2 1_555 1_555
C8_2 C7_2 1_555 1_555
H5_2 C8_2 1_555 1_555
C9_2 C8_2 1_555 1_555
H6_2 C9_2 1_555 1_555
C10_2 C9_2 1_555 1_555
C11_2 C10_2 1_555 1_555
H7_2 C11_2 1_555 1_555
C12_2 C7_2 1_555 1_555
H8_2 C12_2 1_555 1_555
C13_2 C10_2 1_555 1_555
O10_2 Mg9_2 1_555 1_555
H9_2 O10_2 1_555 1_555
O16_2 Mg4 1_555 1_555
O17_2 Mg4 1_555 1_555
C4_2 C5_2 1_555 1_555
C11_2 C12_2 1_555 1_555
H12_3 C18_3 1_555 1_555
O1_3 C6_3 1_555 1_555
O2_2 C13_3 1_555 1_555
O3_2 C13_3 1_555 1_555
O15 C6_3 1_555 1_555
C1_3 N1_3 1_555 1_555
C2_3 C1_3 1_555 1_555
H2_3 C2_3 1_555 1_555
C3_3 C2_3 1_555 1_555
C4_3 C3_3 1_555 1_555
H3_3 C4_3 1_555 1_555
C5_3 N1_3 1_555 1_555
H4_3 C5_3 1_555 1_555
C6_3 C1_3 1_555 1_555
C7_3 C3_3 1_555 1_555
C8_3 C7_3 1_555 1_555
H5_3 C8_3 1_555 1_555
C9_3 C8_3 1_555 1_555
H6_3 C9_3 1_555 1_555
C10_3 C9_3 1_555 1_555
C11_3 C10_3 1_555 1_555
H7_3 C11_3 1_555 1_555
C12_3 C7_3 1_555 1_555
H8_3 C12_3 1_555 1_555
C13_3 C10_3 1_555 1_555
O7_2 C26_3 1_555 1_555
O8_2 C26_3 1_555 1_555
O16 C19_3 1_555 1_555
C14_3 N2_3 1_555 1_555
C15_3 C14_3 1_555 1_555
H10_3 C15_3 1_555 1_555
C16_3 C15_3 1_555 1_555
C17_3 C16_3 1_555 1_555
C19_3 O6_3 1_555 1_555
C20_3 C16_3 1_555 1_555
C21_3 C20_3 1_555 1_555
H13_3 C21_3 1_555 1_555
C22_3 C21_3 1_555 1_555
H14_3 C22_3 1_555 1_555
C23_3 C22_3 1_555 1_555
C24_3 C23_3 1_555 1_555
H15_3 C24_3 1_555 1_555
C25_3 C20_3 1_555 1_555
H16_3 C25_3 1_555 1_555
C26_3 C23_3 1_555 1_555
Mg6_2 O7_2 1_555 1_555
Mg7_2 O2_2 1_555 1_555
Mg8_2 O3_2 1_555 1_555
Mg8 O8_2 1_555 1_555
C4_3 C5_3 1_555 1_555
C11_3 C12_3 1_555 1_555
C14_3 C19_3 1_555 1_555
C24_3 C25_3 1_555 1_555
H1_3 O17 1_555 1_555
O18 Mg2_2 1_555 1_555
H9_3 O18 1_555 1_555
O11_2 Mg7 1_555 1_555
O12_2 Mg6 1_555 1_555
O13_2 Mg2_2 1_555 1_555
O14_2 Mg2_2 1_555 1_555
Mg2_2 O17 1_555 1_555
Mg6_2 O1_4 1_555 1_555
Mg8 O1_4 1_555 1_555
O1_4 C6_4 1_555 1_555
O11_2 C13_4 1_555 1_555
O13_2 C13_4 1_555 1_555
O15_2 C6_4 1_555 1_555
N1_4 Mg6_2 1_555 1_555
C1_4 N1_4 1_555 1_555
C2_4 C1_4 1_555 1_555
H2_4 C2_4 1_555 1_555
C3_4 C2_4 1_555 1_555
C4_4 C3_4 1_555 1_555
H3_4 C4_4 1_555 1_555
C5_4 N1_4 1_555 1_555
H4_4 C5_4 1_555 1_555
C6_4 C1_4 1_555 1_555
C7_4 C3_4 1_555 1_555
C8_4 C7_4 1_555 1_555
H5_4 C8_4 1_555 1_555
C9_4 C8_4 1_555 1_555
H6_4 C9_4 1_555 1_555
C10_4 C9_4 1_555 1_555
C11_4 C10_4 1_555 1_555
H7_4 C11_4 1_555 1_555
C12_4 C7_4 1_555 1_555
H8_4 C12_4 1_555 1_555
C13_4 C10_4 1_555 1_555
O18_2 Mg8 1_555 1_555
H9_4 O18_2 1_555 1_555
C4_4 C5_4 1_555 1_555
C11_4 C12_4 1_555 1_555
H12_4 C18_4 1_555 1_555
H1_4 O17_2 1_555 1_555
Mg7_2 O6_4 1_555 1_555
O6_4 Mg8_2 1_555 1_555
O12_2 C26_4 1_555 1_555
O14_2 C26_4 1_555 1_555
O16_2 C19_4 1_555 1_555
N2_4 Mg7_2 1_555 1_555
C14_4 N2_4 1_555 1_555
C15_4 C14_4 1_555 1_555
H10_4 C15_4 1_555 1_555
C16_4 C15_4 1_555 1_555
C17_4 C16_4 1_555 1_555
C19_4 O6_4 1_555 1_555
C20_4 C16_4 1_555 1_555
C21_4 C20_4 1_555 1_555
H13_4 C21_4 1_555 1_555
C22_4 C21_4 1_555 1_555
H14_4 C22_4 1_555 1_555
C23_4 C22_4 1_555 1_555
C24_4 C23_4 1_555 1_555
H15_4 C24_4 1_555 1_555
C25_4 C20_4 1_555 1_555
H16_4 C25_4 1_555 1_555
C26_4 C23_4 1_555 1_555
Mg8_2 O17_2 1_555 1_555
C14_4 C19_4 1_555 1_555
C24_4 C25_4 1_555 1_555

#END
