
###############################################################################
#
# This file contains modified crystal structure data generated from the
# MOF subset of the Cambridge Structural Database (CSD) v543 
# hosted by the Cambridge Crystallographic Data Centre (CCDC).
#
# This work is licensed under the Creative Commons
# Attribution-NonCommercial-ShareAlike 4.0 International License.
# To view a copy of this license, visit
# http://creativecommons.org/licenses/by-nc-sa/4.0/
# or send a letter to
# Creative Commons, PO Box 1866, Mountain View, CA 94042, USA.
#
# CIF created using the CSD Python API on 29 September 2022
# The structure has been converted into the P1 space group
# The structure has a 3D framework
# The original CSD entry QUDDEB is in the triclinic crystal system
# The framework has been calculated to contain at least 10.0% void space
# The void calculation uses a probe of radius 1.32A, grid spacing 0.4
#
###############################################################################

data_QUDDEB
_chemical_formula_moiety         '(C52 H32 Mg4 N4 O18)n'
_symmetry_cell_setting           triclinic
_symmetry_space_group_name_H-M   'P 1'
_symmetry_Int_Tables_number      1
_space_group_name_Hall           'P 1'
loop_
_symmetry_equiv_pos_site_id
_symmetry_equiv_pos_as_xyz
1 x,y,z
_cell_length_a                   10.937(3)
_cell_length_b                   14.947(3)
_cell_length_c                   15.041(4)
_cell_angle_alpha                71.410(18)
_cell_angle_beta                 86.86(2)
_cell_angle_gamma                88.896(16)
_cell_volume                     2327.04
loop_
_atom_site_label
_atom_site_type_symbol
_atom_site_fract_x
_atom_site_fract_y
_atom_site_fract_z
Mg7 Mg 0.2531(6) 0.0706(4) 0.4272(3)
O3 O 0.2596(10) 0.0882(9) 0.2880(7)
C8 C 0.2117(19) 0.0113(15) 0.0048(13)
C9 C 0.1685(16) 0.0043(13) 0.0994(12)
C10 C 0.2314(16) 0.0601(13) 0.1422(12)
C11 C 0.3249(17) 0.1144(14) 0.1018(12)
H8 H 0.3643 0.1468 0.1355
C12 C 0.3684(17) 0.1252(13) 0.0062(12)
C13 C 0.1900(16) 0.0469(13) 0.2478(12)
Mg1 Mg 0.4820(5) 0.0858(4) 0.5367(4)
O1 O 0.2998(11) 0.0433(9) 0.5644(8)
O2 O 0.1294(10) 0.0443(8) 0.6548(7)
O5 O 0.4426(10) 0.0478(8) 0.4230(7)
H1 H 0.4830 0.0891 0.3650
O6 O 0.0629(10) 0.0771(8) 0.4475(7)
H2 H 0.0276 0.1342 0.4042
N1 N 0.4413(13) 0.0781(10) 0.6862(10)
C1 C 0.3206(16) 0.0638(11) 0.7099(11)
C2 C 0.2744(17) 0.0612(13) 0.8008(12)
H3 H 0.1913 0.0526 0.8176
C3 C 0.3549(16) 0.0716(12) 0.8630(12)
C4 C 0.4745(16) 0.0861(13) 0.8397(12)
H4 H 0.5280 0.0937 0.8827
C5 C 0.5181(17) 0.0894(12) 0.7481(11)
H5 H 0.6009 0.0994 0.7309
C6 C 0.2439(16) 0.0493(12) 0.6405(12)
C7 C 0.3045(17) 0.0674(15) 0.9637(13)
H9 H 0.4317 0.1658 0.9752
O7 O 0.1987(10) 0.9311(9) 0.4608(7)
O8 O 0.3662(11) 0.8421(9) 0.4685(8)
O9 O 0.2583(11) 0.2112(9) 0.4043(8)
O10 O 0.4085(11) 0.2225(9) 0.4936(8)
N2 N 0.0572(12) 0.8067(9) 0.4285(9)
C14 C 0.1702(15) 0.7836(11) 0.4461(11)
C15 C 0.2169(17) 0.6913(13) 0.4514(12)
H10 H 0.2970 0.6751 0.4680
C16 C 0.1424(15) 0.6268(13) 0.4317(10)
C17 C 0.0228(16) 0.6549(14) 0.4157(10)
C19 C 0.2550(17) 0.8495(14) 0.4617(11)
C20 C 0.1889(16) 0.5312(14) 0.4361(12)
C21 C 0.2841(17) 0.4884(14) 0.4923(13)
H13 H 0.3189 0.5195 0.5292
C22 C 0.3284(16) 0.3999(13) 0.4943(11)
H14 H 0.3938 0.3734 0.5311
C23 C 0.2744(16) 0.3497(13) 0.4406(12)
C24 C 0.1832(17) 0.3964(13) 0.3838(12)
H15 H 0.1483 0.3669 0.3454
C25 C 0.1411(17) 0.4848(13) 0.3811(12)
H16 H 0.0794 0.5132 0.3413
C26 C 0.3197(17) 0.2528(13) 0.4461(12)
Mg5 Mg 0.5180(5) 0.9142(4) 0.4633(4)
Mg10 Mg 0.0194(5) 0.9576(4) 0.4176(4)
O17 O 0.6338(11) 0.1579(9) 0.5315(8)
O4 O 0.0993(11) 0.9993(9) 0.2819(8)
H7 H 0.1034 0.9655 0.1301
H6 H 0.1741 0.9764 0.9727
O13 O 0.5574(10) 0.9522(8) 0.5770(7)
Mg3 Mg 0.9806(5) 0.0424(4) 0.5824(4)
H11 H 0.9662 0.6126 0.4080
C18 C 0.9839(16) 0.7498(13) 0.4108(11)
H12 H 0.9047 0.7694 0.3945
O12 O 0.9007(11) 0.0007(9) 0.7181(8)
O16 O 0.8013(10) 0.0689(9) 0.5392(7)
N3 N 0.9428(12) 0.1933(9) 0.5715(9)
O14 O 0.9371(10) 0.9229(8) 0.5525(7)
H11_2 H 0.0338 0.3874 0.5920
C18_2 C 0.0161(16) 0.2502(13) 0.5892(11)
H12_2 H 0.0953 0.2306 0.6055
H6_2 H 0.8259 0.0236 0.0273
H7_2 H 0.8966 0.0345 0.8699
Mg2 Mg 0.7469(6) 0.9294(4) 0.5728(3)
O1_2 O 0.7002(11) 0.9567(9) 0.4356(8)
O2_2 O 0.8706(10) 0.9557(8) 0.3452(7)
H1_2 H 0.5170 0.9109 0.6350
H2_2 H 0.9724 0.8658 0.5958
N1_2 N 0.5587(13) 0.9219(10) 0.3138(10)
C1_2 C 0.6794(16) 0.9362(11) 0.2901(11)
C2_2 C 0.7256(17) 0.9388(13) 0.1992(12)
H3_2 H 0.8087 0.9474 0.1824
C3_2 C 0.6451(16) 0.9284(12) 0.1370(12)
C4_2 C 0.5255(16) 0.9139(13) 0.1603(12)
H4_2 H 0.4720 0.9063 0.1173
C5_2 C 0.4819(17) 0.9106(12) 0.2519(11)
H5_2 H 0.3991 0.9006 0.2691
C6_2 C 0.7561(16) 0.9507(12) 0.3595(12)
C7_2 C 0.6955(17) 0.9326(15) 0.0363(13)
H9_2 H 0.5683 0.8342 0.0248
O9_2 O 0.7417(11) 0.7888(9) 0.5957(8)
O10_2 O 0.5915(11) 0.7775(9) 0.5064(8)
C14_2 C 0.8298(15) 0.2164(11) 0.5539(11)
C15_2 C 0.7831(17) 0.3087(13) 0.5486(12)
H10_2 H 0.7030 0.3249 0.5320
C16_2 C 0.8576(15) 0.3732(13) 0.5683(10)
C17_2 C 0.9772(16) 0.3451(14) 0.5843(10)
C19_2 C 0.7450(17) 0.1505(14) 0.5383(11)
C20_2 C 0.8111(16) 0.4688(14) 0.5639(12)
C21_2 C 0.7159(17) 0.5116(14) 0.5077(13)
H13_2 H 0.6811 0.4805 0.4708
C22_2 C 0.6716(16) 0.6001(13) 0.5057(11)
H14_2 H 0.6062 0.6266 0.4689
C23_2 C 0.7256(16) 0.6503(13) 0.5594(12)
C24_2 C 0.8168(17) 0.6036(13) 0.6162(12)
H15_2 H 0.8517 0.6331 0.6546
C25_2 C 0.8589(17) 0.5152(13) 0.6189(12)
H16_2 H 0.9206 0.4868 0.6587
C26_2 C 0.6803(17) 0.7472(13) 0.5539(12)
O11 O 0.7404(10) 0.9118(9) 0.7120(7)
C8_2 C 0.7883(19) 0.9887(15) 0.9952(13)
C9_2 C 0.8315(16) 0.9957(13) 0.9006(12)
C10_2 C 0.7686(16) 0.9399(13) 0.8578(12)
C11_2 C 0.6751(17) 0.8856(14) 0.8982(12)
H8_2 H 0.6357 0.8532 0.8645
C12_2 C 0.6316(17) 0.8748(13) 0.9938(12)
C13_2 C 0.8100(16) 0.9531(13) 0.7522(12)
loop_
_geom_bond_atom_site_label_1
_geom_bond_atom_site_label_2
_geom_bond_site_symmetry_1
_geom_bond_site_symmetry_2
O3 C13 1_555 1_555
C9 C8 1_555 1_555
C10 C9 1_555 1_555
C11 C10 1_555 1_555
H8 C11 1_555 1_555
C13 C10 1_555 1_555
Mg7 O3 1_555 1_555
C11 C12 1_555 1_555
Mg1 O1 1_555 1_555
Mg7 O1 1_555 1_555
O1 C6 1_555 1_555
O2 C6 1_555 1_555
O5 Mg1 1_555 1_555
H1 O5 1_555 1_555
O6 Mg7 1_555 1_555
H2 O6 1_555 1_555
N1 Mg1 1_555 1_555
C1 N1 1_555 1_555
C2 C1 1_555 1_555
H3 C2 1_555 1_555
C3 C2 1_555 1_555
C4 C3 1_555 1_555
H4 C4 1_555 1_555
C5 N1 1_555 1_555
H5 C5 1_555 1_555
C6 C1 1_555 1_555
C7 C3 1_555 1_555
O7 C19 1_555 1_555
O8 C19 1_555 1_555
O9 Mg7 1_555 1_555
O10 Mg1 1_555 1_555
N2 C14 1_555 1_555
C14 C15 1_555 1_555
C15 H10 1_555 1_555
C16 C15 1_555 1_555
C17 C16 1_555 1_555
C19 C14 1_555 1_555
C20 C16 1_555 1_555
C21 C20 1_555 1_555
H13 C21 1_555 1_555
C22 C21 1_555 1_555
H14 C22 1_555 1_555
C23 C22 1_555 1_555
C24 C23 1_555 1_555
H15 C24 1_555 1_555
C25 C20 1_555 1_555
H16 C25 1_555 1_555
C26 O9 1_555 1_555
Mg5 O8 1_555 1_555
Mg10 O7 1_555 1_555
O17 Mg1 1_555 1_555
Mg7 O5 1_555 1_555
C4 C5 1_555 1_555
O10 C26 1_555 1_555
N2 Mg10 1_555 1_555
C23 C26 1_555 1_555
C24 C25 1_555 1_555
Mg10 O4 1_555 1_555
Mg5 O13 1_555 1_555
H12 C18 1_555 1_555
O12 Mg3 1_555 1_555
O16 Mg3 1_555 1_555
N3 Mg3 1_555 1_555
H12_2 C18_2 1_555 1_555
Mg5 O1_2 1_555 1_555
Mg2 O1_2 1_555 1_555
O1_2 C6_2 1_555 1_555
O2_2 C6_2 1_555 1_555
H1_2 O13 1_555 1_555
O14 Mg2 1_555 1_555
H2_2 O14 1_555 1_555
N1_2 Mg5 1_555 1_555
C1_2 N1_2 1_555 1_555
C2_2 C1_2 1_555 1_555
H3_2 C2_2 1_555 1_555
C3_2 C2_2 1_555 1_555
C4_2 C3_2 1_555 1_555
H4_2 C4_2 1_555 1_555
C5_2 N1_2 1_555 1_555
H5_2 C5_2 1_555 1_555
C6_2 C1_2 1_555 1_555
C7_2 C3_2 1_555 1_555
O16 C19_2 1_555 1_555
O17 C19_2 1_555 1_555
O9_2 Mg2 1_555 1_555
O10_2 Mg5 1_555 1_555
N3 C14_2 1_555 1_555
C14_2 C15_2 1_555 1_555
C15_2 H10_2 1_555 1_555
C16_2 C15_2 1_555 1_555
C17_2 C16_2 1_555 1_555
C19_2 C14_2 1_555 1_555
C20_2 C16_2 1_555 1_555
C21_2 C20_2 1_555 1_555
H13_2 C21_2 1_555 1_555
C22_2 C21_2 1_555 1_555
H14_2 C22_2 1_555 1_555
C23_2 C22_2 1_555 1_555
C24_2 C23_2 1_555 1_555
H15_2 C24_2 1_555 1_555
C25_2 C20_2 1_555 1_555
H16_2 C25_2 1_555 1_555
C26_2 O9_2 1_555 1_555
O11 Mg2 1_555 1_555
Mg2 O13 1_555 1_555
C4_2 C5_2 1_555 1_555
O10_2 C26_2 1_555 1_555
C23_2 C26_2 1_555 1_555
C24_2 C25_2 1_555 1_555
O11 C13_2 1_555 1_555
C9_2 C8_2 1_555 1_555
C10_2 C9_2 1_555 1_555
C11_2 C10_2 1_555 1_555
H8_2 C11_2 1_555 1_555
C13_2 C10_2 1_555 1_555
C11_2 C12_2 1_555 1_555

#END
