
###############################################################################
#
# This file contains modified crystal structure data generated from the
# MOF subset of the Cambridge Structural Database (CSD) v543 
# hosted by the Cambridge Crystallographic Data Centre (CCDC).
#
# This work is licensed under the Creative Commons
# Attribution-NonCommercial-ShareAlike 4.0 International License.
# To view a copy of this license, visit
# http://creativecommons.org/licenses/by-nc-sa/4.0/
# or send a letter to
# Creative Commons, PO Box 1866, Mountain View, CA 94042, USA.
#
# CIF created using the CSD Python API on 29 September 2022
# The structure has been converted into the P1 space group
# The structure has a 3D framework
# The original CSD entry QUDDIF is in the monoclinic crystal system
# The framework has been calculated to contain at least 10.0% void space
# The void calculation uses a probe of radius 1.32A, grid spacing 0.4
#
###############################################################################

data_QUDDIF
_chemical_formula_moiety         '(C104 H64 Mg12 N8 O40)n'
_symmetry_cell_setting           triclinic
_symmetry_space_group_name_H-M   'P 1'
_symmetry_Int_Tables_number      1
_space_group_name_Hall           'P 1'
loop_
_symmetry_equiv_pos_site_id
_symmetry_equiv_pos_as_xyz
1 x,y,z
_cell_length_a                   23.4400(4)
_cell_length_b                   18.8301(3)
_cell_length_c                   10.91659(18)
_cell_angle_alpha                90
_cell_angle_beta                 93.4812(17)
_cell_angle_gamma                90
_cell_volume                     4809.45
loop_
_atom_site_label
_atom_site_type_symbol
_atom_site_fract_x
_atom_site_fract_y
_atom_site_fract_z
Mg9 Mg 0.000000 0.56729(5) 0.250000
Mg1 Mg 0.43592(3) 0.01936(4) 0.47828(6)
Mg2 Mg 0.500000 0.06729(5) 0.250000
O5 O 0.51377(7) 0.05996(9) 0.44062(14)
H1 H 0.5223(18) 0.096(2) 0.462(4)
Mg3 Mg 0.56408(3) 0.01936(4) 0.02172(6)
O10 O 0.48623(7) 0.05996(9) 0.05938(14)
H9 H 0.4777(18) 0.096(2) 0.038(4)
O12 O 0.39885(7) 0.06094(9) 0.62867(15)
O13 O 0.56165(7) 0.14325(9) 0.24662(16)
O14 O 0.43835(7) 0.14325(9) 0.25338(16)
O15 O 0.61590(7) 0.10326(10) 0.09984(15)
O16 O 0.38410(7) 0.10326(10) 0.40016(15)
O11 O 0.60115(7) 0.06094(9) 0.87133(15)
N1 N 0.36504(8) 0.94336(11) 0.43932(18)
O1 O 0.44247(7) 0.98846(8) 0.29460(14)
O2 O 0.39885(7) 0.93906(9) 0.12867(15)
O3 O 0.06165(7) 0.64325(9) 0.24662(16)
O4 O 0.11590(7) 0.60326(10) 0.09984(15)
C1 C 0.36108(10) 0.91946(13) 0.3227(2)
C2 C 0.32060(11) 0.87108(14) 0.2791(2)
H2 H 0.319390 0.856129 0.195872
C3 C 0.28123(11) 0.84421(15) 0.3591(2)
C4 C 0.28506(11) 0.86876(15) 0.4791(2)
H3 H 0.259118 0.852210 0.536320
C5 C 0.32726(11) 0.91788(15) 0.5151(2)
H4 H 0.329309 0.934079 0.597695
C6 C 0.40419(9) 0.95095(12) 0.2412(2)
C7 C 0.23703(11) 0.79214(15) 0.3149(2)
C8 C 0.18475(12) 0.78907(16) 0.3700(3)
H5 H 0.177704 0.820147 0.435960
C9 C 0.14317(11) 0.74088(15) 0.3288(2)
H6 H 0.107991 0.738901 0.367558
C10 C 0.15227(10) 0.69544(14) 0.2316(2)
C11 C 0.20498(12) 0.69738(16) 0.1784(2)
H7 H 0.212166 0.665735 0.113355
C12 C 0.24676(12) 0.74498(17) 0.2197(3)
H8 H 0.282460 0.745598 0.182858
C13 C 0.10651(10) 0.64339(13) 0.1892(2)
N2 N 0.63496(8) 0.94336(11) 0.06068(18)
O6 O 0.55753(7) 0.98846(8) 0.20540(14)
O7 O 0.60115(7) 0.93906(9) 0.37133(15)
O8 O 0.93835(7) 0.64325(9) 0.25338(16)
O9 O 0.88410(7) 0.60326(10) 0.40016(15)
C14 C 0.63892(10) 0.91946(13) 0.1773(2)
C15 C 0.67940(11) 0.87108(14) 0.2209(2)
H10 H 0.680610 0.856129 0.304128
C16 C 0.71877(11) 0.84421(15) 0.1409(2)
C17 C 0.71494(11) 0.86876(15) 0.0209(2)
C19 C 0.59581(9) 0.95095(12) 0.2588(2)
C20 C 0.76297(11) 0.79214(15) 0.1851(2)
C21 C 0.81525(12) 0.78907(16) 0.1300(3)
H13 H 0.822296 0.820147 0.064040
C22 C 0.85683(11) 0.74088(15) 0.1712(2)
H14 H 0.892009 0.738901 0.132442
C23 C 0.84773(10) 0.69544(14) 0.2684(2)
C24 C 0.79502(12) 0.69738(16) 0.3216(2)
H15 H 0.787834 0.665735 0.386645
C25 C 0.75324(12) 0.74498(17) 0.2803(3)
H16 H 0.717540 0.745598 0.317142
C26 C 0.89349(10) 0.64339(13) 0.3108(2)
Mg4 Mg 0.93592(3) 0.51936(4) 0.47828(6)
Mg5 Mg 0.06408(3) 0.51936(4) 0.02172(6)
Mg6 Mg 0.56408(3) 0.98064(4) 0.52172(6)
Mg9_2 Mg 1.000000 0.56729(5) 0.250000
O17 O 0.48623(7) 0.94004(9) 0.55938(14)
H11 H 0.740882 0.852210 0.963680
C18 C 0.67274(11) 0.91788(15) 0.9849(2)
H12 H 0.670691 0.934079 0.902305
Mg7 Mg 0.43592(3) 0.98064(4) 0.97828(6)
O18 O 0.51377(7) 0.94004(9) 0.94062(14)
O5_2 O 0.01377(7) 0.55996(9) 0.44062(14)
H1_2 H 0.0223(18) 0.596(2) 0.462(4)
N2_2 N 0.13496(8) 0.44336(11) 0.06068(18)
O6_2 O 0.05753(7) 0.48846(8) 0.20540(14)
O7_2 O 0.10115(7) 0.43906(9) 0.37133(15)
C14_2 C 0.13892(10) 0.41946(13) 0.1773(2)
C15_2 C 0.17940(11) 0.37108(14) 0.2209(2)
H10_2 H 0.180610 0.356129 0.304128
C16_2 C 0.21877(11) 0.34421(15) 0.1409(2)
C17_2 C 0.21494(11) 0.36876(15) 0.0209(2)
C19_2 C 0.09581(9) 0.45095(12) 0.2588(2)
C20_2 C 0.26297(11) 0.29214(15) 0.1851(2)
C21_2 C 0.31525(12) 0.28907(16) 0.1300(3)
H13_2 H 0.322296 0.320147 0.064040
C22_2 C 0.35683(11) 0.24088(15) 0.1712(2)
H14_2 H 0.392009 0.238901 0.132442
C23_2 C 0.34773(10) 0.19544(14) 0.2684(2)
C24_2 C 0.29502(12) 0.19738(16) 0.3216(2)
H15_2 H 0.287834 0.165735 0.386645
C25_2 C 0.25324(12) 0.24498(17) 0.2803(3)
H16_2 H 0.217540 0.245598 0.317142
C26_2 C 0.39349(10) 0.14339(13) 0.3108(2)
Mg6_2 Mg 0.06408(3) 0.48064(4) 0.52172(6)
H11_2 H 0.240882 0.352210 0.963680
C18_2 C 0.17274(11) 0.41788(15) 0.9849(2)
H12_2 H 0.170691 0.434079 0.902305
O11_2 O 0.10115(7) 0.56094(9) 0.87133(15)
O18_2 O 0.01377(7) 0.44004(9) 0.94062(14)
N1_2 N 0.86504(8) 0.44336(11) 0.43932(18)
O1_2 O 0.94247(7) 0.48846(8) 0.29460(14)
O2_2 O 0.89885(7) 0.43906(9) 0.12867(15)
C1_2 C 0.86108(10) 0.41946(13) 0.3227(2)
C2_2 C 0.82060(11) 0.37108(14) 0.2791(2)
H2_2 H 0.819390 0.356129 0.195872
C3_2 C 0.78123(11) 0.34421(15) 0.3591(2)
C4_2 C 0.78506(11) 0.36876(15) 0.4791(2)
H3_2 H 0.759118 0.352210 0.536320
C5_2 C 0.82726(11) 0.41788(15) 0.5151(2)
H4_2 H 0.829309 0.434079 0.597695
C6_2 C 0.90419(9) 0.45095(12) 0.2412(2)
C7_2 C 0.73703(11) 0.29214(15) 0.3149(2)
C8_2 C 0.68475(12) 0.28907(16) 0.3700(3)
H5_2 H 0.677704 0.320147 0.435960
C9_2 C 0.64317(11) 0.24088(15) 0.3288(2)
H6_2 H 0.607991 0.238901 0.367558
C10_2 C 0.65227(10) 0.19544(14) 0.2316(2)
C11_2 C 0.70498(12) 0.19738(16) 0.1784(2)
H7_2 H 0.712166 0.165735 0.113355
C12_2 C 0.74676(12) 0.24498(17) 0.2197(3)
H8_2 H 0.782460 0.245598 0.182858
C13_2 C 0.60651(10) 0.14339(13) 0.1892(2)
O10_2 O 0.98623(7) 0.55996(9) 0.05938(14)
H9_2 H 0.9777(18) 0.596(2) 0.038(4)
O12_2 O 0.89885(7) 0.56094(9) 0.62867(15)
O17_2 O 0.98623(7) 0.44004(9) 0.55938(14)
Mg7_2 Mg 0.93592(3) 0.48064(4) 0.97828(6)
Mg8 Mg -0.000000 0.43271(5) 0.750000
H11_3 H 0.259118 0.147790 0.036320
C18_3 C 0.32726(11) 0.08212(15) 0.0151(2)
H12_3 H 0.329309 0.065921 0.097695
N1_3 N 0.63496(8) 0.05664(11) 0.56068(18)
O1_3 O 0.55753(7) 0.01154(8) 0.70540(14)
O3_2 O 0.93835(7) 0.35675(9) 0.75338(16)
O4_2 O 0.88410(7) 0.39674(10) 0.90016(15)
C1_3 C 0.63892(10) 0.08054(13) 0.6773(2)
C2_3 C 0.67940(11) 0.12892(14) 0.7209(2)
H2_3 H 0.680610 0.143871 0.804128
C3_3 C 0.71877(11) 0.15579(15) 0.6409(2)
C4_3 C 0.71494(11) 0.13124(15) 0.5209(2)
H3_3 H 0.740882 0.147790 0.463680
C5_3 C 0.67274(11) 0.08212(15) 0.4849(2)
H4_3 H 0.670691 0.065921 0.402305
C6_3 C 0.59581(9) 0.04905(12) 0.7588(2)
C7_3 C 0.76297(11) 0.20786(15) 0.6851(2)
C8_3 C 0.81525(12) 0.21093(16) 0.6300(3)
H5_3 H 0.822296 0.179853 0.564040
C9_3 C 0.85683(11) 0.25912(15) 0.6712(2)
H6_3 H 0.892009 0.261099 0.632442
C10_3 C 0.84773(10) 0.30456(14) 0.7684(2)
C11_3 C 0.79502(12) 0.30262(16) 0.8216(2)
H7_3 H 0.787834 0.334265 0.886645
C12_3 C 0.75324(12) 0.25502(17) 0.7803(3)
H8_3 H 0.717540 0.254402 0.817142
C13_3 C 0.89349(10) 0.35661(13) 0.8108(2)
N2_3 N 0.36504(8) 0.05664(11) 0.93932(18)
O6_3 O 0.44247(7) 0.01154(8) 0.79460(14)
O8_2 O 0.06165(7) 0.35675(9) 0.74662(16)
O9_2 O 0.11590(7) 0.39674(10) 0.59984(15)
C14_3 C 0.36108(10) 0.08054(13) 0.8227(2)
C15_3 C 0.32060(11) 0.12892(14) 0.7791(2)
H10_3 H 0.319390 0.143871 0.695872
C16_3 C 0.28123(11) 0.15579(15) 0.8591(2)
C17_3 C 0.28506(11) 0.13124(15) 0.9791(2)
C19_3 C 0.40419(9) 0.04905(12) 0.7412(2)
C20_3 C 0.23703(11) 0.20786(15) 0.8149(2)
C21_3 C 0.18475(12) 0.21093(16) 0.8700(3)
H13_3 H 0.177704 0.179853 0.935960
C22_3 C 0.14317(11) 0.25912(15) 0.8288(2)
H14_3 H 0.107991 0.261099 0.867558
C23_3 C 0.15227(10) 0.30456(14) 0.7316(2)
C24_3 C 0.20498(12) 0.30262(16) 0.6784(2)
H15_3 H 0.212166 0.334265 0.613355
C25_3 C 0.24676(12) 0.25502(17) 0.7197(3)
H16_3 H 0.282460 0.254402 0.682858
C26_3 C 0.10651(10) 0.35661(13) 0.6892(2)
Mg8_2 Mg 1.000000 0.43271(5) 0.750000
Mg2_2 Mg 0.500000 0.93271(5) 0.750000
H1_3 H 0.4777(18) 0.904(2) 0.538(4)
H9_3 H 0.5223(18) 0.904(2) 0.962(4)
O13_2 O 0.43835(7) 0.85675(9) 0.75338(16)
O14_2 O 0.56165(7) 0.85675(9) 0.74662(16)
O15_2 O 0.38410(7) 0.89674(10) 0.90016(15)
O16_2 O 0.61590(7) 0.89674(10) 0.59984(15)
N1_4 N 0.13496(8) 0.55664(11) 0.56068(18)
O1_4 O 0.05753(7) 0.51154(8) 0.70540(14)
C1_4 C 0.13892(10) 0.58054(13) 0.6773(2)
C2_4 C 0.17940(11) 0.62892(14) 0.7209(2)
H2_4 H 0.180610 0.643871 0.804128
C3_4 C 0.21877(11) 0.65579(15) 0.6409(2)
C4_4 C 0.21494(11) 0.63124(15) 0.5209(2)
H3_4 H 0.240882 0.647790 0.463680
C5_4 C 0.17274(11) 0.58212(15) 0.4849(2)
H4_4 H 0.170691 0.565921 0.402305
C6_4 C 0.09581(9) 0.54905(12) 0.7588(2)
C7_4 C 0.26297(11) 0.70786(15) 0.6851(2)
C8_4 C 0.31525(12) 0.71093(16) 0.6300(3)
H5_4 H 0.322296 0.679853 0.564040
C9_4 C 0.35683(11) 0.75912(15) 0.6712(2)
H6_4 H 0.392009 0.761099 0.632442
C10_4 C 0.34773(10) 0.80456(14) 0.7684(2)
C11_4 C 0.29502(12) 0.80262(16) 0.8216(2)
H7_4 H 0.287834 0.834265 0.886645
C12_4 C 0.25324(12) 0.75502(17) 0.7803(3)
H8_4 H 0.217540 0.754402 0.817142
C13_4 C 0.39349(10) 0.85661(13) 0.8108(2)
H9_4 H 0.0223(18) 0.404(2) 0.962(4)
H11_4 H 0.759118 0.647790 0.036320
C18_4 C 0.82726(11) 0.58212(15) 0.0151(2)
H12_4 H 0.829309 0.565921 0.097695
H1_4 H 0.9777(18) 0.404(2) 0.538(4)
N2_4 N 0.86504(8) 0.55664(11) 0.93932(18)
O6_4 O 0.94247(7) 0.51154(8) 0.79460(14)
C14_4 C 0.86108(10) 0.58054(13) 0.8227(2)
C15_4 C 0.82060(11) 0.62892(14) 0.7791(2)
H10_4 H 0.819390 0.643871 0.695872
C16_4 C 0.78123(11) 0.65579(15) 0.8591(2)
C17_4 C 0.78506(11) 0.63124(15) 0.9791(2)
C19_4 C 0.90419(9) 0.54905(12) 0.7412(2)
C20_4 C 0.73703(11) 0.70786(15) 0.8149(2)
C21_4 C 0.68475(12) 0.71093(16) 0.8700(3)
H13_4 H 0.677704 0.679853 0.935960
C22_4 C 0.64317(11) 0.75912(15) 0.8288(2)
H14_4 H 0.607991 0.761099 0.867558
C23_4 C 0.65227(10) 0.80456(14) 0.7316(2)
C24_4 C 0.70498(12) 0.80262(16) 0.6784(2)
H15_4 H 0.712166 0.834265 0.613355
C25_4 C 0.74676(12) 0.75502(17) 0.7197(3)
H16_4 H 0.782460 0.754402 0.682858
C26_4 C 0.60651(10) 0.85661(13) 0.6892(2)
loop_
_geom_bond_atom_site_label_1
_geom_bond_atom_site_label_2
_geom_bond_site_symmetry_1
_geom_bond_site_symmetry_2
O5 Mg1 1_555 1_555
H1 O5 1_555 1_555
O10 Mg2 1_555 1_555
H9 O10 1_555 1_555
O12 Mg1 1_555 1_555
O13 Mg2 1_555 1_555
O14 Mg2 1_555 1_555
O15 Mg3 1_555 1_555
O16 Mg1 1_555 1_555
Mg2 O5 1_555 1_555
Mg3 O10 1_555 1_555
N1 C1 1_555 1_555
O2 C6 1_555 1_555
O3 C13 1_555 1_555
O4 C13 1_555 1_555
C1 C2 1_555 1_555
C2 H2 1_555 1_555
C3 C2 1_555 1_555
C4 C3 1_555 1_555
H3 C4 1_555 1_555
C5 N1 1_555 1_555
H4 C5 1_555 1_555
C6 O1 1_555 1_555
C7 C3 1_555 1_555
C8 C7 1_555 1_555
H5 C8 1_555 1_555
C9 C8 1_555 1_555
H6 C9 1_555 1_555
C10 C9 1_555 1_555
C11 C10 1_555 1_555
H7 C11 1_555 1_555
C12 C7 1_555 1_555
H8 C12 1_555 1_555
C13 C10 1_555 1_555
N2 C14 1_555 1_555
O7 C19 1_555 1_555
O8 C26 1_555 1_555
O9 C26 1_555 1_555
C14 C15 1_555 1_555
C15 H10 1_555 1_555
C16 C15 1_555 1_555
C17 C16 1_555 1_555
C19 O6 1_555 1_555
C20 C16 1_555 1_555
C21 C20 1_555 1_555
H13 C21 1_555 1_555
C22 C21 1_555 1_555
H14 C22 1_555 1_555
C23 C22 1_555 1_555
C24 C23 1_555 1_555
H15 C24 1_555 1_555
C25 C20 1_555 1_555
H16 C25 1_555 1_555
C26 C23 1_555 1_555
Mg4 O9 1_555 1_555
Mg5 O4 1_555 1_555
Mg9 O3 1_555 1_555
Mg9_2 O8 1_555 1_555
C1 C6 1_555 1_555
C4 C5 1_555 1_555
C11 C12 1_555 1_555
O7 Mg6 1_555 1_555
C14 C19 1_555 1_555
C24 C25 1_555 1_555
Mg6 O17 1_555 1_555
H12 C18 1_555 1_555
Mg7 O18 1_555 1_555
H1_2 O5_2 1_555 1_555
Mg5 N2_2 1_555 1_555
N2_2 C14_2 1_555 1_555
O6_2 Mg9 1_555 1_555
O7_2 C19_2 1_555 1_555
O14 C26_2 1_555 1_555
O16 C26_2 1_555 1_555
C14_2 C15_2 1_555 1_555
C15_2 H10_2 1_555 1_555
C16_2 C15_2 1_555 1_555
C17_2 C16_2 1_555 1_555
C19_2 O6_2 1_555 1_555
C20_2 C16_2 1_555 1_555
C21_2 C20_2 1_555 1_555
H13_2 C21_2 1_555 1_555
C22_2 C21_2 1_555 1_555
H14_2 C22_2 1_555 1_555
C23_2 C22_2 1_555 1_555
C24_2 C23_2 1_555 1_555
H15_2 C24_2 1_555 1_555
C25_2 C20_2 1_555 1_555
H16_2 C25_2 1_555 1_555
C26_2 C23_2 1_555 1_555
Mg6_2 O5_2 1_555 1_555
Mg9 O5_2 1_555 1_555
Mg5 O6_2 1_555 1_555
O7_2 Mg6_2 1_555 1_555
C14_2 C19_2 1_555 1_555
C24_2 C25_2 1_555 1_555
H12_2 C18_2 1_555 1_555
Mg4 N1_2 1_555 1_555
Mg9_2 O1_2 1_555 1_555
N1_2 C1_2 1_555 1_555
O1_2 Mg4 1_555 1_555
O2_2 C6_2 1_555 1_555
O13 C13_2 1_555 1_555
O15 C13_2 1_555 1_555
C1_2 C2_2 1_555 1_555
C2_2 H2_2 1_555 1_555
C3_2 C2_2 1_555 1_555
C4_2 C3_2 1_555 1_555
H3_2 C4_2 1_555 1_555
C5_2 N1_2 1_555 1_555
H4_2 C5_2 1_555 1_555
C6_2 O1_2 1_555 1_555
C7_2 C3_2 1_555 1_555
C8_2 C7_2 1_555 1_555
H5_2 C8_2 1_555 1_555
C9_2 C8_2 1_555 1_555
H6_2 C9_2 1_555 1_555
C10_2 C9_2 1_555 1_555
C11_2 C10_2 1_555 1_555
H7_2 C11_2 1_555 1_555
C12_2 C7_2 1_555 1_555
H8_2 C12_2 1_555 1_555
C13_2 C10_2 1_555 1_555
O10_2 Mg9_2 1_555 1_555
H9_2 O10_2 1_555 1_555
O12_2 Mg4 1_555 1_555
O17_2 Mg4 1_555 1_555
C1_2 C6_2 1_555 1_555
C4_2 C5_2 1_555 1_555
C11_2 C12_2 1_555 1_555
H12_3 C18_3 1_555 1_555
N1_3 C1_3 1_555 1_555
O11 C6_3 1_555 1_555
O3_2 C13_3 1_555 1_555
O4_2 C13_3 1_555 1_555
C1_3 C2_3 1_555 1_555
C2_3 H2_3 1_555 1_555
C3_3 C2_3 1_555 1_555
C4_3 C3_3 1_555 1_555
H3_3 C4_3 1_555 1_555
C5_3 N1_3 1_555 1_555
H4_3 C5_3 1_555 1_555
C6_3 O1_3 1_555 1_555
C7_3 C3_3 1_555 1_555
C8_3 C7_3 1_555 1_555
H5_3 C8_3 1_555 1_555
C9_3 C8_3 1_555 1_555
H6_3 C9_3 1_555 1_555
C10_3 C9_3 1_555 1_555
C11_3 C10_3 1_555 1_555
H7_3 C11_3 1_555 1_555
C12_3 C7_3 1_555 1_555
H8_3 C12_3 1_555 1_555
C13_3 C10_3 1_555 1_555
N2_3 C14_3 1_555 1_555
O12 C19_3 1_555 1_555
O8_2 C26_3 1_555 1_555
O9_2 C26_3 1_555 1_555
C14_3 C15_3 1_555 1_555
C15_3 H10_3 1_555 1_555
C16_3 C15_3 1_555 1_555
C17_3 C16_3 1_555 1_555
C19_3 O6_3 1_555 1_555
C20_3 C16_3 1_555 1_555
C21_3 C20_3 1_555 1_555
H13_3 C21_3 1_555 1_555
C22_3 C21_3 1_555 1_555
H14_3 C22_3 1_555 1_555
C23_3 C22_3 1_555 1_555
C24_3 C23_3 1_555 1_555
H15_3 C24_3 1_555 1_555
C25_3 C20_3 1_555 1_555
H16_3 C25_3 1_555 1_555
C26_3 C23_3 1_555 1_555
Mg6_2 O9_2 1_555 1_555
Mg7_2 O4_2 1_555 1_555
Mg8_2 O3_2 1_555 1_555
Mg8 O8_2 1_555 1_555
C1_3 C6_3 1_555 1_555
C4_3 C5_3 1_555 1_555
C11_3 C12_3 1_555 1_555
C14_3 C19_3 1_555 1_555
C24_3 C25_3 1_555 1_555
H1_3 O17 1_555 1_555
O18 Mg2_2 1_555 1_555
H9_3 O18 1_555 1_555
O13_2 Mg2_2 1_555 1_555
O14_2 Mg2_2 1_555 1_555
O15_2 Mg7 1_555 1_555
O16_2 Mg6 1_555 1_555
Mg2_2 O17 1_555 1_555
Mg6_2 N1_4 1_555 1_555
Mg8 O1_4 1_555 1_555
N1_4 C1_4 1_555 1_555
O1_4 Mg6_2 1_555 1_555
O11_2 C6_4 1_555 1_555
O13_2 C13_4 1_555 1_555
O15_2 C13_4 1_555 1_555
C1_4 C2_4 1_555 1_555
C2_4 H2_4 1_555 1_555
C3_4 C2_4 1_555 1_555
C4_4 C3_4 1_555 1_555
H3_4 C4_4 1_555 1_555
C5_4 N1_4 1_555 1_555
H4_4 C5_4 1_555 1_555
C6_4 O1_4 1_555 1_555
C7_4 C3_4 1_555 1_555
C8_4 C7_4 1_555 1_555
H5_4 C8_4 1_555 1_555
C9_4 C8_4 1_555 1_555
H6_4 C9_4 1_555 1_555
C10_4 C9_4 1_555 1_555
C11_4 C10_4 1_555 1_555
H7_4 C11_4 1_555 1_555
C12_4 C7_4 1_555 1_555
H8_4 C12_4 1_555 1_555
C13_4 C10_4 1_555 1_555
O18_2 Mg8 1_555 1_555
H9_4 O18_2 1_555 1_555
C1_4 C6_4 1_555 1_555
C4_4 C5_4 1_555 1_555
C11_4 C12_4 1_555 1_555
H12_4 C18_4 1_555 1_555
H1_4 O17_2 1_555 1_555
Mg7_2 N2_4 1_555 1_555
N2_4 C14_4 1_555 1_555
O6_4 Mg8_2 1_555 1_555
O12_2 C19_4 1_555 1_555
O14_2 C26_4 1_555 1_555
O16_2 C26_4 1_555 1_555
C14_4 C15_4 1_555 1_555
C15_4 H10_4 1_555 1_555
C16_4 C15_4 1_555 1_555
C17_4 C16_4 1_555 1_555
C19_4 O6_4 1_555 1_555
C20_4 C16_4 1_555 1_555
C21_4 C20_4 1_555 1_555
H13_4 C21_4 1_555 1_555
C22_4 C21_4 1_555 1_555
H14_4 C22_4 1_555 1_555
C23_4 C22_4 1_555 1_555
C24_4 C23_4 1_555 1_555
H15_4 C24_4 1_555 1_555
C25_4 C20_4 1_555 1_555
H16_4 C25_4 1_555 1_555
C26_4 C23_4 1_555 1_555
Mg8_2 O17_2 1_555 1_555
Mg7_2 O6_4 1_555 1_555
C14_4 C19_4 1_555 1_555
C24_4 C25_4 1_555 1_555

#END
