
###############################################################################
#
# This file contains modified crystal structure data generated from the
# MOF subset of the Cambridge Structural Database (CSD) v543 
# hosted by the Cambridge Crystallographic Data Centre (CCDC).
#
# This work is licensed under the Creative Commons
# Attribution-NonCommercial-ShareAlike 4.0 International License.
# To view a copy of this license, visit
# http://creativecommons.org/licenses/by-nc-sa/4.0/
# or send a letter to
# Creative Commons, PO Box 1866, Mountain View, CA 94042, USA.
#
# CIF created using the CSD Python API on 29 September 2022
# The structure has been converted into the P1 space group
# The structure has a 3D framework
# The original CSD entry QUDDAX is in the monoclinic crystal system
# The framework has been calculated to contain at least 10.0% void space
# The void calculation uses a probe of radius 1.32A, grid spacing 0.4
#
###############################################################################

data_QUDDAX
_chemical_formula_moiety         '(C104 H64 Mg12 N8 O40)n'
_symmetry_cell_setting           triclinic
_symmetry_space_group_name_H-M   'P 1'
_symmetry_Int_Tables_number      1
_space_group_name_Hall           'P 1'
loop_
_symmetry_equiv_pos_site_id
_symmetry_equiv_pos_as_xyz
1 x,y,z
_cell_length_a                   24.196(5)
_cell_length_b                   17.771(4)
_cell_length_c                   10.927(2)
_cell_angle_alpha                90
_cell_angle_beta                 92.74(3)
_cell_angle_gamma                90
_cell_volume                     4693.1
loop_
_atom_site_label
_atom_site_type_symbol
_atom_site_fract_x
_atom_site_fract_y
_atom_site_fract_z
Mg9 Mg -0.0000 0.57145(9) 0.7500
O12 O 0.40162(10) 0.06329(16) 0.1344(2)
Mg1 Mg 0.43753(4) 0.02362(7) 0.98139(9)
Mg2 Mg 0.5000 0.07145(9) 0.7500
O5 O 0.51457(9) 0.06240(16) 0.94067(19)
H1 H 0.522(2) 0.103(3) 0.960(5)
Mg3 Mg 0.56247(4) 0.02362(7) 0.51861(9)
O10 O 0.48543(9) 0.06240(16) 0.55933(19)
H9 H 0.478(2) 0.103(3) 0.540(5)
O11 O 0.59838(10) 0.06329(16) 0.3656(2)
O13 O 0.61080(10) 0.10986(16) 0.5967(2)
O14 O 0.38920(10) 0.10986(16) 0.9033(2)
O15 O 0.56001(10) 0.15121(15) 0.7490(2)
O16 O 0.43999(10) 0.15121(15) 0.7510(2)
H3 H 0.262(2) 0.852(3) 0.037(5)
C5 C 0.32859(15) 0.9197(2) 0.0196(3)
H4 H 0.333(2) 0.940(3) 0.103(5)
Mg6 Mg 0.56247(4) 0.97638(7) 0.01861(9)
O17 O 0.48543(9) 0.93760(16) 0.05933(19)
N1 N 0.36687(12) 0.9448(2) 0.9441(2)
O1 O 0.44481(9) 0.98698(14) 0.79957(19)
O2 O 0.40162(10) 0.93671(16) 0.6344(2)
O3 O 0.11080(10) 0.60986(16) 0.5967(2)
O4 O 0.06001(10) 0.65121(15) 0.7490(2)
C1 C 0.36232(14) 0.9212(2) 0.8267(3)
C2 C 0.32055(15) 0.8748(2) 0.7816(3)
H2 H 0.314(2) 0.862(3) 0.697(5)
C3 C 0.28085(15) 0.8482(2) 0.8599(3)
C4 C 0.28570(16) 0.8725(3) 0.9817(3)
C6 C 0.40663(14) 0.9509(2) 0.7466(3)
C7 C 0.23522(15) 0.7980(2) 0.8151(3)
C8 C 0.24299(15) 0.7469(3) 0.7205(3)
H5 H 0.279(2) 0.746(3) 0.683(5)
C9 C 0.20021(16) 0.7009(2) 0.6785(3)
H6 H 0.207(2) 0.664(3) 0.616(5)
C10 C 0.14881(14) 0.7034(2) 0.7303(3)
C11 C 0.14054(15) 0.7543(2) 0.8247(3)
H7 H 0.098(2) 0.754(3) 0.848(4)
C12 C 0.18346(16) 0.8009(2) 0.8671(3)
H8 H 0.177(2) 0.844(3) 0.931(5)
C13 C 0.10275(15) 0.6509(2) 0.6883(3)
N2 N 0.63313(12) 0.9448(2) 0.5559(2)
O6 O 0.55519(9) 0.98698(14) 0.70043(19)
O7 O 0.59838(10) 0.93671(16) 0.8656(2)
O8 O 0.88920(10) 0.60986(16) 0.9033(2)
O9 O 0.93999(10) 0.65121(15) 0.7510(2)
C14 C 0.63768(14) 0.9212(2) 0.6733(3)
C15 C 0.67945(15) 0.8748(2) 0.7184(3)
H10 H 0.686(2) 0.862(3) 0.803(5)
C16 C 0.71915(15) 0.8482(2) 0.6401(3)
C17 C 0.71430(16) 0.8725(3) 0.5183(3)
H11 H 0.738(2) 0.852(3) 0.463(5)
C18 C 0.67141(15) 0.9197(2) 0.4804(3)
H12 H 0.667(2) 0.940(3) 0.397(5)
C19 C 0.59337(14) 0.9509(2) 0.7534(3)
C20 C 0.76478(15) 0.7980(2) 0.6849(3)
C21 C 0.75701(15) 0.7469(3) 0.7795(3)
H13 H 0.721(2) 0.746(3) 0.817(5)
C22 C 0.79979(16) 0.7009(2) 0.8215(3)
H14 H 0.793(2) 0.664(3) 0.884(5)
C23 C 0.85119(14) 0.7034(2) 0.7697(3)
C24 C 0.85946(15) 0.7543(2) 0.6753(3)
H15 H 0.902(2) 0.754(3) 0.652(4)
C25 C 0.81654(16) 0.8009(2) 0.6329(3)
H16 H 0.823(2) 0.844(3) 0.569(5)
C26 C 0.89725(15) 0.6509(2) 0.8117(3)
Mg4 Mg 0.93753(4) 0.52362(7) 0.98139(9)
Mg5 Mg 0.06247(4) 0.52362(7) 0.51861(9)
Mg7 Mg 0.43753(4) 0.97638(7) 0.48139(9)
Mg9_2 Mg 1.0000 0.57145(9) 0.7500
O18 O 0.51457(9) 0.93760(16) 0.44067(19)
Mg6_2 Mg 0.06247(4) 0.47638(7) 0.01861(9)
O5_2 O 0.01457(9) 0.56240(16) 0.94067(19)
H1_2 H 0.022(2) 0.603(3) 0.960(5)
N2_2 N 0.13313(12) 0.4448(2) 0.5559(2)
O6_2 O 0.05519(9) 0.48698(14) 0.70043(19)
O7_2 O 0.09838(10) 0.43671(16) 0.8656(2)
C14_2 C 0.13768(14) 0.4212(2) 0.6733(3)
C15_2 C 0.17945(15) 0.3748(2) 0.7184(3)
H10_2 H 0.186(2) 0.362(3) 0.803(5)
C16_2 C 0.21915(15) 0.3482(2) 0.6401(3)
C17_2 C 0.21430(16) 0.3725(3) 0.5183(3)
H11_2 H 0.238(2) 0.352(3) 0.463(5)
C18_2 C 0.17141(15) 0.4197(2) 0.4804(3)
H12_2 H 0.167(2) 0.440(3) 0.397(5)
C19_2 C 0.09337(14) 0.4509(2) 0.7534(3)
C20_2 C 0.26478(15) 0.2980(2) 0.6849(3)
C21_2 C 0.25701(15) 0.2469(3) 0.7795(3)
H13_2 H 0.221(2) 0.246(3) 0.817(5)
C22_2 C 0.29979(16) 0.2009(2) 0.8215(3)
H14_2 H 0.293(2) 0.164(3) 0.884(5)
C23_2 C 0.35119(14) 0.2034(2) 0.7697(3)
C24_2 C 0.35946(15) 0.2543(2) 0.6753(3)
H15_2 H 0.402(2) 0.254(3) 0.652(4)
C25_2 C 0.31654(16) 0.3009(2) 0.6329(3)
H16_2 H 0.323(2) 0.344(3) 0.569(5)
C26_2 C 0.39725(15) 0.1509(2) 0.8117(3)
O11_2 O 0.09838(10) 0.56329(16) 0.3656(2)
O18_2 O 0.01457(9) 0.43760(16) 0.44067(19)
H3_2 H 0.762(2) 0.352(3) 0.037(5)
C5_2 C 0.82859(15) 0.4197(2) 0.0196(3)
H4_2 H 0.833(2) 0.440(3) 0.103(5)
O12_2 O 0.90162(10) 0.56329(16) 0.1344(2)
O17_2 O 0.98543(9) 0.43760(16) 0.05933(19)
N1_2 N 0.86687(12) 0.4448(2) 0.9441(2)
O1_2 O 0.94481(9) 0.48698(14) 0.79957(19)
O2_2 O 0.90162(10) 0.43671(16) 0.6344(2)
C1_2 C 0.86232(14) 0.4212(2) 0.8267(3)
C2_2 C 0.82055(15) 0.3748(2) 0.7816(3)
H2_2 H 0.814(2) 0.362(3) 0.697(5)
C3_2 C 0.78085(15) 0.3482(2) 0.8599(3)
C4_2 C 0.78570(16) 0.3725(3) 0.9817(3)
C6_2 C 0.90663(14) 0.4509(2) 0.7466(3)
C7_2 C 0.73522(15) 0.2980(2) 0.8151(3)
C8_2 C 0.74299(15) 0.2469(3) 0.7205(3)
H5_2 H 0.779(2) 0.246(3) 0.683(5)
C9_2 C 0.70021(16) 0.2009(2) 0.6785(3)
H6_2 H 0.707(2) 0.164(3) 0.616(5)
C10_2 C 0.64881(14) 0.2034(2) 0.7303(3)
C11_2 C 0.64054(15) 0.2543(2) 0.8247(3)
H7_2 H 0.598(2) 0.254(3) 0.848(4)
C12_2 C 0.68346(16) 0.3009(2) 0.8671(3)
H8_2 H 0.677(2) 0.344(3) 0.931(5)
C13_2 C 0.60275(15) 0.1509(2) 0.6883(3)
O10_2 O 0.98543(9) 0.56240(16) 0.55933(19)
H9_2 H 0.978(2) 0.603(3) 0.540(5)
Mg7_2 Mg 0.93753(4) 0.47638(7) 0.48139(9)
Mg8 Mg -0.0000 0.42855(9) 0.2500
N1_3 N 0.63313(12) 0.0552(2) 0.0559(2)
O1_3 O 0.55519(9) 0.01302(14) 0.20043(19)
O3_2 O 0.88920(10) 0.39014(16) 0.4033(2)
O4_2 O 0.93999(10) 0.34879(15) 0.2510(2)
C1_3 C 0.63768(14) 0.0788(2) 0.1733(3)
C2_3 C 0.67945(15) 0.1252(2) 0.2184(3)
H2_3 H 0.686(2) 0.138(3) 0.303(5)
C3_3 C 0.71915(15) 0.1518(2) 0.1401(3)
C4_3 C 0.71430(16) 0.1275(3) 0.0183(3)
C6_3 C 0.59337(14) 0.0491(2) 0.2534(3)
C7_3 C 0.76478(15) 0.2020(2) 0.1849(3)
C8_3 C 0.75701(15) 0.2531(3) 0.2795(3)
H5_3 H 0.721(2) 0.254(3) 0.317(5)
C9_3 C 0.79979(16) 0.2991(2) 0.3215(3)
H6_3 H 0.793(2) 0.336(3) 0.384(5)
C10_3 C 0.85119(14) 0.2966(2) 0.2697(3)
C11_3 C 0.85946(15) 0.2457(2) 0.1753(3)
H7_3 H 0.902(2) 0.246(3) 0.152(4)
C12_3 C 0.81654(16) 0.1991(2) 0.1329(3)
H8_3 H 0.823(2) 0.156(3) 0.069(5)
C13_3 C 0.89725(15) 0.3491(2) 0.3117(3)
N2_3 N 0.36687(12) 0.0552(2) 0.4441(2)
O6_3 O 0.44481(9) 0.01302(14) 0.29957(19)
O8_2 O 0.11080(10) 0.39014(16) 0.0967(2)
O9_2 O 0.06001(10) 0.34879(15) 0.2490(2)
C14_3 C 0.36232(14) 0.0788(2) 0.3267(3)
C15_3 C 0.32055(15) 0.1252(2) 0.2816(3)
H10_3 H 0.314(2) 0.138(3) 0.197(5)
C16_3 C 0.28085(15) 0.1518(2) 0.3599(3)
C17_3 C 0.28570(16) 0.1275(3) 0.4817(3)
H11_3 H 0.262(2) 0.148(3) 0.537(5)
C18_3 C 0.32859(15) 0.0803(2) 0.5196(3)
H12_3 H 0.333(2) 0.060(3) 0.603(5)
C19_3 C 0.40663(14) 0.0491(2) 0.2466(3)
C20_3 C 0.23522(15) 0.2020(2) 0.3151(3)
C21_3 C 0.24299(15) 0.2531(3) 0.2205(3)
H13_3 H 0.279(2) 0.254(3) 0.183(5)
C22_3 C 0.20021(16) 0.2991(2) 0.1785(3)
H14_3 H 0.207(2) 0.336(3) 0.116(5)
C23_3 C 0.14881(14) 0.2966(2) 0.2303(3)
C24_3 C 0.14054(15) 0.2457(2) 0.3247(3)
H15_3 H 0.098(2) 0.246(3) 0.348(4)
C25_3 C 0.18346(16) 0.1991(2) 0.3671(3)
H16_3 H 0.177(2) 0.156(3) 0.431(5)
C26_3 C 0.10275(15) 0.3491(2) 0.1883(3)
Mg8_2 Mg 1.0000 0.42855(9) 0.2500
H3_3 H 0.738(2) 0.148(3) 0.963(5)
C5_3 C 0.67141(15) 0.0803(2) 0.9804(3)
H4_3 H 0.667(2) 0.060(3) 0.897(5)
Mg2_2 Mg 0.5000 0.92855(9) 0.2500
H1_3 H 0.478(2) 0.897(3) 0.040(5)
H9_3 H 0.522(2) 0.897(3) 0.460(5)
O13_2 O 0.38920(10) 0.89014(16) 0.4033(2)
O14_2 O 0.61080(10) 0.89014(16) 0.0967(2)
O15_2 O 0.43999(10) 0.84879(15) 0.2510(2)
O16_2 O 0.56001(10) 0.84879(15) 0.2490(2)
N1_4 N 0.13313(12) 0.5552(2) 0.0559(2)
O1_4 O 0.05519(9) 0.51302(14) 0.20043(19)
C1_4 C 0.13768(14) 0.5788(2) 0.1733(3)
C2_4 C 0.17945(15) 0.6252(2) 0.2184(3)
H2_4 H 0.186(2) 0.638(3) 0.303(5)
C3_4 C 0.21915(15) 0.6518(2) 0.1401(3)
C4_4 C 0.21430(16) 0.6275(3) 0.0183(3)
C6_4 C 0.09337(14) 0.5491(2) 0.2534(3)
C7_4 C 0.26478(15) 0.7020(2) 0.1849(3)
C8_4 C 0.25701(15) 0.7531(3) 0.2795(3)
H5_4 H 0.221(2) 0.754(3) 0.317(5)
C9_4 C 0.29979(16) 0.7991(2) 0.3215(3)
H6_4 H 0.293(2) 0.836(3) 0.384(5)
C10_4 C 0.35119(14) 0.7966(2) 0.2697(3)
C11_4 C 0.35946(15) 0.7457(2) 0.1753(3)
H7_4 H 0.402(2) 0.746(3) 0.152(4)
C12_4 C 0.31654(16) 0.6991(2) 0.1329(3)
H8_4 H 0.323(2) 0.656(3) 0.069(5)
C13_4 C 0.39725(15) 0.8491(2) 0.3117(3)
H9_4 H 0.022(2) 0.397(3) 0.460(5)
H3_4 H 0.238(2) 0.648(3) 0.963(5)
C5_4 C 0.17141(15) 0.5803(2) 0.9804(3)
H4_4 H 0.167(2) 0.560(3) 0.897(5)
H1_4 H 0.978(2) 0.397(3) 0.040(5)
N2_4 N 0.86687(12) 0.5552(2) 0.4441(2)
O6_4 O 0.94481(9) 0.51302(14) 0.29957(19)
C14_4 C 0.86232(14) 0.5788(2) 0.3267(3)
C15_4 C 0.82055(15) 0.6252(2) 0.2816(3)
H10_4 H 0.814(2) 0.638(3) 0.197(5)
C16_4 C 0.78085(15) 0.6518(2) 0.3599(3)
C17_4 C 0.78570(16) 0.6275(3) 0.4817(3)
H11_4 H 0.762(2) 0.648(3) 0.537(5)
C18_4 C 0.82859(15) 0.5803(2) 0.5196(3)
H12_4 H 0.833(2) 0.560(3) 0.603(5)
C19_4 C 0.90663(14) 0.5491(2) 0.2466(3)
C20_4 C 0.73522(15) 0.7020(2) 0.3151(3)
C21_4 C 0.74299(15) 0.7531(3) 0.2205(3)
H13_4 H 0.779(2) 0.754(3) 0.183(5)
C22_4 C 0.70021(16) 0.7991(2) 0.1785(3)
H14_4 H 0.707(2) 0.836(3) 0.116(5)
C23_4 C 0.64881(14) 0.7966(2) 0.2303(3)
C24_4 C 0.64054(15) 0.7457(2) 0.3247(3)
H15_4 H 0.598(2) 0.746(3) 0.348(4)
C25_4 C 0.68346(16) 0.6991(2) 0.3671(3)
H16_4 H 0.677(2) 0.656(3) 0.431(5)
C26_4 C 0.60275(15) 0.8491(2) 0.1883(3)
loop_
_geom_bond_atom_site_label_1
_geom_bond_atom_site_label_2
_geom_bond_site_symmetry_1
_geom_bond_site_symmetry_2
O5 Mg1 1_555 1_555
H1 O5 1_555 1_555
O10 Mg2 1_555 1_555
H9 O10 1_555 1_555
O11 Mg3 1_555 1_555
O13 Mg3 1_555 1_555
O14 Mg1 1_555 1_555
O15 Mg2 1_555 1_555
O16 Mg2 1_555 1_555
Mg2 O5 1_555 1_555
Mg3 O10 1_555 1_555
H4 C5 1_555 1_555
Mg6 O17 1_555 1_555
N1 C1 1_555 1_555
O2 C6 1_555 1_555
O3 C13 1_555 1_555
O4 C13 1_555 1_555
C1 C2 1_555 1_555
C2 H2 1_555 1_555
C3 C2 1_555 1_555
C4 C3 1_555 1_555
C6 O1 1_555 1_555
C7 C3 1_555 1_555
C8 C7 1_555 1_555
H5 C8 1_555 1_555
C9 C8 1_555 1_555
H6 C9 1_555 1_555
C10 C9 1_555 1_555
C11 C10 1_555 1_555
H7 C11 1_555 1_555
C12 C7 1_555 1_555
H8 C12 1_555 1_555
C13 C10 1_555 1_555
N2 C14 1_555 1_555
O7 C19 1_555 1_555
O8 C26 1_555 1_555
O9 C26 1_555 1_555
C14 C15 1_555 1_555
C15 H10 1_555 1_555
C16 C15 1_555 1_555
C17 C16 1_555 1_555
H11 C17 1_555 1_555
C18 N2 1_555 1_555
H12 C18 1_555 1_555
C19 O6 1_555 1_555
C20 C16 1_555 1_555
C21 C20 1_555 1_555
H13 C21 1_555 1_555
C22 C21 1_555 1_555
H14 C22 1_555 1_555
C23 C22 1_555 1_555
C24 C23 1_555 1_555
H15 C24 1_555 1_555
C25 C20 1_555 1_555
H16 C25 1_555 1_555
C26 C23 1_555 1_555
Mg4 O8 1_555 1_555
Mg5 O3 1_555 1_555
Mg7 O2 1_555 1_555
Mg9 O4 1_555 1_555
Mg9_2 O9 1_555 1_555
C1 C6 1_555 1_555
C11 C12 1_555 1_555
C14 C19 1_555 1_555
C17 C18 1_555 1_555
C24 C25 1_555 1_555
Mg7 O18 1_555 1_555
H1_2 O5_2 1_555 1_555
Mg5 N2_2 1_555 1_555
N2_2 C14_2 1_555 1_555
O6_2 Mg9 1_555 1_555
O7_2 C19_2 1_555 1_555
O14 C26_2 1_555 1_555
O16 C26_2 1_555 1_555
C14_2 C15_2 1_555 1_555
C15_2 H10_2 1_555 1_555
C16_2 C15_2 1_555 1_555
C17_2 C16_2 1_555 1_555
H11_2 C17_2 1_555 1_555
C18_2 N2_2 1_555 1_555
H12_2 C18_2 1_555 1_555
C19_2 O6_2 1_555 1_555
C20_2 C16_2 1_555 1_555
C21_2 C20_2 1_555 1_555
H13_2 C21_2 1_555 1_555
C22_2 C21_2 1_555 1_555
H14_2 C22_2 1_555 1_555
C23_2 C22_2 1_555 1_555
C24_2 C23_2 1_555 1_555
H15_2 C24_2 1_555 1_555
C25_2 C20_2 1_555 1_555
H16_2 C25_2 1_555 1_555
C26_2 C23_2 1_555 1_555
O11_2 Mg5 1_555 1_555
O18_2 Mg5 1_555 1_555
Mg9 O5_2 1_555 1_555
Mg5 O6_2 1_555 1_555
C14_2 C19_2 1_555 1_555
C17_2 C18_2 1_555 1_555
C24_2 C25_2 1_555 1_555
H4_2 C5_2 1_555 1_555
Mg4 N1_2 1_555 1_555
Mg9_2 O1_2 1_555 1_555
N1_2 C1_2 1_555 1_555
O1_2 Mg4 1_555 1_555
O2_2 C6_2 1_555 1_555
O13 C13_2 1_555 1_555
O15 C13_2 1_555 1_555
C1_2 C2_2 1_555 1_555
C2_2 H2_2 1_555 1_555
C3_2 C2_2 1_555 1_555
C4_2 C3_2 1_555 1_555
C6_2 O1_2 1_555 1_555
C7_2 C3_2 1_555 1_555
C8_2 C7_2 1_555 1_555
H5_2 C8_2 1_555 1_555
C9_2 C8_2 1_555 1_555
H6_2 C9_2 1_555 1_555
C10_2 C9_2 1_555 1_555
C11_2 C10_2 1_555 1_555
H7_2 C11_2 1_555 1_555
C12_2 C7_2 1_555 1_555
H8_2 C12_2 1_555 1_555
C13_2 C10_2 1_555 1_555
O10_2 Mg9_2 1_555 1_555
H9_2 O10_2 1_555 1_555
Mg7_2 O2_2 1_555 1_555
C1_2 C6_2 1_555 1_555
C11_2 C12_2 1_555 1_555
O10_2 Mg7_2 1_555 1_555
N1_3 C1_3 1_555 1_555
O11 C6_3 1_555 1_555
O3_2 C13_3 1_555 1_555
O4_2 C13_3 1_555 1_555
C1_3 C2_3 1_555 1_555
C2_3 H2_3 1_555 1_555
C3_3 C2_3 1_555 1_555
C4_3 C3_3 1_555 1_555
C6_3 O1_3 1_555 1_555
C7_3 C3_3 1_555 1_555
C8_3 C7_3 1_555 1_555
H5_3 C8_3 1_555 1_555
C9_3 C8_3 1_555 1_555
H6_3 C9_3 1_555 1_555
C10_3 C9_3 1_555 1_555
C11_3 C10_3 1_555 1_555
H7_3 C11_3 1_555 1_555
C12_3 C7_3 1_555 1_555
H8_3 C12_3 1_555 1_555
C13_3 C10_3 1_555 1_555
N2_3 C14_3 1_555 1_555
O12 C19_3 1_555 1_555
O8_2 C26_3 1_555 1_555
O9_2 C26_3 1_555 1_555
C14_3 C15_3 1_555 1_555
C15_3 H10_3 1_555 1_555
C16_3 C15_3 1_555 1_555
C17_3 C16_3 1_555 1_555
H11_3 C17_3 1_555 1_555
C18_3 N2_3 1_555 1_555
H12_3 C18_3 1_555 1_555
C19_3 O6_3 1_555 1_555
C20_3 C16_3 1_555 1_555
C21_3 C20_3 1_555 1_555
H13_3 C21_3 1_555 1_555
C22_3 C21_3 1_555 1_555
H14_3 C22_3 1_555 1_555
C23_3 C22_3 1_555 1_555
C24_3 C23_3 1_555 1_555
H15_3 C24_3 1_555 1_555
C25_3 C20_3 1_555 1_555
H16_3 C25_3 1_555 1_555
C26_3 C23_3 1_555 1_555
Mg6_2 O8_2 1_555 1_555
Mg7_2 O3_2 1_555 1_555
Mg8_2 O4_2 1_555 1_555
Mg8 O9_2 1_555 1_555
C1_3 C6_3 1_555 1_555
C11_3 C12_3 1_555 1_555
C14_3 C19_3 1_555 1_555
C17_3 C18_3 1_555 1_555
C24_3 C25_3 1_555 1_555
H4_3 C5_3 1_555 1_555
H1_3 O17 1_555 1_555
O18 Mg2_2 1_555 1_555
H9_3 O18 1_555 1_555
O13_2 Mg7 1_555 1_555
O14_2 Mg6 1_555 1_555
O15_2 Mg2_2 1_555 1_555
O16_2 Mg2_2 1_555 1_555
Mg2_2 O17 1_555 1_555
Mg6_2 N1_4 1_555 1_555
Mg8 O1_4 1_555 1_555
N1_4 C1_4 1_555 1_555
O1_4 Mg6_2 1_555 1_555
O11_2 C6_4 1_555 1_555
O13_2 C13_4 1_555 1_555
O15_2 C13_4 1_555 1_555
C1_4 C2_4 1_555 1_555
C2_4 H2_4 1_555 1_555
C3_4 C2_4 1_555 1_555
C4_4 C3_4 1_555 1_555
C6_4 O1_4 1_555 1_555
C7_4 C3_4 1_555 1_555
C8_4 C7_4 1_555 1_555
H5_4 C8_4 1_555 1_555
C9_4 C8_4 1_555 1_555
H6_4 C9_4 1_555 1_555
C10_4 C9_4 1_555 1_555
C11_4 C10_4 1_555 1_555
H7_4 C11_4 1_555 1_555
C12_4 C7_4 1_555 1_555
H8_4 C12_4 1_555 1_555
C13_4 C10_4 1_555 1_555
O18_2 Mg8 1_555 1_555
H9_4 O18_2 1_555 1_555
C1_4 C6_4 1_555 1_555
C11_4 C12_4 1_555 1_555
H4_4 C5_4 1_555 1_555
H1_4 O17_2 1_555 1_555
Mg7_2 N2_4 1_555 1_555
N2_4 C14_4 1_555 1_555
O6_4 Mg8_2 1_555 1_555
O12_2 C19_4 1_555 1_555
O14_2 C26_4 1_555 1_555
O16_2 C26_4 1_555 1_555
C14_4 C15_4 1_555 1_555
C15_4 H10_4 1_555 1_555
C16_4 C15_4 1_555 1_555
C17_4 C16_4 1_555 1_555
H11_4 C17_4 1_555 1_555
C18_4 N2_4 1_555 1_555
H12_4 C18_4 1_555 1_555
C19_4 O6_4 1_555 1_555
C20_4 C16_4 1_555 1_555
C21_4 C20_4 1_555 1_555
H13_4 C21_4 1_555 1_555
C22_4 C21_4 1_555 1_555
H14_4 C22_4 1_555 1_555
C23_4 C22_4 1_555 1_555
C24_4 C23_4 1_555 1_555
H15_4 C24_4 1_555 1_555
C25_4 C20_4 1_555 1_555
H16_4 C25_4 1_555 1_555
C26_4 C23_4 1_555 1_555
Mg8_2 O17_2 1_555 1_555
Mg7_2 O6_4 1_555 1_555
C14_4 C19_4 1_555 1_555
C17_4 C18_4 1_555 1_555
C24_4 C25_4 1_555 1_555

#END
