
###############################################################################
#
# This file contains modified crystal structure data generated from the
# MOF subset of the Cambridge Structural Database (CSD) v543 
# hosted by the Cambridge Crystallographic Data Centre (CCDC).
#
# This work is licensed under the Creative Commons
# Attribution-NonCommercial-ShareAlike 4.0 International License.
# To view a copy of this license, visit
# http://creativecommons.org/licenses/by-nc-sa/4.0/
# or send a letter to
# Creative Commons, PO Box 1866, Mountain View, CA 94042, USA.
#
# CIF created using the CSD Python API on 29 September 2022
# The structure has been converted into the P1 space group
# The structure has a 3D framework
# The original CSD entry QUDJOP is in the monoclinic crystal system
# The framework has been calculated to contain at least 10.0% void space
# The void calculation uses a probe of radius 1.32A, grid spacing 0.4
#
###############################################################################

data_QUDJOP
_chemical_formula_moiety         '(C68 H56 N12 O20 Zn4)n'
_symmetry_cell_setting           triclinic
_symmetry_space_group_name_H-M   'P 1'
_symmetry_Int_Tables_number      1
_space_group_name_Hall           'P 1'
loop_
_symmetry_equiv_pos_site_id
_symmetry_equiv_pos_as_xyz
1 x,y,z
_cell_length_a                   10.101(2)
_cell_length_b                   21.058(4)
_cell_length_c                   12.215(5)
_cell_angle_alpha                90
_cell_angle_beta                 126.511(19)
_cell_angle_gamma                90
_cell_volume                     2088.3
loop_
_atom_site_label
_atom_site_type_symbol
_atom_site_fract_x
_atom_site_fract_y
_atom_site_fract_z
C18 C 0.4629(4) 0.12264(12) 0.4246(3)
C19 C 0.3454(3) 0.09691(12) 0.2829(4)
C20 C 0.2536(4) 0.04459(12) 0.2650(4)
H15 H 0.2759 0.0236 0.3412
C21 C 0.1263(3) 0.02169(12) 0.1342(3)
C22 C 0.0929(3) 0.05381(12) 0.0162(4)
C23 C 0.1920(3) 0.10776(12) 0.0379(4)
C24 C 0.3131(3) 0.12865(12) 0.1642(4)
C26 C 0.4240(3) 0.18229(12) 0.1834(3)
O6 O 0.4178(2) 0.17714(9) 0.4419(2)
O8 O 0.5829(3) 0.09188(9) 0.5150(3)
O9 O 0.5647(2) 0.18679(9) 0.2894(3)
O10 O 0.3643(3) 0.22017(8) 0.0820(3)
Zn4 Zn 0.52263(4) 0.212653(13) 0.62311(4)
Zn5 Zn 0.52263(4) 0.287347(13) 0.12311(4)
C27 C 0.5697(4) 0.09148(13) 0.7650(4)
H18 H 0.6071 0.0778 0.7154
C28 C 0.5608(4) 0.04821(13) 0.8448(4)
H19 H 0.5902 0.0060 0.8481
C29 C 0.5072(4) 0.06884(13) 0.9201(4)
C30 C 0.4640(4) 0.13151(13) 0.9120(4)
H20 H 0.4288 0.1463 0.9624
C31 C 0.4734(4) 0.17223(13) 0.8283(4)
H21 H 0.4419 0.2144 0.8218
C32 C 0.7788(4) 0.23320(13) 0.5983(4)
H22 H 0.7002 0.2167 0.5122
C34 C 0.9523(5) 0.24811(17) 0.5256(4)
H26 H 0.8599 0.2288 0.4441
H27 H 0.9684 0.2902 0.5052
N4 N 0.5267(3) 0.15270(11) 0.7559(3)
N6 N 0.9207(3) 0.25150(12) 0.6273(3)
O12 O 0.3643(3) 0.27983(8) 0.5820(3)
O13 O 0.7440(3) 0.23689(9) 0.6812(3)
C1 C 0.5371(4) 0.87736(12) 0.5754(3)
C2 C 0.6546(3) 0.90309(12) 0.7171(4)
C3 C 0.7464(4) 0.95541(12) 0.7350(4)
H1 H 0.7241 0.9764 0.6588
C4 C 0.8737(3) 0.97831(12) 0.8658(3)
C5 C 0.9071(3) 0.94619(12) 0.9838(4)
C6 C 0.8080(3) 0.89224(12) 0.9621(4)
C7 C 0.6869(3) 0.87135(12) 0.8358(4)
C9 C 0.5760(3) 0.81771(12) 0.8166(3)
C10 C 0.4303(4) 0.90852(13) 0.2350(4)
H4 H 0.3929 0.9222 0.2846
C11 C 0.4392(4) 0.95179(13) 0.1552(4)
H5 H 0.4098 0.9940 0.1519
C12 C 0.4928(4) 0.93116(13) 0.0799(4)
C13 C 0.5360(4) 0.86849(13) 0.0880(4)
H6 H 0.5712 0.8537 0.0376
C14 C 0.5266(4) 0.82777(13) 0.1717(4)
H7 H 0.5581 0.7856 0.1782
C15 C 0.2212(4) 0.76680(13) 0.4017(4)
H8 H 0.2998 0.7833 0.4878
C17 C 0.0477(5) 0.75189(17) 0.4744(4)
H12 H 0.1401 0.7712 0.5559
H13 H 0.0316 0.7098 0.4948
N1 N 0.4733(3) 0.84730(11) 0.2441(3)
N3 N 0.0793(3) 0.74850(12) 0.3727(3)
O1 O 0.5822(2) 0.82286(9) 0.5581(2)
O2 O 0.4171(3) 0.90812(9) 0.4850(3)
O3 O 0.4353(2) 0.81321(9) 0.7106(3)
O4 O 0.6357(3) 0.77983(8) 0.9180(3)
O5 O 0.2560(3) 0.76311(9) 0.3188(3)
Zn1 Zn 0.47737(4) 0.787347(13) 0.37689(4)
O11 O 0.6357(3) 0.72017(8) 0.4180(3)
Zn3 Zn 0.47737(4) 0.712653(13) 0.87689(4)
H26_2 H 0.1401 0.7288 0.0559
O7 O 0.5822(2) 0.67714(9) 0.0581(2)
C10_2 C 0.5697(4) 0.40852(13) 0.2650(4)
H4_2 H 0.6071 0.4222 0.2154
C11_2 C 0.5608(4) 0.45179(13) 0.3448(4)
H5_2 H 0.5902 0.4940 0.3481
C12_2 C 0.5072(4) 0.43116(13) 0.4201(4)
C13_2 C 0.4640(4) 0.36849(13) 0.4120(4)
H6_2 H 0.4288 0.3537 0.4624
C14_2 C 0.4734(4) 0.32777(13) 0.3283(4)
H7_2 H 0.4419 0.2856 0.3218
C15_2 C 0.7788(4) 0.26680(13) 0.0983(4)
H8_2 H 0.7002 0.2833 0.0122
C17_2 C 0.9523(5) 0.25189(17) 0.0256(4)
H13_2 H 0.9684 0.2098 0.0052
N1_2 N 0.5267(3) 0.34730(11) 0.2559(3)
N2 N 0.4949(3) 0.47139(11) 0.5087(3)
N3_2 N 0.9207(3) 0.24850(12) 0.1273(3)
O2_2 O 0.5829(3) 0.40812(9) 0.0150(3)
O5_2 O 0.7440(3) 0.26311(9) 0.1812(3)
C27_2 C 0.4303(4) 0.59148(13) 0.7350(4)
H18_2 H 0.3929 0.5778 0.7846
C28_2 C 0.4392(4) 0.54821(13) 0.6552(4)
H19_2 H 0.4098 0.5060 0.6519
C29_2 C 0.4928(4) 0.56884(13) 0.5799(4)
C30_2 C 0.5360(4) 0.63151(13) 0.5880(4)
H20_2 H 0.5712 0.6463 0.5376
C31_2 C 0.5266(4) 0.67223(13) 0.6717(4)
H21_2 H 0.5581 0.7144 0.6782
C32_2 C 0.2212(4) 0.73320(13) 0.9017(4)
H22_2 H 0.2998 0.7167 0.9878
C34_2 C 0.0477(5) 0.74811(17) 0.9744(4)
H27_2 H 0.0316 0.7902 0.9948
N4_2 N 0.4733(3) 0.65270(11) 0.7441(3)
N5 N 0.5051(3) 0.52861(11) 0.4913(3)
N6_2 N 0.0793(3) 0.75150(12) 0.8727(3)
O13_2 O 0.2560(3) 0.73689(9) 0.8188(3)
C1_2 C 0.4629(4) 0.37736(12) 0.9246(3)
C2_2 C 0.3454(3) 0.40309(12) 0.7829(4)
C3_2 C 0.2536(4) 0.45541(12) 0.7650(4)
H1_2 H 0.2759 0.4764 0.8412
C4_2 C 0.1263(3) 0.47831(12) 0.6342(3)
C5_2 C 0.0929(3) 0.44619(12) 0.5162(4)
C6_2 C 0.1920(3) 0.39224(12) 0.5379(4)
H2 H 0.1725 0.3709 0.4629
C7_2 C 0.3131(3) 0.37135(12) 0.6642(4)
C8 C 0.0307(3) 0.53194(13) 0.6142(4)
H3 H 0.0505 0.5531 0.6894
C9_2 C 0.4240(3) 0.31771(12) 0.6834(3)
H12_2 H 0.8599 0.2712 0.9441
O1_2 O 0.4178(2) 0.32286(9) 0.9419(2)
O3_2 O 0.5647(2) 0.31321(9) 0.7894(3)
C18_2 C 0.5371(4) 0.62264(12) 0.0754(3)
C19_2 C 0.6546(3) 0.59691(12) 0.2171(4)
C20_2 C 0.7464(4) 0.54459(12) 0.2350(4)
H15_2 H 0.7241 0.5236 0.1588
C21_2 C 0.8737(3) 0.52169(12) 0.3658(3)
C22_2 C 0.9071(3) 0.55381(12) 0.4838(4)
C23_2 C 0.8080(3) 0.60776(12) 0.4621(4)
H16 H 0.8275 0.6291 0.5371
C24_2 C 0.6869(3) 0.62865(12) 0.3358(4)
C25 C 0.9693(3) 0.46806(13) 0.3858(4)
H17 H 0.9495 0.4469 0.3106
C26_2 C 0.5760(3) 0.68229(12) 0.3166(3)
O9_2 O 0.4353(2) 0.68679(9) 0.2106(3)
O8_2 O 0.4171(3) 0.59188(9) 0.9850(3)
H16_2 H 0.1725 0.1291 0.9629
C33 C 0.0522(6) 0.2730(3) 0.7610(5)
H23 H 0.0121 0.2785 0.8145
H24 H 0.1393 0.2421 0.8037
H25 H 0.0934 0.3128 0.7542
H28 H 0.0493 0.2232 0.5603
C25_2 C 0.0307(3) 0.96806(13) 0.1142(4)
H17_2 H 0.0505 0.9469 0.1894
N2_2 N 0.5051(3) 0.97139(11) 0.9913(3)
C8_2 C 0.9693(3) 0.03194(13) 0.8858(4)
H3_2 H 0.9495 0.0531 0.8106
N5_2 N 0.4949(3) 0.02861(11) 0.0087(3)
H2_2 H 0.8275 0.8709 0.0371
C16 C 0.9478(6) 0.7270(3) 0.2390(5)
H9 H 0.9879 0.7215 0.1855
H10 H 0.8607 0.7579 0.1963
H11 H 0.9066 0.6872 0.2458
H14 H 0.9507 0.7768 0.4397
C16_2 C 0.0522(6) 0.2270(3) 0.2610(5)
H9_2 H 0.0121 0.2215 0.3145
H10_2 H 0.1393 0.2579 0.3037
H11_2 H 0.0934 0.1872 0.2542
H14_2 H 0.0493 0.2768 0.0603
C33_2 C 0.9478(6) 0.7730(3) 0.7390(5)
H23_2 H 0.9879 0.7785 0.6855
H24_2 H 0.8607 0.7421 0.6963
H25_2 H 0.9066 0.8128 0.7458
H28_2 H 0.9507 0.7232 0.9397
loop_
_geom_bond_atom_site_label_1
_geom_bond_atom_site_label_2
_geom_bond_site_symmetry_1
_geom_bond_site_symmetry_2
C18 C19 1_555 1_555
C19 C20 1_555 1_555
C20 H15 1_555 1_555
C21 C20 1_555 1_555
C23 C22 1_555 1_555
C24 C19 1_555 1_555
C26 C24 1_555 1_555
O6 C18 1_555 1_555
O8 C18 1_555 1_555
O9 C26 1_555 1_555
O10 C26 1_555 1_555
Zn4 O6 1_555 1_555
Zn5 O10 1_555 1_555
C21 C22 1_555 1_555
C23 C24 1_555 1_555
C27 H18 1_555 1_555
C28 C27 1_555 1_555
H19 C28 1_555 1_555
C29 C28 1_555 1_555
C30 C29 1_555 1_555
H20 C30 1_555 1_555
C31 C30 1_555 1_555
H21 C31 1_555 1_555
C32 H22 1_555 1_555
C34 H26 1_555 1_555
H27 C34 1_555 1_555
N4 C27 1_555 1_555
N6 C32 1_555 1_555
O12 Zn4 1_555 1_555
O13 C32 1_555 1_555
Zn4 N4 1_555 1_555
C31 N4 1_555 1_555
C34 N6 1_555 1_555
O13 Zn4 1_555 1_555
C1 C2 1_555 1_555
C2 C3 1_555 1_555
C3 H1 1_555 1_555
C4 C3 1_555 1_555
C5 C4 1_555 1_555
C6 C5 1_555 1_555
C7 C2 1_555 1_555
C9 C7 1_555 1_555
C10 H4 1_555 1_555
C11 C10 1_555 1_555
H5 C11 1_555 1_555
C12 C11 1_555 1_555
C13 C12 1_555 1_555
H6 C13 1_555 1_555
C14 C13 1_555 1_555
H7 C14 1_555 1_555
C15 H8 1_555 1_555
C17 H12 1_555 1_555
H13 C17 1_555 1_555
N1 C10 1_555 1_555
N3 C15 1_555 1_555
O1 C1 1_555 1_555
O2 C1 1_555 1_555
O3 C9 1_555 1_555
O4 C9 1_555 1_555
O5 C15 1_555 1_555
Zn1 N1 1_555 1_555
O11 Zn1 1_555 1_555
Zn3 O4 1_555 1_555
C6 C7 1_555 1_555
C14 N1 1_555 1_555
C17 N3 1_555 1_555
O1 Zn1 1_555 1_555
O5 Zn1 1_555 1_555
C10_2 H4_2 1_555 1_555
C11_2 C10_2 1_555 1_555
H5_2 C11_2 1_555 1_555
C12_2 C11_2 1_555 1_555
C13_2 C12_2 1_555 1_555
H6_2 C13_2 1_555 1_555
C14_2 C13_2 1_555 1_555
H7_2 C14_2 1_555 1_555
C15_2 H8_2 1_555 1_555
H13_2 C17_2 1_555 1_555
N1_2 C10_2 1_555 1_555
N2 C12_2 1_555 1_555
N3_2 C15_2 1_555 1_555
O5_2 C15_2 1_555 1_555
Zn5 N1_2 1_555 1_555
C27_2 H18_2 1_555 1_555
C28_2 C27_2 1_555 1_555
H19_2 C28_2 1_555 1_555
C29_2 C28_2 1_555 1_555
C30_2 C29_2 1_555 1_555
H20_2 C30_2 1_555 1_555
C31_2 C30_2 1_555 1_555
H21_2 C31_2 1_555 1_555
C32_2 H22_2 1_555 1_555
H27_2 C34_2 1_555 1_555
N4_2 C27_2 1_555 1_555
N5 N2 1_555 1_555
N6_2 C32_2 1_555 1_555
O13_2 C32_2 1_555 1_555
Zn3 N4_2 1_555 1_555
C14_2 N1_2 1_555 1_555
C17_2 N3_2 1_555 1_555
O5_2 Zn5 1_555 1_555
C29_2 N5 1_555 1_555
C31_2 N4_2 1_555 1_555
C34_2 N6_2 1_555 1_555
O13_2 Zn3 1_555 1_555
C1_2 C2_2 1_555 1_555
C2_2 C3_2 1_555 1_555
C3_2 H1_2 1_555 1_555
C4_2 C3_2 1_555 1_555
C5_2 C4_2 1_555 1_555
C6_2 C5_2 1_555 1_555
H2 C6_2 1_555 1_555
C7_2 C2_2 1_555 1_555
C8 C4_2 1_555 1_555
H3 C8 1_555 1_555
C9_2 C7_2 1_555 1_555
O1_2 C1_2 1_555 1_555
O3_2 C9_2 1_555 1_555
O12 C9_2 1_555 1_555
C6_2 C7_2 1_555 1_555
C18_2 C19_2 1_555 1_555
C19_2 C20_2 1_555 1_555
C20_2 H15_2 1_555 1_555
C21_2 C20_2 1_555 1_555
C23_2 C22_2 1_555 1_555
H16 C23_2 1_555 1_555
C24_2 C19_2 1_555 1_555
H17 C25 1_555 1_555
C26_2 C24_2 1_555 1_555
O7 C18_2 1_555 1_555
O9_2 C26_2 1_555 1_555
O11 C26_2 1_555 1_555
C21_2 C22_2 1_555 1_555
C21_2 C25 1_555 1_555
C23_2 C24_2 1_555 1_555
C33 H23 1_555 1_555
H24 C33 1_555 1_555
H25 C33 1_555 1_555
H17_2 C25_2 1_555 1_555
H3_2 C8_2 1_555 1_555
C16 H9 1_555 1_555
H10 C16 1_555 1_555
H11 C16 1_555 1_555
C16_2 H9_2 1_555 1_555
H10_2 C16_2 1_555 1_555
H11_2 C16_2 1_555 1_555
C33_2 H23_2 1_555 1_555
H24_2 C33_2 1_555 1_555
H25_2 C33_2 1_555 1_555

#END
