
###############################################################################
#
# This file contains modified crystal structure data generated from the
# MOF subset of the Cambridge Structural Database (CSD) v543 
# hosted by the Cambridge Crystallographic Data Centre (CCDC).
#
# This work is licensed under the Creative Commons
# Attribution-NonCommercial-ShareAlike 4.0 International License.
# To view a copy of this license, visit
# http://creativecommons.org/licenses/by-nc-sa/4.0/
# or send a letter to
# Creative Commons, PO Box 1866, Mountain View, CA 94042, USA.
#
# CIF created using the CSD Python API on 29 September 2022
# The structure has been converted into the P1 space group
# The structure has a 3D framework
# The original CSD entry QUDQAK is in the monoclinic crystal system
# The framework has been calculated to contain at least 10.0% void space
# The void calculation uses a probe of radius 1.32A, grid spacing 0.4
#
###############################################################################

data_QUDQAK
_chemical_formula_moiety         '(C48 H40 Eu4 O44)n'
_symmetry_cell_setting           triclinic
_symmetry_space_group_name_H-M   'P 1'
_symmetry_Int_Tables_number      1
_space_group_name_Hall           'P 1'
loop_
_symmetry_equiv_pos_site_id
_symmetry_equiv_pos_as_xyz
1 x,y,z
_cell_length_a                   12.5345(2)
_cell_length_b                   14.4309(2)
_cell_length_c                   14.2786(2)
_cell_angle_alpha                90
_cell_angle_beta                 106.3480(10)
_cell_angle_gamma                90
_cell_volume                     2478.35
loop_
_atom_site_label
_atom_site_type_symbol
_atom_site_fract_x
_atom_site_fract_y
_atom_site_fract_z
Eu8 Eu 0.10352(2) 0.03372(2) 0.91527(2)
Eu1 Eu 0.60352(2) 0.46628(2) 0.41527(2)
C1 C 0.2970(3) 0.2974(3) 0.3733(2)
C2 C 0.3483(3) 0.2677(3) 0.3034(2)
H1 H 0.420505 0.289711 0.306083
C3 C 0.2951(3) 0.2065(3) 0.2304(2)
C4 C 0.1896(3) 0.1721(3) 0.2276(2)
C5 C 0.1397(3) 0.2001(3) 0.2989(3)
H2 H 0.068840 0.176041 0.297939
C6 C 0.1919(3) 0.2620(3) 0.3708(3)
C7 C 0.3523(3) 0.3684(3) 0.4469(2)
C8 C 0.1274(3) 0.1076(3) 0.1488(2)
O1 O 0.4420(2) 0.40579(19) 0.44378(18)
O2 O 0.3042(2) 0.3929(2) 0.51043(19)
O3 O 0.1724(2) 0.08871(19) 0.08050(18)
O4 O 0.0359(2) 0.0772(2) 0.15284(18)
O5 O 0.3485(2) 0.1825(2) 0.16328(19)
H3 H 0.307673 0.149281 0.121538
O6 O 0.1381(2) 0.2878(2) 0.4380(2)
H4 H 0.173503 0.329032 0.472793
C9 C 0.5328(3) 0.4906(3) 0.1016(3)
C10 C 0.5762(3) 0.5622(3) 0.0575(3)
H5 H 0.628423 0.604305 0.096494
C12 C 0.5689(3) 0.4809(3) 0.2096(3)
O7 O 0.5235(2) 0.4160(2) 0.24729(18)
O8 O 0.6391(2) 0.5334(2) 0.26240(19)
O10 O 0.7977(2) 0.4512(2) 0.4269(2)
H7 H 0.842368 0.496962 0.411692
H8 H 0.840468 0.404462 0.445092
O11 O 0.6389(3) 0.3025(2) 0.40234(19)
H9 H 0.642882 0.259629 0.443083
H10 H 0.657882 0.296129 0.345884
C15 C 0.4568(3) 0.4281(3) 0.0431(3)
O14 O 0.4132(2) 0.3564(2) 0.08302(18)
H12 H 0.439322 0.356975 0.142707
Eu5 Eu 0.89648(2) 0.96628(2) 0.08473(2)
Eu6 Eu 0.39648(2) 0.53372(2) 0.58473(2)
O24 O 0.5580(2) 0.59421(19) 0.55622(18)
O26 O 0.6958(2) 0.6071(2) 0.48957(19)
O28 O 0.6724(2) 0.41129(19) 0.58050(18)
O29 O 0.4641(2) 0.5772(2) 0.34716(18)
C11 C 0.5432(3) 0.5719(3) 0.9569(3)
O9 O 0.5868(2) 0.6436(2) 0.91698(18)
H6 H 0.560678 0.643025 0.857293
C13 C 0.4672(3) 0.5094(3) 0.8984(3)
C14 C 0.4238(3) 0.4378(3) 0.9425(3)
H11 H 0.371577 0.395695 0.903506
C16 C 0.4311(3) 0.5191(3) 0.7904(3)
O12 O 0.4765(2) 0.5840(2) 0.75271(18)
O13 O 0.3609(2) 0.4666(2) 0.73760(19)
C17 C 0.7030(3) 0.7026(3) 0.6267(2)
C18 C 0.6517(3) 0.7323(3) 0.6966(2)
H13 H 0.579495 0.710289 0.693917
C19 C 0.7049(3) 0.7935(3) 0.7696(2)
C20 C 0.8104(3) 0.8279(3) 0.7724(2)
C21 C 0.8603(3) 0.7999(3) 0.7011(3)
H14 H 0.931160 0.823959 0.702061
C22 C 0.8081(3) 0.7380(3) 0.6292(3)
C23 C 0.6477(3) 0.6316(3) 0.5531(2)
C24 C 0.8726(3) 0.8924(3) 0.8512(2)
O17 O 0.8276(2) 0.91129(19) 0.91950(18)
O18 O 0.9641(2) 0.9228(2) 0.84716(18)
O19 O 0.6515(2) 0.8175(2) 0.83672(19)
H15 H 0.692327 0.850719 0.878462
O20 O 0.8619(2) 0.7122(2) 0.5620(2)
H16 H 0.826497 0.670968 0.527207
O21 O 0.2023(2) 0.5488(2) 0.5731(2)
H17 H 0.157632 0.503038 0.588308
H18 H 0.159532 0.595538 0.554908
O22 O 0.3611(3) 0.6975(2) 0.59766(19)
H19 H 0.357118 0.740371 0.556917
H20 H 0.342118 0.703871 0.654116
O27 O 0.3276(2) 0.58871(19) 0.41950(18)
O30 O 0.5359(2) 0.4228(2) 0.65284(18)
C13_2 C 0.0328(3) 0.0094(3) 0.6016(3)
C16_2 C 0.0689(3) 0.0191(3) 0.7096(3)
O12_2 O 0.0235(2) 0.0840(2) 0.74729(18)
O21_2 O 0.2977(2) 0.0488(2) 0.9269(2)
H17_2 H 0.342368 0.003038 0.911692
H18_2 H 0.340468 0.095538 0.945092
O22_2 O 0.1389(3) 0.1975(2) 0.90234(19)
H19_2 H 0.142882 0.240371 0.943083
H20_2 H 0.157882 0.203871 0.845884
O23 O 0.0580(2) 0.90579(19) 0.05622(18)
C1_2 C 0.2030(3) 0.7974(3) 0.1267(2)
C2_2 C 0.1517(3) 0.7677(3) 0.1966(2)
H1_2 H 0.079495 0.789711 0.193917
C3_2 C 0.2049(3) 0.7065(3) 0.2696(2)
C4_2 C 0.3104(3) 0.6721(3) 0.2724(2)
C5_2 C 0.3603(3) 0.7001(3) 0.2011(3)
H2_2 H 0.431160 0.676041 0.202061
C6_2 C 0.3081(3) 0.7620(3) 0.1292(3)
C7_2 C 0.1477(3) 0.8684(3) 0.0531(2)
C8_2 C 0.3726(3) 0.6076(3) 0.3512(2)
O5_2 O 0.1515(2) 0.6825(2) 0.33672(19)
H3_2 H 0.192327 0.649281 0.378462
O6_2 O 0.3619(2) 0.7878(2) 0.0620(2)
H4_2 H 0.326497 0.829032 0.027207
C14_2 C 0.0762(3) 0.9378(3) 0.5575(3)
H11_2 H 0.128423 0.895695 0.596494
C15_2 C 0.0432(3) 0.9281(3) 0.4569(3)
O13_2 O 0.1391(2) 0.9666(2) 0.76240(19)
O14_2 O 0.0868(2) 0.8564(2) 0.41698(18)
H12_2 H 0.060678 0.856975 0.357293
O25 O 0.1958(2) 0.8929(2) 0.98957(19)
O16 O 0.8042(2) 0.1071(2) 0.01043(19)
C10_2 C 0.9238(3) 0.0622(3) 0.4425(3)
H5_2 H 0.871577 0.104305 0.403506
C11_2 C 0.9568(3) 0.0719(3) 0.5431(3)
O8_2 O 0.8609(2) 0.0334(2) 0.23760(19)
O9_2 O 0.9132(2) 0.1436(2) 0.58302(18)
H6_2 H 0.939322 0.143025 0.642707
C17_2 C 0.7970(3) 0.2026(3) 0.8733(2)
C18_2 C 0.8483(3) 0.2323(3) 0.8034(2)
H13_2 H 0.920505 0.210289 0.806083
C19_2 C 0.7951(3) 0.2935(3) 0.7304(2)
C20_2 C 0.6896(3) 0.3279(3) 0.7276(2)
C21_2 C 0.6397(3) 0.2999(3) 0.7989(3)
H14_2 H 0.568840 0.323959 0.797939
C22_2 C 0.6919(3) 0.2380(3) 0.8708(3)
C23_2 C 0.8523(3) 0.1316(3) 0.9469(2)
C24_2 C 0.6274(3) 0.3924(3) 0.6488(2)
O15 O 0.9420(2) 0.09421(19) 0.94378(18)
O19_2 O 0.8485(2) 0.3175(2) 0.66328(19)
H15_2 H 0.807673 0.350719 0.621538
O20_2 O 0.6381(2) 0.2122(2) 0.9380(2)
H16_2 H 0.673503 0.170968 0.972793
C9_2 C 0.9672(3) 0.9906(3) 0.3984(3)
C12_2 C 0.9311(3) 0.9809(3) 0.2904(3)
O7_2 O 0.9765(2) 0.9160(2) 0.25271(18)
O10_2 O 0.7023(2) 0.9512(2) 0.0731(2)
H7_2 H 0.657632 0.996962 0.088308
H8_2 H 0.659532 0.904462 0.054908
O11_2 O 0.8611(3) 0.8025(2) 0.09766(19)
H9_2 H 0.857118 0.759629 0.056917
H10_2 H 0.842118 0.796129 0.154116
loop_
_geom_bond_atom_site_label_1
_geom_bond_atom_site_label_2
_geom_bond_site_symmetry_1
_geom_bond_site_symmetry_2
Eu1 O1 1_555 1_555
C1 C2 1_555 1_555
C2 H1 1_555 1_555
C3 C2 1_555 1_555
C4 C3 1_555 1_555
C5 C4 1_555 1_555
H2 C5 1_555 1_555
C6 C1 1_555 1_555
C7 C1 1_555 1_555
C8 C4 1_555 1_555
O1 C7 1_555 1_555
O2 C7 1_555 1_555
O3 C8 1_555 1_555
O4 C8 1_555 1_555
O5 C3 1_555 1_555
H3 O5 1_555 1_555
O6 C6 1_555 1_555
H4 O6 1_555 1_555
C9 C10 1_555 1_555
C10 H5 1_555 1_555
C12 C9 1_555 1_555
O7 Eu1 1_555 1_555
O8 Eu1 1_555 1_555
O10 Eu1 1_555 1_555
H7 O10 1_555 1_555
H8 O10 1_555 1_555
O11 Eu1 1_555 1_555
H9 O11 1_555 1_555
H10 O11 1_555 1_555
C15 C9 1_555 1_555
O14 C15 1_555 1_555
H12 O14 1_555 1_555
Eu6 O1 1_555 1_555
O24 Eu1 1_555 1_555
O26 Eu1 1_555 1_555
O28 Eu1 1_555 1_555
O29 Eu1 1_555 1_555
C5 C6 1_555 1_555
O2 Eu6 1_555 1_555
C12 O7 1_555 1_555
C12 O8 1_555 1_555
Eu6 O24 1_555 1_555
O9 C11 1_555 1_555
H6 O9 1_555 1_555
C13 C11 1_555 1_555
C14 C13 1_555 1_555
H11 C14 1_555 1_555
C16 C13 1_555 1_555
O12 C16 1_555 1_555
O13 C16 1_555 1_555
Eu6 O12 1_555 1_555
C17 C18 1_555 1_555
C18 H13 1_555 1_555
C19 C18 1_555 1_555
C20 C19 1_555 1_555
C21 C20 1_555 1_555
H14 C21 1_555 1_555
C22 C17 1_555 1_555
C23 C17 1_555 1_555
C24 C20 1_555 1_555
O26 C23 1_555 1_555
O17 C24 1_555 1_555
O18 C24 1_555 1_555
O19 C19 1_555 1_555
H15 O19 1_555 1_555
O20 C22 1_555 1_555
H16 O20 1_555 1_555
O21 Eu6 1_555 1_555
H17 O21 1_555 1_555
H18 O21 1_555 1_555
O22 Eu6 1_555 1_555
H19 O22 1_555 1_555
H20 O22 1_555 1_555
O27 Eu6 1_555 1_555
O30 Eu6 1_555 1_555
O13 Eu6 1_555 1_555
C21 C22 1_555 1_555
C23 O24 1_555 1_555
C16_2 C13_2 1_555 1_555
O12_2 C16_2 1_555 1_555
Eu8 O12_2 1_555 1_555
O21_2 Eu8 1_555 1_555
H17_2 O21_2 1_555 1_555
H18_2 O21_2 1_555 1_555
O22_2 Eu8 1_555 1_555
H19_2 O22_2 1_555 1_555
H20_2 O22_2 1_555 1_555
C1_2 C2_2 1_555 1_555
C2_2 H1_2 1_555 1_555
C3_2 C2_2 1_555 1_555
C4_2 C3_2 1_555 1_555
C5_2 C4_2 1_555 1_555
H2_2 C5_2 1_555 1_555
C6_2 C1_2 1_555 1_555
C7_2 C1_2 1_555 1_555
C8_2 C4_2 1_555 1_555
O23 C7_2 1_555 1_555
O27 C8_2 1_555 1_555
O29 C8_2 1_555 1_555
O5_2 C3_2 1_555 1_555
H3_2 O5_2 1_555 1_555
O6_2 C6_2 1_555 1_555
H4_2 O6_2 1_555 1_555
H11_2 C14_2 1_555 1_555
O14_2 C15_2 1_555 1_555
H12_2 O14_2 1_555 1_555
C5_2 C6_2 1_555 1_555
C14_2 C15_2 1_555 1_555
C10_2 H5_2 1_555 1_555
C11_2 C10_2 1_555 1_555
O9_2 C11_2 1_555 1_555
H6_2 O9_2 1_555 1_555
C17_2 C18_2 1_555 1_555
C18_2 H13_2 1_555 1_555
C19_2 C18_2 1_555 1_555
C20_2 C19_2 1_555 1_555
C21_2 C20_2 1_555 1_555
H14_2 C21_2 1_555 1_555
C22_2 C17_2 1_555 1_555
C23_2 C17_2 1_555 1_555
C24_2 C20_2 1_555 1_555
O28 C24_2 1_555 1_555
O30 C24_2 1_555 1_555
O19_2 C19_2 1_555 1_555
H15_2 O19_2 1_555 1_555
O20_2 C22_2 1_555 1_555
H16_2 O20_2 1_555 1_555
C21_2 C22_2 1_555 1_555
C23_2 O15 1_555 1_555
C12_2 C9_2 1_555 1_555
O7_2 Eu5 1_555 1_555
O10_2 Eu5 1_555 1_555
H7_2 O10_2 1_555 1_555
H8_2 O10_2 1_555 1_555
O11_2 Eu5 1_555 1_555
H9_2 O11_2 1_555 1_555
H10_2 O11_2 1_555 1_555
C12_2 O7_2 1_555 1_555

#END
