
###############################################################################
#
# This file contains modified crystal structure data generated from the
# MOF subset of the Cambridge Structural Database (CSD) v543 
# hosted by the Cambridge Crystallographic Data Centre (CCDC).
#
# This work is licensed under the Creative Commons
# Attribution-NonCommercial-ShareAlike 4.0 International License.
# To view a copy of this license, visit
# http://creativecommons.org/licenses/by-nc-sa/4.0/
# or send a letter to
# Creative Commons, PO Box 1866, Mountain View, CA 94042, USA.
#
# CIF created using the CSD Python API on 29 September 2022
# The structure has been converted into the P1 space group
# The structure has a 3D framework
# The original CSD entry QUDQEO is in the monoclinic crystal system
# The framework has been calculated to contain at least 10.0% void space
# The void calculation uses a probe of radius 1.32A, grid spacing 0.4
#
###############################################################################

data_QUDQEO
_chemical_formula_moiety         '(C48 H40 Gd4 O44)n'
_symmetry_cell_setting           triclinic
_symmetry_space_group_name_H-M   'P 1'
_symmetry_Int_Tables_number      1
_space_group_name_Hall           'P 1'
loop_
_symmetry_equiv_pos_site_id
_symmetry_equiv_pos_as_xyz
1 x,y,z
_cell_length_a                   12.53408(13)
_cell_length_b                   14.43816(18)
_cell_length_c                   14.25451(16)
_cell_angle_alpha                90
_cell_angle_beta                 106.5332(12)
_cell_angle_gamma                90
_cell_volume                     2472.97
loop_
_atom_site_label
_atom_site_type_symbol
_atom_site_fract_x
_atom_site_fract_y
_atom_site_fract_z
Gd8 Gd 0.10347(2) 0.03374(2) 0.91531(2)
Gd1 Gd 0.60347(2) 0.46626(2) 0.41531(2)
C1 C 0.2976(2) 0.29719(19) 0.3731(2)
C2 C 0.3488(2) 0.26764(19) 0.3035(2)
H1 H 0.420945 0.289775 0.306227
C3 C 0.2954(2) 0.2061(2) 0.2302(2)
C4 C 0.1893(2) 0.17204(19) 0.22696(19)
C5 C 0.1396(2) 0.2003(2) 0.2987(2)
H2 H 0.068712 0.176353 0.297828
C6 C 0.1921(2) 0.2623(2) 0.3707(2)
C7 C 0.3528(2) 0.36872(19) 0.4460(2)
C8 C 0.1270(2) 0.10720(19) 0.1484(2)
O1 O 0.44293(16) 0.40561(14) 0.44336(14)
O2 O 0.30473(16) 0.39388(14) 0.50957(15)
O3 O 0.17175(16) 0.08786(14) 0.08031(14)
O4 O 0.03556(16) 0.07703(14) 0.15275(14)
O5 O 0.34850(17) 0.18179(16) 0.16280(15)
H3 H 0.307639 0.148587 0.121059
O6 O 0.13857(18) 0.28843(17) 0.43762(17)
H4 H 0.174013 0.329702 0.472362
C9 C 0.5330(2) 0.4905(2) 0.1015(2)
C10 C 0.5756(2) 0.5624(2) 0.0578(2)
H5 H 0.627206 0.604878 0.097139
C12 C 0.5688(2) 0.4810(2) 0.2105(2)
O7 O 0.52336(18) 0.41617(15) 0.24749(14)
O8 O 0.63892(17) 0.53391(15) 0.26348(15)
O10 O 0.79737(17) 0.45179(15) 0.42775(18)
H7 H 0.842059 0.497583 0.412537
H8 H 0.840159 0.405083 0.445937
O11 O 0.63930(19) 0.30298(15) 0.40266(15)
H9 H 0.643329 0.260124 0.443399
H10 H 0.658329 0.296624 0.346200
C15 C 0.4574(2) 0.4280(2) 0.0430(2)
O14 O 0.41397(18) 0.35580(15) 0.08286(14)
H12 H 0.440095 0.356396 0.142555
Gd5 Gd 0.89653(2) 0.96626(2) 0.08469(2)
Gd6 Gd 0.39653(2) 0.53374(2) 0.58469(2)
O24 O 0.55707(16) 0.59439(14) 0.55664(14)
O26 O 0.69527(16) 0.60612(14) 0.49043(15)
O28 O 0.67175(16) 0.41214(14) 0.58031(14)
O29 O 0.46444(16) 0.57703(14) 0.34725(14)
C11 C 0.5426(2) 0.5720(2) 0.9570(2)
O9 O 0.58603(18) 0.64420(15) 0.91714(14)
H6 H 0.559905 0.643604 0.857445
C13 C 0.4670(2) 0.5095(2) 0.8985(2)
C14 C 0.4244(2) 0.4376(2) 0.9422(2)
H11 H 0.372794 0.395122 0.902861
C16 C 0.4312(2) 0.5190(2) 0.7895(2)
O12 O 0.47664(18) 0.58383(15) 0.75251(14)
O13 O 0.36108(17) 0.46609(15) 0.73652(15)
C17 C 0.7024(2) 0.70281(19) 0.6269(2)
C18 C 0.6512(2) 0.73236(19) 0.6965(2)
H13 H 0.579055 0.710225 0.693773
C19 C 0.7046(2) 0.7939(2) 0.7698(2)
C20 C 0.8107(2) 0.82796(19) 0.77304(19)
C21 C 0.8604(2) 0.7997(2) 0.7013(2)
H14 H 0.931288 0.823647 0.702172
C22 C 0.8079(2) 0.7377(2) 0.6293(2)
C23 C 0.6472(2) 0.63128(19) 0.5540(2)
C24 C 0.8730(2) 0.89280(19) 0.8516(2)
O17 O 0.82825(16) 0.91214(14) 0.91969(14)
O18 O 0.96444(16) 0.92297(14) 0.84725(14)
O19 O 0.65150(17) 0.81821(16) 0.83720(15)
H15 H 0.692361 0.851413 0.878941
O20 O 0.86143(18) 0.71157(17) 0.56238(17)
H16 H 0.825987 0.670298 0.527638
O21 O 0.20263(17) 0.54821(15) 0.57225(18)
H17 H 0.157941 0.502417 0.587463
H18 H 0.159841 0.594917 0.554063
O22 O 0.36070(19) 0.69702(15) 0.59734(15)
H19 H 0.356671 0.739876 0.556601
H20 H 0.341671 0.703376 0.653800
O27 O 0.32825(16) 0.58786(14) 0.41969(14)
O30 O 0.53556(16) 0.42297(14) 0.65275(14)
C13_2 C 0.0330(2) 0.0095(2) 0.6015(2)
C16_2 C 0.0688(2) 0.0190(2) 0.7105(2)
O12_2 O 0.02336(18) 0.08383(15) 0.74749(14)
O21_2 O 0.29737(17) 0.04821(15) 0.92775(18)
H17_2 H 0.342059 0.002417 0.912537
H18_2 H 0.340159 0.094917 0.945937
O22_2 O 0.13930(19) 0.19702(15) 0.90266(15)
H19_2 H 0.143329 0.239876 0.943399
H20_2 H 0.158329 0.203376 0.846200
O23 O 0.05707(16) 0.90561(14) 0.05664(14)
C1_2 C 0.2024(2) 0.79719(19) 0.1269(2)
C2_2 C 0.1512(2) 0.76764(19) 0.1965(2)
H1_2 H 0.079055 0.789775 0.193773
C3_2 C 0.2046(2) 0.7061(2) 0.2698(2)
C4_2 C 0.3107(2) 0.67204(19) 0.27304(19)
C5_2 C 0.3604(2) 0.7003(2) 0.2013(2)
H2_2 H 0.431288 0.676353 0.202172
C6_2 C 0.3079(2) 0.7623(2) 0.1293(2)
C7_2 C 0.1472(2) 0.86872(19) 0.0540(2)
C8_2 C 0.3730(2) 0.60720(19) 0.3516(2)
O5_2 O 0.15150(17) 0.68179(16) 0.33720(15)
H3_2 H 0.192361 0.648587 0.378941
O6_2 O 0.36143(18) 0.78843(17) 0.06238(17)
H4_2 H 0.325987 0.829702 0.027638
C14_2 C 0.0756(2) 0.9376(2) 0.5578(2)
H11_2 H 0.127206 0.895122 0.597139
C15_2 C 0.0426(2) 0.9280(2) 0.4570(2)
O13_2 O 0.13892(17) 0.96609(15) 0.76348(15)
O14_2 O 0.08603(18) 0.85580(15) 0.41714(14)
H12_2 H 0.059905 0.856396 0.357445
O25 O 0.19527(16) 0.89388(14) 0.99043(15)
O16 O 0.80473(16) 0.10612(14) 0.00957(15)
C10_2 C 0.9244(2) 0.0624(2) 0.4422(2)
H5_2 H 0.872794 0.104878 0.402861
C11_2 C 0.9574(2) 0.0720(2) 0.5430(2)
O8_2 O 0.86108(17) 0.03391(15) 0.23652(15)
O9_2 O 0.91397(18) 0.14420(15) 0.58286(14)
H6_2 H 0.940095 0.143604 0.642555
C17_2 C 0.7976(2) 0.20281(19) 0.8731(2)
C18_2 C 0.8488(2) 0.23236(19) 0.8035(2)
H13_2 H 0.920945 0.210225 0.806227
C19_2 C 0.7954(2) 0.2939(2) 0.7302(2)
C20_2 C 0.6893(2) 0.32796(19) 0.72696(19)
C21_2 C 0.6396(2) 0.2997(2) 0.7987(2)
H14_2 H 0.568712 0.323647 0.797828
C22_2 C 0.6921(2) 0.2377(2) 0.8707(2)
C23_2 C 0.8528(2) 0.13128(19) 0.9460(2)
C24_2 C 0.6270(2) 0.39280(19) 0.6484(2)
O15 O 0.94293(16) 0.09439(14) 0.94336(14)
O19_2 O 0.84850(17) 0.31821(16) 0.66280(15)
H15_2 H 0.807639 0.351413 0.621059
O20_2 O 0.63857(18) 0.21157(17) 0.93762(17)
H16_2 H 0.674013 0.170298 0.972362
C9_2 C 0.9670(2) 0.9905(2) 0.3985(2)
C12_2 C 0.9312(2) 0.9810(2) 0.2895(2)
O7_2 O 0.97664(18) 0.91617(15) 0.25251(14)
O10_2 O 0.70263(17) 0.95179(15) 0.07225(18)
H7_2 H 0.657941 0.997583 0.087463
H8_2 H 0.659841 0.905083 0.054063
O11_2 O 0.86070(19) 0.80298(15) 0.09734(15)
H9_2 H 0.856671 0.760124 0.056601
H10_2 H 0.841671 0.796624 0.153800
loop_
_geom_bond_atom_site_label_1
_geom_bond_atom_site_label_2
_geom_bond_site_symmetry_1
_geom_bond_site_symmetry_2
Gd1 O1 1_555 1_555
C1 C2 1_555 1_555
C2 H1 1_555 1_555
C3 C2 1_555 1_555
C4 C3 1_555 1_555
C5 C4 1_555 1_555
H2 C5 1_555 1_555
C6 C1 1_555 1_555
C7 C1 1_555 1_555
C8 C4 1_555 1_555
O1 C7 1_555 1_555
O2 C7 1_555 1_555
O3 C8 1_555 1_555
O4 C8 1_555 1_555
O5 C3 1_555 1_555
H3 O5 1_555 1_555
O6 C6 1_555 1_555
H4 O6 1_555 1_555
C9 C10 1_555 1_555
C10 H5 1_555 1_555
C12 C9 1_555 1_555
O7 Gd1 1_555 1_555
O8 Gd1 1_555 1_555
O10 Gd1 1_555 1_555
H7 O10 1_555 1_555
H8 O10 1_555 1_555
O11 Gd1 1_555 1_555
H9 O11 1_555 1_555
H10 O11 1_555 1_555
C15 C9 1_555 1_555
O14 C15 1_555 1_555
H12 O14 1_555 1_555
Gd6 O1 1_555 1_555
O24 Gd1 1_555 1_555
O26 Gd1 1_555 1_555
O28 Gd1 1_555 1_555
O29 Gd1 1_555 1_555
C5 C6 1_555 1_555
O2 Gd6 1_555 1_555
C12 O7 1_555 1_555
C12 O8 1_555 1_555
Gd6 O24 1_555 1_555
O9 C11 1_555 1_555
H6 O9 1_555 1_555
C13 C11 1_555 1_555
C14 C13 1_555 1_555
H11 C14 1_555 1_555
C16 C13 1_555 1_555
O12 C16 1_555 1_555
O13 C16 1_555 1_555
Gd6 O12 1_555 1_555
C17 C18 1_555 1_555
C18 H13 1_555 1_555
C19 C18 1_555 1_555
C20 C19 1_555 1_555
C21 C20 1_555 1_555
H14 C21 1_555 1_555
C22 C17 1_555 1_555
C23 C17 1_555 1_555
C24 C20 1_555 1_555
O26 C23 1_555 1_555
O17 C24 1_555 1_555
O18 C24 1_555 1_555
O19 C19 1_555 1_555
H15 O19 1_555 1_555
O20 C22 1_555 1_555
H16 O20 1_555 1_555
O21 Gd6 1_555 1_555
H17 O21 1_555 1_555
H18 O21 1_555 1_555
O22 Gd6 1_555 1_555
H19 O22 1_555 1_555
H20 O22 1_555 1_555
O27 Gd6 1_555 1_555
O30 Gd6 1_555 1_555
O13 Gd6 1_555 1_555
C21 C22 1_555 1_555
C23 O24 1_555 1_555
C16_2 C13_2 1_555 1_555
O12_2 C16_2 1_555 1_555
Gd8 O12_2 1_555 1_555
O21_2 Gd8 1_555 1_555
H17_2 O21_2 1_555 1_555
H18_2 O21_2 1_555 1_555
O22_2 Gd8 1_555 1_555
H19_2 O22_2 1_555 1_555
H20_2 O22_2 1_555 1_555
C1_2 C2_2 1_555 1_555
C2_2 H1_2 1_555 1_555
C3_2 C2_2 1_555 1_555
C4_2 C3_2 1_555 1_555
C5_2 C4_2 1_555 1_555
H2_2 C5_2 1_555 1_555
C6_2 C1_2 1_555 1_555
C7_2 C1_2 1_555 1_555
C8_2 C4_2 1_555 1_555
O23 C7_2 1_555 1_555
O27 C8_2 1_555 1_555
O29 C8_2 1_555 1_555
O5_2 C3_2 1_555 1_555
H3_2 O5_2 1_555 1_555
O6_2 C6_2 1_555 1_555
H4_2 O6_2 1_555 1_555
H11_2 C14_2 1_555 1_555
O14_2 C15_2 1_555 1_555
H12_2 O14_2 1_555 1_555
C5_2 C6_2 1_555 1_555
C14_2 C15_2 1_555 1_555
C10_2 H5_2 1_555 1_555
C11_2 C10_2 1_555 1_555
O9_2 C11_2 1_555 1_555
H6_2 O9_2 1_555 1_555
C17_2 C18_2 1_555 1_555
C18_2 H13_2 1_555 1_555
C19_2 C18_2 1_555 1_555
C20_2 C19_2 1_555 1_555
C21_2 C20_2 1_555 1_555
H14_2 C21_2 1_555 1_555
C22_2 C17_2 1_555 1_555
C23_2 C17_2 1_555 1_555
C24_2 C20_2 1_555 1_555
O28 C24_2 1_555 1_555
O30 C24_2 1_555 1_555
O19_2 C19_2 1_555 1_555
H15_2 O19_2 1_555 1_555
O20_2 C22_2 1_555 1_555
H16_2 O20_2 1_555 1_555
C21_2 C22_2 1_555 1_555
C23_2 O15 1_555 1_555
C12_2 C9_2 1_555 1_555
O7_2 Gd5 1_555 1_555
O10_2 Gd5 1_555 1_555
H7_2 O10_2 1_555 1_555
H8_2 O10_2 1_555 1_555
O11_2 Gd5 1_555 1_555
H9_2 O11_2 1_555 1_555
H10_2 O11_2 1_555 1_555
C12_2 O7_2 1_555 1_555

#END
