
###############################################################################
#
# This file contains modified crystal structure data generated from the
# MOF subset of the Cambridge Structural Database (CSD) v543 
# hosted by the Cambridge Crystallographic Data Centre (CCDC).
#
# This work is licensed under the Creative Commons
# Attribution-NonCommercial-ShareAlike 4.0 International License.
# To view a copy of this license, visit
# http://creativecommons.org/licenses/by-nc-sa/4.0/
# or send a letter to
# Creative Commons, PO Box 1866, Mountain View, CA 94042, USA.
#
# CIF created using the CSD Python API on 29 September 2022
# The structure has been converted into the P1 space group
# The structure has a 3D framework
# The original CSD entry QUDQIS is in the monoclinic crystal system
# The framework has been calculated to contain at least 10.0% void space
# The void calculation uses a probe of radius 1.32A, grid spacing 0.4
#
###############################################################################

data_QUDQIS
_chemical_formula_moiety         '(C48 H40 O44 Tb4)n'
_symmetry_cell_setting           triclinic
_symmetry_space_group_name_H-M   'P 1'
_symmetry_Int_Tables_number      1
_space_group_name_Hall           'P 1'
loop_
_symmetry_equiv_pos_site_id
_symmetry_equiv_pos_as_xyz
1 x,y,z
_cell_length_a                   12.52570(12)
_cell_length_b                   14.44759(14)
_cell_length_c                   14.23151(13)
_cell_angle_alpha                90
_cell_angle_beta                 106.7894(10)
_cell_angle_gamma                90
_cell_volume                     2465.64
loop_
_atom_site_label
_atom_site_type_symbol
_atom_site_fract_x
_atom_site_fract_y
_atom_site_fract_z
Tb8 Tb 0.10346(2) 0.03364(2) 0.91532(2)
Tb1 Tb 0.60346(2) 0.46636(2) 0.41532(2)
C1 C 0.2978(2) 0.2975(2) 0.3721(2)
C2 C 0.3488(2) 0.2670(2) 0.3022(2)
H1 H 0.421248 0.288606 0.305007
C3 C 0.2950(2) 0.2057(2) 0.2292(2)
C4 C 0.1889(2) 0.1716(2) 0.2262(2)
C5 C 0.1394(2) 0.2002(2) 0.2975(2)
H2 H 0.068458 0.176370 0.296641
C6 C 0.1925(2) 0.2627(2) 0.3696(2)
C7 C 0.3542(2) 0.3689(2) 0.4451(2)
C8 C 0.1264(2) 0.1068(2) 0.1473(2)
O1 O 0.44423(17) 0.40500(15) 0.44162(15)
O2 O 0.30662(18) 0.39471(16) 0.50829(16)
O3 O 0.17095(17) 0.08674(16) 0.07959(15)
O4 O 0.03486(17) 0.07634(16) 0.15173(15)
O5 O 0.34788(18) 0.18112(17) 0.16185(16)
H3 H 0.307022 0.147918 0.120109
O6 O 0.13906(19) 0.28958(19) 0.43650(18)
H4 H 0.174498 0.330851 0.471243
C9 C 0.5332(3) 0.4909(2) 0.1020(2)
C10 C 0.5754(3) 0.5630(2) 0.0580(2)
H5 H 0.626773 0.605766 0.097425
C12 C 0.5689(3) 0.4818(2) 0.2108(2)
O7 O 0.5228(2) 0.41717(16) 0.24816(15)
O8 O 0.63876(19) 0.53420(16) 0.26413(16)
O10 O 0.79636(19) 0.45318(17) 0.42943(19)
H7 H 0.841054 0.498981 0.414216
H8 H 0.839154 0.406481 0.447616
O11 O 0.6404(2) 0.30474(16) 0.40260(17)
H9 H 0.644454 0.261879 0.443342
H10 H 0.659455 0.298379 0.346143
C15 C 0.4576(3) 0.4278(2) 0.0427(2)
O14 O 0.41478(19) 0.35566(17) 0.08259(15)
H12 H 0.440903 0.356254 0.142281
Tb5 Tb 0.89654(2) 0.96636(2) 0.08468(2)
Tb6 Tb 0.39654(2) 0.53364(2) 0.58468(2)
O24 O 0.69338(18) 0.60529(16) 0.49171(16)
O26 O 0.67095(17) 0.41326(16) 0.57959(15)
O27 O 0.46514(17) 0.57634(16) 0.34827(15)
C11 C 0.5424(3) 0.5722(2) 0.9573(2)
O9 O 0.58522(19) 0.64434(17) 0.91741(15)
H6 H 0.559097 0.643746 0.857719
C13 C 0.4668(3) 0.5091(2) 0.8980(2)
C14 C 0.4246(3) 0.4370(2) 0.9420(2)
H11 H 0.373227 0.394234 0.902575
C16 C 0.4311(3) 0.5182(2) 0.7892(2)
O12 O 0.4772(2) 0.58283(16) 0.75184(15)
O13 O 0.36124(19) 0.46580(16) 0.73587(16)
C17 C 0.7022(2) 0.7025(2) 0.6279(2)
C18 C 0.6512(2) 0.7330(2) 0.6978(2)
H13 H 0.578752 0.711394 0.694993
C19 C 0.7050(2) 0.7943(2) 0.7708(2)
C20 C 0.8111(2) 0.8284(2) 0.7738(2)
C21 C 0.8606(2) 0.7998(2) 0.7025(2)
H14 H 0.931542 0.823630 0.703359
C22 C 0.8075(2) 0.7373(2) 0.6304(2)
C23 C 0.6458(2) 0.6311(2) 0.5549(2)
C24 C 0.8736(2) 0.8932(2) 0.8527(2)
O15 O 0.55577(17) 0.59500(15) 0.55838(15)
O17 O 0.82905(17) 0.91326(16) 0.92041(15)
O18 O 0.96514(17) 0.92366(16) 0.84827(15)
O19 O 0.65212(18) 0.81888(17) 0.83815(16)
H15 H 0.692978 0.852082 0.879891
O20 O 0.86094(19) 0.71042(19) 0.56350(18)
H16 H 0.825502 0.669149 0.528757
O21 O 0.20364(19) 0.54682(17) 0.57057(19)
H17 H 0.158946 0.501019 0.585784
H18 H 0.160846 0.593519 0.552384
O22 O 0.3596(2) 0.69526(16) 0.59740(17)
H19 H 0.355546 0.738121 0.556658
H20 H 0.340545 0.701621 0.653857
O25 O 0.32905(17) 0.58674(16) 0.42041(15)
O28 O 0.53486(17) 0.42366(16) 0.65173(15)
C13_2 C 0.0332(3) 0.0091(2) 0.6020(2)
C16_2 C 0.0689(3) 0.0182(2) 0.7108(2)
O12_2 O 0.0228(2) 0.08283(16) 0.74816(15)
O21_2 O 0.29636(19) 0.04682(17) 0.92943(19)
H17_2 H 0.341054 0.001019 0.914216
H18_2 H 0.339154 0.093519 0.947616
O22_2 O 0.1404(2) 0.19526(16) 0.90260(17)
H19_2 H 0.144454 0.238121 0.943342
H20_2 H 0.159455 0.201621 0.846143
C1_2 C 0.2022(2) 0.7975(2) 0.1279(2)
C2_2 C 0.1512(2) 0.7670(2) 0.1978(2)
H1_2 H 0.078752 0.788606 0.194993
C3_2 C 0.2050(2) 0.7057(2) 0.2708(2)
C4_2 C 0.3111(2) 0.6716(2) 0.2738(2)
C5_2 C 0.3606(2) 0.7002(2) 0.2025(2)
H2_2 H 0.431542 0.676370 0.203359
C6_2 C 0.3075(2) 0.7627(2) 0.1304(2)
C7_2 C 0.1458(2) 0.8689(2) 0.0549(2)
C8_2 C 0.3736(2) 0.6068(2) 0.3527(2)
O1_2 O 0.05577(17) 0.90500(15) 0.05838(15)
O5_2 O 0.15212(18) 0.68112(17) 0.33815(16)
H3_2 H 0.192978 0.647918 0.379891
O6_2 O 0.36094(19) 0.78958(19) 0.06350(18)
H4_2 H 0.325502 0.830851 0.028757
C14_2 C 0.0754(3) 0.9370(2) 0.5580(2)
H11_2 H 0.126773 0.894234 0.597425
C15_2 C 0.0424(3) 0.9278(2) 0.4573(2)
O13_2 O 0.13876(19) 0.96580(16) 0.76413(16)
O14_2 O 0.08522(19) 0.85566(17) 0.41741(15)
H12_2 H 0.059097 0.856254 0.357719
O23 O 0.19338(18) 0.89471(16) 0.99171(16)
O16 O 0.80662(18) 0.10529(16) 0.00829(16)
C10_2 C 0.9246(3) 0.0630(2) 0.4420(2)
H5_2 H 0.873227 0.105766 0.402575
C11_2 C 0.9576(3) 0.0722(2) 0.5427(2)
O8_2 O 0.86124(19) 0.03420(16) 0.23587(16)
O9_2 O 0.91478(19) 0.14434(17) 0.58259(15)
H6_2 H 0.940903 0.143746 0.642281
C17_2 C 0.7978(2) 0.2025(2) 0.8721(2)
C18_2 C 0.8488(2) 0.2330(2) 0.8022(2)
H13_2 H 0.921248 0.211394 0.805007
C19_2 C 0.7950(2) 0.2943(2) 0.7292(2)
C20_2 C 0.6889(2) 0.3284(2) 0.7262(2)
C21_2 C 0.6394(2) 0.2998(2) 0.7975(2)
H14_2 H 0.568458 0.323630 0.796641
C22_2 C 0.6925(2) 0.2373(2) 0.8696(2)
C23_2 C 0.8542(2) 0.1311(2) 0.9451(2)
C24_2 C 0.6264(2) 0.3932(2) 0.6473(2)
O15_2 O 0.94423(17) 0.09500(15) 0.94162(15)
O19_2 O 0.84788(18) 0.31888(17) 0.66185(16)
H15_2 H 0.807022 0.352082 0.620109
O20_2 O 0.63906(19) 0.21042(19) 0.93650(18)
H16_2 H 0.674498 0.169149 0.971243
C9_2 C 0.9668(3) 0.9909(2) 0.3980(2)
C12_2 C 0.9311(3) 0.9818(2) 0.2892(2)
O7_2 O 0.9772(2) 0.91717(16) 0.25184(15)
O10_2 O 0.70364(19) 0.95318(17) 0.07057(19)
H7_2 H 0.658946 0.998981 0.085784
H8_2 H 0.660846 0.906481 0.052384
O11_2 O 0.8596(2) 0.80474(16) 0.09740(17)
H9_2 H 0.855546 0.761879 0.056658
H10_2 H 0.840545 0.798379 0.153857
loop_
_geom_bond_atom_site_label_1
_geom_bond_atom_site_label_2
_geom_bond_site_symmetry_1
_geom_bond_site_symmetry_2
Tb1 O1 1_555 1_555
C1 C2 1_555 1_555
C2 H1 1_555 1_555
C3 C2 1_555 1_555
C4 C3 1_555 1_555
C5 C4 1_555 1_555
H2 C5 1_555 1_555
C6 C1 1_555 1_555
C7 C1 1_555 1_555
C8 C4 1_555 1_555
O1 C7 1_555 1_555
O2 C7 1_555 1_555
O3 C8 1_555 1_555
O4 C8 1_555 1_555
O5 C3 1_555 1_555
H3 O5 1_555 1_555
O6 C6 1_555 1_555
H4 O6 1_555 1_555
C9 C10 1_555 1_555
C10 H5 1_555 1_555
C12 C9 1_555 1_555
O7 Tb1 1_555 1_555
O8 Tb1 1_555 1_555
O10 Tb1 1_555 1_555
H7 O10 1_555 1_555
H8 O10 1_555 1_555
O11 Tb1 1_555 1_555
H9 O11 1_555 1_555
H10 O11 1_555 1_555
C15 C9 1_555 1_555
O14 C15 1_555 1_555
H12 O14 1_555 1_555
Tb6 O2 1_555 1_555
O24 Tb1 1_555 1_555
O26 Tb1 1_555 1_555
O27 Tb1 1_555 1_555
C5 C6 1_555 1_555
C12 O7 1_555 1_555
C12 O8 1_555 1_555
O9 C11 1_555 1_555
H6 O9 1_555 1_555
C13 C11 1_555 1_555
C14 C13 1_555 1_555
H11 C14 1_555 1_555
C16 C13 1_555 1_555
O12 C16 1_555 1_555
O13 C16 1_555 1_555
Tb6 O12 1_555 1_555
C17 C18 1_555 1_555
C18 H13 1_555 1_555
C19 C18 1_555 1_555
C20 C19 1_555 1_555
C21 C20 1_555 1_555
H14 C21 1_555 1_555
C22 C17 1_555 1_555
C23 C17 1_555 1_555
C24 C20 1_555 1_555
O15 Tb6 1_555 1_555
O24 C23 1_555 1_555
O17 C24 1_555 1_555
O18 C24 1_555 1_555
O19 C19 1_555 1_555
H15 O19 1_555 1_555
O20 C22 1_555 1_555
H16 O20 1_555 1_555
O21 Tb6 1_555 1_555
H17 O21 1_555 1_555
H18 O21 1_555 1_555
O22 Tb6 1_555 1_555
H19 O22 1_555 1_555
H20 O22 1_555 1_555
O25 Tb6 1_555 1_555
O28 Tb6 1_555 1_555
O13 Tb6 1_555 1_555
C21 C22 1_555 1_555
C23 O15 1_555 1_555
C16_2 C13_2 1_555 1_555
O12_2 C16_2 1_555 1_555
Tb8 O12_2 1_555 1_555
O21_2 Tb8 1_555 1_555
H17_2 O21_2 1_555 1_555
H18_2 O21_2 1_555 1_555
O22_2 Tb8 1_555 1_555
H19_2 O22_2 1_555 1_555
H20_2 O22_2 1_555 1_555
C1_2 C2_2 1_555 1_555
C2_2 H1_2 1_555 1_555
C3_2 C2_2 1_555 1_555
C4_2 C3_2 1_555 1_555
C5_2 C4_2 1_555 1_555
H2_2 C5_2 1_555 1_555
C6_2 C1_2 1_555 1_555
C7_2 C1_2 1_555 1_555
C8_2 C4_2 1_555 1_555
O1_2 C7_2 1_555 1_555
O25 C8_2 1_555 1_555
O27 C8_2 1_555 1_555
O5_2 C3_2 1_555 1_555
H3_2 O5_2 1_555 1_555
O6_2 C6_2 1_555 1_555
H4_2 O6_2 1_555 1_555
H11_2 C14_2 1_555 1_555
O14_2 C15_2 1_555 1_555
H12_2 O14_2 1_555 1_555
C5_2 C6_2 1_555 1_555
C14_2 C15_2 1_555 1_555
C10_2 H5_2 1_555 1_555
C11_2 C10_2 1_555 1_555
O9_2 C11_2 1_555 1_555
H6_2 O9_2 1_555 1_555
C17_2 C18_2 1_555 1_555
C18_2 H13_2 1_555 1_555
C19_2 C18_2 1_555 1_555
C20_2 C19_2 1_555 1_555
C21_2 C20_2 1_555 1_555
H14_2 C21_2 1_555 1_555
C22_2 C17_2 1_555 1_555
C23_2 C17_2 1_555 1_555
C24_2 C20_2 1_555 1_555
O26 C24_2 1_555 1_555
O28 C24_2 1_555 1_555
O19_2 C19_2 1_555 1_555
H15_2 O19_2 1_555 1_555
O20_2 C22_2 1_555 1_555
H16_2 O20_2 1_555 1_555
C21_2 C22_2 1_555 1_555
C23_2 O15_2 1_555 1_555
C12_2 C9_2 1_555 1_555
O7_2 Tb5 1_555 1_555
O10_2 Tb5 1_555 1_555
H7_2 O10_2 1_555 1_555
H8_2 O10_2 1_555 1_555
O11_2 Tb5 1_555 1_555
H9_2 O11_2 1_555 1_555
H10_2 O11_2 1_555 1_555
C12_2 O7_2 1_555 1_555

#END
