
###############################################################################
#
# This file contains modified crystal structure data generated from the
# MOF subset of the Cambridge Structural Database (CSD) v543 
# hosted by the Cambridge Crystallographic Data Centre (CCDC).
#
# This work is licensed under the Creative Commons
# Attribution-NonCommercial-ShareAlike 4.0 International License.
# To view a copy of this license, visit
# http://creativecommons.org/licenses/by-nc-sa/4.0/
# or send a letter to
# Creative Commons, PO Box 1866, Mountain View, CA 94042, USA.
#
# CIF created using the CSD Python API on 29 September 2022
# The structure has been converted into the P1 space group
# The structure has a 3D framework
# The original CSD entry QUFKIN is in the monoclinic crystal system
# The framework has been calculated to contain at least 10.0% void space
# The void calculation uses a probe of radius 1.32A, grid spacing 0.4
# The framework is charged, counterions have been retained in the structure
#
###############################################################################

data_QUFKIN
_chemical_formula_moiety         '(C60 H52 Co8 N20 O40)n'
_symmetry_cell_setting           triclinic
_symmetry_space_group_name_H-M   'P 1'
_symmetry_Int_Tables_number      1
_space_group_name_Hall           'P 1'
loop_
_symmetry_equiv_pos_site_id
_symmetry_equiv_pos_as_xyz
1 x,y,z
_cell_length_a                   9.465(7)
_cell_length_b                   12.581(9)
_cell_length_c                   18.980(14)
_cell_angle_alpha                90
_cell_angle_beta                 93.548(13)
_cell_angle_gamma                90
_cell_volume                     2255.79
loop_
_atom_site_label
_atom_site_type_symbol
_atom_site_fract_x
_atom_site_fract_y
_atom_site_fract_z
O5 O 0.0857(3) 0.2387(3) 0.23875(16)
O6 O 0.0625(3) 0.1747(3) 0.34746(16)
H2 H 0.2470 0.0275 0.3497
C13 C 0.0240(4) 0.1838(3) 0.2836(2)
H6 H 0.3961 0.0143 0.5744
Co5 Co 0.25064(6) 0.35299(5) 0.25888(3)
Co1 Co 0.24936(6) 0.85299(5) 0.24112(3)
Co2 Co 0.06249(6) 0.82072(5) 0.06914(3)
N1 N 0.2514(4) 0.8738(3) 0.35159(18)
N2 N 0.2771(4) 0.6875(3) 0.3894(2)
N3 N 0.3668(4) 0.7122(3) 0.5017(2)
N4 N 0.3708(5) 0.9430(3) 0.5622(2)
N5 N 0.3018(4) 0.9955(3) 0.4473(2)
O1 O 0.0931(3) 0.9701(3) 0.22607(16)
C1 C 0.2832(5) 0.7966(4) 0.3995(2)
C2 C 0.3268(5) 0.6425(4) 0.4510(3)
H1 H 0.3326 0.5693 0.4575
C3 C 0.3337(5) 0.8114(4) 0.4686(2)
C4 C 0.3377(5) 0.9172(4) 0.4948(2)
C5 C 0.2652(5) 0.9706(4) 0.3802(2)
O9 O 0.1573(4) 0.6994(3) 0.01652(16)
O11 O 0.2616(3) 0.8354(2) 0.12923(15)
H5 H 0.2545 0.6562 0.3502
H7 H 0.4054 0.8723 0.5960
H8 H 0.1771 0.6410 0.0341
H12 H 0.3073 0.7803 0.1291
H13 H 0.3143 0.8870 0.1244
Co7 Co 0.56249(6) 0.67928(5) 0.56914(3)
O12 O 0.4038(3) 0.9726(3) 0.24161(17)
O13 O 0.4143(3) 0.7387(3) 0.26125(16)
O14 O 0.0969(3) 0.7319(3) 0.25455(15)
O7 O 0.4031(3) 0.2319(3) 0.24545(15)
O8 O 0.5100(3) 0.2213(3) 0.35355(16)
C7 C 0.8687(4) 0.0507(3) 0.2071(2)
C8 C 0.7335(4) 0.0163(3) 0.1848(2)
C9 C 0.6113(4) 0.0603(3) 0.2118(2)
C10 C 0.4716(4) 0.0080(3) 0.1912(2)
C11 C 0.7619(4) 0.1779(3) 0.2832(2)
H4 H 0.7715 0.2322 0.3164
C12 C 0.8840(4) 0.1330(3) 0.2570(2)
C14 C 0.6270(4) 0.1433(3) 0.2607(2)
C15 C 0.5012(4) 0.2017(3) 0.2887(2)
Co6 Co 0.43751(6) 0.32072(5) 0.43086(3)
O2 O 0.9822(3) 0.9553(3) 0.11787(15)
O4 O 0.4339(3) 0.9983(3) 0.12696(17)
C6 C 0.9931(4) 0.9885(3) 0.1818(2)
H3 H 0.7236 0.9628 0.1511
N6 N 0.8668(4) 0.7878(3) 0.0017(2)
O15 O 0.9900(3) 0.7213(3) 0.14645(16)
O3 O 0.0962(3) 0.4726(3) 0.25839(17)
O4_2 O 0.0661(3) 0.4983(3) 0.37304(17)
C10_2 C 0.0284(4) 0.5080(3) 0.3088(2)
N1_2 N 0.2486(4) 0.3738(3) 0.14841(18)
N2_2 N 0.2229(4) 0.1875(3) 0.1106(2)
N5_2 N 0.1982(4) 0.4955(3) 0.0527(2)
O1_2 O 0.4069(3) 0.4701(3) 0.27393(16)
O2_2 O 0.5178(3) 0.4553(3) 0.38213(15)
O6_2 O 0.4375(3) 0.6747(3) 0.15254(16)
C1_2 C 0.2168(5) 0.2966(4) 0.1005(2)
C2_2 C 0.1732(5) 0.1425(4) 0.0490(3)
H1_2 H 0.1674 0.0693 0.0425
C3_2 C 0.1663(5) 0.3114(4) 0.0314(2)
C4_2 C 0.1623(5) 0.4172(4) 0.0052(2)
C5_2 C 0.2348(5) 0.4706(4) 0.1198(2)
H2_2 H 0.2530 0.5275 0.1503
C6_2 C 0.5069(4) 0.4885(3) 0.3182(2)
C7_2 C 0.6313(4) 0.5507(3) 0.2929(2)
C8_2 C 0.7665(4) 0.5163(3) 0.3152(2)
H3_2 H 0.7764 0.4628 0.3489
C9_2 C 0.8887(4) 0.5603(3) 0.2882(2)
C11_2 C 0.7381(4) 0.6779(3) 0.2168(2)
H4_2 H 0.7285 0.7322 0.1836
C12_2 C 0.6160(4) 0.6330(3) 0.2430(2)
C13_2 C 0.4760(4) 0.6838(3) 0.2164(2)
C14_2 C 0.8730(4) 0.6433(3) 0.2393(2)
C15_2 C 0.9988(4) 0.7017(3) 0.2113(2)
O9_2 O 0.3427(4) 0.1994(3) 0.48348(16)
O10 O 0.3533(3) 0.4155(3) 0.51135(16)
O11_2 O 0.2384(3) 0.3354(2) 0.37077(15)
H5_2 H 0.2455 0.1562 0.1498
H8_2 H 0.3229 0.1410 0.4659
H9 H 0.3569 0.1994 0.5251
H10 H 0.2719 0.4016 0.5202
H11 H 0.3994 0.4481 0.5423
H12_2 H 0.1927 0.2803 0.3709
H13_2 H 0.1857 0.3870 0.3756
N6_2 N 0.6332(4) 0.2878(3) 0.4983(2)
N3_2 N 0.1332(4) 0.2122(3) 0.9983(2)
N4_2 N 0.1292(5) 0.4430(3) 0.9378(2)
H6_2 H 0.1039 0.5143 0.9256
H7_2 H 0.0946 0.3723 0.9040
Co7_2 Co 0.93751(6) 0.17928(5) 0.93086(3)
O2_3 O 0.0178(3) 0.0447(3) 0.88213(15)
O3_2 O 0.5962(3) 0.0274(3) 0.75839(17)
O4_3 O 0.5661(3) 0.0017(3) 0.87304(17)
C6_3 C 0.0069(4) 0.0115(3) 0.8182(2)
H3_3 H 0.2764 0.0372 0.8489
Co3 Co 0.75064(6) 0.14701(5) 0.75888(3)
O15_2 O 0.0100(3) 0.2787(3) 0.85355(16)
O7_2 O 0.5969(3) 0.7681(3) 0.75455(15)
O8_2 O 0.4900(3) 0.7787(3) 0.64645(16)
C7_3 C 0.1313(4) 0.9493(3) 0.7929(2)
C8_3 C 0.2665(4) 0.9837(3) 0.8152(2)
C9_3 C 0.3887(4) 0.9397(3) 0.7882(2)
C10_3 C 0.5284(4) 0.9920(3) 0.8088(2)
C11_3 C 0.2381(4) 0.8221(3) 0.7168(2)
H4_3 H 0.2285 0.7678 0.6836
C12_3 C 0.1160(4) 0.8670(3) 0.7430(2)
C14_3 C 0.3730(4) 0.8567(3) 0.7393(2)
C15_3 C 0.4988(4) 0.7983(3) 0.7113(2)
Co4 Co 0.74936(6) 0.64701(5) 0.74112(3)
N1_3 N 0.7486(4) 0.1262(3) 0.64841(18)
N2_3 N 0.7229(4) 0.3125(3) 0.6106(2)
N4_3 N 0.6292(5) 0.0570(3) 0.4378(2)
N5_3 N 0.6982(4) 0.0045(3) 0.5527(2)
O1_3 O 0.9069(3) 0.0299(3) 0.77393(16)
C1_3 C 0.7168(5) 0.2034(4) 0.6005(2)
C2_3 C 0.6732(5) 0.3575(4) 0.5490(3)
H1_3 H 0.6674 0.4307 0.5425
C3_3 C 0.6663(5) 0.1886(4) 0.5314(2)
C4_3 C 0.6623(5) 0.0828(4) 0.5052(2)
C5_3 C 0.7348(5) 0.0294(4) 0.6198(2)
O9_3 O 0.8427(4) 0.3006(3) 0.98348(16)
O11_3 O 0.7384(3) 0.1646(2) 0.87077(15)
H5_3 H 0.7455 0.3438 0.6498
H7_3 H 0.5946 0.1277 0.4040
H8_3 H 0.8229 0.3590 0.9659
H12_3 H 0.6927 0.2197 0.8709
H13_3 H 0.6857 0.1130 0.8756
O13_2 O 0.5857(3) 0.2613(3) 0.73875(16)
O14_2 O 0.9031(3) 0.2681(3) 0.74545(15)
O5_2 O 0.9143(3) 0.7613(3) 0.76125(16)
O6_3 O 0.9375(3) 0.8253(3) 0.65254(16)
H2_3 H 0.7530 0.9725 0.6503
C13_3 C 0.9760(4) 0.8162(3) 0.7164(2)
H6_3 H 0.6039 0.9857 0.4256
N4_4 N 0.8708(5) 0.5570(3) 0.0622(2)
H6_4 H 0.8961 0.4857 0.0744
H7_4 H 0.9054 0.6277 0.0960
N1_4 N 0.7514(4) 0.6262(3) 0.85159(18)
N2_4 N 0.7771(4) 0.8125(3) 0.8894(2)
N5_4 N 0.8018(4) 0.5045(3) 0.9473(2)
O1_4 O 0.5931(3) 0.5299(3) 0.72607(16)
O2_4 O 0.4822(3) 0.5447(3) 0.61787(15)
O6_4 O 0.5625(3) 0.3253(3) 0.84746(16)
C1_4 C 0.7832(5) 0.7034(4) 0.8995(2)
C2_4 C 0.8268(5) 0.8575(4) 0.9510(3)
H1_4 H 0.8326 0.9307 0.9575
C3_4 C 0.8337(5) 0.6886(4) 0.9686(2)
C4_4 C 0.8377(5) 0.5828(4) 0.9948(2)
C5_4 C 0.7652(5) 0.5294(4) 0.8802(2)
H2_4 H 0.7470 0.4725 0.8497
C6_4 C 0.4931(4) 0.5115(3) 0.6818(2)
C7_4 C 0.3687(4) 0.4493(3) 0.7071(2)
C8_4 C 0.2335(4) 0.4837(3) 0.6848(2)
H3_4 H 0.2236 0.5372 0.6511
C9_4 C 0.1113(4) 0.4397(3) 0.7118(2)
C11_4 C 0.2619(4) 0.3221(3) 0.7832(2)
H4_4 H 0.2715 0.2678 0.8164
C12_4 C 0.3840(4) 0.3670(3) 0.7570(2)
C13_4 C 0.5240(4) 0.3162(3) 0.7836(2)
C14_4 C 0.1270(4) 0.3567(3) 0.7607(2)
C15_4 C 0.0012(4) 0.2983(3) 0.7887(2)
O9_4 O 0.6573(4) 0.8006(3) 0.51652(16)
O10_2 O 0.6467(3) 0.5845(3) 0.48865(16)
O11_4 O 0.7616(3) 0.6646(2) 0.62923(15)
H5_4 H 0.7545 0.8438 0.8502
H8_4 H 0.6771 0.8590 0.5341
H9_2 H 0.6431 0.8006 0.4749
H10_2 H 0.7281 0.5984 0.4798
H11_2 H 0.6006 0.5519 0.4577
H12_4 H 0.8073 0.7197 0.6291
H13_4 H 0.8143 0.6130 0.6244
O12_2 O 0.9038(3) 0.5274(3) 0.74161(17)
O4_4 O 0.9339(3) 0.5017(3) 0.62696(17)
C10_4 C 0.9716(4) 0.4920(3) 0.6912(2)
O10_3 O 0.1467(3) 0.9155(3) 0.98865(16)
H9_3 H 0.1431 0.6994 0.9749
H10_3 H 0.2281 0.9016 0.9798
H11_3 H 0.1006 0.9481 0.9577
O10_4 O 0.8533(3) 0.0845(3) 0.01135(16)
H9_4 H 0.8569 0.3006 0.0251
H10_4 H 0.7719 0.0984 0.0202
H11_4 H 0.8994 0.0519 0.0423
loop_
_geom_bond_atom_site_label_1
_geom_bond_atom_site_label_2
_geom_bond_site_symmetry_1
_geom_bond_site_symmetry_2
O5 C13 1_555 1_555
O6 C13 1_555 1_555
Co5 O5 1_555 1_555
Co1 N1 1_555 1_555
N1 C1 1_555 1_555
N2 C1 1_555 1_555
N3 C2 1_555 1_555
N4 C4 1_555 1_555
N5 C4 1_555 1_555
O1 Co1 1_555 1_555
C1 C3 1_555 1_555
C2 N2 1_555 1_555
H1 C2 1_555 1_555
C3 N3 1_555 1_555
C4 C3 1_555 1_555
C5 N1 1_555 1_555
O9 Co2 1_555 1_555
O11 Co1 1_555 1_555
H5 N2 1_555 1_555
H7 N4 1_555 1_555
H8 O9 1_555 1_555
H12 O11 1_555 1_555
H13 O11 1_555 1_555
Co7 N3 1_555 1_555
O12 Co1 1_555 1_555
O13 Co1 1_555 1_555
O14 Co1 1_555 1_555
Co2 O11 1_555 1_555
N5 C5 1_555 1_555
O7 C15 1_555 1_555
O8 C15 1_555 1_555
C8 C7 1_555 1_555
C9 C8 1_555 1_555
C10 C9 1_555 1_555
C11 H4 1_555 1_555
C12 C7 1_555 1_555
C14 C9 1_555 1_555
C15 C14 1_555 1_555
Co5 O7 1_555 1_555
Co6 O8 1_555 1_555
C11 C12 1_555 1_555
C11 C14 1_555 1_555
O2 C6 1_555 1_555
O3 C10_2 1_555 1_555
O4_2 C10_2 1_555 1_555
Co5 O3 1_555 1_555
Co5 N1_2 1_555 1_555
Co6 O2_2 1_555 1_555
N1_2 C1_2 1_555 1_555
N2_2 C1_2 1_555 1_555
N5_2 C4_2 1_555 1_555
O1_2 Co5 1_555 1_555
O2_2 C6_2 1_555 1_555
O13 C13_2 1_555 1_555
O6_2 C13_2 1_555 1_555
O15 C15_2 1_555 1_555
C1_2 C3_2 1_555 1_555
C2_2 N2_2 1_555 1_555
H1_2 C2_2 1_555 1_555
C4_2 C3_2 1_555 1_555
C5_2 N1_2 1_555 1_555
H2_2 C5_2 1_555 1_555
C6_2 O1_2 1_555 1_555
C7_2 C6_2 1_555 1_555
C8_2 C7_2 1_555 1_555
H3_2 C8_2 1_555 1_555
C9_2 C8_2 1_555 1_555
C11_2 H4_2 1_555 1_555
C12_2 C7_2 1_555 1_555
C13_2 C12_2 1_555 1_555
C14_2 C9_2 1_555 1_555
C15_2 C14_2 1_555 1_555
O9_2 Co6 1_555 1_555
O10 Co6 1_555 1_555
O11_2 Co5 1_555 1_555
H5_2 N2_2 1_555 1_555
H8_2 O9_2 1_555 1_555
H9 O9_2 1_555 1_555
H10 O10 1_555 1_555
H11 O10 1_555 1_555
H12_2 O11_2 1_555 1_555
H13_2 O11_2 1_555 1_555
N6_2 Co6 1_555 1_555
Co6 O11_2 1_555 1_555
N5_2 C5_2 1_555 1_555
C11_2 C12_2 1_555 1_555
C11_2 C14_2 1_555 1_555
H6_2 N4_2 1_555 1_555
H7_2 N4_2 1_555 1_555
O2_3 C6_3 1_555 1_555
Co3 O3_2 1_555 1_555
O7_2 C15_3 1_555 1_555
O8_2 C15_3 1_555 1_555
C8_3 C7_3 1_555 1_555
C9_3 C8_3 1_555 1_555
C10_3 C9_3 1_555 1_555
C11_3 H4_3 1_555 1_555
C12_3 C7_3 1_555 1_555
C14_3 C9_3 1_555 1_555
C15_3 C14_3 1_555 1_555
Co4 O7_2 1_555 1_555
Co7 O8_2 1_555 1_555
C11_3 C12_3 1_555 1_555
C11_3 C14_3 1_555 1_555
Co3 N1_3 1_555 1_555
N1_3 C1_3 1_555 1_555
N2_3 C1_3 1_555 1_555
N6_2 C2_3 1_555 1_555
N4_3 C4_3 1_555 1_555
N5_3 C4_3 1_555 1_555
O1_3 Co3 1_555 1_555
C1_3 C3_3 1_555 1_555
C2_3 N2_3 1_555 1_555
H1_3 C2_3 1_555 1_555
C3_3 N6_2 1_555 1_555
C4_3 C3_3 1_555 1_555
C5_3 N1_3 1_555 1_555
O9_3 Co7_2 1_555 1_555
O11_3 Co3 1_555 1_555
H5_3 N2_3 1_555 1_555
H7_3 N4_3 1_555 1_555
H8_3 O9_3 1_555 1_555
H12_3 O11_3 1_555 1_555
H13_3 O11_3 1_555 1_555
O13_2 Co3 1_555 1_555
O14_2 Co3 1_555 1_555
Co7_2 O11_3 1_555 1_555
N5_3 C5_3 1_555 1_555
O5_2 C13_3 1_555 1_555
O6_3 C13_3 1_555 1_555
Co4 O5_2 1_555 1_555
H6_4 N4_4 1_555 1_555
H7_4 N4_4 1_555 1_555
Co4 N1_4 1_555 1_555
Co7 O2_4 1_555 1_555
N1_4 C1_4 1_555 1_555
N2_4 C1_4 1_555 1_555
N5_4 C4_4 1_555 1_555
O1_4 Co4 1_555 1_555
O2_4 C6_4 1_555 1_555
O13_2 C13_4 1_555 1_555
O6_4 C13_4 1_555 1_555
O15_2 C15_4 1_555 1_555
C1_4 C3_4 1_555 1_555
C2_4 N2_4 1_555 1_555
H1_4 C2_4 1_555 1_555
C4_4 C3_4 1_555 1_555
C5_4 N1_4 1_555 1_555
H2_4 C5_4 1_555 1_555
C6_4 O1_4 1_555 1_555
C7_4 C6_4 1_555 1_555
C8_4 C7_4 1_555 1_555
H3_4 C8_4 1_555 1_555
C9_4 C8_4 1_555 1_555
C11_4 H4_4 1_555 1_555
C12_4 C7_4 1_555 1_555
C13_4 C12_4 1_555 1_555
C14_4 C9_4 1_555 1_555
C15_4 C14_4 1_555 1_555
O9_4 Co7 1_555 1_555
O10_2 Co7 1_555 1_555
O11_4 Co4 1_555 1_555
H5_4 N2_4 1_555 1_555
H8_4 O9_4 1_555 1_555
H9_2 O9_4 1_555 1_555
H10_2 O10_2 1_555 1_555
H11_2 O10_2 1_555 1_555
H12_4 O11_4 1_555 1_555
H13_4 O11_4 1_555 1_555
O12_2 Co4 1_555 1_555
Co7 O11_4 1_555 1_555
N5_4 C5_4 1_555 1_555
C11_4 C12_4 1_555 1_555
C11_4 C14_4 1_555 1_555
O12_2 C10_4 1_555 1_555
O4_4 C10_4 1_555 1_555
H10_3 O10_3 1_555 1_555
H11_3 O10_3 1_555 1_555
H10_4 O10_4 1_555 1_555
H11_4 O10_4 1_555 1_555

#END
