
###############################################################################
#
# This file contains modified crystal structure data generated from the
# MOF subset of the Cambridge Structural Database (CSD) v543 
# hosted by the Cambridge Crystallographic Data Centre (CCDC).
#
# This work is licensed under the Creative Commons
# Attribution-NonCommercial-ShareAlike 4.0 International License.
# To view a copy of this license, visit
# http://creativecommons.org/licenses/by-nc-sa/4.0/
# or send a letter to
# Creative Commons, PO Box 1866, Mountain View, CA 94042, USA.
#
# CIF created using the CSD Python API on 29 September 2022
# The structure has been converted into the P1 space group
# The structure has a 3D framework
# The original CSD entry QUGHOS is in the triclinic crystal system
# The framework has been calculated to contain at least 10.0% void space
# The void calculation uses a probe of radius 1.32A, grid spacing 0.4
#
###############################################################################

data_QUGHOS
_chemical_formula_moiety         '(C46 H26 N4 O8 Zn2)n'
_symmetry_cell_setting           triclinic
_symmetry_space_group_name_H-M   'P 1'
_symmetry_Int_Tables_number      1
_space_group_name_Hall           'P 1'
loop_
_symmetry_equiv_pos_site_id
_symmetry_equiv_pos_as_xyz
1 x,y,z
_cell_length_a                   8.085(2)
_cell_length_b                   10.256(3)
_cell_length_c                   12.833(3)
_cell_angle_alpha                97.566(6)
_cell_angle_beta                 106.902(6)
_cell_angle_gamma                90.327(6)
_cell_volume                     1008.19
loop_
_atom_site_label
_atom_site_type_symbol
_atom_site_fract_x
_atom_site_fract_y
_atom_site_fract_z
Zn4 Zn 0.12118(12) 0.42139(9) 0.45005(7)
N1 N 0.2116(9) 0.3168(7) 0.3372(6)
N2 N 0.1795(11) 0.1734(9) 0.1888(6)
O1 O 0.2763(9) 0.4049(7) 0.6037(5)
O2 O 0.0958(9) 0.5244(8) 0.6722(5)
O3 O 0.2262(9) 0.6021(6) 0.4659(6)
O4 O 0.0446(9) 0.7201(6) 0.5361(6)
C1 C 0.2304(12) 0.4634(9) 0.6817(7)
C2 C 0.3489(12) 0.4623(9) 0.7971(7)
C3 C 0.3288(12) 0.5477(10) 0.8813(7)
H1 H 0.2430 0.6086 0.8678
C4 C 0.4368(12) 0.5461(10) 0.9904(7)
C5 C 0.5784(16) 0.3641(13) 0.9208(8)
H2 H 0.6592 0.2995 0.9336
C6 C 0.4771(15) 0.3696(11) 0.8159(8)
H3 H 0.4930 0.3123 0.7575
C7 C 0.1725(11) 0.7085(8) 0.5029(7)
C8 C 0.2803(11) 0.8312(8) 0.5090(7)
C9 C 0.4277(12) 0.8226(8) 0.4765(8)
H4 H 0.4616 0.7411 0.4508
C10 C 0.5281(11) 0.9388(8) 0.4825(7)
C12 C 0.2249(13) 0.9546(9) 0.5458(9)
H6 H 0.1237 0.9590 0.5664
C13 C 0.1094(13) 0.2235(9) 0.2674(8)
H7 H 0.0023 0.1959 0.2720
C14 C 0.3556(11) 0.3222(8) 0.3051(6)
H8 H 0.4519 0.3785 0.3402
C15 C 0.3396(14) 0.2343(11) 0.2147(9)
H9 H 0.4216 0.2181 0.1772
C17 C 0.0928(13) 0.0848(10) 0.0937(8)
H20 H 0.1149 0.3288 0.0428
C43 C 0.6812(13) 0.9333(9) 0.4489(9)
H25 H 0.7171 0.8525 0.4233
C11 C 0.3188(13) 0.0667(9) 0.5511(9)
H5 H 0.2829 0.1475 0.5767
O7 O 0.7738(9) 0.3979(6) 0.5341(6)
O8 O 0.9554(9) 0.2799(6) 0.4639(6)
C39 C 0.8275(11) 0.2915(8) 0.4971(7)
C40 C 0.7197(11) 0.1688(8) 0.4910(7)
C41 C 0.5723(12) 0.1774(8) 0.5235(8)
H24 H 0.5384 0.2589 0.5492
C42 C 0.4719(11) 0.0612(8) 0.5175(7)
C44 C 0.7751(13) 0.0454(9) 0.4542(9)
H26 H 0.8763 0.0410 0.4336
Zn7 Zn 0.87882(12) 0.57861(9) 0.54995(7)
O5 O 0.7237(9) 0.5951(7) 0.3963(5)
O6 O 0.9042(9) 0.4756(8) 0.3278(5)
C33 C 0.7696(12) 0.5366(9) 0.3183(7)
C34 C 0.6511(12) 0.5377(9) 0.2029(7)
C35 C 0.6712(12) 0.4523(10) 0.1187(7)
H21 H 0.7570 0.3914 0.1322
C36 C 0.5632(12) 0.4539(10) 0.0096(7)
C37 C 0.4216(16) 0.6359(13) 0.0792(8)
H22 H 0.3408 0.7005 0.0664
C38 C 0.5229(15) 0.6304(11) 0.1841(8)
H23 H 0.5070 0.6877 0.2425
H13 H 0.8851 0.6712 0.9572
N3 N 0.7884(9) 0.6832(7) 0.6628(6)
N4 N 0.8205(11) 0.8266(9) 0.8112(6)
C23 C 0.8906(13) 0.7765(9) 0.7326(8)
H14 H 0.9977 0.8041 0.7280
C24 C 0.6444(11) 0.6778(8) 0.6949(6)
H15 H 0.5481 0.6215 0.6598
C25 C 0.6604(14) 0.7657(11) 0.7853(9)
H16 H 0.5784 0.7819 0.8228
C27 C 0.9072(13) 0.9152(10) 0.9063(8)
C26 C 0.0323(14) 0.1341(11) 0.9916(8)
C31 C -0.0000(18) 0.3127(13) 0.8840(10)
H19 H 0.0236 0.4000 0.8786
C32 C 0.0576(17) 0.2699(12) 0.9810(9)
C18 C 0.0643(13) 0.9555(10) 0.1028(7)
C19 C 0.1286(16) 0.9007(12) 0.2043(8)
H10 H 0.1940 0.9547 0.2669
C20 C 0.0958(18) 0.7710(13) 0.2106(10)
H11 H 0.1367 0.7385 0.2773
C21 C 0.0000(18) 0.6873(13) 0.1160(10)
C28 C 0.9357(13) 0.0445(10) 0.8972(7)
C29 C 0.8714(16) 0.0993(12) 0.7957(8)
H17 H 0.8060 0.0453 0.7331
C30 C 0.9042(18) 0.2290(13) 0.7894(10)
H18 H 0.8633 0.2615 0.7227
C31_2 C 1.0000(18) 0.3127(13) 0.8840(10)
C16 C 0.9677(14) 0.8659(11) 0.0084(8)
C21_2 C 1.0000(18) 0.6873(13) 0.1160(10)
H12 H 0.9764 0.6000 0.1214
C22 C 0.9424(17) 0.7301(12) 0.0190(9)
loop_
_geom_bond_atom_site_label_1
_geom_bond_atom_site_label_2
_geom_bond_site_symmetry_1
_geom_bond_site_symmetry_2
Zn4 N1 1_555 1_555
N1 C13 1_555 1_555
N2 C13 1_555 1_555
O1 Zn4 1_555 1_555
O2 C1 1_555 1_555
O3 Zn4 1_555 1_555
O4 C7 1_555 1_555
C1 O1 1_555 1_555
C2 C1 1_555 1_555
C3 C2 1_555 1_555
H1 C3 1_555 1_555
C4 C3 1_555 1_555
C5 H2 1_555 1_555
C6 C2 1_555 1_555
H3 C6 1_555 1_555
C7 O3 1_555 1_555
C8 C7 1_555 1_555
C9 C8 1_555 1_555
H4 C9 1_555 1_555
C10 C9 1_555 1_555
C12 C8 1_555 1_555
H6 C12 1_555 1_555
C13 H7 1_555 1_555
C14 N1 1_555 1_555
H8 C14 1_555 1_555
C15 N2 1_555 1_555
H9 C15 1_555 1_555
C17 N2 1_555 1_555
C43 C10 1_555 1_555
H25 C43 1_555 1_555
C5 C6 1_555 1_555
C14 C15 1_555 1_555
C11 H5 1_555 1_555
O7 C39 1_555 1_555
O8 C39 1_555 1_555
C39 C40 1_555 1_555
C40 C41 1_555 1_555
C41 H24 1_555 1_555
C44 C40 1_555 1_555
H26 C44 1_555 1_555
Zn7 O7 1_555 1_555
C11 C42 1_555 1_555
C41 C42 1_555 1_555
O5 C33 1_555 1_555
O6 C33 1_555 1_555
C33 C34 1_555 1_555
C34 C35 1_555 1_555
C35 H21 1_555 1_555
H22 C37 1_555 1_555
C38 C34 1_555 1_555
H23 C38 1_555 1_555
Zn7 O5 1_555 1_555
C35 C36 1_555 1_555
C37 C38 1_555 1_555
N3 C23 1_555 1_555
N4 C23 1_555 1_555
C23 H14 1_555 1_555
C24 N3 1_555 1_555
H15 C24 1_555 1_555
C25 N4 1_555 1_555
H16 C25 1_555 1_555
Zn7 N3 1_555 1_555
N4 C27 1_555 1_555
C24 C25 1_555 1_555
H19 C31 1_555 1_555
C32 C26 1_555 1_555
C31 C32 1_555 1_555
C19 C18 1_555 1_555
H10 C19 1_555 1_555
C20 C19 1_555 1_555
H11 C20 1_555 1_555
C21 C20 1_555 1_555
C29 C28 1_555 1_555
H17 C29 1_555 1_555
C30 C29 1_555 1_555
H18 C30 1_555 1_555
C31_2 C30 1_555 1_555
H12 C21_2 1_555 1_555
C22 C16 1_555 1_555
C21_2 C22 1_555 1_555

#END
