
###############################################################################
#
# This file contains modified crystal structure data generated from the
# MOF subset of the Cambridge Structural Database (CSD) v543 
# hosted by the Cambridge Crystallographic Data Centre (CCDC).
#
# This work is licensed under the Creative Commons
# Attribution-NonCommercial-ShareAlike 4.0 International License.
# To view a copy of this license, visit
# http://creativecommons.org/licenses/by-nc-sa/4.0/
# or send a letter to
# Creative Commons, PO Box 1866, Mountain View, CA 94042, USA.
#
# CIF created using the CSD Python API on 29 September 2022
# The structure has been converted into the P1 space group
# The structure has a 3D framework
# The original CSD entry QUGNOV is in the monoclinic crystal system
# The framework has been calculated to contain at least 10.0% void space
# The void calculation uses a probe of radius 1.32A, grid spacing 0.4
#
###############################################################################

data_QUGNOV
_chemical_formula_moiety         '(C48 H32 Cd2 N8 O24)n'
_symmetry_cell_setting           triclinic
_symmetry_space_group_name_H-M   'P 1'
_symmetry_Int_Tables_number      1
_space_group_name_Hall           'P 1'
loop_
_symmetry_equiv_pos_site_id
_symmetry_equiv_pos_as_xyz
1 x,y,z
_cell_length_a                   14.415(3)
_cell_length_b                   14.313(3)
_cell_length_c                   6.7210(13)
_cell_angle_alpha                90.00
_cell_angle_beta                 94.33(3)
_cell_angle_gamma                90.00
_cell_volume                     1382.73
loop_
_atom_site_label
_atom_site_type_symbol
_atom_site_fract_x
_atom_site_fract_y
_atom_site_fract_z
Cd5 Cd -0.0000 0.428253(18) 0.7500
Cd3 Cd 0.0000 0.571747(18) 0.2500
Cd1 Cd 0.5000 0.071747(18) 0.2500
H2 H 0.7270 0.0111 0.2133
O4 O 0.9471(2) 0.2261(3) 0.9410(6)
O5 O 0.5696(2) 0.0458(2) 0.5766(4)
O6 O 0.87366(19) 0.34517(18) 0.7862(4)
N2 N 0.6427(3) 0.0970(3) 0.6530(6)
C7 C 0.7944(3) 0.2034(3) 0.7870(6)
C8 C 0.6324(3) 0.1901(3) 0.6606(6)
H5 H 0.5752 0.2181 0.6254
C9 C 0.7234(4) 0.0537(3) 0.7167(8)
C10 C 0.8799(3) 0.2604(3) 0.8463(6)
C11 C 0.7091(3) 0.2427(3) 0.7221(7)
H7 H 0.7037 0.3074 0.7202
C12 C 0.8006(3) 0.1055(4) 0.7870(8)
H8 H 0.8555 0.0758 0.8333
O9 O 0.37366(19) 0.15483(18) 0.2862(4)
O10 O 0.62634(19) 0.15483(18) 0.2138(4)
Cd5_2 Cd 1.0000 0.428253(18) 0.7500
O7 O 0.4304(2) 0.0458(2) 0.9234(4)
O1 O 0.9471(2) 0.7739(3) 0.4410(6)
O2 O 0.5696(2) 0.9542(2) 0.0766(4)
O3 O 0.87366(19) 0.65483(18) 0.2862(4)
N1 N 0.6427(3) 0.9030(3) 0.1530(6)
C1 C 0.7944(3) 0.7966(3) 0.2870(6)
C2 C 0.6324(3) 0.8099(3) 0.1606(6)
H1 H 0.5752 0.7819 0.1254
C3 C 0.7234(4) 0.9463(3) 0.2167(8)
C4 C 0.8799(3) 0.7396(3) 0.3463(6)
C5 C 0.7091(3) 0.7573(3) 0.2221(7)
H3 H 0.7037 0.6926 0.2202
C6 C 0.8006(3) 0.8945(4) 0.2870(8)
H4 H 0.8555 0.9242 0.3333
H6 H 0.7270 0.9889 0.7133
O8 O 0.4304(2) 0.9542(2) 0.4234(4)
Cd3_2 Cd 1.0000 0.571747(18) 0.2500
Cd4 Cd 0.5000 0.928253(18) 0.7500
O1_2 O 0.4471(2) 0.2739(3) 0.4410(6)
O2_2 O 0.0696(2) 0.4542(2) 0.0766(4)
N1_2 N 0.1427(3) 0.4030(3) 0.1530(6)
C1_2 C 0.2944(3) 0.2966(3) 0.2870(6)
C2_2 C 0.1324(3) 0.3099(3) 0.1606(6)
H1_2 H 0.0752 0.2819 0.1254
C3_2 C 0.2234(4) 0.4463(3) 0.2167(8)
H2_2 H 0.2270 0.5111 0.2133
C4_2 C 0.3799(3) 0.2396(3) 0.3463(6)
C5_2 C 0.2091(3) 0.2573(3) 0.2221(7)
H3_2 H 0.2037 0.1926 0.2202
C6_2 C 0.3006(3) 0.3945(4) 0.2870(8)
H4_2 H 0.3555 0.4242 0.3333
O4_2 O 0.4471(2) 0.7261(3) 0.9410(6)
O5_2 O 0.0696(2) 0.5458(2) 0.5766(4)
O6_2 O 0.37366(19) 0.84517(18) 0.7862(4)
N2_2 N 0.1427(3) 0.5970(3) 0.6530(6)
C7_2 C 0.2944(3) 0.7034(3) 0.7870(6)
C8_2 C 0.1324(3) 0.6901(3) 0.6606(6)
H5_2 H 0.0752 0.7181 0.6254
C9_2 C 0.2234(4) 0.5537(3) 0.7167(8)
H6_2 H 0.2270 0.4889 0.7133
C10_2 C 0.3799(3) 0.7604(3) 0.8463(6)
C11_2 C 0.2091(3) 0.7427(3) 0.7221(7)
H7_2 H 0.2037 0.8074 0.7202
C12_2 C 0.3006(3) 0.6055(4) 0.7870(8)
H8_2 H 0.3555 0.5758 0.8333
O10_2 O 0.12634(19) 0.65483(18) 0.2138(4)
O8_2 O 0.9304(2) 0.4542(2) 0.4234(4)
O7_2 O 0.9304(2) 0.5458(2) 0.9234(4)
O10_3 O 0.62634(19) 0.84517(18) 0.7138(4)
O10_4 O 0.12634(19) 0.34517(18) 0.7138(4)
O1_3 O 0.0529(2) 0.2261(3) 0.5590(6)
N1_3 N 0.3573(3) 0.0970(3) 0.8470(6)
C1_3 C 0.2056(3) 0.2034(3) 0.7130(6)
C2_3 C 0.3676(3) 0.1901(3) 0.8394(6)
H1_3 H 0.4248 0.2181 0.8746
C3_3 C 0.2766(4) 0.0537(3) 0.7833(8)
C4_3 C 0.1201(3) 0.2604(3) 0.6537(6)
C5_3 C 0.2909(3) 0.2427(3) 0.7779(7)
H3_3 H 0.2963 0.3074 0.7798
C6_3 C 0.1994(3) 0.1055(4) 0.7130(8)
H4_3 H 0.1445 0.0758 0.6667
H6_3 H 0.2730 0.0111 0.2867
H2_3 H 0.2730 0.9889 0.7867
O4_3 O 0.0529(2) 0.7739(3) 0.0590(6)
N2_3 N 0.3573(3) 0.9030(3) 0.3470(6)
C7_3 C 0.2056(3) 0.7966(3) 0.2130(6)
C8_3 C 0.3676(3) 0.8099(3) 0.3394(6)
H5_3 H 0.4248 0.7819 0.3746
C9_3 C 0.2766(4) 0.9463(3) 0.2833(8)
C10_3 C 0.1201(3) 0.7396(3) 0.1537(6)
C11_3 C 0.2909(3) 0.7573(3) 0.2779(7)
H7_3 H 0.2963 0.6926 0.2798
C12_3 C 0.1994(3) 0.8945(4) 0.2130(8)
H8_3 H 0.1445 0.9242 0.1667
O1_4 O 0.5529(2) 0.7261(3) 0.5590(6)
N1_4 N 0.8573(3) 0.5970(3) 0.8470(6)
C1_4 C 0.7056(3) 0.7034(3) 0.7130(6)
C2_4 C 0.8676(3) 0.6901(3) 0.8394(6)
H1_4 H 0.9248 0.7181 0.8746
C3_4 C 0.7766(4) 0.5537(3) 0.7833(8)
H2_4 H 0.7730 0.4889 0.7867
C4_4 C 0.6201(3) 0.7604(3) 0.6537(6)
C5_4 C 0.7909(3) 0.7427(3) 0.7779(7)
H3_4 H 0.7963 0.8074 0.7798
C6_4 C 0.6994(3) 0.6055(4) 0.7130(8)
H4_4 H 0.6445 0.5758 0.6667
O4_4 O 0.5529(2) 0.2739(3) 0.0590(6)
N2_4 N 0.8573(3) 0.4030(3) 0.3470(6)
C7_4 C 0.7056(3) 0.2966(3) 0.2130(6)
C8_4 C 0.8676(3) 0.3099(3) 0.3394(6)
H5_4 H 0.9248 0.2819 0.3746
C9_4 C 0.7766(4) 0.4463(3) 0.2833(8)
H6_4 H 0.7730 0.5111 0.2867
C10_4 C 0.6201(3) 0.2396(3) 0.1537(6)
C11_4 C 0.7909(3) 0.2573(3) 0.2779(7)
H7_4 H 0.7963 0.1926 0.2798
C12_4 C 0.6994(3) 0.3945(4) 0.2130(8)
H8_4 H 0.6445 0.4242 0.1667
loop_
_geom_bond_atom_site_label_1
_geom_bond_atom_site_label_2
_geom_bond_site_symmetry_1
_geom_bond_site_symmetry_2
O4 C10 1_555 1_555
O5 Cd1 1_555 1_555
O6 C10 1_555 1_555
N2 O5 1_555 1_555
C7 C10 1_555 1_555
C8 N2 1_555 1_555
H5 C8 1_555 1_555
C9 N2 1_555 1_555
C11 C7 1_555 1_555
H7 C11 1_555 1_555
C12 C7 1_555 1_555
H8 C12 1_555 1_555
O9 Cd1 1_555 1_555
O10 Cd1 1_555 1_555
Cd5_2 O6 1_555 1_555
C8 C11 1_555 1_555
C9 C12 1_555 1_555
O1 C4 1_555 1_555
O2 N1 1_555 1_555
O3 C4 1_555 1_555
N1 C2 1_555 1_555
C1 C4 1_555 1_555
C2 H1 1_555 1_555
C3 N1 1_555 1_555
C5 C1 1_555 1_555
H3 C5 1_555 1_555
C6 C1 1_555 1_555
H4 C6 1_555 1_555
Cd3_2 O3 1_555 1_555
C2 C5 1_555 1_555
C3 C6 1_555 1_555
O8 Cd4 1_555 1_555
Cd3 O2_2 1_555 1_555
O1_2 C4_2 1_555 1_555
O2_2 N1_2 1_555 1_555
O9 C4_2 1_555 1_555
N1_2 C2_2 1_555 1_555
C1_2 C4_2 1_555 1_555
C2_2 H1_2 1_555 1_555
C3_2 N1_2 1_555 1_555
H2_2 C3_2 1_555 1_555
C5_2 C1_2 1_555 1_555
H3_2 C5_2 1_555 1_555
C6_2 C1_2 1_555 1_555
H4_2 C6_2 1_555 1_555
O4_2 C10_2 1_555 1_555
O5_2 Cd3 1_555 1_555
O6_2 C10_2 1_555 1_555
N2_2 O5_2 1_555 1_555
C7_2 C10_2 1_555 1_555
C8_2 N2_2 1_555 1_555
H5_2 C8_2 1_555 1_555
C9_2 N2_2 1_555 1_555
H6_2 C9_2 1_555 1_555
C11_2 C7_2 1_555 1_555
H7_2 C11_2 1_555 1_555
C12_2 C7_2 1_555 1_555
H8_2 C12_2 1_555 1_555
O10_2 Cd3 1_555 1_555
Cd5 O5_2 1_555 1_555
Cd4 O6_2 1_555 1_555
C2_2 C5_2 1_555 1_555
C3_2 C6_2 1_555 1_555
C8_2 C11_2 1_555 1_555
C9_2 C12_2 1_555 1_555
O8_2 Cd3_2 1_555 1_555
O8_2 Cd5_2 1_555 1_555
O7_2 Cd5_2 1_555 1_555
O10_3 Cd4 1_555 1_555
O10_4 Cd5 1_555 1_555
O1_3 C4_3 1_555 1_555
O7 N1_3 1_555 1_555
O10_4 C4_3 1_555 1_555
N1_3 C2_3 1_555 1_555
C1_3 C4_3 1_555 1_555
C2_3 H1_3 1_555 1_555
C3_3 N1_3 1_555 1_555
C5_3 C1_3 1_555 1_555
H3_3 C5_3 1_555 1_555
C6_3 C1_3 1_555 1_555
H4_3 C6_3 1_555 1_555
C2_3 C5_3 1_555 1_555
C3_3 C6_3 1_555 1_555
O4_3 C10_3 1_555 1_555
O10_2 C10_3 1_555 1_555
N2_3 O8 1_555 1_555
C7_3 C10_3 1_555 1_555
C8_3 N2_3 1_555 1_555
H5_3 C8_3 1_555 1_555
C9_3 N2_3 1_555 1_555
C11_3 C7_3 1_555 1_555
H7_3 C11_3 1_555 1_555
C12_3 C7_3 1_555 1_555
H8_3 C12_3 1_555 1_555
C8_3 C11_3 1_555 1_555
C9_3 C12_3 1_555 1_555
O1_4 C4_4 1_555 1_555
O7_2 N1_4 1_555 1_555
O10_3 C4_4 1_555 1_555
N1_4 C2_4 1_555 1_555
C1_4 C4_4 1_555 1_555
C2_4 H1_4 1_555 1_555
C3_4 N1_4 1_555 1_555
H2_4 C3_4 1_555 1_555
C5_4 C1_4 1_555 1_555
H3_4 C5_4 1_555 1_555
C6_4 C1_4 1_555 1_555
H4_4 C6_4 1_555 1_555
O4_4 C10_4 1_555 1_555
O10 C10_4 1_555 1_555
N2_4 O8_2 1_555 1_555
C7_4 C10_4 1_555 1_555
C8_4 N2_4 1_555 1_555
H5_4 C8_4 1_555 1_555
C9_4 N2_4 1_555 1_555
H6_4 C9_4 1_555 1_555
C11_4 C7_4 1_555 1_555
H7_4 C11_4 1_555 1_555
C12_4 C7_4 1_555 1_555
H8_4 C12_4 1_555 1_555
C2_4 C5_4 1_555 1_555
C3_4 C6_4 1_555 1_555
C8_4 C11_4 1_555 1_555
C9_4 C12_4 1_555 1_555

#END
