
###############################################################################
#
# This file contains modified crystal structure data generated from the
# MOF subset of the Cambridge Structural Database (CSD) v543 
# hosted by the Cambridge Crystallographic Data Centre (CCDC).
#
# This work is licensed under the Creative Commons
# Attribution-NonCommercial-ShareAlike 4.0 International License.
# To view a copy of this license, visit
# http://creativecommons.org/licenses/by-nc-sa/4.0/
# or send a letter to
# Creative Commons, PO Box 1866, Mountain View, CA 94042, USA.
#
# CIF created using the CSD Python API on 29 September 2022
# The structure has been converted into the P1 space group
# The structure has a 3D framework
# The original CSD entry QUJRUK is in the orthorhombic crystal system
# The framework has been calculated to contain at least 10.0% void space
# The void calculation uses a probe of radius 1.32A, grid spacing 0.4
#
###############################################################################

data_QUJRUK
_chemical_formula_moiety         '(C72 H40 Cu8 N40 O32)n'
_symmetry_cell_setting           triclinic
_symmetry_space_group_name_H-M   'P 1'
_symmetry_Int_Tables_number      1
_space_group_name_Hall           'P 1'
loop_
_symmetry_equiv_pos_site_id
_symmetry_equiv_pos_as_xyz
1 x,y,z
_cell_length_a                   12.1905(11)
_cell_length_b                   14.4177(13)
_cell_length_c                   20.4894(19)
_cell_angle_alpha                90
_cell_angle_beta                 90
_cell_angle_gamma                90
_cell_volume                     3601.2
loop_
_atom_site_label
_atom_site_type_symbol
_atom_site_fract_x
_atom_site_fract_y
_atom_site_fract_z
C1 C 0.1411(5) 0.3672(4) 0.4462(3)
C2 C 0.2430(5) 0.3752(4) 0.5559(3)
C3 C 0.1758(5) 0.4420(5) 0.5885(3)
H1 H 0.1298 0.4818 0.5655
C4 C 0.1825(5) 0.4448(4) 0.6561(3)
C5 C 0.2511(4) 0.3823(4) 0.6896(3)
H2 H 0.2529 0.3829 0.7349
C6 C 0.3149(5) 0.3210(4) 0.6562(3)
C7 C 0.3113(5) 0.3203(5) 0.5882(3)
H3 H 0.3575 0.2807 0.5652
C8 C 0.3864(5) 0.2553(4) 0.6932(3)
C9 C 0.1124(5) 0.5133(4) 0.6932(3)
Cu1 Cu 0.07196(6) 0.63494(5) 0.79985(4)
N1 N 0.1767(4) 0.3649(3) 0.3860(2)
N2 N 0.2898(5) 0.3675(4) 0.3872(3)
N3 N 0.3254(5) 0.3703(4) 0.4463(3)
N4 N 0.2315(5) 0.3706(3) 0.4861(2)
N5 N 0.0362(5) 0.3666(4) 0.4690(3)
H5 H 0.0240 0.3684 0.5104
O1 O 0.4696(3) 0.2246(3) 0.66187(19)
O2 O 0.3557(3) 0.2331(3) 0.74834(19)
O3 O 0.1460(3) 0.5386(3) 0.74760(19)
O4 O 0.0258(3) 0.5390(3) 0.66489(19)
Cu3 Cu 0.57196(6) 0.13494(5) 0.70015(4)
Cu4 Cu 0.42804(6) 0.13494(5) 0.79985(4)
Cu5 Cu 0.07196(6) 0.36506(5) 0.29985(4)
N6 N 0.1767(4) 0.6351(3) 0.8860(2)
O6 O 0.1443(3) 0.7331(3) 0.74834(19)
H4 H 0.9821 0.3643 0.4421
Cu2 Cu 0.92804(6) 0.63494(5) 0.70015(4)
O5 O 0.9696(3) 0.7246(3) 0.83813(19)
O7 O 0.9742(3) 0.5390(3) 0.83511(19)
C2_2 C 0.2570(5) 0.1248(4) 0.0559(3)
C3_2 C 0.3242(5) 0.0580(5) 0.0885(3)
H1_2 H 0.3702 0.0182 0.0655
C4_2 C 0.3175(5) 0.0552(4) 0.1561(3)
C5_2 C 0.2489(4) 0.1177(4) 0.1896(3)
H2_2 H 0.2471 0.1171 0.2349
C6_2 C 0.1851(5) 0.1790(4) 0.1562(3)
C7_2 C 0.1887(5) 0.1797(5) 0.0882(3)
H3_2 H 0.1425 0.2193 0.0652
C8_2 C 0.1136(5) 0.2447(4) 0.1932(3)
H5_2 H 0.4760 0.1316 0.0104
O1_2 O 0.0304(3) 0.2754(3) 0.16187(19)
O2_2 O 0.1443(3) 0.2669(3) 0.24834(19)
C1_2 C 0.3589(5) 0.1328(4) 0.9462(3)
N1_2 N 0.3233(4) 0.1351(3) 0.8860(2)
N2_2 N 0.2102(5) 0.1325(4) 0.8872(3)
N3_2 N 0.1746(5) 0.1297(4) 0.9463(3)
N4_2 N 0.2685(5) 0.1294(3) 0.9861(2)
N5_2 N 0.4638(5) 0.1334(4) 0.9690(3)
H4_2 H 0.5179 0.1357 0.9421
C9_2 C 0.3876(5) 0.9867(4) 0.1932(3)
Cu1_2 Cu 0.42804(6) 0.86506(5) 0.29985(4)
O3_2 O 0.3540(3) 0.9614(3) 0.24760(19)
O4_2 O 0.4742(3) 0.9610(3) 0.16489(19)
Cu2_2 Cu 0.57196(6) 0.86506(5) 0.20015(4)
N6_2 N 0.3233(4) 0.8649(3) 0.3860(2)
O5_2 O 0.5304(3) 0.7754(3) 0.33813(19)
O6_2 O 0.3557(3) 0.7669(3) 0.24834(19)
O7_2 O 0.5258(3) 0.9610(3) 0.33511(19)
Cu3_2 Cu 0.92804(6) 0.36506(5) 0.20015(4)
C1_3 C 0.6411(5) 0.1328(4) 0.5538(3)
C2_3 C 0.7430(5) 0.1248(4) 0.4441(3)
C3_3 C 0.6758(5) 0.0580(5) 0.4115(3)
H1_3 H 0.6298 0.0182 0.4345
C4_3 C 0.6825(5) 0.0552(4) 0.3439(3)
C5_3 C 0.7511(4) 0.1177(4) 0.3104(3)
H2_3 H 0.7529 0.1171 0.2651
C6_3 C 0.8149(5) 0.1790(4) 0.3438(3)
C7_3 C 0.8113(5) 0.1797(5) 0.4118(3)
H3_3 H 0.8575 0.2193 0.4348
C8_3 C 0.8864(5) 0.2447(4) 0.3068(3)
N1_3 N 0.6767(4) 0.1351(3) 0.6140(2)
N2_3 N 0.7898(5) 0.1325(4) 0.6128(3)
N3_3 N 0.8254(5) 0.1297(4) 0.5537(3)
N4_3 N 0.7315(5) 0.1294(3) 0.5139(2)
N5_3 N 0.5362(5) 0.1334(4) 0.5310(3)
H4_3 H 0.4821 0.1357 0.5579
H5_3 H 0.5240 0.1316 0.4896
O1_3 O 0.9696(3) 0.2754(3) 0.33813(19)
O2_3 O 0.8557(3) 0.2669(3) 0.25166(19)
C9_3 C 0.6124(5) 0.9867(4) 0.3068(3)
O3_3 O 0.6460(3) 0.9614(3) 0.25240(19)
N6_3 N 0.6767(4) 0.8649(3) 0.1140(2)
O5_3 O 0.4696(3) 0.7754(3) 0.16187(19)
O6_3 O 0.6443(3) 0.7669(3) 0.25166(19)
O5_4 O 0.0304(3) 0.7246(3) 0.66187(19)
C1_4 C 0.8589(5) 0.3672(4) 0.0538(3)
N1_4 N 0.8233(4) 0.3649(3) 0.1140(2)
N2_4 N 0.7102(5) 0.3675(4) 0.1128(3)
N3_4 N 0.6746(5) 0.3703(4) 0.0537(3)
N4_4 N 0.7685(5) 0.3706(3) 0.0139(2)
N5_4 N 0.9638(5) 0.3666(4) 0.0310(3)
C2_4 C 0.7570(5) 0.3752(4) 0.9441(3)
C3_4 C 0.8242(5) 0.4420(5) 0.9115(3)
H1_4 H 0.8702 0.4818 0.9345
C4_4 C 0.8175(5) 0.4448(4) 0.8439(3)
C5_4 C 0.7489(4) 0.3823(4) 0.8104(3)
H2_4 H 0.7471 0.3829 0.7651
C6_4 C 0.6851(5) 0.3210(4) 0.8438(3)
C7_4 C 0.6887(5) 0.3203(5) 0.9118(3)
H3_4 H 0.6425 0.2807 0.9348
C8_4 C 0.6136(5) 0.2553(4) 0.8068(3)
C9_4 C 0.8876(5) 0.5133(4) 0.8068(3)
H5_4 H 0.9760 0.3684 0.9896
O1_4 O 0.5304(3) 0.2246(3) 0.83813(19)
O2_4 O 0.6443(3) 0.2331(3) 0.75166(19)
O3_4 O 0.8540(3) 0.5386(3) 0.75240(19)
N6_4 N 0.8233(4) 0.6351(3) 0.6140(2)
O6_4 O 0.8557(3) 0.7331(3) 0.75166(19)
H4_4 H 0.0179 0.6357 0.5579
O7_3 O 0.0258(3) 0.4610(3) 0.16489(19)
C1_5 C 0.8589(5) 0.6328(4) 0.5538(3)
C2_5 C 0.7570(5) 0.6248(4) 0.4441(3)
C3_5 C 0.8242(5) 0.5580(5) 0.4115(3)
H1_5 H 0.8702 0.5182 0.4345
C4_5 C 0.8175(5) 0.5552(4) 0.3439(3)
C5_5 C 0.7489(4) 0.6177(4) 0.3104(3)
H2_5 H 0.7471 0.6171 0.2651
C6_5 C 0.6851(5) 0.6790(4) 0.3438(3)
C7_5 C 0.6887(5) 0.6797(5) 0.4118(3)
H3_5 H 0.6425 0.7193 0.4348
C8_5 C 0.6136(5) 0.7447(4) 0.3068(3)
C9_5 C 0.8876(5) 0.4867(4) 0.3068(3)
N2_5 N 0.7102(5) 0.6325(4) 0.6128(3)
N3_5 N 0.6746(5) 0.6297(4) 0.5537(3)
N4_5 N 0.7685(5) 0.6294(3) 0.5139(2)
N5_5 N 0.9638(5) 0.6334(4) 0.5310(3)
H5_5 H 0.9760 0.6316 0.4896
O3_5 O 0.8540(3) 0.4614(3) 0.25240(19)
O4_3 O 0.9742(3) 0.4610(3) 0.33511(19)
C9_6 C 0.6124(5) 0.0133(4) 0.8068(3)
O3_6 O 0.6460(3) 0.0386(3) 0.75240(19)
O4_4 O 0.5258(3) 0.0390(3) 0.83511(19)
O7_4 O 0.4742(3) 0.0390(3) 0.66489(19)
C1_6 C 0.6411(5) 0.8672(4) 0.0538(3)
N2_6 N 0.7898(5) 0.8675(4) 0.1128(3)
N3_6 N 0.8254(5) 0.8703(4) 0.0537(3)
N4_6 N 0.7315(5) 0.8706(3) 0.0139(2)
N5_6 N 0.5362(5) 0.8666(4) 0.0310(3)
H4_5 H 0.4821 0.8643 0.0579
C2_6 C 0.7430(5) 0.8752(4) 0.9441(3)
C3_6 C 0.6758(5) 0.9420(5) 0.9115(3)
H1_6 H 0.6298 0.9818 0.9345
C4_6 C 0.6825(5) 0.9448(4) 0.8439(3)
C5_6 C 0.7511(4) 0.8823(4) 0.8104(3)
H2_6 H 0.7529 0.8829 0.7651
C6_6 C 0.8149(5) 0.8210(4) 0.8438(3)
C7_6 C 0.8113(5) 0.8203(5) 0.9118(3)
H3_6 H 0.8575 0.7807 0.9348
C8_6 C 0.8864(5) 0.7553(4) 0.8068(3)
H5_6 H 0.5240 0.8684 0.9896
C9_7 C 0.3876(5) 0.0133(4) 0.6932(3)
O3_7 O 0.3540(3) 0.0386(3) 0.74760(19)
C1_7 C 0.3589(5) 0.8672(4) 0.4462(3)
C2_7 C 0.2570(5) 0.8752(4) 0.5559(3)
C3_7 C 0.3242(5) 0.9420(5) 0.5885(3)
H1_7 H 0.3702 0.9818 0.5655
C4_7 C 0.3175(5) 0.9448(4) 0.6561(3)
C5_7 C 0.2489(4) 0.8823(4) 0.6896(3)
H2_7 H 0.2471 0.8829 0.7349
C6_7 C 0.1851(5) 0.8210(4) 0.6562(3)
C7_7 C 0.1887(5) 0.8203(5) 0.5882(3)
H3_7 H 0.1425 0.7807 0.5652
C8_7 C 0.1136(5) 0.7553(4) 0.6932(3)
N2_7 N 0.2102(5) 0.8675(4) 0.3872(3)
N3_7 N 0.1746(5) 0.8703(4) 0.4463(3)
N4_7 N 0.2685(5) 0.8706(3) 0.4861(2)
N5_7 N 0.4638(5) 0.8666(4) 0.4690(3)
H4_6 H 0.5179 0.8643 0.4421
H5_7 H 0.4760 0.8684 0.5104
C2_8 C 0.2430(5) 0.6248(4) 0.0559(3)
C3_8 C 0.1758(5) 0.5580(5) 0.0885(3)
H1_8 H 0.1298 0.5182 0.0655
C4_8 C 0.1825(5) 0.5552(4) 0.1561(3)
C5_8 C 0.2511(4) 0.6177(4) 0.1896(3)
H2_8 H 0.2529 0.6171 0.2349
C6_8 C 0.3149(5) 0.6790(4) 0.1562(3)
C7_8 C 0.3113(5) 0.6797(5) 0.0882(3)
H3_8 H 0.3575 0.7193 0.0652
C8_8 C 0.3864(5) 0.7447(4) 0.1932(3)
C9_8 C 0.1124(5) 0.4867(4) 0.1932(3)
H5_8 H 0.0240 0.6316 0.0104
O3_8 O 0.1460(3) 0.4614(3) 0.24760(19)
C1_8 C 0.1411(5) 0.6328(4) 0.9462(3)
N2_8 N 0.2898(5) 0.6325(4) 0.8872(3)
N3_8 N 0.3254(5) 0.6297(4) 0.9463(3)
N4_8 N 0.2315(5) 0.6294(3) 0.9861(2)
N5_8 N 0.0362(5) 0.6334(4) 0.9690(3)
H4_7 H 0.0179 0.3643 0.0579
H4_8 H 0.9821 0.6357 0.9421
loop_
_geom_bond_atom_site_label_1
_geom_bond_atom_site_label_2
_geom_bond_site_symmetry_1
_geom_bond_site_symmetry_2
C1 N1 1_555 1_555
C2 C3 1_555 1_555
C3 H1 1_555 1_555
C4 C3 1_555 1_555
C5 C4 1_555 1_555
H2 C5 1_555 1_555
C6 C5 1_555 1_555
C7 C2 1_555 1_555
H3 C7 1_555 1_555
C8 C6 1_555 1_555
C9 C4 1_555 1_555
Cu1 O3 1_555 1_555
N1 N2 1_555 1_555
N2 N3 1_555 1_555
N3 N4 1_555 1_555
N4 C1 1_555 1_555
N5 C1 1_555 1_555
H5 N5 1_555 1_555
O1 C8 1_555 1_555
O2 C8 1_555 1_555
O3 C9 1_555 1_555
O4 C9 1_555 1_555
Cu3 O1 1_555 1_555
Cu4 O2 1_555 1_555
Cu5 N1 1_555 1_555
N6 Cu1 1_555 1_555
O6 Cu1 1_555 1_555
C2 N4 1_555 1_555
C6 C7 1_555 1_555
Cu3 Cu4 1_555 1_555
C2_2 C3_2 1_555 1_555
C3_2 H1_2 1_555 1_555
C4_2 C3_2 1_555 1_555
C5_2 C4_2 1_555 1_555
H2_2 C5_2 1_555 1_555
C6_2 C5_2 1_555 1_555
C7_2 C2_2 1_555 1_555
H3_2 C7_2 1_555 1_555
C8_2 C6_2 1_555 1_555
O1_2 C8_2 1_555 1_555
O2_2 C8_2 1_555 1_555
Cu5 O2_2 1_555 1_555
C6_2 C7_2 1_555 1_555
C1_2 N1_2 1_555 1_555
N1_2 N2_2 1_555 1_555
N2_2 N3_2 1_555 1_555
N3_2 N4_2 1_555 1_555
N4_2 C1_2 1_555 1_555
N5_2 C1_2 1_555 1_555
H4_2 N5_2 1_555 1_555
Cu4 N1_2 1_555 1_555
Cu1_2 O3_2 1_555 1_555
O3_2 C9_2 1_555 1_555
O4_2 C9_2 1_555 1_555
Cu2_2 Cu1_2 1_555 1_555
N6_2 Cu1_2 1_555 1_555
O5_2 Cu1_2 1_555 1_555
O6_2 Cu1_2 1_555 1_555
O7_2 Cu1_2 1_555 1_555
O4_2 Cu2_2 1_555 1_555
C1_3 N1_3 1_555 1_555
C2_3 C3_3 1_555 1_555
C3_3 H1_3 1_555 1_555
C4_3 C3_3 1_555 1_555
C5_3 C4_3 1_555 1_555
H2_3 C5_3 1_555 1_555
C6_3 C5_3 1_555 1_555
C7_3 C2_3 1_555 1_555
H3_3 C7_3 1_555 1_555
C8_3 C6_3 1_555 1_555
N1_3 N2_3 1_555 1_555
N2_3 N3_3 1_555 1_555
N3_3 N4_3 1_555 1_555
N4_3 C1_3 1_555 1_555
N5_3 C1_3 1_555 1_555
H4_3 N5_3 1_555 1_555
H5_3 N5_3 1_555 1_555
O1_3 C8_3 1_555 1_555
O2_3 C8_3 1_555 1_555
Cu3_2 O2_3 1_555 1_555
Cu3 N1_3 1_555 1_555
C2_3 N4_3 1_555 1_555
C6_3 C7_3 1_555 1_555
Cu2_2 O3_3 1_555 1_555
O3_3 C9_3 1_555 1_555
O7_2 C9_3 1_555 1_555
N6_3 Cu2_2 1_555 1_555
O5_3 Cu2_2 1_555 1_555
O6_3 Cu2_2 1_555 1_555
C1_4 N1_4 1_555 1_555
N1_4 N2_4 1_555 1_555
N2_4 N3_4 1_555 1_555
N3_4 N4_4 1_555 1_555
N4_4 C1_4 1_555 1_555
N5_4 C1_4 1_555 1_555
Cu3_2 N1_4 1_555 1_555
C2_4 C3_4 1_555 1_555
C3_4 H1_4 1_555 1_555
C4_4 C3_4 1_555 1_555
C5_4 C4_4 1_555 1_555
H2_4 C5_4 1_555 1_555
C6_4 C5_4 1_555 1_555
C7_4 C2_4 1_555 1_555
H3_4 C7_4 1_555 1_555
C8_4 C6_4 1_555 1_555
C9_4 C4_4 1_555 1_555
Cu2 O3_4 1_555 1_555
O1_4 C8_4 1_555 1_555
O2_4 C8_4 1_555 1_555
O3_4 C9_4 1_555 1_555
O7 C9_4 1_555 1_555
Cu4 O1_4 1_555 1_555
Cu3 O2_4 1_555 1_555
N6_4 Cu2 1_555 1_555
O6_4 Cu2 1_555 1_555
C6_4 C7_4 1_555 1_555
C1_5 N6_4 1_555 1_555
C2_5 C3_5 1_555 1_555
C3_5 H1_5 1_555 1_555
C4_5 C3_5 1_555 1_555
C5_5 C4_5 1_555 1_555
H2_5 C5_5 1_555 1_555
C6_5 C5_5 1_555 1_555
C7_5 C2_5 1_555 1_555
H3_5 C7_5 1_555 1_555
C8_5 C6_5 1_555 1_555
C9_5 C4_5 1_555 1_555
Cu3_2 O3_5 1_555 1_555
N6_4 N2_5 1_555 1_555
N2_5 N3_5 1_555 1_555
N3_5 N4_5 1_555 1_555
N4_5 C1_5 1_555 1_555
N5_5 C1_5 1_555 1_555
H5_5 N5_5 1_555 1_555
O5_2 C8_5 1_555 1_555
O6_3 C8_5 1_555 1_555
O3_5 C9_5 1_555 1_555
O4_3 C9_5 1_555 1_555
C2_5 N4_5 1_555 1_555
C6_5 C7_5 1_555 1_555
Cu3 O3_6 1_555 1_555
O3_6 C9_6 1_555 1_555
O4_4 C9_6 1_555 1_555
O7_4 Cu3 1_555 1_555
O4_4 Cu4 1_555 1_555
C1_6 N6_3 1_555 1_555
N6_3 N2_6 1_555 1_555
N2_6 N3_6 1_555 1_555
N3_6 N4_6 1_555 1_555
N4_6 C1_6 1_555 1_555
N5_6 C1_6 1_555 1_555
H4_5 N5_6 1_555 1_555
C2_6 C3_6 1_555 1_555
C3_6 H1_6 1_555 1_555
C4_6 C3_6 1_555 1_555
C5_6 C4_6 1_555 1_555
H2_6 C5_6 1_555 1_555
C6_6 C5_6 1_555 1_555
C7_6 C2_6 1_555 1_555
H3_6 C7_6 1_555 1_555
C8_6 C6_6 1_555 1_555
O5 C8_6 1_555 1_555
O6_4 C8_6 1_555 1_555
C6_6 C7_6 1_555 1_555
Cu4 O3_7 1_555 1_555
O3_7 C9_7 1_555 1_555
O7_4 C9_7 1_555 1_555
C1_7 N6_2 1_555 1_555
C2_7 C3_7 1_555 1_555
C3_7 H1_7 1_555 1_555
C4_7 C3_7 1_555 1_555
C5_7 C4_7 1_555 1_555
H2_7 C5_7 1_555 1_555
C6_7 C5_7 1_555 1_555
C7_7 C2_7 1_555 1_555
H3_7 C7_7 1_555 1_555
C8_7 C6_7 1_555 1_555
N6_2 N2_7 1_555 1_555
N2_7 N3_7 1_555 1_555
N3_7 N4_7 1_555 1_555
N4_7 C1_7 1_555 1_555
N5_7 C1_7 1_555 1_555
H4_6 N5_7 1_555 1_555
H5_7 N5_7 1_555 1_555
O5_4 C8_7 1_555 1_555
O6 C8_7 1_555 1_555
C2_7 N4_7 1_555 1_555
C6_7 C7_7 1_555 1_555
C2_8 C3_8 1_555 1_555
C3_8 H1_8 1_555 1_555
C4_8 C3_8 1_555 1_555
C5_8 C4_8 1_555 1_555
H2_8 C5_8 1_555 1_555
C6_8 C5_8 1_555 1_555
C7_8 C2_8 1_555 1_555
H3_8 C7_8 1_555 1_555
C8_8 C6_8 1_555 1_555
C9_8 C4_8 1_555 1_555
Cu5 O3_8 1_555 1_555
O5_3 C8_8 1_555 1_555
O6_2 C8_8 1_555 1_555
O3_8 C9_8 1_555 1_555
O7_3 C9_8 1_555 1_555
C6_8 C7_8 1_555 1_555
C1_8 N6 1_555 1_555
N6 N2_8 1_555 1_555
N2_8 N3_8 1_555 1_555
N3_8 N4_8 1_555 1_555
N4_8 C1_8 1_555 1_555
N5_8 C1_8 1_555 1_555

#END
