
###############################################################################
#
# This file contains modified crystal structure data generated from the
# MOF subset of the Cambridge Structural Database (CSD) v543 
# hosted by the Cambridge Crystallographic Data Centre (CCDC).
#
# This work is licensed under the Creative Commons
# Attribution-NonCommercial-ShareAlike 4.0 International License.
# To view a copy of this license, visit
# http://creativecommons.org/licenses/by-nc-sa/4.0/
# or send a letter to
# Creative Commons, PO Box 1866, Mountain View, CA 94042, USA.
#
# CIF created using the CSD Python API on 29 September 2022
# The structure has been converted into the P1 space group
# The structure has a 3D framework
# The original CSD entry QULPUL01 is in the triclinic crystal system
# The original CSD entry QULPUL01 is in a Sohncke space group
# The framework has been calculated to contain at least 10.0% void space
# The void calculation uses a probe of radius 1.32A, grid spacing 0.4
#
###############################################################################

data_QULPUL01
_chemical_formula_moiety         '(C48 H40 Cu2 F12 N16 Si2)n'
_symmetry_cell_setting           triclinic
_symmetry_space_group_name_H-M   'P 1'
_symmetry_Int_Tables_number      1
_space_group_name_Hall           'P 1'
loop_
_symmetry_equiv_pos_site_id
_symmetry_equiv_pos_as_xyz
1 x,y,z
_cell_length_a                   12.1965(3)
_cell_length_b                   12.5066(4)
_cell_length_c                   12.5675(4)
_cell_angle_alpha                60.7210(10)
_cell_angle_beta                 79.864(2)
_cell_angle_gamma                64.958(2)
_cell_volume                     1513.76
loop_
_atom_site_label
_atom_site_type_symbol
_atom_site_fract_x
_atom_site_fract_y
_atom_site_fract_z
_atom_site_U_iso_or_equiv
_atom_site_thermal_displace_type
C23 C 0.0196(9) 0.4906(9) 0.7601(8) 0.0353 Uani
H19 H 0.065192 0.453989 0.832574 0.0420 Uiso
H35 H 0.092177 0.537103 0.012732 0.0380 Uiso
N11 N 0.2240(7) 0.6103(7) 0.8260(6) 0.0256 Uani
N12 N 0.3805(7) 0.4362(7) 0.8250(6) 0.0239 Uani
C42 C 0.0480(9) 0.6248(9) 0.9519(8) 0.0318 Uani
C43 C 0.1038(8) 0.6853(8) 0.8472(8) 0.0255 Uani
C44 C 0.0431(8) 0.8146(8) 0.7603(7) 0.0281 Uani
H36 H 0.083663 0.857601 0.691434 0.0330 Uiso
C46 C 0.2753(8) 0.4740(8) 0.8747(7) 0.0257 Uani
H38 H 0.240393 0.415374 0.935186 0.0310 Uiso
C47 C 0.3989(8) 0.5500(8) 0.7421(8) 0.0243 Uani
H39 H 0.467541 0.552603 0.693074 0.0300 Uiso
C48 C 0.3028(9) 0.6584(9) 0.7418(8) 0.0303 Uani
H40 H 0.292031 0.749108 0.693195 0.0370 Uiso
Cu7 Cu 0.47101(11) 0.24764(12) 0.85133(11) 0.0211 Uani
N13 N 0.1109(7) 0.1441(7) 0.7626(6) 0.0273 Uani
C25 C 0.2149(8) 0.0489(9) 0.8183(8) 0.0281 Uani
H21 H 0.242151 0.028170 0.895006 0.0340 Uiso
C26 C 0.1062(8) 0.1432(9) 0.6535(8) 0.0264 Uani
H22 H 0.041475 0.201334 0.593870 0.0310 Uiso
C27 C 0.2086(9) 0.0464(9) 0.6457(8) 0.0299 Uani
H23 H 0.229170 0.024647 0.580235 0.0350 Uiso
F14 F 0.1304(5) 0.1847(5) 0.9750(4) 0.0282 Uani
F7 F 0.3279(5) 0.1748(6) 0.9826(5) 0.0335 Uani
N2 N 0.0003(7) 0.8774(8) 0.1230(7) 0.0300 Uani
N3 N 0.2741(7) 0.4138(7) 0.5314(6) 0.0282 Uani
N4 N 0.3868(7) 0.2909(7) 0.7029(6) 0.0251 Uani
N9 N 0.5706(6) 0.0616(7) 0.8773(6) 0.0218 Uani
C1 C 0.0399(8) 0.9742(9) 0.0530(8) 0.0264 Uani
H1 H 0.116588 0.970388 0.064661 0.0320 Uiso
C4 C 0.0645(8) 0.7570(9) 0.2333(7) 0.0271 Uani
C5 C 0.0524(9) 0.6391(9) 0.2682(8) 0.0300 Uani
C6 C 0.1181(9) 0.5260(9) 0.3693(8) 0.0297 Uani
H5 H 0.108558 0.445166 0.396196 0.0350 Uiso
C7 C 0.1990(8) 0.5299(8) 0.4326(7) 0.0272 Uani
C8 C 0.2086(9) 0.6492(9) 0.3957(8) 0.0352 Uani
H6 H 0.262231 0.652783 0.439093 0.0420 Uiso
C9 C 0.1404(9) 0.7636(9) 0.2958(8) 0.0354 Uani
H7 H 0.146375 0.845873 0.270986 0.0430 Uiso
C10 C 0.3079(8) 0.4096(9) 0.6306(8) 0.0306 Uani
H8 H 0.278046 0.483827 0.646374 0.0370 Uiso
C11 C 0.3413(10) 0.2878(11) 0.5399(9) 0.0370 Uani
H9 H 0.342674 0.259299 0.481940 0.0450 Uiso
C12 C 0.4045(11) 0.2145(9) 0.6483(9) 0.0400 Uani
H10 H 0.454388 0.122059 0.681513 0.0480 Uiso
H12 H 0.534741 0.386082 0.984199 0.0410 Uiso
H26 H 0.513119 0.590503 0.039804 0.0340 Uiso
C35 C 0.7664(8) 0.4497(9) 0.0314(8) 0.0279 Uani
H29 H 0.747044 0.471914 0.096533 0.0340 Uiso
C36 C 0.8624(8) 0.3461(10) 0.0274(8) 0.0294 Uani
H30 H 0.925069 0.283619 0.088824 0.0350 Uiso
C37 C 0.6800(8) 0.0243(9) 0.8382(8) 0.0255 Uani
H31 H 0.713906 0.084393 0.778307 0.0310 Uiso
F13 F 0.6332(5) 0.3054(5) 0.7319(5) 0.0312 Uani
N14 N 0.2781(6) 0.9846(7) 0.7525(7) 0.0270 Uani
N15 N 0.7011(6) 0.5181(7) 0.9211(6) 0.0233 Uani
N16 N 0.8547(6) 0.3456(7) 0.9189(6) 0.0249 Uani
C28 C 0.3849(8) 0.8679(8) 0.7943(8) 0.0281 Uani
C29 C 0.4773(9) 0.8492(10) 0.7135(8) 0.0337 Uani
H24 H 0.468129 0.913753 0.629916 0.0400 Uiso
C30 C 0.5816(9) 0.7353(10) 0.7576(9) 0.0338 Uani
H25 H 0.646207 0.721867 0.704808 0.0410 Uiso
C31 C 0.5925(8) 0.6394(9) 0.8800(8) 0.0273 Uani
C32 C 0.5040(8) 0.6567(9) 0.9569(8) 0.0286 Uani
C33 C 0.3977(8) 0.7728(9) 0.9147(8) 0.0276 Uani
H27 H 0.334781 0.785894 0.969168 0.0330 Uiso
C34 C 0.7570(8) 0.4511(9) 0.8585(7) 0.0252 Uani
H28 H 0.730218 0.475905 0.780093 0.0300 Uiso
Cu5 Cu 0.98112(11) 0.24264(13) 0.84194(11) 0.0229 Uani
F10 F 0.2893(5) 0.9762(5) 0.0981(5) 0.0327 Uani
N7 N 0.9129(8) 0.6305(8) 0.5896(7) 0.0329 Uani
N8 N 0.9947(7) 0.4179(7) 0.7220(6) 0.0248 Uani
C16 C 0.6995(8) 0.9800(9) 0.2965(8) 0.0282 Uani
C17 C 0.6706(9) 0.8696(9) 0.3495(8) 0.0329 Uani
H14 H 0.602463 0.872946 0.319195 0.0400 Uiso
C18 C 0.7409(8) 0.7543(9) 0.4464(8) 0.0302 Uani
H15 H 0.720304 0.678668 0.484595 0.0370 Uiso
C19 C 0.8424(9) 0.7496(9) 0.4882(8) 0.0291 Uani
C20 C 0.8702(10) 0.8624(10) 0.4370(9) 0.0354 Uani
H16 H 0.937163 0.859669 0.468492 0.0430 Uiso
C21 C 0.7977(9) 0.9797(9) 0.3385(8) 0.0311 Uani
C22 C 0.9304(8) 0.5070(9) 0.6165(7) 0.0252 Uani
H18 H 0.901394 0.485254 0.567401 0.0300 Uiso
C24 C 0.9707(10) 0.6214(10) 0.6810(9) 0.0411 Uani
H20 H 0.974998 0.692614 0.686626 0.0500 Uiso
H32 H 0.484623 0.939813 0.002523 0.0360 Uiso
H33 H 0.672480 0.746177 0.022195 0.0360 Uiso
H34 H 0.889818 0.651054 0.039875 0.0340 Uiso
Si1 Si 0.7165(2) 0.3587(2) 0.61054(19) 0.0226 Uani
F1 F 0.8327(5) 0.2980(5) 0.7065(4) 0.0286 Uani
F2 F 0.8025(6) 0.4136(6) 0.4899(5) 0.0354 Uani
F3 F 0.7710(5) 0.2123(5) 0.6070(5) 0.0304 Uani
F5 F 0.6642(5) 0.5073(5) 0.6113(4) 0.0265 Uani
F6 F 0.6011(6) 0.4205(6) 0.5141(5) 0.0409 Uani
N1 N 0.9612(6) 0.0739(7) 0.9673(6) 0.0229 Uani
C2 C 0.8623(8) 0.0425(9) 0.9887(8) 0.0306 Uani
H2 H 0.787387 0.099682 0.943370 0.0380 Uiso
C3 C 0.8854(9) 0.9201(9) 0.0822(8) 0.0354 Uani
H3 H 0.833260 0.873406 0.113211 0.0420 Uiso
H4 H 0.999690 0.636207 0.223232 0.0360 Uiso
Si2 Si 0.2274(2) 0.1320(2) 0.08888(19) 0.0232 Uani
F8 F 0.1633(6) 0.2870(6) 0.0765(5) 0.0352 Uani
F11 F 0.3237(6) 0.0826(6) 0.2002(5) 0.0437 Uani
F12 F 0.1263(6) 0.0880(6) 0.1914(5) 0.0360 Uani
N5 N 0.5461(7) 0.2063(8) 0.0057(6) 0.0271 Uani
N6 N 0.6324(7) 0.0955(7) 0.1890(6) 0.0274 Uani
C13 C 0.5875(7) 0.0894(8) 0.1010(7) 0.0250 Uani
H11 H 0.586399 0.010677 0.108161 0.0300 Uiso
C14 C 0.5612(9) 0.2925(10) 0.0345(9) 0.0345 Uani
C15 C 0.6187(9) 0.2248(9) 0.1440(8) 0.0318 Uani
H13 H 0.644672 0.259674 0.182513 0.0380 Uiso
H17 H 0.815600 0.057091 0.301355 0.0380 Uiso
N10 N 0.7399(6) 0.8890(7) 0.8934(7) 0.0271 Uani
C38 C 0.5563(8) 0.9444(10) 0.9599(9) 0.0301 Uani
C39 C 0.6588(9) 0.8375(9) 0.9714(8) 0.0297 Uani
C40 C 0.8642(8) 0.8213(9) 0.8762(9) 0.0293 Uani
C41 C 0.9285(8) 0.6917(9) 0.9679(7) 0.0286 Uani
C45 C 0.9190(9) 0.8826(9) 0.7755(9) 0.0334 Uani
H37 H 0.874873 0.970635 0.715168 0.0400 Uiso
loop_
_atom_site_aniso_label
_atom_site_aniso_U_11
_atom_site_aniso_U_22
_atom_site_aniso_U_33
_atom_site_aniso_U_23
_atom_site_aniso_U_13
_atom_site_aniso_U_12
C23 0.032 0.033 0.032 -0.006 -0.017 -0.009
N11 0.021 0.019 0.029 -0.008 -0.004 -0.003
N12 0.026 0.014 0.024 -0.006 -0.003 -0.003
C42 0.034 0.023 0.027 -0.009 0.005 -0.006
C43 0.019 0.021 0.035 -0.018 0.005 -0.002
C44 0.021 0.023 0.027 -0.01 0.003 0
C46 0.023 0.018 0.026 -0.009 -0.001 0
C47 0.022 0.015 0.031 -0.009 0.001 -0.005
C48 0.029 0.023 0.038 -0.017 0.004 -0.007
Cu7 0.0153 0.019 0.0249 -0.0099 -0.0019 -0.0026
N13 0.027 0.025 0.024 -0.013 0.003 -0.004
C25 0.026 0.029 0.027 -0.017 -0.002 -0.003
C26 0.023 0.025 0.027 -0.009 -0.008 -0.006
C27 0.034 0.03 0.024 -0.017 -0.001 -0.005
F14 0.019 0.03 0.03 -0.012 -0.0044 -0.005
F7 0.028 0.034 0.038 -0.017 0.008 -0.014
N2 0.026 0.03 0.028 -0.008 -0.005 -0.01
N3 0.027 0.029 0.024 -0.008 -0.005 -0.01
N4 0.021 0.026 0.026 -0.008 -0.01 -0.008
N9 0.016 0.026 0.026 -0.016 0.004 -0.007
C1 0.024 0.025 0.029 -0.007 -0.002 -0.014
C4 0.022 0.029 0.025 -0.009 -0.006 -0.007
C5 0.033 0.027 0.032 -0.013 -0.005 -0.012
C6 0.034 0.028 0.028 -0.012 -0.002 -0.013
C7 0.021 0.021 0.03 -0.006 -0.007 -0.004
C8 0.031 0.039 0.032 -0.013 -0.009 -0.011
C9 0.042 0.027 0.038 -0.01 -0.01 -0.016
C10 0.029 0.025 0.034 -0.012 -0.01 -0.005
C11 0.045 0.036 0.03 -0.015 -0.007 -0.013
C12 0.053 0.019 0.038 -0.01 -0.023 0
C35 0.02 0.031 0.03 -0.013 -0.002 -0.008
C36 0.025 0.037 0.024 -0.018 0.002 -0.006
C37 0.019 0.022 0.025 -0.007 -0.001 -0.003
F13 0.024 0.027 0.039 -0.014 0.005 -0.01
N14 0.017 0.026 0.036 -0.019 -0.002 0
N15 0.009 0.026 0.03 -0.018 -0.001 0.004
N16 0.015 0.025 0.025 -0.009 -0.006 0
C28 0.028 0.016 0.04 -0.019 -0.002 0
C29 0.029 0.035 0.031 -0.016 -0.003 -0.005
C30 0.029 0.029 0.032 -0.01 0.005 -0.008
C31 0.018 0.03 0.033 -0.021 -0.004 0.001
C32 0.024 0.027 0.026 -0.011 -0.002 -0.003
C33 0.025 0.026 0.035 -0.02 -0.001 -0.005
C34 0.023 0.025 0.023 -0.016 -0.001 0.001
Cu5 0.0156 0.0201 0.0266 -0.0105 -0.0024 -0.0008
F10 0.023 0.024 0.042 -0.011 -0.003 -0.005
N7 0.04 0.025 0.03 -0.004 -0.02 -0.012
N8 0.019 0.023 0.02 -0.004 -0.001 -0.004
C16 0.024 0.029 0.029 -0.01 -0.005 -0.01
C17 0.034 0.031 0.031 -0.006 -0.008 -0.017
C18 0.028 0.029 0.035 -0.014 -0.005 -0.011
C19 0.033 0.026 0.026 -0.007 -0.003 -0.014
C20 0.038 0.033 0.038 -0.012 -0.011 -0.017
C21 0.033 0.024 0.032 -0.005 -0.012 -0.012
C22 0.025 0.029 0.025 -0.015 0.002 -0.011
C24 0.052 0.03 0.038 -0.006 -0.019 -0.017
Si1 0.0215 0.0205 0.0213 -0.007 -0.0005 -0.0072
F1 0.021 0.031 0.026 -0.011 -0.0052 -0.004
F2 0.041 0.039 0.026 -0.015 0.01 -0.019
F3 0.034 0.024 0.031 -0.015 0.004 -0.008
F5 0.024 0.022 0.029 -0.009 -0.0032 -0.007
F6 0.04 0.033 0.049 -0.018 -0.011 -0.01
N1 0.017 0.025 0.025 -0.012 0 -0.006
C2 0.016 0.033 0.036 -0.01 -0.004 -0.009
C3 0.041 0.038 0.031 -0.012 -0.003 -0.022
Si2 0.0192 0.0253 0.0231 -0.0098 -0.001 -0.0081
F8 0.04 0.03 0.039 -0.019 0.012 -0.017
F11 0.049 0.046 0.033 -0.008 -0.018 -0.021
F12 0.042 0.037 0.028 -0.012 0.011 -0.022
N5 0.025 0.028 0.026 -0.009 0.002 -0.013
N6 0.031 0.023 0.026 -0.008 -0.009 -0.009
C13 0.02 0.026 0.03 -0.014 -0.001 -0.008
C14 0.033 0.032 0.035 -0.015 -0.005 -0.008
C15 0.038 0.026 0.028 -0.007 -0.015 -0.01
N10 0.018 0.019 0.034 -0.01 0.003 -0.002
C38 0.022 0.031 0.037 -0.015 0.001 -0.011
C39 0.029 0.02 0.034 -0.01 0.005 -0.009
C40 0.024 0.023 0.047 -0.024 0.006 -0.007
C41 0.022 0.03 0.017 -0.001 -0.001 -0.007
C45 0.028 0.021 0.038 -0.012 0.003 -0.001
loop_
_geom_bond_atom_site_label_1
_geom_bond_atom_site_label_2
_geom_bond_site_symmetry_1
_geom_bond_site_symmetry_2
H19 C23 1_555 1_555
N11 C43 1_555 1_555
N12 C46 1_555 1_555
C43 C42 1_555 1_555
C44 C43 1_555 1_555
H36 C44 1_555 1_555
C46 N11 1_555 1_555
H38 C46 1_555 1_555
C47 N12 1_555 1_555
H39 C47 1_555 1_555
C48 N11 1_555 1_555
H40 C48 1_555 1_555
Cu7 N12 1_555 1_555
C47 C48 1_555 1_555
C25 N13 1_555 1_555
H21 C25 1_555 1_555
C26 N13 1_555 1_555
H22 C26 1_555 1_555
H23 C27 1_555 1_555
C26 C27 1_555 1_555
Cu7 F7 1_555 1_555
N2 C1 1_555 1_555
N3 C7 1_555 1_555
N4 Cu7 1_555 1_555
N9 Cu7 1_555 1_555
H1 C1 1_555 1_555
C4 N2 1_555 1_555
C5 C4 1_555 1_555
C6 C5 1_555 1_555
H5 C6 1_555 1_555
C7 C6 1_555 1_555
C8 C7 1_555 1_555
H6 C8 1_555 1_555
C9 C4 1_555 1_555
H7 C9 1_555 1_555
C10 N3 1_555 1_555
H8 C10 1_555 1_555
C11 N3 1_555 1_555
H9 C11 1_555 1_555
C12 N4 1_555 1_555
H10 C12 1_555 1_555
H29 C35 1_555 1_555
H30 C36 1_555 1_555
C37 N9 1_555 1_555
H31 C37 1_555 1_555
F13 Cu7 1_555 1_555
N4 C10 1_555 1_555
C8 C9 1_555 1_555
C11 C12 1_555 1_555
C35 C36 1_555 1_555
N15 C31 1_555 1_555
N16 C34 1_555 1_555
C28 N14 1_555 1_555
C29 C28 1_555 1_555
H24 C29 1_555 1_555
C30 C29 1_555 1_555
H25 C30 1_555 1_555
C31 C30 1_555 1_555
C32 C31 1_555 1_555
C33 C28 1_555 1_555
H27 C33 1_555 1_555
C34 N15 1_555 1_555
H28 C34 1_555 1_555
Cu5 N16 1_555 1_555
C32 C33 1_555 1_555
N7 C19 1_555 1_555
N8 C22 1_555 1_555
C17 C16 1_555 1_555
H14 C17 1_555 1_555
C18 C17 1_555 1_555
H15 C18 1_555 1_555
C19 C18 1_555 1_555
C20 C19 1_555 1_555
H16 C20 1_555 1_555
C21 C16 1_555 1_555
C22 N7 1_555 1_555
H18 C22 1_555 1_555
C24 N7 1_555 1_555
H20 C24 1_555 1_555
Cu5 N8 1_555 1_555
C20 C21 1_555 1_555
Cu5 F1 1_555 1_555
Si1 F1 1_555 1_555
F2 Si1 1_555 1_555
F3 Si1 1_555 1_555
F13 Si1 1_555 1_555
F5 Si1 1_555 1_555
F6 Si1 1_555 1_555
N1 Cu5 1_555 1_555
C2 N1 1_555 1_555
H2 C2 1_555 1_555
H3 C3 1_555 1_555
F8 Si2 1_555 1_555
F11 Si2 1_555 1_555
F12 Si2 1_555 1_555
N6 C13 1_555 1_555
C13 N5 1_555 1_555
H11 C13 1_555 1_555
C14 N5 1_555 1_555
C15 N6 1_555 1_555
H13 C15 1_555 1_555
C14 C15 1_555 1_555
C39 N10 1_555 1_555
C40 N10 1_555 1_555
C41 C40 1_555 1_555
C45 C40 1_555 1_555
H37 C45 1_555 1_555
C38 C39 1_555 1_555

#END
