
###############################################################################
#
# This file contains modified crystal structure data generated from the
# MOF subset of the Cambridge Structural Database (CSD) v543 
# hosted by the Cambridge Crystallographic Data Centre (CCDC).
#
# This work is licensed under the Creative Commons
# Attribution-NonCommercial-ShareAlike 4.0 International License.
# To view a copy of this license, visit
# http://creativecommons.org/licenses/by-nc-sa/4.0/
# or send a letter to
# Creative Commons, PO Box 1866, Mountain View, CA 94042, USA.
#
# CIF created using the CSD Python API on 29 September 2022
# The structure has been converted into the P1 space group
# The structure has a 3D framework
# The original CSD entry QULPUL is in the monoclinic crystal system
# The framework has been calculated to contain at least 10.0% void space
# The void calculation uses a probe of radius 1.32A, grid spacing 0.4
#
###############################################################################

data_QULPUL
_chemical_formula_moiety         '(C96 H80 Cu4 F22 N32 Si4)n'
_symmetry_cell_setting           triclinic
_symmetry_space_group_name_H-M   'P 1'
_symmetry_Int_Tables_number      1
_space_group_name_Hall           'P 1'
loop_
_symmetry_equiv_pos_site_id
_symmetry_equiv_pos_as_xyz
1 x,y,z
_cell_length_a                   12.8841(9)
_cell_length_b                   25.240(2)
_cell_length_c                   12.5623(9)
_cell_angle_alpha                90
_cell_angle_beta                 116.413(2)
_cell_angle_gamma                90
_cell_volume                     3658.74
loop_
_atom_site_label
_atom_site_type_symbol
_atom_site_fract_x
_atom_site_fract_y
_atom_site_fract_z
Cu2 Cu 0.05329(3) 0.24387(2) 0.32968(3)
Si1 Si 0.05973(10) 0.14724(4) 0.07084(9)
F1 F 0.0823(2) 0.09660(8) 0.16641(19)
F4 F 0.06586(16) 0.19000(8) 0.17616(15)
F6 F 0.2044(2) 0.15239(10) 0.1208(2)
N1 N 0.2133(2) 0.22072(11) 0.4387(2)
N2 N 0.3808(2) 0.21832(12) 0.5968(2)
N5 N 0.1199(2) 0.30426(10) 0.2780(2)
N6 N 0.1538(2) 0.38406(11) 0.2298(2)
N7 N 0.0780(2) 0.60101(11) 0.1217(2)
N8 N 0.0114(2) 0.68138(10) 0.1210(2)
C1 C 0.2807(3) 0.24487(13) 0.5401(3)
H1 H 0.260894 0.276333 0.568433
C2 C 0.2736(3) 0.17731(16) 0.4315(3)
H2 H 0.246848 0.152521 0.367985
C3 C 0.3781(3) 0.17526(18) 0.5299(3)
H3 H 0.436772 0.149229 0.548000
C4 C 0.4707(3) 0.23164(15) 0.7126(3)
C5 C 0.5451(4) 0.19265(18) 0.7816(3)
H4 H 0.538069 0.157407 0.752717
C6 C 0.6309(4) 0.20567(17) 0.8948(3)
H5 H 0.682642 0.179026 0.942745
C7 C 0.6412(3) 0.25555(15) 0.9367(3)
C8 C 0.5655(4) 0.29371(19) 0.8709(4)
H6 H 0.570453 0.328404 0.902187
C9 C 0.4803(4) 0.28153(19) 0.7570(4)
H7 H 0.428563 0.308378 0.709970
C13 C 0.0886(3) 0.35434(13) 0.2650(3)
H11 H 0.026919 0.367884 0.278868
C14 C 0.2328(4) 0.35037(15) 0.2202(4)
H12 H 0.290876 0.359384 0.196260
C15 C 0.2115(3) 0.30184(14) 0.2514(4)
H13 H 0.254069 0.270673 0.254436
C16 C 0.1394(3) 0.43947(13) 0.2034(3)
C17 C 0.1064(4) 0.47233(14) 0.2723(3)
H14 H 0.096694 0.458190 0.337377
C18 C 0.0882(3) 0.52513(14) 0.2454(3)
H15 H 0.064854 0.547414 0.291772
C19 C 0.1031(3) 0.54654(13) 0.1520(3)
C20 C 0.1405(3) 0.51383(14) 0.0862(3)
H16 H 0.153933 0.528113 0.023431
C21 C 0.1579(3) 0.46017(13) 0.1135(3)
H17 H 0.183005 0.437747 0.068712
C22 C 0.0267(3) 0.63380(13) 0.1681(3)
H18 H 0.004231 0.623805 0.227775
C23 C 0.0935(4) 0.62956(14) 0.0369(3)
C24 C 0.0501(3) 0.67862(14) 0.0364(3)
F7 F 0.03951(19) 0.30168(8) 0.47773(17)
F2 F 0.03951(19) 0.19832(8) 0.97773(17)
F5 F 0.0508(3) 0.10325(10) 0.9671(2)
H19 H 0.127822 0.617407 0.988279
H20 H 0.047226 0.706748 0.984887
Cu4 Cu 0.05329(3) 0.25613(2) 0.82968(3)
F3 F 0.0842(2) 0.64209(9) 0.4770(2)
N9 N 0.1073(2) 0.76496(11) 0.2824(2)
N2_2 N 0.6192(2) 0.71832(12) 0.9032(2)
N3 N 0.2730(2) 0.76823(12) 0.4468(3)
C1_2 C 0.7193(3) 0.74487(13) 0.9599(3)
H1_2 H 0.739106 0.776333 0.931567
C3_2 C 0.6219(3) 0.67526(18) 0.9701(3)
H3_2 H 0.563228 0.649229 0.952000
C4_2 C 0.5293(3) 0.73164(15) 0.7874(3)
C5_2 C 0.4549(4) 0.69265(18) 0.7184(3)
H4_2 H 0.461931 0.657407 0.747283
C6_2 C 0.3691(4) 0.70567(17) 0.6052(3)
H5_2 H 0.317358 0.679026 0.557255
C7_2 C 0.3588(3) 0.75555(15) 0.5633(3)
C8_2 C 0.4345(4) 0.79371(19) 0.6291(4)
H6_2 H 0.429547 0.828404 0.597813
C9_2 C 0.5197(4) 0.78153(19) 0.7430(4)
H7_2 H 0.571437 0.808378 0.790030
C10 C 0.1675(3) 0.74361(14) 0.3880(3)
H8 H 0.141544 0.715039 0.419142
C11 C 0.1751(3) 0.80442(16) 0.2708(3)
H9 H 0.154151 0.826464 0.203052
C12 C 0.2755(4) 0.80689(18) 0.3702(4)
H10 H 0.337251 0.830899 0.385137
F3_2 F 0.0842(2) 0.85791(9) 0.9770(2)
N9_2 N 0.1073(2) 0.73504(11) 0.7824(2)
N10 N 0.0114(2) 0.81862(10) 0.6210(2)
N3_2 N 0.2730(2) 0.73177(12) 0.9468(3)
C10_2 C 0.1675(3) 0.75639(14) 0.8880(3)
H8_2 H 0.141544 0.784961 0.919142
C11_2 C 0.1751(3) 0.69558(16) 0.7708(3)
H9_2 H 0.154151 0.673536 0.703052
C12_2 C 0.2755(4) 0.69311(18) 0.8702(4)
H10_2 H 0.337251 0.669101 0.885137
Si1_2 Si 0.05973(10) 0.35276(4) 0.57084(9)
F1_2 F 0.0823(2) 0.40340(8) 0.66641(19)
F4_2 F 0.06586(16) 0.31000(8) 0.67616(15)
F5_2 F 0.0508(3) 0.39675(10) 0.4671(2)
F6_2 F 0.2044(2) 0.34761(10) 0.6208(2)
N1_2 N 0.2133(2) 0.27928(11) 0.9387(2)
N5_2 N 0.1199(2) 0.19574(10) 0.7780(2)
N6_2 N 0.1538(2) 0.11594(11) 0.7298(2)
C2_2 C 0.2736(3) 0.32269(16) 0.9315(3)
H2_2 H 0.246848 0.347479 0.867985
C13_2 C 0.0886(3) 0.14566(13) 0.7650(3)
H11_2 H 0.026919 0.132116 0.778868
C14_2 C 0.2328(4) 0.14963(15) 0.7202(4)
H12_2 H 0.290876 0.140616 0.696260
C15_2 C 0.2115(3) 0.19816(14) 0.7514(4)
H13_2 H 0.254069 0.229327 0.754436
C16_2 C 0.1394(3) 0.06053(13) 0.7034(3)
C17_2 C 0.1064(4) 0.02767(14) 0.7723(3)
H14_2 H 0.096694 0.041810 0.837377
C21_2 C 0.1579(3) 0.03983(13) 0.6135(3)
H17_2 H 0.183005 0.062253 0.568712
N7_2 N 0.0780(2) 0.89899(11) 0.6217(2)
C18_2 C 0.0882(3) 0.97487(14) 0.7454(3)
H15_2 H 0.064854 0.952586 0.791772
C19_2 C 0.1031(3) 0.95346(13) 0.6520(3)
C20_2 C 0.1405(3) 0.98617(14) 0.5862(3)
H16_2 H 0.153933 0.971887 0.523431
C22_2 C 0.0267(3) 0.86620(13) 0.6681(3)
H18_2 H 0.004231 0.876195 0.727775
C23_2 C 0.0935(4) 0.87044(14) 0.5369(3)
H19_2 H 0.127822 0.882593 0.488279
C24_2 C 0.0501(3) 0.82138(14) 0.5364(3)
H20_2 H 0.047226 0.793252 0.484887
N3_3 N 0.7270(2) 0.26823(12) 0.0532(3)
N4 N 0.8927(2) 0.26496(11) 0.2176(2)
C10_3 C 0.8325(3) 0.24361(14) 0.1120(3)
H8_3 H 0.858456 0.215039 0.080858
C11_3 C 0.8249(3) 0.30442(16) 0.2292(3)
H9_3 H 0.845849 0.326464 0.296948
C12_3 C 0.7245(4) 0.30689(18) 0.1298(4)
H10_3 H 0.662749 0.330899 0.114863
F3_3 F 0.9158(2) 0.14209(9) 0.0230(2)
Cu3 Cu 0.94671(3) 0.74387(2) 0.17032(3)
N10_2 N 0.9886(2) 0.18138(10) 0.3790(2)
N7_3 N 0.9220(2) 0.10101(11) 0.3783(2)
C18_3 C 0.9118(3) 0.02513(14) 0.2546(3)
H15_3 H 0.935146 0.047414 0.208228
C19_3 C 0.8969(3) 0.04654(13) 0.3480(3)
C20_3 C 0.8595(3) 0.01383(14) 0.4138(3)
H16_3 H 0.846067 0.028113 0.476569
C22_3 C 0.9733(3) 0.13380(13) 0.3319(3)
H18_3 H 0.995769 0.123805 0.272225
C23_3 C 0.9065(4) 0.12956(14) 0.4631(3)
H19_3 H 0.872178 0.117407 0.511721
C24_3 C 0.9499(3) 0.17862(14) 0.4636(3)
H20_3 H 0.952774 0.206748 0.515113
Si1_3 Si 0.94027(10) 0.64724(4) 0.42916(9)
F1_3 F 0.9177(2) 0.59660(8) 0.33359(19)
F2_2 F 0.96049(19) 0.69832(8) 0.52227(17)
F4_3 F 0.93414(16) 0.69000(8) 0.32384(15)
F5_3 F 0.9492(3) 0.60325(10) 0.5329(2)
F6_3 F 0.7956(2) 0.65239(10) 0.3792(2)
N1_3 N 0.7867(2) 0.72072(11) 0.0613(2)
N5_3 N 0.8801(2) 0.80426(10) 0.2220(2)
N6_3 N 0.8462(2) 0.88406(11) 0.2702(2)
C2_3 C 0.7264(3) 0.67731(16) 0.0685(3)
H2_3 H 0.753152 0.652521 0.132015
C13_3 C 0.9114(3) 0.85434(13) 0.2350(3)
H11_3 H 0.973081 0.867884 0.221132
C14_3 C 0.7672(4) 0.85037(15) 0.2798(4)
H12_3 H 0.709124 0.859384 0.303740
C15_3 C 0.7885(3) 0.80184(14) 0.2486(4)
H13_3 H 0.745931 0.770673 0.245564
C16_3 C 0.8606(3) 0.93947(13) 0.2966(3)
C17_3 C 0.8936(4) 0.97233(14) 0.2277(3)
H14_3 H 0.903306 0.958190 0.162623
C21_3 C 0.8421(3) 0.96017(13) 0.3865(3)
H17_3 H 0.816995 0.937747 0.431288
Cu4_2 Cu 0.94671(3) 0.75613(2) 0.67032(3)
F7_2 F 0.96049(19) 0.80168(8) 0.02227(17)
F5_4 F 0.9492(3) 0.89675(10) 0.0329(2)
H19_4 H 0.872178 0.382593 0.011721
H20_4 H 0.952774 0.293252 0.015113
Si1_4 Si 0.94027(10) 0.85276(4) 0.92916(9)
F1_4 F 0.9177(2) 0.90340(8) 0.83359(19)
F4_4 F 0.93414(16) 0.81000(8) 0.82384(15)
F6_4 F 0.7956(2) 0.84761(10) 0.8792(2)
N1_4 N 0.7867(2) 0.77928(11) 0.5613(2)
N2_3 N 0.6192(2) 0.78168(12) 0.4032(2)
N5_4 N 0.8801(2) 0.69574(10) 0.7220(2)
N6_4 N 0.8462(2) 0.61594(11) 0.7702(2)
N7_4 N 0.9220(2) 0.39899(11) 0.8783(2)
N8_2 N 0.9886(2) 0.31862(10) 0.8790(2)
C1_3 C 0.7193(3) 0.75513(13) 0.4599(3)
H1_3 H 0.739106 0.723667 0.431567
C2_4 C 0.7264(3) 0.82269(16) 0.5685(3)
H2_4 H 0.753152 0.847479 0.632015
C3_3 C 0.6219(3) 0.82474(18) 0.4701(3)
H3_3 H 0.563228 0.850771 0.452000
C4_3 C 0.5293(3) 0.76836(15) 0.2874(3)
C5_3 C 0.4549(4) 0.80735(18) 0.2184(3)
H4_3 H 0.461931 0.842593 0.247283
C6_3 C 0.3691(4) 0.79433(17) 0.1052(3)
H5_3 H 0.317358 0.820974 0.057255
C7_3 C 0.3588(3) 0.74445(15) 0.0633(3)
C8_3 C 0.4345(4) 0.70629(19) 0.1291(4)
H6_3 H 0.429547 0.671596 0.097813
C9_3 C 0.5197(4) 0.71847(19) 0.2430(4)
H7_3 H 0.571437 0.691622 0.290030
C13_4 C 0.9114(3) 0.64566(13) 0.7350(3)
H11_4 H 0.973081 0.632116 0.721132
C14_4 C 0.7672(4) 0.64963(15) 0.7798(4)
H12_4 H 0.709124 0.640616 0.803740
C15_4 C 0.7885(3) 0.69816(14) 0.7486(4)
H13_4 H 0.745931 0.729327 0.745564
C16_4 C 0.8606(3) 0.56053(13) 0.7966(3)
C17_4 C 0.8936(4) 0.52767(14) 0.7277(3)
H14_4 H 0.903306 0.541810 0.662623
C18_4 C 0.9118(3) 0.47487(14) 0.7546(3)
H15_4 H 0.935146 0.452586 0.708228
C19_4 C 0.8969(3) 0.45346(13) 0.8480(3)
C20_4 C 0.8595(3) 0.48617(14) 0.9138(3)
H16_4 H 0.846067 0.471887 0.976569
C21_4 C 0.8421(3) 0.53983(13) 0.8865(3)
H17_4 H 0.816995 0.562253 0.931288
C22_4 C 0.9733(3) 0.36620(13) 0.8319(3)
H18_4 H 0.995769 0.376195 0.772225
C23_4 C 0.9065(4) 0.37044(14) 0.9631(3)
C24_4 C 0.9499(3) 0.32138(14) 0.9636(3)
N2_4 N 0.3808(2) 0.28168(12) 0.0968(2)
N3_4 N 0.7270(2) 0.23177(12) 0.5532(3)
N4_2 N 0.8927(2) 0.23504(11) 0.7176(2)
C1_4 C 0.2807(3) 0.25513(13) 0.0401(3)
H1_4 H 0.260894 0.223667 0.068433
C3_4 C 0.3781(3) 0.32474(18) 0.0299(3)
H3_4 H 0.436772 0.350771 0.048000
C4_4 C 0.4707(3) 0.26836(15) 0.2126(3)
C5_4 C 0.5451(4) 0.30735(18) 0.2816(3)
H4_4 H 0.538069 0.342593 0.252717
C6_4 C 0.6309(4) 0.29433(17) 0.3948(3)
H5_4 H 0.682642 0.320974 0.442745
C7_4 C 0.6412(3) 0.24445(15) 0.4367(3)
C8_4 C 0.5655(4) 0.20629(19) 0.3709(4)
H6_4 H 0.570453 0.171596 0.402187
C9_4 C 0.4803(4) 0.21847(19) 0.2570(4)
H7_4 H 0.428563 0.191622 0.209970
C10_4 C 0.8325(3) 0.25639(14) 0.6120(3)
H8_4 H 0.858456 0.284961 0.580858
C11_4 C 0.8249(3) 0.19558(16) 0.7292(3)
H9_4 H 0.845849 0.173536 0.796948
C12_4 C 0.7245(4) 0.19311(18) 0.6298(4)
H10_4 H 0.662749 0.169101 0.614863
F3_4 F 0.9158(2) 0.35791(9) 0.5230(2)
loop_
_geom_bond_atom_site_label_1
_geom_bond_atom_site_label_2
_geom_bond_site_symmetry_1
_geom_bond_site_symmetry_2
Cu2 F4 1_555 1_555
Si1 F1 1_555 1_555
F4 Si1 1_555 1_555
F6 Si1 1_555 1_555
N1 Cu2 1_555 1_555
N2 C1 1_555 1_555
N5 Cu2 1_555 1_555
N6 C13 1_555 1_555
N7 C19 1_555 1_555
N8 C22 1_555 1_555
C1 N1 1_555 1_555
H1 C1 1_555 1_555
C2 N1 1_555 1_555
H2 C2 1_555 1_555
C3 N2 1_555 1_555
H3 C3 1_555 1_555
C4 N2 1_555 1_555
C5 C4 1_555 1_555
H4 C5 1_555 1_555
C6 C5 1_555 1_555
H5 C6 1_555 1_555
C7 C6 1_555 1_555
C8 C7 1_555 1_555
H6 C8 1_555 1_555
C9 C4 1_555 1_555
H7 C9 1_555 1_555
C13 N5 1_555 1_555
H11 C13 1_555 1_555
C14 N6 1_555 1_555
H12 C14 1_555 1_555
C15 N5 1_555 1_555
H13 C15 1_555 1_555
C16 N6 1_555 1_555
C17 C16 1_555 1_555
H14 C17 1_555 1_555
C18 C17 1_555 1_555
H15 C18 1_555 1_555
C19 C18 1_555 1_555
C20 C19 1_555 1_555
H16 C20 1_555 1_555
C21 C16 1_555 1_555
H17 C21 1_555 1_555
C22 N7 1_555 1_555
H18 C22 1_555 1_555
C23 N7 1_555 1_555
C24 N8 1_555 1_555
F7 Cu2 1_555 1_555
C2 C3 1_555 1_555
C8 C9 1_555 1_555
C14 C15 1_555 1_555
C20 C21 1_555 1_555
C23 C24 1_555 1_555
Cu4 F2 1_555 1_555
N2_2 C1_2 1_555 1_555
N3 C7_2 1_555 1_555
N9 C10 1_555 1_555
H1_2 C1_2 1_555 1_555
C3_2 N2_2 1_555 1_555
H3_2 C3_2 1_555 1_555
C4_2 N2_2 1_555 1_555
C5_2 C4_2 1_555 1_555
H4_2 C5_2 1_555 1_555
C6_2 C5_2 1_555 1_555
H5_2 C6_2 1_555 1_555
C7_2 C6_2 1_555 1_555
C8_2 C7_2 1_555 1_555
H6_2 C8_2 1_555 1_555
C9_2 C4_2 1_555 1_555
H7_2 C9_2 1_555 1_555
C10 N3 1_555 1_555
H8 C10 1_555 1_555
C11 N9 1_555 1_555
H9 C11 1_555 1_555
C12 N3 1_555 1_555
H10 C12 1_555 1_555
C8_2 C9_2 1_555 1_555
C11 C12 1_555 1_555
N9_2 C10_2 1_555 1_555
C10_2 N3_2 1_555 1_555
H8_2 C10_2 1_555 1_555
C11_2 N9_2 1_555 1_555
H9_2 C11_2 1_555 1_555
C12_2 N3_2 1_555 1_555
H10_2 C12_2 1_555 1_555
C11_2 C12_2 1_555 1_555
Cu4 F4_2 1_555 1_555
Si1_2 F1_2 1_555 1_555
F7 Si1_2 1_555 1_555
F4_2 Si1_2 1_555 1_555
F5_2 Si1_2 1_555 1_555
F6_2 Si1_2 1_555 1_555
N1_2 Cu4 1_555 1_555
N5_2 Cu4 1_555 1_555
N6_2 C13_2 1_555 1_555
C2_2 N1_2 1_555 1_555
H2_2 C2_2 1_555 1_555
C13_2 N5_2 1_555 1_555
H11_2 C13_2 1_555 1_555
C14_2 N6_2 1_555 1_555
H12_2 C14_2 1_555 1_555
C15_2 N5_2 1_555 1_555
H13_2 C15_2 1_555 1_555
C16_2 N6_2 1_555 1_555
C17_2 C16_2 1_555 1_555
H14_2 C17_2 1_555 1_555
C21_2 C16_2 1_555 1_555
H17_2 C21_2 1_555 1_555
C14_2 C15_2 1_555 1_555
N7_2 C19_2 1_555 1_555
N10 C22_2 1_555 1_555
H15_2 C18_2 1_555 1_555
C19_2 C18_2 1_555 1_555
C20_2 C19_2 1_555 1_555
H16_2 C20_2 1_555 1_555
C22_2 N7_2 1_555 1_555
H18_2 C22_2 1_555 1_555
C23_2 N7_2 1_555 1_555
H19_2 C23_2 1_555 1_555
C24_2 N10 1_555 1_555
H20_2 C24_2 1_555 1_555
C23_2 C24_2 1_555 1_555
N4 C10_3 1_555 1_555
C10_3 N3_3 1_555 1_555
H8_3 C10_3 1_555 1_555
C11_3 N4 1_555 1_555
H9_3 C11_3 1_555 1_555
C12_3 N3_3 1_555 1_555
H10_3 C12_3 1_555 1_555
C11_3 C12_3 1_555 1_555
N7_3 C19_3 1_555 1_555
N10_2 C22_3 1_555 1_555
H15_3 C18_3 1_555 1_555
C19_3 C18_3 1_555 1_555
C20_3 C19_3 1_555 1_555
H16_3 C20_3 1_555 1_555
C22_3 N7_3 1_555 1_555
H18_3 C22_3 1_555 1_555
C23_3 N7_3 1_555 1_555
H19_3 C23_3 1_555 1_555
C24_3 N10_2 1_555 1_555
H20_3 C24_3 1_555 1_555
C23_3 C24_3 1_555 1_555
Cu3 F4_3 1_555 1_555
Si1_3 F1_3 1_555 1_555
F2_2 Si1_3 1_555 1_555
F4_3 Si1_3 1_555 1_555
F5_3 Si1_3 1_555 1_555
F6_3 Si1_3 1_555 1_555
N1_3 Cu3 1_555 1_555
N5_3 Cu3 1_555 1_555
N6_3 C13_3 1_555 1_555
C2_3 N1_3 1_555 1_555
H2_3 C2_3 1_555 1_555
C13_3 N5_3 1_555 1_555
H11_3 C13_3 1_555 1_555
C14_3 N6_3 1_555 1_555
H12_3 C14_3 1_555 1_555
C15_3 N5_3 1_555 1_555
H13_3 C15_3 1_555 1_555
C16_3 N6_3 1_555 1_555
C17_3 C16_3 1_555 1_555
H14_3 C17_3 1_555 1_555
C21_3 C16_3 1_555 1_555
H17_3 C21_3 1_555 1_555
Cu4_2 F2_2 1_555 1_555
F7_2 Cu3 1_555 1_555
C14_3 C15_3 1_555 1_555
Cu4_2 F4_4 1_555 1_555
Si1_4 F1_4 1_555 1_555
F4_4 Si1_4 1_555 1_555
F6_4 Si1_4 1_555 1_555
N1_4 Cu4_2 1_555 1_555
N2_3 C1_3 1_555 1_555
N5_4 Cu4_2 1_555 1_555
N6_4 C13_4 1_555 1_555
N7_4 C19_4 1_555 1_555
N8_2 C22_4 1_555 1_555
C1_3 N1_4 1_555 1_555
H1_3 C1_3 1_555 1_555
C2_4 N1_4 1_555 1_555
H2_4 C2_4 1_555 1_555
C3_3 N2_3 1_555 1_555
H3_3 C3_3 1_555 1_555
C4_3 N2_3 1_555 1_555
C5_3 C4_3 1_555 1_555
H4_3 C5_3 1_555 1_555
C6_3 C5_3 1_555 1_555
H5_3 C6_3 1_555 1_555
C7_3 C6_3 1_555 1_555
C8_3 C7_3 1_555 1_555
H6_3 C8_3 1_555 1_555
C9_3 C4_3 1_555 1_555
H7_3 C9_3 1_555 1_555
C13_4 N5_4 1_555 1_555
H11_4 C13_4 1_555 1_555
C14_4 N6_4 1_555 1_555
H12_4 C14_4 1_555 1_555
C15_4 N5_4 1_555 1_555
H13_4 C15_4 1_555 1_555
C16_4 N6_4 1_555 1_555
C17_4 C16_4 1_555 1_555
H14_4 C17_4 1_555 1_555
C18_4 C17_4 1_555 1_555
H15_4 C18_4 1_555 1_555
C19_4 C18_4 1_555 1_555
C20_4 C19_4 1_555 1_555
H16_4 C20_4 1_555 1_555
C21_4 C16_4 1_555 1_555
H17_4 C21_4 1_555 1_555
C22_4 N7_4 1_555 1_555
H18_4 C22_4 1_555 1_555
C23_4 N7_4 1_555 1_555
C24_4 N8_2 1_555 1_555
C2_4 C3_3 1_555 1_555
C8_3 C9_3 1_555 1_555
C14_4 C15_4 1_555 1_555
C20_4 C21_4 1_555 1_555
C23_4 C24_4 1_555 1_555
N2_4 C1_4 1_555 1_555
N3_4 C7_4 1_555 1_555
N4_2 C10_4 1_555 1_555
H1_4 C1_4 1_555 1_555
C3_4 N2_4 1_555 1_555
H3_4 C3_4 1_555 1_555
C4_4 N2_4 1_555 1_555
C5_4 C4_4 1_555 1_555
H4_4 C5_4 1_555 1_555
C6_4 C5_4 1_555 1_555
H5_4 C6_4 1_555 1_555
C7_4 C6_4 1_555 1_555
C8_4 C7_4 1_555 1_555
H6_4 C8_4 1_555 1_555
C9_4 C4_4 1_555 1_555
H7_4 C9_4 1_555 1_555
C10_4 N3_4 1_555 1_555
H8_4 C10_4 1_555 1_555
C11_4 N4_2 1_555 1_555
H9_4 C11_4 1_555 1_555
C12_4 N3_4 1_555 1_555
H10_4 C12_4 1_555 1_555
C8_4 C9_4 1_555 1_555
C11_4 C12_4 1_555 1_555

#END
