
###############################################################################
#
# This file contains modified crystal structure data generated from the
# MOF subset of the Cambridge Structural Database (CSD) v543 
# hosted by the Cambridge Crystallographic Data Centre (CCDC).
#
# This work is licensed under the Creative Commons
# Attribution-NonCommercial-ShareAlike 4.0 International License.
# To view a copy of this license, visit
# http://creativecommons.org/licenses/by-nc-sa/4.0/
# or send a letter to
# Creative Commons, PO Box 1866, Mountain View, CA 94042, USA.
#
# CIF created using the CSD Python API on 29 September 2022
# The structure has been converted into the P1 space group
# The structure has a 3D framework
# The original CSD entry QULPUL02 is in the triclinic crystal system
# The framework has been calculated to contain at least 10.0% void space
# The void calculation uses a probe of radius 1.32A, grid spacing 0.4
#
###############################################################################

data_QULPUL02
_chemical_formula_moiety         '(C48 H40 Cu3 F12 N16 Si2)n'
_symmetry_cell_setting           triclinic
_symmetry_space_group_name_H-M   'P 1'
_symmetry_Int_Tables_number      1
_space_group_name_Hall           'P 1'
loop_
_symmetry_equiv_pos_site_id
_symmetry_equiv_pos_as_xyz
1 x,y,z
_cell_length_a                   11.868(3)
_cell_length_b                   12.443(3)
_cell_length_c                   12.524(3)
_cell_angle_alpha                101.947(12)
_cell_angle_beta                 107.286(13)
_cell_angle_gamma                115.103(11)
_cell_volume                     1475.73
loop_
_atom_site_label
_atom_site_type_symbol
_atom_site_fract_x
_atom_site_fract_y
_atom_site_fract_z
N11 N 0.3129(5) 0.3987(4) 0.3625(4)
N12 N 0.1405(5) 0.2320(5) 0.2001(5)
C31 C 0.2786(6) 0.3037(6) 0.2665(6)
H26 H 0.342623 0.287576 0.246471
C32 C 0.1909(7) 0.3899(6) 0.3569(6)
H27 H 0.183724 0.446477 0.414672
C33 C 0.0836(7) 0.2883(6) 0.2567(6)
C34 C 0.0691(6) 0.1146(6) 0.0986(6)
C35 C 0.1183(7) 0.0333(6) 0.0958(6)
H29 H 0.200934 0.056713 0.161438
Cu4 Cu 0.500000 0.500000 0.500000
H22 H 0.360237 0.213773 0.014139
Cu7 Cu 0.500000 0.500000 0.000000
H18 H 0.011439 0.739143 0.769760
N9 N 0.3383(5) 0.3196(4) 0.9097(4)
N10 N 0.1754(5) 0.1484(4) 0.7467(4)
C25 C 0.2535(6) 0.2780(5) 0.7958(5)
H21 H 0.247781 0.331946 0.753405
C26 C 0.3142(7) 0.2127(5) 0.9372(6)
C27 C 0.2150(7) 0.1065(5) 0.8376(6)
H23 H 0.179159 0.019877 0.830938
C28 C 0.0843(6) 0.0719(5) 0.6222(5)
C29 C 0.0284(7) 0.1240(5) 0.5499(6)
H24 H 0.046883 0.208522 0.584755
C36 C 0.0490(7) 0.9166(6) 0.9979(6)
H30 H 0.082215 0.859354 0.997486
Cu7_2 Cu 0.500000 0.500000 1.000000
C18 C 0.0540(6) 0.9471(5) 0.5728(5)
H15 H 0.089777 0.910665 0.622890
C24 C 0.9510(7) 0.0834(6) 0.0021(6)
H20 H 0.917785 0.140646 0.002514
H28 H 0.988561 0.260857 0.230240
Si1 Si 0.34685(18) 0.59780(15) 0.72831(15)
F1 F 0.4059(4) 0.5446(3) 0.6358(3)
F2 F 0.4248(4) 0.5532(3) 0.8303(3)
F3 F 0.4941(4) 0.7433(3) 0.7901(3)
F4 F 0.2743(4) 0.6435(4) 0.6237(4)
F5 F 0.2028(4) 0.4520(4) 0.6633(4)
F6 F 0.2920(5) 0.6529(4) 0.8206(5)
N1 N 0.4635(6) 0.3317(4) 0.5191(5)
N2 N 0.3969(6) 0.1287(5) 0.4480(5)
N7 N 0.6871(5) 0.6013(4) 0.6375(4)
N8 N 0.8595(5) 0.7680(5) 0.7999(5)
C1 C 0.4779(7) 0.2454(5) 0.4554(6)
H1 H 0.539463 0.264227 0.418578
C2 C 0.3666(11) 0.2679(7) 0.5545(10)
H2 H 0.333383 0.305036 0.601919
C3 C 0.3254(12) 0.1425(7) 0.5108(11)
H3 H 0.258041 0.075602 0.522029
C4 C 0.3803(8) 0.0118(6) 0.3783(7)
C9 C 0.4367(10) 0.0121(7) 0.2961(9)
H7 H 0.487280 0.089959 0.287143
C19 C 0.7214(6) 0.6963(6) 0.7335(6)
H16 H 0.657377 0.712424 0.753529
C20 C 0.8091(7) 0.6101(6) 0.6431(6)
H17 H 0.816276 0.553523 0.585328
C21 C 0.9164(7) 0.7117(6) 0.7433(6)
C22 C 0.9309(6) 0.8854(6) 0.9014(6)
C23 C 0.8817(7) 0.9667(6) 0.9042(6)
H19 H 0.799066 0.943287 0.838562
C30 C 0.9460(6) 0.0529(5) 0.4272(5)
H25 H 0.910223 0.089335 0.377110
Si2 Si 0.65315(18) 0.40220(15) 0.27169(15)
F7 F 0.5941(4) 0.4554(3) 0.3642(3)
F8 F 0.5752(4) 0.4468(3) 0.1697(3)
F9 F 0.5059(4) 0.2567(3) 0.2099(3)
F10 F 0.7257(4) 0.3565(4) 0.3763(4)
F11 F 0.7972(4) 0.5480(4) 0.3367(4)
F12 F 0.7080(5) 0.3471(4) 0.1794(5)
N17 N 0.5365(6) 0.6683(4) 0.4809(5)
N3 N 0.3312(6) 0.6719(5) 0.1695(6)
N4 N 0.3903(6) 0.5512(4) 0.0718(5)
N5 N 0.6617(5) 0.6804(4) 0.0903(4)
N6 N 0.8246(5) 0.8516(4) 0.2533(4)
C5 C 0.3019(8) 0.8979(6) 0.3863(7)
H4 H 0.259944 0.896535 0.440244
C6 C 0.2841(7) 0.7865(6) 0.3169(7)
H5 H 0.229534 0.708003 0.322934
C7 C 0.3442(7) 0.7867(6) 0.2385(7)
C8 C 0.4197(11) 0.9006(7) 0.2277(10)
H6 H 0.460041 0.901439 0.172530
C10 C 0.4236(8) 0.6677(6) 0.1315(8)
H8 H 0.505919 0.742449 0.146383
C11 C 0.2291(10) 0.5480(7) 0.1324(9)
H9 H 0.148352 0.518949 0.145608
C12 C 0.2655(9) 0.4738(7) 0.0726(9)
H10 H 0.213276 0.382547 0.036722
C13 C 0.7465(6) 0.7220(5) 0.2042(5)
H11 H 0.752219 0.668054 0.246595
C14 C 0.6858(7) 0.7873(5) 0.0628(6)
C15 C 0.7850(7) 0.8935(5) 0.1624(6)
H13 H 0.820841 0.980123 0.169062
C16 C 0.9157(6) 0.9281(5) 0.3778(5)
C17 C 0.9716(7) 0.8760(5) 0.4501(6)
H14 H 0.953117 0.791478 0.415245
H12 H 0.639763 0.786227 0.985861
N15 N 0.6688(6) 0.3281(5) 0.8305(6)
N16 N 0.6097(6) 0.4488(4) 0.9282(5)
C41 C 0.6981(8) 0.1021(6) 0.6137(7)
H34 H 0.740056 0.103465 0.559756
C42 C 0.7159(7) 0.2135(6) 0.6831(7)
H35 H 0.770466 0.291997 0.677066
C43 C 0.6558(7) 0.2133(6) 0.7615(7)
C44 C 0.5803(11) 0.0994(7) 0.7723(10)
H36 H 0.539959 0.098561 0.827470
C46 C 0.5764(8) 0.3323(6) 0.8685(8)
H38 H 0.494081 0.257551 0.853617
C47 C 0.7709(10) 0.4520(7) 0.8676(9)
H39 H 0.851648 0.481051 0.854392
C48 C 0.7345(9) 0.5262(7) 0.9274(9)
H40 H 0.786724 0.617453 0.963278
N14 N 0.6031(6) 0.8713(5) 0.5520(5)
C37 C 0.5221(7) 0.7546(5) 0.5446(6)
H31 H 0.460537 0.735773 0.581422
C38 C 0.6334(11) 0.7321(7) 0.4455(10)
H32 H 0.666617 0.694964 0.398081
C39 C 0.6746(12) 0.8575(7) 0.4892(11)
H33 H 0.741959 0.924398 0.477971
C40 C 0.6197(8) 0.9882(6) 0.6217(7)
C45 C 0.5633(10) 0.9879(7) 0.7039(9)
H37 H 0.512720 0.910041 0.712857
loop_
_geom_bond_atom_site_label_1
_geom_bond_atom_site_label_2
_geom_bond_site_symmetry_1
_geom_bond_site_symmetry_2
N11 C31 1_555 1_555
N12 C31 1_555 1_555
C31 H26 1_555 1_555
C32 N11 1_555 1_555
H27 C32 1_555 1_555
C33 N12 1_555 1_555
C35 C34 1_555 1_555
H29 C35 1_555 1_555
Cu4 N11 1_555 1_555
N12 C34 1_555 1_555
C32 C33 1_555 1_555
N9 C25 1_555 1_555
N10 C25 1_555 1_555
C25 H21 1_555 1_555
C26 N9 1_555 1_555
C27 N10 1_555 1_555
H23 C27 1_555 1_555
C29 C28 1_555 1_555
H24 C29 1_555 1_555
H30 C36 1_555 1_555
Cu7_2 N9 1_555 1_555
N10 C28 1_555 1_555
C26 C27 1_555 1_555
H15 C18 1_555 1_555
H20 C24 1_555 1_555
Cu4 F1 1_555 1_555
Si1 F1 1_555 1_555
F2 Si1 1_555 1_555
F3 Si1 1_555 1_555
F4 Si1 1_555 1_555
F5 Si1 1_555 1_555
F6 Si1 1_555 1_555
N1 Cu4 1_555 1_555
N2 C1 1_555 1_555
N7 Cu4 1_555 1_555
N8 C19 1_555 1_555
C1 N1 1_555 1_555
H1 C1 1_555 1_555
C2 N1 1_555 1_555
H2 C2 1_555 1_555
C3 N2 1_555 1_555
H3 C3 1_555 1_555
C4 N2 1_555 1_555
C9 C4 1_555 1_555
H7 C9 1_555 1_555
C19 N7 1_555 1_555
H16 C19 1_555 1_555
C20 N7 1_555 1_555
H17 C20 1_555 1_555
C21 N8 1_555 1_555
C22 N8 1_555 1_555
C23 C22 1_555 1_555
H19 C23 1_555 1_555
H25 C30 1_555 1_555
Si2 F7 1_555 1_555
F7 Cu4 1_555 1_555
F8 Si2 1_555 1_555
F9 Si2 1_555 1_555
F10 Si2 1_555 1_555
F11 Si2 1_555 1_555
F12 Si2 1_555 1_555
Cu7 F8 1_555 1_555
Cu7_2 F2 1_555 1_555
N17 Cu4 1_555 1_555
C2 C3 1_555 1_555
C20 C21 1_555 1_555
Cu7 N4 1_555 1_555
N3 C7 1_555 1_555
N4 C10 1_555 1_555
N5 Cu7 1_555 1_555
N6 C13 1_555 1_555
H4 C5 1_555 1_555
C6 C5 1_555 1_555
H5 C6 1_555 1_555
C7 C6 1_555 1_555
C8 C7 1_555 1_555
H6 C8 1_555 1_555
C10 N3 1_555 1_555
H8 C10 1_555 1_555
C11 N3 1_555 1_555
H9 C11 1_555 1_555
C12 N4 1_555 1_555
H10 C12 1_555 1_555
C13 N5 1_555 1_555
H11 C13 1_555 1_555
C14 N5 1_555 1_555
C15 N6 1_555 1_555
H13 C15 1_555 1_555
C16 N6 1_555 1_555
C17 C16 1_555 1_555
H14 C17 1_555 1_555
C11 C12 1_555 1_555
C14 C15 1_555 1_555
N15 C43 1_555 1_555
N16 Cu7_2 1_555 1_555
H34 C41 1_555 1_555
C42 C41 1_555 1_555
H35 C42 1_555 1_555
C43 C42 1_555 1_555
C44 C43 1_555 1_555
H36 C44 1_555 1_555
C46 N15 1_555 1_555
H38 C46 1_555 1_555
C47 N15 1_555 1_555
H39 C47 1_555 1_555
C48 N16 1_555 1_555
H40 C48 1_555 1_555
N16 C46 1_555 1_555
C47 C48 1_555 1_555
N17 C37 1_555 1_555
N14 C37 1_555 1_555
C37 H31 1_555 1_555
C38 N17 1_555 1_555
H32 C38 1_555 1_555
C39 N14 1_555 1_555
H33 C39 1_555 1_555
C40 N14 1_555 1_555
C45 C40 1_555 1_555
H37 C45 1_555 1_555
C38 C39 1_555 1_555

#END
