
###############################################################################
#
# This file contains modified crystal structure data generated from the
# MOF subset of the Cambridge Structural Database (CSD) v543 
# hosted by the Cambridge Crystallographic Data Centre (CCDC).
#
# This work is licensed under the Creative Commons
# Attribution-NonCommercial-ShareAlike 4.0 International License.
# To view a copy of this license, visit
# http://creativecommons.org/licenses/by-nc-sa/4.0/
# or send a letter to
# Creative Commons, PO Box 1866, Mountain View, CA 94042, USA.
#
# CIF created using the CSD Python API on 29 September 2022
# The structure has been converted into the P1 space group
# The structure has a 3D framework
# The original CSD entry QULPUL03 is in the monoclinic crystal system
# The framework has been calculated to contain at least 10.0% void space
# The void calculation uses a probe of radius 1.32A, grid spacing 0.4
#
###############################################################################

data_QULPUL03
_chemical_formula_moiety         '(C96 H80 Cu6 F24 N32 Si12)n'
_symmetry_cell_setting           triclinic
_symmetry_space_group_name_H-M   'P 1'
_symmetry_Int_Tables_number      1
_space_group_name_Hall           'P 1'
loop_
_symmetry_equiv_pos_site_id
_symmetry_equiv_pos_as_xyz
1 x,y,z
_cell_length_a                   12.755(4)
_cell_length_b                   25.512(7)
_cell_length_c                   13.024(4)
_cell_angle_alpha                90
_cell_angle_beta                 117.474(7)
_cell_angle_gamma                90
_cell_volume                     3760.11
loop_
_atom_site_label
_atom_site_type_symbol
_atom_site_fract_x
_atom_site_fract_y
_atom_site_fract_z
H4 H 0.3362 0.0456 0.0437
Cu1 Cu 0.2500 0.2500 0.0000
F1 F 0.1000(3) 0.19493(15) 0.0179(3)
F2 F 0.1000(3) 0.10083(16) 0.0197(4)
Si1 Si -0.0000 0.14815(10) 0.0000
F6 F 0.0434(3) 0.14827(16) 0.1449(3)
N9 N 0.2029(5) 0.3102(2) 0.0685(4)
N10 N 0.3624(4) 0.2249(2) 0.1591(4)
C1 C 0.2735(5) 0.1408(3) 0.9331(6)
H1 H 0.2245 0.1280 0.9627
C2 C 0.3656(9) 0.1924(4) 0.8792(9)
H2 H 0.3949 0.2232 0.8641
C3 C 0.3867(11) 0.1426(4) 0.8509(11)
H3 H 0.4319 0.1335 0.8145
C4 C 0.3320(12) 0.0270(3) 0.9805(11)
C5 C 0.3256(6) 0.0535(3) 0.8828(7)
C6 C 0.3461(10) 0.0277(3) 0.8094(10)
H5 H 0.3611 0.0456 0.7554
C10 C 0.0397(6) 0.2506(2) 0.7745(5)
H8 H 0.0184 0.2180 0.7909
C11 C 0.1352(5) 0.3220(3) 0.7860(6)
H9 H 0.1940 0.3475 0.8135
C12 C 0.0345(5) 0.3247(3) 0.6874(5)
H10 H 0.0103 0.3523 0.6347
Cu1_2 Cu 0.2500 0.2500 1.0000
N1 N 0.2971(5) 0.1898(2) 0.9315(4)
N2 N 0.3269(5) 0.1102(2) 0.8878(5)
N3 N 0.1376(4) 0.2751(2) 0.8409(4)
Si1_2 Si -0.0000 0.14815(10) 1.0000
F7 F 0.4000(3) 0.30507(15) 0.9821(3)
H14 H 0.3362 0.9544 0.0437
Cu4 Cu 0.2500 0.7500 0.0000
C13 C 0.2735(5) 0.8592(3) 0.9331(6)
H11 H 0.2245 0.8720 0.9627
C14 C 0.3656(9) 0.8076(4) 0.8792(9)
H12 H 0.3949 0.7768 0.8641
C15 C 0.3867(11) 0.8574(4) 0.8509(11)
H13 H 0.4319 0.8665 0.8145
C16 C 0.3320(12) 0.9730(3) 0.9805(11)
C17 C 0.3256(6) 0.9465(3) 0.8828(7)
C18 C 0.3461(10) 0.9723(3) 0.8094(10)
H15 H 0.3611 0.9544 0.7554
N5 N 0.2971(5) 0.8102(2) 0.9315(4)
N6 N 0.3269(5) 0.8898(2) 0.8878(5)
Cu4_2 Cu 0.2500 0.7500 1.0000
Si1_3 Si 1.0000 0.14815(10) 0.0000
Cu3 Cu 0.7500 0.2500 0.0000
C7 C 0.7924(6) 0.2261(3) 0.6068(6)
H6 H 0.8207 0.2102 0.6789
C8 C 0.8584(5) 0.2638(3) 0.5879(5)
C9 C 0.8156(5) 0.2878(3) 0.4815(6)
H7 H 0.8601 0.3137 0.4693
F3 F 0.9566(3) 0.14827(16) 0.8551(3)
N4 N 0.9731(4) 0.2792(2) 0.6783(4)
Si1_4 Si 1.0000 0.14815(10) 1.0000
C19 C 0.7076(6) 0.2739(3) 0.3932(6)
H16 H 0.6793 0.2898 0.3211
C20 C 0.6416(5) 0.2362(3) 0.4121(5)
C21 C 0.6844(5) 0.2122(3) 0.5185(6)
H17 H 0.6399 0.1863 0.5307
C22 C 0.4603(6) 0.2494(2) 0.2255(5)
H18 H 0.4816 0.2820 0.2091
C23 C 0.3648(5) 0.1780(3) 0.2140(6)
H19 H 0.3060 0.1525 0.1865
C24 C 0.4655(5) 0.1753(3) 0.3126(5)
H20 H 0.4897 0.1477 0.3653
N8 N 0.5269(4) 0.2208(2) 0.3217(4)
F4 F 0.9000(3) 0.19493(15) 0.9821(3)
F5 F 0.9000(3) 0.10083(16) 0.9803(4)
Cu3_2 Cu 0.7500 0.2500 1.0000
C7_2 C 0.2076(6) 0.2261(3) 0.3932(6)
H6_2 H 0.1793 0.2102 0.3211
C8_2 C 0.1416(5) 0.2638(3) 0.4121(5)
C9_2 C 0.1844(5) 0.2878(3) 0.5185(6)
H7_2 H 0.1399 0.3137 0.5307
N4_2 N 0.0269(4) 0.2792(2) 0.3217(4)
C19_2 C 0.2924(6) 0.2739(3) 0.6068(6)
H16_2 H 0.3207 0.2898 0.6789
C20_2 C 0.3584(5) 0.2362(3) 0.5879(5)
C21_2 C 0.3156(5) 0.2122(3) 0.4815(6)
H17_2 H 0.3601 0.1863 0.4693
C22_2 C 0.5397(6) 0.2494(2) 0.7745(5)
H18_2 H 0.5184 0.2820 0.7909
C23_2 C 0.6352(5) 0.1780(3) 0.7860(6)
H19_2 H 0.6940 0.1525 0.8135
C24_2 C 0.5345(5) 0.1753(3) 0.6874(5)
H20_2 H 0.5103 0.1477 0.6347
N7 N 0.6376(4) 0.2249(2) 0.8409(4)
N8_2 N 0.4731(4) 0.2208(2) 0.6783(4)
C1_2 C 0.7265(5) 0.1408(3) 0.0669(6)
H1_2 H 0.7755 0.1280 0.0373
C2_2 C 0.6344(9) 0.1924(4) 0.1208(9)
H2_2 H 0.6051 0.2232 0.1359
C3_2 C 0.6133(11) 0.1426(4) 0.1491(11)
H3_2 H 0.5681 0.1335 0.1855
C4_2 C 0.6680(12) 0.0270(3) 0.0195(11)
C5_2 C 0.6744(6) 0.0535(3) 0.1172(7)
C6_2 C 0.6539(10) 0.0277(3) 0.1906(10)
H5_2 H 0.6389 0.0456 0.2446
C10_2 C 0.9603(6) 0.2506(2) 0.2255(5)
H8_2 H 0.9816 0.2180 0.2091
C11_2 C 0.8648(5) 0.3220(3) 0.2140(6)
H9_2 H 0.8060 0.3475 0.1865
C12_2 C 0.9655(5) 0.3247(3) 0.3126(5)
H10_2 H 0.9897 0.3523 0.3653
N1_2 N 0.7029(5) 0.1898(2) 0.0685(4)
N2_2 N 0.6731(5) 0.1102(2) 0.1122(5)
N3_2 N 0.8624(4) 0.2751(2) 0.1591(4)
F7_2 F 0.6000(3) 0.30507(15) 0.0179(3)
H4_2 H 0.6638 0.0456 0.9563
N9_2 N 0.7971(5) 0.3102(2) 0.9315(4)
C13_2 C 0.7265(5) 0.8592(3) 0.0669(6)
H11_2 H 0.7755 0.8720 0.0373
C14_2 C 0.6344(9) 0.8076(4) 0.1208(9)
H12_2 H 0.6051 0.7768 0.1359
C15_2 C 0.6133(11) 0.8574(4) 0.1491(11)
H13_2 H 0.5681 0.8665 0.1855
C16_2 C 0.6680(12) 0.9730(3) 0.0195(11)
C17_2 C 0.6744(6) 0.9465(3) 0.1172(7)
C18_2 C 0.6539(10) 0.9723(3) 0.1906(10)
H15_2 H 0.6389 0.9544 0.2446
N5_2 N 0.7029(5) 0.8102(2) 0.0685(4)
N6_2 N 0.6731(5) 0.8898(2) 0.1122(5)
Cu4_3 Cu 0.7500 0.7500 0.0000
H14_2 H 0.6638 0.9544 0.9563
Cu4_4 Cu 0.7500 0.7500 1.0000
H4_3 H 0.8362 0.5456 0.0437
F1_2 F 0.6000(3) 0.69493(15) 0.0179(3)
F2_2 F 0.6000(3) 0.60083(16) 0.0197(4)
Si1_5 Si 0.5000 0.64815(10) 0.0000
H14_3 H 0.8362 0.4544 0.0437
F6_2 F 0.5434(3) 0.64827(16) 0.1449(3)
N10_2 N 0.8624(4) 0.7249(2) 0.1591(4)
C1_3 C 0.7735(5) 0.6408(3) 0.9331(6)
H1_3 H 0.7245 0.6280 0.9627
C2_3 C 0.8656(9) 0.6924(4) 0.8792(9)
H2_3 H 0.8949 0.7232 0.8641
C3_3 C 0.8867(11) 0.6426(4) 0.8509(11)
H3_3 H 0.9319 0.6335 0.8145
C4_3 C 0.8320(12) 0.5270(3) 0.9805(11)
C5_3 C 0.8256(6) 0.5535(3) 0.8828(7)
C6_3 C 0.8461(10) 0.5277(3) 0.8094(10)
H5_3 H 0.8611 0.5456 0.7554
C7_3 C 0.2924(6) 0.7261(3) 0.6068(6)
H6_3 H 0.3207 0.7102 0.6789
C8_3 C 0.3584(5) 0.7638(3) 0.5879(5)
C9_3 C 0.3156(5) 0.7878(3) 0.4815(6)
H7_3 H 0.3601 0.8137 0.4693
C10_3 C 0.5397(6) 0.7506(2) 0.7745(5)
H8_3 H 0.5184 0.7180 0.7909
C11_3 C 0.6352(5) 0.8220(3) 0.7860(6)
H9_3 H 0.6940 0.8475 0.8135
C12_3 C 0.5345(5) 0.8247(3) 0.6874(5)
H10_3 H 0.5103 0.8523 0.6347
F3_2 F 0.4566(3) 0.64827(16) 0.8551(3)
N1_3 N 0.7971(5) 0.6898(2) 0.9315(4)
N2_3 N 0.8269(5) 0.6102(2) 0.8878(5)
N3_3 N 0.6376(4) 0.7751(2) 0.8409(4)
N4_3 N 0.4731(4) 0.7792(2) 0.6783(4)
Si1_6 Si 0.5000 0.64815(10) 1.0000
C13_3 C 0.7735(5) 0.3592(3) 0.9331(6)
H11_3 H 0.7245 0.3720 0.9627
C14_3 C 0.8656(9) 0.3076(4) 0.8792(9)
H12_3 H 0.8949 0.2768 0.8641
C15_3 C 0.8867(11) 0.3574(4) 0.8509(11)
H13_3 H 0.9319 0.3665 0.8145
C16_3 C 0.8320(12) 0.4730(3) 0.9805(11)
C17_3 C 0.8256(6) 0.4465(3) 0.8828(7)
C18_3 C 0.8461(10) 0.4723(3) 0.8094(10)
H15_3 H 0.8611 0.4544 0.7554
N6_3 N 0.8269(5) 0.3898(2) 0.8878(5)
C19_3 C 0.2076(6) 0.7739(3) 0.3932(6)
H16_3 H 0.1793 0.7898 0.3211
C20_3 C 0.1416(5) 0.7362(3) 0.4121(5)
C21_3 C 0.1844(5) 0.7122(3) 0.5185(6)
H17_3 H 0.1399 0.6863 0.5307
N8_3 N 0.0269(4) 0.7208(2) 0.3217(4)
F4_2 F 0.4000(3) 0.69493(15) 0.9821(3)
F5_2 F 0.4000(3) 0.60083(16) 0.9803(4)
F7_3 F 0.9000(3) 0.80507(15) 0.9821(3)
C22_3 C 0.9603(6) 0.7494(2) 0.2255(5)
H18_3 H 0.9816 0.7820 0.2091
C23_3 C 0.8648(5) 0.6780(3) 0.2140(6)
H19_3 H 0.8060 0.6525 0.1865
C24_3 C 0.9655(5) 0.6753(3) 0.3126(5)
H20_3 H 0.9897 0.6477 0.3653
C22_4 C 0.0397(6) 0.7494(2) 0.7745(5)
H18_4 H 0.0184 0.7820 0.7909
C23_4 C 0.1352(5) 0.6780(3) 0.7860(6)
H19_4 H 0.1940 0.6525 0.8135
C24_4 C 0.0345(5) 0.6753(3) 0.6874(5)
H20_4 H 0.0103 0.6477 0.6347
N7_2 N 0.1376(4) 0.7249(2) 0.8409(4)
C1_4 C 0.2265(5) 0.6408(3) 0.0669(6)
H1_4 H 0.2755 0.6280 0.0373
C2_4 C 0.1344(9) 0.6924(4) 0.1208(9)
H2_4 H 0.1051 0.7232 0.1359
C3_4 C 0.1133(11) 0.6426(4) 0.1491(11)
H3_4 H 0.0681 0.6335 0.1855
C4_4 C 0.1680(12) 0.5270(3) 0.0195(11)
C5_4 C 0.1744(6) 0.5535(3) 0.1172(7)
C6_4 C 0.1539(10) 0.5277(3) 0.1906(10)
H5_4 H 0.1389 0.5456 0.2446
C7_4 C 0.7076(6) 0.7261(3) 0.3932(6)
H6_4 H 0.6793 0.7102 0.3211
C8_4 C 0.6416(5) 0.7638(3) 0.4121(5)
C9_4 C 0.6844(5) 0.7878(3) 0.5185(6)
H7_4 H 0.6399 0.8137 0.5307
C10_4 C 0.4603(6) 0.7506(2) 0.2255(5)
H8_4 H 0.4816 0.7180 0.2091
C11_4 C 0.3648(5) 0.8220(3) 0.2140(6)
H9_4 H 0.3060 0.8475 0.1865
C12_4 C 0.4655(5) 0.8247(3) 0.3126(5)
H10_4 H 0.4897 0.8523 0.3653
N1_4 N 0.2029(5) 0.6898(2) 0.0685(4)
N2_4 N 0.1731(5) 0.6102(2) 0.1122(5)
N3_4 N 0.3624(4) 0.7751(2) 0.1591(4)
N4_4 N 0.5269(4) 0.7792(2) 0.3217(4)
C13_4 C 0.2265(5) 0.3592(3) 0.0669(6)
H11_4 H 0.2755 0.3720 0.0373
C14_4 C 0.1344(9) 0.3076(4) 0.1208(9)
H12_4 H 0.1051 0.2768 0.1359
C15_4 C 0.1133(11) 0.3574(4) 0.1491(11)
H13_4 H 0.0681 0.3665 0.1855
C16_4 C 0.1680(12) 0.4730(3) 0.0195(11)
C17_4 C 0.1744(6) 0.4465(3) 0.1172(7)
C18_4 C 0.1539(10) 0.4723(3) 0.1906(10)
H15_4 H 0.1389 0.4544 0.2446
N6_4 N 0.1731(5) 0.3898(2) 0.1122(5)
C19_4 C 0.7924(6) 0.7739(3) 0.6068(6)
H16_4 H 0.8207 0.7898 0.6789
C20_4 C 0.8584(5) 0.7362(3) 0.5879(5)
C21_4 C 0.8156(5) 0.7122(3) 0.4815(6)
H17_4 H 0.8601 0.6863 0.4693
N8_4 N 0.9731(4) 0.7208(2) 0.6783(4)
F7_4 F 0.1000(3) 0.80507(15) 0.0179(3)
H4_4 H 0.1638 0.5456 0.9563
H14_4 H 0.1638 0.4544 0.9563
F3_3 F 0.0434(3) 0.85173(16) 0.1449(3)
Si1_7 Si 0.0000 0.85185(10) 0.0000
F5_3 F 0.1000(3) 0.89917(16) 0.0197(4)
Si1_8 Si 0.0000 0.85185(10) 1.0000
Si1_9 Si 1.0000 0.85185(10) 0.0000
F2_3 F 0.9000(3) 0.89917(16) 0.9803(4)
Si1_10 Si 1.0000 0.85185(10) 1.0000
F6_3 F 0.9566(3) 0.85173(16) 0.8551(3)
F3_4 F 0.5434(3) 0.35173(16) 0.1449(3)
Si1_11 Si 0.5000 0.35185(10) 0.0000
F5_4 F 0.6000(3) 0.39917(16) 0.0197(4)
F2_4 F 0.4000(3) 0.39917(16) 0.9803(4)
Si1_12 Si 0.5000 0.35185(10) 1.0000
F6_4 F 0.4566(3) 0.35173(16) 0.8551(3)
loop_
_geom_bond_atom_site_label_1
_geom_bond_atom_site_label_2
_geom_bond_site_symmetry_1
_geom_bond_site_symmetry_2
Cu1 F1 1_555 1_555
F1 Si1 1_555 1_555
F2 Si1 1_555 1_555
F6 Si1 1_555 1_555
N9 Cu1 1_555 1_555
N10 Cu1 1_555 1_555
C1 H1 1_555 1_555
C2 H2 1_555 1_555
C3 C2 1_555 1_555
H3 C3 1_555 1_555
C5 C4 1_555 1_555
C6 C5 1_555 1_555
H5 C6 1_555 1_555
C10 H8 1_555 1_555
C11 H9 1_555 1_555
C12 C11 1_555 1_555
H10 C12 1_555 1_555
N1 C1 1_555 1_555
N2 C1 1_555 1_555
N3 C10 1_555 1_555
F7 Cu1_2 1_555 1_555
C2 N1 1_555 1_555
C3 N2 1_555 1_555
C5 N2 1_555 1_555
C11 N3 1_555 1_555
Cu1_2 N1 1_555 1_555
Cu1_2 N3 1_555 1_555
C13 H11 1_555 1_555
C14 H12 1_555 1_555
C15 C14 1_555 1_555
H13 C15 1_555 1_555
C17 C16 1_555 1_555
H15 C18 1_555 1_555
N5 C13 1_555 1_555
N6 C13 1_555 1_555
Cu4_2 N5 1_555 1_555
C14 N5 1_555 1_555
C15 N6 1_555 1_555
C17 C18 1_555 1_555
C17 N6 1_555 1_555
C7 H6 1_555 1_555
C8 C7 1_555 1_555
C9 C8 1_555 1_555
H7 C9 1_555 1_555
F3 Si1_4 1_555 1_555
N4 C8 1_555 1_555
Si1_4 F4 1_555 1_555
C19 C9 1_555 1_555
H16 C19 1_555 1_555
C20 C19 1_555 1_555
C21 C7 1_555 1_555
H17 C21 1_555 1_555
C22 H18 1_555 1_555
C23 H19 1_555 1_555
C24 C23 1_555 1_555
H20 C24 1_555 1_555
N10 C22 1_555 1_555
N8 C20 1_555 1_555
F4 Cu3_2 1_555 1_555
F5 Si1_4 1_555 1_555
C20 C21 1_555 1_555
C22 N8 1_555 1_555
C23 N10 1_555 1_555
C24 N8 1_555 1_555
C7_2 H6_2 1_555 1_555
C8_2 C7_2 1_555 1_555
C9_2 C8_2 1_555 1_555
H7_2 C9_2 1_555 1_555
N4_2 C8_2 1_555 1_555
C19_2 C9_2 1_555 1_555
H16_2 C19_2 1_555 1_555
C20_2 C19_2 1_555 1_555
C21_2 C7_2 1_555 1_555
H17_2 C21_2 1_555 1_555
C22_2 H18_2 1_555 1_555
C23_2 H19_2 1_555 1_555
C24_2 C23_2 1_555 1_555
H20_2 C24_2 1_555 1_555
N7 C22_2 1_555 1_555
N8_2 C20_2 1_555 1_555
Cu3_2 N7 1_555 1_555
C20_2 C21_2 1_555 1_555
C22_2 N8_2 1_555 1_555
C23_2 N7 1_555 1_555
C24_2 N8_2 1_555 1_555
C1_2 H1_2 1_555 1_555
C2_2 H2_2 1_555 1_555
C3_2 C2_2 1_555 1_555
H3_2 C3_2 1_555 1_555
C5_2 C4_2 1_555 1_555
C6_2 C5_2 1_555 1_555
H5_2 C6_2 1_555 1_555
C10_2 H8_2 1_555 1_555
C11_2 H9_2 1_555 1_555
C12_2 C11_2 1_555 1_555
H10_2 C12_2 1_555 1_555
N1_2 C1_2 1_555 1_555
N2_2 C1_2 1_555 1_555
N3_2 C10_2 1_555 1_555
F7_2 Cu3 1_555 1_555
C2_2 N1_2 1_555 1_555
C3_2 N2_2 1_555 1_555
C5_2 N2_2 1_555 1_555
C11_2 N3_2 1_555 1_555
Cu3 N1_2 1_555 1_555
Cu3 N3_2 1_555 1_555
N9_2 Cu3_2 1_555 1_555
C13_2 H11_2 1_555 1_555
C14_2 H12_2 1_555 1_555
C15_2 C14_2 1_555 1_555
H13_2 C15_2 1_555 1_555
C17_2 C16_2 1_555 1_555
H15_2 C18_2 1_555 1_555
N5_2 C13_2 1_555 1_555
N6_2 C13_2 1_555 1_555
Cu4_3 N5_2 1_555 1_555
C14_2 N5_2 1_555 1_555
C15_2 N6_2 1_555 1_555
C17_2 C18_2 1_555 1_555
C17_2 N6_2 1_555 1_555
Cu4_3 F1_2 1_555 1_555
F1_2 Si1_5 1_555 1_555
F2_2 Si1_5 1_555 1_555
F6_2 Si1_5 1_555 1_555
N10_2 Cu4_3 1_555 1_555
C1_3 H1_3 1_555 1_555
C2_3 H2_3 1_555 1_555
C3_3 C2_3 1_555 1_555
H3_3 C3_3 1_555 1_555
C5_3 C4_3 1_555 1_555
C6_3 C5_3 1_555 1_555
H5_3 C6_3 1_555 1_555
C7_3 H6_3 1_555 1_555
C8_3 C7_3 1_555 1_555
C9_3 C8_3 1_555 1_555
H7_3 C9_3 1_555 1_555
C10_3 H8_3 1_555 1_555
C11_3 H9_3 1_555 1_555
C12_3 C11_3 1_555 1_555
H10_3 C12_3 1_555 1_555
F3_2 Si1_6 1_555 1_555
N1_3 C1_3 1_555 1_555
N2_3 C1_3 1_555 1_555
N3_3 C10_3 1_555 1_555
N4_3 C8_3 1_555 1_555
Si1_6 F4_2 1_555 1_555
C13_3 H11_3 1_555 1_555
C14_3 H12_3 1_555 1_555
C15_3 C14_3 1_555 1_555
H13_3 C15_3 1_555 1_555
C16_3 C4_3 1_555 1_555
C17_3 C16_3 1_555 1_555
C18_3 C6_3 1_555 1_555
H15_3 C18_3 1_555 1_555
N9_2 C13_3 1_555 1_555
N6_3 C13_3 1_555 1_555
C19_3 C9_3 1_555 1_555
H16_3 C19_3 1_555 1_555
C20_3 C19_3 1_555 1_555
C21_3 C7_3 1_555 1_555
H17_3 C21_3 1_555 1_555
N8_3 C20_3 1_555 1_555
F4_2 Cu4_2 1_555 1_555
F5_2 Si1_6 1_555 1_555
F7_3 Cu4_4 1_555 1_555
C2_3 N1_3 1_555 1_555
C3_3 N2_3 1_555 1_555
C5_3 N2_3 1_555 1_555
C10_3 N4_3 1_555 1_555
C11_3 N3_3 1_555 1_555
C12_3 N4_3 1_555 1_555
Cu4_4 N1_3 1_555 1_555
Cu4_4 N3_3 1_555 1_555
C14_3 N9_2 1_555 1_555
C15_3 N6_3 1_555 1_555
C17_3 C18_3 1_555 1_555
C17_3 N6_3 1_555 1_555
C20_3 C21_3 1_555 1_555
C22_3 H18_3 1_555 1_555
C23_3 H19_3 1_555 1_555
C24_3 C23_3 1_555 1_555
H20_3 C24_3 1_555 1_555
N10_2 C22_3 1_555 1_555
C23_3 N10_2 1_555 1_555
C22_4 H18_4 1_555 1_555
C23_4 H19_4 1_555 1_555
C24_4 C23_4 1_555 1_555
H20_4 C24_4 1_555 1_555
N7_2 C22_4 1_555 1_555
Cu4_2 N7_2 1_555 1_555
C23_4 N7_2 1_555 1_555
C1_4 H1_4 1_555 1_555
C2_4 H2_4 1_555 1_555
C3_4 C2_4 1_555 1_555
H3_4 C3_4 1_555 1_555
C5_4 C4_4 1_555 1_555
C6_4 C5_4 1_555 1_555
H5_4 C6_4 1_555 1_555
C7_4 H6_4 1_555 1_555
C8_4 C7_4 1_555 1_555
C9_4 C8_4 1_555 1_555
H7_4 C9_4 1_555 1_555
C10_4 H8_4 1_555 1_555
C11_4 H9_4 1_555 1_555
C12_4 C11_4 1_555 1_555
H10_4 C12_4 1_555 1_555
N1_4 C1_4 1_555 1_555
N2_4 C1_4 1_555 1_555
N3_4 C10_4 1_555 1_555
N4_4 C8_4 1_555 1_555
C13_4 H11_4 1_555 1_555
C14_4 H12_4 1_555 1_555
C15_4 C14_4 1_555 1_555
H13_4 C15_4 1_555 1_555
C16_4 C4_4 1_555 1_555
C17_4 C16_4 1_555 1_555
C18_4 C6_4 1_555 1_555
H15_4 C18_4 1_555 1_555
N9 C13_4 1_555 1_555
N6_4 C13_4 1_555 1_555
C19_4 C9_4 1_555 1_555
H16_4 C19_4 1_555 1_555
C20_4 C19_4 1_555 1_555
C21_4 C7_4 1_555 1_555
H17_4 C21_4 1_555 1_555
N8_4 C20_4 1_555 1_555
F7_4 Cu4 1_555 1_555
C2_4 N1_4 1_555 1_555
C3_4 N2_4 1_555 1_555
C5_4 N2_4 1_555 1_555
C10_4 N4_4 1_555 1_555
C11_4 N3_4 1_555 1_555
C12_4 N4_4 1_555 1_555
Cu4 N1_4 1_555 1_555
Cu4 N3_4 1_555 1_555
C14_4 N9 1_555 1_555
C15_4 N6_4 1_555 1_555
C17_4 C18_4 1_555 1_555
C17_4 N6_4 1_555 1_555
C20_4 C21_4 1_555 1_555
F3_3 Si1_7 1_555 1_555
Si1_7 F7_4 1_555 1_555
F5_3 Si1_7 1_555 1_555
F7_3 Si1_10 1_555 1_555
F2_3 Si1_10 1_555 1_555
F6_3 Si1_10 1_555 1_555
F3_4 Si1_11 1_555 1_555
Si1_11 F7_2 1_555 1_555
F5_4 Si1_11 1_555 1_555
F7 Si1_12 1_555 1_555
F2_4 Si1_12 1_555 1_555
F6_4 Si1_12 1_555 1_555

#END
