
###############################################################################
#
# This file contains modified crystal structure data generated from the
# MOF subset of the Cambridge Structural Database (CSD) v543 
# hosted by the Cambridge Crystallographic Data Centre (CCDC).
#
# This work is licensed under the Creative Commons
# Attribution-NonCommercial-ShareAlike 4.0 International License.
# To view a copy of this license, visit
# http://creativecommons.org/licenses/by-nc-sa/4.0/
# or send a letter to
# Creative Commons, PO Box 1866, Mountain View, CA 94042, USA.
#
# CIF created using the CSD Python API on 29 September 2022
# The structure has been converted into the P1 space group
# The structure has a 3D framework
# The original CSD entry QUPHEP is in the orthorhombic crystal system
# The original CSD entry QUPHEP is in a Sohncke space group
# The framework has been calculated to contain at least 10.0% void space
# The void calculation uses a probe of radius 1.32A, grid spacing 0.4
#
###############################################################################

data_QUPHEP
_chemical_formula_moiety         '(C84 H64 Cd1 N8 O28)n'
_symmetry_cell_setting           triclinic
_symmetry_space_group_name_H-M   'P 1'
_symmetry_Int_Tables_number      1
_space_group_name_Hall           'P 1'
loop_
_symmetry_equiv_pos_site_id
_symmetry_equiv_pos_as_xyz
1 x,y,z
_cell_length_a                   15.2269(15)
_cell_length_b                   17.7296(17)
_cell_length_c                   9.0861(9)
_cell_angle_alpha                90
_cell_angle_beta                 90
_cell_angle_gamma                90
_cell_volume                     2452.95
loop_
_atom_site_label
_atom_site_type_symbol
_atom_site_fract_x
_atom_site_fract_y
_atom_site_fract_z
C20 C 0.1468(4) 0.2989(4) 0.0455(8)
H14 H 0.1278 0.2587 0.1030
N2 N 0.2318(3) 0.3216(3) 0.0565(6)
Cd3 Cd 0.32590(3) 0.24543(3) 0.18317(5)
C1 C 0.0230(4) 0.8151(4) 0.7432(8)
H6 H 0.1919 0.5799 0.9463
Cd1 Cd 0.17410(3) 0.74543(3) 0.81683(5)
O1 O 0.0522(3) 0.8311(3) 0.8672(6)
O2 O 0.0565(3) 0.7649(2) 0.6712(6)
C22 C 0.5230(4) 0.6849(4) 0.2568(8)
C23 C 0.4425(4) 0.6459(3) 0.3163(9)
C24 C 0.3945(4) 0.6775(4) 0.4313(8)
H17 H 0.4099 0.7246 0.4683
C25 C 0.3235(5) 0.6389(3) 0.4908(7)
C26 C 0.3057(4) 0.5672(4) 0.4408(8)
H18 H 0.2611 0.5396 0.4856
C27 C 0.3517(4) 0.5352(3) 0.3270(9)
C28 C 0.4215(5) 0.5756(4) 0.2612(9)
H19 H 0.4526 0.5553 0.1826
C29 C 0.2733(4) 0.6732(4) 0.6131(7)
Cd6 Cd 0.67410(3) 0.75457(3) 0.18317(5)
N5 N 0.2682(3) 0.8216(3) 0.9435(6)
O8 O 0.5522(3) 0.6689(3) 0.1328(6)
O10 O 0.5565(3) 0.7351(2) 0.3288(6)
O12 O 0.2803(3) 0.7412(3) 0.6368(5)
O14 O 0.2201(3) 0.6330(2) 0.6868(6)
O16 O 0.3302(3) 0.4654(3) 0.2721(5)
H32 H 0.3737 0.4462 0.2343
O5 O 0.8302(3) 0.0346(3) 0.7279(5)
H16 H 0.8737 0.0538 0.7657
C40 C 0.8532(4) 0.7011(4) 0.0455(8)
H30 H 0.8722 0.7413 0.1030
N4 N 0.7682(3) 0.6784(3) 0.0565(6)
C2 C 0.9425(4) 0.8541(3) 0.6837(9)
C3 C 0.8945(4) 0.8225(4) 0.5687(8)
H1 H 0.9099 0.7754 0.5317
C4 C 0.8235(5) 0.8611(3) 0.5092(7)
C5 C 0.8057(4) 0.9328(4) 0.5592(8)
H2 H 0.7611 0.9604 0.5144
C6 C 0.8517(4) 0.9648(3) 0.6730(9)
C7 C 0.9215(5) 0.9244(4) 0.7388(9)
H3 H 0.9526 0.9447 0.8174
C8 C 0.7733(4) 0.8268(4) 0.3869(7)
O3 O 0.7803(3) 0.7588(3) 0.3632(5)
O4 O 0.7201(3) 0.8670(2) 0.3132(6)
H22 H 0.8081 0.4201 0.9463
Cd2 Cd 0.82590(3) 0.25457(3) 0.81683(5)
N6 N 0.7318(3) 0.1784(3) 0.9435(6)
O9 O 0.9478(3) 0.1689(3) 0.8672(6)
O11 O 0.9435(3) 0.2351(2) 0.6712(6)
O13 O 0.7197(3) 0.2588(3) 0.6368(5)
O15 O 0.7799(3) 0.3670(2) 0.6868(6)
C2_2 C 0.0575(4) 0.1459(3) 0.6837(9)
C3_2 C 0.1055(4) 0.1775(4) 0.5687(8)
H1_2 H 0.0901 0.2246 0.5317
C4_2 C 0.1765(5) 0.1389(3) 0.5092(7)
C5_2 C 0.1943(4) 0.0672(4) 0.5592(8)
H2_2 H 0.2389 0.0396 0.5144
C6_2 C 0.1483(4) 0.0352(3) 0.6730(9)
C7_2 C 0.0785(5) 0.0756(4) 0.7388(9)
H3_2 H 0.0474 0.0553 0.8174
C8_2 C 0.2267(4) 0.1732(4) 0.3869(7)
O3_2 O 0.2197(3) 0.2412(3) 0.3632(5)
O4_2 O 0.2799(3) 0.1330(2) 0.3132(6)
O5_2 O 0.1698(3) 0.9654(3) 0.7279(5)
H16_2 H 0.1263 0.9462 0.7657
C1_2 C 0.9770(4) 0.1849(4) 0.7432(8)
C22_2 C 0.4770(4) 0.3151(4) 0.2568(8)
C23_2 C 0.5575(4) 0.3541(3) 0.3163(9)
C24_2 C 0.6055(4) 0.3225(4) 0.4313(8)
H17_2 H 0.5901 0.2754 0.4683
C25_2 C 0.6765(5) 0.3611(3) 0.4908(7)
C26_2 C 0.6943(4) 0.4328(4) 0.4408(8)
H18_2 H 0.7389 0.4604 0.4856
C27_2 C 0.6483(4) 0.4648(3) 0.3270(9)
C28_2 C 0.5785(5) 0.4244(4) 0.2612(9)
H19_2 H 0.5474 0.4447 0.1826
C29_2 C 0.7267(4) 0.3268(4) 0.6131(7)
O8_2 O 0.4478(3) 0.3311(3) 0.1328(6)
O10_2 O 0.4435(3) 0.2649(2) 0.3288(6)
O16_2 O 0.6698(3) 0.5346(3) 0.2721(5)
H32_2 H 0.6263 0.5538 0.2343
H22_2 H 0.3081 0.0799 0.0537
C20_2 C 0.6468(4) 0.2011(4) 0.9545(8)
H14_2 H 0.6278 0.2413 0.8970
H6_2 H 0.6919 0.9201 0.0537
C40_2 C 0.3532(4) 0.7989(4) 0.9545(8)
H30_2 H 0.3722 0.7587 0.8970
C9 C 0.1122(4) 0.7060(4) 0.1441(8)
H4 H 0.1024 0.7577 0.1443
C10 C 0.0889(5) 0.6658(4) 0.2682(8)
H5 H 0.0631 0.6895 0.3488
C11 C 0.1652(5) 0.6021(4) 0.0274(8)
C12 C 0.1448(5) 0.5575(4) 0.1468(8)
H7 H 0.1577 0.5062 0.1453
C13 C 0.1053(4) 0.5890(4) 0.2681(7)
C14 C 0.0244(4) 0.5687(4) 0.4878(7)
H9 H 0.0516 0.6073 0.5481
C15 C 0.0000 0.5000 0.5819(9)
C16 C 0.0796(4) 0.4799(3) 0.6779(8)
H10 H 0.1292 0.4662 0.6164
H11 H 0.0963 0.5228 0.7381
C17 C 0.1163(4) 0.3900(4) 0.8589(7)
C18 C 0.2028(4) 0.4124(4) 0.8669(8)
H12 H 0.2238 0.4510 0.8074
C19 C 0.2577(4) 0.3761(3) 0.9652(7)
H13 H 0.3164 0.3907 0.9678
C21 C 0.0885(4) 0.3329(4) 0.9533(8)
H15 H 0.0299 0.3180 0.9534
N1 N 0.1483(4) 0.6754(3) 0.0233(6)
O6 O 0.0847(3) 0.5422(3) 0.3785(5)
O7 O 0.0551(3) 0.4184(3) 0.7682(5)
H24 H 0.0275 0.4102 0.4417
H8 H 0.9725 0.5898 0.4417
C15_2 C 1.0000 0.5000 0.5819(9)
C30 C 0.8878(4) 0.2940(4) 0.1441(8)
H20 H 0.8976 0.2423 0.1443
C31 C 0.9111(5) 0.3342(4) 0.2682(8)
H21 H 0.9369 0.3105 0.3488
C32 C 0.8348(5) 0.3979(4) 0.0274(8)
C33 C 0.8552(5) 0.4425(4) 0.1468(8)
H23 H 0.8423 0.4938 0.1453
C34 C 0.8947(4) 0.4110(4) 0.2681(7)
C35 C 0.9756(4) 0.4313(4) 0.4878(7)
H25 H 0.9484 0.3927 0.5481
C36 C 0.9204(4) 0.5201(3) 0.6779(8)
H26 H 0.8708 0.5338 0.6164
H27 H 0.9037 0.4772 0.7381
C37 C 0.8837(4) 0.6100(4) 0.8589(7)
C38 C 0.7972(4) 0.5876(4) 0.8669(8)
H28 H 0.7762 0.5490 0.8074
C39 C 0.7423(4) 0.6239(3) 0.9652(7)
H29 H 0.6836 0.6093 0.9678
C41 C 0.9115(4) 0.6671(4) 0.9533(8)
H31 H 0.9701 0.6820 0.9534
N3 N 0.8517(4) 0.3246(3) 0.0233(6)
O17 O 0.9153(3) 0.4578(3) 0.3785(5)
O18 O 0.9449(3) 0.5816(3) 0.7682(5)
C15_3 C 0.5000 0.0000 0.4181(9)
C16_2 C 0.5796(4) 0.0201(3) 0.3221(8)
H10_2 H 0.6292 0.0338 0.3836
C17_2 C 0.6163(4) 0.1100(4) 0.1411(7)
C18_2 C 0.7028(4) 0.0876(4) 0.1331(8)
H12_2 H 0.7238 0.0490 0.1926
C19_2 C 0.7577(4) 0.1239(3) 0.0348(7)
H13_2 H 0.8164 0.1093 0.0322
C21_2 C 0.5885(4) 0.1671(4) 0.0467(8)
H15_2 H 0.5299 0.1820 0.0466
O7_2 O 0.5551(3) 0.0816(3) 0.2318(5)
C30_2 C 0.3878(4) 0.2060(4) 0.8559(8)
H20_2 H 0.3976 0.2577 0.8557
C31_2 C 0.4111(5) 0.1658(4) 0.7318(8)
H21_2 H 0.4369 0.1895 0.6512
C32_2 C 0.3348(5) 0.1021(4) 0.9726(8)
C33_2 C 0.3552(5) 0.0575(4) 0.8532(8)
H23_2 H 0.3423 0.0062 0.8547
C34_2 C 0.3947(4) 0.0890(4) 0.7319(7)
C35_2 C 0.4756(4) 0.0687(4) 0.5122(7)
H24_2 H 0.5275 0.0898 0.5583
H25_2 H 0.4484 0.1073 0.4519
H27_2 H 0.4037 0.0228 0.2619
N3_2 N 0.3517(4) 0.1754(3) 0.9767(6)
O17_2 O 0.4153(3) 0.0422(3) 0.6215(5)
C9_2 C 0.6122(4) 0.7940(4) 0.8559(8)
H4_2 H 0.6024 0.7423 0.8557
C10_2 C 0.5889(5) 0.8342(4) 0.7318(8)
H5_2 H 0.5631 0.8105 0.6512
C11_2 C 0.6652(5) 0.8979(4) 0.9726(8)
C12_2 C 0.6448(5) 0.9425(4) 0.8532(8)
H7_2 H 0.6577 0.9938 0.8547
C13_2 C 0.6053(4) 0.9110(4) 0.7319(7)
C14_2 C 0.5244(4) 0.9313(4) 0.5122(7)
H8_2 H 0.4725 0.9102 0.5583
H9_2 H 0.5516 0.8927 0.4519
C15_4 C 0.5000 1.0000 0.4181(9)
H11_2 H 0.5963 0.9772 0.2619
N1_2 N 0.6483(4) 0.8246(3) 0.9767(6)
O6_2 O 0.5847(3) 0.9578(3) 0.6215(5)
C36_2 C 0.4204(4) 0.9799(3) 0.3221(8)
H26_2 H 0.3708 0.9662 0.3836
C37_2 C 0.3837(4) 0.8900(4) 0.1411(7)
C38_2 C 0.2972(4) 0.9124(4) 0.1331(8)
H28_2 H 0.2762 0.9510 0.1926
C39_2 C 0.2423(4) 0.8761(3) 0.0348(7)
H29_2 H 0.1836 0.8907 0.0322
C41_2 C 0.4115(4) 0.8329(4) 0.0467(8)
H31_2 H 0.4701 0.8180 0.0466
O18_2 O 0.4449(3) 0.9184(3) 0.2318(5)
loop_
_geom_bond_atom_site_label_1
_geom_bond_atom_site_label_2
_geom_bond_site_symmetry_1
_geom_bond_site_symmetry_2
C20 H14 1_555 1_555
Cd3 N2 1_555 1_555
C20 N2 1_555 1_555
O1 C1 1_555 1_555
O2 C1 1_555 1_555
C22 C23 1_555 1_555
C23 C24 1_555 1_555
C24 H17 1_555 1_555
C25 C24 1_555 1_555
C26 C25 1_555 1_555
H18 C26 1_555 1_555
C27 C26 1_555 1_555
C28 C23 1_555 1_555
H19 C28 1_555 1_555
C29 C25 1_555 1_555
Cd6 O8 1_555 1_555
N5 Cd1 1_555 1_555
O8 C22 1_555 1_555
O10 C22 1_555 1_555
O12 Cd1 1_555 1_555
O14 Cd1 1_555 1_555
O16 C27 1_555 1_555
H32 O16 1_555 1_555
Cd1 O1 1_555 1_555
Cd1 O2 1_555 1_555
C27 C28 1_555 1_555
C29 O12 1_555 1_555
C29 O14 1_555 1_555
Cd6 O10 1_555 1_555
H16 O5 1_555 1_555
C40 H30 1_555 1_555
Cd6 N4 1_555 1_555
C40 N4 1_555 1_555
C2 C3 1_555 1_555
C3 H1 1_555 1_555
C4 C3 1_555 1_555
C5 C4 1_555 1_555
H2 C5 1_555 1_555
C6 C5 1_555 1_555
C7 C2 1_555 1_555
H3 C7 1_555 1_555
C8 C4 1_555 1_555
O3 C8 1_555 1_555
O4 C8 1_555 1_555
Cd6 O3 1_555 1_555
N6 Cd2 1_555 1_555
O9 Cd2 1_555 1_555
O11 Cd2 1_555 1_555
O13 Cd2 1_555 1_555
O15 Cd2 1_555 1_555
C6 C7 1_555 1_555
O4 Cd6 1_555 1_555
C2_2 C3_2 1_555 1_555
C3_2 H1_2 1_555 1_555
C4_2 C3_2 1_555 1_555
C5_2 C4_2 1_555 1_555
H2_2 C5_2 1_555 1_555
C6_2 C5_2 1_555 1_555
C7_2 C2_2 1_555 1_555
H3_2 C7_2 1_555 1_555
C8_2 C4_2 1_555 1_555
O3_2 C8_2 1_555 1_555
O4_2 C8_2 1_555 1_555
Cd3 O3_2 1_555 1_555
C6_2 C7_2 1_555 1_555
O4_2 Cd3 1_555 1_555
H16_2 O5_2 1_555 1_555
O9 C1_2 1_555 1_555
O11 C1_2 1_555 1_555
C22_2 C23_2 1_555 1_555
C23_2 C24_2 1_555 1_555
C24_2 H17_2 1_555 1_555
C25_2 C24_2 1_555 1_555
C26_2 C25_2 1_555 1_555
H18_2 C26_2 1_555 1_555
C27_2 C26_2 1_555 1_555
C28_2 C23_2 1_555 1_555
H19_2 C28_2 1_555 1_555
C29_2 C25_2 1_555 1_555
Cd3 O8_2 1_555 1_555
O8_2 C22_2 1_555 1_555
O10_2 C22_2 1_555 1_555
O16_2 C27_2 1_555 1_555
H32_2 O16_2 1_555 1_555
C27_2 C28_2 1_555 1_555
C29_2 O13 1_555 1_555
C29_2 O15 1_555 1_555
Cd3 O10_2 1_555 1_555
C20_2 H14_2 1_555 1_555
C20_2 N6 1_555 1_555
C40_2 H30_2 1_555 1_555
C40_2 N5 1_555 1_555
C9 H4 1_555 1_555
C10 C9 1_555 1_555
H5 C10 1_555 1_555
C12 C11 1_555 1_555
H7 C12 1_555 1_555
C13 C10 1_555 1_555
H9 C14 1_555 1_555
C15 C14 1_555 1_555
C16 C15 1_555 1_555
H10 C16 1_555 1_555
H11 C16 1_555 1_555
C17 C18 1_555 1_555
C18 H12 1_555 1_555
C19 C18 1_555 1_555
H13 C19 1_555 1_555
C21 C17 1_555 1_555
H15 C21 1_555 1_555
N1 C9 1_555 1_555
O6 C13 1_555 1_555
O7 C16 1_555 1_555
C11 N1 1_555 1_555
C12 C13 1_555 1_555
C14 O6 1_555 1_555
C17 O7 1_555 1_555
C30 H20 1_555 1_555
C31 C30 1_555 1_555
H21 C31 1_555 1_555
C33 C32 1_555 1_555
H23 C33 1_555 1_555
C34 C31 1_555 1_555
C35 C15_2 1_555 1_555
H25 C35 1_555 1_555
C36 C15_2 1_555 1_555
H26 C36 1_555 1_555
H27 C36 1_555 1_555
C37 C38 1_555 1_555
C38 H28 1_555 1_555
C39 C38 1_555 1_555
H29 C39 1_555 1_555
C41 C37 1_555 1_555
H31 C41 1_555 1_555
N3 C30 1_555 1_555
O17 C34 1_555 1_555
O18 C36 1_555 1_555
C32 N3 1_555 1_555
C33 C34 1_555 1_555
C35 O17 1_555 1_555
C37 O18 1_555 1_555
C16_2 C15_3 1_555 1_555
H10_2 C16_2 1_555 1_555
C17_2 C18_2 1_555 1_555
C18_2 H12_2 1_555 1_555
C19_2 C18_2 1_555 1_555
H13_2 C19_2 1_555 1_555
C21_2 C17_2 1_555 1_555
H15_2 C21_2 1_555 1_555
O7_2 C16_2 1_555 1_555
C30_2 H20_2 1_555 1_555
C31_2 C30_2 1_555 1_555
H21_2 C31_2 1_555 1_555
C33_2 C32_2 1_555 1_555
H23_2 C33_2 1_555 1_555
C34_2 C31_2 1_555 1_555
C35_2 C15_3 1_555 1_555
H24_2 C35_2 1_555 1_555
H25_2 C35_2 1_555 1_555
N3_2 C30_2 1_555 1_555
O17_2 C34_2 1_555 1_555
C17_2 O7_2 1_555 1_555
C32_2 N3_2 1_555 1_555
C33_2 C34_2 1_555 1_555
C35_2 O17_2 1_555 1_555
C9_2 H4_2 1_555 1_555
C10_2 C9_2 1_555 1_555
H5_2 C10_2 1_555 1_555
C12_2 C11_2 1_555 1_555
H7_2 C12_2 1_555 1_555
C13_2 C10_2 1_555 1_555
C14_2 H8_2 1_555 1_555
H9_2 C14_2 1_555 1_555
C15_4 C14_2 1_555 1_555
N1_2 C9_2 1_555 1_555
O6_2 C13_2 1_555 1_555
C36_2 C15_4 1_555 1_555
H26_2 C36_2 1_555 1_555
C37_2 C38_2 1_555 1_555
C38_2 H28_2 1_555 1_555
C39_2 C38_2 1_555 1_555
H29_2 C39_2 1_555 1_555
C41_2 C37_2 1_555 1_555
H31_2 C41_2 1_555 1_555
O18_2 C36_2 1_555 1_555
C11_2 N1_2 1_555 1_555
C12_2 C13_2 1_555 1_555
C14_2 O6_2 1_555 1_555
C37_2 O18_2 1_555 1_555

#END
