
###############################################################################
#
# This file contains modified crystal structure data generated from the
# MOF subset of the Cambridge Structural Database (CSD) v543 
# hosted by the Cambridge Crystallographic Data Centre (CCDC).
#
# This work is licensed under the Creative Commons
# Attribution-NonCommercial-ShareAlike 4.0 International License.
# To view a copy of this license, visit
# http://creativecommons.org/licenses/by-nc-sa/4.0/
# or send a letter to
# Creative Commons, PO Box 1866, Mountain View, CA 94042, USA.
#
# CIF created using the CSD Python API on 29 September 2022
# The structure has been converted into the P1 space group
# The structure has a 3D framework
# The original CSD entry QUPZIM02 is in the tetragonal crystal system
# The framework has been calculated to contain at least 10.0% void space
# The void calculation uses a probe of radius 1.32A, grid spacing 0.4
#
###############################################################################

data_QUPZIM02
_chemical_formula_moiety         '(C56 H32 Fe2 N16)n'
_symmetry_cell_setting           triclinic
_symmetry_space_group_name_H-M   'P 1'
_symmetry_Int_Tables_number      1
_space_group_name_Hall           'P 1'
loop_
_symmetry_equiv_pos_site_id
_symmetry_equiv_pos_as_xyz
1 x,y,z
_cell_length_a                   13.41
_cell_length_b                   13.41
_cell_length_c                   7.2
_cell_angle_alpha                90
_cell_angle_beta                 90
_cell_angle_gamma                90
_cell_volume                     1294.76
loop_
_atom_site_label
_atom_site_type_symbol
_atom_site_fract_x
_atom_site_fract_y
_atom_site_fract_z
_atom_site_U_iso_or_equiv
_atom_site_thermal_displace_type
Fe4 Fe 0.000 0.000 0.250 0.0633 Uiso
Fe3 Fe 0.000 0.000 0.750 0.0633 Uiso
C2 C 0.000 0.288218 0.000 0.0633 Uiso
C3 C 0.000 0.396346 0.000 0.0633 Uiso
C6 C 0.000 0.711782 0.000 0.0633 Uiso
C7 C 0.000 0.603654 0.000 0.0633 Uiso
C9 C 0.000 0.228606 0.152814 0.0633 Uiso
C10 C 0.000 0.448173 0.167191 0.0633 Uiso
N3 N 0.000 0.132153 0.094444 0.0633 Uiso
H5 H 0.000 0.250498 0.278301 0.0633 Uiso
H6 H 0.000 0.412752 0.281458 0.0633 Uiso
C11 C 0.000 0.771394 0.152814 0.0633 Uiso
C12 C 0.000 0.551827 0.167191 0.0633 Uiso
N4 N 0.000 0.867847 0.094444 0.0633 Uiso
H7 H 0.000 0.749502 0.278301 0.0633 Uiso
H8 H 0.000 0.587248 0.281458 0.0633 Uiso
Fe4_2 Fe 0.000 1.000 0.250 0.0633 Uiso
N7 N 0.132153 0.000 0.405556 0.0633 Uiso
C1 C -0.000 0.228606 0.847186 0.0633 Uiso
C2_2 C 0.000 0.288218 1.000 0.0633 Uiso
C3_2 C 0.000 0.396346 1.000 0.0633 Uiso
C4 C 0.000 0.448173 0.832809 0.0633 Uiso
N1 N 0.000 0.132153 0.905556 0.0633 Uiso
H1 H 0.000 0.250498 0.721699 0.0633 Uiso
H2 H 0.000 0.412752 0.718542 0.0633 Uiso
C5 C 0.000 0.771394 0.847186 0.0633 Uiso
C6_2 C 0.000 0.711782 1.000 0.0633 Uiso
C7_2 C 0.000 0.603654 1.000 0.0633 Uiso
C8 C 0.000 0.551827 0.832809 0.0633 Uiso
N2 N 0.000 0.867847 0.905556 0.0633 Uiso
H3 H 0.000 0.749502 0.721699 0.0633 Uiso
H4 H 0.000 0.587248 0.718542 0.0633 Uiso
Fe3_2 Fe 0.000 1.000 0.750 0.0633 Uiso
N7_2 N 0.132153 1.000 0.405556 0.0633 Uiso
Fe4_3 Fe 1.000 0.000 0.250 0.0633 Uiso
Fe3_3 Fe 1.000 0.000 0.750 0.0633 Uiso
C2_3 C 1.000 0.288218 0.000 0.0633 Uiso
C3_3 C 1.000 0.396346 0.000 0.0633 Uiso
C6_3 C 1.000 0.711782 0.000 0.0633 Uiso
C7_3 C 1.000 0.603654 0.000 0.0633 Uiso
C9_2 C 1.000 0.228606 0.152814 0.0633 Uiso
C10_2 C 1.000 0.448173 0.167191 0.0633 Uiso
N3_2 N 1.000 0.132153 0.094444 0.0633 Uiso
H5_2 H 1.000 0.250498 0.278301 0.0633 Uiso
H6_2 H 1.000 0.412752 0.281458 0.0633 Uiso
C11_2 C 1.000 0.771394 0.152814 0.0633 Uiso
C12_2 C 1.000 0.551827 0.167191 0.0633 Uiso
N4_2 N 1.000 0.867847 0.094444 0.0633 Uiso
H7_2 H 1.000 0.749502 0.278301 0.0633 Uiso
H8_2 H 1.000 0.587248 0.281458 0.0633 Uiso
Fe4_4 Fe 1.000 1.000 0.250 0.0633 Uiso
N6 N 0.867847 0.000 0.405556 0.0633 Uiso
C1_2 C 1.000 0.228606 0.847186 0.0633 Uiso
C2_4 C 1.000 0.288218 1.000 0.0633 Uiso
C3_4 C 1.000 0.396346 1.000 0.0633 Uiso
C4_2 C 1.000 0.448173 0.832809 0.0633 Uiso
N1_2 N 1.000 0.132153 0.905556 0.0633 Uiso
H1_2 H 1.000 0.250498 0.721699 0.0633 Uiso
H2_2 H 1.000 0.412752 0.718542 0.0633 Uiso
C5_2 C 1.000 0.771394 0.847186 0.0633 Uiso
C6_4 C 1.000 0.711782 1.000 0.0633 Uiso
C7_4 C 1.000 0.603654 1.000 0.0633 Uiso
C8_2 C 1.000 0.551827 0.832809 0.0633 Uiso
N2_2 N 1.000 0.867847 0.905556 0.0633 Uiso
H3_2 H 1.000 0.749502 0.721699 0.0633 Uiso
H4_2 H 1.000 0.587248 0.718542 0.0633 Uiso
Fe3_4 Fe 1.000 1.000 0.750 0.0633 Uiso
N6_2 N 0.867847 1.000 0.405556 0.0633 Uiso
N6_3 N 0.132153 0.000 0.594444 0.0633 Uiso
N6_4 N 0.132153 1.000 0.594444 0.0633 Uiso
N7_3 N 0.867847 0.000 0.594444 0.0633 Uiso
N7_4 N 0.867847 1.000 0.594444 0.0633 Uiso
C1_3 C 0.771394 0.000 0.652814 0.0633 Uiso
C2_5 C 0.711782 0.000 0.500 0.0633 Uiso
C3_5 C 0.603654 0.000 0.500 0.0633 Uiso
C4_3 C 0.551827 0.000 0.667191 0.0633 Uiso
H1_3 H 0.749502 0.000 0.778301 0.0633 Uiso
H2_3 H 0.587248 0.000 0.781458 0.0633 Uiso
C5_3 C 0.228606 0.000 0.652814 0.0633 Uiso
C6_5 C 0.288218 -0.000 0.500 0.0633 Uiso
C7_5 C 0.396346 -0.000 0.500 0.0633 Uiso
C8_3 C 0.448173 0.000 0.667191 0.0633 Uiso
H3_3 H 0.250498 -0.000 0.778301 0.0633 Uiso
H4_3 H 0.412752 -0.000 0.781458 0.0633 Uiso
C9_3 C 0.771394 0.000 0.347186 0.0633 Uiso
C10_3 C 0.551827 -0.000 0.332809 0.0633 Uiso
H5_3 H 0.749502 0.000 0.221699 0.0633 Uiso
H6_3 H 0.587248 -0.000 0.218542 0.0633 Uiso
C11_3 C 0.228606 -0.000 0.347186 0.0633 Uiso
C12_3 C 0.448173 -0.000 0.332809 0.0633 Uiso
H7_3 H 0.250498 -0.000 0.221699 0.0633 Uiso
H8_3 H 0.412752 -0.000 0.218542 0.0633 Uiso
C1_4 C 0.771394 1.000 0.652814 0.0633 Uiso
C2_6 C 0.711782 1.000 0.500 0.0633 Uiso
C3_6 C 0.603654 1.000 0.500 0.0633 Uiso
C4_4 C 0.551827 1.000 0.667191 0.0633 Uiso
H1_4 H 0.749502 1.000 0.778301 0.0633 Uiso
H2_4 H 0.587248 1.000 0.781458 0.0633 Uiso
C5_4 C 0.228606 1.000 0.652814 0.0633 Uiso
C6_6 C 0.288218 1.000 0.500 0.0633 Uiso
C7_6 C 0.396346 1.000 0.500 0.0633 Uiso
C8_4 C 0.448173 1.000 0.667191 0.0633 Uiso
H3_4 H 0.250498 1.000 0.778301 0.0633 Uiso
H4_4 H 0.412752 1.000 0.781458 0.0633 Uiso
C9_4 C 0.771394 1.000 0.347186 0.0633 Uiso
C10_4 C 0.551827 1.000 0.332809 0.0633 Uiso
H5_4 H 0.749502 1.000 0.221699 0.0633 Uiso
H6_4 H 0.587248 1.000 0.218542 0.0633 Uiso
C11_4 C 0.228606 1.000 0.347186 0.0633 Uiso
C12_4 C 0.448173 1.000 0.332809 0.0633 Uiso
H7_4 H 0.250498 1.000 0.221699 0.0633 Uiso
H8_4 H 0.412752 1.000 0.218542 0.0633 Uiso
loop_
_geom_bond_atom_site_label_1
_geom_bond_atom_site_label_2
_geom_bond_site_symmetry_1
_geom_bond_site_symmetry_2
Fe4 N3 1_555 1_555
C2 C3 1_555 1_555
C6 C7 1_555 1_555
C9 C2 1_555 1_555
C10 C3 1_555 1_555
H5 C9 1_555 1_555
H6 C10 1_555 1_555
C11 C6 1_555 1_555
C12 C7 1_555 1_555
H7 C11 1_555 1_555
H8 C12 1_555 1_555
Fe4_2 N4 1_555 1_555
N7 Fe4 1_555 1_555
C9 N3 1_555 1_555
C10 C12 1_555 1_555
C11 N4 1_555 1_555
C1 C2_2 1_555 1_555
C2_2 C3_2 1_555 1_555
C3_2 C4 1_555 1_555
C4 H2 1_555 1_555
N1 C1 1_555 1_555
H1 C1 1_555 1_555
C5 C6_2 1_555 1_555
C6_2 C7_2 1_555 1_555
C7_2 C8 1_555 1_555
C8 C4 1_555 1_555
N2 C5 1_555 1_555
H3 C5 1_555 1_555
H4 C8 1_555 1_555
Fe3 N1 1_555 1_555
Fe3_2 N2 1_555 1_555
N7_2 Fe4_2 1_555 1_555
Fe4_3 N3_2 1_555 1_555
C2_3 C3_3 1_555 1_555
C6_3 C7_3 1_555 1_555
C9_2 C2_3 1_555 1_555
C10_2 C3_3 1_555 1_555
H5_2 C9_2 1_555 1_555
H6_2 C10_2 1_555 1_555
C11_2 C6_3 1_555 1_555
C12_2 C7_3 1_555 1_555
H7_2 C11_2 1_555 1_555
H8_2 C12_2 1_555 1_555
Fe4_4 N4_2 1_555 1_555
N6 Fe4_3 1_555 1_555
C9_2 N3_2 1_555 1_555
C10_2 C12_2 1_555 1_555
C11_2 N4_2 1_555 1_555
C1_2 C2_4 1_555 1_555
C2_4 C3_4 1_555 1_555
C3_4 C4_2 1_555 1_555
C4_2 H2_2 1_555 1_555
N1_2 C1_2 1_555 1_555
H1_2 C1_2 1_555 1_555
C5_2 C6_4 1_555 1_555
C6_4 C7_4 1_555 1_555
C7_4 C8_2 1_555 1_555
C8_2 C4_2 1_555 1_555
N2_2 C5_2 1_555 1_555
H3_2 C5_2 1_555 1_555
H4_2 C8_2 1_555 1_555
Fe3_3 N1_2 1_555 1_555
Fe3_4 N2_2 1_555 1_555
N6_2 Fe4_4 1_555 1_555
N6_3 Fe3 1_555 1_555
N6_4 Fe3_2 1_555 1_555
N7_3 Fe3_3 1_555 1_555
N7_4 Fe3_4 1_555 1_555
C1_3 C2_5 1_555 1_555
C2_5 C3_5 1_555 1_555
C3_5 C4_3 1_555 1_555
C4_3 H2_3 1_555 1_555
N7_3 C1_3 1_555 1_555
H1_3 C1_3 1_555 1_555
C5_3 C6_5 1_555 1_555
C6_5 C7_5 1_555 1_555
C7_5 C8_3 1_555 1_555
C8_3 C4_3 1_555 1_555
N6_3 C5_3 1_555 1_555
H3_3 C5_3 1_555 1_555
H4_3 C8_3 1_555 1_555
C9_3 C2_5 1_555 1_555
C10_3 C3_5 1_555 1_555
N6 N7_3 1_555 1_555
H5_3 C9_3 1_555 1_555
H6_3 C10_3 1_555 1_555
C11_3 C6_5 1_555 1_555
C12_3 C7_5 1_555 1_555
N7 N6_3 1_555 1_555
H7_3 C11_3 1_555 1_555
H8_3 C12_3 1_555 1_555
C9_3 N6 1_555 1_555
C10_3 C12_3 1_555 1_555
C11_3 N7 1_555 1_555
C1_4 C2_6 1_555 1_555
C2_6 C3_6 1_555 1_555
C3_6 C4_4 1_555 1_555
C4_4 H2_4 1_555 1_555
N7_4 C1_4 1_555 1_555
H1_4 C1_4 1_555 1_555
C5_4 C6_6 1_555 1_555
C6_6 C7_6 1_555 1_555
C7_6 C8_4 1_555 1_555
C8_4 C4_4 1_555 1_555
N6_4 C5_4 1_555 1_555
H3_4 C5_4 1_555 1_555
H4_4 C8_4 1_555 1_555
C9_4 C2_6 1_555 1_555
C10_4 C3_6 1_555 1_555
N6_2 N7_4 1_555 1_555
H5_4 C9_4 1_555 1_555
H6_4 C10_4 1_555 1_555
C11_4 C6_6 1_555 1_555
C12_4 C7_6 1_555 1_555
N7_2 N6_4 1_555 1_555
H7_4 C11_4 1_555 1_555
H8_4 C12_4 1_555 1_555
C9_4 N6_2 1_555 1_555
C10_4 C12_4 1_555 1_555
C11_4 N7_2 1_555 1_555

#END
