
###############################################################################
#
# This file contains modified crystal structure data generated from the
# MOF subset of the Cambridge Structural Database (CSD) v543 
# hosted by the Cambridge Crystallographic Data Centre (CCDC).
#
# This work is licensed under the Creative Commons
# Attribution-NonCommercial-ShareAlike 4.0 International License.
# To view a copy of this license, visit
# http://creativecommons.org/licenses/by-nc-sa/4.0/
# or send a letter to
# Creative Commons, PO Box 1866, Mountain View, CA 94042, USA.
#
# CIF created using the CSD Python API on 29 September 2022
# The structure has been converted into the P1 space group
# The structure has a 3D framework
# The original CSD entry QUQBAH is in the monoclinic crystal system
# The framework has been calculated to contain at least 10.0% void space
# The void calculation uses a probe of radius 1.32A, grid spacing 0.4
#
###############################################################################

data_QUQBAH
_chemical_formula_moiety         '(C96 H64 Fe8 N32)n'
_symmetry_cell_setting           triclinic
_symmetry_space_group_name_H-M   'P 1'
_symmetry_Int_Tables_number      1
_space_group_name_Hall           'P 1'
loop_
_symmetry_equiv_pos_site_id
_symmetry_equiv_pos_as_xyz
1 x,y,z
_cell_length_a                   13.4333(4)
_cell_length_b                   13.8493(4)
_cell_length_c                   26.7477(9)
_cell_angle_alpha                90
_cell_angle_beta                 101.5505(18)
_cell_angle_gamma                90
_cell_volume                     4875.42
loop_
_atom_site_label
_atom_site_type_symbol
_atom_site_fract_x
_atom_site_fract_y
_atom_site_fract_z
Fe1 Fe 0.47925(4) 0.36603(4) 0.22908(2)
Fe2 Fe 0.48841(4) 0.61244(3) 0.25751(2)
N1 N 0.4704(3) 0.7971(2) 0.69680(11)
N2 N 0.4975(2) 0.7017(2) 0.70269(11)
N3 N 0.5013(2) 0.6797(2) 0.32583(10)
N6 N 0.5197(2) 0.7767(2) 0.33012(11)
N7 N 0.3512(2) 0.4426(2) 0.22759(12)
N8 N 0.3611(2) 0.5332(2) 0.24901(11)
C1 C 0.2679(3) 0.5620(3) 0.25456(14)
H1 H 0.2535 0.6219 0.2689
C2 C 0.1958(3) 0.4913(3) 0.23616(14)
C3 C 0.2531(3) 0.4171(3) 0.21996(14)
H2 H 0.2262 0.3575 0.2057
C4 C 0.0853(3) 0.4928(3) 0.23573(15)
C5 C 0.0434(3) 0.5675(3) 0.25957(16)
H3 H 0.0857 0.6185 0.2753
C9 C 0.0226(3) 0.4192(3) 0.21284(16)
H6 H 0.0503 0.3681 0.1962
C13 C 0.4875(3) 0.6466(3) 0.37133(14)
H9 H 0.4745 0.5812 0.3786
C14 C 0.4951(3) 0.7216(3) 0.40601(13)
C15 C 0.5163(3) 0.8023(3) 0.37836(14)
H10 H 0.5266 0.8659 0.3917
C16 C 0.4854(3) 0.7220(3) 0.45981(14)
C17 C 0.5108(3) 0.6425(3) 0.49144(14)
H11 H 0.5321 0.5845 0.4778
C18 C 0.5056(3) 0.6464(3) 0.54290(14)
H12 H 0.5240 0.5913 0.5639
C19 C 0.4736(3) 0.7305(3) 0.56401(13)
C20 C 0.4437(4) 0.8089(3) 0.53168(15)
H13 H 0.4187 0.8658 0.5447
C21 C 0.4501(4) 0.8044(3) 0.48103(15)
H14 H 0.4300 0.8589 0.4598
C22 C 0.4551(3) 0.8179(3) 0.64696(14)
H15 H 0.4340 0.8791 0.6326
C23 C 0.4745(3) 0.7370(3) 0.61891(13)
C24 C 0.5007(4) 0.6659(3) 0.65635(14)
H16 H 0.5182 0.6013 0.6499
Fe4 Fe 0.52075(4) 0.86603(4) 0.27092(2)
Fe5 Fe 0.52075(4) 0.63397(4) 0.77092(2)
Fe7 Fe 0.48841(4) 0.88756(3) 0.75751(2)
N9 N 0.4704(3) 0.7029(2) 0.19680(11)
N10 N 0.5025(2) 0.2983(2) 0.29731(11)
N11 N 0.6145(2) 0.5365(2) 0.25217(12)
N12 N 0.6049(2) 0.4465(2) 0.23087(12)
N13 N 0.4803(2) 0.2767(2) 0.16988(11)
C6 C 0.9402(3) 0.5683(3) 0.26064(15)
H4 H 0.9127 0.6198 0.2770
C7 C 0.8767(3) 0.4936(3) 0.23765(15)
C8 C 0.9192(3) 0.4193(3) 0.21394(17)
H5 H 0.8774 0.3680 0.1983
C10 C 0.6974(3) 0.4202(3) 0.22255(15)
H7 H 0.7124 0.3609 0.2078
C11 C 0.7666(3) 0.4932(3) 0.23893(15)
C12 C 0.7110(3) 0.5646(3) 0.25706(15)
H8 H 0.7375 0.6246 0.2709
N4 N 0.3855(2) 0.0365(2) 0.24783(12)
C6_2 C 0.0598(3) 0.0683(3) 0.23936(15)
H4_2 H 0.0873 0.1198 0.2230
C12_2 C 0.2890(3) 0.0646(3) 0.24294(15)
H8_2 H 0.2625 0.1246 0.2291
Fe6 Fe 0.51159(4) 0.11244(3) 0.24249(2)
N5 N 0.3951(2) 0.9465(2) 0.26913(12)
C7_2 C 0.1233(3) 0.9936(3) 0.26235(15)
C8_2 C 0.0808(3) 0.9193(3) 0.28606(17)
H5_2 H 0.1226 0.8680 0.3017
C10_2 C 0.3026(3) 0.9202(3) 0.27745(15)
H7_2 H 0.2876 0.8609 0.2922
C11_2 C 0.2334(3) 0.9932(3) 0.26107(15)
N3_2 N 0.4987(2) 0.1797(2) 0.17417(10)
N8_2 N 0.6389(2) 0.0332(2) 0.25099(11)
C1_2 C 0.7321(3) 0.0620(3) 0.24544(14)
H1_2 H 0.7465 0.1219 0.2311
C5_2 C 0.9566(3) 0.0675(3) 0.24043(16)
H3_2 H 0.9143 0.1185 0.2247
C13_2 C 0.5125(3) 0.1466(3) 0.12867(14)
H9_2 H 0.5255 0.0812 0.1214
C14_2 C 0.5049(3) 0.2216(3) 0.09399(13)
C15_2 C 0.4837(3) 0.3023(3) 0.12164(14)
H10_2 H 0.4734 0.3659 0.1083
C16_2 C 0.5146(3) 0.2220(3) 0.04019(14)
C17_2 C 0.4892(3) 0.1425(3) 0.00856(14)
H11_2 H 0.4679 0.0845 0.0222
C21_2 C 0.5499(4) 0.3044(3) 0.01897(15)
H14_2 H 0.5700 0.3589 0.0402
N9_2 N 0.5296(3) 0.2029(2) 0.30320(11)
N1_2 N 0.5296(3) 0.2971(2) 0.80320(11)
N2_2 N 0.5025(2) 0.2017(2) 0.79731(11)
C18_2 C 0.4944(3) 0.1464(3) 0.95710(14)
H12_2 H 0.4760 0.0913 0.9361
C19_2 C 0.5264(3) 0.2305(3) 0.93599(13)
C20_2 C 0.5563(4) 0.3089(3) 0.96832(15)
H13_2 H 0.5813 0.3658 0.9553
C22_2 C 0.5449(3) 0.3179(3) 0.85304(14)
H15_2 H 0.5660 0.3791 0.8674
C23_2 C 0.5255(3) 0.2370(3) 0.88109(13)
C24_2 C 0.4993(4) 0.1659(3) 0.84365(14)
H16_2 H 0.4818 0.1013 0.8501
Fe5_2 Fe 0.47925(4) 0.13397(4) 0.72908(2)
Fe7_2 Fe 0.51159(4) 0.38756(3) 0.74249(2)
N7_2 N 0.6488(2) 0.9426(2) 0.27241(12)
C2_2 C 0.8042(3) 0.9913(3) 0.26384(14)
C3_2 C 0.7469(3) 0.9171(3) 0.28004(14)
H2_2 H 0.7738 0.8575 0.2943
C4_2 C 0.9147(3) 0.9928(3) 0.26427(15)
C9_2 C 0.9774(3) 0.9192(3) 0.28716(16)
H6_2 H 0.9497 0.8681 0.3038
N10_2 N 0.4975(2) 0.7983(2) 0.20269(11)
N4_2 N 0.3855(2) 0.4635(2) 0.74783(12)
N5_2 N 0.3951(2) 0.5535(2) 0.76913(12)
C6_3 C 0.0598(3) 0.4317(3) 0.73936(15)
H4_3 H 0.0873 0.3802 0.7230
C7_3 C 0.1233(3) 0.5064(3) 0.76235(15)
C8_3 C 0.0808(3) 0.5807(3) 0.78606(17)
H5_3 H 0.1226 0.6320 0.8017
C10_3 C 0.3026(3) 0.5798(3) 0.77745(15)
H7_3 H 0.2876 0.6391 0.7922
C11_3 C 0.2334(3) 0.5068(3) 0.76107(15)
C12_3 C 0.2890(3) 0.4354(3) 0.74294(15)
H8_3 H 0.2625 0.3754 0.7291
N3_3 N 0.4987(2) 0.3203(2) 0.67417(10)
N6_2 N 0.4803(2) 0.2233(2) 0.66988(11)
N7_3 N 0.6488(2) 0.5574(2) 0.77241(12)
N8_3 N 0.6389(2) 0.4668(2) 0.75099(11)
C1_3 C 0.7321(3) 0.4380(3) 0.74544(14)
H1_3 H 0.7465 0.3781 0.7311
C2_3 C 0.8042(3) 0.5087(3) 0.76384(14)
C3_3 C 0.7469(3) 0.5829(3) 0.78004(14)
H2_3 H 0.7738 0.6425 0.7943
C4_3 C 0.9147(3) 0.5072(3) 0.76427(15)
C5_3 C 0.9566(3) 0.4325(3) 0.74043(16)
H3_3 H 0.9143 0.3815 0.7247
C9_3 C 0.9774(3) 0.5808(3) 0.78716(16)
H6_3 H 0.9497 0.6319 0.8038
C13_3 C 0.5125(3) 0.3534(3) 0.62867(14)
H9_3 H 0.5255 0.4188 0.6214
C14_3 C 0.5049(3) 0.2784(3) 0.59399(13)
C15_3 C 0.4837(3) 0.1977(3) 0.62164(14)
H10_3 H 0.4734 0.1341 0.6083
C16_3 C 0.5146(3) 0.2780(3) 0.54019(14)
C17_3 C 0.4892(3) 0.3575(3) 0.50856(14)
H11_3 H 0.4679 0.4155 0.5222
C18_3 C 0.4944(3) 0.3536(3) 0.45710(14)
H12_3 H 0.4760 0.4087 0.4361
C19_3 C 0.5264(3) 0.2695(3) 0.43599(13)
C20_3 C 0.5563(4) 0.1911(3) 0.46832(15)
H13_3 H 0.5813 0.1342 0.4553
C21_3 C 0.5499(4) 0.1956(3) 0.51897(15)
H14_3 H 0.5700 0.1411 0.5402
C22_3 C 0.5449(3) 0.1821(3) 0.35304(14)
H15_3 H 0.5660 0.1209 0.3674
C23_3 C 0.5255(3) 0.2630(3) 0.38109(13)
C24_3 C 0.4993(4) 0.3341(3) 0.34365(14)
H16_3 H 0.4818 0.3987 0.3501
N13_2 N 0.5197(2) 0.7233(2) 0.83012(11)
N7_4 N 0.3512(2) 0.0574(2) 0.72759(12)
C2_4 C 0.1958(3) 0.0087(3) 0.73616(14)
C3_4 C 0.2531(3) 0.0829(3) 0.71996(14)
H2_4 H 0.2262 0.1425 0.7057
C4_4 C 0.0853(3) 0.0072(3) 0.73573(15)
C9_4 C 0.0226(3) 0.0808(3) 0.71284(16)
H6_4 H 0.0503 0.1319 0.6962
N12_2 N 0.6049(2) 0.0535(2) 0.73087(12)
C18_4 C 0.5056(3) 0.8536(3) 0.04290(14)
H12_4 H 0.5240 0.9087 0.0639
C19_4 C 0.4736(3) 0.7695(3) 0.06401(13)
C20_4 C 0.4437(4) 0.6911(3) 0.03168(15)
H13_4 H 0.4187 0.6342 0.0447
C22_4 C 0.4551(3) 0.6821(3) 0.14696(14)
H15_4 H 0.4340 0.6209 0.1326
C23_4 C 0.4745(3) 0.7630(3) 0.11891(13)
C24_4 C 0.5007(4) 0.8341(3) 0.15635(14)
H16_4 H 0.5182 0.8987 0.1499
N3_4 N 0.5013(2) 0.8203(2) 0.82583(10)
N8_4 N 0.3611(2) 0.9668(2) 0.74901(11)
C1_4 C 0.2679(3) 0.9380(3) 0.75456(14)
H1_4 H 0.2535 0.8781 0.7689
C5_4 C 0.0434(3) 0.9325(3) 0.75957(16)
H3_4 H 0.0857 0.8815 0.7753
C13_4 C 0.4875(3) 0.8534(3) 0.87133(14)
H9_4 H 0.4745 0.9188 0.8786
C14_4 C 0.4951(3) 0.7784(3) 0.90601(13)
C15_4 C 0.5163(3) 0.6977(3) 0.87836(14)
H10_4 H 0.5266 0.6341 0.8917
C16_4 C 0.4854(3) 0.7780(3) 0.95981(14)
C17_4 C 0.5108(3) 0.8575(3) 0.99144(14)
H11_4 H 0.5321 0.9155 0.9778
C21_4 C 0.4501(4) 0.6956(3) 0.98103(15)
H14_4 H 0.4300 0.6411 0.9598
N11_2 N 0.6145(2) 0.9635(2) 0.75217(12)
C7_4 C 0.8767(3) 0.0064(3) 0.73765(15)
C8_4 C 0.9192(3) 0.0807(3) 0.71394(17)
H5_4 H 0.8774 0.1320 0.6983
C10_4 C 0.6974(3) 0.0798(3) 0.72255(15)
H7_4 H 0.7124 0.1391 0.7078
C11_4 C 0.7666(3) 0.0068(3) 0.73893(15)
C6_4 C 0.9402(3) 0.9317(3) 0.76064(15)
H4_4 H 0.9127 0.8802 0.7770
C12_4 C 0.7110(3) 0.9354(3) 0.75706(15)
H8_4 H 0.7375 0.8754 0.7709
loop_
_geom_bond_atom_site_label_1
_geom_bond_atom_site_label_2
_geom_bond_site_symmetry_1
_geom_bond_site_symmetry_2
Fe1 N7 1_555 1_555
Fe2 N3 1_555 1_555
N1 N2 1_555 1_555
N2 C24 1_555 1_555
N3 N6 1_555 1_555
N6 C15 1_555 1_555
N7 N8 1_555 1_555
N8 Fe2 1_555 1_555
C1 N8 1_555 1_555
H1 C1 1_555 1_555
C2 C1 1_555 1_555
C3 N7 1_555 1_555
H2 C3 1_555 1_555
C4 C2 1_555 1_555
C5 C4 1_555 1_555
H3 C5 1_555 1_555
C9 C4 1_555 1_555
H6 C9 1_555 1_555
C13 N3 1_555 1_555
H9 C13 1_555 1_555
C14 C13 1_555 1_555
C15 C14 1_555 1_555
H10 C15 1_555 1_555
C16 C14 1_555 1_555
C17 C16 1_555 1_555
H11 C17 1_555 1_555
C18 C17 1_555 1_555
H12 C18 1_555 1_555
C19 C18 1_555 1_555
C20 C19 1_555 1_555
H13 C20 1_555 1_555
C21 C16 1_555 1_555
H14 C21 1_555 1_555
C22 N1 1_555 1_555
H15 C22 1_555 1_555
C23 C19 1_555 1_555
C24 C23 1_555 1_555
H16 C24 1_555 1_555
Fe4 N6 1_555 1_555
Fe5 N2 1_555 1_555
Fe7 N1 1_555 1_555
N9 Fe2 1_555 1_555
N10 Fe1 1_555 1_555
N11 Fe2 1_555 1_555
N12 Fe1 1_555 1_555
N13 Fe1 1_555 1_555
C2 C3 1_555 1_555
C20 C21 1_555 1_555
C22 C23 1_555 1_555
N11 N12 1_555 1_555
N12 C10 1_555 1_555
H4 C6 1_555 1_555
C7 C6 1_555 1_555
C8 C7 1_555 1_555
H5 C8 1_555 1_555
C10 H7 1_555 1_555
C11 C7 1_555 1_555
C12 N11 1_555 1_555
H8 C12 1_555 1_555
C10 C11 1_555 1_555
C11 C12 1_555 1_555
H4_2 C6_2 1_555 1_555
C12_2 N4 1_555 1_555
H8_2 C12_2 1_555 1_555
Fe6 N4 1_555 1_555
N5 C10_2 1_555 1_555
C8_2 C7_2 1_555 1_555
H5_2 C8_2 1_555 1_555
C10_2 H7_2 1_555 1_555
C11_2 C7_2 1_555 1_555
Fe4 N5 1_555 1_555
C10_2 C11_2 1_555 1_555
Fe6 N3_2 1_555 1_555
N3_2 N13 1_555 1_555
N13 C15_2 1_555 1_555
N8_2 Fe6 1_555 1_555
C1_2 N8_2 1_555 1_555
H1_2 C1_2 1_555 1_555
H3_2 C5_2 1_555 1_555
C13_2 N3_2 1_555 1_555
H9_2 C13_2 1_555 1_555
C14_2 C13_2 1_555 1_555
C15_2 C14_2 1_555 1_555
H10_2 C15_2 1_555 1_555
C16_2 C14_2 1_555 1_555
C17_2 C16_2 1_555 1_555
H11_2 C17_2 1_555 1_555
C21_2 C16_2 1_555 1_555
H14_2 C21_2 1_555 1_555
N9_2 Fe6 1_555 1_555
N1_2 N2_2 1_555 1_555
N2_2 C24_2 1_555 1_555
H12_2 C18_2 1_555 1_555
C19_2 C18_2 1_555 1_555
C20_2 C19_2 1_555 1_555
H13_2 C20_2 1_555 1_555
C22_2 N1_2 1_555 1_555
H15_2 C22_2 1_555 1_555
C23_2 C19_2 1_555 1_555
C24_2 C23_2 1_555 1_555
H16_2 C24_2 1_555 1_555
Fe5_2 N2_2 1_555 1_555
Fe7_2 N1_2 1_555 1_555
C22_2 C23_2 1_555 1_555
Fe4 N7_2 1_555 1_555
C3_2 N7_2 1_555 1_555
H2_2 C3_2 1_555 1_555
C4_2 C2_2 1_555 1_555
C9_2 C4_2 1_555 1_555
H6_2 C9_2 1_555 1_555
N10_2 Fe4 1_555 1_555
C2_2 C3_2 1_555 1_555
N4_2 N5_2 1_555 1_555
N5_2 C10_3 1_555 1_555
H4_3 C6_3 1_555 1_555
C7_3 C6_3 1_555 1_555
C8_3 C7_3 1_555 1_555
H5_3 C8_3 1_555 1_555
C10_3 H7_3 1_555 1_555
C11_3 C7_3 1_555 1_555
C12_3 N4_2 1_555 1_555
H8_3 C12_3 1_555 1_555
Fe5 N5_2 1_555 1_555
Fe7_2 N4_2 1_555 1_555
C10_3 C11_3 1_555 1_555
C11_3 C12_3 1_555 1_555
Fe5 N7_3 1_555 1_555
Fe7_2 N3_3 1_555 1_555
N9_2 N10 1_555 1_555
N10 C24_3 1_555 1_555
N3_3 N6_2 1_555 1_555
N6_2 C15_3 1_555 1_555
N7_3 N8_3 1_555 1_555
N8_3 Fe7_2 1_555 1_555
C1_3 N8_3 1_555 1_555
H1_3 C1_3 1_555 1_555
C2_3 C1_3 1_555 1_555
C3_3 N7_3 1_555 1_555
H2_3 C3_3 1_555 1_555
C4_3 C2_3 1_555 1_555
C5_3 C4_3 1_555 1_555
H3_3 C5_3 1_555 1_555
C9_3 C4_3 1_555 1_555
H6_3 C9_3 1_555 1_555
C13_3 N3_3 1_555 1_555
H9_3 C13_3 1_555 1_555
C14_3 C13_3 1_555 1_555
C15_3 C14_3 1_555 1_555
H10_3 C15_3 1_555 1_555
C16_3 C14_3 1_555 1_555
C17_3 C16_3 1_555 1_555
H11_3 C17_3 1_555 1_555
C18_3 C17_3 1_555 1_555
H12_3 C18_3 1_555 1_555
C19_3 C18_3 1_555 1_555
C20_3 C19_3 1_555 1_555
H13_3 C20_3 1_555 1_555
C21_3 C16_3 1_555 1_555
H14_3 C21_3 1_555 1_555
C22_3 N9_2 1_555 1_555
H15_3 C22_3 1_555 1_555
C23_3 C19_3 1_555 1_555
C24_3 C23_3 1_555 1_555
H16_3 C24_3 1_555 1_555
Fe5_2 N6_2 1_555 1_555
N13_2 Fe5 1_555 1_555
C2_3 C3_3 1_555 1_555
C20_3 C21_3 1_555 1_555
C22_3 C23_3 1_555 1_555
Fe5_2 N7_4 1_555 1_555
C3_4 N7_4 1_555 1_555
H2_4 C3_4 1_555 1_555
C4_4 C2_4 1_555 1_555
C9_4 C4_4 1_555 1_555
H6_4 C9_4 1_555 1_555
N12_2 Fe5_2 1_555 1_555
C2_4 C3_4 1_555 1_555
N9 N10_2 1_555 1_555
N10_2 C24_4 1_555 1_555
H12_4 C18_4 1_555 1_555
C19_4 C18_4 1_555 1_555
C20_4 C19_4 1_555 1_555
H13_4 C20_4 1_555 1_555
C22_4 N9 1_555 1_555
H15_4 C22_4 1_555 1_555
C23_4 C19_4 1_555 1_555
C24_4 C23_4 1_555 1_555
H16_4 C24_4 1_555 1_555
C22_4 C23_4 1_555 1_555
Fe7 N3_4 1_555 1_555
N3_4 N13_2 1_555 1_555
N13_2 C15_4 1_555 1_555
N8_4 Fe7 1_555 1_555
C1_4 N8_4 1_555 1_555
H1_4 C1_4 1_555 1_555
H3_4 C5_4 1_555 1_555
C13_4 N3_4 1_555 1_555
H9_4 C13_4 1_555 1_555
C14_4 C13_4 1_555 1_555
C15_4 C14_4 1_555 1_555
H10_4 C15_4 1_555 1_555
C16_4 C14_4 1_555 1_555
C17_4 C16_4 1_555 1_555
H11_4 C17_4 1_555 1_555
C21_4 C16_4 1_555 1_555
H14_4 C21_4 1_555 1_555
N11_2 Fe7 1_555 1_555
N12_2 C10_4 1_555 1_555
C8_4 C7_4 1_555 1_555
H5_4 C8_4 1_555 1_555
C10_4 H7_4 1_555 1_555
C11_4 C7_4 1_555 1_555
C10_4 C11_4 1_555 1_555
H4_4 C6_4 1_555 1_555
C12_4 N11_2 1_555 1_555
H8_4 C12_4 1_555 1_555

#END
