
###############################################################################
#
# This file contains modified crystal structure data generated from the
# MOF subset of the Cambridge Structural Database (CSD) v543 
# hosted by the Cambridge Crystallographic Data Centre (CCDC).
#
# This work is licensed under the Creative Commons
# Attribution-NonCommercial-ShareAlike 4.0 International License.
# To view a copy of this license, visit
# http://creativecommons.org/licenses/by-nc-sa/4.0/
# or send a letter to
# Creative Commons, PO Box 1866, Mountain View, CA 94042, USA.
#
# CIF created using the CSD Python API on 29 September 2022
# The structure has been converted into the P1 space group
# The structure has a 3D framework
# The original CSD entry QUQPUO is in the monoclinic crystal system
# The framework has been calculated to contain at least 10.0% void space
# The void calculation uses a probe of radius 1.32A, grid spacing 0.4
# The framework is charged, counterions have been retained in the structure
#
###############################################################################

data_QUQPUO
_chemical_formula_moiety         '(C72 H48 N20 O8 Zn4)n'
_symmetry_cell_setting           triclinic
_symmetry_space_group_name_H-M   'P 1'
_symmetry_Int_Tables_number      1
_space_group_name_Hall           'P 1'
loop_
_symmetry_equiv_pos_site_id
_symmetry_equiv_pos_as_xyz
1 x,y,z
_cell_length_a                   7.8366(1)
_cell_length_b                   17.4153(2)
_cell_length_c                   14.7632(2)
_cell_angle_alpha                90
_cell_angle_beta                 95.439(1)
_cell_angle_gamma                90
_cell_volume                     2005.76
loop_
_atom_site_label
_atom_site_type_symbol
_atom_site_fract_x
_atom_site_fract_y
_atom_site_fract_z
H13 H 0.088(4) 0.702(2) 0.815(2)
O3 O 0.0342(2) 0.73815(8) 0.83834(10)
C34 C 0.1570(3) 0.79834(13) 0.85032(17)
H20 H 0.1250 0.8331 0.8963
H21 H 0.2679 0.7770 0.8688
H22 H 0.1611 0.8255 0.7940
Zn1 Zn 0.21416(3) 0.246967(12) 0.237333(15)
N1 N 0.3352(2) 0.26556(9) 0.11932(11)
N2 N 0.2180(2) 0.36725(9) 0.26248(11)
O2 O 0.4531(2) 0.23090(8) 0.31609(10)
C1 C 0.0889(3) 0.49841(9) 0.42068(13)
N3 N 0.4728(2) 0.16854(9) 0.36835(11)
N4 N 0.2980(2) 0.62603(9) 0.28864(10)
C2 C 0.1813(3) 0.49734(9) 0.33814(12)
C5 C 0.3935(3) 0.29444(10) 0.05887(12)
C7 C 0.2473(3) 0.56596(10) 0.30747(12)
C8 C 0.0490(3) 0.43058(10) 0.46499(12)
H3 H 0.0809 0.3836 0.4418
C9 C 0.4977(3) 0.03582(11) 0.47307(13)
C10 C 0.2047(3) 0.42785(10) 0.29334(12)
C12 C 0.5563(3) 0.03812(12) 0.38644(14)
C13 C 0.0367(3) 0.56812(10) 0.45765(12)
H5 H 0.0605 0.6141 0.4294
C14 C 0.4438(3) 0.45986(11) 0.07240(12)
H6 H 0.4063 0.4334 0.1215
C15 C 0.5428(3) 0.10470(12) 0.33635(14)
H7 H 0.5830 0.1057 0.2791
C17 C 0.4247(3) 0.16931(12) 0.45328(14)
H11 H 0.3842 0.2146 0.4768
C18 C 0.4346(3) 0.10413(12) 0.50577(14)
H12 H 0.3986 0.1056 0.5640
Zn3 Zn 0.28584(3) 0.746967(12) 0.262667(15)
N11 N 0.2020(2) 0.12603(9) 0.21136(10)
N13 N 0.4252(3) 0.73080(9) 0.14728(11)
N14 N 0.0748(3) 0.23080(9) 0.35272(11)
C21 C 0.4792(3) 0.70410(10) 0.08387(12)
C22 C 0.5193(3) 0.58090(11) 0.00519(12)
C24 C 0.4624(3) 0.53856(11) 0.07708(12)
H14 H 0.4364 0.5641 0.1293
C29 C 0.5371(3) 0.66501(11) 0.01046(12)
H16 H 0.3956 0.0054 0.6372
N5 N 0.5748(3) 0.26920(9) 0.85272(11)
C3 C 0.5208(3) 0.29590(10) 0.91613(12)
C4 C 0.4807(3) 0.41910(11) 0.99481(12)
C6 C 0.5376(3) 0.46144(11) 0.92292(12)
H2 H 0.5636 0.4359 0.8707
C11 C 0.4629(3) 0.33499(11) 0.98954(12)
Zn2 Zn 0.78584(3) 0.753033(12) 0.762667(15)
Zn4 Zn 0.71416(3) 0.253033(12) 0.737333(15)
N6 N 0.6648(2) 0.73444(9) 0.88068(11)
N8 N 0.7820(2) 0.63275(9) 0.73752(11)
O5 O 0.5469(2) 0.76910(8) 0.68391(10)
N12 N 0.7980(2) 0.87397(9) 0.78864(10)
N15 N 0.9252(3) 0.76920(9) 0.64728(11)
C23 C 0.6065(3) 0.70556(10) 0.94113(12)
C32 C 0.5562(3) 0.54014(11) 0.92760(12)
H18 H 0.5937 0.5666 0.8785
H4 H 0.6044 0.9946 0.3628
N9 N 0.5272(2) 0.83146(9) 0.63165(11)
C27 C 0.5023(3) 0.96418(11) 0.52693(13)
C30 C 0.4437(3) 0.96188(12) 0.61356(14)
C33 C 0.4572(3) 0.89530(12) 0.66365(14)
H19 H 0.4170 0.8943 0.7209
C35 C 0.5753(3) 0.83069(12) 0.54672(14)
H23 H 0.6158 0.7854 0.5232
C36 C 0.5654(3) 0.89587(12) 0.49423(14)
H24 H 0.6014 0.8944 0.4360
H1 H 0.912(4) 0.298(2) 0.185(2)
O1 O 0.9658(2) 0.26185(8) 0.16166(10)
C16 C 0.8430(3) 0.20166(13) 0.14968(17)
H8 H 0.8750 0.1669 0.1037
H9 H 0.7321 0.2230 0.1312
H10 H 0.8389 0.1745 0.2060
C19 C 0.9111(3) 0.50159(9) 0.57932(13)
N10 N 0.7020(2) 0.37397(9) 0.71136(10)
C20 C 0.8187(3) 0.50266(9) 0.66186(12)
C25 C 0.7527(3) 0.43404(10) 0.69253(12)
C26 C 0.9510(3) 0.56942(10) 0.53501(12)
H15 H 0.9191 0.6164 0.5582
C28 C 0.7953(3) 0.57215(10) 0.70666(12)
C31 C 0.9633(3) 0.43188(10) 0.54235(12)
H17 H 0.9395 0.3859 0.5706
C7_2 C 0.2527(3) 0.06596(10) 0.19253(12)
C13_2 C 0.4633(3) 0.06812(10) 0.04235(12)
H5_2 H 0.4395 0.1141 0.0706
C21_2 C 0.0208(3) 0.20410(10) 0.41613(12)
C24_2 C 0.0376(3) 0.03856(11) 0.42292(12)
H14_2 H 0.0636 0.0641 0.3707
N7 N 0.7180(2) 0.13275(9) 0.76248(11)
C19_2 C 0.5889(3) 0.00159(9) 0.92068(13)
C20_2 C 0.6813(3) 0.00266(9) 0.83814(12)
C26_2 C 0.5490(3) 0.06942(10) 0.96499(12)
H15_2 H 0.5809 0.1164 0.9418
C28_2 C 0.7047(3) 0.07215(10) 0.79334(12)
H1_2 H 0.588(4) 0.798(2) 0.315(2)
O1_2 O 0.5342(2) 0.76185(8) 0.33834(10)
N1_2 N 0.1648(2) 0.76556(9) 0.38068(11)
N2_2 N 0.2820(2) 0.86725(9) 0.23752(11)
O2_2 O 0.0469(2) 0.73090(8) 0.18391(10)
C1_2 C 0.4111(3) 0.99841(9) 0.07932(13)
N3_2 N 0.0272(2) 0.66854(9) 0.13165(11)
C2_2 C 0.3187(3) 0.99734(9) 0.16186(12)
C4_2 C 0.0193(3) 0.91910(11) 0.50519(12)
C5_2 C 0.1065(3) 0.79444(10) 0.44113(12)
C8_2 C 0.4510(3) 0.93058(10) 0.03501(12)
H3_2 H 0.4191 0.8836 0.0582
C9_2 C 0.0023(3) 0.53582(11) 0.02693(13)
C10_2 C 0.2953(3) 0.92785(10) 0.20666(12)
C11_2 C 0.0371(3) 0.83499(11) 0.51046(12)
C14_2 C 0.0562(3) 0.95986(11) 0.42760(12)
H6_2 H 0.0937 0.9334 0.3785
C16_2 C 0.6570(3) 0.70166(13) 0.35032(17)
H8_2 H 0.6250 0.6669 0.3963
H9_2 H 0.7679 0.7230 0.3688
H10_2 H 0.6611 0.6745 0.2940
C17_2 C 0.0753(3) 0.66931(12) 0.04672(14)
H11_2 H 0.1158 0.7146 0.0232
C18_2 C 0.0654(3) 0.60413(12) 0.99423(14)
H12_2 H 0.1014 0.6056 0.9360
C25_2 C 0.7473(3) 0.93404(10) 0.80747(12)
C30_2 C 0.0563(3) 0.46188(12) 0.88644(14)
H16_2 H 0.1044 0.5054 0.8628
C31_2 C 0.5367(3) 0.93188(10) 0.95765(12)
H17_2 H 0.5605 0.8859 0.9294
C33_2 C 0.0428(3) 0.39530(12) 0.83635(14)
H19_2 H 0.0830 0.3943 0.7791
H13_2 H 0.412(4) 0.202(2) 0.685(2)
O3_2 O 0.4658(2) 0.23815(8) 0.66166(10)
N6_2 N 0.8352(2) 0.23444(9) 0.61932(11)
O5_2 O 0.9531(2) 0.26910(8) 0.81609(10)
C22_2 C 0.9807(3) 0.08090(11) 0.49481(12)
C23_2 C 0.8935(3) 0.20556(10) 0.55887(12)
C29_2 C 0.9629(3) 0.16501(11) 0.48954(12)
C32_2 C 0.9438(3) 0.04014(11) 0.57240(12)
H18_2 H 0.9063 0.0666 0.6215
C34_2 C 0.3430(3) 0.29834(13) 0.64968(17)
H20_2 H 0.3750 0.3331 0.6037
H21_2 H 0.2321 0.2770 0.6312
H22_2 H 0.3389 0.3255 0.7060
C3_2 C 0.9792(3) 0.79590(10) 0.58387(12)
C6_2 C 0.9624(3) 0.96144(11) 0.57708(12)
H2_2 H 0.9364 0.9359 0.6293
C12_2 C 0.9437(3) 0.53812(12) 0.11356(14)
H4_2 H 0.8956 0.4946 0.1372
C15_2 C 0.9572(3) 0.60470(12) 0.16365(14)
H7_2 H 0.9170 0.6057 0.2209
C36_2 C 0.9346(3) 0.39587(12) 0.00577(14)
H24_2 H 0.8986 0.3944 0.0640
N9_2 N 0.9728(2) 0.33146(9) 0.86835(11)
C27_2 C 0.9977(3) 0.46418(11) 0.97307(13)
C35_2 C 0.9247(3) 0.33069(12) 0.95328(14)
H23_2 H 0.8842 0.2854 0.9768
loop_
_geom_bond_atom_site_label_1
_geom_bond_atom_site_label_2
_geom_bond_site_symmetry_1
_geom_bond_site_symmetry_2
H13 O3 1_555 1_555
O3 C34 1_555 1_555
C34 H20 1_555 1_555
H21 C34 1_555 1_555
H22 C34 1_555 1_555
N1 Zn1 1_555 1_555
N2 Zn1 1_555 1_555
O2 Zn1 1_555 1_555
C1 C2 1_555 1_555
N3 O2 1_555 1_555
N4 C7 1_555 1_555
C2 C7 1_555 1_555
C5 N1 1_555 1_555
C8 C1 1_555 1_555
H3 C8 1_555 1_555
C9 C12 1_555 1_555
C10 N2 1_555 1_555
C13 C1 1_555 1_555
H5 C13 1_555 1_555
H6 C14 1_555 1_555
C15 N3 1_555 1_555
H7 C15 1_555 1_555
C17 N3 1_555 1_555
H11 C17 1_555 1_555
C18 C9 1_555 1_555
H12 C18 1_555 1_555
Zn3 N4 1_555 1_555
N11 Zn1 1_555 1_555
N13 Zn3 1_555 1_555
N14 Zn1 1_555 1_555
C21 N13 1_555 1_555
C22 C24 1_555 1_555
C24 C14 1_555 1_555
H14 C24 1_555 1_555
C29 C21 1_555 1_555
C2 C10 1_555 1_555
C12 C15 1_555 1_555
C17 C18 1_555 1_555
C22 C29 1_555 1_555
N5 C3 1_555 1_555
C3 C11 1_555 1_555
C4 C6 1_555 1_555
C6 H2 1_555 1_555
C11 C4 1_555 1_555
Zn4 N5 1_555 1_555
N6 Zn2 1_555 1_555
N8 Zn2 1_555 1_555
O5 Zn2 1_555 1_555
N12 Zn2 1_555 1_555
N15 Zn2 1_555 1_555
C23 N6 1_555 1_555
C32 C6 1_555 1_555
H18 C32 1_555 1_555
O5 N9 1_555 1_555
N9 C33 1_555 1_555
C30 C27 1_555 1_555
C33 C30 1_555 1_555
H19 C33 1_555 1_555
C35 N9 1_555 1_555
H23 C35 1_555 1_555
C36 C27 1_555 1_555
H24 C36 1_555 1_555
C35 C36 1_555 1_555
H1 O1 1_555 1_555
O1 C16 1_555 1_555
C16 H8 1_555 1_555
H9 C16 1_555 1_555
H10 C16 1_555 1_555
Zn4 N10 1_555 1_555
N8 C28 1_555 1_555
C19 C20 1_555 1_555
N10 C25 1_555 1_555
C20 C25 1_555 1_555
H15 C26 1_555 1_555
C28 C20 1_555 1_555
H17 C31 1_555 1_555
C19 C26 1_555 1_555
C19 C31 1_555 1_555
N11 C7_2 1_555 1_555
H5_2 C13_2 1_555 1_555
C21_2 N14 1_555 1_555
H14_2 C24_2 1_555 1_555
Zn4 N7 1_555 1_555
N7 C28_2 1_555 1_555
C19_2 C20_2 1_555 1_555
H15_2 C26_2 1_555 1_555
C28_2 C20_2 1_555 1_555
C19_2 C26_2 1_555 1_555
H1_2 O1_2 1_555 1_555
Zn3 O1_2 1_555 1_555
O1_2 C16_2 1_555 1_555
N1_2 Zn3 1_555 1_555
N2_2 Zn3 1_555 1_555
O2_2 Zn3 1_555 1_555
C1_2 C2_2 1_555 1_555
N3_2 O2_2 1_555 1_555
C5_2 N1_2 1_555 1_555
C8_2 C1_2 1_555 1_555
H3_2 C8_2 1_555 1_555
C10_2 N2_2 1_555 1_555
C11_2 C4_2 1_555 1_555
C14_2 C4_2 1_555 1_555
H6_2 C14_2 1_555 1_555
C16_2 H8_2 1_555 1_555
H9_2 C16_2 1_555 1_555
H10_2 C16_2 1_555 1_555
C17_2 N3_2 1_555 1_555
H11_2 C17_2 1_555 1_555
C2_2 C10_2 1_555 1_555
C5_2 C11_2 1_555 1_555
H12_2 C18_2 1_555 1_555
N12 C25_2 1_555 1_555
H16_2 C30_2 1_555 1_555
H17_2 C31_2 1_555 1_555
C33_2 C30_2 1_555 1_555
H19_2 C33_2 1_555 1_555
H13_2 O3_2 1_555 1_555
Zn4 O3_2 1_555 1_555
O3_2 C34_2 1_555 1_555
N6_2 Zn4 1_555 1_555
O5_2 Zn4 1_555 1_555
C23_2 N6_2 1_555 1_555
H18_2 C32_2 1_555 1_555
C34_2 H20_2 1_555 1_555
H21_2 C34_2 1_555 1_555
H22_2 C34_2 1_555 1_555
C22_2 C29_2 1_555 1_555
C22_2 C32_2 1_555 1_555
C23_2 C29_2 1_555 1_555
N15 C3_2 1_555 1_555
C6_2 H2_2 1_555 1_555
C12_2 H4_2 1_555 1_555
H7_2 C15_2 1_555 1_555
H24_2 C36_2 1_555 1_555
C12_2 C15_2 1_555 1_555
O5_2 N9_2 1_555 1_555
C35_2 N9_2 1_555 1_555
H23_2 C35_2 1_555 1_555

#END
