
###############################################################################
#
# This file contains modified crystal structure data generated from the
# MOF subset of the Cambridge Structural Database (CSD) v543 
# hosted by the Cambridge Crystallographic Data Centre (CCDC).
#
# This work is licensed under the Creative Commons
# Attribution-NonCommercial-ShareAlike 4.0 International License.
# To view a copy of this license, visit
# http://creativecommons.org/licenses/by-nc-sa/4.0/
# or send a letter to
# Creative Commons, PO Box 1866, Mountain View, CA 94042, USA.
#
# CIF created using the CSD Python API on 29 September 2022
# The structure has been converted into the P1 space group
# The structure has a 3D framework
# The original CSD entry QUQPOI is in the monoclinic crystal system
# The framework has been calculated to contain at least 10.0% void space
# The void calculation uses a probe of radius 1.32A, grid spacing 0.4
# The framework is charged, counterions have been retained in the structure
# H atom positions have been added when not included in the experimental data
#
###############################################################################

data_QUQPOI
_chemical_formula_moiety         '(C36 H24 N8 Zn3 4+)n'
_symmetry_cell_setting           triclinic
_symmetry_space_group_name_H-M   'P 1'
_symmetry_Int_Tables_number      1
_space_group_name_Hall           'P 1'
loop_
_symmetry_equiv_pos_site_id
_symmetry_equiv_pos_as_xyz
1 x,y,z
_cell_length_a                   10.9623(9)
_cell_length_b                   7.3937(6)
_cell_length_c                   12.6331(14)
_cell_angle_alpha                90
_cell_angle_beta                 109.510(11)
_cell_angle_gamma                90
_cell_volume                     965.146
loop_
_atom_site_label
_atom_site_type_symbol
_atom_site_fract_x
_atom_site_fract_y
_atom_site_fract_z
Zn5 Zn 0.0000 0.0000 0.0000
Zn5_2 Zn 0.0000 0.0000 1.0000
Zn5_3 Zn -0.0000 1.0000 0.0000
Zn5_4 Zn 0.0000 1.0000 1.0000
Zn5_5 Zn 1.0000 0.0000 0.0000
C5 C 0.1242(4) -0.0000 0.2555(4)
H2 H 0.0374 0.0000 0.2500
C6 C 0.2155(5) -0.0000 0.3609(4)
H3 H 0.1899 -0.0000 0.4241
C7 C 0.3454(5) -0.0000 0.3731(4)
C8 C 0.4380(5) 0.0000 0.4892(5)
C9 C 0.3758(4) -0.0000 0.2741(5)
H4 H 0.4620 -0.0000 0.2780
C10 C 0.2775(3) -0.0000 0.1688(4)
H5 H 0.2994 0.0000 0.1038
N2 N 0.1520(3) -0.0000 0.1607(3)
C19 C 0.8758(4) 0.0000 0.7445(4)
H9 H 0.9626 -0.0000 0.7500
C20 C 0.7845(5) 0.0000 0.6391(4)
H10 H 0.8101 -0.0000 0.5759
C21 C 0.6546(5) -0.0000 0.6269(4)
C22 C 0.5620(5) -0.0000 0.5108(5)
C23 C 0.6242(4) -0.0000 0.7259(5)
H11 H 0.5380 -0.0000 0.7220
C24 C 0.7225(3) -0.0000 0.8312(4)
H12 H 0.7006 -0.0000 0.8962
N9 N 0.8480(3) 0.0000 0.8393(3)
Zn5_6 Zn 1.0000 0.0000 1.0000
H13 H 0.40054 -3.69779e-32 0.558917
H14 H 0.59946 -2.46519e-32 0.441083
N8 N 0.09917(17) 0.2058(3) 0.9398(2)
Zn5_7 Zn 1.0000 1.0000 0.0000
C5_2 C 0.1242(4) 1.0000 0.2555(4)
H2_2 H 0.0374 1.0000 0.2500
C6_2 C 0.2155(5) 1.0000 0.3609(4)
H3_2 H 0.1899 1.0000 0.4241
C7_2 C 0.3454(5) 1.0000 0.3731(4)
C8_2 C 0.4380(5) 1.0000 0.4892(5)
C9_2 C 0.3758(4) 1.0000 0.2741(5)
H4_2 H 0.4620 1.0000 0.2780
C10_2 C 0.2775(3) 1.0000 0.1688(4)
H5_2 H 0.2994 1.0000 0.1038
N2_2 N 0.1520(3) 1.0000 0.1607(3)
C12 C 0.84531(19) 0.6595(3) 0.0543(2)
C13 C 0.84531(19) 0.3405(3) 0.0543(2)
C14 C 0.7772(3) 0.5000 0.0474(4)
C15 C 0.6356(3) 0.5000 0.0247(4)
C16 C 0.5664(2) 0.6608(4) 0.0119(3)
C17 C 0.5664(2) 0.3392(4) 0.0119(3)
H7 H 0.6102 0.2297 0.0195
H8 H 0.6102 0.7703 0.0195
C19_2 C 0.8758(4) 1.0000 0.7445(4)
H9_2 H 0.9626 1.0000 0.7500
C20_2 C 0.7845(5) 1.0000 0.6391(4)
H10_2 H 0.8101 1.0000 0.5759
C21_2 C 0.6546(5) 1.0000 0.6269(4)
C22_2 C 0.5620(5) 1.0000 0.5108(5)
C23_2 C 0.6242(4) 1.0000 0.7259(5)
H11_2 H 0.5380 1.0000 0.7220
C24_2 C 0.7225(3) 1.0000 0.8312(4)
H12_2 H 0.7006 1.0000 0.8962
N4 N 0.90083(17) 0.7942(3) 0.0602(2)
N5 N 0.90083(17) 0.2058(3) 0.0602(2)
N9_2 N 0.8480(3) 1.0000 0.8393(3)
Zn5_8 Zn 1.0000 1.0000 1.0000
H13_2 H 0.40054 1 0.558917
H14_2 H 0.59946 1 0.441083
C1 C 0.15469(19) 0.6595(3) 0.9457(2)
C2 C 0.2228(3) 0.5000 0.9526(4)
C3 C 0.3644(3) 0.5000 0.9753(4)
C4 C 0.4336(2) 0.6608(4) 0.9881(3)
H1 H 0.3898 0.7703 0.9805
N1 N 0.09917(17) 0.7942(3) 0.9398(2)
C11 C 0.15469(19) 0.3405(3) 0.9457(2)
C18 C 0.4336(2) 0.3392(4) 0.9881(3)
H6 H 0.3898 0.2297 0.9805
loop_
_geom_bond_atom_site_label_1
_geom_bond_atom_site_label_2
_geom_bond_site_symmetry_1
_geom_bond_site_symmetry_2
C5 H2 1_555 1_555
C6 C5 1_555 1_555
H3 C6 1_555 1_555
C7 C6 1_555 1_555
C8 C7 1_555 1_555
C9 C7 1_555 1_555
H4 C9 1_555 1_555
C10 C9 1_555 1_555
H5 C10 1_555 1_555
N2 C5 1_555 1_555
C19 H9 1_555 1_555
C20 C19 1_555 1_555
H10 C20 1_555 1_555
C21 C20 1_555 1_555
C22 C8 1_555 1_555
C23 C21 1_555 1_555
H11 C23 1_555 1_555
C24 C23 1_555 1_555
H12 C24 1_555 1_555
N9 C19 1_555 1_555
Zn5_6 N9 1_555 1_555
C10 N2 1_555 1_555
N2 Zn5 1_555 1_555
C21 C22 1_555 1_555
C24 N9 1_555 1_555
C8 H13 1_555 1_555
C22 H14 1_555 1_555
N8 Zn5_2 1_555 1_555
C5_2 H2_2 1_555 1_555
C6_2 C5_2 1_555 1_555
H3_2 C6_2 1_555 1_555
C7_2 C6_2 1_555 1_555
C8_2 C7_2 1_555 1_555
C9_2 C7_2 1_555 1_555
H4_2 C9_2 1_555 1_555
C10_2 C9_2 1_555 1_555
H5_2 C10_2 1_555 1_555
N2_2 C5_2 1_555 1_555
C12 C14 1_555 1_555
C13 C14 1_555 1_555
C14 C15 1_555 1_555
C15 C16 1_555 1_555
C17 C15 1_555 1_555
H7 C17 1_555 1_555
H8 C16 1_555 1_555
C19_2 H9_2 1_555 1_555
C20_2 C19_2 1_555 1_555
H10_2 C20_2 1_555 1_555
C21_2 C20_2 1_555 1_555
C22_2 C8_2 1_555 1_555
C23_2 C21_2 1_555 1_555
H11_2 C23_2 1_555 1_555
C24_2 C23_2 1_555 1_555
H12_2 C24_2 1_555 1_555
N4 C12 1_555 1_555
N5 C13 1_555 1_555
N9_2 C19_2 1_555 1_555
Zn5_7 N4 1_555 1_555
Zn5_5 N5 1_555 1_555
Zn5_8 N9_2 1_555 1_555
C10_2 N2_2 1_555 1_555
N2_2 Zn5_3 1_555 1_555
C21_2 C22_2 1_555 1_555
C24_2 N9_2 1_555 1_555
C8_2 H13_2 1_555 1_555
C22_2 H14_2 1_555 1_555
C1 C2 1_555 1_555
C2 C3 1_555 1_555
C3 C4 1_555 1_555
C4 H1 1_555 1_555
N1 C1 1_555 1_555
Zn5_4 N1 1_555 1_555
C11 C2 1_555 1_555
C18 C3 1_555 1_555
H6 C18 1_555 1_555
N8 C11 1_555 1_555

#END
