
###############################################################################
#
# This file contains modified crystal structure data generated from the
# MOF subset of the Cambridge Structural Database (CSD) v543 
# hosted by the Cambridge Crystallographic Data Centre (CCDC).
#
# This work is licensed under the Creative Commons
# Attribution-NonCommercial-ShareAlike 4.0 International License.
# To view a copy of this license, visit
# http://creativecommons.org/licenses/by-nc-sa/4.0/
# or send a letter to
# Creative Commons, PO Box 1866, Mountain View, CA 94042, USA.
#
# CIF created using the CSD Python API on 29 September 2022
# The structure has been converted into the P1 space group
# The structure has a 3D framework
# The original CSD entry QUSFEP is in the triclinic crystal system
# The framework has been calculated to contain at least 10.0% void space
# The void calculation uses a probe of radius 1.32A, grid spacing 0.4
# The framework is charged, counterions have been retained in the structure
# H atom positions have been added when not included in the experimental data
#
###############################################################################

data_QUSFEP
_chemical_formula_moiety         '(C44 H54 Cu4 La2 N10 O36)n'
_symmetry_cell_setting           triclinic
_symmetry_space_group_name_H-M   'P 1'
_symmetry_Int_Tables_number      1
_space_group_name_Hall           'P 1'
loop_
_symmetry_equiv_pos_site_id
_symmetry_equiv_pos_as_xyz
1 x,y,z
_cell_length_a                   13.3710(10)
_cell_length_b                   14.4530(10)
_cell_length_c                   10.949(2)
_cell_angle_alpha                71.905(7)
_cell_angle_beta                 74.327(7)
_cell_angle_gamma                64.427(9)
_cell_volume                     1791.24
loop_
_atom_site_label
_atom_site_type_symbol
_atom_site_fract_x
_atom_site_fract_y
_atom_site_fract_z
O18 O 0.1238(3) 0.2377(2) 0.0150(3)
La1 La 0.179828(19) 0.231574(18) 0.77644(2)
Cu1 Cu 0.39745(4) 0.06274(4) 0.31872(5)
N2 N 0.4551(3) 0.1724(3) 0.2180(4)
O1 O 0.1814(3) 0.1209(2) 0.6383(3)
O2 O 0.2690(3) 0.1468(2) 0.4336(3)
O4 O 0.3465(3) 0.0413(3) 0.1643(3)
O7 O 0.2199(2) 0.3962(2) 0.7525(3)
O8 O 0.0392(2) 0.4255(2) 0.8040(3)
O14 O 0.2190(3) 0.0431(3) 0.8982(3)
O15 O 0.3569(3) 0.1613(3) 0.8954(3)
C2 C 0.2441(4) 0.0884(3) 0.5418(4)
H3 H 0.1871 0.0037 0.3859
C7 C 0.5339(4) 0.1510(4) 0.1136(5)
H7 H 0.5510 0.0900 0.0869
C8 C 0.5903(4) 0.2166(4) 0.0445(5)
C9 C 0.5687(4) 0.3064(3) 0.0857(4)
C10 C 0.4859(4) 0.3280(4) 0.1924(5)
H9 H 0.4671 0.3885 0.2212
C11 C 0.4314(4) 0.2599(4) 0.2560(5)
H10 H 0.3763 0.2755 0.3278
C12 C 0.0913(4) 0.5722(3) 0.7602(4)
H11 H 0.0908 0.5831 0.8435
H12 H 0.1486 0.5932 0.6974
C13 C 0.1193(3) 0.4564(3) 0.7724(4)
H13 H 0.0614 0.6152 0.5392
C18 C 0.7074(4) 0.5017(4) 0.0114(4)
H17 H 0.7082 0.5500 0.0505
C19 C 0.6376(4) 0.4466(4) 0.0733(5)
H18 H 0.5918 0.4589 0.1520
C20 C 0.6363(4) 0.3731(3) 0.0176(4)
O16 O 0.3586(3) 0.2200(2) 0.6150(3)
O17 O 0.1052(3) 0.3534(2) 0.5736(3)
H22 H 0.229395 0.0345655 0.988051
H23 H 3.08437e-05 0.14093 0.88198
H25 H 0.42574 0.154372 0.829348
H26 H 0.346115 0.211764 0.946571
Cu2 Cu 0.12325(4) 0.43856(4) 0.19037(5)
N3 N 0.0194(3) 0.3620(3) 0.2815(3)
O10 O 0.1525(3) 0.4183(2) 0.3651(3)
O12 O 0.1473(3) 0.3703(3) 0.0496(3)
O13 O 0.0105(3) 0.7838(3) 0.1518(4)
C14 C 0.0137(4) 0.3437(3) 0.4238(4)
H14 H 0.0276 0.2700 0.4630
C15 C 0.0971(4) 0.3725(3) 0.4573(4)
C16 C 0.0716(4) 0.2646(3) 0.2304(4)
H15 H 0.1319 0.2127 0.2775
H16 H 0.0161 0.2349 0.2418
C17 C 0.1174(4) 0.2927(3) 0.0863(4)
N5 N 0.2268(3) 0.5124(3) 0.1024(3)
H23_2 H -3.08437e-05 0.85907 0.11802
H24 H 0.0544647 0.744618 0.0821749
N1 N 0.6545(3) 0.0535(3) 0.5779(3)
O3 O 0.7526(3) 0.0417(3) 0.8573(3)
O6 O 0.4493(3) 0.0467(2) 0.6559(3)
C1 C 0.7023(4) 0.0296(3) 0.4481(4)
H1 H 0.6434 0.0608 0.3949
H2 H 0.7583 0.0602 0.4062
C3 C 0.7408(4) 0.0469(3) 0.6439(4)
H4 H 0.7470 0.1149 0.6209
C4 C 0.7125(4) 0.0144(3) 0.7907(4)
C5 C 0.5563(4) 0.1545(3) 0.5780(5)
H5 H 0.5614 0.1897 0.6371
H6 H 0.5581 0.1995 0.4914
C6 C 0.4468(4) 0.1392(3) 0.6182(4)
H21 H 0.71173 0.00398816 0.147272
H8 H 0.3573 0.7992 0.0293
C21 C 0.2986(4) 0.6372(4) 0.1031(5)
H19 H 0.3006 0.6824 0.1463
C22 C 0.2307(4) 0.5806(4) 0.1592(5)
H20 H 0.1860 0.5899 0.2392
N4 N 0.7732(3) 0.4876(3) 0.8976(3)
H8_2 H 0.6427 0.2008 0.9707
C21_2 C 0.7014(4) 0.3628(4) 0.8969(5)
H19_2 H 0.6994 0.3176 0.8537
C22_2 C 0.7693(4) 0.4194(4) 0.8408(5)
H20_2 H 0.8140 0.4101 0.7608
Cu3 Cu 0.87675(4) 0.56144(4) 0.80963(5)
N1_2 N 0.3455(3) 0.9465(3) 0.4221(3)
O3_2 O 0.2474(3) 0.9583(3) 0.1427(3)
O5 O 0.6414(3) 0.7800(2) 0.3850(3)
O6_2 O 0.5507(3) 0.9533(2) 0.3441(3)
C1_2 C 0.2977(4) 0.9704(3) 0.5519(4)
H1_2 H 0.3566 0.9392 0.6051
H2_2 H 0.2417 0.9398 0.5938
C3_2 C 0.2592(4) 0.9531(3) 0.3561(4)
H4_2 H 0.2530 0.8851 0.3791
C4_2 C 0.2875(4) 0.9856(3) 0.2093(4)
C5_2 C 0.4437(4) 0.8455(3) 0.4220(5)
H5_2 H 0.4386 0.8103 0.3629
H6_2 H 0.4419 0.8005 0.5086
C6_2 C 0.5532(4) 0.8608(3) 0.3818(4)
La2 La 0.820172(19) 0.768426(18) 0.22356(2)
H21_2 H 0.28827 0.996012 0.852728
N3_2 N 0.9806(3) 0.6380(3) 0.7185(3)
O9 O 0.8948(3) 0.6466(2) 0.4264(3)
O10_2 O 0.8475(3) 0.5817(2) 0.6349(3)
O11 O 0.8762(3) 0.7623(2) 0.9850(3)
O12_2 O 0.8527(3) 0.6297(3) 0.9504(3)
O13_2 O 0.9895(3) 0.2162(3) 0.8482(4)
C14_2 C 0.9863(4) 0.6563(3) 0.5762(4)
H14_2 H 0.9724 0.7300 0.5370
C15_2 C 0.9029(4) 0.6275(3) 0.5427(4)
C16_2 C 0.9284(4) 0.7354(3) 0.7696(4)
H15_2 H 0.8681 0.7873 0.7225
H16_2 H 0.9839 0.7651 0.7582
C17_2 C 0.8826(4) 0.7073(3) 0.9137(4)
H23_3 H 1.00003 0.14093 0.88198
H24_2 H 0.945535 0.255382 0.917825
Cu1_2 Cu 0.60255(4) 0.93726(4) 0.68128(5)
N2_2 N 0.5449(3) 0.8276(3) 0.7820(4)
O1_2 O 0.8186(3) 0.8791(2) 0.3617(3)
O2_2 O 0.7310(3) 0.8532(2) 0.5664(3)
O4_2 O 0.6535(3) 0.9587(3) 0.8357(3)
O7_2 O 0.7801(2) 0.6038(2) 0.2475(3)
O8_2 O 0.9608(2) 0.5745(2) 0.1960(3)
O14_2 O 0.7810(3) 0.9569(3) 0.1018(3)
O15_2 O 0.6431(3) 0.8387(3) 0.1046(3)
C2_2 C 0.7559(4) 0.9116(3) 0.4582(4)
H3_2 H 0.8129 0.9963 0.6141
C7_2 C 0.4661(4) 0.8490(4) 0.8864(5)
H7_2 H 0.4490 0.9100 0.9131
C8_2 C 0.4097(4) 0.7834(4) 0.9555(5)
C9_2 C 0.4313(4) 0.6936(3) 0.9143(4)
C10_2 C 0.5141(4) 0.6720(4) 0.8076(5)
H9_2 H 0.5329 0.6115 0.7788
C11_2 C 0.5686(4) 0.7401(4) 0.7440(5)
H10_2 H 0.6237 0.7245 0.6722
C12_2 C 0.9087(4) 0.4278(3) 0.2398(4)
H11_2 H 0.9092 0.4169 0.1565
H12_2 H 0.8514 0.4068 0.3026
C13_2 C 0.8807(3) 0.5436(3) 0.2276(4)
H13_2 H 0.9386 0.3848 0.4608
C18_2 C 0.2926(4) 0.4983(4) 0.9886(4)
H17_2 H 0.2918 0.4500 0.9495
C19_2 C 0.3624(4) 0.5534(4) 0.9267(5)
H18_2 H 0.4082 0.5411 0.8480
C20_2 C 0.3637(4) 0.6269(3) 0.9824(4)
H22_2 H 0.770605 0.965435 0.0119491
H23_4 H 0.999969 0.85907 0.11802
H25_2 H 0.57426 0.845628 0.170652
H26_2 H 0.653885 0.788236 0.0534294
N6 N 0.8465(8) 0.1814(6) 0.1520(9)
O19 O 0.8783(7) 0.1027(5) 0.1051(7)
O20 O 0.7614(11) 0.2010(11) 0.2409(14)
O21 O 0.8885(8) 0.2506(6) 0.0989(10)
N6_2 N 0.1535(8) 0.8186(6) 0.8480(9)
O19_2 O 0.1217(7) 0.8973(5) 0.8949(7)
O20_2 O 0.2386(11) 0.7990(11) 0.7591(14)
O21_2 O 0.1115(8) 0.7494(6) 0.9011(10)
loop_
_geom_bond_atom_site_label_1
_geom_bond_atom_site_label_2
_geom_bond_site_symmetry_1
_geom_bond_site_symmetry_2
La1 O1 1_555 1_555
N2 Cu1 1_555 1_555
O1 C2 1_555 1_555
O2 Cu1 1_555 1_555
O4 Cu1 1_555 1_555
O7 La1 1_555 1_555
O8 La1 1_555 1_555
O14 La1 1_555 1_555
O15 La1 1_555 1_555
C2 O2 1_555 1_555
C7 N2 1_555 1_555
H7 C7 1_555 1_555
C8 C7 1_555 1_555
C9 C8 1_555 1_555
C10 C9 1_555 1_555
H9 C10 1_555 1_555
C11 N2 1_555 1_555
H10 C11 1_555 1_555
C12 H11 1_555 1_555
H12 C12 1_555 1_555
C13 O7 1_555 1_555
C18 H17 1_555 1_555
C19 C18 1_555 1_555
H18 C19 1_555 1_555
C20 C9 1_555 1_555
O16 La1 1_555 1_555
O17 La1 1_555 1_555
O8 C13 1_555 1_555
C10 C11 1_555 1_555
C12 C13 1_555 1_555
C19 C20 1_555 1_555
O14 H22 1_555 1_555
O15 H25 1_555 1_555
O15 H26 1_555 1_555
Cu2 N3 1_555 1_555
O17 C15 1_555 1_555
O10 Cu2 1_555 1_555
O18 C17 1_555 1_555
O12 Cu2 1_555 1_555
C14 N3 1_555 1_555
H14 C14 1_555 1_555
C15 O10 1_555 1_555
C16 N3 1_555 1_555
H15 C16 1_555 1_555
H16 C16 1_555 1_555
C17 O12 1_555 1_555
N5 Cu2 1_555 1_555
C14 C15 1_555 1_555
C16 C17 1_555 1_555
O13 H23_2 1_555 1_555
O13 H24 1_555 1_555
N1 C1 1_555 1_555
O3 C4 1_555 1_555
O16 C6 1_555 1_555
C1 H1 1_555 1_555
H2 C1 1_555 1_555
C3 N1 1_555 1_555
H4 C3 1_555 1_555
C5 N1 1_555 1_555
H5 C5 1_555 1_555
H6 C5 1_555 1_555
C6 O6 1_555 1_555
C3 C4 1_555 1_555
C5 C6 1_555 1_555
H19 C21 1_555 1_555
C22 N5 1_555 1_555
H20 C22 1_555 1_555
C21 C22 1_555 1_555
H19_2 C21_2 1_555 1_555
C22_2 N4 1_555 1_555
H20_2 C22_2 1_555 1_555
Cu3 N4 1_555 1_555
C21_2 C22_2 1_555 1_555
N1_2 C1_2 1_555 1_555
O3_2 C4_2 1_555 1_555
O5 C6_2 1_555 1_555
C1_2 H1_2 1_555 1_555
H2_2 C1_2 1_555 1_555
C3_2 N1_2 1_555 1_555
H4_2 C3_2 1_555 1_555
C5_2 N1_2 1_555 1_555
H5_2 C5_2 1_555 1_555
H6_2 C5_2 1_555 1_555
C6_2 O6_2 1_555 1_555
La2 O5 1_555 1_555
C3_2 C4_2 1_555 1_555
C5_2 C6_2 1_555 1_555
Cu3 N3_2 1_555 1_555
O9 C15_2 1_555 1_555
O10_2 Cu3 1_555 1_555
O11 C17_2 1_555 1_555
O12_2 Cu3 1_555 1_555
C14_2 N3_2 1_555 1_555
H14_2 C14_2 1_555 1_555
C15_2 O10_2 1_555 1_555
C16_2 N3_2 1_555 1_555
H15_2 C16_2 1_555 1_555
H16_2 C16_2 1_555 1_555
C17_2 O12_2 1_555 1_555
La2 O9 1_555 1_555
C14_2 C15_2 1_555 1_555
C16_2 C17_2 1_555 1_555
O13_2 H23_3 1_555 1_555
O13_2 H24_2 1_555 1_555
La2 O1_2 1_555 1_555
N2_2 Cu1_2 1_555 1_555
O1_2 C2_2 1_555 1_555
O2_2 Cu1_2 1_555 1_555
O4_2 Cu1_2 1_555 1_555
O7_2 La2 1_555 1_555
O8_2 La2 1_555 1_555
O14_2 La2 1_555 1_555
O15_2 La2 1_555 1_555
C2_2 O2_2 1_555 1_555
C7_2 N2_2 1_555 1_555
H7_2 C7_2 1_555 1_555
C8_2 C7_2 1_555 1_555
C9_2 C8_2 1_555 1_555
C10_2 C9_2 1_555 1_555
H9_2 C10_2 1_555 1_555
C11_2 N2_2 1_555 1_555
H10_2 C11_2 1_555 1_555
C12_2 H11_2 1_555 1_555
H12_2 C12_2 1_555 1_555
C13_2 O7_2 1_555 1_555
C18_2 H17_2 1_555 1_555
C19_2 C18_2 1_555 1_555
H18_2 C19_2 1_555 1_555
C20_2 C9_2 1_555 1_555
O8_2 C13_2 1_555 1_555
C10_2 C11_2 1_555 1_555
C12_2 C13_2 1_555 1_555
C19_2 C20_2 1_555 1_555
O14_2 H22_2 1_555 1_555
O15_2 H25_2 1_555 1_555
O15_2 H26_2 1_555 1_555
N6 O19 1_555 1_555
O20 N6 1_555 1_555
O21 N6 1_555 1_555
N6_2 O19_2 1_555 1_555
O20_2 N6_2 1_555 1_555
O21_2 N6_2 1_555 1_555

#END
