
###############################################################################
#
# This file contains modified crystal structure data generated from the
# MOF subset of the Cambridge Structural Database (CSD) v543 
# hosted by the Cambridge Crystallographic Data Centre (CCDC).
#
# This work is licensed under the Creative Commons
# Attribution-NonCommercial-ShareAlike 4.0 International License.
# To view a copy of this license, visit
# http://creativecommons.org/licenses/by-nc-sa/4.0/
# or send a letter to
# Creative Commons, PO Box 1866, Mountain View, CA 94042, USA.
#
# CIF created using the CSD Python API on 29 September 2022
# The structure has been converted into the P1 space group
# The structure has a 3D framework
# The original CSD entry QUSRIH is in the monoclinic crystal system
# The framework has been calculated to contain at least 10.0% void space
# The void calculation uses a probe of radius 1.32A, grid spacing 0.4
#
###############################################################################

data_QUSRIH
_chemical_formula_moiety         '(C60 H64 N24 O68 U8)n'
_symmetry_cell_setting           triclinic
_symmetry_space_group_name_H-M   'P 1'
_symmetry_Int_Tables_number      1
_space_group_name_Hall           'P 1'
loop_
_symmetry_equiv_pos_site_id
_symmetry_equiv_pos_as_xyz
1 x,y,z
_cell_length_a                   11.460(4)
_cell_length_b                   19.968(6)
_cell_length_c                   14.949(5)
_cell_angle_alpha                90
_cell_angle_beta                 99.628(5)
_cell_angle_gamma                90
_cell_volume                     3372.64
loop_
_atom_site_label
_atom_site_type_symbol
_atom_site_fract_x
_atom_site_fract_y
_atom_site_fract_z
C3 C 0.0719(4) 0.7336(2) 0.4697(3)
C9 C 0.0556(4) 0.7736(3) 0.5531(4)
H5 H 0.0594 0.7430 0.6038
H6 H 0.1214 0.8045 0.5672
H8 H 0.0225 0.8932 0.5050
O9 O 0.1492(3) 0.68658(19) 0.4836(2)
O10 O 0.0173(3) 0.7481(2) 0.3960(3)
U5 U 0.245519(17) 0.613471(10) 0.587095(14)
U3 U 0.767049(18) 0.032709(10) 0.644089(13)
U1 U 0.732951(18) 0.532709(10) 0.855911(13)
C1 C 0.6719(5) 0.5632(3) 0.6678(4)
C2 C 0.8449(5) 0.5097(3) 0.4907(4)
C4 C 0.8865(5) 0.9311(3) 0.5605(4)
C5 C 0.4308(5) 0.9071(3) 0.4657(4)
C6 C 0.4208(5) 0.7523(3) 0.6257(4)
C7 C 0.6547(4) 0.5725(3) 0.5666(4)
H1 H 0.6482 0.5289 0.5375
H2 H 0.5812 0.5964 0.5468
C8 C 0.8631(5) 0.5737(3) 0.5428(4)
H3 H 0.8956 0.5642 0.6057
H4 H 0.9192 0.6016 0.5180
C10 C 0.9422(5) 0.8792(2) 0.5082(4)
H7 H 0.8988 0.8779 0.4467
C11 C 0.5307(5) 0.8764(3) 0.5286(4)
H9 H 0.6042 0.8966 0.5182
H10 H 0.5214 0.8862 0.5906
C12 C 0.4346(4) 0.7650(3) 0.5282(3)
H11 H 0.4384 0.7222 0.4981
H12 H 0.3648 0.7883 0.4978
C13 C 0.7505(5) 0.6779(3) 0.5398(3)
C14 C 0.8429(4) 0.7763(3) 0.5390(3)
C15 C 0.6456(4) 0.7734(3) 0.5292(3)
N1 N 0.8533(4) 0.7091(2) 0.5431(3)
N2 N 0.7419(4) 0.8115(2) 0.5300(3)
N3 N 0.6441(4) 0.7066(2) 0.5365(3)
N4 N 0.7511(4) 0.6093(2) 0.5381(3)
N5 N 0.9462(4) 0.8115(2) 0.5454(3)
N6 N 0.5381(4) 0.8038(2) 0.5176(3)
O1 O 0.6395(4) 0.5964(2) 0.8830(3)
O2 O 0.8273(3) 0.47123(19) 0.8231(3)
O3 O 0.1364(3) 0.62435(19) 0.6567(3)
O4 O 0.3576(3) 0.59880(19) 0.5208(3)
O5 O 0.6040(3) 0.52415(18) 0.7023(3)
O6 O 0.7554(3) 0.5930(2) 0.7177(3)
O7 O 0.8857(3) 0.45555(18) 0.5264(3)
O8 O 0.7847(4) 0.5092(2) 0.4126(3)
H13 H 0.9775 0.7159 0.3749
O11 O 0.8162(4) 0.9721(2) 0.5154(3)
O12 O 0.9114(3) 0.93766(19) 0.6445(3)
O13 O 0.3732(4) 0.9529(2) 0.4956(3)
O14 O 0.4026(4) 0.8888(2) 0.3842(3)
O15 O 0.4815(4) 0.7818(3) 0.6868(3)
H14 H 0.4502 0.7803 0.7323
O16 O 0.3380(3) 0.7103(2) 0.6368(3)
O17 O 0.3743(4) 0.5688(2) 0.7175(3)
H15 H 0.4105 0.6009 0.7477
H16 H 0.3332 0.5477 0.7506
U4 U 0.232951(18) 0.967291(10) 0.355911(13)
U6 U 0.754481(17) 0.386529(10) 0.412905(14)
O18 O 0.1143(3) 0.54445(18) 0.4736(3)
O19 O 0.2153(4) 0.4908(2) 0.5874(3)
O21 O 0.6838(4) 0.4721(2) 0.9846(3)
O22 O 0.5886(3) 0.43766(19) 0.8555(3)
O23 O 0.8732(4) 0.5471(2) 0.9956(3)
O24 O 0.9026(4) 0.6112(2) 0.8842(3)
C5_2 C 0.0692(5) 0.4071(3) 0.0343(4)
H11_2 H 0.0616 0.2222 0.0019
H12_2 H 0.1352 0.2883 0.0022
O13_2 O 0.1268(4) 0.4529(2) 0.0044(3)
O14_2 O 0.0974(4) 0.3888(2) 0.1158(3)
U4_2 U 0.267049(18) 0.467291(10) 0.144089(13)
O18_2 O 0.3857(3) 0.04445(18) 0.0264(3)
O20 O 0.3508(3) 0.18658(19) 0.0164(2)
U2 U 0.254481(17) 0.113471(10) 0.912905(14)
C6_2 C 0.0792(5) 0.2523(3) 0.8743(4)
C12_2 C 0.0654(4) 0.2650(3) 0.9718(3)
O3_2 O 0.3636(3) 0.12435(19) 0.8433(3)
O4_2 O 0.1424(3) 0.09880(19) 0.9792(3)
O15_2 O 0.0185(4) 0.2818(3) 0.8132(3)
H14_2 H 0.0498 0.2803 0.7677
O16_2 O 0.1620(3) 0.2103(2) 0.8632(3)
O17_2 O 0.1257(4) 0.0688(2) 0.7825(3)
H15_2 H 0.0895 0.1009 0.7523
H16_2 H 0.1668 0.0477 0.7494
O19_2 O 0.2847(4) 0.9908(2) 0.9126(3)
C2_2 C 0.6551(5) 0.0097(3) 0.0093(4)
C3_2 C 0.4281(4) 0.2336(2) 0.0303(3)
H7_2 H 0.6012 0.3779 0.0533
O8_2 O 0.7153(4) 0.0092(2) 0.0874(3)
O10_2 O 0.4827(3) 0.2481(2) 0.1040(3)
H13_2 H 0.5225 0.2159 0.1251
C1_2 C 0.8281(5) 0.0632(3) 0.8322(4)
C4_2 C 0.6135(5) 0.4311(3) 0.9395(4)
C7_2 C 0.8453(4) 0.0725(3) 0.9334(4)
H1_2 H 0.8518 0.0289 0.9625
H2_2 H 0.9188 0.0964 0.9532
C8_2 C 0.6369(5) 0.0737(3) 0.9572(4)
H3_2 H 0.6044 0.0642 0.8943
H4_2 H 0.5808 0.1016 0.9820
C9_2 C 0.4444(4) 0.2736(3) 0.9469(4)
H5_2 H 0.4406 0.2430 0.8962
H6_2 H 0.3786 0.3045 0.9328
C10_2 C 0.5578(5) 0.3792(2) 0.9918(4)
H8_2 H 0.4775 0.3932 0.9950
C11_2 C 0.9693(5) 0.3764(3) 0.9714(4)
H9_2 H 0.8958 0.3966 0.9818
H10_2 H 0.9786 0.3862 0.9094
C13_2 C 0.7495(5) 0.1779(3) 0.9602(3)
C14_2 C 0.6571(4) 0.2763(3) 0.9610(3)
C15_2 C 0.8544(4) 0.2734(3) 0.9708(3)
N1_2 N 0.6467(4) 0.2091(2) 0.9569(3)
N2_2 N 0.7581(4) 0.3115(2) 0.9700(3)
N3_2 N 0.8559(4) 0.2066(2) 0.9635(3)
N4_2 N 0.7489(4) 0.1093(2) 0.9619(3)
N5_2 N 0.5538(4) 0.3115(2) 0.9546(3)
N6_2 N 0.9619(4) 0.3038(2) 0.9824(3)
O1_2 O 0.8605(4) 0.0964(2) 0.6170(3)
O5_2 O 0.8960(3) 0.02415(18) 0.7977(3)
O6_2 O 0.7446(3) 0.0930(2) 0.7823(3)
O23_2 O 0.6268(4) 0.0471(2) 0.5044(3)
O24_2 O 0.5974(4) 0.1112(2) 0.6158(3)
U6_2 U 0.745519(17) 0.886529(10) 0.087095(14)
O2_2 O 0.6727(3) 0.97123(19) 0.6769(3)
O7_2 O 0.6143(3) 0.95555(18) 0.9736(3)
C1_3 C 0.3281(5) 0.4368(3) 0.3322(4)
C2_3 C 0.1551(5) 0.4903(3) 0.5093(4)
C4_3 C 0.1135(5) 0.0689(3) 0.4395(4)
C5_3 C 0.5692(5) 0.0929(3) 0.5343(4)
C6_3 C 0.5792(5) 0.2477(3) 0.3743(4)
C7_3 C 0.3453(4) 0.4275(3) 0.4334(4)
H1_3 H 0.3518 0.4711 0.4625
H2_3 H 0.4188 0.4036 0.4532
C8_3 C 0.1369(5) 0.4263(3) 0.4572(4)
H3_3 H 0.1044 0.4358 0.3943
H4_3 H 0.0808 0.3984 0.4820
C10_3 C 0.0578(5) 0.1208(2) 0.4918(4)
H7_3 H 0.1012 0.1221 0.5533
C11_3 C 0.4693(5) 0.1236(3) 0.4714(4)
H9_3 H 0.3958 0.1034 0.4818
H10_3 H 0.4786 0.1138 0.4094
C12_3 C 0.5654(4) 0.2350(3) 0.4718(3)
H11_3 H 0.5616 0.2778 0.5019
H12_3 H 0.6352 0.2117 0.5022
C13_3 C 0.2495(5) 0.3221(3) 0.4602(3)
C14_3 C 0.1571(4) 0.2237(3) 0.4610(3)
C15_3 C 0.3544(4) 0.2266(3) 0.4708(3)
N1_3 N 0.1467(4) 0.2909(2) 0.4569(3)
N2_3 N 0.2581(4) 0.1885(2) 0.4700(3)
N3_3 N 0.3559(4) 0.2934(2) 0.4635(3)
N4_3 N 0.2489(4) 0.3907(2) 0.4619(3)
N5_3 N 0.0538(4) 0.1885(2) 0.4546(3)
N6_3 N 0.4619(4) 0.1962(2) 0.4824(3)
O1_3 O 0.3605(4) 0.4036(2) 0.1170(3)
O2_3 O 0.1727(3) 0.52877(19) 0.1769(3)
O3_3 O 0.8636(3) 0.37565(19) 0.3433(3)
O4_3 O 0.6424(3) 0.40120(19) 0.4792(3)
O5_3 O 0.3960(3) 0.47585(18) 0.2977(3)
O6_3 O 0.2446(3) 0.4070(2) 0.2823(3)
H13_3 H 0.0225 0.2841 0.6251
O11_2 O 0.1838(4) 0.0279(2) 0.4846(3)
O12_2 O 0.0886(3) 0.06234(19) 0.3555(3)
O15_3 O 0.5185(4) 0.2182(3) 0.3132(3)
H14_3 H 0.5498 0.2197 0.2677
O16_3 O 0.6620(3) 0.2897(2) 0.3632(3)
O17_3 O 0.6257(4) 0.4312(2) 0.2825(3)
H15_3 H 0.5895 0.3991 0.2523
H16_3 H 0.6668 0.4523 0.2494
O20_2 O 0.8508(3) 0.31342(19) 0.5164(2)
O21_2 O 0.3162(4) 0.5279(2) 0.0154(3)
O22_2 O 0.4114(3) 0.56234(19) 0.1445(3)
C3_3 C 0.9281(4) 0.2664(2) 0.5303(3)
C9_3 C 0.9444(4) 0.2264(3) 0.4469(4)
H5_3 H 0.9406 0.2570 0.3962
H6_3 H 0.8786 0.1955 0.4328
H8_3 H 0.9775 0.1068 0.4950
O10_3 O 0.9827(3) 0.2519(2) 0.6040(3)
O2_4 O 0.3273(3) 0.02877(19) 0.3231(3)
C1_4 C 0.1719(5) 0.9368(3) 0.1678(4)
C4_4 C 0.3865(5) 0.5689(3) 0.0605(4)
C7_4 C 0.1547(4) 0.9275(3) 0.0666(4)
H1_4 H 0.1482 0.9711 0.0375
H2_4 H 0.0812 0.9036 0.0468
C8_4 C 0.3631(5) 0.9263(3) 0.0428(4)
H3_4 H 0.3956 0.9358 0.1057
H4_4 H 0.4192 0.8984 0.0180
C9_4 C 0.5556(4) 0.7264(3) 0.0531(4)
H5_4 H 0.5594 0.7570 0.1038
H6_4 H 0.6214 0.6955 0.0672
C10_4 C 0.4422(5) 0.6208(2) 0.0082(4)
H8_4 H 0.5225 0.6068 0.0050
C11_4 C 0.0307(5) 0.6236(3) 0.0286(4)
H9_4 H 0.1042 0.6034 0.0182
H10_4 H 0.0214 0.6138 0.0906
C13_4 C 0.2505(5) 0.8221(3) 0.0398(3)
C14_4 C 0.3429(4) 0.7237(3) 0.0390(3)
C15_4 C 0.1456(4) 0.7266(3) 0.0292(3)
N1_4 N 0.3533(4) 0.7909(2) 0.0431(3)
N2_4 N 0.2419(4) 0.6885(2) 0.0300(3)
N3_4 N 0.1441(4) 0.7934(2) 0.0365(3)
N4_4 N 0.2511(4) 0.8907(2) 0.0381(3)
N5_4 N 0.4462(4) 0.6885(2) 0.0454(3)
N6_4 N 0.0381(4) 0.6962(2) 0.0176(3)
O1_4 O 0.1395(4) 0.9036(2) 0.3830(3)
O5_4 O 0.1040(3) 0.97585(18) 0.2023(3)
O6_4 O 0.2554(3) 0.9070(2) 0.2177(3)
C2_4 C 0.3449(5) 0.9903(3) 0.9907(4)
C3_4 C 0.5719(4) 0.7664(2) 0.9697(3)
H7_4 H 0.3988 0.6221 0.9467
O9_2 O 0.6492(3) 0.81342(19) 0.9836(2)
O10_4 O 0.5173(3) 0.7519(2) 0.8960(3)
H13_4 H 0.4775 0.7841 0.8749
C6_4 C 0.9208(5) 0.7477(3) 0.1257(4)
C12_4 C 0.9346(4) 0.7350(3) 0.0282(3)
O3_4 O 0.6364(3) 0.87565(19) 0.1567(3)
O4_4 O 0.8576(3) 0.90120(19) 0.0208(3)
O15_4 O 0.9815(4) 0.7182(3) 0.1868(3)
H14_4 H 0.9502 0.7197 0.2323
O16_4 O 0.8380(3) 0.7897(2) 0.1368(3)
O17_4 O 0.8743(4) 0.9312(2) 0.2175(3)
H15_4 H 0.9105 0.8991 0.2477
H16_4 H 0.8332 0.9523 0.2506
C5_4 C 0.9308(5) 0.5929(3) 0.9657(4)
H11_4 H 0.9384 0.7778 0.9981
H12_4 H 0.8648 0.7117 0.9978
loop_
_geom_bond_atom_site_label_1
_geom_bond_atom_site_label_2
_geom_bond_site_symmetry_1
_geom_bond_site_symmetry_2
C3 C9 1_555 1_555
C9 H5 1_555 1_555
H6 C9 1_555 1_555
O9 C3 1_555 1_555
O10 C3 1_555 1_555
U5 O9 1_555 1_555
U1 O1 1_555 1_555
U5 O3 1_555 1_555
C1 C7 1_555 1_555
C2 C8 1_555 1_555
C4 C10 1_555 1_555
C5 C11 1_555 1_555
C6 C12 1_555 1_555
C7 H1 1_555 1_555
H2 C7 1_555 1_555
C8 H3 1_555 1_555
H4 C8 1_555 1_555
C10 H7 1_555 1_555
C11 H9 1_555 1_555
H10 C11 1_555 1_555
C12 H11 1_555 1_555
H12 C12 1_555 1_555
C13 N1 1_555 1_555
C14 N1 1_555 1_555
C15 N2 1_555 1_555
N2 C14 1_555 1_555
N3 C13 1_555 1_555
N4 C7 1_555 1_555
N6 C11 1_555 1_555
O2 U1 1_555 1_555
O4 U5 1_555 1_555
O5 U1 1_555 1_555
O6 U1 1_555 1_555
O7 C2 1_555 1_555
O8 C2 1_555 1_555
O11 C4 1_555 1_555
O12 C4 1_555 1_555
O13 C5 1_555 1_555
O14 C5 1_555 1_555
O15 C6 1_555 1_555
H14 O15 1_555 1_555
O16 U5 1_555 1_555
O17 U5 1_555 1_555
H15 O17 1_555 1_555
H16 O17 1_555 1_555
U4 O13 1_555 1_555
U6 O7 1_555 1_555
O18 U5 1_555 1_555
O19 U5 1_555 1_555
O21 U1 1_555 1_555
O22 U1 1_555 1_555
O23 U1 1_555 1_555
O24 U1 1_555 1_555
C1 O5 1_555 1_555
C1 O6 1_555 1_555
C6 O16 1_555 1_555
C8 N4 1_555 1_555
C10 N5 1_555 1_555
C12 N6 1_555 1_555
C13 N4 1_555 1_555
C14 N5 1_555 1_555
C15 N3 1_555 1_555
C15 N6 1_555 1_555
O8 U6 1_555 1_555
O14 U4 1_555 1_555
O13_2 C5_2 1_555 1_555
O14_2 C5_2 1_555 1_555
U4_2 O13_2 1_555 1_555
O14_2 U4_2 1_555 1_555
U2 O3_2 1_555 1_555
C6_2 C12_2 1_555 1_555
O4_2 U2 1_555 1_555
O15_2 C6_2 1_555 1_555
H14_2 O15_2 1_555 1_555
O16_2 U2 1_555 1_555
O17_2 U2 1_555 1_555
H15_2 O17_2 1_555 1_555
H16_2 O17_2 1_555 1_555
C6_2 O16_2 1_555 1_555
O8_2 C2_2 1_555 1_555
O20 C3_2 1_555 1_555
O10_2 C3_2 1_555 1_555
H13_2 O10_2 1_555 1_555
U3 O1_2 1_555 1_555
C1_2 C7_2 1_555 1_555
C4_2 C10_2 1_555 1_555
C7_2 H1_2 1_555 1_555
H2_2 C7_2 1_555 1_555
C8_2 H3_2 1_555 1_555
H4_2 C8_2 1_555 1_555
C9_2 H5_2 1_555 1_555
H6_2 C9_2 1_555 1_555
H8_2 C10_2 1_555 1_555
C11_2 H9_2 1_555 1_555
H10_2 C11_2 1_555 1_555
C13_2 N1_2 1_555 1_555
C14_2 N1_2 1_555 1_555
C15_2 N2_2 1_555 1_555
N2_2 C14_2 1_555 1_555
N3_2 C13_2 1_555 1_555
N4_2 C7_2 1_555 1_555
N5_2 C9_2 1_555 1_555
N6_2 C11_2 1_555 1_555
O5_2 U3 1_555 1_555
O6_2 U3 1_555 1_555
O21 C4_2 1_555 1_555
O22 C4_2 1_555 1_555
O23_2 U3 1_555 1_555
O24_2 U3 1_555 1_555
C1_2 O5_2 1_555 1_555
C1_2 O6_2 1_555 1_555
C8_2 N4_2 1_555 1_555
C10_2 N5_2 1_555 1_555
C13_2 N4_2 1_555 1_555
C14_2 N5_2 1_555 1_555
C15_2 N3_2 1_555 1_555
C15_2 N6_2 1_555 1_555
U4_2 O1_3 1_555 1_555
U6 O3_3 1_555 1_555
C1_3 C7_3 1_555 1_555
C2_3 C8_3 1_555 1_555
C4_3 C10_3 1_555 1_555
C5_3 C11_3 1_555 1_555
C6_3 C12_3 1_555 1_555
C7_3 H1_3 1_555 1_555
H2_3 C7_3 1_555 1_555
C8_3 H3_3 1_555 1_555
H4_3 C8_3 1_555 1_555
C10_3 H7_3 1_555 1_555
C11_3 H9_3 1_555 1_555
H10_3 C11_3 1_555 1_555
C12_3 H11_3 1_555 1_555
H12_3 C12_3 1_555 1_555
C13_3 N1_3 1_555 1_555
C14_3 N1_3 1_555 1_555
C15_3 N2_3 1_555 1_555
N2_3 C14_3 1_555 1_555
N3_3 C13_3 1_555 1_555
N4_3 C7_3 1_555 1_555
N6_3 C11_3 1_555 1_555
O2_3 U4_2 1_555 1_555
O4_3 U6 1_555 1_555
O5_3 U4_2 1_555 1_555
O6_3 U4_2 1_555 1_555
O18 C2_3 1_555 1_555
O19 C2_3 1_555 1_555
O11_2 C4_3 1_555 1_555
O12_2 C4_3 1_555 1_555
O23_2 C5_3 1_555 1_555
O24_2 C5_3 1_555 1_555
O15_3 C6_3 1_555 1_555
H14_3 O15_3 1_555 1_555
O16_3 U6 1_555 1_555
O17_3 U6 1_555 1_555
H15_3 O17_3 1_555 1_555
H16_3 O17_3 1_555 1_555
O20_2 U6 1_555 1_555
O21_2 U4_2 1_555 1_555
O22_2 U4_2 1_555 1_555
C1_3 O5_3 1_555 1_555
C1_3 O6_3 1_555 1_555
C6_3 O16_3 1_555 1_555
C8_3 N4_3 1_555 1_555
C10_3 N5_3 1_555 1_555
C12_3 N6_3 1_555 1_555
C13_3 N4_3 1_555 1_555
C14_3 N5_3 1_555 1_555
C15_3 N3_3 1_555 1_555
C15_3 N6_3 1_555 1_555
C3_3 C9_3 1_555 1_555
C9_3 H5_3 1_555 1_555
H6_3 C9_3 1_555 1_555
O20_2 C3_3 1_555 1_555
O10_3 C3_3 1_555 1_555
U4 O1_4 1_555 1_555
C1_4 C7_4 1_555 1_555
C4_4 C10_4 1_555 1_555
C7_4 H1_4 1_555 1_555
H2_4 C7_4 1_555 1_555
C8_4 H3_4 1_555 1_555
H4_4 C8_4 1_555 1_555
C9_4 H5_4 1_555 1_555
H6_4 C9_4 1_555 1_555
H8_4 C10_4 1_555 1_555
C11_4 H9_4 1_555 1_555
H10_4 C11_4 1_555 1_555
C13_4 N1_4 1_555 1_555
C14_4 N1_4 1_555 1_555
C15_4 N2_4 1_555 1_555
N2_4 C14_4 1_555 1_555
N3_4 C13_4 1_555 1_555
N4_4 C7_4 1_555 1_555
N5_4 C9_4 1_555 1_555
N6_4 C11_4 1_555 1_555
O5_4 U4 1_555 1_555
O6_4 U4 1_555 1_555
O21_2 C4_4 1_555 1_555
O22_2 C4_4 1_555 1_555
C1_4 O5_4 1_555 1_555
C1_4 O6_4 1_555 1_555
C8_4 N4_4 1_555 1_555
C10_4 N5_4 1_555 1_555
C13_4 N4_4 1_555 1_555
C14_4 N5_4 1_555 1_555
C15_4 N3_4 1_555 1_555
C15_4 N6_4 1_555 1_555
O19_2 C2_4 1_555 1_555
O9_2 C3_4 1_555 1_555
O10_4 C3_4 1_555 1_555
H13_4 O10_4 1_555 1_555
U6_2 O3_4 1_555 1_555
C6_4 C12_4 1_555 1_555
O4_4 U6_2 1_555 1_555
O15_4 C6_4 1_555 1_555
H14_4 O15_4 1_555 1_555
O16_4 U6_2 1_555 1_555
O17_4 U6_2 1_555 1_555
H15_4 O17_4 1_555 1_555
H16_4 O17_4 1_555 1_555
C6_4 O16_4 1_555 1_555
O23 C5_4 1_555 1_555
O24 C5_4 1_555 1_555

#END
