
###############################################################################
#
# This file contains modified crystal structure data generated from the
# MOF subset of the Cambridge Structural Database (CSD) v543 
# hosted by the Cambridge Crystallographic Data Centre (CCDC).
#
# This work is licensed under the Creative Commons
# Attribution-NonCommercial-ShareAlike 4.0 International License.
# To view a copy of this license, visit
# http://creativecommons.org/licenses/by-nc-sa/4.0/
# or send a letter to
# Creative Commons, PO Box 1866, Mountain View, CA 94042, USA.
#
# CIF created using the CSD Python API on 29 September 2022
# The structure has been converted into the P1 space group
# The structure has a 3D framework
# The original CSD entry QUSSEE is in the triclinic crystal system
# The framework has been calculated to contain at least 10.0% void space
# The void calculation uses a probe of radius 1.32A, grid spacing 0.4
#
###############################################################################

data_QUSSEE
_chemical_formula_moiety         '(C68 H42 N4 O20 Zn10)n'
_symmetry_cell_setting           triclinic
_symmetry_space_group_name_H-M   'P 1'
_symmetry_Int_Tables_number      1
_space_group_name_Hall           'P 1'
loop_
_symmetry_equiv_pos_site_id
_symmetry_equiv_pos_as_xyz
1 x,y,z
_cell_length_a                   9.8071(5)
_cell_length_b                   11.6150(10)
_cell_length_c                   16.544(2)
_cell_angle_alpha                103.754(8)
_cell_angle_beta                 104.537(5)
_cell_angle_gamma                95.907(6)
_cell_volume                     1745.18
loop_
_atom_site_label
_atom_site_type_symbol
_atom_site_fract_x
_atom_site_fract_y
_atom_site_fract_z
Zn9 Zn 0 0.000 0
Zn9_2 Zn 1 0.000 1
C18 C 0.1874(4) 0.2245(3) 0.1515(2)
C19 C 0.3332(4) 0.2732(3) 0.2146(2)
C20 C 0.3536(4) 0.3689(3) 0.2878(3)
H13 H 0.2763 0.4045 0.2973
C21 C 0.4874(4) 0.4117(3) 0.3468(3)
H14 H 0.4999 0.4772 0.3946
C22 C 0.6024(4) 0.3576(3) 0.3349(2)
C23 C 0.5853(4) 0.2619(3) 0.2620(2)
H15 H 0.663 0.2263 0.2532
C24 C 0.4512(4) 0.2202(3) 0.2025(2)
H16 H 0.4394 0.1561 0.1539
C25 C 0.7473(4) 0.4059(3) 0.3987(2)
C28 C 0.9716(4) 0.7520(3) 0.2935(3)
H17 H 0.9431 0.7974 0.3387
C29 C 0.9665(4) 0.7917(3) 0.2212(2)
H18 H 0.9339 0.8632 0.2175
O3 O 0.1688(3) 0.1240(2) 0.09849(16)
O4 O 0.0919(3) 0.2887(2) 0.15972(17)
O5 O 0.8456(3) 0.3461(3) 0.3929(2)
O6 O 0.7621(3) 0.5044(3) 0.4541(2)
O8 O 0.9815(4) 0.6618(3) 0.4379(2)
O10 O 0.9968(3) 0.8785(2) 0.08028(17)
Zn9_3 Zn 1 1.000 0
Zn13 Zn 0.94440(4) 0.60595(3) 0.54046(3)
C35 C 0.7404(4) 0.7762(4) 0.5542(3)
H22 H 0.6919 0.728 0.4987
C36 C 0.6845(5) 0.8722(4) 0.5889(3)
H23 H 0.6017 0.8904 0.5563
C37 C 0.7515(4) 0.9433(3) 0.6735(3)
C38 C 0.8743(4) 0.9116(3) 0.7184(2)
H24 H 0.9214 0.9553 0.7754
C39 C 0.9268(4) 0.8147(3) 0.6780(2)
N3 N 0.8628(3) 0.7481(3) 0.5967(2)
O30 O 0.9280(3) 0.2910(3) 0.97771(18)
H21 H 0.7261 0.9373 0.0592
C60 C 0.9765(4) 0.3998(3) 0.6202(2)
C61 C 0.9810(4) 0.3555(3) 0.6999(2)
C64 C 0.9896(4) 0.2756(3) 0.8470(2)
C65 C 0.9510(4) 0.3872(3) 0.8427(2)
H40 H 0.9274 0.4351 0.8891
C66 C 0.9479(4) 0.4265(3) 0.7703(3)
H41 H 0.9234 0.5012 0.7685
C67 C 0.9751(4) 0.2249(4) 0.9213(3)
O19 O 0.9309(4) 0.4955(3) 0.6190(2)
Zn9_4 Zn 0 0.000 1
C26 C 0.0235(4) 0.6002(3) 0.3798(2)
C27 C 0.0190(4) 0.6445(3) 0.3001(2)
C30 C 0.0104(4) 0.7244(3) 0.1530(2)
C31 C 0.0490(4) 0.6128(3) 0.1573(2)
H19 H 0.0726 0.5649 0.1109
C32 C 0.0521(4) 0.5735(3) 0.2297(3)
H20 H 0.0766 0.4988 0.2315
C33 C 0.0249(4) 0.7751(4) 0.0787(3)
O7 O 0.0691(4) 0.5045(3) 0.3810(2)
O9 O 0.0720(3) 0.7090(3) 0.02229(18)
Zn3 Zn 0.05560(4) 0.39405(3) 0.45954(3)
N5 N 0.1372(3) 0.2519(3) 0.4033(2)
O26 O 0.2379(3) 0.4956(3) 0.5459(2)
O28 O 0.0185(4) 0.3382(3) 0.5621(2)
Zn9_5 Zn -0 1.000 0
H42 H 0.2739 0.0627 0.9408
O32 O 0.0032(3) 0.1215(2) 0.91972(17)
Zn9_6 Zn 1 1.000 1
C1 C 0.2596(4) 0.2238(4) 0.4458(3)
H1 H 0.3081 0.272 0.5013
C2 C 0.3155(5) 0.1278(4) 0.4111(3)
H2 H 0.3983 0.1096 0.4437
C3 C 0.2485(4) 0.0567(3) 0.3265(3)
C4 C 0.1257(4) 0.0884(3) 0.2816(2)
H3 H 0.0786 0.0447 0.2246
C5 C 0.0732(4) 0.1853(3) 0.3220(2)
C52 C 0.8126(4) 0.7755(3) 0.8485(2)
C53 C 0.6668(4) 0.7268(3) 0.7854(2)
C54 C 0.6464(4) 0.6311(3) 0.7122(3)
H34 H 0.7237 0.5955 0.7027
C55 C 0.5126(4) 0.5883(3) 0.6532(3)
H35 H 0.5001 0.5228 0.6054
C56 C 0.3976(4) 0.6424(3) 0.6651(2)
C57 C 0.4147(4) 0.7381(3) 0.7380(2)
H36 H 0.337 0.7737 0.7468
C58 C 0.5488(4) 0.7798(3) 0.7975(2)
H37 H 0.5606 0.8439 0.8461
C59 C 0.2527(4) 0.5941(3) 0.6013(2)
C62 C 0.0284(4) 0.2480(3) 0.7065(3)
H38 H 0.0569 0.2026 0.6613
C63 C 0.0335(4) 0.2083(3) 0.7788(2)
H39 H 0.0661 0.1368 0.7825
O15 O 0.8312(3) 0.8760(2) 0.90151(16)
O16 O 0.9081(3) 0.7113(2) 0.84028(17)
O17 O 0.1544(3) 0.6539(3) 0.6071(2)
Zn7 Zn 0.10362(4) 0.75398(4) 0.91998(3)
Zn9_7 Zn 0 1.000 1
C40 C 0.6945(4) 0.0503(3) 0.7134(3)
C41 C 0.6541(5) 0.1309(4) 0.6656(3)
H26 H 0.6599 0.1164 0.6089
C42 C 0.6056(5) 0.2321(4) 0.7020(3)
H27 H 0.5812 0.2872 0.6706
C43 C 0.6809(4) 0.0727(3) 0.7967(3)
H28 H 0.7065 0.0195 0.8295
C44 C 0.6300(4) 0.1729(3) 0.8308(3)
H29 H 0.6206 0.1872 0.8867
C45 C 0.5354(4) 0.3581(3) 0.8181(3)
C46 C 0.4033(5) 0.3704(4) 0.7724(3)
H30 H 0.3524 0.313 0.721
C47 C 0.3469(4) 0.4701(4) 0.8044(3)
H31 H 0.2572 0.4797 0.7739
C48 C 0.4207(4) 0.5549(3) 0.8801(3)
C49 C 0.5562(4) 0.5416(4) 0.9247(3)
H32 H 0.6085 0.6001 0.9751
C50 C 0.6131(4) 0.4416(4) 0.8941(3)
H33 H 0.7024 0.4311 0.9244
C51 C 0.3514(5) 0.6586(4) 0.9164(3)
C68 C 0.2300(6) 0.9834(5) 0.9124(4)
N4 N 0.5934(3) 0.2512(3) 0.7836(2)
O13 O 0.2209(3) 0.6500(3) 0.8744(2)
O14 O 0.4188(3) 0.7393(3) 0.9806(2)
O23 O 0.1548(3) 0.9279(2) 0.95186(18)
O24 O 0.2472(6) 0.9390(5) 0.8405(4)
H25 H 0.0102 0.7951 0.7088
Zn9_8 Zn 1 0.000 0
C6 C 0.3055(4) 0.9497(3) 0.2866(3)
C7 C 0.3459(5) 0.8691(4) 0.3344(3)
H5 H 0.3401 0.8836 0.3911
C8 C 0.3944(5) 0.7679(4) 0.2980(3)
H6 H 0.4188 0.7128 0.3294
C9 C 0.3191(4) 0.9273(3) 0.2033(3)
H7 H 0.2935 0.9805 0.1705
C10 C 0.3700(4) 0.8271(3) 0.1692(3)
H8 H 0.3794 0.8128 0.1133
C11 C 0.4646(4) 0.6419(3) 0.1819(3)
C12 C 0.5967(5) 0.6296(4) 0.2276(3)
H9 H 0.6476 0.687 0.279
C13 C 0.6531(4) 0.5299(4) 0.1956(3)
H10 H 0.7428 0.5203 0.2261
C14 C 0.5793(4) 0.4451(3) 0.1199(3)
C15 C 0.4438(4) 0.4584(4) 0.0753(3)
H11 H 0.3915 0.3999 0.0249
C16 C 0.3869(4) 0.5584(4) 0.1059(3)
H12 H 0.2976 0.5689 0.0756
C17 C 0.6486(5) 0.3414(4) 0.0836(3)
C34 C 0.7700(6) 0.0166(5) 0.0876(4)
N2 N 0.4066(3) 0.7488(3) 0.2164(2)
O1 O 0.7791(3) 0.3500(3) 0.1256(2)
O2 O 0.5812(3) 0.2607(3) 0.0194(2)
O11 O 0.8452(3) 0.0721(2) 0.04814(18)
O12 O 0.7528(6) 0.0610(5) 0.1595(4)
Zn1 Zn 0.89638(4) 0.24602(4) 0.08002(3)
H4 H 0.9898 0.2049 0.2912
loop_
_geom_bond_atom_site_label_1
_geom_bond_atom_site_label_2
_geom_bond_site_symmetry_1
_geom_bond_site_symmetry_2
C18 C19 1_555 1_555
C19 C20 1_555 1_555
C20 H13 1_555 1_555
C21 C20 1_555 1_555
H14 C21 1_555 1_555
C22 C21 1_555 1_555
C23 C22 1_555 1_555
H15 C23 1_555 1_555
C24 C19 1_555 1_555
H16 C24 1_555 1_555
C25 C22 1_555 1_555
C28 H17 1_555 1_555
C29 C28 1_555 1_555
H18 C29 1_555 1_555
O3 C18 1_555 1_555
O4 C18 1_555 1_555
O5 C25 1_555 1_555
O6 C25 1_555 1_555
Zn9 O3 1_555 1_555
Zn9_3 O10 1_555 1_555
Zn13 O6 1_555 1_555
C23 C24 1_555 1_555
O8 Zn13 1_555 1_555
C35 H22 1_555 1_555
C36 C35 1_555 1_555
H23 C36 1_555 1_555
C37 C36 1_555 1_555
C38 C37 1_555 1_555
H24 C38 1_555 1_555
C39 C38 1_555 1_555
N3 C35 1_555 1_555
Zn13 N3 1_555 1_555
C39 N3 1_555 1_555
C60 C61 1_555 1_555
C65 C64 1_555 1_555
H40 C65 1_555 1_555
C66 C61 1_555 1_555
H41 C66 1_555 1_555
C67 C64 1_555 1_555
O19 C60 1_555 1_555
O30 C67 1_555 1_555
C65 C66 1_555 1_555
O19 Zn13 1_555 1_555
C26 C27 1_555 1_555
C31 C30 1_555 1_555
H19 C31 1_555 1_555
C32 C27 1_555 1_555
H20 C32 1_555 1_555
C33 C30 1_555 1_555
O7 C26 1_555 1_555
O9 C33 1_555 1_555
N5 Zn3 1_555 1_555
O26 Zn3 1_555 1_555
O28 Zn3 1_555 1_555
C31 C32 1_555 1_555
O7 Zn3 1_555 1_555
O32 Zn9_4 1_555 1_555
C1 H1 1_555 1_555
C2 C1 1_555 1_555
H2 C2 1_555 1_555
C3 C2 1_555 1_555
C4 C3 1_555 1_555
H3 C4 1_555 1_555
C5 C4 1_555 1_555
N5 C1 1_555 1_555
C5 N5 1_555 1_555
C52 C53 1_555 1_555
C53 C54 1_555 1_555
C54 H34 1_555 1_555
C55 C54 1_555 1_555
H35 C55 1_555 1_555
C56 C55 1_555 1_555
C57 C56 1_555 1_555
H36 C57 1_555 1_555
C58 C53 1_555 1_555
H37 C58 1_555 1_555
C59 C56 1_555 1_555
C62 H38 1_555 1_555
C63 C62 1_555 1_555
H39 C63 1_555 1_555
O15 Zn9_6 1_555 1_555
O16 C52 1_555 1_555
O17 C59 1_555 1_555
O26 C59 1_555 1_555
C52 O15 1_555 1_555
C57 C58 1_555 1_555
C41 C40 1_555 1_555
H26 C41 1_555 1_555
C42 C41 1_555 1_555
H27 C42 1_555 1_555
C43 C40 1_555 1_555
H28 C43 1_555 1_555
C44 C43 1_555 1_555
H29 C44 1_555 1_555
C45 C46 1_555 1_555
C46 H30 1_555 1_555
C47 C46 1_555 1_555
H31 C47 1_555 1_555
C48 C47 1_555 1_555
C49 C48 1_555 1_555
H32 C49 1_555 1_555
C50 C45 1_555 1_555
H33 C50 1_555 1_555
C51 C48 1_555 1_555
N4 C42 1_555 1_555
O13 C51 1_555 1_555
O14 C51 1_555 1_555
O23 Zn9_7 1_555 1_555
O24 C68 1_555 1_555
Zn7 O13 1_555 1_555
C44 N4 1_555 1_555
C45 N4 1_555 1_555
C49 C50 1_555 1_555
C68 O23 1_555 1_555
O23 Zn7 1_555 1_555
C7 C6 1_555 1_555
H5 C7 1_555 1_555
C8 C7 1_555 1_555
H6 C8 1_555 1_555
C9 C6 1_555 1_555
H7 C9 1_555 1_555
C10 C9 1_555 1_555
H8 C10 1_555 1_555
C11 C12 1_555 1_555
C12 H9 1_555 1_555
C13 C12 1_555 1_555
H10 C13 1_555 1_555
C14 C13 1_555 1_555
C15 C14 1_555 1_555
H11 C15 1_555 1_555
C16 C11 1_555 1_555
H12 C16 1_555 1_555
C17 C14 1_555 1_555
N2 C8 1_555 1_555
O1 C17 1_555 1_555
O2 C17 1_555 1_555
O11 C34 1_555 1_555
O12 C34 1_555 1_555
Zn1 O1 1_555 1_555
C10 N2 1_555 1_555
C11 N2 1_555 1_555
C15 C16 1_555 1_555
O11 Zn1 1_555 1_555
O11 Zn9_8 1_555 1_555

#END
