
###############################################################################
#
# This file contains modified crystal structure data generated from the
# MOF subset of the Cambridge Structural Database (CSD) v543 
# hosted by the Cambridge Crystallographic Data Centre (CCDC).
#
# This work is licensed under the Creative Commons
# Attribution-NonCommercial-ShareAlike 4.0 International License.
# To view a copy of this license, visit
# http://creativecommons.org/licenses/by-nc-sa/4.0/
# or send a letter to
# Creative Commons, PO Box 1866, Mountain View, CA 94042, USA.
#
# CIF created using the CSD Python API on 29 September 2022
# The structure has been converted into the P1 space group
# The structure has a 3D framework
# The original CSD entry QUTTII01 is in the monoclinic crystal system
# The framework has been calculated to contain at least 10.0% void space
# The void calculation uses a probe of radius 1.32A, grid spacing 0.4
# H atom positions have been added when not included in the experimental data
# Generated hydrogen atom positions removed from atoms on special positions
#
###############################################################################

data_QUTTII01
_chemical_formula_moiety         '(C40 H32 Co14 O40)n'
_symmetry_cell_setting           triclinic
_symmetry_space_group_name_H-M   'P 1'
_symmetry_Int_Tables_number      1
_space_group_name_Hall           'P 1'
loop_
_symmetry_equiv_pos_site_id
_symmetry_equiv_pos_as_xyz
1 x,y,z
_cell_length_a                   7.4120(2)
_cell_length_b                   16.4666(3)
_cell_length_c                   14.5028(3)
_cell_angle_alpha                90
_cell_angle_beta                 95.352(2)
_cell_angle_gamma                90
_cell_volume                     1762.36
loop_
_atom_site_label
_atom_site_type_symbol
_atom_site_fract_x
_atom_site_fract_y
_atom_site_fract_z
Co7 Co 0.5000 0.5000 0.0000
Co1 Co 0.0000 0.0000 0.5000
O2 O 0.5140(3) 0.10296(14) 0.68147(15)
O3 O 0.4630(3) 0.15546(15) 0.53953(14)
O4 O 0.0193(3) 0.41761(13) 0.86439(14)
O5 O 0.1021(3) 0.09416(13) 0.58245(14)
O7 O 0.4006(3) 0.41528(13) 0.89689(14)
O9 O 0.5923(3) 0.42304(16) 0.78864(16)
C1 C 0.4426(4) 0.15208(18) 0.6247(2)
C2 C 0.3373(4) 0.34009(17) 0.75787(19)
C3 C 0.1441(4) 0.22485(17) 0.64697(19)
C4 C 0.4525(4) 0.39785(17) 0.81845(19)
C5 C 0.3314(4) 0.21897(17) 0.66296(19)
C6 C 0.0566(4) 0.28984(18) 0.68348(19)
C7 C 0.0316(4) 0.16223(18) 0.59279(19)
C8 C 0.4260(4) 0.27748(18) 0.71695(19)
H2 H 0.5517 0.2746 0.7258
C9 C 0.1476(4) 0.34654(17) 0.74038(19)
C10 C 0.0301(4) 0.41013(18) 0.77859(19)
Co7_2 Co 0.5000 0.5000 1.0000
Co8 Co 0.70914(5) 0.01325(3) 0.67671(3)
Co10 Co 0.79086(5) 0.51325(3) 0.82329(3)
Co14 Co 0.68901(5) 0.12792(2) 0.47337(3)
Co17 Co 0.18901(5) 0.37208(2) 0.97337(3)
O30 O 0.5193(3) 0.08239(13) 0.36439(14)
O32 O 0.4314(3) 0.04806(14) 0.22250(14)
O36 O 0.0923(3) 0.07696(16) 0.28864(16)
Co1_2 Co 0.0000 1.0000 0.5000
Co4 Co 0.29086(5) 0.98675(3) 0.32329(3)
Co5 Co 0.31099(5) 0.87208(2) 0.52663(3)
O12 O 0.2589(3) 0.98344(12) 0.46000(13)
O17 O 0.0686(3) 0.54806(14) 0.27750(14)
O19 O 0.1269(3) 0.81698(14) 0.43527(17)
O21 O 0.3434(4) 0.74648(17) 0.57719(18)
O22 O 0.1277(3) 0.91261(17) 0.23657(19)
H3 H 0.0677 0.7044 0.3308
Co13 Co 0.20914(5) 0.48675(3) 0.17671(3)
O24 O 0.4860(3) 0.89704(14) 0.31853(15)
O26 O 0.5370(3) 0.84454(15) 0.46047(14)
O28 O 0.4807(3) 0.91761(13) 0.63561(14)
O33 O 0.0994(3) 0.91528(13) 0.60311(14)
H12 H 0.157401 0.920227 0.171767
Co1_3 Co 1.0000 0.0000 0.5000
O1 O 0.7411(3) 0.01656(12) 0.54000(13)
O6 O 0.9314(3) 0.45194(14) 0.72250(14)
O8 O 0.8731(3) 0.18302(14) 0.56473(17)
O10 O 0.6566(4) 0.25352(17) 0.42281(18)
O11 O 0.8723(3) 0.08739(17) 0.76343(19)
H1 H 0.9323 0.2956 0.6692
O34 O 0.9006(3) 0.08472(13) 0.39689(14)
H7 H 0.851536 0.144949 0.744965
H8 H 0.842599 0.079773 0.828233
Co1_4 Co 1.0000 1.0000 0.5000
O15 O 0.9807(3) 0.58239(13) 0.13561(14)
O16 O 0.8979(3) 0.90584(13) 0.41755(14)
O18 O 0.5994(3) 0.58472(13) 0.10311(14)
O20 O 0.4077(3) 0.57696(16) 0.21136(16)
C11 C 0.5574(4) 0.84792(18) 0.3753(2)
C12 C 0.6627(4) 0.65991(17) 0.24213(19)
C13 C 0.8559(4) 0.77515(17) 0.35303(19)
C14 C 0.5475(4) 0.60215(17) 0.18155(19)
C15 C 0.6686(4) 0.78103(17) 0.33704(19)
C16 C 0.9434(4) 0.71016(18) 0.31652(19)
C17 C 0.9684(4) 0.83777(18) 0.40721(19)
C18 C 0.5740(4) 0.72252(18) 0.28305(19)
H4 H 0.4483 0.7254 0.2742
C19 C 0.8524(4) 0.65346(17) 0.25962(19)
C20 C 0.9699(4) 0.58987(18) 0.22141(19)
Co15 Co 0.81099(5) 0.62792(2) 0.02663(3)
O31 O 0.5686(3) 0.95194(14) 0.77750(14)
O35 O 0.9077(3) 0.92304(16) 0.71136(16)
H11 H 0.998653 0.926845 0.241141
O13 O 0.0140(3) 0.39704(14) 0.18147(15)
H4_2 H 0.0517 0.2254 0.2258
O25 O 0.0370(3) 0.65546(15) 0.96047(14)
O10_2 O 0.8434(4) 0.75352(17) 0.07719(18)
O12_2 O 0.2411(3) 0.48344(12) 0.04000(13)
O14 O 0.9630(3) 0.34454(15) 0.03953(14)
O16_2 O 0.6021(3) 0.40584(13) 0.08245(14)
O19_2 O 0.3731(3) 0.31698(14) 0.06473(17)
O22_2 O 0.3723(3) 0.41261(17) 0.26343(19)
C11_2 C 0.9426(4) 0.34792(18) 0.1247(2)
C12_2 C 0.8373(4) 0.15991(17) 0.25787(19)
C13_2 C 0.6441(4) 0.27515(17) 0.14697(19)
C14_2 C 0.9525(4) 0.10215(17) 0.31845(19)
C15_2 C 0.8314(4) 0.28103(17) 0.16296(19)
C16_2 C 0.5566(4) 0.21016(18) 0.18348(19)
H3_2 H 0.4323 0.2044 0.1692
C17_2 C 0.5316(4) 0.33777(18) 0.09279(19)
C18_2 C 0.9260(4) 0.22252(18) 0.21695(19)
C19_2 C 0.6476(4) 0.15346(17) 0.24038(19)
C20_2 C 0.5301(4) 0.08987(18) 0.27859(19)
O1_2 O 0.7589(3) 0.51656(12) 0.96000(13)
O5_2 O 0.3979(3) 0.59416(13) 0.91755(14)
O8_2 O 0.6269(3) 0.68302(14) 0.93527(17)
O11_2 O 0.6277(3) 0.58739(17) 0.73657(19)
C1_2 C 0.0574(4) 0.65208(18) 0.8753(2)
C2_2 C 0.1627(4) 0.84009(17) 0.74213(19)
C3_2 C 0.3559(4) 0.72485(17) 0.85303(19)
C4_2 C 0.0475(4) 0.89785(17) 0.68155(19)
C5_2 C 0.1686(4) 0.71897(17) 0.83704(19)
C6_2 C 0.4434(4) 0.78984(18) 0.81652(19)
H1_2 H 0.5677 0.7956 0.8308
C7_2 C 0.4684(4) 0.66223(18) 0.90721(19)
C8_2 C 0.0740(4) 0.77748(18) 0.78305(19)
C9_2 C 0.3524(4) 0.84654(17) 0.75962(19)
C10_2 C 0.4699(4) 0.91013(18) 0.72141(19)
O21_2 O 0.1566(4) 0.24648(17) 0.92281(18)
O23 O 0.9860(3) 0.60296(14) 0.81853(15)
H2_2 H 0.9483 0.7746 0.7742
H11_2 H 0.00134659 0.073155 0.758859
H7_2 H 0.148464 0.855051 0.255035
loop_
_geom_bond_atom_site_label_1
_geom_bond_atom_site_label_2
_geom_bond_site_symmetry_1
_geom_bond_site_symmetry_2
O2 C1 1_555 1_555
O3 C1 1_555 1_555
O4 C10 1_555 1_555
O5 Co1 1_555 1_555
O7 C4 1_555 1_555
O9 C4 1_555 1_555
C1 C5 1_555 1_555
C2 C4 1_555 1_555
C3 C5 1_555 1_555
C5 C8 1_555 1_555
C6 C3 1_555 1_555
C7 O5 1_555 1_555
C8 C2 1_555 1_555
H2 C8 1_555 1_555
C9 C2 1_555 1_555
C10 C9 1_555 1_555
Co7_2 O7 1_555 1_555
Co8 O2 1_555 1_555
Co10 O9 1_555 1_555
Co14 O3 1_555 1_555
Co17 O4 1_555 1_555
O7 Co17 1_555 1_555
C3 C7 1_555 1_555
C6 C9 1_555 1_555
Co14 O30 1_555 1_555
Co4 O12 1_555 1_555
Co5 O12 1_555 1_555
O12 Co1_2 1_555 1_555
O19 Co5 1_555 1_555
O21 Co5 1_555 1_555
O22 Co4 1_555 1_555
O24 Co4 1_555 1_555
O26 Co5 1_555 1_555
O28 Co5 1_555 1_555
O33 Co1_2 1_555 1_555
Co5 O33 1_555 1_555
O17 Co13 1_555 1_555
O22 H12 1_555 1_555
Co1_3 O1 1_555 1_555
Co8 O1 1_555 1_555
Co14 O1 1_555 1_555
O8 Co14 1_555 1_555
O10 Co14 1_555 1_555
O11 Co8 1_555 1_555
O34 Co1_3 1_555 1_555
Co14 O34 1_555 1_555
O6 Co10 1_555 1_555
O11 H7 1_555 1_555
O11 H8 1_555 1_555
O24 C11 1_555 1_555
O26 C11 1_555 1_555
O15 C20 1_555 1_555
O16 Co1_4 1_555 1_555
O18 C14 1_555 1_555
O20 C14 1_555 1_555
C11 C15 1_555 1_555
C12 C14 1_555 1_555
C13 C15 1_555 1_555
C15 C18 1_555 1_555
C16 C13 1_555 1_555
C17 O16 1_555 1_555
C18 C12 1_555 1_555
H4 C18 1_555 1_555
C19 C12 1_555 1_555
C20 C19 1_555 1_555
Co7 O18 1_555 1_555
Co13 O20 1_555 1_555
Co15 O15 1_555 1_555
O18 Co15 1_555 1_555
C13 C17 1_555 1_555
C16 C19 1_555 1_555
Co13 O13 1_555 1_555
O10_2 Co15 1_555 1_555
Co13 O12_2 1_555 1_555
O12_2 Co7 1_555 1_555
O14 C11_2 1_555 1_555
O30 C20_2 1_555 1_555
O16_2 Co7 1_555 1_555
O32 C20_2 1_555 1_555
O34 C14_2 1_555 1_555
O22_2 Co13 1_555 1_555
C11_2 C15_2 1_555 1_555
C12_2 C14_2 1_555 1_555
C13_2 C15_2 1_555 1_555
C15_2 C18_2 1_555 1_555
C16_2 C13_2 1_555 1_555
H3_2 C16_2 1_555 1_555
C17_2 O16_2 1_555 1_555
C18_2 C12_2 1_555 1_555
C19_2 C12_2 1_555 1_555
C20_2 C19_2 1_555 1_555
O19_2 C17_2 1_555 1_555
C13_2 C17_2 1_555 1_555
C16_2 C19_2 1_555 1_555
Co7_2 O1_2 1_555 1_555
Co10 O1_2 1_555 1_555
O25 C1_2 1_555 1_555
O28 C10_2 1_555 1_555
O5_2 Co7_2 1_555 1_555
O31 C10_2 1_555 1_555
O33 C4_2 1_555 1_555
O11_2 Co10 1_555 1_555
C1_2 C5_2 1_555 1_555
C2_2 C4_2 1_555 1_555
C3_2 C5_2 1_555 1_555
C5_2 C8_2 1_555 1_555
C6_2 C3_2 1_555 1_555
H1_2 C6_2 1_555 1_555
C7_2 O5_2 1_555 1_555
C8_2 C2_2 1_555 1_555
C9_2 C2_2 1_555 1_555
C10_2 C9_2 1_555 1_555
O21_2 Co17 1_555 1_555
O23 Co10 1_555 1_555
O8_2 C7_2 1_555 1_555
C3_2 C7_2 1_555 1_555
C6_2 C9_2 1_555 1_555
O22 H7_2 1_555 1_555

#END
