
###############################################################################
#
# This file contains modified crystal structure data generated from the
# MOF subset of the Cambridge Structural Database (CSD) v543 
# hosted by the Cambridge Crystallographic Data Centre (CCDC).
#
# This work is licensed under the Creative Commons
# Attribution-NonCommercial-ShareAlike 4.0 International License.
# To view a copy of this license, visit
# http://creativecommons.org/licenses/by-nc-sa/4.0/
# or send a letter to
# Creative Commons, PO Box 1866, Mountain View, CA 94042, USA.
#
# CIF created using the CSD Python API on 29 September 2022
# The structure has been converted into the P1 space group
# The structure has a 3D framework
# The original CSD entry QUTTII is in the monoclinic crystal system
# The framework has been calculated to contain at least 10.0% void space
# The void calculation uses a probe of radius 1.32A, grid spacing 0.4
#
###############################################################################

data_QUTTII
_chemical_formula_moiety         '(C40 H28 Co15 O42)n'
_symmetry_cell_setting           triclinic
_symmetry_space_group_name_H-M   'P 1'
_symmetry_Int_Tables_number      1
_space_group_name_Hall           'P 1'
loop_
_symmetry_equiv_pos_site_id
_symmetry_equiv_pos_as_xyz
1 x,y,z
_cell_length_a                   7.452(4)
_cell_length_b                   16.472(6)
_cell_length_c                   14.586(5)
_cell_angle_alpha                90
_cell_angle_beta                 95.46(4)
_cell_angle_gamma                90
_cell_volume                     1782.3
loop_
_atom_site_label
_atom_site_type_symbol
_atom_site_fract_x
_atom_site_fract_y
_atom_site_fract_z
Co16 Co -0.0000 -0.0000 -0.0000
O13 O 0.0142(8) 0.3967(3) 0.6798(5)
O18 O 0.0939(8) 0.0758(4) 0.7885(5)
H9 H 0.0505(11) 0.2250(5) 0.7259(7)
Co4 Co 0.2090(2) 0.48647(7) 0.67611(10)
Co5 Co 0.18871(14) 0.37216(7) 0.47251(9)
O21 O 0.3703(8) 0.4117(4) 0.7619(5)
H11 H 0.4861(8) 0.4334(4) 0.7806(5)
H12 H 0.4668(8) 0.3902(4) 0.7313(5)
O22 O 0.1560(10) 0.2466(4) 0.4218(6)
H13 H 0.0881(10) 0.1975(4) 0.4431(6)
H14 H 0.2442(10) 0.2318(4) 0.3957(6)
Co16_2 Co -0.0000 -0.0000 1.0000
O33 O 0.0671(8) 0.5469(3) 0.7768(5)
O34 O 0.4061(8) 0.5758(4) 0.7115(5)
O35 O 0.2420(7) 0.4828(3) 0.5407(4)
O36 O 0.3737(8) 0.3176(4) 0.5620(5)
O37 O 0.0203(7) 0.4173(3) 0.3632(5)
O38 O 0.3997(7) 0.4157(3) 0.3964(4)
H16 H 0.1630(7) 0.5241(3) 0.5098(4)
Co16_3 Co -0.0000 1.0000 -0.0000
Co15 Co 0.2910(2) 0.98647(7) 0.82389(10)
Co16_4 Co -0.0000 1.0000 1.0000
Co7 Co 0.7090(2) 0.01353(7) 0.17611(10)
Co16_5 Co 1.0000 -0.0000 -0.0000
Co1 Co 0.5000 0.5000 0.5000
O1 O 0.0378(8) 0.6565(4) 0.4606(5)
O3 O 0.6263(8) 0.6824(4) 0.4380(5)
O4 O 0.3971(7) 0.5944(3) 0.4179(5)
O5 O 0.4797(7) 0.9173(3) 0.1368(5)
O6 O 0.5671(8) 0.9531(3) 0.2768(5)
O8 O 0.1003(7) 0.9157(3) 0.1036(4)
C1 C 0.1673(11) 0.7195(5) 0.3368(7)
C2 C 0.3533(11) 0.7244(5) 0.3542(7)
C3 C 0.4439(11) 0.7899(5) 0.3167(7)
H6 H 0.5679(11) 0.7949(5) 0.3304(7)
C4 C 0.3526(10) 0.8473(5) 0.2598(6)
C5 C 0.1645(11) 0.8413(5) 0.2440(7)
C6 C 0.0745(11) 0.7779(5) 0.2837(7)
C7 C 0.0563(11) 0.6534(5) 0.3742(7)
C8 C 0.4679(11) 0.6628(6) 0.4084(7)
C9 C 0.4695(11) 0.9113(5) 0.2215(7)
C10 C 0.0486(11) 0.8981(5) 0.1832(7)
O12 O 0.9622(8) 0.3435(4) 0.5394(5)
O15 O 0.6029(7) 0.4056(3) 0.5821(5)
O16 O 0.5203(7) 0.0827(3) 0.8632(5)
O17 O 0.4329(8) 0.0469(3) 0.7232(5)
O19 O 0.8997(7) 0.0843(3) 0.8964(4)
C11 C 0.8327(11) 0.2805(5) 0.6632(7)
C12 C 0.6467(11) 0.2756(5) 0.6458(7)
C13 C 0.5561(11) 0.2101(5) 0.6833(7)
H8 H 0.4321(11) 0.2051(5) 0.6696(7)
C14 C 0.6474(10) 0.1527(5) 0.7402(6)
C15 C 0.8355(11) 0.1587(5) 0.7560(7)
C16 C 0.9255(11) 0.2221(5) 0.7163(7)
C17 C 0.9437(11) 0.3466(5) 0.6258(7)
C18 C 0.5321(11) 0.3372(6) 0.5916(7)
C19 C 0.5305(11) 0.0887(5) 0.7785(7)
C20 C 0.9514(11) 0.1019(5) 0.8168(7)
O20 O 0.7580(7) 0.5172(3) 0.4593(4)
H10 H 0.8370(7) 0.4759(3) 0.4902(4)
O23 O 0.6003(7) 0.5843(3) 0.6036(4)
Co6 Co 0.81129(14) 0.62784(7) 0.52749(9)
Co8 Co 0.31129(14) 0.87216(7) 0.02749(9)
Co14 Co 0.68871(14) 0.12784(7) 0.97251(9)
Co16_6 Co 1.0000 -0.0000 1.0000
Co17 Co 0.7910(2) 0.51353(7) 0.32389(10)
O32 O 0.9797(7) 0.5827(3) 0.6368(5)
Co16_7 Co 1.0000 1.0000 -0.0000
Co16_8 Co 1.0000 1.0000 1.0000
O2 O 0.9858(8) 0.6033(3) 0.3202(5)
O7 O 0.9061(8) 0.9242(4) 0.2115(5)
O10 O 0.8440(10) 0.7534(4) 0.5782(6)
H2 H 0.9119(10) 0.8025(4) 0.5569(6)
H3 H 0.7558(10) 0.7682(4) 0.6043(6)
O11 O 0.6297(8) 0.5883(4) 0.2381(5)
H4 H 0.5139(8) 0.5666(4) 0.2194(5)
H5 H 0.5332(8) 0.6098(4) 0.2687(5)
H7 H 0.9495(11) 0.7750(5) 0.2741(7)
O26 O 0.9329(8) 0.4531(3) 0.2232(5)
O27 O 0.5939(8) 0.4242(4) 0.2885(5)
O1_2 O 0.4622(8) 0.1565(4) 0.0394(5)
O2_2 O 0.5142(8) 0.1033(3) 0.1798(5)
O4_2 O 0.1029(7) 0.0944(3) 0.0821(5)
O11_2 O 0.8703(8) 0.0883(4) 0.2619(5)
H4_2 H 0.9861(8) 0.0666(4) 0.2806(5)
H5_2 H 0.9668(8) 0.1098(4) 0.2313(5)
C1_2 C 0.3327(11) 0.2195(5) 0.1632(7)
C2_2 C 0.1467(11) 0.2244(5) 0.1458(7)
C3_2 C 0.0561(11) 0.2899(5) 0.1833(7)
C4_2 C 0.1474(10) 0.3473(5) 0.2402(6)
C5_2 C 0.3355(11) 0.3413(5) 0.2560(7)
C6_2 C 0.4255(11) 0.2779(5) 0.2163(7)
H7_2 H 0.5505(11) 0.2750(5) 0.2259(7)
C7_2 C 0.4437(11) 0.1534(5) 0.1258(7)
C8_2 C 0.0321(11) 0.1628(6) 0.0916(7)
C9_2 C 0.0305(11) 0.4113(5) 0.2785(7)
C10_2 C 0.4514(11) 0.3981(5) 0.3168(7)
O28 O 0.7420(7) 0.0172(3) 0.0407(4)
O29 O 0.8737(8) 0.1824(4) 0.0620(5)
H1 H 0.3370(7) 0.0241(3) 0.9902(4)
O10_2 O 0.6560(10) 0.2534(4) 0.9218(6)
H2_2 H 0.5881(10) 0.3025(4) 0.9431(6)
H3_2 H 0.7442(10) 0.2682(4) 0.8957(6)
H15 H 0.6630(7) 0.9759(3) 0.0098(4)
O9 O 0.2580(7) 0.9828(3) 0.9593(4)
O14 O 0.1263(8) 0.8176(4) 0.9380(5)
H8_2 H 0.0679(11) 0.7051(5) 0.8304(7)
H6_2 H 0.9321(11) 0.2949(5) 0.1696(7)
O22_2 O 0.3440(10) 0.7466(4) 0.0782(6)
H13_2 H 0.4119(10) 0.6975(4) 0.0569(6)
H14_2 H 0.2558(10) 0.7318(4) 0.1043(6)
O12_2 O 0.5378(8) 0.8435(4) 0.9606(5)
O13_2 O 0.4858(8) 0.8967(3) 0.8202(5)
O15_2 O 0.8971(7) 0.9056(3) 0.9179(5)
C11_2 C 0.6673(11) 0.7805(5) 0.8368(7)
C12_2 C 0.8533(11) 0.7756(5) 0.8542(7)
C13_2 C 0.9439(11) 0.7101(5) 0.8167(7)
C14_2 C 0.8526(10) 0.6527(5) 0.7598(6)
C15_2 C 0.6645(11) 0.6587(5) 0.7440(7)
C16_2 C 0.5745(11) 0.7221(5) 0.7837(7)
H9_2 H 0.4495(11) 0.7250(5) 0.7741(7)
C17_2 C 0.5563(11) 0.8466(5) 0.8742(7)
C18_2 C 0.9679(11) 0.8372(6) 0.9084(7)
C19_2 C 0.9695(11) 0.5887(5) 0.7215(7)
C20_2 C 0.5486(11) 0.6019(5) 0.6832(7)
O21_2 O 0.1297(8) 0.9117(4) 0.7381(5)
H11_2 H 0.0139(8) 0.9334(4) 0.7194(5)
H12_2 H 0.0332(8) 0.8902(4) 0.7687(5)
loop_
_geom_bond_atom_site_label_1
_geom_bond_atom_site_label_2
_geom_bond_site_symmetry_1
_geom_bond_site_symmetry_2
Co4 O13 1_555 1_555
O21 Co4 1_555 1_555
H11 O21 1_555 1_555
H12 O21 1_555 1_555
O22 Co5 1_555 1_555
H13 O22 1_555 1_555
H14 O22 1_555 1_555
O33 Co4 1_555 1_555
O34 Co4 1_555 1_555
O35 Co4 1_555 1_555
O36 Co5 1_555 1_555
O37 Co5 1_555 1_555
O38 Co5 1_555 1_555
H16 O35 1_555 1_555
Co5 O35 1_555 1_555
Co1 O4 1_555 1_555
O1 C7 1_555 1_555
O3 C8 1_555 1_555
O4 C8 1_555 1_555
O5 C9 1_555 1_555
O6 C9 1_555 1_555
O8 C10 1_555 1_555
O35 Co1 1_555 1_555
C1 C2 1_555 1_555
C2 C3 1_555 1_555
C3 H6 1_555 1_555
C4 C3 1_555 1_555
C5 C4 1_555 1_555
C6 C1 1_555 1_555
C7 C1 1_555 1_555
C8 C2 1_555 1_555
C9 C4 1_555 1_555
C10 C5 1_555 1_555
O12 C17 1_555 1_555
O36 C18 1_555 1_555
O15 Co1 1_555 1_555
O16 C19 1_555 1_555
O17 C19 1_555 1_555
O19 C20 1_555 1_555
C11 C12 1_555 1_555
C12 C13 1_555 1_555
C13 H8 1_555 1_555
C14 C13 1_555 1_555
C15 C14 1_555 1_555
C16 C11 1_555 1_555
C17 C11 1_555 1_555
C18 O15 1_555 1_555
C19 C14 1_555 1_555
C20 C15 1_555 1_555
O20 Co1 1_555 1_555
H10 O20 1_555 1_555
O23 Co1 1_555 1_555
O38 Co1 1_555 1_555
Co6 O3 1_555 1_555
Co8 O5 1_555 1_555
Co16_3 O8 1_555 1_555
Co14 O16 1_555 1_555
Co16_6 O19 1_555 1_555
Co17 O20 1_555 1_555
O8 Co8 1_555 1_555
C5 C6 1_555 1_555
O19 Co14 1_555 1_555
C12 C18 1_555 1_555
C15 C16 1_555 1_555
O20 Co6 1_555 1_555
O23 Co6 1_555 1_555
Co6 O32 1_555 1_555
Co17 O2 1_555 1_555
O10 Co6 1_555 1_555
H2 O10 1_555 1_555
H3 O10 1_555 1_555
O11 Co17 1_555 1_555
H4 O11 1_555 1_555
H5 O11 1_555 1_555
O26 Co17 1_555 1_555
O27 Co17 1_555 1_555
Co16 O4_2 1_555 1_555
Co7 O2_2 1_555 1_555
O1_2 C7_2 1_555 1_555
O2_2 C7_2 1_555 1_555
O4_2 C8_2 1_555 1_555
O37 C9_2 1_555 1_555
O27 C10_2 1_555 1_555
O38 C10_2 1_555 1_555
O11_2 Co7 1_555 1_555
H4_2 O11_2 1_555 1_555
H5_2 O11_2 1_555 1_555
C1_2 C2_2 1_555 1_555
C2_2 C3_2 1_555 1_555
C4_2 C3_2 1_555 1_555
C5_2 C4_2 1_555 1_555
C6_2 C1_2 1_555 1_555
H7_2 C6_2 1_555 1_555
C7_2 C1_2 1_555 1_555
C8_2 C2_2 1_555 1_555
C9_2 C4_2 1_555 1_555
C10_2 C5_2 1_555 1_555
O28 Co7 1_555 1_555
C5_2 C6_2 1_555 1_555
O10_2 Co14 1_555 1_555
H2_2 O10_2 1_555 1_555
H3_2 O10_2 1_555 1_555
O9 Co16_4 1_555 1_555
Co15 O9 1_555 1_555
O28 Co16_5 1_555 1_555
O22_2 Co8 1_555 1_555
H13_2 O22_2 1_555 1_555
H14_2 O22_2 1_555 1_555
O12_2 C17_2 1_555 1_555
O13_2 C17_2 1_555 1_555
O15_2 Co16_8 1_555 1_555
O32 C19_2 1_555 1_555
O34 C20_2 1_555 1_555
O23 C20_2 1_555 1_555
C11_2 C12_2 1_555 1_555
C12_2 C13_2 1_555 1_555
C14_2 C13_2 1_555 1_555
C15_2 C14_2 1_555 1_555
C16_2 C11_2 1_555 1_555
H9_2 C16_2 1_555 1_555
C17_2 C11_2 1_555 1_555
C18_2 O15_2 1_555 1_555
C19_2 C14_2 1_555 1_555
C20_2 C15_2 1_555 1_555
Co15 O13_2 1_555 1_555
O21_2 Co15 1_555 1_555
H11_2 O21_2 1_555 1_555
H12_2 O21_2 1_555 1_555
C12_2 C18_2 1_555 1_555
C15_2 C16_2 1_555 1_555

#END
