
###############################################################################
#
# This file contains modified crystal structure data generated from the
# MOF subset of the Cambridge Structural Database (CSD) v543 
# hosted by the Cambridge Crystallographic Data Centre (CCDC).
#
# This work is licensed under the Creative Commons
# Attribution-NonCommercial-ShareAlike 4.0 International License.
# To view a copy of this license, visit
# http://creativecommons.org/licenses/by-nc-sa/4.0/
# or send a letter to
# Creative Commons, PO Box 1866, Mountain View, CA 94042, USA.
#
# CIF created using the CSD Python API on 29 September 2022
# The structure has been converted into the P1 space group
# The structure has a 3D framework
# The original CSD entry QUTVUZ is in the monoclinic crystal system
# The framework has been calculated to contain at least 10.0% void space
# The void calculation uses a probe of radius 1.32A, grid spacing 0.4
#
###############################################################################

data_QUTVUZ
_chemical_formula_moiety         '(C60 H44 Cd4 N28 O16)n'
_symmetry_cell_setting           triclinic
_symmetry_space_group_name_H-M   'P 1'
_symmetry_Int_Tables_number      1
_space_group_name_Hall           'P 1'
loop_
_symmetry_equiv_pos_site_id
_symmetry_equiv_pos_as_xyz
1 x,y,z
_cell_length_a                   14.0679(7)
_cell_length_b                   13.5283(7)
_cell_length_c                   12.1868(6)
_cell_angle_alpha                90
_cell_angle_beta                 98.839(5)
_cell_angle_gamma                90
_cell_volume                     2291.78
loop_
_atom_site_label
_atom_site_type_symbol
_atom_site_fract_x
_atom_site_fract_y
_atom_site_fract_z
Cd1 Cd 0.239892(14) 0.480019(16) 0.177021(17)
O1 O 0.13032(18) 0.4644(2) 0.00530(19)
N2 N 0.62265(18) 0.0734(2) 0.2980(2)
N5 N 0.32545(19) 0.3484(2) 0.0983(2)
C2 C 0.2866(2) 0.3004(3) 0.0072(3)
N7 N 0.4991(2) 0.1631(2) 0.2243(2)
C3 C 0.3963(2) 0.3030(3) 0.1669(3)
H3 H 0.4245(2) 0.3355(3) 0.2309(3)
C8 C 0.3887(2) 0.1607(3) 0.0477(3)
H5 H 0.4110(2) 0.0988(3) 0.0302(3)
C9 C 0.5699(2) 0.1012(2) 0.2046(2)
H6 H 0.5800(2) 0.0809(2) 0.1343(2)
C10 C 0.4285(2) 0.2093(3) 0.1451(3)
C14 C 0.5799(3) 0.1142(4) 0.3819(3)
H10 H 0.6008(3) 0.1051(4) 0.4574(3)
C15 C 0.5045(3) 0.1682(4) 0.3392(3)
H11 H 0.4633(3) 0.2028(4) 0.3783(3)
O5 O 0.29897(17) 0.42695(18) 0.35292(18)
N8 N 0.14980(19) 0.3419(2) 0.2274(2)
N9 N 0.37735(18) 0.5734(2) 0.2020(2)
N10 N 0.13237(19) 0.5944(2) 0.2328(2)
O2 O 0.29897(17) 0.07305(18) 0.85292(18)
N1 N 0.14980(19) 0.1581(2) 0.7274(2)
N4 N 0.19094(19) 0.2065(2) 0.8216(2)
O3 O 0.1176(2) 0.5489(2) 0.8529(2)
N6 N 0.1580(2) 0.5344(3) 0.9491(2)
C1 C 0.0672(2) 0.1894(3) 0.6801(3)
H1 H 0.0441(2) 0.1586(3) 0.6131(3)
H2 H 0.2372(2) 0.3313(3) 0.9600(3)
C4 C 0.0031(2) 0.2659(3) 0.7143(3)
C5 C 0.3150(2) 0.2072(3) 0.9781(3)
C6 C 0.0172(3) 0.3178(3) 0.8113(3)
H4 H 0.0727(3) 0.3076(3) 0.8623(3)
C7 C 0.2670(2) 0.1564(3) 0.8753(3)
O4 O 0.2234(2) 0.5876(3) 0.9944(2)
Cd4 Cd 0.239892(14) 0.019981(16) 0.677021(17)
Cd2 Cd 0.760108(14) 0.980019(16) 0.322979(17)
N3 N 0.86763(19) 0.4056(2) 0.7672(2)
C11 C 0.9499(3) 0.3852(3) 0.8342(3)
H7 H 0.9623(3) 0.4191(3) 0.9013(3)
C12 C 0.9206(3) 0.2888(4) 0.6420(4)
H8 H 0.9076(3) 0.2577(4) 0.5732(4)
C13 C 0.8567(3) 0.3587(4) 0.6725(4)
H9 H 0.8022(3) 0.3731(4) 0.6215(4)
Cd3 Cd 0.760108(14) 0.519981(16) 0.822979(17)
N3_2 N 0.13237(19) 0.9056(2) 0.7328(2)
C11_2 C 0.0501(3) 0.8852(3) 0.6658(3)
H7_2 H 0.0377(3) 0.9191(3) 0.5987(3)
C12_2 C 0.0794(3) 0.7888(4) 0.8580(4)
H8_2 H 0.0924(3) 0.7577(4) 0.9268(4)
C13_2 C 0.1433(3) 0.8587(4) 0.8275(4)
H9_2 H 0.1978(3) 0.8731(4) 0.8785(4)
O3_2 O 0.8824(2) 0.0489(2) 0.6471(2)
N6_2 N 0.8420(2) 0.0344(3) 0.5509(2)
O4_2 O 0.7766(2) 0.0876(3) 0.5056(2)
N10_2 N 0.86763(19) 0.0944(2) 0.2672(2)
O1_2 O 0.86968(18) 0.9644(2) 0.49470(19)
O2_2 O 0.70103(17) 0.57305(18) 0.64708(18)
N1_2 N 0.85020(19) 0.6581(2) 0.7726(2)
N4_2 N 0.80906(19) 0.7065(2) 0.6784(2)
N5_2 N 0.67455(19) 0.8484(2) 0.4017(2)
C1_2 C 0.9328(2) 0.6894(3) 0.8199(3)
H1_2 H 0.9559(2) 0.6586(3) 0.8869(3)
C2_2 C 0.7134(2) 0.8004(3) 0.4928(3)
H2_2 H 0.7628(2) 0.8313(3) 0.5400(3)
N7_2 N 0.5009(2) 0.6631(2) 0.2757(2)
C3_2 C 0.6037(2) 0.8030(3) 0.3331(3)
H3_2 H 0.5755(2) 0.8355(3) 0.2691(3)
C4_2 C 0.9969(2) 0.7659(3) 0.7857(3)
C5_2 C 0.6850(2) 0.7072(3) 0.5219(3)
C6_2 C 0.9828(3) 0.8178(3) 0.6887(3)
H4_2 H 0.9273(3) 0.8076(3) 0.6377(3)
C7_2 C 0.7330(2) 0.6564(3) 0.6247(3)
C8_2 C 0.6113(2) 0.6607(3) 0.4523(3)
H5_2 H 0.5890(2) 0.5988(3) 0.4698(3)
C9_2 C 0.4301(2) 0.6012(2) 0.2954(2)
H6_2 H 0.4200(2) 0.5809(2) 0.3657(2)
C10_2 C 0.5715(2) 0.7093(3) 0.3549(3)
C14_2 C 0.4201(3) 0.6142(4) 0.1181(3)
H10_2 H 0.3992(3) 0.6051(4) 0.0426(3)
C15_2 C 0.4955(3) 0.6682(4) 0.1608(3)
H11_2 H 0.5367(3) 0.7028(4) 0.1217(3)
O5_2 O 0.70103(17) 0.92695(18) 0.14708(18)
N8_2 N 0.85020(19) 0.8419(2) 0.2726(2)
C11_3 C 0.0501(3) 0.6148(3) 0.1658(3)
H7_3 H 0.0377(3) 0.5809(3) 0.0987(3)
C12_3 C 0.0794(3) 0.7112(4) 0.3580(4)
H8_3 H 0.0924(3) 0.7423(4) 0.4268(4)
C13_3 C 0.1433(3) 0.6413(4) 0.3275(4)
H9_3 H 0.1978(3) 0.6269(4) 0.3785(4)
N4_3 N 0.80906(19) 0.7935(2) 0.1784(2)
O3_3 O 0.8824(2) 0.4511(2) 0.1471(2)
N6_3 N 0.8420(2) 0.4656(3) 0.0509(2)
C1_3 C 0.9328(2) 0.8106(3) 0.3199(3)
H1_3 H 0.9559(2) 0.8414(3) 0.3869(3)
H2_3 H 0.7628(2) 0.6687(3) 0.0400(3)
C4_3 C 0.9969(2) 0.7341(3) 0.2857(3)
C5_3 C 0.6850(2) 0.7928(3) 0.0219(3)
C6_3 C 0.9828(3) 0.6822(3) 0.1887(3)
H4_3 H 0.9273(3) 0.6924(3) 0.1377(3)
C7_3 C 0.7330(2) 0.8436(3) 0.1247(3)
O4_3 O 0.7766(2) 0.4124(3) 0.0056(2)
O1_3 O 0.86968(18) 0.5356(2) 0.99470(19)
N2_2 N 0.37735(18) 0.9266(2) 0.7020(2)
N5_3 N 0.67455(19) 0.6516(2) 0.9017(2)
C2_3 C 0.7134(2) 0.6996(3) 0.9928(3)
N7_3 N 0.5009(2) 0.8369(2) 0.7757(2)
C3_3 C 0.6037(2) 0.6970(3) 0.8331(3)
H3_3 H 0.5755(2) 0.6645(3) 0.7691(3)
C8_3 C 0.6113(2) 0.8393(3) 0.9523(3)
H5_3 H 0.5890(2) 0.9012(3) 0.9698(3)
C9_3 C 0.4301(2) 0.8988(2) 0.7954(2)
H6_3 H 0.4200(2) 0.9191(2) 0.8657(2)
C10_3 C 0.5715(2) 0.7907(3) 0.8549(3)
C14_3 C 0.4201(3) 0.8858(4) 0.6181(3)
H10_3 H 0.3992(3) 0.8949(4) 0.5426(3)
C15_3 C 0.4955(3) 0.8318(4) 0.6608(3)
H11_3 H 0.5367(3) 0.7972(4) 0.6217(3)
N9_2 N 0.62265(18) 0.4266(2) 0.7980(2)
O1_4 O 0.13032(18) 0.0356(2) 0.50530(19)
N4_4 N 0.19094(19) 0.2935(2) 0.3216(2)
N5_4 N 0.32545(19) 0.1516(2) 0.5983(2)
C1_4 C 0.0672(2) 0.3106(3) 0.1801(3)
H1_4 H 0.0441(2) 0.3414(3) 0.1131(3)
C2_4 C 0.2866(2) 0.1996(3) 0.5072(3)
H2_4 H 0.2372(2) 0.1687(3) 0.4600(3)
N7_4 N 0.4991(2) 0.3369(2) 0.7243(2)
C3_4 C 0.3963(2) 0.1970(3) 0.6669(3)
H3_4 H 0.4245(2) 0.1645(3) 0.7309(3)
C4_4 C 0.0031(2) 0.2341(3) 0.2143(3)
C5_4 C 0.3150(2) 0.2928(3) 0.4781(3)
C6_4 C 0.0172(3) 0.1822(3) 0.3113(3)
H4_4 H 0.0727(3) 0.1924(3) 0.3623(3)
C7_4 C 0.2670(2) 0.3436(3) 0.3753(3)
C8_4 C 0.3887(2) 0.3393(3) 0.5477(3)
H5_4 H 0.4110(2) 0.4012(3) 0.5302(3)
C9_4 C 0.5699(2) 0.3988(2) 0.7046(2)
H6_4 H 0.5800(2) 0.4191(2) 0.6343(2)
C10_4 C 0.4285(2) 0.2907(3) 0.6451(3)
C14_4 C 0.5799(3) 0.3858(4) 0.8819(3)
H10_4 H 0.6008(3) 0.3949(4) 0.9574(3)
C15_4 C 0.5045(3) 0.3318(4) 0.8392(3)
H11_4 H 0.4633(3) 0.2972(4) 0.8783(3)
O3_4 O 0.1176(2) 0.9511(2) 0.3529(2)
N6_4 N 0.1580(2) 0.9656(3) 0.4491(2)
O4_4 O 0.2234(2) 0.9124(3) 0.4944(2)
C11_4 C 0.9499(3) 0.1148(3) 0.3342(3)
H7_4 H 0.9623(3) 0.0809(3) 0.4013(3)
C12_4 C 0.9206(3) 0.2112(4) 0.1420(4)
H8_4 H 0.9076(3) 0.2423(4) 0.0732(4)
C13_4 C 0.8567(3) 0.1413(4) 0.1725(4)
H9_4 H 0.8022(3) 0.1269(4) 0.1215(4)
loop_
_geom_bond_atom_site_label_1
_geom_bond_atom_site_label_2
_geom_bond_site_symmetry_1
_geom_bond_site_symmetry_2
Cd1 O1 1_555 1_555
N2 C9 1_555 1_555
N5 Cd1 1_555 1_555
C2 N5 1_555 1_555
N7 C9 1_555 1_555
C3 N5 1_555 1_555
H3 C3 1_555 1_555
H5 C8 1_555 1_555
C9 H6 1_555 1_555
C10 N7 1_555 1_555
C14 N2 1_555 1_555
H10 C14 1_555 1_555
C15 N7 1_555 1_555
H11 C15 1_555 1_555
O5 Cd1 1_555 1_555
N8 Cd1 1_555 1_555
N9 Cd1 1_555 1_555
N10 Cd1 1_555 1_555
C3 C10 1_555 1_555
C8 C10 1_555 1_555
C14 C15 1_555 1_555
O2 C7 1_555 1_555
N1 N4 1_555 1_555
N4 C7 1_555 1_555
O3 N6 1_555 1_555
N6 O4 1_555 1_555
C1 N1 1_555 1_555
H1 C1 1_555 1_555
C4 C1 1_555 1_555
C6 C4 1_555 1_555
H4 C6 1_555 1_555
C7 C5 1_555 1_555
Cd4 O2 1_555 1_555
N1 Cd4 1_555 1_555
N3 C11 1_555 1_555
H7 C11 1_555 1_555
H8 C12 1_555 1_555
C13 N3 1_555 1_555
H9 C13 1_555 1_555
Cd3 N3 1_555 1_555
C12 C13 1_555 1_555
N3_2 C11_2 1_555 1_555
H7_2 C11_2 1_555 1_555
H8_2 C12_2 1_555 1_555
C13_2 N3_2 1_555 1_555
H9_2 C13_2 1_555 1_555
C12_2 C13_2 1_555 1_555
O3_2 N6_2 1_555 1_555
N6_2 O4_2 1_555 1_555
Cd2 O1_2 1_555 1_555
O2_2 C7_2 1_555 1_555
N1_2 N4_2 1_555 1_555
N9 C9_2 1_555 1_555
N4_2 C7_2 1_555 1_555
N5_2 Cd2 1_555 1_555
C1_2 N1_2 1_555 1_555
H1_2 C1_2 1_555 1_555
C2_2 N5_2 1_555 1_555
H2_2 C2_2 1_555 1_555
N7_2 C9_2 1_555 1_555
C3_2 N5_2 1_555 1_555
H3_2 C3_2 1_555 1_555
C4_2 C1_2 1_555 1_555
C5_2 C2_2 1_555 1_555
C6_2 C4_2 1_555 1_555
H4_2 C6_2 1_555 1_555
C7_2 C5_2 1_555 1_555
C8_2 C5_2 1_555 1_555
H5_2 C8_2 1_555 1_555
C9_2 H6_2 1_555 1_555
C10_2 N7_2 1_555 1_555
C14_2 N9 1_555 1_555
H10_2 C14_2 1_555 1_555
C15_2 N7_2 1_555 1_555
H11_2 C15_2 1_555 1_555
Cd3 O2_2 1_555 1_555
O5_2 Cd2 1_555 1_555
N8_2 Cd2 1_555 1_555
N1_2 Cd3 1_555 1_555
C3_2 C10_2 1_555 1_555
C8_2 C10_2 1_555 1_555
C14_2 C15_2 1_555 1_555
N10 C11_3 1_555 1_555
H7_3 C11_3 1_555 1_555
H8_3 C12_3 1_555 1_555
C13_3 N10 1_555 1_555
H9_3 C13_3 1_555 1_555
C12_3 C13_3 1_555 1_555
O5_2 C7_3 1_555 1_555
N8_2 N4_3 1_555 1_555
N4_3 C7_3 1_555 1_555
O3_3 N6_3 1_555 1_555
N6_3 O4_3 1_555 1_555
C1_3 N8_2 1_555 1_555
H1_3 C1_3 1_555 1_555
C4_3 C1_3 1_555 1_555
C6_3 C4_3 1_555 1_555
H4_3 C6_3 1_555 1_555
C7_3 C5_3 1_555 1_555
Cd3 O1_3 1_555 1_555
N2_2 C9_3 1_555 1_555
N5_3 Cd3 1_555 1_555
C2_3 N5_3 1_555 1_555
N7_3 C9_3 1_555 1_555
C3_3 N5_3 1_555 1_555
H3_3 C3_3 1_555 1_555
H5_3 C8_3 1_555 1_555
C9_3 H6_3 1_555 1_555
C10_3 N7_3 1_555 1_555
C14_3 N2_2 1_555 1_555
H10_3 C14_3 1_555 1_555
C15_3 N7_3 1_555 1_555
H11_3 C15_3 1_555 1_555
N9_2 Cd3 1_555 1_555
C3_3 C10_3 1_555 1_555
C8_3 C10_3 1_555 1_555
C14_3 C15_3 1_555 1_555
Cd4 O1_4 1_555 1_555
O5 C7_4 1_555 1_555
N8 N4_4 1_555 1_555
N9_2 C9_4 1_555 1_555
N4_4 C7_4 1_555 1_555
N5_4 Cd4 1_555 1_555
C1_4 N8 1_555 1_555
H1_4 C1_4 1_555 1_555
C2_4 N5_4 1_555 1_555
H2_4 C2_4 1_555 1_555
N7_4 C9_4 1_555 1_555
C3_4 N5_4 1_555 1_555
H3_4 C3_4 1_555 1_555
C4_4 C1_4 1_555 1_555
C5_4 C2_4 1_555 1_555
C6_4 C4_4 1_555 1_555
H4_4 C6_4 1_555 1_555
C7_4 C5_4 1_555 1_555
C8_4 C5_4 1_555 1_555
H5_4 C8_4 1_555 1_555
C9_4 H6_4 1_555 1_555
C10_4 N7_4 1_555 1_555
C14_4 N9_2 1_555 1_555
H10_4 C14_4 1_555 1_555
C15_4 N7_4 1_555 1_555
H11_4 C15_4 1_555 1_555
C3_4 C10_4 1_555 1_555
C8_4 C10_4 1_555 1_555
C14_4 C15_4 1_555 1_555
O3_4 N6_4 1_555 1_555
N6_4 O4_4 1_555 1_555
N10_2 C11_4 1_555 1_555
H7_4 C11_4 1_555 1_555
H8_4 C12_4 1_555 1_555
C13_4 N10_2 1_555 1_555
H9_4 C13_4 1_555 1_555
C12_4 C13_4 1_555 1_555

#END
