
###############################################################################
#
# This file contains modified crystal structure data generated from the
# MOF subset of the Cambridge Structural Database (CSD) v543 
# hosted by the Cambridge Crystallographic Data Centre (CCDC).
#
# This work is licensed under the Creative Commons
# Attribution-NonCommercial-ShareAlike 4.0 International License.
# To view a copy of this license, visit
# http://creativecommons.org/licenses/by-nc-sa/4.0/
# or send a letter to
# Creative Commons, PO Box 1866, Mountain View, CA 94042, USA.
#
# CIF created using the CSD Python API on 29 September 2022
# The structure has been converted into the P1 space group
# The structure has a 3D framework
# The original CSD entry QUTWIO is in the monoclinic crystal system
# The framework has been calculated to contain at least 10.0% void space
# The void calculation uses a probe of radius 1.32A, grid spacing 0.4
#
###############################################################################

data_QUTWIO
_chemical_formula_moiety         '(C60 H44 Cd4 I4 N24 O4)n'
_symmetry_cell_setting           triclinic
_symmetry_space_group_name_H-M   'P 1'
_symmetry_Int_Tables_number      1
_space_group_name_Hall           'P 1'
loop_
_symmetry_equiv_pos_site_id
_symmetry_equiv_pos_as_xyz
1 x,y,z
_cell_length_a                   13.9866(6)
_cell_length_b                   13.6934(7)
_cell_length_c                   12.0880(7)
_cell_angle_alpha                90
_cell_angle_beta                 99.393(5)
_cell_angle_gamma                90
_cell_volume                     2284.1
loop_
_atom_site_label
_atom_site_type_symbol
_atom_site_fract_x
_atom_site_fract_y
_atom_site_fract_z
C9 C 0.2794(6) 0.7841(6) 0.0190(7)
C10 C 0.3843(6) 0.7790(6) 0.1839(7)
H7 H 0.4114(6) 0.8092(6) 0.2507(7)
C11 C 0.4142(6) 0.6870(6) 0.1614(7)
C12 C 0.3752(6) 0.6405(6) 0.0614(7)
H8 H 0.3949(6) 0.5782(6) 0.0444(7)
C13 C 0.5636(6) 0.5888(6) 0.2172(7)
H9 H 0.5781(6) 0.5785(6) 0.1457(7)
C14 C 0.4884(7) 0.6370(8) 0.3561(7)
H10 H 0.4445(7) 0.6653(8) 0.3966(7)
C15 C 0.5694(6) 0.5850(7) 0.3970(7)
H11 H 0.5900(6) 0.5707(7) 0.4723(7)
N4 N 0.3172(5) 0.8268(5) 0.1123(6)
N5 N 0.4857(5) 0.6387(5) 0.2409(6)
N6 N 0.6156(5) 0.5570(5) 0.3116(6)
Cd3 Cd 0.76285(4) 0.47559(4) 0.33002(5)
Cd4 Cd 0.23715(4) 0.97559(4) 0.16998(5)
C4 C 0.0155(7) 0.8151(9) 0.8079(9)
H3 H 0.0711(7) 0.8018(9) 0.8592(9)
C6 C 0.0608(6) 0.6897(7) 0.6753(8)
H5 H 0.0379(6) 0.6616(7) 0.6059(8)
C7 C 0.2580(6) 0.6442(6) 0.8795(7)
C8 C 0.3058(6) 0.6911(6) 0.9887(7)
H6 H 0.2322(6) 0.8174(6) 0.9702(7)
Cd1 Cd 0.23715(4) 0.52441(4) 0.66998(5)
I1 I 0.17563(5) 0.46930(5) 0.44461(6)
N2 N 0.1420(5) 0.6538(5) 0.7259(6)
N3 N 0.1834(5) 0.6962(5) 0.8260(6)
O1 O 0.2937(4) 0.5661(4) 0.8527(5)
N7 N 0.1309(5) 0.4088(5) 0.7376(7)
N8 N 0.3172(5) 0.6732(5) 0.6123(6)
N9 N 0.3844(5) 0.4430(5) 0.6884(6)
Cd2 Cd 0.76285(4) 0.02441(4) 0.83002(5)
C1 C 0.8567(7) 0.8656(8) 0.6652(9)
H1 H 0.8029(7) 0.8834(8) 0.6134(9)
C2 C 0.9178(7) 0.7950(7) 0.6333(8)
H2 H 0.9047(7) 0.7669(7) 0.5624(8)
C3 C 0.9987(6) 0.7669(6) 0.7089(8)
C5 C 0.9508(7) 0.8835(9) 0.8330(9)
H4 H 0.9638(7) 0.9143(9) 0.9024(9)
N1 N 0.8691(5) 0.9088(5) 0.7624(7)
C1_2 C 0.1433(7) 0.3656(8) 0.8348(9)
H1_2 H 0.1971(7) 0.3834(8) 0.8866(9)
C2_2 C 0.0822(7) 0.2950(7) 0.8667(8)
H2_2 H 0.0953(7) 0.2669(7) 0.9376(8)
C3_2 C 0.0013(6) 0.2669(6) 0.7911(8)
C5_2 C 0.0492(7) 0.3835(9) 0.6670(9)
H4_2 H 0.0362(7) 0.4143(9) 0.5976(9)
C4_2 C 0.9845(7) 0.3151(9) 0.6921(9)
H3_2 H 0.9289(7) 0.3018(9) 0.6408(9)
C6_2 C 0.9392(6) 0.1897(7) 0.8247(8)
H5_2 H 0.9621(6) 0.1616(7) 0.8941(8)
C7_2 C 0.7420(6) 0.1442(6) 0.6205(7)
C8_2 C 0.6942(6) 0.1911(6) 0.5113(7)
C9_2 C 0.7206(6) 0.2841(6) 0.4810(7)
H6_2 H 0.7678(6) 0.3174(6) 0.5298(7)
C10_2 C 0.6157(6) 0.2790(6) 0.3161(7)
H7_2 H 0.5886(6) 0.3092(6) 0.2493(7)
C11_2 C 0.5858(6) 0.1870(6) 0.3386(7)
C12_2 C 0.6248(6) 0.1405(6) 0.4386(7)
H8_2 H 0.6051(6) 0.0782(6) 0.4556(7)
C13_2 C 0.4364(6) 0.0888(6) 0.2828(7)
H9_2 H 0.4219(6) 0.0785(6) 0.3543(7)
C14_2 C 0.5116(7) 0.1370(8) 0.1439(7)
H10_2 H 0.5555(7) 0.1653(8) 0.1034(7)
C15_2 C 0.4306(6) 0.0850(7) 0.1030(7)
H11_2 H 0.4100(6) 0.0707(7) 0.0277(7)
N2_2 N 0.8580(5) 0.1538(5) 0.7741(6)
N3_2 N 0.8166(5) 0.1962(5) 0.6740(6)
N4_2 N 0.6828(5) 0.3268(5) 0.3877(6)
N5_2 N 0.5143(5) 0.1387(5) 0.2591(6)
N6_2 N 0.3844(5) 0.0570(5) 0.1884(6)
O1_2 O 0.7063(4) 0.0661(4) 0.6473(5)
N8_2 N 0.6828(5) 0.1732(5) 0.8877(6)
N9_2 N 0.6156(5) 0.9430(5) 0.8116(6)
C1_3 C 0.1433(7) 0.1344(8) 0.3348(9)
H1_3 H 0.1971(7) 0.1166(8) 0.3866(9)
C2_3 C 0.0822(7) 0.2050(7) 0.3667(8)
H2_3 H 0.0953(7) 0.2331(7) 0.4376(8)
C3_3 C 0.0013(6) 0.2331(6) 0.2911(8)
C5_3 C 0.0492(7) 0.1165(9) 0.1670(9)
H4_3 H 0.0362(7) 0.0857(9) 0.0976(9)
N1_2 N 0.1309(5) 0.0912(5) 0.2376(7)
C4_3 C 0.9845(7) 0.1849(9) 0.1921(9)
H3_3 H 0.9289(7) 0.1982(9) 0.1408(9)
C6_3 C 0.9392(6) 0.3103(7) 0.3247(8)
H5_3 H 0.9621(6) 0.3384(7) 0.3941(8)
C7_3 C 0.7420(6) 0.3558(6) 0.1205(7)
C8_3 C 0.6942(6) 0.3089(6) 0.0113(7)
H6_3 H 0.7678(6) 0.1826(6) 0.0298(7)
I1_2 I 0.82437(5) 0.53070(5) 0.55539(6)
N2_3 N 0.8580(5) 0.3462(5) 0.2741(6)
N3_3 N 0.8166(5) 0.3038(5) 0.1740(6)
O1_3 O 0.7063(4) 0.4339(4) 0.1473(5)
N7_2 N 0.8691(5) 0.5912(5) 0.2624(7)
C9_3 C 0.7206(6) 0.2159(6) 0.9810(7)
C10_3 C 0.6157(6) 0.2210(6) 0.8161(7)
H7_3 H 0.5886(6) 0.1908(6) 0.7493(7)
C11_3 C 0.5858(6) 0.3130(6) 0.8386(7)
C12_3 C 0.6248(6) 0.3595(6) 0.9386(7)
H8_3 H 0.6051(6) 0.4218(6) 0.9556(7)
C13_3 C 0.4364(6) 0.4112(6) 0.7828(7)
H9_3 H 0.4219(6) 0.4215(6) 0.8543(7)
C14_3 C 0.5116(7) 0.3630(8) 0.6439(7)
H10_3 H 0.5555(7) 0.3347(8) 0.6034(7)
C15_3 C 0.4306(6) 0.4150(7) 0.6030(7)
H11_3 H 0.4100(6) 0.4293(7) 0.5277(7)
N5_3 N 0.5143(5) 0.3613(5) 0.7591(6)
C4_4 C 0.0155(7) 0.6849(9) 0.3079(9)
H3_4 H 0.0711(7) 0.6982(9) 0.3592(9)
C6_4 C 0.0608(6) 0.8103(7) 0.1753(8)
H5_4 H 0.0379(6) 0.8384(7) 0.1059(8)
C7_4 C 0.2580(6) 0.8558(6) 0.3795(7)
C8_4 C 0.3058(6) 0.8089(6) 0.4887(7)
C9_4 C 0.2794(6) 0.7159(6) 0.5190(7)
H6_4 H 0.2322(6) 0.6826(6) 0.4702(7)
C10_4 C 0.3843(6) 0.7210(6) 0.6839(7)
H7_4 H 0.4114(6) 0.6908(6) 0.7507(7)
C11_4 C 0.4142(6) 0.8130(6) 0.6614(7)
C12_4 C 0.3752(6) 0.8595(6) 0.5614(7)
H8_4 H 0.3949(6) 0.9218(6) 0.5444(7)
C13_4 C 0.5636(6) 0.9112(6) 0.7172(7)
H9_4 H 0.5781(6) 0.9215(6) 0.6457(7)
C14_4 C 0.4884(7) 0.8630(8) 0.8561(7)
H10_4 H 0.4445(7) 0.8347(8) 0.8966(7)
C15_4 C 0.5694(6) 0.9150(7) 0.8970(7)
H11_4 H 0.5900(6) 0.9293(7) 0.9723(7)
N2_4 N 0.1420(5) 0.8462(5) 0.2259(6)
N3_4 N 0.1834(5) 0.8038(5) 0.3260(6)
N5_4 N 0.4857(5) 0.8613(5) 0.7409(6)
O1_4 O 0.2937(4) 0.9339(4) 0.3527(5)
C1_4 C 0.8567(7) 0.6344(8) 0.1652(9)
H1_4 H 0.8029(7) 0.6166(8) 0.1134(9)
C2_4 C 0.9178(7) 0.7050(7) 0.1333(8)
H2_4 H 0.9047(7) 0.7331(7) 0.0624(8)
C3_4 C 0.9987(6) 0.7331(6) 0.2089(8)
C5_4 C 0.9508(7) 0.6165(9) 0.3330(9)
H4_4 H 0.9638(7) 0.5857(9) 0.4024(9)
I1_3 I 0.82437(5) 0.96930(5) 0.05539(6)
I1_4 I 0.17563(5) 0.03070(5) 0.94461(6)
loop_
_geom_bond_atom_site_label_1
_geom_bond_atom_site_label_2
_geom_bond_site_symmetry_1
_geom_bond_site_symmetry_2
C10 H7 1_555 1_555
C11 C10 1_555 1_555
H8 C12 1_555 1_555
C13 H9 1_555 1_555
C14 H10 1_555 1_555
C15 C14 1_555 1_555
H11 C15 1_555 1_555
N4 C9 1_555 1_555
N5 C11 1_555 1_555
N6 C13 1_555 1_555
Cd3 N6 1_555 1_555
Cd4 N4 1_555 1_555
C10 N4 1_555 1_555
C11 C12 1_555 1_555
C13 N5 1_555 1_555
C14 N5 1_555 1_555
C15 N6 1_555 1_555
H3 C4 1_555 1_555
H5 C6 1_555 1_555
C7 C8 1_555 1_555
Cd1 I1 1_555 1_555
N2 C6 1_555 1_555
N3 C7 1_555 1_555
O1 C7 1_555 1_555
N7 Cd1 1_555 1_555
N8 Cd1 1_555 1_555
N9 Cd1 1_555 1_555
Cd1 N2 1_555 1_555
Cd1 O1 1_555 1_555
N2 N3 1_555 1_555
C1 H1 1_555 1_555
C2 C1 1_555 1_555
H2 C2 1_555 1_555
C3 C2 1_555 1_555
H4 C5 1_555 1_555
N1 C1 1_555 1_555
C5 N1 1_555 1_555
C1_2 H1_2 1_555 1_555
C2_2 C1_2 1_555 1_555
H2_2 C2_2 1_555 1_555
C3_2 C2_2 1_555 1_555
H4_2 C5_2 1_555 1_555
N7 C1_2 1_555 1_555
C5_2 N7 1_555 1_555
H3_2 C4_2 1_555 1_555
H5_2 C6_2 1_555 1_555
C7_2 C8_2 1_555 1_555
C8_2 C9_2 1_555 1_555
C9_2 H6_2 1_555 1_555
C10_2 H7_2 1_555 1_555
C11_2 C10_2 1_555 1_555
C12_2 C8_2 1_555 1_555
H8_2 C12_2 1_555 1_555
C13_2 H9_2 1_555 1_555
C14_2 H10_2 1_555 1_555
C15_2 C14_2 1_555 1_555
H11_2 C15_2 1_555 1_555
N2_2 C6_2 1_555 1_555
N3_2 C7_2 1_555 1_555
N4_2 C9_2 1_555 1_555
N5_2 C11_2 1_555 1_555
N6_2 C13_2 1_555 1_555
O1_2 C7_2 1_555 1_555
Cd3 N4_2 1_555 1_555
N8_2 Cd2 1_555 1_555
C10_2 N4_2 1_555 1_555
C11_2 C12_2 1_555 1_555
C13_2 N5_2 1_555 1_555
C14_2 N5_2 1_555 1_555
C15_2 N6_2 1_555 1_555
Cd2 N2_2 1_555 1_555
Cd2 O1_2 1_555 1_555
N2_2 N3_2 1_555 1_555
C1_3 H1_3 1_555 1_555
C2_3 C1_3 1_555 1_555
H2_3 C2_3 1_555 1_555
C3_3 C2_3 1_555 1_555
H4_3 C5_3 1_555 1_555
N1_2 C1_3 1_555 1_555
C5_3 N1_2 1_555 1_555
H3_3 C4_3 1_555 1_555
H5_3 C6_3 1_555 1_555
C7_3 C8_3 1_555 1_555
Cd3 I1_2 1_555 1_555
N2_3 C6_3 1_555 1_555
N3_3 C7_3 1_555 1_555
O1_3 C7_3 1_555 1_555
N7_2 Cd3 1_555 1_555
Cd3 N2_3 1_555 1_555
Cd3 O1_3 1_555 1_555
N2_3 N3_3 1_555 1_555
C10_3 H7_3 1_555 1_555
C11_3 C10_3 1_555 1_555
H8_3 C12_3 1_555 1_555
C13_3 H9_3 1_555 1_555
C14_3 H10_3 1_555 1_555
C15_3 C14_3 1_555 1_555
H11_3 C15_3 1_555 1_555
N8_2 C9_3 1_555 1_555
N5_3 C11_3 1_555 1_555
N9 C13_3 1_555 1_555
C10_3 N8_2 1_555 1_555
C11_3 C12_3 1_555 1_555
C13_3 N5_3 1_555 1_555
C14_3 N5_3 1_555 1_555
C15_3 N9 1_555 1_555
H3_4 C4_4 1_555 1_555
H5_4 C6_4 1_555 1_555
C7_4 C8_4 1_555 1_555
C8_4 C9_4 1_555 1_555
C9_4 H6_4 1_555 1_555
C10_4 H7_4 1_555 1_555
C11_4 C10_4 1_555 1_555
C12_4 C8_4 1_555 1_555
H8_4 C12_4 1_555 1_555
C13_4 H9_4 1_555 1_555
C14_4 H10_4 1_555 1_555
C15_4 C14_4 1_555 1_555
H11_4 C15_4 1_555 1_555
N2_4 C6_4 1_555 1_555
N3_4 C7_4 1_555 1_555
N8 C9_4 1_555 1_555
N5_4 C11_4 1_555 1_555
N9_2 C13_4 1_555 1_555
O1_4 C7_4 1_555 1_555
C10_4 N8 1_555 1_555
C11_4 C12_4 1_555 1_555
C13_4 N5_4 1_555 1_555
C14_4 N5_4 1_555 1_555
C15_4 N9_2 1_555 1_555
Cd4 N2_4 1_555 1_555
Cd4 O1_4 1_555 1_555
N2_4 N3_4 1_555 1_555
C1_4 H1_4 1_555 1_555
C2_4 C1_4 1_555 1_555
H2_4 C2_4 1_555 1_555
C3_4 C2_4 1_555 1_555
H4_4 C5_4 1_555 1_555
N7_2 C1_4 1_555 1_555
C5_4 N7_2 1_555 1_555

#END
