
###############################################################################
#
# This file contains modified crystal structure data generated from the
# MOF subset of the Cambridge Structural Database (CSD) v543 
# hosted by the Cambridge Crystallographic Data Centre (CCDC).
#
# This work is licensed under the Creative Commons
# Attribution-NonCommercial-ShareAlike 4.0 International License.
# To view a copy of this license, visit
# http://creativecommons.org/licenses/by-nc-sa/4.0/
# or send a letter to
# Creative Commons, PO Box 1866, Mountain View, CA 94042, USA.
#
# CIF created using the CSD Python API on 29 September 2022
# The structure has been converted into the P1 space group
# The structure has a 3D framework
# The original CSD entry QUTXOT is in the monoclinic crystal system
# The framework has been calculated to contain at least 10.0% void space
# The void calculation uses a probe of radius 1.32A, grid spacing 0.4
# H atom positions have been added when not included in the experimental data
#
###############################################################################

data_QUTXOT
_chemical_formula_moiety         '(C120 H104 Cu4 N8 O12 P8)n'
_symmetry_cell_setting           triclinic
_symmetry_space_group_name_H-M   'P 1'
_symmetry_Int_Tables_number      1
_space_group_name_Hall           'P 1'
loop_
_symmetry_equiv_pos_site_id
_symmetry_equiv_pos_as_xyz
1 x,y,z
_cell_length_a                   11.403(3)
_cell_length_b                   11.092(2)
_cell_length_c                   22.580(5)
_cell_angle_alpha                90
_cell_angle_beta                 97.59(2)
_cell_angle_gamma                90
_cell_volume                     2830.94
loop_
_atom_site_label
_atom_site_type_symbol
_atom_site_fract_x
_atom_site_fract_y
_atom_site_fract_z
_atom_site_U_iso_or_equiv
_atom_site_thermal_displace_type
Cu5 Cu 0.2464(13) 0.0209(15) 0.9827(7) 0.0250 Uiso
N1 N 0.2596(14) 0.1991(15) 0.9748(12) 0.0250 Uiso
N2 N 0.2382(24) 0.8416(15) 0.9740(11) 0.0250 Uiso
C21 C 0.3650(16) 0.2697(18) 0.9719(6) 0.0250 Uiso
C23 C 0.3667(17) 0.3948(19) 0.9681(5) 0.0250 Uiso
C24 C 0.190(5) 0.6303(30) 0.9987(25) 0.0250 Uiso
C25 C 0.1611(20) 0.4004(25) 0.9655(27) 0.0250 Uiso
C26 C 0.3407(32) 0.6704(31) 0.9384(24) 0.0250 Uiso
C27 C 0.1609(20) 0.2738(23) 0.9721(27) 0.0250 Uiso
C28 C 0.316(4) 0.7948(28) 0.9380(23) 0.0250 Uiso
C29 C 0.2665(22) 0.4604(19) 0.9618(24) 0.0250 Uiso
C30 C 0.2676(34) 0.5864(18) 0.9616(26) 0.0250 Uiso
O5 O 0.0566(22) 0.0507(23) 0.9244(18) 0.0250 Uiso
O7 O 0.3560(27) 0.0039(22) 0.9138(13) 0.0250 Uiso
H13 H 0.451436 0.440984 0.970281 . .
H18 H 0.418917 0.638784 0.920128 . .
H23 H 0.448623 0.221902 0.972742 . .
H24 H 0.358579 0.854591 0.909075 . .
H25 H 0.0786566 0.450751 0.963323 . .
H26 H 0.076125 0.230829 0.975364 . .
P1 P 0.0806(14) 0.9174(11) 0.1082(6) 0.0250 Uiso
P2 P 0.4708(13) 0.4523(10) 0.3931(8) 0.0250 Uiso
O1 O 0.168(4) 0.9544(28) 0.0636(12) 0.0250 Uiso
O3 O 0.5860(26) 0.4810(23) 0.4476(15) 0.0250 Uiso
O4 O 0.3560(27) 0.4961(22) 0.4138(13) 0.0250 Uiso
C1 C 0.353(5) 0.7308(30) 0.2670(19) 0.0250 Uiso
C7 C 0.197 0.982 0.21473 0.0250 Uiso
C8 C 0.1176(32) 0.7582(12) 0.1326(12) 0.0250 Uiso
C9 C 0.2062(29) 0.7117(17) 0.1837(12) 0.0250 Uiso
C10 C 0.276(4) 0.7810(23) 0.2167(19) 0.0250 Uiso
C11 C 0.239(5) 0.5936(25) 0.1823(21) 0.0250 Uiso
C12 C 0.41263 0.28773 0.38193 0.0250 Uiso
C13 C 0.29123 0.26809 0.37145 0.0250 Uiso
C14 C 0.24753 0.15073 0.36017 0.0250 Uiso
C15 C 0.32502 0.05351 0.36365 0.0250 Uiso
C16 C 0.44498 0.07718 0.37737 0.0250 Uiso
C17 C 0.47611 0.178 0.38515 0.0250 Uiso
C18 C 0.4737(22) 0.537(4) 0.3195(13) 0.0250 Uiso
C19 C 0.3704(25) 0.6028(30) 0.2747(11) 0.0250 Uiso
C20 C 0.325(6) 0.5399(32) 0.2260(23) 0.0250 Uiso
Cu3 Cu 0.7536(13) 0.5209(15) 0.5173(7) 0.0250 Uiso
Cu4 Cu 0.2464(13) 0.4791(15) 0.4827(7) 0.0250 Uiso
O6 O 0.4140(26) 0.9810(23) 0.0524(15) 0.0250 Uiso
H2 H 0.399097 0.791851 0.299976 . .
H6 H 0.208123 0.885007 0.220458 . .
H7 H 0.144394 0.715528 0.0930752 . .
H8 H 0.0334252 0.720588 0.141448 . .
H10 H 0.230182 0.343464 0.371983 . .
H11 H 0.35405 0.447709 0.219962 . .
H14 H 0.510024 0.471264 0.291058 . .
H15 H 0.538118 0.608433 0.331201 . .
H16 H 0.571277 0.188449 0.396993 . .
H19 H 0.277893 0.877203 0.207246 . .
H20 H 0.197366 0.537373 0.145926 . .
H21 H 0.509221 0.00402833 0.380892 . .
H22 H 0.152846 0.135935 0.348689 . .
O2 O 0.9434(22) 0.9493(23) 0.0756(18) 0.0250 Uiso
Cu2 Cu 0.7536(13) 0.9791(15) 0.0173(7) 0.0250 Uiso
O2_2 O 0.0566(22) 0.4493(23) 0.4244(18) 0.0250 Uiso
N2_2 N 0.7618(24) 0.3416(15) 0.5260(11) 0.0250 Uiso
C22 C 0.821(5) 0.2559(30) 0.4954(25) 0.0250 Uiso
C24_2 C 0.810(5) 0.1303(30) 0.5013(25) 0.0250 Uiso
C26_2 C 0.6593(32) 0.1704(31) 0.5616(24) 0.0250 Uiso
C28_2 C 0.684(4) 0.2948(28) 0.5620(23) 0.0250 Uiso
C30_2 C 0.7324(34) 0.0864(18) 0.5384(26) 0.0250 Uiso
H12 H 0.8799 0.288899 0.464776 . .
H17 H 0.861372 0.0689457 0.477225 . .
H18_2 H 0.581083 0.138784 0.579872 . .
H24_2 H 0.641421 0.354591 0.590925 . .
P1_2 P 0.9194(14) 0.4174(11) 0.3918(6) 0.0250 Uiso
O1_2 O 0.832(4) 0.4544(28) 0.4364(12) 0.0250 Uiso
N1_2 N 0.7404(14) 0.6991(15) 0.5252(12) 0.0250 Uiso
C1_2 C 0.647(5) 0.2308(30) 0.2330(19) 0.0250 Uiso
C2 C 0.858 0.526 0.334 0.0250 Uiso
C3 C 0.846 0.644 0.351 0.0250 Uiso
C4 C 0.808 0.717 0.311 0.0250 Uiso
C5 C 0.766 0.68101 0.25664 0.0250 Uiso
C6 C 0.76 0.558 0.242 0.0250 Uiso
C7_2 C 0.803 0.482 0.28527 0.0250 Uiso
C8_2 C 0.8824(32) 0.2582(12) 0.3674(12) 0.0250 Uiso
C9_2 C 0.7938(29) 0.2117(17) 0.3163(12) 0.0250 Uiso
C10_2 C 0.724(4) 0.2810(23) 0.2833(19) 0.0250 Uiso
C11_2 C 0.761(5) 0.0936(25) 0.3177(21) 0.0250 Uiso
C18_2 C 0.5263(22) 0.037(4) 0.1805(13) 0.0250 Uiso
C19_2 C 0.6296(25) 0.1028(30) 0.2253(11) 0.0250 Uiso
C20_2 C 0.675(6) 0.0399(32) 0.2740(23) 0.0250 Uiso
C21_2 C 0.6350(16) 0.7697(18) 0.5281(6) 0.0250 Uiso
C23_2 C 0.6333(17) 0.8948(19) 0.5319(5) 0.0250 Uiso
C25_2 C 0.8389(20) 0.9004(25) 0.5345(27) 0.0250 Uiso
C27_2 C 0.8391(20) 0.7738(23) 0.5279(27) 0.0250 Uiso
C29_2 C 0.7335(22) 0.9604(19) 0.5382(24) 0.0250 Uiso
O5_2 O 0.9434(22) 0.5507(23) 0.5756(18) 0.0250 Uiso
O7_2 O 0.6440(27) 0.5039(22) 0.5862(13) 0.0250 Uiso
H1 H 0.809537 0.81298 0.321224 . .
H2_2 H 0.600903 0.291851 0.200024 . .
H3 H 0.868646 0.672368 0.397269 . .
H4 H 0.735559 0.747675 0.22265 . .
H5 H 0.722423 0.526436 0.197879 . .
H6_2 H 0.791877 0.385007 0.279542 . .
H7_2 H 0.855606 0.215528 0.406925 . .
H8_2 H 0.966575 0.220588 0.358552 . .
H13_2 H 0.548564 0.940984 0.529719 . .
H15_2 H 0.461882 0.108433 0.168799 . .
H19_2 H 0.722107 0.377203 0.292754 . .
H20_2 H 0.802634 0.0373727 0.354074 . .
H23_2 H 0.551377 0.721902 0.527258 . .
H25_2 H 0.921343 0.950751 0.536677 . .
H26_2 H 0.923875 0.730829 0.524636 . .
P2_2 P 0.5292(13) 0.9523(10) 0.1069(8) 0.0250 Uiso
O4_2 O 0.6440(27) 0.9961(22) 0.0862(13) 0.0250 Uiso
C12_2 C 0.58737 0.78773 0.11807 0.0250 Uiso
C13_2 C 0.70877 0.76809 0.12855 0.0250 Uiso
C14_2 C 0.75247 0.65073 0.13983 0.0250 Uiso
C15_2 C 0.67498 0.55351 0.13635 0.0250 Uiso
C16_2 C 0.55502 0.57718 0.12263 0.0250 Uiso
C17_2 C 0.52389 0.678 0.11485 0.0250 Uiso
H9 H 0.707375 0.46176 0.144139 . .
H10_2 H 0.769818 0.843464 0.128017 . .
H11_2 H 0.64595 0.947709 0.280038 . .
H14_2 H 0.489976 0.971264 0.208942 . .
H16_2 H 0.428723 0.688449 0.103007 . .
H21_2 H 0.490779 0.504028 0.119108 . .
H22_2 H 0.847154 0.635935 0.151311 . .
N3 N 0.7618(24) 0.1584(15) 0.0260(11) 0.0250 Uiso
P1_3 P 0.9194(14) 0.0826(11) 0.8918(6) 0.0250 Uiso
P2_3 P 0.5292(13) 0.5477(10) 0.6069(8) 0.0250 Uiso
O1_3 O 0.832(4) 0.0456(28) 0.9364(12) 0.0250 Uiso
O3_2 O 0.4140(26) 0.5190(23) 0.5524(15) 0.0250 Uiso
C1_3 C 0.647(5) 0.2692(30) 0.7330(19) 0.0250 Uiso
C7_3 C 0.803 0.018 0.78527 0.0250 Uiso
C8_3 C 0.8824(32) 0.2418(12) 0.8674(12) 0.0250 Uiso
C9_3 C 0.7938(29) 0.2883(17) 0.8163(12) 0.0250 Uiso
C10_3 C 0.724(4) 0.2190(23) 0.7833(19) 0.0250 Uiso
C11_3 C 0.761(5) 0.4064(25) 0.8177(21) 0.0250 Uiso
C12_3 C 0.58737 0.71227 0.61807 0.0250 Uiso
C13_3 C 0.70877 0.73191 0.62855 0.0250 Uiso
C14_3 C 0.75247 0.84927 0.63983 0.0250 Uiso
C15_3 C 0.67498 0.94649 0.63635 0.0250 Uiso
C16_3 C 0.55502 0.92282 0.62263 0.0250 Uiso
C17_3 C 0.52389 0.822 0.61485 0.0250 Uiso
C18_3 C 0.5263(22) 0.463(4) 0.6805(13) 0.0250 Uiso
C19_3 C 0.6296(25) 0.3972(30) 0.7253(11) 0.0250 Uiso
C20_3 C 0.675(6) 0.4601(32) 0.7740(23) 0.0250 Uiso
O6_2 O 0.5860(26) 0.0190(23) 0.9476(15) 0.0250 Uiso
H2_3 H 0.600903 0.208149 0.700024 . .
H6_3 H 0.791877 0.114993 0.779542 . .
H7_3 H 0.855606 0.284472 0.906925 . .
H8_3 H 0.966575 0.279412 0.858552 . .
H10_3 H 0.769818 0.656536 0.628017 . .
H11_3 H 0.64595 0.552291 0.780038 . .
H14_3 H 0.489976 0.528736 0.708942 . .
H15_3 H 0.461882 0.391567 0.668799 . .
H16_3 H 0.428723 0.811551 0.603007 . .
H19_3 H 0.722107 0.122797 0.792754 . .
H20_3 H 0.802634 0.462627 0.854074 . .
H21_3 H 0.490779 0.995972 0.619108 . .
H22_3 H 0.847154 0.864065 0.651311 . .
N1_3 N 0.7404(14) 0.8009(15) 0.0252(12) 0.0250 Uiso
C21_3 C 0.6350(16) 0.7303(18) 0.0281(6) 0.0250 Uiso
C23_3 C 0.6333(17) 0.6052(19) 0.0319(5) 0.0250 Uiso
C24_3 C 0.810(5) 0.3697(30) 0.0013(25) 0.0250 Uiso
C25_3 C 0.8389(20) 0.5996(25) 0.0345(27) 0.0250 Uiso
C26_3 C 0.6593(32) 0.3296(31) 0.0616(24) 0.0250 Uiso
C27_3 C 0.8391(20) 0.7262(23) 0.0279(27) 0.0250 Uiso
C28_3 C 0.684(4) 0.2052(28) 0.0620(23) 0.0250 Uiso
C29_3 C 0.7335(22) 0.5396(19) 0.0382(24) 0.0250 Uiso
C30_3 C 0.7324(34) 0.4136(18) 0.0384(26) 0.0250 Uiso
H13_3 H 0.548564 0.559016 0.0297191 . .
H18_3 H 0.581083 0.361216 0.0798722 . .
H23_3 H 0.551377 0.778098 0.0272577 . .
H24_3 H 0.641421 0.145409 0.090925 . .
H25_3 H 0.921343 0.549249 0.0366767 . .
H26_3 H 0.923875 0.769171 0.024636 . .
P2_4 P 0.4708(13) 0.0477(10) 0.8931(8) 0.0250 Uiso
C12_4 C 0.41263 0.21227 0.88193 0.0250 Uiso
C13_4 C 0.29123 0.23191 0.87145 0.0250 Uiso
C14_4 C 0.24753 0.34927 0.86017 0.0250 Uiso
C15_4 C 0.32502 0.44649 0.86365 0.0250 Uiso
C16_4 C 0.44498 0.42282 0.87737 0.0250 Uiso
C17_4 C 0.47611 0.322 0.88515 0.0250 Uiso
H9_2 H 0.292625 0.53824 0.855861 . .
H10_4 H 0.230182 0.156536 0.871983 . .
H11_4 H 0.35405 0.0522906 0.719962 . .
H14_4 H 0.510024 0.0287363 0.791058 . .
H16_4 H 0.571277 0.311551 0.896993 . .
H21_4 H 0.509221 0.495972 0.880892 . .
H22_4 H 0.152846 0.364065 0.848689 . .
P1_4 P 0.0806(14) 0.5826(11) 0.6082(6) 0.0250 Uiso
O1_4 O 0.168(4) 0.5456(28) 0.5636(12) 0.0250 Uiso
N1_4 N 0.2596(14) 0.3009(15) 0.4748(12) 0.0250 Uiso
C1_4 C 0.353(5) 0.7692(30) 0.7670(19) 0.0250 Uiso
C2_2 C 0.142 0.474 0.666 0.0250 Uiso
C3_2 C 0.154 0.356 0.649 0.0250 Uiso
C4_2 C 0.192 0.283 0.689 0.0250 Uiso
C5_2 C 0.234 0.31899 0.74336 0.0250 Uiso
C6_2 C 0.24 0.442 0.758 0.0250 Uiso
C7_4 C 0.197 0.518 0.71473 0.0250 Uiso
C8_4 C 0.1176(32) 0.7418(12) 0.6326(12) 0.0250 Uiso
C9_4 C 0.2062(29) 0.7883(17) 0.6837(12) 0.0250 Uiso
C10_4 C 0.276(4) 0.7190(23) 0.7167(19) 0.0250 Uiso
C11_4 C 0.239(5) 0.9064(25) 0.6823(21) 0.0250 Uiso
C18_4 C 0.4737(22) 0.963(4) 0.8195(13) 0.0250 Uiso
C19_4 C 0.3704(25) 0.8972(30) 0.7747(11) 0.0250 Uiso
C20_4 C 0.325(6) 0.9601(32) 0.7260(23) 0.0250 Uiso
C21_4 C 0.3650(16) 0.2303(18) 0.4719(6) 0.0250 Uiso
C23_4 C 0.3667(17) 0.1052(19) 0.4681(5) 0.0250 Uiso
C25_4 C 0.1611(20) 0.0996(25) 0.4655(27) 0.0250 Uiso
C27_4 C 0.1609(20) 0.2262(23) 0.4721(27) 0.0250 Uiso
C29_4 C 0.2665(22) 0.0396(19) 0.4618(24) 0.0250 Uiso
N3_2 N 0.2382(24) 0.6584(15) 0.4740(11) 0.0250 Uiso
H1_2 H 0.190463 0.18702 0.678776 . .
H2_4 H 0.399097 0.708149 0.799976 . .
H3_2 H 0.131354 0.327632 0.602731 . .
H4_2 H 0.264441 0.252325 0.77735 . .
H5_2 H 0.277577 0.473564 0.802121 . .
H6_4 H 0.208123 0.614993 0.720458 . .
H7_4 H 0.144394 0.784472 0.593075 . .
H8_4 H 0.0334252 0.779412 0.641448 . .
H13_4 H 0.451436 0.0590157 0.470281 . .
H15_4 H 0.538118 0.891567 0.831201 . .
H19_4 H 0.277893 0.622797 0.707246 . .
H20_4 H 0.197366 0.962627 0.645926 . .
H23_4 H 0.448623 0.278098 0.472742 . .
H25_4 H 0.0786566 0.0492486 0.463323 . .
H26_4 H 0.076125 0.269171 0.475364 . .
C22_2 C 0.179(5) 0.7441(30) 0.5046(25) 0.0250 Uiso
C24_4 C 0.190(5) 0.8697(30) 0.4987(25) 0.0250 Uiso
C26_4 C 0.3407(32) 0.8296(31) 0.4384(24) 0.0250 Uiso
C28_4 C 0.316(4) 0.7052(28) 0.4380(23) 0.0250 Uiso
C30_4 C 0.2676(34) 0.9136(18) 0.4616(26) 0.0250 Uiso
H12_2 H 0.1201 0.711101 0.535224 . .
H17_2 H 0.138628 0.931054 0.522775 . .
H18_4 H 0.418917 0.861216 0.420128 . .
H24_4 H 0.358579 0.645409 0.409075 . .
C2_3 C 0.142 0.026 0.166 0.0250 Uiso
C3_3 C 0.154 0.144 0.149 0.0250 Uiso
C4_3 C 0.192 0.217 0.189 0.0250 Uiso
C5_3 C 0.234 0.18101 0.24336 0.0250 Uiso
C6_3 C 0.24 0.058 0.258 0.0250 Uiso
C22_3 C 0.179(5) 0.7559(30) 0.0046(25) 0.0250 Uiso
H1_3 H 0.190463 0.31298 0.178776 . .
H3_3 H 0.131354 0.172368 0.102731 . .
H4_3 H 0.264441 0.247675 0.27735 . .
H5_3 H 0.277577 0.0264363 0.302121 . .
H12_3 H 0.1201 0.788899 0.035224 . .
H17_3 H 0.138628 0.568946 0.0227749 . .
H9_3 H 0.292625 0.96176 0.355861 . .
H9_4 H 0.707375 0.0382401 0.644139 . .
C2_4 C 0.858 0.974 0.834 0.0250 Uiso
C3_4 C 0.846 0.856 0.851 0.0250 Uiso
C4_4 C 0.808 0.783 0.811 0.0250 Uiso
C5_4 C 0.766 0.81899 0.75664 0.0250 Uiso
C6_4 C 0.76 0.942 0.742 0.0250 Uiso
C22_4 C 0.821(5) 0.2441(30) 0.9954(25) 0.0250 Uiso
H1_4 H 0.809537 0.68702 0.821224 . .
H3_4 H 0.868646 0.827632 0.897269 . .
H4_4 H 0.735559 0.752325 0.72265 . .
H5_4 H 0.722423 0.973564 0.697879 . .
H12_4 H 0.8799 0.211101 0.964776 . .
H17_4 H 0.861372 0.431054 0.977225 . .
loop_
_geom_bond_atom_site_label_1
_geom_bond_atom_site_label_2
_geom_bond_site_symmetry_1
_geom_bond_site_symmetry_2
N1 Cu5 1_555 1_555
C21 N1 1_555 1_555
C23 C21 1_555 1_555
C24 C30 1_555 1_555
C25 C27 1_555 1_555
C26 C28 1_555 1_555
C27 N1 1_555 1_555
C28 N2 1_555 1_555
C29 C23 1_555 1_555
C30 C26 1_555 1_555
O5 Cu5 1_555 1_555
O7 Cu5 1_555 1_555
C25 C29 1_555 1_555
C29 C30 1_555 1_555
C23 H13 1_555 1_555
C26 H18 1_555 1_555
C21 H23 1_555 1_555
C28 H24 1_555 1_555
C25 H25 1_555 1_555
C27 H26 1_555 1_555
P1 O1 1_555 1_555
P2 O3 1_555 1_555
O3 Cu3 1_555 1_555
O4 P2 1_555 1_555
C1 C10 1_555 1_555
C8 P1 1_555 1_555
C9 C8 1_555 1_555
C10 C9 1_555 1_555
C11 C9 1_555 1_555
C12 P2 1_555 1_555
C13 C12 1_555 1_555
C14 C13 1_555 1_555
C15 C14 1_555 1_555
C16 C15 1_555 1_555
C17 C12 1_555 1_555
C18 P2 1_555 1_555
C19 C1 1_555 1_555
C20 C11 1_555 1_555
Cu4 O4 1_555 1_555
C16 C17 1_555 1_555
C18 C19 1_555 1_555
C19 C20 1_555 1_555
C1 H2 1_555 1_555
C7 H6 1_555 1_555
C8 H7 1_555 1_555
C8 H8 1_555 1_555
C13 H10 1_555 1_555
C20 H11 1_555 1_555
C18 H14 1_555 1_555
C18 H15 1_555 1_555
C17 H16 1_555 1_555
C10 H19 1_555 1_555
C11 H20 1_555 1_555
C16 H21 1_555 1_555
C14 H22 1_555 1_555
Cu2 O2 1_555 1_555
Cu4 O2_2 1_555 1_555
N2_2 C22 1_555 1_555
C22 C24_2 1_555 1_555
C24_2 C30_2 1_555 1_555
C26_2 C28_2 1_555 1_555
C28_2 N2_2 1_555 1_555
C30_2 C26_2 1_555 1_555
Cu3 N2_2 1_555 1_555
C22 H12 1_555 1_555
C24_2 H17 1_555 1_555
C26_2 H18_2 1_555 1_555
C28_2 H24_2 1_555 1_555
Cu3 O1_2 1_555 1_555
P1_2 O1_2 1_555 1_555
N1_2 Cu3 1_555 1_555
C1_2 C10_2 1_555 1_555
C2 P1_2 1_555 1_555
C3 C2 1_555 1_555
C4 C3 1_555 1_555
C5 C4 1_555 1_555
C6 C5 1_555 1_555
C7_2 C2 1_555 1_555
C8_2 P1_2 1_555 1_555
C9_2 C8_2 1_555 1_555
C10_2 C9_2 1_555 1_555
C11_2 C9_2 1_555 1_555
C19_2 C1_2 1_555 1_555
C20_2 C11_2 1_555 1_555
C21_2 N1_2 1_555 1_555
C23_2 C21_2 1_555 1_555
C25_2 C27_2 1_555 1_555
C27_2 N1_2 1_555 1_555
C29_2 C23_2 1_555 1_555
O5_2 Cu3 1_555 1_555
O7_2 Cu3 1_555 1_555
C6 C7_2 1_555 1_555
C18_2 C19_2 1_555 1_555
C19_2 C20_2 1_555 1_555
C25_2 C29_2 1_555 1_555
C4 H1 1_555 1_555
C1_2 H2_2 1_555 1_555
C3 H3 1_555 1_555
C5 H4 1_555 1_555
C6 H5 1_555 1_555
C7_2 H6_2 1_555 1_555
C8_2 H7_2 1_555 1_555
C8_2 H8_2 1_555 1_555
C23_2 H13_2 1_555 1_555
C18_2 H15_2 1_555 1_555
C10_2 H19_2 1_555 1_555
C11_2 H20_2 1_555 1_555
C21_2 H23_2 1_555 1_555
C25_2 H25_2 1_555 1_555
C27_2 H26_2 1_555 1_555
P2_2 O6 1_555 1_555
O4_2 P2_2 1_555 1_555
C12_2 P2_2 1_555 1_555
C13_2 C12_2 1_555 1_555
C14_2 C13_2 1_555 1_555
C15_2 C14_2 1_555 1_555
C16_2 C15_2 1_555 1_555
C17_2 C12_2 1_555 1_555
Cu2 O4_2 1_555 1_555
C16_2 C17_2 1_555 1_555
C15_2 H9 1_555 1_555
C13_2 H10_2 1_555 1_555
C17_2 H16_2 1_555 1_555
C16_2 H21_2 1_555 1_555
C14_2 H22_2 1_555 1_555
P1_3 O1_3 1_555 1_555
P2_3 O3_2 1_555 1_555
O3_2 Cu4 1_555 1_555
O7_2 P2_3 1_555 1_555
C1_3 C10_3 1_555 1_555
C8_3 P1_3 1_555 1_555
C9_3 C8_3 1_555 1_555
C10_3 C9_3 1_555 1_555
C11_3 C9_3 1_555 1_555
C12_3 P2_3 1_555 1_555
C13_3 C12_3 1_555 1_555
C14_3 C13_3 1_555 1_555
C15_3 C14_3 1_555 1_555
C16_3 C15_3 1_555 1_555
C17_3 C12_3 1_555 1_555
C18_3 P2_3 1_555 1_555
C19_3 C1_3 1_555 1_555
C20_3 C11_3 1_555 1_555
C16_3 C17_3 1_555 1_555
C18_3 C19_3 1_555 1_555
C19_3 C20_3 1_555 1_555
C1_3 H2_3 1_555 1_555
C7_3 H6_3 1_555 1_555
C8_3 H7_3 1_555 1_555
C8_3 H8_3 1_555 1_555
C13_3 H10_3 1_555 1_555
C20_3 H11_3 1_555 1_555
C18_3 H14_3 1_555 1_555
C18_3 H15_3 1_555 1_555
C17_3 H16_3 1_555 1_555
C10_3 H19_3 1_555 1_555
C11_3 H20_3 1_555 1_555
C16_3 H21_3 1_555 1_555
C14_3 H22_3 1_555 1_555
N1_3 Cu2 1_555 1_555
C21_3 N1_3 1_555 1_555
C23_3 C21_3 1_555 1_555
C24_3 C30_3 1_555 1_555
C25_3 C27_3 1_555 1_555
C26_3 C28_3 1_555 1_555
C27_3 N1_3 1_555 1_555
C28_3 N3 1_555 1_555
C29_3 C23_3 1_555 1_555
C30_3 C26_3 1_555 1_555
C25_3 C29_3 1_555 1_555
C29_3 C30_3 1_555 1_555
C23_3 H13_3 1_555 1_555
C26_3 H18_3 1_555 1_555
C21_3 H23_3 1_555 1_555
C28_3 H24_3 1_555 1_555
C25_3 H25_3 1_555 1_555
C27_3 H26_3 1_555 1_555
P2_4 O6_2 1_555 1_555
O7 P2_4 1_555 1_555
C12_4 P2_4 1_555 1_555
C13_4 C12_4 1_555 1_555
C14_4 C13_4 1_555 1_555
C15_4 C14_4 1_555 1_555
C16_4 C15_4 1_555 1_555
C17_4 C12_4 1_555 1_555
C16_4 C17_4 1_555 1_555
C15_4 H9_2 1_555 1_555
C13_4 H10_4 1_555 1_555
C17_4 H16_4 1_555 1_555
C16_4 H21_4 1_555 1_555
C14_4 H22_4 1_555 1_555
Cu4 O1_4 1_555 1_555
P1_4 O1_4 1_555 1_555
N1_4 Cu4 1_555 1_555
C1_4 C10_4 1_555 1_555
C2_2 P1_4 1_555 1_555
C3_2 C2_2 1_555 1_555
C4_2 C3_2 1_555 1_555
C5_2 C4_2 1_555 1_555
C6_2 C5_2 1_555 1_555
C7_4 C2_2 1_555 1_555
C8_4 P1_4 1_555 1_555
C9_4 C8_4 1_555 1_555
C10_4 C9_4 1_555 1_555
C11_4 C9_4 1_555 1_555
C19_4 C1_4 1_555 1_555
C20_4 C11_4 1_555 1_555
C21_4 N1_4 1_555 1_555
C23_4 C21_4 1_555 1_555
C25_4 C27_4 1_555 1_555
C27_4 N1_4 1_555 1_555
C29_4 C23_4 1_555 1_555
N3_2 Cu4 1_555 1_555
C6_2 C7_4 1_555 1_555
C18_4 C19_4 1_555 1_555
C19_4 C20_4 1_555 1_555
C25_4 C29_4 1_555 1_555
C4_2 H1_2 1_555 1_555
C1_4 H2_4 1_555 1_555
C3_2 H3_2 1_555 1_555
C5_2 H4_2 1_555 1_555
C6_2 H5_2 1_555 1_555
C7_4 H6_4 1_555 1_555
C8_4 H7_4 1_555 1_555
C8_4 H8_4 1_555 1_555
C23_4 H13_4 1_555 1_555
C18_4 H15_4 1_555 1_555
C10_4 H19_4 1_555 1_555
C11_4 H20_4 1_555 1_555
C21_4 H23_4 1_555 1_555
C25_4 H25_4 1_555 1_555
C27_4 H26_4 1_555 1_555
N3_2 C22_2 1_555 1_555
C22_2 C24_4 1_555 1_555
C24_4 C30_4 1_555 1_555
C26_4 C28_4 1_555 1_555
C28_4 N3_2 1_555 1_555
C30_4 C26_4 1_555 1_555
C22_2 H12_2 1_555 1_555
C24_4 H17_2 1_555 1_555
C26_4 H18_4 1_555 1_555
C28_4 H24_4 1_555 1_555
C3_3 C2_3 1_555 1_555
C4_3 C3_3 1_555 1_555
C5_3 C4_3 1_555 1_555
C6_3 C5_3 1_555 1_555
C4_3 H1_3 1_555 1_555
C3_3 H3_3 1_555 1_555
C5_3 H4_3 1_555 1_555
C6_3 H5_3 1_555 1_555
C22_3 H12_3 1_555 1_555
C3_4 C2_4 1_555 1_555
C4_4 C3_4 1_555 1_555
C5_4 C4_4 1_555 1_555
C6_4 C5_4 1_555 1_555
C4_4 H1_4 1_555 1_555
C3_4 H3_4 1_555 1_555
C5_4 H4_4 1_555 1_555
C6_4 H5_4 1_555 1_555
C22_4 H12_4 1_555 1_555

#END
