
###############################################################################
#
# This file contains modified crystal structure data generated from the
# MOF subset of the Cambridge Structural Database (CSD) v543 
# hosted by the Cambridge Crystallographic Data Centre (CCDC).
#
# This work is licensed under the Creative Commons
# Attribution-NonCommercial-ShareAlike 4.0 International License.
# To view a copy of this license, visit
# http://creativecommons.org/licenses/by-nc-sa/4.0/
# or send a letter to
# Creative Commons, PO Box 1866, Mountain View, CA 94042, USA.
#
# CIF created using the CSD Python API on 29 September 2022
# The structure has been converted into the P1 space group
# The structure has a 3D framework
# The original CSD entry QUVFET is in the orthorhombic crystal system
# The original CSD entry QUVFET is in a Sohncke space group
# The framework has been calculated to contain at least 10.0% void space
# The void calculation uses a probe of radius 1.32A, grid spacing 0.4
#
###############################################################################

data_QUVFET
_chemical_formula_moiety         '(C56 H64 Lu8 N8 O68 P8)n'
_symmetry_cell_setting           triclinic
_symmetry_space_group_name_H-M   'P 1'
_symmetry_Int_Tables_number      1
_space_group_name_Hall           'P 1'
loop_
_symmetry_equiv_pos_site_id
_symmetry_equiv_pos_as_xyz
1 x,y,z
_cell_length_a                   11.2506(10)
_cell_length_b                   14.8354(14)
_cell_length_c                   16.1843(15)
_cell_angle_alpha                90
_cell_angle_beta                 90
_cell_angle_gamma                90
_cell_volume                     2701.28
loop_
_atom_site_label
_atom_site_type_symbol
_atom_site_fract_x
_atom_site_fract_y
_atom_site_fract_z
C5 C 0.0394(14) 0.0647(11) 0.1904(10)
H13 H 0.0172 0.1223 0.1737
C6 C 0.1169(19) 0.0162(14) 0.1451(12)
H14 H 0.1472 0.0405 0.0965
N2 N 0.1124(12) 0.8993(9) 0.2403(9)
H6 H 0.1371 0.8479 0.2577
C7 C 0.1520(15) 0.9319(12) 0.1694(10)
H15 H 0.2030 0.8981 0.1365
C8 C 0.0297(13) 0.9473(11) 0.2885(10)
H16 H 0.0004 0.9229 0.3374
Lu1 Lu 0.72703(4) 0.25270(3) 0.56811(3)
P1 P 0.7386(4) 0.1815(2) 0.16681(19)
P2 P 0.6878(3) 0.0495(2) 0.4548(2)
O1 O 0.8208(11) 0.2390(7) 0.2158(7)
O2 O 0.7634(10) 0.1722(6) 0.0786(5)
O3 O 0.6040(11) 0.2065(9) 0.1739(8)
H1 H 0.5960 0.2488 0.2059
O5 O 0.7407(10) 0.1156(5) 0.5137(5)
O6 O 0.5542(11) 0.0412(8) 0.4744(8)
O7 O 0.6113(7) 0.2687(7) 0.4488(7)
O8 O 0.4261(7) 0.2620(9) 0.3985(5)
O9 O 0.3476(7) 0.2208(7) 0.5487(6)
O10 O 0.5290(8) 0.2351(8) 0.6000(6)
O11 O 0.7246(10) 0.1501(5) 0.6771(5)
O12 O 0.7355(11) 0.1305(5) 0.8146(5)
O13 O 0.7663(10) 0.3021(6) 0.8351(5)
O14 O 0.7479(11) 0.3257(5) 0.6982(5)
O15 O 0.4576(7) 0.3479(6) 0.0505(7)
O18 O 0.3792(8) 0.1832(7) 0.0118(6)
O19 O 0.6872(12) 0.4047(7) 0.5490(7)
H3 H 0.7441 0.4284 0.5230
H4 H 0.6818 0.4302 0.5955
N1 N 0.7783(11) 0.0532(7) 0.2943(6)
C1 C 0.7473(13) 0.0662(7) 0.2055(7)
H7 H 0.6722 0.0363 0.1949
H8 H 0.8073 0.0354 0.1730
C2 C 0.6911(14) 0.0971(10) 0.3492(7)
H9 H 0.6126 0.0914 0.3249
H10 H 0.7095 0.1609 0.3527
C3 C 0.9003(13) 0.0789(10) 0.3146(9)
H11 H 0.9147 0.0670 0.3727
H12 H 0.9101 0.1431 0.3055
C4 C 0.9927(13) 0.0272(9) 0.2625(9)
C9 C 0.5015(11) 0.2563(11) 0.4561(9)
C10 C 0.4542(10) 0.2338(9) 0.5433(8)
C11 C 0.7369(12) 0.1777(8) 0.7499(7)
C12 C 0.7519(12) 0.2767(8) 0.7635(8)
C13 C 0.5306(11) 0.2983(10) 0.0138(8)
Lu3 Lu 0.22703(4) 0.24730(3) 0.43189(3)
Lu4 Lu 0.75691(4) 0.19535(3) 0.94498(3)
Lu6 Lu 0.25691(4) 0.30465(3) 0.05502(3)
O21 O 0.9261(7) 0.2380(9) 0.6015(5)
O22 O 0.8476(7) 0.2792(7) 0.4513(6)
O16 O 0.6327(8) 0.3154(6) 0.9928(6)
O17 O 0.5570(7) 0.1522(6) 0.9553(7)
C14 C 0.4846(11) 0.2042(12) 0.9940(9)
O20 O 0.7542(9) 0.0406(5) 0.9519(5)
O25 O 0.9576(7) 0.1521(6) 0.9495(7)
O26 O 0.8792(8) 0.3168(7) 0.9882(6)
O4 O 0.7458(9) 0.9594(5) 0.4519(5)
H2 H 0.5340 0.9882 0.4713
H5 H 0.7726 0.9930 0.3042
Lu5 Lu 0.74309(4) 0.80465(3) 0.44498(3)
O9_2 O 0.1524(7) 0.7792(7) 0.0487(6)
C10_2 C 0.0458(10) 0.7662(9) 0.0433(8)
O8_2 O 0.0739(7) 0.7380(9) 0.8985(5)
O15_2 O 0.0424(7) 0.6521(6) 0.5505(7)
O18_2 O 0.1208(8) 0.8168(7) 0.5118(6)
C14_2 C 0.0154(11) 0.7958(12) 0.4940(9)
Lu3_2 Lu 0.27297(4) 0.75270(3) 0.93189(3)
Lu6_2 Lu 0.24309(4) 0.69535(3) 0.55502(3)
H2_2 H 0.9660 0.0118 0.9713
H5_2 H 0.7274 0.0070 0.8042
N2_2 N 0.3876(12) 0.1007(9) 0.7403(9)
H6_2 H 0.3629 0.1521 0.7577
C7_2 C 0.3480(15) 0.0681(12) 0.6694(10)
H15_2 H 0.2970 0.1019 0.6365
C8_2 C 0.4703(13) 0.0527(11) 0.7885(10)
H16_2 H 0.4996 0.0771 0.8374
Lu1_2 Lu 0.77297(4) 0.74730(3) 0.06811(3)
O5_2 O 0.7593(10) 0.8844(5) 0.0137(5)
O10_2 O 0.9710(8) 0.7649(8) 0.1000(6)
O11_2 O 0.7754(10) 0.8499(5) 0.1771(5)
O12_2 O 0.7645(11) 0.8695(5) 0.3146(5)
O13_2 O 0.7337(10) 0.6979(6) 0.3351(5)
O14_2 O 0.7521(11) 0.6743(5) 0.1982(5)
O19_2 O 0.8128(12) 0.5953(7) 0.0490(7)
H3_2 H 0.7559 0.5716 0.0230
H4_2 H 0.8182 0.5698 0.0955
C11_2 C 0.7631(12) 0.8223(8) 0.2499(7)
C12_2 C 0.7481(12) 0.7233(8) 0.2635(8)
O21_2 O 0.5739(7) 0.7620(9) 0.1015(5)
P1_2 P 0.7614(4) 0.8185(2) 0.66681(19)
P2_2 P 0.8122(3) 0.9505(2) 0.9548(2)
O1_2 O 0.6792(11) 0.7610(7) 0.7158(7)
O2_2 O 0.7366(10) 0.8278(6) 0.5786(5)
O3_2 O 0.8960(11) 0.7935(9) 0.6739(8)
H1_2 H 0.9040 0.7512 0.7059
O6_2 O 0.9458(11) 0.9588(8) 0.9744(8)
O7_2 O 0.8887(7) 0.7313(7) 0.9488(7)
O16_2 O 0.8673(8) 0.6846(6) 0.4928(6)
O17_2 O 0.9430(7) 0.8478(6) 0.4553(7)
N1_2 N 0.7217(11) 0.9468(7) 0.7943(6)
C1_2 C 0.7527(13) 0.9338(7) 0.7055(7)
H7_2 H 0.8278 0.9637 0.6949
H8_2 H 0.6927 0.9646 0.6730
C2_2 C 0.8089(14) 0.9029(10) 0.8492(7)
H9_2 H 0.8874 0.9086 0.8249
H10_2 H 0.7905 0.8391 0.8527
C3_2 C 0.5997(13) 0.9211(10) 0.8146(9)
H11_2 H 0.5853 0.9330 0.8727
H12_2 H 0.5899 0.8569 0.8055
C4_2 C 0.5073(13) 0.9728(9) 0.7625(9)
C5_2 C 0.4606(14) 0.9353(11) 0.6904(10)
H13_2 H 0.4828 0.8777 0.6737
C6_2 C 0.3831(19) 0.9838(14) 0.6451(12)
H14_2 H 0.3528 0.9595 0.5965
C9_2 C 0.9985(11) 0.7437(11) 0.9561(9)
C13_2 C 0.9694(11) 0.7017(10) 0.5138(8)
O22_2 O 0.6524(7) 0.7208(7) 0.9513(6)
O25_2 O 0.5424(7) 0.8479(6) 0.4495(7)
O26_2 O 0.6208(8) 0.6832(7) 0.4882(6)
P1_3 P 0.2614(4) 0.6815(2) 0.33319(19)
P2_3 P 0.3122(3) 0.5495(2) 0.0452(2)
O1_3 O 0.1792(11) 0.7390(7) 0.2842(7)
O2_3 O 0.2366(10) 0.6722(6) 0.4214(5)
O3_3 O 0.3960(11) 0.7065(9) 0.3261(8)
H1_3 H 0.4040 0.7488 0.2941
O4_2 O 0.2542(9) 0.4594(5) 0.0481(5)
O6_3 O 0.4458(11) 0.5412(8) 0.0256(8)
H2_3 H 0.4660 0.4882 0.0287
O7_3 O 0.3887(7) 0.7687(7) 0.0512(7)
O16_3 O 0.3673(8) 0.8154(6) 0.5072(6)
O17_3 O 0.4430(7) 0.6522(6) 0.5447(7)
N1_3 N 0.2217(11) 0.5532(7) 0.2057(6)
H5_3 H 0.2274 0.4930 0.1958
C1_3 C 0.2527(13) 0.5662(7) 0.2945(7)
H7_3 H 0.3278 0.5363 0.3051
H8_3 H 0.1927 0.5354 0.3270
C2_3 C 0.3089(14) 0.5971(10) 0.1508(7)
H9_3 H 0.3874 0.5914 0.1751
H10_3 H 0.2905 0.6609 0.1473
C3_3 C 0.0997(13) 0.5789(10) 0.1854(9)
H11_3 H 0.0853 0.5670 0.1273
H12_3 H 0.0899 0.6431 0.1945
C4_3 C 0.0073(13) 0.5272(9) 0.2375(9)
C9_3 C 0.4985(11) 0.7563(11) 0.0439(9)
C13_3 C 0.4694(11) 0.7983(10) 0.4862(8)
C14_3 C 0.5154(11) 0.7042(12) 0.5060(9)
O20_2 O 0.2458(9) 0.5406(5) 0.5481(5)
O23 O 0.2645(11) 0.6305(5) 0.6854(5)
O24 O 0.2337(10) 0.8021(6) 0.6649(5)
O5_3 O 0.2593(10) 0.6156(5) 0.9863(5)
O10_3 O 0.4710(8) 0.7351(8) 0.9000(6)
O11_3 O 0.2754(10) 0.6501(5) 0.8229(5)
O14_3 O 0.2521(11) 0.8257(5) 0.8018(5)
O19_3 O 0.3128(12) 0.9047(7) 0.9510(7)
H3_3 H 0.2559 0.9284 0.9770
H4_3 H 0.3182 0.9302 0.9045
C10_3 C 0.5458(10) 0.7338(9) 0.9567(8)
C11_3 C 0.2631(12) 0.6777(8) 0.7501(7)
C12_3 C 0.2481(12) 0.7767(8) 0.7365(8)
O16_4 O 0.1327(8) 0.1846(6) 0.0072(6)
O17_4 O 0.0570(7) 0.3478(6) 0.0447(7)
O23_2 O 0.2355(11) 0.3695(5) 0.1854(5)
O24_2 O 0.2663(10) 0.1979(6) 0.1649(5)
P1_4 P 0.2386(4) 0.3185(2) 0.83319(19)
P2_4 P 0.1878(3) 0.4505(2) 0.5452(2)
O1_4 O 0.3208(11) 0.2610(7) 0.7842(7)
O2_4 O 0.2634(10) 0.3278(6) 0.9214(5)
O3_4 O 0.1040(11) 0.2935(9) 0.8261(8)
H1_4 H 0.0960 0.2512 0.7941
O5_4 O 0.2407(10) 0.3844(5) 0.4863(5)
O6_4 O 0.0542(11) 0.4588(8) 0.5256(8)
H2_4 H 0.0340 0.5118 0.5287
O7_4 O 0.1113(7) 0.2313(7) 0.5512(7)
O10_4 O 0.0290(8) 0.2649(8) 0.4000(6)
O11_4 O 0.2246(10) 0.3499(5) 0.3229(5)
O14_4 O 0.2479(11) 0.1743(5) 0.3018(5)
O19_4 O 0.1872(12) 0.0953(7) 0.4510(7)
H3_4 H 0.2441 0.0716 0.4770
H4_4 H 0.1818 0.0698 0.4045
N1_4 N 0.2783(11) 0.4468(7) 0.7057(6)
H5_4 H 0.2726 0.5070 0.6958
N2_3 N 0.6124(12) 0.6007(9) 0.7597(9)
H6_3 H 0.6371 0.6521 0.7423
C1_4 C 0.2473(13) 0.4338(7) 0.7945(7)
H7_4 H 0.1722 0.4637 0.8051
H8_4 H 0.3073 0.4646 0.8270
C2_4 C 0.1911(14) 0.4029(10) 0.6508(7)
H9_4 H 0.1126 0.4086 0.6751
H10_4 H 0.2095 0.3391 0.6473
C3_4 C 0.4003(13) 0.4211(10) 0.6854(9)
H11_4 H 0.4147 0.4330 0.6273
H12_4 H 0.4101 0.3569 0.6945
C4_4 C 0.4927(13) 0.4728(9) 0.7375(9)
C5_3 C 0.5394(14) 0.4353(11) 0.8096(10)
H13_3 H 0.5172 0.3777 0.8263
C6_3 C 0.6169(19) 0.4838(14) 0.8549(12)
H14_3 H 0.6472 0.4595 0.9035
C7_3 C 0.6520(15) 0.5681(12) 0.8306(10)
H15_3 H 0.7030 0.6019 0.8635
C8_3 C 0.5297(13) 0.5527(11) 0.7115(10)
H16_3 H 0.5004 0.5771 0.6626
C9_4 C 0.0015(11) 0.2437(11) 0.5439(9)
C11_4 C 0.2369(12) 0.3223(8) 0.2501(7)
C12_4 C 0.2519(12) 0.2233(8) 0.2365(8)
C13_4 C 0.0306(11) 0.2017(10) 0.9862(8)
C10_4 C 0.9542(10) 0.2662(9) 0.4567(8)
N2_4 N 0.8876(12) 0.3993(9) 0.2597(9)
H6_4 H 0.8629 0.3479 0.2423
C5_4 C 0.9606(14) 0.5647(11) 0.3096(10)
H13_4 H 0.9828 0.6223 0.3263
C6_4 C 0.8831(19) 0.5162(14) 0.3549(12)
H14_4 H 0.8528 0.5405 0.4035
C7_4 C 0.8480(15) 0.4319(12) 0.3306(10)
H15_4 H 0.7970 0.3981 0.3635
C8_4 C 0.9703(13) 0.4473(11) 0.2115(10)
H16_4 H 0.9996 0.4229 0.1626
C14_4 C 0.9846(11) 0.2958(12) 0.0060(9)
loop_
_geom_bond_atom_site_label_1
_geom_bond_atom_site_label_2
_geom_bond_site_symmetry_1
_geom_bond_site_symmetry_2
H13 C5 1_555 1_555
C6 C5 1_555 1_555
H14 C6 1_555 1_555
N2 H6 1_555 1_555
C7 N2 1_555 1_555
H15 C7 1_555 1_555
C8 N2 1_555 1_555
H16 C8 1_555 1_555
Lu1 O5 1_555 1_555
P1 O1 1_555 1_555
O2 P1 1_555 1_555
O3 P1 1_555 1_555
H1 O3 1_555 1_555
O5 P2 1_555 1_555
O6 P2 1_555 1_555
O7 Lu1 1_555 1_555
O8 C9 1_555 1_555
O9 C10 1_555 1_555
O10 Lu1 1_555 1_555
O11 Lu1 1_555 1_555
O12 C11 1_555 1_555
O13 C12 1_555 1_555
O14 Lu1 1_555 1_555
O15 C13 1_555 1_555
O19 Lu1 1_555 1_555
H3 O19 1_555 1_555
H4 O19 1_555 1_555
C1 P1 1_555 1_555
H7 C1 1_555 1_555
H8 C1 1_555 1_555
C2 P2 1_555 1_555
H9 C2 1_555 1_555
H10 C2 1_555 1_555
C3 N1 1_555 1_555
H11 C3 1_555 1_555
H12 C3 1_555 1_555
C4 C3 1_555 1_555
C9 O7 1_555 1_555
C10 O10 1_555 1_555
C11 O11 1_555 1_555
C12 O14 1_555 1_555
Lu3 O8 1_555 1_555
Lu4 O12 1_555 1_555
Lu6 O15 1_555 1_555
O21 Lu1 1_555 1_555
O22 Lu1 1_555 1_555
O9 Lu3 1_555 1_555
O13 Lu4 1_555 1_555
O18 Lu6 1_555 1_555
N1 C1 1_555 1_555
N1 C2 1_555 1_555
C9 C10 1_555 1_555
C11 C12 1_555 1_555
O16 Lu4 1_555 1_555
O17 Lu4 1_555 1_555
C14 O17 1_555 1_555
O20 Lu4 1_555 1_555
O25 Lu4 1_555 1_555
O26 Lu4 1_555 1_555
O4 Lu5 1_555 1_555
O9_2 C10_2 1_555 1_555
O18_2 C14_2 1_555 1_555
Lu3_2 O8_2 1_555 1_555
Lu6_2 O15_2 1_555 1_555
O18_2 Lu6_2 1_555 1_555
N2_2 H6_2 1_555 1_555
C7_2 N2_2 1_555 1_555
H15_2 C7_2 1_555 1_555
C8_2 N2_2 1_555 1_555
H16_2 C8_2 1_555 1_555
Lu1_2 O5_2 1_555 1_555
O10_2 Lu1_2 1_555 1_555
O11_2 Lu1_2 1_555 1_555
O12_2 C11_2 1_555 1_555
O13_2 C12_2 1_555 1_555
O14_2 Lu1_2 1_555 1_555
O19_2 Lu1_2 1_555 1_555
H3_2 O19_2 1_555 1_555
H4_2 O19_2 1_555 1_555
C11_2 O11_2 1_555 1_555
C12_2 O14_2 1_555 1_555
Lu5 O12_2 1_555 1_555
O21_2 Lu1_2 1_555 1_555
O13_2 Lu5 1_555 1_555
C11_2 C12_2 1_555 1_555
Lu5 O2_2 1_555 1_555
P1_2 O1_2 1_555 1_555
O2_2 P1_2 1_555 1_555
O3_2 P1_2 1_555 1_555
H1_2 O3_2 1_555 1_555
O6_2 P2_2 1_555 1_555
O16_2 Lu5 1_555 1_555
O17_2 Lu5 1_555 1_555
C1_2 P1_2 1_555 1_555
H7_2 C1_2 1_555 1_555
H8_2 C1_2 1_555 1_555
C2_2 P2_2 1_555 1_555
H9_2 C2_2 1_555 1_555
H10_2 C2_2 1_555 1_555
C3_2 N1_2 1_555 1_555
H11_2 C3_2 1_555 1_555
H12_2 C3_2 1_555 1_555
C4_2 C3_2 1_555 1_555
C5_2 C4_2 1_555 1_555
H13_2 C5_2 1_555 1_555
C6_2 C5_2 1_555 1_555
H14_2 C6_2 1_555 1_555
C9_2 O7_2 1_555 1_555
C13_2 O16_2 1_555 1_555
O25_2 Lu5 1_555 1_555
O26_2 Lu5 1_555 1_555
N1_2 C1_2 1_555 1_555
N1_2 C2_2 1_555 1_555
Lu6_2 O2_3 1_555 1_555
P1_3 O1_3 1_555 1_555
P2_3 O4_2 1_555 1_555
O2_3 P1_3 1_555 1_555
O3_3 P1_3 1_555 1_555
H1_3 O3_3 1_555 1_555
O4_2 Lu6 1_555 1_555
O6_3 P2_3 1_555 1_555
H2_3 O6_3 1_555 1_555
O21_2 C9_3 1_555 1_555
O25_2 C13_3 1_555 1_555
O16_3 Lu6_2 1_555 1_555
O17_3 Lu6_2 1_555 1_555
O26_2 C14_3 1_555 1_555
N1_3 H5_3 1_555 1_555
C1_3 P1_3 1_555 1_555
H7_3 C1_3 1_555 1_555
H8_3 C1_3 1_555 1_555
C2_3 P2_3 1_555 1_555
H9_3 C2_3 1_555 1_555
H10_3 C2_3 1_555 1_555
C3_3 N1_3 1_555 1_555
H11_3 C3_3 1_555 1_555
H12_3 C3_3 1_555 1_555
C4_3 C3_3 1_555 1_555
C9_3 O7_3 1_555 1_555
C13_3 O16_3 1_555 1_555
C14_3 O17_3 1_555 1_555
O20_2 Lu6_2 1_555 1_555
O23 Lu6_2 1_555 1_555
O24 Lu6_2 1_555 1_555
N1_3 C1_3 1_555 1_555
N1_3 C2_3 1_555 1_555
C13_3 C14_3 1_555 1_555
Lu3_2 O5_3 1_555 1_555
O22_2 C10_3 1_555 1_555
O10_3 Lu3_2 1_555 1_555
O11_3 Lu3_2 1_555 1_555
O23 C11_3 1_555 1_555
O24 C12_3 1_555 1_555
O14_3 Lu3_2 1_555 1_555
O19_3 Lu3_2 1_555 1_555
H3_3 O19_3 1_555 1_555
H4_3 O19_3 1_555 1_555
C10_3 O10_3 1_555 1_555
C11_3 O11_3 1_555 1_555
C12_3 O14_3 1_555 1_555
C11_3 C12_3 1_555 1_555
O16_4 Lu6 1_555 1_555
O17_4 Lu6 1_555 1_555
O23_2 Lu6 1_555 1_555
O24_2 Lu6 1_555 1_555
Lu3 O5_4 1_555 1_555
P1_4 O1_4 1_555 1_555
P2_4 O20_2 1_555 1_555
O2_4 P1_4 1_555 1_555
O3_4 P1_4 1_555 1_555
H1_4 O3_4 1_555 1_555
O5_4 P2_4 1_555 1_555
O6_4 P2_4 1_555 1_555
H2_4 O6_4 1_555 1_555
O7_4 Lu3 1_555 1_555
O10_4 Lu3 1_555 1_555
O11_4 Lu3 1_555 1_555
O23_2 C11_4 1_555 1_555
O24_2 C12_4 1_555 1_555
O14_4 Lu3 1_555 1_555
O19_4 Lu3 1_555 1_555
H3_4 O19_4 1_555 1_555
H4_4 O19_4 1_555 1_555
N1_4 H5_4 1_555 1_555
N2_3 H6_3 1_555 1_555
C1_4 P1_4 1_555 1_555
H7_4 C1_4 1_555 1_555
H8_4 C1_4 1_555 1_555
C2_4 P2_4 1_555 1_555
H9_4 C2_4 1_555 1_555
H10_4 C2_4 1_555 1_555
C3_4 N1_4 1_555 1_555
H11_4 C3_4 1_555 1_555
H12_4 C3_4 1_555 1_555
C4_4 C3_4 1_555 1_555
C5_3 C4_4 1_555 1_555
H13_3 C5_3 1_555 1_555
C6_3 C5_3 1_555 1_555
H14_3 C6_3 1_555 1_555
C7_3 N2_3 1_555 1_555
H15_3 C7_3 1_555 1_555
C8_3 N2_3 1_555 1_555
H16_3 C8_3 1_555 1_555
C9_4 O7_4 1_555 1_555
C11_4 O11_4 1_555 1_555
C12_4 O14_4 1_555 1_555
N1_4 C1_4 1_555 1_555
N1_4 C2_4 1_555 1_555
C4_4 C8_3 1_555 1_555
C6_3 C7_3 1_555 1_555
C11_4 C12_4 1_555 1_555
O22 C10_4 1_555 1_555
N2_4 H6_4 1_555 1_555
H13_4 C5_4 1_555 1_555
C6_4 C5_4 1_555 1_555
H14_4 C6_4 1_555 1_555
C7_4 N2_4 1_555 1_555
H15_4 C7_4 1_555 1_555
C8_4 N2_4 1_555 1_555
H16_4 C8_4 1_555 1_555
C6_4 C7_4 1_555 1_555

#END
