
###############################################################################
#
# This file contains modified crystal structure data generated from the
# MOF subset of the Cambridge Structural Database (CSD) v543 
# hosted by the Cambridge Crystallographic Data Centre (CCDC).
#
# This work is licensed under the Creative Commons
# Attribution-NonCommercial-ShareAlike 4.0 International License.
# To view a copy of this license, visit
# http://creativecommons.org/licenses/by-nc-sa/4.0/
# or send a letter to
# Creative Commons, PO Box 1866, Mountain View, CA 94042, USA.
#
# CIF created using the CSD Python API on 29 September 2022
# The structure has been converted into the P1 space group
# The structure has a 3D framework
# The original CSD entry QUVFAP is in the orthorhombic crystal system
# The original CSD entry QUVFAP is in a Sohncke space group
# The framework has been calculated to contain at least 10.0% void space
# The void calculation uses a probe of radius 1.32A, grid spacing 0.4
#
###############################################################################

data_QUVFAP
_chemical_formula_moiety         '(C56 H64 Er8 N8 O70 P8)n'
_symmetry_cell_setting           triclinic
_symmetry_space_group_name_H-M   'P 1'
_symmetry_Int_Tables_number      1
_space_group_name_Hall           'P 1'
loop_
_symmetry_equiv_pos_site_id
_symmetry_equiv_pos_as_xyz
1 x,y,z
_cell_length_a                   11.3656(8)
_cell_length_b                   14.8449(11)
_cell_length_c                   16.3071(12)
_cell_angle_alpha                90
_cell_angle_beta                 90
_cell_angle_gamma                90
_cell_volume                     2751.35
loop_
_atom_site_label
_atom_site_type_symbol
_atom_site_fract_x
_atom_site_fract_y
_atom_site_fract_z
C5 C 0.0287(12) 0.0634(11) 0.1950(8)
H13 H 0.0035 0.1198 0.1775
C6 C 0.1095(15) 0.0157(12) 0.1482(10)
H14 H 0.1408 0.0407 0.1007
N2 N 0.1043(11) 0.8998(8) 0.2419(8)
H6 H 0.1301 0.8479 0.2569
C7 C 0.1407(15) 0.9352(12) 0.1720(9)
H15 H 0.1904 0.9015 0.1386
C8 C 0.0256(12) 0.9450(10) 0.2907(9)
Er1 Er 0.72355(4) 0.25482(3) 0.56867(3)
P1 P 0.7423(3) 0.1821(2) 0.16719(16)
P2 P 0.6795(3) 0.0517(2) 0.45328(18)
O1 O 0.8217(10) 0.2382(7) 0.2169(6)
O2 O 0.7705(9) 0.1707(6) 0.0795(5)
O3 O 0.6099(10) 0.2100(8) 0.1709(7)
H1 H 0.6019 0.2522 0.2028
O5 O 0.7311(11) 0.1159(5) 0.5131(5)
O6 O 0.5447(9) 0.0431(9) 0.4706(8)
O7 O 0.6063(7) 0.2737(7) 0.4500(6)
O8 O 0.4224(7) 0.2647(8) 0.3997(5)
O9 O 0.3451(7) 0.2229(6) 0.5481(5)
O10 O 0.5254(8) 0.2366(7) 0.5994(5)
O11 O 0.7210(9) 0.1491(5) 0.6775(5)
O12 O 0.7382(9) 0.1306(5) 0.8138(4)
O13 O 0.7730(9) 0.3037(6) 0.8346(4)
O14 O 0.7495(8) 0.3267(5) 0.6988(4)
O15 O 0.4692(7) 0.3496(6) 0.0487(6)
O18 O 0.3902(7) 0.1841(6) 0.0132(5)
O19 O 0.6864(11) 0.4080(7) 0.5505(7)
H3 H 0.7433 0.4318 0.5245
H4 H 0.6810 0.4336 0.5970
N1 N 0.7757(10) 0.0541(6) 0.2956(5)
C1 C 0.7469(10) 0.0682(8) 0.2064(6)
H7 H 0.6707 0.0410 0.1961
H8 H 0.8042 0.0351 0.1744
C2 C 0.6869(12) 0.0996(10) 0.3487(7)
H9 H 0.6101 0.0945 0.3232
H10 H 0.7061 0.1631 0.3525
C3 C 0.8964(12) 0.0776(9) 0.3179(8)
H11 H 0.9094 0.0627 0.3751
H12 H 0.9071 0.1421 0.3116
C4 C 0.9861(12) 0.0288(9) 0.2657(8)
C9 C 0.4981(10) 0.2599(9) 0.4575(7)
C10 C 0.4504(11) 0.2371(10) 0.5439(7)
C11 C 0.7378(11) 0.1773(7) 0.7488(7)
C12 C 0.7548(11) 0.2774(8) 0.7624(7)
C13 C 0.5393(11) 0.2993(9) 0.0143(7)
Er3 Er 0.22355(4) 0.24518(3) 0.43133(3)
Er4 Er 0.76594(5) 0.19508(3) 0.94510(3)
Er6 Er 0.26594(5) 0.30492(3) 0.05490(3)
O21 O 0.9224(7) 0.2353(8) 0.6003(5)
O22 O 0.8451(7) 0.2771(6) 0.4519(5)
O16 O 0.6411(8) 0.3166(6) 0.9932(5)
O17 O 0.5646(7) 0.1519(6) 0.9559(6)
C14 C 0.4938(11) 0.2038(9) 0.9934(7)
O20 O 0.7634(7) 0.0393(5) 0.9502(4)
O25 O 0.9692(7) 0.1504(6) 0.9513(6)
O26 O 0.8902(7) 0.3159(6) 0.9868(5)
O4 O 0.7366(7) 0.9607(5) 0.4502(4)
H2 H 0.5251 0.9901 0.4674
H5 H 0.7681 0.9940 0.3052
H16 H 0.9994 0.9199 0.3397
Er5 Er 0.73406(5) 0.80492(3) 0.44510(3)
O9_2 O 0.1549(7) 0.7771(6) 0.0481(5)
C10_2 C 0.0496(11) 0.7629(10) 0.0439(7)
O8_2 O 0.0776(7) 0.7353(8) 0.8997(5)
O15_2 O 0.0308(7) 0.6504(6) 0.5487(6)
O18_2 O 0.1098(7) 0.8159(6) 0.5132(5)
C9_2 C 0.0019(10) 0.7401(9) 0.9575(7)
C14_2 C 0.0062(11) 0.7962(9) 0.4934(7)
Er3_2 Er 0.27645(4) 0.75482(3) 0.93133(3)
Er6_2 Er 0.23406(5) 0.69508(3) 0.55490(3)
H2_2 H 0.9749 0.0099 0.9674
H5_2 H 0.7319 0.0060 0.8052
N2_2 N 0.3957(11) 0.1002(8) 0.7419(8)
H6_2 H 0.3699 0.1521 0.7569
C7_2 C 0.3593(15) 0.0648(12) 0.6720(9)
H15_2 H 0.3096 0.0985 0.6386
C8_2 C 0.4744(12) 0.0550(10) 0.7907(9)
H16_2 H 0.5006 0.0801 0.8397
Er1_2 Er 0.77645(4) 0.74518(3) 0.06867(3)
O5_2 O 0.7689(11) 0.8841(5) 0.0131(5)
O10_2 O 0.9746(8) 0.7634(7) 0.0994(5)
O11_2 O 0.7790(9) 0.8509(5) 0.1775(5)
O12_2 O 0.7618(9) 0.8694(5) 0.3138(4)
O13_2 O 0.7270(9) 0.6963(6) 0.3346(4)
O14_2 O 0.7505(8) 0.6733(5) 0.1988(4)
O19_2 O 0.8136(11) 0.5920(7) 0.0505(7)
H3_2 H 0.7567 0.5682 0.0245
H4_2 H 0.8190 0.5664 0.0970
C11_2 C 0.7622(11) 0.8227(7) 0.2488(7)
C12_2 C 0.7452(11) 0.7226(8) 0.2624(7)
O21_2 O 0.5776(7) 0.7647(8) 0.1003(5)
P1_2 P 0.7577(3) 0.8179(2) 0.66719(16)
P2_2 P 0.8205(3) 0.9483(2) 0.95328(18)
O1_2 O 0.6783(10) 0.7618(7) 0.7169(6)
O2_2 O 0.7295(9) 0.8293(6) 0.5795(5)
O3_2 O 0.8901(10) 0.7900(8) 0.6709(7)
H1_2 H 0.8981 0.7478 0.7028
O6_2 O 0.9553(9) 0.9569(9) 0.9706(8)
O7_2 O 0.8937(7) 0.7263(7) 0.9500(6)
O16_2 O 0.8589(8) 0.6834(6) 0.4932(5)
O17_2 O 0.9354(7) 0.8481(6) 0.4559(6)
N1_2 N 0.7243(10) 0.9459(6) 0.7956(5)
C1_2 C 0.7531(10) 0.9318(8) 0.7064(6)
H7_2 H 0.8293 0.9590 0.6961
H8_2 H 0.6958 0.9649 0.6744
C2_2 C 0.8131(12) 0.9004(10) 0.8487(7)
H9_2 H 0.8899 0.9055 0.8232
H10_2 H 0.7939 0.8369 0.8525
C3_2 C 0.6036(12) 0.9224(9) 0.8179(8)
H11_2 H 0.5906 0.9373 0.8751
H12_2 H 0.5929 0.8579 0.8116
C4_2 C 0.5139(12) 0.9712(9) 0.7657(8)
C5_2 C 0.4713(12) 0.9366(11) 0.6950(8)
H13_2 H 0.4965 0.8802 0.6775
C6_2 C 0.3905(15) 0.9843(12) 0.6482(10)
H14_2 H 0.3592 0.9593 0.6007
C13_2 C 0.9607(11) 0.7007(9) 0.5143(7)
O22_2 O 0.6549(7) 0.7229(6) 0.9519(5)
O25_2 O 0.5308(7) 0.8496(6) 0.4513(6)
O26_2 O 0.6098(7) 0.6841(6) 0.4868(5)
P1_3 P 0.2577(3) 0.6821(2) 0.33281(16)
P2_3 P 0.3205(3) 0.5517(2) 0.04672(18)
O1_3 O 0.1783(10) 0.7382(7) 0.2831(6)
O2_3 O 0.2295(9) 0.6707(6) 0.4205(5)
O3_3 O 0.3901(10) 0.7100(8) 0.3291(7)
H1_3 H 0.3981 0.7522 0.2972
O4_2 O 0.2634(7) 0.4607(5) 0.0498(4)
O6_3 O 0.4553(9) 0.5431(9) 0.0294(8)
H2_3 H 0.4749 0.4901 0.0326
O7_3 O 0.3937(7) 0.7737(7) 0.0500(6)
O16_3 O 0.3589(8) 0.8166(6) 0.5068(5)
O17_3 O 0.4354(7) 0.6519(6) 0.5441(6)
N1_3 N 0.2243(10) 0.5541(6) 0.2044(5)
H5_3 H 0.2319 0.4940 0.1948
C1_3 C 0.2531(10) 0.5682(8) 0.2936(6)
H7_3 H 0.3293 0.5410 0.3039
H8_3 H 0.1958 0.5351 0.3256
C2_3 C 0.3131(12) 0.5996(10) 0.1513(7)
H9_3 H 0.3899 0.5945 0.1768
H10_3 H 0.2939 0.6631 0.1475
C3_3 C 0.1036(12) 0.5776(9) 0.1821(8)
H11_3 H 0.0906 0.5627 0.1249
H12_3 H 0.0929 0.6421 0.1884
C4_3 C 0.0139(12) 0.5288(9) 0.2343(8)
H16_3 H 0.0006 0.4199 0.1603
C9_3 C 0.5019(10) 0.7599(9) 0.0425(7)
C13_3 C 0.4607(11) 0.7993(9) 0.4857(7)
C14_3 C 0.5062(11) 0.7038(9) 0.5066(7)
O20_2 O 0.2366(7) 0.5393(5) 0.5498(4)
O23 O 0.2618(9) 0.6306(5) 0.6862(4)
O24 O 0.2270(9) 0.8037(6) 0.6654(4)
O5_3 O 0.2689(11) 0.6159(5) 0.9869(5)
O10_3 O 0.4746(8) 0.7366(7) 0.9006(5)
O11_3 O 0.2790(9) 0.6491(5) 0.8225(5)
O14_3 O 0.2505(8) 0.8267(5) 0.8012(4)
O19_3 O 0.3136(11) 0.9080(7) 0.9495(7)
H3_3 H 0.2567 0.9318 0.9755
H4_3 H 0.3190 0.9336 0.9030
C10_3 C 0.5496(11) 0.7371(10) 0.9561(7)
C11_3 C 0.2622(11) 0.6773(7) 0.7512(7)
C12_3 C 0.2452(11) 0.7774(8) 0.7376(7)
O16_4 O 0.1411(8) 0.1834(6) 0.0068(5)
O17_4 O 0.0646(7) 0.3481(6) 0.0441(6)
O23_2 O 0.2382(9) 0.3694(5) 0.1862(4)
O24_2 O 0.2730(9) 0.1963(6) 0.1654(4)
P1_4 P 0.2423(3) 0.3179(2) 0.83281(16)
P2_4 P 0.1795(3) 0.4483(2) 0.54672(18)
O1_4 O 0.3217(10) 0.2618(7) 0.7831(6)
O2_4 O 0.2705(9) 0.3293(6) 0.9205(5)
O3_4 O 0.1099(10) 0.2900(8) 0.8291(7)
H1_4 H 0.1019 0.2478 0.7972
O5_4 O 0.2311(11) 0.3841(5) 0.4869(5)
O6_4 O 0.0447(9) 0.4569(9) 0.5294(8)
H2_4 H 0.0251 0.5099 0.5326
O7_4 O 0.1063(7) 0.2263(7) 0.5500(6)
O10_4 O 0.0254(8) 0.2634(7) 0.4006(5)
O11_4 O 0.2210(9) 0.3509(5) 0.3225(5)
O14_4 O 0.2495(8) 0.1733(5) 0.3012(4)
O19_4 O 0.1864(11) 0.0920(7) 0.4495(7)
H3_4 H 0.2433 0.0682 0.4755
H4_4 H 0.1810 0.0664 0.4030
N1_4 N 0.2757(10) 0.4459(6) 0.7044(5)
H5_4 H 0.2681 0.5060 0.6948
N2_3 N 0.6043(11) 0.6002(8) 0.7581(8)
H6_3 H 0.6301 0.6521 0.7431
C1_4 C 0.2469(10) 0.4318(8) 0.7936(6)
H7_4 H 0.1707 0.4590 0.8039
H8_4 H 0.3042 0.4649 0.8256
C2_4 C 0.1869(12) 0.4004(10) 0.6513(7)
H9_4 H 0.1101 0.4055 0.6768
H10_4 H 0.2061 0.3369 0.6475
C3_4 C 0.3964(12) 0.4224(9) 0.6821(8)
H11_4 H 0.4094 0.4373 0.6249
H12_4 H 0.4071 0.3579 0.6884
C4_4 C 0.4861(12) 0.4712(9) 0.7343(8)
C5_3 C 0.5287(12) 0.4366(11) 0.8050(8)
H13_3 H 0.5035 0.3802 0.8225
C6_3 C 0.6095(15) 0.4843(12) 0.8518(10)
H14_3 H 0.6408 0.4593 0.8993
C7_3 C 0.6407(15) 0.5648(12) 0.8280(9)
H15_3 H 0.6904 0.5985 0.8614
C8_3 C 0.5256(12) 0.5550(10) 0.7093(9)
H16_4 H 0.4994 0.5801 0.6603
C11_4 C 0.2378(11) 0.3227(7) 0.2512(7)
C12_4 C 0.2548(11) 0.2226(8) 0.2376(7)
C13_4 C 0.0393(11) 0.2007(9) 0.9857(7)
C9_4 C 0.9981(10) 0.2401(9) 0.5425(7)
C10_4 C 0.9504(11) 0.2629(10) 0.4561(7)
N2_4 N 0.8957(11) 0.3998(8) 0.2581(8)
H6_4 H 0.8699 0.3479 0.2431
C5_4 C 0.9713(12) 0.5634(11) 0.3050(8)
H13_4 H 0.9965 0.6198 0.3225
C6_4 C 0.8905(15) 0.5157(12) 0.3518(10)
H14_4 H 0.8592 0.5407 0.3993
C7_4 C 0.8593(15) 0.4352(12) 0.3280(9)
H15_4 H 0.8096 0.4015 0.3614
C8_4 C 0.9744(12) 0.4450(10) 0.2093(9)
C14_4 C 0.9938(11) 0.2962(9) 0.0066(7)
loop_
_geom_bond_atom_site_label_1
_geom_bond_atom_site_label_2
_geom_bond_site_symmetry_1
_geom_bond_site_symmetry_2
H13 C5 1_555 1_555
C6 C5 1_555 1_555
H14 C6 1_555 1_555
N2 H6 1_555 1_555
C7 N2 1_555 1_555
H15 C7 1_555 1_555
C8 N2 1_555 1_555
Er1 O5 1_555 1_555
P1 O1 1_555 1_555
O2 P1 1_555 1_555
O3 P1 1_555 1_555
H1 O3 1_555 1_555
O5 P2 1_555 1_555
O6 P2 1_555 1_555
O7 Er1 1_555 1_555
O8 C9 1_555 1_555
O9 C10 1_555 1_555
O10 Er1 1_555 1_555
O11 Er1 1_555 1_555
O12 C11 1_555 1_555
O13 C12 1_555 1_555
O14 Er1 1_555 1_555
O15 C13 1_555 1_555
O19 Er1 1_555 1_555
H3 O19 1_555 1_555
H4 O19 1_555 1_555
C1 P1 1_555 1_555
H7 C1 1_555 1_555
H8 C1 1_555 1_555
C2 P2 1_555 1_555
H9 C2 1_555 1_555
H10 C2 1_555 1_555
C3 N1 1_555 1_555
H11 C3 1_555 1_555
H12 C3 1_555 1_555
C4 C3 1_555 1_555
C9 O7 1_555 1_555
C10 O10 1_555 1_555
C11 O11 1_555 1_555
C12 O14 1_555 1_555
Er3 O8 1_555 1_555
Er4 O12 1_555 1_555
Er6 O15 1_555 1_555
O21 Er1 1_555 1_555
O22 Er1 1_555 1_555
O9 Er3 1_555 1_555
O13 Er4 1_555 1_555
O18 Er6 1_555 1_555
N1 C1 1_555 1_555
N1 C2 1_555 1_555
C9 C10 1_555 1_555
C11 C12 1_555 1_555
O16 Er4 1_555 1_555
O17 Er4 1_555 1_555
C14 O17 1_555 1_555
O20 Er4 1_555 1_555
O25 Er4 1_555 1_555
O26 Er4 1_555 1_555
O4 Er5 1_555 1_555
O9_2 C10_2 1_555 1_555
O8_2 C9_2 1_555 1_555
O18_2 C14_2 1_555 1_555
Er3_2 O8_2 1_555 1_555
Er6_2 O15_2 1_555 1_555
O18_2 Er6_2 1_555 1_555
N2_2 H6_2 1_555 1_555
C7_2 N2_2 1_555 1_555
H15_2 C7_2 1_555 1_555
C8_2 N2_2 1_555 1_555
H16_2 C8_2 1_555 1_555
Er1_2 O5_2 1_555 1_555
O10_2 Er1_2 1_555 1_555
O11_2 Er1_2 1_555 1_555
O12_2 C11_2 1_555 1_555
O13_2 C12_2 1_555 1_555
O14_2 Er1_2 1_555 1_555
O19_2 Er1_2 1_555 1_555
H3_2 O19_2 1_555 1_555
H4_2 O19_2 1_555 1_555
C11_2 O11_2 1_555 1_555
C12_2 O14_2 1_555 1_555
Er5 O12_2 1_555 1_555
O21_2 Er1_2 1_555 1_555
O13_2 Er5 1_555 1_555
C11_2 C12_2 1_555 1_555
Er5 O2_2 1_555 1_555
P1_2 O1_2 1_555 1_555
O2_2 P1_2 1_555 1_555
O3_2 P1_2 1_555 1_555
H1_2 O3_2 1_555 1_555
O6_2 P2_2 1_555 1_555
O16_2 Er5 1_555 1_555
O17_2 Er5 1_555 1_555
C1_2 P1_2 1_555 1_555
H7_2 C1_2 1_555 1_555
H8_2 C1_2 1_555 1_555
C2_2 P2_2 1_555 1_555
H9_2 C2_2 1_555 1_555
H10_2 C2_2 1_555 1_555
C3_2 N1_2 1_555 1_555
H11_2 C3_2 1_555 1_555
H12_2 C3_2 1_555 1_555
C4_2 C3_2 1_555 1_555
C5_2 C4_2 1_555 1_555
H13_2 C5_2 1_555 1_555
C6_2 C5_2 1_555 1_555
H14_2 C6_2 1_555 1_555
C13_2 O16_2 1_555 1_555
O25_2 Er5 1_555 1_555
O26_2 Er5 1_555 1_555
N1_2 C1_2 1_555 1_555
N1_2 C2_2 1_555 1_555
Er6_2 O2_3 1_555 1_555
P1_3 O1_3 1_555 1_555
P2_3 O4_2 1_555 1_555
O2_3 P1_3 1_555 1_555
O3_3 P1_3 1_555 1_555
H1_3 O3_3 1_555 1_555
O4_2 Er6 1_555 1_555
O6_3 P2_3 1_555 1_555
H2_3 O6_3 1_555 1_555
O21_2 C9_3 1_555 1_555
O25_2 C13_3 1_555 1_555
O16_3 Er6_2 1_555 1_555
O17_3 Er6_2 1_555 1_555
O26_2 C14_3 1_555 1_555
N1_3 H5_3 1_555 1_555
C1_3 P1_3 1_555 1_555
H7_3 C1_3 1_555 1_555
H8_3 C1_3 1_555 1_555
C2_3 P2_3 1_555 1_555
H9_3 C2_3 1_555 1_555
H10_3 C2_3 1_555 1_555
C3_3 N1_3 1_555 1_555
H11_3 C3_3 1_555 1_555
H12_3 C3_3 1_555 1_555
C4_3 C3_3 1_555 1_555
C9_3 O7_3 1_555 1_555
C13_3 O16_3 1_555 1_555
C14_3 O17_3 1_555 1_555
O20_2 Er6_2 1_555 1_555
O23 Er6_2 1_555 1_555
O24 Er6_2 1_555 1_555
N1_3 C1_3 1_555 1_555
N1_3 C2_3 1_555 1_555
C13_3 C14_3 1_555 1_555
Er3_2 O5_3 1_555 1_555
O22_2 C10_3 1_555 1_555
O10_3 Er3_2 1_555 1_555
O11_3 Er3_2 1_555 1_555
O23 C11_3 1_555 1_555
O24 C12_3 1_555 1_555
O14_3 Er3_2 1_555 1_555
O19_3 Er3_2 1_555 1_555
H3_3 O19_3 1_555 1_555
H4_3 O19_3 1_555 1_555
C10_3 O10_3 1_555 1_555
C11_3 O11_3 1_555 1_555
C12_3 O14_3 1_555 1_555
C11_3 C12_3 1_555 1_555
O16_4 Er6 1_555 1_555
O17_4 Er6 1_555 1_555
O23_2 Er6 1_555 1_555
O24_2 Er6 1_555 1_555
Er3 O5_4 1_555 1_555
P1_4 O1_4 1_555 1_555
P2_4 O20_2 1_555 1_555
O2_4 P1_4 1_555 1_555
O3_4 P1_4 1_555 1_555
H1_4 O3_4 1_555 1_555
O5_4 P2_4 1_555 1_555
O6_4 P2_4 1_555 1_555
H2_4 O6_4 1_555 1_555
O7_4 Er3 1_555 1_555
O10_4 Er3 1_555 1_555
O11_4 Er3 1_555 1_555
O23_2 C11_4 1_555 1_555
O24_2 C12_4 1_555 1_555
O14_4 Er3 1_555 1_555
O19_4 Er3 1_555 1_555
H3_4 O19_4 1_555 1_555
H4_4 O19_4 1_555 1_555
N1_4 H5_4 1_555 1_555
N2_3 H6_3 1_555 1_555
C1_4 P1_4 1_555 1_555
H7_4 C1_4 1_555 1_555
H8_4 C1_4 1_555 1_555
C2_4 P2_4 1_555 1_555
H9_4 C2_4 1_555 1_555
H10_4 C2_4 1_555 1_555
C3_4 N1_4 1_555 1_555
H11_4 C3_4 1_555 1_555
H12_4 C3_4 1_555 1_555
C4_4 C3_4 1_555 1_555
C5_3 C4_4 1_555 1_555
H13_3 C5_3 1_555 1_555
C6_3 C5_3 1_555 1_555
H14_3 C6_3 1_555 1_555
C7_3 N2_3 1_555 1_555
H15_3 C7_3 1_555 1_555
C8_3 N2_3 1_555 1_555
H16_4 C8_3 1_555 1_555
C11_4 O11_4 1_555 1_555
C12_4 O14_4 1_555 1_555
N1_4 C1_4 1_555 1_555
N1_4 C2_4 1_555 1_555
C4_4 C8_3 1_555 1_555
C6_3 C7_3 1_555 1_555
C11_4 C12_4 1_555 1_555
O21 C9_4 1_555 1_555
O22 C10_4 1_555 1_555
C9_4 C10_4 1_555 1_555
N2_4 H6_4 1_555 1_555
H13_4 C5_4 1_555 1_555
C6_4 C5_4 1_555 1_555
H14_4 C6_4 1_555 1_555
C7_4 N2_4 1_555 1_555
H15_4 C7_4 1_555 1_555
C8_4 N2_4 1_555 1_555
C6_4 C7_4 1_555 1_555

#END
