
###############################################################################
#
# This file contains modified crystal structure data generated from the
# MOF subset of the Cambridge Structural Database (CSD) v543 
# hosted by the Cambridge Crystallographic Data Centre (CCDC).
#
# This work is licensed under the Creative Commons
# Attribution-NonCommercial-ShareAlike 4.0 International License.
# To view a copy of this license, visit
# http://creativecommons.org/licenses/by-nc-sa/4.0/
# or send a letter to
# Creative Commons, PO Box 1866, Mountain View, CA 94042, USA.
#
# CIF created using the CSD Python API on 29 September 2022
# The structure has been converted into the P1 space group
# The structure has a 3D framework
# The original CSD entry QUWTAG is in the monoclinic crystal system
# The framework has been calculated to contain at least 10.0% void space
# The void calculation uses a probe of radius 1.32A, grid spacing 0.4
#
###############################################################################

data_QUWTAG
_chemical_formula_moiety         '(C96 H48 Mn4 N16 O28)n'
_symmetry_cell_setting           triclinic
_symmetry_space_group_name_H-M   'P 1'
_symmetry_Int_Tables_number      1
_space_group_name_Hall           'P 1'
loop_
_symmetry_equiv_pos_site_id
_symmetry_equiv_pos_as_xyz
1 x,y,z
_cell_length_a                   15.687(7)
_cell_length_b                   10.345(3)
_cell_length_c                   16.834(4)
_cell_angle_alpha                90
_cell_angle_beta                 102.17(3)
_cell_angle_gamma                90
_cell_volume                     2670.46
loop_
_atom_site_label
_atom_site_type_symbol
_atom_site_fract_x
_atom_site_fract_y
_atom_site_fract_z
O1 O 0.8348(5) 0.3042(6) 0.0825(3)
O2 O 0.4727(5) 0.2004(7) 0.4711(4)
O3 O 0.7121(5) 0.2297(6) 0.1138(4)
O4 O 0.5705(5) 0.0528(6) 0.4455(4)
N1 N 0.8491(6) 0.4665(8) 0.3653(4)
N2 N 0.7309(6) 0.4727(8) 0.4604(4)
C1 C 0.5454(8) 0.1648(10) 0.4597(5)
C2 C 0.6697(7) 0.2714(9) 0.4079(5)
H1 H 0.6721 0.1998 0.3750
C3 C 0.6101(6) 0.2751(8) 0.4580(5)
C4 C 0.7841(8) 0.2854(9) 0.1298(5)
C5 C 0.7609(7) 0.3223(8) 0.2717(5)
H2 H 0.7146 0.2644 0.2605
C6 C 0.8099(7) 0.3456(9) 0.2151(5)
C7 C 0.7250(7) 0.3736(9) 0.4070(5)
C8 C 0.7805(7) 0.3853(9) 0.3461(5)
C9 C 0.8970(7) 0.4898(10) 0.3083(6)
H3 H 0.9433 0.5476 0.3205
C10 C 0.8797(7) 0.4313(9) 0.2332(6)
H4 H 0.9138 0.4486 0.1955
C11 C 0.6106(8) 0.3817(9) 0.5087(6)
H5 H 0.5699 0.3898 0.5413
C12 C 0.6744(8) 0.4758(11) 0.5088(6)
H6 H 0.6775 0.5444 0.5449
Mn3 Mn 0.85607(11) 0.59811(13) 0.47725(7)
Mn4 Mn 0.64393(11) 0.09811(13) 0.02275(7)
Mn5 Mn 0.35607(11) 0.09811(13) 0.47725(7)
O7 O 0.9295(5) 0.5528(6) 0.0545(4)
Mn1 Mn 0.85607(11) 0.40189(13) 0.97725(7)
O5 O 0.9727(5) 0.2996(7) 0.9711(4)
O6 O 0.7879(5) 0.2703(6) 0.8862(4)
N3 N 0.8491(6) 0.5335(8) 0.8653(4)
N4 N 0.7309(6) 0.5273(8) 0.9604(4)
Mn2 Mn 0.64393(11) 0.90189(13) 0.52275(7)
Mn1_2 Mn 0.14393(11) 0.40189(13) 0.52275(7)
O1_2 O 0.1652(5) 0.3042(6) 0.4175(3)
O2_2 O 0.5273(5) 0.2004(7) 0.0289(4)
O3_2 O 0.2879(5) 0.2297(6) 0.3862(4)
O4_2 O 0.4295(5) 0.0528(6) 0.0545(4)
N1_2 N 0.1509(6) 0.4665(8) 0.1347(4)
N2_2 N 0.2691(6) 0.4727(8) 0.0396(4)
C1_2 C 0.4546(8) 0.1648(10) 0.0403(5)
C2_2 C 0.3303(7) 0.2714(9) 0.0921(5)
H1_2 H 0.3279 0.1998 0.1250
C3_2 C 0.3899(6) 0.2751(8) 0.0420(5)
C4_2 C 0.2159(8) 0.2854(9) 0.3702(5)
C5_2 C 0.2391(7) 0.3223(8) 0.2283(5)
H2_2 H 0.2854 0.2644 0.2395
C6_2 C 0.1901(7) 0.3456(9) 0.2849(5)
C7_2 C 0.2750(7) 0.3736(9) 0.0930(5)
C8_2 C 0.2195(7) 0.3853(9) 0.1539(5)
C9_2 C 0.1030(7) 0.4898(10) 0.1917(6)
H3_2 H 0.0567 0.5476 0.1795
C10_2 C 0.1203(7) 0.4313(9) 0.2668(6)
H4_2 H 0.0862 0.4486 0.3045
Mn3_2 Mn 0.14393(11) 0.59811(13) 0.02275(7)
O5_2 O 0.0273(5) 0.2996(7) 0.5289(4)
O6_2 O 0.2121(5) 0.2703(6) 0.6138(4)
O7_2 O 0.0705(5) 0.5528(6) 0.4455(4)
N3_2 N 0.1509(6) 0.5335(8) 0.6347(4)
N4_2 N 0.2691(6) 0.5273(8) 0.5396(4)
Mn2_2 Mn 0.35607(11) 0.90189(13) 0.97725(7)
H3_3 H 0.4433 0.0476 0.3205
H6_2 H 0.1775 0.0444 0.5449
N3_3 N 0.3491(6) 0.0335(8) 0.8653(4)
N4_3 N 0.2309(6) 0.0273(8) 0.9604(4)
O1_3 O 0.3348(5) 0.8042(6) 0.0825(3)
O3_3 O 0.2121(5) 0.7297(6) 0.1138(4)
N1_3 N 0.3491(6) 0.9665(8) 0.3653(4)
N2_3 N 0.2309(6) 0.9727(8) 0.4604(4)
C1_3 C 0.0454(8) 0.6648(10) 0.4597(5)
C2_3 C 0.1697(7) 0.7714(9) 0.4079(5)
H1_3 H 0.1721 0.6998 0.3750
C3_3 C 0.1101(6) 0.7751(8) 0.4580(5)
C4_3 C 0.2841(8) 0.7854(9) 0.1298(5)
C5_3 C 0.2609(7) 0.8223(8) 0.2717(5)
H2_3 H 0.2146 0.7644 0.2605
C6_3 C 0.3099(7) 0.8456(9) 0.2151(5)
C7_3 C 0.2250(7) 0.8736(9) 0.4070(5)
C8_3 C 0.2805(7) 0.8853(9) 0.3461(5)
C9_3 C 0.3970(7) 0.9898(10) 0.3083(6)
C10_3 C 0.3797(7) 0.9313(9) 0.2332(6)
H4_3 H 0.4138 0.9486 0.1955
C11_2 C 0.1106(8) 0.8817(9) 0.5087(6)
H5_2 H 0.0699 0.8898 0.5413
C12_2 C 0.1744(8) 0.9758(11) 0.5088(6)
O5_3 O 0.4727(5) 0.7996(7) 0.9711(4)
O6_3 O 0.2879(5) 0.7703(6) 0.8862(4)
O2_3 O 0.9727(5) 0.7004(7) 0.4711(4)
O2_4 O 0.0273(5) 0.7004(7) 0.0289(4)
H3_4 H 0.5567 0.0476 0.1795
N3_4 N 0.6509(6) 0.0335(8) 0.6347(4)
N4_4 N 0.7691(6) 0.0273(8) 0.5396(4)
O1_4 O 0.6652(5) 0.8042(6) 0.4175(3)
O3_4 O 0.7879(5) 0.7297(6) 0.3862(4)
N1_4 N 0.6509(6) 0.9665(8) 0.1347(4)
N2_4 N 0.7691(6) 0.9727(8) 0.0396(4)
C1_4 C 0.9546(8) 0.6648(10) 0.0403(5)
C2_4 C 0.8303(7) 0.7714(9) 0.0921(5)
H1_4 H 0.8279 0.6998 0.1250
C3_4 C 0.8899(6) 0.7751(8) 0.0420(5)
C4_4 C 0.7159(8) 0.7854(9) 0.3702(5)
C5_4 C 0.7391(7) 0.8223(8) 0.2283(5)
H2_4 H 0.7854 0.7644 0.2395
C6_4 C 0.6901(7) 0.8456(9) 0.2849(5)
C7_4 C 0.7750(7) 0.8736(9) 0.0930(5)
C8_4 C 0.7195(7) 0.8853(9) 0.1539(5)
C9_4 C 0.6030(7) 0.9898(10) 0.1917(6)
C10_4 C 0.6203(7) 0.9313(9) 0.2668(6)
H4_4 H 0.5862 0.9486 0.3045
O5_4 O 0.5273(5) 0.7996(7) 0.5289(4)
O6_4 O 0.7121(5) 0.7703(6) 0.6138(4)
C11_3 C 0.8894(8) 0.8817(9) 0.9913(6)
H5_3 H 0.9301 0.8898 0.9587
C12_3 C 0.8256(8) 0.9758(11) 0.9912(6)
O1_5 O 0.1652(5) 0.6958(6) 0.9175(3)
O4_3 O 0.4295(5) 0.9472(6) 0.5545(4)
C1_5 C 0.4546(8) 0.8352(10) 0.5403(5)
C2_5 C 0.3303(7) 0.7286(9) 0.5921(5)
H1_5 H 0.3279 0.8002 0.6250
C3_5 C 0.3899(6) 0.7249(8) 0.5420(5)
C4_5 C 0.2159(8) 0.7146(9) 0.8702(5)
C5_5 C 0.2391(7) 0.6777(8) 0.7283(5)
H2_5 H 0.2854 0.7356 0.7395
C6_5 C 0.1901(7) 0.6544(9) 0.7849(5)
C7_5 C 0.2750(7) 0.6264(9) 0.5930(5)
C8_5 C 0.2195(7) 0.6147(9) 0.6539(5)
C9_5 C 0.1030(7) 0.5102(10) 0.6917(6)
H3_5 H 0.0567 0.4524 0.6795
C10_5 C 0.1203(7) 0.5687(9) 0.7668(6)
H4_5 H 0.0862 0.5514 0.8045
C11_4 C 0.3894(8) 0.6183(9) 0.4913(6)
H5_4 H 0.4301 0.6102 0.4587
C12_4 C 0.3256(8) 0.5242(11) 0.4912(6)
H6_3 H 0.3225 0.4556 0.4551
O7_3 O 0.0705(5) 0.4472(6) 0.9455(4)
O1_6 O 0.8348(5) 0.6958(6) 0.5825(3)
O4_4 O 0.5705(5) 0.9472(6) 0.9455(4)
C1_6 C 0.5454(8) 0.8352(10) 0.9597(5)
C2_6 C 0.6697(7) 0.7286(9) 0.9079(5)
H1_6 H 0.6721 0.8002 0.8750
C3_6 C 0.6101(6) 0.7249(8) 0.9580(5)
C4_6 C 0.7841(8) 0.7146(9) 0.6298(5)
C5_6 C 0.7609(7) 0.6777(8) 0.7717(5)
H2_6 H 0.7146 0.7356 0.7605
C6_6 C 0.8099(7) 0.6544(9) 0.7151(5)
C7_6 C 0.7250(7) 0.6264(9) 0.9070(5)
C8_6 C 0.7805(7) 0.6147(9) 0.8461(5)
C9_6 C 0.8970(7) 0.5102(10) 0.8083(6)
H3_6 H 0.9433 0.4524 0.8205
C10_6 C 0.8797(7) 0.5687(9) 0.7332(6)
H4_6 H 0.9138 0.5514 0.6955
O7_4 O 0.9295(5) 0.4472(6) 0.5545(4)
O1_7 O 0.6652(5) 0.1958(6) 0.9175(3)
C1_7 C 0.9546(8) 0.3352(10) 0.5403(5)
C2_7 C 0.8303(7) 0.2286(9) 0.5921(5)
H1_7 H 0.8279 0.3002 0.6250
C3_7 C 0.8899(6) 0.2249(8) 0.5420(5)
C4_7 C 0.7159(8) 0.2146(9) 0.8702(5)
C5_7 C 0.7391(7) 0.1777(8) 0.7283(5)
H2_7 H 0.7854 0.2356 0.7395
C6_7 C 0.6901(7) 0.1544(9) 0.7849(5)
C7_7 C 0.7750(7) 0.1264(9) 0.5930(5)
C8_7 C 0.7195(7) 0.1147(9) 0.6539(5)
C9_7 C 0.6030(7) 0.0102(10) 0.6917(6)
C10_7 C 0.6203(7) 0.0687(9) 0.7668(6)
H4_7 H 0.5862 0.0514 0.8045
C11_5 C 0.8894(8) 0.1183(9) 0.4913(6)
H5_5 H 0.9301 0.1102 0.4587
C12_5 C 0.8256(8) 0.0242(11) 0.4912(6)
H3_7 H 0.5567 0.9524 0.6795
H6_4 H 0.8225 0.9556 0.4551
C11_6 C 0.1106(8) 0.1183(9) 0.0087(6)
H5_6 H 0.0699 0.1102 0.0413
C12_6 C 0.1744(8) 0.0242(11) 0.0088(6)
O1_8 O 0.3348(5) 0.1958(6) 0.5825(3)
C1_8 C 0.0454(8) 0.3352(10) 0.9597(5)
C2_8 C 0.1697(7) 0.2286(9) 0.9079(5)
H1_8 H 0.1721 0.3002 0.8750
C3_8 C 0.1101(6) 0.2249(8) 0.9580(5)
C4_8 C 0.2841(8) 0.2146(9) 0.6298(5)
C5_8 C 0.2609(7) 0.1777(8) 0.7717(5)
H2_8 H 0.2146 0.2356 0.7605
C6_8 C 0.3099(7) 0.1544(9) 0.7151(5)
C7_8 C 0.2250(7) 0.1264(9) 0.9070(5)
C8_8 C 0.2805(7) 0.1147(9) 0.8461(5)
C9_8 C 0.3970(7) 0.0102(10) 0.8083(6)
C10_8 C 0.3797(7) 0.0687(9) 0.7332(6)
H4_8 H 0.4138 0.0514 0.6955
H3_8 H 0.4433 0.9524 0.8205
C11_7 C 0.3894(8) 0.3817(9) 0.9913(6)
H5_7 H 0.4301 0.3898 0.9587
C12_7 C 0.3256(8) 0.4758(11) 0.9912(6)
H6_5 H 0.3225 0.5444 0.9551
H6_6 H 0.8225 0.0444 0.9551
C11_8 C 0.6106(8) 0.6183(9) 0.0087(6)
H5_8 H 0.5699 0.6102 0.0413
C12_8 C 0.6744(8) 0.5242(11) 0.0088(6)
H6_7 H 0.6775 0.4556 0.0449
H6_8 H 0.1775 0.9556 0.0449
loop_
_geom_bond_atom_site_label_1
_geom_bond_atom_site_label_2
_geom_bond_site_symmetry_1
_geom_bond_site_symmetry_2
O1 C4 1_555 1_555
O2 C1 1_555 1_555
O3 C4 1_555 1_555
O4 C1 1_555 1_555
N1 C8 1_555 1_555
N2 C7 1_555 1_555
C1 C3 1_555 1_555
C2 H1 1_555 1_555
C3 C2 1_555 1_555
C4 C6 1_555 1_555
C5 H2 1_555 1_555
C6 C5 1_555 1_555
C7 C2 1_555 1_555
C8 C5 1_555 1_555
C9 N1 1_555 1_555
H3 C9 1_555 1_555
C10 C6 1_555 1_555
H4 C10 1_555 1_555
C11 C3 1_555 1_555
H5 C11 1_555 1_555
C12 N2 1_555 1_555
H6 C12 1_555 1_555
Mn3 N1 1_555 1_555
Mn4 O3 1_555 1_555
Mn5 O2 1_555 1_555
N2 Mn3 1_555 1_555
C7 C8 1_555 1_555
C9 C10 1_555 1_555
C11 C12 1_555 1_555
O5 Mn1 1_555 1_555
O6 Mn1 1_555 1_555
N3 Mn1 1_555 1_555
N4 Mn1 1_555 1_555
Mn1_2 O1_2 1_555 1_555
O1_2 C4_2 1_555 1_555
O2_2 C1_2 1_555 1_555
O3_2 C4_2 1_555 1_555
O4_2 C1_2 1_555 1_555
N1_2 C8_2 1_555 1_555
N2_2 C7_2 1_555 1_555
C1_2 C3_2 1_555 1_555
C2_2 H1_2 1_555 1_555
C3_2 C2_2 1_555 1_555
C4_2 C6_2 1_555 1_555
C5_2 H2_2 1_555 1_555
C6_2 C5_2 1_555 1_555
C7_2 C2_2 1_555 1_555
C8_2 C5_2 1_555 1_555
C9_2 N1_2 1_555 1_555
H3_2 C9_2 1_555 1_555
C10_2 C6_2 1_555 1_555
H4_2 C10_2 1_555 1_555
Mn3_2 N1_2 1_555 1_555
Mn5 O3_2 1_555 1_555
Mn4 O2_2 1_555 1_555
O5_2 Mn1_2 1_555 1_555
O6_2 Mn1_2 1_555 1_555
O7_2 Mn1_2 1_555 1_555
N3_2 Mn1_2 1_555 1_555
N4_2 Mn1_2 1_555 1_555
N2_2 Mn3_2 1_555 1_555
C7_2 C8_2 1_555 1_555
C9_2 C10_2 1_555 1_555
O1_3 C4_3 1_555 1_555
O3_3 C4_3 1_555 1_555
O7_2 C1_3 1_555 1_555
N1_3 C8_3 1_555 1_555
N2_3 C7_3 1_555 1_555
C1_3 C3_3 1_555 1_555
C2_3 H1_3 1_555 1_555
C3_3 C2_3 1_555 1_555
C4_3 C6_3 1_555 1_555
C5_3 H2_3 1_555 1_555
C6_3 C5_3 1_555 1_555
C7_3 C2_3 1_555 1_555
C8_3 C5_3 1_555 1_555
C9_3 N1_3 1_555 1_555
C10_3 C6_3 1_555 1_555
H4_3 C10_3 1_555 1_555
C11_2 C3_3 1_555 1_555
H5_2 C11_2 1_555 1_555
C12_2 N2_3 1_555 1_555
Mn3_2 O3_3 1_555 1_555
C7_3 C8_3 1_555 1_555
C9_3 C10_3 1_555 1_555
C11_2 C12_2 1_555 1_555
O5_3 Mn2_2 1_555 1_555
O6_3 Mn2_2 1_555 1_555
Mn3 O2_3 1_555 1_555
Mn3_2 O2_4 1_555 1_555
Mn2 O1_4 1_555 1_555
O1_4 C4_4 1_555 1_555
O3_4 C4_4 1_555 1_555
O7 C1_4 1_555 1_555
N1_4 C8_4 1_555 1_555
N2_4 C7_4 1_555 1_555
C1_4 C3_4 1_555 1_555
C2_4 H1_4 1_555 1_555
C3_4 C2_4 1_555 1_555
C4_4 C6_4 1_555 1_555
C5_4 H2_4 1_555 1_555
C6_4 C5_4 1_555 1_555
C7_4 C2_4 1_555 1_555
C8_4 C5_4 1_555 1_555
C9_4 N1_4 1_555 1_555
C10_4 C6_4 1_555 1_555
H4_4 C10_4 1_555 1_555
Mn3 O3_4 1_555 1_555
O5_4 Mn2 1_555 1_555
O6_4 Mn2 1_555 1_555
C7_4 C8_4 1_555 1_555
C9_4 C10_4 1_555 1_555
H5_3 C11_3 1_555 1_555
C11_3 C12_3 1_555 1_555
O1_5 C4_5 1_555 1_555
O5_4 C1_5 1_555 1_555
O6_3 C4_5 1_555 1_555
O4_3 C1_5 1_555 1_555
N3_2 C8_5 1_555 1_555
N4_2 C7_5 1_555 1_555
C1_5 C3_5 1_555 1_555
C2_5 H1_5 1_555 1_555
C3_5 C2_5 1_555 1_555
C4_5 C6_5 1_555 1_555
C5_5 H2_5 1_555 1_555
C6_5 C5_5 1_555 1_555
C7_5 C2_5 1_555 1_555
C8_5 C5_5 1_555 1_555
C9_5 N3_2 1_555 1_555
H3_5 C9_5 1_555 1_555
C10_5 C6_5 1_555 1_555
H4_5 C10_5 1_555 1_555
C11_4 C3_5 1_555 1_555
H5_4 C11_4 1_555 1_555
C12_4 N4_2 1_555 1_555
H6_3 C12_4 1_555 1_555
C7_5 C8_5 1_555 1_555
C9_5 C10_5 1_555 1_555
C11_4 C12_4 1_555 1_555
Mn3 O1_6 1_555 1_555
O1_6 C4_6 1_555 1_555
O5_3 C1_6 1_555 1_555
O6_4 C4_6 1_555 1_555
O4_4 C1_6 1_555 1_555
N3 C8_6 1_555 1_555
N4 C7_6 1_555 1_555
C1_6 C3_6 1_555 1_555
C2_6 H1_6 1_555 1_555
C3_6 C2_6 1_555 1_555
C4_6 C6_6 1_555 1_555
C5_6 H2_6 1_555 1_555
C6_6 C5_6 1_555 1_555
C7_6 C2_6 1_555 1_555
C8_6 C5_6 1_555 1_555
C9_6 N3 1_555 1_555
H3_6 C9_6 1_555 1_555
C10_6 C6_6 1_555 1_555
H4_6 C10_6 1_555 1_555
O7_4 Mn3 1_555 1_555
C7_6 C8_6 1_555 1_555
C9_6 C10_6 1_555 1_555
O1_7 C4_7 1_555 1_555
O6 C4_7 1_555 1_555
O7_4 C1_7 1_555 1_555
N3_4 C8_7 1_555 1_555
N4_4 C7_7 1_555 1_555
C1_7 C3_7 1_555 1_555
C2_7 H1_7 1_555 1_555
C3_7 C2_7 1_555 1_555
C4_7 C6_7 1_555 1_555
C5_7 H2_7 1_555 1_555
C6_7 C5_7 1_555 1_555
C7_7 C2_7 1_555 1_555
C8_7 C5_7 1_555 1_555
C9_7 N3_4 1_555 1_555
C10_7 C6_7 1_555 1_555
H4_7 C10_7 1_555 1_555
C11_5 C3_7 1_555 1_555
H5_5 C11_5 1_555 1_555
C12_5 N4_4 1_555 1_555
C7_7 C8_7 1_555 1_555
C9_7 C10_7 1_555 1_555
C11_5 C12_5 1_555 1_555
H5_6 C11_6 1_555 1_555
C11_6 C12_6 1_555 1_555
Mn5 O1_8 1_555 1_555
O1_8 C4_8 1_555 1_555
O6_2 C4_8 1_555 1_555
O7_3 C1_8 1_555 1_555
N3_3 C8_8 1_555 1_555
N4_3 C7_8 1_555 1_555
C1_8 C3_8 1_555 1_555
C2_8 H1_8 1_555 1_555
C3_8 C2_8 1_555 1_555
C4_8 C6_8 1_555 1_555
C5_8 H2_8 1_555 1_555
C6_8 C5_8 1_555 1_555
C7_8 C2_8 1_555 1_555
C8_8 C5_8 1_555 1_555
C9_8 N3_3 1_555 1_555
C10_8 C6_8 1_555 1_555
H4_8 C10_8 1_555 1_555
C7_8 C8_8 1_555 1_555
C9_8 C10_8 1_555 1_555
H5_7 C11_7 1_555 1_555
H6_5 C12_7 1_555 1_555
C11_7 C12_7 1_555 1_555
H5_8 C11_8 1_555 1_555
H6_7 C12_8 1_555 1_555
C11_8 C12_8 1_555 1_555

#END
