
###############################################################################
#
# This file contains modified crystal structure data generated from the
# MOF subset of the Cambridge Structural Database (CSD) v543 
# hosted by the Cambridge Crystallographic Data Centre (CCDC).
#
# This work is licensed under the Creative Commons
# Attribution-NonCommercial-ShareAlike 4.0 International License.
# To view a copy of this license, visit
# http://creativecommons.org/licenses/by-nc-sa/4.0/
# or send a letter to
# Creative Commons, PO Box 1866, Mountain View, CA 94042, USA.
#
# CIF created using the CSD Python API on 29 September 2022
# The structure has been converted into the P1 space group
# The structure has a 3D framework
# The original CSD entry QUYZUH is in the monoclinic crystal system
# The framework has been calculated to contain at least 10.0% void space
# The void calculation uses a probe of radius 1.32A, grid spacing 0.4
#
###############################################################################

data_QUYZUH
_chemical_formula_moiety         '(C80 H52 N20 O28 Zn8)n'
_symmetry_cell_setting           triclinic
_symmetry_space_group_name_H-M   'P 1'
_symmetry_Int_Tables_number      1
_space_group_name_Hall           'P 1'
loop_
_symmetry_equiv_pos_site_id
_symmetry_equiv_pos_as_xyz
1 x,y,z
_cell_length_a                   11.537(3)
_cell_length_b                   14.467(4)
_cell_length_c                   13.277(4)
_cell_angle_alpha                90
_cell_angle_beta                 96.407(5)
_cell_angle_gamma                90
_cell_volume                     2202.17
loop_
_atom_site_label
_atom_site_type_symbol
_atom_site_fract_x
_atom_site_fract_y
_atom_site_fract_z
Zn2 Zn 0.17683(4) 0.21054(3) 0.37080(3)
C10 C 0.2981(4) 0.3851(3) 0.3032(3)
H4 H 0.2413 0.3984 0.2498
C11 C 0.4009(4) 0.4287(3) 0.3220(3)
H5 H 0.4278 0.4775 0.2854
C12 C 0.3865(4) 0.3187(3) 0.4352(3)
H6 H 0.4043 0.2790 0.4898
C13 C 0.5731(3) 0.4058(3) 0.4515(3)
C14 C 0.6282(4) 0.3532(3) 0.5329(3)
H7 H 0.5903 0.3040 0.5602
C15 C 0.7375(4) 0.3770(3) 0.5692(3)
H8 H 0.7751 0.3441 0.6235
C16 C 0.7959(4) 0.4489(3) 0.5284(3)
H9 H 0.8714 0.4656 0.5537
C17 C 0.7349(4) 0.4945(3) 0.4475(3)
C18 C 0.8774(4) 0.6245(3) 0.4356(3)
H10 H 0.9157 0.6237 0.5010
C19 C 0.8991(4) 0.6815(3) 0.3594(3)
H11 H 0.9550 0.7281 0.3640
C20 C 0.7582(4) 0.5923(3) 0.2985(3)
H12 H 0.6992 0.5650 0.2551
O5 O 0.0048(3) 0.3500(3) 0.3064(4)
O6 O 0.0094(2) 0.2174(2) 0.3850(2)
N1 N 0.2897(3) 0.3172(2) 0.3756(3)
N2 N 0.4591(3) 0.3864(2) 0.4073(2)
N3 N 0.6249(3) 0.4755(2) 0.4091(2)
N4 N 0.7875(3) 0.5680(2) 0.3973(3)
N5 N 0.8256(3) 0.6599(3) 0.2738(3)
Zn7 Zn 0.82317(4) 0.71054(3) 0.12920(3)
O11 O 0.2415(2) 0.12595(19) 0.4713(2)
N6 N 0.1744(3) 0.1599(3) 0.2262(3)
Zn1 Zn 0.38743(4) 0.05907(3) 0.49014(3)
C1 C 0.6469(3) 0.1875(2) 0.3268(3)
C2 C 0.5876(3) 0.2496(2) 0.2589(2)
H1 H 0.5075 0.2433 0.2424
C3 C 0.6453(3) 0.3200(2) 0.2158(3)
C4 C 0.7653(3) 0.3318(3) 0.2444(3)
H2 H 0.8044 0.3810 0.2184
C5 C 0.8259(3) 0.2705(3) 0.3110(3)
C6 C 0.7675(3) 0.1977(3) 0.3506(3)
H3 H 0.8088 0.1552 0.3932
C7 C 0.5818(3) 0.1135(2) 0.3764(2)
C8 C 0.5846(3) 0.3850(3) 0.1376(3)
C9 C 0.9549(4) 0.2820(3) 0.3351(3)
O1 O 0.4771(2) 0.12762(19) 0.3852(2)
O2 O 0.6396(3) 0.04266(19) 0.4078(2)
O3 O 0.4858(2) 0.36055(18) 0.0971(2)
O4 O 0.6379(3) 0.45713(19) 0.1200(2)
H13 H 0.1996 0.0949 0.5078
Zn3 Zn 0.61257(4) 0.55907(3) 0.00986(3)
O9 O 0.4858(2) 0.13945(18) 0.5971(2)
Zn5 Zn 0.38743(4) 0.44093(3) 0.99014(3)
Zn4 Zn 0.61257(4) 0.94093(3) 0.50986(3)
O8 O 0.3604(3) 0.95734(19) 0.5922(2)
O10 O 0.3621(3) 0.95713(19) 0.3800(2)
C1_2 C 0.3531(3) 0.6875(2) 0.1732(3)
C2_2 C 0.4124(3) 0.7496(2) 0.2411(2)
H1_2 H 0.4925 0.7433 0.2576
C3_2 C 0.3547(3) 0.8200(2) 0.2842(3)
C4_2 C 0.2347(3) 0.8318(3) 0.2556(3)
H2_2 H 0.1956 0.8810 0.2816
C5_2 C 0.1741(3) 0.7705(3) 0.1890(3)
C6_2 C 0.2325(3) 0.6977(3) 0.1494(3)
H3_2 H 0.1912 0.6552 0.1068
C7_2 C 0.4182(3) 0.6135(2) 0.1236(2)
C8_2 C 0.4154(3) 0.8850(3) 0.3624(3)
C9_2 C 0.0451(4) 0.7820(3) 0.1649(3)
O1_2 O 0.5229(2) 0.62762(19) 0.1148(2)
O2_2 O 0.3604(3) 0.54266(19) 0.0922(2)
O3_2 O 0.5142(2) 0.86055(18) 0.4029(2)
O7 O 0.7585(2) 0.62595(19) 0.0287(2)
H13_2 H 0.8004 0.5949 0.9922
O8_2 O 0.6396(3) 0.45734(19) 0.9078(2)
O9_2 O 0.5142(2) 0.63945(18) 0.9029(2)
C18_2 C 0.1226(4) 0.1245(3) 0.0644(3)
C19_2 C 0.1009(4) 0.1815(3) 0.1406(3)
H11_2 H 0.0450 0.2281 0.1360
C20_2 C 0.2418(4) 0.0923(3) 0.2015(3)
H12_2 H 0.3008 0.0650 0.2449
N4_2 N 0.2125(3) 0.0680(2) 0.1027(3)
C10_2 C 0.7019(4) 0.8851(3) 0.1968(3)
H4_2 H 0.7587 0.8984 0.2502
C11_2 C 0.5991(4) 0.9287(3) 0.1780(3)
H5_2 H 0.5722 0.9775 0.2146
C12_2 C 0.6135(4) 0.8187(3) 0.0648(3)
H6_2 H 0.5957 0.7790 0.0102
C13_2 C 0.4269(3) 0.9058(3) 0.0485(3)
C17_2 C 0.2651(4) 0.9945(3) 0.0525(3)
O5_2 O 0.9952(3) 0.8500(3) 0.1936(4)
O6_2 O 0.9906(2) 0.7174(2) 0.1150(2)
N1_2 N 0.7103(3) 0.8172(2) 0.1244(3)
N2_2 N 0.5409(3) 0.8864(2) 0.0927(2)
N3_2 N 0.3751(3) 0.9755(2) 0.0909(2)
O10_2 O 0.6379(3) 0.04287(19) 0.6200(2)
C1_3 C 0.3531(3) 0.8125(2) 0.6732(3)
C2_3 C 0.4124(3) 0.7504(2) 0.7411(2)
H1_3 H 0.4925 0.7567 0.7576
C3_3 C 0.3547(3) 0.6800(2) 0.7842(3)
C4_3 C 0.2347(3) 0.6682(3) 0.7556(3)
H2_3 H 0.1956 0.6190 0.7816
C5_3 C 0.1741(3) 0.7295(3) 0.6890(3)
C6_3 C 0.2325(3) 0.8023(3) 0.6494(3)
H3_3 H 0.1912 0.8448 0.6068
C7_3 C 0.4182(3) 0.8865(2) 0.6236(2)
C8_3 C 0.4154(3) 0.6150(3) 0.8624(3)
C9_3 C 0.0451(4) 0.7180(3) 0.6649(3)
O1_3 O 0.5229(2) 0.87238(19) 0.6148(2)
O4_2 O 0.3621(3) 0.54287(19) 0.8800(2)
O7_2 O 0.7585(2) 0.87405(19) 0.5287(2)
H13_3 H 0.8004 0.9051 0.4922
Zn6 Zn 0.82317(4) 0.78946(3) 0.62920(3)
C10_3 C 0.7019(4) 0.6149(3) 0.6968(3)
H4_3 H 0.7587 0.6016 0.7502
C11_3 C 0.5991(4) 0.5713(3) 0.6780(3)
H5_3 H 0.5722 0.5225 0.7146
C12_3 C 0.6135(4) 0.6813(3) 0.5648(3)
H6_3 H 0.5957 0.7210 0.5102
C13_3 C 0.4269(3) 0.5942(3) 0.5485(3)
C14_2 C 0.3718(4) 0.6468(3) 0.4671(3)
H7_2 H 0.4097 0.6960 0.4398
C15_2 C 0.2625(4) 0.6230(3) 0.4308(3)
H8_2 H 0.2249 0.6559 0.3765
C16_2 C 0.2041(4) 0.5511(3) 0.4716(3)
H9_2 H 0.1286 0.5344 0.4463
C17_3 C 0.2651(4) 0.5055(3) 0.5525(3)
C18_3 C 0.1226(4) 0.3755(3) 0.5644(3)
H10_2 H 0.0843 0.3763 0.4990
C19_3 C 0.1009(4) 0.3185(3) 0.6406(3)
H11_3 H 0.0450 0.2719 0.6360
C20_3 C 0.2418(4) 0.4077(3) 0.7015(3)
H12_3 H 0.3008 0.4350 0.7449
O5_3 O 0.9952(3) 0.6500(3) 0.6936(4)
O6_3 O 0.9906(2) 0.7826(2) 0.6150(2)
N1_3 N 0.7103(3) 0.6828(2) 0.6244(3)
N2_3 N 0.5409(3) 0.6136(2) 0.5927(2)
N3_3 N 0.3751(3) 0.5245(2) 0.5909(2)
N4_3 N 0.2125(3) 0.4320(2) 0.6027(3)
N5_2 N 0.1744(3) 0.3401(3) 0.7262(3)
Zn7_2 Zn 0.17683(4) 0.28946(3) 0.87080(3)
N6_2 N 0.8256(3) 0.8401(3) 0.7738(3)
C10_4 C 0.2981(4) 0.1149(3) 0.8032(3)
H4_4 H 0.2413 0.1016 0.7498
C11_4 C 0.4009(4) 0.0713(3) 0.8220(3)
H5_4 H 0.4278 0.0225 0.7854
C12_4 C 0.3865(4) 0.1813(3) 0.9352(3)
H6_4 H 0.4043 0.2210 0.9898
C13_4 C 0.5731(3) 0.0942(3) 0.9515(3)
C17_4 C 0.7349(4) 0.0055(3) 0.9475(3)
O5_4 O 0.0048(3) 0.1500(3) 0.8064(4)
O6_4 O 0.0094(2) 0.2826(2) 0.8850(2)
N1_4 N 0.2897(3) 0.1828(2) 0.8756(3)
N2_4 N 0.4591(3) 0.1136(2) 0.9073(2)
N3_4 N 0.6249(3) 0.0245(2) 0.9091(2)
O11_2 O 0.2415(2) 0.37405(19) 0.9713(2)
C18_4 C 0.8774(4) 0.8755(3) 0.9356(3)
C19_4 C 0.8991(4) 0.8185(3) 0.8594(3)
H11_4 H 0.9550 0.7719 0.8640
C20_4 C 0.7582(4) 0.9077(3) 0.7985(3)
H12_4 H 0.6992 0.9350 0.7551
N4_4 N 0.7875(3) 0.9320(2) 0.8973(3)
H13_4 H 0.1996 0.4051 0.0078
C1_4 C 0.6469(3) 0.3125(2) 0.8268(3)
C2_4 C 0.5876(3) 0.2504(2) 0.7589(2)
H1_4 H 0.5075 0.2567 0.7424
C3_4 C 0.6453(3) 0.1800(2) 0.7158(3)
C4_4 C 0.7653(3) 0.1682(3) 0.7444(3)
H2_4 H 0.8044 0.1190 0.7184
C5_4 C 0.8259(3) 0.2295(3) 0.8110(3)
C6_4 C 0.7675(3) 0.3023(3) 0.8506(3)
H3_4 H 0.8088 0.3448 0.8932
C7_4 C 0.5818(3) 0.3865(2) 0.8764(2)
C8_4 C 0.5846(3) 0.1150(3) 0.6376(3)
C9_4 C 0.9549(4) 0.2180(3) 0.8351(3)
O1_4 O 0.4771(2) 0.37238(19) 0.8852(2)
H10_3 H 0.0843 0.1237 0.9990
C14_3 C 0.3718(4) 0.8532(3) 0.9671(3)
H7_3 H 0.4097 0.8040 0.9398
C15_3 C 0.2625(4) 0.8770(3) 0.9308(3)
H8_3 H 0.2249 0.8441 0.8765
C16_3 C 0.2041(4) 0.9489(3) 0.9716(3)
H9_3 H 0.1286 0.9656 0.9463
C14_4 C 0.6282(4) 0.1468(3) 0.0329(3)
H7_4 H 0.5903 0.1960 0.0602
C15_4 C 0.7375(4) 0.1230(3) 0.0692(3)
H8_4 H 0.7751 0.1559 0.1235
C16_4 C 0.7959(4) 0.0511(3) 0.0284(3)
H9_4 H 0.8714 0.0344 0.0537
H10_4 H 0.9157 0.8763 0.0010
loop_
_geom_bond_atom_site_label_1
_geom_bond_atom_site_label_2
_geom_bond_site_symmetry_1
_geom_bond_site_symmetry_2
Zn2 O6 1_555 1_555
C10 H4 1_555 1_555
C11 C10 1_555 1_555
H5 C11 1_555 1_555
C12 H6 1_555 1_555
C13 C14 1_555 1_555
C14 H7 1_555 1_555
C15 C14 1_555 1_555
H8 C15 1_555 1_555
C16 C15 1_555 1_555
H9 C16 1_555 1_555
C17 C16 1_555 1_555
C18 H10 1_555 1_555
C19 C18 1_555 1_555
H11 C19 1_555 1_555
C20 H12 1_555 1_555
N1 Zn2 1_555 1_555
N2 C11 1_555 1_555
N3 C13 1_555 1_555
N4 C17 1_555 1_555
N5 C19 1_555 1_555
Zn7 N5 1_555 1_555
O11 Zn2 1_555 1_555
N6 Zn2 1_555 1_555
C10 N1 1_555 1_555
C12 N1 1_555 1_555
C12 N2 1_555 1_555
C13 N2 1_555 1_555
C17 N3 1_555 1_555
C18 N4 1_555 1_555
C20 N4 1_555 1_555
C20 N5 1_555 1_555
Zn1 O1 1_555 1_555
C1 C2 1_555 1_555
C2 H1 1_555 1_555
C3 C2 1_555 1_555
C4 C3 1_555 1_555
H2 C4 1_555 1_555
C5 C4 1_555 1_555
C6 C1 1_555 1_555
H3 C6 1_555 1_555
C7 C1 1_555 1_555
C8 C3 1_555 1_555
C9 C5 1_555 1_555
O1 C7 1_555 1_555
O2 C7 1_555 1_555
O3 C8 1_555 1_555
O4 C8 1_555 1_555
O11 Zn1 1_555 1_555
H13 O11 1_555 1_555
Zn3 O4 1_555 1_555
O9 Zn1 1_555 1_555
C5 C6 1_555 1_555
Zn3 O1_2 1_555 1_555
C1_2 C2_2 1_555 1_555
C2_2 H1_2 1_555 1_555
C3_2 C2_2 1_555 1_555
C4_2 C3_2 1_555 1_555
H2_2 C4_2 1_555 1_555
C5_2 C4_2 1_555 1_555
C6_2 C1_2 1_555 1_555
H3_2 C6_2 1_555 1_555
C7_2 C1_2 1_555 1_555
C8_2 C3_2 1_555 1_555
C9_2 C5_2 1_555 1_555
O1_2 C7_2 1_555 1_555
O2_2 C7_2 1_555 1_555
O3_2 C8_2 1_555 1_555
O10 C8_2 1_555 1_555
O7 Zn3 1_555 1_555
Zn4 O3_2 1_555 1_555
Zn7 O7 1_555 1_555
C5_2 C6_2 1_555 1_555
C19_2 C18_2 1_555 1_555
H11_2 C19_2 1_555 1_555
C20_2 H12_2 1_555 1_555
N6 C19_2 1_555 1_555
C18_2 N4_2 1_555 1_555
C20_2 N4_2 1_555 1_555
C20_2 N6 1_555 1_555
Zn7 O6_2 1_555 1_555
C10_2 H4_2 1_555 1_555
C11_2 C10_2 1_555 1_555
H5_2 C11_2 1_555 1_555
C12_2 H6_2 1_555 1_555
N1_2 Zn7 1_555 1_555
N2_2 C11_2 1_555 1_555
N3_2 C13_2 1_555 1_555
C10_2 N1_2 1_555 1_555
C12_2 N1_2 1_555 1_555
C12_2 N2_2 1_555 1_555
C13_2 N2_2 1_555 1_555
C17_2 N3_2 1_555 1_555
Zn4 O1_3 1_555 1_555
C1_3 C2_3 1_555 1_555
C2_3 H1_3 1_555 1_555
C3_3 C2_3 1_555 1_555
C4_3 C3_3 1_555 1_555
H2_3 C4_3 1_555 1_555
C5_3 C4_3 1_555 1_555
C6_3 C1_3 1_555 1_555
H3_3 C6_3 1_555 1_555
C7_3 C1_3 1_555 1_555
C8_3 C3_3 1_555 1_555
C9_3 C5_3 1_555 1_555
O1_3 C7_3 1_555 1_555
O8 C7_3 1_555 1_555
O9_2 C8_3 1_555 1_555
O4_2 C8_3 1_555 1_555
O7_2 Zn4 1_555 1_555
H13_3 O7_2 1_555 1_555
Zn5 O4_2 1_555 1_555
Zn6 O7_2 1_555 1_555
C5_3 C6_3 1_555 1_555
Zn6 O6_3 1_555 1_555
C10_3 H4_3 1_555 1_555
C11_3 C10_3 1_555 1_555
H5_3 C11_3 1_555 1_555
C12_3 H6_3 1_555 1_555
C13_3 C14_2 1_555 1_555
C14_2 H7_2 1_555 1_555
C15_2 C14_2 1_555 1_555
H8_2 C15_2 1_555 1_555
C16_2 C15_2 1_555 1_555
H9_2 C16_2 1_555 1_555
C17_3 C16_2 1_555 1_555
C18_3 H10_2 1_555 1_555
C19_3 C18_3 1_555 1_555
H11_3 C19_3 1_555 1_555
C20_3 H12_3 1_555 1_555
N1_3 Zn6 1_555 1_555
N2_3 C11_3 1_555 1_555
N3_3 C13_3 1_555 1_555
N4_3 C17_3 1_555 1_555
N5_2 C19_3 1_555 1_555
Zn7_2 N5_2 1_555 1_555
N6_2 Zn6 1_555 1_555
C10_3 N1_3 1_555 1_555
C12_3 N1_3 1_555 1_555
C12_3 N2_3 1_555 1_555
C13_3 N2_3 1_555 1_555
C17_3 N3_3 1_555 1_555
C18_3 N4_3 1_555 1_555
C20_3 N4_3 1_555 1_555
C20_3 N5_2 1_555 1_555
Zn7_2 O6_4 1_555 1_555
C10_4 H4_4 1_555 1_555
C11_4 C10_4 1_555 1_555
H5_4 C11_4 1_555 1_555
C12_4 H6_4 1_555 1_555
N1_4 Zn7_2 1_555 1_555
N2_4 C11_4 1_555 1_555
N3_4 C13_4 1_555 1_555
O11_2 Zn7_2 1_555 1_555
C10_4 N1_4 1_555 1_555
C12_4 N1_4 1_555 1_555
C12_4 N2_4 1_555 1_555
C13_4 N2_4 1_555 1_555
C17_4 N3_4 1_555 1_555
C19_4 C18_4 1_555 1_555
H11_4 C19_4 1_555 1_555
C20_4 H12_4 1_555 1_555
N6_2 C19_4 1_555 1_555
C18_4 N4_4 1_555 1_555
C20_4 N4_4 1_555 1_555
C20_4 N6_2 1_555 1_555
Zn5 O1_4 1_555 1_555
C1_4 C2_4 1_555 1_555
C2_4 H1_4 1_555 1_555
C3_4 C2_4 1_555 1_555
C4_4 C3_4 1_555 1_555
H2_4 C4_4 1_555 1_555
C5_4 C4_4 1_555 1_555
C6_4 C1_4 1_555 1_555
H3_4 C6_4 1_555 1_555
C7_4 C1_4 1_555 1_555
C8_4 C3_4 1_555 1_555
C9_4 C5_4 1_555 1_555
O1_4 C7_4 1_555 1_555
O8_2 C7_4 1_555 1_555
O9 C8_4 1_555 1_555
O10_2 C8_4 1_555 1_555
O11_2 Zn5 1_555 1_555
C5_4 C6_4 1_555 1_555
C14_3 H7_3 1_555 1_555
C15_3 C14_3 1_555 1_555
H8_3 C15_3 1_555 1_555
C16_3 C15_3 1_555 1_555
H9_3 C16_3 1_555 1_555
C14_4 H7_4 1_555 1_555
C15_4 C14_4 1_555 1_555
H8_4 C15_4 1_555 1_555
C16_4 C15_4 1_555 1_555
H9_4 C16_4 1_555 1_555

#END
