
###############################################################################
#
# This file contains modified crystal structure data generated from the
# MOF subset of the Cambridge Structural Database (CSD) v543 
# hosted by the Cambridge Crystallographic Data Centre (CCDC).
#
# This work is licensed under the Creative Commons
# Attribution-NonCommercial-ShareAlike 4.0 International License.
# To view a copy of this license, visit
# http://creativecommons.org/licenses/by-nc-sa/4.0/
# or send a letter to
# Creative Commons, PO Box 1866, Mountain View, CA 94042, USA.
#
# CIF created using the CSD Python API on 29 September 2022
# The structure has been converted into the P1 space group
# The structure has a 3D framework
# The original CSD entry QUZZES is in the monoclinic crystal system
# The framework has been calculated to contain at least 10.0% void space
# The void calculation uses a probe of radius 1.32A, grid spacing 0.4
#
###############################################################################

data_QUZZES
_chemical_formula_moiety         '(C96 H64 Mg11 O40)n'
_symmetry_cell_setting           triclinic
_symmetry_space_group_name_H-M   'P 1'
_symmetry_Int_Tables_number      1
_space_group_name_Hall           'P 1'
loop_
_symmetry_equiv_pos_site_id
_symmetry_equiv_pos_as_xyz
1 x,y,z
_cell_length_a                   16.469(2)
_cell_length_b                   15.5386(12)
_cell_length_c                   14.540(3)
_cell_angle_alpha                90
_cell_angle_beta                 117.500(19)
_cell_angle_gamma                90
_cell_volume                     3300.44
loop_
_atom_site_label
_atom_site_type_symbol
_atom_site_fract_x
_atom_site_fract_y
_atom_site_fract_z
Mg7 Mg 0.0000 0.0000 0.0000
Mg7_2 Mg 0.0000 0.0000 1.0000
Mg7_3 Mg 0.0000 1.0000 0.0000
Mg4 Mg 0.0000 0.99169(7) 0.7500
Mg7_4 Mg 0.0000 1.0000 1.0000
Mg7_5 Mg 1.0000 0.0000 0.0000
Mg6 Mg 0.0000 0.0000 0.5000
Mg7_6 Mg 1.0000 0.0000 1.0000
H15 H 0.5020 0.8791 0.0182
Mg5 Mg 0.5000 0.5000 0.0000
Mg7_7 Mg 1.0000 1.0000 0.0000
Mg1 Mg 0.5000 0.49169(7) 0.7500
Mg2 Mg 0.5000 0.5000 0.5000
O1 O 0.58799(15) 0.58415(14) 0.75518(16)
O2 O 0.57563(15) 0.59357(13) 0.59774(15)
O3 O 0.91706(14) 0.90533(13) 0.91490(15)
O4 O 0.91903(14) 0.89850(13) 0.76338(15)
O5 O 0.41553(12) 0.48161(12) 0.57755(14)
H1 H 0.3643(16) 0.5076(16) 0.543(2)
H2 H 0.407(2) 0.4312(11) 0.5740(11)
C1 C 0.60618(17) 0.61723(16) 0.6889(2)
C2 C 0.67375(18) 0.68976(16) 0.7234(2)
C3 C 0.75630(19) 0.67662(18) 0.8098(2)
H3 H 0.7664 0.6258 0.8473
C4 C 0.82505(19) 0.73884(18) 0.8415(2)
H4 H 0.8806 0.7287 0.8999
C5 C 0.81237(17) 0.81395(16) 0.78872(19)
C6 C 0.72647(17) 0.83208(17) 0.7019(2)
C7 C 0.7077(2) 0.91255(18) 0.6502(2)
H5 H 0.7533 0.9543 0.6714
C8 C 0.6241(2) 0.9295(2) 0.5701(3)
H6 H 0.6126 0.9827 0.5371
C9 C 0.5551(2) 0.8671(2) 0.5370(3)
H7 H 0.4980 0.8791 0.4818
C10 C 0.57060(19) 0.7889(2) 0.5846(2)
H8 H 0.5239 0.7482 0.5614
C11 C 0.65671(17) 0.76871(17) 0.6688(2)
C12 C 0.88857(17) 0.87817(16) 0.8247(2)
O6 O 0.41201(15) 0.58415(14) 0.74482(16)
O7 O 0.42437(15) 0.59357(13) 0.90226(15)
O8 O 0.08294(14) 0.90533(13) 0.58510(15)
O9 O 0.08097(14) 0.89850(13) 0.73662(15)
O10 O 0.58447(12) 0.48161(12) 0.92245(14)
H9 H 0.6357(16) 0.5076(16) 0.957(2)
H10 H 0.593(2) 0.4312(11) 0.9260(11)
C13 C 0.39382(17) 0.61723(16) 0.8111(2)
C14 C 0.32625(18) 0.68976(16) 0.7766(2)
C15 C 0.24370(19) 0.67662(18) 0.6902(2)
H11 H 0.2336 0.6258 0.6527
C16 C 0.17495(19) 0.73884(18) 0.6585(2)
H12 H 0.1194 0.7287 0.6001
C17 C 0.18763(17) 0.81395(16) 0.71128(19)
C18 C 0.27353(17) 0.83208(17) 0.7981(2)
C19 C 0.2923(2) 0.91255(18) 0.8498(2)
H13 H 0.2467 0.9543 0.8286
C20 C 0.3759(2) 0.9295(2) 0.9299(3)
H14 H 0.3874 0.9827 0.9629
C21 C 0.4449(2) 0.8671(2) 0.9630(3)
C22 C 0.42940(19) 0.7889(2) 0.9154(2)
H16 H 0.4761 0.7482 0.9386
C23 C 0.34329(17) 0.76871(17) 0.8312(2)
C24 C 0.11143(17) 0.87817(16) 0.6753(2)
Mg4_2 Mg 1.0000 0.99169(7) 0.7500
Mg5_2 Mg 0.5000 0.5000 1.0000
Mg6_2 Mg 0.0000 1.0000 0.5000
Mg7_8 Mg 1.0000 1.0000 1.0000
O11 O 0.42437(15) 0.40643(13) 0.40226(15)
O12 O 0.58294(14) 0.40533(13) 0.58510(15)
O13 O 0.41706(14) 0.59467(13) 0.41490(15)
O14 O 0.41903(14) 0.39850(13) 0.76338(15)
O15 O 0.58097(14) 0.39850(13) 0.73662(15)
O16 O 0.58447(12) 0.51839(12) 0.42245(14)
Mg6_3 Mg 1.0000 0.0000 0.5000
Mg6_4 Mg 1.0000 1.0000 0.5000
O11_2 O 0.57563(15) 0.40643(13) 0.09774(15)
O13_2 O 0.58294(14) 0.59467(13) 0.08510(15)
O16_2 O 0.41553(12) 0.51839(12) 0.07755(14)
O12_2 O 0.41706(14) 0.40533(13) 0.91490(15)
H15_2 H 0.0020 0.3791 0.0182
O1_2 O 0.08799(15) 0.08415(14) 0.75518(16)
O2_2 O 0.07563(15) 0.09357(13) 0.59774(15)
C1_2 C 0.10618(17) 0.11723(16) 0.6889(2)
C2_2 C 0.17375(18) 0.18976(16) 0.7234(2)
C3_2 C 0.25630(19) 0.17662(18) 0.8098(2)
H3_2 H 0.2664 0.1258 0.8473
C4_2 C 0.32505(19) 0.23884(18) 0.8415(2)
H4_2 H 0.3806 0.2287 0.8999
C5_2 C 0.31237(17) 0.31395(16) 0.78872(19)
C6_2 C 0.22647(17) 0.33208(17) 0.7019(2)
C7_2 C 0.2077(2) 0.41255(18) 0.6502(2)
H5_2 H 0.2533 0.4543 0.6714
C8_2 C 0.1241(2) 0.4295(2) 0.5701(3)
H6_2 H 0.1126 0.4827 0.5371
C9_2 C 0.0551(2) 0.3671(2) 0.5370(3)
C10_2 C 0.07060(19) 0.2889(2) 0.5846(2)
H8_2 H 0.0239 0.2482 0.5614
C11_2 C 0.15671(17) 0.26871(17) 0.6688(2)
C12_2 C 0.38857(17) 0.37817(16) 0.8247(2)
H9_2 H 0.1357(16) 0.0076(16) 0.957(2)
O16_3 O 0.08447(12) 0.01839(12) 0.42245(14)
O10_2 O 0.08447(12) 0.98161(12) 0.92245(14)
H10_2 H 0.093(2) 0.9312(11) 0.9260(11)
H1_2 H 0.8643(16) 0.0076(16) 0.543(2)
H7_2 H 0.9980 0.3791 0.4818
O6_2 O 0.91201(15) 0.08415(14) 0.74482(16)
O7_2 O 0.92437(15) 0.09357(13) 0.90226(15)
C13_2 C 0.89382(17) 0.11723(16) 0.8111(2)
C14_2 C 0.82625(18) 0.18976(16) 0.7766(2)
C15_2 C 0.74370(19) 0.17662(18) 0.6902(2)
H11_2 H 0.7336 0.1258 0.6527
C16_2 C 0.67495(19) 0.23884(18) 0.6585(2)
H12_2 H 0.6194 0.2287 0.6001
C17_2 C 0.68763(17) 0.31395(16) 0.71128(19)
C18_2 C 0.77353(17) 0.33208(17) 0.7981(2)
C19_2 C 0.7923(2) 0.41255(18) 0.8498(2)
H13_2 H 0.7467 0.4543 0.8286
C20_2 C 0.8759(2) 0.4295(2) 0.9299(3)
H14_2 H 0.8874 0.4827 0.9629
C21_2 C 0.9449(2) 0.3671(2) 0.9630(3)
C22_2 C 0.92940(19) 0.2889(2) 0.9154(2)
H16_2 H 0.9761 0.2482 0.9386
C23_2 C 0.84329(17) 0.26871(17) 0.8312(2)
C24_2 C 0.61143(17) 0.37817(16) 0.6753(2)
O13_3 O 0.91706(14) 0.09467(13) 0.41490(15)
O5_2 O 0.91553(12) 0.98161(12) 0.57755(14)
H2_2 H 0.907(2) 0.9312(11) 0.5740(11)
O11_3 O 0.92437(15) 0.90643(13) 0.40226(15)
O13_4 O 0.08294(14) 0.09467(13) 0.08510(15)
O11_4 O 0.07563(15) 0.90643(13) 0.09774(15)
O16_4 O 0.91553(12) 0.01839(12) 0.07755(14)
Mg3 Mg -0.0000 0.00831(7) 0.2500
Mg1_2 Mg 0.5000 0.50831(7) 0.2500
O1_3 O 0.41201(15) 0.41585(14) 0.24482(16)
O4_2 O 0.08097(14) 0.10150(13) 0.23662(15)
H1_3 H 0.6357(16) 0.4924(16) 0.457(2)
H2_3 H 0.593(2) 0.5688(11) 0.4260(11)
C1_3 C 0.39382(17) 0.38277(16) 0.3111(2)
C2_3 C 0.32625(18) 0.31024(16) 0.2766(2)
C3_3 C 0.24370(19) 0.32338(18) 0.1902(2)
H3_3 H 0.2336 0.3742 0.1527
C4_3 C 0.17495(19) 0.26116(18) 0.1585(2)
H4_3 H 0.1194 0.2713 0.1001
C5_3 C 0.18763(17) 0.18605(16) 0.21128(19)
C6_3 C 0.27353(17) 0.16792(17) 0.2981(2)
C7_3 C 0.2923(2) 0.08745(18) 0.3498(2)
H5_3 H 0.2467 0.0457 0.3286
C8_3 C 0.3759(2) 0.0705(2) 0.4299(3)
H6_3 H 0.3874 0.0173 0.4629
C9_3 C 0.4449(2) 0.1329(2) 0.4630(3)
H7_3 H 0.5020 0.1209 0.5182
C10_3 C 0.42940(19) 0.2111(2) 0.4154(2)
H8_3 H 0.4761 0.2518 0.4386
C11_3 C 0.34329(17) 0.23129(17) 0.3312(2)
C12_3 C 0.11143(17) 0.12183(16) 0.1753(2)
O6_3 O 0.58799(15) 0.41585(14) 0.25518(16)
O9_2 O 0.91903(14) 0.10150(13) 0.26338(15)
H9_3 H 0.3643(16) 0.4924(16) 0.043(2)
H10_3 H 0.407(2) 0.5688(11) 0.0740(11)
C13_3 C 0.60618(17) 0.38277(16) 0.1889(2)
C14_3 C 0.67375(18) 0.31024(16) 0.2234(2)
C15_3 C 0.75630(19) 0.32338(18) 0.3098(2)
H11_3 H 0.7664 0.3742 0.3473
C16_3 C 0.82505(19) 0.26116(18) 0.3415(2)
H12_3 H 0.8806 0.2713 0.3999
C17_3 C 0.81237(17) 0.18605(16) 0.28872(19)
C18_3 C 0.72647(17) 0.16792(17) 0.2019(2)
C19_3 C 0.7077(2) 0.08745(18) 0.1502(2)
H13_3 H 0.7533 0.0457 0.1714
C20_3 C 0.6241(2) 0.0705(2) 0.0701(3)
H14_3 H 0.6126 0.0173 0.0371
C21_3 C 0.5551(2) 0.1329(2) 0.0370(3)
C22_3 C 0.57060(19) 0.2111(2) 0.0846(2)
H16_3 H 0.5239 0.2518 0.0614
C23_3 C 0.65671(17) 0.23129(17) 0.1688(2)
C24_3 C 0.88857(17) 0.12183(16) 0.3247(2)
Mg3_2 Mg 1.0000 0.00831(7) 0.2500
O14_2 O 0.58097(14) 0.60150(13) 0.23662(15)
O15_2 O 0.41903(14) 0.60150(13) 0.26338(15)
H15_3 H 0.4980 0.1209 0.9818
H2_4 H 0.093(2) 0.0688(11) 0.4260(11)
H1_4 H 0.1357(16) 0.9924(16) 0.457(2)
H7_4 H 0.0020 0.6209 0.5182
O6_4 O 0.08799(15) 0.91585(14) 0.25518(16)
C13_4 C 0.10618(17) 0.88277(16) 0.1889(2)
C14_4 C 0.17375(18) 0.81024(16) 0.2234(2)
C15_4 C 0.25630(19) 0.82338(18) 0.3098(2)
H11_4 H 0.2664 0.8742 0.3473
C16_4 C 0.32505(19) 0.76116(18) 0.3415(2)
H12_4 H 0.3806 0.7713 0.3999
C17_4 C 0.31237(17) 0.68605(16) 0.28872(19)
C18_4 C 0.22647(17) 0.66792(17) 0.2019(2)
C19_4 C 0.2077(2) 0.58745(18) 0.1502(2)
H13_4 H 0.2533 0.5457 0.1714
C20_4 C 0.1241(2) 0.5705(2) 0.0701(3)
H14_4 H 0.1126 0.5173 0.0371
C21_4 C 0.0551(2) 0.6329(2) 0.0370(3)
C22_4 C 0.07060(19) 0.7111(2) 0.0846(2)
H16_4 H 0.0239 0.7518 0.0614
C23_4 C 0.15671(17) 0.73129(17) 0.1688(2)
C24_4 C 0.38857(17) 0.62183(16) 0.3247(2)
H10_4 H 0.907(2) 0.0688(11) 0.0740(11)
O1_4 O 0.91201(15) 0.91585(14) 0.24482(16)
C1_4 C 0.89382(17) 0.88277(16) 0.3111(2)
C2_4 C 0.82625(18) 0.81024(16) 0.2766(2)
C3_4 C 0.74370(19) 0.82338(18) 0.1902(2)
H3_4 H 0.7336 0.8742 0.1527
C4_4 C 0.67495(19) 0.76116(18) 0.1585(2)
H4_4 H 0.6194 0.7713 0.1001
C5_4 C 0.68763(17) 0.68605(16) 0.21128(19)
C6_4 C 0.77353(17) 0.66792(17) 0.2981(2)
C7_4 C 0.7923(2) 0.58745(18) 0.3498(2)
H5_4 H 0.7467 0.5457 0.3286
C8_4 C 0.8759(2) 0.5705(2) 0.4299(3)
H6_4 H 0.8874 0.5173 0.4629
C9_4 C 0.9449(2) 0.6329(2) 0.4630(3)
C10_4 C 0.92940(19) 0.7111(2) 0.4154(2)
H8_4 H 0.9761 0.7518 0.4386
C11_4 C 0.84329(17) 0.73129(17) 0.3312(2)
C12_4 C 0.61143(17) 0.62183(16) 0.1753(2)
H9_4 H 0.8643(16) 0.9924(16) 0.043(2)
H15_4 H 0.9980 0.6209 0.9818
loop_
_geom_bond_atom_site_label_1
_geom_bond_atom_site_label_2
_geom_bond_site_symmetry_1
_geom_bond_site_symmetry_2
Mg1 O1 1_555 1_555
Mg2 O2 1_555 1_555
O1 C1 1_555 1_555
O2 C1 1_555 1_555
O3 C12 1_555 1_555
O4 C12 1_555 1_555
O5 Mg1 1_555 1_555
H1 O5 1_555 1_555
H2 O5 1_555 1_555
C1 C2 1_555 1_555
C2 C3 1_555 1_555
C3 H3 1_555 1_555
C4 C3 1_555 1_555
H4 C4 1_555 1_555
C5 C4 1_555 1_555
C6 C5 1_555 1_555
C7 C6 1_555 1_555
H5 C7 1_555 1_555
C8 C7 1_555 1_555
H6 C8 1_555 1_555
C9 C8 1_555 1_555
H7 C9 1_555 1_555
C10 C9 1_555 1_555
H8 C10 1_555 1_555
C11 C2 1_555 1_555
C12 C5 1_555 1_555
O6 Mg1 1_555 1_555
O7 C13 1_555 1_555
O8 C24 1_555 1_555
O9 C24 1_555 1_555
O10 Mg1 1_555 1_555
H9 O10 1_555 1_555
H10 O10 1_555 1_555
C13 O6 1_555 1_555
C14 C13 1_555 1_555
C15 C14 1_555 1_555
H11 C15 1_555 1_555
C16 C15 1_555 1_555
H12 C16 1_555 1_555
C17 C16 1_555 1_555
C18 C17 1_555 1_555
C19 C18 1_555 1_555
H13 C19 1_555 1_555
C20 C19 1_555 1_555
H14 C20 1_555 1_555
C21 C20 1_555 1_555
C22 C21 1_555 1_555
H16 C22 1_555 1_555
C23 C14 1_555 1_555
C24 C17 1_555 1_555
Mg4 O9 1_555 1_555
Mg4_2 O4 1_555 1_555
Mg5_2 O7 1_555 1_555
Mg6_2 O8 1_555 1_555
Mg7_8 O3 1_555 1_555
O11 Mg2 1_555 1_555
O12 Mg2 1_555 1_555
O13 Mg2 1_555 1_555
O14 Mg1 1_555 1_555
O15 Mg1 1_555 1_555
O16 Mg2 1_555 1_555
Mg2 O5 1_555 1_555
C6 C11 1_555 1_555
C10 C11 1_555 1_555
O10 Mg5_2 1_555 1_555
C18 C23 1_555 1_555
C22 C23 1_555 1_555
O11_2 Mg5 1_555 1_555
O13_2 Mg5 1_555 1_555
O16_2 Mg5 1_555 1_555
O12_2 Mg5_2 1_555 1_555
Mg6 O2_2 1_555 1_555
O1_2 C1_2 1_555 1_555
O2_2 C1_2 1_555 1_555
O12_2 C12_2 1_555 1_555
O14 C12_2 1_555 1_555
C1_2 C2_2 1_555 1_555
C2_2 C3_2 1_555 1_555
C3_2 H3_2 1_555 1_555
C4_2 C3_2 1_555 1_555
H4_2 C4_2 1_555 1_555
C5_2 C4_2 1_555 1_555
C6_2 C5_2 1_555 1_555
C7_2 C6_2 1_555 1_555
H5_2 C7_2 1_555 1_555
C8_2 C7_2 1_555 1_555
H6_2 C8_2 1_555 1_555
C9_2 C8_2 1_555 1_555
C10_2 C9_2 1_555 1_555
H8_2 C10_2 1_555 1_555
C11_2 C2_2 1_555 1_555
C12_2 C5_2 1_555 1_555
O16_3 Mg6 1_555 1_555
C6_2 C11_2 1_555 1_555
C10_2 C11_2 1_555 1_555
O10_2 Mg4 1_555 1_555
H10_2 O10_2 1_555 1_555
O10_2 Mg7_4 1_555 1_555
O7_2 C13_2 1_555 1_555
O12 C24_2 1_555 1_555
O15 C24_2 1_555 1_555
C13_2 O6_2 1_555 1_555
C14_2 C13_2 1_555 1_555
C15_2 C14_2 1_555 1_555
H11_2 C15_2 1_555 1_555
C16_2 C15_2 1_555 1_555
H12_2 C16_2 1_555 1_555
C17_2 C16_2 1_555 1_555
C18_2 C17_2 1_555 1_555
C19_2 C18_2 1_555 1_555
H13_2 C19_2 1_555 1_555
C20_2 C19_2 1_555 1_555
H14_2 C20_2 1_555 1_555
C21_2 C20_2 1_555 1_555
C22_2 C21_2 1_555 1_555
H16_2 C22_2 1_555 1_555
C23_2 C14_2 1_555 1_555
C24_2 C17_2 1_555 1_555
Mg7_6 O7_2 1_555 1_555
O13_3 Mg6_3 1_555 1_555
C18_2 C23_2 1_555 1_555
C22_2 C23_2 1_555 1_555
O5_2 Mg4_2 1_555 1_555
H2_2 O5_2 1_555 1_555
O11_3 Mg6_4 1_555 1_555
Mg6_4 O5_2 1_555 1_555
O13_4 Mg7 1_555 1_555
O11_4 Mg7_3 1_555 1_555
O16_4 Mg7_5 1_555 1_555
Mg1_2 O1_3 1_555 1_555
O1_3 C1_3 1_555 1_555
O11 C1_3 1_555 1_555
O13_4 C12_3 1_555 1_555
O4_2 C12_3 1_555 1_555
O16 Mg1_2 1_555 1_555
H1_3 O16 1_555 1_555
H2_3 O16 1_555 1_555
C1_3 C2_3 1_555 1_555
C2_3 C3_3 1_555 1_555
C3_3 H3_3 1_555 1_555
C4_3 C3_3 1_555 1_555
H4_3 C4_3 1_555 1_555
C5_3 C4_3 1_555 1_555
C6_3 C5_3 1_555 1_555
C7_3 C6_3 1_555 1_555
H5_3 C7_3 1_555 1_555
C8_3 C7_3 1_555 1_555
H6_3 C8_3 1_555 1_555
C9_3 C8_3 1_555 1_555
H7_3 C9_3 1_555 1_555
C10_3 C9_3 1_555 1_555
H8_3 C10_3 1_555 1_555
C11_3 C2_3 1_555 1_555
C12_3 C5_3 1_555 1_555
O6_3 Mg1_2 1_555 1_555
O11_2 C13_3 1_555 1_555
O13_3 C24_3 1_555 1_555
O9_2 C24_3 1_555 1_555
O16_2 Mg1_2 1_555 1_555
H9_3 O16_2 1_555 1_555
H10_3 O16_2 1_555 1_555
C13_3 O6_3 1_555 1_555
C14_3 C13_3 1_555 1_555
C15_3 C14_3 1_555 1_555
H11_3 C15_3 1_555 1_555
C16_3 C15_3 1_555 1_555
H12_3 C16_3 1_555 1_555
C17_3 C16_3 1_555 1_555
C18_3 C17_3 1_555 1_555
C19_3 C18_3 1_555 1_555
H13_3 C19_3 1_555 1_555
C20_3 C19_3 1_555 1_555
H14_3 C20_3 1_555 1_555
C21_3 C20_3 1_555 1_555
C22_3 C21_3 1_555 1_555
H16_3 C22_3 1_555 1_555
C23_3 C14_3 1_555 1_555
C24_3 C17_3 1_555 1_555
Mg3_2 O9_2 1_555 1_555
Mg3 O4_2 1_555 1_555
O14_2 Mg1_2 1_555 1_555
O15_2 Mg1_2 1_555 1_555
C6_3 C11_3 1_555 1_555
C10_3 C11_3 1_555 1_555
C18_3 C23_3 1_555 1_555
C22_3 C23_3 1_555 1_555
O16_3 Mg3 1_555 1_555
H2_4 O16_3 1_555 1_555
O11_4 C13_4 1_555 1_555
O13 C24_4 1_555 1_555
O15_2 C24_4 1_555 1_555
C13_4 O6_4 1_555 1_555
C14_4 C13_4 1_555 1_555
C15_4 C14_4 1_555 1_555
H11_4 C15_4 1_555 1_555
C16_4 C15_4 1_555 1_555
H12_4 C16_4 1_555 1_555
C17_4 C16_4 1_555 1_555
C18_4 C17_4 1_555 1_555
C19_4 C18_4 1_555 1_555
H13_4 C19_4 1_555 1_555
C20_4 C19_4 1_555 1_555
H14_4 C20_4 1_555 1_555
C21_4 C20_4 1_555 1_555
C22_4 C21_4 1_555 1_555
H16_4 C22_4 1_555 1_555
C23_4 C14_4 1_555 1_555
C24_4 C17_4 1_555 1_555
C18_4 C23_4 1_555 1_555
C22_4 C23_4 1_555 1_555
O16_4 Mg3_2 1_555 1_555
H10_4 O16_4 1_555 1_555
O1_4 C1_4 1_555 1_555
O11_3 C1_4 1_555 1_555
O13_2 C12_4 1_555 1_555
O14_2 C12_4 1_555 1_555
C1_4 C2_4 1_555 1_555
C2_4 C3_4 1_555 1_555
C3_4 H3_4 1_555 1_555
C4_4 C3_4 1_555 1_555
H4_4 C4_4 1_555 1_555
C5_4 C4_4 1_555 1_555
C6_4 C5_4 1_555 1_555
C7_4 C6_4 1_555 1_555
H5_4 C7_4 1_555 1_555
C8_4 C7_4 1_555 1_555
H6_4 C8_4 1_555 1_555
C9_4 C8_4 1_555 1_555
C10_4 C9_4 1_555 1_555
H8_4 C10_4 1_555 1_555
C11_4 C2_4 1_555 1_555
C12_4 C5_4 1_555 1_555
C6_4 C11_4 1_555 1_555
C10_4 C11_4 1_555 1_555

#END
