
###############################################################################
#
# This file contains modified crystal structure data generated from the
# MOF subset of the Cambridge Structural Database (CSD) v543 
# hosted by the Cambridge Crystallographic Data Centre (CCDC).
#
# This work is licensed under the Creative Commons
# Attribution-NonCommercial-ShareAlike 4.0 International License.
# To view a copy of this license, visit
# http://creativecommons.org/licenses/by-nc-sa/4.0/
# or send a letter to
# Creative Commons, PO Box 1866, Mountain View, CA 94042, USA.
#
# CIF created using the CSD Python API on 29 September 2022
# The structure has been converted into the P1 space group
# The structure has a 3D framework
# The original CSD entry RAFPUN is in the monoclinic crystal system
# The framework has been calculated to contain at least 10.0% void space
# The void calculation uses a probe of radius 1.32A, grid spacing 0.4
#
###############################################################################

data_RAFPUN
_chemical_formula_moiety         '(C108 H72 N24 Ni4 O16)n'
_symmetry_cell_setting           triclinic
_symmetry_space_group_name_H-M   'P 1'
_symmetry_Int_Tables_number      1
_space_group_name_Hall           'P 1'
loop_
_symmetry_equiv_pos_site_id
_symmetry_equiv_pos_as_xyz
1 x,y,z
_cell_length_a                   10.4220(7)
_cell_length_b                   24.3560(18)
_cell_length_c                   13.0680(10)
_cell_angle_alpha                90
_cell_angle_beta                 112.6770(10)
_cell_angle_gamma                90
_cell_volume                     3060.72
loop_
_atom_site_label
_atom_site_type_symbol
_atom_site_fract_x
_atom_site_fract_y
_atom_site_fract_z
N3 N 0.7592(3) 0.35723(13) 0.1421(3)
C10 C 0.6674(4) 0.37418(17) 0.0461(3)
H7 H 0.5777 0.3856 0.0345
C11 C 0.8735(5) 0.3439(2) 0.1230(4)
H8 H 0.9554 0.3304 0.1763
C12 C 0.8527(5) 0.3529(2) 0.0155(4)
Ni2 Ni 0.71717(5) 0.349060(17) 0.28470(3)
N1 N 0.6725(3) 0.33252(13) 0.4266(3)
N2 N 0.6228(4) 0.34280(12) 0.5751(3)
N4 N 0.7209(3) 0.37272(13) 0.9661(3)
N5 N 0.2964(3) 0.56783(12) 0.6919(3)
N6 N 0.3803(3) 0.48528(12) 0.6872(3)
O1 O 0.5249(3) 0.32026(12) 0.1896(2)
O2 O 0.3930(4) 0.39032(14) 0.1031(4)
C1 C 0.4975(4) 0.41223(15) 0.6315(3)
H1 H 0.4464 0.4205 0.5574
C2 C 0.5954(4) 0.37068(15) 0.6614(3)
C3 C 0.6694(4) 0.35626(15) 0.7711(3)
H2 H 0.7319 0.3271 0.7894
C4 C 0.6474(4) 0.38676(15) 0.8533(3)
C5 C 0.5530(4) 0.42923(15) 0.8259(3)
H3 H 0.5398 0.4496 0.8813
C6 C 0.4780(4) 0.44129(15) 0.7157(3)
C7 C 0.6413(4) 0.36791(16) 0.4897(3)
H4 H 0.6330 0.4056 0.4769
C8 C 0.6727(5) 0.28208(16) 0.4750(3)
H5 H 0.6908 0.2489 0.4480
C9 C 0.6435(5) 0.28717(16) 0.5660(4)
H6 H 0.6382 0.2593 0.6129
H9 H 0.9157 0.3468 0.9821
C13 C 0.4032(4) 0.53509(15) 0.7369(3)
H10 H 0.4846 0.5448 0.7958
C14 C 0.1997(5) 0.53785(16) 0.6096(4)
H11 H 0.1122 0.5505 0.5635
C15 C 0.2502(5) 0.48701(17) 0.6052(4)
H12 H 0.2054 0.4589 0.5562
C16 C 0.4114(4) 0.34096(17) 0.1288(4)
C19 C 0.1483(4) 0.21967(15) 0.0606(3)
C20 C 0.1260(5) 0.17083(17) 0.1115(3)
H13 H 0.0493 0.1489 0.0732
C21 C 0.2137(5) 0.15553(19) 0.2144(4)
H14 H 0.1971 0.1234 0.2457
C22 C 0.3294(5) 0.1879(2) 0.2738(4)
H15 H 0.3888 0.1773 0.3446
C23 C 0.3559(4) 0.23473(18) 0.2292(3)
H16 H 0.4337 0.2555 0.2700
C24 C 0.2676(4) 0.25274(16) 0.1217(3)
C25 C 0.2884(4) 0.30283(16) 0.0738(3)
Ni3 Ni 0.28283(5) 0.650940(17) 0.71530(3)
N8 N 0.7036(3) 0.43217(12) 0.3081(3)
O5 O 0.9327(3) 0.34680(10) 0.3836(2)
O6 O 0.8246(3) 0.26899(10) 0.3206(2)
O3 O 0.0673(3) 0.65320(10) 0.6164(2)
O4 O 0.1754(3) 0.73101(10) 0.6794(2)
C17 C 0.0687(4) 0.70539(15) 0.6181(3)
N1_2 N 0.3275(3) 0.66748(13) 0.5734(3)
N2_2 N 0.3772(4) 0.65720(12) 0.4249(3)
N4_2 N 0.2791(3) 0.62728(13) 0.0339(3)
N6_2 N 0.6197(3) 0.51472(12) 0.3128(3)
O1_2 O 0.4751(3) 0.67974(12) 0.8104(2)
O2_2 O 0.6070(4) 0.60968(14) 0.8969(4)
C1_2 C 0.5025(4) 0.58777(15) 0.3685(3)
H1_2 H 0.5536 0.5795 0.4426
C2_2 C 0.4046(4) 0.62932(15) 0.3386(3)
C3_2 C 0.3306(4) 0.64374(15) 0.2289(3)
H2_2 H 0.2681 0.6729 0.2106
C4_2 C 0.3526(4) 0.61324(15) 0.1467(3)
C5_2 C 0.4470(4) 0.57077(15) 0.1741(3)
H3_2 H 0.4602 0.5504 0.1187
C6_2 C 0.5220(4) 0.55871(15) 0.2843(3)
C7_2 C 0.3587(4) 0.63209(16) 0.5103(3)
H4_2 H 0.3670 0.5944 0.5231
C8_2 C 0.3273(5) 0.71792(16) 0.5250(3)
H5_2 H 0.3092 0.7511 0.5520
C9_2 C 0.3565(5) 0.71283(16) 0.4340(4)
H6_2 H 0.3618 0.7407 0.3871
H9_2 H 0.0843 0.6532 0.0179
C13_2 C 0.5968(4) 0.46491(15) 0.2631(3)
H10_2 H 0.5154 0.4552 0.2042
C14_2 C 0.8003(5) 0.46215(16) 0.3904(4)
H11_2 H 0.8878 0.4495 0.4365
C15_2 C 0.7498(5) 0.51299(17) 0.3948(4)
H12_2 H 0.7946 0.5411 0.4438
C16_2 C 0.5886(4) 0.65904(17) 0.8712(4)
C19_2 C 0.8517(4) 0.78033(15) 0.9394(3)
C20_2 C 0.8740(5) 0.82917(17) 0.8885(3)
H13_2 H 0.9507 0.8511 0.9268
C21_2 C 0.7863(5) 0.84447(19) 0.7856(4)
H14_2 H 0.8029 0.8766 0.7543
C22_2 C 0.6706(5) 0.8121(2) 0.7262(4)
H15_2 H 0.6112 0.8227 0.6554
C23_2 C 0.6441(4) 0.76527(18) 0.7708(3)
H16_2 H 0.5663 0.7445 0.7300
C24_2 C 0.7324(4) 0.74726(16) 0.8783(3)
C25_2 C 0.7116(4) 0.69717(16) 0.9262(3)
N7 N 0.2408(3) 0.64277(13) 0.8579(3)
C10_2 C 0.3326(4) 0.62582(17) 0.9539(3)
H7_2 H 0.4223 0.6144 0.9655
C11_2 C 0.1265(5) 0.6561(2) 0.8770(4)
H8_2 H 0.0446 0.6696 0.8237
C12_2 C 0.1473(5) 0.6471(2) 0.9845(4)
C17_2 C 0.9313(4) 0.29461(15) 0.3819(3)
C18 C 0.0574(4) 0.23753(15) 0.9529(3)
C26 C 0.1960(4) 0.31853(17) 0.9716(4)
H17 H 0.2094 0.3518 0.9422
C27 C 0.0821(4) 0.28610(16) 0.9101(3)
H18 H 0.0225 0.2974 0.8399
O3_2 O 0.9327(3) 0.15320(10) 0.8836(2)
O4_2 O 0.8246(3) 0.23101(10) 0.8206(2)
C17_3 C 0.9313(4) 0.20539(15) 0.8819(3)
Ni4 Ni 0.71717(5) 0.150940(17) 0.78470(3)
N5_2 N 0.7036(3) 0.06783(12) 0.8081(3)
C13_3 C 0.5968(4) 0.03509(15) 0.7631(3)
H10_3 H 0.5154 0.0448 0.7042
C14_3 C 0.8003(5) 0.03785(16) 0.8904(4)
H11_3 H 0.8878 0.0505 0.9365
N2_3 N 0.6228(4) 0.15720(12) 0.0751(3)
N3_2 N 0.7592(3) 0.14277(13) 0.6421(3)
N4_3 N 0.7209(3) 0.12728(13) 0.4661(3)
N6_3 N 0.3803(3) 0.01472(12) 0.1872(3)
C1_3 C 0.4975(4) 0.08777(15) 0.1315(3)
H1_3 H 0.4464 0.0795 0.0574
C2_3 C 0.5954(4) 0.12932(15) 0.1614(3)
C3_3 C 0.6694(4) 0.14374(15) 0.2711(3)
H2_3 H 0.7319 0.1729 0.2894
C4_3 C 0.6474(4) 0.11324(15) 0.3533(3)
C5_3 C 0.5530(4) 0.07077(15) 0.3259(3)
H3_3 H 0.5398 0.0504 0.3813
C6_3 C 0.4780(4) 0.05871(15) 0.2157(3)
C9_3 C 0.6435(5) 0.21283(16) 0.0660(4)
H6_3 H 0.6382 0.2407 0.1129
C10_3 C 0.6674(4) 0.12582(17) 0.5461(3)
H7_3 H 0.5777 0.1144 0.5345
C11_3 C 0.8735(5) 0.1561(2) 0.6230(4)
H8_3 H 0.9554 0.1696 0.6763
C12_3 C 0.8527(5) 0.1471(2) 0.5155(4)
H9_3 H 0.9157 0.1532 0.4821
C15_3 C 0.2502(5) 0.01299(17) 0.1052(4)
H12_3 H 0.2054 0.0411 0.0562
N1_3 N 0.6725(3) 0.16748(13) 0.9266(3)
O1_3 O 0.5249(3) 0.17974(12) 0.6896(2)
O2_3 O 0.3930(4) 0.10968(14) 0.6031(4)
C7_3 C 0.6413(4) 0.13209(16) 0.9897(3)
H4_3 H 0.6330 0.0944 0.9769
C8_3 C 0.6727(5) 0.21792(16) 0.9750(3)
H5_3 H 0.6908 0.2511 0.9480
C16_3 C 0.4114(4) 0.15904(17) 0.6288(4)
C18_2 C 0.0574(4) 0.26247(15) 0.4529(3)
C19_3 C 0.1483(4) 0.28033(15) 0.5606(3)
C20_3 C 0.1260(5) 0.32917(17) 0.6115(3)
H13_3 H 0.0493 0.3511 0.5732
C21_3 C 0.2137(5) 0.34447(19) 0.7144(4)
H14_3 H 0.1971 0.3766 0.7457
C22_3 C 0.3294(5) 0.3121(2) 0.7738(4)
H15_3 H 0.3888 0.3227 0.8446
C23_3 C 0.3559(4) 0.26527(18) 0.7292(3)
H16_3 H 0.4337 0.2445 0.7700
C24_3 C 0.2676(4) 0.24726(16) 0.6217(3)
C25_3 C 0.2884(4) 0.19717(16) 0.5738(3)
C26_2 C 0.1960(4) 0.18147(17) 0.4716(4)
H17_2 H 0.2094 0.1482 0.4422
C27_2 C 0.0821(4) 0.21390(16) 0.4101(3)
H18_2 H 0.0225 0.2026 0.3399
Ni1 Ni 0.28283(5) 0.849060(17) 0.21530(3)
N1_4 N 0.3275(3) 0.83252(13) 0.0734(3)
O1_4 O 0.4751(3) 0.82026(12) 0.3104(2)
O2_4 O 0.6070(4) 0.89032(14) 0.3969(4)
C7_4 C 0.3587(4) 0.86791(16) 0.0103(3)
H4_4 H 0.3670 0.9056 0.0231
C8_4 C 0.3273(5) 0.78208(16) 0.0250(3)
H5_4 H 0.3092 0.7489 0.0520
C16_4 C 0.5886(4) 0.84096(17) 0.3712(4)
C18_3 C 0.9426(4) 0.73753(15) 0.5471(3)
C19_4 C 0.8517(4) 0.71967(15) 0.4394(3)
C20_4 C 0.8740(5) 0.67083(17) 0.3885(3)
H13_4 H 0.9507 0.6489 0.4268
C21_4 C 0.7863(5) 0.65553(19) 0.2856(4)
H14_4 H 0.8029 0.6234 0.2543
C22_4 C 0.6706(5) 0.6879(2) 0.2262(4)
H15_4 H 0.6112 0.6773 0.1554
C23_4 C 0.6441(4) 0.73473(18) 0.2708(3)
H16_4 H 0.5663 0.7555 0.2300
C24_4 C 0.7324(4) 0.75274(16) 0.3783(3)
C25_4 C 0.7116(4) 0.80283(16) 0.4262(3)
C26_3 C 0.8040(4) 0.81853(17) 0.5284(4)
H17_3 H 0.7906 0.8518 0.5578
C27_3 C 0.9179(4) 0.78610(16) 0.5899(3)
H18_3 H 0.9775 0.7974 0.6601
N7_2 N 0.2408(3) 0.85723(13) 0.3579(3)
N8_2 N 0.2964(3) 0.93217(12) 0.1919(3)
O5_2 O 0.0673(3) 0.84680(10) 0.1164(2)
O6_2 O 0.1754(3) 0.76899(10) 0.1794(2)
N2_4 N 0.3772(4) 0.84280(12) 0.9249(3)
N4_4 N 0.2791(3) 0.87272(13) 0.5339(3)
N6_4 N 0.6197(3) 0.98528(12) 0.8128(3)
C1_4 C 0.5025(4) 0.91223(15) 0.8685(3)
H1_4 H 0.5536 0.9205 0.9426
C2_4 C 0.4046(4) 0.87068(15) 0.8386(3)
C3_4 C 0.3306(4) 0.85626(15) 0.7289(3)
H2_4 H 0.2681 0.8271 0.7106
C4_4 C 0.3526(4) 0.88676(15) 0.6467(3)
C5_4 C 0.4470(4) 0.92923(15) 0.6741(3)
H3_4 H 0.4602 0.9496 0.6187
C6_4 C 0.5220(4) 0.94129(15) 0.7843(3)
C9_4 C 0.3565(5) 0.78717(16) 0.9340(4)
H6_4 H 0.3618 0.7593 0.8871
C10_4 C 0.3326(4) 0.87418(17) 0.4539(3)
H7_4 H 0.4223 0.8856 0.4655
C11_4 C 0.1265(5) 0.8439(2) 0.3770(4)
H8_4 H 0.0446 0.8304 0.3237
C12_4 C 0.1473(5) 0.8529(2) 0.4845(4)
H9_4 H 0.0843 0.8468 0.5179
C15_4 C 0.7498(5) 0.98701(17) 0.8948(4)
H12_4 H 0.7946 0.9589 0.9438
C17_4 C 0.0687(4) 0.79461(15) 0.1181(3)
C13_4 C 0.4032(4) 0.96491(15) 0.2369(3)
H10_4 H 0.4846 0.9552 0.2958
C14_4 C 0.1997(5) 0.96215(16) 0.1096(4)
H11_4 H 0.1122 0.9495 0.0635
C18_4 C 0.9426(4) 0.76247(15) 0.0471(3)
C26_4 C 0.8040(4) 0.68147(17) 0.0284(4)
H17_4 H 0.7906 0.6482 0.0578
C27_4 C 0.9179(4) 0.71390(16) 0.0899(3)
H18_4 H 0.9775 0.7026 0.1601
loop_
_geom_bond_atom_site_label_1
_geom_bond_atom_site_label_2
_geom_bond_site_symmetry_1
_geom_bond_site_symmetry_2
N3 C10 1_555 1_555
H7 C10 1_555 1_555
C11 N3 1_555 1_555
H8 C11 1_555 1_555
Ni2 N3 1_555 1_555
C11 C12 1_555 1_555
Ni2 N1 1_555 1_555
N1 C7 1_555 1_555
N2 C2 1_555 1_555
N4 C4 1_555 1_555
N5 C13 1_555 1_555
N6 C6 1_555 1_555
O1 Ni2 1_555 1_555
O2 C16 1_555 1_555
C1 H1 1_555 1_555
C2 C1 1_555 1_555
C3 C2 1_555 1_555
H2 C3 1_555 1_555
C4 C3 1_555 1_555
C5 C4 1_555 1_555
H3 C5 1_555 1_555
C6 C1 1_555 1_555
C7 N2 1_555 1_555
H4 C7 1_555 1_555
C8 N1 1_555 1_555
H5 C8 1_555 1_555
C9 N2 1_555 1_555
H6 C9 1_555 1_555
C13 N6 1_555 1_555
H10 C13 1_555 1_555
C14 N5 1_555 1_555
H11 C14 1_555 1_555
C15 N6 1_555 1_555
H12 C15 1_555 1_555
C16 O1 1_555 1_555
C19 C20 1_555 1_555
C20 H13 1_555 1_555
C21 C20 1_555 1_555
H14 C21 1_555 1_555
C22 C21 1_555 1_555
H15 C22 1_555 1_555
C23 C22 1_555 1_555
H16 C23 1_555 1_555
C24 C19 1_555 1_555
C25 C16 1_555 1_555
Ni3 N5 1_555 1_555
N8 Ni2 1_555 1_555
O5 Ni2 1_555 1_555
O6 Ni2 1_555 1_555
C5 C6 1_555 1_555
C8 C9 1_555 1_555
C14 C15 1_555 1_555
C23 C24 1_555 1_555
C24 C25 1_555 1_555
O3 C17 1_555 1_555
O4 C17 1_555 1_555
Ni3 O3 1_555 1_555
O4 Ni3 1_555 1_555
Ni3 N1_2 1_555 1_555
N1_2 C7_2 1_555 1_555
N2_2 C2_2 1_555 1_555
N4_2 C4_2 1_555 1_555
N8 C13_2 1_555 1_555
N6_2 C6_2 1_555 1_555
O1_2 Ni3 1_555 1_555
O2_2 C16_2 1_555 1_555
C1_2 H1_2 1_555 1_555
C2_2 C1_2 1_555 1_555
C3_2 C2_2 1_555 1_555
H2_2 C3_2 1_555 1_555
C4_2 C3_2 1_555 1_555
C5_2 C4_2 1_555 1_555
H3_2 C5_2 1_555 1_555
C6_2 C1_2 1_555 1_555
C7_2 N2_2 1_555 1_555
H4_2 C7_2 1_555 1_555
C8_2 N1_2 1_555 1_555
H5_2 C8_2 1_555 1_555
C9_2 N2_2 1_555 1_555
H6_2 C9_2 1_555 1_555
C13_2 N6_2 1_555 1_555
H10_2 C13_2 1_555 1_555
C14_2 N8 1_555 1_555
H11_2 C14_2 1_555 1_555
C15_2 N6_2 1_555 1_555
H12_2 C15_2 1_555 1_555
C16_2 O1_2 1_555 1_555
C19_2 C20_2 1_555 1_555
C20_2 H13_2 1_555 1_555
C21_2 C20_2 1_555 1_555
H14_2 C21_2 1_555 1_555
C22_2 C21_2 1_555 1_555
H15_2 C22_2 1_555 1_555
C23_2 C22_2 1_555 1_555
H16_2 C23_2 1_555 1_555
C24_2 C19_2 1_555 1_555
C25_2 C16_2 1_555 1_555
N7 Ni3 1_555 1_555
C5_2 C6_2 1_555 1_555
C8_2 C9_2 1_555 1_555
C14_2 C15_2 1_555 1_555
C23_2 C24_2 1_555 1_555
C24_2 C25_2 1_555 1_555
N7 C10_2 1_555 1_555
H7_2 C10_2 1_555 1_555
C11_2 N7 1_555 1_555
H8_2 C11_2 1_555 1_555
C11_2 C12_2 1_555 1_555
O5 C17_2 1_555 1_555
O6 C17_2 1_555 1_555
H17 C26 1_555 1_555
C27 C18 1_555 1_555
H18 C27 1_555 1_555
C26 C27 1_555 1_555
O3_2 C17_3 1_555 1_555
O4_2 C17_3 1_555 1_555
Ni4 O3_2 1_555 1_555
O4_2 Ni4 1_555 1_555
N5_2 C13_3 1_555 1_555
H10_3 C13_3 1_555 1_555
C14_3 N5_2 1_555 1_555
H11_3 C14_3 1_555 1_555
Ni4 N5_2 1_555 1_555
N2_3 C2_3 1_555 1_555
N3_2 C10_3 1_555 1_555
N4_3 C4_3 1_555 1_555
N6_3 C6_3 1_555 1_555
C1_3 H1_3 1_555 1_555
C2_3 C1_3 1_555 1_555
C3_3 C2_3 1_555 1_555
H2_3 C3_3 1_555 1_555
C4_3 C3_3 1_555 1_555
C5_3 C4_3 1_555 1_555
H3_3 C5_3 1_555 1_555
C6_3 C1_3 1_555 1_555
C9_3 N2_3 1_555 1_555
H6_3 C9_3 1_555 1_555
C10_3 N4_3 1_555 1_555
H7_3 C10_3 1_555 1_555
C11_3 N3_2 1_555 1_555
H8_3 C11_3 1_555 1_555
C12_3 N4_3 1_555 1_555
H9_3 C12_3 1_555 1_555
C15_3 N6_3 1_555 1_555
H12_3 C15_3 1_555 1_555
Ni4 N3_2 1_555 1_555
C5_3 C6_3 1_555 1_555
C11_3 C12_3 1_555 1_555
Ni4 N1_3 1_555 1_555
N1_3 C7_3 1_555 1_555
O1_3 Ni4 1_555 1_555
O2_3 C16_3 1_555 1_555
H4_3 C7_3 1_555 1_555
C8_3 N1_3 1_555 1_555
H5_3 C8_3 1_555 1_555
C16_3 O1_3 1_555 1_555
C18_2 C19_3 1_555 1_555
C19_3 C20_3 1_555 1_555
C20_3 H13_3 1_555 1_555
C21_3 C20_3 1_555 1_555
H14_3 C21_3 1_555 1_555
C22_3 C21_3 1_555 1_555
H15_3 C22_3 1_555 1_555
C23_3 C22_3 1_555 1_555
H16_3 C23_3 1_555 1_555
C24_3 C19_3 1_555 1_555
C25_3 C16_3 1_555 1_555
C26_2 C25_3 1_555 1_555
H17_2 C26_2 1_555 1_555
C27_2 C18_2 1_555 1_555
H18_2 C27_2 1_555 1_555
C23_3 C24_3 1_555 1_555
C24_3 C25_3 1_555 1_555
C26_2 C27_2 1_555 1_555
Ni1 N1_4 1_555 1_555
N1_4 C7_4 1_555 1_555
O1_4 Ni1 1_555 1_555
O2_4 C16_4 1_555 1_555
H4_4 C7_4 1_555 1_555
C8_4 N1_4 1_555 1_555
H5_4 C8_4 1_555 1_555
C16_4 O1_4 1_555 1_555
C18_3 C19_4 1_555 1_555
C19_4 C20_4 1_555 1_555
C20_4 H13_4 1_555 1_555
C21_4 C20_4 1_555 1_555
H14_4 C21_4 1_555 1_555
C22_4 C21_4 1_555 1_555
H15_4 C22_4 1_555 1_555
C23_4 C22_4 1_555 1_555
H16_4 C23_4 1_555 1_555
C24_4 C19_4 1_555 1_555
C25_4 C16_4 1_555 1_555
C26_3 C25_4 1_555 1_555
H17_3 C26_3 1_555 1_555
C27_3 C18_3 1_555 1_555
H18_3 C27_3 1_555 1_555
N7_2 Ni1 1_555 1_555
N8_2 Ni1 1_555 1_555
O5_2 Ni1 1_555 1_555
O6_2 Ni1 1_555 1_555
C23_4 C24_4 1_555 1_555
C24_4 C25_4 1_555 1_555
C26_3 C27_3 1_555 1_555
N2_4 C2_4 1_555 1_555
N7_2 C10_4 1_555 1_555
N4_4 C4_4 1_555 1_555
N6_4 C6_4 1_555 1_555
C1_4 H1_4 1_555 1_555
C2_4 C1_4 1_555 1_555
C3_4 C2_4 1_555 1_555
H2_4 C3_4 1_555 1_555
C4_4 C3_4 1_555 1_555
C5_4 C4_4 1_555 1_555
H3_4 C5_4 1_555 1_555
C6_4 C1_4 1_555 1_555
C9_4 N2_4 1_555 1_555
H6_4 C9_4 1_555 1_555
C10_4 N4_4 1_555 1_555
H7_4 C10_4 1_555 1_555
C11_4 N7_2 1_555 1_555
H8_4 C11_4 1_555 1_555
C12_4 N4_4 1_555 1_555
H9_4 C12_4 1_555 1_555
C15_4 N6_4 1_555 1_555
H12_4 C15_4 1_555 1_555
C5_4 C6_4 1_555 1_555
C11_4 C12_4 1_555 1_555
O5_2 C17_4 1_555 1_555
O6_2 C17_4 1_555 1_555
N8_2 C13_4 1_555 1_555
H10_4 C13_4 1_555 1_555
C14_4 N8_2 1_555 1_555
H11_4 C14_4 1_555 1_555
H17_4 C26_4 1_555 1_555
C27_4 C18_4 1_555 1_555
H18_4 C27_4 1_555 1_555
C26_4 C27_4 1_555 1_555

#END
