
###############################################################################
#
# This file contains modified crystal structure data generated from the
# MOF subset of the Cambridge Structural Database (CSD) v543 
# hosted by the Cambridge Crystallographic Data Centre (CCDC).
#
# This work is licensed under the Creative Commons
# Attribution-NonCommercial-ShareAlike 4.0 International License.
# To view a copy of this license, visit
# http://creativecommons.org/licenses/by-nc-sa/4.0/
# or send a letter to
# Creative Commons, PO Box 1866, Mountain View, CA 94042, USA.
#
# CIF created using the CSD Python API on 29 September 2022
# The structure has been converted into the P1 space group
# The structure has a 3D framework
# The original CSD entry RAFVAZ is in the monoclinic crystal system
# The framework has been calculated to contain at least 10.0% void space
# The void calculation uses a probe of radius 1.32A, grid spacing 0.4
# The framework is charged, counterions have been retained in the structure
#
###############################################################################

data_RAFVAZ
_chemical_formula_moiety         '(C104 H72 N4 O70 S16 Sc12)n'
_symmetry_cell_setting           triclinic
_symmetry_space_group_name_H-M   'P 1'
_symmetry_Int_Tables_number      1
_space_group_name_Hall           'P 1'
loop_
_symmetry_equiv_pos_site_id
_symmetry_equiv_pos_as_xyz
1 x,y,z
_cell_length_a                   10.8919(4)
_cell_length_b                   18.9016(4)
_cell_length_c                   19.2160(5)
_cell_angle_alpha                90
_cell_angle_beta                 99.915(3)
_cell_angle_gamma                90
_cell_volume                     3896.99
loop_
_atom_site_label
_atom_site_type_symbol
_atom_site_fract_x
_atom_site_fract_y
_atom_site_fract_z
Sc1 Sc 0.38584(5) 0.05250(2) 0.09054(2)
Sc2 Sc 0.24853(5) 0.04466(3) 0.25221(2)
Sc3 Sc 0.11592(5) 0.05249(3) 0.41374(2)
O1 O 0.40158(18) 0.05772(10) 0.19991(9)
H1 H 0.432(2) 0.1006(8) 0.2121(9)
O2 O 0.10225(18) 0.04507(10) 0.30575(9)
H2 H 0.0435(17) 0.0753(12) 0.2861(8)
O3 O 0.51054(19) 0.13500(10) 0.09006(10)
O4 O 0.5196(3) 0.18322(12) 0.19676(12)
O5 O 0.6601(2) 0.47198(11) 0.17402(10)
O6 O 0.7266(2) 0.48531(10) 0.07097(10)
C1 C 0.5332(3) 0.18573(16) 0.13400(16)
C2 C 0.5778(3) 0.25243(15) 0.10716(15)
C3 C 0.6018(3) 0.26847(16) 0.04114(16)
H3 H 0.593366 0.235717 0.003111
C4 C 0.6402(3) 0.33895(17) 0.03640(16)
C5 C 0.6438(3) 0.37513(16) 0.09802(15)
C6 C 0.6797(3) 0.44934(15) 0.11507(15)
S1 S 0.60122(8) 0.32350(4) 0.16299(4)
O7 O 0.24423(19) 0.13157(10) 0.08500(10)
O8 O 0.14645(19) 0.11061(10) 0.17628(10)
O10 O 0.13206(19) 0.43379(10) 0.02223(9)
C7 C 0.1746(3) 0.14999(14) 0.12789(14)
C8 C 0.1216(3) 0.22189(14) 0.12299(14)
C9 C 0.0373(3) 0.24825(16) 0.16197(15)
H5 H 0.002931 0.221514 0.195813
C10 C 0.0081(3) 0.31935(15) 0.14585(15)
C11 C 0.0701(3) 0.34581(14) 0.09522(14)
C12 C 0.0618(3) 0.41806(14) 0.06558(13)
S2 S 0.16492(7) 0.28360(3) 0.06642(3)
O11 O 0.3264(2) 0.12810(10) 0.31644(10)
O12 O 0.2284(2) 0.14571(10) 0.40866(10)
O13 O 0.36205(19) 0.44866(10) 0.48117(9)
O14 O 0.47175(19) 0.47775(10) 0.39816(10)
C13 C 0.2952(3) 0.16583(15) 0.36498(14)
C14 C 0.3443(3) 0.23877(15) 0.36972(14)
C15 C 0.4237(3) 0.26661(17) 0.32805(17)
H7 H 0.454368 0.240757 0.292277
C16 C 0.4537(3) 0.33744(16) 0.34459(16)
H8 H 0.507213 0.365034 0.321261
C17 C 0.3972(3) 0.36251(14) 0.39826(14)
C18 C 0.4116(3) 0.43419(14) 0.42824(13)
S3 S 0.30770(7) 0.29905(4) 0.42947(3)
Sc5 Sc 0.61416(5) 0.55250(2) 0.40946(2)
Sc6 Sc 0.38584(5) 0.44750(2) 0.59054(2)
Sc8 Sc 0.75147(5) 0.54466(3) 0.24779(2)
Sc10 Sc 0.88408(5) 0.55249(3) 0.08626(2)
O22 O 0.13206(19) 0.06621(10) 0.52223(9)
H4 H 0.661328 0.359182 0.994775
Sc11 Sc 0.11592(5) 0.44751(3) 0.91374(2)
O23 O 0.36205(19) 0.05134(10) 0.98117(9)
O19 O 0.3399(2) 0.97198(11) 0.32598(10)
O20 O 0.2734(2) 0.98531(10) 0.42903(10)
O21 O 0.0133(2) 0.95941(10) 0.41372(10)
O24 O 0.52825(19) 0.97775(10) 0.10184(10)
O25 O 0.2002(2) 0.95325(10) 0.19153(10)
O26 O 0.26071(19) 0.96731(10) 0.08677(10)
O9 O 0.9867(2) 0.45941(10) 0.08628(10)
H6 H 0.951486 0.346227 0.167645
O15 O 0.96395(19) 0.11924(10) 0.40319(10)
O16 O 0.9352(2) 0.15861(11) 0.29148(11)
O17 O 0.7998(2) 0.45325(10) 0.30847(10)
O18 O 0.73929(19) 0.46731(10) 0.41323(10)
C19 C 0.9320(3) 0.16633(15) 0.35494(15)
C20 C 0.8887(3) 0.23444(15) 0.38006(15)
C21 C 0.8659(3) 0.25246(16) 0.44570(15)
H9 H 0.876877 0.221071 0.484892
C22 C 0.8245(3) 0.32261(16) 0.44848(15)
H10 H 0.802699 0.343735 0.489539
C23 C 0.8189(3) 0.35711(15) 0.38538(14)
C24 C 0.7831(3) 0.43092(14) 0.36808(14)
S4 S 0.86204(8) 0.30369(4) 0.32185(4)
H6_2 H 0.048514 0.846227 0.332355
O15_2 O 0.03605(19) 0.61924(10) 0.09681(10)
O16_2 O 0.0648(2) 0.65861(11) 0.20852(11)
C19_2 C 0.0680(3) 0.66633(15) 0.14506(15)
C20_2 C 0.1113(3) 0.73444(15) 0.11994(15)
C21_2 C 0.1341(3) 0.75246(16) 0.05430(15)
H9_2 H 0.123123 0.721071 0.015108
C22_2 C 0.1755(3) 0.82261(16) 0.05152(15)
H10_2 H 0.197301 0.843735 0.010461
C23_2 C 0.1811(3) 0.85711(15) 0.11462(14)
C24_2 C 0.2169(3) 0.93092(14) 0.13192(14)
S4_2 S 0.13796(8) 0.80369(4) 0.17815(4)
O1_2 O 0.59842(18) 0.55772(10) 0.30009(9)
H1_2 H 0.568(2) 0.6006(8) 0.2879(9)
O2_2 O 0.89775(18) 0.54507(10) 0.19425(9)
H2_2 H 0.9565(17) 0.5753(12) 0.2139(8)
O3_2 O 0.48946(19) 0.63500(10) 0.40994(10)
O4_2 O 0.4804(3) 0.68322(12) 0.30324(12)
C1_2 C 0.4668(3) 0.68573(16) 0.36600(16)
C2_2 C 0.4222(3) 0.75243(15) 0.39284(15)
C3_2 C 0.3982(3) 0.76847(16) 0.45886(16)
H3_2 H 0.406634 0.735717 0.496889
C4_2 C 0.3598(3) 0.83895(17) 0.46360(16)
H4_2 H 0.338672 0.859182 0.505225
C5_2 C 0.3562(3) 0.87513(16) 0.40198(15)
C6_2 C 0.3203(3) 0.94934(15) 0.38493(15)
S1_2 S 0.39878(8) 0.82350(4) 0.33701(4)
O7_2 O 0.75577(19) 0.63157(10) 0.41500(10)
O8_2 O 0.85355(19) 0.61061(10) 0.32372(10)
O10_2 O 0.86794(19) 0.93379(10) 0.47777(9)
C7_2 C 0.8254(3) 0.64999(14) 0.37211(14)
C8_2 C 0.8784(3) 0.72189(14) 0.37701(14)
C9_2 C 0.9627(3) 0.74825(16) 0.33803(15)
H5_2 H 0.997069 0.721514 0.304187
C10_2 C 0.9919(3) 0.81935(15) 0.35415(15)
C11_2 C 0.9299(3) 0.84581(14) 0.40478(14)
C12_2 C 0.9382(3) 0.91806(14) 0.43442(13)
S2_2 S 0.83508(7) 0.78360(3) 0.43358(3)
O11_2 O 0.6736(2) 0.62810(10) 0.18356(10)
O12_2 O 0.7716(2) 0.64571(10) 0.09134(10)
O13_2 O 0.63795(19) 0.94866(10) 0.01883(9)
C13_2 C 0.7048(3) 0.66583(15) 0.13502(14)
C14_2 C 0.6557(3) 0.73877(15) 0.13028(14)
C15_2 C 0.5763(3) 0.76661(17) 0.17195(17)
H7_2 H 0.545632 0.740757 0.207723
C16_2 C 0.5463(3) 0.83744(16) 0.15541(16)
H8_2 H 0.492787 0.865034 0.178739
C17_2 C 0.6028(3) 0.86251(14) 0.10174(14)
C18_2 C 0.5884(3) 0.93419(14) 0.07176(13)
S3_2 S 0.69230(7) 0.79905(4) 0.07053(3)
Sc11_2 Sc 0.88408(5) 0.94751(3) 0.58626(2)
O23_2 O 0.63795(19) 0.55134(10) 0.51883(9)
Sc6_2 Sc 0.61416(5) 0.94750(2) 0.90946(2)
O22_2 O 0.86794(19) 0.56621(10) 0.97777(9)
O9_2 O 0.0133(2) 0.54059(10) 0.91372(10)
H6_3 H 0.048514 0.653773 0.832355
O15_3 O 0.03605(19) 0.88076(10) 0.59681(10)
O16_3 O 0.0648(2) 0.84139(11) 0.70852(11)
O17_2 O 0.2002(2) 0.54675(10) 0.69153(10)
O18_2 O 0.26071(19) 0.53269(10) 0.58677(10)
C19_3 C 0.0680(3) 0.83367(15) 0.64506(15)
C20_3 C 0.1113(3) 0.76556(15) 0.61994(15)
C21_3 C 0.1341(3) 0.74754(16) 0.55430(15)
H9_3 H 0.123123 0.778929 0.515108
C22_3 C 0.1755(3) 0.67739(16) 0.55152(15)
H10_3 H 0.197301 0.656265 0.510461
C23_3 C 0.1811(3) 0.64289(15) 0.61462(14)
C24_3 C 0.2169(3) 0.56908(14) 0.63192(14)
S4_3 S 0.13796(8) 0.69631(4) 0.67815(4)
Sc7 Sc 0.24853(5) 0.45534(3) 0.75221(2)
O19_2 O 0.6601(2) 0.02802(11) 0.67402(10)
O20_2 O 0.7266(2) 0.01469(10) 0.57097(10)
O21_2 O 0.9867(2) 0.04059(10) 0.58628(10)
O24_2 O 0.47175(19) 0.02225(10) 0.89816(10)
O25_2 O 0.7998(2) 0.04675(10) 0.80847(10)
O26_2 O 0.73929(19) 0.03269(10) 0.91323(10)
H4_3 H 0.338672 0.640818 0.005225
Sc2_2 Sc 0.75147(5) 0.95534(3) 0.74779(2)
O1_3 O 0.59842(18) 0.94228(10) 0.80009(9)
H1_3 H 0.568(2) 0.8994(8) 0.7879(9)
O2_3 O 0.89775(18) 0.95493(10) 0.69425(9)
H2_3 H 0.9565(17) 0.9247(12) 0.7139(8)
O3_3 O 0.48946(19) 0.86500(10) 0.90994(10)
O4_3 O 0.4804(3) 0.81678(12) 0.80324(12)
O5_2 O 0.3399(2) 0.52802(11) 0.82598(10)
O6_2 O 0.2734(2) 0.51469(10) 0.92903(10)
C1_3 C 0.4668(3) 0.81427(16) 0.86600(16)
C2_3 C 0.4222(3) 0.74757(15) 0.89284(15)
C3_3 C 0.3982(3) 0.73153(16) 0.95886(16)
H3_3 H 0.406634 0.764283 0.996889
C4_3 C 0.3598(3) 0.66105(17) 0.96360(16)
C5_3 C 0.3562(3) 0.62487(16) 0.90198(15)
C6_3 C 0.3203(3) 0.55066(15) 0.88493(15)
S1_3 S 0.39878(8) 0.67650(4) 0.83701(4)
O7_3 O 0.75577(19) 0.86843(10) 0.91500(10)
O8_3 O 0.85355(19) 0.88939(10) 0.82372(10)
C7_3 C 0.8254(3) 0.85001(14) 0.87211(14)
C8_3 C 0.8784(3) 0.77811(14) 0.87701(14)
C9_3 C 0.9627(3) 0.75175(16) 0.83803(15)
H5_3 H 0.997069 0.778486 0.804187
C10_3 C 0.9919(3) 0.68065(15) 0.85415(15)
C11_3 C 0.9299(3) 0.65419(14) 0.90478(14)
C12_3 C 0.9382(3) 0.58194(14) 0.93442(13)
S2_3 S 0.83508(7) 0.71640(3) 0.93358(3)
O11_3 O 0.6736(2) 0.87190(10) 0.68356(10)
O12_3 O 0.7716(2) 0.85429(10) 0.59134(10)
O14_2 O 0.52825(19) 0.52225(10) 0.60184(10)
C13_3 C 0.7048(3) 0.83417(15) 0.63502(14)
C14_3 C 0.6557(3) 0.76123(15) 0.63028(14)
C15_3 C 0.5763(3) 0.73339(17) 0.67195(17)
H7_3 H 0.545632 0.759243 0.707723
C16_3 C 0.5463(3) 0.66256(16) 0.65541(16)
H8_3 H 0.492787 0.634966 0.678739
C17_3 C 0.6028(3) 0.63749(14) 0.60174(14)
C18_3 C 0.5884(3) 0.56581(14) 0.57176(13)
S3_3 S 0.69230(7) 0.70095(4) 0.57053(3)
O1_4 O 0.40158(18) 0.44228(10) 0.69991(9)
H1_4 H 0.432(2) 0.3994(8) 0.7121(9)
O2_4 O 0.10225(18) 0.45493(10) 0.80575(9)
H2_4 H 0.0435(17) 0.4247(12) 0.7861(8)
O3_4 O 0.51054(19) 0.36500(10) 0.59006(10)
O4_4 O 0.5196(3) 0.31678(12) 0.69676(12)
C1_4 C 0.5332(3) 0.31427(16) 0.63400(16)
C2_4 C 0.5778(3) 0.24757(15) 0.60716(15)
C3_4 C 0.6018(3) 0.23153(16) 0.54114(16)
H3_4 H 0.593366 0.264283 0.503111
C4_4 C 0.6402(3) 0.16105(17) 0.53640(16)
H4_4 H 0.661328 0.140818 0.494775
C5_4 C 0.6438(3) 0.12487(16) 0.59802(15)
C6_4 C 0.6797(3) 0.05066(15) 0.61507(15)
S1_4 S 0.60122(8) 0.17650(4) 0.66299(4)
O7_4 O 0.24423(19) 0.36843(10) 0.58500(10)
O8_4 O 0.14645(19) 0.38939(10) 0.67628(10)
C7_4 C 0.1746(3) 0.35001(14) 0.62789(14)
C8_4 C 0.1216(3) 0.27811(14) 0.62299(14)
C9_4 C 0.0373(3) 0.25175(16) 0.66197(15)
H5_4 H 0.002931 0.278486 0.695813
C10_4 C 0.0081(3) 0.18065(15) 0.64585(15)
C11_4 C 0.0701(3) 0.15419(14) 0.59522(14)
C12_4 C 0.0618(3) 0.08194(14) 0.56558(13)
S2_4 S 0.16492(7) 0.21640(3) 0.56642(3)
O11_4 O 0.3264(2) 0.37190(10) 0.81644(10)
O12_4 O 0.2284(2) 0.35429(10) 0.90866(10)
C13_4 C 0.2952(3) 0.33417(15) 0.86498(14)
C14_4 C 0.3443(3) 0.26123(15) 0.86972(14)
C15_4 C 0.4237(3) 0.23339(17) 0.82805(17)
H7_4 H 0.454368 0.259243 0.792277
C16_4 C 0.4537(3) 0.16256(16) 0.84459(16)
H8_4 H 0.507213 0.134966 0.821261
C17_4 C 0.3972(3) 0.13749(14) 0.89826(14)
C18_4 C 0.4116(3) 0.06581(14) 0.92824(13)
S3_4 S 0.30770(7) 0.20095(4) 0.92947(3)
H6_4 H 0.951486 0.153773 0.667645
O15_4 O 0.96395(19) 0.38076(10) 0.90319(10)
O16_4 O 0.9352(2) 0.34139(11) 0.79148(11)
C19_4 C 0.9320(3) 0.33367(15) 0.85494(15)
C20_4 C 0.8887(3) 0.26556(15) 0.88006(15)
C21_4 C 0.8659(3) 0.24754(16) 0.94570(15)
H9_4 H 0.876877 0.278929 0.984892
C22_4 C 0.8245(3) 0.17739(16) 0.94848(15)
H10_4 H 0.802699 0.156265 0.989539
C23_4 C 0.8189(3) 0.14289(15) 0.88538(14)
C24_4 C 0.7831(3) 0.06908(14) 0.86808(14)
S4_4 S 0.86204(8) 0.19631(4) 0.82185(4)
N1 N 0.3669(4) 0.5182(2) 0.2054(3)
H11 H 0.440660 0.520159 0.235898
H12 H 0.305340 0.515975 0.231858
C25 C 0.3521(5) 0.5854(3) 0.1653(3)
H13 H 0.349930 0.624986 0.198016
H14 H 0.274096 0.584231 0.131151
H15 H 0.422373 0.591533 0.140149
C26 C 0.3646(6) 0.4521(3) 0.1651(3)
H16 H 0.422036 0.417922 0.191780
H17 H 0.390164 0.461523 0.119534
H18 H 0.279930 0.432560 0.157106
N1_2 N 0.6331(4) 0.0182(2) 0.2946(3)
H11_2 H 0.559340 0.020159 0.264102
H12_2 H 0.694660 0.015975 0.268142
C25_2 C 0.6479(5) 0.0854(3) 0.3347(3)
H13_2 H 0.650070 0.124986 0.301984
H14_2 H 0.725904 0.084231 0.368849
H15_2 H 0.577627 0.091533 0.359851
C26_2 C 0.6354(6) 0.9521(3) 0.3349(3)
H16_2 H 0.577964 0.917922 0.308220
H17_2 H 0.609836 0.961523 0.380466
H18_2 H 0.720070 0.932560 0.342894
N1_3 N 0.6331(4) 0.4818(2) 0.7946(3)
H11_3 H 0.559340 0.479841 0.764102
H12_3 H 0.694660 0.484025 0.768142
C25_3 C 0.6479(5) 0.4146(3) 0.8347(3)
H13_3 H 0.650070 0.375014 0.801984
H14_3 H 0.725904 0.415769 0.868849
H15_3 H 0.577627 0.408467 0.859851
C26_3 C 0.6354(6) 0.5479(3) 0.8349(3)
H16_3 H 0.577964 0.582078 0.808220
H17_3 H 0.609836 0.538477 0.880466
H18_3 H 0.720070 0.567440 0.842894
C26_4 C 0.3646(6) 0.0479(3) 0.6651(3)
H16_4 H 0.422036 0.082078 0.691780
H17_4 H 0.390164 0.038477 0.619534
H18_4 H 0.279930 0.067440 0.657106
N1_4 N 0.3669(4) 0.9818(2) 0.7054(3)
H11_4 H 0.440660 0.979841 0.735898
H12_4 H 0.305340 0.984025 0.731858
C25_4 C 0.3521(5) 0.9146(3) 0.6653(3)
H13_4 H 0.349930 0.875014 0.698016
H14_4 H 0.274096 0.915769 0.631151
H15_4 H 0.422373 0.908467 0.640149
loop_
_geom_bond_atom_site_label_1
_geom_bond_atom_site_label_2
_geom_bond_site_symmetry_1
_geom_bond_site_symmetry_2
Sc1 O1 1_555 1_555
Sc2 O1 1_555 1_555
Sc3 O2 1_555 1_555
O1 H1 1_555 1_555
O2 Sc2 1_555 1_555
H2 O2 1_555 1_555
O3 Sc1 1_555 1_555
O4 C1 1_555 1_555
O5 C6 1_555 1_555
O6 C6 1_555 1_555
C1 O3 1_555 1_555
C2 C1 1_555 1_555
C3 C2 1_555 1_555
H3 C3 1_555 1_555
C4 C3 1_555 1_555
C5 C4 1_555 1_555
C6 C5 1_555 1_555
S1 C2 1_555 1_555
O7 Sc1 1_555 1_555
O8 Sc2 1_555 1_555
O10 C12 1_555 1_555
C7 O7 1_555 1_555
C8 C7 1_555 1_555
C9 C8 1_555 1_555
H5 C9 1_555 1_555
C10 C9 1_555 1_555
C11 C10 1_555 1_555
C12 C11 1_555 1_555
S2 C8 1_555 1_555
O11 Sc2 1_555 1_555
O12 Sc3 1_555 1_555
O13 C18 1_555 1_555
O14 C18 1_555 1_555
C13 O11 1_555 1_555
C14 C13 1_555 1_555
C15 C14 1_555 1_555
H7 C15 1_555 1_555
C16 C15 1_555 1_555
H8 C16 1_555 1_555
C17 C16 1_555 1_555
C18 C17 1_555 1_555
S3 C14 1_555 1_555
Sc5 O14 1_555 1_555
Sc6 O13 1_555 1_555
Sc8 O5 1_555 1_555
Sc10 O6 1_555 1_555
O22 Sc3 1_555 1_555
C5 S1 1_555 1_555
O8 C7 1_555 1_555
C11 S2 1_555 1_555
O12 C13 1_555 1_555
C17 S3 1_555 1_555
O16 C19 1_555 1_555
O17 C24 1_555 1_555
O18 C24 1_555 1_555
C19 O15 1_555 1_555
C20 C19 1_555 1_555
C21 C20 1_555 1_555
H9 C21 1_555 1_555
C22 C21 1_555 1_555
H10 C22 1_555 1_555
C23 C22 1_555 1_555
C24 C23 1_555 1_555
S4 C20 1_555 1_555
Sc5 O18 1_555 1_555
Sc8 O17 1_555 1_555
Sc10 O9 1_555 1_555
C23 S4 1_555 1_555
O16_2 C19_2 1_555 1_555
O25 C24_2 1_555 1_555
O26 C24_2 1_555 1_555
C19_2 O15_2 1_555 1_555
C20_2 C19_2 1_555 1_555
C21_2 C20_2 1_555 1_555
H9_2 C21_2 1_555 1_555
C22_2 C21_2 1_555 1_555
H10_2 C22_2 1_555 1_555
C23_2 C22_2 1_555 1_555
C24_2 C23_2 1_555 1_555
S4_2 C20_2 1_555 1_555
C23_2 S4_2 1_555 1_555
Sc5 O1_2 1_555 1_555
Sc8 O1_2 1_555 1_555
Sc10 O2_2 1_555 1_555
O1_2 H1_2 1_555 1_555
O2_2 Sc8 1_555 1_555
H2_2 O2_2 1_555 1_555
O3_2 Sc5 1_555 1_555
O4_2 C1_2 1_555 1_555
O19 C6_2 1_555 1_555
O20 C6_2 1_555 1_555
C1_2 O3_2 1_555 1_555
C2_2 C1_2 1_555 1_555
C3_2 C2_2 1_555 1_555
H3_2 C3_2 1_555 1_555
C4_2 C3_2 1_555 1_555
H4_2 C4_2 1_555 1_555
C5_2 C4_2 1_555 1_555
C6_2 C5_2 1_555 1_555
S1_2 C2_2 1_555 1_555
O7_2 Sc5 1_555 1_555
O8_2 Sc8 1_555 1_555
O10_2 C12_2 1_555 1_555
C7_2 O7_2 1_555 1_555
C8_2 C7_2 1_555 1_555
C9_2 C8_2 1_555 1_555
H5_2 C9_2 1_555 1_555
C10_2 C9_2 1_555 1_555
C11_2 C10_2 1_555 1_555
C12_2 C11_2 1_555 1_555
S2_2 C8_2 1_555 1_555
O11_2 Sc8 1_555 1_555
O12_2 Sc10 1_555 1_555
O13_2 C18_2 1_555 1_555
O24 C18_2 1_555 1_555
C13_2 O11_2 1_555 1_555
C14_2 C13_2 1_555 1_555
C15_2 C14_2 1_555 1_555
H7_2 C15_2 1_555 1_555
C16_2 C15_2 1_555 1_555
H8_2 C16_2 1_555 1_555
C17_2 C16_2 1_555 1_555
C18_2 C17_2 1_555 1_555
S3_2 C14_2 1_555 1_555
Sc11_2 O10_2 1_555 1_555
O23_2 Sc5 1_555 1_555
C5_2 S1_2 1_555 1_555
O8_2 C7_2 1_555 1_555
C11_2 S2_2 1_555 1_555
O12_2 C13_2 1_555 1_555
C17_2 S3_2 1_555 1_555
O16_3 C19_3 1_555 1_555
O17_2 C24_3 1_555 1_555
O18_2 C24_3 1_555 1_555
C19_3 O15_3 1_555 1_555
C20_3 C19_3 1_555 1_555
C21_3 C20_3 1_555 1_555
H9_3 C21_3 1_555 1_555
C22_3 C21_3 1_555 1_555
H10_3 C22_3 1_555 1_555
C23_3 C22_3 1_555 1_555
C24_3 C23_3 1_555 1_555
S4_3 C20_3 1_555 1_555
Sc6 O18_2 1_555 1_555
Sc7 O17_2 1_555 1_555
Sc11 O9_2 1_555 1_555
C23_3 S4_3 1_555 1_555
Sc6_2 O1_3 1_555 1_555
Sc2_2 O1_3 1_555 1_555
Sc11_2 O2_3 1_555 1_555
O1_3 H1_3 1_555 1_555
O2_3 Sc2_2 1_555 1_555
H2_3 O2_3 1_555 1_555
O3_3 Sc6_2 1_555 1_555
O4_3 C1_3 1_555 1_555
O5_2 C6_3 1_555 1_555
O6_2 C6_3 1_555 1_555
C1_3 O3_3 1_555 1_555
C2_3 C1_3 1_555 1_555
C3_3 C2_3 1_555 1_555
H3_3 C3_3 1_555 1_555
C4_3 C3_3 1_555 1_555
C5_3 C4_3 1_555 1_555
C6_3 C5_3 1_555 1_555
S1_3 C2_3 1_555 1_555
O7_3 Sc6_2 1_555 1_555
O8_3 Sc2_2 1_555 1_555
O22_2 C12_3 1_555 1_555
C7_3 O7_3 1_555 1_555
C8_3 C7_3 1_555 1_555
C9_3 C8_3 1_555 1_555
H5_3 C9_3 1_555 1_555
C10_3 C9_3 1_555 1_555
C11_3 C10_3 1_555 1_555
C12_3 C11_3 1_555 1_555
S2_3 C8_3 1_555 1_555
O11_3 Sc2_2 1_555 1_555
O12_3 Sc11_2 1_555 1_555
O23_2 C18_3 1_555 1_555
O14_2 C18_3 1_555 1_555
C13_3 O11_3 1_555 1_555
C14_3 C13_3 1_555 1_555
C15_3 C14_3 1_555 1_555
H7_3 C15_3 1_555 1_555
C16_3 C15_3 1_555 1_555
H8_3 C16_3 1_555 1_555
C17_3 C16_3 1_555 1_555
C18_3 C17_3 1_555 1_555
S3_3 C14_3 1_555 1_555
Sc6 O14_2 1_555 1_555
Sc7 O5_2 1_555 1_555
Sc11 O6_2 1_555 1_555
C5_3 S1_3 1_555 1_555
O8_3 C7_3 1_555 1_555
C11_3 S2_3 1_555 1_555
O12_3 C13_3 1_555 1_555
C17_3 S3_3 1_555 1_555
Sc6 O1_4 1_555 1_555
Sc7 O1_4 1_555 1_555
Sc11 O2_4 1_555 1_555
O1_4 H1_4 1_555 1_555
O2_4 Sc7 1_555 1_555
H2_4 O2_4 1_555 1_555
O3_4 Sc6 1_555 1_555
O4_4 C1_4 1_555 1_555
O19_2 C6_4 1_555 1_555
O20_2 C6_4 1_555 1_555
C1_4 O3_4 1_555 1_555
C2_4 C1_4 1_555 1_555
C3_4 C2_4 1_555 1_555
H3_4 C3_4 1_555 1_555
C4_4 C3_4 1_555 1_555
H4_4 C4_4 1_555 1_555
C5_4 C4_4 1_555 1_555
C6_4 C5_4 1_555 1_555
S1_4 C2_4 1_555 1_555
O7_4 Sc6 1_555 1_555
O8_4 Sc7 1_555 1_555
O22 C12_4 1_555 1_555
C7_4 O7_4 1_555 1_555
C8_4 C7_4 1_555 1_555
C9_4 C8_4 1_555 1_555
H5_4 C9_4 1_555 1_555
C10_4 C9_4 1_555 1_555
C11_4 C10_4 1_555 1_555
C12_4 C11_4 1_555 1_555
S2_4 C8_4 1_555 1_555
O11_4 Sc7 1_555 1_555
O12_4 Sc11 1_555 1_555
O23 C18_4 1_555 1_555
O24_2 C18_4 1_555 1_555
C13_4 O11_4 1_555 1_555
C14_4 C13_4 1_555 1_555
C15_4 C14_4 1_555 1_555
H7_4 C15_4 1_555 1_555
C16_4 C15_4 1_555 1_555
H8_4 C16_4 1_555 1_555
C17_4 C16_4 1_555 1_555
C18_4 C17_4 1_555 1_555
S3_4 C14_4 1_555 1_555
C5_4 S1_4 1_555 1_555
O8_4 C7_4 1_555 1_555
C11_4 S2_4 1_555 1_555
O12_4 C13_4 1_555 1_555
C17_4 S3_4 1_555 1_555
O16_4 C19_4 1_555 1_555
O25_2 C24_4 1_555 1_555
O26_2 C24_4 1_555 1_555
C19_4 O15_4 1_555 1_555
C20_4 C19_4 1_555 1_555
C21_4 C20_4 1_555 1_555
H9_4 C21_4 1_555 1_555
C22_4 C21_4 1_555 1_555
H10_4 C22_4 1_555 1_555
C23_4 C22_4 1_555 1_555
C24_4 C23_4 1_555 1_555
S4_4 C20_4 1_555 1_555
C23_4 S4_4 1_555 1_555
N1 H11 1_555 1_555
H12 N1 1_555 1_555
C25 N1 1_555 1_555
H13 C25 1_555 1_555
H14 C25 1_555 1_555
H15 C25 1_555 1_555
C26 N1 1_555 1_555
H16 C26 1_555 1_555
H17 C26 1_555 1_555
H18 C26 1_555 1_555
N1_2 H11_2 1_555 1_555
H12_2 N1_2 1_555 1_555
C25_2 N1_2 1_555 1_555
H13_2 C25_2 1_555 1_555
H14_2 C25_2 1_555 1_555
H15_2 C25_2 1_555 1_555
H16_2 C26_2 1_555 1_555
H17_2 C26_2 1_555 1_555
H18_2 C26_2 1_555 1_555
N1_3 H11_3 1_555 1_555
H12_3 N1_3 1_555 1_555
C25_3 N1_3 1_555 1_555
H13_3 C25_3 1_555 1_555
H14_3 C25_3 1_555 1_555
H15_3 C25_3 1_555 1_555
C26_3 N1_3 1_555 1_555
H16_3 C26_3 1_555 1_555
H17_3 C26_3 1_555 1_555
H18_3 C26_3 1_555 1_555
H16_4 C26_4 1_555 1_555
H17_4 C26_4 1_555 1_555
H18_4 C26_4 1_555 1_555
N1_4 H11_4 1_555 1_555
H12_4 N1_4 1_555 1_555
C25_4 N1_4 1_555 1_555
H13_4 C25_4 1_555 1_555
H14_4 C25_4 1_555 1_555
H15_4 C25_4 1_555 1_555

#END
