
###############################################################################
#
# This file contains modified crystal structure data generated from the
# MOF subset of the Cambridge Structural Database (CSD) v543 
# hosted by the Cambridge Crystallographic Data Centre (CCDC).
#
# This work is licensed under the Creative Commons
# Attribution-NonCommercial-ShareAlike 4.0 International License.
# To view a copy of this license, visit
# http://creativecommons.org/licenses/by-nc-sa/4.0/
# or send a letter to
# Creative Commons, PO Box 1866, Mountain View, CA 94042, USA.
#
# CIF created using the CSD Python API on 29 September 2022
# The structure has been converted into the P1 space group
# The structure has a 3D framework
# The original CSD entry RAHGEQ is in the triclinic crystal system
# The framework has been calculated to contain at least 10.0% void space
# The void calculation uses a probe of radius 1.32A, grid spacing 0.4
#
###############################################################################

data_RAHGEQ
_chemical_formula_moiety         '(C46 H36 N8 Ni4 O14)n'
_symmetry_cell_setting           triclinic
_symmetry_space_group_name_H-M   'P 1'
_symmetry_Int_Tables_number      1
_space_group_name_Hall           'P 1'
loop_
_symmetry_equiv_pos_site_id
_symmetry_equiv_pos_as_xyz
1 x,y,z
_cell_length_a                   10.7715(8)
_cell_length_b                   11.0425(9)
_cell_length_c                   11.9774(10)
_cell_angle_alpha                83.555(7)
_cell_angle_beta                 81.294(7)
_cell_angle_gamma                60.807(8)
_cell_volume                     1228.14
loop_
_atom_site_label
_atom_site_type_symbol
_atom_site_fract_x
_atom_site_fract_y
_atom_site_fract_z
C8 C 0.0261(4) 0.1540(4) 0.5639(3)
C9 C 0.0323(6) 0.2285(5) 0.4653(3)
H8 H 0.100269 0.183079 0.403179
C11 C 0.1282(4) 0.0012(4) 0.5784(3)
N3 N 0.2485(3) 0.9773(3) 0.6380(2)
N4 N 0.3692(3) 0.9584(2) 0.7772(2)
H10 H 0.076511 0.954349 0.621754
H11 H 0.165328 0.960450 0.503188
C12 C 0.3739(5) 0.9730(6) 0.5910(3)
H12 H 0.404379 0.976999 0.512665
C13 C 0.4463(4) 0.9621(5) 0.6773(3)
H13 H 0.537506 0.957658 0.669370
C14 C 0.2515(3) 0.9664(3) 0.7500(3)
H14 H 0.177522 0.964657 0.803476
Ni5 Ni 0.41061(3) 0.95578(3) 0.93912(3)
O8 O 0.20741(19) 0.12253(18) 0.97083(17)
O11 O 0.52911(18) 0.05718(18) 0.90214(15)
O2 O 0.29129(19) 0.84969(19) 0.98934(17)
Ni4 Ni 0.42285(3) 0.26151(3) 0.88799(3)
O10 O 0.59229(19) 0.76273(18) 0.93574(16)
O4 O 0.2206(2) 0.3089(2) 0.88983(19)
C22 C 0.1532(3) 0.2443(3) 0.9302(2)
N1 N 0.4270(3) 0.3022(3) 0.7179(2)
N2 N 0.3563(5) 0.3583(3) 0.5486(3)
C1 C 0.3235(5) 0.3310(4) 0.6575(3)
H1 H 0.235957 0.332380 0.687215
C2 C 0.5318(5) 0.3102(4) 0.6431(3)
H2 H 0.621757 0.292811 0.661938
C3 C 0.4899(6) 0.3460(5) 0.5392(4)
H3 H 0.542439 0.360075 0.472588
C4 C 0.2584(7) 0.4038(5) 0.4605(4)
H4 H 0.315708 0.374908 0.386168
H5 H 0.199189 0.356556 0.475722
C5 C 0.1606(6) 0.5597(4) 0.4547(3)
C6 C 0.1640(5) 0.6354(5) 0.3589(3)
H6 H 0.230607 0.590189 0.295979
C7 C 0.0730(4) 0.7773(4) 0.3495(3)
H7 H 0.080212 0.827318 0.281168
C10 C 0.0605(7) 0.6302(5) 0.5436(4)
H9 H 0.055334 0.580232 0.612485
O1 O 0.5714(2) 0.31686(19) 0.89049(17)
O5 O 0.7579(2) 0.7453(2) 0.7923(2)
C15 C 0.7650(3) 0.3303(3) 0.9418(2)
C16 C 0.9111(3) 0.2566(3) 0.9495(2)
H15 H 0.954642 0.160354 0.970607
C17 C 0.9942(3) 0.3234(3) 0.9263(2)
C18 C 0.9294(3) 0.4646(3) 0.8968(2)
H16 H 0.986322 0.509288 0.876166
C19 C 0.7815(3) 0.5409(3) 0.8973(2)
C20 C 0.7002(3) 0.4731(3) 0.9196(2)
H17 H 0.599251 0.524777 0.919708
C21 C 0.6751(3) 0.2591(3) 0.9501(2)
C23 C 0.7075(3) 0.6952(3) 0.8709(3)
H18 H 0.611318 0.013803 0.842198
Ni8 Ni 0.58939(3) 0.04422(3) 0.06088(3)
Ni1 Ni 0.57715(3) 0.73849(3) 0.11201(3)
N1_2 N 0.5730(3) 0.6978(3) 0.2821(2)
N2_2 N 0.6437(5) 0.6417(3) 0.4514(3)
C1_2 C 0.6765(5) 0.6690(4) 0.3425(3)
H1_2 H 0.764043 0.667620 0.312785
C2_2 C 0.4682(5) 0.6898(4) 0.3569(3)
H2_2 H 0.378243 0.707189 0.338062
C3_2 C 0.5101(6) 0.6540(5) 0.4608(4)
H3_2 H 0.457561 0.639925 0.527412
C4_2 C 0.7416(7) 0.5962(5) 0.5395(4)
H4_2 H 0.684292 0.625092 0.613832
H5_2 H 0.800811 0.643444 0.524278
C5_2 C 0.8394(6) 0.4403(4) 0.5453(3)
C6_2 C 0.8360(5) 0.3646(5) 0.6411(3)
H6_2 H 0.769393 0.409811 0.704021
C7_2 C 0.9270(4) 0.2227(4) 0.6505(3)
H7_2 H 0.919788 0.172682 0.718832
C10_2 C 0.9395(7) 0.3698(5) 0.4564(4)
H9_2 H 0.944666 0.419768 0.387515
O1_2 O 0.4286(2) 0.68314(19) 0.10951(17)
O5_2 O 0.2421(2) 0.2547(2) 0.2077(2)
O6 O 0.40771(19) 0.23727(18) 0.06426(16)
C15_2 C 0.2350(3) 0.6697(3) 0.0582(2)
C16_2 C 0.0889(3) 0.7434(3) 0.0505(2)
H15_2 H 0.045358 0.839646 0.029393
C17_2 C 0.0058(3) 0.6766(3) 0.0737(2)
C18_2 C 0.0706(3) 0.5354(3) 0.1032(2)
H16_2 H 0.013678 0.490712 0.123834
C19_2 C 0.2185(3) 0.4591(3) 0.1027(2)
C20_2 C 0.2998(3) 0.5269(3) 0.0804(2)
H17_2 H 0.400749 0.475223 0.080292
C21_2 C 0.3249(3) 0.7409(3) 0.0499(2)
C23_2 C 0.2925(3) 0.3048(3) 0.1291(3)
O7 O 0.47089(18) 0.94282(18) 0.09786(15)
H18_2 H 0.388682 0.986197 0.157802
O9 O 0.7794(2) 0.6911(2) 0.11017(19)
O3 O 0.79259(19) 0.87747(18) 0.02917(17)
C22_2 C 0.8468(3) 0.7557(3) 0.0698(2)
O2_2 O 0.70871(19) 0.15031(19) 0.01066(17)
N5 N 0.6308(3) 0.0416(2) 0.2228(2)
N3_2 N 0.7515(3) 0.0227(3) 0.3620(2)
H10_2 H 0.923489 0.045651 0.378246
H11_2 H 0.834672 0.039550 0.496812
C12_2 C 0.6261(5) 0.0270(6) 0.4090(3)
H12_2 H 0.595621 0.023001 0.487335
C13_2 C 0.5537(4) 0.0379(5) 0.3227(3)
H13_2 H 0.462494 0.042342 0.330630
C14_2 C 0.7485(3) 0.0336(3) 0.2500(3)
H14_2 H 0.822478 0.035343 0.196524
C8_2 C 0.9739(4) 0.8460(4) 0.4361(3)
C9_2 C 0.9677(6) 0.7715(5) 0.5347(3)
H8_2 H 0.899731 0.816921 0.596821
C11_2 C 0.8718(4) 0.9988(4) 0.4216(3)
loop_
_geom_bond_atom_site_label_1
_geom_bond_atom_site_label_2
_geom_bond_site_symmetry_1
_geom_bond_site_symmetry_2
C9 C8 1_555 1_555
H8 C9 1_555 1_555
C11 C8 1_555 1_555
N4 C13 1_555 1_555
C12 N3 1_555 1_555
H12 C12 1_555 1_555
C13 C12 1_555 1_555
H13 C13 1_555 1_555
C14 N3 1_555 1_555
H14 C14 1_555 1_555
Ni5 N4 1_555 1_555
N4 C14 1_555 1_555
Ni5 O2 1_555 1_555
Ni5 O10 1_555 1_555
O8 C22 1_555 1_555
O4 C22 1_555 1_555
Ni4 O4 1_555 1_555
Ni4 N1 1_555 1_555
N1 C1 1_555 1_555
N2 C1 1_555 1_555
C1 H1 1_555 1_555
C2 N1 1_555 1_555
H2 C2 1_555 1_555
C3 N2 1_555 1_555
H3 C3 1_555 1_555
C4 N2 1_555 1_555
H4 C4 1_555 1_555
H5 C4 1_555 1_555
C5 C4 1_555 1_555
C6 C5 1_555 1_555
H6 C6 1_555 1_555
C7 C6 1_555 1_555
H7 C7 1_555 1_555
C10 C5 1_555 1_555
H9 C10 1_555 1_555
O1 Ni4 1_555 1_555
O5 C23 1_555 1_555
O10 C23 1_555 1_555
C15 C16 1_555 1_555
C16 H15 1_555 1_555
C17 C16 1_555 1_555
C18 C17 1_555 1_555
H16 C18 1_555 1_555
C19 C18 1_555 1_555
C20 C15 1_555 1_555
H17 C20 1_555 1_555
C21 O1 1_555 1_555
C23 C19 1_555 1_555
O11 Ni4 1_555 1_555
H18 O11 1_555 1_555
C2 C3 1_555 1_555
C15 C21 1_555 1_555
C19 C20 1_555 1_555
Ni1 N1_2 1_555 1_555
N1_2 C1_2 1_555 1_555
N2_2 C1_2 1_555 1_555
C1_2 H1_2 1_555 1_555
C2_2 N1_2 1_555 1_555
H2_2 C2_2 1_555 1_555
C3_2 N2_2 1_555 1_555
H3_2 C3_2 1_555 1_555
C4_2 N2_2 1_555 1_555
H4_2 C4_2 1_555 1_555
H5_2 C4_2 1_555 1_555
C5_2 C4_2 1_555 1_555
C6_2 C5_2 1_555 1_555
H6_2 C6_2 1_555 1_555
C7_2 C6_2 1_555 1_555
H7_2 C7_2 1_555 1_555
C10_2 C5_2 1_555 1_555
H9_2 C10_2 1_555 1_555
O1_2 Ni1 1_555 1_555
O5_2 C23_2 1_555 1_555
O6 C23_2 1_555 1_555
C15_2 C16_2 1_555 1_555
C16_2 H15_2 1_555 1_555
C17_2 C16_2 1_555 1_555
C18_2 C17_2 1_555 1_555
H16_2 C18_2 1_555 1_555
C19_2 C18_2 1_555 1_555
C20_2 C15_2 1_555 1_555
H17_2 C20_2 1_555 1_555
C21_2 O1_2 1_555 1_555
C23_2 C19_2 1_555 1_555
O7 Ni1 1_555 1_555
H18_2 O7 1_555 1_555
Ni8 O6 1_555 1_555
O9 Ni1 1_555 1_555
C2_2 C3_2 1_555 1_555
C15_2 C21_2 1_555 1_555
C19_2 C20_2 1_555 1_555
O3 C22_2 1_555 1_555
O9 C22_2 1_555 1_555
Ni8 O2_2 1_555 1_555
N5 Ni8 1_555 1_555
N5 C13_2 1_555 1_555
C12_2 N3_2 1_555 1_555
H12_2 C12_2 1_555 1_555
C13_2 C12_2 1_555 1_555
H13_2 C13_2 1_555 1_555
C14_2 N3_2 1_555 1_555
H14_2 C14_2 1_555 1_555
N5 C14_2 1_555 1_555
C9_2 C8_2 1_555 1_555
H8_2 C9_2 1_555 1_555
C11_2 C8_2 1_555 1_555

#END
