
###############################################################################
#
# This file contains modified crystal structure data generated from the
# MOF subset of the Cambridge Structural Database (CSD) v543 
# hosted by the Cambridge Crystallographic Data Centre (CCDC).
#
# This work is licensed under the Creative Commons
# Attribution-NonCommercial-ShareAlike 4.0 International License.
# To view a copy of this license, visit
# http://creativecommons.org/licenses/by-nc-sa/4.0/
# or send a letter to
# Creative Commons, PO Box 1866, Mountain View, CA 94042, USA.
#
# CIF created using the CSD Python API on 29 September 2022
# The structure has been converted into the P1 space group
# The structure has a 3D framework
# The original CSD entry RALDUH is in the triclinic crystal system
# The framework has been calculated to contain at least 10.0% void space
# The void calculation uses a probe of radius 1.32A, grid spacing 0.4
#
###############################################################################

data_RALDUH
_chemical_formula_moiety         '(C60 H40 Co4 N6 O14)n'
_symmetry_cell_setting           triclinic
_symmetry_space_group_name_H-M   'P 1'
_symmetry_Int_Tables_number      1
_space_group_name_Hall           'P 1'
loop_
_symmetry_equiv_pos_site_id
_symmetry_equiv_pos_as_xyz
1 x,y,z
_cell_length_a                   10.1206(3)
_cell_length_b                   13.6770(5)
_cell_length_c                   15.8965(5)
_cell_angle_alpha                70.3830(10)
_cell_angle_beta                 78.2210(10)
_cell_angle_gamma                83.4580(10)
_cell_volume                     2026.56
loop_
_atom_site_label
_atom_site_type_symbol
_atom_site_fract_x
_atom_site_fract_y
_atom_site_fract_z
Co2 Co 0.500000 0.500000 0.000000
O1 O 0.35712(10) 0.03789(9) 0.46809(7)
O2 O 0.50592(8) 0.14313(7) 0.36819(6)
O3 O 0.37459(9) 0.43016(7) 0.12243(6)
O4 O 0.17206(13) 0.43937(13) 0.08656(9)
O7 O 0.63449(13) 0.52901(9) 0.07333(8)
H1 H 0.715007 0.542312 0.039710
H2 H 0.650604 0.472806 0.117918
N1 N 0.27640(11) 0.01320(9) 0.66192(8)
C1 C 0.38767(11) 0.11393(9) 0.40065(7)
C2 C 0.27792(10) 0.17562(9) 0.35143(7)
C3 C 0.31027(11) 0.26152(9) 0.27532(8)
H3 H 0.398865 0.282251 0.257388
C4 C 0.21263(11) 0.31706(9) 0.22548(8)
C5 C 0.07936(11) 0.28634(10) 0.25396(8)
H4 H 0.012937 0.322971 0.221221
C6 C 0.04561(11) 0.20134(9) 0.33095(8)
C7 C 0.14492(11) 0.14541(9) 0.37978(8)
H5 H 0.122492 0.088184 0.431046
C8 C 0.25441(13) 0.40334(11) 0.13807(9)
C10 C 0.14843(13) 0.04655(12) 0.68405(10)
H6 H 0.081526 0.024153 0.663444
C11 C 0.10953(14) 0.11219(12) 0.73561(11)
C12 C 0.21035(17) 0.14480(16) 0.76618(14)
H7 H 0.189050 0.188331 0.801627
C13 C 0.34287(17) 0.11160(16) 0.74313(15)
H8 H 0.411912 0.133026 0.762547
C14 C 0.37158(14) 0.04679(13) 0.69136(12)
H9 H 0.461156 0.025276 0.676073
Co5 Co 0.67340(2) 0.08786(2) 0.42169(2)
N7 N 0.60416(12) 0.35044(9) 0.00995(8)
Co2_2 Co 0.500000 0.500000 1.000000
O14 O 0.36551(13) 0.47099(9) 0.92667(8)
H39 H 0.284993 0.457688 0.960290
H40 H 0.349396 0.527194 0.882082
O17 O 0.62541(9) 0.56984(7) 0.87757(6)
N8 N 0.39584(12) 0.64956(9) 0.99005(8)
Co1 Co 0.32660(2) 0.91214(2) 0.57831(2)
O12 O 0.18722(9) 0.79237(8) 0.68427(7)
O13 O 0.12171(8) 0.91025(7) 0.56687(6)
N5 N 0.37623(11) 0.81096(9) 0.49583(8)
C39 C 0.09636(11) 0.83458(10) 0.63834(8)
C45 C 0.45973(17) 0.72631(13) 0.51356(12)
H28 H 0.503472 0.710976 0.562888
C46 C 0.4837(2) 0.66092(15) 0.46192(15)
H29 H 0.544249 0.603766 0.475538
C47 C 0.41730(19) 0.68073(14) 0.38988(14)
H30 H 0.431515 0.636702 0.354901
C48 C 0.32847(14) 0.76785(12) 0.37026(10)
C49 C 0.31331(13) 0.83045(11) 0.42504(9)
H31 H 0.255886 0.889589 0.411731
C53 C 0.27388(15) 0.76927(11) 0.06294(10)
C54 C 0.34936(14) 0.67737(11) 0.06407(9)
H35 H 0.368516 0.632862 0.119392
C55 C 0.03462(14) 0.85216(12) 0.24506(11)
C56 C 0.11581(14) 0.83275(13) 0.31005(11)
H36 H 0.081021 0.847066 0.363750
C57 C 0.24835(14) 0.79227(12) 0.29669(11)
C58 C 0.29967(15) 0.77178(12) 0.21580(11)
H37 H 0.387565 0.744015 0.206323
C59 C 0.22096(15) 0.79238(12) 0.14895(10)
C60 C 0.08829(15) 0.83269(12) 0.16397(11)
H38 H 0.035396 0.846641 0.119442
O16 O 0.49408(8) 0.85687(7) 0.63181(6)
C50 C 0.36797(16) 0.71393(12) 0.91085(10)
H32 H 0.399542 0.695167 0.858932
C51 C 0.2947(2) 0.80670(14) 0.90262(11)
H33 H 0.277740 0.849796 0.846259
C52 C 0.24676(19) 0.83478(13) 0.97951(12)
H34 H 0.196693 0.897069 0.975484
C20 C 0.63203(16) 0.28607(12) 0.08915(10)
H14 H 0.600458 0.304833 0.141068
C21 C 0.7053(2) 0.19330(14) 0.09738(11)
H15 H 0.722260 0.150204 0.153741
C22 C 0.75324(19) 0.16522(13) 0.02049(12)
H16 H 0.803307 0.102931 0.024516
O5 O 0.81278(9) 0.20763(8) 0.31573(7)
O6 O 0.87829(8) 0.08975(7) 0.43313(6)
N2 N 0.62377(11) 0.18904(9) 0.50417(8)
C9 C 0.90364(11) 0.16542(10) 0.36166(8)
C15 C 0.54027(17) 0.27369(13) 0.48644(12)
H10 H 0.496528 0.289024 0.437112
C16 C 0.5163(2) 0.33908(15) 0.53808(15)
H11 H 0.455751 0.396234 0.524462
C17 C 0.58270(19) 0.31927(14) 0.61012(14)
H12 H 0.568485 0.363298 0.645099
C18 C 0.67153(14) 0.23215(12) 0.62974(10)
C19 C 0.68669(13) 0.16955(11) 0.57496(9)
H13 H 0.744114 0.110411 0.588269
C23 C 0.72612(15) 0.23073(11) 0.93706(10)
C24 C 0.65064(14) 0.32263(11) 0.93593(9)
H17 H 0.631484 0.367138 0.880608
C25 C 0.96538(14) 0.14784(12) 0.75494(11)
C26 C 0.88419(14) 0.16725(13) 0.68995(11)
H18 H 0.918979 0.152934 0.636250
C27 C 0.75165(14) 0.20773(12) 0.70331(11)
C28 C 0.70033(15) 0.22822(12) 0.78420(11)
H19 H 0.612435 0.255985 0.793677
C29 C 0.77904(15) 0.20762(12) 0.85105(10)
C30 C 0.91171(15) 0.16731(12) 0.83603(11)
H20 H 0.964604 0.153359 0.880558
O8 O 0.64288(10) 0.96211(9) 0.53191(7)
O11 O 0.82794(13) 0.56063(13) 0.91344(9)
N4 N 0.72360(11) 0.98680(9) 0.33808(8)
C31 C 0.61233(11) 0.88607(9) 0.59935(7)
C32 C 0.72208(10) 0.82438(9) 0.64857(7)
C33 C 0.68973(11) 0.73848(9) 0.72468(8)
H21 H 0.601135 0.717749 0.742612
C34 C 0.78737(11) 0.68294(9) 0.77452(8)
C35 C 0.92064(11) 0.71366(10) 0.74604(8)
H22 H 0.987063 0.677029 0.778779
C36 C 0.95439(11) 0.79866(9) 0.66905(8)
C37 C 0.85508(11) 0.85459(9) 0.62022(8)
H23 H 0.877508 0.911816 0.568954
C38 C 0.74559(13) 0.59666(11) 0.86193(9)
C40 C 0.85157(13) 0.95345(12) 0.31595(10)
H24 H 0.918474 0.975847 0.336556
C41 C 0.89047(14) 0.88781(12) 0.26439(11)
C42 C 0.78965(17) 0.85520(16) 0.23382(14)
H25 H 0.810950 0.811669 0.198373
C43 C 0.65713(17) 0.88840(16) 0.25687(15)
H26 H 0.588088 0.866974 0.237453
C44 C 0.62842(14) 0.95321(13) 0.30864(12)
H27 H 0.538844 0.974724 0.323927
loop_
_geom_bond_atom_site_label_1
_geom_bond_atom_site_label_2
_geom_bond_site_symmetry_1
_geom_bond_site_symmetry_2
Co2 O3 1_555 1_555
O1 C1 1_555 1_555
O2 C1 1_555 1_555
O3 C8 1_555 1_555
O4 C8 1_555 1_555
O7 Co2 1_555 1_555
H1 O7 1_555 1_555
H2 O7 1_555 1_555
C1 C2 1_555 1_555
C2 C3 1_555 1_555
C3 H3 1_555 1_555
C4 C3 1_555 1_555
C5 C4 1_555 1_555
H4 C5 1_555 1_555
C6 C5 1_555 1_555
C7 C2 1_555 1_555
H5 C7 1_555 1_555
C8 C4 1_555 1_555
C10 N1 1_555 1_555
H6 C10 1_555 1_555
C11 C10 1_555 1_555
C12 C11 1_555 1_555
H7 C12 1_555 1_555
C13 C12 1_555 1_555
H8 C13 1_555 1_555
C14 N1 1_555 1_555
H9 C14 1_555 1_555
Co5 O2 1_555 1_555
N7 Co2 1_555 1_555
C6 C7 1_555 1_555
C13 C14 1_555 1_555
O14 Co2_2 1_555 1_555
H39 O14 1_555 1_555
H40 O14 1_555 1_555
O17 Co2_2 1_555 1_555
N8 Co2_2 1_555 1_555
O12 Co1 1_555 1_555
O13 Co1 1_555 1_555
N5 Co1 1_555 1_555
C39 O12 1_555 1_555
C45 N5 1_555 1_555
H28 C45 1_555 1_555
C46 C45 1_555 1_555
H29 C46 1_555 1_555
C47 C46 1_555 1_555
H30 C47 1_555 1_555
C48 C47 1_555 1_555
C49 N5 1_555 1_555
H31 C49 1_555 1_555
H35 C54 1_555 1_555
C56 C55 1_555 1_555
H36 C56 1_555 1_555
C57 C48 1_555 1_555
C58 C57 1_555 1_555
H37 C58 1_555 1_555
C59 C53 1_555 1_555
C60 C55 1_555 1_555
H38 C60 1_555 1_555
O16 Co1 1_555 1_555
O13 C39 1_555 1_555
C48 C49 1_555 1_555
C53 C54 1_555 1_555
C56 C57 1_555 1_555
C58 C59 1_555 1_555
C59 C60 1_555 1_555
N8 C50 1_555 1_555
C50 H32 1_555 1_555
C51 C50 1_555 1_555
H33 C51 1_555 1_555
C52 C51 1_555 1_555
H34 C52 1_555 1_555
N7 C20 1_555 1_555
C20 H14 1_555 1_555
C21 C20 1_555 1_555
H15 C21 1_555 1_555
C22 C21 1_555 1_555
H16 C22 1_555 1_555
O5 C9 1_555 1_555
O6 C9 1_555 1_555
N2 C15 1_555 1_555
C15 H10 1_555 1_555
C16 C15 1_555 1_555
H11 C16 1_555 1_555
C17 C16 1_555 1_555
H12 C17 1_555 1_555
C18 C17 1_555 1_555
C19 N2 1_555 1_555
H13 C19 1_555 1_555
H17 C24 1_555 1_555
C26 C25 1_555 1_555
H18 C26 1_555 1_555
C27 C18 1_555 1_555
C28 C27 1_555 1_555
H19 C28 1_555 1_555
C29 C23 1_555 1_555
C30 C25 1_555 1_555
H20 C30 1_555 1_555
Co5 O5 1_555 1_555
O6 Co5 1_555 1_555
N2 Co5 1_555 1_555
C18 C19 1_555 1_555
C23 C24 1_555 1_555
C26 C27 1_555 1_555
C28 C29 1_555 1_555
C29 C30 1_555 1_555
O16 C31 1_555 1_555
O17 C38 1_555 1_555
O11 C38 1_555 1_555
C31 O8 1_555 1_555
C32 C31 1_555 1_555
C33 C32 1_555 1_555
H21 C33 1_555 1_555
C34 C33 1_555 1_555
C35 C34 1_555 1_555
H22 C35 1_555 1_555
C36 C35 1_555 1_555
C37 C32 1_555 1_555
H23 C37 1_555 1_555
C38 C34 1_555 1_555
C40 N4 1_555 1_555
H24 C40 1_555 1_555
C41 C40 1_555 1_555
C42 C41 1_555 1_555
H25 C42 1_555 1_555
C43 C42 1_555 1_555
H26 C43 1_555 1_555
C44 N4 1_555 1_555
H27 C44 1_555 1_555
C36 C37 1_555 1_555
C43 C44 1_555 1_555

#END
