
###############################################################################
#
# This file contains modified crystal structure data generated from the
# MOF subset of the Cambridge Structural Database (CSD) v543 
# hosted by the Cambridge Crystallographic Data Centre (CCDC).
#
# This work is licensed under the Creative Commons
# Attribution-NonCommercial-ShareAlike 4.0 International License.
# To view a copy of this license, visit
# http://creativecommons.org/licenses/by-nc-sa/4.0/
# or send a letter to
# Creative Commons, PO Box 1866, Mountain View, CA 94042, USA.
#
# CIF created using the CSD Python API on 29 September 2022
# The structure has been converted into the P1 space group
# The structure has a 3D framework
# The original CSD entry RAMRUV is in the monoclinic crystal system
# The original CSD entry RAMRUV is in a Sohncke space group
# The framework has been calculated to contain at least 10.0% void space
# The void calculation uses a probe of radius 1.32A, grid spacing 0.4
#
###############################################################################

data_RAMRUV
_chemical_formula_moiety         '(C38 H60 N52 O8 Zn7)n'
_symmetry_cell_setting           triclinic
_symmetry_space_group_name_H-M   'P 1'
_symmetry_Int_Tables_number      1
_space_group_name_Hall           'P 1'
loop_
_symmetry_equiv_pos_site_id
_symmetry_equiv_pos_as_xyz
1 x,y,z
_cell_length_a                   10.185(4)
_cell_length_b                   21.488(9)
_cell_length_c                   10.501(5)
_cell_angle_alpha                90
_cell_angle_beta                 93.174(8)
_cell_angle_gamma                90
_cell_volume                     2294.67
loop_
_atom_site_label
_atom_site_type_symbol
_atom_site_fract_x
_atom_site_fract_y
_atom_site_fract_z
N13 N 0.0427(18) 0.7141(10) 0.146(2)
N14 N 0.132(2) 0.6794(11) 0.225(2)
N15 N 0.1296(19) 0.6232(11) 0.181(2)
N16 N 0.0475(18) 0.6177(10) 0.071(2)
N26 N 0.059(3) 0.4774(12) 0.150(2)
H3 H 0.1454 0.4744 0.1669
H4 H 0.0245 0.4969 0.2149
C7 C 0.000(2) 0.6735(12) 0.055(2)
C17 C 0.004(2) 0.4162(13) 0.138(2)
H27 H 0.0571 0.3873 0.1914
Zn8 Zn 0.0155(3) 0.80256(13) 0.1834(3)
Zn3 Zn 0.0235(3) 0.52966(13) 0.9838(3)
O3 O 0.0228(16) 0.4305(8) 0.9136(16)
N27 N 0.1566(17) 0.5463(10) 0.863(2)
N30 N 0.1590(17) 0.3114(11) 0.748(2)
Zn1 Zn 0.5100(3) 0.57389(12) 0.6794(3)
Zn2 Zn 0.4707(3) 0.34668(14) 0.5139(3)
Zn4 Zn 0.9845(3) 0.30256(13) 0.8166(3)
O1 O 0.477(2) 0.4490(9) 0.5791(18)
O2 O 0.5299(17) 0.5399(10) 0.5057(18)
O4 O 0.9656(19) 0.3362(8) 0.9837(17)
N2 N 0.137(2) 0.5969(13) 0.788(2)
N3 N 0.2434(19) 0.6066(9) 0.7180(19)
N4 N 0.3290(15) 0.5637(10) 0.7445(18)
N5 N 0.550(2) 0.6654(9) 0.645(2)
N6 N 0.6355(18) 0.6984(11) 0.715(2)
N7 N 0.638(2) 0.7542(11) 0.6756(19)
N8 N 0.548(2) 0.7583(11) 0.577(2)
N9 N 0.6461(13) 0.5470(10) 0.808(2)
N10 N 0.6280(19) 0.5595(11) 0.931(2)
N11 N 0.7394(17) 0.5534(10) 0.9963(18)
N12 N 0.8360(16) 0.5380(10) 0.9197(18)
N18 N 0.2568(19) 0.2654(12) 0.783(2)
N19 N 0.3559(19) 0.2760(10) 0.725(2)
N20 N 0.3337(16) 0.3278(10) 0.6503(19)
N21 N 0.8442(19) 0.3276(9) 0.683(2)
N22 N 0.8627(19) 0.3168(13) 0.552(2)
N23 N 0.751(2) 0.3265(13) 0.489(2)
N24 N 0.6620(17) 0.3415(11) 0.579(2)
N25 N 0.452(2) 0.3967(11) 0.356(2)
H1 H 0.4788 0.3739 0.2909
H2 H 0.3678 0.4057 0.3393
C1 C 0.276(2) 0.5288(11) 0.836(3)
C2 C 0.346(2) 0.4748(13) 0.899(3)
H5 H 0.4311 0.4702 0.8655
H6 H 0.3557 0.4819 0.9894
H7 H 0.2957 0.4375 0.8829
C3 C 0.492(2) 0.7028(11) 0.557(3)
C4 C 0.401(2) 0.6832(15) 0.450(3)
H8 H 0.3763 0.6406 0.4612
H9 H 0.3241 0.7090 0.4470
H10 H 0.4444 0.6874 0.3713
C5 C 0.7703(17) 0.5326(10) 0.810(2)
C6 C 0.840(2) 0.5152(11) 0.686(2)
H11 H 0.9311 0.5061 0.7071
H12 H 0.7985 0.4792 0.6472
H13 H 0.8339 0.5494 0.6272
C8 C 0.895(3) 0.6911(11) 0.959(3)
H14 H 0.8764 0.7347 0.9656
H15 H 0.9229 0.6821 0.8750
H16 H 0.8166 0.6677 0.9733
C9 C 0.2122(19) 0.3487(13) 0.667(2)
C10 C 0.151(2) 0.4051(11) 0.607(2)
H17 H 0.2110 0.4239 0.5511
H18 H 0.0716 0.3935 0.5589
H19 H 0.1303 0.4342 0.6722
C11 C 0.716(2) 0.3411(12) 0.700(2)
C12 C 0.660(2) 0.3562(16) 0.815(2)
H20 H 0.7248 0.3511 0.8840
H21 H 0.6310 0.3987 0.8117
H22 H 0.5868 0.3294 0.8272
C13 C 0.501(2) 0.4815(11) 0.489(2)
C14 C 0.530(2) 0.4563(9) 0.3623(18)
H23 H 0.6241 0.4475 0.3592
C15 C 0.487(2) 0.5012(8) 0.2569(16)
H24 H 0.5065 0.4838 0.1760
H25 H 0.3936 0.5081 0.2586
H26 H 0.5322 0.5400 0.2694
C16 C 0.993(3) 0.3910(16) 0.995(3)
Zn5 Zn 0.5293(3) 0.84668(14) 0.4861(3)
N28 N 0.452(2) 0.2583(11) 0.423(2)
N29 N 0.9573(18) 0.2141(10) 0.854(2)
Zn1_2 Zn 0.4900(3) 0.07389(12) 0.3206(3)
O2_2 O 0.4701(17) 0.0399(10) 0.4943(18)
N1 N 0.8434(17) 0.0463(10) 0.137(2)
N2_2 N 0.863(2) 0.0969(13) 0.212(2)
N3_2 N 0.7566(19) 0.1066(9) 0.2820(19)
N4_2 N 0.6710(15) 0.0637(10) 0.2555(18)
N5_2 N 0.450(2) 0.1654(9) 0.355(2)
N6_2 N 0.3645(18) 0.1984(11) 0.285(2)
N7_2 N 0.362(2) 0.2542(11) 0.3244(19)
N9_2 N 0.3539(13) 0.0470(10) 0.192(2)
N10_2 N 0.3720(19) 0.0595(11) 0.069(2)
N11_2 N 0.2606(17) 0.0534(10) 0.0037(18)
N12_2 N 0.1640(16) 0.0380(10) 0.0803(18)
C1_2 C 0.724(2) 0.0288(11) 0.164(3)
C3_2 C 0.508(2) 0.2028(11) 0.443(3)
C4_2 C 0.599(2) 0.1832(15) 0.550(3)
H8_2 H 0.6237 0.1406 0.5388
H9_2 H 0.6759 0.2090 0.5530
H10_2 H 0.5556 0.1874 0.6287
C5_2 C 0.2297(17) 0.0326(10) 0.190(2)
C6_2 C 0.160(2) 0.0152(11) 0.314(2)
H11_2 H 0.0689 0.0061 0.2929
H13_2 H 0.1661 0.0494 0.3728
C8_2 C 0.105(3) 0.1911(11) 0.041(3)
H14_2 H 0.1236 0.2347 0.0344
H15_2 H 0.0771 0.1821 0.1250
H16_2 H 0.1834 0.1677 0.0267
C15_2 C 0.513(2) 0.0012(8) 0.7431(16)
H25_2 H 0.6064 0.0081 0.7414
H26_2 H 0.4678 0.0400 0.7306
Zn6 Zn 0.9765(3) 0.02966(13) 0.0162(3)
O1_2 O 0.523(2) 0.9490(9) 0.4209(18)
O4_2 O 0.0344(19) 0.8362(8) 0.0163(17)
N17 N 0.8410(17) 0.8114(11) 0.252(2)
N18_2 N 0.7432(19) 0.7654(12) 0.217(2)
N19_2 N 0.6441(19) 0.7760(10) 0.275(2)
N20_2 N 0.6663(16) 0.8278(10) 0.3497(19)
N21_2 N 0.1558(19) 0.8276(9) 0.317(2)
N22_2 N 0.1373(19) 0.8168(13) 0.448(2)
N23_2 N 0.249(2) 0.8265(13) 0.511(2)
N24_2 N 0.3380(17) 0.8415(11) 0.421(2)
N25_2 N 0.548(2) 0.8967(11) 0.644(2)
H1_2 H 0.5212 0.8739 0.7091
H2_2 H 0.6322 0.9057 0.6607
C2_2 C 0.654(2) 0.9748(13) 0.101(3)
H5_2 H 0.5689 0.9702 0.1345
H6_2 H 0.6443 0.9819 0.0106
H7_2 H 0.7043 0.9375 0.1171
H12_2 H 0.2015 0.9792 0.3528
C9_2 C 0.7878(19) 0.8487(13) 0.333(2)
C10_2 C 0.849(2) 0.9051(11) 0.393(2)
H17_2 H 0.7890 0.9239 0.4489
H18_2 H 0.9284 0.8935 0.4411
H19_2 H 0.8697 0.9342 0.3278
C11_2 C 0.284(2) 0.8411(12) 0.300(2)
C12_2 C 0.340(2) 0.8562(16) 0.185(2)
H20_2 H 0.2752 0.8511 0.1160
H21_2 H 0.3690 0.8987 0.1883
H22_2 H 0.4132 0.8294 0.1728
C13_2 C 0.499(2) 0.9815(11) 0.511(2)
C14_2 C 0.470(2) 0.9563(9) 0.6377(18)
H23_2 H 0.3759 0.9475 0.6408
H24_2 H 0.4935 0.9838 0.8240
C16_2 C 0.007(3) 0.8910(16) 0.005(3)
N14_2 N 0.868(2) 0.1794(11) 0.775(2)
N15_2 N 0.8704(19) 0.1232(11) 0.819(2)
N16_2 N 0.9525(18) 0.1177(10) 0.929(2)
C7_2 C 1.000(2) 0.1735(12) 0.945(2)
O3_2 O 0.9772(16) 0.9305(8) 0.0864(16)
C7_3 C 1.000(2) 0.6735(12) 0.055(2)
C18 C 0.867(2) 0.4216(10) 0.190(2)
H28 H 0.8244 0.3819 0.1848
H29 H 0.8754 0.4349 0.2773
H30 H 0.8165 0.4515 0.1404
C7_4 C -0.000(2) 0.1735(12) 0.945(2)
C18_2 C 0.133(2) 0.9216(10) 0.810(2)
H28_2 H 0.1756 0.8819 0.8152
H29_2 H 0.1246 0.9349 0.7227
H30_2 H 0.1835 0.9515 0.8596
N26_2 N 0.941(3) 0.9774(12) 0.850(2)
H3_2 H 0.8546 0.9744 0.8331
H4_2 H 0.9755 0.9969 0.7851
C17_2 C 0.996(2) 0.9162(13) 0.862(2)
H27_2 H 0.9429 0.8873 0.8086
loop_
_geom_bond_atom_site_label_1
_geom_bond_atom_site_label_2
_geom_bond_site_symmetry_1
_geom_bond_site_symmetry_2
N13 N14 1_555 1_555
N14 N15 1_555 1_555
N15 N16 1_555 1_555
H3 N26 1_555 1_555
H4 N26 1_555 1_555
C7 N13 1_555 1_555
C17 N26 1_555 1_555
H27 C17 1_555 1_555
Zn8 N13 1_555 1_555
N16 C7 1_555 1_555
Zn3 O3 1_555 1_555
N27 Zn3 1_555 1_555
Zn1 O2 1_555 1_555
Zn2 O1 1_555 1_555
Zn4 O4 1_555 1_555
O1 C13 1_555 1_555
O2 C13 1_555 1_555
O4 C16 1_555 1_555
N27 N2 1_555 1_555
N2 N3 1_555 1_555
N3 N4 1_555 1_555
N4 Zn1 1_555 1_555
N5 Zn1 1_555 1_555
N6 N5 1_555 1_555
N7 N6 1_555 1_555
N8 N7 1_555 1_555
N9 Zn1 1_555 1_555
N10 N9 1_555 1_555
N11 N10 1_555 1_555
N30 N18 1_555 1_555
N18 N19 1_555 1_555
N19 N20 1_555 1_555
N20 Zn2 1_555 1_555
N21 Zn4 1_555 1_555
N22 N21 1_555 1_555
N23 N22 1_555 1_555
N24 Zn2 1_555 1_555
N25 Zn2 1_555 1_555
H1 N25 1_555 1_555
H2 N25 1_555 1_555
C1 N27 1_555 1_555
C2 C1 1_555 1_555
H5 C2 1_555 1_555
H6 C2 1_555 1_555
H7 C2 1_555 1_555
C3 N5 1_555 1_555
C4 C3 1_555 1_555
H8 C4 1_555 1_555
H9 C4 1_555 1_555
H10 C4 1_555 1_555
C5 N9 1_555 1_555
C6 C5 1_555 1_555
H11 C6 1_555 1_555
H12 C6 1_555 1_555
H13 C6 1_555 1_555
H14 C8 1_555 1_555
H15 C8 1_555 1_555
H16 C8 1_555 1_555
C9 N30 1_555 1_555
C10 C9 1_555 1_555
H17 C10 1_555 1_555
H18 C10 1_555 1_555
H19 C10 1_555 1_555
C11 N21 1_555 1_555
C12 C11 1_555 1_555
H20 C12 1_555 1_555
H21 C12 1_555 1_555
H22 C12 1_555 1_555
C13 C14 1_555 1_555
C14 N25 1_555 1_555
H23 C14 1_555 1_555
C15 C14 1_555 1_555
H24 C15 1_555 1_555
H25 C15 1_555 1_555
H26 C15 1_555 1_555
Zn5 N8 1_555 1_555
N28 Zn2 1_555 1_555
N29 Zn4 1_555 1_555
N4 C1 1_555 1_555
N8 C3 1_555 1_555
N11 N12 1_555 1_555
N12 C5 1_555 1_555
N20 C9 1_555 1_555
N23 N24 1_555 1_555
N24 C11 1_555 1_555
Zn1_2 O2_2 1_555 1_555
N1 N2_2 1_555 1_555
N2_2 N3_2 1_555 1_555
N3_2 N4_2 1_555 1_555
N4_2 Zn1_2 1_555 1_555
N5_2 Zn1_2 1_555 1_555
N6_2 N5_2 1_555 1_555
N7_2 N6_2 1_555 1_555
N28 N7_2 1_555 1_555
N9_2 Zn1_2 1_555 1_555
N10_2 N9_2 1_555 1_555
N11_2 N10_2 1_555 1_555
C1_2 N1 1_555 1_555
C3_2 N5_2 1_555 1_555
C4_2 C3_2 1_555 1_555
H8_2 C4_2 1_555 1_555
H9_2 C4_2 1_555 1_555
H10_2 C4_2 1_555 1_555
C5_2 N9_2 1_555 1_555
C6_2 C5_2 1_555 1_555
H11_2 C6_2 1_555 1_555
H13_2 C6_2 1_555 1_555
H14_2 C8_2 1_555 1_555
H15_2 C8_2 1_555 1_555
H16_2 C8_2 1_555 1_555
H25_2 C15_2 1_555 1_555
H26_2 C15_2 1_555 1_555
Zn6 N1 1_555 1_555
N4_2 C1_2 1_555 1_555
N28 C3_2 1_555 1_555
N11_2 N12_2 1_555 1_555
N12_2 C5_2 1_555 1_555
Zn5 O1_2 1_555 1_555
Zn8 O4_2 1_555 1_555
O1_2 C13_2 1_555 1_555
O4_2 C16_2 1_555 1_555
N17 N18_2 1_555 1_555
N18_2 N19_2 1_555 1_555
N19_2 N20_2 1_555 1_555
N20_2 Zn5 1_555 1_555
N21_2 Zn8 1_555 1_555
N22_2 N21_2 1_555 1_555
N23_2 N22_2 1_555 1_555
N24_2 Zn5 1_555 1_555
N25_2 Zn5 1_555 1_555
H1_2 N25_2 1_555 1_555
H2_2 N25_2 1_555 1_555
H5_2 C2_2 1_555 1_555
H6_2 C2_2 1_555 1_555
H7_2 C2_2 1_555 1_555
C9_2 N17 1_555 1_555
C10_2 C9_2 1_555 1_555
H17_2 C10_2 1_555 1_555
H18_2 C10_2 1_555 1_555
H19_2 C10_2 1_555 1_555
C11_2 N21_2 1_555 1_555
C12_2 C11_2 1_555 1_555
H20_2 C12_2 1_555 1_555
H21_2 C12_2 1_555 1_555
H22_2 C12_2 1_555 1_555
C13_2 C14_2 1_555 1_555
C14_2 N25_2 1_555 1_555
H23_2 C14_2 1_555 1_555
N20_2 C9_2 1_555 1_555
N23_2 N24_2 1_555 1_555
N24_2 C11_2 1_555 1_555
N29 N14_2 1_555 1_555
N14_2 N15_2 1_555 1_555
N15_2 N16_2 1_555 1_555
C7_2 N29 1_555 1_555
N16_2 C7_2 1_555 1_555
H28 C18 1_555 1_555
H29 C18 1_555 1_555
H30 C18 1_555 1_555
H28_2 C18_2 1_555 1_555
H29_2 C18_2 1_555 1_555
H30_2 C18_2 1_555 1_555
H3_2 N26_2 1_555 1_555
H4_2 N26_2 1_555 1_555
C17_2 N26_2 1_555 1_555
H27_2 C17_2 1_555 1_555

#END
