
###############################################################################
#
# This file contains modified crystal structure data generated from the
# MOF subset of the Cambridge Structural Database (CSD) v543 
# hosted by the Cambridge Crystallographic Data Centre (CCDC).
#
# This work is licensed under the Creative Commons
# Attribution-NonCommercial-ShareAlike 4.0 International License.
# To view a copy of this license, visit
# http://creativecommons.org/licenses/by-nc-sa/4.0/
# or send a letter to
# Creative Commons, PO Box 1866, Mountain View, CA 94042, USA.
#
# CIF created using the CSD Python API on 29 September 2022
# The structure has been converted into the P1 space group
# The structure has a 3D framework
# The original CSD entry RAMRIJ is in the monoclinic crystal system
# The original CSD entry RAMRIJ is in a Sohncke space group
# The framework has been calculated to contain at least 10.0% void space
# The void calculation uses a probe of radius 1.32A, grid spacing 0.4
#
###############################################################################

data_RAMRIJ
_chemical_formula_moiety         '(C44 H76 N52 O8 Zn7)n'
_symmetry_cell_setting           triclinic
_symmetry_space_group_name_H-M   'P 1'
_symmetry_Int_Tables_number      1
_space_group_name_Hall           'P 1'
loop_
_symmetry_equiv_pos_site_id
_symmetry_equiv_pos_as_xyz
1 x,y,z
_cell_length_a                   10.2303(3)
_cell_length_b                   21.4402(6)
_cell_length_c                   11.1573(4)
_cell_angle_alpha                90
_cell_angle_beta                 91.259(3)
_cell_angle_gamma                90
_cell_volume                     2446.65
loop_
_atom_site_label
_atom_site_type_symbol
_atom_site_fract_x
_atom_site_fract_y
_atom_site_fract_z
N13 N 0.0429(9) 0.7110(6) 0.1352(11)
N14 N 0.1281(11) 0.6770(6) 0.1952(11)
N15 N 0.1307(11) 0.6221(6) 0.1466(13)
N16 N 0.0420(10) 0.6207(5) 0.0509(11)
N26 N 0.0296(13) 0.4898(6) 0.1185(11)
H3 H 0.0952 0.5066 0.1610
C19 C 0.048(2) 0.4183(6) 0.1201(12)
H31 H 0.1426 0.4106 0.1280
C22 C 0.023(2) 0.3900(9) 0.3334(11)
H37 H 0.1149 0.3823 0.3436
H38 H 0.0040 0.4323 0.3547
Zn8 Zn 0.00981(15) 0.80060(7) 0.17951(15)
Zn3 Zn 0.01999(14) 0.53238(7) 0.96499(16)
O3 O 0.0181(10) 0.4324(5) 0.9087(9)
C18 C 0.0054(18) 0.3972(7) 0.9917(16)
N27 N 0.1608(9) 0.5496(5) 0.8451(9)
N30 N 0.1681(8) 0.3086(5) 0.7532(10)
Zn1 Zn 0.51612(14) 0.57718(7) 0.67946(15)
Zn2 Zn 0.48565(14) 0.34543(6) 0.53417(16)
Zn4 Zn 0.99019(15) 0.30060(7) 0.82049(15)
O1 O 0.4812(9) 0.4445(4) 0.5903(9)
O2 O 0.5481(9) 0.5366(5) 0.5289(9)
O4 O 0.9868(14) 0.3386(5) 0.9788(10)
N2 N 0.1407(10) 0.6025(6) 0.7727(12)
N3 N 0.2443(8) 0.6131(6) 0.7112(12)
N4 N 0.3379(9) 0.5660(6) 0.7407(10)
N5 N 0.5399(10) 0.6664(6) 0.6300(10)
N6 N 0.6290(11) 0.7031(6) 0.6950(13)
N7 N 0.6240(12) 0.7589(6) 0.6482(13)
N8 N 0.5385(10) 0.7603(5) 0.5562(11)
N9 N 0.6544(9) 0.5525(5) 0.8014(9)
N10 N 0.6343(10) 0.5628(8) 0.9256(10)
N11 N 0.7408(9) 0.5531(7) 0.9795(9)
N12 N 0.8335(9) 0.5408(6) 0.9029(10)
N18 N 0.2605(12) 0.2699(7) 0.7857(13)
N19 N 0.3627(11) 0.2789(7) 0.7280(14)
N20 N 0.3438(8) 0.3266(5) 0.6544(10)
N21 N 0.8539(9) 0.3237(5) 0.7007(11)
N22 N 0.8769(10) 0.3154(8) 0.5901(11)
N23 N 0.7669(11) 0.3209(8) 0.5237(11)
N24 N 0.6685(9) 0.3368(6) 0.6027(10)
N25 N 0.4700(14) 0.3964(5) 0.3721(10)
H1 H 0.5075 0.3750 0.3137
H2 H 0.3860 0.4016 0.3521
C1 C 0.2821(9) 0.5304(6) 0.8245(11)
C2 C 0.3477(13) 0.4739(7) 0.8852(15)
H5 H 0.4348 0.4693 0.8562
H6 H 0.3512 0.4801 0.9704
H7 H 0.2981 0.4370 0.8668
C3 C 0.4925(11) 0.7018(6) 0.5491(12)
C4 C 0.3898(13) 0.6816(8) 0.4541(16)
H8 H 0.3688 0.7163 0.4027
H9 H 0.4241 0.6481 0.4072
H10 H 0.3122 0.6679 0.4932
C5 C 0.7794(10) 0.5398(7) 0.7919(12)
C6 C 0.8458(12) 0.5283(11) 0.6815(13)
H11 H 0.9366 0.5201 0.6986
H12 H 0.8073 0.4928 0.6419
H13 H 0.8377 0.5642 0.6305
C8 C 0.8889(15) 0.6974(8) 0.9611(17)
H14 H 0.8656 0.7394 0.9809
H15 H 0.9239 0.6963 0.8820
H16 H 0.8126 0.6714 0.9637
C9 C 0.2248(11) 0.3456(6) 0.6726(11)
C10 C 0.1624(13) 0.3981(8) 0.6197(16)
H17 H 0.0750 0.4014 0.6487
H18 H 0.2104 0.4351 0.6404
H19 H 0.1593 0.3933 0.5341
C11 C 0.7274(10) 0.3388(7) 0.7080(13)
C12 C 0.6626(12) 0.3605(9) 0.8226(14)
H20 H 0.7243 0.3580 0.8885
H21 H 0.6338 0.4029 0.8130
H22 H 0.5888 0.3343 0.8384
C13 C 0.5151(14) 0.4812(7) 0.5127(15)
C14 C 0.5338(11) 0.4582(4) 0.3843(9)
H23 H 0.6266 0.4560 0.3649
C15 C 0.4592(13) 0.4991(6) 0.2967(13)
H24 H 0.4438 0.4712 0.2282
C16 C 0.505(2) 0.5566(8) 0.2396(18)
H25 H 0.4375 0.5730 0.1878
H26 H 0.5275 0.5868 0.3002
H27 H 0.5811 0.5476 0.1934
C17 C 0.3213(11) 0.5162(5) 0.3330(12)
H28 H 0.2818 0.4812 0.3718
H29 H 0.3248 0.5510 0.3872
H30 H 0.2703 0.5273 0.2629
Zn5 Zn 0.51435(14) 0.84543(6) 0.46583(16)
N28 N 0.4615(10) 0.2603(5) 0.4438(11)
N29 N 0.9571(9) 0.2110(6) 0.8648(11)
Zn1_2 Zn 0.48388(14) 0.07718(7) 0.32054(15)
O2_2 O 0.4519(9) 0.0366(5) 0.4711(9)
N1 N 0.8392(9) 0.0496(5) 0.1549(9)
N2_2 N 0.8593(10) 0.1025(6) 0.2273(12)
N3_2 N 0.7557(8) 0.1131(6) 0.2888(12)
N4_2 N 0.6621(9) 0.0660(6) 0.2593(10)
N5_2 N 0.4601(10) 0.1664(6) 0.3700(10)
N6_2 N 0.3710(11) 0.2031(6) 0.3050(13)
N7_2 N 0.3760(12) 0.2589(6) 0.3518(13)
N9_2 N 0.3456(9) 0.0525(5) 0.1986(9)
N10_2 N 0.3657(10) 0.0628(8) 0.0744(10)
N11_2 N 0.2592(9) 0.0531(7) 0.0205(9)
N12_2 N 0.1665(9) 0.0408(6) 0.0971(10)
C1_2 C 0.7179(9) 0.0304(6) 0.1755(11)
C3_2 C 0.5075(11) 0.2018(6) 0.4509(12)
C4_2 C 0.6102(13) 0.1816(8) 0.5459(16)
H8_2 H 0.6312 0.2163 0.5973
H9_2 H 0.5759 0.1481 0.5928
H10_2 H 0.6878 0.1679 0.5068
C5_2 C 0.2206(10) 0.0398(7) 0.2081(12)
C6_2 C 0.1542(12) 0.0283(11) 0.3185(13)
H11_2 H 0.0634 0.0201 0.3014
H13_2 H 0.1623 0.0642 0.3695
C8_2 C 0.1111(15) 0.1974(8) 0.0389(17)
H14_2 H 0.1344 0.2394 0.0191
H15_2 H 0.0761 0.1963 0.1180
H16_2 H 0.1874 0.1714 0.0363
C16_2 C 0.495(2) 0.0566(8) 0.7604(18)
H25_2 H 0.5625 0.0730 0.8122
H26_2 H 0.4725 0.0868 0.6998
H27_2 H 0.4189 0.0476 0.8066
C17_2 C 0.6787(11) 0.0162(5) 0.6670(12)
H29_2 H 0.6752 0.0510 0.6128
H30_2 H 0.7297 0.0273 0.7371
Zn6 Zn 0.98001(14) 0.03238(7) 0.03501(16)
O1_2 O 0.5188(9) 0.9445(4) 0.4097(9)
O4_2 O 0.0132(14) 0.8386(5) 0.0212(10)
N17 N 0.8319(8) 0.8086(5) 0.2468(10)
N18_2 N 0.7395(12) 0.7699(7) 0.2143(13)
N19_2 N 0.6373(11) 0.7789(7) 0.2720(14)
N20_2 N 0.6562(8) 0.8266(5) 0.3456(10)
N21_2 N 0.1461(9) 0.8237(5) 0.2993(11)
N22_2 N 0.1231(10) 0.8154(8) 0.4099(11)
N23_2 N 0.2331(11) 0.8209(8) 0.4763(11)
N24_2 N 0.3315(9) 0.8368(6) 0.3973(10)
N25_2 N 0.5300(14) 0.8964(5) 0.6279(10)
H1_2 H 0.4925 0.8750 0.6863
H2_2 H 0.6140 0.9016 0.6479
C2_2 C 0.6523(13) 0.9739(7) 0.1148(15)
H5_2 H 0.5652 0.9693 0.1438
H6_2 H 0.6488 0.9801 0.0296
H7_2 H 0.7019 0.9370 0.1332
H12_2 H 0.1927 0.9928 0.3581
C9_2 C 0.7752(11) 0.8456(6) 0.3274(11)
C10_2 C 0.8376(13) 0.8981(8) 0.3803(16)
H17_2 H 0.9250 0.9014 0.3513
H18_2 H 0.7896 0.9351 0.3596
H19_2 H 0.8407 0.8933 0.4659
C11_2 C 0.2726(10) 0.8388(7) 0.2920(13)
C12_2 C 0.3374(12) 0.8605(9) 0.1774(14)
H20_2 H 0.2757 0.8580 0.1115
H21_2 H 0.3662 0.9029 0.1870
H22_2 H 0.4112 0.8343 0.1616
C13_2 C 0.4849(14) 0.9812(7) 0.4873(15)
C14_2 C 0.4662(11) 0.9582(4) 0.6157(9)
H23_2 H 0.3734 0.9560 0.6351
C15_2 C 0.5408(13) 0.9991(6) 0.7033(13)
H24_2 H 0.5562 0.9712 0.7718
H28_2 H 0.7182 0.9812 0.6282
N14_2 N 0.8719(11) 0.1770(6) 0.8048(11)
N15_2 N 0.8693(11) 0.1221(6) 0.8534(13)
N16_2 N 0.9580(10) 0.1207(5) 0.9491(11)
H3_2 H 0.9048 0.0066 0.8390
O3_2 O 0.9819(10) 0.9324(5) 0.0913(9)
C18_2 C 0.9946(18) 0.8972(7) 0.0083(16)
H4 H 0.9564 0.4982 0.1570
C7 C 0.9844(12) 0.6752(7) 0.0452(13)
C20 C 0.9847(18) 0.3795(9) 0.2113(12)
H32 H 0.9950 0.3353 0.1915
C21 C 0.8409(19) 0.3944(11) 0.227(2)
H33 H 0.7948 0.3899 0.1519
H34 H 0.8048 0.3661 0.2846
H35 H 0.8321 0.4364 0.2556
H36 H 0.9753 0.3622 0.3840
C7_2 C 0.0156(12) 0.1752(7) 0.9548(13)
H4_2 H 0.0436 0.9982 0.8430
C20_2 C 0.0153(18) 0.8795(9) 0.7887(12)
H32_2 H 0.0050 0.8353 0.8085
C21_2 C 0.1591(19) 0.8944(11) 0.773(2)
H33_2 H 0.2052 0.8899 0.8481
H34_2 H 0.1952 0.8661 0.7154
H35_2 H 0.1679 0.9364 0.7444
H36_2 H 0.0247 0.8622 0.6160
N26_2 N 0.9704(13) 0.9898(6) 0.8815(11)
C19_2 C 0.952(2) 0.9183(6) 0.8799(12)
H31_2 H 0.8574 0.9106 0.8720
C22_2 C 0.977(2) 0.8900(9) 0.6666(11)
H37_2 H 0.8851 0.8823 0.6564
H38_2 H 0.9960 0.9323 0.6453
loop_
_geom_bond_atom_site_label_1
_geom_bond_atom_site_label_2
_geom_bond_site_symmetry_1
_geom_bond_site_symmetry_2
N13 N14 1_555 1_555
N14 N15 1_555 1_555
N15 N16 1_555 1_555
H3 N26 1_555 1_555
C19 N26 1_555 1_555
H31 C19 1_555 1_555
H37 C22 1_555 1_555
H38 C22 1_555 1_555
Zn8 N13 1_555 1_555
Zn3 O3 1_555 1_555
O3 C18 1_555 1_555
N27 Zn3 1_555 1_555
Zn1 O2 1_555 1_555
Zn2 O1 1_555 1_555
Zn4 O4 1_555 1_555
O1 C13 1_555 1_555
O2 C13 1_555 1_555
N27 N2 1_555 1_555
N2 N3 1_555 1_555
N3 N4 1_555 1_555
N4 Zn1 1_555 1_555
N5 Zn1 1_555 1_555
N6 N5 1_555 1_555
N7 N6 1_555 1_555
N8 N7 1_555 1_555
N9 Zn1 1_555 1_555
N10 N9 1_555 1_555
N11 N10 1_555 1_555
N30 N18 1_555 1_555
N18 N19 1_555 1_555
N19 N20 1_555 1_555
N20 Zn2 1_555 1_555
N21 Zn4 1_555 1_555
N22 N21 1_555 1_555
N23 N22 1_555 1_555
N24 Zn2 1_555 1_555
N25 Zn2 1_555 1_555
H1 N25 1_555 1_555
H2 N25 1_555 1_555
C1 N27 1_555 1_555
C2 C1 1_555 1_555
H5 C2 1_555 1_555
H6 C2 1_555 1_555
H7 C2 1_555 1_555
C3 N5 1_555 1_555
C4 C3 1_555 1_555
H8 C4 1_555 1_555
H9 C4 1_555 1_555
H10 C4 1_555 1_555
C5 N9 1_555 1_555
C6 C5 1_555 1_555
H11 C6 1_555 1_555
H12 C6 1_555 1_555
H13 C6 1_555 1_555
H14 C8 1_555 1_555
H15 C8 1_555 1_555
H16 C8 1_555 1_555
C9 N30 1_555 1_555
C10 C9 1_555 1_555
H17 C10 1_555 1_555
H18 C10 1_555 1_555
H19 C10 1_555 1_555
C11 N21 1_555 1_555
C12 C11 1_555 1_555
H20 C12 1_555 1_555
H21 C12 1_555 1_555
H22 C12 1_555 1_555
C13 C14 1_555 1_555
C14 N25 1_555 1_555
H23 C14 1_555 1_555
C15 C14 1_555 1_555
H24 C15 1_555 1_555
C16 C15 1_555 1_555
H25 C16 1_555 1_555
H26 C16 1_555 1_555
H27 C16 1_555 1_555
C17 C15 1_555 1_555
H28 C17 1_555 1_555
H29 C17 1_555 1_555
H30 C17 1_555 1_555
Zn5 N8 1_555 1_555
N28 Zn2 1_555 1_555
N29 Zn4 1_555 1_555
N4 C1 1_555 1_555
N8 C3 1_555 1_555
N11 N12 1_555 1_555
N12 C5 1_555 1_555
N20 C9 1_555 1_555
N23 N24 1_555 1_555
N24 C11 1_555 1_555
Zn1_2 O2_2 1_555 1_555
N1 N2_2 1_555 1_555
N2_2 N3_2 1_555 1_555
N3_2 N4_2 1_555 1_555
N4_2 Zn1_2 1_555 1_555
N5_2 Zn1_2 1_555 1_555
N6_2 N5_2 1_555 1_555
N7_2 N6_2 1_555 1_555
N28 N7_2 1_555 1_555
N9_2 Zn1_2 1_555 1_555
N10_2 N9_2 1_555 1_555
N11_2 N10_2 1_555 1_555
C1_2 N1 1_555 1_555
C3_2 N5_2 1_555 1_555
C4_2 C3_2 1_555 1_555
H8_2 C4_2 1_555 1_555
H9_2 C4_2 1_555 1_555
H10_2 C4_2 1_555 1_555
C5_2 N9_2 1_555 1_555
C6_2 C5_2 1_555 1_555
H11_2 C6_2 1_555 1_555
H13_2 C6_2 1_555 1_555
H14_2 C8_2 1_555 1_555
H15_2 C8_2 1_555 1_555
H16_2 C8_2 1_555 1_555
H25_2 C16_2 1_555 1_555
H26_2 C16_2 1_555 1_555
H27_2 C16_2 1_555 1_555
H29_2 C17_2 1_555 1_555
H30_2 C17_2 1_555 1_555
Zn6 N1 1_555 1_555
N4_2 C1_2 1_555 1_555
N28 C3_2 1_555 1_555
N11_2 N12_2 1_555 1_555
N12_2 C5_2 1_555 1_555
Zn5 O1_2 1_555 1_555
Zn8 O4_2 1_555 1_555
O1_2 C13_2 1_555 1_555
N17 N18_2 1_555 1_555
N18_2 N19_2 1_555 1_555
N19_2 N20_2 1_555 1_555
N20_2 Zn5 1_555 1_555
N21_2 Zn8 1_555 1_555
N22_2 N21_2 1_555 1_555
N23_2 N22_2 1_555 1_555
N24_2 Zn5 1_555 1_555
N25_2 Zn5 1_555 1_555
H1_2 N25_2 1_555 1_555
H2_2 N25_2 1_555 1_555
H5_2 C2_2 1_555 1_555
H6_2 C2_2 1_555 1_555
H7_2 C2_2 1_555 1_555
C9_2 N17 1_555 1_555
C10_2 C9_2 1_555 1_555
H17_2 C10_2 1_555 1_555
H18_2 C10_2 1_555 1_555
H19_2 C10_2 1_555 1_555
C11_2 N21_2 1_555 1_555
C12_2 C11_2 1_555 1_555
H20_2 C12_2 1_555 1_555
H21_2 C12_2 1_555 1_555
H22_2 C12_2 1_555 1_555
C13_2 C14_2 1_555 1_555
C14_2 N25_2 1_555 1_555
H23_2 C14_2 1_555 1_555
C15_2 C14_2 1_555 1_555
H24_2 C15_2 1_555 1_555
N20_2 C9_2 1_555 1_555
N23_2 N24_2 1_555 1_555
N24_2 C11_2 1_555 1_555
N29 N14_2 1_555 1_555
N14_2 N15_2 1_555 1_555
N15_2 N16_2 1_555 1_555
O3_2 C18_2 1_555 1_555
H32 C20 1_555 1_555
C21 C20 1_555 1_555
H33 C21 1_555 1_555
H34 C21 1_555 1_555
H35 C21 1_555 1_555
H32_2 C20_2 1_555 1_555
C21_2 C20_2 1_555 1_555
H33_2 C21_2 1_555 1_555
H34_2 C21_2 1_555 1_555
H35_2 C21_2 1_555 1_555
C19_2 N26_2 1_555 1_555
H31_2 C19_2 1_555 1_555
H37_2 C22_2 1_555 1_555
H38_2 C22_2 1_555 1_555

#END
