
###############################################################################
#
# This file contains modified crystal structure data generated from the
# MOF subset of the Cambridge Structural Database (CSD) v543 
# hosted by the Cambridge Crystallographic Data Centre (CCDC).
#
# This work is licensed under the Creative Commons
# Attribution-NonCommercial-ShareAlike 4.0 International License.
# To view a copy of this license, visit
# http://creativecommons.org/licenses/by-nc-sa/4.0/
# or send a letter to
# Creative Commons, PO Box 1866, Mountain View, CA 94042, USA.
#
# CIF created using the CSD Python API on 29 September 2022
# The structure has been converted into the P1 space group
# The structure has a 3D framework
# The original CSD entry RAMROP is in the monoclinic crystal system
# The original CSD entry RAMROP is in a Sohncke space group
# The framework has been calculated to contain at least 10.0% void space
# The void calculation uses a probe of radius 1.32A, grid spacing 0.4
#
###############################################################################

data_RAMROP
_chemical_formula_moiety         '(C36 H60 N52 O12 Zn7)n'
_symmetry_cell_setting           triclinic
_symmetry_space_group_name_H-M   'P 1'
_symmetry_Int_Tables_number      1
_space_group_name_Hall           'P 1'
loop_
_symmetry_equiv_pos_site_id
_symmetry_equiv_pos_as_xyz
1 x,y,z
_cell_length_a                   10.110(5)
_cell_length_b                   21.362(10)
_cell_length_c                   10.475(5)
_cell_angle_alpha                90
_cell_angle_beta                 93.970(6)
_cell_angle_gamma                90
_cell_volume                     2256.86
loop_
_atom_site_label
_atom_site_type_symbol
_atom_site_fract_x
_atom_site_fract_y
_atom_site_fract_z
N13 N 0.0520(18) 0.7094(10) 0.159(2)
N14 N 0.1433(16) 0.6755(11) 0.231(2)
N15 N 0.1403(17) 0.6193(9) 0.196(2)
N16 N 0.0502(18) 0.6135(9) 0.0923(17)
N26 N 0.042(2) 0.4712(10) 0.153(2)
H5 H 0.1172 0.4822 0.1963
C16 C 0.007(3) 0.3876(15) 0.006(2)
C17 C 0.041(3) 0.4004(10) 0.148(2)
H28 H 0.1221 0.3802 0.1839
Zn8 Zn 0.0121(3) 0.79985(13) 0.1913(3)
Zn3 Zn 0.0254(2) 0.52473(13) 0.9956(3)
O3 O 0.0245(17) 0.4265(7) 0.9164(14)
N27 N 0.1600(16) 0.5472(10) 0.8703(19)
N30 N 0.1678(17) 0.3112(11) 0.739(2)
Zn1 Zn 0.5081(3) 0.57648(13) 0.6915(3)
Zn2 Zn 0.4695(3) 0.35145(13) 0.5043(3)
Zn4 Zn 0.9879(3) 0.29985(13) 0.8087(3)
O1 O 0.4717(19) 0.4515(10) 0.574(2)
O2 O 0.5257(17) 0.5462(9) 0.5121(19)
O4 O 0.985(2) 0.3316(9) 0.9759(19)
O5 O 0.3163(11) 0.5176(5) 0.2688(16)
H1 H 0.2856 0.5436 0.2172
N2 N 0.136(2) 0.5996(12) 0.795(3)
N3 N 0.237(2) 0.6133(12) 0.731(2)
N4 N 0.3332(17) 0.5658(9) 0.758(2)
N5 N 0.540(2) 0.6673(11) 0.658(2)
N6 N 0.635(2) 0.6993(9) 0.7308(19)
N7 N 0.642(2) 0.7564(11) 0.683(2)
N8 N 0.5493(19) 0.7632(11) 0.579(2)
N9 N 0.6510(17) 0.5496(10) 0.826(2)
N10 N 0.622(2) 0.5544(13) 0.947(2)
N12 N 0.8341(16) 0.5327(10) 0.9278(19)
N18 N 0.2553(17) 0.2688(11) 0.767(2)
N19 N 0.3601(19) 0.2781(13) 0.703(2)
N20 N 0.337(2) 0.3308(10) 0.636(2)
N21 N 0.8561(15) 0.3299(9) 0.6825(18)
N22 N 0.8651(16) 0.3172(11) 0.553(2)
N23 N 0.755(2) 0.3257(12) 0.487(2)
N24 N 0.6617(16) 0.3441(10) 0.5656(18)
N25 N 0.4384(14) 0.4048(6) 0.3418(15)
H3 H 0.4669 0.3844 0.2750
H4 H 0.3521 0.4123 0.3265
C1 C 0.2819(18) 0.5283(12) 0.841(2)
C2 C 0.346(2) 0.4660(11) 0.891(2)
H7 H 0.2905 0.4469 0.9511
H8 H 0.3551 0.4381 0.8205
H9 H 0.4318 0.4744 0.9327
C3 C 0.486(3) 0.7073(14) 0.577(3)
C4 C 0.380(2) 0.6900(13) 0.467(3)
H10 H 0.3549 0.7270 0.4196
H11 H 0.4169 0.6600 0.4113
H12 H 0.3038 0.6724 0.5031
C5 C 0.7758(17) 0.5334(12) 0.814(3)
C6 C 0.842(3) 0.5147(16) 0.696(3)
H13 H 0.7808 0.5187 0.6227
H14 H 0.9174 0.5413 0.6865
H15 H 0.8712 0.4720 0.7043
C8 C 0.900(3) 0.6868(14) 0.977(3)
H16 H 0.8852 0.7311 0.9811
H17 H 0.9264 0.6761 0.8930
H18 H 0.8204 0.6648 0.9929
C9 C 0.218(2) 0.3508(14) 0.658(3)
C10 C 0.147(2) 0.4020(12) 0.598(3)
H19 H 0.0622 0.4059 0.6329
H20 H 0.1966 0.4400 0.6133
H21 H 0.1351 0.3945 0.5076
C11 C 0.725(2) 0.3452(13) 0.683(3)
C12 C 0.665(2) 0.3565(14) 0.809(2)
H22 H 0.7329 0.3547 0.8772
H23 H 0.6238 0.3970 0.8075
H24 H 0.5994 0.3250 0.8215
C13 C 0.4946(15) 0.4889(8) 0.4949(14)
C14 C 0.5106(14) 0.4646(6) 0.3595(13)
H25 H 0.6049 0.4579 0.3476
C15 C 0.4539(11) 0.5142(6) 0.2619(12)
H26 H 0.4936 0.5547 0.2815
H27 H 0.4746 0.5024 0.1761
Zn5 Zn 0.5305(3) 0.85145(13) 0.4957(3)
N28 N 0.4507(19) 0.2632(11) 0.421(2)
N29 N 0.9480(18) 0.2094(10) 0.841(2)
Zn1_2 Zn 0.4919(3) 0.07648(13) 0.3085(3)
O2_2 O 0.4743(17) 0.0462(9) 0.4879(19)
O5_2 O 0.6837(11) 0.0176(5) 0.7312(16)
H1_2 H 0.7144 0.0436 0.7828
N1 N 0.8400(16) 0.0472(10) 0.1297(19)
N2_2 N 0.864(2) 0.0996(12) 0.205(3)
N3_2 N 0.763(2) 0.1133(12) 0.269(2)
N4_2 N 0.6668(17) 0.0658(9) 0.242(2)
N5_2 N 0.460(2) 0.1673(11) 0.342(2)
N6_2 N 0.365(2) 0.1993(9) 0.2692(19)
N7_2 N 0.358(2) 0.2564(11) 0.317(2)
N9_2 N 0.3490(17) 0.0496(10) 0.174(2)
N10_2 N 0.378(2) 0.0544(13) 0.053(2)
N12_2 N 0.1659(16) 0.0327(10) 0.0722(19)
C1_2 C 0.7181(18) 0.0283(12) 0.159(2)
C3_2 C 0.514(3) 0.2073(14) 0.423(3)
C4_2 C 0.620(2) 0.1900(13) 0.533(3)
H10_2 H 0.6451 0.2270 0.5804
H11_2 H 0.5831 0.1600 0.5887
H12_2 H 0.6962 0.1724 0.4969
C5_2 C 0.2242(17) 0.0334(12) 0.186(3)
C6_2 C 0.158(3) 0.0147(16) 0.304(3)
H13_2 H 0.2192 0.0187 0.3773
H14_2 H 0.0826 0.0413 0.3135
C8_2 C 0.100(3) 0.1868(14) 0.023(3)
H16_2 H 0.1148 0.2311 0.0189
H17_2 H 0.0736 0.1761 0.1070
H18_2 H 0.1796 0.1648 0.0071
C15_2 C 0.5461(11) 0.0142(6) 0.7381(12)
H26_2 H 0.5064 0.0547 0.7185
H27_2 H 0.5254 0.0024 0.8239
Zn6 Zn 0.9746(2) 0.02473(13) 0.0044(3)
O1_2 O 0.5283(19) 0.9515(10) 0.426(2)
O4_2 O 0.015(2) 0.8316(9) 0.0241(19)
N17 N 0.8322(17) 0.8112(11) 0.261(2)
N18_2 N 0.7447(17) 0.7688(11) 0.233(2)
N19_2 N 0.6399(19) 0.7781(13) 0.297(2)
N20_2 N 0.663(2) 0.8308(10) 0.364(2)
N21_2 N 0.1439(15) 0.8299(9) 0.3175(18)
N22_2 N 0.1349(16) 0.8172(11) 0.447(2)
N23_2 N 0.245(2) 0.8257(12) 0.513(2)
N24_2 N 0.3383(16) 0.8441(10) 0.4344(18)
N25_2 N 0.5616(14) 0.9048(6) 0.6582(15)
H3_2 H 0.5331 0.8844 0.7250
H4_2 H 0.6479 0.9123 0.6735
C2_2 C 0.654(2) 0.9660(11) 0.109(2)
H7_2 H 0.7095 0.9469 0.0489
H8_2 H 0.6449 0.9381 0.1795
H9_2 H 0.5682 0.9744 0.0673
H15_2 H 0.1288 0.9720 0.2957
C9_2 C 0.782(2) 0.8508(14) 0.342(3)
C10_2 C 0.853(2) 0.9020(12) 0.402(3)
H19_2 H 0.9378 0.9059 0.3671
H20_2 H 0.8034 0.9400 0.3867
H21_2 H 0.8649 0.8945 0.4924
C11_2 C 0.275(2) 0.8452(13) 0.317(3)
C12_2 C 0.335(2) 0.8565(14) 0.191(2)
H22_2 H 0.2671 0.8547 0.1228
H23_2 H 0.3762 0.8970 0.1925
H24_2 H 0.4006 0.8250 0.1785
C13_2 C 0.5054(15) 0.9889(8) 0.5051(14)
C14_2 C 0.4894(14) 0.9646(6) 0.6405(13)
H25_2 H 0.3951 0.9579 0.6524
N14_2 N 0.8567(16) 0.1755(11) 0.769(2)
N15_2 N 0.8597(17) 0.1193(9) 0.804(2)
N16_2 N 0.9498(18) 0.1135(9) 0.9077(17)
O3_2 O 0.9755(17) 0.9265(7) 0.0836(14)
O6 O 0.793(3) 0.4210(14) 0.178(3)
H2 H 0.7328 0.3957 0.1642
N11 N 0.7389(17) 0.5443(11) 0.016(2)
H6 H 0.9764 0.4824 0.2009
C7 C 0.999(2) 0.6701(12) 0.067(2)
C18 C 0.916(3) 0.3874(13) 0.219(3)
H29 H 0.8982 0.3428 0.2129
H30 H 0.9375 0.3966 0.3090
N11_2 N 0.2611(17) 0.0443(11) 0.984(2)
C7_2 C 0.001(2) 0.1701(12) 0.933(2)
O6_2 O 0.207(3) 0.9210(14) 0.822(3)
H2_2 H 0.2672 0.8957 0.8358
H6_2 H 0.0236 0.9824 0.7991
C18_2 C 0.084(3) 0.8874(13) 0.781(3)
H29_2 H 0.1018 0.8428 0.7871
H30_2 H 0.0625 0.8966 0.6910
N26_2 N 0.958(2) 0.9712(10) 0.847(2)
H5_2 H 0.8828 0.9822 0.8037
C16_2 C 0.993(3) 0.8876(15) 0.994(2)
C17_2 C 0.959(3) 0.9004(10) 0.852(2)
H28_2 H 0.8779 0.8802 0.8161
loop_
_geom_bond_atom_site_label_1
_geom_bond_atom_site_label_2
_geom_bond_site_symmetry_1
_geom_bond_site_symmetry_2
N13 N14 1_555 1_555
N14 N15 1_555 1_555
N15 N16 1_555 1_555
H5 N26 1_555 1_555
C16 C17 1_555 1_555
C17 N26 1_555 1_555
H28 C17 1_555 1_555
Zn8 N13 1_555 1_555
Zn3 O3 1_555 1_555
N27 Zn3 1_555 1_555
Zn1 O2 1_555 1_555
Zn2 O1 1_555 1_555
Zn4 O4 1_555 1_555
O1 C13 1_555 1_555
O2 C13 1_555 1_555
O5 H1 1_555 1_555
N27 N2 1_555 1_555
N2 N3 1_555 1_555
N3 N4 1_555 1_555
N4 Zn1 1_555 1_555
N5 Zn1 1_555 1_555
N6 N5 1_555 1_555
N7 N6 1_555 1_555
N8 N7 1_555 1_555
N9 Zn1 1_555 1_555
N10 N9 1_555 1_555
N30 N18 1_555 1_555
N18 N19 1_555 1_555
N19 N20 1_555 1_555
N20 Zn2 1_555 1_555
N21 Zn4 1_555 1_555
N22 N21 1_555 1_555
N23 N22 1_555 1_555
N24 Zn2 1_555 1_555
N25 Zn2 1_555 1_555
H3 N25 1_555 1_555
H4 N25 1_555 1_555
C1 N27 1_555 1_555
C2 C1 1_555 1_555
H7 C2 1_555 1_555
H8 C2 1_555 1_555
H9 C2 1_555 1_555
C3 N5 1_555 1_555
C4 C3 1_555 1_555
H10 C4 1_555 1_555
H11 C4 1_555 1_555
H12 C4 1_555 1_555
C5 N9 1_555 1_555
C6 C5 1_555 1_555
H13 C6 1_555 1_555
H14 C6 1_555 1_555
H15 C6 1_555 1_555
H16 C8 1_555 1_555
H17 C8 1_555 1_555
H18 C8 1_555 1_555
C9 N30 1_555 1_555
C10 C9 1_555 1_555
H19 C10 1_555 1_555
H20 C10 1_555 1_555
H21 C10 1_555 1_555
C11 N21 1_555 1_555
C12 C11 1_555 1_555
H22 C12 1_555 1_555
H23 C12 1_555 1_555
H24 C12 1_555 1_555
C13 C14 1_555 1_555
C14 N25 1_555 1_555
H25 C14 1_555 1_555
C15 O5 1_555 1_555
H26 C15 1_555 1_555
H27 C15 1_555 1_555
Zn5 N8 1_555 1_555
N28 Zn2 1_555 1_555
N29 Zn4 1_555 1_555
N4 C1 1_555 1_555
N8 C3 1_555 1_555
N12 C5 1_555 1_555
N20 C9 1_555 1_555
N23 N24 1_555 1_555
N24 C11 1_555 1_555
C14 C15 1_555 1_555
Zn1_2 O2_2 1_555 1_555
O5_2 H1_2 1_555 1_555
N1 N2_2 1_555 1_555
N2_2 N3_2 1_555 1_555
N3_2 N4_2 1_555 1_555
N4_2 Zn1_2 1_555 1_555
N5_2 Zn1_2 1_555 1_555
N6_2 N5_2 1_555 1_555
N7_2 N6_2 1_555 1_555
N28 N7_2 1_555 1_555
N9_2 Zn1_2 1_555 1_555
N10_2 N9_2 1_555 1_555
C1_2 N1 1_555 1_555
C3_2 N5_2 1_555 1_555
C4_2 C3_2 1_555 1_555
H10_2 C4_2 1_555 1_555
H11_2 C4_2 1_555 1_555
H12_2 C4_2 1_555 1_555
C5_2 N9_2 1_555 1_555
C6_2 C5_2 1_555 1_555
H13_2 C6_2 1_555 1_555
H14_2 C6_2 1_555 1_555
H16_2 C8_2 1_555 1_555
H17_2 C8_2 1_555 1_555
H18_2 C8_2 1_555 1_555
C15_2 O5_2 1_555 1_555
H26_2 C15_2 1_555 1_555
H27_2 C15_2 1_555 1_555
Zn6 N1 1_555 1_555
N4_2 C1_2 1_555 1_555
N28 C3_2 1_555 1_555
N12_2 C5_2 1_555 1_555
Zn5 O1_2 1_555 1_555
Zn8 O4_2 1_555 1_555
O1_2 C13_2 1_555 1_555
N17 N18_2 1_555 1_555
N18_2 N19_2 1_555 1_555
N19_2 N20_2 1_555 1_555
N20_2 Zn5 1_555 1_555
N21_2 Zn8 1_555 1_555
N22_2 N21_2 1_555 1_555
N23_2 N22_2 1_555 1_555
N24_2 Zn5 1_555 1_555
N25_2 Zn5 1_555 1_555
H3_2 N25_2 1_555 1_555
H4_2 N25_2 1_555 1_555
H7_2 C2_2 1_555 1_555
H8_2 C2_2 1_555 1_555
H9_2 C2_2 1_555 1_555
C9_2 N17 1_555 1_555
C10_2 C9_2 1_555 1_555
H19_2 C10_2 1_555 1_555
H20_2 C10_2 1_555 1_555
H21_2 C10_2 1_555 1_555
C11_2 N21_2 1_555 1_555
C12_2 C11_2 1_555 1_555
H22_2 C12_2 1_555 1_555
H23_2 C12_2 1_555 1_555
H24_2 C12_2 1_555 1_555
C13_2 C14_2 1_555 1_555
C14_2 N25_2 1_555 1_555
H25_2 C14_2 1_555 1_555
N20_2 C9_2 1_555 1_555
N23_2 N24_2 1_555 1_555
N24_2 C11_2 1_555 1_555
N29 N14_2 1_555 1_555
N14_2 N15_2 1_555 1_555
N15_2 N16_2 1_555 1_555
O6 H2 1_555 1_555
C18 O6 1_555 1_555
H29 C18 1_555 1_555
H30 C18 1_555 1_555
O6_2 H2_2 1_555 1_555
C18_2 O6_2 1_555 1_555
H29_2 C18_2 1_555 1_555
H30_2 C18_2 1_555 1_555
H5_2 N26_2 1_555 1_555
C16_2 C17_2 1_555 1_555
C17_2 N26_2 1_555 1_555
H28_2 C17_2 1_555 1_555

#END
