
###############################################################################
#
# This file contains modified crystal structure data generated from the
# MOF subset of the Cambridge Structural Database (CSD) v543 
# hosted by the Cambridge Crystallographic Data Centre (CCDC).
#
# This work is licensed under the Creative Commons
# Attribution-NonCommercial-ShareAlike 4.0 International License.
# To view a copy of this license, visit
# http://creativecommons.org/licenses/by-nc-sa/4.0/
# or send a letter to
# Creative Commons, PO Box 1866, Mountain View, CA 94042, USA.
#
# CIF created using the CSD Python API on 29 September 2022
# The structure has been converted into the P1 space group
# The structure has a 3D framework
# The original CSD entry RAMSUT01 is in the rhombohedral crystal system
# The framework has been calculated to contain at least 10.0% void space
# The void calculation uses a probe of radius 1.32A, grid spacing 0.4
#
###############################################################################

data_RAMSUT01
_chemical_formula_moiety         '(C36 H36 Cd11 O52)n'
_symmetry_cell_setting           triclinic
_symmetry_space_group_name_H-M   'P 1'
_symmetry_Int_Tables_number      1
_space_group_name_Hall           'P 1'
loop_
_symmetry_equiv_pos_site_id
_symmetry_equiv_pos_as_xyz
1 x,y,z
_cell_length_a                   11.7671(8)
_cell_length_b                   11.7671(8)
_cell_length_c                   14.9271(14)
_cell_angle_alpha                90
_cell_angle_beta                 90
_cell_angle_gamma                120
_cell_volume                     1789.97
loop_
_atom_site_label
_atom_site_type_symbol
_atom_site_fract_x
_atom_site_fract_y
_atom_site_fract_z
Cd1 Cd 0.3333 0.1667 0.1667
O1 O 0.34901(16) 0.05723(18) 0.04318(10)
O2 O 0.63365(15) 0.12230(15) 0.11469(11)
O3 O 0.16864(15) 0.16162(17) 0.08872(10)
H1 H 0.2038 0.2176 0.0354
H2 H 0.1096 0.1828 0.1263
C1 C 0.4320(2) 0.0260(2) 0.01993(13)
C2 C 0.56120(19) 0.0550(2) 0.05173(14)
Cd2 Cd 0.8333 0.1666 0.1667
O5 O 0.31766(16) 0.27610(18) 0.29015(10)
O7 O 0.48865(21) 0.36635(15) 0.11469(11)
O9 O 0.49803(15) 0.17171(17) 0.24461(10)
H3 H 0.4629 0.1157 0.2979
H4 H 0.5571 0.1505 0.2070
O8 O 0.17802(21) 0.96698(15) 0.21864(11)
Cd3 Cd 0.6666 0.8334 0.8334
Cd4 Cd 0.1667 0.8334 0.8333
O4 O 0.65099(16) 0.94277(18) 0.95682(10)
O6 O 0.36635(15) 0.87770(15) 0.88531(11)
C3 C 0.5680(2) 0.9740(2) 0.98007(13)
C4 C 0.43880(19) 0.9450(2) 0.94827(14)
O8_2 O 0.03302(15) 0.21103(26) 0.21864(11)
Cd4_2 Cd 0.1666 0.3333 0.8333
O4_2 O 0.05723(18) 0.70822(24) 0.95682(10)
O6_2 O 0.12230(15) 0.48865(21) 0.88531(11)
C3_2 C 0.0260(2) 0.5940(3) 0.98007(13)
C4_2 C 0.0550(2) 0.49380(28) 0.94827(14)
O1_2 O 0.94277(18) 0.29178(24) 0.04318(10)
O2_2 O 0.87770(15) 0.51135(21) 0.11469(11)
O3_2 O 0.83838(17) 0.00702(23) 0.08872(10)
C1_2 C 0.9740(2) 0.4060(3) 0.01993(13)
C2_2 C 0.9450(2) 0.50620(28) 0.05173(14)
Cd2_2 Cd 0.8334 0.6667 0.1667
O5_2 O 0.72390(18) 0.04155(24) 0.29015(10)
O9_2 O 0.82829(17) 0.32631(23) 0.24461(10)
H3_2 H 0.8843 0.3471 0.2979
H4_2 H 0.8495 0.4065 0.2070
H1_2 H 0.7824 0.9862 0.0354
H2_2 H 0.8172 0.9268 0.1263
H1_3 H 0.0138 0.7962 0.0354
H2_3 H 0.0732 0.8904 0.1263
O1_3 O 0.70822(24) 0.65099(16) 0.04318(10)
O3_3 O 0.99298(23) 0.83136(15) 0.08872(10)
C1_3 C 0.5940(3) 0.5680(2) 0.01993(13)
C2_3 C 0.49380(28) 0.43880(19) 0.05173(14)
O5_3 O 0.95845(24) 0.68234(16) 0.29015(10)
O8_3 O 0.78897(26) 0.82198(21) 0.21864(11)
O9_3 O 0.67369(23) 0.50197(15) 0.24461(10)
H3_3 H 0.6529 0.5371 0.2979
H4_3 H 0.5935 0.4429 0.2070
O4_3 O 0.29178(24) 0.34901(16) 0.95682(10)
O6_3 O 0.51135(21) 0.63365(15) 0.88531(11)
C3_3 C 0.4060(3) 0.4320(2) 0.98007(13)
C4_3 C 0.50620(28) 0.56120(19) 0.94827(14)
Cd1_2 Cd -0.0000 0.5000 0.5000
O1_4 O 0.01568(16) 0.39056(18) 0.37651(10)
O2_3 O 0.30032(15) 0.45563(15) 0.44802(11)
C1_4 C 0.0987(2) 0.3593(2) 0.35326(13)
C2_4 C 0.22787(19) 0.3883(2) 0.38506(14)
Cd2_3 Cd 0.5000 0.4999 0.5000
O7_2 O 0.15532(21) 0.69968(15) 0.44802(11)
O9_4 O 0.16469(15) 0.50505(17) 0.57795(10)
H3_4 H 0.1295 0.4491 0.6313
H4_4 H 0.2237 0.4839 0.5404
C3_4 C 0.2347(2) 0.3073(2) 0.31340(13)
C4_4 C 0.10547(19) 0.2783(2) 0.28160(14)
Cd1_3 Cd 1.0000 0.5000 0.5000
O3_4 O 0.83531(15) 0.49495(17) 0.42205(10)
H1_4 H 0.8705 0.5509 0.3687
H2_4 H 0.7763 0.5161 0.4596
O5_4 O 0.98432(16) 0.60944(18) 0.62349(10)
O8_4 O 0.84468(21) 0.30032(15) 0.55198(11)
Cd2_4 Cd 0.5001 0.0000 0.5000
O1_5 O 0.60944(18) 0.62511(24) 0.37651(10)
O2_4 O 0.54437(15) 0.84468(21) 0.44802(11)
O3_5 O 0.50505(17) 0.34035(23) 0.42205(10)
H1_5 H 0.4491 0.3195 0.3687
H2_5 H 0.4839 0.2601 0.4596
C1_5 C 0.6407(2) 0.7393(3) 0.35326(13)
C2_5 C 0.6117(2) 0.83953(28) 0.38506(14)
Cd2_5 Cd 0.5001 1.0000 0.5000
O5_5 O 0.39056(18) 0.37489(24) 0.62349(10)
O8_5 O 0.69968(15) 0.54437(26) 0.55198(11)
O9_5 O 0.49495(17) 0.65965(23) 0.57795(10)
H3_5 H 0.5509 0.6805 0.6313
H4_5 H 0.5161 0.7399 0.5404
C3_5 C 0.6927(2) 0.9273(3) 0.31340(13)
C4_5 C 0.7217(2) 0.82713(28) 0.28160(14)
O3_6 O 0.65965(23) 0.16469(15) 0.42205(10)
H1_6 H 0.6805 0.1295 0.3687
H2_6 H 0.7399 0.2237 0.4596
O5_6 O 0.62511(24) 0.01568(16) 0.62349(10)
O8_6 O 0.45563(26) 0.15532(21) 0.55198(11)
O1_6 O 0.37489(24) 0.98432(16) 0.37651(10)
C1_6 C 0.2607(3) 0.9013(2) 0.35326(13)
C2_6 C 0.16047(28) 0.77213(19) 0.38506(14)
O9_6 O 0.34035(23) 0.83531(15) 0.57795(10)
H3_6 H 0.3195 0.8705 0.6313
H4_6 H 0.2601 0.7763 0.5404
C3_6 C 0.0727(3) 0.7653(2) 0.31340(13)
C4_6 C 0.17287(28) 0.89453(19) 0.28160(14)
O7_3 O 0.82198(21) 0.03302(15) 0.78136(11)
O1_7 O 0.68234(16) 0.72390(18) 0.70985(10)
O2_5 O 0.96698(15) 0.78897(15) 0.78136(11)
O3_7 O 0.50197(15) 0.82829(17) 0.75539(10)
H1_7 H 0.5371 0.8843 0.7021
H2_7 H 0.4429 0.8495 0.7930
C1_7 C 0.7653(2) 0.6927(2) 0.68660(13)
C2_7 C 0.89453(19) 0.7217(2) 0.71840(14)
O9_7 O 0.83136(15) 0.83838(17) 0.91128(10)
H3_7 H 0.7962 0.7824 0.9646
H4_7 H 0.8904 0.8172 0.8737
C3_7 C 0.9013(2) 0.6407(2) 0.64674(13)
C4_7 C 0.77213(19) 0.6117(2) 0.61494(14)
O2_6 O 0.21103(15) 0.17802(21) 0.78136(11)
C1_8 C 0.3073(2) 0.0727(3) 0.68660(13)
C2_8 C 0.2783(2) 0.17287(28) 0.71840(14)
H3_8 H 0.2176 0.0138 0.9646
H4_8 H 0.1828 0.0732 0.8737
C3_8 C 0.3593(2) 0.2607(3) 0.64674(13)
C4_8 C 0.3883(2) 0.16047(28) 0.61494(14)
O1_8 O 0.27610(18) 0.95845(24) 0.70985(10)
O3_8 O 0.17171(17) 0.67369(23) 0.75539(10)
H1_8 H 0.1157 0.6529 0.7021
H2_8 H 0.1505 0.5935 0.7930
O9_8 O 0.16162(17) 0.99298(23) 0.91128(10)
O1_9 O 0.04155(24) 0.31766(16) 0.70985(10)
O3_9 O 0.32631(23) 0.49803(15) 0.75539(10)
H1_9 H 0.3471 0.4629 0.7021
H2_9 H 0.4065 0.5571 0.7930
O9_9 O 0.00702(23) 0.16864(15) 0.91128(10)
C1_9 C 0.9273(3) 0.2347(2) 0.68660(13)
C2_9 C 0.82713(28) 0.10547(19) 0.71840(14)
H3_9 H 0.9862 0.2038 0.9646
H4_9 H 0.9268 0.1096 0.8737
C3_9 C 0.7393(3) 0.0987(2) 0.64674(13)
C4_9 C 0.83953(28) 0.22787(19) 0.61494(14)
loop_
_geom_bond_atom_site_label_1
_geom_bond_atom_site_label_2
_geom_bond_site_symmetry_1
_geom_bond_site_symmetry_2
Cd1 O1 1_555 1_555
O1 C1 1_555 1_555
O2 C2 1_555 1_555
O3 Cd1 1_555 1_555
H1 O3 1_555 1_555
H2 O3 1_555 1_555
C1 C2 1_555 1_555
Cd2 O2 1_555 1_555
O5 Cd1 1_555 1_555
O7 Cd1 1_555 1_555
O9 Cd1 1_555 1_555
H3 O9 1_555 1_555
H4 O9 1_555 1_555
Cd3 O4 1_555 1_555
Cd4 O6 1_555 1_555
O4 C3 1_555 1_555
O6 C4 1_555 1_555
C3 C4 1_555 1_555
Cd4 O4_2 1_555 1_555
Cd4_2 O6_2 1_555 1_555
O4_2 C3_2 1_555 1_555
O6_2 C4_2 1_555 1_555
C3_2 C4_2 1_555 1_555
Cd2 O1_2 1_555 1_555
O1_2 C1_2 1_555 1_555
O2_2 C2_2 1_555 1_555
O3_2 Cd2 1_555 1_555
C1_2 C2_2 1_555 1_555
Cd2_2 O2_2 1_555 1_555
O5_2 Cd2 1_555 1_555
O9_2 Cd2 1_555 1_555
H3_2 O9_2 1_555 1_555
H4_2 O9_2 1_555 1_555
Cd2_2 O1_3 1_555 1_555
O1_3 C1_3 1_555 1_555
O7 C2_3 1_555 1_555
O3_3 Cd2_2 1_555 1_555
C1_3 C2_3 1_555 1_555
O5_3 Cd2_2 1_555 1_555
O8_3 Cd2_2 1_555 1_555
O9_3 Cd2_2 1_555 1_555
H3_3 O9_3 1_555 1_555
H4_3 O9_3 1_555 1_555
Cd4_2 O4_3 1_555 1_555
Cd3 O6_3 1_555 1_555
O4_3 C3_3 1_555 1_555
O6_3 C4_3 1_555 1_555
C3_3 C4_3 1_555 1_555
Cd1_2 O1_4 1_555 1_555
O1_4 C1_4 1_555 1_555
O2_3 C2_4 1_555 1_555
C1_4 C2_4 1_555 1_555
C2_4 C3_4 1_555 1_555
Cd2_3 O2_3 1_555 1_555
O5 C3_4 1_555 1_555
O8_2 C4_4 1_555 1_555
O7_2 Cd1_2 1_555 1_555
O9_4 Cd1_2 1_555 1_555
H3_4 O9_4 1_555 1_555
H4_4 O9_4 1_555 1_555
C3_4 C4_4 1_555 1_555
C4_4 C1_4 1_555 1_555
O3_4 Cd1_3 1_555 1_555
H1_4 O3_4 1_555 1_555
H2_4 O3_4 1_555 1_555
O5_4 Cd1_3 1_555 1_555
O8_4 Cd1_3 1_555 1_555
Cd2_3 O1_5 1_555 1_555
O1_5 C1_5 1_555 1_555
O2_4 C2_5 1_555 1_555
O3_5 Cd2_3 1_555 1_555
H1_5 O3_5 1_555 1_555
H2_5 O3_5 1_555 1_555
C1_5 C2_5 1_555 1_555
C2_5 C3_5 1_555 1_555
Cd2_5 O2_4 1_555 1_555
O5_5 Cd2_3 1_555 1_555
O8_3 C4_5 1_555 1_555
O8_5 Cd2_3 1_555 1_555
O9_5 Cd2_3 1_555 1_555
H3_5 O9_5 1_555 1_555
H4_5 O9_5 1_555 1_555
C3_5 C4_5 1_555 1_555
C4_5 C1_5 1_555 1_555
O3_6 Cd2_4 1_555 1_555
H1_6 O3_6 1_555 1_555
H2_6 O3_6 1_555 1_555
O5_6 Cd2_4 1_555 1_555
O8_6 Cd2_4 1_555 1_555
Cd2_5 O1_6 1_555 1_555
O1_6 C1_6 1_555 1_555
O7_2 C2_6 1_555 1_555
C1_6 C2_6 1_555 1_555
C2_6 C3_6 1_555 1_555
O8 C4_6 1_555 1_555
O9_6 Cd2_5 1_555 1_555
H3_6 O9_6 1_555 1_555
H4_6 O9_6 1_555 1_555
C3_6 C4_6 1_555 1_555
C4_6 C1_6 1_555 1_555
Cd3 O1_7 1_555 1_555
O1_7 C1_7 1_555 1_555
O2_5 C2_7 1_555 1_555
O3_7 Cd3 1_555 1_555
H1_7 O3_7 1_555 1_555
H2_7 O3_7 1_555 1_555
C1_7 C2_7 1_555 1_555
C2_7 C3_7 1_555 1_555
O5_4 C3_7 1_555 1_555
O8_5 C4_7 1_555 1_555
O9_7 Cd3 1_555 1_555
H3_7 O9_7 1_555 1_555
H4_7 O9_7 1_555 1_555
C3_7 C4_7 1_555 1_555
C4_7 C1_7 1_555 1_555
O2_6 C2_8 1_555 1_555
C1_8 C2_8 1_555 1_555
C2_8 C3_8 1_555 1_555
Cd4_2 O2_6 1_555 1_555
O5_5 C3_8 1_555 1_555
O8_6 C4_8 1_555 1_555
C3_8 C4_8 1_555 1_555
C4_8 C1_8 1_555 1_555
Cd4 O1_8 1_555 1_555
O3_8 Cd4 1_555 1_555
H1_8 O3_8 1_555 1_555
H2_8 O3_8 1_555 1_555
O9_8 Cd4 1_555 1_555
Cd4_2 O1_9 1_555 1_555
O3_9 Cd4_2 1_555 1_555
H1_9 O3_9 1_555 1_555
H2_9 O3_9 1_555 1_555
O9_9 Cd4_2 1_555 1_555
O7_3 C2_9 1_555 1_555
C1_9 C2_9 1_555 1_555
C2_9 C3_9 1_555 1_555
O5_6 C3_9 1_555 1_555
O8_4 C4_9 1_555 1_555
C3_9 C4_9 1_555 1_555
C4_9 C1_9 1_555 1_555

#END
