
###############################################################################
#
# This file contains modified crystal structure data generated from the
# MOF subset of the Cambridge Structural Database (CSD) v543 
# hosted by the Cambridge Crystallographic Data Centre (CCDC).
#
# This work is licensed under the Creative Commons
# Attribution-NonCommercial-ShareAlike 4.0 International License.
# To view a copy of this license, visit
# http://creativecommons.org/licenses/by-nc-sa/4.0/
# or send a letter to
# Creative Commons, PO Box 1866, Mountain View, CA 94042, USA.
#
# CIF created using the CSD Python API on 29 September 2022
# The structure has been converted into the P1 space group
# The structure has a 3D framework
# The original CSD entry RAMSUT is in the rhombohedral crystal system
# The framework has been calculated to contain at least 10.0% void space
# The void calculation uses a probe of radius 1.32A, grid spacing 0.4
#
###############################################################################

data_RAMSUT
_chemical_formula_moiety         '(C36 H36 Cd11 O50)n'
_symmetry_cell_setting           triclinic
_symmetry_space_group_name_H-M   'P 1'
_symmetry_Int_Tables_number      1
_space_group_name_Hall           'P 1'
loop_
_symmetry_equiv_pos_site_id
_symmetry_equiv_pos_as_xyz
1 x,y,z
_cell_length_a                   11.765(6)
_cell_length_b                   11.765(6)
_cell_length_c                   14.920(7)
_cell_angle_alpha                90
_cell_angle_beta                 90
_cell_angle_gamma                120.00
_cell_volume                     1788.48
loop_
_atom_site_label
_atom_site_type_symbol
_atom_site_fract_x
_atom_site_fract_y
_atom_site_fract_z
Cd1 Cd 0.3333 0.1667 0.1667
O1 O 0.1688(3) 0.1622(3) 0.08905(17)
H1 H 0.211(5) 0.227(4) 0.047(3)
H2 H 0.104(4) 0.167(6) 0.119(3)
O2 O 0.4896(3) 0.3660(3) 0.11433(17)
O3 O 0.7080(3) 0.6518(3) 0.04318(16)
C1 C 0.4938(3) 0.4385(3) 0.05138(19)
C2 C 0.5937(3) 0.5681(3) 0.02022(19)
O4 O 0.4979(3) 0.1711(3) 0.24428(17)
H3 H 0.456(5) 0.106(4) 0.286(3)
H4 H 0.563(4) 0.166(6) 0.214(3)
O5 O 0.3482(3) 0.0562(4) 0.04318(16)
Cd2 Cd 0.8334 0.6667 0.1667
O7 O 0.3185(3) 0.2771(4) 0.29015(16)
C3 C 0.5062(3) 0.5615(3) 0.94862(19)
C4 C 0.4063(3) 0.4319(3) 0.97978(19)
O8 O 0.2920(3) 0.3482(3) 0.95682(16)
O9 O 0.5104(3) 0.6340(3) 0.88567(17)
Cd3 Cd 0.1666 0.3333 0.8333
Cd4 Cd 0.6666 0.8334 0.8334
O6 O 0.1771(3) 0.9673(3) 0.21900(17)
O6_2 O 0.0327(3) 0.2097(4) 0.21900(17)
Cd1_2 Cd 0.8333 0.1666 0.1667
O1_2 O 0.8378(3) 0.0066(4) 0.08905(17)
O2_2 O 0.6340(3) 0.1236(4) 0.11433(17)
C1_2 C 0.5615(3) 0.0553(4) 0.05138(19)
C2_2 C 0.4319(3) 0.0256(4) 0.02022(19)
O4_2 O 0.8289(3) 0.3267(4) 0.24428(17)
H3_2 H 0.894(4) 0.349(6) 0.286(3)
H4_2 H 0.834(6) 0.396(7) 0.214(3)
O5_2 O 0.9438(4) 0.2920(5) 0.04318(16)
O7_2 O 0.7229(4) 0.0413(5) 0.29015(16)
C3_2 C 0.4385(3) 0.9447(4) 0.94862(19)
C4_2 C 0.5681(3) 0.9744(4) 0.97978(19)
O8_2 O 0.6518(3) 0.9438(4) 0.95682(16)
O9_2 O 0.3660(3) 0.8764(4) 0.88567(17)
Cd4_2 Cd 0.1666 0.8333 0.8334
C3_3 C 0.0553(4) 0.4938(3) 0.94862(19)
C4_3 C 0.0256(4) 0.5937(3) 0.97978(19)
O8_3 O 0.0562(4) 0.7080(3) 0.95682(16)
O9_3 O 0.1236(4) 0.4896(3) 0.88567(17)
O1_3 O 0.9934(4) 0.8312(3) 0.08905(17)
O2_3 O 0.8764(4) 0.5104(3) 0.11433(17)
C1_3 C 0.9447(4) 0.5062(3) 0.05138(19)
C2_3 C 0.9744(4) 0.4063(3) 0.02022(19)
O4_3 O 0.6733(4) 0.5021(3) 0.24428(17)
H3_3 H 0.651(6) 0.544(5) 0.286(3)
H4_3 H 0.604(7) 0.437(4) 0.214(3)
O6_3 O 0.7903(4) 0.8229(3) 0.21900(17)
O7_3 O 0.9587(5) 0.6815(3) 0.29015(16)
Cd2_2 Cd 0.5001 0.0000 0.5000
Cd1_3 Cd -0.0000 0.5000 0.5000
O2_4 O 0.1563(3) 0.6993(3) 0.44766(17)
O3_2 O 0.3747(3) 0.9851(3) 0.37651(16)
C1_4 C 0.1605(3) 0.7718(3) 0.38471(19)
C2_4 C 0.2604(3) 0.9014(3) 0.35355(19)
O4_4 O 0.1645(3) 0.5045(3) 0.57762(17)
H3_4 H 0.122(5) 0.440(4) 0.620(3)
H4_4 H 0.229(4) 0.500(6) 0.548(3)
O5_3 O 0.0149(3) 0.3895(4) 0.37651(16)
Cd2_3 Cd 0.5001 1.0000 0.5000
C3_4 C 0.1729(3) 0.8948(3) 0.28195(19)
C4_4 C 0.0730(3) 0.7652(3) 0.31311(19)
Cd1_4 Cd 1.0000 0.5000 0.5000
O1_4 O 0.8355(3) 0.4955(3) 0.42238(17)
H1_2 H 0.878(5) 0.560(4) 0.380(3)
H2_2 H 0.771(4) 0.500(6) 0.452(3)
O6_4 O 0.8437(3) 0.3007(3) 0.55234(17)
O7_4 O 0.9851(3) 0.6105(4) 0.62349(16)
Cd1_5 Cd 0.5000 0.4999 0.5000
O1_5 O 0.5045(3) 0.3399(4) 0.42238(17)
H1_3 H 0.440(4) 0.317(6) 0.380(3)
H2_3 H 0.500(6) 0.270(7) 0.452(3)
O2_5 O 0.3007(3) 0.4569(4) 0.44766(17)
C1_5 C 0.2282(3) 0.3886(4) 0.38471(19)
C2_5 C 0.0986(3) 0.3589(4) 0.35355(19)
O4_5 O 0.4955(3) 0.6601(4) 0.57762(17)
H3_5 H 0.560(4) 0.683(6) 0.620(3)
H4_5 H 0.500(6) 0.730(7) 0.548(3)
O5_4 O 0.6105(4) 0.6253(5) 0.37651(16)
O6_5 O 0.6993(3) 0.5431(4) 0.55234(17)
O7_5 O 0.3895(4) 0.3747(5) 0.62349(16)
C3_5 C 0.1052(3) 0.2780(4) 0.28195(19)
C4_5 C 0.2348(3) 0.3077(4) 0.31311(19)
O1_6 O 0.6601(4) 0.1645(3) 0.42238(17)
H1_4 H 0.683(6) 0.122(5) 0.380(3)
H2_4 H 0.730(7) 0.229(4) 0.452(3)
O6_6 O 0.4569(4) 0.1563(3) 0.55234(17)
O7_6 O 0.6253(5) 0.0149(3) 0.62349(16)
O2_6 O 0.5431(4) 0.8437(3) 0.44766(17)
C1_6 C 0.6114(4) 0.8395(3) 0.38471(19)
C2_6 C 0.6411(4) 0.7396(3) 0.35355(19)
O4_6 O 0.3399(4) 0.8355(3) 0.57762(17)
H3_6 H 0.317(6) 0.878(5) 0.620(3)
H4_6 H 0.270(7) 0.771(4) 0.548(3)
C3_6 C 0.7220(4) 0.8271(3) 0.28195(19)
C4_6 C 0.6923(4) 0.9270(3) 0.31311(19)
O3_3 O 0.0413(3) 0.3185(3) 0.70985(16)
O2_7 O 0.8229(3) 0.0327(3) 0.78100(17)
C1_7 C 0.8271(3) 0.1052(3) 0.71805(19)
C2_7 C 0.9270(3) 0.2348(3) 0.68689(19)
C3_7 C 0.8395(3) 0.2282(3) 0.61529(19)
C4_7 C 0.7396(3) 0.0986(3) 0.64645(19)
O1_7 O 0.5021(3) 0.8289(3) 0.75572(17)
H1_5 H 0.544(5) 0.894(4) 0.714(3)
H2_5 H 0.437(4) 0.834(6) 0.786(3)
O4_7 O 0.8312(3) 0.8378(3) 0.91095(17)
H3_7 H 0.789(5) 0.773(4) 0.953(3)
H4_7 H 0.896(4) 0.833(6) 0.881(3)
O5_5 O 0.6815(3) 0.7229(4) 0.70985(16)
O1_8 O 0.1622(3) 0.9934(4) 0.91095(17)
O4_8 O 0.1711(3) 0.6733(4) 0.75572(17)
H3_8 H 0.106(4) 0.651(6) 0.714(3)
H4_8 H 0.166(6) 0.604(7) 0.786(3)
O7_7 O 0.2771(4) 0.9587(5) 0.70985(16)
O6_7 O 0.9673(3) 0.7903(4) 0.78100(17)
O1_9 O 0.0066(4) 0.1688(3) 0.91095(17)
O4_9 O 0.3267(4) 0.4979(3) 0.75572(17)
H3_9 H 0.349(6) 0.456(5) 0.714(3)
H4_9 H 0.396(7) 0.563(4) 0.786(3)
O6_8 O 0.2097(4) 0.1771(3) 0.78100(17)
C1_8 C 0.7718(3) 0.6114(4) 0.61529(19)
C2_8 C 0.9014(3) 0.6411(4) 0.64645(19)
C3_8 C 0.8948(3) 0.7220(4) 0.71805(19)
C4_8 C 0.7652(3) 0.6923(4) 0.68689(19)
C1_9 C 0.3886(4) 0.1605(3) 0.61529(19)
C2_9 C 0.3589(4) 0.2604(3) 0.64645(19)
C3_9 C 0.2780(4) 0.1729(3) 0.71805(19)
C4_9 C 0.3077(4) 0.0730(3) 0.68689(19)
H1_6 H 0.773(4) 0.984(6) 0.047(3)
H2_6 H 0.833(6) 0.937(7) 0.119(3)
H1_7 H 0.016(6) 0.789(5) 0.047(3)
H2_7 H 0.063(7) 0.896(4) 0.119(3)
H1_8 H 0.227(4) 0.016(6) 0.953(3)
H2_8 H 0.167(6) 0.063(7) 0.881(3)
H1_9 H 0.984(6) 0.211(5) 0.953(3)
H2_9 H 0.937(7) 0.104(4) 0.881(3)
loop_
_geom_bond_atom_site_label_1
_geom_bond_atom_site_label_2
_geom_bond_site_symmetry_1
_geom_bond_site_symmetry_2
Cd1 O1 1_555 1_555
O1 H1 1_555 1_555
H2 O1 1_555 1_555
O2 Cd1 1_555 1_555
O3 C2 1_555 1_555
C1 O2 1_555 1_555
C2 C1 1_555 1_555
O4 Cd1 1_555 1_555
H3 O4 1_555 1_555
H4 O4 1_555 1_555
O5 Cd1 1_555 1_555
Cd2 O3 1_555 1_555
O7 Cd1 1_555 1_555
O8 C4 1_555 1_555
O9 C3 1_555 1_555
Cd3 O8 1_555 1_555
Cd4 O9 1_555 1_555
C3 C4 1_555 1_555
Cd1_2 O1_2 1_555 1_555
O2_2 Cd1_2 1_555 1_555
O5 C2_2 1_555 1_555
C1_2 O2_2 1_555 1_555
C2_2 C1_2 1_555 1_555
O4_2 Cd1_2 1_555 1_555
H3_2 O4_2 1_555 1_555
H4_2 O4_2 1_555 1_555
O5_2 Cd1_2 1_555 1_555
O7_2 Cd1_2 1_555 1_555
O8_2 C4_2 1_555 1_555
O9_2 C3_2 1_555 1_555
Cd4 O8_2 1_555 1_555
Cd4_2 O9_2 1_555 1_555
C3_2 C4_2 1_555 1_555
O8_3 C4_3 1_555 1_555
O9_3 C3_3 1_555 1_555
Cd4_2 O8_3 1_555 1_555
Cd3 O9_3 1_555 1_555
C3_3 C4_3 1_555 1_555
Cd2 O1_3 1_555 1_555
O2_3 Cd2 1_555 1_555
O5_2 C2_3 1_555 1_555
C1_3 O2_3 1_555 1_555
C2_3 C1_3 1_555 1_555
O4_3 Cd2 1_555 1_555
H3_3 O4_3 1_555 1_555
H4_3 O4_3 1_555 1_555
O6_3 Cd2 1_555 1_555
O7_3 Cd2 1_555 1_555
O2_4 Cd1_3 1_555 1_555
O3_2 C2_4 1_555 1_555
C1_4 O2_4 1_555 1_555
C2_4 C1_4 1_555 1_555
O4_4 Cd1_3 1_555 1_555
H3_4 O4_4 1_555 1_555
H4_4 O4_4 1_555 1_555
O5_3 Cd1_3 1_555 1_555
Cd2_3 O3_2 1_555 1_555
C3_4 C2_4 1_555 1_555
C4_4 C1_4 1_555 1_555
O6 C3_4 1_555 1_555
C3_4 C4_4 1_555 1_555
Cd1_4 O1_4 1_555 1_555
O1_4 H1_2 1_555 1_555
H2_2 O1_4 1_555 1_555
O6_4 Cd1_4 1_555 1_555
O7_4 Cd1_4 1_555 1_555
Cd1_5 O1_5 1_555 1_555
O1_5 H1_3 1_555 1_555
H2_3 O1_5 1_555 1_555
O2_5 Cd1_5 1_555 1_555
O5_3 C2_5 1_555 1_555
C1_5 O2_5 1_555 1_555
C2_5 C1_5 1_555 1_555
O4_5 Cd1_5 1_555 1_555
H3_5 O4_5 1_555 1_555
H4_5 O4_5 1_555 1_555
O5_4 Cd1_5 1_555 1_555
O6_5 Cd1_5 1_555 1_555
O7_5 Cd1_5 1_555 1_555
C3_5 C2_5 1_555 1_555
C4_5 C1_5 1_555 1_555
O7 C4_5 1_555 1_555
O6_2 C3_5 1_555 1_555
C3_5 C4_5 1_555 1_555
Cd2_2 O1_6 1_555 1_555
O1_6 H1_4 1_555 1_555
H2_4 O1_6 1_555 1_555
O6_6 Cd2_2 1_555 1_555
O7_6 Cd2_2 1_555 1_555
O2_6 Cd2_3 1_555 1_555
O5_4 C2_6 1_555 1_555
C1_6 O2_6 1_555 1_555
C2_6 C1_6 1_555 1_555
O4_6 Cd2_3 1_555 1_555
H3_6 O4_6 1_555 1_555
H4_6 O4_6 1_555 1_555
C3_6 C2_6 1_555 1_555
C4_6 C1_6 1_555 1_555
O6_3 C3_6 1_555 1_555
C3_6 C4_6 1_555 1_555
Cd3 O3_3 1_555 1_555
C1_7 O2_7 1_555 1_555
C2_7 C1_7 1_555 1_555
C3_7 C2_7 1_555 1_555
C4_7 C1_7 1_555 1_555
O7_6 C4_7 1_555 1_555
O6_4 C3_7 1_555 1_555
C3_7 C4_7 1_555 1_555
Cd4 O1_7 1_555 1_555
O1_7 H1_5 1_555 1_555
H2_5 O1_7 1_555 1_555
O4_7 Cd4 1_555 1_555
H3_7 O4_7 1_555 1_555
H4_7 O4_7 1_555 1_555
O5_5 Cd4 1_555 1_555
Cd4_2 O1_8 1_555 1_555
O4_8 Cd4_2 1_555 1_555
H3_8 O4_8 1_555 1_555
H4_8 O4_8 1_555 1_555
O7_7 Cd4_2 1_555 1_555
Cd3 O1_9 1_555 1_555
O4_9 Cd3 1_555 1_555
H3_9 O4_9 1_555 1_555
H4_9 O4_9 1_555 1_555
O6_8 Cd3 1_555 1_555
O7_4 C2_8 1_555 1_555
C1_8 O6_5 1_555 1_555
C2_8 C1_8 1_555 1_555
C3_8 C2_8 1_555 1_555
C4_8 C1_8 1_555 1_555
O5_5 C4_8 1_555 1_555
O6_7 C3_8 1_555 1_555
C3_8 C4_8 1_555 1_555
O7_5 C2_9 1_555 1_555
C1_9 O6_6 1_555 1_555
C2_9 C1_9 1_555 1_555
C3_9 C2_9 1_555 1_555
C4_9 C1_9 1_555 1_555
O6_8 C3_9 1_555 1_555
C3_9 C4_9 1_555 1_555

#END
