
###############################################################################
#
# This file contains modified crystal structure data generated from the
# MOF subset of the Cambridge Structural Database (CSD) v543 
# hosted by the Cambridge Crystallographic Data Centre (CCDC).
#
# This work is licensed under the Creative Commons
# Attribution-NonCommercial-ShareAlike 4.0 International License.
# To view a copy of this license, visit
# http://creativecommons.org/licenses/by-nc-sa/4.0/
# or send a letter to
# Creative Commons, PO Box 1866, Mountain View, CA 94042, USA.
#
# CIF created using the CSD Python API on 29 September 2022
# The structure has been converted into the P1 space group
# The structure has a 3D framework
# The original CSD entry RANHOH is in the triclinic crystal system
# The framework has been calculated to contain at least 10.0% void space
# The void calculation uses a probe of radius 1.32A, grid spacing 0.4
# The framework is charged, counterions have been retained in the structure
# H atom positions have been added when not included in the experimental data
#
###############################################################################

data_RANHOH
_chemical_formula_moiety         'C52 H36 La2 N6 O26'
_symmetry_cell_setting           triclinic
_symmetry_space_group_name_H-M   'P 1'
_symmetry_Int_Tables_number      1
_space_group_name_Hall           'P 1'
loop_
_symmetry_equiv_pos_site_id
_symmetry_equiv_pos_as_xyz
1 x,y,z
_cell_length_a                   9.3815(8)
_cell_length_b                   12.1909(10)
_cell_length_c                   14.0591(11)
_cell_angle_alpha                92.007(6)
_cell_angle_beta                 101.500(7)
_cell_angle_gamma                101.086(7)
_cell_volume                     1541.74
loop_
_atom_site_label
_atom_site_type_symbol
_atom_site_fract_x
_atom_site_fract_y
_atom_site_fract_z
La6 La 0.07492(3) 0.16584(3) 0.06051(2)
O11 O 0.2039(4) 0.8289(3) 0.0226(3)
O13 O 0.1226(4) 0.9682(3) 0.0859(3)
O15 O 0.1100(4) 0.9510(3) 0.8561(3)
H16 H 0.1067 0.6709 0.870592
O1 O 0.7961(4) 0.1711(3) 0.9774(3)
O2 O 0.8774(4) 0.0318(3) 0.9141(3)
O3 O 0.2368(4) 0.1076(4) 0.9442(3)
C4 C 0.3549(6) 0.0149(5) 0.8417(4)
C5 C 0.4983(6) 0.0595(4) 0.8939(4)
H2 H 0.5125 0.1021 0.9541
C8 C 0.6220(6) 0.0418(5) 0.8577(4)
C12 C 0.2235(6) 0.0253(5) 0.8842(4)
C13 C 0.7747(6) 0.0865(5) 0.9217(4)
N1 N 0.3756(5) 0.6586(4) 0.1453(4)
C1 C 0.2582(6) 0.5156(5) 0.0117(4)
H1 H 0.1935 0.4810 0.0510
H3 H 0.5379 0.7245 0.0179
N2 N 0.4403(5) 0.8926(4) 0.6177(4)
C7 C 0.3637(6) 0.6128(5) 0.0473(4)
C9 C 0.3353(6) 0.9575(5) 0.7520(5)
H4 H 0.2381 0.9260 0.7161
C14 C 0.2507(7) 0.6678(5) 0.1770(5)
H6 H 0.1563 0.6435 0.1346
C15 C 0.5100(6) 0.6969(5) 0.2051(5)
H7 H 0.5974 0.6924 0.1821
C16 C 0.4588(6) 0.9460(5) 0.7142(4)
C17 C 0.6018(6) 0.9860(5) 0.7680(4)
H8 H 0.6852 0.9748 0.7428
C18 C 0.5229(7) 0.7414(5) 0.2970(5)
H9 H 0.6182 0.7679 0.3376
C19 C 0.3965(7) 0.7480(5) 0.3310(5)
C20 C 0.2592(7) 0.7113(5) 0.2686(5)
H10 H 0.1709 0.7167 0.2901
C22 C 0.3330(7) 0.9149(6) 0.5438(5)
H11 H 0.2704 0.9639 0.5566
C23 C 0.4089(7) 0.7984(6) 0.4328(5)
C24 C 0.3156(7) 0.8673(6) 0.4519(5)
H12 H 0.2394 0.8815 0.4012
C25 C 0.5159(7) 0.7767(6) 0.5089(5)
H13 H 0.5816 0.7297 0.4974
C26 C 0.5266(7) 0.8231(6) 0.6002(5)
H14 H 0.5974 0.8052 0.6526
La3 La 0.92508(3) 0.83416(3) 0.93949(2)
O14 O 0.7632(4) 0.8924(4) 0.0558(3)
O16 O 0.9244(4) 0.6920(3) 0.0586(3)
O5 O 0.0756(4) 0.3080(3) 0.9414(3)
O6 O 0.1404(6) 0.3209(4) 0.7983(4)
O7 O 0.6715(4) 0.7361(4) 0.8832(4)
C2 C 0.4482(6) 0.6169(5) 0.8984(4)
C3 C 0.2487(6) 0.4700(5) 0.9183(4)
C6 C 0.4619(6) 0.6612(5) 0.9917(5)
C10 C 0.3390(6) 0.5242(5) 0.8613(4)
H5 H 0.3260 0.4972 0.7953
C11 C 0.1460(6) 0.3580(5) 0.8812(5)
O8 O 0.8461(6) 0.8178(5) 0.7470(4)
C21 C 0.5591(7) 0.6696(6) 0.8382(5)
O9 O 0.5340(7) 0.6396(7) 0.7515(4)
O10 O 0.9969(10) 0.6594(6) 0.8607(6)
H15 H 0.95246 0.650117 0.789894
H17 H 0.761047 0.855311 0.726664
H18 H 0.931185 0.854471 0.719398
O6_2 O 0.8596(6) 0.6791(4) 0.2017(4)
O7_2 O 0.3285(4) 0.2639(4) 0.1168(4)
C2_2 C 0.5518(6) 0.3831(5) 0.1016(4)
C3_2 C 0.7513(6) 0.5300(5) 0.0817(4)
C6_2 C 0.5381(6) 0.3388(5) 0.0083(5)
C10_2 C 0.6610(6) 0.4758(5) 0.1387(4)
H5_2 H 0.6740 0.5028 0.2047
C11_2 C 0.8540(6) 0.6420(5) 0.1188(5)
O8_2 O 0.1539(6) 0.1822(5) 0.2530(4)
C21_2 C 0.4409(7) 0.3304(6) 0.1618(5)
O9_2 O 0.4660(7) 0.3604(7) 0.2485(4)
O10_2 O 0.0031(10) 0.3406(6) 0.1393(6)
H15_2 H 0.0475399 0.349883 0.210106
H17_2 H 0.238953 0.144689 0.273336
H18_2 H 0.0688147 0.145529 0.280602
O4 O 0.8900(4) 0.0490(3) 0.1439(3)
N1_2 N 0.6244(5) 0.3414(4) 0.8547(4)
C1_2 C 0.7418(6) 0.4844(5) 0.9883(4)
H1_2 H 0.8065 0.5190 0.9490
H3_2 H 0.4621 0.2755 0.9821
N2_2 N 0.5597(5) 0.1074(4) 0.3823(4)
C7_2 C 0.6363(6) 0.3872(5) 0.9527(4)
C9_2 C 0.6647(6) 0.0425(5) 0.2480(5)
H4_2 H 0.7619 0.0740 0.2839
C14_2 C 0.7493(7) 0.3322(5) 0.8230(5)
H6_2 H 0.8437 0.3565 0.8654
C15_2 C 0.4900(6) 0.3031(5) 0.7949(5)
H7_2 H 0.4026 0.3076 0.8179
C16_2 C 0.5412(6) 0.0540(5) 0.2858(4)
C17_2 C 0.3982(6) 0.0140(5) 0.2320(4)
H8_2 H 0.3148 0.0252 0.2572
C18_2 C 0.4771(7) 0.2586(5) 0.7030(5)
H9_2 H 0.3818 0.2321 0.6624
C19_2 C 0.6035(7) 0.2520(5) 0.6690(5)
C20_2 C 0.7408(7) 0.2887(5) 0.7314(5)
H10_2 H 0.8291 0.2833 0.7099
C22_2 C 0.6670(7) 0.0851(6) 0.4562(5)
H11_2 H 0.7296 0.0361 0.4434
C23_2 C 0.5911(7) 0.2016(6) 0.5672(5)
C24_2 C 0.6844(7) 0.1327(6) 0.5481(5)
H12_2 H 0.7606 0.1185 0.5988
C25_2 C 0.4841(7) 0.2233(6) 0.4911(5)
H13_2 H 0.4184 0.2703 0.5026
C26_2 C 0.4734(7) 0.1769(6) 0.3998(5)
H14_2 H 0.4026 0.1948 0.3474
C4_2 C 0.6451(6) 0.9851(5) 0.1583(4)
C5_2 C 0.5017(6) 0.9405(4) 0.1061(4)
H2_2 H 0.4875 0.8979 0.0459
C8_2 C 0.3780(6) 0.9582(5) 0.1423(4)
C12_2 C 0.7765(6) 0.9747(5) 0.1158(4)
C13_2 C 0.2253(6) 0.9135(5) 0.0783(4)
H16_2 H 0.8933 0.3291 0.129408
O17 O 0.856(2) 0.4390(17) 0.5548(16)
O18 O 0.735(3) 0.567(2) 0.643(2)
O19 O 0.981(2) 0.5356(14) 0.7195(14)
N3 N 0.862(4) 0.515(3) 0.644(3)
O17_2 O 0.144(2) 0.5610(17) 0.4452(16)
O18_2 O 0.265(3) 0.433(2) 0.357(2)
O19_2 O 0.019(2) 0.4644(14) 0.2805(14)
N3_2 N 0.138(4) 0.485(3) 0.356(3)
loop_
_geom_bond_atom_site_label_1
_geom_bond_atom_site_label_2
_geom_bond_site_symmetry_1
_geom_bond_site_symmetry_2
O1 C13 1_555 1_555
O2 C13 1_555 1_555
O3 C12 1_555 1_555
C4 C5 1_555 1_555
C5 H2 1_555 1_555
C8 C5 1_555 1_555
C12 C4 1_555 1_555
C13 C8 1_555 1_555
N1 C7 1_555 1_555
C1 H1 1_555 1_555
N2 C16 1_555 1_555
C7 C1 1_555 1_555
H4 C9 1_555 1_555
C14 N1 1_555 1_555
H6 C14 1_555 1_555
C15 N1 1_555 1_555
H7 C15 1_555 1_555
C16 C9 1_555 1_555
H8 C17 1_555 1_555
C18 C15 1_555 1_555
H9 C18 1_555 1_555
C19 C18 1_555 1_555
C20 C14 1_555 1_555
H10 C20 1_555 1_555
C22 N2 1_555 1_555
H11 C22 1_555 1_555
C23 C19 1_555 1_555
C24 C22 1_555 1_555
H12 C24 1_555 1_555
C25 C23 1_555 1_555
H13 C25 1_555 1_555
C26 N2 1_555 1_555
H14 C26 1_555 1_555
C16 C17 1_555 1_555
C19 C20 1_555 1_555
C23 C24 1_555 1_555
C25 C26 1_555 1_555
La3 O7 1_555 1_555
O5 C11 1_555 1_555
O6 C11 1_555 1_555
O7 C21 1_555 1_555
C2 C6 1_555 1_555
C10 C2 1_555 1_555
H5 C10 1_555 1_555
C11 C3 1_555 1_555
O8 La3 1_555 1_555
C21 C2 1_555 1_555
O9 C21 1_555 1_555
O10 La3 1_555 1_555
C3 C10 1_555 1_555
O10 H15 1_555 1_555
O8 H17 1_555 1_555
O8 H18 1_555 1_555
La6 O7_2 1_555 1_555
O16 C11_2 1_555 1_555
O6_2 C11_2 1_555 1_555
O7_2 C21_2 1_555 1_555
C2_2 C6_2 1_555 1_555
C10_2 C2_2 1_555 1_555
H5_2 C10_2 1_555 1_555
C11_2 C3_2 1_555 1_555
O8_2 La6 1_555 1_555
C21_2 C2_2 1_555 1_555
O9_2 C21_2 1_555 1_555
O10_2 La6 1_555 1_555
C3_2 C10_2 1_555 1_555
O10_2 H15_2 1_555 1_555
O8_2 H17_2 1_555 1_555
O8_2 H18_2 1_555 1_555
N1_2 C7_2 1_555 1_555
C1_2 H1_2 1_555 1_555
N2_2 C16_2 1_555 1_555
C7_2 C1_2 1_555 1_555
H4_2 C9_2 1_555 1_555
C14_2 N1_2 1_555 1_555
H6_2 C14_2 1_555 1_555
C15_2 N1_2 1_555 1_555
H7_2 C15_2 1_555 1_555
C16_2 C9_2 1_555 1_555
H8_2 C17_2 1_555 1_555
C18_2 C15_2 1_555 1_555
H9_2 C18_2 1_555 1_555
C19_2 C18_2 1_555 1_555
C20_2 C14_2 1_555 1_555
H10_2 C20_2 1_555 1_555
C22_2 N2_2 1_555 1_555
H11_2 C22_2 1_555 1_555
C23_2 C19_2 1_555 1_555
C24_2 C22_2 1_555 1_555
H12_2 C24_2 1_555 1_555
C25_2 C23_2 1_555 1_555
H13_2 C25_2 1_555 1_555
C26_2 N2_2 1_555 1_555
H14_2 C26_2 1_555 1_555
C16_2 C17_2 1_555 1_555
C19_2 C20_2 1_555 1_555
C23_2 C24_2 1_555 1_555
C25_2 C26_2 1_555 1_555
O11 C13_2 1_555 1_555
O13 C13_2 1_555 1_555
O14 C12_2 1_555 1_555
C4_2 C5_2 1_555 1_555
C5_2 H2_2 1_555 1_555
C8_2 C5_2 1_555 1_555
C12_2 C4_2 1_555 1_555
C13_2 C8_2 1_555 1_555
O17 N3 1_555 1_555
O18 N3 1_555 1_555
O19 N3 1_555 1_555
O17_2 N3_2 1_555 1_555
O18_2 N3_2 1_555 1_555
O19_2 N3_2 1_555 1_555

#END
