
###############################################################################
#
# This file contains modified crystal structure data generated from the
# MOF subset of the Cambridge Structural Database (CSD) v543 
# hosted by the Cambridge Crystallographic Data Centre (CCDC).
#
# This work is licensed under the Creative Commons
# Attribution-NonCommercial-ShareAlike 4.0 International License.
# To view a copy of this license, visit
# http://creativecommons.org/licenses/by-nc-sa/4.0/
# or send a letter to
# Creative Commons, PO Box 1866, Mountain View, CA 94042, USA.
#
# CIF created using the CSD Python API on 29 September 2022
# The structure has been converted into the P1 space group
# The structure has a 3D framework
# The original CSD entry RANNUS is in the triclinic crystal system
# The framework has been calculated to contain at least 10.0% void space
# The void calculation uses a probe of radius 1.32A, grid spacing 0.4
#
###############################################################################

data_RANNUS
_chemical_formula_moiety         '(C24 H34 Nd2 O26 P6)n'
_symmetry_cell_setting           triclinic
_symmetry_space_group_name_H-M   'P 1'
_symmetry_Int_Tables_number      1
_space_group_name_Hall           'P 1'
loop_
_symmetry_equiv_pos_site_id
_symmetry_equiv_pos_as_xyz
1 x,y,z
_cell_length_a                   10.3912(10)
_cell_length_b                   11.8723(4)
_cell_length_c                   11.8790(8)
_cell_angle_alpha                82.379(10)
_cell_angle_beta                 87.725(12)
_cell_angle_gamma                81.666(8)
_cell_volume                     1436.89
loop_
_atom_site_label
_atom_site_type_symbol
_atom_site_fract_x
_atom_site_fract_y
_atom_site_fract_z
_atom_site_U_iso_or_equiv
_atom_site_thermal_displace_type
Nd8 Nd 0.018957(16) 0.922621(16) 0.760710(14) 0.0181 Uani
P2 P 0.11861(8) 0.11678(8) 0.50462(7) 0.0187 Uani
O5 O 0.0817(3) 0.0731(2) 0.6240(2) 0.0273 Uani
O6 O 0.0109(2) 0.1536(2) 0.4208(2) 0.0242 Uani
O7 O 0.1981(3) 0.2194(3) 0.5115(2) 0.0318 Uani
H3 H 0.2025 0.2564 0.4484 0.0480 Uiso
O8 O 0.2044(2) 0.0098(3) 0.3300(2) 0.0313 Uani
O13 O 0.1131(3) 0.2316(3) 0.1747(3) 0.0468 Uani
H7 H 0.1365 0.2721 0.2224 0.0700 Uiso
H8 H 0.1199 0.2745 0.1124 0.0700 Uiso
C6 C 0.3695(3) 0.0004(3) 0.4739(3) 0.0234 Uani
C8 C 0.4557(4) 0.0421(4) 0.3926(3) 0.0314 Uani
H14 H 0.4266 0.0709 0.3200 0.0370 Uiso
H24 H 0.7549 0.0534 0.6869 0.0470 Uiso
C17 C 0.7723(3) 0.0001(3) 0.5512(3) 0.0236 Uani
H25 H 0.7974 0.0732 0.5154 0.0280 Uiso
C19 C 0.5854(4) 0.0417(4) 0.4178(3) 0.0313 Uani
H26 H 0.6422 0.0698 0.3620 0.0380 Uiso
Nd4 Nd 0.981043(16) 0.077379(16) 0.239290(14) 0.0181 Uani
H4 H 0.2451 0.9466 0.3131 0.0470 Uiso
C5 C 0.2277(3) 0.9999(3) 0.4488(3) 0.0236 Uani
H12 H 0.2026 0.9268 0.4846 0.0280 Uiso
C7 C 0.4146(4) 0.9583(4) 0.5822(3) 0.0313 Uani
H13 H 0.3578 0.9302 0.6380 0.0380 Uiso
P5 P 0.88139(8) 0.88322(8) 0.49538(7) 0.0187 Uani
O18 O 0.9183(3) 0.9269(2) 0.3760(2) 0.0273 Uani
O19 O 0.9891(2) 0.8464(2) 0.5792(2) 0.0242 Uani
O20 O 0.8019(3) 0.7806(3) 0.4885(2) 0.0318 Uani
H23 H 0.7975 0.7436 0.5516 0.0480 Uiso
O21 O 0.7956(2) 0.9902(3) 0.6700(2) 0.0313 Uani
C18 C 0.6305(3) 0.9996(3) 0.5261(3) 0.0234 Uani
C20 C 0.5443(4) 0.9579(4) 0.6074(3) 0.0314 Uani
H27 H 0.5734 0.9291 0.6800 0.0370 Uiso
O33 O 0.1060(3) 0.9297(2) 0.1466(2) 0.0270 Uani
P1 P 0.70199(11) 0.31665(10) 0.27806(10) 0.0363 Uani
O1 O 0.7999(3) 0.2157(3) 0.2591(3) 0.0382 Uani
O2 O 0.5644(3) 0.3012(4) 0.2447(3) 0.0582 Uani
H1 H 0.5513 0.3303 0.1788 0.0870 Uiso
O3 O 0.7391(5) 0.4295(4) 0.2201(4) 0.0659 Uani
O4 O 0.8209(3) 0.3306(3) 0.4683(3) 0.0544 Uani
H2 H 0.8196 0.3289 0.5375 0.0810 Uiso
O10 O 0.9441(3) 0.1411(2) 0.0397(2) 0.0268 Uani
C1 C 0.6944(4) 0.3199(4) 0.4314(4) 0.0337 Uani
H9 H 0.6712 0.2463 0.4679 0.0400 Uiso
C2 C 0.5952(4) 0.4142(4) 0.4679(3) 0.0321 Uani
C3 C 0.4743(4) 0.3888(4) 0.5031(4) 0.0390 Uani
H10 H 0.4562 0.3141 0.5052 0.0470 Uiso
C4 C 0.6218(4) 0.5267(4) 0.4642(4) 0.0414 Uani
H11 H 0.7034 0.5450 0.4400 0.0500 Uiso
C11 C 0.5390(4) 0.0632(4) 0.0792(3) 0.0320 Uani
H16 H 0.5649 0.1057 0.1325 0.0390 Uiso
P4 P 0.29801(11) 0.68335(10) 0.72194(10) 0.0363 Uani
O14 O 0.2001(3) 0.7843(3) 0.7409(3) 0.0382 Uani
O15 O 0.4356(3) 0.6988(4) 0.7553(3) 0.0582 Uani
H18 H 0.4487 0.6697 0.8212 0.0870 Uiso
O16 O 0.2609(5) 0.5705(4) 0.7799(4) 0.0659 Uani
O17 O 0.1791(3) 0.6694(3) 0.5317(3) 0.0544 Uani
H19 H 0.1804 0.6711 0.4625 0.0810 Uiso
C13 C 0.3056(4) 0.6801(4) 0.5686(4) 0.0337 Uani
H20 H 0.3288 0.7537 0.5321 0.0400 Uiso
C14 C 0.4048(4) 0.5858(4) 0.5321(3) 0.0321 Uani
C15 C 0.5257(4) 0.6112(4) 0.4969(4) 0.0390 Uani
H21 H 0.5438 0.6859 0.4948 0.0470 Uiso
C16 C 0.3782(4) 0.4733(4) 0.5358(4) 0.0414 Uani
H22 H 0.2966 0.4550 0.5600 0.0500 Uiso
C24 C 0.4078(4) 0.0707(4) 0.0554(3) 0.0307 Uani
H32 H 0.3462 0.1184 0.0926 0.0370 Uiso
P3 P 0.84630(8) 0.10744(8) 0.96536(7) 0.0199 Uani
O9 O 0.8940(3) 0.0703(2) 0.8534(2) 0.0270 Uani
O11 O 0.7334(3) 0.2094(3) 0.9400(3) 0.0375 Uani
H5 H 0.7559 0.2684 0.9568 0.0560 Uiso
O25 O 0.2017(2) 0.0100(3) 0.8362(2) 0.0284 Uani
H29 H 0.2431 0.0515 0.7887 0.0430 Uiso
C21 C 0.2257(3) 0.0126(3) 0.9541(3) 0.0230 Uani
H30 H 0.1799 0.0846 0.9765 0.0280 Uiso
C22 C 0.3689(3) 0.0071(3) 0.9762(3) 0.0239 Uani
O12 O 0.7983(2) 0.9900(3) 0.1638(2) 0.0284 Uani
H6 H 0.7569 0.9485 0.2113 0.0430 Uiso
C9 C 0.7743(3) 0.9874(3) 0.0459(3) 0.0230 Uani
H15 H 0.8201 0.9154 0.0235 0.0280 Uiso
C10 C 0.6311(3) 0.9929(3) 0.0238(3) 0.0239 Uani
P6 P 0.15370(8) 0.89256(8) 0.03464(7) 0.0199 Uani
O24 O 0.2666(3) 0.7906(3) 0.0600(3) 0.0375 Uani
H28 H 0.2441 0.7316 0.0432 0.0560 Uiso
C12 C 0.5922(4) 0.9293(4) 0.9446(3) 0.0307 Uani
H17 H 0.6538 0.8816 0.9074 0.0370 Uiso
O23 O 0.0559(3) 0.8589(2) 0.9603(2) 0.0268 Uani
C23 C 0.4610(4) 0.9368(4) 0.9208(3) 0.0320 Uani
H31 H 0.4351 0.8943 0.8675 0.0390 Uiso
O26 O 0.8869(3) 0.7684(3) 0.8253(3) 0.0468 Uani
H33 H 0.8635 0.7279 0.7776 0.0700 Uiso
H34 H 0.8801 0.7255 0.8876 0.0700 Uiso
loop_
_atom_site_aniso_label
_atom_site_aniso_U_11
_atom_site_aniso_U_22
_atom_site_aniso_U_33
_atom_site_aniso_U_23
_atom_site_aniso_U_13
_atom_site_aniso_U_12
Nd8 0.01309 0.02878 0.01286 -0.007 -0.00212 0.0001
P2 0.0146 0.0277 0.0148 -0.0058 -0.0029 -0.0024
O5 0.0285 0.0361 0.0175 -0.0029 -0.0019 -0.0052
O6 0.0185 0.0327 0.0213 -0.0091 -0.0066 0.0035
O7 0.0355 0.0353 0.0275 -0.0037 -0.0072 -0.0131
O8 0.0188 0.0516 0.0248 -0.0204 -0.0081 0.0072
O13 0.059 0.052 0.0342 0 -0.0079 -0.0273
C6 0.0132 0.035 0.0224 -0.009 -0.0046 0.0015
C8 0.0181 0.055 0.0198 -0.0012 -0.0056 -0.0028
C17 0.0161 0.034 0.0214 -0.0061 -0.0056 -0.002
C19 0.018 0.05 0.0251 -0.0017 -0.0017 -0.0044
Nd4 0.01309 0.02878 0.01286 -0.007 -0.00212 0.0001
C5 0.0161 0.034 0.0214 -0.0061 -0.0056 -0.002
C7 0.018 0.05 0.0251 -0.0017 -0.0017 -0.0044
P5 0.0146 0.0277 0.0148 -0.0058 -0.0029 -0.0024
O18 0.0285 0.0361 0.0175 -0.0029 -0.0019 -0.0052
O19 0.0185 0.0327 0.0213 -0.0091 -0.0066 0.0035
O20 0.0355 0.0353 0.0275 -0.0037 -0.0072 -0.0131
O21 0.0188 0.0516 0.0248 -0.0204 -0.0081 0.0072
C18 0.0132 0.035 0.0224 -0.009 -0.0046 0.0015
C20 0.0181 0.055 0.0198 -0.0012 -0.0056 -0.0028
O33 0.0246 0.0392 0.0169 -0.0106 -0.0002 0.0026
P1 0.036 0.0393 0.0294 -0.0099 -0.0053 0.015
O1 0.0318 0.0493 0.0305 -0.0148 -0.0057 0.0145
O2 0.0404 0.083 0.048 -0.019 -0.0178 0.016
O3 0.086 0.048 0.058 0.0004 0.012 -0.001
O4 0.0403 0.068 0.056 -0.0376 -0.0203 0.0211
O10 0.0264 0.0389 0.0174 -0.0055 -0.005 -0.0096
C1 0.031 0.036 0.032 -0.0128 -0.0026 0.0109
C2 0.034 0.034 0.027 -0.0116 0.0001 0.0068
C3 0.039 0.032 0.047 -0.0143 0.005 -0.0013
C4 0.032 0.041 0.051 -0.015 0.006 0.0017
C11 0.0186 0.055 0.0271 -0.0195 -0.0032 -0.0067
P4 0.036 0.0393 0.0294 -0.0099 -0.0053 0.015
O14 0.0318 0.0493 0.0305 -0.0148 -0.0057 0.0145
O15 0.0404 0.083 0.048 -0.019 -0.0178 0.016
O16 0.086 0.048 0.058 0.0004 0.012 -0.001
O17 0.0403 0.068 0.056 -0.0376 -0.0203 0.0211
C13 0.031 0.036 0.032 -0.0128 -0.0026 0.0109
C14 0.034 0.034 0.027 -0.0116 0.0001 0.0068
C15 0.039 0.032 0.047 -0.0143 0.005 -0.0013
C16 0.032 0.041 0.051 -0.015 0.006 0.0017
C24 0.017 0.05 0.028 -0.0191 0.0013 -0.0025
P3 0.0136 0.0318 0.0142 -0.0076 -0.0019 0.0019
O9 0.0246 0.0392 0.0169 -0.0106 -0.0002 0.0026
O11 0.0287 0.0388 0.0424 -0.0105 -0.0065 0.0103
O25 0.0214 0.0496 0.016 -0.0019 -0.0049 -0.0121
C21 0.0142 0.037 0.0189 -0.0071 -0.0032 -0.0035
C22 0.0133 0.041 0.0189 -0.0058 -0.0019 -0.0063
O12 0.0214 0.0496 0.016 -0.0019 -0.0049 -0.0121
C9 0.0142 0.037 0.0189 -0.0071 -0.0032 -0.0035
C10 0.0133 0.041 0.0189 -0.0058 -0.0019 -0.0063
P6 0.0136 0.0318 0.0142 -0.0076 -0.0019 0.0019
O24 0.0287 0.0388 0.0424 -0.0105 -0.0065 0.0103
C12 0.017 0.05 0.028 -0.0191 0.0013 -0.0025
O23 0.0264 0.0389 0.0174 -0.0055 -0.005 -0.0096
C23 0.0186 0.055 0.0271 -0.0195 -0.0032 -0.0067
O26 0.059 0.052 0.0342 0 -0.0079 -0.0273
loop_
_geom_bond_atom_site_label_1
_geom_bond_atom_site_label_2
_geom_bond_site_symmetry_1
_geom_bond_site_symmetry_2
P2 O5 1_555 1_555
O7 P2 1_555 1_555
H3 O7 1_555 1_555
H7 O13 1_555 1_555
H8 O13 1_555 1_555
C8 C6 1_555 1_555
H14 C8 1_555 1_555
H25 C17 1_555 1_555
C19 C8 1_555 1_555
H26 C19 1_555 1_555
P2 O6 1_555 1_555
H12 C5 1_555 1_555
H13 C7 1_555 1_555
P5 O18 1_555 1_555
O19 P5 1_555 1_555
O20 P5 1_555 1_555
H23 O20 1_555 1_555
C20 C7 1_555 1_555
H27 C20 1_555 1_555
C18 C20 1_555 1_555
Nd4 O1 1_555 1_555
P1 O1 1_555 1_555
O2 P1 1_555 1_555
H1 O2 1_555 1_555
O3 P1 1_555 1_555
O4 H2 1_555 1_555
O10 Nd4 1_555 1_555
C1 P1 1_555 1_555
H9 C1 1_555 1_555
C2 C1 1_555 1_555
C3 C2 1_555 1_555
H10 C3 1_555 1_555
C4 C2 1_555 1_555
H11 C4 1_555 1_555
H16 C11 1_555 1_555
P4 O14 1_555 1_555
O14 Nd8 1_555 1_555
O15 P4 1_555 1_555
H18 O15 1_555 1_555
O16 P4 1_555 1_555
O17 H19 1_555 1_555
C13 P4 1_555 1_555
H20 C13 1_555 1_555
C14 C13 1_555 1_555
C15 C4 1_555 1_555
H21 C15 1_555 1_555
C16 C3 1_555 1_555
H22 C16 1_555 1_555
C24 C11 1_555 1_555
H32 C24 1_555 1_555
O4 C1 1_555 1_555
O17 C13 1_555 1_555
C14 C15 1_555 1_555
C14 C16 1_555 1_555
P3 O9 1_555 1_555
O11 P3 1_555 1_555
H5 O11 1_555 1_555
O25 H29 1_555 1_555
H30 C21 1_555 1_555
C22 C21 1_555 1_555
O25 C21 1_555 1_555
H6 O12 1_555 1_555
H15 C9 1_555 1_555
C10 C9 1_555 1_555
P6 O33 1_555 1_555
O24 P6 1_555 1_555
H28 O24 1_555 1_555
O12 C9 1_555 1_555
H17 C12 1_555 1_555
C23 C12 1_555 1_555
H31 C23 1_555 1_555
Nd8 O23 1_555 1_555
H33 O26 1_555 1_555
H34 O26 1_555 1_555

#END
