
###############################################################################
#
# This file contains modified crystal structure data generated from the
# MOF subset of the Cambridge Structural Database (CSD) v543 
# hosted by the Cambridge Crystallographic Data Centre (CCDC).
#
# This work is licensed under the Creative Commons
# Attribution-NonCommercial-ShareAlike 4.0 International License.
# To view a copy of this license, visit
# http://creativecommons.org/licenses/by-nc-sa/4.0/
# or send a letter to
# Creative Commons, PO Box 1866, Mountain View, CA 94042, USA.
#
# CIF created using the CSD Python API on 29 September 2022
# The structure has been converted into the P1 space group
# The structure has a 3D framework
# The original CSD entry RANNOM is in the triclinic crystal system
# The framework has been calculated to contain at least 10.0% void space
# The void calculation uses a probe of radius 1.32A, grid spacing 0.4
#
###############################################################################

data_RANNOM
_chemical_formula_moiety         '(C24 H34 Eu2 O26 P6)n'
_symmetry_cell_setting           triclinic
_symmetry_space_group_name_H-M   'P 1'
_symmetry_Int_Tables_number      1
_space_group_name_Hall           'P 1'
loop_
_symmetry_equiv_pos_site_id
_symmetry_equiv_pos_as_xyz
1 x,y,z
_cell_length_a                   10.390(5)
_cell_length_b                   11.803(6)
_cell_length_c                   11.934(6)
_cell_angle_alpha                82.967(10)
_cell_angle_beta                 81.366(11)
_cell_angle_gamma                87.884(9)
_cell_volume                     1435.78
loop_
_atom_site_label
_atom_site_type_symbol
_atom_site_fract_x
_atom_site_fract_y
_atom_site_fract_z
_atom_site_U_iso_or_equiv
_atom_site_thermal_displace_type
Eu8 Eu 0.01954(3) 0.76008(2) 0.92468(2) 0.0195 Uani
P2 P 0.11627(13) 0.50548(11) 0.11598(12) 0.0199 Uani
O5 O 0.0783(4) 0.6248(3) 0.0725(3) 0.0269 Uani
O6 O 0.0095(4) 0.4201(3) 0.1514(3) 0.0245 Uani
O7 O 0.1942(4) 0.5137(4) 0.2187(4) 0.0337 Uani
H3 H 0.1985 0.4505 0.2553 0.0510 Uiso
O8 O 0.2027(4) 0.3298(3) 0.0091(4) 0.0323 Uani
O13 O 0.1091(5) 0.1774(4) 0.2252(4) 0.0434 Uani
H7 H 0.1325 0.2251 0.2657 0.0650 Uiso
H8 H 0.1160 0.1151 0.2681 0.0650 Uiso
C5 C 0.2270(5) 0.4483(5) 0.0003(5) 0.0262 Uani
C6 C 0.3691(5) 0.4735(5) 0.0002(5) 0.0252 Uani
C8 C 0.4540(6) 0.3927(5) 0.0420(6) 0.0339 Uani
H14 H 0.4239 0.3203 0.0713 0.0410 Uiso
H24 H 0.7566 0.6871 0.0541 0.0480 Uiso
H25 H 0.7974 0.5161 0.0723 0.0320 Uiso
C19 C 0.5852(6) 0.4175(5) 0.0414(6) 0.0326 Uani
H26 H 0.6416 0.3613 0.0686 0.0390 Uiso
Eu4 Eu 0.98046(3) 0.23992(2) 0.07532(2) 0.0195 Uani
H4 H 0.2434 0.3129 0.9459 0.0480 Uiso
H12 H 0.2026 0.4839 0.9277 0.0320 Uiso
C7 C 0.4148(6) 0.5825(5) 0.9586(6) 0.0326 Uani
H13 H 0.3584 0.6387 0.9314 0.0390 Uiso
P5 P 0.88373(13) 0.49452(11) 0.88402(12) 0.0199 Uani
O18 O 0.9217(4) 0.3752(3) 0.9275(3) 0.0269 Uani
O19 O 0.9905(4) 0.5799(3) 0.8486(3) 0.0245 Uani
O20 O 0.8058(4) 0.4863(4) 0.7813(4) 0.0337 Uani
H23 H 0.8015 0.5495 0.7447 0.0510 Uiso
O21 O 0.7973(4) 0.6702(3) 0.9909(4) 0.0323 Uani
C17 C 0.7730(5) 0.5517(5) 0.9997(5) 0.0262 Uani
C18 C 0.6309(5) 0.5265(5) 0.9998(5) 0.0252 Uani
C20 C 0.5460(6) 0.6073(5) 0.9580(6) 0.0339 Uani
H27 H 0.5761 0.6797 0.9287 0.0410 Uiso
O33 O 0.1044(4) 0.1477(3) 0.9299(3) 0.0265 Uani
P1 P 0.70541(18) 0.27650(15) 0.31429(15) 0.0384 Uani
O1 O 0.8004(4) 0.2587(4) 0.2111(4) 0.0371 Uani
O2 O 0.5666(5) 0.2422(5) 0.2996(5) 0.0596 Uani
H1 H 0.5534 0.1763 0.3287 0.0900 Uiso
O3 O 0.7441(7) 0.2190(5) 0.4250(5) 0.0689 Uani
O4 O 0.8199(5) 0.4697(5) 0.3281(5) 0.0565 Uani
H2 H 0.8173 0.5394 0.3263 0.0840 Uiso
O10 O 0.9453(4) 0.0421(3) 0.1383(4) 0.0280 Uani
C1 C 0.6953(6) 0.4306(5) 0.3185(6) 0.0366 Uani
H9 H 0.6715 0.4663 0.2457 0.0440 Uiso
C2 C 0.5943(6) 0.4670(5) 0.4134(5) 0.0345 Uani
C3 C 0.4728(7) 0.5030(6) 0.3902(6) 0.0406 Uani
H10 H 0.4539 0.5052 0.3162 0.0490 Uiso
C4 C 0.6219(7) 0.4640(6) 0.5248(6) 0.0456 Uani
H11 H 0.7038 0.4399 0.5418 0.0550 Uiso
C11 C 0.5393(6) 0.0792(5) 0.0641(6) 0.0324 Uani
H16 H 0.5652 0.1325 0.1072 0.0390 Uiso
P4 P 0.29459(18) 0.72350(15) 0.68571(15) 0.0384 Uani
O14 O 0.1996(4) 0.7413(4) 0.7889(4) 0.0371 Uani
O15 O 0.4334(5) 0.7578(5) 0.7004(5) 0.0596 Uani
H18 H 0.4466 0.8237 0.6713 0.0900 Uiso
O16 O 0.2559(7) 0.7810(5) 0.5750(5) 0.0689 Uani
O17 O 0.1801(5) 0.5303(5) 0.6719(5) 0.0565 Uani
H19 H 0.1827 0.4606 0.6737 0.0840 Uiso
C13 C 0.3047(6) 0.5694(5) 0.6815(6) 0.0366 Uani
H20 H 0.3285 0.5337 0.7543 0.0440 Uiso
C14 C 0.4057(6) 0.5330(5) 0.5866(5) 0.0345 Uani
C15 C 0.5272(7) 0.4970(6) 0.6098(6) 0.0406 Uani
H21 H 0.5461 0.4948 0.6838 0.0490 Uiso
C16 C 0.3781(7) 0.5360(6) 0.4752(6) 0.0456 Uani
H22 H 0.2962 0.5601 0.4582 0.0550 Uiso
C24 C 0.4088(5) 0.0556(5) 0.0714(5) 0.0301 Uani
H32 H 0.3474 0.0930 0.1197 0.0370 Uiso
O12 O 0.8007(4) 0.1643(3) 0.9886(4) 0.0291 Uani
H6 H 0.7592 0.2117 0.9471 0.0440 Uiso
C9 C 0.7749(5) 0.0458(4) 0.9872(5) 0.0220 Uani
H15 H 0.8205 0.0222 0.9155 0.0260 Uiso
C10 C 0.6316(5) 0.0237(5) 0.9928(5) 0.0244 Uani
P6 P 0.15264(13) 0.03387(11) 0.89445(13) 0.0209 Uani
O24 O 0.2661(4) 0.0580(4) 0.7918(4) 0.0378 Uani
H28 H 0.2430 0.0410 0.7333 0.0560 Uiso
P3 P 0.84736(13) 0.96613(11) 0.10555(13) 0.0209 Uani
O9 O 0.8956(4) 0.8523(3) 0.0701(3) 0.0265 Uani
O11 O 0.7339(4) 0.9420(4) 0.2082(4) 0.0378 Uani
H5 H 0.7570 0.9590 0.2667 0.0560 Uiso
O25 O 0.1993(4) 0.8357(3) 0.0114(4) 0.0291 Uani
H29 H 0.2408 0.7883 0.0529 0.0440 Uiso
C21 C 0.2251(5) 0.9542(4) 0.0128(5) 0.0220 Uani
H30 H 0.1795 0.9778 0.0845 0.0260 Uiso
C22 C 0.3684(5) 0.9763(5) 0.0072(5) 0.0244 Uani
C12 C 0.5912(5) 0.9444(5) 0.9286(5) 0.0301 Uani
H17 H 0.6526 0.9070 0.8803 0.0370 Uiso
O23 O 0.0547(4) 0.9579(3) 0.8617(4) 0.0280 Uani
C23 C 0.4607(6) 0.9208(5) 0.9359(6) 0.0324 Uani
H31 H 0.4348 0.8675 0.8928 0.0390 Uiso
O26 O 0.8909(5) 0.8226(4) 0.7748(4) 0.0434 Uani
H33 H 0.8675 0.7749 0.7343 0.0650 Uiso
H34 H 0.8840 0.8849 0.7319 0.0650 Uiso
loop_
_atom_site_aniso_label
_atom_site_aniso_U_11
_atom_site_aniso_U_22
_atom_site_aniso_U_33
_atom_site_aniso_U_23
_atom_site_aniso_U_13
_atom_site_aniso_U_12
Eu8 0.01449 0.01442 0.03007 -0.00723 -0.00084 -0.00201
P2 0.0153 0.0162 0.0293 -0.0052 -0.0039 -0.0034
O5 0.027 0.0165 0.037 -0.0026 -0.0037 -0.003
O6 0.019 0.0185 0.036 -0.0085 0.0013 -0.0046
O7 0.039 0.026 0.04 -0.0014 -0.019 -0.0075
O8 0.019 0.026 0.053 -0.0214 0.0063 -0.0085
O13 0.053 0.031 0.051 -0.002 -0.024 -0.006
C5 0.017 0.023 0.039 -0.007 -0.002 -0.003
C6 0.014 0.023 0.039 -0.013 0.003 -0.001
C8 0.021 0.021 0.059 -0.004 -0.003 -0.006
C19 0.018 0.024 0.054 -0.002 -0.001 -0.001
Eu4 0.01449 0.01442 0.03007 -0.00723 -0.00084 -0.00201
C7 0.018 0.024 0.054 -0.002 -0.001 -0.001
P5 0.0153 0.0162 0.0293 -0.0052 -0.0039 -0.0034
O18 0.027 0.0165 0.037 -0.0026 -0.0037 -0.003
O19 0.019 0.0185 0.036 -0.0085 0.0013 -0.0046
O20 0.039 0.026 0.04 -0.0014 -0.019 -0.0075
O21 0.019 0.026 0.053 -0.0214 0.0063 -0.0085
C17 0.017 0.023 0.039 -0.007 -0.002 -0.003
C18 0.014 0.023 0.039 -0.013 0.003 -0.001
C20 0.021 0.021 0.059 -0.004 -0.003 -0.006
O33 0.026 0.0166 0.037 -0.0082 -0.0009 -0.0009
P1 0.0393 0.0305 0.0411 -0.0104 0.0145 -0.0054
O1 0.03 0.032 0.047 -0.017 0.013 -0.0043
O2 0.04 0.05 0.085 -0.022 0.018 -0.016
O3 0.094 0.064 0.045 -0.005 -0.004 0.019
O4 0.039 0.058 0.073 -0.04 0.021 -0.021
O10 0.025 0.0186 0.043 -0.005 -0.0115 -0.0026
C1 0.031 0.035 0.042 -0.016 0.011 -0.005
C2 0.035 0.033 0.033 -0.014 0.012 -0.002
C3 0.041 0.046 0.034 -0.012 0.002 0.005
C4 0.039 0.05 0.046 -0.013 0.003 0.011
C11 0.022 0.027 0.053 -0.021 -0.008 -0.001
P4 0.0393 0.0305 0.0411 -0.0104 0.0145 -0.0054
O14 0.03 0.032 0.047 -0.017 0.013 -0.0043
O15 0.04 0.05 0.085 -0.022 0.018 -0.016
O16 0.094 0.064 0.045 -0.005 -0.004 0.019
O17 0.039 0.058 0.073 -0.04 0.021 -0.021
C13 0.031 0.035 0.042 -0.016 0.011 -0.005
C14 0.035 0.033 0.033 -0.014 0.012 -0.002
C15 0.041 0.046 0.034 -0.012 0.002 0.005
C16 0.039 0.05 0.046 -0.013 0.003 0.011
C24 0.018 0.028 0.049 -0.02 -0.008 0.003
O12 0.022 0.018 0.048 -0.0015 -0.0089 -0.0041
C9 0.014 0.022 0.032 -0.009 -0.005 -0.002
C10 0.015 0.019 0.041 -0.004 -0.009 -0.002
P6 0.0137 0.0163 0.0327 -0.008 0.0014 -0.0018
O24 0.028 0.044 0.038 -0.009 0.0106 -0.006
P3 0.0137 0.0163 0.0327 -0.008 0.0014 -0.0018
O9 0.026 0.0166 0.037 -0.0082 -0.0009 -0.0009
O11 0.028 0.044 0.038 -0.009 0.0106 -0.006
O25 0.022 0.018 0.048 -0.0015 -0.0089 -0.0041
C21 0.014 0.022 0.032 -0.009 -0.005 -0.002
C22 0.015 0.019 0.041 -0.004 -0.009 -0.002
C12 0.018 0.028 0.049 -0.02 -0.008 0.003
O23 0.025 0.0186 0.043 -0.005 -0.0115 -0.0026
C23 0.022 0.027 0.053 -0.021 -0.008 -0.001
O26 0.053 0.031 0.051 -0.002 -0.024 -0.006
loop_
_geom_bond_atom_site_label_1
_geom_bond_atom_site_label_2
_geom_bond_site_symmetry_1
_geom_bond_site_symmetry_2
P2 O5 1_555 1_555
O7 P2 1_555 1_555
H3 O7 1_555 1_555
H7 O13 1_555 1_555
H8 O13 1_555 1_555
C5 P2 1_555 1_555
C6 C5 1_555 1_555
C8 C6 1_555 1_555
H14 C8 1_555 1_555
C19 C8 1_555 1_555
H26 C19 1_555 1_555
P2 O6 1_555 1_555
O8 C5 1_555 1_555
H13 C7 1_555 1_555
P5 O18 1_555 1_555
O19 P5 1_555 1_555
O20 P5 1_555 1_555
H23 O20 1_555 1_555
C17 P5 1_555 1_555
C18 C17 1_555 1_555
C20 C7 1_555 1_555
H27 C20 1_555 1_555
O21 C17 1_555 1_555
C18 C20 1_555 1_555
Eu4 O1 1_555 1_555
P1 O1 1_555 1_555
O2 P1 1_555 1_555
H1 O2 1_555 1_555
O3 P1 1_555 1_555
O4 H2 1_555 1_555
O10 Eu4 1_555 1_555
C1 P1 1_555 1_555
H9 C1 1_555 1_555
C2 C1 1_555 1_555
C3 C2 1_555 1_555
H10 C3 1_555 1_555
C4 C2 1_555 1_555
H11 C4 1_555 1_555
H16 C11 1_555 1_555
P4 O14 1_555 1_555
O14 Eu8 1_555 1_555
O15 P4 1_555 1_555
H18 O15 1_555 1_555
O16 P4 1_555 1_555
O17 H19 1_555 1_555
C13 P4 1_555 1_555
H20 C13 1_555 1_555
C14 C13 1_555 1_555
C15 C4 1_555 1_555
H21 C15 1_555 1_555
C16 C3 1_555 1_555
H22 C16 1_555 1_555
C24 C11 1_555 1_555
H32 C24 1_555 1_555
O4 C1 1_555 1_555
O17 C13 1_555 1_555
C14 C15 1_555 1_555
C14 C16 1_555 1_555
H6 O12 1_555 1_555
H15 C9 1_555 1_555
C10 C9 1_555 1_555
P6 O33 1_555 1_555
O24 P6 1_555 1_555
H28 O24 1_555 1_555
O12 C9 1_555 1_555
P3 O9 1_555 1_555
O11 P3 1_555 1_555
H5 O11 1_555 1_555
O25 H29 1_555 1_555
H30 C21 1_555 1_555
C22 C21 1_555 1_555
O25 C21 1_555 1_555
H17 C12 1_555 1_555
C23 C12 1_555 1_555
H31 C23 1_555 1_555
Eu8 O23 1_555 1_555
H33 O26 1_555 1_555
H34 O26 1_555 1_555

#END
