
###############################################################################
#
# This file contains modified crystal structure data generated from the
# MOF subset of the Cambridge Structural Database (CSD) v543 
# hosted by the Cambridge Crystallographic Data Centre (CCDC).
#
# This work is licensed under the Creative Commons
# Attribution-NonCommercial-ShareAlike 4.0 International License.
# To view a copy of this license, visit
# http://creativecommons.org/licenses/by-nc-sa/4.0/
# or send a letter to
# Creative Commons, PO Box 1866, Mountain View, CA 94042, USA.
#
# CIF created using the CSD Python API on 29 September 2022
# The structure has been converted into the P1 space group
# The structure has a 3D framework
# The original CSD entry RAPFUM is in the trigonal crystal system
# The original CSD entry RAPFUM is in a Sohncke space group
# The framework has been calculated to contain at least 10.0% void space
# The void calculation uses a probe of radius 1.32A, grid spacing 0.4
# The framework is charged, counterions have been retained in the structure
#
###############################################################################

data_RAPFUM
_chemical_formula_moiety         '(C66 H54 Ag1 F9 N18 O9 S3 2-)n'
_symmetry_cell_setting           triclinic
_symmetry_space_group_name_H-M   'P 1'
_symmetry_Int_Tables_number      1
_space_group_name_Hall           'P 1'
loop_
_symmetry_equiv_pos_site_id
_symmetry_equiv_pos_as_xyz
1 x,y,z
_cell_length_a                   10.7476(8)
_cell_length_b                   10.7476(8)
_cell_length_c                   19.663(3)
_cell_angle_alpha                90
_cell_angle_beta                 90
_cell_angle_gamma                120
_cell_volume                     1967
loop_
_atom_site_label
_atom_site_type_symbol
_atom_site_fract_x
_atom_site_fract_y
_atom_site_fract_z
N2 N 0.554(2) 0.1666(17) 0.0084(11)
N4 N 0.394(3) 0.152(3) 0.3024(12)
N5 N 0.6084(18) 0.1609(16) 0.1194(10)
C3 C 0.167(3) 0.030(2) 0.0339(15)
H3 H 0.1093 0.0720 0.0430
C4 C 0.320(3) 0.122(2) 0.0238(16)
H4 H 0.3634 0.2235 0.0272
C5 C 0.393(3) 0.063(2) 0.0103(17)
C11 C 0.460(3) 0.228(3) 0.1915(13)
H9 H 0.4556 0.2823 0.1543
C12 C 0.397(3) 0.229(3) 0.2455(13)
H10 H 0.3502 0.2835 0.2471
C13 C 0.471(3) 0.090(3) 0.2966(14)
H11 H 0.4767 0.0396 0.3349
C14 C 0.544(3) 0.093(3) 0.2393(13)
H12 H 0.6020 0.0492 0.2397
C15 C 0.533(3) 0.157(3) 0.1821(14)
C16 C 0.673(2) 0.069(2) 0.1171(14)
C19 C 0.865(2) 0.021(2) 0.1188(13)
H15 H 0.9612 0.0510 0.1320
C20 C 0.820(3) 0.121(2) 0.1208(14)
H16 H 0.8871 0.2207 0.1245
C21 C 0.624(3) 0.251(2) 0.0642(11)
H17 H 0.5826 0.3123 0.0758
H18 H 0.7273 0.3142 0.0537
Ag3 Ag 0.26200(16) 0.13094(23) 0.39802(15)
N8 N 0.758(4) 0.606(3) 0.9691(12)
N1 N 0.111(2) 0.218(3) 0.3640(12)
N6 N 0.1142(19) 0.8962(28) 0.4330(11)
C1 C 0.073(2) 0.413(3) 0.3438(16)
H1 H 0.1127 0.5130 0.3356
C2 C 0.162(2) 0.359(3) 0.3558(17)
H2 H 0.2624 0.4233 0.3585
C17 C 0.080(2) 0.664(3) 0.4512(13)
H13 H 0.1223 0.6063 0.4592
C18 C 0.164(2) 0.806(3) 0.4406(14)
H14 H 0.2649 0.8446 0.4384
N7 N 0.391(4) 0.242(5) 0.4946(12)
N9 N 0.1038(28) 0.218(2) 0.7664(11)
N1_2 N 0.782(3) 0.893(2) 0.6974(12)
N2_2 N 0.6126(26) 0.446(2) 0.6751(11)
N5_2 N 0.5525(24) 0.3916(18) 0.7861(10)
C1_2 C 0.587(3) 0.660(2) 0.6772(16)
H1_2 H 0.4870 0.5997 0.6690
C2_2 C 0.641(3) 0.803(2) 0.6892(17)
H2_2 H 0.5767 0.8391 0.6919
C3_2 C 0.863(4) 0.833(3) 0.7006(15)
H3_2 H 0.9627 0.8907 0.7097
C4_2 C 0.802(4) 0.680(3) 0.6905(16)
H4_2 H 0.8601 0.6366 0.6939
C5_2 C 0.670(4) 0.607(3) 0.6770(17)
C6 C 0.543(4) 0.382(3) 0.6155(15)
C7 C 0.450(4) 0.223(2) 0.6118(14)
H5 H 0.4356 0.1654 0.6508
C8 C 0.389(4) 0.164(3) 0.5520(14)
H6 H 0.3408 0.0618 0.5485
C9 C 0.467(4) 0.380(3) 0.5022(15)
H7 H 0.4719 0.4370 0.4643
C10 C 0.539(4) 0.450(3) 0.5570(14)
H8 H 0.5898 0.5520 0.5560
C11_2 C 0.768(4) 0.540(3) 0.8582(13)
H9_2 H 0.8267 0.5444 0.8210
C12_2 C 0.832(4) 0.603(3) 0.9122(13)
H10_2 H 0.9333 0.6498 0.9138
C13_2 C 0.619(4) 0.529(3) 0.9633(14)
C14_2 C 0.549(4) 0.456(3) 0.9060(13)
H12_2 H 0.4472 0.3980 0.9064
C15_2 C 0.624(4) 0.467(3) 0.8488(14)
C16_2 C 0.396(3) 0.327(2) 0.7838(14)
C17_2 C 0.336(3) 0.416(2) 0.7846(13)
H13_2 H 0.3937 0.5160 0.7926
C18_2 C 0.194(3) 0.358(2) 0.7740(14)
H14_2 H 0.1554 0.4203 0.7718
C19_2 C 0.156(3) 0.135(2) 0.7855(13)
H15_2 H 0.0898 0.0388 0.7987
C20_2 C 0.301(4) 0.180(3) 0.7875(14)
H16_2 H 0.3336 0.1129 0.7912
C21_2 C 0.627(4) 0.376(3) 0.7309(11)
H17_2 H 0.7297 0.4174 0.7425
H18_2 H 0.5869 0.2727 0.7204
N3 N 0.758(2) 0.149(3) 0.8279(12)
C6_2 C 0.618(3) 0.161(3) 0.9488(15)
C7_2 C 0.777(2) 0.227(3) 0.9451(14)
H5_2 H 0.8346 0.2702 0.9841
C8_2 C 0.836(3) 0.225(3) 0.8853(14)
H6_2 H 0.9382 0.2790 0.8818
C9_2 C 0.620(3) 0.087(3) 0.8355(15)
H7_2 H 0.5630 0.0349 0.7976
C10_2 C 0.550(3) 0.089(3) 0.8903(14)
H8_2 H 0.4480 0.0378 0.8893
Ag4 Ag 0.86906(23) 0.13106(17) 0.73136(15)
N1_3 N 0.107(2) 0.889(2) 0.0307(12)
N6_2 N 0.782(2) 0.8858(19) 0.0997(11)
C1_3 C 0.340(2) 0.927(2) 0.0105(16)
H1_3 H 0.4003 0.8873 0.0023
C2_3 C 0.197(2) 0.838(2) 0.0225(17)
H2_3 H 0.1609 0.7376 0.0252
C17_3 C 0.584(2) 0.920(2) 0.1179(13)
H13_3 H 0.4840 0.8777 0.1259
C18_3 C 0.642(2) 0.836(2) 0.1073(14)
H14_3 H 0.5797 0.7351 0.1051
Ag2 Ag 0.86894(17) 0.73800(16) 0.06469(15)
N7_2 N 0.851(3) 0.609(4) 0.1612(12)
N2_3 N 0.8334(17) 0.3874(26) 0.3417(11)
N4_2 N 0.848(3) 0.242(4) 0.6357(12)
N5_3 N 0.8391(16) 0.4475(24) 0.4527(10)
C3_3 C 0.970(2) 0.137(4) 0.3672(15)
H3_3 H 0.9280 0.0373 0.3763
C4_3 C 0.878(2) 0.198(4) 0.3571(16)
H4_3 H 0.7765 0.1399 0.3605
C5_3 C 0.937(2) 0.330(4) 0.3436(17)
C6_3 C 0.839(3) 0.457(4) 0.2821(15)
C7_3 C 0.773(3) 0.550(4) 0.2784(14)
H5_3 H 0.7298 0.5644 0.3174
C8_3 C 0.775(3) 0.611(4) 0.2186(14)
H6_3 H 0.7210 0.6592 0.2151
C9_3 C 0.913(3) 0.533(4) 0.1688(15)
H7_3 H 0.9651 0.5281 0.1309
C10_3 C 0.911(3) 0.461(4) 0.2236(14)
H8_3 H 0.9622 0.4102 0.2226
C11_3 C 0.772(3) 0.232(4) 0.5248(13)
H9_3 H 0.7177 0.1733 0.4876
C12_3 C 0.771(3) 0.168(4) 0.5788(13)
H10_3 H 0.7165 0.0667 0.5804
C13_3 C 0.910(3) 0.381(4) 0.6299(14)
H11_2 H 0.9604 0.4371 0.6682
C14_3 C 0.907(3) 0.451(4) 0.5726(13)
H12_3 H 0.9508 0.5528 0.5730
C15_3 C 0.843(3) 0.376(4) 0.5154(14)
C16_3 C 0.931(2) 0.604(3) 0.4504(14)
C19_3 C 0.979(2) 0.844(3) 0.4521(13)
H15_3 H 0.9490 0.9102 0.4653
C20_3 C 0.879(2) 0.699(4) 0.4541(14)
H16_3 H 0.7793 0.6664 0.4578
C21_3 C 0.749(2) 0.373(4) 0.3975(11)
H17_3 H 0.6877 0.2703 0.4091
H18_3 H 0.6858 0.4131 0.3870
H11_3 H 0.5629 0.5233 0.0016
C22 C 0.194(5) 0.463(5) 0.022(4)
F3 F 0.078(2) 0.465(2) 0.0229(16)
O1 O 0.149(2) 0.347(2) 0.139(2)
O2 O 0.275(2) 0.5910(19) 0.138(2)
O3 O 0.389(2) 0.465(2) 0.109(2)
S1 S 0.2444(12) 0.4667(9) 0.0787(12)
F1 F 0.201(2) 0.348(2) 0.9933(15)
F2 F 0.324(2) 0.596(2) 0.9937(18)
C22_2 C 0.537(5) 0.731(7) 0.355(4)
F1_2 F 0.652(2) 0.853(3) 0.3266(15)
F2_2 F 0.404(2) 0.728(3) 0.3270(18)
F3_2 F 0.535(2) 0.613(3) 0.3562(16)
O1_2 O 0.653(2) 0.802(3) 0.472(2)
O2_2 O 0.4090(19) 0.6840(28) 0.471(2)
O3_2 O 0.535(2) 0.924(3) 0.442(2)
S1_2 S 0.5333(9) 0.7777(15) 0.4120(12)
C22_3 C 0.269(7) 0.806(5) 0.689(4)
F1_3 F 0.147(3) 0.799(2) 0.6600(15)
F2_3 F 0.272(3) 0.676(2) 0.6604(18)
F3_3 F 0.387(3) 0.922(2) 0.6896(16)
O1_3 O 0.198(3) 0.851(2) 0.806(2)
O2_3 O 0.3160(28) 0.725(2) 0.805(2)
O3_3 O 0.076(3) 0.611(2) 0.776(2)
S1_3 S 0.2223(15) 0.7556(12) 0.7454(12)
loop_
_geom_bond_atom_site_label_1
_geom_bond_atom_site_label_2
_geom_bond_site_symmetry_1
_geom_bond_site_symmetry_2
N2 C5 1_555 1_555
N4 C12 1_555 1_555
N5 C15 1_555 1_555
H3 C3 1_555 1_555
C4 C3 1_555 1_555
H4 C4 1_555 1_555
C11 H9 1_555 1_555
C12 C11 1_555 1_555
H10 C12 1_555 1_555
C13 N4 1_555 1_555
H11 C13 1_555 1_555
C14 C13 1_555 1_555
H12 C14 1_555 1_555
C15 C11 1_555 1_555
C16 N5 1_555 1_555
H15 C19 1_555 1_555
C20 C16 1_555 1_555
H16 C20 1_555 1_555
C21 N2 1_555 1_555
H17 C21 1_555 1_555
H18 C21 1_555 1_555
Ag3 N4 1_555 1_555
N5 C21 1_555 1_555
C4 C5 1_555 1_555
C14 C15 1_555 1_555
C19 C20 1_555 1_555
Ag3 N1 1_555 1_555
N1 C2 1_555 1_555
N6 C18 1_555 1_555
C1 H1 1_555 1_555
C2 C1 1_555 1_555
H2 C2 1_555 1_555
H13 C17 1_555 1_555
C18 C17 1_555 1_555
H14 C18 1_555 1_555
N7 Ag3 1_555 1_555
N1_2 C2_2 1_555 1_555
N2_2 C5_2 1_555 1_555
N7 C8 1_555 1_555
N8 C12_2 1_555 1_555
N5_2 C15_2 1_555 1_555
N9 C18_2 1_555 1_555
C1_2 H1_2 1_555 1_555
C2_2 C1_2 1_555 1_555
H2_2 C2_2 1_555 1_555
C3_2 N1_2 1_555 1_555
H3_2 C3_2 1_555 1_555
C4_2 C3_2 1_555 1_555
H4_2 C4_2 1_555 1_555
C5_2 C1_2 1_555 1_555
C6 N2_2 1_555 1_555
C7 C6 1_555 1_555
H5 C7 1_555 1_555
C8 C7 1_555 1_555
H6 C8 1_555 1_555
C9 N7 1_555 1_555
H7 C9 1_555 1_555
C10 C6 1_555 1_555
H8 C10 1_555 1_555
C11_2 H9_2 1_555 1_555
C12_2 C11_2 1_555 1_555
H10_2 C12_2 1_555 1_555
C13_2 N8 1_555 1_555
C14_2 C13_2 1_555 1_555
H12_2 C14_2 1_555 1_555
C15_2 C11_2 1_555 1_555
C16_2 N5_2 1_555 1_555
C17_2 C16_2 1_555 1_555
H13_2 C17_2 1_555 1_555
C18_2 C17_2 1_555 1_555
H14_2 C18_2 1_555 1_555
C19_2 N9 1_555 1_555
H15_2 C19_2 1_555 1_555
C20_2 C16_2 1_555 1_555
H16_2 C20_2 1_555 1_555
C21_2 N2_2 1_555 1_555
H17_2 C21_2 1_555 1_555
H18_2 C21_2 1_555 1_555
N5_2 C21_2 1_555 1_555
C4_2 C5_2 1_555 1_555
C9 C10 1_555 1_555
C14_2 C15_2 1_555 1_555
C19_2 C20_2 1_555 1_555
N3 C8_2 1_555 1_555
C7_2 C6_2 1_555 1_555
H5_2 C7_2 1_555 1_555
C8_2 C7_2 1_555 1_555
H6_2 C8_2 1_555 1_555
C9_2 N3 1_555 1_555
H7_2 C9_2 1_555 1_555
C10_2 C6_2 1_555 1_555
H8_2 C10_2 1_555 1_555
Ag4 N3 1_555 1_555
C9_2 C10_2 1_555 1_555
N1_3 C2_3 1_555 1_555
N6_2 C18_3 1_555 1_555
C1_3 H1_3 1_555 1_555
C2_3 C1_3 1_555 1_555
H2_3 C2_3 1_555 1_555
H13_3 C17_3 1_555 1_555
C18_3 C17_3 1_555 1_555
H14_3 C18_3 1_555 1_555
Ag2 N6_2 1_555 1_555
N7_2 Ag2 1_555 1_555
N2_3 C5_3 1_555 1_555
N7_2 C8_3 1_555 1_555
N4_2 C12_3 1_555 1_555
N5_3 C15_3 1_555 1_555
H3_3 C3_3 1_555 1_555
C4_3 C3_3 1_555 1_555
H4_3 C4_3 1_555 1_555
C6_3 N2_3 1_555 1_555
C7_3 C6_3 1_555 1_555
H5_3 C7_3 1_555 1_555
C8_3 C7_3 1_555 1_555
H6_3 C8_3 1_555 1_555
C9_3 N7_2 1_555 1_555
H7_3 C9_3 1_555 1_555
C10_3 C6_3 1_555 1_555
H8_3 C10_3 1_555 1_555
C11_3 H9_3 1_555 1_555
C12_3 C11_3 1_555 1_555
H10_3 C12_3 1_555 1_555
C13_3 N4_2 1_555 1_555
H11_2 C13_3 1_555 1_555
C14_3 C13_3 1_555 1_555
H12_3 C14_3 1_555 1_555
C15_3 C11_3 1_555 1_555
C16_3 N5_3 1_555 1_555
H15_3 C19_3 1_555 1_555
C20_3 C16_3 1_555 1_555
H16_3 C20_3 1_555 1_555
C21_3 N2_3 1_555 1_555
H17_3 C21_3 1_555 1_555
H18_3 C21_3 1_555 1_555
Ag4 N4_2 1_555 1_555
N5_3 C21_3 1_555 1_555
C4_3 C5_3 1_555 1_555
C9_3 C10_3 1_555 1_555
C14_3 C15_3 1_555 1_555
C19_3 C20_3 1_555 1_555
F3 C22 1_555 1_555
O1 S1 1_555 1_555
O2 S1 1_555 1_555
O3 S1 1_555 1_555
S1 C22 1_555 1_555
C22_2 F1_2 1_555 1_555
F2_2 C22_2 1_555 1_555
F3_2 C22_2 1_555 1_555
O1_2 S1_2 1_555 1_555
O2_2 S1_2 1_555 1_555
O3_2 S1_2 1_555 1_555
S1_2 C22_2 1_555 1_555
C22_3 F1_3 1_555 1_555
F2_3 C22_3 1_555 1_555
F3_3 C22_3 1_555 1_555
O1_3 S1_3 1_555 1_555
O2_3 S1_3 1_555 1_555
O3_3 S1_3 1_555 1_555
S1_3 C22_3 1_555 1_555

#END
