
###############################################################################
#
# This file contains modified crystal structure data generated from the
# MOF subset of the Cambridge Structural Database (CSD) v543 
# hosted by the Cambridge Crystallographic Data Centre (CCDC).
#
# This work is licensed under the Creative Commons
# Attribution-NonCommercial-ShareAlike 4.0 International License.
# To view a copy of this license, visit
# http://creativecommons.org/licenses/by-nc-sa/4.0/
# or send a letter to
# Creative Commons, PO Box 1866, Mountain View, CA 94042, USA.
#
# CIF created using the CSD Python API on 29 September 2022
# The structure has been converted into the P1 space group
# The structure has a 3D framework
# The original CSD entry RAPFOG is in the trigonal crystal system
# The original CSD entry RAPFOG is in a Sohncke space group
# The framework has been calculated to contain at least 10.0% void space
# The void calculation uses a probe of radius 1.32A, grid spacing 0.4
# The framework is charged, counterions have been retained in the structure
#
###############################################################################

data_RAPFOG
_chemical_formula_moiety         '(C63 H54 Ag2 N21 O9 1-)n'
_symmetry_cell_setting           triclinic
_symmetry_space_group_name_H-M   'P 1'
_symmetry_Int_Tables_number      1
_space_group_name_Hall           'P 1'
loop_
_symmetry_equiv_pos_site_id
_symmetry_equiv_pos_as_xyz
1 x,y,z
_cell_length_a                   10.3870(4)
_cell_length_b                   10.3870(4)
_cell_length_c                   20.9582(15)
_cell_angle_alpha                90
_cell_angle_beta                 90
_cell_angle_gamma                120
_cell_volume                     1958.24
loop_
_atom_site_label
_atom_site_type_symbol
_atom_site_fract_x
_atom_site_fract_y
_atom_site_fract_z
N3 N 0.037(2) 0.5870(16) 0.5606(7)
N6 N 0.0397(15) 0.1978(15) 0.8130(5)
C7 C 0.077(2) 0.378(2) 0.5739(8)
H5 H 0.1381 0.3430 0.5914
C8 C 0.101(2) 0.521(2) 0.5884(9)
H6 H 0.1699 0.5741 0.6215
C17 C 0.0659(19) 0.169(2) 0.7007(7)
H13 H 0.1305 0.1818 0.6661
C18 C 0.123(3) 0.213(3) 0.7645(9)
H14 H 0.2270 0.2545 0.7713
H18 H 0.0378 0.0977 0.5867
Ag3 Ag 0.14526(12) 0.84906(18) 0.57335(5)
Ag4 Ag 0.15094(18) 0.29620(13) 0.90669(5)
Ag1 Ag 0.70380(13) 0.85474(12) 0.24002(5)
N1 N 0.7879(14) 0.9544(14) 0.3353(5)
N5 N 0.3991(18) 0.9211(19) 0.5922(6)
C1 C 0.794(3) 0.9258(19) 0.4494(8)
H1 H 0.7626 0.8590 0.4845
C2 C 0.755(2) 0.871(3) 0.3889(9)
H2 H 0.7009 0.7657 0.3840
C13 C 0.462(2) 0.841(3) 0.5809(9)
H11 H 0.4016 0.7466 0.5615
C14 C 0.605(2) 0.877(2) 0.5939(8)
H12 H 0.6394 0.8096 0.5853
H17 H 0.8917 0.9517 0.5623
N7 N 0.5500(26) 0.963(2) 0.2273(7)
N8 N 0.5220(26) 0.6009(18) 0.2589(6)
N9 N 0.8022(15) 0.8419(21) 0.1463(5)
N1_2 N 0.0456(14) 0.8335(20) 0.6686(5)
N5_2 N 0.0789(19) 0.4780(26) 0.9255(6)
C1_2 C 0.0742(19) 0.8682(36) 0.7827(8)
H1_2 H 0.1410 0.9036 0.8178
C2_2 C 0.129(3) 0.884(4) 0.7222(9)
H2_2 H 0.2343 0.9352 0.7173
C13_2 C 0.159(3) 0.621(4) 0.9142(9)
H11_2 H 0.2534 0.6550 0.8948
C14_2 C 0.123(2) 0.728(3) 0.9272(8)
H12_2 H 0.1904 0.8298 0.9186
H17_2 H 0.0483 0.9400 0.8956
N9_2 N 0.1581(21) 0.9603(26) 0.4797(5)
C16 C 0.8926(17) 0.8079(25) 0.0242(6)
C17_2 C 0.831(2) 0.8969(28) 0.0340(7)
C18_2 C 0.787(3) 0.910(4) 0.0978(9)
H14_2 H 0.7455 0.9725 0.1046
C19 C 0.8672(18) 0.7635(25) 0.1360(7)
H15 H 0.8846 0.7182 0.1718
C20 C 0.9121(17) 0.7420(23) 0.0773(6)
H16 H 0.9566 0.6816 0.0734
N2 N 0.8574(14) 0.7788(21) 0.8533(5)
N3_2 N 0.4130(16) 0.4500(26) 0.8939(7)
N4 N 0.9367(15) 0.7884(21) 0.9627(6)
C3 C 0.8964(18) 0.7655(25) 0.6794(7)
H3 H 0.8317 0.7298 0.6436
C4 C 0.8341(16) 0.7458(23) 0.7390(6)
H4 H 0.7289 0.6945 0.7430
C5 C 0.9216(17) 0.7992(24) 0.7939(6)
C6 C 0.7093(18) 0.6706(26) 0.8670(7)
C7_2 C 0.622(2) 0.699(3) 0.9072(8)
H5_2 H 0.6570 0.7951 0.9247
C8_2 C 0.479(2) 0.580(3) 0.9217(9)
H6_2 H 0.4259 0.5958 0.9548
C9 C 0.502(2) 0.425(3) 0.8582(8)
H7 H 0.4638 0.3292 0.8404
C10 C 0.6466(19) 0.5282(27) 0.8445(7)
H8 H 0.7042 0.5003 0.8189
C11 C 0.8882(19) 0.5317(27) 0.9666(8)
H9 H 0.7914 0.4961 0.9836
C12 C 0.946(2) 0.438(3) 0.9530(8)
H10 H 0.8852 0.3362 0.9642
C15 C 0.9854(17) 0.6823(23) 0.9531(7)
H13_2 H 0.8182 0.9487 0.9994
C21 C 0.9433(19) 0.8753(28) 0.9084(8)
H18_2 H 0.9023 0.9401 0.9200
N1_3 N 0.1665(20) 0.2121(14) 0.0020(5)
N2_2 N 0.2212(21) 0.0786(15) 0.1867(5)
N4_2 N 0.2116(21) 0.1483(14) 0.2961(6)
C1_3 C 0.1318(36) 0.206(3) 0.1161(8)
H1_3 H 0.0964 0.2374 0.1512
C2_3 C 0.116(4) 0.245(2) 0.0556(9)
H2_3 H 0.0648 0.2991 0.0507
C3_2 C 0.2345(25) 0.1309(17) 0.0128(7)
C4_2 C 0.2542(23) 0.0883(16) 0.0724(6)
H4_2 H 0.3055 0.0344 0.0764
C5_2 C 0.2008(24) 0.1224(17) 0.1273(6)
C6_2 C 0.3294(26) 0.0387(19) 0.2004(7)
C9_2 C 0.575(3) 0.077(2) 0.1916(8)
H7_2 H 0.6708 0.1346 0.1738
C10_2 C 0.4718(27) 0.1184(19) 0.1779(7)
H8_2 H 0.4997 0.2039 0.1523
C11_2 C 0.4683(27) 0.3565(19) 0.3000(8)
H9_2 H 0.5039 0.2953 0.3170
C12_2 C 0.562(3) 0.508(2) 0.2864(8)
H10_2 H 0.6638 0.5490 0.2976
C13_3 C 0.379(4) 0.538(2) 0.2476(9)
H11_3 H 0.3450 0.5984 0.2282
C14_3 C 0.272(3) 0.395(2) 0.2606(8)
H12_3 H 0.1702 0.3606 0.2520
C15_2 C 0.3177(23) 0.3031(16) 0.2865(7)
C16_2 C 0.1921(25) 0.0847(18) 0.3576(6)
C19_2 C 0.2365(25) 0.1037(17) 0.4694(7)
H15_2 H 0.2818 0.1664 0.5052
C20_2 C 0.2580(23) 0.1701(16) 0.4107(6)
H16_2 H 0.3184 0.2750 0.4068
C21_2 C 0.1247(28) 0.068(2) 0.2418(8)
H17_3 H 0.0600 0.1083 0.2290
H3_2 H 0.2702 0.1019 0.9770
C7_3 C 0.301(3) 0.923(2) 0.2406(8)
H5_3 H 0.2049 0.8619 0.2581
C8_3 C 0.420(3) 0.899(2) 0.2551(9)
H6_3 H 0.4042 0.8301 0.2882
C17_3 C 0.1031(28) 0.9341(19) 0.3674(7)
H13_3 H 0.0513 0.8695 0.3328
C18_3 C 0.090(4) 0.877(3) 0.4312(9)
H14_3 H 0.0275 0.7730 0.4380
H18_3 H 0.0599 0.9622 0.2534
N2_3 N 0.9214(15) 0.1426(14) 0.5200(5)
N4_3 N 0.8517(14) 0.0633(15) 0.6294(6)
C3_3 C 0.8691(17) 0.1036(18) 0.3461(7)
H3_3 H 0.8981 0.1683 0.3103
C4_3 C 0.9117(16) 0.1659(16) 0.4057(6)
H4_3 H 0.9656 0.2711 0.4097
C5_3 C 0.8776(17) 0.0784(17) 0.4606(6)
C6_3 C 0.9613(19) 0.2907(18) 0.5337(7)
C9_3 C 0.923(2) 0.498(2) 0.5249(8)
H7_3 H 0.8654 0.5362 0.5071
C10_3 C 0.8816(19) 0.3534(19) 0.5112(7)
H8_3 H 0.7961 0.2958 0.4856
C11_3 C 0.6435(19) 0.1118(19) 0.6333(8)
H9_3 H 0.7047 0.2086 0.6503
C12_3 C 0.492(2) 0.054(2) 0.6197(8)
H10_3 H 0.4510 0.1148 0.6309
C15_3 C 0.6969(16) 0.0146(17) 0.6198(7)
C16_3 C 0.9153(18) 0.1074(17) 0.6909(6)
C19_3 C 0.8963(17) 0.1328(18) 0.8027(7)
H15_3 H 0.8336 0.1154 0.8385
C20_3 C 0.8299(16) 0.0879(17) 0.7440(6)
H16_3 H 0.7250 0.0434 0.7401
C21_3 C 0.932(2) 0.0567(19) 0.5751(8)
N10 N 0.591(4) 0.545(4) 0.4964(13)
O1 O 0.670(2) 0.613(2) 0.5362(10)
O2 O 0.615(4) 0.526(3) 0.4451(12)
O3 O 0.445(4) 0.502(4) 0.5175(17)
N10_2 N 0.455(4) 0.046(6) 0.8297(13)
O1_2 O 0.387(2) 0.057(3) 0.8695(10)
O2_2 O 0.474(3) 0.089(5) 0.7784(12)
O3_2 O 0.498(4) 0.943(6) 0.8508(17)
O3_3 O 0.057(6) 0.555(4) 0.1842(17)
N10_3 N 0.954(6) 0.409(4) 0.1631(13)
O1_3 O 0.943(3) 0.330(2) 0.2029(10)
O2_3 O 0.911(5) 0.385(4) 0.1118(12)
loop_
_geom_bond_atom_site_label_1
_geom_bond_atom_site_label_2
_geom_bond_site_symmetry_1
_geom_bond_site_symmetry_2
N3 C8 1_555 1_555
N6 C18 1_555 1_555
H5 C7 1_555 1_555
C8 C7 1_555 1_555
H6 C8 1_555 1_555
H13 C17 1_555 1_555
C18 C17 1_555 1_555
H14 C18 1_555 1_555
Ag3 N3 1_555 1_555
Ag4 N6 1_555 1_555
Ag1 N1 1_555 1_555
N1 C2 1_555 1_555
C1 H1 1_555 1_555
C2 C1 1_555 1_555
H2 C2 1_555 1_555
C13 N5 1_555 1_555
H11 C13 1_555 1_555
C14 C13 1_555 1_555
H12 C14 1_555 1_555
Ag3 N5 1_555 1_555
N7 Ag1 1_555 1_555
N8 Ag1 1_555 1_555
N9 Ag1 1_555 1_555
Ag3 N1_2 1_555 1_555
N1_2 C2_2 1_555 1_555
C1_2 H1_2 1_555 1_555
C2_2 C1_2 1_555 1_555
H2_2 C2_2 1_555 1_555
C13_2 N5_2 1_555 1_555
H11_2 C13_2 1_555 1_555
C14_2 C13_2 1_555 1_555
H12_2 C14_2 1_555 1_555
Ag4 N5_2 1_555 1_555
N9_2 Ag3 1_555 1_555
N9 C18_2 1_555 1_555
C17_2 C16 1_555 1_555
C18_2 C17_2 1_555 1_555
H14_2 C18_2 1_555 1_555
C19 N9 1_555 1_555
H15 C19 1_555 1_555
C20 C16 1_555 1_555
H16 C20 1_555 1_555
C19 C20 1_555 1_555
N2 C5 1_555 1_555
N3_2 C8_2 1_555 1_555
N4 C15 1_555 1_555
H3 C3 1_555 1_555
C4 C3 1_555 1_555
H4 C4 1_555 1_555
C6 N2 1_555 1_555
C7_2 C6 1_555 1_555
H5_2 C7_2 1_555 1_555
C8_2 C7_2 1_555 1_555
H6_2 C8_2 1_555 1_555
C9 N3_2 1_555 1_555
H7 C9 1_555 1_555
C10 C6 1_555 1_555
H8 C10 1_555 1_555
C11 H9 1_555 1_555
C12 C11 1_555 1_555
H10 C12 1_555 1_555
C15 C11 1_555 1_555
C21 N2 1_555 1_555
H18_2 C21 1_555 1_555
Ag4 N3_2 1_555 1_555
N4 C21 1_555 1_555
C4 C5 1_555 1_555
C9 C10 1_555 1_555
N1_3 C2_3 1_555 1_555
N2_2 C5_2 1_555 1_555
N4_2 C15_2 1_555 1_555
N8 C12_2 1_555 1_555
C1_3 H1_3 1_555 1_555
C2_3 C1_3 1_555 1_555
H2_3 C2_3 1_555 1_555
C3_2 N1_3 1_555 1_555
C4_2 C3_2 1_555 1_555
H4_2 C4_2 1_555 1_555
C5_2 C1_3 1_555 1_555
C6_2 N2_2 1_555 1_555
H7_2 C9_2 1_555 1_555
C10_2 C6_2 1_555 1_555
H8_2 C10_2 1_555 1_555
C11_2 H9_2 1_555 1_555
C12_2 C11_2 1_555 1_555
H10_2 C12_2 1_555 1_555
C13_3 N8 1_555 1_555
H11_3 C13_3 1_555 1_555
C14_3 C13_3 1_555 1_555
H12_3 C14_3 1_555 1_555
C15_2 C11_2 1_555 1_555
C16_2 N4_2 1_555 1_555
H15_2 C19_2 1_555 1_555
C20_2 C16_2 1_555 1_555
H16_2 C20_2 1_555 1_555
C21_2 N2_2 1_555 1_555
H17_3 C21_2 1_555 1_555
N4_2 C21_2 1_555 1_555
C4_2 C5_2 1_555 1_555
C9_2 C10_2 1_555 1_555
C14_3 C15_2 1_555 1_555
C19_2 C20_2 1_555 1_555
N7 C8_3 1_555 1_555
N9_2 C18_3 1_555 1_555
H5_3 C7_3 1_555 1_555
C8_3 C7_3 1_555 1_555
H6_3 C8_3 1_555 1_555
H13_3 C17_3 1_555 1_555
C18_3 C17_3 1_555 1_555
H14_3 C18_3 1_555 1_555
N2_3 C5_3 1_555 1_555
N4_3 C15_3 1_555 1_555
H3_3 C3_3 1_555 1_555
C4_3 C3_3 1_555 1_555
H4_3 C4_3 1_555 1_555
C6_3 N2_3 1_555 1_555
H7_3 C9_3 1_555 1_555
C10_3 C6_3 1_555 1_555
H8_3 C10_3 1_555 1_555
C11_3 H9_3 1_555 1_555
C12_3 C11_3 1_555 1_555
H10_3 C12_3 1_555 1_555
C15_3 C11_3 1_555 1_555
C16_3 N4_3 1_555 1_555
H15_3 C19_3 1_555 1_555
C20_3 C16_3 1_555 1_555
H16_3 C20_3 1_555 1_555
C21_3 N2_3 1_555 1_555
N4_3 C21_3 1_555 1_555
C4_3 C5_3 1_555 1_555
C9_3 C10_3 1_555 1_555
C19_3 C20_3 1_555 1_555
N10 O1 1_555 1_555
O2 N10 1_555 1_555
O3 N10 1_555 1_555
N10_2 O1_2 1_555 1_555
O2_2 N10_2 1_555 1_555
N10_3 O1_3 1_555 1_555
O2_3 N10_3 1_555 1_555

#END
