
###############################################################################
#
# This file contains modified crystal structure data generated from the
# MOF subset of the Cambridge Structural Database (CSD) v543 
# hosted by the Cambridge Crystallographic Data Centre (CCDC).
#
# This work is licensed under the Creative Commons
# Attribution-NonCommercial-ShareAlike 4.0 International License.
# To view a copy of this license, visit
# http://creativecommons.org/licenses/by-nc-sa/4.0/
# or send a letter to
# Creative Commons, PO Box 1866, Mountain View, CA 94042, USA.
#
# CIF created using the CSD Python API on 29 September 2022
# The structure has been converted into the P1 space group
# The structure has a 3D framework
# The original CSD entry RAPPOR is in the orthorhombic crystal system
# The framework has been calculated to contain at least 10.0% void space
# The void calculation uses a probe of radius 1.32A, grid spacing 0.4
#
###############################################################################

data_RAPPOR
_chemical_formula_moiety         '(C96 H96 F24 N16 Si4 Zn4)n'
_symmetry_cell_setting           triclinic
_symmetry_space_group_name_H-M   'P 1'
_symmetry_Int_Tables_number      1
_space_group_name_Hall           'P 1'
loop_
_symmetry_equiv_pos_site_id
_symmetry_equiv_pos_as_xyz
1 x,y,z
_cell_length_a                   15.2206(6)
_cell_length_b                   16.7157(9)
_cell_length_c                   21.0888(10)
_cell_angle_alpha                90
_cell_angle_beta                 90
_cell_angle_gamma                90
_cell_volume                     5365.48
loop_
_atom_site_label
_atom_site_type_symbol
_atom_site_fract_x
_atom_site_fract_y
_atom_site_fract_z
Zn4 Zn 0.500000 0.000000 0.03119(12)
Zn1 Zn 0.500000 0.500000 0.53119(12)
Si1 Si 0.250000 0.4910(4) 0.5385(3)
F1 F 0.250000 0.4794(8) 0.6165(5)
N1 N 0.5002(6) 0.4187(6) 0.4621(4)
C1 C 0.5626(6) 0.3580(7) 0.4613(4)
H1 H 0.609283 0.358225 0.491217
C2 C 0.5566(7) 0.2968(6) 0.4169(5)
H2 H 0.599218 0.255328 0.416335
C3 C 0.4883(7) 0.2965(6) 0.3731(5)
C4 C 0.4259(6) 0.3572(7) 0.3739(4)
H3 H 0.379187 0.356940 0.344016
C5 C 0.4319(6) 0.4183(6) 0.4184(4)
H4 H 0.389250 0.459837 0.418897
F2 F 0.250000 0.4035(6) 0.5288(5)
F3 F 0.250000 0.5182(7) 0.4642(5)
F4 F 0.250000 0.5878(6) 0.5602(5)
F5 F 0.3602(5) 0.4838(4) 0.5389(4)
C6 C 0.4763(12) 0.2329(12) 0.3177(8)
H5 H 0.414093 0.216170 0.313814
H6 H 0.513044 0.184929 0.325187
C7 C 0.5080(12) 0.2801(13) 0.2555(8)
H7 H 0.568420 0.301288 0.259824
H8 H 0.467247 0.323795 0.243691
C8 C 0.5026(8) 0.2035(7) 0.2060(4)
C9 C 0.5702(7) 0.1481(8) 0.2007(5)
H9 H 0.614900 0.145845 0.232089
C10 C 0.5725(6) 0.0958(7) 0.1494(6)
H10 H 0.618697 0.057872 0.145822
N2 N 0.5071(7) 0.0990(6) 0.1035(4)
C11 C 0.4395(6) 0.1545(7) 0.1088(4)
H11 H 0.394825 0.156730 0.077349
C12 C 0.4372(7) 0.2068(6) 0.1600(5)
H12 H 0.391027 0.244704 0.163616
F6 F 0.1398(5) 0.4838(4) 0.5389(4)
N3 N 0.4998(6) 0.5813(6) 0.4621(4)
C13 C 0.4374(6) 0.6420(7) 0.4613(4)
H13 H 0.390717 0.641775 0.491217
C14 C 0.4434(7) 0.7032(6) 0.4169(5)
H14 H 0.400782 0.744672 0.416335
C15 C 0.5117(7) 0.7035(6) 0.3731(5)
C16 C 0.5741(6) 0.6428(7) 0.3739(4)
H15 H 0.620813 0.643060 0.344016
C17 C 0.5681(6) 0.5817(6) 0.4184(4)
H16 H 0.610750 0.540163 0.418897
C18 C 0.5237(12) 0.7671(12) 0.3177(8)
H17 H 0.585907 0.783830 0.313814
H18 H 0.486956 0.815071 0.325187
C19 C 0.4920(12) 0.7199(13) 0.2555(8)
H19 H 0.431580 0.698712 0.259824
H20 H 0.532753 0.676205 0.243691
C20 C 0.4974(8) 0.7965(7) 0.2060(4)
C21 C 0.4298(7) 0.8519(8) 0.2007(5)
H21 H 0.385100 0.854155 0.232089
C22 C 0.4275(6) 0.9042(7) 0.1494(6)
H22 H 0.381303 0.942128 0.145822
N4 N 0.4929(7) 0.9010(6) 0.1035(4)
C23 C 0.5605(6) 0.8455(7) 0.1088(4)
H23 H 0.605175 0.843270 0.077349
C24 C 0.5628(7) 0.7932(6) 0.1600(5)
H24 H 0.608973 0.755296 0.163616
Zn2 Zn 0.000000 0.500000 0.53119(12)
Zn4_2 Zn 0.500000 1.000000 0.03119(12)
F7 F 0.6398(5) 0.5162(4) 0.5389(4)
N5 N 0.4929(7) 0.5990(6) 0.6035(4)
N6 N 0.5071(7) 0.4010(6) 0.6035(4)
Zn2_2 Zn 1.000000 0.500000 0.53119(12)
Si1_2 Si 0.750000 0.5090(4) 0.5385(3)
F1_2 F 0.750000 0.5206(8) 0.6165(5)
F2_2 F 0.750000 0.5965(6) 0.5288(5)
F3_2 F 0.750000 0.4818(7) 0.4642(5)
F4_2 F 0.750000 0.4122(6) 0.5602(5)
F6_2 F 0.8602(5) 0.5162(4) 0.5389(4)
Zn4_3 Zn 0.000000 0.000000 0.03119(12)
C3_2 C 0.0117(7) 0.2965(6) 0.3731(5)
C4_2 C 0.0741(6) 0.3572(7) 0.3739(4)
H3_2 H 0.120813 0.356940 0.344016
C5_2 C 0.0681(6) 0.4183(6) 0.4184(4)
H4_2 H 0.110750 0.459837 0.418897
C6_2 C 0.0237(12) 0.2329(12) 0.3177(8)
H5_2 H 0.085907 0.216170 0.313814
H8_2 H 0.032753 0.323795 0.243691
C11_2 C 0.0605(6) 0.1545(7) 0.1088(4)
H11_2 H 0.105175 0.156730 0.077349
C12_2 C 0.0628(7) 0.2068(6) 0.1600(5)
H12_2 H 0.108973 0.244704 0.163616
N3_2 N 0.0002(6) 0.5813(6) 0.4621(4)
C13_2 C 0.0626(6) 0.6420(7) 0.4613(4)
H13_2 H 0.109283 0.641775 0.491217
C14_2 C 0.0566(7) 0.7032(6) 0.4169(5)
H14_2 H 0.099218 0.744672 0.416335
H18_2 H 0.013044 0.815071 0.325187
C19_2 C 0.0080(12) 0.7199(13) 0.2555(8)
H19_2 H 0.068420 0.698712 0.259824
C20_2 C 0.0026(8) 0.7965(7) 0.2060(4)
C21_2 C 0.0702(7) 0.8519(8) 0.2007(5)
H21_2 H 0.114900 0.854155 0.232089
C22_2 C 0.0725(6) 0.9042(7) 0.1494(6)
H22_2 H 0.118697 0.942128 0.145822
N4_2 N 0.0071(7) 0.9010(6) 0.1035(4)
Zn4_4 Zn 0.000000 1.000000 0.03119(12)
N5_2 N 0.0071(7) 0.5990(6) 0.6035(4)
Zn4_5 Zn 1.000000 0.000000 0.03119(12)
N1_2 N 0.9998(6) 0.4187(6) 0.4621(4)
C1_2 C 0.9374(6) 0.3580(7) 0.4613(4)
H1_2 H 0.890717 0.358225 0.491217
C2_2 C 0.9434(7) 0.2968(6) 0.4169(5)
H2_2 H 0.900782 0.255328 0.416335
H6_2 H 0.986956 0.184929 0.325187
C7_2 C 0.9920(12) 0.2801(13) 0.2555(8)
H7_2 H 0.931580 0.301288 0.259824
C8_2 C 0.9974(8) 0.2035(7) 0.2060(4)
C9_2 C 0.9298(7) 0.1481(8) 0.2007(5)
H9_2 H 0.885100 0.145845 0.232089
C10_2 C 0.9275(6) 0.0958(7) 0.1494(6)
H10_2 H 0.881303 0.057872 0.145822
N2_2 N 0.9929(7) 0.0990(6) 0.1035(4)
C15_2 C 0.9883(7) 0.7035(6) 0.3731(5)
C16_2 C 0.9259(6) 0.6428(7) 0.3739(4)
H15_2 H 0.879187 0.643060 0.344016
C17_2 C 0.9319(6) 0.5817(6) 0.4184(4)
H16_2 H 0.889250 0.540163 0.418897
C18_2 C 0.9763(12) 0.7671(12) 0.3177(8)
H17_2 H 0.914093 0.783830 0.313814
H20_2 H 0.967247 0.676205 0.243691
C23_2 C 0.9395(6) 0.8455(7) 0.1088(4)
H23_2 H 0.894825 0.843270 0.077349
C24_2 C 0.9372(7) 0.7932(6) 0.1600(5)
H24_2 H 0.891027 0.755296 0.163616
Zn4_6 Zn 1.000000 1.000000 0.03119(12)
N6_2 N 0.9929(7) 0.4010(6) 0.6035(4)
F7_2 F 0.1398(5) 0.0162(4) 0.0389(4)
C15_3 C 0.0117(7) 0.2035(6) 0.8731(5)
C16_3 C 0.0741(6) 0.1428(7) 0.8739(4)
H15_3 H 0.120813 0.143060 0.844016
C17_3 C 0.0681(6) 0.0817(6) 0.9184(4)
H16_3 H 0.110750 0.040163 0.918897
C18_3 C 0.0237(12) 0.2671(12) 0.8177(8)
H17_3 H 0.085907 0.283830 0.813814
H20_3 H 0.032753 0.176205 0.743691
C23_3 C 0.0605(6) 0.3455(7) 0.6088(4)
H23_3 H 0.105175 0.343270 0.577349
C24_3 C 0.0628(7) 0.2932(6) 0.6600(5)
H24_3 H 0.108973 0.255296 0.663616
N1_3 N 0.0002(6) 0.9187(6) 0.9621(4)
C1_3 C 0.0626(6) 0.8580(7) 0.9613(4)
H1_3 H 0.109283 0.858225 0.991217
C2_3 C 0.0566(7) 0.7968(6) 0.9169(5)
H2_3 H 0.099218 0.755328 0.916335
H6_3 H 0.013044 0.684929 0.825187
C7_3 C 0.0080(12) 0.7801(13) 0.7555(8)
H7_3 H 0.068420 0.801288 0.759824
C8_3 C 0.0026(8) 0.7035(7) 0.7060(4)
C9_3 C 0.0702(7) 0.6481(8) 0.7007(5)
H9_3 H 0.114900 0.645845 0.732089
C10_3 C 0.0725(6) 0.5958(7) 0.6494(6)
H10_3 H 0.118697 0.557872 0.645822
F4_3 F 0.750000 0.0878(6) 0.0602(5)
F3_3 F 0.750000 0.0182(7) 0.9642(5)
N3_3 N 0.9998(6) 0.0813(6) 0.9621(4)
C13_3 C 0.9374(6) 0.1420(7) 0.9613(4)
H13_3 H 0.890717 0.141775 0.991217
C14_3 C 0.9434(7) 0.2032(6) 0.9169(5)
H14_3 H 0.900782 0.244672 0.916335
H18_3 H 0.986956 0.315071 0.825187
C19_3 C 0.9920(12) 0.2199(13) 0.7555(8)
H19_3 H 0.931580 0.198712 0.759824
C20_3 C 0.9974(8) 0.2965(7) 0.7060(4)
C21_3 C 0.9298(7) 0.3519(8) 0.7007(5)
H21_3 H 0.885100 0.354155 0.732089
C22_3 C 0.9275(6) 0.4042(7) 0.6494(6)
H22_3 H 0.881303 0.442128 0.645822
Si1_3 Si 0.750000 0.9910(4) 0.0385(3)
F1_3 F 0.750000 0.9794(8) 0.1165(5)
F2_3 F 0.750000 0.9035(6) 0.0288(5)
F5_2 F 0.8602(5) 0.9838(4) 0.0389(4)
F6_3 F 0.6398(5) 0.9838(4) 0.0389(4)
C3_3 C 0.9883(7) 0.7965(6) 0.8731(5)
C4_3 C 0.9259(6) 0.8572(7) 0.8739(4)
H3_3 H 0.879187 0.856940 0.844016
C5_3 C 0.9319(6) 0.9183(6) 0.9184(4)
H4_3 H 0.889250 0.959837 0.918897
C6_3 C 0.9763(12) 0.7329(12) 0.8177(8)
H5_3 H 0.914093 0.716170 0.813814
H8_3 H 0.967247 0.823795 0.743691
C11_3 C 0.9395(6) 0.6545(7) 0.6088(4)
H11_3 H 0.894825 0.656730 0.577349
C12_3 C 0.9372(7) 0.7068(6) 0.6600(5)
H12_3 H 0.891027 0.744704 0.663616
Si1_4 Si 0.250000 0.0090(4) 0.0385(3)
F1_4 F 0.250000 0.0206(8) 0.1165(5)
F2_4 F 0.250000 0.0965(6) 0.0288(5)
F6_4 F 0.3602(5) 0.0162(4) 0.0389(4)
F4_4 F 0.250000 0.9122(6) 0.0602(5)
F3_4 F 0.250000 0.9818(7) 0.9642(5)
N3_4 N 0.5002(6) 0.0813(6) 0.9621(4)
C13_4 C 0.5626(6) 0.1420(7) 0.9613(4)
H13_4 H 0.609283 0.141775 0.991217
C14_4 C 0.5566(7) 0.2032(6) 0.9169(5)
H14_4 H 0.599218 0.244672 0.916335
C15_4 C 0.4883(7) 0.2035(6) 0.8731(5)
C16_4 C 0.4259(6) 0.1428(7) 0.8739(4)
H15_4 H 0.379187 0.143060 0.844016
C17_4 C 0.4319(6) 0.0817(6) 0.9184(4)
H16_4 H 0.389250 0.040163 0.918897
C18_4 C 0.4763(12) 0.2671(12) 0.8177(8)
H17_4 H 0.414093 0.283830 0.813814
H18_4 H 0.513044 0.315071 0.825187
C19_4 C 0.5080(12) 0.2199(13) 0.7555(8)
H19_4 H 0.568420 0.198712 0.759824
H20_4 H 0.467247 0.176205 0.743691
C20_4 C 0.5026(8) 0.2965(7) 0.7060(4)
C21_4 C 0.5702(7) 0.3519(8) 0.7007(5)
H21_4 H 0.614900 0.354155 0.732089
C22_4 C 0.5725(6) 0.4042(7) 0.6494(6)
H22_4 H 0.618697 0.442128 0.645822
C23_4 C 0.4395(6) 0.3455(7) 0.6088(4)
H23_4 H 0.394825 0.343270 0.577349
C24_4 C 0.4372(7) 0.2932(6) 0.6600(5)
H24_4 H 0.391027 0.255296 0.663616
N1_4 N 0.4998(6) 0.9187(6) 0.9621(4)
C1_4 C 0.4374(6) 0.8580(7) 0.9613(4)
H1_4 H 0.390717 0.858225 0.991217
C2_4 C 0.4434(7) 0.7968(6) 0.9169(5)
H2_4 H 0.400782 0.755328 0.916335
C3_4 C 0.5117(7) 0.7965(6) 0.8731(5)
C4_4 C 0.5741(6) 0.8572(7) 0.8739(4)
H3_4 H 0.620813 0.856940 0.844016
C5_4 C 0.5681(6) 0.9183(6) 0.9184(4)
H4_4 H 0.610750 0.959837 0.918897
C6_4 C 0.5237(12) 0.7329(12) 0.8177(8)
H5_4 H 0.585907 0.716170 0.813814
H6_4 H 0.486956 0.684929 0.825187
C7_4 C 0.4920(12) 0.7801(13) 0.7555(8)
H7_4 H 0.431580 0.801288 0.759824
H8_4 H 0.532753 0.823795 0.743691
C8_4 C 0.4974(8) 0.7035(7) 0.7060(4)
C9_4 C 0.4298(7) 0.6481(8) 0.7007(5)
H9_4 H 0.385100 0.645845 0.732089
C10_4 C 0.4275(6) 0.5958(7) 0.6494(6)
H10_4 H 0.381303 0.557872 0.645822
C11_4 C 0.5605(6) 0.6545(7) 0.6088(4)
H11_4 H 0.605175 0.656730 0.577349
C12_4 C 0.5628(7) 0.7068(6) 0.6600(5)
H12_4 H 0.608973 0.744704 0.663616
loop_
_geom_bond_atom_site_label_1
_geom_bond_atom_site_label_2
_geom_bond_site_symmetry_1
_geom_bond_site_symmetry_2
Zn1 N1 1_555 1_555
Si1 F1 1_555 1_555
N1 C1 1_555 1_555
C1 H1 1_555 1_555
C2 C1 1_555 1_555
H2 C2 1_555 1_555
C3 C2 1_555 1_555
C4 C3 1_555 1_555
H3 C4 1_555 1_555
C5 N1 1_555 1_555
H4 C5 1_555 1_555
F2 Si1 1_555 1_555
F3 Si1 1_555 1_555
F4 Si1 1_555 1_555
F5 Zn1 1_555 1_555
C6 C3 1_555 1_555
H5 C6 1_555 1_555
H6 C6 1_555 1_555
C7 C6 1_555 1_555
H7 C7 1_555 1_555
H8 C7 1_555 1_555
C8 C7 1_555 1_555
C9 C8 1_555 1_555
H9 C9 1_555 1_555
C10 C9 1_555 1_555
H10 C10 1_555 1_555
N2 C10 1_555 1_555
C11 N2 1_555 1_555
H11 C11 1_555 1_555
C12 C8 1_555 1_555
H12 C12 1_555 1_555
F6 Si1 1_555 1_555
N3 Zn1 1_555 1_555
C13 N3 1_555 1_555
H13 C13 1_555 1_555
C14 C13 1_555 1_555
H14 C14 1_555 1_555
C15 C14 1_555 1_555
C16 C15 1_555 1_555
H15 C16 1_555 1_555
C17 N3 1_555 1_555
H16 C17 1_555 1_555
C18 C15 1_555 1_555
H17 C18 1_555 1_555
H18 C18 1_555 1_555
C19 C18 1_555 1_555
H19 C19 1_555 1_555
H20 C19 1_555 1_555
C20 C19 1_555 1_555
C21 C20 1_555 1_555
H21 C21 1_555 1_555
C22 C21 1_555 1_555
H22 C22 1_555 1_555
N4 C22 1_555 1_555
C23 N4 1_555 1_555
H23 C23 1_555 1_555
C24 C20 1_555 1_555
H24 C24 1_555 1_555
Zn2 F6 1_555 1_555
Zn4 N2 1_555 1_555
Zn4_2 N4 1_555 1_555
F7 Zn1 1_555 1_555
N5 Zn1 1_555 1_555
N6 Zn1 1_555 1_555
Si1 F5 1_555 1_555
C4 C5 1_555 1_555
C11 C12 1_555 1_555
C16 C17 1_555 1_555
C23 C24 1_555 1_555
Si1_2 F1_2 1_555 1_555
F2_2 Si1_2 1_555 1_555
F3_2 Si1_2 1_555 1_555
F4_2 Si1_2 1_555 1_555
F6_2 Si1_2 1_555 1_555
Zn2_2 F6_2 1_555 1_555
Si1_2 F7 1_555 1_555
C4_2 C3_2 1_555 1_555
H3_2 C4_2 1_555 1_555
H4_2 C5_2 1_555 1_555
C6_2 C3_2 1_555 1_555
H5_2 C6_2 1_555 1_555
H11_2 C11_2 1_555 1_555
H12_2 C12_2 1_555 1_555
N3_2 Zn2 1_555 1_555
C13_2 N3_2 1_555 1_555
H13_2 C13_2 1_555 1_555
C14_2 C13_2 1_555 1_555
H14_2 C14_2 1_555 1_555
H19_2 C19_2 1_555 1_555
C20_2 C19_2 1_555 1_555
C21_2 C20_2 1_555 1_555
H21_2 C21_2 1_555 1_555
C22_2 C21_2 1_555 1_555
H22_2 C22_2 1_555 1_555
N4_2 C22_2 1_555 1_555
Zn4_4 N4_2 1_555 1_555
N5_2 Zn2 1_555 1_555
C4_2 C5_2 1_555 1_555
C11_2 C12_2 1_555 1_555
Zn2_2 N1_2 1_555 1_555
N1_2 C1_2 1_555 1_555
C1_2 H1_2 1_555 1_555
C2_2 C1_2 1_555 1_555
H2_2 C2_2 1_555 1_555
H7_2 C7_2 1_555 1_555
C8_2 C7_2 1_555 1_555
C9_2 C8_2 1_555 1_555
H9_2 C9_2 1_555 1_555
C10_2 C9_2 1_555 1_555
H10_2 C10_2 1_555 1_555
N2_2 C10_2 1_555 1_555
C16_2 C15_2 1_555 1_555
H15_2 C16_2 1_555 1_555
H16_2 C17_2 1_555 1_555
C18_2 C15_2 1_555 1_555
H17_2 C18_2 1_555 1_555
H23_2 C23_2 1_555 1_555
H24_2 C24_2 1_555 1_555
Zn4_5 N2_2 1_555 1_555
N6_2 Zn2_2 1_555 1_555
C16_2 C17_2 1_555 1_555
C23_2 C24_2 1_555 1_555
F7_2 Zn4_3 1_555 1_555
C16_3 C15_3 1_555 1_555
H15_3 C16_3 1_555 1_555
H16_3 C17_3 1_555 1_555
C18_3 C15_3 1_555 1_555
H17_3 C18_3 1_555 1_555
H23_3 C23_3 1_555 1_555
H24_3 C24_3 1_555 1_555
C16_3 C17_3 1_555 1_555
C23_3 C24_3 1_555 1_555
N1_3 C1_3 1_555 1_555
C1_3 H1_3 1_555 1_555
C2_3 C1_3 1_555 1_555
H2_3 C2_3 1_555 1_555
H7_3 C7_3 1_555 1_555
C8_3 C7_3 1_555 1_555
C9_3 C8_3 1_555 1_555
H9_3 C9_3 1_555 1_555
C10_3 C9_3 1_555 1_555
H10_3 C10_3 1_555 1_555
N5_2 C10_3 1_555 1_555
C13_3 N3_3 1_555 1_555
H13_3 C13_3 1_555 1_555
C14_3 C13_3 1_555 1_555
H14_3 C14_3 1_555 1_555
H19_3 C19_3 1_555 1_555
C20_3 C19_3 1_555 1_555
C21_3 C20_3 1_555 1_555
H21_3 C21_3 1_555 1_555
C22_3 C21_3 1_555 1_555
H22_3 C22_3 1_555 1_555
N6_2 C22_3 1_555 1_555
Si1_3 F1_3 1_555 1_555
F2_3 Si1_3 1_555 1_555
F5_2 Zn4_6 1_555 1_555
F6_3 Si1_3 1_555 1_555
Zn4_2 F6_3 1_555 1_555
Si1_3 F5_2 1_555 1_555
C4_3 C3_3 1_555 1_555
H3_3 C4_3 1_555 1_555
H4_3 C5_3 1_555 1_555
C6_3 C3_3 1_555 1_555
H5_3 C6_3 1_555 1_555
H11_3 C11_3 1_555 1_555
H12_3 C12_3 1_555 1_555
C4_3 C5_3 1_555 1_555
C11_3 C12_3 1_555 1_555
Si1_4 F1_4 1_555 1_555
F2_4 Si1_4 1_555 1_555
F6_4 Si1_4 1_555 1_555
Zn4 F6_4 1_555 1_555
Si1_4 F7_2 1_555 1_555
C13_4 N3_4 1_555 1_555
H13_4 C13_4 1_555 1_555
C14_4 C13_4 1_555 1_555
H14_4 C14_4 1_555 1_555
C15_4 C14_4 1_555 1_555
C16_4 C15_4 1_555 1_555
H15_4 C16_4 1_555 1_555
C17_4 N3_4 1_555 1_555
H16_4 C17_4 1_555 1_555
C18_4 C15_4 1_555 1_555
H17_4 C18_4 1_555 1_555
H18_4 C18_4 1_555 1_555
C19_4 C18_4 1_555 1_555
H19_4 C19_4 1_555 1_555
H20_4 C19_4 1_555 1_555
C20_4 C19_4 1_555 1_555
C21_4 C20_4 1_555 1_555
H21_4 C21_4 1_555 1_555
C22_4 C21_4 1_555 1_555
H22_4 C22_4 1_555 1_555
N6 C22_4 1_555 1_555
C23_4 N6 1_555 1_555
H23_4 C23_4 1_555 1_555
C24_4 C20_4 1_555 1_555
H24_4 C24_4 1_555 1_555
C16_4 C17_4 1_555 1_555
C23_4 C24_4 1_555 1_555
N1_4 C1_4 1_555 1_555
C1_4 H1_4 1_555 1_555
C2_4 C1_4 1_555 1_555
H2_4 C2_4 1_555 1_555
C3_4 C2_4 1_555 1_555
C4_4 C3_4 1_555 1_555
H3_4 C4_4 1_555 1_555
C5_4 N1_4 1_555 1_555
H4_4 C5_4 1_555 1_555
C6_4 C3_4 1_555 1_555
H5_4 C6_4 1_555 1_555
H6_4 C6_4 1_555 1_555
C7_4 C6_4 1_555 1_555
H7_4 C7_4 1_555 1_555
H8_4 C7_4 1_555 1_555
C8_4 C7_4 1_555 1_555
C9_4 C8_4 1_555 1_555
H9_4 C9_4 1_555 1_555
C10_4 C9_4 1_555 1_555
H10_4 C10_4 1_555 1_555
N5 C10_4 1_555 1_555
C11_4 N5 1_555 1_555
H11_4 C11_4 1_555 1_555
C12_4 C8_4 1_555 1_555
H12_4 C12_4 1_555 1_555
C4_4 C5_4 1_555 1_555
C11_4 C12_4 1_555 1_555

#END
