
###############################################################################
#
# This file contains modified crystal structure data generated from the
# MOF subset of the Cambridge Structural Database (CSD) v543 
# hosted by the Cambridge Crystallographic Data Centre (CCDC).
#
# This work is licensed under the Creative Commons
# Attribution-NonCommercial-ShareAlike 4.0 International License.
# To view a copy of this license, visit
# http://creativecommons.org/licenses/by-nc-sa/4.0/
# or send a letter to
# Creative Commons, PO Box 1866, Mountain View, CA 94042, USA.
#
# CIF created using the CSD Python API on 29 September 2022
# The structure has been converted into the P1 space group
# The structure has a 3D framework
# The original CSD entry RATCEY is in the triclinic crystal system
# The framework has been calculated to contain at least 10.0% void space
# The void calculation uses a probe of radius 1.32A, grid spacing 0.4
#
###############################################################################

data_RATCEY
_chemical_formula_moiety         '(C52 H32 Cd6 N4 O9)n'
_symmetry_cell_setting           triclinic
_symmetry_space_group_name_H-M   'P 1'
_symmetry_Int_Tables_number      1
_space_group_name_Hall           'P 1'
loop_
_symmetry_equiv_pos_site_id
_symmetry_equiv_pos_as_xyz
1 x,y,z
_cell_length_a                   9.050(3)
_cell_length_b                   12.511(3)
_cell_length_c                   14.254(4)
_cell_angle_alpha                113.223(9)
_cell_angle_beta                 95.609(8)
_cell_angle_gamma                106.321(9)
_cell_volume                     1383.01
loop_
_atom_site_label
_atom_site_type_symbol
_atom_site_fract_x
_atom_site_fract_y
_atom_site_fract_z
Cd1 Cd 0.000000 0.000000 0.000000
O17 O 0.1107(7) 0.1889(4) 0.1313(4)
O19 O 0.4443(6) 0.0473(5) 0.0922(4)
Cd1_2 Cd 0.000000 0.000000 1.000000
O13 O 0.1567(7) 0.0699(6) 0.9052(4)
Cd1_3 Cd 0.000000 1.000000 0.000000
C25 C 0.3410(15) 0.5705(12) 0.0130(11)
H15 H 0.276965 0.524763 0.042159
H16 H 0.203303 0.670931 0.010660
N3 N 0.6158(8) 0.2725(6) 0.0456(5)
C27 C 0.4829(11) 0.2917(8) 0.0642(8)
H17 H 0.416465 0.242374 0.089601
C28 C 0.4370(11) 0.3808(9) 0.0483(8)
H18 H 0.342479 0.391592 0.064558
C29 C 0.5242(9) 0.4517(7) 0.0102(6)
C31 C 0.7027(14) 0.3412(11) 0.0055(10)
Cd13 Cd 0.70764(6) 0.13393(5) 0.07396(4)
O22 O 0.1959(6) 0.9454(4) 0.0764(4)
Cd1_4 Cd 0.000000 1.000000 1.000000
Cd2 Cd 0.29236(6) 0.86607(5) 0.92604(4)
N2 N 0.3842(8) 0.7275(6) 0.9544(5)
O4 O 0.0555(7) 0.7076(5) 0.8604(5)
C22 C 0.5171(11) 0.7083(8) 0.9358(8)
H13 H 0.583535 0.757626 0.910399
C23 C 0.5630(11) 0.6192(9) 0.9517(8)
H14 H 0.657521 0.608408 0.935442
C24 C 0.4758(9) 0.5483(7) 0.9898(6)
C26 C 0.2973(14) 0.6588(11) 0.9945(10)
C30 C 0.6590(15) 0.4295(12) 0.9870(11)
H19 H 0.723035 0.475237 0.957841
H20 H 0.796697 0.329069 0.989340
O15 O 0.2268(8) 0.9149(7) 0.8023(5)
O21 O 0.5557(6) 0.9527(5) 0.9078(4)
Cd1_5 Cd 1.000000 0.000000 0.000000
Cd1_6 Cd 1.000000 0.000000 1.000000
O8 O 0.7732(8) 0.0851(7) 0.1977(5)
O12 O 0.8041(6) 0.0546(4) 0.9236(4)
H28 H 0.703584 0.062916 0.352527
H29 H 0.869518 0.002090 0.748728
Cd1_7 Cd 1.000000 1.000000 0.000000
O14 O 0.8433(7) 0.9301(6) 0.0948(4)
Cd1_8 Cd 1.000000 1.000000 1.000000
N1 N 0.4085(8) 0.2627(6) 0.5768(5)
O3 O 0.8893(7) 0.8111(4) 0.8687(4)
C1 C 0.9249(10) 0.7141(7) 0.8353(6)
C2 C 0.7928(9) 0.5943(7) 0.7620(6)
C3 C 0.6669(10) 0.5951(7) 0.7013(6)
H1 H 0.664784 0.669791 0.701397
C4 C 0.5424(10) 0.4852(8) 0.6398(7)
H2 H 0.456781 0.486481 0.597836
C5 C 0.5401(10) 0.3747(7) 0.6383(5)
C6 C 0.6716(12) 0.3751(8) 0.6974(7)
H3 H 0.675422 0.300121 0.695769
C7 C 0.7952(11) 0.4826(8) 0.7577(7)
H4 H 0.883381 0.480776 0.796976
C8 C 0.2009(9) 0.0153(8) 0.8264(6)
C9 C 0.2372(10) 0.0748(8) 0.7533(6)
C10 C 0.2344(13) 0.1920(8) 0.7770(7)
H5 H 0.197725 0.232472 0.835842
C11 C 0.2846(12) 0.2511(8) 0.7161(7)
H6 H 0.279651 0.330311 0.732391
C12 C 0.3424(10) 0.1931(8) 0.6305(6)
C13 C 0.3373(12) 0.0744(8) 0.6034(7)
H7 H 0.365876 0.031781 0.541369
C14 C 0.2915(12) 0.0165(9) 0.6647(7)
C15 C 0.3303(8) 0.0264(6) 0.1346(5)
C16 C 0.3517(8) 0.0897(6) 0.2485(5)
C17 C 0.2279(10) 0.0590(7) 0.2944(6)
C18 C 0.2442(10) 0.1160(8) 0.4019(6)
H10 H 0.158287 0.094509 0.431123
C19 C 0.3892(9) 0.2058(7) 0.4670(5)
C20 C 0.5143(9) 0.2367(7) 0.4205(6)
H11 H 0.612419 0.297220 0.462934
C21 C 0.4942(9) 0.1793(7) 0.3138(6)
H12 H 0.579324 0.201205 0.284078
N4 N 0.5915(8) 0.7373(6) 0.4232(5)
C32 C 0.0751(10) 0.2859(7) 0.1647(6)
C33 C 0.2072(9) 0.4057(7) 0.2380(6)
C34 C 0.3331(10) 0.4049(7) 0.2987(6)
H21 H 0.335216 0.330209 0.298603
C35 C 0.4576(10) 0.5148(8) 0.3602(7)
H22 H 0.543219 0.513519 0.402164
C36 C 0.4599(10) 0.6253(7) 0.3617(5)
C37 C 0.3284(12) 0.6249(8) 0.3026(7)
H23 H 0.324578 0.699879 0.304231
C38 C 0.2048(11) 0.5174(8) 0.2423(7)
H24 H 0.116619 0.519224 0.203024
C39 C 0.7991(9) 0.9847(8) 0.1736(6)
C40 C 0.7628(10) 0.9252(8) 0.2467(6)
C41 C 0.7656(13) 0.8080(8) 0.2230(7)
H25 H 0.802275 0.767528 0.164158
C42 C 0.7154(12) 0.7489(8) 0.2839(7)
H26 H 0.720349 0.669689 0.267609
C43 C 0.6576(10) 0.8069(8) 0.3695(6)
C44 C 0.6627(12) 0.9256(8) 0.3966(7)
H27 H 0.634124 0.968219 0.458631
C45 C 0.7085(12) 0.9835(9) 0.3353(7)
C46 C 0.6697(8) 0.9736(6) 0.8654(5)
C47 C 0.6483(8) 0.9103(6) 0.7515(5)
C48 C 0.7721(10) 0.9410(7) 0.7056(6)
C49 C 0.7558(10) 0.8840(8) 0.5981(6)
H30 H 0.841713 0.905491 0.568877
C50 C 0.6108(9) 0.7942(7) 0.5330(5)
C51 C 0.4857(9) 0.7633(7) 0.5795(6)
H31 H 0.387581 0.702780 0.537066
C52 C 0.5058(9) 0.8207(7) 0.6862(6)
H32 H 0.420676 0.798795 0.715922
H8 H 0.296416 0.937084 0.647473
H9 H 0.130482 0.997910 0.251272
O10 O 0.9445(7) 0.2924(5) 0.1396(5)
loop_
_geom_bond_atom_site_label_1
_geom_bond_atom_site_label_2
_geom_bond_site_symmetry_1
_geom_bond_site_symmetry_2
O17 Cd1 1_555 1_555
O13 Cd1_2 1_555 1_555
H15 C25 1_555 1_555
N3 C27 1_555 1_555
C27 H17 1_555 1_555
C28 C27 1_555 1_555
H18 C28 1_555 1_555
C31 N3 1_555 1_555
Cd13 N3 1_555 1_555
O22 Cd1_3 1_555 1_555
C28 C29 1_555 1_555
Cd2 N2 1_555 1_555
N2 C22 1_555 1_555
O4 Cd2 1_555 1_555
C22 H13 1_555 1_555
C23 C22 1_555 1_555
H14 C23 1_555 1_555
C24 C23 1_555 1_555
C26 N2 1_555 1_555
H19 C30 1_555 1_555
O15 Cd2 1_555 1_555
O21 Cd2 1_555 1_555
O12 Cd1_6 1_555 1_555
Cd13 O8 1_555 1_555
O14 Cd1_7 1_555 1_555
Cd1_8 O3 1_555 1_555
N1 C5 1_555 1_555
O13 C8 1_555 1_555
O3 C1 1_555 1_555
O19 C15 1_555 1_555
C2 C1 1_555 1_555
C3 C2 1_555 1_555
H1 C3 1_555 1_555
C4 C3 1_555 1_555
H2 C4 1_555 1_555
C5 C4 1_555 1_555
C6 C5 1_555 1_555
H3 C6 1_555 1_555
C7 C2 1_555 1_555
H4 C7 1_555 1_555
C8 C9 1_555 1_555
C9 C10 1_555 1_555
C10 H5 1_555 1_555
C11 C10 1_555 1_555
H6 C11 1_555 1_555
C12 N1 1_555 1_555
C13 C12 1_555 1_555
H7 C13 1_555 1_555
C14 C9 1_555 1_555
C15 C16 1_555 1_555
C16 C17 1_555 1_555
C18 C17 1_555 1_555
H10 C18 1_555 1_555
C19 N1 1_555 1_555
C20 C19 1_555 1_555
H11 C20 1_555 1_555
C21 C16 1_555 1_555
H12 C21 1_555 1_555
N4 C36 1_555 1_555
O14 C39 1_555 1_555
O17 C32 1_555 1_555
O21 C46 1_555 1_555
C32 C33 1_555 1_555
C33 C34 1_555 1_555
C34 H21 1_555 1_555
C35 C34 1_555 1_555
H22 C35 1_555 1_555
C36 C35 1_555 1_555
C37 C36 1_555 1_555
H23 C37 1_555 1_555
C38 C33 1_555 1_555
H24 C38 1_555 1_555
C39 C40 1_555 1_555
C40 C41 1_555 1_555
C41 H25 1_555 1_555
C42 C41 1_555 1_555
H26 C42 1_555 1_555
C43 N4 1_555 1_555
C44 C43 1_555 1_555
H27 C44 1_555 1_555
C45 C40 1_555 1_555
C47 C46 1_555 1_555
C48 C47 1_555 1_555
C49 C48 1_555 1_555
H30 C49 1_555 1_555
C50 N4 1_555 1_555
C51 C50 1_555 1_555
H31 C51 1_555 1_555
C52 C47 1_555 1_555
H32 C52 1_555 1_555
Cd13 O19 1_555 1_555
C6 C7 1_555 1_555
C11 C12 1_555 1_555
C13 C14 1_555 1_555
C18 C19 1_555 1_555
C20 C21 1_555 1_555
C37 C38 1_555 1_555
C42 C43 1_555 1_555
C44 C45 1_555 1_555
C49 C50 1_555 1_555
C51 C52 1_555 1_555
Cd13 O10 1_555 1_555

#END
