
###############################################################################
#
# This file contains modified crystal structure data generated from the
# MOF subset of the Cambridge Structural Database (CSD) v543 
# hosted by the Cambridge Crystallographic Data Centre (CCDC).
#
# This work is licensed under the Creative Commons
# Attribution-NonCommercial-ShareAlike 4.0 International License.
# To view a copy of this license, visit
# http://creativecommons.org/licenses/by-nc-sa/4.0/
# or send a letter to
# Creative Commons, PO Box 1866, Mountain View, CA 94042, USA.
#
# CIF created using the CSD Python API on 29 September 2022
# The structure has been converted into the P1 space group
# The structure has a 3D framework
# The original CSD entry RATCUL02 is in the monoclinic crystal system
# The framework has been calculated to contain at least 10.0% void space
# The void calculation uses a probe of radius 1.32A, grid spacing 0.4
#
###############################################################################

data_RATCUL02
_chemical_formula_moiety         '(C24 H24 Fe20 O48)n'
_symmetry_cell_setting           triclinic
_symmetry_space_group_name_H-M   'P 1'
_symmetry_Int_Tables_number      1
_space_group_name_Hall           'P 1'
loop_
_symmetry_equiv_pos_site_id
_symmetry_equiv_pos_as_xyz
1 x,y,z
_cell_length_a                   11.4694(2)
_cell_length_b                   9.9777(2)
_cell_length_c                   18.3901(4)
_cell_angle_alpha                90
_cell_angle_beta                 127.390(2)
_cell_angle_gamma                90
_cell_volume                     1672.09
loop_
_atom_site_label
_atom_site_type_symbol
_atom_site_fract_x
_atom_site_fract_y
_atom_site_fract_z
Fe14 Fe 0.0000 0.0000 0.0000
Fe14_2 Fe 0.0000 0.0000 1.0000
Fe14_3 Fe -0.0000 1.0000 0.0000
Fe14_4 Fe 0.0000 1.0000 1.0000
Fe1 Fe 0.37787(3) 0.07723(3) 0.13292(2)
Fe3 Fe 0.5000 0.0000 0.0000
O1 O 0.44255(17) 0.19775(15) 0.24755(9)
O2 O 0.55434(18) 0.06027(16) 0.36855(10)
O4 O 0.68170(18) 0.00022(18) 0.14077(11)
O5 O 0.45485(17) 0.25551(15) 0.10728(10)
O11 O 0.16396(16) 0.15532(16) 0.06141(10)
O12 O 0.20283(17) 0.37546(16) 0.09176(11)
C1 C 0.5037(3) 0.1705(2) 0.33135(15)
C3 C 0.4708(3) 0.2869(2) 0.04675(16)
C6 C 0.1220(3) 0.2769(2) 0.05147(16)
H1 H 0.513(2) 0.247(2) 0.3681(14)
H3 H 0.479(3) 0.386(3) 0.0420(18)
H6 H 0.015(3) 0.296(2) 0.0080(15)
Fe7 Fe 0.62213(3) 0.57723(3) 0.36708(2)
Fe9 Fe 0.42831(3) 0.38791(3) 0.18831(2)
Fe12 Fe 0.57169(3) 0.88791(3) 0.31169(2)
Fe13 Fe 0.5000 0.5000 0.5000
Fe14_5 Fe 1.0000 0.0000 0.0000
O15 O 0.55745(17) 0.69775(15) 0.25245(9)
O17 O 0.44566(18) 0.56027(16) 0.13145(10)
O19 O 0.40884(17) 0.49158(15) 0.28138(10)
O21 O 0.31830(18) 0.50022(18) 0.35923(11)
O26 O 0.65413(16) 0.41524(15) 0.30363(10)
O29 O 0.88690(18) 0.10947(17) 0.03684(11)
C7 C 0.4963(3) 0.6705(2) 0.16865(15)
C9 C 0.3071(3) 0.4829(3) 0.28905(17)
C11 C 0.7766(3) 0.1021(3) 0.03281(16)
H7 H 0.487(2) 0.747(2) 0.1319(14)
H9 H 0.212(3) 0.466(2) 0.2349(17)
H11 H 0.773(3) 0.151(2) 0.0751(17)
Fe2 Fe 0.42831(3) 0.11209(3) 0.68831(2)
Fe3_2 Fe 0.5000 0.0000 1.0000
O6 O 0.48061(19) 0.20835(16) 0.99864(11)
Fe14_6 Fe 1.0000 0.0000 1.0000
O14 O 0.44255(17) 0.30225(15) 0.74755(9)
O18 O 0.40884(17) 0.00842(15) 0.78138(10)
O23 O 0.45485(17) 0.24449(15) 0.60728(10)
O25 O 0.65413(16) 0.08476(15) 0.80363(10)
O28 O 0.66388(17) 0.02719(16) 0.97794(10)
O33 O 0.20283(17) 0.12454(16) 0.59176(11)
C8 C 0.3071(3) 0.0171(3) 0.78905(17)
H8 H 0.212(3) 0.034(2) 0.7349(17)
Fe3_3 Fe 0.5000 1.0000 0.0000
O3 O 0.59116(17) 0.99158(15) 0.21862(10)
O7 O 0.34587(16) 0.91524(15) 0.19637(10)
O8 O 0.10502(18) 0.89416(17) 0.12381(11)
O9 O 0.33612(17) 0.97281(16) 0.02206(10)
C2 C 0.6929(3) 0.9829(3) 0.21095(17)
C4 C 0.2342(3) 0.8684(3) 0.18657(16)
H2 H 0.788(3) 0.966(2) 0.2651(17)
H4 H 0.256(3) 0.799(3) 0.2340(16)
Fe14_7 Fe 1.0000 1.0000 0.0000
O24 O 0.51939(19) 0.79165(16) 0.00136(11)
Fe3_4 Fe 0.5000 1.0000 1.0000
O10 O 0.11310(18) 0.89053(17) 0.96316(11)
C5 C 0.2234(3) 0.8979(3) 0.96719(16)
H5 H 0.227(3) 0.849(2) 0.9249(17)
Fe5 Fe 0.62213(3) 0.92277(3) 0.86708(2)
Fe10 Fe 0.57169(3) 0.61209(3) 0.81169(2)
Fe14_8 Fe 1.0000 1.0000 1.0000
O13 O 0.55745(17) 0.80225(15) 0.75245(9)
O16 O 0.44566(18) 0.93973(16) 0.63145(10)
O20 O 0.31830(18) 0.99978(18) 0.85923(11)
O22 O 0.54515(17) 0.74449(15) 0.89272(10)
O32 O 0.83604(16) 0.84468(16) 0.93859(10)
C10 C 0.5292(3) 0.7131(2) 0.95325(16)
H10 H 0.521(3) 0.614(3) 0.9580(18)
O27 O 0.89498(18) 0.10584(17) 0.87619(11)
O34 O 0.79717(17) 0.62454(16) 0.90824(11)
C12 C 0.8780(3) 0.7231(2) 0.94853(16)
H12 H 0.985(3) 0.704(2) 0.9920(15)
Fe4 Fe 0.0000 0.5000 0.5000
Fe6 Fe 0.37787(3) 0.42277(3) 0.63292(2)
O27_2 O 0.10502(18) 0.60584(17) 0.62381(11)
O30 O 0.11310(18) 0.60947(17) 0.46316(11)
O31 O 0.16396(16) 0.34468(16) 0.56141(10)
C12_2 C 0.1220(3) 0.2231(2) 0.55147(16)
H12_2 H 0.015(3) 0.204(2) 0.5080(15)
Fe4_2 Fe 1.0000 0.5000 0.5000
O5_2 O 0.54515(17) 0.75551(15) 0.39272(10)
O6_2 O 0.51939(19) 0.70835(16) 0.50136(11)
O8_2 O 0.89498(18) 0.39416(17) 0.37619(11)
O9_2 O 0.66388(17) 0.47281(16) 0.47794(10)
O10_2 O 0.88690(18) 0.39053(17) 0.53684(11)
O11_2 O 0.83604(16) 0.65532(16) 0.43859(10)
O12_2 O 0.79717(17) 0.87546(16) 0.40824(11)
C3_2 C 0.5292(3) 0.7869(2) 0.45325(16)
C4_2 C 0.7658(3) 0.3684(3) 0.31343(16)
C5_2 C 0.7766(3) 0.3979(3) 0.53281(16)
C6_2 C 0.8780(3) 0.7769(2) 0.44853(16)
H3_2 H 0.521(3) 0.886(3) 0.4580(18)
H4_2 H 0.744(3) 0.299(3) 0.2660(16)
H5_2 H 0.773(3) 0.349(2) 0.5751(17)
H6_2 H 0.985(3) 0.796(2) 0.4920(15)
O16_2 O 0.55434(18) 0.43973(16) 0.86855(10)
O18_2 O 0.59116(17) 0.50842(15) 0.71862(10)
O20_2 O 0.68170(18) 0.49978(18) 0.64077(11)
O24_2 O 0.48061(19) 0.29165(16) 0.49864(11)
O25_2 O 0.34587(16) 0.58476(15) 0.69637(10)
O28_2 O 0.33612(17) 0.52719(16) 0.52206(10)
C8_2 C 0.6929(3) 0.5171(3) 0.71095(17)
C10_2 C 0.4708(3) 0.2131(2) 0.54675(16)
C11_2 C 0.2234(3) 0.6021(3) 0.46719(16)
H8_2 H 0.788(3) 0.534(2) 0.7651(17)
H10_2 H 0.479(3) 0.114(3) 0.5420(18)
H11_2 H 0.227(3) 0.651(2) 0.4249(17)
C4_3 C 0.7658(3) 0.1316(3) 0.81343(16)
H4_3 H 0.744(3) 0.201(3) 0.7660(16)
C1_2 C 0.4963(3) 0.8295(2) 0.66865(15)
H1_2 H 0.487(2) 0.753(2) 0.6319(14)
C7_2 C 0.5037(3) 0.3295(2) 0.83135(15)
H7_2 H 0.513(2) 0.253(2) 0.8681(14)
C4_4 C 0.2342(3) 0.6316(3) 0.68657(16)
H4_4 H 0.256(3) 0.701(3) 0.7340(16)
loop_
_geom_bond_atom_site_label_1
_geom_bond_atom_site_label_2
_geom_bond_site_symmetry_1
_geom_bond_site_symmetry_2
Fe1 O1 1_555 1_555
Fe3 O4 1_555 1_555
O1 C1 1_555 1_555
O2 C1 1_555 1_555
O5 Fe1 1_555 1_555
O11 Fe1 1_555 1_555
O12 C6 1_555 1_555
C1 H1 1_555 1_555
C3 O5 1_555 1_555
C6 O11 1_555 1_555
H3 C3 1_555 1_555
H6 C6 1_555 1_555
Fe7 O15 1_555 1_555
Fe9 O1 1_555 1_555
Fe12 O15 1_555 1_555
Fe13 O21 1_555 1_555
Fe14_5 O29 1_555 1_555
O15 C7 1_555 1_555
O17 Fe9 1_555 1_555
O19 Fe7 1_555 1_555
O21 C9 1_555 1_555
O26 Fe7 1_555 1_555
O29 C11 1_555 1_555
C7 O17 1_555 1_555
C9 O19 1_555 1_555
H7 C7 1_555 1_555
H9 C9 1_555 1_555
H11 C11 1_555 1_555
Fe14 O11 1_555 1_555
O5 Fe9 1_555 1_555
O12 Fe9 1_555 1_555
Fe9 O19 1_555 1_555
Fe9 O26 1_555 1_555
Fe2 O14 1_555 1_555
O6 Fe3_2 1_555 1_555
O18 Fe2 1_555 1_555
O23 Fe2 1_555 1_555
O25 Fe2 1_555 1_555
O28 Fe3_2 1_555 1_555
O33 Fe2 1_555 1_555
C8 O18 1_555 1_555
H8 C8 1_555 1_555
Fe14_3 O8 1_555 1_555
O8 C4 1_555 1_555
C2 O3 1_555 1_555
C4 O7 1_555 1_555
H2 C2 1_555 1_555
H4 C4 1_555 1_555
O24 Fe3_3 1_555 1_555
Fe3_3 O9 1_555 1_555
O3 Fe12 1_555 1_555
O7 Fe12 1_555 1_555
O10 Fe14_4 1_555 1_555
H5 C5 1_555 1_555
Fe5 O13 1_555 1_555
Fe10 O13 1_555 1_555
O20 Fe3_4 1_555 1_555
O22 Fe5 1_555 1_555
O32 Fe5 1_555 1_555
C10 O22 1_555 1_555
H10 C10 1_555 1_555
O10 C5 1_555 1_555
Fe10 O22 1_555 1_555
Fe14_8 O32 1_555 1_555
O27 Fe14_6 1_555 1_555
Fe10 O34 1_555 1_555
O34 C12 1_555 1_555
C12 O32 1_555 1_555
H12 C12 1_555 1_555
Fe6 O31 1_555 1_555
O27_2 Fe4 1_555 1_555
O30 Fe4 1_555 1_555
O31 Fe4 1_555 1_555
O33 C12_2 1_555 1_555
C12_2 O31 1_555 1_555
H12_2 C12_2 1_555 1_555
Fe4_2 O8_2 1_555 1_555
O5_2 Fe7 1_555 1_555
O6_2 Fe13 1_555 1_555
O8_2 C4_2 1_555 1_555
O9_2 Fe7 1_555 1_555
O10_2 Fe4_2 1_555 1_555
O11_2 Fe7 1_555 1_555
O12_2 C6_2 1_555 1_555
C3_2 O5_2 1_555 1_555
C4_2 O26 1_555 1_555
C5_2 O9_2 1_555 1_555
C6_2 O11_2 1_555 1_555
H3_2 C3_2 1_555 1_555
H4_2 C4_2 1_555 1_555
H5_2 C5_2 1_555 1_555
H6_2 C6_2 1_555 1_555
Fe6 O14 1_555 1_555
O16_2 Fe10 1_555 1_555
O18_2 Fe10 1_555 1_555
O20_2 Fe13 1_555 1_555
O23 Fe6 1_555 1_555
O24_2 Fe13 1_555 1_555
O25_2 Fe10 1_555 1_555
O28_2 Fe13 1_555 1_555
O30 C11_2 1_555 1_555
C8_2 O18_2 1_555 1_555
C10_2 O23 1_555 1_555
C11_2 O28_2 1_555 1_555
H8_2 C8_2 1_555 1_555
H10_2 C10_2 1_555 1_555
H11_2 C11_2 1_555 1_555
Fe13 O9_2 1_555 1_555
Fe4_2 O11_2 1_555 1_555
O5_2 Fe12 1_555 1_555
O6_2 C3_2 1_555 1_555
O10_2 C5_2 1_555 1_555
O12_2 Fe12 1_555 1_555
Fe6 O18_2 1_555 1_555
Fe6 O25_2 1_555 1_555
Fe6 O28_2 1_555 1_555
O20_2 C8_2 1_555 1_555
O24_2 C10_2 1_555 1_555
O27 C4_3 1_555 1_555
C4_3 O25 1_555 1_555
H4_3 C4_3 1_555 1_555
O13 C1_2 1_555 1_555
O16 C1_2 1_555 1_555
C1_2 H1_2 1_555 1_555
O14 C7_2 1_555 1_555
C7_2 O16_2 1_555 1_555
H7_2 C7_2 1_555 1_555
O27_2 C4_4 1_555 1_555
C4_4 O25_2 1_555 1_555
H4_4 C4_4 1_555 1_555

#END
