
###############################################################################
#
# This file contains modified crystal structure data generated from the
# MOF subset of the Cambridge Structural Database (CSD) v543 
# hosted by the Cambridge Crystallographic Data Centre (CCDC).
#
# This work is licensed under the Creative Commons
# Attribution-NonCommercial-ShareAlike 4.0 International License.
# To view a copy of this license, visit
# http://creativecommons.org/licenses/by-nc-sa/4.0/
# or send a letter to
# Creative Commons, PO Box 1866, Mountain View, CA 94042, USA.
#
# CIF created using the CSD Python API on 29 September 2022
# The structure has been converted into the P1 space group
# The structure has a 3D framework
# The original CSD entry RATFOK02 is in the triclinic crystal system
# The framework has been calculated to contain at least 10.0% void space
# The void calculation uses a probe of radius 1.32A, grid spacing 0.4
#
###############################################################################

data_RATFOK02
_chemical_formula_moiety         '(C36 H16 Fe3 N12 Pd2)n'
_symmetry_cell_setting           triclinic
_symmetry_space_group_name_H-M   'P 1'
_symmetry_Int_Tables_number      1
_space_group_name_Hall           'P 1'
loop_
_symmetry_equiv_pos_site_id
_symmetry_equiv_pos_as_xyz
1 x,y,z
_cell_length_a                   7.5133(7)
_cell_length_b                   14.3298(10)
_cell_length_c                   16.1925(15)
_cell_angle_alpha                102.716(7)
_cell_angle_beta                 95.108(8)
_cell_angle_gamma                90.031(7)
_cell_volume                     1693.47
loop_
_atom_site_label
_atom_site_type_symbol
_atom_site_fract_x
_atom_site_fract_y
_atom_site_fract_z
N3 N 0.3027(7) 0.3892(4) 0.4846(4)
N6 N 0.2848(6) 0.0805(4) 0.4565(4)
C9 C 0.1905(8) 0.3343(4) 0.4773(4)
C11 C 0.1773(7) 0.1358(4) 0.4558(4)
Fe4 Fe 0.5000 0.0000 0.5000
Fe9 Fe 0.5000 0.5000 0.5000
Fe4_2 Fe 0.5000 1.0000 0.5000
N5 N 0.4943(8) 0.4790(4) 0.3596(4)
C12 C 0.6436(11) 0.4912(6) 0.3217(6)
H5 H 0.7486 0.5128 0.3554
C13 C 0.6438(13) 0.4725(7) 0.2349(5)
H6 H 0.7481 0.4825 0.2108
C14 C 0.4929(14) 0.4394(6) 0.1834(5)
C15 C 0.3435(14) 0.4303(7) 0.2222(6)
H7 H 0.2366 0.4100 0.1896
C16 C 0.3486(11) 0.4507(7) 0.3095(5)
H8 H 0.2435 0.4442 0.3342
C17 C 0.4956(16) 0.4101(7) 0.0931(6)
C18 C 0.5016(15) 0.3798(7) 0.0186(6)
Pd1 Pd 0.99473(5) 0.23792(3) 0.46702(3)
N1 N 0.5184(7) 0.1042(4) 0.6227(4)
N2 N 0.6905(6) 0.0876(4) 0.4586(4)
N4 N 0.7085(7) 0.3985(4) 0.4960(4)
C1 C 0.5411(11) 0.0719(6) 0.6945(5)
H1 H 0.5530 0.0065 0.6904
C2 C 0.5474(13) 0.1316(6) 0.7739(5)
H2 H 0.5668 0.1066 0.8222
C3 C 0.5251(11) 0.2274(6) 0.7816(5)
C4 C 0.4991(12) 0.2614(6) 0.7077(5)
H3 H 0.4816 0.3262 0.7104
C5 C 0.4996(10) 0.1981(5) 0.6305(5)
H4 H 0.4862 0.2219 0.5813
C6 C 0.5190(13) 0.2901(7) 0.8641(6)
C7 C 0.5134(14) 0.3343(7) 0.9347(5)
C8 C 0.7995(7) 0.1404(4) 0.4593(4)
C10 C 0.8131(7) 0.3412(4) 0.4858(4)
N14 N 0.6973(7) 0.6108(4) 0.5154(4)
N15 N 0.2915(7) 0.6015(4) 0.5040(4)
N17 N 0.5057(8) 0.5210(4) 0.6404(4)
Pd2 Pd 0.00527(5) 0.76208(3) 0.53298(3)
N7 N 0.4816(7) 0.8958(4) 0.3773(4)
N8 N 0.3095(6) 0.9124(4) 0.5414(4)
C19 C 0.4589(11) 0.9281(6) 0.3055(5)
H9 H 0.4470 0.9935 0.3096
C20 C 0.4526(13) 0.8684(6) 0.2261(5)
H10 H 0.4332 0.8934 0.1778
C21 C 0.4749(11) 0.7726(6) 0.2184(5)
C22 C 0.5009(12) 0.7386(6) 0.2923(5)
H11 H 0.5184 0.6738 0.2896
C23 C 0.5004(10) 0.8019(5) 0.3695(5)
H12 H 0.5138 0.7781 0.4187
C24 C 0.4810(13) 0.7099(7) 0.1359(6)
C25 C 0.4866(14) 0.6657(7) 0.0653(5)
C26 C 0.2005(7) 0.8596(4) 0.5407(4)
C28 C 0.1869(7) 0.6588(4) 0.5142(4)
N19 N 0.7152(6) 0.9195(4) 0.5435(4)
C30 C 0.3564(11) 0.5088(6) 0.6783(6)
H13 H 0.2514 0.4872 0.6446
C31 C 0.3562(13) 0.5275(7) 0.7651(5)
H14 H 0.2519 0.5175 0.7892
C32 C 0.5071(14) 0.5606(6) 0.8166(5)
C33 C 0.6565(14) 0.5697(7) 0.7778(6)
H15 H 0.7634 0.5900 0.8104
C34 C 0.6514(11) 0.5493(7) 0.6905(5)
H16 H 0.7565 0.5558 0.6658
C35 C 0.5044(16) 0.5899(7) 0.9069(6)
C36 C 0.4984(15) 0.6202(7) 0.9814(6)
C27 C 0.8095(8) 0.6657(4) 0.5227(4)
C29 C 0.8227(7) 0.8642(4) 0.5442(4)
loop_
_geom_bond_atom_site_label_1
_geom_bond_atom_site_label_2
_geom_bond_site_symmetry_1
_geom_bond_site_symmetry_2
N3 C9 1_555 1_555
N6 C11 1_555 1_555
Fe4 N6 1_555 1_555
Fe9 N3 1_555 1_555
N5 C12 1_555 1_555
C12 H5 1_555 1_555
C13 C12 1_555 1_555
H6 C13 1_555 1_555
C14 C13 1_555 1_555
C15 C14 1_555 1_555
H7 C15 1_555 1_555
C16 N5 1_555 1_555
H8 C16 1_555 1_555
C17 C14 1_555 1_555
Fe9 N5 1_555 1_555
C15 C16 1_555 1_555
C17 C18 1_555 1_555
Pd1 C8 1_555 1_555
Fe4 N1 1_555 1_555
Fe9 N4 1_555 1_555
N1 C1 1_555 1_555
N2 Fe4 1_555 1_555
N4 C10 1_555 1_555
C1 H1 1_555 1_555
C2 C1 1_555 1_555
H2 C2 1_555 1_555
C3 C2 1_555 1_555
C4 C3 1_555 1_555
H3 C4 1_555 1_555
C5 N1 1_555 1_555
H4 C5 1_555 1_555
C6 C3 1_555 1_555
C7 C6 1_555 1_555
C8 N2 1_555 1_555
C10 Pd1 1_555 1_555
N14 Fe9 1_555 1_555
N15 Fe9 1_555 1_555
N17 Fe9 1_555 1_555
C4 C5 1_555 1_555
Pd2 C26 1_555 1_555
N7 Fe4_2 1_555 1_555
N8 Fe4_2 1_555 1_555
N15 C28 1_555 1_555
C19 N7 1_555 1_555
H9 C19 1_555 1_555
C20 C19 1_555 1_555
H10 C20 1_555 1_555
C21 C20 1_555 1_555
C22 C21 1_555 1_555
H11 C22 1_555 1_555
C23 N7 1_555 1_555
H12 C23 1_555 1_555
C24 C21 1_555 1_555
C25 C24 1_555 1_555
C26 N8 1_555 1_555
C28 Pd2 1_555 1_555
N19 Fe4_2 1_555 1_555
C22 C23 1_555 1_555
N17 C30 1_555 1_555
C30 H13 1_555 1_555
C31 C30 1_555 1_555
H14 C31 1_555 1_555
C32 C31 1_555 1_555
C33 C32 1_555 1_555
H15 C33 1_555 1_555
C34 N17 1_555 1_555
H16 C34 1_555 1_555
C35 C32 1_555 1_555
C33 C34 1_555 1_555
C35 C36 1_555 1_555
N14 C27 1_555 1_555
N19 C29 1_555 1_555

#END
