
###############################################################################
#
# This file contains modified crystal structure data generated from the
# MOF subset of the Cambridge Structural Database (CSD) v543 
# hosted by the Cambridge Crystallographic Data Centre (CCDC).
#
# This work is licensed under the Creative Commons
# Attribution-NonCommercial-ShareAlike 4.0 International License.
# To view a copy of this license, visit
# http://creativecommons.org/licenses/by-nc-sa/4.0/
# or send a letter to
# Creative Commons, PO Box 1866, Mountain View, CA 94042, USA.
#
# CIF created using the CSD Python API on 29 September 2022
# The structure has been converted into the P1 space group
# The structure has a 3D framework
# The original CSD entry RATFEA is in the triclinic crystal system
# The framework has been calculated to contain at least 10.0% void space
# The void calculation uses a probe of radius 1.32A, grid spacing 0.4
#
###############################################################################

data_RATFEA
_chemical_formula_moiety         '(C36 H18 Fe8 N12 Ni2)n'
_symmetry_cell_setting           triclinic
_symmetry_space_group_name_H-M   'P 1'
_symmetry_Int_Tables_number      1
_space_group_name_Hall           'P 1'
loop_
_symmetry_equiv_pos_site_id
_symmetry_equiv_pos_as_xyz
1 x,y,z
_cell_length_a                   7.0404(3)
_cell_length_b                   13.7679(7)
_cell_length_c                   16.4902(8)
_cell_angle_alpha                106.946(4)
_cell_angle_beta                 96.413(4)
_cell_angle_gamma                90.009(4)
_cell_volume                     1518.55
loop_
_atom_site_label
_atom_site_type_symbol
_atom_site_fract_x
_atom_site_fract_y
_atom_site_fract_z
Fe7 Fe -0.0000 0.5000 -0.0000
Fe1 Fe -0.0000 -0.0000 -0.0000
N10 N 0.0231(5) 0.0949(3) 0.1187(2)
C22 C 0.0450(7) 0.0588(3) 0.1868(3)
C23 C 0.0546(7) 0.1201(4) 0.2696(3)
H10 H 0.0721 0.0918 0.3146
C24 C 0.0382(7) 0.2249(4) 0.2860(3)
C25 C 0.0186(7) 0.2626(4) 0.2159(3)
H11 H 0.0098 0.3321 0.2238
C26 C 0.0123(7) 0.1963(4) 0.1344(3)
H12 H 0.0000 0.2228 0.0884
C27 C 0.0347(7) 0.2886(4) 0.3717(3)
C28 C 0.0233(8) 0.3333(4) 0.4447(3)
C29 C 0.1551(7) 0.4823(4) 0.8382(3)
H13 H 0.2696 0.5007 0.8737
C30 C 0.1571(8) 0.4624(4) 0.7512(3)
H14 H 0.2710 0.4683 0.7291
C35 C 0.0063(8) 0.3770(4) 0.5308(4)
Fe7_2 Fe 0.0000 0.5000 1.0000
Fe1_2 Fe -0.0000 -0.0000 1.0000
N13 N 0.1874(5) 0.0865(3) 0.9738(2)
Fe1_3 Fe -0.0000 1.0000 -0.0000
N6 N 0.2063(5) 0.9183(3) 0.0302(2)
C11 C 0.3225(6) 0.8620(3) 0.0359(3)
H9 H 0.0540 0.9890 0.1773
Ni3 Ni 0.50643(8) 0.76226(4) 0.02967(4)
N14 N 0.0076(5) 0.5239(3) 0.1260(2)
N17 N 0.1934(5) 0.6073(3) 0.0182(2)
Fe1_4 Fe -0.0000 1.0000 1.0000
H4 H -0.0000 0.7772 0.9116
C14 C 0.0118(8) 0.5665(4) 0.3031(3)
C15 C 0.1790(8) 0.5722(4) 0.2676(3)
H7 H 0.2947 0.5906 0.3022
C16 C 0.1712(7) 0.5500(4) 0.1794(3)
H8 H 0.2845 0.5533 0.1560
C17 C 0.0082(8) 0.5933(4) 0.3940(3)
N16 N 0.2006(5) 0.4012(3) 0.9947(2)
Fe7_3 Fe 1.0000 0.5000 -0.0000
Fe1_5 Fe 1.0000 -0.0000 -0.0000
N11 N 0.9924(5) 0.4761(3) 0.8740(2)
H12_2 H 1.0000 0.2228 0.0884
C31 C 0.9882(8) 0.4335(4) 0.6969(3)
C32 C 0.8210(8) 0.4278(4) 0.7324(3)
H15 H 0.7053 0.4094 0.6978
C33 C 0.8288(7) 0.4500(4) 0.8206(3)
H16 H 0.7155 0.4467 0.8440
C34 C 0.9918(8) 0.4067(4) 0.6060(3)
Fe7_4 Fe 1.0000 0.5000 1.0000
Fe1_6 Fe 1.0000 -0.0000 1.0000
H1 H 0.9460 0.0110 0.8227
N18 N 0.7937(5) 0.0817(3) 0.9698(2)
Fe1_7 Fe 1.0000 1.0000 -0.0000
N2 N 0.8126(5) 0.9135(3) 0.0262(2)
N4 N 0.7994(5) 0.5988(3) 0.0053(2)
C8 C 0.6979(6) 0.8576(3) 0.0315(3)
C10 C 0.6860(6) 0.6605(3) 0.0137(3)
C20 C 0.3122(6) 0.6666(3) 0.0247(3)
Fe1_8 Fe 1.0000 1.0000 1.0000
N1 N 0.9769(5) 0.9051(3) 0.8813(2)
N5 N 0.8066(5) 0.3927(3) 0.9818(2)
C1 C 0.9550(7) 0.9412(3) 0.8132(3)
C2 C 0.9454(7) 0.8799(4) 0.7304(3)
H2 H 0.9279 0.9082 0.6854
C3 C 0.9618(7) 0.7751(4) 0.7140(3)
C4 C 0.9814(7) 0.7374(4) 0.7841(3)
H3 H 0.9902 0.6679 0.7762
C5 C 0.9877(7) 0.8037(4) 0.8656(3)
H4_2 H 1.0000 0.7772 0.9116
C6 C 0.9653(7) 0.7114(4) 0.6283(3)
C7 C 0.9767(8) 0.6667(4) 0.5553(3)
C9 C 0.6878(6) 0.3334(3) 0.9753(3)
C12 C 0.8449(7) 0.5177(4) 0.1618(3)
H5 H 0.7304 0.4993 0.1263
C13 C 0.8429(8) 0.5376(4) 0.2488(3)
H6 H 0.7290 0.5317 0.2709
C18 C 0.9937(8) 0.6230(4) 0.4692(4)
Ni2 Ni 0.49357(8) 0.23774(4) 0.97033(4)
C19 C 0.3021(6) 0.1424(3) 0.9685(3)
C21 C 0.3140(6) 0.3395(3) 0.9863(3)
C37 C 0.6775(6) 0.1380(3) 0.9641(3)
loop_
_geom_bond_atom_site_label_1
_geom_bond_atom_site_label_2
_geom_bond_site_symmetry_1
_geom_bond_site_symmetry_2
N10 Fe1 1_555 1_555
C22 N10 1_555 1_555
C23 C22 1_555 1_555
H10 C23 1_555 1_555
C24 C23 1_555 1_555
C25 C24 1_555 1_555
H11 C25 1_555 1_555
C26 N10 1_555 1_555
H12 C26 1_555 1_555
C27 C24 1_555 1_555
C28 C27 1_555 1_555
C29 H13 1_555 1_555
C30 C29 1_555 1_555
H14 C30 1_555 1_555
C35 C28 1_555 1_555
C25 C26 1_555 1_555
N13 Fe1_2 1_555 1_555
N6 Fe1_3 1_555 1_555
C11 N6 1_555 1_555
Ni3 C11 1_555 1_555
N14 Fe7 1_555 1_555
N17 Fe7 1_555 1_555
C15 C14 1_555 1_555
H7 C15 1_555 1_555
C16 N14 1_555 1_555
H8 C16 1_555 1_555
C17 C14 1_555 1_555
N16 Fe7_2 1_555 1_555
C15 C16 1_555 1_555
C32 C31 1_555 1_555
H15 C32 1_555 1_555
C33 N11 1_555 1_555
H16 C33 1_555 1_555
C34 C31 1_555 1_555
Fe7_4 N11 1_555 1_555
C32 C33 1_555 1_555
N18 Fe1_6 1_555 1_555
Ni3 C8 1_555 1_555
Fe7_3 N4 1_555 1_555
N2 Fe1_7 1_555 1_555
N4 C10 1_555 1_555
C8 N2 1_555 1_555
C10 Ni3 1_555 1_555
N17 C20 1_555 1_555
C20 Ni3 1_555 1_555
Fe1_8 N1 1_555 1_555
N1 C1 1_555 1_555
N5 Fe7_4 1_555 1_555
C2 C1 1_555 1_555
H2 C2 1_555 1_555
C3 C2 1_555 1_555
C4 C3 1_555 1_555
H3 C4 1_555 1_555
C5 N1 1_555 1_555
H4_2 C5 1_555 1_555
C6 C3 1_555 1_555
C7 C6 1_555 1_555
C9 N5 1_555 1_555
C12 H5 1_555 1_555
C13 C12 1_555 1_555
H6 C13 1_555 1_555
C18 C7 1_555 1_555
Ni2 C9 1_555 1_555
N13 C19 1_555 1_555
N16 C21 1_555 1_555
C19 Ni2 1_555 1_555
C21 Ni2 1_555 1_555
C37 Ni2 1_555 1_555
C4 C5 1_555 1_555
N18 C37 1_555 1_555

#END
