
###############################################################################
#
# This file contains modified crystal structure data generated from the
# MOF subset of the Cambridge Structural Database (CSD) v543 
# hosted by the Cambridge Crystallographic Data Centre (CCDC).
#
# This work is licensed under the Creative Commons
# Attribution-NonCommercial-ShareAlike 4.0 International License.
# To view a copy of this license, visit
# http://creativecommons.org/licenses/by-nc-sa/4.0/
# or send a letter to
# Creative Commons, PO Box 1866, Mountain View, CA 94042, USA.
#
# CIF created using the CSD Python API on 29 September 2022
# The structure has been converted into the P1 space group
# The structure has a 3D framework
# The original CSD entry RATFEA01 is in the triclinic crystal system
# The framework has been calculated to contain at least 10.0% void space
# The void calculation uses a probe of radius 1.32A, grid spacing 0.4
#
###############################################################################

data_RATFEA01
_chemical_formula_moiety         '(C36 H16 Fe7 N12 Ni2)n'
_symmetry_cell_setting           triclinic
_symmetry_space_group_name_H-M   'P 1'
_symmetry_Int_Tables_number      1
_space_group_name_Hall           'P 1'
loop_
_symmetry_equiv_pos_site_id
_symmetry_equiv_pos_as_xyz
1 x,y,z
_cell_length_a                   7.3262(5)
_cell_length_b                   14.1439(6)
_cell_length_c                   16.3846(8)
_cell_angle_alpha                76.394(4)
_cell_angle_beta                 83.496(5)
_cell_angle_gamma                89.942(4)
_cell_volume                     1638.95
loop_
_atom_site_label
_atom_site_type_symbol
_atom_site_fract_x
_atom_site_fract_y
_atom_site_fract_z
Fe1 Fe 0.0000 0.0000 0.0000
Fe9 Fe 0.0000 0.5000 0.0000
N15 N 0.1956(6) 0.0896(3) 0.0365(3)
Fe1_2 Fe 0.0000 0.0000 1.0000
Fe9_2 Fe 0.0000 0.5000 1.0000
N14 N 0.0228(6) 0.1046(3) 0.8759(3)
Fe1_3 Fe 0.0000 1.0000 0.0000
Fe1_4 Fe 0.0000 1.0000 1.0000
N19 N 0.2208(6) 0.9160(3) 0.9577(3)
Ni1 Ni 0.49335(8) 0.23844(4) 0.03076(4)
Fe1_5 Fe 1.0000 0.0000 0.0000
N3 N 0.7937(6) 0.3876(3) 0.0180(3)
N4 N 0.2133(6) 0.3962(3) 0.0023(3)
N6 N 0.7792(6) 0.0840(3) 0.0423(3)
C8 C 0.3101(7) 0.1456(3) 0.0366(3)
C9 C 0.6792(7) 0.3309(3) 0.0237(3)
C10 C 0.3216(7) 0.3370(3) 0.0124(3)
C11 C 0.6702(7) 0.1410(3) 0.0420(3)
C19 C 0.0446(9) 0.0711(4) 0.8057(4)
H9 H 0.0569 0.0045 0.8112
C20 C 0.0498(10) 0.1302(4) 0.7262(4)
H10 H 0.0671 0.1036 0.6791
C21 C 0.0292(9) 0.2296(4) 0.7159(4)
C22 C 0.0097(10) 0.2648(4) 0.7880(4)
C23 C 0.0062(9) 0.2006(4) 0.8664(4)
C24 C 0.0274(11) 0.2905(5) 0.6321(4)
C25 C 0.0209(11) 0.3355(5) 0.5617(4)
C30 C 0.1504(10) 0.4874(4) 0.1741(4)
H13 H 0.2587 0.5065 0.1384
C31 C 0.1569(12) 0.4695(5) 0.2608(4)
H14 H 0.2653 0.4791 0.2827
C36 C 0.0078(13) 0.3790(5) 0.4779(4)
Fe9_3 Fe 1.0000 0.5000 0.0000
Fe1_6 Fe 1.0000 0.0000 1.0000
N5 N 0.0049(7) 0.5214(3) 0.8610(3)
H3 H 0.0010 0.6688 0.2160
H4 H 0.0084 0.7747 0.0855
C14 C 0.0047(12) 0.5634(4) 0.6856(4)
C15 C 0.1637(11) 0.5715(5) 0.7209(4)
H7 H 0.2737 0.5906 0.6866
C16 C 0.1585(10) 0.5509(5) 0.8087(4)
H8 H 0.2664 0.5579 0.8319
C17 C 0.0031(13) 0.5895(5) 0.5949(4)
Fe9_4 Fe 1.0000 0.5000 1.0000
N18 N 0.2063(6) 0.6124(3) 0.9820(3)
Fe1_7 Fe 1.0000 1.0000 0.0000
N13 N 0.9772(6) 0.8954(3) 0.1241(3)
Fe1_8 Fe 1.0000 1.0000 1.0000
N16 N 0.8044(6) 0.9104(3) 0.9635(3)
N11 N 0.9951(7) 0.4786(3) 0.1390(3)
H11 H 0.9990 0.3312 0.7840
H12 H 0.9916 0.2253 0.9145
C32 C 0.9953(12) 0.4366(4) 0.3144(4)
C33 C 0.8363(11) 0.4285(5) 0.2791(4)
H15 H 0.7263 0.4094 0.3134
C34 C 0.8415(10) 0.4491(5) 0.1913(4)
H16 H 0.7336 0.4421 0.1681
C35 C 0.9969(13) 0.4105(5) 0.4051(4)
C1 C 0.9554(9) 0.9289(4) 0.1943(4)
H1 H 0.9431 0.9955 0.1888
C2 C 0.9502(10) 0.8698(4) 0.2738(4)
H2 H 0.9329 0.8964 0.3209
C3 C 0.9708(9) 0.7704(4) 0.2841(4)
C4 C 0.9903(10) 0.7352(4) 0.2120(4)
C5 C 0.9938(9) 0.7994(4) 0.1336(4)
C6 C 0.9726(11) 0.7095(5) 0.3679(4)
C7 C 0.9791(11) 0.6645(5) 0.4383(4)
C12 C 0.8496(10) 0.5126(4) 0.8259(4)
H5 H 0.7413 0.4935 0.8616
C13 C 0.8431(12) 0.5305(5) 0.7392(4)
H6 H 0.7347 0.5209 0.7173
C18 C 0.9922(13) 0.6210(5) 0.5221(4)
Ni2 Ni 0.50665(8) 0.76156(4) 0.96924(4)
N10 N 0.7867(6) 0.6038(3) 0.9977(3)
C26 C 0.6899(7) 0.8544(3) 0.9634(3)
C27 C 0.3208(7) 0.6691(3) 0.9763(3)
C28 C 0.6784(7) 0.6630(3) 0.9876(3)
C29 C 0.3298(7) 0.8590(3) 0.9580(3)
loop_
_geom_bond_atom_site_label_1
_geom_bond_atom_site_label_2
_geom_bond_site_symmetry_1
_geom_bond_site_symmetry_2
N15 Fe1 1_555 1_555
N14 Fe1_2 1_555 1_555
N19 Fe1_4 1_555 1_555
Ni1 C8 1_555 1_555
Fe1_5 N6 1_555 1_555
Fe9 N4 1_555 1_555
N15 C8 1_555 1_555
N3 C9 1_555 1_555
N4 C10 1_555 1_555
N6 C11 1_555 1_555
C9 Ni1 1_555 1_555
C10 Ni1 1_555 1_555
C11 Ni1 1_555 1_555
N14 C19 1_555 1_555
C19 H9 1_555 1_555
C20 C19 1_555 1_555
H10 C20 1_555 1_555
C21 C20 1_555 1_555
C22 C21 1_555 1_555
C23 N14 1_555 1_555
C24 C21 1_555 1_555
C25 C24 1_555 1_555
H13 C30 1_555 1_555
C31 C30 1_555 1_555
H14 C31 1_555 1_555
C36 C25 1_555 1_555
Fe9_3 N3 1_555 1_555
C22 C23 1_555 1_555
N5 Fe9_2 1_555 1_555
C15 C14 1_555 1_555
H7 C15 1_555 1_555
C16 N5 1_555 1_555
H8 C16 1_555 1_555
C17 C14 1_555 1_555
N18 Fe9_2 1_555 1_555
C15 C16 1_555 1_555
N13 Fe1_7 1_555 1_555
N16 Fe1_8 1_555 1_555
N11 Fe9_3 1_555 1_555
C33 C32 1_555 1_555
H15 C33 1_555 1_555
C34 N11 1_555 1_555
H16 C34 1_555 1_555
C35 C32 1_555 1_555
C33 C34 1_555 1_555
N13 C1 1_555 1_555
C1 H1 1_555 1_555
C2 C1 1_555 1_555
H2 C2 1_555 1_555
C3 C2 1_555 1_555
C4 C3 1_555 1_555
C5 N13 1_555 1_555
C6 C3 1_555 1_555
C7 C6 1_555 1_555
H5 C12 1_555 1_555
C13 C12 1_555 1_555
H6 C13 1_555 1_555
C18 C7 1_555 1_555
Ni2 C26 1_555 1_555
N16 C26 1_555 1_555
N18 C27 1_555 1_555
N10 Fe9_4 1_555 1_555
N19 C29 1_555 1_555
C27 Ni2 1_555 1_555
C28 Ni2 1_555 1_555
C29 Ni2 1_555 1_555
C4 C5 1_555 1_555
N10 C28 1_555 1_555

#END
