
###############################################################################
#
# This file contains modified crystal structure data generated from the
# MOF subset of the Cambridge Structural Database (CSD) v543 
# hosted by the Cambridge Crystallographic Data Centre (CCDC).
#
# This work is licensed under the Creative Commons
# Attribution-NonCommercial-ShareAlike 4.0 International License.
# To view a copy of this license, visit
# http://creativecommons.org/licenses/by-nc-sa/4.0/
# or send a letter to
# Creative Commons, PO Box 1866, Mountain View, CA 94042, USA.
#
# CIF created using the CSD Python API on 29 September 2022
# The structure has been converted into the P1 space group
# The structure has a 3D framework
# The original CSD entry RATFOK is in the triclinic crystal system
# The framework has been calculated to contain at least 10.0% void space
# The void calculation uses a probe of radius 1.32A, grid spacing 0.4
#
###############################################################################

data_RATFOK
_chemical_formula_moiety         '(C36 H16 Fe3 N12 Pd2)n'
_symmetry_cell_setting           triclinic
_symmetry_space_group_name_H-M   'P 1'
_symmetry_Int_Tables_number      1
_space_group_name_Hall           'P 1'
loop_
_symmetry_equiv_pos_site_id
_symmetry_equiv_pos_as_xyz
1 x,y,z
_cell_length_a                   7.2261(5)
_cell_length_b                   13.9453(8)
_cell_length_c                   16.3288(11)
_cell_angle_alpha                106.288(5)
_cell_angle_beta                 96.496(5)
_cell_angle_gamma                89.999(5)
_cell_volume                     1568.41
loop_
_atom_site_label
_atom_site_type_symbol
_atom_site_fract_x
_atom_site_fract_y
_atom_site_fract_z
N3 N 0.3110(10) 0.3949(6) 0.4788(5)
N6 N 0.2970(11) 0.0801(6) 0.4696(5)
C9 C 0.1943(12) 0.3385(6) 0.4719(6)
C11 C 0.1839(12) 0.1335(7) 0.4622(6)
Fe4 Fe 0.5000 0.0000 0.5000
Fe9 Fe 0.5000 0.5000 0.5000
Fe4_2 Fe 0.5000 1.0000 0.5000
N5 N 0.4919(13) 0.4821(8) 0.3738(6)
C12 C 0.6508(17) 0.4834(8) 0.3366(7)
H5 H 0.7630 0.4985 0.3722
C13 C 0.6551(19) 0.4641(9) 0.2505(8)
H6 H 0.7670 0.4693 0.2287
C14 C 0.4918(19) 0.4368(9) 0.1956(8)
C15 C 0.334(2) 0.4341(9) 0.2315(9)
H7 H 0.2220 0.4173 0.1961
C16 C 0.3341(17) 0.4560(9) 0.3199(8)
H8 H 0.2223 0.4524 0.3422
C17 C 0.498(2) 0.4103(9) 0.1039(8)
C18 C 0.509(2) 0.3802(10) 0.0285(9)
Pd1 Pd 0.99271(8) 0.23788(4) 0.46692(4)
N1 N 0.5222(12) 0.0918(8) 0.6197(6)
N2 N 0.6815(10) 0.0846(6) 0.4724(5)
N4 N 0.6947(12) 0.4034(6) 0.4905(6)
C1 C 0.5462(16) 0.0623(9) 0.6883(8)
C2 C 0.5537(18) 0.1247(10) 0.7718(8)
H2 H 0.5693 0.0988 0.8187
C3 C 0.5372(16) 0.2260(9) 0.7832(7)
C4 C 0.5124(17) 0.2599(9) 0.7128(7)
H3 H 0.4967 0.3277 0.7196
C5 C 0.5102(17) 0.1955(9) 0.6311(7)
H4 H 0.5008 0.2206 0.5837
C6 C 0.5342(17) 0.2909(9) 0.8696(9)
C7 C 0.5252(19) 0.3352(9) 0.9418(8)
C8 C 0.7932(12) 0.1390(6) 0.4665(6)
C10 C 0.8041(13) 0.3435(6) 0.4814(7)
H9 H 0.4404 0.0057 0.3186
N14 N 0.6890(10) 0.6051(6) 0.5212(5)
N15 N 0.3053(12) 0.5966(6) 0.5095(6)
N17 N 0.5081(13) 0.5179(8) 0.6262(6)
H1 H 0.5596 0.9943 0.6814
Pd2 Pd 0.00729(8) 0.76212(4) 0.53308(4)
N7 N 0.4778(12) 0.9082(8) 0.3803(6)
N8 N 0.3185(10) 0.9154(6) 0.5276(5)
C19 C 0.4538(16) 0.9377(9) 0.3117(8)
C20 C 0.4463(18) 0.8753(10) 0.2282(8)
H10 H 0.4307 0.9012 0.1813
C21 C 0.4628(16) 0.7740(9) 0.2168(7)
C22 C 0.4876(17) 0.7401(9) 0.2872(7)
H11 H 0.5033 0.6723 0.2804
C23 C 0.4898(17) 0.8045(9) 0.3689(7)
H12 H 0.4992 0.7794 0.4163
C24 C 0.4658(17) 0.7091(9) 0.1304(9)
C25 C 0.4748(19) 0.6648(9) 0.0582(8)
C26 C 0.2068(12) 0.8610(6) 0.5335(6)
C28 C 0.1959(13) 0.6565(6) 0.5186(7)
N19 N 0.7030(11) 0.9199(6) 0.5304(5)
C30 C 0.3492(17) 0.5166(8) 0.6634(7)
H13 H 0.2370 0.5015 0.6278
C31 C 0.3449(19) 0.5359(9) 0.7495(8)
H14 H 0.2330 0.5307 0.7713
C32 C 0.5082(19) 0.5632(9) 0.8044(8)
C33 C 0.666(2) 0.5659(9) 0.7685(9)
H15 H 0.7780 0.5827 0.8039
C34 C 0.6659(17) 0.5440(9) 0.6801(8)
H16 H 0.7777 0.5476 0.6578
C35 C 0.502(2) 0.5897(9) 0.8961(8)
C36 C 0.491(2) 0.6198(10) 0.9715(9)
C27 C 0.8057(12) 0.6615(6) 0.5281(6)
C29 C 0.8161(12) 0.8665(7) 0.5378(6)
loop_
_geom_bond_atom_site_label_1
_geom_bond_atom_site_label_2
_geom_bond_site_symmetry_1
_geom_bond_site_symmetry_2
N3 C9 1_555 1_555
N6 C11 1_555 1_555
Fe4 N6 1_555 1_555
Fe9 N3 1_555 1_555
N5 C12 1_555 1_555
C12 H5 1_555 1_555
C13 C12 1_555 1_555
H6 C13 1_555 1_555
C14 C13 1_555 1_555
C15 C14 1_555 1_555
H7 C15 1_555 1_555
C16 N5 1_555 1_555
H8 C16 1_555 1_555
C17 C14 1_555 1_555
Fe9 N5 1_555 1_555
C15 C16 1_555 1_555
C17 C18 1_555 1_555
Pd1 C8 1_555 1_555
Fe4 N1 1_555 1_555
Fe9 N4 1_555 1_555
N1 C1 1_555 1_555
N2 Fe4 1_555 1_555
N4 C10 1_555 1_555
C2 C1 1_555 1_555
H2 C2 1_555 1_555
C3 C2 1_555 1_555
C4 C3 1_555 1_555
H3 C4 1_555 1_555
C5 N1 1_555 1_555
H4 C5 1_555 1_555
C6 C3 1_555 1_555
C7 C6 1_555 1_555
C8 N2 1_555 1_555
C10 Pd1 1_555 1_555
N14 Fe9 1_555 1_555
N15 Fe9 1_555 1_555
N17 Fe9 1_555 1_555
C4 C5 1_555 1_555
Pd2 C26 1_555 1_555
N7 Fe4_2 1_555 1_555
N8 Fe4_2 1_555 1_555
N15 C28 1_555 1_555
C19 N7 1_555 1_555
C20 C19 1_555 1_555
H10 C20 1_555 1_555
C21 C20 1_555 1_555
C22 C21 1_555 1_555
H11 C22 1_555 1_555
C23 N7 1_555 1_555
H12 C23 1_555 1_555
C24 C21 1_555 1_555
C25 C24 1_555 1_555
C26 N8 1_555 1_555
C28 Pd2 1_555 1_555
N19 Fe4_2 1_555 1_555
C22 C23 1_555 1_555
N17 C30 1_555 1_555
C30 H13 1_555 1_555
C31 C30 1_555 1_555
H14 C31 1_555 1_555
C32 C31 1_555 1_555
C33 C32 1_555 1_555
H15 C33 1_555 1_555
C34 N17 1_555 1_555
H16 C34 1_555 1_555
C35 C32 1_555 1_555
C33 C34 1_555 1_555
C35 C36 1_555 1_555
N14 C27 1_555 1_555
N19 C29 1_555 1_555

#END
