
###############################################################################
#
# This file contains modified crystal structure data generated from the
# MOF subset of the Cambridge Structural Database (CSD) v543 
# hosted by the Cambridge Crystallographic Data Centre (CCDC).
#
# This work is licensed under the Creative Commons
# Attribution-NonCommercial-ShareAlike 4.0 International License.
# To view a copy of this license, visit
# http://creativecommons.org/licenses/by-nc-sa/4.0/
# or send a letter to
# Creative Commons, PO Box 1866, Mountain View, CA 94042, USA.
#
# CIF created using the CSD Python API on 29 September 2022
# The structure has been converted into the P1 space group
# The structure has a 3D framework
# The original CSD entry RATFOK01 is in the triclinic crystal system
# The framework has been calculated to contain at least 10.0% void space
# The void calculation uses a probe of radius 1.32A, grid spacing 0.4
#
###############################################################################

data_RATFOK01
_chemical_formula_moiety         '(C36 H16 Fe7 N12 Pd2)n'
_symmetry_cell_setting           triclinic
_symmetry_space_group_name_H-M   'P 1'
_symmetry_Int_Tables_number      1
_space_group_name_Hall           'P 1'
loop_
_symmetry_equiv_pos_site_id
_symmetry_equiv_pos_as_xyz
1 x,y,z
_cell_length_a                   7.3789(4)
_cell_length_b                   14.1403(7)
_cell_length_c                   16.3935(10)
_cell_angle_alpha                74.809(5)
_cell_angle_beta                 82.406(5)
_cell_angle_gamma                89.939(5)
_cell_volume                     1635.24
loop_
_atom_site_label
_atom_site_type_symbol
_atom_site_fract_x
_atom_site_fract_y
_atom_site_fract_z
Fe1 Fe 0.0000 0.0000 0.0000
Fe9 Fe 0.0000 0.5000 0.0000
N13 N 0.1806(8) 0.0807(4) 0.0295(4)
Fe1_2 Fe -0.0000 0.0000 1.0000
N1 N 0.0224(8) 0.0935(4) 0.8832(4)
C1 C 0.0415(12) 0.0612(6) 0.8137(5)
C2 C 0.0499(13) 0.1217(7) 0.7323(5)
H2 H 0.0673 0.0955 0.6856
C3 C 0.0321(13) 0.2225(7) 0.7204(5)
C4 C 0.0148(12) 0.2574(6) 0.7939(5)
H3 H 0.0062 0.3242 0.7892
C5 C 0.0106(11) 0.1921(5) 0.8728(5)
C6 C 0.0273(14) 0.2868(7) 0.6371(6)
C7 C 0.0209(15) 0.3335(8) 0.5652(6)
C12 C 0.1463(14) 0.4922(7) 0.1730(6)
H5 H 0.2537 0.5142 0.1362
C13 C 0.1502(16) 0.4724(8) 0.2596(6)
H6 H 0.2578 0.4832 0.2802
C18 C 0.0072(17) 0.3769(8) 0.4815(6)
Fe9_2 Fe -0.0000 0.5000 1.0000
Fe1_3 Fe 0.0000 1.0000 0.0000
N12 N 0.0059(11) 0.5190(5) 0.8604(5)
H12 H 0.0006 0.7840 0.0791
C32 C 0.0048(16) 0.5633(7) 0.6842(6)
C33 C 0.1608(15) 0.5750(8) 0.7185(6)
H15 H 0.2691 0.5980 0.6827
C34 C 0.1570(14) 0.5528(7) 0.8056(6)
H16 H 0.2641 0.5617 0.8273
C35 C 0.0006(17) 0.5905(7) 0.5929(7)
Fe1_4 Fe -0.0000 1.0000 1.0000
H1 H 0.0496 0.9941 0.8203
N19 N 0.2015(8) 0.9243(4) 0.9646(4)
Pd1 Pd 0.49137(7) 0.22853(4) 0.03520(3)
Fe1_5 Fe 1.0000 0.0000 0.0000
N3 N 0.2103(9) 0.3968(5) 0.0045(5)
N4 N 0.7981(9) 0.3849(5) 0.0247(4)
N6 N 0.7985(8) 0.0757(4) 0.0354(4)
C8 C 0.6809(9) 0.1261(5) 0.0430(5)
C9 C 0.3108(10) 0.3341(5) 0.0170(5)
C10 C 0.6873(9) 0.3268(5) 0.0305(5)
C11 C 0.2936(9) 0.1324(5) 0.0361(4)
H9 H 0.9504 0.0059 0.1797
Fe9_3 Fe 1.0000 0.5000 0.0000
Fe1_6 Fe 1.0000 0.0000 1.0000
N5 N 0.9941(11) 0.4810(5) 0.1396(5)
H4 H 0.9994 0.2160 0.9209
C14 C 0.9952(16) 0.4367(7) 0.3158(6)
C15 C 0.8392(15) 0.4250(8) 0.2815(6)
H7 H 0.7309 0.4020 0.3173
C16 C 0.8430(14) 0.4472(7) 0.1944(6)
H8 H 0.7359 0.4383 0.1727
C17 C 0.9994(17) 0.4095(7) 0.4071(7)
Fe9_4 Fe 1.0000 0.5000 1.0000
N16 N 0.2019(9) 0.6151(5) 0.9753(4)
Fe1_7 Fe 1.0000 1.0000 0.0000
N11 N 0.9776(8) 0.9065(4) 0.1168(4)
C23 C 0.9585(12) 0.9388(6) 0.1863(5)
C24 C 0.9501(13) 0.8783(7) 0.2677(5)
H10 H 0.9327 0.9045 0.3144
C25 C 0.9679(13) 0.7775(7) 0.2796(5)
C26 C 0.9852(12) 0.7426(6) 0.2061(5)
H11 H 0.9938 0.6758 0.2108
C27 C 0.9894(11) 0.8079(5) 0.1272(5)
C28 C 0.9727(14) 0.7132(7) 0.3629(6)
C29 C 0.9791(15) 0.6665(8) 0.4348(6)
C30 C 0.8537(14) 0.5078(7) 0.8270(6)
H13 H 0.7463 0.4858 0.8638
C31 C 0.8498(16) 0.5276(8) 0.7404(6)
H14 H 0.7422 0.5168 0.7198
C36 C 0.9928(17) 0.6231(8) 0.5185(6)
Fe1_8 Fe 1.0000 1.0000 1.0000
N14 N 0.8194(8) 0.9193(4) 0.9705(4)
Pd2 Pd 0.50863(7) 0.77147(4) 0.96480(3)
N8 N 0.7897(9) 0.6032(5) 0.9955(5)
C19 C 0.3191(9) 0.8739(5) 0.9570(5)
C20 C 0.6892(10) 0.6659(5) 0.9830(5)
C21 C 0.3127(9) 0.6732(5) 0.9695(5)
C22 C 0.7064(9) 0.8676(5) 0.9639(4)
loop_
_geom_bond_atom_site_label_1
_geom_bond_atom_site_label_2
_geom_bond_site_symmetry_1
_geom_bond_site_symmetry_2
N13 Fe1 1_555 1_555
Fe1_2 N1 1_555 1_555
N1 C1 1_555 1_555
C2 C1 1_555 1_555
H2 C2 1_555 1_555
C3 C2 1_555 1_555
C4 C3 1_555 1_555
H3 C4 1_555 1_555
C5 N1 1_555 1_555
C6 C3 1_555 1_555
C7 C6 1_555 1_555
C12 H5 1_555 1_555
C13 C12 1_555 1_555
H6 C13 1_555 1_555
C18 C7 1_555 1_555
C4 C5 1_555 1_555
C33 C32 1_555 1_555
H15 C33 1_555 1_555
C34 N12 1_555 1_555
H16 C34 1_555 1_555
C35 C32 1_555 1_555
Fe9_2 N12 1_555 1_555
C33 C34 1_555 1_555
N19 Fe1_4 1_555 1_555
Pd1 C8 1_555 1_555
Fe9 N3 1_555 1_555
N13 C11 1_555 1_555
N3 C9 1_555 1_555
N4 C10 1_555 1_555
N6 Fe1_5 1_555 1_555
C8 N6 1_555 1_555
C9 Pd1 1_555 1_555
C10 Pd1 1_555 1_555
C11 Pd1 1_555 1_555
Fe9_3 N4 1_555 1_555
C15 C14 1_555 1_555
H7 C15 1_555 1_555
C16 N5 1_555 1_555
H8 C16 1_555 1_555
C17 C14 1_555 1_555
Fe9_3 N5 1_555 1_555
N16 Fe9_2 1_555 1_555
C15 C16 1_555 1_555
N11 Fe1_7 1_555 1_555
C23 N11 1_555 1_555
C24 C23 1_555 1_555
H10 C24 1_555 1_555
C25 C24 1_555 1_555
C26 C25 1_555 1_555
H11 C26 1_555 1_555
C27 N11 1_555 1_555
C28 C25 1_555 1_555
C29 C28 1_555 1_555
C30 H13 1_555 1_555
C31 C30 1_555 1_555
H14 C31 1_555 1_555
C36 C29 1_555 1_555
C26 C27 1_555 1_555
N14 Fe1_8 1_555 1_555
Pd2 C19 1_555 1_555
N14 C22 1_555 1_555
N8 Fe9_4 1_555 1_555
N16 C21 1_555 1_555
N19 C19 1_555 1_555
C20 Pd2 1_555 1_555
C21 Pd2 1_555 1_555
C22 Pd2 1_555 1_555
N8 C20 1_555 1_555

#END
