
###############################################################################
#
# This file contains modified crystal structure data generated from the
# MOF subset of the Cambridge Structural Database (CSD) v543 
# hosted by the Cambridge Crystallographic Data Centre (CCDC).
#
# This work is licensed under the Creative Commons
# Attribution-NonCommercial-ShareAlike 4.0 International License.
# To view a copy of this license, visit
# http://creativecommons.org/licenses/by-nc-sa/4.0/
# or send a letter to
# Creative Commons, PO Box 1866, Mountain View, CA 94042, USA.
#
# CIF created using the CSD Python API on 29 September 2022
# The structure has been converted into the P1 space group
# The structure has a 3D framework
# The original CSD entry RATFEA02 is in the triclinic crystal system
# The framework has been calculated to contain at least 10.0% void space
# The void calculation uses a probe of radius 1.32A, grid spacing 0.4
#
###############################################################################

data_RATFEA02
_chemical_formula_moiety         '(C36 H16 Fe7 N12 Ni2)n'
_symmetry_cell_setting           triclinic
_symmetry_space_group_name_H-M   'P 1'
_symmetry_Int_Tables_number      1
_space_group_name_Hall           'P 1'
loop_
_symmetry_equiv_pos_site_id
_symmetry_equiv_pos_as_xyz
1 x,y,z
_cell_length_a                   7.1878(5)
_cell_length_b                   13.9259(13)
_cell_length_c                   16.4688(16)
_cell_angle_alpha                74.782(8)
_cell_angle_beta                 82.112(6)
_cell_angle_gamma                89.881(6)
_cell_volume                     1574.62
loop_
_atom_site_label
_atom_site_type_symbol
_atom_site_fract_x
_atom_site_fract_y
_atom_site_fract_z
Fe1 Fe 0.0000 0.0000 0.0000
Fe2 Fe -0.0000 0.5000 0.0000
N13 N 0.1846(6) 0.0835(3) 0.0275(3)
N15 N 0.2139(6) 0.3939(4) 0.0029(3)
Fe1_2 Fe 0.0000 0.0000 1.0000
Fe2_2 Fe -0.0000 0.5000 1.0000
N11 N 0.0232(6) 0.0934(4) 0.8836(3)
C23 C 0.0437(7) 0.0597(5) 0.8141(4)
C24 C 0.0499(8) 0.1201(5) 0.7326(4)
H10 H 0.0634 0.0925 0.6865
C25 C 0.0360(8) 0.2220(5) 0.7198(4)
C26 C 0.0172(8) 0.2584(5) 0.7919(4)
H11 H 0.0075 0.3264 0.7862
C27 C 0.0131(8) 0.1945(4) 0.8703(4)
H12 H 0.0029 0.2206 0.9171
C28 C 0.0300(9) 0.2854(5) 0.6362(5)
C29 C 0.0175(9) 0.3315(5) 0.5652(5)
C30 C 0.1451(9) 0.4906(5) 0.1727(4)
H13 H 0.2552 0.5139 0.1359
C31 C 0.1499(10) 0.4713(5) 0.2592(4)
H14 H 0.2602 0.4836 0.2790
C36 C 0.0046(10) 0.3749(5) 0.4810(5)
N14 N 0.2080(6) 0.6171(4) 0.9778(3)
N17 N 0.0080(6) 0.5221(3) 0.8607(3)
Fe1_3 Fe 0.0000 1.0000 0.0000
C14 C 0.0080(10) 0.5661(5) 0.6842(4)
C15 C 0.1720(10) 0.5776(5) 0.7186(4)
H7 H 0.2846 0.5992 0.6832
C16 C 0.1635(9) 0.5562(5) 0.8056(4)
H8 H 0.2725 0.5661 0.8274
C17 C 0.0061(8) 0.5943(5) 0.5936(4)
Fe1_4 Fe 0.0000 1.0000 1.0000
H9 H 0.0545 0.9916 0.8211
N19 N 0.2058(6) 0.9207(3) 0.9657(3)
Ni1 Ni 0.49111(9) 0.22897(5) 0.03280(5)
Fe1_5 Fe 1.0000 0.0000 0.0000
Fe2_3 Fe 1.0000 0.5000 0.0000
N3 N 0.7920(6) 0.3829(4) 0.0222(3)
N6 N 0.7942(6) 0.0793(3) 0.0343(3)
H1 H 0.9455 0.0084 0.1789
C8 C 0.3005(8) 0.1359(4) 0.0341(4)
C9 C 0.6785(7) 0.3236(4) 0.0285(4)
C10 C 0.3186(7) 0.3304(4) 0.0145(4)
C11 C 0.6740(8) 0.1320(4) 0.0406(4)
N18 N 0.9920(6) 0.4779(3) 0.1393(3)
Fe1_6 Fe 1.0000 0.0000 1.0000
Fe2_4 Fe 1.0000 0.5000 1.0000
C32 C 0.9920(10) 0.4339(5) 0.3158(4)
C33 C 0.8280(10) 0.4224(5) 0.2814(4)
H15 H 0.7154 0.4008 0.3168
C34 C 0.8365(9) 0.4438(5) 0.1944(4)
H16 H 0.7275 0.4339 0.1726
C35 C 0.9939(8) 0.4057(5) 0.4064(4)
N16 N 0.7861(6) 0.6061(4) 0.9971(3)
Fe1_7 Fe 1.0000 1.0000 0.0000
N1 N 0.9768(6) 0.9066(4) 0.1164(3)
C1 C 0.9563(7) 0.9403(5) 0.1859(4)
C2 C 0.9501(8) 0.8799(5) 0.2674(4)
H2 H 0.9366 0.9075 0.3135
C3 C 0.9640(8) 0.7780(5) 0.2802(4)
C4 C 0.9828(8) 0.7416(5) 0.2081(4)
H3 H 0.9925 0.6736 0.2138
C5 C 0.9869(8) 0.8055(4) 0.1297(4)
H4 H 0.9971 0.7794 0.0829
C6 C 0.9700(9) 0.7146(5) 0.3638(5)
C7 C 0.9825(9) 0.6685(5) 0.4348(5)
C12 C 0.8549(9) 0.5094(5) 0.8273(4)
H5 H 0.7448 0.4861 0.8641
C13 C 0.8501(10) 0.5287(5) 0.7408(4)
H6 H 0.7398 0.5164 0.7210
C18 C 0.9954(10) 0.6251(5) 0.5190(5)
Fe1_8 Fe 1.0000 1.0000 1.0000
Ni2 Ni 0.50889(9) 0.77103(5) 0.96720(5)
N7 N 0.8154(6) 0.9165(3) 0.9725(3)
C19 C 0.6995(8) 0.8641(4) 0.9659(4)
C20 C 0.3215(7) 0.6764(4) 0.9715(4)
C21 C 0.6814(7) 0.6696(4) 0.9855(4)
C22 C 0.3260(8) 0.8680(4) 0.9594(4)
loop_
_geom_bond_atom_site_label_1
_geom_bond_atom_site_label_2
_geom_bond_site_symmetry_1
_geom_bond_site_symmetry_2
N13 Fe1 1_555 1_555
N15 Fe2 1_555 1_555
N11 Fe1_2 1_555 1_555
C23 N11 1_555 1_555
C24 C23 1_555 1_555
H10 C24 1_555 1_555
C25 C24 1_555 1_555
C26 C25 1_555 1_555
H11 C26 1_555 1_555
C27 N11 1_555 1_555
H12 C27 1_555 1_555
C28 C25 1_555 1_555
C29 C28 1_555 1_555
C30 H13 1_555 1_555
C31 C30 1_555 1_555
H14 C31 1_555 1_555
C36 C29 1_555 1_555
N14 Fe2_2 1_555 1_555
N17 Fe2_2 1_555 1_555
C26 C27 1_555 1_555
C15 C14 1_555 1_555
H7 C15 1_555 1_555
C16 N17 1_555 1_555
H8 C16 1_555 1_555
C17 C14 1_555 1_555
C15 C16 1_555 1_555
N19 Fe1_4 1_555 1_555
Ni1 C8 1_555 1_555
Fe2_3 N3 1_555 1_555
N13 C8 1_555 1_555
N3 C9 1_555 1_555
N15 C10 1_555 1_555
N6 Fe1_5 1_555 1_555
C9 Ni1 1_555 1_555
C10 Ni1 1_555 1_555
C11 Ni1 1_555 1_555
N18 Fe2_3 1_555 1_555
N6 C11 1_555 1_555
C33 C32 1_555 1_555
H15 C33 1_555 1_555
C34 N18 1_555 1_555
H16 C34 1_555 1_555
C35 C32 1_555 1_555
N16 Fe2_4 1_555 1_555
C33 C34 1_555 1_555
Fe1_7 N1 1_555 1_555
N1 C1 1_555 1_555
C2 C1 1_555 1_555
H2 C2 1_555 1_555
C3 C2 1_555 1_555
C4 C3 1_555 1_555
H3 C4 1_555 1_555
C5 N1 1_555 1_555
H4 C5 1_555 1_555
C6 C3 1_555 1_555
C7 C6 1_555 1_555
C12 H5 1_555 1_555
C13 C12 1_555 1_555
H6 C13 1_555 1_555
C18 C7 1_555 1_555
C4 C5 1_555 1_555
Ni2 C19 1_555 1_555
N7 Fe1_8 1_555 1_555
N14 C20 1_555 1_555
N16 C21 1_555 1_555
N19 C22 1_555 1_555
C19 N7 1_555 1_555
C20 Ni2 1_555 1_555
C21 Ni2 1_555 1_555
C22 Ni2 1_555 1_555

#END
