
###############################################################################
#
# This file contains modified crystal structure data generated from the
# MOF subset of the Cambridge Structural Database (CSD) v543 
# hosted by the Cambridge Crystallographic Data Centre (CCDC).
#
# This work is licensed under the Creative Commons
# Attribution-NonCommercial-ShareAlike 4.0 International License.
# To view a copy of this license, visit
# http://creativecommons.org/licenses/by-nc-sa/4.0/
# or send a letter to
# Creative Commons, PO Box 1866, Mountain View, CA 94042, USA.
#
# CIF created using the CSD Python API on 29 September 2022
# The structure has been converted into the P1 space group
# The structure has a 3D framework
# The original CSD entry RATGIF is in the monoclinic crystal system
# The framework has been calculated to contain at least 10.0% void space
# The void calculation uses a probe of radius 1.32A, grid spacing 0.4
#
###############################################################################

data_RATGIF
_chemical_formula_moiety         '(C56 H24 Fe10 N16 Ni2)n'
_symmetry_cell_setting           triclinic
_symmetry_space_group_name_H-M   'P 1'
_symmetry_Int_Tables_number      1
_space_group_name_Hall           'P 1'
loop_
_symmetry_equiv_pos_site_id
_symmetry_equiv_pos_as_xyz
1 x,y,z
_cell_length_a                   14.0178(6)
_cell_length_b                   7.3240(4)
_cell_length_c                   15.7022(8)
_cell_angle_alpha                90
_cell_angle_beta                 98.402(3)
_cell_angle_gamma                90
_cell_volume                     1594.79
loop_
_atom_site_label
_atom_site_type_symbol
_atom_site_fract_x
_atom_site_fract_y
_atom_site_fract_z
Fe2 Fe 0.500000 0.000000 0.000000
N13 N 0.60850(18) 0.2071(4) 0.00931(19)
N15 N 0.5107(3) 0.000000 0.1423(3)
Fe1 Fe 0.000000 0.000000 0.000000
Fe2_2 Fe 0.500000 0.000000 1.000000
N1 N 0.0993(3) 0.000000 0.1227(3)
N3 N 0.39150(18) 0.2071(4) 0.99069(19)
N4 N 0.4893(3) 0.000000 0.8577(3)
C1 C 0.1952(3) 0.000000 0.1271(3)
H1 H 0.221207 -0.000000 0.075870
C2 C 0.2576(4) 0.000000 0.2035(4)
H2 H 0.323927 0.000000 0.203608
C3 C 0.2200(4) 0.000000 0.2796(4)
C4 C 0.1202(4) 0.000000 0.2757(4)
H3 H 0.092340 0.000000 0.325930
C5 C 0.0638(4) 0.000000 0.1974(4)
C6 C 0.2802(5) 0.000000 0.3619(4)
C7 C 0.3266(5) 0.000000 0.4322(4)
C9 C 0.3341(2) 0.3194(4) 0.9815(2)
C10 C 0.4802(3) 0.1558(6) 0.8128(3)
H5 H 0.488965 0.265490 0.842700
C11 C 0.4585(3) 0.1617(7) 0.7249(3)
H6 H 0.453756 0.272995 0.696019
C12 C 0.4437(4) 0.000000 0.6798(4)
C13 C 0.4102(5) 0.000000 0.5888(4)
C14 C 0.3739(5) 0.000000 0.5141(4)
Ni6 Ni 0.23970(3) 0.500000 0.96693(4)
Fe1_2 Fe 0.000000 0.000000 1.000000
N6 N 0.08792(18) 0.2086(4) 0.9552(2)
H12 H 0.002822 0.000000 0.804268
C24 C 0.1450(2) 0.3206(4) 0.9563(2)
C37 C 0.1450(2) 0.6794(4) 0.9563(2)
C40 C 0.3341(2) 0.6806(4) 0.9815(2)
Fe2_3 Fe 0.500000 1.000000 0.000000
N14 N 0.60850(18) 0.7929(4) 0.00931(19)
N15_2 N 0.5107(3) 1.000000 0.1423(3)
Fe1_3 Fe 0.000000 1.000000 0.000000
Fe2_4 Fe 0.500000 1.000000 1.000000
N1_2 N 0.0993(3) 1.000000 0.1227(3)
N4_2 N 0.4893(3) 1.000000 0.8577(3)
C1_2 C 0.1952(3) 1.000000 0.1271(3)
H1_2 H 0.221207 1.000000 0.075870
C2_2 C 0.2576(4) 1.000000 0.2035(4)
H2_2 H 0.323927 1.000000 0.203608
C3_2 C 0.2200(4) 1.000000 0.2796(4)
C4_2 C 0.1202(4) 1.000000 0.2757(4)
H3_2 H 0.092340 1.000000 0.325930
C5_2 C 0.0638(4) 1.000000 0.1974(4)
C6_2 C 0.2802(5) 1.000000 0.3619(4)
C7_2 C 0.3266(5) 1.000000 0.4322(4)
C12_2 C 0.4437(4) 1.000000 0.6798(4)
C13_2 C 0.4102(5) 1.000000 0.5888(4)
C14_2 C 0.3739(5) 1.000000 0.5141(4)
C15 C 0.4802(3) 0.8442(6) 0.8128(3)
H7 H 0.488965 0.734510 0.842700
C16 C 0.4585(3) 0.8383(7) 0.7249(3)
H8 H 0.453756 0.727005 0.696019
N10 N 0.39150(18) 0.7929(4) 0.99069(19)
Fe1_4 Fe 0.000000 1.000000 1.000000
H12_2 H 0.002822 1.000000 0.804268
N8 N 0.08792(18) 0.7914(4) 0.9552(2)
Ni1 Ni 0.76030(3) 0.500000 0.03307(4)
Fe1_5 Fe 1.000000 0.000000 0.000000
N2 N 0.91208(18) 0.2086(4) 0.0448(2)
H4 H 0.997178 0.000000 0.195732
C8 C 0.8550(2) 0.3206(4) 0.0437(2)
C35 C 0.6659(2) 0.3194(4) 0.0185(2)
C36 C 0.6659(2) 0.6806(4) 0.0185(2)
C38 C 0.8550(2) 0.6794(4) 0.0437(2)
Fe1_6 Fe 1.000000 0.000000 1.000000
N5 N 0.9007(3) 0.000000 0.8773(3)
C17 C 0.8048(3) 0.000000 0.8729(3)
H9 H 0.778793 0.000000 0.924130
C18 C 0.7424(4) 0.000000 0.7965(4)
H10 H 0.676073 0.000000 0.796392
C19 C 0.7800(4) 0.000000 0.7204(4)
C20 C 0.8798(4) 0.000000 0.7243(4)
H11 H 0.907660 0.000000 0.674070
C21 C 0.9362(4) 0.000000 0.8026(4)
C22 C 0.7198(5) -0.000000 0.6381(4)
C23 C 0.6734(5) 0.000000 0.5678(4)
C25 C 0.5198(3) 0.1558(6) 0.1872(3)
H13 H 0.511035 0.265490 0.157300
C26 C 0.5415(3) 0.1617(7) 0.2751(3)
H14 H 0.546244 0.272995 0.303981
C27 C 0.5563(4) 0.000000 0.3202(4)
C28 C 0.5898(5) 0.000000 0.4112(4)
C29 C 0.6261(5) -0.000000 0.4859(4)
Fe1_7 Fe 1.000000 1.000000 0.000000
H4_2 H 0.997178 1.000000 0.195732
N9 N 0.91208(18) 0.7914(4) 0.0448(2)
Fe1_8 Fe 1.000000 1.000000 1.000000
N5_2 N 0.9007(3) 1.000000 0.8773(3)
C17_2 C 0.8048(3) 1.000000 0.8729(3)
H9_2 H 0.778793 1.000000 0.924130
C18_2 C 0.7424(4) 1.000000 0.7965(4)
H10_2 H 0.676073 1.000000 0.796392
C19_2 C 0.7800(4) 1.000000 0.7204(4)
C20_2 C 0.8798(4) 1.000000 0.7243(4)
H11_2 H 0.907660 1.000000 0.674070
C21_2 C 0.9362(4) 1.000000 0.8026(4)
C22_2 C 0.7198(5) 1.000000 0.6381(4)
C23_2 C 0.6734(5) 1.000000 0.5678(4)
C27_2 C 0.5563(4) 1.000000 0.3202(4)
C28_2 C 0.5898(5) 1.000000 0.4112(4)
C29_2 C 0.6261(5) 1.000000 0.4859(4)
C30 C 0.5198(3) 0.8442(6) 0.1872(3)
H15 H 0.511035 0.734510 0.157300
C31 C 0.5415(3) 0.8383(7) 0.2751(3)
H16 H 0.546244 0.727005 0.303981
loop_
_geom_bond_atom_site_label_1
_geom_bond_atom_site_label_2
_geom_bond_site_symmetry_1
_geom_bond_site_symmetry_2
N13 Fe2 1_555 1_555
N15 Fe2 1_555 1_555
Fe1 N1 1_555 1_555
Fe2_2 N3 1_555 1_555
N1 C1 1_555 1_555
N3 C9 1_555 1_555
N4 Fe2_2 1_555 1_555
C1 H1 1_555 1_555
C2 C1 1_555 1_555
H2 C2 1_555 1_555
C3 C2 1_555 1_555
C4 C3 1_555 1_555
H3 C4 1_555 1_555
C5 N1 1_555 1_555
C6 C3 1_555 1_555
C7 C6 1_555 1_555
C9 Ni6 1_555 1_555
C10 N4 1_555 1_555
H5 C10 1_555 1_555
C11 C10 1_555 1_555
H6 C11 1_555 1_555
C12 C11 1_555 1_555
C13 C12 1_555 1_555
C14 C7 1_555 1_555
C4 C5 1_555 1_555
C13 C14 1_555 1_555
Ni6 C24 1_555 1_555
N6 Fe1_2 1_555 1_555
C24 N6 1_555 1_555
C37 Ni6 1_555 1_555
C40 Ni6 1_555 1_555
N14 Fe2_3 1_555 1_555
N15_2 Fe2_3 1_555 1_555
Fe1_3 N1_2 1_555 1_555
N1_2 C1_2 1_555 1_555
N4_2 Fe2_4 1_555 1_555
C1_2 H1_2 1_555 1_555
C2_2 C1_2 1_555 1_555
H2_2 C2_2 1_555 1_555
C3_2 C2_2 1_555 1_555
C4_2 C3_2 1_555 1_555
H3_2 C4_2 1_555 1_555
C5_2 N1_2 1_555 1_555
C6_2 C3_2 1_555 1_555
C7_2 C6_2 1_555 1_555
C13_2 C12_2 1_555 1_555
C14_2 C7_2 1_555 1_555
C15 N4_2 1_555 1_555
H7 C15 1_555 1_555
C16 C12_2 1_555 1_555
H8 C16 1_555 1_555
N10 Fe2_4 1_555 1_555
C40 N10 1_555 1_555
C4_2 C5_2 1_555 1_555
C13_2 C14_2 1_555 1_555
C15 C16 1_555 1_555
N8 Fe1_4 1_555 1_555
C37 N8 1_555 1_555
Ni1 C8 1_555 1_555
N2 Fe1_5 1_555 1_555
C8 N2 1_555 1_555
N13 C35 1_555 1_555
C35 Ni1 1_555 1_555
N14 C36 1_555 1_555
C36 Ni1 1_555 1_555
C38 Ni1 1_555 1_555
N5 Fe1_6 1_555 1_555
N15 C25 1_555 1_555
C17 N5 1_555 1_555
H9 C17 1_555 1_555
C18 C17 1_555 1_555
H10 C18 1_555 1_555
C19 C18 1_555 1_555
C20 C19 1_555 1_555
H11 C20 1_555 1_555
C21 N5 1_555 1_555
C22 C19 1_555 1_555
C23 C22 1_555 1_555
C25 H13 1_555 1_555
C26 C25 1_555 1_555
H14 C26 1_555 1_555
C27 C26 1_555 1_555
C28 C27 1_555 1_555
C29 C23 1_555 1_555
C20 C21 1_555 1_555
C28 C29 1_555 1_555
N9 Fe1_7 1_555 1_555
C38 N9 1_555 1_555
N5_2 Fe1_8 1_555 1_555
C17_2 N5_2 1_555 1_555
H9_2 C17_2 1_555 1_555
C18_2 C17_2 1_555 1_555
H10_2 C18_2 1_555 1_555
C19_2 C18_2 1_555 1_555
C20_2 C19_2 1_555 1_555
H11_2 C20_2 1_555 1_555
C21_2 N5_2 1_555 1_555
C22_2 C19_2 1_555 1_555
C23_2 C22_2 1_555 1_555
C28_2 C27_2 1_555 1_555
C29_2 C23_2 1_555 1_555
C30 N15_2 1_555 1_555
H15 C30 1_555 1_555
C31 C27_2 1_555 1_555
H16 C31 1_555 1_555
C20_2 C21_2 1_555 1_555
C28_2 C29_2 1_555 1_555
C30 C31 1_555 1_555

#END
