
###############################################################################
#
# This file contains modified crystal structure data generated from the
# MOF subset of the Cambridge Structural Database (CSD) v543 
# hosted by the Cambridge Crystallographic Data Centre (CCDC).
#
# This work is licensed under the Creative Commons
# Attribution-NonCommercial-ShareAlike 4.0 International License.
# To view a copy of this license, visit
# http://creativecommons.org/licenses/by-nc-sa/4.0/
# or send a letter to
# Creative Commons, PO Box 1866, Mountain View, CA 94042, USA.
#
# CIF created using the CSD Python API on 29 September 2022
# The structure has been converted into the P1 space group
# The structure has a 3D framework
# The original CSD entry RATGAX01 is in the triclinic crystal system
# The framework has been calculated to contain at least 10.0% void space
# The void calculation uses a probe of radius 1.32A, grid spacing 0.4
#
###############################################################################

data_RATGAX01
_chemical_formula_moiety         '(C36 H16 Fe2 N12 Pd2)n'
_symmetry_cell_setting           triclinic
_symmetry_space_group_name_H-M   'P 1'
_symmetry_Int_Tables_number      1
_space_group_name_Hall           'P 1'
loop_
_symmetry_equiv_pos_site_id
_symmetry_equiv_pos_as_xyz
1 x,y,z
_cell_length_a                   7.4860(2)
_cell_length_b                   14.2688(4)
_cell_length_c                   15.0260(6)
_cell_angle_alpha                86.069(3)
_cell_angle_beta                 84.010(3)
_cell_angle_gamma                89.597(2)
_cell_volume                     1592.5
loop_
_atom_site_label
_atom_site_type_symbol
_atom_site_fract_x
_atom_site_fract_y
_atom_site_fract_z
Pd3 Pd 0.00689(3) 0.25911(2) 0.46169(2)
H5 H 0.7574 0.0022 0.6508
Fe7 Fe 0.5000 0.0000 0.5000
N11 N 0.5044(5) 0.0030(2) 0.3524(3)
C29 C 0.3505(7) 0.0098(3) 0.3137(3)
C30 C 0.3460(8) 0.0339(4) 0.2234(4)
H14 H 0.2370 0.0375 0.1987
C31 C 0.5056(9) 0.0529(4) 0.1698(3)
C32 C 0.6644(8) 0.0399(4) 0.2085(4)
H15 H 0.7744 0.0481 0.1740
C33 C 0.6573(7) 0.0147(4) 0.2986(4)
H16 H 0.7651 0.0052 0.3236
C34 C 0.5022(11) 0.0911(4) 0.0798(4)
C35 C 0.4962(10) 0.1319(4) 0.0085(4)
Fe1 Fe 0.5000 0.5000 0.5000
N1 N 0.5142(4) 0.5942(2) 0.3779(2)
N2 N 0.2868(4) 0.5868(2) 0.5568(3)
N3 N 0.2984(4) 0.1070(2) 0.4994(3)
N4 N 0.7059(4) 0.1052(2) 0.4847(3)
N6 N 0.3038(4) 0.4131(2) 0.4514(3)
C1 C 0.5217(7) 0.5593(3) 0.2977(4)
H1 H 0.5252 0.4943 0.2951
C2 C 0.5245(8) 0.6134(4) 0.2186(4)
H2 H 0.5307 0.5857 0.1641
C3 C 0.5178(7) 0.7110(4) 0.2216(4)
C4 C 0.5121(6) 0.7481(3) 0.3043(4)
H3 H 0.5091 0.8127 0.3089
C5 C 0.5110(5) 0.6875(3) 0.3798(3)
H4 H 0.5078 0.7131 0.4352
C6 C 0.5148(9) 0.7700(4) 0.1411(4)
C7 C 0.5107(10) 0.8170(4) 0.0735(4)
C8 C 0.1775(4) 0.6420(3) 0.5556(3)
C9 C 0.1920(5) 0.1618(3) 0.4855(3)
C10 C 0.8164(5) 0.1610(3) 0.4757(3)
C11 C 0.1952(5) 0.3580(3) 0.4514(3)
N10 N 0.4858(4) 0.4058(2) 0.6221(2)
C22 C 0.4783(7) 0.4407(3) 0.7023(4)
H9 H 0.4748 0.5057 0.7049
C23 C 0.4755(8) 0.3866(4) 0.7814(4)
H10 H 0.4693 0.4143 0.8359
C24 C 0.4822(7) 0.2890(4) 0.7784(4)
C25 C 0.4879(6) 0.2519(3) 0.6957(4)
H11 H 0.4909 0.1873 0.6911
C26 C 0.4890(5) 0.3125(3) 0.6202(3)
H12 H 0.4922 0.2869 0.5648
C27 C 0.4852(9) 0.2300(4) 0.8589(4)
C28 C 0.4893(10) 0.1830(4) 0.9265(4)
N13 N 0.7132(4) 0.4132(2) 0.4432(3)
N18 N 0.6962(4) 0.5869(2) 0.5486(3)
C37 C 0.1836(5) 0.8390(3) 0.5243(3)
N5 N 0.4956(5) 0.9970(2) 0.6476(3)
C12 C 0.6495(7) 0.9902(3) 0.6863(3)
C13 C 0.6540(8) 0.9661(4) 0.7766(4)
H6 H 0.7630 0.9625 0.8013
C14 C 0.4944(9) 0.9471(4) 0.8302(3)
C15 C 0.3356(8) 0.9601(4) 0.7915(4)
H7 H 0.2256 0.9519 0.8260
C16 C 0.3427(7) 0.9853(4) 0.7014(4)
H8 H 0.2349 0.9948 0.6764
C17 C 0.4978(11) 0.9089(4) 0.9202(4)
C18 C 0.5038(10) 0.8681(4) 0.9915(4)
Fe7_2 Fe 0.5000 1.0000 0.5000
H13 H 0.2426 0.9978 0.3492
N14 N 0.7016(4) 0.8930(2) 0.5006(3)
N15 N 0.2941(4) 0.8948(2) 0.5153(3)
Pd2 Pd 0.99311(3) 0.74089(2) 0.53831(2)
C19 C 0.8225(4) 0.3580(3) 0.4444(3)
C20 C 0.8080(5) 0.8382(3) 0.5145(3)
C21 C 0.8048(5) 0.6420(3) 0.5486(3)
loop_
_geom_bond_atom_site_label_1
_geom_bond_atom_site_label_2
_geom_bond_site_symmetry_1
_geom_bond_site_symmetry_2
N11 C29 1_555 1_555
C30 C29 1_555 1_555
H14 C30 1_555 1_555
C31 C30 1_555 1_555
C32 C31 1_555 1_555
H15 C32 1_555 1_555
C33 N11 1_555 1_555
H16 C33 1_555 1_555
C34 C31 1_555 1_555
Fe7 N11 1_555 1_555
C32 C33 1_555 1_555
C34 C35 1_555 1_555
Pd3 C9 1_555 1_555
Fe1 N1 1_555 1_555
Fe7 N3 1_555 1_555
N1 C1 1_555 1_555
N2 Fe1 1_555 1_555
N3 C9 1_555 1_555
N4 Fe7 1_555 1_555
N6 Fe1 1_555 1_555
C1 H1 1_555 1_555
C2 C1 1_555 1_555
H2 C2 1_555 1_555
C3 C2 1_555 1_555
C4 C3 1_555 1_555
H3 C4 1_555 1_555
C5 N1 1_555 1_555
H4 C5 1_555 1_555
C6 C3 1_555 1_555
C7 C6 1_555 1_555
C8 N2 1_555 1_555
C10 N4 1_555 1_555
C11 Pd3 1_555 1_555
N10 Fe1 1_555 1_555
C22 N10 1_555 1_555
H9 C22 1_555 1_555
C23 C22 1_555 1_555
H10 C23 1_555 1_555
C24 C23 1_555 1_555
C25 C24 1_555 1_555
H11 C25 1_555 1_555
C26 N10 1_555 1_555
H12 C26 1_555 1_555
C27 C24 1_555 1_555
C28 C27 1_555 1_555
N13 Fe1 1_555 1_555
N18 Fe1 1_555 1_555
N6 C11 1_555 1_555
C4 C5 1_555 1_555
C25 C26 1_555 1_555
N5 C12 1_555 1_555
C13 C12 1_555 1_555
H6 C13 1_555 1_555
C14 C13 1_555 1_555
C15 C14 1_555 1_555
H7 C15 1_555 1_555
C16 N5 1_555 1_555
H8 C16 1_555 1_555
C17 C14 1_555 1_555
Fe7_2 N5 1_555 1_555
C15 C16 1_555 1_555
C17 C18 1_555 1_555
N14 Fe7_2 1_555 1_555
N15 Fe7_2 1_555 1_555
N13 C19 1_555 1_555
N14 C20 1_555 1_555
N18 C21 1_555 1_555
C20 Pd2 1_555 1_555
C21 Pd2 1_555 1_555
N15 C37 1_555 1_555

#END
