
###############################################################################
#
# This file contains modified crystal structure data generated from the
# MOF subset of the Cambridge Structural Database (CSD) v543 
# hosted by the Cambridge Crystallographic Data Centre (CCDC).
#
# This work is licensed under the Creative Commons
# Attribution-NonCommercial-ShareAlike 4.0 International License.
# To view a copy of this license, visit
# http://creativecommons.org/licenses/by-nc-sa/4.0/
# or send a letter to
# Creative Commons, PO Box 1866, Mountain View, CA 94042, USA.
#
# CIF created using the CSD Python API on 29 September 2022
# The structure has been converted into the P1 space group
# The structure has a 3D framework
# The original CSD entry RATGAX is in the triclinic crystal system
# The framework has been calculated to contain at least 10.0% void space
# The void calculation uses a probe of radius 1.32A, grid spacing 0.4
#
###############################################################################

data_RATGAX
_chemical_formula_moiety         '(C36 H16 Fe2 N12 Pd2)n'
_symmetry_cell_setting           triclinic
_symmetry_space_group_name_H-M   'P 1'
_symmetry_Int_Tables_number      1
_space_group_name_Hall           'P 1'
loop_
_symmetry_equiv_pos_site_id
_symmetry_equiv_pos_as_xyz
1 x,y,z
_cell_length_a                   7.2355(4)
_cell_length_b                   13.7948(7)
_cell_length_c                   15.4309(10)
_cell_angle_alpha                80.619(5)
_cell_angle_beta                 86.873(5)
_cell_angle_gamma                89.870(5)
_cell_volume                     1517.3
loop_
_atom_site_label
_atom_site_type_symbol
_atom_site_fract_x
_atom_site_fract_y
_atom_site_fract_z
Pd3 Pd 0.00389(4) 0.26090(2) 0.46162(2)
Fe7 Fe 0.5000 -0.0000 0.5000
N11 N 0.5022(6) 0.0071(3) 0.3702(3)
C29 C 0.6625(7) 0.0167(4) 0.3193(4)
H13 H 0.7761 0.0088 0.3476
C30 C 0.6692(8) 0.0370(4) 0.2294(4)
H14 H 0.7850 0.0419 0.1968
C31 C 0.5046(9) 0.0504(4) 0.1858(4)
C32 C 0.3390(8) 0.0336(4) 0.2370(4)
H15 H 0.2243 0.0360 0.2096
C33 C 0.3426(7) 0.0135(4) 0.3277(4)
H16 H 0.2285 0.0037 0.3615
C34 C 0.5032(9) 0.0852(4) 0.0932(4)
C35 C 0.4982(10) 0.1237(5) 0.0173(4)
Fe1 Fe 0.5000 0.5000 0.5000
N1 N 0.5098(5) 0.5896(3) 0.3846(3)
N2 N 0.3137(6) 0.4184(3) 0.4625(3)
N3 N 0.3113(6) 0.1000(3) 0.4912(3)
N4 N 0.6898(6) 0.1002(3) 0.4851(3)
N6 N 0.3047(5) 0.5808(3) 0.5399(3)
C1 C 0.5180(7) 0.5542(4) 0.3086(4)
H1 H 0.5214 0.4850 0.3111
C2 C 0.5219(8) 0.6128(4) 0.2266(4)
H2 H 0.5292 0.5843 0.1745
C3 C 0.5148(7) 0.7138(4) 0.2222(4)
C4 C 0.5087(7) 0.7523(4) 0.3004(4)
H3 H 0.5063 0.8214 0.2994
C5 C 0.5061(7) 0.6891(4) 0.3789(4)
H4 H 0.5016 0.7160 0.4318
C6 C 0.5120(9) 0.7773(4) 0.1381(4)
C7 C 0.5071(9) 0.8261(5) 0.0665(4)
C8 C 0.1994(6) 0.3630(4) 0.4552(4)
C9 C 0.8059(7) 0.1587(4) 0.4753(3)
C10 C 0.1981(6) 0.1580(3) 0.4799(3)
C11 C 0.1910(6) 0.6360(3) 0.5479(3)
N10 N 0.4902(5) 0.4104(3) 0.6154(3)
C22 C 0.4820(7) 0.4458(4) 0.6914(4)
H9 H 0.4786 0.5150 0.6889
C23 C 0.4781(8) 0.3872(4) 0.7734(4)
H10 H 0.4708 0.4157 0.8255
C24 C 0.4852(7) 0.2862(4) 0.7778(4)
C25 C 0.4913(7) 0.2477(4) 0.6996(4)
H11 H 0.4937 0.1786 0.7006
C26 C 0.4939(7) 0.3109(4) 0.6211(4)
H12 H 0.4984 0.2840 0.5682
C27 C 0.4880(9) 0.2227(4) 0.8619(4)
C28 C 0.4929(9) 0.1739(5) 0.9335(4)
N13 N 0.6863(6) 0.5816(3) 0.5375(3)
N18 N 0.6953(5) 0.4192(3) 0.4601(3)
C37 C 0.1941(7) 0.8413(4) 0.5247(3)
N5 N 0.4978(6) 0.9929(3) 0.6298(3)
C12 C 0.3375(7) 0.9833(4) 0.6807(4)
H5 H 0.2239 0.9912 0.6524
C13 C 0.3308(8) 0.9630(4) 0.7706(4)
H6 H 0.2150 0.9581 0.8032
C14 C 0.4954(9) 0.9496(4) 0.8142(4)
C15 C 0.6610(8) 0.9664(4) 0.7630(4)
H7 H 0.7757 0.9640 0.7904
C16 C 0.6574(7) 0.9865(4) 0.6723(4)
H8 H 0.7715 0.9963 0.6385
C17 C 0.4968(9) 0.9148(4) 0.9068(4)
C18 C 0.5018(10) 0.8763(5) 0.9827(4)
Fe7_2 Fe 0.5000 1.0000 0.5000
N14 N 0.6887(6) 0.9000(3) 0.5088(3)
N15 N 0.3102(6) 0.8998(3) 0.5149(3)
Pd2 Pd 0.99611(4) 0.73910(2) 0.53838(2)
C19 C 0.8006(6) 0.6370(4) 0.5448(4)
C20 C 0.8019(6) 0.8420(3) 0.5201(3)
C21 C 0.8090(6) 0.3640(3) 0.4521(3)
loop_
_geom_bond_atom_site_label_1
_geom_bond_atom_site_label_2
_geom_bond_site_symmetry_1
_geom_bond_site_symmetry_2
N11 C29 1_555 1_555
C29 H13 1_555 1_555
C30 C29 1_555 1_555
H14 C30 1_555 1_555
C31 C30 1_555 1_555
C32 C31 1_555 1_555
H15 C32 1_555 1_555
C33 N11 1_555 1_555
H16 C33 1_555 1_555
C34 C31 1_555 1_555
Fe7 N11 1_555 1_555
C32 C33 1_555 1_555
C34 C35 1_555 1_555
Pd3 C8 1_555 1_555
Fe1 N1 1_555 1_555
Fe7 N3 1_555 1_555
N1 C1 1_555 1_555
N2 Fe1 1_555 1_555
N3 C10 1_555 1_555
N4 Fe7 1_555 1_555
N6 Fe1 1_555 1_555
C1 H1 1_555 1_555
C2 C1 1_555 1_555
H2 C2 1_555 1_555
C3 C2 1_555 1_555
C4 C3 1_555 1_555
H3 C4 1_555 1_555
C5 N1 1_555 1_555
H4 C5 1_555 1_555
C6 C3 1_555 1_555
C7 C6 1_555 1_555
C8 N2 1_555 1_555
C9 N4 1_555 1_555
C10 Pd3 1_555 1_555
C11 N6 1_555 1_555
N10 Fe1 1_555 1_555
C22 N10 1_555 1_555
H9 C22 1_555 1_555
C23 C22 1_555 1_555
H10 C23 1_555 1_555
C24 C23 1_555 1_555
C25 C24 1_555 1_555
H11 C25 1_555 1_555
C26 N10 1_555 1_555
H12 C26 1_555 1_555
C27 C24 1_555 1_555
C28 C27 1_555 1_555
N13 Fe1 1_555 1_555
N18 Fe1 1_555 1_555
C4 C5 1_555 1_555
C25 C26 1_555 1_555
N5 C12 1_555 1_555
C12 H5 1_555 1_555
C13 C12 1_555 1_555
H6 C13 1_555 1_555
C14 C13 1_555 1_555
C15 C14 1_555 1_555
H7 C15 1_555 1_555
C16 N5 1_555 1_555
H8 C16 1_555 1_555
C17 C14 1_555 1_555
Fe7_2 N5 1_555 1_555
C15 C16 1_555 1_555
C17 C18 1_555 1_555
N14 Fe7_2 1_555 1_555
N15 Fe7_2 1_555 1_555
N13 C19 1_555 1_555
N14 C20 1_555 1_555
N18 C21 1_555 1_555
C19 Pd2 1_555 1_555
C20 Pd2 1_555 1_555
N15 C37 1_555 1_555

#END
