
###############################################################################
#
# This file contains modified crystal structure data generated from the
# MOF subset of the Cambridge Structural Database (CSD) v543 
# hosted by the Cambridge Crystallographic Data Centre (CCDC).
#
# This work is licensed under the Creative Commons
# Attribution-NonCommercial-ShareAlike 4.0 International License.
# To view a copy of this license, visit
# http://creativecommons.org/licenses/by-nc-sa/4.0/
# or send a letter to
# Creative Commons, PO Box 1866, Mountain View, CA 94042, USA.
#
# CIF created using the CSD Python API on 29 September 2022
# The structure has been converted into the P1 space group
# The structure has a 3D framework
# The original CSD entry RATGIF01 is in the monoclinic crystal system
# The framework has been calculated to contain at least 10.0% void space
# The void calculation uses a probe of radius 1.32A, grid spacing 0.4
#
###############################################################################

data_RATGIF01
_chemical_formula_moiety         '(C56 H24 Fe8 N16 Ni2)n'
_symmetry_cell_setting           triclinic
_symmetry_space_group_name_H-M   'P 1'
_symmetry_Int_Tables_number      1
_space_group_name_Hall           'P 1'
loop_
_symmetry_equiv_pos_site_id
_symmetry_equiv_pos_as_xyz
1 x,y,z
_cell_length_a                   13.5575(8)
_cell_length_b                   7.0586(3)
_cell_length_c                   15.6600(10)
_cell_angle_alpha                90
_cell_angle_beta                 100.703(2)
_cell_angle_gamma                90
_cell_volume                     1472.54
loop_
_atom_site_label
_atom_site_type_symbol
_atom_site_fract_x
_atom_site_fract_y
_atom_site_fract_z
Fe1 Fe 0.0000 -0.0000 0.0000
Fe6 Fe 0.5000 -0.0000 0.0000
N15 N 0.0911(4) -0.0000 0.1159(4)
Fe1_2 Fe 0.0000 -0.0000 1.0000
H1 H 0.0175 -0.0000 0.8154
Fe6_2 Fe 0.5000 -0.0000 1.0000
N14 N 0.0843(3) 0.1962(5) 0.9653(2)
Fe1_3 Fe 0.0000 1.0000 0.0000
Fe6_3 Fe 0.5000 1.0000 0.0000
N15_2 N 0.0911(4) 1.0000 0.1159(4)
Ni1 Ni 0.23954(6) 0.5000 0.96578(6)
Fe1_4 Fe 0.0000 1.0000 1.0000
N1 N 0.0843(3) 0.8038(5) 0.9653(2)
C1 C 0.1415(3) 0.6867(6) 0.9591(3)
H1_2 H 0.0175 1.0000 0.8154
C32 C 0.1415(3) 0.3133(6) 0.9591(3)
N11 N 0.3977(3) 0.1950(5) 0.9884(2)
C35 C 0.3377(3) 0.3124(6) 0.9793(3)
N12 N 0.3977(3) 0.8050(5) 0.9884(2)
C36 C 0.3377(3) 0.6876(6) 0.9793(3)
Fe6_4 Fe 0.5000 1.0000 1.0000
Fe1_5 Fe 1.0000 -0.0000 0.0000
N13 N 0.9157(3) 0.1962(5) 0.0347(2)
Fe1_6 Fe 1.0000 -0.0000 1.0000
N2 N 0.9089(4) -0.0000 0.8841(4)
N3 N 0.5112(4) -0.0000 0.1292(4)
C3 C 0.9466(5) -0.0000 0.8108(5)
C4 C 0.8874(6) -0.0000 0.7288(5)
H2 H 0.9174 -0.0000 0.6786
C5 C 0.7833(5) -0.0000 0.7205(5)
C6 C 0.7427(5) -0.0000 0.7971(5)
H3 H 0.6721 -0.0000 0.7944
C7 C 0.8082(5) -0.0000 0.8766(4)
H4 H 0.7808 -0.0000 0.9282
C8 C 0.7197(6) -0.0000 0.6361(5)
C9 C 0.6714(6) -0.0000 0.5639(5)
C10 C 0.6230(6) -0.0000 0.4794(5)
C11 C 0.5855(6) -0.0000 0.4035(5)
C12 C 0.5521(5) -0.0000 0.3110(5)
C15 C 0.5386(4) 0.1695(8) 0.2643(3)
H7 H 0.5435 0.2875 0.2940
C16 C 0.5182(3) 0.1643(7) 0.1747(3)
H8 H 0.5088 0.2805 0.1436
N17 N 0.6023(3) 0.1950(5) 0.0116(2)
N6 N 0.4888(4) -0.0000 0.8708(4)
C18 C 0.0534(5) -0.0000 0.1892(5)
C19 C 0.1126(6) -0.0000 0.2712(5)
H10 H 0.0826 -0.0000 0.3214
C20 C 0.2167(5) -0.0000 0.2795(5)
C21 C 0.2573(5) -0.0000 0.2029(5)
H11 H 0.3279 -0.0000 0.2056
C22 C 0.1918(5) -0.0000 0.1234(4)
H12 H 0.2192 -0.0000 0.0718
C23 C 0.2803(6) -0.0000 0.3639(5)
C24 C 0.3286(6) -0.0000 0.4361(5)
C25 C 0.3770(6) -0.0000 0.5206(5)
C26 C 0.4145(6) -0.0000 0.5965(5)
C27 C 0.4479(5) -0.0000 0.6890(5)
C30 C 0.4614(4) 0.1695(8) 0.7357(3)
H15 H 0.4565 0.2875 0.7060
C31 C 0.4818(3) 0.1643(7) 0.8253(3)
H16 H 0.4912 0.2805 0.8564
Fe1_7 Fe 1.0000 1.0000 0.0000
Ni2 Ni 0.76046(6) 0.5000 0.03422(6)
N9 N 0.9157(3) 0.8038(5) 0.0347(2)
C33 C 0.8585(3) 0.6867(6) 0.0409(3)
C34 C 0.8585(3) 0.3133(6) 0.0409(3)
C37 C 0.6623(3) 0.6876(6) 0.0207(3)
C38 C 0.6623(3) 0.3124(6) 0.0207(3)
Fe1_8 Fe 1.0000 1.0000 1.0000
N2_2 N 0.9089(4) 1.0000 0.8841(4)
N3_2 N 0.5112(4) 1.0000 0.1292(4)
N4 N 0.6023(3) 0.8050(5) 0.0116(2)
C3_2 C 0.9466(5) 1.0000 0.8108(5)
C4_2 C 0.8874(6) 1.0000 0.7288(5)
H2_2 H 0.9174 1.0000 0.6786
C5_2 C 0.7833(5) 1.0000 0.7205(5)
C6_2 C 0.7427(5) 1.0000 0.7971(5)
H3_2 H 0.6721 1.0000 0.7944
C7_2 C 0.8082(5) 1.0000 0.8766(4)
H4_2 H 0.7808 1.0000 0.9282
C8_2 C 0.7197(6) 1.0000 0.6361(5)
C9_2 C 0.6714(6) 1.0000 0.5639(5)
C10_2 C 0.6230(6) 1.0000 0.4794(5)
C11_2 C 0.5855(6) 1.0000 0.4035(5)
C12_2 C 0.5521(5) 1.0000 0.3110(5)
C13 C 0.5386(4) 0.8305(8) 0.2643(3)
H5 H 0.5435 0.7125 0.2940
C14 C 0.5182(3) 0.8357(7) 0.1747(3)
H6 H 0.5088 0.7195 0.1436
N6_2 N 0.4888(4) 1.0000 0.8708(4)
C18_2 C 0.0534(5) 1.0000 0.1892(5)
C19_2 C 0.1126(6) 1.0000 0.2712(5)
H10_2 H 0.0826 1.0000 0.3214
C20_2 C 0.2167(5) 1.0000 0.2795(5)
C21_2 C 0.2573(5) 1.0000 0.2029(5)
H11_2 H 0.3279 1.0000 0.2056
C22_2 C 0.1918(5) 1.0000 0.1234(4)
H12_2 H 0.2192 1.0000 0.0718
C23_2 C 0.2803(6) 1.0000 0.3639(5)
C24_2 C 0.3286(6) 1.0000 0.4361(5)
C25_2 C 0.3770(6) 1.0000 0.5206(5)
C26_2 C 0.4145(6) 1.0000 0.5965(5)
C27_2 C 0.4479(5) 1.0000 0.6890(5)
C28 C 0.4614(4) 0.8305(8) 0.7357(3)
H13 H 0.4565 0.7125 0.7060
C29 C 0.4818(3) 0.8357(7) 0.8253(3)
H14 H 0.4912 0.7195 0.8564
H9 H 0.9825 -0.0000 0.1846
H9_2 H 0.9825 1.0000 0.1846
loop_
_geom_bond_atom_site_label_1
_geom_bond_atom_site_label_2
_geom_bond_site_symmetry_1
_geom_bond_site_symmetry_2
N15 Fe1 1_555 1_555
N14 Fe1_2 1_555 1_555
N15_2 Fe1_3 1_555 1_555
Ni1 C1 1_555 1_555
Fe1_4 N1 1_555 1_555
N1 C1 1_555 1_555
N14 C32 1_555 1_555
C32 Ni1 1_555 1_555
N11 C35 1_555 1_555
C35 Ni1 1_555 1_555
N12 C36 1_555 1_555
C36 Ni1 1_555 1_555
Fe6_2 N11 1_555 1_555
Fe6_4 N12 1_555 1_555
N13 Fe1_5 1_555 1_555
Fe6 N3 1_555 1_555
N2 Fe1_6 1_555 1_555
C3 N2 1_555 1_555
C4 C3 1_555 1_555
H2 C4 1_555 1_555
C5 C4 1_555 1_555
C6 C5 1_555 1_555
H3 C6 1_555 1_555
C7 N2 1_555 1_555
H4 C7 1_555 1_555
C8 C5 1_555 1_555
C9 C8 1_555 1_555
C10 C9 1_555 1_555
C11 C10 1_555 1_555
C12 C11 1_555 1_555
C15 C12 1_555 1_555
H7 C15 1_555 1_555
C16 N3 1_555 1_555
H8 C16 1_555 1_555
N17 Fe6 1_555 1_555
C6 C7 1_555 1_555
C15 C16 1_555 1_555
N15 C18 1_555 1_555
N6 Fe6_2 1_555 1_555
C19 C18 1_555 1_555
H10 C19 1_555 1_555
C20 C19 1_555 1_555
C21 C20 1_555 1_555
H11 C21 1_555 1_555
C22 N15 1_555 1_555
H12 C22 1_555 1_555
C23 C20 1_555 1_555
C24 C23 1_555 1_555
C25 C24 1_555 1_555
C26 C25 1_555 1_555
C27 C26 1_555 1_555
C30 C27 1_555 1_555
H15 C30 1_555 1_555
C31 N6 1_555 1_555
H16 C31 1_555 1_555
C21 C22 1_555 1_555
C30 C31 1_555 1_555
Ni2 C33 1_555 1_555
N9 Fe1_7 1_555 1_555
C33 N9 1_555 1_555
N13 C34 1_555 1_555
C34 Ni2 1_555 1_555
C37 Ni2 1_555 1_555
C38 Ni2 1_555 1_555
Fe6_3 N3_2 1_555 1_555
N2_2 Fe1_8 1_555 1_555
N3_2 C14 1_555 1_555
N4 Fe6_3 1_555 1_555
C37 N4 1_555 1_555
C3_2 N2_2 1_555 1_555
C4_2 C3_2 1_555 1_555
H2_2 C4_2 1_555 1_555
C5_2 C4_2 1_555 1_555
C6_2 C5_2 1_555 1_555
H3_2 C6_2 1_555 1_555
C7_2 N2_2 1_555 1_555
H4_2 C7_2 1_555 1_555
C8_2 C5_2 1_555 1_555
C9_2 C8_2 1_555 1_555
C10_2 C9_2 1_555 1_555
C11_2 C10_2 1_555 1_555
C12_2 C11_2 1_555 1_555
C13 C12_2 1_555 1_555
H5 C13 1_555 1_555
C14 C13 1_555 1_555
H6 C14 1_555 1_555
C6_2 C7_2 1_555 1_555
N15_2 C18_2 1_555 1_555
N6_2 Fe6_4 1_555 1_555
C19_2 C18_2 1_555 1_555
H10_2 C19_2 1_555 1_555
C20_2 C19_2 1_555 1_555
C21_2 C20_2 1_555 1_555
H11_2 C21_2 1_555 1_555
C22_2 N15_2 1_555 1_555
H12_2 C22_2 1_555 1_555
C23_2 C20_2 1_555 1_555
C24_2 C23_2 1_555 1_555
C25_2 C24_2 1_555 1_555
C26_2 C25_2 1_555 1_555
C27_2 C26_2 1_555 1_555
C28 C27_2 1_555 1_555
H13 C28 1_555 1_555
C29 N6_2 1_555 1_555
H14 C29 1_555 1_555
C21_2 C22_2 1_555 1_555
C28 C29 1_555 1_555
N17 C38 1_555 1_555

#END
