
###############################################################################
#
# This file contains modified crystal structure data generated from the
# MOF subset of the Cambridge Structural Database (CSD) v543 
# hosted by the Cambridge Crystallographic Data Centre (CCDC).
#
# This work is licensed under the Creative Commons
# Attribution-NonCommercial-ShareAlike 4.0 International License.
# To view a copy of this license, visit
# http://creativecommons.org/licenses/by-nc-sa/4.0/
# or send a letter to
# Creative Commons, PO Box 1866, Mountain View, CA 94042, USA.
#
# CIF created using the CSD Python API on 29 September 2022
# The structure has been converted into the P1 space group
# The structure has a 3D framework
# The original CSD entry RAVKEG is in the monoclinic crystal system
# The framework has been calculated to contain at least 10.0% void space
# The void calculation uses a probe of radius 1.32A, grid spacing 0.4
#
###############################################################################

data_RAVKEG
_chemical_formula_moiety         '(C60 H56 Cd4 N12 O16)n'
_symmetry_cell_setting           triclinic
_symmetry_space_group_name_H-M   'P 1'
_symmetry_Int_Tables_number      1
_space_group_name_Hall           'P 1'
loop_
_symmetry_equiv_pos_site_id
_symmetry_equiv_pos_as_xyz
1 x,y,z
_cell_length_a                   11.443(4)
_cell_length_b                   9.828(3)
_cell_length_c                   19.074(7)
_cell_angle_alpha                90
_cell_angle_beta                 107.249(6)
_cell_angle_gamma                90
_cell_volume                     2048.62
loop_
_atom_site_label
_atom_site_type_symbol
_atom_site_fract_x
_atom_site_fract_y
_atom_site_fract_z
Cd6 Cd 0.34985(5) 0.18210(5) 0.24152(3)
H22 H 0.4389 0.0703 0.4183
C17 C 0.0562(7) 0.7433(9) 0.3716(5)
H16 H 0.1001 0.7945 0.4133
C18 C 0.1176(7) 0.6708(7) 0.3319(4)
C19 C 0.0488(8) 0.6007(8) 0.2720(5)
H17 H 0.0878 0.5488 0.2433
C21 C 0.2553(7) 0.6693(7) 0.3559(5)
H19 H 0.2838 0.6084 0.3230
H20 H 0.2848 0.6314 0.4062
C22 C 0.3632(8) 0.8808(8) 0.4148(5)
H21 H 0.3752 0.8578 0.4648
C23 C 0.3971(8) 0.9970(8) 0.3889(4)
C24 C 0.3092(7) 0.8746(7) 0.2947(4)
C25 C 0.2575(8) 0.8244(8) 0.2189(4)
H23 H 0.2680 0.8937 0.1843
H24 H 0.2999 0.7408 0.2125
H25 H 0.1701 0.8053 0.2096
N5 N 0.3084(6) 0.8028(6) 0.3554(4)
N6 N 0.3617(6) 0.9933(6) 0.3136(4)
Cd1 Cd 0.34985(5) 0.31790(5) 0.74152(3)
C1 C 0.0687(7) 0.2594(8) 0.6498(4)
H1 H 0.1096 0.2090 0.6216
C5 C 0.0769(8) 0.3948(8) 0.7469(5)
H4 H 0.1227 0.4414 0.7899
C11 C 0.4218(6) 0.3928(7) 0.4954(4)
H12 H 0.3667 0.3191 0.4920
C12 C 0.4604(6) 0.4658(7) 0.5605(4)
C13 C 0.5388(7) 0.5762(7) 0.5645(4)
C14 C 0.4200(8) 0.4201(7) 0.6249(4)
C15 C 0.5766(7) 0.6654(7) 0.6310(4)
N1 N 0.1371(6) 0.3284(6) 0.7078(3)
O1 O 0.4979(5) 0.4106(5) 0.6868(3)
O2 O 0.3621(6) 0.1043(6) 0.6928(4)
H13 H 0.3740 0.0443 0.7262
H14 H 0.4222 0.1023 0.6752
O3 O 0.3102(5) 0.3861(5) 0.6147(3)
O4 O 0.6882(5) 0.6820(5) 0.6610(3)
O5 O 0.4965(5) 0.7170(5) 0.6542(3)
Cd2 Cd 0.65015(5) 0.68210(5) 0.25848(3)
Cd4 Cd 0.65015(5) 0.81790(5) 0.75848(3)
C16 C 0.9313(7) 0.7406(8) 0.3502(4)
H15 H 0.8904 0.7910 0.3784
C20 C 0.9231(8) 0.6052(8) 0.2531(5)
H18 H 0.8773 0.5586 0.2101
C26 C 0.5782(6) 0.6072(7) 0.5046(4)
H26 H 0.6333 0.6809 0.5080
C27 C 0.5396(6) 0.5342(7) 0.4395(4)
C28 C 0.4612(7) 0.4238(7) 0.4355(4)
C29 C 0.5800(8) 0.5799(7) 0.3751(4)
C30 C 0.4234(7) 0.3346(7) 0.3690(4)
C31 C 0.4234(7) 0.1654(7) 0.8690(4)
C32 C 0.5766(7) 0.8346(7) 0.1310(4)
N4 N 0.8629(6) 0.6716(6) 0.2922(3)
N7 N 0.3617(6) 0.5067(6) 0.8136(4)
N8 N 0.6383(6) 0.4933(6) 0.1864(4)
O6 O 0.5021(5) 0.5894(5) 0.3132(3)
O7 O 0.6379(6) 0.8957(6) 0.3072(4)
H27 H 0.6260 0.9557 0.2738
H28 H 0.5778 0.8977 0.3248
O8 O 0.6898(5) 0.6139(5) 0.3853(3)
O9 O 0.3118(5) 0.3180(5) 0.3390(3)
O10 O 0.3118(5) 0.1820(5) 0.8390(3)
O11 O 0.6882(5) 0.8180(5) 0.1610(3)
O12 O 0.5035(5) 0.2830(5) 0.3458(3)
O13 O 0.5035(5) 0.2170(5) 0.8458(3)
O14 O 0.4965(5) 0.7830(5) 0.1542(3)
C2 C 0.9438(7) 0.2567(9) 0.6284(5)
H2 H 0.8999 0.2055 0.5867
C3 C 0.8824(7) 0.3292(7) 0.6681(4)
C4 C 0.9512(8) 0.3993(8) 0.7280(5)
H3 H 0.9122 0.4512 0.7567
C6 C 0.7447(7) 0.3307(7) 0.6441(5)
H5 H 0.7162 0.3916 0.6770
H6 H 0.7152 0.3686 0.5938
C7 C 0.6368(8) 0.1192(8) 0.5852(5)
H7 H 0.6248 0.1422 0.5352
C8 C 0.6029(8) 0.0030(8) 0.6111(4)
C9 C 0.6908(7) 0.1254(7) 0.7053(4)
C10 C 0.7425(8) 0.1756(8) 0.7811(4)
H9 H 0.7320 0.1063 0.8157
H10 H 0.7001 0.2592 0.7875
H11 H 0.8299 0.1947 0.7904
N2 N 0.6916(6) 0.1972(6) 0.6446(4)
N3 N 0.6383(6) 0.0067(6) 0.6864(4)
H8 H 0.5611 0.9297 0.5817
C2_2 C 0.0562(7) 0.7567(9) 0.8716(5)
H2_2 H 0.1001 0.7055 0.9133
C3_2 C 0.1176(7) 0.8292(7) 0.8319(4)
C4_2 C 0.0488(8) 0.8993(8) 0.7720(5)
H3_2 H 0.0878 0.9512 0.7433
C6_2 C 0.2553(7) 0.8307(7) 0.8559(5)
H5_2 H 0.2838 0.8916 0.8230
H6_2 H 0.2848 0.8686 0.9062
C7_2 C 0.3632(8) 0.6192(8) 0.9148(5)
H7_2 H 0.3752 0.6422 0.9648
C8_2 C 0.3971(8) 0.5030(8) 0.8889(4)
H8_2 H 0.4389 0.4297 0.9183
C9_2 C 0.3092(7) 0.6254(7) 0.7947(4)
C10_2 C 0.2575(8) 0.6756(8) 0.7189(4)
H9_2 H 0.2680 0.6063 0.6843
H10_2 H 0.2999 0.7592 0.7125
H11_2 H 0.1701 0.6947 0.7096
N2_2 N 0.3084(6) 0.6972(6) 0.8554(4)
C16_2 C 0.0687(7) 0.2406(8) 0.1498(4)
H15_2 H 0.1096 0.2910 0.1216
C20_2 C 0.0769(8) 0.1052(8) 0.2469(5)
H18_2 H 0.1227 0.0586 0.2899
C27_2 C 0.4604(6) 0.0342(7) 0.0605(4)
C29_2 C 0.4200(8) 0.0799(7) 0.1249(4)
N4_2 N 0.1371(6) 0.1716(6) 0.2078(3)
O6_2 O 0.4979(5) 0.0894(5) 0.1868(3)
O7_2 O 0.3621(6) 0.3957(6) 0.1928(4)
H27_2 H 0.3740 0.4557 0.2262
H28_2 H 0.4222 0.3977 0.1752
O8_2 O 0.3102(5) 0.1139(5) 0.1147(3)
C13_2 C 0.4612(7) 0.0762(7) 0.9355(4)
C26_2 C 0.4218(6) 0.1072(7) 0.9954(4)
H26_2 H 0.3667 0.1809 0.9920
C11_2 C 0.5782(6) 0.8928(7) 0.0046(4)
H12_2 H 0.6333 0.8191 0.0080
C28_2 C 0.5388(7) 0.9238(7) 0.0645(4)
C1_2 C 0.9313(7) 0.7594(8) 0.8502(4)
H1_2 H 0.8904 0.7090 0.8784
C5_2 C 0.9231(8) 0.8948(8) 0.7531(5)
H4_2 H 0.8773 0.9414 0.7101
C12_2 C 0.5396(6) 0.9658(7) 0.9395(4)
C14_2 C 0.5800(8) 0.9201(7) 0.8751(4)
N1_2 N 0.8629(6) 0.8284(6) 0.7922(3)
O1_2 O 0.5021(5) 0.9106(5) 0.8132(3)
O2_2 O 0.6379(6) 0.6043(6) 0.8072(4)
H13_2 H 0.6260 0.5443 0.7738
H14_2 H 0.5778 0.6023 0.8248
O3_2 O 0.6898(5) 0.8861(5) 0.8853(3)
C17_2 C 0.9438(7) 0.2433(9) 0.1284(5)
H16_2 H 0.8999 0.2945 0.0867
C18_2 C 0.8824(7) 0.1708(7) 0.1681(4)
C19_2 C 0.9512(8) 0.1007(8) 0.2280(5)
H17_2 H 0.9122 0.0488 0.2567
C21_2 C 0.7447(7) 0.1693(7) 0.1441(5)
H19_2 H 0.7162 0.1084 0.1770
H20_2 H 0.7152 0.1314 0.0938
C22_2 C 0.6368(8) 0.3808(8) 0.0852(5)
H21_2 H 0.6248 0.3578 0.0352
C23_2 C 0.6029(8) 0.4970(8) 0.1111(4)
H22_2 H 0.5611 0.5703 0.0817
C24_2 C 0.6908(7) 0.3746(7) 0.2053(4)
C25_2 C 0.7425(8) 0.3244(8) 0.2811(4)
H23_2 H 0.7320 0.3937 0.3157
H24_2 H 0.7001 0.2408 0.2875
H25_2 H 0.8299 0.3053 0.2904
N5_2 N 0.6916(6) 0.3028(6) 0.1446(4)
loop_
_geom_bond_atom_site_label_1
_geom_bond_atom_site_label_2
_geom_bond_site_symmetry_1
_geom_bond_site_symmetry_2
H16 C17 1_555 1_555
C18 C17 1_555 1_555
C19 C18 1_555 1_555
H17 C19 1_555 1_555
C21 C18 1_555 1_555
H19 C21 1_555 1_555
H20 C21 1_555 1_555
C22 H21 1_555 1_555
C23 C22 1_555 1_555
C24 C25 1_555 1_555
C25 H23 1_555 1_555
H24 C25 1_555 1_555
H25 C25 1_555 1_555
N5 C21 1_555 1_555
N6 C23 1_555 1_555
C22 N5 1_555 1_555
C24 N5 1_555 1_555
C24 N6 1_555 1_555
Cd1 N1 1_555 1_555
C1 H1 1_555 1_555
H4 C5 1_555 1_555
C11 H12 1_555 1_555
C12 C11 1_555 1_555
C13 C12 1_555 1_555
C14 C12 1_555 1_555
C15 C13 1_555 1_555
N1 C1 1_555 1_555
O1 Cd1 1_555 1_555
O2 Cd1 1_555 1_555
H13 O2 1_555 1_555
H14 O2 1_555 1_555
O3 Cd1 1_555 1_555
O4 C15 1_555 1_555
O5 C15 1_555 1_555
Cd2 N4 1_555 1_555
Cd4 O4 1_555 1_555
Cd6 O9 1_555 1_555
C16 H15 1_555 1_555
H18 C20 1_555 1_555
C26 C13 1_555 1_555
H26 C26 1_555 1_555
C27 C26 1_555 1_555
C28 C11 1_555 1_555
C29 C27 1_555 1_555
C30 C28 1_555 1_555
C31 O10 1_555 1_555
C32 O11 1_555 1_555
N4 C16 1_555 1_555
N7 Cd1 1_555 1_555
N8 Cd2 1_555 1_555
O6 Cd2 1_555 1_555
O7 Cd2 1_555 1_555
H27 O7 1_555 1_555
H28 O7 1_555 1_555
O8 Cd2 1_555 1_555
O9 C30 1_555 1_555
O10 Cd1 1_555 1_555
O11 Cd2 1_555 1_555
O12 Cd6 1_555 1_555
O13 Cd1 1_555 1_555
O14 Cd2 1_555 1_555
C5 N1 1_555 1_555
C14 O1 1_555 1_555
C14 O3 1_555 1_555
O5 Cd4 1_555 1_555
C20 N4 1_555 1_555
C27 C28 1_555 1_555
C29 O6 1_555 1_555
C29 O8 1_555 1_555
C30 O12 1_555 1_555
C31 O13 1_555 1_555
C32 O14 1_555 1_555
H2 C2 1_555 1_555
C3 C2 1_555 1_555
C4 C3 1_555 1_555
H3 C4 1_555 1_555
C6 C3 1_555 1_555
H5 C6 1_555 1_555
H6 C6 1_555 1_555
C7 H7 1_555 1_555
C8 C7 1_555 1_555
C9 C10 1_555 1_555
C10 H9 1_555 1_555
H10 C10 1_555 1_555
H11 C10 1_555 1_555
N2 C6 1_555 1_555
N3 C8 1_555 1_555
C7 N2 1_555 1_555
C9 N2 1_555 1_555
C9 N3 1_555 1_555
H2_2 C2_2 1_555 1_555
C3_2 C2_2 1_555 1_555
C4_2 C3_2 1_555 1_555
H3_2 C4_2 1_555 1_555
C6_2 C3_2 1_555 1_555
H5_2 C6_2 1_555 1_555
H6_2 C6_2 1_555 1_555
C7_2 H7_2 1_555 1_555
C8_2 C7_2 1_555 1_555
H8_2 C8_2 1_555 1_555
C9_2 C10_2 1_555 1_555
C10_2 H9_2 1_555 1_555
H10_2 C10_2 1_555 1_555
H11_2 C10_2 1_555 1_555
N2_2 C6_2 1_555 1_555
N7 C8_2 1_555 1_555
C7_2 N2_2 1_555 1_555
C9_2 N2_2 1_555 1_555
C9_2 N7 1_555 1_555
Cd6 N4_2 1_555 1_555
C16_2 H15_2 1_555 1_555
H18_2 C20_2 1_555 1_555
C29_2 C27_2 1_555 1_555
N4_2 C16_2 1_555 1_555
O6_2 Cd6 1_555 1_555
O7_2 Cd6 1_555 1_555
H27_2 O7_2 1_555 1_555
H28_2 O7_2 1_555 1_555
O8_2 Cd6 1_555 1_555
C20_2 N4_2 1_555 1_555
C29_2 O6_2 1_555 1_555
C29_2 O8_2 1_555 1_555
C31 C13_2 1_555 1_555
C26_2 C13_2 1_555 1_555
H26_2 C26_2 1_555 1_555
C11_2 H12_2 1_555 1_555
C28_2 C11_2 1_555 1_555
C32 C28_2 1_555 1_555
Cd4 N1_2 1_555 1_555
C1_2 H1_2 1_555 1_555
H4_2 C5_2 1_555 1_555
C14_2 C12_2 1_555 1_555
N1_2 C1_2 1_555 1_555
O1_2 Cd4 1_555 1_555
O2_2 Cd4 1_555 1_555
H13_2 O2_2 1_555 1_555
H14_2 O2_2 1_555 1_555
O3_2 Cd4 1_555 1_555
C5_2 N1_2 1_555 1_555
C14_2 O1_2 1_555 1_555
C14_2 O3_2 1_555 1_555
H16_2 C17_2 1_555 1_555
C18_2 C17_2 1_555 1_555
C19_2 C18_2 1_555 1_555
H17_2 C19_2 1_555 1_555
C21_2 C18_2 1_555 1_555
H19_2 C21_2 1_555 1_555
H20_2 C21_2 1_555 1_555
C22_2 H21_2 1_555 1_555
C23_2 C22_2 1_555 1_555
H22_2 C23_2 1_555 1_555
C24_2 C25_2 1_555 1_555
C25_2 H23_2 1_555 1_555
H24_2 C25_2 1_555 1_555
H25_2 C25_2 1_555 1_555
N5_2 C21_2 1_555 1_555
N8 C23_2 1_555 1_555
C22_2 N5_2 1_555 1_555
C24_2 N5_2 1_555 1_555
C24_2 N8 1_555 1_555

#END
