
###############################################################################
#
# This file contains modified crystal structure data generated from the
# MOF subset of the Cambridge Structural Database (CSD) v543 
# hosted by the Cambridge Crystallographic Data Centre (CCDC).
#
# This work is licensed under the Creative Commons
# Attribution-NonCommercial-ShareAlike 4.0 International License.
# To view a copy of this license, visit
# http://creativecommons.org/licenses/by-nc-sa/4.0/
# or send a letter to
# Creative Commons, PO Box 1866, Mountain View, CA 94042, USA.
#
# CIF created using the CSD Python API on 29 September 2022
# The structure has been converted into the P1 space group
# The structure has a 3D framework
# The original CSD entry RAVVOA01 is in the monoclinic crystal system
# The framework has been calculated to contain at least 10.0% void space
# The void calculation uses a probe of radius 1.32A, grid spacing 0.4
#
###############################################################################

data_RAVVOA01
_chemical_formula_moiety         '(C24 H24 Co20 O48)n'
_symmetry_cell_setting           triclinic
_symmetry_space_group_name_H-M   'P 1'
_symmetry_Int_Tables_number      1
_space_group_name_Hall           'P 1'
loop_
_symmetry_equiv_pos_site_id
_symmetry_equiv_pos_as_xyz
1 x,y,z
_cell_length_a                   11.2858(4)
_cell_length_b                   9.8690(4)
_cell_length_c                   18.1797(6)
_cell_angle_alpha                90
_cell_angle_beta                 127.193(2)
_cell_angle_gamma                90
_cell_volume                     1613
loop_
_atom_site_label
_atom_site_type_symbol
_atom_site_fract_x
_atom_site_fract_y
_atom_site_fract_z
Co14 Co 0.0000 0.0000 0.0000
Co14_2 Co 0.0000 0.0000 1.0000
Co14_3 Co 0.0000 1.0000 0.0000
Co14_4 Co 0.0000 1.0000 1.0000
Co1 Co 0.37780(5) 0.07788(4) 0.13315(3)
Co3 Co 0.5000 0.0000 0.0000
O1 O 0.4371(2) 0.19830(19) 0.24532(13)
O2 O 0.5507(3) 0.0577(2) 0.36741(14)
O4 O 0.6813(3) 0.0047(2) 0.13954(15)
O5 O 0.4551(3) 0.25505(19) 0.10878(14)
O11 O 0.1642(2) 0.1533(2) 0.06063(13)
O12 O 0.2052(3) 0.3761(2) 0.09180(15)
C1 C 0.4993(4) 0.1707(3) 0.3299(2)
C3 C 0.4693(4) 0.2873(3) 0.0471(2)
C6 C 0.1218(4) 0.2775(3) 0.0504(2)
H1 H 0.511(3) 0.255(3) 0.3701(17)
H3 H 0.475(4) 0.386(3) 0.038(2)
H6 H 0.013(4) 0.299(3) 0.005(2)
Co7 Co 0.62220(5) 0.57788(4) 0.36685(3)
Co9 Co 0.43018(5) 0.38772(4) 0.18979(3)
Co12 Co 0.56982(5) 0.88772(4) 0.31021(3)
Co13 Co 0.5000 0.5000 0.5000
Co14_5 Co 1.0000 0.0000 0.0000
O15 O 0.5629(2) 0.69830(19) 0.25468(13)
O17 O 0.4493(3) 0.5577(2) 0.13259(14)
O19 O 0.4108(3) 0.4932(2) 0.28158(14)
O21 O 0.3187(3) 0.5047(2) 0.36046(15)
O26 O 0.6549(3) 0.4155(2) 0.30516(14)
O29 O 0.8848(3) 0.1147(2) 0.03321(15)
C7 C 0.5007(4) 0.6707(3) 0.1701(2)
C9 C 0.3069(4) 0.4855(3) 0.2889(2)
C11 C 0.7746(4) 0.1061(3) 0.0298(2)
H7 H 0.489(3) 0.755(3) 0.1299(17)
H9 H 0.216(4) 0.462(3) 0.236(2)
H11 H 0.766(4) 0.156(3) 0.068(2)
Co2 Co 0.43018(5) 0.11228(4) 0.68979(3)
Co3_2 Co 0.5000 0.0000 1.0000
O6 O 0.4794(3) 0.2082(2) 0.99776(15)
Co14_6 Co 1.0000 0.0000 1.0000
O14 O 0.4371(2) 0.30170(19) 0.74532(13)
O18 O 0.4108(3) 0.0068(2) 0.78158(14)
O23 O 0.4551(3) 0.24495(19) 0.60878(14)
O25 O 0.6549(3) 0.0845(2) 0.80516(14)
O28 O 0.6610(3) 0.0275(2) 0.97640(14)
O33 O 0.2052(3) 0.1239(2) 0.59180(15)
C8 C 0.3069(4) 0.0145(3) 0.7889(2)
H8 H 0.216(4) 0.038(3) 0.736(2)
Co3_3 Co 0.5000 1.0000 0.0000
O3 O 0.5892(3) 0.9932(2) 0.21842(14)
O7 O 0.3451(3) 0.9155(2) 0.19484(14)
O8 O 0.1007(3) 0.8943(2) 0.12313(16)
O9 O 0.3390(3) 0.9725(2) 0.02360(14)
C2 C 0.6931(4) 0.9855(3) 0.2111(2)
C4 C 0.2310(4) 0.8697(3) 0.1858(2)
H2 H 0.784(4) 0.962(3) 0.264(2)
H4 H 0.256(4) 0.800(3) 0.235(2)
Co14_7 Co 1.0000 1.0000 0.0000
O24 O 0.5206(3) 0.7918(2) 0.00224(15)
Co3_4 Co 0.5000 1.0000 1.0000
O10 O 0.1152(3) 0.8853(2) 0.96679(15)
C5 C 0.2254(4) 0.8939(3) 0.9702(2)
H5 H 0.234(4) 0.844(3) 0.932(2)
Co5 Co 0.62220(5) 0.92212(4) 0.86685(3)
Co10 Co 0.56982(5) 0.61228(4) 0.81021(3)
Co14_8 Co 1.0000 1.0000 1.0000
O13 O 0.5629(2) 0.80170(19) 0.75468(13)
O16 O 0.4493(3) 0.9423(2) 0.63259(14)
O20 O 0.3187(3) 0.9953(2) 0.86046(15)
O22 O 0.5449(3) 0.74495(19) 0.89122(14)
O32 O 0.8358(2) 0.8467(2) 0.93937(13)
C10 C 0.5307(4) 0.7127(3) 0.9529(2)
H10 H 0.525(4) 0.614(3) 0.962(2)
O27 O 0.8993(3) 0.1057(2) 0.87687(16)
O34 O 0.7948(3) 0.6239(2) 0.90820(15)
C12 C 0.8782(4) 0.7225(3) 0.9496(2)
H12 H 0.987(4) 0.701(3) 0.995(2)
Co4 Co 0.0000 0.5000 0.5000
Co6 Co 0.37780(5) 0.42212(4) 0.63315(3)
O27_2 O 0.1007(3) 0.6057(2) 0.62313(16)
O30 O 0.1152(3) 0.6147(2) 0.46679(15)
O31 O 0.1642(2) 0.3467(2) 0.56063(13)
C12_2 C 0.1218(4) 0.2225(3) 0.5504(2)
H12_2 H 0.013(4) 0.201(3) 0.505(2)
Co4_2 Co 1.0000 0.5000 0.5000
O5_2 O 0.5449(3) 0.75505(19) 0.39122(14)
O6_2 O 0.5206(3) 0.7082(2) 0.50224(15)
O8_2 O 0.8993(3) 0.3943(2) 0.37687(16)
O9_2 O 0.6610(3) 0.4725(2) 0.47640(14)
O10_2 O 0.8848(3) 0.3853(2) 0.53321(15)
O11_2 O 0.8358(2) 0.6533(2) 0.43937(13)
O12_2 O 0.7948(3) 0.8761(2) 0.40820(15)
C3_2 C 0.5307(4) 0.7873(3) 0.4529(2)
C4_2 C 0.7690(4) 0.3697(3) 0.3142(2)
C5_2 C 0.7746(4) 0.3939(3) 0.5298(2)
C6_2 C 0.8782(4) 0.7775(3) 0.4496(2)
H3_2 H 0.525(4) 0.886(3) 0.462(2)
H4_2 H 0.744(4) 0.300(3) 0.265(2)
H5_2 H 0.766(4) 0.344(3) 0.568(2)
H6_2 H 0.987(4) 0.799(3) 0.495(2)
O16_2 O 0.5507(3) 0.4423(2) 0.86741(14)
O18_2 O 0.5892(3) 0.5068(2) 0.71842(14)
O20_2 O 0.6813(3) 0.4953(2) 0.63954(15)
O24_2 O 0.4794(3) 0.2918(2) 0.49776(15)
O25_2 O 0.3451(3) 0.5845(2) 0.69484(14)
O28_2 O 0.3390(3) 0.5275(2) 0.52360(14)
C8_2 C 0.6931(4) 0.5145(3) 0.7111(2)
C10_2 C 0.4693(4) 0.2127(3) 0.5471(2)
C11_2 C 0.2254(4) 0.6061(3) 0.4702(2)
H8_2 H 0.784(4) 0.538(3) 0.764(2)
H10_2 H 0.475(4) 0.114(3) 0.538(2)
H11_2 H 0.234(4) 0.656(3) 0.432(2)
C4_3 C 0.7690(4) 0.1303(3) 0.8142(2)
H4_3 H 0.744(4) 0.200(3) 0.765(2)
C1_2 C 0.5007(4) 0.8293(3) 0.6701(2)
H1_2 H 0.489(3) 0.745(3) 0.6299(17)
C7_2 C 0.4993(4) 0.3293(3) 0.8299(2)
H7_2 H 0.511(3) 0.245(3) 0.8701(17)
C4_4 C 0.2310(4) 0.6303(3) 0.6858(2)
H4_4 H 0.256(4) 0.700(3) 0.735(2)
loop_
_geom_bond_atom_site_label_1
_geom_bond_atom_site_label_2
_geom_bond_site_symmetry_1
_geom_bond_site_symmetry_2
Co1 O1 1_555 1_555
Co3 O4 1_555 1_555
O1 C1 1_555 1_555
O2 C1 1_555 1_555
O5 Co1 1_555 1_555
O11 Co1 1_555 1_555
O12 C6 1_555 1_555
C1 H1 1_555 1_555
C3 O5 1_555 1_555
C6 O11 1_555 1_555
H3 C3 1_555 1_555
H6 C6 1_555 1_555
Co7 O15 1_555 1_555
Co9 O1 1_555 1_555
Co12 O15 1_555 1_555
Co13 O21 1_555 1_555
Co14_5 O29 1_555 1_555
O15 C7 1_555 1_555
O17 Co9 1_555 1_555
O19 Co7 1_555 1_555
O21 C9 1_555 1_555
O26 Co7 1_555 1_555
O29 C11 1_555 1_555
C7 O17 1_555 1_555
C9 O19 1_555 1_555
H7 C7 1_555 1_555
H9 C9 1_555 1_555
H11 C11 1_555 1_555
Co14 O11 1_555 1_555
O5 Co9 1_555 1_555
O12 Co9 1_555 1_555
Co9 O19 1_555 1_555
Co9 O26 1_555 1_555
Co2 O14 1_555 1_555
O6 Co3_2 1_555 1_555
O18 Co2 1_555 1_555
O23 Co2 1_555 1_555
O25 Co2 1_555 1_555
O28 Co3_2 1_555 1_555
O33 Co2 1_555 1_555
C8 O18 1_555 1_555
H8 C8 1_555 1_555
Co14_3 O8 1_555 1_555
O8 C4 1_555 1_555
C2 O3 1_555 1_555
C4 O7 1_555 1_555
H2 C2 1_555 1_555
H4 C4 1_555 1_555
O24 Co3_3 1_555 1_555
Co3_3 O9 1_555 1_555
O3 Co12 1_555 1_555
O7 Co12 1_555 1_555
O10 Co14_4 1_555 1_555
H5 C5 1_555 1_555
Co5 O13 1_555 1_555
Co10 O13 1_555 1_555
O20 Co3_4 1_555 1_555
O22 Co5 1_555 1_555
O32 Co5 1_555 1_555
C10 O22 1_555 1_555
H10 C10 1_555 1_555
O10 C5 1_555 1_555
Co10 O22 1_555 1_555
Co14_8 O32 1_555 1_555
O27 Co14_6 1_555 1_555
Co10 O34 1_555 1_555
O34 C12 1_555 1_555
C12 O32 1_555 1_555
H12 C12 1_555 1_555
Co6 O31 1_555 1_555
O27_2 Co4 1_555 1_555
O30 Co4 1_555 1_555
O31 Co4 1_555 1_555
O33 C12_2 1_555 1_555
C12_2 O31 1_555 1_555
H12_2 C12_2 1_555 1_555
Co4_2 O8_2 1_555 1_555
O5_2 Co7 1_555 1_555
O6_2 Co13 1_555 1_555
O8_2 C4_2 1_555 1_555
O9_2 Co7 1_555 1_555
O10_2 Co4_2 1_555 1_555
O11_2 Co7 1_555 1_555
O12_2 C6_2 1_555 1_555
C3_2 O5_2 1_555 1_555
C4_2 O26 1_555 1_555
C5_2 O9_2 1_555 1_555
C6_2 O11_2 1_555 1_555
H3_2 C3_2 1_555 1_555
H4_2 C4_2 1_555 1_555
H5_2 C5_2 1_555 1_555
H6_2 C6_2 1_555 1_555
Co6 O14 1_555 1_555
O16_2 Co10 1_555 1_555
O18_2 Co10 1_555 1_555
O20_2 Co13 1_555 1_555
O23 Co6 1_555 1_555
O24_2 Co13 1_555 1_555
O25_2 Co10 1_555 1_555
O28_2 Co13 1_555 1_555
O30 C11_2 1_555 1_555
C8_2 O18_2 1_555 1_555
C10_2 O23 1_555 1_555
C11_2 O28_2 1_555 1_555
H8_2 C8_2 1_555 1_555
H10_2 C10_2 1_555 1_555
H11_2 C11_2 1_555 1_555
Co13 O9_2 1_555 1_555
Co4_2 O11_2 1_555 1_555
O5_2 Co12 1_555 1_555
O6_2 C3_2 1_555 1_555
O10_2 C5_2 1_555 1_555
O12_2 Co12 1_555 1_555
Co6 O18_2 1_555 1_555
Co6 O25_2 1_555 1_555
Co6 O28_2 1_555 1_555
O20_2 C8_2 1_555 1_555
O24_2 C10_2 1_555 1_555
O27 C4_3 1_555 1_555
C4_3 O25 1_555 1_555
H4_3 C4_3 1_555 1_555
O13 C1_2 1_555 1_555
O16 C1_2 1_555 1_555
C1_2 H1_2 1_555 1_555
O14 C7_2 1_555 1_555
C7_2 O16_2 1_555 1_555
H7_2 C7_2 1_555 1_555
O27_2 C4_4 1_555 1_555
C4_4 O25_2 1_555 1_555
H4_4 C4_4 1_555 1_555

#END
