
###############################################################################
#
# This file contains modified crystal structure data generated from the
# MOF subset of the Cambridge Structural Database (CSD) v543 
# hosted by the Cambridge Crystallographic Data Centre (CCDC).
#
# This work is licensed under the Creative Commons
# Attribution-NonCommercial-ShareAlike 4.0 International License.
# To view a copy of this license, visit
# http://creativecommons.org/licenses/by-nc-sa/4.0/
# or send a letter to
# Creative Commons, PO Box 1866, Mountain View, CA 94042, USA.
#
# CIF created using the CSD Python API on 29 September 2022
# The structure has been converted into the P1 space group
# The structure has a 3D framework
# The original CSD entry RAVVUH is in the rhombohedral crystal system
# The framework has been calculated to contain at least 10.0% void space
# The void calculation uses a probe of radius 1.32A, grid spacing 0.4
# H atom positions have been added when not included in the experimental data
# Generated hydrogen atom positions removed from atoms on special positions
#
###############################################################################

data_RAVVUH
_chemical_formula_moiety         '(C126 H108 Mg18 O70)n'
_symmetry_cell_setting           triclinic
_symmetry_space_group_name_H-M   'P 1'
_symmetry_Int_Tables_number      1
_space_group_name_Hall           'P 1'
loop_
_symmetry_equiv_pos_site_id
_symmetry_equiv_pos_as_xyz
1 x,y,z
_cell_length_a                   36.2552
_cell_length_b                   36.2552
_cell_length_c                   6.8482
_cell_angle_alpha                90
_cell_angle_beta                 90
_cell_angle_gamma                120
_cell_volume                     7795.57
loop_
_atom_site_label
_atom_site_type_symbol
_atom_site_fract_x
_atom_site_fract_y
_atom_site_fract_z
C8 C 0.32570 0.04210 0.09771
Mg2 Mg 0.31125 0.00380 0.48572
O5 O 0.31588 0.04246 0.27917
O6 O 0.33324 0.01364 0.03593
O10 O 0.34707 0.00010 0.36927
O14 O 0.34957 0.05126 0.66573
C14 C 0.31235 0.10735 0.03504
H5 H 0.30143 0.10461 0.18538
C1 C 0.34097 0.29123 0.23562
C2 C 0.33948 0.25794 0.36917
C3 C 0.32912 0.25517 0.57199
O1 O 0.35079 0.29087 0.05416
O2 O 0.33343 0.31969 0.29740
O3 O 0.31710 0.28207 0.66760
C4 C 0.32995 0.21843 0.68570
C5 C 0.33869 0.18714 0.60873
C6 C 0.35274 0.19326 0.41295
C7 C 0.35432 0.22598 0.29829
H1 H 0.32050 0.21738 0.83564
H2 H 0.36524 0.22872 0.14795
H3 H 0.36298 0.17313 0.34284
C9 C 0.32719 0.07539 0.96416
C10 C 0.33755 0.07816 0.76134
Mg3 Mg 0.30744 0.31125 0.51428
Mg4 Mg 0.33714 0.35922 0.18094
Mg5 Mg 0.35542 0.32953 0.84761
Mg6 Mg 0.35922 0.02209 0.81906
O13 O 0.38460 0.36836 0.00093
C11 C 0.33672 0.11490 0.64763
C12 C 0.32798 0.14619 0.72460
C13 C 0.31393 0.14007 0.92038
H4 H 0.34617 0.11595 0.49769
H6 H 0.30369 0.16020 0.99049
O4 O 0.40866 0.33646 0.76792
O7 O 0.34698 0.34707 0.63073
O8 O 0.31959 0.33324 0.96407
Mg7 Mg 0.32953 0.97411 0.15239
O9 O 0.31969 0.98626 0.70260
O15 O 0.28207 0.96497 0.33240
O16 O 0.25801 0.99687 0.56541
H9 H 0.237437 0.985006 0.455589
H10 H 0.247015 0.97706 0.678287
Mg7_2 Mg 0.02589 0.35542 0.15239
O9_2 O 0.01374 0.33343 0.70260
O15_2 O 0.03503 0.31710 0.33240
O16_2 O 0.00313 0.26113 0.56541
H9_2 H 0.0149942 0.252432 0.455589
H10_2 H 0.02294 0.269955 0.678287
C8_2 C 0.95790 0.28359 0.09771
Mg2_2 Mg 0.99620 0.30744 0.48572
O5_2 O 0.95754 0.27341 0.27917
O6_2 O 0.98636 0.31959 0.03593
O10_2 O 0.99990 0.34698 0.36927
O14_2 O 0.94874 0.29830 0.66573
C14_2 C 0.89265 0.20499 0.03504
H5_2 H 0.89539 0.19681 0.18538
C1_2 C 0.70877 0.04974 0.23562
C2_2 C 0.74206 0.08154 0.36917
C3_2 C 0.74483 0.07395 0.57199
O1_2 O 0.70913 0.05992 0.05416
O2_2 O 0.68031 0.01374 0.29740
O3_2 O 0.71793 0.03503 0.66760
C4_2 C 0.78157 0.11152 0.68570
C5_2 C 0.81286 0.15155 0.60873
C6_2 C 0.80674 0.15948 0.41295
C7_2 C 0.77402 0.12834 0.29829
H1_2 H 0.78262 0.10312 0.83564
H2_2 H 0.77128 0.13652 0.14795
H3_2 H 0.82687 0.18985 0.34284
C9_2 C 0.92461 0.25179 0.96416
C10_2 C 0.92184 0.25938 0.76134
Mg5_2 Mg 0.67047 0.02589 0.84761
Mg6_2 Mg 0.97791 0.33714 0.81906
O13_2 O 0.63164 0.01623 0.00093
C11_2 C 0.88510 0.22181 0.64763
C12_2 C 0.85381 0.18178 0.72460
C13_2 C 0.85993 0.17385 0.92038
H4_2 H 0.88405 0.23021 0.49769
H6_2 H 0.83980 0.14348 0.99049
O4_2 O 0.66354 0.07220 0.76792
Mg3_2 Mg 0.68875 0.99620 0.51428
Mg4_2 Mg 0.64078 0.97791 0.18094
O7_2 O 0.65293 0.99990 0.63073
O8_2 O 0.66676 0.98636 0.96407
Mg3_3 Mg 0.00380 0.69256 0.51428
Mg4_3 Mg 0.02209 0.66286 0.18094
O7_3 O 0.00010 0.65302 0.63073
O8_3 O 0.01364 0.68041 0.96407
C8_3 C 0.71641 0.67430 0.09771
Mg2_3 Mg 0.69256 0.68875 0.48572
Mg7_3 Mg 0.64458 0.67047 0.15239
O5_3 O 0.72659 0.68412 0.27917
O6_3 O 0.68041 0.66676 0.03593
O9_3 O 0.66657 0.68031 0.70260
O10_3 O 0.65302 0.65293 0.36927
O14_3 O 0.70170 0.65043 0.66573
O15_3 O 0.68290 0.71793 0.33240
O16_3 O 0.73887 0.74199 0.56541
C14_3 C 0.79501 0.68765 0.03504
H5_3 H 0.80319 0.69857 0.18538
C1_3 C 0.95026 0.65903 0.23562
C2_3 C 0.91846 0.66052 0.36917
C3_3 C 0.92605 0.67088 0.57199
O1_3 O 0.94008 0.64921 0.05416
O2_3 O 0.98626 0.66657 0.29740
O3_3 O 0.96497 0.68290 0.66760
C4_3 C 0.88848 0.67005 0.68570
C5_3 C 0.84845 0.66131 0.60873
C6_3 C 0.84052 0.64726 0.41295
C7_3 C 0.87166 0.64568 0.29829
H1_3 H 0.89688 0.67950 0.83564
H2_3 H 0.86348 0.63476 0.14795
H3_3 H 0.81015 0.63702 0.34284
C9_3 C 0.74821 0.67281 0.96416
C10_3 C 0.74062 0.66245 0.76134
Mg5_3 Mg 0.97411 0.64458 0.84761
Mg6_3 Mg 0.66286 0.64078 0.81906
O13_3 O 0.98377 0.61540 0.00093
C11_3 C 0.77819 0.66328 0.64763
C12_3 C 0.81822 0.67202 0.72460
C13_3 C 0.82615 0.68607 0.92038
H4_3 H 0.76979 0.65383 0.49769
H6_3 H 0.85652 0.69631 0.99049
O4_3 O 0.92780 0.59134 0.76792
C10_4 C 0.00421 0.41150 0.09468
O14_4 O 0.01623 0.38460 0.99907
C1_4 C 0.00764 0.62456 0.56895
C2_4 C 0.00615 0.59127 0.70250
O1_4 O 0.01746 0.62420 0.38749
O4_4 O 0.07533 0.66979 0.10125
C5_4 C 0.00536 0.52047 0.94206
C6_4 C 0.01941 0.52659 0.74628
C7_4 C 0.02099 0.55931 0.63162
H2_4 H 0.03191 0.56205 0.48128
H3_4 H 0.02965 0.50646 0.67617
O13_4 O 0.05126 0.70170 0.33427
C11_4 C 0.00338 0.44824 0.98097
H4_4 H 0.01283 0.44929 0.83103
H7 H 0.0716225 0.641738 0.0626062
H8 H 0.0863182 0.689607 0.98838
H10_3 H 0.913682 0.310393 0.01162
C4_4 C 0.99662 0.55176 0.01903
H1_4 H 0.98717 0.55071 0.16897
C8_4 C 0.99236 0.37544 0.43105
C9_4 C 0.99385 0.40873 0.29750
O5_4 O 0.98254 0.37580 0.61251
O16_4 O 0.92467 0.33021 0.89875
C12_4 C 0.99464 0.47953 0.05794
C13_4 C 0.98059 0.47341 0.25372
C14_4 C 0.97901 0.44069 0.36838
H5_4 H 0.96809 0.43795 0.51872
H6_4 H 0.97035 0.49354 0.32383
H9_3 H 0.904104 0.318339 0.788922
C3_4 C 0.99579 0.58850 0.90532
H10_4 H 0.689607 0.603288 0.01162
C4_5 C 0.44824 0.44485 0.01903
H1_5 H 0.44929 0.43645 0.16897
C8_5 C 0.62456 0.61693 0.43105
C9_5 C 0.59127 0.58513 0.29750
C10_5 C 0.58850 0.59272 0.09468
O5_5 O 0.62420 0.60675 0.61251
O14_5 O 0.61540 0.63164 0.99907
O16_5 O 0.66979 0.59447 0.89875
C12_5 C 0.52047 0.51512 0.05794
C13_5 C 0.52659 0.50719 0.25372
C14_5 C 0.55931 0.53833 0.36838
H5_5 H 0.56205 0.53015 0.51872
H6_5 H 0.50646 0.47682 0.32383
H9_4 H 0.681661 0.585765 0.788922
C1_5 C 0.37544 0.38307 0.56895
C2_5 C 0.40873 0.41487 0.70250
C3_5 C 0.41150 0.40728 0.90532
O1_5 O 0.37580 0.39325 0.38749
O4_5 O 0.33021 0.40553 0.10125
C5_5 C 0.47953 0.48488 0.94206
C6_5 C 0.47341 0.49281 0.74628
C7_5 C 0.44069 0.46167 0.63162
H2_5 H 0.43795 0.46985 0.48128
H3_5 H 0.49354 0.52318 0.67617
O13_5 O 0.29830 0.34957 0.33427
C11_5 C 0.55176 0.55515 0.98097
H4_5 H 0.55071 0.56355 0.83103
H7_2 H 0.358262 0.429884 0.0626062
H8_2 H 0.310393 0.396712 0.98838
H10_5 H 0.396712 0.0863182 0.01162
C4_6 C 0.55515 0.00338 0.01903
H1_6 H 0.56355 0.01283 0.16897
C8_6 C 0.38307 0.00764 0.43105
C9_6 C 0.41487 0.00615 0.29750
O5_6 O 0.39325 0.01746 0.61251
O16_6 O 0.40553 0.07533 0.89875
C12_6 C 0.48488 0.00536 0.05794
C13_6 C 0.49281 0.01941 0.25372
C14_6 C 0.46167 0.02099 0.36838
H5_6 H 0.46985 0.03191 0.51872
H6_6 H 0.52318 0.02965 0.32383
H9_5 H 0.414235 0.095896 0.788922
C3_6 C 0.59272 0.00421 0.90532
C10_6 C 0.40728 0.99579 0.09468
O14_6 O 0.36836 0.98377 0.99907
C1_6 C 0.61693 0.99236 0.56895
C2_6 C 0.58513 0.99385 0.70250
O1_6 O 0.60675 0.98254 0.38749
O4_6 O 0.59447 0.92467 0.10125
C5_6 C 0.51512 0.99464 0.94206
C6_6 C 0.50719 0.98059 0.74628
C7_6 C 0.53833 0.97901 0.63162
H2_6 H 0.53015 0.96809 0.48128
H3_6 H 0.47682 0.97035 0.67617
O13_6 O 0.65043 0.94874 0.33427
C11_6 C 0.44485 0.99662 0.98097
H4_6 H 0.43645 0.98717 0.83103
H7_3 H 0.570116 0.928378 0.0626062
H8_3 H 0.603288 0.913682 0.98838
O4_7 O 0.74199 0.00313 0.43459
H8_4 H 0.752985 0.02294 0.321713
O16_7 O 0.59134 0.66354 0.23208
C2_7 C 0.67281 0.92461 0.03584
C3_7 C 0.66245 0.92184 0.23866
C4_7 C 0.66328 0.88510 0.35237
C5_7 C 0.67202 0.85381 0.27540
C6_7 C 0.68607 0.85993 0.07962
H1_7 H 0.65383 0.88405 0.50231
H3_7 H 0.69631 0.83980 0.00951
C8_7 C 0.65903 0.70877 0.76438
C9_7 C 0.66052 0.74206 0.63083
C10_7 C 0.67088 0.74483 0.42801
O5_7 O 0.64921 0.70913 0.94584
C11_7 C 0.67005 0.78157 0.31430
C12_7 C 0.66131 0.81286 0.39127
C13_7 C 0.64726 0.80674 0.58705
C14_7 C 0.64568 0.77402 0.70171
H4_7 H 0.67950 0.78262 0.16436
H5_7 H 0.63476 0.77128 0.85205
H6_7 H 0.63702 0.82687 0.65716
C1_7 C 0.67430 0.95790 0.90229
O1_7 O 0.68412 0.95754 0.72083
C7_7 C 0.68765 0.89265 0.96496
H2_7 H 0.69857 0.89539 0.81462
H7_4 H 0.738289 0.975072 0.39594
O16_8 O 0.33646 0.92780 0.23208
C2_8 C 0.07539 0.74821 0.03584
C3_8 C 0.07816 0.74062 0.23866
C4_8 C 0.11490 0.77819 0.35237
C5_8 C 0.14619 0.81822 0.27540
C6_8 C 0.14007 0.82615 0.07962
H1_8 H 0.11595 0.76979 0.50231
H3_8 H 0.16020 0.85652 0.00951
C8_8 C 0.29123 0.95026 0.76438
C9_8 C 0.25794 0.91846 0.63083
C10_8 C 0.25517 0.92605 0.42801
O5_8 O 0.29087 0.94008 0.94584
C11_8 C 0.21843 0.88848 0.31430
C12_8 C 0.18714 0.84845 0.39127
C13_8 C 0.19326 0.84052 0.58705
C14_8 C 0.22598 0.87166 0.70171
H4_8 H 0.21738 0.89688 0.16436
H5_8 H 0.22872 0.86348 0.85205
H6_8 H 0.17313 0.81015 0.65716
C1_8 C 0.04210 0.71641 0.90229
O1_8 O 0.04246 0.72659 0.72083
C7_8 C 0.10735 0.79501 0.96496
H2_8 H 0.10461 0.80319 0.81462
H7_5 H 0.0249282 0.763217 0.39594
O4_8 O 0.99687 0.73887 0.43459
H8_5 H 0.97706 0.730045 0.321713
O16_9 O 0.07220 0.40866 0.23208
C2_9 C 0.25179 0.32719 0.03584
C3_9 C 0.25938 0.33755 0.23866
C4_9 C 0.22181 0.33672 0.35237
C5_9 C 0.18178 0.32798 0.27540
C6_9 C 0.17385 0.31393 0.07962
H1_9 H 0.23021 0.34617 0.50231
H3_9 H 0.14348 0.30369 0.00951
C8_9 C 0.04974 0.34097 0.76438
C9_9 C 0.08154 0.33948 0.63083
C10_9 C 0.07395 0.32912 0.42801
O5_9 O 0.05992 0.35079 0.94584
C11_9 C 0.11152 0.32995 0.31430
C12_9 C 0.15155 0.33869 0.39127
C13_9 C 0.15948 0.35274 0.58705
C14_9 C 0.12834 0.35432 0.70171
H4_9 H 0.10312 0.32050 0.16436
H5_9 H 0.13652 0.36524 0.85205
H6_9 H 0.18985 0.36298 0.65716
C1_9 C 0.28359 0.32570 0.90229
O1_9 O 0.27341 0.31588 0.72083
O4_9 O 0.26113 0.25801 0.43459
C7_9 C 0.20499 0.31235 0.96496
H2_9 H 0.19681 0.30143 0.81462
H9_6 H 0.762563 0.0149942 0.544411
H9_7 H 0.985006 0.747568 0.544411
H9_8 H 0.095896 0.681661 0.211078
H7_6 H 0.928378 0.358262 0.937394
H7_7 H 0.641738 0.570116 0.937394
H9_9 H 0.318339 0.414235 0.211078
H7_8 H 0.429884 0.0716225 0.937394
H9_10 H 0.585765 0.904104 0.211078
H7_9 H 0.261711 0.0249282 0.60406
H7_10 H 0.975072 0.236783 0.60406
loop_
_geom_bond_atom_site_label_1
_geom_bond_atom_site_label_2
_geom_bond_site_symmetry_1
_geom_bond_site_symmetry_2
Mg2 O5 1_555 1_555
O5 C8 1_555 1_555
O6 C8 1_555 1_555
O10 Mg2 1_555 1_555
O14 Mg2 1_555 1_555
H5 C14 1_555 1_555
C1 C2 1_555 1_555
C2 C3 1_555 1_555
C3 O3 1_555 1_555
O1 C1 1_555 1_555
O2 C1 1_555 1_555
O3 Mg3 1_555 1_555
C4 C3 1_555 1_555
C5 C4 1_555 1_555
C6 C5 1_555 1_555
C7 C2 1_555 1_555
H1 C4 1_555 1_555
H2 C7 1_555 1_555
H3 C6 1_555 1_555
C9 C10 1_555 1_555
C10 O14 1_555 1_555
Mg3 O2 1_555 1_555
Mg4 O2 1_555 1_555
Mg5 O3 1_555 1_555
O14 Mg6 1_555 1_555
C11 C10 1_555 1_555
C12 C5 1_555 1_555
C13 C12 1_555 1_555
H4 C11 1_555 1_555
H6 C13 1_555 1_555
C6 C7 1_555 1_555
Mg4 O13 1_555 1_555
C11 C12 1_555 1_555
O4 Mg5 1_555 1_555
O7 Mg5 1_555 1_555
O8 Mg5 1_555 1_555
Mg7 O15 1_555 1_555
O16 H9 1_555 1_555
O16 H10 1_555 1_555
Mg7_2 O15_2 1_555 1_555
O16_2 H9_2 1_555 1_555
O16_2 H10_2 1_555 1_555
Mg2_2 O5_2 1_555 1_555
O5_2 C8_2 1_555 1_555
O6_2 C8_2 1_555 1_555
O10_2 Mg2_2 1_555 1_555
O14_2 Mg2_2 1_555 1_555
H5_2 C14_2 1_555 1_555
C1_2 C2_2 1_555 1_555
C2_2 C3_2 1_555 1_555
C3_2 O3_2 1_555 1_555
O1_2 C1_2 1_555 1_555
O2_2 C1_2 1_555 1_555
C4_2 C3_2 1_555 1_555
C5_2 C4_2 1_555 1_555
C6_2 C5_2 1_555 1_555
C7_2 C2_2 1_555 1_555
H1_2 C4_2 1_555 1_555
H2_2 C7_2 1_555 1_555
H3_2 C6_2 1_555 1_555
C9_2 C10_2 1_555 1_555
C10_2 O14_2 1_555 1_555
Mg5_2 O3_2 1_555 1_555
O14_2 Mg6_2 1_555 1_555
C11_2 C10_2 1_555 1_555
C12_2 C5_2 1_555 1_555
C13_2 C12_2 1_555 1_555
H4_2 C11_2 1_555 1_555
H6_2 C13_2 1_555 1_555
C6_2 C7_2 1_555 1_555
C11_2 C12_2 1_555 1_555
O4_2 Mg5_2 1_555 1_555
Mg2_3 O5_3 1_555 1_555
Mg7_3 O6_3 1_555 1_555
O5_3 C8_3 1_555 1_555
O6_3 C8_3 1_555 1_555
O9_3 Mg2_3 1_555 1_555
O10_3 Mg2_3 1_555 1_555
O14_3 Mg2_3 1_555 1_555
O15_3 Mg2_3 1_555 1_555
O16_3 Mg2_3 1_555 1_555
H5_3 C14_3 1_555 1_555
Mg7_3 O10_3 1_555 1_555
Mg7_3 O15_3 1_555 1_555
C1_3 C2_3 1_555 1_555
C2_3 C3_3 1_555 1_555
C3_3 O3_3 1_555 1_555
O1_3 C1_3 1_555 1_555
O2_3 C1_3 1_555 1_555
C4_3 C3_3 1_555 1_555
C5_3 C4_3 1_555 1_555
C6_3 C5_3 1_555 1_555
C7_3 C2_3 1_555 1_555
H1_3 C4_3 1_555 1_555
H2_3 C7_3 1_555 1_555
H3_3 C6_3 1_555 1_555
C9_3 C10_3 1_555 1_555
C10_3 O14_3 1_555 1_555
Mg5_3 O3_3 1_555 1_555
O14_3 Mg6_3 1_555 1_555
C11_3 C10_3 1_555 1_555
C12_3 C5_3 1_555 1_555
C13_3 C12_3 1_555 1_555
H4_3 C11_3 1_555 1_555
H6_3 C13_3 1_555 1_555
C6_3 C7_3 1_555 1_555
C11_3 C12_3 1_555 1_555
O4_3 Mg5_3 1_555 1_555
C1_4 C2_4 1_555 1_555
Mg4_3 O1_4 1_555 1_555
O1_4 C1_4 1_555 1_555
O7_3 C1_4 1_555 1_555
O4_4 Mg4_3 1_555 1_555
C6_4 C5_4 1_555 1_555
C7_4 C2_4 1_555 1_555
H2_4 C7_4 1_555 1_555
H3_4 C6_4 1_555 1_555
Mg3_3 O7_3 1_555 1_555
O13_4 Mg4_3 1_555 1_555
H4_4 C11_4 1_555 1_555
C6_4 C7_4 1_555 1_555
Mg3_3 O13_4 1_555 1_555
O4_4 H7 1_555 1_555
H1_4 C4_4 1_555 1_555
C8_4 C9_4 1_555 1_555
Mg6_2 O5_4 1_555 1_555
O5_4 C8_4 1_555 1_555
O10_2 C8_4 1_555 1_555
O16_4 Mg6_2 1_555 1_555
C13_4 C12_4 1_555 1_555
C14_4 C9_4 1_555 1_555
H5_4 C14_4 1_555 1_555
H6_4 C13_4 1_555 1_555
C13_4 C14_4 1_555 1_555
O16_4 H9_3 1_555 1_555
H1_5 C4_5 1_555 1_555
C8_5 C9_5 1_555 1_555
C9_5 C10_5 1_555 1_555
Mg6_3 O5_5 1_555 1_555
O5_5 C8_5 1_555 1_555
O10_3 C8_5 1_555 1_555
O9_3 Mg6_3 1_555 1_555
O14_5 Mg6_3 1_555 1_555
O16_5 Mg6_3 1_555 1_555
C13_5 C12_5 1_555 1_555
C14_5 C9_5 1_555 1_555
H5_5 C14_5 1_555 1_555
H6_5 C13_5 1_555 1_555
C13_5 C14_5 1_555 1_555
O16_5 H9_4 1_555 1_555
C1_5 C2_5 1_555 1_555
C2_5 C3_5 1_555 1_555
Mg4 O1_5 1_555 1_555
O1_5 C1_5 1_555 1_555
O7 C1_5 1_555 1_555
O4_5 Mg4 1_555 1_555
C6_5 C5_5 1_555 1_555
C7_5 C2_5 1_555 1_555
H2_5 C7_5 1_555 1_555
H3_5 C6_5 1_555 1_555
Mg3 O7 1_555 1_555
O13_5 Mg4 1_555 1_555
H4_5 C11_5 1_555 1_555
C6_5 C7_5 1_555 1_555
Mg3 O13_5 1_555 1_555
O4_5 H7_2 1_555 1_555
H1_6 C4_6 1_555 1_555
C8_6 C9_6 1_555 1_555
Mg6 O5_6 1_555 1_555
O5_6 C8_6 1_555 1_555
O10 C8_6 1_555 1_555
O16_6 Mg6 1_555 1_555
C13_6 C12_6 1_555 1_555
C14_6 C9_6 1_555 1_555
H5_6 C14_6 1_555 1_555
H6_6 C13_6 1_555 1_555
C13_6 C14_6 1_555 1_555
O16_6 H9_5 1_555 1_555
C1_6 C2_6 1_555 1_555
Mg4_2 O1_6 1_555 1_555
O1_6 C1_6 1_555 1_555
O7_2 C1_6 1_555 1_555
O4_6 Mg4_2 1_555 1_555
C6_6 C5_6 1_555 1_555
C7_6 C2_6 1_555 1_555
H2_6 C7_6 1_555 1_555
H3_6 C6_6 1_555 1_555
Mg3_2 O7_2 1_555 1_555
O13_6 Mg4_2 1_555 1_555
H4_6 C11_6 1_555 1_555
C6_6 C7_6 1_555 1_555
Mg3_2 O13_6 1_555 1_555
O4_6 H7_3 1_555 1_555
O4_7 H8_4 1_555 1_555
O16_7 Mg7_3 1_555 1_555
C2_7 C3_7 1_555 1_555
C3_7 O13_6 1_555 1_555
C4_7 C3_7 1_555 1_555
C5_7 C4_7 1_555 1_555
C6_7 C5_7 1_555 1_555
H1_7 C4_7 1_555 1_555
H3_7 C6_7 1_555 1_555
C8_7 C9_7 1_555 1_555
C9_7 C10_7 1_555 1_555
C10_7 O15_3 1_555 1_555
O5_7 C8_7 1_555 1_555
O9_3 C8_7 1_555 1_555
C11_7 C10_7 1_555 1_555
C12_7 C5_7 1_555 1_555
C13_7 C12_7 1_555 1_555
C14_7 C9_7 1_555 1_555
H4_7 C11_7 1_555 1_555
H5_7 C14_7 1_555 1_555
H6_7 C13_7 1_555 1_555
C11_7 C12_7 1_555 1_555
C13_7 C14_7 1_555 1_555
Mg3_2 O1_7 1_555 1_555
O1_7 C1_7 1_555 1_555
O8_2 C1_7 1_555 1_555
H2_7 C7_7 1_555 1_555
O16_8 Mg7 1_555 1_555
C2_8 C3_8 1_555 1_555
C3_8 O13_4 1_555 1_555
C4_8 C3_8 1_555 1_555
C5_8 C4_8 1_555 1_555
C6_8 C5_8 1_555 1_555
H1_8 C4_8 1_555 1_555
H3_8 C6_8 1_555 1_555
C8_8 C9_8 1_555 1_555
C9_8 C10_8 1_555 1_555
C10_8 O15 1_555 1_555
O5_8 C8_8 1_555 1_555
O9 C8_8 1_555 1_555
C11_8 C10_8 1_555 1_555
C12_8 C5_8 1_555 1_555
C13_8 C12_8 1_555 1_555
C14_8 C9_8 1_555 1_555
H4_8 C11_8 1_555 1_555
H5_8 C14_8 1_555 1_555
H6_8 C13_8 1_555 1_555
C11_8 C12_8 1_555 1_555
C13_8 C14_8 1_555 1_555
Mg3_3 O1_8 1_555 1_555
O1_8 C1_8 1_555 1_555
O8_3 C1_8 1_555 1_555
H2_8 C7_8 1_555 1_555
O4_8 H8_5 1_555 1_555
O16_9 Mg7_2 1_555 1_555
C2_9 C3_9 1_555 1_555
C3_9 O13_5 1_555 1_555
C4_9 C3_9 1_555 1_555
C5_9 C4_9 1_555 1_555
C6_9 C5_9 1_555 1_555
H1_9 C4_9 1_555 1_555
H3_9 C6_9 1_555 1_555
C8_9 C9_9 1_555 1_555
C9_9 C10_9 1_555 1_555
C10_9 O15_2 1_555 1_555
O5_9 C8_9 1_555 1_555
O9_2 C8_9 1_555 1_555
C11_9 C10_9 1_555 1_555
C12_9 C5_9 1_555 1_555
C13_9 C12_9 1_555 1_555
C14_9 C9_9 1_555 1_555
H4_9 C11_9 1_555 1_555
H5_9 C14_9 1_555 1_555
H6_9 C13_9 1_555 1_555
C11_9 C12_9 1_555 1_555
C13_9 C14_9 1_555 1_555
Mg3 O1_9 1_555 1_555
O1_9 C1_9 1_555 1_555
O8 C1_9 1_555 1_555
O4_9 Mg3 1_555 1_555
H2_9 C7_9 1_555 1_555
O4_7 H9_6 1_555 1_555
O4_8 H9_7 1_555 1_555
O4_4 H9_8 1_555 1_555
O16_4 H7_6 1_555 1_555
O16_5 H7_7 1_555 1_555
O4_5 H9_9 1_555 1_555
O16_6 H7_8 1_555 1_555
O4_6 H9_10 1_555 1_555

#END
