
###############################################################################
#
# This file contains modified crystal structure data generated from the
# MOF subset of the Cambridge Structural Database (CSD) v543 
# hosted by the Cambridge Crystallographic Data Centre (CCDC).
#
# This work is licensed under the Creative Commons
# Attribution-NonCommercial-ShareAlike 4.0 International License.
# To view a copy of this license, visit
# http://creativecommons.org/licenses/by-nc-sa/4.0/
# or send a letter to
# Creative Commons, PO Box 1866, Mountain View, CA 94042, USA.
#
# CIF created using the CSD Python API on 29 September 2022
# The structure has been converted into the P1 space group
# The structure has a 3D framework
# The original CSD entry RAXQEO is in the monoclinic crystal system
# The framework has been calculated to contain at least 10.0% void space
# The void calculation uses a probe of radius 1.32A, grid spacing 0.4
# The framework is charged, counterions have been retained in the structure
#
###############################################################################

data_RAXQEO
_chemical_formula_moiety         '(C80 H128 Cu4 N48 8+)n'
_symmetry_cell_setting           triclinic
_symmetry_space_group_name_H-M   'P 1'
_symmetry_Int_Tables_number      1
_space_group_name_Hall           'P 1'
loop_
_symmetry_equiv_pos_site_id
_symmetry_equiv_pos_as_xyz
1 x,y,z
_cell_length_a                   11.5359(9)
_cell_length_b                   15.0948(12)
_cell_length_c                   22.6817(19)
_cell_angle_alpha                90
_cell_angle_beta                 91.4830(10)
_cell_angle_gamma                90
_cell_volume                     3948.29
loop_
_atom_site_label
_atom_site_type_symbol
_atom_site_fract_x
_atom_site_fract_y
_atom_site_fract_z
H25 H 0.1341 0.0480 0.5570
Cu5 Cu 0.1159(2) 0.2786(2) 0.27214(14)
H59 H 0.0490 0.0148 0.4453
H60 H 0.0037 0.0903 0.4868
N24 N 0.012(2) 0.2329(19) 0.3342(12)
C40 C 0.004(2) 0.2623(18) 0.3892(13)
H64 H 0.0430 0.3104 0.4056
C1 C 0.057(3) 0.628(3) 0.8100(19)
H1 H 0.0415 0.6625 0.8430
C2 C 0.057(3) 0.584(3) 0.726(2)
H2 H 0.0421 0.5758 0.6857
C3 C 0.209(3) 0.459(3) 0.7393(19)
H3 H 0.2344 0.4687 0.6995
H4 H 0.2776 0.4582 0.7649
C4 C 0.160(3) 0.377(3) 0.7413(18)
H5 H 0.1160 0.3688 0.7768
H6 H 0.2180 0.3303 0.7392
C5 C 0.084(3) 0.377(3) 0.6890(18)
H7 H 0.0116 0.4051 0.6987
H8 H 0.1200 0.4125 0.6588
C6 C 0.059(3) 0.288(3) 0.6643(18)
H9 H 0.1299 0.2577 0.6540
H10 H 0.0182 0.2515 0.6925
H11 H 0.0291 0.3251 0.5775
C14 C 0.161(4) 0.937(3) 0.599(2)
H23 H 0.1571 0.9786 0.6311
H24 H 0.2428 0.9250 0.5936
C15 C 0.126(3) 0.985(3) 0.548(2)
H26 H 0.1785 0.9719 0.5168
C16 C 0.007(4) 0.971(3) 0.5250(19)
N1 N 0.007(3) 0.639(2) 0.7539(16)
N2 N 0.137(3) 0.535(2) 0.7563(17)
N3 N 0.130(3) 0.562(2) 0.8087(16)
C19 C 0.057(2) 0.837(2) 0.6724(12)
H31 H 0.0681 0.8701 0.7066
N11 N 0.109(2) 0.8504(18) 0.6215(13)
N12 N 0.072(2) 0.789(2) 0.5834(11)
H20 H 0.6437 0.0104 0.5714
H21 H 0.5970 0.0166 0.4696
Cu2 Cu 0.6159(2) 0.2214(2) 0.77214(14)
C21 C 0.443(3) 0.128(3) 0.6900(19)
H33 H 0.4585 0.1625 0.6570
C22 C 0.443(3) 0.084(3) 0.774(2)
H34 H 0.4579 0.0758 0.8143
C29 C 0.281(3) 0.125(2) 0.2697(13)
H47 H 0.2595 0.1118 0.2310
C30 C 0.296(2) 0.185(2) 0.3479(12)
H48 H 0.2876 0.2250 0.3789
C31 C 0.446(3) 0.094(2) 0.4011(12)
H49 H 0.5078 0.0580 0.3865
H50 H 0.4801 0.1469 0.4190
C32 C 0.383(3) 0.045(2) 0.4463(12)
H51 H 0.3147 0.0785 0.4561
C33 C 0.451(2) 0.021(2) 0.5063(12)
H54 H 0.4681 0.0748 0.5282
C34 C 0.839(4) 0.063(3) 0.401(2)
H55 H 0.8429 0.0214 0.3689
H56 H 0.7572 0.0750 0.4064
C35 C 0.874(3) 0.015(3) 0.452(2)
H58 H 0.8215 0.0281 0.4832
C36 C 0.993(4) 0.029(3) 0.4750(19)
N13 N 0.493(3) 0.139(2) 0.7461(16)
N14 N 0.363(3) 0.035(2) 0.7437(17)
N15 N 0.370(3) 0.062(2) 0.6913(16)
N19 N 0.731(2) 0.1695(18) 0.7131(11)
N20 N 0.236(2) 0.1928(16) 0.2995(10)
N21 N 0.736(2) 0.3072(16) 0.7995(10)
N22 N 0.369(2) 0.1211(16) 0.3516(10)
N23 N 0.362(2) 0.0779(16) 0.3004(10)
N25 N 0.512(2) 0.2671(19) 0.8342(12)
C39 C 0.943(2) 0.163(2) 0.3276(12)
H63 H 0.9319 0.1299 0.2934
N26 N 0.891(2) 0.1496(18) 0.3785(13)
N27 N 0.928(2) 0.211(2) 0.4166(11)
Cu1 Cu 0.8841(2) 0.7214(2) 0.72786(14)
C7 C 0.984(3) 0.305(3) 0.6102(18)
H12 H 0.9236 0.3479 0.6180
C8 C 0.930(3) 0.210(3) 0.5976(18)
H13 H 0.9939 0.1689 0.5925
H14 H 0.8869 0.2127 0.5605
C9 C 0.719(3) 0.875(2) 0.7303(13)
H15 H 0.7405 0.8882 0.7690
C10 C 0.704(2) 0.815(2) 0.6521(12)
H16 H 0.7124 0.7750 0.6211
C11 C 0.554(3) 0.906(2) 0.5989(12)
H17 H 0.4922 0.9420 0.6135
H18 H 0.5199 0.8531 0.5810
C12 C 0.617(3) 0.955(2) 0.5537(12)
H19 H 0.6853 0.9215 0.5439
C13 C 0.549(2) 0.979(2) 0.4937(12)
H22 H 0.5319 0.9252 0.4718
H27 H 0.9510 0.9852 0.5547
H28 H 0.9963 0.9097 0.5132
N4 N 0.851(2) 0.1717(18) 0.6440(10)
N5 N 0.8786(19) 0.1057(16) 0.6793(11)
C17 C 0.804(2) 0.1044(17) 0.7220(11)
H29 H 0.8038 0.0643 0.7531
C18 C 0.760(2) 0.2111(16) 0.6650(12)
H30 H 0.7219 0.2600 0.6485
N7 N 0.764(2) 0.8072(16) 0.7005(10)
N8 N 0.631(2) 0.8789(16) 0.6484(10)
N9 N 0.638(2) 0.9221(16) 0.6996(10)
N10 N 0.988(2) 0.7671(19) 0.6658(12)
C20 C 0.996(2) 0.7377(18) 0.6108(13)
H32 H 0.9570 0.6896 0.5944
C23 C 0.291(3) 0.959(3) 0.7607(19)
H35 H 0.2656 0.9687 0.8005
H36 H 0.2224 0.9582 0.7351
C24 C 0.340(3) 0.877(3) 0.7587(18)
H37 H 0.3840 0.8688 0.7232
H38 H 0.2820 0.8303 0.7608
C25 C 0.416(3) 0.877(3) 0.8110(18)
H39 H 0.4884 0.9051 0.8013
H40 H 0.3800 0.9125 0.8412
C26 C 0.441(3) 0.788(3) 0.8357(18)
H41 H 0.3701 0.7577 0.8460
H42 H 0.4818 0.7515 0.8075
C27 C 0.516(3) 0.805(3) 0.8898(18)
H43 H 0.4709 0.8251 0.9225
H44 H 0.5764 0.8479 0.8820
C28 C 0.570(3) 0.710(3) 0.9024(18)
H45 H 0.5061 0.6689 0.9075
H46 H 0.6131 0.7127 0.9395
H52 H 0.3563 0.9896 0.4286
H53 H 0.4030 0.9834 0.5304
H57 H 0.8659 0.9520 0.4430
N16 N 0.649(2) 0.6717(18) 0.8560(10)
N17 N 0.6214(19) 0.6057(16) 0.8207(11)
C37 C 0.696(2) 0.6044(17) 0.7780(11)
H61 H 0.6962 0.5643 0.7469
N18 N 0.769(2) 0.6695(18) 0.7869(11)
C38 C 0.740(2) 0.7111(16) 0.8350(12)
H62 H 0.7781 0.7600 0.8515
Cu4 Cu 0.3841(2) 0.7786(2) 0.22786(14)
C29_2 C 0.219(3) 0.625(2) 0.2303(13)
H47_2 H 0.2405 0.6118 0.2690
C30_2 C 0.204(2) 0.685(2) 0.1521(12)
H48_2 H 0.2124 0.7250 0.1211
C31_2 C 0.054(3) 0.594(2) 0.0989(12)
H50_2 H 0.0199 0.6469 0.0810
C32_2 C 0.117(3) 0.545(2) 0.0537(12)
H51_2 H 0.1853 0.5785 0.0439
H52_2 H 0.1437 0.4896 0.0714
N20_2 N 0.264(2) 0.6928(16) 0.2005(10)
N22_2 N 0.131(2) 0.6211(16) 0.1484(10)
N23_2 N 0.138(2) 0.5779(16) 0.1996(10)
H17_2 H 0.0078 0.4420 0.8865
C33_2 C 0.049(2) 0.521(2) 0.9937(12)
H53_2 H 0.0970 0.4834 0.9696
H54_2 H 0.0319 0.5748 0.9718
C13_2 C 0.951(2) 0.479(2) 0.0063(12)
H21_2 H 0.9030 0.5166 0.0304
H22_2 H 0.9681 0.4252 0.0282
H49_2 H 0.9922 0.5580 0.1135
C34_2 C 0.661(4) 0.563(3) 0.099(2)
H55_2 H 0.6571 0.5214 0.1311
H56_2 H 0.7428 0.5750 0.0936
C35_2 C 0.626(3) 0.515(3) 0.048(2)
H57_2 H 0.6341 0.4520 0.0570
H58_2 H 0.6785 0.5281 0.0168
C36_2 C 0.507(4) 0.529(3) 0.0250(19)
H59_2 H 0.4510 0.5148 0.0547
H60_2 H 0.4963 0.5903 0.0132
N24_2 N 0.488(2) 0.7329(19) 0.1658(12)
C39_2 C 0.557(2) 0.663(2) 0.1724(12)
H63_2 H 0.5681 0.6299 0.2066
N26_2 N 0.609(2) 0.6496(18) 0.1215(13)
N27_2 N 0.572(2) 0.711(2) 0.0834(11)
C40_2 C 0.496(2) 0.7623(18) 0.1108(13)
H64_2 H 0.4570 0.8104 0.0944
C9_2 C 0.781(3) 0.375(2) 0.7697(13)
H15_2 H 0.7595 0.3882 0.7310
C10_2 C 0.796(2) 0.315(2) 0.8479(12)
H16_2 H 0.7876 0.2750 0.8789
C11_2 C 0.946(3) 0.406(2) 0.9011(12)
H18_2 H 0.9801 0.3531 0.9190
C12_2 C 0.883(3) 0.455(2) 0.9463(12)
H19_2 H 0.8147 0.4215 0.9561
H20_2 H 0.8563 0.5104 0.9286
C14_2 C 0.339(4) 0.437(3) 0.901(2)
H23_2 H 0.3429 0.4786 0.8689
H24_2 H 0.2572 0.4250 0.9064
C15_2 C 0.374(3) 0.485(3) 0.952(2)
H25_2 H 0.3659 0.5480 0.9430
H26_2 H 0.3215 0.4719 0.9832
C16_2 C 0.493(4) 0.471(3) 0.9750(19)
H27_2 H 0.5490 0.4852 0.9453
H28_2 H 0.5037 0.4097 0.9868
N8_2 N 0.869(2) 0.3789(16) 0.8516(10)
N9_2 N 0.862(2) 0.4221(16) 0.8004(10)
C19_2 C 0.443(2) 0.337(2) 0.8276(12)
H31_2 H 0.4319 0.3701 0.7934
N11_2 N 0.391(2) 0.3504(18) 0.8785(13)
N12_2 N 0.428(2) 0.289(2) 0.9166(11)
C20_2 C 0.504(2) 0.2377(18) 0.8892(13)
H32_2 H 0.5430 0.1896 0.9056
C7_2 C 0.016(3) 0.695(3) 0.3898(18)
H12_2 H 0.0764 0.6521 0.3820
C8_2 C 0.070(3) 0.790(3) 0.4024(18)
H13_2 H 0.0061 0.8311 0.4075
H14_2 H 0.1131 0.7873 0.4395
N4_2 N 0.149(2) 0.8283(18) 0.3560(10)
N5_2 N 0.1214(19) 0.8943(16) 0.3207(11)
C17_2 C 0.196(2) 0.8956(17) 0.2780(11)
H29_2 H 0.1962 0.9357 0.2469
N6 N 0.269(2) 0.8305(18) 0.2869(11)
C18_2 C 0.240(2) 0.7889(16) 0.3350(12)
H30_2 H 0.2781 0.7400 0.3515
C23_2 C 0.709(3) 0.041(3) 0.2393(19)
H35_2 H 0.7344 0.0313 0.1995
H36_2 H 0.7776 0.0418 0.2649
C24_2 C 0.660(3) 0.123(3) 0.2413(18)
H37_2 H 0.6160 0.1312 0.2768
H38_2 H 0.7180 0.1697 0.2392
C25_2 C 0.584(3) 0.123(3) 0.1890(18)
H39_2 H 0.5116 0.0949 0.1987
H40_2 H 0.6200 0.0875 0.1588
C26_2 C 0.559(3) 0.212(3) 0.1643(18)
H41_2 H 0.6299 0.2423 0.1540
H42_2 H 0.5182 0.2485 0.1925
C27_2 C 0.484(3) 0.195(3) 0.1102(18)
H43_2 H 0.5291 0.1749 0.0775
H44_2 H 0.4236 0.1521 0.1180
C28_2 C 0.430(3) 0.290(3) 0.0976(18)
H45_2 H 0.4939 0.3311 0.0925
H46_2 H 0.3869 0.2873 0.0605
N16_2 N 0.351(2) 0.3283(18) 0.1440(10)
N17_2 N 0.3786(19) 0.3943(16) 0.1793(11)
C37_2 C 0.304(2) 0.3956(17) 0.2220(11)
H61_2 H 0.3038 0.4357 0.2531
N18_2 N 0.231(2) 0.3305(18) 0.2131(11)
C38_2 C 0.260(2) 0.2889(16) 0.1650(12)
H62_2 H 0.2219 0.2400 0.1485
C21_2 C 0.557(3) 0.872(3) 0.3100(19)
H33_2 H 0.5415 0.8375 0.3430
C22_2 C 0.557(3) 0.916(3) 0.226(2)
H34_2 H 0.5421 0.9242 0.1857
N13_2 N 0.507(3) 0.861(2) 0.2539(16)
N14_2 N 0.637(3) 0.965(2) 0.2563(17)
N15_2 N 0.630(3) 0.938(2) 0.3087(16)
C1_2 C 0.943(3) 0.372(3) 0.1900(19)
H1_2 H 0.9585 0.3375 0.1570
C2_2 C 0.943(3) 0.416(3) 0.274(2)
H2_2 H 0.9579 0.4242 0.3143
C3_2 C 0.791(3) 0.541(3) 0.2607(19)
H3_2 H 0.7656 0.5313 0.3005
H4_2 H 0.7224 0.5418 0.2351
C4_2 C 0.840(3) 0.623(3) 0.2587(18)
H5_2 H 0.8840 0.6312 0.2232
H6_2 H 0.7820 0.6697 0.2608
C5_2 C 0.916(3) 0.623(3) 0.3110(18)
H7_2 H 0.9884 0.5949 0.3013
H8_2 H 0.8800 0.5875 0.3412
C6_2 C 0.941(3) 0.712(3) 0.3357(18)
H9_2 H 0.8701 0.7423 0.3460
H10_2 H 0.9818 0.7485 0.3075
H11_2 H 0.9709 0.6749 0.4225
N1_2 N 0.993(3) 0.361(2) 0.2461(16)
N2_2 N 0.863(3) 0.465(2) 0.2437(17)
N3_2 N 0.870(3) 0.438(2) 0.1913(16)
loop_
_geom_bond_atom_site_label_1
_geom_bond_atom_site_label_2
_geom_bond_site_symmetry_1
_geom_bond_site_symmetry_2
Cu5 N24 1_555 1_555
C40 N24 1_555 1_555
H64 C40 1_555 1_555
C1 H1 1_555 1_555
C2 H2 1_555 1_555
C3 H3 1_555 1_555
H4 C3 1_555 1_555
C4 C3 1_555 1_555
H5 C4 1_555 1_555
H6 C4 1_555 1_555
C5 C4 1_555 1_555
H7 C5 1_555 1_555
H8 C5 1_555 1_555
C6 C5 1_555 1_555
H9 C6 1_555 1_555
H10 C6 1_555 1_555
C14 H23 1_555 1_555
H24 C14 1_555 1_555
C15 C14 1_555 1_555
H26 C15 1_555 1_555
C16 C15 1_555 1_555
N1 C1 1_555 1_555
N2 C2 1_555 1_555
N3 C1 1_555 1_555
H31 C19 1_555 1_555
N11 C14 1_555 1_555
N12 N11 1_555 1_555
C2 N1 1_555 1_555
C3 N2 1_555 1_555
N2 N3 1_555 1_555
C19 N11 1_555 1_555
Cu2 N13 1_555 1_555
Cu5 N20 1_555 1_555
C21 H33 1_555 1_555
C22 H34 1_555 1_555
C29 H47 1_555 1_555
C30 H48 1_555 1_555
C31 H49 1_555 1_555
H50 C31 1_555 1_555
C32 C31 1_555 1_555
H51 C32 1_555 1_555
H54 C33 1_555 1_555
C34 H55 1_555 1_555
H56 C34 1_555 1_555
C35 C34 1_555 1_555
H58 C35 1_555 1_555
N13 C21 1_555 1_555
N14 C22 1_555 1_555
N15 C21 1_555 1_555
N19 Cu2 1_555 1_555
N20 C29 1_555 1_555
N21 Cu2 1_555 1_555
N22 C30 1_555 1_555
N23 C29 1_555 1_555
N25 Cu2 1_555 1_555
C39 H63 1_555 1_555
N26 C34 1_555 1_555
N27 N26 1_555 1_555
C22 N13 1_555 1_555
C30 N20 1_555 1_555
C31 N22 1_555 1_555
C32 C33 1_555 1_555
C35 C36 1_555 1_555
N14 N15 1_555 1_555
N22 N23 1_555 1_555
C39 N26 1_555 1_555
H12 C7 1_555 1_555
C8 C7 1_555 1_555
H13 C8 1_555 1_555
H14 C8 1_555 1_555
C9 H15 1_555 1_555
C10 H16 1_555 1_555
C11 H17 1_555 1_555
H18 C11 1_555 1_555
C12 C11 1_555 1_555
H19 C12 1_555 1_555
C13 C12 1_555 1_555
H22 C13 1_555 1_555
N4 C8 1_555 1_555
N5 N4 1_555 1_555
C17 N5 1_555 1_555
H29 C17 1_555 1_555
N19 C17 1_555 1_555
C18 N4 1_555 1_555
H30 C18 1_555 1_555
N7 Cu1 1_555 1_555
N8 C10 1_555 1_555
N9 C9 1_555 1_555
N10 Cu1 1_555 1_555
C20 N10 1_555 1_555
H32 C20 1_555 1_555
C23 H35 1_555 1_555
H36 C23 1_555 1_555
C24 C23 1_555 1_555
H37 C24 1_555 1_555
H38 C24 1_555 1_555
C25 C24 1_555 1_555
H39 C25 1_555 1_555
H40 C25 1_555 1_555
C26 C25 1_555 1_555
H41 C26 1_555 1_555
H42 C26 1_555 1_555
C27 C26 1_555 1_555
H43 C27 1_555 1_555
H44 C27 1_555 1_555
C28 C27 1_555 1_555
H45 C28 1_555 1_555
H46 C28 1_555 1_555
N16 C28 1_555 1_555
N17 N16 1_555 1_555
C37 N17 1_555 1_555
H61 C37 1_555 1_555
N18 Cu1 1_555 1_555
C38 N16 1_555 1_555
H62 C38 1_555 1_555
C9 N7 1_555 1_555
C10 N7 1_555 1_555
C11 N8 1_555 1_555
N19 C18 1_555 1_555
N8 N9 1_555 1_555
C37 N18 1_555 1_555
N18 C38 1_555 1_555
Cu4 N20_2 1_555 1_555
C29_2 H47_2 1_555 1_555
C30_2 H48_2 1_555 1_555
H50_2 C31_2 1_555 1_555
C32_2 C31_2 1_555 1_555
H51_2 C32_2 1_555 1_555
H52_2 C32_2 1_555 1_555
N20_2 C29_2 1_555 1_555
N22_2 C30_2 1_555 1_555
N23_2 C29_2 1_555 1_555
C30_2 N20_2 1_555 1_555
C31_2 N22_2 1_555 1_555
N22_2 N23_2 1_555 1_555
H53_2 C33_2 1_555 1_555
H54_2 C33_2 1_555 1_555
H21_2 C13_2 1_555 1_555
H22_2 C13_2 1_555 1_555
Cu4 N24_2 1_555 1_555
C34_2 H55_2 1_555 1_555
H56_2 C34_2 1_555 1_555
C35_2 C34_2 1_555 1_555
H57_2 C35_2 1_555 1_555
H58_2 C35_2 1_555 1_555
H59_2 C36_2 1_555 1_555
H60_2 C36_2 1_555 1_555
N24_2 C39_2 1_555 1_555
C39_2 H63_2 1_555 1_555
N26_2 C34_2 1_555 1_555
N27_2 N26_2 1_555 1_555
C40_2 N24_2 1_555 1_555
H64_2 C40_2 1_555 1_555
C35_2 C36_2 1_555 1_555
C39_2 N26_2 1_555 1_555
N27_2 C40_2 1_555 1_555
C9_2 H15_2 1_555 1_555
C10_2 H16_2 1_555 1_555
H18_2 C11_2 1_555 1_555
C12_2 C11_2 1_555 1_555
H19_2 C12_2 1_555 1_555
H20_2 C12_2 1_555 1_555
C14_2 H23_2 1_555 1_555
H24_2 C14_2 1_555 1_555
C15_2 C14_2 1_555 1_555
H25_2 C15_2 1_555 1_555
H26_2 C15_2 1_555 1_555
C16_2 C15_2 1_555 1_555
H27_2 C16_2 1_555 1_555
H28_2 C16_2 1_555 1_555
N8_2 C10_2 1_555 1_555
N9_2 C9_2 1_555 1_555
C19_2 N25 1_555 1_555
H31_2 C19_2 1_555 1_555
N11_2 C14_2 1_555 1_555
N12_2 N11_2 1_555 1_555
C20_2 N25 1_555 1_555
H32_2 C20_2 1_555 1_555
C9_2 N21 1_555 1_555
C10_2 N21 1_555 1_555
C11_2 N8_2 1_555 1_555
N8_2 N9_2 1_555 1_555
C19_2 N11_2 1_555 1_555
N12_2 C20_2 1_555 1_555
H12_2 C7_2 1_555 1_555
C8_2 C7_2 1_555 1_555
H13_2 C8_2 1_555 1_555
H14_2 C8_2 1_555 1_555
N4_2 C8_2 1_555 1_555
N5_2 N4_2 1_555 1_555
C17_2 N5_2 1_555 1_555
H29_2 C17_2 1_555 1_555
N6 C17_2 1_555 1_555
C18_2 N4_2 1_555 1_555
H30_2 C18_2 1_555 1_555
Cu4 N6 1_555 1_555
C23_2 H35_2 1_555 1_555
H36_2 C23_2 1_555 1_555
C24_2 C23_2 1_555 1_555
H37_2 C24_2 1_555 1_555
H38_2 C24_2 1_555 1_555
C25_2 C24_2 1_555 1_555
H39_2 C25_2 1_555 1_555
H40_2 C25_2 1_555 1_555
C26_2 C25_2 1_555 1_555
H41_2 C26_2 1_555 1_555
H42_2 C26_2 1_555 1_555
C27_2 C26_2 1_555 1_555
H43_2 C27_2 1_555 1_555
H44_2 C27_2 1_555 1_555
C28_2 C27_2 1_555 1_555
H45_2 C28_2 1_555 1_555
H46_2 C28_2 1_555 1_555
N16_2 C28_2 1_555 1_555
N17_2 N16_2 1_555 1_555
C37_2 N17_2 1_555 1_555
H61_2 C37_2 1_555 1_555
N18_2 Cu5 1_555 1_555
C38_2 N16_2 1_555 1_555
H62_2 C38_2 1_555 1_555
N6 C18_2 1_555 1_555
C37_2 N18_2 1_555 1_555
N18_2 C38_2 1_555 1_555
Cu4 N13_2 1_555 1_555
C21_2 H33_2 1_555 1_555
C22_2 H34_2 1_555 1_555
N13_2 C21_2 1_555 1_555
N14_2 C22_2 1_555 1_555
N15_2 C21_2 1_555 1_555
C22_2 N13_2 1_555 1_555
N14_2 N15_2 1_555 1_555
C1_2 H1_2 1_555 1_555
C2_2 H2_2 1_555 1_555
C3_2 H3_2 1_555 1_555
H4_2 C3_2 1_555 1_555
C4_2 C3_2 1_555 1_555
H5_2 C4_2 1_555 1_555
H6_2 C4_2 1_555 1_555
C5_2 C4_2 1_555 1_555
H7_2 C5_2 1_555 1_555
H8_2 C5_2 1_555 1_555
C6_2 C5_2 1_555 1_555
H9_2 C6_2 1_555 1_555
H10_2 C6_2 1_555 1_555
N1_2 C1_2 1_555 1_555
N2_2 C2_2 1_555 1_555
N3_2 C1_2 1_555 1_555
C2_2 N1_2 1_555 1_555
C3_2 N2_2 1_555 1_555
N2_2 N3_2 1_555 1_555

#END
