
###############################################################################
#
# This file contains modified crystal structure data generated from the
# MOF subset of the Cambridge Structural Database (CSD) v543 
# hosted by the Cambridge Crystallographic Data Centre (CCDC).
#
# This work is licensed under the Creative Commons
# Attribution-NonCommercial-ShareAlike 4.0 International License.
# To view a copy of this license, visit
# http://creativecommons.org/licenses/by-nc-sa/4.0/
# or send a letter to
# Creative Commons, PO Box 1866, Mountain View, CA 94042, USA.
#
# CIF created using the CSD Python API on 29 September 2022
# The structure has been converted into the P1 space group
# The structure has a 3D framework
# The original CSD entry REBVOM is in the monoclinic crystal system
# The framework has been calculated to contain at least 10.0% void space
# The void calculation uses a probe of radius 1.32A, grid spacing 0.4
# H atom positions have been added when not included in the experimental data
#
###############################################################################

data_REBVOM
_chemical_formula_moiety         '(C112 H48 Cd10 O34)n'
_symmetry_cell_setting           triclinic
_symmetry_space_group_name_H-M   'P 1'
_symmetry_Int_Tables_number      1
_space_group_name_Hall           'P 1'
loop_
_symmetry_equiv_pos_site_id
_symmetry_equiv_pos_as_xyz
1 x,y,z
_cell_length_a                   28.298(6)
_cell_length_b                   9.913(2)
_cell_length_c                   10.478(2)
_cell_angle_alpha                90
_cell_angle_beta                 107.775(3)
_cell_angle_gamma                90
_cell_volume                     2798.96
loop_
_atom_site_label
_atom_site_type_symbol
_atom_site_fract_x
_atom_site_fract_y
_atom_site_fract_z
C38 C 0.04993(15) -0.0000 0.7235(4)
H11 H 0.0843 -0.0000 0.7608
C43 C 0.02457(11) 0.1214(3) 0.6960(3)
C44 C 0.05265(13) 0.2525(3) 0.7255(3)
O15 O 0.02953(12) 0.3613(3) 0.6817(3)
O16 O 0.09699(10) 0.2536(3) 0.7942(3)
Cd7 Cd -0.0000 0.5000 0.5000
Cd13 Cd 0.099583(10) 0.5000 0.79260(3)
C37 C 0.02457(11) 0.8786(3) 0.6960(3)
C38_2 C 0.04993(15) 1.0000 0.7235(4)
H11_2 H 0.0843 1.0000 0.7608
C39 C 0.05265(13) 0.7475(3) 0.7255(3)
O13 O 0.02953(12) 0.6387(3) 0.6817(3)
O14 O 0.09699(10) 0.7464(3) 0.7942(3)
O3 O 0.33181(14) -0.0000 0.0119(3)
Cd8 Cd 0.400417(10) -0.0000 0.20740(3)
O20 O 0.59353(15) -0.0000 0.0102(4)
C1 C 0.38021(17) -0.0000 0.4787(4)
C2 C 0.34765(16) -0.0000 0.5693(4)
C3 C 0.29596(17) -0.0000 0.5117(5)
H1 H 0.2819 -0.0000 0.4190
C4 C 0.26558(17) -0.0000 0.5958(5)
C5 C 0.28711(19) -0.0000 0.7330(5)
H2 H 0.2668 -0.0000 0.7880
C6 C 0.33831(19) -0.0000 0.7913(4)
C7 C 0.36856(16) -0.0000 0.7071(4)
H3 H 0.4029 -0.0000 0.7442
C8 C 0.3605(2) -0.0000 0.9400(5)
C9 C 0.21017(18) -0.0000 0.5355(5)
C12 C 0.10791(19) -0.0000 0.4346(5)
C13 C 0.05297(16) -0.0000 0.3822(4)
Cd1 Cd 0.5000 -0.0000 0.5000
O1 O 0.42646(13) -0.0000 0.5359(4)
O2 O 0.35903(13) -0.0000 0.3555(3)
O4 O 0.40647(15) -0.0000 0.9898(4)
C18 C 0.1867(3) 0.0935(11) 0.4401(8)
C19 C 0.1354(3) 0.0964(10) 0.3913(8)
C20 C 0.02713(12) 0.1205(4) 0.3575(3)
H6 H 0.0443 0.2017 0.3767
C23 C 0.61979(17) -0.0000 0.5213(4)
C24 C 0.65235(16) -0.0000 0.4307(4)
C25 C 0.70404(17) -0.0000 0.4883(5)
H7 H 0.7181 -0.0000 0.5810
C26 C 0.73442(17) -0.0000 0.4042(5)
C27 C 0.71289(19) -0.0000 0.2670(5)
H8 H 0.7332 -0.0000 0.2120
C28 C 0.66169(19) -0.0000 0.2087(4)
C29 C 0.63144(16) -0.0000 0.2929(4)
H9 H 0.5971 -0.0000 0.2558
C30 C 0.6395(2) -0.0000 0.0600(5)
C31 C 0.78983(18) -0.0000 0.4645(5)
C34 C 0.89209(19) -0.0000 0.5654(5)
C35 C 0.94703(16) -0.0000 0.6178(4)
Cd3 Cd 0.599583(10) -0.0000 0.79260(3)
O9 O 0.57354(13) -0.0000 0.4641(4)
O10 O 0.64097(13) -0.0000 0.6445(3)
C40 C 0.8133(3) 0.0935(11) 0.5599(8)
C41 C 0.8646(3) 0.0964(10) 0.6087(8)
C42 C 0.97287(12) 0.1205(4) 0.6425(3)
H12 H 0.9557 0.2017 0.6233
Cd7_2 Cd 1.0000 0.5000 0.5000
O18 O 0.66819(14) -0.0000 0.9881(3)
O21 O 0.47047(12) 0.1387(3) 0.3183(3)
O22 O 0.52953(12) 0.1387(3) 0.6817(3)
O25 O 0.40301(10) 0.2464(3) 0.2058(3)
O26 O 0.59699(10) 0.2464(3) 0.7942(3)
H17 H 0.208513 0.165303 0.402948
H18 H 0.116681 0.173479 0.319594
H19 H 0.883319 0.173479 0.680406
H20 H 0.791487 0.165303 0.597052
O3_2 O 0.33181(14) 1.0000 0.0119(3)
Cd8_2 Cd 0.400417(10) 1.0000 0.20740(3)
O20_2 O 0.59353(15) 1.0000 0.0102(4)
C1_2 C 0.38021(17) 1.0000 0.4787(4)
C2_2 C 0.34765(16) 1.0000 0.5693(4)
C3_2 C 0.29596(17) 1.0000 0.5117(5)
H1_2 H 0.2819 1.0000 0.4190
C4_2 C 0.26558(17) 1.0000 0.5958(5)
C5_2 C 0.28711(19) 1.0000 0.7330(5)
H2_2 H 0.2668 1.0000 0.7880
C6_2 C 0.33831(19) 1.0000 0.7913(4)
C7_2 C 0.36856(16) 1.0000 0.7071(4)
H3_2 H 0.4029 1.0000 0.7442
C8_2 C 0.3605(2) 1.0000 0.9400(5)
C9_2 C 0.21017(18) 1.0000 0.5355(5)
C10 C 0.1867(3) 0.9065(11) 0.4401(8)
C11 C 0.1354(3) 0.9036(10) 0.3913(8)
C12_2 C 0.10791(19) 1.0000 0.4346(5)
C13_2 C 0.05297(16) 1.0000 0.3822(4)
C14 C 0.02713(12) 0.8795(4) 0.3575(3)
H4 H 0.0443 0.7983 0.3767
Cd1_2 Cd 0.5000 1.0000 0.5000
O1_2 O 0.42646(13) 1.0000 0.5359(4)
O2_2 O 0.35903(13) 1.0000 0.3555(3)
O4_2 O 0.40647(15) 1.0000 0.9898(4)
C23_2 C 0.61979(17) 1.0000 0.5213(4)
C24_2 C 0.65235(16) 1.0000 0.4307(4)
C25_2 C 0.70404(17) 1.0000 0.4883(5)
H7_2 H 0.7181 1.0000 0.5810
C26_2 C 0.73442(17) 1.0000 0.4042(5)
C27_2 C 0.71289(19) 1.0000 0.2670(5)
H8_2 H 0.7332 1.0000 0.2120
C28_2 C 0.66169(19) 1.0000 0.2087(4)
C29_2 C 0.63144(16) 1.0000 0.2929(4)
H9_2 H 0.5971 1.0000 0.2558
C30_2 C 0.6395(2) 1.0000 0.0600(5)
C31_2 C 0.78983(18) 1.0000 0.4645(5)
C32 C 0.8133(3) 0.9065(11) 0.5599(8)
C33 C 0.8646(3) 0.9036(10) 0.6087(8)
C34_2 C 0.89209(19) 1.0000 0.5654(5)
C35_2 C 0.94703(16) 1.0000 0.6178(4)
C36 C 0.97287(12) 0.8795(4) 0.6425(3)
H10 H 0.9557 0.7983 0.6233
Cd3_2 Cd 0.599583(10) 1.0000 0.79260(3)
O9_2 O 0.57354(13) 1.0000 0.4641(4)
O10_2 O 0.64097(13) 1.0000 0.6445(3)
O18_2 O 0.66819(14) 1.0000 0.9881(3)
O23 O 0.52953(12) 0.8613(3) 0.6817(3)
O24 O 0.47047(12) 0.8613(3) 0.3183(3)
O27 O 0.59699(10) 0.7536(3) 0.7942(3)
O28 O 0.40301(10) 0.7536(3) 0.2058(3)
H13 H 0.208513 0.834697 0.402948
H14 H 0.116681 0.826521 0.319594
H15 H 0.883319 0.826521 0.680406
H16 H 0.791487 0.834697 0.597052
C16 C 0.95007(15) -0.0000 0.2765(4)
H5 H 0.9157 -0.0000 0.2392
C21 C 0.97543(11) 0.1214(3) 0.3040(3)
C22 C 0.94735(13) 0.2525(3) 0.2745(3)
O7 O 0.97047(12) 0.3613(3) 0.3183(3)
O8 O 0.90301(10) 0.2536(3) 0.2058(3)
Cd11 Cd 0.900417(10) 0.5000 0.20740(3)
C15 C 0.97543(11) 0.8786(3) 0.3040(3)
C16_2 C 0.95007(15) 1.0000 0.2765(4)
H5_2 H 0.9157 1.0000 0.2392
C17 C 0.94735(13) 0.7475(3) 0.2745(3)
O5 O 0.97047(12) 0.6387(3) 0.3183(3)
O6 O 0.90301(10) 0.7464(3) 0.2058(3)
O20_3 O 0.09353(15) 0.5000 0.0102(4)
C23_3 C 0.11979(17) 0.5000 0.5213(4)
C24_3 C 0.15235(16) 0.5000 0.4307(4)
C25_3 C 0.20404(17) 0.5000 0.4883(5)
H7_3 H 0.2181 0.5000 0.5810
C26_3 C 0.23442(17) 0.5000 0.4042(5)
C27_3 C 0.21289(19) 0.5000 0.2670(5)
H8_3 H 0.2332 0.5000 0.2120
C28_3 C 0.16169(19) 0.5000 0.2087(4)
C29_3 C 0.13144(16) 0.5000 0.2929(4)
H9_3 H 0.0971 0.5000 0.2558
C30_3 C 0.1395(2) 0.5000 0.0600(5)
C31_3 C 0.28983(18) 0.5000 0.4645(5)
C32_2 C 0.3133(3) 0.4065(11) 0.5599(8)
C33_2 C 0.3646(3) 0.4036(10) 0.6087(8)
C34_3 C 0.39209(19) 0.5000 0.5654(5)
C35_3 C 0.44703(16) 0.5000 0.6178(4)
C36_2 C 0.47287(12) 0.3795(4) 0.6425(3)
H10_2 H 0.4557 0.2983 0.6233
C37_2 C 0.52457(11) 0.3786(3) 0.6960(3)
C38_3 C 0.54993(15) 0.5000 0.7235(4)
H11_3 H 0.5843 0.5000 0.7608
C39_2 C 0.55265(13) 0.2475(3) 0.7255(3)
O9_3 O 0.07354(13) 0.5000 0.4641(4)
O10_3 O 0.14097(13) 0.5000 0.6445(3)
C40_2 C 0.3133(3) 0.5935(11) 0.5599(8)
C41_2 C 0.3646(3) 0.5964(10) 0.6087(8)
C42_2 C 0.47287(12) 0.6205(4) 0.6425(3)
H12_2 H 0.4557 0.7017 0.6233
C43_2 C 0.52457(11) 0.6214(3) 0.6960(3)
C44_2 C 0.55265(13) 0.7525(3) 0.7255(3)
O18_3 O 0.16819(14) 0.5000 0.9881(3)
H15_2 H 0.383319 0.326521 0.680406
H16_2 H 0.291487 0.334697 0.597052
H19_2 H 0.383319 0.673479 0.680406
H20_2 H 0.291487 0.665303 0.597052
O3_3 O 0.83181(14) 0.5000 0.0119(3)
C1_3 C 0.88021(17) 0.5000 0.4787(4)
C2_3 C 0.84765(16) 0.5000 0.5693(4)
C3_3 C 0.79596(17) 0.5000 0.5117(5)
H1_3 H 0.7819 0.5000 0.4190
C4_3 C 0.76558(17) 0.5000 0.5958(5)
C5_3 C 0.78711(19) 0.5000 0.7330(5)
H2_3 H 0.7668 0.5000 0.7880
C6_3 C 0.83831(19) 0.5000 0.7913(4)
C7_3 C 0.86856(16) 0.5000 0.7071(4)
H3_3 H 0.9029 0.5000 0.7442
C8_3 C 0.8605(2) 0.5000 0.9400(5)
C9_3 C 0.71017(18) 0.5000 0.5355(5)
C10_2 C 0.6867(3) 0.4065(11) 0.4401(8)
C11_2 C 0.6354(3) 0.4036(10) 0.3913(8)
C12_3 C 0.60791(19) 0.5000 0.4346(5)
C13_3 C 0.55297(16) 0.5000 0.3822(4)
C14_2 C 0.52713(12) 0.3795(4) 0.3575(3)
H4_2 H 0.5443 0.2983 0.3767
C15_2 C 0.47543(11) 0.3786(3) 0.3040(3)
C16_3 C 0.45007(15) 0.5000 0.2765(4)
H5_3 H 0.4157 0.5000 0.2392
C17_2 C 0.44735(13) 0.2475(3) 0.2745(3)
O1_3 O 0.92646(13) 0.5000 0.5359(4)
O2_3 O 0.85903(13) 0.5000 0.3555(3)
O4_3 O 0.90647(15) 0.5000 0.9898(4)
C18_2 C 0.6867(3) 0.5935(11) 0.4401(8)
C19_2 C 0.6354(3) 0.5964(10) 0.3913(8)
C20_2 C 0.52713(12) 0.6205(4) 0.3575(3)
H6_2 H 0.5443 0.7017 0.3767
C21_2 C 0.47543(11) 0.6214(3) 0.3040(3)
C22_2 C 0.44735(13) 0.7525(3) 0.2745(3)
H13_2 H 0.708513 0.334697 0.402948
H14_2 H 0.616681 0.326521 0.319594
H17_2 H 0.708513 0.665303 0.402948
H18_2 H 0.616681 0.673479 0.319594
loop_
_geom_bond_atom_site_label_1
_geom_bond_atom_site_label_2
_geom_bond_site_symmetry_1
_geom_bond_site_symmetry_2
H11 C38 1_555 1_555
C43 C38 1_555 1_555
C44 C43 1_555 1_555
O15 C44 1_555 1_555
O16 C44 1_555 1_555
Cd7 O15 1_555 1_555
Cd13 O15 1_555 1_555
O16 Cd13 1_555 1_555
C38_2 C37 1_555 1_555
H11_2 C38_2 1_555 1_555
C39 C37 1_555 1_555
O13 C39 1_555 1_555
O14 C39 1_555 1_555
Cd7 O13 1_555 1_555
Cd13 O13 1_555 1_555
O14 Cd13 1_555 1_555
Cd8 O3 1_555 1_555
C1 C2 1_555 1_555
C2 C3 1_555 1_555
C3 H1 1_555 1_555
C4 C3 1_555 1_555
C5 C4 1_555 1_555
H2 C5 1_555 1_555
C6 C5 1_555 1_555
C7 C2 1_555 1_555
H3 C7 1_555 1_555
C8 C6 1_555 1_555
C9 C4 1_555 1_555
C13 C12 1_555 1_555
Cd1 O1 1_555 1_555
Cd8 O2 1_555 1_555
O1 C1 1_555 1_555
O2 C1 1_555 1_555
O4 C8 1_555 1_555
C18 C9 1_555 1_555
C19 C12 1_555 1_555
C20 C13 1_555 1_555
H6 C20 1_555 1_555
C23 C24 1_555 1_555
C24 C25 1_555 1_555
C25 H7 1_555 1_555
C26 C25 1_555 1_555
C27 C26 1_555 1_555
H8 C27 1_555 1_555
C28 C27 1_555 1_555
C29 C24 1_555 1_555
H9 C29 1_555 1_555
C30 C28 1_555 1_555
C31 C26 1_555 1_555
C35 C34 1_555 1_555
Cd3 O10 1_555 1_555
O9 Cd1 1_555 1_555
O10 C23 1_555 1_555
O20 C30 1_555 1_555
C40 C31 1_555 1_555
C41 C34 1_555 1_555
C42 C35 1_555 1_555
H12 C42 1_555 1_555
O18 Cd3 1_555 1_555
O21 Cd1 1_555 1_555
O22 Cd1 1_555 1_555
O25 Cd8 1_555 1_555
O26 Cd3 1_555 1_555
C6 C7 1_555 1_555
Cd8 O21 1_555 1_555
C18 C19 1_555 1_555
C23 O9 1_555 1_555
C28 C29 1_555 1_555
Cd3 O22 1_555 1_555
C40 C41 1_555 1_555
C18 H17 1_555 1_555
C19 H18 1_555 1_555
C41 H19 1_555 1_555
C40 H20 1_555 1_555
Cd8_2 O3_2 1_555 1_555
C1_2 C2_2 1_555 1_555
C2_2 C3_2 1_555 1_555
C3_2 H1_2 1_555 1_555
C4_2 C3_2 1_555 1_555
C5_2 C4_2 1_555 1_555
H2_2 C5_2 1_555 1_555
C6_2 C5_2 1_555 1_555
C7_2 C2_2 1_555 1_555
H3_2 C7_2 1_555 1_555
C8_2 C6_2 1_555 1_555
C9_2 C4_2 1_555 1_555
C10 C9_2 1_555 1_555
C11 C10 1_555 1_555
C12_2 C11 1_555 1_555
C13_2 C12_2 1_555 1_555
C14 C13_2 1_555 1_555
H4 C14 1_555 1_555
Cd1_2 O1_2 1_555 1_555
Cd8_2 O2_2 1_555 1_555
O1_2 C1_2 1_555 1_555
O2_2 C1_2 1_555 1_555
O4_2 C8_2 1_555 1_555
C23_2 C24_2 1_555 1_555
C24_2 C25_2 1_555 1_555
C25_2 H7_2 1_555 1_555
C26_2 C25_2 1_555 1_555
C27_2 C26_2 1_555 1_555
H8_2 C27_2 1_555 1_555
C28_2 C27_2 1_555 1_555
C29_2 C24_2 1_555 1_555
H9_2 C29_2 1_555 1_555
C30_2 C28_2 1_555 1_555
C31_2 C26_2 1_555 1_555
C32 C31_2 1_555 1_555
C33 C32 1_555 1_555
C34_2 C33 1_555 1_555
C35_2 C34_2 1_555 1_555
C36 C35_2 1_555 1_555
H10 C36 1_555 1_555
Cd3_2 O10_2 1_555 1_555
O9_2 Cd1_2 1_555 1_555
O10_2 C23_2 1_555 1_555
O20_2 C30_2 1_555 1_555
O18_2 Cd3_2 1_555 1_555
O23 Cd1_2 1_555 1_555
O24 Cd1_2 1_555 1_555
O27 Cd3_2 1_555 1_555
O28 Cd8_2 1_555 1_555
C6_2 C7_2 1_555 1_555
Cd8_2 O24 1_555 1_555
C23_2 O9_2 1_555 1_555
C28_2 C29_2 1_555 1_555
Cd3_2 O23 1_555 1_555
C10 H13 1_555 1_555
C11 H14 1_555 1_555
C33 H15 1_555 1_555
C32 H16 1_555 1_555
H5 C16 1_555 1_555
C21 C16 1_555 1_555
C22 C21 1_555 1_555
O7 C22 1_555 1_555
O8 C22 1_555 1_555
Cd7_2 O7 1_555 1_555
Cd11 O7 1_555 1_555
O8 Cd11 1_555 1_555
C16_2 C15 1_555 1_555
H5_2 C16_2 1_555 1_555
C17 C15 1_555 1_555
O5 C17 1_555 1_555
O6 C17 1_555 1_555
Cd7_2 O5 1_555 1_555
Cd11 O5 1_555 1_555
O6 Cd11 1_555 1_555
C23_3 C24_3 1_555 1_555
C24_3 C25_3 1_555 1_555
C25_3 H7_3 1_555 1_555
C26_3 C25_3 1_555 1_555
C27_3 C26_3 1_555 1_555
H8_3 C27_3 1_555 1_555
C28_3 C27_3 1_555 1_555
C29_3 C24_3 1_555 1_555
H9_3 C29_3 1_555 1_555
C30_3 C28_3 1_555 1_555
C31_3 C26_3 1_555 1_555
C32_2 C31_3 1_555 1_555
C33_2 C32_2 1_555 1_555
C34_3 C33_2 1_555 1_555
C35_3 C34_3 1_555 1_555
C36_2 C35_3 1_555 1_555
H10_2 C36_2 1_555 1_555
C37_2 C36_2 1_555 1_555
C38_3 C37_2 1_555 1_555
H11_3 C38_3 1_555 1_555
C39_2 C37_2 1_555 1_555
Cd13 O10_3 1_555 1_555
O9_3 Cd7 1_555 1_555
O10_3 C23_3 1_555 1_555
O20_3 C30_3 1_555 1_555
O22 C39_2 1_555 1_555
O26 C39_2 1_555 1_555
C40_2 C31_3 1_555 1_555
C41_2 C34_3 1_555 1_555
C42_2 C35_3 1_555 1_555
H12_2 C42_2 1_555 1_555
C43_2 C38_3 1_555 1_555
C44_2 C43_2 1_555 1_555
O23 C44_2 1_555 1_555
O27 C44_2 1_555 1_555
O18_3 Cd13 1_555 1_555
C23_3 O9_3 1_555 1_555
C28_3 C29_3 1_555 1_555
C40_2 C41_2 1_555 1_555
C42_2 C43_2 1_555 1_555
C33_2 H15_2 1_555 1_555
C32_2 H16_2 1_555 1_555
C41_2 H19_2 1_555 1_555
C40_2 H20_2 1_555 1_555
Cd11 O3_3 1_555 1_555
C1_3 C2_3 1_555 1_555
C2_3 C3_3 1_555 1_555
C3_3 H1_3 1_555 1_555
C4_3 C3_3 1_555 1_555
C5_3 C4_3 1_555 1_555
H2_3 C5_3 1_555 1_555
C6_3 C5_3 1_555 1_555
C7_3 C2_3 1_555 1_555
H3_3 C7_3 1_555 1_555
C8_3 C6_3 1_555 1_555
C9_3 C4_3 1_555 1_555
C10_2 C9_3 1_555 1_555
C11_2 C10_2 1_555 1_555
C12_3 C11_2 1_555 1_555
C13_3 C12_3 1_555 1_555
C14_2 C13_3 1_555 1_555
H4_2 C14_2 1_555 1_555
C15_2 C14_2 1_555 1_555
C16_3 C15_2 1_555 1_555
H5_3 C16_3 1_555 1_555
C17_2 C15_2 1_555 1_555
Cd7_2 O1_3 1_555 1_555
Cd11 O2_3 1_555 1_555
O1_3 C1_3 1_555 1_555
O2_3 C1_3 1_555 1_555
O4_3 C8_3 1_555 1_555
O21 C17_2 1_555 1_555
O25 C17_2 1_555 1_555
C18_2 C9_3 1_555 1_555
C19_2 C12_3 1_555 1_555
C20_2 C13_3 1_555 1_555
H6_2 C20_2 1_555 1_555
C21_2 C16_3 1_555 1_555
C22_2 C21_2 1_555 1_555
O24 C22_2 1_555 1_555
O28 C22_2 1_555 1_555
C6_3 C7_3 1_555 1_555
C18_2 C19_2 1_555 1_555
C20_2 C21_2 1_555 1_555
C10_2 H13_2 1_555 1_555
C11_2 H14_2 1_555 1_555
C18_2 H17_2 1_555 1_555
C19_2 H18_2 1_555 1_555

#END
