
###############################################################################
#
# This file contains modified crystal structure data generated from the
# MOF subset of the Cambridge Structural Database (CSD) v543 
# hosted by the Cambridge Crystallographic Data Centre (CCDC).
#
# This work is licensed under the Creative Commons
# Attribution-NonCommercial-ShareAlike 4.0 International License.
# To view a copy of this license, visit
# http://creativecommons.org/licenses/by-nc-sa/4.0/
# or send a letter to
# Creative Commons, PO Box 1866, Mountain View, CA 94042, USA.
#
# CIF created using the CSD Python API on 29 September 2022
# The structure has been converted into the P1 space group
# The structure has a 3D framework
# The original CSD entry REBYUV is in the monoclinic crystal system
# The framework has been calculated to contain at least 10.0% void space
# The void calculation uses a probe of radius 1.32A, grid spacing 0.4
#
###############################################################################

data_REBYUV
_chemical_formula_moiety         '(C108 H72 Co4 N24 O16)n'
_symmetry_cell_setting           triclinic
_symmetry_space_group_name_H-M   'P 1'
_symmetry_Int_Tables_number      1
_space_group_name_Hall           'P 1'
loop_
_symmetry_equiv_pos_site_id
_symmetry_equiv_pos_as_xyz
1 x,y,z
_cell_length_a                   10.537(5)
_cell_length_b                   24.197(5)
_cell_length_c                   13.211(5)
_cell_angle_alpha                90
_cell_angle_beta                 113.406(5)
_cell_angle_gamma                90
_cell_volume                     3091.16
loop_
_atom_site_label
_atom_site_type_symbol
_atom_site_fract_x
_atom_site_fract_y
_atom_site_fract_z
C12 C 0.0641(3) 0.20349(16) 0.1125(3)
O3 O 0.1711(2) 0.23008(9) 0.17447(18)
O4 O 0.0640(2) 0.15185(10) 0.11069(18)
Co4 Co 0.28511(4) 0.15108(2) 0.21349(3)
C25 C 0.3963(3) 0.03219(14) 0.2343(3)
H16 H 0.4766 0.0420 0.2942
C27 C 0.1959(4) 0.03488(15) 0.1042(3)
H18 H 0.1099 0.0477 0.0561
N5 N 0.2917(3) 0.06529(11) 0.1873(2)
C19 C 0.3646(3) 0.13247(14) 0.0070(3)
H10 H 0.3763 0.0946 0.0197
C21 C 0.3241(4) 0.21746(15) 0.0204(3)
H12 H 0.3022 0.2505 0.0457
N2 N 0.3304(3) 0.16747(11) 0.0700(2)
C1 C 0.5857(4) 0.16015(17) 0.3671(3)
C2 C 0.7104(3) 0.19713(14) 0.4218(3)
C3 C 0.8019(3) 0.18203(15) 0.5241(3)
H1 H 0.7883 0.1489 0.5540
C4 C 0.9156(3) 0.21485(14) 0.5853(3)
H2 H 0.9753 0.2037 0.6554
C5 C 0.9397(3) 0.26362(14) 0.5423(3)
C6 C 0.8481(3) 0.28073(15) 0.4345(3)
C7 C 0.7321(3) 0.24704(15) 0.3738(3)
C8 C 0.6459(4) 0.26324(16) 0.2641(3)
H3 H 0.5708 0.2414 0.2222
C9 C 0.6725(4) 0.30992(17) 0.2210(3)
H4 H 0.6138 0.3201 0.1499
C10 C 0.7851(4) 0.34340(17) 0.2793(3)
H5 H 0.8010 0.3754 0.2471
C11 C 0.8719(4) 0.32932(15) 0.3836(3)
H6 H 0.9476 0.3517 0.4221
C13 C 0.3333(3) 0.14555(14) 0.7289(3)
H7 H 0.2679 0.1737 0.7109
C14 C 0.4088(3) 0.13138(13) 0.8371(3)
C15 C 0.5074(3) 0.09090(14) 0.8665(3)
H8 H 0.5591 0.0828 0.9404
C16 C 0.5283(3) 0.06262(13) 0.7848(3)
C17 C 0.4531(3) 0.07402(14) 0.6740(3)
H9 H 0.4666 0.0537 0.6193
C18 C 0.3574(3) 0.11659(14) 0.6470(3)
C20 C 0.3529(4) 0.21328(15) 0.9314(3)
H11 H 0.3544 0.2417 0.8845
C22 C 0.1532(3) 0.15177(16) 0.4854(3)
H13 H 0.0922 0.1593 0.5187
C23 C 0.1311(3) 0.16008(16) 0.3790(3)
H14 H 0.0508 0.1750 0.3262
C24 C 0.3323(3) 0.12576(13) 0.4536(2)
H15 H 0.4191 0.1119 0.4645
C26 C 0.7547(4) 0.01652(15) 0.8973(3)
H17 H 0.7993 0.0451 0.9452
N1 N 0.3800(3) 0.15845(11) 0.9232(2)
N3 N 0.2837(3) 0.12988(11) 0.5350(2)
N4 N 0.2437(3) 0.14343(11) 0.3594(2)
N6 N 0.6259(3) 0.01784(11) 0.8142(2)
O1 O 0.6012(3) 0.11008(13) 0.3928(3)
O2 O 0.4740(2) 0.18172(11) 0.30746(19)
C3_2 C 0.8019(3) 0.31797(15) 0.0241(3)
H1_2 H 0.7883 0.3511 0.0540
C4_2 C 0.9156(3) 0.28515(14) 0.0853(3)
H2_2 H 0.9753 0.2963 0.1554
C5_2 C 0.9397(3) 0.23638(14) 0.0423(3)
C13_2 C 0.3333(3) 0.35445(14) 0.2289(3)
H7_2 H 0.2679 0.3263 0.2109
C14_2 C 0.4088(3) 0.36862(13) 0.3371(3)
C15_2 C 0.5074(3) 0.40910(14) 0.3665(3)
H8_2 H 0.5591 0.4172 0.4404
C16_2 C 0.5283(3) 0.43738(13) 0.2848(3)
C17_2 C 0.4531(3) 0.42598(14) 0.1740(3)
H9_2 H 0.4666 0.4463 0.1193
C18_2 C 0.3574(3) 0.38341(14) 0.1470(3)
C19_2 C 0.3646(3) 0.36753(14) 0.5070(3)
H10_2 H 0.3763 0.4054 0.5197
C20_2 C 0.3529(4) 0.28672(15) 0.4314(3)
H11_2 H 0.3544 0.2583 0.3845
C21_2 C 0.3241(4) 0.28254(15) 0.5204(3)
H12_2 H 0.3022 0.2495 0.5457
H13_2 H 0.0922 0.3407 0.0187
C25_2 C 0.6037(3) 0.53219(14) 0.2657(3)
H16_2 H 0.5234 0.5420 0.2058
C26_2 C 0.7547(4) 0.48348(15) 0.3973(3)
H17_2 H 0.7993 0.4549 0.4452
C27_2 C 0.8041(4) 0.53488(15) 0.3958(3)
H18_2 H 0.8901 0.5477 0.4439
N1_2 N 0.3800(3) 0.34155(11) 0.4232(2)
N2_2 N 0.3304(3) 0.33253(11) 0.5700(2)
N3_2 N 0.2837(3) 0.37012(11) 0.0350(2)
N5_2 N 0.7083(3) 0.56529(11) 0.3127(2)
N6_2 N 0.6259(3) 0.48216(11) 0.3142(2)
Co2 Co 0.28511(4) 0.34892(2) 0.71349(3)
Co3 Co 0.71489(4) 0.65108(2) 0.28651(3)
C1_2 C 0.5857(4) 0.33985(17) 0.8671(3)
C2_2 C 0.7104(3) 0.30287(14) 0.9218(3)
C6_2 C 0.8481(3) 0.21927(15) 0.9345(3)
C7_2 C 0.7321(3) 0.25296(15) 0.8738(3)
C8_2 C 0.6459(4) 0.23676(16) 0.7641(3)
H3_2 H 0.5708 0.2586 0.7222
C9_2 C 0.6725(4) 0.19008(17) 0.7210(3)
H4_2 H 0.6138 0.1799 0.6499
C10_2 C 0.7851(4) 0.15660(17) 0.7793(3)
H5_2 H 0.8010 0.1246 0.7471
C11_2 C 0.8719(4) 0.17068(15) 0.8836(3)
H6_2 H 0.9476 0.1483 0.9221
C22_2 C 0.1532(3) 0.34823(16) 0.9854(3)
C23_2 C 0.1311(3) 0.33992(16) 0.8790(3)
H14_2 H 0.0508 0.3250 0.8262
C24_2 C 0.3323(3) 0.37424(13) 0.9536(2)
H15_2 H 0.4191 0.3881 0.9645
N4_2 N 0.2437(3) 0.35657(11) 0.8594(2)
O1_2 O 0.6012(3) 0.38992(13) 0.8928(3)
O2_2 O 0.4740(2) 0.31828(11) 0.80746(19)
N8 N 0.2917(3) 0.43471(11) 0.6873(2)
O5 O 0.1711(2) 0.26992(9) 0.67447(18)
O6 O 0.0640(2) 0.34815(10) 0.61069(18)
C12_2 C 0.9359(3) 0.70349(16) 0.3875(3)
O3_2 O 0.8289(2) 0.73008(9) 0.32553(18)
O4_2 O 0.9360(2) 0.65185(10) 0.38931(18)
C1_3 C 0.4143(4) 0.66015(17) 0.1329(3)
C2_3 C 0.2896(3) 0.69713(14) 0.0782(3)
C6_3 C 0.1519(3) 0.78073(15) 0.0655(3)
C7_3 C 0.2679(3) 0.74704(15) 0.1262(3)
C8_3 C 0.3541(4) 0.76324(16) 0.2359(3)
H3_3 H 0.4292 0.7414 0.2778
C9_3 C 0.3275(4) 0.80992(17) 0.2790(3)
H4_3 H 0.3862 0.8201 0.3501
C10_3 C 0.2149(4) 0.84340(17) 0.2207(3)
H5_3 H 0.1990 0.8754 0.2529
C11_3 C 0.1281(4) 0.82932(15) 0.1164(3)
H6_3 H 0.0524 0.8517 0.0779
C22_3 C 0.8468(3) 0.65177(16) 0.0146(3)
C23_3 C 0.8689(3) 0.66008(16) 0.1210(3)
H14_3 H 0.9492 0.6750 0.1738
C24_3 C 0.6677(3) 0.62576(13) 0.0464(2)
H15_3 H 0.5809 0.6119 0.0355
N4_3 N 0.7563(3) 0.64343(11) 0.1406(2)
O1_3 O 0.3988(3) 0.61008(13) 0.1072(3)
O2_3 O 0.5260(2) 0.68172(11) 0.19254(19)
N7 N 0.6696(3) 0.66747(11) 0.4300(2)
C3_3 C 0.1981(3) 0.68203(15) 0.9759(3)
H1_3 H 0.2117 0.6489 0.9460
C4_3 C 0.0844(3) 0.71485(14) 0.9147(3)
H2_3 H 0.0247 0.7037 0.8446
C5_3 C 0.0603(3) 0.76362(14) 0.9577(3)
C13_3 C 0.6667(3) 0.64555(14) 0.7711(3)
H7_3 H 0.7321 0.6737 0.7891
C14_3 C 0.5912(3) 0.63138(13) 0.6629(3)
C15_3 C 0.4926(3) 0.59090(14) 0.6335(3)
H8_3 H 0.4409 0.5828 0.5596
C16_3 C 0.4717(3) 0.56262(13) 0.7152(3)
C17_3 C 0.5469(3) 0.57402(14) 0.8260(3)
H9_3 H 0.5334 0.5537 0.8807
C18_3 C 0.6426(3) 0.61659(14) 0.8530(3)
C19_3 C 0.6354(3) 0.63247(14) 0.4930(3)
H10_3 H 0.6237 0.5946 0.4803
C20_3 C 0.6471(4) 0.71328(15) 0.5686(3)
H11_3 H 0.6456 0.7417 0.6155
C21_3 C 0.6759(4) 0.71746(15) 0.4796(3)
H12_3 H 0.6978 0.7505 0.4543
H13_3 H 0.9078 0.6593 0.9813
C25_3 C 0.3963(3) 0.46781(14) 0.7343(3)
H16_3 H 0.4766 0.4580 0.7942
C26_3 C 0.2453(4) 0.51652(15) 0.6027(3)
H17_3 H 0.2007 0.5451 0.5548
C27_3 C 0.1959(4) 0.46512(15) 0.6042(3)
H18_3 H 0.1099 0.4523 0.5561
N1_3 N 0.6200(3) 0.65845(11) 0.5768(2)
N3_3 N 0.7163(3) 0.62988(11) 0.9650(2)
N6_3 N 0.3741(3) 0.51784(11) 0.6858(2)
C12_3 C 0.0641(3) 0.29651(16) 0.6125(3)
C1_4 C 0.4143(4) 0.83985(17) 0.6329(3)
C2_4 C 0.2896(3) 0.80287(14) 0.5782(3)
C3_4 C 0.1981(3) 0.81797(15) 0.4759(3)
H1_4 H 0.2117 0.8511 0.4460
C4_4 C 0.0844(3) 0.78515(14) 0.4147(3)
H2_4 H 0.0247 0.7963 0.3446
C5_4 C 0.0603(3) 0.73638(14) 0.4577(3)
C6_4 C 0.1519(3) 0.71927(15) 0.5655(3)
C7_4 C 0.2679(3) 0.75296(15) 0.6262(3)
C8_4 C 0.3541(4) 0.73676(16) 0.7359(3)
H3_4 H 0.4292 0.7586 0.7778
C9_4 C 0.3275(4) 0.69008(17) 0.7790(3)
H4_4 H 0.3862 0.6799 0.8501
C10_4 C 0.2149(4) 0.65660(17) 0.7207(3)
H5_4 H 0.1990 0.6246 0.7529
C11_4 C 0.1281(4) 0.67068(15) 0.6164(3)
H6_4 H 0.0524 0.6483 0.5779
C13_4 C 0.6667(3) 0.85445(14) 0.2711(3)
H7_4 H 0.7321 0.8263 0.2891
C14_4 C 0.5912(3) 0.86862(13) 0.1629(3)
C15_4 C 0.4926(3) 0.90910(14) 0.1335(3)
H8_4 H 0.4409 0.9172 0.0596
C16_4 C 0.4717(3) 0.93738(13) 0.2152(3)
C17_4 C 0.5469(3) 0.92598(14) 0.3260(3)
H9_4 H 0.5334 0.9463 0.3807
C18_4 C 0.6426(3) 0.88341(14) 0.3530(3)
C20_4 C 0.6471(4) 0.78672(15) 0.0686(3)
H11_4 H 0.6456 0.7583 0.1155
C22_4 C 0.8468(3) 0.84823(16) 0.5146(3)
H13_4 H 0.9078 0.8407 0.4813
C23_4 C 0.8689(3) 0.83992(16) 0.6210(3)
H14_4 H 0.9492 0.8250 0.6738
C24_4 C 0.6677(3) 0.87424(13) 0.5464(2)
H15_4 H 0.5809 0.8881 0.5355
C26_4 C 0.2453(4) 0.98348(15) 0.1027(3)
H17_4 H 0.2007 0.9549 0.0548
N1_4 N 0.6200(3) 0.84155(11) 0.0768(2)
N3_4 N 0.7163(3) 0.87012(11) 0.4650(2)
N4_4 N 0.7563(3) 0.85657(11) 0.6406(2)
N6_4 N 0.3741(3) 0.98216(11) 0.1858(2)
O1_4 O 0.3988(3) 0.88992(13) 0.6072(3)
O2_4 O 0.5260(2) 0.81828(11) 0.69254(19)
Co1 Co 0.71489(4) 0.84892(2) 0.78651(3)
N7_2 N 0.6696(3) 0.83253(11) 0.9300(2)
N8_2 N 0.7083(3) 0.93471(11) 0.8127(2)
O5_2 O 0.8289(2) 0.76992(9) 0.82553(18)
O6_2 O 0.9360(2) 0.84815(10) 0.88931(18)
C19_4 C 0.6354(3) 0.86753(14) 0.9930(3)
H10_4 H 0.6237 0.9054 0.9803
C21_4 C 0.6759(4) 0.78254(15) 0.9796(3)
H12_4 H 0.6978 0.7495 0.9543
C12_4 C 0.9359(3) 0.79651(16) 0.8875(3)
C25_4 C 0.6037(3) 0.96781(14) 0.7657(3)
H16_4 H 0.5234 0.9580 0.7058
C27_4 C 0.8041(4) 0.96512(15) 0.8958(3)
H18_4 H 0.8901 0.9523 0.9439
loop_
_geom_bond_atom_site_label_1
_geom_bond_atom_site_label_2
_geom_bond_site_symmetry_1
_geom_bond_site_symmetry_2
O3 C12 1_555 1_555
O4 C12 1_555 1_555
Co4 O3 1_555 1_555
O4 Co4 1_555 1_555
C25 H16 1_555 1_555
H18 C27 1_555 1_555
N5 C25 1_555 1_555
Co4 N5 1_555 1_555
C27 N5 1_555 1_555
C19 H10 1_555 1_555
H12 C21 1_555 1_555
N2 C19 1_555 1_555
Co4 N2 1_555 1_555
C21 N2 1_555 1_555
C1 C2 1_555 1_555
C2 C3 1_555 1_555
C3 H1 1_555 1_555
C4 C3 1_555 1_555
H2 C4 1_555 1_555
C5 C4 1_555 1_555
C6 C5 1_555 1_555
C7 C2 1_555 1_555
C8 C7 1_555 1_555
H3 C8 1_555 1_555
C9 C8 1_555 1_555
H4 C9 1_555 1_555
C10 C9 1_555 1_555
H5 C10 1_555 1_555
C11 C6 1_555 1_555
H6 C11 1_555 1_555
C13 H7 1_555 1_555
C14 C13 1_555 1_555
C15 C14 1_555 1_555
H8 C15 1_555 1_555
C16 C15 1_555 1_555
C17 C16 1_555 1_555
H9 C17 1_555 1_555
C18 C13 1_555 1_555
C20 H11 1_555 1_555
C22 H13 1_555 1_555
C23 C22 1_555 1_555
H14 C23 1_555 1_555
C24 H15 1_555 1_555
C26 H17 1_555 1_555
N1 C14 1_555 1_555
N3 C18 1_555 1_555
N4 C23 1_555 1_555
N6 C16 1_555 1_555
O1 C1 1_555 1_555
O2 C1 1_555 1_555
Co4 N4 1_555 1_555
C6 C7 1_555 1_555
C10 C11 1_555 1_555
C17 C18 1_555 1_555
C20 N1 1_555 1_555
C22 N3 1_555 1_555
C24 N3 1_555 1_555
C24 N4 1_555 1_555
C26 N6 1_555 1_555
O2 Co4 1_555 1_555
C3_2 H1_2 1_555 1_555
C4_2 C3_2 1_555 1_555
H2_2 C4_2 1_555 1_555
C5_2 C4_2 1_555 1_555
C13_2 H7_2 1_555 1_555
C14_2 C13_2 1_555 1_555
C15_2 C14_2 1_555 1_555
H8_2 C15_2 1_555 1_555
C16_2 C15_2 1_555 1_555
C17_2 C16_2 1_555 1_555
H9_2 C17_2 1_555 1_555
C18_2 C13_2 1_555 1_555
C19_2 H10_2 1_555 1_555
C20_2 H11_2 1_555 1_555
C21_2 C20_2 1_555 1_555
H12_2 C21_2 1_555 1_555
C25_2 H16_2 1_555 1_555
C26_2 H17_2 1_555 1_555
C27_2 C26_2 1_555 1_555
H18_2 C27_2 1_555 1_555
N1_2 C14_2 1_555 1_555
N2_2 C19_2 1_555 1_555
N3_2 C18_2 1_555 1_555
N5_2 C25_2 1_555 1_555
N6_2 C16_2 1_555 1_555
Co2 N2_2 1_555 1_555
Co3 N5_2 1_555 1_555
C17_2 C18_2 1_555 1_555
C19_2 N1_2 1_555 1_555
C20_2 N1_2 1_555 1_555
C21_2 N2_2 1_555 1_555
C25_2 N6_2 1_555 1_555
C26_2 N6_2 1_555 1_555
C27_2 N5_2 1_555 1_555
C1_2 C2_2 1_555 1_555
C7_2 C2_2 1_555 1_555
C8_2 C7_2 1_555 1_555
H3_2 C8_2 1_555 1_555
C9_2 C8_2 1_555 1_555
H4_2 C9_2 1_555 1_555
C10_2 C9_2 1_555 1_555
H5_2 C10_2 1_555 1_555
C11_2 C6_2 1_555 1_555
H6_2 C11_2 1_555 1_555
C23_2 C22_2 1_555 1_555
H14_2 C23_2 1_555 1_555
C24_2 H15_2 1_555 1_555
N4_2 C23_2 1_555 1_555
O1_2 C1_2 1_555 1_555
O2_2 C1_2 1_555 1_555
Co2 N4_2 1_555 1_555
N8 Co2 1_555 1_555
O5 Co2 1_555 1_555
O6 Co2 1_555 1_555
C6_2 C7_2 1_555 1_555
C10_2 C11_2 1_555 1_555
C24_2 N4_2 1_555 1_555
O2_2 Co2 1_555 1_555
O3_2 C12_2 1_555 1_555
O4_2 C12_2 1_555 1_555
Co3 O3_2 1_555 1_555
O4_2 Co3 1_555 1_555
C1_3 C2_3 1_555 1_555
C7_3 C2_3 1_555 1_555
C8_3 C7_3 1_555 1_555
H3_3 C8_3 1_555 1_555
C9_3 C8_3 1_555 1_555
H4_3 C9_3 1_555 1_555
C10_3 C9_3 1_555 1_555
H5_3 C10_3 1_555 1_555
C11_3 C6_3 1_555 1_555
H6_3 C11_3 1_555 1_555
C23_3 C22_3 1_555 1_555
H14_3 C23_3 1_555 1_555
C24_3 H15_3 1_555 1_555
N4_3 C23_3 1_555 1_555
O1_3 C1_3 1_555 1_555
O2_3 C1_3 1_555 1_555
Co3 N4_3 1_555 1_555
N7 Co3 1_555 1_555
C6_3 C7_3 1_555 1_555
C10_3 C11_3 1_555 1_555
C24_3 N4_3 1_555 1_555
O2_3 Co3 1_555 1_555
C3_3 H1_3 1_555 1_555
C4_3 C3_3 1_555 1_555
H2_3 C4_3 1_555 1_555
C5_3 C4_3 1_555 1_555
C13_3 H7_3 1_555 1_555
C14_3 C13_3 1_555 1_555
C15_3 C14_3 1_555 1_555
H8_3 C15_3 1_555 1_555
C16_3 C15_3 1_555 1_555
C17_3 C16_3 1_555 1_555
H9_3 C17_3 1_555 1_555
C18_3 C13_3 1_555 1_555
C19_3 H10_3 1_555 1_555
C20_3 H11_3 1_555 1_555
C21_3 C20_3 1_555 1_555
H12_3 C21_3 1_555 1_555
C25_3 H16_3 1_555 1_555
C26_3 H17_3 1_555 1_555
C27_3 C26_3 1_555 1_555
H18_3 C27_3 1_555 1_555
N1_3 C14_3 1_555 1_555
N7 C19_3 1_555 1_555
N3_3 C18_3 1_555 1_555
N8 C25_3 1_555 1_555
N6_3 C16_3 1_555 1_555
C17_3 C18_3 1_555 1_555
C19_3 N1_3 1_555 1_555
C20_3 N1_3 1_555 1_555
C21_3 N7 1_555 1_555
C25_3 N6_3 1_555 1_555
C26_3 N6_3 1_555 1_555
C27_3 N8 1_555 1_555
O5 C12_3 1_555 1_555
O6 C12_3 1_555 1_555
C1_4 C2_4 1_555 1_555
C2_4 C3_4 1_555 1_555
C3_4 H1_4 1_555 1_555
C4_4 C3_4 1_555 1_555
H2_4 C4_4 1_555 1_555
C5_4 C4_4 1_555 1_555
C6_4 C5_4 1_555 1_555
C7_4 C2_4 1_555 1_555
C8_4 C7_4 1_555 1_555
H3_4 C8_4 1_555 1_555
C9_4 C8_4 1_555 1_555
H4_4 C9_4 1_555 1_555
C10_4 C9_4 1_555 1_555
H5_4 C10_4 1_555 1_555
C11_4 C6_4 1_555 1_555
H6_4 C11_4 1_555 1_555
C13_4 H7_4 1_555 1_555
C14_4 C13_4 1_555 1_555
C15_4 C14_4 1_555 1_555
H8_4 C15_4 1_555 1_555
C16_4 C15_4 1_555 1_555
C17_4 C16_4 1_555 1_555
H9_4 C17_4 1_555 1_555
C18_4 C13_4 1_555 1_555
C20_4 H11_4 1_555 1_555
C22_4 H13_4 1_555 1_555
C23_4 C22_4 1_555 1_555
H14_4 C23_4 1_555 1_555
C24_4 H15_4 1_555 1_555
C26_4 H17_4 1_555 1_555
N1_4 C14_4 1_555 1_555
N3_4 C18_4 1_555 1_555
N4_4 C23_4 1_555 1_555
N6_4 C16_4 1_555 1_555
O1_4 C1_4 1_555 1_555
O2_4 C1_4 1_555 1_555
Co1 N4_4 1_555 1_555
N7_2 Co1 1_555 1_555
N8_2 Co1 1_555 1_555
O5_2 Co1 1_555 1_555
O6_2 Co1 1_555 1_555
C6_4 C7_4 1_555 1_555
C10_4 C11_4 1_555 1_555
C17_4 C18_4 1_555 1_555
C20_4 N1_4 1_555 1_555
C22_4 N3_4 1_555 1_555
C24_4 N3_4 1_555 1_555
C24_4 N4_4 1_555 1_555
C26_4 N6_4 1_555 1_555
O2_4 Co1 1_555 1_555
C19_4 H10_4 1_555 1_555
H12_4 C21_4 1_555 1_555
N7_2 C19_4 1_555 1_555
C21_4 N7_2 1_555 1_555
O5_2 C12_4 1_555 1_555
O6_2 C12_4 1_555 1_555
C25_4 H16_4 1_555 1_555
H18_4 C27_4 1_555 1_555
N8_2 C25_4 1_555 1_555
C27_4 N8_2 1_555 1_555

#END
