
###############################################################################
#
# This file contains modified crystal structure data generated from the
# MOF subset of the Cambridge Structural Database (CSD) v543 
# hosted by the Cambridge Crystallographic Data Centre (CCDC).
#
# This work is licensed under the Creative Commons
# Attribution-NonCommercial-ShareAlike 4.0 International License.
# To view a copy of this license, visit
# http://creativecommons.org/licenses/by-nc-sa/4.0/
# or send a letter to
# Creative Commons, PO Box 1866, Mountain View, CA 94042, USA.
#
# CIF created using the CSD Python API on 29 September 2022
# The structure has been converted into the P1 space group
# The structure has a 3D framework
# The original CSD entry RECROK is in the monoclinic crystal system
# The framework has been calculated to contain at least 10.0% void space
# The void calculation uses a probe of radius 1.32A, grid spacing 0.4
#
###############################################################################

data_RECROK
_chemical_formula_moiety         '(C48 H24 Cu4 F8 N8 O16)n'
_symmetry_cell_setting           triclinic
_symmetry_space_group_name_H-M   'P 1'
_symmetry_Int_Tables_number      1
_space_group_name_Hall           'P 1'
loop_
_symmetry_equiv_pos_site_id
_symmetry_equiv_pos_as_xyz
1 x,y,z
_cell_length_a                   11.4307(7)
_cell_length_b                   12.2848(5)
_cell_length_c                   12.7420(7)
_cell_angle_alpha                90
_cell_angle_beta                 114.680(7)
_cell_angle_gamma                90
_cell_volume                     1625.84
loop_
_atom_site_label
_atom_site_type_symbol
_atom_site_fract_x
_atom_site_fract_y
_atom_site_fract_z
Cu3 Cu 0.80993(4) 0.04199(3) 0.02455(3)
Cu1 Cu 0.69007(4) 0.54199(3) 0.47545(3)
O1 O 0.7127(2) 0.4288(2) 0.5898(2)
O2 O 0.6967(2) 0.6522(2) 0.3671(2)
F1 F 0.6158(2) 0.6921(2) 0.1235(2)
N1 N 0.8080(3) 0.9228(2) 0.1323(2)
O3 O 0.5279(3) 0.4382(3) 0.6083(3)
O4 O 0.9051(3) 0.6200(2) 0.4187(2)
N2 N 0.7616(3) 0.1547(2) 0.8991(2)
F2 F 0.8782(3) 0.2746(3) 0.7082(3)
C1 C 0.6352(3) 0.3998(3) 0.6311(3)
C2 C 0.8037(3) 0.7559(3) 0.2794(3)
C3 C 0.6829(3) 0.3116(3) 0.7228(3)
C4 C 0.8344(4) 0.1803(3) 0.8445(3)
H1 H 0.9134 0.1456 0.8658
C5 C 0.7113(3) 0.7660(3) 0.1670(3)
C6 C 0.8043(3) 0.6668(3) 0.3614(3)
C7 C 0.7150(3) 0.8478(3) 0.0956(3)
H2 H 0.6517 0.8513 0.0204
C8 C 0.8980(4) 0.9164(3) 0.2409(3)
H3 H 0.9622 0.9691 0.2671
C9 C 0.6060(4) 0.2821(3) 0.7783(3)
H4 H 0.5258 0.3145 0.7571
C10 C 0.6479(4) 0.2051(3) 0.8647(3)
H5 H 0.5947 0.1872 0.9008
C11 C 0.8993(3) 0.8348(3) 0.3153(3)
H6 H 0.9642 0.8326 0.3898
C12 C 0.7973(4) 0.2561(3) 0.7579(3)
Cu4 Cu 0.30993(4) 0.45801(3) 0.52455(3)
N3 N 0.6920(3) 0.4228(2) 0.3677(2)
O5 O 0.4721(3) 0.5618(3) 0.3917(3)
N4 N 0.7384(3) 0.6547(2) 0.6009(2)
O5_2 O 0.0279(3) 0.0618(3) 0.1083(3)
Cu4_2 Cu 0.19007(4) 0.95801(3) 0.97545(3)
O2_2 O 0.8033(2) 0.1522(2) 0.1329(2)
F1_2 F 0.8842(2) 0.1921(2) 0.3765(2)
O4_2 O 0.5949(3) 0.1200(2) 0.0813(2)
C2_2 C 0.6963(3) 0.2559(3) 0.2206(3)
C5_2 C 0.7887(3) 0.2660(3) 0.3330(3)
C6_2 C 0.6957(3) 0.1668(3) 0.1386(3)
C7_2 C 0.7850(3) 0.3478(3) 0.4044(3)
H2_2 H 0.8483 0.3513 0.4796
C8_2 C 0.6020(4) 0.4164(3) 0.2591(3)
H3_2 H 0.5378 0.4691 0.2329
C11_2 C 0.6007(3) 0.3348(3) 0.1847(3)
H6_2 H 0.5358 0.3326 0.1102
O1_2 O 0.7873(2) 0.9288(2) 0.9102(2)
O3_2 O 0.9721(3) 0.9382(3) 0.8917(3)
F2_2 F 0.6218(3) 0.7746(3) 0.7918(3)
C1_2 C 0.8648(3) 0.8998(3) 0.8689(3)
C3_2 C 0.8171(3) 0.8116(3) 0.7772(3)
C4_2 C 0.6656(4) 0.6803(3) 0.6555(3)
H1_2 H 0.5866 0.6456 0.6342
C9_2 C 0.8940(4) 0.7821(3) 0.7217(3)
H4_2 H 0.9742 0.8145 0.7429
C10_2 C 0.8521(4) 0.7051(3) 0.6353(3)
H5_2 H 0.9053 0.6872 0.5992
C12_2 C 0.7027(4) 0.7561(3) 0.7421(3)
O1_3 O 0.2873(2) 0.5712(2) 0.4102(2)
O2_3 O 0.3033(2) 0.3478(2) 0.6329(2)
F1_3 F 0.3842(2) 0.3079(2) 0.8765(2)
N1_2 N 0.1920(3) 0.0772(2) 0.8677(2)
O4_3 O 0.0949(3) 0.3800(2) 0.5813(2)
N2_2 N 0.2384(3) 0.8453(2) 0.1009(2)
F2_3 F 0.1218(3) 0.7254(3) 0.2918(3)
C1_3 C 0.3648(3) 0.6002(3) 0.3689(3)
C2_3 C 0.1963(3) 0.2441(3) 0.7206(3)
C3_3 C 0.3171(3) 0.6884(3) 0.2772(3)
C4_3 C 0.1656(4) 0.8197(3) 0.1555(3)
H1_3 H 0.0866 0.8544 0.1342
C5_3 C 0.2887(3) 0.2340(3) 0.8330(3)
C6_3 C 0.1957(3) 0.3332(3) 0.6386(3)
C7_3 C 0.2850(3) 0.1522(3) 0.9044(3)
H2_3 H 0.3483 0.1487 0.9796
C8_3 C 0.1020(4) 0.0836(3) 0.7591(3)
H3_3 H 0.0378 0.0309 0.7329
C9_3 C 0.3940(4) 0.7179(3) 0.2217(3)
H4_3 H 0.4742 0.6855 0.2429
C10_3 C 0.3521(4) 0.7949(3) 0.1353(3)
H5_3 H 0.4053 0.8128 0.0992
C11_3 C 0.1007(3) 0.1652(3) 0.6847(3)
H6_3 H 0.0358 0.1674 0.6102
C12_3 C 0.2027(4) 0.7439(3) 0.2421(3)
N3_2 N 0.3080(3) 0.5772(2) 0.6323(2)
N4_2 N 0.2616(3) 0.3453(2) 0.3991(2)
O1_4 O 0.2127(2) 0.0712(2) 0.0898(2)
F2_4 F 0.3782(3) 0.2254(3) 0.2082(3)
C1_4 C 0.1352(3) 0.1002(3) 0.1311(3)
C3_4 C 0.1829(3) 0.1884(3) 0.2228(3)
C4_4 C 0.3344(4) 0.3197(3) 0.3445(3)
H1_4 H 0.4134 0.3544 0.3658
C9_4 C 0.1060(4) 0.2179(3) 0.2783(3)
H4_4 H 0.0258 0.1855 0.2571
C10_4 C 0.1479(4) 0.2949(3) 0.3647(3)
H5_4 H 0.0947 0.3128 0.4008
C12_4 C 0.2973(4) 0.2439(3) 0.2579(3)
O2_4 O 0.1967(2) 0.8478(2) 0.8671(2)
F1_4 F 0.1158(2) 0.8079(2) 0.6235(2)
O4_4 O 0.4051(3) 0.8800(2) 0.9187(2)
C2_4 C 0.3037(3) 0.7441(3) 0.7794(3)
C5_4 C 0.2113(3) 0.7340(3) 0.6670(3)
C6_4 C 0.3043(3) 0.8332(3) 0.8614(3)
C7_4 C 0.2150(3) 0.6522(3) 0.5956(3)
H2_4 H 0.1517 0.6487 0.5204
C8_4 C 0.3980(4) 0.5836(3) 0.7409(3)
H3_4 H 0.4622 0.5309 0.7671
C11_4 C 0.3993(3) 0.6652(3) 0.8153(3)
H6_4 H 0.4642 0.6674 0.8898
loop_
_geom_bond_atom_site_label_1
_geom_bond_atom_site_label_2
_geom_bond_site_symmetry_1
_geom_bond_site_symmetry_2
Cu1 O1 1_555 1_555
O1 C1 1_555 1_555
O2 Cu1 1_555 1_555
F1 C5 1_555 1_555
N1 C7 1_555 1_555
O3 C1 1_555 1_555
O4 C6 1_555 1_555
N2 C4 1_555 1_555
F2 C12 1_555 1_555
C1 C3 1_555 1_555
C2 C5 1_555 1_555
C3 C9 1_555 1_555
C4 H1 1_555 1_555
C5 C7 1_555 1_555
C6 O2 1_555 1_555
C7 H2 1_555 1_555
C8 N1 1_555 1_555
H3 C8 1_555 1_555
C9 H4 1_555 1_555
C10 N2 1_555 1_555
H5 C10 1_555 1_555
C11 C2 1_555 1_555
H6 C11 1_555 1_555
C12 C3 1_555 1_555
Cu4 O3 1_555 1_555
N3 Cu1 1_555 1_555
O5 Cu1 1_555 1_555
N4 Cu1 1_555 1_555
C2 C6 1_555 1_555
C4 C12 1_555 1_555
C8 C11 1_555 1_555
C9 C10 1_555 1_555
O2_2 Cu3 1_555 1_555
F1_2 C5_2 1_555 1_555
N3 C7_2 1_555 1_555
O4_2 C6_2 1_555 1_555
C2_2 C5_2 1_555 1_555
C5_2 C7_2 1_555 1_555
C6_2 O2_2 1_555 1_555
C7_2 H2_2 1_555 1_555
C8_2 N3 1_555 1_555
H3_2 C8_2 1_555 1_555
C11_2 C2_2 1_555 1_555
H6_2 C11_2 1_555 1_555
C2_2 C6_2 1_555 1_555
C8_2 C11_2 1_555 1_555
O1_2 C1_2 1_555 1_555
O3_2 C1_2 1_555 1_555
N4 C4_2 1_555 1_555
F2_2 C12_2 1_555 1_555
C1_2 C3_2 1_555 1_555
C3_2 C9_2 1_555 1_555
C4_2 H1_2 1_555 1_555
C9_2 H4_2 1_555 1_555
C10_2 N4 1_555 1_555
H5_2 C10_2 1_555 1_555
C12_2 C3_2 1_555 1_555
C4_2 C12_2 1_555 1_555
C9_2 C10_2 1_555 1_555
Cu4 O1_3 1_555 1_555
O1_3 C1_3 1_555 1_555
O2_3 Cu4 1_555 1_555
F1_3 C5_3 1_555 1_555
N1_2 C7_3 1_555 1_555
O5 C1_3 1_555 1_555
O4_3 C6_3 1_555 1_555
N2_2 C4_3 1_555 1_555
F2_3 C12_3 1_555 1_555
C1_3 C3_3 1_555 1_555
C2_3 C5_3 1_555 1_555
C3_3 C9_3 1_555 1_555
C4_3 H1_3 1_555 1_555
C5_3 C7_3 1_555 1_555
C6_3 O2_3 1_555 1_555
C7_3 H2_3 1_555 1_555
C8_3 N1_2 1_555 1_555
H3_3 C8_3 1_555 1_555
C9_3 H4_3 1_555 1_555
C10_3 N2_2 1_555 1_555
H5_3 C10_3 1_555 1_555
C11_3 C2_3 1_555 1_555
H6_3 C11_3 1_555 1_555
C12_3 C3_3 1_555 1_555
N3_2 Cu4 1_555 1_555
N4_2 Cu4 1_555 1_555
C2_3 C6_3 1_555 1_555
C4_3 C12_3 1_555 1_555
C8_3 C11_3 1_555 1_555
C9_3 C10_3 1_555 1_555
O1_4 C1_4 1_555 1_555
O5_2 C1_4 1_555 1_555
N4_2 C4_4 1_555 1_555
F2_4 C12_4 1_555 1_555
C1_4 C3_4 1_555 1_555
C3_4 C9_4 1_555 1_555
C4_4 H1_4 1_555 1_555
C9_4 H4_4 1_555 1_555
C10_4 N4_2 1_555 1_555
H5_4 C10_4 1_555 1_555
C12_4 C3_4 1_555 1_555
C4_4 C12_4 1_555 1_555
C9_4 C10_4 1_555 1_555
O2_4 Cu4_2 1_555 1_555
F1_4 C5_4 1_555 1_555
N3_2 C7_4 1_555 1_555
O4_4 C6_4 1_555 1_555
C2_4 C5_4 1_555 1_555
C5_4 C7_4 1_555 1_555
C6_4 O2_4 1_555 1_555
C7_4 H2_4 1_555 1_555
C8_4 N3_2 1_555 1_555
H3_4 C8_4 1_555 1_555
C11_4 C2_4 1_555 1_555
H6_4 C11_4 1_555 1_555
C2_4 C6_4 1_555 1_555
C8_4 C11_4 1_555 1_555

#END
