
###############################################################################
#
# This file contains modified crystal structure data generated from the
# MOF subset of the Cambridge Structural Database (CSD) v543 
# hosted by the Cambridge Crystallographic Data Centre (CCDC).
#
# This work is licensed under the Creative Commons
# Attribution-NonCommercial-ShareAlike 4.0 International License.
# To view a copy of this license, visit
# http://creativecommons.org/licenses/by-nc-sa/4.0/
# or send a letter to
# Creative Commons, PO Box 1866, Mountain View, CA 94042, USA.
#
# CIF created using the CSD Python API on 29 September 2022
# The structure has been converted into the P1 space group
# The structure has a 3D framework
# The original CSD entry REDGUG is in the monoclinic crystal system
# The original CSD entry REDGUG is in a Sohncke space group
# The framework has been calculated to contain at least 10.0% void space
# The void calculation uses a probe of radius 1.32A, grid spacing 0.4
# The framework is charged, counterions have been retained in the structure
#
###############################################################################

data_REDGUG
_chemical_formula_moiety         '(C92 H76 Co3 N16 O24 1-)n'
_symmetry_cell_setting           triclinic
_symmetry_space_group_name_H-M   'P 1'
_symmetry_Int_Tables_number      1
_space_group_name_Hall           'P 1'
loop_
_symmetry_equiv_pos_site_id
_symmetry_equiv_pos_as_xyz
1 x,y,z
_cell_length_a                   10.19880(10)
_cell_length_b                   24.6101(2)
_cell_length_c                   11.43370(10)
_cell_angle_alpha                90
_cell_angle_beta                 92.7540(10)
_cell_angle_gamma                90
_cell_volume                     2866.47
loop_
_atom_site_label
_atom_site_type_symbol
_atom_site_fract_x
_atom_site_fract_y
_atom_site_fract_z
N1 N 0.4902(5) 0.5454(3) 0.2741(5)
O1 O 0.3743(4) 0.5393(3) 0.2977(5)
O2 O 0.5778(4) 0.5477(2) 0.3579(4)
O3 O 0.5235(6) 0.5500(4) 0.1723(5)
N1_2 N 0.5098(5) 0.0454(3) 0.7259(5)
O1_2 O 0.6257(4) 0.0393(3) 0.7023(5)
O2_2 O 0.4222(4) 0.0477(2) 0.6421(4)
O3_2 O 0.4765(6) 0.0500(4) 0.8277(5)
N2 N 0.0012(6) 0.3759(3) 0.8943(6)
O5 O 0.0415(7) 0.3880(4) 0.9964(7)
O6 O 0.0832(5) 0.3750(3) 0.8136(5)
O4 O 0.8844(6) 0.3692(3) 0.8705(7)
O4_2 O 0.1156(6) 0.8692(3) 0.1295(7)
N2_2 N 0.9988(6) 0.8759(3) 0.1057(6)
O5_2 O 0.9585(7) 0.8880(4) 0.0036(7)
O6_2 O 0.9168(5) 0.8750(3) 0.1864(5)
O10 O 0.0052(3) 0.41106(15) 0.5948(3)
H38 H 0.036(4) 0.405(2) 0.665(3)
Co2 Co 0.47040(7) 0.41772(3) 0.55630(6)
H2 H 0.042089 0.611115 0.482105
C13 C 0.0770(5) 0.5299(3) 0.9478(5)
H11 H 0.152557 0.543940 0.989194
C15 C 0.0737(5) 0.5265(3) 0.8272(5)
H12 H 0.147681 0.539032 0.787585
N7 N 0.4722(4) 0.4144(2) 0.3674(4)
C21 C 0.3606(5) 0.4052(3) 0.3014(5)
H17 H 0.281231 0.400241 0.340366
C22 C 0.3558(5) 0.4026(3) 0.1817(5)
H18 H 0.274880 0.396088 0.139464
C23 C 0.4710(5) 0.4097(3) 0.1222(5)
C24 C 0.5847(6) 0.4179(4) 0.1885(5)
H19 H 0.665643 0.422351 0.151874
C25 C 0.5808(6) 0.4197(4) 0.3097(5)
H20 H 0.661027 0.424996 0.353868
C31 C 0.4107(5) 0.5671(2) 0.6929(5)
C32 C 0.3347(6) 0.6129(3) 0.7131(6)
H25 H 0.277558 0.626782 0.652222
C33 C 0.3422(7) 0.6384(3) 0.8225(7)
H26 H 0.288303 0.669052 0.836192
C34 C 0.4274(7) 0.6194(3) 0.9106(7)
H27 H 0.432203 0.636922 0.984751
C35 C 0.5044(6) 0.5755(3) 0.8911(6)
H28 H 0.564468 0.562889 0.951220
C36 C 0.4955(5) 0.5486(2) 0.7823(5)
H29 H 0.548189 0.517416 0.770197
C37 C 0.3955(5) 0.5379(2) 0.5772(4)
H30 H 0.386681 0.565695 0.513628
O7 O 0.5066(3) 0.50464(15) 0.5560(3)
H31 H 0.534(5) 0.514(2) 0.491(3)
C38 C 0.2720(4) 0.5018(2) 0.5704(4)
O8 O 0.1642(3) 0.52580(15) 0.5816(3)
O9 O 0.2842(3) 0.45212(15) 0.5517(3)
C39 C 0.8957(5) 0.3423(2) 0.4705(6)
C40 C 0.8460(6) 0.2901(3) 0.4737(7)
H32 H 0.810767 0.276668 0.543520
C41 C 0.8474(8) 0.2563(3) 0.3723(9)
H33 H 0.814357 0.220210 0.374421
C42 C 0.8969(9) 0.2765(4) 0.2718(9)
H34 H 0.897332 0.254304 0.203846
C43 C 0.9461(9) 0.3286(4) 0.2679(8)
H35 H 0.979308 0.342537 0.197716
C44 C 0.9464(8) 0.3605(3) 0.3687(7)
H36 H 0.982735 0.396025 0.366741
C45 C 0.8894(5) 0.3785(2) 0.5786(5)
H37 H 0.881087 0.354936 0.649064
C46 C 0.7691(4) 0.4149(2) 0.5656(4)
O11 O 0.6604(3) 0.39111(15) 0.5630(3)
O12 O 0.7860(3) 0.46554(14) 0.5592(3)
Co4 Co 0.97389(7) 0.49858(3) 0.57309(6)
N9 N 0.3935(4) 0.33673(18) 0.5446(4)
N11 N 0.4694(4) 0.41259(19) 0.7464(4)
C26 C 0.4696(5) 0.4091(2) 0.9930(5)
C27 C 0.3572(5) 0.4237(3) 0.9248(5)
H21 H 0.278478 0.432919 0.961304
C28 C 0.3614(5) 0.4246(2) 0.8047(4)
H22 H 0.283715 0.434169 0.760418
C29 C 0.5763(5) 0.3966(3) 0.8114(5)
H23 H 0.652188 0.386073 0.772064
C30 C 0.5813(6) 0.3949(3) 0.9326(5)
H24 H 0.659688 0.384155 0.974518
C14 C 0.9701(5) 0.5128(2) 0.0085(5)
C16 C 0.9725(5) 0.5111(2) 0.1384(4)
C17 C 0.8594(5) 0.5170(3) 0.2007(5)
H13 H 0.777657 0.524508 0.160650
C18 C 0.8666(5) 0.5118(3) 0.3205(5)
H14 H 0.788207 0.515970 0.361307
N6 N 0.9787(4) 0.5011(2) 0.3831(4)
N3 N 0.8924(4) 0.57801(18) 0.5602(4)
C1 C 0.9009(6) 0.6684(2) 0.4839(6)
H1 H 0.948512 0.695242 0.443966
C2 C 0.9557(5) 0.6179(2) 0.5061(6)
C3 C 0.7755(5) 0.6797(2) 0.5202(5)
C4 C 0.7105(5) 0.6390(2) 0.5767(5)
H3 H 0.625012 0.645083 0.603545
C5 C 0.7715(5) 0.5888(2) 0.5940(5)
H4 H 0.724955 0.560946 0.631725
C6 C 0.7146(5) 0.7337(2) 0.4967(5)
C7 C 0.5808(6) 0.7417(3) 0.4869(8)
H5 H 0.522737 0.711871 0.494014
C8 C 0.5316(6) 0.7932(3) 0.4669(8)
H6 H 0.438974 0.797738 0.460891
N4 N 0.6065(4) 0.83673(18) 0.4554(4)
C9 C 0.7349(6) 0.8290(3) 0.4627(8)
H7 H 0.790614 0.859375 0.452327
C10 C 0.7922(6) 0.7788(3) 0.4849(8)
H8 H 0.885079 0.775499 0.491887
N5 N 0.9716(4) 0.50630(19) 0.7632(4)
C11 C 0.8653(5) 0.4921(3) 0.8218(4)
H9 H 0.789819 0.479428 0.778137
C12 C 0.8607(5) 0.4950(3) 0.9418(5)
H10 H 0.783001 0.484856 0.979000
Co6 Co 0.52960(7) 0.91772(3) 0.44370(6)
N3_2 N 0.1076(4) 0.07801(18) 0.4398(4)
C1_2 C 0.0991(6) 0.1684(2) 0.5161(6)
H1_2 H 0.051488 0.195242 0.556034
C2_2 C 0.0443(5) 0.1179(2) 0.4939(6)
C3_2 C 0.2245(5) 0.1797(2) 0.4798(5)
C4_2 C 0.2895(5) 0.1390(2) 0.4233(5)
H3_2 H 0.374988 0.145083 0.396455
C5_2 C 0.2285(5) 0.0888(2) 0.4060(5)
H4_2 H 0.275045 0.060946 0.368275
C6_2 C 0.2854(5) 0.2337(2) 0.5033(5)
C7_2 C 0.4192(6) 0.2417(3) 0.5131(8)
H5_2 H 0.477263 0.211871 0.505986
C8_2 C 0.4684(6) 0.2932(3) 0.5331(8)
H6_2 H 0.561026 0.297738 0.539109
C9_2 C 0.2651(6) 0.3290(3) 0.5373(8)
H7_2 H 0.209386 0.359375 0.547673
C10_2 C 0.2078(6) 0.2788(3) 0.5151(8)
H8_2 H 0.114921 0.275499 0.508113
N5_2 N 0.0284(4) 0.00630(19) 0.2368(4)
N10 N 0.0213(4) 0.0011(2) 0.6169(4)
C14_2 C 0.0299(5) 0.0128(2) 0.9915(5)
C16_2 C 0.0275(5) 0.0111(2) 0.8616(4)
C17_2 C 0.1406(5) 0.0170(3) 0.7993(5)
H13_2 H 0.222343 0.024508 0.839350
C18_2 C 0.1334(5) 0.0118(3) 0.6795(5)
H14_2 H 0.211793 0.015970 0.638693
Co1 Co 0.02611(7) 0.99858(3) 0.42691(6)
C11_2 C 0.1347(5) 0.9921(3) 0.1782(4)
H9_2 H 0.210181 0.979428 0.221863
C12_2 C 0.1393(5) 0.9950(3) 0.0582(5)
H10_2 H 0.216999 0.984856 0.021000
O14 O 0.2140(3) 0.96554(14) 0.4408(3)
C26_2 C 0.5304(5) 0.9091(2) 0.0070(5)
C27_2 C 0.6428(5) 0.9237(3) 0.0752(5)
H21_2 H 0.721522 0.932919 0.038696
C28_2 C 0.6386(5) 0.9246(2) 0.1953(4)
H22_2 H 0.716285 0.934169 0.239582
N8 N 0.5306(4) 0.91259(19) 0.2536(4)
C29_2 C 0.4237(5) 0.8966(3) 0.1886(5)
H23_2 H 0.347812 0.886073 0.227936
C30_2 C 0.4187(6) 0.8949(3) 0.0674(5)
H24_2 H 0.340312 0.884155 0.025482
N7_2 N 0.5278(4) 0.9144(2) 0.6326(4)
C21_2 C 0.6394(5) 0.9052(3) 0.6986(5)
H17_2 H 0.718769 0.900241 0.659634
C22_2 C 0.6442(5) 0.9026(3) 0.8183(5)
H18_2 H 0.725120 0.896088 0.860536
C23_2 C 0.5290(5) 0.9097(3) 0.8778(5)
C24_2 C 0.4153(6) 0.9179(4) 0.8115(5)
H19_2 H 0.334357 0.922351 0.848126
C25_2 C 0.4192(6) 0.9197(4) 0.6903(5)
H20_2 H 0.338973 0.924996 0.646132
O9_2 O 0.7158(3) 0.95212(15) 0.4483(3)
C39_2 C 0.1043(5) 0.8423(2) 0.5295(6)
C40_2 C 0.1540(6) 0.7901(3) 0.5263(7)
H32_2 H 0.189233 0.776668 0.456480
C41_2 C 0.1526(8) 0.7563(3) 0.6277(9)
H33_2 H 0.185643 0.720210 0.625579
C42_2 C 0.1031(9) 0.7765(4) 0.7282(9)
H34_2 H 0.102668 0.754304 0.796154
C43_2 C 0.0539(9) 0.8286(4) 0.7321(8)
H35_2 H 0.020692 0.842537 0.802284
C44_2 C 0.0536(8) 0.8605(3) 0.6313(7)
H36_2 H 0.017265 0.896025 0.633259
C45_2 C 0.1106(5) 0.8785(2) 0.4214(5)
H37_2 H 0.118913 0.854936 0.350936
C46_2 C 0.2309(4) 0.9149(2) 0.4344(4)
O11_2 O 0.3396(3) 0.89111(15) 0.4370(3)
O13 O 0.9948(3) 0.91106(15) 0.4052(3)
H38_2 H 0.964(4) 0.905(2) 0.335(3)
C19 C 0.0891(5) 0.4975(3) 0.3234(5)
H15 H 0.170081 0.491094 0.365727
C20 C 0.0891(5) 0.5026(3) 0.2026(5)
H16 H 0.169298 0.500261 0.163925
H2_2 H 0.957911 0.111115 0.517895
C13_2 C 0.9230(5) 0.0299(3) 0.0522(5)
H11_2 H 0.847443 0.043940 0.010806
C15_2 C 0.9263(5) 0.0265(3) 0.1728(5)
H12_2 H 0.852319 0.039032 0.212415
C31_2 C 0.5893(5) 0.0671(2) 0.3071(5)
C32_2 C 0.6653(6) 0.1129(3) 0.2869(6)
H25_2 H 0.722442 0.126782 0.347778
C33_2 C 0.6578(7) 0.1384(3) 0.1775(7)
H26_2 H 0.711697 0.169052 0.163808
C34_2 C 0.5726(7) 0.1194(3) 0.0894(7)
H27_2 H 0.567797 0.136922 0.015249
C35_2 C 0.4956(6) 0.0755(3) 0.1089(6)
H28_2 H 0.435532 0.062889 0.048780
C36_2 C 0.5045(5) 0.0486(2) 0.2177(5)
H29_2 H 0.451811 0.017416 0.229803
C37_2 C 0.6045(5) 0.0379(2) 0.4228(4)
H30_2 H 0.613319 0.065695 0.486372
O7_2 O 0.4934(3) 0.00464(15) 0.4440(3)
H31_2 H 0.466(5) 0.014(2) 0.509(3)
C38_2 C 0.7280(4) 0.0018(2) 0.4296(4)
O8_2 O 0.8358(3) 0.02580(15) 0.4184(3)
C20_2 C 0.9109(5) 0.0026(3) 0.7974(5)
H16_2 H 0.830702 0.000261 0.836075
C19_2 C 0.9109(5) 0.9975(3) 0.6766(5)
H15_2 H 0.829919 0.991094 0.634273
loop_
_geom_bond_atom_site_label_1
_geom_bond_atom_site_label_2
_geom_bond_site_symmetry_1
_geom_bond_site_symmetry_2
N1 O1 1_555 1_555
O2 N1 1_555 1_555
O3 N1 1_555 1_555
N1_2 O1_2 1_555 1_555
O2_2 N1_2 1_555 1_555
O3_2 N1_2 1_555 1_555
O5 N2 1_555 1_555
O6 N2 1_555 1_555
O5_2 N2_2 1_555 1_555
O6_2 N2_2 1_555 1_555
H38 O10 1_555 1_555
Co2 N7 1_555 1_555
C13 H11 1_555 1_555
H12 C15 1_555 1_555
N7 C21 1_555 1_555
C21 H17 1_555 1_555
C22 C21 1_555 1_555
H18 C22 1_555 1_555
C23 C22 1_555 1_555
C24 C23 1_555 1_555
H19 C24 1_555 1_555
C25 N7 1_555 1_555
H20 C25 1_555 1_555
C31 C32 1_555 1_555
C32 H25 1_555 1_555
C33 C32 1_555 1_555
H26 C33 1_555 1_555
C34 C33 1_555 1_555
H27 C34 1_555 1_555
C35 C34 1_555 1_555
H28 C35 1_555 1_555
C36 C31 1_555 1_555
H29 C36 1_555 1_555
C37 C31 1_555 1_555
H30 C37 1_555 1_555
O7 Co2 1_555 1_555
H31 O7 1_555 1_555
C38 C37 1_555 1_555
O9 Co2 1_555 1_555
C39 C40 1_555 1_555
C40 H32 1_555 1_555
C41 C40 1_555 1_555
H33 C41 1_555 1_555
C42 C41 1_555 1_555
H34 C42 1_555 1_555
C43 C42 1_555 1_555
H35 C43 1_555 1_555
C44 C39 1_555 1_555
H36 C44 1_555 1_555
C45 C39 1_555 1_555
H37 C45 1_555 1_555
C46 C45 1_555 1_555
O11 Co2 1_555 1_555
O12 C46 1_555 1_555
N9 Co2 1_555 1_555
N11 Co2 1_555 1_555
C13 C15 1_555 1_555
C24 C25 1_555 1_555
C35 C36 1_555 1_555
C37 O7 1_555 1_555
C38 O8 1_555 1_555
C38 O9 1_555 1_555
C43 C44 1_555 1_555
C46 O11 1_555 1_555
O12 Co4 1_555 1_555
C27 C26 1_555 1_555
H21 C27 1_555 1_555
C28 C27 1_555 1_555
H22 C28 1_555 1_555
N11 C28 1_555 1_555
C29 N11 1_555 1_555
H23 C29 1_555 1_555
C30 C26 1_555 1_555
H24 C30 1_555 1_555
C29 C30 1_555 1_555
C16 C14 1_555 1_555
C17 C16 1_555 1_555
H13 C17 1_555 1_555
C18 C17 1_555 1_555
H14 C18 1_555 1_555
N6 C18 1_555 1_555
Co4 N6 1_555 1_555
Co4 N3 1_555 1_555
N3 C2 1_555 1_555
C1 H1 1_555 1_555
C2 C1 1_555 1_555
C3 C1 1_555 1_555
C4 C3 1_555 1_555
H3 C4 1_555 1_555
C5 N3 1_555 1_555
H4 C5 1_555 1_555
C6 C3 1_555 1_555
C7 C6 1_555 1_555
H5 C7 1_555 1_555
C8 C7 1_555 1_555
H6 C8 1_555 1_555
N4 C8 1_555 1_555
C9 N4 1_555 1_555
H7 C9 1_555 1_555
C10 C6 1_555 1_555
H8 C10 1_555 1_555
N5 Co4 1_555 1_555
C11 N5 1_555 1_555
H9 C11 1_555 1_555
C12 C11 1_555 1_555
H10 C12 1_555 1_555
Co6 N4 1_555 1_555
C4 C5 1_555 1_555
C9 C10 1_555 1_555
N3_2 C2_2 1_555 1_555
C1_2 H1_2 1_555 1_555
C2_2 C1_2 1_555 1_555
C3_2 C1_2 1_555 1_555
C4_2 C3_2 1_555 1_555
H3_2 C4_2 1_555 1_555
C5_2 N3_2 1_555 1_555
H4_2 C5_2 1_555 1_555
C6_2 C3_2 1_555 1_555
C7_2 C6_2 1_555 1_555
H5_2 C7_2 1_555 1_555
C8_2 C7_2 1_555 1_555
H6_2 C8_2 1_555 1_555
N9 C8_2 1_555 1_555
C9_2 N9 1_555 1_555
H7_2 C9_2 1_555 1_555
C10_2 C6_2 1_555 1_555
H8_2 C10_2 1_555 1_555
C4_2 C5_2 1_555 1_555
C9_2 C10_2 1_555 1_555
C16_2 C14_2 1_555 1_555
C17_2 C16_2 1_555 1_555
H13_2 C17_2 1_555 1_555
C18_2 C17_2 1_555 1_555
H14_2 C18_2 1_555 1_555
N10 C18_2 1_555 1_555
H9_2 C11_2 1_555 1_555
C12_2 C11_2 1_555 1_555
H10_2 C12_2 1_555 1_555
O14 Co1 1_555 1_555
C27_2 C26_2 1_555 1_555
H21_2 C27_2 1_555 1_555
C28_2 C27_2 1_555 1_555
H22_2 C28_2 1_555 1_555
N8 C28_2 1_555 1_555
C29_2 N8 1_555 1_555
H23_2 C29_2 1_555 1_555
C30_2 C26_2 1_555 1_555
H24_2 C30_2 1_555 1_555
Co6 N8 1_555 1_555
C29_2 C30_2 1_555 1_555
Co6 N7_2 1_555 1_555
N7_2 C21_2 1_555 1_555
C21_2 H17_2 1_555 1_555
C22_2 C21_2 1_555 1_555
H18_2 C22_2 1_555 1_555
C23_2 C22_2 1_555 1_555
C24_2 C23_2 1_555 1_555
H19_2 C24_2 1_555 1_555
C25_2 N7_2 1_555 1_555
H20_2 C25_2 1_555 1_555
O9_2 Co6 1_555 1_555
C39_2 C40_2 1_555 1_555
C40_2 H32_2 1_555 1_555
C41_2 C40_2 1_555 1_555
H33_2 C41_2 1_555 1_555
C42_2 C41_2 1_555 1_555
H34_2 C42_2 1_555 1_555
C43_2 C42_2 1_555 1_555
H35_2 C43_2 1_555 1_555
C44_2 C39_2 1_555 1_555
H36_2 C44_2 1_555 1_555
C45_2 C39_2 1_555 1_555
H37_2 C45_2 1_555 1_555
C46_2 C45_2 1_555 1_555
O11_2 Co6 1_555 1_555
O14 C46_2 1_555 1_555
C24_2 C25_2 1_555 1_555
C43_2 C44_2 1_555 1_555
C46_2 O11_2 1_555 1_555
H38_2 O13 1_555 1_555
H15 C19 1_555 1_555
H16 C20 1_555 1_555
C19 C20 1_555 1_555
C13_2 H11_2 1_555 1_555
H12_2 C15_2 1_555 1_555
C31_2 C32_2 1_555 1_555
C32_2 H25_2 1_555 1_555
C33_2 C32_2 1_555 1_555
H26_2 C33_2 1_555 1_555
C34_2 C33_2 1_555 1_555
H27_2 C34_2 1_555 1_555
C35_2 C34_2 1_555 1_555
H28_2 C35_2 1_555 1_555
C36_2 C31_2 1_555 1_555
H29_2 C36_2 1_555 1_555
C37_2 C31_2 1_555 1_555
H30_2 C37_2 1_555 1_555
H31_2 O7_2 1_555 1_555
C38_2 C37_2 1_555 1_555
C13_2 C15_2 1_555 1_555
C35_2 C36_2 1_555 1_555
C37_2 O7_2 1_555 1_555
C38_2 O8_2 1_555 1_555
H16_2 C20_2 1_555 1_555
H15_2 C19_2 1_555 1_555

#END
