
###############################################################################
#
# This file contains modified crystal structure data generated from the
# MOF subset of the Cambridge Structural Database (CSD) v543 
# hosted by the Cambridge Crystallographic Data Centre (CCDC).
#
# This work is licensed under the Creative Commons
# Attribution-NonCommercial-ShareAlike 4.0 International License.
# To view a copy of this license, visit
# http://creativecommons.org/licenses/by-nc-sa/4.0/
# or send a letter to
# Creative Commons, PO Box 1866, Mountain View, CA 94042, USA.
#
# CIF created using the CSD Python API on 29 September 2022
# The structure has been converted into the P1 space group
# The structure has a 3D framework
# The original CSD entry REDGIU is in the monoclinic crystal system
# The original CSD entry REDGIU is in a Sohncke space group
# The framework has been calculated to contain at least 10.0% void space
# The void calculation uses a probe of radius 1.32A, grid spacing 0.4
# The framework is charged, counterions have been retained in the structure
#
###############################################################################

data_REDGIU
_chemical_formula_moiety         '(C92 H76 Co4 N16 O24)n'
_symmetry_cell_setting           triclinic
_symmetry_space_group_name_H-M   'P 1'
_symmetry_Int_Tables_number      1
_space_group_name_Hall           'P 1'
loop_
_symmetry_equiv_pos_site_id
_symmetry_equiv_pos_as_xyz
1 x,y,z
_cell_length_a                   10.19040(10)
_cell_length_b                   24.7362(2)
_cell_length_c                   11.42990(10)
_cell_angle_alpha                90
_cell_angle_beta                 91.7800(10)
_cell_angle_gamma                90
_cell_volume                     2879.76
loop_
_atom_site_label
_atom_site_type_symbol
_atom_site_fract_x
_atom_site_fract_y
_atom_site_fract_z
N1 N 0.5057(5) 0.5117(3) 0.7474(5)
O1 O 0.4715(6) 0.5167(3) 0.8490(5)
O2 O 0.4201(4) 0.5132(2) 0.6627(4)
O3 O 0.6222(4) 0.5032(3) 0.7249(5)
N1_2 N 0.4943(5) 0.0117(3) 0.2526(5)
O1_2 O 0.5285(6) 0.0167(3) 0.1510(5)
O2_2 O 0.5799(4) 0.0132(2) 0.3373(4)
O3_2 O 0.3778(4) 0.0032(3) 0.2751(5)
O4 O 0.1133(7) 0.3335(4) 0.1479(6)
N2 N 0.9975(6) 0.3407(3) 0.1208(5)
O5 O 0.9185(5) 0.3541(3) 0.1991(5)
O6 O 0.9519(8) 0.3334(3) 0.0197(9)
N2_2 N 0.0025(6) 0.8407(3) 0.8792(5)
O5_2 O 0.0815(5) 0.8541(3) 0.8009(5)
O6_2 O 0.0481(8) 0.8334(3) 0.9803(9)
O4_2 O 0.8867(7) 0.8335(4) 0.8521(6)
C6 C 0.0296(5) 0.4788(2) 0.0071(4)
C7 C 0.1384(5) 0.4610(3) 0.0728(4)
H5 H 0.215878 0.450413 0.034742
C8 C 0.1338(5) 0.4589(2) 0.1933(4)
H6 H 0.208513 0.445586 0.235887
N4 N 0.0294(4) 0.47454(18) 0.2535(3)
Co4 Co 0.02671(6) 0.46590(3) 0.44345(6)
N3 N 0.0208(4) 0.46739(19) 0.6328(3)
C3 C 0.0264(5) 0.4768(2) 0.8784(4)
C4 C 0.1393(5) 0.4827(3) 0.8136(5)
H3 H 0.221217 0.490119 0.852224
C5 C 0.1321(5) 0.4777(2) 0.6941(4)
H4 H 0.210678 0.481807 0.652371
N5 N 0.1100(4) 0.54485(17) 0.4558(4)
C11 C 0.0483(6) 0.5846(3) 0.5092(7)
C12 C 0.1018(7) 0.6356(3) 0.5251(8)
H10 H 0.053963 0.662719 0.564300
C13 C 0.2255(5) 0.6471(2) 0.4837(6)
C14 C 0.2893(5) 0.6055(2) 0.4288(5)
H11 H 0.374254 0.611204 0.399010
C15 C 0.2290(5) 0.5553(2) 0.4171(5)
H12 H 0.275140 0.527128 0.379748
C16 C 0.2857(5) 0.7014(2) 0.5000(6)
C17 C 0.2108(6) 0.7453(3) 0.5264(11)
H13 H 0.118765 0.741255 0.534260
C18 C 0.2679(6) 0.7952(3) 0.5415(10)
H14 H 0.212953 0.824675 0.561097
N6 N 0.3938(4) 0.80480(17) 0.5306(4)
C19 C 0.4669(6) 0.7622(3) 0.5046(9)
H15 H 0.558553 0.767300 0.496770
C20 C 0.4160(7) 0.7107(3) 0.4885(10)
H16 H 0.472550 0.681738 0.469225
Co6 Co 0.47014(6) 0.88483(3) 0.54002(6)
O14 O 0.2158(3) 0.43305(14) 0.4556(3)
Co2 Co 0.52986(6) 0.38483(3) 0.45998(6)
C1 C 0.9107(5) 0.4635(3) 0.6943(4)
H1 H 0.829743 0.457532 0.652834
C2 C 0.9097(5) 0.4679(3) 0.8149(5)
H2 H 0.829351 0.464879 0.854325
H9 H 0.963360 0.577771 0.537914
N7 N 0.5305(4) 0.37974(19) 0.2694(3)
C21 C 0.4235(5) 0.3635(3) 0.2054(5)
H17 H 0.347544 0.353020 0.245775
C22 C 0.4191(5) 0.3615(3) 0.0850(5)
H18 H 0.340745 0.350871 0.043972
C23 C 0.5310(5) 0.3751(2) 0.0235(4)
C24 C 0.6423(5) 0.3889(3) 0.0892(4)
H19 H 0.721773 0.396738 0.051280
C25 C 0.6382(5) 0.3913(3) 0.2099(5)
H20 H 0.715476 0.401734 0.252777
C31 C 0.5906(5) 0.5349(2) 0.3294(5)
C32 C 0.5104(6) 0.5158(2) 0.2388(5)
H25 H 0.460196 0.483856 0.249291
C33 C 0.5027(7) 0.5435(3) 0.1306(6)
H26 H 0.448560 0.530131 0.068028
C34 C 0.5739(8) 0.5898(4) 0.1169(8)
H27 H 0.569724 0.608441 0.044259
C35 C 0.6512(8) 0.6094(4) 0.2076(9)
H28 H 0.699063 0.641932 0.197461
C36 C 0.6606(6) 0.5822(3) 0.3145(7)
H29 H 0.714667 0.596149 0.376668
C37 C 0.6049(5) 0.5046(2) 0.4442(5)
H30 H 0.613159 0.531546 0.509221
O7 O 0.4936(3) 0.47128(15) 0.4639(3)
H31 H 0.474(5) 0.478(2) 0.533(3)
C38 C 0.7290(4) 0.4689(2) 0.4469(4)
O8 O 0.8367(3) 0.49302(14) 0.4377(3)
O9 O 0.7162(3) 0.41871(14) 0.4614(3)
C39 C 0.1008(5) 0.3087(2) 0.5378(6)
C40 C 0.1438(8) 0.2561(3) 0.5297(8)
H32 H 0.177029 0.243170 0.458242
C41 C 0.1386(11) 0.2214(4) 0.6277(11)
H33 H 0.168006 0.185078 0.622163
C42 C 0.0908(13) 0.2405(4) 0.7307(10)
H34 H 0.086847 0.216918 0.796157
C43 C 0.0487(11) 0.2929(4) 0.7412(8)
H35 H 0.017020 0.305984 0.813180
C44 C 0.0535(8) 0.3263(3) 0.6438(6)
H36 H 0.023449 0.362551 0.650018
C45 C 0.1111(5) 0.3465(2) 0.4348(5)
H37 H 0.121326 0.324323 0.362487
O11 O 0.3398(3) 0.35875(14) 0.4560(3)
C46 C 0.2319(4) 0.3830(2) 0.4504(3)
N10 N 0.6062(4) 0.30480(17) 0.4694(4)
N11 N 0.5276(4) 0.3809(2) 0.6483(3)
O13 O 0.9963(3) 0.37948(15) 0.4193(3)
C26 C 0.5298(5) 0.3752(3) 0.8942(5)
C27 C 0.4155(6) 0.3826(3) 0.8286(5)
H21 H 0.334046 0.385633 0.866324
C28 C 0.4193(5) 0.3857(3) 0.7081(5)
H22 H 0.339096 0.391715 0.665567
C29 C 0.6400(5) 0.3713(3) 0.7116(5)
H23 H 0.718936 0.366362 0.670777
C30 C 0.6455(5) 0.3683(3) 0.8322(5)
H24 H 0.726572 0.361685 0.872838
H38 H 0.941(4) 0.365(2) 0.374(4)
O10 O 0.0037(3) 0.87948(15) 0.5807(3)
H38_2 H 0.059(4) 0.865(2) 0.626(4)
C26_2 C 0.4702(5) 0.8752(3) 0.1058(5)
C27_2 C 0.5845(6) 0.8826(3) 0.1714(5)
H21_2 H 0.665954 0.885633 0.133676
C28_2 C 0.5807(5) 0.8857(3) 0.2919(5)
H22_2 H 0.660904 0.891715 0.334433
N8 N 0.4724(4) 0.8809(2) 0.3517(3)
C29_2 C 0.3600(5) 0.8713(3) 0.2884(5)
H23_2 H 0.281064 0.866362 0.329223
C30_2 C 0.3545(5) 0.8683(3) 0.1678(5)
H24_2 H 0.273428 0.861685 0.127162
C1_2 C 0.0893(5) 0.9635(3) 0.3057(4)
H1_2 H 0.170257 0.957532 0.347166
C2_2 C 0.0903(5) 0.9679(3) 0.1851(5)
H2_2 H 0.170649 0.964879 0.145675
N7_2 N 0.4695(4) 0.87974(19) 0.7306(3)
C21_2 C 0.5765(5) 0.8635(3) 0.7946(5)
H17_2 H 0.652456 0.853020 0.754225
C22_2 C 0.5809(5) 0.8615(3) 0.9150(5)
H18_2 H 0.659255 0.850871 0.956028
C23_2 C 0.4690(5) 0.8751(2) 0.9765(4)
C24_2 C 0.3577(5) 0.8889(3) 0.9108(4)
H19_2 H 0.278227 0.896738 0.948720
C25_2 C 0.3618(5) 0.8913(3) 0.7901(5)
H20_2 H 0.284524 0.901734 0.747223
H25_2 H 0.539804 0.983856 0.750709
O7_2 O 0.5064(3) 0.97128(15) 0.5361(3)
H31_2 H 0.526(5) 0.978(2) 0.467(3)
C38_2 C 0.2710(4) 0.9689(2) 0.5531(4)
O8_2 O 0.1633(3) 0.99302(14) 0.5623(3)
O9_2 O 0.2838(3) 0.91871(14) 0.5386(3)
C39_2 C 0.8992(5) 0.8087(2) 0.4622(6)
C40_2 C 0.8562(8) 0.7561(3) 0.4703(8)
H32_2 H 0.822971 0.743170 0.541758
C41_2 C 0.8614(11) 0.7214(4) 0.3723(11)
H33_2 H 0.831994 0.685078 0.377837
C42_2 C 0.9092(13) 0.7405(4) 0.2693(10)
H34_2 H 0.913153 0.716918 0.203843
C43_2 C 0.9513(11) 0.7929(4) 0.2588(8)
H35_2 H 0.982980 0.805984 0.186820
C44_2 C 0.9465(8) 0.8263(3) 0.3562(6)
H36_2 H 0.976551 0.862551 0.349982
C45_2 C 0.8889(5) 0.8465(2) 0.5652(5)
H37_2 H 0.878674 0.824323 0.637513
O11_2 O 0.6602(3) 0.85875(14) 0.5440(3)
C46_2 C 0.7681(4) 0.8830(2) 0.5496(3)
O12 O 0.7842(3) 0.93305(14) 0.5444(3)
Co3 Co 0.97329(6) 0.96590(3) 0.55655(6)
N5_2 N 0.8900(4) 0.04485(17) 0.5442(4)
C11_2 C 0.9517(6) 0.0846(3) 0.4908(7)
C12_2 C 0.8982(7) 0.1356(3) 0.4749(8)
H10_2 H 0.946037 0.162719 0.435700
C13_2 C 0.7745(5) 0.1471(2) 0.5163(6)
C14_2 C 0.7107(5) 0.1055(2) 0.5712(5)
H11_2 H 0.625746 0.111204 0.600990
C15_2 C 0.7710(5) 0.0553(2) 0.5829(5)
H12_2 H 0.724860 0.027128 0.620252
C16_2 C 0.7143(5) 0.2014(2) 0.5000(6)
C17_2 C 0.7892(6) 0.2453(3) 0.4736(11)
H13_2 H 0.881235 0.241255 0.465740
C18_2 C 0.7321(6) 0.2952(3) 0.4585(10)
H14_2 H 0.787047 0.324675 0.438903
C19_2 C 0.5331(6) 0.2622(3) 0.4954(9)
H15_2 H 0.441447 0.267300 0.503230
C20_2 C 0.5840(7) 0.2107(3) 0.5115(10)
H16_2 H 0.527450 0.181738 0.530775
N3_2 N 0.9792(4) 0.96739(19) 0.3672(3)
C3_2 C 0.9736(5) 0.9768(2) 0.1216(4)
C4_2 C 0.8607(5) 0.9827(3) 0.1864(5)
H3_2 H 0.778783 0.990119 0.147776
C5_2 C 0.8679(5) 0.9777(2) 0.3059(4)
H4_2 H 0.789322 0.981807 0.347629
N9 N 0.9706(4) 0.97454(18) 0.7465(3)
C6_2 C 0.9704(5) 0.9788(2) 0.9929(4)
C7_2 C 0.8616(5) 0.9610(3) 0.9272(4)
H5_2 H 0.784122 0.950413 0.965258
C8_2 C 0.8662(5) 0.9589(2) 0.8067(4)
H6_2 H 0.791487 0.945586 0.764113
C9 C 0.9275(5) 0.4946(2) 0.1906(5)
H7 H 0.853955 0.507545 0.231328
C10 C 0.9235(5) 0.4974(2) 0.0696(5)
H8 H 0.848711 0.512050 0.029263
H9_2 H 0.036640 0.077771 0.462086
C31_2 C 0.4094(5) 0.0349(2) 0.6706(5)
C32_2 C 0.4896(6) 0.0158(2) 0.7612(5)
C33_2 C 0.4973(7) 0.0435(3) 0.8694(6)
H26_2 H 0.551440 0.030131 0.931972
C34_2 C 0.4261(8) 0.0898(4) 0.8831(8)
H27_2 H 0.430276 0.108441 0.955741
C35_2 C 0.3488(8) 0.1094(4) 0.7924(9)
H28_2 H 0.300937 0.141932 0.802539
C36_2 C 0.3394(6) 0.0822(3) 0.6855(7)
H29_2 H 0.285333 0.096149 0.623332
C37_2 C 0.3951(5) 0.0046(2) 0.5558(5)
H30_2 H 0.386841 0.031546 0.490779
H7_2 H 0.146045 0.007545 0.768672
H8_2 H 0.151289 0.012050 0.970737
C9_2 C 0.0725(5) 0.9946(2) 0.8094(5)
C10_2 C 0.0765(5) 0.9974(2) 0.9304(5)
loop_
_geom_bond_atom_site_label_1
_geom_bond_atom_site_label_2
_geom_bond_site_symmetry_1
_geom_bond_site_symmetry_2
N1 O1 1_555 1_555
O2 N1 1_555 1_555
O3 N1 1_555 1_555
N1_2 O1_2 1_555 1_555
O2_2 N1_2 1_555 1_555
O3_2 N1_2 1_555 1_555
O5 N2 1_555 1_555
O6 N2 1_555 1_555
O5_2 N2_2 1_555 1_555
O6_2 N2_2 1_555 1_555
C7 C6 1_555 1_555
H5 C7 1_555 1_555
C8 C7 1_555 1_555
H6 C8 1_555 1_555
N4 C8 1_555 1_555
Co4 N4 1_555 1_555
Co4 N3 1_555 1_555
C4 C3 1_555 1_555
H3 C4 1_555 1_555
C5 N3 1_555 1_555
H4 C5 1_555 1_555
N5 Co4 1_555 1_555
C11 N5 1_555 1_555
C12 C11 1_555 1_555
H10 C12 1_555 1_555
C13 C12 1_555 1_555
C14 C13 1_555 1_555
H11 C14 1_555 1_555
C15 N5 1_555 1_555
H12 C15 1_555 1_555
C16 C13 1_555 1_555
C17 C16 1_555 1_555
H13 C17 1_555 1_555
C18 C17 1_555 1_555
H14 C18 1_555 1_555
N6 C18 1_555 1_555
C19 N6 1_555 1_555
H15 C19 1_555 1_555
C20 C16 1_555 1_555
H16 C20 1_555 1_555
Co6 N6 1_555 1_555
O14 Co4 1_555 1_555
C4 C5 1_555 1_555
C14 C15 1_555 1_555
C19 C20 1_555 1_555
Co2 N7 1_555 1_555
C1 H1 1_555 1_555
C2 C1 1_555 1_555
H2 C2 1_555 1_555
N7 C21 1_555 1_555
C21 H17 1_555 1_555
C22 C21 1_555 1_555
H18 C22 1_555 1_555
C23 C22 1_555 1_555
C24 C23 1_555 1_555
H19 C24 1_555 1_555
C25 N7 1_555 1_555
H20 C25 1_555 1_555
C31 C32 1_555 1_555
C32 H25 1_555 1_555
C33 C32 1_555 1_555
H26 C33 1_555 1_555
C34 C33 1_555 1_555
H27 C34 1_555 1_555
C35 C34 1_555 1_555
H28 C35 1_555 1_555
C36 C31 1_555 1_555
H29 C36 1_555 1_555
C37 C31 1_555 1_555
H30 C37 1_555 1_555
O7 Co2 1_555 1_555
H31 O7 1_555 1_555
C38 C37 1_555 1_555
O9 Co2 1_555 1_555
C39 C40 1_555 1_555
C40 H32 1_555 1_555
C41 C40 1_555 1_555
H33 C41 1_555 1_555
C42 C41 1_555 1_555
H34 C42 1_555 1_555
C43 C42 1_555 1_555
H35 C43 1_555 1_555
C44 C39 1_555 1_555
H36 C44 1_555 1_555
C45 C39 1_555 1_555
H37 C45 1_555 1_555
O11 Co2 1_555 1_555
C46 C45 1_555 1_555
O14 C46 1_555 1_555
N10 Co2 1_555 1_555
N11 Co2 1_555 1_555
C24 C25 1_555 1_555
C35 C36 1_555 1_555
C37 O7 1_555 1_555
C38 O8 1_555 1_555
C38 O9 1_555 1_555
C43 C44 1_555 1_555
O11 C46 1_555 1_555
C27 C26 1_555 1_555
H21 C27 1_555 1_555
C28 C27 1_555 1_555
H22 C28 1_555 1_555
N11 C28 1_555 1_555
C29 N11 1_555 1_555
H23 C29 1_555 1_555
C30 C26 1_555 1_555
H24 C30 1_555 1_555
C29 C30 1_555 1_555
H38 O13 1_555 1_555
H38_2 O10 1_555 1_555
C27_2 C26_2 1_555 1_555
H21_2 C27_2 1_555 1_555
C28_2 C27_2 1_555 1_555
H22_2 C28_2 1_555 1_555
N8 C28_2 1_555 1_555
C29_2 N8 1_555 1_555
H23_2 C29_2 1_555 1_555
C30_2 C26_2 1_555 1_555
H24_2 C30_2 1_555 1_555
Co6 N8 1_555 1_555
C29_2 C30_2 1_555 1_555
Co6 N7_2 1_555 1_555
C1_2 H1_2 1_555 1_555
C2_2 C1_2 1_555 1_555
H2_2 C2_2 1_555 1_555
N7_2 C21_2 1_555 1_555
C21_2 H17_2 1_555 1_555
C22_2 C21_2 1_555 1_555
H18_2 C22_2 1_555 1_555
C23_2 C22_2 1_555 1_555
C24_2 C23_2 1_555 1_555
H19_2 C24_2 1_555 1_555
C25_2 N7_2 1_555 1_555
H20_2 C25_2 1_555 1_555
O7_2 Co6 1_555 1_555
H31_2 O7_2 1_555 1_555
O9_2 Co6 1_555 1_555
C39_2 C40_2 1_555 1_555
C40_2 H32_2 1_555 1_555
C41_2 C40_2 1_555 1_555
H33_2 C41_2 1_555 1_555
C42_2 C41_2 1_555 1_555
H34_2 C42_2 1_555 1_555
C43_2 C42_2 1_555 1_555
H35_2 C43_2 1_555 1_555
C44_2 C39_2 1_555 1_555
H36_2 C44_2 1_555 1_555
C45_2 C39_2 1_555 1_555
H37_2 C45_2 1_555 1_555
O11_2 Co6 1_555 1_555
C46_2 C45_2 1_555 1_555
O12 C46_2 1_555 1_555
C24_2 C25_2 1_555 1_555
C38_2 O8_2 1_555 1_555
C38_2 O9_2 1_555 1_555
C43_2 C44_2 1_555 1_555
O11_2 C46_2 1_555 1_555
O12 Co3 1_555 1_555
C11_2 N5_2 1_555 1_555
C12_2 C11_2 1_555 1_555
H10_2 C12_2 1_555 1_555
C13_2 C12_2 1_555 1_555
C14_2 C13_2 1_555 1_555
H11_2 C14_2 1_555 1_555
C15_2 N5_2 1_555 1_555
H12_2 C15_2 1_555 1_555
C16_2 C13_2 1_555 1_555
C17_2 C16_2 1_555 1_555
H13_2 C17_2 1_555 1_555
C18_2 C17_2 1_555 1_555
H14_2 C18_2 1_555 1_555
N10 C18_2 1_555 1_555
C19_2 N10 1_555 1_555
H15_2 C19_2 1_555 1_555
C20_2 C16_2 1_555 1_555
H16_2 C20_2 1_555 1_555
C14_2 C15_2 1_555 1_555
C19_2 C20_2 1_555 1_555
Co3 N3_2 1_555 1_555
C4_2 C3_2 1_555 1_555
H3_2 C4_2 1_555 1_555
C5_2 N3_2 1_555 1_555
H4_2 C5_2 1_555 1_555
N9 Co3 1_555 1_555
C4_2 C5_2 1_555 1_555
C7_2 C6_2 1_555 1_555
H5_2 C7_2 1_555 1_555
C8_2 C7_2 1_555 1_555
H6_2 C8_2 1_555 1_555
N9 C8_2 1_555 1_555
H7 C9 1_555 1_555
H8 C10 1_555 1_555
C9 C10 1_555 1_555
C31_2 C32_2 1_555 1_555
C33_2 C32_2 1_555 1_555
H26_2 C33_2 1_555 1_555
C34_2 C33_2 1_555 1_555
H27_2 C34_2 1_555 1_555
C35_2 C34_2 1_555 1_555
H28_2 C35_2 1_555 1_555
C36_2 C31_2 1_555 1_555
H29_2 C36_2 1_555 1_555
C37_2 C31_2 1_555 1_555
H30_2 C37_2 1_555 1_555
C35_2 C36_2 1_555 1_555
C9_2 C10_2 1_555 1_555

#END
