
###############################################################################
#
# This file contains modified crystal structure data generated from the
# MOF subset of the Cambridge Structural Database (CSD) v543 
# hosted by the Cambridge Crystallographic Data Centre (CCDC).
#
# This work is licensed under the Creative Commons
# Attribution-NonCommercial-ShareAlike 4.0 International License.
# To view a copy of this license, visit
# http://creativecommons.org/licenses/by-nc-sa/4.0/
# or send a letter to
# Creative Commons, PO Box 1866, Mountain View, CA 94042, USA.
#
# CIF created using the CSD Python API on 29 September 2022
# The structure has been converted into the P1 space group
# The structure has a 3D framework
# The original CSD entry REDGOA is in the monoclinic crystal system
# The original CSD entry REDGOA is in a Sohncke space group
# The framework has been calculated to contain at least 10.0% void space
# The void calculation uses a probe of radius 1.32A, grid spacing 0.4
# The framework is charged, counterions have been retained in the structure
#
###############################################################################

data_REDGOA
_chemical_formula_moiety         '(C92 H77 Co4 N16 O23)n'
_symmetry_cell_setting           triclinic
_symmetry_space_group_name_H-M   'P 1'
_symmetry_Int_Tables_number      1
_space_group_name_Hall           'P 1'
loop_
_symmetry_equiv_pos_site_id
_symmetry_equiv_pos_as_xyz
1 x,y,z
_cell_length_a                   10.20960(10)
_cell_length_b                   25.0473(2)
_cell_length_c                   11.43730(10)
_cell_angle_alpha                90
_cell_angle_beta                 91.8980(10)
_cell_angle_gamma                90
_cell_volume                     2923.18
loop_
_atom_site_label
_atom_site_type_symbol
_atom_site_fract_x
_atom_site_fract_y
_atom_site_fract_z
N1 N 0.0122(5) 0.4404(2) 0.7460(5)
O1 O 0.1249(4) 0.4567(2) 0.7297(4)
O2 O 0.9302(4) 0.4379(2) 0.6595(4)
O3 O 0.9759(6) 0.4260(3) 0.8438(5)
O2_2 O 0.0698(4) 0.9379(2) 0.3405(4)
O3_2 O 0.0241(6) 0.9260(3) 0.1562(5)
N1_2 N 0.9878(5) 0.9404(2) 0.2540(5)
O1_2 O 0.8751(4) 0.9567(2) 0.2703(4)
N2 N 0.5102(8) 0.6062(4) 0.1200(8)
O4 O 0.4670(9) 0.6029(5) 0.0156(8)
O5 O 0.6300(11) 0.6161(6) 0.1408(12)
O6 O 0.4314(8) 0.6013(4) 0.2034(8)
N2_2 N 0.4898(8) 0.1062(4) 0.8800(8)
O4_2 O 0.5330(9) 0.1029(5) 0.9844(8)
O5_2 O 0.3700(11) 0.1161(6) 0.8592(12)
O6_2 O 0.5686(8) 0.1013(4) 0.7966(8)
C6 C 0.0409(6) 0.5789(2) 0.0300(5)
C7 C 0.1531(6) 0.5694(3) 0.0975(5)
H5 H 0.234231 0.563867 0.061082
C8 C 0.1473(6) 0.5680(3) 0.2177(5)
H6 H 0.225686 0.560307 0.261616
N4 N 0.0375(5) 0.5768(2) 0.2766(4)
Co4 Co 0.04011(8) 0.57124(3) 0.46617(7)
N3 N 0.0398(5) 0.5738(2) 0.6553(4)
C1 C 0.1484(6) 0.5850(3) 0.7192(5)
H1 H 0.226610 0.591772 0.678982
C2 C 0.1541(6) 0.5875(3) 0.8396(5)
H2 H 0.234089 0.595661 0.880490
C3 C 0.0401(6) 0.5776(2) 0.9007(5)
H31 H 0.056145 0.188539 0.536161
O13 O 0.2261(4) 0.53750(16) 0.4689(3)
O14 O 0.0030(4) 0.48538(17) 0.4652(3)
N10 N 0.1147(5) 0.65120(19) 0.4722(4)
C9 C 0.9285(6) 0.5877(2) 0.2108(5)
H7 H 0.849667 0.594732 0.249842
C10 C 0.9251(6) 0.5892(3) 0.0905(5)
H8 H 0.845616 0.597094 0.048467
C15 C 0.5365(6) 0.4774(2) 0.0166(5)
C17 C 0.6447(6) 0.4931(3) 0.2023(5)
H13 H 0.722700 0.502335 0.245182
C18 C 0.6496(6) 0.4916(3) 0.0827(5)
H14 H 0.728532 0.499993 0.045009
C45 C 0.4270(6) 0.4639(3) 0.0783(5)
H37 H 0.348629 0.453001 0.038061
C46 C 0.4327(7) 0.4665(3) 0.1996(5)
H38 H 0.356864 0.456298 0.240131
N8 N 0.5378(5) 0.4824(2) 0.2632(4)
Co6 Co 0.53739(8) 0.48992(3) 0.45287(7)
C4 C 0.9266(6) 0.5661(3) 0.8348(5)
H3 H 0.846967 0.559344 0.872868
C5 C 0.9296(6) 0.5644(3) 0.7138(5)
H4 H 0.851062 0.556391 0.670423
N5 N 0.5316(4) 0.4874(2) 0.6423(4)
C11 C 0.6467(6) 0.4688(3) 0.8243(5)
H9 H 0.726362 0.458809 0.863715
C12 C 0.6412(6) 0.4737(3) 0.7042(5)
H10 H 0.718676 0.467023 0.662802
C13 C 0.5349(5) 0.4785(2) 0.8877(5)
C14 C 0.4207(6) 0.4908(3) 0.8234(5)
H11 H 0.341191 0.496666 0.862286
C16 C 0.4230(6) 0.4945(3) 0.7029(5)
H12 H 0.343488 0.502379 0.660928
O7 O 0.3470(4) 0.46427(16) 0.4479(3)
C19 C 0.2389(5) 0.4882(2) 0.4540(4)
C20 C 0.1154(5) 0.4528(2) 0.4464(5)
H16 H 0.122094 0.425547 0.510200
C21 C 0.0296(7) 0.4433(3) 0.2367(6)
C22 C 0.0262(9) 0.4188(3) 0.1293(7)
C23 C 0.1011(9) 0.3726(3) 0.1131(6)
H19 H 0.101590 0.355691 0.038784
C24 C 0.1736(7) 0.3523(3) 0.2058(7)
H20 H 0.222691 0.320486 0.195672
C25 C 0.1765(6) 0.3773(3) 0.3143(6)
H21 H 0.227020 0.362439 0.377501
C26 C 0.1054(5) 0.4241(2) 0.3306(5)
O10 O 0.7257(4) 0.52236(16) 0.4672(3)
O11 O 0.8500(4) 0.59579(16) 0.4640(3)
C27 C 0.7420(5) 0.5720(2) 0.4594(4)
O12 O 0.5062(4) 0.57546(18) 0.4303(4)
H22 H 0.470(5) 0.584(3) 0.366(4)
C28 C 0.6217(5) 0.6078(2) 0.4428(6)
H23 H 0.631035 0.628924 0.369312
C29 C 0.5599(8) 0.6311(3) 0.6498(8)
H24 H 0.529721 0.595492 0.658016
C30 C 0.5516(12) 0.6657(5) 0.7421(10)
H25 H 0.515363 0.654115 0.813150
C31 C 0.5952(12) 0.7167(5) 0.7317(12)
H26 H 0.589559 0.740528 0.795949
C32 C 0.6484(9) 0.7344(4) 0.6276(11)
H27 H 0.679253 0.770019 0.621210
C33 C 0.6561(7) 0.6991(3) 0.5324(8)
H28 H 0.691167 0.710589 0.460762
C34 C 0.6111(6) 0.6469(2) 0.5453(7)
C35 C 0.7027(6) 0.2105(3) 0.5062(6)
H29 H 0.610415 0.214856 0.498180
C36 C 0.7564(6) 0.1596(2) 0.5180(6)
H30 H 0.699042 0.129773 0.519037
N6 N 0.8853(5) 0.15120(19) 0.5278(4)
C37 C 0.9642(6) 0.1941(3) 0.5285(6)
C38 C 0.9182(6) 0.2464(3) 0.5187(7)
H32 H 0.977208 0.275739 0.520450
C39 C 0.7836(6) 0.2545(2) 0.5062(5)
C40 C 0.5487(6) 0.3710(2) 0.5073(6)
H33 H 0.461141 0.377757 0.528789
C41 C 0.5987(6) 0.3202(2) 0.5222(6)
H34 H 0.545669 0.292670 0.552652
C42 C 0.7281(6) 0.3094(2) 0.4920(5)
C43 C 0.8003(6) 0.3512(2) 0.4464(5)
H35 H 0.888184 0.345727 0.424254
C44 C 0.7421(5) 0.4010(2) 0.4339(5)
H36 H 0.792485 0.429164 0.402559
N7 N 0.6191(4) 0.4117(2) 0.4635(4)
Co5 Co 0.95989(8) 0.07124(3) 0.53383(7)
C4_2 C 0.0734(6) 0.0661(3) 0.1652(5)
H3_2 H 0.153033 0.059344 0.127132
C5_2 C 0.0704(6) 0.0644(3) 0.2862(5)
H4_2 H 0.148938 0.056391 0.329577
H12_2 H 0.656512 0.002379 0.339072
O8 O 0.7739(4) 0.03750(16) 0.5311(3)
O10_2 O 0.2743(4) 0.02236(16) 0.5328(3)
O11_2 O 0.1500(4) 0.09579(16) 0.5360(3)
C27_2 C 0.2580(5) 0.0720(2) 0.5406(4)
O12_2 O 0.4938(4) 0.07546(18) 0.5697(4)
H22_2 H 0.530(5) 0.084(3) 0.634(4)
C28_2 C 0.3783(5) 0.1078(2) 0.5572(6)
H23_2 H 0.368965 0.128924 0.630688
C29_2 C 0.4401(8) 0.1311(3) 0.3502(8)
H24_2 H 0.470279 0.095492 0.341984
C30_2 C 0.4484(12) 0.1657(5) 0.2579(10)
H25_2 H 0.484637 0.154115 0.186850
C31_2 C 0.4048(12) 0.2167(5) 0.2683(12)
H26_2 H 0.410441 0.240528 0.204051
C32_2 C 0.3516(9) 0.2344(4) 0.3724(11)
H27_2 H 0.320747 0.270019 0.378790
C33_2 C 0.3439(7) 0.1991(3) 0.4676(8)
H28_2 H 0.308833 0.210589 0.539238
C34_2 C 0.3889(6) 0.1469(2) 0.4547(7)
Co2 Co 0.46261(8) 0.98992(3) 0.54713(7)
N5_2 N 0.4684(4) 0.9874(2) 0.3577(4)
C11_2 C 0.3533(6) 0.9688(3) 0.1757(5)
H9_2 H 0.273638 0.958809 0.136285
C12_2 C 0.3588(6) 0.9737(3) 0.2958(5)
H10_2 H 0.281324 0.967023 0.337198
C13_2 C 0.4651(5) 0.9785(2) 0.1123(5)
C14_2 C 0.5793(6) 0.9908(3) 0.1766(5)
H11_2 H 0.658809 0.996666 0.137714
C16_2 C 0.5770(6) 0.9945(3) 0.2971(5)
O7_2 O 0.6530(4) 0.96427(16) 0.5521(3)
C19_2 C 0.7611(5) 0.9882(2) 0.5460(4)
O9 O 0.9970(4) 0.98538(17) 0.5348(3)
C20_2 C 0.8846(5) 0.9528(2) 0.5536(5)
H16_2 H 0.877906 0.925547 0.489800
C21_2 C 0.9704(7) 0.9433(3) 0.7633(6)
C22_2 C 0.9738(9) 0.9188(3) 0.8707(7)
C23_2 C 0.8989(9) 0.8726(3) 0.8869(6)
H19_2 H 0.898410 0.855691 0.961216
C24_2 C 0.8264(7) 0.8523(3) 0.7942(7)
H20_2 H 0.777309 0.820486 0.804328
C25_2 C 0.8235(6) 0.8773(3) 0.6857(6)
H21_2 H 0.772980 0.862439 0.622499
C26_2 C 0.8946(5) 0.9241(2) 0.6694(5)
C35_2 C 0.2973(6) 0.7105(3) 0.4938(6)
H29_2 H 0.389585 0.714856 0.501820
C36_2 C 0.2436(6) 0.6596(2) 0.4820(6)
H30_2 H 0.300958 0.629773 0.480963
C37_2 C 0.0358(6) 0.6941(3) 0.4715(6)
C38_2 C 0.0818(6) 0.7464(3) 0.4813(7)
H32_2 H 0.022792 0.775739 0.479550
C39_2 C 0.2164(6) 0.7545(2) 0.4938(5)
C40_2 C 0.4513(6) 0.8710(2) 0.4927(6)
H33_2 H 0.538859 0.877757 0.471211
C41_2 C 0.4013(6) 0.8202(2) 0.4778(6)
H34_2 H 0.454331 0.792670 0.447348
C42_2 C 0.2719(6) 0.8094(2) 0.5080(5)
C43_2 C 0.1997(6) 0.8512(2) 0.5536(5)
H35_2 H 0.111816 0.845727 0.575746
C44_2 C 0.2579(5) 0.9010(2) 0.5661(5)
H36_2 H 0.207515 0.929164 0.597441
N7_2 N 0.3809(4) 0.9117(2) 0.5365(4)
N11 N 0.4622(5) 0.9824(2) 0.7368(4)
C15_2 C 0.4635(6) 0.9774(2) 0.9834(5)
C17_2 C 0.3553(6) 0.9931(3) 0.7977(5)
C18_2 C 0.3504(6) 0.9916(3) 0.9173(5)
H14_2 H 0.271468 0.999993 0.954991
C45_2 C 0.5730(6) 0.9639(3) 0.9217(5)
H37_2 H 0.651371 0.953001 0.961939
C46_2 C 0.5673(7) 0.9665(3) 0.8004(5)
H38_2 H 0.643136 0.956298 0.759869
N3_2 N 0.9602(5) 0.0738(2) 0.3447(4)
C1_2 C 0.8516(6) 0.0850(3) 0.2808(5)
H1_2 H 0.773390 0.091772 0.321018
C2_2 C 0.8459(6) 0.0875(3) 0.1604(5)
H2_2 H 0.765911 0.095661 0.119510
C3_2 C 0.9599(6) 0.0776(2) 0.0993(5)
N9 N 0.9625(5) 0.0768(2) 0.7234(4)
C6_2 C 0.9591(6) 0.0789(2) 0.9700(5)
C7_2 C 0.8469(6) 0.0694(3) 0.9025(5)
H5_2 H 0.765769 0.063867 0.938918
C8_2 C 0.8527(6) 0.0680(3) 0.7823(5)
H6_2 H 0.774314 0.060307 0.738384
H31_2 H 0.943855 0.688539 0.463839
H15 H 0.978(5) 0.477(3) 0.532(3)
H17 H 0.978294 0.474461 0.247207
H18 H 0.973605 0.433012 0.066677
H15_2 H 0.022(5) 0.977(3) 0.468(3)
H17_2 H 0.021706 0.974461 0.752793
H18_2 H 0.026395 0.933012 0.933323
C9_2 C 0.0715(6) 0.0877(2) 0.7892(5)
H7_2 H 0.150333 0.094732 0.750158
C10_2 C 0.0749(6) 0.0892(3) 0.9095(5)
H8_2 H 0.154384 0.097094 0.951533
H13_2 H 0.277300 0.002335 0.754818
H14_3 H 0.271468 -0.000007 0.954991
loop_
_geom_bond_atom_site_label_1
_geom_bond_atom_site_label_2
_geom_bond_site_symmetry_1
_geom_bond_site_symmetry_2
N1 O1 1_555 1_555
N1_2 O1_2 1_555 1_555
N2 O4 1_555 1_555
O5 N2 1_555 1_555
O6 N2 1_555 1_555
N2_2 O4_2 1_555 1_555
O5_2 N2_2 1_555 1_555
O6_2 N2_2 1_555 1_555
C7 C6 1_555 1_555
H5 C7 1_555 1_555
C8 C7 1_555 1_555
H6 C8 1_555 1_555
N4 C8 1_555 1_555
Co4 N4 1_555 1_555
Co4 N3 1_555 1_555
N3 C1 1_555 1_555
C1 H1 1_555 1_555
C2 C1 1_555 1_555
H2 C2 1_555 1_555
C3 C2 1_555 1_555
O13 Co4 1_555 1_555
O14 Co4 1_555 1_555
N10 Co4 1_555 1_555
H7 C9 1_555 1_555
H8 C10 1_555 1_555
C17 H13 1_555 1_555
C18 C15 1_555 1_555
H14 C18 1_555 1_555
C45 C15 1_555 1_555
H37 C45 1_555 1_555
C46 C45 1_555 1_555
H38 C46 1_555 1_555
N8 C17 1_555 1_555
Co6 N8 1_555 1_555
C9 C10 1_555 1_555
C17 C18 1_555 1_555
C46 N8 1_555 1_555
Co6 N5 1_555 1_555
H3 C4 1_555 1_555
H4 C5 1_555 1_555
N5 C12 1_555 1_555
C11 H9 1_555 1_555
C12 C11 1_555 1_555
H10 C12 1_555 1_555
C13 C11 1_555 1_555
C14 C13 1_555 1_555
H11 C14 1_555 1_555
C16 N5 1_555 1_555
H12 C16 1_555 1_555
O7 Co6 1_555 1_555
O13 C19 1_555 1_555
C19 O7 1_555 1_555
C20 C19 1_555 1_555
H16 C20 1_555 1_555
C22 C21 1_555 1_555
C23 C22 1_555 1_555
H19 C23 1_555 1_555
C24 C23 1_555 1_555
H20 C24 1_555 1_555
C25 C24 1_555 1_555
H21 C25 1_555 1_555
C26 C20 1_555 1_555
O10 Co6 1_555 1_555
C27 O10 1_555 1_555
O12 Co6 1_555 1_555
H22 O12 1_555 1_555
C28 C27 1_555 1_555
H23 C28 1_555 1_555
C29 H24 1_555 1_555
C30 C29 1_555 1_555
H25 C30 1_555 1_555
C31 C30 1_555 1_555
H26 C31 1_555 1_555
C32 C31 1_555 1_555
H27 C32 1_555 1_555
C33 C32 1_555 1_555
H28 C33 1_555 1_555
C34 C28 1_555 1_555
C35 H29 1_555 1_555
C36 C35 1_555 1_555
H30 C36 1_555 1_555
N6 C36 1_555 1_555
C37 N6 1_555 1_555
C38 C37 1_555 1_555
H32 C38 1_555 1_555
C39 C35 1_555 1_555
C40 H33 1_555 1_555
C41 C40 1_555 1_555
H34 C41 1_555 1_555
C42 C39 1_555 1_555
C43 C42 1_555 1_555
H35 C43 1_555 1_555
C44 C43 1_555 1_555
H36 C44 1_555 1_555
N7 Co6 1_555 1_555
Co5 N6 1_555 1_555
C4 C5 1_555 1_555
C14 C16 1_555 1_555
O14 C20 1_555 1_555
C21 C26 1_555 1_555
C25 C26 1_555 1_555
O11 C27 1_555 1_555
O12 C28 1_555 1_555
C29 C34 1_555 1_555
C33 C34 1_555 1_555
C38 C39 1_555 1_555
C40 N7 1_555 1_555
C41 C42 1_555 1_555
C44 N7 1_555 1_555
H3_2 C4_2 1_555 1_555
H4_2 C5_2 1_555 1_555
C27_2 O10_2 1_555 1_555
H22_2 O12_2 1_555 1_555
C28_2 C27_2 1_555 1_555
H23_2 C28_2 1_555 1_555
C29_2 H24_2 1_555 1_555
C30_2 C29_2 1_555 1_555
H25_2 C30_2 1_555 1_555
C31_2 C30_2 1_555 1_555
H26_2 C31_2 1_555 1_555
C32_2 C31_2 1_555 1_555
H27_2 C32_2 1_555 1_555
C33_2 C32_2 1_555 1_555
H28_2 C33_2 1_555 1_555
C34_2 C28_2 1_555 1_555
Co5 O8 1_555 1_555
C4_2 C5_2 1_555 1_555
O11_2 C27_2 1_555 1_555
O12_2 C28_2 1_555 1_555
C29_2 C34_2 1_555 1_555
C33_2 C34_2 1_555 1_555
Co2 N5_2 1_555 1_555
N5_2 C12_2 1_555 1_555
C11_2 H9_2 1_555 1_555
C12_2 C11_2 1_555 1_555
H10_2 C12_2 1_555 1_555
C13_2 C11_2 1_555 1_555
C14_2 C13_2 1_555 1_555
H11_2 C14_2 1_555 1_555
C16_2 N5_2 1_555 1_555
O7_2 Co2 1_555 1_555
C19_2 O7_2 1_555 1_555
C20_2 C19_2 1_555 1_555
H16_2 C20_2 1_555 1_555
C22_2 C21_2 1_555 1_555
C23_2 C22_2 1_555 1_555
H19_2 C23_2 1_555 1_555
C24_2 C23_2 1_555 1_555
H20_2 C24_2 1_555 1_555
C25_2 C24_2 1_555 1_555
H21_2 C25_2 1_555 1_555
C26_2 C20_2 1_555 1_555
C35_2 H29_2 1_555 1_555
C36_2 C35_2 1_555 1_555
H30_2 C36_2 1_555 1_555
N10 C36_2 1_555 1_555
C37_2 N10 1_555 1_555
C38_2 C37_2 1_555 1_555
H32_2 C38_2 1_555 1_555
C39_2 C35_2 1_555 1_555
C40_2 H33_2 1_555 1_555
C41_2 C40_2 1_555 1_555
H34_2 C41_2 1_555 1_555
C42_2 C39_2 1_555 1_555
C43_2 C42_2 1_555 1_555
H35_2 C43_2 1_555 1_555
C44_2 C43_2 1_555 1_555
H36_2 C44_2 1_555 1_555
N7_2 Co2 1_555 1_555
N11 Co2 1_555 1_555
C14_2 C16_2 1_555 1_555
O9 C20_2 1_555 1_555
C21_2 C26_2 1_555 1_555
C25_2 C26_2 1_555 1_555
C38_2 C39_2 1_555 1_555
C40_2 N7_2 1_555 1_555
C41_2 C42_2 1_555 1_555
C44_2 N7_2 1_555 1_555
C18_2 C15_2 1_555 1_555
H14_2 C18_2 1_555 1_555
C45_2 C15_2 1_555 1_555
H37_2 C45_2 1_555 1_555
C46_2 C45_2 1_555 1_555
H38_2 C46_2 1_555 1_555
N11 C17_2 1_555 1_555
C17_2 C18_2 1_555 1_555
C46_2 N11 1_555 1_555
Co5 N3_2 1_555 1_555
N3_2 C1_2 1_555 1_555
C1_2 H1_2 1_555 1_555
C2_2 C1_2 1_555 1_555
H2_2 C2_2 1_555 1_555
C3_2 C2_2 1_555 1_555
N9 Co5 1_555 1_555
C7_2 C6_2 1_555 1_555
H5_2 C7_2 1_555 1_555
C8_2 C7_2 1_555 1_555
H6_2 C8_2 1_555 1_555
N9 C8_2 1_555 1_555
H7_2 C9_2 1_555 1_555
H8_2 C10_2 1_555 1_555
C9_2 C10_2 1_555 1_555

#END
