
###############################################################################
#
# This file contains modified crystal structure data generated from the
# MOF subset of the Cambridge Structural Database (CSD) v543 
# hosted by the Cambridge Crystallographic Data Centre (CCDC).
#
# This work is licensed under the Creative Commons
# Attribution-NonCommercial-ShareAlike 4.0 International License.
# To view a copy of this license, visit
# http://creativecommons.org/licenses/by-nc-sa/4.0/
# or send a letter to
# Creative Commons, PO Box 1866, Mountain View, CA 94042, USA.
#
# CIF created using the CSD Python API on 29 September 2022
# The structure has been converted into the P1 space group
# The structure has a 3D framework
# The original CSD entry REDMOF is in the monoclinic crystal system
# The framework has been calculated to contain at least 10.0% void space
# The void calculation uses a probe of radius 1.32A, grid spacing 0.4
#
###############################################################################

data_REDMOF
_chemical_formula_moiety         '(C156 H96 O20 P4)n'
_symmetry_cell_setting           triclinic
_symmetry_space_group_name_H-M   'P 1'
_symmetry_Int_Tables_number      1
_space_group_name_Hall           'P 1'
loop_
_symmetry_equiv_pos_site_id
_symmetry_equiv_pos_as_xyz
1 x,y,z
_cell_length_a                   23.293(3)
_cell_length_b                   27.463(3)
_cell_length_c                   6.8852(10)
_cell_angle_alpha                90
_cell_angle_beta                 109.649(16)
_cell_angle_gamma                90
_cell_volume                     4147.96
loop_
_atom_site_label
_atom_site_type_symbol
_atom_site_fract_x
_atom_site_fract_y
_atom_site_fract_z
Y4 Y 0.00022(10) 0.51385(7) 0.7977(2)
Y6 Y 0.00022(10) 0.48615(7) 0.2977(2)
O13 O 0.4990(7) 0.0539(5) 0.104(2)
Y1 Y 0.50022(10) 0.01385(7) 0.7977(2)
O7 O 0.4411(6) 0.0331(5) 0.442(2)
O9 O 0.3950(7) 0.0428(7) 0.665(3)
O10 O 0.6085(6) 0.0403(6) 0.909(2)
O11 O 0.5582(5) 0.0329(4) 0.5759(19)
O14 O 0.5003(8) 0.1000(5) 0.838(2)
C8 C 0.7259(9) 0.5655(8) 0.192(3)
H5 H 0.6898 0.5667 0.2216
C9 C 0.7802(9) 0.5577(8) 0.347(3)
H6 H 0.7805 0.5533 0.4807
C10 C 0.8352(9) 0.5564(7) 0.307(3)
C11 C 0.8352(10) 0.5639(8) 0.109(4)
H7 H 0.8715 0.5644 0.0805
C13 C 0.8916(9) 0.5444(8) 0.478(3)
O1 O 0.9411(6) 0.5331(5) 0.442(2)
O2 O 0.8950(7) 0.5428(7) 0.665(3)
P1 P 0.4851(2) 0.57597(19) 0.2621(10)
C1 C 0.5546(9) 0.5756(8) 0.494(3)
C2 C 0.5598(9) 0.5973(8) 0.678(3)
H1 H 0.5257 0.6118 0.6956
C3 C 0.6136(9) 0.5980(8) 0.836(3)
H2 H 0.6168 0.6143 0.9575
C4 C 0.6649(9) 0.5738(7) 0.815(3)
C5 C 0.6585(10) 0.5514(8) 0.627(4)
H3 H 0.6916 0.5363 0.6062
C6 C 0.6036(9) 0.5521(8) 0.476(3)
H4 H 0.5993 0.5355 0.3546
C7 C 0.7246(9) 0.5713(9) 0.992(4)
C12 C 0.7802(9) 0.5706(7) 0.954(4)
H8 H 0.7799 0.5749 0.8200
C14 C 0.4234(9) 0.5807(8) 0.369(3)
C15 C 0.3767(10) 0.6157(8) 0.310(3)
H9 H 0.3793 0.6410 0.2231
C16 C 0.3277(10) 0.6135(9) 0.376(3)
H10 H 0.2973 0.6370 0.3318
C17 C 0.3225(9) 0.5769(8) 0.507(3)
C18 C 0.3694(9) 0.5442(8) 0.575(3)
H11 H 0.3675 0.5199 0.6672
C19 C 0.4193(10) 0.5467(8) 0.511(3)
H12 H 0.4511 0.5248 0.5642
C20 C 0.2682(10) 0.5710(9) 0.567(3)
C21 C 0.2099(9) 0.5777(8) 0.423(4)
H13 H 0.2057 0.5886 0.2908
C22 C 0.1579(10) 0.5681(8) 0.475(3)
H14 H 0.1194 0.5707 0.3760
C23 C 0.1639(9) 0.5546(7) 0.677(3)
C24 C 0.2201(9) 0.5515(8) 0.824(3)
H15 H 0.2241 0.5439 0.9595
C25 C 0.2724(9) 0.5600(8) 0.769(3)
H16 H 0.3107 0.5582 0.8698
C26 C 0.1065(8) 0.5424(6) 0.726(3)
C27 C 0.4866(9) 0.6366(8) 0.147(3)
C28 C 0.5240(11) 0.6728(8) 0.246(4)
H17 H 0.5500 0.6688 0.3815
C29 C 0.5229(12) 0.7181(8) 0.138(4)
H18 H 0.5483 0.7435 0.2048
H24 H 0.4977 0.8174 0.0684
O3 O 0.1085(6) 0.5403(6) 0.909(2)
O4 O 0.0582(5) 0.5329(4) 0.5759(19)
O12 O 0.5582(5) 0.9671(4) 0.0759(19)
C30 C 0.4858(9) 0.7243(7) 0.941(4)
C31 C 0.4495(11) 0.6864(8) 0.852(4)
H19 H 0.4232 0.6905 0.7173
C32 C 0.4486(10) 0.6429(8) 0.943(4)
H20 H 0.4233 0.6179 0.8719
C33 C 0.4891(9) 0.7693(7) 0.839(3)
C34 C 0.4808(11) 0.7712(8) 0.626(4)
H21 H 0.4722 0.7424 0.5497
C35 C 0.4848(11) 0.8129(8) 0.528(4)
H22 H 0.4819 0.8116 0.3902
C36 C 0.4930(10) 0.8575(8) 0.626(3)
C37 C 0.4996(10) 0.8586(6) 0.837(3)
H23 H 0.5064 0.8878 0.9101
C38 C 0.4958(10) 0.8159(7) 0.931(3)
C39 C 0.4992(9) 0.9025(8) 0.521(3)
O5 O 0.4990(7) 0.9461(5) 0.604(2)
O6 O 0.5003(8) 0.9000(5) 0.338(2)
Y2 Y 0.50022(10) 0.98615(7) 0.2977(2)
O8 O 0.4411(6) 0.9669(5) 0.942(2)
O2_2 O 0.8950(7) 0.4572(7) 0.165(3)
C2_2 C 0.5598(9) 0.4027(8) 0.178(3)
H1_2 H 0.5257 0.3882 0.1956
C3_2 C 0.6136(9) 0.4020(8) 0.336(3)
H2_2 H 0.6168 0.3857 0.4575
C4_2 C 0.6649(9) 0.4262(7) 0.315(3)
C5_2 C 0.6585(10) 0.4486(8) 0.127(4)
H3_2 H 0.6916 0.4637 0.1062
C7_2 C 0.7246(9) 0.4287(9) 0.492(4)
C8_2 C 0.7259(9) 0.4345(8) 0.692(3)
H5_2 H 0.6898 0.4333 0.7216
C9_2 C 0.7802(9) 0.4423(8) 0.847(3)
H6_2 H 0.7805 0.4467 0.9807
C10_2 C 0.8352(9) 0.4436(7) 0.807(3)
C11_2 C 0.8352(10) 0.4361(8) 0.609(4)
H7_2 H 0.8715 0.4356 0.5805
C12_2 C 0.7802(9) 0.4294(7) 0.454(4)
H8_2 H 0.7799 0.4251 0.3200
C13_2 C 0.8916(9) 0.4556(8) 0.978(3)
C17_2 C 0.3225(9) 0.4231(8) 0.007(3)
C18_2 C 0.3694(9) 0.4558(8) 0.075(3)
H11_2 H 0.3675 0.4801 0.1672
C19_2 C 0.4193(10) 0.4533(8) 0.011(3)
H12_2 H 0.4511 0.4752 0.0642
C20_2 C 0.2682(10) 0.4290(9) 0.067(3)
C23_2 C 0.1639(9) 0.4454(7) 0.177(3)
C24_2 C 0.2201(9) 0.4485(8) 0.324(3)
H15_2 H 0.2241 0.4561 0.4595
C25_2 C 0.2724(9) 0.4400(8) 0.269(3)
H16_2 H 0.3107 0.4418 0.3698
C26_2 C 0.1065(8) 0.4576(6) 0.226(3)
O1_2 O 0.9411(6) 0.4669(5) 0.942(2)
O3_2 O 0.1085(6) 0.4597(6) 0.409(2)
O4_2 O 0.0582(5) 0.4671(4) 0.0759(19)
P1_2 P 0.4851(2) 0.42403(19) 0.7621(10)
C1_2 C 0.5546(9) 0.4244(8) 0.994(3)
C6_2 C 0.6036(9) 0.4479(8) 0.976(3)
H4_2 H 0.5993 0.4645 0.8546
C14_2 C 0.4234(9) 0.4193(8) 0.869(3)
C15_2 C 0.3767(10) 0.3843(8) 0.810(3)
H9_2 H 0.3793 0.3590 0.7231
C16_2 C 0.3277(10) 0.3865(9) 0.876(3)
H10_2 H 0.2973 0.3630 0.8318
C21_2 C 0.2099(9) 0.4223(8) 0.923(4)
H13_2 H 0.2057 0.4114 0.7908
C22_2 C 0.1579(10) 0.4319(8) 0.975(3)
H14_2 H 0.1194 0.4293 0.8760
C27_2 C 0.4866(9) 0.3634(8) 0.647(3)
C28_2 C 0.5240(11) 0.3272(8) 0.746(4)
H17_2 H 0.5500 0.3312 0.8815
C29_2 C 0.5229(12) 0.2819(8) 0.638(4)
H18_2 H 0.5483 0.2565 0.7048
C30_2 C 0.4858(9) 0.2757(7) 0.441(4)
C31_2 C 0.4495(11) 0.3136(8) 0.352(4)
H19_2 H 0.4232 0.3095 0.2173
C32_2 C 0.4486(10) 0.3571(8) 0.443(4)
H20_2 H 0.4233 0.3821 0.3719
C33_2 C 0.4891(9) 0.2307(7) 0.339(3)
C34_2 C 0.4808(11) 0.2288(8) 0.126(4)
H21_2 H 0.4722 0.2576 0.0497
C35_2 C 0.4848(11) 0.1871(8) 0.028(4)
C36_2 C 0.4930(10) 0.1425(8) 0.126(3)
C37_2 C 0.4996(10) 0.1414(6) 0.337(3)
H23_2 H 0.5064 0.1122 0.4101
C38_2 C 0.4958(10) 0.1841(7) 0.431(3)
H24_2 H 0.4977 0.1826 0.5684
C39_2 C 0.4992(9) 0.0975(8) 0.021(3)
H22_2 H 0.4819 0.1884 0.8902
O9_2 O 0.3950(7) 0.9572(7) 0.165(3)
O10_2 O 0.6085(6) 0.9597(6) 0.409(2)
C8_3 C 0.2259(9) 0.0655(8) 0.192(3)
H5_3 H 0.1898 0.0667 0.2216
C9_3 C 0.2802(9) 0.0577(8) 0.347(3)
H6_3 H 0.2805 0.0533 0.4807
C10_3 C 0.3352(9) 0.0564(7) 0.307(3)
C11_3 C 0.3352(10) 0.0639(8) 0.109(4)
H7_3 H 0.3715 0.0644 0.0805
C13_3 C 0.3916(9) 0.0444(8) 0.478(3)
C1_3 C 0.0546(9) 0.0756(8) 0.494(3)
C2_3 C 0.0598(9) 0.0973(8) 0.678(3)
H1_3 H 0.0257 0.1118 0.6956
C3_3 C 0.1136(9) 0.0980(8) 0.836(3)
H2_3 H 0.1168 0.1143 0.9575
C4_3 C 0.1649(9) 0.0738(7) 0.815(3)
C5_3 C 0.1585(10) 0.0514(8) 0.627(4)
H3_3 H 0.1916 0.0363 0.6062
C6_3 C 0.1036(9) 0.0521(8) 0.476(3)
H4_3 H 0.0993 0.0355 0.3546
C7_3 C 0.2246(9) 0.0713(9) 0.992(4)
C12_3 C 0.2802(9) 0.0706(7) 0.954(4)
H8_3 H 0.2799 0.0749 0.8200
C28_3 C 0.0240(11) 0.1728(8) 0.246(4)
H17_3 H 0.0500 0.1688 0.3815
C29_3 C 0.0229(12) 0.2181(8) 0.138(4)
H18_3 H 0.0483 0.2435 0.2048
H23_3 H 0.0064 0.3878 0.9101
O6_2 O 0.0003(8) 0.4000(5) 0.338(2)
O14_2 O 0.0003(8) 0.6000(5) 0.838(2)
P1_3 P 0.9851(2) 0.07597(19) 0.2621(10)
C14_3 C 0.9234(9) 0.0807(8) 0.369(3)
C15_3 C 0.8767(10) 0.1157(8) 0.310(3)
H9_3 H 0.8793 0.1410 0.2231
C16_3 C 0.8277(10) 0.1135(9) 0.376(3)
H10_3 H 0.7973 0.1370 0.3318
C17_3 C 0.8225(9) 0.0769(8) 0.507(3)
C18_3 C 0.8694(9) 0.0442(8) 0.575(3)
H11_3 H 0.8675 0.0199 0.6672
C19_3 C 0.9193(10) 0.0467(8) 0.511(3)
H12_3 H 0.9511 0.0248 0.5642
C20_3 C 0.7682(10) 0.0710(9) 0.567(3)
C21_3 C 0.7099(9) 0.0777(8) 0.423(4)
H13_3 H 0.7057 0.0886 0.2908
C22_3 C 0.6579(10) 0.0681(8) 0.475(3)
H14_3 H 0.6194 0.0707 0.3760
C23_3 C 0.6639(9) 0.0546(7) 0.677(3)
C24_3 C 0.7201(9) 0.0515(8) 0.824(3)
H15_3 H 0.7241 0.0439 0.9595
C25_3 C 0.7724(9) 0.0600(8) 0.769(3)
H16_3 H 0.8107 0.0582 0.8698
C26_3 C 0.6065(8) 0.0424(6) 0.726(3)
C27_3 C 0.9866(9) 0.1366(8) 0.147(3)
H24_3 H 0.9977 0.3174 0.0684
O13_2 O 0.9990(7) 0.5539(5) 0.104(2)
C30_3 C 0.9858(9) 0.2243(7) 0.941(4)
C31_3 C 0.9495(11) 0.1864(8) 0.852(4)
H19_3 H 0.9232 0.1905 0.7173
C32_3 C 0.9486(10) 0.1429(8) 0.943(4)
H20_3 H 0.9233 0.1179 0.8719
C33_3 C 0.9891(9) 0.2693(7) 0.839(3)
C34_3 C 0.9808(11) 0.2712(8) 0.626(4)
H21_3 H 0.9722 0.2424 0.5497
C35_3 C 0.9848(11) 0.3129(8) 0.528(4)
H22_3 H 0.9819 0.3116 0.3902
C36_3 C 0.9930(10) 0.3575(8) 0.626(3)
C37_3 C 0.9996(10) 0.3586(6) 0.837(3)
C38_3 C 0.9958(10) 0.3159(7) 0.931(3)
C39_3 C 0.9992(9) 0.4025(8) 0.521(3)
O5_2 O 0.9990(7) 0.4461(5) 0.604(2)
C2_4 C 0.0598(9) 0.9027(8) 0.178(3)
H1_4 H 0.0257 0.8882 0.1956
C3_4 C 0.1136(9) 0.9020(8) 0.336(3)
H2_4 H 0.1168 0.8857 0.4575
C4_4 C 0.1649(9) 0.9262(7) 0.315(3)
C5_4 C 0.1585(10) 0.9486(8) 0.127(4)
H3_4 H 0.1916 0.9637 0.1062
C7_4 C 0.2246(9) 0.9287(9) 0.492(4)
C8_4 C 0.2259(9) 0.9345(8) 0.692(3)
H5_4 H 0.1898 0.9333 0.7216
C9_4 C 0.2802(9) 0.9423(8) 0.847(3)
H6_4 H 0.2805 0.9467 0.9807
C10_4 C 0.3352(9) 0.9436(7) 0.807(3)
C11_4 C 0.3352(10) 0.9361(8) 0.609(4)
H7_4 H 0.3715 0.9356 0.5805
C12_4 C 0.2802(9) 0.9294(7) 0.454(4)
H8_4 H 0.2799 0.9251 0.3200
C13_4 C 0.3916(9) 0.9556(8) 0.978(3)
C1_4 C 0.0546(9) 0.9244(8) 0.994(3)
C6_4 C 0.1036(9) 0.9479(8) 0.976(3)
H4_4 H 0.0993 0.9645 0.8546
C28_4 C 0.0240(11) 0.8272(8) 0.746(4)
H17_4 H 0.0500 0.8312 0.8815
C29_4 C 0.0229(12) 0.7819(8) 0.638(4)
H18_4 H 0.0483 0.7565 0.7048
H23_4 H 0.0064 0.6122 0.4101
C17_4 C 0.8225(9) 0.9231(8) 0.007(3)
C18_4 C 0.8694(9) 0.9558(8) 0.075(3)
H11_4 H 0.8675 0.9801 0.1672
C19_4 C 0.9193(10) 0.9533(8) 0.011(3)
H12_4 H 0.9511 0.9752 0.0642
C20_4 C 0.7682(10) 0.9290(9) 0.067(3)
C23_4 C 0.6639(9) 0.9454(7) 0.177(3)
C24_4 C 0.7201(9) 0.9485(8) 0.324(3)
H15_4 H 0.7241 0.9561 0.4595
C25_4 C 0.7724(9) 0.9400(8) 0.269(3)
H16_4 H 0.8107 0.9418 0.3698
C26_4 C 0.6065(8) 0.9576(6) 0.226(3)
P1_4 P 0.9851(2) 0.92403(19) 0.7621(10)
C14_4 C 0.9234(9) 0.9193(8) 0.869(3)
C15_4 C 0.8767(10) 0.8843(8) 0.810(3)
H9_4 H 0.8793 0.8590 0.7231
C16_4 C 0.8277(10) 0.8865(9) 0.876(3)
H10_4 H 0.7973 0.8630 0.8318
C21_4 C 0.7099(9) 0.9223(8) 0.923(4)
H13_4 H 0.7057 0.9114 0.7908
C22_4 C 0.6579(10) 0.9319(8) 0.975(3)
H14_4 H 0.6194 0.9293 0.8760
C27_4 C 0.9866(9) 0.8634(8) 0.647(3)
C30_4 C 0.9858(9) 0.7757(7) 0.441(4)
C31_4 C 0.9495(11) 0.8136(8) 0.352(4)
H19_4 H 0.9232 0.8095 0.2173
C32_4 C 0.9486(10) 0.8571(8) 0.443(4)
H20_4 H 0.9233 0.8821 0.3719
C33_4 C 0.9891(9) 0.7307(7) 0.339(3)
C34_4 C 0.9808(11) 0.7288(8) 0.126(4)
H21_4 H 0.9722 0.7576 0.0497
C35_4 C 0.9848(11) 0.6871(8) 0.028(4)
C36_4 C 0.9930(10) 0.6425(8) 0.126(3)
C37_4 C 0.9996(10) 0.6414(6) 0.337(3)
C38_4 C 0.9958(10) 0.6841(7) 0.431(3)
H24_4 H 0.9977 0.6826 0.5684
C39_4 C 0.9992(9) 0.5975(8) 0.021(3)
H22_4 H 0.9819 0.6884 0.8902
loop_
_geom_bond_atom_site_label_1
_geom_bond_atom_site_label_2
_geom_bond_site_symmetry_1
_geom_bond_site_symmetry_2
O7 Y1 1_555 1_555
O9 Y1 1_555 1_555
O10 Y1 1_555 1_555
O11 Y1 1_555 1_555
O14 Y1 1_555 1_555
H5 C8 1_555 1_555
C9 C8 1_555 1_555
H6 C9 1_555 1_555
C10 C9 1_555 1_555
C11 C10 1_555 1_555
H7 C11 1_555 1_555
C13 C10 1_555 1_555
O1 C13 1_555 1_555
O2 C13 1_555 1_555
P1 C1 1_555 1_555
C1 C2 1_555 1_555
C2 H1 1_555 1_555
C3 C2 1_555 1_555
H2 C3 1_555 1_555
C4 C3 1_555 1_555
C5 C4 1_555 1_555
H3 C5 1_555 1_555
C6 C1 1_555 1_555
H4 C6 1_555 1_555
C7 C4 1_555 1_555
C12 C7 1_555 1_555
H8 C12 1_555 1_555
C14 P1 1_555 1_555
C15 C14 1_555 1_555
H9 C15 1_555 1_555
C16 C15 1_555 1_555
H10 C16 1_555 1_555
C17 C16 1_555 1_555
C18 C17 1_555 1_555
H11 C18 1_555 1_555
C19 C14 1_555 1_555
H12 C19 1_555 1_555
C20 C17 1_555 1_555
C21 C20 1_555 1_555
H13 C21 1_555 1_555
C22 C21 1_555 1_555
H14 C22 1_555 1_555
C23 C22 1_555 1_555
C24 C23 1_555 1_555
H15 C24 1_555 1_555
C25 C20 1_555 1_555
H16 C25 1_555 1_555
C26 C23 1_555 1_555
C27 P1 1_555 1_555
C28 C27 1_555 1_555
H17 C28 1_555 1_555
C29 C28 1_555 1_555
H18 C29 1_555 1_555
O3 C26 1_555 1_555
O4 C26 1_555 1_555
Y4 O3 1_555 1_555
Y6 O4 1_555 1_555
C5 C6 1_555 1_555
C18 C19 1_555 1_555
C24 C25 1_555 1_555
O4 Y4 1_555 1_555
C31 C30 1_555 1_555
H19 C31 1_555 1_555
H20 C32 1_555 1_555
C33 C30 1_555 1_555
C34 C33 1_555 1_555
H21 C34 1_555 1_555
C35 C34 1_555 1_555
H22 C35 1_555 1_555
C36 C35 1_555 1_555
C37 C36 1_555 1_555
H23 C37 1_555 1_555
C38 C33 1_555 1_555
C39 C36 1_555 1_555
O5 C39 1_555 1_555
O6 C39 1_555 1_555
Y2 O5 1_555 1_555
C31 C32 1_555 1_555
C37 C38 1_555 1_555
O6 Y2 1_555 1_555
C2_2 H1_2 1_555 1_555
C3_2 C2_2 1_555 1_555
H2_2 C3_2 1_555 1_555
C4_2 C3_2 1_555 1_555
C5_2 C4_2 1_555 1_555
H3_2 C5_2 1_555 1_555
C7_2 C4_2 1_555 1_555
C8_2 C7_2 1_555 1_555
H5_2 C8_2 1_555 1_555
C9_2 C8_2 1_555 1_555
H6_2 C9_2 1_555 1_555
C10_2 C9_2 1_555 1_555
C11_2 C10_2 1_555 1_555
H7_2 C11_2 1_555 1_555
C12_2 C7_2 1_555 1_555
H8_2 C12_2 1_555 1_555
C13_2 C10_2 1_555 1_555
C18_2 C17_2 1_555 1_555
H11_2 C18_2 1_555 1_555
H12_2 C19_2 1_555 1_555
C20_2 C17_2 1_555 1_555
C24_2 C23_2 1_555 1_555
H15_2 C24_2 1_555 1_555
C25_2 C20_2 1_555 1_555
H16_2 C25_2 1_555 1_555
C26_2 C23_2 1_555 1_555
O1_2 C13_2 1_555 1_555
O3_2 C26_2 1_555 1_555
O4_2 C26_2 1_555 1_555
Y6 O3_2 1_555 1_555
C11_2 C12_2 1_555 1_555
C18_2 C19_2 1_555 1_555
C24_2 C25_2 1_555 1_555
O4_2 Y6 1_555 1_555
P1_2 C1_2 1_555 1_555
C6_2 C1_2 1_555 1_555
H4_2 C6_2 1_555 1_555
C14_2 P1_2 1_555 1_555
C15_2 C14_2 1_555 1_555
H9_2 C15_2 1_555 1_555
C16_2 C15_2 1_555 1_555
H10_2 C16_2 1_555 1_555
H13_2 C21_2 1_555 1_555
C22_2 C21_2 1_555 1_555
H14_2 C22_2 1_555 1_555
C27_2 P1_2 1_555 1_555
C28_2 C27_2 1_555 1_555
H17_2 C28_2 1_555 1_555
C29_2 C28_2 1_555 1_555
H18_2 C29_2 1_555 1_555
C30_2 C29_2 1_555 1_555
C31_2 C30_2 1_555 1_555
H19_2 C31_2 1_555 1_555
C32_2 C27_2 1_555 1_555
H20_2 C32_2 1_555 1_555
C33_2 C30_2 1_555 1_555
C34_2 C33_2 1_555 1_555
H21_2 C34_2 1_555 1_555
C35_2 C34_2 1_555 1_555
C36_2 C35_2 1_555 1_555
C37_2 C36_2 1_555 1_555
H23_2 C37_2 1_555 1_555
C38_2 C33_2 1_555 1_555
H24_2 C38_2 1_555 1_555
C39_2 C36_2 1_555 1_555
O13 C39_2 1_555 1_555
C31_2 C32_2 1_555 1_555
C37_2 C38_2 1_555 1_555
O9_2 Y2 1_555 1_555
O10_2 Y2 1_555 1_555
O12 Y2 1_555 1_555
H5_3 C8_3 1_555 1_555
C9_3 C8_3 1_555 1_555
H6_3 C9_3 1_555 1_555
C10_3 C9_3 1_555 1_555
C11_3 C10_3 1_555 1_555
H7_3 C11_3 1_555 1_555
C13_3 C10_3 1_555 1_555
O7 C13_3 1_555 1_555
O9 C13_3 1_555 1_555
C1_3 C2_3 1_555 1_555
C2_3 H1_3 1_555 1_555
C3_3 C2_3 1_555 1_555
H2_3 C3_3 1_555 1_555
C4_3 C3_3 1_555 1_555
C5_3 C4_3 1_555 1_555
H3_3 C5_3 1_555 1_555
C6_3 C1_3 1_555 1_555
H4_3 C6_3 1_555 1_555
C7_3 C4_3 1_555 1_555
C12_3 C7_3 1_555 1_555
H8_3 C12_3 1_555 1_555
H17_3 C28_3 1_555 1_555
C29_3 C28_3 1_555 1_555
H18_3 C29_3 1_555 1_555
C5_3 C6_3 1_555 1_555
O14_2 Y4 1_555 1_555
O6_2 Y6 1_555 1_555
C14_3 P1_3 1_555 1_555
C15_3 C14_3 1_555 1_555
H9_3 C15_3 1_555 1_555
C16_3 C15_3 1_555 1_555
H10_3 C16_3 1_555 1_555
C17_3 C16_3 1_555 1_555
C18_3 C17_3 1_555 1_555
H11_3 C18_3 1_555 1_555
C19_3 C14_3 1_555 1_555
H12_3 C19_3 1_555 1_555
C20_3 C17_3 1_555 1_555
C21_3 C20_3 1_555 1_555
H13_3 C21_3 1_555 1_555
C22_3 C21_3 1_555 1_555
H14_3 C22_3 1_555 1_555
C23_3 C22_3 1_555 1_555
C24_3 C23_3 1_555 1_555
H15_3 C24_3 1_555 1_555
C25_3 C20_3 1_555 1_555
H16_3 C25_3 1_555 1_555
C26_3 C23_3 1_555 1_555
C27_3 P1_3 1_555 1_555
O10 C26_3 1_555 1_555
O11 C26_3 1_555 1_555
C18_3 C19_3 1_555 1_555
C24_3 C25_3 1_555 1_555
C31_3 C30_3 1_555 1_555
H19_3 C31_3 1_555 1_555
H20_3 C32_3 1_555 1_555
C33_3 C30_3 1_555 1_555
C34_3 C33_3 1_555 1_555
H21_3 C34_3 1_555 1_555
C35_3 C34_3 1_555 1_555
H22_3 C35_3 1_555 1_555
C36_3 C35_3 1_555 1_555
C37_3 C36_3 1_555 1_555
C38_3 C33_3 1_555 1_555
C39_3 C36_3 1_555 1_555
O5_2 C39_3 1_555 1_555
C31_3 C32_3 1_555 1_555
C37_3 C38_3 1_555 1_555
C2_4 H1_4 1_555 1_555
C3_4 C2_4 1_555 1_555
H2_4 C3_4 1_555 1_555
C4_4 C3_4 1_555 1_555
C5_4 C4_4 1_555 1_555
H3_4 C5_4 1_555 1_555
C7_4 C4_4 1_555 1_555
C8_4 C7_4 1_555 1_555
H5_4 C8_4 1_555 1_555
C9_4 C8_4 1_555 1_555
H6_4 C9_4 1_555 1_555
C10_4 C9_4 1_555 1_555
C11_4 C10_4 1_555 1_555
H7_4 C11_4 1_555 1_555
C12_4 C7_4 1_555 1_555
H8_4 C12_4 1_555 1_555
C13_4 C10_4 1_555 1_555
O8 C13_4 1_555 1_555
C11_4 C12_4 1_555 1_555
C6_4 C1_4 1_555 1_555
H4_4 C6_4 1_555 1_555
H17_4 C28_4 1_555 1_555
C29_4 C28_4 1_555 1_555
H18_4 C29_4 1_555 1_555
C18_4 C17_4 1_555 1_555
H11_4 C18_4 1_555 1_555
H12_4 C19_4 1_555 1_555
C20_4 C17_4 1_555 1_555
C24_4 C23_4 1_555 1_555
H15_4 C24_4 1_555 1_555
C25_4 C20_4 1_555 1_555
H16_4 C25_4 1_555 1_555
C26_4 C23_4 1_555 1_555
O10_2 C26_4 1_555 1_555
O12 C26_4 1_555 1_555
C18_4 C19_4 1_555 1_555
C24_4 C25_4 1_555 1_555
C14_4 P1_4 1_555 1_555
C15_4 C14_4 1_555 1_555
H9_4 C15_4 1_555 1_555
C16_4 C15_4 1_555 1_555
H10_4 C16_4 1_555 1_555
H13_4 C21_4 1_555 1_555
C22_4 C21_4 1_555 1_555
H14_4 C22_4 1_555 1_555
C27_4 P1_4 1_555 1_555
C31_4 C30_4 1_555 1_555
H19_4 C31_4 1_555 1_555
C32_4 C27_4 1_555 1_555
H20_4 C32_4 1_555 1_555
C33_4 C30_4 1_555 1_555
C34_4 C33_4 1_555 1_555
H21_4 C34_4 1_555 1_555
C35_4 C34_4 1_555 1_555
C36_4 C35_4 1_555 1_555
C37_4 C36_4 1_555 1_555
C38_4 C33_4 1_555 1_555
H24_4 C38_4 1_555 1_555
C39_4 C36_4 1_555 1_555
O13_2 C39_4 1_555 1_555
C31_4 C32_4 1_555 1_555
C37_4 C38_4 1_555 1_555

#END
