
###############################################################################
#
# This file contains modified crystal structure data generated from the
# MOF subset of the Cambridge Structural Database (CSD) v543 
# hosted by the Cambridge Crystallographic Data Centre (CCDC).
#
# This work is licensed under the Creative Commons
# Attribution-NonCommercial-ShareAlike 4.0 International License.
# To view a copy of this license, visit
# http://creativecommons.org/licenses/by-nc-sa/4.0/
# or send a letter to
# Creative Commons, PO Box 1866, Mountain View, CA 94042, USA.
#
# CIF created using the CSD Python API on 29 September 2022
# The structure has been converted into the P1 space group
# The structure has a 3D framework
# The original CSD entry REFLIB is in the monoclinic crystal system
# The framework has been calculated to contain at least 10.0% void space
# The void calculation uses a probe of radius 1.32A, grid spacing 0.4
# The framework is charged, counterions have been retained in the structure
#
###############################################################################

data_REFLIB
_chemical_formula_moiety         '(C112 H56 Bi4 O30 4-)n'
_symmetry_cell_setting           triclinic
_symmetry_space_group_name_H-M   'P 1'
_symmetry_Int_Tables_number      1
_space_group_name_Hall           'P 1'
loop_
_symmetry_equiv_pos_site_id
_symmetry_equiv_pos_as_xyz
1 x,y,z
_cell_length_a                   15.708(3)
_cell_length_b                   22.728(5)
_cell_length_c                   9.990(2)
_cell_angle_alpha                90
_cell_angle_beta                 96.50(3)
_cell_angle_gamma                90
_cell_volume                     3543.62
loop_
_atom_site_label
_atom_site_type_symbol
_atom_site_fract_x
_atom_site_fract_y
_atom_site_fract_z
O7 O 0.0429(4) 0.7891(2) 0.0853(6)
O8 O 0.0702(4) 0.8689(2) 0.1779(6)
C28 C 0.0284(7) 0.8403(5) 0.0868(10)
Bi4 Bi 0.19809(12) 0.795353(6) 0.15994(17)
O4 O 0.7240(6) 0.2159(4) 0.0246(11)
Bi2 Bi 0.69809(12) 0.295353(6) 0.15994(17)
O1 O 0.6761(9) 0.2161(5) 0.3014(10)
O2 O 0.7051(4) 0.2990(2) 0.4152(6)
O3 O 0.7239(4) 0.2983(2) 0.9097(5)
C1 C 0.6978(14) 0.05263(18) 0.655(2)
C2 C 0.6399(10) 0.0197(7) 0.5772(15)
H1 H 0.5956 0.0402 0.5280
C6 C 0.7592(11) 0.0231(7) 0.7502(16)
H3 H 0.7947 0.0432 0.8156
C7 C 0.6976(14) 0.1182(2) 0.659(2)
C8 C 0.6898(9) 0.1501(8) 0.5390(15)
H4 H 0.6815 0.1305 0.4569
C9 C 0.6943(10) 0.2106(6) 0.5422(16)
C10 C 0.7006(17) 0.2400(2) 0.671(2)
H5 H 0.6935 0.2806 0.6742
C11 C 0.7161(12) 0.2103(7) 0.7843(19)
C12 C 0.7110(11) 0.1484(8) 0.7801(15)
H6 H 0.7168 0.1274 0.8604
C13 C 0.6822(8) 0.2460(8) 0.4094(14)
C14 C 0.7128(11) 0.2422(8) 0.9097(15)
O11 O 0.8007(4) 0.3783(2) 0.1880(6)
O12 O 0.8425(4) 0.2885(2) 0.2774(6)
O13 O 0.5429(4) 0.2891(2) 0.0853(6)
O14 O 0.5702(4) 0.3689(2) 0.1779(6)
O5 O 0.3007(4) 0.8783(2) 0.1880(6)
O6 O 0.3425(4) 0.7885(2) 0.2774(6)
C3 C 0.6385(9) 0.9587(6) 0.5623(13)
C4 C 0.7001(15) 0.9301(2) 0.666(2)
H2 H 0.6962 0.8899 0.6816
C5 C 0.7609(9) 0.9616(7) 0.7367(14)
C15 C 0.5704(9) 0.9289(5) 0.4847(13)
C16 C 0.5342(10) 0.9556(8) 0.3633(16)
H7 H 0.5547 0.9915 0.3358
C17 C 0.4645(7) 0.9258(6) 0.2828(11)
H8 H 0.4340 0.9445 0.2096
C18 C 0.4439(11) 0.8675(8) 0.3185(16)
C19 C 0.4815(6) 0.8411(5) 0.4368(9)
H9 H 0.4606 0.8061 0.4688
C20 C 0.5500(9) 0.8691(7) 0.5028(16)
H10 H 0.5861 0.8474 0.5643
C21 C 0.3593(8) 0.8444(6) 0.2507(13)
C22 C 0.8247(8) 0.9263(7) 0.8426(15)
C23 C 0.8461(8) 0.8707(5) 0.8126(11)
H11 H 0.8235 0.8525 0.7330
C24 C 0.9058(6) 0.8409(4) 0.9099(9)
H12 H 0.9081 0.8000 0.9101
C27 C 0.8703(9) 0.9546(7) 0.9492(15)
H14 H 0.8553 0.9928 0.9709
O4_2 O 0.2240(6) 0.7159(4) 0.0246(11)
C25 C 0.4603(12) 0.3725(9) 0.0040(19)
C26 C 0.4354(11) 0.4284(7) 0.0213(16)
H13 H 0.4663 0.4503 0.0889
C28_2 C 0.5284(7) 0.3403(5) 0.0868(10)
O1_2 O 0.1761(9) 0.7161(5) 0.3014(10)
O2_2 O 0.2051(4) 0.7990(2) 0.4152(6)
O3_2 O 0.2239(4) 0.7983(2) 0.9097(5)
C1_2 C 0.1978(14) 0.55263(18) 0.655(2)
C2_2 C 0.1399(10) 0.5197(7) 0.5772(15)
H1_2 H 0.0956 0.5402 0.5280
C3_2 C 0.1385(9) 0.4587(6) 0.5623(13)
C4_2 C 0.2001(15) 0.4301(2) 0.666(2)
H2_2 H 0.1962 0.3899 0.6816
C5_2 C 0.2609(9) 0.4616(7) 0.7367(14)
C6_2 C 0.2592(11) 0.5231(7) 0.7502(16)
H3_2 H 0.2947 0.5432 0.8156
C7_2 C 0.1976(14) 0.6182(2) 0.659(2)
C8_2 C 0.1898(9) 0.6501(8) 0.5390(15)
H4_2 H 0.1815 0.6305 0.4569
C9_2 C 0.1943(10) 0.7106(6) 0.5422(16)
C10_2 C 0.2006(17) 0.7400(2) 0.671(2)
H5_2 H 0.1935 0.7806 0.6742
C11_2 C 0.2161(12) 0.7103(7) 0.7843(19)
C12_2 C 0.2110(11) 0.6484(8) 0.7801(15)
H6_2 H 0.2168 0.6274 0.8604
C13_2 C 0.1822(8) 0.7460(8) 0.4094(14)
C14_2 C 0.2128(11) 0.7422(8) 0.9097(15)
C15_2 C 0.0704(9) 0.4289(5) 0.4847(13)
C16_2 C 0.0342(10) 0.4556(8) 0.3633(16)
H7_2 H 0.0547 0.4915 0.3358
C20_2 C 0.0500(9) 0.3691(7) 0.5028(16)
H10_2 H 0.0861 0.3474 0.5643
C22_2 C 0.3247(8) 0.4263(7) 0.8426(15)
C23_2 C 0.3461(8) 0.3707(5) 0.8126(11)
H11_2 H 0.3235 0.3525 0.7330
C24_2 C 0.4058(6) 0.3409(4) 0.9099(9)
H12_2 H 0.4081 0.3000 0.9101
C27_2 C 0.3703(9) 0.4546(7) 0.9492(15)
H14_2 H 0.3553 0.4928 0.9709
C17_2 C 0.9645(7) 0.4258(6) 0.2828(11)
H8_2 H 0.9340 0.4445 0.2096
C18_2 C 0.9439(11) 0.3675(8) 0.3185(16)
C19_2 C 0.9815(6) 0.3411(5) 0.4368(9)
H9_2 H 0.9606 0.3061 0.4688
C21_2 C 0.8593(8) 0.3444(6) 0.2507(13)
C25_2 C 0.9603(12) 0.8725(9) 0.0040(19)
C26_2 C 0.9354(11) 0.9284(7) 0.0213(16)
H13_2 H 0.9663 0.9503 0.0889
O7_2 O 0.0429(4) 0.2109(2) 0.5853(6)
O8_2 O 0.0702(4) 0.1311(2) 0.6779(6)
C28_3 C 0.0284(7) 0.1597(5) 0.5868(10)
Bi4_2 Bi 0.19809(12) 0.204647(6) 0.65994(17)
O5_2 O 0.3007(4) 0.1217(2) 0.6880(6)
O6_2 O 0.3425(4) 0.2115(2) 0.7774(6)
C15_3 C 0.5704(9) 0.0711(5) 0.9847(13)
C16_3 C 0.5342(10) 0.0444(8) 0.8633(16)
H7_3 H 0.5547 0.0085 0.8358
C17_3 C 0.4645(7) 0.0742(6) 0.7828(11)
H8_3 H 0.4340 0.0555 0.7096
C18_3 C 0.4439(11) 0.1325(8) 0.8185(16)
C19_3 C 0.4815(6) 0.1589(5) 0.9368(9)
H9_3 H 0.4606 0.1939 0.9688
C21_3 C 0.3593(8) 0.1556(6) 0.7507(13)
O3_3 O 0.7239(4) 0.7017(2) 0.4097(5)
O4_3 O 0.7240(6) 0.7841(4) 0.5246(11)
C1_3 C 0.6978(14) 0.94737(18) 0.155(2)
C2_3 C 0.6399(10) 0.9803(7) 0.0772(15)
H1_3 H 0.5956 0.9598 0.0280
C6_3 C 0.7592(11) 0.9769(7) 0.2502(16)
H3_3 H 0.7947 0.9568 0.3156
C7_3 C 0.6976(14) 0.8818(2) 0.159(2)
C8_3 C 0.6898(9) 0.8499(8) 0.0390(15)
C9_3 C 0.6943(10) 0.7894(6) 0.0422(16)
C10_3 C 0.7006(17) 0.7600(2) 0.171(2)
H5_3 H 0.6935 0.7194 0.1742
C11_3 C 0.7161(12) 0.7897(7) 0.2843(19)
C12_3 C 0.7110(11) 0.8516(8) 0.2801(15)
H6_3 H 0.7168 0.8726 0.3604
C14_3 C 0.7128(11) 0.7578(8) 0.4097(15)
Bi2_2 Bi 0.69809(12) 0.704647(6) 0.65994(17)
O1_3 O 0.6761(9) 0.7839(5) 0.8014(10)
O2_3 O 0.7051(4) 0.7010(2) 0.9152(6)
H4_3 H 0.6815 0.8695 0.9569
C13_3 C 0.6822(8) 0.7540(8) 0.9094(14)
O11_2 O 0.8007(4) 0.6217(2) 0.6880(6)
O12_2 O 0.8425(4) 0.7115(2) 0.7774(6)
O13_2 O 0.5429(4) 0.7109(2) 0.5853(6)
O14_2 O 0.5702(4) 0.6311(2) 0.6779(6)
O3_4 O 0.2239(4) 0.2017(2) 0.4097(5)
O4_4 O 0.2240(6) 0.2841(4) 0.5246(11)
C1_4 C 0.1978(14) 0.44737(18) 0.155(2)
C2_4 C 0.1399(10) 0.4803(7) 0.0772(15)
H1_4 H 0.0956 0.4598 0.0280
C3_3 C 0.1385(9) 0.5413(6) 0.0623(13)
C4_3 C 0.2001(15) 0.5699(2) 0.166(2)
H2_3 H 0.1962 0.6101 0.1816
C5_3 C 0.2609(9) 0.5384(7) 0.2367(14)
C6_4 C 0.2592(11) 0.4769(7) 0.2502(16)
H3_4 H 0.2947 0.4568 0.3156
C7_4 C 0.1976(14) 0.3818(2) 0.159(2)
C8_4 C 0.1898(9) 0.3499(8) 0.0390(15)
C9_4 C 0.1943(10) 0.2894(6) 0.0422(16)
C10_4 C 0.2006(17) 0.2600(2) 0.171(2)
H5_4 H 0.1935 0.2194 0.1742
C11_4 C 0.2161(12) 0.2897(7) 0.2843(19)
C12_4 C 0.2110(11) 0.3516(8) 0.2801(15)
H6_4 H 0.2168 0.3726 0.3604
C14_4 C 0.2128(11) 0.2578(8) 0.4097(15)
C20_3 C 0.0500(9) 0.6309(7) 0.0028(16)
H10_3 H 0.0861 0.6526 0.0643
C22_3 C 0.3247(8) 0.5737(7) 0.3426(15)
C23_3 C 0.3461(8) 0.6293(5) 0.3126(11)
H11_3 H 0.3235 0.6475 0.2330
C24_3 C 0.4058(6) 0.6591(4) 0.4099(9)
H12_3 H 0.4081 0.7000 0.4101
C25_3 C 0.4603(12) 0.6275(9) 0.5040(19)
C26_3 C 0.4354(11) 0.5716(7) 0.5213(16)
H13_3 H 0.4663 0.5497 0.5889
C27_3 C 0.3703(9) 0.5454(7) 0.4492(15)
H14_3 H 0.3553 0.5072 0.4709
C28_4 C 0.5284(7) 0.6597(5) 0.5868(10)
O1_4 O 0.1761(9) 0.2839(5) 0.8014(10)
O2_4 O 0.2051(4) 0.2010(2) 0.9152(6)
H4_4 H 0.1815 0.3695 0.9569
C13_4 C 0.1822(8) 0.2540(8) 0.9094(14)
C15_4 C 0.0704(9) 0.5711(5) 0.9847(13)
C16_4 C 0.0342(10) 0.5444(8) 0.8633(16)
H7_4 H 0.0547 0.5085 0.8358
C17_4 C 0.9645(7) 0.5742(6) 0.7828(11)
H8_4 H 0.9340 0.5555 0.7096
C18_4 C 0.9439(11) 0.6325(8) 0.8185(16)
C19_4 C 0.9815(6) 0.6589(5) 0.9368(9)
H9_4 H 0.9606 0.6939 0.9688
C21_4 C 0.8593(8) 0.6556(6) 0.7507(13)
C3_4 C 0.6385(9) 0.0413(6) 0.0623(13)
C4_4 C 0.7001(15) 0.0699(2) 0.166(2)
H2_4 H 0.6962 0.1101 0.1816
C5_4 C 0.7609(9) 0.0384(7) 0.2367(14)
C20_4 C 0.5500(9) 0.1309(7) 0.0028(16)
H10_4 H 0.5861 0.1526 0.0643
C22_4 C 0.8247(8) 0.0737(7) 0.3426(15)
C23_4 C 0.8461(8) 0.1293(5) 0.3126(11)
H11_4 H 0.8235 0.1475 0.2330
C24_4 C 0.9058(6) 0.1591(4) 0.4099(9)
H12_4 H 0.9081 0.2000 0.4101
C25_4 C 0.9603(12) 0.1275(9) 0.5040(19)
C26_4 C 0.9354(11) 0.0716(7) 0.5213(16)
H13_4 H 0.9663 0.0497 0.5889
C27_4 C 0.8703(9) 0.0454(7) 0.4492(15)
H14_4 H 0.8553 0.0072 0.4709
loop_
_geom_bond_atom_site_label_1
_geom_bond_atom_site_label_2
_geom_bond_site_symmetry_1
_geom_bond_site_symmetry_2
O7 C28 1_555 1_555
O8 C28 1_555 1_555
Bi4 O7 1_555 1_555
O8 Bi4 1_555 1_555
O4 Bi2 1_555 1_555
Bi2 O1 1_555 1_555
O1 C13 1_555 1_555
O2 Bi2 1_555 1_555
O3 C14 1_555 1_555
C1 C2 1_555 1_555
C2 H1 1_555 1_555
C6 C1 1_555 1_555
H3 C6 1_555 1_555
C7 C1 1_555 1_555
C8 C7 1_555 1_555
H4 C8 1_555 1_555
C9 C8 1_555 1_555
C10 C9 1_555 1_555
H5 C10 1_555 1_555
C11 C10 1_555 1_555
C12 C7 1_555 1_555
H6 C12 1_555 1_555
C13 O2 1_555 1_555
C14 C11 1_555 1_555
O11 Bi2 1_555 1_555
O12 Bi2 1_555 1_555
O13 Bi2 1_555 1_555
O14 Bi2 1_555 1_555
C9 C13 1_555 1_555
C11 C12 1_555 1_555
O5 C21 1_555 1_555
O6 C21 1_555 1_555
C4 C3 1_555 1_555
H2 C4 1_555 1_555
C5 C4 1_555 1_555
C15 C3 1_555 1_555
C16 C15 1_555 1_555
H7 C16 1_555 1_555
C17 C16 1_555 1_555
H8 C17 1_555 1_555
C18 C17 1_555 1_555
C19 C18 1_555 1_555
H9 C19 1_555 1_555
C20 C15 1_555 1_555
H10 C20 1_555 1_555
C21 C18 1_555 1_555
C22 C5 1_555 1_555
C23 C22 1_555 1_555
H11 C23 1_555 1_555
C24 C23 1_555 1_555
H12 C24 1_555 1_555
C27 C22 1_555 1_555
H14 C27 1_555 1_555
Bi4 O5 1_555 1_555
O6 Bi4 1_555 1_555
C19 C20 1_555 1_555
O13 C28_2 1_555 1_555
O14 C28_2 1_555 1_555
C26 C25 1_555 1_555
H13 C26 1_555 1_555
C28_2 C25 1_555 1_555
O4_2 Bi4 1_555 1_555
Bi4 O1_2 1_555 1_555
O1_2 C13_2 1_555 1_555
O2_2 Bi4 1_555 1_555
O3_2 C14_2 1_555 1_555
C1_2 C2_2 1_555 1_555
C2_2 H1_2 1_555 1_555
C3_2 C2_2 1_555 1_555
C4_2 C3_2 1_555 1_555
H2_2 C4_2 1_555 1_555
C5_2 C4_2 1_555 1_555
C6_2 C1_2 1_555 1_555
H3_2 C6_2 1_555 1_555
C7_2 C1_2 1_555 1_555
C8_2 C7_2 1_555 1_555
H4_2 C8_2 1_555 1_555
C9_2 C8_2 1_555 1_555
C10_2 C9_2 1_555 1_555
H5_2 C10_2 1_555 1_555
C11_2 C10_2 1_555 1_555
C12_2 C7_2 1_555 1_555
H6_2 C12_2 1_555 1_555
C13_2 O2_2 1_555 1_555
C14_2 C11_2 1_555 1_555
C15_2 C3_2 1_555 1_555
C16_2 C15_2 1_555 1_555
H7_2 C16_2 1_555 1_555
C20_2 C15_2 1_555 1_555
H10_2 C20_2 1_555 1_555
C22_2 C5_2 1_555 1_555
C23_2 C22_2 1_555 1_555
H11_2 C23_2 1_555 1_555
C24_2 C23_2 1_555 1_555
H12_2 C24_2 1_555 1_555
C27_2 C22_2 1_555 1_555
H14_2 C27_2 1_555 1_555
C5_2 C6_2 1_555 1_555
C9_2 C13_2 1_555 1_555
C11_2 C12_2 1_555 1_555
O11 C21_2 1_555 1_555
O12 C21_2 1_555 1_555
H8_2 C17_2 1_555 1_555
C18_2 C17_2 1_555 1_555
C19_2 C18_2 1_555 1_555
H9_2 C19_2 1_555 1_555
C21_2 C18_2 1_555 1_555
C26_2 C25_2 1_555 1_555
H13_2 C26_2 1_555 1_555
O7_2 C28_3 1_555 1_555
O8_2 C28_3 1_555 1_555
Bi4_2 O7_2 1_555 1_555
O8_2 Bi4_2 1_555 1_555
O5_2 C21_3 1_555 1_555
O6_2 C21_3 1_555 1_555
C16_3 C15_3 1_555 1_555
H7_3 C16_3 1_555 1_555
C17_3 C16_3 1_555 1_555
H8_3 C17_3 1_555 1_555
C18_3 C17_3 1_555 1_555
C19_3 C18_3 1_555 1_555
H9_3 C19_3 1_555 1_555
C21_3 C18_3 1_555 1_555
Bi4_2 O5_2 1_555 1_555
O6_2 Bi4_2 1_555 1_555
O3_3 C14_3 1_555 1_555
O4_3 C14_3 1_555 1_555
C1_3 C2_3 1_555 1_555
C2_3 H1_3 1_555 1_555
C6_3 C1_3 1_555 1_555
H3_3 C6_3 1_555 1_555
C7_3 C1_3 1_555 1_555
C8_3 C7_3 1_555 1_555
C9_3 C8_3 1_555 1_555
C10_3 C9_3 1_555 1_555
H5_3 C10_3 1_555 1_555
C11_3 C10_3 1_555 1_555
C12_3 C7_3 1_555 1_555
H6_3 C12_3 1_555 1_555
C14_3 C11_3 1_555 1_555
Bi2_2 O3_3 1_555 1_555
O4_3 Bi2_2 1_555 1_555
C11_3 C12_3 1_555 1_555
Bi2_2 O1_3 1_555 1_555
O1_3 C13_3 1_555 1_555
O2_3 Bi2_2 1_555 1_555
C13_3 O2_3 1_555 1_555
O11_2 Bi2_2 1_555 1_555
O12_2 Bi2_2 1_555 1_555
O13_2 Bi2_2 1_555 1_555
O14_2 Bi2_2 1_555 1_555
O3_4 C14_4 1_555 1_555
O4_4 C14_4 1_555 1_555
O13_2 C28_4 1_555 1_555
O14_2 C28_4 1_555 1_555
C1_4 C2_4 1_555 1_555
C2_4 H1_4 1_555 1_555
C3_3 C2_4 1_555 1_555
C4_3 C3_3 1_555 1_555
H2_3 C4_3 1_555 1_555
C5_3 C4_3 1_555 1_555
C6_4 C1_4 1_555 1_555
H3_4 C6_4 1_555 1_555
C7_4 C1_4 1_555 1_555
C8_4 C7_4 1_555 1_555
C9_4 C8_4 1_555 1_555
C10_4 C9_4 1_555 1_555
H5_4 C10_4 1_555 1_555
C11_4 C10_4 1_555 1_555
C12_4 C7_4 1_555 1_555
H6_4 C12_4 1_555 1_555
C14_4 C11_4 1_555 1_555
H10_3 C20_3 1_555 1_555
C22_3 C5_3 1_555 1_555
C23_3 C22_3 1_555 1_555
H11_3 C23_3 1_555 1_555
C24_3 C23_3 1_555 1_555
H12_3 C24_3 1_555 1_555
C25_3 C24_3 1_555 1_555
C26_3 C25_3 1_555 1_555
H13_3 C26_3 1_555 1_555
C27_3 C22_3 1_555 1_555
H14_3 C27_3 1_555 1_555
C28_4 C25_3 1_555 1_555
Bi4_2 O3_4 1_555 1_555
O4_4 Bi4_2 1_555 1_555
C5_3 C6_4 1_555 1_555
C11_4 C12_4 1_555 1_555
C26_3 C27_3 1_555 1_555
Bi4_2 O1_4 1_555 1_555
O1_4 C13_4 1_555 1_555
O2_4 Bi4_2 1_555 1_555
C13_4 O2_4 1_555 1_555
C16_4 C15_4 1_555 1_555
H7_4 C16_4 1_555 1_555
O11_2 C21_4 1_555 1_555
O12_2 C21_4 1_555 1_555
H8_4 C17_4 1_555 1_555
C18_4 C17_4 1_555 1_555
C19_4 C18_4 1_555 1_555
H9_4 C19_4 1_555 1_555
C21_4 C18_4 1_555 1_555
C4_4 C3_4 1_555 1_555
H2_4 C4_4 1_555 1_555
C5_4 C4_4 1_555 1_555
H10_4 C20_4 1_555 1_555
C22_4 C5_4 1_555 1_555
C23_4 C22_4 1_555 1_555
H11_4 C23_4 1_555 1_555
C24_4 C23_4 1_555 1_555
H12_4 C24_4 1_555 1_555
C25_4 C24_4 1_555 1_555
C26_4 C25_4 1_555 1_555
H13_4 C26_4 1_555 1_555
C27_4 C22_4 1_555 1_555
H14_4 C27_4 1_555 1_555
C26_4 C27_4 1_555 1_555

#END
