
###############################################################################
#
# This file contains modified crystal structure data generated from the
# MOF subset of the Cambridge Structural Database (CSD) v543 
# hosted by the Cambridge Crystallographic Data Centre (CCDC).
#
# This work is licensed under the Creative Commons
# Attribution-NonCommercial-ShareAlike 4.0 International License.
# To view a copy of this license, visit
# http://creativecommons.org/licenses/by-nc-sa/4.0/
# or send a letter to
# Creative Commons, PO Box 1866, Mountain View, CA 94042, USA.
#
# CIF created using the CSD Python API on 29 September 2022
# The structure has been converted into the P1 space group
# The structure has a 3D framework
# The original CSD entry REGJIW is in the monoclinic crystal system
# The framework has been calculated to contain at least 10.0% void space
# The void calculation uses a probe of radius 1.32A, grid spacing 0.4
# H atom positions have been added when not included in the experimental data
# Generated hydrogen atom positions removed from atoms on special positions
#
###############################################################################

data_REGJIW
_chemical_formula_moiety         '(C16 H10 Co7 O20)n'
_symmetry_cell_setting           triclinic
_symmetry_space_group_name_H-M   'P 1'
_symmetry_Int_Tables_number      1
_space_group_name_Hall           'P 1'
loop_
_symmetry_equiv_pos_site_id
_symmetry_equiv_pos_as_xyz
1 x,y,z
_cell_length_a                   9.3299(10)
_cell_length_b                   12.8650(10)
_cell_length_c                   5.5060(10)
_cell_angle_alpha                90
_cell_angle_beta                 90.38(2)
_cell_angle_gamma                90
_cell_volume                     660.866
loop_
_atom_site_label
_atom_site_type_symbol
_atom_site_fract_x
_atom_site_fract_y
_atom_site_fract_z
Co6 Co -0.0000 0.0000 0.5000
O19 O 0.1014(3) -0.0000 0.8247(5)
H4 H 0.1787(58) 0.0000 0.8358(87)
H6 H 0.0650729 0.06633 0.892972
Co7 Co -0.0000 0.87945(4) 0.0000
Co11 Co 0.0000 0.12055(4) 0.0000
Co6_2 Co -0.0000 1.0000 0.5000
Co7_2 Co -0.0000 0.87945(4) 1.0000
Co11_2 Co 0.0000 0.12055(4) 1.0000
O17 O 0.1309(2) 0.88765(15) 0.3286(4)
O16 O 0.1196(2) 0.7628(2) 0.8491(3)
O19_2 O 0.1014(3) 1.0000 0.8247(5)
H4_2 H 0.1787(58) 1.0000 0.8358(87)
Co6_3 Co 1.0000 0.0000 0.5000
O20 O 0.8986(3) -0.0000 0.1753(5)
H5 H 0.8213(58) -0.0000 0.1642(87)
Co2 Co 0.5000 0.62055(4) 0.0000
O13 O 0.3804(2) 0.7372(2) 0.1509(3)
O14 O 0.6309(2) 0.61235(15) 0.3286(4)
O15 O 0.3986(3) 0.5000 0.1753(5)
Co5 Co 0.5000 0.37945(4) 0.0000
Co7_3 Co 1.0000 0.87945(4) 0.0000
Co11_3 Co 1.0000 0.12055(4) 0.0000
Co1 Co 0.5000 0.5000 0.5000
Co2_2 Co 0.5000 0.62055(4) 1.0000
O1 O 0.6196(2) 0.7372(2) 0.8491(3)
O3 O 0.6014(3) 0.5000 0.8247(5)
C1 C 0.6906(3) 0.7423(2) 0.6583(5)
C2 C 0.6960(3) 0.6883(2) 0.4250(5)
C3 C 0.8094(3) 0.7577(2) 0.3417(5)
O4 O 0.8804(2) 0.7628(2) 0.1509(3)
C4 C 0.8040(3) 0.8117(2) 0.5750(5)
O5 O 0.8691(2) 0.88765(15) 0.6714(4)
O6 O 0.6196(2) 0.2628(2) 0.8491(3)
O7 O 0.6309(2) 0.38765(15) 0.3286(4)
C5 C 0.6906(3) 0.2577(2) 0.6583(5)
C6 C 0.6960(3) 0.3117(2) 0.4250(5)
C7 C 0.8094(3) 0.2423(2) 0.3417(5)
O8 O 0.8804(2) 0.2372(2) 0.1509(3)
C8 C 0.8040(3) 0.1883(2) 0.5750(5)
O9 O 0.8691(2) 0.11235(15) 0.6714(4)
O11 O 0.3691(2) 0.38765(15) 0.6714(4)
O12 O 0.3691(2) 0.61235(15) 0.6714(4)
Co5_2 Co 0.5000 0.37945(4) 1.0000
Co6_4 Co 1.0000 1.0000 0.5000
Co7_4 Co 1.0000 0.87945(4) 1.0000
Co11_4 Co 1.0000 0.12055(4) 1.0000
O20_2 O 0.8986(3) 1.0000 0.1753(5)
H5_2 H 0.8213(58) 1.0000 0.1642(87)
O14_2 O 0.1309(2) 0.11235(15) 0.3286(4)
O1_2 O 0.1196(2) 0.2372(2) 0.8491(3)
C1_2 C 0.1906(3) 0.2423(2) 0.6583(5)
C2_2 C 0.1960(3) 0.1883(2) 0.4250(5)
C3_2 C 0.3094(3) 0.2577(2) 0.3417(5)
O4_2 O 0.3804(2) 0.2628(2) 0.1509(3)
C4_2 C 0.3040(3) 0.3117(2) 0.5750(5)
C5_2 C 0.1906(3) 0.7577(2) 0.6583(5)
C6_2 C 0.1960(3) 0.8117(2) 0.4250(5)
C7_2 C 0.3094(3) 0.7423(2) 0.3417(5)
C8_2 C 0.3040(3) 0.6883(2) 0.5750(5)
H6_2 H 0.934927 0.06633 0.107028
H6_3 H 0.934927 0.93367 0.107028
H6_4 H 0.0650729 0.93367 0.892972
loop_
_geom_bond_atom_site_label_1
_geom_bond_atom_site_label_2
_geom_bond_site_symmetry_1
_geom_bond_site_symmetry_2
H4 O19 1_555 1_555
O19 H6 1_555 1_555
O17 Co7 1_555 1_555
Co6_2 O17 1_555 1_555
Co7_2 O16 1_555 1_555
O19_2 Co7_2 1_555 1_555
H4_2 O19_2 1_555 1_555
H5 O20 1_555 1_555
Co6_3 O20 1_555 1_555
O13 Co2 1_555 1_555
O14 Co2 1_555 1_555
O15 Co2 1_555 1_555
O15 Co5 1_555 1_555
Co1 O14 1_555 1_555
Co2_2 O1 1_555 1_555
O1 C1 1_555 1_555
O14 C2 1_555 1_555
O3 Co1 1_555 1_555
C1 C2 1_555 1_555
C2 C3 1_555 1_555
C3 O4 1_555 1_555
O4 Co7_3 1_555 1_555
C4 C1 1_555 1_555
O5 C4 1_555 1_555
O6 C5 1_555 1_555
O7 Co1 1_555 1_555
C5 C6 1_555 1_555
C6 O7 1_555 1_555
C7 C6 1_555 1_555
O8 C7 1_555 1_555
C8 C5 1_555 1_555
O9 C8 1_555 1_555
O15 Co1 1_555 1_555
O11 Co1 1_555 1_555
O12 Co1 1_555 1_555
Co5_2 O3 1_555 1_555
Co6_4 O5 1_555 1_555
Co7_4 O5 1_555 1_555
Co5 O7 1_555 1_555
Co11_3 O8 1_555 1_555
Co6_3 O9 1_555 1_555
Co11_4 O9 1_555 1_555
O20_2 Co7_3 1_555 1_555
H5_2 O20_2 1_555 1_555
Co2_2 O3 1_555 1_555
Co2_2 O12 1_555 1_555
C3 C4 1_555 1_555
O6 Co5_2 1_555 1_555
C7 C8 1_555 1_555
O11 Co5_2 1_555 1_555
Co6_4 O20_2 1_555 1_555
O14_2 Co11 1_555 1_555
Co6 O14_2 1_555 1_555
Co11_2 O1_2 1_555 1_555
O1_2 C1_2 1_555 1_555
O14_2 C2_2 1_555 1_555
O19 Co6 1_555 1_555
C1_2 C2_2 1_555 1_555
C2_2 C3_2 1_555 1_555
C3_2 O4_2 1_555 1_555
O4_2 Co5 1_555 1_555
C4_2 C1_2 1_555 1_555
O11 C4_2 1_555 1_555
Co11_2 O19 1_555 1_555
C3_2 C4_2 1_555 1_555
O19_2 Co6_2 1_555 1_555
O16 C5_2 1_555 1_555
C5_2 C6_2 1_555 1_555
C6_2 O17 1_555 1_555
C7_2 C6_2 1_555 1_555
O13 C7_2 1_555 1_555
C8_2 C5_2 1_555 1_555
O12 C8_2 1_555 1_555
C7_2 C8_2 1_555 1_555
O20 Co11_3 1_555 1_555
O20 H6_2 1_555 1_555
O20_2 H6_3 1_555 1_555
O19_2 H6_4 1_555 1_555

#END
