
###############################################################################
#
# This file contains modified crystal structure data generated from the
# MOF subset of the Cambridge Structural Database (CSD) v543 
# hosted by the Cambridge Crystallographic Data Centre (CCDC).
#
# This work is licensed under the Creative Commons
# Attribution-NonCommercial-ShareAlike 4.0 International License.
# To view a copy of this license, visit
# http://creativecommons.org/licenses/by-nc-sa/4.0/
# or send a letter to
# Creative Commons, PO Box 1866, Mountain View, CA 94042, USA.
#
# CIF created using the CSD Python API on 29 September 2022
# The structure has been converted into the P1 space group
# The structure has a 3D framework
# The original CSD entry REGLUM is in the monoclinic crystal system
# The original CSD entry REGLUM is in a Sohncke space group
# The framework has been calculated to contain at least 10.0% void space
# The void calculation uses a probe of radius 1.32A, grid spacing 0.4
#
###############################################################################

data_REGLUM
_chemical_formula_moiety         '(C16 H20 Cd4 O24)n'
_symmetry_cell_setting           triclinic
_symmetry_space_group_name_H-M   'P 1'
_symmetry_Int_Tables_number      1
_space_group_name_Hall           'P 1'
loop_
_symmetry_equiv_pos_site_id
_symmetry_equiv_pos_as_xyz
1 x,y,z
_cell_length_a                   7.6393(8)
_cell_length_b                   11.5121(12)
_cell_length_c                   9.0174(10)
_cell_angle_alpha                90
_cell_angle_beta                 99.3050(10)
_cell_angle_gamma                90
_cell_volume                     782.595
loop_
_atom_site_label
_atom_site_type_symbol
_atom_site_fract_x
_atom_site_fract_y
_atom_site_fract_z
Cd1 Cd 0.26647(3) 0.654884(19) 0.26233(2)
Cd2 Cd 0.13979(3) 0.16122(2) 0.28817(2)
O1 O 0.3659(3) 0.1755(2) 0.4773(3)
O2 O 0.5232(4) 0.2841(2) 0.6527(3)
O3 O 0.1125(4) 0.3381(3) 0.4149(3)
H1 H 0.035(4) 0.300(4) 0.434(3)
O4 O 0.3956(4) 0.4985(3) 0.4277(3)
H2 H 0.372(6) 0.451(3) 0.366(3)
C1 C 0.3888(5) 0.2643(3) 0.5580(4)
C2 C 0.2405(5) 0.3542(3) 0.5492(4)
H3 H 0.1801 0.3434 0.6362
C3 C 0.3070(5) 0.4774(3) 0.5511(4)
H4 H 0.3930 0.4880 0.6432
C4 C 0.1561(5) 0.5632(3) 0.5551(4)
O5 O 0.1189(4) 0.6387(3) 0.4568(3)
O6 O 0.0751(4) 0.5502(3) 0.6637(3)
O9 O 0.2920(3) 0.2781(2) 0.1439(3)
H5 H 0.394(2) 0.282(4) 0.154(5)
O10 O 0.1185(4) 0.4883(2) 0.1374(3)
H6 H 0.062(6) 0.543(3) 0.139(6)
O11 O 0.4291(3) 0.5879(2) 0.0993(3)
C6 C 0.2036(4) 0.3195(3) 0.0038(4)
C7 C 0.1935(5) 0.4530(3) 0.0094(4)
C8 C 0.3748(5) 0.5068(3) 0.0072(4)
O13 O 0.2419(4) 0.0036(3) 0.1857(5)
H9 H 0.332(5) 0.009(6) 0.158(8)
Cd4 Cd 0.73353(3) 0.154884(19) 0.73767(2)
O14 O 0.4768(4) 0.7841(2) 0.3473(3)
O16 O 0.0652(4) 0.7869(2) 0.1608(3)
O7 O 0.9586(3) 0.2123(2) 0.0690(3)
Cd5 Cd 0.86021(3) 0.66122(2) 0.71183(2)
O15 O 0.9249(4) 0.0502(3) 0.3363(3)
O8 O 0.9348(4) 0.2869(2) 0.8392(3)
O7_2 O 0.0414(3) 0.7123(2) 0.9310(3)
C4_2 C 0.8439(5) 0.0632(3) 0.4449(4)
O5_2 O 0.8811(4) 0.1387(3) 0.5432(3)
H6_2 H 0.938(6) 0.043(3) 0.861(6)
O11_2 O 0.5709(3) 0.0879(2) 0.9007(3)
C8_2 C 0.6252(5) 0.0068(3) 0.9928(4)
O1_2 O 0.6341(3) 0.6755(2) 0.5227(3)
O3_2 O 0.8875(4) 0.8381(3) 0.5851(3)
H1_2 H 0.965(4) 0.800(4) 0.566(3)
O4_2 O 0.6044(4) 0.9985(3) 0.5723(3)
H2_2 H 0.628(6) 0.951(3) 0.634(3)
C1_2 C 0.6112(5) 0.7643(3) 0.4420(4)
C2_2 C 0.7595(5) 0.8542(3) 0.4508(4)
H3_2 H 0.8199 0.8434 0.3638
C3_2 C 0.6930(5) 0.9774(3) 0.4489(4)
H4_2 H 0.6070 0.9880 0.3568
O9_2 O 0.7080(3) 0.7781(2) 0.8561(3)
H5_2 H 0.606(2) 0.782(4) 0.846(5)
O10_2 O 0.8815(4) 0.9883(2) 0.8626(3)
C6_2 C 0.7964(4) 0.8195(3) 0.9962(4)
C7_2 C 0.8065(5) 0.9530(3) 0.9906(4)
O13_2 O 0.7581(4) 0.5036(3) 0.8143(5)
H9_2 H 0.668(5) 0.509(6) 0.842(8)
H10 H 0.805(7) 0.444(3) 0.818(7)
O12 O 0.4599(4) 0.4665(3) 0.9148(3)
C5 C 0.0190(5) 0.2669(3) 0.9704(4)
H7 H 0.2709 0.2966 0.9248
H8 H 0.1140 0.4792 0.9193
H10_2 H 0.195(7) 0.944(3) 0.182(7)
O12_2 O 0.5401(4) 0.9665(3) 0.0852(3)
C5_2 C 0.9810(5) 0.7669(3) 0.0296(4)
H7_2 H 0.7291 0.7966 0.0752
H8_2 H 0.8860 0.9792 0.0807
loop_
_geom_bond_atom_site_label_1
_geom_bond_atom_site_label_2
_geom_bond_site_symmetry_1
_geom_bond_site_symmetry_2
Cd1 O4 1_555 1_555
Cd2 O1 1_555 1_555
O1 C1 1_555 1_555
O2 C1 1_555 1_555
O3 Cd2 1_555 1_555
H1 O3 1_555 1_555
O4 H2 1_555 1_555
C1 C2 1_555 1_555
C2 O3 1_555 1_555
H3 C2 1_555 1_555
C3 O4 1_555 1_555
H4 C3 1_555 1_555
C4 C3 1_555 1_555
O5 Cd1 1_555 1_555
O6 C4 1_555 1_555
O9 Cd2 1_555 1_555
H5 O9 1_555 1_555
O10 Cd1 1_555 1_555
H6 O10 1_555 1_555
O11 Cd1 1_555 1_555
C6 O9 1_555 1_555
C7 O10 1_555 1_555
C8 O11 1_555 1_555
O13 Cd2 1_555 1_555
H9 O13 1_555 1_555
Cd4 O2 1_555 1_555
O14 Cd1 1_555 1_555
O16 Cd1 1_555 1_555
C2 C3 1_555 1_555
C4 O5 1_555 1_555
C6 C7 1_555 1_555
C7 C8 1_555 1_555
Cd4 O8 1_555 1_555
O5_2 Cd4 1_555 1_555
O15 C4_2 1_555 1_555
O11_2 Cd4 1_555 1_555
C8_2 O11_2 1_555 1_555
C4_2 O5_2 1_555 1_555
Cd5 O1_2 1_555 1_555
O1_2 C1_2 1_555 1_555
O14 C1_2 1_555 1_555
O3_2 Cd5 1_555 1_555
H1_2 O3_2 1_555 1_555
O4_2 H2_2 1_555 1_555
C1_2 C2_2 1_555 1_555
C2_2 O3_2 1_555 1_555
H3_2 C2_2 1_555 1_555
C3_2 O4_2 1_555 1_555
H4_2 C3_2 1_555 1_555
O9_2 Cd5 1_555 1_555
H5_2 O9_2 1_555 1_555
C6_2 O9_2 1_555 1_555
C7_2 O10_2 1_555 1_555
O13_2 Cd5 1_555 1_555
H9_2 O13_2 1_555 1_555
H10 O13_2 1_555 1_555
C2_2 C3_2 1_555 1_555
C6_2 C7_2 1_555 1_555

#END
