
###############################################################################
#
# This file contains modified crystal structure data generated from the
# MOF subset of the Cambridge Structural Database (CSD) v543 
# hosted by the Cambridge Crystallographic Data Centre (CCDC).
#
# This work is licensed under the Creative Commons
# Attribution-NonCommercial-ShareAlike 4.0 International License.
# To view a copy of this license, visit
# http://creativecommons.org/licenses/by-nc-sa/4.0/
# or send a letter to
# Creative Commons, PO Box 1866, Mountain View, CA 94042, USA.
#
# CIF created using the CSD Python API on 29 September 2022
# The structure has been converted into the P1 space group
# The structure has a 3D framework
# The original CSD entry REGREC is in the monoclinic crystal system
# The framework has been calculated to contain at least 10.0% void space
# The void calculation uses a probe of radius 1.32A, grid spacing 0.4
# H atom positions have been added when not included in the experimental data
#
###############################################################################

data_REGREC
_chemical_formula_moiety         '(C72 H48 O58 Zn12)n'
_symmetry_cell_setting           triclinic
_symmetry_space_group_name_H-M   'P 1'
_symmetry_Int_Tables_number      1
_space_group_name_Hall           'P 1'
loop_
_symmetry_equiv_pos_site_id
_symmetry_equiv_pos_as_xyz
1 x,y,z
_cell_length_a                   12.906(4)
_cell_length_b                   12.606(4)
_cell_length_c                   27.737(9)
_cell_angle_alpha                90
_cell_angle_beta                 92.970(7)
_cell_angle_gamma                90
_cell_volume                     4506.56
loop_
_atom_site_label
_atom_site_type_symbol
_atom_site_fract_x
_atom_site_fract_y
_atom_site_fract_z
Zn1 Zn 0.10238(4) 0.04485(4) 0.134329(18)
Zn3 Zn 0.57186(4) 0.57721(4) 0.026080(18)
O1 O 0.1070(3) 0.2597(4) 0.20054(16)
O2 O 0.1777(3) 0.1785(3) 0.13845(14)
O3 O 0.5112(3) 0.5210(3) 0.08643(13)
O4 O 0.4070(3) 0.4059(3) 0.04618(13)
O5 O 0.3716(3) 0.4828(3) 0.29944(13)
O6 O 0.4732(3) 0.5809(3) 0.25515(14)
O7 O 0.1165(5) 0.0441(4) 0.04607(19)
O14 O 0.6771(3) 0.6794(3) 0.05280(14)
C1 C 0.2630(4) 0.3261(4) 0.17236(16)
C2 C 0.3147(4) 0.3466(4) 0.13018(17)
H1 H 0.2965 0.3084 0.1015
C3 C 0.3923(4) 0.4227(4) 0.13014(16)
C4 C 0.4213(4) 0.4756(4) 0.17288(17)
H2 H 0.4742 0.5280 0.1730
C5 C 0.3736(4) 0.4522(4) 0.21517(17)
C6 C 0.2920(4) 0.3799(4) 0.21425(16)
H3 H 0.2559 0.3676 0.2427
C7 C 0.1754(4) 0.2497(4) 0.17097(18)
C8 C 0.4407(4) 0.4511(4) 0.08407(17)
C9 C 0.4094(4) 0.5094(4) 0.26053(16)
Zn4 Zn 0.39762(4) 0.54485(4) 0.365671(18)
Zn6 Zn 0.54182(4) 0.70078(4) 0.290187(19)
O18 O 0.0268(3) 0.0809(3) 0.24485(14)
O21 O 0.4407(3) 0.6714(3) 0.01726(15)
O22 O 0.6602(3) 0.4408(3) 0.02601(15)
H7 H 0.728553 0.641307 0.0742969
H8 H 0.71303 0.713009 0.0259243
Zn8 Zn 0.42814(4) 0.42279(4) 0.973920(18)
O16 O 0.5930(3) 0.5941(3) 0.95382(13)
O8 O 0.1678(4) 0.9258(4) 0.09865(15)
C10 C 0.1848(4) 0.8820(4) 0.01644(18)
C15 C 0.2588(4) 0.8037(4) 0.02342(17)
H6 H 0.2966 0.7984 0.0536
C16 C 0.1569(4) 0.9551(5) 0.0563(2)
O17 O 0.1284(3) 0.9828(3) 0.20056(13)
O9 O 0.1016(3) 0.7663(3) 0.85541(13)
O10 O 0.0463(3) 0.9251(3) 0.87759(15)
O12 O 0.3398(3) 0.5592(3) 0.97399(15)
C11 C 0.1348(4) 0.8946(4) 0.97167(18)
H4 H 0.0873 0.9515 0.9664
C12 C 0.1531(4) 0.8249(4) 0.93418(17)
C13 C 0.2232(4) 0.7418(4) 0.94179(17)
H5 H 0.2333 0.6919 0.9168
C14 C 0.2789(4) 0.7317(4) 0.98638(17)
C17 C 0.0957(4) 0.8391(4) 0.88563(17)
C18 C 0.3602(4) 0.6455(4) 0.99305(17)
Zn7 Zn 0.04182(4) 0.79922(4) 0.790187(19)
Zn2 Zn 0.95818(4) 0.20078(4) 0.209813(19)
O13 O 0.9359(5) 0.3270(5) 0.2504(2)
O15 O 0.8200(4) 0.1303(5) 0.2292(2)
O19 O 0.8984(3) 0.2337(3) 0.14459(13)
O20 O 0.9537(3) 0.0749(3) 0.12241(15)
H9 H 0.944301 0.392243 0.230925
H10 H 0.864761 0.324897 0.262398
H11 H 0.801886 0.156699 0.261427
H12 H 0.763537 0.148594 0.204944
Zn5 Zn 0.89762(4) 0.95515(4) 0.865671(18)
H2_2 H 0.0258 0.0280 0.3270
C9_2 C 0.0906(4) 0.0094(4) 0.23947(16)
O21_2 O 0.0593(3) 0.1714(3) 0.48274(15)
O1_2 O 0.3930(3) 0.7597(4) 0.29946(16)
O2_2 O 0.3223(3) 0.6785(3) 0.36155(14)
O4_2 O 0.0930(3) 0.9059(3) 0.45382(13)
O7_2 O 0.3835(5) 0.5441(4) 0.45393(19)
O8_2 O 0.3322(4) 0.4258(4) 0.40135(15)
O9_2 O 0.3984(3) 0.2663(3) 0.64459(13)
O10_2 O 0.4537(3) 0.4251(3) 0.62241(15)
O12_2 O 0.1602(3) 0.0592(3) 0.52601(15)
O13_2 O 0.5641(5) 0.8270(5) 0.2496(2)
O15_2 O 0.6800(4) 0.6303(5) 0.2708(2)
C1_2 C 0.2370(4) 0.8261(4) 0.32764(16)
C2_2 C 0.1853(4) 0.8466(4) 0.36982(17)
H1_2 H 0.2035 0.8084 0.3985
C3_2 C 0.1077(4) 0.9227(4) 0.36986(16)
C4_2 C 0.0787(4) 0.9756(4) 0.32712(17)
C5_2 C 0.1264(4) 0.9522(4) 0.28483(17)
C6_2 C 0.2080(4) 0.8799(4) 0.28575(16)
H3_2 H 0.2441 0.8676 0.2573
C7_2 C 0.3246(4) 0.7497(4) 0.32903(18)
C8_2 C 0.0593(4) 0.9511(4) 0.41593(17)
C10_2 C 0.3152(4) 0.3820(4) 0.48356(18)
C11_2 C 0.3652(4) 0.3946(4) 0.52833(18)
H4_2 H 0.4127 0.4515 0.5336
C12_2 C 0.3469(4) 0.3249(4) 0.56582(17)
C13_2 C 0.2768(4) 0.2418(4) 0.55821(17)
H5_2 H 0.2667 0.1919 0.5832
C14_2 C 0.2211(4) 0.2317(4) 0.51362(17)
C15_2 C 0.2412(4) 0.3037(4) 0.47658(17)
H6_2 H 0.2034 0.2984 0.4464
C16_2 C 0.3431(4) 0.4551(5) 0.4437(2)
C17_2 C 0.4043(4) 0.3391(4) 0.61437(17)
C18_2 C 0.1398(4) 0.1455(4) 0.50695(17)
Zn5_2 Zn 0.60238(4) 0.45515(4) 0.634329(18)
Zn7_2 Zn 0.45818(4) 0.29922(4) 0.709813(19)
Zn8_2 Zn 0.07186(4) 0.92279(4) 0.526080(18)
O19_2 O 0.6016(3) 0.7337(3) 0.35541(13)
O20_2 O 0.5463(3) 0.5749(3) 0.37759(15)
H9_2 H 0.555699 0.892243 0.269075
H10_2 H 0.635239 0.824897 0.237602
H11_2 H 0.698114 0.656699 0.238573
H12_2 H 0.736463 0.648594 0.295056
Zn3_2 Zn 0.92814(4) 0.07721(4) 0.473920(18)
O3_2 O 0.9888(3) 0.0210(3) 0.41357(13)
O14_2 O 0.8229(3) 0.1794(3) 0.44720(14)
O16_2 O 0.9070(3) 0.0941(3) 0.54618(13)
H7_2 H 0.771447 0.141307 0.425703
H8_2 H 0.78697 0.213009 0.474076
O22_2 O 0.8398(3) 0.9408(3) 0.47399(15)
O13_3 O 0.0641(5) 0.6730(5) 0.7496(2)
O15_3 O 0.1800(4) 0.8697(5) 0.7708(2)
H9_3 H 0.055699 0.607757 0.769075
H10_3 H 0.135239 0.675103 0.737602
H11_3 H 0.198114 0.843301 0.738573
H12_3 H 0.236463 0.851406 0.795056
C11_3 C 0.8652(4) 0.1054(4) 0.02833(18)
H4_3 H 0.9127 0.0485 0.0336
C12_3 C 0.8469(4) 0.1751(4) 0.06582(17)
C13_3 C 0.7768(4) 0.2582(4) 0.05821(17)
H5_3 H 0.7667 0.3081 0.0832
C14_3 C 0.7211(4) 0.2683(4) 0.01362(17)
C17_3 C 0.9043(4) 0.1609(4) 0.11437(17)
C18_3 C 0.6398(4) 0.3545(4) 0.00695(17)
O8_3 O 0.8322(4) 0.0742(4) 0.90135(15)
O11 O 0.5593(3) 0.3286(3) 0.98274(15)
C10_3 C 0.8152(4) 0.1180(4) 0.98356(18)
C15_3 C 0.7412(4) 0.1963(4) 0.97658(17)
H6_3 H 0.7034 0.2016 0.9464
C16_3 C 0.8431(4) 0.0449(5) 0.9437(2)
O17_2 O 0.8716(3) 0.0172(3) 0.79944(13)
O1_3 O 0.8930(3) 0.7403(4) 0.79946(16)
O2_3 O 0.8223(3) 0.8215(3) 0.86155(14)
O3_3 O 0.4888(3) 0.4790(3) 0.91357(13)
O5_2 O 0.6284(3) 0.5172(3) 0.70056(13)
O6_2 O 0.5268(3) 0.4191(3) 0.74485(14)
O7_3 O 0.8835(5) 0.9559(4) 0.95393(19)
O14_3 O 0.3229(3) 0.3206(3) 0.94720(14)
C1_3 C 0.7370(4) 0.6739(4) 0.82764(16)
C2_3 C 0.6853(4) 0.6534(4) 0.86982(17)
H1_3 H 0.7035 0.6916 0.8985
C3_3 C 0.6077(4) 0.5773(4) 0.86986(16)
C4_3 C 0.5787(4) 0.5244(4) 0.82712(17)
H2_3 H 0.5258 0.4720 0.8270
C5_3 C 0.6264(4) 0.5478(4) 0.78483(17)
C6_3 C 0.7080(4) 0.6201(4) 0.78575(16)
H3_3 H 0.7441 0.6324 0.7573
C7_3 C 0.8246(4) 0.7503(4) 0.82903(18)
C8_3 C 0.5593(4) 0.5489(4) 0.91593(17)
C9_3 C 0.5906(4) 0.4906(4) 0.73947(16)
O18_2 O 0.9732(3) 0.9191(3) 0.75515(14)
H7_3 H 0.271447 0.358693 0.925703
H8_3 H 0.28697 0.286991 0.974076
O3_4 O 0.0112(3) 0.9790(3) 0.58643(13)
O14_4 O 0.1771(3) 0.8206(3) 0.55280(14)
H7_4 H 0.228553 0.858693 0.574297
H8_4 H 0.21303 0.786991 0.525924
O1_4 O 0.6070(3) 0.2403(4) 0.70054(16)
O2_4 O 0.6777(3) 0.3215(3) 0.63845(14)
O7_4 O 0.6165(5) 0.4559(4) 0.54607(19)
O8_4 O 0.6678(4) 0.5742(4) 0.59865(15)
O11_2 O 0.9407(3) 0.8286(3) 0.51726(15)
O13_4 O 0.4359(5) 0.1730(5) 0.7504(2)
O15_4 O 0.3200(4) 0.3697(5) 0.7292(2)
C1_4 C 0.7630(4) 0.1739(4) 0.67236(16)
C2_4 C 0.8147(4) 0.1534(4) 0.63018(17)
H1_4 H 0.7965 0.1916 0.6015
C3_4 C 0.8923(4) 0.0773(4) 0.63014(16)
C4_4 C 0.9213(4) 0.0244(4) 0.67288(17)
C5_4 C 0.8736(4) 0.0478(4) 0.71517(17)
C6_4 C 0.7920(4) 0.1201(4) 0.71425(16)
H3_4 H 0.7559 0.1324 0.7427
C7_4 C 0.6754(4) 0.2503(4) 0.67097(18)
C8_4 C 0.9407(4) 0.0489(4) 0.58407(17)
C10_4 C 0.6848(4) 0.6180(4) 0.51644(18)
C11_4 C 0.6348(4) 0.6054(4) 0.47167(18)
H4_4 H 0.5873 0.5485 0.4664
C12_4 C 0.6531(4) 0.6751(4) 0.43418(17)
C13_4 C 0.7232(4) 0.7582(4) 0.44179(17)
H5_4 H 0.7333 0.8081 0.4168
C14_4 C 0.7789(4) 0.7683(4) 0.48638(17)
C15_4 C 0.7588(4) 0.6963(4) 0.52342(17)
H6_4 H 0.7966 0.7016 0.5536
C16_4 C 0.6569(4) 0.5449(5) 0.5563(2)
C17_4 C 0.5957(4) 0.6609(4) 0.38563(17)
C18_4 C 0.8602(4) 0.8545(4) 0.49305(17)
H9_4 H 0.444301 0.107757 0.730925
H10_4 H 0.364761 0.175103 0.762398
H11_4 H 0.301886 0.343301 0.761427
H12_4 H 0.263537 0.351406 0.704944
H2_4 H 0.9742 0.9720 0.6730
C9_4 C 0.9094(4) 0.9906(4) 0.76053(16)
loop_
_geom_bond_atom_site_label_1
_geom_bond_atom_site_label_2
_geom_bond_site_symmetry_1
_geom_bond_site_symmetry_2
Zn1 O2 1_555 1_555
Zn3 O3 1_555 1_555
O1 C7 1_555 1_555
O2 C7 1_555 1_555
O3 C8 1_555 1_555
O4 C8 1_555 1_555
O5 C9 1_555 1_555
O6 C9 1_555 1_555
O7 Zn1 1_555 1_555
O14 Zn3 1_555 1_555
C1 C2 1_555 1_555
C2 H1 1_555 1_555
C3 C2 1_555 1_555
C4 C3 1_555 1_555
H2 C4 1_555 1_555
C5 C4 1_555 1_555
C6 C1 1_555 1_555
H3 C6 1_555 1_555
C7 C1 1_555 1_555
C8 C3 1_555 1_555
C9 C5 1_555 1_555
Zn4 O5 1_555 1_555
Zn6 O6 1_555 1_555
O21 Zn3 1_555 1_555
O22 Zn3 1_555 1_555
C5 C6 1_555 1_555
O14 H7 1_555 1_555
O14 H8 1_555 1_555
C15 C10 1_555 1_555
H6 C15 1_555 1_555
O8 C16 1_555 1_555
C10 C16 1_555 1_555
O9 C17 1_555 1_555
O10 C17 1_555 1_555
O12 C18 1_555 1_555
C11 H4 1_555 1_555
C12 C11 1_555 1_555
C13 C12 1_555 1_555
H5 C13 1_555 1_555
C14 C13 1_555 1_555
C17 C12 1_555 1_555
C18 C14 1_555 1_555
Zn7 O9 1_555 1_555
Zn8 O12 1_555 1_555
O13 Zn2 1_555 1_555
O15 Zn2 1_555 1_555
O19 Zn2 1_555 1_555
O13 H9 1_555 1_555
O13 H10 1_555 1_555
O15 H11 1_555 1_555
O15 H12 1_555 1_555
O18 C9_2 1_555 1_555
Zn4 O2_2 1_555 1_555
Zn6 O1_2 1_555 1_555
O1_2 C7_2 1_555 1_555
O2_2 C7_2 1_555 1_555
O4_2 C8_2 1_555 1_555
O7_2 Zn4 1_555 1_555
O8_2 Zn4 1_555 1_555
O9_2 C17_2 1_555 1_555
O10_2 C17_2 1_555 1_555
O21_2 C18_2 1_555 1_555
O12_2 C18_2 1_555 1_555
O13_2 Zn6 1_555 1_555
O15_2 Zn6 1_555 1_555
C1_2 C2_2 1_555 1_555
C2_2 H1_2 1_555 1_555
C3_2 C2_2 1_555 1_555
C4_2 C3_2 1_555 1_555
C5_2 C4_2 1_555 1_555
C6_2 C1_2 1_555 1_555
H3_2 C6_2 1_555 1_555
C7_2 C1_2 1_555 1_555
C8_2 C3_2 1_555 1_555
C10_2 C11_2 1_555 1_555
C11_2 H4_2 1_555 1_555
C12_2 C11_2 1_555 1_555
C13_2 C12_2 1_555 1_555
H5_2 C13_2 1_555 1_555
C14_2 C13_2 1_555 1_555
C15_2 C10_2 1_555 1_555
H6_2 C15_2 1_555 1_555
C16_2 O7_2 1_555 1_555
C17_2 C12_2 1_555 1_555
C18_2 C14_2 1_555 1_555
Zn5_2 O10_2 1_555 1_555
Zn7_2 O9_2 1_555 1_555
Zn8_2 O4_2 1_555 1_555
O19_2 Zn6 1_555 1_555
O20_2 Zn4 1_555 1_555
O8_2 C16_2 1_555 1_555
C5_2 C6_2 1_555 1_555
C10_2 C16_2 1_555 1_555
C14_2 C15_2 1_555 1_555
O13_2 H9_2 1_555 1_555
O13_2 H10_2 1_555 1_555
O15_2 H11_2 1_555 1_555
O15_2 H12_2 1_555 1_555
Zn3_2 O3_2 1_555 1_555
O14_2 Zn3_2 1_555 1_555
O16_2 Zn3_2 1_555 1_555
O14_2 H7_2 1_555 1_555
O14_2 H8_2 1_555 1_555
O13_3 Zn7 1_555 1_555
O15_3 Zn7 1_555 1_555
O13_3 H9_3 1_555 1_555
O13_3 H10_3 1_555 1_555
O15_3 H11_3 1_555 1_555
O15_3 H12_3 1_555 1_555
O19 C17_3 1_555 1_555
O20 C17_3 1_555 1_555
O22 C18_3 1_555 1_555
C11_3 H4_3 1_555 1_555
C12_3 C11_3 1_555 1_555
C13_3 C12_3 1_555 1_555
H5_3 C13_3 1_555 1_555
C14_3 C13_3 1_555 1_555
C17_3 C12_3 1_555 1_555
C18_3 C14_3 1_555 1_555
C15_3 C10_3 1_555 1_555
H6_3 C15_3 1_555 1_555
Zn8 O11 1_555 1_555
O8_3 C16_3 1_555 1_555
C10_3 C16_3 1_555 1_555
Zn5 O2_3 1_555 1_555
Zn8 O3_3 1_555 1_555
O1_3 C7_3 1_555 1_555
O2_3 C7_3 1_555 1_555
O3_3 C8_3 1_555 1_555
O16 C8_3 1_555 1_555
O5_2 C9_3 1_555 1_555
O6_2 C9_3 1_555 1_555
O7_3 Zn5 1_555 1_555
O14_3 Zn8 1_555 1_555
C1_3 C2_3 1_555 1_555
C2_3 H1_3 1_555 1_555
C3_3 C2_3 1_555 1_555
C4_3 C3_3 1_555 1_555
H2_3 C4_3 1_555 1_555
C5_3 C4_3 1_555 1_555
C6_3 C1_3 1_555 1_555
H3_3 C6_3 1_555 1_555
C7_3 C1_3 1_555 1_555
C8_3 C3_3 1_555 1_555
C9_3 C5_3 1_555 1_555
Zn5_2 O5_2 1_555 1_555
Zn7_2 O6_2 1_555 1_555
C5_3 C6_3 1_555 1_555
O14_3 H7_3 1_555 1_555
O14_3 H8_3 1_555 1_555
Zn8_2 O3_4 1_555 1_555
O14_4 Zn8_2 1_555 1_555
O14_4 H7_4 1_555 1_555
O14_4 H8_4 1_555 1_555
Zn5_2 O2_4 1_555 1_555
Zn7_2 O1_4 1_555 1_555
O1_4 C7_4 1_555 1_555
O2_4 C7_4 1_555 1_555
O16_2 C8_4 1_555 1_555
O7_4 Zn5_2 1_555 1_555
O8_4 Zn5_2 1_555 1_555
O19_2 C17_4 1_555 1_555
O20_2 C17_4 1_555 1_555
O11_2 C18_4 1_555 1_555
O22_2 C18_4 1_555 1_555
O13_4 Zn7_2 1_555 1_555
O15_4 Zn7_2 1_555 1_555
C1_4 C2_4 1_555 1_555
C2_4 H1_4 1_555 1_555
C3_4 C2_4 1_555 1_555
C4_4 C3_4 1_555 1_555
C5_4 C4_4 1_555 1_555
C6_4 C1_4 1_555 1_555
H3_4 C6_4 1_555 1_555
C7_4 C1_4 1_555 1_555
C8_4 C3_4 1_555 1_555
C10_4 C11_4 1_555 1_555
C11_4 H4_4 1_555 1_555
C12_4 C11_4 1_555 1_555
C13_4 C12_4 1_555 1_555
H5_4 C13_4 1_555 1_555
C14_4 C13_4 1_555 1_555
C15_4 C10_4 1_555 1_555
H6_4 C15_4 1_555 1_555
C16_4 O7_4 1_555 1_555
C17_4 C12_4 1_555 1_555
C18_4 C14_4 1_555 1_555
O8_4 C16_4 1_555 1_555
C5_4 C6_4 1_555 1_555
C10_4 C16_4 1_555 1_555
C14_4 C15_4 1_555 1_555
O13_4 H9_4 1_555 1_555
O13_4 H10_4 1_555 1_555
O15_4 H11_4 1_555 1_555
O15_4 H12_4 1_555 1_555
O18_2 C9_4 1_555 1_555

#END
