
###############################################################################
#
# This file contains modified crystal structure data generated from the
# MOF subset of the Cambridge Structural Database (CSD) v543 
# hosted by the Cambridge Crystallographic Data Centre (CCDC).
#
# This work is licensed under the Creative Commons
# Attribution-NonCommercial-ShareAlike 4.0 International License.
# To view a copy of this license, visit
# http://creativecommons.org/licenses/by-nc-sa/4.0/
# or send a letter to
# Creative Commons, PO Box 1866, Mountain View, CA 94042, USA.
#
# CIF created using the CSD Python API on 29 September 2022
# The structure has been converted into the P1 space group
# The structure has a 3D framework
# The original CSD entry REJJAV is in the trigonal crystal system
# The framework has been calculated to contain at least 10.0% void space
# The void calculation uses a probe of radius 1.32A, grid spacing 0.4
# The framework is charged, counterions have been retained in the structure
#
###############################################################################

data_REJJAV
_chemical_formula_moiety         '(C12 H12 Co2 Ga3 O16 2-)n'
_symmetry_cell_setting           triclinic
_symmetry_space_group_name_H-M   'P 1'
_symmetry_Int_Tables_number      1
_space_group_name_Hall           'P 1'
loop_
_symmetry_equiv_pos_site_id
_symmetry_equiv_pos_as_xyz
1 x,y,z
_cell_length_a                   8.1947(10)
_cell_length_b                   8.1947(10)
_cell_length_c                   13.460(3)
_cell_angle_alpha                90
_cell_angle_beta                 90
_cell_angle_gamma                120
_cell_volume                     782.784
loop_
_atom_site_label
_atom_site_type_symbol
_atom_site_fract_x
_atom_site_fract_y
_atom_site_fract_z
Ga1 Ga 0.0000 0.0000 0.0000
Ga6 Ga -0.0000 0.0000 0.5000
O13 O 0.2058(2) 0.0151(3) 0.08257(10)
Ga1_2 Ga 0.0000 0.0000 1.0000
O15 O 0.1907(2) 0.2058(2) 0.91743(10)
Ga1_3 Ga 0.0000 1.0000 0.0000
Ga6_2 Ga -0.0000 1.0000 0.5000
Ga1_4 Ga 0.0000 1.0000 1.0000
O17 O 0.0151(3) 0.8093(2) 0.91743(10)
Ga1_5 Ga 1.0000 0.0000 0.0000
O12 O 0.8093(2) 0.0151(3) 0.41743(10)
Ga6_3 Ga 1.0000 0.0000 0.5000
O14 O 0.9849(3) 0.1907(2) 0.08257(10)
Ga1_6 Ga 1.0000 0.0000 1.0000
Co1 Co 0.3333 0.6667 0.2500
Ga1_7 Ga 1.0000 1.0000 0.0000
O1 O 0.5425(2) 0.6576(2) 0.16702(11)
O2 O 0.8093(2) 0.7942(2) 0.08257(10)
C1 C 0.6652(3) 0.7911(3) 0.11850(14)
H1 H 0.6505 0.8952 0.1079
O3 O 0.3424(2) 0.8849(3) 0.16702(11)
C2 C 0.2089(3) 0.8741(4) 0.11850(14)
H2 H 0.1048 0.7553 0.1079
O5 O 0.1151(3) 0.4575(2) 0.16702(11)
C3 C 0.1259(4) 0.3348(3) 0.11850(14)
H3 H 0.2447 0.3495 0.1079
O7 O 0.3424(2) 0.4575(2) 0.33298(11)
O8 O 0.2058(2) 0.1907(2) 0.41743(10)
C4 C 0.2089(3) 0.3348(3) 0.38150(14)
H4 H 0.1048 0.3495 0.3921
O9 O 0.1151(3) 0.6576(2) 0.33298(11)
C5 C 0.1259(4) 0.7911(3) 0.38150(14)
H5 H 0.2447 0.8952 0.3921
O11 O 0.5425(2) 0.8849(3) 0.33298(11)
C6 C 0.6652(3) 0.8741(4) 0.38150(14)
H6 H 0.6505 0.7553 0.3921
Ga6_4 Ga 1.0000 1.0000 0.5000
Ga1_8 Ga 1.0000 1.0000 1.0000
O16 O 0.7942(2) 0.9849(3) 0.91743(10)
O10 O 0.9849(3) 0.7942(2) 0.41743(10)
O16_2 O 0.0151(3) 0.2058(2) 0.58257(10)
O17_2 O 0.1907(2) 0.9849(3) 0.58257(10)
O15_2 O 0.7942(2) 0.8093(2) 0.58257(10)
Co1_2 Co 0.6667 0.3333 0.7500
O1_2 O 0.4575(2) 0.3424(2) 0.83298(11)
C1_2 C 0.3348(3) 0.2089(3) 0.88150(14)
H1_2 H 0.3495 0.1048 0.8921
O3_2 O 0.6576(2) 0.1151(3) 0.83298(11)
C2_2 C 0.7911(3) 0.1259(4) 0.88150(14)
H2_2 H 0.8952 0.2447 0.8921
O5_2 O 0.8849(3) 0.5425(2) 0.83298(11)
C3_2 C 0.8741(4) 0.6652(3) 0.88150(14)
H3_2 H 0.7553 0.6505 0.8921
O7_2 O 0.6576(2) 0.5425(2) 0.66702(11)
C4_2 C 0.7911(3) 0.6652(3) 0.61850(14)
H4_2 H 0.8952 0.6505 0.6079
O9_2 O 0.8849(3) 0.3424(2) 0.66702(11)
C5_2 C 0.8741(4) 0.2089(3) 0.61850(14)
H5_2 H 0.7553 0.1048 0.6079
O11_2 O 0.4575(2) 0.1151(3) 0.66702(11)
C6_2 C 0.3348(3) 0.1259(4) 0.61850(14)
H6_2 H 0.3495 0.2447 0.6079
loop_
_geom_bond_atom_site_label_1
_geom_bond_atom_site_label_2
_geom_bond_site_symmetry_1
_geom_bond_site_symmetry_2
O13 Ga1 1_555 1_555
O15 Ga1_2 1_555 1_555
O17 Ga1_4 1_555 1_555
Ga6_3 O12 1_555 1_555
O14 Ga1_5 1_555 1_555
Co1 O1 1_555 1_555
Ga1_7 O2 1_555 1_555
O1 C1 1_555 1_555
O2 C1 1_555 1_555
C1 H1 1_555 1_555
O3 Co1 1_555 1_555
C2 O3 1_555 1_555
H2 C2 1_555 1_555
O5 Co1 1_555 1_555
C3 O5 1_555 1_555
H3 C3 1_555 1_555
O7 Co1 1_555 1_555
O8 C4 1_555 1_555
C4 O7 1_555 1_555
H4 C4 1_555 1_555
O9 Co1 1_555 1_555
C5 O9 1_555 1_555
H5 C5 1_555 1_555
O11 Co1 1_555 1_555
C6 O11 1_555 1_555
H6 C6 1_555 1_555
Ga6 O8 1_555 1_555
O16 Ga1_8 1_555 1_555
Ga6_4 O10 1_555 1_555
O16_2 Ga6 1_555 1_555
O17_2 Ga6_2 1_555 1_555
O15_2 Ga6_4 1_555 1_555
Co1_2 O1_2 1_555 1_555
O1_2 C1_2 1_555 1_555
O15 C1_2 1_555 1_555
C1_2 H1_2 1_555 1_555
O3_2 Co1_2 1_555 1_555
C2_2 O3_2 1_555 1_555
H2_2 C2_2 1_555 1_555
O5_2 Co1_2 1_555 1_555
C3_2 O5_2 1_555 1_555
H3_2 C3_2 1_555 1_555
O7_2 Co1_2 1_555 1_555
O15_2 C4_2 1_555 1_555
C4_2 O7_2 1_555 1_555
H4_2 C4_2 1_555 1_555
O9_2 Co1_2 1_555 1_555
C5_2 O9_2 1_555 1_555
H5_2 C5_2 1_555 1_555
O11_2 Co1_2 1_555 1_555
C6_2 O11_2 1_555 1_555
H6_2 C6_2 1_555 1_555

#END
