
###############################################################################
#
# This file contains modified crystal structure data generated from the
# MOF subset of the Cambridge Structural Database (CSD) v543 
# hosted by the Cambridge Crystallographic Data Centre (CCDC).
#
# This work is licensed under the Creative Commons
# Attribution-NonCommercial-ShareAlike 4.0 International License.
# To view a copy of this license, visit
# http://creativecommons.org/licenses/by-nc-sa/4.0/
# or send a letter to
# Creative Commons, PO Box 1866, Mountain View, CA 94042, USA.
#
# CIF created using the CSD Python API on 29 September 2022
# The structure has been converted into the P1 space group
# The structure has a 3D framework
# The original CSD entry REJJAV01 is in the trigonal crystal system
# The framework has been calculated to contain at least 10.0% void space
# The void calculation uses a probe of radius 1.32A, grid spacing 0.4
# The framework is charged, counterions have been retained in the structure
#
###############################################################################

data_REJJAV01
_chemical_formula_moiety         '(C12 H12 Co2 Ga3 O17 2-)n'
_symmetry_cell_setting           triclinic
_symmetry_space_group_name_H-M   'P 1'
_symmetry_Int_Tables_number      1
_space_group_name_Hall           'P 1'
loop_
_symmetry_equiv_pos_site_id
_symmetry_equiv_pos_as_xyz
1 x,y,z
_cell_length_a                   8.2139(2)
_cell_length_b                   8.2139(2)
_cell_length_c                   13.5264(5)
_cell_angle_alpha                90
_cell_angle_beta                 90
_cell_angle_gamma                120
_cell_volume                     790.336
loop_
_atom_site_label
_atom_site_type_symbol
_atom_site_fract_x
_atom_site_fract_y
_atom_site_fract_z
Ga5 Ga -0.0000 0.0000 0.0000
Ga4 Ga -0.0000 0.0000 0.5000
Ga5_2 Ga -0.0000 0.0000 1.0000
O3 O 0.2048(3) 0.1920(4) 0.08255(18)
Ga5_3 Ga -0.0000 1.0000 0.0000
O5 O 0.0128(3) 0.2048(3) 0.91745(18)
O15 O 0.0128(3) 0.8080(4) 0.58255(18)
Ga4_2 Ga -0.0000 1.0000 0.5000
Ga5_4 Ga -0.0000 1.0000 1.0000
O7 O 0.1920(4) 0.9872(3) 0.91745(18)
Ga5_5 Ga 1.0000 0.0000 0.0000
Ga4_3 Ga 1.0000 0.0000 0.5000
Ga5_6 Ga 1.0000 0.0000 1.0000
O4 O 0.8080(4) 0.0128(3) 0.08255(18)
Ga5_7 Ga 1.0000 1.0000 0.0000
C1 C 0.8749(5) 0.2092(5) 0.8811(3)
O2 O 0.8833(3) 0.3401(3) 0.83344(19)
H1 H 0.7565 0.1048 0.8911
Co1 Co 0.6667 0.3333 0.7500
O8 O 0.6599(3) 0.1167(3) 0.66656(19)
O9 O 0.4568(4) 0.3401(3) 0.66656(19)
O10 O 0.8833(3) 0.5432(4) 0.66656(19)
O11 O 0.6599(3) 0.5432(4) 0.83344(19)
O12 O 0.4568(4) 0.1167(3) 0.83344(19)
C2 C 0.7908(5) 0.1251(5) 0.6189(3)
C3 C 0.3343(7) 0.2092(5) 0.6189(3)
C4 C 0.8749(5) 0.6657(7) 0.6189(3)
C5 C 0.7908(5) 0.6657(7) 0.8811(3)
C6 C 0.3343(7) 0.1251(5) 0.8811(3)
H2 H 0.8952 0.2435 0.6089
H3 H 0.3483 0.1048 0.6089
O14 O 0.1920(4) 0.2048(3) 0.58255(18)
H4 H 0.7565 0.6517 0.6089
H5 H 0.8952 0.6517 0.8911
O16 O 0.7952(3) 0.8080(4) 0.91745(18)
H6 H 0.3483 0.2435 0.8911
Ga4_4 Ga 1.0000 1.0000 0.5000
Ga5_8 Ga 1.0000 1.0000 1.0000
O1 O 0.9872(3) 0.7952(3) 0.08255(18)
O13 O 0.7952(3) 0.9872(3) 0.58255(18)
O1_2 O 0.2048(3) 0.0128(3) 0.41745(18)
O4_2 O 0.9872(3) 0.1920(4) 0.41745(18)
O3_2 O 0.8080(4) 0.7952(3) 0.41745(18)
C1_2 C 0.1251(5) 0.7908(5) 0.1189(3)
O2_2 O 0.1167(3) 0.6599(3) 0.16656(19)
H1_2 H 0.2435 0.8952 0.1089
Co1_2 Co 0.3333 0.6667 0.2500
O8_2 O 0.3401(3) 0.8833(3) 0.33344(19)
O9_2 O 0.5432(4) 0.6599(3) 0.33344(19)
O10_2 O 0.1167(3) 0.4568(4) 0.33344(19)
O11_2 O 0.3401(3) 0.4568(4) 0.16656(19)
O12_2 O 0.5432(4) 0.8833(3) 0.16656(19)
C2_2 C 0.2092(5) 0.8749(5) 0.3811(3)
C3_2 C 0.6657(7) 0.7908(5) 0.3811(3)
C4_2 C 0.1251(5) 0.3343(7) 0.3811(3)
C5_2 C 0.2092(5) 0.3343(7) 0.1189(3)
C6_2 C 0.6657(7) 0.8749(5) 0.1189(3)
H2_2 H 0.1048 0.7565 0.3911
H3_2 H 0.6517 0.8952 0.3911
H4_2 H 0.2435 0.3483 0.3911
H5_2 H 0.1048 0.3483 0.1089
H6_2 H 0.6517 0.7565 0.1089
loop_
_geom_bond_atom_site_label_1
_geom_bond_atom_site_label_2
_geom_bond_site_symmetry_1
_geom_bond_site_symmetry_2
O3 Ga5 1_555 1_555
O5 Ga5_2 1_555 1_555
Ga4_2 O15 1_555 1_555
O7 Ga5_4 1_555 1_555
O4 Ga5_5 1_555 1_555
C1 O2 1_555 1_555
O2 Co1 1_555 1_555
H1 C1 1_555 1_555
Co1 O8 1_555 1_555
O8 C2 1_555 1_555
O9 Co1 1_555 1_555
O10 Co1 1_555 1_555
O11 Co1 1_555 1_555
O12 Co1 1_555 1_555
C2 H2 1_555 1_555
C3 O9 1_555 1_555
C4 O10 1_555 1_555
C5 O11 1_555 1_555
C6 O12 1_555 1_555
H3 C3 1_555 1_555
O14 C3 1_555 1_555
H4 C4 1_555 1_555
H5 C5 1_555 1_555
O16 C5 1_555 1_555
H6 C6 1_555 1_555
Ga4 O14 1_555 1_555
Ga5_8 O16 1_555 1_555
Ga5_7 O1 1_555 1_555
Ga4_4 O13 1_555 1_555
Ga4 O1_2 1_555 1_555
O4_2 Ga4_3 1_555 1_555
O3_2 Ga4_4 1_555 1_555
C1_2 O2_2 1_555 1_555
O2_2 Co1_2 1_555 1_555
H1_2 C1_2 1_555 1_555
Co1_2 O8_2 1_555 1_555
O8_2 C2_2 1_555 1_555
O9_2 Co1_2 1_555 1_555
O10_2 Co1_2 1_555 1_555
O11_2 Co1_2 1_555 1_555
O12_2 Co1_2 1_555 1_555
C2_2 H2_2 1_555 1_555
C3_2 O9_2 1_555 1_555
C4_2 O10_2 1_555 1_555
C5_2 O11_2 1_555 1_555
C6_2 O12_2 1_555 1_555
H3_2 C3_2 1_555 1_555
O3_2 C3_2 1_555 1_555
H4_2 C4_2 1_555 1_555
H5_2 C5_2 1_555 1_555
O3 C5_2 1_555 1_555
H6_2 C6_2 1_555 1_555

#END
