
###############################################################################
#
# This file contains modified crystal structure data generated from the
# MOF subset of the Cambridge Structural Database (CSD) v543 
# hosted by the Cambridge Crystallographic Data Centre (CCDC).
#
# This work is licensed under the Creative Commons
# Attribution-NonCommercial-ShareAlike 4.0 International License.
# To view a copy of this license, visit
# http://creativecommons.org/licenses/by-nc-sa/4.0/
# or send a letter to
# Creative Commons, PO Box 1866, Mountain View, CA 94042, USA.
#
# CIF created using the CSD Python API on 29 September 2022
# The structure has been converted into the P1 space group
# The structure has a 3D framework
# The original CSD entry REJVOS is in the monoclinic crystal system
# The framework has been calculated to contain at least 10.0% void space
# The void calculation uses a probe of radius 1.32A, grid spacing 0.4
#
###############################################################################

data_REJVOS
_chemical_formula_moiety         '(C24 H24 Mg19 O48)n'
_symmetry_cell_setting           triclinic
_symmetry_space_group_name_H-M   'P 1'
_symmetry_Int_Tables_number      1
_space_group_name_Hall           'P 1'
loop_
_symmetry_equiv_pos_site_id
_symmetry_equiv_pos_as_xyz
1 x,y,z
_cell_length_a                   11.3070(18)
_cell_length_b                   9.8568(15)
_cell_length_c                   14.729(3)
_cell_angle_alpha                90
_cell_angle_beta                 91.371(3)
_cell_angle_gamma                90
_cell_volume                     1641.09
loop_
_atom_site_label
_atom_site_type_symbol
_atom_site_fract_x
_atom_site_fract_y
_atom_site_fract_z
Mg14 Mg 0.0000 0.0000 0.0000
Mg11 Mg 0.26038(4) 0.11430(4) 0.69267(3)
Mg14_2 Mg 0.0000 0.0000 1.0000
Mg14_3 Mg -0.0000 1.0000 0.0000
Mg1 Mg 0.25643(4) 0.42238(4) 0.63538(3)
Mg2 Mg 0.0000 0.5000 0.5000
Mg3 Mg 0.23962(4) 0.61430(4) 0.80733(3)
Mg4 Mg 0.5000 0.5000 0.5000
O1 O 0.13015(8) 0.51075(9) 0.71702(7)
O3 O 0.15782(8) 0.24490(9) 0.61275(6)
O4 O 0.01602(9) 0.29304(10) 0.50924(7)
O5 O 0.40111(8) 0.34989(9) 0.56621(7)
O6 O 0.39508(9) 0.12974(10) 0.60465(7)
O7 O 0.30544(8) 0.30266(9) 0.74792(6)
O8 O 0.30662(9) 0.44481(10) 0.86649(7)
O9 O 0.18369(8) 0.52432(10) 0.52529(6)
O10 O 0.34933(9) 0.60166(10) 0.46318(7)
O11 O 0.35044(8) 0.58228(9) 0.69620(7)
O12 O 0.51437(9) 0.61362(11) 0.61663(7)
C1 C 0.01887(12) 0.52673(14) 0.70672(9)
C2 C 0.07405(12) 0.21269(13) 0.55670(9)
H2 H 0.0554 0.1211 0.5513
C3 C 0.43735(12) 0.22700(13) 0.56311(9)
H3 H 0.5012 0.2091 0.5263
C4 C 0.32302(12) 0.33222(13) 0.83154(9)
H4 H 0.3506 0.2632 0.8696
C5 C 0.24105(11) 0.59725(13) 0.46940(9)
H5 H 0.1968 0.6519 0.4299
C6 C 0.45121(12) 0.63634(14) 0.68196(9)
H6 H 0.4793 0.6985 0.7248
Mg6 Mg 0.24357(4) 0.92238(4) 0.86462(3)
Mg7 Mg 0.74357(4) 0.57762(4) 0.36462(3)
Mg12 Mg 0.76038(4) 0.38570(4) 0.19267(3)
Mg14_4 Mg 0.0000 1.0000 1.0000
O14 O 0.03874(9) 0.48884(11) 0.36478(7)
O16 O 0.34218(8) 0.74490(9) 0.88725(6)
O19 O 0.09889(8) 0.84989(9) 0.93379(7)
O20 O 0.59889(8) 0.65011(9) 0.43379(7)
O22 O 0.10492(9) 0.62974(10) 0.89535(7)
O24 O 0.19456(8) 0.80266(9) 0.75208(6)
O27 O 0.19338(9) 0.94481(10) 0.63351(7)
O31 O 0.65067(9) 0.39834(10) 0.53682(7)
O32 O 0.64956(8) 0.41772(9) 0.30380(7)
O34 O 0.48563(9) 0.38638(11) 0.38337(7)
H7 H 0.0227 0.4476 0.2424
C9 C 0.06265(12) 0.72700(13) 0.93689(9)
C10 C 0.17698(12) 0.83222(13) 0.66846(9)
H10 H 0.1494 0.7632 0.6304
C12 C 0.54879(12) 0.36366(14) 0.31804(9)
H12 H 0.5207 0.3015 0.2752
Mg14_5 Mg 1.0000 0.0000 0.0000
Mg14_6 Mg 1.0000 0.0000 1.0000
Mg14_7 Mg 1.0000 1.0000 0.0000
Mg2_2 Mg 1.0000 0.5000 0.5000
O2 O 0.96126(9) 0.51116(11) 0.63522(7)
H1 H 0.9773 0.5524 0.7576
Mg10 Mg 0.73962(4) 0.88570(4) 0.30733(3)
Mg14_8 Mg 1.0000 1.0000 1.0000
O13 O 0.86985(8) 0.48925(9) 0.28298(7)
O15 O 0.84218(8) 0.75510(9) 0.38725(6)
O17 O 0.65782(8) 0.25510(9) 0.11275(6)
O18 O 0.98398(9) 0.70696(10) 0.49076(7)
O23 O 0.89508(9) 0.37026(10) 0.10465(7)
O25 O 0.69456(8) 0.69734(9) 0.25208(6)
O26 O 0.80544(8) 0.19734(9) 0.24792(6)
O28 O 0.69338(9) 0.55519(10) 0.13351(7)
O29 O 0.81631(8) 0.47568(10) 0.47471(6)
C7 C 0.98113(12) 0.47327(14) 0.29328(9)
C8 C 0.92595(12) 0.78731(13) 0.44330(9)
H8 H 0.9446 0.8789 0.4487
H9 H 0.9988 0.7091 0.9737
C11 C 0.75895(11) 0.40275(13) 0.53060(9)
H11 H 0.8032 0.3481 0.5701
Mg2_3 Mg 0.5000 0.0000 -0.0000
O10_2 O 0.15067(9) 0.10166(10) 0.03682(7)
C5_2 C 0.25895(11) 0.09725(13) 0.03060(9)
H5_2 H 0.3032 0.1519 0.0701
Mg5 Mg 0.75643(4) 0.07762(4) 0.13538(3)
O18_2 O 0.51602(9) 0.20696(10) 0.00924(7)
O21 O 0.90111(8) 0.15011(9) 0.06621(7)
O28_2 O 0.80662(9) 0.05519(10) 0.36649(7)
C8_2 C 0.57405(12) 0.28731(13) 0.05670(9)
H8_2 H 0.5554 0.3789 0.0513
Mg2_4 Mg 0.5000 0.0000 1.0000
O1_2 O 0.36985(8) 0.01075(9) 0.78298(7)
O2_2 O 0.53874(9) 0.01116(11) 0.86478(7)
O9_2 O 0.31631(8) 0.02432(10) 0.97471(6)
O11_2 O 0.14956(8) 0.08228(9) 0.80380(7)
C1_2 C 0.48113(12) 0.02673(14) 0.79328(9)
H1_2 H 0.5227 0.0524 0.7424
C6_2 C 0.04879(12) 0.13634(14) 0.81804(9)
H6_2 H 0.0207 0.1985 0.7752
Mg2_5 Mg 0.5000 1.0000 -0.0000
O13_2 O 0.63015(8) 0.98925(9) 0.21702(7)
O14_2 O 0.46126(9) 0.98884(11) 0.13522(7)
O23_2 O 0.60492(9) 0.87026(10) 0.39535(7)
O29_2 O 0.68369(8) 0.97568(10) 0.02529(6)
O33 O 0.85044(8) 0.91772(9) 0.19620(7)
O34_2 O 0.01437(9) 0.88638(11) 0.11663(7)
C7_2 C 0.51887(12) 0.97327(14) 0.20672(9)
H7_2 H 0.4773 0.9476 0.2576
Mg2_6 Mg 0.5000 1.0000 1.0000
O4_2 O 0.48398(9) 0.79304(10) 0.99076(7)
C2_2 C 0.42595(12) 0.71269(13) 0.94330(9)
H2_2 H 0.4446 0.6211 0.9487
O30 O 0.84933(9) 0.89834(10) 0.96318(7)
C11_2 C 0.74105(11) 0.90275(13) 0.96940(9)
H11_2 H 0.6968 0.8481 0.9299
O12_2 O 0.98563(9) 0.11362(11) 0.88337(7)
C12_2 C 0.95121(12) 0.86366(14) 0.18196(9)
H12_2 H 0.9793 0.8015 0.2248
H9_2 H 0.0012 0.2909 0.0263
C3_2 C 0.56265(12) 0.77300(13) 0.43689(9)
H3_2 H 0.4988 0.7909 0.4737
C4_2 C 0.67698(12) 0.66778(13) 0.16846(9)
H4_2 H 0.6494 0.7368 0.1304
C9_2 C 0.93735(12) 0.27300(13) 0.06311(9)
C10_2 C 0.82302(12) 0.16778(13) 0.33154(9)
H10_2 H 0.8506 0.2368 0.3696
loop_
_geom_bond_atom_site_label_1
_geom_bond_atom_site_label_2
_geom_bond_site_symmetry_1
_geom_bond_site_symmetry_2
Mg1 O1 1_555 1_555
Mg3 O1 1_555 1_555
Mg4 O5 1_555 1_555
O1 C1 1_555 1_555
O3 Mg1 1_555 1_555
O4 Mg2 1_555 1_555
O5 Mg1 1_555 1_555
O6 C3 1_555 1_555
O7 Mg1 1_555 1_555
O8 Mg3 1_555 1_555
O9 Mg1 1_555 1_555
O10 Mg4 1_555 1_555
O11 Mg1 1_555 1_555
O12 Mg4 1_555 1_555
C2 O3 1_555 1_555
H2 C2 1_555 1_555
C3 O5 1_555 1_555
H3 C3 1_555 1_555
C4 O7 1_555 1_555
H4 C4 1_555 1_555
C5 O9 1_555 1_555
H5 C5 1_555 1_555
C6 O11 1_555 1_555
H6 C6 1_555 1_555
Mg6 O16 1_555 1_555
Mg7 O20 1_555 1_555
Mg11 O3 1_555 1_555
Mg12 O32 1_555 1_555
Mg14_4 O19 1_555 1_555
O14 Mg2 1_555 1_555
O16 Mg3 1_555 1_555
O19 Mg6 1_555 1_555
O20 Mg4 1_555 1_555
O22 Mg3 1_555 1_555
O24 Mg3 1_555 1_555
O27 C10 1_555 1_555
O31 Mg4 1_555 1_555
O32 Mg7 1_555 1_555
O34 Mg4 1_555 1_555
C9 O19 1_555 1_555
C10 O24 1_555 1_555
H10 C10 1_555 1_555
C12 O32 1_555 1_555
H12 C12 1_555 1_555
Mg2 O9 1_555 1_555
Mg3 O11 1_555 1_555
O4 C2 1_555 1_555
O6 Mg11 1_555 1_555
O7 Mg11 1_555 1_555
O8 C4 1_555 1_555
O10 C5 1_555 1_555
O12 C6 1_555 1_555
Mg6 O24 1_555 1_555
O22 C9 1_555 1_555
O34 C12 1_555 1_555
Mg2_2 O2 1_555 1_555
Mg7 O13 1_555 1_555
Mg12 O13 1_555 1_555
Mg10 O15 1_555 1_555
O13 C7 1_555 1_555
O15 Mg7 1_555 1_555
O17 Mg12 1_555 1_555
O18 Mg2_2 1_555 1_555
O23 Mg12 1_555 1_555
O25 Mg7 1_555 1_555
O26 Mg12 1_555 1_555
O28 Mg12 1_555 1_555
O29 Mg2_2 1_555 1_555
C8 O15 1_555 1_555
H8 C8 1_555 1_555
C11 O29 1_555 1_555
H11 C11 1_555 1_555
Mg7 O29 1_555 1_555
Mg10 O25 1_555 1_555
O18 C8 1_555 1_555
O31 C11 1_555 1_555
O10_2 Mg14 1_555 1_555
H5_2 C5_2 1_555 1_555
Mg14_5 O21 1_555 1_555
O17 Mg5 1_555 1_555
O18_2 Mg2_3 1_555 1_555
O21 Mg5 1_555 1_555
O26 Mg5 1_555 1_555
C8_2 O17 1_555 1_555
H8_2 C8_2 1_555 1_555
O10_2 C5_2 1_555 1_555
O18_2 C8_2 1_555 1_555
Mg2_4 O2_2 1_555 1_555
Mg11 O1_2 1_555 1_555
O1_2 C1_2 1_555 1_555
O2_2 C1_2 1_555 1_555
C1_2 H1_2 1_555 1_555
C6_2 O11_2 1_555 1_555
H6_2 C6_2 1_555 1_555
Mg2_4 O9_2 1_555 1_555
Mg11 O11_2 1_555 1_555
Mg10 O13_2 1_555 1_555
O13_2 C7_2 1_555 1_555
O14_2 Mg2_5 1_555 1_555
O23_2 Mg10 1_555 1_555
O29_2 Mg2_5 1_555 1_555
O34_2 Mg14_3 1_555 1_555
C7_2 O14_2 1_555 1_555
H7_2 C7_2 1_555 1_555
Mg10 O33 1_555 1_555
O4_2 Mg2_6 1_555 1_555
C2_2 O16 1_555 1_555
H2_2 C2_2 1_555 1_555
O30 Mg14_8 1_555 1_555
H11_2 C11_2 1_555 1_555
O4_2 C2_2 1_555 1_555
O30 C11_2 1_555 1_555
O12_2 Mg14_6 1_555 1_555
C12_2 O33 1_555 1_555
H12_2 C12_2 1_555 1_555
O23_2 C3_2 1_555 1_555
C3_2 O20 1_555 1_555
H3_2 C3_2 1_555 1_555
C4_2 O25 1_555 1_555
H4_2 C4_2 1_555 1_555
O28_2 C10_2 1_555 1_555
C9_2 O21 1_555 1_555
C10_2 O26 1_555 1_555
H10_2 C10_2 1_555 1_555
O28 C4_2 1_555 1_555
O23 C9_2 1_555 1_555

#END
