
###############################################################################
#
# This file contains modified crystal structure data generated from the
# MOF subset of the Cambridge Structural Database (CSD) v543 
# hosted by the Cambridge Crystallographic Data Centre (CCDC).
#
# This work is licensed under the Creative Commons
# Attribution-NonCommercial-ShareAlike 4.0 International License.
# To view a copy of this license, visit
# http://creativecommons.org/licenses/by-nc-sa/4.0/
# or send a letter to
# Creative Commons, PO Box 1866, Mountain View, CA 94042, USA.
#
# CIF created using the CSD Python API on 29 September 2022
# The structure has been converted into the P1 space group
# The structure has a 3D framework
# The original CSD entry REKPAB is in the orthorhombic crystal system
# The framework has been calculated to contain at least 10.0% void space
# The void calculation uses a probe of radius 1.32A, grid spacing 0.4
#
###############################################################################

data_REKPAB
_chemical_formula_moiety         '(C28 H48 Cu16 Mo8 N22 O36)n'
_symmetry_cell_setting           triclinic
_symmetry_space_group_name_H-M   'P 1'
_symmetry_Int_Tables_number      1
_space_group_name_Hall           'P 1'
loop_
_symmetry_equiv_pos_site_id
_symmetry_equiv_pos_as_xyz
1 x,y,z
_cell_length_a                   15.2380(10)
_cell_length_b                   23.3671(14)
_cell_length_c                   5.9180(4)
_cell_angle_alpha                90
_cell_angle_beta                 90
_cell_angle_gamma                90
_cell_volume                     2107.21
loop_
_atom_site_label
_atom_site_type_symbol
_atom_site_fract_x
_atom_site_fract_y
_atom_site_fract_z
O3 O 0.3105(2) 0.10717(18) 0.1744(6)
O5 O 0.2282(2) 0.00333(18) 0.0238(6)
Cu4 Cu 0.38306(4) 0.03231(3) 0.46760(10)
Cu10 Cu 0.5000 0.0000 -0.0000
Mo1 Mo 0.28646(3) 0.06605(2) 0.93705(7)
O2 O 0.3870(2) 0.05830(16) 0.7753(6)
O4 O 0.2136(3) 0.10570(17) 0.7742(7)
N1 N 0.4892(3) 0.07761(18) 0.3915(7)
N2 N 0.5337(3) 0.06862(19) 0.1933(7)
N3 N 0.5860(3) 0.14479(19) 0.3578(8)
C1 C 0.5220(3) 0.1231(2) 0.4861(9)
H2 H 0.5036 0.1383 0.6233
C2 C 0.5916(3) 0.1095(2) 0.1775(9)
H3 H 0.6311 0.1138 0.0589
C3 C 0.6370(4) 0.1971(2) 0.4004(11)
H4 H 0.6898 0.1964 0.3088
H5 H 0.6546 0.1980 0.5579
C4 C 0.5852(6) 0.2500 0.3467(18)
H6 H 0.5698 0.2500 0.1877
H7 H 0.5313 0.2500 0.4337
N4 N 0.4892(3) 0.42239(18) 0.3915(7)
N5 N 0.5337(3) 0.43138(19) 0.1933(7)
N6 N 0.5860(3) 0.35521(19) 0.3578(8)
C5 C 0.5220(3) 0.3769(2) 0.4861(9)
H8 H 0.5036 0.3617 0.6233
C6 C 0.5916(3) 0.3905(2) 0.1775(9)
H9 H 0.6311 0.3862 0.0589
C7 C 0.6370(4) 0.3029(2) 0.4004(11)
H10 H 0.6898 0.3036 0.3088
H11 H 0.6546 0.3020 0.5579
Cu8 Cu 0.38306(4) 0.46769(3) 0.46760(10)
Cu10_2 Cu 0.5000 0.0000 1.0000
Cu11 Cu 0.5000 0.5000 0.0000
O6 O 0.5974(2) 0.00809(17) 0.8040(6)
H12 H 0.6447 0.0155 0.8743
Cu7 Cu 0.88306(4) 0.03231(3) 0.03240(10)
Cu11_2 Cu 0.5000 0.5000 1.0000
O16 O 0.7282(2) 0.00333(18) 0.4762(6)
Cu10_3 Cu 0.5000 1.0000 -0.0000
O1 O 0.4026(2) 0.99191(17) 0.1960(6)
H1 H 0.3553 0.9845 0.1257
Cu5 Cu 0.11694(4) 0.96769(3) 0.96760(10)
Cu10_4 Cu 0.5000 1.0000 1.0000
O12 O 0.6130(2) 0.94170(16) 0.2247(6)
O15 O 0.2718(2) 0.99667(18) 0.5238(6)
Mo2 Mo 0.71354(3) 0.93395(2) 0.06295(7)
Cu3 Cu 0.61694(4) 0.96769(3) 0.53240(10)
O9 O 0.7864(3) 0.89430(17) 0.2258(7)
O14 O 0.6895(2) 0.89283(18) 0.8256(6)
N7 N 0.5108(3) 0.92239(18) 0.6085(7)
N8 N 0.4663(3) 0.93138(19) 0.8067(7)
O10 O 0.7718(2) 0.99667(18) 0.9762(6)
Cu10_5 Cu 0.0000 -0.0000 0.5000
O1_2 O 0.0974(2) 0.00809(17) 0.6960(6)
H1_2 H 0.1447 0.0155 0.6257
N8_2 N 0.0337(3) 0.06862(19) 0.3067(7)
Mo1_2 Mo 0.21354(3) 0.93395(2) 0.43705(7)
O2_2 O 0.1130(2) 0.94170(16) 0.2753(6)
O3_2 O 0.1895(2) 0.89283(18) 0.6744(6)
O4_2 O 0.2864(3) 0.89430(17) 0.2742(7)
Cu10_6 Cu 0.0000 1.0000 0.5000
N1_2 N 0.0108(3) 0.92239(18) 0.8915(7)
N4_2 N 0.0108(3) 0.57761(18) 0.8915(7)
Cu8_2 Cu 0.11694(4) 0.53231(3) 0.96760(10)
Cu11_3 Cu 0.0000 0.5000 0.5000
Cu10_7 Cu 1.0000 -0.0000 0.5000
O12_2 O 0.8870(2) 0.05830(16) 0.7247(6)
O14_2 O 0.8105(2) 0.10717(18) 0.3256(6)
N7_2 N 0.9892(3) 0.07761(18) 0.1085(7)
Mo2_2 Mo 0.78646(3) 0.06605(2) 0.56295(7)
O9_2 O 0.7136(3) 0.10570(17) 0.7258(7)
H2_2 H 0.9964 0.8617 0.1233
H5_2 H 0.8454 0.8020 0.0579
H8_2 H 0.9964 0.6383 0.1233
H11_2 H 0.8454 0.6980 0.0579
Cu10_8 Cu 1.0000 1.0000 0.5000
N2_2 N 0.9663(3) 0.93138(19) 0.6933(7)
N3_2 N 0.9140(3) 0.85521(19) 0.8578(8)
C1_2 C 0.9780(3) 0.8769(2) 0.9861(9)
C2_2 C 0.9084(3) 0.8905(2) 0.6775(9)
H3_2 H 0.8689 0.8862 0.5589
C3_2 C 0.8630(4) 0.8029(2) 0.9004(11)
H4_2 H 0.8102 0.8036 0.8088
C4_2 C 0.9148(6) 0.7500 0.8467(18)
H6_2 H 0.9302 0.7500 0.6877
H7_2 H 0.9687 0.7500 0.9337
N5_2 N 0.9663(3) 0.56862(19) 0.6933(7)
N6_2 N 0.9140(3) 0.64479(19) 0.8578(8)
C5_2 C 0.9780(3) 0.6231(2) 0.9861(9)
C6_2 C 0.9084(3) 0.6095(2) 0.6775(9)
H9_2 H 0.8689 0.6138 0.5589
C7_2 C 0.8630(4) 0.6971(2) 0.9004(11)
H10_2 H 0.8102 0.6964 0.8088
O6_2 O 0.9026(2) 0.99191(17) 0.3040(6)
H12_2 H 0.8553 0.9845 0.3743
Cu11_4 Cu 1.0000 0.5000 0.5000
O8 O 0.3105(2) 0.39283(18) 0.1744(6)
O10_2 O 0.2282(2) 0.49667(18) 0.0238(6)
Mo2_3 Mo 0.28646(3) 0.43395(2) 0.93705(7)
O6_3 O 0.4026(2) 0.50809(17) 0.1960(6)
H12_3 H 0.3553 0.5155 0.1257
O7 O 0.3870(2) 0.44170(16) 0.7753(6)
O9_3 O 0.2136(3) 0.39430(17) 0.7742(7)
O11 O 0.6130(2) 0.55830(16) 0.2247(6)
O16_2 O 0.2718(2) 0.50333(18) 0.5238(6)
Mo1_3 Mo 0.71354(3) 0.56605(2) 0.06295(7)
Cu1 Cu 0.61694(4) 0.53231(3) 0.53240(10)
O1_3 O 0.5974(2) 0.49191(17) 0.8040(6)
H1_3 H 0.6447 0.4845 0.8743
O4_3 O 0.7864(3) 0.60570(17) 0.2258(7)
N1_3 N 0.5108(3) 0.57761(18) 0.6085(7)
N2_3 N 0.4663(3) 0.56862(19) 0.8067(7)
N3_3 N 0.4140(3) 0.64479(19) 0.6422(8)
C1_3 C 0.4780(3) 0.6231(2) 0.5139(9)
H2_3 H 0.4964 0.6383 0.3767
C2_3 C 0.4084(3) 0.6095(2) 0.8225(9)
H3_3 H 0.3689 0.6138 0.9411
C3_3 C 0.3630(4) 0.6971(2) 0.5996(11)
H4_3 H 0.3102 0.6964 0.6912
H5_3 H 0.3454 0.6980 0.4421
C4_3 C 0.4148(6) 0.7500 0.6533(18)
H6_3 H 0.4302 0.7500 0.8123
H7_3 H 0.4687 0.7500 0.5663
N6_3 N 0.4140(3) 0.85521(19) 0.6422(8)
C5_3 C 0.4780(3) 0.8769(2) 0.5139(9)
H8_3 H 0.4964 0.8617 0.3767
C6_3 C 0.4084(3) 0.8905(2) 0.8225(9)
H9_3 H 0.3689 0.8862 0.9411
C7_3 C 0.3630(4) 0.8029(2) 0.5996(11)
H10_3 H 0.3102 0.8036 0.6912
H11_3 H 0.3454 0.8020 0.4421
Cu5_2 Cu 0.88306(4) 0.46769(3) 0.03240(10)
O13 O 0.6895(2) 0.60717(18) 0.8256(6)
O15_2 O 0.7282(2) 0.49667(18) 0.4762(6)
O5_2 O 0.7718(2) 0.50333(18) 0.9762(6)
Mo2_4 Mo 0.21354(3) 0.56605(2) 0.43705(7)
O7_2 O 0.1130(2) 0.55830(16) 0.2753(6)
O8_2 O 0.1895(2) 0.60717(18) 0.6744(6)
O9_4 O 0.2864(3) 0.60570(17) 0.2742(7)
N2_4 N 0.0337(3) 0.43138(19) 0.3067(7)
N3_4 N 0.0860(3) 0.35521(19) 0.1422(8)
C1_4 C 0.0220(3) 0.3769(2) 0.0139(9)
C2_4 C 0.0916(3) 0.3905(2) 0.3225(9)
H3_4 H 0.1311 0.3862 0.4411
C3_4 C 0.1370(4) 0.3029(2) 0.0996(11)
H4_4 H 0.1898 0.3036 0.1912
C4_4 C 0.0852(6) 0.2500 0.1533(18)
H6_4 H 0.0698 0.2500 0.3123
H7_4 H 0.0313 0.2500 0.0663
N6_4 N 0.0860(3) 0.14479(19) 0.1422(8)
C5_4 C 0.0220(3) 0.1231(2) 0.0139(9)
C6_4 C 0.0916(3) 0.1095(2) 0.3225(9)
H9_4 H 0.1311 0.1138 0.4411
C7_4 C 0.1370(4) 0.1971(2) 0.0996(11)
H10_4 H 0.1898 0.1964 0.1912
O6_4 O 0.0974(2) 0.49191(17) 0.6960(6)
H12_4 H 0.1447 0.4845 0.6257
H2_4 H 0.0036 0.3617 0.8767
H5_4 H 0.1546 0.3020 0.9421
H8_4 H 0.0036 0.1383 0.8767
H11_4 H 0.1546 0.1980 0.9421
O1_4 O 0.9026(2) 0.50809(17) 0.3040(6)
H1_4 H 0.8553 0.5155 0.3743
N1_4 N 0.9892(3) 0.42239(18) 0.1085(7)
O11_2 O 0.8870(2) 0.44170(16) 0.7247(6)
O13_2 O 0.8105(2) 0.39283(18) 0.3256(6)
Mo1_4 Mo 0.78646(3) 0.43395(2) 0.56295(7)
O4_4 O 0.7136(3) 0.39430(17) 0.7258(7)
loop_
_geom_bond_atom_site_label_1
_geom_bond_atom_site_label_2
_geom_bond_site_symmetry_1
_geom_bond_site_symmetry_2
Cu4 O3 1_555 1_555
Mo1 O2 1_555 1_555
O2 Cu4 1_555 1_555
O4 Mo1 1_555 1_555
N1 Cu4 1_555 1_555
N2 Cu10 1_555 1_555
N3 C1 1_555 1_555
C1 N1 1_555 1_555
H2 C1 1_555 1_555
C2 N2 1_555 1_555
H3 C2 1_555 1_555
C3 N3 1_555 1_555
H4 C3 1_555 1_555
H5 C3 1_555 1_555
C4 C3 1_555 1_555
H6 C4 1_555 1_555
H7 C4 1_555 1_555
N4 N5 1_555 1_555
N5 C6 1_555 1_555
N6 C5 1_555 1_555
C5 N4 1_555 1_555
H8 C5 1_555 1_555
C6 N6 1_555 1_555
H9 C6 1_555 1_555
C7 C4 1_555 1_555
H10 C7 1_555 1_555
H11 C7 1_555 1_555
Cu8 N4 1_555 1_555
Cu10_2 O2 1_555 1_555
Cu11 N5 1_555 1_555
N1 N2 1_555 1_555
N3 C2 1_555 1_555
N6 C7 1_555 1_555
O6 Cu10_2 1_555 1_555
H12 O6 1_555 1_555
Cu10_3 O1 1_555 1_555
O1 H1 1_555 1_555
O12 Cu10_3 1_555 1_555
Mo2 O12 1_555 1_555
O12 Cu3 1_555 1_555
O9 Mo2 1_555 1_555
O14 Cu3 1_555 1_555
N7 Cu3 1_555 1_555
N8 Cu10_4 1_555 1_555
N7 N8 1_555 1_555
Cu10_5 O1_2 1_555 1_555
O1_2 H1_2 1_555 1_555
N8_2 Cu10_5 1_555 1_555
Mo1_2 O2_2 1_555 1_555
O3_2 Mo1_2 1_555 1_555
O4_2 Mo1_2 1_555 1_555
O15 Mo1_2 1_555 1_555
Cu5 O3_2 1_555 1_555
Cu10_6 O2_2 1_555 1_555
N1_2 Cu5 1_555 1_555
Cu8_2 N4_2 1_555 1_555
O12_2 Cu10_7 1_555 1_555
O14_2 Cu7 1_555 1_555
N7_2 Cu7 1_555 1_555
Mo2_2 O12_2 1_555 1_555
O14_2 Mo2_2 1_555 1_555
O9_2 Mo2_2 1_555 1_555
O16 Mo2_2 1_555 1_555
N2_2 Cu10_8 1_555 1_555
N3_2 C1_2 1_555 1_555
C2_2 N2_2 1_555 1_555
H3_2 C2_2 1_555 1_555
C3_2 N3_2 1_555 1_555
H4_2 C3_2 1_555 1_555
C4_2 C3_2 1_555 1_555
H6_2 C4_2 1_555 1_555
H7_2 C4_2 1_555 1_555
N5_2 C6_2 1_555 1_555
N6_2 C5_2 1_555 1_555
C6_2 N6_2 1_555 1_555
H9_2 C6_2 1_555 1_555
C7_2 C4_2 1_555 1_555
H10_2 C7_2 1_555 1_555
O6_2 Cu10_8 1_555 1_555
H12_2 O6_2 1_555 1_555
Cu11_4 N5_2 1_555 1_555
N3_2 C2_2 1_555 1_555
N6_2 C7_2 1_555 1_555
Cu8 O8 1_555 1_555
Mo2_3 O7 1_555 1_555
Cu8 O6_3 1_555 1_555
O6_3 Cu11 1_555 1_555
H12_3 O6_3 1_555 1_555
O7 Cu8 1_555 1_555
O9_3 Mo2_3 1_555 1_555
Cu11_2 O7 1_555 1_555
O11 Cu11 1_555 1_555
O16_2 Cu8 1_555 1_555
Mo1_3 O11 1_555 1_555
Cu1 O1_3 1_555 1_555
Cu11_2 O1_3 1_555 1_555
O1_3 H1_3 1_555 1_555
O11 Cu1 1_555 1_555
O4_3 Mo1_3 1_555 1_555
N1_3 Cu1 1_555 1_555
N2_3 Cu11_2 1_555 1_555
N3_3 C1_3 1_555 1_555
C1_3 N1_3 1_555 1_555
H2_3 C1_3 1_555 1_555
C2_3 N2_3 1_555 1_555
H3_3 C2_3 1_555 1_555
C3_3 N3_3 1_555 1_555
H4_3 C3_3 1_555 1_555
H5_3 C3_3 1_555 1_555
C4_3 C3_3 1_555 1_555
H6_3 C4_3 1_555 1_555
H7_3 C4_3 1_555 1_555
N8 C6_3 1_555 1_555
N6_3 C5_3 1_555 1_555
C5_3 N7 1_555 1_555
H8_3 C5_3 1_555 1_555
C6_3 N6_3 1_555 1_555
H9_3 C6_3 1_555 1_555
C7_3 C4_3 1_555 1_555
H10_3 C7_3 1_555 1_555
H11_3 C7_3 1_555 1_555
O13 Cu1 1_555 1_555
O15_2 Cu1 1_555 1_555
N1_3 N2_3 1_555 1_555
N3_3 C2_3 1_555 1_555
N6_3 C7_3 1_555 1_555
Mo2_4 O7_2 1_555 1_555
O8_2 Mo2_4 1_555 1_555
O9_4 Mo2_4 1_555 1_555
O16_2 Mo2_4 1_555 1_555
Cu8_2 O8_2 1_555 1_555
Cu11_3 O7_2 1_555 1_555
N2_4 Cu11_3 1_555 1_555
N3_4 C1_4 1_555 1_555
C2_4 N2_4 1_555 1_555
H3_4 C2_4 1_555 1_555
C3_4 N3_4 1_555 1_555
H4_4 C3_4 1_555 1_555
C4_4 C3_4 1_555 1_555
H6_4 C4_4 1_555 1_555
H7_4 C4_4 1_555 1_555
N8_2 C6_4 1_555 1_555
N6_4 C5_4 1_555 1_555
C6_4 N6_4 1_555 1_555
H9_4 C6_4 1_555 1_555
C7_4 C4_4 1_555 1_555
H10_4 C7_4 1_555 1_555
Cu8_2 O6_4 1_555 1_555
O6_4 Cu11_3 1_555 1_555
H12_4 O6_4 1_555 1_555
N3_4 C2_4 1_555 1_555
N6_4 C7_4 1_555 1_555
Cu5_2 O1_4 1_555 1_555
Cu11_4 O1_4 1_555 1_555
O1_4 H1_4 1_555 1_555
N1_4 Cu5_2 1_555 1_555
O11_2 Cu11_4 1_555 1_555
O13_2 Cu5_2 1_555 1_555
Mo1_4 O11_2 1_555 1_555
O13_2 Mo1_4 1_555 1_555
O4_4 Mo1_4 1_555 1_555
O15_2 Mo1_4 1_555 1_555

#END
