
###############################################################################
#
# This file contains modified crystal structure data generated from the
# MOF subset of the Cambridge Structural Database (CSD) v543 
# hosted by the Cambridge Crystallographic Data Centre (CCDC).
#
# This work is licensed under the Creative Commons
# Attribution-NonCommercial-ShareAlike 4.0 International License.
# To view a copy of this license, visit
# http://creativecommons.org/licenses/by-nc-sa/4.0/
# or send a letter to
# Creative Commons, PO Box 1866, Mountain View, CA 94042, USA.
#
# CIF created using the CSD Python API on 29 September 2022
# The structure has been converted into the P1 space group
# The structure has a 3D framework
# The original CSD entry REKYIS is in the rhombohedral crystal system
# The framework has been calculated to contain at least 10.0% void space
# The void calculation uses a probe of radius 1.32A, grid spacing 0.4
#
###############################################################################

data_REKYIS
_chemical_formula_moiety         '(C72 H54 Co15 O69)n'
_symmetry_cell_setting           triclinic
_symmetry_space_group_name_H-M   'P 1'
_symmetry_Int_Tables_number      1
_space_group_name_Hall           'P 1'
loop_
_symmetry_equiv_pos_site_id
_symmetry_equiv_pos_as_xyz
1 x,y,z
_cell_length_a                   26.128(4)
_cell_length_b                   26.128(4)
_cell_length_c                   6.6992(10)
_cell_angle_alpha                90
_cell_angle_beta                 90
_cell_angle_gamma                120
_cell_volume                     3960.64
loop_
_atom_site_label
_atom_site_type_symbol
_atom_site_fract_x
_atom_site_fract_y
_atom_site_fract_z
O1 O 0.41716(9) 0.39321(9) 0.1713(3)
C1 C 0.45610(12) 0.44483(12) 0.0821(4)
C3 C 0.50310(12) 0.48662(13) 0.1963(4)
H1 H 0.5053 0.4779 0.3295
O6 O 0.63750(9) 0.62907(9) 0.1969(3)
O7 O 0.59725(10) 0.56015(9) 0.4321(3)
C6 C 0.54718(12) 0.54110(13) 0.1211(4)
C8 C 0.59656(12) 0.57928(12) 0.2593(4)
Co3 Co 0.34950(2) 0.38568(2) 0.34539(6)
Co5 Co 0.36951(3) 0.31717(2) 0.01206(6)
Co6 Co 0.65050(2) 0.61432(2) 0.65461(6)
Co8 Co 0.71901(2) 0.70285(3) 0.32128(6)
O2 O 0.36250(9) 0.37093(9) 0.8031(3)
O3 O 0.40275(10) 0.43985(9) 0.5679(3)
C2 C 0.45282(12) 0.45890(13) 0.8789(4)
C4 C 0.40344(12) 0.42072(12) 0.7407(4)
O4 O 0.34293(12) 0.45562(11) 0.2054(4)
H2 H 0.3672(18) 0.4913(10) 0.223(7)
H3 H 0.325(2) 0.445(2) 0.097(5)
O5 O 0.58284(9) 0.60679(9) 0.8287(3)
C5 C 0.54390(12) 0.55517(12) 0.9179(4)
C7 C 0.49690(12) 0.51338(13) 0.8037(4)
H4 H 0.4947 0.5221 0.6705
O8 O 0.65707(12) 0.54438(11) 0.7946(4)
H5 H 0.6328(18) 0.5087(10) 0.777(7)
H6 H 0.675(2) 0.555(2) 0.903(5)
Co4 Co 0.28099(2) 0.29715(3) 0.67872(6)
Co7 Co 0.63049(3) 0.68283(2) 0.98794(6)
O10 O 0.27346(9) 0.35728(13) 0.5046(3)
O11 O 0.72654(9) 0.64272(13) 0.4954(3)
O12 O 0.29574(9) 0.32490(13) 0.1364(3)
O13 O 0.34176(13) 0.30417(9) 0.4698(3)
O14 O 0.65824(13) 0.69583(9) 0.5302(3)
O15 O 0.70426(9) 0.67510(13) 0.8636(3)
O1_2 O 0.60679(9) 0.02395(13) 0.1713(3)
C1_2 C 0.55517(12) 0.01127(17) 0.0821(4)
C3_2 C 0.51338(13) 0.01648(18) 0.1963(4)
H1_2 H 0.5221 0.0274 0.3295
O6_2 O 0.37093(9) 0.00843(13) 0.1969(3)
O7_2 O 0.43985(9) 0.03710(13) 0.4321(3)
C6_2 C 0.45890(13) 0.00608(18) 0.1211(4)
C8_2 C 0.42072(12) 0.01728(17) 0.2593(4)
Co5_2 Co 0.68283(2) 0.05235(4) 0.01206(6)
Co6_2 Co 0.38568(2) 0.03618(3) 0.65461(6)
Co8_2 Co 0.29715(3) 0.01617(4) 0.32128(6)
O8_2 O 0.45562(11) 0.11269(16) 0.7946(4)
H5_2 H 0.4913(10) 0.1241(21) 0.777(7)
H6_2 H 0.445(2) 0.120(3) 0.903(5)
O11_2 O 0.35728(13) 0.08383(16) 0.4954(3)
O13_2 O 0.69583(9) 0.03760(16) 0.4698(3)
O15_2 O 0.32490(13) 0.02917(16) 0.8636(3)
Co3_2 Co 0.61432(2) 0.96382(3) 0.34539(6)
O2_2 O 0.62907(9) 0.99157(13) 0.8031(3)
O3_2 O 0.56015(9) 0.96290(13) 0.5679(3)
C2_2 C 0.54110(13) 0.99392(18) 0.8789(4)
C4_2 C 0.57928(12) 0.98272(17) 0.7407(4)
O4_2 O 0.54438(11) 0.88731(16) 0.2054(4)
H2_2 H 0.5087(10) 0.8759(21) 0.223(7)
H3_2 H 0.555(2) 0.880(3) 0.097(5)
O5_2 O 0.39321(9) 0.97605(13) 0.8287(3)
C5_2 C 0.44483(12) 0.98873(17) 0.9179(4)
C7_2 C 0.48662(13) 0.98352(18) 0.8037(4)
H4_2 H 0.4779 0.9726 0.6705
Co4_2 Co 0.70285(3) 0.98383(4) 0.67872(6)
Co7_2 Co 0.31717(2) 0.94765(4) 0.98794(6)
O10_2 O 0.64272(13) 0.91617(16) 0.5046(3)
O12_2 O 0.67510(13) 0.97083(16) 0.1364(3)
O14_2 O 0.30417(9) 0.96240(16) 0.5302(3)
Co3_3 Co 0.03618(3) 0.65050(2) 0.34539(6)
O2_3 O 0.00843(13) 0.63750(9) 0.8031(3)
O3_3 O 0.03710(13) 0.59725(10) 0.5679(3)
C2_3 C 0.00608(18) 0.54718(12) 0.8789(4)
C4_3 C 0.01728(17) 0.59656(12) 0.7407(4)
O4_3 O 0.11269(16) 0.65707(12) 0.2054(4)
H2_3 H 0.1241(21) 0.6328(18) 0.223(7)
H3_3 H 0.120(3) 0.675(2) 0.097(5)
O5_3 O 0.02395(13) 0.41716(9) 0.8287(3)
C5_3 C 0.01127(17) 0.45610(12) 0.9179(4)
C7_3 C 0.01648(18) 0.50310(12) 0.8037(4)
H4_3 H 0.0274 0.5053 0.6705
Co4_3 Co 0.01617(4) 0.71901(2) 0.67872(6)
Co7_3 Co 0.05235(4) 0.36951(3) 0.98794(6)
O10_3 O 0.08383(16) 0.72654(9) 0.5046(3)
O12_3 O 0.02917(16) 0.70426(9) 0.1364(3)
O14_3 O 0.03760(16) 0.34176(13) 0.5302(3)
O1_3 O 0.97605(13) 0.58284(9) 0.1713(3)
C1_3 C 0.98873(17) 0.54390(12) 0.0821(4)
C3_3 C 0.98352(18) 0.49690(12) 0.1963(4)
H1_3 H 0.9726 0.4947 0.3295
O6_3 O 0.99157(13) 0.36250(9) 0.1969(3)
O7_3 O 0.96290(13) 0.40275(10) 0.4321(3)
C6_3 C 0.99392(18) 0.45282(12) 0.1211(4)
C8_3 C 0.98272(17) 0.40344(12) 0.2593(4)
Co5_3 Co 0.94765(4) 0.63049(3) 0.01206(6)
Co6_3 Co 0.96382(3) 0.34950(2) 0.65461(6)
Co8_3 Co 0.98383(4) 0.28099(2) 0.32128(6)
O8_3 O 0.88731(16) 0.34293(12) 0.7946(4)
H5_3 H 0.8759(21) 0.3672(18) 0.777(7)
H6_3 H 0.880(3) 0.325(2) 0.903(5)
O11_3 O 0.91617(16) 0.27346(9) 0.4954(3)
O13_3 O 0.96240(16) 0.65824(13) 0.4698(3)
O15_3 O 0.97083(16) 0.29574(9) 0.8636(3)
C1_4 C 0.12277(12) 0.77816(12) 0.4154(4)
C2_4 C 0.11949(12) 0.79223(13) 0.2122(4)
C3_4 C 0.16977(12) 0.81995(13) 0.5296(4)
H1_4 H 0.1720 0.8112 0.6628
C4_4 C 0.07011(12) 0.75405(12) 0.0740(4)
O5_4 O 0.24951(9) 0.94012(9) 0.1620(3)
O7_4 O 0.26392(10) 0.89348(9) 0.7654(3)
C5_4 C 0.21057(12) 0.88850(12) 0.2512(4)
C6_4 C 0.21385(12) 0.87443(13) 0.4544(4)
C7_4 C 0.16357(12) 0.84671(13) 0.1370(4)
H4_4 H 0.1614 0.8554 0.0038
C8_4 C 0.26323(12) 0.91261(12) 0.5926(4)
O8_4 O 0.32374(12) 0.87771(11) 0.1279(4)
H5_4 H 0.2995(18) 0.8420(10) 0.110(7)
H6_4 H 0.342(2) 0.888(2) 0.236(5)
O3_4 O 0.06942(10) 0.77318(9) 0.9012(3)
O4_4 O 0.00960(12) 0.78895(11) 0.5387(4)
H2_4 H 0.0339(18) 0.8246(10) 0.556(7)
H3_4 H 0.992(2) 0.778(2) 0.430(5)
O10_4 O 0.94012(9) 0.69062(13) 0.8380(3)
C1_5 C 0.22184(12) 0.34460(17) 0.4154(4)
C2_5 C 0.20777(13) 0.32725(18) 0.2122(4)
C3_5 C 0.18005(13) 0.34981(18) 0.5296(4)
H1_5 H 0.1888 0.3607 0.6628
C4_5 C 0.24595(12) 0.31605(17) 0.0740(4)
O5_5 O 0.05988(9) 0.30938(13) 0.1620(3)
O7_5 O 0.10652(9) 0.37043(13) 0.7654(3)
C5_5 C 0.11150(12) 0.32206(17) 0.2512(4)
C6_5 C 0.12557(13) 0.33941(18) 0.4544(4)
C7_5 C 0.15329(13) 0.31685(18) 0.1370(4)
H4_5 H 0.1446 0.3059 0.0038
C8_5 C 0.08739(12) 0.35061(17) 0.5926(4)
O8_5 O 0.12229(11) 0.44602(16) 0.1279(4)
H5_5 H 0.1580(10) 0.4574(21) 0.110(7)
H6_5 H 0.112(2) 0.453(3) 0.236(5)
O3_5 O 0.22682(9) 0.29623(13) 0.9012(3)
O4_5 O 0.21105(11) 0.22064(16) 0.5387(4)
H2_5 H 0.1754(10) 0.2092(21) 0.556(7)
H3_5 H 0.222(2) 0.213(3) 0.430(5)
O10_5 O 0.30938(13) 0.24951(16) 0.8380(3)
H3_6 H 0.787(3) 0.008(2) 0.430(5)
O10_6 O 0.75049(16) 0.05988(9) 0.8380(3)
C1_6 C 0.65540(17) 0.87723(12) 0.4154(4)
C2_6 C 0.67275(18) 0.88051(12) 0.2122(4)
C3_6 C 0.65019(18) 0.83023(12) 0.5296(4)
H1_6 H 0.6393 0.8280 0.6628
C4_6 C 0.68395(17) 0.92989(12) 0.0740(4)
O5_6 O 0.69062(13) 0.75049(9) 0.1620(3)
O7_6 O 0.62957(13) 0.73608(10) 0.7654(3)
C5_6 C 0.67794(17) 0.78943(12) 0.2512(4)
C6_6 C 0.66059(18) 0.78615(12) 0.4544(4)
C7_6 C 0.68315(18) 0.83643(12) 0.1370(4)
H4_6 H 0.6941 0.8386 0.0038
C8_6 C 0.64939(17) 0.73677(12) 0.5926(4)
O8_6 O 0.55398(16) 0.67626(12) 0.1279(4)
H5_6 H 0.5426(21) 0.7005(18) 0.110(7)
H6_6 H 0.547(3) 0.658(2) 0.236(5)
O3_6 O 0.70377(13) 0.93058(10) 0.9012(3)
O4_6 O 0.77936(16) 0.99040(12) 0.5387(4)
H2_6 H 0.7908(21) 0.9661(18) 0.556(7)
H6_7 H 0.008(2) 0.222(2) 0.570(5)
O7_7 O 0.93058(10) 0.22682(9) 0.0988(3)
O3_7 O 0.73608(10) 0.10652(9) 0.2346(3)
C1_7 C 0.78943(12) 0.11150(12) 0.7488(4)
C2_7 C 0.78615(12) 0.12557(13) 0.5456(4)
C3_7 C 0.83643(12) 0.15329(13) 0.8630(4)
H1_7 H 0.8386 0.1446 0.9962
C4_7 C 0.73677(12) 0.08739(12) 0.4074(4)
C5_7 C 0.87723(12) 0.22184(12) 0.5846(4)
C6_7 C 0.88051(12) 0.20777(13) 0.7878(4)
C7_7 C 0.83023(12) 0.18005(13) 0.4704(4)
H4_7 H 0.8280 0.1888 0.3372
C8_7 C 0.92989(12) 0.24595(12) 0.9260(4)
O8_7 O 0.99040(12) 0.21105(11) 0.4613(4)
H5_7 H 0.9661(18) 0.1754(10) 0.444(7)
O4_7 O 0.67626(12) 0.12229(11) 0.8721(4)
H2_7 H 0.7005(18) 0.1580(10) 0.890(7)
H3_7 H 0.658(2) 0.112(2) 0.764(5)
O7_8 O 0.77318(9) 0.70377(13) 0.0988(3)
O3_8 O 0.89348(9) 0.62957(13) 0.2346(3)
C1_8 C 0.88850(12) 0.67794(17) 0.7488(4)
C2_8 C 0.87443(13) 0.66059(18) 0.5456(4)
C3_8 C 0.84671(13) 0.68315(18) 0.8630(4)
H1_8 H 0.8554 0.6941 0.9962
C4_8 C 0.91261(12) 0.64939(17) 0.4074(4)
C5_8 C 0.77816(12) 0.65540(17) 0.5846(4)
C6_8 C 0.79223(13) 0.67275(18) 0.7878(4)
C7_8 C 0.81995(13) 0.65019(18) 0.4704(4)
H4_8 H 0.8112 0.6393 0.3372
C8_8 C 0.75405(12) 0.68395(17) 0.9260(4)
O8_8 O 0.78895(11) 0.77936(16) 0.4613(4)
H5_8 H 0.8246(10) 0.7908(21) 0.444(7)
H6_8 H 0.778(2) 0.787(3) 0.570(5)
O4_8 O 0.87771(11) 0.55398(16) 0.8721(4)
H2_8 H 0.8420(10) 0.5426(21) 0.890(7)
H3_8 H 0.888(2) 0.547(3) 0.764(5)
O7_9 O 0.29623(13) 0.06942(10) 0.0988(3)
O3_9 O 0.37043(13) 0.26392(10) 0.2346(3)
C1_9 C 0.32206(17) 0.21057(12) 0.7488(4)
C2_9 C 0.33941(18) 0.21385(12) 0.5456(4)
C3_9 C 0.31685(18) 0.16357(12) 0.8630(4)
H1_9 H 0.3059 0.1614 0.9962
C4_9 C 0.35061(17) 0.26323(12) 0.4074(4)
C5_9 C 0.34460(17) 0.12277(12) 0.5846(4)
C6_9 C 0.32725(18) 0.11949(12) 0.7878(4)
C7_9 C 0.34981(18) 0.16977(12) 0.4704(4)
H4_9 H 0.3607 0.1720 0.3372
C8_9 C 0.31605(17) 0.07011(12) 0.9260(4)
O8_9 O 0.22064(16) 0.00960(12) 0.4613(4)
H5_9 H 0.2092(21) 0.0339(18) 0.444(7)
O4_9 O 0.44602(16) 0.32374(12) 0.8721(4)
H2_9 H 0.4574(21) 0.2995(18) 0.890(7)
H3_9 H 0.453(3) 0.342(2) 0.764(5)
H6_9 H 0.213(3) 0.992(2) 0.570(5)
loop_
_geom_bond_atom_site_label_1
_geom_bond_atom_site_label_2
_geom_bond_site_symmetry_1
_geom_bond_site_symmetry_2
O1 C1 1_555 1_555
C3 C1 1_555 1_555
H1 C3 1_555 1_555
O6 C8 1_555 1_555
O7 C8 1_555 1_555
C6 C3 1_555 1_555
C8 C6 1_555 1_555
Co3 O1 1_555 1_555
Co5 O1 1_555 1_555
Co6 O7 1_555 1_555
Co8 O6 1_555 1_555
Co3 O3 1_555 1_555
O2 C4 1_555 1_555
O3 C4 1_555 1_555
C2 C4 1_555 1_555
O4 Co3 1_555 1_555
H2 O4 1_555 1_555
H3 O4 1_555 1_555
O5 C5 1_555 1_555
C7 C2 1_555 1_555
H4 C7 1_555 1_555
Co6 O5 1_555 1_555
O8 Co6 1_555 1_555
H5 O8 1_555 1_555
H6 O8 1_555 1_555
Co4 O2 1_555 1_555
Co7 O5 1_555 1_555
O10 Co3 1_555 1_555
O11 Co6 1_555 1_555
O12 Co3 1_555 1_555
O13 Co3 1_555 1_555
O14 Co6 1_555 1_555
O15 Co6 1_555 1_555
C5 C7 1_555 1_555
Co4 O10 1_555 1_555
Co4 O13 1_555 1_555
Co7 O15 1_555 1_555
O1_2 C1_2 1_555 1_555
C3_2 C1_2 1_555 1_555
H1_2 C3_2 1_555 1_555
O6_2 C8_2 1_555 1_555
O7_2 C8_2 1_555 1_555
C6_2 C3_2 1_555 1_555
C8_2 C6_2 1_555 1_555
Co5_2 O1_2 1_555 1_555
Co6_2 O7_2 1_555 1_555
Co8_2 O6_2 1_555 1_555
O8_2 Co6_2 1_555 1_555
H5_2 O8_2 1_555 1_555
H6_2 O8_2 1_555 1_555
O11_2 Co6_2 1_555 1_555
O15_2 Co6_2 1_555 1_555
Co3_2 O3_2 1_555 1_555
O2_2 C4_2 1_555 1_555
O3_2 C4_2 1_555 1_555
C2_2 C4_2 1_555 1_555
O4_2 Co3_2 1_555 1_555
H2_2 O4_2 1_555 1_555
H3_2 O4_2 1_555 1_555
O5_2 C5_2 1_555 1_555
C7_2 C2_2 1_555 1_555
H4_2 C7_2 1_555 1_555
Co4_2 O2_2 1_555 1_555
Co7_2 O5_2 1_555 1_555
O10_2 Co3_2 1_555 1_555
O12_2 Co3_2 1_555 1_555
C5_2 C7_2 1_555 1_555
Co4_2 O10_2 1_555 1_555
Co3_3 O3_3 1_555 1_555
O2_3 C4_3 1_555 1_555
O3_3 C4_3 1_555 1_555
C2_3 C4_3 1_555 1_555
O4_3 Co3_3 1_555 1_555
H2_3 O4_3 1_555 1_555
H3_3 O4_3 1_555 1_555
O5_3 C5_3 1_555 1_555
C7_3 C2_3 1_555 1_555
H4_3 C7_3 1_555 1_555
Co4_3 O2_3 1_555 1_555
Co7_3 O5_3 1_555 1_555
O10_3 Co3_3 1_555 1_555
O12_3 Co3_3 1_555 1_555
C5_3 C7_3 1_555 1_555
Co4_3 O10_3 1_555 1_555
O1_3 C1_3 1_555 1_555
C3_3 C1_3 1_555 1_555
H1_3 C3_3 1_555 1_555
O6_3 C8_3 1_555 1_555
O7_3 C8_3 1_555 1_555
C6_3 C3_3 1_555 1_555
C8_3 C6_3 1_555 1_555
Co5_3 O1_3 1_555 1_555
Co6_3 O7_3 1_555 1_555
Co8_3 O6_3 1_555 1_555
O8_3 Co6_3 1_555 1_555
H5_3 O8_3 1_555 1_555
H6_3 O8_3 1_555 1_555
O11_3 Co6_3 1_555 1_555
O15_3 Co6_3 1_555 1_555
O10_3 C1_4 1_555 1_555
O12_3 C4_4 1_555 1_555
C1_4 C2_4 1_555 1_555
C2_4 C4_4 1_555 1_555
C3_4 C1_4 1_555 1_555
H1_4 C3_4 1_555 1_555
O5_4 C5_4 1_555 1_555
O14_2 C8_4 1_555 1_555
O7_4 C8_4 1_555 1_555
C5_4 C6_4 1_555 1_555
C6_4 C3_4 1_555 1_555
C7_4 C2_4 1_555 1_555
H4_4 C7_4 1_555 1_555
C8_4 C6_4 1_555 1_555
H5_4 O8_4 1_555 1_555
H6_4 O8_4 1_555 1_555
Co7_2 O7_4 1_555 1_555
C5_4 C7_4 1_555 1_555
Co4_3 O3_4 1_555 1_555
O4_4 Co4_3 1_555 1_555
H2_4 O4_4 1_555 1_555
O10 C1_5 1_555 1_555
O12 C4_5 1_555 1_555
C1_5 C2_5 1_555 1_555
C2_5 C4_5 1_555 1_555
C3_5 C1_5 1_555 1_555
H1_5 C3_5 1_555 1_555
O5_5 C5_5 1_555 1_555
O14_3 C8_5 1_555 1_555
O7_5 C8_5 1_555 1_555
C5_5 C6_5 1_555 1_555
C6_5 C3_5 1_555 1_555
C7_5 C2_5 1_555 1_555
H4_5 C7_5 1_555 1_555
C8_5 C6_5 1_555 1_555
H5_5 O8_5 1_555 1_555
H6_5 O8_5 1_555 1_555
Co5 O12 1_555 1_555
Co7_3 O7_5 1_555 1_555
C5_5 C7_5 1_555 1_555
Co4 O3_5 1_555 1_555
O4_5 Co4 1_555 1_555
H2_5 O4_5 1_555 1_555
H3_5 O4_5 1_555 1_555
O10_5 Co4 1_555 1_555
O10_2 C1_6 1_555 1_555
O12_2 C4_6 1_555 1_555
C1_6 C2_6 1_555 1_555
C2_6 C4_6 1_555 1_555
C3_6 C1_6 1_555 1_555
H1_6 C3_6 1_555 1_555
O5_6 C5_6 1_555 1_555
O14 C8_6 1_555 1_555
O7_6 C8_6 1_555 1_555
C5_6 C6_6 1_555 1_555
C6_6 C3_6 1_555 1_555
C7_6 C2_6 1_555 1_555
H4_6 C7_6 1_555 1_555
C8_6 C6_6 1_555 1_555
H5_6 O8_6 1_555 1_555
H6_6 O8_6 1_555 1_555
Co7 O7_6 1_555 1_555
Co8 O5_6 1_555 1_555
O14 Co8 1_555 1_555
C5_6 C7_6 1_555 1_555
Co4_2 O3_6 1_555 1_555
O4_6 Co4_2 1_555 1_555
H2_6 O4_6 1_555 1_555
Co8_3 O7_7 1_555 1_555
Co5_2 O3_7 1_555 1_555
O10_6 C1_7 1_555 1_555
O13_2 C4_7 1_555 1_555
O3_7 C4_7 1_555 1_555
C1_7 C2_7 1_555 1_555
C2_7 C4_7 1_555 1_555
C3_7 C1_7 1_555 1_555
H1_7 C3_7 1_555 1_555
O11_3 C5_7 1_555 1_555
O15_3 C8_7 1_555 1_555
C5_7 C6_7 1_555 1_555
C6_7 C3_7 1_555 1_555
C7_7 C2_7 1_555 1_555
H4_7 C7_7 1_555 1_555
C8_7 C6_7 1_555 1_555
Co8_3 O11_3 1_555 1_555
O8_7 Co8_3 1_555 1_555
H5_7 O8_7 1_555 1_555
C5_7 C7_7 1_555 1_555
H2_7 O4_7 1_555 1_555
H3_7 O4_7 1_555 1_555
Co8 O7_8 1_555 1_555
Co5_3 O3_8 1_555 1_555
O10_4 C1_8 1_555 1_555
O13_3 C4_8 1_555 1_555
O3_8 C4_8 1_555 1_555
C1_8 C2_8 1_555 1_555
C2_8 C4_8 1_555 1_555
C3_8 C1_8 1_555 1_555
H1_8 C3_8 1_555 1_555
O11 C5_8 1_555 1_555
O15 C8_8 1_555 1_555
C5_8 C6_8 1_555 1_555
C6_8 C3_8 1_555 1_555
C7_8 C2_8 1_555 1_555
H4_8 C7_8 1_555 1_555
C8_8 C6_8 1_555 1_555
Co8 O11 1_555 1_555
O8_8 Co8 1_555 1_555
H5_8 O8_8 1_555 1_555
H6_8 O8_8 1_555 1_555
C5_8 C7_8 1_555 1_555
H2_8 O4_8 1_555 1_555
H3_8 O4_8 1_555 1_555
Co8_2 O7_9 1_555 1_555
Co5 O3_9 1_555 1_555
O10_5 C1_9 1_555 1_555
O13 C4_9 1_555 1_555
O3_9 C4_9 1_555 1_555
C1_9 C2_9 1_555 1_555
C2_9 C4_9 1_555 1_555
C3_9 C1_9 1_555 1_555
H1_9 C3_9 1_555 1_555
O11_2 C5_9 1_555 1_555
O15_2 C8_9 1_555 1_555
C5_9 C6_9 1_555 1_555
C6_9 C3_9 1_555 1_555
C7_9 C2_9 1_555 1_555
H4_9 C7_9 1_555 1_555
C8_9 C6_9 1_555 1_555
Co8_2 O11_2 1_555 1_555
O8_9 Co8_2 1_555 1_555
H5_9 O8_9 1_555 1_555
C5_9 C7_9 1_555 1_555
H2_9 O4_9 1_555 1_555
H3_9 O4_9 1_555 1_555

#END
