
###############################################################################
#
# This file contains modified crystal structure data generated from the
# MOF subset of the Cambridge Structural Database (CSD) v543 
# hosted by the Cambridge Crystallographic Data Centre (CCDC).
#
# This work is licensed under the Creative Commons
# Attribution-NonCommercial-ShareAlike 4.0 International License.
# To view a copy of this license, visit
# http://creativecommons.org/licenses/by-nc-sa/4.0/
# or send a letter to
# Creative Commons, PO Box 1866, Mountain View, CA 94042, USA.
#
# CIF created using the CSD Python API on 29 September 2022
# The structure has been converted into the P1 space group
# The structure has a 3D framework
# The original CSD entry RELLAW is in the monoclinic crystal system
# The framework has been calculated to contain at least 10.0% void space
# The void calculation uses a probe of radius 1.32A, grid spacing 0.4
#
###############################################################################

data_RELLAW
_chemical_formula_moiety         '(C144 H88 N8 O32 Zn8)n'
_symmetry_cell_setting           triclinic
_symmetry_space_group_name_H-M   'P 1'
_symmetry_Int_Tables_number      1
_space_group_name_Hall           'P 1'
loop_
_symmetry_equiv_pos_site_id
_symmetry_equiv_pos_as_xyz
1 x,y,z
_cell_length_a                   16.1578(5)
_cell_length_b                   18.8070(6)
_cell_length_c                   18.1039(5)
_cell_angle_alpha                90
_cell_angle_beta                 92.6150(10)
_cell_angle_gamma                90
_cell_volume                     5495.68
loop_
_atom_site_label
_atom_site_type_symbol
_atom_site_fract_x
_atom_site_fract_y
_atom_site_fract_z
N1 N 0.06133(13) 0.50078(11) 0.62619(12)
C25 C 0.01584(18) 0.45531(17) 0.66387(19)
H13 H 0.0441(19) 0.4242(17) 0.6923(17)
C36 C 0.02119(17) 0.54699(16) 0.58158(16)
H22 H 0.0537(18) 0.5791(16) 0.5553(16)
Zn7 Zn 0.185789(16) 0.499222(14) 0.642175(14)
Zn6 Zn 0.185789(16) 0.000778(14) 0.142175(14)
Zn1 Zn 0.365450(16) 0.500204(14) 0.672337(14)
O1 O 0.35299(11) 0.43006(10) 0.58538(10)
O2 O 0.21681(11) 0.40897(10) 0.58767(10)
O3 O 0.19566(11) 0.05862(10) 0.23839(10)
O4 O 0.33257(11) 0.07848(10) 0.24070(10)
O5 O 0.21963(11) 0.55900(10) 0.55467(10)
O6 O 0.35003(11) 0.57980(10) 0.59650(10)
O7 O 0.33228(12) 0.92914(10) 0.24993(10)
O8 O 0.20172(12) 0.91174(10) 0.20613(10)
N2 N 0.49051(13) 0.49931(11) 0.67592(12)
C1 C 0.28823(16) 0.39592(13) 0.56651(14)
C2 C 0.29743(16) 0.33538(14) 0.51359(14)
C3 C 0.37661(18) 0.31953(16) 0.48701(17)
H1 H 0.424(2) 0.347(2) 0.505(2)
C4 C 0.38545(18) 0.26749(17) 0.43594(17)
H2 H 0.442(2) 0.2567(17) 0.4136(17)
C5 C 0.31563(16) 0.22815(14) 0.40841(15)
C6 C 0.32180(17) 0.17624(15) 0.35279(15)
H3 H 0.371(2) 0.1642(18) 0.3335(18)
C7 C 0.25303(16) 0.14035(14) 0.32510(14)
C8 C 0.17517(18) 0.15333(16) 0.35499(16)
H4 H 0.127(2) 0.1270(17) 0.3354(17)
C9 C 0.16721(18) 0.20251(17) 0.40946(17)
H5 H 0.115(2) 0.2112(17) 0.4312(18)
C10 C 0.23665(16) 0.24230(15) 0.43684(15)
C11 C 0.22985(17) 0.29658(15) 0.48977(15)
H6 H 0.1746(18) 0.3072(15) 0.5130(15)
C12 C 0.26101(16) 0.08799(13) 0.26341(14)
C13 C 0.28810(15) 0.59148(13) 0.55428(13)
C14 C 0.29619(16) 0.64958(14) 0.49862(14)
C15 C 0.37128(18) 0.68787(16) 0.49637(16)
H7 H 0.415(2) 0.6775(17) 0.5308(18)
C16 C 0.37928(18) 0.74275(16) 0.44900(16)
H8 H 0.430(2) 0.7712(18) 0.4503(18)
C17 C 0.31282(16) 0.76267(14) 0.39948(15)
C18 C 0.31910(17) 0.81957(15) 0.34906(15)
H9 H 0.3686(19) 0.8496(16) 0.3514(16)
C19 C 0.25403(17) 0.83751(14) 0.30175(15)
C20 C 0.17910(18) 0.79927(17) 0.30354(17)
H10 H 0.137(2) 0.8087(16) 0.2671(17)
C21 C 0.17043(19) 0.74435(17) 0.35126(17)
H11 H 0.116(2) 0.7183(17) 0.3528(17)
C22 C 0.23729(16) 0.72415(14) 0.40050(15)
C23 C 0.23080(17) 0.66775(14) 0.45144(15)
H12 H 0.1783(17) 0.6413(15) 0.4514(15)
C24 C 0.26365(17) 0.89771(14) 0.24867(14)
C26 C 0.93058(18) 0.45606(18) 0.6605(2)
H14 H 0.898(2) 0.426(2) 0.688(2)
C27 C 0.88859(16) 0.50602(14) 0.61629(16)
C28 C 0.79815(17) 0.51119(16) 0.61379(18)
H15 H 0.774(2) 0.5324(19) 0.569(2)
C29 C 0.75229(19) 0.48736(19) 0.66722(19)
H16 H 0.775(2) 0.4686(18) 0.7109(19)
C30 C 0.66190(17) 0.49170(16) 0.66835(16)
C31 C 0.62291(19) 0.4791(2) 0.73385(18)
H17 H 0.656(3) 0.468(2) 0.772(2)
C32 C 0.53823(18) 0.48359(19) 0.73538(18)
H18 H 0.515(3) 0.475(2) 0.776(2)
C33 C 0.52807(18) 0.51099(16) 0.61237(16)
H19 H 0.496(2) 0.5191(16) 0.5714(18)
C34 C 0.61170(17) 0.50775(16) 0.60634(17)
H20 H 0.629(2) 0.5150(16) 0.5612(19)
C35 C 0.93607(17) 0.55072(18) 0.57478(17)
H21 H 0.9143(19) 0.5842(17) 0.5426(17)
Zn4 Zn 0.365450(16) 0.999796(14) 0.172337(14)
O9 O 0.19566(11) 0.44138(10) 0.73839(10)
O10 O 0.33257(11) 0.42152(10) 0.74070(10)
O11 O 0.33228(12) 0.57086(10) 0.74993(10)
O12 O 0.20172(12) 0.58826(10) 0.70613(10)
C25_2 C 0.01584(18) 0.04469(17) 0.16387(19)
H13_2 H 0.0441(19) 0.0758(17) 0.1923(17)
N1_2 N 0.06133(13) 0.99922(11) 0.12619(12)
C36_2 C 0.02119(17) 0.95301(16) 0.08158(16)
H22_2 H 0.0537(18) 0.9209(16) 0.0553(16)
O1_2 O 0.35299(11) 0.06994(10) 0.08538(10)
O2_2 O 0.21681(11) 0.09103(10) 0.08767(10)
N2_2 N 0.49051(13) 0.00069(11) 0.17592(12)
C1_2 C 0.28823(16) 0.10408(13) 0.06651(14)
C2_2 C 0.29743(16) 0.16462(14) 0.01359(14)
H1_2 H 0.424(2) 0.153(2) 0.005(2)
H6_2 H 0.1746(18) 0.1928(15) 0.0130(15)
C26_2 C 0.93058(18) 0.04394(18) 0.1605(2)
H14_2 H 0.898(2) 0.074(2) 0.188(2)
C29_2 C 0.75229(19) 0.01264(19) 0.16722(19)
H16_2 H 0.775(2) 0.0314(18) 0.2109(19)
C30_2 C 0.66190(17) 0.00830(16) 0.16835(16)
C31_2 C 0.62291(19) 0.0209(2) 0.23385(18)
H17_2 H 0.656(3) 0.032(2) 0.272(2)
C32_2 C 0.53823(18) 0.01641(19) 0.23538(18)
H18_2 H 0.515(3) 0.025(2) 0.276(2)
C3_2 C 0.37661(18) 0.18047(16) 0.98701(17)
C4_2 C 0.38545(18) 0.23251(17) 0.93594(17)
H2_2 H 0.442(2) 0.2433(17) 0.9136(17)
C5_2 C 0.31563(16) 0.27185(14) 0.90841(15)
C6_2 C 0.32180(17) 0.32376(15) 0.85279(15)
H3_2 H 0.371(2) 0.3358(18) 0.8335(18)
C7_2 C 0.25303(16) 0.35965(14) 0.82510(14)
C8_2 C 0.17517(18) 0.34667(16) 0.85499(16)
H4_2 H 0.127(2) 0.3730(17) 0.8354(17)
C9_2 C 0.16721(18) 0.29749(17) 0.90946(17)
H5_2 H 0.115(2) 0.2888(17) 0.9312(18)
C10_2 C 0.23665(16) 0.25770(15) 0.93684(15)
C11_2 C 0.22985(17) 0.20342(15) 0.98977(15)
C12_2 C 0.26101(16) 0.41201(13) 0.76341(14)
O5_2 O 0.21963(11) 0.94100(10) 0.05467(10)
O6_2 O 0.35003(11) 0.92020(10) 0.09650(10)
C13_2 C 0.28810(15) 0.90852(13) 0.05428(13)
H7_2 H 0.415(2) 0.8225(17) 0.0308(18)
C27_2 C 0.88859(16) 0.99398(14) 0.11629(16)
C28_2 C 0.79815(17) 0.98881(16) 0.11379(18)
H15_2 H 0.774(2) 0.9676(19) 0.069(2)
C33_2 C 0.52807(18) 0.98901(16) 0.11237(16)
H19_2 H 0.496(2) 0.9809(16) 0.0714(18)
C34_2 C 0.61170(17) 0.99225(16) 0.10634(17)
H20_2 H 0.629(2) 0.9850(16) 0.0612(19)
C35_2 C 0.93607(17) 0.94928(18) 0.07478(17)
H21_2 H 0.9143(19) 0.9158(17) 0.0426(17)
C14_2 C 0.29619(16) 0.85042(14) 0.99862(14)
C15_2 C 0.37128(18) 0.81213(16) 0.99637(16)
C16_2 C 0.37928(18) 0.75725(16) 0.94900(16)
H8_2 H 0.430(2) 0.7288(18) 0.9503(18)
C17_2 C 0.31282(16) 0.73733(14) 0.89948(15)
C18_2 C 0.31910(17) 0.68043(15) 0.84906(15)
H9_2 H 0.3686(19) 0.6504(16) 0.8514(16)
C19_2 C 0.25403(17) 0.66249(14) 0.80175(15)
C20_2 C 0.17910(18) 0.70073(17) 0.80354(17)
H10_2 H 0.137(2) 0.6913(16) 0.7671(17)
C21_2 C 0.17043(19) 0.75565(17) 0.85126(17)
H11_2 H 0.116(2) 0.7817(17) 0.8528(17)
C22_2 C 0.23729(16) 0.77585(14) 0.90050(15)
C23_2 C 0.23080(17) 0.83225(14) 0.95144(15)
H12_2 H 0.1783(17) 0.8587(15) 0.9514(15)
C24_2 C 0.26365(17) 0.60229(14) 0.74867(14)
O7_2 O 0.66772(12) 0.42914(10) 0.25007(10)
O8_2 O 0.79828(12) 0.41174(10) 0.29387(10)
C14_3 C 0.70381(16) 0.14958(14) 0.00138(14)
C15_3 C 0.62872(18) 0.18787(16) 0.00363(16)
C16_3 C 0.62072(18) 0.24275(16) 0.05100(16)
H8_3 H 0.570(2) 0.2712(18) 0.0497(18)
C17_3 C 0.68718(16) 0.26267(14) 0.10052(15)
C18_3 C 0.68090(17) 0.31957(15) 0.15094(15)
H9_3 H 0.6314(19) 0.3496(16) 0.1486(16)
C19_3 C 0.74597(17) 0.33751(14) 0.19825(15)
C20_3 C 0.82090(18) 0.29927(17) 0.19646(17)
H10_3 H 0.863(2) 0.3087(16) 0.2329(17)
C21_3 C 0.82957(19) 0.24435(17) 0.14874(17)
H11_3 H 0.884(2) 0.2183(17) 0.1472(17)
C22_3 C 0.76271(16) 0.22415(14) 0.09950(15)
C23_3 C 0.76920(17) 0.16775(14) 0.04856(15)
H12_3 H 0.8217(17) 0.1413(15) 0.0486(15)
C24_3 C 0.73635(17) 0.39771(14) 0.25133(14)
Zn4_2 Zn 0.634550(16) 0.499796(14) 0.327663(14)
Zn6_2 Zn 0.814211(16) 0.500778(14) 0.357825(14)
Zn1_2 Zn 0.634550(16) 0.000204(14) 0.827663(14)
O5_3 O 0.78037(11) 0.05900(10) 0.94533(10)
O6_3 O 0.64997(11) 0.07980(10) 0.90350(10)
C13_3 C 0.71190(15) 0.09148(13) 0.94572(13)
H7_3 H 0.585(2) 0.1775(17) 0.9692(18)
C27_3 C 0.11141(16) 0.00602(14) 0.88371(16)
C28_3 C 0.20185(17) 0.01119(16) 0.88621(18)
H15_3 H 0.226(2) 0.0324(19) 0.931(2)
C33_3 C 0.47193(18) 0.01099(16) 0.88763(16)
H19_3 H 0.504(2) 0.0191(16) 0.9286(18)
C34_3 C 0.38830(17) 0.00775(16) 0.89366(17)
H20_3 H 0.371(2) 0.0150(16) 0.9388(19)
C35_3 C 0.06393(17) 0.05072(18) 0.92522(17)
H21_3 H 0.0857(19) 0.0842(17) 0.9574(17)
O11_2 O 0.66772(12) 0.07086(10) 0.75007(10)
O12_2 O 0.79828(12) 0.08826(10) 0.79387(10)
N3 N 0.93867(13) 0.00078(11) 0.87381(12)
O3_2 O 0.80434(11) 0.55862(10) 0.26161(10)
O4_2 O 0.66743(11) 0.57848(10) 0.25930(10)
C3_3 C 0.62339(18) 0.81953(16) 0.01299(17)
C4_3 C 0.61455(18) 0.76749(17) 0.06406(17)
H2_3 H 0.558(2) 0.7567(17) 0.0864(17)
C5_3 C 0.68437(16) 0.72815(14) 0.09159(15)
C6_3 C 0.67820(17) 0.67624(15) 0.14721(15)
H3_3 H 0.629(2) 0.6642(18) 0.1665(18)
C7_3 C 0.74697(16) 0.64035(14) 0.17490(14)
C8_3 C 0.82483(18) 0.65333(16) 0.14501(16)
H4_3 H 0.873(2) 0.6270(17) 0.1646(17)
C9_3 C 0.83279(18) 0.70251(17) 0.09054(17)
H5_3 H 0.885(2) 0.7112(17) 0.0688(18)
C10_3 C 0.76335(16) 0.74230(15) 0.06316(15)
C11_3 C 0.77015(17) 0.79658(15) 0.01023(15)
C12_3 C 0.73899(16) 0.58799(13) 0.23659(14)
Zn2 Zn 0.814211(16) 0.999222(14) 0.857825(14)
O1_3 O 0.64701(11) 0.93006(10) 0.91462(10)
O2_3 O 0.78319(11) 0.90897(10) 0.91233(10)
N2_3 N 0.50949(13) 0.99931(11) 0.82408(12)
C1_3 C 0.71177(16) 0.89592(13) 0.93349(14)
C2_3 C 0.70257(16) 0.83538(14) 0.98641(14)
H1_3 H 0.576(2) 0.847(2) 0.995(2)
H6_3 H 0.8254(18) 0.8072(15) 0.9870(15)
C26_3 C 0.06942(18) 0.95606(18) 0.8395(2)
H14_3 H 0.102(2) 0.926(2) 0.812(2)
C29_3 C 0.24771(19) 0.98736(19) 0.83278(19)
H16_3 H 0.225(2) 0.9686(18) 0.7891(19)
C30_3 C 0.33810(17) 0.99170(16) 0.83165(16)
C31_3 C 0.37709(19) 0.9791(2) 0.76615(18)
H17_3 H 0.344(3) 0.968(2) 0.728(2)
C32_3 C 0.46177(18) 0.98359(19) 0.76462(18)
H18_3 H 0.485(3) 0.975(2) 0.724(2)
O9_2 O 0.80434(11) 0.94138(10) 0.76161(10)
O10_2 O 0.66743(11) 0.92152(10) 0.75930(10)
C36_3 C 0.97881(17) 0.04699(16) 0.91842(16)
H22_3 H 0.9463(18) 0.0791(16) 0.9447(16)
C25_3 C 0.98416(18) 0.95531(17) 0.83613(19)
H13_3 H 0.9559(19) 0.9242(17) 0.8077(17)
O1_4 O 0.64701(11) 0.56994(10) 0.41462(10)
O2_4 O 0.78319(11) 0.59103(10) 0.41233(10)
O5_4 O 0.78037(11) 0.44100(10) 0.44533(10)
O6_4 O 0.64997(11) 0.42020(10) 0.40350(10)
N2_4 N 0.50949(13) 0.50069(11) 0.32408(12)
C1_4 C 0.71177(16) 0.60408(13) 0.43349(14)
C2_4 C 0.70257(16) 0.66462(14) 0.48641(14)
C3_4 C 0.62339(18) 0.68047(16) 0.51299(17)
H1_4 H 0.576(2) 0.653(2) 0.495(2)
C4_4 C 0.61455(18) 0.73251(17) 0.56406(17)
H2_4 H 0.558(2) 0.7433(17) 0.5864(17)
C5_4 C 0.68437(16) 0.77185(14) 0.59159(15)
C6_4 C 0.67820(17) 0.82376(15) 0.64721(15)
H3_4 H 0.629(2) 0.8358(18) 0.6665(18)
C7_4 C 0.74697(16) 0.85965(14) 0.67490(14)
C8_4 C 0.82483(18) 0.84667(16) 0.64501(16)
H4_4 H 0.873(2) 0.8730(17) 0.6646(17)
C9_4 C 0.83279(18) 0.79749(17) 0.59054(17)
H5_4 H 0.885(2) 0.7888(17) 0.5688(18)
C10_4 C 0.76335(16) 0.75770(15) 0.56316(15)
C11_4 C 0.77015(17) 0.70342(15) 0.51023(15)
H6_4 H 0.8254(18) 0.6928(15) 0.4870(15)
C12_4 C 0.73899(16) 0.91201(13) 0.73659(14)
C13_4 C 0.71190(15) 0.40852(13) 0.44572(13)
C14_4 C 0.70381(16) 0.35042(14) 0.50138(14)
C15_4 C 0.62872(18) 0.31213(16) 0.50363(16)
H7_4 H 0.585(2) 0.3225(17) 0.4692(18)
C16_4 C 0.62072(18) 0.25725(16) 0.55100(16)
H8_4 H 0.570(2) 0.2288(18) 0.5497(18)
C17_4 C 0.68718(16) 0.23733(14) 0.60052(15)
C18_4 C 0.68090(17) 0.18043(15) 0.65094(15)
H9_4 H 0.6314(19) 0.1504(16) 0.6486(16)
C19_4 C 0.74597(17) 0.16249(14) 0.69825(15)
C20_4 C 0.82090(18) 0.20073(17) 0.69646(17)
H10_4 H 0.863(2) 0.1913(16) 0.7329(17)
C21_4 C 0.82957(19) 0.25565(17) 0.64874(17)
H11_4 H 0.884(2) 0.2817(17) 0.6472(17)
C22_4 C 0.76271(16) 0.27585(14) 0.59950(15)
C23_4 C 0.76920(17) 0.33225(14) 0.54856(15)
H12_4 H 0.8217(17) 0.3587(15) 0.5486(15)
C24_4 C 0.73635(17) 0.10229(14) 0.75133(14)
C26_4 C 0.06942(18) 0.54394(18) 0.3395(2)
H14_4 H 0.102(2) 0.574(2) 0.312(2)
C27_4 C 0.11141(16) 0.49398(14) 0.38371(16)
C28_4 C 0.20185(17) 0.48881(16) 0.38621(18)
H15_4 H 0.226(2) 0.4676(19) 0.431(2)
C29_4 C 0.24771(19) 0.51264(19) 0.33278(19)
H16_4 H 0.225(2) 0.5314(18) 0.2891(19)
C30_4 C 0.33810(17) 0.50830(16) 0.33165(16)
C31_4 C 0.37709(19) 0.5209(2) 0.26615(18)
H17_4 H 0.344(3) 0.532(2) 0.228(2)
C32_4 C 0.46177(18) 0.51641(19) 0.26462(18)
H18_4 H 0.485(3) 0.525(2) 0.224(2)
C33_4 C 0.47193(18) 0.48901(16) 0.38763(16)
H19_4 H 0.504(2) 0.4809(16) 0.4286(18)
C34_4 C 0.38830(17) 0.49225(16) 0.39366(17)
H20_4 H 0.371(2) 0.4850(16) 0.4388(19)
C35_4 C 0.06393(17) 0.44928(18) 0.42522(17)
H21_4 H 0.0857(19) 0.4158(17) 0.4574(17)
N3_2 N 0.93867(13) 0.49922(11) 0.37381(12)
C25_4 C 0.98416(18) 0.54469(17) 0.33613(19)
H13_4 H 0.9559(19) 0.5758(17) 0.3077(17)
C36_4 C 0.97881(17) 0.45301(16) 0.41842(16)
H22_4 H 0.9463(18) 0.4209(16) 0.4447(16)
loop_
_geom_bond_atom_site_label_1
_geom_bond_atom_site_label_2
_geom_bond_site_symmetry_1
_geom_bond_site_symmetry_2
N1 C25 1_555 1_555
C25 H13 1_555 1_555
C36 N1 1_555 1_555
H22 C36 1_555 1_555
Zn7 N1 1_555 1_555
Zn1 O1 1_555 1_555
Zn7 O2 1_555 1_555
O1 C1 1_555 1_555
O2 C1 1_555 1_555
O3 C12 1_555 1_555
O4 C12 1_555 1_555
O5 Zn7 1_555 1_555
O6 Zn1 1_555 1_555
O7 C24 1_555 1_555
O8 C24 1_555 1_555
N2 Zn1 1_555 1_555
C1 C2 1_555 1_555
C2 C3 1_555 1_555
C3 H1 1_555 1_555
C4 C3 1_555 1_555
H2 C4 1_555 1_555
C5 C4 1_555 1_555
C6 C5 1_555 1_555
H3 C6 1_555 1_555
C7 C6 1_555 1_555
C8 C7 1_555 1_555
H4 C8 1_555 1_555
C9 C8 1_555 1_555
H5 C9 1_555 1_555
C10 C5 1_555 1_555
C11 C2 1_555 1_555
H6 C11 1_555 1_555
C12 C7 1_555 1_555
C13 O5 1_555 1_555
C14 C13 1_555 1_555
C15 C14 1_555 1_555
H7 C15 1_555 1_555
C16 C15 1_555 1_555
H8 C16 1_555 1_555
C17 C16 1_555 1_555
C18 C17 1_555 1_555
H9 C18 1_555 1_555
C19 C18 1_555 1_555
C20 C19 1_555 1_555
H10 C20 1_555 1_555
C21 C20 1_555 1_555
H11 C21 1_555 1_555
C22 C17 1_555 1_555
C23 C14 1_555 1_555
H12 C23 1_555 1_555
C24 C19 1_555 1_555
H14 C26 1_555 1_555
C27 C26 1_555 1_555
C28 C27 1_555 1_555
H15 C28 1_555 1_555
C29 C28 1_555 1_555
H16 C29 1_555 1_555
C30 C29 1_555 1_555
C31 C30 1_555 1_555
H17 C31 1_555 1_555
C32 N2 1_555 1_555
H18 C32 1_555 1_555
C33 N2 1_555 1_555
H19 C33 1_555 1_555
C34 C30 1_555 1_555
H20 C34 1_555 1_555
C35 C27 1_555 1_555
H21 C35 1_555 1_555
Zn4 O7 1_555 1_555
Zn6 O3 1_555 1_555
O9 Zn7 1_555 1_555
O10 Zn1 1_555 1_555
O11 Zn1 1_555 1_555
O12 Zn7 1_555 1_555
O6 C13 1_555 1_555
C9 C10 1_555 1_555
C10 C11 1_555 1_555
C21 C22 1_555 1_555
C22 C23 1_555 1_555
C31 C32 1_555 1_555
C33 C34 1_555 1_555
C25_2 H13_2 1_555 1_555
C36_2 N1_2 1_555 1_555
H22_2 C36_2 1_555 1_555
Zn6 O2_2 1_555 1_555
O1_2 C1_2 1_555 1_555
O2_2 C1_2 1_555 1_555
C1_2 C2_2 1_555 1_555
H14_2 C26_2 1_555 1_555
H16_2 C29_2 1_555 1_555
C30_2 C29_2 1_555 1_555
C31_2 C30_2 1_555 1_555
H17_2 C31_2 1_555 1_555
C32_2 N2_2 1_555 1_555
H18_2 C32_2 1_555 1_555
C31_2 C32_2 1_555 1_555
O9 C12_2 1_555 1_555
O10 C12_2 1_555 1_555
C4_2 C3_2 1_555 1_555
H2_2 C4_2 1_555 1_555
C5_2 C4_2 1_555 1_555
C6_2 C5_2 1_555 1_555
H3_2 C6_2 1_555 1_555
C7_2 C6_2 1_555 1_555
C8_2 C7_2 1_555 1_555
H4_2 C8_2 1_555 1_555
C9_2 C8_2 1_555 1_555
H5_2 C9_2 1_555 1_555
C10_2 C5_2 1_555 1_555
C12_2 C7_2 1_555 1_555
C9_2 C10_2 1_555 1_555
C10_2 C11_2 1_555 1_555
O6_2 Zn4 1_555 1_555
C13_2 O5_2 1_555 1_555
C28_2 C27_2 1_555 1_555
H15_2 C28_2 1_555 1_555
H19_2 C33_2 1_555 1_555
H20_2 C34_2 1_555 1_555
C35_2 C27_2 1_555 1_555
H21_2 C35_2 1_555 1_555
O6_2 C13_2 1_555 1_555
C33_2 C34_2 1_555 1_555
O11 C24_2 1_555 1_555
O12 C24_2 1_555 1_555
C15_2 C14_2 1_555 1_555
C16_2 C15_2 1_555 1_555
H8_2 C16_2 1_555 1_555
C17_2 C16_2 1_555 1_555
C18_2 C17_2 1_555 1_555
H9_2 C18_2 1_555 1_555
C19_2 C18_2 1_555 1_555
C20_2 C19_2 1_555 1_555
H10_2 C20_2 1_555 1_555
C21_2 C20_2 1_555 1_555
H11_2 C21_2 1_555 1_555
C22_2 C17_2 1_555 1_555
C23_2 C14_2 1_555 1_555
H12_2 C23_2 1_555 1_555
C24_2 C19_2 1_555 1_555
C21_2 C22_2 1_555 1_555
C22_2 C23_2 1_555 1_555
O7_2 C24_3 1_555 1_555
O8_2 C24_3 1_555 1_555
C15_3 C14_3 1_555 1_555
C16_3 C15_3 1_555 1_555
H8_3 C16_3 1_555 1_555
C17_3 C16_3 1_555 1_555
C18_3 C17_3 1_555 1_555
H9_3 C18_3 1_555 1_555
C19_3 C18_3 1_555 1_555
C20_3 C19_3 1_555 1_555
H10_3 C20_3 1_555 1_555
C21_3 C20_3 1_555 1_555
H11_3 C21_3 1_555 1_555
C22_3 C17_3 1_555 1_555
C23_3 C14_3 1_555 1_555
H12_3 C23_3 1_555 1_555
C24_3 C19_3 1_555 1_555
Zn4_2 O7_2 1_555 1_555
Zn6_2 O8_2 1_555 1_555
C21_3 C22_3 1_555 1_555
C22_3 C23_3 1_555 1_555
O6_3 Zn1_2 1_555 1_555
C13_3 O5_3 1_555 1_555
C28_3 C27_3 1_555 1_555
H15_3 C28_3 1_555 1_555
H19_3 C33_3 1_555 1_555
H20_3 C34_3 1_555 1_555
C35_3 C27_3 1_555 1_555
H21_3 C35_3 1_555 1_555
O11_2 Zn1_2 1_555 1_555
O6_3 C13_3 1_555 1_555
C33_3 C34_3 1_555 1_555
O3_2 C12_3 1_555 1_555
O4_2 C12_3 1_555 1_555
C4_3 C3_3 1_555 1_555
H2_3 C4_3 1_555 1_555
C5_3 C4_3 1_555 1_555
C6_3 C5_3 1_555 1_555
H3_3 C6_3 1_555 1_555
C7_3 C6_3 1_555 1_555
C8_3 C7_3 1_555 1_555
H4_3 C8_3 1_555 1_555
C9_3 C8_3 1_555 1_555
H5_3 C9_3 1_555 1_555
C10_3 C5_3 1_555 1_555
C12_3 C7_3 1_555 1_555
Zn4_2 O4_2 1_555 1_555
Zn6_2 O3_2 1_555 1_555
C9_3 C10_3 1_555 1_555
C10_3 C11_3 1_555 1_555
Zn2 O2_3 1_555 1_555
O1_3 C1_3 1_555 1_555
O2_3 C1_3 1_555 1_555
C1_3 C2_3 1_555 1_555
H14_3 C26_3 1_555 1_555
H16_3 C29_3 1_555 1_555
C30_3 C29_3 1_555 1_555
C31_3 C30_3 1_555 1_555
H17_3 C31_3 1_555 1_555
C32_3 N2_3 1_555 1_555
H18_3 C32_3 1_555 1_555
O9_2 Zn2 1_555 1_555
C31_3 C32_3 1_555 1_555
C36_3 N3 1_555 1_555
H22_3 C36_3 1_555 1_555
C25_3 H13_3 1_555 1_555
Zn4_2 O1_4 1_555 1_555
Zn6_2 O2_4 1_555 1_555
O1_4 C1_4 1_555 1_555
O2_4 C1_4 1_555 1_555
O9_2 C12_4 1_555 1_555
O10_2 C12_4 1_555 1_555
O5_4 Zn6_2 1_555 1_555
O6_4 Zn4_2 1_555 1_555
O11_2 C24_4 1_555 1_555
O12_2 C24_4 1_555 1_555
N2_4 Zn4_2 1_555 1_555
C1_4 C2_4 1_555 1_555
C2_4 C3_4 1_555 1_555
C3_4 H1_4 1_555 1_555
C4_4 C3_4 1_555 1_555
H2_4 C4_4 1_555 1_555
C5_4 C4_4 1_555 1_555
C6_4 C5_4 1_555 1_555
H3_4 C6_4 1_555 1_555
C7_4 C6_4 1_555 1_555
C8_4 C7_4 1_555 1_555
H4_4 C8_4 1_555 1_555
C9_4 C8_4 1_555 1_555
H5_4 C9_4 1_555 1_555
C10_4 C5_4 1_555 1_555
C11_4 C2_4 1_555 1_555
H6_4 C11_4 1_555 1_555
C12_4 C7_4 1_555 1_555
C13_4 O5_4 1_555 1_555
C14_4 C13_4 1_555 1_555
C15_4 C14_4 1_555 1_555
H7_4 C15_4 1_555 1_555
C16_4 C15_4 1_555 1_555
H8_4 C16_4 1_555 1_555
C17_4 C16_4 1_555 1_555
C18_4 C17_4 1_555 1_555
H9_4 C18_4 1_555 1_555
C19_4 C18_4 1_555 1_555
C20_4 C19_4 1_555 1_555
H10_4 C20_4 1_555 1_555
C21_4 C20_4 1_555 1_555
H11_4 C21_4 1_555 1_555
C22_4 C17_4 1_555 1_555
C23_4 C14_4 1_555 1_555
H12_4 C23_4 1_555 1_555
C24_4 C19_4 1_555 1_555
H14_4 C26_4 1_555 1_555
C27_4 C26_4 1_555 1_555
C28_4 C27_4 1_555 1_555
H15_4 C28_4 1_555 1_555
C29_4 C28_4 1_555 1_555
H16_4 C29_4 1_555 1_555
C30_4 C29_4 1_555 1_555
C31_4 C30_4 1_555 1_555
H17_4 C31_4 1_555 1_555
C32_4 N2_4 1_555 1_555
H18_4 C32_4 1_555 1_555
C33_4 N2_4 1_555 1_555
H19_4 C33_4 1_555 1_555
C34_4 C30_4 1_555 1_555
H20_4 C34_4 1_555 1_555
C35_4 C27_4 1_555 1_555
H21_4 C35_4 1_555 1_555
N3_2 Zn6_2 1_555 1_555
O6_4 C13_4 1_555 1_555
C9_4 C10_4 1_555 1_555
C10_4 C11_4 1_555 1_555
C21_4 C22_4 1_555 1_555
C22_4 C23_4 1_555 1_555
C31_4 C32_4 1_555 1_555
C33_4 C34_4 1_555 1_555
N3_2 C25_4 1_555 1_555
C25_4 H13_4 1_555 1_555
C36_4 N3_2 1_555 1_555
H22_4 C36_4 1_555 1_555

#END
