
###############################################################################
#
# This file contains modified crystal structure data generated from the
# MOF subset of the Cambridge Structural Database (CSD) v543 
# hosted by the Cambridge Crystallographic Data Centre (CCDC).
#
# This work is licensed under the Creative Commons
# Attribution-NonCommercial-ShareAlike 4.0 International License.
# To view a copy of this license, visit
# http://creativecommons.org/licenses/by-nc-sa/4.0/
# or send a letter to
# Creative Commons, PO Box 1866, Mountain View, CA 94042, USA.
#
# CIF created using the CSD Python API on 29 September 2022
# The structure has been converted into the P1 space group
# The structure has a 3D framework
# The original CSD entry REPHUS is in the monoclinic crystal system
# The framework has been calculated to contain at least 10.0% void space
# The void calculation uses a probe of radius 1.32A, grid spacing 0.4
#
###############################################################################

data_REPHUS
_chemical_formula_moiety         '(C88 H72 Co4 N16 O4 S4)n'
_symmetry_cell_setting           triclinic
_symmetry_space_group_name_H-M   'P 1'
_symmetry_Int_Tables_number      1
_space_group_name_Hall           'P 1'
loop_
_symmetry_equiv_pos_site_id
_symmetry_equiv_pos_as_xyz
1 x,y,z
_cell_length_a                   10.2136(9)
_cell_length_b                   19.3452(17)
_cell_length_c                   16.2214(15)
_cell_angle_alpha                90
_cell_angle_beta                 107.027(3)
_cell_angle_gamma                90
_cell_volume                     3064.6
loop_
_atom_site_label
_atom_site_type_symbol
_atom_site_fract_x
_atom_site_fract_y
_atom_site_fract_z
C14 C 0.3539(3) 0.01467(14) 0.14287(18)
H9 H 0.3078 0.0515 0.1074
H10 H 0.2304 0.0162 0.2223
Co4 Co 0.5000 0.0000 0.0000
Co4_2 Co 0.5000 0.0000 1.0000
Co1 Co 0.5000 0.5000 0.5000
S1 S 0.95035(13) 0.55564(9) 0.67920(8)
O1 O 0.1966(3) 0.91635(14) 0.60715(15)
N1 N 0.4444(3) 0.60836(12) 0.47897(15)
N2 N 0.3596(3) 0.84637(13) 0.35868(17)
N3 N 0.4590(3) 0.98477(12) 0.12413(14)
N4 N 0.7008(3) 0.52658(13) 0.55430(15)
C1 C 0.3261(3) 0.62991(15) 0.4853(2)
C2 C 0.2779(3) 0.69813(16) 0.4692(2)
C3 C 0.3587(3) 0.74575(14) 0.44368(19)
C4 C 0.4898(4) 0.72432(16) 0.4413(2)
C5 C 0.5282(4) 0.65694(14) 0.4600(2)
C6 C 0.3097(3) 0.81697(14) 0.41796(17)
C7 C 0.2191(3) 0.85106(15) 0.45487(18)
C8 C 0.1756(4) 0.91781(16) 0.42932(19)
C9 C 0.2286(4) 0.94709(17) 0.36687(19)
C10 C 0.3175(4) 0.91049(14) 0.33426(19)
C11 C 0.3694(3) 0.93885(15) 0.26313(18)
C12 C 0.4821(4) 0.90892(17) 0.2454(2)
C13 C 0.5243(3) 0.93371(17) 0.1771(2)
C15 C 0.3067(3) 0.99378(16) 0.21176(19)
C16 C 0.0859(4) 0.95906(15) 0.4669(2)
C18 C 0.0974(4) 0.95747(16) 0.5561(2)
C19 C 0.2059(7) 0.9132(3) 0.6968(2)
C20 C 0.3071(8) 0.8593(3) 0.7361(3)
C21 C 0.2739(10) 0.7870(4) 0.7022(4)
C22 C 0.8047(4) 0.53919(17) 0.6049(2)
H1 H 0.2686 0.5973 0.5015
H2 H 0.1917 0.7112 0.4754
H3 H 0.5492 0.7560 0.4253
H4 H 0.6173 0.6435 0.4594
H5 H 0.1850 0.8278 0.4959
H6 H 0.2020 0.9926 0.3467
H7 H 0.5298 0.8719 0.2798
H8 H 0.6025 0.9133 0.1667
H12 H 0.2346 0.9567 0.7231
H13 H 0.1198 0.9012 0.7042
H14 H 0.3202 0.8593 0.7965
H15 H 0.3908 0.8707 0.7249
H16 H 0.3438 0.7553 0.7302
H17 H 0.1908 0.7745 0.7135
H18 H 0.2614 0.7859 0.6419
C39 C 0.0146(4) 0.99899(18) 0.58831(19)
H29 H 0.0231 0.9983 0.6482
S2 S 0.04965(13) 0.44436(9) 0.32080(8)
N8 N 0.2992(3) 0.47342(13) 0.44570(15)
C44 C 0.1953(4) 0.46081(17) 0.3951(2)
Co4_3 Co 0.5000 1.0000 0.0000
N9 N 0.5556(3) 0.39164(12) 0.52103(15)
N10 N 0.4590(3) 0.51523(12) 0.62413(14)
N11 N 0.5410(3) 0.48477(12) 0.37587(14)
Co4_4 Co 0.5000 1.0000 1.0000
C17 C 0.9854(4) 0.00101(18) 0.41169(19)
H11 H 0.9769 0.0017 0.3518
O2 O 0.8034(3) 0.08365(14) 0.39285(15)
N6 N 0.6404(3) 0.15363(13) 0.64132(17)
N7 N 0.5410(3) 0.01523(12) 0.87587(14)
C23 C 0.6739(3) 0.37009(15) 0.5147(2)
C24 C 0.7221(3) 0.30187(16) 0.5308(2)
C25 C 0.6413(3) 0.25425(14) 0.55632(19)
C26 C 0.5102(4) 0.27568(16) 0.5587(2)
C27 C 0.4718(4) 0.34306(14) 0.5400(2)
C28 C 0.6903(3) 0.18303(14) 0.58204(17)
C29 C 0.7809(3) 0.14894(15) 0.54513(18)
C30 C 0.8244(4) 0.08219(16) 0.57068(19)
C31 C 0.7714(4) 0.05291(17) 0.63313(19)
C32 C 0.6825(4) 0.08951(14) 0.66574(19)
C33 C 0.6306(3) 0.06115(15) 0.73687(18)
C34 C 0.5179(4) 0.09108(17) 0.7546(2)
C35 C 0.4757(3) 0.06629(17) 0.8229(2)
C37 C 0.6933(3) 0.00622(16) 0.78824(19)
C38 C 0.9141(4) 0.04094(15) 0.5331(2)
C40 C 0.9026(4) 0.04253(16) 0.4439(2)
C41 C 0.7941(7) 0.0868(3) 0.3032(2)
C42 C 0.6929(8) 0.1407(3) 0.2639(3)
C43 C 0.7261(10) 0.2130(4) 0.2978(4)
H19 H 0.7314 0.4027 0.4985
H20 H 0.8083 0.2888 0.5246
H21 H 0.4508 0.2440 0.5747
H22 H 0.3827 0.3565 0.5406
H23 H 0.8150 0.1722 0.5041
H24 H 0.7980 0.0074 0.6533
H25 H 0.4702 0.1281 0.7202
H26 H 0.3975 0.0867 0.8333
H30 H 0.7654 0.0433 0.2769
H31 H 0.8802 0.0988 0.2958
H32 H 0.6798 0.1407 0.2035
H33 H 0.6092 0.1293 0.2751
H34 H 0.6562 0.2447 0.2698
H35 H 0.8092 0.2255 0.2865
H36 H 0.7386 0.2141 0.3581
C36 C 0.6461(3) 0.98533(14) 0.85713(18)
H27 H 0.6922 0.9485 0.8926
H28 H 0.7696 0.9838 0.7777
C17_2 C 0.0146(4) 0.50101(18) 0.08831(19)
H11_2 H 0.0231 0.5017 0.1482
O2_2 O 0.1966(3) 0.58365(14) 0.10715(15)
C40_2 C 0.0974(4) 0.54253(16) 0.0561(2)
C41_2 C 0.2059(7) 0.5868(3) 0.1968(2)
C42_2 C 0.3071(8) 0.6407(3) 0.2361(3)
C43_2 C 0.2739(10) 0.7130(4) 0.2022(4)
H19_2 H 0.2686 0.9027 0.0015
H30_2 H 0.2346 0.5433 0.2231
H31_2 H 0.1198 0.5988 0.2042
H32_2 H 0.3202 0.6407 0.2965
H33_2 H 0.3908 0.6293 0.2249
H34_2 H 0.3438 0.7447 0.2302
H35_2 H 0.1908 0.7255 0.2135
H36_2 H 0.2614 0.7141 0.1419
N5 N 0.4444(3) 0.89164(12) 0.97897(15)
N6_2 N 0.3596(3) 0.65363(13) 0.85868(17)
C23_2 C 0.3261(3) 0.87009(15) 0.9853(2)
C24_2 C 0.2779(3) 0.80187(16) 0.9692(2)
C25_2 C 0.3587(3) 0.75425(14) 0.94368(19)
C26_2 C 0.4898(4) 0.77568(16) 0.9413(2)
C27_2 C 0.5282(4) 0.84306(14) 0.9600(2)
C28_2 C 0.3097(3) 0.68303(14) 0.91796(17)
C29_2 C 0.2191(3) 0.64894(15) 0.95487(18)
C30_2 C 0.1756(4) 0.58219(16) 0.92932(19)
C31_2 C 0.2286(4) 0.55291(17) 0.86687(19)
C32_2 C 0.3175(4) 0.58951(14) 0.83426(19)
C33_2 C 0.3694(3) 0.56115(15) 0.76313(18)
C34_2 C 0.4821(4) 0.59108(17) 0.7454(2)
C35_2 C 0.5243(3) 0.56629(17) 0.6771(2)
C36_2 C 0.3539(3) 0.48533(14) 0.64287(18)
C37_2 C 0.3067(3) 0.50622(16) 0.71176(19)
C38_2 C 0.0859(4) 0.54094(15) 0.9669(2)
H20_2 H 0.1917 0.7888 0.9754
H21_2 H 0.5492 0.7440 0.9253
H22_2 H 0.6173 0.8565 0.9594
H23_2 H 0.1850 0.6722 0.9959
H24_2 H 0.2020 0.5074 0.8467
H25_2 H 0.5298 0.6281 0.7798
H26_2 H 0.6025 0.5867 0.6667
H27_2 H 0.3078 0.4485 0.6074
H28_2 H 0.2304 0.4838 0.7223
N1_2 N 0.5556(3) 0.10836(12) 0.02103(15)
N2_2 N 0.6404(3) 0.34637(13) 0.14132(17)
C1_2 C 0.6739(3) 0.12991(15) 0.0147(2)
C2_2 C 0.7221(3) 0.19813(16) 0.0308(2)
C3_2 C 0.6413(3) 0.24575(14) 0.05632(19)
C4_2 C 0.5102(4) 0.22432(16) 0.0587(2)
C5_2 C 0.4718(4) 0.15694(14) 0.0400(2)
C6_2 C 0.6903(3) 0.31697(14) 0.08204(17)
C7_2 C 0.7809(3) 0.35106(15) 0.04513(18)
C8_2 C 0.8244(4) 0.41781(16) 0.07068(19)
C9_2 C 0.7714(4) 0.44709(17) 0.13313(19)
C10_2 C 0.6825(4) 0.41049(14) 0.16574(19)
C11_2 C 0.6306(3) 0.43885(15) 0.23687(18)
C12_2 C 0.5179(4) 0.40892(17) 0.2546(2)
C13_2 C 0.4757(3) 0.43371(17) 0.3229(2)
C14_2 C 0.6461(3) 0.51467(14) 0.35713(18)
C15_2 C 0.6933(3) 0.49378(16) 0.28824(19)
C16_2 C 0.9141(4) 0.45906(15) 0.0331(2)
H2_2 H 0.8083 0.2112 0.0246
H3_2 H 0.4508 0.2560 0.0747
H4_2 H 0.3827 0.1435 0.0406
H5_2 H 0.8150 0.3278 0.0041
H6_2 H 0.7980 0.4926 0.1533
H7_2 H 0.4702 0.3719 0.2202
H8_2 H 0.3975 0.4133 0.3333
H9_2 H 0.6922 0.5515 0.3926
H10_2 H 0.7696 0.5162 0.2777
S1_2 S 0.04965(13) 0.05564(9) 0.82080(8)
O1_2 O 0.8034(3) 0.41635(14) 0.89285(15)
N4_2 N 0.2992(3) 0.02658(13) 0.94570(15)
C18_2 C 0.9026(4) 0.45747(16) 0.9439(2)
C19_2 C 0.7941(7) 0.4132(3) 0.8032(2)
C20_2 C 0.6929(8) 0.3593(3) 0.7639(3)
C21_2 C 0.7261(10) 0.2870(4) 0.7978(4)
C22_2 C 0.1953(4) 0.03919(17) 0.8951(2)
H1_2 H 0.7314 0.0973 0.9985
H12_2 H 0.7654 0.4567 0.7769
H13_2 H 0.8802 0.4012 0.7958
H14_2 H 0.6798 0.3593 0.7035
H15_2 H 0.6092 0.3707 0.7751
H16_2 H 0.6562 0.2553 0.7698
H17_2 H 0.8092 0.2745 0.7865
H18_2 H 0.7386 0.2859 0.8581
C39_2 C 0.9854(4) 0.49899(18) 0.91169(19)
H29_2 H 0.9769 0.4983 0.8518
S2_2 S 0.95035(13) 0.94436(9) 0.17920(8)
N8_2 N 0.7008(3) 0.97342(13) 0.05430(15)
C44_2 C 0.8047(4) 0.96081(17) 0.1049(2)
loop_
_geom_bond_atom_site_label_1
_geom_bond_atom_site_label_2
_geom_bond_site_symmetry_1
_geom_bond_site_symmetry_2
H9 C14 1_555 1_555
Co1 N1 1_555 1_555
S1 C22 1_555 1_555
O1 C18 1_555 1_555
N1 C1 1_555 1_555
N2 C6 1_555 1_555
N3 C13 1_555 1_555
N4 Co1 1_555 1_555
C1 C2 1_555 1_555
C2 C3 1_555 1_555
C3 C4 1_555 1_555
C4 C5 1_555 1_555
C5 N1 1_555 1_555
C6 C3 1_555 1_555
C7 C6 1_555 1_555
C8 C7 1_555 1_555
C9 C8 1_555 1_555
C10 N2 1_555 1_555
C11 C10 1_555 1_555
C12 C11 1_555 1_555
C13 C12 1_555 1_555
C15 C11 1_555 1_555
C16 C8 1_555 1_555
C18 C16 1_555 1_555
C19 O1 1_555 1_555
C20 C19 1_555 1_555
C21 C20 1_555 1_555
C22 N4 1_555 1_555
H1 C1 1_555 1_555
H2 C2 1_555 1_555
H3 C4 1_555 1_555
H4 C5 1_555 1_555
H5 C7 1_555 1_555
H6 C9 1_555 1_555
H7 C12 1_555 1_555
H8 C13 1_555 1_555
H12 C19 1_555 1_555
H13 C19 1_555 1_555
H14 C20 1_555 1_555
H15 C20 1_555 1_555
H16 C21 1_555 1_555
H17 C21 1_555 1_555
H18 C21 1_555 1_555
C39 C18 1_555 1_555
H29 C39 1_555 1_555
S2 C44 1_555 1_555
N8 Co1 1_555 1_555
C44 N8 1_555 1_555
Co4_3 N3 1_555 1_555
N9 Co1 1_555 1_555
N10 Co1 1_555 1_555
N11 Co1 1_555 1_555
C9 C10 1_555 1_555
H11 C17 1_555 1_555
O2 C40 1_555 1_555
N9 C23 1_555 1_555
N6 C28 1_555 1_555
N7 C35 1_555 1_555
C23 C24 1_555 1_555
C24 C25 1_555 1_555
C25 C26 1_555 1_555
C26 C27 1_555 1_555
C27 N9 1_555 1_555
C28 C25 1_555 1_555
C29 C28 1_555 1_555
C30 C29 1_555 1_555
C31 C30 1_555 1_555
C32 N6 1_555 1_555
C33 C32 1_555 1_555
C34 C33 1_555 1_555
C35 C34 1_555 1_555
C37 C33 1_555 1_555
C38 C30 1_555 1_555
C40 C17 1_555 1_555
C41 O2 1_555 1_555
C42 C41 1_555 1_555
C43 C42 1_555 1_555
H19 C23 1_555 1_555
H20 C24 1_555 1_555
H21 C26 1_555 1_555
H22 C27 1_555 1_555
H23 C29 1_555 1_555
H24 C31 1_555 1_555
H25 C34 1_555 1_555
H26 C35 1_555 1_555
H30 C41 1_555 1_555
H31 C41 1_555 1_555
H32 C42 1_555 1_555
H33 C42 1_555 1_555
H34 C43 1_555 1_555
H35 C43 1_555 1_555
H36 C43 1_555 1_555
Co4_2 N7 1_555 1_555
C31 C32 1_555 1_555
C38 C40 1_555 1_555
H27 C36 1_555 1_555
H11_2 C17_2 1_555 1_555
O2_2 C40_2 1_555 1_555
C40_2 C17_2 1_555 1_555
C41_2 O2_2 1_555 1_555
C42_2 C41_2 1_555 1_555
C43_2 C42_2 1_555 1_555
H30_2 C41_2 1_555 1_555
H31_2 C41_2 1_555 1_555
H32_2 C42_2 1_555 1_555
H33_2 C42_2 1_555 1_555
H34_2 C43_2 1_555 1_555
H35_2 C43_2 1_555 1_555
H36_2 C43_2 1_555 1_555
N5 C23_2 1_555 1_555
N6_2 C28_2 1_555 1_555
N10 C35_2 1_555 1_555
C23_2 C24_2 1_555 1_555
C24_2 C25_2 1_555 1_555
C25_2 C26_2 1_555 1_555
C26_2 C27_2 1_555 1_555
C27_2 N5 1_555 1_555
C28_2 C25_2 1_555 1_555
C29_2 C28_2 1_555 1_555
C30_2 C29_2 1_555 1_555
C31_2 C30_2 1_555 1_555
C32_2 N6_2 1_555 1_555
C33_2 C32_2 1_555 1_555
C34_2 C33_2 1_555 1_555
C35_2 C34_2 1_555 1_555
C36_2 N10 1_555 1_555
C37_2 C33_2 1_555 1_555
C38_2 C30_2 1_555 1_555
H20_2 C24_2 1_555 1_555
H21_2 C26_2 1_555 1_555
H22_2 C27_2 1_555 1_555
H23_2 C29_2 1_555 1_555
H24_2 C31_2 1_555 1_555
H25_2 C34_2 1_555 1_555
H26_2 C35_2 1_555 1_555
H27_2 C36_2 1_555 1_555
H28_2 C37_2 1_555 1_555
Co4_4 N5 1_555 1_555
C31_2 C32_2 1_555 1_555
C36_2 C37_2 1_555 1_555
Co4 N1_2 1_555 1_555
N1_2 C1_2 1_555 1_555
N2_2 C6_2 1_555 1_555
N11 C13_2 1_555 1_555
C1_2 C2_2 1_555 1_555
C2_2 C3_2 1_555 1_555
C3_2 C4_2 1_555 1_555
C4_2 C5_2 1_555 1_555
C5_2 N1_2 1_555 1_555
C6_2 C3_2 1_555 1_555
C7_2 C6_2 1_555 1_555
C8_2 C7_2 1_555 1_555
C9_2 C8_2 1_555 1_555
C10_2 N2_2 1_555 1_555
C11_2 C10_2 1_555 1_555
C12_2 C11_2 1_555 1_555
C13_2 C12_2 1_555 1_555
C14_2 N11 1_555 1_555
C15_2 C11_2 1_555 1_555
C16_2 C8_2 1_555 1_555
H2_2 C2_2 1_555 1_555
H3_2 C4_2 1_555 1_555
H4_2 C5_2 1_555 1_555
H5_2 C7_2 1_555 1_555
H6_2 C9_2 1_555 1_555
H7_2 C12_2 1_555 1_555
H8_2 C13_2 1_555 1_555
H9_2 C14_2 1_555 1_555
H10_2 C15_2 1_555 1_555
C9_2 C10_2 1_555 1_555
C14_2 C15_2 1_555 1_555
S1_2 C22_2 1_555 1_555
O1_2 C18_2 1_555 1_555
N4_2 Co4_2 1_555 1_555
C19_2 O1_2 1_555 1_555
C20_2 C19_2 1_555 1_555
C21_2 C20_2 1_555 1_555
C22_2 N4_2 1_555 1_555
H12_2 C19_2 1_555 1_555
H13_2 C19_2 1_555 1_555
H14_2 C20_2 1_555 1_555
H15_2 C20_2 1_555 1_555
H16_2 C21_2 1_555 1_555
H17_2 C21_2 1_555 1_555
H18_2 C21_2 1_555 1_555
C39_2 C18_2 1_555 1_555
H29_2 C39_2 1_555 1_555
S2_2 C44_2 1_555 1_555
N8_2 Co4_3 1_555 1_555
C44_2 N8_2 1_555 1_555

#END
