
###############################################################################
#
# This file contains modified crystal structure data generated from the
# MOF subset of the Cambridge Structural Database (CSD) v543 
# hosted by the Cambridge Crystallographic Data Centre (CCDC).
#
# This work is licensed under the Creative Commons
# Attribution-NonCommercial-ShareAlike 4.0 International License.
# To view a copy of this license, visit
# http://creativecommons.org/licenses/by-nc-sa/4.0/
# or send a letter to
# Creative Commons, PO Box 1866, Mountain View, CA 94042, USA.
#
# CIF created using the CSD Python API on 29 September 2022
# The structure has been converted into the P1 space group
# The structure has a 3D framework
# The original CSD entry RESHAB is in the hexagonal crystal system
# The framework has been calculated to contain at least 10.0% void space
# The void calculation uses a probe of radius 1.32A, grid spacing 0.4
#
###############################################################################

data_RESHAB
_chemical_formula_moiety         '(C40 H16 O12 Rb6)n'
_symmetry_cell_setting           triclinic
_symmetry_space_group_name_H-M   'P 1'
_symmetry_Int_Tables_number      1
_space_group_name_Hall           'P 1'
loop_
_symmetry_equiv_pos_site_id
_symmetry_equiv_pos_as_xyz
1 x,y,z
_cell_length_a                   11.6406(19)
_cell_length_b                   11.6406(19)
_cell_length_c                   8.6575(14)
_cell_angle_alpha                90
_cell_angle_beta                 90
_cell_angle_gamma                120
_cell_volume                     1015.95
loop_
_atom_site_label
_atom_site_type_symbol
_atom_site_fract_x
_atom_site_fract_y
_atom_site_fract_z
Rb10 Rb 0.13053(3) 0.44356(4) 0.000000
C1 C 0.0045(2) 0.3531(2) 0.4209(3)
H1 H 0.077154 0.355419 0.368244
C11 C 0.0045(2) 0.3531(2) 0.5791(3)
H5 H 0.077154 0.355419 0.631756
Rb10_2 Rb 0.13053(3) 0.44356(4) 1.000000
O7 O 0.10396(15) 0.65335(15) 0.18408(19)
O10 O 0.10396(15) 0.65335(15) 0.81592(19)
Rb4 Rb 0.68697(3) 0.13053(3) 0.000000
Rb5 Rb 0.86947(3) 0.55644(4) 0.000000
Rb6 Rb 0.44356(4) 0.31303(3) 0.000000
Rb12 Rb 0.55644(4) 0.68697(3) 0.000000
O1 O 0.89604(15) 0.34665(15) 0.18408(19)
C2 C 0.89826(19) 0.34980(19) 0.3310(3)
C3 C 0.7913(2) 0.34315(19) 0.4209(2)
C4 C 0.666667 0.333333 0.3511(4)
H2 H 0.666666 0.333333 0.235585
O2 O 0.65335(15) 0.54939(21) 0.18408(19)
C5 C 0.6469(2) 0.6514(3) 0.4209(3)
H3 H 0.644581 0.721735 0.368244
C6 C 0.65020(19) 0.54846(27) 0.3310(3)
C7 C 0.65685(19) 0.44815(28) 0.4209(2)
O3 O 0.45061(21) 0.10396(15) 0.18408(19)
C9 C 0.45154(27) 0.10174(19) 0.3310(3)
C10 C 0.55185(28) 0.2087(2) 0.4209(2)
O4 O 0.89604(15) 0.34665(15) 0.81592(19)
C12 C 0.89826(19) 0.34980(19) 0.6690(3)
C13 C 0.7913(2) 0.34315(19) 0.5791(2)
C14 C 0.666667 0.333333 0.6489(4)
H6 H 0.666666 0.333333 0.764415
O5 O 0.65335(15) 0.54939(21) 0.81592(19)
C15 C 0.6469(2) 0.6514(3) 0.5791(3)
H7 H 0.644581 0.721735 0.631756
C16 C 0.65020(19) 0.54846(27) 0.6690(3)
C17 C 0.65685(19) 0.44815(28) 0.5791(2)
O6 O 0.45061(21) 0.10396(15) 0.81592(19)
C19 C 0.45154(27) 0.10174(19) 0.6690(3)
C20 C 0.55185(28) 0.2087(2) 0.5791(2)
Rb4_2 Rb 0.68697(3) 0.13053(3) 1.000000
Rb5_2 Rb 0.86947(3) 0.55644(4) 1.000000
Rb6_2 Rb 0.44356(4) 0.31303(3) 1.000000
Rb12_2 Rb 0.55644(4) 0.68697(3) 1.000000
O8 O 0.34665(15) 0.45061(21) 0.18408(19)
O11 O 0.34665(15) 0.45061(21) 0.81592(19)
Rb8 Rb 0.31303(3) 0.86947(3) 0.000000
C8 C 0.3486(3) 0.9955(2) 0.4209(3)
H4 H 0.278265 0.922846 0.368244
C18 C 0.3486(3) 0.9955(2) 0.5791(3)
H8 H 0.278265 0.922846 0.631756
Rb8_2 Rb 0.31303(3) 0.86947(3) 1.000000
O9 O 0.54939(21) 0.89604(15) 0.18408(19)
O12 O 0.54939(21) 0.89604(15) 0.81592(19)
C8_2 C 0.6514(3) 0.0045(2) 0.4209(3)
H4_2 H 0.721735 0.077154 0.368244
C18_2 C 0.6514(3) 0.0045(2) 0.5791(3)
H8_2 H 0.721735 0.077154 0.631756
C2_2 C 0.10174(19) 0.65020(19) 0.3310(3)
C3_2 C 0.2087(2) 0.65685(19) 0.4209(2)
C4_2 C 0.333333 0.666667 0.3511(4)
H2_2 H 0.333334 0.666667 0.235585
C5_2 C 0.3531(2) 0.3486(3) 0.4209(3)
H3_2 H 0.355419 0.278265 0.368244
C6_2 C 0.34980(19) 0.45154(27) 0.3310(3)
C7_2 C 0.34315(19) 0.55185(28) 0.4209(2)
C9_2 C 0.54846(27) 0.89826(19) 0.3310(3)
C10_2 C 0.44815(28) 0.7913(2) 0.4209(2)
C12_2 C 0.10174(19) 0.65020(19) 0.6690(3)
C13_2 C 0.2087(2) 0.65685(19) 0.5791(2)
C14_2 C 0.333333 0.666667 0.6489(4)
H6_2 H 0.333334 0.666667 0.764415
C15_2 C 0.3531(2) 0.3486(3) 0.5791(3)
H7_2 H 0.355419 0.278265 0.631756
C16_2 C 0.34980(19) 0.45154(27) 0.6690(3)
C17_2 C 0.34315(19) 0.55185(28) 0.5791(2)
C19_2 C 0.54846(27) 0.89826(19) 0.6690(3)
C20_2 C 0.44815(28) 0.7913(2) 0.5791(2)
C1_2 C 0.9955(2) 0.6469(2) 0.4209(3)
H1_2 H 0.922846 0.644581 0.368244
C11_2 C 0.9955(2) 0.6469(2) 0.5791(3)
H5_2 H 0.922846 0.644581 0.631756
loop_
_geom_bond_atom_site_label_1
_geom_bond_atom_site_label_2
_geom_bond_site_symmetry_1
_geom_bond_site_symmetry_2
C1 H1 1_555 1_555
C11 C1 1_555 1_555
H5 C11 1_555 1_555
Rb10 O7 1_555 1_555
Rb10_2 O10 1_555 1_555
Rb4 O1 1_555 1_555
O1 C2 1_555 1_555
C3 C2 1_555 1_555
C4 C3 1_555 1_555
H2 C4 1_555 1_555
O2 C6 1_555 1_555
C5 H3 1_555 1_555
C6 C5 1_555 1_555
C7 C4 1_555 1_555
O3 Rb4 1_555 1_555
C9 O3 1_555 1_555
C10 C4 1_555 1_555
O4 C12 1_555 1_555
C13 C3 1_555 1_555
C14 C13 1_555 1_555
H6 C14 1_555 1_555
O5 C16 1_555 1_555
C15 C5 1_555 1_555
H7 C15 1_555 1_555
C16 C15 1_555 1_555
C17 C7 1_555 1_555
O6 C19 1_555 1_555
C20 C10 1_555 1_555
Rb5 O1 1_555 1_555
Rb6 O2 1_555 1_555
Rb4_2 O4 1_555 1_555
Rb5_2 O4 1_555 1_555
Rb6_2 O5 1_555 1_555
Rb12 O2 1_555 1_555
Rb12_2 O5 1_555 1_555
O8 Rb6 1_555 1_555
O2 Rb5 1_555 1_555
C6 C7 1_555 1_555
O3 Rb6 1_555 1_555
C9 C10 1_555 1_555
C12 C13 1_555 1_555
C14 C17 1_555 1_555
C14 C20 1_555 1_555
O5 Rb5_2 1_555 1_555
C16 C17 1_555 1_555
O6 Rb4_2 1_555 1_555
O6 Rb6_2 1_555 1_555
C19 C20 1_555 1_555
Rb12 O8 1_555 1_555
O11 Rb6_2 1_555 1_555
Rb12_2 O11 1_555 1_555
C8 H4 1_555 1_555
C18 C8 1_555 1_555
H8 C18 1_555 1_555
Rb8 O9 1_555 1_555
Rb8_2 O12 1_555 1_555
C8_2 H4_2 1_555 1_555
C18_2 C8_2 1_555 1_555
H8_2 C18_2 1_555 1_555
Rb8 O7 1_555 1_555
O7 C2_2 1_555 1_555
C3_2 C2_2 1_555 1_555
C4_2 C3_2 1_555 1_555
H2_2 C4_2 1_555 1_555
O8 C6_2 1_555 1_555
C5_2 H3_2 1_555 1_555
C6_2 C5_2 1_555 1_555
C7_2 C4_2 1_555 1_555
C9_2 O9 1_555 1_555
C10_2 C4_2 1_555 1_555
O10 C12_2 1_555 1_555
C13_2 C3_2 1_555 1_555
C14_2 C13_2 1_555 1_555
H6_2 C14_2 1_555 1_555
O11 C16_2 1_555 1_555
C15_2 C5_2 1_555 1_555
H7_2 C15_2 1_555 1_555
C16_2 C15_2 1_555 1_555
C17_2 C7_2 1_555 1_555
O12 C19_2 1_555 1_555
C20_2 C10_2 1_555 1_555
Rb8_2 O10 1_555 1_555
O8 Rb10 1_555 1_555
C6_2 C7_2 1_555 1_555
O9 Rb12 1_555 1_555
C9_2 C10_2 1_555 1_555
C12_2 C13_2 1_555 1_555
C14_2 C17_2 1_555 1_555
C14_2 C20_2 1_555 1_555
O11 Rb10_2 1_555 1_555
C16_2 C17_2 1_555 1_555
O12 Rb12_2 1_555 1_555
C19_2 C20_2 1_555 1_555
C1_2 H1_2 1_555 1_555
C11_2 C1_2 1_555 1_555
H5_2 C11_2 1_555 1_555

#END
