
###############################################################################
#
# This file contains modified crystal structure data generated from the
# MOF subset of the Cambridge Structural Database (CSD) v543 
# hosted by the Cambridge Crystallographic Data Centre (CCDC).
#
# This work is licensed under the Creative Commons
# Attribution-NonCommercial-ShareAlike 4.0 International License.
# To view a copy of this license, visit
# http://creativecommons.org/licenses/by-nc-sa/4.0/
# or send a letter to
# Creative Commons, PO Box 1866, Mountain View, CA 94042, USA.
#
# CIF created using the CSD Python API on 29 September 2022
# The structure has been converted into the P1 space group
# The structure has a 3D framework
# The original CSD entry RESSAK is in the monoclinic crystal system
# The original CSD entry RESSAK is in a Sohncke space group
# The framework has been calculated to contain at least 10.0% void space
# The void calculation uses a probe of radius 1.32A, grid spacing 0.4
#
###############################################################################

data_RESSAK
_chemical_formula_moiety         '(C72 H52 N8 Ni4 O16 S6)n'
_symmetry_cell_setting           triclinic
_symmetry_space_group_name_H-M   'P 1'
_symmetry_Int_Tables_number      1
_space_group_name_Hall           'P 1'
loop_
_symmetry_equiv_pos_site_id
_symmetry_equiv_pos_as_xyz
1 x,y,z
_cell_length_a                   25.122(7)
_cell_length_b                   8.253(2)
_cell_length_c                   11.259(3)
_cell_angle_alpha                90
_cell_angle_beta                 108.145(8)
_cell_angle_gamma                90
_cell_volume                     2218.27
loop_
_atom_site_label
_atom_site_type_symbol
_atom_site_fract_x
_atom_site_fract_y
_atom_site_fract_z
Ni2 Ni 0.31378(2) 0.54981(6) 0.07006(5)
N5 N 0.31942(15) 0.5397(7) 0.2616(3)
O7 O 0.29581(15) 0.3036(4) 0.0536(3)
O10 O 0.22877(12) 0.5693(4) 0.0377(3)
O12 O 0.39911(14) 0.5057(4) 0.1285(3)
O14 O 0.32848(15) 0.7950(4) 0.0845(3)
H25 H 0.3288 0.8321 0.0143
H26 H 0.3587 0.8127 0.1376
C8 C 0.4116(2) 0.3600(6) 0.1250(5)
O4 O 0.43433(15) 0.2733(4) 0.2173(4)
S1 S 0.5000 0.4199(2) 0.0000
Ni6 Ni 0.81378(2) 0.04981(6) 0.07006(5)
C19 C 0.64827(19) 0.1877(6) 0.0604(4)
C20 C 0.59913(19) 0.2772(6) 0.0010(4)
C21 C 0.5573(2) 0.2852(6) 0.0599(5)
C22 C 0.5632(2) 0.1978(7) 0.1699(5)
H14 H 0.5353 0.2023 0.2082
C23 C 0.6093(2) 0.1073(6) 0.2199(4)
H15 H 0.6130 0.0498 0.2931
C24 C 0.6514(2) 0.0979(6) 0.1644(5)
H16 H 0.6819 0.0300 0.1981
C25 C 0.69669(19) 0.1867(6) 0.0078(4)
C27 C 0.2667(2) 0.5035(6) 0.7882(5)
H17 H 0.2356 0.4630 0.8068
C28 C 0.2672(2) 0.4974(6) 0.6679(5)
H18 H 0.2364 0.4567 0.6057
C29 C 0.31379(18) 0.5518(9) 0.6375(4)
C30 C 0.3580(2) 0.6177(7) 0.7341(5)
H19 H 0.3896 0.6584 0.7178
C31 C 0.3542(2) 0.6217(6) 0.8537(4)
H20 H 0.3839 0.6646 0.9176
C32 C 0.3465(2) 0.6484(7) 0.3398(4)
H21 H 0.3673 0.7248 0.3125
C33 C 0.3460(2) 0.6570(7) 0.4650(5)
H22 H 0.3648 0.7394 0.5178
C34 C 0.3165(2) 0.5382(8) 0.5073(4)
C35 C 0.2887(2) 0.4263(7) 0.4261(5)
H23 H 0.2678 0.3479 0.4510
C36 C 0.2911(2) 0.4267(6) 0.3041(4)
H24 H 0.2723 0.3457 0.2497
N3 N 0.30928(17) 0.5659(6) 0.8814(3)
O8 O 0.72877(12) 0.0693(4) 0.0377(3)
C1 C 0.35173(19) 0.1877(6) 0.9396(4)
C2 C 0.40087(19) 0.2772(6) 0.9990(4)
C3 C 0.4427(2) 0.2852(6) 0.9401(5)
C4 C 0.4368(2) 0.1978(7) 0.8301(5)
H1 H 0.4647 0.2023 0.7918
C5 C 0.3907(2) 0.1073(6) 0.7801(4)
H2 H 0.3870 0.0498 0.7069
C6 C 0.3486(2) 0.0979(6) 0.8356(5)
H3 H 0.3181 0.0300 0.8019
C7 C 0.30331(19) 0.1867(6) 0.9922(4)
O2 O 0.27123(12) 0.0693(4) 0.9623(3)
S1_2 S 0.5000 0.4199(2) 1.0000
Ni4 Ni 0.18622(2) 0.04981(6) 0.92994(5)
Ni5 Ni 0.68622(2) 0.54981(6) 0.92994(5)
C26 C 0.5884(2) 0.3600(6) 0.8750(5)
O6 O 0.70419(15) 0.3036(4) 0.9464(3)
O11 O 0.60089(14) 0.5057(4) 0.8715(3)
O13 O 0.56567(15) 0.2733(4) 0.7827(4)
C9 C 0.7333(2) 0.5035(6) 0.2118(5)
H4 H 0.7644 0.4630 0.1932
C10 C 0.7328(2) 0.4974(6) 0.3321(5)
H5 H 0.7636 0.4567 0.3943
C11 C 0.68621(18) 0.5518(9) 0.3625(4)
C12 C 0.6420(2) 0.6177(7) 0.2659(5)
H6 H 0.6104 0.6584 0.2822
C13 C 0.6458(2) 0.6217(6) 0.1463(4)
H7 H 0.6161 0.6646 0.0824
C14 C 0.6535(2) 0.6484(7) 0.6602(4)
H8 H 0.6327 0.7248 0.6875
C15 C 0.6540(2) 0.6570(7) 0.5350(5)
H9 H 0.6352 0.7394 0.4822
C16 C 0.6835(2) 0.5382(8) 0.4927(4)
C17 C 0.7113(2) 0.4263(7) 0.5739(5)
H10 H 0.7322 0.3479 0.5490
C18 C 0.7089(2) 0.4267(6) 0.6959(4)
H11 H 0.7277 0.3457 0.7503
N1 N 0.69072(17) 0.5659(6) 0.1186(3)
N2 N 0.68058(15) 0.5397(7) 0.7384(3)
O5 O 0.67152(15) 0.7950(4) 0.9155(3)
H12 H 0.6712 0.8321 0.9857
H13 H 0.6413 0.8127 0.8624
O9 O 0.77123(12) 0.5693(4) 0.9623(3)
O11_2 O 0.10089(14) 0.0057(4) 0.8715(3)
S1_3 S 0.0000 0.9199(2) 0.0000
C19_2 C 0.14827(19) 0.6877(6) 0.0604(4)
C20_2 C 0.09913(19) 0.7772(6) 0.0010(4)
C21_2 C 0.0573(2) 0.7852(6) 0.0599(5)
C22_2 C 0.0632(2) 0.6978(7) 0.1699(5)
H14_2 H 0.0353 0.7023 0.2082
C23_2 C 0.1093(2) 0.6073(6) 0.2199(4)
H15_2 H 0.1130 0.5498 0.2931
C24_2 C 0.1514(2) 0.5979(6) 0.1644(5)
H16_2 H 0.1819 0.5300 0.1981
C25_2 C 0.19669(19) 0.6867(6) 0.0078(4)
S1_4 S 0.0000 0.9199(2) 1.0000
C26_2 C 0.0884(2) 0.8600(6) 0.8750(5)
O6_2 O 0.20419(15) 0.8036(4) 0.9464(3)
O13_2 O 0.06567(15) 0.7733(4) 0.7827(4)
N5_2 N 0.81942(15) 0.0397(7) 0.2616(3)
O12_2 O 0.89911(14) 0.0057(4) 0.1285(3)
O14_2 O 0.82848(15) 0.2950(4) 0.0845(3)
H25_2 H 0.8288 0.3321 0.0143
H26_2 H 0.8587 0.3127 0.1376
C27_2 C 0.7667(2) 0.0035(6) 0.7882(5)
C29_2 C 0.81379(18) 0.0518(9) 0.6375(4)
C30_2 C 0.8580(2) 0.1177(7) 0.7341(5)
H19_2 H 0.8896 0.1584 0.7178
C31_2 C 0.8542(2) 0.1217(6) 0.8537(4)
H20_2 H 0.8839 0.1646 0.9176
C32_2 C 0.8465(2) 0.1484(7) 0.3398(4)
H21_2 H 0.8673 0.2248 0.3125
C33_2 C 0.8460(2) 0.1570(7) 0.4650(5)
H22_2 H 0.8648 0.2394 0.5178
C34_2 C 0.8165(2) 0.0382(8) 0.5073(4)
N3_2 N 0.80928(17) 0.0659(6) 0.8814(3)
O7_2 O 0.79581(15) 0.8036(4) 0.0536(3)
C8_2 C 0.9116(2) 0.8600(6) 0.1250(5)
O4_2 O 0.93433(15) 0.7733(4) 0.2173(4)
S1_5 S 1.0000 0.9199(2) 0.0000
H17_2 H 0.7356 0.9630 0.8068
C28_2 C 0.7672(2) 0.9974(6) 0.6679(5)
H18_2 H 0.7364 0.9567 0.6057
C35_2 C 0.7887(2) 0.9263(7) 0.4261(5)
H23_2 H 0.7678 0.8479 0.4510
C36_2 C 0.7911(2) 0.9267(6) 0.3041(4)
H24_2 H 0.7723 0.8457 0.2497
C1_2 C 0.85173(19) 0.6877(6) 0.9396(4)
C2_2 C 0.90087(19) 0.7772(6) 0.9990(4)
C3_2 C 0.9427(2) 0.7852(6) 0.9401(5)
C4_2 C 0.9368(2) 0.6978(7) 0.8301(5)
H1_2 H 0.9647 0.7023 0.7918
C5_2 C 0.8907(2) 0.6073(6) 0.7801(4)
H2_2 H 0.8870 0.5498 0.7069
C6_2 C 0.8486(2) 0.5979(6) 0.8356(5)
H3_2 H 0.8181 0.5300 0.8019
C7_2 C 0.80331(19) 0.6867(6) 0.9922(4)
S1_6 S 1.0000 0.9199(2) 1.0000
C9_2 C 0.2333(2) 0.0035(6) 0.2118(5)
C11_2 C 0.18621(18) 0.0518(9) 0.3625(4)
C12_2 C 0.1420(2) 0.1177(7) 0.2659(5)
H6_2 H 0.1104 0.1584 0.2822
C13_2 C 0.1458(2) 0.1217(6) 0.1463(4)
H7_2 H 0.1161 0.1646 0.0824
C14_2 C 0.1535(2) 0.1484(7) 0.6602(4)
H8_2 H 0.1327 0.2248 0.6875
C15_2 C 0.1540(2) 0.1570(7) 0.5350(5)
H9_2 H 0.1352 0.2394 0.4822
C16_2 C 0.1835(2) 0.0382(8) 0.4927(4)
N1_2 N 0.19072(17) 0.0659(6) 0.1186(3)
N2_2 N 0.18058(15) 0.0397(7) 0.7384(3)
O5_2 O 0.17152(15) 0.2950(4) 0.9155(3)
H12_2 H 0.1712 0.3321 0.9857
H13_2 H 0.1413 0.3127 0.8624
H4_2 H 0.2644 0.9630 0.1932
C10_2 C 0.2328(2) 0.9974(6) 0.3321(5)
H5_2 H 0.2636 0.9567 0.3943
C17_2 C 0.2113(2) 0.9263(7) 0.5739(5)
H10_2 H 0.2322 0.8479 0.5490
C18_2 C 0.2089(2) 0.9267(6) 0.6959(4)
H11_2 H 0.2277 0.8457 0.7503
loop_
_geom_bond_atom_site_label_1
_geom_bond_atom_site_label_2
_geom_bond_site_symmetry_1
_geom_bond_site_symmetry_2
N5 Ni2 1_555 1_555
O7 Ni2 1_555 1_555
O10 Ni2 1_555 1_555
O12 Ni2 1_555 1_555
O14 Ni2 1_555 1_555
H25 O14 1_555 1_555
H26 O14 1_555 1_555
O4 C8 1_555 1_555
Ni6 O8 1_555 1_555
C19 C20 1_555 1_555
C20 C21 1_555 1_555
C21 S1 1_555 1_555
C22 C21 1_555 1_555
H14 C22 1_555 1_555
C23 C22 1_555 1_555
H15 C23 1_555 1_555
C24 C19 1_555 1_555
H16 C24 1_555 1_555
C25 C19 1_555 1_555
C27 H17 1_555 1_555
C28 C27 1_555 1_555
H18 C28 1_555 1_555
C29 C28 1_555 1_555
C30 C29 1_555 1_555
H19 C30 1_555 1_555
C31 C30 1_555 1_555
H20 C31 1_555 1_555
C32 H21 1_555 1_555
C33 C32 1_555 1_555
H22 C33 1_555 1_555
C34 C29 1_555 1_555
C35 C34 1_555 1_555
H23 C35 1_555 1_555
C36 C35 1_555 1_555
H24 C36 1_555 1_555
N3 C27 1_555 1_555
O8 C25 1_555 1_555
C8 O12 1_555 1_555
C23 C24 1_555 1_555
C31 N3 1_555 1_555
C32 N5 1_555 1_555
C33 C34 1_555 1_555
C36 N5 1_555 1_555
C1 C2 1_555 1_555
C2 C3 1_555 1_555
C3 C4 1_555 1_555
C4 H1 1_555 1_555
C5 C4 1_555 1_555
H2 C5 1_555 1_555
C6 C1 1_555 1_555
H3 C6 1_555 1_555
C7 C1 1_555 1_555
O2 C7 1_555 1_555
S1_2 C3 1_555 1_555
Ni4 O2 1_555 1_555
Ni5 O6 1_555 1_555
O11 Ni5 1_555 1_555
O13 C26 1_555 1_555
C5 C6 1_555 1_555
C26 O11 1_555 1_555
C9 H4 1_555 1_555
C10 C9 1_555 1_555
H5 C10 1_555 1_555
C11 C10 1_555 1_555
C12 C11 1_555 1_555
H6 C12 1_555 1_555
C13 C12 1_555 1_555
H7 C13 1_555 1_555
C14 H8 1_555 1_555
C15 C14 1_555 1_555
H9 C15 1_555 1_555
C16 C11 1_555 1_555
C17 C16 1_555 1_555
H10 C17 1_555 1_555
C18 C17 1_555 1_555
H11 C18 1_555 1_555
N1 C9 1_555 1_555
N2 C14 1_555 1_555
Ni5 N2 1_555 1_555
C13 N1 1_555 1_555
C15 C16 1_555 1_555
C18 N2 1_555 1_555
O5 Ni5 1_555 1_555
H12 O5 1_555 1_555
H13 O5 1_555 1_555
O9 Ni5 1_555 1_555
O11_2 Ni4 1_555 1_555
C19_2 C20_2 1_555 1_555
C20_2 C21_2 1_555 1_555
C21_2 S1_3 1_555 1_555
C22_2 C21_2 1_555 1_555
H14_2 C22_2 1_555 1_555
C23_2 C22_2 1_555 1_555
H15_2 C23_2 1_555 1_555
C24_2 C19_2 1_555 1_555
H16_2 C24_2 1_555 1_555
C25_2 C19_2 1_555 1_555
O10 C25_2 1_555 1_555
C23_2 C24_2 1_555 1_555
O13_2 C26_2 1_555 1_555
N5_2 Ni6 1_555 1_555
O12_2 Ni6 1_555 1_555
O14_2 Ni6 1_555 1_555
H25_2 O14_2 1_555 1_555
H26_2 O14_2 1_555 1_555
C30_2 C29_2 1_555 1_555
H19_2 C30_2 1_555 1_555
C31_2 C30_2 1_555 1_555
H20_2 C31_2 1_555 1_555
C32_2 H21_2 1_555 1_555
C33_2 C32_2 1_555 1_555
H22_2 C33_2 1_555 1_555
C34_2 C29_2 1_555 1_555
N3_2 C27_2 1_555 1_555
C31_2 N3_2 1_555 1_555
C32_2 N5_2 1_555 1_555
C33_2 C34_2 1_555 1_555
O4_2 C8_2 1_555 1_555
H18_2 C28_2 1_555 1_555
H23_2 C35_2 1_555 1_555
C36_2 C35_2 1_555 1_555
H24_2 C36_2 1_555 1_555
C1_2 C2_2 1_555 1_555
C2_2 C3_2 1_555 1_555
C3_2 C4_2 1_555 1_555
C4_2 H1_2 1_555 1_555
C5_2 C4_2 1_555 1_555
H2_2 C5_2 1_555 1_555
C6_2 C1_2 1_555 1_555
H3_2 C6_2 1_555 1_555
C7_2 C1_2 1_555 1_555
O9 C7_2 1_555 1_555
S1_6 C3_2 1_555 1_555
C5_2 C6_2 1_555 1_555
C12_2 C11_2 1_555 1_555
H6_2 C12_2 1_555 1_555
C13_2 C12_2 1_555 1_555
H7_2 C13_2 1_555 1_555
C14_2 H8_2 1_555 1_555
C15_2 C14_2 1_555 1_555
H9_2 C15_2 1_555 1_555
C16_2 C11_2 1_555 1_555
N1_2 C9_2 1_555 1_555
N2_2 C14_2 1_555 1_555
Ni4 N2_2 1_555 1_555
C13_2 N1_2 1_555 1_555
C15_2 C16_2 1_555 1_555
O5_2 Ni4 1_555 1_555
H12_2 O5_2 1_555 1_555
H13_2 O5_2 1_555 1_555
H5_2 C10_2 1_555 1_555
H10_2 C17_2 1_555 1_555
C18_2 C17_2 1_555 1_555
H11_2 C18_2 1_555 1_555

#END
