
###############################################################################
#
# This file contains modified crystal structure data generated from the
# MOF subset of the Cambridge Structural Database (CSD) v543 
# hosted by the Cambridge Crystallographic Data Centre (CCDC).
#
# This work is licensed under the Creative Commons
# Attribution-NonCommercial-ShareAlike 4.0 International License.
# To view a copy of this license, visit
# http://creativecommons.org/licenses/by-nc-sa/4.0/
# or send a letter to
# Creative Commons, PO Box 1866, Mountain View, CA 94042, USA.
#
# CIF created using the CSD Python API on 29 September 2022
# The structure has been converted into the P1 space group
# The structure has a 3D framework
# The original CSD entry REVROC is in the monoclinic crystal system
# The framework has been calculated to contain at least 10.0% void space
# The void calculation uses a probe of radius 1.32A, grid spacing 0.4
#
###############################################################################

data_REVROC
_chemical_formula_moiety         '(C96 H64 Gd8 N16 O29)n'
_symmetry_cell_setting           triclinic
_symmetry_space_group_name_H-M   'P 1'
_symmetry_Int_Tables_number      1
_space_group_name_Hall           'P 1'
loop_
_symmetry_equiv_pos_site_id
_symmetry_equiv_pos_as_xyz
1 x,y,z
_cell_length_a                   23.4807(6)
_cell_length_b                   18.6160(5)
_cell_length_c                   7.4167(2)
_cell_angle_alpha                90
_cell_angle_beta                 102.7290(10)
_cell_angle_gamma                90
_cell_volume                     3162.29
loop_
_atom_site_label
_atom_site_type_symbol
_atom_site_fract_x
_atom_site_fract_y
_atom_site_fract_z
Gd2 Gd 0.07050(2) 0.03343(2) 0.16580(4)
Gd1 Gd 0.42950(2) 0.53343(2) 0.33420(4)
O1 O 0.46789(18) 0.4480(2) 0.5667(6)
O2 O 0.4283(3) 0.6684(3) 0.8470(7)
O3 O 0.4291(2) 0.5770(3) 0.6498(6)
O4 O 0.1578(2) 0.9824(4) 0.1215(9)
N1 N 0.4340(3) 0.6672(3) 0.3681(8)
N2 N 0.4298(2) 0.7847(3) 0.3533(8)
C1 C 0.4326(3) 0.7228(4) 0.2592(10)
H1 H 0.4335 0.7203 0.1346
C2 C 0.4310(3) 0.6944(4) 0.5385(9)
C3 C 0.4295(3) 0.6444(4) 0.6925(10)
C4 C 0.2396(3) 0.9135(4) 0.0983(10)
C5 C 0.4290(3) 0.7677(4) 0.5298(10)
H2 H 0.4274 0.7993 0.6256
C6 C 0.1776(3) 0.9372(4) 0.0269(10)
C7 C 0.3571(3) 0.8761(4) 0.2147(11)
C8 C 0.4214(3) 0.8561(4) 0.2690(12)
H3 H 0.4379 0.8570 0.1601
H4 H 0.4420 0.8913 0.3557
C9 C 0.2625(5) 0.8603(6) 0.018(2)
C10 C 0.2764(6) 0.9493(9) 0.231(2)
H6 H 0.2620 0.9871 0.2907
C11 C 0.3204(6) 0.8393(7) 0.087(2)
H7 H 0.3337 0.7976 0.0410
C12 C 0.3355(5) 0.9319(11) 0.285(2)
H8 H 0.3601 0.9604 0.3712
Gd3 Gd 0.57050(2) 0.46657(2) 0.66580(4)
Gd4 Gd 0.42950(2) 0.46657(2) 0.83420(4)
O6 O 0.53211(18) 0.5520(2) 0.4333(6)
O7 O 0.46789(18) 0.5520(2) 0.0667(6)
O8 O 0.4291(2) 0.4230(3) 0.1498(6)
O9 O 0.3422(2) 0.4824(4) 0.3785(9)
O10 O 0.3491(2) 0.5892(3) 0.1228(7)
O5 O 0.1509(2) 0.9108(3) 0.8772(7)
H5 H 0.2400 0.8370 0.9160
Gd5 Gd 0.07050(2) 0.96657(2) 0.66580(4)
Gd2_2 Gd 0.92950(2) 0.03343(2) 0.33420(4)
Gd1_2 Gd 0.57050(2) 0.53343(2) 0.16580(4)
O4_2 O 0.8422(2) 0.9824(4) 0.3785(9)
O5_2 O 0.8491(2) 0.9108(3) 0.6228(7)
N1_2 N 0.5660(3) 0.6672(3) 0.1319(8)
N2_2 N 0.5702(2) 0.7847(3) 0.1467(8)
C1_2 C 0.5674(3) 0.7228(4) 0.2408(10)
H1_2 H 0.5665 0.7203 0.3654
C4_2 C 0.7604(3) 0.9135(4) 0.4017(10)
C6_2 C 0.8224(3) 0.9372(4) 0.4731(10)
C7_2 C 0.6429(3) 0.8761(4) 0.2853(11)
C8_2 C 0.5786(3) 0.8561(4) 0.2310(12)
H3_2 H 0.5621 0.8570 0.3399
H4_2 H 0.5580 0.8913 0.1443
C9_2 C 0.7375(5) 0.8603(6) 0.482(2)
H5_2 H 0.7600 0.8370 0.5840
C10_2 C 0.7236(6) 0.9493(9) 0.269(2)
H6_2 H 0.7380 0.9871 0.2093
C11_2 C 0.6796(6) 0.8393(7) 0.413(2)
H7_2 H 0.6663 0.7976 0.4590
C12_2 C 0.6645(5) 0.9319(11) 0.215(2)
H8_2 H 0.6399 0.9604 0.1288
Gd5_2 Gd 0.92950(2) 0.96657(2) 0.83420(4)
O8_2 O 0.5709(2) 0.4230(3) 0.3502(6)
O9_2 O 0.6578(2) 0.4824(4) 0.1215(9)
O10_2 O 0.6509(2) 0.5892(3) 0.3772(7)
O1_2 O 0.53211(18) 0.4480(2) 0.9333(6)
O2_2 O 0.5717(3) 0.6684(3) 0.6530(7)
O3_2 O 0.5709(2) 0.5770(3) 0.8502(6)
C2_2 C 0.5690(3) 0.6944(4) 0.9615(9)
C3_2 C 0.5705(3) 0.6444(4) 0.8075(10)
C5_2 C 0.5710(3) 0.7677(4) 0.9702(10)
H2_2 H 0.5726 0.7993 0.8744
O6_2 O 0.03211(18) 0.0520(2) 0.4333(6)
O2_3 O 0.9283(3) 0.1684(3) 0.8470(7)
O3_3 O 0.9291(2) 0.0770(3) 0.6498(6)
N1_3 N 0.9340(3) 0.1672(3) 0.3681(8)
N2_3 N 0.9298(2) 0.2847(3) 0.3533(8)
C1_3 C 0.9326(3) 0.2228(4) 0.2592(10)
H1_3 H 0.9335 0.2203 0.1346
C2_3 C 0.9310(3) 0.1944(4) 0.5385(9)
C3_3 C 0.9295(3) 0.1444(4) 0.6925(10)
C4_3 C 0.7396(3) 0.4135(4) 0.0983(10)
C5_3 C 0.9290(3) 0.2677(4) 0.5298(10)
H2_3 H 0.9274 0.2993 0.6256
C6_3 C 0.6776(3) 0.4372(4) 0.0269(10)
C7_3 C 0.8571(3) 0.3761(4) 0.2147(11)
C8_3 C 0.9214(3) 0.3561(4) 0.2690(12)
H3_3 H 0.9379 0.3570 0.1601
H4_3 H 0.9420 0.3913 0.3557
C9_3 C 0.7625(5) 0.3603(6) 0.018(2)
C10_3 C 0.7764(6) 0.4493(9) 0.231(2)
H6_3 H 0.7620 0.4871 0.2907
C11_3 C 0.8204(6) 0.3393(7) 0.087(2)
H7_3 H 0.8337 0.2976 0.0410
C12_3 C 0.8355(5) 0.4319(11) 0.285(2)
H8_3 H 0.8601 0.4604 0.3712
O7_2 O 0.96789(18) 0.0520(2) 0.0667(6)
O10_3 O 0.8491(2) 0.0892(3) 0.1228(7)
O5_3 O 0.6509(2) 0.4108(3) 0.8772(7)
H5_3 H 0.7400 0.3370 0.9160
O1_3 O 0.96789(18) 0.9480(2) 0.5667(6)
O8_3 O 0.9291(2) 0.9230(3) 0.1498(6)
O5_4 O 0.3491(2) 0.4108(3) 0.6228(7)
N1_4 N 0.0660(3) 0.1672(3) 0.1319(8)
N2_4 N 0.0702(2) 0.2847(3) 0.1467(8)
C1_4 C 0.0674(3) 0.2228(4) 0.2408(10)
H1_4 H 0.0665 0.2203 0.3654
C4_4 C 0.2604(3) 0.4135(4) 0.4017(10)
C6_4 C 0.3224(3) 0.4372(4) 0.4731(10)
C7_4 C 0.1429(3) 0.3761(4) 0.2853(11)
C8_4 C 0.0786(3) 0.3561(4) 0.2310(12)
H3_4 H 0.0621 0.3570 0.3399
H4_4 H 0.0580 0.3913 0.1443
C9_4 C 0.2375(5) 0.3603(6) 0.482(2)
H5_4 H 0.2600 0.3370 0.5840
C10_4 C 0.2236(6) 0.4493(9) 0.269(2)
H6_4 H 0.2380 0.4871 0.2093
C11_4 C 0.1796(6) 0.3393(7) 0.413(2)
H7_4 H 0.1663 0.2976 0.4590
C12_4 C 0.1645(5) 0.4319(11) 0.215(2)
H8_4 H 0.1399 0.4604 0.1288
O10_4 O 0.1509(2) 0.0892(3) 0.3772(7)
O2_4 O 0.0717(3) 0.1684(3) 0.6530(7)
O3_4 O 0.0709(2) 0.0770(3) 0.8502(6)
C2_4 C 0.0690(3) 0.1944(4) 0.9615(9)
C3_4 C 0.0705(3) 0.1444(4) 0.8075(10)
C5_4 C 0.0710(3) 0.2677(4) 0.9702(10)
H2_4 H 0.0726 0.2993 0.8744
O8_4 O 0.0709(2) 0.9230(3) 0.3502(6)
O1_4 O 0.03211(18) 0.9480(2) 0.9333(6)
H5_5 H 0.7600 0.1630 0.0840
O2_5 O 0.5717(3) 0.3316(3) 0.1530(7)
O4_3 O 0.8422(2) 0.0176(4) 0.8785(9)
N1_5 N 0.5660(3) 0.3328(3) 0.6319(8)
N2_5 N 0.5702(2) 0.2153(3) 0.6467(8)
C1_5 C 0.5674(3) 0.2772(4) 0.7408(10)
H1_5 H 0.5665 0.2797 0.8654
C2_5 C 0.5690(3) 0.3056(4) 0.4615(9)
C3_5 C 0.5705(3) 0.3556(4) 0.3075(10)
C4_5 C 0.7604(3) 0.0865(4) 0.9017(10)
C5_5 C 0.5710(3) 0.2323(4) 0.4702(10)
H2_5 H 0.5726 0.2007 0.3744
C6_5 C 0.8224(3) 0.0628(4) 0.9731(10)
C7_5 C 0.6429(3) 0.1239(4) 0.7853(11)
C8_5 C 0.5786(3) 0.1439(4) 0.7310(12)
H3_5 H 0.5621 0.1430 0.8399
H4_5 H 0.5580 0.1087 0.6443
C9_5 C 0.7375(5) 0.1397(6) 0.982(2)
C10_5 C 0.7236(6) 0.0507(9) 0.769(2)
H6_5 H 0.7380 0.0129 0.7093
C11_5 C 0.6796(6) 0.1607(7) 0.913(2)
H7_5 H 0.6663 0.2024 0.9590
C12_5 C 0.6645(5) 0.0681(11) 0.715(2)
H8_5 H 0.6399 0.0396 0.6288
O9_3 O 0.6578(2) 0.5176(4) 0.6215(9)
O2_6 O 0.4283(3) 0.3316(3) 0.3470(7)
C2_6 C 0.4310(3) 0.3056(4) 0.0385(9)
C3_6 C 0.4295(3) 0.3556(4) 0.1925(10)
C5_6 C 0.4290(3) 0.2323(4) 0.0298(10)
H2_6 H 0.4274 0.2007 0.1256
O4_4 O 0.1578(2) 0.0176(4) 0.6215(9)
N1_6 N 0.4340(3) 0.3328(3) 0.8681(8)
N2_6 N 0.4298(2) 0.2153(3) 0.8533(8)
C1_6 C 0.4326(3) 0.2772(4) 0.7592(10)
H1_6 H 0.4335 0.2797 0.6346
C4_6 C 0.2396(3) 0.0865(4) 0.5983(10)
C6_6 C 0.1776(3) 0.0628(4) 0.5269(10)
C7_6 C 0.3571(3) 0.1239(4) 0.7147(11)
C8_6 C 0.4214(3) 0.1439(4) 0.7690(12)
H3_6 H 0.4379 0.1430 0.6601
H4_6 H 0.4420 0.1087 0.8557
C9_6 C 0.2625(5) 0.1397(6) 0.518(2)
H5_6 H 0.2400 0.1630 0.4160
C10_6 C 0.2764(6) 0.0507(9) 0.731(2)
H6_6 H 0.2620 0.0129 0.7907
C11_6 C 0.3204(6) 0.1607(7) 0.587(2)
H7_6 H 0.3337 0.2024 0.5410
C12_6 C 0.3355(5) 0.0681(11) 0.785(2)
H8_6 H 0.3601 0.0396 0.8712
O9_4 O 0.3422(2) 0.5176(4) 0.8785(9)
H5_7 H 0.2600 0.6630 0.0840
O2_7 O 0.0717(3) 0.8316(3) 0.1530(7)
N1_7 N 0.0660(3) 0.8328(3) 0.6319(8)
N2_7 N 0.0702(2) 0.7153(3) 0.6467(8)
C1_7 C 0.0674(3) 0.7772(4) 0.7408(10)
H1_7 H 0.0665 0.7797 0.8654
C2_7 C 0.0690(3) 0.8056(4) 0.4615(9)
C3_7 C 0.0705(3) 0.8556(4) 0.3075(10)
C4_7 C 0.2604(3) 0.5865(4) 0.9017(10)
C5_7 C 0.0710(3) 0.7323(4) 0.4702(10)
H2_7 H 0.0726 0.7007 0.3744
C6_7 C 0.3224(3) 0.5628(4) 0.9731(10)
C7_7 C 0.1429(3) 0.6239(4) 0.7853(11)
C8_7 C 0.0786(3) 0.6439(4) 0.7310(12)
H3_7 H 0.0621 0.6430 0.8399
H4_7 H 0.0580 0.6087 0.6443
C9_7 C 0.2375(5) 0.6397(6) 0.982(2)
C10_7 C 0.2236(6) 0.5507(9) 0.769(2)
H6_7 H 0.2380 0.5129 0.7093
C11_7 C 0.1796(6) 0.6607(7) 0.913(2)
H7_7 H 0.1663 0.7024 0.9590
C12_7 C 0.1645(5) 0.5681(11) 0.715(2)
H8_7 H 0.1399 0.5396 0.6288
O2_8 O 0.9283(3) 0.8316(3) 0.3470(7)
C2_8 C 0.9310(3) 0.8056(4) 0.0385(9)
C3_8 C 0.9295(3) 0.8556(4) 0.1925(10)
C5_8 C 0.9290(3) 0.7323(4) 0.0298(10)
H2_8 H 0.9274 0.7007 0.1256
N1_8 N 0.9340(3) 0.8328(3) 0.8681(8)
N2_8 N 0.9298(2) 0.7153(3) 0.8533(8)
C1_8 C 0.9326(3) 0.7772(4) 0.7592(10)
H1_8 H 0.9335 0.7797 0.6346
C4_8 C 0.7396(3) 0.5865(4) 0.5983(10)
C6_8 C 0.6776(3) 0.5628(4) 0.5269(10)
C7_8 C 0.8571(3) 0.6239(4) 0.7147(11)
C8_8 C 0.9214(3) 0.6439(4) 0.7690(12)
H3_8 H 0.9379 0.6430 0.6601
H4_8 H 0.9420 0.6087 0.8557
C9_8 C 0.7625(5) 0.6397(6) 0.518(2)
H5_8 H 0.7400 0.6630 0.4160
C10_8 C 0.7764(6) 0.5507(9) 0.731(2)
H6_8 H 0.7620 0.5129 0.7907
C11_8 C 0.8204(6) 0.6607(7) 0.587(2)
H7_8 H 0.8337 0.7024 0.5410
C12_8 C 0.8355(5) 0.5681(11) 0.785(2)
H8_8 H 0.8601 0.5396 0.8712
loop_
_geom_bond_atom_site_label_1
_geom_bond_atom_site_label_2
_geom_bond_site_symmetry_1
_geom_bond_site_symmetry_2
Gd1 O1 1_555 1_555
O1 Gd3 1_555 1_555
O2 C3 1_555 1_555
O3 Gd1 1_555 1_555
O4 C6 1_555 1_555
N1 Gd1 1_555 1_555
N2 C1 1_555 1_555
C1 N1 1_555 1_555
H1 C1 1_555 1_555
C2 N1 1_555 1_555
C3 O3 1_555 1_555
C4 C6 1_555 1_555
C5 N2 1_555 1_555
H2 C5 1_555 1_555
C7 C8 1_555 1_555
C8 N2 1_555 1_555
H3 C8 1_555 1_555
H4 C8 1_555 1_555
C9 C4 1_555 1_555
C10 C4 1_555 1_555
H6 C10 1_555 1_555
C11 C7 1_555 1_555
H7 C11 1_555 1_555
C12 C7 1_555 1_555
H8 C12 1_555 1_555
Gd3 O6 1_555 1_555
Gd4 O1 1_555 1_555
O6 Gd1 1_555 1_555
O7 Gd1 1_555 1_555
O8 Gd1 1_555 1_555
O9 Gd1 1_555 1_555
O10 Gd1 1_555 1_555
O3 Gd4 1_555 1_555
C2 C3 1_555 1_555
C2 C5 1_555 1_555
C9 C11 1_555 1_555
C10 C12 1_555 1_555
Gd5 O5 1_555 1_555
O4_2 C6_2 1_555 1_555
O5_2 C6_2 1_555 1_555
N1_2 Gd1_2 1_555 1_555
N2_2 C1_2 1_555 1_555
C1_2 N1_2 1_555 1_555
H1_2 C1_2 1_555 1_555
C4_2 C6_2 1_555 1_555
C7_2 C8_2 1_555 1_555
C8_2 N2_2 1_555 1_555
H3_2 C8_2 1_555 1_555
H4_2 C8_2 1_555 1_555
C9_2 C4_2 1_555 1_555
H5_2 C9_2 1_555 1_555
C10_2 C4_2 1_555 1_555
H6_2 C10_2 1_555 1_555
C11_2 C7_2 1_555 1_555
H7_2 C11_2 1_555 1_555
C12_2 C7_2 1_555 1_555
H8_2 C12_2 1_555 1_555
Gd5_2 O5_2 1_555 1_555
O7 Gd1_2 1_555 1_555
O6 Gd1_2 1_555 1_555
O8_2 Gd1_2 1_555 1_555
O9_2 Gd1_2 1_555 1_555
O10_2 Gd1_2 1_555 1_555
C9_2 C11_2 1_555 1_555
C10_2 C12_2 1_555 1_555
O1_2 Gd4 1_555 1_555
O2_2 C3_2 1_555 1_555
C3_2 O3_2 1_555 1_555
H2_2 C5_2 1_555 1_555
Gd3 O1_2 1_555 1_555
O3_2 Gd3 1_555 1_555
C2_2 C3_2 1_555 1_555
C2_2 C5_2 1_555 1_555
O2_3 C3_3 1_555 1_555
O3_3 Gd2_2 1_555 1_555
O9_2 C6_3 1_555 1_555
N1_3 Gd2_2 1_555 1_555
N2_3 C1_3 1_555 1_555
C1_3 N1_3 1_555 1_555
H1_3 C1_3 1_555 1_555
C2_3 N1_3 1_555 1_555
C3_3 O3_3 1_555 1_555
C4_3 C6_3 1_555 1_555
C5_3 N2_3 1_555 1_555
H2_3 C5_3 1_555 1_555
C7_3 C8_3 1_555 1_555
C8_3 N2_3 1_555 1_555
H3_3 C8_3 1_555 1_555
H4_3 C8_3 1_555 1_555
C9_3 C4_3 1_555 1_555
C10_3 C4_3 1_555 1_555
H6_3 C10_3 1_555 1_555
C11_3 C7_3 1_555 1_555
H7_3 C11_3 1_555 1_555
C12_3 C7_3 1_555 1_555
H8_3 C12_3 1_555 1_555
O7_2 Gd2_2 1_555 1_555
O10_3 Gd2_2 1_555 1_555
C2_3 C3_3 1_555 1_555
C2_3 C5_3 1_555 1_555
C9_3 C11_3 1_555 1_555
C10_3 C12_3 1_555 1_555
Gd3 O5_3 1_555 1_555
Gd5_2 O1_3 1_555 1_555
O9 C6_4 1_555 1_555
O5_4 C6_4 1_555 1_555
N1_4 Gd2 1_555 1_555
N2_4 C1_4 1_555 1_555
C1_4 N1_4 1_555 1_555
H1_4 C1_4 1_555 1_555
C4_4 C6_4 1_555 1_555
C7_4 C8_4 1_555 1_555
C8_4 N2_4 1_555 1_555
H3_4 C8_4 1_555 1_555
H4_4 C8_4 1_555 1_555
C9_4 C4_4 1_555 1_555
H5_4 C9_4 1_555 1_555
C10_4 C4_4 1_555 1_555
H6_4 C10_4 1_555 1_555
C11_4 C7_4 1_555 1_555
H7_4 C11_4 1_555 1_555
C12_4 C7_4 1_555 1_555
H8_4 C12_4 1_555 1_555
Gd4 O5_4 1_555 1_555
O6_2 Gd2 1_555 1_555
O10_4 Gd2 1_555 1_555
C9_4 C11_4 1_555 1_555
C10_4 C12_4 1_555 1_555
O2_4 C3_4 1_555 1_555
C3_4 O3_4 1_555 1_555
H2_4 C5_4 1_555 1_555
C2_4 C3_4 1_555 1_555
C2_4 C5_4 1_555 1_555
Gd5 O1_4 1_555 1_555
O2_5 C3_5 1_555 1_555
O8_2 Gd3 1_555 1_555
O4_3 C6_5 1_555 1_555
N1_5 Gd3 1_555 1_555
N2_5 C1_5 1_555 1_555
C1_5 N1_5 1_555 1_555
H1_5 C1_5 1_555 1_555
C2_5 N1_5 1_555 1_555
C3_5 O8_2 1_555 1_555
C4_5 C6_5 1_555 1_555
C5_5 N2_5 1_555 1_555
H2_5 C5_5 1_555 1_555
C7_5 C8_5 1_555 1_555
C8_5 N2_5 1_555 1_555
H3_5 C8_5 1_555 1_555
H4_5 C8_5 1_555 1_555
C9_5 C4_5 1_555 1_555
C10_5 C4_5 1_555 1_555
H6_5 C10_5 1_555 1_555
C11_5 C7_5 1_555 1_555
H7_5 C11_5 1_555 1_555
C12_5 C7_5 1_555 1_555
H8_5 C12_5 1_555 1_555
O9_3 Gd3 1_555 1_555
C2_5 C3_5 1_555 1_555
C2_5 C5_5 1_555 1_555
C9_5 C11_5 1_555 1_555
C10_5 C12_5 1_555 1_555
O2_6 C3_6 1_555 1_555
C3_6 O8 1_555 1_555
H2_6 C5_6 1_555 1_555
C2_6 C3_6 1_555 1_555
C2_6 C5_6 1_555 1_555
O4_4 C6_6 1_555 1_555
O10_4 C6_6 1_555 1_555
N1_6 Gd4 1_555 1_555
N2_6 C1_6 1_555 1_555
C1_6 N1_6 1_555 1_555
H1_6 C1_6 1_555 1_555
C4_6 C6_6 1_555 1_555
C7_6 C8_6 1_555 1_555
C8_6 N2_6 1_555 1_555
H3_6 C8_6 1_555 1_555
H4_6 C8_6 1_555 1_555
C9_6 C4_6 1_555 1_555
H5_6 C9_6 1_555 1_555
C10_6 C4_6 1_555 1_555
H6_6 C10_6 1_555 1_555
C11_6 C7_6 1_555 1_555
H7_6 C11_6 1_555 1_555
C12_6 C7_6 1_555 1_555
H8_6 C12_6 1_555 1_555
O9_4 Gd4 1_555 1_555
C9_6 C11_6 1_555 1_555
C10_6 C12_6 1_555 1_555
O2_7 C3_7 1_555 1_555
O8_4 Gd5 1_555 1_555
O9_4 C6_7 1_555 1_555
N1_7 Gd5 1_555 1_555
N2_7 C1_7 1_555 1_555
C1_7 N1_7 1_555 1_555
H1_7 C1_7 1_555 1_555
C2_7 N1_7 1_555 1_555
C3_7 O8_4 1_555 1_555
C4_7 C6_7 1_555 1_555
C5_7 N2_7 1_555 1_555
H2_7 C5_7 1_555 1_555
C7_7 C8_7 1_555 1_555
C8_7 N2_7 1_555 1_555
H3_7 C8_7 1_555 1_555
H4_7 C8_7 1_555 1_555
C9_7 C4_7 1_555 1_555
C10_7 C4_7 1_555 1_555
H6_7 C10_7 1_555 1_555
C11_7 C7_7 1_555 1_555
H7_7 C11_7 1_555 1_555
C12_7 C7_7 1_555 1_555
H8_7 C12_7 1_555 1_555
C2_7 C3_7 1_555 1_555
C2_7 C5_7 1_555 1_555
C9_7 C11_7 1_555 1_555
C10_7 C12_7 1_555 1_555
O2_8 C3_8 1_555 1_555
C3_8 O8_3 1_555 1_555
H2_8 C5_8 1_555 1_555
C2_8 C3_8 1_555 1_555
C2_8 C5_8 1_555 1_555
O9_3 C6_8 1_555 1_555
O10_2 C6_8 1_555 1_555
N1_8 Gd5_2 1_555 1_555
N2_8 C1_8 1_555 1_555
C1_8 N1_8 1_555 1_555
H1_8 C1_8 1_555 1_555
C4_8 C6_8 1_555 1_555
C7_8 C8_8 1_555 1_555
C8_8 N2_8 1_555 1_555
H3_8 C8_8 1_555 1_555
H4_8 C8_8 1_555 1_555
C9_8 C4_8 1_555 1_555
H5_8 C9_8 1_555 1_555
C10_8 C4_8 1_555 1_555
H6_8 C10_8 1_555 1_555
C11_8 C7_8 1_555 1_555
H7_8 C11_8 1_555 1_555
C12_8 C7_8 1_555 1_555
H8_8 C12_8 1_555 1_555
C9_8 C11_8 1_555 1_555
C10_8 C12_8 1_555 1_555

#END
