
###############################################################################
#
# This file contains modified crystal structure data generated from the
# MOF subset of the Cambridge Structural Database (CSD) v543 
# hosted by the Cambridge Crystallographic Data Centre (CCDC).
#
# This work is licensed under the Creative Commons
# Attribution-NonCommercial-ShareAlike 4.0 International License.
# To view a copy of this license, visit
# http://creativecommons.org/licenses/by-nc-sa/4.0/
# or send a letter to
# Creative Commons, PO Box 1866, Mountain View, CA 94042, USA.
#
# CIF created using the CSD Python API on 29 September 2022
# The structure has been converted into the P1 space group
# The structure has a 3D framework
# The original CSD entry REVSAP is in the monoclinic crystal system
# The framework has been calculated to contain at least 10.0% void space
# The void calculation uses a probe of radius 1.32A, grid spacing 0.4
#
###############################################################################

data_REVSAP
_chemical_formula_moiety         '(C96 H68 Dy7 N16 O36)n'
_symmetry_cell_setting           triclinic
_symmetry_space_group_name_H-M   'P 1'
_symmetry_Int_Tables_number      1
_space_group_name_Hall           'P 1'
loop_
_symmetry_equiv_pos_site_id
_symmetry_equiv_pos_as_xyz
1 x,y,z
_cell_length_a                   7.6140(15)
_cell_length_b                   19.274(4)
_cell_length_c                   23.581(5)
_cell_angle_alpha                90
_cell_angle_beta                 95.24(3)
_cell_angle_gamma                90
_cell_volume                     3446.1
loop_
_atom_site_label
_atom_site_type_symbol
_atom_site_fract_x
_atom_site_fract_y
_atom_site_fract_z
N1 N 0.0691(7) 0.3321(3) 0.4379(2)
N3 N 0.0840(7) 0.2149(3) 0.43102(19)
C2 C 0.1793(9) 0.2762(3) 0.4350(3)
H2 H 0.3014 0.2791 0.4356
C10 C 0.1587(9) 0.1439(3) 0.4206(3)
H8 H 0.1007 0.1100 0.4429
H9 H 0.2833 0.1436 0.4336
C13 C 0.1340(7) 0.0813(3) 0.2396(2)
C14 C 0.1819(9) 0.1501(3) 0.2556(2)
H10 H 0.2120 0.1815 0.2282
C15 C 0.1351(9) 0.1222(3) 0.3564(3)
C19 C 0.0812(9) 0.0551(3) 0.3395(3)
H14 H 0.0467 0.0241 0.3666
C21 C 0.1841(10) 0.1713(3) 0.3140(2)
H16 H 0.2168 0.2163 0.3246
C22 C 0.0784(9) 0.0338(3) 0.2815(2)
O8 O 0.2695(6) 0.0818(3) 0.15065(18)
C24 C 0.1454(8) 0.0556(3) 0.1777(2)
O9 O 0.0371(7) 0.0080(3) 0.1577(2)
Dy3 Dy 0.09534(3) 0.46359(2) 0.43092(2)
Dy7 Dy 0.40256(3) 0.02951(2) 0.07054(2)
Dy2 Dy 0.59744(3) 0.52951(2) 0.42946(2)
O1 O 0.5855(6) 0.3303(3) 0.4337(2)
O2 O 0.7829(5) 0.4213(2) 0.43408(18)
N2 N 0.4374(8) 0.1622(3) 0.0696(2)
C1 C 0.3272(9) 0.2189(3) 0.0703(3)
H1 H 0.2050 0.2165 0.0693
O3 O 0.2302(6) 0.4093(3) 0.35295(19)
O4 O 0.4008(5) 0.4485(2) 0.46955(17)
H3 H 0.4391 0.4008 0.4631
N4 N 0.4223(8) 0.2794(3) 0.0726(2)
C3 C 0.8964(7) 0.3044(3) 0.4346(2)
C4 C 0.3451(10) 0.3504(4) 0.0797(3)
H4 H 0.2235 0.3506 0.0634
H5 H 0.4098 0.3840 0.0592
C5 C 0.9012(9) 0.2322(3) 0.4317(3)
H6 H 0.8061 0.2018 0.4304
C6 C 0.3521(10) 0.3722(3) 0.1439(3)
O5 O 0.4781(7) 0.4736(3) 0.3445(2)
C7 C 0.6063(9) 0.2619(3) 0.0745(3)
H7 H 0.7017 0.2922 0.0760
C8 C 0.3571(8) 0.4317(3) 0.3247(2)
C9 C 0.7406(8) 0.3544(3) 0.4339(3)
C11 C 0.3580(8) 0.4071(3) 0.2620(2)
C12 C 0.6102(8) 0.1892(3) 0.0737(2)
C16 C 0.2156(8) 0.3665(4) 0.2358(2)
H11 H 0.1258 0.3516 0.2571
C17 C 0.2117(9) 0.3489(4) 0.1765(2)
H12 H 0.1194 0.3226 0.1592
C18 C 0.4908(10) 0.4109(4) 0.1698(3)
H13 H 0.5820 0.4247 0.1486
C20 C 0.4956(9) 0.4298(4) 0.2289(2)
H15 H 0.5877 0.4567 0.2456
O6 O 0.7212(5) 0.0719(2) 0.07466(18)
O7 O 0.9199(6) 0.1632(3) 0.0781(3)
C23 C 0.7642(8) 0.1391(3) 0.0757(3)
O10 O 0.9019(6) 0.5494(3) 0.46689(18)
H18 H 0.9394 0.5962 0.4573
Dy5 Dy 0.90466(3) 0.53641(2) 0.56908(2)
Dy8 Dy 0.40256(3) 0.47049(2) 0.57054(2)
N6 N 0.5626(8) 0.6622(3) 0.4304(2)
O12 O 0.5992(5) 0.5515(2) 0.53045(17)
O13 O 0.2788(5) 0.5719(2) 0.42534(18)
O14 O 0.7305(6) 0.5818(3) 0.34935(18)
O17 O 0.0981(6) 0.4506(3) 0.53311(18)
Dy4 Dy 0.90466(3) 0.96359(2) 0.06908(2)
O15 O 0.9629(7) 0.5080(3) 0.3423(2)
O16 O 0.0981(6) 0.0494(3) 0.03311(18)
O11 O 0.2171(5) 0.9213(2) 0.06592(18)
H18_2 H 0.0606 0.0962 0.0427
Dy5_2 Dy 0.09534(3) 0.03641(2) 0.93092(2)
O12_2 O 0.4008(5) 0.0515(2) 0.96955(17)
O1_2 O 0.4145(6) 0.8303(3) 0.0663(2)
C1_2 C 0.6728(9) 0.7189(3) 0.4297(3)
H1_2 H 0.7950 0.7165 0.4307
O3_2 O 0.7698(6) 0.9093(3) 0.14705(19)
O4_2 O 0.5992(5) 0.9485(2) 0.03045(17)
H3_2 H 0.5609 0.9008 0.0369
N4_2 N 0.5777(8) 0.7794(3) 0.4274(2)
C3_2 C 0.1036(7) 0.8044(3) 0.0654(2)
C4_2 C 0.6549(10) 0.8504(4) 0.4203(3)
H4_2 H 0.7765 0.8506 0.4366
H5_2 H 0.5902 0.8840 0.4408
C5_2 C 0.0988(9) 0.7322(3) 0.0683(3)
H6_2 H 0.1939 0.7018 0.0696
C6_2 C 0.6479(10) 0.8722(3) 0.3561(3)
O5_2 O 0.5219(7) 0.9736(3) 0.1555(2)
C7_2 C 0.3937(9) 0.7619(3) 0.4255(3)
H7_2 H 0.2983 0.7922 0.4240
C8_2 C 0.6429(8) 0.9317(3) 0.1753(2)
C9_2 C 0.2594(8) 0.8544(3) 0.0661(3)
C11_2 C 0.6420(8) 0.9071(3) 0.2380(2)
C12_2 C 0.3898(8) 0.6892(3) 0.4263(2)
C16_2 C 0.7844(8) 0.8665(4) 0.2642(2)
H11_2 H 0.8742 0.8516 0.2429
C17_2 C 0.7883(9) 0.8489(4) 0.3235(2)
H12_2 H 0.8806 0.8226 0.3408
C18_2 C 0.5092(10) 0.9109(4) 0.3302(3)
H13_2 H 0.4180 0.9247 0.3514
C20_2 C 0.5044(9) 0.9298(4) 0.2711(2)
H15_2 H 0.4123 0.9567 0.2544
O7_2 O 0.0801(6) 0.6632(3) 0.4219(3)
C23_2 C 0.2358(8) 0.6391(3) 0.4243(3)
N5 N 0.9309(7) 0.8321(3) 0.0621(2)
Dy8_2 Dy 0.59744(3) 0.97049(2) 0.92946(2)
O17_2 O 0.9019(6) 0.9506(3) 0.96689(18)
N3_2 N 0.9160(7) 0.7149(3) 0.06898(19)
C2_2 C 0.8207(9) 0.7762(3) 0.0650(3)
H2_2 H 0.6986 0.7791 0.0644
C10_2 C 0.8413(9) 0.6439(3) 0.0794(3)
H8_2 H 0.8993 0.6100 0.0571
H9_2 H 0.7167 0.6436 0.0664
C13_2 C 0.8660(7) 0.5813(3) 0.2604(2)
C14_2 C 0.8181(9) 0.6501(3) 0.2444(2)
H10_2 H 0.7880 0.6815 0.2718
C15_2 C 0.8649(9) 0.6222(3) 0.1436(3)
C19_2 C 0.9188(9) 0.5551(3) 0.1605(3)
H14_2 H 0.9533 0.5241 0.1334
C21_2 C 0.8159(10) 0.6713(3) 0.1860(2)
H16_2 H 0.7832 0.7163 0.1754
C22_2 C 0.9216(9) 0.5338(3) 0.2185(2)
H17 H 0.9592 0.4893 0.2292
C24_2 C 0.8546(8) 0.5556(3) 0.3223(2)
O11_2 O 0.2171(5) 0.5787(2) 0.56592(18)
O15_2 O 0.0371(7) 0.4920(3) 0.6577(2)
O1_3 O 0.4145(6) 0.6697(3) 0.5663(2)
N2_2 N 0.5626(8) 0.8378(3) 0.9304(2)
C1_3 C 0.6728(9) 0.7811(3) 0.9297(3)
H1_3 H 0.7950 0.7835 0.9307
O3_3 O 0.7698(6) 0.5907(3) 0.64705(19)
H3_3 H 0.5609 0.5992 0.5369
N4_3 N 0.5777(8) 0.7206(3) 0.9274(2)
C3_3 C 0.1036(7) 0.6956(3) 0.5654(2)
C4_3 C 0.6549(10) 0.6496(4) 0.9203(3)
H4_3 H 0.7765 0.6494 0.9366
H5_3 H 0.5902 0.6160 0.9408
C5_3 C 0.0988(9) 0.7678(3) 0.5683(3)
H6_3 H 0.1939 0.7982 0.5696
C6_3 C 0.6479(10) 0.6278(3) 0.8561(3)
O5_3 O 0.5219(7) 0.5264(3) 0.6555(2)
C7_3 C 0.3937(9) 0.7381(3) 0.9255(3)
H7_3 H 0.2983 0.7078 0.9240
C8_3 C 0.6429(8) 0.5683(3) 0.6753(2)
C9_3 C 0.2594(8) 0.6456(3) 0.5661(3)
C11_3 C 0.6420(8) 0.5929(3) 0.7380(2)
C12_3 C 0.3898(8) 0.8108(3) 0.9263(2)
C16_3 C 0.7844(8) 0.6335(4) 0.7642(2)
H11_3 H 0.8742 0.6484 0.7429
C17_3 C 0.7883(9) 0.6511(4) 0.8235(2)
H12_3 H 0.8806 0.6774 0.8408
C18_3 C 0.5092(10) 0.5891(4) 0.8302(3)
H13_3 H 0.4180 0.5753 0.8514
C20_3 C 0.5044(9) 0.5702(4) 0.7711(2)
H15_3 H 0.4123 0.5433 0.7544
O6_2 O 0.2788(5) 0.9281(2) 0.92534(18)
O7_3 O 0.0801(6) 0.8368(3) 0.9219(3)
C23_3 C 0.2358(8) 0.8609(3) 0.9243(3)
H18_3 H 0.0606 0.4038 0.5427
N5_2 N 0.9309(7) 0.6679(3) 0.5621(2)
N6_2 N 0.4374(8) 0.3378(3) 0.5696(2)
O13_2 O 0.7212(5) 0.4281(2) 0.57466(18)
O14_2 O 0.2695(6) 0.4182(3) 0.65065(18)
N3_3 N 0.9160(7) 0.7851(3) 0.56898(19)
C2_3 C 0.8207(9) 0.7238(3) 0.5650(3)
H2_3 H 0.6986 0.7209 0.5644
C10_3 C 0.8413(9) 0.8561(3) 0.5794(3)
H8_3 H 0.8993 0.8900 0.5571
H9_3 H 0.7167 0.8564 0.5664
C13_3 C 0.8660(7) 0.9187(3) 0.7604(2)
C14_3 C 0.8181(9) 0.8499(3) 0.7444(2)
H10_3 H 0.7880 0.8185 0.7718
C15_3 C 0.8649(9) 0.8778(3) 0.6436(3)
C19_3 C 0.9188(9) 0.9449(3) 0.6605(3)
H14_3 H 0.9533 0.9759 0.6334
C21_3 C 0.8159(10) 0.8287(3) 0.6860(2)
H16_3 H 0.7832 0.7837 0.6754
C22_3 C 0.9216(9) 0.9662(3) 0.7185(2)
O8_2 O 0.7305(6) 0.9182(3) 0.84935(18)
C24_3 C 0.8546(8) 0.9444(3) 0.8223(2)
O9_2 O 0.9629(7) 0.9920(3) 0.8423(2)
N1_2 N 0.0691(7) 0.1679(3) 0.9379(2)
N3_4 N 0.0840(7) 0.2851(3) 0.93102(19)
C2_4 C 0.1793(9) 0.2238(3) 0.9350(3)
H2_4 H 0.3014 0.2209 0.9356
C10_4 C 0.1587(9) 0.3561(3) 0.9206(3)
H8_4 H 0.1007 0.3900 0.9429
H9_4 H 0.2833 0.3564 0.9336
C13_4 C 0.1340(7) 0.4187(3) 0.7396(2)
C14_4 C 0.1819(9) 0.3499(3) 0.7556(2)
H10_4 H 0.2120 0.3185 0.7282
C15_4 C 0.1351(9) 0.3778(3) 0.8564(3)
C19_4 C 0.0812(9) 0.4449(3) 0.8395(3)
H14_4 H 0.0467 0.4759 0.8666
C21_4 C 0.1841(10) 0.3287(3) 0.8140(2)
H16_4 H 0.2168 0.2837 0.8246
C22_4 C 0.0784(9) 0.4662(3) 0.7815(2)
H17_2 H 0.0408 0.5107 0.7708
C24_4 C 0.1454(8) 0.4444(3) 0.6777(2)
O1_4 O 0.5855(6) 0.1697(3) 0.9337(2)
O2_2 O 0.7829(5) 0.0787(2) 0.93408(18)
C1_4 C 0.3272(9) 0.2811(3) 0.5703(3)
H1_4 H 0.2050 0.2835 0.5693
O3_4 O 0.2302(6) 0.0907(3) 0.85295(19)
H3_4 H 0.4391 0.0992 0.9631
N4_4 N 0.4223(8) 0.2206(3) 0.5726(2)
C3_4 C 0.8964(7) 0.1956(3) 0.9346(2)
C4_4 C 0.3451(10) 0.1496(4) 0.5797(3)
H4_4 H 0.2235 0.1494 0.5634
H5_4 H 0.4098 0.1160 0.5592
C5_4 C 0.9012(9) 0.2678(3) 0.9317(3)
H6_4 H 0.8061 0.2982 0.9304
C6_4 C 0.3521(10) 0.1278(3) 0.6439(3)
O5_4 O 0.4781(7) 0.0264(3) 0.8445(2)
C7_4 C 0.6063(9) 0.2381(3) 0.5745(3)
H7_4 H 0.7017 0.2078 0.5760
C8_4 C 0.3571(8) 0.0683(3) 0.8247(2)
C9_4 C 0.7406(8) 0.1456(3) 0.9339(3)
C11_4 C 0.3580(8) 0.0929(3) 0.7620(2)
C12_4 C 0.6102(8) 0.3108(3) 0.5737(2)
C16_4 C 0.2156(8) 0.1335(4) 0.7358(2)
H11_4 H 0.1258 0.1484 0.7571
C17_4 C 0.2117(9) 0.1511(4) 0.6765(2)
H12_4 H 0.1194 0.1774 0.6592
C18_4 C 0.4908(10) 0.0891(4) 0.6698(3)
H13_4 H 0.5820 0.0753 0.6486
C20_4 C 0.4956(9) 0.0702(4) 0.7289(2)
H15_4 H 0.5877 0.0433 0.7456
O7_4 O 0.9199(6) 0.3368(3) 0.5781(3)
C23_4 C 0.7642(8) 0.3609(3) 0.5757(3)
H18_4 H 0.9394 0.9038 0.9573
H17_3 H 0.0408 0.9893 0.2708
H17_4 H 0.9592 0.0107 0.7292
loop_
_geom_bond_atom_site_label_1
_geom_bond_atom_site_label_2
_geom_bond_site_symmetry_1
_geom_bond_site_symmetry_2
N1 C2 1_555 1_555
N3 C2 1_555 1_555
C2 H2 1_555 1_555
C10 N3 1_555 1_555
H8 C10 1_555 1_555
H9 C10 1_555 1_555
C13 C14 1_555 1_555
C14 H10 1_555 1_555
C15 C10 1_555 1_555
C19 C15 1_555 1_555
H14 C19 1_555 1_555
C21 C14 1_555 1_555
H16 C21 1_555 1_555
C22 C13 1_555 1_555
O8 C24 1_555 1_555
C24 C13 1_555 1_555
O9 C24 1_555 1_555
Dy7 O8 1_555 1_555
N1 Dy3 1_555 1_555
C15 C21 1_555 1_555
C19 C22 1_555 1_555
Dy3 O3 1_555 1_555
Dy2 O2 1_555 1_555
O1 C9 1_555 1_555
O2 C9 1_555 1_555
N2 C1 1_555 1_555
C1 H1 1_555 1_555
O3 C8 1_555 1_555
O4 Dy3 1_555 1_555
H3 O4 1_555 1_555
N4 C1 1_555 1_555
C4 N4 1_555 1_555
H4 C4 1_555 1_555
H5 C4 1_555 1_555
H6 C5 1_555 1_555
C6 C4 1_555 1_555
O5 Dy2 1_555 1_555
C7 N4 1_555 1_555
H7 C7 1_555 1_555
C8 O5 1_555 1_555
C9 C3 1_555 1_555
C11 C8 1_555 1_555
C12 N2 1_555 1_555
C16 C11 1_555 1_555
H11 C16 1_555 1_555
C17 C6 1_555 1_555
H12 C17 1_555 1_555
C18 C6 1_555 1_555
H13 C18 1_555 1_555
C20 C11 1_555 1_555
H15 C20 1_555 1_555
O6 C23 1_555 1_555
O7 C23 1_555 1_555
C23 C12 1_555 1_555
O10 Dy2 1_555 1_555
H18 O10 1_555 1_555
Dy5 O10 1_555 1_555
Dy7 N2 1_555 1_555
Dy8 O4 1_555 1_555
N6 Dy2 1_555 1_555
O12 Dy2 1_555 1_555
O13 Dy3 1_555 1_555
O14 Dy2 1_555 1_555
O17 Dy3 1_555 1_555
Dy2 O4 1_555 1_555
Dy2 O13 1_555 1_555
C3 C5 1_555 1_555
C7 C12 1_555 1_555
C16 C17 1_555 1_555
C18 C20 1_555 1_555
O6 Dy7 1_555 1_555
Dy5 O12 1_555 1_555
Dy8 O12 1_555 1_555
Dy8 O17 1_555 1_555
O16 Dy7 1_555 1_555
H18_2 O16 1_555 1_555
Dy5_2 O12_2 1_555 1_555
Dy4 O3_2 1_555 1_555
O1_2 C9_2 1_555 1_555
O11 C9_2 1_555 1_555
N6 C1_2 1_555 1_555
C1_2 H1_2 1_555 1_555
O3_2 C8_2 1_555 1_555
O4_2 Dy4 1_555 1_555
H3_2 O4_2 1_555 1_555
N4_2 C1_2 1_555 1_555
C4_2 N4_2 1_555 1_555
H4_2 C4_2 1_555 1_555
H5_2 C4_2 1_555 1_555
H6_2 C5_2 1_555 1_555
C6_2 C4_2 1_555 1_555
C7_2 N4_2 1_555 1_555
H7_2 C7_2 1_555 1_555
C8_2 O5_2 1_555 1_555
C9_2 C3_2 1_555 1_555
C11_2 C8_2 1_555 1_555
C12_2 N6 1_555 1_555
C16_2 C11_2 1_555 1_555
H11_2 C16_2 1_555 1_555
C17_2 C6_2 1_555 1_555
H12_2 C17_2 1_555 1_555
C18_2 C6_2 1_555 1_555
H13_2 C18_2 1_555 1_555
C20_2 C11_2 1_555 1_555
H15_2 C20_2 1_555 1_555
O13 C23_2 1_555 1_555
O7_2 C23_2 1_555 1_555
C23_2 C12_2 1_555 1_555
N5 Dy4 1_555 1_555
C3_2 C5_2 1_555 1_555
C7_2 C12_2 1_555 1_555
C16_2 C17_2 1_555 1_555
C18_2 C20_2 1_555 1_555
Dy8_2 O17_2 1_555 1_555
N5 C2_2 1_555 1_555
N3_2 C2_2 1_555 1_555
C2_2 H2_2 1_555 1_555
C10_2 N3_2 1_555 1_555
H8_2 C10_2 1_555 1_555
H9_2 C10_2 1_555 1_555
C13_2 C14_2 1_555 1_555
C14_2 H10_2 1_555 1_555
C15_2 C10_2 1_555 1_555
C19_2 C15_2 1_555 1_555
H14_2 C19_2 1_555 1_555
C21_2 C14_2 1_555 1_555
H16_2 C21_2 1_555 1_555
C22_2 C13_2 1_555 1_555
H17 C22_2 1_555 1_555
O14 C24_2 1_555 1_555
C24_2 C13_2 1_555 1_555
O15 C24_2 1_555 1_555
C15_2 C21_2 1_555 1_555
C19_2 C22_2 1_555 1_555
Dy5 O3_3 1_555 1_555
Dy8 O11_2 1_555 1_555
O1_3 C9_3 1_555 1_555
O11_2 C9_3 1_555 1_555
N2_2 C1_3 1_555 1_555
C1_3 H1_3 1_555 1_555
O3_3 C8_3 1_555 1_555
H3_3 O12 1_555 1_555
N4_3 C1_3 1_555 1_555
C4_3 N4_3 1_555 1_555
H4_3 C4_3 1_555 1_555
H5_3 C4_3 1_555 1_555
H6_3 C5_3 1_555 1_555
C6_3 C4_3 1_555 1_555
O5_3 Dy8 1_555 1_555
C7_3 N4_3 1_555 1_555
H7_3 C7_3 1_555 1_555
C8_3 O5_3 1_555 1_555
C9_3 C3_3 1_555 1_555
C11_3 C8_3 1_555 1_555
C12_3 N2_2 1_555 1_555
C16_3 C11_3 1_555 1_555
H11_3 C16_3 1_555 1_555
C17_3 C6_3 1_555 1_555
H12_3 C17_3 1_555 1_555
C18_3 C6_3 1_555 1_555
H13_3 C18_3 1_555 1_555
C20_3 C11_3 1_555 1_555
H15_3 C20_3 1_555 1_555
O6_2 C23_3 1_555 1_555
O7_3 C23_3 1_555 1_555
C23_3 C12_3 1_555 1_555
H18_3 O17 1_555 1_555
Dy8_2 N2_2 1_555 1_555
N5_2 Dy5 1_555 1_555
N6_2 Dy8 1_555 1_555
O13_2 Dy5 1_555 1_555
O14_2 Dy8 1_555 1_555
Dy8 O13_2 1_555 1_555
C3_3 C5_3 1_555 1_555
C7_3 C12_3 1_555 1_555
C16_3 C17_3 1_555 1_555
C18_3 C20_3 1_555 1_555
O6_2 Dy8_2 1_555 1_555
N5_2 C2_3 1_555 1_555
N3_3 C2_3 1_555 1_555
C2_3 H2_3 1_555 1_555
C10_3 N3_3 1_555 1_555
H8_3 C10_3 1_555 1_555
H9_3 C10_3 1_555 1_555
C13_3 C14_3 1_555 1_555
C14_3 H10_3 1_555 1_555
C15_3 C10_3 1_555 1_555
C19_3 C15_3 1_555 1_555
H14_3 C19_3 1_555 1_555
C21_3 C14_3 1_555 1_555
H16_3 C21_3 1_555 1_555
C22_3 C13_3 1_555 1_555
O8_2 C24_3 1_555 1_555
C24_3 C13_3 1_555 1_555
O9_2 C24_3 1_555 1_555
Dy8_2 O8_2 1_555 1_555
C15_3 C21_3 1_555 1_555
C19_3 C22_3 1_555 1_555
N1_2 C2_4 1_555 1_555
N3_4 C2_4 1_555 1_555
C2_4 H2_4 1_555 1_555
C10_4 N3_4 1_555 1_555
H8_4 C10_4 1_555 1_555
H9_4 C10_4 1_555 1_555
C13_4 C14_4 1_555 1_555
C14_4 H10_4 1_555 1_555
C15_4 C10_4 1_555 1_555
C19_4 C15_4 1_555 1_555
H14_4 C19_4 1_555 1_555
C21_4 C14_4 1_555 1_555
H16_4 C21_4 1_555 1_555
C22_4 C13_4 1_555 1_555
H17_2 C22_4 1_555 1_555
O14_2 C24_4 1_555 1_555
C24_4 C13_4 1_555 1_555
O15_2 C24_4 1_555 1_555
N1_2 Dy5_2 1_555 1_555
C15_4 C21_4 1_555 1_555
C19_4 C22_4 1_555 1_555
Dy5_2 O3_4 1_555 1_555
O1_4 C9_4 1_555 1_555
O2_2 C9_4 1_555 1_555
N6_2 C1_4 1_555 1_555
C1_4 H1_4 1_555 1_555
O3_4 C8_4 1_555 1_555
H3_4 O12_2 1_555 1_555
N4_4 C1_4 1_555 1_555
C4_4 N4_4 1_555 1_555
H4_4 C4_4 1_555 1_555
H5_4 C4_4 1_555 1_555
H6_4 C5_4 1_555 1_555
C6_4 C4_4 1_555 1_555
C7_4 N4_4 1_555 1_555
H7_4 C7_4 1_555 1_555
C8_4 O5_4 1_555 1_555
C9_4 C3_4 1_555 1_555
C11_4 C8_4 1_555 1_555
C12_4 N6_2 1_555 1_555
C16_4 C11_4 1_555 1_555
H11_4 C16_4 1_555 1_555
C17_4 C6_4 1_555 1_555
H12_4 C17_4 1_555 1_555
C18_4 C6_4 1_555 1_555
H13_4 C18_4 1_555 1_555
C20_4 C11_4 1_555 1_555
H15_4 C20_4 1_555 1_555
O13_2 C23_4 1_555 1_555
O7_4 C23_4 1_555 1_555
C23_4 C12_4 1_555 1_555
C3_4 C5_4 1_555 1_555
C7_4 C12_4 1_555 1_555
C16_4 C17_4 1_555 1_555
C18_4 C20_4 1_555 1_555
H18_4 O17_2 1_555 1_555

#END
