
###############################################################################
#
# This file contains modified crystal structure data generated from the
# MOF subset of the Cambridge Structural Database (CSD) v543 
# hosted by the Cambridge Crystallographic Data Centre (CCDC).
#
# This work is licensed under the Creative Commons
# Attribution-NonCommercial-ShareAlike 4.0 International License.
# To view a copy of this license, visit
# http://creativecommons.org/licenses/by-nc-sa/4.0/
# or send a letter to
# Creative Commons, PO Box 1866, Mountain View, CA 94042, USA.
#
# CIF created using the CSD Python API on 29 September 2022
# The structure has been converted into the P1 space group
# The structure has a 3D framework
# The original CSD entry REWTOF is in the hexagonal crystal system
# The original CSD entry REWTOF is in a Sohncke space group
# The framework has been calculated to contain at least 10.0% void space
# The void calculation uses a probe of radius 1.32A, grid spacing 0.4
# H atom positions have been added when not included in the experimental data
# Generated hydrogen atom positions removed from atoms on special positions
#
###############################################################################

data_REWTOF
_chemical_formula_moiety         '(C42 H66 N6 O36 Pr6)n'
_symmetry_cell_setting           triclinic
_symmetry_space_group_name_H-M   'P 1'
_symmetry_Int_Tables_number      1
_space_group_name_Hall           'P 1'
loop_
_symmetry_equiv_pos_site_id
_symmetry_equiv_pos_as_xyz
1 x,y,z
_cell_length_a                   11.9908(4)
_cell_length_b                   11.9908(4)
_cell_length_c                   15.8395(7)
_cell_angle_alpha                90
_cell_angle_beta                 90
_cell_angle_gamma                120
_cell_volume                     1972.28
loop_
_atom_site_label
_atom_site_type_symbol
_atom_site_fract_x
_atom_site_fract_y
_atom_site_fract_z
C1 C 0.290(3) 0.598(2) 0.0264(16)
C2 C 0.352(3) 0.536(3) 0.0215(16)
C3 C 0.4426(15) 0.5574(15) 0.083333
H2 H 0.487363 0.512636 0.083332
N1 N 0.3103(13) 0.6897(13) 0.083333
C5 C 0.402(2) 0.710(3) 0.1403(16)
H3 H 0.421680 0.774649 0.179962
C6 C 0.464(3) 0.648(3) 0.1452(16)
C7 C 0.552(2) 0.663(2) 0.2186(15)
O5 O 0.5621(19) 0.7423(19) 0.2757(10)
O6 O 0.6074(18) 0.5982(18) 0.2216(11)
Pr2 Pr 0.64430(18) 0.82215(20) 0.416667
Pr3 Pr 0.82215(9) 0.64430(18) 0.250000
Pr4 Pr 0.17785(20) 0.82215(9) 0.083333
Pr1 Pr 0.17785(9) 0.35570(18) 0.750000
H1 H 0.225351 0.578320 0.986705
C4 C 0.337(2) 0.448(2) 0.9481(15)
O1 O 0.2577(19) 0.4379(19) 0.8910(10)
O2 O 0.4018(18) 0.3926(18) 0.9451(11)
O3 O 0.172(3) 0.172(3) 0.833333
O4 O 0.174(8) 0.182(6) 0.654(4)
O7 O 0.008(10) 0.182(6) 0.846(4)
Pr5 Pr 0.35570(18) 0.17785(20) 0.916667
N2 N 0.3103(13) 0.6206(18) 0.750000
O8 O 0.1802(27) 0.4379(19) 0.6090(10)
O9 O 0.0092(25) 0.4018(18) 0.7784(11)
O10 O 0.3926(18) 0.4018(18) 0.7216(11)
O11 O -0.000(4) 0.172(3) 0.666666
O11_2 O 1.000(4) 0.172(3) 0.666666
H4 H 0.968472 0.22066 0.882091
H5 H 0.940313 0.112566 0.810855
O6_2 O 0.0092(25) 0.6074(18) 0.0549(11)
H6 H 0.0291011 0.126001 0.515626
H3_2 H 0.647031 0.421680 0.013295
C7_2 C 0.889(3) 0.552(2) 0.0519(15)
O5_2 O 0.8198(27) 0.5621(19) 0.1090(10)
Pr1_2 Pr 0.82215(20) 0.17785(9) 0.583333
C1_2 C 0.692(4) 0.290(3) 0.8597(16)
H1_2 H 0.647031 0.225351 0.820038
C2_2 C 0.816(4) 0.352(3) 0.8548(16)
C3_2 C 0.8852(21) 0.4426(15) 0.916666
H2_2 H 0.974727 0.487363 0.916665
C4_2 C 0.889(3) 0.337(2) 0.7814(15)
N1_2 N 0.6206(18) 0.3103(13) 0.916666
O1_2 O 0.8198(27) 0.2577(19) 0.7243(10)
O4_2 O 0.992(10) 0.174(8) 0.487(4)
C5_2 C 0.692(4) 0.402(2) 0.9736(16)
C6_2 C 0.816(4) 0.464(3) 0.9785(16)
O7_2 O 0.826(12) 0.008(10) 0.679(4)
N2_2 N 0.6897(22) 0.3103(13) 0.583333
O8_2 O 0.7423(33) 0.1802(27) 0.4423(10)
O9_2 O 0.6074(31) 0.0092(25) 0.6118(11)
O10_2 O 0.9908(25) 0.3926(18) 0.5549(11)
O11_3 O 0.828(5) -0.000(4) 0.500000
H7 H 0.951325 0.130903 0.433275
O11_4 O 0.828(5) 1.000(4) 0.500000
H4_2 H 0.747813 0.968472 0.715424
H5_2 H 0.827747 0.940313 0.644189
O6_3 O 0.4018(18) 0.0092(25) 0.8882(11)
H6_2 H 0.9031 0.0291011 0.34896
C1_3 C 0.402(2) 0.692(4) 0.6931(16)
H1_3 H 0.421680 0.647031 0.653372
C2_3 C 0.464(3) 0.816(4) 0.6882(16)
C3_3 C 0.4426(15) 0.8852(21) 0.750000
H2_3 H 0.487364 0.974727 0.749999
C4_3 C 0.552(2) 0.889(3) 0.6148(15)
O1_3 O 0.5621(19) 0.8198(27) 0.5577(10)
O4_3 O 0.818(6) 0.992(10) 0.321(4)
C5_3 C 0.290(3) 0.692(4) 0.8069(16)
H3_3 H 0.225351 0.647031 0.846628
C6_3 C 0.352(3) 0.816(4) 0.8118(16)
C7_3 C 0.337(2) 0.889(3) 0.8852(15)
O5_3 O 0.2577(19) 0.8198(27) 0.9423(10)
O7_3 O 0.818(6) 0.826(12) 0.513(4)
N2_3 N 0.3794(18) 0.6897(22) 0.416666
O9_3 O 0.5982(18) 0.6074(31) 0.4451(11)
O10_3 O 0.5982(18) 0.9908(25) 0.3882(11)
O11_5 O 0.828(3) 0.828(5) 0.333333
H7_2 H 0.820422 0.951325 0.266609
O11_6 O -0.000(4) 0.828(3) 0.166666
H4_3 H 0.0315278 0.77934 0.382091
H5_3 H 0.0596866 0.887434 0.310855
C1_4 C 0.710(3) 0.402(2) 0.5264(16)
H1_4 H 0.774649 0.421680 0.486705
C2_4 C 0.648(3) 0.464(3) 0.5215(16)
C3_4 C 0.5574(15) 0.4426(15) 0.583333
H2_4 H 0.512637 0.487364 0.583332
C4_4 C 0.663(2) 0.552(2) 0.4481(15)
O1_4 O 0.7423(19) 0.5621(19) 0.3910(10)
O4_4 O 0.826(8) 0.818(6) 0.154(4)
C5_4 C 0.598(2) 0.290(3) 0.6403(16)
H3_4 H 0.578320 0.225351 0.679962
C6_4 C 0.536(3) 0.352(3) 0.6452(16)
C7_4 C 0.448(2) 0.337(2) 0.7186(15)
O5_4 O 0.4379(19) 0.2577(19) 0.7757(10)
O7_4 O 0.992(10) 0.818(6) 0.346(4)
N2_4 N 0.6897(13) 0.3794(18) 0.250000
O9_4 O 0.9908(25) 0.5982(18) 0.2784(11)
O11_7 O 1.000(4) 0.828(3) 0.166666
O11_8 O 0.172(5) 0.000(4) -0.000000
H4_4 H 0.252187 0.0315278 0.215424
H5_4 H 0.172253 0.0596866 0.144189
O11_9 O 0.172(5) 0.000(4) 1.000000
C1_5 C 0.308(4) 0.710(3) 0.3597(16)
H1_5 H 0.352969 0.774649 0.320038
C2_5 C 0.184(4) 0.648(3) 0.3548(16)
C3_5 C 0.1148(21) 0.5574(15) 0.416666
H2_5 H 0.025273 0.512637 0.416665
C4_5 C 0.111(3) 0.663(2) 0.2814(15)
O1_5 O 0.1802(27) 0.7423(19) 0.2243(10)
C5_5 C 0.308(4) 0.598(2) 0.4736(16)
H3_5 H 0.352969 0.578320 0.513295
C6_5 C 0.184(4) 0.536(3) 0.4785(16)
C7_5 C 0.111(3) 0.448(2) 0.5519(15)
O7_5 O 0.174(12) 0.992(10) 0.179(4)
O9_5 O 0.3926(31) 0.9908(25) 0.1118(11)
O11_10 O 0.172(5) 1.000(4) -0.000000
O4_5 O 0.008(10) 0.826(8) 0.987(4)
O11_11 O 0.172(5) 1.000(4) 1.000000
H7_3 H 0.0486745 0.869097 0.933275
H6_3 H 0.970899 0.873999 0.0156262
C1_6 C 0.598(2) 0.308(4) 0.1931(16)
H1_6 H 0.578320 0.352969 0.153372
C2_6 C 0.536(3) 0.184(4) 0.1882(16)
C3_6 C 0.5574(15) 0.1148(21) 0.250000
H2_6 H 0.512636 0.025273 0.249999
C4_6 C 0.448(2) 0.111(3) 0.1148(15)
O1_6 O 0.4379(19) 0.1802(27) 0.0577(10)
C5_6 C 0.710(3) 0.308(4) 0.3069(16)
H3_6 H 0.774649 0.352969 0.346628
C6_6 C 0.648(3) 0.184(4) 0.3118(16)
C7_6 C 0.663(2) 0.111(3) 0.3852(15)
O7_6 O 0.182(6) 0.174(12) 0.013(4)
H4_5 H 0.22066 0.252187 0.0487578
O4_6 O 0.182(6) 0.008(10) 0.821(4)
H5_5 H 0.112566 0.172253 0.977522
H7_4 H 0.179578 0.0486745 0.766609
H6_4 H 0.0968996 0.970899 0.84896
H4_6 H 0.77934 0.0315278 0.284576
H5_6 H 0.887434 0.0596866 0.355811
H6_5 H 0.0291011 0.9031 0.317707
H7_5 H 0.951325 0.820422 0.400058
H6_6 H 0.126001 0.0291011 0.15104
H7_6 H 0.130903 0.951325 0.233391
H5_7 H 0.940313 0.827747 0.022478
H7_7 H 0.179578 0.130903 0.0667248
H6_7 H 0.0968996 0.126001 0.984374
H4_7 H 0.22066 0.968472 0.784576
H5_8 H 0.112566 0.940313 0.855811
H7_8 H 0.0486745 0.179578 0.900058
H6_8 H 0.970899 0.0968996 0.817707
H4_8 H 0.0315278 0.252187 0.451242
H5_9 H 0.0596866 0.172253 0.522478
H7_9 H 0.869097 0.0486745 0.733391
H6_9 H 0.873999 0.970899 0.65104
H4_9 H 0.968472 0.747813 0.951242
loop_
_geom_bond_atom_site_label_1
_geom_bond_atom_site_label_2
_geom_bond_site_symmetry_1
_geom_bond_site_symmetry_2
C2 C1 1_555 1_555
C3 C2 1_555 1_555
H2 C3 1_555 1_555
N1 C1 1_555 1_555
C5 N1 1_555 1_555
H3 C5 1_555 1_555
C6 C3 1_555 1_555
C7 C6 1_555 1_555
O5 C7 1_555 1_555
O6 C7 1_555 1_555
Pr2 O5 1_555 1_555
Pr3 O6 1_555 1_555
Pr4 N1 1_555 1_555
C5 C6 1_555 1_555
Pr1 O1 1_555 1_555
O1 C4 1_555 1_555
O2 C4 1_555 1_555
O3 Pr1 1_555 1_555
O4 Pr1 1_555 1_555
O7 Pr1 1_555 1_555
Pr5 O2 1_555 1_555
N2 Pr1 1_555 1_555
O8 Pr1 1_555 1_555
O9 Pr1 1_555 1_555
O10 Pr1 1_555 1_555
O11 Pr1 1_555 1_555
O3 Pr5 1_555 1_555
Pr4 O6_2 1_555 1_555
O5_2 C7_2 1_555 1_555
Pr3 O5_2 1_555 1_555
Pr1_2 O1_2 1_555 1_555
C1_2 H1_2 1_555 1_555
C2_2 C1_2 1_555 1_555
C3_2 C2_2 1_555 1_555
H2_2 C3_2 1_555 1_555
C4_2 C2_2 1_555 1_555
N1_2 C1_2 1_555 1_555
O1_2 C4_2 1_555 1_555
O11_2 Pr1_2 1_555 1_555
O4_2 Pr1_2 1_555 1_555
C5_2 N1_2 1_555 1_555
C6_2 C3_2 1_555 1_555
O7_2 Pr1_2 1_555 1_555
Pr5 N1_2 1_555 1_555
N2_2 Pr1_2 1_555 1_555
O8_2 Pr1_2 1_555 1_555
O9_2 Pr1_2 1_555 1_555
O10_2 Pr1_2 1_555 1_555
O11_3 Pr1_2 1_555 1_555
C5_2 C6_2 1_555 1_555
O4_2 H7 1_555 1_555
Pr5 O6_3 1_555 1_555
Pr2 O1_3 1_555 1_555
C1_3 H1_3 1_555 1_555
C2_3 C1_3 1_555 1_555
C3_3 C2_3 1_555 1_555
H2_3 C3_3 1_555 1_555
C4_3 C2_3 1_555 1_555
N2 C1_3 1_555 1_555
O1_3 C4_3 1_555 1_555
O11_4 Pr2 1_555 1_555
O4_3 Pr2 1_555 1_555
C5_3 N2 1_555 1_555
H3_3 C5_3 1_555 1_555
C6_3 C3_3 1_555 1_555
C7_3 C6_3 1_555 1_555
O5_3 C7_3 1_555 1_555
O7_3 Pr2 1_555 1_555
N2_3 Pr2 1_555 1_555
O9_3 Pr2 1_555 1_555
O10_3 Pr2 1_555 1_555
O11_5 Pr2 1_555 1_555
C5_3 C6_3 1_555 1_555
O4_3 H7_2 1_555 1_555
Pr3 O1_4 1_555 1_555
C1_4 H1_4 1_555 1_555
C2_4 C1_4 1_555 1_555
C3_4 C2_4 1_555 1_555
H2_4 C3_4 1_555 1_555
C4_4 C2_4 1_555 1_555
N2_2 C1_4 1_555 1_555
O1_4 C4_4 1_555 1_555
O9_3 C4_4 1_555 1_555
O11_5 Pr3 1_555 1_555
O4_4 Pr3 1_555 1_555
C5_4 N2_2 1_555 1_555
H3_4 C5_4 1_555 1_555
C6_4 C3_4 1_555 1_555
C7_4 C6_4 1_555 1_555
O5_4 C7_4 1_555 1_555
O10 C7_4 1_555 1_555
O7_4 Pr3 1_555 1_555
Pr5 O5_4 1_555 1_555
N2_4 Pr3 1_555 1_555
O9_4 Pr3 1_555 1_555
O11_7 Pr3 1_555 1_555
C5_4 C6_4 1_555 1_555
Pr4 O1_5 1_555 1_555
C1_5 H1_5 1_555 1_555
C2_5 C1_5 1_555 1_555
C3_5 C2_5 1_555 1_555
H2_5 C3_5 1_555 1_555
C4_5 C2_5 1_555 1_555
N2_3 C1_5 1_555 1_555
O1_5 C4_5 1_555 1_555
O11_6 Pr4 1_555 1_555
C5_5 N2_3 1_555 1_555
H3_5 C5_5 1_555 1_555
C6_5 C3_5 1_555 1_555
C7_5 C6_5 1_555 1_555
O8 C7_5 1_555 1_555
O7_5 Pr4 1_555 1_555
O9_5 Pr4 1_555 1_555
O11_10 Pr4 1_555 1_555
C5_5 C6_5 1_555 1_555
O4_5 H7_3 1_555 1_555
C1_6 H1_6 1_555 1_555
C2_6 C1_6 1_555 1_555
C3_6 C2_6 1_555 1_555
H2_6 C3_6 1_555 1_555
C4_6 C2_6 1_555 1_555
N2_4 C1_6 1_555 1_555
O1_6 C4_6 1_555 1_555
C5_6 N2_4 1_555 1_555
H3_6 C5_6 1_555 1_555
C6_6 C3_6 1_555 1_555
C7_6 C6_6 1_555 1_555
O8_2 C7_6 1_555 1_555
C5_6 C6_6 1_555 1_555
O7_6 H4_5 1_555 1_555
O11_9 Pr5 1_555 1_555
O4_6 Pr5 1_555 1_555
O4_6 H7_4 1_555 1_555
O7_4 H7_5 1_555 1_555
O7_5 H7_6 1_555 1_555
O7_6 H7_7 1_555 1_555
O7 H7_8 1_555 1_555
O7_2 H7_9 1_555 1_555

#END
