
###############################################################################
#
# This file contains modified crystal structure data generated from the
# MOF subset of the Cambridge Structural Database (CSD) v543 
# hosted by the Cambridge Crystallographic Data Centre (CCDC).
#
# This work is licensed under the Creative Commons
# Attribution-NonCommercial-ShareAlike 4.0 International License.
# To view a copy of this license, visit
# http://creativecommons.org/licenses/by-nc-sa/4.0/
# or send a letter to
# Creative Commons, PO Box 1866, Mountain View, CA 94042, USA.
#
# CIF created using the CSD Python API on 29 September 2022
# The structure has been converted into the P1 space group
# The structure has a 3D framework
# The original CSD entry REWTUL is in the hexagonal crystal system
# The original CSD entry REWTUL is in a Sohncke space group
# The framework has been calculated to contain at least 10.0% void space
# The void calculation uses a probe of radius 1.32A, grid spacing 0.4
# H atom positions have been added when not included in the experimental data
#
###############################################################################

data_REWTUL
_chemical_formula_moiety         '(C42 H48 N6 Nd6 O36)n'
_symmetry_cell_setting           triclinic
_symmetry_space_group_name_H-M   'P 1'
_symmetry_Int_Tables_number      1
_space_group_name_Hall           'P 1'
loop_
_symmetry_equiv_pos_site_id
_symmetry_equiv_pos_as_xyz
1 x,y,z
_cell_length_a                   11.9360(8)
_cell_length_b                   11.9360(8)
_cell_length_c                   15.797(2)
_cell_angle_alpha                90
_cell_angle_beta                 90
_cell_angle_gamma                120
_cell_volume                     1949.05
loop_
_atom_site_label
_atom_site_type_symbol
_atom_site_fract_x
_atom_site_fract_y
_atom_site_fract_z
O12 O 0.1710(30) -0.000000 -0.000000
O12_2 O 0.1710(30) -0.000000 1.000000
H7 H 0.114533 0.0216621 0.842121
H1 H 0.222599 0.581292 0.016385
C4 C 0.335(2) 0.4481(19) 0.0528(11)
O1 O 0.2553(17) 0.4368(15) 0.1090(9)
O2 O 0.002(4) 0.822(6) 0.013(3)
O3 O 0.4010(17) 0.3920(17) 0.0536(11)
Nd2 Nd 0.35504(10) 0.17752(7) 0.083334
Nd3 Nd 0.17752(7) 0.35504(10) 0.250000
O9 O 0.2553(17) 0.8185(23) 0.0577(9)
O12_3 O 0.1710(30) 1.000000 -0.000000
H4 H 0.0360495 0.846078 0.0715368
Nd1 Nd 0.17752(7) 0.82248(7) 0.916667
C1 C 0.288(2) 0.6010(19) 0.9745(12)
C2 C 0.352(2) 0.535(2) 0.9778(12)
C3 C 0.4444(13) 0.5556(13) 0.916667
H2 H 0.490845 0.509910 0.916667
N1 N 0.3084(11) 0.6916(11) 0.916667
O4 O -0.000000 0.829(3) 0.833333
C5 C 0.3990(19) 0.712(2) 0.8588(12)
H3 H 0.418708 0.777401 0.816948
C6 C 0.465(2) 0.648(2) 0.8555(12)
C7 C 0.5519(19) 0.665(2) 0.7805(11)
O5 O 0.5632(15) 0.7447(17) 0.7243(9)
O6 O 0.6080(17) 0.5990(17) 0.7797(11)
O7 O 0.178(6) 0.998(4) 0.820(3)
Nd4 Nd 0.64496(10) 0.82248(7) 0.583334
Nd6 Nd 0.82248(7) 0.64496(10) 0.750000
O8 O 0.1815(23) 0.7447(17) 0.7757(9)
O10 O 0.3920(17) 0.9910(24) 0.8869(11)
O11 O 0.0090(24) 0.6080(17) 0.9464(11)
O12_4 O 0.1710(30) 1.000000 1.000000
H6 H 0.153922 0.96395 0.761797
O4_2 O 1.000000 0.829(3) 0.833333
H5 H 0.978338 0.885467 0.991213
O3_2 O 0.0090(24) 0.4010(17) 0.2203(11)
C1_2 C 0.6870(28) 0.288(2) 0.1412(12)
H1_2 H 0.641307 0.222599 0.183052
C2_2 C 0.817(3) 0.352(2) 0.1445(12)
C3_2 C 0.8888(18) 0.4444(13) 0.083334
H2_2 H 0.980935 0.490845 0.083334
C4_2 C 0.8869(28) 0.335(2) 0.2195(11)
N1_2 N 0.6168(16) 0.3084(11) 0.083334
O1_2 O 0.8185(23) 0.2553(17) 0.2757(9)
O2_2 O 0.180(7) 0.002(4) 0.180(3)
C5_2 C 0.6870(28) 0.3990(19) 0.0255(12)
C6_2 C 0.817(3) 0.465(2) 0.0222(12)
Nd3_2 Nd 0.82248(12) 0.17752(7) 0.416667
O9_2 O 0.4368(29) 0.2553(17) 0.2243(9)
O11_2 O 0.4010(29) 0.0090(24) 0.1131(11)
O12_5 O 0.1710(30) 0.1710(30) 0.166666
H4_2 H 0.189971 0.0360495 0.238204
H7_2 H 0.0928707 0.114533 0.00878726
H3_2 H 0.641307 0.418708 0.983615
C7_2 C 0.8869(28) 0.5519(19) 0.9472(11)
O5_2 O 0.8185(23) 0.5632(15) 0.8910(9)
O7_2 O 0.180(7) 0.178(6) 0.987(3)
O8_2 O 0.4368(29) 0.1815(23) 0.9423(9)
H6_2 H 0.189972 0.153922 0.928463
H5_2 H 0.0928708 0.978338 0.157879
O3_3 O 0.6080(17) 0.0090(24) 0.3869(11)
C1_3 C 0.3990(19) 0.6870(28) 0.3078(12)
H1_3 H 0.418708 0.641307 0.349718
C2_3 C 0.465(2) 0.817(3) 0.3111(12)
C3_3 C 0.4444(13) 0.8888(18) 0.250000
H2_3 H 0.490090 0.980935 0.250000
C4_3 C 0.5519(19) 0.8869(28) 0.3861(11)
N1_3 N 0.3084(11) 0.6168(16) 0.250000
O1_3 O 0.5632(15) 0.8185(23) 0.4423(9)
O2_3 O 0.178(6) 0.180(7) 0.346(3)
C5_3 C 0.288(2) 0.6870(28) 0.1922(12)
H3_3 H 0.222599 0.641307 0.150282
C6_3 C 0.352(2) 0.817(3) 0.1889(12)
C7_3 C 0.335(2) 0.8869(28) 0.1139(11)
O7_3 O 0.002(4) 0.180(7) 0.154(3)
O9_3 O 0.1815(23) 0.4368(29) 0.3910(9)
O11_3 O 0.3920(17) 0.4010(29) 0.2797(11)
O12_6 O 0.000000 0.1710(30) 0.333333
H4_3 H 0.153922 0.189971 0.40487
H5_3 H 0.114533 0.0928708 0.324546
H6_3 H 0.0360498 0.189972 0.0951299
O12_7 O 1.000000 0.1710(30) 0.333333
H7_3 H 0.978338 0.0928707 0.175454
H5_4 H 0.0216619 0.114533 0.491213
C1_4 C 0.712(2) 0.3990(19) 0.4745(12)
H1_4 H 0.777401 0.418708 0.516385
C2_4 C 0.648(2) 0.465(2) 0.4778(12)
C3_4 C 0.5556(13) 0.4444(13) 0.416667
H2_4 H 0.509155 0.490090 0.416667
C4_4 C 0.665(2) 0.5519(19) 0.5528(11)
N1_4 N 0.6916(11) 0.3084(11) 0.416667
O1_4 O 0.7447(17) 0.5632(15) 0.6090(9)
O2_4 O 0.998(4) 0.178(6) 0.513(3)
O3_4 O 0.5990(17) 0.6080(17) 0.5536(11)
C5_4 C 0.6010(19) 0.288(2) 0.3588(12)
H3_4 H 0.581292 0.222599 0.316948
C6_4 C 0.535(2) 0.352(2) 0.3555(12)
C7_4 C 0.4481(19) 0.335(2) 0.2805(11)
O7_4 O 0.822(6) 0.002(4) 0.320(3)
O9_4 O 0.7447(17) 0.1815(23) 0.5577(9)
O11_4 O 0.9910(24) 0.3920(17) 0.4464(11)
O12_8 O 0.8290(30) 0.000000 0.500000
H4_4 H 0.963951 0.153922 0.571537
H6_4 H 0.846078 0.0360498 0.261797
O12_9 O 0.8290(30) 1.000000 0.500000
H7_4 H 0.885467 0.978338 0.342121
H5_5 H 0.907129 0.0216619 0.657879
C1_5 C 0.3130(28) 0.712(2) 0.6412(12)
H1_5 H 0.358693 0.777401 0.683052
C2_5 C 0.183(3) 0.648(2) 0.6445(12)
C3_5 C 0.1112(18) 0.5556(13) 0.583334
H2_5 H 0.019065 0.509155 0.583334
C4_5 C 0.1131(28) 0.665(2) 0.7195(11)
N1_5 N 0.3832(16) 0.6916(11) 0.583334
O2_5 O 0.820(7) 0.998(4) 0.680(3)
C5_5 C 0.3130(28) 0.6010(19) 0.5255(12)
H3_5 H 0.358693 0.581292 0.483615
C6_5 C 0.183(3) 0.535(2) 0.5222(12)
C7_5 C 0.1131(28) 0.4481(19) 0.4472(11)
O7_5 O 0.820(7) 0.822(6) 0.487(3)
O11_5 O 0.5990(29) 0.9910(24) 0.6131(11)
O12_10 O 0.8290(30) 0.8290(30) 0.666666
H4_5 H 0.810029 0.963951 0.738204
H6_5 H 0.810028 0.846078 0.428463
H7_5 H 0.907129 0.885467 0.508787
O3_5 O 0.9910(24) 0.5990(17) 0.7203(11)
H7_6 H 0.0216621 0.907129 0.675454
C1_6 C 0.6010(19) 0.3130(28) 0.8078(12)
H1_6 H 0.581292 0.358693 0.849718
C2_6 C 0.535(2) 0.183(3) 0.8111(12)
C3_6 C 0.5556(13) 0.1112(18) 0.750000
H2_6 H 0.509910 0.019065 0.750000
C4_6 C 0.4481(19) 0.1131(28) 0.8861(11)
N1_6 N 0.6916(11) 0.3832(16) 0.750000
O2_6 O 0.822(6) 0.820(7) 0.846(3)
C5_6 C 0.712(2) 0.3130(28) 0.6922(12)
H3_6 H 0.777401 0.358693 0.650282
C6_6 C 0.648(2) 0.183(3) 0.6889(12)
C7_6 C 0.665(2) 0.1131(28) 0.6139(11)
O7_6 O 0.998(4) 0.820(7) 0.654(3)
H4_6 H 0.846078 0.810029 0.90487
H5_6 H 0.885467 0.907129 0.824546
H6_6 H 0.96395 0.810028 0.59513
H2_7 H 0.490090 0.509155 0.916666
H2_8 H 0.980935 0.490090 0.083333
H2_9 H 0.490845 0.980935 0.250000
H2_10 H 0.509910 0.490845 0.416666
H2_11 H 0.019065 0.509910 0.583333
H2_12 H 0.509155 0.019065 0.750000
loop_
_geom_bond_atom_site_label_1
_geom_bond_atom_site_label_2
_geom_bond_site_symmetry_1
_geom_bond_site_symmetry_2
O1 C4 1_555 1_555
O3 C4 1_555 1_555
Nd2 O3 1_555 1_555
Nd3 O1 1_555 1_555
O2 H4 1_555 1_555
Nd1 N1 1_555 1_555
C2 C1 1_555 1_555
C3 C2 1_555 1_555
H2 C3 1_555 1_555
N1 C1 1_555 1_555
O4 Nd1 1_555 1_555
C5 N1 1_555 1_555
H3 C5 1_555 1_555
C6 C3 1_555 1_555
C7 C6 1_555 1_555
O5 C7 1_555 1_555
O6 C7 1_555 1_555
O7 Nd1 1_555 1_555
Nd4 O5 1_555 1_555
Nd6 O6 1_555 1_555
O8 Nd1 1_555 1_555
O10 Nd1 1_555 1_555
O11 Nd1 1_555 1_555
O12_4 Nd1 1_555 1_555
C5 C6 1_555 1_555
O7 H6 1_555 1_555
Nd6 O4_2 1_555 1_555
Nd3 O3_2 1_555 1_555
Nd2 N1_2 1_555 1_555
C1_2 H1_2 1_555 1_555
C2_2 C1_2 1_555 1_555
C3_2 C2_2 1_555 1_555
H2_2 C3_2 1_555 1_555
C4_2 C2_2 1_555 1_555
N1_2 C1_2 1_555 1_555
O1_2 C4_2 1_555 1_555
O2_2 Nd2 1_555 1_555
O12 Nd2 1_555 1_555
C5_2 N1_2 1_555 1_555
C6_2 C3_2 1_555 1_555
Nd3_2 O1_2 1_555 1_555
O9_2 Nd2 1_555 1_555
O11_2 Nd2 1_555 1_555
O12_5 Nd2 1_555 1_555
C5_2 C6_2 1_555 1_555
O2_2 H4_2 1_555 1_555
O5_2 C7_2 1_555 1_555
Nd6 O5_2 1_555 1_555
O7_2 H6_2 1_555 1_555
Nd3_2 O3_3 1_555 1_555
Nd3 N1_3 1_555 1_555
C1_3 H1_3 1_555 1_555
C2_3 C1_3 1_555 1_555
C3_3 C2_3 1_555 1_555
H2_3 C3_3 1_555 1_555
C4_3 C2_3 1_555 1_555
N1_3 C1_3 1_555 1_555
O1_3 C4_3 1_555 1_555
O2_3 Nd3 1_555 1_555
O12_5 Nd3 1_555 1_555
C5_3 N1_3 1_555 1_555
H3_3 C5_3 1_555 1_555
C6_3 C3_3 1_555 1_555
C7_3 C6_3 1_555 1_555
O9 C7_3 1_555 1_555
O7_3 Nd3 1_555 1_555
Nd4 O1_3 1_555 1_555
O9_3 Nd3 1_555 1_555
O11_3 Nd3 1_555 1_555
O12_6 Nd3 1_555 1_555
C5_3 C6_3 1_555 1_555
O2_3 H4_3 1_555 1_555
O2_3 H5_3 1_555 1_555
O7_3 H6_3 1_555 1_555
Nd3_2 N1_4 1_555 1_555
C1_4 H1_4 1_555 1_555
C2_4 C1_4 1_555 1_555
C3_4 C2_4 1_555 1_555
H2_4 C3_4 1_555 1_555
C4_4 C2_4 1_555 1_555
N1_4 C1_4 1_555 1_555
O1_4 C4_4 1_555 1_555
O2_4 Nd3_2 1_555 1_555
O3_4 C4_4 1_555 1_555
O12_7 Nd3_2 1_555 1_555
C5_4 N1_4 1_555 1_555
H3_4 C5_4 1_555 1_555
C6_4 C3_4 1_555 1_555
C7_4 C6_4 1_555 1_555
O9_2 C7_4 1_555 1_555
O11_3 C7_4 1_555 1_555
O7_4 Nd3_2 1_555 1_555
Nd4 O3_4 1_555 1_555
Nd6 O1_4 1_555 1_555
O9_4 Nd3_2 1_555 1_555
O11_4 Nd3_2 1_555 1_555
O12_8 Nd3_2 1_555 1_555
C5_4 C6_4 1_555 1_555
O2_4 H4_4 1_555 1_555
O7_4 H6_4 1_555 1_555
Nd4 N1_5 1_555 1_555
C1_5 H1_5 1_555 1_555
C2_5 C1_5 1_555 1_555
C3_5 C2_5 1_555 1_555
H2_5 C3_5 1_555 1_555
C4_5 C2_5 1_555 1_555
N1_5 C1_5 1_555 1_555
O8 C4_5 1_555 1_555
O2_5 Nd4 1_555 1_555
O12_9 Nd4 1_555 1_555
C5_5 N1_5 1_555 1_555
H3_5 C5_5 1_555 1_555
C6_5 C3_5 1_555 1_555
C7_5 C6_5 1_555 1_555
O9_3 C7_5 1_555 1_555
O7_5 Nd4 1_555 1_555
O11_5 Nd4 1_555 1_555
O12_10 Nd4 1_555 1_555
C5_5 C6_5 1_555 1_555
O2_5 H4_5 1_555 1_555
O7_5 H6_5 1_555 1_555
O7_5 H7_5 1_555 1_555
Nd6 O3_5 1_555 1_555
Nd6 N1_6 1_555 1_555
C1_6 H1_6 1_555 1_555
C2_6 C1_6 1_555 1_555
C3_6 C2_6 1_555 1_555
H2_6 C3_6 1_555 1_555
C4_6 C2_6 1_555 1_555
N1_6 C1_6 1_555 1_555
O8_2 C4_6 1_555 1_555
O2_6 Nd6 1_555 1_555
O12_10 Nd6 1_555 1_555
C5_6 N1_6 1_555 1_555
H3_6 C5_6 1_555 1_555
C6_6 C3_6 1_555 1_555
C7_6 C6_6 1_555 1_555
O9_4 C7_6 1_555 1_555
O7_6 Nd6 1_555 1_555
C5_6 C6_6 1_555 1_555
O2_6 H4_6 1_555 1_555
O2_6 H5_6 1_555 1_555
O7_6 H6_6 1_555 1_555
H2_7 C3 1_555 1_555
H2_8 C3_2 1_555 1_555
H2_9 C3_3 1_555 1_555
H2_10 C3_4 1_555 1_555
H2_11 C3_5 1_555 1_555
H2_12 C3_6 1_555 1_555

#END
