
###############################################################################
#
# This file contains modified crystal structure data generated from the
# MOF subset of the Cambridge Structural Database (CSD) v543 
# hosted by the Cambridge Crystallographic Data Centre (CCDC).
#
# This work is licensed under the Creative Commons
# Attribution-NonCommercial-ShareAlike 4.0 International License.
# To view a copy of this license, visit
# http://creativecommons.org/licenses/by-nc-sa/4.0/
# or send a letter to
# Creative Commons, PO Box 1866, Mountain View, CA 94042, USA.
#
# CIF created using the CSD Python API on 29 September 2022
# The structure has been converted into the P1 space group
# The structure has a 3D framework
# The original CSD entry REWVIB is in the hexagonal crystal system
# The original CSD entry REWVIB is in a Sohncke space group
# The framework has been calculated to contain at least 10.0% void space
# The void calculation uses a probe of radius 1.32A, grid spacing 0.4
# H atom positions have been added when not included in the experimental data
#
###############################################################################

data_REWVIB
_chemical_formula_moiety         '(C42 H42 Ho6 N6 O36)n'
_symmetry_cell_setting           triclinic
_symmetry_space_group_name_H-M   'P 1'
_symmetry_Int_Tables_number      1
_space_group_name_Hall           'P 1'
loop_
_symmetry_equiv_pos_site_id
_symmetry_equiv_pos_as_xyz
1 x,y,z
_cell_length_a                   11.693(8)
_cell_length_b                   11.693(8)
_cell_length_c                   15.546(11)
_cell_angle_alpha                90
_cell_angle_beta                 90
_cell_angle_gamma                120
_cell_volume                     1840.78
loop_
_atom_site_label
_atom_site_type_symbol
_atom_site_fract_x
_atom_site_fract_y
_atom_site_fract_z
O3 O 0.180(3) 0.000000 0.500000
Ho3 Ho 0.35476(7) 0.17738(5) 0.416666
H4 H 0.239982 0.0731512 0.679324
H5 H 0.0887525 0.0113568 0.646643
Ho1 Ho 0.17738(5) 0.82262(5) 0.583333
C1 C 0.2803(17) 0.6011(16) 0.5247(11)
H1 H 0.213389 0.580371 0.484847
C2 C 0.3477(18) 0.5349(17) 0.5204(11)
C3 C 0.4459(13) 0.5541(13) 0.583333
H2 H 0.491813 0.508187 0.583333
C4 C 0.3277(17) 0.4421(17) 0.4475(11)
N1 N 0.3049(10) 0.6951(10) 0.583333
O1 O 0.2454(12) 0.4312(12) 0.3899(8)
O2 O 0.3932(13) 0.3834(13) 0.4454(9)
O3_2 O 0.180(3) 1.000000 0.500000
O4 O 0.153(3) 0.991(4) 0.6744(18)
C5 C 0.3989(16) 0.7197(17) 0.6420(11)
H3 H 0.419629 0.786611 0.681820
C6 C 0.4651(17) 0.6523(18) 0.6463(11)
C7 C 0.5579(17) 0.6723(17) 0.7192(11)
O5 O 0.5688(12) 0.7546(12) 0.7768(8)
O6 O 0.6166(13) 0.6068(13) 0.7213(9)
O7 O 0.009(4) 0.847(3) 0.4923(18)
Ho4 Ho 0.17738(5) 0.35476(7) 0.250000
Ho5 Ho 0.64524(7) 0.82262(5) 0.916666
Ho6 Ho 0.82262(5) 0.64524(7) 0.750000
O8 O 0.1858(17) 0.7546(12) 0.7232(8)
O9 O 0.2454(12) 0.8142(17) 0.4434(8)
O10 O 0.3834(13) 0.9902(18) 0.6121(9)
O11 O 0.0098(18) 0.6166(13) 0.5546(9)
O12 O 0.000000 0.8200(30) 0.666667
O12_2 O 1.000000 0.8200(30) 0.666667
H6 H 0.926849 0.760018 0.487342
H7 H 0.988643 0.911248 0.520024
O2_2 O 0.0098(18) 0.3932(13) 0.2787(9)
C1_2 C 0.6792(23) 0.2803(17) 0.3580(11)
H1_2 H 0.633018 0.213389 0.318180
C2_2 C 0.8128(25) 0.3477(18) 0.3537(11)
C3_2 C 0.8918(18) 0.4459(13) 0.416666
H2_2 H 0.983626 0.491813 0.416666
C4_2 C 0.8856(24) 0.3277(17) 0.2808(11)
N1_2 N 0.6098(14) 0.3049(10) 0.416666
O1_2 O 0.8142(17) 0.2454(12) 0.2232(8)
O3_3 O 0.1800(30) 0.180(3) 0.333333
O4_2 O 0.162(5) 0.153(3) 0.5077(18)
C5_2 C 0.6792(23) 0.3989(16) 0.4753(11)
H3_2 H 0.633018 0.419629 0.515153
C6_2 C 0.8128(25) 0.4651(17) 0.4796(11)
C7_2 C 0.8856(24) 0.5579(17) 0.5525(11)
O5_2 O 0.8142(17) 0.5688(12) 0.6101(8)
O7_2 O 0.162(5) 0.009(4) 0.3256(18)
Ho4_2 Ho 0.82262(9) 0.17738(5) 0.083333
O8_2 O 0.4312(21) 0.1858(17) 0.5566(8)
O9_2 O 0.4312(21) 0.2454(12) 0.2768(8)
O11_2 O 0.3932(22) 0.0098(18) 0.3879(9)
H4_2 H 0.16683 0.239982 0.512658
H5_2 H 0.0773957 0.0887525 0.479976
H6_2 H 0.16683 0.926849 0.320676
H7_2 H 0.0773959 0.988643 0.353357
O2_3 O 0.6166(13) 0.0098(18) 0.1121(9)
C1_3 C 0.3989(16) 0.6792(23) 0.1914(11)
H1_3 H 0.419629 0.633018 0.151514
C2_3 C 0.4651(17) 0.8128(25) 0.1871(11)
C3_3 C 0.4459(13) 0.8918(18) 0.250000
H2_3 H 0.491813 0.983626 0.250000
C4_3 C 0.5579(17) 0.8856(24) 0.1142(11)
N1_3 N 0.3049(10) 0.6098(14) 0.250000
O1_3 O 0.5688(12) 0.8142(17) 0.0566(8)
O3_4 O 0.000000 0.1800(30) 0.166667
O4_3 O 0.009(4) 0.162(5) 0.3411(18)
C5_3 C 0.2803(17) 0.6792(23) 0.3086(11)
H3_3 H 0.213389 0.633018 0.348486
C6_3 C 0.3477(18) 0.8128(25) 0.3129(11)
C7_3 C 0.3277(17) 0.8856(24) 0.3858(11)
O7_3 O 0.153(3) 0.162(5) 0.1589(18)
O9_3 O 0.1858(17) 0.4312(21) 0.1101(8)
O11_3 O 0.3834(13) 0.3932(22) 0.2213(9)
H6_3 H 0.239982 0.16683 0.154009
H7_3 H 0.0887524 0.0773959 0.18669
O3_5 O 1.000000 0.1800(30) 0.166667
H4_3 H 0.926849 0.16683 0.345991
H5_3 H 0.988643 0.0773957 0.31331
H7_4 H 0.0113565 0.0887524 0.0200236
C1_4 C 0.7197(17) 0.3989(16) 0.0247(11)
C2_4 C 0.6523(18) 0.4651(17) 0.0204(11)
C3_4 C 0.5541(13) 0.4459(13) 0.083333
H2_4 H 0.508187 0.491813 0.083333
N1_4 N 0.6951(10) 0.3049(10) 0.083333
O3_6 O 0.820(3) 0.000000 0.000000
O4_4 O 0.847(3) 0.009(4) 0.1744(18)
C5_4 C 0.6011(16) 0.2803(17) 0.1420(11)
H3_4 H 0.580371 0.213389 0.181820
C6_4 C 0.5349(17) 0.3477(18) 0.1463(11)
C7_4 C 0.4421(17) 0.3277(17) 0.2192(11)
O11_4 O 0.9902(18) 0.3834(13) 0.0546(9)
H1_4 H 0.786611 0.419629 0.984847
C4_4 C 0.6723(17) 0.5579(17) 0.9475(11)
O1_4 O 0.7546(12) 0.5688(12) 0.8899(8)
O2_4 O 0.6068(13) 0.6166(13) 0.9454(9)
O3_7 O 0.820(3) 0.000000 1.000000
O7_4 O 0.991(4) 0.153(3) 0.9923(18)
O9_4 O 0.7546(12) 0.1858(17) 0.9434(8)
O3_8 O 0.820(3) 1.000000 0.000000
H4_4 H 0.760018 0.926849 0.179324
H5_4 H 0.911247 0.988643 0.146643
O3_9 O 0.820(3) 1.000000 1.000000
H6_4 H 0.83317 0.0731514 0.820676
H7_5 H 0.922604 0.0113565 0.853357
O4_5 O 0.838(5) 0.847(3) 0.0077(18)
H3_5 H 0.366982 0.580371 0.015153
C7_5 C 0.1144(24) 0.4421(17) 0.0525(11)
H4_5 H 0.83317 0.760018 0.0126577
C1_5 C 0.3208(23) 0.7197(17) 0.8580(11)
H1_5 H 0.366982 0.786611 0.818180
C2_5 C 0.1872(25) 0.6523(18) 0.8537(11)
C3_5 C 0.1082(18) 0.5541(13) 0.916666
H2_5 H 0.016374 0.508187 0.916666
C4_5 C 0.1144(24) 0.6723(17) 0.7808(11)
N1_5 N 0.3902(14) 0.6951(10) 0.916666
O3_10 O 0.8200(30) 0.820(3) 0.833333
C5_5 C 0.3208(23) 0.6011(16) 0.9753(11)
C6_5 C 0.1872(25) 0.5349(17) 0.9796(11)
O7_5 O 0.838(5) 0.991(4) 0.8256(18)
O11_5 O 0.6068(22) 0.9902(18) 0.8879(9)
H5_5 H 0.922604 0.911247 0.979976
O2_5 O 0.9902(18) 0.6068(13) 0.7787(9)
H4_6 H 0.0731512 0.83317 0.845991
H5_6 H 0.0113568 0.922604 0.81331
C1_6 C 0.6011(16) 0.3208(23) 0.6914(11)
H1_6 H 0.580371 0.366982 0.651514
C2_6 C 0.5349(17) 0.1872(25) 0.6871(11)
C3_6 C 0.5541(13) 0.1082(18) 0.750000
H2_6 H 0.508187 0.016374 0.750000
C4_6 C 0.4421(17) 0.1144(24) 0.6142(11)
N1_6 N 0.6951(10) 0.3902(14) 0.750000
O4_6 O 0.991(4) 0.838(5) 0.8411(18)
C5_6 C 0.7197(17) 0.3208(23) 0.8086(11)
H3_6 H 0.786611 0.366982 0.848486
C6_6 C 0.6523(18) 0.1872(25) 0.8129(11)
C7_6 C 0.6723(17) 0.1144(24) 0.8858(11)
O7_6 O 0.847(3) 0.838(5) 0.6589(18)
H6_5 H 0.760018 0.83317 0.654009
H7_6 H 0.911248 0.922604 0.68669
H6_6 H 0.0731514 0.239982 0.987342
loop_
_geom_bond_atom_site_label_1
_geom_bond_atom_site_label_2
_geom_bond_site_symmetry_1
_geom_bond_site_symmetry_2
Ho3 O3 1_555 1_555
Ho1 N1 1_555 1_555
C1 H1 1_555 1_555
C2 C1 1_555 1_555
C3 C2 1_555 1_555
H2 C3 1_555 1_555
C4 C2 1_555 1_555
N1 C1 1_555 1_555
O1 C4 1_555 1_555
O2 C4 1_555 1_555
O3_2 Ho1 1_555 1_555
O4 Ho1 1_555 1_555
C5 N1 1_555 1_555
H3 C5 1_555 1_555
C6 C3 1_555 1_555
C7 C6 1_555 1_555
O5 C7 1_555 1_555
O6 C7 1_555 1_555
O7 Ho1 1_555 1_555
Ho3 O2 1_555 1_555
Ho4 O1 1_555 1_555
Ho5 O5 1_555 1_555
Ho6 O6 1_555 1_555
O8 Ho1 1_555 1_555
O9 Ho1 1_555 1_555
O10 Ho1 1_555 1_555
O11 Ho1 1_555 1_555
O12 Ho1 1_555 1_555
C5 C6 1_555 1_555
Ho4 O2_2 1_555 1_555
Ho3 N1_2 1_555 1_555
C1_2 H1_2 1_555 1_555
C2_2 C1_2 1_555 1_555
C3_2 C2_2 1_555 1_555
H2_2 C3_2 1_555 1_555
C4_2 C2_2 1_555 1_555
N1_2 C1_2 1_555 1_555
O1_2 C4_2 1_555 1_555
O3_3 Ho3 1_555 1_555
O4_2 Ho3 1_555 1_555
C5_2 N1_2 1_555 1_555
H3_2 C5_2 1_555 1_555
C6_2 C3_2 1_555 1_555
C7_2 C6_2 1_555 1_555
O5_2 C7_2 1_555 1_555
O7_2 Ho3 1_555 1_555
Ho4 O3_3 1_555 1_555
Ho4_2 O1_2 1_555 1_555
Ho6 O5_2 1_555 1_555
O8_2 Ho3 1_555 1_555
O9_2 Ho3 1_555 1_555
O11_2 Ho3 1_555 1_555
C5_2 C6_2 1_555 1_555
O4_2 H4_2 1_555 1_555
O4_2 H5_2 1_555 1_555
Ho4_2 O2_3 1_555 1_555
Ho4 N1_3 1_555 1_555
C1_3 H1_3 1_555 1_555
C2_3 C1_3 1_555 1_555
C3_3 C2_3 1_555 1_555
H2_3 C3_3 1_555 1_555
C4_3 C2_3 1_555 1_555
N1_3 C1_3 1_555 1_555
O1_3 C4_3 1_555 1_555
O3_4 Ho4 1_555 1_555
O4_3 Ho4 1_555 1_555
C5_3 N1_3 1_555 1_555
H3_3 C5_3 1_555 1_555
C6_3 C3_3 1_555 1_555
C7_3 C6_3 1_555 1_555
O9 C7_3 1_555 1_555
O7_3 Ho4 1_555 1_555
O9_3 Ho4 1_555 1_555
O11_3 Ho4 1_555 1_555
C5_3 C6_3 1_555 1_555
O7_3 H6_3 1_555 1_555
O7_3 H7_3 1_555 1_555
Ho4_2 O3_5 1_555 1_555
Ho4_2 N1_4 1_555 1_555
C2_4 C1_4 1_555 1_555
C3_4 C2_4 1_555 1_555
H2_4 C3_4 1_555 1_555
N1_4 C1_4 1_555 1_555
O3_6 Ho4_2 1_555 1_555
O4_4 Ho4_2 1_555 1_555
C5_4 N1_4 1_555 1_555
H3_4 C5_4 1_555 1_555
C6_4 C3_4 1_555 1_555
C7_4 C6_4 1_555 1_555
O9_2 C7_4 1_555 1_555
O11_3 C7_4 1_555 1_555
O11_4 Ho4_2 1_555 1_555
C5_4 C6_4 1_555 1_555
O1_4 C4_4 1_555 1_555
O2_4 C4_4 1_555 1_555
Ho5 O2_4 1_555 1_555
Ho6 O1_4 1_555 1_555
Ho5 O3_9 1_555 1_555
O9_3 C7_5 1_555 1_555
O4_5 H4_5 1_555 1_555
Ho5 N1_5 1_555 1_555
C1_5 H1_5 1_555 1_555
C2_5 C1_5 1_555 1_555
C3_5 C2_5 1_555 1_555
H2_5 C3_5 1_555 1_555
C4_5 C2_5 1_555 1_555
N1_5 C1_5 1_555 1_555
O8 C4_5 1_555 1_555
O3_10 Ho5 1_555 1_555
C5_5 N1_5 1_555 1_555
C6_5 C3_5 1_555 1_555
O7_5 Ho5 1_555 1_555
Ho6 O3_10 1_555 1_555
O11_5 Ho5 1_555 1_555
C5_5 C6_5 1_555 1_555
Ho6 O2_5 1_555 1_555
Ho6 N1_6 1_555 1_555
C1_6 H1_6 1_555 1_555
C2_6 C1_6 1_555 1_555
C3_6 C2_6 1_555 1_555
H2_6 C3_6 1_555 1_555
C4_6 C2_6 1_555 1_555
N1_6 C1_6 1_555 1_555
O8_2 C4_6 1_555 1_555
O12_2 Ho6 1_555 1_555
O4_6 Ho6 1_555 1_555
C5_6 N1_6 1_555 1_555
H3_6 C5_6 1_555 1_555
C6_6 C3_6 1_555 1_555
C7_6 C6_6 1_555 1_555
O9_4 C7_6 1_555 1_555
O7_6 Ho6 1_555 1_555
C5_6 C6_6 1_555 1_555
O7_6 H6_5 1_555 1_555
O7_6 H7_6 1_555 1_555

#END
