
###############################################################################
#
# This file contains modified crystal structure data generated from the
# MOF subset of the Cambridge Structural Database (CSD) v543 
# hosted by the Cambridge Crystallographic Data Centre (CCDC).
#
# This work is licensed under the Creative Commons
# Attribution-NonCommercial-ShareAlike 4.0 International License.
# To view a copy of this license, visit
# http://creativecommons.org/licenses/by-nc-sa/4.0/
# or send a letter to
# Creative Commons, PO Box 1866, Mountain View, CA 94042, USA.
#
# CIF created using the CSD Python API on 29 September 2022
# The structure has been converted into the P1 space group
# The structure has a 3D framework
# The original CSD entry REWVOH is in the hexagonal crystal system
# The original CSD entry REWVOH is in a Sohncke space group
# The framework has been calculated to contain at least 10.0% void space
# The void calculation uses a probe of radius 1.32A, grid spacing 0.4
# H atom positions have been added when not included in the experimental data
#
###############################################################################

data_REWVOH
_chemical_formula_moiety         '(C42 H42 N6 O36 Yb6)n'
_symmetry_cell_setting           triclinic
_symmetry_space_group_name_H-M   'P 1'
_symmetry_Int_Tables_number      1
_space_group_name_Hall           'P 1'
loop_
_symmetry_equiv_pos_site_id
_symmetry_equiv_pos_as_xyz
1 x,y,z
_cell_length_a                   11.6348(11)
_cell_length_b                   11.6348(11)
_cell_length_c                   15.4806(14)
_cell_angle_alpha                90
_cell_angle_beta                 90
_cell_angle_gamma                120
_cell_volume                     1814.83
loop_
_atom_site_label
_atom_site_type_symbol
_atom_site_fract_x
_atom_site_fract_y
_atom_site_fract_z
O12 O 0.000(4) 0.819(3) 0.666666
H6 H 0.0585127 0.842859 0.8549
Yb4 Yb 0.82182(14) 0.17818(6) 0.083333
Yb1 Yb 0.82182(6) 0.64364(13) 0.750000
C1 C 0.721(2) 0.320(2) 0.8091(14)
H1 H 0.788925 0.366258 0.848748
C2 C 0.655(2) 0.189(2) 0.8137(14)
C3 C 0.5499(16) 0.100(3) 0.750000
H2 H 0.503721 0.007442 0.749999
C4 C 0.674(2) 0.116(2) 0.8853(14)
N1 N 0.6966(13) 0.393(3) 0.750000
O2 O 0.7546(16) 0.1845(17) 0.9444(10)
O3 O 0.819(3) 0.819(3) 0.833333
O4 O 0.869(8) 0.845(6) 0.658(3)
C5 C 0.599(3) 0.320(2) 0.6909(14)
H3 H 0.577333 0.366258 0.651252
C6 C 0.534(3) 0.189(2) 0.6863(14)
C7 C 0.442(3) 0.116(2) 0.6147(14)
O6 O 0.4299(23) 0.1845(17) 0.5556(10)
O7 O 0.976(10) 0.845(6) 0.842(3)
Yb3 Yb 0.35636(13) 0.17818(14) 0.416667
Yb6 Yb 0.64364(13) 0.82182(14) 0.916667
O8 O 0.6191(22) 0.6078(15) 0.7216(10)
O9 O 0.9887(16) 0.6078(15) 0.7784(10)
O10 O 0.8155(17) 0.5701(23) 0.6111(10)
O11 O 0.7546(16) 0.5701(23) 0.8889(10)
O12_2 O 1.000(4) 0.819(3) 0.666666
H4 H 0.784333 0.842791 0.64503
H5 H 0.928892 0.927582 0.690092
H7 H 0.998587 0.927582 0.809941
O1 O 0.6078(15) 0.9887(16) 0.8883(10)
O5 O 0.3809(22) 0.9887(16) 0.6117(10)
Yb2 Yb 0.17818(14) 0.82182(6) 0.583333
O12_3 O 0.181(5) 0.000(4) 0.500000
H6_2 H 0.215653 0.0585127 0.688234
C1_2 C 0.401(3) 0.721(2) 0.6424(14)
H1_2 H 0.422667 0.788925 0.682081
C2_2 C 0.466(3) 0.655(2) 0.6470(14)
C3_2 C 0.4499(34) 0.5499(16) 0.583333
H2_2 H 0.496279 0.503721 0.583332
C4_2 C 0.558(3) 0.674(2) 0.7186(14)
N1_2 N 0.3036(33) 0.6966(13) 0.583333
O2_2 O 0.5701(23) 0.7546(16) 0.7777(10)
O4_2 O 0.024(10) 0.869(8) 0.491(3)
C5_2 C 0.279(4) 0.599(3) 0.5242(14)
H3_2 H 0.211075 0.577333 0.484585
C6_2 C 0.345(4) 0.534(3) 0.5196(14)
C7_2 C 0.326(4) 0.442(3) 0.4480(14)
O5_2 O 0.3922(27) 0.3809(22) 0.4450(10)
O6_2 O 0.2454(29) 0.4299(23) 0.3889(10)
O7_2 O 0.131(12) 0.976(10) 0.675(3)
Yb3_2 Yb 0.17818(19) 0.35636(13) 0.250000
O8_2 O 0.0113(27) 0.6191(22) 0.5550(10)
O10_2 O 0.2454(29) 0.8155(17) 0.4444(10)
O11_2 O 0.1845(28) 0.7546(16) 0.7223(10)
O12_4 O 0.181(5) 1.000(4) 0.500000
H5_2 H 0.00131024 0.928892 0.523426
H7_2 H 0.0710052 0.998587 0.643275
H4_2 H 0.941542 0.784333 0.478363
O5_3 O 0.0113(16) 0.3922(27) 0.2784(10)
C1_3 C 0.680(2) 0.401(3) 0.4758(14)
H1_3 H 0.633742 0.422667 0.515415
C2_3 C 0.811(2) 0.466(3) 0.4804(14)
C3_3 C 0.900(3) 0.4499(34) 0.416667
H2_3 H 0.992558 0.496279 0.416666
C4_3 C 0.884(2) 0.558(3) 0.5520(14)
N1_3 N 0.607(3) 0.3036(33) 0.416667
O4_3 O 0.155(6) 0.024(10) 0.325(3)
C5_3 C 0.680(2) 0.279(4) 0.3576(14)
H3_3 H 0.633742 0.211075 0.317919
C6_3 C 0.811(2) 0.345(4) 0.3530(14)
C7_3 C 0.884(2) 0.326(4) 0.2814(14)
O6_3 O 0.8155(17) 0.2454(29) 0.2223(10)
O7_3 O 0.155(6) 0.131(12) 0.509(3)
O8_3 O 0.3922(15) 0.0113(27) 0.3883(10)
O10_3 O 0.4299(23) 0.2454(29) 0.2777(10)
O12_5 O 0.181(3) 0.181(5) 0.333333
H5_3 H 0.0724178 0.00131024 0.356759
H6_3 H 0.157141 0.215653 0.521567
H7_3 H 0.0724178 0.0710052 0.476608
H4_3 H 0.157209 0.941542 0.311697
O5_4 O 0.6191(22) 0.0113(16) 0.1117(10)
C1_4 C 0.279(2) 0.680(2) 0.3091(14)
H1_4 H 0.211075 0.633742 0.348748
C2_4 C 0.345(2) 0.811(2) 0.3137(14)
C3_4 C 0.4501(16) 0.900(3) 0.250000
H2_4 H 0.496279 0.992558 0.249999
C4_4 C 0.326(2) 0.884(2) 0.3853(14)
N1_4 N 0.3034(13) 0.607(3) 0.250000
O4_4 O 0.131(8) 0.155(6) 0.158(3)
C5_4 C 0.401(3) 0.680(2) 0.1909(14)
H3_4 H 0.422667 0.633742 0.151252
C6_4 C 0.466(3) 0.811(2) 0.1863(14)
C7_4 C 0.558(3) 0.884(2) 0.1147(14)
O6_4 O 0.5701(23) 0.8155(17) 0.0556(10)
O7_4 O 0.024(10) 0.155(6) 0.342(3)
O8_4 O 0.3809(22) 0.3922(15) 0.2216(10)
O10_4 O 0.1845(17) 0.4299(23) 0.1111(10)
O12_6 O -0.000(4) 0.181(3) 0.166666
H4_4 H 0.215667 0.157209 0.14503
H5_4 H 0.0711075 0.0724178 0.190092
H7_4 H 0.0014126 0.0724178 0.309941
O12_7 O 1.000(4) 0.181(3) 0.166666
H6_4 H 0.941487 0.157141 0.3549
C1_5 C 0.599(3) 0.279(2) 0.1424(14)
H1_5 H 0.577333 0.211075 0.182081
C2_5 C 0.534(3) 0.345(2) 0.1470(14)
C3_5 C 0.5501(34) 0.4501(16) 0.083333
H2_5 H 0.503721 0.496279 0.083332
C4_5 C 0.442(3) 0.326(2) 0.2186(14)
N1_5 N 0.6964(33) 0.3034(13) 0.083333
C5_5 C 0.721(4) 0.401(3) 0.0242(14)
C6_5 C 0.655(4) 0.466(3) 0.0196(14)
O7_5 O 0.869(12) 0.024(10) 0.175(3)
O8_5 O 0.9887(27) 0.3809(22) 0.0550(10)
O12_8 O 0.819(5) -0.000(4) -0.000000
H5_5 H 0.99869 0.0711075 0.0234256
H7_5 H 0.928995 0.0014126 0.143275
O4_5 O 0.976(10) 0.131(8) 0.991(3)
H3_5 H 0.788925 0.422667 0.984585
C7_5 C 0.674(4) 0.558(3) 0.9480(14)
O5_5 O 0.6078(27) 0.6191(22) 0.9450(10)
O12_9 O 0.819(5) -0.000(4) 1.000000
O12_10 O 0.819(5) 1.000(4) -0.000000
H6_5 H 0.784347 0.941487 0.188234
O12_11 O 0.819(5) 1.000(4) 1.000000
H4_5 H 0.842791 0.0584583 0.811697
H1_6 H 0.366258 0.577333 0.015415
C4_6 C 0.116(2) 0.442(3) 0.0520(14)
O7_6 O 0.845(6) 0.869(12) 0.009(3)
H6_6 H 0.842859 0.784347 0.0215669
C1_6 C 0.320(2) 0.599(3) 0.9758(14)
C2_6 C 0.189(2) 0.534(3) 0.9804(14)
C3_6 C 0.100(3) 0.5501(34) 0.916667
H2_6 H 0.007442 0.503721 0.916666
N1_6 N 0.393(3) 0.6964(33) 0.916667
O4_6 O 0.845(6) 0.976(10) 0.825(3)
C5_6 C 0.320(2) 0.721(4) 0.8576(14)
H3_6 H 0.366258 0.788925 0.817919
C6_6 C 0.189(2) 0.655(4) 0.8530(14)
C7_6 C 0.116(2) 0.674(4) 0.7814(14)
H5_6 H 0.927582 0.99869 0.856759
H7_6 H 0.927582 0.928995 0.976608
H4_6 H 0.0584583 0.215667 0.978363
loop_
_geom_bond_atom_site_label_1
_geom_bond_atom_site_label_2
_geom_bond_site_symmetry_1
_geom_bond_site_symmetry_2
Yb1 N1 1_555 1_555
C1 H1 1_555 1_555
C2 C1 1_555 1_555
C3 C2 1_555 1_555
H2 C3 1_555 1_555
C4 C2 1_555 1_555
N1 C1 1_555 1_555
O2 C4 1_555 1_555
O3 Yb1 1_555 1_555
O4 Yb1 1_555 1_555
C5 N1 1_555 1_555
H3 C5 1_555 1_555
C6 C3 1_555 1_555
C7 C6 1_555 1_555
O6 C7 1_555 1_555
O7 Yb1 1_555 1_555
Yb3 O6 1_555 1_555
Yb6 O3 1_555 1_555
O8 Yb1 1_555 1_555
O9 Yb1 1_555 1_555
O10 Yb1 1_555 1_555
O11 Yb1 1_555 1_555
O12_2 Yb1 1_555 1_555
C5 C6 1_555 1_555
O4 H4 1_555 1_555
O4 H5 1_555 1_555
O7 H7 1_555 1_555
Yb2 O5 1_555 1_555
Yb6 O1 1_555 1_555
Yb2 N1_2 1_555 1_555
C1_2 H1_2 1_555 1_555
C2_2 C1_2 1_555 1_555
C3_2 C2_2 1_555 1_555
H2_2 C3_2 1_555 1_555
C4_2 C2_2 1_555 1_555
N1_2 C1_2 1_555 1_555
O8 C4_2 1_555 1_555
O2_2 C4_2 1_555 1_555
O12 Yb2 1_555 1_555
O4_2 Yb2 1_555 1_555
C5_2 N1_2 1_555 1_555
H3_2 C5_2 1_555 1_555
C6_2 C3_2 1_555 1_555
C7_2 C6_2 1_555 1_555
O5_2 C7_2 1_555 1_555
O6_2 C7_2 1_555 1_555
O7_2 Yb2 1_555 1_555
Yb3 O5_2 1_555 1_555
Yb3_2 O6_2 1_555 1_555
Yb6 O2_2 1_555 1_555
O8_2 Yb2 1_555 1_555
O10_2 Yb2 1_555 1_555
O11_2 Yb2 1_555 1_555
O12_4 Yb2 1_555 1_555
C5_2 C6_2 1_555 1_555
O4_2 H5_2 1_555 1_555
O7_2 H7_2 1_555 1_555
Yb3_2 O5_3 1_555 1_555
Yb3 N1_3 1_555 1_555
C1_3 H1_3 1_555 1_555
C2_3 C1_3 1_555 1_555
C3_3 C2_3 1_555 1_555
H2_3 C3_3 1_555 1_555
C4_3 C2_3 1_555 1_555
N1_3 C1_3 1_555 1_555
O10 C4_3 1_555 1_555
O12_3 Yb3 1_555 1_555
O4_3 Yb3 1_555 1_555
C5_3 N1_3 1_555 1_555
H3_3 C5_3 1_555 1_555
C6_3 C3_3 1_555 1_555
C7_3 C6_3 1_555 1_555
O6_3 C7_3 1_555 1_555
O7_3 Yb3 1_555 1_555
Yb4 O6_3 1_555 1_555
O8_3 Yb3 1_555 1_555
O10_3 Yb3 1_555 1_555
O12_5 Yb3 1_555 1_555
C5_3 C6_3 1_555 1_555
O4_3 H5_3 1_555 1_555
O7_3 H6_3 1_555 1_555
O7_3 H7_3 1_555 1_555
Yb4 O5_4 1_555 1_555
Yb3_2 N1_4 1_555 1_555
C1_4 H1_4 1_555 1_555
C2_4 C1_4 1_555 1_555
C3_4 C2_4 1_555 1_555
H2_4 C3_4 1_555 1_555
C4_4 C2_4 1_555 1_555
N1_4 C1_4 1_555 1_555
O10_2 C4_4 1_555 1_555
O12_5 Yb3_2 1_555 1_555
O4_4 Yb3_2 1_555 1_555
C5_4 N1_4 1_555 1_555
H3_4 C5_4 1_555 1_555
C6_4 C3_4 1_555 1_555
C7_4 C6_4 1_555 1_555
O6_4 C7_4 1_555 1_555
O7_4 Yb3_2 1_555 1_555
O8_4 Yb3_2 1_555 1_555
O10_4 Yb3_2 1_555 1_555
O12_6 Yb3_2 1_555 1_555
C5_4 C6_4 1_555 1_555
O4_4 H4_4 1_555 1_555
O4_4 H5_4 1_555 1_555
O7_4 H7_4 1_555 1_555
Yb4 N1_5 1_555 1_555
C1_5 H1_5 1_555 1_555
C2_5 C1_5 1_555 1_555
C3_5 C2_5 1_555 1_555
H2_5 C3_5 1_555 1_555
C4_5 C2_5 1_555 1_555
N1_5 C1_5 1_555 1_555
O8_4 C4_5 1_555 1_555
O10_3 C4_5 1_555 1_555
O12_7 Yb4 1_555 1_555
C5_5 N1_5 1_555 1_555
C6_5 C3_5 1_555 1_555
O7_5 Yb4 1_555 1_555
O8_5 Yb4 1_555 1_555
O12_8 Yb4 1_555 1_555
C5_5 C6_5 1_555 1_555
O7_5 H7_5 1_555 1_555
O5_5 C7_5 1_555 1_555
O11 C7_5 1_555 1_555
Yb6 O5_5 1_555 1_555
O10_4 C4_6 1_555 1_555
O7_6 H6_6 1_555 1_555
Yb6 N1_6 1_555 1_555
C2_6 C1_6 1_555 1_555
C3_6 C2_6 1_555 1_555
H2_6 C3_6 1_555 1_555
N1_6 C1_6 1_555 1_555
O12_11 Yb6 1_555 1_555
O4_6 Yb6 1_555 1_555
C5_6 N1_6 1_555 1_555
H3_6 C5_6 1_555 1_555
C6_6 C3_6 1_555 1_555
C7_6 C6_6 1_555 1_555
O11_2 C7_6 1_555 1_555
C5_6 C6_6 1_555 1_555
O4_6 H5_6 1_555 1_555

#END
