
###############################################################################
#
# This file contains modified crystal structure data generated from the
# MOF subset of the Cambridge Structural Database (CSD) v543 
# hosted by the Cambridge Crystallographic Data Centre (CCDC).
#
# This work is licensed under the Creative Commons
# Attribution-NonCommercial-ShareAlike 4.0 International License.
# To view a copy of this license, visit
# http://creativecommons.org/licenses/by-nc-sa/4.0/
# or send a letter to
# Creative Commons, PO Box 1866, Mountain View, CA 94042, USA.
#
# CIF created using the CSD Python API on 29 September 2022
# The structure has been converted into the P1 space group
# The structure has a 3D framework
# The original CSD entry REWVAT is in the hexagonal crystal system
# The original CSD entry REWVAT is in a Sohncke space group
# The framework has been calculated to contain at least 10.0% void space
# The void calculation uses a probe of radius 1.32A, grid spacing 0.4
# H atom positions have been added when not included in the experimental data
#
###############################################################################

data_REWVAT
_chemical_formula_moiety         '(C42 H42 Eu6 N6 O36)n'
_symmetry_cell_setting           triclinic
_symmetry_space_group_name_H-M   'P 1'
_symmetry_Int_Tables_number      1
_space_group_name_Hall           'P 1'
loop_
_symmetry_equiv_pos_site_id
_symmetry_equiv_pos_as_xyz
1 x,y,z
_cell_length_a                   11.823(3)
_cell_length_b                   11.823(3)
_cell_length_c                   15.698(4)
_cell_angle_alpha                90
_cell_angle_beta                 90
_cell_angle_gamma                120
_cell_volume                     1900.34
loop_
_atom_site_label
_atom_site_type_symbol
_atom_site_fract_x
_atom_site_fract_y
_atom_site_fract_z
O12 O 0.8263(19) -0.0000(27) 0.500000
H4 H 0.815079 0.0761632 0.321066
H5 H 0.911095 0.019851 0.34505
Eu1 Eu 0.64528(10) 0.82264(5) 0.416667
C1 C 0.3151(16) 0.7139(18) 0.3586(10)
H1 H 0.362454 0.780240 0.316748
C2 C 0.1828(17) 0.6492(18) 0.3540(10)
C3 C 0.112(2) 0.5561(10) 0.416667
H2 H 0.018462 0.509230 0.416667
C4 C 0.1118(15) 0.6669(16) 0.2797(9)
N1 N 0.3848(17) 0.6924(8) 0.416667
O2 O 0.824(4) 0.997(4) 0.322(2)
O3 O 0.1820(13) 0.7474(12) 0.2240(7)
O4 O 0.8263(19) 0.8263(19) 0.333333
C5 C 0.3151(16) 0.6012(24) 0.4747(10)
H3 H 0.362454 0.582214 0.516585
C6 C 0.1828(17) 0.5336(25) 0.4793(10)
C7 C 0.1118(15) 0.4449(22) 0.5536(9)
O6 O 0.1820(13) 0.4346(18) 0.6093(7)
O7 O 0.824(4) 0.827(6) 0.511(2)
Eu3 Eu 0.82264(11) 0.64528(10) 0.250000
Eu4 Eu 0.17736(5) 0.82264(11) 0.083334
Eu5 Eu 0.17736(11) 0.35472(10) 0.750000
O8 O 0.5983(13) 0.6091(17) 0.4442(9)
O9 O 0.5983(13) 0.9892(11) 0.3892(9)
O10 O 0.5654(18) 0.8180(13) 0.5573(7)
O11 O 0.5654(18) 0.7474(12) 0.2760(7)
O12_2 O 0.8263(19) 1.0000(27) 0.500000
H6 H 0.815079 0.738916 0.512267
H7 H 0.911095 0.891244 0.488283
O1 O 0.9892(11) 0.5983(13) 0.2775(9)
O5 O 0.9892(11) 0.3909(17) 0.5558(9)
Eu6 Eu 0.82264(5) 0.17736(11) 0.583334
O4_2 O -0.0000(27) 0.8263(19) 0.166666
H6_2 H 0.0761633 0.815079 0.3456
H7_2 H 0.0198508 0.911095 0.321616
C1_2 C 0.6012(24) 0.3151(16) 0.1919(10)
H1_2 H 0.582214 0.362454 0.150081
C2_2 C 0.5336(25) 0.1828(17) 0.1873(10)
C3_2 C 0.5559(22) 0.112(2) 0.250000
H2_2 H 0.509232 0.018462 0.250000
C4_2 C 0.4449(22) 0.1118(15) 0.1130(9)
N1_2 N 0.6924(19) 0.3848(17) 0.250000
O2_2 O 0.827(6) 0.824(4) 0.155(2)
O3_2 O 0.4346(18) 0.1820(13) 0.0573(7)
O4_3 O 1.0000(27) 0.8263(19) 0.166666
C5_2 C 0.7139(29) 0.3151(16) 0.3081(10)
H3_2 H 0.780240 0.362454 0.349919
C6_2 C 0.6492(30) 0.1828(17) 0.3127(10)
C7_2 C 0.6669(27) 0.1118(15) 0.3870(9)
O6_2 O 0.7474(22) 0.1820(13) 0.4427(7)
O7_2 O 0.997(7) 0.824(4) 0.345(2)
O9_2 O 0.6091(17) 0.5983(13) 0.2225(9)
O10_2 O 0.7474(22) 0.5654(18) 0.3907(7)
O11_2 O 0.8180(22) 0.5654(18) 0.1093(7)
H4_2 H 0.738916 0.815079 0.154399
H5_2 H 0.891244 0.911095 0.178384
Eu4_2 Eu 0.35472(12) 0.17736(5) 0.916667
O1_2 O 0.3909(17) 0.9892(11) 0.1108(9)
O4_4 O 0.1737(19) 0.0000(27) -0.000000
H6_3 H 0.261084 0.0761633 0.178934
H7_3 H 0.108756 0.0198508 0.15495
O4_5 O 0.1737(19) 0.0000(27) 1.000000
C1_3 C 0.2861(18) 0.6012(24) 0.0253(10)
C2_3 C 0.3508(18) 0.5336(25) 0.0207(10)
C3_3 C 0.4439(10) 0.5559(22) 0.083334
H2_3 H 0.490770 0.509232 0.083334
N1_3 N 0.3076(8) 0.6924(19) 0.083334
O4_6 O 0.1737(19) 1.0000(27) -0.000000
C5_3 C 0.3988(24) 0.7139(29) 0.1414(10)
H3_3 H 0.417786 0.780240 0.183252
C6_3 C 0.4664(25) 0.6492(30) 0.1460(10)
C7_3 C 0.5551(22) 0.6669(27) 0.2203(9)
O7_3 O 0.173(6) 0.997(7) 0.178(2)
O9_3 O 0.0108(11) 0.6091(17) 0.0558(9)
H1_3 H 0.219760 0.582214 0.983415
C4_3 C 0.3331(16) 0.4449(22) 0.9464(9)
O1_3 O 0.4017(13) 0.3909(17) 0.9442(9)
O2_3 O 0.003(4) 0.827(6) 0.989(2)
O3_3 O 0.2526(12) 0.4346(18) 0.8907(7)
O4_7 O 0.1737(19) 1.0000(27) 1.000000
O11_3 O 0.2526(12) 0.8180(22) 0.9427(7)
H5_3 H 0.980149 0.891244 0.0117168
O1_4 O 0.0108(11) 0.4017(13) 0.7775(9)
H3_4 H 0.637546 0.417786 0.016585
C7_4 C 0.8882(15) 0.5551(22) 0.0536(9)
O7_4 O 0.176(4) 0.173(6) 0.011(2)
H6_4 H 0.184921 0.261084 0.0122671
C1_4 C 0.6849(16) 0.2861(18) 0.8586(10)
H1_4 H 0.637546 0.219760 0.816748
C2_4 C 0.8172(17) 0.3508(18) 0.8540(10)
C3_4 C 0.888(2) 0.4439(10) 0.916667
H2_4 H 0.981538 0.490770 0.916667
C4_4 C 0.8882(15) 0.3331(16) 0.7797(9)
N1_4 N 0.6152(17) 0.3076(8) 0.916667
O2_4 O 0.176(4) 0.003(4) 0.822(2)
O3_4 O 0.8180(13) 0.2526(12) 0.7240(7)
O4_8 O 0.1737(19) 0.1737(19) 0.833333
C5_4 C 0.6849(16) 0.3988(24) 0.9747(10)
C6_4 C 0.8172(17) 0.4664(25) 0.9793(10)
O9_4 O 0.4017(13) 0.0108(11) 0.8892(9)
O11_4 O 0.4346(18) 0.2526(12) 0.7760(7)
H7_4 H 0.0889053 0.108756 0.988283
H4_3 H 0.184921 0.923837 0.821066
H5_4 H 0.0889052 0.980149 0.84505
O1_5 O 0.6091(17) 0.0108(11) 0.6108(9)
C1_5 C 0.3988(24) 0.6849(16) 0.6919(10)
H1_5 H 0.417786 0.637546 0.650081
C2_5 C 0.4664(25) 0.8172(17) 0.6873(10)
C3_5 C 0.4441(22) 0.888(2) 0.750000
H2_5 H 0.490768 0.981538 0.750000
C4_5 C 0.5551(22) 0.8882(15) 0.6130(9)
N1_5 N 0.3076(19) 0.6152(17) 0.750000
O2_5 O 0.173(6) 0.176(4) 0.655(2)
O4_9 O 0.0000(27) 0.1737(19) 0.666666
C5_5 C 0.2861(29) 0.6849(16) 0.8081(10)
H3_5 H 0.219760 0.637546 0.849919
C6_5 C 0.3508(30) 0.8172(17) 0.8127(10)
C7_5 C 0.3331(27) 0.8882(15) 0.8870(9)
O7_5 O 0.003(7) 0.176(4) 0.845(2)
O9_5 O 0.3909(17) 0.4017(13) 0.7225(9)
H4_4 H 0.261084 0.184921 0.654399
H5_5 H 0.108756 0.0889052 0.678384
O4_10 O 1.0000(27) 0.1737(19) 0.666666
H6_5 H 0.923837 0.184921 0.8456
H7_5 H 0.980149 0.0889053 0.821616
H4_5 H 0.0761632 0.261084 0.487733
H5_6 H 0.019851 0.108756 0.511717
C1_6 C 0.7139(18) 0.3988(24) 0.5253(10)
H1_6 H 0.780240 0.417786 0.483415
C2_6 C 0.6492(18) 0.4664(25) 0.5207(10)
C3_6 C 0.5561(10) 0.4441(22) 0.583334
H2_6 H 0.509230 0.490768 0.583334
C4_6 C 0.6669(16) 0.5551(22) 0.4464(9)
N1_6 N 0.6924(8) 0.3076(19) 0.583334
O2_6 O 0.997(4) 0.173(6) 0.489(2)
C5_6 C 0.6012(24) 0.2861(29) 0.6414(10)
H3_6 H 0.582214 0.219760 0.683252
C6_6 C 0.5336(25) 0.3508(30) 0.6460(10)
C7_6 C 0.4449(22) 0.3331(27) 0.7203(9)
O7_6 O 0.827(6) 0.003(7) 0.678(2)
H6_6 H 0.738916 0.923837 0.678934
H7_6 H 0.891244 0.980149 0.65495
H4_6 H 0.923837 0.738916 0.987733
loop_
_geom_bond_atom_site_label_1
_geom_bond_atom_site_label_2
_geom_bond_site_symmetry_1
_geom_bond_site_symmetry_2
Eu1 N1 1_555 1_555
C1 H1 1_555 1_555
C2 C1 1_555 1_555
C3 C2 1_555 1_555
H2 C3 1_555 1_555
C4 C2 1_555 1_555
N1 C1 1_555 1_555
O2 Eu1 1_555 1_555
O3 C4 1_555 1_555
O4 Eu1 1_555 1_555
C5 N1 1_555 1_555
H3 C5 1_555 1_555
C6 C3 1_555 1_555
C7 C6 1_555 1_555
O6 C7 1_555 1_555
O7 Eu1 1_555 1_555
Eu3 O4 1_555 1_555
Eu4 O3 1_555 1_555
Eu5 O6 1_555 1_555
O8 Eu1 1_555 1_555
O9 Eu1 1_555 1_555
O10 Eu1 1_555 1_555
O11 Eu1 1_555 1_555
O12_2 Eu1 1_555 1_555
C5 C6 1_555 1_555
O7 H6 1_555 1_555
O7 H7 1_555 1_555
Eu3 O1 1_555 1_555
Eu6 O5 1_555 1_555
Eu4 O4_2 1_555 1_555
Eu3 N1_2 1_555 1_555
C1_2 H1_2 1_555 1_555
C2_2 C1_2 1_555 1_555
C3_2 C2_2 1_555 1_555
H2_2 C3_2 1_555 1_555
C4_2 C2_2 1_555 1_555
N1_2 C1_2 1_555 1_555
O2_2 Eu3 1_555 1_555
O3_2 C4_2 1_555 1_555
O4_3 Eu3 1_555 1_555
C5_2 N1_2 1_555 1_555
H3_2 C5_2 1_555 1_555
C6_2 C3_2 1_555 1_555
C7_2 C6_2 1_555 1_555
O6_2 C7_2 1_555 1_555
O7_2 Eu3 1_555 1_555
Eu6 O6_2 1_555 1_555
O9_2 Eu3 1_555 1_555
O10_2 Eu3 1_555 1_555
O11_2 Eu3 1_555 1_555
C5_2 C6_2 1_555 1_555
O2_2 H4_2 1_555 1_555
O2_2 H5_2 1_555 1_555
Eu4 O1_2 1_555 1_555
Eu4_2 O4_5 1_555 1_555
Eu4 N1_3 1_555 1_555
C2_3 C1_3 1_555 1_555
C3_3 C2_3 1_555 1_555
H2_3 C3_3 1_555 1_555
N1_3 C1_3 1_555 1_555
O4_6 Eu4 1_555 1_555
C5_3 N1_3 1_555 1_555
H3_3 C5_3 1_555 1_555
C6_3 C3_3 1_555 1_555
C7_3 C6_3 1_555 1_555
O9_2 C7_3 1_555 1_555
O11 C7_3 1_555 1_555
O7_3 Eu4 1_555 1_555
O9_3 Eu4 1_555 1_555
C5_3 C6_3 1_555 1_555
O1_3 C4_3 1_555 1_555
O3_3 C4_3 1_555 1_555
Eu4_2 O1_3 1_555 1_555
Eu5 O3_3 1_555 1_555
Eu5 O1_4 1_555 1_555
O11_2 C7_4 1_555 1_555
O7_4 H6_4 1_555 1_555
Eu4_2 N1_4 1_555 1_555
C1_4 H1_4 1_555 1_555
C2_4 C1_4 1_555 1_555
C3_4 C2_4 1_555 1_555
H2_4 C3_4 1_555 1_555
C4_4 C2_4 1_555 1_555
N1_4 C1_4 1_555 1_555
O2_4 Eu4_2 1_555 1_555
O3_4 C4_4 1_555 1_555
O4_8 Eu4_2 1_555 1_555
C5_4 N1_4 1_555 1_555
C6_4 C3_4 1_555 1_555
Eu5 O4_8 1_555 1_555
Eu6 O3_4 1_555 1_555
O9_4 Eu4_2 1_555 1_555
O11_4 Eu4_2 1_555 1_555
C5_4 C6_4 1_555 1_555
Eu6 O1_5 1_555 1_555
Eu5 N1_5 1_555 1_555
C1_5 H1_5 1_555 1_555
C2_5 C1_5 1_555 1_555
C3_5 C2_5 1_555 1_555
H2_5 C3_5 1_555 1_555
C4_5 C2_5 1_555 1_555
N1_5 C1_5 1_555 1_555
O2_5 Eu5 1_555 1_555
O10 C4_5 1_555 1_555
O4_9 Eu5 1_555 1_555
C5_5 N1_5 1_555 1_555
H3_5 C5_5 1_555 1_555
C6_5 C3_5 1_555 1_555
C7_5 C6_5 1_555 1_555
O11_3 C7_5 1_555 1_555
O7_5 Eu5 1_555 1_555
O9_5 Eu5 1_555 1_555
C5_5 C6_5 1_555 1_555
O2_5 H4_4 1_555 1_555
O2_5 H5_5 1_555 1_555
Eu6 O4_10 1_555 1_555
Eu6 N1_6 1_555 1_555
C1_6 H1_6 1_555 1_555
C2_6 C1_6 1_555 1_555
C3_6 C2_6 1_555 1_555
H2_6 C3_6 1_555 1_555
C4_6 C2_6 1_555 1_555
N1_6 C1_6 1_555 1_555
O8 C4_6 1_555 1_555
O2_6 Eu6 1_555 1_555
O10_2 C4_6 1_555 1_555
O12 Eu6 1_555 1_555
C5_6 N1_6 1_555 1_555
H3_6 C5_6 1_555 1_555
C6_6 C3_6 1_555 1_555
C7_6 C6_6 1_555 1_555
O9_5 C7_6 1_555 1_555
O11_4 C7_6 1_555 1_555
O7_6 Eu6 1_555 1_555
C5_6 C6_6 1_555 1_555

#END
