
###############################################################################
#
# This file contains modified crystal structure data generated from the
# MOF subset of the Cambridge Structural Database (CSD) v543 
# hosted by the Cambridge Crystallographic Data Centre (CCDC).
#
# This work is licensed under the Creative Commons
# Attribution-NonCommercial-ShareAlike 4.0 International License.
# To view a copy of this license, visit
# http://creativecommons.org/licenses/by-nc-sa/4.0/
# or send a letter to
# Creative Commons, PO Box 1866, Mountain View, CA 94042, USA.
#
# CIF created using the CSD Python API on 29 September 2022
# The structure has been converted into the P1 space group
# The structure has a 3D framework
# The original CSD entry REYBII is in the monoclinic crystal system
# The framework has been calculated to contain at least 10.0% void space
# The void calculation uses a probe of radius 1.32A, grid spacing 0.4
#
###############################################################################

data_REYBII
_chemical_formula_moiety         '(C88 H60 N6 O20 Zn4)n'
_symmetry_cell_setting           triclinic
_symmetry_space_group_name_H-M   'P 1'
_symmetry_Int_Tables_number      1
_space_group_name_Hall           'P 1'
loop_
_symmetry_equiv_pos_site_id
_symmetry_equiv_pos_as_xyz
1 x,y,z
_cell_length_a                   7.9598(6)
_cell_length_b                   15.1435(12)
_cell_length_c                   17.0375(14)
_cell_angle_alpha                90
_cell_angle_beta                 99.4310(10)
_cell_angle_gamma                90
_cell_volume                     2025.93
loop_
_atom_site_label
_atom_site_type_symbol
_atom_site_fract_x
_atom_site_fract_y
_atom_site_fract_z
N2 N 0.5899(3) 0.48204(16) 0.67692(14)
C2 C 0.1582(4) 0.7866(2) 0.82532(17)
H1 H 0.1878 0.8253 0.8677
C3 C 0.2848(4) 0.7335(2) 0.80270(17)
H2 H 0.3963 0.7369 0.8294
C4 C 0.2420(4) 0.67496(19) 0.73929(17)
C5 C 0.3696(4) 0.61395(19) 0.71485(17)
C6 C 0.5230(5) 0.5951(2) 0.7641(2)
H3 H 0.5545 0.6268 0.8110
C7 C 0.6278(5) 0.5300(2) 0.7438(2)
H4 H 0.7294 0.5185 0.7777
C8 C 0.4498(4) 0.5047(2) 0.62657(17)
H5 H 0.4264 0.4755 0.5780
C9 C 0.3386(4) 0.5687(2) 0.64273(18)
H6 H 0.2427 0.5820 0.6056
C10 C 0.0737(4) 0.6750(2) 0.7014(2)
H7 H 0.0400 0.6371 0.6588
Zn4 Zn 0.69761(4) 0.36068(2) 0.676047(19)
O6 O 0.3652(3) 0.15481(15) 0.27206(13)
O7 O 0.5383(3) 0.05376(18) 0.23741(16)
C23 C 0.6775(4) 0.2868(2) 0.53385(17)
O9 O 0.5429(4) 0.32838(17) 0.52603(14)
C24 C 0.5055(4) 0.1123(2) 0.28147(17)
C25 C 0.6348(4) 0.13951(17) 0.35218(16)
C26 C 0.5964(4) 0.20244(18) 0.40634(16)
H16 H 0.4893 0.2286 0.3993
C27 C 0.7181(4) 0.22572(18) 0.47052(16)
C28 C 0.8809(4) 0.18847(19) 0.47962(16)
H17 H 0.9639 0.2055 0.5218
C29 C 0.9177(4) 0.1263(2) 0.42564(18)
C30 C 0.7945(4) 0.10135(19) 0.36258(16)
H18 H 0.8194 0.0586 0.3270
O10 O 0.7860(3) 0.29019(19) 0.59725(13)
Zn2 Zn 0.19761(4) 0.13932(2) 0.176047(19)
N3 N 0.0042(3) 0.21548(16) 0.21102(14)
C44 C 0.0427(4) 0.2697(2) 0.2737(2)
H30 H 0.1535 0.2697 0.3015
N6 N 0.0899(3) 0.01796(16) 0.17692(14)
O11 O 0.2860(3) 0.20981(19) 0.09725(13)
C1 C 0.1775(4) 0.2132(2) 0.03385(17)
O4 O 0.0429(4) 0.17162(17) 0.02603(14)
H10 H 0.4639 0.2945 0.0218
C19 C 0.6932(4) 0.3970(2) 0.00043(19)
H12 H 0.7221 0.3347 0.0018
H13 H 0.6452 0.4108 0.0478
C34 C 0.9967(4) 0.4303(2) 0.05181(19)
H22 H 0.9955 0.3835 0.0871
O1 O 0.8652(3) 0.34519(15) 0.77206(13)
N1 N 0.5042(3) 0.28452(16) 0.71102(14)
C2_2 C 0.3418(4) 0.2866(2) 0.67468(17)
H1_2 H 0.3122 0.3253 0.6323
C3_2 C 0.2152(4) 0.2335(2) 0.69730(17)
H2_2 H 0.1037 0.2369 0.6706
C4_2 C 0.2580(4) 0.17496(19) 0.76071(17)
C5_2 C 0.1304(4) 0.11395(19) 0.78515(17)
C8_2 C 0.0502(4) 0.0047(2) 0.87343(17)
C9_2 C 0.1614(4) 0.0687(2) 0.85727(18)
H6_2 H 0.2573 0.0820 0.8944
C10_2 C 0.4263(4) 0.1750(2) 0.7986(2)
H7_2 H 0.4600 0.1371 0.8412
C11 C 0.5427(4) 0.2303(2) 0.7737(2)
H8 H 0.6535 0.2303 0.8015
H9 H 0.9893 0.2714 0.8993
Zn1 Zn 0.80239(4) 0.86068(2) 0.823953(19)
O1_2 O 0.6348(3) 0.84519(15) 0.72794(13)
O2 O 0.4617(3) 0.94624(18) 0.76259(16)
C1_2 C 0.3225(4) 0.7132(2) 0.46615(17)
O4_2 O 0.4571(4) 0.67162(17) 0.47397(14)
N1_2 N 0.9958(3) 0.78452(16) 0.78898(14)
C11_2 C 0.9573(4) 0.7303(2) 0.7263(2)
H8_2 H 0.8465 0.7303 0.6985
C12 C 0.4945(4) 0.8877(2) 0.71853(17)
C13 C 0.3652(4) 0.86049(17) 0.64782(16)
C14 C 0.4036(4) 0.79756(18) 0.59366(16)
H9_2 H 0.5107 0.7714 0.6007
C15 C 0.2819(4) 0.77428(18) 0.52948(16)
C16 C 0.1191(4) 0.81153(19) 0.52038(16)
H10_2 H 0.0361 0.7945 0.4782
C17 C 0.0823(4) 0.8737(2) 0.57436(18)
C18 C 0.2055(4) 0.89865(19) 0.63742(16)
H11 H 0.1806 0.9414 0.6730
O5 O 0.2140(3) 0.70981(19) 0.40275(13)
Zn6 Zn 0.30239(4) 0.63932(2) 0.323953(19)
N5 N 0.9101(3) 0.98204(16) 0.82308(14)
O12 O 0.7140(3) 0.79019(19) 0.90275(13)
N4 N 0.4101(3) 0.51796(16) 0.32308(14)
C35 C 0.8418(4) 0.2134(2) 0.17468(17)
H23 H 0.8122 0.1747 0.1323
C36 C 0.7152(4) 0.2665(2) 0.19730(17)
H24 H 0.6037 0.2631 0.1706
C37 C 0.7580(4) 0.32504(19) 0.26071(17)
C38 C 0.6304(4) 0.38605(19) 0.28515(17)
C39 C 0.4770(5) 0.4049(2) 0.2359(2)
H25 H 0.4455 0.3732 0.1890
C40 C 0.3722(5) 0.4700(2) 0.2562(2)
H26 H 0.2706 0.4815 0.2223
C41 C 0.5502(4) 0.4953(2) 0.37343(17)
H27 H 0.5736 0.5245 0.4220
C42 C 0.6614(4) 0.4313(2) 0.35727(18)
H28 H 0.7573 0.4180 0.3944
C43 C 0.9263(4) 0.3250(2) 0.2986(2)
H29 H 0.9600 0.3629 0.3412
O6_2 O 0.1348(3) 0.65481(15) 0.22794(13)
H16_2 H 0.0107 0.7286 0.1007
N3_2 N 0.4958(3) 0.71548(16) 0.28898(14)
C35_2 C 0.6582(4) 0.7134(2) 0.32532(17)
H23_2 H 0.6878 0.6747 0.3677
C36_2 C 0.7848(4) 0.7665(2) 0.30270(17)
H24_2 H 0.8963 0.7631 0.3294
C37_2 C 0.7420(4) 0.82504(19) 0.23929(17)
C38_2 C 0.8696(4) 0.88605(19) 0.21485(17)
C41_2 C 0.9498(4) 0.9953(2) 0.12657(17)
C42_2 C 0.8386(4) 0.9313(2) 0.14273(18)
H28_2 H 0.7427 0.9180 0.1056
C43_2 C 0.5737(4) 0.8250(2) 0.2014(2)
H29_2 H 0.5400 0.8629 0.1588
C44_2 C 0.4573(4) 0.7697(2) 0.2263(2)
H30_2 H 0.3465 0.7697 0.1985
C22 C 0.0033(4) 0.5697(2) 0.94819(19)
H15 H 0.0045 0.6165 0.9129
C23_2 C 0.8225(4) 0.7868(2) 0.96615(17)
O9_2 O 0.9571(4) 0.82838(17) 0.97397(14)
H17_2 H 0.5361 0.7055 0.9782
C31 C 0.3068(4) 0.6030(2) 0.99957(19)
H19 H 0.2779 0.6653 0.9982
H20 H 0.3548 0.5892 0.9522
C21 C 0.6451(4) 0.0213(2) 0.55227(19)
H14 H 0.7427 0.0363 0.5877
C22_2 C 0.4967(4) 0.0697(2) 0.55181(19)
H15_2 H 0.4955 0.1165 0.5871
O8 O 0.0722(3) 0.08441(17) 0.43145(13)
C31_2 C 0.1932(4) 0.1030(2) 0.50043(19)
H19_2 H 0.2221 0.1653 0.5018
H20_2 H 0.1452 0.0892 0.5478
C32 C 0.3502(4) 0.0488(2) 0.49892(18)
O3 O 0.9278(3) 0.91559(17) 0.56855(13)
C19_2 C 0.8068(4) 0.8970(2) 0.49957(19)
H12_2 H 0.7779 0.8347 0.4982
H13_2 H 0.8548 0.9108 0.4522
C20 C 0.6498(4) 0.9512(2) 0.50108(18)
C33 C 0.3549(4) 0.9787(2) 0.44773(19)
H21 H 0.2573 0.9637 0.4123
C34_2 C 0.5033(4) 0.9303(2) 0.44819(19)
H22_2 H 0.5045 0.8835 0.4129
C39_2 C 0.0230(5) 0.9049(2) 0.2641(2)
H25_2 H 0.0545 0.8732 0.3110
C40_2 C 0.1278(5) 0.9700(2) 0.2438(2)
H26_2 H 0.2294 0.9815 0.2777
H27_2 H 0.9264 0.0245 0.0780
O7_2 O 0.9617(3) 0.55376(18) 0.26259(16)
O8_2 O 0.4278(3) 0.58441(17) 0.06855(13)
C24_2 C 0.9945(4) 0.6123(2) 0.21853(17)
C25_2 C 0.8652(4) 0.63951(17) 0.14782(16)
C26_2 C 0.9036(4) 0.70244(18) 0.09366(16)
C27_2 C 0.7819(4) 0.72572(18) 0.02948(16)
C28_2 C 0.6191(4) 0.68847(19) 0.02038(16)
C29_2 C 0.5823(4) 0.6263(2) 0.07436(18)
C30_2 C 0.7055(4) 0.60135(19) 0.13742(16)
H18_2 H 0.6806 0.5586 0.1730
C32_2 C 0.1498(4) 0.5488(2) 0.00108(18)
C33_2 C 0.1451(4) 0.4787(2) 0.05227(19)
H21_2 H 0.2427 0.4637 0.0877
O2_2 O 0.0383(3) 0.44624(18) 0.73741(16)
O3_2 O 0.5722(3) 0.41559(17) 0.93145(13)
C12_2 C 0.0055(4) 0.3877(2) 0.78147(17)
C13_2 C 0.1348(4) 0.36049(17) 0.85218(16)
C14_2 C 0.0964(4) 0.29756(18) 0.90634(16)
C15_2 C 0.2181(4) 0.27428(18) 0.97052(16)
C16_2 C 0.3809(4) 0.31153(19) 0.97962(16)
C17_2 C 0.4177(4) 0.3737(2) 0.92564(18)
C18_2 C 0.2945(4) 0.39865(19) 0.86258(16)
H11_2 H 0.3194 0.4414 0.8270
C20_2 C 0.8502(4) 0.4512(2) 0.99892(18)
C21_2 C 0.8549(4) 0.5213(2) 0.94773(19)
H14_2 H 0.7573 0.5363 0.9123
H5_2 H 0.0736 0.9755 0.9220
C6_2 C 0.9770(5) 0.0951(2) 0.7359(2)
H3_2 H 0.9455 0.1268 0.6890
C7_2 C 0.8722(5) 0.0300(2) 0.7562(2)
H4_2 H 0.7706 0.0185 0.7223
loop_
_geom_bond_atom_site_label_1
_geom_bond_atom_site_label_2
_geom_bond_site_symmetry_1
_geom_bond_site_symmetry_2
N2 C7 1_555 1_555
H1 C2 1_555 1_555
C3 C2 1_555 1_555
H2 C3 1_555 1_555
C4 C3 1_555 1_555
C5 C4 1_555 1_555
C6 C5 1_555 1_555
H3 C6 1_555 1_555
C7 C6 1_555 1_555
H4 C7 1_555 1_555
C8 N2 1_555 1_555
H5 C8 1_555 1_555
C9 C5 1_555 1_555
H6 C9 1_555 1_555
C10 C4 1_555 1_555
H7 C10 1_555 1_555
Zn4 N2 1_555 1_555
C8 C9 1_555 1_555
O6 C24 1_555 1_555
O7 C24 1_555 1_555
C23 O9 1_555 1_555
C24 C25 1_555 1_555
C25 C26 1_555 1_555
C26 H16 1_555 1_555
C27 C23 1_555 1_555
C28 C27 1_555 1_555
H17 C28 1_555 1_555
C29 C28 1_555 1_555
C30 C25 1_555 1_555
H18 C30 1_555 1_555
O10 C23 1_555 1_555
Zn2 O6 1_555 1_555
N3 Zn2 1_555 1_555
C44 N3 1_555 1_555
H30 C44 1_555 1_555
Zn4 O10 1_555 1_555
N6 Zn2 1_555 1_555
O11 Zn2 1_555 1_555
C26 C27 1_555 1_555
C29 C30 1_555 1_555
C1 O4 1_555 1_555
H12 C19 1_555 1_555
H13 C19 1_555 1_555
O11 C1 1_555 1_555
H22 C34 1_555 1_555
Zn4 O1 1_555 1_555
N1 Zn4 1_555 1_555
C2_2 N1 1_555 1_555
H1_2 C2_2 1_555 1_555
C3_2 C2_2 1_555 1_555
H2_2 C3_2 1_555 1_555
C4_2 C3_2 1_555 1_555
C5_2 C4_2 1_555 1_555
C9_2 C5_2 1_555 1_555
H6_2 C9_2 1_555 1_555
C10_2 C4_2 1_555 1_555
H7_2 C10_2 1_555 1_555
C11 N1 1_555 1_555
H8 C11 1_555 1_555
C8_2 C9_2 1_555 1_555
C10_2 C11 1_555 1_555
Zn1 O1_2 1_555 1_555
O1_2 C12 1_555 1_555
O2 C12 1_555 1_555
C1_2 O4_2 1_555 1_555
N1_2 Zn1 1_555 1_555
C11_2 N1_2 1_555 1_555
H8_2 C11_2 1_555 1_555
C12 C13 1_555 1_555
C13 C14 1_555 1_555
C14 H9_2 1_555 1_555
C15 C1_2 1_555 1_555
C16 C15 1_555 1_555
H10_2 C16 1_555 1_555
C17 C16 1_555 1_555
C18 C13 1_555 1_555
H11 C18 1_555 1_555
O5 C1_2 1_555 1_555
Zn6 O5 1_555 1_555
N5 Zn1 1_555 1_555
O12 Zn1 1_555 1_555
C14 C15 1_555 1_555
C17 C18 1_555 1_555
N4 C40 1_555 1_555
H23 C35 1_555 1_555
C36 C35 1_555 1_555
H24 C36 1_555 1_555
C37 C36 1_555 1_555
C38 C37 1_555 1_555
C39 C38 1_555 1_555
H25 C39 1_555 1_555
C40 C39 1_555 1_555
H26 C40 1_555 1_555
C41 N4 1_555 1_555
H27 C41 1_555 1_555
C42 C38 1_555 1_555
H28 C42 1_555 1_555
C43 C37 1_555 1_555
H29 C43 1_555 1_555
Zn6 N4 1_555 1_555
C41 C42 1_555 1_555
Zn6 O6_2 1_555 1_555
N3_2 Zn6 1_555 1_555
C35_2 N3_2 1_555 1_555
H23_2 C35_2 1_555 1_555
C36_2 C35_2 1_555 1_555
H24_2 C36_2 1_555 1_555
C37_2 C36_2 1_555 1_555
C38_2 C37_2 1_555 1_555
C42_2 C38_2 1_555 1_555
H28_2 C42_2 1_555 1_555
C43_2 C37_2 1_555 1_555
H29_2 C43_2 1_555 1_555
C44_2 N3_2 1_555 1_555
H30_2 C44_2 1_555 1_555
C41_2 C42_2 1_555 1_555
C43_2 C44_2 1_555 1_555
H15 C22 1_555 1_555
C23_2 O9_2 1_555 1_555
H19 C31 1_555 1_555
H20 C31 1_555 1_555
O12 C23_2 1_555 1_555
H14 C21 1_555 1_555
C22_2 C21 1_555 1_555
H15_2 C22_2 1_555 1_555
C31_2 O8 1_555 1_555
H19_2 C31_2 1_555 1_555
H20_2 C31_2 1_555 1_555
C32 C22_2 1_555 1_555
C31_2 C32 1_555 1_555
C19_2 O3 1_555 1_555
H12_2 C19_2 1_555 1_555
H13_2 C19_2 1_555 1_555
C20 C19_2 1_555 1_555
H21 C33 1_555 1_555
C34_2 C20 1_555 1_555
H22_2 C34_2 1_555 1_555
C33 C34_2 1_555 1_555
H25_2 C39_2 1_555 1_555
C40_2 C39_2 1_555 1_555
H26_2 C40_2 1_555 1_555
O7_2 C24_2 1_555 1_555
O8_2 C29_2 1_555 1_555
C24_2 C25_2 1_555 1_555
C25_2 C26_2 1_555 1_555
C28_2 C27_2 1_555 1_555
C29_2 C28_2 1_555 1_555
C30_2 C25_2 1_555 1_555
H18_2 C30_2 1_555 1_555
C33_2 C32_2 1_555 1_555
H21_2 C33_2 1_555 1_555
C26_2 C27_2 1_555 1_555
C29_2 C30_2 1_555 1_555
O2_2 C12_2 1_555 1_555
O3_2 C17_2 1_555 1_555
C12_2 C13_2 1_555 1_555
C13_2 C14_2 1_555 1_555
C16_2 C15_2 1_555 1_555
C17_2 C16_2 1_555 1_555
C18_2 C13_2 1_555 1_555
H11_2 C18_2 1_555 1_555
C21_2 C20_2 1_555 1_555
H14_2 C21_2 1_555 1_555
C14_2 C15_2 1_555 1_555
C17_2 C18_2 1_555 1_555
H3_2 C6_2 1_555 1_555
C7_2 C6_2 1_555 1_555
H4_2 C7_2 1_555 1_555

#END
