####################################################################### 
# 
# This file contains crystal structure data downloaded from the 
# Cambridge Structural Database (CSD) hosted by the Cambridge 
# Crystallographic Data Centre (CCDC).
# 
# Full information about CCDC data access policies and citation 
# guidelines are available at http://www.ccdc.cam.ac.uk/access/V1 
# 
# Audit and citation data items may have been added by the CCDC. 
# Please retain this information to preserve the provenance of 
# this file and to allow appropriate attribution of the data. 
# 
#######################################################################

data_MIL88A_open_in_water_(experimental_structure)
_audit_block_doi                 10.5517/ccpm4t7
_database_code_depnum_ccdc_archive 'CCDC 644019'
loop_
_citation_id
_citation_doi
_citation_year
1 10.1126/science.1137975 2007
_audit_update_record             
;
2007-04-16 deposited with the CCDC.	2024-07-12 downloaded from the CCDC.
;
_audit_creation_method           'Created with Diamond v2.0'
_audit_creation_date             06-07-06
_chemical_formula_sum            'Fe6 O74 C28'
_chemical_formula_weight         1855.343
_cell_length_a                   13.8711(10)
_cell_length_b                   13.8711(10)
_cell_length_c                   12.663(1)
_cell_angle_alpha                90.000
_cell_angle_beta                 90.000
_cell_angle_gamma                120.000
_cell_volume                     2110.0(3)
_symmetry_int_tables_number      190
_symmetry_space_group_name_H-M   'P -6 2 c'
_symmetry_space_group_name_Hall  P_-6c_-2c

loop_
_atom_type_symbol
_atom_type_oxidation_number
_atom_type_radius_bond
Fe ? 1.200
O ? 0.660
C ? 0.860


loop_
_atom_site_label
_atom_site_type_symbol
_atom_site_fract_x
_atom_site_fract_y
_atom_site_fract_z
_atom_site_occupancy
_atom_site_symmetry_multiplicity
_atom_site_Wyckoff_symbol
_atom_site_attached_hydrogens
_atom_site_calc_flag
_atom_site_thermal_displace_type
_atom_site_u_iso_or_equiv
Fe Fe 0.7706 0.2866 0.2500 1.000 6 h ? d Uiso 0.00000
O1 O 0.6667 0.3333 0.2500 1.000 2 d ? d Uiso 0.00000
O2 O 0.5705 0.1919 0.1065 1.000 12 i ? d Uiso 0.00000
O3 O 0.6932 0.1478 0.1356 1.000 12 i ? d Uiso 0.00000
O4 O 0.9192 0.3046 0.2500 1.000 6 h ? d Uiso 0.00000
O5 O 0.2545 0.5646 0.2500 0.667 6 h ? d Uiso 0.00000
C1 C 0.5934 0.1180 0.1113 1.000 12 i ? d Uiso 0.00000
C2 C 0.5160 0.0088 0.0582 1.000 12 i ? d Uiso 0.00000
C3 C 0.4968 -0.1205 0.2500 0.333 6 h ? d Uiso 0.00000
C4 C 0.2381 0.6448 0.2500 0.333 6 h ? d Uiso 0.00000
Ow1 O 0.8005 0.0883 0.2500 1.000 6 h ? d Uiso 0.00000
Ow2 O 1.0000 0.0000 0.2500 1.000 2 b ? d Uiso 0.00000
Ow3 O 0.6285 -0.2287 0.0956 1.000 12 i ? d Uiso 0.00000
Ow4 O 0.8752 0.0963 0.0553 1.000 12 i ? d Uiso 0.00000
Ow5 O 0.6841 -0.1212 0.2500 1.000 6 h ? d Uiso 0.00000
