
###############################################################################
#
# This file contains modified crystal structure data generated from the
# MOF subset of the Cambridge Structural Database (CSD) v543 
# hosted by the Cambridge Crystallographic Data Centre (CCDC).
#
# This work is licensed under the Creative Commons
# Attribution-NonCommercial-ShareAlike 4.0 International License.
# To view a copy of this license, visit
# http://creativecommons.org/licenses/by-nc-sa/4.0/
# or send a letter to
# Creative Commons, PO Box 1866, Mountain View, CA 94042, USA.
#
# CIF created using the CSD Python API on 29 September 2022
# The structure has been converted into the P1 space group
# The structure has a 3D framework
# The original CSD entry RIDDUE01 is in the monoclinic crystal system
# The framework has been calculated to contain at least 10.0% void space
# The void calculation uses a probe of radius 1.32A, grid spacing 0.4
#
###############################################################################

data_RIDDUE01
_chemical_formula_moiety         '(C56 H24 Co10 N24 O24)n'
_symmetry_cell_setting           triclinic
_symmetry_space_group_name_H-M   'P 1'
_symmetry_Int_Tables_number      1
_space_group_name_Hall           'P 1'
loop_
_symmetry_equiv_pos_site_id
_symmetry_equiv_pos_as_xyz
1 x,y,z
_cell_length_a                   18.453(2)
_cell_length_b                   11.663(2)
_cell_length_c                   11.0742(10)
_cell_angle_alpha                90
_cell_angle_beta                 94.348(9)
_cell_angle_gamma                90
_cell_volume                     2376.5
loop_
_atom_site_label
_atom_site_type_symbol
_atom_site_fract_x
_atom_site_fract_y
_atom_site_fract_z
Co1 Co -0.000000 0.39665(12) 0.250000
O1 O 0.1301(3) 0.2861(4) 0.0593(4)
O2 O 0.0785(3) 0.2669(4) 0.2356(4)
N1 N 0.3719(3) 0.0613(5) 0.1673(4)
N2 N 0.4110(3) 0.0143(5) 0.2602(4)
N3 N 0.3765(3) 0.0233(5) 0.3622(4)
C1 C 0.3098(4) 0.1008(6) 0.2092(6)
C2 C 0.3136(4) 0.0784(6) 0.3335(5)
C3 C 0.2571(4) 0.1100(7) 0.4053(6)
H1 H 0.259209 0.094231 0.487857
C4 C 0.1996(5) 0.1643(8) 0.3483(6)
H2 H 0.161435 0.186302 0.393457
C5 C 0.1948(4) 0.1895(7) 0.2221(6)
C6 C 0.2502(4) 0.1597(6) 0.1526(6)
H3 H 0.248389 0.177949 0.070666
C7 C 0.1302(4) 0.2528(6) 0.1692(6)
O6 O 0.0211(2) 0.4139(4) 0.4316(3)
Co9 Co 0.07420(5) 0.57295(9) 0.49091(7)
Co10 Co 0.42580(5) 0.07295(9) 0.00909(7)
N10 N 0.0890(3) 0.5143(5) 0.2398(4)
N12 N 0.1235(3) 0.5233(5) 0.1378(4)
Co2 Co 0.07420(5) 0.42705(9) 0.99091(7)
O7 O 0.0211(2) 0.5861(4) 0.9316(3)
N7 N 0.1281(3) 0.4387(5) 0.8327(4)
Co5 Co 0.500000 0.89665(12) 0.250000
Co7 Co 0.42580(5) 0.92705(9) 0.50909(7)
Co1_2 Co 1.000000 0.39665(12) 0.250000
O3 O 0.9789(2) 0.4139(4) 0.0684(3)
Co3 Co 0.92580(5) 0.42705(9) 0.50909(7)
O4 O 0.8699(3) 0.2861(4) 0.4407(4)
O5 O 0.9215(3) 0.2669(4) 0.2644(4)
N4 N 0.6281(3) 0.0613(5) 0.3327(4)
N5 N 0.5890(3) 0.0143(5) 0.2398(4)
N6 N 0.6235(3) 0.0233(5) 0.1378(4)
C8 C 0.6902(4) 0.1008(6) 0.2908(6)
C9 C 0.6864(4) 0.0784(6) 0.1665(5)
C10 C 0.7429(4) 0.1100(7) 0.0947(6)
H4 H 0.740791 0.094231 0.012143
C11 C 0.8004(5) 0.1643(8) 0.1517(6)
H5 H 0.838565 0.186302 0.106543
C12 C 0.8052(4) 0.1895(7) 0.2779(6)
C13 C 0.7498(4) 0.1597(6) 0.3474(6)
H6 H 0.751611 0.177949 0.429334
C14 C 0.8698(4) 0.2528(6) 0.3308(6)
Co8 Co 0.92580(5) 0.57295(9) 0.00909(7)
Co11 Co 0.57420(5) 0.07295(9) 0.49091(7)
O8 O 0.9789(2) 0.5861(4) 0.5684(3)
N8 N 0.8719(3) 0.4387(5) 0.6673(4)
N9 N 0.9110(3) 0.5143(5) 0.2602(4)
N11 N 0.8765(3) 0.5233(5) 0.3622(4)
Co6 Co 0.57420(5) 0.92705(9) 0.99091(7)
O8_2 O 0.4789(2) 0.0861(4) 0.5684(3)
O7_2 O 0.5211(2) 0.0861(4) 0.9316(3)
O1_2 O 0.6301(3) 0.7861(4) 0.0593(4)
O2_2 O 0.5785(3) 0.7669(4) 0.2356(4)
O3_2 O 0.4789(2) 0.9139(4) 0.0684(3)
N1_2 N 0.8719(3) 0.5613(5) 0.1673(4)
C1_2 C 0.8098(4) 0.6008(6) 0.2092(6)
C2_2 C 0.8136(4) 0.5784(6) 0.3335(5)
C3_2 C 0.7571(4) 0.6100(7) 0.4053(6)
H1_2 H 0.759209 0.594231 0.487857
C4_2 C 0.6996(5) 0.6643(8) 0.3483(6)
H2_2 H 0.661435 0.686302 0.393457
C5_2 C 0.6948(4) 0.6895(7) 0.2221(6)
C6_2 C 0.7502(4) 0.6597(6) 0.1526(6)
H3_2 H 0.748389 0.677949 0.070666
C7_2 C 0.6302(4) 0.7528(6) 0.1692(6)
O4_2 O 0.3699(3) 0.7861(4) 0.4407(4)
O5_2 O 0.4215(3) 0.7669(4) 0.2644(4)
O6_2 O 0.5211(2) 0.9139(4) 0.4316(3)
N4_2 N 0.1281(3) 0.5613(5) 0.3327(4)
C8_2 C 0.1902(4) 0.6008(6) 0.2908(6)
C9_2 C 0.1864(4) 0.5784(6) 0.1665(5)
C10_2 C 0.2429(4) 0.6100(7) 0.0947(6)
H4_2 H 0.240791 0.594231 0.012143
C11_2 C 0.3004(5) 0.6643(8) 0.1517(6)
H5_2 H 0.338565 0.686302 0.106543
C12_2 C 0.3052(4) 0.6895(7) 0.2779(6)
C13_2 C 0.2498(4) 0.6597(6) 0.3474(6)
H6_2 H 0.251611 0.677949 0.429334
C14_2 C 0.3698(4) 0.7528(6) 0.3308(6)
N8_2 N 0.3719(3) 0.9387(5) 0.6673(4)
N7_2 N 0.6281(3) 0.9387(5) 0.8327(4)
Co4 Co 0.500000 0.10335(12) 0.750000
Co1_3 Co 0.000000 0.60335(12) 0.750000
O4_3 O 0.1301(3) 0.7139(4) 0.5593(4)
O5_3 O 0.0785(3) 0.7331(4) 0.7356(4)
N5_2 N 0.4110(3) 0.9857(5) 0.7602(4)
N6_2 N 0.3765(3) 0.9767(5) 0.8622(4)
C8_3 C 0.3098(4) 0.8992(6) 0.7092(6)
C9_3 C 0.3136(4) 0.9216(6) 0.8335(5)
C10_3 C 0.2571(4) 0.8900(7) 0.9053(6)
H4_3 H 0.259209 0.905769 0.987857
C11_3 C 0.1996(5) 0.8357(8) 0.8483(6)
H5_3 H 0.161435 0.813698 0.893457
C12_3 C 0.1948(4) 0.8105(7) 0.7221(6)
C13_3 C 0.2502(4) 0.8403(6) 0.6526(6)
H6_3 H 0.248389 0.822051 0.570666
C14_3 C 0.1302(4) 0.7472(6) 0.6692(6)
N9_2 N 0.0890(3) 0.4857(5) 0.7398(4)
N11_2 N 0.1235(3) 0.4767(5) 0.6378(4)
Co1_4 Co 1.000000 0.60335(12) 0.750000
O1_3 O 0.8699(3) 0.7139(4) 0.9407(4)
O2_3 O 0.9215(3) 0.7331(4) 0.7644(4)
N2_2 N 0.5890(3) 0.9857(5) 0.7398(4)
N3_2 N 0.6235(3) 0.9767(5) 0.6378(4)
C1_3 C 0.6902(4) 0.8992(6) 0.7908(6)
C2_3 C 0.6864(4) 0.9216(6) 0.6665(5)
C3_3 C 0.7429(4) 0.8900(7) 0.5947(6)
H1_3 H 0.740791 0.905769 0.512143
C4_3 C 0.8004(5) 0.8357(8) 0.6517(6)
H2_3 H 0.838565 0.813698 0.606543
C5_3 C 0.8052(4) 0.8105(7) 0.7779(6)
C6_3 C 0.7498(4) 0.8403(6) 0.8474(6)
H3_3 H 0.751611 0.822051 0.929334
C7_3 C 0.8698(4) 0.7472(6) 0.8308(6)
N10_2 N 0.9110(3) 0.4857(5) 0.7602(4)
N12_2 N 0.8765(3) 0.4767(5) 0.8622(4)
O1_4 O 0.3699(3) 0.2139(4) 0.9407(4)
O2_4 O 0.4215(3) 0.2331(4) 0.7644(4)
C1_4 C 0.1902(4) 0.3992(6) 0.7908(6)
C2_4 C 0.1864(4) 0.4216(6) 0.6665(5)
C3_4 C 0.2429(4) 0.3900(7) 0.5947(6)
H1_4 H 0.240791 0.405769 0.512143
C4_4 C 0.3004(5) 0.3357(8) 0.6517(6)
H2_4 H 0.338565 0.313698 0.606543
C5_4 C 0.3052(4) 0.3105(7) 0.7779(6)
C6_4 C 0.2498(4) 0.3403(6) 0.8474(6)
H3_4 H 0.251611 0.322051 0.929334
C7_4 C 0.3698(4) 0.2472(6) 0.8308(6)
O4_4 O 0.6301(3) 0.2139(4) 0.5593(4)
O5_4 O 0.5785(3) 0.2331(4) 0.7356(4)
C8_4 C 0.8098(4) 0.3992(6) 0.7092(6)
C9_4 C 0.8136(4) 0.4216(6) 0.8335(5)
C10_4 C 0.7571(4) 0.3900(7) 0.9053(6)
H4_4 H 0.759209 0.405769 0.987857
C11_4 C 0.6996(5) 0.3357(8) 0.8483(6)
H5_4 H 0.661435 0.313698 0.893457
C12_4 C 0.6948(4) 0.3105(7) 0.7221(6)
C13_4 C 0.7502(4) 0.3403(6) 0.6526(6)
H6_4 H 0.748389 0.322051 0.570666
C14_4 C 0.6302(4) 0.2472(6) 0.6692(6)
loop_
_geom_bond_atom_site_label_1
_geom_bond_atom_site_label_2
_geom_bond_site_symmetry_1
_geom_bond_site_symmetry_2
Co1 O2 1_555 1_555
O1 C7 1_555 1_555
O2 C7 1_555 1_555
N1 N2 1_555 1_555
N2 N3 1_555 1_555
N3 C2 1_555 1_555
C1 N1 1_555 1_555
C2 C1 1_555 1_555
C3 C2 1_555 1_555
H1 C3 1_555 1_555
C4 C3 1_555 1_555
H2 C4 1_555 1_555
C5 C4 1_555 1_555
C6 C1 1_555 1_555
H3 C6 1_555 1_555
C7 C5 1_555 1_555
O6 Co1 1_555 1_555
Co9 O6 1_555 1_555
Co10 N1 1_555 1_555
N10 Co1 1_555 1_555
C5 C6 1_555 1_555
N10 N12 1_555 1_555
O7 Co2 1_555 1_555
N7 Co2 1_555 1_555
O3 Co1_2 1_555 1_555
Co3 O4 1_555 1_555
O4 C14 1_555 1_555
O5 Co1_2 1_555 1_555
N4 N5 1_555 1_555
N5 N6 1_555 1_555
N6 C9 1_555 1_555
C8 N4 1_555 1_555
C9 C8 1_555 1_555
C10 C9 1_555 1_555
H4 C10 1_555 1_555
C11 C10 1_555 1_555
H5 C11 1_555 1_555
C12 C11 1_555 1_555
C13 C8 1_555 1_555
H6 C13 1_555 1_555
C14 O5 1_555 1_555
Co8 O3 1_555 1_555
Co11 N4 1_555 1_555
O8 Co3 1_555 1_555
N8 Co3 1_555 1_555
N9 Co1_2 1_555 1_555
N11 Co3 1_555 1_555
C12 C13 1_555 1_555
C12 C14 1_555 1_555
N9 N11 1_555 1_555
Co11 O8_2 1_555 1_555
Co5 O2_2 1_555 1_555
O1_2 C7_2 1_555 1_555
O2_2 C7_2 1_555 1_555
O3_2 Co5 1_555 1_555
N1_2 N9 1_555 1_555
N11 C2_2 1_555 1_555
C1_2 N1_2 1_555 1_555
C2_2 C1_2 1_555 1_555
C3_2 C2_2 1_555 1_555
H1_2 C3_2 1_555 1_555
C4_2 C3_2 1_555 1_555
H2_2 C4_2 1_555 1_555
C5_2 C4_2 1_555 1_555
C6_2 C1_2 1_555 1_555
H3_2 C6_2 1_555 1_555
C7_2 C5_2 1_555 1_555
Co7 O4_2 1_555 1_555
O4_2 C14_2 1_555 1_555
O5_2 Co5 1_555 1_555
O6_2 Co5 1_555 1_555
N4_2 N10 1_555 1_555
N12 C9_2 1_555 1_555
C8_2 N4_2 1_555 1_555
C9_2 C8_2 1_555 1_555
C10_2 C9_2 1_555 1_555
H4_2 C10_2 1_555 1_555
C11_2 C10_2 1_555 1_555
H5_2 C11_2 1_555 1_555
C12_2 C11_2 1_555 1_555
C13_2 C8_2 1_555 1_555
H6_2 C13_2 1_555 1_555
C14_2 O5_2 1_555 1_555
Co8 N1_2 1_555 1_555
Co9 N4_2 1_555 1_555
N8_2 Co7 1_555 1_555
C5_2 C6_2 1_555 1_555
Co7 O6_2 1_555 1_555
C12_2 C13_2 1_555 1_555
C12_2 C14_2 1_555 1_555
N7_2 Co6 1_555 1_555
O7 Co1_3 1_555 1_555
Co9 O4_3 1_555 1_555
O4_3 C14_3 1_555 1_555
O5_3 Co1_3 1_555 1_555
N8_2 N5_2 1_555 1_555
N5_2 N6_2 1_555 1_555
N6_2 C9_3 1_555 1_555
C8_3 N8_2 1_555 1_555
C9_3 C8_3 1_555 1_555
C10_3 C9_3 1_555 1_555
H4_3 C10_3 1_555 1_555
C11_3 C10_3 1_555 1_555
H5_3 C11_3 1_555 1_555
C12_3 C11_3 1_555 1_555
C13_3 C8_3 1_555 1_555
H6_3 C13_3 1_555 1_555
C14_3 O5_3 1_555 1_555
N9_2 Co1_3 1_555 1_555
N11_2 Co9 1_555 1_555
C12_3 C13_3 1_555 1_555
C12_3 C14_3 1_555 1_555
N9_2 N11_2 1_555 1_555
Co1_4 O2_3 1_555 1_555
O1_3 C7_3 1_555 1_555
O2_3 C7_3 1_555 1_555
N7_2 N2_2 1_555 1_555
N2_2 N3_2 1_555 1_555
N3_2 C2_3 1_555 1_555
C1_3 N7_2 1_555 1_555
C2_3 C1_3 1_555 1_555
C3_3 C2_3 1_555 1_555
H1_3 C3_3 1_555 1_555
C4_3 C3_3 1_555 1_555
H2_3 C4_3 1_555 1_555
C5_3 C4_3 1_555 1_555
C6_3 C1_3 1_555 1_555
H3_3 C6_3 1_555 1_555
C7_3 C5_3 1_555 1_555
O8 Co1_4 1_555 1_555
N10_2 Co1_4 1_555 1_555
C5_3 C6_3 1_555 1_555
N10_2 N12_2 1_555 1_555
Co4 O2_4 1_555 1_555
O1_4 C7_4 1_555 1_555
O2_4 C7_4 1_555 1_555
O7_2 Co4 1_555 1_555
N7 N9_2 1_555 1_555
N11_2 C2_4 1_555 1_555
C1_4 N7 1_555 1_555
C2_4 C1_4 1_555 1_555
C3_4 C2_4 1_555 1_555
H1_4 C3_4 1_555 1_555
C4_4 C3_4 1_555 1_555
H2_4 C4_4 1_555 1_555
C5_4 C4_4 1_555 1_555
C6_4 C1_4 1_555 1_555
H3_4 C6_4 1_555 1_555
C7_4 C5_4 1_555 1_555
Co11 O4_4 1_555 1_555
O4_4 C14_4 1_555 1_555
O5_4 Co4 1_555 1_555
O8_2 Co4 1_555 1_555
N8 N10_2 1_555 1_555
N12_2 C9_4 1_555 1_555
C8_4 N8 1_555 1_555
C9_4 C8_4 1_555 1_555
C10_4 C9_4 1_555 1_555
H4_4 C10_4 1_555 1_555
C11_4 C10_4 1_555 1_555
H5_4 C11_4 1_555 1_555
C12_4 C11_4 1_555 1_555
C13_4 C8_4 1_555 1_555
H6_4 C13_4 1_555 1_555
C14_4 O5_4 1_555 1_555
C5_4 C6_4 1_555 1_555
C12_4 C13_4 1_555 1_555
C12_4 C14_4 1_555 1_555

#END
