
###############################################################################
#
# This file contains modified crystal structure data generated from the
# MOF subset of the Cambridge Structural Database (CSD) v543 
# hosted by the Cambridge Crystallographic Data Centre (CCDC).
#
# This work is licensed under the Creative Commons
# Attribution-NonCommercial-ShareAlike 4.0 International License.
# To view a copy of this license, visit
# http://creativecommons.org/licenses/by-nc-sa/4.0/
# or send a letter to
# Creative Commons, PO Box 1866, Mountain View, CA 94042, USA.
#
# CIF created using the CSD Python API on 29 September 2022
# The structure has been converted into the P1 space group
# The structure has a 3D framework
# The original CSD entry RIDDUE is in the monoclinic crystal system
# The framework has been calculated to contain at least 10.0% void space
# The void calculation uses a probe of radius 1.32A, grid spacing 0.4
#
###############################################################################

data_RIDDUE
_chemical_formula_moiety         '(C56 H32 Co10 N24 O24)n'
_symmetry_cell_setting           triclinic
_symmetry_space_group_name_H-M   'P 1'
_symmetry_Int_Tables_number      1
_space_group_name_Hall           'P 1'
loop_
_symmetry_equiv_pos_site_id
_symmetry_equiv_pos_as_xyz
1 x,y,z
_cell_length_a                   18.157(11)
_cell_length_b                   12.116(7)
_cell_length_c                   11.046(7)
_cell_angle_alpha                90
_cell_angle_beta                 94.983(10)
_cell_angle_gamma                90
_cell_volume                     2420.83
loop_
_atom_site_label
_atom_site_type_symbol
_atom_site_fract_x
_atom_site_fract_y
_atom_site_fract_z
Co3 Co -0.0000 0.60142(8) 0.2500
Co1 Co 0.5000 0.10142(8) 0.2500
O1 O 0.47895(16) 0.0831(3) 0.0678(3)
H1 H 0.4544 0.1394 0.0375
N1 N 0.8713(2) 0.4417(4) 0.1652(4)
O2 O 0.6310(2) 0.2062(3) 0.0593(3)
O3 O 0.57840(19) 0.2257(3) 0.2337(3)
N2 N 0.9094(2) 0.4897(4) 0.2587(3)
C1 C 0.8094(3) 0.3965(5) 0.2078(4)
N3 N 0.8761(2) 0.4802(4) 0.3606(3)
C2 C 0.7498(3) 0.3381(5) 0.1505(5)
H2 H 0.7472 0.3226 0.0678
C3 C 0.6302(3) 0.2416(5) 0.1685(5)
C4 C 0.8127(3) 0.4216(5) 0.3323(4)
C5 C 0.6952(3) 0.3044(5) 0.2209(5)
C6 C 0.7580(3) 0.3864(5) 0.4044(5)
H3 H 0.7604 0.4020 0.4870
C7 C 0.7010(3) 0.3283(5) 0.3481(5)
H4 H 0.6641 0.3029 0.3944
Co3_2 Co 1.0000 0.60142(8) 0.2500
Co5 Co 0.42470(4) 0.06919(6) 0.50762(6)
Co7 Co 0.92470(4) 0.43081(6) 0.00762(6)
Co8 Co 0.92470(4) 0.56919(6) 0.50762(6)
Co10 Co 0.07530(4) 0.43081(6) 0.49238(6)
O4 O 0.52105(16) 0.0831(3) 0.4322(3)
H5 H 0.5456 0.1394 0.4625
N4 N 0.1287(2) 0.4417(4) 0.3348(4)
N6 N 0.3713(2) 0.0583(4) 0.6652(4)
O7 O 0.3690(2) 0.2062(3) 0.4407(3)
O8 O 0.42160(19) 0.2257(3) 0.2663(3)
N7 N 0.0906(2) 0.4897(4) 0.2413(3)
C8 C 0.1906(3) 0.3965(5) 0.2922(4)
N10 N 0.1239(2) 0.4802(4) 0.1394(3)
C9 C 0.2502(3) 0.3381(5) 0.3495(5)
H8 H 0.2528 0.3226 0.4322
C10 C 0.3698(3) 0.2416(5) 0.3315(5)
C11 C 0.1873(3) 0.4216(5) 0.1677(4)
C12 C 0.3048(3) 0.3044(5) 0.2791(5)
C13 C 0.2420(3) 0.3864(5) 0.0956(5)
H9 H 0.2396 0.4020 0.0130
C14 C 0.2990(3) 0.3283(5) 0.1519(5)
H10 H 0.3359 0.3029 0.1056
Co2 Co 0.57530(4) 0.06919(6) 0.99238(6)
Co11 Co 0.07530(4) 0.56919(6) 0.99238(6)
N5 N 0.6287(2) 0.0583(4) 0.8348(4)
Co6 Co 0.42470(4) 0.93081(6) 0.00762(6)
Co9 Co 0.57530(4) 0.93081(6) 0.49238(6)
O6 O 0.47895(16) 0.9169(3) 0.5678(3)
H7 H 0.4544 0.8606 0.5375
N8 N 0.4094(2) 0.9897(4) 0.2587(3)
N9 N 0.5906(2) 0.9897(4) 0.2413(3)
N11 N 0.6239(2) 0.9802(4) 0.1394(3)
N12 N 0.3761(2) 0.9802(4) 0.3606(3)
O5 O 0.52105(16) 0.9169(3) 0.9322(3)
H6 H 0.5456 0.8606 0.9625
N1_2 N 0.3713(2) 0.9417(4) 0.1652(4)
O2_2 O 0.1310(2) 0.7062(3) 0.0593(3)
O3_2 O 0.07840(19) 0.7257(3) 0.2337(3)
C1_2 C 0.3094(3) 0.8965(5) 0.2078(4)
C2_2 C 0.2498(3) 0.8381(5) 0.1505(5)
H2_2 H 0.2472 0.8226 0.0678
C3_2 C 0.1302(3) 0.7416(5) 0.1685(5)
C4_2 C 0.3127(3) 0.9216(5) 0.3323(4)
C5_2 C 0.1952(3) 0.8044(5) 0.2209(5)
C6_2 C 0.2580(3) 0.8864(5) 0.4044(5)
H3_2 H 0.2604 0.9020 0.4870
C7_2 C 0.2010(3) 0.8283(5) 0.3481(5)
H4_2 H 0.1641 0.8029 0.3944
O4_2 O 0.02105(16) 0.5831(3) 0.4322(3)
H5_2 H 0.0456 0.6394 0.4625
O5_2 O 0.02105(16) 0.4169(3) 0.9322(3)
H6_2 H 0.0456 0.3606 0.9625
N5_2 N 0.1287(2) 0.5583(4) 0.8348(4)
O1_2 O 0.97895(16) 0.5831(3) 0.0678(3)
H1_2 H 0.9544 0.6394 0.0375
O6_2 O 0.97895(16) 0.4169(3) 0.5678(3)
H7_2 H 0.9544 0.3606 0.5375
N4_2 N 0.6287(2) 0.9417(4) 0.3348(4)
N6_2 N 0.8713(2) 0.5583(4) 0.6652(4)
O7_2 O 0.8690(2) 0.7062(3) 0.4407(3)
O8_2 O 0.92160(19) 0.7257(3) 0.2663(3)
C8_2 C 0.6906(3) 0.8965(5) 0.2922(4)
C9_2 C 0.7502(3) 0.8381(5) 0.3495(5)
H8_2 H 0.7528 0.8226 0.4322
C10_2 C 0.8698(3) 0.7416(5) 0.3315(5)
C11_2 C 0.6873(3) 0.9216(5) 0.1677(4)
C12_2 C 0.8048(3) 0.8044(5) 0.2791(5)
C13_2 C 0.7420(3) 0.8864(5) 0.0956(5)
H9_2 H 0.7396 0.9020 0.0130
C14_2 C 0.7990(3) 0.8283(5) 0.1519(5)
H10_2 H 0.8359 0.8029 0.1056
Co4 Co -0.0000 0.39858(8) 0.7500
N8_2 N 0.5906(2) 0.0103(4) 0.7413(3)
N9_2 N 0.4094(2) 0.0103(4) 0.7587(3)
N11_2 N 0.3761(2) 0.0198(4) 0.8606(3)
N12_2 N 0.6239(2) 0.0198(4) 0.6394(3)
Co1_2 Co 0.5000 0.89858(8) 0.7500
O2_3 O 0.3690(2) 0.7938(3) 0.9407(3)
O3_3 O 0.42160(19) 0.7743(3) 0.7663(3)
N2_2 N 0.0906(2) 0.5103(4) 0.7413(3)
C1_3 C 0.1906(3) 0.6035(5) 0.7922(4)
N3_2 N 0.1239(2) 0.5198(4) 0.6394(3)
C2_3 C 0.2502(3) 0.6619(5) 0.8495(5)
H2_3 H 0.2528 0.6774 0.9322
C3_3 C 0.3698(3) 0.7584(5) 0.8315(5)
C4_3 C 0.1873(3) 0.5784(5) 0.6677(4)
C5_3 C 0.3048(3) 0.6956(5) 0.7791(5)
C6_3 C 0.2420(3) 0.6136(5) 0.5956(5)
H3_3 H 0.2396 0.5980 0.5130
C7_3 C 0.2990(3) 0.6717(5) 0.6519(5)
H4_3 H 0.3359 0.6971 0.6056
Co4_2 Co 1.0000 0.39858(8) 0.7500
O7_3 O 0.6310(2) 0.7938(3) 0.5593(3)
O8_3 O 0.57840(19) 0.7743(3) 0.7337(3)
N7_2 N 0.9094(2) 0.5103(4) 0.7587(3)
C8_3 C 0.8094(3) 0.6035(5) 0.7078(4)
N10_2 N 0.8761(2) 0.5198(4) 0.8606(3)
C9_3 C 0.7498(3) 0.6619(5) 0.6505(5)
H8_3 H 0.7472 0.6774 0.5678
C10_3 C 0.6302(3) 0.7584(5) 0.6685(5)
C11_3 C 0.8127(3) 0.5784(5) 0.8323(4)
C12_3 C 0.6952(3) 0.6956(5) 0.7209(5)
C13_3 C 0.7580(3) 0.6136(5) 0.9044(5)
H9_3 H 0.7604 0.5980 0.9870
C14_3 C 0.7010(3) 0.6717(5) 0.8481(5)
H10_3 H 0.6641 0.6971 0.8944
O7_4 O 0.1310(2) 0.2938(3) 0.5593(3)
O8_4 O 0.07840(19) 0.2743(3) 0.7337(3)
C8_4 C 0.3094(3) 0.1035(5) 0.7078(4)
C9_4 C 0.2498(3) 0.1619(5) 0.6505(5)
H8_4 H 0.2472 0.1774 0.5678
C10_4 C 0.1302(3) 0.2584(5) 0.6685(5)
C11_4 C 0.3127(3) 0.0784(5) 0.8323(4)
C12_4 C 0.1952(3) 0.1956(5) 0.7209(5)
C13_4 C 0.2580(3) 0.1136(5) 0.9044(5)
H9_4 H 0.2604 0.0980 0.9870
C14_4 C 0.2010(3) 0.1717(5) 0.8481(5)
H10_4 H 0.1641 0.1971 0.8944
O2_4 O 0.8690(2) 0.2938(3) 0.9407(3)
O3_4 O 0.92160(19) 0.2743(3) 0.7663(3)
C1_4 C 0.6906(3) 0.1035(5) 0.7922(4)
C2_4 C 0.7502(3) 0.1619(5) 0.8495(5)
H2_4 H 0.7528 0.1774 0.9322
C3_4 C 0.8698(3) 0.2584(5) 0.8315(5)
C4_4 C 0.6873(3) 0.0784(5) 0.6677(4)
C5_4 C 0.8048(3) 0.1956(5) 0.7791(5)
C6_4 C 0.7420(3) 0.1136(5) 0.5956(5)
H3_4 H 0.7396 0.0980 0.5130
C7_4 C 0.7990(3) 0.1717(5) 0.6519(5)
H4_4 H 0.8359 0.1971 0.6056
loop_
_geom_bond_atom_site_label_1
_geom_bond_atom_site_label_2
_geom_bond_site_symmetry_1
_geom_bond_site_symmetry_2
Co1 O1 1_555 1_555
O1 H1 1_555 1_555
N1 N2 1_555 1_555
O3 Co1 1_555 1_555
N2 N3 1_555 1_555
C1 N1 1_555 1_555
N3 C4 1_555 1_555
C2 C1 1_555 1_555
H2 C2 1_555 1_555
C3 O2 1_555 1_555
C4 C1 1_555 1_555
C5 C2 1_555 1_555
C6 C4 1_555 1_555
H3 C6 1_555 1_555
C7 C5 1_555 1_555
H4 C7 1_555 1_555
Co3_2 N2 1_555 1_555
Co3 N7 1_555 1_555
Co5 O4 1_555 1_555
Co7 N1 1_555 1_555
Co8 N3 1_555 1_555
Co10 N4 1_555 1_555
O4 Co1 1_555 1_555
H5 O4 1_555 1_555
N4 N7 1_555 1_555
N6 Co5 1_555 1_555
O7 Co5 1_555 1_555
O8 Co1 1_555 1_555
N7 N10 1_555 1_555
C8 N4 1_555 1_555
N10 C11 1_555 1_555
C9 C8 1_555 1_555
H8 C9 1_555 1_555
C10 O7 1_555 1_555
C11 C8 1_555 1_555
C12 C9 1_555 1_555
C13 C11 1_555 1_555
H9 C13 1_555 1_555
C14 C12 1_555 1_555
H10 C14 1_555 1_555
O3 C3 1_555 1_555
C3 C5 1_555 1_555
C6 C7 1_555 1_555
O8 C10 1_555 1_555
C10 C12 1_555 1_555
C13 C14 1_555 1_555
N5 Co2 1_555 1_555
H7 O6 1_555 1_555
Co9 O6 1_555 1_555
N8 N12 1_555 1_555
N9 N11 1_555 1_555
H6 O5 1_555 1_555
N1_2 N8 1_555 1_555
O3_2 Co3 1_555 1_555
C1_2 N1_2 1_555 1_555
N12 C4_2 1_555 1_555
C2_2 C1_2 1_555 1_555
H2_2 C2_2 1_555 1_555
C3_2 O2_2 1_555 1_555
C4_2 C1_2 1_555 1_555
C5_2 C2_2 1_555 1_555
C6_2 C4_2 1_555 1_555
H3_2 C6_2 1_555 1_555
C7_2 C5_2 1_555 1_555
H4_2 C7_2 1_555 1_555
Co6 N1_2 1_555 1_555
Co10 O4_2 1_555 1_555
O4_2 Co3 1_555 1_555
H5_2 O4_2 1_555 1_555
O3_2 C3_2 1_555 1_555
C3_2 C5_2 1_555 1_555
C6_2 C7_2 1_555 1_555
O5_2 Co11 1_555 1_555
H6_2 O5_2 1_555 1_555
N5_2 Co11 1_555 1_555
Co3_2 O1_2 1_555 1_555
O1_2 H1_2 1_555 1_555
Co7 O1_2 1_555 1_555
Co9 N4_2 1_555 1_555
O6_2 Co8 1_555 1_555
H7_2 O6_2 1_555 1_555
N4_2 N9 1_555 1_555
N6_2 Co8 1_555 1_555
O7_2 Co8 1_555 1_555
O8_2 Co3_2 1_555 1_555
C8_2 N4_2 1_555 1_555
N11 C11_2 1_555 1_555
C9_2 C8_2 1_555 1_555
H8_2 C9_2 1_555 1_555
C10_2 O7_2 1_555 1_555
C11_2 C8_2 1_555 1_555
C12_2 C9_2 1_555 1_555
C13_2 C11_2 1_555 1_555
H9_2 C13_2 1_555 1_555
C14_2 C12_2 1_555 1_555
H10_2 C14_2 1_555 1_555
O8_2 C10_2 1_555 1_555
C10_2 C12_2 1_555 1_555
C13_2 C14_2 1_555 1_555
N8_2 N12_2 1_555 1_555
N9_2 N11_2 1_555 1_555
Co1_2 O5 1_555 1_555
N5_2 N2_2 1_555 1_555
O3_3 Co1_2 1_555 1_555
N2_2 N3_2 1_555 1_555
C1_3 N5_2 1_555 1_555
N3_2 C4_3 1_555 1_555
C2_3 C1_3 1_555 1_555
H2_3 C2_3 1_555 1_555
C3_3 O2_3 1_555 1_555
C4_3 C1_3 1_555 1_555
C5_3 C2_3 1_555 1_555
C6_3 C4_3 1_555 1_555
H3_3 C6_3 1_555 1_555
C7_3 C5_3 1_555 1_555
H4_3 C7_3 1_555 1_555
Co4 N2_2 1_555 1_555
Co4_2 N7_2 1_555 1_555
Co10 N3_2 1_555 1_555
O6 Co1_2 1_555 1_555
N6_2 N7_2 1_555 1_555
O7_3 Co9 1_555 1_555
O8_3 Co1_2 1_555 1_555
N7_2 N10_2 1_555 1_555
C8_3 N6_2 1_555 1_555
N10_2 C11_3 1_555 1_555
C9_3 C8_3 1_555 1_555
H8_3 C9_3 1_555 1_555
C10_3 O7_3 1_555 1_555
C11_3 C8_3 1_555 1_555
C12_3 C9_3 1_555 1_555
C13_3 C11_3 1_555 1_555
H9_3 C13_3 1_555 1_555
C14_3 C12_3 1_555 1_555
H10_3 C14_3 1_555 1_555
O3_3 C3_3 1_555 1_555
C3_3 C5_3 1_555 1_555
C6_3 C7_3 1_555 1_555
O8_3 C10_3 1_555 1_555
C10_3 C12_3 1_555 1_555
C13_3 C14_3 1_555 1_555
Co4 O5_2 1_555 1_555
N6 N9_2 1_555 1_555
O7_4 Co10 1_555 1_555
O8_4 Co4 1_555 1_555
C8_4 N6 1_555 1_555
N11_2 C11_4 1_555 1_555
C9_4 C8_4 1_555 1_555
H8_4 C9_4 1_555 1_555
C10_4 O7_4 1_555 1_555
C11_4 C8_4 1_555 1_555
C12_4 C9_4 1_555 1_555
C13_4 C11_4 1_555 1_555
H9_4 C13_4 1_555 1_555
C14_4 C12_4 1_555 1_555
H10_4 C14_4 1_555 1_555
O8_4 C10_4 1_555 1_555
C10_4 C12_4 1_555 1_555
C13_4 C14_4 1_555 1_555
N5 N8_2 1_555 1_555
O3_4 Co4_2 1_555 1_555
C1_4 N5 1_555 1_555
N12_2 C4_4 1_555 1_555
C2_4 C1_4 1_555 1_555
H2_4 C2_4 1_555 1_555
C3_4 O2_4 1_555 1_555
C4_4 C1_4 1_555 1_555
C5_4 C2_4 1_555 1_555
C6_4 C4_4 1_555 1_555
H3_4 C6_4 1_555 1_555
C7_4 C5_4 1_555 1_555
H4_4 C7_4 1_555 1_555
O6_2 Co4_2 1_555 1_555
O3_4 C3_4 1_555 1_555
C3_4 C5_4 1_555 1_555
C6_4 C7_4 1_555 1_555

#END
