
###############################################################################
#
# This file contains modified crystal structure data generated from the
# MOF subset of the Cambridge Structural Database (CSD) v543 
# hosted by the Cambridge Crystallographic Data Centre (CCDC).
#
# This work is licensed under the Creative Commons
# Attribution-NonCommercial-ShareAlike 4.0 International License.
# To view a copy of this license, visit
# http://creativecommons.org/licenses/by-nc-sa/4.0/
# or send a letter to
# Creative Commons, PO Box 1866, Mountain View, CA 94042, USA.
#
# CIF created using the CSD Python API on 29 September 2022
# The structure has been converted into the P1 space group
# The structure has a 3D framework
# The original CSD entry RIFQEC is in the triclinic crystal system
# The framework has been calculated to contain at least 10.0% void space
# The void calculation uses a probe of radius 1.32A, grid spacing 0.4
# H atom positions have been added when not included in the experimental data
# Generated hydrogen atom positions removed from atoms on special positions
#
###############################################################################

data_RIFQEC
_chemical_formula_moiety         '(C10 H8 Ce3 O23)n'
_symmetry_cell_setting           triclinic
_symmetry_space_group_name_H-M   'P 1'
_symmetry_Int_Tables_number      1
_space_group_name_Hall           'P 1'
loop_
_symmetry_equiv_pos_site_id
_symmetry_equiv_pos_as_xyz
1 x,y,z
_cell_length_a                   6.329(2)
_cell_length_b                   8.743(2)
_cell_length_c                   13.000(4)
_cell_angle_alpha                105.61(4)
_cell_angle_beta                 90.55(4)
_cell_angle_gamma                105.10(4)
_cell_volume                     666.433
loop_
_atom_site_label
_atom_site_type_symbol
_atom_site_fract_x
_atom_site_fract_y
_atom_site_fract_z
Ce11 Ce 0.06026(3) 0.03013(2) 0.25725(2)
Ce12 Ce 0.30963(3) 0.66699(2) 0.07528(2)
O34 O 0.1418(7) 0.1282(5) 0.6209(3)
O35 O 0.0130(4) 0.2690(3) 0.8399(2)
O36 O 0.2969(5) 0.1693(3) 0.8398(2)
O26 O 0.2322(6) 0.8290(5) 0.6621(3)
O32 O 0.0551(5) 0.8384(4) 0.8739(2)
O1 O 0.2649(5) 0.3183(4) 0.2837(2)
O2 O 0.3358(5) 0.5412(4) 0.2240(3)
O4 O 0.0073(5) 0.3865(3) 0.0675(2)
O5 O 0.4806(5) 0.2015(3) 0.0555(2)
O7 O 0.1857(6) 0.1479(5) 0.4542(2)
C1 C 0.2326(6) 0.3961(5) 0.2191(3)
C2 C 0.0443(6) 0.3057(5) 0.1295(3)
C3 C 0.4460(6) 0.0512(5) 0.0455(3)
C4 C 0.0937(8) 0.0805(7) 0.5216(3)
O22 O 0.6619(4) 0.5693(3) 0.0761(2)
O23 O 0.9870(4) 0.7310(3) 0.1601(2)
O24 O 0.7031(5) 0.8307(3) 0.1602(2)
C10 C 0.7854(6) 0.7080(4) 0.1310(3)
O25 O 0.3607(5) 0.8971(4) 0.2936(3)
O28 O 0.3290(5) 0.9717(3) 0.1030(2)
O15 O 0.6710(5) 0.0283(3) 0.8970(2)
O27 O 0.5194(5) 0.7985(3) 0.9445(2)
O29 O 0.3381(4) 0.4307(3) 0.9239(2)
Ce5 Ce 0.69037(3) 0.33301(2) 0.92472(2)
O37 O 0.6393(5) 0.1029(4) 0.7064(3)
C6 C 0.5540(6) 0.9488(5) 0.9545(3)
Ce3 Ce 0.93974(3) 0.96987(2) 0.74275(2)
O31 O 0.7351(5) 0.6817(4) 0.7163(2)
O33 O 0.8143(6) 0.8521(5) 0.5458(2)
O3 O 0.9449(5) 0.1616(4) 0.1261(2)
O13 O 0.7678(6) 0.1710(5) 0.3379(3)
O19 O 0.6642(5) 0.4588(4) 0.7760(3)
O21 O 0.9927(5) 0.6135(3) 0.9325(2)
C8 C 0.7674(6) 0.6039(5) 0.7809(3)
C9 C 0.9557(6) 0.6943(5) 0.8705(3)
C7 C 0.9063(8) 0.9195(7) 0.4784(3)
O17 O 0.8582(7) 0.8718(5) 0.3791(3)
C5 C 0.2146(6) 0.2920(4) 0.8690(3)
loop_
_geom_bond_atom_site_label_1
_geom_bond_atom_site_label_2
_geom_bond_site_symmetry_1
_geom_bond_site_symmetry_2
Ce11 O1 1_555 1_555
Ce12 O2 1_555 1_555
O1 C1 1_555 1_555
O2 C1 1_555 1_555
O4 Ce12 1_555 1_555
O5 C3 1_555 1_555
O7 Ce11 1_555 1_555
O34 C4 1_555 1_555
C1 C2 1_555 1_555
C4 O7 1_555 1_555
O22 Ce12 1_555 1_555
O23 C10 1_555 1_555
O24 Ce12 1_555 1_555
C10 O22 1_555 1_555
O25 Ce12 1_555 1_555
O28 Ce12 1_555 1_555
O4 C2 1_555 1_555
O24 C10 1_555 1_555
O15 Ce5 1_555 1_555
O29 Ce5 1_555 1_555
Ce5 O37 1_555 1_555
O27 C6 1_555 1_555
O31 Ce3 1_555 1_555
O33 Ce3 1_555 1_555
O31 C8 1_555 1_555
O19 Ce5 1_555 1_555
C8 O19 1_555 1_555
C9 O21 1_555 1_555
O36 Ce5 1_555 1_555
Ce5 O21 1_555 1_555
C8 C9 1_555 1_555
O33 C7 1_555 1_555
C7 O17 1_555 1_555
O29 C5 1_555 1_555
C5 O35 1_555 1_555
O36 C5 1_555 1_555

#END
