
###############################################################################
#
# This file contains modified crystal structure data generated from the
# MOF subset of the Cambridge Structural Database (CSD) v543 
# hosted by the Cambridge Crystallographic Data Centre (CCDC).
#
# This work is licensed under the Creative Commons
# Attribution-NonCommercial-ShareAlike 4.0 International License.
# To view a copy of this license, visit
# http://creativecommons.org/licenses/by-nc-sa/4.0/
# or send a letter to
# Creative Commons, PO Box 1866, Mountain View, CA 94042, USA.
#
# CIF created using the CSD Python API on 29 September 2022
# The structure has been converted into the P1 space group
# The structure has a 3D framework
# The original CSD entry RIFQUT is in the monoclinic crystal system
# The framework has been calculated to contain at least 10.0% void space
# The void calculation uses a probe of radius 1.32A, grid spacing 0.4
# H atom positions have been added when not included in the experimental data
#
###############################################################################

data_RIFQUT
_chemical_formula_moiety         '(C24 H80 Co24 N8 O76 P16)n'
_symmetry_cell_setting           triclinic
_symmetry_space_group_name_H-M   'P 1'
_symmetry_Int_Tables_number      1
_space_group_name_Hall           'P 1'
loop_
_symmetry_equiv_pos_site_id
_symmetry_equiv_pos_as_xyz
1 x,y,z
_cell_length_a                   28.653(10)
_cell_length_b                   12.874(4)
_cell_length_c                   8.266(3)
_cell_angle_alpha                90
_cell_angle_beta                 97.257(7)
_cell_angle_gamma                90
_cell_volume                     3024.73
loop_
_atom_site_label
_atom_site_type_symbol
_atom_site_fract_x
_atom_site_fract_y
_atom_site_fract_z
O25 O 0.1356(2) 0.0102(4) 0.7236(8)
O29 O 0.2867(2) 0.0021(4) 0.5084(6)
Co1 Co 0.25258(4) 0.63537(8) 0.06661(12)
Co2 Co 0.25407(4) 0.63491(8) 0.45639(12)
Co3 Co 0.36391(5) 0.61777(9) 0.14381(15)
P1 P 0.31485(8) 0.80438(15) 0.2762(2)
O1 O 0.28965(19) 0.7756(4) 0.4217(6)
O2 O 0.28340(19) 0.7798(4) 0.1176(6)
O3 O 0.3592(2) 0.7395(4) 0.2795(7)
O4 O 0.3274(2) 0.9186(4) 0.2813(7)
H1 H 0.3098 0.9499 0.3353
O9 O 0.20485(19) 0.6813(4) 0.2375(6)
N1 N 0.4185(3) 0.6432(7) 0.0172(10)
C1 C 0.4667(4) 0.6437(8) 0.1036(13)
H3 H 0.4887 0.6428 0.0221
C2 C 0.4754(4) 0.7421(8) 0.2050(14)
H4 H 0.4528 0.7464 0.2826
H5 H 0.4712 0.8024 0.1342
C3 C 0.4751(4) 0.5460(8) 0.2088(16)
H6 H 0.4695 0.4846 0.1411
H7 H 0.4534 0.5448 0.2901
Co6 Co 0.25258(4) 0.36463(8) 0.56661(12)
Co8 Co 0.24593(4) 0.86509(8) 0.54361(12)
Co13 Co 0.63609(5) 0.61777(9) 0.35619(15)
Co14 Co 0.36391(5) 0.38223(9) 0.64381(15)
P4 P 0.31374(8) 0.46004(15) 0.2948(3)
O12 O 0.21035(19) 0.7244(4) 0.5783(6)
O17 O 0.31199(19) 0.4114(4) 0.4635(7)
O18 O 0.18801(19) 0.9114(4) 0.0365(7)
O19 O 0.2836(2) 0.5588(4) 0.2783(6)
O21 O 0.2969(2) 0.3813(4) 0.1670(7)
O22 O 0.2969(2) 0.6187(4) 0.6670(7)
O24 O 0.3644(2) 0.4898(4) 0.2764(8)
O27 O 0.2133(2) 0.4979(4) 0.4916(6)
O28 O 0.2867(2) 0.9979(4) 0.0084(6)
N2 N 0.5815(3) 0.6432(7) 0.4828(10)
H9 H 0.5863 0.6538 0.5863
H10 H 0.0863 0.8462 0.0863
C4 C 0.5333(4) 0.6437(8) 0.3964(13)
H11 H 0.5113 0.6428 0.4779
C5 C 0.5246(4) 0.7421(8) 0.2950(14)
H12 H 0.5472 0.7464 0.2174
H13 H 0.5288 0.8024 0.3658
C6 C 0.5249(4) 0.5460(8) 0.2912(16)
H14 H 0.5305 0.4846 0.3589
H15 H 0.5466 0.5448 0.2099
H17 H 0.578957 0.565722 0.502671
P2 P 0.31374(8) 0.53996(15) 0.7948(3)
O5 O 0.31199(19) 0.5886(4) 0.9635(7)
O6 O 0.2836(2) 0.4412(4) 0.7783(6)
O8 O 0.3644(2) 0.5102(4) 0.7764(8)
O10 O 0.2133(2) 0.5021(4) 0.9916(6)
H2 H 0.4137 0.6538 0.9137
Co4 Co 0.24742(4) 0.86463(8) 0.93339(12)
Co9 Co 0.25407(4) 0.36509(8) 0.95639(12)
Co11 Co 0.13609(5) 0.88223(9) 0.85619(15)
P3 P 0.18515(8) 0.69562(15) 0.7238(2)
O14 O 0.21660(19) 0.7202(4) 0.8824(6)
O15 O 0.1408(2) 0.7605(4) 0.7205(7)
O16 O 0.1726(2) 0.5814(4) 0.7187(7)
H8 H 0.1902 0.5501 0.6647
O20 O 0.2164(2) 0.9412(4) 0.7217(6)
O23 O 0.2031(2) 0.8813(4) 0.3330(7)
O26 O 0.29515(19) 0.8187(4) 0.7625(6)
N3 N 0.0815(3) 0.8568(7) 0.9828(10)
H16 H 0.421043 0.565722 0.997329
H18 H 0.0642972 0.793367 0.932625
H19 H 0.0602194 0.919889 0.965206
Co13_2 Co 0.13609(5) 0.11777(9) 0.35619(15)
N2_2 N 0.0815(3) 0.1432(7) 0.4828(10)
H9_2 H 0.0863 0.1538 0.5863
C4_2 C 0.0333(4) 0.1437(8) 0.3964(13)
H11_2 H 0.0113 0.1428 0.4779
C5_2 C 0.0246(4) 0.2421(8) 0.2950(14)
H12_2 H 0.0472 0.2464 0.2174
H13_2 H 0.0288 0.3024 0.3658
C6_2 C 0.0249(4) 0.0460(8) 0.2912(16)
H15_2 H 0.0466 0.0448 0.2099
H17_2 H 0.0789572 0.0657218 0.502671
H14_2 H 0.0305 0.9846 0.3589
Co1_2 Co 0.75258(4) 0.13537(8) 0.06661(12)
Co2_2 Co 0.75407(4) 0.13491(8) 0.45639(12)
Co3_2 Co 0.86391(5) 0.11777(9) 0.14381(15)
P1_2 P 0.81485(8) 0.30438(15) 0.2762(2)
O1_2 O 0.78965(19) 0.2756(4) 0.4217(6)
O2_2 O 0.78340(19) 0.2798(4) 0.1176(6)
O3_2 O 0.8592(2) 0.2395(4) 0.2795(7)
O4_2 O 0.8274(2) 0.4186(4) 0.2813(7)
H1_2 H 0.8098 0.4499 0.3353
O9_2 O 0.70485(19) 0.1813(4) 0.2375(6)
N1_2 N 0.9185(3) 0.1432(7) 0.0172(10)
C1_2 C 0.9667(4) 0.1437(8) 0.1036(13)
H3_2 H 0.9887 0.1428 0.0221
C2_2 C 0.9754(4) 0.2421(8) 0.2050(14)
H4_2 H 0.9528 0.2464 0.2826
H5_2 H 0.9712 0.3024 0.1342
C3_2 C 0.9751(4) 0.0460(8) 0.2088(16)
H7_2 H 0.9534 0.0448 0.2901
Co8_2 Co 0.74593(4) 0.36509(8) 0.54361(12)
O12_2 O 0.71035(19) 0.2244(4) 0.5783(6)
O18_2 O 0.68801(19) 0.4114(4) 0.0365(7)
O19_2 O 0.7836(2) 0.0588(4) 0.2783(6)
O22_2 O 0.7969(2) 0.1187(4) 0.6670(7)
O28_2 O 0.7867(2) 0.4979(4) 0.0084(6)
H10_2 H 0.5863 0.3462 0.0863
P2_2 P 0.81374(8) 0.03996(15) 0.7948(3)
O5_2 O 0.81199(19) 0.0886(4) 0.9635(7)
O8_2 O 0.8644(2) 0.0102(4) 0.7764(8)
O10_2 O 0.7133(2) 0.0021(4) 0.9916(6)
H2_2 H 0.9137 0.1538 0.9137
Co4_2 Co 0.74742(4) 0.36463(8) 0.93339(12)
Co11_2 Co 0.63609(5) 0.38223(9) 0.85619(15)
P3_2 P 0.68515(8) 0.19562(15) 0.7238(2)
O14_2 O 0.71660(19) 0.2202(4) 0.8824(6)
O15_2 O 0.6408(2) 0.2605(4) 0.7205(7)
O16_2 O 0.6726(2) 0.0814(4) 0.7187(7)
H8_2 H 0.6902 0.0501 0.6647
O20_2 O 0.7164(2) 0.4412(4) 0.7217(6)
O23_2 O 0.7031(2) 0.3813(4) 0.3330(7)
O25_2 O 0.6356(2) 0.5102(4) 0.7236(8)
O26_2 O 0.79515(19) 0.3187(4) 0.7625(6)
O29_2 O 0.7867(2) 0.5021(4) 0.5084(6)
N3_2 N 0.5815(3) 0.3568(7) 0.9828(10)
H16_2 H 0.921043 0.0657218 0.997329
H18_2 H 0.564297 0.293367 0.932625
H19_2 H 0.560219 0.419889 0.965206
H6_2 H 0.9695 0.9846 0.1411
Co6_2 Co 0.75258(4) 0.86463(8) 0.56661(12)
Co14_2 Co 0.86391(5) 0.88223(9) 0.64381(15)
P4_2 P 0.81374(8) 0.96004(15) 0.2948(3)
O17_2 O 0.81199(19) 0.9114(4) 0.4635(7)
O21_2 O 0.7969(2) 0.8813(4) 0.1670(7)
O24_2 O 0.8644(2) 0.9898(4) 0.2764(8)
O27_2 O 0.7133(2) 0.9979(4) 0.4916(6)
O6_2 O 0.7836(2) 0.9412(4) 0.7783(6)
Co9_2 Co 0.75407(4) 0.86509(8) 0.95639(12)
Co10 Co 0.74593(4) 0.63491(8) 0.04361(12)
O13 O 0.71035(19) 0.7756(4) 0.0783(6)
Co1_3 Co 0.74742(4) 0.63537(8) 0.43339(12)
P1_3 P 0.68515(8) 0.80438(15) 0.2238(2)
P2_3 P 0.68626(8) 0.53996(15) 0.7052(3)
O2_3 O 0.71660(19) 0.7798(4) 0.3824(6)
O3_3 O 0.6408(2) 0.7395(4) 0.2205(7)
O4_3 O 0.6726(2) 0.9186(4) 0.2187(7)
H1_3 H 0.6902 0.9499 0.1647
O5_3 O 0.68801(19) 0.5886(4) 0.5365(7)
O7 O 0.7031(2) 0.6187(4) 0.8330(7)
O9_3 O 0.79515(19) 0.6813(4) 0.2625(6)
P3_3 P 0.81485(8) 0.69562(15) 0.7762(2)
P4_3 P 0.68626(8) 0.46004(15) 0.2052(3)
O11 O 0.78965(19) 0.7244(4) 0.9217(6)
O14_3 O 0.78340(19) 0.7202(4) 0.6176(6)
O15_3 O 0.8592(2) 0.7605(4) 0.7795(7)
O16_3 O 0.8274(2) 0.5814(4) 0.7813(7)
H8_3 H 0.8098 0.5501 0.8353
O19_3 O 0.7164(2) 0.5588(4) 0.2217(6)
O24_3 O 0.6356(2) 0.4898(4) 0.2236(8)
O26_3 O 0.70485(19) 0.8187(4) 0.7375(6)
N3_3 N 0.9185(3) 0.8568(7) 0.5172(10)
H10_3 H 0.9137 0.8462 0.4137
H18_3 H 0.935703 0.793367 0.567375
H19_3 H 0.939781 0.919889 0.534794
Co10_2 Co 0.24593(4) 0.13491(8) 0.04361(12)
O13_2 O 0.21035(19) 0.2756(4) 0.0783(6)
Co1_4 Co 0.24742(4) 0.13537(8) 0.43339(12)
P1_4 P 0.18515(8) 0.30438(15) 0.2238(2)
P2_4 P 0.18626(8) 0.03996(15) 0.7052(3)
O2_4 O 0.21660(19) 0.2798(4) 0.3824(6)
O3_4 O 0.1408(2) 0.2395(4) 0.2205(7)
O4_4 O 0.1726(2) 0.4186(4) 0.2187(7)
H1_4 H 0.1902 0.4499 0.1647
O5_4 O 0.18801(19) 0.0886(4) 0.5365(7)
O7_2 O 0.2031(2) 0.1187(4) 0.8330(7)
O9_4 O 0.29515(19) 0.1813(4) 0.2625(6)
P3_4 P 0.31485(8) 0.19562(15) 0.7762(2)
O11_2 O 0.28965(19) 0.2244(4) 0.9217(6)
O14_4 O 0.28340(19) 0.2202(4) 0.6176(6)
O15_4 O 0.3592(2) 0.2605(4) 0.7795(7)
O16_4 O 0.3274(2) 0.0814(4) 0.7813(7)
H8_4 H 0.3098 0.0501 0.8353
O19_4 O 0.2164(2) 0.0588(4) 0.2217(6)
O26_4 O 0.20485(19) 0.3187(4) 0.7375(6)
N3_4 N 0.4185(3) 0.3568(7) 0.5172(10)
H10_4 H 0.4137 0.3462 0.4137
H18_4 H 0.435703 0.293367 0.567375
H19_4 H 0.439781 0.419889 0.534794
P4_4 P 0.18626(8) 0.96004(15) 0.2052(3)
O24_4 O 0.1356(2) 0.9898(4) 0.2236(8)
H16_3 H 0.578957 0.434278 0.00267066
H18_5 H 0.935703 0.206633 0.0673746
H19_5 H 0.939781 0.0801111 0.0347944
C1_3 C 0.5333(4) 0.3563(8) 0.8964(13)
H3_3 H 0.5113 0.3572 0.9779
C2_3 C 0.5246(4) 0.2579(8) 0.7950(14)
H4_3 H 0.5472 0.2536 0.7174
H5_3 H 0.5288 0.1976 0.8658
C3_3 C 0.5249(4) 0.4540(8) 0.7912(16)
H6_3 H 0.5305 0.5154 0.8589
H7_3 H 0.5466 0.4552 0.7099
C4_3 C 0.4667(4) 0.3563(8) 0.6036(13)
H11_3 H 0.4887 0.3572 0.5221
C5_3 C 0.4754(4) 0.2579(8) 0.7050(14)
H12_3 H 0.4528 0.2536 0.7826
H13_3 H 0.4712 0.1976 0.6342
C6_3 C 0.4751(4) 0.4540(8) 0.7088(16)
H14_3 H 0.4695 0.5154 0.6411
H15_3 H 0.4534 0.4552 0.7901
H17_3 H 0.421043 0.434278 0.497329
H6_4 H 0.0305 0.0154 0.8589
H16_4 H 0.0789572 0.934278 0.00267066
H18_6 H 0.435703 0.706633 0.0673746
H19_6 H 0.439781 0.580111 0.0347944
C1_4 C 0.0333(4) 0.8563(8) 0.8964(13)
H3_4 H 0.0113 0.8572 0.9779
C2_4 C 0.0246(4) 0.7579(8) 0.7950(14)
H4_4 H 0.0472 0.7536 0.7174
H5_4 H 0.0288 0.6976 0.8658
C3_4 C 0.0249(4) 0.9540(8) 0.7912(16)
H7_4 H 0.0466 0.9552 0.7099
H14_4 H 0.9695 0.0154 0.6411
C4_4 C 0.9667(4) 0.8563(8) 0.6036(13)
H11_4 H 0.9887 0.8572 0.5221
C5_4 C 0.9754(4) 0.7579(8) 0.7050(14)
H12_4 H 0.9528 0.7536 0.7826
H13_4 H 0.9712 0.6976 0.6342
C6_4 C 0.9751(4) 0.9540(8) 0.7088(16)
H15_4 H 0.9534 0.9552 0.7901
H17_4 H 0.921043 0.934278 0.497329
H18_7 H 0.0642972 0.206633 0.432625
H19_7 H 0.0602194 0.0801111 0.465206
H18_8 H 0.564297 0.706633 0.432625
H19_8 H 0.560219 0.580111 0.465206
loop_
_geom_bond_atom_site_label_1
_geom_bond_atom_site_label_2
_geom_bond_site_symmetry_1
_geom_bond_site_symmetry_2
Co1 O2 1_555 1_555
Co2 O1 1_555 1_555
Co3 O3 1_555 1_555
P1 O1 1_555 1_555
O1 Co8 1_555 1_555
O2 P1 1_555 1_555
O3 P1 1_555 1_555
O4 P1 1_555 1_555
H1 O4 1_555 1_555
O9 Co1 1_555 1_555
N1 Co3 1_555 1_555
C1 N1 1_555 1_555
H3 C1 1_555 1_555
C2 C1 1_555 1_555
H4 C2 1_555 1_555
H5 C2 1_555 1_555
C3 C1 1_555 1_555
H6 C3 1_555 1_555
H7 C3 1_555 1_555
Co6 O17 1_555 1_555
Co8 O12 1_555 1_555
Co13 N2 1_555 1_555
Co14 O17 1_555 1_555
P4 O17 1_555 1_555
O12 Co2 1_555 1_555
O19 Co1 1_555 1_555
O22 Co2 1_555 1_555
O24 Co3 1_555 1_555
O27 Co2 1_555 1_555
N2 H9 1_555 1_555
C4 N2 1_555 1_555
H11 C4 1_555 1_555
C5 C2 1_555 1_555
H12 C5 1_555 1_555
H13 C5 1_555 1_555
C6 C3 1_555 1_555
H14 C6 1_555 1_555
H15 C6 1_555 1_555
Co2 O9 1_555 1_555
Co2 O19 1_555 1_555
Co6 O27 1_555 1_555
P4 O19 1_555 1_555
P4 O21 1_555 1_555
P4 O24 1_555 1_555
C4 C5 1_555 1_555
C4 C6 1_555 1_555
N2 H17 1_555 1_555
P2 O5 1_555 1_555
O6 P2 1_555 1_555
O22 P2 1_555 1_555
O8 P2 1_555 1_555
Co6 O6 1_555 1_555
Co9 O6 1_555 1_555
Co11 O15 1_555 1_555
Co14 O8 1_555 1_555
P3 O12 1_555 1_555
O15 P3 1_555 1_555
O16 P3 1_555 1_555
H8 O16 1_555 1_555
O20 Co4 1_555 1_555
O23 Co8 1_555 1_555
O26 Co4 1_555 1_555
N3 Co11 1_555 1_555
O10 Co9 1_555 1_555
Co4 O14 1_555 1_555
Co8 O20 1_555 1_555
Co8 O26 1_555 1_555
P3 O14 1_555 1_555
N3 H18 1_555 1_555
N3 H19 1_555 1_555
Co13_2 N2_2 1_555 1_555
N2_2 H9_2 1_555 1_555
C4_2 N2_2 1_555 1_555
H11_2 C4_2 1_555 1_555
H12_2 C5_2 1_555 1_555
H13_2 C5_2 1_555 1_555
H15_2 C6_2 1_555 1_555
C4_2 C5_2 1_555 1_555
C4_2 C6_2 1_555 1_555
N2_2 H17_2 1_555 1_555
Co1_2 O2_2 1_555 1_555
Co2_2 O1_2 1_555 1_555
Co3_2 O3_2 1_555 1_555
P1_2 O1_2 1_555 1_555
O1_2 Co8_2 1_555 1_555
O2_2 P1_2 1_555 1_555
O3_2 P1_2 1_555 1_555
O4_2 P1_2 1_555 1_555
H1_2 O4_2 1_555 1_555
O9_2 Co1_2 1_555 1_555
N1_2 Co3_2 1_555 1_555
C1_2 N1_2 1_555 1_555
H3_2 C1_2 1_555 1_555
C2_2 C1_2 1_555 1_555
H4_2 C2_2 1_555 1_555
H5_2 C2_2 1_555 1_555
C3_2 C1_2 1_555 1_555
H7_2 C3_2 1_555 1_555
Co8_2 O12_2 1_555 1_555
O12_2 Co2_2 1_555 1_555
O19_2 Co1_2 1_555 1_555
O22_2 Co2_2 1_555 1_555
Co2_2 O9_2 1_555 1_555
Co2_2 O19_2 1_555 1_555
P2_2 O5_2 1_555 1_555
O22_2 P2_2 1_555 1_555
O8_2 P2_2 1_555 1_555
Co11_2 O15_2 1_555 1_555
P3_2 O12_2 1_555 1_555
O15_2 P3_2 1_555 1_555
O16_2 P3_2 1_555 1_555
H8_2 O16_2 1_555 1_555
O20_2 Co4_2 1_555 1_555
O23_2 Co8_2 1_555 1_555
O25_2 Co11_2 1_555 1_555
O26_2 Co4_2 1_555 1_555
O29_2 Co8_2 1_555 1_555
N3_2 Co11_2 1_555 1_555
Co4_2 O14_2 1_555 1_555
Co8_2 O20_2 1_555 1_555
Co8_2 O26_2 1_555 1_555
P3_2 O14_2 1_555 1_555
N3_2 H18_2 1_555 1_555
N3_2 H19_2 1_555 1_555
Co6_2 O17_2 1_555 1_555
Co14_2 O17_2 1_555 1_555
P4_2 O17_2 1_555 1_555
Co6_2 O27_2 1_555 1_555
P4_2 O21_2 1_555 1_555
P4_2 O24_2 1_555 1_555
Co6_2 O6_2 1_555 1_555
Co9_2 O6_2 1_555 1_555
Co10 O13 1_555 1_555
Co1_3 O2_3 1_555 1_555
Co13 O3_3 1_555 1_555
P1_3 O13 1_555 1_555
P2_3 O5_3 1_555 1_555
O2_3 P1_3 1_555 1_555
O3_3 P1_3 1_555 1_555
O4_3 P1_3 1_555 1_555
H1_3 O4_3 1_555 1_555
O5_3 Co1_3 1_555 1_555
O20_2 P2_3 1_555 1_555
O7 P2_3 1_555 1_555
O25_2 P2_3 1_555 1_555
O9_3 Co1_3 1_555 1_555
O29_2 Co1_3 1_555 1_555
Co6_2 O2_3 1_555 1_555
Co9_2 O11 1_555 1_555
Co14_2 O15_3 1_555 1_555
P3_3 O11 1_555 1_555
P4_3 O18_2 1_555 1_555
O14_3 Co1_3 1_555 1_555
O15_3 P3_3 1_555 1_555
O16_3 P3_3 1_555 1_555
H8_3 O16_3 1_555 1_555
O19_3 Co1_3 1_555 1_555
O24_3 Co13 1_555 1_555
O26_3 Co6_2 1_555 1_555
O28_2 Co10 1_555 1_555
N3_3 Co14_2 1_555 1_555
H10_3 N3_3 1_555 1_555
Co10 O9_3 1_555 1_555
Co10 O19_3 1_555 1_555
Co13 O5_3 1_555 1_555
Co6_2 O14_3 1_555 1_555
Co9_2 O26_3 1_555 1_555
P3_3 O14_3 1_555 1_555
P4_3 O19_3 1_555 1_555
P4_3 O23_2 1_555 1_555
P4_3 O24_3 1_555 1_555
N3_3 H18_3 1_555 1_555
N3_3 H19_3 1_555 1_555
Co10_2 O13_2 1_555 1_555
Co1_4 O2_4 1_555 1_555
Co13_2 O3_4 1_555 1_555
P1_4 O13_2 1_555 1_555
P2_4 O5_4 1_555 1_555
O2_4 P1_4 1_555 1_555
O3_4 P1_4 1_555 1_555
O4_4 P1_4 1_555 1_555
H1_4 O4_4 1_555 1_555
O5_4 Co1_4 1_555 1_555
O7_2 P2_4 1_555 1_555
O25 P2_4 1_555 1_555
O9_4 Co1_4 1_555 1_555
O29 Co1_4 1_555 1_555
Co6 O2_4 1_555 1_555
Co9 O11_2 1_555 1_555
Co14 O15_4 1_555 1_555
P3_4 O11_2 1_555 1_555
O14_4 Co1_4 1_555 1_555
O15_4 P3_4 1_555 1_555
O16_4 P3_4 1_555 1_555
H8_4 O16_4 1_555 1_555
O19_4 Co1_4 1_555 1_555
O26_4 Co6 1_555 1_555
N3_4 Co14 1_555 1_555
H10_4 N3_4 1_555 1_555
Co10_2 O9_4 1_555 1_555
Co10_2 O19_4 1_555 1_555
Co13_2 O5_4 1_555 1_555
Co6 O14_4 1_555 1_555
Co9 O26_4 1_555 1_555
P3_4 O14_4 1_555 1_555
N3_4 H18_4 1_555 1_555
N3_4 H19_4 1_555 1_555
P4_4 O18 1_555 1_555
P4_4 O23 1_555 1_555
P4_4 O24_4 1_555 1_555
N1_2 H18_5 1_555 1_555
N1_2 H19_5 1_555 1_555
C1_3 N3_2 1_555 1_555
H3_3 C1_3 1_555 1_555
C2_3 C1_3 1_555 1_555
H4_3 C2_3 1_555 1_555
H5_3 C2_3 1_555 1_555
C3_3 C1_3 1_555 1_555
H6_3 C3_3 1_555 1_555
H7_3 C3_3 1_555 1_555
C4_3 N3_4 1_555 1_555
H11_3 C4_3 1_555 1_555
C5_3 C2_3 1_555 1_555
H12_3 C5_3 1_555 1_555
H13_3 C5_3 1_555 1_555
C6_3 C3_3 1_555 1_555
H14_3 C6_3 1_555 1_555
H15_3 C6_3 1_555 1_555
C4_3 C5_3 1_555 1_555
C4_3 C6_3 1_555 1_555
N3_4 H17_3 1_555 1_555
N1 H18_6 1_555 1_555
N1 H19_6 1_555 1_555
C1_4 N3 1_555 1_555
H3_4 C1_4 1_555 1_555
C2_4 C1_4 1_555 1_555
H4_4 C2_4 1_555 1_555
H5_4 C2_4 1_555 1_555
C3_4 C1_4 1_555 1_555
H7_4 C3_4 1_555 1_555
C4_4 N3_3 1_555 1_555
H11_4 C4_4 1_555 1_555
H12_4 C5_4 1_555 1_555
H13_4 C5_4 1_555 1_555
H15_4 C6_4 1_555 1_555
C4_4 C5_4 1_555 1_555
C4_4 C6_4 1_555 1_555
N3_3 H17_4 1_555 1_555
N2_2 H18_7 1_555 1_555
N2_2 H19_7 1_555 1_555
N2 H18_8 1_555 1_555
N2 H19_8 1_555 1_555

#END
