
###############################################################################
#
# This file contains modified crystal structure data generated from the
# MOF subset of the Cambridge Structural Database (CSD) v543 
# hosted by the Cambridge Crystallographic Data Centre (CCDC).
#
# This work is licensed under the Creative Commons
# Attribution-NonCommercial-ShareAlike 4.0 International License.
# To view a copy of this license, visit
# http://creativecommons.org/licenses/by-nc-sa/4.0/
# or send a letter to
# Creative Commons, PO Box 1866, Mountain View, CA 94042, USA.
#
# CIF created using the CSD Python API on 29 September 2022
# The structure has been converted into the P1 space group
# The structure has a 3D framework
# The original CSD entry RIGPEE01 is in the monoclinic crystal system
# The framework has been calculated to contain at least 10.0% void space
# The void calculation uses a probe of radius 1.32A, grid spacing 0.4
# The framework is charged, counterions have been retained in the structure
#
###############################################################################

data_RIGPEE01
_chemical_formula_moiety         '(C80 H56 Cu4 N18 O12)n'
_symmetry_cell_setting           triclinic
_symmetry_space_group_name_H-M   'P 1'
_symmetry_Int_Tables_number      1
_space_group_name_Hall           'P 1'
loop_
_symmetry_equiv_pos_site_id
_symmetry_equiv_pos_as_xyz
1 x,y,z
_cell_length_a                   9.876(2)
_cell_length_b                   9.2950(19)
_cell_length_c                   22.594(6)
_cell_angle_alpha                90
_cell_angle_beta                 106.80(3)
_cell_angle_gamma                90
_cell_volume                     1985.55
loop_
_atom_site_label
_atom_site_type_symbol
_atom_site_fract_x
_atom_site_fract_y
_atom_site_fract_z
O1 O 0.0551(7) 0.0828(8) 0.9215(3)
O2 O 0.0191(7) 0.1959(8) 0.8359(3)
N1 N 0.9730(9) 0.1378(11) 0.8758(5)
O3 O 0.8478(6) 0.1371(8) 0.8684(3)
N1_2 N 0.0270(9) 0.6378(11) 0.6242(5)
O3_2 O 0.1522(6) 0.6371(8) 0.6316(3)
O1_2 O 0.9449(7) 0.5828(8) 0.5785(3)
O2_2 O 0.9809(7) 0.6959(8) 0.6641(3)
N1_3 N 0.0270(9) 0.8622(11) 0.1242(5)
O3_3 O 0.1522(6) 0.8629(8) 0.1316(3)
O1_3 O 0.9449(7) 0.9172(8) 0.0785(3)
O2_3 O 0.9809(7) 0.8041(8) 0.1641(3)
O1_4 O 0.0551(7) 0.4172(8) 0.4215(3)
O2_4 O 0.0191(7) 0.3041(8) 0.3359(3)
N1_4 N 0.9730(9) 0.3622(11) 0.3758(5)
O3_4 O 0.8478(6) 0.3629(8) 0.3684(3)
C2 C 0.6036(8) 0.0570(9) 0.6680(4)
H2 H 0.6489 0.1255 0.6504
C4 C 0.4751(7) 0.0023(8) 0.6345(3)
C5 C 0.4028(7) 0.0465(7) 0.5694(3)
C6 C 0.3915(6) 0.1935(7) 0.4828(3)
C7 C 0.2686(7) 0.1190(8) 0.4507(3)
H4 H 0.2223 0.1441 0.4100
C8 C 0.2154(7) 0.0092(7) 0.4783(3)
H5 H 0.0248 0.0362 0.3656
N5 N 0.5843(6) 0.5108(7) 0.3950(3)
C13 C 0.6650(9) 0.0110(10) 0.7270(4)
H8 H 0.7510 0.0524 0.7483
C14 C 0.4555(6) 0.1542(6) 0.5423(3)
H9 H 0.5368 0.2022 0.5647
C16 C 0.4542(7) 0.3075(8) 0.4528(3)
C17 C 0.3815(8) 0.3718(9) 0.3971(4)
H11 H 0.2876 0.3478 0.3781
C18 C 0.4487(8) 0.4709(9) 0.3704(4)
H12 H 0.3977 0.5127 0.3332
C19 C 0.6507(8) 0.4510(9) 0.4491(4)
H13 H 0.7433 0.4796 0.4682
C20 C 0.5927(8) 0.3510(8) 0.4786(3)
H14 H 0.6461 0.3121 0.5160
Cu3 Cu 0.69374(10) 0.62444(12) 0.34682(4)
C11 C 0.9323(8) 0.7259(8) 0.4433(4)
H6 H 0.9079 0.6479 0.4639
C12 C 0.8873(8) 0.8712(9) 0.3599(3)
H7 H 0.8298 0.8974 0.3210
N4 N 0.8520(6) 0.7532(7) 0.3861(3)
N2 N 0.6119(8) 0.5884(8) 0.2567(3)
C1 C 0.4888(10) 0.6435(10) 0.2237(4)
H1 H 0.4477 0.7136 0.2422
C2_2 C 0.6036(8) 0.4430(9) 0.1680(4)
H2_2 H 0.6489 0.3745 0.1504
C3 C 0.4183(8) 0.6041(9) 0.1642(4)
H3 H 0.3330 0.6480 0.1436
C4_2 C 0.4751(7) 0.4977(8) 0.1345(3)
C5_2 C 0.4028(7) 0.4535(7) 0.0694(3)
N3 N 0.2826(6) 0.5264(7) 0.0387(3)
C13_2 C 0.6650(9) 0.4890(10) 0.2270(4)
H8_2 H 0.7510 0.4476 0.2483
C14_2 C 0.4555(6) 0.3458(6) 0.0423(3)
H9_2 H 0.5368 0.2978 0.0647
H10 H 0.1013 0.7200 0.0138
H14_2 H 0.6461 0.1879 0.0160
Cu1 Cu 0.69374(10) 0.87556(12) 0.84682(4)
N2_2 N 0.6119(8) 0.9116(8) 0.7567(3)
C1_2 C 0.4888(10) 0.8565(10) 0.7237(4)
H1_2 H 0.4477 0.7864 0.7422
C3_2 C 0.4183(8) 0.8959(9) 0.6642(4)
H3_2 H 0.3330 0.8520 0.6436
N3_2 N 0.2826(6) 0.9736(7) 0.5387(3)
C9 C 0.0878(7) 0.9229(7) 0.4454(3)
C10 C 0.0037(8) 0.9573(9) 0.3866(3)
C15 C 0.0489(7) 0.8054(8) 0.4740(3)
H10_2 H 0.1013 0.7800 0.5138
N6 N 0.8520(6) 0.7468(7) 0.8861(3)
N7 N 0.5843(6) 0.9892(7) 0.8950(3)
H12_2 H 0.3977 0.9873 0.8332
C11_2 C 0.9323(8) 0.7741(8) 0.9433(4)
H6_2 H 0.9079 0.8521 0.9639
C12_2 C 0.8873(8) 0.6288(9) 0.8599(3)
H7_2 H 0.8298 0.6026 0.8210
C11_3 C 0.0677(8) 0.2259(8) 0.0567(4)
H6_3 H 0.0921 0.1479 0.0361
C12_3 C 0.1127(8) 0.3712(9) 0.1401(3)
H7_3 H 0.1702 0.3974 0.1790
N4_2 N 0.1480(6) 0.2532(7) 0.1139(3)
Cu2 Cu 0.30626(10) 0.12444(12) 0.15318(4)
N5_2 N 0.4157(6) 0.0108(7) 0.1050(3)
H12_3 H 0.6023 0.0127 0.1668
N2_3 N 0.3881(8) 0.0884(8) 0.2433(3)
C1_3 C 0.5112(10) 0.1435(10) 0.2763(4)
H1_3 H 0.5523 0.2136 0.2578
C3_3 C 0.5817(8) 0.1041(9) 0.3358(4)
H3_3 H 0.6670 0.1480 0.3564
N3_3 N 0.7174(6) 0.0264(7) 0.4613(3)
C9_2 C 0.9122(7) 0.0771(7) 0.5546(3)
C10_2 C 0.9963(8) 0.0427(9) 0.6134(3)
C15_2 C 0.9511(7) 0.1946(8) 0.5260(3)
H10_3 H 0.8987 0.2200 0.4862
C6_2 C 0.6085(6) 0.6935(7) 0.0172(3)
C7_2 C 0.7314(7) 0.6190(8) 0.0493(3)
H4_2 H 0.7777 0.6441 0.0900
C8_2 C 0.7846(7) 0.5092(7) 0.0217(3)
C9_3 C 0.9122(7) 0.4229(7) 0.0546(3)
C10_3 C 0.9963(8) 0.4573(9) 0.1134(3)
H5_2 H 0.9752 0.5362 0.1344
C15_3 C 0.9511(7) 0.3054(8) 0.0260(3)
C16_2 C 0.5458(7) 0.8075(8) 0.0472(3)
C17_2 C 0.6185(8) 0.8718(9) 0.1029(4)
H11_2 H 0.7124 0.8478 0.1219
C18_2 C 0.5513(8) 0.9709(9) 0.1296(4)
C19_2 C 0.3493(8) 0.9510(9) 0.0509(4)
H13_2 H 0.2567 0.9796 0.0318
C20_2 C 0.4073(8) 0.8510(8) 0.0214(3)
Cu1_2 Cu 0.30626(10) 0.37556(12) 0.65318(4)
N2_4 N 0.3881(8) 0.4116(8) 0.7433(3)
C1_4 C 0.5112(10) 0.3565(10) 0.7763(4)
H1_4 H 0.5523 0.2864 0.7578
C2_3 C 0.3964(8) 0.5570(9) 0.8320(4)
H2_3 H 0.3511 0.6255 0.8496
C3_4 C 0.5817(8) 0.3959(9) 0.8358(4)
H3_4 H 0.6670 0.3520 0.8564
C4_3 C 0.5249(7) 0.5023(8) 0.8655(3)
C5_3 C 0.5972(7) 0.5465(7) 0.9306(3)
N3_4 N 0.7174(6) 0.4736(7) 0.9613(3)
C13_3 C 0.3350(9) 0.5110(10) 0.7730(4)
H8_3 H 0.2490 0.5524 0.7517
C14_3 C 0.5445(6) 0.6542(6) 0.9577(3)
H9_3 H 0.4632 0.7022 0.9353
H10_4 H 0.8987 0.2800 0.9862
H14_3 H 0.3539 0.8121 0.9840
N6_2 N 0.1480(6) 0.2468(7) 0.6139(3)
N7_2 N 0.4157(6) 0.4892(7) 0.6050(3)
C11_4 C 0.0677(8) 0.2741(8) 0.5567(4)
H6_4 H 0.0921 0.3521 0.5361
C12_4 C 0.1127(8) 0.1288(9) 0.6401(3)
H7_4 H 0.1702 0.1026 0.6790
C2_4 C 0.3964(8) 0.9430(9) 0.3320(4)
H2_4 H 0.3511 0.8745 0.3496
C4_4 C 0.5249(7) 0.9977(8) 0.3655(3)
C5_4 C 0.5972(7) 0.9535(7) 0.4306(3)
C6_3 C 0.6085(6) 0.8065(7) 0.5172(3)
C7_3 C 0.7314(7) 0.8810(8) 0.5493(3)
H4_3 H 0.7777 0.8559 0.5900
C8_3 C 0.7846(7) 0.9908(7) 0.5217(3)
H5_3 H 0.9752 0.9638 0.6344
C13_4 C 0.3350(9) 0.9890(10) 0.2730(4)
H8_4 H 0.2490 0.9476 0.2517
C14_4 C 0.5445(6) 0.8458(6) 0.4577(3)
H9_4 H 0.4632 0.7978 0.4353
C16_3 C 0.5458(7) 0.6925(8) 0.5472(3)
C17_3 C 0.6185(8) 0.6282(9) 0.6029(4)
H11_3 H 0.7124 0.6522 0.6219
C18_3 C 0.5513(8) 0.5291(9) 0.6296(4)
H12_4 H 0.6023 0.4873 0.6668
C19_3 C 0.3493(8) 0.5490(9) 0.5509(4)
H13_3 H 0.2567 0.5204 0.5318
C20_3 C 0.4073(8) 0.6490(8) 0.5214(3)
H14_4 H 0.3539 0.6879 0.4840
C6_4 C 0.3915(6) 0.3065(7) 0.9828(3)
C7_4 C 0.2686(7) 0.3810(8) 0.9507(3)
H4_4 H 0.2223 0.3559 0.9100
C8_4 C 0.2154(7) 0.4908(7) 0.9783(3)
C9_4 C 0.0878(7) 0.5771(7) 0.9454(3)
C10_4 C 0.0037(8) 0.5427(9) 0.8866(3)
H5_4 H 0.0248 0.4638 0.8656
C15_4 C 0.0489(7) 0.6946(8) 0.9740(3)
C16_4 C 0.4542(7) 0.1925(8) 0.9528(3)
C17_4 C 0.3815(8) 0.1282(9) 0.8971(4)
H11_4 H 0.2876 0.1522 0.8781
C18_4 C 0.4487(8) 0.0291(9) 0.8704(4)
C19_4 C 0.6507(8) 0.0490(9) 0.9491(4)
H13_4 H 0.7433 0.0204 0.9682
C20_4 C 0.5927(8) 0.1490(8) 0.9786(3)
loop_
_geom_bond_atom_site_label_1
_geom_bond_atom_site_label_2
_geom_bond_site_symmetry_1
_geom_bond_site_symmetry_2
O3 N1 1_555 1_555
O3_2 N1_2 1_555 1_555
O3_3 N1_3 1_555 1_555
O3_4 N1_4 1_555 1_555
C2 H2 1_555 1_555
C4 C2 1_555 1_555
C5 C4 1_555 1_555
C6 C7 1_555 1_555
C7 H4 1_555 1_555
N5 C18 1_555 1_555
H8 C13 1_555 1_555
C14 C5 1_555 1_555
H9 C14 1_555 1_555
C16 C6 1_555 1_555
C17 C16 1_555 1_555
H11 C17 1_555 1_555
C18 C17 1_555 1_555
H12 C18 1_555 1_555
C19 N5 1_555 1_555
H13 C19 1_555 1_555
C20 C16 1_555 1_555
H14 C20 1_555 1_555
Cu3 N5 1_555 1_555
C2 C13 1_555 1_555
C6 C14 1_555 1_555
C7 C8 1_555 1_555
C19 C20 1_555 1_555
C11 H6 1_555 1_555
H7 C12 1_555 1_555
N4 C11 1_555 1_555
Cu3 N4 1_555 1_555
C12 N4 1_555 1_555
Cu3 N2 1_555 1_555
N2 C1 1_555 1_555
C1 H1 1_555 1_555
C2_2 H2_2 1_555 1_555
C3 C1 1_555 1_555
H3 C3 1_555 1_555
C4_2 C2_2 1_555 1_555
C5_2 C4_2 1_555 1_555
N3 C5_2 1_555 1_555
C13_2 N2 1_555 1_555
H8_2 C13_2 1_555 1_555
C14_2 C5_2 1_555 1_555
H9_2 C14_2 1_555 1_555
C2_2 C13_2 1_555 1_555
C3 C4_2 1_555 1_555
Cu1 N2_2 1_555 1_555
N2_2 C1_2 1_555 1_555
C1_2 H1_2 1_555 1_555
C3_2 C1_2 1_555 1_555
H3_2 C3_2 1_555 1_555
C10 C9 1_555 1_555
C15 C9 1_555 1_555
H10_2 C15 1_555 1_555
N6 Cu1 1_555 1_555
N7 Cu1 1_555 1_555
C11_2 H6_2 1_555 1_555
H7_2 C12_2 1_555 1_555
N6 C11_2 1_555 1_555
C12_2 N6 1_555 1_555
C11_3 H6_3 1_555 1_555
H7_3 C12_3 1_555 1_555
N4_2 C11_3 1_555 1_555
Cu2 N4_2 1_555 1_555
C12_3 N4_2 1_555 1_555
Cu2 N5_2 1_555 1_555
Cu2 N2_3 1_555 1_555
N2_3 C1_3 1_555 1_555
C1_3 H1_3 1_555 1_555
C3_3 C1_3 1_555 1_555
H3_3 C3_3 1_555 1_555
C10_2 C9_2 1_555 1_555
C15_2 C9_2 1_555 1_555
H10_3 C15_2 1_555 1_555
C6_2 C7_2 1_555 1_555
C7_2 H4_2 1_555 1_555
C9_3 C8_2 1_555 1_555
C10_3 C9_3 1_555 1_555
H5_2 C10_3 1_555 1_555
C15_3 C9_3 1_555 1_555
C16_2 C6_2 1_555 1_555
C17_2 C16_2 1_555 1_555
H11_2 C17_2 1_555 1_555
C18_2 C17_2 1_555 1_555
H13_2 C19_2 1_555 1_555
C20_2 C16_2 1_555 1_555
C7_2 C8_2 1_555 1_555
C19_2 C20_2 1_555 1_555
Cu1_2 N2_4 1_555 1_555
N2_4 C1_4 1_555 1_555
C1_4 H1_4 1_555 1_555
C2_3 H2_3 1_555 1_555
C3_4 C1_4 1_555 1_555
H3_4 C3_4 1_555 1_555
C4_3 C2_3 1_555 1_555
C5_3 C4_3 1_555 1_555
N3_4 C5_3 1_555 1_555
C13_3 N2_4 1_555 1_555
H8_3 C13_3 1_555 1_555
C14_3 C5_3 1_555 1_555
H9_3 C14_3 1_555 1_555
N6_2 Cu1_2 1_555 1_555
N7_2 Cu1_2 1_555 1_555
C2_3 C13_3 1_555 1_555
C3_4 C4_3 1_555 1_555
C11_4 H6_4 1_555 1_555
H7_4 C12_4 1_555 1_555
N6_2 C11_4 1_555 1_555
C12_4 N6_2 1_555 1_555
C2_4 H2_4 1_555 1_555
C4_4 C2_4 1_555 1_555
C5_4 C4_4 1_555 1_555
C6_3 C7_3 1_555 1_555
C7_3 H4_3 1_555 1_555
N7_2 C18_3 1_555 1_555
H8_4 C13_4 1_555 1_555
C14_4 C5_4 1_555 1_555
H9_4 C14_4 1_555 1_555
C16_3 C6_3 1_555 1_555
C17_3 C16_3 1_555 1_555
H11_3 C17_3 1_555 1_555
C18_3 C17_3 1_555 1_555
H12_4 C18_3 1_555 1_555
C19_3 N7_2 1_555 1_555
H13_3 C19_3 1_555 1_555
C20_3 C16_3 1_555 1_555
H14_4 C20_3 1_555 1_555
C2_4 C13_4 1_555 1_555
C6_3 C14_4 1_555 1_555
C7_3 C8_3 1_555 1_555
C19_3 C20_3 1_555 1_555
C6_4 C7_4 1_555 1_555
C7_4 H4_4 1_555 1_555
C9_4 C8_4 1_555 1_555
C10_4 C9_4 1_555 1_555
H5_4 C10_4 1_555 1_555
C15_4 C9_4 1_555 1_555
C16_4 C6_4 1_555 1_555
C17_4 C16_4 1_555 1_555
H11_4 C17_4 1_555 1_555
C18_4 C17_4 1_555 1_555
H13_4 C19_4 1_555 1_555
C20_4 C16_4 1_555 1_555
C7_4 C8_4 1_555 1_555
C19_4 C20_4 1_555 1_555

#END
