
###############################################################################
#
# This file contains modified crystal structure data generated from the
# MOF subset of the Cambridge Structural Database (CSD) v543 
# hosted by the Cambridge Crystallographic Data Centre (CCDC).
#
# This work is licensed under the Creative Commons
# Attribution-NonCommercial-ShareAlike 4.0 International License.
# To view a copy of this license, visit
# http://creativecommons.org/licenses/by-nc-sa/4.0/
# or send a letter to
# Creative Commons, PO Box 1866, Mountain View, CA 94042, USA.
#
# CIF created using the CSD Python API on 29 September 2022
# The structure has been converted into the P1 space group
# The structure has a 3D framework
# The original CSD entry RIMSAK is in the triclinic crystal system
# The framework has been calculated to contain at least 10.0% void space
# The void calculation uses a probe of radius 1.32A, grid spacing 0.4
#
###############################################################################

data_RIMSAK
_chemical_formula_moiety         '(C46 H44 Ba4 O31)n'
_symmetry_cell_setting           triclinic
_symmetry_space_group_name_H-M   'P 1'
_symmetry_Int_Tables_number      1
_space_group_name_Hall           'P 1'
loop_
_symmetry_equiv_pos_site_id
_symmetry_equiv_pos_as_xyz
1 x,y,z
_cell_length_a                   9.3111(3)
_cell_length_b                   12.4288(4)
_cell_length_c                   14.3649(4)
_cell_angle_alpha                83.592(2)
_cell_angle_beta                 85.579(2)
_cell_angle_gamma                82.416(2)
_cell_volume                     1634.27
loop_
_atom_site_label
_atom_site_type_symbol
_atom_site_fract_x
_atom_site_fract_y
_atom_site_fract_z
H8 H 0.0800 0.2364 0.1102
O6 O 0.0234(4) 0.1640(4) 0.8651(3)
O8 O 0.1999(5) 0.1756(5) 0.9542(3)
C18 C 0.0691(6) 0.1662(5) 0.9436(4)
Ba8 Ba 0.28728(3) 0.18654(3) 0.76141(2)
Ba3 Ba 0.07007(3) 0.84924(2) 0.41854(2)
O2 O 0.3841(4) 0.2010(3) 0.5794(3)
O3 O 0.2074(4) 0.1780(3) 0.4876(3)
O4 O 0.8846(4) 0.0445(3) 0.4322(3)
C1 C 0.5254(5) 0.2531(4) 0.2588(3)
O9 O 0.4589(5) 0.3145(4) 0.1024(3)
H1 H 0.4620 0.3694 0.0617
C2 C 0.3349(5) 0.1914(4) 0.5018(3)
C3 C 0.6511(5) 0.1760(4) 0.2643(3)
O10 O 0.5566(6) 0.4266(4) 0.1825(4)
C4 C 0.8123(5) 0.0350(4) 0.3639(3)
C5 C 0.4452(5) 0.1934(4) 0.4179(3)
C6 C 0.5738(5) 0.1223(3) 0.4242(3)
H2 H 0.5919 0.0794 0.4821
C7 C 0.7611(5) 0.1700(4) 0.1828(3)
C8 C 0.4209(5) 0.2612(4) 0.3350(3)
C9 C 0.6750(5) 0.1118(4) 0.3504(3)
C10 C 0.0650(5) 0.5204(4) 0.3107(4)
C11 C 0.8904(6) 0.2082(6) 0.1864(4)
H3 H 0.9128 0.2359 0.2418
C13 C 0.2956(5) 0.3480(4) 0.3287(3)
C14 C 0.1626(6) 0.5142(5) 0.3823(4)
H4 H 0.1500 0.5680 0.4253
C15 C 0.2780(6) 0.4295(4) 0.3905(4)
H5 H 0.3444 0.4273 0.4378
C16 C 0.7334(6) 0.1244(5) 0.1029(4)
H6 H 0.6448 0.0949 0.1004
C17 C 0.9615(5) 0.1632(5) 0.0291(4)
C19 C 0.8353(6) 0.1217(5) 0.0263(4)
C20 C 0.9912(7) 0.2070(6) 0.1083(4)
C21 C 0.0817(6) 0.4397(4) 0.2515(4)
H9 H 0.0147 0.4417 0.2045
C22 C 0.1964(6) 0.3541(4) 0.2594(4)
H10 H 0.2067 0.2996 0.2171
C23 C 0.5122(6) 0.3382(5) 0.1745(4)
O11 O 0.0813(6) 0.6941(4) 0.5683(3)
H11 H 0.0200 0.6531 0.5939
H12 H 0.1608 0.6676 0.5919
O12 O 0.3535(5) 0.7131(4) 0.4344(4)
H13 H 0.4036 0.6817 0.3908
H14 H 0.3603 0.6664 0.4823
H18 H 0.4362 0.0104 0.1807
O16 O 0.2152(5) 0.8204(4) 0.2337(3)
H21 H 0.2957 0.7792 0.2318
H22 H 0.1692 0.8022 0.1902
Ba5 Ba 0.92993(3) 0.15076(2) 0.58146(2)
O21 O 0.1154(4) 0.9555(3) 0.5678(3)
Ba2 Ba 0.71272(3) 0.81346(3) 0.23859(2)
O1 O 0.8450(4) 0.9618(3) 0.3091(2)
O13 O 0.4867(6) 0.6627(5) 0.2481(5)
H15 H 0.4704 0.6455 0.1960
H16 H 0.4989 0.6011 0.2833
O14 O 0.4437(7) 0.9481(7) 0.2124(6)
H17 H 0.3743 0.9177 0.1962
O18 O 0.6159(4) 0.7990(3) 0.4206(3)
O22 O 0.9552(4) 0.6987(3) 0.3365(3)
O23 O 0.9766(4) 0.8360(4) 0.1349(3)
O24 O 0.8393(5) 0.6010(3) 0.2549(4)
O25 O 0.8001(5) 0.8244(5) 0.0458(3)
C12 C 0.9469(6) 0.6129(4) 0.3013(4)
O19 O 0.7926(4) 0.8220(3) 0.5124(3)
O5 O 0.0448(4) 0.3013(3) 0.6635(3)
O7 O 0.1607(5) 0.3990(3) 0.7451(4)
C12_2 C 0.0531(6) 0.3871(4) 0.6987(4)
O17 O 0.1550(4) 0.0382(3) 0.6909(2)
O13_2 O 0.5133(6) 0.3373(5) 0.7519(5)
H15_2 H 0.5296 0.3545 0.8040
H16_2 H 0.5011 0.3989 0.7167
O14_2 O 0.5563(7) 0.0519(7) 0.7876(6)
H17_2 H 0.6257 0.0823 0.8038
C1_2 C 0.4746(5) 0.7469(4) 0.7412(3)
O9_2 O 0.5411(5) 0.6855(4) 0.8976(3)
H1_2 H 0.5380 0.6306 0.9383
C2_2 C 0.6651(5) 0.8086(4) 0.4982(3)
C3_2 C 0.3489(5) 0.8240(4) 0.7357(3)
O10_2 O 0.4434(6) 0.5734(4) 0.8175(4)
C4_2 C 0.1877(5) 0.9650(4) 0.6361(3)
C5_2 C 0.5548(5) 0.8066(4) 0.5821(3)
C6_2 C 0.4262(5) 0.8777(3) 0.5758(3)
H2_2 H 0.4081 0.9206 0.5179
C7_2 C 0.2389(5) 0.8300(4) 0.8172(3)
C8_2 C 0.5791(5) 0.7388(4) 0.6650(3)
C9_2 C 0.3250(5) 0.8882(4) 0.6496(3)
C10_2 C 0.9350(5) 0.4796(4) 0.6893(4)
C11_2 C 0.1096(6) 0.7918(6) 0.8136(4)
H3_2 H 0.0872 0.7641 0.7582
C13_2 C 0.7044(5) 0.6520(4) 0.6713(3)
C14_2 C 0.8374(6) 0.4858(5) 0.6177(4)
H4_2 H 0.8500 0.4320 0.5747
C15_2 C 0.7220(6) 0.5705(4) 0.6095(4)
H5_2 H 0.6556 0.5727 0.5622
C16_2 C 0.2666(6) 0.8756(5) 0.8971(4)
H6_2 H 0.3552 0.9051 0.8996
C17_2 C 0.0385(5) 0.8368(5) 0.9709(4)
C19_2 C 0.1647(6) 0.8783(5) 0.9737(4)
C20_2 C 0.0088(7) 0.7930(6) 0.8917(4)
C21_2 C 0.9183(6) 0.5603(4) 0.7485(4)
H9_2 H 0.9853 0.5583 0.7955
C22_2 C 0.8036(6) 0.6459(4) 0.7406(4)
H10_2 H 0.7933 0.7004 0.7829
C23_2 C 0.4878(6) 0.6618(5) 0.8255(4)
O11_2 O 0.9187(6) 0.3059(4) 0.4317(3)
H11_2 H 0.9800 0.3469 0.4061
H12_2 H 0.8392 0.3324 0.4081
O12_2 O 0.6465(5) 0.2869(4) 0.5656(4)
H13_2 H 0.5964 0.3183 0.6092
H14_2 H 0.6397 0.3336 0.5177
H18_2 H 0.5638 0.9896 0.8193
O16_2 O 0.7848(5) 0.1796(4) 0.7663(3)
H21_2 H 0.7043 0.2208 0.7682
H22_2 H 0.8308 0.1978 0.8098
C18_2 C 0.9309(6) 0.8338(5) 0.0564(4)
O15 O 0.2210(6) 0.0285(4) 0.3528(4)
H19 H 0.2869 0.0165 0.3096
H20 H 0.2503 0.0765 0.3820
H7 H 0.8156 0.0905 0.9719
H7_2 H 0.1844 0.9095 0.0281
O15_2 O 0.7790(6) 0.9715(4) 0.6472(4)
H19_2 H 0.7131 0.9835 0.6904
H20_2 H 0.7497 0.9235 0.6180
H8_2 H 0.9200 0.7636 0.8898
loop_
_geom_bond_atom_site_label_1
_geom_bond_atom_site_label_2
_geom_bond_site_symmetry_1
_geom_bond_site_symmetry_2
O6 C18 1_555 1_555
O8 C18 1_555 1_555
Ba8 O6 1_555 1_555
O8 Ba8 1_555 1_555
O2 C2 1_555 1_555
O3 C2 1_555 1_555
O4 C4 1_555 1_555
C1 C3 1_555 1_555
O9 H1 1_555 1_555
C2 C5 1_555 1_555
C3 C7 1_555 1_555
O10 C23 1_555 1_555
C4 C9 1_555 1_555
C5 C6 1_555 1_555
C6 H2 1_555 1_555
C7 C11 1_555 1_555
C8 C1 1_555 1_555
C9 C3 1_555 1_555
C11 H3 1_555 1_555
C13 C8 1_555 1_555
C14 C10 1_555 1_555
H4 C14 1_555 1_555
C15 C13 1_555 1_555
H5 C15 1_555 1_555
C16 C7 1_555 1_555
H6 C16 1_555 1_555
C19 C16 1_555 1_555
C20 C11 1_555 1_555
C21 C10 1_555 1_555
H9 C21 1_555 1_555
C22 C13 1_555 1_555
H10 C22 1_555 1_555
C23 C1 1_555 1_555
O11 Ba3 1_555 1_555
H11 O11 1_555 1_555
H12 O11 1_555 1_555
O12 Ba3 1_555 1_555
H13 O12 1_555 1_555
H14 O12 1_555 1_555
O16 Ba3 1_555 1_555
H21 O16 1_555 1_555
H22 O16 1_555 1_555
Ba5 O4 1_555 1_555
Ba8 O2 1_555 1_555
O21 Ba3 1_555 1_555
O9 C23 1_555 1_555
C5 C8 1_555 1_555
C6 C9 1_555 1_555
C14 C15 1_555 1_555
C17 C19 1_555 1_555
C17 C20 1_555 1_555
C21 C22 1_555 1_555
Ba2 O1 1_555 1_555
O13 Ba2 1_555 1_555
H15 O13 1_555 1_555
H16 O13 1_555 1_555
O14 Ba2 1_555 1_555
H17 O14 1_555 1_555
O18 Ba2 1_555 1_555
O22 Ba2 1_555 1_555
O23 Ba2 1_555 1_555
O24 Ba2 1_555 1_555
O25 Ba2 1_555 1_555
O22 C12 1_555 1_555
O24 C12 1_555 1_555
O5 C12_2 1_555 1_555
O7 C12_2 1_555 1_555
Ba8 O5 1_555 1_555
O7 Ba8 1_555 1_555
Ba8 O17 1_555 1_555
O13_2 Ba8 1_555 1_555
H15_2 O13_2 1_555 1_555
H16_2 O13_2 1_555 1_555
O14_2 Ba8 1_555 1_555
H17_2 O14_2 1_555 1_555
O18 C2_2 1_555 1_555
O19 C2_2 1_555 1_555
O21 C4_2 1_555 1_555
C1_2 C3_2 1_555 1_555
O9_2 H1_2 1_555 1_555
C2_2 C5_2 1_555 1_555
C3_2 C7_2 1_555 1_555
O10_2 C23_2 1_555 1_555
C4_2 C9_2 1_555 1_555
C5_2 C6_2 1_555 1_555
C6_2 H2_2 1_555 1_555
C7_2 C11_2 1_555 1_555
C8_2 C1_2 1_555 1_555
C9_2 C3_2 1_555 1_555
C11_2 H3_2 1_555 1_555
C13_2 C8_2 1_555 1_555
C14_2 C10_2 1_555 1_555
H4_2 C14_2 1_555 1_555
C15_2 C13_2 1_555 1_555
H5_2 C15_2 1_555 1_555
C16_2 C7_2 1_555 1_555
H6_2 C16_2 1_555 1_555
C19_2 C16_2 1_555 1_555
C20_2 C11_2 1_555 1_555
C21_2 C10_2 1_555 1_555
H9_2 C21_2 1_555 1_555
C22_2 C13_2 1_555 1_555
H10_2 C22_2 1_555 1_555
C23_2 C1_2 1_555 1_555
O11_2 Ba5 1_555 1_555
H11_2 O11_2 1_555 1_555
H12_2 O11_2 1_555 1_555
O12_2 Ba5 1_555 1_555
H13_2 O12_2 1_555 1_555
H14_2 O12_2 1_555 1_555
O16_2 Ba5 1_555 1_555
H21_2 O16_2 1_555 1_555
H22_2 O16_2 1_555 1_555
O9_2 C23_2 1_555 1_555
C5_2 C8_2 1_555 1_555
C6_2 C9_2 1_555 1_555
C14_2 C15_2 1_555 1_555
C17_2 C19_2 1_555 1_555
C17_2 C20_2 1_555 1_555
C21_2 C22_2 1_555 1_555
O23 C18_2 1_555 1_555
O25 C18_2 1_555 1_555
H19 O15 1_555 1_555
H20 O15 1_555 1_555
H19_2 O15_2 1_555 1_555
H20_2 O15_2 1_555 1_555

#END
