
###############################################################################
#
# This file contains modified crystal structure data generated from the
# MOF subset of the Cambridge Structural Database (CSD) v543 
# hosted by the Cambridge Crystallographic Data Centre (CCDC).
#
# This work is licensed under the Creative Commons
# Attribution-NonCommercial-ShareAlike 4.0 International License.
# To view a copy of this license, visit
# http://creativecommons.org/licenses/by-nc-sa/4.0/
# or send a letter to
# Creative Commons, PO Box 1866, Mountain View, CA 94042, USA.
#
# CIF created using the CSD Python API on 29 September 2022
# The structure has been converted into the P1 space group
# The structure has a 3D framework
# The original CSD entry RINMUZ is in the orthorhombic crystal system
# The original CSD entry RINMUZ is in a Sohncke space group
# The framework has been calculated to contain at least 10.0% void space
# The void calculation uses a probe of radius 1.32A, grid spacing 0.4
#
###############################################################################

data_RINMUZ
_chemical_formula_moiety         '(C48 H40 Cu3 N16 O20 S8)n'
_symmetry_cell_setting           triclinic
_symmetry_space_group_name_H-M   'P 1'
_symmetry_Int_Tables_number      1
_space_group_name_Hall           'P 1'
loop_
_symmetry_equiv_pos_site_id
_symmetry_equiv_pos_as_xyz
1 x,y,z
_cell_length_a                   5.51200(10)
_cell_length_b                   10.4289(3)
_cell_length_c                   29.3412(7)
_cell_angle_alpha                90
_cell_angle_beta                 90
_cell_angle_gamma                90
_cell_volume                     1686.65
loop_
_atom_site_label
_atom_site_type_symbol
_atom_site_fract_x
_atom_site_fract_y
_atom_site_fract_z
O1 O 0.0749(5) 0.3887(3) 0.76184(10)
H1 H 0.0569 0.3220 0.7452
N2 N 0.0943(6) 0.6183(4) 0.48801(12)
N3 N 0.0974(6) 0.6173(4) 0.53471(12)
H2 H 0.0783 0.6415 0.3239
C2 C 0.0035(7) 0.6264(4) 0.39119(13)
H3 H 0.1477 0.6671 0.4015
C9 C 0.0243(8) 0.6188(4) 0.63136(14)
H6 H 0.1625 0.6632 0.6202
H7 H 0.1190 0.6275 0.6979
H10 H 0.184(11) 0.438(4) 0.756(2)
O7 O 0.0703(5) 0.6703(3) 0.77933(10)
Cu1 Cu 0.77076(7) 0.48925(4) 0.76200(2)
S1 S 0.33800(17) 0.68243(9) 0.78346(3)
S2 S 0.66533(18) 0.56076(11) 0.51240(3)
O2 O 0.4408(4) 0.5626(2) 0.76169(9)
O3 O 0.4238(5) 0.7938(2) 0.75730(10)
O5 O 0.4080(6) 0.6877(3) 0.83126(9)
N1 N 0.7611(6) 0.5519(3) 0.32902(10)
N4 N 0.8022(6) 0.5374(3) 0.69513(10)
C1 C 0.9616(7) 0.6103(4) 0.34504(14)
C3 C 0.8327(7) 0.5826(4) 0.42243(12)
C4 C 0.6222(7) 0.5271(4) 0.40589(13)
H4 H 0.4990 0.4992 0.4262
C5 C 0.5933(7) 0.5127(4) 0.35890(13)
H5 H 0.4494 0.4736 0.3477
C6 C 0.8817(7) 0.5910(4) 0.47182(13)
C7 C 0.8878(7) 0.5876(4) 0.55201(13)
C8 C 0.8500(7) 0.5746(4) 0.60160(12)
C10 C 0.9964(8) 0.5980(4) 0.67773(14)
C11 C 0.6288(6) 0.4992(4) 0.66598(13)
H8 H 0.4880 0.4589 0.6779
C12 C 0.6460(7) 0.5158(4) 0.61974(13)
H9 H 0.5192 0.4873 0.6003
Cu3 Cu 0.72924(7) 0.51075(4) 0.26200(2)
Cu4 Cu 0.22924(7) 0.98925(4) 0.73800(2)
O6 O 0.5762(5) 0.2938(2) 0.74270(10)
N5 N 0.7389(6) 0.4481(3) 0.82902(10)
S1_2 S 0.16200(17) 0.31757(9) 0.28346(3)
O2_2 O 0.0592(4) 0.4374(2) 0.26169(9)
O3_2 O 0.0762(5) 0.2062(2) 0.25730(10)
O4 O 0.4297(5) 0.3297(3) 0.27933(10)
O5_2 O 0.0920(6) 0.3123(3) 0.33126(9)
H8_2 H 0.0120 0.5411 0.1779
Cu4_2 Cu 0.27076(7) 0.01075(4) 0.23800(2)
S2_2 S 0.83467(18) 0.43924(11) 0.01240(3)
O1_2 O 0.4251(5) 0.6113(3) 0.26184(10)
H1_2 H 0.4431 0.6780 0.2452
N3_2 N 0.4026(6) 0.3827(4) 0.03471(12)
N4_2 N 0.6978(6) 0.4626(3) 0.19513(10)
C7_2 C 0.6122(7) 0.4124(4) 0.05201(13)
C8_2 C 0.6500(7) 0.4254(4) 0.10160(12)
C9_2 C 0.4757(8) 0.3812(4) 0.13136(14)
H6_2 H 0.3375 0.3368 0.1202
C10_2 C 0.5036(8) 0.4020(4) 0.17773(14)
H7_2 H 0.3810 0.3725 0.1979
C11_2 C 0.8712(6) 0.5008(4) 0.16598(13)
C12_2 C 0.8540(7) 0.4842(4) 0.11974(13)
H9_2 H 0.9808 0.5127 0.1003
H10_2 H 0.316(11) 0.562(4) 0.256(2)
O6_2 O 0.9238(5) 0.7062(2) 0.24270(10)
N2_2 N 0.4057(6) 0.3817(4) 0.98801(12)
C1_2 C 0.5384(7) 0.3897(4) 0.84504(14)
H2_2 H 0.4217 0.3585 0.8239
C2_2 C 0.4965(7) 0.3736(4) 0.89119(13)
H3_2 H 0.3523 0.3329 0.9015
C3_2 C 0.6673(7) 0.4174(4) 0.92243(12)
C4_2 C 0.8778(7) 0.4729(4) 0.90589(13)
C5_2 C 0.9067(7) 0.4873(4) 0.85890(13)
C6_2 C 0.6183(7) 0.4090(4) 0.97182(13)
N1_2 N 0.2389(6) 0.0519(3) 0.17098(10)
C1_3 C 0.0384(7) 0.1103(4) 0.15496(14)
C3_3 C 0.1673(7) 0.0826(4) 0.07757(12)
C4_3 C 0.3778(7) 0.0271(4) 0.09411(13)
C5_3 C 0.4067(7) 0.0127(4) 0.14110(13)
C6_3 C 0.1183(7) 0.0910(4) 0.02818(13)
S1_3 S 0.66200(17) 0.18243(9) 0.71654(3)
S2_3 S 0.33467(18) 0.06076(11) 0.98760(3)
O2_3 O 0.5592(4) 0.0626(2) 0.73831(9)
O4_2 O 0.9297(5) 0.1703(3) 0.72067(10)
O5_3 O 0.5920(6) 0.1877(3) 0.66874(9)
N4_3 N 0.1978(6) 0.0374(3) 0.80487(10)
C7_3 C 0.1122(7) 0.0876(4) 0.94799(13)
C8_3 C 0.1500(7) 0.0746(4) 0.89840(12)
C10_3 C 0.0036(8) 0.0980(4) 0.82227(14)
C12_3 C 0.3540(7) 0.0158(4) 0.88026(13)
C11_3 C 0.3712(6) 0.9992(4) 0.83402(13)
H8_3 H 0.5120 0.9589 0.8221
H9_3 H 0.4808 0.9873 0.8997
N5_2 N 0.2611(6) 0.9481(3) 0.67098(10)
N3_3 N 0.9026(6) 0.1173(4) 0.96529(12)
C9_3 C 0.9757(8) 0.1188(4) 0.86864(14)
H6_3 H 0.8375 0.1632 0.8798
H7_3 H 0.8810 0.1275 0.8021
O1_3 O 0.5749(5) 0.1113(3) 0.23816(10)
H1_3 H 0.5569 0.1780 0.2548
C11_4 C 0.1288(6) 0.0008(4) 0.33402(13)
H9_4 H 0.0192 0.0127 0.3997
H10_3 H 0.684(11) 0.062(4) 0.244(2)
S2_4 S 0.16533(18) 0.93924(11) 0.48760(3)
N2_3 N 0.5943(6) 0.8817(4) 0.51199(12)
N3_4 N 0.5974(6) 0.8827(4) 0.46529(12)
N4_4 N 0.3022(6) 0.9626(3) 0.30487(10)
C1_4 C 0.4616(7) 0.8897(4) 0.65496(14)
H2_3 H 0.5783 0.8585 0.6761
C2_3 C 0.5035(7) 0.8736(4) 0.60881(13)
H3_3 H 0.6477 0.8329 0.5985
C3_4 C 0.3327(7) 0.9174(4) 0.57757(12)
C4_4 C 0.1222(7) 0.9729(4) 0.59411(13)
C5_4 C 0.0933(7) 0.9873(4) 0.64110(13)
C6_4 C 0.3817(7) 0.9090(4) 0.52818(13)
C7_4 C 0.3878(7) 0.9124(4) 0.44799(13)
C8_4 C 0.3500(7) 0.9254(4) 0.39840(12)
C9_4 C 0.5243(8) 0.8812(4) 0.36864(14)
H6_4 H 0.6625 0.8368 0.3798
C10_4 C 0.4964(8) 0.9020(4) 0.32227(14)
H7_4 H 0.6190 0.8725 0.3021
C12_4 C 0.1460(7) 0.9842(4) 0.38026(13)
O7_2 O 0.5703(5) 0.8297(3) 0.22067(10)
H4_2 H 0.9990 0.0008 0.5738
H5_2 H 0.9494 0.0264 0.6523
H8_4 H 0.9880 0.0411 0.3221
S1_4 S 0.83800(17) 0.81757(9) 0.21654(3)
O2_4 O 0.9408(4) 0.9374(2) 0.23831(9)
O5_4 O 0.9080(6) 0.8123(3) 0.16874(9)
H4_3 H 0.0010 0.5008 0.9262
H5_3 H 0.0506 0.5264 0.8477
H4_4 H 0.5010 0.9992 0.0738
H5_4 H 0.5506 0.9736 0.1523
N2_4 N 0.9057(6) 0.1183(4) 0.01199(12)
H2_4 H 0.9217 0.1415 0.1761
C2_4 C 0.9965(7) 0.1264(4) 0.10881(13)
H3_4 H 0.8523 0.1671 0.0985
O1_4 O 0.9251(5) 0.8887(3) 0.73816(10)
H1_4 H 0.9431 0.8220 0.7548
H10_4 H 0.816(11) 0.938(4) 0.744(2)
loop_
_geom_bond_atom_site_label_1
_geom_bond_atom_site_label_2
_geom_bond_site_symmetry_1
_geom_bond_site_symmetry_2
O1 H1 1_555 1_555
N2 N3 1_555 1_555
H3 C2 1_555 1_555
H6 C9 1_555 1_555
H10 O1 1_555 1_555
S1 O2 1_555 1_555
S2 C6 1_555 1_555
O2 Cu1 1_555 1_555
O3 S1 1_555 1_555
O7 S1 1_555 1_555
O5 S1 1_555 1_555
N1 C1 1_555 1_555
N4 Cu1 1_555 1_555
C4 C3 1_555 1_555
H4 C4 1_555 1_555
C5 N1 1_555 1_555
H5 C5 1_555 1_555
C7 S2 1_555 1_555
C8 C7 1_555 1_555
C10 N4 1_555 1_555
C11 N4 1_555 1_555
H8 C11 1_555 1_555
C12 C8 1_555 1_555
H9 C12 1_555 1_555
Cu3 N1 1_555 1_555
Cu4 O3 1_555 1_555
O6 Cu1 1_555 1_555
N5 Cu1 1_555 1_555
C3 C6 1_555 1_555
C4 C5 1_555 1_555
C11 C12 1_555 1_555
S1_2 O2_2 1_555 1_555
O3_2 S1_2 1_555 1_555
O4 S1_2 1_555 1_555
O5_2 S1_2 1_555 1_555
Cu3 O4 1_555 1_555
Cu4_2 O3_2 1_555 1_555
Cu3 O1_2 1_555 1_555
O1_2 H1_2 1_555 1_555
N3_2 C7_2 1_555 1_555
N4_2 Cu3 1_555 1_555
C7_2 S2_2 1_555 1_555
C8_2 C7_2 1_555 1_555
C9_2 C8_2 1_555 1_555
H6_2 C9_2 1_555 1_555
C10_2 N4_2 1_555 1_555
H7_2 C10_2 1_555 1_555
C11_2 N4_2 1_555 1_555
C12_2 C8_2 1_555 1_555
H9_2 C12_2 1_555 1_555
H10_2 O1_2 1_555 1_555
O6_2 Cu3 1_555 1_555
C9_2 C10_2 1_555 1_555
C11_2 C12_2 1_555 1_555
N5 C1_2 1_555 1_555
C1_2 H2_2 1_555 1_555
C2_2 C1_2 1_555 1_555
H3_2 C2_2 1_555 1_555
C3_2 C2_2 1_555 1_555
C4_2 C3_2 1_555 1_555
C5_2 N5 1_555 1_555
C6_2 N2_2 1_555 1_555
C3_2 C6_2 1_555 1_555
C4_2 C5_2 1_555 1_555
N1_2 C1_3 1_555 1_555
C4_3 C3_3 1_555 1_555
C5_3 N1_2 1_555 1_555
Cu4_2 N1_2 1_555 1_555
C3_3 C6_3 1_555 1_555
C4_3 C5_3 1_555 1_555
S1_3 O2_3 1_555 1_555
O6 S1_3 1_555 1_555
O4_2 S1_3 1_555 1_555
O5_3 S1_3 1_555 1_555
C7_3 S2_3 1_555 1_555
C8_3 C7_3 1_555 1_555
C10_3 N4_3 1_555 1_555
C12_3 C8_3 1_555 1_555
H8_3 C11_3 1_555 1_555
N5_2 Cu4 1_555 1_555
H6_3 C9_3 1_555 1_555
Cu4_2 O1_3 1_555 1_555
O1_3 H1_3 1_555 1_555
H10_3 O1_3 1_555 1_555
S2_4 C6_4 1_555 1_555
N5_2 C1_4 1_555 1_555
N2_3 N3_4 1_555 1_555
N3_4 C7_4 1_555 1_555
C1_4 H2_3 1_555 1_555
C2_3 C1_4 1_555 1_555
H3_3 C2_3 1_555 1_555
C3_4 C2_3 1_555 1_555
C4_4 C3_4 1_555 1_555
C5_4 N5_2 1_555 1_555
C6_4 N2_3 1_555 1_555
C7_4 S2_4 1_555 1_555
C8_4 C7_4 1_555 1_555
C9_4 C8_4 1_555 1_555
H6_4 C9_4 1_555 1_555
C10_4 N4_4 1_555 1_555
H7_4 C10_4 1_555 1_555
C12_4 C8_4 1_555 1_555
C3_4 C6_4 1_555 1_555
C4_4 C5_4 1_555 1_555
C9_4 C10_4 1_555 1_555
S1_4 O2_4 1_555 1_555
O6_2 S1_4 1_555 1_555
O7_2 S1_4 1_555 1_555
O5_4 S1_4 1_555 1_555
H3_4 C2_4 1_555 1_555
O1_4 H1_4 1_555 1_555
H10_4 O1_4 1_555 1_555

#END
