
###############################################################################
#
# This file contains modified crystal structure data generated from the
# MOF subset of the Cambridge Structural Database (CSD) v543 
# hosted by the Cambridge Crystallographic Data Centre (CCDC).
#
# This work is licensed under the Creative Commons
# Attribution-NonCommercial-ShareAlike 4.0 International License.
# To view a copy of this license, visit
# http://creativecommons.org/licenses/by-nc-sa/4.0/
# or send a letter to
# Creative Commons, PO Box 1866, Mountain View, CA 94042, USA.
#
# CIF created using the CSD Python API on 29 September 2022
# The structure has been converted into the P1 space group
# The structure has a 3D framework
# The original CSD entry RIPKOS is in the monoclinic crystal system
# The framework has been calculated to contain at least 10.0% void space
# The void calculation uses a probe of radius 1.32A, grid spacing 0.4
#
###############################################################################

data_RIPKOS
_chemical_formula_moiety         '(C96 H104 Cu8 N16 O32)n'
_symmetry_cell_setting           triclinic
_symmetry_space_group_name_H-M   'P 1'
_symmetry_Int_Tables_number      1
_space_group_name_Hall           'P 1'
loop_
_symmetry_equiv_pos_site_id
_symmetry_equiv_pos_as_xyz
1 x,y,z
_cell_length_a                   29.2971(11)
_cell_length_b                   13.1552(4)
_cell_length_c                   8.5923(3)
_cell_angle_alpha                90
_cell_angle_beta                 90.723(4)
_cell_angle_gamma                90
_cell_volume                     3311.29
loop_
_atom_site_label
_atom_site_type_symbol
_atom_site_fract_x
_atom_site_fract_y
_atom_site_fract_z
O3 O 0.30919(9) 0.1581(2) 0.0994(3)
O4 O 0.24663(10) 0.0800(2) 0.0125(4)
C5 C 0.28561(13) 0.0808(3) 0.0729(4)
C6 C 0.12232(15) 0.0273(4) 0.2443(6)
H5 H 0.1236 0.0979 0.2387
H6 H 0.1811 0.0105 0.3627
C9 C 0.04819(14) 0.0311(4) 0.1020(5)
C12 C 0.04760(19) 0.1442(5) 0.1082(7)
H11 H 0.0210 0.1691 0.0539
H12 H 0.0745 0.1704 0.0599
H13 H 0.0469 0.1660 0.2148
Cu5 Cu 0.286906(14) 0.29599(4) 0.05231(5)
Cu6 Cu 0.213094(14) 0.20401(4) 0.94769(5)
Cu1 Cu 0.213094(14) 0.79599(4) 0.44769(5)
O1 O 0.24830(10) 0.7945(2) 0.2542(3)
O2 O 0.31177(10) 0.7203(2) 0.3417(3)
N1 N 0.15718(11) 0.8746(3) 0.3325(4)
C1 C 0.08660(13) 0.9766(4) 0.1789(5)
N2 N 0.01833(13) 0.9732(4) 0.0368(5)
C2 C 0.31124(15) 0.7891(3) 0.0868(5)
H1 H 0.3045 0.7347 0.0138
H2 H 0.3441 0.7911 0.1028
C3 C 0.30579(15) 0.9793(3) 0.1228(5)
H3 H 0.3387 0.9868 0.1315
H4 H 0.2946 0.9631 0.2256
C4 C 0.28887(13) 0.7660(3) 0.2386(5)
C7 C 0.15685(15) 0.9740(4) 0.3194(6)
C8 C 0.29550(15) 0.8902(3) 0.0160(5)
C10 C 0.08728(16) 0.8723(4) 0.1901(6)
H9 H 0.0638 0.8339 0.1462
C11 C 0.12292(17) 0.8251(4) 0.2666(7)
H10 H 0.1229 0.7545 0.2722
Cu7 Cu 0.286906(14) 0.70401(4) 0.55231(5)
O10 O 0.18823(10) 0.7797(2) 0.6583(3)
O11 O 0.19081(9) 0.6581(2) 0.4006(3)
O14 O 0.24663(10) 0.9200(2) 0.5125(4)
N3 N 0.84282(11) 0.1254(3) 0.6675(4)
C13 C 0.91340(13) 0.0234(4) 0.8211(5)
N4 N 0.98167(13) 0.0268(4) 0.9632(5)
C15 C 0.84315(15) 0.0260(4) 0.6806(6)
C17 C 0.91272(16) 0.1277(4) 0.8099(6)
H16 H 0.9362 0.1661 0.8538
C18 C 0.87708(17) 0.1749(4) 0.7334(7)
H17 H 0.8771 0.2455 0.7278
Cu2 Cu 0.786906(14) 0.20401(4) 0.55231(5)
O5 O 0.75170(10) 0.2055(2) 0.7458(3)
O6 O 0.68823(10) 0.2797(2) 0.6583(3)
C20 C 0.68876(15) 0.2109(3) 0.9132(5)
H21 H 0.6955 0.2653 0.9862
H22 H 0.6559 0.2089 0.8972
C21 C 0.69421(15) 0.0207(3) 0.8772(5)
H23 H 0.6613 0.0132 0.8685
H24 H 0.7054 0.0369 0.7744
C22 C 0.71113(13) 0.2340(3) 0.7614(5)
C24 C 0.70450(15) 0.1098(3) 0.9840(5)
Cu4 Cu 0.713094(14) 0.29599(4) 0.44769(5)
O9 O 0.81177(10) 0.2203(2) 0.3417(3)
O12 O 0.80919(9) 0.3419(2) 0.5994(3)
O13 O 0.75337(10) 0.0800(2) 0.4875(4)
Cu3 Cu 0.786906(14) 0.79599(4) 0.05231(5)
C14 C 0.87768(15) 0.9727(4) 0.7557(6)
H14 H 0.8764 0.9021 0.7613
H15 H 0.8189 0.9895 0.6373
C16 C 0.95181(14) 0.9689(4) 0.8980(5)
C19 C 0.95240(19) 0.8558(5) 0.8918(7)
H18 H 0.9790 0.8309 0.9461
H19 H 0.9255 0.8296 0.9401
H20 H 0.9531 0.8340 0.7852
O7 O 0.69081(9) 0.8419(2) 0.9006(3)
O8 O 0.75337(10) 0.9200(2) 0.9875(4)
C23 C 0.71439(13) 0.9192(3) 0.9271(4)
Cu8 Cu 0.713094(14) 0.70401(4) 0.94769(5)
O9_2 O 0.18823(10) 0.2203(2) 0.1583(3)
N3_2 N 0.15718(11) 0.1254(3) 0.8325(4)
C13_2 C 0.08660(13) 0.0234(4) 0.6789(5)
N4_2 N 0.01833(13) 0.0268(4) 0.5368(5)
C15_2 C 0.15685(15) 0.0260(4) 0.8194(6)
C17_2 C 0.08728(16) 0.1277(4) 0.6901(6)
H16_2 H 0.0638 0.1661 0.6462
C18_2 C 0.12292(17) 0.1749(4) 0.7666(7)
H17_2 H 0.1229 0.2455 0.7722
O5_2 O 0.24830(10) 0.2055(2) 0.7542(3)
O6_2 O 0.31177(10) 0.2797(2) 0.8417(3)
C20_2 C 0.31124(15) 0.2109(3) 0.5868(5)
H21_2 H 0.3045 0.2653 0.5138
H22_2 H 0.3441 0.2089 0.6028
C21_2 C 0.30579(15) 0.0207(3) 0.6228(5)
H23_2 H 0.3387 0.0132 0.6315
H24_2 H 0.2946 0.0369 0.7256
C22_2 C 0.28887(13) 0.2340(3) 0.7386(5)
C24_2 C 0.29550(15) 0.1098(3) 0.5160(5)
H25 H 0.3107 0.0994 0.4176
H26 H 0.2629 0.1127 0.4953
O12_2 O 0.19081(9) 0.3419(2) 0.9006(3)
C14_2 C 0.12232(15) 0.9727(4) 0.7443(6)
H14_2 H 0.1236 0.9021 0.7387
H15_2 H 0.1811 0.9895 0.8627
C16_2 C 0.04819(14) 0.9689(4) 0.6020(5)
C19_2 C 0.04760(19) 0.8558(5) 0.6082(7)
H18_2 H 0.0210 0.8309 0.5539
H19_2 H 0.0745 0.8296 0.5599
H20_2 H 0.0469 0.8340 0.7148
O7_2 O 0.30919(9) 0.8419(2) 0.5994(3)
C23_2 C 0.28561(13) 0.9192(3) 0.5729(4)
O3_2 O 0.69081(9) 0.1581(2) 0.4006(3)
C5_2 C 0.71439(13) 0.0808(3) 0.4271(4)
C6_2 C 0.87768(15) 0.0273(4) 0.2557(6)
H5_2 H 0.8764 0.0979 0.2613
H6_2 H 0.8189 0.0105 0.1373
C9_2 C 0.95181(14) 0.0311(4) 0.3980(5)
C12_2 C 0.95240(19) 0.1442(5) 0.3918(7)
H11_2 H 0.9790 0.1691 0.4461
H12_2 H 0.9255 0.1704 0.4401
H13_2 H 0.9531 0.1660 0.2852
O1_2 O 0.75170(10) 0.7945(2) 0.2458(3)
O2_2 O 0.68823(10) 0.7203(2) 0.1583(3)
N1_2 N 0.84282(11) 0.8746(3) 0.1675(4)
C1_2 C 0.91340(13) 0.9766(4) 0.3211(5)
N2_2 N 0.98167(13) 0.9732(4) 0.4632(5)
C2_2 C 0.68876(15) 0.7891(3) 0.4132(5)
H1_2 H 0.6955 0.7347 0.4862
H2_2 H 0.6559 0.7911 0.3972
C3_2 C 0.69421(15) 0.9793(3) 0.3772(5)
H3_2 H 0.6613 0.9868 0.3685
H4_2 H 0.7054 0.9631 0.2744
C4_2 C 0.71113(13) 0.7660(3) 0.2614(5)
C7_2 C 0.84315(15) 0.9740(4) 0.1806(6)
C8_2 C 0.70450(15) 0.8902(3) 0.4840(5)
H7 H 0.6893 0.9006 0.5824
H8 H 0.7371 0.8873 0.5047
C10_2 C 0.91272(16) 0.8723(4) 0.3099(6)
H9_2 H 0.9362 0.8339 0.3538
C11_2 C 0.87708(17) 0.8251(4) 0.2334(7)
H10_2 H 0.8771 0.7545 0.2278
O11_2 O 0.80919(9) 0.6581(2) 0.0994(3)
O10_2 O 0.81177(10) 0.7797(2) 0.8417(3)
O1_3 O 0.74830(10) 0.2945(2) 0.2542(3)
O4_2 O 0.74663(10) 0.5800(2) 0.0125(4)
N1_3 N 0.65718(11) 0.3746(3) 0.3325(4)
C1_3 C 0.58660(13) 0.4766(4) 0.1789(5)
N2_3 N 0.51833(13) 0.4732(4) 0.0368(5)
C2_3 C 0.81124(15) 0.2891(3) 0.0868(5)
H1_3 H 0.8045 0.2347 0.0138
H2_3 H 0.8441 0.2911 0.1028
C3_3 C 0.80579(15) 0.4793(3) 0.1228(5)
H3_3 H 0.8387 0.4868 0.1315
H4_3 H 0.7946 0.4631 0.2256
C4_3 C 0.78887(13) 0.2660(3) 0.2386(5)
C5_3 C 0.78561(13) 0.5808(3) 0.0729(4)
C6_3 C 0.62232(15) 0.5273(4) 0.2443(6)
H5_3 H 0.6236 0.5979 0.2387
C7_3 C 0.65685(15) 0.4740(4) 0.3194(6)
H6_3 H 0.6811 0.5105 0.3627
C8_3 C 0.79550(15) 0.3902(3) 0.0160(5)
C9_3 C 0.54819(14) 0.5311(4) 0.1020(5)
C10_3 C 0.58728(16) 0.3723(4) 0.1901(6)
H9_3 H 0.5638 0.3339 0.1462
C11_3 C 0.62292(17) 0.3251(4) 0.2666(7)
H10_3 H 0.6229 0.2545 0.2722
C12_3 C 0.54760(19) 0.6442(5) 0.1082(7)
H11_3 H 0.5210 0.6691 0.0539
H12_3 H 0.5745 0.6704 0.0599
H13_3 H 0.5469 0.6660 0.2148
H25_2 H 0.1893 0.5994 0.0824
H26_2 H 0.2371 0.6127 0.0047
O14_2 O 0.74663(10) 0.4200(2) 0.5125(4)
H7_2 H 0.8107 0.4006 0.9176
H8_2 H 0.7629 0.3873 0.9953
N3_3 N 0.34282(11) 0.6254(3) 0.6675(4)
C13_3 C 0.41340(13) 0.5234(4) 0.8211(5)
N4_3 N 0.48167(13) 0.5268(4) 0.9632(5)
C14_3 C 0.37768(15) 0.4727(4) 0.7557(6)
H14_3 H 0.3764 0.4021 0.7613
C15_3 C 0.34315(15) 0.5260(4) 0.6806(6)
H15_3 H 0.3189 0.4895 0.6373
C16_3 C 0.45181(14) 0.4689(4) 0.8980(5)
C17_3 C 0.41272(16) 0.6277(4) 0.8099(6)
H16_3 H 0.4362 0.6661 0.8538
C18_3 C 0.37708(17) 0.6749(4) 0.7334(7)
H17_3 H 0.3771 0.7455 0.7278
C19_3 C 0.45240(19) 0.3558(5) 0.8918(7)
H18_3 H 0.4790 0.3309 0.9461
H19_3 H 0.4255 0.3296 0.9401
H20_3 H 0.4531 0.3340 0.7852
O5_3 O 0.25170(10) 0.7055(2) 0.7458(3)
O8_2 O 0.25337(10) 0.4200(2) 0.9875(4)
C20_3 C 0.18876(15) 0.7109(3) 0.9132(5)
H21_3 H 0.1955 0.7653 0.9862
H22_3 H 0.1559 0.7089 0.8972
C21_3 C 0.19421(15) 0.5207(3) 0.8772(5)
H23_3 H 0.1613 0.5132 0.8685
H24_3 H 0.2054 0.5369 0.7744
C22_3 C 0.21113(13) 0.7340(3) 0.7614(5)
C23_3 C 0.21439(13) 0.4192(3) 0.9271(4)
C24_3 C 0.20450(15) 0.6098(3) 0.9840(5)
O13_2 O 0.25337(10) 0.5800(2) 0.4875(4)
O1_4 O 0.25170(10) 0.2945(2) 0.2458(3)
N1_4 N 0.34282(11) 0.3746(3) 0.1675(4)
C1_4 C 0.41340(13) 0.4766(4) 0.3211(5)
N2_4 N 0.48167(13) 0.4732(4) 0.4632(5)
C2_4 C 0.18876(15) 0.2891(3) 0.4132(5)
H1_4 H 0.1955 0.2347 0.4862
H2_4 H 0.1559 0.2911 0.3972
C3_4 C 0.19421(15) 0.4793(3) 0.3772(5)
H3_4 H 0.1613 0.4868 0.3685
H4_4 H 0.2054 0.4631 0.2744
C4_4 C 0.21113(13) 0.2660(3) 0.2614(5)
C5_4 C 0.21439(13) 0.5808(3) 0.4271(4)
C6_4 C 0.37768(15) 0.5273(4) 0.2557(6)
H5_4 H 0.3764 0.5979 0.2613
C7_4 C 0.34315(15) 0.4740(4) 0.1806(6)
H6_4 H 0.3189 0.5105 0.1373
C8_4 C 0.20450(15) 0.3902(3) 0.4840(5)
H7_3 H 0.1893 0.4006 0.5824
H8_3 H 0.2371 0.3873 0.5047
C9_4 C 0.45181(14) 0.5311(4) 0.3980(5)
C10_4 C 0.41272(16) 0.3723(4) 0.3099(6)
H9_4 H 0.4362 0.3339 0.3538
C11_4 C 0.37708(17) 0.3251(4) 0.2334(7)
H10_4 H 0.3771 0.2545 0.2278
C12_4 C 0.45240(19) 0.6442(5) 0.3918(7)
H11_4 H 0.4790 0.6691 0.4461
H12_4 H 0.4255 0.6704 0.4401
H13_4 H 0.4531 0.6660 0.2852
N3_4 N 0.65718(11) 0.6254(3) 0.8325(4)
C13_4 C 0.58660(13) 0.5234(4) 0.6789(5)
N4_4 N 0.51833(13) 0.5268(4) 0.5368(5)
C14_4 C 0.62232(15) 0.4727(4) 0.7443(6)
H14_4 H 0.6236 0.4021 0.7387
C15_4 C 0.65685(15) 0.5260(4) 0.8194(6)
H15_4 H 0.6811 0.4895 0.8627
C16_4 C 0.54819(14) 0.4689(4) 0.6020(5)
C17_4 C 0.58728(16) 0.6277(4) 0.6901(6)
H16_4 H 0.5638 0.6661 0.6462
C18_4 C 0.62292(17) 0.6749(4) 0.7666(7)
H17_4 H 0.6229 0.7455 0.7722
C19_4 C 0.54760(19) 0.3558(5) 0.6082(7)
H18_4 H 0.5210 0.3309 0.5539
H19_4 H 0.5745 0.3296 0.5599
H20_4 H 0.5469 0.3340 0.7148
O5_4 O 0.74830(10) 0.7055(2) 0.7542(3)
C20_4 C 0.81124(15) 0.7109(3) 0.5868(5)
H21_4 H 0.8045 0.7653 0.5138
H22_4 H 0.8441 0.7089 0.6028
C21_4 C 0.80579(15) 0.5207(3) 0.6228(5)
H23_4 H 0.8387 0.5132 0.6315
H24_4 H 0.7946 0.5369 0.7256
C22_4 C 0.78887(13) 0.7340(3) 0.7386(5)
C23_4 C 0.78561(13) 0.4192(3) 0.5729(4)
C24_4 C 0.79550(15) 0.6098(3) 0.5160(5)
H25_3 H 0.8107 0.5994 0.4176
H26_3 H 0.7629 0.6127 0.4953
H7_4 H 0.3107 0.9006 0.9176
H8_4 H 0.2629 0.8873 0.9953
H25_4 H 0.6893 0.0994 0.0824
H26_4 H 0.7371 0.1127 0.0047
loop_
_geom_bond_atom_site_label_1
_geom_bond_atom_site_label_2
_geom_bond_site_symmetry_1
_geom_bond_site_symmetry_2
O3 C5 1_555 1_555
O4 C5 1_555 1_555
C6 H5 1_555 1_555
C12 C9 1_555 1_555
H11 C12 1_555 1_555
H12 C12 1_555 1_555
H13 C12 1_555 1_555
Cu5 O3 1_555 1_555
Cu1 O1 1_555 1_555
O1 C4 1_555 1_555
O2 C4 1_555 1_555
N1 Cu1 1_555 1_555
C2 H1 1_555 1_555
H2 C2 1_555 1_555
C3 H3 1_555 1_555
H4 C3 1_555 1_555
C4 C2 1_555 1_555
C7 N1 1_555 1_555
C8 C2 1_555 1_555
C10 C1 1_555 1_555
H9 C10 1_555 1_555
C11 N1 1_555 1_555
H10 C11 1_555 1_555
Cu7 Cu1 1_555 1_555
O10 Cu1 1_555 1_555
O11 Cu1 1_555 1_555
O14 Cu1 1_555 1_555
O2 Cu7 1_555 1_555
C3 C8 1_555 1_555
C10 C11 1_555 1_555
N3 C15 1_555 1_555
C17 C13 1_555 1_555
H16 C17 1_555 1_555
C18 N3 1_555 1_555
H17 C18 1_555 1_555
Cu2 N3 1_555 1_555
O5 Cu2 1_555 1_555
O6 C22 1_555 1_555
C20 H21 1_555 1_555
H22 C20 1_555 1_555
C21 H23 1_555 1_555
H24 C21 1_555 1_555
C22 O5 1_555 1_555
C24 C20 1_555 1_555
Cu4 Cu2 1_555 1_555
O9 Cu2 1_555 1_555
O12 Cu2 1_555 1_555
O13 Cu2 1_555 1_555
C17 C18 1_555 1_555
O6 Cu4 1_555 1_555
C20 C22 1_555 1_555
C21 C24 1_555 1_555
C14 H14 1_555 1_555
C19 C16 1_555 1_555
H18 C19 1_555 1_555
H19 C19 1_555 1_555
H20 C19 1_555 1_555
O7 C23 1_555 1_555
O8 C23 1_555 1_555
Cu8 O7 1_555 1_555
N3_2 C15_2 1_555 1_555
C17_2 C13_2 1_555 1_555
H16_2 C17_2 1_555 1_555
C18_2 N3_2 1_555 1_555
H17_2 C18_2 1_555 1_555
Cu6 N3_2 1_555 1_555
O5_2 Cu6 1_555 1_555
O6_2 C22_2 1_555 1_555
C20_2 H21_2 1_555 1_555
H22_2 C20_2 1_555 1_555
C21_2 H23_2 1_555 1_555
H24_2 C21_2 1_555 1_555
C22_2 O5_2 1_555 1_555
C24_2 C20_2 1_555 1_555
H25 C24_2 1_555 1_555
H26 C24_2 1_555 1_555
O12_2 Cu6 1_555 1_555
C17_2 C18_2 1_555 1_555
C20_2 C22_2 1_555 1_555
C21_2 C24_2 1_555 1_555
C14_2 H14_2 1_555 1_555
C19_2 C16_2 1_555 1_555
H18_2 C19_2 1_555 1_555
H19_2 C19_2 1_555 1_555
H20_2 C19_2 1_555 1_555
O7_2 C23_2 1_555 1_555
O14 C23_2 1_555 1_555
Cu7 O7_2 1_555 1_555
O3_2 C5_2 1_555 1_555
O13 C5_2 1_555 1_555
C6_2 H5_2 1_555 1_555
C12_2 C9_2 1_555 1_555
H11_2 C12_2 1_555 1_555
H12_2 C12_2 1_555 1_555
H13_2 C12_2 1_555 1_555
Cu4 O3_2 1_555 1_555
Cu3 O1_2 1_555 1_555
O1_2 C4_2 1_555 1_555
O2_2 C4_2 1_555 1_555
N1_2 Cu3 1_555 1_555
C2_2 H1_2 1_555 1_555
H2_2 C2_2 1_555 1_555
C3_2 H3_2 1_555 1_555
H4_2 C3_2 1_555 1_555
C4_2 C2_2 1_555 1_555
C7_2 N1_2 1_555 1_555
C8_2 C2_2 1_555 1_555
H7 C8_2 1_555 1_555
H8 C8_2 1_555 1_555
C10_2 C1_2 1_555 1_555
H9_2 C10_2 1_555 1_555
C11_2 N1_2 1_555 1_555
H10_2 C11_2 1_555 1_555
O11_2 Cu3 1_555 1_555
C3_2 C8_2 1_555 1_555
C10_2 C11_2 1_555 1_555
Cu4 O1_3 1_555 1_555
O1_3 C4_3 1_555 1_555
O9 C4_3 1_555 1_555
O11_2 C5_3 1_555 1_555
O4_2 C5_3 1_555 1_555
N1_3 Cu4 1_555 1_555
C1_3 C6_3 1_555 1_555
N2_3 C9_3 1_555 1_555
C2_3 H1_3 1_555 1_555
H2_3 C2_3 1_555 1_555
C3_3 H3_3 1_555 1_555
H4_3 C3_3 1_555 1_555
C4_3 C2_3 1_555 1_555
C5_3 C3_3 1_555 1_555
C6_3 H5_3 1_555 1_555
C7_3 N1_3 1_555 1_555
H6_3 C7_3 1_555 1_555
C8_3 C2_3 1_555 1_555
C9_3 C1_3 1_555 1_555
C10_3 C1_3 1_555 1_555
H9_3 C10_3 1_555 1_555
C11_3 N1_3 1_555 1_555
H10_3 C11_3 1_555 1_555
C12_3 C9_3 1_555 1_555
H11_3 C12_3 1_555 1_555
H12_3 C12_3 1_555 1_555
H13_3 C12_3 1_555 1_555
O14_2 Cu4 1_555 1_555
C3_3 C8_3 1_555 1_555
C6_3 C7_3 1_555 1_555
C10_3 C11_3 1_555 1_555
N3_3 C15_3 1_555 1_555
C13_3 C14_3 1_555 1_555
C14_3 H14_3 1_555 1_555
C15_3 C14_3 1_555 1_555
H15_3 C15_3 1_555 1_555
C16_3 C13_3 1_555 1_555
C17_3 C13_3 1_555 1_555
H16_3 C17_3 1_555 1_555
C18_3 N3_3 1_555 1_555
H17_3 C18_3 1_555 1_555
C19_3 C16_3 1_555 1_555
H18_3 C19_3 1_555 1_555
H19_3 C19_3 1_555 1_555
H20_3 C19_3 1_555 1_555
Cu7 N3_3 1_555 1_555
O5_3 Cu7 1_555 1_555
O10 C22_3 1_555 1_555
O12_2 C23_3 1_555 1_555
O8_2 C23_3 1_555 1_555
C20_3 H21_3 1_555 1_555
H22_3 C20_3 1_555 1_555
C21_3 H23_3 1_555 1_555
H24_3 C21_3 1_555 1_555
C22_3 O5_3 1_555 1_555
C23_3 C21_3 1_555 1_555
C24_3 C20_3 1_555 1_555
O13_2 Cu7 1_555 1_555
N4_3 C16_3 1_555 1_555
C17_3 C18_3 1_555 1_555
C20_3 C22_3 1_555 1_555
C21_3 C24_3 1_555 1_555
Cu5 O1_4 1_555 1_555
O1_4 C4_4 1_555 1_555
O9_2 C4_4 1_555 1_555
O11 C5_4 1_555 1_555
O13_2 C5_4 1_555 1_555
N1_4 Cu5 1_555 1_555
C1_4 C6_4 1_555 1_555
N2_4 C9_4 1_555 1_555
C2_4 H1_4 1_555 1_555
H2_4 C2_4 1_555 1_555
C3_4 H3_4 1_555 1_555
H4_4 C3_4 1_555 1_555
C4_4 C2_4 1_555 1_555
C5_4 C3_4 1_555 1_555
C6_4 H5_4 1_555 1_555
C7_4 N1_4 1_555 1_555
H6_4 C7_4 1_555 1_555
C8_4 C2_4 1_555 1_555
H7_3 C8_4 1_555 1_555
H8_3 C8_4 1_555 1_555
C9_4 C1_4 1_555 1_555
C10_4 C1_4 1_555 1_555
H9_4 C10_4 1_555 1_555
C11_4 N1_4 1_555 1_555
H10_4 C11_4 1_555 1_555
C12_4 C9_4 1_555 1_555
H11_4 C12_4 1_555 1_555
H12_4 C12_4 1_555 1_555
H13_4 C12_4 1_555 1_555
N3_4 C15_4 1_555 1_555
C13_4 C14_4 1_555 1_555
N4_4 N2_4 1_555 1_555
C14_4 H14_4 1_555 1_555
C15_4 C14_4 1_555 1_555
H15_4 C15_4 1_555 1_555
C16_4 C13_4 1_555 1_555
C17_4 C13_4 1_555 1_555
H16_4 C17_4 1_555 1_555
C18_4 N3_4 1_555 1_555
H17_4 C18_4 1_555 1_555
C19_4 C16_4 1_555 1_555
H18_4 C19_4 1_555 1_555
H19_4 C19_4 1_555 1_555
H20_4 C19_4 1_555 1_555
Cu8 N3_4 1_555 1_555
O5_4 Cu8 1_555 1_555
O10_2 C22_4 1_555 1_555
O12 C23_4 1_555 1_555
O14_2 C23_4 1_555 1_555
C20_4 H21_4 1_555 1_555
H22_4 C20_4 1_555 1_555
C21_4 H23_4 1_555 1_555
H24_4 C21_4 1_555 1_555
C22_4 O5_4 1_555 1_555
C23_4 C21_4 1_555 1_555
C24_4 C20_4 1_555 1_555
H25_3 C24_4 1_555 1_555
H26_3 C24_4 1_555 1_555
C3_4 C8_4 1_555 1_555
C6_4 C7_4 1_555 1_555
C10_4 C11_4 1_555 1_555
N4_4 C16_4 1_555 1_555
C17_4 C18_4 1_555 1_555
C20_4 C22_4 1_555 1_555
C21_4 C24_4 1_555 1_555

#END
