
###############################################################################
#
# This file contains modified crystal structure data generated from the
# MOF subset of the Cambridge Structural Database (CSD) v543 
# hosted by the Cambridge Crystallographic Data Centre (CCDC).
#
# This work is licensed under the Creative Commons
# Attribution-NonCommercial-ShareAlike 4.0 International License.
# To view a copy of this license, visit
# http://creativecommons.org/licenses/by-nc-sa/4.0/
# or send a letter to
# Creative Commons, PO Box 1866, Mountain View, CA 94042, USA.
#
# CIF created using the CSD Python API on 29 September 2022
# The structure has been converted into the P1 space group
# The structure has a 3D framework
# The original CSD entry RIQCUS is in the monoclinic crystal system
# The framework has been calculated to contain at least 10.0% void space
# The void calculation uses a probe of radius 1.32A, grid spacing 0.4
# H atom positions have been added when not included in the experimental data
#
###############################################################################

data_RIQCUS
_chemical_formula_moiety         '(C84 H68 N10 O34 Zn8)n'
_symmetry_cell_setting           triclinic
_symmetry_space_group_name_H-M   'P 1'
_symmetry_Int_Tables_number      1
_space_group_name_Hall           'P 1'
loop_
_symmetry_equiv_pos_site_id
_symmetry_equiv_pos_as_xyz
1 x,y,z
_cell_length_a                   10.183(2)
_cell_length_b                   28.297(6)
_cell_length_c                   11.392(3)
_cell_angle_alpha                90
_cell_angle_beta                 112.610(5)
_cell_angle_gamma                90
_cell_volume                     3030.3
loop_
_atom_site_label
_atom_site_type_symbol
_atom_site_fract_x
_atom_site_fract_y
_atom_site_fract_z
_atom_site_U_iso_or_equiv
_atom_site_thermal_displace_type
N3 N 0.180(4) 0.3986(12) -0.000(4) 0.0260 Uiso
C40 C 0.068(7) 0.3888(17) 0.023(6) 0.0440 Uiso
C42 C 0.305(6) 0.4156(19) 0.107(6) 0.0680 Uiso
H30 H 0.3421 0.3907 0.1680 0.1010 Uiso
H31 H 0.3764 0.4254 0.0762 0.1010 Uiso
H32 H 0.2788 0.4420 0.1463 0.1010 Uiso
O18 O 0.042(3) 0.3945(8) 0.114(3) 0.0130 Uiso
N5 N 0.034(4) 0.3470(12) 0.332(3) 0.0290 Uiso
N2 N 0.466(4) 0.8470(12) 0.168(3) 0.0290 Uiso
C14 C 0.377(5) 0.8822(13) 0.105(4) 0.0150 Uiso
H7 H 0.3851 0.9103 0.1497 0.0180 Uiso
C15 C 0.447(5) 0.8067(16) 0.110(5) 0.0400 Uiso
H8 H 0.5045 0.7813 0.1506 0.0480 Uiso
Zn10 Zn 0.6154(6) 0.85648(16) 0.3487(5) 0.0154 Uiso
Zn2 Zn 0.1154(6) 0.64352(16) 0.8487(5) 0.0154 Uiso
O1 O 0.087(3) 0.6975(8) 0.958(3) 0.0080 Uiso
O24 O 0.264(3) 0.6829(9) 0.807(3) 0.0170 Uiso
O26 O 0.209(3) 0.5803(8) 0.824(3) 0.0170 Uiso
O13 O 0.871(3) 0.2053(10) 0.255(3) 0.0260 Uiso
O15 O 0.935(3) 0.1335(8) 0.243(2) 0.0100 Uiso
O16 O 0.711(3) 0.2988(10) 0.872(3) 0.0290 Uiso
C26 C 0.902(5) 0.2605(13) 0.862(4) 0.0110 Uiso
C27 C 0.836(5) 0.2910(14) 0.935(4) 0.0170 Uiso
C28 C 0.743(5) 0.1628(14) 0.069(4) 0.0230 Uiso
C31 C 0.887(5) 0.2125(13) 0.687(4) 0.0140 Uiso
H19 H 0.8317 0.1959 0.6148 0.0170 Uiso
C32 C 0.661(5) 0.2001(15) 0.014(4) 0.0230 Uiso
H20 H 0.6732 0.2291 0.0552 0.0280 Uiso
C34 C 0.717(5) 0.1190(13) 0.008(4) 0.0120 Uiso
H22 H 0.7646 0.0919 0.0489 0.0150 Uiso
C36 C 0.864(4) 0.1708(14) 0.205(4) 0.0120 Uiso
C37 C 0.826(5) 0.2351(14) 0.756(4) 0.0250 Uiso
H23 H 0.7278 0.2335 0.7308 0.0300 Uiso
H26 H 0.9950 0.3747 0.9550 0.0530 Uiso
Zn5 Zn 0.5789(6) 0.34204(15) 0.9041(5) 0.0139 Uiso
O19 O 0.714(3) 0.3980(9) 0.975(3) 0.0170 Uiso
Zn1 Zn 0.9211(6) 0.84204(15) 0.5959(5) 0.0139 Uiso
O3 O 0.983(3) 0.8302(9) 0.465(3) 0.0210 Uiso
O4 O 0.786(3) 0.8980(9) 0.525(3) 0.0170 Uiso
O7 O 0.764(3) 0.8171(9) 0.307(3) 0.0170 Uiso
N1 N 0.820(4) 0.6014(12) 0.000(4) 0.0260 Uiso
C4 C 0.882(5) 0.7656(12) 0.161(4) 0.0200 Uiso
H1 H 0.7832 0.7657 0.1302 0.0240 Uiso
C5 C 0.955(4) 0.7862(12) 0.273(4) 0.0040 Uiso
C8 C 0.947(5) 0.7444(14) 0.089(5) 0.0190 Uiso
H4 H 0.8922 0.7331 0.0084 0.0230 Uiso
C10 C 0.902(6) 0.8115(17) 0.357(5) 0.0390 Uiso
C13 C 0.996(4) 0.9671(12) 0.595(4) -0.0010 Uiso
C16 C 0.914(6) 0.9979(17) 0.373(5) 0.0420 Uiso
H9 H 0.8498 0.9941 0.2895 0.0500 Uiso
C17 C 0.915(6) 0.9648(18) 0.472(5) 0.0500 Uiso
C19 C 0.800(7) 0.613(2) 0.121(6) 0.0680 Uiso
H11 H 0.8908 0.6163 0.1897 0.1020 Uiso
H12 H 0.7481 0.5876 0.1408 0.1020 Uiso
H13 H 0.7469 0.6417 0.1108 0.1020 Uiso
O9 O 0.709(3) 0.9197(8) 0.324(3) 0.0170 Uiso
C21 C 0.800(6) 0.9231(17) 0.441(6) 0.0460 Uiso
O22 O 0.789(3) 0.7988(10) 0.628(3) 0.0290 Uiso
H33 H 0.987902 0.941734 0.663795 . .
H25 H 0.0045 0.7187 0.6506 0.0480 Uiso
O2 O 0.371(3) 0.2947(10) 0.755(3) 0.0260 Uiso
O5 O 0.435(3) 0.3665(8) 0.743(2) 0.0100 Uiso
C3 C 0.243(5) 0.3372(14) 0.569(4) 0.0230 Uiso
C7 C 0.161(5) 0.2999(15) 0.514(4) 0.0230 Uiso
H3 H 0.1732 0.2709 0.5552 0.0280 Uiso
C9 C 0.217(5) 0.3810(13) 0.508(4) 0.0120 Uiso
H5 H 0.2646 0.4081 0.5489 0.0150 Uiso
C11 C 0.364(4) 0.3292(14) 0.705(4) 0.0120 Uiso
C13_2 C 0.504(4) 0.4671(12) 0.905(4) -0.0010 Uiso
C14_2 C 0.123(5) 0.3822(13) 0.395(4) 0.0150 Uiso
H7_2 H 0.1149 0.4103 0.3503 0.0180 Uiso
C15_2 C 0.053(5) 0.3067(16) 0.390(5) 0.0400 Uiso
C23 C 0.414(6) 0.5021(17) 0.873(5) 0.0420 Uiso
H17 H 0.3498 0.5059 0.7895 0.0500 Uiso
C24 C 0.415(6) 0.5352(18) 0.972(5) 0.0500 Uiso
C25 C 0.300(6) 0.5769(17) 0.941(6) 0.0460 Uiso
O12 O 0.587(3) 0.8025(8) 0.458(3) 0.0080 Uiso
O14 O 0.483(3) 0.6698(9) 0.965(3) 0.0210 Uiso
C26_2 C 0.598(5) 0.7605(13) 0.638(4) 0.0110 Uiso
N3_2 N 0.320(4) 0.8986(12) 0.500(4) 0.0260 Uiso
C27_2 C 0.664(5) 0.7910(14) 0.565(4) 0.0170 Uiso
C29 C 0.382(5) 0.7344(12) 0.661(4) 0.0200 Uiso
H18 H 0.2832 0.7343 0.6302 0.0240 Uiso
C30 C 0.455(4) 0.7138(12) 0.773(4) 0.0040 Uiso
C31_2 C 0.613(5) 0.7125(13) 0.813(4) 0.0140 Uiso
H19_2 H 0.6683 0.6959 0.8852 0.0170 Uiso
C33 C 0.447(5) 0.7556(14) 0.589(5) 0.0190 Uiso
H21 H 0.3922 0.7669 0.5084 0.0230 Uiso
C35 C 0.402(6) 0.6885(17) 0.857(5) 0.0390 Uiso
C37_2 C 0.674(5) 0.7351(14) 0.744(4) 0.0250 Uiso
H23_2 H 0.7722 0.7335 0.7692 0.0300 Uiso
C40_2 C 0.432(7) 0.8888(17) 0.477(6) 0.0440 Uiso
H26_2 H 0.5050 0.8747 0.5450 0.0530 Uiso
C41 C 0.300(7) 0.887(2) 0.621(6) 0.0680 Uiso
H27 H 0.3908 0.8837 0.6897 0.1020 Uiso
H28 H 0.2481 0.9124 0.6408 0.1020 Uiso
H29 H 0.2469 0.8583 0.6108 0.1020 Uiso
C42_2 C 0.195(6) 0.9156(19) 0.393(6) 0.0680 Uiso
H30_2 H 0.1579 0.8907 0.3320 0.1010 Uiso
H31_2 H 0.1236 0.9254 0.4238 0.1010 Uiso
H32_2 H 0.2212 0.9420 0.3537 0.1010 Uiso
O18_2 O 0.458(3) 0.8945(8) 0.386(3) 0.0130 Uiso
H33_2 H 0.512098 0.441734 0.836205 . .
O10 O 0.214(3) 0.1020(9) 0.475(3) 0.0170 Uiso
C22 C 0.004(4) 0.0329(12) 0.405(4) -0.0010 Uiso
C23_2 C 0.086(6) 0.0021(17) 0.627(5) 0.0420 Uiso
H17_2 H 0.1502 0.0059 0.7105 0.0500 Uiso
C24_2 C 0.085(6) 0.0352(18) 0.528(5) 0.0500 Uiso
O11 O 0.291(3) 0.0803(8) 0.676(3) 0.0170 Uiso
C25_2 C 0.200(6) 0.0769(17) 0.559(6) 0.0460 Uiso
Zn3 Zn 0.0789(6) 0.15796(15) 0.4041(5) 0.0139 Uiso
O14_2 O 0.017(3) 0.1698(9) 0.535(3) 0.0210 Uiso
O17 O 0.236(3) 0.1829(9) 0.693(3) 0.0170 Uiso
N3_3 N 0.180(4) 0.3986(12) 1.000(4) 0.0260 Uiso
C29_2 C 0.118(5) 0.2344(12) 0.839(4) 0.0200 Uiso
H18_2 H 0.2168 0.2343 0.8698 0.0240 Uiso
C30_2 C 0.045(4) 0.2138(12) 0.727(4) 0.0040 Uiso
C33_2 C 0.053(5) 0.2556(14) 0.911(5) 0.0190 Uiso
H21_2 H 0.1078 0.2669 0.9916 0.0230 Uiso
C35_2 C 0.098(6) 0.1885(17) 0.643(5) 0.0390 Uiso
C41_2 C 0.200(7) 0.387(2) 0.879(6) 0.0680 Uiso
H27_2 H 0.1092 0.3837 0.8103 0.1020 Uiso
H28_2 H 0.2519 0.4124 0.8592 0.1020 Uiso
H29_2 H 0.2531 0.3583 0.8892 0.1020 Uiso
Zn8 Zn 0.3846(6) 0.14352(16) 0.6513(5) 0.0154 Uiso
O21 O 0.211(3) 0.2012(10) 0.372(3) 0.0290 Uiso
H34 H 0.0120975 0.0582665 0.336205 . .
O2_2 O 0.129(3) 0.7947(10) 0.745(3) 0.0260 Uiso
O5_2 O 0.065(3) 0.8665(8) 0.757(2) 0.0100 Uiso
O6 O 0.289(3) 0.7012(10) 0.128(3) 0.0290 Uiso
C1 C 0.098(5) 0.7395(13) 0.138(4) 0.0110 Uiso
C2 C 0.164(5) 0.7090(14) 0.065(4) 0.0170 Uiso
C3_2 C 0.257(5) 0.8372(14) 0.931(4) 0.0230 Uiso
C6 C 0.113(5) 0.7875(13) 0.313(4) 0.0140 Uiso
H2 H 0.1683 0.8041 0.3852 0.0170 Uiso
C7_2 C 0.339(5) 0.7999(15) 0.986(4) 0.0230 Uiso
H3_2 H 0.3268 0.7709 0.9448 0.0280 Uiso
C9_2 C 0.283(5) 0.8810(13) 0.992(4) 0.0120 Uiso
H5_2 H 0.2354 0.9081 0.9511 0.0150 Uiso
C11_2 C 0.136(4) 0.8292(14) 0.795(4) 0.0120 Uiso
C12 C 0.174(5) 0.7649(14) 0.244(4) 0.0250 Uiso
H6 H 0.2722 0.7665 0.2692 0.0300 Uiso
H10 H 0.0050 0.6253 0.0450 0.0530 Uiso
Zn6 Zn 0.4211(6) 0.65796(15) 0.0959(5) 0.0139 Uiso
O20 O 0.286(3) 0.6020(9) 0.025(3) 0.0170 Uiso
Zn4 Zn 0.8846(6) 0.35648(16) 0.1513(5) 0.0154 Uiso
O12_2 O 0.913(3) 0.3025(8) 0.042(3) 0.0080 Uiso
O23 O 0.736(3) 0.3171(9) 0.193(3) 0.0170 Uiso
O25 O 0.791(3) 0.4197(8) 0.176(3) 0.0170 Uiso
N4 N 0.534(4) 0.1530(12) 0.832(3) 0.0290 Uiso
C38 C 0.623(5) 0.1178(13) 0.895(4) 0.0150 Uiso
H24 H 0.6149 0.0897 0.8503 0.0180 Uiso
C39 C 0.553(5) 0.1933(16) 0.890(5) 0.0400 Uiso
H25_2 H 0.4955 0.2187 0.8494 0.0480 Uiso
N1_2 N 0.820(4) 0.6014(12) 1.000(4) 0.0260 Uiso
C18 C 0.932(7) 0.6112(17) 0.977(6) 0.0440 Uiso
C20 C 0.695(6) 0.5844(19) 0.893(6) 0.0680 Uiso
H14 H 0.6579 0.6093 0.8320 0.1010 Uiso
H15 H 0.6236 0.5746 0.9238 0.1010 Uiso
H16 H 0.7212 0.5580 0.8537 0.1010 Uiso
O8 O 0.958(3) 0.6055(8) 0.886(3) 0.0130 Uiso
N6 N 0.966(4) 0.6530(12) 0.668(3) 0.0290 Uiso
O1_2 O 0.413(3) 0.1975(8) 0.542(3) 0.0080 Uiso
O3_2 O 0.517(3) 0.3302(9) 0.035(3) 0.0210 Uiso
C1_2 C 0.402(5) 0.2395(13) 0.362(4) 0.0110 Uiso
N1_3 N 0.680(4) 0.1014(12) 0.500(4) 0.0260 Uiso
C2_2 C 0.336(5) 0.2090(14) 0.435(4) 0.0170 Uiso
C4_2 C 0.618(5) 0.2656(12) 0.339(4) 0.0200 Uiso
H1_2 H 0.7168 0.2657 0.3698 0.0240 Uiso
C5_2 C 0.545(4) 0.2862(12) 0.227(4) 0.0040 Uiso
C6_2 C 0.387(5) 0.2875(13) 0.187(4) 0.0140 Uiso
H2_2 H 0.3317 0.3041 0.1148 0.0170 Uiso
C8_2 C 0.553(5) 0.2444(14) 0.411(5) 0.0190 Uiso
H4_2 H 0.6078 0.2331 0.4916 0.0230 Uiso
C10_2 C 0.598(6) 0.3115(17) 0.143(5) 0.0390 Uiso
C12_2 C 0.326(5) 0.2649(14) 0.256(4) 0.0250 Uiso
H6_2 H 0.2278 0.2665 0.2308 0.0300 Uiso
C16_2 C 0.586(6) 0.4979(17) 0.127(5) 0.0420 Uiso
H9_2 H 0.6502 0.4941 0.2105 0.0500 Uiso
C17_2 C 0.585(6) 0.4648(18) 0.028(5) 0.0500 Uiso
C18_2 C 0.568(7) 0.1112(17) 0.523(6) 0.0440 Uiso
H10_2 H 0.4950 0.1253 0.4550 0.0530 Uiso
C19_2 C 0.700(7) 0.113(2) 0.379(6) 0.0680 Uiso
H11_2 H 0.6092 0.1163 0.3103 0.1020 Uiso
H12_2 H 0.7519 0.0876 0.3592 0.1020 Uiso
H13_2 H 0.7531 0.1417 0.3892 0.1020 Uiso
C20_2 C 0.805(6) 0.0844(19) 0.607(6) 0.0680 Uiso
H14_2 H 0.8421 0.1093 0.6680 0.1010 Uiso
H15_2 H 0.8764 0.0746 0.5762 0.1010 Uiso
H16_2 H 0.7788 0.0580 0.6463 0.1010 Uiso
O8_2 O 0.542(3) 0.1055(8) 0.614(3) 0.0130 Uiso
C21_2 C 0.700(6) 0.4231(17) 0.059(6) 0.0460 Uiso
C22_2 C 0.496(4) 0.5329(12) 0.095(4) -0.0010 Uiso
O13_2 O 0.629(3) 0.7053(10) 0.245(3) 0.0260 Uiso
O15_2 O 0.565(3) 0.6335(8) 0.257(2) 0.0100 Uiso
C28_2 C 0.757(5) 0.6628(14) 0.431(4) 0.0230 Uiso
C32_2 C 0.839(5) 0.7001(15) 0.486(4) 0.0230 Uiso
H20_2 H 0.8268 0.7291 0.4448 0.0280 Uiso
C34_2 C 0.783(5) 0.6190(13) 0.492(4) 0.0120 Uiso
H22_2 H 0.7354 0.5919 0.4511 0.0150 Uiso
C36_2 C 0.636(4) 0.6708(14) 0.295(4) 0.0120 Uiso
C38_2 C 0.877(5) 0.6178(13) 0.605(4) 0.0150 Uiso
H24_2 H 0.8851 0.5897 0.6497 0.0180 Uiso
C39_2 C 0.947(5) 0.6933(16) 0.610(5) 0.0400 Uiso
H34_2 H 0.487902 0.558266 0.163795 . .
H8_2 H 0.9955 0.2813 0.3494 0.0480 Uiso
loop_
_geom_bond_atom_site_label_1
_geom_bond_atom_site_label_2
_geom_bond_site_symmetry_1
_geom_bond_site_symmetry_2
N3 C40 1_555 1_555
C42 N3 1_555 1_555
H30 C42 1_555 1_555
H31 C42 1_555 1_555
H32 C42 1_555 1_555
C40 O18 1_555 1_555
N2 C14 1_555 1_555
H7 C14 1_555 1_555
C15 N2 1_555 1_555
H8 C15 1_555 1_555
Zn10 N2 1_555 1_555
Zn2 O1 1_555 1_555
O24 Zn2 1_555 1_555
O26 Zn2 1_555 1_555
O16 C27 1_555 1_555
C26 C27 1_555 1_555
C28 C32 1_555 1_555
H19 C31 1_555 1_555
C32 H20 1_555 1_555
C34 C28 1_555 1_555
H22 C34 1_555 1_555
C36 O13 1_555 1_555
C37 C26 1_555 1_555
H23 C37 1_555 1_555
Zn5 O16 1_555 1_555
O15 C36 1_555 1_555
C28 C36 1_555 1_555
C31 C37 1_555 1_555
Zn5 O19 1_555 1_555
O3 Zn1 1_555 1_555
O4 Zn1 1_555 1_555
O7 C10 1_555 1_555
C4 H1 1_555 1_555
C5 C4 1_555 1_555
H4 C8 1_555 1_555
C10 O3 1_555 1_555
C13 C17 1_555 1_555
C16 H9 1_555 1_555
C17 C16 1_555 1_555
C19 N1 1_555 1_555
H11 C19 1_555 1_555
H12 C19 1_555 1_555
H13 C19 1_555 1_555
O9 C21 1_555 1_555
C21 O4 1_555 1_555
Zn10 O4 1_555 1_555
O22 Zn1 1_555 1_555
O7 Zn10 1_555 1_555
C4 C8 1_555 1_555
C5 C10 1_555 1_555
C17 C21 1_555 1_555
O9 Zn10 1_555 1_555
C13 H33 1_555 1_555
Zn5 O2 1_555 1_555
O2 C11 1_555 1_555
O5 Zn5 1_555 1_555
N5 C14_2 1_555 1_555
C3 C7 1_555 1_555
C7 H3 1_555 1_555
C9 C3 1_555 1_555
H5 C9 1_555 1_555
C11 O5 1_555 1_555
C14_2 C9 1_555 1_555
H7_2 C14_2 1_555 1_555
C15_2 N5 1_555 1_555
C23 C13_2 1_555 1_555
H17 C23 1_555 1_555
O26 C25 1_555 1_555
C25 C24 1_555 1_555
Zn10 O12 1_555 1_555
O12 C27_2 1_555 1_555
O22 C27_2 1_555 1_555
C26_2 C27_2 1_555 1_555
O24 C35 1_555 1_555
N3_2 C40_2 1_555 1_555
C29 H18 1_555 1_555
C30 C29 1_555 1_555
C31_2 C30 1_555 1_555
H19_2 C31_2 1_555 1_555
C33 C26_2 1_555 1_555
H21 C33 1_555 1_555
C35 O14 1_555 1_555
C37_2 C26_2 1_555 1_555
H23_2 C37_2 1_555 1_555
C40_2 H26_2 1_555 1_555
C41 N3_2 1_555 1_555
H27 C41 1_555 1_555
H28 C41 1_555 1_555
H29 C41 1_555 1_555
C42_2 N3_2 1_555 1_555
H30_2 C42_2 1_555 1_555
H31_2 C42_2 1_555 1_555
H32_2 C42_2 1_555 1_555
O18_2 Zn10 1_555 1_555
C3 C11 1_555 1_555
C7 C15_2 1_555 1_555
C23 C24 1_555 1_555
C29 C33 1_555 1_555
C30 C35 1_555 1_555
C31_2 C37_2 1_555 1_555
C40_2 O18_2 1_555 1_555
C13_2 H33_2 1_555 1_555
O10 C25_2 1_555 1_555
H17_2 C23_2 1_555 1_555
C24_2 C22 1_555 1_555
O11 C25_2 1_555 1_555
C25_2 C24_2 1_555 1_555
Zn3 O10 1_555 1_555
O14_2 Zn3 1_555 1_555
O17 C35_2 1_555 1_555
C29_2 H18_2 1_555 1_555
C30_2 C29_2 1_555 1_555
H21_2 C33_2 1_555 1_555
C35_2 O14_2 1_555 1_555
C41_2 N3_3 1_555 1_555
H27_2 C41_2 1_555 1_555
H28_2 C41_2 1_555 1_555
H29_2 C41_2 1_555 1_555
Zn8 O10 1_555 1_555
O21 Zn3 1_555 1_555
C23_2 C24_2 1_555 1_555
O11 Zn8 1_555 1_555
O17 Zn8 1_555 1_555
C29_2 C33_2 1_555 1_555
C30_2 C35_2 1_555 1_555
C22 H34 1_555 1_555
O2_2 C11_2 1_555 1_555
O6 C2 1_555 1_555
C1 C2 1_555 1_555
C3_2 C7_2 1_555 1_555
H2 C6 1_555 1_555
C7_2 H3_2 1_555 1_555
C9_2 C3_2 1_555 1_555
H5_2 C9_2 1_555 1_555
C11_2 O5_2 1_555 1_555
C12 C1 1_555 1_555
H6 C12 1_555 1_555
Zn6 O6 1_555 1_555
C3_2 C11_2 1_555 1_555
C6 C12 1_555 1_555
Zn6 O20 1_555 1_555
Zn4 O12_2 1_555 1_555
O23 Zn4 1_555 1_555
O25 Zn4 1_555 1_555
N4 C38 1_555 1_555
H24 C38 1_555 1_555
C39 N4 1_555 1_555
H25_2 C39 1_555 1_555
Zn8 N4 1_555 1_555
N1_2 C18 1_555 1_555
C20 N1_2 1_555 1_555
H14 C20 1_555 1_555
H15 C20 1_555 1_555
H16 C20 1_555 1_555
C18 O8 1_555 1_555
Zn8 O1_2 1_555 1_555
O1_2 C2_2 1_555 1_555
O21 C2_2 1_555 1_555
C1_2 C2_2 1_555 1_555
O23 C10_2 1_555 1_555
N1_3 C18_2 1_555 1_555
C4_2 H1_2 1_555 1_555
C5_2 C4_2 1_555 1_555
C6_2 C5_2 1_555 1_555
H2_2 C6_2 1_555 1_555
C8_2 C1_2 1_555 1_555
H4_2 C8_2 1_555 1_555
C10_2 O3_2 1_555 1_555
C12_2 C1_2 1_555 1_555
H6_2 C12_2 1_555 1_555
C16_2 H9_2 1_555 1_555
C17_2 C16_2 1_555 1_555
C18_2 H10_2 1_555 1_555
C19_2 N1_3 1_555 1_555
H11_2 C19_2 1_555 1_555
H12_2 C19_2 1_555 1_555
H13_2 C19_2 1_555 1_555
C20_2 N1_3 1_555 1_555
H14_2 C20_2 1_555 1_555
H15_2 C20_2 1_555 1_555
H16_2 C20_2 1_555 1_555
O8_2 Zn8 1_555 1_555
O25 C21_2 1_555 1_555
C22_2 C16_2 1_555 1_555
O13_2 Zn6 1_555 1_555
O15_2 Zn6 1_555 1_555
N6 C38_2 1_555 1_555
C28_2 C32_2 1_555 1_555
C32_2 H20_2 1_555 1_555
C34_2 C28_2 1_555 1_555
H22_2 C34_2 1_555 1_555
C36_2 O13_2 1_555 1_555
C38_2 C34_2 1_555 1_555
H24_2 C38_2 1_555 1_555
C39_2 N6 1_555 1_555
C4_2 C8_2 1_555 1_555
C5_2 C10_2 1_555 1_555
C6_2 C12_2 1_555 1_555
C17_2 C21_2 1_555 1_555
C18_2 O8_2 1_555 1_555
O15_2 C36_2 1_555 1_555
C28_2 C36_2 1_555 1_555
C32_2 C39_2 1_555 1_555
C22_2 H34_2 1_555 1_555

#END
