
###############################################################################
#
# This file contains modified crystal structure data generated from the
# MOF subset of the Cambridge Structural Database (CSD) v543 
# hosted by the Cambridge Crystallographic Data Centre (CCDC).
#
# This work is licensed under the Creative Commons
# Attribution-NonCommercial-ShareAlike 4.0 International License.
# To view a copy of this license, visit
# http://creativecommons.org/licenses/by-nc-sa/4.0/
# or send a letter to
# Creative Commons, PO Box 1866, Mountain View, CA 94042, USA.
#
# CIF created using the CSD Python API on 29 September 2022
# The structure has been converted into the P1 space group
# The structure has a 3D framework
# The original CSD entry RIVDEF is in the hexagonal crystal system
# The original CSD entry RIVDEF is in a Sohncke space group
# The framework has been calculated to contain at least 10.0% void space
# The void calculation uses a probe of radius 1.32A, grid spacing 0.4
# The framework is charged, counterions have been retained in the structure
#
###############################################################################

data_RIVDEF
_chemical_formula_moiety         '(C48 H72 B12 Cd6 N16 O24)n'
_symmetry_cell_setting           triclinic
_symmetry_space_group_name_H-M   'P 1'
_symmetry_Int_Tables_number      1
_space_group_name_Hall           'P 1'
loop_
_symmetry_equiv_pos_site_id
_symmetry_equiv_pos_as_xyz
1 x,y,z
_cell_length_a                   11.477(3)
_cell_length_b                   11.477(3)
_cell_length_c                   22.585(4)
_cell_angle_alpha                90
_cell_angle_beta                 90
_cell_angle_gamma                120
_cell_volume                     2576.37
loop_
_atom_site_label
_atom_site_type_symbol
_atom_site_fract_x
_atom_site_fract_y
_atom_site_fract_z
C3 C 0.0381(6) 0.5503(6) 0.0318(3)
Cd2 Cd 0.23490(1) 0.4699(1) 0.2500
N4 N 0.0989(6) 0.4913(8) 0.1751(3)
C6 C 0.0381(6) 0.4878(8) 0.1349(3)
N2 N 0.0989(6) 0.6076(6) 0.9916(3)
Cd3 Cd 0.23500(10) 0.76510(1) 0.9167
C1 C 0.9665(7) 0.4832(4) 0.0833
C2 C 0.8251(7) 0.4125(4) 0.0833
N1 N 0.7114(7) 0.3557(3) 0.0833
O1 O 0.2938(4) 0.0231(5) 0.0529(2)
O2 O 0.4817(5) 0.1222(4) 0.0013(2)
B1 B 0.3523(9) 0.00000 0.0000
Cd1 Cd 0.4699(1) 0.23490(1) 0.0833
N3 N 0.4913(8) 0.0989(6) 0.1583(3)
N5 N 0.4913(8) 0.3924(6) 0.0084(3)
O3 O 0.2938(4) 0.2707(6) 0.1138(2)
O4 O 0.4817(5) 0.3595(6) 0.1654(2)
B1_2 B 0.3523(9) 1.00000 0.0000
C4 C 0.1718(7) 0.9251(9) 0.0705(4)
H1 H 0.1422(7) 0.9568(9) 0.1100(4)
H2 H 0.1760(7) 0.8349(9) 0.0799(4)
H3 H 0.0993(7) 0.9047(9) 0.0359(4)
C8 C 0.4235(11) 0.8464(7) 0.0446(4)
H10 H 0.4177(11) 0.7514(7) 0.0351(4)
H11 H 0.3739(11) 0.8394(7) 0.0862(4)
H12 H 0.5277(11) 0.9244(7) 0.0474(4)
B1_3 B 0.3523(9) 1.00000 1.0000
O5 O 0.2707(6) 0.9769(5) 0.9471(2)
O6 O 0.3595(6) 0.8778(4) 0.9987(2)
C3_2 C 0.4878(8) 0.0381(6) 0.1985(3)
Cd2_2 Cd 0.76500(10) 0.23490(1) 0.4167
N4_2 N 0.6076(10) 0.0989(6) 0.3417(3)
C6_2 C 0.5503(10) 0.0381(6) 0.3015(3)
C1_2 C 0.4833(8) 0.9665(7) 0.2500
C2_2 C 0.4126(8) 0.8251(7) 0.2500
N1_2 N 0.3557(8) 0.7114(7) 0.2500
O1_2 O 0.2707(6) 0.2938(4) 0.2196(2)
O2_2 O 0.3595(6) 0.4817(5) 0.1680(2)
B1_4 B 0.35230(90) 0.3523(9) 0.1667
C4_2 C 0.2467(11) 0.1718(7) 0.2372(4)
C5 C 0.4235(11) 0.5771(8) 0.1221(4)
H1_2 H 0.1854(11) 0.1422(7) 0.2767(4)
H2_2 H 0.3411(11) 0.1760(7) 0.2466(4)
H3_2 H 0.1946(11) 0.0993(7) 0.2026(4)
H4 H 0.4177(11) 0.6663(8) 0.1316(4)
H5 H 0.3739(11) 0.5345(8) 0.0805(4)
H6 H 0.5277(11) 0.6033(8) 0.1193(4)
N3_2 N 0.3924(10) 0.4913(8) 0.3249(3)
O3_2 O 0.0231(7) 0.2938(4) 0.2804(2)
O4_2 O 0.1222(8) 0.4817(5) 0.3320(2)
C7 C 0.1718(14) 0.2467(11) 0.0962(4)
H7 H 0.1422(14) 0.1854(11) 0.0567(4)
H8 H 0.1760(14) 0.3411(11) 0.0868(4)
H9 H 0.0993(14) 0.1946(11) 0.1308(4)
C8_2 C 0.5771(13) 0.4235(11) 0.2113(4)
H10_2 H 0.6663(13) 0.4177(11) 0.2018(4)
H11_2 H 0.5345(13) 0.3739(11) 0.2529(4)
H12_2 H 0.6033(13) 0.5277(11) 0.2141(4)
B1_5 B 0.00000 0.6477(9) 0.8333
C4_3 C 0.0749(9) 0.8282(7) 0.7628(4)
H1_3 H 0.0432(9) 0.8578(7) 0.7233(4)
H2_3 H 0.1651(9) 0.8240(7) 0.7534(4)
H3_3 H 0.0953(9) 0.9007(7) 0.7974(4)
O5_2 O 0.0231(5) 0.7293(6) 0.8862(2)
O6_2 O 0.1222(4) 0.6405(6) 0.8346(2)
C8_3 C 0.1536(7) 0.5765(11) 0.7887(4)
H10_3 H 0.2486(7) 0.5823(11) 0.7982(4)
H11_3 H 0.1606(7) 0.6261(11) 0.7471(4)
H12_3 H 0.0756(7) 0.4723(11) 0.7859(4)
C1_3 C 0.5168(4) 0.0335(7) 0.7500
C2_3 C 0.5875(4) 0.1749(7) 0.7500
N1_3 N 0.6443(3) 0.2886(7) 0.7500
O1_3 O 0.9769(5) 0.7062(4) 0.7804(2)
O2_3 O 0.8778(4) 0.5183(5) 0.8320(2)
B1_6 B 1.00000 0.6477(9) 0.8333
C5_2 C 0.8464(7) 0.4229(8) 0.8779(4)
H4_2 H 0.7514(7) 0.3337(8) 0.8684(4)
H5_2 H 0.8394(7) 0.4655(8) 0.9195(4)
H6_2 H 0.9244(7) 0.3967(8) 0.8807(4)
Cd1_2 Cd 0.76510(1) 0.5301(1) 0.7500
N3_3 N 0.9011(6) 0.5087(8) 0.6751(3)
N5_2 N 0.6076(6) 0.5087(8) 0.8249(3)
O3_3 O 0.7293(6) 0.7062(4) 0.7196(2)
O4_3 O 0.6405(6) 0.5183(5) 0.6680(2)
C7_2 C 0.9251(9) 0.7533(11) 0.9038(4)
H7_2 H 0.9568(9) 0.8146(11) 0.9433(4)
H8_2 H 0.8349(9) 0.6589(11) 0.9132(4)
H9_2 H 0.9047(9) 0.8054(11) 0.8692(4)
C3_3 C 0.4497(6) 0.9619(6) 0.8015(3)
N2_2 N 0.3924(6) 0.9011(6) 0.8417(3)
Cd2_3 Cd 0.5301(1) 0.76510(1) 0.5833
N4_3 N 0.5087(8) 0.9011(6) 0.6583(3)
C6_3 C 0.5122(8) 0.9619(6) 0.6985(3)
B1_7 B 0.00000 0.35230(90) 0.3333
C4_4 C 0.0749(9) 0.2467(11) 0.4038(4)
H1_4 H 0.0432(9) 0.1854(11) 0.4433(4)
H2_4 H 0.1651(9) 0.3411(11) 0.4132(4)
H3_4 H 0.0953(9) 0.1946(11) 0.3692(4)
C8_4 C 0.1536(7) 0.5771(13) 0.3779(4)
H10_4 H 0.2486(7) 0.6663(13) 0.3684(4)
H11_4 H 0.1606(7) 0.5345(13) 0.4195(4)
H12_4 H 0.0756(7) 0.6033(13) 0.3807(4)
C1_4 C 0.5168(4) 0.4833(8) 0.4166
C2_4 C 0.5875(4) 0.4126(8) 0.4166
N1_4 N 0.6443(3) 0.3557(8) 0.4166
C3_4 C 0.4497(6) 0.4878(8) 0.3651(3)
O1_4 O 0.9769(5) 0.2707(6) 0.3862(2)
O2_4 O 0.8778(4) 0.3595(6) 0.3346(2)
B1_8 B 1.00000 0.35230(90) 0.3333
C5_3 C 0.8464(7) 0.4235(11) 0.2887(4)
H4_3 H 0.7514(7) 0.4177(11) 0.2982(4)
H5_3 H 0.8394(7) 0.3739(11) 0.2471(4)
H6_3 H 0.9244(7) 0.5277(11) 0.2859(4)
N3_4 N 0.9011(6) 0.3924(10) 0.4916(3)
N4_4 N 0.5087(8) 0.6076(10) 0.5084(3)
C6_4 C 0.5122(8) 0.5503(10) 0.4682(3)
O3_4 O 0.7293(6) 0.0231(7) 0.4471(2)
O4_4 O 0.6405(6) 0.1222(8) 0.4987(2)
C7_3 C 0.9251(9) 0.1718(14) 0.2628(4)
H7_3 H 0.9568(9) 0.1422(14) 0.2233(4)
H8_3 H 0.8349(9) 0.1760(14) 0.2534(4)
H9_3 H 0.9047(9) 0.0993(14) 0.2974(4)
C1_5 C 0.4833(8) 0.5168(4) 0.9167
C2_5 C 0.4126(8) 0.5875(4) 0.9167
N1_5 N 0.3557(8) 0.6443(3) 0.9167
C3_5 C 0.4878(8) 0.4497(6) 0.9682(3)
C6_5 C 0.5503(10) 0.5122(8) 0.8651(3)
B1_9 B 0.6477(9) 0.00000 0.5000
C4_5 C 0.8282(7) 0.0749(9) 0.5705(4)
H1_5 H 0.8578(7) 0.0432(9) 0.6100(4)
H2_5 H 0.8240(7) 0.1651(9) 0.5799(4)
H3_5 H 0.9007(7) 0.0953(9) 0.5359(4)
C8_5 C 0.5765(11) 0.1536(7) 0.5446(4)
H10_5 H 0.5823(11) 0.2486(7) 0.5351(4)
H11_5 H 0.6261(11) 0.1606(7) 0.5862(4)
H12_5 H 0.4723(11) 0.0756(7) 0.5474(4)
C1_6 C 0.0335(7) 0.5168(4) 0.5833
C2_6 C 0.1749(7) 0.5875(4) 0.5833
N1_6 N 0.2886(7) 0.6443(3) 0.5833
O1_5 O 0.7062(4) 0.9769(5) 0.5529(2)
O2_5 O 0.5183(5) 0.8778(4) 0.5013(2)
B1_10 B 0.6477(9) 1.00000 0.5000
C5_4 C 0.4229(8) 0.8464(7) 0.4554(4)
H4_4 H 0.3337(8) 0.7514(7) 0.4649(4)
H5_4 H 0.4655(8) 0.8394(7) 0.4138(4)
H6_4 H 0.3967(8) 0.9244(7) 0.4526(4)
O3_5 O 0.7062(4) 0.7293(6) 0.6138(2)
O4_5 O 0.5183(5) 0.6405(6) 0.6654(2)
C7_4 C 0.7533(11) 0.9251(9) 0.4295(4)
H7_4 H 0.8146(11) 0.9568(9) 0.3900(4)
H8_4 H 0.6589(11) 0.8349(9) 0.4201(4)
H9_4 H 0.8054(11) 0.9047(9) 0.4641(4)
C3_6 C 0.9619(6) 0.4497(6) 0.5318(3)
C6_6 C 0.9619(6) 0.5122(8) 0.6349(3)
B1_11 B 0.64770(90) 0.6477(9) 0.6667
C4_6 C 0.7533(11) 0.8282(7) 0.7372(4)
C5_5 C 0.5765(11) 0.4229(8) 0.6221(4)
H1_6 H 0.8146(11) 0.8578(7) 0.7767(4)
H2_6 H 0.6589(11) 0.8240(7) 0.7466(4)
H3_6 H 0.8054(11) 0.9007(7) 0.7026(4)
H4_5 H 0.5823(11) 0.3337(8) 0.6316(4)
H5_5 H 0.6261(11) 0.4655(8) 0.5805(4)
H6_5 H 0.4723(11) 0.3967(8) 0.6193(4)
C7_5 C 0.8282(14) 0.7533(11) 0.5962(4)
H7_5 H 0.8578(14) 0.8146(11) 0.5567(4)
H8_5 H 0.8240(14) 0.6589(11) 0.5868(4)
H9_5 H 0.9007(14) 0.8054(11) 0.6308(4)
C8_6 C 0.4229(13) 0.5765(11) 0.7113(4)
H10_6 H 0.3337(13) 0.5823(11) 0.7018(4)
H11_6 H 0.4655(13) 0.6261(11) 0.7529(4)
H12_6 H 0.3967(13) 0.4723(11) 0.7141(4)
B1_12 B 0.3523(9) 0.00000 1.0000
C5_6 C 0.5771(8) 0.1536(7) 0.9554(4)
H4_6 H 0.6663(8) 0.2486(7) 0.9649(4)
H5_6 H 0.5345(8) 0.1606(7) 0.9138(4)
H6_6 H 0.6033(8) 0.0756(7) 0.9526(4)
C7_6 C 0.2467(11) 0.0749(9) 0.9295(4)
H7_6 H 0.1854(11) 0.0432(9) 0.8900(4)
H8_6 H 0.3411(11) 0.1651(9) 0.9201(4)
H9_6 H 0.1946(11) 0.0953(9) 0.9641(4)
loop_
_geom_bond_atom_site_label_1
_geom_bond_atom_site_label_2
_geom_bond_site_symmetry_1
_geom_bond_site_symmetry_2
Cd2 N4 1_555 1_555
N4 C6 1_555 1_555
Cd3 N2 1_555 1_555
C1 C2 1_555 1_555
C2 N1 1_555 1_555
N1 Cd1 1_555 1_555
O1 B1 1_555 1_555
O2 B1 1_555 1_555
Cd1 O1 1_555 1_555
N3 Cd1 1_555 1_555
N5 Cd1 1_555 1_555
O3 Cd1 1_555 1_555
O4 Cd1 1_555 1_555
O2 Cd1 1_555 1_555
H1 C4 1_555 1_555
H2 C4 1_555 1_555
H3 C4 1_555 1_555
H10 C8 1_555 1_555
H11 C8 1_555 1_555
H12 C8 1_555 1_555
B1_3 O5 1_555 1_555
Cd3 O5 1_555 1_555
O6 B1_3 1_555 1_555
Cd3 O6 1_555 1_555
N3 C3_2 1_555 1_555
Cd2_2 N4_2 1_555 1_555
N4_2 C6_2 1_555 1_555
C1_2 C2_2 1_555 1_555
C2_2 N1_2 1_555 1_555
N1_2 Cd2 1_555 1_555
O1_2 B1_4 1_555 1_555
O2_2 B1_4 1_555 1_555
B1_4 O3 1_555 1_555
C4_2 O1_2 1_555 1_555
C5 O2_2 1_555 1_555
H1_2 C4_2 1_555 1_555
H2_2 C4_2 1_555 1_555
H3_2 C4_2 1_555 1_555
H4 C5 1_555 1_555
H5 C5 1_555 1_555
H6 C5 1_555 1_555
Cd2 O1_2 1_555 1_555
N3_2 Cd2 1_555 1_555
O3_2 Cd2 1_555 1_555
O4_2 Cd2 1_555 1_555
O3 C7 1_555 1_555
C7 H7 1_555 1_555
H8 C7 1_555 1_555
H9 C7 1_555 1_555
O4 B1_4 1_555 1_555
C8_2 O4 1_555 1_555
H10_2 C8_2 1_555 1_555
H11_2 C8_2 1_555 1_555
H12_2 C8_2 1_555 1_555
O2_2 Cd2 1_555 1_555
B1_5 O5_2 1_555 1_555
H1_3 C4_3 1_555 1_555
H2_3 C4_3 1_555 1_555
H3_3 C4_3 1_555 1_555
Cd3 O5_2 1_555 1_555
O6_2 B1_5 1_555 1_555
C8_3 O6_2 1_555 1_555
H10_3 C8_3 1_555 1_555
H11_3 C8_3 1_555 1_555
H12_3 C8_3 1_555 1_555
Cd3 O6_2 1_555 1_555
C1_3 C2_3 1_555 1_555
C2_3 N1_3 1_555 1_555
N1_3 Cd1_2 1_555 1_555
O1_3 B1_6 1_555 1_555
O2_3 B1_6 1_555 1_555
C5_2 O2_3 1_555 1_555
H4_2 C5_2 1_555 1_555
H5_2 C5_2 1_555 1_555
H6_2 C5_2 1_555 1_555
Cd1_2 O1_3 1_555 1_555
N3_3 Cd1_2 1_555 1_555
N5_2 Cd1_2 1_555 1_555
O3_3 Cd1_2 1_555 1_555
O4_3 Cd1_2 1_555 1_555
C7_2 H7_2 1_555 1_555
H8_2 C7_2 1_555 1_555
H9_2 C7_2 1_555 1_555
O2_3 Cd1_2 1_555 1_555
N2_2 C3_3 1_555 1_555
Cd2_3 N4_3 1_555 1_555
N4_3 C6_3 1_555 1_555
Cd3 N2_2 1_555 1_555
B1_7 O3_2 1_555 1_555
H1_4 C4_4 1_555 1_555
H2_4 C4_4 1_555 1_555
H3_4 C4_4 1_555 1_555
O4_2 B1_7 1_555 1_555
C8_4 O4_2 1_555 1_555
H10_4 C8_4 1_555 1_555
H11_4 C8_4 1_555 1_555
H12_4 C8_4 1_555 1_555
C1_4 C2_4 1_555 1_555
C2_4 N1_4 1_555 1_555
N1_4 Cd2_2 1_555 1_555
C3_4 C1_4 1_555 1_555
N3_2 C3_4 1_555 1_555
O1_4 B1_8 1_555 1_555
O2_4 B1_8 1_555 1_555
C5_3 O2_4 1_555 1_555
H4_3 C5_3 1_555 1_555
H5_3 C5_3 1_555 1_555
H6_3 C5_3 1_555 1_555
Cd2_2 O1_4 1_555 1_555
N3_4 Cd2_2 1_555 1_555
Cd2_3 N4_4 1_555 1_555
N4_4 C6_4 1_555 1_555
C6_4 C1_4 1_555 1_555
O3_4 Cd2_2 1_555 1_555
O4_4 Cd2_2 1_555 1_555
C7_3 H7_3 1_555 1_555
H8_3 C7_3 1_555 1_555
H9_3 C7_3 1_555 1_555
O2_4 Cd2_2 1_555 1_555
C1_5 C2_5 1_555 1_555
C2_5 N1_5 1_555 1_555
N1_5 Cd3 1_555 1_555
C3_5 C1_5 1_555 1_555
N5_2 C6_5 1_555 1_555
C6_5 C1_5 1_555 1_555
B1_9 O3_4 1_555 1_555
H1_5 C4_5 1_555 1_555
H2_5 C4_5 1_555 1_555
H3_5 C4_5 1_555 1_555
O4_4 B1_9 1_555 1_555
C8_5 O4_4 1_555 1_555
H10_5 C8_5 1_555 1_555
H11_5 C8_5 1_555 1_555
H12_5 C8_5 1_555 1_555
C1_6 C2_6 1_555 1_555
C2_6 N1_6 1_555 1_555
N1_6 Cd2_3 1_555 1_555
O1_5 B1_10 1_555 1_555
O2_5 B1_10 1_555 1_555
C5_4 O2_5 1_555 1_555
H4_4 C5_4 1_555 1_555
H5_4 C5_4 1_555 1_555
H6_4 C5_4 1_555 1_555
Cd2_3 O1_5 1_555 1_555
O3_5 Cd2_3 1_555 1_555
O4_5 Cd2_3 1_555 1_555
C7_4 H7_4 1_555 1_555
H8_4 C7_4 1_555 1_555
H9_4 C7_4 1_555 1_555
O2_5 Cd2_3 1_555 1_555
N3_4 C3_6 1_555 1_555
N3_3 C6_6 1_555 1_555
O3_3 B1_11 1_555 1_555
O4_3 B1_11 1_555 1_555
B1_11 O3_5 1_555 1_555
C4_6 O3_3 1_555 1_555
C5_5 O4_3 1_555 1_555
H1_6 C4_6 1_555 1_555
H2_6 C4_6 1_555 1_555
H3_6 C4_6 1_555 1_555
H4_5 C5_5 1_555 1_555
H5_5 C5_5 1_555 1_555
H6_5 C5_5 1_555 1_555
O3_5 C7_5 1_555 1_555
C7_5 H7_5 1_555 1_555
H8_5 C7_5 1_555 1_555
H9_5 C7_5 1_555 1_555
O4_5 B1_11 1_555 1_555
C8_6 O4_5 1_555 1_555
H10_6 C8_6 1_555 1_555
H11_6 C8_6 1_555 1_555
H12_6 C8_6 1_555 1_555
H4_6 C5_6 1_555 1_555
H5_6 C5_6 1_555 1_555
H6_6 C5_6 1_555 1_555
C7_6 H7_6 1_555 1_555
H8_6 C7_6 1_555 1_555
H9_6 C7_6 1_555 1_555

#END
