
###############################################################################
#
# This file contains modified crystal structure data generated from the
# MOF subset of the Cambridge Structural Database (CSD) v543 
# hosted by the Cambridge Crystallographic Data Centre (CCDC).
#
# This work is licensed under the Creative Commons
# Attribution-NonCommercial-ShareAlike 4.0 International License.
# To view a copy of this license, visit
# http://creativecommons.org/licenses/by-nc-sa/4.0/
# or send a letter to
# Creative Commons, PO Box 1866, Mountain View, CA 94042, USA.
#
# CIF created using the CSD Python API on 29 September 2022
# The structure has been converted into the P1 space group
# The structure has a 3D framework
# The original CSD entry ROCBAP is in the monoclinic crystal system
# The framework has been calculated to contain at least 10.0% void space
# The void calculation uses a probe of radius 1.32A, grid spacing 0.4
#
###############################################################################

data_ROCBAP
_chemical_formula_moiety         '(C144 H88 Eu8 O62)n'
_symmetry_cell_setting           triclinic
_symmetry_space_group_name_H-M   'P 1'
_symmetry_Int_Tables_number      1
_space_group_name_Hall           'P 1'
loop_
_symmetry_equiv_pos_site_id
_symmetry_equiv_pos_as_xyz
1 x,y,z
_cell_length_a                   12.4096(5)
_cell_length_b                   21.3850(8)
_cell_length_c                   16.2060(6)
_cell_angle_alpha                90
_cell_angle_beta                 103.343(4)
_cell_angle_gamma                90
_cell_volume                     4184.64
loop_
_atom_site_label
_atom_site_type_symbol
_atom_site_fract_x
_atom_site_fract_y
_atom_site_fract_z
Eu5 Eu 0.47273(3) 0.54765(2) 0.10104(2)
C5 C 0.0352(4) 0.6152(3) 0.2912(3)
C11 C 0.0083(6) 0.5472(4) 0.6365(5)
H6 H 0.061634 0.546449 0.604526
H9 H 0.032768 0.618461 0.416955
C16 C 0.0416(6) 0.5481(3) 0.7258(4)
O11 O 0.3252(4) 0.5590(3) 0.9800(3)
O12 O 0.3740(4) 0.5255(3) 0.8622(3)
C25 C 0.3038(3) 0.5437(2) 0.9023(3)
C26 C 0.1013(3) 0.5473(2) 0.9037(3)
H15 H 0.122103 0.547738 0.962666
C27 C 0.1839(6) 0.5468(3) 0.8554(4)
C29 C 0.1550(6) 0.5464(3) 0.7696(5)
H17 H 0.209773 0.544980 0.739011
O13 O 0.3477(4) 0.5882(3) 0.1726(3)
O14 O 0.3807(4) 0.6046(3) 0.3118(3)
C32 C 0.3173(6) 0.6002(3) 0.2388(5)
C33 C 0.1523(6) 0.6123(4) 0.2999(5)
H18 H 0.199293 0.612351 0.353689
C34 C 0.1253(6) 0.6112(4) 0.1484(5)
H19 H 0.156133 0.609398 0.101318
C35 C 0.1950(6) 0.6095(3) 0.2307(5)
C36 C 0.0123(6) 0.6154(5) 0.1374(5)
Eu3 Eu 0.52727(3) 0.54765(2) 0.39896(2)
Eu8 Eu 0.52727(3) 0.45235(2) 0.89896(2)
Eu6 Eu 0.02727(3) 0.04765(2) 0.39896(2)
O1 O 0.500000 0.4974(3) 0.250000
O2 O 0.4292(4) 0.5598(2) 0.5059(3)
O3 O 0.6748(4) 0.5590(3) 0.5200(3)
O4 O 0.3515(5) 0.5422(2) 0.6117(3)
O5 O 0.6260(4) 0.5255(3) 0.6378(3)
O6 O 0.6523(4) 0.5882(3) 0.3274(3)
O7 O 0.6193(4) 0.6046(3) 0.1882(3)
C1 C 0.3666(6) 0.5770(3) 0.5546(4)
O8 O 0.5573(6) 0.6623(3) 0.4281(5)
H1 H 0.630463 0.672022 0.455050
H2 H 0.555585 0.642729 0.374709
C2 C 0.6962(3) 0.5437(2) 0.5977(3)
C3 C 0.2852(4) 0.7415(3) 0.4744(3)
C4 C 0.3127(3) 0.6401(2) 0.5428(3)
C6 C 0.8987(3) 0.5473(2) 0.5963(3)
H3 H 0.877897 0.547738 0.537334
C7 C 0.6827(6) 0.6002(3) 0.2612(5)
C8 C 0.8161(6) 0.5468(3) 0.6446(4)
C9 C 0.3323(7) 0.6809(4) 0.4832(5)
H4 H 0.377438 0.668602 0.447574
C10 C 0.8477(6) 0.6123(4) 0.2001(5)
H5 H 0.800707 0.612351 0.146311
C12 C 0.8747(6) 0.6112(4) 0.3516(5)
H7 H 0.843867 0.609398 0.398682
C13 C 0.8050(6) 0.6095(3) 0.2693(5)
C14 C 0.8450(6) 0.5464(3) 0.7304(5)
H8 H 0.790227 0.544980 0.760989
C15 C 0.9877(6) 0.6154(5) 0.3626(5)
C17 C 0.2438(10) 0.6574(6) 0.5951(7)
H10 H 0.227366 0.629216 0.634081
C18 C 0.2002(11) 0.7166(7) 0.5886(9)
H11 H 0.159587 0.729381 0.627154
O9 O 0.0708(4) 0.9402(2) 0.4941(3)
O10 O 0.1485(5) 0.9578(2) 0.3883(3)
C19 C 0.1334(6) 0.9230(3) 0.4454(4)
C20 C 0.2148(4) 0.7585(3) 0.5256(3)
C21 C 0.1873(3) 0.8599(2) 0.4572(3)
C22 C 0.1677(7) 0.8191(4) 0.5168(5)
H12 H 0.122562 0.831398 0.552426
C23 C 0.2562(10) 0.8426(6) 0.4049(7)
H13 H 0.272634 0.870784 0.365919
C24 C 0.2998(11) 0.7834(7) 0.4114(9)
H14 H 0.340413 0.770619 0.372846
C28 C 0.9917(6) 0.5472(4) 0.8635(5)
H16 H 0.938366 0.546449 0.895474
C30 C 0.9584(6) 0.5481(3) 0.7742(4)
C31 C 0.9648(4) 0.6152(3) 0.2088(3)
H20 H 0.967232 0.618461 0.083045
O15 O 0.4427(6) 0.6623(3) 0.0719(5)
H21 H 0.369537 0.672022 0.044950
H22 H 0.444415 0.642729 0.125291
Eu7 Eu 0.47273(3) 0.45235(2) 0.60104(2)
O17 O 0.5708(4) 0.4402(2) 0.4941(3)
O18 O 0.4292(4) 0.4402(2) 0.0059(3)
O20 O 0.6485(5) 0.4578(2) 0.3883(3)
O21 O 0.3515(5) 0.4578(2) 0.1117(3)
O22 O 0.3740(4) 0.4745(3) 0.3622(3)
O23 O 0.6260(4) 0.4745(3) 0.1378(3)
O16 O 0.5708(4) 0.5598(2) 0.9941(3)
Eu9 Eu 0.97273(3) 0.95235(2) 0.60104(2)
Eu9_2 Eu 0.02727(3) 0.95235(2) 0.89896(2)
Eu6_2 Eu 0.97273(3) 0.04765(2) 0.10104(2)
C3_2 C 0.7148(4) 0.7415(3) 0.0256(3)
C9_2 C 0.6677(7) 0.6809(4) 0.0168(5)
H4_2 H 0.622562 0.668602 0.052426
O9_2 O 0.9292(4) 0.9402(2) 0.0059(3)
O10_2 O 0.8515(5) 0.9578(2) 0.1117(3)
C19_2 C 0.8666(6) 0.9230(3) 0.0546(4)
C21_2 C 0.8127(3) 0.8599(2) 0.0428(3)
C23_2 C 0.7438(10) 0.8426(6) 0.0951(7)
H13_2 H 0.727366 0.870784 0.134081
C24_2 C 0.7002(11) 0.7834(7) 0.0886(9)
H14_2 H 0.659587 0.770619 0.127154
O4_2 O 0.6485(5) 0.5422(2) 0.8883(3)
C1_2 C 0.6334(6) 0.5770(3) 0.9454(4)
C4_2 C 0.6873(3) 0.6401(2) 0.9572(3)
C17_2 C 0.7562(10) 0.6574(6) 0.9049(7)
H10_2 H 0.772634 0.629216 0.865919
C18_2 C 0.7998(11) 0.7166(7) 0.9114(9)
H11_2 H 0.840413 0.729381 0.872846
C20_2 C 0.7852(4) 0.7585(3) 0.9744(3)
C22_2 C 0.8323(7) 0.8191(4) 0.9832(5)
H12_2 H 0.877438 0.831398 0.947574
O3_2 O 0.1748(4) 0.0590(3) 0.5200(3)
O5_2 O 0.1260(4) 0.0255(3) 0.6378(3)
O6_2 O 0.1523(4) 0.0882(3) 0.3274(3)
O7_2 O 0.1193(4) 0.1046(3) 0.1882(3)
O8_2 O 0.0573(6) 0.1623(3) 0.4281(5)
H1_2 H 0.130463 0.172022 0.455050
H2_2 H 0.055585 0.142729 0.374709
C2_2 C 0.1962(3) 0.0437(2) 0.5977(3)
C5_2 C 0.5352(4) 0.1152(3) 0.2912(3)
C6_2 C 0.3987(3) 0.0473(2) 0.5963(3)
H3_2 H 0.377897 0.047738 0.537334
C7_2 C 0.1827(6) 0.1002(3) 0.2612(5)
C8_2 C 0.3161(6) 0.0468(3) 0.6446(4)
C10_2 C 0.3477(6) 0.1123(4) 0.2001(5)
H5_2 H 0.300707 0.112351 0.146311
C11_2 C 0.5083(6) 0.0472(4) 0.6365(5)
H6_2 H 0.561634 0.046449 0.604526
C12_2 C 0.3747(6) 0.1112(4) 0.3516(5)
H7_2 H 0.343867 0.109398 0.398682
C13_2 C 0.3050(6) 0.1095(3) 0.2693(5)
C14_2 C 0.3450(6) 0.0464(3) 0.7304(5)
H8_2 H 0.290227 0.044980 0.760989
C15_2 C 0.4877(6) 0.1154(5) 0.3626(5)
H9_2 H 0.532768 0.118461 0.416955
C16_2 C 0.5416(6) 0.0481(3) 0.7258(4)
O11_2 O 0.8252(4) 0.0590(3) 0.9800(3)
O12_2 O 0.8740(4) 0.0255(3) 0.8622(3)
C25_2 C 0.8038(3) 0.0437(2) 0.9023(3)
C26_2 C 0.6013(3) 0.0473(2) 0.9037(3)
H15_2 H 0.622103 0.047738 0.962666
C27_2 C 0.6839(6) 0.0468(3) 0.8554(4)
C28_2 C 0.4917(6) 0.0472(4) 0.8635(5)
H16_2 H 0.438366 0.046449 0.895474
C29_2 C 0.6550(6) 0.0464(3) 0.7696(5)
H17_2 H 0.709773 0.044980 0.739011
C30_2 C 0.4584(6) 0.0481(3) 0.7742(4)
O13_2 O 0.8477(4) 0.0882(3) 0.1726(3)
O14_2 O 0.8807(4) 0.1046(3) 0.3118(3)
C31_2 C 0.4648(4) 0.1152(3) 0.2088(3)
C32_2 C 0.8173(6) 0.1002(3) 0.2388(5)
C33_2 C 0.6523(6) 0.1123(4) 0.2999(5)
H18_2 H 0.699293 0.112351 0.353689
C34_2 C 0.6253(6) 0.1112(4) 0.1484(5)
H19_2 H 0.656133 0.109398 0.101318
C35_2 C 0.6950(6) 0.1095(3) 0.2307(5)
C36_2 C 0.5123(6) 0.1154(5) 0.1374(5)
H20_2 H 0.467232 0.118461 0.083045
O16_2 O 0.0708(4) 0.0598(2) 0.9941(3)
O1_2 O 0.000000 0.9974(3) 0.250000
O23_2 O 0.1260(4) 0.9745(3) 0.1378(3)
O2_2 O 0.9292(4) 0.0598(2) 0.5059(3)
O4_3 O 0.8515(5) 0.0422(2) 0.6117(3)
C1_3 C 0.8666(6) 0.0770(3) 0.5546(4)
C3_3 C 0.7852(4) 0.2415(3) 0.4744(3)
C4_3 C 0.8127(3) 0.1401(2) 0.5428(3)
C9_3 C 0.8323(7) 0.1809(4) 0.4832(5)
H4_3 H 0.877438 0.168602 0.447574
C17_3 C 0.7438(10) 0.1574(6) 0.5951(7)
H10_3 H 0.727366 0.129216 0.634081
C18_3 C 0.7002(11) 0.2166(7) 0.5886(9)
H11_3 H 0.659587 0.229381 0.627154
C19_3 C 0.6334(6) 0.4230(3) 0.4454(4)
C20_3 C 0.7148(4) 0.2585(3) 0.5256(3)
C21_3 C 0.6873(3) 0.3599(2) 0.4572(3)
C22_3 C 0.6677(7) 0.3191(4) 0.5168(5)
H12_3 H 0.622562 0.331398 0.552426
C23_3 C 0.7562(10) 0.3426(6) 0.4049(7)
H13_3 H 0.772634 0.370784 0.365919
C24_3 C 0.7998(11) 0.2834(7) 0.4114(9)
H14_3 H 0.840413 0.270619 0.372846
O15_2 O 0.9427(6) 0.1623(3) 0.0719(5)
H21_2 H 0.869537 0.172022 0.044950
H22_2 H 0.944415 0.142729 0.125291
O1_3 O 1.000000 0.9974(3) 0.250000
O22_2 O 0.8740(4) 0.9745(3) 0.3622(3)
C3_4 C 0.2148(4) 0.2415(3) 0.0256(3)
C9_4 C 0.1677(7) 0.1809(4) 0.0168(5)
H4_4 H 0.122562 0.168602 0.052426
C19_4 C 0.3666(6) 0.4230(3) 0.0546(4)
C21_4 C 0.3127(3) 0.3599(2) 0.0428(3)
C23_4 C 0.2438(10) 0.3426(6) 0.0951(7)
H13_4 H 0.227366 0.370784 0.134081
C24_4 C 0.2002(11) 0.2834(7) 0.0886(9)
H14_4 H 0.159587 0.270619 0.127154
O4_4 O 0.1485(5) 0.0422(2) 0.8883(3)
C1_4 C 0.1334(6) 0.0770(3) 0.9454(4)
C4_4 C 0.1873(3) 0.1401(2) 0.9572(3)
C17_4 C 0.2562(10) 0.1574(6) 0.9049(7)
H10_4 H 0.272634 0.129216 0.865919
C18_4 C 0.2998(11) 0.2166(7) 0.9114(9)
H11_4 H 0.340413 0.229381 0.872846
C20_4 C 0.2852(4) 0.2585(3) 0.9744(3)
C22_4 C 0.3323(7) 0.3191(4) 0.9832(5)
H12_4 H 0.377438 0.331398 0.947574
O19 O 0.6748(4) 0.4410(3) 0.0200(3)
O1_4 O 0.500000 0.5026(3) 0.750000
O3_3 O 0.3252(4) 0.4410(3) 0.4800(3)
O6_3 O 0.3477(4) 0.4118(3) 0.6726(3)
O7_3 O 0.3807(4) 0.3954(3) 0.8118(3)
O8_3 O 0.4427(6) 0.3377(3) 0.5719(5)
H1_3 H 0.369537 0.327978 0.544950
H2_3 H 0.444415 0.357271 0.625291
C2_3 C 0.3038(3) 0.4563(2) 0.4023(3)
C6_3 C 0.1013(3) 0.4527(2) 0.4037(3)
H3_3 H 0.122103 0.452262 0.462666
C7_3 C 0.3173(6) 0.3998(3) 0.7388(5)
C8_3 C 0.1839(6) 0.4532(3) 0.3554(4)
C10_3 C 0.1523(6) 0.3877(4) 0.7999(5)
H5_3 H 0.199293 0.387649 0.853689
C12_3 C 0.1253(6) 0.3888(4) 0.6484(5)
H7_3 H 0.156133 0.390602 0.601318
C13_3 C 0.1950(6) 0.3905(3) 0.7307(5)
C14_3 C 0.1550(6) 0.4536(3) 0.2696(5)
H8_3 H 0.209773 0.455020 0.239011
C15_3 C 0.0123(6) 0.3846(5) 0.6374(5)
C28_3 C 0.0083(6) 0.4528(4) 0.1365(5)
H16_3 H 0.061634 0.453551 0.104526
C30_3 C 0.0416(6) 0.4519(3) 0.2258(4)
C31_3 C 0.0352(4) 0.3848(3) 0.7912(3)
H20_3 H 0.032768 0.381539 0.916955
O15_3 O 0.5573(6) 0.3377(3) 0.9281(5)
H21_3 H 0.630463 0.327978 0.955050
H22_3 H 0.555585 0.357271 0.874709
O24 O 0.6523(4) 0.4118(3) 0.8274(3)
O25 O 0.6193(4) 0.3954(3) 0.6882(3)
C5_3 C 0.9648(4) 0.3848(3) 0.7088(3)
C11_3 C 0.9917(6) 0.4528(4) 0.3635(5)
H6_3 H 0.938366 0.453551 0.395474
H9_3 H 0.967232 0.381539 0.583045
C16_3 C 0.9584(6) 0.4519(3) 0.2742(4)
C25_3 C 0.6962(3) 0.4563(2) 0.0977(3)
C26_3 C 0.8987(3) 0.4527(2) 0.0963(3)
H15_3 H 0.877897 0.452262 0.037334
C27_3 C 0.8161(6) 0.4532(3) 0.1446(4)
C29_3 C 0.8450(6) 0.4536(3) 0.2304(5)
H17_3 H 0.790227 0.455020 0.260989
C32_3 C 0.6827(6) 0.3998(3) 0.7612(5)
C33_3 C 0.8477(6) 0.3877(4) 0.7001(5)
H18_3 H 0.800707 0.387649 0.646311
C34_3 C 0.8747(6) 0.3888(4) 0.8516(5)
H19_3 H 0.843867 0.390602 0.898682
C35_3 C 0.8050(6) 0.3905(3) 0.7693(5)
C36_3 C 0.9877(6) 0.3846(5) 0.8626(5)
O1_5 O -0.000000 0.0026(3) 0.750000
O19_2 O 0.1748(4) 0.9410(3) 0.0200(3)
O15_4 O 0.0573(6) 0.8377(3) 0.9281(5)
H21_4 H 0.130463 0.827978 0.955050
H22_4 H 0.055585 0.857271 0.874709
O24_2 O 0.1523(4) 0.9118(3) 0.8274(3)
O25_2 O 0.1193(4) 0.8954(3) 0.6882(3)
O1_6 O 1.000000 0.0026(3) 0.750000
O3_4 O 0.8252(4) 0.9410(3) 0.4800(3)
O6_4 O 0.8477(4) 0.9118(3) 0.6726(3)
O7_4 O 0.8807(4) 0.8954(3) 0.8118(3)
O8_4 O 0.9427(6) 0.8377(3) 0.5719(5)
H1_4 H 0.869537 0.827978 0.544950
H2_4 H 0.944415 0.857271 0.625291
C2_4 C 0.8038(3) 0.9563(2) 0.4023(3)
C5_4 C 0.4648(4) 0.8848(3) 0.7088(3)
C6_4 C 0.6013(3) 0.9527(2) 0.4037(3)
H3_4 H 0.622103 0.952262 0.462666
C7_4 C 0.8173(6) 0.8998(3) 0.7388(5)
C8_4 C 0.6839(6) 0.9532(3) 0.3554(4)
C10_4 C 0.6523(6) 0.8877(4) 0.7999(5)
H5_4 H 0.699293 0.887649 0.853689
C11_4 C 0.4917(6) 0.9528(4) 0.3635(5)
H6_4 H 0.438366 0.953551 0.395474
C12_4 C 0.6253(6) 0.8888(4) 0.6484(5)
H7_4 H 0.656133 0.890602 0.601318
C13_4 C 0.6950(6) 0.8905(3) 0.7307(5)
C14_4 C 0.6550(6) 0.9536(3) 0.2696(5)
H8_4 H 0.709773 0.955020 0.239011
C15_4 C 0.5123(6) 0.8846(5) 0.6374(5)
H9_4 H 0.467232 0.881539 0.583045
C16_4 C 0.4584(6) 0.9519(3) 0.2742(4)
C25_4 C 0.1962(3) 0.9563(2) 0.0977(3)
C26_4 C 0.3987(3) 0.9527(2) 0.0963(3)
H15_4 H 0.377897 0.952262 0.037334
C27_4 C 0.3161(6) 0.9532(3) 0.1446(4)
C28_4 C 0.5083(6) 0.9528(4) 0.1365(5)
H16_4 H 0.561634 0.953551 0.104526
C29_4 C 0.3450(6) 0.9536(3) 0.2304(5)
H17_4 H 0.290227 0.955020 0.260989
C30_4 C 0.5416(6) 0.9519(3) 0.2258(4)
C31_4 C 0.5352(4) 0.8848(3) 0.7912(3)
C32_4 C 0.1827(6) 0.8998(3) 0.7612(5)
C33_4 C 0.3477(6) 0.8877(4) 0.7001(5)
H18_4 H 0.300707 0.887649 0.646311
C34_4 C 0.3747(6) 0.8888(4) 0.8516(5)
H19_4 H 0.343867 0.890602 0.898682
C35_4 C 0.3050(6) 0.8905(3) 0.7693(5)
C36_4 C 0.4877(6) 0.8846(5) 0.8626(5)
H20_4 H 0.532768 0.881539 0.916955
loop_
_geom_bond_atom_site_label_1
_geom_bond_atom_site_label_2
_geom_bond_site_symmetry_1
_geom_bond_site_symmetry_2
H6 C11 1_555 1_555
C16 C11 1_555 1_555
O11 C25 1_555 1_555
O12 C25 1_555 1_555
C25 C27 1_555 1_555
C26 H15 1_555 1_555
C27 C26 1_555 1_555
C29 C16 1_555 1_555
H17 C29 1_555 1_555
O13 C32 1_555 1_555
O14 C32 1_555 1_555
C32 C35 1_555 1_555
C33 C5 1_555 1_555
H18 C33 1_555 1_555
C34 H19 1_555 1_555
C35 C33 1_555 1_555
Eu3 O14 1_555 1_555
Eu5 O13 1_555 1_555
Eu8 O12 1_555 1_555
C27 C29 1_555 1_555
C34 C35 1_555 1_555
C34 C36 1_555 1_555
Eu3 O1 1_555 1_555
O1 Eu5 1_555 1_555
O2 Eu3 1_555 1_555
O3 Eu3 1_555 1_555
O4 C1 1_555 1_555
O5 C2 1_555 1_555
O6 Eu3 1_555 1_555
O7 C7 1_555 1_555
C1 O2 1_555 1_555
O8 Eu3 1_555 1_555
H1 O8 1_555 1_555
H2 O8 1_555 1_555
C2 O3 1_555 1_555
C3 C9 1_555 1_555
C4 C1 1_555 1_555
C6 H3 1_555 1_555
C7 O6 1_555 1_555
C8 C2 1_555 1_555
C9 C4 1_555 1_555
H4 C9 1_555 1_555
C10 H5 1_555 1_555
C12 H7 1_555 1_555
C13 C7 1_555 1_555
C14 C8 1_555 1_555
H8 C14 1_555 1_555
C15 C12 1_555 1_555
C17 C4 1_555 1_555
H10 C17 1_555 1_555
C18 C17 1_555 1_555
H11 C18 1_555 1_555
O9 C19 1_555 1_555
O10 C19 1_555 1_555
C19 C21 1_555 1_555
C20 C3 1_555 1_555
C21 C22 1_555 1_555
C22 C20 1_555 1_555
H12 C22 1_555 1_555
C23 C21 1_555 1_555
H13 C23 1_555 1_555
C24 C3 1_555 1_555
H14 C24 1_555 1_555
H16 C28 1_555 1_555
C30 C14 1_555 1_555
Eu5 O7 1_555 1_555
O15 Eu5 1_555 1_555
H21 O15 1_555 1_555
H22 O15 1_555 1_555
Eu7 O2 1_555 1_555
O17 Eu3 1_555 1_555
O18 Eu5 1_555 1_555
O20 Eu3 1_555 1_555
O21 Eu5 1_555 1_555
O22 Eu3 1_555 1_555
O23 Eu5 1_555 1_555
O4 Eu7 1_555 1_555
O5 Eu7 1_555 1_555
C6 C8 1_555 1_555
C10 C13 1_555 1_555
C10 C31 1_555 1_555
C12 C13 1_555 1_555
C18 C20 1_555 1_555
C23 C24 1_555 1_555
C28 C30 1_555 1_555
Eu7 O17 1_555 1_555
C3_2 C9_2 1_555 1_555
H4_2 C9_2 1_555 1_555
O9_2 C19_2 1_555 1_555
O10_2 C19_2 1_555 1_555
C19_2 C21_2 1_555 1_555
C23_2 C21_2 1_555 1_555
H13_2 C23_2 1_555 1_555
C24_2 C3_2 1_555 1_555
H14_2 C24_2 1_555 1_555
C23_2 C24_2 1_555 1_555
O4_2 C1_2 1_555 1_555
C1_2 O16 1_555 1_555
C4_2 C1_2 1_555 1_555
C17_2 C4_2 1_555 1_555
H10_2 C17_2 1_555 1_555
C18_2 C17_2 1_555 1_555
H11_2 C18_2 1_555 1_555
C22_2 C20_2 1_555 1_555
H12_2 C22_2 1_555 1_555
Eu8 O16 1_555 1_555
O4_2 Eu8 1_555 1_555
C18_2 C20_2 1_555 1_555
O3_2 Eu6 1_555 1_555
O5_2 C2_2 1_555 1_555
O6_2 Eu6 1_555 1_555
O7_2 C7_2 1_555 1_555
O8_2 Eu6 1_555 1_555
H1_2 O8_2 1_555 1_555
H2_2 O8_2 1_555 1_555
C2_2 O3_2 1_555 1_555
C5_2 C15_2 1_555 1_555
C6_2 H3_2 1_555 1_555
C7_2 O6_2 1_555 1_555
C8_2 C2_2 1_555 1_555
C10_2 H5_2 1_555 1_555
C11_2 C6_2 1_555 1_555
H6_2 C11_2 1_555 1_555
C12_2 H7_2 1_555 1_555
C13_2 C7_2 1_555 1_555
C14_2 C8_2 1_555 1_555
H8_2 C14_2 1_555 1_555
C15_2 C12_2 1_555 1_555
H9_2 C15_2 1_555 1_555
C16_2 C11_2 1_555 1_555
O11_2 C25_2 1_555 1_555
O12_2 C25_2 1_555 1_555
C25_2 C27_2 1_555 1_555
C26_2 H15_2 1_555 1_555
C27_2 C26_2 1_555 1_555
C28_2 C26_2 1_555 1_555
H16_2 C28_2 1_555 1_555
C29_2 C16_2 1_555 1_555
H17_2 C29_2 1_555 1_555
C30_2 C14_2 1_555 1_555
O13_2 C32_2 1_555 1_555
O14_2 C32_2 1_555 1_555
C31_2 C5_2 1_555 1_555
C32_2 C35_2 1_555 1_555
C33_2 C5_2 1_555 1_555
H18_2 C33_2 1_555 1_555
C34_2 H19_2 1_555 1_555
C35_2 C33_2 1_555 1_555
C36_2 C31_2 1_555 1_555
H20_2 C36_2 1_555 1_555
Eu6_2 O13_2 1_555 1_555
C6_2 C8_2 1_555 1_555
C10_2 C13_2 1_555 1_555
C10_2 C31_2 1_555 1_555
C12_2 C13_2 1_555 1_555
C16_2 C30_2 1_555 1_555
C27_2 C29_2 1_555 1_555
C28_2 C30_2 1_555 1_555
C34_2 C35_2 1_555 1_555
C34_2 C36_2 1_555 1_555
O4_3 C1_3 1_555 1_555
C1_3 O2_2 1_555 1_555
C3_3 C9_3 1_555 1_555
C4_3 C1_3 1_555 1_555
C9_3 C4_3 1_555 1_555
H4_3 C9_3 1_555 1_555
C17_3 C4_3 1_555 1_555
H10_3 C17_3 1_555 1_555
C18_3 C17_3 1_555 1_555
H11_3 C18_3 1_555 1_555
O17 C19_3 1_555 1_555
O20 C19_3 1_555 1_555
C19_3 C21_3 1_555 1_555
C20_3 C3_3 1_555 1_555
C21_3 C22_3 1_555 1_555
C22_3 C20_3 1_555 1_555
H12_3 C22_3 1_555 1_555
C23_3 C21_3 1_555 1_555
H13_3 C23_3 1_555 1_555
C24_3 C3_3 1_555 1_555
H14_3 C24_3 1_555 1_555
O15_2 Eu6_2 1_555 1_555
H21_2 O15_2 1_555 1_555
H22_2 O15_2 1_555 1_555
C18_3 C20_3 1_555 1_555
C23_3 C24_3 1_555 1_555
C3_4 C9_4 1_555 1_555
H4_4 C9_4 1_555 1_555
O18 C19_4 1_555 1_555
O21 C19_4 1_555 1_555
C19_4 C21_4 1_555 1_555
C23_4 C21_4 1_555 1_555
H13_4 C23_4 1_555 1_555
C24_4 C3_4 1_555 1_555
H14_4 C24_4 1_555 1_555
C23_4 C24_4 1_555 1_555
O4_4 C1_4 1_555 1_555
C1_4 O16_2 1_555 1_555
C4_4 C1_4 1_555 1_555
C17_4 C4_4 1_555 1_555
H10_4 C17_4 1_555 1_555
C18_4 C17_4 1_555 1_555
H11_4 C18_4 1_555 1_555
C22_4 C20_4 1_555 1_555
H12_4 C22_4 1_555 1_555
C18_4 C20_4 1_555 1_555
Eu7 O1_4 1_555 1_555
O1_4 Eu8 1_555 1_555
O3_3 Eu7 1_555 1_555
O22 C2_3 1_555 1_555
O6_3 Eu7 1_555 1_555
O7_3 C7_3 1_555 1_555
O8_3 Eu7 1_555 1_555
H1_3 O8_3 1_555 1_555
H2_3 O8_3 1_555 1_555
C2_3 O3_3 1_555 1_555
C6_3 H3_3 1_555 1_555
C7_3 O6_3 1_555 1_555
C8_3 C2_3 1_555 1_555
C10_3 H5_3 1_555 1_555
C12_3 H7_3 1_555 1_555
C13_3 C7_3 1_555 1_555
C14_3 C8_3 1_555 1_555
H8_3 C14_3 1_555 1_555
C15_3 C12_3 1_555 1_555
H16_3 C28_3 1_555 1_555
C30_3 C14_3 1_555 1_555
Eu8 O7_3 1_555 1_555
O15_3 Eu8 1_555 1_555
H21_3 O15_3 1_555 1_555
H22_3 O15_3 1_555 1_555
O24 Eu8 1_555 1_555
O25 Eu7 1_555 1_555
C6_3 C8_3 1_555 1_555
C10_3 C13_3 1_555 1_555
C10_3 C31_3 1_555 1_555
C12_3 C13_3 1_555 1_555
C28_3 C30_3 1_555 1_555
H6_3 C11_3 1_555 1_555
C16_3 C11_3 1_555 1_555
O19 C25_3 1_555 1_555
O23 C25_3 1_555 1_555
C25_3 C27_3 1_555 1_555
C26_3 H15_3 1_555 1_555
C27_3 C26_3 1_555 1_555
C29_3 C16_3 1_555 1_555
H17_3 C29_3 1_555 1_555
O24 C32_3 1_555 1_555
O25 C32_3 1_555 1_555
C32_3 C35_3 1_555 1_555
C33_3 C5_3 1_555 1_555
H18_3 C33_3 1_555 1_555
C34_3 H19_3 1_555 1_555
C35_3 C33_3 1_555 1_555
C27_3 C29_3 1_555 1_555
C34_3 C35_3 1_555 1_555
C34_3 C36_3 1_555 1_555
O15_4 Eu9_2 1_555 1_555
H21_4 O15_4 1_555 1_555
H22_4 O15_4 1_555 1_555
O24_2 Eu9_2 1_555 1_555
O3_4 Eu9 1_555 1_555
O22_2 C2_4 1_555 1_555
O6_4 Eu9 1_555 1_555
O7_4 C7_4 1_555 1_555
O8_4 Eu9 1_555 1_555
H1_4 O8_4 1_555 1_555
H2_4 O8_4 1_555 1_555
C2_4 O3_4 1_555 1_555
C5_4 C15_4 1_555 1_555
C6_4 H3_4 1_555 1_555
C7_4 O6_4 1_555 1_555
C8_4 C2_4 1_555 1_555
C10_4 H5_4 1_555 1_555
C11_4 C6_4 1_555 1_555
H6_4 C11_4 1_555 1_555
C12_4 H7_4 1_555 1_555
C13_4 C7_4 1_555 1_555
C14_4 C8_4 1_555 1_555
H8_4 C14_4 1_555 1_555
C15_4 C12_4 1_555 1_555
H9_4 C15_4 1_555 1_555
C16_4 C11_4 1_555 1_555
O19_2 C25_4 1_555 1_555
O23_2 C25_4 1_555 1_555
C25_4 C27_4 1_555 1_555
C26_4 H15_4 1_555 1_555
C27_4 C26_4 1_555 1_555
C28_4 C26_4 1_555 1_555
H16_4 C28_4 1_555 1_555
C29_4 C16_4 1_555 1_555
H17_4 C29_4 1_555 1_555
C30_4 C14_4 1_555 1_555
O24_2 C32_4 1_555 1_555
O25_2 C32_4 1_555 1_555
C31_4 C5_4 1_555 1_555
C32_4 C35_4 1_555 1_555
C33_4 C5_4 1_555 1_555
H18_4 C33_4 1_555 1_555
C34_4 H19_4 1_555 1_555
C35_4 C33_4 1_555 1_555
C36_4 C31_4 1_555 1_555
H20_4 C36_4 1_555 1_555
C6_4 C8_4 1_555 1_555
C10_4 C13_4 1_555 1_555
C10_4 C31_4 1_555 1_555
C12_4 C13_4 1_555 1_555
C16_4 C30_4 1_555 1_555
C27_4 C29_4 1_555 1_555
C28_4 C30_4 1_555 1_555
C34_4 C35_4 1_555 1_555
C34_4 C36_4 1_555 1_555

#END
