
###############################################################################
#
# This file contains modified crystal structure data generated from the
# MOF subset of the Cambridge Structural Database (CSD) v543 
# hosted by the Cambridge Crystallographic Data Centre (CCDC).
#
# This work is licensed under the Creative Commons
# Attribution-NonCommercial-ShareAlike 4.0 International License.
# To view a copy of this license, visit
# http://creativecommons.org/licenses/by-nc-sa/4.0/
# or send a letter to
# Creative Commons, PO Box 1866, Mountain View, CA 94042, USA.
#
# CIF created using the CSD Python API on 29 September 2022
# The structure has been converted into the P1 space group
# The structure has a 3D framework
# The original CSD entry ROFGOL is in the monoclinic crystal system
# The framework has been calculated to contain at least 10.0% void space
# The void calculation uses a probe of radius 1.32A, grid spacing 0.4
#
###############################################################################

data_ROFGOL
_chemical_formula_moiety         '(C120 H80 Eu8 N8 O80)n'
_symmetry_cell_setting           triclinic
_symmetry_space_group_name_H-M   'P 1'
_symmetry_Int_Tables_number      1
_space_group_name_Hall           'P 1'
loop_
_symmetry_equiv_pos_site_id
_symmetry_equiv_pos_as_xyz
1 x,y,z
_cell_length_a                   24.954(5)
_cell_length_b                   11.969(2)
_cell_length_c                   15.401(3)
_cell_angle_alpha                90
_cell_angle_beta                 93.73(3)
_cell_angle_gamma                90
_cell_volume                     4590.14
loop_
_atom_site_label
_atom_site_type_symbol
_atom_site_fract_x
_atom_site_fract_y
_atom_site_fract_z
O3 O 0.23665(16) 0.1493(4) 0.3591(3)
O6 O 0.58965(17) 0.3481(4) 0.0328(3)
O7 O 0.31005(16) 0.2500(4) 0.3791(3)
C1 C 0.3491(2) 0.0257(5) 0.1212(4)
C2 C 0.5793(2) 0.2448(6) 0.0339(4)
C3 C 0.4761(2) 0.0568(5) 0.1285(4)
C4 C 0.4469(3) 0.2436(6) 0.1434(5)
H4 H 0.422128 0.295174 0.161670
C5 C 0.3587(2) 0.1489(5) 0.2447(4)
H5 H 0.379537 0.196791 0.280472
C6 C 0.3809(2) 0.0977(5) 0.1743(4)
C7 C 0.4360(2) 0.1302(6) 0.1510(4)
C8 C 0.5313(2) 0.2068(6) 0.0803(4)
C9 C 0.2949(2) 0.0103(5) 0.1360(4)
C10 C 0.5226(2) 0.0931(5) 0.0932(4)
H6 H 0.548183 0.041405 0.077948
C11 C 0.4933(3) 0.2821(6) 0.1097(5)
H7 H 0.499550 0.358567 0.106391
C12 C 0.2820(2) 0.1817(5) 0.3402(4)
C14 C 0.3051(2) 0.1286(5) 0.2622(4)
C15 C 0.2730(2) 0.0629(5) 0.2066(4)
H10 H 0.236858 0.053587 0.216135
Eu2 Eu 0.32257(2) 0.31589(2) 0.52867(2)
Eu5 Eu 0.17743(2) 0.18411(2) 0.47133(2)
O11 O 0.71125(16) 0.4726(4) 0.0662(3)
O13 O 0.77745(16) 0.3571(3) 0.0382(3)
O15 O 0.68995(16) 0.2500(4) 0.1209(3)
Eu1 Eu 0.67743(2) 0.31589(2) 0.97133(2)
O1 O 0.60655(17) 0.1730(4) 0.9985(3)
O5 O 0.64757(19) 0.4942(4) 0.9088(3)
H1 H 0.648580 0.559176 0.933414
H2 H 0.633512 0.506387 0.856823
O8 O 0.6278(2) 0.2751(5) 0.8319(3)
H8 H 0.610932 0.333667 0.813342
H9 H 0.602881 0.227643 0.839888
O12 O 0.73665(16) 0.3507(4) 0.8591(3)
O14 O 0.72255(16) 0.1429(3) 0.9618(3)
O2 O 0.21125(16) 0.9726(4) 0.0662(3)
O4 O 0.27745(16) 0.8571(3) 0.0382(3)
N1 N 0.47256(19) 0.9357(5) 0.1479(3)
H3 H 0.364041 0.987880 0.075931
O9 O 0.44354(17) 0.9068(4) 0.2045(3)
O10 O 0.50048(18) 0.8729(4) 0.1082(3)
C13 C 0.2589(2) 0.9416(5) 0.0765(4)
Eu4 Eu 0.32257(2) 0.68411(2) 0.02867(2)
Eu3 Eu 0.17743(2) 0.81589(2) 0.97133(2)
O1_2 O 0.39345(17) 0.1730(4) 0.5015(3)
O3_2 O 0.76335(16) 0.1493(4) 0.1409(3)
O5_2 O 0.35243(19) 0.4942(4) 0.5912(3)
H1_2 H 0.351420 0.559176 0.566586
H2_2 H 0.366488 0.506387 0.643177
O6_2 O 0.41035(17) 0.3481(4) 0.4672(3)
C1_2 C 0.6509(2) 0.0257(5) 0.3788(4)
C2_2 C 0.4207(2) 0.2448(6) 0.4661(4)
C3_2 C 0.5239(2) 0.0568(5) 0.3715(4)
C4_2 C 0.5531(3) 0.2436(6) 0.3566(5)
H4_2 H 0.577872 0.295174 0.338330
C5_2 C 0.6413(2) 0.1489(5) 0.2553(4)
H5_2 H 0.620463 0.196791 0.219528
C6_2 C 0.6191(2) 0.0977(5) 0.3257(4)
C7_2 C 0.5640(2) 0.1302(6) 0.3490(4)
C8_2 C 0.4687(2) 0.2068(6) 0.4197(4)
C9_2 C 0.7051(2) 0.0103(5) 0.3640(4)
C10_2 C 0.4774(2) 0.0931(5) 0.4068(4)
H6_2 H 0.451817 0.041405 0.422052
C11_2 C 0.5067(3) 0.2821(6) 0.3903(5)
H7_2 H 0.500450 0.358567 0.393609
O8_2 O 0.3722(2) 0.2751(5) 0.6681(3)
H8_2 H 0.389068 0.333667 0.686658
H9_2 H 0.397119 0.227643 0.660112
C12_2 C 0.7180(2) 0.1817(5) 0.1598(4)
C14_2 C 0.6949(2) 0.1286(5) 0.2378(4)
C15_2 C 0.7270(2) 0.0629(5) 0.2934(4)
H10_2 H 0.763142 0.053587 0.283865
Eu5_2 Eu 0.82257(2) 0.18411(2) 0.02867(2)
O11_2 O 0.28875(16) 0.4726(4) 0.4338(3)
O12_2 O 0.26335(16) 0.3507(4) 0.6409(3)
O13_2 O 0.22255(16) 0.3571(3) 0.4618(3)
O14_2 O 0.27745(16) 0.1429(3) 0.5382(3)
O2_2 O 0.78875(16) 0.9726(4) 0.4338(3)
O4_2 O 0.72255(16) 0.8571(3) 0.4618(3)
N1_2 N 0.52744(19) 0.9357(5) 0.3521(3)
H3_2 H 0.635959 0.987880 0.424069
O9_2 O 0.55646(17) 0.9068(4) 0.2955(3)
O10_2 O 0.49952(18) 0.8729(4) 0.3918(3)
C13_2 C 0.7411(2) 0.9416(5) 0.4235(4)
Eu3_2 Eu 0.82257(2) 0.81589(2) 0.52867(2)
Eu4_2 Eu 0.67743(2) 0.68411(2) 0.47133(2)
O6_3 O 0.08965(17) 0.8481(4) 0.0328(3)
C2_3 C 0.0793(2) 0.7448(6) 0.0339(4)
C8_3 C 0.0313(2) 0.7068(6) 0.0803(4)
C10_3 C 0.0226(2) 0.5931(5) 0.0932(4)
H6_3 H 0.048183 0.541405 0.077948
O10_3 O 0.00048(18) 0.3729(4) 0.1082(3)
O15_2 O 0.18995(16) 0.7500(4) 0.1209(3)
O1_3 O 0.10655(17) 0.6730(4) 0.9985(3)
O5_3 O 0.14757(19) 0.9942(4) 0.9088(3)
O8_3 O 0.1278(2) 0.7751(5) 0.8319(3)
H8_3 H 0.110932 0.833667 0.813342
H9_3 H 0.102881 0.727643 0.839888
O12_3 O 0.23665(16) 0.8507(4) 0.8591(3)
O14_3 O 0.22255(16) 0.6429(3) 0.9618(3)
O3_3 O 0.73665(16) 0.6493(4) 0.3591(3)
N1_3 N 0.97256(19) 0.4357(5) 0.1479(3)
O7_2 O 0.81005(16) 0.7500(4) 0.3791(3)
C1_3 C 0.8491(2) 0.5257(5) 0.1212(4)
H3_3 H 0.864041 0.487880 0.075931
C3_3 C 0.9761(2) 0.5568(5) 0.1285(4)
C4_3 C 0.9469(3) 0.7436(6) 0.1434(5)
H4_3 H 0.922128 0.795174 0.161670
C5_3 C 0.8587(2) 0.6489(5) 0.2447(4)
H5_3 H 0.879537 0.696791 0.280472
C6_3 C 0.8809(2) 0.5977(5) 0.1743(4)
C7_3 C 0.9360(2) 0.6302(6) 0.1510(4)
C9_3 C 0.7949(2) 0.5103(5) 0.1360(4)
C11_3 C 0.9933(3) 0.7821(6) 0.1097(5)
H7_3 H 0.999550 0.858567 0.106391
O9_3 O 0.94354(17) 0.4068(4) 0.2045(3)
C12_3 C 0.7820(2) 0.6817(5) 0.3402(4)
C13_3 C 0.7589(2) 0.4416(5) 0.0765(4)
C14_3 C 0.8051(2) 0.6286(5) 0.2622(4)
C15_3 C 0.7730(2) 0.5629(5) 0.2066(4)
H10_3 H 0.736858 0.553587 0.216135
O3_4 O 0.26335(16) 0.6493(4) 0.1409(3)
N1_4 N 0.02744(19) 0.4357(5) 0.3521(3)
C1_4 C 0.1509(2) 0.5257(5) 0.3788(4)
H3_4 H 0.135959 0.487880 0.424069
C3_4 C 0.0239(2) 0.5568(5) 0.3715(4)
C4_4 C 0.0531(3) 0.7436(6) 0.3566(5)
H4_4 H 0.077872 0.795174 0.338330
C5_4 C 0.1413(2) 0.6489(5) 0.2553(4)
H5_4 H 0.120463 0.696791 0.219528
C6_4 C 0.1191(2) 0.5977(5) 0.3257(4)
C7_4 C 0.0640(2) 0.6302(6) 0.3490(4)
C9_4 C 0.2051(2) 0.5103(5) 0.3640(4)
C11_4 C 0.0067(3) 0.7821(6) 0.3903(5)
H7_4 H 0.000450 0.858567 0.393609
O9_4 O 0.05646(17) 0.4068(4) 0.2955(3)
C12_4 C 0.2180(2) 0.6817(5) 0.1598(4)
C13_4 C 0.2411(2) 0.4416(5) 0.4235(4)
C14_4 C 0.1949(2) 0.6286(5) 0.2378(4)
C15_4 C 0.2270(2) 0.5629(5) 0.2934(4)
H10_4 H 0.263142 0.553587 0.283865
O1_4 O 0.89345(17) 0.6730(4) 0.5015(3)
O5_4 O 0.85243(19) 0.9942(4) 0.5912(3)
O6_4 O 0.91035(17) 0.8481(4) 0.4672(3)
C2_4 C 0.9207(2) 0.7448(6) 0.4661(4)
C8_4 C 0.9687(2) 0.7068(6) 0.4197(4)
C10_4 C 0.9774(2) 0.5931(5) 0.4068(4)
H6_4 H 0.951817 0.541405 0.422052
O8_4 O 0.8722(2) 0.7751(5) 0.6681(3)
H8_4 H 0.889068 0.833667 0.686658
H9_4 H 0.897119 0.727643 0.660112
O10_4 O 0.99952(18) 0.3729(4) 0.3918(3)
O12_4 O 0.76335(16) 0.8507(4) 0.6409(3)
O14_4 O 0.77745(16) 0.6429(3) 0.5382(3)
O2_3 O 0.78875(16) 0.0274(4) 0.9338(3)
N1_5 N 0.52744(19) 0.0643(5) 0.8521(3)
H3_5 H 0.635959 0.012120 0.924069
O9_5 O 0.55646(17) 0.0932(4) 0.7955(3)
O10_5 O 0.49952(18) 0.1271(4) 0.8918(3)
C13_5 C 0.7411(2) 0.0584(5) 0.9235(4)
O1_5 O 0.39345(17) 0.8270(4) 0.0015(3)
O5_5 O 0.35243(19) 0.5058(4) 0.0912(3)
H1_3 H 0.351420 0.440824 0.066586
H2_3 H 0.366488 0.493613 0.143177
O8_5 O 0.3722(2) 0.7249(5) 0.1681(3)
H8_5 H 0.389068 0.666333 0.186658
H9_5 H 0.397119 0.772357 0.160112
O6_5 O 0.41035(17) 0.6519(4) 0.9672(3)
O7_3 O 0.68995(16) 0.7500(4) 0.6209(3)
C1_5 C 0.6509(2) 0.9743(5) 0.8788(4)
C2_5 C 0.4207(2) 0.7552(6) 0.9661(4)
C3_5 C 0.5239(2) 0.9432(5) 0.8715(4)
C4_5 C 0.5531(3) 0.7564(6) 0.8566(5)
H4_5 H 0.577872 0.704826 0.838330
C5_5 C 0.6413(2) 0.8511(5) 0.7553(4)
H5_5 H 0.620463 0.803209 0.719528
C6_5 C 0.6191(2) 0.9023(5) 0.8257(4)
C7_5 C 0.5640(2) 0.8698(6) 0.8490(4)
C8_5 C 0.4687(2) 0.7932(6) 0.9197(4)
C9_5 C 0.7051(2) 0.9897(5) 0.8640(4)
C10_5 C 0.4774(2) 0.9069(5) 0.9068(4)
H6_5 H 0.451817 0.958595 0.922052
C11_5 C 0.5067(3) 0.7179(6) 0.8903(5)
H7_5 H 0.500450 0.641433 0.893609
C12_5 C 0.7180(2) 0.8183(5) 0.6598(4)
C14_5 C 0.6949(2) 0.8714(5) 0.7378(4)
C15_5 C 0.7270(2) 0.9371(5) 0.7934(4)
H10_5 H 0.763142 0.946413 0.783865
O11_3 O 0.28875(16) 0.5274(4) 0.9338(3)
O15_3 O 0.31005(16) 0.7500(4) 0.8791(3)
O2_4 O 0.21125(16) 0.0274(4) 0.5662(3)
N1_6 N 0.47256(19) 0.0643(5) 0.6479(3)
H3_6 H 0.364041 0.012120 0.575931
O9_6 O 0.44354(17) 0.0932(4) 0.7045(3)
O10_6 O 0.50048(18) 0.1271(4) 0.6082(3)
C13_6 C 0.2589(2) 0.0584(5) 0.5765(4)
O1_6 O 0.60655(17) 0.8270(4) 0.4985(3)
O5_6 O 0.64757(19) 0.5058(4) 0.4088(3)
H1_4 H 0.648580 0.440824 0.433414
H2_4 H 0.633512 0.493613 0.356823
O6_6 O 0.58965(17) 0.6519(4) 0.5328(3)
C1_6 C 0.3491(2) 0.9743(5) 0.6212(4)
C2_6 C 0.5793(2) 0.7552(6) 0.5339(4)
C3_6 C 0.4761(2) 0.9432(5) 0.6285(4)
C4_6 C 0.4469(3) 0.7564(6) 0.6434(5)
H4_6 H 0.422128 0.704826 0.661670
C5_6 C 0.3587(2) 0.8511(5) 0.7447(4)
H5_6 H 0.379537 0.803209 0.780472
C6_6 C 0.3809(2) 0.9023(5) 0.6743(4)
C7_6 C 0.4360(2) 0.8698(6) 0.6510(4)
C8_6 C 0.5313(2) 0.7932(6) 0.5803(4)
C9_6 C 0.2949(2) 0.9897(5) 0.6360(4)
C10_6 C 0.5226(2) 0.9069(5) 0.5932(4)
H6_6 H 0.548183 0.958595 0.577948
C11_6 C 0.4933(3) 0.7179(6) 0.6097(5)
H7_6 H 0.499550 0.641433 0.606391
O8_6 O 0.6278(2) 0.7249(5) 0.3319(3)
H8_6 H 0.610932 0.666333 0.313342
H9_6 H 0.602881 0.772357 0.339888
C12_6 C 0.2820(2) 0.8183(5) 0.8402(4)
C14_6 C 0.3051(2) 0.8714(5) 0.7622(4)
C15_6 C 0.2730(2) 0.9371(5) 0.7066(4)
H10_6 H 0.236858 0.946413 0.716135
O11_4 O 0.71125(16) 0.5274(4) 0.5662(3)
N1_7 N 0.02744(19) 0.5643(5) 0.8521(3)
O7_4 O 0.18995(16) 0.2500(4) 0.6209(3)
C1_7 C 0.1509(2) 0.4743(5) 0.8788(4)
H3_7 H 0.135959 0.512120 0.924069
C3_7 C 0.0239(2) 0.4432(5) 0.8715(4)
C4_7 C 0.0531(3) 0.2564(6) 0.8566(5)
H4_7 H 0.077872 0.204826 0.838330
C5_7 C 0.1413(2) 0.3511(5) 0.7553(4)
H5_7 H 0.120463 0.303209 0.719528
C6_7 C 0.1191(2) 0.4023(5) 0.8257(4)
C7_7 C 0.0640(2) 0.3698(6) 0.8490(4)
C9_7 C 0.2051(2) 0.4897(5) 0.8640(4)
C11_7 C 0.0067(3) 0.2179(6) 0.8903(5)
H7_7 H 0.000450 0.141433 0.893609
O9_7 O 0.05646(17) 0.5932(4) 0.7955(3)
C12_7 C 0.2180(2) 0.3183(5) 0.6598(4)
C13_7 C 0.2411(2) 0.5584(5) 0.9235(4)
C14_7 C 0.1949(2) 0.3714(5) 0.7378(4)
C15_7 C 0.2270(2) 0.4371(5) 0.7934(4)
H10_7 H 0.263142 0.446413 0.783865
O1_7 O 0.89345(17) 0.3270(4) 0.0015(3)
O5_7 O 0.85243(19) 0.0058(4) 0.0912(3)
O8_7 O 0.8722(2) 0.2249(5) 0.1681(3)
H8_7 H 0.889068 0.166333 0.186658
H9_7 H 0.897119 0.272357 0.160112
O6_7 O 0.91035(17) 0.1519(4) 0.9672(3)
C2_7 C 0.9207(2) 0.2552(6) 0.9661(4)
C8_7 C 0.9687(2) 0.2932(6) 0.9197(4)
C10_7 C 0.9774(2) 0.4069(5) 0.9068(4)
H6_7 H 0.951817 0.458595 0.922052
O10_7 O 0.99952(18) 0.6271(4) 0.8918(3)
O15_4 O 0.81005(16) 0.2500(4) 0.8791(3)
O1_8 O 0.10655(17) 0.3270(4) 0.4985(3)
O5_8 O 0.14757(19) 0.0058(4) 0.4088(3)
O6_8 O 0.08965(17) 0.1519(4) 0.5328(3)
C2_8 C 0.0793(2) 0.2552(6) 0.5339(4)
C8_8 C 0.0313(2) 0.2932(6) 0.5803(4)
C10_8 C 0.0226(2) 0.4069(5) 0.5932(4)
H6_8 H 0.048183 0.458595 0.577948
O8_8 O 0.1278(2) 0.2249(5) 0.3319(3)
H8_8 H 0.110932 0.166333 0.313342
H9_8 H 0.102881 0.272357 0.339888
O10_8 O 0.00048(18) 0.6271(4) 0.6082(3)
N1_8 N 0.97256(19) 0.5643(5) 0.6479(3)
C1_8 C 0.8491(2) 0.4743(5) 0.6212(4)
H3_8 H 0.864041 0.512120 0.575931
C3_8 C 0.9761(2) 0.4432(5) 0.6285(4)
C4_8 C 0.9469(3) 0.2564(6) 0.6434(5)
H4_8 H 0.922128 0.204826 0.661670
C5_8 C 0.8587(2) 0.3511(5) 0.7447(4)
H5_8 H 0.879537 0.303209 0.780472
C6_8 C 0.8809(2) 0.4023(5) 0.6743(4)
C7_8 C 0.9360(2) 0.3698(6) 0.6510(4)
C9_8 C 0.7949(2) 0.4897(5) 0.6360(4)
C11_8 C 0.9933(3) 0.2179(6) 0.6097(5)
H7_8 H 0.999550 0.141433 0.606391
O9_8 O 0.94354(17) 0.5932(4) 0.7045(3)
C12_8 C 0.7820(2) 0.3183(5) 0.8402(4)
C13_8 C 0.7589(2) 0.5584(5) 0.5765(4)
C14_8 C 0.8051(2) 0.3714(5) 0.7622(4)
C15_8 C 0.7730(2) 0.4371(5) 0.7066(4)
H10_8 H 0.736858 0.446413 0.716135
H1_5 H 0.148580 0.059176 0.933414
H2_5 H 0.133512 0.006387 0.856823
H1_6 H 0.851420 0.059176 0.566586
H2_6 H 0.866488 0.006387 0.643177
H1_7 H 0.851420 0.940824 0.066586
H2_7 H 0.866488 0.993613 0.143177
H1_8 H 0.148580 0.940824 0.433414
H2_8 H 0.133512 0.993613 0.356823
loop_
_geom_bond_atom_site_label_1
_geom_bond_atom_site_label_2
_geom_bond_site_symmetry_1
_geom_bond_site_symmetry_2
O3 C12 1_555 1_555
O7 C12 1_555 1_555
C2 O6 1_555 1_555
C3 C7 1_555 1_555
C4 H4 1_555 1_555
C5 H5 1_555 1_555
C6 C1 1_555 1_555
C7 C4 1_555 1_555
C8 C2 1_555 1_555
C9 C1 1_555 1_555
C10 C3 1_555 1_555
H6 C10 1_555 1_555
C11 C4 1_555 1_555
H7 C11 1_555 1_555
C12 C14 1_555 1_555
C14 C5 1_555 1_555
C15 C9 1_555 1_555
H10 C15 1_555 1_555
Eu2 O7 1_555 1_555
Eu5 O3 1_555 1_555
C5 C6 1_555 1_555
C6 C7 1_555 1_555
C8 C10 1_555 1_555
C8 C11 1_555 1_555
C14 C15 1_555 1_555
Eu1 O1 1_555 1_555
O5 Eu1 1_555 1_555
H1 O5 1_555 1_555
H2 O5 1_555 1_555
O8 Eu1 1_555 1_555
H8 O8 1_555 1_555
H9 O8 1_555 1_555
O12 Eu1 1_555 1_555
O14 Eu1 1_555 1_555
O2 C13 1_555 1_555
O4 C13 1_555 1_555
O9 N1 1_555 1_555
O10 N1 1_555 1_555
Eu4 O4 1_555 1_555
Eu2 O1_2 1_555 1_555
O1_2 C2_2 1_555 1_555
O3_2 C12_2 1_555 1_555
O5_2 Eu2 1_555 1_555
H1_2 O5_2 1_555 1_555
H2_2 O5_2 1_555 1_555
O6_2 Eu2 1_555 1_555
O15 C12_2 1_555 1_555
C2_2 O6_2 1_555 1_555
C3_2 C7_2 1_555 1_555
C4_2 H4_2 1_555 1_555
C5_2 H5_2 1_555 1_555
C6_2 C1_2 1_555 1_555
C7_2 C4_2 1_555 1_555
C8_2 C2_2 1_555 1_555
C9_2 C1_2 1_555 1_555
C10_2 C3_2 1_555 1_555
H6_2 C10_2 1_555 1_555
C11_2 C4_2 1_555 1_555
H7_2 C11_2 1_555 1_555
O8_2 Eu2 1_555 1_555
H8_2 O8_2 1_555 1_555
H9_2 O8_2 1_555 1_555
C12_2 C14_2 1_555 1_555
C14_2 C5_2 1_555 1_555
C15_2 C9_2 1_555 1_555
H10_2 C15_2 1_555 1_555
Eu5_2 O3_2 1_555 1_555
O11_2 Eu2 1_555 1_555
O12_2 Eu2 1_555 1_555
O13_2 Eu2 1_555 1_555
O14_2 Eu2 1_555 1_555
C5_2 C6_2 1_555 1_555
C6_2 C7_2 1_555 1_555
C8_2 C10_2 1_555 1_555
C8_2 C11_2 1_555 1_555
C14_2 C15_2 1_555 1_555
O2_2 C13_2 1_555 1_555
O4_2 C13_2 1_555 1_555
O9_2 N1_2 1_555 1_555
O10_2 N1_2 1_555 1_555
Eu3_2 O2_2 1_555 1_555
Eu4_2 O4_2 1_555 1_555
O4_2 Eu3_2 1_555 1_555
C2_3 O6_3 1_555 1_555
C8_3 C2_3 1_555 1_555
H6_3 C10_3 1_555 1_555
C8_3 C10_3 1_555 1_555
Eu3 O1_3 1_555 1_555
O5_3 Eu3 1_555 1_555
O8_3 Eu3 1_555 1_555
H8_3 O8_3 1_555 1_555
H9_3 O8_3 1_555 1_555
O12_3 Eu3 1_555 1_555
O14_3 Eu3 1_555 1_555
O11 C13_3 1_555 1_555
O3_3 C12_3 1_555 1_555
O13 C13_3 1_555 1_555
N1_3 C3_3 1_555 1_555
O7_2 C12_3 1_555 1_555
C1_3 H3_3 1_555 1_555
C3_3 C7_3 1_555 1_555
C4_3 H4_3 1_555 1_555
C5_3 H5_3 1_555 1_555
C6_3 C1_3 1_555 1_555
C7_3 C4_3 1_555 1_555
C9_3 C1_3 1_555 1_555
C11_3 C4_3 1_555 1_555
H7_3 C11_3 1_555 1_555
O9_3 N1_3 1_555 1_555
C12_3 C14_3 1_555 1_555
C13_3 C9_3 1_555 1_555
C14_3 C5_3 1_555 1_555
C15_3 C9_3 1_555 1_555
H10_3 C15_3 1_555 1_555
Eu3_2 O7_2 1_555 1_555
Eu5_2 O13 1_555 1_555
Eu4_2 O3_3 1_555 1_555
C5_3 C6_3 1_555 1_555
C6_3 C7_3 1_555 1_555
C14_3 C15_3 1_555 1_555
O11_2 C13_4 1_555 1_555
O3_4 C12_4 1_555 1_555
O13_2 C13_4 1_555 1_555
N1_4 C3_4 1_555 1_555
O15_2 C12_4 1_555 1_555
C1_4 H3_4 1_555 1_555
C3_4 C7_4 1_555 1_555
C4_4 H4_4 1_555 1_555
C5_4 H5_4 1_555 1_555
C6_4 C1_4 1_555 1_555
C7_4 C4_4 1_555 1_555
C9_4 C1_4 1_555 1_555
C11_4 C4_4 1_555 1_555
H7_4 C11_4 1_555 1_555
O9_4 N1_4 1_555 1_555
C12_4 C14_4 1_555 1_555
C13_4 C9_4 1_555 1_555
C14_4 C5_4 1_555 1_555
C15_4 C9_4 1_555 1_555
H10_4 C15_4 1_555 1_555
Eu5 O13_2 1_555 1_555
Eu4 O3_4 1_555 1_555
C5_4 C6_4 1_555 1_555
C6_4 C7_4 1_555 1_555
C14_4 C15_4 1_555 1_555
Eu3_2 O1_4 1_555 1_555
O1_4 C2_4 1_555 1_555
O5_4 Eu3_2 1_555 1_555
O6_4 Eu3_2 1_555 1_555
C2_4 O6_4 1_555 1_555
C8_4 C2_4 1_555 1_555
H6_4 C10_4 1_555 1_555
O8_4 Eu3_2 1_555 1_555
H8_4 O8_4 1_555 1_555
H9_4 O8_4 1_555 1_555
O12_4 Eu3_2 1_555 1_555
O14_4 Eu3_2 1_555 1_555
C8_4 C10_4 1_555 1_555
O2_3 C13_5 1_555 1_555
O14 C13_5 1_555 1_555
O9_5 N1_5 1_555 1_555
O10_5 N1_5 1_555 1_555
Eu4 O1_5 1_555 1_555
O5_5 Eu4 1_555 1_555
H1_3 O5_5 1_555 1_555
H2_3 O5_5 1_555 1_555
O8_5 Eu4 1_555 1_555
H8_5 O8_5 1_555 1_555
H9_5 O8_5 1_555 1_555
O12_4 C12_5 1_555 1_555
O7_3 C12_5 1_555 1_555
C2_5 O6_5 1_555 1_555
C3_5 C7_5 1_555 1_555
C4_5 H4_5 1_555 1_555
C5_5 H5_5 1_555 1_555
C6_5 C1_5 1_555 1_555
C7_5 C4_5 1_555 1_555
C8_5 C2_5 1_555 1_555
C9_5 C1_5 1_555 1_555
C10_5 C3_5 1_555 1_555
H6_5 C10_5 1_555 1_555
C11_5 C4_5 1_555 1_555
H7_5 C11_5 1_555 1_555
C12_5 C14_5 1_555 1_555
C14_5 C5_5 1_555 1_555
C15_5 C9_5 1_555 1_555
H10_5 C15_5 1_555 1_555
Eu4_2 O7_3 1_555 1_555
C5_5 C6_5 1_555 1_555
C6_5 C7_5 1_555 1_555
C8_5 C10_5 1_555 1_555
C8_5 C11_5 1_555 1_555
C14_5 C15_5 1_555 1_555
O2_4 C13_6 1_555 1_555
O14_2 C13_6 1_555 1_555
O9_6 N1_6 1_555 1_555
O10_6 N1_6 1_555 1_555
Eu5 O2_4 1_555 1_555
O14_2 Eu5 1_555 1_555
Eu4_2 O1_6 1_555 1_555
O1_6 C2_6 1_555 1_555
O12_3 C12_6 1_555 1_555
O5_6 Eu4_2 1_555 1_555
H1_4 O5_6 1_555 1_555
H2_4 O5_6 1_555 1_555
O6_6 Eu4_2 1_555 1_555
O15_3 C12_6 1_555 1_555
C2_6 O6_6 1_555 1_555
C3_6 C7_6 1_555 1_555
C4_6 H4_6 1_555 1_555
C5_6 H5_6 1_555 1_555
C6_6 C1_6 1_555 1_555
C7_6 C4_6 1_555 1_555
C8_6 C2_6 1_555 1_555
C9_6 C1_6 1_555 1_555
C10_6 C3_6 1_555 1_555
H6_6 C10_6 1_555 1_555
C11_6 C4_6 1_555 1_555
H7_6 C11_6 1_555 1_555
O8_6 Eu4_2 1_555 1_555
H8_6 O8_6 1_555 1_555
H9_6 O8_6 1_555 1_555
C12_6 C14_6 1_555 1_555
C14_6 C5_6 1_555 1_555
C15_6 C9_6 1_555 1_555
H10_6 C15_6 1_555 1_555
O11_4 Eu4_2 1_555 1_555
O14_4 Eu4_2 1_555 1_555
C5_6 C6_6 1_555 1_555
C6_6 C7_6 1_555 1_555
C8_6 C10_6 1_555 1_555
C8_6 C11_6 1_555 1_555
C14_6 C15_6 1_555 1_555
O11_3 C13_7 1_555 1_555
O12_2 C12_7 1_555 1_555
O14_3 C13_7 1_555 1_555
N1_7 C3_7 1_555 1_555
O7_4 C12_7 1_555 1_555
C1_7 H3_7 1_555 1_555
C3_7 C7_7 1_555 1_555
C4_7 H4_7 1_555 1_555
C5_7 H5_7 1_555 1_555
C6_7 C1_7 1_555 1_555
C7_7 C4_7 1_555 1_555
C9_7 C1_7 1_555 1_555
C11_7 C4_7 1_555 1_555
H7_7 C11_7 1_555 1_555
O9_7 N1_7 1_555 1_555
C12_7 C14_7 1_555 1_555
C13_7 C9_7 1_555 1_555
C14_7 C5_7 1_555 1_555
C15_7 C9_7 1_555 1_555
H10_7 C15_7 1_555 1_555
Eu5 O7_4 1_555 1_555
C5_7 C6_7 1_555 1_555
C6_7 C7_7 1_555 1_555
C14_7 C15_7 1_555 1_555
Eu5_2 O1_7 1_555 1_555
O5_7 Eu5_2 1_555 1_555
O8_7 Eu5_2 1_555 1_555
H8_7 O8_7 1_555 1_555
H9_7 O8_7 1_555 1_555
C2_7 O6_7 1_555 1_555
C8_7 C2_7 1_555 1_555
H6_7 C10_7 1_555 1_555
C8_7 C10_7 1_555 1_555
Eu5 O1_8 1_555 1_555
O1_8 C2_8 1_555 1_555
O5_8 Eu5 1_555 1_555
O6_8 Eu5 1_555 1_555
C2_8 O6_8 1_555 1_555
C8_8 C2_8 1_555 1_555
H6_8 C10_8 1_555 1_555
O8_8 Eu5 1_555 1_555
H8_8 O8_8 1_555 1_555
H9_8 O8_8 1_555 1_555
C8_8 C10_8 1_555 1_555
O11_4 C13_8 1_555 1_555
O12 C12_8 1_555 1_555
O14_4 C13_8 1_555 1_555
N1_8 C3_8 1_555 1_555
O15_4 C12_8 1_555 1_555
C1_8 H3_8 1_555 1_555
C3_8 C7_8 1_555 1_555
C4_8 H4_8 1_555 1_555
C5_8 H5_8 1_555 1_555
C6_8 C1_8 1_555 1_555
C7_8 C4_8 1_555 1_555
C9_8 C1_8 1_555 1_555
C11_8 C4_8 1_555 1_555
H7_8 C11_8 1_555 1_555
O9_8 N1_8 1_555 1_555
C12_8 C14_8 1_555 1_555
C13_8 C9_8 1_555 1_555
C14_8 C5_8 1_555 1_555
C15_8 C9_8 1_555 1_555
H10_8 C15_8 1_555 1_555
C5_8 C6_8 1_555 1_555
C6_8 C7_8 1_555 1_555
C14_8 C15_8 1_555 1_555

#END
