
###############################################################################
#
# This file contains modified crystal structure data generated from the
# MOF subset of the Cambridge Structural Database (CSD) v543 
# hosted by the Cambridge Crystallographic Data Centre (CCDC).
#
# This work is licensed under the Creative Commons
# Attribution-NonCommercial-ShareAlike 4.0 International License.
# To view a copy of this license, visit
# http://creativecommons.org/licenses/by-nc-sa/4.0/
# or send a letter to
# Creative Commons, PO Box 1866, Mountain View, CA 94042, USA.
#
# CIF created using the CSD Python API on 29 September 2022
# The structure has been converted into the P1 space group
# The structure has a 3D framework
# The original CSD entry ROGSAI is in the monoclinic crystal system
# The framework has been calculated to contain at least 10.0% void space
# The void calculation uses a probe of radius 1.32A, grid spacing 0.4
#
###############################################################################

data_ROGSAI
_chemical_formula_moiety         '(C44 H47 N4 Ni8 O32)n'
_symmetry_cell_setting           triclinic
_symmetry_space_group_name_H-M   'P 1'
_symmetry_Int_Tables_number      1
_space_group_name_Hall           'P 1'
loop_
_symmetry_equiv_pos_site_id
_symmetry_equiv_pos_as_xyz
1 x,y,z
_cell_length_a                   14.8156(14)
_cell_length_b                   11.0770(11)
_cell_length_c                   13.4336(13)
_cell_angle_alpha                90
_cell_angle_beta                 99.046(2)
_cell_angle_gamma                90
_cell_volume                     2177.2
loop_
_atom_site_label
_atom_site_type_symbol
_atom_site_fract_x
_atom_site_fract_y
_atom_site_fract_z
Ni1 Ni 0.04347(5) 0.00137(7) 0.11175(6)
O1 O 0.1757(3) 0.0442(5) 0.1823(4)
H1 H 0.1826(19) 0.113(3) 0.157(4)
H2 H 0.1671(14) 0.052(6) 0.2429(10)
Ni12 Ni 0.86488(5) 0.14819(7) 0.09248(6)
O15 O 0.0065(3) 0.1865(4) 0.1130(3)
N2 N 0.7297(4) 0.0972(6) 0.0586(4)
C18 C 0.6760(7) 0.0876(13) 0.1264(8)
H23 H 0.7005 0.1043 0.1931
C19 C 0.5864(8) 0.0546(15) 0.1061(9)
H24 H 0.5510 0.0555 0.1574
C20 C 0.5483(5) 0.0205(8) 0.0118(6)
H17 H 0.1143 0.0621 0.9625
C21 C 0.6037(7) 0.0289(12) 0.9429(8)
H25 H 0.5820 0.0087 0.8763
C22 C 0.6932(7) 0.0673(12) 0.9691(7)
H26 H 0.7292 0.0717 0.9184
O3 O 0.0411(3) 0.8143(4) 0.1268(3)
O4 O 0.1446(3) 0.7440(4) 0.0378(3)
O7 O 0.1272(3) 0.5741(4) 0.2655(3)
C1 C 0.0115(4) 0.6218(5) 0.0490(4)
C3 C 0.0590(4) 0.5085(5) 0.1019(4)
H8 H 0.1219 0.5027 0.0882
C4 C 0.0710(4) 0.7356(6) 0.0739(4)
C6 C 0.0591(4) 0.5245(5) 0.2150(4)
C10 C 0.3963(7) 0.9711(12) 0.0571(8)
H11 H 0.4180 0.9913 0.1237
C11 C 0.3068(7) 0.9327(12) 0.0309(7)
H12 H 0.2708 0.9283 0.0816
Ni9 Ni 0.13512(5) 0.64819(7) 0.40752(6)
O17 O 0.1388(3) 0.2820(5) 0.1410(5)
O22 O 0.0105(3) 0.9906(4) 0.2517(3)
C13 C 0.0063(4) 0.3938(5) 0.0667(4)
C16 C 0.0556(4) 0.2808(6) 0.1113(4)
Ni2 Ni 0.13512(5) 0.85181(7) 0.90752(6)
O2 O 0.1710(3) 0.6997(5) 0.8280(4)
H3 H 0.124(2) 0.693(3) 0.784(3)
H4 H 0.173(4) 0.6465(14) 0.8733(16)
N1 N 0.2703(4) 0.9028(6) 0.9414(4)
H7 H 0.0531 0.6025 0.9100
C7 C 0.3240(7) 0.9124(13) 0.8736(8)
H9 H 0.2995 0.8957 0.8069
C8 C 0.4136(8) 0.9454(15) 0.8939(9)
H10 H 0.4490 0.9445 0.8426
C9 C 0.4517(5) 0.9795(8) 0.9882(6)
Ni7 Ni 0.04347(5) 0.49863(7) 0.61175(6)
O19 O 0.1272(3) 0.9259(4) 0.7655(3)
O21 O 0.0105(3) 0.5094(4) 0.7517(3)
O24 O 0.0850(3) 0.9984(4) 0.9725(3)
H20 H 0.0471 0.3660 0.9274
O9 O 0.9150(3) 0.0016(4) 0.0275(3)
O8 O 0.9895(3) 0.4906(4) 0.2483(3)
H5 H 0.8857 0.9379 0.0375
H6 H 0.9529 0.6340 0.0726
Ni5 Ni 0.95653(5) 0.50137(7) 0.38825(6)
O11 O 0.8290(3) 0.3003(5) 0.1720(4)
H15 H 0.876(2) 0.307(3) 0.216(3)
H16 H 0.827(4) 0.3535(14) 0.1267(16)
O20 O 0.8728(3) 0.0741(4) 0.2345(3)
H21 H 0.9469 0.3975 0.0900
O5 O 0.9935(3) 0.8135(4) 0.8870(3)
O6 O 0.8612(3) 0.7180(5) 0.8590(5)
C2 C 0.9937(4) 0.6062(5) 0.9333(4)
C5 C 0.9444(4) 0.7192(6) 0.8887(4)
Ni4 Ni 0.95653(5) 0.99863(7) 0.88825(6)
Ni11 Ni 0.86488(5) 0.35181(7) 0.59248(6)
O12 O 0.9589(3) 0.1857(4) 0.8732(3)
O13 O 0.8554(3) 0.2560(4) 0.9622(3)
O18 O 0.8728(3) 0.4259(4) 0.7345(3)
O23 O 0.9895(3) 0.0094(4) 0.7483(3)
C12 C 0.9885(4) 0.3782(5) 0.9510(4)
C14 C 0.9410(4) 0.4915(5) 0.8981(4)
H22 H 0.8781 0.4973 0.9118
C15 C 0.9290(4) 0.2644(6) 0.9261(4)
C17 C 0.9409(4) 0.4755(5) 0.7850(4)
O10 O 0.8243(3) 0.9558(5) 0.8177(4)
H13 H 0.8174(19) 0.887(3) 0.843(4)
H14 H 0.8329(14) 0.948(6) 0.7571(10)
O5_2 O 0.0065(3) 0.3135(4) 0.6130(3)
O6_2 O 0.1388(3) 0.2180(5) 0.6410(5)
O9_2 O 0.0850(3) 0.5016(4) 0.4725(3)
H5_2 H 0.1143 0.4379 0.4625
H6_2 H 0.0471 0.1340 0.4274
C2_2 C 0.0063(4) 0.1062(5) 0.5667(4)
C5_2 C 0.0556(4) 0.2192(6) 0.6113(4)
O10_2 O 0.1757(3) 0.4558(5) 0.6823(4)
H13_2 H 0.1826(19) 0.387(3) 0.657(4)
H14_2 H 0.1671(14) 0.448(6) 0.7429(10)
O11_2 O 0.1710(3) 0.8003(5) 0.3280(4)
H15_2 H 0.124(2) 0.807(3) 0.284(3)
H16_2 H 0.173(4) 0.8535(14) 0.3733(16)
O12_2 O 0.0411(3) 0.6857(4) 0.6268(3)
O13_2 O 0.1446(3) 0.7560(4) 0.5378(3)
N3 N 0.2703(4) 0.5972(6) 0.4414(4)
C12_2 C 0.0115(4) 0.8782(5) 0.5490(4)
H21_2 H 0.0531 0.8975 0.4100
C14_2 C 0.0590(4) 0.9915(5) 0.6019(4)
H22_2 H 0.1219 0.9973 0.5882
C15_2 C 0.0710(4) 0.7644(6) 0.5739(4)
C17_2 C 0.0591(4) 0.9755(5) 0.7150(4)
O1_2 O 0.8243(3) 0.5442(5) 0.3177(4)
H1_2 H 0.8174(19) 0.613(3) 0.343(4)
H2_2 H 0.8329(14) 0.552(6) 0.2571(10)
O2_2 O 0.8290(3) 0.1997(5) 0.6720(4)
H3_2 H 0.876(2) 0.193(3) 0.716(3)
H4_2 H 0.827(4) 0.1465(14) 0.6267(16)
O3_2 O 0.9589(3) 0.3143(4) 0.3732(3)
O4_2 O 0.8554(3) 0.2440(4) 0.4622(3)
N1_2 N 0.7297(4) 0.4028(6) 0.5586(4)
C1_2 C 0.9885(4) 0.1218(5) 0.4510(4)
H7_2 H 0.9469 0.1025 0.5900
C3_2 C 0.9410(4) 0.0085(5) 0.3981(4)
H8_2 H 0.8781 0.0027 0.4118
C4_2 C 0.9290(4) 0.2356(6) 0.4261(4)
C6_2 C 0.9409(4) 0.0245(5) 0.2850(4)
C7_2 C 0.6760(7) 0.4124(13) 0.6264(8)
H9_2 H 0.7005 0.3957 0.6931
C8_2 C 0.5864(8) 0.4454(15) 0.6061(9)
H10_2 H 0.5510 0.4445 0.6574
C9_2 C 0.5483(5) 0.4795(8) 0.5118(6)
C10_2 C 0.6037(7) 0.4711(12) 0.4429(8)
H11_2 H 0.5820 0.4913 0.3763
C11_2 C 0.6932(7) 0.4327(12) 0.4691(7)
H12_2 H 0.7292 0.4283 0.4184
O15_2 O 0.9935(3) 0.6865(4) 0.3870(3)
O24_2 O 0.9150(3) 0.4984(4) 0.5275(3)
H17_2 H 0.8857 0.5621 0.5375
C18_2 C 0.3240(7) 0.5876(13) 0.3736(8)
H23_2 H 0.2995 0.6043 0.3069
C19_2 C 0.4136(8) 0.5546(15) 0.3939(9)
H24_2 H 0.4490 0.5555 0.3426
C20_2 C 0.4517(5) 0.5205(8) 0.4882(6)
C21_2 C 0.3963(7) 0.5289(12) 0.5571(8)
H25_2 H 0.4180 0.5087 0.6237
C22_2 C 0.3068(7) 0.5673(12) 0.5309(7)
H26_2 H 0.2708 0.5717 0.5816
O17_2 O 0.8612(3) 0.7820(5) 0.3590(5)
H20_2 H 0.9529 0.8660 0.5726
C13_2 C 0.9937(4) 0.8938(5) 0.4333(4)
C16_2 C 0.9444(4) 0.7808(6) 0.3887(4)
loop_
_geom_bond_atom_site_label_1
_geom_bond_atom_site_label_2
_geom_bond_site_symmetry_1
_geom_bond_site_symmetry_2
Ni1 O1 1_555 1_555
O1 H1 1_555 1_555
H2 O1 1_555 1_555
Ni12 N2 1_555 1_555
O15 Ni1 1_555 1_555
N2 C18 1_555 1_555
C18 H23 1_555 1_555
C19 C18 1_555 1_555
H24 C19 1_555 1_555
C19 C20 1_555 1_555
H25 C21 1_555 1_555
H26 C22 1_555 1_555
C21 C22 1_555 1_555
O7 C6 1_555 1_555
C3 C1 1_555 1_555
H8 C3 1_555 1_555
C4 O3 1_555 1_555
C6 C3 1_555 1_555
H11 C10 1_555 1_555
H12 C11 1_555 1_555
Ni9 O7 1_555 1_555
O17 C16 1_555 1_555
C13 C3 1_555 1_555
C16 O15 1_555 1_555
O4 C4 1_555 1_555
C1 C4 1_555 1_555
C10 C11 1_555 1_555
C13 C16 1_555 1_555
Ni2 O2 1_555 1_555
O2 H3 1_555 1_555
H4 O2 1_555 1_555
N1 Ni2 1_555 1_555
C7 N1 1_555 1_555
H9 C7 1_555 1_555
C8 C7 1_555 1_555
H10 C8 1_555 1_555
C9 C8 1_555 1_555
Ni7 O21 1_555 1_555
O19 Ni2 1_555 1_555
Ni2 O24 1_555 1_555
Ni12 O9 1_555 1_555
Ni5 O8 1_555 1_555
Ni12 O11 1_555 1_555
O11 H15 1_555 1_555
H16 O11 1_555 1_555
O20 Ni12 1_555 1_555
O6 C5 1_555 1_555
C5 O5 1_555 1_555
Ni4 O5 1_555 1_555
Ni11 O18 1_555 1_555
O18 C17 1_555 1_555
C14 C2 1_555 1_555
H22 C14 1_555 1_555
C15 O12 1_555 1_555
C17 C14 1_555 1_555
C2 C5 1_555 1_555
O13 C15 1_555 1_555
C12 C14 1_555 1_555
C12 C15 1_555 1_555
Ni4 O10 1_555 1_555
O10 H13 1_555 1_555
H14 O10 1_555 1_555
O6_2 C5_2 1_555 1_555
H5_2 O9_2 1_555 1_555
C5_2 O5_2 1_555 1_555
Ni7 O5_2 1_555 1_555
Ni9 O9_2 1_555 1_555
O9_2 Ni7 1_555 1_555
C2_2 C5_2 1_555 1_555
Ni7 O10_2 1_555 1_555
Ni9 O11_2 1_555 1_555
O10_2 H13_2 1_555 1_555
H14_2 O10_2 1_555 1_555
O11_2 H15_2 1_555 1_555
H16_2 O11_2 1_555 1_555
O12_2 Ni7 1_555 1_555
O13_2 Ni9 1_555 1_555
O19 C17_2 1_555 1_555
N3 Ni9 1_555 1_555
H22_2 C14_2 1_555 1_555
C15_2 O12_2 1_555 1_555
C17_2 C14_2 1_555 1_555
O13_2 C15_2 1_555 1_555
C12_2 C14_2 1_555 1_555
C12_2 C15_2 1_555 1_555
Ni5 O1_2 1_555 1_555
Ni11 O2_2 1_555 1_555
O1_2 H1_2 1_555 1_555
H2_2 O1_2 1_555 1_555
O2_2 H3_2 1_555 1_555
H4_2 O2_2 1_555 1_555
O3_2 Ni5 1_555 1_555
O4_2 Ni11 1_555 1_555
O20 C6_2 1_555 1_555
N1_2 Ni11 1_555 1_555
C3_2 C1_2 1_555 1_555
H8_2 C3_2 1_555 1_555
C4_2 O3_2 1_555 1_555
C6_2 C3_2 1_555 1_555
C7_2 N1_2 1_555 1_555
H9_2 C7_2 1_555 1_555
C8_2 C7_2 1_555 1_555
H10_2 C8_2 1_555 1_555
C9_2 C8_2 1_555 1_555
C10_2 C9_2 1_555 1_555
H11_2 C10_2 1_555 1_555
C11_2 N1_2 1_555 1_555
H12_2 C11_2 1_555 1_555
O15_2 Ni5 1_555 1_555
O24_2 Ni5 1_555 1_555
H17_2 O24_2 1_555 1_555
N3 C18_2 1_555 1_555
C18_2 H23_2 1_555 1_555
C19_2 C18_2 1_555 1_555
H24_2 C19_2 1_555 1_555
C20_2 C9_2 1_555 1_555
C21_2 C20_2 1_555 1_555
H25_2 C21_2 1_555 1_555
C22_2 N3 1_555 1_555
H26_2 C22_2 1_555 1_555
Ni11 O24_2 1_555 1_555
O4_2 C4_2 1_555 1_555
C1_2 C4_2 1_555 1_555
C10_2 C11_2 1_555 1_555
C19_2 C20_2 1_555 1_555
C21_2 C22_2 1_555 1_555
O17_2 C16_2 1_555 1_555
C16_2 O15_2 1_555 1_555
C13_2 C16_2 1_555 1_555

#END
