
###############################################################################
#
# This file contains modified crystal structure data generated from the
# MOF subset of the Cambridge Structural Database (CSD) v543 
# hosted by the Cambridge Crystallographic Data Centre (CCDC).
#
# This work is licensed under the Creative Commons
# Attribution-NonCommercial-ShareAlike 4.0 International License.
# To view a copy of this license, visit
# http://creativecommons.org/licenses/by-nc-sa/4.0/
# or send a letter to
# Creative Commons, PO Box 1866, Mountain View, CA 94042, USA.
#
# CIF created using the CSD Python API on 29 September 2022
# The structure has been converted into the P1 space group
# The structure has a 3D framework
# The original CSD entry ROLLEM is in the monoclinic crystal system
# The framework has been calculated to contain at least 10.0% void space
# The void calculation uses a probe of radius 1.32A, grid spacing 0.4
#
###############################################################################

data_ROLLEM
_chemical_formula_moiety         '(C144 H64 N16 O48 S8 Zn8)n'
_symmetry_cell_setting           triclinic
_symmetry_space_group_name_H-M   'P 1'
_symmetry_Int_Tables_number      1
_space_group_name_Hall           'P 1'
loop_
_symmetry_equiv_pos_site_id
_symmetry_equiv_pos_as_xyz
1 x,y,z
_cell_length_a                   33.6873(16)
_cell_length_b                   15.0325(6)
_cell_length_c                   14.0201(7)
_cell_angle_alpha                90
_cell_angle_beta                 99.365(4)
_cell_angle_gamma                90
_cell_volume                     7005.21
loop_
_atom_site_label
_atom_site_type_symbol
_atom_site_fract_x
_atom_site_fract_y
_atom_site_fract_z
O5 O 0.09526(9) 0.3500(2) 0.1487(3)
N2 N 0.05868(10) 0.3066(2) 0.0054(3)
C8 C 0.10012(16) 0.0770(3) 0.0114(6)
H4 H 0.0927 0.0182 0.0191
C9 C 0.07268(15) 0.1455(3) 0.0151(5)
H5 H 0.0467 0.1339 0.0258
C10 C 0.08506(12) 0.2298(3) 0.0027(4)
C14 C 0.01171(11) 0.4600(3) 0.0008(3)
C15 C 0.04276(12) 0.4460(3) 0.0807(3)
C16 C 0.06788(12) 0.3652(3) 0.0823(4)
C18 C 0.05001(13) 0.5069(3) 0.1548(4)
H8 H 0.0704 0.4967 0.2068
C29 C 0.02663(13) 0.5842(3) 0.1520(4)
H13 H 0.0319 0.6255 0.2018
Zn7 Zn 0.29211(2) 0.28426(2) 0.01943(3)
O14 O 0.23584(8) 0.13732(18) 0.0894(2)
O16 O 0.20827(8) 0.31670(17) 0.07982(19)
S1 S 0.25605(3) 0.50007(6) 0.75998(7)
Zn1 Zn 0.20789(2) 0.21574(2) 0.98057(3)
O1 O 0.19969(8) 0.31616(17) 0.88089(19)
O2 O 0.26416(8) 0.36268(18) 0.9106(2)
O3 O 0.20827(8) 0.68330(17) 0.57982(19)
O4 O 0.27203(8) 0.63578(17) 0.61633(19)
O6 O 0.02489(11) 0.2665(2) 0.8578(3)
N1 N 0.15032(8) 0.18013(19) 0.9856(2)
C1 C 0.22821(11) 0.3673(2) 0.8690(3)
C2 C 0.21823(11) 0.4394(2) 0.7966(3)
C3 C 0.18104(12) 0.4679(3) 0.7541(3)
H1 H 0.1570 0.4419 0.7644
C4 C 0.18330(12) 0.5413(3) 0.6928(3)
H2 H 0.1608 0.5707 0.6600
C5 C 0.22165(11) 0.5645(2) 0.6865(3)
C6 C 0.23517(11) 0.6334(2) 0.6232(2)
C7 C 0.13817(13) 0.0972(3) 0.9963(4)
H3 H 0.1563 0.0510 0.9933
C11 C 0.12398(11) 0.2463(2) 0.9871(3)
H6 H 0.1319 0.3044 0.9776
C12 C 0.02905(13) 0.3192(3) 0.9243(4)
C13 C 0.00374(12) 0.4002(3) 0.9229(3)
Zn5 Zn 0.29211(2) 0.71574(2) 0.51943(3)
Zn6 Zn 0.20789(2) 0.78426(2) 0.48057(3)
O17 O 0.22797(8) 0.13578(17) 0.88367(19)
O8 O 0.97511(11) 0.7335(2) 0.1422(3)
N3 N 0.84968(8) 0.81987(19) 0.0144(2)
C19 C 0.86183(13) 0.9028(3) 0.0037(4)
H9 H 0.8437 0.9490 0.0067
C23 C 0.87602(11) 0.7537(2) 0.0129(3)
H12 H 0.8681 0.6956 0.0224
C24 C 0.97095(13) 0.6808(3) 0.0757(4)
C25 C 0.99626(12) 0.5998(3) 0.0771(3)
S2 S 0.74395(3) 0.49993(6) 0.24002(7)
Zn2 Zn 0.79211(2) 0.78426(2) 0.01943(3)
O9 O 0.80031(8) 0.68384(17) 0.11911(19)
O10 O 0.73584(8) 0.63732(18) 0.0894(2)
O11 O 0.79173(8) 0.31670(17) 0.42018(19)
O12 O 0.72797(8) 0.36422(17) 0.38367(19)
C31 C 0.77179(11) 0.6327(2) 0.1310(3)
C32 C 0.78177(11) 0.5606(2) 0.2034(3)
C33 C 0.81896(12) 0.5321(3) 0.2459(3)
H15 H 0.8430 0.5581 0.2356
C34 C 0.81670(12) 0.4587(3) 0.3072(3)
H16 H 0.8392 0.4293 0.3400
C35 C 0.77835(11) 0.4355(2) 0.3135(3)
C36 C 0.76483(11) 0.3666(2) 0.3768(2)
Zn3 Zn 0.79211(2) 0.21574(2) 0.51943(3)
Zn8 Zn 0.70789(2) 0.28426(2) 0.48057(3)
O18 O 0.77203(8) 0.86422(17) 0.11633(19)
C17 C 0.97337(13) 0.4158(3) 0.8480(4)
H7 H 0.9681 0.3745 0.7982
O7 O 0.90474(9) 0.6500(2) 0.8513(3)
N4 N 0.94132(10) 0.6934(2) 0.9946(3)
C20 C 0.89988(16) 0.9230(3) 0.9886(6)
H10 H 0.9073 0.9818 0.9809
C21 C 0.92732(15) 0.8545(3) 0.9849(5)
H11 H 0.9533 0.8661 0.9742
C22 C 0.91494(12) 0.7702(3) 0.9973(4)
C26 C 0.98829(11) 0.5400(3) 0.9992(3)
C27 C 0.95724(12) 0.5540(3) 0.9193(3)
C28 C 0.93212(12) 0.6348(3) 0.9177(4)
C30 C 0.94999(13) 0.4931(3) 0.8452(4)
H14 H 0.9296 0.5033 0.7932
Zn4 Zn 0.70789(2) 0.71574(2) 0.98057(3)
O13 O 0.76416(8) 0.86268(18) 0.9106(2)
O15 O 0.79173(8) 0.68330(17) 0.92018(19)
C17_2 C 0.02663(13) 0.4158(3) 0.6520(4)
H7_2 H 0.0319 0.3745 0.7018
O7_2 O 0.09526(9) 0.6500(2) 0.6487(3)
O8_2 O 0.02489(11) 0.7335(2) 0.3578(3)
N3_2 N 0.15032(8) 0.81987(19) 0.4856(2)
N4_2 N 0.05868(10) 0.6934(2) 0.5054(3)
C19_2 C 0.13817(13) 0.9028(3) 0.4963(4)
H9_2 H 0.1563 0.9490 0.4933
C20_2 C 0.10012(16) 0.9230(3) 0.5114(6)
H10_2 H 0.0927 0.9818 0.5191
C21_2 C 0.07268(15) 0.8545(3) 0.5151(5)
H11_2 H 0.0467 0.8661 0.5258
C22_2 C 0.08506(12) 0.7702(3) 0.5027(4)
C23_2 C 0.12398(11) 0.7537(2) 0.4871(3)
H12_2 H 0.1319 0.6956 0.4776
C24_2 C 0.02905(13) 0.6808(3) 0.4243(4)
C25_2 C 0.00374(12) 0.5998(3) 0.4229(3)
C26_2 C 0.01171(11) 0.5400(3) 0.5008(3)
C27_2 C 0.04276(12) 0.5540(3) 0.5807(3)
C28_2 C 0.06788(12) 0.6348(3) 0.5823(4)
C30_2 C 0.05001(13) 0.4931(3) 0.6548(4)
H14_2 H 0.0704 0.5033 0.7068
S2_2 S 0.25605(3) 0.49993(6) 0.25998(7)
O9_2 O 0.19969(8) 0.68384(17) 0.38089(19)
O10_2 O 0.26416(8) 0.63732(18) 0.4106(2)
O12_2 O 0.27203(8) 0.36422(17) 0.11633(19)
C31_2 C 0.22821(11) 0.6327(2) 0.3690(3)
C32_2 C 0.21823(11) 0.5606(2) 0.2966(3)
C33_2 C 0.18104(12) 0.5321(3) 0.2541(3)
H15_2 H 0.1570 0.5581 0.2644
C34_2 C 0.18330(12) 0.4587(3) 0.1928(3)
H16_2 H 0.1608 0.4293 0.1600
C35_2 C 0.22165(11) 0.4355(2) 0.1865(3)
C36_2 C 0.23517(11) 0.3666(2) 0.1232(2)
O13_2 O 0.23584(8) 0.86268(18) 0.5894(2)
O18_2 O 0.22797(8) 0.86422(17) 0.38367(19)
S1_2 S 0.74395(3) 0.50007(6) 0.74002(7)
O1_2 O 0.80031(8) 0.31616(17) 0.61911(19)
O2_2 O 0.73584(8) 0.36268(18) 0.5894(2)
O4_2 O 0.72797(8) 0.63578(17) 0.88367(19)
O5_2 O 0.90474(9) 0.3500(2) 0.3513(3)
O6_2 O 0.97511(11) 0.2665(2) 0.6422(3)
N1_2 N 0.84968(8) 0.18013(19) 0.5144(2)
N2_2 N 0.94132(10) 0.3066(2) 0.4946(3)
C1_2 C 0.77179(11) 0.3673(2) 0.6310(3)
C2_2 C 0.78177(11) 0.4394(2) 0.7034(3)
C3_2 C 0.81896(12) 0.4679(3) 0.7459(3)
H1_2 H 0.8430 0.4419 0.7356
C4_2 C 0.81670(12) 0.5413(3) 0.8072(3)
H2_2 H 0.8392 0.5707 0.8400
C5_2 C 0.77835(11) 0.5645(2) 0.8135(3)
C6_2 C 0.76483(11) 0.6334(2) 0.8768(2)
C7_2 C 0.86183(13) 0.0972(3) 0.5037(4)
H3_2 H 0.8437 0.0510 0.5067
C8_2 C 0.89988(16) 0.0770(3) 0.4886(6)
H4_2 H 0.9073 0.0182 0.4809
C9_2 C 0.92732(15) 0.1455(3) 0.4849(5)
H5_2 H 0.9533 0.1339 0.4742
C10_2 C 0.91494(12) 0.2298(3) 0.4973(4)
C11_2 C 0.87602(11) 0.2463(2) 0.5129(3)
H6_2 H 0.8681 0.3044 0.5224
C12_2 C 0.97095(13) 0.3192(3) 0.5757(4)
C13_2 C 0.99626(12) 0.4002(3) 0.5771(3)
C14_2 C 0.98829(11) 0.4600(3) 0.4992(3)
C15_2 C 0.95724(12) 0.4460(3) 0.4193(3)
C16_2 C 0.93212(12) 0.3652(3) 0.4177(4)
C18_2 C 0.94999(13) 0.5069(3) 0.3452(4)
H8_2 H 0.9296 0.4967 0.2932
C29_2 C 0.97337(13) 0.5842(3) 0.3480(4)
H13_2 H 0.9681 0.6255 0.2982
O14_2 O 0.76416(8) 0.13732(18) 0.4106(2)
O17_2 O 0.77203(8) 0.13578(17) 0.61633(19)
C18_3 C 0.55001(13) 0.0069(3) 0.1548(4)
O8_3 O 0.47511(11) 0.2335(2) 0.1422(3)
N3_3 N 0.34968(8) 0.31987(19) 0.0144(2)
C19_3 C 0.36183(13) 0.4028(3) 0.0037(4)
H9_3 H 0.3437 0.4490 0.0067
C23_3 C 0.37602(11) 0.2537(2) 0.0129(3)
H12_3 H 0.3681 0.1956 0.0224
C24_3 C 0.47095(13) 0.1808(3) 0.0757(4)
C25_3 C 0.49626(12) 0.0998(3) 0.0771(3)
C29_3 C 0.52663(13) 0.0842(3) 0.1520(4)
H13_3 H 0.5319 0.1255 0.2018
O9_3 O 0.30031(8) 0.18384(17) 0.11911(19)
C31_3 C 0.27179(11) 0.1327(2) 0.1310(3)
C32_3 C 0.28177(11) 0.0606(2) 0.2034(3)
C33_3 C 0.31896(12) 0.0321(3) 0.2459(3)
H15_3 H 0.3430 0.0581 0.2356
S1_3 S 0.75605(3) 0.00007(6) 0.75998(7)
O3_2 O 0.70827(8) 0.18330(17) 0.57982(19)
C4_3 C 0.68330(12) 0.0413(3) 0.6928(3)
H2_3 H 0.6608 0.0707 0.6600
C5_3 C 0.72165(11) 0.0645(2) 0.6865(3)
C6_3 C 0.73517(11) 0.1334(2) 0.6232(2)
O7_3 O 0.40474(9) 0.1500(2) 0.8513(3)
N4_3 N 0.44132(10) 0.1934(2) 0.9946(3)
C20_3 C 0.39988(16) 0.4230(3) 0.9886(6)
H10_3 H 0.4073 0.4818 0.9809
C21_3 C 0.42732(15) 0.3545(3) 0.9849(5)
H11_3 H 0.4533 0.3661 0.9742
C22_3 C 0.41494(12) 0.2702(3) 0.9973(4)
C26_3 C 0.48829(11) 0.0400(3) 0.9992(3)
C27_3 C 0.45724(12) 0.0540(3) 0.9193(3)
C28_3 C 0.43212(12) 0.1348(3) 0.9177(4)
H14_3 H 0.4296 0.0033 0.7932
O15_2 O 0.29173(8) 0.18330(17) 0.92018(19)
O5_3 O 0.59526(9) 0.8500(2) 0.1487(3)
N2_3 N 0.55868(10) 0.8066(2) 0.0054(3)
C8_3 C 0.60012(16) 0.5770(3) 0.0114(6)
H4_3 H 0.5927 0.5182 0.0191
C9_3 C 0.57268(15) 0.6455(3) 0.0151(5)
H5_3 H 0.5467 0.6339 0.0258
C10_3 C 0.58506(12) 0.7298(3) 0.0027(4)
C14_3 C 0.51171(11) 0.9600(3) 0.0008(3)
C15_3 C 0.54276(12) 0.9460(3) 0.0807(3)
C16_3 C 0.56788(12) 0.8652(3) 0.0823(4)
H8_3 H 0.5704 0.9967 0.2068
S2_3 S 0.24395(3) 0.99993(6) 0.24002(7)
O11_2 O 0.29173(8) 0.81670(17) 0.42018(19)
C34_3 C 0.31670(12) 0.9587(3) 0.3072(3)
H16_3 H 0.3392 0.9293 0.3400
C35_3 C 0.27835(11) 0.9355(2) 0.3135(3)
C36_3 C 0.26483(11) 0.8666(2) 0.3768(2)
O16_2 O 0.70827(8) 0.81670(17) 0.07982(19)
O1_3 O 0.69969(8) 0.81616(17) 0.88089(19)
O6_3 O 0.52489(11) 0.7665(2) 0.8578(3)
N1_3 N 0.65032(8) 0.68013(19) 0.9856(2)
C1_3 C 0.72821(11) 0.8673(2) 0.8690(3)
C2_3 C 0.71823(11) 0.9394(2) 0.7966(3)
C3_3 C 0.68104(12) 0.9679(3) 0.7541(3)
H1_3 H 0.6570 0.9419 0.7644
C7_3 C 0.63817(13) 0.5972(3) 0.9963(4)
H3_3 H 0.6563 0.5510 0.9933
C11_3 C 0.62398(11) 0.7463(2) 0.9871(3)
H6_3 H 0.6319 0.8044 0.9776
C12_3 C 0.52905(13) 0.8192(3) 0.9243(4)
C13_3 C 0.50374(12) 0.9002(3) 0.9229(3)
C17_3 C 0.47337(13) 0.9158(3) 0.8480(4)
H7_3 H 0.4681 0.8745 0.7982
C30_3 C 0.44999(13) 0.9931(3) 0.8452(4)
S1_4 S 0.24395(3) 0.00007(6) 0.74002(7)
C4_4 C 0.31670(12) 0.0413(3) 0.8072(3)
H2_4 H 0.3392 0.0707 0.8400
C5_4 C 0.27835(11) 0.0645(2) 0.8135(3)
C6_4 C 0.26483(11) 0.1334(2) 0.8768(2)
C18_4 C 0.44999(13) 0.0069(3) 0.3452(4)
O7_4 O 0.59526(9) 0.1500(2) 0.6487(3)
O8_4 O 0.52489(11) 0.2335(2) 0.3578(3)
N3_4 N 0.65032(8) 0.31987(19) 0.4856(2)
N4_4 N 0.55868(10) 0.1934(2) 0.5054(3)
C19_4 C 0.63817(13) 0.4028(3) 0.4963(4)
H9_4 H 0.6563 0.4490 0.4933
C20_4 C 0.60012(16) 0.4230(3) 0.5114(6)
H10_4 H 0.5927 0.4818 0.5191
C21_4 C 0.57268(15) 0.3545(3) 0.5151(5)
H11_4 H 0.5467 0.3661 0.5258
C22_4 C 0.58506(12) 0.2702(3) 0.5027(4)
C23_4 C 0.62398(11) 0.2537(2) 0.4871(3)
H12_4 H 0.6319 0.1956 0.4776
C24_4 C 0.52905(13) 0.1808(3) 0.4243(4)
C25_4 C 0.50374(12) 0.0998(3) 0.4229(3)
C26_4 C 0.51171(11) 0.0400(3) 0.5008(3)
C27_4 C 0.54276(12) 0.0540(3) 0.5807(3)
C28_4 C 0.56788(12) 0.1348(3) 0.5823(4)
C29_4 C 0.47337(13) 0.0842(3) 0.3480(4)
H13_4 H 0.4681 0.1255 0.2982
H14_4 H 0.5704 0.0033 0.7068
O9_4 O 0.69969(8) 0.18384(17) 0.38089(19)
C31_4 C 0.72821(11) 0.1327(2) 0.3690(3)
C32_4 C 0.71823(11) 0.0606(2) 0.2966(3)
C33_4 C 0.68104(12) 0.0321(3) 0.2541(3)
H15_4 H 0.6570 0.0581 0.2644
O1_4 O 0.30031(8) 0.81616(17) 0.61911(19)
O5_4 O 0.40474(9) 0.8500(2) 0.3513(3)
O6_4 O 0.47511(11) 0.7665(2) 0.6422(3)
N1_4 N 0.34968(8) 0.68013(19) 0.5144(2)
N2_4 N 0.44132(10) 0.8066(2) 0.4946(3)
C1_4 C 0.27179(11) 0.8673(2) 0.6310(3)
C2_4 C 0.28177(11) 0.9394(2) 0.7034(3)
C3_4 C 0.31896(12) 0.9679(3) 0.7459(3)
H1_4 H 0.3430 0.9419 0.7356
C7_4 C 0.36183(13) 0.5972(3) 0.5037(4)
H3_4 H 0.3437 0.5510 0.5067
C8_4 C 0.39988(16) 0.5770(3) 0.4886(6)
H4_4 H 0.4073 0.5182 0.4809
C9_4 C 0.42732(15) 0.6455(3) 0.4849(5)
H5_4 H 0.4533 0.6339 0.4742
C10_4 C 0.41494(12) 0.7298(3) 0.4973(4)
C11_4 C 0.37602(11) 0.7463(2) 0.5129(3)
H6_4 H 0.3681 0.8044 0.5224
C12_4 C 0.47095(13) 0.8192(3) 0.5757(4)
C13_4 C 0.49626(12) 0.9002(3) 0.5771(3)
C14_4 C 0.48829(11) 0.9600(3) 0.4992(3)
C15_4 C 0.45724(12) 0.9460(3) 0.4193(3)
C16_4 C 0.43212(12) 0.8652(3) 0.4177(4)
C17_4 C 0.52663(13) 0.9158(3) 0.6520(4)
H7_4 H 0.5319 0.8745 0.7018
H8_4 H 0.4296 0.9967 0.2932
C30_4 C 0.55001(13) 0.9931(3) 0.6548(4)
S2_4 S 0.75605(3) 0.99993(6) 0.25998(7)
C34_4 C 0.68330(12) 0.9587(3) 0.1928(3)
H16_4 H 0.6608 0.9293 0.1600
C35_4 C 0.72165(11) 0.9355(2) 0.1865(3)
C36_4 C 0.73517(11) 0.8666(2) 0.1232(2)
loop_
_geom_bond_atom_site_label_1
_geom_bond_atom_site_label_2
_geom_bond_site_symmetry_1
_geom_bond_site_symmetry_2
O5 C16 1_555 1_555
N2 C10 1_555 1_555
H4 C8 1_555 1_555
C9 C8 1_555 1_555
H5 C9 1_555 1_555
C10 C9 1_555 1_555
C15 C14 1_555 1_555
C16 N2 1_555 1_555
C18 C15 1_555 1_555
H8 C18 1_555 1_555
C29 C18 1_555 1_555
H13 C29 1_555 1_555
C15 C16 1_555 1_555
S1 C2 1_555 1_555
Zn1 O1 1_555 1_555
O1 C1 1_555 1_555
O2 C1 1_555 1_555
O3 C6 1_555 1_555
O4 C6 1_555 1_555
O6 C12 1_555 1_555
N1 Zn1 1_555 1_555
C1 C2 1_555 1_555
C2 C3 1_555 1_555
C3 H1 1_555 1_555
C4 C3 1_555 1_555
H2 C4 1_555 1_555
C5 S1 1_555 1_555
C6 C5 1_555 1_555
C7 N1 1_555 1_555
H3 C7 1_555 1_555
C11 N1 1_555 1_555
H6 C11 1_555 1_555
C13 C12 1_555 1_555
Zn5 O4 1_555 1_555
Zn6 O3 1_555 1_555
O17 Zn1 1_555 1_555
C4 C5 1_555 1_555
O8 C24 1_555 1_555
N3 C19 1_555 1_555
C19 H9 1_555 1_555
C23 N3 1_555 1_555
H12 C23 1_555 1_555
C25 C24 1_555 1_555
S2 C32 1_555 1_555
Zn2 N3 1_555 1_555
O9 Zn2 1_555 1_555
O10 C31 1_555 1_555
O11 C36 1_555 1_555
O12 C36 1_555 1_555
C31 O9 1_555 1_555
C32 C31 1_555 1_555
C33 C32 1_555 1_555
H15 C33 1_555 1_555
C34 C33 1_555 1_555
H16 C34 1_555 1_555
C35 S2 1_555 1_555
C36 C35 1_555 1_555
Zn3 O11 1_555 1_555
Zn8 O12 1_555 1_555
O18 Zn2 1_555 1_555
C34 C35 1_555 1_555
H7 C17 1_555 1_555
O7 C28 1_555 1_555
N4 C22 1_555 1_555
H10 C20 1_555 1_555
C21 C20 1_555 1_555
H11 C21 1_555 1_555
C22 C21 1_555 1_555
C27 C26 1_555 1_555
C28 N4 1_555 1_555
C30 C17 1_555 1_555
H14 C30 1_555 1_555
C27 C28 1_555 1_555
C27 C30 1_555 1_555
H7_2 C17_2 1_555 1_555
O7_2 C28_2 1_555 1_555
O8_2 C24_2 1_555 1_555
N3_2 C19_2 1_555 1_555
N4_2 C22_2 1_555 1_555
C19_2 H9_2 1_555 1_555
C20_2 C19_2 1_555 1_555
H10_2 C20_2 1_555 1_555
C21_2 C20_2 1_555 1_555
H11_2 C21_2 1_555 1_555
C22_2 C21_2 1_555 1_555
C23_2 N3_2 1_555 1_555
H12_2 C23_2 1_555 1_555
C24_2 N4_2 1_555 1_555
C25_2 C24_2 1_555 1_555
C27_2 C26_2 1_555 1_555
C28_2 N4_2 1_555 1_555
C30_2 C17_2 1_555 1_555
H14_2 C30_2 1_555 1_555
S2_2 C32_2 1_555 1_555
Zn6 N3_2 1_555 1_555
O9_2 Zn6 1_555 1_555
O10_2 C31_2 1_555 1_555
O16 C36_2 1_555 1_555
O12_2 C36_2 1_555 1_555
C31_2 O9_2 1_555 1_555
C32_2 C31_2 1_555 1_555
C33_2 C32_2 1_555 1_555
H15_2 C33_2 1_555 1_555
C34_2 C33_2 1_555 1_555
H16_2 C34_2 1_555 1_555
C35_2 S2_2 1_555 1_555
C36_2 C35_2 1_555 1_555
Zn5 O10_2 1_555 1_555
Zn7 O12_2 1_555 1_555
O13_2 Zn6 1_555 1_555
O18_2 Zn6 1_555 1_555
C22_2 C23_2 1_555 1_555
C25_2 C26_2 1_555 1_555
C27_2 C28_2 1_555 1_555
C27_2 C30_2 1_555 1_555
C34_2 C35_2 1_555 1_555
S1_2 C2_2 1_555 1_555
Zn3 O1_2 1_555 1_555
O1_2 C1_2 1_555 1_555
O2_2 C1_2 1_555 1_555
O15 C6_2 1_555 1_555
O4_2 C6_2 1_555 1_555
O5_2 C16_2 1_555 1_555
O6_2 C12_2 1_555 1_555
N1_2 Zn3 1_555 1_555
N2_2 C10_2 1_555 1_555
C1_2 C2_2 1_555 1_555
C2_2 C3_2 1_555 1_555
C3_2 H1_2 1_555 1_555
C4_2 C3_2 1_555 1_555
H2_2 C4_2 1_555 1_555
C5_2 S1_2 1_555 1_555
C6_2 C5_2 1_555 1_555
C7_2 N1_2 1_555 1_555
H3_2 C7_2 1_555 1_555
C8_2 C7_2 1_555 1_555
H4_2 C8_2 1_555 1_555
C9_2 C8_2 1_555 1_555
H5_2 C9_2 1_555 1_555
C10_2 C9_2 1_555 1_555
C11_2 N1_2 1_555 1_555
H6_2 C11_2 1_555 1_555
C12_2 N2_2 1_555 1_555
C13_2 C12_2 1_555 1_555
C14_2 C13_2 1_555 1_555
C15_2 C14_2 1_555 1_555
C16_2 N2_2 1_555 1_555
C18_2 C15_2 1_555 1_555
H8_2 C18_2 1_555 1_555
C29_2 C18_2 1_555 1_555
H13_2 C29_2 1_555 1_555
Zn4 O4_2 1_555 1_555
Zn8 O2_2 1_555 1_555
O14_2 Zn3 1_555 1_555
O17_2 Zn3 1_555 1_555
C4_2 C5_2 1_555 1_555
C10_2 C11_2 1_555 1_555
C15_2 C16_2 1_555 1_555
O8_3 C24_3 1_555 1_555
N3_3 C19_3 1_555 1_555
C19_3 H9_3 1_555 1_555
C23_3 N3_3 1_555 1_555
H12_3 C23_3 1_555 1_555
C25_3 C24_3 1_555 1_555
C29_3 C18_3 1_555 1_555
H13_3 C29_3 1_555 1_555
Zn7 N3_3 1_555 1_555
O9_3 Zn7 1_555 1_555
O14 C31_3 1_555 1_555
C31_3 O9_3 1_555 1_555
C32_3 C31_3 1_555 1_555
C33_3 C32_3 1_555 1_555
H15_3 C33_3 1_555 1_555
C25_3 C29_3 1_555 1_555
O3_2 C6_3 1_555 1_555
O17_2 C6_3 1_555 1_555
H2_3 C4_3 1_555 1_555
C5_3 S1_3 1_555 1_555
C6_3 C5_3 1_555 1_555
O7_3 C28_3 1_555 1_555
N4_3 C22_3 1_555 1_555
H10_3 C20_3 1_555 1_555
C21_3 C20_3 1_555 1_555
H11_3 C21_3 1_555 1_555
C22_3 C21_3 1_555 1_555
C27_3 C26_3 1_555 1_555
C28_3 N4_3 1_555 1_555
Zn8 O3_2 1_555 1_555
C4_3 C5_3 1_555 1_555
C27_3 C28_3 1_555 1_555
O5_3 C16_3 1_555 1_555
N2_3 C10_3 1_555 1_555
H4_3 C8_3 1_555 1_555
C9_3 C8_3 1_555 1_555
H5_3 C9_3 1_555 1_555
C10_3 C9_3 1_555 1_555
C15_3 C14_3 1_555 1_555
C16_3 N2_3 1_555 1_555
O11_2 C36_3 1_555 1_555
O18_2 C36_3 1_555 1_555
H16_3 C34_3 1_555 1_555
C35_3 S2_3 1_555 1_555
C36_3 C35_3 1_555 1_555
Zn5 O11_2 1_555 1_555
C15_3 C16_3 1_555 1_555
C34_3 C35_3 1_555 1_555
Zn4 O1_3 1_555 1_555
O1_3 C1_3 1_555 1_555
O13 C1_3 1_555 1_555
O6_3 C12_3 1_555 1_555
N1_3 Zn4 1_555 1_555
C1_3 C2_3 1_555 1_555
C2_3 C3_3 1_555 1_555
C3_3 H1_3 1_555 1_555
C7_3 N1_3 1_555 1_555
H3_3 C7_3 1_555 1_555
C11_3 N1_3 1_555 1_555
H6_3 C11_3 1_555 1_555
C13_3 C12_3 1_555 1_555
C17_3 C13_3 1_555 1_555
H7_3 C17_3 1_555 1_555
C30_3 C17_3 1_555 1_555
O15_2 C6_4 1_555 1_555
O17 C6_4 1_555 1_555
H2_4 C4_4 1_555 1_555
C5_4 S1_4 1_555 1_555
C6_4 C5_4 1_555 1_555
O7_4 C28_4 1_555 1_555
O8_4 C24_4 1_555 1_555
N3_4 C19_4 1_555 1_555
N4_4 C22_4 1_555 1_555
C19_4 H9_4 1_555 1_555
C20_4 C19_4 1_555 1_555
H10_4 C20_4 1_555 1_555
C21_4 C20_4 1_555 1_555
H11_4 C21_4 1_555 1_555
C22_4 C21_4 1_555 1_555
C23_4 N3_4 1_555 1_555
H12_4 C23_4 1_555 1_555
C24_4 N4_4 1_555 1_555
C25_4 C24_4 1_555 1_555
C27_4 C26_4 1_555 1_555
C28_4 N4_4 1_555 1_555
C29_4 C18_4 1_555 1_555
H13_4 C29_4 1_555 1_555
Zn8 N3_4 1_555 1_555
O9_4 Zn8 1_555 1_555
O14_2 C31_4 1_555 1_555
C31_4 O9_4 1_555 1_555
C32_4 C31_4 1_555 1_555
C33_4 C32_4 1_555 1_555
H15_4 C33_4 1_555 1_555
C4_4 C5_4 1_555 1_555
C22_4 C23_4 1_555 1_555
C25_4 C26_4 1_555 1_555
C25_4 C29_4 1_555 1_555
C27_4 C28_4 1_555 1_555
Zn5 O1_4 1_555 1_555
O1_4 C1_4 1_555 1_555
O13_2 C1_4 1_555 1_555
O5_4 C16_4 1_555 1_555
O6_4 C12_4 1_555 1_555
N1_4 Zn5 1_555 1_555
N2_4 C10_4 1_555 1_555
C1_4 C2_4 1_555 1_555
C2_4 C3_4 1_555 1_555
C3_4 H1_4 1_555 1_555
C7_4 N1_4 1_555 1_555
H3_4 C7_4 1_555 1_555
C8_4 C7_4 1_555 1_555
H4_4 C8_4 1_555 1_555
C9_4 C8_4 1_555 1_555
H5_4 C9_4 1_555 1_555
C10_4 C9_4 1_555 1_555
C11_4 N1_4 1_555 1_555
H6_4 C11_4 1_555 1_555
C12_4 N2_4 1_555 1_555
C13_4 C12_4 1_555 1_555
C14_4 C13_4 1_555 1_555
C15_4 C14_4 1_555 1_555
C16_4 N2_4 1_555 1_555
C17_4 C13_4 1_555 1_555
H7_4 C17_4 1_555 1_555
C30_4 C17_4 1_555 1_555
O16_2 C36_4 1_555 1_555
O18 C36_4 1_555 1_555
H16_4 C34_4 1_555 1_555
C35_4 S2_4 1_555 1_555
C36_4 C35_4 1_555 1_555
C10_4 C11_4 1_555 1_555
C15_4 C16_4 1_555 1_555
C34_4 C35_4 1_555 1_555

#END
