
###############################################################################
#
# This file contains modified crystal structure data generated from the
# MOF subset of the Cambridge Structural Database (CSD) v543 
# hosted by the Cambridge Crystallographic Data Centre (CCDC).
#
# This work is licensed under the Creative Commons
# Attribution-NonCommercial-ShareAlike 4.0 International License.
# To view a copy of this license, visit
# http://creativecommons.org/licenses/by-nc-sa/4.0/
# or send a letter to
# Creative Commons, PO Box 1866, Mountain View, CA 94042, USA.
#
# CIF created using the CSD Python API on 29 September 2022
# The structure has been converted into the P1 space group
# The structure has a 3D framework
# The original CSD entry ROLLUC is in the monoclinic crystal system
# The original CSD entry ROLLUC is in a Sohncke space group
# The framework has been calculated to contain at least 10.0% void space
# The void calculation uses a probe of radius 1.32A, grid spacing 0.4
# H atom positions have been added when not included in the experimental data
#
###############################################################################

data_ROLLUC
_chemical_formula_moiety         '(C58 H40 Mn4 O22)n'
_symmetry_cell_setting           triclinic
_symmetry_space_group_name_H-M   'P 1'
_symmetry_Int_Tables_number      1
_space_group_name_Hall           'P 1'
loop_
_symmetry_equiv_pos_site_id
_symmetry_equiv_pos_as_xyz
1 x,y,z
_cell_length_a                   10.2032(8)
_cell_length_b                   16.9556(13)
_cell_length_c                   18.7518(14)
_cell_angle_alpha                90
_cell_angle_beta                 95.024(5)
_cell_angle_gamma                90
_cell_volume                     3231.62
loop_
_atom_site_label
_atom_site_type_symbol
_atom_site_fract_x
_atom_site_fract_y
_atom_site_fract_z
O7 O 0.3667(4) 0.1828(3) 0.2627(2)
O11 O 0.2897(4) 0.2144(3) 0.3658(2)
C3 C 0.0294(6) 0.1995(4) 0.3099(3)
H1 H 0.0461 0.2107 0.3584
C7 C 0.0330(8) 0.1913(5) 0.0358(4)
H3 H 0.1133 0.2123 0.0539
C21 C 0.1334(6) 0.1890(4) 0.2654(3)
C22 C 0.1101(6) 0.1776(4) 0.1931(3)
H10 H 0.1804 0.1731 0.1650
C23 C 0.2729(6) 0.1944(4) 0.2981(3)
Mn6 Mn 0.51123(8) 0.20797(5) 0.35450(4)
Mn1 Mn 0.76561(8) 0.26620(5) 0.48968(4)
O1 O 0.6743(4) 0.1876(3) 0.2974(2)
O2 O 0.8162(4) 0.2242(3) 0.3885(2)
O5 O 0.8883(6) 0.1650(3) 0.5355(3)
O6 O 0.7397(5) 0.3034(3) 0.6001(2)
O8 O 0.9493(5) 0.3354(4) 0.4932(3)
C1 C 0.7905(6) 0.2020(4) 0.3259(3)
C2 C 0.9003(6) 0.1923(4) 0.2779(3)
C4 C 0.8756(7) 0.1797(4) 0.2062(3)
H2 H 0.7890 0.1756 0.1865
C5 C 0.9795(6) 0.1726(4) 0.1608(3)
C6 C 0.9496(7) 0.1627(5) 0.0826(4)
C14 C 0.8398(8) 0.1213(5) 0.0532(4)
H7 H 0.7847 0.0977 0.0839
O12 O 0.5799(4) 0.1984(3) 0.4794(2)
O13 O 0.5105(5) 0.0967(3) 0.4161(2)
O15 O 0.6550(4) 0.3660(3) 0.4531(2)
O16 O 0.5288(4) 0.3301(3) 0.3561(2)
H15 H 0.945454 0.371972 0.451709
H16 H 0.959807 0.366232 0.538361
H17 H 0.810495 0.341053 0.616612
H18 H 0.652762 0.329402 0.601516
H19 H 0.979874 0.170744 0.522156
H20 H 0.888404 0.165034 0.58846
C9 C 0.8929(8) 0.1481(5) 0.9360(4)
C10 C 0.8384(7) 0.1350(4) 0.8615(4)
C11 C 0.7246(8) 0.0907(5) 0.8653(4)
C12 C 0.6948(8) 0.0749(5) 0.9423(5)
H5 H 0.6126 0.0990 0.9531
H6 H 0.6926 0.0189 0.9527
C13 C 0.8103(7) 0.1142(5) 0.9810(4)
C15 C 0.5495(6) 0.1287(4) 0.4759(3)
C16 C 0.5489(6) 0.0791(3) 0.5426(3)
C17 C 0.4902(5) 0.0064(3) 0.5400(3)
C18 C 0.6159(6) 0.1051(3) 0.6058(3)
H9 H 0.6587 0.1535 0.6062
C19 C 0.6212(6) 0.0604(4) 0.6696(3)
C20 C 0.6914(7) 0.0867(4) 0.7367(3)
C27 C 0.6525(7) 0.0655(5) 0.8008(4)
H12 H 0.5781 0.0342 0.8029
C28 C 0.8114(7) 0.1302(5) 0.7336(4)
H13 H 0.8434 0.1407 0.6897
C29 C 0.8795(8) 0.1565(5) 0.7965(4)
H14 H 0.9529 0.1887 0.7945
O9 O 0.3450(4) 0.8660(3) 0.5469(2)
O10 O 0.4712(4) 0.8301(3) 0.6439(2)
H8 H 0.4483 0.9891 0.4968
C24 C 0.4907(5) 0.9576(3) 0.5993(3)
C25 C 0.5589(6) 0.9875(4) 0.6634(3)
H11 H 0.5619 0.9559 0.7040
C26 C 0.4316(6) 0.8814(4) 0.5978(3)
Mn4 Mn 0.23439(8) 0.76620(5) 0.51032(4)
Mn7 Mn 0.48877(8) 0.70797(5) 0.64550(4)
O3 O 0.4201(4) 0.6984(3) 0.5206(2)
O4 O 0.4895(5) 0.5967(3) 0.5839(2)
C9_2 C 0.1071(8) 0.6481(5) 0.0640(4)
C10_2 C 0.1616(7) 0.6350(4) 0.1385(4)
C11_2 C 0.2754(8) 0.5907(5) 0.1347(4)
C12_2 C 0.3052(8) 0.5749(5) 0.0577(5)
H5_2 H 0.3874 0.5990 0.0469
H6_2 H 0.3074 0.5189 0.0473
C13_2 C 0.1897(7) 0.6142(5) 0.0190(4)
C15_2 C 0.4505(6) 0.6287(4) 0.5241(3)
C16_2 C 0.4511(6) 0.5791(3) 0.4574(3)
C17_2 C 0.5098(5) 0.5064(3) 0.4600(3)
H8_2 H 0.5517 0.4891 0.5032
C18_2 C 0.3841(6) 0.6051(3) 0.3942(3)
H9_2 H 0.3413 0.6535 0.3938
C19_2 C 0.3788(6) 0.5604(4) 0.3304(3)
C20_2 C 0.3086(7) 0.5867(4) 0.2633(3)
C24_2 C 0.5093(5) 0.4576(3) 0.4007(3)
C25_2 C 0.4411(6) 0.4875(4) 0.3366(3)
H11_2 H 0.4381 0.4559 0.2960
C26_2 C 0.5684(6) 0.3814(4) 0.4022(3)
C27_2 C 0.3475(7) 0.5655(5) 0.1992(4)
H12_2 H 0.4219 0.5342 0.1971
C28_2 C 0.1886(7) 0.6302(5) 0.2664(4)
H13_2 H 0.1566 0.6407 0.3103
C29_2 C 0.1205(8) 0.6565(5) 0.2035(4)
H14_2 H 0.0471 0.6887 0.2055
O1_2 O 0.3257(4) 0.6876(3) 0.7026(2)
O2_2 O 0.1838(4) 0.7242(3) 0.6115(2)
O5_2 O 0.1117(6) 0.6650(3) 0.4645(3)
O6_2 O 0.2603(5) 0.8034(3) 0.3999(2)
O8_2 O 0.0507(5) 0.8354(4) 0.5068(3)
C1_2 C 0.2095(6) 0.7020(4) 0.6741(3)
C2_2 C 0.0997(6) 0.6923(4) 0.7221(3)
C4_2 C 0.1244(7) 0.6797(4) 0.7938(3)
H2_2 H 0.2110 0.6756 0.8135
C5_2 C 0.0205(6) 0.6726(4) 0.8392(3)
C6_2 C 0.0504(7) 0.6627(5) 0.9174(4)
C14_2 C 0.1602(8) 0.6213(5) 0.9468(4)
H7_2 H 0.2153 0.5977 0.9161
O14 O 0.6333(4) 0.6828(3) 0.7373(2)
O17 O 0.7103(4) 0.7144(3) 0.6342(2)
H15_2 H 0.054546 0.871972 0.548291
H16_2 H 0.0401926 0.866232 0.461639
H17_2 H 0.189505 0.841053 0.383388
H18_2 H 0.347238 0.829402 0.398484
H19_2 H 0.0201261 0.670744 0.477844
H20_2 H 0.111596 0.665034 0.41154
C3_2 C 0.9706(6) 0.6995(4) 0.6901(3)
H1_2 H 0.9539 0.7107 0.6416
C7_2 C 0.9670(8) 0.6913(5) 0.9642(4)
H3_2 H 0.8867 0.7123 0.9461
C21_2 C 0.8666(6) 0.6890(4) 0.7346(3)
C22_2 C 0.8899(6) 0.6776(4) 0.8069(3)
H10_2 H 0.8196 0.6731 0.8350
C23_2 C 0.7271(6) 0.6944(4) 0.7019(3)
C8 C 0.0016(9) 0.1900(6) 0.9606(4)
H4 H 0.0527 0.2164 0.9296
C8_2 C 0.9984(9) 0.6900(6) 0.0394(4)
H4_2 H 0.9473 0.7164 0.0704
loop_
_geom_bond_atom_site_label_1
_geom_bond_atom_site_label_2
_geom_bond_site_symmetry_1
_geom_bond_site_symmetry_2
O7 C23 1_555 1_555
O11 C23 1_555 1_555
C3 H1 1_555 1_555
H3 C7 1_555 1_555
C21 C3 1_555 1_555
H10 C22 1_555 1_555
C23 C21 1_555 1_555
Mn6 O7 1_555 1_555
O11 Mn6 1_555 1_555
C21 C22 1_555 1_555
Mn1 O2 1_555 1_555
Mn6 O1 1_555 1_555
O1 C1 1_555 1_555
O2 C1 1_555 1_555
O5 Mn1 1_555 1_555
O6 Mn1 1_555 1_555
O8 Mn1 1_555 1_555
C1 C2 1_555 1_555
C4 C2 1_555 1_555
H2 C4 1_555 1_555
C5 C4 1_555 1_555
C6 C5 1_555 1_555
C14 C6 1_555 1_555
H7 C14 1_555 1_555
O12 Mn1 1_555 1_555
O13 Mn6 1_555 1_555
O15 Mn1 1_555 1_555
O16 Mn6 1_555 1_555
Mn6 O12 1_555 1_555
O8 H15 1_555 1_555
O8 H16 1_555 1_555
O6 H17 1_555 1_555
O6 H18 1_555 1_555
O5 H19 1_555 1_555
O5 H20 1_555 1_555
O12 C15 1_555 1_555
O13 C15 1_555 1_555
C10 C9 1_555 1_555
C11 C10 1_555 1_555
C12 C11 1_555 1_555
H5 C12 1_555 1_555
H6 C12 1_555 1_555
C13 C9 1_555 1_555
C15 C16 1_555 1_555
C16 C17 1_555 1_555
C18 C16 1_555 1_555
H9 C18 1_555 1_555
C19 C18 1_555 1_555
C20 C19 1_555 1_555
C27 C11 1_555 1_555
H12 C27 1_555 1_555
C28 C20 1_555 1_555
H13 C28 1_555 1_555
C29 C10 1_555 1_555
H14 C29 1_555 1_555
C12 C13 1_555 1_555
C20 C27 1_555 1_555
C28 C29 1_555 1_555
O9 C26 1_555 1_555
O10 C26 1_555 1_555
H11 C25 1_555 1_555
C26 C24 1_555 1_555
Mn4 O9 1_555 1_555
Mn7 O10 1_555 1_555
C24 C25 1_555 1_555
O3 C15_2 1_555 1_555
O4 C15_2 1_555 1_555
O15 C26_2 1_555 1_555
O16 C26_2 1_555 1_555
C10_2 C9_2 1_555 1_555
C11_2 C10_2 1_555 1_555
C12_2 C11_2 1_555 1_555
H5_2 C12_2 1_555 1_555
H6_2 C12_2 1_555 1_555
C13_2 C9_2 1_555 1_555
C15_2 C16_2 1_555 1_555
C16_2 C17_2 1_555 1_555
C17_2 H8_2 1_555 1_555
C18_2 C16_2 1_555 1_555
H9_2 C18_2 1_555 1_555
C19_2 C18_2 1_555 1_555
C20_2 C19_2 1_555 1_555
C24_2 C17_2 1_555 1_555
C25_2 C19_2 1_555 1_555
H11_2 C25_2 1_555 1_555
C26_2 C24_2 1_555 1_555
C27_2 C11_2 1_555 1_555
H12_2 C27_2 1_555 1_555
C28_2 C20_2 1_555 1_555
H13_2 C28_2 1_555 1_555
C29_2 C10_2 1_555 1_555
H14_2 C29_2 1_555 1_555
Mn4 O3 1_555 1_555
Mn7 O3 1_555 1_555
O4 Mn7 1_555 1_555
C12_2 C13_2 1_555 1_555
C20_2 C27_2 1_555 1_555
C24_2 C25_2 1_555 1_555
C28_2 C29_2 1_555 1_555
Mn4 O2_2 1_555 1_555
Mn7 O1_2 1_555 1_555
O1_2 C1_2 1_555 1_555
O2_2 C1_2 1_555 1_555
O5_2 Mn4 1_555 1_555
O6_2 Mn4 1_555 1_555
O8_2 Mn4 1_555 1_555
C1_2 C2_2 1_555 1_555
C4_2 C2_2 1_555 1_555
H2_2 C4_2 1_555 1_555
C5_2 C4_2 1_555 1_555
C6_2 C5_2 1_555 1_555
C14_2 C6_2 1_555 1_555
H7_2 C14_2 1_555 1_555
O14 Mn7 1_555 1_555
O17 Mn7 1_555 1_555
O8_2 H15_2 1_555 1_555
O8_2 H16_2 1_555 1_555
O6_2 H17_2 1_555 1_555
O6_2 H18_2 1_555 1_555
O5_2 H19_2 1_555 1_555
O5_2 H20_2 1_555 1_555
O14 C23_2 1_555 1_555
O17 C23_2 1_555 1_555
C3_2 H1_2 1_555 1_555
H3_2 C7_2 1_555 1_555
C21_2 C3_2 1_555 1_555
H10_2 C22_2 1_555 1_555
C23_2 C21_2 1_555 1_555
C21_2 C22_2 1_555 1_555
H4 C8 1_555 1_555
H4_2 C8_2 1_555 1_555

#END
