
###############################################################################
#
# This file contains modified crystal structure data generated from the
# MOF subset of the Cambridge Structural Database (CSD) v543 
# hosted by the Cambridge Crystallographic Data Centre (CCDC).
#
# This work is licensed under the Creative Commons
# Attribution-NonCommercial-ShareAlike 4.0 International License.
# To view a copy of this license, visit
# http://creativecommons.org/licenses/by-nc-sa/4.0/
# or send a letter to
# Creative Commons, PO Box 1866, Mountain View, CA 94042, USA.
#
# CIF created using the CSD Python API on 29 September 2022
# The structure has been converted into the P1 space group
# The structure has a 3D framework
# The original CSD entry ROMQAN is in the monoclinic crystal system
# The framework has been calculated to contain at least 10.0% void space
# The void calculation uses a probe of radius 1.32A, grid spacing 0.4
# H atom positions have been added when not included in the experimental data
#
###############################################################################

data_ROMQAN
_chemical_formula_moiety         '(C84 H80 O48 Zn8)n'
_symmetry_cell_setting           triclinic
_symmetry_space_group_name_H-M   'P 1'
_symmetry_Int_Tables_number      1
_space_group_name_Hall           'P 1'
loop_
_symmetry_equiv_pos_site_id
_symmetry_equiv_pos_as_xyz
1 x,y,z
_cell_length_a                   7.8080(16)
_cell_length_b                   17.456(3)
_cell_length_c                   18.918(5)
_cell_angle_alpha                90
_cell_angle_beta                 106.42(3)
_cell_angle_gamma                90
_cell_volume                     2473.29
loop_
_atom_site_label
_atom_site_type_symbol
_atom_site_fract_x
_atom_site_fract_y
_atom_site_fract_z
H17 H 0.558602 0.860961 0.0216451
H18 H 0.564345 0.952052 0.005664
Zn1 Zn 0.79084(12) 0.79801(5) 0.78017(4)
Zn2 Zn 0.54075(12) 0.87996(5) 0.88647(5)
O1 O 0.4334(8) 0.7847(3) 0.8400(3)
O2 O 0.5874(8) 0.7294(3) 0.7690(3)
O3 O 0.3622(9) 0.4694(3) 0.6539(3)
O4 O 0.3043(9) 0.4012(3) 0.7430(3)
O11 O 0.5053(10) 0.9028(5) 0.9868(4)
O12 O 0.2797(11) 0.9290(4) 0.8470(5)
C1 C 0.3139(11) 0.4627(4) 0.7128(4)
C2 C 0.2699(10) 0.5348(4) 0.7469(4)
C3 C 0.3698(10) 0.6001(4) 0.7485(4)
H1 H 0.4583 0.6014 0.7243
C4 C 0.3370(9) 0.6643(4) 0.7864(4)
C5 C 0.1975(10) 0.6630(4) 0.8180(4)
H2 H 0.1698 0.7069 0.8405
C6 C 0.0990(11) 0.5969(5) 0.8165(5)
C7 C 0.1354(11) 0.5321(4) 0.7822(4)
H3 H 0.0715 0.4871 0.7825
C8 C 0.4612(11) 0.7317(4) 0.7986(4)
Zn4 Zn 0.20916(12) 0.29801(5) 0.71983(4)
Zn7 Zn 0.45925(12) 0.37996(5) 0.61353(5)
O13 O 0.6378(9) 0.9694(3) 0.8461(3)
O14 O 0.6957(9) 0.9012(3) 0.7570(3)
O15 O 0.8719(7) 0.7559(3) 0.6991(3)
O16 O 0.7763(8) 0.8332(4) 0.9457(3)
O17 O 0.9544(8) 0.7940(3) 0.8793(3)
H19 H 0.195535 0.900641 0.868168
H20 H 0.283791 0.983598 0.862123
O8 O 0.8719(7) 0.7441(3) 0.1991(3)
C17 C 0.9735(10) 0.7556(4) 0.0684(4)
H15 H 0.8656 0.7774 0.0694
C20 C 0.9996(11) 0.7010(5) 0.1931(4)
Zn5 Zn 0.79084(12) 0.70199(5) 0.28017(4)
C21 C 0.9110(10) 0.8004(4) 0.9386(4)
O8_2 O 0.1281(7) 0.2441(3) 0.3009(3)
O9 O 0.2237(8) 0.3332(4) 0.5543(3)
O10 O 0.0456(8) 0.2940(3) 0.6207(3)
C17_2 C 0.0265(10) 0.2556(4) 0.4316(4)
H15_2 H 0.1344 0.2774 0.4306
C20_2 C 0.0004(11) 0.2010(5) 0.3069(4)
C21_2 C 0.0890(10) 0.3004(4) 0.5614(4)
Zn5_2 Zn 0.20916(12) 0.20199(5) 0.21983(4)
O1_2 O 0.5666(8) 0.2847(3) 0.6600(3)
O2_2 O 0.4126(8) 0.2294(3) 0.7310(3)
O11_2 O 0.4947(10) 0.4028(5) 0.5132(4)
O12_2 O 0.7203(11) 0.4290(4) 0.6530(5)
C2_2 C 0.7301(10) 0.0348(4) 0.7531(4)
C3_2 C 0.6302(10) 0.1001(4) 0.7515(4)
H1_2 H 0.5417 0.1014 0.7757
C4_2 C 0.6630(9) 0.1643(4) 0.7136(4)
C5_2 C 0.8025(10) 0.1630(4) 0.6820(4)
H2_2 H 0.8302 0.2069 0.6595
C6_2 C 0.9010(11) 0.0969(5) 0.6835(5)
C7_2 C 0.8646(11) 0.0321(4) 0.7178(4)
C8_2 C 0.5388(11) 0.2317(4) 0.7014(4)
O15_2 O 0.1281(7) 0.2559(3) 0.8009(3)
H17_2 H 0.441398 0.360961 0.478355
H18_2 H 0.435655 0.452052 0.494336
H19_2 H 0.804465 0.400641 0.631832
H20_2 H 0.716209 0.483598 0.637877
C1_2 C 0.6861(11) 0.9627(4) 0.7872(4)
H3_2 H 0.9285 0.9871 0.7175
O9_2 O 0.2237(8) 0.1668(4) 0.0543(3)
O10_2 O 0.0456(8) 0.2060(3) 0.1207(3)
C21_3 C 0.0890(10) 0.1996(4) 0.0614(4)
Zn6 Zn 0.45925(12) 0.12004(5) 0.11353(5)
C17_3 C 0.0265(10) 0.2444(4) 0.9316(4)
H15_3 H 0.1344 0.2226 0.9306
C20_3 C 0.0004(11) 0.2990(5) 0.8069(4)
O1_3 O 0.5666(8) 0.2153(3) 0.1600(3)
O2_3 O 0.4126(8) 0.2706(3) 0.2310(3)
O3_2 O 0.6378(9) 0.5306(3) 0.3461(3)
O4_2 O 0.6957(9) 0.5988(3) 0.2570(3)
O11_3 O 0.4947(10) 0.0972(5) 0.0132(4)
O12_3 O 0.7203(11) 0.0710(4) 0.1530(5)
C1_3 C 0.6861(11) 0.5373(4) 0.2872(4)
C2_3 C 0.7301(10) 0.4652(4) 0.2531(4)
C3_3 C 0.6302(10) 0.3999(4) 0.2515(4)
H1_3 H 0.5417 0.3986 0.2757
C4_3 C 0.6630(9) 0.3357(4) 0.2136(4)
C5_3 C 0.8025(10) 0.3370(4) 0.1820(4)
H2_3 H 0.8302 0.2931 0.1595
C6_3 C 0.9010(11) 0.4031(5) 0.1835(5)
C7_3 C 0.8646(11) 0.4679(4) 0.2178(4)
H3_3 H 0.9285 0.5129 0.2175
C8_3 C 0.5388(11) 0.2683(4) 0.2014(4)
Zn7_2 Zn 0.54075(12) 0.62004(5) 0.38647(5)
O13_2 O 0.3622(9) 0.0306(3) 0.1539(3)
O14_2 O 0.3043(9) 0.0988(3) 0.2430(3)
H19_3 H 0.804465 0.0993585 0.131832
H20_3 H 0.716209 0.0164016 0.137877
C1_4 C 0.3139(11) 0.0373(4) 0.2128(4)
H3_4 H 0.0715 0.0129 0.2825
O1_4 O 0.4334(8) 0.7153(3) 0.3400(3)
O2_4 O 0.5874(8) 0.7706(3) 0.2690(3)
O11_4 O 0.5053(10) 0.5972(5) 0.4868(4)
O12_4 O 0.2797(11) 0.5710(4) 0.3470(5)
C2_4 C 0.2699(10) 0.9652(4) 0.2469(4)
C3_4 C 0.3698(10) 0.8999(4) 0.2485(4)
H1_4 H 0.4583 0.8986 0.2243
C4_4 C 0.3370(9) 0.8357(4) 0.2864(4)
C5_4 C 0.1975(10) 0.8370(4) 0.3180(4)
H2_4 H 0.1698 0.7931 0.3405
C6_4 C 0.0990(11) 0.9031(5) 0.3165(5)
C7_4 C 0.1354(11) 0.9679(4) 0.2822(4)
C8_4 C 0.4612(11) 0.7683(4) 0.2986(4)
O16_2 O 0.7763(8) 0.6668(4) 0.4457(3)
O17_2 O 0.9544(8) 0.7060(3) 0.3793(3)
H17_3 H 0.558602 0.639039 0.521645
H18_3 H 0.564345 0.547948 0.505664
H19_4 H 0.195535 0.599359 0.368168
H20_4 H 0.283791 0.516402 0.362123
C17_4 C 0.9735(10) 0.7444(4) 0.5684(4)
H15_4 H 0.8656 0.7226 0.5694
C20_4 C 0.9996(11) 0.7990(5) 0.6931(4)
C21_4 C 0.9110(10) 0.6996(4) 0.4386(4)
O6 O 0.4567(8) 0.6566(4) 0.0697(3)
O7 O 0.0603(8) 0.6485(4) 0.2370(3)
C12 C 0.6581(16) 0.5912(8) 0.0182(6)
H10 H 0.6211 0.5400 0.0275
H11 H 0.7544 0.6076 0.0602
C13 C 0.5043(15) 0.6461(7) 0.0034(6)
C14 C 0.2968(10) 0.6921(5) 0.0661(4)
C15 C 0.2347(10) 0.6837(5) 0.1274(4)
H14 H 0.3027 0.6565 0.1680
C16 C 0.0742(10) 0.7148(4) 0.1293(4)
C18 C 0.0334(10) 0.7639(4) 0.0062(4)
C19 C 0.1980(10) 0.7328(5) 0.0053(4)
O5 O 0.9683(10) 0.6022(4) 0.8519(5)
C9 C 0.8840(16) 0.5348(8) 0.8652(6)
H4 H 0.9672 0.4926 0.8702
H5 H 0.7833 0.5245 0.8227
C10 C 0.822(3) 0.5371(13) 0.9291(14)
H6 H 0.7564 0.4900 0.9295
H7 H 0.9266 0.5351 0.9714
C11 C 0.721(3) 0.5938(13) 0.9410(14)
H8 H 0.6137 0.5955 0.8997
H9 H 0.7846 0.6414 0.9407
H12 H 0.5382 0.6948 0.9865
H13 H 0.4036 0.6258 0.9654
H16 H 0.2405 0.7394 0.9645
O5_2 O 0.0317(10) 0.1022(4) 0.6481(5)
O6_2 O 0.5433(8) 0.1566(4) 0.4303(3)
O7_2 O 0.9397(8) 0.1485(4) 0.2630(3)
C9_2 C 0.1160(16) 0.0348(8) 0.6348(6)
H5_2 H 0.2167 0.0245 0.6773
C10_2 C 0.178(3) 0.0371(13) 0.5709(14)
H7_2 H 0.0734 0.0351 0.5286
C11_2 C 0.279(3) 0.0938(13) 0.5590(14)
H8_2 H 0.3863 0.0955 0.6003
H9_2 H 0.2154 0.1414 0.5593
C12_2 C 0.3419(16) 0.0912(8) 0.4818(6)
H10_2 H 0.3789 0.0400 0.4725
H11_2 H 0.2456 0.1076 0.4398
C13_2 C 0.4957(15) 0.1461(7) 0.4966(6)
H12_2 H 0.4618 0.1948 0.5135
H13_2 H 0.5964 0.1258 0.5346
C14_2 C 0.7032(10) 0.1921(5) 0.4339(4)
C15_2 C 0.7653(10) 0.1837(5) 0.3726(4)
H14_2 H 0.6973 0.1565 0.3320
C16_2 C 0.9258(10) 0.2148(4) 0.3707(4)
C18_2 C 0.9666(10) 0.2639(4) 0.4938(4)
C19_2 C 0.8020(10) 0.2328(5) 0.4947(4)
H16_2 H 0.7595 0.2394 0.5355
H4_2 H 0.0328 0.9926 0.6298
H6_2 H 0.2436 0.9900 0.5705
O5_3 O 0.0317(10) 0.3978(4) 0.1481(5)
C9_3 C 0.1160(16) 0.4652(8) 0.1348(6)
H4_3 H 0.0328 0.5074 0.1298
H5_3 H 0.2167 0.4755 0.1773
C10_3 C 0.178(3) 0.4629(13) 0.0709(14)
H6_3 H 0.2436 0.5100 0.0705
H7_3 H 0.0734 0.4649 0.0286
C11_3 C 0.279(3) 0.4062(13) 0.0590(14)
H8_3 H 0.3863 0.4045 0.1003
H9_3 H 0.2154 0.3586 0.0593
H12_3 H 0.4618 0.3052 0.0135
H13_3 H 0.5964 0.3742 0.0346
H16_3 H 0.7595 0.2606 0.0355
O6_3 O 0.5433(8) 0.3434(4) 0.9303(3)
O7_3 O 0.9397(8) 0.3515(4) 0.7630(3)
C12_3 C 0.3419(16) 0.4088(8) 0.9818(6)
H10_3 H 0.3789 0.4600 0.9725
H11_3 H 0.2456 0.3924 0.9398
C13_3 C 0.4957(15) 0.3539(7) 0.9966(6)
C14_3 C 0.7032(10) 0.3079(5) 0.9339(4)
C15_3 C 0.7653(10) 0.3163(5) 0.8726(4)
H14_3 H 0.6973 0.3435 0.8320
C16_3 C 0.9258(10) 0.2852(4) 0.8707(4)
C18_3 C 0.9666(10) 0.2361(4) 0.9938(4)
C19_3 C 0.8020(10) 0.2672(5) 0.9947(4)
H17_4 H 0.441398 0.139039 0.978355
H18_4 H 0.435655 0.0479477 0.994336
H4_4 H 0.9672 0.0074 0.3702
H6_4 H 0.7564 0.0100 0.4295
O5_4 O 0.9683(10) 0.8978(4) 0.3519(5)
O6_4 O 0.4567(8) 0.8434(4) 0.5697(3)
O7_4 O 0.0603(8) 0.8515(4) 0.7370(3)
C9_4 C 0.8840(16) 0.9652(8) 0.3652(6)
H5_4 H 0.7833 0.9755 0.3227
C10_4 C 0.822(3) 0.9629(13) 0.4291(14)
H7_4 H 0.9266 0.9649 0.4714
C11_4 C 0.721(3) 0.9062(13) 0.4410(14)
H8_4 H 0.6137 0.9045 0.3997
H9_4 H 0.7846 0.8586 0.4407
C12_4 C 0.6581(16) 0.9088(8) 0.5182(6)
H10_4 H 0.6211 0.9600 0.5275
H11_4 H 0.7544 0.8924 0.5602
C13_4 C 0.5043(15) 0.8539(7) 0.5034(6)
H12_4 H 0.5382 0.8052 0.4865
H13_4 H 0.4036 0.8742 0.4654
C14_4 C 0.2968(10) 0.8079(5) 0.5661(4)
C15_4 C 0.2347(10) 0.8163(5) 0.6274(4)
H14_4 H 0.3027 0.8435 0.6680
C16_4 C 0.0742(10) 0.7852(4) 0.6293(4)
C18_4 C 0.0334(10) 0.7361(4) 0.5062(4)
C19_4 C 0.1980(10) 0.7672(5) 0.5053(4)
H16_4 H 0.2405 0.7606 0.4645
loop_
_geom_bond_atom_site_label_1
_geom_bond_atom_site_label_2
_geom_bond_site_symmetry_1
_geom_bond_site_symmetry_2
Zn1 O2 1_555 1_555
Zn2 O1 1_555 1_555
O1 C8 1_555 1_555
O2 C8 1_555 1_555
O3 C1 1_555 1_555
O4 C1 1_555 1_555
O11 Zn2 1_555 1_555
O12 Zn2 1_555 1_555
C1 C2 1_555 1_555
C2 C3 1_555 1_555
C3 H1 1_555 1_555
C4 C3 1_555 1_555
C5 C4 1_555 1_555
H2 C5 1_555 1_555
C6 C5 1_555 1_555
C7 C2 1_555 1_555
H3 C7 1_555 1_555
C8 C4 1_555 1_555
Zn4 O4 1_555 1_555
Zn7 O3 1_555 1_555
O13 Zn2 1_555 1_555
O14 Zn1 1_555 1_555
O15 Zn1 1_555 1_555
O16 Zn2 1_555 1_555
O17 Zn1 1_555 1_555
C6 C7 1_555 1_555
O12 H19 1_555 1_555
O12 H20 1_555 1_555
O8 C20 1_555 1_555
H15 C17 1_555 1_555
Zn5 O8 1_555 1_555
O16 C21 1_555 1_555
O17 C21 1_555 1_555
O8_2 C20_2 1_555 1_555
O9 C21_2 1_555 1_555
O10 C21_2 1_555 1_555
H15_2 C17_2 1_555 1_555
Zn4 O10 1_555 1_555
Zn5_2 O8_2 1_555 1_555
Zn7 O9 1_555 1_555
Zn4 O2_2 1_555 1_555
Zn7 O1_2 1_555 1_555
O1_2 C8_2 1_555 1_555
O2_2 C8_2 1_555 1_555
O11_2 Zn7 1_555 1_555
O12_2 Zn7 1_555 1_555
C2_2 C3_2 1_555 1_555
C3_2 H1_2 1_555 1_555
C4_2 C3_2 1_555 1_555
C5_2 C4_2 1_555 1_555
H2_2 C5_2 1_555 1_555
C6_2 C5_2 1_555 1_555
C7_2 C2_2 1_555 1_555
C8_2 C4_2 1_555 1_555
O15_2 Zn4 1_555 1_555
C6_2 C7_2 1_555 1_555
O11_2 H17_2 1_555 1_555
O11_2 H18_2 1_555 1_555
O12_2 H19_2 1_555 1_555
O12_2 H20_2 1_555 1_555
O13 C1_2 1_555 1_555
O14 C1_2 1_555 1_555
O9_2 C21_3 1_555 1_555
O10_2 C21_3 1_555 1_555
Zn5_2 O10_2 1_555 1_555
Zn6 O9_2 1_555 1_555
O15_2 C20_3 1_555 1_555
H15_3 C17_3 1_555 1_555
Zn5_2 O2_3 1_555 1_555
Zn6 O1_3 1_555 1_555
O1_3 C8_3 1_555 1_555
O2_3 C8_3 1_555 1_555
O3_2 C1_3 1_555 1_555
O4_2 C1_3 1_555 1_555
O11_3 Zn6 1_555 1_555
O12_3 Zn6 1_555 1_555
C1_3 C2_3 1_555 1_555
C2_3 C3_3 1_555 1_555
C3_3 H1_3 1_555 1_555
C4_3 C3_3 1_555 1_555
C5_3 C4_3 1_555 1_555
H2_3 C5_3 1_555 1_555
C6_3 C5_3 1_555 1_555
C7_3 C2_3 1_555 1_555
H3_3 C7_3 1_555 1_555
C8_3 C4_3 1_555 1_555
Zn5 O4_2 1_555 1_555
Zn7_2 O3_2 1_555 1_555
O13_2 Zn6 1_555 1_555
O14_2 Zn5_2 1_555 1_555
C6_3 C7_3 1_555 1_555
O12_3 H19_3 1_555 1_555
O12_3 H20_3 1_555 1_555
O13_2 C1_4 1_555 1_555
O14_2 C1_4 1_555 1_555
Zn5 O2_4 1_555 1_555
Zn7_2 O1_4 1_555 1_555
O1_4 C8_4 1_555 1_555
O2_4 C8_4 1_555 1_555
O11_4 Zn7_2 1_555 1_555
O12_4 Zn7_2 1_555 1_555
C2_4 C3_4 1_555 1_555
C3_4 H1_4 1_555 1_555
C4_4 C3_4 1_555 1_555
C5_4 C4_4 1_555 1_555
H2_4 C5_4 1_555 1_555
C6_4 C5_4 1_555 1_555
C7_4 C2_4 1_555 1_555
C8_4 C4_4 1_555 1_555
O16_2 Zn7_2 1_555 1_555
O17_2 Zn5 1_555 1_555
C6_4 C7_4 1_555 1_555
O11_4 H17_3 1_555 1_555
O11_4 H18_3 1_555 1_555
O12_4 H19_4 1_555 1_555
O12_4 H20_4 1_555 1_555
O15 C20_4 1_555 1_555
O16_2 C21_4 1_555 1_555
O17_2 C21_4 1_555 1_555
H15_4 C17_4 1_555 1_555
O6 C13 1_555 1_555
H10 C12 1_555 1_555
H11 C12 1_555 1_555
C13 C12 1_555 1_555
C14 O6 1_555 1_555
C15 C14 1_555 1_555
H14 C15 1_555 1_555
C16 C15 1_555 1_555
C19 C14 1_555 1_555
C18 C19 1_555 1_555
C9 O5 1_555 1_555
H4 C9 1_555 1_555
H5 C9 1_555 1_555
C10 C9 1_555 1_555
H6 C10 1_555 1_555
H7 C10 1_555 1_555
C11 C10 1_555 1_555
H8 C11 1_555 1_555
H9 C11 1_555 1_555
O6_2 C13_2 1_555 1_555
C9_2 O5_2 1_555 1_555
H5_2 C9_2 1_555 1_555
C10_2 C9_2 1_555 1_555
H7_2 C10_2 1_555 1_555
C11_2 C10_2 1_555 1_555
H8_2 C11_2 1_555 1_555
H9_2 C11_2 1_555 1_555
C12_2 C11_2 1_555 1_555
H10_2 C12_2 1_555 1_555
H11_2 C12_2 1_555 1_555
C13_2 C12_2 1_555 1_555
H12_2 C13_2 1_555 1_555
H13_2 C13_2 1_555 1_555
C14_2 O6_2 1_555 1_555
C15_2 C14_2 1_555 1_555
H14_2 C15_2 1_555 1_555
C16_2 C15_2 1_555 1_555
C19_2 C14_2 1_555 1_555
H16_2 C19_2 1_555 1_555
C18_2 C19_2 1_555 1_555
C9_3 O5_3 1_555 1_555
H4_3 C9_3 1_555 1_555
H5_3 C9_3 1_555 1_555
C10_3 C9_3 1_555 1_555
H6_3 C10_3 1_555 1_555
H7_3 C10_3 1_555 1_555
C11_3 C10_3 1_555 1_555
H8_3 C11_3 1_555 1_555
H9_3 C11_3 1_555 1_555
O6_3 C13_3 1_555 1_555
H10_3 C12_3 1_555 1_555
H11_3 C12_3 1_555 1_555
C13_3 C12_3 1_555 1_555
C14_3 O6_3 1_555 1_555
C15_3 C14_3 1_555 1_555
H14_3 C15_3 1_555 1_555
C16_3 C15_3 1_555 1_555
C19_3 C14_3 1_555 1_555
C18_3 C19_3 1_555 1_555
O6_4 C13_4 1_555 1_555
C9_4 O5_4 1_555 1_555
H5_4 C9_4 1_555 1_555
C10_4 C9_4 1_555 1_555
H7_4 C10_4 1_555 1_555
C11_4 C10_4 1_555 1_555
H8_4 C11_4 1_555 1_555
H9_4 C11_4 1_555 1_555
C12_4 C11_4 1_555 1_555
H10_4 C12_4 1_555 1_555
H11_4 C12_4 1_555 1_555
C13_4 C12_4 1_555 1_555
H12_4 C13_4 1_555 1_555
H13_4 C13_4 1_555 1_555
C14_4 O6_4 1_555 1_555
C15_4 C14_4 1_555 1_555
H14_4 C15_4 1_555 1_555
C16_4 C15_4 1_555 1_555
C19_4 C14_4 1_555 1_555
H16_4 C19_4 1_555 1_555
C18_4 C19_4 1_555 1_555

#END
