
###############################################################################
#
# This file contains modified crystal structure data generated from the
# MOF subset of the Cambridge Structural Database (CSD) v543 
# hosted by the Cambridge Crystallographic Data Centre (CCDC).
#
# This work is licensed under the Creative Commons
# Attribution-NonCommercial-ShareAlike 4.0 International License.
# To view a copy of this license, visit
# http://creativecommons.org/licenses/by-nc-sa/4.0/
# or send a letter to
# Creative Commons, PO Box 1866, Mountain View, CA 94042, USA.
#
# CIF created using the CSD Python API on 29 September 2022
# The structure has been converted into the P1 space group
# The structure has a 3D framework
# The original CSD entry ROQVOL is in the monoclinic crystal system
# The framework has been calculated to contain at least 10.0% void space
# The void calculation uses a probe of radius 1.32A, grid spacing 0.4
#
###############################################################################

data_ROQVOL
_chemical_formula_moiety         '(C99 H72 Cu6 N36 O20 Yb4)n'
_symmetry_cell_setting           triclinic
_symmetry_space_group_name_H-M   'P 1'
_symmetry_Int_Tables_number      1
_space_group_name_Hall           'P 1'
loop_
_symmetry_equiv_pos_site_id
_symmetry_equiv_pos_as_xyz
1 x,y,z
_cell_length_a                   25.429(2)
_cell_length_b                   7.8428(7)
_cell_length_c                   16.2588(15)
_cell_angle_alpha                90
_cell_angle_beta                 108.269(2)
_cell_angle_gamma                90
_cell_volume                     3079.13
loop_
_atom_site_label
_atom_site_type_symbol
_atom_site_fract_x
_atom_site_fract_y
_atom_site_fract_z
Yb1 Yb 0.42829(2) 0.37580(5) 0.49827(2)
Cu1 Cu 0.64905(6) 0.51227(17) 0.61014(9)
O1 O 0.4349(4) 0.6665(8) 0.5012(8)
N1 N 0.5223(4) 0.4563(12) 0.5434(7)
O2 O 0.4125(3) 0.4543(10) 0.6223(5)
O3 O 0.4107(3) 0.4486(10) 0.3574(5)
O4 O 0.4682(3) 0.1717(9) 0.6094(5)
N2 N 0.3654(4) 0.1425(12) 0.4673(6)
C1 C 0.3312(5) 0.0364(14) 0.4507(7)
O5 O 0.4693(3) 0.1731(9) 0.4256(5)
N4 N 0.3320(4) 0.5165(14) 0.4518(7)
C2 C 0.5699(5) 0.4875(13) 0.5691(7)
N5 N 0.5005(4) 0.2138(11) 0.3765(6)
N7 N 0.5014(4) 0.2148(12) 0.6881(6)
C4 C 0.3045(4) 0.6355(15) 0.4396(7)
C5 C 0.4159(5) 0.2486(15) 0.2538(7)
C6 C 0.3323(5) 0.1612(17) 0.1463(8)
H1 H 0.314299 0.104984 0.09484
C7 C 0.3293(5) 0.3370(14) 0.2641(8)
H2 H 0.309104 0.396063 0.29367
N8 N 0.3875(4) 0.3512(12) 0.6644(6)
C9 C 0.3025(5) 0.2443(17) 0.1912(7)
H3 H 0.26405 0.238013 0.172251
N9 N 0.3853(4) 0.3414(11) 0.2923(6)
C10 C 0.5572(5) 0.2070(15) 0.7046(7)
H4 H 0.571459 0.17483 0.660764
C11 C 0.3320(5) 0.3491(15) 0.6408(8)
H5 H 0.311296 0.40829 0.59174
C12 C 0.3057(5) 0.2595(16) 0.6890(8)
H6 H 0.267242 0.257501 0.672473
C13 C 0.5569(5) 0.2057(14) 0.4118(7)
H7 H 0.57271 0.179633 0.470202
C14 C 0.5674(5) 0.2754(16) 0.2732(8)
H8 H 0.589887 0.295551 0.238797
C15 C 0.3940(5) 0.1738(15) 0.7847(8)
H9 H 0.415139 0.116416 0.833988
C16 C 0.4191(5) 0.2604(15) 0.7336(8)
C17 C 0.5902(5) 0.2362(16) 0.3610(8)
H10 H 0.628523 0.230594 0.385487
C18 C 0.3362(5) 0.1731(17) 0.7615(8)
H11 H 0.318564 0.114434 0.795067
C19 C 0.5927(5) 0.2463(17) 0.7854(8)
H12 H 0.630778 0.242202 0.795305
C20 C 0.5725(5) 0.2919(16) 0.8522(8)
H13 H 0.596314 0.316286 0.907217
C21 C 0.5146(5) 0.3003(15) 0.8340(8)
H14 H 0.499767 0.331723 0.877304
C22 C 0.3897(5) 0.1621(15) 0.1787(7)
H15 H 0.410357 0.10417 0.149558
C23 C 0.5103(5) 0.2834(15) 0.2391(8)
H16 H 0.493926 0.308895 0.180789
C24 C 0.4772(5) 0.2537(15) 0.2911(7)
C25 C 0.4799(5) 0.2618(15) 0.7521(7)
H17 H 0.468(2) 0.724(13) 0.516(9)
H18 H 0.409(3) 0.751(11) 0.492(9)
Cu3 Cu 0.14905(6) 0.01227(17) 0.61014(9)
Cu5 Cu 0.27158(5) 0.86388(17) 0.42182(8)
C26 C 0.6904(4) 0.5586(15) 0.7298(7)
C28 C 0.6917(4) 0.4638(14) 0.5325(6)
N3 N 0.2179(4) 0.9119(12) 0.3004(6)
C3 C 0.1904(4) 0.9414(15) 0.2298(7)
N6 N 0.2185(4) 0.9217(12) 0.4895(6)
C8 C 0.1917(4) 0.9638(14) 0.5325(6)
Cu4 Cu 0.14905(6) 0.98773(17) 0.11014(9)
Cu2 Cu 0.27158(5) 0.13612(17) 0.92182(8)
N3_2 N 0.2179(4) 0.0881(12) 0.8004(6)
C3_2 C 0.1904(4) 0.0586(15) 0.7298(7)
N6_2 N 0.2185(4) 0.0783(12) 0.9895(6)
C27 C 0.3045(4) 0.3645(15) 0.9396(7)
Cu1_2 Cu 0.64905(6) 0.48773(17) 0.11014(9)
O1_2 O 0.4349(4) 0.3335(8) 0.0012(8)
N1_2 N 0.5223(4) 0.5437(12) 0.0434(7)
O2_2 O 0.4125(3) 0.5457(10) 0.1223(5)
O4_2 O 0.4682(3) 0.8283(9) 0.1094(5)
C2_2 C 0.5699(5) 0.5125(13) 0.0691(7)
N7_2 N 0.5014(4) 0.7852(12) 0.1881(6)
N8_2 N 0.3875(4) 0.6488(12) 0.1644(6)
C10_2 C 0.5572(5) 0.7930(15) 0.2046(7)
H4_2 H 0.571459 0.82517 0.160764
C11_2 C 0.3320(5) 0.6509(15) 0.1408(8)
H5_2 H 0.311296 0.59171 0.09174
C12_2 C 0.3057(5) 0.7405(16) 0.1890(8)
H6_2 H 0.267242 0.742499 0.172473
C15_2 C 0.3940(5) 0.8262(15) 0.2847(8)
H9_2 H 0.415139 0.883584 0.333988
C16_2 C 0.4191(5) 0.7396(15) 0.2336(8)
C18_2 C 0.3362(5) 0.8269(17) 0.2615(8)
H11_2 H 0.318564 0.885566 0.295067
C19_2 C 0.5927(5) 0.7537(17) 0.2854(8)
H12_2 H 0.630778 0.757798 0.295305
C20_2 C 0.5725(5) 0.7081(16) 0.3522(8)
H13_2 H 0.596314 0.683714 0.407217
C21_2 C 0.5146(5) 0.6997(15) 0.3340(8)
H14_2 H 0.499767 0.668277 0.377304
C25_2 C 0.4799(5) 0.7382(15) 0.2521(7)
H17_2 H 0.468(2) 0.276(13) 0.016(9)
C26_2 C 0.6904(4) 0.4414(15) 0.2298(7)
C28_2 C 0.6917(4) 0.5362(14) 0.0325(6)
Yb1_2 Yb 0.42829(2) 0.62420(5) 0.99827(2)
O3_2 O 0.4107(3) 0.5514(10) 0.8574(5)
N2_2 N 0.3654(4) 0.8575(12) 0.9673(6)
C1_2 C 0.3312(5) 0.9636(14) 0.9507(7)
O5_2 O 0.4693(3) 0.8269(9) 0.9256(5)
N4_2 N 0.3320(4) 0.4835(14) 0.9518(7)
N5_2 N 0.5005(4) 0.7862(11) 0.8765(6)
C5_2 C 0.4159(5) 0.7514(15) 0.7538(7)
C6_2 C 0.3323(5) 0.8388(17) 0.6463(8)
H1_2 H 0.314299 0.895016 0.59484
C7_2 C 0.3293(5) 0.6630(14) 0.7641(8)
H2_2 H 0.309104 0.603937 0.79367
C9_2 C 0.3025(5) 0.7557(17) 0.6912(7)
H3_2 H 0.26405 0.761987 0.672251
N9_2 N 0.3853(4) 0.6586(11) 0.7923(6)
C13_2 C 0.5569(5) 0.7943(14) 0.9118(7)
H7_2 H 0.57271 0.820367 0.970202
C14_2 C 0.5674(5) 0.7246(16) 0.7732(8)
H8_2 H 0.589887 0.704449 0.738797
C17_2 C 0.5902(5) 0.7638(16) 0.8610(8)
H10_2 H 0.628523 0.769406 0.885487
C22_2 C 0.3897(5) 0.8379(15) 0.6787(7)
H15_2 H 0.410357 0.89583 0.649558
C23_2 C 0.5103(5) 0.7166(15) 0.7391(8)
H16_2 H 0.493926 0.691105 0.680789
C24_2 C 0.4772(5) 0.7463(15) 0.7911(7)
H18_2 H 0.409(3) 0.249(11) 0.992(9)
N1_3 N 0.0223(4) 0.9563(12) 0.5434(7)
C2_3 C 0.0699(5) 0.9875(13) 0.5691(7)
N5_3 N 0.0005(4) 0.7138(11) 0.3765(6)
N7_3 N 0.0014(4) 0.7148(12) 0.6881(6)
C10_3 C 0.0572(5) 0.7070(15) 0.7046(7)
H4_3 H 0.071459 0.67483 0.660764
C13_3 C 0.0569(5) 0.7057(14) 0.4118(7)
H7_3 H 0.07271 0.679633 0.470202
C14_3 C 0.0674(5) 0.7754(16) 0.2732(8)
H8_3 H 0.089887 0.795551 0.238797
C17_3 C 0.0902(5) 0.7362(16) 0.3610(8)
H10_3 H 0.128523 0.730594 0.385487
C19_3 C 0.0927(5) 0.7463(17) 0.7854(8)
H12_3 H 0.130778 0.742202 0.795305
C20_3 C 0.0725(5) 0.7919(16) 0.8522(8)
H13_3 H 0.096314 0.816286 0.907217
C21_3 C 0.0146(5) 0.8003(15) 0.8340(8)
C23_3 C 0.0103(5) 0.7834(15) 0.2391(8)
O1_3 O 0.9349(4) 0.1665(8) 0.5012(8)
N4_3 N 0.8320(4) 0.0165(14) 0.4518(7)
C4_2 C 0.8045(4) 0.1355(15) 0.4396(7)
H17_3 H 0.968(2) 0.224(13) 0.516(9)
H18_3 H 0.909(3) 0.251(11) 0.492(9)
Cu5_2 Cu 0.77158(5) 0.36388(17) 0.42182(8)
Yb1_3 Yb 0.92829(2) 0.87580(5) 0.49827(2)
O2_3 O 0.9125(3) 0.9543(10) 0.6223(5)
O3_3 O 0.9107(3) 0.9486(10) 0.3574(5)
O4_3 O 0.9682(3) 0.6717(9) 0.6094(5)
N2_3 N 0.8654(4) 0.6425(12) 0.4673(6)
C1_3 C 0.8312(5) 0.5364(14) 0.4507(7)
O5_3 O 0.9693(3) 0.6731(9) 0.4256(5)
N3_3 N 0.7179(4) 0.4119(12) 0.3004(6)
N6_3 N 0.7185(4) 0.4217(12) 0.4895(6)
C5_3 C 0.9159(5) 0.7486(15) 0.2538(7)
C6_3 C 0.8323(5) 0.6612(17) 0.1463(8)
H1_3 H 0.814299 0.604984 0.09484
C7_3 C 0.8293(5) 0.8370(14) 0.2641(8)
H2_3 H 0.809104 0.896063 0.29367
N8_3 N 0.8875(4) 0.8512(12) 0.6644(6)
C9_3 C 0.8025(5) 0.7443(17) 0.1912(7)
H3_3 H 0.76405 0.738013 0.172251
N9_3 N 0.8853(4) 0.8414(11) 0.2923(6)
C11_3 C 0.8320(5) 0.8491(15) 0.6408(8)
H5_3 H 0.811296 0.90829 0.59174
C12_3 C 0.8057(5) 0.7595(16) 0.6890(8)
H6_3 H 0.767242 0.757501 0.672473
C15_3 C 0.8940(5) 0.6738(15) 0.7847(8)
H9_3 H 0.915139 0.616416 0.833988
C16_3 C 0.9191(5) 0.7604(15) 0.7336(8)
C18_3 C 0.8362(5) 0.6731(17) 0.7615(8)
H11_3 H 0.818564 0.614434 0.795067
H14_3 H 0.999767 0.831723 0.877304
C22_3 C 0.8897(5) 0.6621(15) 0.1787(7)
H15_3 H 0.910357 0.60417 0.149558
H16_3 H 0.993926 0.808895 0.180789
C24_3 C 0.9772(5) 0.7537(15) 0.2911(7)
C25_3 C 0.9799(5) 0.7618(15) 0.7521(7)
O2_4 O 0.9125(3) 0.0457(10) 0.1223(5)
O4_4 O 0.9682(3) 0.3283(9) 0.1094(5)
N8_4 N 0.8875(4) 0.1488(12) 0.1644(6)
C11_4 C 0.8320(5) 0.1509(15) 0.1408(8)
H5_4 H 0.811296 0.09171 0.09174
C12_4 C 0.8057(5) 0.2405(16) 0.1890(8)
H6_4 H 0.767242 0.242499 0.172473
C15_4 C 0.8940(5) 0.3262(15) 0.2847(8)
H9_4 H 0.915139 0.383584 0.333988
C16_4 C 0.9191(5) 0.2396(15) 0.2336(8)
C18_4 C 0.8362(5) 0.3269(17) 0.2615(8)
H11_4 H 0.818564 0.385566 0.295067
H14_4 H 0.999767 0.168277 0.377304
C25_4 C 0.9799(5) 0.2382(15) 0.2521(7)
Yb1_4 Yb 0.92829(2) 0.12420(5) 0.99827(2)
Cu2_2 Cu 0.77158(5) 0.63612(17) 0.92182(8)
O3_4 O 0.9107(3) 0.0514(10) 0.8574(5)
N2_4 N 0.8654(4) 0.3575(12) 0.9673(6)
C1_4 C 0.8312(5) 0.4636(14) 0.9507(7)
O5_4 O 0.9693(3) 0.3269(9) 0.9256(5)
N3_4 N 0.7179(4) 0.5881(12) 0.8004(6)
N6_4 N 0.7185(4) 0.5783(12) 0.9895(6)
C5_4 C 0.9159(5) 0.2514(15) 0.7538(7)
C6_4 C 0.8323(5) 0.3388(17) 0.6463(8)
H1_4 H 0.814299 0.395016 0.59484
C7_4 C 0.8293(5) 0.1630(14) 0.7641(8)
H2_4 H 0.809104 0.103937 0.79367
C9_4 C 0.8025(5) 0.2557(17) 0.6912(7)
H3_4 H 0.76405 0.261987 0.672251
N9_4 N 0.8853(4) 0.1586(11) 0.7923(6)
C22_4 C 0.8897(5) 0.3379(15) 0.6787(7)
H15_4 H 0.910357 0.39583 0.649558
H16_4 H 0.993926 0.191105 0.680789
C24_4 C 0.9772(5) 0.2463(15) 0.7911(7)
C27_2 C 0.8045(4) 0.8645(15) 0.9396(7)
N4_4 N 0.8320(4) 0.9835(14) 0.9518(7)
H18_4 H 0.909(3) 0.749(11) 0.992(9)
C8_2 C 0.1917(4) 0.0362(14) 0.0325(6)
N1_4 N 0.0223(4) 0.0437(12) 0.0434(7)
C2_4 C 0.0699(5) 0.0125(13) 0.0691(7)
N7_4 N 0.0014(4) 0.2852(12) 0.1881(6)
C10_4 C 0.0572(5) 0.2930(15) 0.2046(7)
H4_4 H 0.071459 0.32517 0.160764
C19_4 C 0.0927(5) 0.2537(17) 0.2854(8)
H12_4 H 0.130778 0.257798 0.295305
C20_4 C 0.0725(5) 0.2081(16) 0.3522(8)
H13_4 H 0.096314 0.183714 0.407217
C21_4 C 0.0146(5) 0.1997(15) 0.3340(8)
N5_4 N 0.0005(4) 0.2862(11) 0.8765(6)
C13_4 C 0.0569(5) 0.2943(14) 0.9118(7)
H7_4 H 0.07271 0.320367 0.970202
C14_4 C 0.0674(5) 0.2246(16) 0.7732(8)
H8_4 H 0.089887 0.204449 0.738797
C17_4 C 0.0902(5) 0.2638(16) 0.8610(8)
H10_4 H 0.128523 0.269406 0.885487
C23_4 C 0.0103(5) 0.2166(15) 0.7391(8)
O1_4 O 0.9349(4) 0.8335(8) 0.0012(8)
H17_4 H 0.968(2) 0.776(13) 0.016(9)
loop_
_geom_bond_atom_site_label_1
_geom_bond_atom_site_label_2
_geom_bond_site_symmetry_1
_geom_bond_site_symmetry_2
Yb1 O1 1_555 1_555
Cu1 C2 1_555 1_555
O1 H17 1_555 1_555
N1 Yb1 1_555 1_555
O2 Yb1 1_555 1_555
O3 Yb1 1_555 1_555
O4 Yb1 1_555 1_555
N2 Yb1 1_555 1_555
C1 N2 1_555 1_555
O5 Yb1 1_555 1_555
N4 Yb1 1_555 1_555
C2 N1 1_555 1_555
N5 O5 1_555 1_555
N7 O4 1_555 1_555
C4 N4 1_555 1_555
C5 N9 1_555 1_555
C6 H1 1_555 1_555
C7 H2 1_555 1_555
N8 O2 1_555 1_555
C9 C6 1_555 1_555
H3 C9 1_555 1_555
N9 O3 1_555 1_555
C10 N7 1_555 1_555
H4 C10 1_555 1_555
C11 N8 1_555 1_555
H5 C11 1_555 1_555
C12 C11 1_555 1_555
H6 C12 1_555 1_555
C13 N5 1_555 1_555
H7 C13 1_555 1_555
C14 H8 1_555 1_555
C15 H9 1_555 1_555
C16 N8 1_555 1_555
C17 C13 1_555 1_555
H10 C17 1_555 1_555
C18 C12 1_555 1_555
H11 C18 1_555 1_555
C19 C10 1_555 1_555
H12 C19 1_555 1_555
C20 C19 1_555 1_555
H13 C20 1_555 1_555
C21 C20 1_555 1_555
H14 C21 1_555 1_555
C22 C5 1_555 1_555
H15 C22 1_555 1_555
C23 C14 1_555 1_555
H16 C23 1_555 1_555
C24 N5 1_555 1_555
C25 N7 1_555 1_555
H18 O1 1_555 1_555
Cu5 C4 1_555 1_555
C26 Cu1 1_555 1_555
C28 Cu1 1_555 1_555
C5 C24 1_555 1_555
C6 C22 1_555 1_555
C7 C9 1_555 1_555
C7 N9 1_555 1_555
C14 C17 1_555 1_555
C15 C16 1_555 1_555
C15 C18 1_555 1_555
C16 C25 1_555 1_555
C21 C25 1_555 1_555
C23 C24 1_555 1_555
N3 Cu5 1_555 1_555
C3 N3 1_555 1_555
N6 Cu5 1_555 1_555
C8 N6 1_555 1_555
Cu4 C3 1_555 1_555
N3_2 Cu2 1_555 1_555
C3_2 N3_2 1_555 1_555
N6_2 Cu2 1_555 1_555
Cu3 C3_2 1_555 1_555
C27 Cu2 1_555 1_555
Cu1_2 C2_2 1_555 1_555
O1_2 H17_2 1_555 1_555
C2_2 N1_2 1_555 1_555
N7_2 O4_2 1_555 1_555
N8_2 O2_2 1_555 1_555
C10_2 N7_2 1_555 1_555
H4_2 C10_2 1_555 1_555
C11_2 N8_2 1_555 1_555
H5_2 C11_2 1_555 1_555
C12_2 C11_2 1_555 1_555
H6_2 C12_2 1_555 1_555
C15_2 H9_2 1_555 1_555
C16_2 N8_2 1_555 1_555
C18_2 C12_2 1_555 1_555
H11_2 C18_2 1_555 1_555
C19_2 C10_2 1_555 1_555
H12_2 C19_2 1_555 1_555
C20_2 C19_2 1_555 1_555
H13_2 C20_2 1_555 1_555
C21_2 C20_2 1_555 1_555
H14_2 C21_2 1_555 1_555
C25_2 N7_2 1_555 1_555
C26_2 Cu1_2 1_555 1_555
C28_2 Cu1_2 1_555 1_555
C15_2 C16_2 1_555 1_555
C15_2 C18_2 1_555 1_555
C16_2 C25_2 1_555 1_555
C21_2 C25_2 1_555 1_555
O3_2 Yb1_2 1_555 1_555
N2_2 Yb1_2 1_555 1_555
C1_2 N2_2 1_555 1_555
O5_2 Yb1_2 1_555 1_555
N4_2 Yb1_2 1_555 1_555
N5_2 O5_2 1_555 1_555
C27 N4_2 1_555 1_555
C5_2 N9_2 1_555 1_555
C6_2 H1_2 1_555 1_555
C7_2 H2_2 1_555 1_555
C9_2 C6_2 1_555 1_555
H3_2 C9_2 1_555 1_555
N9_2 O3_2 1_555 1_555
C13_2 N5_2 1_555 1_555
H7_2 C13_2 1_555 1_555
C14_2 H8_2 1_555 1_555
C17_2 C13_2 1_555 1_555
H10_2 C17_2 1_555 1_555
C22_2 C5_2 1_555 1_555
H15_2 C22_2 1_555 1_555
C23_2 C14_2 1_555 1_555
H16_2 C23_2 1_555 1_555
C24_2 N5_2 1_555 1_555
C5_2 C24_2 1_555 1_555
C6_2 C22_2 1_555 1_555
C7_2 C9_2 1_555 1_555
C7_2 N9_2 1_555 1_555
C14_2 C17_2 1_555 1_555
C23_2 C24_2 1_555 1_555
C2_3 N1_3 1_555 1_555
C10_3 N7_3 1_555 1_555
H4_3 C10_3 1_555 1_555
C13_3 N5_3 1_555 1_555
H7_3 C13_3 1_555 1_555
C14_3 H8_3 1_555 1_555
C17_3 C13_3 1_555 1_555
H10_3 C17_3 1_555 1_555
C19_3 C10_3 1_555 1_555
H12_3 C19_3 1_555 1_555
C20_3 C19_3 1_555 1_555
H13_3 C20_3 1_555 1_555
C21_3 C20_3 1_555 1_555
C23_3 C14_3 1_555 1_555
C14_3 C17_3 1_555 1_555
O1_3 H17_3 1_555 1_555
C4_2 N4_3 1_555 1_555
H18_3 O1_3 1_555 1_555
Cu5_2 C4_2 1_555 1_555
Cu5_2 C1_3 1_555 1_555
O2_3 Yb1_3 1_555 1_555
O3_3 Yb1_3 1_555 1_555
O4_3 Yb1_3 1_555 1_555
N2_3 Yb1_3 1_555 1_555
C1_3 N2_3 1_555 1_555
O5_3 Yb1_3 1_555 1_555
N3_3 Cu5_2 1_555 1_555
C26_2 N3_3 1_555 1_555
N6_3 Cu5_2 1_555 1_555
C5_3 N9_3 1_555 1_555
C6_3 H1_3 1_555 1_555
C7_3 H2_3 1_555 1_555
N8_3 O2_3 1_555 1_555
C28 N6_3 1_555 1_555
C9_3 C6_3 1_555 1_555
H3_3 C9_3 1_555 1_555
N9_3 O3_3 1_555 1_555
C11_3 N8_3 1_555 1_555
H5_3 C11_3 1_555 1_555
C12_3 C11_3 1_555 1_555
H6_3 C12_3 1_555 1_555
C15_3 H9_3 1_555 1_555
C16_3 N8_3 1_555 1_555
C18_3 C12_3 1_555 1_555
H11_3 C18_3 1_555 1_555
C22_3 C5_3 1_555 1_555
H15_3 C22_3 1_555 1_555
C5_3 C24_3 1_555 1_555
C6_3 C22_3 1_555 1_555
C7_3 C9_3 1_555 1_555
C7_3 N9_3 1_555 1_555
C15_3 C16_3 1_555 1_555
C15_3 C18_3 1_555 1_555
C16_3 C25_3 1_555 1_555
N8_4 O2_4 1_555 1_555
C11_4 N8_4 1_555 1_555
H5_4 C11_4 1_555 1_555
C12_4 C11_4 1_555 1_555
H6_4 C12_4 1_555 1_555
C15_4 H9_4 1_555 1_555
C16_4 N8_4 1_555 1_555
C18_4 C12_4 1_555 1_555
H11_4 C18_4 1_555 1_555
C15_4 C16_4 1_555 1_555
C15_4 C18_4 1_555 1_555
C16_4 C25_4 1_555 1_555
Cu2_2 C1_4 1_555 1_555
O3_4 Yb1_4 1_555 1_555
N2_4 Yb1_4 1_555 1_555
C1_4 N2_4 1_555 1_555
O5_4 Yb1_4 1_555 1_555
N3_4 Cu2_2 1_555 1_555
C26 N3_4 1_555 1_555
N6_4 Cu2_2 1_555 1_555
C5_4 N9_4 1_555 1_555
C6_4 H1_4 1_555 1_555
C7_4 H2_4 1_555 1_555
C9_4 C6_4 1_555 1_555
H3_4 C9_4 1_555 1_555
N9_4 O3_4 1_555 1_555
C22_4 C5_4 1_555 1_555
H15_4 C22_4 1_555 1_555
C27_2 Cu2_2 1_555 1_555
C5_4 C24_4 1_555 1_555
C6_4 C22_4 1_555 1_555
C7_4 C9_4 1_555 1_555
C7_4 N9_4 1_555 1_555
C27_2 N4_4 1_555 1_555
C2_4 N1_4 1_555 1_555
C10_4 N7_4 1_555 1_555
H4_4 C10_4 1_555 1_555
C19_4 C10_4 1_555 1_555
H12_4 C19_4 1_555 1_555
C20_4 C19_4 1_555 1_555
H13_4 C20_4 1_555 1_555
C21_4 C20_4 1_555 1_555
C13_4 N5_4 1_555 1_555
H7_4 C13_4 1_555 1_555
C14_4 H8_4 1_555 1_555
C17_4 C13_4 1_555 1_555
H10_4 C17_4 1_555 1_555
C23_4 C14_4 1_555 1_555
C14_4 C17_4 1_555 1_555
O1_4 H17_4 1_555 1_555

#END
