
###############################################################################
#
# This file contains modified crystal structure data generated from the
# MOF subset of the Cambridge Structural Database (CSD) v543 
# hosted by the Cambridge Crystallographic Data Centre (CCDC).
#
# This work is licensed under the Creative Commons
# Attribution-NonCommercial-ShareAlike 4.0 International License.
# To view a copy of this license, visit
# http://creativecommons.org/licenses/by-nc-sa/4.0/
# or send a letter to
# Creative Commons, PO Box 1866, Mountain View, CA 94042, USA.
#
# CIF created using the CSD Python API on 29 September 2022
# The structure has been converted into the P1 space group
# The structure has a 3D framework
# The original CSD entry ROQVUR is in the monoclinic crystal system
# The framework has been calculated to contain at least 10.0% void space
# The void calculation uses a probe of radius 1.32A, grid spacing 0.4
#
###############################################################################

data_ROQVUR
_chemical_formula_moiety         '(C99 H72 Cu6 Dy4 N36 O20)n'
_symmetry_cell_setting           triclinic
_symmetry_space_group_name_H-M   'P 1'
_symmetry_Int_Tables_number      1
_space_group_name_Hall           'P 1'
loop_
_symmetry_equiv_pos_site_id
_symmetry_equiv_pos_as_xyz
1 x,y,z
_cell_length_a                   25.4424(19)
_cell_length_b                   7.8663(6)
_cell_length_c                   16.3260(13)
_cell_angle_alpha                90
_cell_angle_beta                 108.280(2)
_cell_angle_gamma                90
_cell_volume                     3102.55
loop_
_atom_site_label
_atom_site_type_symbol
_atom_site_fract_x
_atom_site_fract_y
_atom_site_fract_z
Dy1 Dy 0.42824(2) 0.37427(3) 0.49821(2)
Cu1 Cu 0.65044(3) 0.51180(8) 0.61122(4)
O1 O 0.43574(18) 0.6753(4) 0.5020(4)
N1 N 0.5241(2) 0.4565(6) 0.5444(3)
O2 O 0.41271(15) 0.4543(4) 0.6244(2)
O3 O 0.41115(15) 0.4461(5) 0.3557(2)
O4 O 0.46809(15) 0.1704(4) 0.6121(2)
N2 N 0.36446(19) 0.1344(6) 0.4664(3)
C1 C 0.3305(2) 0.0317(6) 0.4498(3)
O5 O 0.47009(15) 0.1712(4) 0.4238(2)
N4 N 0.33083(19) 0.5132(6) 0.4511(3)
C2 C 0.5710(2) 0.4882(6) 0.5696(3)
N5 N 0.50149(18) 0.2124(5) 0.3746(3)
N7 N 0.50180(18) 0.2145(5) 0.6900(3)
C4 C 0.3037(2) 0.6319(7) 0.4386(3)
C5 C 0.4163(3) 0.2485(7) 0.2525(3)
C6 C 0.3332(2) 0.1565(7) 0.1464(4)
H1 H 0.314969 0.096051 0.094935
C7 C 0.3298(2) 0.3348(7) 0.2628(4)
H2 H 0.309221 0.395 0.292931
N8 N 0.38803(18) 0.3511(5) 0.6662(3)
C9 C 0.3028(2) 0.2428(8) 0.1907(4)
H3 H 0.26346 0.237993 0.171007
N9 N 0.38589(18) 0.3401(5) 0.2914(3)
C10 C 0.5570(2) 0.2071(7) 0.7058(4)
H4 H 0.571515 0.174239 0.661143
C11 C 0.3320(2) 0.3485(7) 0.6425(4)
H5 H 0.310869 0.409379 0.592846
C12 C 0.3059(3) 0.2586(8) 0.6900(4)
H6 H 0.266626 0.254739 0.672692
C13 C 0.5576(2) 0.2086(7) 0.4091(4)
H7 H 0.573989 0.183668 0.468638
C14 C 0.5677(2) 0.2772(7) 0.2721(4)
H8 H 0.59045 0.298371 0.236922
C15 C 0.3938(3) 0.1727(7) 0.7850(4)
H9 H 0.415501 0.1129 0.834696
C16 C 0.4193(3) 0.2598(7) 0.7339(4)
C17 C 0.5907(2) 0.2401(8) 0.3590(4)
H10 H 0.629833 0.236567 0.383936
C18 C 0.3367(3) 0.1735(8) 0.7632(4)
H11 H 0.318906 0.115837 0.798265
C19 C 0.5926(2) 0.2469(8) 0.7862(4)
H12 H 0.631474 0.242046 0.796486
C20 C 0.5723(2) 0.2940(8) 0.8524(4)
H13 H 0.596584 0.321442 0.908081
C21 C 0.5152(2) 0.2996(7) 0.8345(4)
H14 H 0.500156 0.33007 0.878852
C22 C 0.3901(2) 0.1597(7) 0.1779(4)
H15 H 0.411303 0.100819 0.148359
C23 C 0.5104(2) 0.2825(7) 0.2379(4)
H16 H 0.493778 0.307369 0.178428
C24 C 0.4772(2) 0.2521(6) 0.2893(3)
C25 C 0.4801(2) 0.2618(7) 0.7537(3)
H17 H 0.4059(15) 0.737(7) 0.482(4)
H18 H 0.4670(15) 0.732(7) 0.505(4)
Cu3 Cu 0.15044(3) 0.01180(8) 0.61122(4)
Cu5 Cu 0.27084(2) 0.85913(8) 0.42168(4)
C26 C 0.6913(2) 0.5612(7) 0.7304(3)
C28 C 0.6926(2) 0.4595(7) 0.5338(3)
N3 N 0.21780(18) 0.9068(6) 0.3006(3)
C3 C 0.1913(2) 0.9388(7) 0.2304(3)
N6 N 0.21833(18) 0.9167(6) 0.4903(3)
C8 C 0.1926(2) 0.9595(7) 0.5338(3)
Cu4 Cu 0.15044(3) 0.98820(8) 0.11122(4)
Cu2 Cu 0.27084(2) 0.14087(8) 0.92168(4)
N3_2 N 0.21780(18) 0.0932(6) 0.8006(3)
C3_2 C 0.1913(2) 0.0612(7) 0.7304(3)
N6_2 N 0.21833(18) 0.0833(6) 0.9903(3)
C27 C 0.3037(2) 0.3681(7) 0.9386(3)
Cu1_2 Cu 0.65044(3) 0.48820(8) 0.11122(4)
O1_2 O 0.43574(18) 0.3247(4) 0.0020(4)
N1_2 N 0.5241(2) 0.5435(6) 0.0444(3)
O2_2 O 0.41271(15) 0.5457(4) 0.1244(2)
O4_2 O 0.46809(15) 0.8296(4) 0.1121(2)
C2_2 C 0.5710(2) 0.5118(6) 0.0696(3)
N7_2 N 0.50180(18) 0.7855(5) 0.1900(3)
N8_2 N 0.38803(18) 0.6489(5) 0.1662(3)
C10_2 C 0.5570(2) 0.7929(7) 0.2058(4)
H4_2 H 0.571515 0.825761 0.161143
C11_2 C 0.3320(2) 0.6515(7) 0.1425(4)
H5_2 H 0.310869 0.590621 0.092846
C12_2 C 0.3059(3) 0.7414(8) 0.1900(4)
H6_2 H 0.266626 0.745261 0.172692
C15_2 C 0.3938(3) 0.8273(7) 0.2850(4)
H9_2 H 0.415501 0.8871 0.334696
C16_2 C 0.4193(3) 0.7402(7) 0.2339(4)
C18_2 C 0.3367(3) 0.8265(8) 0.2632(4)
H11_2 H 0.318906 0.884163 0.298265
C19_2 C 0.5926(2) 0.7531(8) 0.2862(4)
H12_2 H 0.631474 0.757954 0.296486
C20_2 C 0.5723(2) 0.7060(8) 0.3524(4)
H13_2 H 0.596584 0.678558 0.408081
C21_2 C 0.5152(2) 0.7004(7) 0.3345(4)
H14_2 H 0.500156 0.66993 0.378852
C25_2 C 0.4801(2) 0.7382(7) 0.2537(3)
H18_2 H 0.4670(15) 0.268(7) 0.005(4)
C26_2 C 0.6913(2) 0.4388(7) 0.2304(3)
C28_2 C 0.6926(2) 0.5405(7) 0.0338(3)
Dy1_2 Dy 0.42824(2) 0.62573(3) 0.99821(2)
O3_2 O 0.41115(15) 0.5539(5) 0.8557(2)
N2_2 N 0.36446(19) 0.8656(6) 0.9664(3)
C1_2 C 0.3305(2) 0.9683(6) 0.9498(3)
O5_2 O 0.47009(15) 0.8288(4) 0.9238(2)
N4_2 N 0.33083(19) 0.4868(6) 0.9511(3)
N5_2 N 0.50149(18) 0.7876(5) 0.8746(3)
C5_2 C 0.4163(3) 0.7515(7) 0.7525(3)
C6_2 C 0.3332(2) 0.8435(7) 0.6464(4)
H1_2 H 0.314969 0.903949 0.594935
C7_2 C 0.3298(2) 0.6652(7) 0.7628(4)
H2_2 H 0.309221 0.605 0.792931
C9_2 C 0.3028(2) 0.7572(8) 0.6907(4)
H3_2 H 0.26346 0.762007 0.671007
N9_2 N 0.38589(18) 0.6599(5) 0.7914(3)
C13_2 C 0.5576(2) 0.7914(7) 0.9091(4)
H7_2 H 0.573989 0.816332 0.968638
C14_2 C 0.5677(2) 0.7228(7) 0.7721(4)
H8_2 H 0.59045 0.701629 0.736922
C17_2 C 0.5907(2) 0.7599(8) 0.8590(4)
H10_2 H 0.629833 0.763433 0.883936
C22_2 C 0.3901(2) 0.8403(7) 0.6779(4)
H15_2 H 0.411303 0.899181 0.648359
C23_2 C 0.5104(2) 0.7175(7) 0.7379(4)
H16_2 H 0.493778 0.692631 0.678428
C24_2 C 0.4772(2) 0.7479(6) 0.7893(3)
H17_2 H 0.4059(15) 0.263(7) 0.982(4)
N1_3 N 0.0241(2) 0.9565(6) 0.5444(3)
C2_3 C 0.0710(2) 0.9882(6) 0.5696(3)
N5_3 N 0.00149(18) 0.7124(5) 0.3746(3)
N7_3 N 0.00180(18) 0.7145(5) 0.6900(3)
C10_3 C 0.0570(2) 0.7071(7) 0.7058(4)
H4_3 H 0.071515 0.674239 0.661143
C13_3 C 0.0576(2) 0.7086(7) 0.4091(4)
H7_3 H 0.073989 0.683668 0.468638
C14_3 C 0.0677(2) 0.7772(7) 0.2721(4)
H8_3 H 0.09045 0.798371 0.236922
C17_3 C 0.0907(2) 0.7401(8) 0.3590(4)
H10_3 H 0.129833 0.736567 0.383936
C19_3 C 0.0926(2) 0.7469(8) 0.7862(4)
H12_3 H 0.131474 0.742046 0.796486
C20_3 C 0.0723(2) 0.7940(8) 0.8524(4)
H13_3 H 0.096584 0.821442 0.908081
C21_3 C 0.0152(2) 0.7996(7) 0.8345(4)
H14_3 H 0.000156 0.83007 0.878852
C23_3 C 0.0104(2) 0.7825(7) 0.2379(4)
O1_3 O 0.93574(18) 0.1753(4) 0.5020(4)
N4_3 N 0.83083(19) 0.0132(6) 0.4511(3)
C4_2 C 0.8037(2) 0.1319(7) 0.4386(3)
H17_3 H 0.9059(15) 0.237(7) 0.482(4)
H18_3 H 0.9670(15) 0.232(7) 0.505(4)
Cu5_2 Cu 0.77084(2) 0.35913(8) 0.42168(4)
Dy1_3 Dy 0.92824(2) 0.87427(3) 0.49821(2)
O2_3 O 0.91271(15) 0.9543(4) 0.6244(2)
O3_3 O 0.91115(15) 0.9461(5) 0.3557(2)
O4_3 O 0.96809(15) 0.6704(4) 0.6121(2)
N2_3 N 0.86446(19) 0.6344(6) 0.4664(3)
C1_3 C 0.8305(2) 0.5317(6) 0.4498(3)
O5_3 O 0.97009(15) 0.6712(4) 0.4238(2)
N3_3 N 0.71780(18) 0.4068(6) 0.3006(3)
N6_3 N 0.71833(18) 0.4167(6) 0.4903(3)
C5_3 C 0.9163(3) 0.7485(7) 0.2525(3)
C6_3 C 0.8332(2) 0.6565(7) 0.1464(4)
H1_3 H 0.814969 0.596051 0.094935
C7_3 C 0.8298(2) 0.8348(7) 0.2628(4)
H2_3 H 0.809221 0.895 0.292931
N8_3 N 0.88803(18) 0.8511(5) 0.6662(3)
C9_3 C 0.8028(2) 0.7428(8) 0.1907(4)
H3_3 H 0.76346 0.737993 0.171007
N9_3 N 0.88589(18) 0.8401(5) 0.2914(3)
C11_3 C 0.8320(2) 0.8485(7) 0.6425(4)
H5_3 H 0.810869 0.909379 0.592846
C12_3 C 0.8059(3) 0.7586(8) 0.6900(4)
H6_3 H 0.766626 0.754739 0.672692
C15_3 C 0.8938(3) 0.6727(7) 0.7850(4)
H9_3 H 0.915501 0.6129 0.834696
C16_3 C 0.9193(3) 0.7598(7) 0.7339(4)
C18_3 C 0.8367(3) 0.6735(8) 0.7632(4)
H11_3 H 0.818906 0.615837 0.798265
C22_3 C 0.8901(2) 0.6597(7) 0.1779(4)
H15_3 H 0.911303 0.600819 0.148359
H16_3 H 0.993778 0.807369 0.178428
C24_3 C 0.9772(2) 0.7521(6) 0.2893(3)
C25_3 C 0.9801(2) 0.7618(7) 0.7537(3)
O2_4 O 0.91271(15) 0.0457(4) 0.1244(2)
O4_4 O 0.96809(15) 0.3296(4) 0.1121(2)
N8_4 N 0.88803(18) 0.1489(5) 0.1662(3)
C11_4 C 0.8320(2) 0.1515(7) 0.1425(4)
H5_4 H 0.810869 0.090621 0.092846
C12_4 C 0.8059(3) 0.2414(8) 0.1900(4)
H6_4 H 0.766626 0.245261 0.172692
C15_4 C 0.8938(3) 0.3273(7) 0.2850(4)
H9_4 H 0.915501 0.3871 0.334696
C16_4 C 0.9193(3) 0.2402(7) 0.2339(4)
C18_4 C 0.8367(3) 0.3265(8) 0.2632(4)
H11_4 H 0.818906 0.384163 0.298265
C25_4 C 0.9801(2) 0.2382(7) 0.2537(3)
Dy1_4 Dy 0.92824(2) 0.12573(3) 0.99821(2)
Cu2_2 Cu 0.77084(2) 0.64087(8) 0.92168(4)
O3_4 O 0.91115(15) 0.0539(5) 0.8557(2)
N2_4 N 0.86446(19) 0.3656(6) 0.9664(3)
C1_4 C 0.8305(2) 0.4683(6) 0.9498(3)
O5_4 O 0.97009(15) 0.3288(4) 0.9238(2)
N3_4 N 0.71780(18) 0.5932(6) 0.8006(3)
N6_4 N 0.71833(18) 0.5833(6) 0.9903(3)
C5_4 C 0.9163(3) 0.2515(7) 0.7525(3)
C6_4 C 0.8332(2) 0.3435(7) 0.6464(4)
H1_4 H 0.814969 0.403949 0.594935
C7_4 C 0.8298(2) 0.1652(7) 0.7628(4)
H2_4 H 0.809221 0.105 0.792931
C9_4 C 0.8028(2) 0.2572(8) 0.6907(4)
H3_4 H 0.76346 0.262007 0.671007
N9_4 N 0.88589(18) 0.1599(5) 0.7914(3)
C22_4 C 0.8901(2) 0.3403(7) 0.6779(4)
H15_4 H 0.911303 0.399181 0.648359
H16_4 H 0.993778 0.192631 0.678428
C24_4 C 0.9772(2) 0.2479(6) 0.7893(3)
C27_2 C 0.8037(2) 0.8681(7) 0.9386(3)
N4_4 N 0.83083(19) 0.9868(6) 0.9511(3)
H17_4 H 0.9059(15) 0.763(7) 0.982(4)
C8_2 C 0.1926(2) 0.0405(7) 0.0338(3)
N1_4 N 0.0241(2) 0.0435(6) 0.0444(3)
C2_4 C 0.0710(2) 0.0118(6) 0.0696(3)
N7_4 N 0.00180(18) 0.2855(5) 0.1900(3)
C10_4 C 0.0570(2) 0.2929(7) 0.2058(4)
H4_4 H 0.071515 0.325761 0.161143
C19_4 C 0.0926(2) 0.2531(8) 0.2862(4)
H12_4 H 0.131474 0.257954 0.296486
C20_4 C 0.0723(2) 0.2060(8) 0.3524(4)
H13_4 H 0.096584 0.178558 0.408081
C21_4 C 0.0152(2) 0.2004(7) 0.3345(4)
H14_4 H 0.000156 0.16993 0.378852
N5_4 N 0.00149(18) 0.2876(5) 0.8746(3)
C13_4 C 0.0576(2) 0.2914(7) 0.9091(4)
H7_4 H 0.073989 0.316332 0.968638
C14_4 C 0.0677(2) 0.2228(7) 0.7721(4)
H8_4 H 0.09045 0.201629 0.736922
C17_4 C 0.0907(2) 0.2599(8) 0.8590(4)
H10_4 H 0.129833 0.263433 0.883936
C23_4 C 0.0104(2) 0.2175(7) 0.7379(4)
O1_4 O 0.93574(18) 0.8247(4) 0.0020(4)
H18_4 H 0.9670(15) 0.768(7) 0.005(4)
loop_
_geom_bond_atom_site_label_1
_geom_bond_atom_site_label_2
_geom_bond_site_symmetry_1
_geom_bond_site_symmetry_2
Dy1 O1 1_555 1_555
Cu1 C2 1_555 1_555
O1 H17 1_555 1_555
N1 Dy1 1_555 1_555
O2 Dy1 1_555 1_555
O3 Dy1 1_555 1_555
O4 Dy1 1_555 1_555
N2 Dy1 1_555 1_555
C1 N2 1_555 1_555
O5 Dy1 1_555 1_555
N4 Dy1 1_555 1_555
C2 N1 1_555 1_555
N5 O5 1_555 1_555
N7 O4 1_555 1_555
C4 N4 1_555 1_555
C5 N9 1_555 1_555
C6 H1 1_555 1_555
C7 H2 1_555 1_555
N8 O2 1_555 1_555
C9 C6 1_555 1_555
H3 C9 1_555 1_555
N9 O3 1_555 1_555
C10 N7 1_555 1_555
H4 C10 1_555 1_555
C11 N8 1_555 1_555
H5 C11 1_555 1_555
C12 C11 1_555 1_555
H6 C12 1_555 1_555
C13 N5 1_555 1_555
H7 C13 1_555 1_555
C14 H8 1_555 1_555
C15 H9 1_555 1_555
C16 N8 1_555 1_555
C17 C13 1_555 1_555
H10 C17 1_555 1_555
C18 C12 1_555 1_555
H11 C18 1_555 1_555
C19 C10 1_555 1_555
H12 C19 1_555 1_555
C20 C19 1_555 1_555
H13 C20 1_555 1_555
C21 C20 1_555 1_555
H14 C21 1_555 1_555
C22 C5 1_555 1_555
H15 C22 1_555 1_555
C23 C14 1_555 1_555
H16 C23 1_555 1_555
C24 N5 1_555 1_555
C25 N7 1_555 1_555
H18 O1 1_555 1_555
Cu5 C4 1_555 1_555
C26 Cu1 1_555 1_555
C28 Cu1 1_555 1_555
C5 C24 1_555 1_555
C6 C22 1_555 1_555
C7 C9 1_555 1_555
C7 N9 1_555 1_555
C14 C17 1_555 1_555
C15 C16 1_555 1_555
C15 C18 1_555 1_555
C16 C25 1_555 1_555
C21 C25 1_555 1_555
C23 C24 1_555 1_555
N3 Cu5 1_555 1_555
C3 N3 1_555 1_555
N6 Cu5 1_555 1_555
C8 N6 1_555 1_555
Cu4 C3 1_555 1_555
N3_2 Cu2 1_555 1_555
C3_2 N3_2 1_555 1_555
N6_2 Cu2 1_555 1_555
Cu3 C3_2 1_555 1_555
C27 Cu2 1_555 1_555
Cu1_2 C2_2 1_555 1_555
C2_2 N1_2 1_555 1_555
N7_2 O4_2 1_555 1_555
N8_2 O2_2 1_555 1_555
C10_2 N7_2 1_555 1_555
H4_2 C10_2 1_555 1_555
C11_2 N8_2 1_555 1_555
H5_2 C11_2 1_555 1_555
C12_2 C11_2 1_555 1_555
H6_2 C12_2 1_555 1_555
C15_2 H9_2 1_555 1_555
C16_2 N8_2 1_555 1_555
C18_2 C12_2 1_555 1_555
H11_2 C18_2 1_555 1_555
C19_2 C10_2 1_555 1_555
H12_2 C19_2 1_555 1_555
C20_2 C19_2 1_555 1_555
H13_2 C20_2 1_555 1_555
C21_2 C20_2 1_555 1_555
H14_2 C21_2 1_555 1_555
C25_2 N7_2 1_555 1_555
H18_2 O1_2 1_555 1_555
C26_2 Cu1_2 1_555 1_555
C28_2 Cu1_2 1_555 1_555
C15_2 C16_2 1_555 1_555
C15_2 C18_2 1_555 1_555
C16_2 C25_2 1_555 1_555
C21_2 C25_2 1_555 1_555
O3_2 Dy1_2 1_555 1_555
N2_2 Dy1_2 1_555 1_555
C1_2 N2_2 1_555 1_555
O5_2 Dy1_2 1_555 1_555
N4_2 Dy1_2 1_555 1_555
N5_2 O5_2 1_555 1_555
C27 N4_2 1_555 1_555
C5_2 N9_2 1_555 1_555
C6_2 H1_2 1_555 1_555
C7_2 H2_2 1_555 1_555
C9_2 C6_2 1_555 1_555
H3_2 C9_2 1_555 1_555
N9_2 O3_2 1_555 1_555
C13_2 N5_2 1_555 1_555
H7_2 C13_2 1_555 1_555
C14_2 H8_2 1_555 1_555
C17_2 C13_2 1_555 1_555
H10_2 C17_2 1_555 1_555
C22_2 C5_2 1_555 1_555
H15_2 C22_2 1_555 1_555
C23_2 C14_2 1_555 1_555
H16_2 C23_2 1_555 1_555
C24_2 N5_2 1_555 1_555
C5_2 C24_2 1_555 1_555
C6_2 C22_2 1_555 1_555
C7_2 C9_2 1_555 1_555
C7_2 N9_2 1_555 1_555
C14_2 C17_2 1_555 1_555
C23_2 C24_2 1_555 1_555
C2_3 N1_3 1_555 1_555
C10_3 N7_3 1_555 1_555
H4_3 C10_3 1_555 1_555
C13_3 N5_3 1_555 1_555
H7_3 C13_3 1_555 1_555
C14_3 H8_3 1_555 1_555
C17_3 C13_3 1_555 1_555
H10_3 C17_3 1_555 1_555
C19_3 C10_3 1_555 1_555
H12_3 C19_3 1_555 1_555
C20_3 C19_3 1_555 1_555
H13_3 C20_3 1_555 1_555
C21_3 C20_3 1_555 1_555
H14_3 C21_3 1_555 1_555
C23_3 C14_3 1_555 1_555
C14_3 C17_3 1_555 1_555
O1_3 H17_3 1_555 1_555
C4_2 N4_3 1_555 1_555
H18_3 O1_3 1_555 1_555
Cu5_2 C4_2 1_555 1_555
Cu5_2 C1_3 1_555 1_555
O2_3 Dy1_3 1_555 1_555
O3_3 Dy1_3 1_555 1_555
O4_3 Dy1_3 1_555 1_555
N2_3 Dy1_3 1_555 1_555
C1_3 N2_3 1_555 1_555
O5_3 Dy1_3 1_555 1_555
N3_3 Cu5_2 1_555 1_555
C26_2 N3_3 1_555 1_555
N6_3 Cu5_2 1_555 1_555
C5_3 N9_3 1_555 1_555
C6_3 H1_3 1_555 1_555
C7_3 H2_3 1_555 1_555
N8_3 O2_3 1_555 1_555
C28 N6_3 1_555 1_555
C9_3 C6_3 1_555 1_555
H3_3 C9_3 1_555 1_555
N9_3 O3_3 1_555 1_555
C11_3 N8_3 1_555 1_555
H5_3 C11_3 1_555 1_555
C12_3 C11_3 1_555 1_555
H6_3 C12_3 1_555 1_555
C15_3 H9_3 1_555 1_555
C16_3 N8_3 1_555 1_555
C18_3 C12_3 1_555 1_555
H11_3 C18_3 1_555 1_555
C22_3 C5_3 1_555 1_555
H15_3 C22_3 1_555 1_555
C5_3 C24_3 1_555 1_555
C6_3 C22_3 1_555 1_555
C7_3 C9_3 1_555 1_555
C7_3 N9_3 1_555 1_555
C15_3 C16_3 1_555 1_555
C15_3 C18_3 1_555 1_555
C16_3 C25_3 1_555 1_555
N8_4 O2_4 1_555 1_555
C11_4 N8_4 1_555 1_555
H5_4 C11_4 1_555 1_555
C12_4 C11_4 1_555 1_555
H6_4 C12_4 1_555 1_555
C15_4 H9_4 1_555 1_555
C16_4 N8_4 1_555 1_555
C18_4 C12_4 1_555 1_555
H11_4 C18_4 1_555 1_555
C15_4 C16_4 1_555 1_555
C15_4 C18_4 1_555 1_555
C16_4 C25_4 1_555 1_555
Cu2_2 C1_4 1_555 1_555
O3_4 Dy1_4 1_555 1_555
N2_4 Dy1_4 1_555 1_555
C1_4 N2_4 1_555 1_555
O5_4 Dy1_4 1_555 1_555
N3_4 Cu2_2 1_555 1_555
C26 N3_4 1_555 1_555
N6_4 Cu2_2 1_555 1_555
C5_4 N9_4 1_555 1_555
C6_4 H1_4 1_555 1_555
C7_4 H2_4 1_555 1_555
C9_4 C6_4 1_555 1_555
H3_4 C9_4 1_555 1_555
N9_4 O3_4 1_555 1_555
C22_4 C5_4 1_555 1_555
H15_4 C22_4 1_555 1_555
C27_2 Cu2_2 1_555 1_555
C5_4 C24_4 1_555 1_555
C6_4 C22_4 1_555 1_555
C7_4 C9_4 1_555 1_555
C7_4 N9_4 1_555 1_555
C27_2 N4_4 1_555 1_555
C2_4 N1_4 1_555 1_555
C10_4 N7_4 1_555 1_555
H4_4 C10_4 1_555 1_555
C19_4 C10_4 1_555 1_555
H12_4 C19_4 1_555 1_555
C20_4 C19_4 1_555 1_555
H13_4 C20_4 1_555 1_555
C21_4 C20_4 1_555 1_555
H14_4 C21_4 1_555 1_555
C13_4 N5_4 1_555 1_555
H7_4 C13_4 1_555 1_555
C14_4 H8_4 1_555 1_555
C17_4 C13_4 1_555 1_555
H10_4 C17_4 1_555 1_555
C23_4 C14_4 1_555 1_555
C14_4 C17_4 1_555 1_555
H18_4 O1_4 1_555 1_555

#END
