
###############################################################################
#
# This file contains modified crystal structure data generated from the
# MOF subset of the Cambridge Structural Database (CSD) v543 
# hosted by the Cambridge Crystallographic Data Centre (CCDC).
#
# This work is licensed under the Creative Commons
# Attribution-NonCommercial-ShareAlike 4.0 International License.
# To view a copy of this license, visit
# http://creativecommons.org/licenses/by-nc-sa/4.0/
# or send a letter to
# Creative Commons, PO Box 1866, Mountain View, CA 94042, USA.
#
# CIF created using the CSD Python API on 29 September 2022
# The structure has been converted into the P1 space group
# The structure has a 3D framework
# The original CSD entry RORRIC05 is in the trigonal crystal system
# The original CSD entry RORRIC05 is in a Sohncke space group
# The framework has been calculated to contain at least 10.0% void space
# The void calculation uses a probe of radius 1.32A, grid spacing 0.4
# H atom positions have been added when not included in the experimental data
# Generated hydrogen atom positions removed from atoms on special positions
#
###############################################################################

data_RORRIC05
_chemical_formula_moiety         '(C42 H60 Cu6 N18 O24)n'
_symmetry_cell_setting           triclinic
_symmetry_space_group_name_H-M   'P 1'
_symmetry_Int_Tables_number      1
_space_group_name_Hall           'P 1'
loop_
_symmetry_equiv_pos_site_id
_symmetry_equiv_pos_as_xyz
1 x,y,z
_cell_length_a                   10.802(4)
_cell_length_b                   10.802(4)
_cell_length_c                   16.933(6)
_cell_angle_alpha                90
_cell_angle_beta                 90
_cell_angle_gamma                120
_cell_volume                     1711.09
loop_
_atom_site_label
_atom_site_type_symbol
_atom_site_fract_x
_atom_site_fract_y
_atom_site_fract_z
N3 N 0.0646(5) 0.3898(5) 0.0696(2)
O1 O 0.1977(5) 0.6602(5) 0.0011(2)
O3 O 0.1862(5) 0.4633(7) 0.1893(2)
C5 C 0.2008(7) 0.4408(7) 0.0259(3)
H6 H 0.2675 0.4249 0.0597
C6 C 0.0725(6) 0.4023(9) 0.1464(3)
C7 C 0.2746(7) 0.6014(7) 0.0043(3)
N4 N 0.0695(6) 0.3990(8) 0.4138(2)
N5 N 0.0532(7) 0.4327(10) 0.5393(3)
H7 H 0.0762 0.4698 0.5870
C8 C 0.1380(8) 0.4793(11) 0.4760(3)
H8 H 0.2329 0.5579 0.4755
Cu2 Cu 0.13463(8) 0.42314(12) 0.30314(3)
O8 O 0.1307(12) 0.1880(16) 0.2994(5)
O9 O 0.3398(5) 0.5375(7) 0.3344(2)
O2 O 0.4076(5) 0.6616(6) 0.9887(2)
C2 C 0.0773(8) 0.3934(9) 0.8157(3)
H3 H 0.1580 0.4193 0.7829
C3 C 0.0641(8) 0.3618(7) 0.8945(3)
C4 C 0.1684(7) 0.3481(7) 0.9488(3)
H4 H 0.2589 0.3786 0.9201
H5 H 0.1282 0.2466 0.9638
Cu4 Cu 0.28851(9) 0.86537(8) 0.96981(3)
Cu1 Cu 0.86537(8) 0.28851(9) 0.03019(3)
O4 O 0.8693(12) 0.0573(11) 0.0339(5)
N6 N 0.9354(5) 0.3252(7) 0.2637(2)
C9 C 0.9227(8) 0.3161(12) 0.5176(3)
H9 H 0.8420 0.2613 0.5504
C10 C 0.9359(8) 0.2977(11) 0.4388(3)
C11 C 0.8316(7) 0.1797(10) 0.3845(3)
H10 H 0.7411 0.1197 0.4132
H11 H 0.8718 0.1184 0.3695
C12 C 0.7992(7) 0.2400(10) 0.3074(3)
H12 H 0.7325 0.1574 0.2736
O5 O 0.8023(5) 0.4625(7) 0.3322(2)
O6 O 0.5924(5) 0.2540(8) 0.3446(2)
C13 C 0.7254(7) 0.3268(10) 0.3290(3)
O7 O 0.8138(5) 0.2771(9) 0.1440(2)
C14 C 0.9275(6) 0.3298(11) 0.1869(3)
Cu3 Cu 0.71149(9) 0.57686(12) 0.36352(3)
H13 H 0.967728 0.0766753 0.0229582
H14 H 0.838749 0.0130566 0.0869342
N1 N 0.9305(6) 0.3295(6) 0.9195(2)
N2 N 0.9468(7) 0.3795(7) 0.7940(3)
H1 H 0.9238 0.3936 0.7463
C1 C 0.8620(8) 0.3413(8) 0.8573(3)
H2 H 0.7671 0.3250 0.8578
O10 O 0.6602(5) 0.1977(5) 0.9989(2)
N1_2 N 0.6705(6) 0.6010(8) 0.2528(2)
N2_2 N 0.6205(7) 0.5673(10) 0.1273(3)
H1_2 H 0.6064 0.5302 0.0796
N3_2 N 0.6102(5) 0.6748(7) 0.4029(2)
O2_2 O 0.3384(6) 0.7460(8) 0.3220(2)
O3_2 O 0.5367(7) 0.7229(9) 0.5226(2)
C1_2 C 0.6587(8) 0.5207(11) 0.1906(3)
H2_2 H 0.6750 0.4421 0.1911
C2_2 C 0.6066(9) 0.6839(12) 0.1490(3)
H3_2 H 0.5807 0.7387 0.1162
C3_2 C 0.6382(7) 0.7023(11) 0.2278(3)
C4_2 C 0.6519(7) 0.8203(10) 0.2821(3)
H4_2 H 0.6214 0.8803 0.2534
H5_2 H 0.7534 0.8816 0.2971
C5_2 C 0.5592(7) 0.7600(10) 0.3592(3)
H6_2 H 0.5751 0.8426 0.3930
C6_2 C 0.5977(9) 0.6702(11) 0.4797(3)
C7_2 C 0.3986(7) 0.6732(10) 0.3376(3)
O4_2 O 0.9427(11) 0.8120(16) 0.3672(5)
N4_2 N 0.6010(8) 0.6705(10) 0.7472(2)
N5_2 N 0.5673(10) 0.6205(12) 0.8727(3)
H7_2 H 0.5302 0.6064 0.9204
N6_2 N 0.6748(7) 0.6102(9) 0.5971(2)
C8_2 C 0.5207(11) 0.6587(14) 0.8094(3)
H8_2 H 0.4421 0.6750 0.8089
C9_2 C 0.6839(12) 0.6066(14) 0.8510(3)
H9_2 H 0.7387 0.5807 0.8838
C10_2 C 0.7023(11) 0.6382(14) 0.7722(3)
C11_2 C 0.8203(10) 0.6519(12) 0.7179(3)
H10_2 H 0.8803 0.6214 0.7466
H11_2 H 0.8816 0.7534 0.7029
C12_2 C 0.7600(10) 0.5592(12) 0.6408(3)
H12_2 H 0.8426 0.5751 0.6070
O5_2 O 0.5375(7) 0.3398(9) 0.6656(2)
O6_2 O 0.7460(8) 0.3384(9) 0.6780(2)
C13_2 C 0.6732(10) 0.3986(12) 0.6624(3)
O7_2 O 0.7229(9) 0.5367(10) 0.4774(2)
C14_2 C 0.6702(11) 0.5977(13) 0.5203(3)
Cu2_2 Cu 0.57686(12) 0.71149(14) 0.63648(3)
O8_2 O 0.8120(16) 0.9427(20) 0.6328(5)
Cu3_2 Cu 0.42314(12) 0.13463(15) 0.69686(3)
O9_2 O 0.4625(7) 0.8023(9) 0.6678(2)
C9_3 C 0.3934(14) 0.0773(8) 0.1843(3)
H9_3 H 0.4193 0.1580 0.2171
C10_3 C 0.3618(14) 0.0641(8) 0.1055(3)
C11_3 C 0.3481(12) 0.1684(7) 0.0512(3)
H10_3 H 0.3786 0.2589 0.0799
H11_3 H 0.2466 0.1282 0.0362
O6_3 O 0.6616(9) 0.4076(5) 0.0113(2)
N1_3 N 0.3990(8) 0.0695(6) 0.5862(2)
N2_3 N 0.4327(10) 0.0532(7) 0.4607(3)
H1_3 H 0.4698 0.0762 0.4130
C1_3 C 0.4793(11) 0.1380(8) 0.5240(3)
H2_3 H 0.5579 0.2329 0.5245
O4_3 O 0.1880(16) 0.1307(12) 0.7006(5)
N6_3 N 0.3898(9) 0.0646(5) 0.9304(2)
C12_3 C 0.4408(12) 0.2008(7) 0.9741(3)
H12_3 H 0.4249 0.2675 0.9403
C13_3 C 0.6014(12) 0.2746(7) 0.9957(3)
O7_3 O 0.4633(10) 0.1862(5) 0.8107(2)
C14_3 C 0.4023(13) 0.0725(6) 0.8536(3)
N4_3 N 0.3295(10) 0.9305(6) 0.0805(2)
N5_3 N 0.3795(12) 0.9468(7) 0.2060(3)
H7_3 H 0.3936 0.9238 0.2537
C8_3 C 0.3413(14) 0.8620(8) 0.1427(3)
H8_3 H 0.3250 0.7671 0.1422
H16 H 0.0372261 0.893995 0.0192517
N3_3 N 0.3252(7) 0.9354(5) 0.7363(2)
O2_3 O 0.2540(8) 0.5924(5) 0.6554(2)
O3_3 O 0.2771(9) 0.8138(5) 0.8560(2)
C2_3 C 0.3161(12) 0.9227(8) 0.4824(3)
H3_3 H 0.2613 0.8420 0.4496
C3_3 C 0.2977(11) 0.9359(8) 0.5612(3)
C4_3 C 0.1797(10) 0.8316(7) 0.6155(3)
H4_3 H 0.1197 0.7411 0.5868
H5_3 H 0.1184 0.8718 0.6305
C5_3 C 0.2400(10) 0.7992(7) 0.6926(3)
H6_3 H 0.1574 0.7325 0.7264
C6_3 C 0.3298(11) 0.9275(6) 0.8131(3)
C7_3 C 0.3268(10) 0.7254(7) 0.6710(3)
O8_3 O 0.0573(20) 0.8693(12) 0.9661(5)
H13_2 H 0.0766753 0.967728 0.977042
H14_2 H 0.0130566 0.838749 0.913066
H16_2 H 0.893995 0.0372261 0.980748
H15 H 0.795415 0.0217815 0.617009
H15_2 H 0.978219 0.773634 0.950342
H15_3 H 0.0217815 0.795415 0.382991
H15_4 H 0.773634 0.978219 0.0496581
loop_
_geom_bond_atom_site_label_1
_geom_bond_atom_site_label_2
_geom_bond_site_symmetry_1
_geom_bond_site_symmetry_2
O1 C7 1_555 1_555
O3 C6 1_555 1_555
C5 N3 1_555 1_555
H6 C5 1_555 1_555
C6 N3 1_555 1_555
C7 C5 1_555 1_555
N4 C8 1_555 1_555
N5 H7 1_555 1_555
C8 N5 1_555 1_555
H8 C8 1_555 1_555
Cu2 O3 1_555 1_555
O8 Cu2 1_555 1_555
O9 Cu2 1_555 1_555
N4 Cu2 1_555 1_555
H3 C2 1_555 1_555
C4 C3 1_555 1_555
H4 C4 1_555 1_555
H5 C4 1_555 1_555
C2 C3 1_555 1_555
O4 Cu1 1_555 1_555
N6 C12 1_555 1_555
H9 C9 1_555 1_555
C11 C10 1_555 1_555
H10 C11 1_555 1_555
H11 C11 1_555 1_555
C12 C11 1_555 1_555
H12 C12 1_555 1_555
O5 C13 1_555 1_555
O6 C13 1_555 1_555
C13 C12 1_555 1_555
O7 Cu1 1_555 1_555
Cu3 O5 1_555 1_555
N6 C14 1_555 1_555
C9 C10 1_555 1_555
O7 C14 1_555 1_555
O4 H13 1_555 1_555
O4 H14 1_555 1_555
N1 C1 1_555 1_555
N2 H1 1_555 1_555
C1 N2 1_555 1_555
H2 C1 1_555 1_555
Cu3 N1_2 1_555 1_555
N1_2 C1_2 1_555 1_555
N2_2 H1_2 1_555 1_555
N3_2 Cu3 1_555 1_555
O9 C7_2 1_555 1_555
O2_2 C7_2 1_555 1_555
O3_2 C6_2 1_555 1_555
C1_2 N2_2 1_555 1_555
H2_2 C1_2 1_555 1_555
C2_2 N2_2 1_555 1_555
H3_2 C2_2 1_555 1_555
C3_2 N1_2 1_555 1_555
C4_2 C3_2 1_555 1_555
H4_2 C4_2 1_555 1_555
H5_2 C4_2 1_555 1_555
C5_2 N3_2 1_555 1_555
H6_2 C5_2 1_555 1_555
C6_2 N3_2 1_555 1_555
C7_2 C5_2 1_555 1_555
O4_2 Cu3 1_555 1_555
N4_2 C8_2 1_555 1_555
N5_2 H7_2 1_555 1_555
N6_2 C12_2 1_555 1_555
C8_2 N5_2 1_555 1_555
H8_2 C8_2 1_555 1_555
C9_2 N5_2 1_555 1_555
H9_2 C9_2 1_555 1_555
C10_2 N4_2 1_555 1_555
C11_2 C10_2 1_555 1_555
H10_2 C11_2 1_555 1_555
H11_2 C11_2 1_555 1_555
C12_2 C11_2 1_555 1_555
H12_2 C12_2 1_555 1_555
O5_2 C13_2 1_555 1_555
O6_2 C13_2 1_555 1_555
C13_2 C12_2 1_555 1_555
O7_2 Cu3 1_555 1_555
C14_2 C6_2 1_555 1_555
Cu2_2 O3_2 1_555 1_555
O8_2 Cu2_2 1_555 1_555
Cu3_2 O5_2 1_555 1_555
O9_2 Cu2_2 1_555 1_555
C2_2 C3_2 1_555 1_555
C4_2 C5_2 1_555 1_555
N4_2 Cu2_2 1_555 1_555
N6_2 C14_2 1_555 1_555
N6_2 Cu2_2 1_555 1_555
C9_2 C10_2 1_555 1_555
O7_2 C14_2 1_555 1_555
H9_3 C9_3 1_555 1_555
C11_3 C10_3 1_555 1_555
H10_3 C11_3 1_555 1_555
H11_3 C11_3 1_555 1_555
C9_3 C10_3 1_555 1_555
Cu3_2 N1_3 1_555 1_555
N1_3 C1_3 1_555 1_555
N2_3 H1_3 1_555 1_555
C1_3 N2_3 1_555 1_555
H2_3 C1_3 1_555 1_555
O4_3 Cu3_2 1_555 1_555
N6_3 C12_3 1_555 1_555
H12_3 C12_3 1_555 1_555
O10 C13_3 1_555 1_555
C13_3 C12_3 1_555 1_555
O7_3 Cu3_2 1_555 1_555
N6_3 C14_3 1_555 1_555
O7_3 C14_3 1_555 1_555
N4_3 C8_3 1_555 1_555
N5_3 H7_3 1_555 1_555
C8_3 N5_3 1_555 1_555
H8_3 C8_3 1_555 1_555
O9_2 C7_3 1_555 1_555
O2_3 C7_3 1_555 1_555
O3_3 C6_3 1_555 1_555
H3_3 C2_3 1_555 1_555
C4_3 C3_3 1_555 1_555
H4_3 C4_3 1_555 1_555
H5_3 C4_3 1_555 1_555
C5_3 N3_3 1_555 1_555
H6_3 C5_3 1_555 1_555
C6_3 N3_3 1_555 1_555
C7_3 C5_3 1_555 1_555
Cu4 O3_3 1_555 1_555
O8_3 Cu4 1_555 1_555
C2_3 C3_3 1_555 1_555
C4_3 C5_3 1_555 1_555
O8_3 H13_2 1_555 1_555
O8_3 H14_2 1_555 1_555

#END
