
###############################################################################
#
# This file contains modified crystal structure data generated from the
# MOF subset of the Cambridge Structural Database (CSD) v543 
# hosted by the Cambridge Crystallographic Data Centre (CCDC).
#
# This work is licensed under the Creative Commons
# Attribution-NonCommercial-ShareAlike 4.0 International License.
# To view a copy of this license, visit
# http://creativecommons.org/licenses/by-nc-sa/4.0/
# or send a letter to
# Creative Commons, PO Box 1866, Mountain View, CA 94042, USA.
#
# CIF created using the CSD Python API on 29 September 2022
# The structure has been converted into the P1 space group
# The structure has a 3D framework
# The original CSD entry RORRIC06 is in the trigonal crystal system
# The original CSD entry RORRIC06 is in a Sohncke space group
# The framework has been calculated to contain at least 10.0% void space
# The void calculation uses a probe of radius 1.32A, grid spacing 0.4
# H atom positions have been added when not included in the experimental data
# Generated hydrogen atom positions removed from atoms on special positions
#
###############################################################################

data_RORRIC06
_chemical_formula_moiety         '(C42 H60 Cu6 N18 O24)n'
_symmetry_cell_setting           triclinic
_symmetry_space_group_name_H-M   'P 1'
_symmetry_Int_Tables_number      1
_space_group_name_Hall           'P 1'
loop_
_symmetry_equiv_pos_site_id
_symmetry_equiv_pos_as_xyz
1 x,y,z
_cell_length_a                   10.790(4)
_cell_length_b                   10.790(4)
_cell_length_c                   16.891(7)
_cell_angle_alpha                90
_cell_angle_beta                 90
_cell_angle_gamma                120
_cell_volume                     1703.06
loop_
_atom_site_label
_atom_site_type_symbol
_atom_site_fract_x
_atom_site_fract_y
_atom_site_fract_z
O3 O 0.6614(5) 0.4063(5) 0.0114(2)
C2 C 0.3934(8) 0.0756(7) 0.1843(3)
H3 H 0.4200 0.1557 0.2169
C3 C 0.3599(6) 0.0624(7) 0.1053(3)
C4 C 0.3492(7) 0.1661(6) 0.0511(3)
H4 H 0.3803 0.2560 0.0797
H5 H 0.2486 0.1276 0.0363
Cu4 Cu 0.86523(7) 0.29035(8) 0.03042(3)
N3 N 0.3903(5) 0.0644(4) 0.93046(19)
O1 O 0.4644(6) 0.1861(4) 0.81062(18)
O2 O 0.6604(4) 0.1981(5) 0.9985(2)
C5 C 0.4400(6) 0.1985(6) 0.9743(2)
H6 H 0.4236 0.2646 0.9411
C6 C 0.4032(6) 0.0721(6) 0.8536(2)
C7 C 0.6011(6) 0.2737(6) 0.9960(2)
N4 N 0.3991(7) 0.0711(5) 0.5862(2)
N5 N 0.4329(9) 0.0536(7) 0.4614(2)
H7 H 0.4697 0.0763 0.4142
C8 C 0.4796(10) 0.1386(7) 0.5243(3)
H8 H 0.5578 0.2324 0.5247
Cu2 Cu 0.42512(11) 0.13477(7) 0.69709(3)
O8 O 0.1840(17) 0.1308(13) 0.7018(5)
O9 O 0.5377(6) 0.3396(4) 0.6652(2)
N1 N 0.3280(5) 0.9289(5) 0.0805(2)
N2 N 0.3793(6) 0.9464(7) 0.2053(2)
H1 H 0.3934 0.9237 0.2525
C1 C 0.3410(7) 0.8614(7) 0.1424(3)
H2 H 0.3254 0.7676 0.1420
O10 O 0.1981(5) 0.6604(4) 0.0015(2)
Cu1 Cu 0.29035(8) 0.86523(7) 0.96958(3)
O4 O 0.0532(11) 0.8692(13) 0.9649(5)
N6 N 0.3259(6) 0.9356(4) 0.73621(19)
C9 C 0.3178(11) 0.9244(7) 0.4824(3)
H9 H 0.2643 0.8443 0.4498
C10 C 0.2975(9) 0.9376(7) 0.5614(3)
C11 C 0.1831(9) 0.8339(6) 0.6156(3)
H10 H 0.1243 0.7440 0.5870
H11 H 0.1210 0.8724 0.6304
C12 C 0.2415(8) 0.8015(6) 0.6924(2)
H12 H 0.1590 0.7354 0.7256
C13 C 0.3311(8) 0.9279(6) 0.8131(2)
O5 O 0.4623(6) 0.8019(5) 0.6682(2)
O6 O 0.2551(7) 0.5937(5) 0.6553(2)
C14 C 0.3274(8) 0.7263(6) 0.6707(2)
O7 O 0.2783(7) 0.8139(4) 0.85605(18)
Cu3 Cu 0.57488(11) 0.70965(8) 0.63625(3)
H15 H 0.072384 0.967584 0.976137
H16 H 0.00972883 0.83927 0.911511
Cu1_2 Cu 0.13477(7) 0.42512(11) 0.30291(3)
N1_2 N 0.0711(5) 0.3991(7) 0.4138(2)
N2_2 N 0.0536(7) 0.4329(9) 0.5386(2)
H1_2 H 0.0763 0.4697 0.5858
C1_2 C 0.1386(7) 0.4796(10) 0.4757(3)
H2_2 H 0.2324 0.5578 0.4753
O4_2 O 0.1308(13) 0.1840(17) 0.2982(5)
N6_2 N 0.0644(4) 0.3903(7) 0.06954(19)
C12_2 C 0.1985(6) 0.4400(10) 0.0257(2)
H12_2 H 0.2646 0.4236 0.0589
C13_2 C 0.0721(6) 0.4032(10) 0.1464(2)
C14_2 C 0.2737(6) 0.6011(10) 0.0040(2)
O7_2 O 0.1861(4) 0.4644(8) 0.18938(18)
O10_2 O 0.3396(4) 0.5377(6) 0.3348(2)
C9_2 C 0.0756(7) 0.3934(13) 0.8157(3)
H9_2 H 0.1557 0.4200 0.7831
C10_2 C 0.0624(7) 0.3599(11) 0.8947(3)
C11_2 C 0.1661(6) 0.3492(11) 0.9489(3)
H10_2 H 0.2560 0.3803 0.9203
H11_2 H 0.1276 0.2486 0.9637
O6_2 O 0.4063(5) 0.6614(9) 0.9886(2)
N3_2 N 0.9356(4) 0.3259(6) 0.26379(19)
O1_2 O 0.8139(4) 0.2783(7) 0.14395(18)
O2_2 O 0.8019(5) 0.4623(6) 0.3318(2)
O3_2 O 0.5937(5) 0.2551(7) 0.3447(2)
C2_2 C 0.9244(7) 0.3178(11) 0.5176(3)
H3_2 H 0.8443 0.2643 0.5502
C3_2 C 0.9376(7) 0.2975(9) 0.4386(3)
C4_2 C 0.8339(6) 0.1831(9) 0.3844(3)
H4_2 H 0.7440 0.1243 0.4130
H5_2 H 0.8724 0.1210 0.3696
C5_2 C 0.8015(6) 0.2415(8) 0.3076(2)
H6_2 H 0.7354 0.1590 0.2744
C6_2 C 0.9279(6) 0.3311(8) 0.1869(2)
C7_2 C 0.7263(6) 0.3274(8) 0.3293(2)
O8_2 O 0.8692(13) 0.0532(21) 0.0351(5)
Cu4_2 Cu 0.70965(8) 0.57488(11) 0.36375(3)
N4_2 N 0.9289(5) 0.3280(9) 0.9195(2)
N5_2 N 0.9464(7) 0.3793(11) 0.7947(2)
H7_2 H 0.9237 0.3934 0.7475
C8_2 C 0.8614(7) 0.3410(12) 0.8576(3)
H8_2 H 0.7676 0.3254 0.8580
H14 H 0.893911 0.0326194 0.981935
N1_3 N 0.6009(7) 0.6720(5) 0.7472(2)
N2_3 N 0.5671(9) 0.6207(6) 0.8720(2)
H1_3 H 0.5303 0.6066 0.9192
N3_3 N 0.6741(6) 0.6097(5) 0.59713(19)
O1_3 O 0.7217(7) 0.5356(6) 0.47729(18)
O3_3 O 0.7449(7) 0.3386(5) 0.6781(2)
C1_3 C 0.5204(10) 0.6590(7) 0.8091(3)
H2_3 H 0.4422 0.6746 0.8087
C2_3 C 0.6822(11) 0.6066(8) 0.8510(3)
H3_3 H 0.7357 0.5800 0.8836
C3_3 C 0.7025(9) 0.6401(6) 0.7720(3)
C4_3 C 0.8169(9) 0.6508(7) 0.7178(3)
H4_3 H 0.8757 0.6197 0.7464
H5_3 H 0.8790 0.7514 0.7030
C5_3 C 0.7585(8) 0.5600(6) 0.6410(2)
H6_3 H 0.8410 0.5764 0.6078
C6_3 C 0.6689(8) 0.5968(6) 0.5203(2)
C7_3 C 0.6726(8) 0.3989(6) 0.6627(2)
O4_3 O 0.8160(17) 0.9468(11) 0.6316(5)
N4_3 N 0.6720(9) 0.6009(7) 0.2528(2)
N5_3 N 0.6207(11) 0.5671(9) 0.1280(2)
H7_3 H 0.6066 0.5303 0.0808
N6_3 N 0.6097(7) 0.6741(6) 0.40287(19)
C8_3 C 0.6590(12) 0.5204(10) 0.1909(3)
H8_3 H 0.6746 0.4422 0.1913
C9_3 C 0.6066(13) 0.6822(11) 0.1490(3)
H9_3 H 0.5800 0.7357 0.1164
C10_3 C 0.6401(11) 0.7025(9) 0.2280(3)
C11_3 C 0.6508(11) 0.8169(9) 0.2822(3)
H10_3 H 0.6197 0.8757 0.2536
H11_3 H 0.7514 0.8790 0.2970
C12_3 C 0.5600(10) 0.7585(8) 0.3590(2)
H12_3 H 0.5764 0.8410 0.3922
C13_3 C 0.5968(10) 0.6689(8) 0.4797(2)
O6_3 O 0.3386(9) 0.7449(7) 0.3219(2)
C14_3 C 0.3989(10) 0.6726(8) 0.3373(2)
O7_3 O 0.5356(8) 0.7217(7) 0.52271(18)
O8_3 O 0.9468(21) 0.8160(17) 0.3684(5)
H15_2 H 0.967584 0.072384 0.0238634
H16_2 H 0.83927 0.00972883 0.0884887
H14_2 H 0.0326194 0.893911 0.0180654
H13 H 0.77342 0.974187 0.0510121
H13_2 H 0.0258134 0.799234 0.384345
H13_3 H 0.974187 0.77342 0.948988
H13_4 H 0.799234 0.0258134 0.615655
loop_
_geom_bond_atom_site_label_1
_geom_bond_atom_site_label_2
_geom_bond_site_symmetry_1
_geom_bond_site_symmetry_2
H3 C2 1_555 1_555
C4 C3 1_555 1_555
H4 C4 1_555 1_555
H5 C4 1_555 1_555
C2 C3 1_555 1_555
O1 C6 1_555 1_555
O2 C7 1_555 1_555
C5 N3 1_555 1_555
H6 C5 1_555 1_555
C6 N3 1_555 1_555
C7 C5 1_555 1_555
N4 C8 1_555 1_555
N5 H7 1_555 1_555
C8 N5 1_555 1_555
H8 C8 1_555 1_555
Cu2 O1 1_555 1_555
O8 Cu2 1_555 1_555
O9 Cu2 1_555 1_555
N4 Cu2 1_555 1_555
N1 C1 1_555 1_555
N2 H1 1_555 1_555
C1 N2 1_555 1_555
H2 C1 1_555 1_555
O4 Cu1 1_555 1_555
N6 C12 1_555 1_555
H9 C9 1_555 1_555
C11 C10 1_555 1_555
H10 C11 1_555 1_555
H11 C11 1_555 1_555
C12 C11 1_555 1_555
H12 C12 1_555 1_555
O5 C14 1_555 1_555
O6 C14 1_555 1_555
C14 C12 1_555 1_555
O7 Cu1 1_555 1_555
Cu3 O5 1_555 1_555
N6 C13 1_555 1_555
C9 C10 1_555 1_555
C13 O7 1_555 1_555
O4 H15 1_555 1_555
O4 H16 1_555 1_555
Cu1_2 N1_2 1_555 1_555
N1_2 C1_2 1_555 1_555
N2_2 H1_2 1_555 1_555
C1_2 N2_2 1_555 1_555
H2_2 C1_2 1_555 1_555
O4_2 Cu1_2 1_555 1_555
N6_2 C12_2 1_555 1_555
H12_2 C12_2 1_555 1_555
O10 C14_2 1_555 1_555
C14_2 C12_2 1_555 1_555
O7_2 Cu1_2 1_555 1_555
O10_2 Cu1_2 1_555 1_555
N6_2 C13_2 1_555 1_555
C13_2 O7_2 1_555 1_555
H9_2 C9_2 1_555 1_555
C11_2 C10_2 1_555 1_555
H10_2 C11_2 1_555 1_555
H11_2 C11_2 1_555 1_555
C9_2 C10_2 1_555 1_555
O1_2 C6_2 1_555 1_555
O2_2 C7_2 1_555 1_555
O3_2 C7_2 1_555 1_555
H3_2 C2_2 1_555 1_555
C4_2 C3_2 1_555 1_555
H4_2 C4_2 1_555 1_555
H5_2 C4_2 1_555 1_555
C5_2 N3_2 1_555 1_555
H6_2 C5_2 1_555 1_555
C6_2 N3_2 1_555 1_555
C7_2 C5_2 1_555 1_555
Cu4 O1_2 1_555 1_555
O8_2 Cu4 1_555 1_555
Cu4_2 O2_2 1_555 1_555
C2_2 C3_2 1_555 1_555
C4_2 C5_2 1_555 1_555
N4_2 C8_2 1_555 1_555
N5_2 H7_2 1_555 1_555
C8_2 N5_2 1_555 1_555
H8_2 C8_2 1_555 1_555
Cu3 N1_3 1_555 1_555
N1_3 C1_3 1_555 1_555
N2_3 H1_3 1_555 1_555
N3_3 Cu3 1_555 1_555
O1_3 C6_3 1_555 1_555
O9 C7_3 1_555 1_555
O3_3 C7_3 1_555 1_555
C1_3 N2_3 1_555 1_555
H2_3 C1_3 1_555 1_555
C2_3 N2_3 1_555 1_555
H3_3 C2_3 1_555 1_555
C3_3 N1_3 1_555 1_555
C4_3 C3_3 1_555 1_555
H4_3 C4_3 1_555 1_555
H5_3 C4_3 1_555 1_555
C5_3 N3_3 1_555 1_555
H6_3 C5_3 1_555 1_555
C6_3 N3_3 1_555 1_555
C7_3 C5_3 1_555 1_555
O4_3 Cu3 1_555 1_555
N4_3 C8_3 1_555 1_555
N5_3 H7_3 1_555 1_555
N6_3 C12_3 1_555 1_555
C8_3 N5_3 1_555 1_555
H8_3 C8_3 1_555 1_555
C9_3 N5_3 1_555 1_555
H9_3 C9_3 1_555 1_555
C10_3 N4_3 1_555 1_555
C11_3 C10_3 1_555 1_555
H10_3 C11_3 1_555 1_555
H11_3 C11_3 1_555 1_555
C12_3 C11_3 1_555 1_555
H12_3 C12_3 1_555 1_555
C13_3 C6_3 1_555 1_555
O10_2 C14_3 1_555 1_555
O6_3 C14_3 1_555 1_555
C14_3 C12_3 1_555 1_555
O7_3 Cu3 1_555 1_555
Cu4_2 O1_3 1_555 1_555
O8_3 Cu4_2 1_555 1_555
C2_3 C3_3 1_555 1_555
C4_3 C5_3 1_555 1_555
N4_3 Cu4_2 1_555 1_555
N6_3 C13_3 1_555 1_555
N6_3 Cu4_2 1_555 1_555
C9_3 C10_3 1_555 1_555
C13_3 O7_3 1_555 1_555
O8_2 H15_2 1_555 1_555
O8_2 H16_2 1_555 1_555

#END
