
###############################################################################
#
# This file contains modified crystal structure data generated from the
# MOF subset of the Cambridge Structural Database (CSD) v543 
# hosted by the Cambridge Crystallographic Data Centre (CCDC).
#
# This work is licensed under the Creative Commons
# Attribution-NonCommercial-ShareAlike 4.0 International License.
# To view a copy of this license, visit
# http://creativecommons.org/licenses/by-nc-sa/4.0/
# or send a letter to
# Creative Commons, PO Box 1866, Mountain View, CA 94042, USA.
#
# CIF created using the CSD Python API on 29 September 2022
# The structure has been converted into the P1 space group
# The structure has a 3D framework
# The original CSD entry RORRIC01 is in the trigonal crystal system
# The original CSD entry RORRIC01 is in a Sohncke space group
# The framework has been calculated to contain at least 10.0% void space
# The void calculation uses a probe of radius 1.32A, grid spacing 0.4
# H atom positions have been added when not included in the experimental data
# Generated hydrogen atom positions removed from atoms on special positions
#
###############################################################################

data_RORRIC01
_chemical_formula_moiety         '(C42 H60 Cu6 N18 O24)n'
_symmetry_cell_setting           triclinic
_symmetry_space_group_name_H-M   'P 1'
_symmetry_Int_Tables_number      1
_space_group_name_Hall           'P 1'
loop_
_symmetry_equiv_pos_site_id
_symmetry_equiv_pos_as_xyz
1 x,y,z
_cell_length_a                   10.5867(2)
_cell_length_b                   10.5867(2)
_cell_length_c                   16.8414(4)
_cell_angle_alpha                90
_cell_angle_beta                 90
_cell_angle_gamma                120
_cell_volume                     1634.67
loop_
_atom_site_label
_atom_site_type_symbol
_atom_site_fract_x
_atom_site_fract_y
_atom_site_fract_z
H15 H 0.0311225 0.237183 0.950826
N4 N 0.6719(4) 0.0700(3) 0.08061(12)
N5 N 0.6215(5) 0.0524(4) 0.20666(13)
H7 H 0.6071 0.0754 0.2547
C8 C 0.6600(6) 0.1396(4) 0.14299(15)
H8 H 0.6764 0.2364 0.1426
O9 O 0.8037(4) 0.3409(5) 0.00147(11)
H16 H 0.973564 0.114004 0.019873
N3 N 0.6791(4) 0.0659(3) 0.73612(11)
O1 O 0.7284(4) 0.1876(3) 0.85642(10)
O2 O 0.5372(3) 0.1963(4) 0.66814(11)
O3 O 0.7455(3) 0.4086(4) 0.65563(13)
C1 C 0.6744(4) 0.0730(3) 0.81331(13)
C3 C 0.6867(4) 0.0786(4) 0.48188(15)
H3 H 0.7427 0.1610 0.4490
C4 C 0.7062(3) 0.0654(4) 0.56092(14)
C5 C 0.8230(3) 0.1701(4) 0.61530(15)
H4 H 0.8836 0.2631 0.5867
H5 H 0.8868 0.1302 0.6299
C6 C 0.7628(3) 0.2013(4) 0.69211(13)
H6 H 0.8474 0.2702 0.7256
C7 C 0.6745(4) 0.2749(6) 0.67074(13)
Cu2 Cu 0.71331(6) 0.13500(4) 0.97009(2)
O8 O 0.9522(13) 0.1385(10) 0.9665(3)
Cu4 Cu 0.42169(5) 0.28669(6) 0.63675(2)
C9 C 0.6081(6) 0.9214(4) 0.18479(15)
H9 H 0.5817 0.8390 0.2177
C10 C 0.6408(5) 0.9346(4) 0.10575(14)
C11 C 0.6529(5) 0.8299(4) 0.05137(15)
H10 H 0.6205 0.7369 0.0800
H11 H 0.7566 0.8698 0.0368
O7 O 0.3369(5) 0.5914(4) 0.01104(13)
Cu3 Cu 0.13500(4) 0.71331(6) 0.02991(2)
Cu1 Cu 0.57831(5) 0.86500(4) 0.69658(2)
N1 N 0.6019(3) 0.9300(3) 0.58606(12)
N2 N 0.5691(3) 0.9476(4) 0.46001(13)
H1 H 0.5317 0.9246 0.4120
C2 C 0.5204(4) 0.8604(4) 0.52368(15)
H2 H 0.4400 0.7636 0.5241
O4 O 0.8137(9) 0.8615(10) 0.7002(3)
C12 C 0.5615(5) 0.7987(4) 0.97456(13)
H12 H 0.5772 0.7298 0.9411
N6 N 0.6132(5) 0.9341(3) 0.93055(11)
O5 O 0.5408(5) 0.8124(3) 0.81025(10)
C13 C 0.6014(5) 0.9270(3) 0.85336(13)
O6 O 0.3409(5) 0.8037(4) 0.99853(11)
C14 C 0.3996(7) 0.7251(6) 0.99593(13)
O10 O 0.4628(3) 0.6591(5) 0.66519(11)
O4_2 O 0.1385(10) 0.9522(13) 0.0335(3)
C9_2 C 0.0786(4) 0.6867(7) 0.51812(15)
H9_2 H 0.1610 0.7427 0.5510
C10_2 C 0.0654(4) 0.7062(6) 0.43908(14)
C11_2 C 0.1701(4) 0.8230(6) 0.38470(15)
H10_2 H 0.2631 0.8836 0.4133
H11_2 H 0.1302 0.8868 0.3701
C12_2 C 0.2013(4) 0.7628(6) 0.30789(13)
H12_2 H 0.2702 0.8474 0.2744
N6_2 N 0.0659(3) 0.6791(6) 0.26388(11)
O5_2 O 0.1876(3) 0.7284(6) 0.14358(10)
C13_2 C 0.0730(3) 0.6744(6) 0.18669(13)
O6_2 O 0.1963(4) 0.5372(6) 0.33186(11)
O7_2 O 0.4086(4) 0.7455(6) 0.34437(13)
C14_2 C 0.2749(6) 0.6745(9) 0.32926(13)
Cu3_2 Cu 0.28669(6) 0.42169(7) 0.36325(2)
H13 H 0.0391896 0.935359 0.0222149
H14 H 0.170052 0.996841 0.0869396
N1_2 N 0.0700(3) 0.6719(4) 0.91939(12)
N2_2 N 0.0524(4) 0.6215(5) 0.79334(13)
H1_2 H 0.0754 0.6071 0.7453
C2_2 C 0.1396(4) 0.6600(6) 0.85701(15)
H2_2 H 0.2364 0.6764 0.8574
N3_2 N 0.9341(3) 0.6132(5) 0.06945(11)
O1_2 O 0.8124(3) 0.5408(5) 0.18975(10)
C1_2 C 0.9270(3) 0.6014(5) 0.14664(13)
C6_2 C 0.7987(4) 0.5615(5) 0.02544(13)
H6_2 H 0.7298 0.5772 0.0589
C7_2 C 0.7251(6) 0.3996(7) 0.00407(13)
N4_2 N 0.9300(3) 0.6019(5) 0.41394(12)
N5_2 N 0.9476(4) 0.5691(6) 0.53999(13)
H7_2 H 0.9246 0.5317 0.5880
C8_2 C 0.8604(4) 0.5204(7) 0.47632(15)
H8_2 H 0.7636 0.4400 0.4759
Cu2_2 Cu 0.86500(4) 0.57831(7) 0.30342(2)
O8_2 O 0.8615(10) 0.8137(16) 0.2998(3)
O9_2 O 0.6591(5) 0.4628(6) 0.33481(11)
O3_2 O 0.5914(4) 0.3369(5) 0.98896(13)
C3_2 C 0.9214(4) 0.6081(6) 0.81521(15)
H3_2 H 0.8390 0.5817 0.7823
C4_2 C 0.9346(4) 0.6408(5) 0.89425(14)
C5_2 C 0.8299(4) 0.6529(5) 0.94863(15)
H4_2 H 0.7369 0.6205 0.9200
H5_2 H 0.8698 0.7566 0.9632
N1_3 N 0.3281(4) 0.3981(3) 0.25273(12)
N2_3 N 0.3785(5) 0.4309(3) 0.12668(13)
H1_3 H 0.3929 0.4683 0.0787
N3_3 N 0.3868(5) 0.3209(4) 0.40279(11)
O1_3 O 0.4592(5) 0.2716(4) 0.52309(10)
O3_3 O 0.6631(5) 0.2545(3) 0.32230(13)
C1_3 C 0.3986(5) 0.3256(4) 0.47998(13)
C2_3 C 0.3400(6) 0.4796(4) 0.19035(15)
H2_3 H 0.3236 0.5600 0.1908
C3_3 C 0.3919(6) 0.3133(4) 0.14855(15)
H3_3 H 0.4183 0.2573 0.1157
C4_3 C 0.3592(5) 0.2938(3) 0.22759(14)
C5_3 C 0.3471(5) 0.1770(3) 0.28197(15)
H4_3 H 0.3795 0.1164 0.2534
H5_3 H 0.2434 0.1132 0.2966
C6_3 C 0.4385(5) 0.2372(3) 0.35878(13)
H6_3 H 0.4228 0.1526 0.3923
C7_3 C 0.6004(7) 0.3255(4) 0.33741(13)
O4_3 O 0.0478(13) 0.1863(9) 0.3669(3)
N4_3 N 0.3981(5) 0.3281(4) 0.74727(12)
N5_3 N 0.4309(6) 0.3785(5) 0.87332(13)
H7_3 H 0.4683 0.3929 0.9213
C8_3 C 0.4796(7) 0.3400(6) 0.80965(15)
H8_3 H 0.5600 0.3236 0.8092
C9_3 C 0.3133(7) 0.3919(6) 0.85145(15)
H9_3 H 0.2573 0.4183 0.8843
C10_3 C 0.2938(6) 0.3592(5) 0.77241(14)
C11_3 C 0.1770(6) 0.3471(5) 0.71803(15)
H10_3 H 0.1164 0.3795 0.7466
H11_3 H 0.1132 0.2434 0.7034
C12_3 C 0.2372(6) 0.4385(5) 0.64122(13)
H12_3 H 0.1526 0.4228 0.6077
N6_3 N 0.3209(6) 0.3868(5) 0.59721(11)
O5_3 O 0.2716(6) 0.4592(5) 0.47691(10)
C13_3 C 0.3256(6) 0.3986(5) 0.52002(13)
O7_3 O 0.2545(6) 0.6631(5) 0.67770(13)
C14_3 C 0.3255(9) 0.6004(7) 0.66259(13)
O8_3 O 0.1863(16) 0.0478(13) 0.6331(3)
H16_2 H 0.114004 0.973564 0.980127
H13_2 H 0.935359 0.0391896 0.977785
H14_2 H 0.996841 0.170052 0.91306
H15_2 H 0.206061 0.968878 0.617493
H15_3 H 0.237183 0.0311225 0.0491737
H15_4 H 0.968878 0.206061 0.382507
loop_
_geom_bond_atom_site_label_1
_geom_bond_atom_site_label_2
_geom_bond_site_symmetry_1
_geom_bond_site_symmetry_2
N4 C8 1_555 1_555
N5 H7 1_555 1_555
C8 N5 1_555 1_555
H8 C8 1_555 1_555
O1 C1 1_555 1_555
O2 C7 1_555 1_555
O3 C7 1_555 1_555
C1 N3 1_555 1_555
H3 C3 1_555 1_555
C5 C4 1_555 1_555
H4 C5 1_555 1_555
H5 C5 1_555 1_555
C6 N3 1_555 1_555
H6 C6 1_555 1_555
C7 C6 1_555 1_555
Cu2 O1 1_555 1_555
O8 Cu2 1_555 1_555
Cu4 O2 1_555 1_555
C3 C4 1_555 1_555
C5 C6 1_555 1_555
H9 C9 1_555 1_555
C11 C10 1_555 1_555
H10 C11 1_555 1_555
H11 C11 1_555 1_555
C9 C10 1_555 1_555
Cu1 N1 1_555 1_555
N1 C2 1_555 1_555
N2 H1 1_555 1_555
C2 N2 1_555 1_555
H2 C2 1_555 1_555
O4 Cu1 1_555 1_555
H12 C12 1_555 1_555
N6 C12 1_555 1_555
O5 Cu1 1_555 1_555
O6 C14 1_555 1_555
C14 C12 1_555 1_555
O10 Cu1 1_555 1_555
N6 C13 1_555 1_555
O5 C13 1_555 1_555
O4_2 Cu3 1_555 1_555
H9_2 C9_2 1_555 1_555
C11_2 C10_2 1_555 1_555
H10_2 C11_2 1_555 1_555
H11_2 C11_2 1_555 1_555
C12_2 C11_2 1_555 1_555
H12_2 C12_2 1_555 1_555
N6_2 C12_2 1_555 1_555
O5_2 Cu3 1_555 1_555
O6_2 C14_2 1_555 1_555
O7_2 C14_2 1_555 1_555
C14_2 C12_2 1_555 1_555
Cu3_2 O6_2 1_555 1_555
C9_2 C10_2 1_555 1_555
N6_2 C13_2 1_555 1_555
O5_2 C13_2 1_555 1_555
O4_2 H13 1_555 1_555
O4_2 H14 1_555 1_555
N1_2 C2_2 1_555 1_555
N2_2 H1_2 1_555 1_555
C2_2 N2_2 1_555 1_555
H2_2 C2_2 1_555 1_555
O1_2 C1_2 1_555 1_555
O9 C7_2 1_555 1_555
C1_2 N3_2 1_555 1_555
C6_2 N3_2 1_555 1_555
H6_2 C6_2 1_555 1_555
C7_2 C6_2 1_555 1_555
N4_2 C8_2 1_555 1_555
N5_2 H7_2 1_555 1_555
C8_2 N5_2 1_555 1_555
H8_2 C8_2 1_555 1_555
Cu2_2 O1_2 1_555 1_555
O8_2 Cu2_2 1_555 1_555
O9_2 Cu2_2 1_555 1_555
N4_2 Cu2_2 1_555 1_555
H3_2 C3_2 1_555 1_555
C5_2 C4_2 1_555 1_555
H4_2 C5_2 1_555 1_555
H5_2 C5_2 1_555 1_555
C3_2 C4_2 1_555 1_555
Cu3_2 N1_3 1_555 1_555
N1_3 C2_3 1_555 1_555
N2_3 H1_3 1_555 1_555
N3_3 Cu3_2 1_555 1_555
O1_3 C1_3 1_555 1_555
O9_2 C7_3 1_555 1_555
O3_3 C7_3 1_555 1_555
C1_3 N3_3 1_555 1_555
C2_3 N2_3 1_555 1_555
H2_3 C2_3 1_555 1_555
C3_3 N2_3 1_555 1_555
H3_3 C3_3 1_555 1_555
C4_3 N1_3 1_555 1_555
C5_3 C4_3 1_555 1_555
H4_3 C5_3 1_555 1_555
H5_3 C5_3 1_555 1_555
C6_3 N3_3 1_555 1_555
H6_3 C6_3 1_555 1_555
C7_3 C6_3 1_555 1_555
O4_3 Cu3_2 1_555 1_555
N4_3 C8_3 1_555 1_555
N5_3 H7_3 1_555 1_555
C8_3 N5_3 1_555 1_555
H8_3 C8_3 1_555 1_555
C9_3 N5_3 1_555 1_555
H9_3 C9_3 1_555 1_555
C10_3 N4_3 1_555 1_555
C11_3 C10_3 1_555 1_555
H10_3 C11_3 1_555 1_555
H11_3 C11_3 1_555 1_555
C12_3 C11_3 1_555 1_555
H12_3 C12_3 1_555 1_555
N6_3 C12_3 1_555 1_555
O5_3 Cu3_2 1_555 1_555
C13_3 C1_3 1_555 1_555
O10 C14_3 1_555 1_555
O7_3 C14_3 1_555 1_555
C14_3 C12_3 1_555 1_555
Cu4 O1_3 1_555 1_555
O8_3 Cu4 1_555 1_555
C3_3 C4_3 1_555 1_555
C5_3 C6_3 1_555 1_555
N4_3 Cu4 1_555 1_555
C9_3 C10_3 1_555 1_555
N6_3 C13_3 1_555 1_555
N6_3 Cu4 1_555 1_555
O5_3 C13_3 1_555 1_555
O8 H13_2 1_555 1_555
O8 H14_2 1_555 1_555

#END
