
###############################################################################
#
# This file contains modified crystal structure data generated from the
# MOF subset of the Cambridge Structural Database (CSD) v543 
# hosted by the Cambridge Crystallographic Data Centre (CCDC).
#
# This work is licensed under the Creative Commons
# Attribution-NonCommercial-ShareAlike 4.0 International License.
# To view a copy of this license, visit
# http://creativecommons.org/licenses/by-nc-sa/4.0/
# or send a letter to
# Creative Commons, PO Box 1866, Mountain View, CA 94042, USA.
#
# CIF created using the CSD Python API on 29 September 2022
# The structure has been converted into the P1 space group
# The structure has a 3D framework
# The original CSD entry RORRIC04 is in the trigonal crystal system
# The original CSD entry RORRIC04 is in a Sohncke space group
# The framework has been calculated to contain at least 10.0% void space
# The void calculation uses a probe of radius 1.32A, grid spacing 0.4
#
###############################################################################

data_RORRIC04
_chemical_formula_moiety         '(C42 H48 Cu6 N18 O24)n'
_symmetry_cell_setting           triclinic
_symmetry_space_group_name_H-M   'P 1'
_symmetry_Int_Tables_number      1
_space_group_name_Hall           'P 1'
loop_
_symmetry_equiv_pos_site_id
_symmetry_equiv_pos_as_xyz
1 x,y,z
_cell_length_a                   10.70450(10)
_cell_length_b                   10.70450(10)
_cell_length_c                   16.8919(3)
_cell_angle_alpha                90
_cell_angle_beta                 90
_cell_angle_gamma                120
_cell_volume                     1676.26
loop_
_atom_site_label
_atom_site_type_symbol
_atom_site_fract_x
_atom_site_fract_y
_atom_site_fract_z
Cu1 Cu 0.42376(4) 0.13473(3) 0.19726(2)
N2 N 0.4007(3) 0.0717(3) 0.08714(13)
C5 C 0.4807(4) 0.1403(4) 0.02468(17)
H6 H 0.5590 0.2353 0.0250
O4 O 0.1916(9) 0.1300(9) 0.1994(5)
H7 H 0.088(3) 0.085(4) 0.208(2)
H8 H 0.220(7) 0.173(19) 0.253(5)
N4 N 0.3908(3) 0.0644(2) 0.43043(12)
C8 C 0.4395(4) 0.1978(3) 0.47441(14)
H10 H 0.4237 0.2646 0.4410
C9 C 0.3486(4) 0.1671(3) 0.55038(17)
H11 H 0.3802 0.2580 0.5787
H12 H 0.2473 0.1282 0.5357
C10 C 0.3601(4) 0.0626(3) 0.60483(16)
C11 C 0.3915(6) 0.0755(4) 0.68353(18)
H13 H 0.4165 0.1559 0.7161
C13 C 0.4036(4) 0.0725(3) 0.35365(14)
O5 O 0.6614(5) 0.1986(4) 0.49909(13)
O6 O 0.6599(5) 0.4052(4) 0.51141(16)
C14 C 0.5997(5) 0.2728(4) 0.49635(14)
O7 O 0.4630(4) 0.1856(2) 0.31076(12)
Cu3 Cu 0.86527(3) 0.28903(5) 0.53059(2)
O10 O 0.5372(3) 0.3386(5) 0.16575(13)
N1 N 0.3264(2) 0.9356(2) 0.23624(12)
O1 O 0.4628(3) 0.8014(4) 0.16758(13)
O2 O 0.2547(3) 0.5948(4) 0.15526(16)
O3 O 0.2774(4) 0.8144(2) 0.35591(12)
C1 C 0.2417(3) 0.8022(3) 0.19226(14)
H2 H 0.1591 0.7354 0.2257
C2 C 0.1815(3) 0.8329(3) 0.11629(17)
H3 H 0.1222 0.7420 0.0880
H4 H 0.1191 0.8718 0.1310
C3 C 0.2975(3) 0.9374(3) 0.06184(16)
C6 C 0.3311(3) 0.9275(3) 0.31302(14)
C7 C 0.3269(3) 0.7272(4) 0.17032(14)
N5 N 0.3290(4) 0.9283(3) 0.57953(13)
N6 N 0.3789(6) 0.9453(4) 0.70552(16)
H9 H 0.3937 0.9229 0.7528
C12 C 0.3404(6) 0.8597(4) 0.64199(17)
H14 H 0.3237 0.7647 0.6417
Cu2 Cu 0.28903(5) 0.86527(3) 0.46941(2)
O8 O 0.0616(13) 0.8700(9) 0.4673(5)
H15 H 0.003(5) 0.915(4) 0.459(2)
H16 H 0.047(20) 0.827(19) 0.414(5)
Cu4 Cu 0.57624(4) 0.71097(5) 0.13607(2)
O9 O 0.1986(4) 0.6614(5) 0.50091(13)
N1_2 N 0.0644(2) 0.3908(3) 0.56957(12)
O2_2 O 0.4052(4) 0.6599(5) 0.48859(16)
O3_2 O 0.1856(2) 0.4630(4) 0.68924(12)
C1_2 C 0.1978(3) 0.4395(4) 0.52559(14)
H2_2 H 0.2646 0.4237 0.5590
C2_2 C 0.1671(3) 0.3486(4) 0.44962(17)
H3_2 H 0.2580 0.3802 0.4213
H4_2 H 0.1282 0.2473 0.4643
C3_2 C 0.0626(3) 0.3601(4) 0.39517(16)
C4 C 0.0755(4) 0.3915(6) 0.31647(18)
H5 H 0.1559 0.4165 0.2839
C6_2 C 0.0725(3) 0.4036(4) 0.64635(14)
C7_2 C 0.2728(4) 0.5997(5) 0.50365(14)
N5_2 N 0.0717(3) 0.4007(5) 0.91286(13)
C12_2 C 0.1403(4) 0.4807(7) 0.97532(17)
H14_2 H 0.2353 0.5590 0.9750
Cu2_2 Cu 0.13473(3) 0.42376(6) 0.80274(2)
O8_2 O 0.1300(9) 0.1916(16) 0.8006(5)
H15_2 H 0.085(4) 0.088(6) 0.792(2)
H16_2 H 0.173(19) 0.220(28) 0.747(5)
O9_2 O 0.3386(5) 0.5372(6) 0.83425(13)
N2_2 N 0.9283(3) 0.3290(4) 0.42047(13)
N3 N 0.9453(4) 0.3789(6) 0.29448(16)
H1 H 0.9229 0.3937 0.2472
C5_2 C 0.8597(4) 0.3404(6) 0.35801(17)
H6_2 H 0.7647 0.3237 0.3583
O4_2 O 0.8700(9) 0.0616(13) 0.5327(5)
H7_2 H 0.915(4) 0.003(5) 0.541(2)
H8_2 H 0.827(19) 0.047(20) 0.586(5)
N4_2 N 0.9356(2) 0.3264(4) 0.76376(12)
C8_2 C 0.8022(3) 0.2417(5) 0.80774(14)
H10_2 H 0.7354 0.1591 0.7743
C9_2 C 0.8329(3) 0.1815(5) 0.88371(17)
H11_2 H 0.7420 0.1222 0.9120
H12_2 H 0.8718 0.1191 0.8690
C10_2 C 0.9374(3) 0.2975(5) 0.93816(16)
C13_2 C 0.9275(3) 0.3311(5) 0.68698(14)
O5_2 O 0.8014(4) 0.4628(6) 0.83242(13)
O6_2 O 0.5948(4) 0.2547(6) 0.84474(16)
C14_2 C 0.7272(4) 0.3269(6) 0.82968(14)
O7_2 O 0.8144(2) 0.2774(4) 0.64409(12)
Cu3_2 Cu 0.71097(5) 0.57624(6) 0.86393(2)
O3_3 O 0.5370(4) 0.7226(4) 0.02258(12)
N4_3 N 0.6736(4) 0.6092(3) 0.09709(12)
N5_3 N 0.5993(5) 0.6710(4) 0.24619(13)
N6_2 N 0.5664(7) 0.6211(6) 0.37218(16)
H9_2 H 0.5292 0.6063 0.4194
C8_3 C 0.7583(5) 0.5605(4) 0.14107(14)
H10_3 H 0.8409 0.5763 0.1076
C9_3 C 0.8185(5) 0.6514(4) 0.21704(17)
H11_3 H 0.8778 0.6198 0.2453
H12_3 H 0.8809 0.7527 0.2023
C10_3 C 0.7025(5) 0.6399(4) 0.27149(16)
C11_2 C 0.6840(7) 0.6085(6) 0.35019(18)
H13_2 H 0.7394 0.5835 0.3827
C12_3 C 0.5193(7) 0.6596(6) 0.30865(17)
H14_3 H 0.4410 0.6763 0.3083
C13_3 C 0.6689(5) 0.5964(4) 0.02031(14)
O6_3 O 0.7453(6) 0.3401(5) 0.17807(16)
C14_3 C 0.6731(6) 0.4003(5) 0.16301(14)
O8_3 O 0.8084(16) 0.9384(13) 0.1339(5)
H15_3 H 0.912(6) 0.997(5) 0.125(2)
H16_3 H 0.780(28) 0.953(20) 0.080(5)
N1_3 N 0.6092(3) 0.6736(2) 0.90291(12)
N2_3 N 0.6710(4) 0.5993(3) 0.75381(13)
N3_2 N 0.6211(6) 0.5664(4) 0.62782(16)
H1_2 H 0.6063 0.5292 0.5806
O2_3 O 0.3401(5) 0.7453(3) 0.82193(16)
C1_3 C 0.5605(4) 0.7583(3) 0.85893(14)
H2_3 H 0.5763 0.8409 0.8924
C2_3 C 0.6514(4) 0.8185(3) 0.78296(17)
H3_3 H 0.6198 0.8778 0.7547
H4_3 H 0.7527 0.8809 0.7977
C3_3 C 0.6399(4) 0.7025(3) 0.72851(16)
C4_2 C 0.6085(6) 0.6840(4) 0.64981(18)
H5_2 H 0.5835 0.7394 0.6173
C5_3 C 0.6596(6) 0.5193(4) 0.69135(17)
H6_3 H 0.6763 0.4410 0.6917
C6_3 C 0.5964(4) 0.6689(3) 0.97969(14)
C7_3 C 0.4003(5) 0.6731(3) 0.83699(14)
O4_3 O 0.9384(13) 0.8084(9) 0.8661(5)
H7_3 H 0.997(5) 0.912(3) 0.875(2)
H8_3 H 0.953(20) 0.780(7) 0.920(5)
O7_3 O 0.7226(4) 0.5370(4) 0.97742(12)
N3_3 N 0.4336(4) 0.0547(4) 0.96115(16)
H1_3 H 0.4708 0.0771 0.9139
C4_3 C 0.3160(4) 0.9245(4) 0.98314(18)
H5_3 H 0.2606 0.8441 0.9506
N6_3 N 0.0547(4) 0.4336(7) 0.03885(16)
H9_3 H 0.0771 0.4708 0.0861
C11_3 C 0.9245(4) 0.3160(7) 0.01686(18)
H13_3 H 0.8441 0.2606 0.0494
loop_
_geom_bond_atom_site_label_1
_geom_bond_atom_site_label_2
_geom_bond_site_symmetry_1
_geom_bond_site_symmetry_2
N2 Cu1 1_555 1_555
C5 N2 1_555 1_555
H6 C5 1_555 1_555
O4 Cu1 1_555 1_555
H7 O4 1_555 1_555
H8 O4 1_555 1_555
N4 C8 1_555 1_555
C8 H10 1_555 1_555
C9 C8 1_555 1_555
H11 C9 1_555 1_555
H12 C9 1_555 1_555
C10 C9 1_555 1_555
H13 C11 1_555 1_555
O5 C14 1_555 1_555
O6 C14 1_555 1_555
C14 C8 1_555 1_555
O7 Cu1 1_555 1_555
Cu3 O5 1_555 1_555
O10 Cu1 1_555 1_555
N4 C13 1_555 1_555
C10 C11 1_555 1_555
C13 O7 1_555 1_555
N1 C1 1_555 1_555
O1 C7 1_555 1_555
O2 C7 1_555 1_555
O3 C6 1_555 1_555
C1 H2 1_555 1_555
C2 C1 1_555 1_555
H3 C2 1_555 1_555
H4 C2 1_555 1_555
C6 N1 1_555 1_555
C7 C1 1_555 1_555
N6 H9 1_555 1_555
C12 N5 1_555 1_555
H14 C12 1_555 1_555
Cu2 O3 1_555 1_555
O8 Cu2 1_555 1_555
H15 O8 1_555 1_555
H16 O8 1_555 1_555
Cu4 O1 1_555 1_555
O9 Cu2 1_555 1_555
C2 C3 1_555 1_555
N5 Cu2 1_555 1_555
N6 C12 1_555 1_555
N1_2 C1_2 1_555 1_555
O9 C7_2 1_555 1_555
O2_2 C7_2 1_555 1_555
O3_2 C6_2 1_555 1_555
C1_2 H2_2 1_555 1_555
C2_2 C1_2 1_555 1_555
H3_2 C2_2 1_555 1_555
H4_2 C2_2 1_555 1_555
H5 C4 1_555 1_555
C6_2 N1_2 1_555 1_555
C7_2 C1_2 1_555 1_555
C12_2 N5_2 1_555 1_555
H14_2 C12_2 1_555 1_555
Cu2_2 O3_2 1_555 1_555
O8_2 Cu2_2 1_555 1_555
H15_2 O8_2 1_555 1_555
H16_2 O8_2 1_555 1_555
O9_2 Cu2_2 1_555 1_555
C2_2 C3_2 1_555 1_555
C3_2 C4 1_555 1_555
N5_2 Cu2_2 1_555 1_555
N2_2 Cu3 1_555 1_555
N3 H1 1_555 1_555
C5_2 N2_2 1_555 1_555
H6_2 C5_2 1_555 1_555
O4_2 Cu3 1_555 1_555
H7_2 O4_2 1_555 1_555
H8_2 O4_2 1_555 1_555
N4_2 C8_2 1_555 1_555
C8_2 H10_2 1_555 1_555
C9_2 C8_2 1_555 1_555
H11_2 C9_2 1_555 1_555
H12_2 C9_2 1_555 1_555
C10_2 C9_2 1_555 1_555
O5_2 C14_2 1_555 1_555
O6_2 C14_2 1_555 1_555
C14_2 C8_2 1_555 1_555
O7_2 Cu3 1_555 1_555
Cu3_2 O5_2 1_555 1_555
N3 C5_2 1_555 1_555
N4_2 C13_2 1_555 1_555
C13_2 O7_2 1_555 1_555
N4_3 C8_3 1_555 1_555
N5_3 C10_3 1_555 1_555
N6_2 H9_2 1_555 1_555
C8_3 H10_3 1_555 1_555
C9_3 C8_3 1_555 1_555
H11_3 C9_3 1_555 1_555
H12_3 C9_3 1_555 1_555
C10_3 C9_3 1_555 1_555
C11_2 N6_2 1_555 1_555
H13_2 C11_2 1_555 1_555
C12_3 N5_3 1_555 1_555
H14_3 C12_3 1_555 1_555
O10 C14_3 1_555 1_555
O6_3 C14_3 1_555 1_555
C14_3 C8_3 1_555 1_555
Cu4 O3_3 1_555 1_555
O8_3 Cu4 1_555 1_555
H15_3 O8_3 1_555 1_555
H16_3 O8_3 1_555 1_555
N4_3 C13_3 1_555 1_555
N4_3 Cu4 1_555 1_555
N5_3 Cu4 1_555 1_555
N6_2 C12_3 1_555 1_555
C10_3 C11_2 1_555 1_555
Cu3_2 N1_3 1_555 1_555
N1_3 C1_3 1_555 1_555
N2_3 Cu3_2 1_555 1_555
N3_2 H1_2 1_555 1_555
O9_2 C7_3 1_555 1_555
O2_3 C7_3 1_555 1_555
C1_3 H2_3 1_555 1_555
C2_3 C1_3 1_555 1_555
H3_3 C2_3 1_555 1_555
H4_3 C2_3 1_555 1_555
C3_3 N2_3 1_555 1_555
C4_2 N3_2 1_555 1_555
H5_2 C4_2 1_555 1_555
C5_3 N2_3 1_555 1_555
H6_3 C5_3 1_555 1_555
C6_3 N1_3 1_555 1_555
C7_3 C1_3 1_555 1_555
O4_3 Cu3_2 1_555 1_555
H7_3 O4_3 1_555 1_555
H8_3 O4_3 1_555 1_555
O7_3 Cu3_2 1_555 1_555
N3_2 C5_3 1_555 1_555
C2_3 C3_3 1_555 1_555
C3_3 C4_2 1_555 1_555
N3_3 H1_3 1_555 1_555
H5_3 C4_3 1_555 1_555
N6_3 H9_3 1_555 1_555
H13_3 C11_3 1_555 1_555

#END
