
###############################################################################
#
# This file contains modified crystal structure data generated from the
# MOF subset of the Cambridge Structural Database (CSD) v543 
# hosted by the Cambridge Crystallographic Data Centre (CCDC).
#
# This work is licensed under the Creative Commons
# Attribution-NonCommercial-ShareAlike 4.0 International License.
# To view a copy of this license, visit
# http://creativecommons.org/licenses/by-nc-sa/4.0/
# or send a letter to
# Creative Commons, PO Box 1866, Mountain View, CA 94042, USA.
#
# CIF created using the CSD Python API on 29 September 2022
# The structure has been converted into the P1 space group
# The structure has a 3D framework
# The original CSD entry RORSID03 is in the trigonal crystal system
# The original CSD entry RORSID03 is in a Sohncke space group
# The framework has been calculated to contain at least 10.0% void space
# The void calculation uses a probe of radius 1.32A, grid spacing 0.4
#
###############################################################################

data_RORSID03
_chemical_formula_moiety         '(C42 H36 Cu6 N18 O14)n'
_symmetry_cell_setting           triclinic
_symmetry_space_group_name_H-M   'P 1'
_symmetry_Int_Tables_number      1
_space_group_name_Hall           'P 1'
loop_
_symmetry_equiv_pos_site_id
_symmetry_equiv_pos_as_xyz
1 x,y,z
_cell_length_a                   10.156(5)
_cell_length_b                   10.156(5)
_cell_length_c                   16.664(9)
_cell_angle_alpha                90
_cell_angle_beta                 90
_cell_angle_gamma                120
_cell_volume                     1488.52
loop_
_atom_site_label
_atom_site_type_symbol
_atom_site_fract_x
_atom_site_fract_y
_atom_site_fract_z
Cu1 Cu 0.40742(17) 0.25867(18) 0.63826(7)
N1 N 0.2918(12) 0.3536(12) 0.6001(5)
N2 N 0.3728(13) 0.2813(14) 0.7523(5)
N3 N 0.4213(12) 0.3347(15) 0.8812(6)
H1 H 0.4612 0.3431 0.9285
O1 O 0.2328(10) 0.4292(10) 0.4799(4)
O2 O 0.4809(10) 0.6348(14) 0.6679(4)
O3 O 0.2920(10) 0.6834(14) 0.6768(4)
C1 C 0.3401(15) 0.5944(21) 0.6645(5)
C2 C 0.2892(15) 0.3640(14) 0.5234(6)
C3 C 0.4579(17) 0.2862(19) 0.8147(7)
H2 H 0.5337 0.2590 0.8121
C4 C 0.3111(17) 0.3688(18) 0.8623(7)
H3 H 0.2647 0.4066 0.8970
C5 C 0.2820(13) 0.3366(14) 0.7827(6)
C6 C 0.1653(14) 0.3426(14) 0.7305(7)
H4 H 0.1188 0.3918 0.7606
H5 H 0.0852 0.2383 0.7189
C7 C 0.2277(15) 0.4295(15) 0.6488(6)
H6 H 0.1410 0.4241 0.6188
N4 N 0.3536(12) 0.2918(12) 0.3999(5)
N5 N 0.2813(14) 0.3728(13) 0.2477(5)
N6 N 0.3347(15) 0.4213(12) 0.1188(6)
H7 H 0.3431 0.4612 0.0715
C8 C 0.3640(14) 0.2892(15) 0.4766(6)
C9 C 0.2862(19) 0.4579(17) 0.1853(7)
H8 H 0.2590 0.5337 0.1879
C10 C 0.3688(18) 0.3111(17) 0.1377(7)
H9 H 0.4066 0.2647 0.1030
C11 C 0.3366(14) 0.2820(13) 0.2173(6)
C12 C 0.3426(14) 0.1653(14) 0.2695(7)
H10 H 0.3918 0.1188 0.2394
H11 H 0.2383 0.0852 0.2811
C13 C 0.4295(15) 0.2277(15) 0.3512(6)
H12 H 0.4241 0.1410 0.3812
O4 O 0.6348(14) 0.4809(10) 0.3321(4)
O5 O 0.6834(14) 0.2920(10) 0.3232(4)
C14 C 0.5944(21) 0.3401(15) 0.3355(5)
O6 O 0.4292(10) 0.2328(10) 0.5201(4)
Cu2 Cu 0.25867(18) 0.40742(17) 0.36174(7)
Cu3 Cu 0.85125(25) 0.59258(17) 0.30493(7)
Cu4 Cu 0.59258(17) 0.85125(25) 0.69507(7)
O7 O 0.1539(17) 0.5191(10) 0.3346(4)
O8 O 0.5191(10) 0.1539(17) 0.6654(4)
O9 O 0.3914(17) 0.7080(10) 0.3435(4)
O10 O 0.7080(10) 0.3914(17) 0.6565(4)
Cu1_2 Cu 0.74133(18) 0.14875(25) 0.97159(7)
N4_2 N 0.7082(12) 0.0618(17) 0.7332(5)
C8_2 C 0.7108(15) 0.0748(21) 0.8099(6)
C10_2 C 0.6889(17) 0.0577(25) 0.4710(7)
H9_2 H 0.7353 0.1419 0.4363
C11_2 C 0.7180(13) 0.0546(19) 0.5506(6)
C12_2 C 0.8347(14) 0.1773(20) 0.6028(7)
H10_2 H 0.8812 0.2730 0.5727
H11_2 H 0.9148 0.1531 0.6144
C13_2 C 0.7723(15) 0.2018(21) 0.6845(6)
H12_2 H 0.8590 0.2831 0.7145
C14_2 C 0.6599(15) 0.2543(26) 0.6688(5)
O6_2 O 0.7672(10) 0.1964(14) 0.8534(4)
O8_2 O 0.8461(17) 0.3652(20) 0.9988(4)
O10_2 O 0.6086(17) 0.3166(20) 0.9899(4)
O2_2 O 0.3652(14) 0.8461(17) 0.0012(4)
O3_2 O 0.3166(14) 0.6086(17) 0.0101(4)
C4_2 C 0.6312(18) 0.9423(25) 0.1956(7)
H3_2 H 0.5934 0.8581 0.2303
C5_2 C 0.6634(14) 0.9454(19) 0.1160(6)
C6_2 C 0.6574(14) 0.8227(20) 0.0638(7)
H4_2 H 0.6082 0.7270 0.0939
H5_2 H 0.7617 0.8469 0.0522
Cu4_2 Cu 0.14875(25) 0.74133(30) 0.02841(7)
N1_2 N 0.6464(12) 0.9382(17) 0.9334(5)
O1_2 O 0.5708(10) 0.8036(14) 0.8132(4)
C1_2 C 0.4056(21) 0.7457(26) 0.9978(5)
C2_2 C 0.6360(14) 0.9252(21) 0.8567(6)
C7_2 C 0.5705(15) 0.7982(21) 0.9821(6)
H6_2 H 0.5759 0.7169 0.9521
N5_2 N 0.6272(13) 0.9085(19) 0.5810(5)
N6_2 N 0.5787(12) 0.9134(19) 0.4521(6)
H7_2 H 0.5388 0.8819 0.4048
C9_2 C 0.5421(17) 0.8283(25) 0.5186(7)
H8_2 H 0.4663 0.7253 0.5212
N1_3 N 0.0618(17) 0.7082(12) 0.2668(5)
O1_3 O 0.1964(14) 0.7672(10) 0.1466(4)
C1_3 C 0.2543(26) 0.6599(15) 0.3312(5)
C2_3 C 0.0748(21) 0.7108(15) 0.1901(6)
C4_3 C 0.0577(25) 0.6889(17) 0.5290(7)
H3_3 H 0.1419 0.7353 0.5637
C5_3 C 0.0546(19) 0.7180(13) 0.4494(6)
C6_3 C 0.1773(20) 0.8347(14) 0.3972(7)
H4_3 H 0.2730 0.8812 0.4273
H5_3 H 0.1531 0.9148 0.3856
C7_3 C 0.2018(21) 0.7723(15) 0.3155(6)
H6_3 H 0.2831 0.8590 0.2855
N2_2 N 0.9085(19) 0.6272(13) 0.4190(5)
N3_2 N 0.9134(19) 0.5787(12) 0.5479(6)
H1_2 H 0.8819 0.5388 0.5952
C3_2 C 0.8283(25) 0.5421(17) 0.4814(7)
H2_2 H 0.7253 0.4663 0.4788
N4_3 N 0.9382(17) 0.6464(12) 0.0666(5)
C8_3 C 0.9252(21) 0.6360(14) 0.1433(6)
C13_3 C 0.7982(21) 0.5705(15) 0.0179(6)
H12_3 H 0.7169 0.5759 0.0479
C14_3 C 0.7457(26) 0.4056(21) 0.0022(5)
O6_3 O 0.8036(14) 0.5708(10) 0.1868(4)
C10_3 C 0.9423(25) 0.6312(18) 0.8044(7)
H9_3 H 0.8581 0.5934 0.7697
C11_3 C 0.9454(19) 0.6634(14) 0.8840(6)
C12_3 C 0.8227(20) 0.6574(14) 0.9362(7)
H10_3 H 0.7270 0.6082 0.9061
H11_3 H 0.8469 0.7617 0.9478
N2_3 N 0.7187(14) 0.0915(19) 0.0856(5)
N3_3 N 0.6653(15) 0.0866(19) 0.2145(6)
H1_3 H 0.6569 0.1181 0.2618
C3_3 C 0.7138(19) 0.1717(25) 0.1480(7)
H2_3 H 0.7410 0.2747 0.1454
N5_3 N 0.0915(19) 0.7187(14) 0.9144(5)
N6_3 N 0.0866(19) 0.6653(15) 0.7855(6)
H7_3 H 0.1181 0.6569 0.7382
C9_3 C 0.1717(25) 0.7138(19) 0.8520(7)
H8_3 H 0.2747 0.7410 0.8546
loop_
_geom_bond_atom_site_label_1
_geom_bond_atom_site_label_2
_geom_bond_site_symmetry_1
_geom_bond_site_symmetry_2
Cu1 N1 1_555 1_555
N1 C2 1_555 1_555
N2 Cu1 1_555 1_555
N3 H1 1_555 1_555
O1 C2 1_555 1_555
O2 C1 1_555 1_555
O3 C1 1_555 1_555
C1 C7 1_555 1_555
C2 C8 1_555 1_555
C3 N2 1_555 1_555
H2 C3 1_555 1_555
C4 N3 1_555 1_555
H3 C4 1_555 1_555
C5 N2 1_555 1_555
C6 C5 1_555 1_555
H4 C6 1_555 1_555
H5 C6 1_555 1_555
C7 N1 1_555 1_555
H6 C7 1_555 1_555
N4 C8 1_555 1_555
N5 C9 1_555 1_555
N6 H7 1_555 1_555
C8 O6 1_555 1_555
C9 N6 1_555 1_555
H8 C9 1_555 1_555
C10 N6 1_555 1_555
H9 C10 1_555 1_555
C11 N5 1_555 1_555
C12 C11 1_555 1_555
H10 C12 1_555 1_555
H11 C12 1_555 1_555
C13 N4 1_555 1_555
H12 C13 1_555 1_555
O4 C14 1_555 1_555
O5 C14 1_555 1_555
C14 C13 1_555 1_555
O6 Cu1 1_555 1_555
Cu2 O1 1_555 1_555
Cu3 O4 1_555 1_555
Cu4 O2 1_555 1_555
O7 Cu2 1_555 1_555
O8 Cu1 1_555 1_555
O9 Cu2 1_555 1_555
O10 Cu1 1_555 1_555
N3 C3 1_555 1_555
O3 Cu4 1_555 1_555
C4 C5 1_555 1_555
C6 C7 1_555 1_555
N4 Cu2 1_555 1_555
N5 Cu2 1_555 1_555
C10 C11 1_555 1_555
C12 C13 1_555 1_555
O5 Cu3 1_555 1_555
N4_2 C8_2 1_555 1_555
C8_2 O6_2 1_555 1_555
H9_2 C10_2 1_555 1_555
C12_2 C11_2 1_555 1_555
H10_2 C12_2 1_555 1_555
H11_2 C12_2 1_555 1_555
C13_2 N4_2 1_555 1_555
H12_2 C13_2 1_555 1_555
O8 C14_2 1_555 1_555
O10 C14_2 1_555 1_555
C14_2 C13_2 1_555 1_555
O6_2 Cu1_2 1_555 1_555
O8_2 Cu1_2 1_555 1_555
O10_2 Cu1_2 1_555 1_555
C10_2 C11_2 1_555 1_555
C12_2 C13_2 1_555 1_555
H3_2 C4_2 1_555 1_555
C6_2 C5_2 1_555 1_555
H4_2 C6_2 1_555 1_555
H5_2 C6_2 1_555 1_555
Cu4_2 O2_2 1_555 1_555
O3_2 Cu4_2 1_555 1_555
C4_2 C5_2 1_555 1_555
N1_2 C2_2 1_555 1_555
O1_2 C2_2 1_555 1_555
C1_2 C7_2 1_555 1_555
C7_2 N1_2 1_555 1_555
H6_2 C7_2 1_555 1_555
N5_2 C9_2 1_555 1_555
N6_2 H7_2 1_555 1_555
C9_2 N6_2 1_555 1_555
H8_2 C9_2 1_555 1_555
Cu4 O1_2 1_555 1_555
N5_2 Cu4 1_555 1_555
N1_3 C2_3 1_555 1_555
O1_3 C2_3 1_555 1_555
O7 C1_3 1_555 1_555
O9 C1_3 1_555 1_555
C1_3 C7_3 1_555 1_555
H3_3 C4_3 1_555 1_555
C6_3 C5_3 1_555 1_555
H4_3 C6_3 1_555 1_555
H5_3 C6_3 1_555 1_555
C7_3 N1_3 1_555 1_555
H6_3 C7_3 1_555 1_555
Cu4_2 O1_3 1_555 1_555
C4_3 C5_3 1_555 1_555
C6_3 C7_3 1_555 1_555
N2_2 Cu3 1_555 1_555
N3_2 H1_2 1_555 1_555
C3_2 N2_2 1_555 1_555
H2_2 C3_2 1_555 1_555
N4_3 C8_3 1_555 1_555
C8_3 O6_3 1_555 1_555
C13_3 N4_3 1_555 1_555
H12_3 C13_3 1_555 1_555
C14_3 C13_3 1_555 1_555
O6_3 Cu3 1_555 1_555
N3_2 C3_2 1_555 1_555
H9_3 C10_3 1_555 1_555
C12_3 C11_3 1_555 1_555
H10_3 C12_3 1_555 1_555
H11_3 C12_3 1_555 1_555
C10_3 C11_3 1_555 1_555
N3_3 H1_3 1_555 1_555
C3_3 N2_3 1_555 1_555
H2_3 C3_3 1_555 1_555
N3_3 C3_3 1_555 1_555
N5_3 C9_3 1_555 1_555
N6_3 H7_3 1_555 1_555
C9_3 N6_3 1_555 1_555
H8_3 C9_3 1_555 1_555

#END
