
###############################################################################
#
# This file contains modified crystal structure data generated from the
# MOF subset of the Cambridge Structural Database (CSD) v543 
# hosted by the Cambridge Crystallographic Data Centre (CCDC).
#
# This work is licensed under the Creative Commons
# Attribution-NonCommercial-ShareAlike 4.0 International License.
# To view a copy of this license, visit
# http://creativecommons.org/licenses/by-nc-sa/4.0/
# or send a letter to
# Creative Commons, PO Box 1866, Mountain View, CA 94042, USA.
#
# CIF created using the CSD Python API on 29 September 2022
# The structure has been converted into the P1 space group
# The structure has a 3D framework
# The original CSD entry RORSID06 is in the trigonal crystal system
# The original CSD entry RORSID06 is in a Sohncke space group
# The framework has been calculated to contain at least 10.0% void space
# The void calculation uses a probe of radius 1.32A, grid spacing 0.4
#
###############################################################################

data_RORSID06
_chemical_formula_moiety         '(C42 H36 Cu6 N18 O18)n'
_symmetry_cell_setting           triclinic
_symmetry_space_group_name_H-M   'P 1'
_symmetry_Int_Tables_number      1
_space_group_name_Hall           'P 1'
loop_
_symmetry_equiv_pos_site_id
_symmetry_equiv_pos_as_xyz
1 x,y,z
_cell_length_a                   10.166(5)
_cell_length_b                   10.166(5)
_cell_length_c                   16.563(10)
_cell_angle_alpha                90
_cell_angle_beta                 90
_cell_angle_gamma                120
_cell_volume                     1482.42
loop_
_atom_site_label
_atom_site_type_symbol
_atom_site_fract_x
_atom_site_fract_y
_atom_site_fract_z
Cu1 Cu 0.40665(14) 0.25781(14) 0.13841(6)
N1 N 0.3720(10) 0.2812(11) 0.2527(5)
N2 N 0.2909(10) 0.3529(10) 0.1001(4)
N3 N 0.4217(10) 0.3354(11) 0.3810(5)
H1 H 0.4630 0.3447 0.4289
O1 O 0.4813(9) 0.6348(12) 0.1674(4)
O2 O 0.2919(8) 0.6830(11) 0.1767(4)
C1 C 0.3418(12) 0.5954(17) 0.1651(4)
C2 C 0.2868(12) 0.3630(12) 0.0229(5)
C3 C 0.4563(12) 0.2863(14) 0.3157(6)
H2 H 0.5321 0.2578 0.3134
C4 C 0.3118(14) 0.3697(15) 0.3628(6)
H3 H 0.2660 0.4087 0.3982
C5 C 0.2814(11) 0.3364(12) 0.2833(5)
C6 C 0.1641(11) 0.3427(11) 0.2302(6)
H4 H 0.1171 0.3923 0.2608
H5 H 0.0833 0.2375 0.2183
C7 C 0.2259(12) 0.4289(13) 0.1488(5)
H6 H 0.1390 0.4244 0.1182
O6 O 0.4289(8) 0.2317(8) 0.0201(3)
Cu4 Cu 0.59335(14) 0.85116(20) 0.19492(6)
O8 O 0.5187(9) 0.1535(15) 0.1659(4)
O10 O 0.7081(8) 0.3911(14) 0.1566(4)
O3 O 0.2317(8) 0.4289(8) 0.9799(3)
N4 N 0.2812(11) 0.3720(10) 0.7473(5)
N5 N 0.3529(10) 0.2909(10) 0.8999(4)
N6 N 0.3354(11) 0.4217(10) 0.6190(5)
H7 H 0.3447 0.4630 0.5711
C8 C 0.3630(12) 0.2868(12) 0.9771(5)
C9 C 0.2863(14) 0.4563(12) 0.6843(6)
H8 H 0.2578 0.5321 0.6866
C10 C 0.3697(15) 0.3118(14) 0.6372(6)
H9 H 0.4087 0.2660 0.6018
C11 C 0.3364(12) 0.2814(11) 0.7167(5)
C12 C 0.3427(11) 0.1641(11) 0.7698(6)
H10 H 0.3923 0.1171 0.7392
H11 H 0.2375 0.0833 0.7817
C13 C 0.4289(13) 0.2259(12) 0.8512(5)
H12 H 0.4244 0.1390 0.8818
O4 O 0.6348(12) 0.4813(9) 0.8326(4)
O5 O 0.6830(11) 0.2919(8) 0.8233(4)
C14 C 0.5954(17) 0.3418(12) 0.8349(4)
Cu2 Cu 0.25781(14) 0.40665(14) 0.86159(6)
Cu3 Cu 0.85116(20) 0.59335(14) 0.80508(6)
O7 O 0.1535(15) 0.5187(9) 0.8341(4)
O9 O 0.3911(14) 0.7081(8) 0.8434(4)
Cu1_2 Cu 0.74219(14) 0.14884(20) 0.47174(6)
N1_2 N 0.7188(11) 0.0908(15) 0.5860(5)
N3_2 N 0.6646(11) 0.0863(15) 0.7143(5)
H1_2 H 0.6553 0.1183 0.7622
C3_2 C 0.7137(14) 0.1700(18) 0.6490(6)
H2_2 H 0.7422 0.2743 0.6467
N5_2 N 0.7091(10) 0.0620(14) 0.2332(4)
C8_2 C 0.7132(12) 0.0762(17) 0.3104(5)
C11_2 C 0.7186(11) 0.0550(16) 0.0500(5)
C12_2 C 0.8359(11) 0.1786(16) 0.1031(6)
H10_2 H 0.8829 0.2752 0.0725
H11_2 H 0.9167 0.1542 0.1150
C13_2 C 0.7741(12) 0.2030(18) 0.1845(5)
H12_2 H 0.8610 0.2854 0.2151
C14_2 C 0.6582(12) 0.2536(21) 0.1682(4)
O6_2 O 0.7683(8) 0.1972(11) 0.3534(3)
O8_2 O 0.8465(15) 0.3652(17) 0.4993(4)
O10_2 O 0.6089(14) 0.3170(16) 0.4900(4)
N2_2 N 0.6471(10) 0.9380(14) 0.4334(4)
O1_2 O 0.3652(12) 0.8465(15) 0.5007(4)
O2_2 O 0.3170(11) 0.6089(14) 0.5100(4)
O3_2 O 0.5711(8) 0.8028(11) 0.3132(3)
C1_2 C 0.4046(17) 0.7464(21) 0.4984(4)
C2_2 C 0.6370(12) 0.9238(17) 0.3562(5)
C4_2 C 0.6303(15) 0.9421(21) 0.6961(6)
H3_2 H 0.5913 0.8573 0.7315
C5_2 C 0.6636(12) 0.9450(16) 0.6166(5)
C6_2 C 0.6573(11) 0.8214(16) 0.5635(6)
H4_2 H 0.6077 0.7248 0.5941
H5_2 H 0.7625 0.8458 0.5516
C7_2 C 0.5711(13) 0.7970(18) 0.4821(5)
H6_2 H 0.5756 0.7146 0.4515
N4_2 N 0.6280(10) 0.9092(15) 0.0806(5)
C9_2 C 0.5437(12) 0.8300(18) 0.0176(6)
H8_2 H 0.4679 0.7257 0.0199
Cu4_2 Cu 0.14884(20) 0.74219(24) 0.52826(6)
N2_3 N 0.0620(14) 0.7091(10) 0.7668(4)
O3_3 O 0.1972(11) 0.7683(8) 0.6466(3)
C1_3 C 0.2536(21) 0.6582(12) 0.8318(4)
C2_3 C 0.0762(17) 0.7132(12) 0.6896(5)
C5_3 C 0.0550(16) 0.7186(11) 0.9500(5)
C6_3 C 0.1786(16) 0.8359(11) 0.8969(6)
H4_3 H 0.2752 0.8829 0.9275
H5_3 H 0.1542 0.9167 0.8850
C7_3 C 0.2030(18) 0.7741(12) 0.8155(5)
H6_3 H 0.2854 0.8610 0.7849
N4_3 N 0.0908(15) 0.7188(11) 0.4140(5)
N6_2 N 0.0863(15) 0.6646(11) 0.2857(5)
H7_2 H 0.1183 0.6553 0.2378
C9_3 C 0.1700(18) 0.7137(14) 0.3510(6)
H8_3 H 0.2743 0.7422 0.3533
N1_3 N 0.9092(15) 0.6280(10) 0.9194(5)
C3_3 C 0.8300(18) 0.5437(12) 0.9824(6)
H2_3 H 0.7257 0.4679 0.9801
N5_3 N 0.9380(14) 0.6471(10) 0.5666(4)
C8_3 C 0.9238(17) 0.6370(12) 0.6438(5)
C10_2 C 0.9421(21) 0.6303(15) 0.3039(6)
H9_2 H 0.8573 0.5913 0.2685
C11_3 C 0.9450(16) 0.6636(12) 0.3834(5)
C12_3 C 0.8214(16) 0.6573(11) 0.4365(6)
H10_3 H 0.7248 0.6077 0.4059
H11_3 H 0.8458 0.7625 0.4484
C13_3 C 0.7970(18) 0.5711(13) 0.5179(5)
H12_3 H 0.7146 0.5756 0.5485
C14_3 C 0.7464(21) 0.4046(17) 0.5016(4)
O6_3 O 0.8028(11) 0.5711(8) 0.6868(3)
C10_3 C 0.6882(14) 0.0579(21) 0.9705(6)
H9_3 H 0.7340 0.1427 0.9351
N6_3 N 0.5783(10) 0.9137(15) 0.9523(5)
H7_3 H 0.5370 0.8817 0.9044
C4_3 C 0.0579(21) 0.6882(14) 0.0295(6)
H3_3 H 0.1427 0.7340 0.0649
N3_3 N 0.9137(15) 0.5783(10) 0.0477(5)
H1_3 H 0.8817 0.5370 0.0956
loop_
_geom_bond_atom_site_label_1
_geom_bond_atom_site_label_2
_geom_bond_site_symmetry_1
_geom_bond_site_symmetry_2
Cu1 N1 1_555 1_555
N1 C3 1_555 1_555
N2 Cu1 1_555 1_555
N3 H1 1_555 1_555
O1 C1 1_555 1_555
O2 C1 1_555 1_555
C1 C7 1_555 1_555
C2 N2 1_555 1_555
C3 N3 1_555 1_555
H2 C3 1_555 1_555
C4 N3 1_555 1_555
H3 C4 1_555 1_555
C5 N1 1_555 1_555
C6 C5 1_555 1_555
H4 C6 1_555 1_555
H5 C6 1_555 1_555
C7 N2 1_555 1_555
H6 C7 1_555 1_555
O6 Cu1 1_555 1_555
Cu4 O1 1_555 1_555
O8 Cu1 1_555 1_555
O10 Cu1 1_555 1_555
O2 Cu4 1_555 1_555
C4 C5 1_555 1_555
C6 C7 1_555 1_555
N4 C9 1_555 1_555
N5 C8 1_555 1_555
N6 H7 1_555 1_555
C9 N6 1_555 1_555
H8 C9 1_555 1_555
C10 N6 1_555 1_555
H9 C10 1_555 1_555
C11 N4 1_555 1_555
C12 C11 1_555 1_555
H10 C12 1_555 1_555
H11 C12 1_555 1_555
C13 N5 1_555 1_555
H12 C13 1_555 1_555
O4 C14 1_555 1_555
O5 C14 1_555 1_555
C14 C13 1_555 1_555
Cu2 O3 1_555 1_555
Cu3 O4 1_555 1_555
O7 Cu2 1_555 1_555
O9 Cu2 1_555 1_555
N4 Cu2 1_555 1_555
N5 Cu2 1_555 1_555
C10 C11 1_555 1_555
C12 C13 1_555 1_555
O5 Cu3 1_555 1_555
Cu1_2 N1_2 1_555 1_555
N1_2 C3_2 1_555 1_555
N3_2 H1_2 1_555 1_555
C3_2 N3_2 1_555 1_555
H2_2 C3_2 1_555 1_555
N5_2 C8_2 1_555 1_555
C12_2 C11_2 1_555 1_555
H10_2 C12_2 1_555 1_555
H11_2 C12_2 1_555 1_555
C13_2 N5_2 1_555 1_555
H12_2 C13_2 1_555 1_555
O8 C14_2 1_555 1_555
O10 C14_2 1_555 1_555
C14_2 C13_2 1_555 1_555
O6_2 Cu1_2 1_555 1_555
O8_2 Cu1_2 1_555 1_555
O10_2 Cu1_2 1_555 1_555
C8_2 O6_2 1_555 1_555
C12_2 C13_2 1_555 1_555
O1_2 C1_2 1_555 1_555
O2_2 C1_2 1_555 1_555
O3_2 C2_2 1_555 1_555
C1_2 C7_2 1_555 1_555
C2_2 N2_2 1_555 1_555
H3_2 C4_2 1_555 1_555
C6_2 C5_2 1_555 1_555
H4_2 C6_2 1_555 1_555
H5_2 C6_2 1_555 1_555
C7_2 N2_2 1_555 1_555
H6_2 C7_2 1_555 1_555
N4_2 C9_2 1_555 1_555
H8_2 C9_2 1_555 1_555
Cu4 O3_2 1_555 1_555
Cu4_2 O1_2 1_555 1_555
O2_2 Cu4_2 1_555 1_555
C4_2 C5_2 1_555 1_555
C6_2 C7_2 1_555 1_555
N4_2 Cu4 1_555 1_555
O7 C1_3 1_555 1_555
O9 C1_3 1_555 1_555
O3_3 C2_3 1_555 1_555
C1_3 C7_3 1_555 1_555
C2_3 N2_3 1_555 1_555
C6_3 C5_3 1_555 1_555
H4_3 C6_3 1_555 1_555
H5_3 C6_3 1_555 1_555
C7_3 N2_3 1_555 1_555
H6_3 C7_3 1_555 1_555
N4_3 C9_3 1_555 1_555
N6_2 H7_2 1_555 1_555
C9_3 N6_2 1_555 1_555
H8_3 C9_3 1_555 1_555
Cu4_2 O3_3 1_555 1_555
C6_3 C7_3 1_555 1_555
N4_3 Cu4_2 1_555 1_555
Cu3 N1_3 1_555 1_555
N1_3 C3_3 1_555 1_555
H2_3 C3_3 1_555 1_555
N5_3 C8_3 1_555 1_555
H9_2 C10_2 1_555 1_555
C12_3 C11_3 1_555 1_555
H10_3 C12_3 1_555 1_555
H11_3 C12_3 1_555 1_555
C13_3 N5_3 1_555 1_555
H12_3 C13_3 1_555 1_555
O8_2 C14_3 1_555 1_555
O10_2 C14_3 1_555 1_555
C14_3 C13_3 1_555 1_555
O6_3 Cu3 1_555 1_555
C8_3 O6_3 1_555 1_555
C10_2 C11_3 1_555 1_555
C12_3 C13_3 1_555 1_555
H9_3 C10_3 1_555 1_555
N6_3 H7_3 1_555 1_555
H3_3 C4_3 1_555 1_555
N3_3 H1_3 1_555 1_555

#END
