
###############################################################################
#
# This file contains modified crystal structure data generated from the
# MOF subset of the Cambridge Structural Database (CSD) v543 
# hosted by the Cambridge Crystallographic Data Centre (CCDC).
#
# This work is licensed under the Creative Commons
# Attribution-NonCommercial-ShareAlike 4.0 International License.
# To view a copy of this license, visit
# http://creativecommons.org/licenses/by-nc-sa/4.0/
# or send a letter to
# Creative Commons, PO Box 1866, Mountain View, CA 94042, USA.
#
# CIF created using the CSD Python API on 29 September 2022
# The structure has been converted into the P1 space group
# The structure has a 3D framework
# The original CSD entry RORSID01 is in the trigonal crystal system
# The original CSD entry RORSID01 is in a Sohncke space group
# The framework has been calculated to contain at least 10.0% void space
# The void calculation uses a probe of radius 1.32A, grid spacing 0.4
#
###############################################################################

data_RORSID01
_chemical_formula_moiety         '(C42 H36 Cu6 N18 O14)n'
_symmetry_cell_setting           triclinic
_symmetry_space_group_name_H-M   'P 1'
_symmetry_Int_Tables_number      1
_space_group_name_Hall           'P 1'
loop_
_symmetry_equiv_pos_site_id
_symmetry_equiv_pos_as_xyz
1 x,y,z
_cell_length_a                   10.0623(16)
_cell_length_b                   10.0623(16)
_cell_length_c                   16.382(3)
_cell_angle_alpha                90
_cell_angle_beta                 90
_cell_angle_gamma                120
_cell_volume                     1436.46
loop_
_atom_site_label
_atom_site_type_symbol
_atom_site_fract_x
_atom_site_fract_y
_atom_site_fract_z
O3 O 0.1972(6) 0.4250(9) 0.1861(3)
N3 N 0.0605(7) 0.3483(8) 0.0657(3)
C5 C 0.1990(9) 0.4257(11) 0.0161(3)
H6 H 0.2821 0.4231 0.0460
C6 C 0.0750(9) 0.3580(9) 0.1438(4)
C7 C 0.2469(10) 0.5912(8) 0.0004(3)
N4 N 0.0954(8) 0.3702(13) 0.4195(3)
N5 N 0.0944(10) 0.4183(16) 0.5483(4)
H7 H 0.1266 0.4597 0.5954
C8 C 0.1773(13) 0.4510(20) 0.4819(5)
H8 H 0.2815 0.5227 0.4793
Cu2 Cu 0.15135(11) 0.40500(16) 0.30455(4)
O7 O 0.3696(6) 0.5170(9) 0.3310(3)
O9 O 0.3180(7) 0.7040(10) 0.3225(3)
O1 O 0.1474(7) 0.6304(6) 0.9977(3)
O2 O 0.3860(7) 0.6820(7) 0.9892(3)
C2 C 0.0499(12) 0.3586(13) 0.8033(4)
H3 H 0.1330 0.3957 0.7677
C3 C 0.0494(10) 0.3289(10) 0.8828(4)
C4 C 0.1752(10) 0.3392(9) 0.9350(4)
H4 H 0.2702 0.3899 0.9042
H5 H 0.1540 0.2360 0.9470
Cu4 Cu 0.25365(12) 0.84865(11) 0.97122(4)
Cu1 Cu 0.84865(11) 0.25365(12) 0.02878(4)
N6 N 0.9395(7) 0.2878(11) 0.2676(3)
C9 C 0.9501(12) 0.3087(18) 0.5300(4)
H9 H 0.8670 0.2627 0.5656
C10 C 0.9506(10) 0.2795(14) 0.4505(4)
C11 C 0.8248(10) 0.1640(13) 0.3983(4)
H10 H 0.7298 0.1197 0.4291
H11 H 0.8460 0.0820 0.3863
C12 C 0.8010(9) 0.2267(14) 0.3172(3)
H12 H 0.7179 0.1410 0.2873
C13 C 0.9250(9) 0.2830(13) 0.1895(4)
O4 O 0.8526(7) 0.4830(9) 0.3356(3)
O5 O 0.6140(7) 0.2960(10) 0.3441(3)
C14 C 0.7531(10) 0.3443(13) 0.3329(3)
O6 O 0.8028(6) 0.2278(11) 0.1472(3)
Cu3 Cu 0.74635(12) 0.59500(16) 0.36211(4)
O8 O 0.6304(6) 0.1474(7) 0.0023(3)
O10 O 0.6820(7) 0.3860(7) 0.0108(3)
O3_2 O 0.5750(9) 0.7722(11) 0.5194(3)
N1 N 0.7252(10) 0.6298(13) 0.2471(3)
N2 N 0.6761(12) 0.5817(16) 0.1183(4)
H1 H 0.6669 0.5403 0.0712
N3_2 N 0.6517(8) 0.7122(11) 0.3990(3)
C1 C 0.7263(15) 0.5490(20) 0.1847(5)
H2 H 0.7588 0.4773 0.1873
C2_2 C 0.6414(13) 0.6913(18) 0.1366(4)
H3_2 H 0.6043 0.7373 0.1010
C3_2 C 0.6711(10) 0.7205(14) 0.2161(4)
C4_2 C 0.6608(9) 0.8360(13) 0.2683(4)
H4_2 H 0.6101 0.8803 0.2375
H5_2 H 0.7640 0.9180 0.2803
C5_2 C 0.5743(11) 0.7733(14) 0.3494(3)
H6_2 H 0.5769 0.8590 0.3793
C6_2 C 0.6420(9) 0.7170(13) 0.4771(4)
C7_2 C 0.4088(8) 0.6557(13) 0.3337(3)
N4_2 N 0.6298(13) 0.7252(15) 0.7529(3)
N5_2 N 0.5817(16) 0.6761(19) 0.8817(4)
H7_2 H 0.5403 0.6669 0.9288
N6_2 N 0.7122(11) 0.6517(13) 0.6010(3)
C8_2 C 0.5490(20) 0.7263(24) 0.8153(5)
H8_2 H 0.4773 0.7588 0.8127
C9_2 C 0.6913(18) 0.6414(22) 0.8634(4)
H9_2 H 0.7373 0.6043 0.8990
C10_2 C 0.7205(14) 0.6711(17) 0.7839(4)
C11_2 C 0.8360(13) 0.6608(16) 0.7317(4)
H10_2 H 0.8803 0.6101 0.7625
H11_2 H 0.9180 0.7640 0.7197
C12_2 C 0.7733(14) 0.5743(17) 0.6506(3)
H12_2 H 0.8590 0.5769 0.6207
C13_2 C 0.7170(13) 0.6420(16) 0.5229(4)
O4_2 O 0.5170(9) 0.3696(11) 0.6690(3)
O5_2 O 0.7040(10) 0.3180(12) 0.6775(3)
C14_2 C 0.6557(13) 0.4088(16) 0.6663(3)
O6_2 O 0.7722(11) 0.5750(13) 0.4806(3)
Cu2_2 Cu 0.59500(16) 0.74635(19) 0.63789(4)
Cu3_2 Cu 0.40500(16) 0.15135(20) 0.69545(4)
O7_2 O 0.4830(9) 0.8526(11) 0.6644(3)
O9_2 O 0.2960(10) 0.6140(12) 0.6559(3)
C9_3 C 0.3586(22) 0.0499(12) 0.1967(4)
H9_3 H 0.3957 0.1330 0.2323
C10_3 C 0.3289(17) 0.0494(10) 0.1172(4)
C11_3 C 0.3392(16) 0.1752(10) 0.0650(4)
H10_3 H 0.3899 0.2702 0.0958
H11_3 H 0.2360 0.1540 0.0530
N1_2 N 0.3702(13) 0.0954(8) 0.5805(3)
N2_2 N 0.4183(16) 0.0944(10) 0.4517(4)
H1_2 H 0.4597 0.1266 0.4046
C1_2 C 0.4510(20) 0.1773(13) 0.5181(5)
H2_2 H 0.5227 0.2815 0.5207
N6_3 N 0.3483(13) 0.0605(7) 0.9343(3)
C12_3 C 0.4257(17) 0.1990(9) 0.9839(3)
H12_3 H 0.4231 0.2821 0.9540
C13_3 C 0.3580(16) 0.0750(9) 0.8562(4)
C14_3 C 0.5912(16) 0.2469(10) 0.9996(3)
O6_3 O 0.4250(13) 0.1972(6) 0.8139(3)
O3_3 O 0.2278(11) 0.8028(6) 0.8528(3)
N3_3 N 0.2878(11) 0.9395(7) 0.7324(3)
C2_3 C 0.3087(18) 0.9501(12) 0.4700(4)
H3_3 H 0.2627 0.8670 0.4344
C3_3 C 0.2795(14) 0.9506(10) 0.5495(4)
C4_3 C 0.1640(13) 0.8248(10) 0.6017(4)
H4_3 H 0.1197 0.7298 0.5709
H5_3 H 0.0820 0.8460 0.6137
C5_3 C 0.2267(14) 0.8010(9) 0.6828(3)
H6_3 H 0.1410 0.7179 0.7127
C6_3 C 0.2830(13) 0.9250(9) 0.8105(4)
C7_3 C 0.3443(13) 0.7531(10) 0.6671(3)
N1_3 N 0.9046(8) 0.2748(10) 0.9138(3)
N2_3 N 0.9056(10) 0.3239(12) 0.7850(4)
H1_3 H 0.8734 0.3331 0.7379
C1_3 C 0.8227(13) 0.2737(15) 0.8514(5)
H2_3 H 0.7185 0.2412 0.8540
N4_3 N 0.2748(15) 0.9046(8) 0.0862(3)
N5_3 N 0.3239(19) 0.9056(10) 0.2150(4)
H7_3 H 0.3331 0.8734 0.2621
C8_3 C 0.2737(24) 0.8227(13) 0.1486(5)
H8_3 H 0.2412 0.7185 0.1460
loop_
_geom_bond_atom_site_label_1
_geom_bond_atom_site_label_2
_geom_bond_site_symmetry_1
_geom_bond_site_symmetry_2
O3 C6 1_555 1_555
C5 N3 1_555 1_555
H6 C5 1_555 1_555
C6 N3 1_555 1_555
C7 C5 1_555 1_555
N4 C8 1_555 1_555
N5 H7 1_555 1_555
C8 N5 1_555 1_555
H8 C8 1_555 1_555
Cu2 O3 1_555 1_555
O7 Cu2 1_555 1_555
O9 Cu2 1_555 1_555
N4 Cu2 1_555 1_555
H3 C2 1_555 1_555
C4 C3 1_555 1_555
H4 C4 1_555 1_555
H5 C4 1_555 1_555
Cu4 O1 1_555 1_555
O2 Cu4 1_555 1_555
C2 C3 1_555 1_555
N6 C12 1_555 1_555
H9 C9 1_555 1_555
C11 C10 1_555 1_555
H10 C11 1_555 1_555
H11 C11 1_555 1_555
C12 C11 1_555 1_555
H12 C12 1_555 1_555
O4 C14 1_555 1_555
O5 C14 1_555 1_555
C14 C12 1_555 1_555
O6 Cu1 1_555 1_555
Cu3 O4 1_555 1_555
O8 Cu1 1_555 1_555
O10 Cu1 1_555 1_555
N6 C13 1_555 1_555
C9 C10 1_555 1_555
C13 O6 1_555 1_555
O5 Cu3 1_555 1_555
Cu3 N1 1_555 1_555
O7 C7_2 1_555 1_555
O9 C7_2 1_555 1_555
O3_2 C6_2 1_555 1_555
N1 C1 1_555 1_555
N2 H1 1_555 1_555
N3_2 Cu3 1_555 1_555
C1 N2 1_555 1_555
H2 C1 1_555 1_555
C2_2 N2 1_555 1_555
H3_2 C2_2 1_555 1_555
C3_2 N1 1_555 1_555
C4_2 C3_2 1_555 1_555
H4_2 C4_2 1_555 1_555
H5_2 C4_2 1_555 1_555
C5_2 N3_2 1_555 1_555
H6_2 C5_2 1_555 1_555
C6_2 N3_2 1_555 1_555
C7_2 C5_2 1_555 1_555
N4_2 C8_2 1_555 1_555
N5_2 H7_2 1_555 1_555
N6_2 C12_2 1_555 1_555
C8_2 N5_2 1_555 1_555
H8_2 C8_2 1_555 1_555
C9_2 N5_2 1_555 1_555
H9_2 C9_2 1_555 1_555
C10_2 N4_2 1_555 1_555
C11_2 C10_2 1_555 1_555
H10_2 C11_2 1_555 1_555
H11_2 C11_2 1_555 1_555
C12_2 C11_2 1_555 1_555
H12_2 C12_2 1_555 1_555
C13_2 C6_2 1_555 1_555
O4_2 C14_2 1_555 1_555
O5_2 C14_2 1_555 1_555
C14_2 C12_2 1_555 1_555
O6_2 Cu3 1_555 1_555
Cu2_2 O3_2 1_555 1_555
Cu3_2 O4_2 1_555 1_555
O7_2 Cu2_2 1_555 1_555
O9_2 Cu2_2 1_555 1_555
C2_2 C3_2 1_555 1_555
C4_2 C5_2 1_555 1_555
N4_2 Cu2_2 1_555 1_555
N6_2 C13_2 1_555 1_555
N6_2 Cu2_2 1_555 1_555
C9_2 C10_2 1_555 1_555
C13_2 O6_2 1_555 1_555
O5_2 Cu3_2 1_555 1_555
H9_3 C9_3 1_555 1_555
C11_3 C10_3 1_555 1_555
H10_3 C11_3 1_555 1_555
H11_3 C11_3 1_555 1_555
C9_3 C10_3 1_555 1_555
Cu3_2 N1_2 1_555 1_555
N1_2 C1_2 1_555 1_555
N2_2 H1_2 1_555 1_555
C1_2 N2_2 1_555 1_555
H2_2 C1_2 1_555 1_555
N6_3 C12_3 1_555 1_555
H12_3 C12_3 1_555 1_555
C14_3 C12_3 1_555 1_555
O6_3 Cu3_2 1_555 1_555
N6_3 C13_3 1_555 1_555
C13_3 O6_3 1_555 1_555
O7_2 C7_3 1_555 1_555
O9_2 C7_3 1_555 1_555
O3_3 C6_3 1_555 1_555
H3_3 C2_3 1_555 1_555
C4_3 C3_3 1_555 1_555
H4_3 C4_3 1_555 1_555
H5_3 C4_3 1_555 1_555
C5_3 N3_3 1_555 1_555
H6_3 C5_3 1_555 1_555
C6_3 N3_3 1_555 1_555
C7_3 C5_3 1_555 1_555
Cu4 O3_3 1_555 1_555
C2_3 C3_3 1_555 1_555
C4_3 C5_3 1_555 1_555
N1_3 C1_3 1_555 1_555
N2_3 H1_3 1_555 1_555
C1_3 N2_3 1_555 1_555
H2_3 C1_3 1_555 1_555
N4_3 C8_3 1_555 1_555
N5_3 H7_3 1_555 1_555
C8_3 N5_3 1_555 1_555
H8_3 C8_3 1_555 1_555

#END
