
###############################################################################
#
# This file contains modified crystal structure data generated from the
# MOF subset of the Cambridge Structural Database (CSD) v543 
# hosted by the Cambridge Crystallographic Data Centre (CCDC).
#
# This work is licensed under the Creative Commons
# Attribution-NonCommercial-ShareAlike 4.0 International License.
# To view a copy of this license, visit
# http://creativecommons.org/licenses/by-nc-sa/4.0/
# or send a letter to
# Creative Commons, PO Box 1866, Mountain View, CA 94042, USA.
#
# CIF created using the CSD Python API on 29 September 2022
# The structure has been converted into the P1 space group
# The structure has a 3D framework
# The original CSD entry RORSID is in the trigonal crystal system
# The original CSD entry RORSID is in a Sohncke space group
# The framework has been calculated to contain at least 10.0% void space
# The void calculation uses a probe of radius 1.32A, grid spacing 0.4
#
###############################################################################

data_RORSID
_chemical_formula_moiety         '(C42 H36 Cu6 N18 O18)n'
_symmetry_cell_setting           triclinic
_symmetry_space_group_name_H-M   'P 1'
_symmetry_Int_Tables_number      1
_space_group_name_Hall           'P 1'
loop_
_symmetry_equiv_pos_site_id
_symmetry_equiv_pos_as_xyz
1 x,y,z
_cell_length_a                   10.926(12)
_cell_length_b                   10.926(12)
_cell_length_c                   17.70(2)
_cell_angle_alpha                90
_cell_angle_beta                 90
_cell_angle_gamma                120
_cell_volume                     1829.9
loop_
_atom_site_label
_atom_site_type_symbol
_atom_site_fract_x
_atom_site_fract_y
_atom_site_fract_z
Cu1 Cu 0.5744(2) 0.7121(2) 0.13656(8)
N1 N 0.6846(12) 0.6198(13) 0.0975(5)
N2 N 0.6057(13) 0.6812(14) 0.2481(5)
C1 C 0.6751(17) 0.6044(15) 0.0200(6)
C2 C 0.7625(17) 0.5636(19) 0.1423(6)
H1 H 0.8442 0.5790 0.1121
C3 C 0.8230(16) 0.6502(19) 0.2206(7)
H2 H 0.8760 0.6133 0.2466
H3 H 0.8884 0.7484 0.2085
C4 C 0.7097(14) 0.6437(16) 0.2747(6)
C5 C 0.676(2) 0.398(3) 0.1642(7)
O2 O 0.5345(13) 0.3431(18) 0.1661(4)
O3 O 0.7436(13) 0.3329(18) 0.1786(5)
N3 N 0.5650(16) 0.6239(17) 0.3725(6)
H4 H 0.5277 0.6086 0.4168
C6 C 0.6831(19) 0.6076(18) 0.3500(7)
H5 H 0.7324 0.5781 0.3808
C7 C 0.5236(18) 0.668(2) 0.3107(7)
H6 H 0.4494 0.6865 0.3104
O6 O 0.5421(11) 0.7325(12) 0.0221(4)
Cu4 Cu 0.4256(2) 0.1377(3) 0.19677(8)
O8 O 0.4655(13) 0.8086(22) 0.1672(4)
O1 O 0.7325(12) 0.5421(11) 0.9779(4)
N4 N 0.6198(13) 0.6846(12) 0.9025(5)
N5 N 0.6812(14) 0.6057(13) 0.7519(5)
C8 C 0.5636(19) 0.7625(17) 0.8577(6)
H7 H 0.5790 0.8442 0.8879
C9 C 0.6502(19) 0.8230(16) 0.7794(7)
H8 H 0.6133 0.8760 0.7534
H9 H 0.7484 0.8884 0.7915
C10 C 0.6437(16) 0.7097(14) 0.7253(6)
N6 N 0.6239(17) 0.5650(16) 0.6275(6)
H10 H 0.6086 0.5277 0.5832
C11 C 0.6076(18) 0.6831(19) 0.6500(7)
H11 H 0.5781 0.7324 0.6192
C12 C 0.668(2) 0.5236(18) 0.6893(7)
H12 H 0.6865 0.4494 0.6896
C13 C 0.398(3) 0.676(2) 0.8358(7)
O4 O 0.3431(18) 0.5345(13) 0.8339(4)
O5 O 0.3329(18) 0.7436(13) 0.8214(5)
C14 C 0.6044(15) 0.6751(17) 0.9800(6)
Cu2 Cu 0.7121(2) 0.5744(2) 0.86344(8)
Cu3 Cu 0.1377(3) 0.4256(2) 0.80323(8)
O7 O 0.8086(22) 0.4655(13) 0.8328(4)
O1_2 O 0.4579(11) 0.1904(16) 0.3112(4)
N1_2 N 0.3802(13) 0.0648(18) 0.4308(5)
C1_2 C 0.3956(15) 0.0707(23) 0.3533(6)
C2_2 C 0.4364(19) 0.1989(25) 0.4756(6)
H1_2 H 0.4210 0.2652 0.4454
C3_2 C 0.3498(19) 0.1728(25) 0.5539(7)
H2_2 H 0.3867 0.2627 0.5799
H3_2 H 0.2516 0.1400 0.5418
C4_2 C 0.3563(16) 0.0660(21) 0.6080(6)
C5_2 C 0.602(3) 0.278(4) 0.4975(7)
O2_2 O 0.6569(18) 0.1914(22) 0.4994(4)
O3_2 O 0.6671(18) 0.4107(22) 0.5119(5)
C6_2 C 0.3924(18) 0.0755(26) 0.6833(7)
H5_2 H 0.4219 0.1543 0.7141
N5_2 N 0.3943(13) 0.0755(19) 0.0852(5)
C12_2 C 0.4764(18) 0.1444(27) 0.0226(7)
H12_2 H 0.5506 0.2371 0.0229
Cu4_2 Cu 0.8623(3) 0.2879(4) 0.53011(8)
Cu1_2 Cu 0.2879(2) 0.8623(3) 0.46989(8)
N2_2 N 0.3188(14) 0.9245(19) 0.5814(5)
N3_2 N 0.3761(17) 0.9411(23) 0.7058(6)
H4_2 H 0.3914 0.9191 0.7501
C7_2 C 0.332(2) 0.8556(27) 0.6440(7)
H6_2 H 0.3135 0.7629 0.6437
N4_2 N 0.3154(12) 0.9352(18) 0.2358(5)
C8_2 C 0.2375(17) 0.8011(25) 0.1910(6)
H7_2 H 0.1558 0.7348 0.2212
C9_2 C 0.1770(16) 0.8272(25) 0.1127(7)
H8_2 H 0.1240 0.7373 0.0867
H9_2 H 0.1116 0.8600 0.1248
C10_2 C 0.2903(14) 0.9340(21) 0.0586(6)
C13_2 C 0.324(2) 0.722(4) 0.1691(7)
O5_2 O 0.2564(13) 0.5893(22) 0.1547(5)
O6_2 O 0.2675(12) 0.8096(16) 0.3554(4)
C14_2 C 0.3249(17) 0.9293(23) 0.3133(6)
O8_2 O 0.1914(22) 0.6569(26) 0.5006(4)
N2_3 N 0.0755(19) 0.3943(13) 0.9148(5)
C7_3 C 0.1444(27) 0.4764(18) 0.9774(7)
H6_3 H 0.2371 0.5506 0.9771
N4_3 N 0.0648(18) 0.3802(13) 0.5692(5)
C8_3 C 0.1989(25) 0.4364(19) 0.5244(6)
H7_3 H 0.2652 0.4210 0.5546
C9_3 C 0.1728(25) 0.3498(19) 0.4461(7)
H8_3 H 0.2627 0.3867 0.4201
H9_3 H 0.1400 0.2516 0.4582
C10_3 C 0.0660(21) 0.3563(16) 0.3920(6)
C11_2 C 0.0755(26) 0.3924(18) 0.3167(7)
H11_2 H 0.1543 0.4219 0.2859
C13_3 C 0.278(4) 0.602(3) 0.5025(7)
O5_3 O 0.4107(22) 0.6671(18) 0.4881(5)
O6_3 O 0.1904(16) 0.4579(11) 0.6888(4)
C14_3 C 0.0707(23) 0.3956(15) 0.6467(6)
O1_3 O 0.8096(16) 0.2675(12) 0.6446(4)
N1_3 N 0.9352(18) 0.3154(12) 0.7642(5)
C1_3 C 0.9293(23) 0.3249(17) 0.6867(6)
C2_3 C 0.8011(25) 0.2375(17) 0.8090(6)
H1_3 H 0.7348 0.1558 0.7788
C3_3 C 0.8272(25) 0.1770(16) 0.8873(7)
H2_3 H 0.7373 0.1240 0.9133
H3_3 H 0.8600 0.1116 0.8752
C4_3 C 0.9340(21) 0.2903(14) 0.9414(6)
C5_3 C 0.722(4) 0.324(2) 0.8309(7)
O3_3 O 0.5893(22) 0.2564(13) 0.8453(5)
N5_3 N 0.9245(19) 0.3188(14) 0.4186(5)
N6_2 N 0.9411(23) 0.3761(17) 0.2942(6)
H10_2 H 0.9191 0.3914 0.2499
C12_3 C 0.8556(27) 0.332(2) 0.3560(7)
H12_3 H 0.7629 0.3135 0.3563
N6_3 N 0.4350(16) 0.0589(23) 0.9608(6)
H10_3 H 0.4723 0.0809 0.9165
C11_3 C 0.3169(19) 0.9245(26) 0.9833(7)
H11_3 H 0.2676 0.8457 0.9525
N3_3 N 0.0589(23) 0.4350(16) 0.0392(6)
H4_3 H 0.0809 0.4723 0.0835
C6_3 C 0.9245(26) 0.3169(19) 0.0167(7)
H5_3 H 0.8457 0.2676 0.0475
loop_
_geom_bond_atom_site_label_1
_geom_bond_atom_site_label_2
_geom_bond_site_symmetry_1
_geom_bond_site_symmetry_2
Cu1 N1 1_555 1_555
N1 C1 1_555 1_555
N2 Cu1 1_555 1_555
C2 N1 1_555 1_555
H1 C2 1_555 1_555
C3 C2 1_555 1_555
H2 C3 1_555 1_555
H3 C3 1_555 1_555
C4 N2 1_555 1_555
C5 C2 1_555 1_555
O2 C5 1_555 1_555
O3 C5 1_555 1_555
N3 H4 1_555 1_555
C6 C4 1_555 1_555
H5 C6 1_555 1_555
C7 N2 1_555 1_555
H6 C7 1_555 1_555
O6 Cu1 1_555 1_555
Cu4 O2 1_555 1_555
O8 Cu1 1_555 1_555
C3 C4 1_555 1_555
N3 C6 1_555 1_555
N3 C7 1_555 1_555
N4 C8 1_555 1_555
N5 C10 1_555 1_555
C8 H7 1_555 1_555
C9 C8 1_555 1_555
H8 C9 1_555 1_555
H9 C9 1_555 1_555
C10 C9 1_555 1_555
N6 H10 1_555 1_555
C11 C10 1_555 1_555
H11 C11 1_555 1_555
C12 N5 1_555 1_555
H12 C12 1_555 1_555
C13 C8 1_555 1_555
O4 C13 1_555 1_555
O5 C13 1_555 1_555
C14 N4 1_555 1_555
Cu2 O1 1_555 1_555
Cu3 O4 1_555 1_555
O7 Cu2 1_555 1_555
N4 Cu2 1_555 1_555
N5 Cu2 1_555 1_555
N6 C11 1_555 1_555
N6 C12 1_555 1_555
O1_2 C1_2 1_555 1_555
N1_2 C1_2 1_555 1_555
C2_2 N1_2 1_555 1_555
H1_2 C2_2 1_555 1_555
C3_2 C2_2 1_555 1_555
H2_2 C3_2 1_555 1_555
H3_2 C3_2 1_555 1_555
C5_2 C2_2 1_555 1_555
O2_2 C5_2 1_555 1_555
O3_2 C5_2 1_555 1_555
C6_2 C4_2 1_555 1_555
H5_2 C6_2 1_555 1_555
C12_2 N5_2 1_555 1_555
H12_2 C12_2 1_555 1_555
Cu4 O1_2 1_555 1_555
Cu4_2 O2_2 1_555 1_555
C3_2 C4_2 1_555 1_555
N5_2 Cu4 1_555 1_555
N2_2 Cu1_2 1_555 1_555
N3_2 H4_2 1_555 1_555
C7_2 N2_2 1_555 1_555
H6_2 C7_2 1_555 1_555
N4_2 C8_2 1_555 1_555
C8_2 H7_2 1_555 1_555
C9_2 C8_2 1_555 1_555
H8_2 C9_2 1_555 1_555
H9_2 C9_2 1_555 1_555
C10_2 C9_2 1_555 1_555
C13_2 C8_2 1_555 1_555
O8 C13_2 1_555 1_555
O5_2 C13_2 1_555 1_555
O6_2 Cu1_2 1_555 1_555
C14_2 N4_2 1_555 1_555
O8_2 Cu1_2 1_555 1_555
N3_2 C7_2 1_555 1_555
O6_2 C14_2 1_555 1_555
N2_3 Cu3 1_555 1_555
C7_3 N2_3 1_555 1_555
H6_3 C7_3 1_555 1_555
N4_3 C8_3 1_555 1_555
C8_3 H7_3 1_555 1_555
C9_3 C8_3 1_555 1_555
H8_3 C9_3 1_555 1_555
H9_3 C9_3 1_555 1_555
C10_3 C9_3 1_555 1_555
C11_2 C10_3 1_555 1_555
H11_2 C11_2 1_555 1_555
C13_3 C8_3 1_555 1_555
O8_2 C13_3 1_555 1_555
O5_3 C13_3 1_555 1_555
O6_3 Cu3 1_555 1_555
C14_3 N4_3 1_555 1_555
O6_3 C14_3 1_555 1_555
O1_3 C1_3 1_555 1_555
N1_3 C1_3 1_555 1_555
C2_3 N1_3 1_555 1_555
H1_3 C2_3 1_555 1_555
C3_3 C2_3 1_555 1_555
H2_3 C3_3 1_555 1_555
H3_3 C3_3 1_555 1_555
C5_3 C2_3 1_555 1_555
O7 C5_3 1_555 1_555
O3_3 C5_3 1_555 1_555
N6_2 H10_2 1_555 1_555
C12_3 N5_3 1_555 1_555
H12_3 C12_3 1_555 1_555
Cu4_2 O1_3 1_555 1_555
C3_3 C4_3 1_555 1_555
N5_3 Cu4_2 1_555 1_555
N6_2 C12_3 1_555 1_555
N6_3 H10_3 1_555 1_555
H11_3 C11_3 1_555 1_555
N3_3 H4_3 1_555 1_555
H5_3 C6_3 1_555 1_555

#END
