
###############################################################################
#
# This file contains modified crystal structure data generated from the
# MOF subset of the Cambridge Structural Database (CSD) v543 
# hosted by the Cambridge Crystallographic Data Centre (CCDC).
#
# This work is licensed under the Creative Commons
# Attribution-NonCommercial-ShareAlike 4.0 International License.
# To view a copy of this license, visit
# http://creativecommons.org/licenses/by-nc-sa/4.0/
# or send a letter to
# Creative Commons, PO Box 1866, Mountain View, CA 94042, USA.
#
# CIF created using the CSD Python API on 29 September 2022
# The structure has been converted into the P1 space group
# The structure has a 3D framework
# The original CSD entry RORSID02 is in the trigonal crystal system
# The original CSD entry RORSID02 is in a Sohncke space group
# The framework has been calculated to contain at least 10.0% void space
# The void calculation uses a probe of radius 1.32A, grid spacing 0.4
#
###############################################################################

data_RORSID02
_chemical_formula_moiety         '(C42 H36 Cu6 N18 O18)n'
_symmetry_cell_setting           triclinic
_symmetry_space_group_name_H-M   'P 1'
_symmetry_Int_Tables_number      1
_space_group_name_Hall           'P 1'
loop_
_symmetry_equiv_pos_site_id
_symmetry_equiv_pos_as_xyz
1 x,y,z
_cell_length_a                   10.055(3)
_cell_length_b                   10.055(3)
_cell_length_c                   16.302(6)
_cell_angle_alpha                90
_cell_angle_beta                 90
_cell_angle_gamma                120
_cell_volume                     1427.37
loop_
_atom_site_label
_atom_site_type_symbol
_atom_site_fract_x
_atom_site_fract_y
_atom_site_fract_z
Cu1 Cu 0.59393(12) 0.74460(13) 0.13789(4)
N1 N 0.6288(9) 0.7232(10) 0.2527(4)
N2 N 0.7105(8) 0.6503(8) 0.1007(3)
N3 N 0.5802(9) 0.6719(12) 0.3813(4)
H1 H 0.5386 0.6612 0.4288
O1 O 0.5173(8) 0.3678(11) 0.1686(3)
O2 O 0.7051(7) 0.3177(10) 0.1775(3)
C1 C 0.6563(11) 0.4082(15) 0.1659(4)
C2 C 0.7139(10) 0.6391(9) 0.0228(4)
C3 C 0.5469(12) 0.7242(14) 0.3147(5)
H2 H 0.4754 0.7570 0.3122
C4 C 0.6904(13) 0.6383(13) 0.3622(5)
H3 H 0.7362 0.6003 0.3974
C5 C 0.8360(9) 0.6615(10) 0.2306(4)
H4 H 0.8826 0.6128 0.2615
H5 H 0.9164 0.7652 0.2178
C6 C 0.7205(9) 0.6702(10) 0.2835(4)
C7 C 0.7730(10) 0.5736(11) 0.1501(4)
H6 H 0.8587 0.5767 0.1198
O6 O 0.5735(7) 0.7703(7) 0.0197(3)
Cu4 Cu 0.40607(12) 0.15067(18) 0.19544(4)
O8 O 0.4827(8) 0.8505(14) 0.1647(3)
O10 O 0.2949(7) 0.6126(12) 0.1558(3)
O3 O 0.7703(7) 0.5735(7) 0.9803(3)
N4 N 0.7232(10) 0.6288(9) 0.7473(4)
N5 N 0.6503(8) 0.7105(8) 0.8993(3)
N6 N 0.6719(12) 0.5802(9) 0.6187(4)
H7 H 0.6612 0.5386 0.5712
C8 C 0.6391(9) 0.7139(10) 0.9772(4)
C9 C 0.7242(14) 0.5469(12) 0.6853(5)
H8 H 0.7570 0.4754 0.6878
C10 C 0.6383(13) 0.6904(13) 0.6378(5)
H9 H 0.6003 0.7362 0.6026
C11 C 0.6615(10) 0.8360(9) 0.7694(4)
H10 H 0.6128 0.8826 0.7385
H11 H 0.7652 0.9164 0.7822
C12 C 0.6702(10) 0.7205(9) 0.7165(4)
C13 C 0.5736(11) 0.7730(10) 0.8499(4)
H12 H 0.5767 0.8587 0.8802
O4 O 0.3678(11) 0.5173(8) 0.8314(3)
O5 O 0.3177(10) 0.7051(7) 0.8225(3)
C14 C 0.4082(15) 0.6563(11) 0.8341(4)
Cu2 Cu 0.74460(13) 0.59393(12) 0.86211(4)
Cu3 Cu 0.15067(18) 0.40607(12) 0.80456(4)
O7 O 0.8505(14) 0.4827(8) 0.8353(3)
O9 O 0.6126(12) 0.2949(7) 0.8442(3)
N2_2 N 0.3497(8) 0.0602(11) 0.4340(3)
O1_2 O 0.6322(11) 0.1495(14) 0.5019(3)
O2_2 O 0.6823(10) 0.3874(12) 0.5108(3)
O3_2 O 0.4265(7) 0.1968(10) 0.3136(3)
C1_2 C 0.5918(15) 0.2481(19) 0.4992(4)
C2_2 C 0.3609(9) 0.0748(13) 0.3561(4)
C4_2 C 0.3617(13) 0.0521(18) 0.6955(5)
H3_2 H 0.3997 0.1359 0.7307
C5_2 C 0.3385(10) 0.1745(13) 0.5639(4)
H4_2 H 0.3872 0.2698 0.5948
H5_2 H 0.2348 0.1512 0.5511
C6_2 C 0.3298(10) 0.0503(13) 0.6168(4)
C7_2 C 0.4264(11) 0.1994(15) 0.4834(4)
H6_2 H 0.4233 0.2820 0.4531
N4_2 N 0.3712(9) 0.0944(13) 0.0806(4)
C9_2 C 0.4531(12) 0.1773(18) 0.0186(5)
H8_2 H 0.5246 0.2816 0.0211
Cu4_2 Cu 0.84933(18) 0.25540(22) 0.52878(4)
Cu1_2 Cu 0.25540(13) 0.84933(18) 0.47122(4)
N1_2 N 0.2768(10) 0.9056(13) 0.5860(4)
N3_2 N 0.3281(12) 0.9083(15) 0.7146(4)
H1_2 H 0.3388 0.8774 0.7621
C3_2 C 0.2758(14) 0.8227(18) 0.6480(5)
H2_2 H 0.2430 0.7184 0.6455
N5_2 N 0.2895(8) 0.9398(11) 0.2326(3)
C8_2 C 0.2861(10) 0.9252(13) 0.3105(4)
C11_2 C 0.1640(9) 0.8255(13) 0.1027(4)
H10_2 H 0.1174 0.7302 0.0718
H11_2 H 0.0836 0.8488 0.1155
C12_2 C 0.2795(9) 0.9497(13) 0.0498(4)
C13_2 C 0.2270(10) 0.8006(15) 0.1832(4)
H12_2 H 0.1413 0.7180 0.2135
C14_2 C 0.3437(11) 0.7519(19) 0.1674(4)
O6_2 O 0.2297(7) 0.8032(10) 0.3530(3)
O8_2 O 0.1495(14) 0.6322(16) 0.4981(3)
O10_2 O 0.3874(12) 0.6823(14) 0.4892(3)
N1_3 N 0.0944(13) 0.3712(9) 0.9194(4)
C3_3 C 0.1773(18) 0.4531(12) 0.9814(5)
H2_3 H 0.2816 0.5246 0.9789
N5_3 N 0.0602(11) 0.3497(8) 0.5660(3)
C8_3 C 0.0748(13) 0.3609(9) 0.6439(4)
C10_2 C 0.0521(18) 0.3617(13) 0.3045(5)
H9_2 H 0.1359 0.3997 0.2693
C11_3 C 0.1745(13) 0.3385(10) 0.4361(4)
H10_3 H 0.2698 0.3872 0.4052
H11_3 H 0.1512 0.2348 0.4489
C12_3 C 0.0503(13) 0.3298(10) 0.3832(4)
C13_3 C 0.1994(15) 0.4264(11) 0.5166(4)
H12_3 H 0.2820 0.4233 0.5469
C14_3 C 0.2481(19) 0.5918(15) 0.5008(4)
O6_3 O 0.1968(10) 0.4265(7) 0.6864(3)
N2_3 N 0.9398(11) 0.2895(8) 0.7674(3)
O3_3 O 0.8032(10) 0.2297(7) 0.6470(3)
C1_3 C 0.7519(19) 0.3437(11) 0.8326(4)
C2_3 C 0.9252(13) 0.2861(10) 0.6895(4)
C5_3 C 0.8255(13) 0.1640(9) 0.8973(4)
H4_3 H 0.7302 0.1174 0.9282
H5_3 H 0.8488 0.0836 0.8845
C6_3 C 0.9497(13) 0.2795(9) 0.9502(4)
C7_3 C 0.8006(15) 0.2270(10) 0.8168(4)
H6_3 H 0.7180 0.1413 0.7865
N4_3 N 0.9056(13) 0.2768(10) 0.4140(4)
N6_2 N 0.9083(15) 0.3281(12) 0.2854(4)
H7_2 H 0.8774 0.3388 0.2379
C9_3 C 0.8227(18) 0.2758(14) 0.3520(5)
H8_3 H 0.7184 0.2430 0.3545
N6_3 N 0.4198(9) 0.0917(15) 0.9520(4)
H7_3 H 0.4614 0.1226 0.9045
C10_3 C 0.3096(13) 0.9479(18) 0.9711(5)
H9_3 H 0.2638 0.8641 0.9359
N3_3 N 0.0917(15) 0.4198(9) 0.0480(4)
H1_3 H 0.1226 0.4614 0.0955
C4_3 C 0.9479(18) 0.3096(13) 0.0289(5)
H3_3 H 0.8641 0.2638 0.0641
loop_
_geom_bond_atom_site_label_1
_geom_bond_atom_site_label_2
_geom_bond_site_symmetry_1
_geom_bond_site_symmetry_2
Cu1 N1 1_555 1_555
N1 C3 1_555 1_555
N2 Cu1 1_555 1_555
N3 H1 1_555 1_555
O1 C1 1_555 1_555
O2 C1 1_555 1_555
C1 C7 1_555 1_555
C2 N2 1_555 1_555
C3 N3 1_555 1_555
H2 C3 1_555 1_555
C4 N3 1_555 1_555
H3 C4 1_555 1_555
C5 H4 1_555 1_555
H5 C5 1_555 1_555
C6 N1 1_555 1_555
C7 N2 1_555 1_555
H6 C7 1_555 1_555
O6 Cu1 1_555 1_555
Cu4 O1 1_555 1_555
O8 Cu1 1_555 1_555
O10 Cu1 1_555 1_555
O2 Cu4 1_555 1_555
C4 C6 1_555 1_555
C5 C6 1_555 1_555
C5 C7 1_555 1_555
N4 C9 1_555 1_555
N5 C8 1_555 1_555
N6 H7 1_555 1_555
C9 N6 1_555 1_555
H8 C9 1_555 1_555
C10 N6 1_555 1_555
H9 C10 1_555 1_555
C11 H10 1_555 1_555
H11 C11 1_555 1_555
C12 N4 1_555 1_555
C13 N5 1_555 1_555
H12 C13 1_555 1_555
O4 C14 1_555 1_555
O5 C14 1_555 1_555
C14 C13 1_555 1_555
Cu2 O3 1_555 1_555
Cu3 O4 1_555 1_555
O7 Cu2 1_555 1_555
O9 Cu2 1_555 1_555
N4 Cu2 1_555 1_555
N5 Cu2 1_555 1_555
C10 C12 1_555 1_555
C11 C12 1_555 1_555
C11 C13 1_555 1_555
O5 Cu3 1_555 1_555
O1_2 C1_2 1_555 1_555
O2_2 C1_2 1_555 1_555
O3_2 C2_2 1_555 1_555
C1_2 C7_2 1_555 1_555
C2_2 N2_2 1_555 1_555
H3_2 C4_2 1_555 1_555
C5_2 H4_2 1_555 1_555
H5_2 C5_2 1_555 1_555
C7_2 N2_2 1_555 1_555
H6_2 C7_2 1_555 1_555
N4_2 C9_2 1_555 1_555
H8_2 C9_2 1_555 1_555
Cu4 O3_2 1_555 1_555
Cu4_2 O1_2 1_555 1_555
O2_2 Cu4_2 1_555 1_555
C4_2 C6_2 1_555 1_555
C5_2 C6_2 1_555 1_555
C5_2 C7_2 1_555 1_555
N4_2 Cu4 1_555 1_555
Cu1_2 N1_2 1_555 1_555
N1_2 C3_2 1_555 1_555
N3_2 H1_2 1_555 1_555
C3_2 N3_2 1_555 1_555
H2_2 C3_2 1_555 1_555
N5_2 C8_2 1_555 1_555
C11_2 H10_2 1_555 1_555
H11_2 C11_2 1_555 1_555
C13_2 N5_2 1_555 1_555
H12_2 C13_2 1_555 1_555
O8 C14_2 1_555 1_555
O10 C14_2 1_555 1_555
C14_2 C13_2 1_555 1_555
O6_2 Cu1_2 1_555 1_555
O8_2 Cu1_2 1_555 1_555
O10_2 Cu1_2 1_555 1_555
C8_2 O6_2 1_555 1_555
C11_2 C12_2 1_555 1_555
C11_2 C13_2 1_555 1_555
Cu3 N1_3 1_555 1_555
N1_3 C3_3 1_555 1_555
H2_3 C3_3 1_555 1_555
N5_3 C8_3 1_555 1_555
H9_2 C10_2 1_555 1_555
C11_3 H10_3 1_555 1_555
H11_3 C11_3 1_555 1_555
C13_3 N5_3 1_555 1_555
H12_3 C13_3 1_555 1_555
O8_2 C14_3 1_555 1_555
O10_2 C14_3 1_555 1_555
C14_3 C13_3 1_555 1_555
O6_3 Cu3 1_555 1_555
C8_3 O6_3 1_555 1_555
C10_2 C12_3 1_555 1_555
C11_3 C12_3 1_555 1_555
C11_3 C13_3 1_555 1_555
O7 C1_3 1_555 1_555
O9 C1_3 1_555 1_555
O3_3 C2_3 1_555 1_555
C1_3 C7_3 1_555 1_555
C2_3 N2_3 1_555 1_555
C5_3 H4_3 1_555 1_555
H5_3 C5_3 1_555 1_555
C7_3 N2_3 1_555 1_555
H6_3 C7_3 1_555 1_555
N4_3 C9_3 1_555 1_555
N6_2 H7_2 1_555 1_555
C9_3 N6_2 1_555 1_555
H8_3 C9_3 1_555 1_555
Cu4_2 O3_3 1_555 1_555
C5_3 C6_3 1_555 1_555
C5_3 C7_3 1_555 1_555
N4_3 Cu4_2 1_555 1_555
N6_3 H7_3 1_555 1_555
H9_3 C10_3 1_555 1_555
N3_3 H1_3 1_555 1_555
H3_3 C4_3 1_555 1_555

#END
