
###############################################################################
#
# This file contains modified crystal structure data generated from the
# MOF subset of the Cambridge Structural Database (CSD) v543 
# hosted by the Cambridge Crystallographic Data Centre (CCDC).
#
# This work is licensed under the Creative Commons
# Attribution-NonCommercial-ShareAlike 4.0 International License.
# To view a copy of this license, visit
# http://creativecommons.org/licenses/by-nc-sa/4.0/
# or send a letter to
# Creative Commons, PO Box 1866, Mountain View, CA 94042, USA.
#
# CIF created using the CSD Python API on 29 September 2022
# The structure has been converted into the P1 space group
# The structure has a 3D framework
# The original CSD entry RORSID04 is in the trigonal crystal system
# The original CSD entry RORSID04 is in a Sohncke space group
# The framework has been calculated to contain at least 10.0% void space
# The void calculation uses a probe of radius 1.32A, grid spacing 0.4
#
###############################################################################

data_RORSID04
_chemical_formula_moiety         '(C42 H36 Cu6 N18 O14)n'
_symmetry_cell_setting           triclinic
_symmetry_space_group_name_H-M   'P 1'
_symmetry_Int_Tables_number      1
_space_group_name_Hall           'P 1'
loop_
_symmetry_equiv_pos_site_id
_symmetry_equiv_pos_as_xyz
1 x,y,z
_cell_length_a                   10.125(4)
_cell_length_b                   10.125(4)
_cell_length_c                   16.556(9)
_cell_angle_alpha                90
_cell_angle_beta                 90
_cell_angle_gamma                120
_cell_volume                     1469.86
loop_
_atom_site_label
_atom_site_type_symbol
_atom_site_fract_x
_atom_site_fract_y
_atom_site_fract_z
N2 N 0.0618(10) 0.3549(12) 0.0664(5)
O3 O 0.1961(9) 0.4294(13) 0.1867(4)
C1 C 0.2528(15) 0.5943(14) 0.0016(6)
C2 C 0.0749(14) 0.3632(14) 0.1444(6)
C7 C 0.2025(14) 0.4288(15) 0.0176(6)
H6 H 0.2852 0.4238 0.0481
N4 N 0.0915(12) 0.3732(18) 0.4191(5)
N6 N 0.0857(14) 0.4229(21) 0.5469(6)
H7 H 0.1168 0.4659 0.5945
C9 C 0.1696(18) 0.4566(27) 0.4813(7)
H8 H 0.2744 0.5328 0.4791
Cu2 Cu 0.14875(16) 0.40779(24) 0.30475(7)
O7 O 0.3649(8) 0.5192(13) 0.3321(5)
O9 O 0.3178(11) 0.7080(15) 0.3234(5)
O1 O 0.1543(10) 0.6351(8) 0.9988(5)
O2 O 0.3902(10) 0.6822(11) 0.9901(5)
C4 C 0.0570(16) 0.3672(19) 0.8048(7)
H3 H 0.1415 0.4023 0.7692
C5 C 0.0541(15) 0.3368(15) 0.8839(6)
C6 C 0.1768(15) 0.3424(14) 0.9366(7)
H4 H 0.2737 0.3914 0.9059
H5 H 0.1515 0.2366 0.9487
Cu4 Cu 0.25904(18) 0.85125(16) 0.97142(7)
Cu1 Cu 0.85125(16) 0.25904(18) 0.02858(7)
N5 N 0.9382(10) 0.2931(16) 0.2669(5)
C8 C 0.9251(14) 0.2883(20) 0.1889(6)
C10 C 0.9430(16) 0.3102(25) 0.5285(7)
H9 H 0.8585 0.2608 0.5641
C11 C 0.9459(15) 0.2827(21) 0.4494(6)
C12 C 0.8232(15) 0.1656(21) 0.3967(7)
H10 H 0.7263 0.1177 0.4274
H11 H 0.8485 0.0851 0.3846
C13 C 0.7975(14) 0.2263(21) 0.3157(6)
H12 H 0.7148 0.1386 0.2852
O4 O 0.8457(10) 0.4808(13) 0.3345(5)
O5 O 0.6098(10) 0.2920(15) 0.3432(5)
C14 C 0.7472(15) 0.3415(21) 0.3317(6)
O6 O 0.8039(9) 0.2333(16) 0.1466(4)
Cu3 Cu 0.74096(18) 0.59221(24) 0.36191(7)
O8 O 0.6351(8) 0.1543(10) 0.0012(5)
O10 O 0.6822(11) 0.3902(10) 0.0099(5)
N1 N 0.7183(14) 0.6268(18) 0.2475(5)
N2_2 N 0.6451(12) 0.7069(16) 0.3997(5)
N3 N 0.6628(16) 0.5771(21) 0.1197(6)
H1 H 0.6509 0.5341 0.0721
O3_2 O 0.5706(13) 0.7667(16) 0.5200(4)
C1_2 C 0.4057(14) 0.6585(21) 0.3349(6)
C2_2 C 0.6368(14) 0.7117(20) 0.4777(6)
C3 C 0.713(2) 0.5434(27) 0.1853(7)
H2 H 0.7416 0.4672 0.1875
C4_2 C 0.6328(19) 0.6898(25) 0.1381(7)
H3_2 H 0.5977 0.7392 0.1025
C5_2 C 0.6632(15) 0.7173(21) 0.2172(6)
C6_2 C 0.6576(14) 0.8344(21) 0.2699(7)
H4_2 H 0.6086 0.8823 0.2392
H5_2 H 0.7634 0.9149 0.2820
C7_2 C 0.5712(15) 0.7737(21) 0.3509(6)
H6_2 H 0.5762 0.8614 0.3814
N4_2 N 0.6268(18) 0.7183(22) 0.7525(5)
N5_2 N 0.7069(16) 0.6451(19) 0.6003(5)
N6_2 N 0.5771(21) 0.6628(25) 0.8803(6)
H7_2 H 0.5341 0.6509 0.9279
C8_2 C 0.7117(20) 0.6368(24) 0.5223(6)
C9_2 C 0.5434(27) 0.7130(32) 0.8147(7)
H8_2 H 0.4672 0.7416 0.8125
C10_2 C 0.6898(25) 0.6328(30) 0.8619(7)
H9_2 H 0.7392 0.5977 0.8975
C11_2 C 0.7173(21) 0.6632(26) 0.7828(6)
C12_2 C 0.8344(21) 0.6576(26) 0.7301(7)
H10_2 H 0.8823 0.6086 0.7608
H11_2 H 0.9149 0.7634 0.7180
C13_2 C 0.7737(21) 0.5712(25) 0.6491(6)
H12_2 H 0.8614 0.5762 0.6186
O4_2 O 0.5192(13) 0.3649(16) 0.6679(5)
O5_2 O 0.7080(15) 0.3178(18) 0.6766(5)
C14_2 C 0.6585(21) 0.4057(26) 0.6651(6)
O6_2 O 0.7667(16) 0.5706(18) 0.4800(4)
Cu2_2 Cu 0.59221(24) 0.74096(29) 0.63809(7)
Cu3_2 Cu 0.40779(24) 0.14875(30) 0.69525(7)
O7_2 O 0.4808(13) 0.8457(15) 0.6655(5)
O9_2 O 0.2920(15) 0.6098(19) 0.6568(5)
C10_3 C 0.3672(30) 0.0570(16) 0.1952(7)
H9_3 H 0.4023 0.1415 0.2308
C11_3 C 0.3368(26) 0.0541(15) 0.1161(6)
C12_3 C 0.3424(26) 0.1768(15) 0.0634(7)
H10_3 H 0.3914 0.2737 0.0941
H11_3 H 0.2366 0.1515 0.0513
N1_2 N 0.3732(18) 0.0915(12) 0.5809(5)
N3_2 N 0.4229(21) 0.0857(14) 0.4531(6)
H1_2 H 0.4659 0.1168 0.4055
C3_2 C 0.4566(27) 0.1696(18) 0.5187(7)
H2_2 H 0.5328 0.2744 0.5209
N5_3 N 0.3549(19) 0.0618(10) 0.9336(5)
C8_3 C 0.3632(24) 0.0749(14) 0.8556(6)
C13_3 C 0.4288(25) 0.2025(14) 0.9824(6)
H12_3 H 0.4238 0.2852 0.9519
C14_3 C 0.5943(26) 0.2528(15) 0.9984(6)
O6_3 O 0.4294(18) 0.1961(9) 0.8133(4)
N2_3 N 0.2931(16) 0.9382(10) 0.7331(5)
O3_3 O 0.2333(16) 0.8039(9) 0.8534(4)
C1_3 C 0.3415(21) 0.7472(15) 0.6683(6)
C2_3 C 0.2883(20) 0.9251(14) 0.8111(6)
C4_3 C 0.3102(25) 0.9430(16) 0.4715(7)
H3_3 H 0.2608 0.8585 0.4359
C5_3 C 0.2827(21) 0.9459(15) 0.5506(6)
C6_3 C 0.1656(21) 0.8232(15) 0.6033(7)
H4_3 H 0.1177 0.7263 0.5726
H5_3 H 0.0851 0.8485 0.6154
C7_3 C 0.2263(21) 0.7975(14) 0.6843(6)
H6_3 H 0.1386 0.7148 0.7148
N1_3 N 0.9085(12) 0.2817(14) 0.9142(5)
N3_3 N 0.9143(14) 0.3372(16) 0.7864(6)
H1_3 H 0.8832 0.3491 0.7388
C3_3 C 0.8304(18) 0.287(2) 0.8520(7)
H2_3 H 0.7256 0.2584 0.8542
N4_3 N 0.2817(22) 0.9085(12) 0.0858(5)
N6_3 N 0.3372(25) 0.9143(14) 0.2136(6)
H7_3 H 0.3491 0.8832 0.2612
C9_3 C 0.2870(32) 0.8304(18) 0.1480(7)
H8_3 H 0.2584 0.7256 0.1458
loop_
_geom_bond_atom_site_label_1
_geom_bond_atom_site_label_2
_geom_bond_site_symmetry_1
_geom_bond_site_symmetry_2
O3 C2 1_555 1_555
C1 C7 1_555 1_555
C2 N2 1_555 1_555
C7 N2 1_555 1_555
H6 C7 1_555 1_555
N4 C9 1_555 1_555
N6 H7 1_555 1_555
C9 N6 1_555 1_555
H8 C9 1_555 1_555
Cu2 O3 1_555 1_555
O7 Cu2 1_555 1_555
O9 Cu2 1_555 1_555
N4 Cu2 1_555 1_555
H3 C4 1_555 1_555
C6 C5 1_555 1_555
H4 C6 1_555 1_555
H5 C6 1_555 1_555
Cu4 O1 1_555 1_555
O2 Cu4 1_555 1_555
C4 C5 1_555 1_555
N5 C8 1_555 1_555
H9 C10 1_555 1_555
C12 C11 1_555 1_555
H10 C12 1_555 1_555
H11 C12 1_555 1_555
C13 N5 1_555 1_555
H12 C13 1_555 1_555
O4 C14 1_555 1_555
O5 C14 1_555 1_555
C14 C13 1_555 1_555
O6 Cu1 1_555 1_555
Cu3 O4 1_555 1_555
O8 Cu1 1_555 1_555
O10 Cu1 1_555 1_555
C8 O6 1_555 1_555
C10 C11 1_555 1_555
C12 C13 1_555 1_555
O5 Cu3 1_555 1_555
Cu3 N1 1_555 1_555
N1 C3 1_555 1_555
N2_2 Cu3 1_555 1_555
N3 H1 1_555 1_555
O7 C1_2 1_555 1_555
O9 C1_2 1_555 1_555
O3_2 C2_2 1_555 1_555
C1_2 C7_2 1_555 1_555
C2_2 N2_2 1_555 1_555
C3 N3 1_555 1_555
H2 C3 1_555 1_555
C4_2 N3 1_555 1_555
H3_2 C4_2 1_555 1_555
C5_2 N1 1_555 1_555
C6_2 C5_2 1_555 1_555
H4_2 C6_2 1_555 1_555
H5_2 C6_2 1_555 1_555
C7_2 N2_2 1_555 1_555
H6_2 C7_2 1_555 1_555
N4_2 C9_2 1_555 1_555
N5_2 C8_2 1_555 1_555
N6_2 H7_2 1_555 1_555
C8_2 C2_2 1_555 1_555
C9_2 N6_2 1_555 1_555
H8_2 C9_2 1_555 1_555
C10_2 N6_2 1_555 1_555
H9_2 C10_2 1_555 1_555
C11_2 N4_2 1_555 1_555
C12_2 C11_2 1_555 1_555
H10_2 C12_2 1_555 1_555
H11_2 C12_2 1_555 1_555
C13_2 N5_2 1_555 1_555
H12_2 C13_2 1_555 1_555
O4_2 C14_2 1_555 1_555
O5_2 C14_2 1_555 1_555
C14_2 C13_2 1_555 1_555
O6_2 Cu3 1_555 1_555
Cu2_2 O3_2 1_555 1_555
Cu3_2 O4_2 1_555 1_555
O7_2 Cu2_2 1_555 1_555
O9_2 Cu2_2 1_555 1_555
C4_2 C5_2 1_555 1_555
C6_2 C7_2 1_555 1_555
N4_2 Cu2_2 1_555 1_555
N5_2 Cu2_2 1_555 1_555
C8_2 O6_2 1_555 1_555
C10_2 C11_2 1_555 1_555
C12_2 C13_2 1_555 1_555
O5_2 Cu3_2 1_555 1_555
H9_3 C10_3 1_555 1_555
C12_3 C11_3 1_555 1_555
H10_3 C12_3 1_555 1_555
H11_3 C12_3 1_555 1_555
C10_3 C11_3 1_555 1_555
Cu3_2 N1_2 1_555 1_555
N1_2 C3_2 1_555 1_555
N3_2 H1_2 1_555 1_555
C3_2 N3_2 1_555 1_555
H2_2 C3_2 1_555 1_555
N5_3 C8_3 1_555 1_555
C13_3 N5_3 1_555 1_555
H12_3 C13_3 1_555 1_555
C14_3 C13_3 1_555 1_555
O6_3 Cu3_2 1_555 1_555
C8_3 O6_3 1_555 1_555
O7_2 C1_3 1_555 1_555
O9_2 C1_3 1_555 1_555
O3_3 C2_3 1_555 1_555
C1_3 C7_3 1_555 1_555
C2_3 N2_3 1_555 1_555
H3_3 C4_3 1_555 1_555
C6_3 C5_3 1_555 1_555
H4_3 C6_3 1_555 1_555
H5_3 C6_3 1_555 1_555
C7_3 N2_3 1_555 1_555
H6_3 C7_3 1_555 1_555
Cu4 O3_3 1_555 1_555
C4_3 C5_3 1_555 1_555
C6_3 C7_3 1_555 1_555
N1_3 C3_3 1_555 1_555
N3_3 H1_3 1_555 1_555
C3_3 N3_3 1_555 1_555
H2_3 C3_3 1_555 1_555
N4_3 C9_3 1_555 1_555
N6_3 H7_3 1_555 1_555
C9_3 N6_3 1_555 1_555
H8_3 C9_3 1_555 1_555

#END
