
###############################################################################
#
# This file contains modified crystal structure data generated from the
# MOF subset of the Cambridge Structural Database (CSD) v543 
# hosted by the Cambridge Crystallographic Data Centre (CCDC).
#
# This work is licensed under the Creative Commons
# Attribution-NonCommercial-ShareAlike 4.0 International License.
# To view a copy of this license, visit
# http://creativecommons.org/licenses/by-nc-sa/4.0/
# or send a letter to
# Creative Commons, PO Box 1866, Mountain View, CA 94042, USA.
#
# CIF created using the CSD Python API on 29 September 2022
# The structure has been converted into the P1 space group
# The structure has a 3D framework
# The original CSD entry RORSID05 is in the trigonal crystal system
# The original CSD entry RORSID05 is in a Sohncke space group
# The framework has been calculated to contain at least 10.0% void space
# The void calculation uses a probe of radius 1.32A, grid spacing 0.4
#
###############################################################################

data_RORSID05
_chemical_formula_moiety         '(C42 H36 Cu6 N18 O14)n'
_symmetry_cell_setting           triclinic
_symmetry_space_group_name_H-M   'P 1'
_symmetry_Int_Tables_number      1
_space_group_name_Hall           'P 1'
loop_
_symmetry_equiv_pos_site_id
_symmetry_equiv_pos_as_xyz
1 x,y,z
_cell_length_a                   10.136(2)
_cell_length_b                   10.136(2)
_cell_length_c                   16.514(4)
_cell_angle_alpha                90
_cell_angle_beta                 90
_cell_angle_gamma                120
_cell_volume                     1469.32
loop_
_atom_site_label
_atom_site_type_symbol
_atom_site_fract_x
_atom_site_fract_y
_atom_site_fract_z
Cu1 Cu 0.14886(15) 0.74158(17) 0.02836(7)
N5 N 0.0617(10) 0.7085(15) 0.2670(5)
N6 N 0.0576(16) 0.6883(23) 0.5287(7)
H7 H 0.1363 0.7318 0.5616
C8 C 0.0746(13) 0.7125(18) 0.1893(6)
C11 C 0.0552(13) 0.7174(18) 0.4494(6)
C12 C 0.1759(14) 0.8348(19) 0.3966(6)
H10 H 0.2729 0.8845 0.4272
H11 H 0.1488 0.9139 0.3842
C13 C 0.2021(12) 0.7733(18) 0.3155(6)
H12 H 0.2844 0.8610 0.2849
O4 O 0.1545(10) 0.5193(13) 0.3342(4)
O5 O 0.3920(10) 0.7087(14) 0.3432(4)
C14 C 0.2542(14) 0.6590(19) 0.3314(5)
O6 O 0.1970(8) 0.7672(14) 0.1466(4)
Cu3 Cu 0.25842(17) 0.40728(23) 0.36169(7)
O8 O 0.3648(8) 0.8455(10) 0.0009(4)
O10 O 0.3167(10) 0.6080(10) 0.0099(4)
N2 N 0.9383(10) 0.6468(11) 0.0663(5)
O3 O 0.8030(8) 0.5702(12) 0.1867(4)
C1 C 0.7458(14) 0.4048(13) 0.0019(5)
C2 C 0.9254(13) 0.6379(13) 0.1440(6)
C7 C 0.7979(12) 0.5712(14) 0.0178(6)
H6 H 0.7156 0.5766 0.0484
N4 N 0.9091(11) 0.6277(17) 0.4191(5)
C9 C 0.8300(17) 0.5426(24) 0.4828(7)
H8 H 0.7257 0.4659 0.4807
C10 C 0.9133(12) 0.5779(18) 0.5477(6)
H9 H 0.8792 0.5339 0.5997
Cu2 Cu 0.85114(15) 0.59272(23) 0.30497(7)
O7 O 0.6352(8) 0.4807(13) 0.3324(4)
O9 O 0.6833(10) 0.2913(14) 0.3234(4)
N3 N 0.9424(16) 0.6307(17) 0.8046(7)
H1 H 0.8637 0.5955 0.7717
O1 O 0.8455(10) 0.3648(8) 0.9991(4)
O2 O 0.6080(10) 0.3167(10) 0.9901(4)
C5 C 0.9448(13) 0.6622(13) 0.8839(6)
C6 C 0.8241(14) 0.6589(13) 0.9367(6)
H4 H 0.7271 0.6116 0.9061
H5 H 0.8512 0.7651 0.9491
Cu4 Cu 0.74158(17) 0.14886(15) 0.97164(7)
N1 N 0.2814(13) 0.3723(17) 0.2475(5)
N2_2 N 0.3532(11) 0.2915(15) 0.3996(5)
N3_2 N 0.3693(17) 0.3117(23) 0.1379(7)
H1_2 H 0.4045 0.2682 0.1050
O3_2 O 0.4298(12) 0.2328(14) 0.5200(4)
C1_2 C 0.5952(13) 0.3410(19) 0.3352(5)
C2_2 C 0.3621(13) 0.2875(18) 0.4773(6)
C3 C 0.2874(17) 0.4574(24) 0.1838(7)
H2 H 0.2598 0.5341 0.1859
C4 C 0.3354(13) 0.4221(18) 0.1189(6)
H3 H 0.3453 0.4661 0.0669
C5_2 C 0.3378(13) 0.2826(18) 0.2172(6)
C6_2 C 0.3411(13) 0.1652(19) 0.2700(6)
H4_2 H 0.3884 0.1155 0.2394
H5_2 H 0.2349 0.0861 0.2824
C7_2 C 0.4288(14) 0.2267(18) 0.3511(6)
H6_2 H 0.4234 0.1390 0.3817
N4_2 N 0.3723(17) 0.2814(20) 0.7525(5)
N5_2 N 0.2915(15) 0.3532(18) 0.6004(5)
N6_2 N 0.3117(23) 0.3693(28) 0.8621(7)
H7_2 H 0.2682 0.4045 0.8950
C8_2 C 0.2875(18) 0.3621(22) 0.5227(6)
C9_2 C 0.4574(24) 0.2874(29) 0.8162(7)
H8_2 H 0.5341 0.2598 0.8141
C10_2 C 0.4221(18) 0.3354(22) 0.8811(6)
H9_2 H 0.4661 0.3453 0.9331
C11_2 C 0.2826(18) 0.3378(22) 0.7828(6)
C12_2 C 0.1652(19) 0.3411(24) 0.7300(6)
H10_2 H 0.1155 0.3884 0.7606
H11_2 H 0.0861 0.2349 0.7176
C13_2 C 0.2267(18) 0.4288(22) 0.6489(6)
H12_2 H 0.1390 0.4234 0.6183
O4_2 O 0.4807(13) 0.6352(16) 0.6676(4)
O5_2 O 0.2913(14) 0.6833(17) 0.6766(4)
C14_2 C 0.3410(19) 0.5952(24) 0.6648(5)
O6_2 O 0.2328(14) 0.4298(16) 0.4800(4)
Cu2_2 Cu 0.40728(23) 0.25842(27) 0.63831(7)
Cu3_2 Cu 0.59272(23) 0.85114(29) 0.69503(7)
O7_2 O 0.5193(13) 0.1545(15) 0.6658(4)
O9_2 O 0.7087(14) 0.3920(17) 0.6568(4)
N2_3 N 0.7085(15) 0.0617(10) 0.7330(5)
N3_3 N 0.6883(23) 0.0576(16) 0.4713(7)
H1_3 H 0.7318 0.1363 0.4384
O3_3 O 0.7672(14) 0.1970(8) 0.8534(4)
C1_3 C 0.6590(19) 0.2542(14) 0.6686(5)
C2_3 C 0.7125(18) 0.0746(13) 0.8107(6)
C5_3 C 0.7174(18) 0.0552(13) 0.5506(6)
C6_3 C 0.8348(19) 0.1759(14) 0.6034(6)
H4_3 H 0.8845 0.2729 0.5728
H5_3 H 0.9139 0.1488 0.6158
C7_3 C 0.7733(18) 0.2021(12) 0.6845(6)
H6_3 H 0.8610 0.2844 0.7151
N6_3 N 0.6307(28) 0.9424(16) 0.1954(7)
H7_3 H 0.5955 0.8637 0.2283
C11_3 C 0.6622(22) 0.9448(13) 0.1161(6)
C12_3 C 0.6589(24) 0.8241(14) 0.0633(6)
H10_3 H 0.6116 0.7271 0.0939
H11_3 H 0.7651 0.8512 0.0509
N1_2 N 0.6277(17) 0.9091(11) 0.5809(5)
C3_2 C 0.5426(24) 0.8300(17) 0.5172(7)
H2_2 H 0.4659 0.7257 0.5193
C4_2 C 0.5779(18) 0.9133(12) 0.4523(6)
H3_2 H 0.5339 0.8792 0.4003
N5_3 N 0.6468(18) 0.9383(10) 0.9337(5)
C8_3 C 0.6379(22) 0.9254(13) 0.8560(6)
C13_3 C 0.5712(22) 0.7979(12) 0.9822(6)
H12_3 H 0.5766 0.7156 0.9516
C14_3 C 0.4048(24) 0.7458(14) 0.9981(5)
O6_3 O 0.5702(16) 0.8030(8) 0.8133(4)
N1_3 N 0.0909(11) 0.7186(13) 0.9142(5)
C3_3 C 0.1700(17) 0.7126(17) 0.8505(7)
H2_3 H 0.2743 0.7402 0.8526
C4_3 C 0.0867(12) 0.6646(13) 0.7856(6)
H3_3 H 0.1208 0.6547 0.7336
N4_3 N 0.7186(20) 0.0909(11) 0.0858(5)
C9_3 C 0.7126(29) 0.1700(17) 0.1495(7)
H8_3 H 0.7402 0.2743 0.1474
C10_3 C 0.6646(22) 0.0867(12) 0.2144(6)
H9_3 H 0.6547 0.1208 0.2664
loop_
_geom_bond_atom_site_label_1
_geom_bond_atom_site_label_2
_geom_bond_site_symmetry_1
_geom_bond_site_symmetry_2
N5 C8 1_555 1_555
N6 H7 1_555 1_555
C12 C11 1_555 1_555
H10 C12 1_555 1_555
H11 C12 1_555 1_555
C13 N5 1_555 1_555
H12 C13 1_555 1_555
O4 C14 1_555 1_555
O5 C14 1_555 1_555
C14 C13 1_555 1_555
O6 Cu1 1_555 1_555
Cu3 O4 1_555 1_555
O8 Cu1 1_555 1_555
O10 Cu1 1_555 1_555
N6 C11 1_555 1_555
C8 O6 1_555 1_555
C12 C13 1_555 1_555
O5 Cu3 1_555 1_555
O3 C2 1_555 1_555
C1 C7 1_555 1_555
C2 N2 1_555 1_555
C7 N2 1_555 1_555
H6 C7 1_555 1_555
N4 C9 1_555 1_555
C9 H8 1_555 1_555
H9 C10 1_555 1_555
Cu2 O3 1_555 1_555
O7 Cu2 1_555 1_555
O9 Cu2 1_555 1_555
N4 Cu2 1_555 1_555
C9 C10 1_555 1_555
N3 H1 1_555 1_555
C6 C5 1_555 1_555
H4 C6 1_555 1_555
H5 C6 1_555 1_555
Cu4 O1 1_555 1_555
N3 C5 1_555 1_555
O2 Cu4 1_555 1_555
Cu3 N1 1_555 1_555
N1 C3 1_555 1_555
N2_2 Cu3 1_555 1_555
N3_2 H1_2 1_555 1_555
O7 C1_2 1_555 1_555
O9 C1_2 1_555 1_555
O3_2 C2_2 1_555 1_555
C1_2 C7_2 1_555 1_555
C2_2 N2_2 1_555 1_555
C3 H2 1_555 1_555
C4 N3_2 1_555 1_555
H3 C4 1_555 1_555
C5_2 N1 1_555 1_555
C6_2 C5_2 1_555 1_555
H4_2 C6_2 1_555 1_555
H5_2 C6_2 1_555 1_555
C7_2 N2_2 1_555 1_555
H6_2 C7_2 1_555 1_555
N4_2 C9_2 1_555 1_555
N5_2 C8_2 1_555 1_555
N6_2 H7_2 1_555 1_555
C8_2 C2_2 1_555 1_555
C9_2 H8_2 1_555 1_555
C10_2 N6_2 1_555 1_555
H9_2 C10_2 1_555 1_555
C11_2 N4_2 1_555 1_555
C12_2 C11_2 1_555 1_555
H10_2 C12_2 1_555 1_555
H11_2 C12_2 1_555 1_555
C13_2 N5_2 1_555 1_555
H12_2 C13_2 1_555 1_555
O4_2 C14_2 1_555 1_555
O5_2 C14_2 1_555 1_555
C14_2 C13_2 1_555 1_555
O6_2 Cu3 1_555 1_555
Cu2_2 O3_2 1_555 1_555
Cu3_2 O4_2 1_555 1_555
O7_2 Cu2_2 1_555 1_555
O9_2 Cu2_2 1_555 1_555
N3_2 C5_2 1_555 1_555
C3 C4 1_555 1_555
C6_2 C7_2 1_555 1_555
N4_2 Cu2_2 1_555 1_555
N5_2 Cu2_2 1_555 1_555
N6_2 C11_2 1_555 1_555
C8_2 O6_2 1_555 1_555
C9_2 C10_2 1_555 1_555
C12_2 C13_2 1_555 1_555
O5_2 Cu3_2 1_555 1_555
N3_3 H1_3 1_555 1_555
O7_2 C1_3 1_555 1_555
O9_2 C1_3 1_555 1_555
O3_3 C2_3 1_555 1_555
C1_3 C7_3 1_555 1_555
C2_3 N2_3 1_555 1_555
C6_3 C5_3 1_555 1_555
H4_3 C6_3 1_555 1_555
H5_3 C6_3 1_555 1_555
C7_3 N2_3 1_555 1_555
H6_3 C7_3 1_555 1_555
Cu4 O3_3 1_555 1_555
N3_3 C5_3 1_555 1_555
C6_3 C7_3 1_555 1_555
N6_3 H7_3 1_555 1_555
C12_3 C11_3 1_555 1_555
H10_3 C12_3 1_555 1_555
H11_3 C12_3 1_555 1_555
N6_3 C11_3 1_555 1_555
Cu3_2 N1_2 1_555 1_555
N1_2 C3_2 1_555 1_555
C3_2 H2_2 1_555 1_555
H3_2 C4_2 1_555 1_555
N5_3 C8_3 1_555 1_555
C13_3 N5_3 1_555 1_555
H12_3 C13_3 1_555 1_555
C14_3 C13_3 1_555 1_555
O6_3 Cu3_2 1_555 1_555
C3_2 C4_2 1_555 1_555
C8_3 O6_3 1_555 1_555
N1_3 C3_3 1_555 1_555
C3_3 H2_3 1_555 1_555
H3_3 C4_3 1_555 1_555
C3_3 C4_3 1_555 1_555
N4_3 C9_3 1_555 1_555
C9_3 H8_3 1_555 1_555
H9_3 C10_3 1_555 1_555
C9_3 C10_3 1_555 1_555

#END
