
###############################################################################
#
# This file contains modified crystal structure data generated from the
# MOF subset of the Cambridge Structural Database (CSD) v543 
# hosted by the Cambridge Crystallographic Data Centre (CCDC).
#
# This work is licensed under the Creative Commons
# Attribution-NonCommercial-ShareAlike 4.0 International License.
# To view a copy of this license, visit
# http://creativecommons.org/licenses/by-nc-sa/4.0/
# or send a letter to
# Creative Commons, PO Box 1866, Mountain View, CA 94042, USA.
#
# CIF created using the CSD Python API on 29 September 2022
# The structure has been converted into the P1 space group
# The structure has a 3D framework
# The original CSD entry RORVUS is in the trigonal crystal system
# The original CSD entry RORVUS is in a Sohncke space group
# The framework has been calculated to contain at least 10.0% void space
# The void calculation uses a probe of radius 1.32A, grid spacing 0.4
#
###############################################################################

data_RORVUS
_chemical_formula_moiety         '(C42 H36 Cu6 N18 O18)n'
_symmetry_cell_setting           triclinic
_symmetry_space_group_name_H-M   'P 1'
_symmetry_Int_Tables_number      1
_space_group_name_Hall           'P 1'
loop_
_symmetry_equiv_pos_site_id
_symmetry_equiv_pos_as_xyz
1 x,y,z
_cell_length_a                   10.134(3)
_cell_length_b                   10.134(3)
_cell_length_c                   16.514(4)
_cell_angle_alpha                90
_cell_angle_beta                 90
_cell_angle_gamma                120
_cell_volume                     1468.74
loop_
_atom_site_label
_atom_site_type_symbol
_atom_site_fract_x
_atom_site_fract_y
_atom_site_fract_z
C11 C 0.0575(9) 0.6882(14) 0.0291(4)
H12 H 0.1430 0.7346 0.0643
Cu1 Cu 0.14879(10) 0.74206(10) 0.52832(4)
N2 N 0.0909(7) 0.7184(8) 0.4136(3)
N3 N 0.0871(8) 0.6651(9) 0.2848(3)
H1 H 0.1184 0.6552 0.2367
C5 C 0.1727(10) 0.7158(11) 0.3509(4)
H5 H 0.2778 0.7462 0.3533
N4 N 0.0616(6) 0.7095(9) 0.7673(3)
C8 C 0.2020(8) 0.7756(12) 0.8159(3)
H8 H 0.2845 0.8629 0.7851
C9 C 0.1788(8) 0.8361(11) 0.8969(3)
H9 H 0.2755 0.8815 0.9277
H10 H 0.1556 0.9183 0.8856
C12 C 0.0539(8) 0.7179(11) 0.9492(3)
C13 C 0.2535(8) 0.6573(11) 0.8321(3)
O4 O 0.1535(6) 0.5191(8) 0.8344(3)
O5 O 0.3917(6) 0.7078(8) 0.8437(3)
C14 C 0.0746(8) 0.7119(14) 0.6889(3)
O6 O 0.1970(5) 0.7677(9) 0.6460(2)
Cu3 Cu 0.25794(10) 0.40673(14) 0.86165(4)
O8 O 0.3656(5) 0.8465(6) 0.5011(3)
O10 O 0.3161(6) 0.6083(6) 0.5104(3)
N1 N 0.9384(6) 0.6479(7) 0.5660(3)
C1 C 0.7980(8) 0.5736(9) 0.5174(3)
H2 H 0.7155 0.5784 0.5482
C2 C 0.7465(8) 0.4038(8) 0.5012(3)
C3 C 0.8212(8) 0.6573(8) 0.4364(3)
H3 H 0.7245 0.6060 0.4056
H4 H 0.8444 0.7627 0.4477
C4 C 0.9254(8) 0.6373(12) 0.6444(3)
C6 C 0.9425(9) 0.6307(11) 0.3042(4)
H6 H 0.8570 0.5916 0.2690
C7 C 0.9461(8) 0.6640(8) 0.3841(3)
O1 O 0.8465(6) 0.3656(5) 0.4989(3)
O2 O 0.8030(5) 0.5707(8) 0.6873(2)
O3 O 0.6083(6) 0.3161(6) 0.4896(3)
N5 N 0.9091(7) 0.6275(11) 0.9197(3)
C10 C 0.8273(10) 0.5431(15) 0.9824(4)
H11 H 0.7222 0.4684 0.9800
Cu2 Cu 0.85121(10) 0.59327(14) 0.80501(4)
Cu4 Cu 0.74206(10) 0.14879(10) 0.47168(4)
O7 O 0.6344(5) 0.4809(8) 0.8322(3)
O9 O 0.6839(6) 0.2922(8) 0.8229(3)
O2_2 O 0.4293(8) 0.2323(9) 0.0206(2)
N4_2 N 0.2905(9) 0.3521(11) 0.1007(3)
N5_2 N 0.3725(11) 0.2816(13) 0.2531(3)
N6 N 0.4220(12) 0.3349(14) 0.3819(3)
H7 H 0.4632 0.3448 0.4300
C8_2 C 0.2244(12) 0.4264(14) 0.1493(3)
H8_2 H 0.1371 0.4216 0.1185
C9_2 C 0.1639(11) 0.3427(14) 0.2303(3)
H9_2 H 0.1185 0.3940 0.2611
H10_2 H 0.0817 0.2373 0.2190
C10_2 C 0.4569(15) 0.2842(18) 0.3158(4)
H11_2 H 0.5316 0.2538 0.3134
C11_2 C 0.3118(14) 0.3693(17) 0.3625(4)
H12_2 H 0.2654 0.4084 0.3977
C12_2 C 0.2821(11) 0.3360(14) 0.2826(3)
C13_2 C 0.3427(11) 0.5962(14) 0.1655(3)
O4_2 O 0.4809(8) 0.6344(10) 0.1678(3)
O5_2 O 0.2922(8) 0.6839(10) 0.1771(3)
C14_2 C 0.2881(14) 0.3627(16) 0.0223(3)
Cu2_2 Cu 0.40673(14) 0.25794(17) 0.13835(4)
Cu3_2 Cu 0.59327(14) 0.85121(17) 0.19499(4)
O7_2 O 0.5191(8) 0.1535(9) 0.1656(3)
O9_2 O 0.7078(8) 0.3917(10) 0.1563(3)
N1_2 N 0.3521(7) 0.2905(9) 0.8993(3)
N2_2 N 0.2816(8) 0.3725(11) 0.7469(3)
N3_2 N 0.3349(9) 0.4220(12) 0.6181(3)
H1_2 H 0.3448 0.4632 0.5700
C1_2 C 0.4264(9) 0.2244(12) 0.8507(3)
H2_2 H 0.4216 0.1371 0.8815
C2_2 C 0.5962(8) 0.3427(11) 0.8345(3)
C3_2 C 0.3427(8) 0.1639(11) 0.7697(3)
H3_2 H 0.3940 0.1185 0.7389
H4_2 H 0.2373 0.0817 0.7810
C4_2 C 0.3627(12) 0.2881(14) 0.9777(3)
C5_2 C 0.2842(11) 0.4569(15) 0.6842(4)
H5_2 H 0.2538 0.5316 0.6866
C6_2 C 0.3693(11) 0.3118(14) 0.6375(4)
H6_2 H 0.4084 0.2654 0.6023
C7_2 C 0.3360(8) 0.2821(11) 0.7174(3)
O6_2 O 0.2323(9) 0.4293(10) 0.9794(2)
N1_3 N 0.7095(9) 0.0616(6) 0.2327(3)
C1_3 C 0.7756(12) 0.2020(8) 0.1841(3)
H2_3 H 0.8629 0.2845 0.2149
C2_3 C 0.6573(11) 0.2535(8) 0.1679(3)
C3_3 C 0.8361(11) 0.1788(8) 0.1031(3)
H3_3 H 0.8815 0.2755 0.0723
H4_3 H 0.9183 0.1556 0.1144
C4_3 C 0.7119(14) 0.0746(8) 0.3111(3)
C7_3 C 0.7179(11) 0.0539(8) 0.0508(3)
O2_3 O 0.7677(9) 0.1970(5) 0.3540(2)
N5_3 N 0.7184(13) 0.0909(7) 0.5864(3)
N6_2 N 0.6651(14) 0.0871(8) 0.7152(3)
H7_2 H 0.6552 0.1184 0.7633
C10_3 C 0.7158(18) 0.1727(10) 0.6491(4)
H11_3 H 0.7462 0.2778 0.6467
N2_3 N 0.6275(11) 0.9091(7) 0.0803(3)
C5_3 C 0.5431(15) 0.8273(10) 0.0176(4)
H5_3 H 0.4684 0.7222 0.0200
N4_3 N 0.6479(11) 0.9384(6) 0.4340(3)
C8_3 C 0.5736(14) 0.7980(8) 0.4826(3)
H8_3 H 0.5784 0.7155 0.4518
C9_3 C 0.6573(14) 0.8212(8) 0.5636(3)
H9_3 H 0.6060 0.7245 0.5944
H10_3 H 0.7627 0.8444 0.5523
C11_3 C 0.6307(17) 0.9425(9) 0.6958(4)
H12_3 H 0.5916 0.8570 0.7310
C12_3 C 0.6640(14) 0.9461(8) 0.6159(3)
C13_3 C 0.4038(14) 0.7465(8) 0.4988(3)
C14_3 C 0.6373(16) 0.9254(8) 0.3556(3)
O6_3 O 0.5707(10) 0.8030(5) 0.3127(2)
N6_3 N 0.9129(8) 0.5780(12) 0.0485(3)
H7_3 H 0.8816 0.5368 0.0966
C6_3 C 0.6882(14) 0.0575(9) 0.9709(4)
H6_3 H 0.7346 0.1430 0.9357
N3_3 N 0.5780(12) 0.9129(8) 0.9515(3)
H1_3 H 0.5368 0.8816 0.9034
loop_
_geom_bond_atom_site_label_1
_geom_bond_atom_site_label_2
_geom_bond_site_symmetry_1
_geom_bond_site_symmetry_2
H12 C11 1_555 1_555
N2 Cu1 1_555 1_555
N3 H1 1_555 1_555
C5 N2 1_555 1_555
H5 C5 1_555 1_555
N4 C8 1_555 1_555
C8 H8 1_555 1_555
C9 C8 1_555 1_555
H9 C9 1_555 1_555
H10 C9 1_555 1_555
C13 C8 1_555 1_555
O4 C13 1_555 1_555
O5 C13 1_555 1_555
O6 Cu1 1_555 1_555
Cu3 O4 1_555 1_555
O8 Cu1 1_555 1_555
O10 Cu1 1_555 1_555
N3 C5 1_555 1_555
N4 C14 1_555 1_555
C9 C12 1_555 1_555
O5 Cu3 1_555 1_555
C14 O6 1_555 1_555
N1 C1 1_555 1_555
C1 H2 1_555 1_555
C2 C1 1_555 1_555
C3 C1 1_555 1_555
H3 C3 1_555 1_555
H4 C3 1_555 1_555
C4 N1 1_555 1_555
H6 C6 1_555 1_555
O1 C2 1_555 1_555
O2 C4 1_555 1_555
O3 C2 1_555 1_555
N5 C10 1_555 1_555
H11 C10 1_555 1_555
Cu2 O2 1_555 1_555
Cu4 O1 1_555 1_555
O7 Cu2 1_555 1_555
O9 Cu2 1_555 1_555
C3 C7 1_555 1_555
C6 C7 1_555 1_555
O3 Cu4 1_555 1_555
N5 Cu2 1_555 1_555
N4_2 C8_2 1_555 1_555
N5_2 C10_2 1_555 1_555
N6 H7 1_555 1_555
C8_2 H8_2 1_555 1_555
C9_2 C8_2 1_555 1_555
H9_2 C9_2 1_555 1_555
H10_2 C9_2 1_555 1_555
C10_2 N6 1_555 1_555
H11_2 C10_2 1_555 1_555
C11_2 N6 1_555 1_555
H12_2 C11_2 1_555 1_555
C12_2 N5_2 1_555 1_555
C13_2 C8_2 1_555 1_555
O4_2 C13_2 1_555 1_555
O5_2 C13_2 1_555 1_555
Cu2_2 O2_2 1_555 1_555
Cu3_2 O4_2 1_555 1_555
O7_2 Cu2_2 1_555 1_555
O9_2 Cu2_2 1_555 1_555
N4_2 C14_2 1_555 1_555
N4_2 Cu2_2 1_555 1_555
N5_2 Cu2_2 1_555 1_555
C9_2 C12_2 1_555 1_555
C11_2 C12_2 1_555 1_555
O5_2 Cu3_2 1_555 1_555
Cu3 N1_2 1_555 1_555
N1_2 C1_2 1_555 1_555
N2_2 Cu3 1_555 1_555
N3_2 H1_2 1_555 1_555
C1_2 H2_2 1_555 1_555
C2_2 C1_2 1_555 1_555
C3_2 C1_2 1_555 1_555
H3_2 C3_2 1_555 1_555
H4_2 C3_2 1_555 1_555
C4_2 N1_2 1_555 1_555
C5_2 N2_2 1_555 1_555
H5_2 C5_2 1_555 1_555
C6_2 N3_2 1_555 1_555
H6_2 C6_2 1_555 1_555
C7_2 N2_2 1_555 1_555
O7 C2_2 1_555 1_555
O9 C2_2 1_555 1_555
O6_2 Cu3 1_555 1_555
N3_2 C5_2 1_555 1_555
C3_2 C7_2 1_555 1_555
C6_2 C7_2 1_555 1_555
N1_3 C1_3 1_555 1_555
C1_3 H2_3 1_555 1_555
C2_3 C1_3 1_555 1_555
C3_3 C1_3 1_555 1_555
H3_3 C3_3 1_555 1_555
H4_3 C3_3 1_555 1_555
C4_3 N1_3 1_555 1_555
O7_2 C2_3 1_555 1_555
O2_3 C4_3 1_555 1_555
O9_2 C2_3 1_555 1_555
N5_3 C10_3 1_555 1_555
N6_2 H7_2 1_555 1_555
C10_3 N6_2 1_555 1_555
H11_3 C10_3 1_555 1_555
Cu4 O2_3 1_555 1_555
C3_3 C7_3 1_555 1_555
N5_3 Cu4 1_555 1_555
N2_3 Cu3_2 1_555 1_555
C5_3 N2_3 1_555 1_555
H5_3 C5_3 1_555 1_555
N4_3 C8_3 1_555 1_555
C8_3 H8_3 1_555 1_555
C9_3 C8_3 1_555 1_555
H9_3 C9_3 1_555 1_555
H10_3 C9_3 1_555 1_555
H12_3 C11_3 1_555 1_555
C13_3 C8_3 1_555 1_555
O8 C13_3 1_555 1_555
O10 C13_3 1_555 1_555
O6_3 Cu3_2 1_555 1_555
N4_3 C14_3 1_555 1_555
C9_3 C12_3 1_555 1_555
C11_3 C12_3 1_555 1_555
C14_3 O6_3 1_555 1_555
N6_3 H7_3 1_555 1_555
H6_3 C6_3 1_555 1_555
N3_3 H1_3 1_555 1_555

#END
