
###############################################################################
#
# This file contains modified crystal structure data generated from the
# MOF subset of the Cambridge Structural Database (CSD) v543 
# hosted by the Cambridge Crystallographic Data Centre (CCDC).
#
# This work is licensed under the Creative Commons
# Attribution-NonCommercial-ShareAlike 4.0 International License.
# To view a copy of this license, visit
# http://creativecommons.org/licenses/by-nc-sa/4.0/
# or send a letter to
# Creative Commons, PO Box 1866, Mountain View, CA 94042, USA.
#
# CIF created using the CSD Python API on 29 September 2022
# The structure has been converted into the P1 space group
# The structure has a 3D framework
# The original CSD entry RORVIG is in the trigonal crystal system
# The original CSD entry RORVIG is in a Sohncke space group
# The framework has been calculated to contain at least 10.0% void space
# The void calculation uses a probe of radius 1.32A, grid spacing 0.4
#
###############################################################################

data_RORVIG
_chemical_formula_moiety         '(C42 H36 Cu6 N18 O16)n'
_symmetry_cell_setting           triclinic
_symmetry_space_group_name_H-M   'P 1'
_symmetry_Int_Tables_number      1
_space_group_name_Hall           'P 1'
loop_
_symmetry_equiv_pos_site_id
_symmetry_equiv_pos_as_xyz
1 x,y,z
_cell_length_a                   10.564(4)
_cell_length_b                   10.564(4)
_cell_length_c                   16.921(6)
_cell_angle_alpha                90
_cell_angle_beta                 90
_cell_angle_gamma                120
_cell_volume                     1635.36
loop_
_atom_site_label
_atom_site_type_symbol
_atom_site_fract_x
_atom_site_fract_y
_atom_site_fract_z
Cu1 Cu 0.56461(10) 0.70100(10) 0.63577(4)
O1 O 0.7233(6) 0.5353(6) 0.4776(2)
O2 O 0.7450(7) 0.3353(9) 0.6761(3)
O3 O 0.5382(7) 0.3419(10) 0.6669(3)
N1 N 0.5994(7) 0.6736(7) 0.7464(3)
N2 N 0.5648(8) 0.6240(8) 0.8720(3)
H1 H 0.5274 0.6110 0.9191
N3 N 0.6788(6) 0.6141(6) 0.5970(3)
C1 C 0.5178(9) 0.6611(9) 0.8091(3)
H2 H 0.4377 0.6767 0.8085
C2 C 0.6825(10) 0.6089(10) 0.8516(4)
H3 H 0.7371 0.5827 0.8847
C3 C 0.7033(8) 0.6405(8) 0.7721(3)
C4 C 0.8199(8) 0.6529(10) 0.7183(3)
H4 H 0.8806 0.6217 0.7466
H5 H 0.8825 0.7557 0.7036
C5 C 0.7598(8) 0.5597(8) 0.6414(3)
H6 H 0.8447 0.5759 0.6089
C6 C 0.6701(8) 0.5983(8) 0.5202(3)
C7 C 0.6749(9) 0.3998(13) 0.6625(3)
N4 N 0.6736(7) 0.5994(7) 0.2536(3)
N5 N 0.6240(8) 0.5648(8) 0.1280(3)
H7 H 0.6110 0.5274 0.0809
N6 N 0.6141(6) 0.6788(6) 0.4030(3)
C8 C 0.6611(9) 0.5178(9) 0.1909(3)
H8 H 0.6767 0.4377 0.1915
C9 C 0.6089(10) 0.6825(10) 0.1484(4)
H9 H 0.5827 0.7371 0.1153
C10 C 0.6405(8) 0.7033(8) 0.2279(3)
C11 C 0.6529(10) 0.8199(8) 0.2817(3)
H10 H 0.6217 0.8806 0.2534
H11 H 0.7557 0.8825 0.2964
C12 C 0.5597(8) 0.7598(8) 0.3586(3)
H12 H 0.5759 0.8447 0.3911
O4 O 0.3353(9) 0.7450(7) 0.3239(3)
O5 O 0.3419(10) 0.5382(7) 0.3331(3)
C13 C 0.3998(13) 0.6749(9) 0.3375(3)
O6 O 0.5353(6) 0.7233(6) 0.5224(2)
C14 C 0.5983(8) 0.6701(8) 0.4798(3)
Cu2 Cu 0.70100(10) 0.56461(10) 0.36423(4)
Cu3 Cu 0.13639(14) 0.43539(10) 0.30244(4)
Cu4 Cu 0.43539(10) 0.13639(14) 0.69756(4)
O7 O 0.8037(12) 0.4618(7) 0.3336(3)
O8 O 0.4618(7) 0.8037(12) 0.6664(3)
O2_2 O 0.6647(9) 0.4097(11) 0.0094(3)
O3_2 O 0.6581(10) 0.1963(12) 0.0002(3)
C2_2 C 0.3911(10) 0.0736(14) 0.1849(4)
H3_2 H 0.4173 0.1544 0.2180
C3_2 C 0.3595(8) 0.0628(11) 0.1054(3)
C4_2 C 0.3471(10) 0.1670(13) 0.0516(3)
H4_2 H 0.3783 0.2589 0.0799
H5_2 H 0.2443 0.1268 0.0369
Cu4_2 Cu 0.86361(14) 0.29900(17) 0.03090(4)
O1_2 O 0.4647(6) 0.1880(8) 0.8109(2)
N3_2 N 0.3859(6) 0.0647(8) 0.9303(3)
C5_2 C 0.4403(8) 0.2001(11) 0.9747(3)
H6_2 H 0.4241 0.2688 0.9422
C6_2 C 0.4017(8) 0.0718(11) 0.8535(3)
C7_2 C 0.6002(13) 0.2751(16) 0.9958(3)
N4_2 N 0.4006(7) 0.0742(10) 0.5869(3)
N5_2 N 0.4352(8) 0.0592(11) 0.4613(3)
H7_2 H 0.4726 0.0836 0.4142
C8_2 C 0.4822(9) 0.1433(13) 0.5242(3)
H8_2 H 0.5623 0.2390 0.5248
Cu1_2 Cu 0.29900(10) 0.86361(14) 0.96910(4)
N6_2 N 0.3212(6) 0.9353(8) 0.7363(3)
C9_2 C 0.3175(10) 0.9264(14) 0.4817(4)
H9_2 H 0.2629 0.8456 0.4486
C10_2 C 0.2967(8) 0.9372(11) 0.5612(3)
C11_2 C 0.1801(8) 0.8330(13) 0.6150(3)
H10_2 H 0.1194 0.7411 0.5867
H11_2 H 0.1175 0.8732 0.6297
C12_2 C 0.2402(8) 0.7999(11) 0.6919(3)
H12_2 H 0.1553 0.7312 0.7244
O4_2 O 0.2550(7) 0.5903(11) 0.6572(3)
C13_2 C 0.3251(9) 0.7249(16) 0.6708(3)
O6_2 O 0.2767(6) 0.8120(8) 0.8557(2)
C14_2 C 0.3299(8) 0.9282(11) 0.8131(3)
O8_2 O 0.1963(12) 0.6581(14) 0.9998(3)
N1_2 N 0.0742(10) 0.4006(7) 0.4131(3)
N2_2 N 0.0592(11) 0.4352(8) 0.5387(3)
H1_2 H 0.0836 0.4726 0.5858
C1_2 C 0.1433(13) 0.4822(9) 0.4758(3)
H2_2 H 0.2390 0.5623 0.4752
N6_3 N 0.0647(8) 0.3859(6) 0.0697(3)
C12_3 C 0.2001(11) 0.4403(8) 0.0253(3)
H12_3 H 0.2688 0.4241 0.0578
C13_3 C 0.2751(16) 0.6002(13) 0.0042(3)
O6_3 O 0.1880(8) 0.4647(6) 0.1891(2)
C14_3 C 0.0718(11) 0.4017(8) 0.1465(3)
C9_3 C 0.0736(14) 0.3911(10) 0.8151(4)
H9_3 H 0.1544 0.4173 0.7820
C10_3 C 0.0628(11) 0.3595(8) 0.8946(3)
C11_3 C 0.1670(13) 0.3471(10) 0.9484(3)
H10_3 H 0.2589 0.3783 0.9201
H11_3 H 0.1268 0.2443 0.9631
O4_3 O 0.4097(11) 0.6647(9) 0.9906(3)
O1_3 O 0.8120(8) 0.2767(6) 0.1443(2)
O2_3 O 0.5903(11) 0.2550(7) 0.3428(3)
N3_3 N 0.9353(8) 0.3212(6) 0.2637(3)
C2_3 C 0.9264(14) 0.3175(10) 0.5183(4)
H3_3 H 0.8456 0.2629 0.5514
C3_3 C 0.9372(11) 0.2967(8) 0.4388(3)
C4_3 C 0.8330(13) 0.1801(8) 0.3850(3)
H4_3 H 0.7411 0.1194 0.4133
H5_3 H 0.8732 0.1175 0.3703
C5_3 C 0.7999(11) 0.2402(8) 0.3081(3)
H6_3 H 0.7312 0.1553 0.2756
C6_3 C 0.9282(11) 0.3299(8) 0.1869(3)
C7_3 C 0.7249(16) 0.3251(9) 0.3292(3)
N1_3 N 0.3264(7) 0.9258(10) 0.0797(3)
N2_3 N 0.3760(8) 0.9408(11) 0.2053(3)
H1_3 H 0.3890 0.9164 0.2524
C1_3 C 0.3389(9) 0.8567(13) 0.1424(3)
H2_3 H 0.3233 0.7610 0.1418
N4_3 N 0.9258(10) 0.3264(7) 0.9203(3)
N5_3 N 0.9408(11) 0.3760(8) 0.7947(3)
H7_3 H 0.9164 0.3890 0.7476
C8_3 C 0.8567(13) 0.3389(9) 0.8576(3)
H8_3 H 0.7610 0.3233 0.8582
loop_
_geom_bond_atom_site_label_1
_geom_bond_atom_site_label_2
_geom_bond_site_symmetry_1
_geom_bond_site_symmetry_2
Cu1 N1 1_555 1_555
O1 C6 1_555 1_555
O2 C7 1_555 1_555
O3 C7 1_555 1_555
N1 C1 1_555 1_555
N2 H1 1_555 1_555
N3 Cu1 1_555 1_555
C1 N2 1_555 1_555
H2 C1 1_555 1_555
C2 N2 1_555 1_555
H3 C2 1_555 1_555
C3 N1 1_555 1_555
C4 C3 1_555 1_555
H4 C4 1_555 1_555
H5 C4 1_555 1_555
C5 N3 1_555 1_555
H6 C5 1_555 1_555
C6 N3 1_555 1_555
C7 C5 1_555 1_555
N4 C8 1_555 1_555
N5 H7 1_555 1_555
N6 C12 1_555 1_555
C8 N5 1_555 1_555
H8 C8 1_555 1_555
C9 N5 1_555 1_555
H9 C9 1_555 1_555
C10 N4 1_555 1_555
C11 C10 1_555 1_555
H10 C11 1_555 1_555
H11 C11 1_555 1_555
C12 C11 1_555 1_555
H12 C12 1_555 1_555
O4 C13 1_555 1_555
O5 C13 1_555 1_555
C13 C12 1_555 1_555
O6 Cu1 1_555 1_555
C14 C6 1_555 1_555
Cu2 O1 1_555 1_555
Cu3 O5 1_555 1_555
Cu4 O3 1_555 1_555
O7 Cu2 1_555 1_555
O8 Cu1 1_555 1_555
C2 C3 1_555 1_555
C4 C5 1_555 1_555
N4 Cu2 1_555 1_555
N6 C14 1_555 1_555
N6 Cu2 1_555 1_555
C9 C10 1_555 1_555
O6 C14 1_555 1_555
H3_2 C2_2 1_555 1_555
C4_2 C3_2 1_555 1_555
H4_2 C4_2 1_555 1_555
H5_2 C4_2 1_555 1_555
Cu4_2 O3_2 1_555 1_555
C2_2 C3_2 1_555 1_555
O1_2 C6_2 1_555 1_555
C5_2 N3_2 1_555 1_555
H6_2 C5_2 1_555 1_555
C6_2 N3_2 1_555 1_555
C7_2 C5_2 1_555 1_555
N4_2 C8_2 1_555 1_555
N5_2 H7_2 1_555 1_555
C8_2 N5_2 1_555 1_555
H8_2 C8_2 1_555 1_555
Cu4 O1_2 1_555 1_555
N4_2 Cu4 1_555 1_555
N6_2 C12_2 1_555 1_555
H9_2 C9_2 1_555 1_555
C11_2 C10_2 1_555 1_555
H10_2 C11_2 1_555 1_555
H11_2 C11_2 1_555 1_555
C12_2 C11_2 1_555 1_555
H12_2 C12_2 1_555 1_555
O4_2 C13_2 1_555 1_555
O8 C13_2 1_555 1_555
C13_2 C12_2 1_555 1_555
O6_2 Cu1_2 1_555 1_555
O8_2 Cu1_2 1_555 1_555
N6_2 C14_2 1_555 1_555
C9_2 C10_2 1_555 1_555
O6_2 C14_2 1_555 1_555
Cu3 N1_2 1_555 1_555
N1_2 C1_2 1_555 1_555
N2_2 H1_2 1_555 1_555
C1_2 N2_2 1_555 1_555
H2_2 C1_2 1_555 1_555
N6_3 C12_3 1_555 1_555
H12_3 C12_3 1_555 1_555
C13_3 C12_3 1_555 1_555
O6_3 Cu3 1_555 1_555
N6_3 C14_3 1_555 1_555
O6_3 C14_3 1_555 1_555
H9_3 C9_3 1_555 1_555
C11_3 C10_3 1_555 1_555
H10_3 C11_3 1_555 1_555
H11_3 C11_3 1_555 1_555
C9_3 C10_3 1_555 1_555
O1_3 C6_3 1_555 1_555
O2_3 C7_3 1_555 1_555
O7 C7_3 1_555 1_555
H3_3 C2_3 1_555 1_555
C4_3 C3_3 1_555 1_555
H4_3 C4_3 1_555 1_555
H5_3 C4_3 1_555 1_555
C5_3 N3_3 1_555 1_555
H6_3 C5_3 1_555 1_555
C6_3 N3_3 1_555 1_555
C7_3 C5_3 1_555 1_555
Cu4_2 O1_3 1_555 1_555
C2_3 C3_3 1_555 1_555
C4_3 C5_3 1_555 1_555
N1_3 C1_3 1_555 1_555
N2_3 H1_3 1_555 1_555
C1_3 N2_3 1_555 1_555
H2_3 C1_3 1_555 1_555
N4_3 C8_3 1_555 1_555
N5_3 H7_3 1_555 1_555
C8_3 N5_3 1_555 1_555
H8_3 C8_3 1_555 1_555

#END
