
###############################################################################
#
# This file contains modified crystal structure data generated from the
# MOF subset of the Cambridge Structural Database (CSD) v543 
# hosted by the Cambridge Crystallographic Data Centre (CCDC).
#
# This work is licensed under the Creative Commons
# Attribution-NonCommercial-ShareAlike 4.0 International License.
# To view a copy of this license, visit
# http://creativecommons.org/licenses/by-nc-sa/4.0/
# or send a letter to
# Creative Commons, PO Box 1866, Mountain View, CA 94042, USA.
#
# CIF created using the CSD Python API on 29 September 2022
# The structure has been converted into the P1 space group
# The structure has a 3D framework
# The original CSD entry RORVUS01 is in the trigonal crystal system
# The original CSD entry RORVUS01 is in a Sohncke space group
# The framework has been calculated to contain at least 10.0% void space
# The void calculation uses a probe of radius 1.32A, grid spacing 0.4
#
###############################################################################

data_RORVUS01
_chemical_formula_moiety         '(C42 H36 Cu6 N18 O18)n'
_symmetry_cell_setting           triclinic
_symmetry_space_group_name_H-M   'P 1'
_symmetry_Int_Tables_number      1
_space_group_name_Hall           'P 1'
loop_
_symmetry_equiv_pos_site_id
_symmetry_equiv_pos_as_xyz
1 x,y,z
_cell_length_a                   10.175(3)
_cell_length_b                   10.175(3)
_cell_length_c                   16.621(6)
_cell_angle_alpha                90
_cell_angle_beta                 90
_cell_angle_gamma                120
_cell_volume                     1490.24
loop_
_atom_site_label
_atom_site_type_symbol
_atom_site_fract_x
_atom_site_fract_y
_atom_site_fract_z
Cu1 Cu 0.59260(11) 0.74126(12) 0.13827(5)
N1 N 0.7096(8) 0.6472(8) 0.1003(3)
N2 N 0.6267(9) 0.7172(9) 0.2526(4)
N3 N 0.5780(8) 0.6654(10) 0.3812(4)
H1 H 0.5374 0.6561 0.4291
O1 O 0.5196(7) 0.3655(10) 0.1680(3)
O2 O 0.7079(7) 0.3165(10) 0.1771(3)
C1 C 0.6586(10) 0.4051(14) 0.1653(4)
C2 C 0.7110(10) 0.6368(9) 0.0225(4)
C3 C 0.5430(11) 0.7144(12) 0.3156(5)
H2 H 0.4680 0.7439 0.3133
C4 C 0.6881(12) 0.6318(13) 0.3618(5)
H3 H 0.7350 0.5937 0.3969
C5 C 0.7174(9) 0.6636(10) 0.2824(4)
C6 C 0.8348(9) 0.6573(9) 0.2299(4)
H4 H 0.8815 0.6075 0.2605
H5 H 0.9158 0.7625 0.2182
C7 C 0.7745(10) 0.5725(10) 0.1494(4)
H6 H 0.8618 0.5774 0.1192
O6 O 0.5706(7) 0.7669(7) 0.0203(3)
Cu4 Cu 0.40740(11) 0.14866(16) 0.19506(5)
O8 O 0.4804(7) 0.8459(12) 0.1653(3)
O10 O 0.2921(7) 0.6086(12) 0.1562(3)
O3 O 0.7669(7) 0.5706(7) 0.9797(3)
N4 N 0.6472(8) 0.7096(8) 0.8997(3)
N5 N 0.7172(9) 0.6267(9) 0.7474(4)
N6 N 0.6654(10) 0.5780(8) 0.6188(4)
H7 H 0.6561 0.5374 0.5709
C8 C 0.6368(9) 0.7110(10) 0.9775(4)
C9 C 0.7144(12) 0.5430(11) 0.6844(5)
H8 H 0.7439 0.4680 0.6867
C10 C 0.6318(13) 0.6881(12) 0.6382(5)
H9 H 0.5937 0.7350 0.6031
C11 C 0.6636(10) 0.7174(9) 0.7176(4)
C12 C 0.6573(9) 0.8348(9) 0.7701(4)
H10 H 0.6075 0.8815 0.7395
H11 H 0.7625 0.9158 0.7818
C13 C 0.5725(10) 0.7745(10) 0.8506(4)
H12 H 0.5774 0.8618 0.8808
O4 O 0.3655(10) 0.5196(7) 0.8320(3)
O5 O 0.3165(10) 0.7079(7) 0.8229(3)
C14 C 0.4051(14) 0.6586(10) 0.8347(4)
Cu2 Cu 0.74126(12) 0.59260(11) 0.86173(5)
Cu3 Cu 0.14866(16) 0.40740(11) 0.80494(5)
O7 O 0.8459(12) 0.4804(7) 0.8347(3)
O9 O 0.6086(12) 0.2921(7) 0.8438(3)
N1_2 N 0.3528(8) 0.0624(11) 0.4336(3)
O1_2 O 0.6345(10) 0.1541(12) 0.5013(3)
O2_2 O 0.6835(10) 0.3914(12) 0.5104(3)
O3_2 O 0.4294(7) 0.1963(10) 0.3130(3)
C1_2 C 0.5949(14) 0.2535(17) 0.4986(4)
C2_2 C 0.3632(9) 0.0742(13) 0.3558(4)
C4_2 C 0.3682(13) 0.0563(18) 0.6951(5)
H3_2 H 0.4063 0.1413 0.7302
C5_2 C 0.3364(10) 0.0538(13) 0.6157(4)
C6_2 C 0.3427(9) 0.1775(13) 0.5632(4)
H4_2 H 0.3925 0.2740 0.5938
H5_2 H 0.2375 0.1533 0.5515
C7_2 C 0.4275(10) 0.2020(14) 0.4827(4)
H6_2 H 0.4226 0.2844 0.4525
N5_2 N 0.3733(9) 0.0905(13) 0.0807(4)
C9_2 C 0.4570(11) 0.1714(16) 0.0177(5)
H8_2 H 0.5320 0.2759 0.0200
Cu4_2 Cu 0.85134(16) 0.25874(19) 0.52840(5)
Cu1_2 Cu 0.25874(12) 0.85134(16) 0.47160(5)
N2_2 N 0.2828(9) 0.9095(13) 0.5859(4)
N3_2 N 0.3346(10) 0.9126(13) 0.7145(4)
H1_2 H 0.3439 0.8813 0.7624
C3_2 C 0.2856(12) 0.8286(16) 0.6489(5)
H2_2 H 0.2561 0.7241 0.6466
N4_2 N 0.2904(8) 0.9376(11) 0.2330(3)
C8_2 C 0.2890(10) 0.9258(13) 0.3108(4)
C11_2 C 0.2826(9) 0.9462(13) 0.0509(4)
C12_2 C 0.1652(9) 0.8225(13) 0.1034(4)
H10_2 H 0.1185 0.7260 0.0728
H11_2 H 0.0842 0.8467 0.1151
C13_2 C 0.2255(10) 0.7980(14) 0.1839(4)
H12_2 H 0.1382 0.7156 0.2141
C14_2 C 0.3414(10) 0.7465(17) 0.1680(4)
O6_2 O 0.2331(7) 0.8037(10) 0.3536(3)
O8_2 O 0.1541(12) 0.6345(14) 0.4987(3)
O10_2 O 0.3914(12) 0.6835(14) 0.4896(3)
N2_3 N 0.0905(13) 0.3733(9) 0.9193(4)
C3_3 C 0.1714(16) 0.4570(11) 0.9823(5)
H2_3 H 0.2759 0.5320 0.9800
N4_3 N 0.0624(11) 0.3528(8) 0.5664(3)
C8_3 C 0.0742(13) 0.3632(9) 0.6442(4)
C10_2 C 0.0563(18) 0.3682(13) 0.3049(5)
H9_2 H 0.1413 0.4063 0.2698
C11_3 C 0.0538(13) 0.3364(10) 0.3843(4)
C12_3 C 0.1775(13) 0.3427(9) 0.4368(4)
H10_3 H 0.2740 0.3925 0.4062
H11_3 H 0.1533 0.2375 0.4485
C13_3 C 0.2020(14) 0.4275(10) 0.5173(4)
H12_3 H 0.2844 0.4226 0.5475
C14_3 C 0.2535(17) 0.5949(14) 0.5014(4)
O6_3 O 0.1963(10) 0.4294(7) 0.6870(3)
N1_3 N 0.9376(11) 0.2904(8) 0.7670(3)
O3_3 O 0.8037(10) 0.2331(7) 0.6464(3)
C1_3 C 0.7465(17) 0.3414(10) 0.8320(4)
C2_3 C 0.9258(13) 0.2890(10) 0.6892(4)
C5_3 C 0.9462(13) 0.2826(9) 0.9491(4)
C6_3 C 0.8225(13) 0.1652(9) 0.8966(4)
H4_3 H 0.7260 0.1185 0.9272
H5_3 H 0.8467 0.0842 0.8849
C7_3 C 0.7980(14) 0.2255(10) 0.8161(4)
H6_3 H 0.7156 0.1382 0.7859
N5_3 N 0.9095(13) 0.2828(9) 0.4141(4)
N6_2 N 0.9126(13) 0.3346(10) 0.2855(4)
H7_2 H 0.8813 0.3439 0.2376
C9_3 C 0.8286(16) 0.2856(12) 0.3511(5)
H8_3 H 0.7241 0.2561 0.3534
N6_3 N 0.4220(8) 0.0874(13) 0.9521(4)
H7_3 H 0.4626 0.1187 0.9042
C10_3 C 0.3119(12) 0.9437(18) 0.9715(5)
H9_3 H 0.2650 0.8587 0.9364
N3_3 N 0.0874(13) 0.4220(8) 0.0479(4)
H1_3 H 0.1187 0.4626 0.0958
C4_3 C 0.9437(18) 0.3119(12) 0.0285(5)
H3_3 H 0.8587 0.2650 0.0636
loop_
_geom_bond_atom_site_label_1
_geom_bond_atom_site_label_2
_geom_bond_site_symmetry_1
_geom_bond_site_symmetry_2
Cu1 N1 1_555 1_555
N1 C2 1_555 1_555
N2 Cu1 1_555 1_555
N3 H1 1_555 1_555
O1 C1 1_555 1_555
O2 C1 1_555 1_555
C1 C7 1_555 1_555
C3 N2 1_555 1_555
H2 C3 1_555 1_555
C4 N3 1_555 1_555
H3 C4 1_555 1_555
C5 N2 1_555 1_555
C6 C5 1_555 1_555
H4 C6 1_555 1_555
H5 C6 1_555 1_555
C7 N1 1_555 1_555
H6 C7 1_555 1_555
O6 Cu1 1_555 1_555
Cu4 O1 1_555 1_555
O8 Cu1 1_555 1_555
O10 Cu1 1_555 1_555
N3 C3 1_555 1_555
O2 Cu4 1_555 1_555
C4 C5 1_555 1_555
C6 C7 1_555 1_555
N4 C8 1_555 1_555
N5 C9 1_555 1_555
N6 H7 1_555 1_555
C9 N6 1_555 1_555
H8 C9 1_555 1_555
C10 N6 1_555 1_555
H9 C10 1_555 1_555
C11 N5 1_555 1_555
C12 C11 1_555 1_555
H10 C12 1_555 1_555
H11 C12 1_555 1_555
C13 N4 1_555 1_555
H12 C13 1_555 1_555
O4 C14 1_555 1_555
O5 C14 1_555 1_555
C14 C13 1_555 1_555
Cu2 O3 1_555 1_555
Cu3 O4 1_555 1_555
O7 Cu2 1_555 1_555
O9 Cu2 1_555 1_555
N4 Cu2 1_555 1_555
N5 Cu2 1_555 1_555
C10 C11 1_555 1_555
C12 C13 1_555 1_555
O5 Cu3 1_555 1_555
N1_2 C2_2 1_555 1_555
O1_2 C1_2 1_555 1_555
O2_2 C1_2 1_555 1_555
O3_2 C2_2 1_555 1_555
C1_2 C7_2 1_555 1_555
H3_2 C4_2 1_555 1_555
C6_2 C5_2 1_555 1_555
H4_2 C6_2 1_555 1_555
H5_2 C6_2 1_555 1_555
C7_2 N1_2 1_555 1_555
H6_2 C7_2 1_555 1_555
N5_2 C9_2 1_555 1_555
H8_2 C9_2 1_555 1_555
Cu4 O3_2 1_555 1_555
Cu4_2 O1_2 1_555 1_555
O2_2 Cu4_2 1_555 1_555
C4_2 C5_2 1_555 1_555
C6_2 C7_2 1_555 1_555
N5_2 Cu4 1_555 1_555
N2_2 Cu1_2 1_555 1_555
N3_2 H1_2 1_555 1_555
C3_2 N2_2 1_555 1_555
H2_2 C3_2 1_555 1_555
N4_2 C8_2 1_555 1_555
C8_2 O6_2 1_555 1_555
C12_2 C11_2 1_555 1_555
H10_2 C12_2 1_555 1_555
H11_2 C12_2 1_555 1_555
C13_2 N4_2 1_555 1_555
H12_2 C13_2 1_555 1_555
O8 C14_2 1_555 1_555
O10 C14_2 1_555 1_555
C14_2 C13_2 1_555 1_555
O6_2 Cu1_2 1_555 1_555
O8_2 Cu1_2 1_555 1_555
O10_2 Cu1_2 1_555 1_555
N3_2 C3_2 1_555 1_555
C12_2 C13_2 1_555 1_555
N2_3 Cu3 1_555 1_555
C3_3 N2_3 1_555 1_555
H2_3 C3_3 1_555 1_555
N4_3 C8_3 1_555 1_555
C8_3 O6_3 1_555 1_555
H9_2 C10_2 1_555 1_555
C12_3 C11_3 1_555 1_555
H10_3 C12_3 1_555 1_555
H11_3 C12_3 1_555 1_555
C13_3 N4_3 1_555 1_555
H12_3 C13_3 1_555 1_555
O8_2 C14_3 1_555 1_555
O10_2 C14_3 1_555 1_555
C14_3 C13_3 1_555 1_555
O6_3 Cu3 1_555 1_555
C10_2 C11_3 1_555 1_555
C12_3 C13_3 1_555 1_555
N1_3 C2_3 1_555 1_555
O7 C1_3 1_555 1_555
O9 C1_3 1_555 1_555
O3_3 C2_3 1_555 1_555
C1_3 C7_3 1_555 1_555
C6_3 C5_3 1_555 1_555
H4_3 C6_3 1_555 1_555
H5_3 C6_3 1_555 1_555
C7_3 N1_3 1_555 1_555
H6_3 C7_3 1_555 1_555
N5_3 C9_3 1_555 1_555
N6_2 H7_2 1_555 1_555
C9_3 N6_2 1_555 1_555
H8_3 C9_3 1_555 1_555
Cu4_2 O3_3 1_555 1_555
C6_3 C7_3 1_555 1_555
N5_3 Cu4_2 1_555 1_555
N6_3 H7_3 1_555 1_555
H9_3 C10_3 1_555 1_555
N3_3 H1_3 1_555 1_555
H3_3 C4_3 1_555 1_555

#END
