
###############################################################################
#
# This file contains modified crystal structure data generated from the
# MOF subset of the Cambridge Structural Database (CSD) v543 
# hosted by the Cambridge Crystallographic Data Centre (CCDC).
#
# This work is licensed under the Creative Commons
# Attribution-NonCommercial-ShareAlike 4.0 International License.
# To view a copy of this license, visit
# http://creativecommons.org/licenses/by-nc-sa/4.0/
# or send a letter to
# Creative Commons, PO Box 1866, Mountain View, CA 94042, USA.
#
# CIF created using the CSD Python API on 29 September 2022
# The structure has been converted into the P1 space group
# The structure has a 3D framework
# The original CSD entry ROSZIL is in the monoclinic crystal system
# The framework has been calculated to contain at least 10.0% void space
# The void calculation uses a probe of radius 1.32A, grid spacing 0.4
# The framework is charged, counterions have been retained in the structure
# H atom positions have been added when not included in the experimental data
# Generated hydrogen atom positions removed from atoms on special positions
#
###############################################################################

data_ROSZIL
_chemical_formula_moiety         '(C44 H96 N4 O42 P8 Zn8)n'
_symmetry_cell_setting           triclinic
_symmetry_space_group_name_H-M   'P 1'
_symmetry_Int_Tables_number      1
_space_group_name_Hall           'P 1'
loop_
_symmetry_equiv_pos_site_id
_symmetry_equiv_pos_as_xyz
1 x,y,z
_cell_length_a                   6.43270(10)
_cell_length_b                   30.2492(5)
_cell_length_c                   11.7675(2)
_cell_angle_alpha                90
_cell_angle_beta                 104.818(2)
_cell_angle_gamma                90
_cell_volume                     2213.62
loop_
_atom_site_label
_atom_site_type_symbol
_atom_site_fract_x
_atom_site_fract_y
_atom_site_fract_z
C1 C 0.0284(15) 0.1134(3) 0.3288(8)
H3 H 0.144656 0.105851 0.395151
C2 C 0.2766(19) 0.1249(4) 0.2061(10)
H4 H 0.350295 0.102196 0.258227
H5 H 0.376580 0.147683 0.199591
H6 H 0.215098 0.112348 0.129955
N1 N 0.1051(10) 0.1437(2) 0.2529(6)
H7 H 0.154015 0.168105 0.293229
H1 H 0.974442 0.087054 0.285788
H2 H 0.915379 0.127204 0.355771
H8 H 0.995452 0.151389 0.193189
H1_2 H 0.025558 0.587054 0.214212
H2_2 H 0.084621 0.627204 0.144229
H8_2 H 0.004548 0.651389 0.306811
C1_2 C 0.9716(15) 0.6134(3) 0.1712(8)
H3_2 H 0.855344 0.605851 0.104849
C2_2 C 0.7234(19) 0.6249(4) 0.2939(10)
H4_2 H 0.649705 0.602196 0.241773
H5_2 H 0.623420 0.647683 0.300409
H6_2 H 0.784902 0.612348 0.370045
N1_2 N 0.8949(10) 0.6437(2) 0.2471(6)
H7_2 H 0.845985 0.668105 0.206771
H1_3 H 0.025558 0.912946 0.714212
H2_3 H 0.084621 0.872796 0.644229
H8_3 H 0.004548 0.848611 0.806811
C1_3 C 0.9716(15) 0.8866(3) 0.6712(8)
H3_3 H 0.855344 0.894149 0.604849
C2_3 C 0.7234(19) 0.8751(4) 0.7939(10)
H4_3 H 0.649705 0.897804 0.741773
H5_3 H 0.623420 0.852317 0.800409
H6_3 H 0.784902 0.887652 0.870045
N1_3 N 0.8949(10) 0.8563(2) 0.7471(6)
H7_3 H 0.845985 0.831895 0.706771
C1_4 C 0.0284(15) 0.3866(3) 0.8288(8)
H3_4 H 0.144656 0.394149 0.895151
C2_4 C 0.2766(19) 0.3751(4) 0.7061(10)
H4_4 H 0.350295 0.397804 0.758227
H5_4 H 0.376580 0.352317 0.699591
H6_4 H 0.215098 0.387652 0.629955
N1_4 N 0.1051(10) 0.3563(2) 0.7529(6)
H7_4 H 0.154015 0.331895 0.793229
H1_4 H 0.974442 0.412946 0.785788
H2_4 H 0.915379 0.372796 0.855771
H8_4 H 0.995452 0.348611 0.693189
Zn7 Zn 0.25324(12) 0.72255(3) 0.73945(6)
H32 H 0.0357683 0.724113 0.971864
H12 H 0.043507 0.392327 0.177841
C8 C 0.0569(16) 0.4510(4) 0.0987(10)
H13 H 0.199596 0.456816 0.136982
C17 C 0.2649(13) 0.5292(3) 0.0325(8)
H19 H 0.345175 0.509696 0.087744
C18 C 0.3639(12) 0.5667(3) 0.0037(8)
H20 H 0.507898 0.572053 0.040229
O23 O 0.0474(7) 0.27361(16) 0.2509(4)
O25 O 0.6739(7) 0.71949(14) 0.1405(3)
C12 C 0.3518(10) 0.6383(2) 0.8928(6)
C13 C 0.2513(11) 0.5963(2) 0.9218(6)
C14 C 0.0393(15) 0.5875(3) 0.8742(9)
C16 C 0.0527(11) 0.5197(2) 0.9822(6)
O12 O 0.2533(7) 0.65799(16) 0.8004(4)
O13 O 0.5211(7) 0.65125(15) 0.9631(4)
C19 C 0.6288(9) 0.6974(2) 0.5654(5)
C20 C 0.6714(13) 0.6486(2) 0.6029(6)
H21 H 0.823292 0.643969 0.632464
H22 H 0.600315 0.641777 0.663181
H23 H 0.617113 0.629765 0.536241
O14 O 0.5827(6) 0.72252(14) 0.7765(3)
O15 O 0.9526(7) 0.72639(16) 0.7491(4)
O16 O 0.6739(7) 0.78051(14) 0.6405(3)
O17 O 0.7545(7) 0.71076(17) 0.4825(4)
H24 H 0.909577 0.707841 0.506369
O18 O 0.2849(7) 0.67108(15) 0.3877(4)
O19 O 0.2044(7) 0.70475(16) 0.5687(4)
O20 O 0.2687(7) 0.79224(15) 0.6827(4)
O21 O 0.3479(6) 0.75312(13) 0.4276(3)
O22 O 0.9508(7) 0.69677(17) 0.9728(4)
P3 P 0.7179(2) 0.73399(5) 0.69158(11)
P4 P 0.3444(2) 0.70687(5) 0.48189(12)
Zn4 Zn 0.63698(12) 0.71304(3) 0.95801(6)
O27 O 0.7545(7) 0.78924(17) 0.9825(4)
O29 O 0.3479(6) 0.74688(13) 0.9276(3)
Zn6 Zn 0.25324(12) 0.77745(3) 0.23945(6)
Zn9 Zn 0.63698(12) 0.78696(3) 0.45801(6)
H31 H 0.960264 0.67755 0.905896
C3 C 0.3712(9) 0.3026(2) 0.4346(5)
C4 C 0.3286(13) 0.3514(2) 0.3971(6)
H9 H 0.176708 0.356031 0.367536
H10 H 0.399685 0.358223 0.336819
H11 H 0.382887 0.370235 0.463759
C5 C 0.6482(10) 0.3617(2) 0.1072(6)
C6 C 0.7487(11) 0.4037(2) 0.0782(6)
C7 C 0.9607(15) 0.4125(3) 0.1258(9)
C9 C 0.9473(11) 0.4803(2) 0.0178(6)
O1 O 0.4173(6) 0.27748(14) 0.2235(3)
O3 O 0.3261(7) 0.21949(14) 0.3595(3)
O4 O 0.2455(7) 0.28924(17) 0.5175(4)
H16 H 0.090423 0.292159 0.493631
O5 O 0.7151(7) 0.32892(15) 0.6123(4)
O6 O 0.7956(7) 0.29525(16) 0.4313(4)
O7 O 0.7313(7) 0.20776(15) 0.3173(4)
O8 O 0.6521(6) 0.24688(13) 0.5724(3)
O9 O 0.7467(7) 0.34201(16) 0.1996(4)
O10 O 0.4789(7) 0.34875(15) 0.0369(4)
O11 O 0.0492(7) 0.30323(17) 0.0272(4)
P1 P 0.2821(2) 0.26601(5) 0.30842(11)
P2 P 0.6556(2) 0.29313(5) 0.51811(12)
Zn1 Zn 0.74676(12) 0.27745(3) 0.26055(6)
Zn2 Zn 0.36302(12) 0.28696(3) 0.04199(6)
O28 O 0.2455(7) 0.21076(17) 0.0175(4)
O30 O 0.6521(6) 0.25312(13) 0.0724(3)
Zn8 Zn 0.74676(12) 0.22255(3) 0.76055(6)
Zn10 Zn 0.36302(12) 0.21304(3) 0.54199(6)
H27 H 0.0425037 0.329608 0.0763681
C10 C 0.7351(13) 0.4708(3) 0.9675(8)
H14 H 0.654825 0.490304 0.912256
C11 C 0.6361(12) 0.4333(3) 0.9963(8)
H15 H 0.492102 0.427947 0.959771
H17 H 0.956493 0.607673 0.822159
C15 C 0.9431(16) 0.5490(4) 0.9013(10)
H18 H 0.800404 0.543184 0.863018
O26 O 0.3261(7) 0.28051(14) 0.8595(3)
H28 H 0.0226057 0.809934 0.556214
H17_2 H 0.043507 0.107673 0.677841
C15_2 C 0.0569(16) 0.0490(4) 0.5987(10)
H18_2 H 0.199596 0.043184 0.636982
O24 O 0.0474(7) 0.22639(16) 0.7509(4)
C3_2 C 0.6288(9) 0.8026(2) 0.0654(5)
C4_2 C 0.6714(13) 0.8514(2) 0.1029(6)
H9_2 H 0.823292 0.856031 0.132464
H10_2 H 0.600315 0.858223 0.163181
H11_2 H 0.617113 0.870235 0.036241
C5_2 C 0.3518(10) 0.8617(2) 0.3928(6)
C6_2 C 0.2513(11) 0.9037(2) 0.4218(6)
C7_2 C 0.0393(15) 0.9125(3) 0.3742(9)
C9_2 C 0.0527(11) 0.9803(2) 0.4822(6)
C10_2 C 0.2649(13) 0.9708(3) 0.5325(8)
H14_2 H 0.345175 0.990304 0.587744
C11_2 C 0.3639(12) 0.9333(3) 0.5037(8)
H15_2 H 0.507898 0.927947 0.540229
O1_2 O 0.5827(6) 0.77748(14) 0.2765(3)
O2 O 0.9526(7) 0.77361(16) 0.2491(4)
H16_2 H 0.909577 0.792159 0.006369
O6_2 O 0.2044(7) 0.79525(16) 0.0687(4)
O7_2 O 0.2687(7) 0.70776(15) 0.1827(4)
O9_2 O 0.2533(7) 0.84201(16) 0.3004(4)
O10_2 O 0.5211(7) 0.84875(15) 0.4631(4)
O11_2 O 0.9508(7) 0.80323(17) 0.4728(4)
P1_2 P 0.7179(2) 0.76601(5) 0.19158(11)
H27_2 H 0.957496 0.829608 0.423632
O5_2 O 0.2849(7) 0.82892(15) 0.8877(4)
P2_2 P 0.3444(2) 0.79313(5) 0.98189(12)
O18_2 O 0.7151(7) 0.17108(15) 0.1123(4)
P4_2 P 0.6556(2) 0.20687(5) 0.01811(12)
C12_2 C 0.6482(10) 0.1383(2) 0.6072(6)
C13_2 C 0.7487(11) 0.0963(2) 0.5782(6)
C14_2 C 0.9607(15) 0.0875(3) 0.6258(9)
C16_2 C 0.9473(11) 0.0197(2) 0.5178(6)
C17_2 C 0.7351(13) 0.0292(3) 0.4675(8)
H19_2 H 0.654825 0.009696 0.412256
C18_2 C 0.6361(12) 0.0667(3) 0.4963(8)
H20_2 H 0.492102 0.072053 0.459771
O12_2 O 0.7467(7) 0.15799(16) 0.6996(4)
O13_2 O 0.4789(7) 0.15125(15) 0.5369(4)
C19_2 C 0.3712(9) 0.1974(2) 0.9346(5)
C20_2 C 0.3286(13) 0.1486(2) 0.8971(6)
H21_2 H 0.176708 0.143969 0.867536
H22_2 H 0.399685 0.141777 0.836819
H23_2 H 0.382887 0.129765 0.963759
O14_2 O 0.4173(6) 0.22252(14) 0.7235(3)
H24_2 H 0.090423 0.207841 0.993631
O19_2 O 0.7956(7) 0.20475(16) 0.9313(4)
O20_2 O 0.7313(7) 0.29224(15) 0.8173(4)
O22_2 O 0.0492(7) 0.19677(17) 0.5272(4)
P3_2 P 0.2821(2) 0.23399(5) 0.80842(11)
H31_2 H 0.0397361 0.17755 0.594104
H12_2 H 0.956493 0.892327 0.322159
C8_2 C 0.9431(16) 0.9510(4) 0.4013(10)
H13_2 H 0.800404 0.956816 0.363018
H32_2 H 0.964232 0.224113 0.528136
H27_3 H 0.957496 0.670392 0.923632
H31_3 H 0.0397361 0.32245 0.094104
H32_3 H 0.964232 0.275887 0.0281365
H32_4 H 0.0357683 0.775887 0.471864
H31_4 H 0.960264 0.82245 0.405896
H27_4 H 0.0425037 0.170392 0.576368
H28_2 H 0.977394 0.190066 0.443786
H28_3 H 0.977394 0.309934 0.943786
H28_4 H 0.0226057 0.690066 0.0562137
loop_
_geom_bond_atom_site_label_1
_geom_bond_atom_site_label_2
_geom_bond_site_symmetry_1
_geom_bond_site_symmetry_2
H3 C1 1_555 1_555
C2 H4 1_555 1_555
H5 C2 1_555 1_555
H6 C2 1_555 1_555
N1 C1 1_555 1_555
H7 N1 1_555 1_555
C2 N1 1_555 1_555
H3_2 C1_2 1_555 1_555
C2_2 H4_2 1_555 1_555
H5_2 C2_2 1_555 1_555
H6_2 C2_2 1_555 1_555
N1_2 C1_2 1_555 1_555
H7_2 N1_2 1_555 1_555
C2_2 N1_2 1_555 1_555
H3_3 C1_3 1_555 1_555
C2_3 H4_3 1_555 1_555
H5_3 C2_3 1_555 1_555
H6_3 C2_3 1_555 1_555
N1_3 C1_3 1_555 1_555
H7_3 N1_3 1_555 1_555
C2_3 N1_3 1_555 1_555
H3_4 C1_4 1_555 1_555
C2_4 H4_4 1_555 1_555
H5_4 C2_4 1_555 1_555
H6_4 C2_4 1_555 1_555
N1_4 C1_4 1_555 1_555
H7_4 N1_4 1_555 1_555
C2_4 N1_4 1_555 1_555
H13 C8 1_555 1_555
H19 C17 1_555 1_555
H20 C18 1_555 1_555
C17 C18 1_555 1_555
C12 C13 1_555 1_555
C13 C14 1_555 1_555
O12 C12 1_555 1_555
O13 C12 1_555 1_555
C19 C20 1_555 1_555
C20 H21 1_555 1_555
H22 C20 1_555 1_555
H23 C20 1_555 1_555
O14 P3 1_555 1_555
O15 P3 1_555 1_555
O16 P3 1_555 1_555
O17 C19 1_555 1_555
H24 O17 1_555 1_555
O18 P4 1_555 1_555
O19 P4 1_555 1_555
O20 Zn7 1_555 1_555
O21 P4 1_555 1_555
O22 Zn4 1_555 1_555
P3 C19 1_555 1_555
P4 C19 1_555 1_555
Zn7 O12 1_555 1_555
Zn4 O13 1_555 1_555
O27 Zn4 1_555 1_555
O29 Zn7 1_555 1_555
Zn6 O21 1_555 1_555
Zn9 O16 1_555 1_555
O14 Zn7 1_555 1_555
O14 Zn4 1_555 1_555
O17 Zn9 1_555 1_555
O19 Zn7 1_555 1_555
O21 Zn9 1_555 1_555
Zn4 O29 1_555 1_555
O22 H31 1_555 1_555
C3 C4 1_555 1_555
C4 H9 1_555 1_555
H10 C4 1_555 1_555
H11 C4 1_555 1_555
C5 C6 1_555 1_555
C6 C7 1_555 1_555
O1 P1 1_555 1_555
O23 P1 1_555 1_555
O3 P1 1_555 1_555
O4 C3 1_555 1_555
H16 O4 1_555 1_555
O5 P2 1_555 1_555
O6 P2 1_555 1_555
O7 Zn1 1_555 1_555
O8 P2 1_555 1_555
O9 C5 1_555 1_555
O10 C5 1_555 1_555
O11 Zn2 1_555 1_555
P1 C3 1_555 1_555
P2 C3 1_555 1_555
Zn1 O1 1_555 1_555
Zn2 O1 1_555 1_555
O28 Zn2 1_555 1_555
O30 Zn1 1_555 1_555
Zn8 O8 1_555 1_555
Zn10 O3 1_555 1_555
O4 Zn10 1_555 1_555
O6 Zn1 1_555 1_555
O8 Zn10 1_555 1_555
O9 Zn1 1_555 1_555
O10 Zn2 1_555 1_555
Zn2 O30 1_555 1_555
O11 H27 1_555 1_555
H14 C10 1_555 1_555
H15 C11 1_555 1_555
H18 C15 1_555 1_555
C10 C11 1_555 1_555
H18_2 C15_2 1_555 1_555
C3_2 C4_2 1_555 1_555
C4_2 H9_2 1_555 1_555
H10_2 C4_2 1_555 1_555
H11_2 C4_2 1_555 1_555
C5_2 C6_2 1_555 1_555
C6_2 C7_2 1_555 1_555
C10_2 C9_2 1_555 1_555
H14_2 C10_2 1_555 1_555
C11_2 C6_2 1_555 1_555
H15_2 C11_2 1_555 1_555
O1_2 P1_2 1_555 1_555
O2 P1_2 1_555 1_555
O25 P1_2 1_555 1_555
O7_2 Zn6 1_555 1_555
O9_2 C5_2 1_555 1_555
O10_2 C5_2 1_555 1_555
O11_2 Zn9 1_555 1_555
P1_2 C3_2 1_555 1_555
Zn6 O1_2 1_555 1_555
Zn9 O1_2 1_555 1_555
C10_2 C11_2 1_555 1_555
O6_2 Zn6 1_555 1_555
O9_2 Zn6 1_555 1_555
O10_2 Zn9 1_555 1_555
O11_2 H27_2 1_555 1_555
O5_2 P2_2 1_555 1_555
O29 P2_2 1_555 1_555
O18_2 P4_2 1_555 1_555
O30 P4_2 1_555 1_555
C12_2 C13_2 1_555 1_555
C13_2 C14_2 1_555 1_555
C17_2 C16_2 1_555 1_555
H19_2 C17_2 1_555 1_555
C18_2 C13_2 1_555 1_555
H20_2 C18_2 1_555 1_555
O12_2 C12_2 1_555 1_555
O13_2 C12_2 1_555 1_555
C19_2 C20_2 1_555 1_555
C20_2 H21_2 1_555 1_555
H22_2 C20_2 1_555 1_555
H23_2 C20_2 1_555 1_555
O14_2 P3_2 1_555 1_555
O24 P3_2 1_555 1_555
O26 P3_2 1_555 1_555
O20_2 Zn8 1_555 1_555
O22_2 Zn10 1_555 1_555
P3_2 C19_2 1_555 1_555
Zn8 O12_2 1_555 1_555
Zn10 O13_2 1_555 1_555
C17_2 C18_2 1_555 1_555
O14_2 Zn8 1_555 1_555
O14_2 Zn10 1_555 1_555
O19_2 Zn8 1_555 1_555
O22_2 H31_2 1_555 1_555
H13_2 C8_2 1_555 1_555
O22 H27_3 1_555 1_555
O11 H31_3 1_555 1_555
O11_2 H31_4 1_555 1_555
O22_2 H27_4 1_555 1_555

#END
