
###############################################################################
#
# This file contains modified crystal structure data generated from the
# MOF subset of the Cambridge Structural Database (CSD) v543 
# hosted by the Cambridge Crystallographic Data Centre (CCDC).
#
# This work is licensed under the Creative Commons
# Attribution-NonCommercial-ShareAlike 4.0 International License.
# To view a copy of this license, visit
# http://creativecommons.org/licenses/by-nc-sa/4.0/
# or send a letter to
# Creative Commons, PO Box 1866, Mountain View, CA 94042, USA.
#
# CIF created using the CSD Python API on 29 September 2022
# The structure has been converted into the P1 space group
# The structure has a 3D framework
# The original CSD entry ROVVOQ04 is in the triclinic crystal system
# The framework has been calculated to contain at least 10.0% void space
# The void calculation uses a probe of radius 1.32A, grid spacing 0.4
# H atom positions have been added when not included in the experimental data
#
###############################################################################

data_ROVVOQ04
_chemical_formula_moiety         '(C30 H72 Cd2 N12)n'
_symmetry_cell_setting           triclinic
_symmetry_space_group_name_H-M   'P 1'
_symmetry_Int_Tables_number      1
_space_group_name_Hall           'P 1'
loop_
_symmetry_equiv_pos_site_id
_symmetry_equiv_pos_as_xyz
1 x,y,z
_cell_length_a                   8.947(18)
_cell_length_b                   11.451(5)
_cell_length_c                   11.469(6)
_cell_angle_alpha                90.13(5)
_cell_angle_beta                 109.57(10)
_cell_angle_gamma                111.43(11)
_cell_volume                     1020.14
loop_
_atom_site_label
_atom_site_type_symbol
_atom_site_fract_x
_atom_site_fract_y
_atom_site_fract_z
Cd4 Cd 0.0000 0.5000 0.0000
Cd4_2 Cd 0.0000 0.5000 1.0000
Cd4_3 Cd 1.0000 0.5000 0.0000
C12 C 0.128(5) 0.019(2) 0.1041(19)
H26 H 0.2257 0.0040 0.1602
H27 H 0.1187 0.0875 0.1470
C21 C 0.560(6) 0.037(2) 0.4049(15)
H47 H 0.5410 0.0472 0.3178
H48 H 0.6830 0.0703 0.4509
N9 N 0.520(6) 0.103(2) 0.5835(13)
C22 C 0.452(6) 0.178(2) 0.637(2)
H49 H 0.4753 0.1658 0.7235
H50 H 0.3277 0.1421 0.5948
C23 C 0.485(6) 0.106(3) 0.4527(16)
H51 H 0.5295 0.1932 0.4382
H52 H 0.3616 0.0704 0.4081
C24 C 0.508(6) 0.310(2) 0.633(2)
H53 H 0.4338 0.3427 0.6567
H54 H 0.5000 0.3274 0.5491
N10 N 0.710(7) 0.365(3) 0.8483(15)
H55 H 0.6256 0.3857 0.8691
H56 H 0.6895 0.2771 0.8610
C25 C 0.677(6) 0.372(3) 0.7156(17)
H57 H 0.7480 0.3365 0.6913
H58 H 0.7162 0.4604 0.7047
H60 H 0.2214 0.3825 0.0029
H66 H 0.2778 0.1458 0.0075
Cd4_4 Cd 1.0000 0.5000 1.0000
N11 N 0.103(5) 0.357(2) 0.9474(11)
H59 H 0.0384 0.2751 0.9653
C27 C 0.106(6) 0.227(2) 0.7774(15)
H63 H 0.2197 0.2285 0.8254
H64 H 0.0987 0.2295 0.6911
N12 N 0.024(4) 0.0930(17) 0.9116(10)
C28 C 0.174(4) 0.069(2) 0.9835(15)
H65 H 0.1882 0.0051 0.9375
C29 C 0.097(7) 0.340(2) 0.8206(15)
H67 H 0.1912 0.4118 0.8121
N1 N 0.036(6) 0.4104(19) 0.4284(14)
C1 C 0.440(6) 0.963(2) 0.5951(15)
H3 H 0.4590 0.9528 0.6822
H4 H 0.3170 0.9297 0.5491
C3 C 0.175(9) 0.505(3) 0.5325(16)
H9 H 0.2806 0.5341 0.5153
H10 H 0.1941 0.4659 0.6084
H11 H 0.0332 0.1647 0.2970
H14 H 0.1140 0.3147 0.1864
N4 N 0.480(6) 0.897(2) 0.4165(13)
C6 C 0.056(7) 0.298(2) 0.4127(14)
H15 H 0.1148 0.2683 0.4810
C7 C 0.017(6) 0.892(2) 0.2170(16)
H16 H 0.1323 0.8927 0.2526
H17 H 0.0113 0.9601 0.2633
C8 C 0.548(6) 0.822(2) 0.363(2)
H18 H 0.5247 0.8342 0.2765
H19 H 0.6723 0.8579 0.4052
H25 H 0.0091 0.6551 0.2351
C13 C 0.515(6) 0.894(3) 0.5473(16)
H28 H 0.4705 0.8068 0.5618
H29 H 0.6384 0.9296 0.5919
C14 C 0.492(6) 0.690(2) 0.367(2)
H30 H 0.5662 0.6573 0.3433
H31 H 0.5000 0.6726 0.4509
N6 N 0.290(7) 0.635(3) 0.1517(15)
H32 H 0.3744 0.6143 0.1309
H33 H 0.3105 0.7229 0.1390
C15 C 0.323(6) 0.628(3) 0.2844(17)
H34 H 0.2520 0.6635 0.3087
H35 H 0.2838 0.5396 0.2953
N8 N 0.076(5) 0.6180(19) 0.8461(12)
H36 H 0.0331 0.5609 0.7692
H37 H 0.2001 0.6567 0.8729
C16 C 0.128(6) 0.616(2) 0.5510(19)
H38 H 0.1242 0.6590 0.4781
H39 H 0.2209 0.6742 0.6221
C18 C 0.015(6) 0.771(2) 0.7094(13)
H43 H 0.1371 0.8167 0.7256
C19 C 0.005(6) 0.720(2) 0.8202(14)
H44 H 0.0688 0.7878 0.8903
H71 H 0.176009 0.349706 0.398257
C26 C 0.983(6) 0.108(2) 0.7830(16)
H61 H 0.8677 0.1073 0.7474
H62 H 0.9887 0.0399 0.7367
H68 H 0.9909 0.3449 0.7649
N2 N 0.924(5) 0.3820(19) 0.1539(12)
H1 H 0.9669 0.4391 0.2308
H2 H 0.7999 0.3433 0.1271
N3 N 0.897(5) 0.643(2) 0.0526(11)
H5 H 0.9616 0.7249 0.0347
C2 C 0.872(6) 0.384(2) 0.4490(19)
H7 H 0.8758 0.3410 0.5219
H8 H 0.7791 0.3258 0.3779
C4 C 0.985(6) 0.229(2) 0.2906(13)
H12 H 0.8629 0.1833 0.2744
C5 C 0.995(6) 0.280(2) 0.1798(14)
H13 H 0.9312 0.2122 0.1097
C9 C 0.894(6) 0.773(2) 0.2226(15)
H20 H 0.7803 0.7715 0.1746
H21 H 0.9013 0.7705 0.3089
N5 N 0.976(4) 0.9070(17) 0.0884(10)
C10 C 0.826(4) 0.931(2) 0.0165(15)
H22 H 0.8118 0.9949 0.0625
C11 C 0.903(7) 0.660(2) 0.1794(15)
H24 H 0.8088 0.5882 0.1879
N7 N 0.964(6) 0.5896(19) 0.5716(14)
C17 C 0.825(9) 0.495(3) 0.4675(16)
H40 H 0.7194 0.4659 0.4847
H41 H 0.8059 0.5341 0.3916
H42 H 0.9668 0.8353 0.7030
H45 H 0.8860 0.6853 0.8136
C20 C 0.944(7) 0.702(2) 0.5873(14)
H46 H 0.8852 0.7317 0.5190
H72 H 0.823991 0.650294 0.601743
H6 H 0.7786 0.6175 0.9971
H23 H 0.7222 0.8542 0.9925
C30 C 0.872(5) 0.981(2) 0.8959(19)
H69 H 0.7743 0.9960 0.8398
H70 H 0.8813 0.9125 0.8530
loop_
_geom_bond_atom_site_label_1
_geom_bond_atom_site_label_2
_geom_bond_site_symmetry_1
_geom_bond_site_symmetry_2
H26 C12 1_555 1_555
H27 C12 1_555 1_555
H47 C21 1_555 1_555
H48 C21 1_555 1_555
C22 N9 1_555 1_555
H49 C22 1_555 1_555
H50 C22 1_555 1_555
C23 C21 1_555 1_555
H51 C23 1_555 1_555
H52 C23 1_555 1_555
C24 C22 1_555 1_555
H53 C24 1_555 1_555
H54 C24 1_555 1_555
N10 H55 1_555 1_555
H56 N10 1_555 1_555
C25 C24 1_555 1_555
H57 C25 1_555 1_555
H58 C25 1_555 1_555
Cd4_4 N10 1_555 1_555
N9 C23 1_555 1_555
N10 C25 1_555 1_555
N11 H59 1_555 1_555
H63 C27 1_555 1_555
H64 C27 1_555 1_555
H65 C28 1_555 1_555
C29 N11 1_555 1_555
H67 C29 1_555 1_555
Cd4_2 N11 1_555 1_555
C27 C29 1_555 1_555
N12 C28 1_555 1_555
C1 H3 1_555 1_555
H4 C1 1_555 1_555
C3 N1 1_555 1_555
H9 C3 1_555 1_555
H10 C3 1_555 1_555
N4 C8 1_555 1_555
C6 N1 1_555 1_555
H15 C6 1_555 1_555
C7 H16 1_555 1_555
H17 C7 1_555 1_555
C8 H18 1_555 1_555
H19 C8 1_555 1_555
C13 C1 1_555 1_555
H28 C13 1_555 1_555
H29 C13 1_555 1_555
C14 C8 1_555 1_555
H30 C14 1_555 1_555
H31 C14 1_555 1_555
N6 Cd4 1_555 1_555
H32 N6 1_555 1_555
H33 N6 1_555 1_555
C15 C14 1_555 1_555
H34 C15 1_555 1_555
H35 C15 1_555 1_555
N8 H36 1_555 1_555
H37 N8 1_555 1_555
C16 C3 1_555 1_555
H38 C16 1_555 1_555
H39 C16 1_555 1_555
H43 C18 1_555 1_555
C19 N8 1_555 1_555
H44 C19 1_555 1_555
Cd4_2 N8 1_555 1_555
N4 C13 1_555 1_555
N6 C15 1_555 1_555
C18 C19 1_555 1_555
C6 H71 1_555 1_555
C26 H61 1_555 1_555
H62 C26 1_555 1_555
Cd4_3 N2 1_555 1_555
N2 H1 1_555 1_555
H2 N2 1_555 1_555
N3 Cd4_3 1_555 1_555
H5 N3 1_555 1_555
C2 H7 1_555 1_555
H8 C2 1_555 1_555
H12 C4 1_555 1_555
C5 N2 1_555 1_555
H13 C5 1_555 1_555
H20 C9 1_555 1_555
H21 C9 1_555 1_555
C10 N5 1_555 1_555
H22 C10 1_555 1_555
C11 N3 1_555 1_555
H24 C11 1_555 1_555
C17 C2 1_555 1_555
H40 C17 1_555 1_555
H41 C17 1_555 1_555
C20 N7 1_555 1_555
H46 C20 1_555 1_555
C4 C5 1_555 1_555
C9 C11 1_555 1_555
N7 C17 1_555 1_555
C20 H72 1_555 1_555
H69 C30 1_555 1_555
H70 C30 1_555 1_555

#END
