
###############################################################################
#
# This file contains modified crystal structure data generated from the
# MOF subset of the Cambridge Structural Database (CSD) v543 
# hosted by the Cambridge Crystallographic Data Centre (CCDC).
#
# This work is licensed under the Creative Commons
# Attribution-NonCommercial-ShareAlike 4.0 International License.
# To view a copy of this license, visit
# http://creativecommons.org/licenses/by-nc-sa/4.0/
# or send a letter to
# Creative Commons, PO Box 1866, Mountain View, CA 94042, USA.
#
# CIF created using the CSD Python API on 29 September 2022
# The structure has been converted into the P1 space group
# The structure has a 3D framework
# The original CSD entry ROVVOQ05 is in the triclinic crystal system
# The framework has been calculated to contain at least 10.0% void space
# The void calculation uses a probe of radius 1.32A, grid spacing 0.4
#
###############################################################################

data_ROVVOQ05
_chemical_formula_moiety         '(C32 H72 Cd3 N12)n'
_symmetry_cell_setting           triclinic
_symmetry_space_group_name_H-M   'P 1'
_symmetry_Int_Tables_number      1
_space_group_name_Hall           'P 1'
loop_
_symmetry_equiv_pos_site_id
_symmetry_equiv_pos_as_xyz
1 x,y,z
_cell_length_a                   8.871(3)
_cell_length_b                   11.4892(13)
_cell_length_c                   11.542(2)
_cell_angle_alpha                90.659(13)
_cell_angle_beta                 109.98(3)
_cell_angle_gamma                109.42(2)
_cell_volume                     1032.23
loop_
_atom_site_label
_atom_site_type_symbol
_atom_site_fract_x
_atom_site_fract_y
_atom_site_fract_z
Cd4 Cd -0.0000 0.5000 -0.0000
Cd4_2 Cd -0.0000 0.5000 1.0000
Cd4_3 Cd 1.0000 0.5000 -0.0000
C7 C 0.171(5) 0.0337(12) 0.0016(17)
H18 H 0.2759 0.0156 0.0303
C16 C 0.515(5) 0.0471(14) 0.392(2)
H37 H 0.4559 0.0539 0.3062
H38 H 0.6356 0.0977 0.4151
N7 N 0.729(6) 0.3516(15) 0.875(2)
H39 H 0.7114 0.3670 0.7894
H40 H 0.6438 0.3730 0.8962
C17 C 0.431(6) 0.129(2) 0.671(2)
H41 H 0.4492 0.2149 0.6565
H42 H 0.3076 0.0845 0.6329
N8 N 0.502(4) 0.0832(12) 0.5971(16)
C18 C 0.447(5) 0.0936(15) 0.4684(18)
H43 H 0.4716 0.1814 0.4609
H44 H 0.3236 0.0525 0.4333
C19 C 0.681(8) 0.2128(19) 0.872(3)
H45 H 0.7426 0.1847 0.8302
H46 H 0.7176 0.1952 0.9572
C20 C 0.471(7) 0.131(2) 0.802(2)
H47 H 0.4044 0.1695 0.8289
H48 H 0.4449 0.0467 0.8224
N11 N 0.061(4) 0.3496(11) 0.1150(15)
H61 H 0.1759 0.3584 0.1200
C26 C 0.061(5) 0.3243(13) 0.2340(18)
H64 H 0.1655 0.3855 0.2926
C29 C 0.048(5) 0.2111(11) 0.2813(17)
H69 H 0.1639 0.2120 0.3202
H70 H 0.0040 0.2123 0.3476
C30 C 0.124(5) 0.056(2) 0.114(2)
H71 H 0.2109 0.1325 0.1653
Cd4_4 Cd 1.0000 0.5000 1.0000
H17 H 0.1924 0.1091 0.9631
C1 C 0.485(5) 0.9529(14) 0.608(2)
H1 H 0.5441 0.9461 0.6938
H2 H 0.3644 0.9023 0.5849
N1 N 0.271(6) 0.6484(15) 0.125(2)
H3 H 0.2886 0.6330 0.2106
H4 H 0.3562 0.6270 0.1038
H10 H 0.0567 0.7135 0.1880
C5 C 0.569(6) 0.871(2) 0.329(2)
H13 H 0.5508 0.7851 0.3435
H14 H 0.6924 0.9155 0.3671
C6 C -0.000(5) 0.7163(12) 0.3862(18)
H15 H 0.1151 0.7586 0.3876
N4 N 0.498(4) 0.9168(12) 0.4029(16)
C8 C 0.553(5) 0.9064(15) 0.5316(18)
H21 H 0.5284 0.8186 0.5391
H22 H 0.6764 0.9475 0.5667
C11 C 0.319(8) 0.7872(19) 0.128(3)
H27 H 0.2574 0.8153 0.1698
H28 H 0.2824 0.8048 0.0428
C13 C 0.114(4) 0.6004(17) 0.514(2)
H31 H 0.0964 0.6406 0.5798
H32 H 0.2153 0.6587 0.5040
C14 C 0.529(7) 0.869(2) 0.198(2)
H33 H 0.5956 0.8305 0.1711
H34 H 0.5551 0.9533 0.1776
N9 N 0.024(4) 0.4083(10) 0.5952(17)
C21 C 0.168(4) 0.4796(14) 0.5697(18)
H49 H 0.2707 0.5073 0.6446
H50 H 0.1864 0.4332 0.5083
C22 C 0.068(6) 0.3179(14) 0.839(2)
H51 H 0.1129 0.2814 0.9119
C23 C -0.000(5) 0.2837(12) 0.6138(18)
H54 H 0.0138 0.2411 0.5470
N10 N 0.135(5) 0.4548(11) 0.8693(17)
H55 H 0.2584 0.4859 0.9120
H56 H 0.1073 0.4931 0.7941
C24 C 0.122(5) 0.2790(14) 0.7300(18)
H57 H 0.1248 0.1954 0.7340
H58 H 0.2358 0.3358 0.7394
H72 H 0.1301 0.9887 0.1626
H8 H 0.0144 0.7282 0.9392
H11 H 0.0329 0.6544 0.7581
C9 C 0.053(5) 0.9086(12) 0.7964(18)
H23 H 0.1729 0.9218 0.8131
H24 H 0.0266 0.9716 0.7466
N6 N 0.040(4) 0.9338(14) 0.9113(16)
H62 H 0.9856 0.2718 0.0608
H63 H 0.9671 0.3456 0.2419
C28 C 0.947(5) 0.0914(12) 0.2036(18)
H67 H 0.8271 0.0782 0.1869
H68 H 0.9734 0.0284 0.2534
N12 N 0.960(4) 0.0662(14) 0.0887(16)
H36 H 0.8699 0.0113 0.8374
N2 N 0.976(4) 0.5917(10) 0.4048(17)
C2 C 0.832(4) 0.5204(14) 0.4303(18)
H5 H 0.7293 0.4927 0.3554
H6 H 0.8136 0.5668 0.4917
C3 C 0.932(6) 0.6821(14) 0.161(2)
H9 H 0.8871 0.7186 0.0881
C6_2 C 1.000(5) 0.7163(12) 0.3862(18)
H16 H 0.9862 0.7589 0.4530
N5 N 0.865(5) 0.5452(11) 0.1307(17)
H19 H 0.7416 0.5141 0.0880
H20 H 0.8927 0.5069 0.2059
C12 C 0.878(5) 0.7210(14) 0.2700(18)
H29 H 0.8752 0.8046 0.2660
H30 H 0.7642 0.6642 0.2606
H52 H 0.9433 0.2865 0.8120
C23_2 C 1.000(5) 0.2837(12) 0.6138(18)
H53 H 0.8849 0.2414 0.6124
C25 C 0.886(4) 0.3996(17) 0.486(2)
H59 H 0.9036 0.3594 0.4202
H60 H 0.7847 0.3413 0.4960
H65 H 0.8076 0.8909 0.0369
N3 N 0.939(4) 0.6504(11) 0.8850(15)
H7 H 0.8241 0.6416 0.8800
C4 C 0.939(5) 0.6757(13) 0.7660(18)
H12 H 0.8345 0.6145 0.7074
C10 C 0.952(5) 0.7889(11) 0.7187(17)
H25 H 0.8361 0.7880 0.6798
H26 H 0.9960 0.7877 0.6524
C15 C 0.876(5) 0.944(2) 0.886(2)
H35 H 0.7891 0.8675 0.8347
C27 C 0.829(5) 0.9663(12) 0.9984(17)
H66 H 0.7241 0.9844 0.9697
loop_
_geom_bond_atom_site_label_1
_geom_bond_atom_site_label_2
_geom_bond_site_symmetry_1
_geom_bond_site_symmetry_2
H18 C7 1_555 1_555
H37 C16 1_555 1_555
H38 C16 1_555 1_555
N7 H39 1_555 1_555
H40 N7 1_555 1_555
C17 H41 1_555 1_555
H42 C17 1_555 1_555
C18 C16 1_555 1_555
H43 C18 1_555 1_555
H44 C18 1_555 1_555
C19 N7 1_555 1_555
H45 C19 1_555 1_555
H46 C19 1_555 1_555
C20 C17 1_555 1_555
H47 C20 1_555 1_555
H48 C20 1_555 1_555
N11 H61 1_555 1_555
C26 N11 1_555 1_555
H64 C26 1_555 1_555
C29 C26 1_555 1_555
H69 C29 1_555 1_555
H70 C29 1_555 1_555
C30 C7 1_555 1_555
H71 C30 1_555 1_555
Cd4 N11 1_555 1_555
Cd4_4 N7 1_555 1_555
C17 N8 1_555 1_555
N8 C18 1_555 1_555
C19 C20 1_555 1_555
Cd4 N1 1_555 1_555
C1 H1 1_555 1_555
H2 C1 1_555 1_555
N1 H3 1_555 1_555
H4 N1 1_555 1_555
C5 H13 1_555 1_555
H14 C5 1_555 1_555
H15 C6 1_555 1_555
N4 C5 1_555 1_555
C8 C1 1_555 1_555
H21 C8 1_555 1_555
H22 C8 1_555 1_555
C11 N1 1_555 1_555
H27 C11 1_555 1_555
H28 C11 1_555 1_555
H31 C13 1_555 1_555
H32 C13 1_555 1_555
C14 C5 1_555 1_555
H33 C14 1_555 1_555
H34 C14 1_555 1_555
N9 C21 1_555 1_555
C21 C13 1_555 1_555
H49 C21 1_555 1_555
H50 C21 1_555 1_555
C22 H51 1_555 1_555
C23 N9 1_555 1_555
H54 C23 1_555 1_555
N10 C22 1_555 1_555
H55 N10 1_555 1_555
H56 N10 1_555 1_555
C24 C22 1_555 1_555
H57 C24 1_555 1_555
H58 C24 1_555 1_555
Cd4_2 N10 1_555 1_555
N4 C8 1_555 1_555
C11 C14 1_555 1_555
C23 C24 1_555 1_555
C9 H23 1_555 1_555
H24 C9 1_555 1_555
C9 N6 1_555 1_555
C28 H67 1_555 1_555
H68 C28 1_555 1_555
C28 N12 1_555 1_555
N2 C2 1_555 1_555
C2 H5 1_555 1_555
H6 C2 1_555 1_555
C3 H9 1_555 1_555
C6_2 N2 1_555 1_555
H16 C6_2 1_555 1_555
N5 Cd4_3 1_555 1_555
H19 N5 1_555 1_555
H20 N5 1_555 1_555
C12 C3 1_555 1_555
H29 C12 1_555 1_555
H30 C12 1_555 1_555
H53 C23_2 1_555 1_555
C25 C2 1_555 1_555
H59 C25 1_555 1_555
H60 C25 1_555 1_555
C3 N5 1_555 1_555
C6_2 C12 1_555 1_555
N3 Cd4_4 1_555 1_555
H7 N3 1_555 1_555
C4 N3 1_555 1_555
H12 C4 1_555 1_555
C10 C4 1_555 1_555
H25 C10 1_555 1_555
H26 C10 1_555 1_555
H35 C15 1_555 1_555
C27 C15 1_555 1_555
H66 C27 1_555 1_555

#END
