
###############################################################################
#
# This file contains modified crystal structure data generated from the
# MOF subset of the Cambridge Structural Database (CSD) v543 
# hosted by the Cambridge Crystallographic Data Centre (CCDC).
#
# This work is licensed under the Creative Commons
# Attribution-NonCommercial-ShareAlike 4.0 International License.
# To view a copy of this license, visit
# http://creativecommons.org/licenses/by-nc-sa/4.0/
# or send a letter to
# Creative Commons, PO Box 1866, Mountain View, CA 94042, USA.
#
# CIF created using the CSD Python API on 29 September 2022
# The structure has been converted into the P1 space group
# The structure has a 3D framework
# The original CSD entry ROVVOQ03 is in the triclinic crystal system
# The framework has been calculated to contain at least 10.0% void space
# The void calculation uses a probe of radius 1.32A, grid spacing 0.4
#
###############################################################################

data_ROVVOQ03
_chemical_formula_moiety         '(C30 H72 Cd1 N12)n'
_symmetry_cell_setting           triclinic
_symmetry_space_group_name_H-M   'P 1'
_symmetry_Int_Tables_number      1
_space_group_name_Hall           'P 1'
loop_
_symmetry_equiv_pos_site_id
_symmetry_equiv_pos_as_xyz
1 x,y,z
_cell_length_a                   9.8804(12)
_cell_length_b                   10.8484(11)
_cell_length_c                   11.4066(7)
_cell_angle_alpha                81.259(7)
_cell_angle_beta                 75.909(8)
_cell_angle_gamma                71.529(10)
_cell_volume                     1121.03
loop_
_atom_site_label
_atom_site_type_symbol
_atom_site_fract_x
_atom_site_fract_y
_atom_site_fract_z
C11 C 0.109(3) 0.0479(19) 0.0283(18)
H27 H 0.2109 0.0415 0.0186
H28 H 0.0499 0.1242 0.0711
C29 C 0.069(3) 0.056(2) 0.9023(18)
H70 H 0.0913 0.1309 0.8531
Cd4 Cd 0.5000 0.5000 0.0000
N1 N 0.633(2) 0.4572(14) 0.1526(11)
H1 H 0.6870 0.5209 0.1396
H2 H 0.5647 0.4715 0.2296
N2 N 0.600(2) 0.4071(11) 0.4182(11)
N3 N 0.3701(18) 0.3561(11) 0.1122(10)
H3 H 0.2716 0.3950 0.0988
H4 H 0.4093 0.2782 0.0685
N4 N 0.400(2) 0.1115(14) 0.4497(12)
C1 C 0.630(3) 0.5102(16) 0.4540(15)
H5 H 0.7009 0.5377 0.3890
H6 H 0.6749 0.4793 0.5238
C2 C 0.497(2) 0.3752(15) 0.5146(13)
H7 H 0.5410 0.3413 0.5846
H8 H 0.4647 0.3075 0.4932
C3 C 0.728(3) 0.2950(18) 0.3856(15)
H9 H 0.7881 0.2791 0.4451
H10 H 0.6948 0.2189 0.3906
C4 C 0.488(3) 0.0021(18) 0.3825(14)
H12 H 0.5171 0.0347 0.2991
C5 C 0.389(3) 0.0760(17) 0.5804(14)
H13 H 0.3559 0.1559 0.6210
H14 H 0.3131 0.0325 0.6080
N5 N 0.342(3) 0.6901(14) 0.0957(13)
H15 H 0.4022 0.7472 0.0892
H16 H 0.2733 0.7321 0.0435
C6 C 0.350(3) 0.3062(19) 0.2421(16)
H17 H 0.4462 0.2608 0.2581
H18 H 0.3113 0.3815 0.2895
C7 C 0.815(3) 0.3082(19) 0.2696(16)
H19 H 0.8983 0.2308 0.2589
H20 H 0.8519 0.3819 0.2656
N6 N 0.078(2) 0.9338(13) 0.0918(11)
C8 C 0.243(3) 0.173(2) 0.4277(16)
H21 H 0.1917 0.2455 0.4777
H22 H 0.1899 0.1093 0.4469
C9 C 0.148(3) 0.7975(15) 0.2793(14)
H23 H 0.1804 0.8081 0.3498
H24 H 0.0602 0.7699 0.3072
C10 C 0.264(4) 0.696(2) 0.2058(19)
H25 H 0.3374 0.6643 0.2551
H26 H 0.2196 0.6267 0.2137
C13 C 0.115(3) 0.9260(15) 0.2027(14)
H31 H 0.0349 0.9873 0.2517
H32 H 0.1991 0.9576 0.1886
C14 C 0.737(3) 0.3278(17) 0.1635(14)
H33 H 0.8092 0.3138 0.0885
H34 H 0.6851 0.2629 0.1749
C15 C 0.261(3) 0.222(2) 0.2901(19)
H35 H 0.2992 0.1459 0.2439
H36 H 0.1639 0.2669 0.2750
N7 N 0.367(2) 0.5428(14) 0.8474(11)
H37 H 0.3130 0.4791 0.8604
H38 H 0.4353 0.5285 0.7704
N8 N 0.400(2) 0.5929(11) 0.5818(11)
C16 C 0.370(3) 0.4898(16) 0.5460(15)
H39 H 0.2991 0.4623 0.6110
H40 H 0.3251 0.5207 0.4762
C17 C 0.503(2) 0.6248(15) 0.4854(13)
H41 H 0.4590 0.6587 0.4154
H42 H 0.5353 0.6925 0.5068
C18 C 0.272(3) 0.7050(18) 0.6144(15)
H43 H 0.2119 0.7209 0.5549
H44 H 0.3052 0.7811 0.6094
C19 C 0.185(3) 0.6918(19) 0.7304(16)
H45 H 0.1017 0.7692 0.7411
H46 H 0.1481 0.6181 0.7344
C20 C 0.263(3) 0.6722(17) 0.8365(14)
H47 H 0.1908 0.6862 0.9115
H48 H 0.3149 0.7371 0.8251
H51 H 0.5730 0.0523 0.6175
Cd4_2 Cd 0.5000 0.5000 1.0000
H69 H 0.1298 0.9787 0.8617
N14 N 0.6299(18) 0.6439(11) 0.8878(10)
N15 N 0.658(3) 0.3099(14) 0.9043(13)
H11 H 0.4270 0.9477 0.3825
H49 H 0.7284 0.6050 0.9012
H50 H 0.5907 0.7218 0.9315
N10 N 0.600(2) 0.8885(14) 0.5503(12)
C21 C 0.512(3) 0.9979(18) 0.6175(14)
H52 H 0.4829 0.9653 0.7009
C22 C 0.611(3) 0.9240(17) 0.4196(14)
H53 H 0.6441 0.8441 0.3790
H54 H 0.6869 0.9675 0.3920
C23 C 0.650(3) 0.6938(19) 0.7579(16)
H55 H 0.5538 0.7392 0.7419
H56 H 0.6887 0.6185 0.7105
C24 C 0.757(3) 0.827(2) 0.5723(16)
H57 H 0.8083 0.7545 0.5223
H58 H 0.8101 0.8907 0.5531
C25 C 0.739(3) 0.778(2) 0.7099(19)
H59 H 0.7008 0.8541 0.7561
H60 H 0.8361 0.7331 0.7250
H29 H 0.8702 0.0213 0.1383
H61 H 0.5978 0.2528 0.9108
H62 H 0.7267 0.2679 0.9565
N12 N 0.922(2) 0.0662(13) 0.9082(11)
C26 C 0.852(3) 0.2025(15) 0.7207(14)
H63 H 0.8196 0.1919 0.6502
H64 H 0.9398 0.2301 0.6928
C27 C 0.736(4) 0.304(2) 0.7942(19)
H65 H 0.6626 0.3357 0.7449
H66 H 0.7804 0.3733 0.7863
C30 C 0.885(3) 0.0740(15) 0.7973(14)
H71 H 0.9651 0.0127 0.7483
H72 H 0.8009 0.0424 0.8114
C12 C 0.931(3) 0.944(2) 0.0977(18)
H30 H 0.9087 0.8691 0.1469
C28 C 0.891(3) 0.9521(19) 0.9717(18)
H67 H 0.7891 0.9585 0.9814
H68 H 0.9501 0.8758 0.9289
loop_
_geom_bond_atom_site_label_1
_geom_bond_atom_site_label_2
_geom_bond_site_symmetry_1
_geom_bond_site_symmetry_2
C11 H27 1_555 1_555
H28 C11 1_555 1_555
H70 C29 1_555 1_555
Cd4 N1 1_555 1_555
N1 H1 1_555 1_555
H2 N1 1_555 1_555
N2 C1 1_555 1_555
N3 Cd4 1_555 1_555
H3 N3 1_555 1_555
H4 N3 1_555 1_555
N4 C4 1_555 1_555
C1 H5 1_555 1_555
H6 C1 1_555 1_555
C2 N2 1_555 1_555
H7 C2 1_555 1_555
H8 C2 1_555 1_555
C3 N2 1_555 1_555
H9 C3 1_555 1_555
H10 C3 1_555 1_555
H12 C4 1_555 1_555
C5 N4 1_555 1_555
H13 C5 1_555 1_555
H14 C5 1_555 1_555
N5 Cd4 1_555 1_555
H15 N5 1_555 1_555
H16 N5 1_555 1_555
C6 N3 1_555 1_555
H17 C6 1_555 1_555
H18 C6 1_555 1_555
C7 C3 1_555 1_555
H19 C7 1_555 1_555
H20 C7 1_555 1_555
C8 N4 1_555 1_555
H21 C8 1_555 1_555
H22 C8 1_555 1_555
C9 H23 1_555 1_555
H24 C9 1_555 1_555
C10 N5 1_555 1_555
H25 C10 1_555 1_555
H26 C10 1_555 1_555
C13 N6 1_555 1_555
H31 C13 1_555 1_555
H32 C13 1_555 1_555
C14 N1 1_555 1_555
H33 C14 1_555 1_555
H34 C14 1_555 1_555
C15 C6 1_555 1_555
H35 C15 1_555 1_555
H36 C15 1_555 1_555
N7 H37 1_555 1_555
H38 N7 1_555 1_555
N8 C16 1_555 1_555
C16 C2 1_555 1_555
H39 C16 1_555 1_555
H40 C16 1_555 1_555
C17 C1 1_555 1_555
H41 C17 1_555 1_555
H42 C17 1_555 1_555
C18 N8 1_555 1_555
H43 C18 1_555 1_555
H44 C18 1_555 1_555
C19 C18 1_555 1_555
H45 C19 1_555 1_555
H46 C19 1_555 1_555
C20 N7 1_555 1_555
H47 C20 1_555 1_555
H48 C20 1_555 1_555
Cd4_2 N7 1_555 1_555
C7 C14 1_555 1_555
C8 C15 1_555 1_555
C9 C10 1_555 1_555
C9 C13 1_555 1_555
N8 C17 1_555 1_555
C19 C20 1_555 1_555
N14 Cd4_2 1_555 1_555
N15 Cd4_2 1_555 1_555
N14 H49 1_555 1_555
H50 N14 1_555 1_555
N10 C21 1_555 1_555
H52 C21 1_555 1_555
H53 C22 1_555 1_555
H54 C22 1_555 1_555
C23 N14 1_555 1_555
H55 C23 1_555 1_555
H56 C23 1_555 1_555
C24 N10 1_555 1_555
H57 C24 1_555 1_555
H58 C24 1_555 1_555
C25 C23 1_555 1_555
H59 C25 1_555 1_555
H60 C25 1_555 1_555
N10 C22 1_555 1_555
C24 C25 1_555 1_555
N15 H61 1_555 1_555
H62 N15 1_555 1_555
C26 H63 1_555 1_555
H64 C26 1_555 1_555
C27 N15 1_555 1_555
H65 C27 1_555 1_555
H66 C27 1_555 1_555
C30 N12 1_555 1_555
H71 C30 1_555 1_555
H72 C30 1_555 1_555
C26 C27 1_555 1_555
C26 C30 1_555 1_555
H30 C12 1_555 1_555
H67 C28 1_555 1_555
H68 C28 1_555 1_555

#END
