
###############################################################################
#
# This file contains modified crystal structure data generated from the
# MOF subset of the Cambridge Structural Database (CSD) v543 
# hosted by the Cambridge Crystallographic Data Centre (CCDC).
#
# This work is licensed under the Creative Commons
# Attribution-NonCommercial-ShareAlike 4.0 International License.
# To view a copy of this license, visit
# http://creativecommons.org/licenses/by-nc-sa/4.0/
# or send a letter to
# Creative Commons, PO Box 1866, Mountain View, CA 94042, USA.
#
# CIF created using the CSD Python API on 29 September 2022
# The structure has been converted into the P1 space group
# The structure has a 3D framework
# The original CSD entry ROVVOQ02 is in the triclinic crystal system
# The framework has been calculated to contain at least 10.0% void space
# The void calculation uses a probe of radius 1.32A, grid spacing 0.4
#
###############################################################################

data_ROVVOQ02
_chemical_formula_moiety         '(C30 H72 Cd1 N12)n'
_symmetry_cell_setting           triclinic
_symmetry_space_group_name_H-M   'P 1'
_symmetry_Int_Tables_number      1
_space_group_name_Hall           'P 1'
loop_
_symmetry_equiv_pos_site_id
_symmetry_equiv_pos_as_xyz
1 x,y,z
_cell_length_a                   10.0380(12)
_cell_length_b                   10.9503(9)
_cell_length_c                   11.5260(6)
_cell_angle_alpha                80.982(5)
_cell_angle_beta                 76.499(7)
_cell_angle_gamma                70.979(9)
_cell_volume                     1160.16
loop_
_atom_site_label
_atom_site_type_symbol
_atom_site_fract_x
_atom_site_fract_y
_atom_site_fract_z
C13 C 0.095(5) 0.036(3) 0.032(2)
H31 H 0.1926 0.0281 0.0354
H32 H 0.0329 0.1100 0.0744
C29 C 0.080(4) 0.070(3) 0.892(3)
H69 H 0.1453 0.0034 0.8427
H70 H 0.0950 0.1533 0.8609
Cd4 Cd 0.5000 0.5000 0.0000
N1 N 0.642(4) 0.468(2) 0.1454(18)
H1 H 0.6784 0.5415 0.1344
H2 H 0.5780 0.4713 0.2232
N2 N 0.600(3) 0.4088(16) 0.4192(15)
N3 N 0.348(4) 0.344(2) 0.1208(15)
H3 H 0.2490 0.3869 0.1144
H4 H 0.3797 0.2665 0.0784
N4 N 0.398(4) 0.112(2) 0.4485(17)
C1 C 0.495(3) 0.380(2) 0.5133(19)
H5 H 0.5386 0.3467 0.5831
H6 H 0.4669 0.3115 0.4916
C2 C 0.638(4) 0.510(2) 0.452(2)
H7 H 0.7023 0.5398 0.3848
H8 H 0.6880 0.4788 0.5183
C3 C 0.350(4) 0.304(3) 0.2394(16)
H9 H 0.3147 0.3789 0.2848
H10 H 0.4478 0.2589 0.2486
C4 C 0.766(5) 0.347(3) 0.151(2)
H11 H 0.8501 0.3613 0.0951
H12 H 0.7448 0.2769 0.1248
C5 C 0.716(4) 0.293(2) 0.3900(16)
H13 H 0.7757 0.2699 0.4501
H14 H 0.6771 0.2221 0.3920
H15 H 0.5021 0.0264 0.3013
C7 C 0.386(5) 0.078(2) 0.5751(18)
H17 H 0.3165 0.0303 0.6013
H18 H 0.3474 0.1578 0.6150
N5 N 0.343(4) 0.694(2) 0.0946(18)
H19 H 0.4022 0.7493 0.0915
H20 H 0.2750 0.7384 0.0427
C8 C 0.265(4) 0.220(3) 0.288(2)
H21 H 0.2988 0.1450 0.2416
H22 H 0.1661 0.2650 0.2792
C9 C 0.802(4) 0.308(3) 0.2762(17)
H23 H 0.8761 0.2247 0.2683
H24 H 0.8500 0.3683 0.2855
N6 N 0.063(4) 0.926(2) 0.0956(18)
C10 C 0.267(4) 0.177(3) 0.412(2)
H25 H 0.2213 0.2525 0.4565
H26 H 0.2067 0.1204 0.4363
C11 C 0.171(5) 0.804(3) 0.268(2)
H27 H 0.0984 0.7762 0.3280
H28 H 0.2283 0.8295 0.3118
C12 C 0.263(5) 0.692(3) 0.210(2)
H29 H 0.3311 0.6468 0.2616
H30 H 0.2035 0.6374 0.2128
C15 C 0.102(6) 0.912(3) 0.205(2)
H35 H 0.1592 0.9703 0.1962
H36 H 0.0132 0.9500 0.2593
N7 N 0.358(4) 0.532(2) 0.8546(18)
H37 H 0.3216 0.4585 0.8656
H38 H 0.4220 0.5287 0.7768
N8 N 0.400(3) 0.5912(16) 0.5808(15)
C16 C 0.505(3) 0.620(2) 0.4867(19)
H39 H 0.4614 0.6533 0.4169
H40 H 0.5331 0.6885 0.5084
C17 C 0.362(4) 0.490(2) 0.548(2)
H41 H 0.2977 0.4602 0.6152
H42 H 0.3120 0.5212 0.4817
C18 C 0.234(5) 0.653(3) 0.849(2)
H43 H 0.1499 0.6387 0.9049
H44 H 0.2552 0.7231 0.8752
C19 C 0.284(4) 0.707(2) 0.6100(16)
H45 H 0.2243 0.7301 0.5499
H46 H 0.3229 0.7779 0.6080
C20 C 0.198(4) 0.692(3) 0.7238(17)
H47 H 0.1239 0.7753 0.7317
H48 H 0.1500 0.6317 0.7145
C22 C 0.521(6) 0.001(3) 0.614(2)
H54 H 0.5809 0.0566 0.6054
Cd4_2 Cd 0.5000 0.5000 1.0000
N14 N 0.652(4) 0.656(2) 0.8792(15)
N15 N 0.657(4) 0.306(2) 0.9054(18)
C6 C 0.479(6) 0.999(3) 0.386(2)
H16 H 0.4191 0.9434 0.3946
H49 H 0.7510 0.6131 0.8856
H50 H 0.6203 0.7335 0.9216
N10 N 0.602(4) 0.888(2) 0.5515(17)
C21 C 0.650(4) 0.696(3) 0.7606(16)
H51 H 0.6853 0.6211 0.7152
H52 H 0.5522 0.7411 0.7514
H53 H 0.4979 0.9736 0.6987
C23 C 0.614(5) 0.922(2) 0.4249(18)
H55 H 0.6835 0.9697 0.3987
H56 H 0.6526 0.8422 0.3850
C24 C 0.735(4) 0.780(3) 0.712(2)
H57 H 0.7012 0.8550 0.7584
H58 H 0.8339 0.7350 0.7208
C25 C 0.733(4) 0.823(3) 0.588(2)
H59 H 0.7787 0.7475 0.5435
H60 H 0.7933 0.8796 0.5637
H61 H 0.5978 0.2507 0.9085
H62 H 0.7250 0.2616 0.9573
N12 N 0.937(4) 0.074(2) 0.9044(18)
C26 C 0.829(5) 0.196(3) 0.732(2)
H63 H 0.9016 0.2238 0.6720
H64 H 0.7717 0.1705 0.6882
C27 C 0.737(5) 0.308(3) 0.790(2)
H65 H 0.6689 0.3532 0.7384
H66 H 0.7965 0.3626 0.7872
C30 C 0.898(6) 0.088(3) 0.795(2)
H71 H 0.8408 0.0297 0.8038
H72 H 0.9868 0.0500 0.7407
C14 C 0.920(4) 0.930(3) 0.108(3)
H33 H 0.8547 0.9966 0.1573
H34 H 0.9050 0.8467 0.1391
C28 C 0.905(5) 0.964(3) 0.968(2)
H67 H 0.8074 0.9719 0.9646
H68 H 0.9671 0.8900 0.9256
loop_
_geom_bond_atom_site_label_1
_geom_bond_atom_site_label_2
_geom_bond_site_symmetry_1
_geom_bond_site_symmetry_2
C13 H31 1_555 1_555
H32 C13 1_555 1_555
H69 C29 1_555 1_555
H70 C29 1_555 1_555
Cd4 N1 1_555 1_555
N1 H1 1_555 1_555
H2 N1 1_555 1_555
N2 C1 1_555 1_555
N3 Cd4 1_555 1_555
H3 N3 1_555 1_555
H4 N3 1_555 1_555
C1 H5 1_555 1_555
H6 C1 1_555 1_555
C2 N2 1_555 1_555
H7 C2 1_555 1_555
H8 C2 1_555 1_555
C3 N3 1_555 1_555
H9 C3 1_555 1_555
H10 C3 1_555 1_555
C4 N1 1_555 1_555
H11 C4 1_555 1_555
H12 C4 1_555 1_555
C5 N2 1_555 1_555
H13 C5 1_555 1_555
H14 C5 1_555 1_555
C7 N4 1_555 1_555
H17 C7 1_555 1_555
H18 C7 1_555 1_555
N5 Cd4 1_555 1_555
H19 N5 1_555 1_555
H20 N5 1_555 1_555
C8 C3 1_555 1_555
H21 C8 1_555 1_555
H22 C8 1_555 1_555
C9 C4 1_555 1_555
H23 C9 1_555 1_555
H24 C9 1_555 1_555
C10 N4 1_555 1_555
H25 C10 1_555 1_555
H26 C10 1_555 1_555
C11 H27 1_555 1_555
H28 C11 1_555 1_555
C12 N5 1_555 1_555
H29 C12 1_555 1_555
H30 C12 1_555 1_555
C15 N6 1_555 1_555
H35 C15 1_555 1_555
H36 C15 1_555 1_555
N7 H37 1_555 1_555
H38 N7 1_555 1_555
N8 C16 1_555 1_555
C16 C2 1_555 1_555
H39 C16 1_555 1_555
H40 C16 1_555 1_555
C17 C1 1_555 1_555
H41 C17 1_555 1_555
H42 C17 1_555 1_555
C18 N7 1_555 1_555
H43 C18 1_555 1_555
H44 C18 1_555 1_555
C19 N8 1_555 1_555
H45 C19 1_555 1_555
H46 C19 1_555 1_555
C20 C18 1_555 1_555
H47 C20 1_555 1_555
H48 C20 1_555 1_555
C22 C7 1_555 1_555
H54 C22 1_555 1_555
Cd4_2 N7 1_555 1_555
C5 C9 1_555 1_555
C8 C10 1_555 1_555
C11 C12 1_555 1_555
C11 C15 1_555 1_555
N8 C17 1_555 1_555
C19 C20 1_555 1_555
N14 Cd4_2 1_555 1_555
N15 Cd4_2 1_555 1_555
H16 C6 1_555 1_555
N14 H49 1_555 1_555
H50 N14 1_555 1_555
C21 N14 1_555 1_555
H51 C21 1_555 1_555
H52 C21 1_555 1_555
C23 C6 1_555 1_555
H55 C23 1_555 1_555
H56 C23 1_555 1_555
C24 C21 1_555 1_555
H57 C24 1_555 1_555
H58 C24 1_555 1_555
C25 N10 1_555 1_555
H59 C25 1_555 1_555
H60 C25 1_555 1_555
N10 C23 1_555 1_555
C24 C25 1_555 1_555
N15 H61 1_555 1_555
H62 N15 1_555 1_555
C26 H63 1_555 1_555
H64 C26 1_555 1_555
C27 N15 1_555 1_555
H65 C27 1_555 1_555
H66 C27 1_555 1_555
C30 N12 1_555 1_555
H71 C30 1_555 1_555
H72 C30 1_555 1_555
C26 C27 1_555 1_555
C26 C30 1_555 1_555
H33 C14 1_555 1_555
H34 C14 1_555 1_555
H67 C28 1_555 1_555
H68 C28 1_555 1_555

#END
