
###############################################################################
#
# This file contains modified crystal structure data generated from the
# MOF subset of the Cambridge Structural Database (CSD) v543 
# hosted by the Cambridge Crystallographic Data Centre (CCDC).
#
# This work is licensed under the Creative Commons
# Attribution-NonCommercial-ShareAlike 4.0 International License.
# To view a copy of this license, visit
# http://creativecommons.org/licenses/by-nc-sa/4.0/
# or send a letter to
# Creative Commons, PO Box 1866, Mountain View, CA 94042, USA.
#
# CIF created using the CSD Python API on 29 September 2022
# The structure has been converted into the P1 space group
# The structure has a 3D framework
# The original CSD entry ROVVOQ01 is in the triclinic crystal system
# The framework has been calculated to contain at least 10.0% void space
# The void calculation uses a probe of radius 1.32A, grid spacing 0.4
# H atom positions have been added when not included in the experimental data
#
###############################################################################

data_ROVVOQ01
_chemical_formula_moiety         '(C30 H72 Cd1 N12)n'
_symmetry_cell_setting           triclinic
_symmetry_space_group_name_H-M   'P 1'
_symmetry_Int_Tables_number      1
_space_group_name_Hall           'P 1'
loop_
_symmetry_equiv_pos_site_id
_symmetry_equiv_pos_as_xyz
1 x,y,z
_cell_length_a                   9.874(4)
_cell_length_b                   10.765(3)
_cell_length_c                   11.3156(16)
_cell_angle_alpha                81.445(15)
_cell_angle_beta                 76.00(2)
_cell_angle_gamma                71.74(3)
_cell_volume                     1104.8
loop_
_atom_site_label
_atom_site_type_symbol
_atom_site_fract_x
_atom_site_fract_y
_atom_site_fract_z
C13 C 0.092(3) 0.0458(16) 0.0256(18)
H30 H 0.1897 0.0437 0.0313
H31 H 0.0253 0.1231 0.0636
C29 C 0.087(3) 0.063(2) 0.8984(18)
H68 H 0.1067 0.1437 0.8601
Cd4 Cd 0.5000 0.5000 0.0000
N1 N 0.646(2) 0.4624(10) 0.1470(10)
H1 H 0.7024 0.5250 0.1268
H2 H 0.5816 0.4818 0.2258
N2 N 0.603(2) 0.4093(9) 0.4162(11)
N3 N 0.354(3) 0.3571(12) 0.1133(11)
H3 H 0.2538 0.4042 0.1092
H4 H 0.3809 0.2819 0.0658
N4 N 0.396(3) 0.1081(10) 0.4503(10)
C1 C 0.496(2) 0.3767(13) 0.5122(14)
H5 H 0.5378 0.3435 0.5837
H6 H 0.4678 0.3065 0.4888
C2 C 0.635(2) 0.5152(12) 0.4547(13)
H7 H 0.7035 0.5462 0.3892
H8 H 0.6813 0.4842 0.5244
C3 C 0.351(3) 0.3022(16) 0.2443(14)
H9 H 0.4478 0.2461 0.2511
H10 H 0.3274 0.3741 0.2953
C4 C 0.746(3) 0.3334(14) 0.1605(13)
H11 H 0.8216 0.3197 0.0870
H12 H 0.6933 0.2692 0.1667
C5 C 0.732(3) 0.2930(12) 0.3837(12)
H13 H 0.7923 0.2765 0.4434
H14 H 0.6975 0.2167 0.3885
H15 H 0.4887 0.0181 0.2978
C7 C 0.373(3) 0.0720(12) 0.5864(11)
H17 H 0.3137 0.0124 0.6097
H18 H 0.3250 0.1499 0.6306
N5 N 0.347(2) 0.6933(10) 0.0963(11)
H19 H 0.4089 0.7477 0.0951
H20 H 0.2802 0.7398 0.0430
C8 C 0.244(3) 0.2250(18) 0.2916(14)
H21 H 0.2679 0.1536 0.2399
H22 H 0.1477 0.2815 0.2839
C9 C 0.816(3) 0.3080(13) 0.2676(12)
H23 H 0.8974 0.2291 0.2556
H24 H 0.8559 0.3798 0.2667
N6 N 0.060(3) 0.9330(12) 0.0969(10)
C10 C 0.236(3) 0.1669(14) 0.4250(13)
H25 H 0.1509 0.1663 0.4821
C11 C 0.214(3) 0.8313(12) 0.2568(13)
H26 H 0.1963 0.8258 0.3453
H27 H 0.2912 0.8729 0.2248
C12 C 0.263(3) 0.6917(13) 0.2127(13)
H28 H 0.3194 0.6302 0.2672
H29 H 0.1784 0.6642 0.2130
C15 C 0.088(3) 0.9066(13) 0.2175(14)
H34 H 0.0666 0.9922 0.2469
H35 H 0.0119 0.8694 0.2650
N7 N 0.354(2) 0.5376(10) 0.8530(10)
H36 H 0.2976 0.4750 0.8732
H37 H 0.4184 0.5182 0.7742
N8 N 0.397(2) 0.5907(9) 0.5838(11)
C16 C 0.504(2) 0.6233(13) 0.4878(14)
H38 H 0.4622 0.6565 0.4163
H39 H 0.5322 0.6935 0.5112
C17 C 0.365(2) 0.4848(12) 0.5453(13)
H40 H 0.2965 0.4538 0.6108
H41 H 0.3187 0.5158 0.4756
C18 C 0.254(3) 0.6666(14) 0.8395(13)
H42 H 0.1784 0.6803 0.9130
H43 H 0.3067 0.7308 0.8333
C19 C 0.268(3) 0.7070(12) 0.6163(12)
H44 H 0.2077 0.7235 0.5566
H45 H 0.3025 0.7833 0.6115
C20 C 0.184(3) 0.6920(13) 0.7324(12)
H46 H 0.1026 0.7709 0.7444
H47 H 0.1441 0.6202 0.7333
C22 C 0.523(3) 0.0068(13) 0.6152(13)
H53 H 0.5782 0.0697 0.5956
Cd4_2 Cd 0.5000 0.5000 1.0000
H71 H 0.241722 0.0724112 0.397342
H67 H 0.1553 0.9896 0.8548
N14 N 0.646(3) 0.6429(12) 0.8867(11)
N15 N 0.653(2) 0.3067(10) 0.9037(11)
C6 C 0.477(3) 0.9932(13) 0.3848(13)
H16 H 0.4218 0.9303 0.4044
H48 H 0.7462 0.5958 0.8908
H49 H 0.6191 0.7181 0.9342
N10 N 0.604(3) 0.8919(10) 0.5497(10)
C21 C 0.649(3) 0.6978(16) 0.7557(14)
H50 H 0.5522 0.7539 0.7489
H51 H 0.6726 0.6259 0.7047
H52 H 0.5113 0.9819 0.7022
C23 C 0.627(3) 0.9280(12) 0.4136(11)
H54 H 0.6863 0.9876 0.3903
H55 H 0.6750 0.8501 0.3694
C24 C 0.756(3) 0.7750(18) 0.7084(14)
H56 H 0.7321 0.8464 0.7601
H57 H 0.8523 0.7185 0.7161
C25 C 0.764(3) 0.8331(14) 0.5750(13)
H58 H 0.8491 0.8337 0.5179
H72 H 0.758278 0.927589 0.602658
H32 H 0.8447 0.0104 0.1452
H59 H 0.5911 0.2523 0.9049
H60 H 0.7198 0.2602 0.9570
N12 N 0.940(3) 0.0670(12) 0.9031(10)
C26 C 0.786(3) 0.1687(12) 0.7432(13)
H61 H 0.8037 0.1742 0.6547
H62 H 0.7088 0.1271 0.7752
C27 C 0.737(3) 0.3083(13) 0.7873(13)
H63 H 0.6806 0.3698 0.7328
H64 H 0.8216 0.3358 0.7870
C30 C 0.912(3) 0.0934(13) 0.7825(14)
H69 H 0.9334 0.0078 0.7531
H70 H 0.9881 0.1306 0.7350
C14 C 0.913(3) 0.937(2) 0.1016(18)
H33 H 0.8933 0.8563 0.1399
C28 C 0.908(3) 0.9542(16) 0.9744(18)
H65 H 0.8103 0.9563 0.9687
H66 H 0.9747 0.8769 0.9364
loop_
_geom_bond_atom_site_label_1
_geom_bond_atom_site_label_2
_geom_bond_site_symmetry_1
_geom_bond_site_symmetry_2
C13 H30 1_555 1_555
H31 C13 1_555 1_555
H68 C29 1_555 1_555
Cd4 N1 1_555 1_555
N1 H1 1_555 1_555
H2 N1 1_555 1_555
N2 C1 1_555 1_555
N3 Cd4 1_555 1_555
H3 N3 1_555 1_555
H4 N3 1_555 1_555
C1 H5 1_555 1_555
H6 C1 1_555 1_555
C2 N2 1_555 1_555
H7 C2 1_555 1_555
H8 C2 1_555 1_555
C3 N3 1_555 1_555
H9 C3 1_555 1_555
H10 C3 1_555 1_555
C4 N1 1_555 1_555
H11 C4 1_555 1_555
H12 C4 1_555 1_555
C5 N2 1_555 1_555
H13 C5 1_555 1_555
H14 C5 1_555 1_555
C7 N4 1_555 1_555
H17 C7 1_555 1_555
H18 C7 1_555 1_555
N5 Cd4 1_555 1_555
H19 N5 1_555 1_555
H20 N5 1_555 1_555
C8 C3 1_555 1_555
H21 C8 1_555 1_555
H22 C8 1_555 1_555
C9 C4 1_555 1_555
H23 C9 1_555 1_555
H24 C9 1_555 1_555
C10 N4 1_555 1_555
H25 C10 1_555 1_555
C11 H26 1_555 1_555
H27 C11 1_555 1_555
C12 N5 1_555 1_555
H28 C12 1_555 1_555
H29 C12 1_555 1_555
C15 N6 1_555 1_555
H34 C15 1_555 1_555
H35 C15 1_555 1_555
N7 H36 1_555 1_555
H37 N7 1_555 1_555
N8 C16 1_555 1_555
C16 C2 1_555 1_555
H38 C16 1_555 1_555
H39 C16 1_555 1_555
C17 C1 1_555 1_555
H40 C17 1_555 1_555
H41 C17 1_555 1_555
C18 N7 1_555 1_555
H42 C18 1_555 1_555
H43 C18 1_555 1_555
C19 N8 1_555 1_555
H44 C19 1_555 1_555
H45 C19 1_555 1_555
C20 C18 1_555 1_555
H46 C20 1_555 1_555
H47 C20 1_555 1_555
C22 C7 1_555 1_555
H53 C22 1_555 1_555
Cd4_2 N7 1_555 1_555
C5 C9 1_555 1_555
C8 C10 1_555 1_555
C11 C12 1_555 1_555
C11 C15 1_555 1_555
N8 C17 1_555 1_555
C19 C20 1_555 1_555
C10 H71 1_555 1_555
N14 Cd4_2 1_555 1_555
N15 Cd4_2 1_555 1_555
H16 C6 1_555 1_555
N14 H48 1_555 1_555
H49 N14 1_555 1_555
C21 N14 1_555 1_555
H50 C21 1_555 1_555
H51 C21 1_555 1_555
C23 C6 1_555 1_555
H54 C23 1_555 1_555
H55 C23 1_555 1_555
C24 C21 1_555 1_555
H56 C24 1_555 1_555
H57 C24 1_555 1_555
C25 N10 1_555 1_555
H58 C25 1_555 1_555
N10 C23 1_555 1_555
C24 C25 1_555 1_555
C25 H72 1_555 1_555
N15 H59 1_555 1_555
H60 N15 1_555 1_555
C26 H61 1_555 1_555
H62 C26 1_555 1_555
C27 N15 1_555 1_555
H63 C27 1_555 1_555
H64 C27 1_555 1_555
C30 N12 1_555 1_555
H69 C30 1_555 1_555
H70 C30 1_555 1_555
C26 C27 1_555 1_555
C26 C30 1_555 1_555
H33 C14 1_555 1_555
H65 C28 1_555 1_555
H66 C28 1_555 1_555

#END
