
###############################################################################
#
# This file contains modified crystal structure data generated from the
# MOF subset of the Cambridge Structural Database (CSD) v543 
# hosted by the Cambridge Crystallographic Data Centre (CCDC).
#
# This work is licensed under the Creative Commons
# Attribution-NonCommercial-ShareAlike 4.0 International License.
# To view a copy of this license, visit
# http://creativecommons.org/licenses/by-nc-sa/4.0/
# or send a letter to
# Creative Commons, PO Box 1866, Mountain View, CA 94042, USA.
#
# CIF created using the CSD Python API on 29 September 2022
# The structure has been converted into the P1 space group
# The structure has a 3D framework
# The original CSD entry RUBHOM is in the monoclinic crystal system
# The framework has been calculated to contain at least 10.0% void space
# The void calculation uses a probe of radius 1.32A, grid spacing 0.4
#
###############################################################################

data_RUBHOM
_chemical_formula_moiety         '(C56 H32 Ag4 La4 N8 O29)n'
_symmetry_cell_setting           triclinic
_symmetry_space_group_name_H-M   'P 1'
_symmetry_Int_Tables_number      1
_space_group_name_Hall           'P 1'
loop_
_symmetry_equiv_pos_site_id
_symmetry_equiv_pos_as_xyz
1 x,y,z
_cell_length_a                   9.2864(13)
_cell_length_b                   22.446(4)
_cell_length_c                   9.884(3)
_cell_angle_alpha                90
_cell_angle_beta                 116.564(18)
_cell_angle_gamma                90
_cell_volume                     1842.76
loop_
_atom_site_label
_atom_site_type_symbol
_atom_site_fract_x
_atom_site_fract_y
_atom_site_fract_z
C7 C 0.1093(7) 0.1355(3) 0.6406(7)
H5 H 0.1890 0.1597 0.7109
C11 C 0.0150(6) 0.0829(3) 0.4039(7)
H8 H 0.0301 0.0708 0.3211
N2 N 0.1242(6) 0.1182(2) 0.5135(7)
La4 La 0.35977(3) 0.008843(12) 0.11562(3)
Ag3 Ag 0.31779(6) 0.14654(2) 0.47450(8)
O19 O 0.1146(4) 0.06415(16) 0.0512(5)
C14 C 0.0074(4) 0.96648(19) 0.0080(5)
O8 O 0.1407(4) 0.94410(17) 0.0781(5)
C8 C 0.9869(8) 0.1195(3) 0.6675(7)
H6 H 0.9782 0.1303 0.7544
C9 C 0.8739(6) 0.0851(3) 0.5542(6)
H7 H 0.7834 0.0731 0.5643
C10 C 0.8879(6) 0.0664(2) 0.4192(6)
C12 C 0.7619(6) 0.0305(2) 0.2869(5)
O3 O 0.7913(5) 0.00655(18) 0.1826(5)
O4 O 0.6379(4) 0.0290(2) 0.2930(4)
H12 H 0.3573 0.2222 0.0103
N6 N 0.1242(6) 0.3818(2) 0.0135(7)
O10 O 0.3837(5) 0.11804(17) 0.0622(6)
O15 O 0.3818(4) 0.05519(18) 0.3728(4)
Ag2 Ag 0.31779(6) 0.35346(2) 0.97450(8)
C15 C 0.5758(8) 0.2933(3) 0.9087(9)
H9 H 0.5988 0.3319 0.8901
C16 C 0.6577(8) 0.2475(4) 0.8904(10)
H10 H 0.7380 0.2551 0.8608
C17 C 0.6265(8) 0.1892(3) 0.9143(8)
H11 H 0.6819 0.1576 0.8982
C18 C 0.5134(6) 0.1799(2) 0.9614(6)
C19 C 0.4361(6) 0.2284(2) 0.9782(7)
C20 C 0.4703(6) 0.1196(2) 0.9970(6)
C27 C 0.4751(6) 0.0334(2) 0.4981(4)
C28 C 0.9926(4) 0.03352(19) 0.9920(5)
N3 N 0.4640(6) 0.2843(2) 0.9522(7)
O9 O 0.5201(5) 0.07337(17) 0.9606(5)
O16 O 0.3818(4) 0.44481(18) 0.8728(4)
O17 O 0.5390(4) 0.05903(16) 0.6355(4)
O21 O 0.8593(4) 0.05590(17) 0.9219(5)
Ag1 Ag 0.68221(6) 0.64654(2) 0.02550(8)
C1 C 0.4242(8) 0.7067(3) 0.0913(9)
H1 H 0.4012 0.6681 0.1099
C2 C 0.3423(8) 0.7525(4) 0.1096(10)
H2 H 0.2620 0.7449 0.1392
C3 C 0.3735(8) 0.8108(3) 0.0857(8)
H3 H 0.3181 0.8424 0.1018
C4 C 0.4866(6) 0.8201(2) 0.0386(6)
C5 C 0.5639(6) 0.7716(2) 0.0218(7)
C6 C 0.5297(6) 0.8804(2) 0.0030(6)
N1 N 0.5360(6) 0.7157(2) 0.0478(7)
O1 O 0.4799(5) 0.92663(17) 0.0394(5)
O14 O 0.6182(4) 0.55519(18) 0.1272(4)
O18 O 0.4610(4) 0.94097(16) 0.3645(4)
La1 La 0.64023(3) 0.991157(12) 0.88438(3)
H4 H 0.6427 0.7778 0.9897
C13 C 0.5249(6) 0.9666(2) 0.5019(4)
O2 O 0.6163(5) 0.88196(17) 0.9378(6)
O5 O 0.6182(4) 0.94481(18) 0.6272(4)
O7 O 0.8854(4) 0.93585(16) 0.9488(5)
Ag4 Ag 0.68221(6) 0.85346(2) 0.52550(8)
C22 C 0.0131(8) 0.8805(3) 0.3325(7)
H14 H 0.0218 0.8697 0.2456
C23 C 0.1261(6) 0.9149(3) 0.4458(6)
H15 H 0.2166 0.9269 0.4357
C24 C 0.1121(6) 0.9336(2) 0.5808(6)
C26 C 0.2381(6) 0.9695(2) 0.7131(5)
N5 N 0.8758(6) 0.6182(2) 0.9865(7)
O11 O 0.2087(5) 0.99345(18) 0.8174(5)
O12 O 0.3621(4) 0.9710(2) 0.7070(4)
C21 C 0.8907(7) 0.8645(3) 0.3594(7)
H13 H 0.8110 0.8403 0.2891
C25 C 0.9850(6) 0.9171(3) 0.5961(7)
H16 H 0.9699 0.9292 0.6789
N4 N 0.8758(6) 0.8818(2) 0.4865(7)
C21_2 C 0.1093(7) 0.3645(3) 0.1406(7)
H13_2 H 0.1890 0.3403 0.2109
C25_2 C 0.0150(6) 0.4171(3) 0.9039(7)
H16_2 H 0.0301 0.4292 0.8211
O6 O 0.5390(4) 0.44097(16) 0.1355(4)
La3 La 0.64023(3) 0.508843(12) 0.38438(3)
C22_2 C 0.9869(8) 0.3805(3) 0.1675(7)
H14_2 H 0.9782 0.3697 0.2544
C23_2 C 0.8739(6) 0.4149(3) 0.0542(6)
H15_2 H 0.7834 0.4269 0.0643
C27_2 C 0.5249(6) 0.5334(2) 0.0019(4)
La1_2 La 0.35977(3) 0.491157(12) 0.61562(3)
C1_2 C 0.5758(8) 0.2067(3) 0.4087(9)
H1_2 H 0.5988 0.1681 0.3901
C2_2 C 0.6577(8) 0.2525(4) 0.3904(10)
H2_2 H 0.7380 0.2449 0.3608
C3_2 C 0.6265(8) 0.3108(3) 0.4143(8)
H3_2 H 0.6819 0.3424 0.3982
C4_2 C 0.5134(6) 0.3201(2) 0.4614(6)
C5_2 C 0.4361(6) 0.2716(2) 0.4782(7)
H4_2 H 0.3573 0.2778 0.5103
C6_2 C 0.4703(6) 0.3804(2) 0.4970(6)
C10_2 C 0.1121(6) 0.5664(2) 0.0808(6)
C12_2 C 0.2381(6) 0.5305(2) 0.2131(5)
C13_2 C 0.4751(6) 0.4666(2) 0.9981(4)
N1_2 N 0.4640(6) 0.2157(2) 0.4522(7)
O1_2 O 0.5201(5) 0.42663(17) 0.4606(5)
O2_2 O 0.3837(5) 0.38196(17) 0.5622(6)
O3_2 O 0.2087(5) 0.50655(18) 0.3174(5)
O4_2 O 0.3621(4) 0.5290(2) 0.2070(4)
O7_2 O 0.1146(4) 0.43585(16) 0.5512(5)
C15_2 C 0.4242(8) 0.7933(3) 0.5913(9)
H9_2 H 0.4012 0.8319 0.6099
C16_2 C 0.3423(8) 0.7475(4) 0.6096(10)
H10_2 H 0.2620 0.7551 0.6392
C17_2 C 0.3735(8) 0.6892(3) 0.5857(8)
H11_2 H 0.3181 0.6576 0.6018
C18_2 C 0.4866(6) 0.6799(2) 0.5386(6)
C19_2 C 0.5639(6) 0.7284(2) 0.5218(7)
H12_2 H 0.6427 0.7222 0.4897
C20_2 C 0.5297(6) 0.6196(2) 0.5030(6)
C24_2 C 0.8879(6) 0.4336(2) 0.9192(6)
C26_2 C 0.7619(6) 0.4695(2) 0.7869(5)
C28_2 C 0.0074(4) 0.53352(19) 0.5080(5)
N3_2 N 0.5360(6) 0.7843(2) 0.5478(7)
O9_2 O 0.4799(5) 0.57337(17) 0.5394(5)
O10_2 O 0.6163(5) 0.61804(17) 0.4378(6)
O11_2 O 0.7913(5) 0.49345(18) 0.6826(5)
O12_2 O 0.6379(4) 0.4710(2) 0.7930(4)
O17_2 O 0.4610(4) 0.55903(16) 0.8645(4)
O20 O 0.8854(4) 0.56415(16) 0.4488(5)
O21_2 O 0.1407(4) 0.55590(17) 0.5781(5)
O22 O 0.8593(4) 0.44410(17) 0.4219(5)
C8_2 C 0.0131(8) 0.6195(3) 0.8325(7)
H6_2 H 0.0218 0.6303 0.7456
C9_2 C 0.1261(6) 0.5851(3) 0.9458(6)
H7_2 H 0.2166 0.5731 0.9357
C11_2 C 0.9850(6) 0.5829(3) 0.0961(7)
H8_2 H 0.9699 0.5708 0.1789
C14_2 C 0.9926(4) 0.46648(19) 0.4920(5)
C7_2 C 0.8907(7) 0.6355(3) 0.8594(7)
H5_2 H 0.8110 0.6597 0.7891
loop_
_geom_bond_atom_site_label_1
_geom_bond_atom_site_label_2
_geom_bond_site_symmetry_1
_geom_bond_site_symmetry_2
C7 H5 1_555 1_555
H8 C11 1_555 1_555
N2 C7 1_555 1_555
Ag3 N2 1_555 1_555
O19 La4 1_555 1_555
C11 N2 1_555 1_555
O8 C14 1_555 1_555
H6 C8 1_555 1_555
C9 C8 1_555 1_555
H7 C9 1_555 1_555
C10 C9 1_555 1_555
C12 C10 1_555 1_555
O4 C12 1_555 1_555
O10 La4 1_555 1_555
O15 La4 1_555 1_555
C12 O3 1_555 1_555
O4 La4 1_555 1_555
Ag2 N3 1_555 1_555
Ag3 O15 1_555 1_555
C15 H9 1_555 1_555
C16 C15 1_555 1_555
H10 C16 1_555 1_555
C17 C16 1_555 1_555
H11 C17 1_555 1_555
C18 C17 1_555 1_555
C19 C18 1_555 1_555
C20 C18 1_555 1_555
N3 C15 1_555 1_555
O16 Ag2 1_555 1_555
C19 N3 1_555 1_555
C20 O9 1_555 1_555
C27 O15 1_555 1_555
C27 O17 1_555 1_555
C28 O21 1_555 1_555
Ag1 N1 1_555 1_555
C1 H1 1_555 1_555
C2 C1 1_555 1_555
H2 C2 1_555 1_555
C3 C2 1_555 1_555
H3 C3 1_555 1_555
C4 C3 1_555 1_555
C5 C4 1_555 1_555
C6 C4 1_555 1_555
N1 C1 1_555 1_555
O1 C6 1_555 1_555
O14 Ag1 1_555 1_555
C5 N1 1_555 1_555
C13 O5 1_555 1_555
O2 La1 1_555 1_555
O5 La1 1_555 1_555
O18 C13 1_555 1_555
O7 La1 1_555 1_555
Ag4 O5 1_555 1_555
H14 C22 1_555 1_555
C23 C22 1_555 1_555
H15 C23 1_555 1_555
C24 C23 1_555 1_555
C26 C24 1_555 1_555
O12 La1 1_555 1_555
C26 O11 1_555 1_555
C26 O12 1_555 1_555
Ag4 N4 1_555 1_555
C21 H13 1_555 1_555
H16 C25 1_555 1_555
N4 C21 1_555 1_555
C25 N4 1_555 1_555
C21_2 H13_2 1_555 1_555
N6 C21_2 1_555 1_555
H16_2 C25_2 1_555 1_555
La3 O6 1_555 1_555
H14_2 C22_2 1_555 1_555
C23_2 C22_2 1_555 1_555
H15_2 C23_2 1_555 1_555
O14 La3 1_555 1_555
C27_2 O14 1_555 1_555
La1_2 O1_2 1_555 1_555
Ag3 N1_2 1_555 1_555
C1_2 H1_2 1_555 1_555
C2_2 C1_2 1_555 1_555
H2_2 C2_2 1_555 1_555
C3_2 C2_2 1_555 1_555
H3_2 C3_2 1_555 1_555
C4_2 C3_2 1_555 1_555
C5_2 C4_2 1_555 1_555
H4_2 C5_2 1_555 1_555
C6_2 C4_2 1_555 1_555
C12_2 C10_2 1_555 1_555
C13_2 O16 1_555 1_555
N1_2 C1_2 1_555 1_555
O1_2 C6_2 1_555 1_555
O2_2 La1_2 1_555 1_555
O3_2 La1_2 1_555 1_555
O4_2 C12_2 1_555 1_555
O16 La1_2 1_555 1_555
O7_2 La1_2 1_555 1_555
La3 O1_2 1_555 1_555
Ag4 N3_2 1_555 1_555
C15_2 H9_2 1_555 1_555
C16_2 C15_2 1_555 1_555
H10_2 C16_2 1_555 1_555
C17_2 C16_2 1_555 1_555
H11_2 C17_2 1_555 1_555
C18_2 C17_2 1_555 1_555
C19_2 C18_2 1_555 1_555
H12_2 C19_2 1_555 1_555
C20_2 C18_2 1_555 1_555
C26_2 C24_2 1_555 1_555
N3_2 C15_2 1_555 1_555
O9_2 La1_2 1_555 1_555
O10_2 La3 1_555 1_555
O11_2 La3 1_555 1_555
O12_2 La1_2 1_555 1_555
O17_2 La1_2 1_555 1_555
O20 La3 1_555 1_555
O21_2 La1_2 1_555 1_555
O22 La3 1_555 1_555
C5_2 N1_2 1_555 1_555
C6_2 O2_2 1_555 1_555
C12_2 O3_2 1_555 1_555
O4_2 La3 1_555 1_555
La3 O9_2 1_555 1_555
C19_2 N3_2 1_555 1_555
C20_2 O9_2 1_555 1_555
C20_2 O10_2 1_555 1_555
C26_2 O11_2 1_555 1_555
C26_2 O12_2 1_555 1_555
C28_2 O21_2 1_555 1_555
H6_2 C8_2 1_555 1_555
C9_2 C8_2 1_555 1_555
H7_2 C9_2 1_555 1_555
H8_2 C11_2 1_555 1_555
O22 C14_2 1_555 1_555
C7_2 H5_2 1_555 1_555
N5 C7_2 1_555 1_555

#END
