
###############################################################################
#
# This file contains modified crystal structure data generated from the
# MOF subset of the Cambridge Structural Database (CSD) v543 
# hosted by the Cambridge Crystallographic Data Centre (CCDC).
#
# This work is licensed under the Creative Commons
# Attribution-NonCommercial-ShareAlike 4.0 International License.
# To view a copy of this license, visit
# http://creativecommons.org/licenses/by-nc-sa/4.0/
# or send a letter to
# Creative Commons, PO Box 1866, Mountain View, CA 94042, USA.
#
# CIF created using the CSD Python API on 29 September 2022
# The structure has been converted into the P1 space group
# The structure has a 3D framework
# The original CSD entry RUBTAK10 is in the hexagonal crystal system
# The framework has been calculated to contain at least 10.0% void space
# The void calculation uses a probe of radius 1.32A, grid spacing 0.4
#
###############################################################################

data_RUBTAK10
_chemical_formula_moiety         '(C132 H48 O61 Zr11)n'
_symmetry_cell_setting           triclinic
_symmetry_space_group_name_H-M   'P 1'
_symmetry_Int_Tables_number      1
_space_group_name_Hall           'P 1'
loop_
_symmetry_equiv_pos_site_id
_symmetry_equiv_pos_as_xyz
1 x,y,z
_cell_length_a                   14.6690(4)
_cell_length_b                   14.6690(4)
_cell_length_c                   26.8478(19)
_cell_angle_alpha                90
_cell_angle_beta                 90
_cell_angle_gamma                120
_cell_volume                     5003.11
loop_
_atom_site_label
_atom_site_type_symbol
_atom_site_fract_x
_atom_site_fract_y
_atom_site_fract_z
O2 O 0 -0.000 0.0866(16)
O31 O -0.000 -0 0.4134(16)
Zr14 Zr 0.07999(33) 0.1600(3) 0.05458(16)
Zr18 Zr 0.08001(14) 0.1600(3) 0.44542(16)
O2_2 O 0 1.000 0.0866(16)
H7 H 0.05(4) 0.80(4) 0.2050(15)
H8 H 0.05(4) 0.80(4) 0.2950(15)
O31_2 O -0.000 1 0.4134(16)
Zr10 Zr 0.08001(14) 0.92001(33) 0.05458(16)
Zr24 Zr 0.07999(33) 0.91999(14) 0.44542(16)
O2_3 O 1 -0.000 0.0866(16)
C2 C 0.597(3) 0.000 0.000
C3 C 0.699(3) 0.000 0.000
C9 C 0.403(3) 0.000 0.000
C10 C 0.301(3) 0.000 0.000
C20 C 0.21(3) 0.022(34) 0.2245(10)
C21 C 0.213(3) 0.1065(34) 0.199(2)
C22 C 0.196(3) 0.0979(34) 0.1454(19)
O13 O 0.17(3) 0.01(4) 0.124(4)
C28 C 0.21(3) 0.022(34) 0.2755(10)
C29 C 0.213(3) 0.1065(17) 0.301(2)
C30 C 0.196(3) 0.0981(17) 0.3546(19)
O17 O 0.17(3) 0.01(4) 0.376(4)
C31 C 0.21(3) 0.188(15) 0.2245(10)
O18 O 0.17(3) 0.16(2) 0.124(4)
H15 H 0.20(4) 0.25(2) 0.2050(15)
C32 C 0.21(3) 0.188(15) 0.2755(10)
O19 O 0.17(3) 0.16(2) 0.376(4)
H16 H 0.20(4) 0.25(2) 0.2950(15)
O31_3 O 1.000 -0 0.4134(16)
Zr12 Zr 0.1600(3) 0.08001(14) 0.55458(16)
Zr16 Zr 0.91999(14) 0.07999(33) 0.55458(16)
O36 O 0.1679(14) 0.0840(7) 0.4726(8)
O38 O 0.9160(7) 0.0839(16) 0.4726(8)
O40 O 0.9161(16) 0.0840(7) 0.0274(8)
O44 O 0.1679(14) 0.0839(16) 0.0274(8)
O56 O 0.84(2) 0.01(4) 0.376(4)
O60 O 0.84(2) 0.01(4) 0.124(4)
C2_2 C 0.597(3) -0.000 1.000
C3_2 C 0.699(3) -0.000 1.000
C7 C 0.5674(14) 0.0392(12) 0.9586(9)
O5 O 0.7580(32) 0.0350(12) 0.9629(10)
H3 H 0.6196(21) 0.0696(18) 0.9265(9)
C8 C 0.4718(7) 0.0392(12) 0.9586(9)
C9_2 C 0.403(3) -0.000 1.000
C10_2 C 0.301(3) -0.000 1.000
O6 O 0.277(3) 0.0350(12) 0.9629(10)
H4 H 0.4500(10) 0.0696(18) 0.9265(9)
Zr20 Zr 0.92001(33) 0.08001(14) 0.94542(16)
Zr26 Zr 0.1600(3) 0.07999(33) 0.94542(16)
Zr1 Zr 0.8400(3) 0.91999(14) 0.05458(16)
O2_4 O 1 1.000 0.0866(16)
C1 C 0.5282(7) 0.9608(12) 0.0414(9)
C2_3 C 0.597(3) 1.000 0.000
C3_3 C 0.699(3) 1.000 0.000
O3 O 0.723(3) 0.9650(12) 0.0371(10)
H1 H 0.5500(10) 0.9304(18) 0.0735(9)
C4 C 0.812(15) 0.79(3) 0.2245(10)
C5 C 0.8935(17) 0.787(3) 0.199(2)
C6 C 0.9019(17) 0.804(3) 0.1454(19)
O4 O 0.84(2) 0.83(3) 0.124(4)
H2 H 0.75(2) 0.80(4) 0.2050(15)
C9_3 C 0.403(3) 1.000 0.000
C10_3 C 0.301(3) 1.000 0.000
C11 C 0.4326(14) 0.9608(12) 0.0414(9)
O7 O 0.2420(32) 0.9650(12) 0.0371(10)
H5 H 0.3804(21) 0.9304(18) 0.0735(9)
C12 C 0.812(15) 0.79(3) 0.2755(10)
C13 C 0.8935(34) 0.787(3) 0.301(2)
C14 C 0.9021(34) 0.804(3) 0.3546(19)
O8 O 0.84(2) 0.83(3) 0.376(4)
H6 H 0.75(2) 0.80(4) 0.2950(15)
C15 C 0.978(34) 0.79(3) 0.2245(10)
O9 O 0.99(4) 0.83(3) 0.124(4)
C16 C 0.978(34) 0.79(3) 0.2755(10)
O10 O 0.99(4) 0.83(3) 0.376(4)
C17 C 0.0392(12) 0.5674(14) 0.0414(9)
C18 C 0.000 0.597(3) 0.000
C19 C 0.000 0.699(3) 0.000
O12 O 0.0350(12) 0.7580(32) 0.0371(10)
H9 H 0.0696(18) 0.6196(21) 0.0735(9)
H10 H 0.20(4) 0.95(4) 0.2050(15)
C25 C 0.000 0.403(3) 0.000
C26 C 0.000 0.301(3) 0.000
C27 C 0.0392(12) 0.4718(7) 0.0414(9)
O16 O 0.0350(12) 0.277(3) 0.0371(10)
H13 H 0.0696(18) 0.4500(10) 0.0735(9)
H14 H 0.20(4) 0.95(4) 0.2950(15)
C33 C 0.4326(14) 0.4718(7) 0.0414(9)
C34 C 0.403(3) 0.403(3) 0.000
C35 C 0.301(3) 0.301(3) 0.000
O21 O 0.2420(32) 0.277(3) 0.0371(10)
H17 H 0.3804(21) 0.4500(10) 0.0735(9)
H18 H 0.05(4) 0.25(2) 0.2050(15)
C41 C 0.597(3) 0.597(3) 0.000
C42 C 0.699(3) 0.699(3) 0.000
C43 C 0.5282(7) 0.5674(14) 0.0414(9)
O25 O 0.723(3) 0.7580(32) 0.0371(10)
H21 H 0.5500(10) 0.6196(21) 0.0735(9)
H22 H 0.05(4) 0.25(2) 0.2950(15)
O29 O 0.0840(7) 0.1679(14) 0.5274(8)
Zr5 Zr 0.8400(3) 0.92001(33) 0.44542(16)
O30 O 0.8321(14) 0.9161(16) 0.5274(8)
O31_4 O 1.000 1 0.4134(16)
O32 O 0.0839(16) 0.9160(7) 0.5274(8)
Zr9 Zr 0.92001(33) 0.8400(3) 0.55458(16)
O34 O 0.9161(16) 0.8321(14) 0.4726(8)
O42 O 0.9160(7) 0.8321(14) 0.0274(8)
O49 O 0.0350(12) 0.277(3) 0.4629(10)
O50 O 0.723(3) 0.7580(32) 0.4629(10)
O51 O 0.2420(32) 0.9650(12) 0.4629(10)
O52 O 0.2420(32) 0.277(3) 0.4629(10)
O53 O 0.723(3) 0.9650(12) 0.4629(10)
O54 O 0.0350(12) 0.7580(32) 0.4629(10)
O1 O 0.8321(14) 0.9160(7) 0.9726(8)
C2_4 C 0.597(3) 1.000 1.000
C3_4 C 0.699(3) 1.000 1.000
C9_4 C 0.403(3) 1.000 1.000
C10_4 C 0.301(3) 1.000 1.000
O11 O 0.0840(7) 0.9161(16) 0.9726(8)
C18_2 C -0.000 0.597(3) 1.000
C19_2 C -0.000 0.699(3) 1.000
C25_2 C -0.000 0.403(3) 1.000
C26_2 C 0.000 0.301(3) 1.000
O20 O 0.0839(16) 0.1679(14) 0.9726(8)
C34_2 C 0.403(3) 0.403(3) 1.000
C35_2 C 0.301(3) 0.301(3) 1.000
C39 C 0.4718(7) 0.4326(14) 0.9586(9)
O23 O 0.277(3) 0.2420(32) 0.9629(10)
H19 H 0.4500(10) 0.3804(21) 0.9265(9)
C40 C 0.5674(14) 0.5282(7) 0.9586(9)
C41_2 C 0.597(3) 0.597(3) 1.000
C42_2 C 0.699(3) 0.699(3) 1.000
O24 O 0.7580(32) 0.723(3) 0.9629(10)
H20 H 0.6196(21) 0.5500(10) 0.9265(9)
Zr23 Zr 0.91999(14) 0.8400(3) 0.94542(16)
C18_3 C 1.000 0.597(3) 0.000
C19_3 C 1.000 0.699(3) 0.000
C25_3 C 1.000 0.403(3) 0.000
C26_3 C 1.000 0.301(3) 0.000
C36 C 0.978(34) 0.188(15) 0.2245(10)
C37 C 0.8935(34) 0.1065(17) 0.199(2)
C38 C 0.9021(34) 0.0981(17) 0.1454(19)
O22 O 0.99(4) 0.16(2) 0.124(4)
C44 C 0.978(34) 0.188(15) 0.2755(10)
C45 C 0.8935(17) 0.1065(34) 0.301(2)
C46 C 0.9019(17) 0.0979(34) 0.3546(19)
O26 O 0.99(4) 0.16(2) 0.376(4)
C47 C 0.812(15) 0.022(34) 0.2245(10)
C48 C 0.812(15) 0.022(34) 0.2755(10)
C18_4 C 1.000 0.597(3) 1.000
C19_4 C 1.000 0.699(3) 1.000
C23 C 0.9608(12) 0.5282(7) 0.9586(9)
O14 O 0.9650(12) 0.723(3) 0.9629(10)
H11 H 0.9304(18) 0.5500(10) 0.9265(9)
C24 C 0.9608(12) 0.4326(14) 0.9586(9)
C25_4 C 1.000 0.403(3) 1.000
C26_4 C 1.000 0.301(3) 1.000
O15 O 0.9650(12) 0.2420(32) 0.9629(10)
H12 H 0.9304(18) 0.3804(21) 0.9265(9)
H23 H 0.75(2) 0.95(4) 0.2050(15)
H24 H 0.75(2) 0.95(4) 0.2950(15)
O2_5 O 0.000 -0 0.5866(16)
H7_2 H 0.25(6) 0.05(4) 0.7050(15)
H8_2 H 0.25(6) 0.05(4) 0.7950(15)
O31_5 O -0.000 -0.000 0.9134(16)
O2_6 O 0.000 1 0.5866(16)
C4_2 C 0.022(34) 0.812(15) 0.7245(10)
C5_2 C 0.1065(34) 0.8935(17) 0.699(2)
C6_2 C 0.0979(34) 0.9019(17) 0.6454(19)
O4_2 O 0.01(4) 0.84(2) 0.624(4)
C12_2 C 0.022(34) 0.812(15) 0.7755(10)
C13_2 C 0.1065(45) 0.8935(34) 0.801(2)
C14_2 C 0.0981(45) 0.9021(34) 0.8546(19)
O8_2 O 0.01(4) 0.84(2) 0.876(4)
C15_2 C 0.188(45) 0.978(34) 0.7245(10)
O9_2 O 0.16(5) 0.99(4) 0.624(4)
C16_2 C 0.188(45) 0.978(34) 0.7755(10)
O10_2 O 0.16(5) 0.99(4) 0.876(4)
C34_3 C -0.000(4) 0.403(3) 0.500
C35_3 C -0.000(4) 0.301(3) 0.500
C39_2 C 0.0392(16) 0.4718(7) 0.4586(9)
H19_2 H 0.0696(23) 0.4500(10) 0.4265(9)
C40_2 C 0.0392(16) 0.5674(14) 0.4586(9)
C41_3 C -0.000(4) 0.597(3) 0.500
C42_3 C -0.000(4) 0.699(3) 0.500
H20_2 H 0.0696(23) 0.6196(21) 0.4265(9)
O31_6 O -0.000 1.000 0.9134(16)
O55 O 0.01(4) 0.17(3) 0.876(4)
O59 O 0.01(4) 0.17(3) 0.624(4)
O2_7 O 1.000 -0 0.5866(16)
O31_7 O 1.000 -0.000 0.9134(16)
O2_8 O 1.000 1 0.5866(16)
C1_2 C 0.5674(14) 0.5282(7) 0.5414(9)
C2_5 C 0.597(3) 0.597(3) 0.500
C3_5 C 0.699(3) 0.699(3) 0.500
O3_2 O 0.7580(32) 0.723(3) 0.5371(10)
H1_2 H 0.6196(21) 0.5500(10) 0.5735(9)
H2_2 H 0.95(4) 0.75(2) 0.7050(15)
C7_2 C 0.5282(18) 0.5674(14) 0.4586(9)
H3_2 H 0.5500(28) 0.6196(21) 0.4265(9)
C8_2 C 0.4326(14) 0.4718(7) 0.4586(9)
C9_5 C 0.403(3) 0.403(3) 0.500
C10_5 C 0.301(3) 0.301(3) 0.500
H4_2 H 0.3804(21) 0.4500(10) 0.4265(9)
C11_2 C 0.4718(18) 0.4326(14) 0.5414(9)
O7_2 O 0.2770(34) 0.2420(32) 0.5371(10)
H5_2 H 0.4500(28) 0.3804(21) 0.5735(9)
H6_2 H 0.95(4) 0.75(2) 0.7950(15)
C17_2 C 0.4718(18) 0.0392(12) 0.5414(9)
C18_5 C 0.403(3) -0.000 0.500
C19_5 C 0.301(3) 0.000 0.500
O12_2 O 0.2770(34) 0.0350(12) 0.5371(10)
H9_2 H 0.4500(28) 0.0696(18) 0.5735(9)
C20_2 C 0.188(45) 0.21(3) 0.7245(10)
C21_2 C 0.1065(45) 0.213(3) 0.699(2)
C22_2 C 0.0981(45) 0.196(3) 0.6454(19)
O13_2 O 0.16(5) 0.17(3) 0.624(4)
H10_2 H 0.25(6) 0.20(4) 0.7050(15)
C25_5 C 0.597(3) -0.000 0.500
C26_5 C 0.699(3) -0.000 0.500
C27_2 C 0.5674(14) 0.0392(12) 0.5414(9)
O16_2 O 0.7580(32) 0.0350(12) 0.5371(10)
H13_2 H 0.6196(21) 0.0696(18) 0.5735(9)
C28_2 C 0.188(45) 0.21(3) 0.7755(10)
C29_2 C 0.1065(34) 0.213(3) 0.801(2)
C30_2 C 0.0979(34) 0.196(3) 0.8546(19)
O17_2 O 0.16(5) 0.17(3) 0.876(4)
H14_2 H 0.25(6) 0.20(4) 0.7950(15)
C31_2 C 0.022(34) 0.21(3) 0.7245(10)
C32_2 C 0.022(34) 0.21(3) 0.7755(10)
C33_2 C 0.9608(16) 0.4326(14) 0.5414(9)
C34_4 C 1.000(4) 0.403(3) 0.500
C35_4 C 1.000(4) 0.301(3) 0.500
O21_2 O 0.9650(44) 0.2420(32) 0.5371(10)
H17_2 H 0.9304(23) 0.3804(21) 0.5735(9)
H18_2 H 0.80(4) 0.05(4) 0.7050(15)
C41_4 C 1.000(4) 0.597(3) 0.500
C42_4 C 1.000(4) 0.699(3) 0.500
C43_2 C 0.9608(16) 0.5282(7) 0.5414(9)
O25_2 O 0.9650(44) 0.723(3) 0.5371(10)
H21_2 H 0.9304(23) 0.5500(10) 0.5735(9)
H22_2 H 0.80(4) 0.05(4) 0.7950(15)
O31_8 O 1.000 1.000 0.9134(16)
O56_2 O 0.83(4) 0.84(2) 0.876(4)
O60_2 O 0.83(4) 0.84(2) 0.624(4)
C18_6 C 0.403(3) 1.000 0.500
C19_6 C 0.301(3) 1.000 0.500
C23_2 C 0.4326(14) 0.9608(12) 0.4586(9)
H11_2 H 0.3804(21) 0.9304(18) 0.4265(9)
C24_2 C 0.5282(18) 0.9608(12) 0.4586(9)
C25_6 C 0.597(3) 1.000 0.500
C26_6 C 0.699(3) 1.000 0.500
H12_2 H 0.5500(28) 0.9304(18) 0.4265(9)
C36_2 C 0.790(37) 0.978(34) 0.7245(10)
C37_2 C 0.7870(38) 0.8935(34) 0.699(2)
C38_2 C 0.8040(38) 0.9021(34) 0.6454(19)
O22_2 O 0.83(4) 0.99(4) 0.624(4)
C44_2 C 0.790(37) 0.978(34) 0.7755(10)
C45_2 C 0.7870(38) 0.8935(17) 0.801(2)
C46_2 C 0.8040(38) 0.9019(17) 0.8546(19)
O26_2 O 0.83(4) 0.99(4) 0.876(4)
C47_2 C 0.790(37) 0.812(15) 0.7245(10)
H23_2 H 0.80(4) 0.75(2) 0.7050(15)
C48_2 C 0.790(37) 0.812(15) 0.7755(10)
H24_2 H 0.80(4) 0.75(2) 0.7950(15)
H15_2 H 0.95(4) 0.20(4) 0.7050(15)
H16_2 H 0.95(4) 0.20(4) 0.7950(15)
loop_
_geom_bond_atom_site_label_1
_geom_bond_atom_site_label_2
_geom_bond_site_symmetry_1
_geom_bond_site_symmetry_2
Zr14 O2 1_555 1_555
Zr18 O31 1_555 1_555
Zr10 O2_2 1_555 1_555
O31_2 Zr24 1_555 1_555
C2 C3 1_555 1_555
C10 C9 1_555 1_555
C20 C21 1_555 1_555
C21 C22 1_555 1_555
C22 O13 1_555 1_555
C28 C20 1_555 1_555
C29 C28 1_555 1_555
C30 C29 1_555 1_555
O17 C30 1_555 1_555
C31 C21 1_555 1_555
O18 C22 1_555 1_555
H15 C31 1_555 1_555
C32 C29 1_555 1_555
O19 C30 1_555 1_555
H16 C32 1_555 1_555
Zr14 O18 1_555 1_555
Zr18 O19 1_555 1_555
C31 C32 1_555 1_555
Zr12 O36 1_555 1_555
Zr14 O44 1_555 1_555
Zr16 O38 1_555 1_555
Zr18 O36 1_555 1_555
C2_2 C3_2 1_555 1_555
C7 C2_2 1_555 1_555
O5 C3_2 1_555 1_555
H3 C7 1_555 1_555
C8 C7 1_555 1_555
C9_2 C8 1_555 1_555
C10_2 C9_2 1_555 1_555
O6 C10_2 1_555 1_555
H4 C8 1_555 1_555
Zr20 O5 1_555 1_555
Zr26 O6 1_555 1_555
O2_4 Zr1 1_555 1_555
C1 C2_3 1_555 1_555
C2_3 C3_3 1_555 1_555
C3_3 O3 1_555 1_555
O3 Zr1 1_555 1_555
H1 C1 1_555 1_555
C4 C5 1_555 1_555
C5 C6 1_555 1_555
C6 O4 1_555 1_555
O4 Zr1 1_555 1_555
H2 C4 1_555 1_555
C10_3 C9_3 1_555 1_555
C11 C1 1_555 1_555
O7 C10_3 1_555 1_555
H5 C11 1_555 1_555
C12 C4 1_555 1_555
C13 C12 1_555 1_555
C14 C13 1_555 1_555
O8 C14 1_555 1_555
H6 C12 1_555 1_555
C15 C5 1_555 1_555
O9 C6 1_555 1_555
C16 C13 1_555 1_555
O10 C14 1_555 1_555
Zr10 O7 1_555 1_555
C17 C18 1_555 1_555
C18 C19 1_555 1_555
C19 O12 1_555 1_555
O12 Zr10 1_555 1_555
H9 C17 1_555 1_555
C26 C25 1_555 1_555
C27 C17 1_555 1_555
O16 C26 1_555 1_555
H13 C27 1_555 1_555
Zr14 O16 1_555 1_555
C33 C34 1_555 1_555
C34 C35 1_555 1_555
C35 O21 1_555 1_555
O21 Zr14 1_555 1_555
H17 C33 1_555 1_555
C42 C41 1_555 1_555
C43 C33 1_555 1_555
O25 Zr1 1_555 1_555
H21 C43 1_555 1_555
O29 Zr18 1_555 1_555
Zr5 O8 1_555 1_555
O30 Zr5 1_555 1_555
O31_4 Zr5 1_555 1_555
O32 Zr24 1_555 1_555
Zr9 O30 1_555 1_555
Zr12 O29 1_555 1_555
O34 Zr5 1_555 1_555
O42 Zr1 1_555 1_555
O49 Zr18 1_555 1_555
O50 Zr5 1_555 1_555
O51 Zr24 1_555 1_555
O52 Zr18 1_555 1_555
O53 Zr5 1_555 1_555
O54 Zr24 1_555 1_555
C9_3 C11 1_555 1_555
C15 C16 1_555 1_555
C25 C27 1_555 1_555
C41 C43 1_555 1_555
C42 O25 1_555 1_555
Zr9 O34 1_555 1_555
C2_4 C3_4 1_555 1_555
C10_4 C9_4 1_555 1_555
C18_2 C19_2 1_555 1_555
C26_2 C25_2 1_555 1_555
C34_2 C35_2 1_555 1_555
C39 C34_2 1_555 1_555
O23 C35_2 1_555 1_555
H19 C39 1_555 1_555
C40 C39 1_555 1_555
C41_2 C40 1_555 1_555
C42_2 C41_2 1_555 1_555
O24 C42_2 1_555 1_555
H20 C40 1_555 1_555
Zr23 O1 1_555 1_555
Zr26 O20 1_555 1_555
O23 Zr26 1_555 1_555
O24 Zr23 1_555 1_555
C18_3 C19_3 1_555 1_555
C26_3 C25_3 1_555 1_555
C36 C37 1_555 1_555
C37 C38 1_555 1_555
C38 O22 1_555 1_555
C44 C36 1_555 1_555
C45 C44 1_555 1_555
C46 C45 1_555 1_555
O26 C46 1_555 1_555
C47 C37 1_555 1_555
O60 C38 1_555 1_555
C48 C45 1_555 1_555
O56 C46 1_555 1_555
C47 C48 1_555 1_555
C18_4 C19_4 1_555 1_555
C23 C18_4 1_555 1_555
O14 C19_4 1_555 1_555
H11 C23 1_555 1_555
C24 C23 1_555 1_555
C25_4 C24 1_555 1_555
C26_4 C25_4 1_555 1_555
O15 C26_4 1_555 1_555
H12 C24 1_555 1_555
Zr20 O15 1_555 1_555
O14 Zr23 1_555 1_555
Zr12 O2_5 1_555 1_555
O31_5 Zr26 1_555 1_555
C4_2 C5_2 1_555 1_555
C5_2 C6_2 1_555 1_555
C6_2 O4_2 1_555 1_555
C12_2 C4_2 1_555 1_555
C13_2 C12_2 1_555 1_555
C14_2 C13_2 1_555 1_555
O8_2 C14_2 1_555 1_555
C15_2 C5_2 1_555 1_555
O9_2 C6_2 1_555 1_555
C16_2 C13_2 1_555 1_555
O10_2 C14_2 1_555 1_555
C34_3 C35_3 1_555 1_555
C39_2 C34_3 1_555 1_555
O49 C35_3 1_555 1_555
H19_2 C39_2 1_555 1_555
C40_2 C39_2 1_555 1_555
C41_3 C40_2 1_555 1_555
C42_3 C41_3 1_555 1_555
O54 C42_3 1_555 1_555
H20_2 C40_2 1_555 1_555
C15_2 C16_2 1_555 1_555
Zr16 O2_7 1_555 1_555
Zr20 O31_7 1_555 1_555
O2_8 Zr9 1_555 1_555
C1_2 C2_5 1_555 1_555
C2_5 C3_5 1_555 1_555
C3_5 O3_2 1_555 1_555
O3_2 Zr9 1_555 1_555
H1_2 C1_2 1_555 1_555
C7_2 C2_5 1_555 1_555
O50 C3_5 1_555 1_555
H3_2 C7_2 1_555 1_555
C8_2 C7_2 1_555 1_555
C9_5 C8_2 1_555 1_555
C10_5 C9_5 1_555 1_555
O52 C10_5 1_555 1_555
H4_2 C8_2 1_555 1_555
C11_2 C1_2 1_555 1_555
O7_2 C10_5 1_555 1_555
H5_2 C11_2 1_555 1_555
Zr12 O7_2 1_555 1_555
C17_2 C18_5 1_555 1_555
C18_5 C19_5 1_555 1_555
C19_5 O12_2 1_555 1_555
O12_2 Zr12 1_555 1_555
H9_2 C17_2 1_555 1_555
C20_2 C21_2 1_555 1_555
C21_2 C22_2 1_555 1_555
C22_2 O13_2 1_555 1_555
O13_2 Zr12 1_555 1_555
H10_2 C20_2 1_555 1_555
C26_5 C25_5 1_555 1_555
C27_2 C17_2 1_555 1_555
O16_2 C26_5 1_555 1_555
H13_2 C27_2 1_555 1_555
C28_2 C20_2 1_555 1_555
C29_2 C28_2 1_555 1_555
C30_2 C29_2 1_555 1_555
O17_2 C30_2 1_555 1_555
H14_2 C28_2 1_555 1_555
C31_2 C21_2 1_555 1_555
O59 C22_2 1_555 1_555
C32_2 C29_2 1_555 1_555
O55 C30_2 1_555 1_555
Zr16 O16_2 1_555 1_555
C33_2 C34_4 1_555 1_555
C34_4 C35_4 1_555 1_555
C35_4 O21_2 1_555 1_555
O21_2 Zr16 1_555 1_555
H17_2 C33_2 1_555 1_555
C42_4 C41_4 1_555 1_555
C43_2 C33_2 1_555 1_555
O25_2 Zr9 1_555 1_555
H21_2 C43_2 1_555 1_555
O31_8 Zr23 1_555 1_555
Zr26 O17_2 1_555 1_555
O56_2 Zr23 1_555 1_555
O60_2 Zr9 1_555 1_555
C9_5 C11_2 1_555 1_555
C25_5 C27_2 1_555 1_555
C31_2 C32_2 1_555 1_555
C41_4 C43_2 1_555 1_555
C42_4 O25_2 1_555 1_555
C18_6 C19_6 1_555 1_555
C23_2 C18_6 1_555 1_555
O51 C19_6 1_555 1_555
H11_2 C23_2 1_555 1_555
C24_2 C23_2 1_555 1_555
C25_6 C24_2 1_555 1_555
C26_6 C25_6 1_555 1_555
O53 C26_6 1_555 1_555
H12_2 C24_2 1_555 1_555
C36_2 C37_2 1_555 1_555
C37_2 C38_2 1_555 1_555
C38_2 O22_2 1_555 1_555
C44_2 C36_2 1_555 1_555
C45_2 C44_2 1_555 1_555
C46_2 C45_2 1_555 1_555
O26_2 C46_2 1_555 1_555
C47_2 C37_2 1_555 1_555
O60_2 C38_2 1_555 1_555
H23_2 C47_2 1_555 1_555
C48_2 C45_2 1_555 1_555
O56_2 C46_2 1_555 1_555
H24_2 C48_2 1_555 1_555
C47_2 C48_2 1_555 1_555

#END
