
###############################################################################
#
# This file contains modified crystal structure data generated from the
# MOF subset of the Cambridge Structural Database (CSD) v543 
# hosted by the Cambridge Crystallographic Data Centre (CCDC).
#
# This work is licensed under the Creative Commons
# Attribution-NonCommercial-ShareAlike 4.0 International License.
# To view a copy of this license, visit
# http://creativecommons.org/licenses/by-nc-sa/4.0/
# or send a letter to
# Creative Commons, PO Box 1866, Mountain View, CA 94042, USA.
#
# CIF created using the CSD Python API on 29 September 2022
# The structure has been converted into the P1 space group
# The structure has a 3D framework
# The original CSD entry RUGKOV is in the orthorhombic crystal system
# The original CSD entry RUGKOV is in a Sohncke space group
# The framework has been calculated to contain at least 10.0% void space
# The void calculation uses a probe of radius 1.32A, grid spacing 0.4
#
###############################################################################

data_RUGKOV
_chemical_formula_moiety         '(C52 H40 N36 O20 Zn12)n'
_symmetry_cell_setting           triclinic
_symmetry_space_group_name_H-M   'P 1'
_symmetry_Int_Tables_number      1
_space_group_name_Hall           'P 1'
loop_
_symmetry_equiv_pos_site_id
_symmetry_equiv_pos_as_xyz
1 x,y,z
_cell_length_a                   20.1049(18)
_cell_length_b                   12.7575(15)
_cell_length_c                   14.4270(12)
_cell_angle_alpha                90
_cell_angle_beta                 90
_cell_angle_gamma                90
_cell_volume                     3700.36
loop_
_atom_site_label
_atom_site_type_symbol
_atom_site_fract_x
_atom_site_fract_y
_atom_site_fract_z
Zn1 Zn 0.23262(4) 0.70643(5) 0.33937(4)
Zn2 Zn 0.26797(3) 0.53213(5) 0.17437(5)
N1 N 0.1710(2) 0.5686(4) 0.1569(4)
N2 N 0.2751(3) 0.4886(4) 0.3075(3)
N4 N 0.0699(2) 0.5655(4) 0.0834(4)
C1 C 0.0702(3) 0.6404(5) 0.1545(5)
N5 N 0.2554(3) 0.5594(4) 0.3739(4)
O2 O 0.2660(4) 0.3455(6) 0.5932(5)
O3 O 0.3050(5) 0.2335(6) 0.4929(7)
C3 C 0.2570(4) 0.5086(7) 0.4559(5)
H2 H 0.2461 0.5383 0.5128
C4 C 0.2772(4) 0.4069(7) 0.4433(6)
C5 C 0.1298(3) 0.6395(5) 0.1979(4)
N7 N 0.1443(3) 0.7007(4) 0.2723(4)
C8 C 0.1329(3) 0.5248(6) 0.0902(4)
H4 H 0.1482 0.4714 0.0519
C10 C 0.0944(4) 0.7630(7) 0.2962(6)
H7 H 0.1015 0.8048 0.3481
C11 C 0.2866(4) 0.3997(6) 0.3508(6)
H8 H 0.2997 0.3385 0.3209
C12 C 0.0210(4) 0.7120(7) 0.1847(6)
N9 N 0.0350(4) 0.7733(6) 0.2550(5)
O5 O 0.2916(4) 0.4179(10) 0.0770(7)
H9 H 0.2602 0.3931 0.0383
H10 H 0.3332 0.3919 0.0747
C13 C 0.2836(4) 0.3251(10) 0.5107(9)
N17 N 0.0379(3) 0.2742(7) 0.1388(5)
H15 H 0.0650 0.2259 0.1561
H16 H 0.0478 0.3138 0.0925
Zn7 Zn 0.26738(4) 0.20643(5) 0.66063(4)
N19 N 0.3163(2) 0.6690(4) 0.1738(4)
N21 N 0.3011(3) 0.7377(4) 0.2421(3)
O11 O 0.2340(4) 0.8455(6) 0.4068(5)
O13 O 0.1950(5) 0.7335(6) 0.5071(7)
Zn3 Zn -0.0000 0.5000 0.99806(7)
N3 N 0.1837(2) 0.1690(4) 0.8262(4)
O1 O 0.0474(2) 0.3692(5) 0.9619(4)
N6 N 0.1989(3) 0.2377(4) 0.7579(3)
C2 C 0.1397(3) 0.2137(6) 0.8826(4)
H1 H 0.1213 0.1823 0.9348
C6 C 0.1649(4) 0.3234(6) 0.7741(5)
H3 H 0.1674 0.3832 0.7374
C7 C 0.0812(4) 0.3966(7) 0.8917(6)
C9 C 0.1253(4) 0.3151(6) 0.8513(5)
O4 O 0.0796(4) 0.4816(5) 0.8626(4)
Zn10 Zn 0.23203(3) 0.03213(5) 0.82563(5)
N8 N 0.9621(3) 0.7258(7) 0.1388(5)
H5 H 0.9350 0.7741 0.1561
H6 H 0.9522 0.6862 0.0925
Zn4 Zn 0.76738(4) 0.29357(5) 0.33937(4)
Zn5 Zn 0.73203(3) 0.46787(5) 0.17437(5)
N10 N 0.8290(2) 0.4314(4) 0.1569(4)
N11 N 0.7249(3) 0.5114(4) 0.3075(3)
N13 N 0.9301(2) 0.4345(4) 0.0834(4)
C14 C 0.9298(3) 0.3596(5) 0.1545(5)
N14 N 0.7446(3) 0.4406(4) 0.3739(4)
O7 O 0.7340(4) 0.6545(6) 0.5932(5)
O8 O 0.6950(5) 0.7665(6) 0.4929(7)
C16 C 0.7430(4) 0.4914(7) 0.4559(5)
H12 H 0.7539 0.4617 0.5128
C17 C 0.7228(4) 0.5931(7) 0.4433(6)
C18 C 0.8702(3) 0.3605(5) 0.1979(4)
N16 N 0.8557(3) 0.2993(4) 0.2723(4)
C21 C 0.8671(3) 0.4752(6) 0.0902(4)
H14 H 0.8518 0.5286 0.0519
C23 C 0.9056(4) 0.2370(7) 0.2962(6)
H17 H 0.8985 0.1952 0.3481
C24 C 0.7134(4) 0.6003(6) 0.3508(6)
H18 H 0.7003 0.6615 0.3209
C25 C 0.9790(4) 0.2880(7) 0.1847(6)
N18 N 0.9650(4) 0.2267(6) 0.2550(5)
O10 O 0.7084(4) 0.5821(10) 0.0770(7)
H19 H 0.7398 0.6069 0.0383
H20 H 0.6668 0.6081 0.0747
C26 C 0.7164(4) 0.6749(10) 0.5107(9)
Zn9 Zn 0.73262(4) 0.79357(5) 0.66063(4)
N20 N 0.6837(2) 0.3310(4) 0.1738(4)
N22 N 0.6989(3) 0.2623(4) 0.2421(3)
O12 O 0.7660(4) 0.1545(6) 0.4068(5)
O14 O 0.8050(5) 0.2665(6) 0.5071(7)
Zn3_2 Zn 1.0000 0.5000 0.99806(7)
N12 N 0.8163(2) 0.8310(4) 0.8262(4)
O6 O 0.9526(2) 0.6308(5) 0.9619(4)
N15 N 0.8011(3) 0.7623(4) 0.7579(3)
C15 C 0.8603(3) 0.7863(6) 0.8826(4)
H11 H 0.8787 0.8177 0.9348
C19 C 0.8351(4) 0.6766(6) 0.7741(5)
H13 H 0.8326 0.6168 0.7374
C20 C 0.9188(4) 0.6034(7) 0.8917(6)
C22 C 0.8747(4) 0.6849(6) 0.8513(5)
O9 O 0.9204(4) 0.5184(5) 0.8626(4)
Zn11 Zn 0.76797(3) 0.96787(5) 0.82563(5)
Zn3_3 Zn 0.5000 0.0000 0.00194(7)
O6_2 O 0.5474(2) 0.1308(5) 0.0381(4)
C15_2 C 0.6397(3) 0.2863(6) 0.1174(4)
H11_2 H 0.6213 0.3177 0.0652
C19_2 C 0.6649(4) 0.1766(6) 0.2259(5)
H13_2 H 0.6674 0.1168 0.2626
C20_2 C 0.5812(4) 0.1034(7) 0.1083(6)
C22_2 C 0.6253(4) 0.1849(6) 0.1487(5)
O9_2 O 0.5796(4) 0.0184(5) 0.1374(4)
N1_2 N 0.3290(2) 0.0686(4) 0.8431(4)
N4_2 N 0.4301(2) 0.0655(4) 0.9166(4)
C1_2 C 0.4298(3) 0.1404(5) 0.8455(5)
N5_2 N 0.2446(3) 0.0594(4) 0.6261(4)
C3_2 C 0.2430(4) 0.0086(7) 0.5441(5)
H2_2 H 0.2539 0.0383 0.4872
C5_2 C 0.3702(3) 0.1395(5) 0.8021(4)
N7_2 N 0.3557(3) 0.2007(4) 0.7277(4)
C8_2 C 0.3671(3) 0.0248(6) 0.9098(4)
N8_2 N 0.5379(3) 0.2258(7) 0.8612(5)
H5_2 H 0.5650 0.2741 0.8439
H6_2 H 0.5478 0.1862 0.9075
C10_2 C 0.4056(4) 0.2630(7) 0.7038(6)
H7_2 H 0.3985 0.3048 0.6519
C12_2 C 0.4790(4) 0.2120(7) 0.8153(6)
N9_2 N 0.4650(4) 0.2733(6) 0.7450(5)
N11_2 N 0.7751(3) 0.0114(4) 0.6925(3)
C17_2 C 0.7772(4) 0.0931(7) 0.5567(6)
H14_2 H 0.6482 0.0286 0.9481
C24_2 C 0.7866(4) 0.1003(6) 0.6492(6)
H18_2 H 0.7997 0.1615 0.6791
O10_2 O 0.7916(4) 0.0821(10) 0.9230(7)
H19_2 H 0.7602 0.1069 0.9617
H20_2 H 0.8332 0.1081 0.9253
C26_2 C 0.7836(4) 0.1749(10) 0.4893(9)
Zn3_4 Zn 0.5000 1.0000 0.00194(7)
O1_2 O 0.4526(2) 0.8692(5) 0.0381(4)
C2_2 C 0.3603(3) 0.7137(6) 0.1174(4)
H1_2 H 0.3787 0.6823 0.0652
C6_2 C 0.3351(4) 0.8234(6) 0.2259(5)
H3_2 H 0.3326 0.8832 0.2626
C7_2 C 0.4188(4) 0.8966(7) 0.1083(6)
C9_2 C 0.3747(4) 0.8151(6) 0.1487(5)
O4_2 O 0.4204(4) 0.9816(5) 0.1374(4)
N2_2 N 0.2249(3) 0.9886(4) 0.6925(3)
C4_2 C 0.2228(4) 0.9069(7) 0.5567(6)
H4_2 H 0.3518 0.9714 0.9481
C11_2 C 0.2134(4) 0.8997(6) 0.6492(6)
H8_2 H 0.2003 0.8385 0.6791
O5_2 O 0.2084(4) 0.9179(10) 0.9230(7)
H9_2 H 0.2398 0.8931 0.9617
H10_2 H 0.1668 0.8919 0.9253
C13_2 C 0.2164(4) 0.8251(10) 0.4893(9)
N10_2 N 0.6710(2) 0.9314(4) 0.8431(4)
N13_2 N 0.5699(2) 0.9345(4) 0.9166(4)
C14_2 C 0.5702(3) 0.8596(5) 0.8455(5)
N14_2 N 0.7554(3) 0.9406(4) 0.6261(4)
C16_2 C 0.7570(4) 0.9914(7) 0.5441(5)
H12_2 H 0.7461 0.9617 0.4872
C18_2 C 0.6298(3) 0.8605(5) 0.8021(4)
N16_2 N 0.6443(3) 0.7993(4) 0.7277(4)
C21_2 C 0.6329(3) 0.9752(6) 0.9098(4)
N17_2 N 0.4621(3) 0.7742(7) 0.8612(5)
H15_2 H 0.4350 0.7259 0.8439
H16_2 H 0.4522 0.8138 0.9075
C23_2 C 0.5944(4) 0.7370(7) 0.7038(6)
H17_2 H 0.6015 0.6952 0.6519
C25_2 C 0.5210(4) 0.7880(7) 0.8153(6)
N18_2 N 0.5350(4) 0.7267(6) 0.7450(5)
loop_
_geom_bond_atom_site_label_1
_geom_bond_atom_site_label_2
_geom_bond_site_symmetry_1
_geom_bond_site_symmetry_2
Zn1 N5 1_555 1_555
Zn2 N1 1_555 1_555
N1 C5 1_555 1_555
N2 Zn2 1_555 1_555
N4 C1 1_555 1_555
C1 C5 1_555 1_555
N5 N2 1_555 1_555
O2 C13 1_555 1_555
O3 C13 1_555 1_555
C3 N5 1_555 1_555
H2 C3 1_555 1_555
C4 C3 1_555 1_555
C5 N7 1_555 1_555
N7 Zn1 1_555 1_555
C8 N1 1_555 1_555
H4 C8 1_555 1_555
C10 N7 1_555 1_555
H7 C10 1_555 1_555
C11 N2 1_555 1_555
H8 C11 1_555 1_555
C12 C1 1_555 1_555
N9 C10 1_555 1_555
O5 Zn2 1_555 1_555
H9 O5 1_555 1_555
H10 O5 1_555 1_555
C13 C4 1_555 1_555
N17 H15 1_555 1_555
H16 N17 1_555 1_555
Zn7 O2 1_555 1_555
N19 Zn2 1_555 1_555
N21 Zn1 1_555 1_555
O11 Zn1 1_555 1_555
O13 Zn1 1_555 1_555
N4 C8 1_555 1_555
O3 Zn7 1_555 1_555
C4 C11 1_555 1_555
C12 N9 1_555 1_555
N19 N21 1_555 1_555
N3 N6 1_555 1_555
O1 Zn3 1_555 1_555
N6 C6 1_555 1_555
C2 N3 1_555 1_555
H1 C2 1_555 1_555
C6 H3 1_555 1_555
C7 O1 1_555 1_555
C9 C2 1_555 1_555
O4 Zn3 1_555 1_555
Zn7 N6 1_555 1_555
Zn10 N3 1_555 1_555
C6 C9 1_555 1_555
C7 C9 1_555 1_555
C7 O4 1_555 1_555
N8 H5 1_555 1_555
H6 N8 1_555 1_555
Zn4 N14 1_555 1_555
Zn5 N10 1_555 1_555
N10 C18 1_555 1_555
N11 Zn5 1_555 1_555
C14 N13 1_555 1_555
N14 N11 1_555 1_555
O7 C26 1_555 1_555
O8 C26 1_555 1_555
C16 N14 1_555 1_555
H12 C16 1_555 1_555
C17 C16 1_555 1_555
C18 C14 1_555 1_555
N16 Zn4 1_555 1_555
C21 N10 1_555 1_555
H14 C21 1_555 1_555
C23 N16 1_555 1_555
H17 C23 1_555 1_555
C24 N11 1_555 1_555
H18 C24 1_555 1_555
C25 C14 1_555 1_555
N18 C23 1_555 1_555
O10 Zn5 1_555 1_555
H19 O10 1_555 1_555
H20 O10 1_555 1_555
C26 C17 1_555 1_555
Zn9 O7 1_555 1_555
N20 Zn5 1_555 1_555
N22 Zn4 1_555 1_555
O12 Zn4 1_555 1_555
O14 Zn4 1_555 1_555
N13 C21 1_555 1_555
O8 Zn9 1_555 1_555
C17 C24 1_555 1_555
C18 N16 1_555 1_555
C25 N18 1_555 1_555
N20 N22 1_555 1_555
N12 N15 1_555 1_555
O6 Zn3_2 1_555 1_555
N15 C19 1_555 1_555
C15 N12 1_555 1_555
H11 C15 1_555 1_555
C19 H13 1_555 1_555
C20 O6 1_555 1_555
C22 C15 1_555 1_555
O9 Zn3_2 1_555 1_555
Zn9 N15 1_555 1_555
Zn11 N12 1_555 1_555
C19 C22 1_555 1_555
C20 C22 1_555 1_555
C20 O9 1_555 1_555
O6_2 Zn3_3 1_555 1_555
N22 C19_2 1_555 1_555
C15_2 N20 1_555 1_555
H11_2 C15_2 1_555 1_555
C19_2 H13_2 1_555 1_555
C20_2 O6_2 1_555 1_555
C22_2 C15_2 1_555 1_555
O9_2 Zn3_3 1_555 1_555
C19_2 C22_2 1_555 1_555
C20_2 C22_2 1_555 1_555
C20_2 O9_2 1_555 1_555
Zn7 N5_2 1_555 1_555
Zn10 N1_2 1_555 1_555
N1_2 C5_2 1_555 1_555
N4_2 C1_2 1_555 1_555
C1_2 C5_2 1_555 1_555
C3_2 N5_2 1_555 1_555
H2_2 C3_2 1_555 1_555
C5_2 N7_2 1_555 1_555
N7_2 Zn7 1_555 1_555
C8_2 N1_2 1_555 1_555
N8_2 H5_2 1_555 1_555
H6_2 N8_2 1_555 1_555
C10_2 N7_2 1_555 1_555
H7_2 C10_2 1_555 1_555
C12_2 C1_2 1_555 1_555
N9_2 C10_2 1_555 1_555
O12 C26_2 1_555 1_555
O14 C26_2 1_555 1_555
C24_2 N11_2 1_555 1_555
H18_2 C24_2 1_555 1_555
H19_2 O10_2 1_555 1_555
H20_2 O10_2 1_555 1_555
C26_2 C17_2 1_555 1_555
N4_2 C8_2 1_555 1_555
N8_2 C12_2 1_555 1_555
C12_2 N9_2 1_555 1_555
C17_2 C24_2 1_555 1_555
O1_2 Zn3_4 1_555 1_555
N21 C6_2 1_555 1_555
C2_2 N19 1_555 1_555
H1_2 C2_2 1_555 1_555
C6_2 H3_2 1_555 1_555
C7_2 O1_2 1_555 1_555
C9_2 C2_2 1_555 1_555
O4_2 Zn3_4 1_555 1_555
C6_2 C9_2 1_555 1_555
C7_2 C9_2 1_555 1_555
C7_2 O4_2 1_555 1_555
O11 C13_2 1_555 1_555
O13 C13_2 1_555 1_555
C11_2 N2_2 1_555 1_555
H8_2 C11_2 1_555 1_555
H9_2 O5_2 1_555 1_555
H10_2 O5_2 1_555 1_555
C13_2 C4_2 1_555 1_555
Zn9 N14_2 1_555 1_555
Zn11 N10_2 1_555 1_555
N10_2 C18_2 1_555 1_555
C14_2 N13_2 1_555 1_555
C16_2 N14_2 1_555 1_555
H12_2 C16_2 1_555 1_555
C18_2 C14_2 1_555 1_555
N16_2 Zn9 1_555 1_555
C21_2 N10_2 1_555 1_555
N17_2 H15_2 1_555 1_555
H16_2 N17_2 1_555 1_555
C23_2 N16_2 1_555 1_555
H17_2 C23_2 1_555 1_555
C25_2 C14_2 1_555 1_555
N18_2 C23_2 1_555 1_555
C4_2 C11_2 1_555 1_555
N13_2 C21_2 1_555 1_555
C18_2 N16_2 1_555 1_555
N17_2 C25_2 1_555 1_555
C25_2 N18_2 1_555 1_555

#END
