
###############################################################################
#
# This file contains modified crystal structure data generated from the
# MOF subset of the Cambridge Structural Database (CSD) v543 
# hosted by the Cambridge Crystallographic Data Centre (CCDC).
#
# This work is licensed under the Creative Commons
# Attribution-NonCommercial-ShareAlike 4.0 International License.
# To view a copy of this license, visit
# http://creativecommons.org/licenses/by-nc-sa/4.0/
# or send a letter to
# Creative Commons, PO Box 1866, Mountain View, CA 94042, USA.
#
# CIF created using the CSD Python API on 29 September 2022
# The structure has been converted into the P1 space group
# The structure has a 3D framework
# The original CSD entry RUJRIA is in the monoclinic crystal system
# The framework has been calculated to contain at least 10.0% void space
# The void calculation uses a probe of radius 1.32A, grid spacing 0.4
#
###############################################################################

data_RUJRIA
_chemical_formula_moiety         '(C52 H64 Dy4 N12 O36)n'
_symmetry_cell_setting           triclinic
_symmetry_space_group_name_H-M   'P 1'
_symmetry_Int_Tables_number      1
_space_group_name_Hall           'P 1'
loop_
_symmetry_equiv_pos_site_id
_symmetry_equiv_pos_as_xyz
1 x,y,z
_cell_length_a                   9.480(5)
_cell_length_b                   15.311(8)
_cell_length_c                   14.569(8)
_cell_angle_alpha                90
_cell_angle_beta                 99.962(6)
_cell_angle_gamma                90
_cell_volume                     2082.78
loop_
_atom_site_label
_atom_site_type_symbol
_atom_site_fract_x
_atom_site_fract_y
_atom_site_fract_z
Dy4 Dy 0.00480(4) 0.79759(3) 0.02705(3)
N1 N 0.6405(7) 0.2901(5) 0.1698(4)
O1 O 0.8828(6) 0.2880(4) 0.3092(4)
N2 N 0.5038(7) 0.2883(4) 0.1248(4)
O2 O 0.7490(6) 0.2636(4) 0.4163(4)
C2 C 0.7620(9) 0.2760(5) 0.3318(5)
O3 O 0.1998(6) 0.2572(4) 0.0698(4)
C3 C 0.2493(9) 0.2687(6) 0.1531(6)
C4 C 0.4884(8) 0.2685(5) 0.2713(5)
H2 H 0.454583 0.259129 0.326685
C6 C 0.4082(8) 0.2768(5) 0.1840(5)
C7 C 0.6314(9) 0.2772(5) 0.2602(6)
C8 C 0.4908(8) 0.4093(5) 0.0110(5)
C9 C 0.3928(11) 0.4653(6) 0.0402(7)
H5 H 0.321317 0.442449 0.069565
O8 O 0.1764(7) 0.2727(5) 0.2181(4)
C12 C 0.4811(9) 0.3122(5) 0.0246(5)
C21 C 0.3990(11) 0.5537(6) 0.0266(7)
H19 H 0.327817 0.589320 0.042894
H20 H 0.612510 0.708140 0.005460
H21 H 0.447472 0.716753 0.004943
C23 C 0.0623(10) 0.0046(7) 0.0404(7)
O15 O 0.0971(7) 0.0819(4) 0.0654(5)
Dy5 Dy 0.99520(4) 0.29759(3) 0.47295(3)
O14 O 0.1179(7) 0.9355(4) 0.0735(5)
C26 C 0.020(3) 0.4793(14) 0.131(3)
H30 H 0.081512 0.509716 0.095339
H31 H 0.076650 0.455741 0.186175
O19 O 0.1172(6) 0.7880(4) 0.1908(4)
O21 O 0.2510(6) 0.7636(4) 0.0837(4)
C24 C 0.9105(15) 0.6168(9) 0.1244(9)
H22 H 0.841326 0.651817 0.144096
O16 O 0.8211(7) 0.8348(4) 0.1081(4)
H23 H 0.739915 0.837203 0.070224
H24 H 0.814723 0.796033 0.150471
O17 O 0.9852(8) 0.6519(4) 0.0711(5)
C25 C 0.824(3) 0.5028(13) 0.2101(13)
H27 H 0.761679 0.461233 0.174451
H28 H 0.878061 0.474421 0.263857
H29 H 0.768847 0.549379 0.229808
N6 N 0.9196(13) 0.5370(6) 0.1547(7)
H32 H 0.972132 0.432712 0.093754
H27_2 H 0.238321 0.961233 0.325549
H28_2 H 0.121939 0.974421 0.236143
H32_2 H 0.027868 0.932712 0.406246
C1 C 0.9105(15) 0.8832(9) 0.6244(9)
H1 H 0.841326 0.848183 0.644096
N1_2 N 0.3595(7) 0.7901(5) 0.3302(4)
N2_2 N 0.4962(7) 0.7883(4) 0.3752(4)
C2_2 C 0.2380(9) 0.7760(5) 0.1682(5)
O3_2 O 0.8002(6) 0.7572(4) 0.4302(4)
C3_2 C 0.7507(9) 0.7687(6) 0.3469(6)
C4_2 C 0.5116(8) 0.7685(5) 0.2287(5)
H2_2 H 0.545417 0.759129 0.173315
C6_2 C 0.5918(8) 0.7768(5) 0.3160(5)
C7_2 C 0.3686(9) 0.7772(5) 0.2398(6)
O5 O 0.8211(7) 0.6652(4) 0.6081(4)
H3 H 0.739915 0.662797 0.570224
H4 H 0.814723 0.703967 0.650471
C8_2 C 0.5092(8) 0.9093(5) 0.4890(5)
O6 O 0.9852(8) 0.8481(4) 0.5711(5)
C9_2 C 0.6072(11) 0.9653(6) 0.4598(7)
H5_2 H 0.678683 0.942449 0.430435
C10 C 0.3990(11) 0.9463(6) 0.5266(7)
H6 H 0.327817 0.910680 0.542894
C11 C 0.824(3) 0.9972(13) 0.7101(13)
H11 H 0.768847 0.950621 0.729808
O8_2 O 0.8236(7) 0.7727(5) 0.2819(4)
C12_2 C 0.5189(9) 0.8122(5) 0.4754(5)
H12 H 0.612510 0.791860 0.505460
H13 H 0.447472 0.783247 0.504943
N3 N 0.9196(13) 0.9630(6) 0.6547(7)
O14_2 O 0.8821(7) 0.4355(4) 0.4265(5)
C23_2 C 0.9377(10) 0.5046(7) 0.4596(7)
O15_2 O 0.9029(7) 0.5819(4) 0.4346(5)
O18 O 0.9114(7) 0.2543(5) 0.6079(4)
H25 H 0.847782 0.291580 0.621267
H26 H 0.870793 0.202649 0.600617
H30_2 H 0.918488 0.009716 0.404661
C1_2 C 0.0895(15) 0.3832(9) 0.8756(9)
H1_2 H 0.158674 0.348183 0.855904
O5_2 O 0.1789(7) 0.1652(4) 0.8919(4)
H3_2 H 0.260085 0.162797 0.929776
H4_2 H 0.185277 0.203967 0.849529
O6_2 O 0.0148(8) 0.3481(4) 0.9289(5)
C10_2 C 0.6010(11) 0.4463(6) 0.9734(7)
H6_2 H 0.672183 0.410680 0.957106
C11_2 C 0.176(3) 0.4972(13) 0.7899(13)
H9 H 0.238321 0.538767 0.825549
H10 H 0.121939 0.525579 0.736143
H11_2 H 0.231153 0.450621 0.770192
H12_2 H 0.387490 0.291860 0.994540
H13_2 H 0.552528 0.283247 0.995057
N3_2 N 0.0804(13) 0.4630(6) 0.8453(7)
H16 H 0.027868 0.567288 0.906246
N4 N 0.3595(7) 0.7099(5) 0.8302(4)
O10 O 0.1172(6) 0.7120(4) 0.6908(4)
N5 N 0.4962(7) 0.7117(4) 0.8752(4)
O11 O 0.2510(6) 0.7364(4) 0.5837(4)
C14 C 0.2380(9) 0.7240(5) 0.6682(5)
O12 O 0.8002(6) 0.7428(4) 0.9302(4)
C15 C 0.7507(9) 0.7313(6) 0.8469(6)
C16 C 0.5116(8) 0.7315(5) 0.7287(5)
H17 H 0.545417 0.740871 0.673315
C17 C 0.5918(8) 0.7232(5) 0.8160(5)
C18 C 0.3686(9) 0.7228(5) 0.7398(6)
C19 C 0.5092(8) 0.5907(5) 0.9890(5)
C20 C 0.6072(11) 0.5347(6) 0.9598(7)
H18 H 0.678683 0.557551 0.930435
O13 O 0.8236(7) 0.7273(5) 0.7819(4)
C22 C 0.5189(9) 0.6878(5) 0.9754(5)
Dy3 Dy 0.00480(4) 0.70241(3) 0.52705(3)
Dy1 Dy 0.99520(4) 0.20241(3) 0.97295(3)
O4 O 0.8821(7) 0.0645(4) 0.9265(5)
C13 C 0.980(3) 0.5207(14) 0.869(3)
H14 H 0.918488 0.490284 0.904661
H15 H 0.923350 0.544259 0.813825
O20 O 0.8828(6) 0.2120(4) 0.8092(4)
O22 O 0.7490(6) 0.2364(4) 0.9163(4)
C5 C 0.9377(10) 0.9954(7) 0.9596(7)
O9 O 0.9029(7) 0.9181(4) 0.9346(5)
O4_2 O 0.1179(7) 0.5645(4) 0.5735(5)
C5_2 C 0.0623(10) 0.4954(7) 0.5404(7)
O7 O 0.0886(7) 0.7457(5) 0.3921(4)
H7 H 0.152218 0.708420 0.378733
H8 H 0.129207 0.797351 0.399383
O9_2 O 0.0971(7) 0.4181(4) 0.5654(5)
H14_2 H 0.081512 0.990284 0.595339
C24_2 C 0.0895(15) 0.1168(9) 0.3756(9)
H22_2 H 0.158674 0.151817 0.355904
O16_2 O 0.1789(7) 0.3348(4) 0.3919(4)
H23_2 H 0.260085 0.337203 0.429776
H24_2 H 0.185277 0.296033 0.349529
O17_2 O 0.0148(8) 0.1519(4) 0.4289(5)
C25_2 C 0.176(3) 0.0028(13) 0.2899(13)
H29_2 H 0.231153 0.049379 0.270192
N6_2 N 0.0804(13) 0.0370(6) 0.3453(7)
O23 O 0.1998(6) 0.2428(4) 0.5698(4)
H9_2 H 0.761679 0.038767 0.674451
H10_2 H 0.878061 0.025579 0.763857
H16_2 H 0.972132 0.067288 0.593754
N4_2 N 0.6405(7) 0.2099(5) 0.6698(4)
N5_2 N 0.5038(7) 0.2117(4) 0.6248(4)
C14_2 C 0.7620(9) 0.2240(5) 0.8318(5)
C15_2 C 0.2493(9) 0.2313(6) 0.6531(6)
C16_2 C 0.4884(8) 0.2315(5) 0.7713(5)
H17_2 H 0.454583 0.240871 0.826685
C17_2 C 0.4082(8) 0.2232(5) 0.6840(5)
C18_2 C 0.6314(9) 0.2228(5) 0.7602(6)
C19_2 C 0.4908(8) 0.0907(5) 0.5110(5)
C20_2 C 0.3928(11) 0.0347(6) 0.5402(7)
H18_2 H 0.321317 0.057551 0.569565
C21_2 C 0.6010(11) 0.0537(6) 0.4734(7)
H19_2 H 0.672183 0.089320 0.457106
O13_2 O 0.1764(7) 0.2273(5) 0.7181(4)
C22_2 C 0.4811(9) 0.1878(5) 0.5246(5)
H20_2 H 0.387490 0.208140 0.494540
H21_2 H 0.552528 0.216753 0.495057
O18_2 O 0.0886(7) 0.7543(5) 0.8921(4)
H25_2 H 0.152218 0.791580 0.878733
H26_2 H 0.129207 0.702649 0.899383
O7_2 O 0.9114(7) 0.2457(5) 0.1079(4)
H7_2 H 0.847782 0.208420 0.121267
H8_2 H 0.870793 0.297351 0.100617
C13_2 C 0.020(3) 0.0207(14) 0.631(3)
H15_2 H 0.076650 0.044259 0.686175
C26_2 C 0.980(3) 0.9793(14) 0.369(3)
H31_2 H 0.923350 0.955741 0.313825
loop_
_geom_bond_atom_site_label_1
_geom_bond_atom_site_label_2
_geom_bond_site_symmetry_1
_geom_bond_site_symmetry_2
N1 N2 1_555 1_555
O1 C2 1_555 1_555
N2 C6 1_555 1_555
O2 C2 1_555 1_555
C2 C7 1_555 1_555
O3 C3 1_555 1_555
C3 C6 1_555 1_555
C4 H2 1_555 1_555
C6 C4 1_555 1_555
C7 N1 1_555 1_555
C8 C9 1_555 1_555
C9 H5 1_555 1_555
O8 C3 1_555 1_555
C12 N2 1_555 1_555
C21 C9 1_555 1_555
H19 C21 1_555 1_555
Dy5 O1 1_555 1_555
O2 Dy5 1_555 1_555
C4 C7 1_555 1_555
C8 C12 1_555 1_555
C23 O15 1_555 1_555
H30 C26 1_555 1_555
H31 C26 1_555 1_555
O19 Dy4 1_555 1_555
O21 Dy4 1_555 1_555
O14 Dy4 1_555 1_555
C24 H22 1_555 1_555
H23 O16 1_555 1_555
H24 O16 1_555 1_555
C25 H27 1_555 1_555
H28 C25 1_555 1_555
H29 C25 1_555 1_555
N6 C24 1_555 1_555
C24 O17 1_555 1_555
C25 N6 1_555 1_555
C1 H1 1_555 1_555
N1_2 N2_2 1_555 1_555
O19 C2_2 1_555 1_555
N2_2 C6_2 1_555 1_555
O21 C2_2 1_555 1_555
C2_2 C7_2 1_555 1_555
O3_2 C3_2 1_555 1_555
C3_2 C6_2 1_555 1_555
C4_2 H2_2 1_555 1_555
C6_2 C4_2 1_555 1_555
C7_2 N1_2 1_555 1_555
H3 O5 1_555 1_555
H4 O5 1_555 1_555
C8_2 C9_2 1_555 1_555
C9_2 H5_2 1_555 1_555
C10 C8_2 1_555 1_555
H6 C10 1_555 1_555
H11 C11 1_555 1_555
O8_2 C3_2 1_555 1_555
C12_2 N2_2 1_555 1_555
H12 C12_2 1_555 1_555
H13 C12_2 1_555 1_555
N3 C1 1_555 1_555
O14_2 C23_2 1_555 1_555
O18 Dy5 1_555 1_555
H25 O18 1_555 1_555
H26 O18 1_555 1_555
C1 O6 1_555 1_555
C4_2 C7_2 1_555 1_555
C8_2 C12_2 1_555 1_555
C11 N3 1_555 1_555
O14_2 Dy5 1_555 1_555
C23_2 O15_2 1_555 1_555
C1_2 H1_2 1_555 1_555
H3_2 O5_2 1_555 1_555
H4_2 O5_2 1_555 1_555
H6_2 C10_2 1_555 1_555
C11_2 H9 1_555 1_555
H10 C11_2 1_555 1_555
H11_2 C11_2 1_555 1_555
N3_2 C1_2 1_555 1_555
N4 N5 1_555 1_555
O10 C14 1_555 1_555
N5 C17 1_555 1_555
O11 C14 1_555 1_555
C14 C18 1_555 1_555
O12 C15 1_555 1_555
C15 C17 1_555 1_555
C16 H17 1_555 1_555
C17 C16 1_555 1_555
C18 N4 1_555 1_555
C19 C20 1_555 1_555
C20 C10_2 1_555 1_555
H18 C20 1_555 1_555
O13 C15 1_555 1_555
C22 N5 1_555 1_555
Dy3 O10 1_555 1_555
C1_2 O6_2 1_555 1_555
C11_2 N3_2 1_555 1_555
O11 Dy3 1_555 1_555
C16 C18 1_555 1_555
C19 C22 1_555 1_555
O4 Dy1 1_555 1_555
H14 C13 1_555 1_555
H15 C13 1_555 1_555
O20 Dy1 1_555 1_555
O22 Dy1 1_555 1_555
O9 C5 1_555 1_555
O4_2 Dy3 1_555 1_555
C5_2 O4_2 1_555 1_555
O7 Dy3 1_555 1_555
H7 O7 1_555 1_555
H8 O7 1_555 1_555
O9_2 C5_2 1_555 1_555
C24_2 H22_2 1_555 1_555
H23_2 O16_2 1_555 1_555
H24_2 O16_2 1_555 1_555
H29_2 C25_2 1_555 1_555
N6_2 C24_2 1_555 1_555
C24_2 O17_2 1_555 1_555
C25_2 N6_2 1_555 1_555
N4_2 N5_2 1_555 1_555
O20 C14_2 1_555 1_555
N5_2 C17_2 1_555 1_555
O22 C14_2 1_555 1_555
C14_2 C18_2 1_555 1_555
O23 C15_2 1_555 1_555
C15_2 C17_2 1_555 1_555
C16_2 H17_2 1_555 1_555
C17_2 C16_2 1_555 1_555
C18_2 N4_2 1_555 1_555
C19_2 C20_2 1_555 1_555
H18_2 C20_2 1_555 1_555
H19_2 C21_2 1_555 1_555
O13_2 C15_2 1_555 1_555
C22_2 N5_2 1_555 1_555
H20_2 C22_2 1_555 1_555
H21_2 C22_2 1_555 1_555
C16_2 C18_2 1_555 1_555
C19_2 C21_2 1_555 1_555
C19_2 C22_2 1_555 1_555
H25_2 O18_2 1_555 1_555
H26_2 O18_2 1_555 1_555
H7_2 O7_2 1_555 1_555
H8_2 O7_2 1_555 1_555
H15_2 C13_2 1_555 1_555
H31_2 C26_2 1_555 1_555

#END
