
###############################################################################
#
# This file contains modified crystal structure data generated from the
# MOF subset of the Cambridge Structural Database (CSD) v543 
# hosted by the Cambridge Crystallographic Data Centre (CCDC).
#
# This work is licensed under the Creative Commons
# Attribution-NonCommercial-ShareAlike 4.0 International License.
# To view a copy of this license, visit
# http://creativecommons.org/licenses/by-nc-sa/4.0/
# or send a letter to
# Creative Commons, PO Box 1866, Mountain View, CA 94042, USA.
#
# CIF created using the CSD Python API on 29 September 2022
# The structure has been converted into the P1 space group
# The structure has a 3D framework
# The original CSD entry RUJREW is in the monoclinic crystal system
# The framework has been calculated to contain at least 10.0% void space
# The void calculation uses a probe of radius 1.32A, grid spacing 0.4
#
###############################################################################

data_RUJREW
_chemical_formula_moiety         '(C52 H64 N16 O35 Tb4)n'
_symmetry_cell_setting           triclinic
_symmetry_space_group_name_H-M   'P 1'
_symmetry_Int_Tables_number      1
_space_group_name_Hall           'P 1'
loop_
_symmetry_equiv_pos_site_id
_symmetry_equiv_pos_as_xyz
1 x,y,z
_cell_length_a                   9.418(15)
_cell_length_b                   15.23(2)
_cell_length_c                   14.47(2)
_cell_angle_alpha                90
_cell_angle_beta                 100.07(3)
_cell_angle_gamma                90
_cell_volume                     2043.55
loop_
_atom_site_label
_atom_site_type_symbol
_atom_site_fract_x
_atom_site_fract_y
_atom_site_fract_z
Tb1 Tb 0.49524(9) 0.20255(6) 0.47224(6)
O1 O 0.2498(14) 0.2377(9) 0.4170(8)
O2 O 0.3816(12) 0.2129(8) 0.3071(8)
O5 O 0.3829(17) 0.0608(9) 0.4247(11)
O6 O 0.4113(15) 0.2480(10) 0.6101(11)
H1 H 0.336110 0.286249 0.597786
H2 H 0.481012 0.275568 0.651237
O8 O 0.6806(15) 0.1660(9) 0.3882(10)
H3 H 0.695244 0.109750 0.390581
H4 H 0.760316 0.192107 0.412414
O9 O 0.514(2) 0.3524(10) 0.4300(13)
N1 N 0.1398(17) 0.2096(10) 0.1695(10)
N2 N 0.0000(16) 0.2112(10) 0.1225(11)
N3 N 0.583(3) 0.4665(14) 0.343(2)
C1 C 0.2597(18) 0.2256(10) 0.3347(14)
C2 C 0.1332(19) 0.2235(12) 0.2608(13)
C11 C 0.587(4) 0.3727(15) 0.372(3)
H10 H 0.643362 0.331766 0.346729
C12 C 0.696(4) 0.501(2) 0.294(3)
H11 H 0.757919 0.539378 0.335577
H12 H 0.651575 0.532555 0.239561
H13 H 0.750949 0.452854 0.276268
C13 C 0.452(3) 0.516(2) 0.357(3)
H14 H 0.368239 0.488634 0.321827
H15 H 0.458977 0.575432 0.335311
H16 H 0.445636 0.516662 0.422325
C23 C 0.564(2) 0.0069(14) 0.5417(14)
O15 O 0.5973(16) 0.0809(10) 0.5632(10)
O20 O 0.7027(14) 0.2597(9) 0.5689(9)
O7 O 0.4027(16) 0.9191(10) 0.4368(10)
C10 C 0.436(2) 0.9931(14) 0.4583(14)
H19 H 0.114320 0.789761 0.003898
O14 O 0.6171(17) 0.9392(9) 0.5753(11)
Tb3 Tb 0.50476(9) 0.70255(6) 0.02776(6)
Tb4 Tb 0.50476(9) 0.79745(6) 0.52776(6)
O12 O 0.3271(15) 0.7739(11) 0.7846(10)
O13 O 0.2973(14) 0.7597(9) 0.9311(9)
N5 N 0.0000(16) 0.7888(10) 0.8775(11)
C16 C 0.0116(17) 0.7659(11) 0.7286(12)
H17 H 0.046045 0.753871 0.673497
C17 C 0.090(2) 0.7768(13) 0.8159(14)
C18 C 0.2483(19) 0.7703(12) 0.8456(15)
C19 C 0.020(2) 0.8098(12) 0.9734(13)
C20 C 0.008(2) 0.9089(13) 0.9886(13)
C21 C 0.106(2) 0.9643(13) 0.9592(16)
H20 H 0.176046 0.940493 0.928537
O3 O 0.6729(15) 0.2261(11) 0.2154(10)
O4 O 0.7027(14) 0.2403(9) 0.0689(9)
N2_2 N 1.0000(16) 0.2112(10) 0.1225(11)
C3 C 0.9884(17) 0.2341(11) 0.2714(12)
H5 H 0.953955 0.246129 0.326503
C4 C 0.910(2) 0.2232(13) 0.1841(14)
C5 C 0.7517(19) 0.2297(12) 0.1544(15)
C6 C 0.980(2) 0.1902(12) 0.0266(13)
C7 C 0.992(2) 0.0911(13) 0.0114(13)
C8 C 0.894(2) 0.0357(13) 0.0408(16)
H8 H 0.823954 0.059507 0.071463
H7 H 0.885680 0.210239 0.996102
Tb5 Tb 0.49524(9) 0.29745(6) 0.97224(6)
O10 O 0.7502(14) 0.7623(9) 0.5830(8)
O11 O 0.6184(12) 0.7871(8) 0.6929(8)
N4 N 0.8602(17) 0.7904(10) 0.8305(10)
N5_2 N 1.0000(16) 0.7888(10) 0.8775(11)
C14 C 0.7403(18) 0.7744(10) 0.6653(14)
C15 C 0.8668(19) 0.7765(12) 0.7392(13)
O16 O 0.5887(15) 0.7520(10) 0.3899(11)
H22 H 0.663890 0.713751 0.402214
H23 H 0.518988 0.724432 0.348763
O17 O 0.3194(15) 0.8340(9) 0.6118(10)
H24 H 0.304756 0.890250 0.609419
H25 H 0.239684 0.807893 0.587586
O18 O 0.486(2) 0.6476(10) 0.5700(13)
N6 N 0.417(3) 0.5335(14) 0.657(2)
C24 C 0.413(4) 0.6273(15) 0.628(3)
H26 H 0.356638 0.668234 0.653271
C25 C 0.304(4) 0.499(2) 0.706(3)
H27 H 0.242081 0.460622 0.664423
H28 H 0.348425 0.467445 0.760439
H29 H 0.249051 0.547146 0.723732
C26 C 0.548(3) 0.484(2) 0.643(3)
H30 H 0.631761 0.511366 0.678173
H31 H 0.541023 0.424568 0.664689
H32 H 0.554364 0.483338 0.577675
O19 O 0.2973(14) 0.7403(9) 0.4311(9)
O16_2 O 0.4113(15) 0.2520(10) 0.1101(11)
H22_2 H 0.336110 0.213751 0.097786
H23_2 H 0.481012 0.224432 0.151237
O22 O 0.5973(16) 0.4191(10) 0.0632(10)
O3_2 O 0.3271(15) 0.7261(11) 0.2846(10)
N2_3 N -0.0000(16) 0.7112(10) 0.3775(11)
C3_2 C 0.0116(17) 0.7341(11) 0.2286(12)
H5_2 H 0.046045 0.746129 0.173497
C4_2 C 0.090(2) 0.7232(13) 0.3159(14)
C5_2 C 0.2483(19) 0.7297(12) 0.3456(15)
C6_2 C 0.020(2) 0.6902(12) 0.4734(13)
H7_2 H 0.114320 0.710239 0.503898
C7_2 C 0.008(2) 0.5911(13) 0.4886(13)
C8_2 C 0.106(2) 0.5357(13) 0.4592(16)
H8_2 H 0.176046 0.559507 0.428537
O10_2 O 0.2498(14) 0.2623(9) 0.9170(8)
O11_2 O 0.3816(12) 0.2871(8) 0.8071(8)
N4_2 N 0.1398(17) 0.2904(10) 0.6695(10)
N5_3 N 0.0000(16) 0.2888(10) 0.6225(11)
C14_2 C 0.2597(18) 0.2744(10) 0.8347(14)
C15_2 C 0.1332(19) 0.2765(12) 0.7608(13)
H18 H 0.051946 0.279470 0.497940
C22 C 0.105(3) 0.4456(16) 0.4737(18)
H21 H 0.178694 0.410396 0.458523
O17_2 O 0.6806(15) 0.3340(9) 0.8882(10)
H24_2 H 0.695244 0.390250 0.890581
H25_2 H 0.760316 0.307893 0.912414
O18_2 O 0.514(2) 0.1476(10) 0.9300(13)
N6_2 N 0.583(3) 0.0335(14) 0.843(2)
C24_2 C 0.587(4) 0.1273(15) 0.872(3)
H26_2 H 0.643362 0.168234 0.846729
H29_2 H 0.750949 0.047146 0.776268
H30_2 H 0.368239 0.011366 0.821827
O21 O 0.3829(17) 0.4392(9) 0.9247(11)
O1_2 O 0.7502(14) 0.7377(9) 0.0830(8)
O2_2 O 0.6184(12) 0.7129(8) 0.1929(8)
O5_2 O 0.6171(17) 0.5608(9) 0.0753(11)
O8_2 O 0.3194(15) 0.6660(9) 0.1118(10)
H3_2 H 0.304756 0.609750 0.109419
H4_2 H 0.239684 0.692107 0.087586
O9_2 O 0.486(2) 0.8524(10) 0.0700(13)
N1_2 N 0.8602(17) 0.7096(10) 0.3305(10)
N2_4 N 1.0000(16) 0.7112(10) 0.3775(11)
N3_2 N 0.417(3) 0.9665(14) 0.157(2)
C1_2 C 0.7403(18) 0.7256(10) 0.1653(14)
C2_2 C 0.8668(19) 0.7235(12) 0.2392(13)
H6 H 0.948054 0.720530 0.502060
C9 C 0.895(3) 0.5544(16) 0.5263(18)
H9 H 0.821306 0.589604 0.541477
C10_2 C 0.564(2) 0.4931(14) 0.0417(14)
C11_2 C 0.413(4) 0.8727(15) 0.128(3)
H10_2 H 0.356638 0.831766 0.153271
H13_2 H 0.249051 0.952854 0.223732
H14_2 H 0.631761 0.988634 0.178173
O12_2 O 0.6729(15) 0.2739(11) 0.7154(10)
N5_4 N 1.0000(16) 0.2888(10) 0.6225(11)
C16_2 C 0.9884(17) 0.2659(11) 0.7714(12)
H17_2 H 0.953955 0.253871 0.826503
C17_2 C 0.910(2) 0.2768(13) 0.6841(14)
C18_2 C 0.7517(19) 0.2703(12) 0.6544(15)
C19_2 C 0.980(2) 0.3098(12) 0.5266(13)
H19_2 H 0.885680 0.289761 0.496102
C20_2 C 0.992(2) 0.4089(13) 0.5114(13)
C21_2 C 0.894(2) 0.4643(13) 0.5408(16)
H20_2 H 0.823954 0.440493 0.571463
O6_2 O 0.5887(15) 0.7480(10) 0.8899(11)
H1_2 H 0.663890 0.786249 0.902214
H2_2 H 0.518988 0.775568 0.848763
C23_2 C 0.436(2) 0.5069(14) 0.9583(14)
O15_2 O 0.4027(16) 0.5809(10) 0.9368(10)
H6_2 H 0.051946 0.220530 0.997940
C9_2 C 0.105(3) 0.0544(16) 0.9737(18)
H9_2 H 0.178694 0.089604 0.958523
H18_2 H 0.948054 0.779470 0.002060
C22_2 C 0.895(3) 0.9456(16) 0.0263(18)
H21_2 H 0.821306 0.910396 0.041477
C25_2 C 0.696(4) 0.999(2) 0.794(3)
H27_2 H 0.757919 0.960622 0.835577
H28_2 H 0.651575 0.967445 0.739561
C26_2 C 0.452(3) 0.984(2) 0.857(3)
H31_2 H 0.458977 0.924568 0.835311
H32_2 H 0.445636 0.983338 0.922325
C12_2 C 0.304(4) 0.001(2) 0.206(3)
H11_2 H 0.242081 0.039378 0.164423
H12_2 H 0.348425 0.032555 0.260439
C13_2 C 0.548(3) 0.016(2) 0.143(3)
H15_2 H 0.541023 0.075432 0.164689
H16_2 H 0.554364 0.016662 0.077675
loop_
_geom_bond_atom_site_label_1
_geom_bond_atom_site_label_2
_geom_bond_site_symmetry_1
_geom_bond_site_symmetry_2
Tb1 O1 1_555 1_555
O1 C1 1_555 1_555
O2 Tb1 1_555 1_555
O5 Tb1 1_555 1_555
O6 Tb1 1_555 1_555
H1 O6 1_555 1_555
H2 O6 1_555 1_555
O8 Tb1 1_555 1_555
H3 O8 1_555 1_555
H4 O8 1_555 1_555
O9 Tb1 1_555 1_555
N1 N2 1_555 1_555
N3 C11 1_555 1_555
C1 O2 1_555 1_555
C2 N1 1_555 1_555
C11 O9 1_555 1_555
H10 C11 1_555 1_555
C12 N3 1_555 1_555
H11 C12 1_555 1_555
H12 C12 1_555 1_555
H13 C12 1_555 1_555
C13 N3 1_555 1_555
H14 C13 1_555 1_555
H15 C13 1_555 1_555
H16 C13 1_555 1_555
O15 Tb1 1_555 1_555
O20 Tb1 1_555 1_555
C1 C2 1_555 1_555
C23 O15 1_555 1_555
O7 C10 1_555 1_555
Tb4 O7 1_555 1_555
O14 Tb4 1_555 1_555
O12 C18 1_555 1_555
O13 C18 1_555 1_555
N5 C17 1_555 1_555
H17 C16 1_555 1_555
C17 C16 1_555 1_555
C18 C17 1_555 1_555
C19 N5 1_555 1_555
C20 C19 1_555 1_555
H20 C21 1_555 1_555
C20 C21 1_555 1_555
O3 C5 1_555 1_555
O4 C5 1_555 1_555
N2_2 C4 1_555 1_555
H5 C3 1_555 1_555
C4 C3 1_555 1_555
C5 C4 1_555 1_555
C6 N2_2 1_555 1_555
C7 C6 1_555 1_555
C8 C7 1_555 1_555
H8 C8 1_555 1_555
O10 C14 1_555 1_555
O11 C14 1_555 1_555
N4 N5_2 1_555 1_555
C14 C15 1_555 1_555
C15 N4 1_555 1_555
Tb4 O10 1_555 1_555
O16 Tb4 1_555 1_555
H22 O16 1_555 1_555
H23 O16 1_555 1_555
O17 Tb4 1_555 1_555
H24 O17 1_555 1_555
H25 O17 1_555 1_555
O18 Tb4 1_555 1_555
N6 C24 1_555 1_555
C24 O18 1_555 1_555
H26 C24 1_555 1_555
C25 N6 1_555 1_555
H27 C25 1_555 1_555
H28 C25 1_555 1_555
H29 C25 1_555 1_555
C26 N6 1_555 1_555
H30 C26 1_555 1_555
H31 C26 1_555 1_555
H32 C26 1_555 1_555
O19 Tb4 1_555 1_555
O11 Tb4 1_555 1_555
H22_2 O16_2 1_555 1_555
H23_2 O16_2 1_555 1_555
O3_2 C5_2 1_555 1_555
O19 C5_2 1_555 1_555
N2_3 C4_2 1_555 1_555
H5_2 C3_2 1_555 1_555
C4_2 C3_2 1_555 1_555
C5_2 C4_2 1_555 1_555
C6_2 N2_3 1_555 1_555
H7_2 C6_2 1_555 1_555
C7_2 C6_2 1_555 1_555
C8_2 C7_2 1_555 1_555
H8_2 C8_2 1_555 1_555
O10_2 C14_2 1_555 1_555
O11_2 C14_2 1_555 1_555
N4_2 N5_3 1_555 1_555
C14_2 C15_2 1_555 1_555
C15_2 N4_2 1_555 1_555
C22 C8_2 1_555 1_555
H21 C22 1_555 1_555
Tb5 O10_2 1_555 1_555
O17_2 Tb5 1_555 1_555
H24_2 O17_2 1_555 1_555
H25_2 O17_2 1_555 1_555
O18_2 Tb5 1_555 1_555
N6_2 C24_2 1_555 1_555
C24_2 O18_2 1_555 1_555
H26_2 C24_2 1_555 1_555
O21 Tb5 1_555 1_555
O11_2 Tb5 1_555 1_555
Tb3 O1_2 1_555 1_555
O1_2 C1_2 1_555 1_555
O2_2 Tb3 1_555 1_555
O5_2 Tb3 1_555 1_555
O22 C10_2 1_555 1_555
O8_2 Tb3 1_555 1_555
H3_2 O8_2 1_555 1_555
H4_2 O8_2 1_555 1_555
O9_2 Tb3 1_555 1_555
N1_2 N2_4 1_555 1_555
N3_2 C11_2 1_555 1_555
C1_2 O2_2 1_555 1_555
C2_2 N1_2 1_555 1_555
H9 C9 1_555 1_555
C10_2 O5_2 1_555 1_555
C11_2 O9_2 1_555 1_555
H10_2 C11_2 1_555 1_555
O12_2 C18_2 1_555 1_555
O20 C18_2 1_555 1_555
N5_4 C17_2 1_555 1_555
H17_2 C16_2 1_555 1_555
C17_2 C16_2 1_555 1_555
C18_2 C17_2 1_555 1_555
C19_2 N5_4 1_555 1_555
H19_2 C19_2 1_555 1_555
C20_2 C19_2 1_555 1_555
C21_2 C9 1_555 1_555
H20_2 C21_2 1_555 1_555
C1_2 C2_2 1_555 1_555
C20_2 C21_2 1_555 1_555
H1_2 O6_2 1_555 1_555
H2_2 O6_2 1_555 1_555
O21 C23_2 1_555 1_555
C23_2 O15_2 1_555 1_555
H9_2 C9_2 1_555 1_555
H21_2 C22_2 1_555 1_555
H27_2 C25_2 1_555 1_555
H28_2 C25_2 1_555 1_555
H31_2 C26_2 1_555 1_555
H32_2 C26_2 1_555 1_555
H11_2 C12_2 1_555 1_555
H12_2 C12_2 1_555 1_555
H15_2 C13_2 1_555 1_555
H16_2 C13_2 1_555 1_555

#END
