
###############################################################################
#
# This file contains modified crystal structure data generated from the
# MOF subset of the Cambridge Structural Database (CSD) v543 
# hosted by the Cambridge Crystallographic Data Centre (CCDC).
#
# This work is licensed under the Creative Commons
# Attribution-NonCommercial-ShareAlike 4.0 International License.
# To view a copy of this license, visit
# http://creativecommons.org/licenses/by-nc-sa/4.0/
# or send a letter to
# Creative Commons, PO Box 1866, Mountain View, CA 94042, USA.
#
# CIF created using the CSD Python API on 29 September 2022
# The structure has been converted into the P1 space group
# The structure has a 3D framework
# The original CSD entry RUJZUU is in the monoclinic crystal system
# The framework has been calculated to contain at least 10.0% void space
# The void calculation uses a probe of radius 1.32A, grid spacing 0.4
#
###############################################################################

data_RUJZUU
_chemical_formula_moiety         '(C136 H88 N16 O20 Zn4)n'
_symmetry_cell_setting           triclinic
_symmetry_space_group_name_H-M   'P 1'
_symmetry_Int_Tables_number      1
_space_group_name_Hall           'P 1'
loop_
_symmetry_equiv_pos_site_id
_symmetry_equiv_pos_as_xyz
1 x,y,z
_cell_length_a                   14.296(4)
_cell_length_b                   14.748(4)
_cell_length_c                   16.124(5)
_cell_angle_alpha                90
_cell_angle_beta                 106.712(19)
_cell_angle_gamma                90
_cell_volume                     3255.95
loop_
_atom_site_label
_atom_site_type_symbol
_atom_site_fract_x
_atom_site_fract_y
_atom_site_fract_z
Zn6 Zn 0.09680(6) 0.43933(6) 0.40488(6)
O11 O 0.0438(4) 0.9288(4) 0.1199(4)
C1 C 0.5855(5) 0.1010(5) 0.5463(5)
Zn1 Zn 0.09680(6) 0.06067(6) 0.90488(6)
C6 C 0.2153(6) 0.0803(5) 0.7786(6)
H4 H 0.271773 0.060083 0.819080
N1 N 0.8871(4) 0.4233(4) 0.5906(4)
O4 O 0.2916(4) 0.0642(4) 0.9746(4)
N2 N 0.8132(4) 0.2921(4) 0.5821(4)
C7 C 0.7343(5) 0.2262(5) 0.5734(5)
N3 N 0.1335(5) 0.0956(5) 0.7989(5)
C8 C 0.4267(5) 0.0499(5) 0.5731(5)
C9 C 0.9071(5) 0.2755(6) 0.5786(6)
H5 H 0.934019 0.219065 0.573426
C10 C 0.5046(6) 0.0333(5) 0.5289(5)
C11 C 0.6400(5) 0.2503(5) 0.5264(5)
H6 H 0.626309 0.308412 0.503784
C13 C 0.8035(6) 0.3815(5) 0.5868(5)
H8 H 0.746076 0.410817 0.587352
N4 N 0.2116(5) 0.0955(5) 0.6981(5)
C16 C 0.2745(6) 0.1167(6) 0.5762(6)
H9 H 0.219891 0.151346 0.549151
C17 C 0.4362(5) 0.0149(5) 0.6535(5)
C21 C 0.7545(6) 0.1428(5) 0.6089(6)
H12 H 0.817233 0.127413 0.641878
C22 C 0.5670(5) 0.1860(5) 0.5138(5)
H13 H 0.503623 0.201474 0.482425
C23 C 0.2862(6) 0.0800(5) 0.6565(5)
C25 C 0.3659(6) 0.0287(5) 0.6957(6)
H14 H 0.372884 0.003359 0.749987
C28 C 0.3471(6) 0.1005(5) 0.5366(6)
H17 H 0.340554 0.125736 0.482324
C31 C 0.6783(7) 0.0807(5) 0.5944(6)
H19 H 0.691052 0.023141 0.618512
C32 C 0.9532(6) 0.3575(5) 0.5844(6)
C33 C 0.0771(10) 0.1382(9) 0.7274(9)
H21 H 0.017153 0.165344 0.723176
C34 C 0.1224(9) 0.1354(9) 0.6606(9)
H22 H 0.097648 0.155964 0.603965
H25 H 0.508657 0.019072 0.319450
Zn4 Zn 0.90320(6) 0.56067(6) 0.59512(6)
N10 N 0.8871(4) 0.0767(4) 0.0906(4)
H10 H 0.491343 0.980928 0.680550
C35 C 0.7847(6) 0.9197(5) 0.2214(6)
H23 H 0.728227 0.939917 0.180920
N5 N 0.8665(5) 0.9044(5) 0.2011(5)
C36 C 0.5733(5) 0.9501(5) 0.4269(5)
C37 C 0.4954(6) 0.9667(5) 0.4711(5)
N6 N 0.7884(5) 0.9045(5) 0.3019(5)
C38 C 0.7255(6) 0.8833(6) 0.4238(6)
H24 H 0.780109 0.848654 0.450849
C39 C 0.5638(5) 0.9851(5) 0.3465(5)
C40 C 0.7138(6) 0.9200(5) 0.3435(5)
C41 C 0.6341(6) 0.9713(5) 0.3043(6)
H26 H 0.627116 0.996641 0.250013
C42 C 0.6529(6) 0.8995(5) 0.4634(6)
H27 H 0.659446 0.874264 0.517676
C43 C 0.9229(10) 0.8618(9) 0.2726(9)
H28 H 0.982847 0.834656 0.276824
C44 C 0.8776(9) 0.8646(9) 0.3394(9)
H29 H 0.902352 0.844036 0.396035
C45 C 0.4145(5) 0.8990(5) 0.4537(5)
N7 N 0.1129(4) 0.5767(4) 0.4094(4)
N8 N 0.1868(4) 0.7079(4) 0.4179(4)
C46 C 0.2657(5) 0.7738(5) 0.4266(5)
C47 C 0.0929(5) 0.7245(6) 0.4214(6)
H30 H 0.065981 0.780935 0.426574
C48 C 0.3600(5) 0.7497(5) 0.4736(5)
H31 H 0.373691 0.691588 0.496216
C49 C 0.1965(6) 0.6185(5) 0.4132(5)
H32 H 0.253924 0.589183 0.412648
C50 C 0.2455(6) 0.8572(5) 0.3911(6)
H33 H 0.182767 0.872587 0.358122
C51 C 0.4330(5) 0.8140(5) 0.4862(5)
H34 H 0.496377 0.798526 0.517575
C52 C 0.3217(7) 0.9193(5) 0.4056(6)
H35 H 0.308948 0.976859 0.381488
C53 C 0.0468(6) 0.6425(5) 0.4156(6)
Zn2 Zn 0.90320(6) 0.93933(6) 0.09512(6)
O9 O 0.7084(4) 0.9358(4) 0.0254(4)
N9 N 0.1129(4) 0.9233(4) 0.9094(4)
O12 O 0.9562(4) 0.0712(4) 0.8801(4)
H36 H 0.017434 0.132904 0.084091
H13_2 H 0.496377 0.701474 0.017575
H17_2 H 0.659446 0.625736 0.017676
C35_2 C 0.2153(6) 0.4197(5) 0.2786(6)
H23_2 H 0.271773 0.439917 0.319080
N5_2 N 0.1335(5) 0.4044(5) 0.2989(5)
C36_2 C 0.4267(5) 0.4501(5) 0.0731(5)
C37_2 C 0.5046(6) 0.4667(5) 0.0289(5)
N6_2 N 0.2116(5) 0.4045(5) 0.1981(5)
C38_2 C 0.2745(6) 0.3833(6) 0.0762(6)
H24_2 H 0.219891 0.348654 0.049151
C39_2 C 0.4362(5) 0.4851(5) 0.1535(5)
H25_2 H 0.491343 0.519072 0.180550
C40_2 C 0.2862(6) 0.4200(5) 0.1565(5)
C41_2 C 0.3659(6) 0.4713(5) 0.1957(6)
H26_2 H 0.372884 0.496641 0.249987
C42_2 C 0.3471(6) 0.3995(5) 0.0366(6)
C43_2 C 0.0771(10) 0.3618(9) 0.2274(9)
H28_2 H 0.017153 0.334656 0.223176
C44_2 C 0.1224(9) 0.3646(9) 0.1606(9)
H29_2 H 0.097648 0.344036 0.103965
C45_2 C 0.5855(5) 0.3990(5) 0.0463(5)
N8_2 N 0.8132(4) 0.2079(4) 0.0821(4)
C46_2 C 0.7343(5) 0.2738(5) 0.0734(5)
C47_2 C 0.9071(5) 0.2245(6) 0.0786(6)
H30_2 H 0.934019 0.280935 0.073426
C48_2 C 0.6400(5) 0.2497(5) 0.0264(5)
H31_2 H 0.626309 0.191588 0.003784
C49_2 C 0.8035(6) 0.1185(5) 0.0868(5)
H32_2 H 0.746076 0.089183 0.087352
C50_2 C 0.7545(6) 0.3572(5) 0.1089(6)
H33_2 H 0.817233 0.372587 0.141878
C51_2 C 0.5670(5) 0.3140(5) 0.0138(5)
C52_2 C 0.6783(7) 0.4193(5) 0.0944(6)
H35_2 H 0.691052 0.476859 0.118512
C53_2 C 0.9532(6) 0.1425(5) 0.0844(6)
C54 C 0.6167(5) 0.1918(5) 0.8238(5)
C55 C 0.6774(5) 0.2647(5) 0.8216(5)
H37 H 0.650953 0.322509 0.809637
C56 C 0.6579(5) 0.1072(5) 0.8424(5)
H38 H 0.618675 0.057828 0.845833
C57 C 0.7574(5) 0.0948(5) 0.8560(5)
H39 H 0.783894 0.036933 0.867491
O7 O 0.4724(4) 0.1623(4) 0.8604(4)
O8 O 0.1667(4) 0.3877(4) 0.5169(4)
O9_2 O 0.2916(4) 0.4358(4) 0.4746(4)
O10 O 0.9788(4) 0.2178(4) 0.8687(5)
C58 C 0.7772(5) 0.2522(5) 0.8372(5)
H40 H 0.817234 0.301888 0.837232
C59 C 0.8174(5) 0.1665(5) 0.8527(5)
C60 C 0.2565(6) 0.3956(5) 0.5272(6)
C61 C 0.3259(5) 0.3559(5) 0.6058(6)
C62 C 0.2962(5) 0.3359(5) 0.6772(6)
H41 H 0.234002 0.352888 0.678577
C63 C 0.4510(5) 0.2644(5) 0.7443(5)
C64 C 0.9269(6) 0.1545(7) 0.8686(5)
C65 C 0.3577(5) 0.2906(5) 0.7477(6)
H42 H 0.337340 0.277875 0.796292
C66 C 0.4798(5) 0.2871(6) 0.6730(5)
H43 H 0.541969 0.270845 0.670905
C67 C 0.5112(5) 0.2032(5) 0.8139(5)
C68 C 0.4188(5) 0.3334(5) 0.6043(6)
H44 H 0.440385 0.349342 0.557089
C1_2 C 0.4145(5) 0.6010(5) 0.9537(5)
C2 C 0.3833(5) 0.8082(5) 0.1762(5)
C3 C 0.3226(5) 0.7353(5) 0.1784(5)
H1 H 0.349047 0.677491 0.190363
C4 C 0.3421(5) 0.8928(5) 0.1576(5)
H2 H 0.381325 0.942172 0.154167
C5 C 0.2426(5) 0.9052(5) 0.1440(5)
H3 H 0.216106 0.963067 0.132509
C6_2 C 0.7847(6) 0.5803(5) 0.7214(6)
H4_2 H 0.728227 0.560083 0.680920
O2 O 0.5276(4) 0.8377(4) 0.1396(4)
O3 O 0.8333(4) 0.6123(4) 0.4831(4)
O4_2 O 0.7084(4) 0.5642(4) 0.5254(4)
N2_2 N 0.1868(4) 0.7921(4) 0.9179(4)
C7_2 C 0.2657(5) 0.7262(5) 0.9266(5)
N3_2 N 0.8665(5) 0.5956(5) 0.7011(5)
C8_2 C 0.5733(5) 0.5499(5) 0.9269(5)
C9_2 C 0.0929(5) 0.7755(6) 0.9214(6)
H5_2 H 0.065981 0.719065 0.926574
O5 O 0.0212(4) 0.7822(4) 0.1313(5)
C10_2 C 0.4954(6) 0.5333(5) 0.9711(5)
C11_2 C 0.3600(5) 0.7503(5) 0.9736(5)
H6_2 H 0.373691 0.808412 0.996216
C12 C 0.2228(5) 0.7478(5) 0.1628(5)
H7 H 0.182766 0.698112 0.162768
C13_2 C 0.1965(6) 0.8815(5) 0.9132(5)
H8_2 H 0.253924 0.910817 0.912648
C14 C 0.1826(5) 0.8335(5) 0.1473(5)
N4_2 N 0.7884(5) 0.5955(5) 0.8019(5)
C15 C 0.7435(6) 0.6044(5) 0.4728(6)
C16_2 C 0.7255(6) 0.6167(6) 0.9238(6)
H9_2 H 0.780109 0.651346 0.950849
C17_2 C 0.5638(5) 0.5149(5) 0.8465(5)
H10_2 H 0.508657 0.480928 0.819450
C18 C 0.6741(5) 0.6441(5) 0.3942(6)
C19 C 0.7038(5) 0.6641(5) 0.3228(6)
H11 H 0.765998 0.647112 0.321423
C20 C 0.5490(5) 0.7356(5) 0.2557(5)
C21_2 C 0.2455(6) 0.6428(5) 0.8911(6)
H12_2 H 0.182767 0.627413 0.858122
C22_2 C 0.4330(5) 0.6860(5) 0.9862(5)
C23_2 C 0.7138(6) 0.5800(5) 0.8435(5)
C24 C 0.0731(6) 0.8455(7) 0.1314(5)
C25_2 C 0.6341(6) 0.5287(5) 0.8043(6)
H14_2 H 0.627116 0.503359 0.750013
C26 C 0.6423(5) 0.7094(5) 0.2523(6)
H15 H 0.662660 0.722125 0.203708
C27 C 0.5202(5) 0.7129(6) 0.3270(5)
H16 H 0.458031 0.729155 0.329095
C28_2 C 0.6529(6) 0.6005(5) 0.9634(6)
C29 C 0.4888(5) 0.7968(5) 0.1861(5)
C30 C 0.5812(5) 0.6666(5) 0.3957(6)
H18 H 0.559615 0.650658 0.442911
C31_2 C 0.3217(7) 0.5807(5) 0.9056(6)
H19_2 H 0.308948 0.523141 0.881488
C32_2 C 0.0468(6) 0.8575(5) 0.9156(6)
C33_2 C 0.9229(10) 0.6382(9) 0.7726(9)
H21_2 H 0.982847 0.665344 0.776824
C34_2 C 0.8776(9) 0.6354(9) 0.8394(9)
H22_2 H 0.902352 0.655964 0.896035
H27_2 H 0.340554 0.374264 0.982324
H34_2 H 0.503623 0.298526 0.982425
H20 H 0.982566 0.867096 0.915909
H20_2 H 0.017434 0.367096 0.584091
C2_2 C 0.6167(5) 0.3082(5) 0.3238(5)
C3_2 C 0.6774(5) 0.2353(5) 0.3216(5)
H1_2 H 0.650953 0.177491 0.309637
C4_2 C 0.6579(5) 0.3928(5) 0.3424(5)
H2_2 H 0.618675 0.442172 0.345833
C5_2 C 0.7574(5) 0.4052(5) 0.3560(5)
H3_2 H 0.783894 0.463067 0.367491
O1 O 0.9562(4) 0.4288(4) 0.3801(4)
O2_2 O 0.4724(4) 0.3377(4) 0.3604(4)
O3_2 O 0.1667(4) 0.1123(4) 0.0169(4)
O5_2 O 0.9788(4) 0.2822(4) 0.3687(5)
C12_2 C 0.7772(5) 0.2478(5) 0.3372(5)
H7_2 H 0.817234 0.198112 0.337232
C14_2 C 0.8174(5) 0.3335(5) 0.3527(5)
C15_2 C 0.2565(6) 0.1044(5) 0.0272(6)
C18_2 C 0.3259(5) 0.1441(5) 0.1058(6)
C19_2 C 0.2962(5) 0.1641(5) 0.1772(6)
H11_2 H 0.234002 0.147112 0.178577
C20_2 C 0.4510(5) 0.2356(5) 0.2443(5)
C24_2 C 0.9269(6) 0.3455(7) 0.3686(5)
C26_2 C 0.3577(5) 0.2094(5) 0.2477(6)
H15_2 H 0.337340 0.222125 0.296292
C27_2 C 0.4798(5) 0.2129(6) 0.1730(5)
H16_2 H 0.541969 0.229155 0.170905
C29_2 C 0.5112(5) 0.2968(5) 0.3139(5)
C30_2 C 0.4188(5) 0.1666(5) 0.1043(6)
H18_2 H 0.440385 0.150658 0.057089
C54_2 C 0.3833(5) 0.6918(5) 0.6762(5)
C55_2 C 0.3226(5) 0.7647(5) 0.6784(5)
H37_2 H 0.349047 0.822509 0.690363
C56_2 C 0.3421(5) 0.6072(5) 0.6576(5)
H38_2 H 0.381325 0.557828 0.654167
C57_2 C 0.2426(5) 0.5948(5) 0.6440(5)
H39_2 H 0.216106 0.536933 0.632509
O6 O 0.0438(4) 0.5712(4) 0.6199(4)
O7_2 O 0.5276(4) 0.6623(4) 0.6396(4)
O8_2 O 0.8333(4) 0.8877(4) 0.9831(4)
O10_2 O 0.0212(4) 0.7178(4) 0.6313(5)
C58_2 C 0.2228(5) 0.7522(5) 0.6628(5)
H40_2 H 0.182766 0.801888 0.662768
C59_2 C 0.1826(5) 0.6665(5) 0.6473(5)
C60_2 C 0.7435(6) 0.8956(5) 0.9728(6)
C61_2 C 0.6741(5) 0.8559(5) 0.8942(6)
C62_2 C 0.7038(5) 0.8359(5) 0.8228(6)
H41_2 H 0.765998 0.852888 0.821423
C63_2 C 0.5490(5) 0.7644(5) 0.7557(5)
C64_2 C 0.0731(6) 0.6545(7) 0.6314(5)
C65_2 C 0.6423(5) 0.7906(5) 0.7523(6)
H42_2 H 0.662660 0.777875 0.703708
C66_2 C 0.5202(5) 0.7871(6) 0.8270(5)
H43_2 H 0.458031 0.770845 0.829095
C67_2 C 0.4888(5) 0.7032(5) 0.6861(5)
C68_2 C 0.5812(5) 0.8334(5) 0.8957(6)
H44_2 H 0.559615 0.849342 0.942911
H36_2 H 0.982566 0.632904 0.415909
loop_
_geom_bond_atom_site_label_1
_geom_bond_atom_site_label_2
_geom_bond_site_symmetry_1
_geom_bond_site_symmetry_2
C1 C10 1_555 1_555
C6 H4 1_555 1_555
N1 C13 1_555 1_555
N2 C7 1_555 1_555
C7 C11 1_555 1_555
N3 Zn1 1_555 1_555
C8 C10 1_555 1_555
C9 N2 1_555 1_555
H5 C9 1_555 1_555
C11 H6 1_555 1_555
C13 N2 1_555 1_555
H8 C13 1_555 1_555
N4 C6 1_555 1_555
C16 H9 1_555 1_555
C17 C8 1_555 1_555
C21 C7 1_555 1_555
H12 C21 1_555 1_555
C22 C1 1_555 1_555
H13 C22 1_555 1_555
C23 N4 1_555 1_555
C25 C17 1_555 1_555
H14 C25 1_555 1_555
C28 C8 1_555 1_555
H17 C28 1_555 1_555
C31 C1 1_555 1_555
H19 C31 1_555 1_555
C32 N1 1_555 1_555
C33 N3 1_555 1_555
H21 C33 1_555 1_555
C34 N4 1_555 1_555
H22 C34 1_555 1_555
Zn4 N1 1_555 1_555
C6 N3 1_555 1_555
C9 C32 1_555 1_555
C11 C22 1_555 1_555
C16 C23 1_555 1_555
C16 C28 1_555 1_555
C21 C31 1_555 1_555
C23 C25 1_555 1_555
C33 C34 1_555 1_555
C35 H23 1_555 1_555
N5 C35 1_555 1_555
C36 C37 1_555 1_555
C37 C45 1_555 1_555
N6 C35 1_555 1_555
C38 H24 1_555 1_555
C39 C36 1_555 1_555
C40 N6 1_555 1_555
C41 C39 1_555 1_555
H26 C41 1_555 1_555
C42 C36 1_555 1_555
H27 C42 1_555 1_555
C43 N5 1_555 1_555
H28 C43 1_555 1_555
C44 N6 1_555 1_555
H29 C44 1_555 1_555
C45 C51 1_555 1_555
N7 C49 1_555 1_555
N8 C46 1_555 1_555
C46 C48 1_555 1_555
C47 N8 1_555 1_555
H30 C47 1_555 1_555
C48 H31 1_555 1_555
C49 N8 1_555 1_555
H32 C49 1_555 1_555
C50 C46 1_555 1_555
H33 C50 1_555 1_555
C51 C48 1_555 1_555
H34 C51 1_555 1_555
C52 C45 1_555 1_555
H35 C52 1_555 1_555
C53 N7 1_555 1_555
Zn2 N5 1_555 1_555
Zn6 N7 1_555 1_555
C38 C40 1_555 1_555
C38 C42 1_555 1_555
C40 C41 1_555 1_555
C43 C44 1_555 1_555
C47 C53 1_555 1_555
C50 C52 1_555 1_555
C35_2 H23_2 1_555 1_555
N5_2 C35_2 1_555 1_555
C36_2 C37_2 1_555 1_555
C37_2 C45_2 1_555 1_555
N6_2 C35_2 1_555 1_555
C38_2 H24_2 1_555 1_555
C39_2 C36_2 1_555 1_555
H25_2 C39_2 1_555 1_555
C40_2 N6_2 1_555 1_555
C41_2 C39_2 1_555 1_555
H26_2 C41_2 1_555 1_555
C42_2 C36_2 1_555 1_555
C43_2 N5_2 1_555 1_555
H28_2 C43_2 1_555 1_555
C44_2 N6_2 1_555 1_555
H29_2 C44_2 1_555 1_555
C45_2 C51_2 1_555 1_555
N10 C49_2 1_555 1_555
N8_2 C46_2 1_555 1_555
C46_2 C48_2 1_555 1_555
C47_2 N8_2 1_555 1_555
H30_2 C47_2 1_555 1_555
C48_2 H31_2 1_555 1_555
C49_2 N8_2 1_555 1_555
H32_2 C49_2 1_555 1_555
C50_2 C46_2 1_555 1_555
H33_2 C50_2 1_555 1_555
C51_2 C48_2 1_555 1_555
C52_2 C45_2 1_555 1_555
H35_2 C52_2 1_555 1_555
C53_2 N10 1_555 1_555
C54 C55 1_555 1_555
C55 H37 1_555 1_555
C56 C54 1_555 1_555
H38 C56 1_555 1_555
C57 C56 1_555 1_555
H39 C57 1_555 1_555
Zn6 N5_2 1_555 1_555
O12 C64 1_555 1_555
O7 C67 1_555 1_555
O8 Zn6 1_555 1_555
O9_2 C60 1_555 1_555
O10 C64 1_555 1_555
C58 C55 1_555 1_555
H40 C58 1_555 1_555
C59 C57 1_555 1_555
C60 O8 1_555 1_555
C61 C60 1_555 1_555
C62 C61 1_555 1_555
H41 C62 1_555 1_555
C63 C65 1_555 1_555
C64 C59 1_555 1_555
C65 C62 1_555 1_555
H42 C65 1_555 1_555
C66 C63 1_555 1_555
H43 C66 1_555 1_555
C67 C54 1_555 1_555
C68 C61 1_555 1_555
H44 C68 1_555 1_555
C38_2 C40_2 1_555 1_555
C38_2 C42_2 1_555 1_555
C40_2 C41_2 1_555 1_555
C43_2 C44_2 1_555 1_555
C47_2 C53_2 1_555 1_555
C50_2 C52_2 1_555 1_555
C58 C59 1_555 1_555
C63 C67 1_555 1_555
C66 C68 1_555 1_555
C1_2 C10_2 1_555 1_555
C2 C3 1_555 1_555
C3 H1 1_555 1_555
C4 C2 1_555 1_555
H2 C4 1_555 1_555
C5 C4 1_555 1_555
H3 C5 1_555 1_555
Zn4 O3 1_555 1_555
O11 C24 1_555 1_555
C6_2 H4_2 1_555 1_555
O2 C29 1_555 1_555
N9 C13_2 1_555 1_555
O3 C15 1_555 1_555
O4_2 C15 1_555 1_555
N2_2 C7_2 1_555 1_555
C7_2 C11_2 1_555 1_555
N3_2 Zn4 1_555 1_555
C8_2 C10_2 1_555 1_555
C9_2 N2_2 1_555 1_555
H5_2 C9_2 1_555 1_555
O5 C24 1_555 1_555
C11_2 H6_2 1_555 1_555
C12 C3 1_555 1_555
H7 C12 1_555 1_555
C13_2 N2_2 1_555 1_555
H8_2 C13_2 1_555 1_555
C14 C5 1_555 1_555
N4_2 C6_2 1_555 1_555
C15 C18 1_555 1_555
C16_2 H9_2 1_555 1_555
C17_2 C8_2 1_555 1_555
H10_2 C17_2 1_555 1_555
C18 C19 1_555 1_555
C19 H11 1_555 1_555
C20 C26 1_555 1_555
C21_2 C7_2 1_555 1_555
H12_2 C21_2 1_555 1_555
C22_2 C1_2 1_555 1_555
C23_2 N4_2 1_555 1_555
C24 C14 1_555 1_555
C25_2 C17_2 1_555 1_555
H14_2 C25_2 1_555 1_555
C26 C19 1_555 1_555
H15 C26 1_555 1_555
C27 C20 1_555 1_555
H16 C27 1_555 1_555
C28_2 C8_2 1_555 1_555
C29 C2 1_555 1_555
C30 C18 1_555 1_555
H18 C30 1_555 1_555
C31_2 C1_2 1_555 1_555
H19_2 C31_2 1_555 1_555
C32_2 N9 1_555 1_555
C33_2 N3_2 1_555 1_555
H21_2 C33_2 1_555 1_555
C34_2 N4_2 1_555 1_555
H22_2 C34_2 1_555 1_555
C6_2 N3_2 1_555 1_555
C9_2 C32_2 1_555 1_555
C11_2 C22_2 1_555 1_555
C12 C14 1_555 1_555
C16_2 C23_2 1_555 1_555
C16_2 C28_2 1_555 1_555
C20 C29 1_555 1_555
C21_2 C31_2 1_555 1_555
C23_2 C25_2 1_555 1_555
C27 C30 1_555 1_555
C33_2 C34_2 1_555 1_555
C2_2 C3_2 1_555 1_555
C3_2 H1_2 1_555 1_555
C4_2 C2_2 1_555 1_555
H2_2 C4_2 1_555 1_555
C5_2 C4_2 1_555 1_555
H3_2 C5_2 1_555 1_555
O1 C24_2 1_555 1_555
O2_2 C29_2 1_555 1_555
O3_2 C15_2 1_555 1_555
O5_2 C24_2 1_555 1_555
C12_2 C3_2 1_555 1_555
H7_2 C12_2 1_555 1_555
C14_2 C5_2 1_555 1_555
C15_2 C18_2 1_555 1_555
C18_2 C19_2 1_555 1_555
C19_2 H11_2 1_555 1_555
C20_2 C26_2 1_555 1_555
C24_2 C14_2 1_555 1_555
C26_2 C19_2 1_555 1_555
H15_2 C26_2 1_555 1_555
C27_2 C20_2 1_555 1_555
H16_2 C27_2 1_555 1_555
C29_2 C2_2 1_555 1_555
C30_2 C18_2 1_555 1_555
H18_2 C30_2 1_555 1_555
C12_2 C14_2 1_555 1_555
C20_2 C29_2 1_555 1_555
C27_2 C30_2 1_555 1_555
C54_2 C55_2 1_555 1_555
C55_2 H37_2 1_555 1_555
C56_2 C54_2 1_555 1_555
H38_2 C56_2 1_555 1_555
C57_2 C56_2 1_555 1_555
H39_2 C57_2 1_555 1_555
O6 C64_2 1_555 1_555
O7_2 C67_2 1_555 1_555
O10_2 C64_2 1_555 1_555
C58_2 C55_2 1_555 1_555
H40_2 C58_2 1_555 1_555
C59_2 C57_2 1_555 1_555
C60_2 O8_2 1_555 1_555
C61_2 C60_2 1_555 1_555
C62_2 C61_2 1_555 1_555
H41_2 C62_2 1_555 1_555
C63_2 C65_2 1_555 1_555
C64_2 C59_2 1_555 1_555
C65_2 C62_2 1_555 1_555
H42_2 C65_2 1_555 1_555
C66_2 C63_2 1_555 1_555
H43_2 C66_2 1_555 1_555
C67_2 C54_2 1_555 1_555
C68_2 C61_2 1_555 1_555
H44_2 C68_2 1_555 1_555
C58_2 C59_2 1_555 1_555
C63_2 C67_2 1_555 1_555
C66_2 C68_2 1_555 1_555

#END
