
###############################################################################
#
# This file contains modified crystal structure data generated from the
# MOF subset of the Cambridge Structural Database (CSD) v543 
# hosted by the Cambridge Crystallographic Data Centre (CCDC).
#
# This work is licensed under the Creative Commons
# Attribution-NonCommercial-ShareAlike 4.0 International License.
# To view a copy of this license, visit
# http://creativecommons.org/licenses/by-nc-sa/4.0/
# or send a letter to
# Creative Commons, PO Box 1866, Mountain View, CA 94042, USA.
#
# CIF created using the CSD Python API on 29 September 2022
# The structure has been converted into the P1 space group
# The structure has a 3D framework
# The original CSD entry RULQUN is in the monoclinic crystal system
# The framework has been calculated to contain at least 10.0% void space
# The void calculation uses a probe of radius 1.32A, grid spacing 0.4
# H atom positions have been added when not included in the experimental data
#
###############################################################################

data_RULQUN
_chemical_formula_moiety         '(C100 H92 Cd4 N20 O16)n'
_symmetry_cell_setting           triclinic
_symmetry_space_group_name_H-M   'P 1'
_symmetry_Int_Tables_number      1
_space_group_name_Hall           'P 1'
loop_
_symmetry_equiv_pos_site_id
_symmetry_equiv_pos_as_xyz
1 x,y,z
_cell_length_a                   18.3533(9)
_cell_length_b                   6.6978(3)
_cell_length_c                   28.1756(17)
_cell_angle_alpha                90
_cell_angle_beta                 95.0010(10)
_cell_angle_gamma                90
_cell_volume                     3450.35
loop_
_atom_site_label
_atom_site_type_symbol
_atom_site_fract_x
_atom_site_fract_y
_atom_site_fract_z
C3 C 0.4496(7) 0.068(2) 0.5025(5)
H2 H 0.4841 0.1178 0.4834
C11 C 0.5114(7) 0.623(3) 0.5871(5)
H13 H 0.5114 0.7385 0.6054
C14 C 0.4666(7) 0.466(2) 0.5918(4)
H14 H 0.4347 0.4447 0.6152
C15 C 0.5338(6) 0.413(2) 0.5319(4)
H15 H 0.5537 0.3502 0.5066
C20 C 0.3739(6) 0.1181(19) 0.5627(5)
H17 H 0.3601 0.2025 0.5866
C21 C 0.4357(7) 0.160(2) 0.5404(4)
N4 N 0.4788(6) 0.346(2) 0.5542(4)
N5 N 0.5572(5) 0.5910(18) 0.5517(3)
Cd2 Cd 0.64621(9) 0.78882(4) 0.52716(5)
C2 C 0.8318(5) 0.491(2) 0.4703(3)
H1 H 0.8710 0.4932 0.4515
C6 C 0.9105(8) 0.119(3) 0.4896(5)
H5 H 0.9234 0.1956 0.4641
C7 C 0.6166(9) 0.9322(14) 0.3510(3)
H6 H 0.5761 0.8410 0.3535
H7 H 0.6607 0.8520 0.3517
C9 C 0.7579(6) 0.421(2) 0.5256(4)
H10 H 0.7386 0.3608 0.5515
H11 H 0.6195 0.9307 0.2808
C16 C 0.6269(5) 0.961(2) 0.4399(3)
C18 C 0.8553(7) 0.178(2) 0.5153(4)
C19 C 0.8340(5) 0.040(2) 0.5506(4)
H16 H 0.7912 0.0633 0.5652
C25 C 0.7768(7) 0.6286(19) 0.4704(4)
H22 H 0.7702 0.7371 0.4499
N2 N 0.7330(5) 0.5807(18) 0.5058(3)
N3 N 0.8175(5) 0.348(2) 0.5038(3)
O3 O 0.5941(7) 0.813(2) 0.4464(4)
O6 O 0.7067(7) 0.7986(16) 0.6089(5)
C5 C 0.6836(10) 0.938(3) 0.7020(5)
H4 H 0.6941 0.8029 0.6984
C13 C 0.6696(6) 0.963(2) 0.6141(4)
H20 H 0.6900 0.9468 0.7762
C2_2 C 0.3318(5) 0.509(2) 0.4703(3)
H1_2 H 0.3710 0.5068 0.4515
C6_2 C 0.4105(8) 0.881(3) 0.4896(5)
H5_2 H 0.4234 0.8044 0.4641
C7_2 C 0.1166(9) 0.0678(14) 0.3510(3)
H6_2 H 0.0761 0.1590 0.3535
H7_2 H 0.1607 0.1480 0.3517
C9_2 C 0.2579(6) 0.579(2) 0.5256(4)
H10_2 H 0.2386 0.6392 0.5515
H11_2 H 0.1195 0.0693 0.2808
C16_2 C 0.1269(5) 0.039(2) 0.4399(3)
C18_2 C 0.3553(7) 0.822(2) 0.5153(4)
C19_2 C 0.3340(5) 0.960(2) 0.5506(4)
H16_2 H 0.2912 0.9367 0.5652
C25_2 C 0.2768(7) 0.3714(19) 0.4704(4)
H22_2 H 0.2702 0.2629 0.4499
N2_2 N 0.2330(5) 0.4193(18) 0.5058(3)
N3_2 N 0.3175(5) 0.652(2) 0.5038(3)
O3_2 O 0.0941(7) 0.187(2) 0.4464(4)
Cd1 Cd 0.14621(9) 0.21118(4) 0.52716(5)
N6 N 0.0572(5) 0.4090(18) 0.5517(3)
O6_2 O 0.2067(7) 0.2014(16) 0.6089(5)
C11_2 C 0.0114(7) 0.377(3) 0.5871(5)
H13_2 H 0.0114 0.2615 0.6054
C15_2 C 0.0338(6) 0.587(2) 0.5319(4)
H15_2 H 0.0537 0.6498 0.5066
C5_2 C 0.1836(10) 0.062(3) 0.7020(5)
H4_2 H 0.1941 0.1971 0.6984
C13_2 C 0.1696(6) 0.037(2) 0.6141(4)
H20_2 H 0.1900 0.0532 0.7762
C1 C 0.1508(14) 0.707(2) 0.2541(4)
C4 C 0.1296(13) 0.742(3) 0.1697(5)
H3 H 0.0950 0.7850 0.1457
C5_3 C 0.1836(10) 0.438(3) 0.2020(5)
H4_3 H 0.1941 0.3029 0.1984
C8 C 0.1560(9) 0.6771(18) 0.3404(4)
H8 H 0.2030 0.6105 0.3415
H9 H 0.1192 0.5732 0.3358
C10 C 0.1065(8) 0.974(3) 0.3046(4)
H12 H 0.0551 0.9423 0.2978
C12 C 0.1746(7) 0.560(2) 0.1638(3)
C13_3 C 0.1696(6) 0.463(2) 0.1141(4)
C17 C 0.1223(7) 0.941(3) 0.3941(4)
C22 C 0.1500(11) 0.758(2) 0.3887(5)
H18 H 0.1204 0.6653 0.4052
H19 H 0.1986 0.7563 0.4052
C23 C 0.1764(9) 0.5226(17) 0.2493(3)
H20_3 H 0.1900 0.4468 0.2762
C24 C 0.1417(11) 0.851(3) 0.2144(4)
H21 H 0.1434 0.9891 0.2175
N1 N 0.1504(12) 0.7877(14) 0.2999(5)
O1 O 0.1286(6) 0.5397(15) 0.0810(2)
O2 O 0.2067(7) 0.2986(16) 0.1089(5)
O4 O 0.1626(6) 0.9633(18) 0.4731(3)
O5 O 0.1286(6) 0.9603(15) 0.5810(2)
Cd3 Cd 0.14621(9) 0.28882(4) 0.02716(5)
H23 H 0.0649665 0.897825 0.392933
C11_3 C 0.0114(7) 0.123(3) 0.0871(5)
H13_3 H 0.0114 0.2385 0.1054
N5_2 N 0.0572(5) 0.0910(18) 0.0517(3)
N2_3 N 0.2330(5) 0.0807(18) 0.0058(3)
C1_2 C 0.1508(14) 0.793(2) 0.7541(4)
C4_2 C 0.1296(13) 0.758(3) 0.6697(5)
H3_2 H 0.0950 0.7150 0.6457
C7_3 C 0.1166(9) 0.4322(14) 0.8510(3)
H6_3 H 0.0761 0.3410 0.8535
H7_3 H 0.1607 0.3520 0.8517
C8_2 C 0.1560(9) 0.8229(18) 0.8404(4)
H8_2 H 0.2030 0.8895 0.8415
H9_2 H 0.1192 0.9268 0.8358
C10_2 C 0.1065(8) 0.526(3) 0.8046(4)
H11_3 H 0.1195 0.4307 0.7808
H12_2 H 0.0551 0.5577 0.7978
C12_2 C 0.1746(7) 0.940(2) 0.6638(3)
C16_3 C 0.1269(5) 0.461(2) 0.9399(3)
C17_2 C 0.1223(7) 0.559(3) 0.8941(4)
C22_2 C 0.1500(11) 0.742(2) 0.8887(5)
H18_2 H 0.1204 0.8347 0.9052
H19_2 H 0.1986 0.7437 0.9052
C23_2 C 0.1764(9) 0.9774(17) 0.7493(3)
C24_2 C 0.1417(11) 0.649(3) 0.7144(4)
H21_2 H 0.1434 0.5109 0.7175
C25_3 C 0.2768(7) 0.1286(19) 0.9704(4)
H22_3 H 0.2702 0.2371 0.9499
N1_2 N 0.1504(12) 0.7123(14) 0.7999(5)
O3_3 O 0.0941(7) 0.313(2) 0.9464(4)
O4_2 O 0.1626(6) 0.5367(18) 0.9731(3)
H23_2 H 0.0649665 0.602175 0.892933
C1_3 C 0.6508(14) 0.293(2) 0.2541(4)
C4_3 C 0.6296(13) 0.258(3) 0.1697(5)
H3_3 H 0.5950 0.2150 0.1457
C5_4 C 0.6836(10) 0.562(3) 0.2020(5)
H4_4 H 0.6941 0.6971 0.1984
C8_3 C 0.6560(9) 0.3229(18) 0.3404(4)
H8_3 H 0.7030 0.3895 0.3415
H9_3 H 0.6192 0.4268 0.3358
C10_3 C 0.6065(8) 0.026(3) 0.3046(4)
H12_3 H 0.5551 0.0577 0.2978
C12_3 C 0.6746(7) 0.440(2) 0.1638(3)
C13_4 C 0.6696(6) 0.537(2) 0.1141(4)
C17_3 C 0.6223(7) 0.059(3) 0.3941(4)
C22_3 C 0.6500(11) 0.242(2) 0.3887(5)
H18_3 H 0.6204 0.3347 0.4052
H19_3 H 0.6986 0.2437 0.4052
C23_3 C 0.6764(9) 0.4774(17) 0.2493(3)
H20_4 H 0.6900 0.5532 0.2762
C24_3 C 0.6417(11) 0.149(3) 0.2144(4)
H21_3 H 0.6434 0.0109 0.2175
N1_3 N 0.6504(12) 0.2123(14) 0.2999(5)
O1_2 O 0.6286(6) 0.4603(15) 0.0810(2)
O2_2 O 0.7067(7) 0.7014(16) 0.1089(5)
O4_3 O 0.6626(6) 0.0367(18) 0.4731(3)
O5_2 O 0.6286(6) 0.0397(15) 0.5810(2)
Cd3_2 Cd 0.64621(9) 0.71118(4) 0.02716(5)
H23_3 H 0.564966 0.102175 0.392933
N2_4 N 0.7330(5) 0.9193(18) 0.0058(3)
N6_2 N 0.5572(5) 0.9090(18) 0.0517(3)
C1_4 C 0.6508(14) 0.207(2) 0.7541(4)
C4_4 C 0.6296(13) 0.242(3) 0.6697(5)
H3_4 H 0.5950 0.2850 0.6457
C7_4 C 0.6166(9) 0.5678(14) 0.8510(3)
H6_4 H 0.5761 0.6590 0.8535
H7_4 H 0.6607 0.6480 0.8517
C8_4 C 0.6560(9) 0.1771(18) 0.8404(4)
H8_4 H 0.7030 0.1105 0.8415
H9_4 H 0.6192 0.0732 0.8358
C10_4 C 0.6065(8) 0.474(3) 0.8046(4)
H11_4 H 0.6195 0.5693 0.7808
H12_4 H 0.5551 0.4423 0.7978
C12_4 C 0.6746(7) 0.060(2) 0.6638(3)
C16_4 C 0.6269(5) 0.539(2) 0.9399(3)
C17_4 C 0.6223(7) 0.441(3) 0.8941(4)
C22_4 C 0.6500(11) 0.258(2) 0.8887(5)
H18_4 H 0.6204 0.1653 0.9052
H19_4 H 0.6986 0.2563 0.9052
C23_4 C 0.6764(9) 0.0226(17) 0.7493(3)
C24_4 C 0.6417(11) 0.351(3) 0.7144(4)
H21_4 H 0.6434 0.4891 0.7175
C25_4 C 0.7768(7) 0.8714(19) 0.9704(4)
H22_4 H 0.7702 0.7629 0.9499
N1_4 N 0.6504(12) 0.2877(14) 0.7999(5)
O3_4 O 0.5941(7) 0.687(2) 0.9464(4)
O4_4 O 0.6626(6) 0.4633(18) 0.9731(3)
H23_4 H 0.564966 0.397825 0.892933
C11_4 C 0.5114(7) 0.877(3) 0.0871(5)
H13_4 H 0.5114 0.7615 0.1054
C3_2 C 0.9496(7) 0.932(2) 0.5025(5)
H2_2 H 0.9841 0.8822 0.4834
C14_2 C 0.9666(7) 0.534(2) 0.5918(4)
H14_2 H 0.9347 0.5553 0.6152
C20_2 C 0.8739(6) 0.8819(19) 0.5627(5)
H17_2 H 0.8601 0.7975 0.5866
C21_2 C 0.9357(7) 0.840(2) 0.5404(4)
N4_2 N 0.9788(6) 0.654(2) 0.5542(4)
C15_3 C 0.0338(6) 0.913(2) 0.0319(4)
H15_3 H 0.0537 0.8502 0.0066
C3_3 C 0.9496(7) 0.568(2) 0.0025(5)
C9_3 C 0.7579(6) 0.079(2) 0.0256(4)
H10_3 H 0.7386 0.1392 0.0515
C14_3 C 0.9666(7) 0.966(2) 0.0918(4)
H14_3 H 0.9347 0.9447 0.1152
C18_3 C 0.8553(7) 0.322(2) 0.0153(4)
C19_3 C 0.8340(5) 0.460(2) 0.0506(4)
H16_3 H 0.7912 0.4367 0.0652
C20_3 C 0.8739(6) 0.6181(19) 0.0627(5)
H17_3 H 0.8601 0.7025 0.0866
C21_3 C 0.9357(7) 0.660(2) 0.0404(4)
N3_3 N 0.8175(5) 0.152(2) 0.0038(3)
N4_3 N 0.9788(6) 0.846(2) 0.0542(4)
C2_3 C 0.8318(5) 0.009(2) 0.9703(3)
H1_3 H 0.8710 0.0068 0.9515
H2_3 H 0.9841 0.6178 0.9834
C6_3 C 0.9105(8) 0.381(3) 0.9896(5)
H5_3 H 0.9234 0.3044 0.9641
C3_4 C 0.4496(7) 0.432(2) 0.0025(5)
C9_4 C 0.2579(6) 0.921(2) 0.0256(4)
H10_4 H 0.2386 0.8608 0.0515
C14_4 C 0.4666(7) 0.034(2) 0.0918(4)
H14_4 H 0.4347 0.0553 0.1152
C15_4 C 0.5338(6) 0.087(2) 0.0319(4)
H15_4 H 0.5537 0.1498 0.0066
C18_4 C 0.3553(7) 0.678(2) 0.0153(4)
C19_4 C 0.3340(5) 0.540(2) 0.0506(4)
H16_4 H 0.2912 0.5633 0.0652
C20_4 C 0.3739(6) 0.3819(19) 0.0627(5)
H17_4 H 0.3601 0.2975 0.0866
C21_4 C 0.4357(7) 0.340(2) 0.0404(4)
N3_4 N 0.3175(5) 0.848(2) 0.0038(3)
N4_4 N 0.4788(6) 0.154(2) 0.0542(4)
C2_4 C 0.3318(5) 0.991(2) 0.9703(3)
H1_4 H 0.3710 0.9932 0.9515
H2_4 H 0.4841 0.3822 0.9834
C6_4 C 0.4105(8) 0.619(3) 0.9896(5)
H5_4 H 0.4234 0.6956 0.9641
loop_
_geom_bond_atom_site_label_1
_geom_bond_atom_site_label_2
_geom_bond_site_symmetry_1
_geom_bond_site_symmetry_2
C3 H2 1_555 1_555
C11 H13 1_555 1_555
C14 C11 1_555 1_555
H14 C14 1_555 1_555
C15 H15 1_555 1_555
H17 C20 1_555 1_555
C21 C3 1_555 1_555
N4 C14 1_555 1_555
N5 C11 1_555 1_555
Cd2 N5 1_555 1_555
C15 N4 1_555 1_555
C15 N5 1_555 1_555
C20 C21 1_555 1_555
C21 N4 1_555 1_555
C2 H1 1_555 1_555
H5 C6 1_555 1_555
C7 H6 1_555 1_555
H7 C7 1_555 1_555
C9 H10 1_555 1_555
C18 C6 1_555 1_555
C19 C18 1_555 1_555
H16 C19 1_555 1_555
C25 C2 1_555 1_555
H22 C25 1_555 1_555
N2 C9 1_555 1_555
N3 C2 1_555 1_555
O3 C16 1_555 1_555
Cd2 N2 1_555 1_555
O6 Cd2 1_555 1_555
C9 N3 1_555 1_555
C18 N3 1_555 1_555
C25 N2 1_555 1_555
O3 Cd2 1_555 1_555
C5 H4 1_555 1_555
O6 C13 1_555 1_555
C2_2 H1_2 1_555 1_555
H5_2 C6_2 1_555 1_555
C7_2 H6_2 1_555 1_555
H7_2 C7_2 1_555 1_555
C9_2 H10_2 1_555 1_555
C18_2 C6_2 1_555 1_555
C19_2 C18_2 1_555 1_555
H16_2 C19_2 1_555 1_555
C25_2 C2_2 1_555 1_555
H22_2 C25_2 1_555 1_555
N2_2 C9_2 1_555 1_555
N3_2 C2_2 1_555 1_555
O3_2 C16_2 1_555 1_555
Cd1 N2_2 1_555 1_555
N6 Cd1 1_555 1_555
O6_2 Cd1 1_555 1_555
C9_2 N3_2 1_555 1_555
C18_2 N3_2 1_555 1_555
C25_2 N2_2 1_555 1_555
O3_2 Cd1 1_555 1_555
C11_2 H13_2 1_555 1_555
C15_2 H15_2 1_555 1_555
N6 C11_2 1_555 1_555
C15_2 N6 1_555 1_555
C5_2 H4_2 1_555 1_555
O6_2 C13_2 1_555 1_555
C1 C23 1_555 1_555
C4 H3 1_555 1_555
C5_3 H4_3 1_555 1_555
C8 H8 1_555 1_555
H9 C8 1_555 1_555
H12 C10 1_555 1_555
C12 C4 1_555 1_555
C13_3 C12 1_555 1_555
C22 C8 1_555 1_555
H18 C22 1_555 1_555
H19 C22 1_555 1_555
C23 C5_3 1_555 1_555
H20_3 C23 1_555 1_555
C24 C1 1_555 1_555
H21 C24 1_555 1_555
N1 C1 1_555 1_555
O1 C13_3 1_555 1_555
O2 C13_3 1_555 1_555
Cd3 O1 1_555 1_555
C4 C24 1_555 1_555
C5_3 C12 1_555 1_555
C8 N1 1_555 1_555
C10 N1 1_555 1_555
C17 C22 1_555 1_555
O2 Cd3 1_555 1_555
C17 H23 1_555 1_555
C11_3 H13_3 1_555 1_555
N5_2 C11_3 1_555 1_555
Cd3 N5_2 1_555 1_555
Cd3 N2_3 1_555 1_555
C1_2 C23_2 1_555 1_555
C4_2 H3_2 1_555 1_555
C7_3 H6_3 1_555 1_555
H7_3 C7_3 1_555 1_555
C8_2 H8_2 1_555 1_555
H9_2 C8_2 1_555 1_555
C10_2 C7_3 1_555 1_555
H11_3 C10_2 1_555 1_555
H12_2 C10_2 1_555 1_555
C12_2 C4_2 1_555 1_555
C16_3 C17_2 1_555 1_555
C17_2 C7_3 1_555 1_555
C22_2 C8_2 1_555 1_555
H18_2 C22_2 1_555 1_555
H19_2 C22_2 1_555 1_555
C24_2 C1_2 1_555 1_555
H21_2 C24_2 1_555 1_555
H22_3 C25_3 1_555 1_555
N1_2 C1_2 1_555 1_555
O3_3 C16_3 1_555 1_555
O4_2 C16_3 1_555 1_555
C4_2 C24_2 1_555 1_555
C8_2 N1_2 1_555 1_555
C10_2 N1_2 1_555 1_555
C17_2 C22_2 1_555 1_555
C17_2 H23_2 1_555 1_555
C1_3 C23_3 1_555 1_555
C4_3 H3_3 1_555 1_555
C5_4 H4_4 1_555 1_555
C8_3 H8_3 1_555 1_555
H9_3 C8_3 1_555 1_555
H12_3 C10_3 1_555 1_555
C12_3 C4_3 1_555 1_555
C13_4 C12_3 1_555 1_555
C22_3 C8_3 1_555 1_555
H18_3 C22_3 1_555 1_555
H19_3 C22_3 1_555 1_555
C23_3 C5_4 1_555 1_555
H20_4 C23_3 1_555 1_555
C24_3 C1_3 1_555 1_555
H21_3 C24_3 1_555 1_555
N1_3 C1_3 1_555 1_555
O1_2 C13_4 1_555 1_555
O2_2 C13_4 1_555 1_555
Cd3_2 O1_2 1_555 1_555
C4_3 C24_3 1_555 1_555
C5_4 C12_3 1_555 1_555
C8_3 N1_3 1_555 1_555
C10_3 N1_3 1_555 1_555
C17_3 C22_3 1_555 1_555
O2_2 Cd3_2 1_555 1_555
C17_3 H23_3 1_555 1_555
Cd3_2 N2_4 1_555 1_555
N6_2 Cd3_2 1_555 1_555
C1_4 C23_4 1_555 1_555
C4_4 H3_4 1_555 1_555
C7_4 H6_4 1_555 1_555
H7_4 C7_4 1_555 1_555
C8_4 H8_4 1_555 1_555
H9_4 C8_4 1_555 1_555
C10_4 C7_4 1_555 1_555
H11_4 C10_4 1_555 1_555
H12_4 C10_4 1_555 1_555
C12_4 C4_4 1_555 1_555
C16_4 C17_4 1_555 1_555
C17_4 C7_4 1_555 1_555
C22_4 C8_4 1_555 1_555
H18_4 C22_4 1_555 1_555
H19_4 C22_4 1_555 1_555
C24_4 C1_4 1_555 1_555
H21_4 C24_4 1_555 1_555
H22_4 C25_4 1_555 1_555
N1_4 C1_4 1_555 1_555
O3_4 C16_4 1_555 1_555
O4_4 C16_4 1_555 1_555
C4_4 C24_4 1_555 1_555
C8_4 N1_4 1_555 1_555
C10_4 N1_4 1_555 1_555
C17_4 C22_4 1_555 1_555
C17_4 H23_4 1_555 1_555
C11_4 H13_4 1_555 1_555
N6_2 C11_4 1_555 1_555
C3_2 H2_2 1_555 1_555
H14_2 C14_2 1_555 1_555
H17_2 C20_2 1_555 1_555
C21_2 C3_2 1_555 1_555
N4_2 C14_2 1_555 1_555
C20_2 C21_2 1_555 1_555
C21_2 N4_2 1_555 1_555
C15_3 H15_3 1_555 1_555
C9_3 H10_3 1_555 1_555
H14_3 C14_3 1_555 1_555
C19_3 C18_3 1_555 1_555
H16_3 C19_3 1_555 1_555
C20_3 C19_3 1_555 1_555
H17_3 C20_3 1_555 1_555
C21_3 C3_3 1_555 1_555
N4_3 C14_3 1_555 1_555
C9_3 N3_3 1_555 1_555
C18_3 N3_3 1_555 1_555
C20_3 C21_3 1_555 1_555
C21_3 N4_3 1_555 1_555
C2_3 H1_3 1_555 1_555
H5_3 C6_3 1_555 1_555
C9_4 H10_4 1_555 1_555
H14_4 C14_4 1_555 1_555
C15_4 H15_4 1_555 1_555
C19_4 C18_4 1_555 1_555
H16_4 C19_4 1_555 1_555
C20_4 C19_4 1_555 1_555
H17_4 C20_4 1_555 1_555
C21_4 C3_4 1_555 1_555
N4_4 C14_4 1_555 1_555
C9_4 N3_4 1_555 1_555
C15_4 N4_4 1_555 1_555
C18_4 N3_4 1_555 1_555
C20_4 C21_4 1_555 1_555
C21_4 N4_4 1_555 1_555
C2_4 H1_4 1_555 1_555
H5_4 C6_4 1_555 1_555

#END
