
###############################################################################
#
# This file contains modified crystal structure data generated from the
# MOF subset of the Cambridge Structural Database (CSD) v543 
# hosted by the Cambridge Crystallographic Data Centre (CCDC).
#
# This work is licensed under the Creative Commons
# Attribution-NonCommercial-ShareAlike 4.0 International License.
# To view a copy of this license, visit
# http://creativecommons.org/licenses/by-nc-sa/4.0/
# or send a letter to
# Creative Commons, PO Box 1866, Mountain View, CA 94042, USA.
#
# CIF created using the CSD Python API on 29 September 2022
# The structure has been converted into the P1 space group
# The structure has a 3D framework
# The original CSD entry RUMWUS is in the monoclinic crystal system
# The framework has been calculated to contain at least 10.0% void space
# The void calculation uses a probe of radius 1.32A, grid spacing 0.4
#
###############################################################################

data_RUMWUS
_chemical_formula_moiety         '(C140 H120 O48 Zn8)n'
_symmetry_cell_setting           triclinic
_symmetry_space_group_name_H-M   'P 1'
_symmetry_Int_Tables_number      1
_space_group_name_Hall           'P 1'
loop_
_symmetry_equiv_pos_site_id
_symmetry_equiv_pos_as_xyz
1 x,y,z
_cell_length_a                   18.9594(15)
_cell_length_b                   18.4485(15)
_cell_length_c                   13.177(4)
_cell_angle_alpha                90
_cell_angle_beta                 104.204(3)
_cell_angle_gamma                90
_cell_volume                     4468.05
loop_
_atom_site_label
_atom_site_type_symbol
_atom_site_fract_x
_atom_site_fract_y
_atom_site_fract_z
Zn5 Zn 0.32785(2) 0.03538(3) 0.99627(3)
O14 O 0.8311(2) 0.59458(19) 0.1669(3)
O16 O 0.8241(2) 0.64273(19) 0.0146(3)
O20 O 0.8198(2) 0.44227(19) 0.0646(3)
Zn1 Zn 0.82785(2) 0.53538(3) 0.99627(3)
O1 O 0.47830(16) 0.5452(2) 0.4890(3)
C1 C 0.3598(2) 0.5342(2) 0.3817(3)
Zn2 Zn 0.81249(3) 0.42349(3) 0.80871(4)
O2 O 0.3342(2) 0.43564(16) 0.2600(3)
C2 C 0.4041(2) 0.5534(3) 0.4907(4)
H1 H 0.3945 0.6029 0.5080
H2 H 0.3921 0.5213 0.5422
O3 O 0.25421(16) 0.5069(2) 0.4460(3)
C3 C 0.3733(2) 0.4537(2) 0.3622(4)
H3 H 0.4249 0.4454 0.3698
H4 H 0.3574 0.4238 0.4128
O4 O 0.3756(2) 0.65382(17) 0.3263(3)
C4 C 0.2790(2) 0.5480(3) 0.3706(4)
H5 H 0.2709 0.5992 0.3805
H6 H 0.2517 0.5345 0.3008
O5 O 0.69717(19) 0.5473(2) 0.9389(3)
C5 C 0.3812(3) 0.5803(2) 0.2985(4)
H7 H 0.4306 0.5693 0.2954
H8 H 0.3490 0.5706 0.2304
O6 O 0.77127(15) 0.51992(17) 0.8407(3)
C6 C 0.5301(2) 0.5452(3) 0.5807(4)
O7 O 0.3311(2) 0.09458(19) 0.1669(3)
C7 C 0.5174(2) 0.5534(3) 0.6785(4)
H9 H 0.4705 0.5615 0.6859
O8 O 0.3241(2) 0.14273(19) 0.0146(3)
C8 C 0.6017(2) 0.5361(3) 0.5707(4)
H10 H 0.6106 0.5324 0.5046
C9 C 0.5754(2) 0.5495(3) 0.7657(4)
H11 H 0.5670 0.5543 0.8320
C10 C 0.6573(2) 0.5326(3) 0.6565(4)
H12 H 0.7044 0.5262 0.6488
C11 C 0.6460(2) 0.5385(2) 0.7560(4)
O12 O 0.3198(2) 0.94227(19) 0.0646(3)
C12 C 0.7063(2) 0.5351(2) 0.8516(4)
C13 C 0.3350(2) 0.3646(2) 0.2295(3)
C14 C 0.3746(2) 0.3104(2) 0.2921(4)
H13 H 0.4029 0.3209 0.3587
O13 O 0.7133(2) 0.3730(2) 0.7581(4)
H14 H 0.6837 0.4060 0.7299
C15 C 0.2937(3) 0.3492(2) 0.1302(4)
H15 H 0.2668 0.3856 0.0895
C16 C 0.3706(3) 0.2399(2) 0.2524(4)
H16 H 0.3958 0.2029 0.2939
C17 C 0.2923(3) 0.2800(3) 0.0915(4)
H17 H 0.2660 0.2700 0.0235
C18 C 0.3306(2) 0.2242(3) 0.1541(4)
C19 C 0.3281(2) 0.1499(2) 0.1109(4)
C20 C 0.1806(2) 0.5085(3) 0.4363(4)
C21 C 0.1568(3) 0.4757(4) 0.5162(6)
H18 H 0.1902 0.4549 0.5723
C22 C 0.1322(3) 0.5410(5) 0.3544(6)
H19 H 0.1485 0.5656 0.3028
C23 C 0.0831(3) 0.4739(5) 0.5126(6)
H20 H 0.0672 0.4520 0.5665
C24 C 0.0579(3) 0.5366(5) 0.3498(7)
H21 H 0.0245 0.5558 0.2922
C25 C 0.0329(3) 0.5045(4) 0.4290(5)
C27 C 0.3662(3) 0.7061(2) 0.2505(4)
C28 C 0.3671(4) 0.6939(3) 0.1480(4)
H22 H 0.3749 0.6475 0.1256
C29 C 0.3544(3) 0.7753(3) 0.2835(4)
H23 H 0.3538 0.7836 0.3529
C30 C 0.3563(4) 0.7506(3) 0.0794(4)
H24 H 0.3577 0.7421 0.0103
C31 C 0.3435(4) 0.8318(3) 0.2125(4)
H25 H 0.3362 0.8784 0.2349
C32 C 0.3434(3) 0.8203(3) 0.1090(4)
C33 C 0.3300(3) 0.8803(3) 0.0311(4)
C34 C 0.6960(11) 0.3173(13) 0.7722(16)
H26 H 0.7105 0.3141 0.8480
H27 H 0.7313 0.2880 0.7484
C35 C 0.6273(13) 0.2681(15) 0.7455(18)
H28 H 0.6395 0.2185 0.7639
H29 H 0.6051 0.2713 0.6719
H30 H 0.5938 0.2854 0.7841
Zn6 Zn 0.31249(3) 0.07651(3) 0.30871(4)
O15 O 0.8311(2) 0.40542(19) 0.6669(3)
O17 O 0.9316(2) 0.5315(2) 0.9903(4)
O18 O 0.9144(2) 0.4635(3) 0.8472(4)
O19 O 0.8299(3) 0.3648(2) 0.9399(3)
O11 O 0.3299(3) 0.8648(2) 0.9399(3)
Zn8 Zn 0.31249(3) 0.92349(3) 0.80871(4)
O9 O 0.9316(2) 0.4685(2) 0.4903(4)
O10 O 0.9144(2) 0.5365(3) 0.3472(4)
C26 C 0.9538(3) 0.5032(4) 0.4225(5)
Zn4 Zn 0.82785(2) 0.46462(3) 0.49627(3)
Zn7 Zn 0.81249(3) 0.57651(3) 0.30871(4)
H1_2 H 0.3945 0.3971 0.0080
H2_2 H 0.3921 0.4787 0.0422
O5_2 O 0.69717(19) 0.4527(2) 0.4389(3)
O6_2 O 0.77127(15) 0.48008(17) 0.3407(3)
C6_2 C 0.5301(2) 0.4548(3) 0.0807(4)
C7_2 C 0.5174(2) 0.4466(3) 0.1785(4)
H9_2 H 0.4705 0.4385 0.1859
C8_2 C 0.6017(2) 0.4639(3) 0.0707(4)
H10_2 H 0.6106 0.4676 0.0046
C9_2 C 0.5754(2) 0.4505(3) 0.2657(4)
H11_2 H 0.5670 0.4457 0.3320
C10_2 C 0.6573(2) 0.4674(3) 0.1565(4)
H12_2 H 0.7044 0.4738 0.1488
C11_2 C 0.6460(2) 0.4615(2) 0.2560(4)
C12_2 C 0.7063(2) 0.4649(2) 0.3516(4)
O13_2 O 0.7133(2) 0.6270(2) 0.2581(4)
H14_2 H 0.6837 0.5940 0.2299
C21_2 C 0.1568(3) 0.5243(4) 0.0162(6)
H18_2 H 0.1902 0.5451 0.0723
C23_2 C 0.0831(3) 0.5261(5) 0.0126(6)
H20_2 H 0.0672 0.5480 0.0665
C34_2 C 0.6960(11) 0.6827(13) 0.2722(16)
H26_2 H 0.7105 0.6859 0.3480
H27_2 H 0.7313 0.7120 0.2484
C35_2 C 0.6273(13) 0.7319(15) 0.2455(18)
H28_2 H 0.6395 0.7815 0.2639
H29_2 H 0.6051 0.7287 0.1719
H30_2 H 0.5938 0.7146 0.2841
O16_2 O 0.8241(2) 0.35727(19) 0.5146(3)
O19_2 O 0.8299(3) 0.6352(2) 0.4399(3)
O20_2 O 0.8198(2) 0.55773(19) 0.5646(3)
O1_2 O 0.47830(16) 0.4548(2) 0.9890(3)
C1_2 C 0.3598(2) 0.4658(2) 0.8817(3)
O2_2 O 0.3342(2) 0.56436(16) 0.7600(3)
C2_2 C 0.4041(2) 0.4466(3) 0.9907(4)
O3_2 O 0.25421(16) 0.4931(2) 0.9460(3)
C3_2 C 0.3733(2) 0.5463(2) 0.8622(4)
H3_2 H 0.4249 0.5546 0.8698
H4_2 H 0.3574 0.5762 0.9128
O4_2 O 0.3756(2) 0.34618(17) 0.8263(3)
C4_2 C 0.2790(2) 0.4520(3) 0.8706(4)
H5_2 H 0.2709 0.4008 0.8805
H6_2 H 0.2517 0.4655 0.8008
C5_2 C 0.3812(3) 0.4197(2) 0.7985(4)
H7_2 H 0.4306 0.4307 0.7954
H8_2 H 0.3490 0.4294 0.7304
O7_2 O 0.3311(2) 0.90542(19) 0.6669(3)
O8_2 O 0.3241(2) 0.85727(19) 0.5146(3)
O11_2 O 0.3299(3) 0.1352(2) 0.4399(3)
O12_2 O 0.3198(2) 0.05773(19) 0.5646(3)
C13_2 C 0.3350(2) 0.6354(2) 0.7295(3)
C14_2 C 0.3746(2) 0.6896(2) 0.7921(4)
H13_2 H 0.4029 0.6791 0.8587
C15_2 C 0.2937(3) 0.6508(2) 0.6302(4)
H15_2 H 0.2668 0.6144 0.5895
C16_2 C 0.3706(3) 0.7601(2) 0.7524(4)
H16_2 H 0.3958 0.7971 0.7939
C17_2 C 0.2923(3) 0.7200(3) 0.5915(4)
H17_2 H 0.2660 0.7300 0.5235
C18_2 C 0.3306(2) 0.7758(3) 0.6541(4)
C19_2 C 0.3281(2) 0.8501(2) 0.6109(4)
C20_2 C 0.1806(2) 0.4915(3) 0.9363(4)
C22_2 C 0.1322(3) 0.4590(5) 0.8544(6)
H19_2 H 0.1485 0.4344 0.8028
C24_2 C 0.0579(3) 0.4634(5) 0.8498(7)
H21_2 H 0.0245 0.4442 0.7922
C25_2 C 0.0329(3) 0.4955(4) 0.9290(5)
C27_2 C 0.3662(3) 0.2939(2) 0.7505(4)
C28_2 C 0.3671(4) 0.3061(3) 0.6480(4)
H22_2 H 0.3749 0.3525 0.6256
C29_2 C 0.3544(3) 0.2247(3) 0.7835(4)
H23_2 H 0.3538 0.2164 0.8529
C30_2 C 0.3563(4) 0.2494(3) 0.5794(4)
H24_2 H 0.3577 0.2579 0.5103
C31_2 C 0.3435(4) 0.1682(3) 0.7125(4)
H25_2 H 0.3362 0.1216 0.7349
C32_2 C 0.3434(3) 0.1797(3) 0.6090(4)
C33_2 C 0.3300(3) 0.1197(3) 0.5311(4)
Zn3 Zn 0.32785(2) 0.96462(3) 0.49627(3)
C26_2 C 0.9538(3) 0.4968(4) 0.9225(5)
O5_3 O 0.19717(19) 0.0473(2) 0.9389(3)
O6_3 O 0.27127(15) 0.01992(17) 0.8407(3)
C6_3 C 0.0301(2) 0.0452(3) 0.5807(4)
C7_3 C 0.0174(2) 0.0534(3) 0.6785(4)
C8_3 C 0.1017(2) 0.0361(3) 0.5707(4)
H10_3 H 0.1106 0.0324 0.5046
C9_3 C 0.0754(2) 0.0495(3) 0.7657(4)
H11_3 H 0.0670 0.0543 0.8320
C10_3 C 0.1573(2) 0.0326(3) 0.6565(4)
H12_3 H 0.2044 0.0262 0.6488
C11_3 C 0.1460(2) 0.0385(2) 0.7560(4)
C12_3 C 0.2063(2) 0.0351(2) 0.8516(4)
O17_2 O 0.4316(2) 0.0315(2) 0.9903(4)
O13_3 O 0.2133(2) 0.8730(2) 0.7581(4)
H14_3 H 0.1837 0.9060 0.7299
C34_3 C 0.1960(11) 0.8173(13) 0.7722(16)
H26_3 H 0.2105 0.8141 0.8480
H27_3 H 0.2313 0.7880 0.7484
C35_3 C 0.1273(13) 0.7681(15) 0.7455(18)
H28_3 H 0.1395 0.7185 0.7639
H29_3 H 0.1051 0.7713 0.6719
H30_3 H 0.0938 0.7854 0.7841
O18_2 O 0.4144(2) 0.9635(3) 0.8472(4)
O1_3 O 0.97830(16) 0.0452(2) 0.4890(3)
C1_3 C 0.8598(2) 0.0342(2) 0.3817(3)
C2_3 C 0.9041(2) 0.0534(3) 0.4907(4)
H1_3 H 0.8945 0.1029 0.5080
H2_3 H 0.8921 0.0213 0.5422
O3_3 O 0.75421(16) 0.0069(2) 0.4460(3)
O4_3 O 0.8756(2) 0.15382(17) 0.3263(3)
C4_3 C 0.7790(2) 0.0480(3) 0.3706(4)
H5_3 H 0.7709 0.0992 0.3805
H6_3 H 0.7517 0.0345 0.3008
C5_3 C 0.8812(3) 0.0803(2) 0.2985(4)
H7_3 H 0.9306 0.0693 0.2954
H8_3 H 0.8490 0.0706 0.2304
H9_3 H 0.9705 0.0615 0.6859
O10_2 O 0.4144(2) 0.0365(3) 0.3472(4)
C20_3 C 0.6806(2) 0.0085(3) 0.4363(4)
C22_3 C 0.6322(3) 0.0410(5) 0.3544(6)
H19_3 H 0.6485 0.0656 0.3028
C24_3 C 0.5579(3) 0.0366(5) 0.3498(7)
H21_3 H 0.5245 0.0558 0.2922
C25_3 C 0.5329(3) 0.0045(4) 0.4290(5)
C26_3 C 0.4538(3) 0.0032(4) 0.4225(5)
C27_3 C 0.8662(3) 0.2061(2) 0.2505(4)
C28_3 C 0.8671(4) 0.1939(3) 0.1480(4)
H22_3 H 0.8749 0.1475 0.1256
C29_3 C 0.8544(3) 0.2753(3) 0.2835(4)
H23_3 H 0.8538 0.2836 0.3529
C30_3 C 0.8563(4) 0.2506(3) 0.0794(4)
H24_3 H 0.8577 0.2421 0.0103
C31_3 C 0.8435(4) 0.3318(3) 0.2125(4)
H25_3 H 0.8362 0.3784 0.2349
C32_3 C 0.8434(3) 0.3203(3) 0.1090(4)
C33_3 C 0.8300(3) 0.3803(3) 0.0311(4)
O2_3 O 0.8342(2) 0.93564(16) 0.2600(3)
C3_3 C 0.8733(2) 0.9537(2) 0.3622(4)
H3_3 H 0.9249 0.9454 0.3698
H4_3 H 0.8574 0.9238 0.4128
O9_2 O 0.4316(2) 0.9685(2) 0.4903(4)
C13_3 C 0.8350(2) 0.8646(2) 0.2295(3)
C14_3 C 0.8746(2) 0.8104(2) 0.2921(4)
H13_3 H 0.9029 0.8209 0.3587
C15_3 C 0.7937(3) 0.8492(2) 0.1302(4)
H15_3 H 0.7668 0.8856 0.0895
C16_3 C 0.8706(3) 0.7399(2) 0.2524(4)
H16_3 H 0.8958 0.7029 0.2939
C17_3 C 0.7923(3) 0.7800(3) 0.0915(4)
H17_3 H 0.7660 0.7700 0.0235
C18_3 C 0.8306(2) 0.7242(3) 0.1541(4)
C19_3 C 0.8281(2) 0.6499(2) 0.1109(4)
C21_3 C 0.6568(3) 0.9757(4) 0.5162(6)
H18_3 H 0.6902 0.9549 0.5723
C23_3 C 0.5831(3) 0.9739(5) 0.5126(6)
H20_3 H 0.5672 0.9520 0.5665
O13_4 O 0.2133(2) 0.1270(2) 0.2581(4)
H14_4 H 0.1837 0.0940 0.2299
C34_4 C 0.1960(11) 0.1827(13) 0.2722(16)
H26_4 H 0.2105 0.1859 0.3480
H27_4 H 0.2313 0.2120 0.2484
C35_4 C 0.1273(13) 0.2319(15) 0.2455(18)
H28_4 H 0.1395 0.2815 0.2639
H29_4 H 0.1051 0.2287 0.1719
H30_4 H 0.0938 0.2146 0.2841
O5_4 O 0.19717(19) 0.9527(2) 0.4389(3)
O6_4 O 0.27127(15) 0.98008(17) 0.3407(3)
C6_4 C 0.0301(2) 0.9548(3) 0.0807(4)
C7_4 C 0.0174(2) 0.9466(3) 0.1785(4)
C8_4 C 0.1017(2) 0.9639(3) 0.0707(4)
H10_4 H 0.1106 0.9676 0.0046
C9_4 C 0.0754(2) 0.9505(3) 0.2657(4)
H11_4 H 0.0670 0.9457 0.3320
C10_4 C 0.1573(2) 0.9674(3) 0.1565(4)
H12_4 H 0.2044 0.9738 0.1488
C11_4 C 0.1460(2) 0.9615(2) 0.2560(4)
C12_4 C 0.2063(2) 0.9649(2) 0.3516(4)
O2_4 O 0.8342(2) 0.06436(16) 0.7600(3)
C3_4 C 0.8733(2) 0.0463(2) 0.8622(4)
H3_4 H 0.9249 0.0546 0.8698
H4_4 H 0.8574 0.0762 0.9128
C13_4 C 0.8350(2) 0.1354(2) 0.7295(3)
C14_4 C 0.8746(2) 0.1896(2) 0.7921(4)
H13_4 H 0.9029 0.1791 0.8587
C15_4 C 0.7937(3) 0.1508(2) 0.6302(4)
H15_4 H 0.7668 0.1144 0.5895
C16_4 C 0.8706(3) 0.2601(2) 0.7524(4)
H16_4 H 0.8958 0.2971 0.7939
C17_4 C 0.7923(3) 0.2200(3) 0.5915(4)
H17_4 H 0.7660 0.2300 0.5235
C18_4 C 0.8306(2) 0.2758(3) 0.6541(4)
C19_4 C 0.8281(2) 0.3501(2) 0.6109(4)
O1_4 O 0.97830(16) 0.9548(2) 0.9890(3)
C1_4 C 0.8598(2) 0.9658(2) 0.8817(3)
C2_4 C 0.9041(2) 0.9466(3) 0.9907(4)
O3_4 O 0.75421(16) 0.9931(2) 0.9460(3)
O4_4 O 0.8756(2) 0.84618(17) 0.8263(3)
C4_4 C 0.7790(2) 0.9520(3) 0.8706(4)
H5_4 H 0.7709 0.9008 0.8805
H6_4 H 0.7517 0.9655 0.8008
C5_4 C 0.8812(3) 0.9197(2) 0.7985(4)
H7_4 H 0.9306 0.9307 0.7954
H8_4 H 0.8490 0.9294 0.7304
C20_4 C 0.6806(2) 0.9915(3) 0.9363(4)
C22_4 C 0.6322(3) 0.9590(5) 0.8544(6)
H19_4 H 0.6485 0.9344 0.8028
C24_4 C 0.5579(3) 0.9634(5) 0.8498(7)
H21_4 H 0.5245 0.9442 0.7922
C25_4 C 0.5329(3) 0.9955(4) 0.9290(5)
C26_4 C 0.4538(3) 0.9968(4) 0.9225(5)
C27_4 C 0.8662(3) 0.7939(2) 0.7505(4)
C28_4 C 0.8671(4) 0.8061(3) 0.6480(4)
H22_4 H 0.8749 0.8525 0.6256
C29_4 C 0.8544(3) 0.7247(3) 0.7835(4)
H23_4 H 0.8538 0.7164 0.8529
C30_4 C 0.8563(4) 0.7494(3) 0.5794(4)
H24_4 H 0.8577 0.7579 0.5103
C31_4 C 0.8435(4) 0.6682(3) 0.7125(4)
H25_4 H 0.8362 0.6216 0.7349
C32_4 C 0.8434(3) 0.6797(3) 0.6090(4)
C33_4 C 0.8300(3) 0.6197(3) 0.5311(4)
C21_4 C 0.6568(3) 0.0243(4) 0.0162(6)
H18_4 H 0.6902 0.0451 0.0723
C23_4 C 0.5831(3) 0.0261(5) 0.0126(6)
H20_4 H 0.5672 0.0480 0.0665
H1_4 H 0.8945 0.8971 0.0080
H2_4 H 0.8921 0.9787 0.0422
H9_4 H 0.9705 0.9385 0.1859
loop_
_geom_bond_atom_site_label_1
_geom_bond_atom_site_label_2
_geom_bond_site_symmetry_1
_geom_bond_site_symmetry_2
Zn1 O5 1_555 1_555
O1 C2 1_555 1_555
C1 C2 1_555 1_555
Zn2 O6 1_555 1_555
O2 C3 1_555 1_555
C2 H1 1_555 1_555
H2 C2 1_555 1_555
O3 C4 1_555 1_555
C3 C1 1_555 1_555
H3 C3 1_555 1_555
H4 C3 1_555 1_555
O4 C5 1_555 1_555
C4 C1 1_555 1_555
H5 C4 1_555 1_555
H6 C4 1_555 1_555
O5 C12 1_555 1_555
C5 C1 1_555 1_555
H7 C5 1_555 1_555
H8 C5 1_555 1_555
O6 Zn1 1_555 1_555
C6 O1 1_555 1_555
O7 C19 1_555 1_555
C7 C6 1_555 1_555
H9 C7 1_555 1_555
O8 C19 1_555 1_555
C8 C6 1_555 1_555
H10 C8 1_555 1_555
C9 C7 1_555 1_555
H11 C9 1_555 1_555
C10 C8 1_555 1_555
H12 C10 1_555 1_555
C11 C9 1_555 1_555
O12 C33 1_555 1_555
C12 O6 1_555 1_555
C13 O2 1_555 1_555
C14 C13 1_555 1_555
H13 C14 1_555 1_555
O13 Zn2 1_555 1_555
H14 O13 1_555 1_555
C15 C13 1_555 1_555
H15 C15 1_555 1_555
C16 C14 1_555 1_555
H16 C16 1_555 1_555
C17 C15 1_555 1_555
H17 C17 1_555 1_555
C18 C16 1_555 1_555
C19 C18 1_555 1_555
C20 O3 1_555 1_555
C21 C20 1_555 1_555
H18 C21 1_555 1_555
C22 C20 1_555 1_555
H19 C22 1_555 1_555
C23 C21 1_555 1_555
H20 C23 1_555 1_555
C24 C22 1_555 1_555
H21 C24 1_555 1_555
C25 C23 1_555 1_555
C27 O4 1_555 1_555
C28 C27 1_555 1_555
H22 C28 1_555 1_555
C29 C27 1_555 1_555
H23 C29 1_555 1_555
C30 C28 1_555 1_555
H24 C30 1_555 1_555
C31 C29 1_555 1_555
H25 C31 1_555 1_555
C32 C30 1_555 1_555
C33 C32 1_555 1_555
C34 O13 1_555 1_555
H26 C34 1_555 1_555
H27 C34 1_555 1_555
C35 C34 1_555 1_555
H28 C35 1_555 1_555
H29 C35 1_555 1_555
H30 C35 1_555 1_555
Zn6 O7 1_555 1_555
O15 Zn2 1_555 1_555
O17 Zn1 1_555 1_555
O18 Zn2 1_555 1_555
O19 Zn2 1_555 1_555
C10 C11 1_555 1_555
C11 C12 1_555 1_555
C17 C18 1_555 1_555
C24 C25 1_555 1_555
C31 C32 1_555 1_555
Zn8 O11 1_555 1_555
O9 C26 1_555 1_555
O10 C26 1_555 1_555
Zn4 O9 1_555 1_555
Zn7 O10 1_555 1_555
Zn4 O5_2 1_555 1_555
Zn7 O6_2 1_555 1_555
O5_2 C12_2 1_555 1_555
O6_2 Zn4 1_555 1_555
C7_2 C6_2 1_555 1_555
H9_2 C7_2 1_555 1_555
C8_2 C6_2 1_555 1_555
H10_2 C8_2 1_555 1_555
C9_2 C7_2 1_555 1_555
H11_2 C9_2 1_555 1_555
C10_2 C8_2 1_555 1_555
H12_2 C10_2 1_555 1_555
C11_2 C9_2 1_555 1_555
C12_2 O6_2 1_555 1_555
O13_2 Zn7 1_555 1_555
H14_2 O13_2 1_555 1_555
H18_2 C21_2 1_555 1_555
C23_2 C21_2 1_555 1_555
H20_2 C23_2 1_555 1_555
C34_2 O13_2 1_555 1_555
H26_2 C34_2 1_555 1_555
H27_2 C34_2 1_555 1_555
C35_2 C34_2 1_555 1_555
H28_2 C35_2 1_555 1_555
H29_2 C35_2 1_555 1_555
H30_2 C35_2 1_555 1_555
O15 Zn4 1_555 1_555
O14 Zn7 1_555 1_555
O16_2 Zn4 1_555 1_555
O19_2 Zn7 1_555 1_555
O20_2 Zn4 1_555 1_555
C10_2 C11_2 1_555 1_555
C11_2 C12_2 1_555 1_555
O1_2 C2_2 1_555 1_555
C1_2 C2_2 1_555 1_555
O2_2 C3_2 1_555 1_555
O3_2 C4_2 1_555 1_555
C3_2 C1_2 1_555 1_555
H3_2 C3_2 1_555 1_555
H4_2 C3_2 1_555 1_555
O4_2 C5_2 1_555 1_555
C4_2 C1_2 1_555 1_555
H5_2 C4_2 1_555 1_555
H6_2 C4_2 1_555 1_555
C5_2 C1_2 1_555 1_555
H7_2 C5_2 1_555 1_555
H8_2 C5_2 1_555 1_555
O7_2 C19_2 1_555 1_555
O8_2 C19_2 1_555 1_555
O11_2 C33_2 1_555 1_555
O12_2 C33_2 1_555 1_555
C13_2 O2_2 1_555 1_555
C14_2 C13_2 1_555 1_555
H13_2 C14_2 1_555 1_555
C15_2 C13_2 1_555 1_555
H15_2 C15_2 1_555 1_555
C16_2 C14_2 1_555 1_555
H16_2 C16_2 1_555 1_555
C17_2 C15_2 1_555 1_555
H17_2 C17_2 1_555 1_555
C18_2 C16_2 1_555 1_555
C19_2 C18_2 1_555 1_555
C20_2 O3_2 1_555 1_555
C22_2 C20_2 1_555 1_555
H19_2 C22_2 1_555 1_555
C24_2 C22_2 1_555 1_555
H21_2 C24_2 1_555 1_555
C27_2 O4_2 1_555 1_555
C28_2 C27_2 1_555 1_555
H22_2 C28_2 1_555 1_555
C29_2 C27_2 1_555 1_555
H23_2 C29_2 1_555 1_555
C30_2 C28_2 1_555 1_555
H24_2 C30_2 1_555 1_555
C31_2 C29_2 1_555 1_555
H25_2 C31_2 1_555 1_555
C32_2 C30_2 1_555 1_555
C33_2 C32_2 1_555 1_555
Zn3 O7_2 1_555 1_555
Zn8 O7_2 1_555 1_555
Zn6 O11_2 1_555 1_555
O8_2 Zn3 1_555 1_555
C17_2 C18_2 1_555 1_555
C24_2 C25_2 1_555 1_555
C31_2 C32_2 1_555 1_555
O17 C26_2 1_555 1_555
O18 C26_2 1_555 1_555
Zn5 O5_3 1_555 1_555
O5_3 C12_3 1_555 1_555
O6_3 Zn5 1_555 1_555
C7_3 C6_3 1_555 1_555
C8_3 C6_3 1_555 1_555
H10_3 C8_3 1_555 1_555
C9_3 C7_3 1_555 1_555
H11_3 C9_3 1_555 1_555
C10_3 C8_3 1_555 1_555
H12_3 C10_3 1_555 1_555
C11_3 C9_3 1_555 1_555
C12_3 O6_3 1_555 1_555
O17_2 Zn5 1_555 1_555
C10_3 C11_3 1_555 1_555
C11_3 C12_3 1_555 1_555
O13_3 Zn8 1_555 1_555
H14_3 O13_3 1_555 1_555
C34_3 O13_3 1_555 1_555
H26_3 C34_3 1_555 1_555
H27_3 C34_3 1_555 1_555
C35_3 C34_3 1_555 1_555
H28_3 C35_3 1_555 1_555
H29_3 C35_3 1_555 1_555
H30_3 C35_3 1_555 1_555
O18_2 Zn8 1_555 1_555
O1_3 C2_3 1_555 1_555
C1_3 C2_3 1_555 1_555
C2_3 H1_3 1_555 1_555
H2_3 C2_3 1_555 1_555
O3_3 C4_3 1_555 1_555
O4_3 C5_3 1_555 1_555
C4_3 C1_3 1_555 1_555
H5_3 C4_3 1_555 1_555
H6_3 C4_3 1_555 1_555
C5_3 C1_3 1_555 1_555
H7_3 C5_3 1_555 1_555
H8_3 C5_3 1_555 1_555
O10_2 C26_3 1_555 1_555
O20 C33_3 1_555 1_555
C20_3 O3_3 1_555 1_555
C22_3 C20_3 1_555 1_555
H19_3 C22_3 1_555 1_555
C24_3 C22_3 1_555 1_555
H21_3 C24_3 1_555 1_555
C26_3 C25_3 1_555 1_555
C27_3 O4_3 1_555 1_555
C28_3 C27_3 1_555 1_555
H22_3 C28_3 1_555 1_555
C29_3 C27_3 1_555 1_555
H23_3 C29_3 1_555 1_555
C30_3 C28_3 1_555 1_555
H24_3 C30_3 1_555 1_555
C31_3 C29_3 1_555 1_555
H25_3 C31_3 1_555 1_555
C32_3 C30_3 1_555 1_555
C33_3 C32_3 1_555 1_555
Zn6 O10_2 1_555 1_555
C24_3 C25_3 1_555 1_555
C31_3 C32_3 1_555 1_555
O2_3 C3_3 1_555 1_555
H3_3 C3_3 1_555 1_555
H4_3 C3_3 1_555 1_555
O14 C19_3 1_555 1_555
O16 C19_3 1_555 1_555
C13_3 O2_3 1_555 1_555
C14_3 C13_3 1_555 1_555
H13_3 C14_3 1_555 1_555
C15_3 C13_3 1_555 1_555
H15_3 C15_3 1_555 1_555
C16_3 C14_3 1_555 1_555
H16_3 C16_3 1_555 1_555
C17_3 C15_3 1_555 1_555
H17_3 C17_3 1_555 1_555
C18_3 C16_3 1_555 1_555
C19_3 C18_3 1_555 1_555
H18_3 C21_3 1_555 1_555
C23_3 C21_3 1_555 1_555
H20_3 C23_3 1_555 1_555
Zn3 O9_2 1_555 1_555
C17_3 C18_3 1_555 1_555
O13_4 Zn6 1_555 1_555
H14_4 O13_4 1_555 1_555
C34_4 O13_4 1_555 1_555
H26_4 C34_4 1_555 1_555
H27_4 C34_4 1_555 1_555
C35_4 C34_4 1_555 1_555
H28_4 C35_4 1_555 1_555
H29_4 C35_4 1_555 1_555
H30_4 C35_4 1_555 1_555
Zn3 O5_4 1_555 1_555
O5_4 C12_4 1_555 1_555
O6_4 Zn3 1_555 1_555
C7_4 C6_4 1_555 1_555
C8_4 C6_4 1_555 1_555
H10_4 C8_4 1_555 1_555
C9_4 C7_4 1_555 1_555
H11_4 C9_4 1_555 1_555
C10_4 C8_4 1_555 1_555
H12_4 C10_4 1_555 1_555
C11_4 C9_4 1_555 1_555
C12_4 O6_4 1_555 1_555
C10_4 C11_4 1_555 1_555
C11_4 C12_4 1_555 1_555
O2_4 C3_4 1_555 1_555
H3_4 C3_4 1_555 1_555
H4_4 C3_4 1_555 1_555
O15 C19_4 1_555 1_555
O16_2 C19_4 1_555 1_555
C13_4 O2_4 1_555 1_555
C14_4 C13_4 1_555 1_555
H13_4 C14_4 1_555 1_555
C15_4 C13_4 1_555 1_555
H15_4 C15_4 1_555 1_555
C16_4 C14_4 1_555 1_555
H16_4 C16_4 1_555 1_555
C17_4 C15_4 1_555 1_555
H17_4 C17_4 1_555 1_555
C18_4 C16_4 1_555 1_555
C19_4 C18_4 1_555 1_555
C17_4 C18_4 1_555 1_555
O1_4 C2_4 1_555 1_555
C1_4 C2_4 1_555 1_555
O3_4 C4_4 1_555 1_555
O4_4 C5_4 1_555 1_555
C4_4 C1_4 1_555 1_555
H5_4 C4_4 1_555 1_555
H6_4 C4_4 1_555 1_555
C5_4 C1_4 1_555 1_555
H7_4 C5_4 1_555 1_555
H8_4 C5_4 1_555 1_555
O18_2 C26_4 1_555 1_555
O19_2 C33_4 1_555 1_555
O20_2 C33_4 1_555 1_555
C20_4 O3_4 1_555 1_555
C22_4 C20_4 1_555 1_555
H19_4 C22_4 1_555 1_555
C24_4 C22_4 1_555 1_555
H21_4 C24_4 1_555 1_555
C26_4 C25_4 1_555 1_555
C27_4 O4_4 1_555 1_555
C28_4 C27_4 1_555 1_555
H22_4 C28_4 1_555 1_555
C29_4 C27_4 1_555 1_555
H23_4 C29_4 1_555 1_555
C30_4 C28_4 1_555 1_555
H24_4 C30_4 1_555 1_555
C31_4 C29_4 1_555 1_555
H25_4 C31_4 1_555 1_555
C32_4 C30_4 1_555 1_555
C33_4 C32_4 1_555 1_555
C24_4 C25_4 1_555 1_555
C31_4 C32_4 1_555 1_555
H18_4 C21_4 1_555 1_555
C23_4 C21_4 1_555 1_555
H20_4 C23_4 1_555 1_555

#END
