
###############################################################################
#
# This file contains modified crystal structure data generated from the
# MOF subset of the Cambridge Structural Database (CSD) v543 
# hosted by the Cambridge Crystallographic Data Centre (CCDC).
#
# This work is licensed under the Creative Commons
# Attribution-NonCommercial-ShareAlike 4.0 International License.
# To view a copy of this license, visit
# http://creativecommons.org/licenses/by-nc-sa/4.0/
# or send a letter to
# Creative Commons, PO Box 1866, Mountain View, CA 94042, USA.
#
# CIF created using the CSD Python API on 29 September 2022
# The structure has been converted into the P1 space group
# The structure has a 3D framework
# The original CSD entry RUPHAO is in the triclinic crystal system
# The original CSD entry RUPHAO is in a Sohncke space group
# The framework has been calculated to contain at least 10.0% void space
# The void calculation uses a probe of radius 1.32A, grid spacing 0.4
# H atom positions have been added when not included in the experimental data
#
###############################################################################

data_RUPHAO
_chemical_formula_moiety         '(C33 H22 N6 O13 Sm1)n'
_symmetry_cell_setting           triclinic
_symmetry_space_group_name_H-M   'P 1'
_symmetry_Int_Tables_number      1
_space_group_name_Hall           'P 1'
loop_
_symmetry_equiv_pos_site_id
_symmetry_equiv_pos_as_xyz
1 x,y,z
_cell_length_a                   9.6157(3)
_cell_length_b                   11.5773(3)
_cell_length_c                   11.7190(3)
_cell_angle_alpha                85.8910(10)
_cell_angle_beta                 69.8010(10)
_cell_angle_gamma                78.7320(10)
_cell_volume                     1200.76
loop_
_atom_site_label
_atom_site_type_symbol
_atom_site_fract_x
_atom_site_fract_y
_atom_site_fract_z
_atom_site_U_iso_or_equiv
_atom_site_thermal_displace_type
H17 H 0.1068 0.0070 0.3942 0.1720 Uiso
N8 N 0.0301(9) 0.0971(8) 0.9864(8) 0.0435 Uani
C5 C 0.0552(12) 0.5012(8) 0.1110(11) 0.0469 Uani
H3 H 0.1177 0.5492 0.0595 0.0560 Uiso
N1 N 0.0988(10) 0.4201(8) 0.1801(9) 0.0402 Uani
C30 C 0.0672(16) 0.9726(15) 0.4699(9) 0.1435 Uani
N6 N 0.0294(15) 0.8442(10) 0.6097(9) 0.1332 Uani
C31 C 0.1349(16) 0.8867(15) 0.5093(11) 0.1485 Uani
H18 H 0.2374 0.8558 0.4779 0.1780 Uiso
Sm7 Sm 0.37315(2) 0.37904(2) 0.18203(2) 0.0204 Uani
O2 O 0.5031(7) 0.1639(5) 0.1033(5) 0.0293 Uani
O6 O 0.7458(9) 0.1662(6) 0.2007(6) 0.0401 Uani
O7 O 0.2101(6) 0.4277(5) 0.3825(5) 0.0535 Uani
N3 N 0.2234(11) 0.0210(7) 0.0483(8) 0.0409 Uani
C8 C 0.3807(15) 0.1234(10) 0.1784(11) 0.0347 Uani
O9 O 0.5210(8) 0.2879(5) 0.3009(5) 0.0384 Uani
C14 C 0.6445(6) 0.2204(4) 0.2954(4) 0.0272 Uani
C21 C 0.0769(10) 0.0254(9) 0.0668(8) 0.0372 Uani
O11 O 0.2665(8) 0.1842(6) 0.2417(7) 0.0401 Uani
C22 C 0.6776(6) 0.2073(5) 0.4125(5) 0.0310 Uani
C23 C 0.7904(7) 0.1200(5) 0.4276(5) 0.0373 Uani
H12 H 0.8485 0.0687 0.3641 0.0450 Uiso
C24 C 0.5887(9) 0.2841(6) 0.5096(6) 0.0441 Uani
H13 H 0.5097 0.3410 0.5015 0.0530 Uiso
C25 C 0.8178(7) 0.1083(5) 0.5383(5) 0.0357 Uani
C26 C 0.6200(10) 0.2741(6) 0.6164(6) 0.0476 Uani
H14 H 0.5640 0.3270 0.6789 0.0570 Uiso
C27 C 0.7345(7) 0.1860(5) 0.6334(5) 0.0332 Uani
N5 N 0.9302(7) 0.0102(6) 0.5491(5) 0.0510 Uani
C32 C 0.7567(6) 0.1826(5) 0.7556(5) 0.0295 Uani
O12 O 0.6431(8) 0.2239(5) 0.8455(5) 0.0375 Uani
O13 O 0.8831(5) 0.1402(4) 0.7659(4) 0.0374 Uani
Sm5 Sm 0.76346(2) 0.14821(2) 0.99393(2) 0.0181 Uani
O15 O 0.6381(7) 0.3665(5) 0.0471(5) 0.0286 Uani
O16 O 0.4540(8) 0.5541(6) 0.2445(6) 0.0361 Uani
O20 O 0.3154(9) 0.5850(6) 0.1270(7) 0.0433 Uani
H21 H 0.129733 0.379346 0.406572 . .
H22 H 0.268426 0.411703 0.439026 . .
O1 O 0.3909(8) 0.3716(7) 0.9653(5) 0.0390 Uani
C6 C 0.1530(15) 0.1456(14) 0.9279(13) 0.0708 Uani
H4 H 0.1518 0.2076 0.8729 0.0850 Uiso
C10 C 0.2783(17) 0.0970(13) 0.9552(13) 0.0737 Uani
H6 H 0.3760 0.1114 0.9200 0.0880 Uiso
O17 O 0.8694(8) 0.3317(5) 0.9444(7) 0.0377 Uani
H19 H 0.334546 0.311626 0.956028 . .
H20 H 0.34691 0.449944 0.94018 . .
C4 C 0.3068(13) 0.8255(11) 0.1247(12) 0.0351 Uani
H2 H 0.2556 0.7969 0.0816 0.0420 Uiso
O5 O 0.8028(9) 0.9428(5) 0.0566(7) 0.0376 Uani
N2 N 0.9092(8) 0.5086(6) 0.1216(6) 0.0262 Uani
C9 C 0.3071(14) 0.9406(11) 0.1245(12) 0.0349 Uani
C11 C 0.8320(11) 0.5768(8) 0.0611(8) 0.0190 Uani
C13 C 0.3870(14) 0.9878(9) 0.1782(12) 0.0353 Uani
C15 C 0.8575(10) 0.4271(7) 0.2109(8) 0.0305 Uani
H7 H 0.7604 0.4105 0.2398 0.0370 Uiso
C17 C 0.9716(11) 0.3766(8) 0.2483(9) 0.0408 Uani
H8 H 0.9661 0.3210 0.3103 0.0490 Uiso
C18 C 0.3796(12) 0.7513(10) 0.1862(10) 0.0229 Uani
C19 C 0.4604(11) 0.7984(7) 0.2471(9) 0.0253 Uani
H9 H 0.5123 0.7481 0.2904 0.0300 Uiso
C20 C 0.4637(15) 0.9239(10) 0.2432(12) 0.0299 Uani
H10 H 0.5153 0.9566 0.2829 0.0360 Uiso
H11 H 0.0150 0.9840 0.1278 0.0440 Uiso
C28 C 0.8338(13) 0.7008(9) 0.0522(11) 0.0296 Uani
H15 H 0.8863 0.7338 0.0909 0.0350 Uiso
C29 C 0.9058(10) 0.9262(7) 0.6347(7) 0.0619 Uani
H16 H 0.8174 0.9255 0.7004 0.0740 Uiso
C33 C 0.3862(14) 0.6273(10) 0.1915(11) 0.0270 Uani
C1 C 0.7505(15) 0.7748(10) 0.9804(12) 0.0321 Uani
C2 C 0.6723(15) 0.6166(11) 0.9340(12) 0.0323 Uani
H1 H 0.6152 0.5883 0.8961 0.0390 Uiso
C3 C 0.7534(15) 0.9102(10) 0.9893(12) 0.0296 Uani
O4 O 0.6956(9) 0.9755(6) 0.9167(6) 0.0396 Uani
C7 C 0.6726(14) 0.7299(12) 0.9246(12) 0.0453 Uani
H5 H 0.6201 0.7781 0.8804 0.0550 Uiso
C12 C 0.7520(10) 0.5296(9) 0.9975(9) 0.0180 Uani
C16 C 0.7517(10) 0.4039(7) 0.9992(8) 0.0170 Uani
loop_
_atom_site_aniso_label
_atom_site_aniso_U_11
_atom_site_aniso_U_22
_atom_site_aniso_U_33
_atom_site_aniso_U_23
_atom_site_aniso_U_13
_atom_site_aniso_U_12
N8 0.032 0.036 0.056 0.025 -0.013 -0.004
C5 0.041 0.025 0.092 0.013 -0.043 -0.013
N1 0.035 0.038 0.066 0.012 -0.038 -0.015
C30 0.13 0.198 0.037 -0.02 -0.024 0.121
N6 0.166 0.104 0.082 -0.018 -0.042 0.092
C31 0.108 0.185 0.067 0.015 0.006 0.1
Sm7 0.02454 0.01379 0.02525 0.0006 -0.01196 -0.00298
O2 0.034 0.023 0.029 0.0028 -0.003 -0.016
O6 0.06 0.034 0.03 0.001 -0.027 0.004
O7 0.047 0.063 0.045 -0.013 -0.008 -0.007
N3 0.049 0.023 0.063 0.013 -0.035 -0.01
C8 0.049 0.028 0.04 0.014 -0.028 -0.018
O9 0.054 0.032 0.038 -0.005 -0.033 0.006
C14 0.038 0.027 0.025 0.0061 -0.0205 -0.0094
C21 0.028 0.044 0.035 0.016 -0.009 -0.005
O11 0.032 0.019 0.055 -0.002 0 0.002
C22 0.04 0.034 0.023 -0.0007 -0.018 -0.002
C23 0.045 0.039 0.025 -0.006 -0.014 0.005
C24 0.064 0.037 0.035 -0.003 -0.034 0.015
C25 0.043 0.042 0.022 -0.001 -0.015 0
C26 0.075 0.039 0.025 -0.007 -0.023 0.012
C27 0.043 0.035 0.024 -0.0028 -0.017 -0.001
N5 0.053 0.058 0.036 0.003 -0.019 0.01
C32 0.042 0.03 0.02 0.0007 -0.016 -0.005
O12 0.052 0.035 0.027 -0.0045 -0.023 0.008
O13 0.037 0.05 0.026 -0.0021 -0.0139 -0.003
Sm5 0.02618 0.01214 0.01955 0.00113 -0.01256 -0.00317
O15 0.033 0.017 0.028 -0.0044 0.002 -0.0076
O16 0.052 0.021 0.043 0.003 -0.022 -0.015
O20 0.051 0.026 0.071 0.007 -0.04 -0.016
O1 0.045 0.05 0.022 -0.005 -0.015 0
C6 0.049 0.096 0.081 0.039 -0.047 -0.013
C10 0.063 0.087 0.09 0.057 -0.044 -0.045
O17 0.031 0.012 0.064 0.004 -0.008 -0.006
C4 0.035 0.038 0.047 0.006 -0.03 -0.013
O5 0.051 0.011 0.065 0.004 -0.038 -0.006
N2 0.023 0.023 0.036 0.004 -0.013 -0.008
C9 0.035 0.024 0.054 0.012 -0.029 -0.003
C11 0.02 0.009 0.029 0.002 -0.008 -0.006
C13 0.044 0.006 0.048 0.001 -0.005 -0.006
C15 0.03 0.029 0.041 0.013 -0.021 -0.013
C17 0.036 0.033 0.06 0.028 -0.021 -0.023
C18 0.024 0.017 0.033 -0.003 -0.013 -0.009
C19 0.037 0.007 0.044 0.014 -0.03 -0.007
C20 0.041 0.005 0.05 0.002 -0.02 -0.011
C28 0.035 0.007 0.044 -0.001 -0.008 -0.007
C29 0.074 0.055 0.046 0.009 -0.022 0.013
C33 0.031 0.017 0.036 -0.005 -0.014 -0.005
C1 0.038 0.014 0.044 0.002 -0.016 -0.001
C2 0.038 0.027 0.042 -0.005 -0.028 -0.001
C3 0.036 0.006 0.044 0 -0.01 -0.004
O4 0.07 0.017 0.039 0.003 -0.032 -0.001
C7 0.041 0.043 0.048 -0.015 -0.01 -0.003
C12 0.014 0.018 0.027 0.001 -0.013 -0.004
C16 0.015 0.004 0.028 -0.004 -0.003 0.001
loop_
_geom_bond_atom_site_label_1
_geom_bond_atom_site_label_2
_geom_bond_site_symmetry_1
_geom_bond_site_symmetry_2
C5 H3 1_555 1_555
N1 C5 1_555 1_555
C31 C30 1_555 1_555
H18 C31 1_555 1_555
Sm7 N1 1_555 1_555
N6 C31 1_555 1_555
O2 Sm7 1_555 1_555
O7 Sm7 1_555 1_555
C8 O2 1_555 1_555
O9 Sm7 1_555 1_555
C14 O6 1_555 1_555
C21 N3 1_555 1_555
O11 Sm7 1_555 1_555
C22 C14 1_555 1_555
C23 C22 1_555 1_555
H12 C23 1_555 1_555
C24 C22 1_555 1_555
H13 C24 1_555 1_555
C25 C23 1_555 1_555
C26 C24 1_555 1_555
H14 C26 1_555 1_555
C27 C25 1_555 1_555
N5 C25 1_555 1_555
C32 C27 1_555 1_555
O12 C32 1_555 1_555
O13 C32 1_555 1_555
Sm5 O12 1_555 1_555
O16 Sm7 1_555 1_555
O20 Sm7 1_555 1_555
Sm7 O15 1_555 1_555
C8 O11 1_555 1_555
O9 C14 1_555 1_555
C26 C27 1_555 1_555
O13 Sm5 1_555 1_555
O7 H21 1_555 1_555
O7 H22 1_555 1_555
C6 H4 1_555 1_555
C10 C6 1_555 1_555
H6 C10 1_555 1_555
N8 C6 1_555 1_555
O17 Sm5 1_555 1_555
O1 H19 1_555 1_555
O1 H20 1_555 1_555
C4 H2 1_555 1_555
O16 C33 1_555 1_555
C9 C4 1_555 1_555
C11 N2 1_555 1_555
C15 N2 1_555 1_555
H7 C15 1_555 1_555
H8 C17 1_555 1_555
C18 C4 1_555 1_555
C19 C18 1_555 1_555
H9 C19 1_555 1_555
C20 C13 1_555 1_555
H10 C20 1_555 1_555
H15 C28 1_555 1_555
H16 C29 1_555 1_555
C33 C18 1_555 1_555
O20 C33 1_555 1_555
C9 C13 1_555 1_555
C11 C28 1_555 1_555
C15 C17 1_555 1_555
C19 C20 1_555 1_555
C1 C3 1_555 1_555
C2 H1 1_555 1_555
C3 O4 1_555 1_555
C7 C1 1_555 1_555
H5 C7 1_555 1_555
C12 C2 1_555 1_555
C16 C12 1_555 1_555
O17 C16 1_555 1_555
C2 C7 1_555 1_555

#END
