
###############################################################################
#
# This file contains modified crystal structure data generated from the
# MOF subset of the Cambridge Structural Database (CSD) v543 
# hosted by the Cambridge Crystallographic Data Centre (CCDC).
#
# This work is licensed under the Creative Commons
# Attribution-NonCommercial-ShareAlike 4.0 International License.
# To view a copy of this license, visit
# http://creativecommons.org/licenses/by-nc-sa/4.0/
# or send a letter to
# Creative Commons, PO Box 1866, Mountain View, CA 94042, USA.
#
# CIF created using the CSD Python API on 29 September 2022
# The structure has been converted into the P1 space group
# The structure has a 3D framework
# The original CSD entry RUPHES is in the triclinic crystal system
# The original CSD entry RUPHES is in a Sohncke space group
# The framework has been calculated to contain at least 10.0% void space
# The void calculation uses a probe of radius 1.32A, grid spacing 0.4
# H atom positions have been added when not included in the experimental data
#
###############################################################################

data_RUPHES
_chemical_formula_moiety         '(C33 H22 Eu1 N6 O13)n'
_symmetry_cell_setting           triclinic
_symmetry_space_group_name_H-M   'P 1'
_symmetry_Int_Tables_number      1
_space_group_name_Hall           'P 1'
loop_
_symmetry_equiv_pos_site_id
_symmetry_equiv_pos_as_xyz
1 x,y,z
_cell_length_a                   9.6328(4)
_cell_length_b                   11.5511(4)
_cell_length_c                   11.6966(4)
_cell_angle_alpha                86.0120(10)
_cell_angle_beta                 69.9480(10)
_cell_angle_gamma                78.6150(10)
_cell_volume                     1198.52
loop_
_atom_site_label
_atom_site_type_symbol
_atom_site_fract_x
_atom_site_fract_y
_atom_site_fract_z
_atom_site_U_iso_or_equiv
_atom_site_thermal_displace_type
H20 H 0.0761821 0.210296 0.128465 . .
O6 O 0.1579(7) 0.1585(6) 0.7058(6) 0.0529 Uani
O16 O 0.1019(9) 0.4002(7) 0.8470(8) 0.0382 Uani
O19 O 0.0497(10) 0.0004(7) 0.9652(8) 0.0409 Uani
N7 N 0.2678(11) 0.1623(9) 0.9089(9) 0.0364 Uani
H21 H 0.121695 0.211919 0.647552 . .
H22 H 0.261197 0.16798 0.697369 . .
Eu5 Eu 0.60667(2) 0.43736(2) 0.09388(2) 0.0185 Uani
N1 N 0.3405(12) 0.4832(10) 0.0983(11) 0.0507 Uani
O2 O 0.7349(9) 0.2193(6) 0.0372(7) 0.0312 Uani
O4 O 0.7279(10) 0.3594(7) 0.2417(6) 0.0404 Uani
O5 O 0.9749(10) 0.2136(8) 0.1229(7) 0.0425 Uani
O7 O 0.5026(9) 0.2542(6) 0.1423(8) 0.0367 Uani
O9 O 0.6227(9) 0.4187(7) 0.8881(7) 0.0363 Uani
C4 C 0.0946(13) 0.4891(12) 0.1296(12) 0.0507 Uani
C5 C 0.2932(12) 0.5596(10) 0.0187(10) 0.0329 Uani
N2 N 0.1473(11) 0.5671(8) 0.0394(8) 0.0342 Uani
O12 O 0.8529(10) 0.2948(7) 0.7854(6) 0.0375 Uani
C10 C 0.6121(7) 0.4020(5) 0.3321(5) 0.0300 Uani
C13 C 0.6354(7) 0.3970(6) 0.4537(5) 0.0346 Uani
C14 C 0.5512(8) 0.4749(6) 0.5501(5) 0.0387 Uani
C15 C 0.7507(11) 0.3111(7) 0.4697(7) 0.0483 Uani
H7 H 0.8095 0.2599 0.4061 0.0580 Uiso
C16 C 0.6925(7) 0.3760(5) 0.6749(5) 0.0301 Uani
C17 C 0.5793(8) 0.4643(6) 0.6597(6) 0.0414 Uani
H8 H 0.5222 0.5164 0.7229 0.0500 Uiso
C18 C 0.7801(10) 0.3003(7) 0.5785(7) 0.0453 Uani
H9 H 0.8581 0.2426 0.5871 0.0540 Uiso
C19 C 0.2069(16) 0.4351(14) 0.1601(13) 0.0571 Uani
H10 H 0.2025 0.3727 0.2152 0.0680 Uiso
C20 C 0.6219(13) 0.1820(10) 0.0848(11) 0.0266 Uani
C21 C 0.6191(10) 0.0561(10) 0.0907(9) 0.0180 Uani
C22 C 0.5385(12) 0.0081(11) 0.0315(9) 0.0223 Uani
N4 N 0.4377(8) 0.5742(7) 0.5406(6) 0.0618 Uani
C24 C 0.4663(13) 0.6599(9) 0.4545(8) 0.0701 Uani
H12 H 0.5545 0.6595 0.3887 0.0840 Uiso
C25 C 0.3049(17) 0.6160(16) 0.6199(10) 0.1458 Uani
H13 H 0.2682 0.5836 0.6970 0.1750 Uiso
H15 H 0.2505 0.0353 0.0255 0.0560 Uiso
N6 N 0.3433(17) 0.7452(12) 0.4825(11) 0.1490 Uani
C31 C 0.2350(17) 0.7001(16) 0.5836(13) 0.1389 Uani
H18 H 0.1323 0.7294 0.6150 0.1670 Uiso
O13 O 0.4860(6) 0.4448(5) 0.3214(4) 0.0388 Uani
C32 C 0.7261(6) 0.3645(5) 0.7920(5) 0.0279 Uani
Eu8 Eu 0.99568(2) 0.20654(2) 0.90657(2) 0.0200 Uani
O15 O 0.6780(11) 0.6117(7) 0.1699(7) 0.0426 Uani
O22 O 0.5617(10) 0.6411(6) 0.0361(9) 0.0429 Uani
H19 H 0.932148 0.1452 0.167005 . .
C3 C 0.3845(13) 0.2083(11) 0.8423(12) 0.0471 Uani
H2 H 0.3842 0.2634 0.7804 0.0560 Uiso
H4 H 0.3552 0.6009 0.9578 0.0390 Uiso
C8 C 0.0640(14) 0.6439(13) 0.9686(13) 0.0334 Uani
C12 C 0.0654(13) 0.7563(12) 0.9599(13) 0.0348 Uani
H6 H 0.1232 0.7841 0.9974 0.0420 Uiso
C26 C 0.5096(15) 0.1625(10) 0.8780(11) 0.0414 Uani
H14 H 0.6047 0.1822 0.8483 0.0500 Uiso
C27 C 0.3114(14) 0.0850(12) 0.9756(13) 0.0465 Uani
N5 N 0.4587(9) 0.0806(8) 0.9683(8) 0.0293 Uani
O17 O 0.8676(8) 0.4215(6) 0.9834(6) 0.0274 Uani
O20 O 0.9180(9) 0.0331(7) 0.8417(7) 0.0368 Uani
C23 C 0.7005(17) 0.9656(11) 0.1514(14) 0.0345 Uani
H11 H 0.7620 0.9923 0.1861 0.0420 Uiso
C28 C 0.6980(13) 0.8576(12) 0.1625(12) 0.0295 Uani
H16 H 0.7494 0.8101 0.2083 0.0350 Uiso
C29 C 0.5361(14) 0.8825(8) 0.0339(11) 0.0272 Uani
C30 C 0.6224(15) 0.8120(11) 0.1092(12) 0.0307 Uani
C33 C 0.6166(14) 0.6757(10) 0.0963(11) 0.0223 Uani
H3 H 0.9958 0.4772 0.1628 0.0610 Uiso
C1 C 0.9058(15) 0.6600(9) 0.8461(12) 0.0246 Uani
H1 H 0.8542 0.6271 0.8063 0.0300 Uiso
C2 C 0.9892(13) 0.4612(9) 0.9091(10) 0.0227 Uani
C6 C 0.9108(16) 0.7894(12) 0.8428(13) 0.0367 Uani
H5 H 0.8586 0.8406 0.8002 0.0440 Uiso
C7 C 0.9927(12) 0.8351(11) 0.9029(10) 0.0192 Uani
C9 C 0.9832(15) 0.5973(10) 0.9119(12) 0.0372 Uani
C11 C 0.9830(16) 0.9586(12) 0.8934(13) 0.0306 Uani
H17 H 0.4862 0.8491 0.9930 0.0330 Uiso
loop_
_atom_site_aniso_label
_atom_site_aniso_U_11
_atom_site_aniso_U_22
_atom_site_aniso_U_33
_atom_site_aniso_U_23
_atom_site_aniso_U_13
_atom_site_aniso_U_12
O6 0.05 0.06 0.042 -0.012 -0.005 -0.01
O16 0.03 0.022 0.05 -0.001 0 0
O19 0.049 0.029 0.061 0.003 -0.037 -0.012
N7 0.031 0.035 0.054 0.008 -0.028 -0.009
Eu5 0.026 0.01274 0.02018 0.00105 -0.01217 -0.00352
N1 0.035 0.043 0.07 0.036 -0.019 -0.008
O2 0.032 0.021 0.034 -0.002 0.001 -0.011
O4 0.057 0.041 0.027 0 -0.025 0.002
O5 0.054 0.05 0.022 -0.002 -0.013 -0.005
O7 0.028 0.007 0.068 0.003 -0.005 -0.008
O9 0.049 0.034 0.032 0.001 -0.027 0.002
C4 0.025 0.061 0.066 0.027 -0.015 -0.018
C5 0.029 0.03 0.046 0.018 -0.025 -0.004
N2 0.048 0.023 0.044 0.016 -0.029 -0.016
O12 0.054 0.033 0.035 0 -0.032 0.001
C10 0.044 0.028 0.02 0.0007 -0.015 -0.004
C13 0.041 0.037 0.026 -0.003 -0.015 0
C14 0.044 0.046 0.025 -0.003 -0.017 0.005
C15 0.074 0.039 0.027 -0.007 -0.022 0.012
C16 0.039 0.031 0.024 0.001 -0.018 -0.002
C17 0.043 0.051 0.026 -0.009 -0.014 0.008
C18 0.065 0.036 0.038 0.001 -0.032 0.01
C19 0.054 0.075 0.056 0.035 -0.027 -0.04
C20 0.023 0.018 0.033 -0.009 -0.008 0.01
C21 0.012 0.023 0.023 0.002 -0.011 -0.004
C22 0.023 0.013 0.025 0.001 -0.001 -0.003
N4 0.056 0.085 0.032 0 -0.017 0.019
C24 0.099 0.057 0.045 0.005 -0.028 0.012
C25 0.133 0.205 0.043 -0.04 -0.037 0.125
N6 0.177 0.126 0.077 -0.007 -0.025 0.096
C31 0.101 0.172 0.076 0.003 -0.005 0.084
O13 0.039 0.054 0.026 0.002 -0.0137 -0.01
C32 0.035 0.028 0.028 0.007 -0.019 -0.01
Eu8 0.0248 0.01321 0.02517 0.00117 -0.01229 -0.00401
O15 0.073 0.015 0.046 0.012 -0.032 -0.005
O22 0.06 0.008 0.079 0.008 -0.047 -0.008
C3 0.033 0.043 0.069 0.029 -0.029 -0.004
C8 0.033 0.021 0.061 0.006 -0.034 -0.008
C12 0.023 0.044 0.047 -0.006 -0.02 -0.011
C26 0.053 0.035 0.055 0.023 -0.037 -0.025
C27 0.035 0.039 0.069 0.008 -0.018 -0.017
N5 0.02 0.024 0.047 -0.002 -0.015 -0.004
O17 0.032 0.018 0.032 0.0012 -0.006 -0.013
O20 0.053 0.024 0.043 -0.007 -0.027 -0.007
C23 0.042 0.019 0.052 -0.002 -0.03 -0.001
C28 0.026 0.027 0.043 -0.009 -0.02 -0.004
C29 0.043 0 0.041 0.004 -0.017 -0.006
C30 0.035 0.015 0.047 0 -0.022 -0.001
C33 0.028 0.006 0.032 0 -0.007 -0.007
C1 0.035 0.002 0.045 0.001 -0.022 -0.007
C2 0.032 0.015 0.032 0.013 -0.018 -0.021
C6 0.054 0.015 0.046 0.015 -0.026 -0.006
C7 0.019 0.017 0.028 -0.002 -0.011 -0.012
C9 0.048 0.003 0.053 0 -0.006 -0.007
C11 0.033 0.023 0.038 -0.007 -0.015 -0.002
loop_
_geom_bond_atom_site_label_1
_geom_bond_atom_site_label_2
_geom_bond_site_symmetry_1
_geom_bond_site_symmetry_2
O6 H21 1_555 1_555
O6 H22 1_555 1_555
Eu5 N1 1_555 1_555
N1 C5 1_555 1_555
O2 Eu5 1_555 1_555
O4 Eu5 1_555 1_555
O7 Eu5 1_555 1_555
O9 C32 1_555 1_555
N2 C4 1_555 1_555
O12 C32 1_555 1_555
C10 O4 1_555 1_555
C13 C10 1_555 1_555
C14 C13 1_555 1_555
C15 C13 1_555 1_555
H7 C15 1_555 1_555
C16 C17 1_555 1_555
C17 C14 1_555 1_555
H8 C17 1_555 1_555
C18 C15 1_555 1_555
H9 C18 1_555 1_555
C19 N1 1_555 1_555
H10 C19 1_555 1_555
C20 O2 1_555 1_555
C21 C20 1_555 1_555
C22 C21 1_555 1_555
N4 C14 1_555 1_555
C24 N4 1_555 1_555
H12 C24 1_555 1_555
C25 N4 1_555 1_555
H13 C25 1_555 1_555
N6 C24 1_555 1_555
C31 C25 1_555 1_555
H18 C31 1_555 1_555
O13 Eu5 1_555 1_555
C32 C16 1_555 1_555
Eu8 O12 1_555 1_555
O15 Eu5 1_555 1_555
O22 Eu5 1_555 1_555
O7 C20 1_555 1_555
C4 C19 1_555 1_555
C5 N2 1_555 1_555
C10 O13 1_555 1_555
C16 C18 1_555 1_555
N6 C31 1_555 1_555
O5 H19 1_555 1_555
C3 H2 1_555 1_555
N7 C3 1_555 1_555
H6 C12 1_555 1_555
C26 C3 1_555 1_555
H14 C26 1_555 1_555
C27 N7 1_555 1_555
O20 Eu8 1_555 1_555
Eu8 O17 1_555 1_555
C8 C12 1_555 1_555
C26 N5 1_555 1_555
C27 N5 1_555 1_555
O15 C33 1_555 1_555
H11 C23 1_555 1_555
C28 C23 1_555 1_555
H16 C28 1_555 1_555
C30 C28 1_555 1_555
O22 C33 1_555 1_555
C33 C30 1_555 1_555
C29 C30 1_555 1_555
C1 H1 1_555 1_555
O17 C2 1_555 1_555
C2 C9 1_555 1_555
C6 C1 1_555 1_555
H5 C6 1_555 1_555
C7 C6 1_555 1_555
C9 C1 1_555 1_555
C11 C7 1_555 1_555

#END
