
###############################################################################
#
# This file contains modified crystal structure data generated from the
# MOF subset of the Cambridge Structural Database (CSD) v543 
# hosted by the Cambridge Crystallographic Data Centre (CCDC).
#
# This work is licensed under the Creative Commons
# Attribution-NonCommercial-ShareAlike 4.0 International License.
# To view a copy of this license, visit
# http://creativecommons.org/licenses/by-nc-sa/4.0/
# or send a letter to
# Creative Commons, PO Box 1866, Mountain View, CA 94042, USA.
#
# CIF created using the CSD Python API on 29 September 2022
# The structure has been converted into the P1 space group
# The structure has a 3D framework
# The original CSD entry RUPTED is in the orthorhombic crystal system
# The framework has been calculated to contain at least 10.0% void space
# The void calculation uses a probe of radius 1.32A, grid spacing 0.4
#
###############################################################################

data_RUPTED
_chemical_formula_moiety         '(C80 H64 Cu22 I8 N32 O40)n'
_symmetry_cell_setting           triclinic
_symmetry_space_group_name_H-M   'P 1'
_symmetry_Int_Tables_number      1
_space_group_name_Hall           'P 1'
loop_
_symmetry_equiv_pos_site_id
_symmetry_equiv_pos_as_xyz
1 x,y,z
_cell_length_a                   7.6681(8)
_cell_length_b                   31.909(3)
_cell_length_c                   15.4268(16)
_cell_angle_alpha                90
_cell_angle_beta                 90
_cell_angle_gamma                90
_cell_volume                     3774.65
loop_
_atom_site_label
_atom_site_type_symbol
_atom_site_fract_x
_atom_site_fract_y
_atom_site_fract_z
Cu1 Cu 0.08571(11) 0.06192(3) 0.32611(6)
Cu2 Cu 0.07830(11) 0.03422(3) 0.02995(6)
I1 I 0.26207(6) 0.023765(14) 0.45058(3)
I2 I 0.25545(6) 0.047867(16) 0.17888(3)
C6 C 0.4867(9) 0.2057(2) 0.3609(6)
C7 C 0.3107(8) 0.1851(2) 0.3599(5)
C8 C 0.2862(9) 0.1420(2) 0.3503(5)
H4 H 0.3825 0.1244 0.3454
C10 C 0.0139(9) 0.19504(19) 0.3679(5)
N3 N 0.1261(7) 0.12576(16) 0.3481(4)
N4 N 0.1743(7) 0.21159(16) 0.3681(4)
O4 O 0.6189(7) 0.18490(18) 0.3555(6)
O5 O 0.4834(6) 0.24600(14) 0.3659(4)
Cu7 Cu 0.25089(10) 0.27089(2) 0.37333(6)
Cu3 Cu 0.24911(10) 0.22911(2) 0.87333(6)
C1 C 0.4834(9) 0.1695(2) 0.9296(5)
C2 C 0.3055(8) 0.1486(2) 0.9355(4)
C3 C 0.2803(8) 0.1081(2) 0.9649(5)
H1 H 0.3758 0.0924 0.9830
C5 C 0.0125(9) 0.1550(2) 0.9102(5)
N1 N 0.1209(7) 0.09112(17) 0.9677(4)
N2 N 0.1712(7) 0.17226(16) 0.9088(4)
O1 O 0.4789(6) 0.20715(14) 0.8993(4)
O2 O 0.2551(7) 0.2187(2) 0.7309(4)
H7 H 0.2536 0.1926 0.7204
H8 H 0.3489 0.2289 0.7103
O3 O 0.6122(7) 0.15115(18) 0.9546(5)
N5 N 0.3257(7) 0.28841(16) 0.8681(4)
O6 O 0.0166(6) 0.25400(14) 0.8659(4)
Cu6 Cu 0.07830(11) 0.96578(3) 0.52995(6)
I4 I 0.26207(6) 0.976235(14) 0.95058(3)
C9 C 0.9909(8) 0.15240(19) 0.3581(5)
H5 H 0.8781 0.1416 0.3584
H6 H 0.9173 0.2124 0.3744
Cu4 Cu 0.91429(11) 0.06192(3) 0.17389(6)
Cu5 Cu 0.92170(11) 0.03422(3) 0.47005(6)
I3 I 0.73793(6) 0.023765(14) 0.04942(3)
I5 I 0.74455(6) 0.047867(16) 0.32112(3)
Cu6_2 Cu 0.42170(11) 0.53422(3) 0.02995(6)
Cu1_2 Cu 0.41429(11) 0.43808(3) 0.82611(6)
Cu2_2 Cu 0.42170(11) 0.46578(3) 0.52995(6)
I1_2 I 0.23793(6) 0.476235(14) 0.95058(3)
I2_2 I 0.24455(6) 0.452133(16) 0.67888(3)
C1_2 C 0.0166(9) 0.3305(2) 0.4296(5)
C2_2 C 0.1945(8) 0.3514(2) 0.4355(4)
C3_2 C 0.2197(8) 0.3919(2) 0.4649(5)
H1_2 H 0.1242 0.4076 0.4830
C4 C 0.5121(9) 0.3858(2) 0.4392(5)
H2 H 0.6237 0.3972 0.4388
C5_2 C 0.4875(9) 0.3450(2) 0.4102(5)
H3 H 0.5830 0.3294 0.3916
C6_2 C 0.0133(9) 0.2943(2) 0.8609(6)
C7_2 C 0.1893(8) 0.3149(2) 0.8599(5)
C8_2 C 0.2138(9) 0.3580(2) 0.8503(5)
H4_2 H 0.1175 0.3756 0.8454
C9_2 C 0.5091(8) 0.34760(19) 0.8581(5)
H5_2 H 0.6219 0.3584 0.8584
C10_2 C 0.4861(9) 0.30496(19) 0.8679(5)
H6_2 H 0.5827 0.2876 0.8744
N1_2 N 0.3791(7) 0.40888(17) 0.4677(4)
N2_2 N 0.3288(7) 0.32774(16) 0.4088(4)
N3_2 N 0.3739(7) 0.37424(16) 0.8481(4)
O1_2 O 0.0211(6) 0.29285(14) 0.3993(4)
O2_2 O 0.2449(7) 0.2813(2) 0.2309(4)
H7_2 H 0.2464 0.3074 0.2204
H8_2 H 0.1511 0.2711 0.2103
Cu4_2 Cu 0.58571(11) 0.43808(3) 0.67389(6)
Cu5_2 Cu 0.57830(11) 0.46578(3) 0.97005(6)
I3_2 I 0.76207(6) 0.476235(14) 0.54942(3)
I4_2 I 0.23793(6) 0.523765(14) 0.45058(3)
I5_2 I 0.75545(6) 0.452133(16) 0.82112(3)
C4_2 C 0.0121(9) 0.1142(2) 0.5608(5)
H2_2 H 0.1237 0.1028 0.5612
H3_2 H 0.0830 0.1706 0.6084
C9_3 C 0.0091(8) 0.15240(19) 0.1419(5)
H5_3 H 0.1219 0.1416 0.1416
H6_3 H 0.0827 0.2124 0.1256
Cu3_2 Cu 0.75089(10) 0.22911(2) 0.62667(6)
C1_3 C 0.5166(9) 0.1695(2) 0.5704(5)
C2_3 C 0.6945(8) 0.1486(2) 0.5645(4)
C3_3 C 0.7197(8) 0.1081(2) 0.5351(5)
H1_3 H 0.6242 0.0924 0.5170
C5_3 C 0.9875(9) 0.1550(2) 0.5898(5)
C6_3 C 0.5133(9) 0.2057(2) 0.1391(6)
C7_3 C 0.6893(8) 0.1851(2) 0.1401(5)
C8_3 C 0.7138(9) 0.1420(2) 0.1497(5)
H4_3 H 0.6175 0.1244 0.1546
C10_3 C 0.9861(9) 0.19504(19) 0.1321(5)
N1_3 N 0.8791(7) 0.09112(17) 0.5323(4)
N2_3 N 0.8288(7) 0.17226(16) 0.5912(4)
N3_3 N 0.8739(7) 0.12576(16) 0.1519(4)
N4_2 N 0.8257(7) 0.21159(16) 0.1319(4)
O1_3 O 0.5211(6) 0.20715(14) 0.6007(4)
O2_3 O 0.7449(7) 0.2187(2) 0.7691(4)
H7_3 H 0.7464 0.1926 0.7796
H8_3 H 0.6511 0.2289 0.7897
O3_2 O 0.3878(7) 0.15115(18) 0.5454(5)
O4_2 O 0.3811(7) 0.18490(18) 0.1445(6)
O5_2 O 0.5166(6) 0.24600(14) 0.1341(4)
Cu7_2 Cu 0.74911(10) 0.27089(2) 0.12667(6)
N5_2 N 0.6743(7) 0.28841(16) 0.6319(4)
O6_2 O 0.9834(6) 0.25400(14) 0.6341(4)
I4_3 I 0.73793(6) 0.976235(14) 0.54942(3)
Cu6_3 Cu 0.92170(11) 0.96578(3) 0.97005(6)
C1_4 C 0.9834(9) 0.3305(2) 0.0704(5)
C2_4 C 0.8055(8) 0.3514(2) 0.0645(4)
C3_4 C 0.7803(8) 0.3919(2) 0.0351(5)
H1_4 H 0.8758 0.4076 0.0170
C4_3 C 0.4879(9) 0.3858(2) 0.0608(5)
H2_3 H 0.3763 0.3972 0.0612
C5_4 C 0.5125(9) 0.3450(2) 0.0898(5)
H3_3 H 0.4170 0.3294 0.1084
N1_4 N 0.6209(7) 0.40888(17) 0.0323(4)
N2_4 N 0.6712(7) 0.32774(16) 0.0912(4)
O1_4 O 0.9789(6) 0.29285(14) 0.1007(4)
O2_4 O 0.7551(7) 0.2813(2) 0.2691(4)
H7_4 H 0.7536 0.3074 0.2796
H8_4 H 0.8489 0.2711 0.2897
I4_4 I 0.76207(6) 0.523765(14) 0.04942(3)
C6_4 C 0.9867(9) 0.2943(2) 0.6391(6)
C7_4 C 0.8107(8) 0.3149(2) 0.6401(5)
C8_4 C 0.7862(9) 0.3580(2) 0.6497(5)
H4_4 H 0.8825 0.3756 0.6546
C9_4 C 0.4909(8) 0.34760(19) 0.6419(5)
H5_4 H 0.3781 0.3584 0.6416
C10_4 C 0.5139(9) 0.30496(19) 0.6321(5)
H6_4 H 0.4173 0.2876 0.6256
N3_4 N 0.6261(7) 0.37424(16) 0.6519(4)
Cu6_4 Cu 0.57830(11) 0.53422(3) 0.47005(6)
C9_5 C 0.0091(8) 0.84760(19) 0.6419(5)
H5_5 H 0.1219 0.8584 0.6416
H6_5 H 0.0827 0.7876 0.6256
Cu4_3 Cu 0.08571(11) 0.93808(3) 0.82611(6)
I5_3 I 0.25545(6) 0.952133(16) 0.67888(3)
Cu3_3 Cu 0.75089(10) 0.77089(2) 0.12667(6)
C1_5 C 0.5166(9) 0.8305(2) 0.0704(5)
C2_5 C 0.6945(8) 0.8514(2) 0.0645(4)
C3_5 C 0.7197(8) 0.8919(2) 0.0351(5)
H1_5 H 0.6242 0.9076 0.0170
C5_5 C 0.9875(9) 0.8450(2) 0.0898(5)
N1_5 N 0.8791(7) 0.90888(17) 0.0323(4)
N2_5 N 0.8288(7) 0.82774(16) 0.0912(4)
O1_5 O 0.5211(6) 0.79285(14) 0.1007(4)
O2_5 O 0.7449(7) 0.7813(2) 0.2691(4)
H7_5 H 0.7464 0.8074 0.2796
H8_5 H 0.6511 0.7711 0.2897
O3_3 O 0.3878(7) 0.84885(18) 0.0454(5)
N5_3 N 0.6743(7) 0.71159(16) 0.1319(4)
O6_3 O 0.9834(6) 0.74600(14) 0.1341(4)
Cu1_3 Cu 0.91429(11) 0.93808(3) 0.67389(6)
I2_3 I 0.74455(6) 0.952133(16) 0.82112(3)
C6_5 C 0.5133(9) 0.7943(2) 0.6391(6)
C7_5 C 0.6893(8) 0.8149(2) 0.6401(5)
C8_5 C 0.7138(9) 0.8580(2) 0.6497(5)
H4_5 H 0.6175 0.8756 0.6546
C10_5 C 0.9861(9) 0.80496(19) 0.6321(5)
N3_5 N 0.8739(7) 0.87424(16) 0.6519(4)
N4_3 N 0.8257(7) 0.78841(16) 0.6319(4)
O4_3 O 0.3811(7) 0.81510(18) 0.6445(6)
O5_3 O 0.5166(6) 0.75400(14) 0.6341(4)
Cu7_3 Cu 0.74911(10) 0.72911(2) 0.62667(6)
Cu1_4 Cu 0.58571(11) 0.56192(3) 0.17389(6)
I2_4 I 0.75545(6) 0.547867(16) 0.32112(3)
C1_6 C 0.9834(9) 0.6695(2) 0.5704(5)
C2_6 C 0.8055(8) 0.6486(2) 0.5645(4)
C3_6 C 0.7803(8) 0.6081(2) 0.5351(5)
H1_6 H 0.8758 0.5924 0.5170
C4_4 C 0.4879(9) 0.6142(2) 0.5608(5)
H2_4 H 0.3763 0.6028 0.5612
C5_6 C 0.5125(9) 0.6550(2) 0.5898(5)
H3_4 H 0.4170 0.6706 0.6084
C6_6 C 0.9867(9) 0.7057(2) 0.1391(6)
C7_6 C 0.8107(8) 0.6851(2) 0.1401(5)
C8_6 C 0.7862(9) 0.6420(2) 0.1497(5)
H4_6 H 0.8825 0.6244 0.1546
C9_6 C 0.4909(8) 0.65240(19) 0.1419(5)
H5_6 H 0.3781 0.6416 0.1416
C10_6 C 0.5139(9) 0.69504(19) 0.1321(5)
H6_6 H 0.4173 0.7124 0.1256
N1_6 N 0.6209(7) 0.59112(17) 0.5323(4)
N2_6 N 0.6712(7) 0.67226(16) 0.5912(4)
N3_6 N 0.6261(7) 0.62576(16) 0.1519(4)
O1_6 O 0.9789(6) 0.70715(14) 0.6007(4)
O2_6 O 0.7551(7) 0.7187(2) 0.7691(4)
H7_6 H 0.7536 0.6926 0.7796
H8_6 H 0.8489 0.7289 0.7897
Cu4_4 Cu 0.41429(11) 0.56192(3) 0.32611(6)
I5_4 I 0.24455(6) 0.547867(16) 0.17888(3)
Cu3_4 Cu 0.24911(10) 0.77089(2) 0.37333(6)
C1_7 C 0.4834(9) 0.8305(2) 0.4296(5)
C2_7 C 0.3055(8) 0.8514(2) 0.4355(4)
C3_7 C 0.2803(8) 0.8919(2) 0.4649(5)
H1_7 H 0.3758 0.9076 0.4830
C5_7 C 0.0125(9) 0.8450(2) 0.4102(5)
C6_7 C 0.4867(9) 0.7943(2) 0.8609(6)
C7_7 C 0.3107(8) 0.8149(2) 0.8599(5)
C8_7 C 0.2862(9) 0.8580(2) 0.8503(5)
H4_7 H 0.3825 0.8756 0.8454
C10_7 C 0.0139(9) 0.80496(19) 0.8679(5)
N1_7 N 0.1209(7) 0.90888(17) 0.4677(4)
N2_7 N 0.1712(7) 0.82774(16) 0.4088(4)
N3_7 N 0.1261(7) 0.87424(16) 0.8481(4)
N4_4 N 0.1743(7) 0.78841(16) 0.8681(4)
O1_7 O 0.4789(6) 0.79285(14) 0.3993(4)
O2_7 O 0.2551(7) 0.7813(2) 0.2309(4)
H7_7 H 0.2536 0.8074 0.2204
H8_7 H 0.3489 0.7711 0.2103
O3_4 O 0.6122(7) 0.84885(18) 0.4546(5)
O4_4 O 0.6189(7) 0.81510(18) 0.8555(6)
O5_4 O 0.4834(6) 0.75400(14) 0.8659(4)
Cu7_4 Cu 0.25089(10) 0.72911(2) 0.87333(6)
N5_4 N 0.3257(7) 0.71159(16) 0.3681(4)
O6_4 O 0.0166(6) 0.74600(14) 0.3659(4)
C4_5 C 0.9879(9) 0.8858(2) 0.4392(5)
H2_5 H 0.8763 0.8972 0.4388
H3_5 H 0.9170 0.8294 0.3916
C9_7 C 0.9909(8) 0.84760(19) 0.8581(5)
H5_7 H 0.8781 0.8584 0.8584
H6_7 H 0.9173 0.7876 0.8744
C6_8 C 0.0133(9) 0.7057(2) 0.3609(6)
C7_8 C 0.1893(8) 0.6851(2) 0.3599(5)
C8_8 C 0.2138(9) 0.6420(2) 0.3503(5)
H4_8 H 0.1175 0.6244 0.3454
C9_8 C 0.5091(8) 0.65240(19) 0.3581(5)
H5_8 H 0.6219 0.6416 0.3584
C10_8 C 0.4861(9) 0.69504(19) 0.3679(5)
H6_8 H 0.5827 0.7124 0.3744
N3_8 N 0.3739(7) 0.62576(16) 0.3481(4)
C1_8 C 0.0166(9) 0.6695(2) 0.9296(5)
C2_8 C 0.1945(8) 0.6486(2) 0.9355(4)
C3_8 C 0.2197(8) 0.6081(2) 0.9649(5)
H1_8 H 0.1242 0.5924 0.9830
C4_6 C 0.5121(9) 0.6142(2) 0.9392(5)
H2_6 H 0.6237 0.6028 0.9388
C5_8 C 0.4875(9) 0.6550(2) 0.9102(5)
H3_6 H 0.5830 0.6706 0.8916
N1_8 N 0.3791(7) 0.59112(17) 0.9677(4)
N2_8 N 0.3288(7) 0.67226(16) 0.9088(4)
O1_8 O 0.0211(6) 0.70715(14) 0.8993(4)
O2_8 O 0.2449(7) 0.7187(2) 0.7309(4)
H7_8 H 0.2464 0.6926 0.7204
H8_8 H 0.1511 0.7289 0.7103
C4_7 C 0.9879(9) 0.1142(2) 0.9392(5)
H2_7 H 0.8763 0.1028 0.9388
H3_7 H 0.9170 0.1706 0.8916
O3_5 O 0.8878(7) 0.34885(18) 0.4546(5)
O4_5 O 0.8811(7) 0.31510(18) 0.8555(6)
O3_6 O 0.1122(7) 0.34885(18) 0.0454(5)
O4_6 O 0.1189(7) 0.31510(18) 0.6445(6)
C4_8 C 0.0121(9) 0.8858(2) 0.0608(5)
H2_8 H 0.1237 0.8972 0.0612
H3_8 H 0.0830 0.8294 0.1084
O3_7 O 0.1122(7) 0.65115(18) 0.5454(5)
O4_7 O 0.1189(7) 0.68490(18) 0.1445(6)
O4_8 O 0.8811(7) 0.68490(18) 0.3555(6)
O3_8 O 0.8878(7) 0.65115(18) 0.9546(5)
loop_
_geom_bond_atom_site_label_1
_geom_bond_atom_site_label_2
_geom_bond_site_symmetry_1
_geom_bond_site_symmetry_2
Cu1 I1 1_555 1_555
Cu2 I2 1_555 1_555
I2 Cu1 1_555 1_555
C6 C7 1_555 1_555
C7 C8 1_555 1_555
C8 H4 1_555 1_555
N3 Cu1 1_555 1_555
N4 C7 1_555 1_555
O4 C6 1_555 1_555
O5 C6 1_555 1_555
Cu7 N4 1_555 1_555
C8 N3 1_555 1_555
C10 N4 1_555 1_555
O5 Cu7 1_555 1_555
Cu3 N2 1_555 1_555
C1 C2 1_555 1_555
C2 C3 1_555 1_555
C3 H1 1_555 1_555
N2 C2 1_555 1_555
O1 Cu3 1_555 1_555
O2 Cu3 1_555 1_555
H7 O2 1_555 1_555
H8 O2 1_555 1_555
O3 C1 1_555 1_555
N5 Cu3 1_555 1_555
O6 Cu3 1_555 1_555
C1 O1 1_555 1_555
C3 N1 1_555 1_555
C5 N2 1_555 1_555
C9 H5 1_555 1_555
Cu5 I5 1_555 1_555
Cu4 I3 1_555 1_555
Cu4 I5 1_555 1_555
Cu1_2 I1_2 1_555 1_555
Cu2_2 I2_2 1_555 1_555
Cu7 N2_2 1_555 1_555
I1_2 Cu5_2 1_555 1_555
I2_2 Cu1_2 1_555 1_555
C1_2 C2_2 1_555 1_555
C2_2 C3_2 1_555 1_555
C3_2 H1_2 1_555 1_555
C4 H2 1_555 1_555
C5_2 C4 1_555 1_555
H3 C5_2 1_555 1_555
C6_2 C7_2 1_555 1_555
C7_2 C8_2 1_555 1_555
C8_2 H4_2 1_555 1_555
C9_2 H5_2 1_555 1_555
C10_2 C9_2 1_555 1_555
H6_2 C10_2 1_555 1_555
N1_2 Cu2_2 1_555 1_555
N2_2 C2_2 1_555 1_555
N3_2 Cu1_2 1_555 1_555
N5 C7_2 1_555 1_555
O1_2 Cu7 1_555 1_555
O2_2 Cu7 1_555 1_555
H7_2 O2_2 1_555 1_555
H8_2 O2_2 1_555 1_555
O6 C6_2 1_555 1_555
Cu4_2 I2_2 1_555 1_555
Cu5_2 I5_2 1_555 1_555
I3_2 Cu2_2 1_555 1_555
I4_2 Cu2_2 1_555 1_555
I5_2 Cu1_2 1_555 1_555
C1_2 O1_2 1_555 1_555
C3_2 N1_2 1_555 1_555
C4 N1_2 1_555 1_555
C5_2 N2_2 1_555 1_555
C8_2 N3_2 1_555 1_555
C9_2 N3_2 1_555 1_555
C10_2 N5 1_555 1_555
Cu4_2 I3_2 1_555 1_555
Cu4_2 I5_2 1_555 1_555
C4_2 H2_2 1_555 1_555
C9_3 H5_3 1_555 1_555
Cu3_2 N2_3 1_555 1_555
C1_3 C2_3 1_555 1_555
C2_3 C3_3 1_555 1_555
C3_3 H1_3 1_555 1_555
C6_3 C7_3 1_555 1_555
C7_3 C8_3 1_555 1_555
C8_3 H4_3 1_555 1_555
N1_3 Cu5 1_555 1_555
N2_3 C2_3 1_555 1_555
N3_3 Cu4 1_555 1_555
N4_2 C7_3 1_555 1_555
O1_3 Cu3_2 1_555 1_555
O2_3 Cu3_2 1_555 1_555
H7_3 O2_3 1_555 1_555
H8_3 O2_3 1_555 1_555
O3_2 C1_3 1_555 1_555
O4_2 C6_3 1_555 1_555
O5_2 C6_3 1_555 1_555
Cu7_2 N4_2 1_555 1_555
N5_2 Cu3_2 1_555 1_555
O6_2 Cu3_2 1_555 1_555
C1_3 O1_3 1_555 1_555
C3_3 N1_3 1_555 1_555
C5_3 N2_3 1_555 1_555
C8_3 N3_3 1_555 1_555
C10_3 N4_2 1_555 1_555
O5_2 Cu7_2 1_555 1_555
Cu7_2 N2_4 1_555 1_555
C1_4 C2_4 1_555 1_555
C2_4 C3_4 1_555 1_555
C3_4 H1_4 1_555 1_555
C4_3 H2_3 1_555 1_555
C5_4 C4_3 1_555 1_555
H3_3 C5_4 1_555 1_555
N2_4 C2_4 1_555 1_555
O1_4 Cu7_2 1_555 1_555
O2_4 Cu7_2 1_555 1_555
H7_4 O2_4 1_555 1_555
H8_4 O2_4 1_555 1_555
C1_4 O1_4 1_555 1_555
C3_4 N1_4 1_555 1_555
C4_3 N1_4 1_555 1_555
C5_4 N2_4 1_555 1_555
C6_4 C7_4 1_555 1_555
C7_4 C8_4 1_555 1_555
C8_4 H4_4 1_555 1_555
C9_4 H5_4 1_555 1_555
C10_4 C9_4 1_555 1_555
H6_4 C10_4 1_555 1_555
N3_4 Cu4_2 1_555 1_555
N5_2 C7_4 1_555 1_555
O6_2 C6_4 1_555 1_555
Cu6_4 I3_2 1_555 1_555
C8_4 N3_4 1_555 1_555
C9_4 N3_4 1_555 1_555
C10_4 N5_2 1_555 1_555
C9_5 H5_5 1_555 1_555
Cu6 I5_3 1_555 1_555
Cu4_3 I4 1_555 1_555
Cu4_3 I5_3 1_555 1_555
Cu3_3 N2_5 1_555 1_555
C1_5 C2_5 1_555 1_555
C2_5 C3_5 1_555 1_555
C3_5 H1_5 1_555 1_555
N2_5 C2_5 1_555 1_555
O1_5 Cu3_3 1_555 1_555
O2_5 Cu3_3 1_555 1_555
H7_5 O2_5 1_555 1_555
H8_5 O2_5 1_555 1_555
O3_3 C1_5 1_555 1_555
N5_3 Cu3_3 1_555 1_555
O6_3 Cu3_3 1_555 1_555
C1_5 O1_5 1_555 1_555
C3_5 N1_5 1_555 1_555
C5_5 N2_5 1_555 1_555
Cu1_3 I4_3 1_555 1_555
Cu6_3 I2_3 1_555 1_555
I2_3 Cu1_3 1_555 1_555
C6_5 C7_5 1_555 1_555
C7_5 C8_5 1_555 1_555
C8_5 H4_5 1_555 1_555
N3_5 Cu1_3 1_555 1_555
N4_3 C7_5 1_555 1_555
O4_3 C6_5 1_555 1_555
O5_3 C6_5 1_555 1_555
Cu7_3 N4_3 1_555 1_555
C8_5 N3_5 1_555 1_555
C10_5 N4_3 1_555 1_555
O5_3 Cu7_3 1_555 1_555
Cu1_4 I4_4 1_555 1_555
Cu6_4 I2_4 1_555 1_555
Cu7_3 N2_6 1_555 1_555
I4_4 Cu6_2 1_555 1_555
I2_4 Cu1_4 1_555 1_555
C1_6 C2_6 1_555 1_555
C2_6 C3_6 1_555 1_555
C3_6 H1_6 1_555 1_555
C4_4 H2_4 1_555 1_555
C5_6 C4_4 1_555 1_555
H3_4 C5_6 1_555 1_555
C6_6 C7_6 1_555 1_555
C7_6 C8_6 1_555 1_555
C8_6 H4_6 1_555 1_555
C9_6 H5_6 1_555 1_555
C10_6 C9_6 1_555 1_555
H6_6 C10_6 1_555 1_555
N1_6 Cu6_4 1_555 1_555
N2_6 C2_6 1_555 1_555
N3_6 Cu1_4 1_555 1_555
N5_3 C7_6 1_555 1_555
O1_6 Cu7_3 1_555 1_555
O2_6 Cu7_3 1_555 1_555
H7_6 O2_6 1_555 1_555
H8_6 O2_6 1_555 1_555
O6_3 C6_6 1_555 1_555
Cu4_4 I2_4 1_555 1_555
Cu6_2 I5_4 1_555 1_555
I4_2 Cu6_4 1_555 1_555
I5_4 Cu1_4 1_555 1_555
C1_6 O1_6 1_555 1_555
C3_6 N1_6 1_555 1_555
C4_4 N1_6 1_555 1_555
C5_6 N2_6 1_555 1_555
C8_6 N3_6 1_555 1_555
C9_6 N3_6 1_555 1_555
C10_6 N5_3 1_555 1_555
Cu4_4 I4_2 1_555 1_555
Cu4_4 I5_4 1_555 1_555
Cu3_4 N2_7 1_555 1_555
C1_7 C2_7 1_555 1_555
C2_7 C3_7 1_555 1_555
C3_7 H1_7 1_555 1_555
C6_7 C7_7 1_555 1_555
C7_7 C8_7 1_555 1_555
C8_7 H4_7 1_555 1_555
N1_7 Cu6 1_555 1_555
N2_7 C2_7 1_555 1_555
N3_7 Cu4_3 1_555 1_555
N4_4 C7_7 1_555 1_555
O1_7 Cu3_4 1_555 1_555
O2_7 Cu3_4 1_555 1_555
H7_7 O2_7 1_555 1_555
H8_7 O2_7 1_555 1_555
O3_4 C1_7 1_555 1_555
O4_4 C6_7 1_555 1_555
O5_4 C6_7 1_555 1_555
Cu7_4 N4_4 1_555 1_555
N5_4 Cu3_4 1_555 1_555
O6_4 Cu3_4 1_555 1_555
C1_7 O1_7 1_555 1_555
C3_7 N1_7 1_555 1_555
C5_7 N2_7 1_555 1_555
C8_7 N3_7 1_555 1_555
C10_7 N4_4 1_555 1_555
O5_4 Cu7_4 1_555 1_555
C4_5 H2_5 1_555 1_555
C9_7 H5_7 1_555 1_555
C6_8 C7_8 1_555 1_555
C7_8 C8_8 1_555 1_555
C8_8 H4_8 1_555 1_555
C9_8 H5_8 1_555 1_555
C10_8 C9_8 1_555 1_555
H6_8 C10_8 1_555 1_555
N3_8 Cu4_4 1_555 1_555
N5_4 C7_8 1_555 1_555
O6_4 C6_8 1_555 1_555
C8_8 N3_8 1_555 1_555
C9_8 N3_8 1_555 1_555
C10_8 N5_4 1_555 1_555
Cu7_4 N2_8 1_555 1_555
C1_8 C2_8 1_555 1_555
C2_8 C3_8 1_555 1_555
C3_8 H1_8 1_555 1_555
C4_6 H2_6 1_555 1_555
C5_8 C4_6 1_555 1_555
H3_6 C5_8 1_555 1_555
N2_8 C2_8 1_555 1_555
O1_8 Cu7_4 1_555 1_555
O2_8 Cu7_4 1_555 1_555
H7_8 O2_8 1_555 1_555
H8_8 O2_8 1_555 1_555
C1_8 O1_8 1_555 1_555
C3_8 N1_8 1_555 1_555
C4_6 N1_8 1_555 1_555
C5_8 N2_8 1_555 1_555
C4_7 H2_7 1_555 1_555
C4_8 H2_8 1_555 1_555

#END
