
###############################################################################
#
# This file contains modified crystal structure data generated from the
# MOF subset of the Cambridge Structural Database (CSD) v543 
# hosted by the Cambridge Crystallographic Data Centre (CCDC).
#
# This work is licensed under the Creative Commons
# Attribution-NonCommercial-ShareAlike 4.0 International License.
# To view a copy of this license, visit
# http://creativecommons.org/licenses/by-nc-sa/4.0/
# or send a letter to
# Creative Commons, PO Box 1866, Mountain View, CA 94042, USA.
#
# CIF created using the CSD Python API on 29 September 2022
# The structure has been converted into the P1 space group
# The structure has a 3D framework
# The original CSD entry RURQEB is in the triclinic crystal system
# The framework has been calculated to contain at least 10.0% void space
# The void calculation uses a probe of radius 1.32A, grid spacing 0.4
#
###############################################################################

data_RURQEB
_chemical_formula_moiety         '(C28 H16 F8 N18 O10 Zn6)n'
_symmetry_cell_setting           triclinic
_symmetry_space_group_name_H-M   'P 1'
_symmetry_Int_Tables_number      1
_space_group_name_Hall           'P 1'
loop_
_symmetry_equiv_pos_site_id
_symmetry_equiv_pos_as_xyz
1 x,y,z
_cell_length_a                   10.137(5)
_cell_length_b                   10.228(5)
_cell_length_c                   12.747(7)
_cell_angle_alpha                74.562(8)
_cell_angle_beta                 83.796(9)
_cell_angle_gamma                60.952(7)
_cell_volume                     1113.34
loop_
_atom_site_label
_atom_site_type_symbol
_atom_site_fract_x
_atom_site_fract_y
_atom_site_fract_z
Zn3 Zn 0.15489(9) 0.11381(9) 0.15381(7)
O5 O 0.1631(6) 0.0581(7) 0.3437(4)
H7 H 0.102(8) 0.127(5) 0.372(2)
N16 N 0.2589(7) 0.2412(7) 0.1490(5)
Zn5 Zn 0.49213(9) 0.40457(9) 0.28511(6)
C21 C 0.4846(8) 0.2818(9) 0.5079(6)
C22 C 0.3940(8) 0.2609(9) 0.6072(6)
C23 C 0.3027(9) 0.3844(9) 0.6545(6)
C24 C 0.3925(8) 0.1242(9) 0.6555(6)
C25 C 0.2160(10) 0.3697(9) 0.7448(6)
C26 C 0.3055(10) 0.1119(9) 0.7445(6)
C27 C 0.2148(9) 0.2339(9) 0.7881(6)
C28 C 0.1152(9) 0.2205(8) 0.8806(5)
F5 F 0.3016(6) 0.5201(6) 0.6119(4)
F6 F 0.4706(6) 0.0035(6) 0.6104(4)
F7 F 0.1296(7) 0.4918(6) 0.7863(4)
O6 O 0.4055(6) 0.3880(6) 0.4275(4)
O8 O 0.6198(6) 0.1940(7) 0.5077(4)
O10 O 0.1643(6) 0.1669(6) 0.9769(4)
H8 H 0.208(8) 0.984(5) 0.394(4)
N21 N 0.2769(7) 0.8877(7) 0.1589(5)
Zn1 Zn 0.5000 0.5000 0.0000
C1 C 0.8383(8) 0.2257(8) 0.2528(6)
C2 C 0.8324(8) 0.2914(9) 0.0801(6)
C3 C 0.3023(8) 0.2699(9) 0.2336(6)
C4 C 0.3133(8) 0.3114(9) 0.0646(6)
C5 C 0.3235(8) 0.7623(8) 0.2434(6)
C6 C 0.3303(8) 0.8226(8) 0.0730(5)
H2 H 0.3155 0.8798 0.0010
N1 N 0.6945(6) 0.3160(7) 0.2211(4)
N2 N 0.6902(6) 0.3571(7) 0.1094(5)
N3 N 0.9302(6) 0.2088(7) 0.1660(5)
N4 N 0.3782(7) 0.3449(7) 0.2043(5)
N5 N 0.3839(7) 0.3735(7) 0.0918(5)
N7 N 0.4001(6) 0.6318(7) 0.2135(5)
N8 N 0.4049(7) 0.6712(7) 0.1013(5)
H3 H 0.868(7) 0.182(8) 0.326(2)
H4 H 0.871(7) 0.292(8) 0.010(3)
H5 H 0.281(8) 0.246(8) 0.305(2)
H6 H 0.309(8) 0.772(8) 0.315(3)
H9 H 0.6993 0.6855 0.0074
O3 O 0.0238(7) 0.7302(9) 0.1478(5)
F8 F 0.3061(7) 0.9741(6) 0.7863(4)
Zn1_2 Zn 0.5000 0.5000 1.0000
H1 H 0.3007 0.3145 0.9926
Zn4 Zn 0.50787(9) 0.59543(9) 0.71489(6)
Zn10 Zn 0.84511(9) 0.88619(9) 0.84619(7)
C15 C 0.1617(8) 0.7743(8) 0.7472(6)
C16 C 0.1676(8) 0.7086(9) 0.9199(6)
C17 C 0.6977(8) 0.7301(9) 0.7664(6)
C18 C 0.6867(8) 0.6886(9) 0.9354(6)
C19 C 0.6765(8) 0.2377(8) 0.7566(6)
C20 C 0.6697(8) 0.1774(8) 0.9270(5)
H10 H 0.6845 0.1202 0.9990
N10 N 0.3055(6) 0.6840(7) 0.7789(4)
N11 N 0.3098(6) 0.6429(7) 0.8906(5)
N12 N 0.0698(6) 0.7912(7) 0.8340(5)
N13 N 0.6218(7) 0.6551(7) 0.7957(5)
N14 N 0.6161(7) 0.6265(7) 0.9082(5)
N15 N 0.7411(7) 0.7588(7) 0.8510(5)
N18 N 0.5999(6) 0.3682(7) 0.7865(5)
N19 N 0.5951(7) 0.3288(7) 0.8987(5)
N20 N 0.7231(7) 0.1123(7) 0.8411(5)
O7 O 0.5945(6) 0.6120(6) 0.5725(4)
O9 O 0.9762(7) 0.2698(9) 0.8522(5)
H11 H 0.132(7) 0.818(8) 0.674(2)
H12 H 0.129(7) 0.708(8) 0.990(3)
H13 H 0.719(8) 0.754(8) 0.695(2)
H14 H 0.691(8) 0.228(8) 0.685(3)
H16 H 0.792(8) 0.016(5) 0.606(4)
O11 O 0.8357(6) 0.8331(6) 0.0231(4)
O12 O 0.8369(6) 0.9419(7) 0.6563(4)
H15 H 0.898(8) 0.873(5) 0.628(2)
C7 C 0.5154(8) 0.7182(9) 0.4921(6)
C8 C 0.6060(8) 0.7391(9) 0.3928(6)
C9 C 0.6973(9) 0.6156(9) 0.3455(6)
C10 C 0.6075(8) 0.8758(9) 0.3445(6)
C11 C 0.7840(10) 0.6303(9) 0.2552(6)
C12 C 0.6945(10) 0.8881(9) 0.2555(6)
C13 C 0.7852(9) 0.7661(9) 0.2119(6)
C14 C 0.8848(9) 0.7795(8) 0.1194(5)
F1 F 0.6984(6) 0.4799(6) 0.3881(4)
F2 F 0.5294(6) 0.9965(6) 0.3896(4)
F3 F 0.8704(7) 0.5082(6) 0.2137(4)
O2 O 0.3802(6) 0.8060(7) 0.4923(4)
F4 F 0.6939(7) 0.0259(6) 0.2137(4)
loop_
_geom_bond_atom_site_label_1
_geom_bond_atom_site_label_2
_geom_bond_site_symmetry_1
_geom_bond_site_symmetry_2
O5 Zn3 1_555 1_555
H7 O5 1_555 1_555
N16 Zn3 1_555 1_555
Zn5 O6 1_555 1_555
C21 C22 1_555 1_555
C22 C23 1_555 1_555
C23 C25 1_555 1_555
C24 C22 1_555 1_555
C25 C27 1_555 1_555
C26 C24 1_555 1_555
C27 C26 1_555 1_555
C28 C27 1_555 1_555
F5 C23 1_555 1_555
F6 C24 1_555 1_555
F7 C25 1_555 1_555
O6 C21 1_555 1_555
O8 C21 1_555 1_555
C28 O10 1_555 1_555
Zn1 N2 1_555 1_555
Zn5 N1 1_555 1_555
C1 N1 1_555 1_555
C2 N2 1_555 1_555
C3 N4 1_555 1_555
C5 N7 1_555 1_555
C6 H2 1_555 1_555
N1 N2 1_555 1_555
N3 C1 1_555 1_555
N4 Zn5 1_555 1_555
N5 Zn1 1_555 1_555
N16 C3 1_555 1_555
N7 Zn5 1_555 1_555
N8 Zn1 1_555 1_555
N21 C5 1_555 1_555
H3 C1 1_555 1_555
H4 C2 1_555 1_555
H5 C3 1_555 1_555
H6 C5 1_555 1_555
C2 N3 1_555 1_555
C4 N5 1_555 1_555
C4 N16 1_555 1_555
C6 N8 1_555 1_555
C6 N21 1_555 1_555
N4 N5 1_555 1_555
N7 N8 1_555 1_555
Zn4 N10 1_555 1_555
Zn10 N15 1_555 1_555
C15 N10 1_555 1_555
C16 N11 1_555 1_555
C17 N13 1_555 1_555
C19 N18 1_555 1_555
C20 H10 1_555 1_555
N10 N11 1_555 1_555
N11 Zn1_2 1_555 1_555
N12 C15 1_555 1_555
N13 Zn4 1_555 1_555
N14 Zn1_2 1_555 1_555
N15 C17 1_555 1_555
N18 Zn4 1_555 1_555
N19 Zn1_2 1_555 1_555
N20 C19 1_555 1_555
O7 Zn4 1_555 1_555
H11 C15 1_555 1_555
H12 C16 1_555 1_555
H13 C17 1_555 1_555
H14 C19 1_555 1_555
C16 N12 1_555 1_555
C18 N14 1_555 1_555
C18 N15 1_555 1_555
C20 N19 1_555 1_555
C20 N20 1_555 1_555
N13 N14 1_555 1_555
N18 N19 1_555 1_555
O12 Zn10 1_555 1_555
H15 O12 1_555 1_555
C7 C8 1_555 1_555
C8 C9 1_555 1_555
C9 C11 1_555 1_555
C10 C8 1_555 1_555
C11 C13 1_555 1_555
C12 C10 1_555 1_555
C13 C12 1_555 1_555
C14 C13 1_555 1_555
F1 C9 1_555 1_555
F2 C10 1_555 1_555
F3 C11 1_555 1_555
O2 C7 1_555 1_555
O11 C14 1_555 1_555
C7 O7 1_555 1_555

#END
