
###############################################################################
#
# This file contains modified crystal structure data generated from the
# MOF subset of the Cambridge Structural Database (CSD) v543 
# hosted by the Cambridge Crystallographic Data Centre (CCDC).
#
# This work is licensed under the Creative Commons
# Attribution-NonCommercial-ShareAlike 4.0 International License.
# To view a copy of this license, visit
# http://creativecommons.org/licenses/by-nc-sa/4.0/
# or send a letter to
# Creative Commons, PO Box 1866, Mountain View, CA 94042, USA.
#
# CIF created using the CSD Python API on 29 September 2022
# The structure has been converted into the P1 space group
# The structure has a 3D framework
# The original CSD entry RUSWIN is in the triclinic crystal system
# The framework has been calculated to contain at least 10.0% void space
# The void calculation uses a probe of radius 1.32A, grid spacing 0.4
#
###############################################################################

data_RUSWIN
_chemical_formula_moiety         '(C60 H52 Dy1 N4 O14)n'
_symmetry_cell_setting           triclinic
_symmetry_space_group_name_H-M   'P 1'
_symmetry_Int_Tables_number      1
_space_group_name_Hall           'P 1'
loop_
_symmetry_equiv_pos_site_id
_symmetry_equiv_pos_as_xyz
1 x,y,z
_cell_length_a                   10.3803(5)
_cell_length_b                   11.3508(6)
_cell_length_c                   12.9894(7)
_cell_angle_alpha                72.4350(10)
_cell_angle_beta                 89.8670(10)
_cell_angle_gamma                87.3720(10)
_cell_volume                     1457.47
loop_
_atom_site_label
_atom_site_type_symbol
_atom_site_fract_x
_atom_site_fract_y
_atom_site_fract_z
_atom_site_U_iso_or_equiv
_atom_site_thermal_displace_type
Dy1 Dy 0.47900(2) 0.04557(2) 0.33970(2) 0.0111 Uani
C1 C 0.4947(3) 0.2659(2) 0.1705(2) 0.0179 Uani
C3 C 0.2665(2) 0.0091(2) 0.5646(2) 0.0148 Uani
C4 C 0.4982(3) 0.3853(3) 0.0857(2) 0.0216 Uani
C6 C 0.1295(3) 0.0046(3) 0.5301(2) 0.0176 Uani
C7 C 0.1878(3) 0.0206(3) 0.2331(3) 0.0286 Uani
H1 H 0.1917 0.0996 0.1846 0.0340 Uiso
C9 C 0.4481(3) 0.4949(3) 0.1021(3) 0.0282 Uani
C11 C 0.0767(3) 0.0977(3) 0.4408(2) 0.0185 Uani
C12 C 0.3984(4) 0.4961(3) 0.2058(3) 0.0347 Uani
H3 H 0.4000 0.4227 0.2625 0.0420 Uiso
C14 C 0.1497(3) 0.1989(3) 0.3800(2) 0.0220 Uani
H5 H 0.2346 0.2040 0.4003 0.0260 Uiso
H9 H 0.6506 0.0104 0.0231 0.0890 Uiso
C17 C 0.3498(5) 0.6011(4) 0.2222(3) 0.0491 Uani
H12 H 0.3189 0.5997 0.2898 0.0590 Uiso
C19 C 0.0974(3) 0.2876(3) 0.2933(3) 0.0280 Uani
H14 H 0.1468 0.3522 0.2544 0.0340 Uiso
C22 C 0.3455(5) 0.7148(4) 0.1357(3) 0.0518 Uani
H21 H 0.3103 0.7865 0.1472 0.0620 Uiso
C25 C 0.3923(4) 0.7191(3) 0.0372(3) 0.0398 Uani
C28 C 0.4461(3) 0.6103(3) 0.0161(3) 0.0301 Uani
O1 O 0.38672(18) 0.21701(17) 0.19472(15) 0.0186 Uani
O6 O 0.59665(19) 0.21370(18) 0.21748(16) 0.0203 Uani
O8 O 0.28755(18) 0.01943(19) 0.65607(15) 0.0198 Uani
H30 H 0.6105 0.2060 0.0177 0.0480 Uiso
H43 H 0.0097 0.1609 0.6551 0.0850 Uiso
H49 H 0.0259 0.0393 0.8966 0.0810 Uiso
O20 O 0.64049(17) 0.00634(16) 0.49477(14) 0.0143 Uani
O23 O 0.46962(19) 0.22425(16) 0.40625(15) 0.0166 Uani
H24 H 0.3895 0.7940 0.9823 0.0480 Uiso
C31 C 0.5053(3) 0.7341(2) 0.8295(2) 0.0179 Uani
C32 C 0.5018(3) 0.6147(3) 0.9143(2) 0.0216 Uani
C33 C 0.5519(3) 0.5051(3) 0.8979(3) 0.0282 Uani
C34 C 0.6016(4) 0.5039(3) 0.7942(3) 0.0347 Uani
H27 H 0.6000 0.5773 0.7375 0.0420 Uiso
C35 C 0.6502(5) 0.3989(4) 0.7778(3) 0.0491 Uani
H28 H 0.6811 0.4003 0.7102 0.0590 Uiso
C36 C 0.6545(5) 0.2852(4) 0.8643(3) 0.0518 Uani
H29 H 0.6897 0.2135 0.8528 0.0620 Uiso
C37 C 0.6077(4) 0.2809(3) 0.9628(3) 0.0398 Uani
C38 C 0.5539(3) 0.3897(3) 0.9839(3) 0.0301 Uani
O9 O 0.61328(18) 0.78299(17) 0.80528(15) 0.0186 Uani
O10 O 0.40335(19) 0.78630(18) 0.78252(16) 0.0203 Uani
Dy7 Dy 0.52100(2) 0.95443(2) 0.66030(2) 0.0111 Uani
C2 C 0.5093(2) 0.7547(2) 0.5059(2) 0.0131 Uani
C5 C 0.5054(3) 0.6217(2) 0.5055(2) 0.0131 Uani
C8 C 0.5817(3) 0.8703(3) 0.1965(3) 0.0331 Uani
H2 H 0.5684 0.8079 0.2605 0.0400 Uiso
C10 C 0.3894(3) 0.5608(2) 0.5277(2) 0.0169 Uani
C13 C 0.2743(3) 0.6203(3) 0.5525(3) 0.0314 Uani
H4 H 0.2762 0.7008 0.5559 0.0380 Uiso
C15 C 0.0669(5) 0.8376(5) 0.3037(4) 0.0569 Uani
H6 H 0.1402 0.8139 0.3516 0.0850 Uiso
H7 H 0.0591 0.7790 0.2642 0.0850 Uiso
C16 C 0.6795(4) 0.9293(5) 0.0219(4) 0.0594 Uani
H11 H 0.7706 0.9280 0.0088 0.0890 Uiso
C18 C 0.1619(3) 0.5607(4) 0.5711(4) 0.0499 Uani
H13 H 0.0875 0.6010 0.5862 0.0600 Uiso
C21 C 0.7060(6) 0.7148(5) 0.1408(4) 0.0789 Uani
H18 H 0.6898 0.6659 0.2136 0.1190 Uiso
H19 H 0.7973 0.7161 0.1288 0.1190 Uiso
H20 H 0.6654 0.6796 0.0914 0.1190 Uiso
C23 C 0.1576(3) 0.4371(3) 0.5676(4) 0.0479 Uani
H22 H 0.0803 0.3970 0.5809 0.0570 Uiso
C26 C 0.2649(3) 0.3765(3) 0.5451(3) 0.0307 Uani
H25 H 0.2606 0.2950 0.5446 0.0370 Uiso
C29 C 0.3842(3) 0.4366(2) 0.5221(2) 0.0181 Uani
N1 N 0.0832(3) 0.9575(3) 0.2299(3) 0.0391 Uani
N2 N 0.6536(3) 0.8410(3) 0.1236(2) 0.0439 Uani
O2 O 0.49139(18) 0.83365(16) 0.41492(14) 0.0156 Uani
O3 O 0.35951(17) 0.99366(16) 0.50523(14) 0.0143 Uani
O4 O 0.27815(19) 0.98163(19) 0.29515(16) 0.0218 Uani
O5 O 0.52990(19) 0.97368(18) 0.18786(15) 0.0212 Uani
O7 O 0.53038(19) 0.77575(16) 0.59375(15) 0.0166 Uani
C39 C 0.4907(2) 0.2453(2) 0.4941(2) 0.0131 Uani
C40 C 0.4946(3) 0.3783(2) 0.4945(2) 0.0131 Uani
C41 C 0.6106(3) 0.4392(2) 0.4723(2) 0.0169 Uani
C42 C 0.7257(3) 0.3797(3) 0.4475(3) 0.0314 Uani
H31 H 0.7238 0.2992 0.4441 0.0380 Uiso
C43 C 0.8381(3) 0.4393(4) 0.4289(4) 0.0499 Uani
H32 H 0.9125 0.3990 0.4138 0.0600 Uiso
C44 C 0.8424(3) 0.5629(3) 0.4324(4) 0.0479 Uani
H33 H 0.9197 0.6030 0.4191 0.0570 Uiso
C45 C 0.7351(3) 0.6235(3) 0.4549(3) 0.0307 Uani
H34 H 0.7394 0.7050 0.4554 0.0370 Uiso
C46 C 0.6158(3) 0.5634(2) 0.4779(2) 0.0181 Uani
O11 O 0.50861(18) 0.16635(16) 0.58508(14) 0.0156 Uani
C52 C 0.0327(3) 0.7183(3) 0.7381(3) 0.0287 Uani
H37 H 0.0676 0.6574 0.7977 0.0340 Uiso
C53 C 0.1067(3) 0.8114(3) 0.6824(2) 0.0229 Uani
H38 H 0.1918 0.8130 0.7040 0.0280 Uiso
C54 C 0.0552(3) 0.9076(3) 0.5905(2) 0.0190 Uani
C59 C 0.0193(4) 0.9902(5) 0.8484(3) 0.0544 Uani
H47 H 0.0004 0.9071 0.8890 0.0810 Uiso
H48 H 0.0995 0.9894 0.8116 0.0810 Uiso
O25 O 0.71245(18) 0.98057(19) 0.34393(15) 0.0198 Uani
C20 C 0.9807(4) 0.0098(5) 0.1516(3) 0.0544 Uani
H15 H 0.9996 0.0929 0.1110 0.0810 Uiso
H16 H 0.9005 0.0106 0.1884 0.0810 Uiso
C24 C 0.9673(3) 0.2817(3) 0.2619(3) 0.0287 Uani
H23 H 0.9324 0.3426 0.2023 0.0340 Uiso
C27 C 0.8933(3) 0.1886(3) 0.3176(2) 0.0229 Uani
H26 H 0.8082 0.1870 0.2960 0.0280 Uiso
C30 C 0.9448(3) 0.0924(3) 0.4095(2) 0.0190 Uani
C56 C 0.4183(3) 0.1297(3) 0.8035(3) 0.0331 Uani
H40 H 0.4316 0.1921 0.7395 0.0400 Uiso
C57 C 0.9331(5) 0.1624(5) 0.6963(4) 0.0569 Uani
H41 H 0.8598 0.1861 0.6484 0.0850 Uiso
H42 H 0.9409 0.2210 0.7358 0.0850 Uiso
C58 C 0.3205(4) 0.0707(5) 0.9781(4) 0.0594 Uani
H46 H 0.2294 0.0720 0.9912 0.0890 Uiso
C60 C 0.2940(6) 0.2852(5) 0.8592(4) 0.0789 Uani
H50 H 0.3102 0.3341 0.7864 0.1190 Uiso
H51 H 0.2027 0.2839 0.8712 0.1190 Uiso
H52 H 0.3346 0.3204 0.9086 0.1190 Uiso
N3 N 0.9168(3) 0.0425(3) 0.7701(3) 0.0391 Uani
N4 N 0.3464(3) 0.1590(3) 0.8764(2) 0.0439 Uani
O15 O 0.72185(19) 0.01837(19) 0.70485(16) 0.0218 Uani
O16 O 0.47010(19) 0.02632(18) 0.81214(15) 0.0212 Uani
H8 H 0.9903 0.8391 0.3449 0.0850 Uiso
H17 H 0.9741 0.9607 0.1034 0.0810 Uiso
C47 C 0.7335(2) 0.9909(2) 0.4354(2) 0.0148 Uani
C48 C 0.8705(3) 0.9954(3) 0.4699(2) 0.0176 Uani
C49 C 0.9233(3) 0.9023(3) 0.5592(2) 0.0185 Uani
C50 C 0.8503(3) 0.8011(3) 0.6200(2) 0.0220 Uani
H35 H 0.7654 0.7960 0.5997 0.0260 Uiso
C51 C 0.9026(3) 0.7124(3) 0.7067(3) 0.0280 Uani
H36 H 0.8532 0.6478 0.7456 0.0340 Uiso
C55 C 0.8122(3) 0.9794(3) 0.7669(3) 0.0286 Uani
H39 H 0.8083 0.9004 0.8154 0.0340 Uiso
H44 H 0.3494 0.9896 0.9769 0.0890 Uiso
H10 H 0.6348 0.9087 0.9655 0.0890 Uiso
H45 H 0.3652 0.0913 0.0345 0.0890 Uiso
loop_
_atom_site_aniso_label
_atom_site_aniso_U_11
_atom_site_aniso_U_22
_atom_site_aniso_U_33
_atom_site_aniso_U_23
_atom_site_aniso_U_13
_atom_site_aniso_U_12
Dy1 0.01254 0.00791 0.01218 -0.00212 -0.00076 -0.00044
C1 0.0262 0.0129 0.0142 -0.003 0.0025 -0.0035
C3 0.0116 0.0126 0.02 -0.0046 0.0007 -0.0004
C4 0.0232 0.0175 0.0185 0.0026 -0.0038 0.0012
C6 0.0125 0.0221 0.0198 -0.0089 0.0015 -0.0003
C7 0.0279 0.0354 0.0238 -0.0104 0.0031 -0.0036
C9 0.0318 0.0232 0.0265 -0.003 -0.0011 -0.0009
C11 0.014 0.022 0.0203 -0.0079 0.0016 0.0005
C12 0.048 0.0279 0.025 -0.0031 0.0029 -0.0025
C14 0.016 0.0229 0.0266 -0.0066 -0.0001 -0.0013
C17 0.08 0.033 0.0326 -0.0091 0.015 0.008
C19 0.0193 0.0246 0.0339 0.0008 0.0035 -0.0042
C22 0.083 0.028 0.038 -0.003 0.018 0.0151
C25 0.061 0.022 0.0308 -0.001 0.0058 0.0066
C28 0.0367 0.0232 0.0282 -0.0044 0.0016 -0.001
O1 0.0195 0.0143 0.0198 -0.0016 -0.0029 -0.0015
O6 0.0188 0.0154 0.0232 -0.0003 0.0022 -0.0022
O8 0.0161 0.0265 0.0187 -0.0093 0.0017 -0.0022
O20 0.01 0.0149 0.0184 -0.0057 0.001 -0.0003
O23 0.0242 0.0093 0.0163 -0.004 -0.002 -0.0006
C31 0.0262 0.0129 0.0142 -0.003 0.0025 -0.0035
C32 0.0232 0.0175 0.0185 0.0026 -0.0038 0.0012
C33 0.0318 0.0232 0.0265 -0.003 -0.0011 -0.0009
C34 0.048 0.0279 0.025 -0.0031 0.0029 -0.0025
C35 0.08 0.033 0.0326 -0.0091 0.015 0.008
C36 0.083 0.028 0.038 -0.003 0.018 0.0151
C37 0.061 0.022 0.0308 -0.001 0.0058 0.0066
C38 0.0367 0.0232 0.0282 -0.0044 0.0016 -0.001
O9 0.0195 0.0143 0.0198 -0.0016 -0.0029 -0.0015
O10 0.0188 0.0154 0.0232 -0.0003 0.0022 -0.0022
Dy7 0.01254 0.00791 0.01218 -0.00212 -0.00076 -0.00044
C2 0.0123 0.0077 0.019 -0.0035 0.0015 -0.0012
C5 0.0186 0.0068 0.0132 -0.002 -0.0009 -0.0001
C8 0.045 0.0341 0.0232 -0.0149 -0.0041 0.0104
C10 0.0188 0.0128 0.0194 -0.0055 0.0009 -0.0003
C13 0.0239 0.0176 0.06 -0.0225 0.0071 -0.0028
C15 0.057 0.068 0.05 -0.024 -0.006 -0.004
C16 0.048 0.094 0.048 -0.039 0.017 -0.005
C18 0.0218 0.036 0.105 -0.041 0.0192 -0.0026
C21 0.096 0.084 0.075 -0.06 -0.024 0.056
C23 0.0213 0.0328 0.101 -0.036 0.0206 -0.0128
C26 0.0225 0.0183 0.058 -0.0209 0.0075 -0.0069
C29 0.0189 0.0128 0.0249 -0.0087 0.0016 -0.0024
N1 0.0244 0.059 0.0434 -0.0276 0.0088 -0.016
N2 0.044 0.063 0.0339 -0.0317 -0.0091 0.0207
O2 0.0217 0.0082 0.0157 -0.0016 0.0005 -0.0014
O3 0.01 0.0149 0.0184 -0.0057 0.001 -0.0003
O4 0.0187 0.0221 0.026 -0.0094 -0.0063 -0.0015
O5 0.0258 0.0227 0.0165 -0.0084 -0.001 0.0008
O7 0.0242 0.0093 0.0163 -0.004 -0.002 -0.0006
C39 0.0123 0.0077 0.019 -0.0035 0.0015 -0.0012
C40 0.0186 0.0068 0.0132 -0.002 -0.0009 -0.0001
C41 0.0188 0.0128 0.0194 -0.0055 0.0009 -0.0003
C42 0.0239 0.0176 0.06 -0.0225 0.0071 -0.0028
C43 0.0218 0.036 0.105 -0.041 0.0192 -0.0026
C44 0.0213 0.0328 0.101 -0.036 0.0206 -0.0128
C45 0.0225 0.0183 0.058 -0.0209 0.0075 -0.0069
C46 0.0189 0.0128 0.0249 -0.0087 0.0016 -0.0024
O11 0.0217 0.0082 0.0157 -0.0016 0.0005 -0.0014
C52 0.0215 0.0286 0.0277 0.0037 0.0003 0.0009
C53 0.0166 0.0267 0.0216 -0.0018 -0.0026 0.0011
C54 0.0134 0.0221 0.0219 -0.0072 0.002 0
C59 0.036 0.087 0.048 -0.032 -0.0032 -0.005
O25 0.0161 0.0265 0.0187 -0.0093 0.0017 -0.0022
C20 0.036 0.087 0.048 -0.032 -0.0032 -0.005
C24 0.0215 0.0286 0.0277 0.0037 0.0003 0.0009
C27 0.0166 0.0267 0.0216 -0.0018 -0.0026 0.0011
C30 0.0134 0.0221 0.0219 -0.0072 0.002 0
C56 0.045 0.0341 0.0232 -0.0149 -0.0041 0.0104
C57 0.057 0.068 0.05 -0.024 -0.006 -0.004
C58 0.048 0.094 0.048 -0.039 0.017 -0.005
C60 0.096 0.084 0.075 -0.06 -0.024 0.056
N3 0.0244 0.059 0.0434 -0.0276 0.0088 -0.016
N4 0.044 0.063 0.0339 -0.0317 -0.0091 0.0207
O15 0.0187 0.0221 0.026 -0.0094 -0.0063 -0.0015
O16 0.0258 0.0227 0.0165 -0.0084 -0.001 0.0008
C47 0.0116 0.0126 0.02 -0.0046 0.0007 -0.0004
C48 0.0125 0.0221 0.0198 -0.0089 0.0015 -0.0003
C49 0.014 0.022 0.0203 -0.0079 0.0016 0.0005
C50 0.016 0.0229 0.0266 -0.0066 -0.0001 -0.0013
C51 0.0193 0.0246 0.0339 0.0008 0.0035 -0.0042
C55 0.0279 0.0354 0.0238 -0.0104 0.0031 -0.0036
loop_
_geom_bond_atom_site_label_1
_geom_bond_atom_site_label_2
_geom_bond_site_symmetry_1
_geom_bond_site_symmetry_2
Dy1 O1 1_555 1_555
C1 C4 1_555 1_555
C3 C6 1_555 1_555
C4 C9 1_555 1_555
C6 C11 1_555 1_555
C7 H1 1_555 1_555
C9 C12 1_555 1_555
C11 C14 1_555 1_555
C12 H3 1_555 1_555
C14 H5 1_555 1_555
C17 C12 1_555 1_555
H12 C17 1_555 1_555
C19 C14 1_555 1_555
H14 C19 1_555 1_555
C22 C17 1_555 1_555
H21 C22 1_555 1_555
C25 C22 1_555 1_555
C28 C9 1_555 1_555
O1 C1 1_555 1_555
O6 Dy1 1_555 1_555
O8 C3 1_555 1_555
O20 Dy1 1_555 1_555
O23 Dy1 1_555 1_555
C1 O6 1_555 1_555
C25 C28 1_555 1_555
C31 C32 1_555 1_555
C33 C32 1_555 1_555
C34 C33 1_555 1_555
H27 C34 1_555 1_555
C35 C34 1_555 1_555
H28 C35 1_555 1_555
C36 C35 1_555 1_555
H29 C36 1_555 1_555
C37 C36 1_555 1_555
O9 C31 1_555 1_555
O10 C31 1_555 1_555
Dy7 O9 1_555 1_555
C33 C38 1_555 1_555
C37 C38 1_555 1_555
O10 Dy7 1_555 1_555
C2 C5 1_555 1_555
C5 C10 1_555 1_555
C8 H2 1_555 1_555
C10 C13 1_555 1_555
C13 H4 1_555 1_555
C15 H6 1_555 1_555
H7 C15 1_555 1_555
H11 C16 1_555 1_555
C18 C13 1_555 1_555
H13 C18 1_555 1_555
C21 H18 1_555 1_555
H19 C21 1_555 1_555
H20 C21 1_555 1_555
C23 C18 1_555 1_555
H22 C23 1_555 1_555
C26 C23 1_555 1_555
H25 C26 1_555 1_555
C29 C10 1_555 1_555
N2 C8 1_555 1_555
O7 C2 1_555 1_555
C39 C40 1_555 1_555
C40 C29 1_555 1_555
C41 C40 1_555 1_555
C42 C41 1_555 1_555
H31 C42 1_555 1_555
C43 C42 1_555 1_555
H32 C43 1_555 1_555
C44 C43 1_555 1_555
H33 C44 1_555 1_555
C45 C44 1_555 1_555
H34 C45 1_555 1_555
C46 C5 1_555 1_555
O11 C39 1_555 1_555
O23 C39 1_555 1_555
H37 C52 1_555 1_555
C53 C52 1_555 1_555
H38 C53 1_555 1_555
C59 H47 1_555 1_555
H48 C59 1_555 1_555
Dy7 O3 1_555 1_555
C2 O2 1_555 1_555
C8 O5 1_555 1_555
C15 N1 1_555 1_555
C16 N2 1_555 1_555
C21 N2 1_555 1_555
C26 C29 1_555 1_555
O7 Dy7 1_555 1_555
C41 C46 1_555 1_555
C45 C46 1_555 1_555
C53 C54 1_555 1_555
C20 H15 1_555 1_555
H16 C20 1_555 1_555
H23 C24 1_555 1_555
C27 C24 1_555 1_555
H26 C27 1_555 1_555
C56 H40 1_555 1_555
C57 H41 1_555 1_555
H42 C57 1_555 1_555
H46 C58 1_555 1_555
C60 H50 1_555 1_555
H51 C60 1_555 1_555
H52 C60 1_555 1_555
N4 C56 1_555 1_555
C27 C30 1_555 1_555
C56 O16 1_555 1_555
C57 N3 1_555 1_555
C58 N4 1_555 1_555
C60 N4 1_555 1_555
C47 C48 1_555 1_555
C49 C48 1_555 1_555
C50 C49 1_555 1_555
H35 C50 1_555 1_555
C51 C50 1_555 1_555
H36 C51 1_555 1_555
O25 C47 1_555 1_555
C55 H39 1_555 1_555

#END
