
###############################################################################
#
# This file contains modified crystal structure data generated from the
# MOF subset of the Cambridge Structural Database (CSD) v543 
# hosted by the Cambridge Crystallographic Data Centre (CCDC).
#
# This work is licensed under the Creative Commons
# Attribution-NonCommercial-ShareAlike 4.0 International License.
# To view a copy of this license, visit
# http://creativecommons.org/licenses/by-nc-sa/4.0/
# or send a letter to
# Creative Commons, PO Box 1866, Mountain View, CA 94042, USA.
#
# CIF created using the CSD Python API on 29 September 2022
# The structure has been converted into the P1 space group
# The structure has a 3D framework
# The original CSD entry RUSWUZ is in the triclinic crystal system
# The framework has been calculated to contain at least 10.0% void space
# The void calculation uses a probe of radius 1.32A, grid spacing 0.4
#
###############################################################################

data_RUSWUZ
_chemical_formula_moiety         '(C60 H52 N4 Nd2 O16)n'
_symmetry_cell_setting           triclinic
_symmetry_space_group_name_H-M   'P 1'
_symmetry_Int_Tables_number      1
_space_group_name_Hall           'P 1'
loop_
_symmetry_equiv_pos_site_id
_symmetry_equiv_pos_as_xyz
1 x,y,z
_cell_length_a                   10.471(5)
_cell_length_b                   11.359(5)
_cell_length_c                   13.093(6)
_cell_angle_alpha                107.541(5)
_cell_angle_beta                 90.084(6)
_cell_angle_gamma                92.355(6)
_cell_volume                     1483.46
loop_
_atom_site_label
_atom_site_type_symbol
_atom_site_fract_x
_atom_site_fract_y
_atom_site_fract_z
_atom_site_U_iso_or_equiv
_atom_site_thermal_displace_type
C23 C 0.1604(10) 0.0627(11) 0.5631(12) 0.1113 Uani
H22 H 0.0832 0.1020 0.5737 0.1340 Uiso
C26 C 0.2674(10) 0.1235(9) 0.5427(9) 0.0750 Uani
H25 H 0.2631 0.2051 0.5427 0.0900 Uiso
C29 C 0.3863(7) 0.0640(7) 0.5213(7) 0.0450 Uani
C39 C 0.4911(7) 0.2538(7) 0.4928(7) 0.0406 Uani
C40 C 0.4936(8) 0.1201(7) 0.4931(6) 0.0418 Uani
C41 C 0.6088(8) 0.0603(7) 0.4743(7) 0.0463 Uani
C42 C 0.7231(9) 0.1169(9) 0.4475(9) 0.0758 Uani
H31 H 0.7208 0.1960 0.4408 0.0910 Uiso
C43 C 0.8345(11) 0.0583(10) 0.4315(12) 0.1105 Uani
H32 H 0.9082 0.0986 0.4168 0.1330 Uiso
O11 O 0.5071(5) 0.3330(5) 0.5841(4) 0.0460 Uani
O12 O 0.4723(6) 0.2758(5) 0.4072(4) 0.0498 Uani
Nd4 Nd 0.48068(4) 0.45342(3) 0.33946(3) 0.0264 Uani
Nd7 Nd 0.51932(4) 0.54658(3) 0.66054(3) 0.0264 Uani
C1 C 0.4987(9) 0.2335(7) 0.1706(6) 0.0438 Uani
C2 C 0.5089(7) 0.7462(7) 0.5072(7) 0.0406 Uani
C3 C 0.2668(8) 0.4913(7) 0.5612(7) 0.0420 Uani
C4 C 0.4998(9) 0.1154(8) 0.0861(7) 0.0525 Uani
C5 C 0.5064(8) 0.8799(7) 0.5069(6) 0.0418 Uani
C6 C 0.1288(7) 0.4966(8) 0.5284(6) 0.0444 Uani
C7 C 0.5841(10) 0.6298(11) 0.1998(8) 0.0766 Uani
H1 H 0.5708 0.6920 0.2633 0.0920 Uiso
C8 C 0.1904(13) 0.4823(12) 0.2352(10) 0.0952 Uani
H2 H 0.1911 0.4028 0.1876 0.1140 Uiso
C9 C 0.4514(10) 0.0060(10) 0.1010(8) 0.0752 Uani
C10 C 0.3912(8) 0.9397(7) 0.5257(7) 0.0463 Uani
C11 C 0.0764(7) 0.4029(8) 0.4409(7) 0.0471 Uani
C12 C 0.4033(11) 0.0005(10) 0.2051(8) 0.0862 Uani
H3 H 0.4110 0.0712 0.2637 0.1040 Uiso
C13 C 0.2769(9) 0.8831(9) 0.5525(9) 0.0758 Uani
H4 H 0.2792 0.8040 0.5592 0.0910 Uiso
C14 C 0.1495(8) 0.3028(8) 0.3813(7) 0.0608 Uani
H5 H 0.2346 0.2990 0.4001 0.0730 Uiso
C15 C 0.6799(12) 0.5642(13) 0.0250(10) 0.1243 Uani
H6 H 0.6791 0.4850 0.0373 0.1870 Uiso
C16 C 0.0695(16) 0.6668(15) 0.3086(12) 0.1596 Uani
H9 H 0.1398 0.6881 0.3590 0.2390 Uiso
H11 H 0.0661 0.7269 0.2707 0.2390 Uiso
C18 C 0.1655(11) 0.9417(10) 0.5685(12) 0.1105 Uani
H13 H 0.0918 0.9014 0.5832 0.1330 Uiso
C19 C 0.0954(9) 0.2122(9) 0.2965(8) 0.0795 Uani
H14 H 0.1436 0.1467 0.2582 0.0950 Uiso
C20 C 0.7068(14) 0.7851(13) 0.1418(12) 0.1484 Uani
H15 H 0.7064 0.8028 0.0745 0.2220 Uiso
H16 H 0.7929 0.7929 0.1691 0.2220 Uiso
H17 H 0.6550 0.8424 0.1919 0.2220 Uiso
H18 H 0.0075 0.4054 0.1196 0.2420 Uiso
N1 N 0.6559(9) 0.6601(9) 0.1261(8) 0.0894 Uani
N2 N 0.0870(9) 0.5473(13) 0.2343(10) 0.1039 Uani
O1 O 0.3909(5) 0.2810(5) 0.1951(4) 0.0534 Uani
O2 O 0.4929(5) 0.6670(5) 0.4159(4) 0.0460 Uani
O3 O 0.3574(5) 0.5053(5) 0.5021(4) 0.0486 Uani
O4 O 0.5344(6) 0.5278(6) 0.1912(5) 0.0623 Uani
O5 O 0.2831(6) 0.5188(6) 0.2930(5) 0.0693 Uani
O6 O 0.5985(6) 0.2833(5) 0.2172(5) 0.0586 Uani
O7 O 0.5277(6) 0.7242(5) 0.5928(4) 0.0498 Uani
O8 O 0.2887(5) 0.4838(5) 0.6524(5) 0.0566 Uani
H30 H 0.6117 0.2915 0.0190 0.1130 Uiso
C44 C 0.8396(10) 0.9373(11) 0.4369(12) 0.1113 Uani
H33 H 0.9168 0.8980 0.4263 0.1340 Uiso
C45 C 0.7326(10) 0.8765(9) 0.4573(9) 0.0750 Uani
H34 H 0.7369 0.7949 0.4573 0.0900 Uiso
C46 C 0.6137(7) 0.9360(7) 0.4787(7) 0.0450 Uani
C52 C 0.0335(9) 0.7819(9) 0.7329(8) 0.0765 Uani
H37 H 0.0687 0.8427 0.7918 0.0920 Uiso
C53 C 0.1069(9) 0.6892(9) 0.6769(7) 0.0614 Uani
H38 H 0.1923 0.6886 0.6963 0.0740 Uiso
C54 C 0.0539(8) 0.5923(8) 0.5881(7) 0.0466 Uani
H45 H 0.0089 0.3345 0.6537 0.2390 Uiso
C60 C 0.0134(15) 0.5112(16) 0.8434(11) 0.1617 Uani
H51 H 0.0214 0.4658 0.8940 0.2420 Uiso
H52 H 0.0928 0.5115 0.8069 0.2420 Uiso
O20 O 0.6426(5) 0.4947(5) 0.4979(4) 0.0486 Uani
O25 O 0.7113(5) 0.5162(5) 0.3476(5) 0.0566 Uani
H24 H 0.3883 0.7085 0.9810 0.1130 Uiso
C31 C 0.5013(9) 0.7665(7) 0.8294(6) 0.0438 Uani
C32 C 0.5002(9) 0.8846(8) 0.9139(7) 0.0525 Uani
C33 C 0.5486(10) 0.9940(10) 0.8990(8) 0.0752 Uani
C34 C 0.5967(11) 0.9995(10) 0.7949(8) 0.0862 Uani
H27 H 0.5890 0.9288 0.7363 0.1040 Uiso
O9 O 0.6091(5) 0.7190(5) 0.8049(4) 0.0534 Uani
O10 O 0.4015(6) 0.7167(5) 0.7828(5) 0.0586 Uani
H10 H 0.9911 0.6655 0.3463 0.2390 Uiso
C21 C 0.9866(15) 0.4888(16) 0.1566(11) 0.1617 Uani
H19 H 0.9786 0.5342 0.1060 0.2420 Uiso
H20 H 0.9072 0.4885 0.1931 0.2420 Uiso
C24 C 0.9665(9) 0.2181(9) 0.2671(8) 0.0765 Uani
H23 H 0.9313 0.1573 0.2082 0.0920 Uiso
C27 C 0.8931(9) 0.3108(9) 0.3231(7) 0.0614 Uani
H26 H 0.8077 0.3114 0.3037 0.0740 Uiso
C30 C 0.9461(8) 0.4077(8) 0.4119(7) 0.0466 Uani
C47 C 0.7332(8) 0.5087(7) 0.4388(7) 0.0420 Uani
C48 C 0.8712(7) 0.5034(8) 0.4716(6) 0.0444 Uani
C49 C 0.9236(7) 0.5971(8) 0.5591(7) 0.0471 Uani
C50 C 0.8505(8) 0.6972(8) 0.6187(7) 0.0608 Uani
H35 H 0.7654 0.7010 0.5999 0.0730 Uiso
C51 C 0.9046(9) 0.7878(9) 0.7035(8) 0.0795 Uani
H36 H 0.8564 0.8533 0.7418 0.0950 Uiso
C55 C 0.4159(10) 0.3702(11) 0.8002(8) 0.0766 Uani
H39 H 0.4292 0.3080 0.7367 0.0920 Uiso
C56 C 0.8096(13) 0.5177(12) 0.7648(10) 0.0952 Uani
H40 H 0.8089 0.5972 0.8124 0.1140 Uiso
C57 C 0.3201(12) 0.4358(13) 0.9750(10) 0.1243 Uani
H41 H 0.3209 0.5150 0.9627 0.1870 Uiso
C58 C 0.9305(16) 0.3332(15) 0.6914(12) 0.1596 Uani
H44 H 0.8602 0.3119 0.6410 0.2390 Uiso
H46 H 0.9339 0.2731 0.7293 0.2390 Uiso
C59 C 0.2932(14) 0.2149(13) 0.8582(12) 0.1484 Uani
H47 H 0.2936 0.1972 0.9255 0.2220 Uiso
H48 H 0.2071 0.2071 0.8309 0.2220 Uiso
H49 H 0.3450 0.1576 0.8081 0.2220 Uiso
H50 H 0.9925 0.5946 0.8804 0.2420 Uiso
N3 N 0.3441(9) 0.3399(9) 0.8739(8) 0.0894 Uani
N4 N 0.9130(9) 0.4527(13) 0.7657(10) 0.1039 Uani
O15 O 0.4656(6) 0.4722(6) 0.8088(5) 0.0623 Uani
O16 O 0.7169(6) 0.4812(6) 0.7070(5) 0.0693 Uani
H7 H 0.7617 0.5809 0.9982 0.1870 Uiso
H8 H 0.6144 0.5638 0.9734 0.1870 Uiso
C35 C 0.6514(15) 0.1032(11) 0.7813(10) 0.1250 Uani
H28 H 0.6865 0.1007 0.7155 0.1500 Uiso
C36 C 0.6561(14) 0.2169(11) 0.8664(10) 0.1246 Uani
H29 H 0.6909 0.2889 0.8560 0.1500 Uiso
C37 C 0.6081(12) 0.2173(10) 0.9638(9) 0.0939 Uani
C38 C 0.5525(10) 0.1095(9) 0.9855(8) 0.0735 Uani
C17 C 0.3486(15) 0.8968(11) 0.2187(10) 0.1250 Uani
H12 H 0.3135 0.8993 0.2845 0.1500 Uiso
C22 C 0.3439(14) 0.7831(11) 0.1336(10) 0.1246 Uani
H21 H 0.3091 0.7111 0.1440 0.1500 Uiso
C25 C 0.3919(12) 0.7827(10) 0.0362(9) 0.0939 Uani
C28 C 0.4475(10) 0.8905(9) 0.0145(8) 0.0735 Uani
H42 H 0.2383 0.4191 0.0018 0.1870 Uiso
H43 H 0.3856 0.4362 0.0266 0.1870 Uiso
loop_
_atom_site_aniso_label
_atom_site_aniso_U_11
_atom_site_aniso_U_22
_atom_site_aniso_U_33
_atom_site_aniso_U_23
_atom_site_aniso_U_13
_atom_site_aniso_U_12
C23 0.06 0.071 0.221 0.069 0.038 0.018
C26 0.072 0.042 0.115 0.028 0.022 0.016
C29 0.039 0.028 0.067 0.012 0.012 0.008
C39 0.047 0.024 0.04 -0.007 -0.001 0.004
C40 0.054 0.022 0.052 0.015 -0.001 0.001
C41 0.054 0.027 0.059 0.014 0.003 0.005
C42 0.054 0.054 0.136 0.053 0.02 0.006
C43 0.069 0.068 0.22 0.08 0.044 0.016
O11 0.061 0.03 0.046 0.01 0.005 0.002
O12 0.081 0.032 0.035 0.008 -0.007 0.002
Nd4 0.0301 0.0158 0.0297 0.00165 -0.00177 -0.00076
Nd7 0.0301 0.0158 0.0297 0.00165 -0.00177 -0.00076
C1 0.053 0.033 0.037 -0.002 0.005 0.002
C2 0.047 0.024 0.04 -0.007 -0.001 0.004
C3 0.039 0.032 0.054 0.012 0.002 -0.004
C4 0.07 0.031 0.044 -0.006 0.009 -0.009
C5 0.054 0.022 0.052 0.015 -0.001 0.001
C6 0.033 0.049 0.05 0.013 0.003 0.002
C7 0.096 0.083 0.058 0.034 0.009 -0.011
C8 0.104 0.105 0.084 0.036 0.009 0.031
C9 0.086 0.066 0.061 0 0.006 0.004
C10 0.054 0.027 0.059 0.014 0.003 0.005
C11 0.034 0.047 0.053 0.004 0.005 0.004
C12 0.125 0.068 0.055 0.002 0.006 0.007
C13 0.054 0.054 0.136 0.053 0.02 0.006
C14 0.04 0.054 0.077 0.003 0.001 0
C15 0.11 0.153 0.095 0.016 0.038 -0.005
C16 0.201 0.13 0.135 0.025 0.025 -0.026
C18 0.069 0.068 0.22 0.08 0.044 0.016
C19 0.051 0.069 0.094 -0.013 0.007 0.006
C20 0.157 0.149 0.17 0.107 -0.022 -0.087
N1 0.107 0.091 0.081 0.046 0.001 -0.023
N2 0.05 0.162 0.133 0.091 0.001 0.032
O1 0.049 0.041 0.058 -0.004 -0.006 0.007
O2 0.061 0.03 0.046 0.01 0.005 0.002
O3 0.039 0.047 0.062 0.02 0.005 -0.001
O4 0.078 0.048 0.06 0.017 -0.006 -0.012
O5 0.057 0.083 0.068 0.026 -0.026 -0.019
O6 0.053 0.044 0.066 -0.003 -0.001 0.006
O7 0.081 0.032 0.035 0.008 -0.007 0.002
O8 0.056 0.067 0.045 0.013 0.001 0.011
C44 0.06 0.071 0.221 0.069 0.038 0.018
C45 0.072 0.042 0.115 0.028 0.022 0.016
C46 0.039 0.028 0.067 0.012 0.012 0.008
C52 0.05 0.065 0.088 -0.016 -0.008 -0.003
C53 0.044 0.062 0.069 0.005 0.009 0.01
C54 0.042 0.042 0.053 0.01 0.003 0.001
C60 0.145 0.23 0.12 0.066 -0.035 0.024
O20 0.039 0.047 0.062 0.02 0.005 -0.001
O25 0.056 0.067 0.045 0.013 0.001 0.011
C31 0.053 0.033 0.037 -0.002 0.005 0.002
C32 0.07 0.031 0.044 -0.006 0.009 -0.009
C33 0.086 0.066 0.061 0 0.006 0.004
C34 0.125 0.068 0.055 0.002 0.006 0.007
O9 0.049 0.041 0.058 -0.004 -0.006 0.007
O10 0.053 0.044 0.066 -0.003 -0.001 0.006
C21 0.145 0.23 0.12 0.066 -0.035 0.024
C24 0.05 0.065 0.088 -0.016 -0.008 -0.003
C27 0.044 0.062 0.069 0.005 0.009 0.01
C30 0.042 0.042 0.053 0.01 0.003 0.001
C47 0.039 0.032 0.054 0.012 0.002 -0.004
C48 0.033 0.049 0.05 0.013 0.003 0.002
C49 0.034 0.047 0.053 0.004 0.005 0.004
C50 0.04 0.054 0.077 0.003 0.001 0
C51 0.051 0.069 0.094 -0.013 0.007 0.006
C55 0.096 0.083 0.058 0.034 0.009 -0.011
C56 0.104 0.105 0.084 0.036 0.009 0.031
C57 0.11 0.153 0.095 0.016 0.038 -0.005
C58 0.201 0.13 0.135 0.025 0.025 -0.026
C59 0.157 0.149 0.17 0.107 -0.022 -0.087
N3 0.107 0.091 0.081 0.046 0.001 -0.023
N4 0.05 0.162 0.133 0.091 0.001 0.032
O15 0.078 0.048 0.06 0.017 -0.006 -0.012
O16 0.057 0.083 0.068 0.026 -0.026 -0.019
C35 0.215 0.053 0.098 0.014 0.051 -0.033
C36 0.215 0.071 0.077 0.01 0.044 -0.026
C37 0.141 0.054 0.079 0.012 0.01 -0.023
C38 0.097 0.051 0.062 0.003 0.004 -0.01
C17 0.215 0.053 0.098 0.014 0.051 -0.033
C22 0.215 0.071 0.077 0.01 0.044 -0.026
C25 0.141 0.054 0.079 0.012 0.01 -0.023
C28 0.097 0.051 0.062 0.003 0.004 -0.01
loop_
_geom_bond_atom_site_label_1
_geom_bond_atom_site_label_2
_geom_bond_site_symmetry_1
_geom_bond_site_symmetry_2
H22 C23 1_555 1_555
C26 C23 1_555 1_555
H25 C26 1_555 1_555
C39 C40 1_555 1_555
C40 C29 1_555 1_555
C41 C40 1_555 1_555
C42 C41 1_555 1_555
H31 C42 1_555 1_555
C43 C42 1_555 1_555
H32 C43 1_555 1_555
O11 C39 1_555 1_555
O12 C39 1_555 1_555
Nd4 O12 1_555 1_555
Nd7 O11 1_555 1_555
C26 C29 1_555 1_555
Nd4 O1 1_555 1_555
C1 C4 1_555 1_555
C2 C5 1_555 1_555
C3 C6 1_555 1_555
C4 C9 1_555 1_555
C5 C10 1_555 1_555
C6 C11 1_555 1_555
C7 H1 1_555 1_555
C8 H2 1_555 1_555
C9 C12 1_555 1_555
C10 C13 1_555 1_555
C11 C14 1_555 1_555
C12 H3 1_555 1_555
C13 H4 1_555 1_555
C14 H5 1_555 1_555
C15 H6 1_555 1_555
C16 H9 1_555 1_555
H11 C16 1_555 1_555
C18 C13 1_555 1_555
H13 C18 1_555 1_555
C19 C14 1_555 1_555
H14 C19 1_555 1_555
C20 H15 1_555 1_555
H16 C20 1_555 1_555
H17 C20 1_555 1_555
N1 C7 1_555 1_555
N2 C8 1_555 1_555
O1 C1 1_555 1_555
O2 Nd4 1_555 1_555
O3 Nd4 1_555 1_555
O4 Nd4 1_555 1_555
O5 Nd4 1_555 1_555
O6 Nd4 1_555 1_555
O7 C2 1_555 1_555
O8 C3 1_555 1_555
H33 C44 1_555 1_555
C45 C44 1_555 1_555
H34 C45 1_555 1_555
C46 C5 1_555 1_555
H37 C52 1_555 1_555
C53 C52 1_555 1_555
H38 C53 1_555 1_555
C54 C6 1_555 1_555
H51 C60 1_555 1_555
H52 C60 1_555 1_555
Nd7 O3 1_555 1_555
O20 Nd4 1_555 1_555
O25 Nd4 1_555 1_555
C1 O6 1_555 1_555
C2 O2 1_555 1_555
C3 O3 1_555 1_555
C7 O4 1_555 1_555
C8 O5 1_555 1_555
C15 N1 1_555 1_555
C16 N2 1_555 1_555
C20 N1 1_555 1_555
O7 Nd7 1_555 1_555
O8 Nd7 1_555 1_555
C45 C46 1_555 1_555
C53 C54 1_555 1_555
Nd7 O20 1_555 1_555
C31 C32 1_555 1_555
C33 C32 1_555 1_555
C34 C33 1_555 1_555
H27 C34 1_555 1_555
O9 C31 1_555 1_555
O10 C31 1_555 1_555
Nd7 O9 1_555 1_555
O10 Nd7 1_555 1_555
H19 C21 1_555 1_555
H20 C21 1_555 1_555
H23 C24 1_555 1_555
C27 C24 1_555 1_555
H26 C27 1_555 1_555
C47 C48 1_555 1_555
C48 C30 1_555 1_555
C49 C48 1_555 1_555
C50 C49 1_555 1_555
H35 C50 1_555 1_555
C51 C50 1_555 1_555
H36 C51 1_555 1_555
O20 C47 1_555 1_555
O25 C47 1_555 1_555
C55 H39 1_555 1_555
C56 H40 1_555 1_555
C57 H41 1_555 1_555
C58 H44 1_555 1_555
H46 C58 1_555 1_555
C59 H47 1_555 1_555
H48 C59 1_555 1_555
H49 C59 1_555 1_555
N3 C55 1_555 1_555
N4 C56 1_555 1_555
O15 Nd7 1_555 1_555
O16 Nd7 1_555 1_555
C27 C30 1_555 1_555
C55 O15 1_555 1_555
C56 O16 1_555 1_555
C57 N3 1_555 1_555
C58 N4 1_555 1_555
C59 N3 1_555 1_555
H28 C35 1_555 1_555
C36 C35 1_555 1_555
H29 C36 1_555 1_555
C37 C36 1_555 1_555
C37 C38 1_555 1_555
H12 C17 1_555 1_555
C22 C17 1_555 1_555
H21 C22 1_555 1_555
C25 C22 1_555 1_555
C25 C28 1_555 1_555

#END
