
###############################################################################
#
# This file contains modified crystal structure data generated from the
# MOF subset of the Cambridge Structural Database (CSD) v543 
# hosted by the Cambridge Crystallographic Data Centre (CCDC).
#
# This work is licensed under the Creative Commons
# Attribution-NonCommercial-ShareAlike 4.0 International License.
# To view a copy of this license, visit
# http://creativecommons.org/licenses/by-nc-sa/4.0/
# or send a letter to
# Creative Commons, PO Box 1866, Mountain View, CA 94042, USA.
#
# CIF created using the CSD Python API on 29 September 2022
# The structure has been converted into the P1 space group
# The structure has a 3D framework
# The original CSD entry RUSXAG is in the triclinic crystal system
# The framework has been calculated to contain at least 10.0% void space
# The void calculation uses a probe of radius 1.32A, grid spacing 0.4
#
###############################################################################

data_RUSXAG
_chemical_formula_moiety         '(C60 H52 Gd1 N4 O14)n'
_symmetry_cell_setting           triclinic
_symmetry_space_group_name_H-M   'P 1'
_symmetry_Int_Tables_number      1
_space_group_name_Hall           'P 1'
loop_
_symmetry_equiv_pos_site_id
_symmetry_equiv_pos_as_xyz
1 x,y,z
_cell_length_a                   10.3541(12)
_cell_length_b                   11.3680(13)
_cell_length_c                   12.9160(15)
_cell_angle_alpha                72.8590(10)
_cell_angle_beta                 90.0280(10)
_cell_angle_gamma                87.2320(10)
_cell_volume                     1450.89
loop_
_atom_site_label
_atom_site_type_symbol
_atom_site_fract_x
_atom_site_fract_y
_atom_site_fract_z
_atom_site_U_iso_or_equiv
_atom_site_thermal_displace_type
Gd1 Gd 0.47833(2) 0.04611(2) 0.33838(2) 0.0171 Uani
C1 C 0.4946(5) 0.2662(5) 0.1677(4) 0.0242 Uani
C3 C 0.2658(5) 0.0097(5) 0.5641(4) 0.0224 Uani
C4 C 0.4983(5) 0.3848(5) 0.0843(4) 0.0281 Uani
C6 C 0.1295(6) 0.0048(5) 0.5313(5) 0.0307 Uani
C7 C 0.1849(8) 0.0206(7) 0.2334(6) 0.0546 Uani
H1 H 0.1866 0.1009 0.1878 0.0650 Uiso
C9 C 0.4486(6) 0.4941(5) 0.1030(5) 0.0370 Uani
C11 C 0.0762(5) 0.0971(5) 0.4418(5) 0.0304 Uani
C12 C 0.3977(7) 0.4968(6) 0.2055(5) 0.0433 Uani
H3 H 0.3984 0.4239 0.2622 0.0520 Uiso
C14 C 0.1493(6) 0.1982(5) 0.3809(5) 0.0365 Uani
H5 H 0.2346 0.2032 0.4013 0.0440 Uiso
H11 H 0.6602 0.0116 0.0259 0.1120 Uiso
C17 C 0.3495(8) 0.6004(6) 0.2222(6) 0.0601 Uani
H12 H 0.3185 0.5989 0.2901 0.0720 Uiso
C19 C 0.0967(6) 0.2865(6) 0.2944(6) 0.0478 Uani
H14 H 0.1453 0.3517 0.2566 0.0570 Uiso
C22 C 0.3450(8) 0.7130(6) 0.1371(6) 0.0617 Uani
H21 H 0.3099 0.7843 0.1497 0.0740 Uiso
C25 C 0.3909(8) 0.7181(6) 0.0380(5) 0.0518 Uani
C28 C 0.4462(6) 0.6093(5) 0.0171(5) 0.0384 Uani
O1 O 0.3865(3) 0.2183(3) 0.1907(3) 0.0244 Uani
O6 O 0.5966(4) 0.2149(3) 0.2163(3) 0.0280 Uani
O8 O 0.2867(3) 0.0204(3) 0.6561(3) 0.0273 Uani
H30 H 0.6133 0.2074 0.0169 0.0620 Uiso
H43 H 0.0086 0.1581 0.6545 0.1260 Uiso
H49 H 0.0239 0.0325 0.9015 0.1310 Uiso
O20 O 0.6414(3) 0.0073(3) 0.4938(3) 0.0204 Uani
O23 O 0.4672(3) 0.2247(3) 0.4075(3) 0.0234 Uani
H24 H 0.3867 0.7926 0.9831 0.0620 Uiso
C31 C 0.5054(5) 0.7338(5) 0.8323(4) 0.0242 Uani
C32 C 0.5017(5) 0.6152(5) 0.9157(4) 0.0281 Uani
C33 C 0.5514(6) 0.5059(5) 0.8970(5) 0.0370 Uani
C34 C 0.6023(7) 0.5032(6) 0.7945(5) 0.0433 Uani
H27 H 0.6016 0.5761 0.7378 0.0520 Uiso
C35 C 0.6505(8) 0.3996(6) 0.7778(6) 0.0601 Uani
H28 H 0.6815 0.4011 0.7099 0.0720 Uiso
C36 C 0.6550(8) 0.2870(6) 0.8629(6) 0.0617 Uani
H29 H 0.6901 0.2157 0.8503 0.0740 Uiso
C37 C 0.6091(8) 0.2819(6) 0.9620(5) 0.0518 Uani
C38 C 0.5538(6) 0.3907(5) 0.9829(5) 0.0384 Uani
O9 O 0.6135(3) 0.7817(3) 0.8093(3) 0.0244 Uani
O10 O 0.4034(4) 0.7851(3) 0.7837(3) 0.0280 Uani
Gd7 Gd 0.52167(2) 0.95389(2) 0.66162(2) 0.0171 Uani
C2 C 0.5105(5) 0.7537(4) 0.5046(4) 0.0193 Uani
C5 C 0.5056(5) 0.6212(4) 0.5053(4) 0.0198 Uani
C8 C 0.5843(7) 0.8708(6) 0.1931(5) 0.0434 Uani
H2 H 0.5726 0.8083 0.2571 0.0520 Uiso
C10 C 0.3901(5) 0.5619(5) 0.5276(4) 0.0256 Uani
C13 C 0.2752(6) 0.6212(6) 0.5528(7) 0.0551 Uani
H4 H 0.2775 0.7014 0.5569 0.0670 Uiso
C15 C 0.0659(9) 0.8401(9) 0.3016(7) 0.0844 Uani
H6 H 0.1418 0.8175 0.3472 0.1260 Uiso
H7 H 0.0557 0.7809 0.2628 0.1260 Uiso
C16 C 0.6832(8) 0.9305(9) 0.0212(7) 0.0747 Uani
H10 H 0.7738 0.9245 0.0066 0.1120 Uiso
C18 C 0.1644(7) 0.5639(7) 0.5707(9) 0.0914 Uani
H13 H 0.0903 0.6051 0.5859 0.1100 Uiso
C21 C 0.7114(10) 0.7173(9) 0.1359(8) 0.0981 Uani
H18 H 0.8028 0.7200 0.1236 0.1470 Uiso
H19 H 0.6714 0.6817 0.0860 0.1470 Uiso
H20 H 0.6963 0.6681 0.2088 0.1470 Uiso
C23 C 0.1585(7) 0.4419(7) 0.5669(9) 0.0913 Uani
H22 H 0.0802 0.4035 0.5789 0.1090 Uiso
C26 C 0.2649(6) 0.3796(6) 0.5460(7) 0.0544 Uani
H25 H 0.2599 0.2979 0.5469 0.0650 Uiso
C29 C 0.3845(5) 0.4379(5) 0.5226(5) 0.0298 Uani
N1 N 0.0786(6) 0.9576(7) 0.2274(6) 0.0683 Uani
N2 N 0.6562(6) 0.8427(6) 0.1198(5) 0.0564 Uani
O2 O 0.4912(4) 0.8322(3) 0.4136(3) 0.0237 Uani
O3 O 0.3586(3) 0.9927(3) 0.5062(3) 0.0204 Uani
O4 O 0.2768(4) 0.9822(3) 0.2921(3) 0.0305 Uani
O5 O 0.5303(4) 0.9725(3) 0.1855(3) 0.0301 Uani
O7 O 0.5328(3) 0.7753(3) 0.5925(3) 0.0234 Uani
C39 C 0.4895(5) 0.2463(4) 0.4954(4) 0.0193 Uani
C40 C 0.4944(5) 0.3788(4) 0.4947(4) 0.0198 Uani
C41 C 0.6099(5) 0.4381(5) 0.4724(4) 0.0256 Uani
C42 C 0.7248(6) 0.3788(6) 0.4472(7) 0.0551 Uani
H31 H 0.7225 0.2986 0.4431 0.0670 Uiso
C43 C 0.8356(7) 0.4361(7) 0.4293(9) 0.0914 Uani
H32 H 0.9097 0.3949 0.4141 0.1100 Uiso
C44 C 0.8415(7) 0.5581(7) 0.4331(9) 0.0913 Uani
H33 H 0.9198 0.5965 0.4211 0.1090 Uiso
C45 C 0.7351(6) 0.6204(6) 0.4540(7) 0.0544 Uani
H34 H 0.7401 0.7021 0.4531 0.0650 Uiso
C46 C 0.6155(5) 0.5621(5) 0.4774(5) 0.0298 Uani
O11 O 0.5088(4) 0.1678(3) 0.5864(3) 0.0237 Uani
C52 C 0.0317(6) 0.7208(6) 0.7378(6) 0.0473 Uani
H37 H 0.0661 0.6616 0.7988 0.0570 Uiso
C53 C 0.1062(6) 0.8122(5) 0.6820(5) 0.0357 Uani
H38 H 0.1917 0.8133 0.7037 0.0430 Uiso
C54 C 0.0551(6) 0.9075(5) 0.5895(4) 0.0320 Uani
C59 C 0.0218(9) 0.9901(10) 0.8474(7) 0.0879 Uani
H47 H 0.0074 0.9046 0.8814 0.1310 Uiso
H48 H 0.1028 0.9973 0.8105 0.1310 Uiso
O25 O 0.7133(3) 0.9796(3) 0.3439(3) 0.0273 Uani
C20 C 0.9782(9) 0.0099(10) 0.1526(7) 0.0879 Uani
H15 H 0.9926 0.0954 0.1186 0.1310 Uiso
H16 H 0.8972 0.0027 0.1895 0.1310 Uiso
C24 C 0.9683(6) 0.2792(6) 0.2622(6) 0.0473 Uani
H23 H 0.9339 0.3384 0.2012 0.0570 Uiso
C27 C 0.8938(6) 0.1878(5) 0.3180(5) 0.0357 Uani
H26 H 0.8083 0.1867 0.2963 0.0430 Uiso
C30 C 0.9449(6) 0.0925(5) 0.4105(4) 0.0320 Uani
C56 C 0.4157(7) 0.1292(6) 0.8069(5) 0.0434 Uani
H40 H 0.4274 0.1917 0.7429 0.0520 Uiso
C57 C 0.9341(9) 0.1599(9) 0.6984(7) 0.0844 Uani
H41 H 0.8582 0.1825 0.6528 0.1260 Uiso
H42 H 0.9443 0.2191 0.7372 0.1260 Uiso
C58 C 0.3168(8) 0.0695(9) 0.9788(7) 0.0747 Uani
H45 H 0.2262 0.0755 0.9934 0.1120 Uiso
C60 C 0.2886(10) 0.2827(9) 0.8641(8) 0.0981 Uani
H50 H 0.1972 0.2800 0.8764 0.1470 Uiso
H51 H 0.3286 0.3183 0.9140 0.1470 Uiso
H52 H 0.3037 0.3319 0.7912 0.1470 Uiso
N3 N 0.9214(6) 0.0424(7) 0.7726(6) 0.0683 Uani
N4 N 0.3438(6) 0.1573(6) 0.8802(5) 0.0564 Uani
O15 O 0.7232(4) 0.0178(3) 0.7079(3) 0.0305 Uani
O16 O 0.4697(4) 0.0275(3) 0.8145(3) 0.0301 Uani
H8 H 0.9914 0.8419 0.3455 0.1260 Uiso
H17 H 0.9761 0.9675 0.0985 0.1310 Uiso
C47 C 0.7342(5) 0.9903(5) 0.4359(4) 0.0224 Uani
C48 C 0.8705(6) 0.9952(5) 0.4687(5) 0.0307 Uani
C49 C 0.9238(5) 0.9029(5) 0.5582(5) 0.0304 Uani
C50 C 0.8507(6) 0.8018(5) 0.6191(5) 0.0365 Uani
H35 H 0.7654 0.7968 0.5987 0.0440 Uiso
C51 C 0.9033(6) 0.7135(6) 0.7056(6) 0.0478 Uani
H36 H 0.8547 0.6483 0.7434 0.0570 Uiso
C55 C 0.8151(8) 0.9794(7) 0.7666(6) 0.0546 Uani
H39 H 0.8134 0.8991 0.8122 0.0650 Uiso
H46 H 0.3398 0.9884 0.9741 0.1120 Uiso
H9 H 0.6340 0.9154 0.9638 0.1120 Uiso
H44 H 0.3660 0.0846 0.0362 0.1120 Uiso
loop_
_atom_site_aniso_label
_atom_site_aniso_U_11
_atom_site_aniso_U_22
_atom_site_aniso_U_33
_atom_site_aniso_U_23
_atom_site_aniso_U_13
_atom_site_aniso_U_12
Gd1 0.02097 0.01172 0.01767 -0.003 0.0012 -0.00102
C1 0.034 0.016 0.023 -0.006 0.004 -0.004
C3 0.017 0.022 0.03 -0.01 0.003 -0.005
C4 0.029 0.026 0.023 0.002 -0.002 0.002
C6 0.032 0.029 0.034 -0.014 0.004 0.001
C7 0.064 0.054 0.05 -0.02 0.019 -0.015
C9 0.04 0.029 0.038 -0.004 -0.003 -0.001
C11 0.025 0.034 0.033 -0.011 0.003 -0.002
C12 0.059 0.037 0.031 -0.006 0.012 0
C14 0.026 0.036 0.045 -0.008 -0.001 -0.001
C17 0.097 0.045 0.032 -0.004 0.012 0.013
C19 0.034 0.036 0.058 0.011 0.001 -0.007
C22 0.093 0.038 0.043 0.001 0.02 0.023
C25 0.09 0.027 0.034 -0.004 0.01 0.009
C28 0.048 0.026 0.039 -0.006 0.001 -0.004
O1 0.027 0.0199 0.024 -0.0026 -0.0026 -0.002
O6 0.026 0.0213 0.031 0.0018 0.0025 -0.0042
O8 0.022 0.032 0.028 -0.0088 0.0046 -0.0021
O20 0.019 0.0156 0.0265 -0.0057 0.0032 -0.0018
O23 0.033 0.0128 0.0244 -0.0057 -0.0003 -0.0012
C31 0.034 0.016 0.023 -0.006 0.004 -0.004
C32 0.029 0.026 0.023 0.002 -0.002 0.002
C33 0.04 0.029 0.038 -0.004 -0.003 -0.001
C34 0.059 0.037 0.031 -0.006 0.012 0
C35 0.097 0.045 0.032 -0.004 0.012 0.013
C36 0.093 0.038 0.043 0.001 0.02 0.023
C37 0.09 0.027 0.034 -0.004 0.01 0.009
C38 0.048 0.026 0.039 -0.006 0.001 -0.004
O9 0.027 0.0199 0.024 -0.0026 -0.0026 -0.002
O10 0.026 0.0213 0.031 0.0018 0.0025 -0.0042
Gd7 0.02097 0.01172 0.01767 -0.003 0.0012 -0.00102
C2 0.021 0.016 0.022 -0.007 0.002 -0.004
C5 0.03 0.012 0.015 -0.0009 -0.003 0.002
C8 0.054 0.043 0.036 -0.018 -0.003 0.009
C10 0.023 0.022 0.035 -0.013 0.001 -0.002
C13 0.037 0.028 0.113 -0.04 0.018 -0.004
C15 0.093 0.104 0.067 -0.05 -0.03 0.047
C16 0.053 0.126 0.063 -0.054 0.021 -0.014
C18 0.034 0.057 0.211 -0.081 0.042 -0.011
C21 0.097 0.108 0.114 -0.081 -0.035 0.059
C23 0.032 0.057 0.21 -0.075 0.046 -0.022
C26 0.038 0.038 0.103 -0.043 0.022 -0.016
C29 0.028 0.022 0.041 -0.012 0.001 -0.001
N1 0.04 0.095 0.089 -0.053 0.019 -0.028
N2 0.054 0.078 0.05 -0.042 -0.007 0.017
O2 0.035 0.0133 0.0219 -0.0038 0.0016 0.0001
O3 0.019 0.0156 0.0265 -0.0057 0.0032 -0.0018
O4 0.028 0.031 0.033 -0.0107 -0.0088 0.0002
O5 0.041 0.026 0.025 -0.0106 0.0008 0.0017
O7 0.033 0.0128 0.0244 -0.0057 -0.0003 -0.0012
C39 0.021 0.016 0.022 -0.007 0.002 -0.004
C40 0.03 0.012 0.015 -0.0009 -0.003 0.002
C41 0.023 0.022 0.035 -0.013 0.001 -0.002
C42 0.037 0.028 0.113 -0.04 0.018 -0.004
C43 0.034 0.057 0.211 -0.081 0.042 -0.011
C44 0.032 0.057 0.21 -0.075 0.046 -0.022
C45 0.038 0.038 0.103 -0.043 0.022 -0.016
C46 0.028 0.022 0.041 -0.012 0.001 -0.001
O11 0.035 0.0133 0.0219 -0.0038 0.0016 0.0001
C52 0.03 0.044 0.051 0.012 -0.004 0
C53 0.03 0.038 0.035 -0.004 -0.002 -0.004
C54 0.031 0.036 0.026 -0.005 0.003 0
C59 0.066 0.128 0.082 -0.047 0.002 -0.024
O25 0.022 0.032 0.028 -0.0088 0.0046 -0.0021
C20 0.066 0.128 0.082 -0.047 0.002 -0.024
C24 0.03 0.044 0.051 0.012 -0.004 0
C27 0.03 0.038 0.035 -0.004 -0.002 -0.004
C30 0.031 0.036 0.026 -0.005 0.003 0
C56 0.054 0.043 0.036 -0.018 -0.003 0.009
C57 0.093 0.104 0.067 -0.05 -0.03 0.047
C58 0.053 0.126 0.063 -0.054 0.021 -0.014
C60 0.097 0.108 0.114 -0.081 -0.035 0.059
N3 0.04 0.095 0.089 -0.053 0.019 -0.028
N4 0.054 0.078 0.05 -0.042 -0.007 0.017
O15 0.028 0.031 0.033 -0.0107 -0.0088 0.0002
O16 0.041 0.026 0.025 -0.0106 0.0008 0.0017
C47 0.017 0.022 0.03 -0.01 0.003 -0.005
C48 0.032 0.029 0.034 -0.014 0.004 0.001
C49 0.025 0.034 0.033 -0.011 0.003 -0.002
C50 0.026 0.036 0.045 -0.008 -0.001 -0.001
C51 0.034 0.036 0.058 0.011 0.001 -0.007
C55 0.064 0.054 0.05 -0.02 0.019 -0.015
loop_
_geom_bond_atom_site_label_1
_geom_bond_atom_site_label_2
_geom_bond_site_symmetry_1
_geom_bond_site_symmetry_2
Gd1 O1 1_555 1_555
C1 C4 1_555 1_555
C3 C6 1_555 1_555
C4 C9 1_555 1_555
C6 C11 1_555 1_555
C7 H1 1_555 1_555
C9 C12 1_555 1_555
C11 C14 1_555 1_555
C12 H3 1_555 1_555
C14 H5 1_555 1_555
C17 C12 1_555 1_555
H12 C17 1_555 1_555
C19 C14 1_555 1_555
H14 C19 1_555 1_555
C22 C17 1_555 1_555
H21 C22 1_555 1_555
C25 C22 1_555 1_555
C28 C9 1_555 1_555
O1 C1 1_555 1_555
O6 Gd1 1_555 1_555
O8 C3 1_555 1_555
O20 Gd1 1_555 1_555
O23 Gd1 1_555 1_555
C1 O6 1_555 1_555
C25 C28 1_555 1_555
C31 C32 1_555 1_555
C33 C32 1_555 1_555
C34 C33 1_555 1_555
H27 C34 1_555 1_555
C35 C34 1_555 1_555
H28 C35 1_555 1_555
C36 C35 1_555 1_555
H29 C36 1_555 1_555
C37 C36 1_555 1_555
O9 C31 1_555 1_555
O10 C31 1_555 1_555
Gd7 O9 1_555 1_555
C33 C38 1_555 1_555
C37 C38 1_555 1_555
O10 Gd7 1_555 1_555
C2 C5 1_555 1_555
C5 C10 1_555 1_555
C8 H2 1_555 1_555
C10 C13 1_555 1_555
C13 H4 1_555 1_555
C15 H6 1_555 1_555
H7 C15 1_555 1_555
H10 C16 1_555 1_555
C18 C13 1_555 1_555
H13 C18 1_555 1_555
C21 H18 1_555 1_555
H19 C21 1_555 1_555
H20 C21 1_555 1_555
C23 C18 1_555 1_555
H22 C23 1_555 1_555
C26 C23 1_555 1_555
H25 C26 1_555 1_555
C29 C10 1_555 1_555
N2 C8 1_555 1_555
O7 C2 1_555 1_555
C39 C40 1_555 1_555
C40 C29 1_555 1_555
C41 C40 1_555 1_555
C42 C41 1_555 1_555
H31 C42 1_555 1_555
C43 C42 1_555 1_555
H32 C43 1_555 1_555
C44 C43 1_555 1_555
H33 C44 1_555 1_555
C45 C44 1_555 1_555
H34 C45 1_555 1_555
C46 C5 1_555 1_555
O11 C39 1_555 1_555
O23 C39 1_555 1_555
H37 C52 1_555 1_555
C53 C52 1_555 1_555
H38 C53 1_555 1_555
C59 H47 1_555 1_555
H48 C59 1_555 1_555
Gd7 O3 1_555 1_555
C2 O2 1_555 1_555
C8 O5 1_555 1_555
C15 N1 1_555 1_555
C16 N2 1_555 1_555
C21 N2 1_555 1_555
C26 C29 1_555 1_555
O7 Gd7 1_555 1_555
C41 C46 1_555 1_555
C45 C46 1_555 1_555
C53 C54 1_555 1_555
C20 H15 1_555 1_555
H16 C20 1_555 1_555
H23 C24 1_555 1_555
C27 C24 1_555 1_555
H26 C27 1_555 1_555
C56 H40 1_555 1_555
C57 H41 1_555 1_555
H42 C57 1_555 1_555
H45 C58 1_555 1_555
C60 H50 1_555 1_555
H51 C60 1_555 1_555
H52 C60 1_555 1_555
N4 C56 1_555 1_555
C27 C30 1_555 1_555
C56 O16 1_555 1_555
C57 N3 1_555 1_555
C58 N4 1_555 1_555
C60 N4 1_555 1_555
C47 C48 1_555 1_555
C49 C48 1_555 1_555
C50 C49 1_555 1_555
H35 C50 1_555 1_555
C51 C50 1_555 1_555
H36 C51 1_555 1_555
O25 C47 1_555 1_555
C55 H39 1_555 1_555

#END
