
###############################################################################
#
# This file contains modified crystal structure data generated from the
# MOF subset of the Cambridge Structural Database (CSD) v543 
# hosted by the Cambridge Crystallographic Data Centre (CCDC).
#
# This work is licensed under the Creative Commons
# Attribution-NonCommercial-ShareAlike 4.0 International License.
# To view a copy of this license, visit
# http://creativecommons.org/licenses/by-nc-sa/4.0/
# or send a letter to
# Creative Commons, PO Box 1866, Mountain View, CA 94042, USA.
#
# CIF created using the CSD Python API on 29 September 2022
# The structure has been converted into the P1 space group
# The structure has a 3D framework
# The original CSD entry RUTVUA is in the trigonal crystal system
# The original CSD entry RUTVUA is in a Sohncke space group
# The framework has been calculated to contain at least 10.0% void space
# The void calculation uses a probe of radius 1.32A, grid spacing 0.4
#
###############################################################################

data_RUTVUA
_chemical_formula_moiety         '(C30 H12 Mg2 O18)n'
_symmetry_cell_setting           triclinic
_symmetry_space_group_name_H-M   'P 1'
_symmetry_Int_Tables_number      1
_space_group_name_Hall           'P 1'
loop_
_symmetry_equiv_pos_site_id
_symmetry_equiv_pos_as_xyz
1 x,y,z
_cell_length_a                   8.860131(50)
_cell_length_b                   8.860131(50)
_cell_length_c                   10.87422(10)
_cell_angle_alpha                90
_cell_angle_beta                 90
_cell_angle_gamma                120
_cell_volume                     739.28
loop_
_atom_site_label
_atom_site_type_symbol
_atom_site_fract_x
_atom_site_fract_y
_atom_site_fract_z
_atom_site_U_iso_or_equiv
_atom_site_thermal_displace_type
O8 O 0.18105(33) 0.21258(37) 0.10007(23) 0.0160 Uiso
O9 O 0.10061(40) -0.00000(57) 0.333333 0.0160 Uiso
Mg1 Mg -0 0.97701(27) 0.166667 0.0160 Uiso
O6 O 0.19461(39) 0.89053(57) 0.13663(27) 0.0160 Uiso
O9_2 O 0.10061(40) 1.00000(57) 0.333333 0.0160 Uiso
O7 O 0.81895(33) 0.03153(50) 0.23326(23) 0.0160 Uiso
Mg4 Mg 0.97701(27) -0 0.833334 0.0160 Uiso
Mg1_2 Mg 1 0.97701(27) 0.166667 0.0160 Uiso
O1 O 0.80539(39) 0.69592(41) 0.19670(27) 0.0160 Uiso
O3 O 0.89939(40) 0.89939(40) 0.000 0.0160 Uiso
C1 C 0.74753(33) 0.74753(33) 0.000 0.0160 Uiso
C2 C 0.52134(57) 0.49127(48) 0.10573(24) 0.0160 Uiso
C3 C 0.26304(33) 0.26304(33) 0.000 0.0160 Uiso
C4 C 0.68830(33) 0.64347(49) 0.10613(27) 0.0160 Uiso
C5 C 0.43284(28) 0.43284(28) 0.000 0.0160 Uiso
H1 H 0.77175 0.65266 0.266 0.0507 Uiso
H2 H 0.48972 0.40025 0.16501 0.0507 Uiso
O3_2 O 0.89939(40) 0.89939(40) 1.000 0.0160 Uiso
C1_2 C 0.74753(33) 0.74753(33) 1.000 0.0160 Uiso
C3_2 C 0.26304(33) 0.26304(33) 1.000 0.0160 Uiso
C5_2 C 0.43284(28) 0.43284(28) 1.000 0.0160 Uiso
O4 O 0.69592(41) 0.80539(39) 0.80330(27) 0.0160 Uiso
O5 O 0.21258(37) 0.18105(33) 0.89993(23) 0.0160 Uiso
C6 C 0.49127(48) 0.52134(57) 0.89427(24) 0.0160 Uiso
C7 C 0.64347(49) 0.68830(33) 0.89387(27) 0.0160 Uiso
H3 H 0.65266 0.77175 0.734 0.0507 Uiso
H4 H 0.40025 0.48972 0.83499 0.0507 Uiso
Mg4_2 Mg 0.97701(27) 1 0.833334 0.0160 Uiso
Mg3 Mg 0.02299(27) 0.02299(27) 0.500000 0.0160 Uiso
C1_3 C 0.25247(33) 0.00000(47) 0.333333 0.0160 Uiso
C3_3 C 0.73696(33) -0.00000(47) 0.333333 0.0160 Uiso
C5_3 C 0.56716(28) 0.00000(40) 0.333333 0.0160 Uiso
O4_2 O 0.30408(41) 0.10947(57) 0.53003(27) 0.0160 Uiso
C6_2 C 0.50873(48) 0.03007(75) 0.43906(24) 0.0160 Uiso
C7_2 C 0.35653(49) 0.04483(59) 0.43946(27) 0.0160 Uiso
H3_2 H 0.34734 0.11909 0.599333 0.0507 Uiso
H4_2 H 0.59975 0.08947 0.49834 0.0507 Uiso
C1_4 C 0.25247(33) 1.00000(47) 0.333333 0.0160 Uiso
C2_2 C 0.47866(57) 0.96993(75) 0.22760(24) 0.0160 Uiso
C3_4 C 0.73696(33) 1.00000(47) 0.333333 0.0160 Uiso
C4_2 C 0.31170(33) 0.95517(59) 0.22720(27) 0.0160 Uiso
C5_4 C 0.56716(28) 1.00000(40) 0.333333 0.0160 Uiso
H1_2 H 0.22825 0.88091 0.067333 0.0507 Uiso
H2_2 H 0.51028 0.91053 0.16832 0.0507 Uiso
O5_2 O 0.78742(37) 0.96847(50) 0.43340(23) 0.0160 Uiso
O2 O 0.03153(50) 0.81895(33) 0.76674(23) 0.0160 Uiso
O3_3 O -0.00000(57) 0.10061(40) 0.666667 0.0160 Uiso
C1_5 C -0.00000(47) 0.25247(33) 0.666667 0.0160 Uiso
C3_5 C -0.00000(47) 0.73696(33) 0.666667 0.0160 Uiso
C5_5 C 0.00000(40) 0.56716(28) 0.666667 0.0160 Uiso
O4_3 O 0.10947(57) 0.30408(41) 0.46997(27) 0.0160 Uiso
C6_3 C 0.03007(75) 0.50873(48) 0.56094(24) 0.0160 Uiso
C7_3 C 0.04483(59) 0.35653(49) 0.56054(27) 0.0160 Uiso
H3_3 H 0.11909 0.34734 0.400667 0.0507 Uiso
H4_3 H 0.08947 0.59975 0.50166 0.0507 Uiso
O1_2 O 0.89053(57) 0.19461(39) 0.86337(27) 0.0160 Uiso
O3_4 O 1.00000(57) 0.10061(40) 0.666667 0.0160 Uiso
C1_6 C 1.00000(47) 0.25247(33) 0.666667 0.0160 Uiso
C2_3 C 0.96993(75) 0.47866(57) 0.77240(24) 0.0160 Uiso
C3_6 C 1.00000(47) 0.73696(33) 0.666667 0.0160 Uiso
C4_3 C 0.95517(59) 0.31170(33) 0.77280(27) 0.0160 Uiso
C5_6 C 1.00000(40) 0.56716(28) 0.666667 0.0160 Uiso
H1_3 H 0.88091 0.22825 0.932667 0.0507 Uiso
H2_3 H 0.91053 0.51028 0.83168 0.0507 Uiso
O5_3 O 0.96847(50) 0.78742(37) 0.56660(23) 0.0160 Uiso
loop_
_geom_bond_atom_site_label_1
_geom_bond_atom_site_label_2
_geom_bond_site_symmetry_1
_geom_bond_site_symmetry_2
O6 Mg1 1_555 1_555
O9_2 Mg1 1_555 1_555
Mg1_2 O1 1_555 1_555
O1 C4 1_555 1_555
O8 C3 1_555 1_555
O3 Mg1_2 1_555 1_555
C1 O3 1_555 1_555
C2 C4 1_555 1_555
C3 C5 1_555 1_555
C4 C1 1_555 1_555
C5 C2 1_555 1_555
H1 O1 1_555 1_555
H2 C2 1_555 1_555
C1_2 O3_2 1_555 1_555
C3_2 C5_2 1_555 1_555
O4 C7 1_555 1_555
O5 C3_2 1_555 1_555
C6 C5_2 1_555 1_555
C7 C1_2 1_555 1_555
H3 O4 1_555 1_555
H4 C6 1_555 1_555
Mg4_2 O3_2 1_555 1_555
O4 Mg4_2 1_555 1_555
C6 C7 1_555 1_555
O7 C3_3 1_555 1_555
C1_3 O9 1_555 1_555
C3_3 C5_3 1_555 1_555
O4_2 C7_2 1_555 1_555
C6_2 C5_3 1_555 1_555
C7_2 C1_3 1_555 1_555
H3_2 O4_2 1_555 1_555
H4_2 C6_2 1_555 1_555
Mg3 O9 1_555 1_555
O4_2 Mg3 1_555 1_555
C6_2 C7_2 1_555 1_555
O6 C4_2 1_555 1_555
C1_4 O9_2 1_555 1_555
C2_2 C4_2 1_555 1_555
C3_4 C5_4 1_555 1_555
C4_2 C1_4 1_555 1_555
C5_4 C2_2 1_555 1_555
H1_2 O6 1_555 1_555
H2_2 C2_2 1_555 1_555
O5_2 C3_4 1_555 1_555
O2 C3_5 1_555 1_555
C1_5 O3_3 1_555 1_555
C3_5 C5_5 1_555 1_555
O4_3 C7_3 1_555 1_555
C6_3 C5_5 1_555 1_555
C7_3 C1_5 1_555 1_555
H3_3 O4_3 1_555 1_555
H4_3 C6_3 1_555 1_555
Mg3 O3_3 1_555 1_555
O4_3 Mg3 1_555 1_555
C6_3 C7_3 1_555 1_555
Mg4 O1_2 1_555 1_555
O1_2 C4_3 1_555 1_555
O3_4 Mg4 1_555 1_555
C1_6 O3_4 1_555 1_555
C2_3 C4_3 1_555 1_555
C3_6 C5_6 1_555 1_555
C4_3 C1_6 1_555 1_555
C5_6 C2_3 1_555 1_555
H1_3 O1_2 1_555 1_555
H2_3 C2_3 1_555 1_555
O5_3 C3_6 1_555 1_555

#END
