
###############################################################################
#
# This file contains modified crystal structure data generated from the
# MOF subset of the Cambridge Structural Database (CSD) v543 
# hosted by the Cambridge Crystallographic Data Centre (CCDC).
#
# This work is licensed under the Creative Commons
# Attribution-NonCommercial-ShareAlike 4.0 International License.
# To view a copy of this license, visit
# http://creativecommons.org/licenses/by-nc-sa/4.0/
# or send a letter to
# Creative Commons, PO Box 1866, Mountain View, CA 94042, USA.
#
# CIF created using the CSD Python API on 29 September 2022
# The structure has been converted into the P1 space group
# The structure has a 3D framework
# The original CSD entry RUVBER is in the orthorhombic crystal system
# The framework has been calculated to contain at least 10.0% void space
# The void calculation uses a probe of radius 1.32A, grid spacing 0.4
#
###############################################################################

data_RUVBER
_chemical_formula_moiety         '(C36 H24 Cd3 N12 O8)n'
_symmetry_cell_setting           triclinic
_symmetry_space_group_name_H-M   'P 1'
_symmetry_Int_Tables_number      1
_space_group_name_Hall           'P 1'
loop_
_symmetry_equiv_pos_site_id
_symmetry_equiv_pos_as_xyz
1 x,y,z
_cell_length_a                   8.3848(17)
_cell_length_b                   14.808(3)
_cell_length_c                   11.494(2)
_cell_angle_alpha                90
_cell_angle_beta                 90
_cell_angle_gamma                90
_cell_volume                     1427.12
loop_
_atom_site_label
_atom_site_type_symbol
_atom_site_fract_x
_atom_site_fract_y
_atom_site_fract_z
C13 C 0.0264(5) 0.2345(5) 0.5411(7)
H9 H 0.0435 0.1895 0.4861
C14 C 0.1549(5) 0.2809(3) 0.5888(5)
H10 H 0.2580 0.2657 0.5664
C15 C 0.1319(5) 0.3489(3) 0.6685(4)
C18 C 0.2683(3) 0.4022(2) 0.7179(3)
O3 O 0.2404(2) 0.45887(16) 0.7957(2)
O4 O 0.4074(2) 0.38880(16) 0.6805(2)
Cd3 Cd 0.5000 0.5000 0.8207(2)
C4 C 0.9736(5) 0.7655(5) 0.5411(7)
H3 H 0.9565 0.8105 0.4861
C5 C 0.8451(5) 0.7191(3) 0.5888(5)
H4 H 0.7420 0.7343 0.5664
C6 C 0.8681(5) 0.6511(3) 0.6685(4)
C9 C 0.7317(3) 0.5978(2) 0.7179(3)
O1 O 0.7596(2) 0.54113(16) 0.7957(2)
O2 O 0.5926(2) 0.61120(16) 0.6805(2)
N1 N 0.4090(3) 0.61125(17) 0.9387(3)
N2 N 0.5024(3) 0.6823(5) 0.9696(10)
C2 C 0.2647(4) 0.6314(2) 0.9718(3)
H2 H 0.1762 0.5951 0.9583
N4 N 0.5910(3) 0.38875(17) 0.9387(3)
N5 N 0.4976(3) 0.3177(5) 0.9696(10)
C11 C 0.7353(4) 0.3686(2) 0.9718(3)
H8 H 0.8238 0.4049 0.9583
Cd1 Cd 0.5000 0.0000 0.3207(2)
N4_2 N 0.5910(3) 0.11125(17) 0.4387(3)
N5_2 N 0.4976(3) 0.1823(5) 0.4696(10)
N6 N 0.7406(3) 0.2098(2) 0.5269(3)
C10 C 0.5882(5) 0.2367(4) 0.5250(7)
H7 H 0.5522 0.2894 0.5603
C11_2 C 0.7353(4) 0.1314(2) 0.4718(3)
H8_2 H 0.8238 0.0951 0.4583
C12 C 0.8740(4) 0.2555(3) 0.5759(5)
C16 C 0.9787(4) 0.3700(4) 0.7029(5)
H11 H 0.9619 0.4162 0.7563
C17 C 0.8487(5) 0.3224(3) 0.6579(5)
H12 H 0.7458 0.3355 0.6829
O6 O 0.2404(2) 0.04113(16) 0.2957(2)
O8 O 0.4074(2) 0.11120(16) 0.1805(2)
C13_2 C 0.0264(5) 0.2655(5) 0.0411(7)
C14_2 C 0.1549(5) 0.2191(3) 0.0888(5)
H10_2 H 0.2580 0.2343 0.0664
C15_2 C 0.1319(5) 0.1511(3) 0.1685(4)
C18_2 C 0.2683(3) 0.0978(2) 0.2179(3)
Cd1_2 Cd 0.5000 1.0000 0.3207(2)
N1_2 N 0.4090(3) 0.88875(17) 0.4387(3)
N2_2 N 0.5024(3) 0.8177(5) 0.4696(10)
N3 N 0.2594(3) 0.7902(2) 0.5269(3)
C1 C 0.4118(5) 0.7633(4) 0.5250(7)
H1 H 0.4478 0.7106 0.5603
C2_2 C 0.2647(4) 0.8686(2) 0.4718(3)
H2_2 H 0.1762 0.9049 0.4583
C3 C 0.1260(4) 0.7445(3) 0.5759(5)
C7 C 0.0213(4) 0.6300(4) 0.7029(5)
H5 H 0.0381 0.5838 0.7563
C8 C 0.1513(5) 0.6776(3) 0.6579(5)
H6 H 0.2542 0.6645 0.6829
O5 O 0.7596(2) 0.95887(16) 0.2957(2)
O7 O 0.5926(2) 0.88880(16) 0.1805(2)
C4_2 C 0.9736(5) 0.7345(5) 0.0411(7)
C5_2 C 0.8451(5) 0.7809(3) 0.0888(5)
H4_2 H 0.7420 0.7657 0.0664
C6_2 C 0.8681(5) 0.8489(3) 0.1685(4)
C9_2 C 0.7317(3) 0.9022(2) 0.2179(3)
H9_2 H 0.0435 0.3105 0.9861
N3_2 N 0.2594(3) 0.7098(2) 0.0269(3)
C1_2 C 0.4118(5) 0.7367(4) 0.0250(7)
H1_2 H 0.4478 0.7894 0.0603
C3_2 C 0.1260(4) 0.7555(3) 0.0759(5)
C7_2 C 0.0213(4) 0.8700(4) 0.2029(5)
H5_2 H 0.0381 0.9162 0.2563
C8_2 C 0.1513(5) 0.8224(3) 0.1579(5)
H6_2 H 0.2542 0.8355 0.1829
N6_2 N 0.7406(3) 0.2902(2) 0.0269(3)
C10_2 C 0.5882(5) 0.2633(4) 0.0250(7)
H7_2 H 0.5522 0.2106 0.0603
C12_2 C 0.8740(4) 0.2445(3) 0.0759(5)
C16_2 C 0.9787(4) 0.1300(4) 0.2029(5)
H11_2 H 0.9619 0.0838 0.2563
C17_2 C 0.8487(5) 0.1776(3) 0.1579(5)
H12_2 H 0.7458 0.1645 0.1829
H3_2 H 0.9565 0.6895 0.9861
loop_
_geom_bond_atom_site_label_1
_geom_bond_atom_site_label_2
_geom_bond_site_symmetry_1
_geom_bond_site_symmetry_2
H9 C13 1_555 1_555
C14 C13 1_555 1_555
H10 C14 1_555 1_555
C15 C14 1_555 1_555
C18 C15 1_555 1_555
O3 C18 1_555 1_555
O4 C18 1_555 1_555
Cd3 O3 1_555 1_555
O4 Cd3 1_555 1_555
H3 C4 1_555 1_555
C5 C4 1_555 1_555
H4 C5 1_555 1_555
C6 C5 1_555 1_555
C9 C6 1_555 1_555
O1 C9 1_555 1_555
O2 C9 1_555 1_555
Cd3 O1 1_555 1_555
O2 Cd3 1_555 1_555
Cd3 N1 1_555 1_555
N1 N2 1_555 1_555
C2 N1 1_555 1_555
H2 C2 1_555 1_555
N4 Cd3 1_555 1_555
N5 N4 1_555 1_555
C11 N4 1_555 1_555
H8 C11 1_555 1_555
N4_2 Cd1 1_555 1_555
N5_2 N4_2 1_555 1_555
N6 C10 1_555 1_555
C10 N5_2 1_555 1_555
H7 C10 1_555 1_555
C11_2 N4_2 1_555 1_555
H8_2 C11_2 1_555 1_555
C12 N6 1_555 1_555
H11 C16 1_555 1_555
C17 C12 1_555 1_555
H12 C17 1_555 1_555
O6 Cd1 1_555 1_555
O8 Cd1 1_555 1_555
N6 C11_2 1_555 1_555
C16 C17 1_555 1_555
C14_2 C13_2 1_555 1_555
H10_2 C14_2 1_555 1_555
C15_2 C14_2 1_555 1_555
C18_2 C15_2 1_555 1_555
O6 C18_2 1_555 1_555
O8 C18_2 1_555 1_555
Cd1_2 N1_2 1_555 1_555
N1_2 N2_2 1_555 1_555
N2_2 C1 1_555 1_555
N3 C1 1_555 1_555
C1 H1 1_555 1_555
C2_2 N1_2 1_555 1_555
H2_2 C2_2 1_555 1_555
C3 N3 1_555 1_555
H5 C7 1_555 1_555
C8 C3 1_555 1_555
H6 C8 1_555 1_555
O5 Cd1_2 1_555 1_555
O7 Cd1_2 1_555 1_555
N3 C2_2 1_555 1_555
C7 C8 1_555 1_555
C5_2 C4_2 1_555 1_555
H4_2 C5_2 1_555 1_555
C6_2 C5_2 1_555 1_555
C9_2 C6_2 1_555 1_555
O5 C9_2 1_555 1_555
O7 C9_2 1_555 1_555
N3_2 C1_2 1_555 1_555
C1_2 H1_2 1_555 1_555
C3_2 N3_2 1_555 1_555
H5_2 C7_2 1_555 1_555
C8_2 C3_2 1_555 1_555
H6_2 C8_2 1_555 1_555
N6_2 C10_2 1_555 1_555
H7_2 C10_2 1_555 1_555
C12_2 N6_2 1_555 1_555
H11_2 C16_2 1_555 1_555
C17_2 C12_2 1_555 1_555
H12_2 C17_2 1_555 1_555
C7_2 C8_2 1_555 1_555
C16_2 C17_2 1_555 1_555

#END
