
###############################################################################
#
# This file contains modified crystal structure data generated from the
# MOF subset of the Cambridge Structural Database (CSD) v543 
# hosted by the Cambridge Crystallographic Data Centre (CCDC).
#
# This work is licensed under the Creative Commons
# Attribution-NonCommercial-ShareAlike 4.0 International License.
# To view a copy of this license, visit
# http://creativecommons.org/licenses/by-nc-sa/4.0/
# or send a letter to
# Creative Commons, PO Box 1866, Mountain View, CA 94042, USA.
#
# CIF created using the CSD Python API on 29 September 2022
# The structure has been converted into the P1 space group
# The structure has a 3D framework
# The original CSD entry RUVSOT is in the triclinic crystal system
# The framework has been calculated to contain at least 10.0% void space
# The void calculation uses a probe of radius 1.32A, grid spacing 0.4
#
###############################################################################

data_RUVSOT
_chemical_formula_moiety         '(C36 H24 N6 O7 Zn2)n'
_symmetry_cell_setting           triclinic
_symmetry_space_group_name_H-M   'P 1'
_symmetry_Int_Tables_number      1
_space_group_name_Hall           'P 1'
loop_
_symmetry_equiv_pos_site_id
_symmetry_equiv_pos_as_xyz
1 x,y,z
_cell_length_a                   8.2754(5)
_cell_length_b                   11.8367(7)
_cell_length_c                   12.1048(7)
_cell_angle_alpha                110.980(2)
_cell_angle_beta                 102.180(2)
_cell_angle_gamma                100.837(2)
_cell_volume                     1036.08
loop_
_atom_site_label
_atom_site_type_symbol
_atom_site_fract_x
_atom_site_fract_y
_atom_site_fract_z
_atom_site_U_iso_or_equiv
_atom_site_thermal_displace_type
C5 C 0.0993(7) 0.6242(5) 0.5452(6) 0.0495 Uani
H5 H 0.167281 0.707166 0.574782 0.0600 Uiso
N4 N 0.2823(4) 0.1619(3) 0.1922(3) 0.0293 Uani
N5 N 0.1881(5) 0.2491(4) 0.3450(3) 0.0324 Uani
N6 N 0.0593(5) 0.2244(4) 0.2409(4) 0.0427 Uani
C31 C 0.3181(5) 0.2100(4) 0.3145(4) 0.0315 Uani
H19 H 0.418845 0.215356 0.370104 0.0380 Uiso
C32 C 0.1233(6) 0.1717(5) 0.1525(4) 0.0352 Uani
H20 H 0.063756 0.143210 0.068805 0.0420 Uiso
C33 C 0.1621(7) 0.2980(5) 0.4683(4) 0.0422 Uani
H21 H 0.090347 0.229687 0.478335 0.0510 Uiso
H22 H 0.272789 0.329413 0.532030 0.0510 Uiso
C34 C 0.0776(6) 0.4027(4) 0.4851(4) 0.0365 Uani
C36 C 0.1765(7) 0.5271(5) 0.5315(5) 0.0492 Uani
H24 H 0.296236 0.546144 0.553943 0.0590 Uiso
Zn7 Zn 0.41955(5) 0.07483(4) 0.08649(4) 0.0206 Uani
O7 O 0.5992(4) 0.0523(3) 0.2128(3) 0.0412 Uani
C26 C 0.9270(5) 0.0207(4) 0.5095(4) 0.0316 Uani
C27 C 0.8084(5) 0.0235(4) 0.4074(4) 0.0317 Uani
H16 H 0.711992 0.050371 0.418353 0.0380 Uiso
C30 C 0.9031(6) 0.0581(5) 0.6280(4) 0.0375 Uani
H18 H 0.807211 0.084896 0.640531 0.0440 Uiso
C10 C 0.9642(6) 0.5543(4) 0.1560(4) 0.0348 Uani
H8 H 0.993692 0.628294 0.227695 0.0420 Uiso
O5 O 0.6052(4) 0.2225(3) 0.0973(3) 0.0393 Uani
C19 C 0.8223(5) 0.3307(4) 0.0430(4) 0.0283 Uani
C23 C 0.8666(6) 0.4446(4) 0.1506(4) 0.0334 Uani
H15 H 0.829175 0.444715 0.217921 0.0400 Uiso
C24 C 0.7074(5) 0.2113(4) 0.0335(4) 0.0302 Uani
O4 O 0.2793(4) 0.0619(3) 0.9197(3) 0.0396 Uani
C13 C 0.1660(6) 0.0125(4) 0.7063(4) 0.0321 Uani
C16 C 0.2922(5) 0.0075(4) 0.8131(4) 0.0308 Uani
C17 C 0.0211(6) 0.0551(5) 0.7252(4) 0.0382 Uani
H11 H 0.005630 0.081239 0.803398 0.0460 Uiso
O11 O 0.7218(4) 0.1079(3) 0.9622(3) 0.0379 Uani
O3 O 0.2782(4) 0.8921(3) 0.0378(3) 0.0379 Uani
C8 C 0.1210(5) 0.6706(4) 0.0562(4) 0.0301 Uani
H7 H 0.148092 0.746413 0.125501 0.0360 Uiso
C9 C 0.0213(5) 0.5576(4) 0.0546(4) 0.0271 Uani
O13 O 0.7207(4) 0.9381(3) 0.0803(3) 0.0396 Uani
C20 C 0.8790(5) 0.3294(4) 0.9438(4) 0.0301 Uani
H13 H 0.851908 0.253587 0.874499 0.0360 Uiso
C21 C 0.9787(5) 0.4424(4) 0.9454(4) 0.0271 Uani
C25 C 0.8340(6) 0.9875(4) 0.2937(4) 0.0321 Uani
C28 C 0.7078(5) 0.9925(4) 0.1869(4) 0.0308 Uani
C29 C 0.9789(6) 0.9449(5) 0.2748(4) 0.0382 Uani
H17 H 0.994370 0.918761 0.196602 0.0460 Uiso
Zn1 Zn 0.58045(5) 0.92517(4) 0.91351(4) 0.0206 Uani
O1 O 0.3948(4) 0.7775(3) 0.9027(3) 0.0393 Uani
O2 O 0.4008(4) 0.9477(3) 0.7872(3) 0.0412 Uani
N1 N 0.7177(4) 0.8381(3) 0.8078(3) 0.0293 Uani
N2 N 0.8119(5) 0.7509(4) 0.6550(3) 0.0324 Uani
N3 N 0.9407(5) 0.7756(4) 0.7591(4) 0.0427 Uani
C1 C 0.6819(5) 0.7900(4) 0.6855(4) 0.0315 Uani
H1 H 0.581155 0.784644 0.629896 0.0380 Uiso
C2 C 0.8767(6) 0.8283(5) 0.8475(4) 0.0352 Uani
H2 H 0.936244 0.856790 0.931195 0.0420 Uiso
C3 C 0.8379(7) 0.7020(5) 0.5317(4) 0.0422 Uani
H3 H 0.909653 0.770313 0.521665 0.0510 Uiso
H4 H 0.727211 0.670587 0.467970 0.0510 Uiso
C4 C 0.9224(6) 0.5973(4) 0.5149(4) 0.0365 Uani
C6 C 0.8235(7) 0.4729(5) 0.4685(5) 0.0492 Uani
H6 H 0.703764 0.453856 0.446057 0.0590 Uiso
C7 C 0.1777(5) 0.6693(4) 0.9570(4) 0.0283 Uani
C11 C 0.1334(6) 0.5554(4) 0.8494(4) 0.0334 Uani
H9 H 0.170825 0.555285 0.782079 0.0400 Uiso
C12 C 0.2926(5) 0.7887(4) 0.9665(4) 0.0302 Uani
C14 C 0.0730(5) 0.9793(4) 0.4905(4) 0.0316 Uani
C15 C 0.1916(5) 0.9765(4) 0.5926(4) 0.0317 Uani
H10 H 0.288008 0.949629 0.581647 0.0380 Uiso
C18 C 0.0969(6) 0.9419(5) 0.3720(4) 0.0375 Uani
H12 H 0.192789 0.915104 0.359469 0.0440 Uiso
C22 C 0.0358(6) 0.4457(4) 0.8440(4) 0.0348 Uani
H14 H 0.006308 0.371706 0.772305 0.0420 Uiso
C35 C 0.9007(7) 0.3758(5) 0.4548(6) 0.0495 Uani
H23 H 0.832719 0.292834 0.425218 0.0600 Uiso
loop_
_atom_site_aniso_label
_atom_site_aniso_U_11
_atom_site_aniso_U_22
_atom_site_aniso_U_33
_atom_site_aniso_U_23
_atom_site_aniso_U_13
_atom_site_aniso_U_12
C5 0.046 0.031 0.069 0.013 0.028 0.009
N4 0.0332 0.028 0.0264 0.0082 0.0129 0.01
N5 0.0372 0.0324 0.0275 0.0074 0.0155 0.0137
N6 0.041 0.05 0.037 0.013 0.0134 0.0214
C31 0.029 0.035 0.026 0.0054 0.0111 0.0105
C32 0.036 0.043 0.031 0.014 0.0128 0.021
C33 0.055 0.044 0.033 0.012 0.026 0.02
C34 0.046 0.038 0.031 0.009 0.026 0.019
C36 0.038 0.039 0.064 0.009 0.026 0.009
Zn7 0.0214 0.0209 0.0188 0.00727 0.00696 0.00555
O7 0.0372 0.053 0.0307 0.0186 -0.0002 0.0166
C26 0.031 0.033 0.027 0.0118 0.0025 0.0093
C27 0.032 0.036 0.03 0.0185 0.0064 0.0103
C30 0.041 0.048 0.032 0.02 0.0112 0.025
C10 0.038 0.027 0.033 0.0067 0.0157 0.001
O5 0.0346 0.0345 0.0469 0.0172 0.0169 0.0001
C19 0.0227 0.025 0.035 0.0109 0.0092 0.0047
C23 0.038 0.028 0.035 0.0143 0.0163 0.0031
C24 0.029 0.028 0.035 0.02 0.004 0.0041
O4 0.0477 0.0458 0.0215 0.015 -0.0001 0.0151
C13 0.035 0.031 0.026 0.0133 -0.0016 0.0091
C16 0.03 0.03 0.028 0.0162 -0.0006 0.0011
C17 0.043 0.047 0.023 0.014 0.0057 0.015
O11 0.0405 0.0217 0.0479 0.0146 0.013 0.0012
O3 0.0405 0.0217 0.0479 0.0146 0.013 0.0012
C8 0.034 0.0208 0.028 0.0046 0.0084 0.0034
C9 0.0259 0.022 0.029 0.0072 0.0092 0.0026
O13 0.0477 0.0458 0.0215 0.015 -0.0001 0.0151
C20 0.034 0.0208 0.028 0.0046 0.0084 0.0034
C21 0.0259 0.022 0.029 0.0072 0.0092 0.0026
C25 0.035 0.031 0.026 0.0133 -0.0016 0.0091
C28 0.03 0.03 0.028 0.0162 -0.0006 0.0011
C29 0.043 0.047 0.023 0.014 0.0057 0.015
Zn1 0.0214 0.0209 0.0188 0.00727 0.00696 0.00555
O1 0.0346 0.0345 0.0469 0.0172 0.0169 0.0001
O2 0.0372 0.053 0.0307 0.0186 -0.0002 0.0166
N1 0.0332 0.028 0.0264 0.0082 0.0129 0.01
N2 0.0372 0.0324 0.0275 0.0074 0.0155 0.0137
N3 0.041 0.05 0.037 0.013 0.0134 0.0214
C1 0.029 0.035 0.026 0.0054 0.0111 0.0105
C2 0.036 0.043 0.031 0.014 0.0128 0.021
C3 0.055 0.044 0.033 0.012 0.026 0.02
C4 0.046 0.038 0.031 0.009 0.026 0.019
C6 0.038 0.039 0.064 0.009 0.026 0.009
C7 0.0227 0.025 0.035 0.0109 0.0092 0.0047
C11 0.038 0.028 0.035 0.0143 0.0163 0.0031
C12 0.029 0.028 0.035 0.02 0.004 0.0041
C14 0.031 0.033 0.027 0.0118 0.0025 0.0093
C15 0.032 0.036 0.03 0.0185 0.0064 0.0103
C18 0.041 0.048 0.032 0.02 0.0112 0.025
C22 0.038 0.027 0.033 0.0067 0.0157 0.001
C35 0.046 0.031 0.069 0.013 0.028 0.009
loop_
_geom_bond_atom_site_label_1
_geom_bond_atom_site_label_2
_geom_bond_site_symmetry_1
_geom_bond_site_symmetry_2
H5 C5 1_555 1_555
N4 C31 1_555 1_555
N5 N6 1_555 1_555
N6 C32 1_555 1_555
C31 N5 1_555 1_555
H19 C31 1_555 1_555
C32 N4 1_555 1_555
H20 C32 1_555 1_555
C33 N5 1_555 1_555
H21 C33 1_555 1_555
H22 C33 1_555 1_555
C34 C33 1_555 1_555
C36 C5 1_555 1_555
H24 C36 1_555 1_555
Zn7 N4 1_555 1_555
C34 C36 1_555 1_555
C27 C26 1_555 1_555
H16 C27 1_555 1_555
H18 C30 1_555 1_555
Zn7 O7 1_555 1_555
C26 C30 1_555 1_555
H8 C10 1_555 1_555
O5 C24 1_555 1_555
C23 C10 1_555 1_555
H15 C23 1_555 1_555
C24 C19 1_555 1_555
Zn7 O5 1_555 1_555
C19 C23 1_555 1_555
O4 C16 1_555 1_555
C17 C13 1_555 1_555
H11 C17 1_555 1_555
C13 C16 1_555 1_555
C8 H7 1_555 1_555
C9 C8 1_555 1_555
C20 H13 1_555 1_555
C28 C25 1_555 1_555
H17 C29 1_555 1_555
O13 C28 1_555 1_555
C20 C21 1_555 1_555
C25 C29 1_555 1_555
Zn1 O1 1_555 1_555
O1 C12 1_555 1_555
O2 Zn1 1_555 1_555
N1 Zn1 1_555 1_555
N2 N3 1_555 1_555
N3 C2 1_555 1_555
C1 N1 1_555 1_555
H1 C1 1_555 1_555
C2 N1 1_555 1_555
H2 C2 1_555 1_555
C3 N2 1_555 1_555
H3 C3 1_555 1_555
H4 C3 1_555 1_555
C4 C3 1_555 1_555
C6 C4 1_555 1_555
H6 C6 1_555 1_555
C11 C7 1_555 1_555
H9 C11 1_555 1_555
C12 C7 1_555 1_555
C14 C15 1_555 1_555
C15 H10 1_555 1_555
C18 C14 1_555 1_555
H12 C18 1_555 1_555
C22 C11 1_555 1_555
H14 C22 1_555 1_555
C35 C6 1_555 1_555
H23 C35 1_555 1_555
N2 C1 1_555 1_555

#END
