
###############################################################################
#
# This file contains modified crystal structure data generated from the
# MOF subset of the Cambridge Structural Database (CSD) v543 
# hosted by the Cambridge Crystallographic Data Centre (CCDC).
#
# This work is licensed under the Creative Commons
# Attribution-NonCommercial-ShareAlike 4.0 International License.
# To view a copy of this license, visit
# http://creativecommons.org/licenses/by-nc-sa/4.0/
# or send a letter to
# Creative Commons, PO Box 1866, Mountain View, CA 94042, USA.
#
# CIF created using the CSD Python API on 29 September 2022
# The structure has been converted into the P1 space group
# The structure has a 3D framework
# The original CSD entry RUWQUY is in the monoclinic crystal system
# The framework has been calculated to contain at least 10.0% void space
# The void calculation uses a probe of radius 1.32A, grid spacing 0.4
#
###############################################################################

data_RUWQUY
_chemical_formula_moiety         '(C104 H56 N36 O32 Zn16)n'
_symmetry_cell_setting           triclinic
_symmetry_space_group_name_H-M   'P 1'
_symmetry_Int_Tables_number      1
_space_group_name_Hall           'P 1'
loop_
_symmetry_equiv_pos_site_id
_symmetry_equiv_pos_as_xyz
1 x,y,z
_cell_length_a                   20.9318(2)
_cell_length_b                   11.21060(10)
_cell_length_c                   16.2437(2)
_cell_angle_alpha                90
_cell_angle_beta                 87.9970(10)
_cell_angle_gamma                90
_cell_volume                     3809.39
loop_
_atom_site_label
_atom_site_type_symbol
_atom_site_fract_x
_atom_site_fract_y
_atom_site_fract_z
Zn6 Zn 0.23936(2) 0.01937(2) 0.55222(2)
Zn1 Zn 0.24356(2) 0.79342(2) 0.35136(2)
Zn2 Zn 0.26064(2) 0.51937(2) 0.44778(2)
O1 O 0.21694(6) 0.70425(10) 0.45684(8)
O2 O 0.19907(6) 0.85110(11) 0.54871(8)
O3 O 0.21287(6) 0.52787(10) 0.84695(8)
O4 O 0.23336(5) 0.36051(11) 0.77443(7)
N1 N 0.23062(7) 0.54064(13) 0.56677(9)
N2 N 0.23400(7) 0.46934(12) 0.63224(9)
N3 N 0.33440(7) 0.72059(12) 0.37583(9)
N4 N 0.33769(7) 0.60487(13) 0.40366(9)
N5 N 0.64138(7) 0.68140(13) 0.34154(9)
C1 C 0.20934(8) 0.74496(15) 0.52959(11)
C2 C 0.21386(8) 0.65141(15) 0.59357(11)
C3 C 0.20665(8) 0.65238(15) 0.67864(11)
H1 H 0.1959 0.7163 0.7129
C4 C 0.21931(8) 0.53477(15) 0.70062(11)
C5 C 0.22197(8) 0.47115(14) 0.78036(11)
C6 C 0.39379(8) 0.75571(16) 0.35667(11)
H2 H 0.4048 0.8310 0.3368
C7 C 0.43760(8) 0.66384(16) 0.37054(12)
C8 C 0.39902(8) 0.57056(16) 0.39997(12)
H3 H 0.4137 0.4956 0.4148
C9 C 0.50696(8) 0.66801(16) 0.35916(11)
C10 C 0.54478(10) 0.56650(19) 0.34981(18)
H4 H 0.5259 0.4915 0.3492
C11 C 0.61089(9) 0.57735(18) 0.34132(16)
H5 H 0.6351 0.5081 0.3352
C12 C 0.60457(9) 0.77912(16) 0.34872(13)
H6 H 0.6247 0.8531 0.3483
C13 C 0.53882(9) 0.77649(17) 0.35671(13)
H7 H 0.5158 0.8474 0.3605
Zn3 Zn 0.25644(2) 0.29342(2) 0.64864(2)
Zn4 Zn 0.24356(2) 0.20658(2) 0.85136(2)
Zn5 Zn 0.74356(2) 0.70658(2) 0.35136(2)
Zn7 Zn 0.26064(2) 0.48063(2) 0.94778(2)
O5 O 0.30093(6) 0.35110(11) 0.45129(8)
O6 O 0.21287(6) 0.47213(10) 0.34695(8)
O7 O 0.26664(5) 0.86051(11) 0.22557(7)
O8 O 0.23336(5) 0.63949(11) 0.27443(7)
N6 N 0.26600(7) 0.96934(12) 0.36776(9)
N7 N 0.14138(7) 0.81860(13) 0.34154(9)
Zn6_2 Zn 0.76064(2) 0.01937(2) 0.94778(2)
Zn1_2 Zn 0.75644(2) 0.79342(2) 0.14864(2)
Zn2_2 Zn 0.73936(2) 0.51937(2) 0.05222(2)
O1_2 O 0.78306(6) 0.70425(10) 0.04316(8)
N3_2 N 0.66560(7) 0.72059(12) 0.12417(9)
N4_2 N 0.66231(7) 0.60487(13) 0.09634(9)
N5_2 N 0.35862(7) 0.68140(13) 0.15846(9)
C6_2 C 0.60621(8) 0.75571(16) 0.14333(11)
H2_2 H 0.5952 0.8310 0.1632
C7_2 C 0.56240(8) 0.66384(16) 0.12946(12)
C8_2 C 0.60098(8) 0.57056(16) 0.10003(12)
H3_2 H 0.5863 0.4956 0.0852
C9_2 C 0.49304(8) 0.66801(16) 0.14084(11)
C10_2 C 0.45522(10) 0.56650(19) 0.15019(18)
H4_2 H 0.4741 0.4915 0.1508
C11_2 C 0.38911(9) 0.57735(18) 0.15868(16)
H5_2 H 0.3649 0.5081 0.1648
C12_2 C 0.39543(9) 0.77912(16) 0.15128(13)
H6_2 H 0.3753 0.8531 0.1517
C13_2 C 0.46118(9) 0.77649(17) 0.14329(13)
H7_2 H 0.4842 0.8474 0.1395
Zn5_2 Zn 0.25644(2) 0.70658(2) 0.14864(2)
O5_2 O 0.69907(6) 0.35110(11) 0.04871(8)
O6_2 O 0.78713(6) 0.47213(10) 0.15305(8)
O7_2 O 0.73336(5) 0.86051(11) 0.27443(7)
O8_2 O 0.76664(5) 0.63949(11) 0.22557(7)
N6_2 N 0.73400(7) 0.96934(12) 0.13224(9)
N7_2 N 0.85862(7) 0.81860(13) 0.15846(9)
O2_2 O 0.80093(6) 0.85110(11) 0.95129(8)
O3_2 O 0.78713(6) 0.52787(10) 0.65305(8)
O4_2 O 0.76664(5) 0.36051(11) 0.72557(7)
N1_2 N 0.76938(7) 0.54064(13) 0.93323(9)
N2_2 N 0.76600(7) 0.46934(12) 0.86776(9)
C1_2 C 0.79066(8) 0.74496(15) 0.97041(11)
C2_2 C 0.78614(8) 0.65141(15) 0.90643(11)
C3_2 C 0.79335(8) 0.65238(15) 0.82136(11)
H1_2 H 0.8041 0.7163 0.7871
C4_2 C 0.78069(8) 0.53477(15) 0.79938(11)
C5_2 C 0.77803(8) 0.47115(14) 0.71964(11)
Zn3_2 Zn 0.74356(2) 0.29342(2) 0.85136(2)
Zn4_2 Zn 0.75644(2) 0.20658(2) 0.64864(2)
Zn7_2 Zn 0.73936(2) 0.48063(2) 0.55222(2)
N5_3 N 0.14138(7) 0.18140(13) 0.84154(9)
C9_3 C 0.00696(8) 0.16801(16) 0.85916(11)
C10_3 C 0.04478(10) 0.06650(19) 0.84981(18)
C11_3 C 0.11089(9) 0.07735(18) 0.84132(16)
H5_3 H 0.1351 0.0081 0.8352
C12_3 C 0.10457(9) 0.27912(16) 0.84872(13)
H6_3 H 0.1247 0.3531 0.8483
C13_3 C 0.03882(9) 0.27649(17) 0.85671(13)
H7_3 H 0.0158 0.3474 0.8605
O3_3 O 0.71287(6) 0.02787(10) 0.34695(8)
N1_3 N 0.73062(7) 0.04064(13) 0.06677(9)
C1_3 C 0.70934(8) 0.24496(15) 0.02959(11)
C2_3 C 0.71386(8) 0.15141(15) 0.09357(11)
C3_3 C 0.70665(8) 0.15238(15) 0.17864(11)
H1_3 H 0.6959 0.2163 0.2129
C4_3 C 0.71931(8) 0.03477(15) 0.20062(11)
O1_3 O 0.71694(6) 0.20425(10) 0.95684(8)
N3_3 N 0.83440(7) 0.22059(12) 0.87583(9)
N4_3 N 0.83769(7) 0.10487(13) 0.90366(9)
C6_3 C 0.89379(8) 0.25571(16) 0.85667(11)
H2_3 H 0.9048 0.3310 0.8368
C7_3 C 0.93760(8) 0.16384(16) 0.87054(12)
C8_3 C 0.89902(8) 0.07056(16) 0.89997(12)
O8_3 O 0.73336(5) 0.13949(11) 0.77443(7)
N7_3 N 0.64138(7) 0.31860(13) 0.84154(9)
C5_3 C 0.72197(8) 0.97115(14) 0.28036(11)
Zn7_3 Zn 0.76064(2) 0.98063(2) 0.44778(2)
H3_3 H 0.9137 0.9956 0.9148
O6_3 O 0.71287(6) 0.97213(10) 0.84695(8)
O1_4 O 0.28306(6) 0.20425(10) 0.54316(8)
O3_4 O 0.28713(6) 0.02787(10) 0.15305(8)
N1_4 N 0.26938(7) 0.04064(13) 0.43323(9)
N3_4 N 0.16560(7) 0.22059(12) 0.62417(9)
N4_4 N 0.16231(7) 0.10487(13) 0.59634(9)
C1_4 C 0.29066(8) 0.24496(15) 0.47041(11)
C2_4 C 0.28614(8) 0.15141(15) 0.40643(11)
C3_4 C 0.29335(8) 0.15238(15) 0.32136(11)
H1_4 H 0.3041 0.2163 0.2871
C4_4 C 0.28069(8) 0.03477(15) 0.29938(11)
C6_4 C 0.10621(8) 0.25571(16) 0.64333(11)
H2_4 H 0.0952 0.3310 0.6632
C7_4 C 0.06240(8) 0.16384(16) 0.62946(12)
C8_4 C 0.10098(8) 0.07056(16) 0.60003(12)
O8_4 O 0.26664(5) 0.13949(11) 0.72557(7)
N7_4 N 0.35862(7) 0.31860(13) 0.65846(9)
C5_4 C 0.27803(8) 0.97115(14) 0.21964(11)
H3_4 H 0.0863 0.9956 0.5852
Zn7_4 Zn 0.23936(2) 0.98063(2) 0.05222(2)
O6_4 O 0.28713(6) 0.97213(10) 0.65305(8)
N5_4 N 0.85862(7) 0.18140(13) 0.65846(9)
C9_4 C 0.99304(8) 0.16801(16) 0.64084(11)
C10_4 C 0.95522(10) 0.06650(19) 0.65019(18)
C11_4 C 0.88911(9) 0.07735(18) 0.65868(16)
H5_4 H 0.8649 0.0081 0.6648
C12_4 C 0.89543(9) 0.27912(16) 0.65128(13)
H6_4 H 0.8753 0.3531 0.6517
C13_4 C 0.96118(9) 0.27649(17) 0.64329(13)
H7_4 H 0.9842 0.3474 0.6395
O1_5 O 0.78306(6) 0.29575(10) 0.54316(8)
O2_3 O 0.80093(6) 0.14890(11) 0.45129(8)
N1_5 N 0.76938(7) 0.45936(13) 0.43323(9)
N2_3 N 0.76600(7) 0.53066(12) 0.36776(9)
N3_5 N 0.66560(7) 0.27941(12) 0.62417(9)
N4_5 N 0.66231(7) 0.39513(13) 0.59634(9)
C1_5 C 0.79066(8) 0.25504(15) 0.47041(11)
C2_5 C 0.78614(8) 0.34859(15) 0.40643(11)
C3_5 C 0.79335(8) 0.34762(15) 0.32136(11)
H1_5 H 0.8041 0.2837 0.2871
C4_5 C 0.78069(8) 0.46523(15) 0.29938(11)
C5_5 C 0.77803(8) 0.52885(14) 0.21964(11)
C6_5 C 0.60621(8) 0.24429(16) 0.64333(11)
H2_5 H 0.5952 0.1690 0.6632
C7_5 C 0.56240(8) 0.33616(16) 0.62946(12)
C8_5 C 0.60098(8) 0.42944(16) 0.60003(12)
H3_5 H 0.5863 0.5044 0.5852
C9_5 C 0.49304(8) 0.33199(16) 0.64084(11)
C10_5 C 0.45522(10) 0.43350(19) 0.65019(18)
H4_3 H 0.4741 0.5085 0.6508
C11_5 C 0.38911(9) 0.42265(18) 0.65868(16)
H5_5 H 0.3649 0.4919 0.6648
C12_5 C 0.39543(9) 0.22088(16) 0.65128(13)
H6_5 H 0.3753 0.1469 0.6517
C13_5 C 0.46118(9) 0.22351(17) 0.64329(13)
H7_5 H 0.4842 0.1526 0.6395
O5_3 O 0.69907(6) 0.64890(11) 0.54871(8)
N6_3 N 0.73400(7) 0.03066(12) 0.63224(9)
O2_4 O 0.19907(6) 0.14890(11) 0.04871(8)
N1_6 N 0.23062(7) 0.45936(13) 0.06677(9)
N2_4 N 0.23400(7) 0.53066(12) 0.13224(9)
C1_6 C 0.20934(8) 0.25504(15) 0.02959(11)
C2_6 C 0.21386(8) 0.34859(15) 0.09357(11)
C3_6 C 0.20665(8) 0.34762(15) 0.17864(11)
H1_6 H 0.1959 0.2837 0.2129
C4_6 C 0.21931(8) 0.46523(15) 0.20062(11)
C5_6 C 0.22197(8) 0.52885(14) 0.28036(11)
O1_6 O 0.21694(6) 0.29575(10) 0.95684(8)
N3_6 N 0.33440(7) 0.27941(12) 0.87583(9)
N4_6 N 0.33769(7) 0.39513(13) 0.90366(9)
C6_6 C 0.39379(8) 0.24429(16) 0.85667(11)
H2_6 H 0.4048 0.1690 0.8368
C7_6 C 0.43760(8) 0.33616(16) 0.87054(12)
C8_6 C 0.39902(8) 0.42944(16) 0.89997(12)
H3_6 H 0.4137 0.5044 0.9148
C9_6 C 0.50696(8) 0.33199(16) 0.85916(11)
C10_6 C 0.54478(10) 0.43350(19) 0.84981(18)
H4_4 H 0.5259 0.5085 0.8492
C11_6 C 0.61089(9) 0.42265(18) 0.84132(16)
H5_6 H 0.6351 0.4919 0.8352
C12_6 C 0.60457(9) 0.22088(16) 0.84872(13)
H6_6 H 0.6247 0.1469 0.8483
C13_6 C 0.53882(9) 0.22351(17) 0.85671(13)
H7_6 H 0.5158 0.1526 0.8605
O5_4 O 0.30093(6) 0.64890(11) 0.95129(8)
N6_4 N 0.26600(7) 0.03066(12) 0.86776(9)
H3_7 H 0.0863 0.0044 0.0852
C5_7 C 0.27803(8) 0.02885(14) 0.71964(11)
O1_7 O 0.28306(6) 0.79575(10) 0.04316(8)
N3_7 N 0.16560(7) 0.77941(12) 0.12417(9)
N4_7 N 0.16231(7) 0.89513(13) 0.09634(9)
C6_7 C 0.10621(8) 0.74429(16) 0.14333(11)
H2_7 H 0.0952 0.6690 0.1632
C7_7 C 0.06240(8) 0.83616(16) 0.12946(12)
C8_7 C 0.10098(8) 0.92944(16) 0.10003(12)
N1_7 N 0.26938(7) 0.95936(13) 0.93323(9)
C1_7 C 0.29066(8) 0.75504(15) 0.97041(11)
C2_7 C 0.28614(8) 0.84859(15) 0.90643(11)
C3_7 C 0.29335(8) 0.84762(15) 0.82136(11)
H1_7 H 0.3041 0.7837 0.7871
C4_7 C 0.28069(8) 0.96523(15) 0.79938(11)
C9_7 C 0.99304(8) 0.83199(16) 0.14084(11)
C10_7 C 0.95522(10) 0.93350(19) 0.15019(18)
C11_7 C 0.88911(9) 0.92265(18) 0.15868(16)
H5_7 H 0.8649 0.9919 0.1648
C12_7 C 0.89543(9) 0.72088(16) 0.15128(13)
H6_7 H 0.8753 0.6469 0.1517
C13_7 C 0.96118(9) 0.72351(17) 0.14329(13)
H7_7 H 0.9842 0.6526 0.1395
C9_8 C 0.00696(8) 0.83199(16) 0.35916(11)
C10_8 C 0.04478(10) 0.93350(19) 0.34981(18)
C11_8 C 0.11089(9) 0.92265(18) 0.34132(16)
H5_8 H 0.1351 0.9919 0.3352
C12_8 C 0.10457(9) 0.72088(16) 0.34872(13)
H6_8 H 0.1247 0.6469 0.3483
C13_8 C 0.03882(9) 0.72351(17) 0.35671(13)
H7_8 H 0.0158 0.6526 0.3605
C5_8 C 0.72197(8) 0.02885(14) 0.78036(11)
H3_8 H 0.9137 0.0044 0.4148
O1_8 O 0.71694(6) 0.79575(10) 0.45684(8)
N1_8 N 0.73062(7) 0.95936(13) 0.56677(9)
N3_8 N 0.83440(7) 0.77941(12) 0.37583(9)
N4_8 N 0.83769(7) 0.89513(13) 0.40366(9)
C1_8 C 0.70934(8) 0.75504(15) 0.52959(11)
C2_8 C 0.71386(8) 0.84859(15) 0.59357(11)
C3_8 C 0.70665(8) 0.84762(15) 0.67864(11)
H1_8 H 0.6959 0.7837 0.7129
C4_8 C 0.71931(8) 0.96523(15) 0.70062(11)
C6_8 C 0.89379(8) 0.74429(16) 0.35667(11)
H2_8 H 0.9048 0.6690 0.3368
C7_8 C 0.93760(8) 0.83616(16) 0.37054(12)
C8_8 C 0.89902(8) 0.92944(16) 0.39997(12)
H4_5 H 0.0259 0.9915 0.8492
H4_6 H 0.9741 0.9915 0.6508
H4_7 H 0.9741 0.0085 0.1508
H4_8 H 0.0259 0.0085 0.3492
loop_
_geom_bond_atom_site_label_1
_geom_bond_atom_site_label_2
_geom_bond_site_symmetry_1
_geom_bond_site_symmetry_2
Zn1 O1 1_555 1_555
Zn2 O1 1_555 1_555
O1 C1 1_555 1_555
O2 C1 1_555 1_555
O3 C5 1_555 1_555
O4 C5 1_555 1_555
N1 Zn2 1_555 1_555
N2 N1 1_555 1_555
N3 Zn1 1_555 1_555
N4 Zn2 1_555 1_555
N5 C11 1_555 1_555
C1 C2 1_555 1_555
C2 N1 1_555 1_555
C3 C2 1_555 1_555
H1 C3 1_555 1_555
C4 N2 1_555 1_555
C5 C4 1_555 1_555
C6 N3 1_555 1_555
H2 C6 1_555 1_555
C7 C6 1_555 1_555
C8 N4 1_555 1_555
H3 C8 1_555 1_555
C9 C7 1_555 1_555
C10 C9 1_555 1_555
H4 C10 1_555 1_555
C11 C10 1_555 1_555
H5 C11 1_555 1_555
C12 N5 1_555 1_555
H6 C12 1_555 1_555
C13 C9 1_555 1_555
H7 C13 1_555 1_555
Zn3 O4 1_555 1_555
Zn4 O4 1_555 1_555
Zn5 N5 1_555 1_555
Zn7 O3 1_555 1_555
O5 Zn2 1_555 1_555
O6 Zn2 1_555 1_555
O7 Zn1 1_555 1_555
O8 Zn1 1_555 1_555
N6 Zn1 1_555 1_555
N7 Zn1 1_555 1_555
N2 Zn3 1_555 1_555
N3 N4 1_555 1_555
C3 C4 1_555 1_555
C7 C8 1_555 1_555
C12 C13 1_555 1_555
Zn1_2 O1_2 1_555 1_555
Zn2_2 O1_2 1_555 1_555
N3_2 Zn1_2 1_555 1_555
N4_2 Zn2_2 1_555 1_555
N5_2 C11_2 1_555 1_555
C6_2 N3_2 1_555 1_555
H2_2 C6_2 1_555 1_555
C7_2 C6_2 1_555 1_555
C8_2 N4_2 1_555 1_555
H3_2 C8_2 1_555 1_555
C9_2 C7_2 1_555 1_555
C10_2 C9_2 1_555 1_555
H4_2 C10_2 1_555 1_555
C11_2 C10_2 1_555 1_555
H5_2 C11_2 1_555 1_555
C12_2 N5_2 1_555 1_555
H6_2 C12_2 1_555 1_555
C13_2 C9_2 1_555 1_555
H7_2 C13_2 1_555 1_555
Zn5_2 N5_2 1_555 1_555
O5_2 Zn2_2 1_555 1_555
O6_2 Zn2_2 1_555 1_555
O7_2 Zn1_2 1_555 1_555
O8_2 Zn1_2 1_555 1_555
N6_2 Zn1_2 1_555 1_555
N7_2 Zn1_2 1_555 1_555
N3_2 N4_2 1_555 1_555
C7_2 C8_2 1_555 1_555
C12_2 C13_2 1_555 1_555
O2_2 C1_2 1_555 1_555
O3_2 C5_2 1_555 1_555
O4_2 C5_2 1_555 1_555
N2_2 N1_2 1_555 1_555
C1_2 C2_2 1_555 1_555
C2_2 N1_2 1_555 1_555
C3_2 C2_2 1_555 1_555
H1_2 C3_2 1_555 1_555
C4_2 N2_2 1_555 1_555
C5_2 C4_2 1_555 1_555
Zn3_2 O4_2 1_555 1_555
Zn4_2 O4_2 1_555 1_555
Zn7_2 O3_2 1_555 1_555
N2_2 Zn3_2 1_555 1_555
C3_2 C4_2 1_555 1_555
N5_3 C11_3 1_555 1_555
C10_3 C9_3 1_555 1_555
C11_3 C10_3 1_555 1_555
H5_3 C11_3 1_555 1_555
C12_3 N5_3 1_555 1_555
H6_3 C12_3 1_555 1_555
C13_3 C9_3 1_555 1_555
H7_3 C13_3 1_555 1_555
Zn4 N5_3 1_555 1_555
C12_3 C13_3 1_555 1_555
O5_2 C1_3 1_555 1_555
C1_3 C2_3 1_555 1_555
C2_3 N1_3 1_555 1_555
C3_3 C2_3 1_555 1_555
H1_3 C3_3 1_555 1_555
C3_3 C4_3 1_555 1_555
Zn3_2 O1_3 1_555 1_555
Zn6_2 O1_3 1_555 1_555
N3_3 Zn3_2 1_555 1_555
N4_3 Zn6_2 1_555 1_555
C6_3 N3_3 1_555 1_555
H2_3 C6_3 1_555 1_555
C7_3 C6_3 1_555 1_555
C8_3 N4_3 1_555 1_555
O8_3 Zn3_2 1_555 1_555
N7_3 Zn3_2 1_555 1_555
N3_3 N4_3 1_555 1_555
C7_3 C8_3 1_555 1_555
O7_2 C5_3 1_555 1_555
Zn5 O7_2 1_555 1_555
Zn3 O1_4 1_555 1_555
Zn6 O1_4 1_555 1_555
O1_4 C1_4 1_555 1_555
O5 C1_4 1_555 1_555
N1_4 Zn6 1_555 1_555
N3_4 Zn3 1_555 1_555
N4_4 Zn6 1_555 1_555
C1_4 C2_4 1_555 1_555
C2_4 N1_4 1_555 1_555
C3_4 C2_4 1_555 1_555
H1_4 C3_4 1_555 1_555
C6_4 N3_4 1_555 1_555
H2_4 C6_4 1_555 1_555
C7_4 C6_4 1_555 1_555
C8_4 N4_4 1_555 1_555
O8_4 Zn3 1_555 1_555
N7_4 Zn3 1_555 1_555
N3_4 N4_4 1_555 1_555
C3_4 C4_4 1_555 1_555
C7_4 C8_4 1_555 1_555
O7 C5_4 1_555 1_555
Zn5_2 O7 1_555 1_555
N5_4 C11_4 1_555 1_555
C10_4 C9_4 1_555 1_555
C11_4 C10_4 1_555 1_555
H5_4 C11_4 1_555 1_555
C12_4 N5_4 1_555 1_555
H6_4 C12_4 1_555 1_555
C13_4 C9_4 1_555 1_555
H7_4 C13_4 1_555 1_555
Zn4_2 N5_4 1_555 1_555
C12_4 C13_4 1_555 1_555
Zn4_2 O1_5 1_555 1_555
Zn7_2 O1_5 1_555 1_555
O1_5 C1_5 1_555 1_555
O2_3 C1_5 1_555 1_555
O6_2 C5_5 1_555 1_555
O8_2 C5_5 1_555 1_555
N1_5 Zn7_2 1_555 1_555
N2_3 N1_5 1_555 1_555
N3_5 Zn4_2 1_555 1_555
N4_5 Zn7_2 1_555 1_555
N7_4 C11_5 1_555 1_555
C1_5 C2_5 1_555 1_555
C2_5 N1_5 1_555 1_555
C3_5 C2_5 1_555 1_555
H1_5 C3_5 1_555 1_555
C4_5 N2_3 1_555 1_555
C5_5 C4_5 1_555 1_555
C6_5 N3_5 1_555 1_555
H2_5 C6_5 1_555 1_555
C7_5 C6_5 1_555 1_555
C8_5 N4_5 1_555 1_555
H3_5 C8_5 1_555 1_555
C9_5 C7_5 1_555 1_555
C10_5 C9_5 1_555 1_555
H4_3 C10_5 1_555 1_555
C11_5 C10_5 1_555 1_555
H5_5 C11_5 1_555 1_555
C12_5 N7_4 1_555 1_555
H6_5 C12_5 1_555 1_555
C13_5 C9_5 1_555 1_555
H7_5 C13_5 1_555 1_555
Zn5 O8_2 1_555 1_555
O5_3 Zn7_2 1_555 1_555
O8_3 Zn4_2 1_555 1_555
N6_3 Zn4_2 1_555 1_555
N2_3 Zn5 1_555 1_555
N3_5 N4_5 1_555 1_555
C3_5 C4_5 1_555 1_555
C7_5 C8_5 1_555 1_555
C12_5 C13_5 1_555 1_555
O2_4 C1_6 1_555 1_555
O6 C5_6 1_555 1_555
O8 C5_6 1_555 1_555
N2_4 N1_6 1_555 1_555
C1_6 C2_6 1_555 1_555
C2_6 N1_6 1_555 1_555
C3_6 C2_6 1_555 1_555
H1_6 C3_6 1_555 1_555
C4_6 N2_4 1_555 1_555
C5_6 C4_6 1_555 1_555
Zn5_2 O8 1_555 1_555
N2_4 Zn5_2 1_555 1_555
C3_6 C4_6 1_555 1_555
Zn4 O1_6 1_555 1_555
Zn7 O1_6 1_555 1_555
N3_6 Zn4 1_555 1_555
N4_6 Zn7 1_555 1_555
N7_3 C11_6 1_555 1_555
C6_6 N3_6 1_555 1_555
H2_6 C6_6 1_555 1_555
C7_6 C6_6 1_555 1_555
C8_6 N4_6 1_555 1_555
H3_6 C8_6 1_555 1_555
C9_6 C7_6 1_555 1_555
C10_6 C9_6 1_555 1_555
H4_4 C10_6 1_555 1_555
C11_6 C10_6 1_555 1_555
H5_6 C11_6 1_555 1_555
C12_6 N7_3 1_555 1_555
H6_6 C12_6 1_555 1_555
C13_6 C9_6 1_555 1_555
H7_6 C13_6 1_555 1_555
O5_4 Zn7 1_555 1_555
O8_4 Zn4 1_555 1_555
N6_4 Zn4 1_555 1_555
N3_6 N4_6 1_555 1_555
C7_6 C8_6 1_555 1_555
C12_6 C13_6 1_555 1_555
O8_4 C5_7 1_555 1_555
Zn5_2 O1_7 1_555 1_555
Zn7_4 O1_7 1_555 1_555
N3_7 Zn5_2 1_555 1_555
N4_7 Zn7_4 1_555 1_555
C6_7 N3_7 1_555 1_555
H2_7 C6_7 1_555 1_555
C7_7 C6_7 1_555 1_555
C8_7 N4_7 1_555 1_555
N3_7 N4_7 1_555 1_555
C7_7 C8_7 1_555 1_555
O5_4 C1_7 1_555 1_555
C1_7 C2_7 1_555 1_555
C2_7 N1_7 1_555 1_555
C3_7 C2_7 1_555 1_555
H1_7 C3_7 1_555 1_555
C3_7 C4_7 1_555 1_555
N7_2 C11_7 1_555 1_555
C10_7 C9_7 1_555 1_555
C11_7 C10_7 1_555 1_555
H5_7 C11_7 1_555 1_555
C12_7 N7_2 1_555 1_555
H6_7 C12_7 1_555 1_555
C13_7 C9_7 1_555 1_555
H7_7 C13_7 1_555 1_555
C12_7 C13_7 1_555 1_555
N7 C11_8 1_555 1_555
C10_8 C9_8 1_555 1_555
C11_8 C10_8 1_555 1_555
H5_8 C11_8 1_555 1_555
C12_8 N7 1_555 1_555
H6_8 C12_8 1_555 1_555
C13_8 C9_8 1_555 1_555
H7_8 C13_8 1_555 1_555
C12_8 C13_8 1_555 1_555
O8_3 C5_8 1_555 1_555
Zn5 O1_8 1_555 1_555
Zn7_3 O1_8 1_555 1_555
O1_8 C1_8 1_555 1_555
O5_3 C1_8 1_555 1_555
N1_8 Zn7_3 1_555 1_555
N3_8 Zn5 1_555 1_555
N4_8 Zn7_3 1_555 1_555
C1_8 C2_8 1_555 1_555
C2_8 N1_8 1_555 1_555
C3_8 C2_8 1_555 1_555
H1_8 C3_8 1_555 1_555
C6_8 N3_8 1_555 1_555
H2_8 C6_8 1_555 1_555
C7_8 C6_8 1_555 1_555
C8_8 N4_8 1_555 1_555
N3_8 N4_8 1_555 1_555
C3_8 C4_8 1_555 1_555
C7_8 C8_8 1_555 1_555

#END
