
###############################################################################
#
# This file contains modified crystal structure data generated from the
# MOF subset of the Cambridge Structural Database (CSD) v543 
# hosted by the Cambridge Crystallographic Data Centre (CCDC).
#
# This work is licensed under the Creative Commons
# Attribution-NonCommercial-ShareAlike 4.0 International License.
# To view a copy of this license, visit
# http://creativecommons.org/licenses/by-nc-sa/4.0/
# or send a letter to
# Creative Commons, PO Box 1866, Mountain View, CA 94042, USA.
#
# CIF created using the CSD Python API on 29 September 2022
# The structure has been converted into the P1 space group
# The structure has a 3D framework
# The original CSD entry RUWWOW01 is in the triclinic crystal system
# The framework has been calculated to contain at least 10.0% void space
# The void calculation uses a probe of radius 1.32A, grid spacing 0.4
#
###############################################################################

data_RUWWOW01
_chemical_formula_moiety         '(C30 H22 O16)n'
_symmetry_cell_setting           triclinic
_symmetry_space_group_name_H-M   'P 1'
_symmetry_Int_Tables_number      1
_space_group_name_Hall           'P 1'
loop_
_symmetry_equiv_pos_site_id
_symmetry_equiv_pos_as_xyz
1 x,y,z
_cell_length_a                   9.360(5)
_cell_length_b                   9.936(3)
_cell_length_c                   11.384(6)
_cell_angle_alpha                93.182(5)
_cell_angle_beta                 97.617(4)
_cell_angle_gamma                110.271(7)
_cell_volume                     978.512
loop_
_atom_site_label
_atom_site_type_symbol
_atom_site_fract_x
_atom_site_fract_y
_atom_site_fract_z
_atom_site_U_iso_or_equiv
_atom_site_thermal_displace_type
O8 O 0.4943(7) 0.2222(7) 0.1461(6) 0.0243 Uani
H8 H 0.5397 0.1772 0.1842 0.0370 Uiso
O9 O 0.1878(7) 0.0502(8) 0.1876(6) 0.0276 Uani
H9 H 0.1001 0.0518 0.1771 0.0410 Uiso
H10 H 0.542(12) 0.317(3) 0.171(10) 0.0600 Uiso
H11 H 0.207(19) 0.03(4) 0.262(13) 0.0500 Uiso
La1 La 0.28439(5) 0.04801(5) 0.98309(5) 0.0177 Uani
O12 O 0.1778(7) 0.2359(6) 0.9813(5) 0.0175 Uiso
O16 O 0.4555(7) 0.2544(6) 0.8816(6) 0.0213 Uani
O21 O 0.5832(7) 0.1054(6) 0.9218(5) 0.0184 Uani
O1 O 0.9420(6) 0.1639(6) 0.0298(6) 0.0190 Uani
O5 O 0.9377(7) 0.6022(7) 0.2752(6) 0.0210 Uani
H3 H 0.9142 0.3645 0.1648 0.0250 Uiso
C9 C 0.9957(9) 0.6760(9) 0.3886(8) 0.0192 Uani
C14 C 0.9793(11) 0.8352(11) 0.5443(8) 0.0245 Uani
H6 H 0.9298 0.8929 0.5743 0.0300 Uiso
C15 C 0.9244(10) 0.7620(10) 0.4313(8) 0.0235 Uani
H7 H 0.8396 0.7716 0.3849 0.0280 Uiso
O23 O 0.7136(7) 0.1061(8) 0.2043(6) 0.0282 Uani
O24 O 0.8862(8) 0.0016(7) 0.2289(6) 0.0237 Uani
C16 C 0.9282(10) 0.7419(9) 0.9704(8) 0.0197 Uani
C17 C 0.8920(10) 0.5928(8) 0.9110(8) 0.0189 Uani
C18 C 0.7564(9) 0.4847(9) 0.9237(8) 0.0173 Uani
H12 H 0.6867 0.5059 0.9656 0.0210 Uiso
C19 C 0.7238(9) 0.3441(7) 0.8738(7) 0.0117 Uani
C20 C 0.5783(10) 0.2265(9) 0.8923(7) 0.0176 Uani
C21 C 0.8272(10) 0.3105(10) 0.8095(7) 0.0199 Uani
H13 H 0.8096 0.2162 0.7793 0.0240 Uiso
C22 C 0.9580(9) 0.4255(9) 0.7930(7) 0.0152 Uani
C23 C 0.9945(10) 0.5630(10) 0.8444(8) 0.0205 Uani
C25 C 0.8771(10) 0.3409(10) 0.5419(8) 0.0224 Uani
H15 H 0.8295 0.4009 0.5711 0.0270 Uiso
C26 C 0.8242(11) 0.2664(10) 0.4291(9) 0.0241 Uani
H16 H 0.7410 0.2774 0.3815 0.0290 Uiso
C27 C 0.8933(10) 0.1762(10) 0.3865(8) 0.0231 Uani
C28 C 0.8292(9) 0.0892(9) 0.2678(7) 0.0165 Uani
O19 O 0.4168(7) 0.8946(6) 0.0782(5) 0.0184 Uani
O3 O 0.5445(7) 0.7456(6) 0.1184(6) 0.0213 Uani
O6 O 0.2864(7) 0.8939(8) 0.7957(6) 0.0282 Uani
O7 O 0.1138(8) 0.9984(7) 0.7711(6) 0.0237 Uani
C1 C 0.0718(10) 0.2581(9) 0.0296(8) 0.0197 Uani
C2 C 0.1080(10) 0.4072(8) 0.0890(8) 0.0189 Uani
C3 C 0.2436(9) 0.5153(9) 0.0763(8) 0.0173 Uani
H1 H 0.3133 0.4941 0.0344 0.0210 Uiso
C4 C 0.2762(9) 0.6559(7) 0.1262(7) 0.0117 Uani
C5 C 0.4217(10) 0.7735(9) 0.1077(7) 0.0176 Uani
C6 C 0.1728(10) 0.6895(10) 0.1905(7) 0.0199 Uani
H2 H 0.1904 0.7838 0.2207 0.0240 Uiso
C7 C 0.0420(9) 0.5745(9) 0.2070(7) 0.0152 Uani
C8 C 0.0055(10) 0.4370(10) 0.1556(8) 0.0205 Uani
C10 C 0.1229(10) 0.6591(10) 0.4581(8) 0.0224 Uani
H4 H 0.1705 0.5991 0.4289 0.0270 Uiso
C11 C 0.1758(11) 0.7336(10) 0.5709(9) 0.0241 Uani
H5 H 0.2590 0.7226 0.6185 0.0290 Uiso
C12 C 0.1067(10) 0.8238(10) 0.6135(8) 0.0231 Uani
C13 C 0.1708(9) 0.9108(9) 0.7322(7) 0.0165 Uani
La8 La 0.71561(5) 0.95199(5) 0.01691(5) 0.0177 Uani
O10 O 0.0580(6) 0.8361(6) 0.9702(6) 0.0190 Uani
O22 O 0.0623(7) 0.3978(7) 0.7248(6) 0.0210 Uani
H14 H 0.0858 0.6355 0.8352 0.0250 Uiso
C24 C 0.0043(9) 0.3240(9) 0.6114(8) 0.0192 Uani
C29 C 0.0207(11) 0.1648(11) 0.4557(8) 0.0245 Uani
H17 H 0.0702 0.1071 0.4257 0.0300 Uiso
C30 C 0.0756(10) 0.2380(10) 0.5687(8) 0.0235 Uani
H18 H 0.1604 0.2284 0.6151 0.0280 Uiso
O11 O 0.8222(7) 0.7641(6) 0.0187(5) 0.0175 Uiso
O25 O 0.5057(7) 0.7778(7) 0.8539(6) 0.0243 Uani
H19 H 0.4603 0.8228 0.8158 0.0370 Uiso
O26 O 0.8122(7) 0.9498(8) 0.8124(6) 0.0276 Uani
H20 H 0.8999 0.9482 0.8229 0.0410 Uiso
H21 H 0.458(12) 0.683(3) 0.829(10) 0.0600 Uiso
H22 H 0.793(19) 0.97(4) 0.738(13) 0.0500 Uiso
loop_
_atom_site_aniso_label
_atom_site_aniso_U_11
_atom_site_aniso_U_22
_atom_site_aniso_U_33
_atom_site_aniso_U_23
_atom_site_aniso_U_13
_atom_site_aniso_U_12
O8 0.015 0.022 0.031 -0.003 -0.003 0.004
O9 0.017 0.041 0.029 -0.002 0.011 0.014
La1 0.0125 0.0155 0.0242 -0.00096 0.00442 0.00395
O16 0.02 0.017 0.03 0.006 0.012 0.007
O21 0.011 0.016 0.026 0.001 0.009 0
O1 0.009 0.009 0.033 -0.004 0.005 -0.004
O5 0.017 0.026 0.024 -0.002 0.007 0.012
C9 0.012 0.019 0.025 0.002 0.007 0.002
C14 0.021 0.032 0.023 0.001 0.009 0.011
C15 0.019 0.025 0.028 -0.004 0.003 0.011
O23 0.016 0.045 0.022 -0.008 -0.001 0.012
O24 0.025 0.019 0.029 0.003 0.005 0.01
C16 0.024 0.015 0.018 0.006 -0.003 0.006
C17 0.018 0.01 0.022 -0.01 -0.001 0
C18 0.013 0.021 0.023 0.002 0.004 0.012
C19 0.013 0.003 0.017 -0.002 0.004 0
C20 0.018 0.022 0.017 0.007 0.002 0.012
C21 0.017 0.025 0.016 -0.007 -0.003 0.009
C22 0.015 0.018 0.013 0.002 0.006 0.005
C23 0.019 0.024 0.02 0.009 0.002 0.009
C25 0.021 0.027 0.027 0.004 0.007 0.017
C26 0.021 0.021 0.033 -0.007 0.003 0.013
C27 0.018 0.021 0.027 0 0.007 0.002
C28 0.009 0.019 0.02 -0.002 0.007 0.002
O19 0.011 0.016 0.026 0.001 0.009 0
O3 0.02 0.017 0.03 0.006 0.012 0.007
O6 0.016 0.045 0.022 -0.008 -0.001 0.012
O7 0.025 0.019 0.029 0.003 0.005 0.01
C1 0.024 0.015 0.018 0.006 -0.003 0.006
C2 0.018 0.01 0.022 -0.01 -0.001 0
C3 0.013 0.021 0.023 0.002 0.004 0.012
C4 0.013 0.003 0.017 -0.002 0.004 0
C5 0.018 0.022 0.017 0.007 0.002 0.012
C6 0.017 0.025 0.016 -0.007 -0.003 0.009
C7 0.015 0.018 0.013 0.002 0.006 0.005
C8 0.019 0.024 0.02 0.009 0.002 0.009
C10 0.021 0.027 0.027 0.004 0.007 0.017
C11 0.021 0.021 0.033 -0.007 0.003 0.013
C12 0.018 0.021 0.027 0 0.007 0.002
C13 0.009 0.019 0.02 -0.002 0.007 0.002
La8 0.0125 0.0155 0.0242 -0.00096 0.00442 0.00395
O10 0.009 0.009 0.033 -0.004 0.005 -0.004
O22 0.017 0.026 0.024 -0.002 0.007 0.012
C24 0.012 0.019 0.025 0.002 0.007 0.002
C29 0.021 0.032 0.023 0.001 0.009 0.011
C30 0.019 0.025 0.028 -0.004 0.003 0.011
O25 0.015 0.022 0.031 -0.003 -0.003 0.004
O26 0.017 0.041 0.029 -0.002 0.011 0.014
loop_
_geom_bond_atom_site_label_1
_geom_bond_atom_site_label_2
_geom_bond_site_symmetry_1
_geom_bond_site_symmetry_2
H8 O8 1_555 1_555
H9 O9 1_555 1_555
H10 O8 1_555 1_555
H11 O9 1_555 1_555
O12 La1 1_555 1_555
O16 La1 1_555 1_555
O21 La1 1_555 1_555
C9 O5 1_555 1_555
H6 C14 1_555 1_555
C15 C9 1_555 1_555
H7 C15 1_555 1_555
O16 C20 1_555 1_555
C17 C16 1_555 1_555
C18 C17 1_555 1_555
H12 C18 1_555 1_555
C19 C18 1_555 1_555
C20 O21 1_555 1_555
C21 C19 1_555 1_555
H13 C21 1_555 1_555
C22 C21 1_555 1_555
C23 C17 1_555 1_555
H15 C25 1_555 1_555
C26 C25 1_555 1_555
H16 C26 1_555 1_555
C27 C26 1_555 1_555
C28 O23 1_555 1_555
C14 C15 1_555 1_555
O24 C28 1_555 1_555
C19 C20 1_555 1_555
C22 C23 1_555 1_555
C27 C28 1_555 1_555
O3 C5 1_555 1_555
O19 C5 1_555 1_555
O6 C13 1_555 1_555
C1 C2 1_555 1_555
C2 C3 1_555 1_555
C3 H1 1_555 1_555
C4 C3 1_555 1_555
C5 C4 1_555 1_555
C6 C4 1_555 1_555
H2 C6 1_555 1_555
C7 C6 1_555 1_555
C8 C2 1_555 1_555
H4 C10 1_555 1_555
C11 C10 1_555 1_555
H5 C11 1_555 1_555
C12 C11 1_555 1_555
C13 O7 1_555 1_555
La8 O3 1_555 1_555
C24 O22 1_555 1_555
H17 C29 1_555 1_555
C30 C24 1_555 1_555
H18 C30 1_555 1_555
O19 La8 1_555 1_555
C7 C8 1_555 1_555
C12 C13 1_555 1_555
C29 C30 1_555 1_555
La8 O11 1_555 1_555
H19 O25 1_555 1_555
H20 O26 1_555 1_555
H21 O25 1_555 1_555
H22 O26 1_555 1_555

#END
