
###############################################################################
#
# This file contains modified crystal structure data generated from the
# MOF subset of the Cambridge Structural Database (CSD) v543 
# hosted by the Cambridge Crystallographic Data Centre (CCDC).
#
# This work is licensed under the Creative Commons
# Attribution-NonCommercial-ShareAlike 4.0 International License.
# To view a copy of this license, visit
# http://creativecommons.org/licenses/by-nc-sa/4.0/
# or send a letter to
# Creative Commons, PO Box 1866, Mountain View, CA 94042, USA.
#
# CIF created using the CSD Python API on 29 September 2022
# The structure has been converted into the P1 space group
# The structure has a 3D framework
# The original CSD entry RUXTOW is in the triclinic crystal system
# The framework has been calculated to contain at least 10.0% void space
# The void calculation uses a probe of radius 1.32A, grid spacing 0.4
#
###############################################################################

data_RUXTOW
_chemical_formula_moiety         '(C52 H32 N4 O16)n'
_symmetry_cell_setting           triclinic
_symmetry_space_group_name_H-M   'P 1'
_symmetry_Int_Tables_number      1
_space_group_name_Hall           'P 1'
loop_
_symmetry_equiv_pos_site_id
_symmetry_equiv_pos_as_xyz
1 x,y,z
_cell_length_a                   9.3940(8)
_cell_length_b                   10.4199(9)
_cell_length_c                   15.2264(13)
_cell_angle_alpha                74.995(3)
_cell_angle_beta                 84.235(3)
_cell_angle_gamma                64.840(3)
_cell_volume                     1302.95
loop_
_atom_site_label
_atom_site_type_symbol
_atom_site_fract_x
_atom_site_fract_y
_atom_site_fract_z
O14 O 0.2991(8) 0.0551(7) 0.0834(4)
O15 O 0.1512(8) 0.2334(7) 0.1474(4)
Gd1 Gd 0.08831(5) 0.21921(5) 0.98287(3)
O11 O 0.2273(7) 0.3667(6) 0.9617(4)
O13 O 0.1581(7) 0.2642(7) 0.8289(4)
O10 O 0.2068(7) 0.9842(6) 0.9504(4)
C3 C 0.4506(11) 0.0458(11) 0.7999(6)
H1 H 0.4436 0.0945 0.8461
C4 C 0.3210(11) 0.0890(10) 0.7469(6)
O5 O 0.0449(8) 0.2211(9) 0.7253(5)
C5 C 0.1644(12) 0.2011(11) 0.7662(6)
C6 C 0.3336(11) 0.0175(11) 0.6788(6)
H2 H 0.2449 0.0454 0.6416
O9 O 0.8904(7) 0.2025(7) 0.8891(4)
H5 H 0.9055 0.2335 0.8315
H6 H 0.9092 0.1111 0.8953
O12 O 0.8741(7) 0.4344(7) 0.9846(4)
O1 O 0.0610(6) 0.8819(6) 0.9157(4)
N1 N 0.5177(9) 0.1661(9) 0.4060(5)
C1 C 0.2768(11) 0.1234(11) 0.1444(6)
N2 N 0.4815(9) 0.4987(8) 0.7598(5)
C2 C 0.4106(11) 0.0659(10) 0.2123(6)
C7 C 0.5251(11) 0.0936(11) 0.3347(6)
C8 C 0.3983(11) 0.1385(11) 0.2793(6)
H3 H 0.3029 0.2184 0.2866
C9 C 0.3842(13) 0.2112(13) 0.4543(7)
H4 H 0.2970 0.1940 0.4428
C10 C 0.6426(13) 0.1914(13) 0.4222(8)
H7 H 0.7331 0.1642 0.3851
C11 C 0.6397(13) 0.2553(13) 0.4909(7)
H8 H 0.7293 0.2686 0.5028
C12 C 0.3766(13) 0.2831(13) 0.5210(7)
H9 H 0.2801 0.3211 0.5517
C13 C 0.5034(11) 0.3014(11) 0.5442(6)
C14 C 0.4956(12) 0.3688(11) 0.6200(7)
C15 C 0.3656(12) 0.4151(12) 0.6709(7)
H10 H 0.2751 0.4043 0.6578
C16 C 0.3604(12) 0.4771(13) 0.7407(7)
H11 H 0.2680 0.5052 0.7762
C17 C 0.6258(12) 0.3903(12) 0.6414(7)
H12 H 0.7209 0.3576 0.6086
C18 C 0.6153(12) 0.4581(12) 0.7092(7)
H13 H 0.7009 0.4770 0.7212
C19 C 0.4762(10) 0.5711(9) 0.8317(6)
C20 C 0.6102(10) 0.5251(10) 0.8809(6)
H14 H 0.7012 0.4417 0.8730
C21 C 0.6115(10) 0.6023(9) 0.9430(6)
C22 C 0.4774(10) 0.7201(9) 0.9560(6)
H15 H 0.4793 0.7747 0.9968
C23 C 0.3406(10) 0.7592(9) 0.9102(6)
C24 C 0.3387(10) 0.6840(9) 0.8468(6)
H16 H 0.2447 0.7103 0.8149
C25 C 0.1917(10) 0.8841(10) 0.9263(6)
C26 C 0.7651(10) 0.5530(10) 0.9923(6)
Gd6 Gd 0.91169(5) 0.78079(5) 0.01713(3)
O1_2 O 0.9390(6) 0.1181(6) 0.0843(4)
N1_2 N 0.4823(9) 0.8339(9) 0.5940(5)
C1_2 C 0.7232(11) 0.8766(11) 0.8556(6)
O2 O 0.7932(7) 0.0158(6) 0.0496(4)
N2_2 N 0.5185(9) 0.5013(8) 0.2402(5)
C2_2 C 0.5894(11) 0.9341(10) 0.7877(6)
O4 O 0.1259(7) 0.5656(7) 0.0154(4)
C7_2 C 0.4749(11) 0.9064(11) 0.6653(6)
O7 O 0.7009(8) 0.9449(7) 0.9166(4)
C8_2 C 0.6017(11) 0.8615(11) 0.7207(6)
H3_2 H 0.6971 0.7816 0.7134
O8 O 0.8488(8) 0.7666(7) 0.8526(4)
C9_2 C 0.6158(13) 0.7888(13) 0.5457(7)
H4_2 H 0.7030 0.8060 0.5572
C10_2 C 0.3574(13) 0.8086(13) 0.5778(8)
H7_2 H 0.2669 0.8358 0.6149
C11_2 C 0.3603(13) 0.7447(13) 0.5091(7)
H8_2 H 0.2707 0.7314 0.4972
C12_2 C 0.6234(13) 0.7169(13) 0.4790(7)
H9_2 H 0.7199 0.6789 0.4483
C13_2 C 0.4966(11) 0.6986(11) 0.4558(6)
C14_2 C 0.5044(12) 0.6312(11) 0.3800(7)
C15_2 C 0.6344(12) 0.5849(12) 0.3291(7)
H10_2 H 0.7249 0.5957 0.3422
C16_2 C 0.6396(12) 0.5229(13) 0.2593(7)
H11_2 H 0.7320 0.4948 0.2238
C17_2 C 0.3742(12) 0.6097(12) 0.3586(7)
H12_2 H 0.2791 0.6424 0.3914
C18_2 C 0.3847(12) 0.5419(12) 0.2908(7)
H13_2 H 0.2991 0.5230 0.2788
C19_2 C 0.5238(10) 0.4289(9) 0.1683(6)
C20_2 C 0.3898(10) 0.4749(10) 0.1191(6)
H14_2 H 0.2988 0.5583 0.1270
C21_2 C 0.3885(10) 0.3977(9) 0.0570(6)
C22_2 C 0.5226(10) 0.2799(9) 0.0440(6)
H15_2 H 0.5207 0.2253 0.0032
C23_2 C 0.6594(10) 0.2408(9) 0.0898(6)
C24_2 C 0.6613(10) 0.3160(9) 0.1532(6)
H16_2 H 0.7553 0.2897 0.1851
C25_2 C 0.8083(10) 0.1159(10) 0.0737(6)
C26_2 C 0.2349(10) 0.4470(10) 0.0077(6)
O3 O 0.7727(7) 0.6333(6) 0.0383(4)
O9_2 O 0.1096(7) 0.7975(7) 0.1109(4)
H5_2 H 0.0945 0.7665 0.1685
H6_2 H 0.0908 0.8889 0.1047
C3_2 C 0.5494(11) 0.9542(11) 0.2001(6)
H1_2 H 0.5564 0.9055 0.1539
C4_2 C 0.6790(11) 0.9110(10) 0.2531(6)
O5_2 O 0.9551(8) 0.7789(9) 0.2747(5)
C5_2 C 0.8356(12) 0.7989(11) 0.2338(6)
C6_2 C 0.6664(11) 0.9825(11) 0.3212(6)
H2_2 H 0.7551 0.9546 0.3584
O6 O 0.8419(7) 0.7358(7) 0.1711(4)
loop_
_geom_bond_atom_site_label_1
_geom_bond_atom_site_label_2
_geom_bond_site_symmetry_1
_geom_bond_site_symmetry_2
O11 Gd1 1_555 1_555
O13 Gd1 1_555 1_555
C3 H1 1_555 1_555
C4 C3 1_555 1_555
O5 C5 1_555 1_555
C5 C4 1_555 1_555
C6 C4 1_555 1_555
H2 C6 1_555 1_555
O13 C5 1_555 1_555
H5 O9 1_555 1_555
H6 O9 1_555 1_555
O1 C25 1_555 1_555
N1 C7 1_555 1_555
C1 C2 1_555 1_555
O10 C25 1_555 1_555
N2 C16 1_555 1_555
O12 C26 1_555 1_555
O14 C1 1_555 1_555
C8 C2 1_555 1_555
H3 C8 1_555 1_555
O15 C1 1_555 1_555
C9 N1 1_555 1_555
H4 C9 1_555 1_555
C10 N1 1_555 1_555
H7 C10 1_555 1_555
C11 C10 1_555 1_555
H8 C11 1_555 1_555
C12 C9 1_555 1_555
H9 C12 1_555 1_555
C13 C11 1_555 1_555
C14 C13 1_555 1_555
C15 C14 1_555 1_555
H10 C15 1_555 1_555
C16 C15 1_555 1_555
H11 C16 1_555 1_555
C17 C14 1_555 1_555
H12 C17 1_555 1_555
C18 N2 1_555 1_555
H13 C18 1_555 1_555
C19 N2 1_555 1_555
C20 C19 1_555 1_555
H14 C20 1_555 1_555
C21 C20 1_555 1_555
C22 C21 1_555 1_555
H15 C22 1_555 1_555
C23 C22 1_555 1_555
C24 C19 1_555 1_555
H16 C24 1_555 1_555
C25 C23 1_555 1_555
C26 C21 1_555 1_555
C7 C8 1_555 1_555
C12 C13 1_555 1_555
C17 C18 1_555 1_555
C23 C24 1_555 1_555
O1_2 C25_2 1_555 1_555
N1_2 C7_2 1_555 1_555
C1_2 C2_2 1_555 1_555
O2 C25_2 1_555 1_555
N2_2 C16_2 1_555 1_555
O4 C26_2 1_555 1_555
O7 C1_2 1_555 1_555
C8_2 C2_2 1_555 1_555
H3_2 C8_2 1_555 1_555
O8 C1_2 1_555 1_555
C9_2 N1_2 1_555 1_555
H4_2 C9_2 1_555 1_555
C10_2 N1_2 1_555 1_555
H7_2 C10_2 1_555 1_555
C11_2 C10_2 1_555 1_555
H8_2 C11_2 1_555 1_555
C12_2 C9_2 1_555 1_555
H9_2 C12_2 1_555 1_555
C13_2 C11_2 1_555 1_555
C14_2 C13_2 1_555 1_555
C15_2 C14_2 1_555 1_555
H10_2 C15_2 1_555 1_555
C16_2 C15_2 1_555 1_555
H11_2 C16_2 1_555 1_555
C17_2 C14_2 1_555 1_555
H12_2 C17_2 1_555 1_555
C18_2 N2_2 1_555 1_555
H13_2 C18_2 1_555 1_555
C19_2 N2_2 1_555 1_555
C20_2 C19_2 1_555 1_555
H14_2 C20_2 1_555 1_555
C21_2 C20_2 1_555 1_555
C22_2 C21_2 1_555 1_555
H15_2 C22_2 1_555 1_555
C23_2 C22_2 1_555 1_555
C24_2 C19_2 1_555 1_555
H16_2 C24_2 1_555 1_555
C25_2 C23_2 1_555 1_555
C26_2 C21_2 1_555 1_555
C7_2 C8_2 1_555 1_555
C12_2 C13_2 1_555 1_555
C17_2 C18_2 1_555 1_555
C23_2 C24_2 1_555 1_555
H5_2 O9_2 1_555 1_555
H6_2 O9_2 1_555 1_555
Gd6 O3 1_555 1_555
C3_2 H1_2 1_555 1_555
C4_2 C3_2 1_555 1_555
O5_2 C5_2 1_555 1_555
C5_2 C4_2 1_555 1_555
C6_2 C4_2 1_555 1_555
H2_2 C6_2 1_555 1_555
O6 C5_2 1_555 1_555
Gd6 O6 1_555 1_555

#END
