
###############################################################################
#
# This file contains modified crystal structure data generated from the
# MOF subset of the Cambridge Structural Database (CSD) v543 
# hosted by the Cambridge Crystallographic Data Centre (CCDC).
#
# This work is licensed under the Creative Commons
# Attribution-NonCommercial-ShareAlike 4.0 International License.
# To view a copy of this license, visit
# http://creativecommons.org/licenses/by-nc-sa/4.0/
# or send a letter to
# Creative Commons, PO Box 1866, Mountain View, CA 94042, USA.
#
# CIF created using the CSD Python API on 29 September 2022
# The structure has been converted into the P1 space group
# The structure has a 3D framework
# The original CSD entry RUYDIB is in the rhombohedral crystal system
# The framework has been calculated to contain at least 10.0% void space
# The void calculation uses a probe of radius 1.32A, grid spacing 0.4
#
###############################################################################

data_RUYDIB
_chemical_formula_moiety         '(C22 H22 Co9 O32)n'
_symmetry_cell_setting           triclinic
_symmetry_space_group_name_H-M   'P 1'
_symmetry_Int_Tables_number      1
_space_group_name_Hall           'P 1'
loop_
_symmetry_equiv_pos_site_id
_symmetry_equiv_pos_as_xyz
1 x,y,z
_cell_length_a                   8.1984(6)
_cell_length_b                   8.1984(6)
_cell_length_c                   22.2560(17)
_cell_angle_alpha                90
_cell_angle_beta                 90
_cell_angle_gamma                120
_cell_volume                     1295.5
loop_
_atom_site_label
_atom_site_type_symbol
_atom_site_fract_x
_atom_site_fract_y
_atom_site_fract_z
Co1 Co 0.0000 0.0000 0.0000
C1 C 0.1242(13) 0.3333 0.0833
H1 H 0.2376 0.3333 0.0833
O2 O 0.1172(10) 0.4581(7) 0.1129(2)
O5 O 0.2161(10) 0.0075(7) 0.0538(2)
Co4 Co 0.3333 0.6667 0.1667
Co1_2 Co 0.0000 0.0000 1.0000
O8 O 0.2086(7) 0.2161(10) 0.9462(2)
Co1_3 Co 0.0000 1.0000 0.0000
C3 C 0.2091(13) 0.8758(13) 0.0833
H3 H 0.0957 0.7624 0.0833
O6 O 0.3408(7) 0.8828(10) 0.1129(2)
Co1_4 Co 0.0000 1.0000 1.0000
O7 O 0.0075(7) 0.7914(7) 0.9462(2)
Co1_5 Co 1.0000 0.0000 0.0000
O1 O 0.9925(7) 0.2086(7) 0.0538(2)
Co1_6 Co 1.0000 0.0000 1.0000
Co1_7 Co 1.0000 1.0000 0.0000
O3 O 0.7914(7) 0.7839(10) 0.0538(2)
C2 C 0.6667 0.7909(13) 0.0833
H2 H 0.6667 0.9043 0.0833
O4 O 0.5419(7) 0.6592(7) 0.1129(2)
Co1_8 Co 1.0000 1.0000 1.0000
O9 O 0.7839(10) 0.9925(7) 0.9462(2)
Co1_9 Co 0.0000 0.0000 0.5000
C1_2 C 0.3333 0.1242(13) 0.4167
H1_2 H 0.3333 0.2376 0.4167
O2_2 O 0.4581(7) 0.1172(10) 0.3871(2)
O5_2 O 0.0075(7) 0.2161(10) 0.4462(2)
Co4_2 Co 0.6667 0.3333 0.3333
O8_2 O 0.2161(10) 0.2086(7) 0.5538(2)
Co1_10 Co 0.0000 1.0000 0.5000
O1_2 O 0.2086(7) 0.9925(7) 0.4462(2)
Co1_11 Co 1.0000 0.0000 0.5000
C3_2 C 0.8758(13) 0.2091(13) 0.4167
H3_2 H 0.7624 0.0957 0.4167
O6_2 O 0.8828(10) 0.3408(7) 0.3871(2)
O7_2 O 0.7914(7) 0.0075(7) 0.5538(2)
Co1_12 Co 1.0000 1.0000 0.5000
O3_2 O 0.7839(10) 0.7914(7) 0.4462(2)
C2_2 C 0.7909(13) 0.6667 0.4167
H2_2 H 0.9043 0.6667 0.4167
O4_2 O 0.6592(7) 0.5419(7) 0.3871(2)
O9_2 O 0.9925(7) 0.7839(10) 0.5538(2)
O7_3 O 0.6742(7) 0.1247(7) 0.2795(2)
O8_3 O 0.8753(7) 0.5494(10) 0.2795(2)
O9_3 O 0.4506(10) 0.3258(7) 0.2795(2)
C1_3 C -0.0000 0.4575(13) 0.7500
H1_3 H -0.0000 0.5709 0.7500
O2_3 O 0.1247(7) 0.4506(10) 0.7205(2)
Co4_3 Co 0.3333 0.6667 0.6667
Co1_13 Co 0.6667 0.3333 0.8333
O1_3 O 0.8753(7) 0.3258(7) 0.7795(2)
C1_4 C 1.0000 0.4575(13) 0.7500
H1_4 H 1.0000 0.5709 0.7500
O3_3 O 0.4506(10) 0.1247(7) 0.7795(2)
C2_3 C 0.4576(13) 0.0000 0.7500
H2_3 H 0.5710 0.0000 0.7500
O5_3 O 0.6742(7) 0.5494(10) 0.7795(2)
C3_3 C 0.5425(13) 0.5424(13) 0.7500
H3_3 H 0.4291 0.4290 0.7500
O6_3 O 0.5494(10) 0.6742(7) 0.7205(2)
O7_4 O 0.4581(7) 0.3408(7) 0.8871(2)
O8_4 O 0.8828(10) 0.5419(7) 0.8871(2)
O9_4 O 0.6592(7) 0.1172(10) 0.8871(2)
C2_4 C 0.4576(13) 1.0000 0.7500
H2_4 H 0.5710 1.0000 0.7500
O4_3 O 0.3258(7) 0.8753(7) 0.7205(2)
O7_5 O 0.3408(7) 0.4581(7) 0.6129(2)
O8_5 O 0.5419(7) 0.8828(10) 0.6129(2)
O9_5 O 0.1172(10) 0.6592(7) 0.6129(2)
O7_6 O 0.1247(7) 0.6742(7) 0.2205(2)
O8_6 O 0.5494(10) 0.8753(7) 0.2205(2)
O9_6 O 0.3258(7) 0.4506(10) 0.2205(2)
C2_5 C 0.3333 0.2091(13) 0.9167
H2_5 H 0.3333 0.0957 0.9167
C3_4 C 0.7909(13) 0.1242(13) 0.9167
H3_4 H 0.9043 0.2376 0.9167
C1_5 C 0.8758(13) 0.6667 0.9167
H1_5 H 0.7624 0.6667 0.9167
C2_6 C 0.2091(13) 0.3333 0.5833
H2_6 H 0.0957 0.3333 0.5833
C3_5 C 0.1242(13) 0.7909(13) 0.5833
H3_5 H 0.2376 0.9043 0.5833
C1_6 C 0.6667 0.8758(13) 0.5833
H1_6 H 0.6667 0.7624 0.5833
C2_7 C 0.5424(13) -0.0000 0.2500
H2_7 H 0.4290 -0.0000 0.2500
C1_7 C 0.0000 0.5425(13) 0.2500
H1_7 H 0.0000 0.4291 0.2500
C2_8 C 0.5424(13) 1.0000 0.2500
H2_8 H 0.4290 1.0000 0.2500
C3_6 C 0.4575(13) 0.4576(13) 0.2500
H3_6 H 0.5709 0.5710 0.2500
C1_8 C 1.0000 0.5425(13) 0.2500
H1_8 H 1.0000 0.4291 0.2500
loop_
_geom_bond_atom_site_label_1
_geom_bond_atom_site_label_2
_geom_bond_site_symmetry_1
_geom_bond_site_symmetry_2
C1 H1 1_555 1_555
O2 C1 1_555 1_555
O5 Co1 1_555 1_555
Co4 O2 1_555 1_555
O8 Co1_2 1_555 1_555
H3 C3 1_555 1_555
O6 C3 1_555 1_555
Co4 O6 1_555 1_555
O7 Co1_4 1_555 1_555
Co1_5 O1 1_555 1_555
O3 Co1_7 1_555 1_555
C2 O3 1_555 1_555
H2 C2 1_555 1_555
O4 C2 1_555 1_555
Co4 O4 1_555 1_555
O9 Co1_8 1_555 1_555
C1_2 H1_2 1_555 1_555
O2_2 C1_2 1_555 1_555
O5_2 Co1_9 1_555 1_555
Co4_2 O2_2 1_555 1_555
O8_2 Co1_9 1_555 1_555
Co1_10 O1_2 1_555 1_555
H3_2 C3_2 1_555 1_555
O6_2 C3_2 1_555 1_555
Co4_2 O6_2 1_555 1_555
O7_2 Co1_11 1_555 1_555
O3_2 Co1_12 1_555 1_555
C2_2 O3_2 1_555 1_555
H2_2 C2_2 1_555 1_555
O4_2 C2_2 1_555 1_555
Co4_2 O4_2 1_555 1_555
O9_2 Co1_12 1_555 1_555
O7_3 Co4_2 1_555 1_555
O8_3 Co4_2 1_555 1_555
O9_3 Co4_2 1_555 1_555
C1_3 H1_3 1_555 1_555
O2_3 C1_3 1_555 1_555
Co4_3 O2_3 1_555 1_555
Co1_13 O1_3 1_555 1_555
O1_3 C1_4 1_555 1_555
C1_4 H1_4 1_555 1_555
O3_3 Co1_13 1_555 1_555
C2_3 O3_3 1_555 1_555
H2_3 C2_3 1_555 1_555
O5_3 Co1_13 1_555 1_555
C3_3 O5_3 1_555 1_555
H3_3 C3_3 1_555 1_555
O6_3 C3_3 1_555 1_555
Co4_3 O6_3 1_555 1_555
O7_4 Co1_13 1_555 1_555
O8_4 Co1_13 1_555 1_555
O9_4 Co1_13 1_555 1_555
H2_4 C2_4 1_555 1_555
O4_3 C2_4 1_555 1_555
Co4_3 O4_3 1_555 1_555
O7_5 Co4_3 1_555 1_555
O8_5 Co4_3 1_555 1_555
O9_5 Co4_3 1_555 1_555
O7_6 Co4 1_555 1_555
O8_6 Co4 1_555 1_555
O9_6 Co4 1_555 1_555
C2_5 O8 1_555 1_555
H2_5 C2_5 1_555 1_555
O7_4 C2_5 1_555 1_555
H3_4 C3_4 1_555 1_555
O9_4 C3_4 1_555 1_555
C1_5 H1_5 1_555 1_555
O8_4 C1_5 1_555 1_555
C2_6 O8_2 1_555 1_555
H2_6 C2_6 1_555 1_555
O7_5 C2_6 1_555 1_555
H3_5 C3_5 1_555 1_555
O9_5 C3_5 1_555 1_555
C1_6 H1_6 1_555 1_555
O8_5 C1_6 1_555 1_555
H2_7 C2_7 1_555 1_555
O7_3 C2_7 1_555 1_555
O7_6 C1_7 1_555 1_555
C1_7 H1_7 1_555 1_555
C2_8 O8_6 1_555 1_555
H2_8 C2_8 1_555 1_555
C3_6 O9_6 1_555 1_555
H3_6 C3_6 1_555 1_555
O9_3 C3_6 1_555 1_555
C1_8 H1_8 1_555 1_555
O8_3 C1_8 1_555 1_555

#END
