
###############################################################################
#
# This file contains modified crystal structure data generated from the
# MOF subset of the Cambridge Structural Database (CSD) v543 
# hosted by the Cambridge Crystallographic Data Centre (CCDC).
#
# This work is licensed under the Creative Commons
# Attribution-NonCommercial-ShareAlike 4.0 International License.
# To view a copy of this license, visit
# http://creativecommons.org/licenses/by-nc-sa/4.0/
# or send a letter to
# Creative Commons, PO Box 1866, Mountain View, CA 94042, USA.
#
# CIF created using the CSD Python API on 29 September 2022
# The structure has been converted into the P1 space group
# The structure has a 3D framework
# The original CSD entry RUYHAX is in the triclinic crystal system
# The framework has been calculated to contain at least 10.0% void space
# The void calculation uses a probe of radius 1.32A, grid spacing 0.4
# H atom positions have been added when not included in the experimental data
#
###############################################################################

data_RUYHAX
_chemical_formula_moiety         '(C102 H50 N2 O50 S6 Zn9)n'
_symmetry_cell_setting           triclinic
_symmetry_space_group_name_H-M   'P 1'
_symmetry_Int_Tables_number      1
_space_group_name_Hall           'P 1'
loop_
_symmetry_equiv_pos_site_id
_symmetry_equiv_pos_as_xyz
1 x,y,z
_cell_length_a                   11.557(3)
_cell_length_b                   11.677(4)
_cell_length_c                   25.550(8)
_cell_angle_alpha                84.208(8)
_cell_angle_beta                 85.113(8)
_cell_angle_gamma                82.663(8)
_cell_volume                     3393.16
loop_
_atom_site_label
_atom_site_type_symbol
_atom_site_fract_x
_atom_site_fract_y
_atom_site_fract_z
S2 S 0.3774(4) 0.0605(4) 0.13089(16)
C18 C 0.0227(14) 0.0881(14) 0.1610(6)
C19 C 0.0142(14) 0.0266(15) 0.2111(6)
C23 C 0.2327(15) 0.0408(14) 0.1577(6)
C24 C 0.1302(16) 0.0973(14) 0.1353(6)
H9 H 0.136293 0.141855 0.102128
C25 C 0.3620(14) 0.0756(14) 0.0615(6)
C48 C 0.3727(14) 0.1784(15) 0.0311(6)
H18 H 0.379300 0.245557 0.048205
Zn21 Zn 0.57955(16) 0.37741(16) 0.02181(7)
O15 O 0.3439(10) 0.3247(10) 0.9026(4)
O16 O 0.4451(9) 0.3703(9) 0.9661(4)
C29 C 0.3638(15) 0.0935(16) 0.9527(7)
H11 H 0.364142 0.098442 0.915389
C30 C 0.3741(15) 0.1877(14) 0.9768(7)
C31 C 0.3924(15) 0.3042(14) 0.9470(6)
Zn12 Zn 0.31617(17) 0.48899(17) 0.87432(7)
O11 O 0.0090(10) 0.8905(10) 0.3085(4)
O12 O 0.2060(11) 0.8731(11) 0.3080(4)
C20 C 0.1168(15) 0.9703(14) 0.2339(6)
C21 C 0.1090(14) 0.9069(13) 0.2868(6)
C22 C 0.2268(15) 0.9782(14) 0.2068(6)
H8 H 0.295968 0.941302 0.221827
C26 C 0.3520(15) 0.9806(15) 0.0366(6)
H10 H 0.344791 0.908735 0.056876
Zn13 Zn 0.2447(2) 0.76691(18) 0.37075(7)
O13 O 0.3561(10) 0.7866(9) 0.9870(4)
O14 O 0.3612(11) 0.8858(10) 0.9069(4)
C27 C 0.3522(13) 0.9858(14) 0.9830(6)
C28 C 0.3554(15) 0.8772(15) 0.9563(6)
Zn10 Zn 0.31012(17) 0.76226(16) 0.87134(7)
Zn18 Zn 0.42045(16) 0.62259(16) 0.97819(7)
S3 S 0.2366(4) 0.2388(4) 0.24546(15)
O18 O 0.0795(11) 0.0331(10) 0.4226(4)
O21 O 0.044(2) 0.6249(12) 0.3289(6)
O24 O 0.3226(9) 0.5464(9) 0.0330(4)
O27 O 0.4485(9) 0.4110(9) 0.0739(4)
C32 C 0.0293(16) 0.1287(16) 0.4257(6)
C33 C 0.0578(14) 0.2252(13) 0.3857(6)
C34 C 0.0207(16) 0.3382(15) 0.3933(7)
C35 C 0.0504(15) 0.4261(14) 0.3540(7)
C36 C 0.015(2) 0.5475(18) 0.3629(10)
C37 C 0.1161(16) 0.3955(15) 0.3075(7)
H13 H 0.137393 0.454164 0.281273
C38 C 0.1490(13) 0.2830(13) 0.3002(5)
C39 C 0.1209(13) 0.1975(13) 0.3387(6)
H14 H 0.145019 0.118463 0.333239
C40 C 0.1898(14) 0.3392(14) 0.1907(6)
C41 C 0.0737(14) 0.3760(13) 0.1818(6)
H15 H 0.013266 0.355248 0.207280
C42 C 0.0460(14) 0.4437(15) 0.1354(7)
C44 C 0.1353(15) 0.4738(14) 0.0987(6)
H16 H 0.117149 0.519393 0.066810
C45 C 0.2511(13) 0.4372(13) 0.1086(6)
C46 C 0.3491(13) 0.4684(13) 0.0684(5)
C47 C 0.2802(14) 0.3675(13) 0.1543(6)
H17 H 0.359422 0.340324 0.160363
O36 O 0.5549(9) 0.6297(9) 0.0339(4)
O42 O 0.3051(10) 0.6188(9) 0.9187(4)
O43 O 0.5515(9) 0.5890(9) 0.9261(4)
Zn1 Zn 0.0409(2) 0.23323(18) 0.63853(8)
Zn2 Zn 0.68988(17) 0.23774(16) 0.12866(7)
Zn3 Zn 0.68383(17) 0.51101(17) 0.12568(7)
Zn5 Zn 0.0763(2) 0.88533(17) 0.46423(7)
S1 S 0.4405(5) 0.1036(4) 0.37397(17)
O1 O 0.1882(12) 0.1851(12) 0.5976(5)
O2 O 0.1169(12) 0.1079(13) 0.5343(5)
O3 O 0.6295(12) 0.1768(13) 0.5943(5)
O4 O 0.7390(11) 0.1405(12) 0.5208(5)
O5 O 0.3362(13) 0.6481(12) 0.3329(5)
O6 O 0.2958(15) 0.5438(13) 0.4079(5)
O7 O 0.5771(10) 0.4739(11) 0.1890(5)
O8 O 0.5860(10) 0.2835(10) 0.1897(4)
O9 O 0.8213(11) 0.1550(12) 0.1685(5)
O10 O 0.9133(12) 0.1928(14) 0.0911(5)
O17 O 0.0967(11) 0.7634(10) 0.4138(4)
O25 O 0.6949(10) 0.3812(9) 0.0813(4)
O26 O 0.173(3) 0.252(3) 0.6949(10)
N1 N 0.336(5) 0.174(5) 0.7458(18)
C1 C 0.1971(16) 0.1424(15) 0.5535(7)
C2 C 0.3200(17) 0.1437(15) 0.5238(7)
C3 C 0.4188(18) 0.1532(16) 0.5475(7)
H1 H 0.413164 0.163845 0.584087
C4 C 0.5276(16) 0.1479(16) 0.5198(7)
C5 C 0.6395(17) 0.1565(14) 0.5472(7)
C6 C 0.5331(15) 0.1330(14) 0.4671(6)
H2 H 0.606706 0.128356 0.447279
C7 C 0.4329(17) 0.1247(17) 0.4423(7)
C8 C 0.3265(17) 0.1275(16) 0.4709(7)
H3 H 0.258102 0.118359 0.454424
C9 C 0.4503(17) 0.2445(15) 0.3430(7)
C10 C 0.3956(15) 0.3402(15) 0.3653(6)
H4 H 0.354361 0.333031 0.399010
C11 C 0.4012(15) 0.4481(13) 0.3378(6)
C12 C 0.3384(16) 0.5529(16) 0.3619(8)
C13 C 0.4556(14) 0.4603(14) 0.2870(6)
H5 H 0.458218 0.534688 0.268395
C14 C 0.5037(13) 0.3648(15) 0.2654(6)
C15 C 0.5616(14) 0.3748(15) 0.2097(6)
C16 C 0.5023(16) 0.2555(15) 0.2923(6)
H6 H 0.536839 0.188578 0.275934
C17 C 0.9128(16) 0.1511(16) 0.1375(6)
H7 H 0.939826 0.022609 0.229686
C49 C 0.227(6) 0.179(7) 0.7175(19)
C50 C 0.376(6) 0.051(6) 0.776(2)
H19 H 0.328134 0.041139 0.809634
H20 H 0.458730 0.046767 0.783940
C51 C 0.418(8) 0.267(8) 0.756(4)
H22 H 0.473882 0.276487 0.725473
H23 H 0.460882 0.240617 0.787623
H24 H 0.370572 0.341067 0.761423
Zn14 Zn 0.7553(2) 0.23309(18) 0.62925(7)
Zn17 Zn 0.9237(2) 0.11467(17) 0.53577(7)
O29 O 0.3705(12) 0.8232(13) 0.4057(5)
O30 O 0.2610(11) 0.8595(12) 0.4792(5)
O34 O 0.6388(11) 0.1142(10) 0.0931(4)
O35 O 0.6561(10) 0.6753(10) 0.0974(4)
O38 O 0.0542(11) 0.8418(12) 0.5388(4)
O39 O 0.044(2) 0.4268(15) 0.5970(10)
O41 O 0.8384(10) 0.4776(11) 0.1595(5)
H25 H 0.193068 0.095818 0.718999
H21 H 0.367434 0.988656 0.754491
Zn9 Zn 0.9591(2) 0.76677(18) 0.36147(8)
O19 O 0.9458(11) 0.1582(12) 0.4612(4)
O20 O 0.956(2) 0.5732(15) 0.4030(10)
O23 O 0.8958(11) 0.5020(12) 0.0752(5)
H12 H 0.975458 0.357742 0.424632
C43 C 0.9183(17) 0.4794(16) 0.1217(7)
O28 O 0.8831(12) 0.8921(13) 0.4657(5)
O31 O 0.9910(10) 0.1095(10) 0.6915(4)
O37 O 0.9033(11) 0.2366(10) 0.5862(4)
O40 O 0.956(2) 0.3751(12) 0.6711(6)
O22 O 0.1616(10) 0.5224(11) 0.8405(5)
O23_2 O 0.1042(11) 0.4980(12) 0.9248(5)
H12_2 H 0.024542 0.642258 0.575368
C43_2 C 0.0817(17) 0.5206(16) 0.8783(7)
H21_2 H 0.632566 0.011344 0.245509
S1_2 S 0.5595(5) 0.8964(4) 0.62603(17)
O1_2 O 0.8118(12) 0.8149(12) 0.4024(5)
O5_2 O 0.6638(13) 0.3519(12) 0.6671(5)
O6_2 O 0.7042(15) 0.4562(13) 0.5921(5)
O7_2 O 0.4229(10) 0.5261(11) 0.8110(5)
O8_2 O 0.4140(10) 0.7165(10) 0.8103(4)
O9_2 O 0.1787(11) 0.8450(12) 0.8315(5)
O10_2 O 0.0867(12) 0.8072(14) 0.9089(5)
O26_2 O 0.827(3) 0.748(3) 0.3051(10)
N1_2 N 0.664(5) 0.826(5) 0.2542(18)
C1_2 C 0.8029(16) 0.8576(15) 0.4465(7)
C2_2 C 0.6800(17) 0.8563(15) 0.4762(7)
C3_2 C 0.5812(18) 0.8468(16) 0.4525(7)
H1_2 H 0.586836 0.836155 0.415913
C4_2 C 0.4724(16) 0.8521(16) 0.4802(7)
C5_2 C 0.3605(17) 0.8435(14) 0.4528(7)
C6_2 C 0.4669(15) 0.8670(14) 0.5329(6)
H2_2 H 0.393294 0.871644 0.552721
C7_2 C 0.5671(17) 0.8753(17) 0.5577(7)
C8_2 C 0.6735(17) 0.8725(16) 0.5291(7)
H3_2 H 0.741898 0.881641 0.545576
C9_2 C 0.5497(17) 0.7555(15) 0.6570(7)
C10_2 C 0.6044(15) 0.6598(15) 0.6347(6)
H4_2 H 0.645639 0.666969 0.600990
C11_2 C 0.5988(15) 0.5519(13) 0.6622(6)
C12_2 C 0.6616(16) 0.4471(16) 0.6381(8)
C13_2 C 0.5444(14) 0.5397(14) 0.7130(6)
H5_2 H 0.541782 0.465312 0.731605
C14_2 C 0.4963(13) 0.6352(15) 0.7346(6)
C15_2 C 0.4384(14) 0.6252(15) 0.7903(6)
C16_2 C 0.4977(16) 0.7445(15) 0.7077(6)
H6_2 H 0.463161 0.811422 0.724066
C17_2 C 0.0872(16) 0.8489(16) 0.8625(6)
H7_2 H 0.060174 0.977391 0.770314
C49_2 C 0.773(6) 0.821(7) 0.2825(19)
C50_2 C 0.624(6) 0.949(6) 0.224(2)
H19_2 H 0.671866 0.958861 0.190366
H20_2 H 0.541270 0.953233 0.216060
C51_2 C 0.582(8) 0.733(8) 0.244(4)
H22_2 H 0.526118 0.723513 0.274527
H23_2 H 0.539118 0.759383 0.212377
H24_2 H 0.629428 0.658933 0.238577
O32 O 0.7940(11) 0.1269(11) 0.6920(4)
H25_2 H 0.806932 0.904182 0.281001
O33 O 0.6439(10) 0.2134(9) 0.0130(4)
S3_2 S 0.7634(4) 0.7612(4) 0.75454(15)
O18_2 O 0.9205(11) 0.9669(10) 0.5774(4)
O24_2 O 0.6774(9) 0.4536(9) 0.9670(4)
C32_2 C 0.9707(16) 0.8713(16) 0.5743(6)
C33_2 C 0.9422(14) 0.7748(13) 0.6143(6)
C34_2 C 0.9793(16) 0.6618(15) 0.6067(7)
C35_2 C 0.9496(15) 0.5739(14) 0.6460(7)
C36_2 C 0.985(2) 0.4525(18) 0.6371(10)
C37_2 C 0.8839(16) 0.6045(15) 0.6925(7)
H13_2 H 0.862607 0.545836 0.718727
C38_2 C 0.8510(13) 0.7170(13) 0.6998(5)
C39_2 C 0.8791(13) 0.8025(13) 0.6613(6)
H14_2 H 0.854981 0.881537 0.666761
C40_2 C 0.8102(14) 0.6608(14) 0.8093(6)
C41_2 C 0.9263(14) 0.6240(13) 0.8182(6)
H15_2 H 0.986734 0.644752 0.792720
C42_2 C 0.9540(14) 0.5563(15) 0.8646(7)
C44_2 C 0.8647(15) 0.5262(14) 0.9013(6)
H16_2 H 0.882851 0.480607 0.933190
C45_2 C 0.7489(13) 0.5628(13) 0.8914(6)
C46_2 C 0.6509(13) 0.5316(13) 0.9316(5)
C47_2 C 0.7198(14) 0.6325(13) 0.8457(6)
H17_2 H 0.640578 0.659676 0.839637
C27_2 C 0.6478(13) 0.0142(14) 0.0170(6)
C28_2 C 0.6446(15) 0.1228(15) 0.0437(6)
C20_2 C 0.8832(15) 0.0297(14) 0.7661(6)
C21_2 C 0.8910(14) 0.0931(13) 0.7132(6)
C22_2 C 0.7732(15) 0.0218(14) 0.7932(6)
H8_2 H 0.704032 0.058698 0.778173
C26_2 C 0.6480(15) 0.0194(15) 0.9634(6)
H10_2 H 0.655209 0.091265 0.943124
C29_2 C 0.6362(15) 0.9065(16) 0.0473(7)
H11_2 H 0.635858 0.901558 0.084611
C30_2 C 0.6259(15) 0.8123(14) 0.0232(7)
C31_2 C 0.6076(15) 0.6958(14) 0.0530(6)
S2_2 S 0.6226(4) 0.9395(4) 0.86911(16)
C18_2 C 0.9773(14) 0.9119(14) 0.8390(6)
C19_2 C 0.9858(14) 0.9734(15) 0.7889(6)
C23_2 C 0.7673(15) 0.9592(14) 0.8423(6)
C24_2 C 0.8698(16) 0.9027(14) 0.8647(6)
H9_2 H 0.863707 0.858145 0.897872
C25_2 C 0.6380(14) 0.9244(14) 0.9385(6)
C48_2 C 0.6273(14) 0.8216(15) 0.9689(6)
H18_2 H 0.620700 0.754443 0.951795
loop_
_geom_bond_atom_site_label_1
_geom_bond_atom_site_label_2
_geom_bond_site_symmetry_1
_geom_bond_site_symmetry_2
S2 C23 1_555 1_555
C19 C18 1_555 1_555
C24 C18 1_555 1_555
H9 C24 1_555 1_555
C25 S2 1_555 1_555
C48 C25 1_555 1_555
H18 C48 1_555 1_555
C23 C24 1_555 1_555
O15 C31 1_555 1_555
O16 C31 1_555 1_555
H11 C29 1_555 1_555
C30 C29 1_555 1_555
C31 C30 1_555 1_555
Zn12 O15 1_555 1_555
O11 C21 1_555 1_555
O12 C21 1_555 1_555
C21 C20 1_555 1_555
C22 C20 1_555 1_555
H8 C22 1_555 1_555
H10 C26 1_555 1_555
Zn13 O12 1_555 1_555
O13 C28 1_555 1_555
O14 C28 1_555 1_555
C28 C27 1_555 1_555
Zn10 O14 1_555 1_555
Zn18 O13 1_555 1_555
S3 C38 1_555 1_555
O21 C36 1_555 1_555
O24 C46 1_555 1_555
O27 C46 1_555 1_555
C32 O18 1_555 1_555
C33 C32 1_555 1_555
C34 C33 1_555 1_555
C35 C34 1_555 1_555
C36 C35 1_555 1_555
C37 C35 1_555 1_555
H13 C37 1_555 1_555
C38 C37 1_555 1_555
C39 C33 1_555 1_555
H14 C39 1_555 1_555
C40 S3 1_555 1_555
C41 C40 1_555 1_555
H15 C41 1_555 1_555
C42 C41 1_555 1_555
C44 C42 1_555 1_555
H16 C44 1_555 1_555
C45 C44 1_555 1_555
C46 C45 1_555 1_555
C47 C40 1_555 1_555
H17 C47 1_555 1_555
Zn21 O27 1_555 1_555
C38 C39 1_555 1_555
C45 C47 1_555 1_555
O42 Zn18 1_555 1_555
O43 Zn18 1_555 1_555
Zn1 O1 1_555 1_555
Zn2 O8 1_555 1_555
Zn3 O7 1_555 1_555
Zn13 O5 1_555 1_555
Zn5 O17 1_555 1_555
S1 C7 1_555 1_555
O1 C1 1_555 1_555
O2 C1 1_555 1_555
O3 C5 1_555 1_555
O4 C5 1_555 1_555
O5 C12 1_555 1_555
O6 C12 1_555 1_555
O7 C15 1_555 1_555
O8 C15 1_555 1_555
O9 Zn2 1_555 1_555
O10 C17 1_555 1_555
O17 Zn13 1_555 1_555
O25 Zn2 1_555 1_555
O26 Zn1 1_555 1_555
N1 C49 1_555 1_555
C1 C2 1_555 1_555
C2 C3 1_555 1_555
C3 H1 1_555 1_555
C4 C3 1_555 1_555
C5 C4 1_555 1_555
C6 C4 1_555 1_555
H2 C6 1_555 1_555
C7 C6 1_555 1_555
C8 C2 1_555 1_555
H3 C8 1_555 1_555
C9 S1 1_555 1_555
C10 C9 1_555 1_555
H4 C10 1_555 1_555
C11 C10 1_555 1_555
C12 C11 1_555 1_555
C13 C11 1_555 1_555
H5 C13 1_555 1_555
C14 C13 1_555 1_555
C15 C14 1_555 1_555
C16 C9 1_555 1_555
H6 C16 1_555 1_555
C17 O9 1_555 1_555
C49 O26 1_555 1_555
C50 N1 1_555 1_555
H19 C50 1_555 1_555
H20 C50 1_555 1_555
C51 N1 1_555 1_555
H22 C51 1_555 1_555
H23 C51 1_555 1_555
H24 C51 1_555 1_555
Zn14 O3 1_555 1_555
Zn17 O4 1_555 1_555
Zn21 O25 1_555 1_555
O29 Zn13 1_555 1_555
O30 Zn5 1_555 1_555
O34 Zn2 1_555 1_555
O35 Zn3 1_555 1_555
O38 Zn5 1_555 1_555
O39 Zn1 1_555 1_555
O41 Zn3 1_555 1_555
Zn3 O25 1_555 1_555
C7 C8 1_555 1_555
C14 C16 1_555 1_555
C49 H25 1_555 1_555
O41 C43 1_555 1_555
O23 C43 1_555 1_555
Zn9 O20 1_555 1_555
Zn17 O19 1_555 1_555
Zn17 O37 1_555 1_555
O22 C43_2 1_555 1_555
O23_2 C43_2 1_555 1_555
Zn12 O22 1_555 1_555
Zn9 O1_2 1_555 1_555
Zn10 O8_2 1_555 1_555
Zn12 O7_2 1_555 1_555
Zn14 O5_2 1_555 1_555
S1_2 C7_2 1_555 1_555
O1_2 C1_2 1_555 1_555
O28 C1_2 1_555 1_555
O29 C5_2 1_555 1_555
O30 C5_2 1_555 1_555
O5_2 C12_2 1_555 1_555
O6_2 C12_2 1_555 1_555
O7_2 C15_2 1_555 1_555
O8_2 C15_2 1_555 1_555
O9_2 Zn10 1_555 1_555
O10_2 C17_2 1_555 1_555
O37 Zn14 1_555 1_555
O42 Zn10 1_555 1_555
O26_2 Zn9 1_555 1_555
N1_2 C49_2 1_555 1_555
C1_2 C2_2 1_555 1_555
C2_2 C3_2 1_555 1_555
C3_2 H1_2 1_555 1_555
C4_2 C3_2 1_555 1_555
C5_2 C4_2 1_555 1_555
C6_2 C4_2 1_555 1_555
H2_2 C6_2 1_555 1_555
C7_2 C6_2 1_555 1_555
C8_2 C2_2 1_555 1_555
H3_2 C8_2 1_555 1_555
C9_2 S1_2 1_555 1_555
C10_2 C9_2 1_555 1_555
H4_2 C10_2 1_555 1_555
C11_2 C10_2 1_555 1_555
C12_2 C11_2 1_555 1_555
C13_2 C11_2 1_555 1_555
H5_2 C13_2 1_555 1_555
C14_2 C13_2 1_555 1_555
C15_2 C14_2 1_555 1_555
C16_2 C9_2 1_555 1_555
H6_2 C16_2 1_555 1_555
C17_2 O9_2 1_555 1_555
C49_2 O26_2 1_555 1_555
C50_2 N1_2 1_555 1_555
H19_2 C50_2 1_555 1_555
H20_2 C50_2 1_555 1_555
C51_2 N1_2 1_555 1_555
H22_2 C51_2 1_555 1_555
H23_2 C51_2 1_555 1_555
H24_2 C51_2 1_555 1_555
O32 Zn14 1_555 1_555
Zn12 O42 1_555 1_555
C7_2 C8_2 1_555 1_555
C14_2 C16_2 1_555 1_555
C49_2 H25_2 1_555 1_555
O33 Zn21 1_555 1_555
S3_2 C38_2 1_555 1_555
O40 C36_2 1_555 1_555
O24_2 C46_2 1_555 1_555
O43 C46_2 1_555 1_555
C32_2 O18_2 1_555 1_555
C33_2 C32_2 1_555 1_555
C34_2 C33_2 1_555 1_555
C35_2 C34_2 1_555 1_555
C36_2 C35_2 1_555 1_555
C37_2 C35_2 1_555 1_555
H13_2 C37_2 1_555 1_555
C38_2 C37_2 1_555 1_555
C39_2 C33_2 1_555 1_555
H14_2 C39_2 1_555 1_555
C40_2 S3_2 1_555 1_555
C41_2 C40_2 1_555 1_555
H15_2 C41_2 1_555 1_555
C42_2 C41_2 1_555 1_555
C44_2 C42_2 1_555 1_555
H16_2 C44_2 1_555 1_555
C45_2 C44_2 1_555 1_555
C46_2 C45_2 1_555 1_555
C47_2 C40_2 1_555 1_555
H17_2 C47_2 1_555 1_555
C38_2 C39_2 1_555 1_555
C45_2 C47_2 1_555 1_555
O33 C28_2 1_555 1_555
O34 C28_2 1_555 1_555
C28_2 C27_2 1_555 1_555
O31 C21_2 1_555 1_555
O32 C21_2 1_555 1_555
C21_2 C20_2 1_555 1_555
C22_2 C20_2 1_555 1_555
H8_2 C22_2 1_555 1_555
H10_2 C26_2 1_555 1_555
O35 C31_2 1_555 1_555
O36 C31_2 1_555 1_555
H11_2 C29_2 1_555 1_555
C30_2 C29_2 1_555 1_555
C31_2 C30_2 1_555 1_555
S2_2 C23_2 1_555 1_555
C19_2 C18_2 1_555 1_555
C24_2 C18_2 1_555 1_555
H9_2 C24_2 1_555 1_555
C25_2 S2_2 1_555 1_555
C48_2 C25_2 1_555 1_555
H18_2 C48_2 1_555 1_555
C23_2 C24_2 1_555 1_555

#END
