
###############################################################################
#
# This file contains modified crystal structure data generated from the
# MOF subset of the Cambridge Structural Database (CSD) v543 
# hosted by the Cambridge Crystallographic Data Centre (CCDC).
#
# This work is licensed under the Creative Commons
# Attribution-NonCommercial-ShareAlike 4.0 International License.
# To view a copy of this license, visit
# http://creativecommons.org/licenses/by-nc-sa/4.0/
# or send a letter to
# Creative Commons, PO Box 1866, Mountain View, CA 94042, USA.
#
# CIF created using the CSD Python API on 29 September 2022
# The structure has been converted into the P1 space group
# The structure has a 3D framework
# The original CSD entry RUYJUR is in the monoclinic crystal system
# The framework has been calculated to contain at least 10.0% void space
# The void calculation uses a probe of radius 1.32A, grid spacing 0.4
#
###############################################################################

data_RUYJUR
_chemical_formula_moiety         '(C72 H72 Ag6 N24 O16)n'
_symmetry_cell_setting           triclinic
_symmetry_space_group_name_H-M   'P 1'
_symmetry_Int_Tables_number      1
_space_group_name_Hall           'P 1'
loop_
_symmetry_equiv_pos_site_id
_symmetry_equiv_pos_as_xyz
1 x,y,z
_cell_length_a                   11.742(4)
_cell_length_b                   10.703(4)
_cell_length_c                   18.894(6)
_cell_angle_alpha                90
_cell_angle_beta                 110.545(18)
_cell_angle_gamma                90
_cell_volume                     2223.47
loop_
_atom_site_label
_atom_site_type_symbol
_atom_site_fract_x
_atom_site_fract_y
_atom_site_fract_z
H12 H 0.0465 0.9090 0.2585
N3 N 0.0118(7) 0.6454(7) 0.0468(4)
H16 H 0.0691 0.5909 0.0620
C6 C 0.0108(8) 0.7278(8) 0.9942(5)
C7 C 0.1053(9) 0.8047(10) 0.9153(6)
H6 H 0.1666 0.8006 0.8949
C8 C 0.0212(10) 0.8978(10) 0.8912(6)
H7 H 0.0268 0.9578 0.8570
N6 N 0.1046(7) 0.7190(8) 0.9667(5)
Ag4 Ag 0.26233(7) 0.55067(7) 0.99663(4)
H5 H 0.6249 0.0683 0.0812
Ag6 Ag 0.73767(7) 0.05067(7) 0.50337(4)
C1 C 0.5036(8) 0.7110(9) 0.0018(5)
C2 C 0.4122(10) 0.7783(10) 0.0847(6)
H1 H 0.3561 0.7669 0.1087
C3 C 0.4899(10) 0.8789(10) 0.1056(6)
H2 H 0.4824 0.9384 0.1396
C4 C 0.5799(9) 0.8881(9) 0.0740(6)
C5 C 0.6672(10) 0.9901(11) 0.0941(6)
H3 H 0.7222 0.9815 0.0669
H4 H 0.7122 0.9879 0.1475
C11 C 0.7652(8) 0.6119(9) 0.1431(5)
C12 C 0.8198(9) 0.7146(9) 0.2008(5)
C13 C 0.9279(9) 0.7717(9) 0.2056(6)
H11 H 0.9698 0.7447 0.1748
C14 C 0.9747(10) 0.8697(10) 0.2563(6)
C15 C 0.9135(9) 0.9085(10) 0.3036(6)
H13 H 0.9444 0.9739 0.3372
C16 C 0.8050(9) 0.8489(9) 0.3006(5)
C17 C 0.7581(8) 0.7532(8) 0.2508(5)
H14 H 0.6868 0.7136 0.2492
C18 C 0.7440(8) 0.8887(8) 0.3558(5)
N2 N 0.5886(7) 0.8027(7) 0.0232(4)
H15 H 0.9550 0.6464 0.0657
N5 N 0.4131(7) 0.6960(7) 0.0314(4)
O1 O 0.8149(6) 0.5985(6) 0.0931(4)
O2 O 0.6788(7) 0.5515(7) 0.1462(4)
O3 O 0.6544(6) 0.8240(7) 0.3569(4)
O4 O 0.7871(7) 0.9786(7) 0.3982(4)
Ag3 Ag 0.75199(6) 0.70550(6) 0.49401(4)
Ag5 Ag 0.73767(7) 0.44933(7) 0.00337(4)
O7 O 0.2129(7) 0.4786(7) 0.1018(4)
Ag1 Ag 0.75199(6) 0.79450(6) 0.99401(4)
C9 C 0.9268(9) 0.8999(9) 0.9194(6)
C10 C 0.8268(12) 0.9964(12) 0.8966(7)
H8 H 0.7714 0.9807 0.9227
H9 H 0.7840 0.9918 0.8431
N1 N 0.9213(7) 0.8129(7) 0.9705(4)
N4 N 0.5045(7) 0.6314(7) 0.9483(5)
H17 H 0.5586 0.6383 0.9274
H18 H 0.4510 0.5730 0.9343
O5 O 0.1851(6) 0.4015(6) 0.9069(4)
O6 O 0.6544(6) 0.6760(7) 0.8569(4)
Ag1_2 Ag 0.24801(6) 0.29450(6) 0.50599(4)
C1_2 C 0.4964(8) 0.2110(9) 0.4982(5)
C2_2 C 0.5878(10) 0.2783(10) 0.4153(6)
H1_2 H 0.6439 0.2669 0.3913
C3_2 C 0.5101(10) 0.3789(10) 0.3944(6)
H2_2 H 0.5176 0.4384 0.3604
C4_2 C 0.4201(9) 0.3881(9) 0.4260(6)
C5_2 C 0.3328(10) 0.4901(11) 0.4059(6)
H3_2 H 0.2778 0.4815 0.4331
H4_2 H 0.2878 0.4879 0.3525
H5_2 H 0.3751 0.5683 0.4188
C9_2 C 0.0732(9) 0.3999(9) 0.5806(6)
C10_2 C 0.1732(12) 0.4964(12) 0.6034(7)
H8_2 H 0.2286 0.4807 0.5773
H9_2 H 0.2160 0.4918 0.6569
H10 H 0.1385 0.5782 0.5905
C11_2 C 0.2348(8) 0.1119(9) 0.3569(5)
C12_2 C 0.1802(9) 0.2146(9) 0.2992(5)
C13_2 C 0.0721(9) 0.2717(9) 0.2944(6)
H11_2 H 0.0302 0.2447 0.3252
C14_2 C 0.0253(10) 0.3697(10) 0.2437(6)
C15_2 C 0.0865(9) 0.4085(10) 0.1964(6)
H13_2 H 0.0556 0.4739 0.1628
C16_2 C 0.1950(9) 0.3489(9) 0.1994(5)
C17_2 C 0.2419(8) 0.2532(8) 0.2492(5)
H14_2 H 0.3132 0.2136 0.2508
C18_2 C 0.2560(8) 0.3887(8) 0.1442(5)
N1_2 N 0.0787(7) 0.3129(7) 0.5295(4)
N2_2 N 0.4114(7) 0.3027(7) 0.4768(4)
H15_2 H 0.0450 0.1464 0.4343
N4_2 N 0.4955(7) 0.1314(7) 0.5517(5)
H17_2 H 0.4414 0.1383 0.5726
H18_2 H 0.5490 0.0730 0.5657
N5_2 N 0.5869(7) 0.1960(7) 0.4686(4)
O1_2 O 0.1851(6) 0.0985(6) 0.4069(4)
O2_2 O 0.3212(7) 0.0515(7) 0.3538(4)
O3_2 O 0.3456(6) 0.3240(7) 0.1431(4)
Ag3_2 Ag 0.24801(6) 0.20550(6) 0.00599(4)
N7 N 0.8954(7) 0.2190(8) 0.5333(5)
O6_2 O 0.3456(6) 0.1760(7) 0.6431(4)
Ag5_2 Ag 0.26233(7) 0.94933(7) 0.49663(4)
O5_2 O 0.8149(6) 0.9015(6) 0.5931(4)
C6_2 C 0.9892(8) 0.2278(8) 0.5058(5)
C7_2 C 0.8947(9) 0.3047(10) 0.5847(6)
H6_2 H 0.8334 0.3006 0.6051
C8_2 C 0.9788(10) 0.3978(10) 0.6088(6)
H7_2 H 0.9732 0.4578 0.6430
H12_2 H 0.9535 0.4090 0.2415
N3_2 N 0.9882(7) 0.1454(7) 0.4532(4)
H16_2 H 0.9309 0.0909 0.4380
C9_3 C 0.0732(9) 0.1001(9) 0.0806(6)
C10_3 C 0.1732(12) 0.0036(12) 0.1034(7)
H8_3 H 0.2286 0.0193 0.0773
H9_3 H 0.2160 0.0082 0.1569
N1_3 N 0.0787(7) 0.1871(7) 0.0295(4)
N4_3 N 0.4955(7) 0.3686(7) 0.0517(5)
H17_3 H 0.4414 0.3617 0.0726
H18_3 H 0.5490 0.4270 0.0657
N7_2 N 0.8954(7) 0.2810(8) 0.0333(5)
C1_3 C 0.4964(8) 0.2890(9) 0.9982(5)
C2_3 C 0.5878(10) 0.2217(10) 0.9153(6)
H1_3 H 0.6439 0.2331 0.8913
C3_3 C 0.5101(10) 0.1211(10) 0.8944(6)
H2_3 H 0.5176 0.0616 0.8604
C4_3 C 0.4201(9) 0.1119(9) 0.9260(6)
C5_3 C 0.3328(10) 0.0099(11) 0.9059(6)
H3_3 H 0.2778 0.0185 0.9331
H4_3 H 0.2878 0.0121 0.8525
C11_3 C 0.2348(8) 0.3881(9) 0.8569(5)
C12_3 C 0.1802(9) 0.2854(9) 0.7992(5)
C13_3 C 0.0721(9) 0.2283(9) 0.7944(6)
H11_3 H 0.0302 0.2553 0.8252
C14_3 C 0.0253(10) 0.1303(10) 0.7437(6)
C15_3 C 0.0865(9) 0.0915(10) 0.6964(6)
H13_3 H 0.0556 0.0261 0.6628
C16_3 C 0.1950(9) 0.1511(9) 0.6994(5)
C17_3 C 0.2419(8) 0.2468(8) 0.7492(5)
H14_3 H 0.3132 0.2864 0.7508
C18_3 C 0.2560(8) 0.1113(8) 0.6442(5)
N2_3 N 0.4114(7) 0.1973(7) 0.9768(4)
H15_3 H 0.0450 0.3536 0.9343
N5_3 N 0.5869(7) 0.3040(7) 0.9686(4)
O2_3 O 0.3212(7) 0.4485(7) 0.8538(4)
O4_2 O 0.2129(7) 0.0214(7) 0.6018(4)
O7_2 O 0.7871(7) 0.5214(7) 0.8982(4)
H5_3 H 0.3751 0.9317 0.9188
C6_3 C 0.9892(8) 0.2722(8) 0.0058(5)
C7_3 C 0.8947(9) 0.1953(10) 0.0847(6)
H6_3 H 0.8334 0.1994 0.1051
C8_3 C 0.9788(10) 0.1022(10) 0.1088(6)
H7_3 H 0.9732 0.0422 0.1430
C6_4 C 0.0108(8) 0.7722(8) 0.4942(5)
C7_4 C 0.1053(9) 0.6953(10) 0.4153(6)
H6_4 H 0.1666 0.6994 0.3949
C8_4 C 0.0212(10) 0.6022(10) 0.3912(6)
H7_4 H 0.0268 0.5422 0.3570
H12_3 H 0.0465 0.5910 0.7585
N3_3 N 0.0118(7) 0.8546(7) 0.5468(4)
H16_3 H 0.0691 0.9091 0.5620
N6_2 N 0.1046(7) 0.7810(8) 0.4667(5)
C1_4 C 0.5036(8) 0.7890(9) 0.5018(5)
C2_4 C 0.4122(10) 0.7217(10) 0.5847(6)
H1_4 H 0.3561 0.7331 0.6087
C3_4 C 0.4899(10) 0.6211(10) 0.6056(6)
H2_4 H 0.4824 0.5616 0.6396
C4_4 C 0.5799(9) 0.6119(9) 0.5740(6)
C5_4 C 0.6672(10) 0.5099(11) 0.5941(6)
H3_4 H 0.7222 0.5185 0.5669
H4_4 H 0.7122 0.5121 0.6475
H5_4 H 0.6249 0.4317 0.5812
C9_4 C 0.9268(9) 0.6001(9) 0.4194(6)
C10_4 C 0.8268(12) 0.5036(12) 0.3966(7)
H8_4 H 0.7714 0.5193 0.4227
H9_4 H 0.7840 0.5082 0.3431
H10_2 H 0.8615 0.4218 0.4095
C11_4 C 0.7652(8) 0.8881(9) 0.6431(5)
C12_4 C 0.8198(9) 0.7854(9) 0.7008(5)
C13_4 C 0.9279(9) 0.7283(9) 0.7056(6)
H11_4 H 0.9698 0.7553 0.6748
C14_4 C 0.9747(10) 0.6303(10) 0.7563(6)
C15_4 C 0.9135(9) 0.5915(10) 0.8036(6)
H13_4 H 0.9444 0.5261 0.8372
C16_4 C 0.8050(9) 0.6511(9) 0.8006(5)
C17_4 C 0.7581(8) 0.7468(8) 0.7508(5)
H14_4 H 0.6868 0.7864 0.7492
C18_4 C 0.7440(8) 0.6113(8) 0.8558(5)
N1_4 N 0.9213(7) 0.6871(7) 0.4705(4)
N2_4 N 0.5886(7) 0.6973(7) 0.5232(4)
H15_4 H 0.9550 0.8536 0.5657
N4_4 N 0.5045(7) 0.8686(7) 0.4483(5)
H17_4 H 0.5586 0.8617 0.4274
H18_4 H 0.4510 0.9270 0.4343
N5_4 N 0.4131(7) 0.8040(7) 0.5314(4)
O2_4 O 0.6788(7) 0.9485(7) 0.6462(4)
H10_3 H 0.8615 0.0782 0.9095
H10_4 H 0.1385 0.9218 0.0905
H12_4 H 0.9535 0.0910 0.7415
N3_4 N 0.9882(7) 0.3546(7) 0.9532(4)
H16_4 H 0.9309 0.4091 0.9380
loop_
_geom_bond_atom_site_label_1
_geom_bond_atom_site_label_2
_geom_bond_site_symmetry_1
_geom_bond_site_symmetry_2
H16 N3 1_555 1_555
C7 H6 1_555 1_555
C8 C7 1_555 1_555
H7 C8 1_555 1_555
N6 C6 1_555 1_555
Ag4 N6 1_555 1_555
C7 N6 1_555 1_555
C1 N2 1_555 1_555
C2 H1 1_555 1_555
C3 C2 1_555 1_555
H2 C3 1_555 1_555
C4 C3 1_555 1_555
C5 C4 1_555 1_555
H3 C5 1_555 1_555
H4 C5 1_555 1_555
C11 C12 1_555 1_555
C12 C13 1_555 1_555
C13 H11 1_555 1_555
C14 C13 1_555 1_555
C15 C14 1_555 1_555
H13 C15 1_555 1_555
C16 C15 1_555 1_555
C17 C12 1_555 1_555
H14 C17 1_555 1_555
C18 C16 1_555 1_555
N5 C1 1_555 1_555
O2 C11 1_555 1_555
O3 C18 1_555 1_555
O4 C18 1_555 1_555
Ag3 O3 1_555 1_555
Ag5 O1 1_555 1_555
C2 N5 1_555 1_555
C4 N2 1_555 1_555
C11 O1 1_555 1_555
C16 C17 1_555 1_555
Ag1 N1 1_555 1_555
C10 C9 1_555 1_555
H8 C10 1_555 1_555
H9 C10 1_555 1_555
N1 C9 1_555 1_555
H17 N4 1_555 1_555
H18 N4 1_555 1_555
O5 Ag4 1_555 1_555
O6 Ag1 1_555 1_555
Ag1_2 N1_2 1_555 1_555
Ag6 N5_2 1_555 1_555
C1_2 N2_2 1_555 1_555
C2_2 H1_2 1_555 1_555
C3_2 C2_2 1_555 1_555
H2_2 C3_2 1_555 1_555
C4_2 C3_2 1_555 1_555
C5_2 C4_2 1_555 1_555
H3_2 C5_2 1_555 1_555
H4_2 C5_2 1_555 1_555
H5_2 C5_2 1_555 1_555
C10_2 C9_2 1_555 1_555
H8_2 C10_2 1_555 1_555
H9_2 C10_2 1_555 1_555
H10 C10_2 1_555 1_555
C11_2 C12_2 1_555 1_555
C12_2 C13_2 1_555 1_555
C13_2 H11_2 1_555 1_555
C14_2 C13_2 1_555 1_555
C15_2 C14_2 1_555 1_555
H13_2 C15_2 1_555 1_555
C16_2 C15_2 1_555 1_555
C17_2 C12_2 1_555 1_555
H14_2 C17_2 1_555 1_555
C18_2 C16_2 1_555 1_555
N1_2 C9_2 1_555 1_555
N2_2 Ag1_2 1_555 1_555
N4_2 C1_2 1_555 1_555
H17_2 N4_2 1_555 1_555
H18_2 N4_2 1_555 1_555
N5_2 C1_2 1_555 1_555
O1_2 Ag1_2 1_555 1_555
O2_2 C11_2 1_555 1_555
O3_2 C18_2 1_555 1_555
O7 C18_2 1_555 1_555
Ag3_2 O3_2 1_555 1_555
N7 Ag6 1_555 1_555
O6_2 Ag1_2 1_555 1_555
C2_2 N5_2 1_555 1_555
C4_2 N2_2 1_555 1_555
C11_2 O1_2 1_555 1_555
C16_2 C17_2 1_555 1_555
C7_2 H6_2 1_555 1_555
C8_2 C7_2 1_555 1_555
H7_2 C8_2 1_555 1_555
N3_2 C6_2 1_555 1_555
H16_2 N3_2 1_555 1_555
N7 C6_2 1_555 1_555
C7_2 N7 1_555 1_555
Ag3_2 N1_3 1_555 1_555
C10_3 C9_3 1_555 1_555
H8_3 C10_3 1_555 1_555
H9_3 C10_3 1_555 1_555
N1_3 C9_3 1_555 1_555
H17_3 N4_3 1_555 1_555
H18_3 N4_3 1_555 1_555
N7_2 Ag5 1_555 1_555
C1_3 N2_3 1_555 1_555
C2_3 H1_3 1_555 1_555
C3_3 C2_3 1_555 1_555
H2_3 C3_3 1_555 1_555
C4_3 C3_3 1_555 1_555
C5_3 C4_3 1_555 1_555
H3_3 C5_3 1_555 1_555
H4_3 C5_3 1_555 1_555
C11_3 C12_3 1_555 1_555
C12_3 C13_3 1_555 1_555
C13_3 H11_3 1_555 1_555
C14_3 C13_3 1_555 1_555
C15_3 C14_3 1_555 1_555
H13_3 C15_3 1_555 1_555
C16_3 C15_3 1_555 1_555
C17_3 C12_3 1_555 1_555
H14_3 C17_3 1_555 1_555
C18_3 C16_3 1_555 1_555
N5_3 C1_3 1_555 1_555
O2_3 C11_3 1_555 1_555
O6_2 C18_3 1_555 1_555
O4_2 C18_3 1_555 1_555
C2_3 N5_3 1_555 1_555
C4_3 N2_3 1_555 1_555
C11_3 O5 1_555 1_555
C16_3 C17_3 1_555 1_555
C7_3 H6_3 1_555 1_555
C8_3 C7_3 1_555 1_555
H7_3 C8_3 1_555 1_555
N7_2 C6_3 1_555 1_555
C7_3 N7_2 1_555 1_555
C7_4 H6_4 1_555 1_555
C8_4 C7_4 1_555 1_555
H7_4 C8_4 1_555 1_555
N3_3 C6_4 1_555 1_555
H16_3 N3_3 1_555 1_555
N6_2 C6_4 1_555 1_555
Ag5_2 N6_2 1_555 1_555
C7_4 N6_2 1_555 1_555
Ag3 N1_4 1_555 1_555
Ag5_2 N5_4 1_555 1_555
C1_4 N2_4 1_555 1_555
C2_4 H1_4 1_555 1_555
C3_4 C2_4 1_555 1_555
H2_4 C3_4 1_555 1_555
C4_4 C3_4 1_555 1_555
C5_4 C4_4 1_555 1_555
H3_4 C5_4 1_555 1_555
H4_4 C5_4 1_555 1_555
H5_4 C5_4 1_555 1_555
C10_4 C9_4 1_555 1_555
H8_4 C10_4 1_555 1_555
H9_4 C10_4 1_555 1_555
H10_2 C10_4 1_555 1_555
C11_4 C12_4 1_555 1_555
C12_4 C13_4 1_555 1_555
C13_4 H11_4 1_555 1_555
C14_4 C13_4 1_555 1_555
C15_4 C14_4 1_555 1_555
H13_4 C15_4 1_555 1_555
C16_4 C15_4 1_555 1_555
C17_4 C12_4 1_555 1_555
H14_4 C17_4 1_555 1_555
C18_4 C16_4 1_555 1_555
N1_4 C9_4 1_555 1_555
N2_4 Ag3 1_555 1_555
N4_4 C1_4 1_555 1_555
H17_4 N4_4 1_555 1_555
H18_4 N4_4 1_555 1_555
N5_4 C1_4 1_555 1_555
O5_2 Ag3 1_555 1_555
O2_4 C11_4 1_555 1_555
O6 C18_4 1_555 1_555
O7_2 C18_4 1_555 1_555
C2_4 N5_4 1_555 1_555
C4_4 N2_4 1_555 1_555
C11_4 O5_2 1_555 1_555
C16_4 C17_4 1_555 1_555
H16_4 N3_4 1_555 1_555

#END
