
###############################################################################
#
# This file contains modified crystal structure data generated from the
# MOF subset of the Cambridge Structural Database (CSD) v543 
# hosted by the Cambridge Crystallographic Data Centre (CCDC).
#
# This work is licensed under the Creative Commons
# Attribution-NonCommercial-ShareAlike 4.0 International License.
# To view a copy of this license, visit
# http://creativecommons.org/licenses/by-nc-sa/4.0/
# or send a letter to
# Creative Commons, PO Box 1866, Mountain View, CA 94042, USA.
#
# CIF created using the CSD Python API on 29 September 2022
# The structure has been converted into the P1 space group
# The structure has a 3D framework
# The original CSD entry SABVUN is in the orthorhombic crystal system
# The framework has been calculated to contain at least 10.0% void space
# The void calculation uses a probe of radius 1.32A, grid spacing 0.4
# H atom positions have been added when not included in the experimental data
#
###############################################################################

data_SABVUN
_chemical_formula_moiety         '(C40 H16 Al3 O18)n'
_symmetry_cell_setting           triclinic
_symmetry_space_group_name_H-M   'P 1'
_symmetry_Int_Tables_number      1
_space_group_name_Hall           'P 1'
loop_
_symmetry_equiv_pos_site_id
_symmetry_equiv_pos_as_xyz
1 x,y,z
_cell_length_a                   6.6085(9)
_cell_length_b                   16.675(3)
_cell_length_c                   12.813(2)
_cell_angle_alpha                90
_cell_angle_beta                 90
_cell_angle_gamma                90
_cell_volume                     1411.95
loop_
_atom_site_label
_atom_site_type_symbol
_atom_site_fract_x
_atom_site_fract_y
_atom_site_fract_z
Al1 Al 0.250 0.2500 0.7500
O1 O 0.000 0.2500 0.693(1)
O2 O 0.156(1) 0.1670(4) 0.8417(6)
C2 C 0.000 0.060(1) 0.957(2)
C3 C -0.000 0.1292(9) 0.883(1)
C7 C 0.192(1) 0.0362(7) 0.974(1)
O6 O 0.500 0.2500 0.807(1)
O7 O 0.344(1) 0.1670(4) 0.6583(6)
O8 O 0.156(1) 0.3330(4) 0.8417(6)
O9 O 0.344(1) 0.3330(4) 0.6583(6)
H4 H 0.326685 0.069123 0.950288
C5 C 0.000 0.940(1) 0.043(2)
C6 C 0.192(1) 0.9638(7) 0.026(1)
C8 C 0.000 0.8708(9) 0.117(1)
O4 O 0.156(1) 0.8330(4) 0.1583(6)
Al3 Al 0.250 0.7500 0.2500
H3 H 0.326685 0.930877 0.0497122
O1_2 O 1.000 0.2500 0.693(1)
C1 C 0.808(1) 0.0362(7) 0.974(1)
C2_2 C 1.000 0.060(1) 0.957(2)
C3_2 C 1.000 0.1292(9) 0.883(1)
O3 O 0.844(1) 0.1670(4) 0.8417(6)
Al2 Al 0.750 0.2500 0.7500
H2 H 0.673315 0.069123 0.950288
C4 C 0.808(1) 0.9638(7) 0.026(1)
C5_2 C 1.000 0.940(1) 0.043(2)
C8_2 C 1.000 0.8708(9) 0.117(1)
O5 O 0.844(1) 0.8330(4) 0.1583(6)
Al4 Al 0.750 0.7500 0.2500
H1 H 0.673315 0.930877 0.0497122
C4_2 C 0.192(1) 0.5362(7) 0.026(1)
C5_3 C 0.000 0.560(1) 0.043(2)
C8_3 C 0.000 0.6292(9) 0.117(1)
O5_2 O 0.156(1) 0.6670(4) 0.1583(6)
H1_2 H 0.326685 0.569123 0.0497122
C1_2 C 0.192(1) 0.4638(7) 0.974(1)
C2_3 C 0.000 0.440(1) 0.957(2)
C3_3 C 0.000 0.3708(9) 0.883(1)
H2_2 H 0.326685 0.430877 0.950288
C5_4 C 1.000 0.560(1) 0.043(2)
C6_2 C 0.808(1) 0.5362(7) 0.026(1)
C8_4 C 1.000 0.6292(9) 0.117(1)
O4_2 O 0.844(1) 0.6670(4) 0.1583(6)
H3_2 H 0.673315 0.569123 0.0497122
O2_2 O 0.844(1) 0.3330(4) 0.8417(6)
C2_4 C 1.000 0.440(1) 0.957(2)
C3_4 C 1.000 0.3708(9) 0.883(1)
C7_2 C 0.808(1) 0.4638(7) 0.974(1)
O7_2 O 0.656(1) 0.3330(4) 0.6583(6)
O9_2 O 0.656(1) 0.1670(4) 0.6583(6)
H4_2 H 0.673315 0.430877 0.950288
O1_3 O 0.000 0.7500 0.307(1)
O6_2 O 0.500 0.7500 0.193(1)
O7_3 O 0.344(1) 0.8330(4) 0.3417(6)
O9_3 O 0.344(1) 0.6670(4) 0.3417(6)
O1_4 O 1.000 0.7500 0.307(1)
O7_4 O 0.656(1) 0.6670(4) 0.3417(6)
O9_4 O 0.656(1) 0.8330(4) 0.3417(6)
C1_3 C 0.308(1) 0.5362(7) 0.474(1)
C2_5 C 0.500 0.560(1) 0.457(2)
C3_5 C 0.500 0.6292(9) 0.383(1)
C4_3 C 0.308(1) 0.4638(7) 0.526(1)
C5_5 C 0.500 0.440(1) 0.543(2)
C6_3 C 0.692(1) 0.4638(7) 0.526(1)
C7_3 C 0.692(1) 0.5362(7) 0.474(1)
C8_5 C 0.500 0.3708(9) 0.617(1)
H1_3 H 0.173315 0.430877 0.549712
H2_3 H 0.173315 0.569123 0.450288
H3_3 H 0.826685 0.430877 0.549712
H4_3 H 0.826685 0.569123 0.450288
C4_4 C 0.692(1) 0.0362(7) 0.526(1)
C5_6 C 0.500 0.060(1) 0.543(2)
C6_4 C 0.308(1) 0.0362(7) 0.526(1)
C8_6 C 0.500 0.1292(9) 0.617(1)
H1_4 H 0.826685 0.069123 0.549712
H3_4 H 0.173315 0.069123 0.549712
C1_4 C 0.692(1) 0.9638(7) 0.474(1)
C2_6 C 0.500 0.940(1) 0.457(2)
C3_6 C 0.500 0.8708(9) 0.383(1)
C7_4 C 0.308(1) 0.9638(7) 0.474(1)
H2_4 H 0.826685 0.930877 0.450288
H4_4 H 0.173315 0.930877 0.450288
loop_
_geom_bond_atom_site_label_1
_geom_bond_atom_site_label_2
_geom_bond_site_symmetry_1
_geom_bond_site_symmetry_2
Al1 O1 1_555 1_555
O2 Al1 1_555 1_555
C2 C3 1_555 1_555
C3 O2 1_555 1_555
C7 C2 1_555 1_555
O6 Al1 1_555 1_555
O7 Al1 1_555 1_555
O8 Al1 1_555 1_555
O9 Al1 1_555 1_555
C7 H4 1_555 1_555
C6 C5 1_555 1_555
C8 C5 1_555 1_555
O4 C8 1_555 1_555
Al3 O4 1_555 1_555
C6 H3 1_555 1_555
O1_2 Al2 1_555 1_555
C1 C2_2 1_555 1_555
C2_2 C3_2 1_555 1_555
O3 C3_2 1_555 1_555
Al2 O3 1_555 1_555
C1 H2 1_555 1_555
C5_2 C4 1_555 1_555
C8_2 C5_2 1_555 1_555
O5 C8_2 1_555 1_555
Al4 O5 1_555 1_555
C4 H1 1_555 1_555
C5_3 C4_2 1_555 1_555
C8_3 C5_3 1_555 1_555
O5_2 C8_3 1_555 1_555
Al3 O5_2 1_555 1_555
C4_2 H1_2 1_555 1_555
C1_2 C2_3 1_555 1_555
C2_3 C3_3 1_555 1_555
O8 C3_3 1_555 1_555
C1_2 H2_2 1_555 1_555
C6_2 C5_4 1_555 1_555
C8_4 C5_4 1_555 1_555
O4_2 C8_4 1_555 1_555
Al4 O4_2 1_555 1_555
C6_2 H3_2 1_555 1_555
O2_2 Al2 1_555 1_555
C2_4 C3_4 1_555 1_555
C3_4 O2_2 1_555 1_555
C7_2 C2_4 1_555 1_555
O6 Al2 1_555 1_555
O7_2 Al2 1_555 1_555
O9_2 Al2 1_555 1_555
C7_2 H4_2 1_555 1_555
Al3 O1_3 1_555 1_555
O6_2 Al3 1_555 1_555
O7_3 Al3 1_555 1_555
O9_3 Al3 1_555 1_555
O1_4 Al4 1_555 1_555
O6_2 Al4 1_555 1_555
O7_4 Al4 1_555 1_555
O9_4 Al4 1_555 1_555
C1_3 C2_5 1_555 1_555
C2_5 C3_5 1_555 1_555
C3_5 O7_4 1_555 1_555
O9_3 C3_5 1_555 1_555
C4_3 C1_3 1_555 1_555
C5_5 C4_3 1_555 1_555
C6_3 C5_5 1_555 1_555
C7_3 C2_5 1_555 1_555
C8_5 C5_5 1_555 1_555
O7_2 C8_5 1_555 1_555
O9 C8_5 1_555 1_555
C6_3 C7_3 1_555 1_555
C4_3 H1_3 1_555 1_555
C1_3 H2_3 1_555 1_555
C6_3 H3_3 1_555 1_555
C7_3 H4_3 1_555 1_555
C5_6 C4_4 1_555 1_555
C6_4 C5_6 1_555 1_555
C8_6 C5_6 1_555 1_555
O7 C8_6 1_555 1_555
O9_2 C8_6 1_555 1_555
C4_4 H1_4 1_555 1_555
C6_4 H3_4 1_555 1_555
C1_4 C2_6 1_555 1_555
C2_6 C3_6 1_555 1_555
C3_6 O7_3 1_555 1_555
O9_4 C3_6 1_555 1_555
C7_4 C2_6 1_555 1_555
C1_4 H2_4 1_555 1_555
C7_4 H4_4 1_555 1_555

#END
