
###############################################################################
#
# This file contains modified crystal structure data generated from the
# MOF subset of the Cambridge Structural Database (CSD) v543 
# hosted by the Cambridge Crystallographic Data Centre (CCDC).
#
# This work is licensed under the Creative Commons
# Attribution-NonCommercial-ShareAlike 4.0 International License.
# To view a copy of this license, visit
# http://creativecommons.org/licenses/by-nc-sa/4.0/
# or send a letter to
# Creative Commons, PO Box 1866, Mountain View, CA 94042, USA.
#
# CIF created using the CSD Python API on 29 September 2022
# The structure has been converted into the P1 space group
# The structure has a 3D framework
# The original CSD entry SABWUQ is in the triclinic crystal system
# The framework has been calculated to contain at least 10.0% void space
# The void calculation uses a probe of radius 1.32A, grid spacing 0.4
#
###############################################################################

data_SABWUQ
_chemical_formula_moiety         '(C32 H20 Cu2 Dy2 N4 O26)n'
_symmetry_cell_setting           triclinic
_symmetry_space_group_name_H-M   'P 1'
_symmetry_Int_Tables_number      1
_space_group_name_Hall           'P 1'
loop_
_symmetry_equiv_pos_site_id
_symmetry_equiv_pos_as_xyz
1 x,y,z
_cell_length_a                   10.425(2)
_cell_length_b                   10.620(2)
_cell_length_c                   11.323(2)
_cell_angle_alpha                83.41(3)
_cell_angle_beta                 74.96(3)
_cell_angle_gamma                69.67(3)
_cell_volume                     1134.83
loop_
_atom_site_label
_atom_site_type_symbol
_atom_site_fract_x
_atom_site_fract_y
_atom_site_fract_z
O11 O 0.1760(4) 0.2477(5) 0.1588(3)
N2 N 0.1692(4) 0.2613(5) 0.0520(4)
C13 C 0.0282(4) 0.3251(4) 0.0246(4)
O7 O 0.0029(3) 0.4411(3) 0.6695(3)
O12 O 0.2711(4) 0.2341(6) 0.9679(4)
C14 C 0.0247(4) 0.3571(4) 0.9046(4)
H6 H 0.1073 0.3384 0.8434
Cu3 Cu -0.0000 0.5000 0.5000
O3 O 0.2829(4) 0.2491(3) 0.4396(3)
O4 O 0.0514(4) 0.3187(3) 0.4545(3)
C3 C 0.1755(4) 0.0950(4) 0.4108(3)
C4 C 0.0678(4) 0.0867(4) 0.3638(4)
C8 C 0.1712(4) 0.2318(4) 0.4371(4)
O19 O 0.1287(5) 0.9373(4) 0.7377(6)
H12 H 0.0059 0.8367 0.6480
Dy8 Dy 0.413011(17) 0.402716(16) 0.368252(15)
O9 O 0.5290(3) 0.4814(4) 0.1649(3)
O10 O 0.6583(3) 0.3912(3) 0.2978(3)
C11 C 0.7793(4) 0.4099(4) 0.0905(4)
C12 C 0.9099(5) 0.3494(4) 0.1189(4)
H5 H 0.9168 0.3261 0.1993
C16 C 0.6480(4) 0.4304(4) 0.1899(4)
Dy1 Dy 0.586989(17) 0.597284(16) 0.631748(15)
O1 O 0.3966(3) 0.6168(3) 0.4051(3)
O2 O 0.4716(3) 0.7417(3) 0.4964(3)
O8 O 0.7708(3) 0.4962(4) 0.7198(3)
O13 O 0.5010(5) 0.7710(5) 0.7735(4)
O14 O 0.7454(3) 0.5241(3) 0.4389(3)
C1 C 0.2814(4) 0.8528(4) 0.4060(3)
C2 C 0.2821(4) 0.9780(4) 0.4314(4)
H1 H 0.3543 0.9834 0.4624
C5 C 0.0732(4) 0.9620(4) 0.3354(4)
C6 C 0.1775(4) 0.8439(4) 0.3553(4)
H3 H 0.1778 0.7613 0.3353
C7 C 0.3919(4) 0.7272(4) 0.4373(3)
C9 C 0.8943(4) 0.4182(4) 0.8766(3)
C10 C 0.7718(4) 0.4439(4) 0.9695(4)
H4 H 0.6846 0.4840 0.9506
C15 C 0.8879(4) 0.4554(4) 0.7464(3)
H7 H 0.4688 0.7600 0.8547
H8 H 0.4615 0.8592 0.7626
H9 H 0.7351 0.4697 0.3905
H10 H 0.7647 0.5870 0.3851
Cu3_2 Cu 1.0000 0.5000 0.5000
O30 O 0.6034(3) 0.3832(3) 0.5949(3)
O32 O 0.7171(4) 0.7509(3) 0.5604(3)
O36 O 0.4710(3) 0.5186(4) 0.8351(3)
O38 O 0.3417(3) 0.6088(3) 0.7022(3)
O16 O 0.5284(3) 0.2583(3) 0.5036(3)
O22 O 0.2292(3) 0.5038(4) 0.2802(3)
O27 O 0.4990(5) 0.2290(5) 0.2265(4)
O28 O 0.2546(3) 0.4759(3) 0.5611(3)
C17 C 0.7186(4) 0.1472(4) 0.5940(3)
C18 C 0.7179(4) 0.0220(4) 0.5686(4)
H11 H 0.6457 0.0166 0.5376
C21 C 0.9268(4) 0.0380(4) 0.6646(4)
C22 C 0.8225(4) 0.1561(4) 0.6447(4)
H13 H 0.8222 0.2387 0.6647
C23 C 0.6081(4) 0.2728(4) 0.5627(3)
C25 C 0.1057(4) 0.5818(4) 0.1234(3)
C26 C 0.2282(4) 0.5561(4) 0.0305(4)
H14 H 0.3154 0.5160 0.0494
C31 C 0.1121(4) 0.5446(4) 0.2536(3)
H17 H 0.5312 0.2400 0.1453
H18 H 0.5385 0.1408 0.2374
H19 H 0.2649 0.5303 0.6095
H20 H 0.2353 0.4130 0.6149
C27 C 0.2207(4) 0.5901(4) 0.9095(4)
C28 C 0.0901(5) 0.6506(4) 0.8811(4)
H15 H 0.0832 0.6739 0.8007
C32 C 0.3520(4) 0.5696(4) 0.8101(4)
O5 O 0.8713(5) 0.0627(4) 0.2623(6)
H2 H 0.9941 0.1633 0.3520
O18 O 0.9486(4) 0.6813(3) 0.5455(3)
C19 C 0.8245(4) 0.9050(4) 0.5892(3)
C20 C 0.9322(4) 0.9133(4) 0.6362(4)
C24 C 0.8288(4) 0.7682(4) 0.5629(4)
O34 O 0.9971(3) 0.5589(3) 0.3305(3)
O26 O 0.7289(4) 0.7659(6) 0.0321(4)
C30 C 0.9753(4) 0.6429(4) 0.0954(4)
H16 H 0.8927 0.6616 0.1566
O20 O 0.0506(5) 0.1516(4) 0.7253(5)
N3 N 0.0398(4) 0.0440(4) 0.7169(4)
O6 O 0.9494(5) 0.8484(4) 0.2747(5)
N1 N 0.9602(4) 0.9560(4) 0.2831(4)
O25 O 0.8240(4) 0.7523(5) 0.8412(3)
N4 N 0.8308(4) 0.7387(5) 0.9480(4)
C29 C 0.9718(4) 0.6749(4) 0.9754(4)
loop_
_geom_bond_atom_site_label_1
_geom_bond_atom_site_label_2
_geom_bond_site_symmetry_1
_geom_bond_site_symmetry_2
O11 N2 1_555 1_555
N2 C13 1_555 1_555
H6 C14 1_555 1_555
Cu3 O7 1_555 1_555
Cu3 O4 1_555 1_555
O3 C8 1_555 1_555
O4 C8 1_555 1_555
C4 C3 1_555 1_555
C8 C3 1_555 1_555
Dy8 O3 1_555 1_555
O9 C16 1_555 1_555
O10 C16 1_555 1_555
C12 C11 1_555 1_555
H5 C12 1_555 1_555
C16 C11 1_555 1_555
Dy8 O9 1_555 1_555
O10 Dy8 1_555 1_555
Dy1 O2 1_555 1_555
O1 C7 1_555 1_555
O2 C7 1_555 1_555
O8 Dy1 1_555 1_555
O13 Dy1 1_555 1_555
O14 Dy1 1_555 1_555
C1 C2 1_555 1_555
C2 H1 1_555 1_555
C6 C1 1_555 1_555
H3 C6 1_555 1_555
C7 C1 1_555 1_555
C9 C10 1_555 1_555
C10 H4 1_555 1_555
C15 O8 1_555 1_555
H7 O13 1_555 1_555
H8 O13 1_555 1_555
H9 O14 1_555 1_555
H10 O14 1_555 1_555
Dy8 O1 1_555 1_555
O30 Dy1 1_555 1_555
O32 Dy1 1_555 1_555
O36 Dy1 1_555 1_555
O38 Dy1 1_555 1_555
C5 C6 1_555 1_555
C9 C15 1_555 1_555
Dy8 O16 1_555 1_555
O30 C23 1_555 1_555
O16 C23 1_555 1_555
O22 Dy8 1_555 1_555
O27 Dy8 1_555 1_555
O28 Dy8 1_555 1_555
C17 C18 1_555 1_555
C18 H11 1_555 1_555
C22 C17 1_555 1_555
H13 C22 1_555 1_555
C23 C17 1_555 1_555
C25 C26 1_555 1_555
C26 H14 1_555 1_555
C31 O22 1_555 1_555
H17 O27 1_555 1_555
H18 O27 1_555 1_555
H19 O28 1_555 1_555
H20 O28 1_555 1_555
C21 C22 1_555 1_555
C25 C31 1_555 1_555
O36 C32 1_555 1_555
O38 C32 1_555 1_555
C28 C27 1_555 1_555
H15 C28 1_555 1_555
C32 C27 1_555 1_555
O32 C24 1_555 1_555
O18 Cu3_2 1_555 1_555
C20 C19 1_555 1_555
C24 O18 1_555 1_555
O34 Cu3_2 1_555 1_555
C19 C24 1_555 1_555
H16 C30 1_555 1_555
O20 N3 1_555 1_555
O6 N1 1_555 1_555
O25 N4 1_555 1_555
N4 C29 1_555 1_555

#END
