
###############################################################################
#
# This file contains modified crystal structure data generated from the
# MOF subset of the Cambridge Structural Database (CSD) v543 
# hosted by the Cambridge Crystallographic Data Centre (CCDC).
#
# This work is licensed under the Creative Commons
# Attribution-NonCommercial-ShareAlike 4.0 International License.
# To view a copy of this license, visit
# http://creativecommons.org/licenses/by-nc-sa/4.0/
# or send a letter to
# Creative Commons, PO Box 1866, Mountain View, CA 94042, USA.
#
# CIF created using the CSD Python API on 29 September 2022
# The structure has been converted into the P1 space group
# The structure has a 3D framework
# The original CSD entry SABXEB is in the triclinic crystal system
# The framework has been calculated to contain at least 10.0% void space
# The void calculation uses a probe of radius 1.32A, grid spacing 0.4
#
###############################################################################

data_SABXEB
_chemical_formula_moiety         '(C32 H20 Cu2 N4 O26 Tb2)n'
_symmetry_cell_setting           triclinic
_symmetry_space_group_name_H-M   'P 1'
_symmetry_Int_Tables_number      1
_space_group_name_Hall           'P 1'
loop_
_symmetry_equiv_pos_site_id
_symmetry_equiv_pos_as_xyz
1 x,y,z
_cell_length_a                   10.445(2)
_cell_length_b                   10.636(2)
_cell_length_c                   11.326(2)
_cell_angle_alpha                83.28(3)
_cell_angle_beta                 74.83(3)
_cell_angle_gamma                69.60(3)
_cell_volume                     1137.77
loop_
_atom_site_label
_atom_site_type_symbol
_atom_site_fract_x
_atom_site_fract_y
_atom_site_fract_z
O11 O 0.1740(4) 0.2474(5) 0.1595(3)
N2 N 0.1686(4) 0.2625(4) 0.0526(4)
C13 C 0.0299(4) 0.3246(4) 0.0245(4)
O7 O 0.0035(3) 0.4416(3) 0.6695(3)
O12 O 0.2715(4) 0.2353(6) 0.9689(4)
C14 C 0.0255(4) 0.3563(4) 0.9043(4)
H6 H 0.1079 0.3374 0.8428
Cu3 Cu -0.0000 0.5000 0.5000
O3 O 0.2811(4) 0.2504(3) 0.4407(3)
O4 O 0.0506(3) 0.3188(3) 0.4544(3)
C3 C 0.1750(4) 0.0957(3) 0.4107(3)
C4 C 0.0674(4) 0.0864(4) 0.3645(4)
C8 C 0.1706(4) 0.2317(4) 0.4372(3)
O19 O 0.1272(5) 0.9384(4) 0.7379(5)
H12 H 0.0068 0.8373 0.6467
Tb8 Tb 0.412640(17) 0.403181(16) 0.368378(15)
O9 O 0.5302(3) 0.4820(4) 0.1636(3)
O10 O 0.6582(3) 0.3911(3) 0.2970(3)
C11 C 0.7797(4) 0.4097(4) 0.0903(4)
C12 C 0.9099(4) 0.3492(4) 0.1187(4)
H5 H 0.9161 0.3259 0.1992
C16 C 0.6478(4) 0.4309(4) 0.1891(4)
Tb1 Tb 0.587360(17) 0.596819(16) 0.631622(15)
O1 O 0.3964(3) 0.6184(3) 0.4062(3)
O2 O 0.4710(3) 0.7438(3) 0.4965(3)
O8 O 0.7728(3) 0.4942(3) 0.7190(3)
O13 O 0.5024(6) 0.7690(5) 0.7760(4)
O14 O 0.7441(3) 0.5240(3) 0.4378(3)
C1 C 0.2815(4) 0.8535(4) 0.4062(3)
C2 C 0.2813(4) 0.9793(4) 0.4314(3)
H1 H 0.3531 0.9850 0.4623
C5 C 0.0733(4) 0.9623(4) 0.3357(4)
C6 C 0.1769(4) 0.8446(4) 0.3557(4)
H3 H 0.1768 0.7621 0.3362
C7 C 0.3911(4) 0.7290(4) 0.4378(3)
C9 C 0.8950(4) 0.4173(4) 0.8764(3)
C10 C 0.7727(4) 0.4434(4) 0.9685(3)
H4 H 0.6858 0.4835 0.9492
C15 C 0.8896(4) 0.4537(4) 0.7458(3)
H7 H 0.4788 0.7591 0.8585
H8 H 0.4815 0.8325 0.7639
H9 H 0.7424 0.4678 0.3872
H10 H 0.7838 0.5454 0.4031
Cu3_2 Cu 1.0000 0.5000 0.5000
O30 O 0.6036(3) 0.3816(3) 0.5938(3)
O32 O 0.7189(4) 0.7496(3) 0.5593(3)
O36 O 0.4698(3) 0.5180(4) 0.8364(3)
O38 O 0.3418(3) 0.6089(3) 0.7030(3)
O16 O 0.5290(3) 0.2562(3) 0.5035(3)
O22 O 0.2272(3) 0.5058(3) 0.2810(3)
O27 O 0.4976(6) 0.2310(5) 0.2240(4)
O28 O 0.2559(3) 0.4760(3) 0.5622(3)
C17 C 0.7185(4) 0.1465(4) 0.5938(3)
C18 C 0.7187(4) 0.0207(4) 0.5686(3)
H11 H 0.6469 0.0150 0.5377
C21 C 0.9267(4) 0.0377(4) 0.6643(4)
C22 C 0.8231(4) 0.1554(4) 0.6443(4)
H13 H 0.8232 0.2379 0.6638
C23 C 0.6089(4) 0.2710(4) 0.5622(3)
C25 C 0.1050(4) 0.5827(4) 0.1236(3)
C26 C 0.2273(4) 0.5566(4) 0.0315(3)
H14 H 0.3142 0.5165 0.0508
C31 C 0.1104(4) 0.5463(4) 0.2542(3)
H17 H 0.5212 0.2409 0.1415
H18 H 0.5185 0.1675 0.2361
H19 H 0.2576 0.5322 0.6128
H20 H 0.2162 0.4546 0.5969
C27 C 0.2203(4) 0.5903(4) 0.9097(4)
C28 C 0.0901(4) 0.6508(4) 0.8813(4)
H15 H 0.0839 0.6741 0.8008
C32 C 0.3522(4) 0.5691(4) 0.8109(4)
O5 O 0.8728(5) 0.0616(4) 0.2621(5)
H2 H 0.9932 0.1627 0.3533
O18 O 0.9494(3) 0.6812(3) 0.5456(3)
C19 C 0.8250(4) 0.9043(3) 0.5893(3)
C20 C 0.9326(4) 0.9136(4) 0.6355(4)
C24 C 0.8294(4) 0.7683(4) 0.5628(3)
O34 O 0.9965(3) 0.5584(3) 0.3305(3)
O26 O 0.7285(4) 0.7647(6) 0.0311(4)
C30 C 0.9745(4) 0.6437(4) 0.0957(4)
H16 H 0.8921 0.6626 0.1572
O20 O 0.0491(5) 0.1521(4) 0.7257(5)
N3 N 0.0413(4) 0.0432(4) 0.7146(4)
O6 O 0.9509(5) 0.8479(4) 0.2743(5)
N1 N 0.9587(4) 0.9568(4) 0.2854(4)
O25 O 0.8260(4) 0.7526(5) 0.8405(3)
N4 N 0.8314(4) 0.7375(4) 0.9474(4)
C29 C 0.9701(4) 0.6754(4) 0.9755(4)
loop_
_geom_bond_atom_site_label_1
_geom_bond_atom_site_label_2
_geom_bond_site_symmetry_1
_geom_bond_site_symmetry_2
O11 N2 1_555 1_555
N2 C13 1_555 1_555
H6 C14 1_555 1_555
Cu3 O7 1_555 1_555
Cu3 O4 1_555 1_555
O3 C8 1_555 1_555
O4 C8 1_555 1_555
C4 C3 1_555 1_555
C8 C3 1_555 1_555
Tb8 O3 1_555 1_555
O9 C16 1_555 1_555
O10 C16 1_555 1_555
C12 C11 1_555 1_555
H5 C12 1_555 1_555
C16 C11 1_555 1_555
Tb8 O9 1_555 1_555
O10 Tb8 1_555 1_555
Tb1 O2 1_555 1_555
O1 C7 1_555 1_555
O2 C7 1_555 1_555
O8 Tb1 1_555 1_555
O13 Tb1 1_555 1_555
O14 Tb1 1_555 1_555
C1 C2 1_555 1_555
C2 H1 1_555 1_555
C6 C1 1_555 1_555
H3 C6 1_555 1_555
C7 C1 1_555 1_555
C9 C10 1_555 1_555
C10 H4 1_555 1_555
C15 O8 1_555 1_555
H7 O13 1_555 1_555
H8 O13 1_555 1_555
H9 O14 1_555 1_555
H10 O14 1_555 1_555
Tb8 O1 1_555 1_555
O30 Tb1 1_555 1_555
O32 Tb1 1_555 1_555
O36 Tb1 1_555 1_555
O38 Tb1 1_555 1_555
C5 C6 1_555 1_555
C9 C15 1_555 1_555
Tb8 O16 1_555 1_555
O30 C23 1_555 1_555
O16 C23 1_555 1_555
O22 Tb8 1_555 1_555
O27 Tb8 1_555 1_555
O28 Tb8 1_555 1_555
C17 C18 1_555 1_555
C18 H11 1_555 1_555
C22 C17 1_555 1_555
H13 C22 1_555 1_555
C23 C17 1_555 1_555
C25 C26 1_555 1_555
C26 H14 1_555 1_555
C31 O22 1_555 1_555
H17 O27 1_555 1_555
H18 O27 1_555 1_555
H19 O28 1_555 1_555
H20 O28 1_555 1_555
C21 C22 1_555 1_555
C25 C31 1_555 1_555
O36 C32 1_555 1_555
O38 C32 1_555 1_555
C28 C27 1_555 1_555
H15 C28 1_555 1_555
C32 C27 1_555 1_555
O32 C24 1_555 1_555
O18 Cu3_2 1_555 1_555
C20 C19 1_555 1_555
C24 O18 1_555 1_555
O34 Cu3_2 1_555 1_555
C19 C24 1_555 1_555
H16 C30 1_555 1_555
O20 N3 1_555 1_555
O6 N1 1_555 1_555
O25 N4 1_555 1_555
N4 C29 1_555 1_555

#END
