
###############################################################################
#
# This file contains modified crystal structure data generated from the
# MOF subset of the Cambridge Structural Database (CSD) v543 
# hosted by the Cambridge Crystallographic Data Centre (CCDC).
#
# This work is licensed under the Creative Commons
# Attribution-NonCommercial-ShareAlike 4.0 International License.
# To view a copy of this license, visit
# http://creativecommons.org/licenses/by-nc-sa/4.0/
# or send a letter to
# Creative Commons, PO Box 1866, Mountain View, CA 94042, USA.
#
# CIF created using the CSD Python API on 29 September 2022
# The structure has been converted into the P1 space group
# The structure has a 3D framework
# The original CSD entry SABXOL is in the triclinic crystal system
# The framework has been calculated to contain at least 10.0% void space
# The void calculation uses a probe of radius 1.32A, grid spacing 0.4
#
###############################################################################

data_SABXOL
_chemical_formula_moiety         '(C32 H20 Cu2 Er2 N4 O26)n'
_symmetry_cell_setting           triclinic
_symmetry_space_group_name_H-M   'P 1'
_symmetry_Int_Tables_number      1
_space_group_name_Hall           'P 1'
loop_
_symmetry_equiv_pos_site_id
_symmetry_equiv_pos_as_xyz
1 x,y,z
_cell_length_a                   10.399(2)
_cell_length_b                   10.606(2)
_cell_length_c                   11.300(2)
_cell_angle_alpha                83.50(3)
_cell_angle_beta                 75.15(3)
_cell_angle_gamma                69.62(3)
_cell_volume                     1128.87
loop_
_atom_site_label
_atom_site_type_symbol
_atom_site_fract_x
_atom_site_fract_y
_atom_site_fract_z
O11 O 0.1751(5) 0.2462(7) 0.1600(5)
N2 N 0.1688(5) 0.2617(6) 0.0528(5)
C13 C 0.0290(5) 0.3249(5) 0.0247(5)
O7 O 0.0011(4) 0.4427(4) 0.6706(3)
O12 O 0.2715(5) 0.2331(8) 0.9682(5)
C14 C 0.0244(5) 0.3575(5) 0.9051(5)
H6 H 0.1068 0.3390 0.8436
Cu3 Cu -0.0000 0.5000 0.5000
O3 O 0.2867(5) 0.2483(4) 0.4368(5)
O4 O 0.0540(4) 0.3181(4) 0.4545(4)
C3 C 0.1770(5) 0.0944(5) 0.4107(5)
C4 C 0.0692(5) 0.0861(5) 0.3645(5)
C8 C 0.1749(6) 0.2306(5) 0.4358(4)
O19 O 0.1293(6) 0.9373(5) 0.7371(7)
H12 H 0.0044 0.8367 0.6472
Er8 Er 0.41359(2) 0.40370(2) 0.367231(19)
O9 O 0.5277(4) 0.4832(5) 0.1646(4)
O10 O 0.6571(4) 0.3940(4) 0.2987(3)
C11 C 0.7777(6) 0.4115(5) 0.0910(5)
C12 C 0.9093(6) 0.3504(6) 0.1195(5)
H5 H 0.9162 0.3275 0.2000
C16 C 0.6462(6) 0.4331(6) 0.1906(5)
Er1 Er 0.58641(2) 0.59630(2) 0.632769(19)
O1 O 0.3955(4) 0.6155(4) 0.4059(4)
O2 O 0.4717(4) 0.7396(4) 0.4991(4)
O8 O 0.7689(4) 0.4977(5) 0.7200(4)
O13 O 0.5007(7) 0.7672(6) 0.7751(5)
O14 O 0.7455(4) 0.5254(4) 0.4414(4)
C1 C 0.2818(5) 0.8510(5) 0.4071(5)
C2 C 0.2838(5) 0.9765(5) 0.4316(5)
H1 H 0.3567 0.9815 0.4622
C5 C 0.0728(6) 0.9618(5) 0.3361(5)
C6 C 0.1765(6) 0.8439(5) 0.3570(5)
H3 H 0.1755 0.7613 0.3378
C7 C 0.3913(5) 0.7256(5) 0.4387(5)
C9 C 0.8927(5) 0.4195(5) 0.8773(4)
C10 C 0.7699(5) 0.4458(5) 0.9699(5)
H4 H 0.6825 0.4865 0.9508
C15 C 0.8861(5) 0.4563(5) 0.7463(4)
H7 H 0.4779 0.7608 0.8577
H8 H 0.4647 0.8517 0.7472
H9 H 0.8020 0.5687 0.3929
H10 H 0.7346 0.4649 0.3987
Cu3_2 Cu 1.0000 0.5000 0.5000
O30 O 0.6045(4) 0.3845(4) 0.5941(4)
O32 O 0.7133(5) 0.7517(4) 0.5632(5)
O36 O 0.4723(4) 0.5168(5) 0.8354(4)
O38 O 0.3429(4) 0.6060(4) 0.7013(3)
O16 O 0.5283(4) 0.2604(4) 0.5009(4)
O22 O 0.2311(4) 0.5023(5) 0.2800(4)
O27 O 0.4993(7) 0.2328(6) 0.2249(5)
O28 O 0.2545(4) 0.4746(4) 0.5586(4)
C17 C 0.7182(5) 0.1490(5) 0.5929(5)
C18 C 0.7162(5) 0.0235(5) 0.5684(5)
H11 H 0.6433 0.0185 0.5378
C21 C 0.9272(6) 0.0382(5) 0.6639(5)
C22 C 0.8235(6) 0.1561(5) 0.6430(5)
H13 H 0.8245 0.2387 0.6622
C23 C 0.6087(5) 0.2744(5) 0.5613(5)
C25 C 0.1073(5) 0.5805(5) 0.1227(4)
C26 C 0.2301(5) 0.5542(5) 0.0301(5)
H14 H 0.3175 0.5135 0.0492
C31 C 0.1139(5) 0.5437(5) 0.2537(4)
H17 H 0.5221 0.2392 0.1423
H18 H 0.5353 0.1483 0.2528
H19 H 0.1980 0.4313 0.6071
H20 H 0.2654 0.5351 0.6013
C27 C 0.2223(6) 0.5885(5) 0.9090(5)
C28 C 0.0907(6) 0.6496(6) 0.8805(5)
H15 H 0.0838 0.6725 0.8000
C32 C 0.3538(6) 0.5669(6) 0.8094(5)
O5 O 0.8707(6) 0.0627(5) 0.2629(7)
H2 H 0.9956 0.1633 0.3528
O18 O 0.9460(4) 0.6819(4) 0.5455(4)
C19 C 0.8230(5) 0.9056(5) 0.5893(5)
C20 C 0.9308(5) 0.9139(5) 0.6355(5)
C24 C 0.8251(6) 0.7694(5) 0.5642(4)
O34 O 0.9989(4) 0.5573(4) 0.3294(3)
O26 O 0.7285(5) 0.7669(8) 0.0318(5)
C30 C 0.9756(5) 0.6425(5) 0.0949(5)
H16 H 0.8932 0.6610 0.1564
O20 O 0.0504(6) 0.1514(5) 0.7265(6)
N3 N 0.0423(5) 0.0431(5) 0.7143(5)
O6 O 0.9496(6) 0.8486(5) 0.2735(6)
N1 N 0.9577(5) 0.9569(5) 0.2857(5)
O25 O 0.8249(5) 0.7538(7) 0.8400(5)
N4 N 0.8312(5) 0.7383(6) 0.9472(5)
C29 C 0.9710(5) 0.6751(5) 0.9753(5)
loop_
_geom_bond_atom_site_label_1
_geom_bond_atom_site_label_2
_geom_bond_site_symmetry_1
_geom_bond_site_symmetry_2
O11 N2 1_555 1_555
N2 C13 1_555 1_555
H6 C14 1_555 1_555
Cu3 O7 1_555 1_555
Cu3 O4 1_555 1_555
O3 C8 1_555 1_555
O4 C8 1_555 1_555
C4 C3 1_555 1_555
C8 C3 1_555 1_555
Er8 O3 1_555 1_555
O9 C16 1_555 1_555
O10 C16 1_555 1_555
C12 C11 1_555 1_555
H5 C12 1_555 1_555
C16 C11 1_555 1_555
Er8 O9 1_555 1_555
O10 Er8 1_555 1_555
Er1 O2 1_555 1_555
O1 C7 1_555 1_555
O2 C7 1_555 1_555
O8 Er1 1_555 1_555
O13 Er1 1_555 1_555
O14 Er1 1_555 1_555
C1 C2 1_555 1_555
C2 H1 1_555 1_555
C6 C1 1_555 1_555
H3 C6 1_555 1_555
C7 C1 1_555 1_555
C9 C10 1_555 1_555
C10 H4 1_555 1_555
C15 O8 1_555 1_555
H7 O13 1_555 1_555
H8 O13 1_555 1_555
H9 O14 1_555 1_555
H10 O14 1_555 1_555
Er8 O1 1_555 1_555
O30 Er1 1_555 1_555
O32 Er1 1_555 1_555
O36 Er1 1_555 1_555
O38 Er1 1_555 1_555
C5 C6 1_555 1_555
C9 C15 1_555 1_555
Er8 O16 1_555 1_555
O30 C23 1_555 1_555
O16 C23 1_555 1_555
O22 Er8 1_555 1_555
O27 Er8 1_555 1_555
O28 Er8 1_555 1_555
C17 C18 1_555 1_555
C18 H11 1_555 1_555
C22 C17 1_555 1_555
H13 C22 1_555 1_555
C23 C17 1_555 1_555
C25 C26 1_555 1_555
C26 H14 1_555 1_555
C31 O22 1_555 1_555
H17 O27 1_555 1_555
H18 O27 1_555 1_555
H19 O28 1_555 1_555
H20 O28 1_555 1_555
C21 C22 1_555 1_555
C25 C31 1_555 1_555
O36 C32 1_555 1_555
O38 C32 1_555 1_555
C28 C27 1_555 1_555
H15 C28 1_555 1_555
C32 C27 1_555 1_555
O32 C24 1_555 1_555
O18 Cu3_2 1_555 1_555
C20 C19 1_555 1_555
C24 O18 1_555 1_555
O34 Cu3_2 1_555 1_555
C19 C24 1_555 1_555
H16 C30 1_555 1_555
O20 N3 1_555 1_555
O6 N1 1_555 1_555
O25 N4 1_555 1_555
N4 C29 1_555 1_555

#END
