
###############################################################################
#
# This file contains modified crystal structure data generated from the
# MOF subset of the Cambridge Structural Database (CSD) v543 
# hosted by the Cambridge Crystallographic Data Centre (CCDC).
#
# This work is licensed under the Creative Commons
# Attribution-NonCommercial-ShareAlike 4.0 International License.
# To view a copy of this license, visit
# http://creativecommons.org/licenses/by-nc-sa/4.0/
# or send a letter to
# Creative Commons, PO Box 1866, Mountain View, CA 94042, USA.
#
# CIF created using the CSD Python API on 29 September 2022
# The structure has been converted into the P1 space group
# The structure has a 3D framework
# The original CSD entry SABYUS is in the triclinic crystal system
# The framework has been calculated to contain at least 10.0% void space
# The void calculation uses a probe of radius 1.32A, grid spacing 0.4
#
###############################################################################

data_SABYUS
_chemical_formula_moiety         '(C32 H20 Cu2 Eu2 N4 O26)n'
_symmetry_cell_setting           triclinic
_symmetry_space_group_name_H-M   'P 1'
_symmetry_Int_Tables_number      1
_space_group_name_Hall           'P 1'
loop_
_symmetry_equiv_pos_site_id
_symmetry_equiv_pos_as_xyz
1 x,y,z
_cell_length_a                   10.500(2)
_cell_length_b                   10.635(2)
_cell_length_c                   11.373(2)
_cell_angle_alpha                82.98(3)
_cell_angle_beta                 74.42(3)
_cell_angle_gamma                69.60(3)
_cell_volume                     1146.03
loop_
_atom_site_label
_atom_site_type_symbol
_atom_site_fract_x
_atom_site_fract_y
_atom_site_fract_z
O11 O 0.1744(4) 0.2508(5) 0.1563(4)
N2 N 0.1690(4) 0.2620(5) 0.0507(4)
C13 C 0.0301(5) 0.3238(5) 0.0225(4)
O7 O 0.0048(3) 0.4407(3) 0.6687(3)
O12 O 0.2712(4) 0.2329(7) 0.9659(4)
C14 C 0.0260(4) 0.3557(5) 0.9029(4)
H6 H 0.1082 0.3375 0.8414
Cu3 Cu -0.0000 0.5000 0.5000
O3 O 0.2748(4) 0.2516(3) 0.4457(3)
O4 O 0.0460(4) 0.3193(3) 0.4546(3)
C3 C 0.1732(4) 0.0956(4) 0.4111(4)
C4 C 0.0665(4) 0.0878(4) 0.3638(4)
C8 C 0.1668(5) 0.2328(4) 0.4390(4)
O19 O 0.1222(6) 0.9395(5) 0.7423(6)
H12 H 0.0073 0.8359 0.6474
Eu8 Eu 0.411957(19) 0.401634(18) 0.370198(17)
O9 O 0.5327(3) 0.4763(4) 0.1631(3)
O10 O 0.6590(3) 0.3885(3) 0.2965(3)
C11 C 0.7812(4) 0.4059(5) 0.0888(4)
C12 C 0.9101(5) 0.3479(5) 0.1169(4)
H5 H 0.9160 0.3256 0.1973
C16 C 0.6493(5) 0.4266(5) 0.1880(4)
Eu1 Eu 0.588043(19) 0.598366(18) 0.629802(17)
O1 O 0.3970(3) 0.6200(3) 0.4058(3)
O2 O 0.4727(3) 0.7457(3) 0.4924(3)
O8 O 0.7746(3) 0.4932(4) 0.7191(3)
O13 O 0.5008(6) 0.7784(5) 0.7691(5)
O14 O 0.7449(3) 0.5222(4) 0.4333(3)
C1 C 0.2819(4) 0.8544(4) 0.4042(4)
C2 C 0.2791(4) 0.9807(4) 0.4314(4)
H1 H 0.3492 0.9870 0.4635
C5 C 0.0748(5) 0.9618(4) 0.3341(4)
C6 C 0.1778(5) 0.8460(4) 0.3544(4)
H3 H 0.1781 0.7633 0.3352
C7 C 0.3918(4) 0.7309(4) 0.4359(4)
C9 C 0.8963(4) 0.4159(4) 0.8753(4)
C10 C 0.7750(4) 0.4402(5) 0.9675(4)
H4 H 0.6885 0.4797 0.9486
C15 C 0.8902(4) 0.4538(4) 0.7451(4)
H7 H 0.5018 0.7388 0.8444
H8 H 0.4517 0.8648 0.7784
H9 H 0.7828 0.5744 0.3773
H10 H 0.7198 0.4713 0.3920
Cu3_2 Cu 1.0000 0.5000 0.5000
O30 O 0.6030(3) 0.3800(3) 0.5942(3)
O32 O 0.7252(4) 0.7484(3) 0.5543(3)
O36 O 0.4673(3) 0.5237(4) 0.8369(3)
O38 O 0.3410(3) 0.6115(3) 0.7035(3)
O16 O 0.5273(3) 0.2543(3) 0.5076(3)
O22 O 0.2254(3) 0.5068(4) 0.2809(3)
O27 O 0.4992(6) 0.2216(5) 0.2309(5)
O28 O 0.2551(3) 0.4778(4) 0.5667(3)
C17 C 0.7181(4) 0.1456(4) 0.5958(4)
C18 C 0.7209(4) 0.0193(4) 0.5686(4)
H11 H 0.6508 0.0130 0.5365
C21 C 0.9252(5) 0.0382(4) 0.6659(4)
C22 C 0.8222(5) 0.1540(4) 0.6456(4)
H13 H 0.8219 0.2367 0.6648
C23 C 0.6082(4) 0.2691(4) 0.5641(4)
C25 C 0.1037(4) 0.5841(4) 0.1247(4)
C26 C 0.2250(4) 0.5598(5) 0.0325(4)
H14 H 0.3115 0.5203 0.0514
C31 C 0.1098(4) 0.5462(4) 0.2549(4)
H17 H 0.4982 0.2612 0.1556
H18 H 0.5483 0.1352 0.2216
H19 H 0.2172 0.4256 0.6227
H20 H 0.2802 0.5287 0.6080
C27 C 0.2188(4) 0.5941(5) 0.9112(4)
C28 C 0.0899(5) 0.6521(5) 0.8831(4)
H15 H 0.0840 0.6744 0.8027
C32 C 0.3507(5) 0.5734(5) 0.8120(4)
O5 O 0.8778(6) 0.0605(5) 0.2577(6)
H2 H 0.9927 0.1641 0.3526
O18 O 0.9540(4) 0.6807(3) 0.5454(3)
C19 C 0.8268(4) 0.9044(4) 0.5889(4)
C20 C 0.9335(4) 0.9122(4) 0.6362(4)
C24 C 0.8332(5) 0.7672(4) 0.5610(4)
O34 O 0.9952(3) 0.5593(3) 0.3313(3)
O26 O 0.7288(4) 0.7671(7) 0.0341(4)
C30 C 0.9740(4) 0.6443(5) 0.0971(4)
H16 H 0.8918 0.6625 0.1586
O20 O 0.0474(5) 0.1516(4) 0.7258(5)
N3 N 0.0383(5) 0.0436(4) 0.7169(4)
O6 O 0.9526(5) 0.8484(4) 0.2742(5)
N1 N 0.9617(5) 0.9564(4) 0.2831(4)
O25 O 0.8256(4) 0.7492(5) 0.8437(4)
N4 N 0.8310(4) 0.7380(5) 0.9493(4)
C29 C 0.9699(5) 0.6762(5) 0.9775(4)
loop_
_geom_bond_atom_site_label_1
_geom_bond_atom_site_label_2
_geom_bond_site_symmetry_1
_geom_bond_site_symmetry_2
O11 N2 1_555 1_555
N2 C13 1_555 1_555
H6 C14 1_555 1_555
Cu3 O7 1_555 1_555
Cu3 O4 1_555 1_555
O3 C8 1_555 1_555
O4 C8 1_555 1_555
C4 C3 1_555 1_555
C8 C3 1_555 1_555
Eu8 O3 1_555 1_555
O9 C16 1_555 1_555
O10 C16 1_555 1_555
C12 C11 1_555 1_555
H5 C12 1_555 1_555
C16 C11 1_555 1_555
Eu8 O9 1_555 1_555
O10 Eu8 1_555 1_555
Eu1 O2 1_555 1_555
O1 C7 1_555 1_555
O2 C7 1_555 1_555
O8 Eu1 1_555 1_555
O13 Eu1 1_555 1_555
O14 Eu1 1_555 1_555
C1 C2 1_555 1_555
C2 H1 1_555 1_555
C6 C1 1_555 1_555
H3 C6 1_555 1_555
C7 C1 1_555 1_555
C9 C10 1_555 1_555
C10 H4 1_555 1_555
C15 O8 1_555 1_555
H7 O13 1_555 1_555
H8 O13 1_555 1_555
H9 O14 1_555 1_555
H10 O14 1_555 1_555
Eu8 O1 1_555 1_555
O30 Eu1 1_555 1_555
O32 Eu1 1_555 1_555
O36 Eu1 1_555 1_555
O38 Eu1 1_555 1_555
C5 C6 1_555 1_555
C9 C15 1_555 1_555
Eu8 O16 1_555 1_555
O30 C23 1_555 1_555
O16 C23 1_555 1_555
O22 Eu8 1_555 1_555
O27 Eu8 1_555 1_555
O28 Eu8 1_555 1_555
C17 C18 1_555 1_555
C18 H11 1_555 1_555
C22 C17 1_555 1_555
H13 C22 1_555 1_555
C23 C17 1_555 1_555
C25 C26 1_555 1_555
C26 H14 1_555 1_555
C31 O22 1_555 1_555
H17 O27 1_555 1_555
H18 O27 1_555 1_555
H19 O28 1_555 1_555
H20 O28 1_555 1_555
C21 C22 1_555 1_555
C25 C31 1_555 1_555
O36 C32 1_555 1_555
O38 C32 1_555 1_555
C28 C27 1_555 1_555
H15 C28 1_555 1_555
C32 C27 1_555 1_555
O32 C24 1_555 1_555
O18 Cu3_2 1_555 1_555
C20 C19 1_555 1_555
C24 O18 1_555 1_555
O34 Cu3_2 1_555 1_555
C19 C24 1_555 1_555
H16 C30 1_555 1_555
O20 N3 1_555 1_555
O6 N1 1_555 1_555
O25 N4 1_555 1_555
N4 C29 1_555 1_555

#END
