
###############################################################################
#
# This file contains modified crystal structure data generated from the
# MOF subset of the Cambridge Structural Database (CSD) v543 
# hosted by the Cambridge Crystallographic Data Centre (CCDC).
#
# This work is licensed under the Creative Commons
# Attribution-NonCommercial-ShareAlike 4.0 International License.
# To view a copy of this license, visit
# http://creativecommons.org/licenses/by-nc-sa/4.0/
# or send a letter to
# Creative Commons, PO Box 1866, Mountain View, CA 94042, USA.
#
# CIF created using the CSD Python API on 29 September 2022
# The structure has been converted into the P1 space group
# The structure has a 3D framework
# The original CSD entry SABYAY is in the triclinic crystal system
# The framework has been calculated to contain at least 10.0% void space
# The void calculation uses a probe of radius 1.32A, grid spacing 0.4
#
###############################################################################

data_SABYAY
_chemical_formula_moiety         '(C32 H20 Cu2 N4 Nd2 O26)n'
_symmetry_cell_setting           triclinic
_symmetry_space_group_name_H-M   'P 1'
_symmetry_Int_Tables_number      1
_space_group_name_Hall           'P 1'
loop_
_symmetry_equiv_pos_site_id
_symmetry_equiv_pos_as_xyz
1 x,y,z
_cell_length_a                   10.546(2)
_cell_length_b                   10.653(2)
_cell_length_c                   11.422(2)
_cell_angle_alpha                82.68(3)
_cell_angle_beta                 74.10(3)
_cell_angle_gamma                69.42(3)
_cell_volume                     1154.68
loop_
_atom_site_label
_atom_site_type_symbol
_atom_site_fract_x
_atom_site_fract_y
_atom_site_fract_z
O11 O 0.1718(4) 0.2520(5) 0.1556(3)
N2 N 0.1670(4) 0.2641(5) 0.0500(4)
C13 C 0.0301(4) 0.3237(4) 0.0220(4)
O7 O 0.0072(3) 0.4394(3) 0.6678(2)
O12 O 0.2702(4) 0.2372(6) 0.9651(4)
C14 C 0.0270(4) 0.3550(4) 0.9011(3)
H6 H 0.1093 0.3369 0.8398
Cu3 Cu -0.0000 0.5000 0.5000
O3 O 0.2677(4) 0.2540(3) 0.4483(3)
O4 O 0.0415(3) 0.3206(3) 0.4553(3)
C3 C 0.1703(4) 0.0977(4) 0.4112(3)
C4 C 0.0659(4) 0.0879(4) 0.3639(4)
C8 C 0.1615(5) 0.2346(4) 0.4405(3)
O19 O 0.1203(6) 0.9406(4) 0.7420(6)
H12 H 0.0081 0.8362 0.6474
Nd8 Nd 0.41100(2) 0.401490(18) 0.371710(16)
O9 O 0.5345(3) 0.4759(4) 0.1612(3)
O10 O 0.6607(3) 0.3866(3) 0.2942(2)
C11 C 0.7818(4) 0.4049(4) 0.0869(3)
C12 C 0.9111(5) 0.3466(4) 0.1155(3)
H5 H 0.9166 0.3237 0.1957
C16 C 0.6506(4) 0.4253(4) 0.1861(3)
Nd1 Nd 0.58900(2) 0.598510(18) 0.628290(16)
O1 O 0.3979(3) 0.6224(3) 0.4069(3)
O2 O 0.4716(3) 0.7511(3) 0.4905(3)
O8 O 0.7791(3) 0.4884(3) 0.7172(3)
O13 O 0.5026(6) 0.7814(5) 0.7708(4)
O14 O 0.7439(4) 0.5220(3) 0.4278(3)
C1 C 0.2806(4) 0.8574(4) 0.4046(3)
C2 C 0.2766(4) 0.9834(4) 0.4309(3)
H1 H 0.3465 0.9902 0.4621
C5 C 0.0744(4) 0.9636(4) 0.3342(4)
C6 C 0.1789(5) 0.8466(4) 0.3541(4)
H3 H 0.1811 0.7636 0.3345
C7 C 0.3918(4) 0.7334(4) 0.4349(3)
C9 C 0.8990(4) 0.4137(4) 0.8738(3)
C10 C 0.7760(4) 0.4379(4) 0.9658(3)
H4 H 0.6900 0.4761 0.9465
C15 C 0.8939(4) 0.4506(4) 0.7435(3)
H7 H 0.4904 0.7432 0.8427
H8 H 0.4251 0.8365 0.7486
H9 H 0.7223 0.4534 0.4141
H10 H 0.7120 0.5946 0.3782
Cu3_2 Cu 1.0000 0.5000 0.5000
O30 O 0.6021(3) 0.3776(3) 0.5931(3)
O32 O 0.7323(4) 0.7460(3) 0.5517(3)
O36 O 0.4655(3) 0.5241(4) 0.8388(3)
O38 O 0.3393(3) 0.6134(3) 0.7058(2)
O16 O 0.5284(3) 0.2489(3) 0.5095(3)
O22 O 0.2209(3) 0.5116(3) 0.2828(3)
O27 O 0.4974(6) 0.2186(5) 0.2292(4)
O28 O 0.2561(4) 0.4780(3) 0.5722(3)
C17 C 0.7194(4) 0.1426(4) 0.5954(3)
C18 C 0.7234(4) 0.0166(4) 0.5691(3)
H11 H 0.6535 0.0098 0.5379
C21 C 0.9256(4) 0.0364(4) 0.6658(4)
C22 C 0.8211(5) 0.1534(4) 0.6459(4)
H13 H 0.8189 0.2364 0.6655
C23 C 0.6082(4) 0.2666(4) 0.5651(3)
C25 C 0.1010(4) 0.5863(4) 0.1262(3)
C26 C 0.2240(4) 0.5621(4) 0.0342(3)
H14 H 0.3100 0.5239 0.0535
C31 C 0.1061(4) 0.5494(4) 0.2565(3)
H17 H 0.5096 0.2568 0.1573
H18 H 0.5749 0.1635 0.2514
H19 H 0.2777 0.5466 0.5859
H20 H 0.2880 0.4054 0.6218
C27 C 0.2182(4) 0.5951(4) 0.9131(3)
C28 C 0.0889(5) 0.6534(4) 0.8845(3)
H15 H 0.0834 0.6763 0.8043
C32 C 0.3494(4) 0.5747(4) 0.8139(3)
O5 O 0.8797(6) 0.0594(4) 0.2580(6)
H2 H 0.9919 0.1638 0.3526
O18 O 0.9585(3) 0.6794(3) 0.5447(3)
C19 C 0.8297(4) 0.9023(4) 0.5888(3)
C20 C 0.9341(4) 0.9121(4) 0.6361(4)
C24 C 0.8385(5) 0.7654(4) 0.5595(3)
O34 O 0.9928(3) 0.5606(3) 0.3322(2)
O26 O 0.7298(4) 0.7628(6) 0.0349(4)
C30 C 0.9730(4) 0.6450(4) 0.0989(3)
H16 H 0.8907 0.6631 0.1602
O20 O 0.0442(5) 0.1522(4) 0.7258(5)
N3 N 0.0356(5) 0.0443(4) 0.7167(4)
O6 O 0.9558(5) 0.8478(4) 0.2742(5)
N1 N 0.9644(5) 0.9557(4) 0.2833(4)
O25 O 0.8282(4) 0.7480(5) 0.8444(3)
N4 N 0.8330(4) 0.7359(5) 0.9500(4)
C29 C 0.9699(4) 0.6763(4) 0.9780(4)
loop_
_geom_bond_atom_site_label_1
_geom_bond_atom_site_label_2
_geom_bond_site_symmetry_1
_geom_bond_site_symmetry_2
O11 N2 1_555 1_555
N2 C13 1_555 1_555
H6 C14 1_555 1_555
Cu3 O7 1_555 1_555
Cu3 O4 1_555 1_555
O3 C8 1_555 1_555
O4 C8 1_555 1_555
C4 C3 1_555 1_555
C8 C3 1_555 1_555
Nd8 O3 1_555 1_555
O9 C16 1_555 1_555
O10 C16 1_555 1_555
C12 C11 1_555 1_555
H5 C12 1_555 1_555
C16 C11 1_555 1_555
Nd8 O9 1_555 1_555
O10 Nd8 1_555 1_555
Nd1 O2 1_555 1_555
O1 C7 1_555 1_555
O2 C7 1_555 1_555
O8 Nd1 1_555 1_555
O13 Nd1 1_555 1_555
O14 Nd1 1_555 1_555
C1 C2 1_555 1_555
C2 H1 1_555 1_555
C6 C1 1_555 1_555
H3 C6 1_555 1_555
C7 C1 1_555 1_555
C9 C10 1_555 1_555
C10 H4 1_555 1_555
C15 O8 1_555 1_555
H7 O13 1_555 1_555
H8 O13 1_555 1_555
H9 O14 1_555 1_555
H10 O14 1_555 1_555
Nd8 O1 1_555 1_555
O30 Nd1 1_555 1_555
O32 Nd1 1_555 1_555
O36 Nd1 1_555 1_555
O38 Nd1 1_555 1_555
C5 C6 1_555 1_555
C9 C15 1_555 1_555
Nd8 O16 1_555 1_555
O30 C23 1_555 1_555
O16 C23 1_555 1_555
O22 Nd8 1_555 1_555
O27 Nd8 1_555 1_555
O28 Nd8 1_555 1_555
C17 C18 1_555 1_555
C18 H11 1_555 1_555
C22 C17 1_555 1_555
H13 C22 1_555 1_555
C23 C17 1_555 1_555
C25 C26 1_555 1_555
C26 H14 1_555 1_555
C31 O22 1_555 1_555
H17 O27 1_555 1_555
H18 O27 1_555 1_555
H19 O28 1_555 1_555
H20 O28 1_555 1_555
C21 C22 1_555 1_555
C25 C31 1_555 1_555
O36 C32 1_555 1_555
O38 C32 1_555 1_555
C28 C27 1_555 1_555
H15 C28 1_555 1_555
C32 C27 1_555 1_555
O32 C24 1_555 1_555
O18 Cu3_2 1_555 1_555
C20 C19 1_555 1_555
C24 O18 1_555 1_555
O34 Cu3_2 1_555 1_555
C19 C24 1_555 1_555
H16 C30 1_555 1_555
O20 N3 1_555 1_555
O6 N1 1_555 1_555
O25 N4 1_555 1_555
N4 C29 1_555 1_555

#END
