
###############################################################################
#
# This file contains modified crystal structure data generated from the
# MOF subset of the Cambridge Structural Database (CSD) v543 
# hosted by the Cambridge Crystallographic Data Centre (CCDC).
#
# This work is licensed under the Creative Commons
# Attribution-NonCommercial-ShareAlike 4.0 International License.
# To view a copy of this license, visit
# http://creativecommons.org/licenses/by-nc-sa/4.0/
# or send a letter to
# Creative Commons, PO Box 1866, Mountain View, CA 94042, USA.
#
# CIF created using the CSD Python API on 29 September 2022
# The structure has been converted into the P1 space group
# The structure has a 3D framework
# The original CSD entry SABZON is in the triclinic crystal system
# The framework has been calculated to contain at least 10.0% void space
# The void calculation uses a probe of radius 1.32A, grid spacing 0.4
#
###############################################################################

data_SABZON
_chemical_formula_moiety         '(C32 H20 Cu2 Gd2 N4 O26)n'
_symmetry_cell_setting           triclinic
_symmetry_space_group_name_H-M   'P 1'
_symmetry_Int_Tables_number      1
_space_group_name_Hall           'P 1'
loop_
_symmetry_equiv_pos_site_id
_symmetry_equiv_pos_as_xyz
1 x,y,z
_cell_length_a                   10.464(2)
_cell_length_b                   10.607(2)
_cell_length_c                   11.353(2)
_cell_angle_alpha                83.08(3)
_cell_angle_beta                 74.54(3)
_cell_angle_gamma                69.67(3)
_cell_volume                     1138.3
loop_
_atom_site_label
_atom_site_type_symbol
_atom_site_fract_x
_atom_site_fract_y
_atom_site_fract_z
O11 O 0.1750(4) 0.2511(5) 0.1563(3)
N2 N 0.1681(4) 0.2624(4) 0.0504(4)
C13 C 0.0308(4) 0.3237(4) 0.0227(4)
O7 O 0.0046(3) 0.4401(3) 0.6690(2)
O12 O 0.2707(4) 0.2323(7) 0.9652(4)
C14 C 0.0249(4) 0.3564(4) 0.9023(3)
H6 H 0.1068 0.3384 0.8402
Cu3 Cu -0.0000 0.5000 0.5000
O3 O 0.2769(3) 0.2506(3) 0.4454(3)
O4 O 0.0466(3) 0.3196(3) 0.4542(3)
C3 C 0.1740(4) 0.0954(3) 0.4107(3)
C4 C 0.0671(4) 0.0872(4) 0.3634(4)
C8 C 0.1685(4) 0.2319(4) 0.4389(3)
O19 O 0.1210(6) 0.9399(4) 0.7424(6)
H12 H 0.0068 0.8363 0.6478
Gd8 Gd 0.412130(16) 0.401407(15) 0.370145(14)
O9 O 0.5320(3) 0.4757(4) 0.1638(3)
O10 O 0.6595(3) 0.3883(3) 0.2971(2)
C11 C 0.7803(4) 0.4071(4) 0.0888(3)
C12 C 0.9100(4) 0.3485(4) 0.1167(3)
H5 H 0.9158 0.3261 0.1973
C16 C 0.6471(4) 0.4273(4) 0.1887(3)
Gd1 Gd 0.587870(16) 0.598593(15) 0.629855(14)
O1 O 0.3967(3) 0.6189(3) 0.4044(3)
O2 O 0.4725(3) 0.7450(3) 0.4923(3)
O8 O 0.7741(3) 0.4945(4) 0.7194(3)
O13 O 0.5004(6) 0.7790(5) 0.7677(4)
O14 O 0.7454(3) 0.5214(3) 0.4349(3)
C1 C 0.2820(4) 0.8535(4) 0.4041(3)
C2 C 0.2801(4) 0.9800(4) 0.4311(3)
H1 H 0.3509 0.9861 0.4628
C5 C 0.0742(4) 0.9622(4) 0.3338(4)
C6 C 0.1783(4) 0.8453(4) 0.3531(4)
H3 H 0.1793 0.7627 0.3325
C7 C 0.3924(4) 0.7295(4) 0.4349(3)
C9 C 0.8962(4) 0.4159(4) 0.8756(3)
C10 C 0.7734(4) 0.4416(4) 0.9682(3)
H4 H 0.6867 0.4818 0.9493
C15 C 0.8893(4) 0.4538(4) 0.7455(3)
H7 H 0.5124 0.7407 0.8430
H8 H 0.4312 0.8594 0.7771
H9 H 0.7834 0.5831 0.4130
H10 H 0.7306 0.4802 0.3795
Cu3_2 Cu 1.0000 0.5000 0.5000
O30 O 0.6033(3) 0.3811(3) 0.5956(3)
O32 O 0.7231(3) 0.7494(3) 0.5546(3)
O36 O 0.4680(3) 0.5243(4) 0.8362(3)
O38 O 0.3405(3) 0.6117(3) 0.7029(2)
O16 O 0.5275(3) 0.2550(3) 0.5077(3)
O22 O 0.2259(3) 0.5055(4) 0.2806(3)
O27 O 0.4996(6) 0.2210(5) 0.2323(4)
O28 O 0.2546(3) 0.4786(3) 0.5651(3)
C17 C 0.7180(4) 0.1465(4) 0.5959(3)
C18 C 0.7199(4) 0.0200(4) 0.5689(3)
H11 H 0.6491 0.0139 0.5372
C21 C 0.9258(4) 0.0378(4) 0.6662(4)
C22 C 0.8217(4) 0.1547(4) 0.6469(4)
H13 H 0.8207 0.2373 0.6675
C23 C 0.6076(4) 0.2705(4) 0.5651(3)
C25 C 0.1038(4) 0.5841(4) 0.1244(3)
C26 C 0.2266(4) 0.5584(4) 0.0318(3)
H14 H 0.3133 0.5182 0.0507
C31 C 0.1107(4) 0.5462(4) 0.2545(3)
H17 H 0.4876 0.2593 0.1570
H18 H 0.5688 0.1406 0.2229
H19 H 0.2166 0.4169 0.5870
H20 H 0.2694 0.5198 0.6205
C27 C 0.2197(4) 0.5929(4) 0.9112(3)
C28 C 0.0900(4) 0.6515(4) 0.8833(3)
H15 H 0.0842 0.6739 0.8027
C32 C 0.3529(4) 0.5727(4) 0.8113(3)
O5 O 0.8790(6) 0.0601(4) 0.2576(6)
H2 H 0.9932 0.1637 0.3522
O18 O 0.9534(3) 0.6804(3) 0.5458(3)
C19 C 0.8260(4) 0.9046(3) 0.5893(3)
C20 C 0.9329(4) 0.9128(4) 0.6366(4)
C24 C 0.8315(4) 0.7681(4) 0.5611(3)
O34 O 0.9954(3) 0.5599(3) 0.3310(2)
O26 O 0.7293(4) 0.7677(7) 0.0348(4)
C30 C 0.9751(4) 0.6436(4) 0.0977(3)
H16 H 0.8932 0.6616 0.1598
O20 O 0.0481(5) 0.1514(4) 0.7264(5)
N3 N 0.0382(4) 0.0438(4) 0.7169(4)
O6 O 0.9519(5) 0.8486(4) 0.2736(5)
N1 N 0.9618(4) 0.9562(4) 0.2831(4)
O25 O 0.8250(4) 0.7489(5) 0.8437(3)
N4 N 0.8319(4) 0.7376(4) 0.9496(4)
C29 C 0.9692(4) 0.6763(4) 0.9773(4)
loop_
_geom_bond_atom_site_label_1
_geom_bond_atom_site_label_2
_geom_bond_site_symmetry_1
_geom_bond_site_symmetry_2
O11 N2 1_555 1_555
N2 C13 1_555 1_555
H6 C14 1_555 1_555
Cu3 O7 1_555 1_555
Cu3 O4 1_555 1_555
O3 C8 1_555 1_555
O4 C8 1_555 1_555
C4 C3 1_555 1_555
C8 C3 1_555 1_555
Gd8 O3 1_555 1_555
O9 C16 1_555 1_555
O10 C16 1_555 1_555
C12 C11 1_555 1_555
H5 C12 1_555 1_555
C16 C11 1_555 1_555
Gd8 O9 1_555 1_555
O10 Gd8 1_555 1_555
Gd1 O2 1_555 1_555
O1 C7 1_555 1_555
O2 C7 1_555 1_555
O8 Gd1 1_555 1_555
O13 Gd1 1_555 1_555
O14 Gd1 1_555 1_555
C1 C2 1_555 1_555
C2 H1 1_555 1_555
C6 C1 1_555 1_555
H3 C6 1_555 1_555
C7 C1 1_555 1_555
C9 C10 1_555 1_555
C10 H4 1_555 1_555
C15 O8 1_555 1_555
H7 O13 1_555 1_555
H8 O13 1_555 1_555
H9 O14 1_555 1_555
H10 O14 1_555 1_555
Gd8 O1 1_555 1_555
O30 Gd1 1_555 1_555
O32 Gd1 1_555 1_555
O36 Gd1 1_555 1_555
O38 Gd1 1_555 1_555
C5 C6 1_555 1_555
C9 C15 1_555 1_555
Gd8 O16 1_555 1_555
O30 C23 1_555 1_555
O16 C23 1_555 1_555
O22 Gd8 1_555 1_555
O27 Gd8 1_555 1_555
O28 Gd8 1_555 1_555
C17 C18 1_555 1_555
C18 H11 1_555 1_555
C22 C17 1_555 1_555
H13 C22 1_555 1_555
C23 C17 1_555 1_555
C25 C26 1_555 1_555
C26 H14 1_555 1_555
C31 O22 1_555 1_555
H17 O27 1_555 1_555
H18 O27 1_555 1_555
H19 O28 1_555 1_555
H20 O28 1_555 1_555
C21 C22 1_555 1_555
C25 C31 1_555 1_555
O36 C32 1_555 1_555
O38 C32 1_555 1_555
C28 C27 1_555 1_555
H15 C28 1_555 1_555
C32 C27 1_555 1_555
O32 C24 1_555 1_555
O18 Cu3_2 1_555 1_555
C20 C19 1_555 1_555
C24 O18 1_555 1_555
O34 Cu3_2 1_555 1_555
C19 C24 1_555 1_555
H16 C30 1_555 1_555
O20 N3 1_555 1_555
O6 N1 1_555 1_555
O25 N4 1_555 1_555
N4 C29 1_555 1_555

#END
