
###############################################################################
#
# This file contains modified crystal structure data generated from the
# MOF subset of the Cambridge Structural Database (CSD) v543 
# hosted by the Cambridge Crystallographic Data Centre (CCDC).
#
# This work is licensed under the Creative Commons
# Attribution-NonCommercial-ShareAlike 4.0 International License.
# To view a copy of this license, visit
# http://creativecommons.org/licenses/by-nc-sa/4.0/
# or send a letter to
# Creative Commons, PO Box 1866, Mountain View, CA 94042, USA.
#
# CIF created using the CSD Python API on 29 September 2022
# The structure has been converted into the P1 space group
# The structure has a 3D framework
# The original CSD entry SACCAD is in the monoclinic crystal system
# The framework has been calculated to contain at least 10.0% void space
# The void calculation uses a probe of radius 1.32A, grid spacing 0.4
#
###############################################################################

data_SACCAD
_chemical_formula_moiety         '(C72 H48 N24 O14 Zn4)n'
_symmetry_cell_setting           triclinic
_symmetry_space_group_name_H-M   'P 1'
_symmetry_Int_Tables_number      1
_space_group_name_Hall           'P 1'
loop_
_symmetry_equiv_pos_site_id
_symmetry_equiv_pos_as_xyz
1 x,y,z
_cell_length_a                   14.6252(7)
_cell_length_b                   16.5703(7)
_cell_length_c                   10.4179(5)
_cell_angle_alpha                90
_cell_angle_beta                 90.00
_cell_angle_gamma                90
_cell_volume                     2524.72
loop_
_atom_site_label
_atom_site_type_symbol
_atom_site_fract_x
_atom_site_fract_y
_atom_site_fract_z
O1 O 0.2985(5) 0.1480(4) 0.0269(7)
O2 O 0.2157(6) 0.2236(5) 0.1500(9)
C3 C 0.2340(7) 0.1578(6) 0.1035(9)
C4 C 0.1749(6) 0.0843(5) 0.1332(9)
C5 C 0.0815(9) 0.0916(7) 0.1644(10)
H2 H 0.0539 0.1421 0.1638
C6 C 0.0309(8) 0.0241(6) 0.1961(13)
C8 C 0.2122(8) 0.0079(7) 0.1194(10)
H5 H 0.2706 0.0016 0.0856
N1 N 0.9290(6) 0.7972(5) 0.3202(10)
C1 C 0.9559(7) 0.8727(6) 0.3160(8)
H1 H 0.9322 0.9146 0.3652
N3 N 0.9759(9) 0.7516(5) 0.2348(12)
C10 C 0.4787(7) 0.4396(6) 0.1061(9)
C11 C 0.4288(8) 0.3733(7) 0.0405(12)
C12 C 0.5599(10) 0.4264(6) 0.1809(10)
C13 C 0.4998(8) 0.5827(7) 0.1441(9)
H7 H 0.4797 0.6353 0.1309
C14 C 0.5739(8) 0.5700(5) 0.2193(10)
N4 N 0.6218(6) 0.6352(5) 0.2736(8)
C15 C 0.6051(8) 0.4861(7) 0.2349(11)
H8 H 0.6572 0.4752 0.2832
O3 O 0.4361(6) 0.3025(5) 0.0895(8)
C16 C 0.4519(7) 0.5186(6) 0.0850(10)
H9 H 0.4023 0.5295 0.0319
C17 C 0.5891(9) 0.7085(7) 0.2935(16)
H10 H 0.5321 0.7259 0.2655
O4 O 0.8823(6) 0.6101(5) 0.4468(9)
H11 H 0.5812 0.3740 0.1914
C18 C 0.7080(6) 0.6391(6) 0.3130(11)
N5 N 0.7243(5) 0.7062(5) 0.3636(10)
N6 N 0.6467(8) 0.7534(5) 0.3572(14)
H12 H 0.7505 0.5977 0.3043
Zn2 Zn 0.84048(7) 0.74745(6) 0.45685(9)
O5 O 0.7985(5) 0.8520(4) 0.5269(7)
O7 O 0.9361(6) 0.6975(5) 0.5895(8)
O2_2 O 0.7157(6) 0.7764(5) 0.6500(9)
C3_2 C 0.7340(7) 0.8422(6) 0.6035(9)
C4_2 C 0.6749(6) 0.9157(5) 0.6332(9)
C5_2 C 0.5815(9) 0.9084(7) 0.6644(10)
H2_2 H 0.5539 0.8579 0.6638
C6_2 C 0.5309(8) 0.9759(6) 0.6961(13)
H3 H 0.4703 0.9712 0.7221
C8_2 C 0.7122(8) 0.9921(7) 0.6194(10)
H5_2 H 0.7706 0.9984 0.5856
C10_2 C 0.9787(7) 0.5604(6) 0.6061(9)
C11_2 C 0.9288(8) 0.6267(7) 0.5405(12)
C13_2 C 0.9998(8) 0.4173(7) 0.6441(9)
H7_2 H 0.9797 0.3647 0.6309
C16_2 C 0.9519(7) 0.4814(6) 0.5850(10)
H9_2 H 0.9023 0.4705 0.5319
Zn1 Zn 0.34048(7) 0.25255(6) 0.95685(9)
O6 O 0.3823(6) 0.3899(5) 0.9468(9)
N1_2 N 0.4290(6) 0.2028(5) 0.8202(10)
N2 N 0.5234(6) 0.1204(5) 0.7290(9)
C1_2 C 0.4559(7) 0.1273(6) 0.8160(8)
H1_2 H 0.4322 0.0854 0.8652
C2 C 0.5734(7) 0.0520(5) 0.6880(8)
N3_2 N 0.4759(9) 0.2484(5) 0.7348(12)
C7 C 0.5373(9) 0.1986(6) 0.6788(13)
H4 H 0.5809 0.2132 0.6181
C9 C 0.6621(9) 0.0584(6) 0.6561(11)
H6 H 0.6902 0.1087 0.6590
C12_2 C 0.0599(10) 0.5736(6) 0.6809(10)
C14_2 C 0.0739(8) 0.4300(5) 0.7193(10)
N4_2 N 0.1218(6) 0.3648(5) 0.7736(8)
C15_2 C 0.1051(8) 0.5139(7) 0.7349(11)
H8_2 H 0.1572 0.5248 0.7832
C17_2 C 0.0891(9) 0.2915(7) 0.7935(16)
H10_2 H 0.0321 0.2741 0.7655
H11_2 H 0.0812 0.6260 0.6914
C18_2 C 0.2080(6) 0.3609(6) 0.8130(11)
N5_2 N 0.2243(5) 0.2938(5) 0.8636(10)
N6_2 N 0.1467(8) 0.2466(5) 0.8572(14)
H12_2 H 0.2505 0.4023 0.8043
N2_2 N 0.0234(6) 0.8796(5) 0.2290(9)
C2_2 C 0.0734(7) 0.9480(5) 0.1880(8)
C7_2 C 0.0373(9) 0.8014(6) 0.1788(13)
H4_2 H 0.0809 0.7868 0.1181
C9_2 C 0.1621(9) 0.9416(6) 0.1561(11)
H6_2 H 0.1902 0.8913 0.1590
H3_2 H 0.9703 0.0288 0.2221
N12 N 0.0154(6) 0.3642(4) 0.2750(8)
C22 C 0.0521(8) 0.2911(6) 0.3142(12)
C24 C 0.0631(9) 0.4317(5) 0.2179(11)
H16 H 0.1133 0.2768 0.3058
C27 C 0.1375(8) 0.4152(6) 0.1380(10)
C28 C 0.0405(7) 0.5088(6) 0.2514(11)
H19 H 0.1563 0.3624 0.1239
C31 C 0.1839(8) 0.4804(7) 0.0790(10)
C32 C 0.0868(8) 0.5726(6) 0.1957(11)
H23 H 0.2300 0.4702 0.0197
C34 C 0.1610(8) 0.5591(7) 0.1092(12)
H24 H 0.0693 0.6252 0.2149
C36 C 0.2091(8) 0.6244(7) 0.0534(11)
O13 O 0.2040(6) 0.6949(5) 0.0934(7)
C25 C 0.5467(8) 0.9811(7) 0.3189(11)
H17 H 0.5715 0.9846 0.4009
C29 C 0.4997(9) 0.9178(7) 0.2853(11)
C30 C 0.4670(10) 0.9764(8) 0.0785(12)
C33 C 0.4535(7) 0.9119(6) 0.1668(9)
H21 H 0.4965 0.8745 0.3420
C35 C 0.3985(7) 0.8393(6) 0.1225(10)
O11 O 0.4162(6) 0.7737(4) 0.1766(7)
O12 O 0.3419(5) 0.8500(4) 0.0338(6)
O14 O 0.2605(6) 0.6123(6) 0.9573(10)
Zn6 Zn 0.29720(7) 0.74618(5) 0.96398(8)
Zn4 Zn 0.79720(7) 0.25382(5) 0.46398(8)
N7 N 0.7025(6) 0.2022(5) 0.3500(8)
N8 N 0.9110(5) 0.2930(5) 0.3731(7)
O8 O 0.7040(6) 0.3051(5) 0.5934(7)
O9 O 0.8419(5) 0.1500(4) 0.5338(6)
O10 O 0.7605(6) 0.3877(6) 0.4573(10)
C19 C 0.6819(7) 0.1278(5) 0.3281(8)
N9 N 0.6315(11) 0.2496(6) 0.2950(13)
C20 C 0.9279(6) 0.3622(5) 0.3170(9)
N10 N 0.9911(6) 0.2465(4) 0.3631(11)
N11 N 0.6069(7) 0.1177(5) 0.2644(9)
H13 H 0.7180 0.0850 0.3558
C21 C 0.5700(12) 0.1982(9) 0.2570(14)
H14 H 0.8859 0.4039 0.3074
C23 C 0.5596(10) 0.0443(7) 0.2303(12)
H15 H 0.5114 0.2113 0.2293
C26 C 0.5166(10) 0.0411(8) 0.1115(12)
H18 H 0.5221 0.0842 0.0547
H20 H 0.9945 0.5183 0.3111
H22 H 0.4412 0.9735 0.9971
N7_2 N 0.2025(6) 0.7978(5) 0.8500(8)
N8_2 N 0.4110(5) 0.7070(5) 0.8731(7)
C19_2 C 0.1819(7) 0.8722(5) 0.8281(8)
N9_2 N 0.1315(11) 0.7504(6) 0.7950(13)
C20_2 C 0.4279(6) 0.6378(5) 0.8170(9)
N10_2 N 0.4911(6) 0.7535(4) 0.8631(11)
N11_2 N 0.1069(7) 0.8823(5) 0.7644(9)
H13_2 H 0.2180 0.9150 0.8558
C21_2 C 0.0700(12) 0.8018(9) 0.7570(14)
H14_2 H 0.3859 0.5961 0.8074
N12_2 N 0.5154(6) 0.6358(4) 0.7750(8)
C22_2 C 0.5521(8) 0.7089(6) 0.8142(12)
C23_2 C 0.0596(10) 0.9557(7) 0.7303(12)
H15_2 H 0.0114 0.7887 0.7293
C24_2 C 0.5631(9) 0.5683(5) 0.7179(11)
H16_2 H 0.6133 0.7232 0.8058
C26_2 C 0.0166(10) 0.9589(8) 0.6115(12)
C27_2 C 0.6375(8) 0.5848(6) 0.6380(10)
C28_2 C 0.5405(7) 0.4912(6) 0.7514(11)
H18_2 H 0.0221 0.9158 0.5547
H19_2 H 0.6563 0.6376 0.6239
C31_2 C 0.6839(8) 0.5196(7) 0.5790(10)
C32_2 C 0.5868(8) 0.4274(6) 0.6957(11)
H20_2 H 0.4945 0.4817 0.8111
H23_2 H 0.7300 0.5298 0.5197
C34_2 C 0.6610(8) 0.4409(7) 0.6092(12)
H24_2 H 0.5693 0.3748 0.7149
C36_2 C 0.7091(8) 0.3756(7) 0.5534(11)
C29_2 C 0.9997(9) 0.0822(7) 0.7853(11)
C30_2 C 0.9670(10) 0.0236(8) 0.5785(12)
C33_2 C 0.9535(7) 0.0881(6) 0.6668(9)
H21_2 H 0.9965 0.1255 0.8420
H22_2 H 0.9412 0.0265 0.4971
C35_2 C 0.8985(7) 0.1607(6) 0.6225(10)
O11_2 O 0.9162(6) 0.2263(4) 0.6766(7)
C25_2 C 0.0467(8) 0.0189(7) 0.8189(11)
H17_2 H 0.0715 0.0154 0.9009
loop_
_geom_bond_atom_site_label_1
_geom_bond_atom_site_label_2
_geom_bond_site_symmetry_1
_geom_bond_site_symmetry_2
O1 C3 1_555 1_555
O2 C3 1_555 1_555
C3 C4 1_555 1_555
C4 C5 1_555 1_555
C5 H2 1_555 1_555
C8 C4 1_555 1_555
H5 C8 1_555 1_555
C5 C6 1_555 1_555
N1 C1 1_555 1_555
C1 H1 1_555 1_555
N3 N1 1_555 1_555
C10 C11 1_555 1_555
C11 O3 1_555 1_555
C12 C10 1_555 1_555
C13 H7 1_555 1_555
C14 C13 1_555 1_555
N4 C14 1_555 1_555
C15 C12 1_555 1_555
H8 C15 1_555 1_555
C16 C10 1_555 1_555
H9 C16 1_555 1_555
C17 N4 1_555 1_555
H10 C17 1_555 1_555
O4 Zn2 1_555 1_555
H11 C12 1_555 1_555
C18 N4 1_555 1_555
N5 C18 1_555 1_555
N6 C17 1_555 1_555
H12 C18 1_555 1_555
Zn2 N1 1_555 1_555
O5 Zn2 1_555 1_555
O7 Zn2 1_555 1_555
C13 C16 1_555 1_555
C14 C15 1_555 1_555
N5 N6 1_555 1_555
N5 Zn2 1_555 1_555
O5 C3_2 1_555 1_555
O2_2 C3_2 1_555 1_555
C3_2 C4_2 1_555 1_555
C4_2 C5_2 1_555 1_555
C5_2 H2_2 1_555 1_555
H3 C6_2 1_555 1_555
C8_2 C4_2 1_555 1_555
H5_2 C8_2 1_555 1_555
C5_2 C6_2 1_555 1_555
C10_2 C11_2 1_555 1_555
C11_2 O7 1_555 1_555
C13_2 H7_2 1_555 1_555
C16_2 C10_2 1_555 1_555
H9_2 C16_2 1_555 1_555
O4 C11_2 1_555 1_555
C13_2 C16_2 1_555 1_555
Zn1 O6 1_555 1_555
N1_2 C1_2 1_555 1_555
N2 C1_2 1_555 1_555
C1_2 H1_2 1_555 1_555
C2 N2 1_555 1_555
N3_2 N1_2 1_555 1_555
C7 N2 1_555 1_555
H4 C7 1_555 1_555
C9 C2 1_555 1_555
H6 C9 1_555 1_555
N4_2 C14_2 1_555 1_555
C15_2 C12_2 1_555 1_555
H8_2 C15_2 1_555 1_555
C17_2 N4_2 1_555 1_555
H10_2 C17_2 1_555 1_555
H11_2 C12_2 1_555 1_555
C18_2 N4_2 1_555 1_555
N5_2 C18_2 1_555 1_555
N6_2 C17_2 1_555 1_555
H12_2 C18_2 1_555 1_555
Zn1 N1_2 1_555 1_555
N3_2 C7 1_555 1_555
C14_2 C15_2 1_555 1_555
N5_2 N6_2 1_555 1_555
N5_2 Zn1 1_555 1_555
C2_2 N2_2 1_555 1_555
C7_2 N2_2 1_555 1_555
H4_2 C7_2 1_555 1_555
C9_2 C2_2 1_555 1_555
H6_2 C9_2 1_555 1_555
C24 N12 1_555 1_555
H16 C22 1_555 1_555
C27 C24 1_555 1_555
C28 C24 1_555 1_555
H19 C27 1_555 1_555
C31 C27 1_555 1_555
C32 C28 1_555 1_555
H23 C31 1_555 1_555
C34 C31 1_555 1_555
H24 C32 1_555 1_555
C36 C34 1_555 1_555
O13 C36 1_555 1_555
N12 C22 1_555 1_555
C32 C34 1_555 1_555
H17 C25 1_555 1_555
C29 C25 1_555 1_555
C33 C29 1_555 1_555
H21 C29 1_555 1_555
C35 C33 1_555 1_555
O11 C35 1_555 1_555
O12 C35 1_555 1_555
C30 C33 1_555 1_555
O14 Zn6 1_555 1_555
Zn4 N7 1_555 1_555
N7 C19 1_555 1_555
N8 Zn4 1_555 1_555
O8 Zn4 1_555 1_555
O9 Zn4 1_555 1_555
O10 Zn4 1_555 1_555
C19 N11 1_555 1_555
N9 N7 1_555 1_555
C20 N8 1_555 1_555
N10 N8 1_555 1_555
N11 C21 1_555 1_555
H13 C19 1_555 1_555
C21 N9 1_555 1_555
H14 C20 1_555 1_555
C23 N11 1_555 1_555
H15 C21 1_555 1_555
C26 C23 1_555 1_555
H18 C26 1_555 1_555
Zn6 N7_2 1_555 1_555
N7_2 C19_2 1_555 1_555
N8_2 Zn6 1_555 1_555
C19_2 N11_2 1_555 1_555
N9_2 N7_2 1_555 1_555
C20_2 N8_2 1_555 1_555
N10_2 N8_2 1_555 1_555
N11_2 C21_2 1_555 1_555
H13_2 C19_2 1_555 1_555
C21_2 N9_2 1_555 1_555
H14_2 C20_2 1_555 1_555
N12_2 C20_2 1_555 1_555
C22_2 N10_2 1_555 1_555
C23_2 N11_2 1_555 1_555
H15_2 C21_2 1_555 1_555
C24_2 N12_2 1_555 1_555
H16_2 C22_2 1_555 1_555
C26_2 C23_2 1_555 1_555
C27_2 C24_2 1_555 1_555
C28_2 C24_2 1_555 1_555
H18_2 C26_2 1_555 1_555
H19_2 C27_2 1_555 1_555
C31_2 C27_2 1_555 1_555
C32_2 C28_2 1_555 1_555
H20_2 C28_2 1_555 1_555
H23_2 C31_2 1_555 1_555
C34_2 C31_2 1_555 1_555
H24_2 C32_2 1_555 1_555
C36_2 C34_2 1_555 1_555
O8 C36_2 1_555 1_555
O10 C36_2 1_555 1_555
N12_2 C22_2 1_555 1_555
C32_2 C34_2 1_555 1_555
C33_2 C29_2 1_555 1_555
H21_2 C29_2 1_555 1_555
H22_2 C30_2 1_555 1_555
C35_2 C33_2 1_555 1_555
O11_2 C35_2 1_555 1_555
O9 C35_2 1_555 1_555
C30_2 C33_2 1_555 1_555
H17_2 C25_2 1_555 1_555

#END
