
###############################################################################
#
# This file contains modified crystal structure data generated from the
# MOF subset of the Cambridge Structural Database (CSD) v543 
# hosted by the Cambridge Crystallographic Data Centre (CCDC).
#
# This work is licensed under the Creative Commons
# Attribution-NonCommercial-ShareAlike 4.0 International License.
# To view a copy of this license, visit
# http://creativecommons.org/licenses/by-nc-sa/4.0/
# or send a letter to
# Creative Commons, PO Box 1866, Mountain View, CA 94042, USA.
#
# CIF created using the CSD Python API on 29 September 2022
# The structure has been converted into the P1 space group
# The structure has a 3D framework
# The original CSD entry SADLIU is in the tetragonal crystal system
# The original CSD entry SADLIU is in a Sohncke space group
# The framework has been calculated to contain at least 10.0% void space
# The void calculation uses a probe of radius 1.32A, grid spacing 0.4
# H atom positions have been added when not included in the experimental data
# Generated hydrogen atom positions removed from atoms on special positions
#
###############################################################################

data_SADLIU
_chemical_formula_moiety         '(C54 H50 O28 Yb4)n'
_symmetry_cell_setting           triclinic
_symmetry_space_group_name_H-M   'P 1'
_symmetry_Int_Tables_number      1
_space_group_name_Hall           'P 1'
loop_
_symmetry_equiv_pos_site_id
_symmetry_equiv_pos_as_xyz
1 x,y,z
_cell_length_a                   10.2410(3)
_cell_length_b                   10.2410(3)
_cell_length_c                   14.4026(5)
_cell_angle_alpha                90
_cell_angle_beta                 90
_cell_angle_gamma                90
_cell_volume                     1510.52
loop_
_atom_site_label
_atom_site_type_symbol
_atom_site_fract_x
_atom_site_fract_y
_atom_site_fract_z
O15 O 0.0681(7) 0.1113(6) 0.0987(5)
Yb3 Yb 0.14713(3) 0.14713(3) 0.8750
Yb10 Yb 0.14713(3) 0.85287(3) 0.6250
Yb2 Yb 0.85287(3) 0.14713(3) 0.1250
O6 O 0.6677(5) 0.0722(7) 0.1920(4)
O8 O 0.9278(7) 0.3323(5) 0.0580(4)
O18 O 0.2416(6) 0.0922(6) 0.0112(4)
O21 O 0.9078(6) 0.2416(6) 0.2612(4)
O22 O 0.6865(7) 0.3135(7) 0.1250
C7 C 0.6136(10) 0.0000 0.2500
C8 C 0.4658(9) 0.0000 0.2500
C10 C 0.3981(6) 0.0433(8) 0.1719(5)
H4 H 0.4435 0.0733 0.1202
C13 C 0.2617(6) 0.0414(7) 0.1718(4)
C15 C 0.1959(10) 0.0000 0.2500
H6 H 0.1051 0.0000 0.2500
C17 C 0.1842(7) 0.0849(8) 0.0877(5)
O1 O 0.3323(5) 0.0722(7) 0.8080(4)
O2 O 0.9319(7) 0.1113(6) 0.9013(5)
O3 O 0.7584(6) 0.0922(6) 0.9888(4)
O4 O 0.3135(7) 0.3135(7) 0.8750
C1 C 0.3864(10) -0.0000 0.7500
C2 C 0.5342(9) -0.0000 0.7500
C3 C 0.6019(6) 0.0433(8) 0.8281(5)
H1 H 0.5565 0.0733 0.8798
C4 C 0.7383(6) 0.0414(7) 0.8282(4)
C5 C 0.8041(10) -0.0000 0.7500
H2 H 0.8949 -0.0000 0.7500
C6 C 0.8158(7) 0.0849(8) 0.9123(5)
O9 O 0.0722(7) 0.3323(5) 0.9420(4)
O20 O 0.0922(6) 0.2416(6) 0.7388(4)
Yb6 Yb 0.85287(3) 0.85287(3) 0.3750
O7 O 0.6677(5) 0.9278(7) 0.3080(4)
O12 O 0.0681(7) 0.8887(6) 0.4013(5)
O14 O 0.8887(6) 0.9319(7) 0.1513(5)
O19 O 0.2416(6) 0.9078(6) 0.4888(4)
C7_2 C 0.6136(10) 1.0000 0.2500
C8_2 C 0.4658(9) 1.0000 0.2500
C11 C 0.3981(6) 0.9567(8) 0.3281(5)
H5 H 0.4435 0.9267 0.3798
C14 C 0.2617(6) 0.9586(7) 0.3282(4)
C15_2 C 0.1959(10) 1.0000 0.2500
H6_2 H 0.1051 1.0000 0.2500
C18 C 0.1842(7) 0.9151(8) 0.4123(5)
C1_2 C 0.3864(10) 1.0000 0.7500
C2_2 C 0.5342(9) 1.0000 0.7500
C5_2 C 0.8041(10) 1.0000 0.7500
H2_2 H 0.8949 1.0000 0.7500
O5 O 0.3323(5) 0.9278(7) 0.6920(4)
O10 O 0.9319(7) 0.8887(6) 0.5987(5)
O16 O 0.1113(6) 0.9319(7) 0.8487(5)
O17 O 0.7584(6) 0.9078(6) 0.5112(4)
C9 C 0.6019(6) 0.9567(8) 0.6719(5)
H3 H 0.5565 0.9267 0.6202
C12 C 0.7383(6) 0.9586(7) 0.6718(4)
C16 C 0.8158(7) 0.9151(8) 0.5877(5)
O14_2 O 0.1113(6) 0.0681(7) 0.6513(5)
O16_2 O 0.8887(6) 0.0681(7) 0.3487(5)
O4_2 O 0.6865(7) 0.6865(7) 0.3750
O8_2 O 0.0722(7) 0.6677(5) 0.5580(4)
O9_2 O 0.9278(7) 0.6677(5) 0.4420(4)
O20_2 O 0.9078(6) 0.7584(6) 0.2388(4)
O21_2 O 0.0922(6) 0.7584(6) 0.7612(4)
O22_2 O 0.3135(7) 0.6865(7) 0.6250
C1_3 C -0.0000 0.3864(10) 0.0000
C2_3 C -0.0000 0.5342(9) 0.0000
C5_3 C -0.0000 0.8041(10) 0.0000
H2_3 H -0.0000 0.8949 0.0000
C7_3 C 0.0000 0.6136(10) 0.5000
C8_3 C -0.0000 0.4658(9) 0.5000
C11_2 C 0.0433(8) 0.3981(6) 0.5781(5)
H5_2 H 0.0733 0.4435 0.6298
C14_2 C 0.0414(7) 0.2617(6) 0.5782(4)
C15_3 C 0.0000 0.1959(10) 0.5000
H6_3 H 0.0000 0.1051 0.5000
C18_2 C 0.0849(8) 0.1842(7) 0.6623(5)
C1_4 C -0.0000 0.3864(10) 1.0000
C2_4 C -0.0000 0.5342(9) 1.0000
C5_4 C -0.0000 0.8041(10) 1.0000
H2_4 H -0.0000 0.8949 1.0000
C9_2 C 0.0433(8) 0.6019(6) 0.9219(5)
H3_2 H 0.0733 0.5565 0.8702
C12_2 C 0.0414(7) 0.7383(6) 0.9218(4)
C16_2 C 0.0849(8) 0.8158(7) 0.8377(5)
C1_5 C 1.0000 0.3864(10) 0.0000
C2_5 C 1.0000 0.5342(9) 0.0000
C3_2 C 0.9567(8) 0.6019(6) 0.0781(5)
H1_2 H 0.9267 0.5565 0.1298
C4_2 C 0.9586(7) 0.7383(6) 0.0782(4)
C5_5 C 1.0000 0.8041(10) 0.0000
H2_5 H 1.0000 0.8949 0.0000
C6_2 C 0.9151(8) 0.8158(7) 0.1623(5)
C7_4 C 1.0000 0.6136(10) 0.5000
C8_4 C 1.0000 0.4658(9) 0.5000
C10_2 C 0.9567(8) 0.3981(6) 0.4219(5)
H4_2 H 0.9267 0.4435 0.3702
C13_2 C 0.9586(7) 0.2617(6) 0.4218(4)
C15_4 C 1.0000 0.1959(10) 0.5000
H6_4 H 1.0000 0.1051 0.5000
C17_2 C 0.9151(8) 0.1842(7) 0.3377(5)
C1_6 C 1.0000 0.3864(10) 1.0000
C2_6 C 1.0000 0.5342(9) 1.0000
C5_6 C 1.0000 0.8041(10) 1.0000
H2_6 H 1.0000 0.8949 1.0000
loop_
_geom_bond_atom_site_label_1
_geom_bond_atom_site_label_2
_geom_bond_site_symmetry_1
_geom_bond_site_symmetry_2
O6 Yb2 1_555 1_555
O8 Yb2 1_555 1_555
O15 C17 1_555 1_555
O21 Yb2 1_555 1_555
O22 Yb2 1_555 1_555
C7 O6 1_555 1_555
C8 C7 1_555 1_555
C10 C8 1_555 1_555
H4 C10 1_555 1_555
C13 C10 1_555 1_555
C15 C13 1_555 1_555
H6 C15 1_555 1_555
C17 O18 1_555 1_555
C13 C17 1_555 1_555
Yb3 O1 1_555 1_555
O1 C1 1_555 1_555
O2 C6 1_555 1_555
O3 C6 1_555 1_555
O4 Yb3 1_555 1_555
C1 C2 1_555 1_555
C2 C3 1_555 1_555
C3 H1 1_555 1_555
C4 C3 1_555 1_555
C5 C4 1_555 1_555
H2 C5 1_555 1_555
C6 C4 1_555 1_555
O9 Yb3 1_555 1_555
O20 Yb3 1_555 1_555
Yb6 O7 1_555 1_555
Yb10 O19 1_555 1_555
O7 C7_2 1_555 1_555
O12 C18 1_555 1_555
O19 C18 1_555 1_555
C8_2 C7_2 1_555 1_555
C11 C8_2 1_555 1_555
H5 C11 1_555 1_555
C14 C11 1_555 1_555
H6_2 C15_2 1_555 1_555
C18 C14 1_555 1_555
C14 C15_2 1_555 1_555
C1_2 C2_2 1_555 1_555
H2_2 C5_2 1_555 1_555
Yb6 O17 1_555 1_555
Yb10 O5 1_555 1_555
O5 C1_2 1_555 1_555
O10 C16 1_555 1_555
O17 C16 1_555 1_555
C9 C2_2 1_555 1_555
H3 C9 1_555 1_555
C12 C5_2 1_555 1_555
C16 C12 1_555 1_555
C9 C12 1_555 1_555
O4_2 Yb6 1_555 1_555
O8_2 Yb10 1_555 1_555
O9_2 Yb6 1_555 1_555
O20_2 Yb6 1_555 1_555
O21_2 Yb10 1_555 1_555
O22_2 Yb10 1_555 1_555
C1_3 C2_3 1_555 1_555
H2_3 C5_3 1_555 1_555
O8_2 C7_3 1_555 1_555
O14_2 C18_2 1_555 1_555
O20 C18_2 1_555 1_555
C8_3 C7_3 1_555 1_555
C11_2 C8_3 1_555 1_555
H5_2 C11_2 1_555 1_555
C14_2 C11_2 1_555 1_555
H6_3 C15_3 1_555 1_555
C18_2 C14_2 1_555 1_555
C14_2 C15_3 1_555 1_555
C1_4 C2_4 1_555 1_555
H2_4 C5_4 1_555 1_555
O9 C1_4 1_555 1_555
O16 C16_2 1_555 1_555
O21_2 C16_2 1_555 1_555
C9_2 C2_4 1_555 1_555
H3_2 C9_2 1_555 1_555
C12_2 C5_4 1_555 1_555
C16_2 C12_2 1_555 1_555
C9_2 C12_2 1_555 1_555
O8 C1_5 1_555 1_555
O14 C6_2 1_555 1_555
O20_2 C6_2 1_555 1_555
C1_5 C2_5 1_555 1_555
C2_5 C3_2 1_555 1_555
C3_2 H1_2 1_555 1_555
C4_2 C3_2 1_555 1_555
C5_5 C4_2 1_555 1_555
H2_5 C5_5 1_555 1_555
C6_2 C4_2 1_555 1_555
O16_2 C17_2 1_555 1_555
C7_4 O9_2 1_555 1_555
C8_4 C7_4 1_555 1_555
C10_2 C8_4 1_555 1_555
H4_2 C10_2 1_555 1_555
C13_2 C10_2 1_555 1_555
C15_4 C13_2 1_555 1_555
H6_4 C15_4 1_555 1_555
C17_2 O21 1_555 1_555
C13_2 C17_2 1_555 1_555
C1_6 C2_6 1_555 1_555
H2_6 C5_6 1_555 1_555

#END
