
###############################################################################
#
# This file contains modified crystal structure data generated from the
# MOF subset of the Cambridge Structural Database (CSD) v543 
# hosted by the Cambridge Crystallographic Data Centre (CCDC).
#
# This work is licensed under the Creative Commons
# Attribution-NonCommercial-ShareAlike 4.0 International License.
# To view a copy of this license, visit
# http://creativecommons.org/licenses/by-nc-sa/4.0/
# or send a letter to
# Creative Commons, PO Box 1866, Mountain View, CA 94042, USA.
#
# CIF created using the CSD Python API on 29 September 2022
# The structure has been converted into the P1 space group
# The structure has a 3D framework
# The original CSD entry SADMIV is in the monoclinic crystal system
# The framework has been calculated to contain at least 10.0% void space
# The void calculation uses a probe of radius 1.32A, grid spacing 0.4
#
###############################################################################

data_SADMIV
_chemical_formula_moiety         '(C32 H16 Fe9 O15)n'
_symmetry_cell_setting           triclinic
_symmetry_space_group_name_H-M   'P 1'
_symmetry_Int_Tables_number      1
_space_group_name_Hall           'P 1'
loop_
_symmetry_equiv_pos_site_id
_symmetry_equiv_pos_as_xyz
1 x,y,z
_cell_length_a                   21.1299(1)
_cell_length_b                   7.6427(1)
_cell_length_c                   6.8306(1)
_cell_angle_alpha                90
_cell_angle_beta                 114.935(4)
_cell_angle_gamma                90
_cell_volume                     1000.25
loop_
_atom_site_label
_atom_site_type_symbol
_atom_site_fract_x
_atom_site_fract_y
_atom_site_fract_z
Fe1 Fe 0.0000 0.0000 0.0000
Fe3 Fe 0.0000 0.0000 0.5000
O4 O 0.0000 0.1135(3) 0.2500
O9 O 0.0889 0.1307 0.0373
Fe1_2 Fe 0.0000 0.0000 1.0000
Fe4 Fe 0.5000 0.5000 0.0000
Fe1_3 Fe 0.0000 1.0000 0.0000
O2 O 0.0637 0.8211 0.1950
O3 O 0.0889 0.8693 0.5373
C1 C 0.1815 0.7875 0.4472
C2 C 0.2019 0.7382 0.2903
C3 C 0.2296 0.7993 0.6569
C4 C 0.1081 0.8278 0.3907
H1 H 0.1674 0.7297 0.1398
H2 H 0.2150 0.8347 0.7695
Fe3_2 Fe 0.0000 1.0000 0.5000
Fe4_2 Fe 0.5000 0.5000 1.0000
Fe5 Fe 0.5000 0.5000 0.5000
O5 O 0.4363 0.6789 0.8050
O7 O 0.4111 0.6307 0.4627
C5 C 0.3185 0.7125 0.5528
C6 C 0.2981 0.7618 0.7097
C7 C 0.2704 0.7007 0.3431
C8 C 0.3919 0.6722 0.6093
H3 H 0.3326 0.7703 0.8602
H4 H 0.2850 0.6653 0.2305
Fe1_4 Fe 0.0000 1.0000 1.0000
O1 O 0.0000 0.8865(3) 0.7500
Fe1_5 Fe 1.0000 0.0000 0.0000
Fe3_3 Fe 1.0000 0.0000 0.5000
O4_2 O 1.0000 0.1135(3) 0.2500
Fe1_6 Fe 1.0000 0.0000 1.0000
O6 O 0.9363 0.1789 0.8050
Fe1_7 Fe 1.0000 1.0000 0.0000
Fe3_4 Fe 1.0000 1.0000 0.5000
Fe1_8 Fe 1.0000 1.0000 1.0000
O1_2 O 1.0000 0.8865(3) 0.7500
O8 O 0.9111 0.8693 0.9627
O6_2 O 0.0637 0.1789 0.6950
O9_2 O 0.9111 0.1307 0.4627
O2_2 O 0.9363 0.8211 0.3050
C1_2 C 0.8185 0.7875 0.0528
C2_2 C 0.7981 0.7382 0.2097
C4_2 C 0.8919 0.8278 0.1093
H1_2 H 0.8326 0.7297 0.3602
O7_2 O 0.5889 0.6307 0.0373
C7_2 C 0.7296 0.7007 0.1569
H4_2 H 0.7150 0.6653 0.2695
C3_2 C 0.7704 0.7993 0.8431
H2_2 H 0.7850 0.8347 0.7305
O5_2 O 0.5637 0.6789 0.6950
C5_2 C 0.6815 0.7125 0.9472
C6_2 C 0.7019 0.7618 0.7903
C8_2 C 0.6081 0.6722 0.8907
H3_2 H 0.6674 0.7703 0.6398
O2_3 O 0.5637 0.3211 0.1950
O3_2 O 0.5889 0.3693 0.5373
C1_3 C 0.6815 0.2875 0.4472
C2_3 C 0.7019 0.2382 0.2903
C3_3 C 0.7296 0.2993 0.6569
C4_3 C 0.6081 0.3278 0.3907
H1_3 H 0.6674 0.2297 0.1398
H2_3 H 0.7150 0.3347 0.7695
O4_3 O 0.5000 0.6135(3) 0.2500
C5_3 C 0.8185 0.2125 0.5528
C6_3 C 0.7981 0.2618 0.7097
C7_3 C 0.7704 0.2007 0.3431
C8_3 C 0.8919 0.1722 0.6093
H3_3 H 0.8326 0.2703 0.8602
H4_3 H 0.7850 0.1653 0.2305
O1_3 O 0.5000 0.3865(3) 0.7500
O8_2 O 0.4111 0.3693 0.9627
O2_4 O 0.4363 0.3211 0.3050
C1_4 C 0.3185 0.2875 0.0528
C2_4 C 0.2981 0.2382 0.2097
C4_4 C 0.3919 0.3278 0.1093
H1_4 H 0.3326 0.2297 0.3602
C7_4 C 0.2296 0.2007 0.1569
H4_4 H 0.2150 0.1653 0.2695
C3_4 C 0.2704 0.2993 0.8431
H2_4 H 0.2850 0.3347 0.7305
C5_4 C 0.1815 0.2125 0.9472
C6_4 C 0.2019 0.2618 0.7903
C8_4 C 0.1081 0.1722 0.8907
H3_4 H 0.1674 0.2703 0.6398
loop_
_geom_bond_atom_site_label_1
_geom_bond_atom_site_label_2
_geom_bond_site_symmetry_1
_geom_bond_site_symmetry_2
O4 Fe1 1_555 1_555
O9 Fe1 1_555 1_555
Fe3 O4 1_555 1_555
O2 Fe1_3 1_555 1_555
O3 C4 1_555 1_555
C1 C2 1_555 1_555
C2 H1 1_555 1_555
C3 C1 1_555 1_555
C4 O2 1_555 1_555
H2 C3 1_555 1_555
Fe3_2 O3 1_555 1_555
Fe4_2 O5 1_555 1_555
Fe5 O7 1_555 1_555
O5 C8 1_555 1_555
O7 C8 1_555 1_555
C5 C6 1_555 1_555
C6 C3 1_555 1_555
C7 C2 1_555 1_555
C8 C5 1_555 1_555
H3 C6 1_555 1_555
H4 C7 1_555 1_555
C1 C4 1_555 1_555
C5 C7 1_555 1_555
Fe1_4 O1 1_555 1_555
O1 Fe3_2 1_555 1_555
O4_2 Fe1_5 1_555 1_555
Fe3_3 O4_2 1_555 1_555
O6 Fe1_6 1_555 1_555
Fe1_8 O1_2 1_555 1_555
O1_2 Fe3_4 1_555 1_555
O8 Fe1_8 1_555 1_555
O6_2 Fe3 1_555 1_555
O9_2 Fe3_3 1_555 1_555
O2_2 Fe3_4 1_555 1_555
C1_2 C2_2 1_555 1_555
C2_2 H1_2 1_555 1_555
C4_2 O2_2 1_555 1_555
Fe4 O7_2 1_555 1_555
C7_2 C2_2 1_555 1_555
H4_2 C7_2 1_555 1_555
C1_2 C4_2 1_555 1_555
H2_2 C3_2 1_555 1_555
Fe5 O5_2 1_555 1_555
O5_2 C8_2 1_555 1_555
C5_2 C6_2 1_555 1_555
C6_2 C3_2 1_555 1_555
C8_2 C5_2 1_555 1_555
H3_2 C6_2 1_555 1_555
O2_3 Fe4 1_555 1_555
O3_2 C4_3 1_555 1_555
C1_3 C2_3 1_555 1_555
C2_3 H1_3 1_555 1_555
C3_3 C1_3 1_555 1_555
C4_3 O2_3 1_555 1_555
H2_3 C3_3 1_555 1_555
Fe5 O3_2 1_555 1_555
O4_3 Fe4 1_555 1_555
O6 C8_3 1_555 1_555
O9_2 C8_3 1_555 1_555
C5_3 C6_3 1_555 1_555
C6_3 C3_3 1_555 1_555
C7_3 C2_3 1_555 1_555
C8_3 C5_3 1_555 1_555
H3_3 C6_3 1_555 1_555
H4_3 C7_3 1_555 1_555
C1_3 C4_3 1_555 1_555
Fe5 O4_3 1_555 1_555
C5_3 C7_3 1_555 1_555
Fe4_2 O1_3 1_555 1_555
O1_3 Fe5 1_555 1_555
O8_2 Fe4_2 1_555 1_555
O2_4 Fe5 1_555 1_555
C1_4 C2_4 1_555 1_555
C2_4 H1_4 1_555 1_555
C4_4 O2_4 1_555 1_555
C7_4 C2_4 1_555 1_555
H4_4 C7_4 1_555 1_555
C1_4 C4_4 1_555 1_555
H2_4 C3_4 1_555 1_555
O6_2 C8_4 1_555 1_555
C5_4 C6_4 1_555 1_555
C6_4 C3_4 1_555 1_555
C8_4 C5_4 1_555 1_555
H3_4 C6_4 1_555 1_555

#END
