####################################################################### 
# 
# This file contains crystal structure data downloaded from the 
# Cambridge Structural Database (CSD) hosted by the Cambridge 
# Crystallographic Data Centre (CCDC).
# 
# Full information about CCDC data access policies and citation 
# guidelines are available at http://www.ccdc.cam.ac.uk/access/V1 
# 
# Audit and citation data items may have been added by the CCDC. 
# Please retain this information to preserve the provenance of 
# this file and to allow appropriate attribution of the data. 
# 
#######################################################################

data_2
_audit_block_doi                 10.5517/ccvhxcl
_database_code_depnum_ccdc_archive 'CCDC 789860'
loop_
_citation_id
_citation_doi
_citation_year
1 10.1021/cm1008587 2010
_audit_update_record             
;
2010-08-19 deposited with the CCDC.	2024-07-12 downloaded from the CCDC.
;

_audit_creation_method           'Created with Diamond v2.0'
_audit_creation_date             10-02-10
_chemical_formula_sum            'Fe4 O20 C52 H36 N4'
_chemical_formula_weight         1260.259
_cell_length_a                   19.2034(2)
_cell_length_b                   11.1758(1)
_cell_length_c                   6.8890(1)
_cell_angle_alpha                90.000
_cell_angle_beta                 109.004(1)
_cell_angle_gamma                90.000
_cell_volume                     1397.9(0)
_symmetry_int_tables_number      15
_symmetry_space_group_name_H-M   'C 1 2/c 1'
_symmetry_space_group_name_Hall  -C_2yc

loop_
_atom_type_symbol
_atom_type_oxidation_number
_atom_type_radius_bond
Fe ? 1.200
O ? 0.680
C ? 0.860
H ? 0.780
N ? 0.800


loop_
_atom_site_label
_atom_site_type_symbol
_atom_site_fract_x
_atom_site_fract_y
_atom_site_fract_z
_atom_site_occupancy
_atom_site_symmetry_multiplicity
_atom_site_Wyckoff_symbol
_atom_site_attached_hydrogens
_atom_site_calc_flag
_atom_site_thermal_displace_type
_atom_site_u_iso_or_equiv
Fe Fe 0.0000 0.0000 0.0000 1.000 4 a ? d ? ?
O1 O 0.0000 -0.0908(4) 0.7500 1.000 4 e ? d ? ?
O11 O 0.0717 0.1231 -0.0328 1.000 8 f ? d ? ?
O12 O 0.0845 0.1059 -0.3375 1.000 8 f ? d ? ?
C11 C 0.1822 0.1966 -0.0730 1.000 8 f ? d ? ?
C12 C 0.2090 0.2333 0.1275 1.000 8 f ? d ? ?
C13 C 0.2768 0.2867 0.2005 1.000 8 f ? d ? ?
C17 C 0.1095 0.1393 -0.1513 1.000 8 f ? d ? ?
H12 H 0.1796 0.2213 0.2186 1.000 8 f ? d ? ?
H13 H 0.2959 0.3129 0.3438 1.000 8 f ? d ? ?
N1 N 0.0000 0.6739 0.7500 1.000 4 e ? d ? ?
C2 C 0.0659 0.6113 0.8390 1.000 8 f ? d ? ?
C3 C 0.0658 0.4861 0.8411 1.000 8 f ? d ? ?
C4 C 0.0000 0.4233 0.7500 1.000 4 e ? d ? ?
H2 H 0.1121 0.6552 0.8998 1.000 8 f ? d ? ?
H3 H 0.1119 0.4423 0.9035 1.000 8 f ? d ? ?
H4 H 0.0000 0.3357 0.7500 1.000 4 e ? d ? ?
