
###############################################################################
#
# This file contains modified crystal structure data generated from the
# MOF subset of the Cambridge Structural Database (CSD) v543 
# hosted by the Cambridge Crystallographic Data Centre (CCDC).
#
# This work is licensed under the Creative Commons
# Attribution-NonCommercial-ShareAlike 4.0 International License.
# To view a copy of this license, visit
# http://creativecommons.org/licenses/by-nc-sa/4.0/
# or send a letter to
# Creative Commons, PO Box 1866, Mountain View, CA 94042, USA.
#
# CIF created using the CSD Python API on 29 September 2022
# The structure has been converted into the P1 space group
# The structure has a 3D framework
# The original CSD entry SAFBAF is in the tetragonal crystal system
# The original CSD entry SAFBAF is in a Sohncke space group
# The framework has been calculated to contain at least 10.0% void space
# The void calculation uses a probe of radius 1.32A, grid spacing 0.4
#
###############################################################################

data_SAFBAF
_chemical_formula_moiety         '(C80 H104 Cu8 N40 O32)n'
_symmetry_cell_setting           triclinic
_symmetry_space_group_name_H-M   'P 1'
_symmetry_Int_Tables_number      1
_space_group_name_Hall           'P 1'
loop_
_symmetry_equiv_pos_site_id
_symmetry_equiv_pos_as_xyz
1 x,y,z
_cell_length_a                   13.9797(5)
_cell_length_b                   13.9797(5)
_cell_length_c                   27.4718(9)
_cell_angle_alpha                90
_cell_angle_beta                 90
_cell_angle_gamma                90
_cell_volume                     5368.87
loop_
_atom_site_label
_atom_site_type_symbol
_atom_site_fract_x
_atom_site_fract_y
_atom_site_fract_z
Cu1 Cu 0.25244(2) 0.608496(19) 0.710759(9)
O1 O 0.28619(13) 0.39777(13) 0.55930(6)
O2 O 0.13295(15) 0.63911(15) 0.57756(6)
O3 O 0.04755(14) 0.37494(13) 0.54259(7)
O4 O 0.12863(12) 0.23884(12) 0.53236(6)
N1 N 0.43999(16) 0.38790(17) 0.73560(8)
H1 H 0.4667 0.3440 0.7541
N2 N 0.34807(14) 0.50685(14) 0.71269(7)
N3 N 0.23424(14) 0.59681(14) 0.64021(7)
N4 N 0.14397(15) 0.70181(15) 0.70552(7)
H2 H 0.0982 0.6872 0.7284
H3 H 0.1661 0.7625 0.7119
N5 N 0.17982(15) 0.41061(14) 0.61988(7)
H4 H 0.1557 0.4453 0.6436
C1 C 0.37248(19) 0.45095(18) 0.74952(10)
H5 H 0.3461 0.4548 0.7813
C2 C 0.40208(18) 0.47839(17) 0.67323(9)
C3 C 0.39579(18) 0.53096(18) 0.62582(8)
H6 H 0.4343 0.4963 0.6012
H7 H 0.4243 0.5953 0.6300
C4 C 0.29290(18) 0.54241(18) 0.60639(8)
H8 H 0.2967 0.5799 0.5755
C5 C 0.15965(18) 0.64175(17) 0.62128(8)
C6 C 0.10058(19) 0.69940(18) 0.65660(9)
H9 H 0.0941 0.7656 0.6442
H10 H 0.0357 0.6713 0.6588
C7 C 0.45987(19) 0.40455(19) 0.68707(9)
H11 H 0.5047 0.3713 0.6673
C8 C 0.25171(18) 0.44422(15) 0.59383(8)
C9 C 0.14032(18) 0.31684(18) 0.60960(8)
H12 H 0.0878 0.3032 0.6328
H13 H 0.1905 0.2678 0.6143
C10 C 0.10215(17) 0.31088(16) 0.55768(8)
Cu2 Cu 0.108496(19) 0.24756(2) 0.460759(9)
Cu3 Cu 0.24756(2) 0.108496(19) 0.539241(9)
O5 O 0.26116(12) 0.62863(12) 0.78236(6)
O6 O 0.37137(12) 0.73884(12) 0.71764(6)
O1_2 O 0.10223(13) 0.78619(13) 0.80930(6)
O3_2 O 0.12506(13) 0.54755(14) 0.79259(7)
N1_2 N 0.11210(17) 0.93999(16) 0.98560(8)
N5_2 N 0.08939(14) 0.67982(15) 0.86988(7)
H4_2 H 0.0547 0.6557 0.8936
C1_2 C 0.04905(18) 0.87248(19) 0.99952(10)
C2_2 C 0.02161(17) 0.90208(18) 0.92323(9)
H6_2 H 0.0037 0.9343 0.8512
C7_2 C 0.09545(19) 0.95987(19) 0.93707(9)
C8_2 C 0.05578(15) 0.75171(18) 0.84383(8)
C9_2 C 0.18316(18) 0.64032(18) 0.85960(8)
H12_2 H 0.1968 0.5878 0.8828
H13_2 H 0.2322 0.6905 0.8643
C10_2 C 0.18912(16) 0.60215(17) 0.80768(8)
Cu3_2 Cu 0.391504(19) 0.74756(2) 0.789241(9)
O5_2 O 0.87137(12) 0.76116(12) 0.03236(6)
Cu1_2 Cu 0.891504(19) 0.75244(2) 0.960759(9)
O2_2 O 0.86089(15) 0.63295(15) 0.82756(6)
N2_2 N 0.99315(14) 0.84807(14) 0.96269(7)
N3_2 N 0.90319(14) 0.73424(14) 0.89021(7)
N4_2 N 0.79819(15) 0.64397(15) 0.95552(7)
H2_2 H 0.8128 0.5982 0.9784
H3_2 H 0.7375 0.6661 0.9619
C3_2 C 0.96904(18) 0.89579(18) 0.87582(8)
H7_2 H 0.9047 0.9243 0.8800
C4_2 C 0.95759(18) 0.79290(18) 0.85639(8)
H8_2 H 0.9201 0.7967 0.8255
C5_2 C 0.85825(17) 0.65965(18) 0.87128(8)
C6_2 C 0.80060(18) 0.60058(19) 0.90660(9)
H9_2 H 0.7344 0.5941 0.8942
H10_2 H 0.8287 0.5357 0.9088
O6_2 O 0.76116(12) 0.87137(12) 0.96764(6)
Cu1_3 Cu 0.74756(2) 0.391504(19) 0.210759(9)
O1_3 O 0.71381(13) 0.60223(13) 0.05930(6)
O2_3 O 0.86705(15) 0.36089(15) 0.07756(6)
O3_3 O 0.95245(14) 0.62506(13) 0.04259(7)
N1_3 N 0.56001(16) 0.61210(17) 0.23560(8)
H1_2 H 0.5333 0.6560 0.2541
N2_3 N 0.65193(14) 0.49315(14) 0.21269(7)
N3_3 N 0.76576(14) 0.40319(14) 0.14021(7)
N4_3 N 0.85603(15) 0.29819(15) 0.20552(7)
H2_3 H 0.9018 0.3128 0.2284
H3_3 H 0.8339 0.2375 0.2119
N5_3 N 0.82018(15) 0.58939(14) 0.11988(7)
H4_3 H 0.8443 0.5547 0.1436
C1_3 C 0.62752(19) 0.54905(18) 0.24952(10)
H5_2 H 0.6539 0.5452 0.2813
C2_3 C 0.59792(18) 0.52161(17) 0.17323(9)
C3_3 C 0.60421(18) 0.46904(18) 0.12582(8)
H6_3 H 0.5657 0.5037 0.1012
H7_3 H 0.5757 0.4047 0.1300
C4_3 C 0.70710(18) 0.45759(18) 0.10639(8)
H8_3 H 0.7033 0.4201 0.0755
C5_3 C 0.84035(18) 0.35825(17) 0.12128(8)
C6_3 C 0.89942(19) 0.30060(18) 0.15660(9)
H9_3 H 0.9059 0.2344 0.1442
H10_3 H 0.9643 0.3287 0.1588
C7_3 C 0.54013(19) 0.59545(19) 0.18707(9)
H11_2 H 0.4953 0.6287 0.1673
C8_3 C 0.74829(18) 0.55578(15) 0.09383(8)
C9_3 C 0.85968(18) 0.68316(18) 0.10960(8)
H12_3 H 0.9122 0.6968 0.1328
H13_3 H 0.8095 0.7322 0.1143
C10_3 C 0.89785(17) 0.68912(16) 0.05768(8)
Cu3_3 Cu 0.75244(2) 0.891504(19) 0.039241(9)
O5_3 O 0.73884(12) 0.37137(12) 0.28236(6)
O6_3 O 0.62863(12) 0.26116(12) 0.21764(6)
O2_4 O 0.13911(15) 0.36705(15) 0.32756(6)
N2_4 N 0.00685(14) 0.15193(14) 0.46269(7)
N3_4 N 0.09681(14) 0.26576(14) 0.39021(7)
N4_4 N 0.20181(15) 0.35603(15) 0.45552(7)
H2_4 H 0.1872 0.4018 0.4784
H3_4 H 0.2625 0.3339 0.4619
C3_4 C 0.03096(18) 0.10421(18) 0.37582(8)
H7_4 H 0.0953 0.0757 0.3800
C4_4 C 0.04241(18) 0.20710(18) 0.35639(8)
H8_4 H 0.0799 0.2033 0.3255
C5_4 C 0.14175(17) 0.34035(18) 0.37128(8)
C6_4 C 0.19940(18) 0.39942(19) 0.40660(9)
H9_4 H 0.2656 0.4059 0.3942
H10_4 H 0.1713 0.4643 0.4088
O6_4 O 0.23884(12) 0.12863(12) 0.46764(6)
O1_4 O 0.89777(13) 0.21381(13) 0.30930(6)
O3_4 O 0.87494(13) 0.45245(14) 0.29259(7)
N1_4 N 0.88790(17) 0.06001(16) 0.48560(8)
H1_3 H 0.8440 0.0333 0.5041
N5_4 N 0.91061(14) 0.32018(15) 0.36988(7)
H4_4 H 0.9453 0.3443 0.3936
C1_4 C 0.95095(18) 0.12752(19) 0.49952(10)
H5_3 H 0.9548 0.1539 0.5313
C2_4 C 0.97839(17) 0.09792(18) 0.42323(9)
H6_4 H 0.9963 0.0657 0.3512
C7_4 C 0.90455(19) 0.04013(19) 0.43707(9)
C8_4 C 0.94422(15) 0.24829(18) 0.34383(8)
C9_4 C 0.81684(18) 0.35968(18) 0.35960(8)
H12_4 H 0.8032 0.4122 0.3828
H13_4 H 0.7678 0.3095 0.3643
C10_4 C 0.81088(16) 0.39785(17) 0.30768(8)
Cu3_4 Cu 0.608496(19) 0.25244(2) 0.289241(9)
O1_5 O 0.78619(13) 0.10223(13) 0.19070(6)
O3_5 O 0.54755(14) 0.12506(13) 0.20741(7)
N1_5 N 0.93999(16) 0.11210(17) 0.01440(8)
N5_5 N 0.67982(15) 0.08939(14) 0.13012(7)
H4_5 H 0.6557 0.0547 0.1064
C1_5 C 0.87248(19) 0.04905(18) 0.00048(10)
C2_5 C 0.90208(18) 0.02161(17) 0.07677(9)
H6_5 H 0.9343 0.0037 0.1488
C7_5 C 0.95987(19) 0.09545(19) 0.06293(9)
C8_5 C 0.75171(18) 0.05578(15) 0.15617(8)
C9_5 C 0.64032(18) 0.18316(18) 0.14040(8)
H12_5 H 0.5878 0.1968 0.1172
H13_5 H 0.6905 0.2322 0.1357
C10_5 C 0.60215(17) 0.18912(16) 0.19232(8)
O2_5 O 0.63295(15) 0.86089(15) 0.17244(6)
N2_5 N 0.84807(14) 0.99315(14) 0.03731(7)
N3_5 N 0.73424(14) 0.90319(14) 0.10979(7)
N4_5 N 0.64397(15) 0.79819(15) 0.04448(7)
H2_5 H 0.5982 0.8128 0.0216
H3_5 H 0.6661 0.7375 0.0381
C3_5 C 0.89579(18) 0.96904(18) 0.12418(8)
H7_5 H 0.9243 0.9047 0.1200
C4_5 C 0.79290(18) 0.95759(18) 0.14361(8)
H8_5 H 0.7967 0.9201 0.1745
C5_5 C 0.65965(18) 0.85825(17) 0.12872(8)
C6_5 C 0.60058(19) 0.80060(18) 0.09340(9)
H9_5 H 0.5941 0.7344 0.1058
H10_5 H 0.5357 0.8287 0.0912
O2_6 O 0.36705(15) 0.13911(15) 0.67244(6)
N2_6 N 0.15193(14) 0.00685(14) 0.53731(7)
N3_6 N 0.26576(14) 0.09681(14) 0.60979(7)
N4_6 N 0.35603(15) 0.20181(15) 0.54448(7)
H2_6 H 0.4018 0.1872 0.5216
H3_6 H 0.3339 0.2625 0.5381
C3_6 C 0.10421(18) 0.03096(18) 0.62418(8)
H7_6 H 0.0757 0.0953 0.6200
C4_6 C 0.20710(18) 0.04241(18) 0.64361(8)
H8_6 H 0.2033 0.0799 0.6745
C5_6 C 0.34035(18) 0.14175(17) 0.62872(8)
C6_6 C 0.39942(19) 0.19940(18) 0.59340(9)
H9_6 H 0.4059 0.2656 0.6058
H10_6 H 0.4643 0.1713 0.5912
O1_6 O 0.21381(13) 0.89777(13) 0.69070(6)
O3_6 O 0.45245(14) 0.87494(13) 0.70741(7)
N1_6 N 0.06001(16) 0.88790(17) 0.51440(8)
H1_4 H 0.0333 0.8440 0.4959
N5_6 N 0.32018(15) 0.91061(14) 0.63012(7)
H4_6 H 0.3443 0.9453 0.6064
C1_6 C 0.12752(19) 0.95095(18) 0.50048(10)
H5_4 H 0.1539 0.9548 0.4687
C2_6 C 0.09792(18) 0.97839(17) 0.57677(9)
H6_6 H 0.0657 0.9963 0.6488
C7_6 C 0.04013(19) 0.90455(19) 0.56293(9)
C8_6 C 0.24829(18) 0.94422(15) 0.65617(8)
C9_6 C 0.35968(18) 0.81684(18) 0.64040(8)
H12_6 H 0.4122 0.8032 0.6172
H13_6 H 0.3095 0.7678 0.6357
C10_6 C 0.39785(17) 0.81088(16) 0.69232(8)
O1_7 O 0.39777(13) 0.28619(13) 0.44070(6)
O2_7 O 0.63911(15) 0.13295(15) 0.42244(6)
O3_7 O 0.37494(13) 0.04755(14) 0.45741(7)
N1_7 N 0.38790(17) 0.43999(16) 0.26440(8)
H1_5 H 0.3440 0.4667 0.2459
N2_7 N 0.50685(14) 0.34807(14) 0.28731(7)
N3_7 N 0.59681(14) 0.23424(14) 0.35979(7)
N4_7 N 0.70181(15) 0.14397(15) 0.29448(7)
H2_7 H 0.6872 0.0982 0.2716
H3_7 H 0.7625 0.1661 0.2881
N5_7 N 0.41061(14) 0.17982(15) 0.38012(7)
H4_7 H 0.4453 0.1557 0.3564
C1_7 C 0.45095(18) 0.37248(19) 0.25048(10)
H5_5 H 0.4548 0.3461 0.2187
C2_7 C 0.47839(17) 0.40208(18) 0.32677(9)
C3_7 C 0.53096(18) 0.39579(18) 0.37418(8)
H6_7 H 0.4963 0.4343 0.3988
H7_7 H 0.5953 0.4243 0.3700
C4_7 C 0.54241(18) 0.29290(18) 0.39361(8)
H8_7 H 0.5799 0.2967 0.4245
C5_7 C 0.64175(17) 0.15965(18) 0.37872(8)
C6_7 C 0.69940(18) 0.10058(19) 0.34340(9)
H9_7 H 0.7656 0.0941 0.3558
H10_7 H 0.6713 0.0357 0.3412
C7_7 C 0.40455(19) 0.45987(19) 0.31293(9)
H11_3 H 0.3713 0.5047 0.3327
C8_7 C 0.44422(15) 0.25171(18) 0.40617(8)
C9_7 C 0.31684(18) 0.14032(18) 0.39040(8)
H12_7 H 0.3032 0.0878 0.3672
H13_7 H 0.2678 0.1905 0.3857
C10_7 C 0.31088(16) 0.10215(17) 0.44232(8)
O1_8 O 0.60223(13) 0.71381(13) 0.94070(6)
O2_8 O 0.36089(15) 0.86705(15) 0.92244(6)
O3_8 O 0.62506(13) 0.95245(14) 0.95741(7)
N1_8 N 0.61210(17) 0.56001(16) 0.76440(8)
H1_6 H 0.6560 0.5333 0.7459
N2_8 N 0.49315(14) 0.65193(14) 0.78731(7)
N3_8 N 0.40319(14) 0.76576(14) 0.85979(7)
N4_8 N 0.29819(15) 0.85603(15) 0.79448(7)
H2_8 H 0.3128 0.9018 0.7716
H3_8 H 0.2375 0.8339 0.7881
N5_8 N 0.58939(14) 0.82018(15) 0.88012(7)
H4_8 H 0.5547 0.8443 0.8564
C1_8 C 0.54905(18) 0.62752(19) 0.75048(10)
H5_6 H 0.5452 0.6539 0.7187
C2_8 C 0.52161(17) 0.59792(18) 0.82677(9)
C3_8 C 0.46904(18) 0.60421(18) 0.87418(8)
H6_8 H 0.5037 0.5657 0.8988
H7_8 H 0.4047 0.5757 0.8700
C4_8 C 0.45759(18) 0.70710(18) 0.89361(8)
H8_8 H 0.4201 0.7033 0.9245
C5_8 C 0.35825(17) 0.84035(18) 0.87872(8)
C6_8 C 0.30060(18) 0.89942(19) 0.84340(9)
H9_8 H 0.2344 0.9059 0.8558
H10_8 H 0.3287 0.9643 0.8412
C7_8 C 0.59545(19) 0.54013(19) 0.81293(9)
H11_4 H 0.6287 0.4953 0.8327
C8_8 C 0.55578(15) 0.74829(18) 0.90617(8)
C9_8 C 0.68316(18) 0.85968(18) 0.89040(8)
H12_8 H 0.6968 0.9122 0.8672
H13_8 H 0.7322 0.8095 0.8857
C10_8 C 0.68912(16) 0.89785(17) 0.94232(8)
H11_5 H 0.1287 0.0047 0.9173
H1_7 H 0.1560 0.9667 0.0041
H5_7 H 0.0452 0.8461 0.0313
H11_6 H 0.8713 0.9953 0.4173
H11_7 H 0.0047 0.1287 0.0827
H1_8 H 0.9667 0.1560 0.9959
H5_8 H 0.8461 0.0452 0.9687
H11_8 H 0.9953 0.8713 0.5827
loop_
_geom_bond_atom_site_label_1
_geom_bond_atom_site_label_2
_geom_bond_site_symmetry_1
_geom_bond_site_symmetry_2
Cu1 N2 1_555 1_555
O1 C8 1_555 1_555
O2 C5 1_555 1_555
O3 C10 1_555 1_555
O4 C10 1_555 1_555
N1 H1 1_555 1_555
N2 C1 1_555 1_555
N3 Cu1 1_555 1_555
N4 Cu1 1_555 1_555
H2 N4 1_555 1_555
H3 N4 1_555 1_555
N5 H4 1_555 1_555
C1 N1 1_555 1_555
H5 C1 1_555 1_555
C2 N2 1_555 1_555
C3 C2 1_555 1_555
H6 C3 1_555 1_555
H7 C3 1_555 1_555
C4 N3 1_555 1_555
H8 C4 1_555 1_555
C5 N3 1_555 1_555
C6 N4 1_555 1_555
H9 C6 1_555 1_555
H10 C6 1_555 1_555
C7 N1 1_555 1_555
H11 C7 1_555 1_555
C8 N5 1_555 1_555
C9 N5 1_555 1_555
H12 C9 1_555 1_555
H13 C9 1_555 1_555
C10 C9 1_555 1_555
Cu2 O4 1_555 1_555
Cu3 O4 1_555 1_555
O5 Cu1 1_555 1_555
O6 Cu1 1_555 1_555
C2 C7 1_555 1_555
C3 C4 1_555 1_555
C4 C8 1_555 1_555
C5 C6 1_555 1_555
O1_2 C8_2 1_555 1_555
O3_2 C10_2 1_555 1_555
O5 C10_2 1_555 1_555
N5_2 H4_2 1_555 1_555
C1_2 N1_2 1_555 1_555
C7_2 N1_2 1_555 1_555
C8_2 N5_2 1_555 1_555
C9_2 N5_2 1_555 1_555
H12_2 C9_2 1_555 1_555
H13_2 C9_2 1_555 1_555
C10_2 C9_2 1_555 1_555
Cu3_2 O5 1_555 1_555
C2_2 C7_2 1_555 1_555
Cu1_2 N2_2 1_555 1_555
O2_2 C5_2 1_555 1_555
N3_2 Cu1_2 1_555 1_555
N4_2 Cu1_2 1_555 1_555
H2_2 N4_2 1_555 1_555
H3_2 N4_2 1_555 1_555
H7_2 C3_2 1_555 1_555
C4_2 N3_2 1_555 1_555
H8_2 C4_2 1_555 1_555
C5_2 N3_2 1_555 1_555
C6_2 N4_2 1_555 1_555
H9_2 C6_2 1_555 1_555
H10_2 C6_2 1_555 1_555
O6_2 Cu1_2 1_555 1_555
C3_2 C4_2 1_555 1_555
C5_2 C6_2 1_555 1_555
Cu1_3 N2_3 1_555 1_555
O1_3 C8_3 1_555 1_555
O2_3 C5_3 1_555 1_555
O3_3 C10_3 1_555 1_555
O5_2 C10_3 1_555 1_555
N1_3 H1_2 1_555 1_555
N2_3 C1_3 1_555 1_555
N3_3 Cu1_3 1_555 1_555
N4_3 Cu1_3 1_555 1_555
H2_3 N4_3 1_555 1_555
H3_3 N4_3 1_555 1_555
N5_3 H4_3 1_555 1_555
C1_3 N1_3 1_555 1_555
H5_2 C1_3 1_555 1_555
C2_3 N2_3 1_555 1_555
C3_3 C2_3 1_555 1_555
H6_3 C3_3 1_555 1_555
H7_3 C3_3 1_555 1_555
C4_3 N3_3 1_555 1_555
H8_3 C4_3 1_555 1_555
C5_3 N3_3 1_555 1_555
C6_3 N4_3 1_555 1_555
H9_3 C6_3 1_555 1_555
H10_3 C6_3 1_555 1_555
C7_3 N1_3 1_555 1_555
H11_2 C7_3 1_555 1_555
C8_3 N5_3 1_555 1_555
C9_3 N5_3 1_555 1_555
H12_3 C9_3 1_555 1_555
H13_3 C9_3 1_555 1_555
C10_3 C9_3 1_555 1_555
Cu3_3 O5_2 1_555 1_555
O5_3 Cu1_3 1_555 1_555
O6_3 Cu1_3 1_555 1_555
C2_3 C7_3 1_555 1_555
C3_3 C4_3 1_555 1_555
C4_3 C8_3 1_555 1_555
C5_3 C6_3 1_555 1_555
Cu2 N2_4 1_555 1_555
O2_4 C5_4 1_555 1_555
N3_4 Cu2 1_555 1_555
N4_4 Cu2 1_555 1_555
H2_4 N4_4 1_555 1_555
H3_4 N4_4 1_555 1_555
H7_4 C3_4 1_555 1_555
C4_4 N3_4 1_555 1_555
H8_4 C4_4 1_555 1_555
C5_4 N3_4 1_555 1_555
C6_4 N4_4 1_555 1_555
H9_4 C6_4 1_555 1_555
H10_4 C6_4 1_555 1_555
O6_4 Cu2 1_555 1_555
C3_4 C4_4 1_555 1_555
C5_4 C6_4 1_555 1_555
O1_4 C8_4 1_555 1_555
O3_4 C10_4 1_555 1_555
O5_3 C10_4 1_555 1_555
N1_4 H1_3 1_555 1_555
N5_4 H4_4 1_555 1_555
C1_4 N1_4 1_555 1_555
H5_3 C1_4 1_555 1_555
C7_4 N1_4 1_555 1_555
C8_4 N5_4 1_555 1_555
C9_4 N5_4 1_555 1_555
H12_4 C9_4 1_555 1_555
H13_4 C9_4 1_555 1_555
C10_4 C9_4 1_555 1_555
Cu3_4 O5_3 1_555 1_555
C2_4 C7_4 1_555 1_555
O1_5 C8_5 1_555 1_555
O3_5 C10_5 1_555 1_555
O6_3 C10_5 1_555 1_555
N5_5 H4_5 1_555 1_555
C1_5 N1_5 1_555 1_555
C7_5 N1_5 1_555 1_555
C8_5 N5_5 1_555 1_555
C9_5 N5_5 1_555 1_555
H12_5 C9_5 1_555 1_555
H13_5 C9_5 1_555 1_555
C10_5 C9_5 1_555 1_555
Cu3_4 O6_3 1_555 1_555
C2_5 C7_5 1_555 1_555
Cu3_3 N2_5 1_555 1_555
O2_5 C5_5 1_555 1_555
N3_5 Cu3_3 1_555 1_555
N4_5 Cu3_3 1_555 1_555
H2_5 N4_5 1_555 1_555
H3_5 N4_5 1_555 1_555
H7_5 C3_5 1_555 1_555
C4_5 N3_5 1_555 1_555
H8_5 C4_5 1_555 1_555
C5_5 N3_5 1_555 1_555
C6_5 N4_5 1_555 1_555
H9_5 C6_5 1_555 1_555
H10_5 C6_5 1_555 1_555
C3_5 C4_5 1_555 1_555
C5_5 C6_5 1_555 1_555
Cu3 N2_6 1_555 1_555
O2_6 C5_6 1_555 1_555
N3_6 Cu3 1_555 1_555
N4_6 Cu3 1_555 1_555
H2_6 N4_6 1_555 1_555
H3_6 N4_6 1_555 1_555
H7_6 C3_6 1_555 1_555
C4_6 N3_6 1_555 1_555
H8_6 C4_6 1_555 1_555
C5_6 N3_6 1_555 1_555
C6_6 N4_6 1_555 1_555
H9_6 C6_6 1_555 1_555
H10_6 C6_6 1_555 1_555
O6_4 Cu3 1_555 1_555
C3_6 C4_6 1_555 1_555
C5_6 C6_6 1_555 1_555
O1_6 C8_6 1_555 1_555
O3_6 C10_6 1_555 1_555
O6 C10_6 1_555 1_555
N1_6 H1_4 1_555 1_555
N5_6 H4_6 1_555 1_555
C1_6 N1_6 1_555 1_555
H5_4 C1_6 1_555 1_555
C7_6 N1_6 1_555 1_555
C8_6 N5_6 1_555 1_555
C9_6 N5_6 1_555 1_555
H12_6 C9_6 1_555 1_555
H13_6 C9_6 1_555 1_555
C10_6 C9_6 1_555 1_555
Cu3_2 O6 1_555 1_555
C2_6 C7_6 1_555 1_555
Cu3_4 N2_7 1_555 1_555
O1_7 C8_7 1_555 1_555
O2_7 C5_7 1_555 1_555
O3_7 C10_7 1_555 1_555
O6_4 C10_7 1_555 1_555
N1_7 H1_5 1_555 1_555
N2_7 C1_7 1_555 1_555
N3_7 Cu3_4 1_555 1_555
N4_7 Cu3_4 1_555 1_555
H2_7 N4_7 1_555 1_555
H3_7 N4_7 1_555 1_555
N5_7 H4_7 1_555 1_555
C1_7 N1_7 1_555 1_555
H5_5 C1_7 1_555 1_555
C2_7 N2_7 1_555 1_555
C3_7 C2_7 1_555 1_555
H6_7 C3_7 1_555 1_555
H7_7 C3_7 1_555 1_555
C4_7 N3_7 1_555 1_555
H8_7 C4_7 1_555 1_555
C5_7 N3_7 1_555 1_555
C6_7 N4_7 1_555 1_555
H9_7 C6_7 1_555 1_555
H10_7 C6_7 1_555 1_555
C7_7 N1_7 1_555 1_555
H11_3 C7_7 1_555 1_555
C8_7 N5_7 1_555 1_555
C9_7 N5_7 1_555 1_555
H12_7 C9_7 1_555 1_555
H13_7 C9_7 1_555 1_555
C10_7 C9_7 1_555 1_555
C2_7 C7_7 1_555 1_555
C3_7 C4_7 1_555 1_555
C4_7 C8_7 1_555 1_555
C5_7 C6_7 1_555 1_555
Cu3_2 N2_8 1_555 1_555
O1_8 C8_8 1_555 1_555
O2_8 C5_8 1_555 1_555
O3_8 C10_8 1_555 1_555
O6_2 C10_8 1_555 1_555
N1_8 H1_6 1_555 1_555
N2_8 C1_8 1_555 1_555
N3_8 Cu3_2 1_555 1_555
N4_8 Cu3_2 1_555 1_555
H2_8 N4_8 1_555 1_555
H3_8 N4_8 1_555 1_555
N5_8 H4_8 1_555 1_555
C1_8 N1_8 1_555 1_555
H5_6 C1_8 1_555 1_555
C2_8 N2_8 1_555 1_555
C3_8 C2_8 1_555 1_555
H6_8 C3_8 1_555 1_555
H7_8 C3_8 1_555 1_555
C4_8 N3_8 1_555 1_555
H8_8 C4_8 1_555 1_555
C5_8 N3_8 1_555 1_555
C6_8 N4_8 1_555 1_555
H9_8 C6_8 1_555 1_555
H10_8 C6_8 1_555 1_555
C7_8 N1_8 1_555 1_555
H11_4 C7_8 1_555 1_555
C8_8 N5_8 1_555 1_555
C9_8 N5_8 1_555 1_555
H12_8 C9_8 1_555 1_555
H13_8 C9_8 1_555 1_555
C10_8 C9_8 1_555 1_555
C2_8 C7_8 1_555 1_555
C3_8 C4_8 1_555 1_555
C4_8 C8_8 1_555 1_555
C5_8 C6_8 1_555 1_555

#END
