
###############################################################################
#
# This file contains modified crystal structure data generated from the
# MOF subset of the Cambridge Structural Database (CSD) v543 
# hosted by the Cambridge Crystallographic Data Centre (CCDC).
#
# This work is licensed under the Creative Commons
# Attribution-NonCommercial-ShareAlike 4.0 International License.
# To view a copy of this license, visit
# http://creativecommons.org/licenses/by-nc-sa/4.0/
# or send a letter to
# Creative Commons, PO Box 1866, Mountain View, CA 94042, USA.
#
# CIF created using the CSD Python API on 29 September 2022
# The structure has been converted into the P1 space group
# The structure has a 3D framework
# The original CSD entry SAHBUC is in the triclinic crystal system
# The framework has been calculated to contain at least 10.0% void space
# The void calculation uses a probe of radius 1.32A, grid spacing 0.4
#
###############################################################################

data_SAHBUC
_chemical_formula_moiety         '(C150 H132 Mn12 N24 O20)n'
_symmetry_cell_setting           triclinic
_symmetry_space_group_name_H-M   'P 1'
_symmetry_Int_Tables_number      1
_space_group_name_Hall           'P 1'
loop_
_symmetry_equiv_pos_site_id
_symmetry_equiv_pos_as_xyz
1 x,y,z
_cell_length_a                   12.276(3)
_cell_length_b                   12.869(3)
_cell_length_c                   31.586(6)
_cell_angle_alpha                93.98(3)
_cell_angle_beta                 97.43(3)
_cell_angle_gamma                92.02(3)
_cell_volume                     4931.19
loop_
_atom_site_label
_atom_site_type_symbol
_atom_site_fract_x
_atom_site_fract_y
_atom_site_fract_z
Mn8 Mn 0.0000 0.0000 0.0000
Mn15 Mn 0.0000 0.0000 0.5000
Mn8_2 Mn 0.0000 0.0000 1.0000
C75 C 0.0173(10) 0.9395(8) 0.5992(3)
O9 O 0.0365(6) 0.9234(5) 0.5606(2)
O12 O 0.0914(6) 0.9613(6) 0.6292(2)
Mn8_3 Mn 0.0000 1.0000 0.0000
Mn15_2 Mn 0.0000 1.0000 0.5000
Mn17 Mn 0.21565(13) 0.93537(12) 0.57857(5)
O8 O 0.0148(6) 0.9175(6) 0.8709(2)
O11 O 0.0045(6) 0.9036(6) 0.9396(2)
Mn8_4 Mn -0.0000 1.0000 1.0000
Mn10 Mn 0.17343(13) 0.90480(12) 0.92572(5)
C30 C 0.4850(10) 0.0080(10) 0.5637(3)
H32 H 0.5571 0.0449 0.5669
H33 H 0.4270 0.0584 0.5607
Mn8_5 Mn 1.0000 0.0000 0.0000
Mn15_3 Mn 1.0000 0.0000 0.5000
H28 H 0.3962 0.0201 0.9474
H29 H 0.5168 0.0270 0.9334
Mn8_6 Mn 1.0000 0.0000 1.0000
C3 C 0.3106(9) 0.8362(8) 0.6695(3)
H5 H 0.2569 0.8910 0.6724
H6 H 0.3339 0.8124 0.6983
N3 N 0.2583(7) 0.7485(7) 0.6414(3)
N6 N 0.2073(8) 0.7680(7) 0.6029(2)
C6 C 0.1728(9) 0.6778(8) 0.5827(3)
C9 C 0.2080(10) 0.5968(8) 0.6093(3)
C12 C 0.2587(9) 0.6453(8) 0.6465(3)
C15 C 0.1134(11) 0.6705(9) 0.5386(3)
H13 H 0.0431 0.7042 0.5386
H14 H 0.0998 0.5969 0.5284
H15 H 0.1580 0.7053 0.5198
C18 C 0.3035(10) 0.6015(9) 0.6883(3)
H22 H 0.3841 0.6037 0.6913
H23 H 0.2758 0.5292 0.6884
H24 H 0.2797 0.6433 0.7123
N9 N 0.4057(7) 0.8796(7) 0.6526(3)
N12 N 0.3821(7) 0.9318(7) 0.6160(3)
C21 C 0.4755(9) 0.9495(9) 0.6024(3)
C24 C 0.5652(8) 0.9091(8) 0.6296(3)
C27 C 0.5133(10) 0.8642(8) 0.6611(3)
H31 H 0.4770 0.9590 0.5383
C33 C 0.5626(9) 0.8097(10) 0.6992(3)
H40 H 0.5543 0.8518 0.7256
H41 H 0.6409 0.8003 0.6976
H42 H 0.5247 0.7414 0.6993
C36 C 0.1950(9) 0.4809(8) 0.5975(3)
C39 C 0.2880(9) 0.4222(9) 0.6060(3)
H45 H 0.3549 0.4538 0.6204
C42 C 0.2805(10) 0.3165(8) 0.5928(3)
H48 H 0.3424 0.2752 0.5988
C45 C 0.1838(9) 0.2711(8) 0.5710(3)
C48 C 0.0925(9) 0.3294(8) 0.5630(3)
H51 H 0.0259 0.2979 0.5483
C51 C 0.0987(10) 0.4358(8) 0.5769(3)
H54 H 0.0358 0.4763 0.5719
C54 C 0.1761(9) 0.1571(8) 0.5567(3)
O3 O 0.1113(7) 0.1269(6) 0.5249(2)
O6 O 0.2398(6) 0.0974(6) 0.5789(2)
C57 C 0.6805(9) 0.9118(9) 0.6236(3)
C60 C 0.7101(9) 0.8793(9) 0.5835(3)
H57 H 0.6551 0.8516 0.5613
C63 C 0.8192(9) 0.8872(9) 0.5759(3)
H60 H 0.8386 0.8630 0.5488
C66 C 0.8993(9) 0.9301(8) 0.6077(3)
C69 C 0.8728(9) 0.9618(9) 0.6478(3)
H63 H 0.9288 0.9884 0.6699
C72 C 0.7630(9) 0.9545(9) 0.6554(3)
H66 H 0.7443 0.9787 0.6826
Mn8_7 Mn 1.0000 1.0000 0.0000
Mn15_4 Mn 1.0000 1.0000 0.5000
C2 C 0.2033(9) 0.7723(9) 0.8347(3)
H3 H 0.1483 0.8267 0.8321
H4 H 0.2071 0.7393 0.8057
N2 N 0.1694(8) 0.6961(7) 0.8612(3)
N5 N 0.1398(8) 0.7312(7) 0.9006(3)
C5 C 0.1220(9) 0.6471(8) 0.9205(3)
C8 C 0.1458(9) 0.5550(8) 0.8955(3)
C11 C 0.1710(9) 0.5893(9) 0.8580(3)
C14 C 0.0877(11) 0.6554(9) 0.9639(3)
H10 H 0.1470 0.6900 0.9843
H11 H 0.0715 0.5854 0.9726
H12 H 0.0217 0.6962 0.9635
C17 C 0.1936(10) 0.5309(8) 0.8181(3)
H19 H 0.1518 0.5595 0.7933
H20 H 0.1715 0.4572 0.8188
H21 H 0.2723 0.5374 0.8158
N8 N 0.3101(7) 0.8203(7) 0.8520(3)
N11 N 0.3146(7) 0.8839(7) 0.8882(3)
C20 C 0.4194(9) 0.9080(9) 0.9010(3)
C23 C 0.4859(9) 0.8594(9) 0.8723(3)
C26 C 0.4116(9) 0.8023(8) 0.8413(3)
C29 C 0.4577(10) 0.9795(10) 0.9396(3)
H30 H 0.4851 0.9386 0.9635
C32 C 0.4339(9) 0.7365(9) 0.8028(3)
H37 H 0.4128 0.6636 0.8059
H38 H 0.5124 0.7425 0.8001
H39 H 0.3911 0.7602 0.7772
C35 C 0.1423(9) 0.4459(8) 0.9069(3)
C38 C 0.0582(10) 0.4053(9) 0.9283(3)
C41 C 0.0589(9) 0.3052(8) 0.9404(3)
H47 H 0.0014 0.2783 0.9545
C44 C 0.1472(8) 0.2422(8) 0.9316(3)
C47 C 0.2283(9) 0.2806(8) 0.9096(3)
H50 H 0.2850 0.2369 0.9024
C50 C 0.2272(10) 0.3831(9) 0.8979(3)
H53 H 0.2846 0.4099 0.8837
C53 C 0.1458(9) 0.1323(8) 0.9452(3)
O2 O 0.1002(7) 0.1146(6) 0.9767(2)
O5 O 0.2000(7) 0.0667(6) 0.9249(2)
C56 C 0.6080(9) 0.8673(9) 0.8772(3)
C59 C 0.6649(9) 0.9030(9) 0.8454(3)
H56 H 0.6260 0.9217 0.8192
C62 C 0.7806(9) 0.9110(9) 0.8522(3)
H59 H 0.8203 0.9300 0.8298
C65 C 0.8363(9) 0.8914(8) 0.8913(3)
C68 C 0.7751(10) 0.8551(9) 0.9234(3)
H62 H 0.8128 0.8389 0.9502
C71 C 0.6648(9) 0.8437(9) 0.9161(3)
H65 H 0.6254 0.8192 0.9377
C74 C 0.9583(9) 0.9041(7) 0.9005(3)
Mn8_8 Mn 1.0000 1.0000 1.0000
C1 C 0.5917(9) 0.6509(9) 0.2667(3)
H1 H 0.6296 0.7206 0.2725
H2 H 0.6486 0.5983 0.2697
N1 N 0.5186(8) 0.6372(7) 0.2987(3)
N4 N 0.4748(8) 0.5410(8) 0.3020(3)
C4 C 0.4089(9) 0.5543(10) 0.3332(4)
C7 C 0.4183(10) 0.6597(9) 0.3507(3)
C10 C 0.4880(10) 0.7119(10) 0.3276(3)
C13 C 0.3456(14) 0.4657(12) 0.3459(4)
H7 H 0.3332 0.4116 0.3222
H8 H 0.2747 0.4890 0.3532
H9 H 0.3867 0.4373 0.3709
C16 C 0.5290(11) 0.8215(10) 0.3334(4)
H16 H 0.4900 0.8610 0.3111
H17 H 0.6079 0.8253 0.3312
H18 H 0.5163 0.8514 0.3616
N7 N 0.5382(8) 0.6417(7) 0.2232(3)
N10 N 0.5496(8) 0.5523(7) 0.1983(3)
C19 C 0.5007(9) 0.5710(9) 0.1599(3)
C22 C 0.4550(9) 0.6706(9) 0.1593(3)
C25 C 0.4813(10) 0.7135(8) 0.2007(3)
C28 C 0.4933(10) 0.4891(10) 0.1245(3)
H25 H 0.5441 0.5076 0.1044
H26 H 0.4180 0.4830 0.1095
H27 H 0.5128 0.4225 0.1360
C31 C 0.4585(11) 0.8174(9) 0.2204(4)
H34 H 0.4364 0.8637 0.1977
H35 H 0.5250 0.8471 0.2383
H36 H 0.3991 0.8098 0.2381
C34 C 0.3618(9) 0.7081(9) 0.3859(3)
C37 C 0.2730(11) 0.7638(12) 0.3759(4)
H43 H 0.2449 0.7684 0.3467
C40 C 0.2205(10) 0.8157(11) 0.4078(4)
H46 H 0.1562 0.8528 0.4003
C43 C 0.2629(10) 0.8119(9) 0.4494(3)
C46 C 0.3530(10) 0.7526(9) 0.4597(3)
H49 H 0.3816 0.7478 0.4889
C49 C 0.4021(9) 0.7000(9) 0.4278(3)
H52 H 0.4633 0.6587 0.4351
C52 C 0.2124(9) 0.8712(9) 0.4850(3)
O1 O 0.1212(6) 0.9109(6) 0.4737(2)
O4 O 0.2630(6) 0.8760(6) 0.5218(2)
C55 C 0.3975(10) 0.7189(9) 0.1231(3)
C58 C 0.4329(10) 0.7222(9) 0.0841(3)
H55 H 0.4988 0.6890 0.0797
C61 C 0.3788(9) 0.7707(10) 0.0510(3)
H58 H 0.4067 0.7699 0.0243
C64 C 0.2826(8) 0.8213(9) 0.0565(3)
C67 C 0.2434(10) 0.8178(10) 0.0951(3)
H61 H 0.1772 0.8511 0.0992
C70 C 0.2974(10) 0.7673(10) 0.1283(3)
H64 H 0.2677 0.7650 0.1545
C73 C 0.2204(9) 0.8747(8) 0.0200(3)
O10 O 0.1346(6) 0.9183(6) 0.0283(2)
H110 H 0.0001 0.5519 0.0657
O7 O 0.2561(6) 0.8687(6) 0.9847(2)
Mn5 Mn 0.82657(13) 0.09520(12) 0.07428(5)
O19 O 0.7439(6) 0.1313(6) 0.0153(2)
N26 N 0.8602(8) 0.2688(7) 0.0994(3)
N30 N 0.6854(7) 0.1161(7) 0.1118(3)
O25 O 0.8788(6) 0.0891(6) 0.5263(2)
O28 O 0.9852(6) 0.0825(6) 0.1291(2)
O31 O 0.9635(6) 0.0766(5) 0.4394(2)
O33 O 0.9955(6) 0.0964(6) 0.0604(2)
H44 H 0.9999 0.4481 0.9343
C76 C 0.4083(9) 0.3491(9) 0.7333(3)
H67 H 0.3704 0.2794 0.7275
H68 H 0.3514 0.4017 0.7303
Mn6 Mn 0.78435(13) 0.06463(12) 0.42143(5)
N13 N 0.4814(8) 0.3628(7) 0.7013(3)
N16 N 0.5252(8) 0.4590(8) 0.6980(3)
C79 C 0.5911(9) 0.4457(10) 0.6668(4)
C82 C 0.5817(10) 0.3403(9) 0.6493(3)
C85 C 0.5120(10) 0.2881(10) 0.6724(3)
C88 C 0.6544(14) 0.5343(12) 0.6541(4)
H73 H 0.6668 0.5884 0.6778
H74 H 0.7253 0.5110 0.6468
H75 H 0.6133 0.5627 0.6291
C91 C 0.4710(11) 0.1785(10) 0.6666(4)
H82 H 0.5100 0.1390 0.6889
H83 H 0.3921 0.1747 0.6688
H84 H 0.4837 0.1486 0.6384
N19 N 0.4618(8) 0.3583(7) 0.7768(3)
N22 N 0.4504(8) 0.4477(7) 0.8017(3)
C94 C 0.4993(9) 0.4290(9) 0.8401(3)
C97 C 0.5450(9) 0.3294(9) 0.8407(3)
C100 C 0.5187(10) 0.2865(8) 0.7993(3)
C103 C 0.5067(10) 0.5109(10) 0.8755(3)
H91 H 0.4559 0.4924 0.8956
H92 H 0.5820 0.5170 0.8905
H93 H 0.4872 0.5775 0.8640
C106 C 0.5415(11) 0.1826(9) 0.7796(4)
H100 H 0.5636 0.1363 0.8023
H101 H 0.4750 0.1529 0.7617
H102 H 0.6009 0.1902 0.7619
C109 C 0.6382(9) 0.2919(9) 0.6141(3)
C112 C 0.7270(11) 0.2362(12) 0.6241(4)
H109 H 0.7551 0.2316 0.6533
C115 C 0.7795(10) 0.1843(11) 0.5922(4)
H112 H 0.8438 0.1472 0.5997
C118 C 0.7371(10) 0.1881(9) 0.5506(3)
C121 C 0.6470(10) 0.2474(9) 0.5403(3)
H115 H 0.6184 0.2522 0.5111
C124 C 0.5979(9) 0.3000(9) 0.5722(3)
H118 H 0.5367 0.3413 0.5649
C127 C 0.7876(9) 0.1288(9) 0.5150(3)
O16 O 0.7370(6) 0.1240(6) 0.4782(2)
C130 C 0.6025(10) 0.2811(9) 0.8769(3)
C133 C 0.5671(10) 0.2778(9) 0.9159(3)
H121 H 0.5012 0.3110 0.9203
C136 C 0.6212(9) 0.2293(10) 0.9490(3)
H124 H 0.5933 0.2301 0.9757
C139 C 0.7174(8) 0.1787(9) 0.9435(3)
C142 C 0.7566(10) 0.1822(10) 0.9049(3)
H127 H 0.8228 0.1489 0.9008
C145 C 0.7026(10) 0.2327(10) 0.8717(3)
H130 H 0.7323 0.2350 0.8455
C148 C 0.7796(9) 0.1253(8) 0.9800(3)
O22 O 0.8654(6) 0.0817(6) 0.9717(2)
N28 N 0.7927(8) 0.2320(7) 0.3971(2)
N32 N 0.6179(7) 0.0682(7) 0.3840(3)
O35 O 0.9086(6) 0.0387(6) 0.3708(2)
C77 C 0.7967(9) 0.2277(9) 0.1653(3)
H69 H 0.8517 0.1733 0.1679
H70 H 0.7929 0.2607 0.1943
N14 N 0.8306(8) 0.3039(7) 0.1388(3)
C80 C 0.8780(9) 0.3529(8) 0.0795(3)
C83 C 0.8542(9) 0.4450(8) 0.1045(3)
C86 C 0.8290(9) 0.4107(9) 0.1420(3)
C89 C 0.9123(11) 0.3446(9) 0.0361(3)
H76 H 0.8530 0.3100 0.0157
H77 H 0.9285 0.4146 0.0274
H78 H 0.9783 0.3038 0.0365
C92 C 0.8064(10) 0.4691(8) 0.1819(3)
H85 H 0.8482 0.4405 0.2067
H86 H 0.8285 0.5428 0.1812
H87 H 0.7277 0.4626 0.1842
N20 N 0.6899(7) 0.1797(7) 0.1480(3)
C95 C 0.5806(9) 0.0920(9) 0.0990(3)
C98 C 0.5141(9) 0.1406(9) 0.1277(3)
C101 C 0.5884(9) 0.1977(8) 0.1587(3)
C104 C 0.5423(10) 0.0205(10) 0.0604(3)
H96 H 0.5149 0.0614 0.0365
C107 C 0.5661(9) 0.2635(9) 0.1972(3)
H103 H 0.5872 0.3364 0.1941
H104 H 0.4876 0.2575 0.1999
H105 H 0.6089 0.2398 0.2228
C110 C 0.8577(9) 0.5541(8) 0.0931(3)
C113 C 0.9418(10) 0.5947(9) 0.0717(3)
C116 C 0.9411(9) 0.6948(8) 0.0596(3)
H113 H 0.9986 0.7217 0.0455
C119 C 0.8528(8) 0.7578(8) 0.0684(3)
C122 C 0.7717(9) 0.7194(8) 0.0904(3)
H116 H 0.7150 0.7631 0.0976
C125 C 0.7728(10) 0.6169(9) 0.1021(3)
H119 H 0.7154 0.5901 0.1163
C128 C 0.8542(9) 0.8677(8) 0.0548(3)
O14 O 0.8998(7) 0.8854(6) 0.0233(2)
O17 O 0.8000(7) 0.9333(6) 0.0751(2)
C131 C 0.3920(9) 0.1327(9) 0.1228(3)
C134 C 0.3351(9) 0.0970(9) 0.1546(3)
H122 H 0.3740 0.0783 0.1808
C137 C 0.2194(9) 0.0890(9) 0.1478(3)
H125 H 0.1797 0.0700 0.1702
C140 C 0.1637(9) 0.1086(8) 0.1087(3)
C143 C 0.2249(10) 0.1449(9) 0.0766(3)
H128 H 0.1872 0.1611 0.0498
C146 C 0.3352(9) 0.1563(9) 0.0839(3)
H131 H 0.3746 0.1808 0.0623
C149 C 0.0417(9) 0.0959(7) 0.0995(3)
O26 O 0.8887(7) 0.8731(6) 0.4751(2)
C78 C 0.6894(9) 0.1638(8) 0.3305(3)
H71 H 0.7431 0.1090 0.3276
H72 H 0.6661 0.1876 0.3017
N15 N 0.7417(7) 0.2515(7) 0.3586(3)
C81 C 0.8272(9) 0.3222(8) 0.4173(3)
C84 C 0.7920(10) 0.4032(8) 0.3907(3)
C87 C 0.7413(9) 0.3547(8) 0.3535(3)
C90 C 0.8866(11) 0.3295(9) 0.4614(3)
H79 H 0.9569 0.2958 0.4614
H80 H 0.9002 0.4031 0.4716
H81 H 0.8420 0.2947 0.4802
C93 C 0.6965(10) 0.3985(9) 0.3117(3)
H88 H 0.6159 0.3963 0.3087
H89 H 0.7242 0.4708 0.3116
H90 H 0.7203 0.3567 0.2877
N21 N 0.5943(7) 0.1204(7) 0.3474(3)
C96 C 0.5245(9) 0.0505(9) 0.3976(3)
C99 C 0.4348(8) 0.0909(8) 0.3704(3)
C102 C 0.4867(10) 0.1358(8) 0.3389(3)
H97 H 0.5230 0.0410 0.4617
C108 C 0.4374(9) 0.1903(10) 0.3008(3)
H106 H 0.4457 0.1482 0.2744
H107 H 0.3591 0.1997 0.3024
H108 H 0.4753 0.2586 0.3007
C111 C 0.8050(9) 0.5191(8) 0.4025(3)
C114 C 0.7120(9) 0.5778(9) 0.3940(3)
H111 H 0.6451 0.5462 0.3796
C117 C 0.7195(10) 0.6835(8) 0.4072(3)
H114 H 0.6576 0.7248 0.4012
C120 C 0.8162(9) 0.7289(8) 0.4290(3)
C123 C 0.9075(9) 0.6706(8) 0.4370(3)
H117 H 0.9741 0.7021 0.4517
C126 C 0.9013(10) 0.5642(8) 0.4231(3)
H120 H 0.9642 0.5237 0.4281
C129 C 0.8239(9) 0.8429(8) 0.4433(3)
O18 O 0.7602(6) 0.9026(6) 0.4211(2)
C132 C 0.3195(9) 0.0882(9) 0.3764(3)
C135 C 0.2899(9) 0.1207(9) 0.4165(3)
H123 H 0.3449 0.1484 0.4387
C138 C 0.1808(9) 0.1128(9) 0.4241(3)
H126 H 0.1614 0.1370 0.4512
C141 C 0.1007(9) 0.0699(8) 0.3923(3)
C144 C 0.1272(9) 0.0382(9) 0.3522(3)
H129 H 0.0712 0.0116 0.3301
C147 C 0.2370(9) 0.0455(9) 0.3446(3)
H132 H 0.2557 0.0213 0.3174
H94 H 0.6038 0.9799 0.0526
H95 H 0.4832 0.9730 0.0666
C105 C 0.5150(10) 0.9920(10) 0.4363(3)
H98 H 0.4429 0.9551 0.4331
H99 H 0.5730 0.9416 0.4393
C150 C 0.9827(10) 0.0605(8) 0.4008(3)
loop_
_geom_bond_atom_site_label_1
_geom_bond_atom_site_label_2
_geom_bond_site_symmetry_1
_geom_bond_site_symmetry_2
O9 C75 1_555 1_555
O12 C75 1_555 1_555
Mn15_2 O9 1_555 1_555
Mn17 O9 1_555 1_555
O12 Mn17 1_555 1_555
Mn8_4 O11 1_555 1_555
Mn10 O8 1_555 1_555
O11 Mn10 1_555 1_555
H32 C30 1_555 1_555
H33 C30 1_555 1_555
C3 H5 1_555 1_555
H6 C3 1_555 1_555
N3 C3 1_555 1_555
N6 N3 1_555 1_555
C6 N6 1_555 1_555
C9 C6 1_555 1_555
C12 N3 1_555 1_555
C15 C6 1_555 1_555
H13 C15 1_555 1_555
H14 C15 1_555 1_555
H15 C15 1_555 1_555
C18 C12 1_555 1_555
H22 C18 1_555 1_555
H23 C18 1_555 1_555
H24 C18 1_555 1_555
N9 C3 1_555 1_555
N12 N9 1_555 1_555
C21 N12 1_555 1_555
C24 C21 1_555 1_555
C27 N9 1_555 1_555
C33 C27 1_555 1_555
H40 C33 1_555 1_555
H41 C33 1_555 1_555
H42 C33 1_555 1_555
C36 C9 1_555 1_555
C39 C36 1_555 1_555
H45 C39 1_555 1_555
C42 C39 1_555 1_555
H48 C42 1_555 1_555
C45 C42 1_555 1_555
C48 C45 1_555 1_555
H51 C48 1_555 1_555
C51 C36 1_555 1_555
H54 C51 1_555 1_555
C54 C45 1_555 1_555
O3 Mn15 1_555 1_555
C57 C24 1_555 1_555
C60 C57 1_555 1_555
H57 C60 1_555 1_555
C63 C60 1_555 1_555
H60 C63 1_555 1_555
C66 C63 1_555 1_555
C69 C66 1_555 1_555
H63 C69 1_555 1_555
C72 C57 1_555 1_555
H66 C72 1_555 1_555
Mn17 N6 1_555 1_555
C9 C12 1_555 1_555
N12 Mn17 1_555 1_555
C24 C27 1_555 1_555
C48 C51 1_555 1_555
C54 O3 1_555 1_555
C54 O6 1_555 1_555
C69 C72 1_555 1_555
Mn8_2 O2 1_555 1_555
C2 H3 1_555 1_555
H4 C2 1_555 1_555
N2 C2 1_555 1_555
N5 N2 1_555 1_555
C5 N5 1_555 1_555
C8 C5 1_555 1_555
C11 N2 1_555 1_555
C14 C5 1_555 1_555
H10 C14 1_555 1_555
H11 C14 1_555 1_555
H12 C14 1_555 1_555
C17 C11 1_555 1_555
H19 C17 1_555 1_555
H20 C17 1_555 1_555
H21 C17 1_555 1_555
N8 C2 1_555 1_555
N11 N8 1_555 1_555
C20 N11 1_555 1_555
C23 C20 1_555 1_555
C26 N8 1_555 1_555
C29 C20 1_555 1_555
H30 C29 1_555 1_555
C32 C26 1_555 1_555
H37 C32 1_555 1_555
H38 C32 1_555 1_555
H39 C32 1_555 1_555
C35 C8 1_555 1_555
C38 C35 1_555 1_555
C41 C38 1_555 1_555
H47 C41 1_555 1_555
C44 C41 1_555 1_555
C47 C44 1_555 1_555
H50 C47 1_555 1_555
C50 C35 1_555 1_555
H53 C50 1_555 1_555
C53 C44 1_555 1_555
O2 C53 1_555 1_555
O5 C53 1_555 1_555
C56 C23 1_555 1_555
C59 C56 1_555 1_555
H56 C59 1_555 1_555
C62 C59 1_555 1_555
H59 C62 1_555 1_555
C65 C62 1_555 1_555
C68 C65 1_555 1_555
H62 C68 1_555 1_555
C71 C56 1_555 1_555
H65 C71 1_555 1_555
C74 C65 1_555 1_555
Mn10 N5 1_555 1_555
C8 C11 1_555 1_555
N11 Mn10 1_555 1_555
C23 C26 1_555 1_555
C47 C50 1_555 1_555
C68 C71 1_555 1_555
C1 H1 1_555 1_555
H2 C1 1_555 1_555
Mn15_2 O1 1_555 1_555
Mn17 O4 1_555 1_555
N1 C1 1_555 1_555
N4 N1 1_555 1_555
C4 N4 1_555 1_555
C7 C4 1_555 1_555
C10 N1 1_555 1_555
C13 C4 1_555 1_555
H7 C13 1_555 1_555
H8 C13 1_555 1_555
H9 C13 1_555 1_555
C16 C10 1_555 1_555
H16 C16 1_555 1_555
H17 C16 1_555 1_555
H18 C16 1_555 1_555
N7 C1 1_555 1_555
N10 N7 1_555 1_555
C19 N10 1_555 1_555
C22 C19 1_555 1_555
C25 N7 1_555 1_555
C28 C19 1_555 1_555
H25 C28 1_555 1_555
H26 C28 1_555 1_555
H27 C28 1_555 1_555
C31 C25 1_555 1_555
H34 C31 1_555 1_555
H35 C31 1_555 1_555
H36 C31 1_555 1_555
C34 C7 1_555 1_555
C37 C34 1_555 1_555
H43 C37 1_555 1_555
C40 C37 1_555 1_555
H46 C40 1_555 1_555
C43 C40 1_555 1_555
C46 C43 1_555 1_555
H49 C46 1_555 1_555
C49 C34 1_555 1_555
H52 C49 1_555 1_555
C52 C43 1_555 1_555
O1 C52 1_555 1_555
O4 C52 1_555 1_555
C55 C22 1_555 1_555
C58 C55 1_555 1_555
H55 C58 1_555 1_555
C61 C58 1_555 1_555
H58 C61 1_555 1_555
C64 C61 1_555 1_555
C67 C64 1_555 1_555
H61 C67 1_555 1_555
C70 C55 1_555 1_555
H64 C70 1_555 1_555
C73 C64 1_555 1_555
O10 Mn8_3 1_555 1_555
C7 C10 1_555 1_555
C22 C25 1_555 1_555
C46 C49 1_555 1_555
C67 C70 1_555 1_555
C73 O10 1_555 1_555
O7 Mn10 1_555 1_555
O19 Mn5 1_555 1_555
N26 Mn5 1_555 1_555
N30 Mn5 1_555 1_555
O25 Mn15_3 1_555 1_555
O28 Mn5 1_555 1_555
O31 Mn15_3 1_555 1_555
O33 Mn8_5 1_555 1_555
Mn5 O33 1_555 1_555
C76 H67 1_555 1_555
H68 C76 1_555 1_555
Mn6 O16 1_555 1_555
N13 C76 1_555 1_555
N16 N13 1_555 1_555
C79 N16 1_555 1_555
C82 C79 1_555 1_555
C85 N13 1_555 1_555
C88 C79 1_555 1_555
H73 C88 1_555 1_555
H74 C88 1_555 1_555
H75 C88 1_555 1_555
C91 C85 1_555 1_555
H82 C91 1_555 1_555
H83 C91 1_555 1_555
H84 C91 1_555 1_555
N19 C76 1_555 1_555
N22 N19 1_555 1_555
C94 N22 1_555 1_555
C97 C94 1_555 1_555
C100 N19 1_555 1_555
C103 C94 1_555 1_555
H91 C103 1_555 1_555
H92 C103 1_555 1_555
H93 C103 1_555 1_555
C106 C100 1_555 1_555
H100 C106 1_555 1_555
H101 C106 1_555 1_555
H102 C106 1_555 1_555
C109 C82 1_555 1_555
C112 C109 1_555 1_555
H109 C112 1_555 1_555
C115 C112 1_555 1_555
H112 C115 1_555 1_555
C118 C115 1_555 1_555
C121 C118 1_555 1_555
H115 C121 1_555 1_555
C124 C109 1_555 1_555
H118 C124 1_555 1_555
C127 C118 1_555 1_555
O25 C127 1_555 1_555
O16 C127 1_555 1_555
C130 C97 1_555 1_555
C133 C130 1_555 1_555
H121 C133 1_555 1_555
C136 C133 1_555 1_555
H124 C136 1_555 1_555
C139 C136 1_555 1_555
C142 C139 1_555 1_555
H127 C142 1_555 1_555
C145 C130 1_555 1_555
H130 C145 1_555 1_555
C148 C139 1_555 1_555
O22 Mn8_6 1_555 1_555
N28 Mn6 1_555 1_555
N32 Mn6 1_555 1_555
O31 Mn6 1_555 1_555
O35 Mn6 1_555 1_555
C82 C85 1_555 1_555
C97 C100 1_555 1_555
C121 C124 1_555 1_555
C142 C145 1_555 1_555
C148 O22 1_555 1_555
C77 H69 1_555 1_555
H70 C77 1_555 1_555
N14 C77 1_555 1_555
N26 N14 1_555 1_555
C80 N26 1_555 1_555
C83 C80 1_555 1_555
C86 N14 1_555 1_555
C89 C80 1_555 1_555
H76 C89 1_555 1_555
H77 C89 1_555 1_555
H78 C89 1_555 1_555
C92 C86 1_555 1_555
H85 C92 1_555 1_555
H86 C92 1_555 1_555
H87 C92 1_555 1_555
N20 C77 1_555 1_555
N30 N20 1_555 1_555
C95 N30 1_555 1_555
C98 C95 1_555 1_555
C101 N20 1_555 1_555
C104 C95 1_555 1_555
H96 C104 1_555 1_555
C107 C101 1_555 1_555
H103 C107 1_555 1_555
H104 C107 1_555 1_555
H105 C107 1_555 1_555
C110 C83 1_555 1_555
C113 C110 1_555 1_555
C116 C113 1_555 1_555
H113 C116 1_555 1_555
C119 C116 1_555 1_555
C122 C119 1_555 1_555
H116 C122 1_555 1_555
C125 C110 1_555 1_555
H119 C125 1_555 1_555
C128 C119 1_555 1_555
O14 Mn8_7 1_555 1_555
O17 C128 1_555 1_555
C131 C98 1_555 1_555
C134 C131 1_555 1_555
H122 C134 1_555 1_555
C137 C134 1_555 1_555
H125 C137 1_555 1_555
C140 C137 1_555 1_555
C143 C140 1_555 1_555
H128 C143 1_555 1_555
C146 C131 1_555 1_555
H131 C146 1_555 1_555
C149 C140 1_555 1_555
O26 Mn15_4 1_555 1_555
C83 C86 1_555 1_555
C98 C101 1_555 1_555
C122 C125 1_555 1_555
C128 O14 1_555 1_555
C143 C146 1_555 1_555
C78 H71 1_555 1_555
H72 C78 1_555 1_555
N15 C78 1_555 1_555
N28 N15 1_555 1_555
C81 N28 1_555 1_555
C84 C81 1_555 1_555
C87 N15 1_555 1_555
C90 C81 1_555 1_555
H79 C90 1_555 1_555
H80 C90 1_555 1_555
H81 C90 1_555 1_555
C93 C87 1_555 1_555
H88 C93 1_555 1_555
H89 C93 1_555 1_555
H90 C93 1_555 1_555
N21 C78 1_555 1_555
N32 N21 1_555 1_555
C96 N32 1_555 1_555
C99 C96 1_555 1_555
C102 N21 1_555 1_555
C108 C102 1_555 1_555
H106 C108 1_555 1_555
H107 C108 1_555 1_555
H108 C108 1_555 1_555
C111 C84 1_555 1_555
C114 C111 1_555 1_555
H111 C114 1_555 1_555
C117 C114 1_555 1_555
H114 C117 1_555 1_555
C120 C117 1_555 1_555
C123 C120 1_555 1_555
H117 C123 1_555 1_555
C126 C111 1_555 1_555
H120 C126 1_555 1_555
C129 C120 1_555 1_555
O26 C129 1_555 1_555
C132 C99 1_555 1_555
C135 C132 1_555 1_555
H123 C135 1_555 1_555
C138 C135 1_555 1_555
H126 C138 1_555 1_555
C141 C138 1_555 1_555
C144 C141 1_555 1_555
H129 C144 1_555 1_555
C147 C132 1_555 1_555
H132 C147 1_555 1_555
C84 C87 1_555 1_555
C99 C102 1_555 1_555
C123 C126 1_555 1_555
C129 O18 1_555 1_555
C144 C147 1_555 1_555
H98 C105 1_555 1_555
H99 C105 1_555 1_555
O31 C150 1_555 1_555
O35 C150 1_555 1_555

#END
