
###############################################################################
#
# This file contains modified crystal structure data generated from the
# MOF subset of the Cambridge Structural Database (CSD) v543 
# hosted by the Cambridge Crystallographic Data Centre (CCDC).
#
# This work is licensed under the Creative Commons
# Attribution-NonCommercial-ShareAlike 4.0 International License.
# To view a copy of this license, visit
# http://creativecommons.org/licenses/by-nc-sa/4.0/
# or send a letter to
# Creative Commons, PO Box 1866, Mountain View, CA 94042, USA.
#
# CIF created using the CSD Python API on 29 September 2022
# The structure has been converted into the P1 space group
# The structure has a 3D framework
# The original CSD entry SAHCAJ is in the triclinic crystal system
# The framework has been calculated to contain at least 10.0% void space
# The void calculation uses a probe of radius 1.32A, grid spacing 0.4
#
###############################################################################

data_SAHCAJ
_chemical_formula_moiety         '(C150 H132 Mn9 N24 O22)n'
_symmetry_cell_setting           triclinic
_symmetry_space_group_name_H-M   'P 1'
_symmetry_Int_Tables_number      1
_space_group_name_Hall           'P 1'
loop_
_symmetry_equiv_pos_site_id
_symmetry_equiv_pos_as_xyz
1 x,y,z
_cell_length_a                   12.364(3)
_cell_length_b                   12.947(3)
_cell_length_c                   30.366(6)
_cell_angle_alpha                99.40(3)
_cell_angle_beta                 97.35(3)
_cell_angle_gamma                91.57(3)
_cell_volume                     4750.42
loop_
_atom_site_label
_atom_site_type_symbol
_atom_site_fract_x
_atom_site_fract_y
_atom_site_fract_z
C73 C 0.0228(10) 0.4595(9) 0.6049(5)
O7 O 0.0952(8) 0.4861(8) 0.6364(3)
O10 O 0.0404(6) 0.4375(6) 0.5641(3)
Mn8 Mn 0.21915(14) 0.44992(12) 0.58033(6)
Mn13 Mn -0.0000 0.5000 0.5000
Mn19 Mn 0.0000 0.5000 0.0000
O11 O 0.0073(8) 0.3725(9) 0.8645(4)
Mn15 Mn 0.16701(15) 0.38512(13) 0.91883(8)
Mn19_2 Mn 0.0000 0.5000 1.0000
C1 C 0.3176(10) 0.3697(9) 0.6749(4)
H1 H 0.2654 0.4259 0.6792
H2 H 0.3435 0.3515 0.7047
N1 N 0.2623(9) 0.2778(7) 0.6457(3)
N4 N 0.2102(8) 0.2887(7) 0.6045(3)
C4 C 0.1769(9) 0.1922(9) 0.5834(4)
C7 C 0.2103(10) 0.1172(9) 0.6108(4)
C10 C 0.2660(10) 0.1746(10) 0.6509(4)
C13 C 0.1170(12) 0.1773(10) 0.5373(4)
H7 H 0.0846 0.2431 0.5318
H8 H 0.0591 0.1223 0.5340
H9 H 0.1676 0.1567 0.5154
C16 C 0.3146(13) 0.1404(11) 0.6922(5)
H16 H 0.3926 0.1611 0.6980
H17 H 0.3053 0.0639 0.6888
H18 H 0.2785 0.1730 0.7175
N7 N 0.4090(8) 0.4076(7) 0.6561(3)
N10 N 0.3875(8) 0.4479(7) 0.6170(3)
C19 C 0.4843(10) 0.4612(10) 0.6030(4)
C22 C 0.5679(10) 0.4315(9) 0.6333(4)
C25 C 0.5207(10) 0.3975(10) 0.6676(4)
C28 C 0.4922(11) 0.5065(12) 0.5617(5)
H25 H 0.4600 0.4562 0.5353
H26 H 0.5691 0.5219 0.5594
H27 H 0.4527 0.5713 0.5632
C31 C 0.5657(14) 0.3543(14) 0.7071(5)
H34 H 0.6424 0.3785 0.7157
H35 H 0.5605 0.2776 0.7000
H36 H 0.5244 0.3778 0.7320
C34 C 0.2036(10) 0.0020(8) 0.5987(5)
C55 C 0.6887(11) 0.4352(11) 0.6291(4)
C58 C 0.7653(11) 0.4797(11) 0.6622(5)
H55 H 0.7446 0.5071 0.6907
C61 C 0.8788(12) 0.4872(11) 0.6560(5)
H58 H 0.9328 0.5190 0.6798
C64 C 0.9061(11) 0.4464(11) 0.6141(5)
C67 C 0.8263(11) 0.4011(10) 0.5792(4)
H61 H 0.8457 0.3773 0.5501
C70 C 0.7186(11) 0.3906(10) 0.5867(5)
H64 H 0.6654 0.3539 0.5637
Mn13_2 Mn 1.0000 0.5000 0.5000
Mn19_3 Mn 1.0000 0.5000 0.0000
C2 C 0.2057(10) 0.2291(10) 0.8251(5)
H3 H 0.1506 0.2813 0.8198
H4 H 0.2130 0.1855 0.7958
N2 N 0.1700(9) 0.1645(9) 0.8545(3)
N5 N 0.1449(8) 0.2050(7) 0.8947(4)
C5 C 0.1271(11) 0.1256(8) 0.9159(4)
C8 C 0.1408(11) 0.0281(10) 0.8886(4)
C11 C 0.1702(11) 0.0552(9) 0.8493(5)
C14 C 0.0981(14) 0.1429(9) 0.9636(5)
H10 H 0.1565 0.1183 0.9837
H11 H 0.0295 0.1037 0.9642
H12 H 0.0896 0.2178 0.9735
H21 H 0.1491 0.0029 0.7814
N8 N 0.3123(8) 0.2840(8) 0.8447(4)
N11 N 0.3095(10) 0.3605(8) 0.8791(5)
C20 C 0.4124(11) 0.3902(9) 0.8944(6)
C23 C 0.4845(11) 0.3310(10) 0.8694(5)
C26 C 0.4151(10) 0.2602(10) 0.8374(4)
C29 C 0.4459(14) 0.4746(17) 0.9366(10)
H28 H 0.3996 0.5345 0.9351
H29 H 0.5225 0.4978 0.9376
H30 H 0.4370 0.4451 0.9637
C32 C 0.4382(14) 0.1787(16) 0.8036(6)
H37 H 0.3719 0.1344 0.7920
H38 H 0.4949 0.1364 0.8162
H39 H 0.4640 0.2088 0.7790
C56 C 0.6012(10) 0.3345(10) 0.8748(5)
C59 C 0.6614(11) 0.3333(11) 0.9166(5)
H56 H 0.6232 0.3249 0.9411
C62 C 0.7735(11) 0.3436(10) 0.9242(5)
H59 H 0.8113 0.3411 0.9532
C65 C 0.8315(11) 0.3578(12) 0.8886(6)
C68 C 0.7758(12) 0.3522(13) 0.8442(6)
H62 H 0.8153 0.3541 0.8195
C71 C 0.6630(14) 0.3438(15) 0.8378(6)
H65 H 0.6250 0.3442 0.8086
C74 C 0.9520(11) 0.3718(10) 0.8962(6)
O8 O 0.9995(8) 0.3840(6) 0.9374(4)
Mn19_4 Mn 1.0000 0.5000 1.0000
C3 C 0.6073(14) 0.1303(17) 0.2570(5)
H5 H 0.6737 0.1629 0.2765
H6 H 0.6252 0.0594 0.2430
N3 N 0.5245(11) 0.1193(10) 0.2847(4)
N6 N 0.4778(12) 0.0229(10) 0.2833(5)
C6 C 0.4108(15) 0.0347(11) 0.3158(5)
C9 C 0.4161(13) 0.1432(12) 0.3358(5)
C12 C 0.4873(14) 0.1909(14) 0.3159(5)
C18 C 0.5239(15) 0.3050(14) 0.3209(7)
H22 H 0.6038 0.3118 0.3256
H23 H 0.4955 0.3450 0.3469
H24 H 0.4960 0.3322 0.2936
N9 N 0.5819(13) 0.1889(15) 0.2232(5)
N12 N 0.6422(13) 0.2871(14) 0.2303(6)
C21 C 0.5987(17) 0.337(2) 0.1967(8)
C24 C 0.5104(14) 0.2679(13) 0.1692(7)
C27 C 0.5098(14) 0.1806(15) 0.1883(6)
C30 C 0.642(3) 0.4447(16) 0.1915(11)
H31 H 0.6360 0.4947 0.2190
H32 H 0.5982 0.4676 0.1658
H33 H 0.7181 0.4414 0.1863
C33 C 0.432(2) 0.088(2) 0.1735(8)
H40 H 0.3915 0.0932 0.1441
H41 H 0.3814 0.0864 0.1956
H42 H 0.4730 0.0241 0.1710
C36 C 0.3539(11) 0.1891(10) 0.3719(5)
C37 C 0.1044(9) 0.9475(8) 0.5762(4)
H43 H 0.0416 0.9859 0.5697
C39 C 0.2628(19) 0.245(2) 0.3635(6)
H45 H 0.2336 0.2470 0.3332
C40 C 0.0989(11) 0.8404(9) 0.5639(5)
H46 H 0.0328 0.8062 0.5482
C42 C 0.2118(15) 0.2986(14) 0.3984(6)
H48 H 0.1475 0.3344 0.3914
C43 C 0.1873(11) 0.7811(9) 0.5738(4)
C45 C 0.2522(11) 0.3003(10) 0.4417(4)
C46 C 0.2856(12) 0.8342(10) 0.5971(5)
H49 H 0.3479 0.7954 0.6039
C48 C 0.3460(12) 0.2487(12) 0.4514(5)
H51 H 0.3763 0.2514 0.4820
C49 C 0.2908(10) 0.9421(10) 0.6100(4)
H52 H 0.3556 0.9758 0.6271
C51 C 0.3983(14) 0.1916(12) 0.4169(5)
H54 H 0.4624 0.1557 0.4241
C52 C 0.1811(11) 0.6653(9) 0.5595(5)
C54 C 0.2068(11) 0.3632(8) 0.4792(4)
O1 O 0.1121(8) 0.6274(6) 0.5257(3)
O3 O 0.1147(7) 0.4016(7) 0.4690(3)
O4 O 0.2440(7) 0.6114(6) 0.5823(3)
O6 O 0.2587(8) 0.3782(6) 0.5185(3)
C57 C 0.4411(13) 0.2922(13) 0.1294(7)
C60 C 0.3542(19) 0.358(2) 0.1372(7)
H57 H 0.3412 0.3801 0.1673
C63 C 0.2890(17) 0.3893(17) 0.1038(7)
H60 H 0.2370 0.4398 0.1111
C66 C 0.2950(11) 0.3494(10) 0.0569(6)
C69 C 0.3777(16) 0.2793(14) 0.0496(7)
H63 H 0.3880 0.2494 0.0198
C72 C 0.4438(15) 0.2539(15) 0.0857(7)
H66 H 0.4970 0.2041 0.0792
C75 C 0.2262(11) 0.3854(9) 0.0187(6)
O9 O 0.1411(8) 0.4295(7) 0.0291(4)
H119 H 0.0041 0.0669 0.0716
O30 O 0.0005(8) 0.6160(6) 0.0626(4)
C17 C 0.1948(17) 0.9856(14) 0.8077(6)
H19 H 0.1795 0.9122 0.8102
H20 H 0.2720 0.9960 0.8044
C35 C 0.1382(11) 0.9239(9) 0.8996(5)
C38 C 0.2208(12) 0.8533(9) 0.8907(6)
H44 H 0.2802 0.8743 0.8766
C41 C 0.2172(11) 0.7533(8) 0.9022(5)
H47 H 0.2731 0.7068 0.8954
C44 C 0.1340(11) 0.7224(8) 0.9229(5)
C47 C 0.0552(11) 0.7891(9) 0.9344(5)
H50 H 0.0007 0.7681 0.9510
C50 C 0.0538(11) 0.8889(8) 0.9219(5)
C53 C 0.1370(11) 0.6174(9) 0.9391(6)
O2 O 0.1874(9) 0.5468(6) 0.9177(4)
O5 O 0.0879(10) 0.6090(7) 0.9714(4)
O12 O 0.2534(9) 0.3645(7) 0.9795(4)
Mn6 Mn 0.83299(15) 0.61488(13) 0.08117(8)
C92 C 0.8052(17) 0.0144(14) 0.1923(6)
H85 H 0.8205 0.0878 0.1898
H86 H 0.7280 0.0040 0.1956
C110 C 0.8618(11) 0.0761(9) 0.1004(5)
C113 C 0.7792(12) 0.1467(9) 0.1093(6)
H110 H 0.7198 0.1257 0.1234
C116 C 0.7828(11) 0.2467(8) 0.0978(5)
H113 H 0.7269 0.2932 0.1046
C119 C 0.8660(11) 0.2776(8) 0.0771(5)
C122 C 0.9448(11) 0.2109(9) 0.0656(5)
H116 H 0.9993 0.2319 0.0490
C125 C 0.9462(11) 0.1111(8) 0.0781(5)
C128 C 0.8630(11) 0.3826(9) 0.0609(6)
O14 O 0.8126(9) 0.4532(6) 0.0823(4)
O17 O 0.9121(10) 0.3910(7) 0.0286(4)
O24 O 0.7466(9) 0.6355(7) 0.0205(4)
N28 N 0.8551(8) 0.7950(7) 0.1053(4)
N32 N 0.6905(10) 0.6395(8) 0.1209(5)
O25 O 0.8879(8) 0.3726(6) 0.4743(3)
O26 O 0.8853(7) 0.5984(7) 0.5310(3)
O33 O 0.9596(6) 0.5625(6) 0.4359(3)
O35 O 0.9927(8) 0.6275(9) 0.1355(4)
H53 H 0.9959 0.9331 0.9284
Mn5 Mn 0.78085(14) 0.55008(12) 0.41967(6)
C78 C 0.3927(14) 0.8697(17) 0.7430(5)
H71 H 0.3263 0.8371 0.7235
H72 H 0.3748 0.9406 0.7570
N15 N 0.4755(11) 0.8807(10) 0.7153(4)
N18 N 0.5222(12) 0.9771(10) 0.7167(5)
C81 C 0.5892(15) 0.9653(11) 0.6842(5)
C84 C 0.5839(13) 0.8568(12) 0.6642(5)
C87 C 0.5127(14) 0.8091(14) 0.6841(5)
C93 C 0.4761(15) 0.6950(14) 0.6791(7)
H88 H 0.3962 0.6882 0.6744
H89 H 0.5045 0.6550 0.6531
H90 H 0.5040 0.6678 0.7064
N21 N 0.4181(13) 0.8111(15) 0.7768(5)
N24 N 0.3578(13) 0.7129(14) 0.7697(6)
C96 C 0.4013(17) 0.663(2) 0.8033(8)
C99 C 0.4896(14) 0.7321(13) 0.8308(7)
C102 C 0.4902(14) 0.8194(15) 0.8117(6)
C105 C 0.358(3) 0.5553(16) 0.8085(11)
H97 H 0.3640 0.5053 0.7810
H98 H 0.4018 0.5324 0.8342
H99 H 0.2819 0.5586 0.8137
C108 C 0.568(2) 0.912(2) 0.8265(8)
H106 H 0.6085 0.9068 0.8559
H107 H 0.6186 0.9136 0.8044
H108 H 0.5270 0.9759 0.8290
C111 C 0.6461(11) 0.8109(10) 0.6281(5)
C112 C 0.8956(9) 0.0525(8) 0.4238(4)
H109 H 0.9584 0.0141 0.4303
C114 C 0.7372(19) 0.755(2) 0.6365(6)
H111 H 0.7664 0.7530 0.6668
C115 C 0.9011(11) 0.1596(9) 0.4361(5)
H112 H 0.9672 0.1938 0.4518
C117 C 0.7882(15) 0.7014(14) 0.6016(6)
H114 H 0.8525 0.6656 0.6086
C118 C 0.8127(11) 0.2189(9) 0.4262(4)
C120 C 0.7478(11) 0.6997(10) 0.5583(4)
C121 C 0.7144(12) 0.1658(10) 0.4029(5)
H115 H 0.6521 0.2046 0.3961
C123 C 0.6540(12) 0.7513(12) 0.5486(5)
H117 H 0.6237 0.7486 0.5180
C124 C 0.7092(10) 0.0579(10) 0.3900(4)
H118 H 0.6444 0.0242 0.3729
C126 C 0.6017(14) 0.8084(12) 0.5831(5)
H120 H 0.5376 0.8443 0.5759
C127 C 0.8189(11) 0.3347(9) 0.4405(5)
C129 C 0.7932(11) 0.6368(8) 0.5208(4)
O16 O 0.7560(7) 0.3886(6) 0.4177(3)
O18 O 0.7413(8) 0.6218(6) 0.4815(3)
C132 C 0.5589(13) 0.7078(13) 0.8706(7)
C135 C 0.6458(19) 0.642(2) 0.8628(7)
H123 H 0.6588 0.6199 0.8327
C138 C 0.7110(17) 0.6107(17) 0.8962(7)
H126 H 0.7630 0.5602 0.8889
C141 C 0.7050(11) 0.6506(10) 0.9431(6)
C144 C 0.6223(16) 0.7207(14) 0.9504(7)
H129 H 0.6120 0.7506 0.9802
C147 C 0.5562(15) 0.7461(15) 0.9143(7)
H132 H 0.5030 0.7959 0.9208
C150 C 0.7738(11) 0.6146(9) 0.9813(6)
O21 O 0.8589(8) 0.5705(7) 0.9709(4)
N26 N 0.7898(8) 0.7113(7) 0.3955(3)
N30 N 0.6125(8) 0.5521(7) 0.3830(3)
O28 O 0.9048(8) 0.5139(8) 0.3636(3)
C77 C 0.7943(10) 0.7709(10) 0.1749(5)
H69 H 0.8494 0.7187 0.1802
H70 H 0.7870 0.8145 0.2042
N14 N 0.8300(9) 0.8355(9) 0.1455(3)
C80 C 0.8729(11) 0.8744(8) 0.0841(4)
C83 C 0.8592(11) 0.9719(10) 0.1114(4)
C86 C 0.8298(11) 0.9448(9) 0.1507(5)
C89 C 0.9019(14) 0.8571(9) 0.0364(5)
H76 H 0.8435 0.8817 0.0163
H77 H 0.9705 0.8963 0.0358
H78 H 0.9104 0.7822 0.0265
H87 H 0.8509 0.9971 0.2186
N20 N 0.6877(8) 0.7160(8) 0.1553(4)
C95 C 0.5876(11) 0.6098(9) 0.1056(6)
C98 C 0.5155(11) 0.6690(10) 0.1306(5)
C101 C 0.5849(10) 0.7398(10) 0.1626(4)
C104 C 0.5541(14) 0.5254(17) 0.0634(10)
H94 H 0.6004 0.4655 0.0649
H95 H 0.4775 0.5022 0.0624
H96 H 0.5630 0.5549 0.0363
C107 C 0.5618(14) 0.8213(16) 0.1964(6)
H103 H 0.6281 0.8656 0.2080
H104 H 0.5051 0.8636 0.1838
H105 H 0.5360 0.7912 0.2210
C131 C 0.3988(10) 0.6655(10) 0.1252(5)
C134 C 0.3386(11) 0.6667(11) 0.0834(5)
H122 H 0.3768 0.6751 0.0589
C137 C 0.2265(11) 0.6564(10) 0.0758(5)
H125 H 0.1887 0.6589 0.0468
C140 C 0.1685(11) 0.6422(12) 0.1114(6)
C143 C 0.2242(12) 0.6478(13) 0.1558(6)
H128 H 0.1847 0.6459 0.1805
C146 C 0.3370(14) 0.6562(15) 0.1622(6)
H131 H 0.3750 0.6558 0.1914
C149 C 0.0480(11) 0.6282(10) 0.1038(6)
C76 C 0.6824(10) 0.6303(9) 0.3251(4)
H67 H 0.7346 0.5741 0.3208
H68 H 0.6565 0.6485 0.2953
N13 N 0.7377(9) 0.7222(7) 0.3543(3)
C79 C 0.8231(9) 0.8078(9) 0.4166(4)
C82 C 0.7897(10) 0.8828(9) 0.3892(4)
C85 C 0.7340(10) 0.8254(10) 0.3491(4)
C88 C 0.8830(12) 0.8227(10) 0.4627(4)
H73 H 0.9154 0.7569 0.4682
H74 H 0.9409 0.8777 0.4660
H75 H 0.8324 0.8433 0.4846
C91 C 0.6854(13) 0.8596(11) 0.3078(5)
H82 H 0.6074 0.8389 0.3020
H83 H 0.6947 0.9361 0.3112
H84 H 0.7215 0.8270 0.2825
N19 N 0.5910(8) 0.5924(7) 0.3439(3)
C94 C 0.5157(10) 0.5388(10) 0.3970(4)
C97 C 0.4321(10) 0.5685(9) 0.3667(4)
C100 C 0.4793(10) 0.6025(10) 0.3324(4)
C103 C 0.5078(11) 0.4935(12) 0.4383(5)
H91 H 0.5400 0.5438 0.4647
H92 H 0.4309 0.4781 0.4406
H93 H 0.5473 0.4287 0.4368
C106 C 0.4343(14) 0.6457(14) 0.2929(5)
H100 H 0.3576 0.6215 0.2843
H101 H 0.4395 0.7224 0.3000
H102 H 0.4756 0.6222 0.2680
C109 C 0.7964(10) 0.9980(8) 0.4013(5)
C130 C 0.3113(11) 0.5648(11) 0.3709(4)
C133 C 0.2347(11) 0.5203(11) 0.3378(5)
H121 H 0.2554 0.4929 0.3093
C136 C 0.1212(12) 0.5128(11) 0.3440(5)
H124 H 0.0672 0.4810 0.3202
C139 C 0.0939(11) 0.5536(11) 0.3859(5)
C142 C 0.1737(11) 0.5989(10) 0.4208(4)
H127 H 0.1543 0.6227 0.4499
C145 C 0.2814(11) 0.6094(10) 0.4133(5)
H130 H 0.3346 0.6461 0.4363
C148 C 0.9772(10) 0.5405(9) 0.3951(5)
C15 C 0.341(2) 0.9471(17) 0.3247(8)
H13 H 0.3601 0.9364 0.3559
H14 H 0.3516 0.8828 0.3041
H15 H 0.2637 0.9645 0.3200
C90 C 0.659(2) 0.0529(17) 0.6753(8)
H79 H 0.6399 0.0636 0.6441
H80 H 0.6484 0.1172 0.6959
H81 H 0.7363 0.0355 0.6800
loop_
_geom_bond_atom_site_label_1
_geom_bond_atom_site_label_2
_geom_bond_site_symmetry_1
_geom_bond_site_symmetry_2
O7 C73 1_555 1_555
O10 C73 1_555 1_555
Mn8 O7 1_555 1_555
Mn13 O10 1_555 1_555
O10 Mn8 1_555 1_555
O11 Mn15 1_555 1_555
C1 H1 1_555 1_555
H2 C1 1_555 1_555
N1 C1 1_555 1_555
N4 N1 1_555 1_555
C4 N4 1_555 1_555
C7 C4 1_555 1_555
C10 N1 1_555 1_555
C13 C4 1_555 1_555
H7 C13 1_555 1_555
H8 C13 1_555 1_555
H9 C13 1_555 1_555
C16 C10 1_555 1_555
H16 C16 1_555 1_555
H17 C16 1_555 1_555
H18 C16 1_555 1_555
N7 C1 1_555 1_555
N10 N7 1_555 1_555
C19 N10 1_555 1_555
C22 C19 1_555 1_555
C25 N7 1_555 1_555
C28 C19 1_555 1_555
H25 C28 1_555 1_555
H26 C28 1_555 1_555
H27 C28 1_555 1_555
C31 C25 1_555 1_555
H34 C31 1_555 1_555
H35 C31 1_555 1_555
H36 C31 1_555 1_555
C34 C7 1_555 1_555
C55 C22 1_555 1_555
C58 C55 1_555 1_555
H55 C58 1_555 1_555
C61 C58 1_555 1_555
H58 C61 1_555 1_555
C64 C61 1_555 1_555
C67 C64 1_555 1_555
H61 C67 1_555 1_555
C70 C55 1_555 1_555
H64 C70 1_555 1_555
Mn8 N4 1_555 1_555
C7 C10 1_555 1_555
N10 Mn8 1_555 1_555
C22 C25 1_555 1_555
C67 C70 1_555 1_555
C2 H3 1_555 1_555
H4 C2 1_555 1_555
N2 C2 1_555 1_555
N5 N2 1_555 1_555
C5 N5 1_555 1_555
C8 C5 1_555 1_555
C11 N2 1_555 1_555
C14 C5 1_555 1_555
H10 C14 1_555 1_555
H11 C14 1_555 1_555
H12 C14 1_555 1_555
N8 C2 1_555 1_555
N11 N8 1_555 1_555
C20 N11 1_555 1_555
C23 C20 1_555 1_555
C26 N8 1_555 1_555
C29 C20 1_555 1_555
H28 C29 1_555 1_555
H29 C29 1_555 1_555
H30 C29 1_555 1_555
C32 C26 1_555 1_555
H37 C32 1_555 1_555
H38 C32 1_555 1_555
H39 C32 1_555 1_555
C56 C23 1_555 1_555
C59 C56 1_555 1_555
H56 C59 1_555 1_555
C62 C59 1_555 1_555
H59 C62 1_555 1_555
C65 C62 1_555 1_555
C68 C65 1_555 1_555
H62 C68 1_555 1_555
C71 C56 1_555 1_555
H65 C71 1_555 1_555
C74 C65 1_555 1_555
O8 C74 1_555 1_555
Mn15 N5 1_555 1_555
Mn19_4 O8 1_555 1_555
C8 C11 1_555 1_555
N11 Mn15 1_555 1_555
C23 C26 1_555 1_555
C68 C71 1_555 1_555
Mn8 O4 1_555 1_555
C3 H5 1_555 1_555
H6 C3 1_555 1_555
Mn13 O1 1_555 1_555
N3 C3 1_555 1_555
N6 N3 1_555 1_555
C6 N6 1_555 1_555
C9 C6 1_555 1_555
C12 N3 1_555 1_555
C18 C12 1_555 1_555
H22 C18 1_555 1_555
H23 C18 1_555 1_555
H24 C18 1_555 1_555
N9 C3 1_555 1_555
N12 N9 1_555 1_555
C21 N12 1_555 1_555
C24 C21 1_555 1_555
C27 N9 1_555 1_555
C30 C21 1_555 1_555
H31 C30 1_555 1_555
H32 C30 1_555 1_555
H33 C30 1_555 1_555
C33 C27 1_555 1_555
H40 C33 1_555 1_555
H41 C33 1_555 1_555
H42 C33 1_555 1_555
C36 C9 1_555 1_555
H43 C37 1_555 1_555
C39 C36 1_555 1_555
H45 C39 1_555 1_555
C40 C37 1_555 1_555
H46 C40 1_555 1_555
C42 C39 1_555 1_555
H48 C42 1_555 1_555
C43 C40 1_555 1_555
C45 C42 1_555 1_555
C46 C43 1_555 1_555
H49 C46 1_555 1_555
C48 C45 1_555 1_555
H51 C48 1_555 1_555
H52 C49 1_555 1_555
C51 C36 1_555 1_555
H54 C51 1_555 1_555
C52 C43 1_555 1_555
C54 C45 1_555 1_555
O1 C52 1_555 1_555
O3 Mn13 1_555 1_555
O4 C52 1_555 1_555
O6 Mn8 1_555 1_555
C57 C24 1_555 1_555
C60 C57 1_555 1_555
H57 C60 1_555 1_555
C63 C60 1_555 1_555
H60 C63 1_555 1_555
C66 C63 1_555 1_555
C69 C66 1_555 1_555
H63 C69 1_555 1_555
C72 C57 1_555 1_555
H66 C72 1_555 1_555
C75 C66 1_555 1_555
O9 Mn19 1_555 1_555
O30 Mn19 1_555 1_555
C9 C12 1_555 1_555
C24 C27 1_555 1_555
C46 C49 1_555 1_555
C48 C51 1_555 1_555
C54 O3 1_555 1_555
C54 O6 1_555 1_555
C69 C72 1_555 1_555
C75 O9 1_555 1_555
Mn15 O2 1_555 1_555
Mn19_2 O5 1_555 1_555
H19 C17 1_555 1_555
H20 C17 1_555 1_555
C38 C35 1_555 1_555
H44 C38 1_555 1_555
C41 C38 1_555 1_555
H47 C41 1_555 1_555
C44 C41 1_555 1_555
C47 C44 1_555 1_555
H50 C47 1_555 1_555
C50 C35 1_555 1_555
C53 C44 1_555 1_555
O2 C53 1_555 1_555
O5 C53 1_555 1_555
O12 Mn15 1_555 1_555
C47 C50 1_555 1_555
Mn6 O14 1_555 1_555
H85 C92 1_555 1_555
H86 C92 1_555 1_555
C113 C110 1_555 1_555
H110 C113 1_555 1_555
C116 C113 1_555 1_555
H113 C116 1_555 1_555
C119 C116 1_555 1_555
C122 C119 1_555 1_555
H116 C122 1_555 1_555
C125 C110 1_555 1_555
C128 C119 1_555 1_555
O14 C128 1_555 1_555
O17 Mn19_3 1_555 1_555
O24 Mn6 1_555 1_555
N28 Mn6 1_555 1_555
N32 Mn6 1_555 1_555
O25 Mn13_2 1_555 1_555
O26 Mn13_2 1_555 1_555
O33 Mn13_2 1_555 1_555
O35 Mn6 1_555 1_555
C122 C125 1_555 1_555
C128 O17 1_555 1_555
Mn5 O16 1_555 1_555
C78 H71 1_555 1_555
H72 C78 1_555 1_555
N15 C78 1_555 1_555
N18 N15 1_555 1_555
C81 N18 1_555 1_555
C84 C81 1_555 1_555
C87 N15 1_555 1_555
C93 C87 1_555 1_555
H88 C93 1_555 1_555
H89 C93 1_555 1_555
H90 C93 1_555 1_555
N21 C78 1_555 1_555
N24 N21 1_555 1_555
C96 N24 1_555 1_555
C99 C96 1_555 1_555
C102 N21 1_555 1_555
C105 C96 1_555 1_555
H97 C105 1_555 1_555
H98 C105 1_555 1_555
H99 C105 1_555 1_555
C108 C102 1_555 1_555
H106 C108 1_555 1_555
H107 C108 1_555 1_555
H108 C108 1_555 1_555
C111 C84 1_555 1_555
H109 C112 1_555 1_555
C114 C111 1_555 1_555
H111 C114 1_555 1_555
C115 C112 1_555 1_555
H112 C115 1_555 1_555
C117 C114 1_555 1_555
H114 C117 1_555 1_555
C118 C115 1_555 1_555
C120 C117 1_555 1_555
C121 C118 1_555 1_555
H115 C121 1_555 1_555
C123 C120 1_555 1_555
H117 C123 1_555 1_555
H118 C124 1_555 1_555
C126 C111 1_555 1_555
H120 C126 1_555 1_555
C127 C118 1_555 1_555
C129 C120 1_555 1_555
O25 C127 1_555 1_555
O26 C129 1_555 1_555
O16 C127 1_555 1_555
O18 Mn5 1_555 1_555
C132 C99 1_555 1_555
C135 C132 1_555 1_555
H123 C135 1_555 1_555
C138 C135 1_555 1_555
H126 C138 1_555 1_555
C141 C138 1_555 1_555
C144 C141 1_555 1_555
H129 C144 1_555 1_555
C147 C132 1_555 1_555
H132 C147 1_555 1_555
C150 C141 1_555 1_555
O21 Mn19_4 1_555 1_555
N26 Mn5 1_555 1_555
N30 Mn5 1_555 1_555
O28 Mn5 1_555 1_555
O33 Mn5 1_555 1_555
C84 C87 1_555 1_555
C99 C102 1_555 1_555
C121 C124 1_555 1_555
C123 C126 1_555 1_555
C129 O18 1_555 1_555
C144 C147 1_555 1_555
C150 O21 1_555 1_555
C77 H69 1_555 1_555
H70 C77 1_555 1_555
N14 C77 1_555 1_555
N28 N14 1_555 1_555
C80 N28 1_555 1_555
C83 C80 1_555 1_555
C86 N14 1_555 1_555
C89 C80 1_555 1_555
H76 C89 1_555 1_555
H77 C89 1_555 1_555
H78 C89 1_555 1_555
N20 C77 1_555 1_555
N32 N20 1_555 1_555
C95 N32 1_555 1_555
C98 C95 1_555 1_555
C101 N20 1_555 1_555
C104 C95 1_555 1_555
H94 C104 1_555 1_555
H95 C104 1_555 1_555
H96 C104 1_555 1_555
C107 C101 1_555 1_555
H103 C107 1_555 1_555
H104 C107 1_555 1_555
H105 C107 1_555 1_555
C131 C98 1_555 1_555
C134 C131 1_555 1_555
H122 C134 1_555 1_555
C137 C134 1_555 1_555
H125 C137 1_555 1_555
C140 C137 1_555 1_555
C143 C140 1_555 1_555
H128 C143 1_555 1_555
C146 C131 1_555 1_555
H131 C146 1_555 1_555
C149 C140 1_555 1_555
O30 C149 1_555 1_555
C83 C86 1_555 1_555
C98 C101 1_555 1_555
C143 C146 1_555 1_555
C76 H67 1_555 1_555
H68 C76 1_555 1_555
N13 C76 1_555 1_555
N26 N13 1_555 1_555
C79 N26 1_555 1_555
C82 C79 1_555 1_555
C85 N13 1_555 1_555
C88 C79 1_555 1_555
H73 C88 1_555 1_555
H74 C88 1_555 1_555
H75 C88 1_555 1_555
C91 C85 1_555 1_555
H82 C91 1_555 1_555
H83 C91 1_555 1_555
H84 C91 1_555 1_555
N19 C76 1_555 1_555
N30 N19 1_555 1_555
C94 N30 1_555 1_555
C97 C94 1_555 1_555
C100 N19 1_555 1_555
C103 C94 1_555 1_555
H91 C103 1_555 1_555
H92 C103 1_555 1_555
H93 C103 1_555 1_555
C106 C100 1_555 1_555
H100 C106 1_555 1_555
H101 C106 1_555 1_555
H102 C106 1_555 1_555
C109 C82 1_555 1_555
C130 C97 1_555 1_555
C133 C130 1_555 1_555
H121 C133 1_555 1_555
C136 C133 1_555 1_555
H124 C136 1_555 1_555
C139 C136 1_555 1_555
C142 C139 1_555 1_555
H127 C142 1_555 1_555
C145 C130 1_555 1_555
H130 C145 1_555 1_555
C82 C85 1_555 1_555
C97 C100 1_555 1_555
C142 C145 1_555 1_555
O28 C148 1_555 1_555
O33 C148 1_555 1_555
H13 C15 1_555 1_555
H14 C15 1_555 1_555
H15 C15 1_555 1_555
H79 C90 1_555 1_555
H80 C90 1_555 1_555
H81 C90 1_555 1_555

#END
