
###############################################################################
#
# This file contains modified crystal structure data generated from the
# MOF subset of the Cambridge Structural Database (CSD) v543 
# hosted by the Cambridge Crystallographic Data Centre (CCDC).
#
# This work is licensed under the Creative Commons
# Attribution-NonCommercial-ShareAlike 4.0 International License.
# To view a copy of this license, visit
# http://creativecommons.org/licenses/by-nc-sa/4.0/
# or send a letter to
# Creative Commons, PO Box 1866, Mountain View, CA 94042, USA.
#
# CIF created using the CSD Python API on 29 September 2022
# The structure has been converted into the P1 space group
# The structure has a 3D framework
# The original CSD entry SAHDAH is in the orthorhombic crystal system
# The framework has been calculated to contain at least 10.0% void space
# The void calculation uses a probe of radius 1.32A, grid spacing 0.4
#
###############################################################################

data_SAHDAH
_chemical_formula_moiety         '(C96 H64 Cl8 N16 O32 Tl8)n'
_symmetry_cell_setting           triclinic
_symmetry_space_group_name_H-M   'P 1'
_symmetry_Int_Tables_number      1
_space_group_name_Hall           'P 1'
loop_
_symmetry_equiv_pos_site_id
_symmetry_equiv_pos_as_xyz
1 x,y,z
_cell_length_a                   13.3250(3)
_cell_length_b                   15.3520(3)
_cell_length_c                   16.1830(4)
_cell_angle_alpha                90
_cell_angle_beta                 90
_cell_angle_gamma                90
_cell_volume                     3310.48
loop_
_atom_site_label
_atom_site_type_symbol
_atom_site_fract_x
_atom_site_fract_y
_atom_site_fract_z
C8 C 0.0054(4) 0.1913(3) 0.0201(4)
H6 H 0.0044 0.1366 0.0475
N2 N 0.0844(3) 0.2880(2) 0.9240(3)
C7 C 0.0811(4) 0.2112(3) 0.9645(3)
H5 H 0.1323 0.1694 0.9546
C11 C 0.0144(4) 0.3469(3) 0.9412(3)
H8 H 0.0174 0.4016 0.9139
Tl3 Tl 0.187718(12) 0.296095(11) 0.803425(11)
N1 N 0.1005(3) 0.1659(3) 0.7751(3)
C1 C 0.0085(4) 0.1712(3) 0.7429(4)
C4 C 0.0823(4) 0.0118(3) 0.7842(4)
C5 C 0.1368(4) 0.0872(3) 0.7946(3)
H4 H 0.2028 0.0833 0.8165
Cl1 Cl 0.29075(12) 0.29587(9) 0.67978(10)
O1 O 0.1540(3) 0.4445(2) 0.8056(2)
O2 O 0.0447(3) 0.3655(2) 0.7366(2)
O3 O 0.3237(2) 0.3455(2) 0.8925(2)
O4 O 0.2946(3) 0.2048(2) 0.8806(2)
H1 H 0.0178 0.7268 0.7709
C2 C 0.0494(4) 0.5985(3) 0.7707(4)
H2 H 0.1142 0.6041 0.7947
C3 C 0.0128(4) 0.5176(3) 0.7495(3)
C6 C 0.0748(3) 0.4368(3) 0.7636(3)
C8_2 C 0.5054(4) 0.3087(3) 0.9799(4)
H6_2 H 0.5044 0.3634 0.9525
C9 C 0.4314(4) 0.2475(3) 0.9650(3)
H7 H 0.3896 0.1232 0.9913
C12 C 0.3430(4) 0.2672(3) 0.9084(3)
Tl1 Tl 0.687718(12) 0.203905(11) 0.196575(11)
Cl1_2 Cl 0.79075(12) 0.20413(9) 0.32022(10)
O1_2 O 0.6540(3) 0.0555(2) 0.1944(2)
O2_2 O 0.5447(3) 0.1345(2) 0.2634(2)
O3_2 O 0.8237(2) 0.1545(2) 0.1075(2)
O4_2 O 0.7946(3) 0.2952(2) 0.1194(2)
H3 H 0.3906 0.0430 0.2998
C6_2 C 0.5748(3) 0.0632(3) 0.2364(3)
C9_2 C 0.9314(4) 0.2525(3) 0.0350(3)
H7_2 H 0.8896 0.3768 0.0087
C12_2 C 0.8430(4) 0.2328(3) 0.0916(3)
N3 N 0.6005(3) 0.3341(3) 0.2249(3)
N4 N 0.5844(3) 0.2120(2) 0.0760(3)
N1_2 N 0.3995(3) 0.8341(3) 0.2751(3)
C1_2 C 0.4915(4) 0.8288(3) 0.2429(4)
H1_2 H 0.5178 0.7732 0.2291
C2_2 C 0.5494(4) 0.9015(3) 0.2293(4)
H2_2 H 0.6142 0.8959 0.2053
C3_2 C 0.5128(4) 0.9824(3) 0.2505(3)
C4_2 C 0.4177(4) 0.9882(3) 0.2842(4)
C5_2 C 0.3632(4) 0.9128(3) 0.2946(3)
H4_2 H 0.2972 0.9167 0.3165
Tl2 Tl 0.312282(12) 0.703905(11) 0.303425(11)
Tl1_2 Tl 0.812282(12) 0.796095(11) 0.696575(11)
Cl1_3 Cl 0.70925(12) 0.79587(9) 0.82022(10)
O1_3 O 0.8460(3) 0.9445(2) 0.6944(2)
O2_3 O 0.9553(3) 0.8655(2) 0.7634(2)
O3_3 O 0.6763(2) 0.8455(2) 0.6075(2)
O4_3 O 0.7054(3) 0.7048(2) 0.6194(2)
N2_2 N 0.4156(3) 0.7120(2) 0.4240(3)
C6_3 C 0.9252(3) 0.9368(3) 0.7364(3)
C7_2 C 0.4189(4) 0.7888(3) 0.4645(3)
H5_2 H 0.3677 0.8306 0.4546
C8_3 C 0.4946(4) 0.8087(3) 0.5201(4)
H6_3 H 0.4956 0.8634 0.5475
C9_3 C 0.5686(4) 0.7475(3) 0.5350(3)
C10 C 0.5627(4) 0.6675(3) 0.4970(3)
H7_3 H 0.6104 0.6232 0.5087
C11_2 C 0.4856(4) 0.6531(3) 0.4412(3)
H8_2 H 0.4826 0.5984 0.4139
C12_3 C 0.6570(4) 0.7672(3) 0.5916(3)
N3_2 N 0.8995(3) 0.6659(3) 0.7249(3)
N4_2 N 0.9156(3) 0.7880(2) 0.5760(3)
C7_3 C 0.5811(4) 0.2888(3) 0.0355(3)
H5_3 H 0.6323 0.3306 0.0454
C10_2 C 0.4373(4) 0.1675(3) 0.0030(3)
C11_3 C 0.5144(4) 0.1531(3) 0.0588(3)
H8_3 H 0.5174 0.0984 0.0861
C1_3 C 0.9915(4) 0.6712(3) 0.7571(4)
C4_3 C 0.9177(4) 0.5118(3) 0.7158(4)
H3_2 H 0.8906 0.4570 0.7002
C5_3 C 0.8632(4) 0.5872(3) 0.7054(3)
H4_3 H 0.7972 0.5833 0.6835
Cl1_4 Cl 0.20925(12) 0.70413(9) 0.17978(10)
O1_4 O 0.3460(3) 0.5555(2) 0.3056(2)
O2_4 O 0.4553(3) 0.6345(2) 0.2366(2)
O3_4 O 0.1763(2) 0.6545(2) 0.3925(2)
O4_4 O 0.2054(3) 0.7952(2) 0.3806(2)
C1_4 C 0.5085(4) 0.3288(3) 0.2571(4)
H1_3 H 0.4822 0.2732 0.2709
C2_3 C 0.4506(4) 0.4015(3) 0.2707(4)
H2_3 H 0.3858 0.3959 0.2947
C3_3 C 0.4872(4) 0.4824(3) 0.2495(3)
C4_4 C 0.5823(4) 0.4882(3) 0.2158(4)
H3_3 H 0.6094 0.5430 0.2002
C5_4 C 0.6368(4) 0.4128(3) 0.2054(3)
H4_4 H 0.7028 0.4167 0.1835
C6_4 C 0.4252(3) 0.5632(3) 0.2636(3)
C9_4 C 0.0686(4) 0.7525(3) 0.4650(3)
C10_3 C 0.0627(4) 0.8325(3) 0.5030(3)
H7_4 H 0.1104 0.8768 0.4913
C12_4 C 0.1570(4) 0.7328(3) 0.4084(3)
C7_4 C 0.9189(4) 0.7112(3) 0.5355(3)
H5_4 H 0.8677 0.6694 0.5454
C8_4 C 0.9946(4) 0.6913(3) 0.4799(4)
H6_4 H 0.9956 0.6366 0.4525
C11_4 C 0.9856(4) 0.8469(3) 0.5588(3)
H8_4 H 0.9826 0.9016 0.5861
C10_4 C 0.9373(4) 0.3325(3) 0.9970(3)
Tl1_3 Tl 0.187718(12) 0.203905(11) 0.303425(11)
Cl1_5 Cl 0.29075(12) 0.20413(9) 0.17978(10)
O1_5 O 0.1540(3) 0.0555(2) 0.3056(2)
O2_5 O 0.0447(3) 0.1345(2) 0.2366(2)
O3_5 O 0.3237(2) 0.1545(2) 0.3925(2)
O4_5 O 0.2946(3) 0.2952(2) 0.3806(2)
N2_3 N 0.5844(3) 0.2880(2) 0.5760(3)
C6_5 C 0.0748(3) 0.0632(3) 0.2636(3)
C7_5 C 0.5811(4) 0.2112(3) 0.5355(3)
H5_5 H 0.6323 0.1694 0.5454
C8_5 C 0.5054(4) 0.1913(3) 0.4799(4)
H6_5 H 0.5044 0.1366 0.4525
C9_5 C 0.4314(4) 0.2525(3) 0.4650(3)
C10_5 C 0.4373(4) 0.3325(3) 0.5030(3)
H7_5 H 0.3896 0.3768 0.4913
C11_5 C 0.5144(4) 0.3469(3) 0.5588(3)
H8_5 H 0.5174 0.4016 0.5861
C12_5 C 0.3430(4) 0.2328(3) 0.4084(3)
N3_3 N 0.1005(3) 0.3341(3) 0.2751(3)
N4_3 N 0.0844(3) 0.2120(2) 0.4240(3)
Tl3_2 Tl 0.687718(12) 0.296095(11) 0.696575(11)
C1_5 C 0.0085(4) 0.3288(3) 0.2429(4)
C4_5 C 0.0823(4) 0.4882(3) 0.2842(4)
H3_4 H 0.1094 0.5430 0.2998
C5_5 C 0.1368(4) 0.4128(3) 0.2946(3)
H4_5 H 0.2028 0.4167 0.3165
N2_4 N 0.4156(3) 0.7880(2) 0.9240(3)
C7_6 C 0.4189(4) 0.7112(3) 0.9645(3)
H5_6 H 0.3677 0.6694 0.9546
C10_6 C 0.5627(4) 0.8325(3) 0.9970(3)
C11_6 C 0.4856(4) 0.8469(3) 0.9412(3)
H8_6 H 0.4826 0.9016 0.9139
Tl3_3 Tl 0.312282(12) 0.796095(11) 0.803425(11)
C7_7 C 0.0811(4) 0.2888(3) 0.4645(3)
H5_7 H 0.1323 0.3306 0.4546
C8_6 C 0.0054(4) 0.3087(3) 0.5201(4)
H6_6 H 0.0044 0.3634 0.5475
C11_7 C 0.0144(4) 0.1531(3) 0.4412(3)
H8_7 H 0.0174 0.0984 0.4139
Cl1_6 Cl 0.79075(12) 0.29587(9) 0.82022(10)
O1_6 O 0.6540(3) 0.4445(2) 0.6944(2)
O2_6 O 0.5447(3) 0.3655(2) 0.7634(2)
O3_6 O 0.8237(2) 0.3455(2) 0.6075(2)
O4_6 O 0.7946(3) 0.2048(2) 0.6194(2)
N1_3 N 0.3995(3) 0.6659(3) 0.7751(3)
C1_6 C 0.4915(4) 0.6712(3) 0.7429(4)
H1_4 H 0.5178 0.7268 0.7291
C2_4 C 0.5494(4) 0.5985(3) 0.7293(4)
H2_4 H 0.6142 0.6041 0.7053
C3_4 C 0.5128(4) 0.5176(3) 0.7505(3)
C4_6 C 0.4177(4) 0.5118(3) 0.7842(4)
H3_5 H 0.3906 0.4570 0.7998
C5_6 C 0.3632(4) 0.5872(3) 0.7946(3)
H4_6 H 0.2972 0.5833 0.8165
C6_6 C 0.5748(3) 0.4368(3) 0.7364(3)
C9_6 C 0.9314(4) 0.2475(3) 0.5350(3)
C10_7 C 0.9373(4) 0.1675(3) 0.4970(3)
H7_6 H 0.8896 0.1232 0.5087
C12_6 C 0.8430(4) 0.2672(3) 0.5916(3)
N3_4 N 0.6005(3) 0.1659(3) 0.7249(3)
C1_7 C 0.5085(4) 0.1712(3) 0.7571(4)
H1_5 H 0.4822 0.2268 0.7709
C2_5 C 0.4506(4) 0.0985(3) 0.7707(4)
H2_5 H 0.3858 0.1041 0.7947
C3_5 C 0.4872(4) 0.0176(3) 0.7495(3)
C4_7 C 0.5823(4) 0.0118(3) 0.7158(4)
C5_7 C 0.6368(4) 0.0872(3) 0.7054(3)
H4_7 H 0.7028 0.0833 0.6835
Cl1_7 Cl 0.20925(12) 0.79587(9) 0.67978(10)
O1_7 O 0.3460(3) 0.9445(2) 0.8056(2)
O2_7 O 0.4553(3) 0.8655(2) 0.7366(2)
O3_7 O 0.1763(2) 0.8455(2) 0.8925(2)
O4_7 O 0.2054(3) 0.7048(2) 0.8806(2)
H3_6 H 0.6094 0.9570 0.7002
C6_7 C 0.4252(3) 0.9368(3) 0.7636(3)
C9_7 C 0.0686(4) 0.7475(3) 0.9650(3)
H7_7 H 0.1104 0.6232 0.9913
C12_7 C 0.1570(4) 0.7672(3) 0.9084(3)
H1_6 H 0.0178 0.7732 0.2709
C2_6 C 0.0494(4) 0.9015(3) 0.2707(4)
H2_6 H 0.1142 0.8959 0.2947
C3_6 C 0.0128(4) 0.9824(3) 0.2495(3)
H3_7 H 0.8906 0.0430 0.2002
N1_4 N 0.8995(3) 0.8341(3) 0.2249(3)
C1_8 C 0.9915(4) 0.8288(3) 0.2571(4)
C4_8 C 0.9177(4) 0.9882(3) 0.2158(4)
C5_8 C 0.8632(4) 0.9128(3) 0.2054(3)
H4_8 H 0.7972 0.9167 0.1835
Tl2_2 Tl 0.812282(12) 0.703905(11) 0.196575(11)
Cl1_8 Cl 0.70925(12) 0.70413(9) 0.32022(10)
O1_8 O 0.8460(3) 0.5555(2) 0.1944(2)
O2_8 O 0.9553(3) 0.6345(2) 0.2634(2)
O3_8 O 0.6763(2) 0.6545(2) 0.1075(2)
O4_8 O 0.7054(3) 0.7952(2) 0.1194(2)
H1_7 H 0.9822 0.2732 0.2291
C2_7 C 0.9506(4) 0.4015(3) 0.2293(4)
H2_7 H 0.8858 0.3959 0.2053
C3_7 C 0.9872(4) 0.4824(3) 0.2505(3)
C6_8 C 0.9252(3) 0.5632(3) 0.2364(3)
C8_7 C 0.4946(4) 0.6913(3) 0.0201(4)
H6_7 H 0.4956 0.6366 0.0475
C9_8 C 0.5686(4) 0.7525(3) 0.0350(3)
H7_8 H 0.6104 0.8768 0.0087
C12_8 C 0.6570(4) 0.7328(3) 0.0916(3)
N4_4 N 0.9156(3) 0.7120(2) 0.0760(3)
C7_8 C 0.9189(4) 0.7888(3) 0.0355(3)
H5_8 H 0.8677 0.8306 0.0454
C11_8 C 0.9856(4) 0.6531(3) 0.0588(3)
H8_8 H 0.9826 0.5984 0.0861
C10_8 C 0.0627(4) 0.6675(3) 0.0030(3)
C8_8 C 0.9946(4) 0.8087(3) 0.9799(4)
H6_8 H 0.9956 0.8634 0.9525
H3_8 H 0.1094 0.9570 0.7998
H1_8 H 0.9822 0.2268 0.7291
C2_8 C 0.9506(4) 0.0985(3) 0.7293(4)
H2_8 H 0.8858 0.1041 0.7053
C3_8 C 0.9872(4) 0.0176(3) 0.7505(3)
loop_
_geom_bond_atom_site_label_1
_geom_bond_atom_site_label_2
_geom_bond_site_symmetry_1
_geom_bond_site_symmetry_2
H6 C8 1_555 1_555
N2 C7 1_555 1_555
C7 H5 1_555 1_555
C11 N2 1_555 1_555
H8 C11 1_555 1_555
Tl3 N2 1_555 1_555
N1 C1 1_555 1_555
C5 N1 1_555 1_555
H4 C5 1_555 1_555
Tl3 N1 1_555 1_555
C4 C5 1_555 1_555
Tl3 Cl1 1_555 1_555
O1 Tl3 1_555 1_555
O2 Tl3 1_555 1_555
O3 Tl3 1_555 1_555
O4 Tl3 1_555 1_555
H2 C2 1_555 1_555
C3 C2 1_555 1_555
C6 O1 1_555 1_555
H6_2 C8_2 1_555 1_555
C9 C8_2 1_555 1_555
C12 O3 1_555 1_555
O2 C6 1_555 1_555
O4 C12 1_555 1_555
C3 C6 1_555 1_555
C9 C12 1_555 1_555
Tl1 Cl1_2 1_555 1_555
O1_2 Tl1 1_555 1_555
O2_2 Tl1 1_555 1_555
O3_2 Tl1 1_555 1_555
O4_2 Tl1 1_555 1_555
C6_2 O1_2 1_555 1_555
C12_2 O3_2 1_555 1_555
N3 Tl1 1_555 1_555
N4 Tl1 1_555 1_555
O2_2 C6_2 1_555 1_555
O4_2 C12_2 1_555 1_555
C9_2 C12_2 1_555 1_555
N1_2 C1_2 1_555 1_555
C1_2 H1_2 1_555 1_555
C2_2 C1_2 1_555 1_555
H2_2 C2_2 1_555 1_555
C3_2 C2_2 1_555 1_555
C4_2 C3_2 1_555 1_555
C5_2 N1_2 1_555 1_555
H4_2 C5_2 1_555 1_555
Tl2 N1_2 1_555 1_555
C4_2 C5_2 1_555 1_555
Tl1_2 Cl1_3 1_555 1_555
O1_3 Tl1_2 1_555 1_555
O2_3 Tl1_2 1_555 1_555
O3_3 Tl1_2 1_555 1_555
O4_3 Tl1_2 1_555 1_555
N2_2 C7_2 1_555 1_555
C6_3 O1_3 1_555 1_555
C7_2 H5_2 1_555 1_555
C8_3 C7_2 1_555 1_555
H6_3 C8_3 1_555 1_555
C9_3 C8_3 1_555 1_555
C10 C9_3 1_555 1_555
H7_3 C10 1_555 1_555
C11_2 N2_2 1_555 1_555
H8_2 C11_2 1_555 1_555
C12_3 O3_3 1_555 1_555
N3_2 Tl1_2 1_555 1_555
N4_2 Tl1_2 1_555 1_555
Tl2 N2_2 1_555 1_555
O2_3 C6_3 1_555 1_555
O4_3 C12_3 1_555 1_555
C9_3 C12_3 1_555 1_555
C10 C11_2 1_555 1_555
N4 C7_3 1_555 1_555
C7_3 H5_3 1_555 1_555
C11_3 N4 1_555 1_555
H8_3 C11_3 1_555 1_555
C10_2 C11_3 1_555 1_555
N3_2 C1_3 1_555 1_555
H3_2 C4_3 1_555 1_555
C5_3 N3_2 1_555 1_555
H4_3 C5_3 1_555 1_555
C4_3 C5_3 1_555 1_555
Tl2 Cl1_4 1_555 1_555
O1_4 Tl2 1_555 1_555
O2_4 Tl2 1_555 1_555
O3_4 Tl2 1_555 1_555
O4_4 Tl2 1_555 1_555
N3 C1_4 1_555 1_555
C1_4 H1_3 1_555 1_555
C2_3 C1_4 1_555 1_555
H2_3 C2_3 1_555 1_555
C3_3 C2_3 1_555 1_555
C4_4 C3_3 1_555 1_555
H3_3 C4_4 1_555 1_555
C5_4 N3 1_555 1_555
H4_4 C5_4 1_555 1_555
C6_4 O1_4 1_555 1_555
C10_3 C9_4 1_555 1_555
H7_4 C10_3 1_555 1_555
C12_4 O3_4 1_555 1_555
O2_4 C6_4 1_555 1_555
O4_4 C12_4 1_555 1_555
C3_3 C6_4 1_555 1_555
C4_4 C5_4 1_555 1_555
C9_4 C12_4 1_555 1_555
N4_2 C7_4 1_555 1_555
C7_4 H5_4 1_555 1_555
C8_4 C7_4 1_555 1_555
H6_4 C8_4 1_555 1_555
C11_4 N4_2 1_555 1_555
H8_4 C11_4 1_555 1_555
Tl1_3 Cl1_5 1_555 1_555
O1_5 Tl1_3 1_555 1_555
O2_5 Tl1_3 1_555 1_555
O3_5 Tl1_3 1_555 1_555
O4_5 Tl1_3 1_555 1_555
N2_3 C7_5 1_555 1_555
C6_5 O1_5 1_555 1_555
C7_5 H5_5 1_555 1_555
C8_5 C7_5 1_555 1_555
H6_5 C8_5 1_555 1_555
C9_5 C8_5 1_555 1_555
C10_5 C9_5 1_555 1_555
H7_5 C10_5 1_555 1_555
C11_5 N2_3 1_555 1_555
H8_5 C11_5 1_555 1_555
C12_5 O3_5 1_555 1_555
N3_3 Tl1_3 1_555 1_555
N4_3 Tl1_3 1_555 1_555
Tl3_2 N2_3 1_555 1_555
O2_5 C6_5 1_555 1_555
O4_5 C12_5 1_555 1_555
C9_5 C12_5 1_555 1_555
C10_5 C11_5 1_555 1_555
N3_3 C1_5 1_555 1_555
H3_4 C4_5 1_555 1_555
C5_5 N3_3 1_555 1_555
H4_5 C5_5 1_555 1_555
C4_5 C5_5 1_555 1_555
N2_4 C7_6 1_555 1_555
C7_6 H5_6 1_555 1_555
C11_6 N2_4 1_555 1_555
H8_6 C11_6 1_555 1_555
Tl3_3 N2_4 1_555 1_555
C10_6 C11_6 1_555 1_555
N4_3 C7_7 1_555 1_555
C7_7 H5_7 1_555 1_555
C8_6 C7_7 1_555 1_555
H6_6 C8_6 1_555 1_555
C11_7 N4_3 1_555 1_555
H8_7 C11_7 1_555 1_555
Tl3_2 Cl1_6 1_555 1_555
O1_6 Tl3_2 1_555 1_555
O2_6 Tl3_2 1_555 1_555
O3_6 Tl3_2 1_555 1_555
O4_6 Tl3_2 1_555 1_555
N1_3 C1_6 1_555 1_555
C1_6 H1_4 1_555 1_555
C2_4 C1_6 1_555 1_555
H2_4 C2_4 1_555 1_555
C3_4 C2_4 1_555 1_555
C4_6 C3_4 1_555 1_555
H3_5 C4_6 1_555 1_555
C5_6 N1_3 1_555 1_555
H4_6 C5_6 1_555 1_555
C6_6 O1_6 1_555 1_555
C10_7 C9_6 1_555 1_555
H7_6 C10_7 1_555 1_555
C12_6 O3_6 1_555 1_555
N3_4 Tl3_2 1_555 1_555
Tl3_3 N1_3 1_555 1_555
O2_6 C6_6 1_555 1_555
O4_6 C12_6 1_555 1_555
C3_4 C6_6 1_555 1_555
C4_6 C5_6 1_555 1_555
C9_6 C12_6 1_555 1_555
N3_4 C1_7 1_555 1_555
C1_7 H1_5 1_555 1_555
C2_5 C1_7 1_555 1_555
H2_5 C2_5 1_555 1_555
C3_5 C2_5 1_555 1_555
C4_7 C3_5 1_555 1_555
C5_7 N3_4 1_555 1_555
H4_7 C5_7 1_555 1_555
C4_7 C5_7 1_555 1_555
Tl3_3 Cl1_7 1_555 1_555
O1_7 Tl3_3 1_555 1_555
O2_7 Tl3_3 1_555 1_555
O3_7 Tl3_3 1_555 1_555
O4_7 Tl3_3 1_555 1_555
C6_7 O1_7 1_555 1_555
C12_7 O3_7 1_555 1_555
O2_7 C6_7 1_555 1_555
O4_7 C12_7 1_555 1_555
C9_7 C12_7 1_555 1_555
H2_6 C2_6 1_555 1_555
C3_6 C2_6 1_555 1_555
N1_4 C1_8 1_555 1_555
C5_8 N1_4 1_555 1_555
H4_8 C5_8 1_555 1_555
Tl2_2 N1_4 1_555 1_555
C4_8 C5_8 1_555 1_555
Tl2_2 Cl1_8 1_555 1_555
O1_8 Tl2_2 1_555 1_555
O2_8 Tl2_2 1_555 1_555
O3_8 Tl2_2 1_555 1_555
O4_8 Tl2_2 1_555 1_555
H2_7 C2_7 1_555 1_555
C3_7 C2_7 1_555 1_555
C6_8 O1_8 1_555 1_555
H6_7 C8_7 1_555 1_555
C9_8 C8_7 1_555 1_555
C12_8 O3_8 1_555 1_555
N4_4 Tl2_2 1_555 1_555
O2_8 C6_8 1_555 1_555
O4_8 C12_8 1_555 1_555
C3_7 C6_8 1_555 1_555
C9_8 C12_8 1_555 1_555
N4_4 C7_8 1_555 1_555
C7_8 H5_8 1_555 1_555
C11_8 N4_4 1_555 1_555
H8_8 C11_8 1_555 1_555
H6_8 C8_8 1_555 1_555
H2_8 C2_8 1_555 1_555
C3_8 C2_8 1_555 1_555

#END
