
###############################################################################
#
# This file contains modified crystal structure data generated from the
# MOF subset of the Cambridge Structural Database (CSD) v543 
# hosted by the Cambridge Crystallographic Data Centre (CCDC).
#
# This work is licensed under the Creative Commons
# Attribution-NonCommercial-ShareAlike 4.0 International License.
# To view a copy of this license, visit
# http://creativecommons.org/licenses/by-nc-sa/4.0/
# or send a letter to
# Creative Commons, PO Box 1866, Mountain View, CA 94042, USA.
#
# CIF created using the CSD Python API on 29 September 2022
# The structure has been converted into the P1 space group
# The structure has a 3D framework
# The original CSD entry SAHDAK is in the triclinic crystal system
# The framework has been calculated to contain at least 10.0% void space
# The void calculation uses a probe of radius 1.32A, grid spacing 0.4
#
###############################################################################

data_SAHDAK
_chemical_formula_moiety         '(C150 H132 Mn7 N24 O24)n'
_symmetry_cell_setting           triclinic
_symmetry_space_group_name_H-M   'P 1'
_symmetry_Int_Tables_number      1
_space_group_name_Hall           'P 1'
loop_
_symmetry_equiv_pos_site_id
_symmetry_equiv_pos_as_xyz
1 x,y,z
_cell_length_a                   12.457(3)
_cell_length_b                   13.242(3)
_cell_length_c                   33.037(7)
_cell_angle_alpha                86.69(3)
_cell_angle_beta                 86.08(3)
_cell_angle_gamma                85.22(3)
_cell_volume                     5410.55
loop_
_atom_site_label
_atom_site_type_symbol
_atom_site_fract_x
_atom_site_fract_y
_atom_site_fract_z
C66 C 0.0309(7) 0.3439(8) 0.6178(3)
C67 C 0.0067(8) 0.2025(9) 0.6798(3)
C69 C 0.1465(7) 0.3471(9) 0.6131(3)
H58 H 0.0858 0.1965 0.6776
H60 H 0.0375 0.5009 0.5624
C70 C 0.2052(9) 0.3583(10) 0.6466(4)
C71 C 0.2029(7) 0.3359(8) 0.5760(3)
H63 H 0.1711 0.3561 0.6732
C72 C 0.3225(9) 0.3737(9) 0.6402(4)
C73 C 0.3170(7) 0.3411(9) 0.5685(3)
H64 H 0.1627 0.3236 0.5536
C74 C 0.3751(8) 0.3670(8) 0.6015(3)
H65 H 0.3619 0.3882 0.6625
H66 H 0.3521 0.3279 0.5427
C75 C 0.4888(8) 0.3886(8) 0.5910(4)
Mn8 Mn 0.5000 0.5000 0.0000
O32 O 0.5493(5) 0.3993(5) 0.6214(2)
O33 O 0.5280(5) 0.3953(4) 0.55535(19)
Mn16 Mn 0.5000 0.5000 0.5000
Mn17 Mn 0.69828(11) 0.39514(11) 0.56974(4)
C103 C 0.0153(7) 0.3174(8) 0.8553(3)
C108 C 0.0696(5) 0.3793(7) 0.8809(3)
C109 C 0.0636(10) 0.2533(10) 0.8238(4)
C113 C 0.1866(6) 0.3817(8) 0.8866(3)
H94 H 0.0280 0.1898 0.8251
H95 H 0.1406 0.2383 0.8278
H96 H 0.0548 0.2885 0.7972
H97 H 0.0610 0.5174 0.9381
C116 C 0.2236(8) 0.3571(9) 0.9237(3)
C117 C 0.2537(11) 0.4186(12) 0.8561(4)
H105 H 0.1752 0.3328 0.9447
C120 C 0.3382(8) 0.3668(8) 0.9327(3)
H106 H 0.2257 0.4421 0.8309
C121 C 0.3707(9) 0.4223(9) 0.8620(4)
C123 C 0.4025(6) 0.4047(7) 0.8998(3)
H109 H 0.3651 0.3488 0.9586
H110 H 0.4207 0.4365 0.8398
C125 C 0.5219(7) 0.4214(7) 0.9066(4)
O23 O 0.5912(5) 0.4370(5) 0.8792(2)
O24 O 0.5454(5) 0.4112(5) 0.9455(2)
Mn8_2 Mn 0.5000 0.5000 1.0000
Mn13 Mn 0.72299(10) 0.41694(11) 0.93078(4)
C58 C 0.7005(9) 0.0434(8) 0.5881(3)
C59 C 0.7450(7) 0.0745(7) 0.6255(3)
C60 C 0.6676(9) 0.1394(7) 0.5665(3)
N11 N 0.7307(7) 0.1819(5) 0.6228(2)
C61 C 0.7881(8) 0.0093(9) 0.6600(3)
C62 C 0.6128(11) 0.1511(9) 0.5286(3)
C63 C 0.7638(6) 0.2464(8) 0.6523(3)
H49 H 0.7805 0.0476 0.6847
H52 H 0.5413 0.1251 0.5330
H53 H 0.6048 0.2231 0.5197
H54 H 0.6554 0.1130 0.5077
H55 H 0.7785 0.2050 0.6776
N12 N 0.8654(6) 0.3012(5) 0.6377(2)
H56 H 0.7037 0.2978 0.6589
C64 C 0.9653(8) 0.2774(8) 0.6469(3)
C65 C 0.9534(7) 0.3946(8) 0.5912(3)
C68 C 0.9721(9) 0.4674(9) 0.5583(3)
H57 H 0.9808 0.2264 0.7065
H59 H 0.9802 0.1361 0.6764
H61 H 0.9813 0.4330 0.5327
H62 H 0.9103 0.5182 0.5574
N27 N 0.6906(6) 0.2185(6) 0.5878(2)
N30 N 0.8482(7) 0.3688(7) 0.6031(2)
C91 C 0.7325(7) 0.0717(7) 0.9118(3)
C94 C 0.7796(8) 0.1103(7) 0.8765(3)
C95 C 0.6855(7) 0.1612(7) 0.9331(3)
N18 N 0.7777(6) 0.2171(6) 0.8780(2)
C98 C 0.8522(9) 0.0533(9) 0.8422(3)
N19 N 0.7220(6) 0.2459(6) 0.9116(2)
C99 C 0.6190(8) 0.1653(8) 0.9712(3)
H78 H 0.2176 0.0211 0.8429
H80 H 0.2547 0.0224 0.7955
C101 C 0.8176(7) 0.2894(8) 0.8494(3)
H81 H 0.8744 0.1027 0.8206
H82 H 0.9163 0.0186 0.8539
H83 H 0.8106 0.0034 0.8307
H84 H 0.6518 0.1182 0.9916
H85 H 0.5466 0.1460 0.9668
H86 H 0.6139 0.2344 0.9806
N22 N 0.9116(5) 0.3385(5) 0.8627(2)
H89 H 0.8393 0.2561 0.8237
H90 H 0.7590 0.3425 0.8438
N23 N 0.8866(5) 0.3997(6) 0.8965(2)
C104 C 0.9771(7) 0.4250(8) 0.9069(3)
C110 C 0.9902(8) 0.4897(10) 0.9414(4)
H98 H 0.9847 0.4488 0.9670
H99 H 0.9334 0.5456 0.9418
O1 O 0.4546(5) 0.5888(5) 0.0545(2)
O2 O 0.6386(6) 0.4314(6) 0.0273(2)
O3 O 0.4164(6) 0.3723(5) 0.0288(2)
Mn2 Mn 0.27701(10) 0.58306(11) 0.06922(4)
C1 C 0.7306(8) 0.3768(9) 0.0215(3)
C2 C 0.3402(8) 0.3555(6) 0.0521(3)
O4 O 0.4088(5) 0.5630(5) 0.1208(2)
N1 N 0.1134(5) 0.6003(6) 0.1035(2)
N2 N 0.2780(6) 0.7541(6) 0.0884(2)
O5 O 0.2217(6) 0.6371(6) 0.0129(2)
O6 O 0.2677(5) 0.4270(6) 0.0661(2)
C3 C 0.7718(7) 0.3237(8) 0.0583(3)
C4 C 0.3165(7) 0.2451(7) 0.0581(3)
C5 C 0.8652(10) 0.2517(11) 0.0569(3)
C6 C 0.737(2) 0.343(2) 0.0946(5)
C7 C 0.2177(9) 0.2096(8) 0.0730(3)
C8 C 0.3976(8) 0.1717(7) 0.0521(3)
C9 C 0.8951(11) 0.2037(13) 0.0913(4)
H1 H 0.9047 0.2388 0.0319
H2 H 0.6869 0.4001 0.0985
C10 C 0.771(2) 0.284(2) 0.1297(5)
C11 C 0.1981(7) 0.1097(7) 0.0806(3)
H3 H 0.1594 0.2589 0.0784
C12 C 0.3840(7) 0.0674(7) 0.0623(3)
H4 H 0.4658 0.1904 0.0408
C13 C 0.8656(12) 0.2199(10) 0.1294(3)
H5 H 0.9469 0.1476 0.0876
H6 H 0.7268 0.2878 0.1543
H7 H 0.1276 0.0898 0.0882
C14 C 0.2903(7) 0.0363(7) 0.0765(3)
H8 H 0.4441 0.0189 0.0588
C15 C 0.9072(19) 0.1662(15) 0.1650(4)
C17 C 0.8541(15) 0.0799(15) 0.1878(5)
C18 C 0.9825(16) 0.1715(13) 0.1848(4)
N3 N 0.9142(13) 0.0387(13) 0.2210(4)
C21 C 0.7628(16) 0.0211(15) 0.1803(7)
N4 N 0.9997(10) 0.1059(11) 0.2164(3)
H10 H 0.6998 0.0677 0.1744
C27 C 0.9772(12) 0.1628(14) 0.3136(3)
C31 C 0.9909(11) 0.2363(14) 0.3342(4)
C32 C 0.8924(13) 0.0840(12) 0.3186(4)
C37 C 0.9277(10) 0.2760(9) 0.3724(4)
H25 H 0.9147 0.0306 0.3388
H26 H 0.8861 0.0541 0.2925
H27 H 0.8224 0.1173 0.3278
C39 C 0.8611(13) 0.3658(11) 0.3719(4)
C40 C 0.9330(9) 0.2232(10) 0.4087(3)
H37 H 0.8625 0.4080 0.3477
C43 C 0.7938(18) 0.3971(16) 0.4038(4)
C44 C 0.8712(9) 0.2578(9) 0.4432(3)
H38 H 0.9788 0.1623 0.4109
H41 H 0.7453 0.4559 0.4006
C47 C 0.7966(9) 0.3415(7) 0.4420(3)
H42 H 0.8811 0.2219 0.4686
C49 C 0.7383(6) 0.3771(7) 0.4775(3)
O7 O 0.6523(5) 0.4370(6) 0.4719(2)
O8 O 0.7719(6) 0.3536(5) 0.5129(2)
O10 O 0.5724(6) 0.6143(5) 0.52829(19)
O12 O 0.7112(6) 0.5530(6) 0.5660(2)
C51 C 0.6527(9) 0.6276(8) 0.5524(3)
C52 C 0.6654(8) 0.7346(6) 0.5593(3)
C53 C 0.7640(10) 0.7599(7) 0.5746(3)
C54 C 0.5873(9) 0.8121(7) 0.5536(3)
H45 H 0.8221 0.7099 0.5788
C55 C 0.7716(8) 0.8658(7) 0.5835(3)
C56 C 0.5941(9) 0.9134(7) 0.5613(3)
H46 H 0.5222 0.7950 0.5433
C57 C 0.6904(9) 0.9434(7) 0.5770(3)
H47 H 0.8359 0.8831 0.5944
H48 H 0.5355 0.9622 0.5563
H50 H 0.8645 0.9888 0.6538
H51 H 0.7476 0.9489 0.6643
O14 O 0.3614(6) 0.5686(6) 0.9727(2)
O15 O 0.5836(6) 0.6277(5) 0.9712(2)
C76 C 0.2694(8) 0.6232(9) 0.9785(3)
C77 C 0.6598(8) 0.6445(6) 0.9479(3)
O16 O 0.7783(6) 0.3629(6) 0.9871(2)
O18 O 0.7323(5) 0.5730(6) 0.9339(2)
C78 C 0.2282(7) 0.6763(8) 0.9417(3)
C79 C 0.6835(7) 0.7549(7) 0.9419(3)
C80 C 0.263(2) 0.657(2) 0.9054(5)
C81 C 0.1348(10) 0.7483(11) 0.9431(3)
C82 C 0.7823(9) 0.7904(8) 0.9270(3)
C83 C 0.6024(8) 0.8283(7) 0.9479(3)
H67 H 0.3131 0.5999 0.9015
C84 C 0.229(2) 0.716(2) 0.8703(5)
C85 C 0.1049(11) 0.7963(13) 0.9087(4)
H68 H 0.0953 0.7612 0.9681
C86 C 0.8019(7) 0.8903(7) 0.9194(3)
H69 H 0.8406 0.7411 0.9216
C87 C 0.6160(7) 0.9326(7) 0.9377(3)
H70 H 0.5342 0.8096 0.9592
H71 H 0.2732 0.7122 0.8457
C88 C 0.1344(12) 0.7801(10) 0.8706(3)
H72 H 0.0531 0.8524 0.9124
H73 H 0.8724 0.9102 0.9118
C89 C 0.7097(7) 0.9637(7) 0.9235(3)
H74 H 0.5559 0.9811 0.9412
C90 C 0.0928(19) 0.8338(15) 0.8350(4)
C92 C 0.0175(16) 0.8285(13) 0.8152(4)
C93 C 0.1459(15) 0.9201(15) 0.8122(5)
N15 N 0.0003(10) 0.8941(11) 0.7836(3)
N16 N 0.0858(13) 0.9613(13) 0.7790(4)
C97 C 0.2372(16) 0.9789(15) 0.8197(7)
H79 H 0.3002 0.9323 0.8256
C102 C 0.0228(12) 0.8372(14) 0.6864(3)
C106 C 0.0091(11) 0.7637(14) 0.6658(4)
C107 C 0.1076(13) 0.9160(12) 0.6814(4)
C112 C 0.0723(10) 0.7240(9) 0.6276(4)
H91 H 0.1776 0.8827 0.6722
H92 H 0.1139 0.9459 0.7075
H93 H 0.0853 0.9694 0.6612
C114 C 0.0670(9) 0.7768(10) 0.5913(3)
C115 C 0.1389(13) 0.6342(11) 0.6281(4)
C118 C 0.1288(9) 0.7422(9) 0.5568(3)
H103 H 0.0212 0.8377 0.5891
C119 C 0.2062(18) 0.6029(16) 0.5962(4)
H104 H 0.1375 0.5920 0.6523
C122 C 0.2034(9) 0.6585(7) 0.5580(3)
H107 H 0.1189 0.7781 0.5314
H108 H 0.2547 0.5441 0.5994
C124 C 0.2617(6) 0.6229(7) 0.5225(3)
O19 O 0.3477(5) 0.5630(6) 0.5281(2)
O20 O 0.2281(6) 0.6464(5) 0.4871(2)
Mn11 Mn 0.30172(11) 0.60486(11) 0.43026(4)
O25 O 0.4720(5) 0.6047(4) 0.44465(19)
O29 O 0.4276(6) 0.3857(5) 0.47171(19)
O30 O 0.4507(5) 0.6007(5) 0.3786(2)
N25 N 0.3094(6) 0.7815(6) 0.4122(2)
O31 O 0.2888(6) 0.4470(6) 0.4340(2)
N26 N 0.1518(7) 0.6312(7) 0.3969(2)
C126 C 0.3473(9) 0.3724(8) 0.4476(3)
C127 C 0.3346(8) 0.2654(6) 0.4407(3)
C128 C 0.2360(10) 0.2401(7) 0.4254(3)
C129 C 0.4127(9) 0.1879(7) 0.4464(3)
H111 H 0.1779 0.2901 0.4212
C130 C 0.2284(8) 0.1342(7) 0.4165(3)
C131 C 0.4059(9) 0.0866(7) 0.4387(3)
H112 H 0.4778 0.2050 0.4567
C132 C 0.3096(9) 0.0566(7) 0.4230(3)
H113 H 0.1641 0.1169 0.4056
H114 H 0.4645 0.0378 0.4437
H116 H 0.1355 0.0112 0.3462
H117 H 0.2524 0.0511 0.3357
C16 C 0.2675(7) 0.9283(7) 0.0882(3)
C19 C 0.2204(8) 0.8897(7) 0.1235(3)
C20 C 0.3145(7) 0.8388(7) 0.0669(3)
N5 N 0.2223(6) 0.7829(6) 0.1220(2)
C23 C 0.1478(9) 0.9467(9) 0.1578(3)
C24 C 0.3810(8) 0.8347(8) 0.0288(3)
H9 H 0.7824 0.9789 0.1571
H11 H 0.7453 0.9776 0.2045
C26 C 0.1824(7) 0.7106(8) 0.1506(3)
H15 H 0.1256 0.8973 0.1794
H16 H 0.0837 0.9814 0.1461
H17 H 0.1894 0.9966 0.1693
H18 H 0.3482 0.8818 0.0084
H19 H 0.4534 0.8540 0.0332
H20 H 0.3861 0.7656 0.0194
N7 N 0.0884(5) 0.6615(5) 0.1373(2)
H23 H 0.1607 0.7439 0.1763
H24 H 0.2410 0.6575 0.1562
C29 C 0.0229(7) 0.5750(8) 0.0931(3)
C35 C 0.0098(8) 0.5103(10) 0.0586(4)
H32 H 0.0153 0.5512 0.0330
H33 H 0.0666 0.4544 0.0582
C133 C 0.2995(9) 0.9566(8) 0.4119(3)
C134 C 0.2550(7) 0.9255(7) 0.3745(3)
C135 C 0.3324(9) 0.8606(7) 0.4335(3)
N28 N 0.2693(7) 0.8181(5) 0.3772(2)
C136 C 0.2119(8) 0.9907(9) 0.3400(3)
C137 C 0.3872(11) 0.8489(9) 0.4714(3)
C138 C 0.2362(6) 0.7536(8) 0.3477(3)
H115 H 0.2195 0.9524 0.3153
H118 H 0.4587 0.8749 0.4670
H119 H 0.3952 0.7769 0.4803
H120 H 0.3446 0.8870 0.4923
H121 H 0.2215 0.7950 0.3224
N31 N 0.1346(6) 0.6988(5) 0.3623(2)
H122 H 0.2963 0.7022 0.3411
C139 C 0.0347(8) 0.7226(8) 0.3531(3)
C140 C 0.0466(7) 0.6054(8) 0.4088(3)
C143 C 0.0279(9) 0.5326(9) 0.4417(3)
H123 H 0.0192 0.7736 0.2935
H125 H 0.0198 0.8639 0.3236
H127 H 0.0187 0.5670 0.4673
H128 H 0.0897 0.4818 0.4426
C28 C 0.9847(7) 0.6826(8) 0.1447(3)
C33 C 0.9304(5) 0.6207(7) 0.1191(3)
C34 C 0.9364(10) 0.7467(10) 0.1762(4)
C38 C 0.8134(6) 0.6183(8) 0.1134(3)
H28 H 0.9720 0.8102 0.1749
H29 H 0.8594 0.7617 0.1722
H30 H 0.9452 0.7115 0.2028
H31 H 0.9390 0.4826 0.0619
C41 C 0.7764(8) 0.6429(9) 0.0763(3)
C42 C 0.7463(11) 0.5814(12) 0.1439(4)
H39 H 0.8248 0.6672 0.0553
C45 C 0.6618(8) 0.6332(8) 0.0673(3)
H40 H 0.7743 0.5579 0.1691
C46 C 0.6293(9) 0.5777(9) 0.1380(4)
C48 C 0.5975(6) 0.5953(7) 0.1002(3)
H43 H 0.6349 0.6512 0.0414
H44 H 0.5793 0.5635 0.1602
C50 C 0.4781(7) 0.5786(7) 0.0934(4)
C141 C 0.9691(7) 0.6561(8) 0.3822(3)
C142 C 0.9933(8) 0.7975(9) 0.3202(3)
C144 C 0.8535(7) 0.6529(9) 0.3869(3)
H124 H 0.9142 0.8035 0.3224
H126 H 0.9625 0.4991 0.4376
C145 C 0.7948(9) 0.6417(10) 0.3534(4)
C146 C 0.7971(7) 0.6641(8) 0.4240(3)
H129 H 0.8289 0.6439 0.3268
C147 C 0.6775(9) 0.6263(9) 0.3598(4)
C148 C 0.6830(7) 0.6589(9) 0.4315(3)
H130 H 0.8373 0.6764 0.4464
C149 C 0.6249(8) 0.6330(8) 0.3985(3)
H131 H 0.6381 0.6118 0.3375
H132 H 0.6479 0.6721 0.4573
C150 C 0.5112(8) 0.6114(8) 0.4090(4)
C22 C 0.0735(13) 0.2508(14) 0.1777(4)
C25 C 0.0765(16) 0.0933(14) 0.2490(3)
H12 H 0.0873 0.2775 0.2037
H13 H 0.0485 0.3067 0.1591
H14 H 0.1401 0.2165 0.1659
H21 H 0.0754 0.0231 0.2609
H22 H 0.1500 0.1010 0.2364
N6 N 0.0580(10) 0.1603(12) 0.2807(3)
N8 N 0.1245(11) 0.2402(12) 0.2815(3)
C30 C 0.0827(12) 0.2843(15) 0.3137(4)
C36 C 0.1397(13) 0.3857(17) 0.3248(5)
H34 H 0.2134 0.3837 0.3123
H35 H 0.1419 0.3873 0.3544
H36 H 0.0979 0.4465 0.3144
C96 C 0.9265(13) 0.7492(14) 0.8223(4)
C100 C 0.9235(16) 0.9067(14) 0.7510(3)
H75 H 0.9127 0.7225 0.7963
H76 H 0.9515 0.6933 0.8409
H77 H 0.8599 0.7835 0.8341
H87 H 0.8500 0.8990 0.7636
N20 N 0.9420(10) 0.8397(12) 0.7193(3)
H88 H 0.9246 0.9769 0.7391
N24 N 0.8755(11) 0.7598(12) 0.7185(3)
C105 C 0.9173(12) 0.7157(15) 0.6863(4)
C111 C 0.8603(13) 0.6143(17) 0.6752(5)
H100 H 0.7866 0.6163 0.6877
H101 H 0.8581 0.6127 0.6456
H102 H 0.9021 0.5535 0.6856
loop_
_geom_bond_atom_site_label_1
_geom_bond_atom_site_label_2
_geom_bond_site_symmetry_1
_geom_bond_site_symmetry_2
C69 C66 1_555 1_555
H58 C67 1_555 1_555
C70 C69 1_555 1_555
C71 C69 1_555 1_555
H63 C70 1_555 1_555
C72 C70 1_555 1_555
C73 C71 1_555 1_555
H64 C71 1_555 1_555
C74 C72 1_555 1_555
H65 C72 1_555 1_555
H66 C73 1_555 1_555
C75 C74 1_555 1_555
O32 C75 1_555 1_555
O33 C75 1_555 1_555
Mn16 O33 1_555 1_555
Mn17 O32 1_555 1_555
C73 C74 1_555 1_555
O33 Mn17 1_555 1_555
C108 C103 1_555 1_555
C109 C103 1_555 1_555
C113 C108 1_555 1_555
H94 C109 1_555 1_555
H95 C109 1_555 1_555
H96 C109 1_555 1_555
C116 C113 1_555 1_555
C117 C113 1_555 1_555
H105 C116 1_555 1_555
C120 C116 1_555 1_555
H106 C117 1_555 1_555
C121 C117 1_555 1_555
C123 C120 1_555 1_555
H109 C120 1_555 1_555
H110 C121 1_555 1_555
C125 C123 1_555 1_555
O23 C125 1_555 1_555
O24 C125 1_555 1_555
Mn8_2 O24 1_555 1_555
Mn13 O23 1_555 1_555
C121 C123 1_555 1_555
O24 Mn13 1_555 1_555
C59 C58 1_555 1_555
C60 C58 1_555 1_555
N11 C59 1_555 1_555
C61 C59 1_555 1_555
C62 C60 1_555 1_555
C63 N11 1_555 1_555
H49 C61 1_555 1_555
H52 C62 1_555 1_555
H53 C62 1_555 1_555
H54 C62 1_555 1_555
H55 C63 1_555 1_555
N12 C63 1_555 1_555
H56 C63 1_555 1_555
C64 N12 1_555 1_555
C68 C65 1_555 1_555
H61 C68 1_555 1_555
H62 C68 1_555 1_555
N27 C60 1_555 1_555
Mn17 N27 1_555 1_555
N30 N12 1_555 1_555
N11 N27 1_555 1_555
C65 N30 1_555 1_555
Mn17 N30 1_555 1_555
C94 C91 1_555 1_555
C95 C91 1_555 1_555
N18 C94 1_555 1_555
C98 C94 1_555 1_555
N19 C95 1_555 1_555
C99 C95 1_555 1_555
C101 N18 1_555 1_555
H81 C98 1_555 1_555
H82 C98 1_555 1_555
H83 C98 1_555 1_555
Mn13 N19 1_555 1_555
H84 C99 1_555 1_555
H85 C99 1_555 1_555
H86 C99 1_555 1_555
N22 C101 1_555 1_555
H89 C101 1_555 1_555
H90 C101 1_555 1_555
N23 Mn13 1_555 1_555
C104 N23 1_555 1_555
C110 C104 1_555 1_555
H98 C110 1_555 1_555
H99 C110 1_555 1_555
N18 N19 1_555 1_555
N22 N23 1_555 1_555
Mn8 O1 1_555 1_555
O1 Mn2 1_555 1_555
O2 Mn8 1_555 1_555
O3 Mn8 1_555 1_555
Mn2 O4 1_555 1_555
C1 O2 1_555 1_555
C2 O3 1_555 1_555
N1 Mn2 1_555 1_555
N2 Mn2 1_555 1_555
O5 Mn2 1_555 1_555
O6 Mn2 1_555 1_555
C3 C1 1_555 1_555
C4 C2 1_555 1_555
C5 C3 1_555 1_555
C6 C3 1_555 1_555
C7 C4 1_555 1_555
C8 C4 1_555 1_555
C9 C5 1_555 1_555
H1 C5 1_555 1_555
H2 C6 1_555 1_555
C10 C6 1_555 1_555
C11 C7 1_555 1_555
H3 C7 1_555 1_555
C12 C8 1_555 1_555
H4 C8 1_555 1_555
C13 C9 1_555 1_555
H5 C9 1_555 1_555
H6 C10 1_555 1_555
H7 C11 1_555 1_555
C14 C11 1_555 1_555
H8 C12 1_555 1_555
C15 C13 1_555 1_555
C17 C15 1_555 1_555
C18 C15 1_555 1_555
N3 C17 1_555 1_555
C21 C17 1_555 1_555
N4 C18 1_555 1_555
H10 C21 1_555 1_555
C31 C27 1_555 1_555
C32 C27 1_555 1_555
C37 C31 1_555 1_555
H25 C32 1_555 1_555
H26 C32 1_555 1_555
H27 C32 1_555 1_555
C39 C37 1_555 1_555
C40 C37 1_555 1_555
H37 C39 1_555 1_555
C43 C39 1_555 1_555
C44 C40 1_555 1_555
H38 C40 1_555 1_555
H41 C43 1_555 1_555
C47 C43 1_555 1_555
H42 C44 1_555 1_555
C49 C47 1_555 1_555
O7 C49 1_555 1_555
O8 C49 1_555 1_555
Mn16 O7 1_555 1_555
Mn17 O8 1_555 1_555
O10 Mn16 1_555 1_555
O12 Mn17 1_555 1_555
C51 O10 1_555 1_555
C52 C51 1_555 1_555
C53 C52 1_555 1_555
C54 C52 1_555 1_555
H45 C53 1_555 1_555
C55 C53 1_555 1_555
C56 C54 1_555 1_555
H46 C54 1_555 1_555
C57 C55 1_555 1_555
H47 C55 1_555 1_555
H48 C56 1_555 1_555
C2 O6 1_555 1_555
C10 C13 1_555 1_555
C12 C14 1_555 1_555
N3 N4 1_555 1_555
C44 C47 1_555 1_555
O12 C51 1_555 1_555
C56 C57 1_555 1_555
O14 Mn8_2 1_555 1_555
O15 Mn8_2 1_555 1_555
C77 O15 1_555 1_555
O18 Mn13 1_555 1_555
C78 C76 1_555 1_555
C79 C77 1_555 1_555
C80 C78 1_555 1_555
C81 C78 1_555 1_555
C82 C79 1_555 1_555
C83 C79 1_555 1_555
H67 C80 1_555 1_555
C84 C80 1_555 1_555
C85 C81 1_555 1_555
H68 C81 1_555 1_555
C86 C82 1_555 1_555
H69 C82 1_555 1_555
C87 C83 1_555 1_555
H70 C83 1_555 1_555
H71 C84 1_555 1_555
C88 C84 1_555 1_555
H72 C85 1_555 1_555
H73 C86 1_555 1_555
C89 C86 1_555 1_555
H74 C87 1_555 1_555
C90 C88 1_555 1_555
C92 C90 1_555 1_555
C93 C90 1_555 1_555
N15 C92 1_555 1_555
N16 C93 1_555 1_555
C97 C93 1_555 1_555
H79 C97 1_555 1_555
C106 C102 1_555 1_555
C107 C102 1_555 1_555
C112 C106 1_555 1_555
H91 C107 1_555 1_555
H92 C107 1_555 1_555
H93 C107 1_555 1_555
C114 C112 1_555 1_555
C115 C112 1_555 1_555
C118 C114 1_555 1_555
H103 C114 1_555 1_555
C119 C115 1_555 1_555
H104 C115 1_555 1_555
C122 C118 1_555 1_555
H107 C118 1_555 1_555
H108 C119 1_555 1_555
C124 C122 1_555 1_555
O19 C124 1_555 1_555
O20 C124 1_555 1_555
Mn16 O19 1_555 1_555
Mn11 O20 1_555 1_555
O25 Mn16 1_555 1_555
O29 Mn16 1_555 1_555
O30 Mn11 1_555 1_555
N25 Mn11 1_555 1_555
O31 Mn11 1_555 1_555
N26 Mn11 1_555 1_555
C126 O29 1_555 1_555
C127 C126 1_555 1_555
C128 C127 1_555 1_555
C129 C127 1_555 1_555
H111 C128 1_555 1_555
C130 C128 1_555 1_555
C131 C129 1_555 1_555
H112 C129 1_555 1_555
C132 C130 1_555 1_555
H113 C130 1_555 1_555
H114 C131 1_555 1_555
O14 C76 1_555 1_555
Mn13 O16 1_555 1_555
C77 O18 1_555 1_555
C85 C88 1_555 1_555
C87 C89 1_555 1_555
N15 N16 1_555 1_555
C119 C122 1_555 1_555
Mn11 O25 1_555 1_555
O31 C126 1_555 1_555
C131 C132 1_555 1_555
C19 C16 1_555 1_555
C20 C16 1_555 1_555
N5 C19 1_555 1_555
C23 C19 1_555 1_555
C24 C20 1_555 1_555
C26 N5 1_555 1_555
H15 C23 1_555 1_555
H16 C23 1_555 1_555
H17 C23 1_555 1_555
H18 C24 1_555 1_555
H19 C24 1_555 1_555
H20 C24 1_555 1_555
N7 C26 1_555 1_555
H23 C26 1_555 1_555
H24 C26 1_555 1_555
C35 C29 1_555 1_555
H32 C35 1_555 1_555
H33 C35 1_555 1_555
N2 C20 1_555 1_555
N1 N7 1_555 1_555
N5 N2 1_555 1_555
C29 N1 1_555 1_555
C134 C133 1_555 1_555
C135 C133 1_555 1_555
N28 C134 1_555 1_555
C136 C134 1_555 1_555
N25 C135 1_555 1_555
C137 C135 1_555 1_555
C138 N28 1_555 1_555
H115 C136 1_555 1_555
H118 C137 1_555 1_555
H119 C137 1_555 1_555
H120 C137 1_555 1_555
H121 C138 1_555 1_555
N31 C138 1_555 1_555
H122 C138 1_555 1_555
C139 N31 1_555 1_555
C140 N26 1_555 1_555
C143 C140 1_555 1_555
H127 C143 1_555 1_555
H128 C143 1_555 1_555
N28 N25 1_555 1_555
N31 N26 1_555 1_555
C33 C28 1_555 1_555
C34 C28 1_555 1_555
C38 C33 1_555 1_555
H28 C34 1_555 1_555
H29 C34 1_555 1_555
H30 C34 1_555 1_555
C41 C38 1_555 1_555
C42 C38 1_555 1_555
H39 C41 1_555 1_555
C45 C41 1_555 1_555
H40 C42 1_555 1_555
C46 C42 1_555 1_555
C48 C45 1_555 1_555
H43 C45 1_555 1_555
H44 C46 1_555 1_555
C50 C48 1_555 1_555
O4 C50 1_555 1_555
O1 C50 1_555 1_555
C46 C48 1_555 1_555
C144 C141 1_555 1_555
H124 C142 1_555 1_555
C145 C144 1_555 1_555
C146 C144 1_555 1_555
H129 C145 1_555 1_555
C147 C145 1_555 1_555
C148 C146 1_555 1_555
H130 C146 1_555 1_555
C149 C147 1_555 1_555
H131 C147 1_555 1_555
H132 C148 1_555 1_555
C150 C149 1_555 1_555
O30 C150 1_555 1_555
O25 C150 1_555 1_555
C148 C149 1_555 1_555
H12 C22 1_555 1_555
H13 C22 1_555 1_555
H14 C22 1_555 1_555
H21 C25 1_555 1_555
H22 C25 1_555 1_555
N6 C25 1_555 1_555
N8 N6 1_555 1_555
C30 N8 1_555 1_555
C36 C30 1_555 1_555
H34 C36 1_555 1_555
H35 C36 1_555 1_555
H36 C36 1_555 1_555
H75 C96 1_555 1_555
H76 C96 1_555 1_555
H77 C96 1_555 1_555
H87 C100 1_555 1_555
N20 C100 1_555 1_555
H88 C100 1_555 1_555
N24 N20 1_555 1_555
C105 N24 1_555 1_555
C111 C105 1_555 1_555
H100 C111 1_555 1_555
H101 C111 1_555 1_555
H102 C111 1_555 1_555

#END
