
###############################################################################
#
# This file contains modified crystal structure data generated from the
# MOF subset of the Cambridge Structural Database (CSD) v543 
# hosted by the Cambridge Crystallographic Data Centre (CCDC).
#
# This work is licensed under the Creative Commons
# Attribution-NonCommercial-ShareAlike 4.0 International License.
# To view a copy of this license, visit
# http://creativecommons.org/licenses/by-nc-sa/4.0/
# or send a letter to
# Creative Commons, PO Box 1866, Mountain View, CA 94042, USA.
#
# CIF created using the CSD Python API on 29 September 2022
# The structure has been converted into the P1 space group
# The structure has a 3D framework
# The original CSD entry SAHPOK is in the triclinic crystal system
# The framework has been calculated to contain at least 10.0% void space
# The void calculation uses a probe of radius 1.32A, grid spacing 0.4
#
###############################################################################

data_SAHPOK
_chemical_formula_moiety         '(C144 H96 I24 N48 Zn12)n'
_symmetry_cell_setting           triclinic
_symmetry_space_group_name_H-M   'P 1'
_symmetry_Int_Tables_number      1
_space_group_name_Hall           'P 1'
loop_
_symmetry_equiv_pos_site_id
_symmetry_equiv_pos_as_xyz
1 x,y,z
_cell_length_a                   14.7981(11)
_cell_length_b                   18.8869(19)
_cell_length_c                   31.528(3)
_cell_angle_alpha                101.407(6)
_cell_angle_beta                 91.114(5)
_cell_angle_gamma                111.589(3)
_cell_volume                     7990.54
loop_
_atom_site_label
_atom_site_type_symbol
_atom_site_fract_x
_atom_site_fract_y
_atom_site_fract_z
I1 I 0.1300(5) 0.4119(3) 0.9020(3)
I2 I 0.0741(5) 0.1937(5) 0.95453(17)
Zn1 Zn 0.02496(9) 0.29752(12) 0.92077(5)
H13 H 0.0091 0.1824 0.8358
I4 I 0.36351(4) 0.70723(4) 0.09536(3)
I5 I 0.49962(4) 0.02942(4) 0.21371(2)
I6 I 0.52479(4) 0.24373(5) 0.30909(2)
Zn2 Zn 0.52461(8) 0.73984(7) 0.06129(4)
Zn3 Zn 0.46144(8) 0.15138(7) 0.23519(4)
C3 C 0.7967(6) 0.3581(5) 0.0146(3)
C4 C 0.8116(7) 0.2903(6) 0.0120(4)
H3 H 0.7759 0.2535 0.0282
N2 N 0.5107(5) 0.2139(5) 0.1880(3)
C6 C 0.5719(10) 0.1997(8) 0.1623(5)
H5 H 0.5904 0.1573 0.1644
C7 C 0.6118(10) 0.2426(8) 0.1319(5)
H6 H 0.6558 0.2292 0.1135
C8 C 0.5876(6) 0.3043(5) 0.1285(3)
C9 C 0.5194(10) 0.3161(7) 0.1531(4)
H7 H 0.4961 0.3557 0.1503
C10 C 0.4833(10) 0.2701(8) 0.1827(4)
H8 H 0.4357 0.2799 0.2001
N3 N 0.5589(5) 0.6425(4) 0.0584(3)
C11 C 0.6124(7) 0.6208(6) 0.0295(4)
H9 H 0.6359 0.6510 0.0084
C12 C 0.6356(7) 0.5569(6) 0.0285(3)
H10 H 0.6729 0.5427 0.0067
C13 C 0.6048(6) 0.5135(5) 0.0592(3)
C14 C 0.5463(9) 0.5329(7) 0.0875(4)
H11 H 0.5180 0.5014 0.1075
C15 C 0.5285(10) 0.5989(8) 0.0868(4)
H12 H 0.4914 0.6142 0.1084
C16 C 0.7234(5) 0.3753(5) 0.0417(3)
N4 N 0.6946(5) 0.3345(4) 0.0719(2)
C17 C 0.6285(6) 0.3513(5) 0.0957(3)
N5 N 0.5980(5) 0.4087(4) 0.0932(2)
C18 C 0.6312(6) 0.4454(5) 0.0614(3)
N6 N 0.6922(5) 0.4296(4) 0.0337(2)
N26 N 0.6296(5) 0.8257(4) 0.1075(2)
N27 N 0.3125(5) 0.1256(4) 0.2272(2)
I3 I 0.55480(5) 0.78113(4) 0.98953(2)
I7 I 0.04643(4) 0.05150(4) 0.70845(2)
I8 I 0.22999(5) 0.26006(4) 0.80884(2)
I9 I 0.83730(5) 0.70560(5) 0.59910(3)
I10 I 0.73864(7) 0.78558(4) 0.48721(3)
Zn4 Zn 0.20016(8) 0.17416(7) 0.73308(4)
Zn5 Zn 0.72049(8) 0.74900(7) 0.55997(4)
N1 N 0.9322(6) 0.3258(6) 0.9632(3)
C1 C 0.9191(6) 0.3936(7) 0.9664(3)
H1 H 0.9577 0.4302 0.9508
C2 C 0.8521(6) 0.4122(6) 0.9915(3)
H2 H 0.8439 0.4602 0.9930
C5 C 0.8795(8) 0.2757(8) 0.9856(4)
H4 H 0.8884 0.2279 0.9835
N7 N 0.9261(5) 0.2309(5) 0.8670(2)
C19 C 0.9480(6) 0.1880(5) 0.8338(3)
C20 C 0.8853(6) 0.1507(5) 0.7963(3)
H14 H 0.9030 0.1192 0.7733
C21 C 0.7975(6) 0.1589(5) 0.7921(3)
C22 C 0.7745(8) 0.2027(8) 0.8269(4)
H15 H 0.7135 0.2086 0.8261
C23 C 0.8407(8) 0.2380(9) 0.8631(4)
H16 H 0.8244 0.2693 0.8867
N9 N 0.3241(5) 0.1482(4) 0.7233(2)
C29 C 0.3248(6) 0.0835(6) 0.6977(3)
H21 H 0.2651 0.0471 0.6818
C30 C 0.4073(6) 0.0664(5) 0.6928(3)
H22 H 0.4045 0.0201 0.6734
C31 C 0.4938(6) 0.1171(5) 0.7164(3)
C32 C 0.4948(7) 0.1864(6) 0.7430(4)
H23 H 0.5535 0.2237 0.7592
C33 C 0.4088(7) 0.1992(6) 0.7450(4)
H24 H 0.4099 0.2466 0.7627
C34 C 0.7256(5) 0.1189(5) 0.7532(3)
N10 N 0.7374(5) 0.0605(4) 0.7259(2)
C35 C 0.6675(5) 0.0250(5) 0.6924(3)
N11 N 0.5887(5) 0.0418(4) 0.6862(2)
C36 C 0.5849(6) 0.1014(5) 0.7166(3)
N12 N 0.6520(5) 0.1427(4) 0.7495(2)
N13 N 0.2088(5) 0.2403(5) 0.6870(2)
C37 C 0.2751(8) 0.3118(7) 0.6927(4)
H25 H 0.3186 0.3318 0.7186
C38 C 0.2855(8) 0.3593(7) 0.6637(4)
H26 H 0.3339 0.4108 0.6696
C39 C 0.2223(6) 0.3292(5) 0.6254(3)
C40 C 0.1519(7) 0.2550(5) 0.6194(3)
H27 H 0.1062 0.2332 0.5942
C41 C 0.1497(7) 0.2136(6) 0.6505(3)
H28 H 0.1022 0.1619 0.6457
N14 N 0.5871(5) 0.6602(4) 0.5575(2)
C42 C 0.5601(8) 0.6376(7) 0.5937(4)
H29 H 0.6008 0.6656 0.6200
C43 C 0.4757(7) 0.5752(6) 0.5953(3)
H30 H 0.4605 0.5593 0.6220
C44 C 0.4125(5) 0.5355(5) 0.5574(3)
C45 C 0.4376(6) 0.5634(5) 0.5205(3)
H31 H 0.3945 0.5405 0.4945
C46 C 0.5253(6) 0.6244(5) 0.5210(3)
H32 H 0.5425 0.6416 0.4949
C49 C 0.0751(6) 0.3867(5) 0.5061(3)
C50 C 0.0745(6) 0.4350(5) 0.4790(3)
H35 H 0.1319 0.4791 0.4783
C52 C 0.2309(6) 0.3757(5) 0.5921(3)
N16 N 0.3172(5) 0.4321(4) 0.5910(2)
C53 C 0.3205(6) 0.4706(5) 0.5593(3)
N17 N 0.2467(5) 0.4560(4) 0.5296(2)
C54 C 0.1631(5) 0.4004(4) 0.5349(3)
N18 N 0.1506(5) 0.3571(4) 0.5648(2)
C65 C 0.2494(6) 0.0640(5) 0.1991(3)
H45 H 0.2738 0.0299 0.1811
C66 C 0.1496(6) 0.0472(5) 0.1949(3)
H46 H 0.1071 0.0030 0.1742
C67 C 0.1125(5) 0.0962(5) 0.2216(3)
C68 C 0.1787(6) 0.1602(6) 0.2501(3)
H47 H 0.1566 0.1955 0.2686
C69 C 0.2771(6) 0.1734(6) 0.2520(3)
H48 H 0.3215 0.2183 0.2716
C72 C 0.0083(5) 0.0810(5) 0.2214(3)
N25 N 0.7046(5) 0.8392(4) 0.6035(2)
C24 C 0.6271(6) 0.8579(6) 0.5981(3)
H17 H 0.5798 0.8282 0.5740
C25 C 0.6122(6) 0.9180(6) 0.6257(3)
H18 H 0.5564 0.9299 0.6205
C26 C 0.6797(5) 0.9605(5) 0.6608(3)
C27 C 0.7599(6) 0.9409(5) 0.6668(3)
H19 H 0.8076 0.9692 0.6909
C28 C 0.7697(7) 0.8809(6) 0.6379(4)
H20 H 0.8251 0.8682 0.6424
C60 C 0.6074(6) 0.8628(5) 0.1432(3)
H41 H 0.5408 0.8477 0.1487
C61 C 0.6772(6) 0.9226(5) 0.1731(3)
H42 H 0.6587 0.9479 0.1986
C62 C 0.7747(5) 0.9454(5) 0.1653(3)
C63 C 0.7971(6) 0.9061(5) 0.1279(3)
H43 H 0.8631 0.9190 0.1216
C64 C 0.7234(6) 0.8485(5) 0.1000(3)
H44 H 0.7397 0.8232 0.0739
I11 I 0.81398(5) 0.43787(4) 0.36918(2)
I12 I 0.64116(4) 0.25867(4) 0.44580(2)
Zn6 Zn 0.78639(8) 0.32713(7) 0.40818(4)
N15 N 0.9084(5) 0.3578(4) 0.4519(2)
C47 C 0.9081(7) 0.3113(7) 0.4788(4)
H33 H 0.8494 0.2683 0.4794
C48 C 0.9891(6) 0.3228(6) 0.5058(4)
H34 H 0.9863 0.2877 0.5240
C51 C 0.9910(6) 0.4199(5) 0.4529(3)
H36 H 0.9919 0.4548 0.4348
N19 N 0.8136(5) 0.2448(4) 0.3621(2)
C55 C 0.7436(6) 0.1861(5) 0.3343(3)
H37 H 0.6771 0.1759 0.3388
C56 C 0.7650(6) 0.1405(5) 0.2996(3)
H38 H 0.7134 0.1003 0.2803
C57 C 0.8605(6) 0.1526(5) 0.2926(3)
C58 C 0.9316(6) 0.2114(7) 0.3222(4)
H39 H 0.9987 0.2215 0.3193
C59 C 0.9049(7) 0.2551(7) 0.3558(4)
H40 H 0.9552 0.2952 0.3758
C70 C 0.8889(5) 0.1064(4) 0.2562(3)
N22 N 0.8184(4) 0.0478(4) 0.2290(2)
C71 C 0.8513(5) 0.0099(5) 0.1971(3)
N23 N 0.9447(4) 0.0229(4) 0.1910(2)
N24 N 0.9844(5) 0.1263(4) 0.2534(2)
N20 N 0.3704(5) 0.1743(4) 0.8925(2)
C60_2 C 0.3926(6) 0.1372(5) 0.8568(3)
H41_2 H 0.4592 0.1523 0.8513
C61_2 C 0.3228(6) 0.0774(5) 0.8269(3)
H42_2 H 0.3413 0.0521 0.8014
C62_2 C 0.2253(5) 0.0546(5) 0.8347(3)
C63_2 C 0.2029(6) 0.0939(5) 0.8721(3)
H43_2 H 0.1369 0.0810 0.8784
C64_2 C 0.2766(6) 0.1515(5) 0.9000(3)
H44_2 H 0.2603 0.1768 0.9261
Zn7 Zn 0.47539(8) 0.26016(7) 0.93871(4)
N8 N 0.2954(5) 0.1608(4) 0.3965(2)
C24_2 C 0.3729(6) 0.1421(6) 0.4019(3)
H17_2 H 0.4202 0.1718 0.4260
C25_2 C 0.3878(6) 0.0820(6) 0.3743(3)
H18_2 H 0.4436 0.0701 0.3795
C26_2 C 0.3203(5) 0.0395(5) 0.3392(3)
C27_2 C 0.2401(6) 0.0591(5) 0.3332(3)
H19_2 H 0.1924 0.0308 0.3091
C28_2 C 0.2303(7) 0.1191(6) 0.3621(4)
H20_2 H 0.1749 0.1318 0.3576
Zn9 Zn 0.27951(8) 0.25100(7) 0.44003(4)
I3_2 I 0.44520(5) 0.21887(4) 0.01047(2)
I7_2 I 0.95357(4) 0.94850(4) 0.29155(2)
I8_2 I 0.77001(5) 0.73994(4) 0.19116(2)
I9_2 I 0.16270(5) 0.29440(5) 0.40090(3)
I10_2 I 0.26136(7) 0.21442(4) 0.51279(3)
Zn4_2 Zn 0.79984(8) 0.82584(7) 0.26692(4)
N1_2 N 0.0678(6) 0.6742(6) 0.0368(3)
C1_2 C 0.0809(6) 0.6064(7) 0.0336(3)
H1_2 H 0.0423 0.5698 0.0492
C2_2 C 0.1479(6) 0.5878(6) 0.0085(3)
H2_2 H 0.1561 0.5398 0.0070
C5_2 C 0.1205(8) 0.7243(8) 0.0144(4)
H4_2 H 0.1116 0.7721 0.0165
N7_2 N 0.0739(5) 0.7691(5) 0.1330(2)
C19_2 C 0.0520(6) 0.8120(5) 0.1662(3)
C20_2 C 0.1147(6) 0.8493(5) 0.2037(3)
H14_2 H 0.0970 0.8808 0.2267
C21_2 C 0.2025(6) 0.8411(5) 0.2079(3)
C22_2 C 0.2255(8) 0.7973(8) 0.1731(4)
H15_2 H 0.2865 0.7914 0.1739
C23_2 C 0.1593(8) 0.7620(9) 0.1369(4)
H16_2 H 0.1756 0.7307 0.1133
N9_2 N 0.6759(5) 0.8518(4) 0.2767(2)
C29_2 C 0.6752(6) 0.9165(6) 0.3023(3)
H21_2 H 0.7349 0.9529 0.3182
C30_2 C 0.5927(6) 0.9336(5) 0.3072(3)
H22_2 H 0.5955 0.9799 0.3266
C31_2 C 0.5062(6) 0.8829(5) 0.2836(3)
C32_2 C 0.5052(7) 0.8136(6) 0.2570(4)
H23_2 H 0.4465 0.7763 0.2408
C33_2 C 0.5912(7) 0.8008(6) 0.2550(4)
H24_2 H 0.5901 0.7534 0.2373
C34_2 C 0.2744(5) 0.8811(5) 0.2468(3)
N10_2 N 0.2626(5) 0.9395(4) 0.2741(2)
C35_2 C 0.3325(5) 0.9750(5) 0.3076(3)
N11_2 N 0.4113(5) 0.9582(4) 0.3138(2)
C36_2 C 0.4151(6) 0.8986(5) 0.2834(3)
N12_2 N 0.3480(5) 0.8573(4) 0.2505(2)
N13_2 N 0.7912(5) 0.7597(5) 0.3130(2)
C37_2 C 0.7249(8) 0.6882(7) 0.3073(4)
H25_2 H 0.6814 0.6682 0.2814
C38_2 C 0.7145(8) 0.6407(7) 0.3363(4)
H26_2 H 0.6661 0.5892 0.3304
C39_2 C 0.7777(6) 0.6708(5) 0.3746(3)
C40_2 C 0.8481(7) 0.7450(5) 0.3806(3)
H27_2 H 0.8938 0.7668 0.4058
C41_2 C 0.8503(7) 0.7864(6) 0.3495(3)
H28_2 H 0.8978 0.8381 0.3543
N14_2 N 0.4129(5) 0.3398(4) 0.4425(2)
C42_2 C 0.4399(8) 0.3624(7) 0.4063(4)
H29_2 H 0.3992 0.3344 0.3800
C43_2 C 0.5243(7) 0.4248(6) 0.4047(3)
H30_2 H 0.5395 0.4407 0.3780
C44_2 C 0.5875(5) 0.4645(5) 0.4426(3)
C45_2 C 0.5624(6) 0.4366(5) 0.4795(3)
H31_2 H 0.6055 0.4595 0.5055
C46_2 C 0.4747(6) 0.3756(5) 0.4790(3)
H32_2 H 0.4575 0.3584 0.5051
C49_2 C 0.9249(6) 0.6133(5) 0.4939(3)
C50_2 C 0.9255(6) 0.5650(5) 0.5210(3)
H35_2 H 0.8681 0.5209 0.5217
C52_2 C 0.7691(6) 0.6243(5) 0.4079(3)
N16_2 N 0.6828(5) 0.5679(4) 0.4090(2)
C53_2 C 0.6795(6) 0.5294(5) 0.4407(3)
N17_2 N 0.7533(5) 0.5440(4) 0.4704(2)
C54_2 C 0.8369(5) 0.5996(4) 0.4651(3)
N18_2 N 0.8494(5) 0.6429(4) 0.4352(2)
N21 N 0.6875(5) 0.8744(4) 0.7728(2)
C65_2 C 0.7506(6) 0.9360(5) 0.8009(3)
H45_2 H 0.7262 0.9701 0.8189
C66_2 C 0.8504(6) 0.9528(5) 0.8051(3)
H46_2 H 0.8929 0.9970 0.8258
C67_2 C 0.8875(5) 0.9038(5) 0.7784(3)
C68_2 C 0.8213(6) 0.8398(6) 0.7499(3)
H47_2 H 0.8434 0.8045 0.7314
C69_2 C 0.7229(6) 0.8266(6) 0.7480(3)
H48_2 H 0.6785 0.7817 0.7284
C72_2 C 0.9917(5) 0.9190(5) 0.7786(3)
Zn8 Zn 0.53856(8) 0.84862(7) 0.76481(4)
I4_2 I 0.63649(4) 0.29277(4) 0.90464(3)
I5_2 I 0.50038(4) 0.97058(4) 0.78629(2)
I6_2 I 0.47521(4) 0.75627(5) 0.69091(2)
C3_2 C 0.2033(6) 0.6419(5) 0.9854(3)
C4_2 C 0.1884(7) 0.7097(6) 0.9880(4)
H3_2 H 0.2241 0.7465 0.9718
N2_2 N 0.4893(5) 0.7861(5) 0.8120(3)
C6_2 C 0.4281(10) 0.8003(8) 0.8377(5)
H5_2 H 0.4096 0.8427 0.8356
C7_2 C 0.3882(10) 0.7574(8) 0.8681(5)
H6_2 H 0.3442 0.7708 0.8865
C8_2 C 0.4124(6) 0.6957(5) 0.8715(3)
C9_2 C 0.4806(10) 0.6839(7) 0.8469(4)
H7_2 H 0.5039 0.6443 0.8497
C10_2 C 0.5167(10) 0.7299(8) 0.8173(4)
H8_2 H 0.5643 0.7201 0.7999
N3_2 N 0.4411(5) 0.3575(4) 0.9416(3)
C11_2 C 0.3876(7) 0.3792(6) 0.9705(4)
H9_2 H 0.3641 0.3490 0.9916
C12_2 C 0.3644(7) 0.4431(6) 0.9715(3)
H10_2 H 0.3271 0.4573 0.9933
C13_2 C 0.3952(6) 0.4865(5) 0.9408(3)
C14_2 C 0.4537(9) 0.4671(7) 0.9125(4)
H11_2 H 0.4820 0.4986 0.8925
C15_2 C 0.4715(10) 0.4011(8) 0.9132(4)
H12_2 H 0.5086 0.3858 0.8916
C16_2 C 0.2766(5) 0.6247(5) 0.9583(3)
N4_2 N 0.3054(5) 0.6655(4) 0.9281(2)
C17_2 C 0.3715(6) 0.6487(5) 0.9043(3)
N5_2 N 0.4020(5) 0.5913(4) 0.9068(2)
C18_2 C 0.3688(6) 0.5546(5) 0.9386(3)
N6_2 N 0.3078(5) 0.5704(4) 0.9663(2)
I11_2 I 0.18602(5) 0.56213(4) 0.63082(2)
I12_2 I 0.35884(4) 0.74133(4) 0.55420(2)
Zn6_2 Zn 0.21361(8) 0.67287(7) 0.59182(4)
N15_2 N 0.0916(5) 0.6422(4) 0.5481(2)
C47_2 C 0.0919(7) 0.6887(7) 0.5212(4)
H33_2 H 0.1506 0.7317 0.5206
C48_2 C 0.0109(6) 0.6772(6) 0.4942(4)
H34_2 H 0.0137 0.7123 0.4760
C51_2 C 0.0090(6) 0.5801(5) 0.5471(3)
H36_2 H 0.0081 0.5452 0.5652
N19_2 N 0.1864(5) 0.7552(4) 0.6379(2)
C55_2 C 0.2564(6) 0.8139(5) 0.6657(3)
H37_2 H 0.3229 0.8241 0.6612
C56_2 C 0.2350(6) 0.8595(5) 0.7004(3)
H38_2 H 0.2866 0.8997 0.7197
C57_2 C 0.1395(6) 0.8474(5) 0.7074(3)
C58_2 C 0.0684(6) 0.7886(7) 0.6778(4)
H39_2 H 0.0013 0.7785 0.6807
C59_2 C 0.0951(7) 0.7449(7) 0.6442(4)
H40_2 H 0.0448 0.7048 0.6242
C70_2 C 0.1111(5) 0.8936(4) 0.7438(3)
N22_2 N 0.1816(4) 0.9522(4) 0.7710(2)
C71_2 C 0.1487(5) 0.9901(5) 0.8029(3)
N23_2 N 0.0553(4) 0.9771(4) 0.8090(2)
N24_2 N 0.0156(5) 0.8737(4) 0.7466(2)
I1_2 I 0.8700(5) 0.5881(3) 0.0980(3)
I2_2 I 0.9259(5) 0.8063(5) 0.04547(17)
Zn1_2 Zn 0.97504(9) 0.70248(12) 0.07923(5)
H13_2 H 0.9909 0.8176 0.1642
loop_
_geom_bond_atom_site_label_1
_geom_bond_atom_site_label_2
_geom_bond_site_symmetry_1
_geom_bond_site_symmetry_2
I1 Zn1 1_555 1_555
I2 Zn1 1_555 1_555
I4 Zn2 1_555 1_555
I5 Zn3 1_555 1_555
I6 Zn3 1_555 1_555
Zn2 N3 1_555 1_555
Zn3 N2 1_555 1_555
C4 C3 1_555 1_555
H3 C4 1_555 1_555
N2 C6 1_555 1_555
C6 H5 1_555 1_555
C7 C6 1_555 1_555
H6 C7 1_555 1_555
C8 C7 1_555 1_555
C9 C8 1_555 1_555
H7 C9 1_555 1_555
C10 N2 1_555 1_555
H8 C10 1_555 1_555
N3 C11 1_555 1_555
C11 H9 1_555 1_555
C12 C11 1_555 1_555
H10 C12 1_555 1_555
C13 C12 1_555 1_555
C14 C13 1_555 1_555
H11 C14 1_555 1_555
C15 N3 1_555 1_555
H12 C15 1_555 1_555
C16 C3 1_555 1_555
N4 C16 1_555 1_555
C17 C8 1_555 1_555
N5 C17 1_555 1_555
C18 C13 1_555 1_555
N6 C16 1_555 1_555
N26 Zn2 1_555 1_555
N27 Zn3 1_555 1_555
C9 C10 1_555 1_555
C14 C15 1_555 1_555
N4 C17 1_555 1_555
N5 C18 1_555 1_555
C18 N6 1_555 1_555
I7 Zn4 1_555 1_555
I8 Zn4 1_555 1_555
I9 Zn5 1_555 1_555
I10 Zn5 1_555 1_555
Zn4 N9 1_555 1_555
Zn5 N14 1_555 1_555
N1 C1 1_555 1_555
C1 H1 1_555 1_555
C2 C1 1_555 1_555
H2 C2 1_555 1_555
C5 N1 1_555 1_555
H4 C5 1_555 1_555
C19 N7 1_555 1_555
C20 C19 1_555 1_555
H14 C20 1_555 1_555
C21 C20 1_555 1_555
C22 C21 1_555 1_555
H15 C22 1_555 1_555
C23 N7 1_555 1_555
H16 C23 1_555 1_555
N9 C29 1_555 1_555
C29 H21 1_555 1_555
C30 C29 1_555 1_555
H22 C30 1_555 1_555
C31 C30 1_555 1_555
C32 C31 1_555 1_555
H23 C32 1_555 1_555
C33 N9 1_555 1_555
H24 C33 1_555 1_555
C34 C21 1_555 1_555
N10 C34 1_555 1_555
N11 C35 1_555 1_555
C36 C31 1_555 1_555
N12 C34 1_555 1_555
N13 Zn4 1_555 1_555
C37 N13 1_555 1_555
H25 C37 1_555 1_555
C38 C37 1_555 1_555
H26 C38 1_555 1_555
C39 C38 1_555 1_555
C40 C39 1_555 1_555
H27 C40 1_555 1_555
C41 N13 1_555 1_555
H28 C41 1_555 1_555
N14 C42 1_555 1_555
C42 H29 1_555 1_555
C43 C42 1_555 1_555
H30 C43 1_555 1_555
C44 C43 1_555 1_555
C45 C44 1_555 1_555
H31 C45 1_555 1_555
C46 N14 1_555 1_555
H32 C46 1_555 1_555
C50 C49 1_555 1_555
H35 C50 1_555 1_555
C52 C39 1_555 1_555
N16 C52 1_555 1_555
C53 C44 1_555 1_555
N17 C53 1_555 1_555
C54 C49 1_555 1_555
N18 C52 1_555 1_555
N27 C65 1_555 1_555
C65 H45 1_555 1_555
C66 C65 1_555 1_555
H46 C66 1_555 1_555
C67 C66 1_555 1_555
C68 C67 1_555 1_555
H47 C68 1_555 1_555
C69 N27 1_555 1_555
H48 C69 1_555 1_555
C72 C67 1_555 1_555
N25 Zn5 1_555 1_555
C22 C23 1_555 1_555
C32 C33 1_555 1_555
N10 C35 1_555 1_555
N11 C36 1_555 1_555
C36 N12 1_555 1_555
C40 C41 1_555 1_555
C45 C46 1_555 1_555
N16 C53 1_555 1_555
N17 C54 1_555 1_555
C54 N18 1_555 1_555
C68 C69 1_555 1_555
N25 C24 1_555 1_555
C24 H17 1_555 1_555
C25 C24 1_555 1_555
H18 C25 1_555 1_555
C26 C25 1_555 1_555
C27 C26 1_555 1_555
H19 C27 1_555 1_555
C28 N25 1_555 1_555
H20 C28 1_555 1_555
C27 C28 1_555 1_555
N26 C60 1_555 1_555
C60 H41 1_555 1_555
C61 C60 1_555 1_555
H42 C61 1_555 1_555
C62 C61 1_555 1_555
C63 C62 1_555 1_555
H43 C63 1_555 1_555
C64 N26 1_555 1_555
H44 C64 1_555 1_555
C63 C64 1_555 1_555
I11 Zn6 1_555 1_555
I12 Zn6 1_555 1_555
Zn6 N15 1_555 1_555
N15 C47 1_555 1_555
C47 H33 1_555 1_555
C48 C47 1_555 1_555
H34 C48 1_555 1_555
C51 N15 1_555 1_555
H36 C51 1_555 1_555
N19 Zn6 1_555 1_555
C55 N19 1_555 1_555
H37 C55 1_555 1_555
C56 C55 1_555 1_555
H38 C56 1_555 1_555
C57 C56 1_555 1_555
C58 C57 1_555 1_555
H39 C58 1_555 1_555
C59 N19 1_555 1_555
H40 C59 1_555 1_555
C70 C57 1_555 1_555
N22 C70 1_555 1_555
N23 C71 1_555 1_555
N24 C70 1_555 1_555
C58 C59 1_555 1_555
N22 C71 1_555 1_555
N20 C60_2 1_555 1_555
C60_2 H41_2 1_555 1_555
C61_2 C60_2 1_555 1_555
H42_2 C61_2 1_555 1_555
C62_2 C61_2 1_555 1_555
C63_2 C62_2 1_555 1_555
H43_2 C63_2 1_555 1_555
C64_2 N20 1_555 1_555
H44_2 C64_2 1_555 1_555
Zn7 N20 1_555 1_555
C63_2 C64_2 1_555 1_555
N8 C24_2 1_555 1_555
C24_2 H17_2 1_555 1_555
C25_2 C24_2 1_555 1_555
H18_2 C25_2 1_555 1_555
C26_2 C25_2 1_555 1_555
C27_2 C26_2 1_555 1_555
H19_2 C27_2 1_555 1_555
C28_2 N8 1_555 1_555
H20_2 C28_2 1_555 1_555
Zn9 N8 1_555 1_555
C27_2 C28_2 1_555 1_555
I7_2 Zn4_2 1_555 1_555
I8_2 Zn4_2 1_555 1_555
I9_2 Zn9 1_555 1_555
I10_2 Zn9 1_555 1_555
Zn4_2 N9_2 1_555 1_555
Zn9 N14_2 1_555 1_555
N1_2 C1_2 1_555 1_555
C1_2 H1_2 1_555 1_555
C2_2 C1_2 1_555 1_555
H2_2 C2_2 1_555 1_555
C5_2 N1_2 1_555 1_555
H4_2 C5_2 1_555 1_555
C19_2 N7_2 1_555 1_555
C20_2 C19_2 1_555 1_555
H14_2 C20_2 1_555 1_555
C21_2 C20_2 1_555 1_555
C22_2 C21_2 1_555 1_555
H15_2 C22_2 1_555 1_555
C23_2 N7_2 1_555 1_555
H16_2 C23_2 1_555 1_555
N9_2 C29_2 1_555 1_555
C29_2 H21_2 1_555 1_555
C30_2 C29_2 1_555 1_555
H22_2 C30_2 1_555 1_555
C31_2 C30_2 1_555 1_555
C32_2 C31_2 1_555 1_555
H23_2 C32_2 1_555 1_555
C33_2 N9_2 1_555 1_555
H24_2 C33_2 1_555 1_555
C34_2 C21_2 1_555 1_555
N10_2 C34_2 1_555 1_555
N11_2 C35_2 1_555 1_555
C36_2 C31_2 1_555 1_555
N12_2 C34_2 1_555 1_555
N13_2 Zn4_2 1_555 1_555
C37_2 N13_2 1_555 1_555
H25_2 C37_2 1_555 1_555
C38_2 C37_2 1_555 1_555
H26_2 C38_2 1_555 1_555
C39_2 C38_2 1_555 1_555
C40_2 C39_2 1_555 1_555
H27_2 C40_2 1_555 1_555
C41_2 N13_2 1_555 1_555
H28_2 C41_2 1_555 1_555
N14_2 C42_2 1_555 1_555
C42_2 H29_2 1_555 1_555
C43_2 C42_2 1_555 1_555
H30_2 C43_2 1_555 1_555
C44_2 C43_2 1_555 1_555
C45_2 C44_2 1_555 1_555
H31_2 C45_2 1_555 1_555
C46_2 N14_2 1_555 1_555
H32_2 C46_2 1_555 1_555
C50_2 C49_2 1_555 1_555
H35_2 C50_2 1_555 1_555
C52_2 C39_2 1_555 1_555
N16_2 C52_2 1_555 1_555
C53_2 C44_2 1_555 1_555
N17_2 C53_2 1_555 1_555
C54_2 C49_2 1_555 1_555
N18_2 C52_2 1_555 1_555
N21 C65_2 1_555 1_555
C65_2 H45_2 1_555 1_555
C66_2 C65_2 1_555 1_555
H46_2 C66_2 1_555 1_555
C67_2 C66_2 1_555 1_555
C68_2 C67_2 1_555 1_555
H47_2 C68_2 1_555 1_555
C69_2 N21 1_555 1_555
H48_2 C69_2 1_555 1_555
C72_2 C67_2 1_555 1_555
Zn8 N21 1_555 1_555
C22_2 C23_2 1_555 1_555
C32_2 C33_2 1_555 1_555
N10_2 C35_2 1_555 1_555
N11_2 C36_2 1_555 1_555
C36_2 N12_2 1_555 1_555
C40_2 C41_2 1_555 1_555
C45_2 C46_2 1_555 1_555
N16_2 C53_2 1_555 1_555
N17_2 C54_2 1_555 1_555
C54_2 N18_2 1_555 1_555
C68_2 C69_2 1_555 1_555
I4_2 Zn7 1_555 1_555
I5_2 Zn8 1_555 1_555
I6_2 Zn8 1_555 1_555
Zn7 N3_2 1_555 1_555
Zn8 N2_2 1_555 1_555
C4_2 C3_2 1_555 1_555
H3_2 C4_2 1_555 1_555
N2_2 C6_2 1_555 1_555
C6_2 H5_2 1_555 1_555
C7_2 C6_2 1_555 1_555
H6_2 C7_2 1_555 1_555
C8_2 C7_2 1_555 1_555
C9_2 C8_2 1_555 1_555
H7_2 C9_2 1_555 1_555
C10_2 N2_2 1_555 1_555
H8_2 C10_2 1_555 1_555
N3_2 C11_2 1_555 1_555
C11_2 H9_2 1_555 1_555
C12_2 C11_2 1_555 1_555
H10_2 C12_2 1_555 1_555
C13_2 C12_2 1_555 1_555
C14_2 C13_2 1_555 1_555
H11_2 C14_2 1_555 1_555
C15_2 N3_2 1_555 1_555
H12_2 C15_2 1_555 1_555
C16_2 C3_2 1_555 1_555
N4_2 C16_2 1_555 1_555
C17_2 C8_2 1_555 1_555
N5_2 C17_2 1_555 1_555
C18_2 C13_2 1_555 1_555
N6_2 C16_2 1_555 1_555
C9_2 C10_2 1_555 1_555
C14_2 C15_2 1_555 1_555
N4_2 C17_2 1_555 1_555
N5_2 C18_2 1_555 1_555
C18_2 N6_2 1_555 1_555
I11_2 Zn6_2 1_555 1_555
I12_2 Zn6_2 1_555 1_555
Zn6_2 N15_2 1_555 1_555
N15_2 C47_2 1_555 1_555
C47_2 H33_2 1_555 1_555
C48_2 C47_2 1_555 1_555
H34_2 C48_2 1_555 1_555
C51_2 N15_2 1_555 1_555
H36_2 C51_2 1_555 1_555
N19_2 Zn6_2 1_555 1_555
C55_2 N19_2 1_555 1_555
H37_2 C55_2 1_555 1_555
C56_2 C55_2 1_555 1_555
H38_2 C56_2 1_555 1_555
C57_2 C56_2 1_555 1_555
C58_2 C57_2 1_555 1_555
H39_2 C58_2 1_555 1_555
C59_2 N19_2 1_555 1_555
H40_2 C59_2 1_555 1_555
C70_2 C57_2 1_555 1_555
N22_2 C70_2 1_555 1_555
N23_2 C71_2 1_555 1_555
N24_2 C70_2 1_555 1_555
C58_2 C59_2 1_555 1_555
N22_2 C71_2 1_555 1_555
I1_2 Zn1_2 1_555 1_555
I2_2 Zn1_2 1_555 1_555

#END
