
###############################################################################
#
# This file contains modified crystal structure data generated from the
# MOF subset of the Cambridge Structural Database (CSD) v543 
# hosted by the Cambridge Crystallographic Data Centre (CCDC).
#
# This work is licensed under the Creative Commons
# Attribution-NonCommercial-ShareAlike 4.0 International License.
# To view a copy of this license, visit
# http://creativecommons.org/licenses/by-nc-sa/4.0/
# or send a letter to
# Creative Commons, PO Box 1866, Mountain View, CA 94042, USA.
#
# CIF created using the CSD Python API on 29 September 2022
# The structure has been converted into the P1 space group
# The structure has a 3D framework
# The original CSD entry SAHWUW is in the triclinic crystal system
# The framework has been calculated to contain at least 10.0% void space
# The void calculation uses a probe of radius 1.32A, grid spacing 0.4
#
###############################################################################

data_SAHWUW
_chemical_formula_moiety         '(C46 H22 O22 Zn5)n'
_symmetry_cell_setting           triclinic
_symmetry_space_group_name_H-M   'P 1'
_symmetry_Int_Tables_number      1
_space_group_name_Hall           'P 1'
loop_
_symmetry_equiv_pos_site_id
_symmetry_equiv_pos_as_xyz
1 x,y,z
_cell_length_a                   12.194(6)
_cell_length_b                   12.647(6)
_cell_length_c                   12.699(6)
_cell_angle_alpha                83.837(11)
_cell_angle_beta                 83.660(13)
_cell_angle_gamma                77.272(12)
_cell_volume                     1891.63
loop_
_atom_site_label
_atom_site_type_symbol
_atom_site_fract_x
_atom_site_fract_y
_atom_site_fract_z
Zn1 Zn 0.0000 0.5000 0.5000
H9 H 0.0043 0.1310 0.6796
O23 O 0.1078(2) 0.5061(2) 0.6130(2)
O28 O 0.0272(2) 0.65523(19) 0.4263(2)
O29 O 0.12821(18) 0.40588(16) 0.41117(17)
C41 C 0.1347(3) 0.0219(3) 0.4194(3)
C42 C 0.1428(3) 0.1394(3) 0.4207(3)
H19 H 0.0133 0.0495 0.3161
O18 O 0.2042(2) 0.15581(19) 0.4911(2)
O19 O 0.0932(2) 0.2106(2) 0.3579(2)
Zn8 Zn 0.21926(3) 0.30048(3) 0.51041(3)
H13 H 0.1126 0.3920 0.0331
C31 C 0.2158(4) 0.5339(4) 0.0993(3)
O14 O 0.1791(3) 0.4763(3) 0.1745(2)
O15 O 0.2709(5) 0.6019(5) 0.1117(3)
Zn10 Zn 0.21881(3) 0.49268(3) 0.31349(3)
Zn1_2 Zn 1.0000 0.5000 0.5000
Zn2 Zn 0.78074(3) 0.69952(3) 0.48959(3)
Zn3 Zn 0.78119(3) 0.50732(3) 0.68651(3)
C1 C 0.8392(3) 0.5637(3) 0.3243(3)
C2 C 0.8281(3) 0.5327(3) 0.2158(3)
C3 C 0.8693(4) 0.5915(3) 0.1276(3)
H1 H 0.9052 0.6470 0.1372
C4 C 0.8580(4) 0.5690(4) 0.0254(3)
C5 C 0.8028(3) 0.4885(3) 0.0116(3)
C6 C 0.7623(3) 0.4278(3) 0.0984(3)
H3 H 0.7254 0.3733 0.0879
C7 C 0.7764(3) 0.4478(3) 0.2026(3)
C9 C 0.6083(3) 0.3948(3) 0.3030(3)
H4 H 0.5654 0.4419 0.2543
C10 C 0.5543(3) 0.3362(3) 0.3846(3)
C11 C 0.6187(3) 0.2639(3) 0.4560(3)
H5 H 0.5835 0.2242 0.5102
C12 C 0.7356(3) 0.2508(2) 0.4466(3)
C13 C 0.7880(3) 0.3123(3) 0.3662(3)
H6 H 0.8659 0.3053 0.3615
C14 C 0.7246(3) 0.3839(3) 0.2931(3)
C15 C 0.4280(3) 0.3542(3) 0.3950(3)
C16 C 0.8048(3) 0.1682(3) 0.5188(3)
C17 C 0.7989(3) 0.0593(3) 0.5199(3)
H7 H 0.7489 0.0407 0.4784
C20 C 0.9421(3) 0.0046(3) 0.6423(3)
C21 C 0.9515(3) 0.1133(3) 0.6408(3)
C22 C 0.8818(3) 0.1949(3) 0.5815(3)
C23 C 0.8829(3) 0.3117(3) 0.5943(3)
O1 O 0.8922(2) 0.4939(2) 0.3870(2)
O2 O 0.7924(2) 0.6608(2) 0.3437(2)
O5 O 0.3776(2) 0.4220(2) 0.3269(2)
O6 O 0.3810(2) 0.3011(2) 0.4699(2)
O9 O 0.7897(2) 0.36760(19) 0.6313(2)
O10 O 0.9728(2) 0.34477(19) 0.5737(2)
O11 O 0.87179(18) 0.59412(16) 0.58883(17)
H10 H 0.9074 0.6230 0.6248
H11 H 0.8116 0.6108 0.6193
C24 C 0.1608(3) 0.4363(3) 0.6757(3)
C25 C 0.1719(3) 0.4673(3) 0.7842(3)
C26 C 0.1307(4) 0.4085(3) 0.8724(3)
H12 H 0.0948 0.3530 0.8628
C27 C 0.1420(4) 0.4310(4) 0.9746(3)
C28 C 0.1972(3) 0.5115(3) 0.9884(3)
C29 C 0.2377(3) 0.5722(3) 0.9016(3)
H14 H 0.2746 0.6267 0.9121
C30 C 0.2236(3) 0.5522(3) 0.7974(3)
C32 C 0.3917(3) 0.6052(3) 0.6970(3)
H15 H 0.4346 0.5581 0.7457
C33 C 0.4457(3) 0.6638(3) 0.6154(3)
C34 C 0.3813(3) 0.7361(3) 0.5440(3)
H16 H 0.4165 0.7758 0.4898
C35 C 0.2644(3) 0.7492(2) 0.5534(3)
C36 C 0.2120(3) 0.6877(3) 0.6338(3)
H17 H 0.1341 0.6947 0.6385
C37 C 0.2754(3) 0.6161(3) 0.7069(3)
C38 C 0.5720(3) 0.6458(3) 0.6050(3)
C39 C 0.1952(3) 0.8318(3) 0.4812(3)
C40 C 0.2011(3) 0.9407(3) 0.4801(3)
H18 H 0.2511 0.9593 0.5216
C43 C 0.0579(3) 0.9954(3) 0.3577(3)
C44 C 0.0485(3) 0.8867(3) 0.3592(3)
C45 C 0.1182(3) 0.8051(3) 0.4185(3)
C46 C 0.1171(3) 0.6883(3) 0.4057(3)
O13 O 0.2076(2) 0.3392(2) 0.6563(2)
O16 O 0.6224(2) 0.5780(2) 0.6731(2)
O17 O 0.6190(2) 0.6989(2) 0.5301(2)
O20 O 0.2103(2) 0.63240(19) 0.3687(2)
H21 H 0.0926 0.3770 0.3752
H22 H 0.1884 0.3892 0.3807
O24 O 0.8209(3) 0.5237(3) 0.8255(2)
O26 O 0.7958(2) 0.84419(19) 0.5089(2)
H2 H 0.8874 0.6080 0.9669
C8 C 0.7842(4) 0.4661(4) 0.9007(3)
O4 O 0.7291(5) 0.3981(5) 0.8883(3)
C18 C 0.8653(3) 0.9781(3) 0.5806(3)
C19 C 0.8572(3) 0.8606(3) 0.5793(3)
H8 H 0.9867 0.9505 0.6839
O8 O 0.9068(2) 0.7894(2) 0.6421(2)
H20 H 0.9957 0.8690 0.3204
loop_
_geom_bond_atom_site_label_1
_geom_bond_atom_site_label_2
_geom_bond_site_symmetry_1
_geom_bond_site_symmetry_2
O23 Zn1 1_555 1_555
O28 Zn1 1_555 1_555
O29 Zn1 1_555 1_555
C42 C41 1_555 1_555
O18 C42 1_555 1_555
O19 C42 1_555 1_555
Zn8 O18 1_555 1_555
O14 C31 1_555 1_555
O15 C31 1_555 1_555
Zn10 O14 1_555 1_555
Zn1_2 O1 1_555 1_555
Zn2 O2 1_555 1_555
Zn3 O9 1_555 1_555
C1 C2 1_555 1_555
C2 C3 1_555 1_555
C3 H1 1_555 1_555
C4 C3 1_555 1_555
C5 C4 1_555 1_555
C6 C5 1_555 1_555
H3 C6 1_555 1_555
C7 C2 1_555 1_555
C9 H4 1_555 1_555
C10 C9 1_555 1_555
C11 C10 1_555 1_555
H5 C11 1_555 1_555
C12 C11 1_555 1_555
C13 C12 1_555 1_555
H6 C13 1_555 1_555
C14 C7 1_555 1_555
C15 C10 1_555 1_555
C16 C12 1_555 1_555
C17 C16 1_555 1_555
H7 C17 1_555 1_555
C21 C20 1_555 1_555
C22 C16 1_555 1_555
C23 C22 1_555 1_555
O1 C1 1_555 1_555
O2 C1 1_555 1_555
O5 C15 1_555 1_555
O6 C15 1_555 1_555
O9 C23 1_555 1_555
O10 Zn1_2 1_555 1_555
O11 Zn1_2 1_555 1_555
H10 O11 1_555 1_555
H11 O11 1_555 1_555
Zn8 O6 1_555 1_555
Zn10 O5 1_555 1_555
C24 C25 1_555 1_555
C25 C26 1_555 1_555
C26 H12 1_555 1_555
C27 C26 1_555 1_555
C28 C27 1_555 1_555
C29 C28 1_555 1_555
H14 C29 1_555 1_555
C30 C25 1_555 1_555
C32 H15 1_555 1_555
C33 C32 1_555 1_555
C34 C33 1_555 1_555
H16 C34 1_555 1_555
C35 C34 1_555 1_555
C36 C35 1_555 1_555
H17 C36 1_555 1_555
C37 C30 1_555 1_555
C38 C33 1_555 1_555
C39 C35 1_555 1_555
C40 C39 1_555 1_555
H18 C40 1_555 1_555
C44 C43 1_555 1_555
C45 C39 1_555 1_555
C46 C45 1_555 1_555
O23 C24 1_555 1_555
O13 Zn8 1_555 1_555
O16 Zn3 1_555 1_555
O17 Zn2 1_555 1_555
O20 Zn10 1_555 1_555
O28 C46 1_555 1_555
O29 Zn8 1_555 1_555
H21 O29 1_555 1_555
H22 O29 1_555 1_555
O24 Zn3 1_555 1_555
O26 Zn2 1_555 1_555
Zn2 O11 1_555 1_555
Zn3 O11 1_555 1_555
C6 C7 1_555 1_555
C9 C14 1_555 1_555
C13 C14 1_555 1_555
C21 C22 1_555 1_555
C23 O10 1_555 1_555
Zn10 O29 1_555 1_555
C24 O13 1_555 1_555
C29 C30 1_555 1_555
C32 C37 1_555 1_555
C36 C37 1_555 1_555
C38 O16 1_555 1_555
C38 O17 1_555 1_555
C44 C45 1_555 1_555
C46 O20 1_555 1_555
O24 C8 1_555 1_555
O4 C8 1_555 1_555
C19 C18 1_555 1_555
O26 C19 1_555 1_555
O8 C19 1_555 1_555

#END
