
###############################################################################
#
# This file contains modified crystal structure data generated from the
# MOF subset of the Cambridge Structural Database (CSD) v543 
# hosted by the Cambridge Crystallographic Data Centre (CCDC).
#
# This work is licensed under the Creative Commons
# Attribution-NonCommercial-ShareAlike 4.0 International License.
# To view a copy of this license, visit
# http://creativecommons.org/licenses/by-nc-sa/4.0/
# or send a letter to
# Creative Commons, PO Box 1866, Mountain View, CA 94042, USA.
#
# CIF created using the CSD Python API on 29 September 2022
# The structure has been converted into the P1 space group
# The structure has a 3D framework
# The original CSD entry SAHWEG is in the monoclinic crystal system
# The framework has been calculated to contain at least 10.0% void space
# The void calculation uses a probe of radius 1.32A, grid spacing 0.4
#
###############################################################################

data_SAHWEG
_chemical_formula_moiety         '(C116 H68 N12 O20 Zn4)n'
_symmetry_cell_setting           triclinic
_symmetry_space_group_name_H-M   'P 1'
_symmetry_Int_Tables_number      1
_space_group_name_Hall           'P 1'
loop_
_symmetry_equiv_pos_site_id
_symmetry_equiv_pos_as_xyz
1 x,y,z
_cell_length_a                   9.413(2)
_cell_length_b                   18.749(5)
_cell_length_c                   17.387(5)
_cell_angle_alpha                90
_cell_angle_beta                 91.076(4)
_cell_angle_gamma                90
_cell_volume                     3067.99
loop_
_atom_site_label
_atom_site_type_symbol
_atom_site_fract_x
_atom_site_fract_y
_atom_site_fract_z
O3 O 0.3693(5) 0.6549(4) 0.0408(3)
Zn3 Zn 0.65958(6) 0.68349(4) 0.01758(3)
C18 C 0.0297(7) 0.5870(4) 0.6719(3)
H12 H 0.0345 0.5658 0.7202
C19 C 0.1125(5) 0.6444(4) 0.6564(3)
C20 C 0.1056(6) 0.6746(3) 0.5850(3)
H13 H 0.1629 0.7136 0.5740
C21 C 0.0150(6) 0.6481(4) 0.5295(3)
H14 H 0.0131 0.6694 0.4812
C22 C 0.1831(5) 0.6685(3) 0.7876(3)
C23 C 0.2950(5) 0.6572(3) 0.8367(3)
H15 H 0.3856 0.6496 0.8180
C24 C 0.2719(5) 0.6573(3) 0.9149(3)
C25 C 0.1363(5) 0.6689(3) 0.9423(3)
H16 H 0.1205 0.6671 0.9949
C26 C 0.0252(5) 0.6832(3) 0.8921(3)
C27 C 0.0484(5) 0.6840(3) 0.8145(3)
C28 C 0.3920(6) 0.6494(4) 0.9729(3)
O1 O 0.2113(4) 0.6711(3) 0.7084(2)
O2 O 0.5185(4) 0.6448(3) 0.9453(2)
N1 N 0.6861(5) 0.6402(3) 0.1252(3)
N2 N 0.6507(5) 0.5034(3) 0.3689(2)
N3 N 0.4136(4) 0.2845(3) 0.4688(2)
C1 C 0.7823(7) 0.6649(4) 0.1732(3)
H1 H 0.8419 0.7007 0.1557
C2 C 0.8021(7) 0.6420(4) 0.2475(3)
H2 H 0.8719 0.6625 0.2790
C3 C 0.7176(6) 0.5886(3) 0.2744(3)
C4 C 0.6192(9) 0.5608(5) 0.2230(4)
H3 H 0.5615 0.5232 0.2381
C5 C 0.6055(9) 0.5873(6) 0.1513(4)
H4 H 0.5367 0.5678 0.1184
C6 C 0.7310(6) 0.5600(3) 0.3544(3)
C7 C 0.8213(6) 0.5912(3) 0.4089(3)
H5 H 0.8751 0.6310 0.3966
C8 C 0.8296(5) 0.5616(3) 0.4825(3)
C9 C 0.7483(5) 0.5014(3) 0.4962(3)
H6 H 0.7530 0.4794 0.5442
C10 C 0.6595(5) 0.4736(3) 0.4387(3)
C11 C 0.5717(5) 0.4102(3) 0.4510(3)
C12 C 0.4990(7) 0.3779(4) 0.3896(3)
H7 H 0.5012 0.3985 0.3411
C13 C 0.4255(7) 0.3169(4) 0.4001(3)
H8 H 0.3808 0.2961 0.3575
C14 C 0.4762(7) 0.3174(4) 0.5283(3)
H9 H 0.4645 0.2979 0.5770
C15 C 0.5560(6) 0.3775(4) 0.5226(3)
H10 H 0.6001 0.3968 0.5662
C16 C 0.9271(5) 0.5912(3) 0.5427(3)
C17 C 0.9389(7) 0.5601(4) 0.6162(3)
H11 H 0.8839 0.5204 0.6274
H17 H 0.9746 0.6948 0.7801
C29 C 0.8780(6) 0.6966(3) 0.9218(4)
O4 O 0.8579(4) 0.6732(3) 0.9881(2)
O5 O 0.7919(4) 0.7287(3) 0.8821(3)
Zn4 Zn 0.34042(6) 0.18349(4) 0.48242(3)
N4 N 0.5864(4) 0.7845(3) 0.0312(2)
N1_2 N 0.3139(5) 0.1402(3) 0.3748(3)
N2_2 N 0.3493(5) 0.0034(3) 0.1311(2)
C1_2 C 0.2177(7) 0.1649(4) 0.3268(3)
H1_2 H 0.1581 0.2007 0.3443
C2_2 C 0.1979(7) 0.1420(4) 0.2525(3)
H2_2 H 0.1281 0.1625 0.2210
C3_2 C 0.2824(6) 0.0886(3) 0.2256(3)
C4_2 C 0.3808(9) 0.0608(5) 0.2770(4)
H3_2 H 0.4385 0.0232 0.2619
C5_2 C 0.3945(9) 0.0873(6) 0.3487(4)
H4_2 H 0.4633 0.0678 0.3816
C6_2 C 0.2690(6) 0.0600(3) 0.1456(3)
C7_2 C 0.1787(6) 0.0912(3) 0.0911(3)
H5_2 H 0.1249 0.1310 0.1034
C8_2 C 0.1704(5) 0.0616(3) 0.0175(3)
C9_2 C 0.2517(5) 0.0014(3) 0.0038(3)
O6 O 0.4815(4) 0.1448(3) 0.5547(2)
O7 O 0.1421(4) 0.1732(3) 0.5119(2)
C16_2 C 0.0729(5) 0.0912(3) 0.9573(3)
C17_2 C 0.0611(7) 0.0601(4) 0.8838(3)
H11_2 H 0.1161 0.0204 0.8726
H17_2 H 0.0254 0.1948 0.7199
C29_2 C 0.1220(6) 0.1966(3) 0.5782(4)
O5_2 O 0.2081(4) 0.2287(3) 0.6179(3)
C10_2 C 0.3405(5) 0.9736(3) 0.0613(3)
C11_2 C 0.4283(5) 0.9102(3) 0.0490(3)
C12_2 C 0.5010(7) 0.8779(4) 0.1104(3)
H7_2 H 0.4988 0.8985 0.1589
C13_2 C 0.5745(7) 0.8169(4) 0.0999(3)
H8_2 H 0.6192 0.7961 0.1425
C18_2 C 0.9703(7) 0.0870(4) 0.8281(3)
H12_2 H 0.9655 0.0658 0.7798
C19_2 C 0.8875(5) 0.1444(4) 0.8436(3)
C20_2 C 0.8944(6) 0.1746(3) 0.9150(3)
H13_2 H 0.8371 0.2136 0.9260
C21_2 C 0.9850(6) 0.1481(4) 0.9705(3)
C22_2 C 0.8169(5) 0.1685(3) 0.7124(3)
C23_2 C 0.7050(5) 0.1572(3) 0.6633(3)
H15_2 H 0.6144 0.1496 0.6820
C24_2 C 0.7281(5) 0.1573(3) 0.5851(3)
C25_2 C 0.8637(5) 0.1689(3) 0.5577(3)
H16_2 H 0.8795 0.1671 0.5051
C26_2 C 0.9748(5) 0.1832(3) 0.6079(3)
C27_2 C 0.9516(5) 0.1840(3) 0.6855(3)
C28_2 C 0.6080(6) 0.1494(4) 0.5271(3)
O1_2 O 0.7887(4) 0.1711(3) 0.7916(2)
O3_2 O 0.6307(5) 0.1549(4) 0.4592(3)
H6_2 H 0.2470 0.9794 0.9558
C14_2 C 0.5238(7) 0.8174(4) 0.9717(3)
H9_2 H 0.5355 0.7979 0.9230
C15_2 C 0.4440(6) 0.8775(4) 0.9774(3)
H10_2 H 0.3999 0.8968 0.9338
H14_2 H 0.9869 0.1694 0.0188
O6_2 O 0.4815(4) 0.3552(3) 0.0547(2)
O7_2 O 0.1421(4) 0.3268(3) 0.0119(2)
Zn1 Zn 0.34042(6) 0.31651(4) 0.98242(3)
N1_3 N 0.3139(5) 0.3598(3) 0.8748(3)
N2_3 N 0.3493(5) 0.4966(3) 0.6311(2)
N3_2 N 0.5864(4) 0.7155(3) 0.5312(2)
C1_3 C 0.2177(7) 0.3351(4) 0.8268(3)
H1_3 H 0.1581 0.2993 0.8443
C2_3 C 0.1979(7) 0.3580(4) 0.7525(3)
H2_3 H 0.1281 0.3375 0.7210
C3_3 C 0.2824(6) 0.4114(3) 0.7256(3)
C4_3 C 0.3808(9) 0.4392(5) 0.7770(4)
H3_3 H 0.4385 0.4768 0.7619
C5_3 C 0.3945(9) 0.4127(6) 0.8487(4)
H4_3 H 0.4633 0.4322 0.8816
C6_3 C 0.2690(6) 0.4400(3) 0.6456(3)
C7_3 C 0.1787(6) 0.4088(3) 0.5911(3)
H5_3 H 0.1249 0.3690 0.6034
C8_3 C 0.1704(5) 0.4384(3) 0.5175(3)
C9_3 C 0.2517(5) 0.4986(3) 0.5038(3)
H6_3 H 0.2470 0.5206 0.4558
C10_3 C 0.3405(5) 0.5264(3) 0.5613(3)
C11_3 C 0.4283(5) 0.5898(3) 0.5490(3)
C12_3 C 0.5010(7) 0.6221(4) 0.6104(3)
H7_3 H 0.4988 0.6015 0.6589
C13_3 C 0.5745(7) 0.6831(4) 0.5999(3)
H8_3 H 0.6192 0.7039 0.6425
C14_3 C 0.5238(7) 0.6826(4) 0.4717(3)
H9_3 H 0.5355 0.7021 0.4230
C15_3 C 0.4440(6) 0.6225(4) 0.4774(3)
H10_3 H 0.3999 0.6032 0.4338
C16_3 C 0.0729(5) 0.4088(3) 0.4573(3)
C17_3 C 0.0611(7) 0.4399(4) 0.3838(3)
H11_3 H 0.1161 0.4796 0.3726
H17_3 H 0.0254 0.3052 0.2199
C29_3 C 0.1220(6) 0.3034(3) 0.0782(4)
O5_3 O 0.2081(4) 0.2713(3) 0.1179(3)
Zn4_2 Zn 0.65958(6) 0.81651(4) 0.51758(3)
N4_2 N 0.4136(4) 0.2155(3) 0.9688(2)
C18_3 C 0.9703(7) 0.4130(4) 0.3281(3)
H12_3 H 0.9655 0.4342 0.2798
C19_3 C 0.8875(5) 0.3556(4) 0.3436(3)
C20_3 C 0.8944(6) 0.3254(3) 0.4150(3)
H13_3 H 0.8371 0.2864 0.4260
C21_3 C 0.9850(6) 0.3519(4) 0.4705(3)
H14_3 H 0.9869 0.3306 0.5188
C22_3 C 0.8169(5) 0.3315(3) 0.2124(3)
C23_3 C 0.7050(5) 0.3428(3) 0.1633(3)
H15_3 H 0.6144 0.3504 0.1820
C24_3 C 0.7281(5) 0.3427(3) 0.0851(3)
C25_3 C 0.8637(5) 0.3311(3) 0.0577(3)
H16_3 H 0.8795 0.3329 0.0051
C26_3 C 0.9748(5) 0.3168(3) 0.1079(3)
C27_3 C 0.9516(5) 0.3160(3) 0.1855(3)
C28_3 C 0.6080(6) 0.3506(4) 0.0271(3)
O1_3 O 0.7887(4) 0.3289(3) 0.2916(2)
O3_3 O 0.6307(5) 0.3451(4) 0.9592(3)
C18_4 C 0.0297(7) 0.9130(4) 0.1719(3)
H12_4 H 0.0345 0.9342 0.2202
C19_4 C 0.1125(5) 0.8556(4) 0.1564(3)
C20_4 C 0.1056(6) 0.8254(3) 0.0850(3)
H13_4 H 0.1629 0.7864 0.0740
C21_4 C 0.0150(6) 0.8519(4) 0.0295(3)
C22_4 C 0.1831(5) 0.8315(3) 0.2876(3)
C23_4 C 0.2950(5) 0.8428(3) 0.3367(3)
H15_4 H 0.3856 0.8504 0.3180
C24_4 C 0.2719(5) 0.8427(3) 0.4149(3)
C25_4 C 0.1363(5) 0.8311(3) 0.4423(3)
H16_4 H 0.1205 0.8329 0.4949
C26_4 C 0.0252(5) 0.8168(3) 0.3921(3)
C27_4 C 0.0484(5) 0.8160(3) 0.3145(3)
C28_4 C 0.3920(6) 0.8506(4) 0.4729(3)
O1_4 O 0.2113(4) 0.8289(3) 0.2084(2)
O2_2 O 0.5185(4) 0.8552(3) 0.4453(2)
O3_4 O 0.3693(5) 0.8451(4) 0.5408(3)
C10_4 C 0.6595(5) 0.0264(3) 0.9387(3)
C11_4 C 0.5717(5) 0.0898(3) 0.9510(3)
C12_4 C 0.4990(7) 0.1221(4) 0.8896(3)
H7_4 H 0.5012 0.1015 0.8411
C13_4 C 0.4255(7) 0.1831(4) 0.9001(3)
H8_4 H 0.3808 0.2039 0.8575
C16_4 C 0.9271(5) 0.9088(3) 0.0427(3)
C17_4 C 0.9389(7) 0.9399(4) 0.1162(3)
H11_4 H 0.8839 0.9796 0.1274
H17_4 H 0.9746 0.8052 0.2801
C29_4 C 0.8780(6) 0.8034(3) 0.4218(4)
O4_2 O 0.8579(4) 0.8268(3) 0.4881(2)
O5_4 O 0.7919(4) 0.7713(3) 0.3821(3)
N1_4 N 0.6861(5) 0.8598(3) 0.6252(3)
N2_4 N 0.6507(5) 0.9966(3) 0.8689(2)
C1_4 C 0.7823(7) 0.8351(4) 0.6732(3)
H1_4 H 0.8419 0.7993 0.6557
C2_4 C 0.8021(7) 0.8580(4) 0.7475(3)
H2_4 H 0.8719 0.8375 0.7790
C3_4 C 0.7176(6) 0.9114(3) 0.7744(3)
C4_4 C 0.6192(9) 0.9392(5) 0.7230(4)
H3_4 H 0.5615 0.9768 0.7381
C5_4 C 0.6055(9) 0.9127(6) 0.6513(4)
H4_4 H 0.5367 0.9322 0.6184
C6_4 C 0.7310(6) 0.9400(3) 0.8544(3)
C7_4 C 0.8213(6) 0.9088(3) 0.9089(3)
H5_4 H 0.8751 0.8690 0.8966
C8_4 C 0.8296(5) 0.9384(3) 0.9825(3)
C9_4 C 0.7483(5) 0.9986(3) 0.9962(3)
H14_4 H 0.0131 0.8306 0.9812
H6_4 H 0.7530 0.0206 0.0442
C14_4 C 0.4762(7) 0.1826(4) 0.0283(3)
H9_4 H 0.4645 0.2021 0.0770
C15_4 C 0.5560(6) 0.1225(4) 0.0226(3)
H10_4 H 0.6001 0.1032 0.0662
loop_
_geom_bond_atom_site_label_1
_geom_bond_atom_site_label_2
_geom_bond_site_symmetry_1
_geom_bond_site_symmetry_2
H12 C18 1_555 1_555
C19 C18 1_555 1_555
C20 C19 1_555 1_555
H13 C20 1_555 1_555
H14 C21 1_555 1_555
C22 C23 1_555 1_555
C23 H15 1_555 1_555
C24 C23 1_555 1_555
C25 C24 1_555 1_555
H16 C25 1_555 1_555
C26 C25 1_555 1_555
C27 C22 1_555 1_555
C28 C24 1_555 1_555
O1 C19 1_555 1_555
O2 C28 1_555 1_555
C20 C21 1_555 1_555
C22 O1 1_555 1_555
C26 C27 1_555 1_555
Zn3 N1 1_555 1_555
N1 C1 1_555 1_555
N2 C6 1_555 1_555
N3 C13 1_555 1_555
C1 H1 1_555 1_555
C2 C1 1_555 1_555
H2 C2 1_555 1_555
C3 C2 1_555 1_555
C4 C3 1_555 1_555
H3 C4 1_555 1_555
C5 N1 1_555 1_555
H4 C5 1_555 1_555
C6 C3 1_555 1_555
C7 C6 1_555 1_555
H5 C7 1_555 1_555
C8 C7 1_555 1_555
C9 C8 1_555 1_555
H6 C9 1_555 1_555
C10 N2 1_555 1_555
C11 C10 1_555 1_555
C12 C11 1_555 1_555
H7 C12 1_555 1_555
C13 C12 1_555 1_555
H8 C13 1_555 1_555
C14 N3 1_555 1_555
H9 C14 1_555 1_555
C15 C11 1_555 1_555
H10 C15 1_555 1_555
C16 C8 1_555 1_555
C17 C16 1_555 1_555
H11 C17 1_555 1_555
O4 C29 1_555 1_555
O5 C29 1_555 1_555
Zn4 N3 1_555 1_555
N4 Zn3 1_555 1_555
C4 C5 1_555 1_555
C9 C10 1_555 1_555
C14 C15 1_555 1_555
Zn4 N1_2 1_555 1_555
N1_2 C1_2 1_555 1_555
N2_2 C6_2 1_555 1_555
C1_2 H1_2 1_555 1_555
C2_2 C1_2 1_555 1_555
H2_2 C2_2 1_555 1_555
C3_2 C2_2 1_555 1_555
C4_2 C3_2 1_555 1_555
H3_2 C4_2 1_555 1_555
C5_2 N1_2 1_555 1_555
H4_2 C5_2 1_555 1_555
C6_2 C3_2 1_555 1_555
C7_2 C6_2 1_555 1_555
H5_2 C7_2 1_555 1_555
C8_2 C7_2 1_555 1_555
C9_2 C8_2 1_555 1_555
O6 Zn4 1_555 1_555
O7 Zn4 1_555 1_555
C4_2 C5_2 1_555 1_555
C17_2 C16_2 1_555 1_555
H11_2 C17_2 1_555 1_555
O7 C29_2 1_555 1_555
O5_2 C29_2 1_555 1_555
N4 C13_2 1_555 1_555
C11_2 C10_2 1_555 1_555
C12_2 C11_2 1_555 1_555
H7_2 C12_2 1_555 1_555
C13_2 C12_2 1_555 1_555
H8_2 C13_2 1_555 1_555
H12_2 C18_2 1_555 1_555
C19_2 C18_2 1_555 1_555
C20_2 C19_2 1_555 1_555
H13_2 C20_2 1_555 1_555
C22_2 C23_2 1_555 1_555
C23_2 H15_2 1_555 1_555
C24_2 C23_2 1_555 1_555
C25_2 C24_2 1_555 1_555
H16_2 C25_2 1_555 1_555
C26_2 C25_2 1_555 1_555
C27_2 C22_2 1_555 1_555
C28_2 C24_2 1_555 1_555
O1_2 C19_2 1_555 1_555
O6 C28_2 1_555 1_555
O3_2 C28_2 1_555 1_555
C20_2 C21_2 1_555 1_555
C22_2 O1_2 1_555 1_555
C26_2 C27_2 1_555 1_555
H9_2 C14_2 1_555 1_555
H10_2 C15_2 1_555 1_555
C14_2 C15_2 1_555 1_555
Zn1 N1_3 1_555 1_555
N1_3 C1_3 1_555 1_555
N2_3 C6_3 1_555 1_555
N3_2 C13_3 1_555 1_555
C1_3 H1_3 1_555 1_555
C2_3 C1_3 1_555 1_555
H2_3 C2_3 1_555 1_555
C3_3 C2_3 1_555 1_555
C4_3 C3_3 1_555 1_555
H3_3 C4_3 1_555 1_555
C5_3 N1_3 1_555 1_555
H4_3 C5_3 1_555 1_555
C6_3 C3_3 1_555 1_555
C7_3 C6_3 1_555 1_555
H5_3 C7_3 1_555 1_555
C8_3 C7_3 1_555 1_555
C9_3 C8_3 1_555 1_555
H6_3 C9_3 1_555 1_555
C10_3 N2_3 1_555 1_555
C11_3 C10_3 1_555 1_555
C12_3 C11_3 1_555 1_555
H7_3 C12_3 1_555 1_555
C13_3 C12_3 1_555 1_555
H8_3 C13_3 1_555 1_555
C14_3 N3_2 1_555 1_555
H9_3 C14_3 1_555 1_555
C15_3 C11_3 1_555 1_555
H10_3 C15_3 1_555 1_555
C16_3 C8_3 1_555 1_555
C17_3 C16_3 1_555 1_555
H11_3 C17_3 1_555 1_555
O7_2 C29_3 1_555 1_555
O5_3 C29_3 1_555 1_555
Zn4_2 N3_2 1_555 1_555
N4_2 Zn1 1_555 1_555
C4_3 C5_3 1_555 1_555
C9_3 C10_3 1_555 1_555
C14_3 C15_3 1_555 1_555
H12_3 C18_3 1_555 1_555
C19_3 C18_3 1_555 1_555
C20_3 C19_3 1_555 1_555
H13_3 C20_3 1_555 1_555
H14_3 C21_3 1_555 1_555
C22_3 C23_3 1_555 1_555
C23_3 H15_3 1_555 1_555
C24_3 C23_3 1_555 1_555
C25_3 C24_3 1_555 1_555
H16_3 C25_3 1_555 1_555
C26_3 C25_3 1_555 1_555
C27_3 C22_3 1_555 1_555
C28_3 C24_3 1_555 1_555
O1_3 C19_3 1_555 1_555
O6_2 C28_3 1_555 1_555
C20_3 C21_3 1_555 1_555
C22_3 O1_3 1_555 1_555
C26_3 C27_3 1_555 1_555
H12_4 C18_4 1_555 1_555
C19_4 C18_4 1_555 1_555
C20_4 C19_4 1_555 1_555
H13_4 C20_4 1_555 1_555
C22_4 C23_4 1_555 1_555
C23_4 H15_4 1_555 1_555
C24_4 C23_4 1_555 1_555
C25_4 C24_4 1_555 1_555
H16_4 C25_4 1_555 1_555
C26_4 C25_4 1_555 1_555
C27_4 C22_4 1_555 1_555
C28_4 C24_4 1_555 1_555
O1_4 C19_4 1_555 1_555
O2_2 C28_4 1_555 1_555
O3_4 C28_4 1_555 1_555
Zn4_2 O2_2 1_555 1_555
C20_4 C21_4 1_555 1_555
C22_4 O1_4 1_555 1_555
C26_4 C27_4 1_555 1_555
N4_2 C13_4 1_555 1_555
C11_4 C10_4 1_555 1_555
C12_4 C11_4 1_555 1_555
H7_4 C12_4 1_555 1_555
C13_4 C12_4 1_555 1_555
H8_4 C13_4 1_555 1_555
C17_4 C16_4 1_555 1_555
H11_4 C17_4 1_555 1_555
O4_2 C29_4 1_555 1_555
O5_4 C29_4 1_555 1_555
Zn4_2 O4_2 1_555 1_555
Zn4_2 N1_4 1_555 1_555
N1_4 C1_4 1_555 1_555
N2_4 C6_4 1_555 1_555
C1_4 H1_4 1_555 1_555
C2_4 C1_4 1_555 1_555
H2_4 C2_4 1_555 1_555
C3_4 C2_4 1_555 1_555
C4_4 C3_4 1_555 1_555
H3_4 C4_4 1_555 1_555
C5_4 N1_4 1_555 1_555
H4_4 C5_4 1_555 1_555
C6_4 C3_4 1_555 1_555
C7_4 C6_4 1_555 1_555
H5_4 C7_4 1_555 1_555
C8_4 C7_4 1_555 1_555
C9_4 C8_4 1_555 1_555
C4_4 C5_4 1_555 1_555
H9_4 C14_4 1_555 1_555
H10_4 C15_4 1_555 1_555
C14_4 C15_4 1_555 1_555

#END
