
###############################################################################
#
# This file contains modified crystal structure data generated from the
# MOF subset of the Cambridge Structural Database (CSD) v543 
# hosted by the Cambridge Crystallographic Data Centre (CCDC).
#
# This work is licensed under the Creative Commons
# Attribution-NonCommercial-ShareAlike 4.0 International License.
# To view a copy of this license, visit
# http://creativecommons.org/licenses/by-nc-sa/4.0/
# or send a letter to
# Creative Commons, PO Box 1866, Mountain View, CA 94042, USA.
#
# CIF created using the CSD Python API on 29 September 2022
# The structure has been converted into the P1 space group
# The structure has a 3D framework
# The original CSD entry SAHYOS is in the monoclinic crystal system
# The framework has been calculated to contain at least 10.0% void space
# The void calculation uses a probe of radius 1.32A, grid spacing 0.4
#
###############################################################################

data_SAHYOS
_chemical_formula_moiety         '(C116 H76 Cd4 N12 O20)n'
_symmetry_cell_setting           triclinic
_symmetry_space_group_name_H-M   'P 1'
_symmetry_Int_Tables_number      1
_space_group_name_Hall           'P 1'
loop_
_symmetry_equiv_pos_site_id
_symmetry_equiv_pos_as_xyz
1 x,y,z
_cell_length_a                   10.1676(16)
_cell_length_b                   17.300(3)
_cell_length_c                   17.485(3)
_cell_angle_alpha                90
_cell_angle_beta                 91.708(2)
_cell_angle_gamma                90
_cell_volume                     3074.24
loop_
_atom_site_label
_atom_site_type_symbol
_atom_site_fract_x
_atom_site_fract_y
_atom_site_fract_z
O7 O 0.0810(2) 0.39176(16) 0.01190(14)
Cd1 Cd 0.82736(2) 0.363204(15) 0.019899(13)
O2 O 0.7942(2) 0.49003(15) 0.05563(14)
H18 H 0.8229 0.5290 0.0311
H19 H 0.7159 0.5039 0.0663
O8 O 0.9846(2) 0.35884(15) 0.11806(14)
O9 O 0.5804(2) 0.36262(15) 0.00762(14)
O10 O 0.6834(2) 0.31975(17) 0.11185(14)
N1 N 0.8107(3) 0.39705(18) 0.89178(15)
N2 N 0.8619(3) 0.51903(18) 0.63499(16)
C1 C 0.7121(4) 0.3712(2) 0.8462(2)
H1 H 0.6481 0.3381 0.8673
C2 C 0.6993(4) 0.3905(2) 0.7697(2)
H2 H 0.6272 0.3712 0.7396
C3 C 0.7912(3) 0.4380(2) 0.73680(19)
C4 C 0.8922(4) 0.4655(2) 0.7847(2)
H3 H 0.9568 0.4993 0.7652
C5 C 0.8989(4) 0.4439(2) 0.8605(2)
H4 H 0.9693 0.4632 0.8919
C6 C 0.7845(3) 0.4604(2) 0.65469(19)
C7 C 0.7003(4) 0.4220(2) 0.60234(19)
H5 H 0.6483 0.3798 0.6185
C8 C 0.6938(4) 0.4467(2) 0.52580(19)
C9 C 0.7742(4) 0.5082(2) 0.5064(2)
H6 H 0.7732 0.5267 0.4552
C10 C 0.8565(3) 0.5427(2) 0.56170(19)
H8 H 0.9963 0.6375 0.6526
C13 C 0.9424(4) 0.6090(2) 0.5427(2)
C14 C 0.9675(4) 0.6313(2) 0.4683(2)
H9 H 0.9307 0.6029 0.4264
C16 C 0.6032(3) 0.4095(2) 0.46866(19)
C17 C 0.5559(4) 0.3352(2) 0.4791(2)
H11 H 0.5835 0.3068 0.5232
C18 C 0.4692(4) 0.3016(2) 0.4263(2)
H12 H 0.4370 0.2508 0.4343
C19 C 0.4302(3) 0.3428(2) 0.3620(2)
C20 C 0.4774(4) 0.4165(2) 0.34974(19)
H13 H 0.4515 0.4441 0.3048
C21 C 0.5623(4) 0.4496(2) 0.4030(2)
H14 H 0.5936 0.5006 0.3949
C22 C 0.3417(3) 0.3260(2) 0.23580(19)
C23 C 0.2215(3) 0.3415(2) 0.1986(2)
H15 H 0.1428 0.3417 0.2265
C24 C 0.2169(3) 0.3565(2) 0.12051(19)
C25 C 0.3330(3) 0.3559(2) 0.0803(2)
H16 H 0.3306 0.3663 0.0269
C26 C 0.4529(3) 0.3402(2) 0.1179(2)
C27 C 0.4556(3) 0.3244(2) 0.1959(2)
H17 H 0.5366 0.3124 0.2216
C28 C 0.0866(4) 0.3709(2) 0.0806(2)
C29 C 0.5800(4) 0.3407(2) 0.0762(2)
O6 O 0.3387(2) 0.30758(16) 0.31304(13)
N4 N 0.9008(3) 0.23816(19) 0.98913(16)
C15 C 0.9546(4) 0.1944(2) 0.0448(2)
H10 H 0.9379 0.2077 0.0964
C11 C 0.9192(5) 0.2148(3) 0.9183(2)
H7 H 0.8779 0.2433 0.8778
C12 C 0.9947(5) 0.1517(3) 0.8995(2)
N3 N 0.0992(3) 0.73816(19) 0.51087(16)
C11_2 C 0.0808(5) 0.7148(3) 0.5817(2)
H7_2 H 0.1221 0.7433 0.6222
C12_2 C 0.0053(5) 0.6517(3) 0.6005(2)
C15_2 C 0.0454(4) 0.6944(2) 0.4552(2)
H10_2 H 0.0621 0.7077 0.4036
Cd4 Cd 0.17264(2) 0.863204(15) 0.480101(13)
O3 O 0.0154(2) 0.85884(15) 0.38194(14)
C16_2 C 0.3968(3) 0.9095(2) 0.03134(19)
C17_2 C 0.4441(4) 0.8352(2) 0.0209(2)
C18_2 C 0.5308(4) 0.8016(2) 0.0737(2)
H12_2 H 0.5630 0.7508 0.0657
C19_2 C 0.5698(3) 0.8428(2) 0.1380(2)
C20_2 C 0.5226(4) 0.9165(2) 0.15026(19)
H13_2 H 0.5485 0.9441 0.1952
C21_2 C 0.4377(4) 0.9496(2) 0.0970(2)
C22_2 C 0.6583(3) 0.8260(2) 0.26420(19)
C23_2 C 0.7785(3) 0.8415(2) 0.3014(2)
H15_2 H 0.8572 0.8417 0.2735
C24_2 C 0.7831(3) 0.8565(2) 0.37949(19)
C25_2 C 0.6670(3) 0.8559(2) 0.4197(2)
H16_2 H 0.6694 0.8663 0.4731
C26_2 C 0.5471(3) 0.8402(2) 0.3821(2)
C27_2 C 0.5444(3) 0.8244(2) 0.3041(2)
H17_2 H 0.4634 0.8124 0.2784
C28_2 C 0.9134(4) 0.8709(2) 0.4194(2)
C29_2 C 0.4200(4) 0.8407(2) 0.4238(2)
O1 O 0.9190(2) 0.89176(16) 0.48810(14)
O4 O 0.4196(2) 0.86262(15) 0.49238(14)
O5 O 0.3166(2) 0.81975(17) 0.38815(14)
O6_2 O 0.6613(2) 0.80758(16) 0.18696(13)
N1_2 N 0.1893(3) 0.89705(18) 0.60822(15)
C1_2 C 0.2879(4) 0.8712(2) 0.6538(2)
H1_2 H 0.3519 0.8381 0.6327
C2_2 C 0.3007(4) 0.8905(2) 0.7303(2)
H2_2 H 0.3728 0.8712 0.7604
C3_2 C 0.2088(3) 0.9380(2) 0.76320(19)
C4_2 C 0.1078(4) 0.9655(2) 0.7153(2)
H3_2 H 0.0432 0.9993 0.7348
C5_2 C 0.1011(4) 0.9439(2) 0.6395(2)
H4_2 H 0.0307 0.9632 0.6081
C6_2 C 0.2155(3) 0.9604(2) 0.84531(19)
C7_2 C 0.2997(4) 0.9220(2) 0.89766(19)
H5_2 H 0.3517 0.8798 0.8815
C8_2 C 0.3062(4) 0.9467(2) 0.97420(19)
H11_2 H 0.4165 0.8068 0.9768
O2_2 O 0.2058(2) 0.99003(15) 0.44437(14)
H6_2 H 0.2268 0.0267 0.0448
C14_2 C 0.0325(4) 0.1313(2) 0.0317(2)
H9_2 H 0.0693 0.1029 0.0736
H14_2 H 0.4064 0.0006 0.1051
N2_2 N 0.1381(3) 0.01903(18) 0.86501(16)
C9_2 C 0.2258(4) 0.0082(2) 0.9936(2)
C10_2 C 0.1435(3) 0.0427(2) 0.93830(19)
H8_2 H 0.0037 0.1375 0.8474
C13_2 C 0.0576(4) 0.1090(2) 0.9573(2)
H18_2 H 0.1771 0.0290 0.4689
H19_2 H 0.2841 0.0039 0.4337
O3_2 O 0.0154(2) 0.64116(15) 0.88194(14)
Cd2 Cd 0.17264(2) 0.636796(15) 0.980101(13)
N1_3 N 0.1893(3) 0.60295(18) 0.10822(15)
N2_3 N 0.1381(3) 0.48097(18) 0.36501(16)
C1_3 C 0.2879(4) 0.6288(2) 0.1538(2)
H1_3 H 0.3519 0.6619 0.1327
C2_3 C 0.3007(4) 0.6095(2) 0.2303(2)
H2_3 H 0.3728 0.6288 0.2604
C3_3 C 0.2088(3) 0.5620(2) 0.26320(19)
C4_3 C 0.1078(4) 0.5345(2) 0.2153(2)
H3_3 H 0.0432 0.5007 0.2348
C5_3 C 0.1011(4) 0.5561(2) 0.1395(2)
H4_3 H 0.0307 0.5368 0.1081
C6_3 C 0.2155(3) 0.5396(2) 0.34531(19)
C7_3 C 0.2997(4) 0.5780(2) 0.39766(19)
H5_3 H 0.3517 0.6202 0.3815
C8_3 C 0.3062(4) 0.5533(2) 0.47420(19)
C9_3 C 0.2258(4) 0.4918(2) 0.4936(2)
H6_3 H 0.2268 0.4733 0.5448
C10_3 C 0.1435(3) 0.4573(2) 0.43830(19)
H8_3 H 0.0037 0.3625 0.3474
C13_3 C 0.0576(4) 0.3910(2) 0.4573(2)
C14_3 C 0.0325(4) 0.3687(2) 0.5317(2)
H9_3 H 0.0693 0.3971 0.5736
C16_3 C 0.3968(3) 0.5905(2) 0.53134(19)
C17_3 C 0.4441(4) 0.6648(2) 0.5209(2)
H11_3 H 0.4165 0.6932 0.4768
C18_3 C 0.5308(4) 0.6984(2) 0.5737(2)
H12_3 H 0.5630 0.7492 0.5657
C19_3 C 0.5698(3) 0.6572(2) 0.6380(2)
C20_3 C 0.5226(4) 0.5835(2) 0.65026(19)
H13_3 H 0.5485 0.5559 0.6952
C21_3 C 0.4377(4) 0.5504(2) 0.5970(2)
H14_3 H 0.4064 0.4994 0.6051
C22_3 C 0.6583(3) 0.6740(2) 0.76420(19)
C23_3 C 0.7785(3) 0.6585(2) 0.8014(2)
H15_3 H 0.8572 0.6583 0.7735
C24_3 C 0.7831(3) 0.6435(2) 0.87949(19)
C25_3 C 0.6670(3) 0.6441(2) 0.9197(2)
H16_3 H 0.6694 0.6337 0.9731
C26_3 C 0.5471(3) 0.6598(2) 0.8821(2)
C27_3 C 0.5444(3) 0.6756(2) 0.8041(2)
H17_3 H 0.4634 0.6876 0.7784
C28_3 C 0.9134(4) 0.6291(2) 0.9194(2)
C29_3 C 0.4200(4) 0.6593(2) 0.9238(2)
O1_2 O 0.9190(2) 0.60824(16) 0.98810(14)
O4_2 O 0.4196(2) 0.63738(15) 0.99238(14)
O5_2 O 0.3166(2) 0.68025(17) 0.88815(14)
O6_3 O 0.6613(2) 0.69242(16) 0.68696(13)
N4_2 N 0.0992(3) 0.76184(19) 0.01087(16)
O2_3 O 0.2058(2) 0.50997(15) 0.94437(14)
H18_3 H 0.1771 0.4710 0.9689
H19_3 H 0.2841 0.4961 0.9337
C11_3 C 0.0808(5) 0.7852(3) 0.0817(2)
H7_3 H 0.1221 0.7567 0.1222
C12_3 C 0.0053(5) 0.8483(3) 0.1005(2)
C15_3 C 0.0454(4) 0.8056(2) 0.9552(2)
H10_3 H 0.0621 0.7923 0.9036
N3_2 N 0.9008(3) 0.26184(19) 0.48913(16)
C11_4 C 0.9192(5) 0.2852(3) 0.4183(2)
H7_4 H 0.8779 0.2567 0.3778
C12_4 C 0.9947(5) 0.3483(3) 0.3995(2)
C15_4 C 0.9546(4) 0.3056(2) 0.5448(2)
H10_4 H 0.9379 0.2923 0.5964
Cd4_2 Cd 0.82736(2) 0.136796(15) 0.519899(13)
O7_2 O 0.0810(2) 0.10824(16) 0.51190(14)
N1_4 N 0.8107(3) 0.10295(18) 0.39178(15)
C1_4 C 0.7121(4) 0.1288(2) 0.3462(2)
H1_4 H 0.6481 0.1619 0.3673
C2_4 C 0.6993(4) 0.1095(2) 0.2697(2)
H2_4 H 0.6272 0.1288 0.2396
C3_4 C 0.7912(3) 0.0620(2) 0.23680(19)
C4_4 C 0.8922(4) 0.0345(2) 0.2847(2)
H3_4 H 0.9568 0.0007 0.2652
C5_4 C 0.8989(4) 0.0561(2) 0.3605(2)
H4_4 H 0.9693 0.0368 0.3919
C6_4 C 0.7845(3) 0.0396(2) 0.15469(19)
C7_4 C 0.7003(4) 0.0780(2) 0.10234(19)
H5_4 H 0.6483 0.1202 0.1185
C8_4 C 0.6938(4) 0.0533(2) 0.02580(19)
H11_4 H 0.5835 0.1932 0.0232
O2_4 O 0.7942(2) 0.00997(15) 0.55563(14)
O8_2 O 0.9846(2) 0.14116(15) 0.61806(14)
O9_2 O 0.5804(2) 0.13738(15) 0.50762(14)
O10_2 O 0.6834(2) 0.18025(17) 0.61185(14)
C16_4 C 0.6032(3) 0.0905(2) 0.96866(19)
C17_4 C 0.5559(4) 0.1648(2) 0.9791(2)
C18_4 C 0.4692(4) 0.1984(2) 0.9263(2)
H12_4 H 0.4370 0.2492 0.9343
C19_4 C 0.4302(3) 0.1572(2) 0.8620(2)
C20_4 C 0.4774(4) 0.0835(2) 0.84974(19)
H13_4 H 0.4515 0.0559 0.8048
C21_4 C 0.5623(4) 0.0504(2) 0.9030(2)
C22_4 C 0.3417(3) 0.1740(2) 0.73580(19)
C23_4 C 0.2215(3) 0.1585(2) 0.6986(2)
H15_4 H 0.1428 0.1583 0.7265
C24_4 C 0.2169(3) 0.1435(2) 0.62051(19)
C25_4 C 0.3330(3) 0.1441(2) 0.5803(2)
H16_4 H 0.3306 0.1337 0.5269
C26_4 C 0.4529(3) 0.1598(2) 0.6179(2)
C27_4 C 0.4556(3) 0.1756(2) 0.6959(2)
H17_4 H 0.5366 0.1876 0.7216
C28_4 C 0.0866(4) 0.1291(2) 0.5806(2)
C29_4 C 0.5800(4) 0.1593(2) 0.5762(2)
O6_4 O 0.3387(2) 0.19242(16) 0.81304(13)
N2_4 N 0.8619(3) 0.98097(18) 0.13499(16)
C9_4 C 0.7742(4) 0.9918(2) 0.0064(2)
C10_4 C 0.8565(3) 0.9573(2) 0.06170(19)
H8_4 H 0.9963 0.8625 0.1526
C13_4 C 0.9424(4) 0.8910(2) 0.0427(2)
H18_4 H 0.8229 0.9710 0.5311
H19_4 H 0.7159 0.9961 0.5663
H6_4 H 0.7732 0.9733 0.9552
C14_4 C 0.9675(4) 0.8687(2) 0.9683(2)
H9_4 H 0.9307 0.8971 0.9264
H14_4 H 0.5936 0.9994 0.8949
loop_
_geom_bond_atom_site_label_1
_geom_bond_atom_site_label_2
_geom_bond_site_symmetry_1
_geom_bond_site_symmetry_2
O2 Cd1 1_555 1_555
H18 O2 1_555 1_555
H19 O2 1_555 1_555
O8 Cd1 1_555 1_555
O9 Cd1 1_555 1_555
O10 Cd1 1_555 1_555
N1 C1 1_555 1_555
N2 C6 1_555 1_555
C1 H1 1_555 1_555
C2 C1 1_555 1_555
H2 C2 1_555 1_555
C3 C2 1_555 1_555
C4 C3 1_555 1_555
H3 C4 1_555 1_555
C5 N1 1_555 1_555
H4 C5 1_555 1_555
C6 C3 1_555 1_555
C7 C6 1_555 1_555
H5 C7 1_555 1_555
C8 C7 1_555 1_555
C9 C8 1_555 1_555
H6 C9 1_555 1_555
C10 N2 1_555 1_555
C13 C10 1_555 1_555
C14 C13 1_555 1_555
H9 C14 1_555 1_555
C16 C8 1_555 1_555
C17 C16 1_555 1_555
H11 C17 1_555 1_555
C18 C17 1_555 1_555
H12 C18 1_555 1_555
C19 C18 1_555 1_555
C20 C19 1_555 1_555
H13 C20 1_555 1_555
C21 C16 1_555 1_555
H14 C21 1_555 1_555
C22 C23 1_555 1_555
C23 H15 1_555 1_555
C24 C23 1_555 1_555
C25 C24 1_555 1_555
H16 C25 1_555 1_555
C26 C25 1_555 1_555
C27 C22 1_555 1_555
H17 C27 1_555 1_555
C28 C24 1_555 1_555
C29 C26 1_555 1_555
O7 C28 1_555 1_555
O9 C29 1_555 1_555
O10 C29 1_555 1_555
O6 C19 1_555 1_555
C4 C5 1_555 1_555
C9 C10 1_555 1_555
C20 C21 1_555 1_555
C22 O6 1_555 1_555
C26 C27 1_555 1_555
H10 C15 1_555 1_555
N4 C11 1_555 1_555
C11 H7 1_555 1_555
C12 C11 1_555 1_555
N3 C11_2 1_555 1_555
C11_2 H7_2 1_555 1_555
C12_2 C11_2 1_555 1_555
C15_2 N3 1_555 1_555
H10_2 C15_2 1_555 1_555
Cd4 N3 1_555 1_555
O3 Cd4 1_555 1_555
C17_2 C16_2 1_555 1_555
C18_2 C17_2 1_555 1_555
H12_2 C18_2 1_555 1_555
C19_2 C18_2 1_555 1_555
C20_2 C19_2 1_555 1_555
H13_2 C20_2 1_555 1_555
C21_2 C16_2 1_555 1_555
C22_2 C23_2 1_555 1_555
C23_2 H15_2 1_555 1_555
C24_2 C23_2 1_555 1_555
C25_2 C24_2 1_555 1_555
H16_2 C25_2 1_555 1_555
C26_2 C25_2 1_555 1_555
C27_2 C22_2 1_555 1_555
H17_2 C27_2 1_555 1_555
C28_2 C24_2 1_555 1_555
C29_2 C26_2 1_555 1_555
O1 C28_2 1_555 1_555
O4 C29_2 1_555 1_555
O5 C29_2 1_555 1_555
O6_2 C19_2 1_555 1_555
Cd4 O4 1_555 1_555
C20_2 C21_2 1_555 1_555
C22_2 O6_2 1_555 1_555
C26_2 C27_2 1_555 1_555
O5 Cd4 1_555 1_555
Cd4 N1_2 1_555 1_555
N1_2 C1_2 1_555 1_555
C1_2 H1_2 1_555 1_555
C2_2 C1_2 1_555 1_555
H2_2 C2_2 1_555 1_555
C3_2 C2_2 1_555 1_555
C4_2 C3_2 1_555 1_555
H3_2 C4_2 1_555 1_555
C5_2 N1_2 1_555 1_555
H4_2 C5_2 1_555 1_555
C6_2 C3_2 1_555 1_555
C7_2 C6_2 1_555 1_555
H5_2 C7_2 1_555 1_555
C8_2 C7_2 1_555 1_555
O2_2 Cd4 1_555 1_555
C4_2 C5_2 1_555 1_555
H9_2 C14_2 1_555 1_555
C10_2 N2_2 1_555 1_555
C13_2 C10_2 1_555 1_555
C9_2 C10_2 1_555 1_555
O3_2 Cd2 1_555 1_555
N1_3 C1_3 1_555 1_555
N2_3 C6_3 1_555 1_555
C1_3 H1_3 1_555 1_555
C2_3 C1_3 1_555 1_555
H2_3 C2_3 1_555 1_555
C3_3 C2_3 1_555 1_555
C4_3 C3_3 1_555 1_555
H3_3 C4_3 1_555 1_555
C5_3 N1_3 1_555 1_555
H4_3 C5_3 1_555 1_555
C6_3 C3_3 1_555 1_555
C7_3 C6_3 1_555 1_555
H5_3 C7_3 1_555 1_555
C8_3 C7_3 1_555 1_555
C9_3 C8_3 1_555 1_555
H6_3 C9_3 1_555 1_555
C10_3 N2_3 1_555 1_555
C13_3 C10_3 1_555 1_555
C14_3 C13_3 1_555 1_555
H9_3 C14_3 1_555 1_555
C16_3 C8_3 1_555 1_555
C17_3 C16_3 1_555 1_555
H11_3 C17_3 1_555 1_555
C18_3 C17_3 1_555 1_555
H12_3 C18_3 1_555 1_555
C19_3 C18_3 1_555 1_555
C20_3 C19_3 1_555 1_555
H13_3 C20_3 1_555 1_555
C21_3 C16_3 1_555 1_555
H14_3 C21_3 1_555 1_555
C22_3 C23_3 1_555 1_555
C23_3 H15_3 1_555 1_555
C24_3 C23_3 1_555 1_555
C25_3 C24_3 1_555 1_555
H16_3 C25_3 1_555 1_555
C26_3 C25_3 1_555 1_555
C27_3 C22_3 1_555 1_555
H17_3 C27_3 1_555 1_555
C28_3 C24_3 1_555 1_555
C29_3 C26_3 1_555 1_555
O1_2 C28_3 1_555 1_555
O4_2 C29_3 1_555 1_555
O5_2 C29_3 1_555 1_555
O6_3 C19_3 1_555 1_555
Cd2 O4_2 1_555 1_555
C4_3 C5_3 1_555 1_555
C9_3 C10_3 1_555 1_555
C20_3 C21_3 1_555 1_555
C22_3 O6_3 1_555 1_555
C26_3 C27_3 1_555 1_555
O5_2 Cd2 1_555 1_555
O2_3 Cd2 1_555 1_555
H18_3 O2_3 1_555 1_555
H19_3 O2_3 1_555 1_555
N4_2 C11_3 1_555 1_555
C11_3 H7_3 1_555 1_555
C12_3 C11_3 1_555 1_555
H10_3 C15_3 1_555 1_555
N3_2 C11_4 1_555 1_555
C11_4 H7_4 1_555 1_555
C12_4 C11_4 1_555 1_555
C15_4 N3_2 1_555 1_555
H10_4 C15_4 1_555 1_555
Cd4_2 N3_2 1_555 1_555
Cd4_2 N1_4 1_555 1_555
N1_4 C1_4 1_555 1_555
C1_4 H1_4 1_555 1_555
C2_4 C1_4 1_555 1_555
H2_4 C2_4 1_555 1_555
C3_4 C2_4 1_555 1_555
C4_4 C3_4 1_555 1_555
H3_4 C4_4 1_555 1_555
C5_4 N1_4 1_555 1_555
H4_4 C5_4 1_555 1_555
C6_4 C3_4 1_555 1_555
C7_4 C6_4 1_555 1_555
H5_4 C7_4 1_555 1_555
C8_4 C7_4 1_555 1_555
O2_4 Cd4_2 1_555 1_555
O8_2 Cd4_2 1_555 1_555
O9_2 Cd4_2 1_555 1_555
O10_2 Cd4_2 1_555 1_555
C4_4 C5_4 1_555 1_555
C17_4 C16_4 1_555 1_555
C18_4 C17_4 1_555 1_555
H12_4 C18_4 1_555 1_555
C19_4 C18_4 1_555 1_555
C20_4 C19_4 1_555 1_555
H13_4 C20_4 1_555 1_555
C21_4 C16_4 1_555 1_555
C22_4 C23_4 1_555 1_555
C23_4 H15_4 1_555 1_555
C24_4 C23_4 1_555 1_555
C25_4 C24_4 1_555 1_555
H16_4 C25_4 1_555 1_555
C26_4 C25_4 1_555 1_555
C27_4 C22_4 1_555 1_555
H17_4 C27_4 1_555 1_555
C28_4 C24_4 1_555 1_555
C29_4 C26_4 1_555 1_555
O7_2 C28_4 1_555 1_555
O9_2 C29_4 1_555 1_555
O10_2 C29_4 1_555 1_555
O6_4 C19_4 1_555 1_555
C20_4 C21_4 1_555 1_555
C22_4 O6_4 1_555 1_555
C26_4 C27_4 1_555 1_555
C10_4 N2_4 1_555 1_555
C13_4 C10_4 1_555 1_555
C9_4 C10_4 1_555 1_555
H9_4 C14_4 1_555 1_555

#END
