
###############################################################################
#
# This file contains modified crystal structure data generated from the
# MOF subset of the Cambridge Structural Database (CSD) v543 
# hosted by the Cambridge Crystallographic Data Centre (CCDC).
#
# This work is licensed under the Creative Commons
# Attribution-NonCommercial-ShareAlike 4.0 International License.
# To view a copy of this license, visit
# http://creativecommons.org/licenses/by-nc-sa/4.0/
# or send a letter to
# Creative Commons, PO Box 1866, Mountain View, CA 94042, USA.
#
# CIF created using the CSD Python API on 29 September 2022
# The structure has been converted into the P1 space group
# The structure has a 3D framework
# The original CSD entry SAJDUG is in the tetragonal crystal system
# The original CSD entry SAJDUG is in a Sohncke space group
# The framework has been calculated to contain at least 10.0% void space
# The void calculation uses a probe of radius 1.32A, grid spacing 0.4
#
###############################################################################

data_SAJDUG
_chemical_formula_moiety         '(C36 H16 N34 O26 Pr4)n'
_symmetry_cell_setting           triclinic
_symmetry_space_group_name_H-M   'P 1'
_symmetry_Int_Tables_number      1
_space_group_name_Hall           'P 1'
loop_
_symmetry_equiv_pos_site_id
_symmetry_equiv_pos_as_xyz
1 x,y,z
_cell_length_a                   8.6806(3)
_cell_length_b                   8.6806(3)
_cell_length_c                   20.1518(6)
_cell_angle_alpha                90
_cell_angle_beta                 90
_cell_angle_gamma                90
_cell_volume                     1518.49
loop_
_atom_site_label
_atom_site_type_symbol
_atom_site_fract_x
_atom_site_fract_y
_atom_site_fract_z
Pr4 Pr 0.04027(2) 0.04027(2) 0.125000
Pr2 Pr 0.04027(2) 0.95973(2) 0.375000
O1 O 0.0905(4) 0.000000 0.250000
C1 C 0.2354(6) 0.000000 0.250000
C4 C 0.7022(6) 0.000000 0.250000
N4 N 0.5393(5) 0.000000 0.250000
N5 N 0.3064(4) 0.0183(7) 0.19084(15)
O4 O 0.7664(3) 0.0430(5) 0.08382(12)
C5 C 0.4588(4) 0.0153(8) 0.1899(2)
N6 N 0.5336(4) 0.0305(6) 0.13357(16)
N7 N 0.7740(4) 0.0148(7) 0.19298(15)
C6 C 0.6894(4) 0.0286(6) 0.13605(19)
H3 H 0.283973 0.052732 0.470749
O8 O 0.0430(5) 0.2336(3) 0.33382(12)
N10 N 0.0148(7) 0.2260(4) 0.44298(15)
O1_2 O 0.0905(4) 1.000000 0.250000
C1_2 C 0.2354(6) 1.000000 0.250000
N1 N 0.3064(4) 0.9817(7) 0.30916(15)
O2 O 0.7664(3) 0.9570(5) 0.41618(12)
C2 C 0.4588(4) 0.9847(8) 0.3101(2)
N2 N 0.5336(4) 0.9695(6) 0.36643(16)
O3 O 0.0377(8) 0.7248(4) 0.30349(14)
H2 H 0.046992 0.635456 0.328316
N3 N 0.7740(4) 0.9852(7) 0.30702(15)
C3 C 0.6894(4) 0.9714(6) 0.36395(19)
C4_2 C 0.7022(6) 1.000000 0.250000
N4_2 N 0.5393(5) 1.000000 0.250000
O5 O 0.2752(4) 0.9623(8) 0.44651(14)
H4 H 0.364544 0.953008 0.421684
O6 O 0.000000 0.9095(4) 0.500000
N8 N 0.0183(7) 0.6936(4) 0.44084(15)
H1 H 0.947268 0.716027 0.279251
O6_2 O 1.000000 0.9095(4) 0.500000
O6_3 O -0.000000 0.0905(4) 0.000000
H1_2 H 0.052732 0.283973 0.779251
O6_4 O 0.000000 0.0905(4) 1.000000
O7 O 0.2336(3) 0.0430(5) 0.91618(12)
N9 N 0.2260(4) 0.0148(7) 0.80702(15)
O6_5 O 1.000000 0.0905(4) 0.000000
Pr1 Pr 0.95973(2) 0.04027(2) 0.875000
O1_3 O 0.9095(4) 0.000000 0.750000
C1_3 C 0.7646(6) 0.000000 0.750000
N1_2 N 0.6936(4) 0.0183(7) 0.80916(15)
C2_2 C 0.5412(4) 0.0153(8) 0.8101(2)
N2_2 N 0.4664(4) 0.0305(6) 0.86643(16)
O3_2 O 0.9623(8) 0.2752(4) 0.80349(14)
H2_2 H 0.953008 0.364544 0.828316
C3_2 C 0.3106(4) 0.0286(6) 0.86395(19)
C4_3 C 0.2978(6) 0.000000 0.750000
N4_3 N 0.4607(5) 0.000000 0.750000
O5_2 O 0.7248(4) 0.0377(8) 0.94651(14)
H4_2 H 0.635456 0.046992 0.921684
O6_6 O 1.000000 0.0905(4) 1.000000
N8_2 N 0.9817(7) 0.3064(4) 0.94084(15)
O1_4 O 0.9095(4) 1.000000 0.750000
C1_4 C 0.7646(6) 1.000000 0.750000
C4_4 C 0.2978(6) 1.000000 0.750000
N4_4 N 0.4607(5) 1.000000 0.750000
N5_2 N 0.6936(4) 0.9817(7) 0.69084(15)
O4_2 O 0.2336(3) 0.9570(5) 0.58382(12)
C5_2 C 0.5412(4) 0.9847(8) 0.6899(2)
N6_2 N 0.4664(4) 0.9695(6) 0.63357(16)
N7_2 N 0.2260(4) 0.9852(7) 0.69298(15)
C6_2 C 0.3106(4) 0.9714(6) 0.63605(19)
H3_2 H 0.716027 0.947268 0.970749
Pr3 Pr 0.95973(2) 0.95973(2) 0.625000
O8_2 O 0.9570(5) 0.7664(3) 0.83382(12)
N10_2 N 0.9852(7) 0.7740(4) 0.94298(15)
C1_5 C 0.000000 0.2354(6) 0.000000
N1_3 N 0.0183(7) 0.3064(4) 0.05916(15)
O2_2 O 0.0430(5) 0.7664(3) 0.16618(12)
C2_3 C 0.0153(8) 0.4588(4) 0.0601(2)
N2_3 N 0.0305(6) 0.5336(4) 0.11643(16)
O3_3 O 0.2752(4) 0.0377(8) 0.05349(14)
H2_3 H 0.364544 0.046992 0.078316
N3_2 N 0.0148(7) 0.7740(4) 0.05702(15)
C3_3 C 0.0286(6) 0.6894(4) 0.11395(19)
C4_5 C 0.000000 0.7022(6) 0.000000
N4_5 N 0.000000 0.5393(5) 0.000000
O5_3 O 0.0377(8) 0.2752(4) 0.19651(14)
H4_3 H 0.046992 0.364544 0.171684
C1_6 C 0.000000 0.2354(6) 1.000000
C4_6 C 0.000000 0.7022(6) 1.000000
N4_6 N 0.000000 0.5393(5) 1.000000
H1_3 H 0.283973 0.947268 0.029251
C1_7 C 1.000000 0.2354(6) 0.000000
C4_7 C 1.000000 0.7022(6) 0.000000
N4_7 N 1.000000 0.5393(5) 0.000000
H3_3 H 0.947268 0.283973 0.220749
C1_8 C 1.000000 0.2354(6) 1.000000
C4_8 C 1.000000 0.7022(6) 1.000000
N4_8 N 1.000000 0.5393(5) 1.000000
C5_3 C 0.9847(8) 0.4588(4) 0.9399(2)
N6_3 N 0.9695(6) 0.5336(4) 0.88357(16)
C6_3 C 0.9714(6) 0.6894(4) 0.88605(19)
C1_9 C 0.000000 0.7646(6) 0.500000
C4_9 C 0.000000 0.2978(6) 0.500000
N4_9 N 0.000000 0.4607(5) 0.500000
C5_4 C 0.0153(8) 0.5412(4) 0.4399(2)
N6_4 N 0.0305(6) 0.4664(4) 0.38357(16)
C6_4 C 0.0286(6) 0.3106(4) 0.38605(19)
H3_4 H 0.052732 0.716027 0.720749
H1_4 H 0.716027 0.052732 0.529251
O7_2 O 0.9570(5) 0.2336(3) 0.66618(12)
N9_2 N 0.9852(7) 0.2260(4) 0.55702(15)
C1_10 C 1.000000 0.7646(6) 0.500000
N1_4 N 0.9817(7) 0.6936(4) 0.55916(15)
C2_4 C 0.9847(8) 0.5412(4) 0.5601(2)
N2_4 N 0.9695(6) 0.4664(4) 0.61643(16)
O3_4 O 0.7248(4) 0.9623(8) 0.55349(14)
H2_4 H 0.635456 0.953008 0.578316
C3_4 C 0.9714(6) 0.3106(4) 0.61395(19)
C4_10 C 1.000000 0.2978(6) 0.500000
N4_10 N 1.000000 0.4607(5) 0.500000
O5_4 O 0.9623(8) 0.7248(4) 0.69651(14)
H4_4 H 0.953008 0.635456 0.671684
loop_
_geom_bond_atom_site_label_1
_geom_bond_atom_site_label_2
_geom_bond_site_symmetry_1
_geom_bond_site_symmetry_2
O1 C1 1_555 1_555
N5 C1 1_555 1_555
O4 C6 1_555 1_555
C5 N4 1_555 1_555
N6 C5 1_555 1_555
N7 C4 1_555 1_555
C6 N6 1_555 1_555
Pr4 O1 1_555 1_555
C4 N4 1_555 1_555
N5 C5 1_555 1_555
N5 Pr4 1_555 1_555
N7 C6 1_555 1_555
Pr2 O1_2 1_555 1_555
O1_2 C1_2 1_555 1_555
C1_2 N1 1_555 1_555
N1 Pr2 1_555 1_555
O2 C3 1_555 1_555
C2 N1 1_555 1_555
N2 C2 1_555 1_555
O3 Pr2 1_555 1_555
H2 O3 1_555 1_555
N3 C3 1_555 1_555
C3 N2 1_555 1_555
C4_2 N3 1_555 1_555
N4_2 C2 1_555 1_555
O5 Pr2 1_555 1_555
H4 O5 1_555 1_555
O6 Pr2 1_555 1_555
N8 Pr2 1_555 1_555
C4_2 N4_2 1_555 1_555
Pr1 O1_3 1_555 1_555
O1_3 C1_3 1_555 1_555
C1_3 N1_2 1_555 1_555
N1_2 Pr1 1_555 1_555
O7 C3_2 1_555 1_555
C2_2 N1_2 1_555 1_555
N2_2 C2_2 1_555 1_555
O3_2 Pr1 1_555 1_555
H2_2 O3_2 1_555 1_555
N9 C3_2 1_555 1_555
C3_2 N2_2 1_555 1_555
C4_3 N9 1_555 1_555
N4_3 C2_2 1_555 1_555
O5_2 Pr1 1_555 1_555
H4_2 O5_2 1_555 1_555
O6_6 Pr1 1_555 1_555
N8_2 Pr1 1_555 1_555
C4_3 N4_3 1_555 1_555
O1_4 C1_4 1_555 1_555
N5_2 C1_4 1_555 1_555
O4_2 C6_2 1_555 1_555
C5_2 N4_4 1_555 1_555
N6_2 C5_2 1_555 1_555
N7_2 C4_4 1_555 1_555
C6_2 N6_2 1_555 1_555
Pr3 O1_4 1_555 1_555
C4_4 N4_4 1_555 1_555
N5_2 C5_2 1_555 1_555
N5_2 Pr3 1_555 1_555
N7_2 C6_2 1_555 1_555
Pr4 O6_3 1_555 1_555
O6_3 C1_5 1_555 1_555
C1_5 N1_3 1_555 1_555
N1_3 Pr4 1_555 1_555
O2_2 C3_3 1_555 1_555
C2_3 N1_3 1_555 1_555
N2_3 C2_3 1_555 1_555
O3_3 Pr4 1_555 1_555
H2_3 O3_3 1_555 1_555
N3_2 C3_3 1_555 1_555
C3_3 N2_3 1_555 1_555
C4_5 N3_2 1_555 1_555
N4_5 C2_3 1_555 1_555
O5_3 Pr4 1_555 1_555
H4_3 O5_3 1_555 1_555
C4_5 N4_5 1_555 1_555
O6_4 C1_6 1_555 1_555
C4_6 N4_6 1_555 1_555
O6_5 C1_7 1_555 1_555
C4_7 N4_7 1_555 1_555
O6_6 C1_8 1_555 1_555
N8_2 C1_8 1_555 1_555
O8_2 C6_3 1_555 1_555
C5_3 N4_8 1_555 1_555
N6_3 C5_3 1_555 1_555
N10_2 C4_8 1_555 1_555
C6_3 N6_3 1_555 1_555
C4_8 N4_8 1_555 1_555
N8_2 C5_3 1_555 1_555
N10_2 C6_3 1_555 1_555
O6 C1_9 1_555 1_555
N8 C1_9 1_555 1_555
O8 C6_4 1_555 1_555
C5_4 N4_9 1_555 1_555
N6_4 C5_4 1_555 1_555
N10 C4_9 1_555 1_555
C6_4 N6_4 1_555 1_555
C4_9 N4_9 1_555 1_555
N8 C5_4 1_555 1_555
N10 C6_4 1_555 1_555
Pr3 O6_2 1_555 1_555
O6_2 C1_10 1_555 1_555
C1_10 N1_4 1_555 1_555
N1_4 Pr3 1_555 1_555
O7_2 C3_4 1_555 1_555
C2_4 N1_4 1_555 1_555
N2_4 C2_4 1_555 1_555
O3_4 Pr3 1_555 1_555
H2_4 O3_4 1_555 1_555
N9_2 C3_4 1_555 1_555
C3_4 N2_4 1_555 1_555
C4_10 N9_2 1_555 1_555
N4_10 C2_4 1_555 1_555
O5_4 Pr3 1_555 1_555
H4_4 O5_4 1_555 1_555
C4_10 N4_10 1_555 1_555

#END
