
###############################################################################
#
# This file contains modified crystal structure data generated from the
# MOF subset of the Cambridge Structural Database (CSD) v543 
# hosted by the Cambridge Crystallographic Data Centre (CCDC).
#
# This work is licensed under the Creative Commons
# Attribution-NonCommercial-ShareAlike 4.0 International License.
# To view a copy of this license, visit
# http://creativecommons.org/licenses/by-nc-sa/4.0/
# or send a letter to
# Creative Commons, PO Box 1866, Mountain View, CA 94042, USA.
#
# CIF created using the CSD Python API on 29 September 2022
# The structure has been converted into the P1 space group
# The structure has a 3D framework
# The original CSD entry SAJFAO is in the tetragonal crystal system
# The original CSD entry SAJFAO is in a Sohncke space group
# The framework has been calculated to contain at least 10.0% void space
# The void calculation uses a probe of radius 1.32A, grid spacing 0.4
#
###############################################################################

data_SAJFAO
_chemical_formula_moiety         '(C36 H16 La4 N34 O26)n'
_symmetry_cell_setting           triclinic
_symmetry_space_group_name_H-M   'P 1'
_symmetry_Int_Tables_number      1
_space_group_name_Hall           'P 1'
loop_
_symmetry_equiv_pos_site_id
_symmetry_equiv_pos_as_xyz
1 x,y,z
_cell_length_a                   8.7522(2)
_cell_length_b                   8.7522(2)
_cell_length_c                   20.2393(5)
_cell_angle_alpha                90
_cell_angle_beta                 90
_cell_angle_gamma                90
_cell_volume                     1550.35
loop_
_atom_site_label
_atom_site_type_symbol
_atom_site_fract_x
_atom_site_fract_y
_atom_site_fract_z
O3 O -0.000000 0.9057(5) 0.500000
C1 C -0.000000 0.7625(8) 0.500000
N4 N -0.000000 0.4612(6) 0.500000
C4 C -0.000000 0.3012(8) 0.500000
O5 O 0.2364(4) 0.9600(8) 0.58424(16)
N5 N 0.2277(5) 0.9851(9) 0.6934(2)
La2 La 0.04059(2) 0.95941(2) 0.375000
N7 N 0.0157(10) 0.6921(5) 0.4411(2)
C5 C 0.0133(11) 0.5402(6) 0.4401(3)
N8 N 0.0295(8) 0.4665(5) 0.3841(2)
N10 N 0.0149(9) 0.2277(5) 0.4434(2)
C6 C 0.0269(9) 0.3107(6) 0.3862(3)
O8 O 0.0400(8) 0.2364(4) 0.33424(16)
O1 O 0.9600(8) 0.2364(4) 0.66576(16)
N1 N 0.9851(9) 0.2277(5) 0.5566(2)
O6 O 0.9057(5) 0.000000 0.750000
La1 La 0.95941(2) 0.95941(2) 0.625000
O2 O 0.7209(5) 0.9627(11) 0.55276(19)
O3_2 O 1.000000 0.9057(5) 0.500000
N2 N 0.9843(10) 0.6921(5) 0.5589(2)
H1 H 0.640475 0.938378 0.576526
H2 H 0.731029 0.896202 0.520575
C1_2 C 1.000000 0.7625(8) 0.500000
C2 C 0.9867(11) 0.5402(6) 0.5599(3)
N3 N 0.9705(8) 0.4665(5) 0.6159(2)
N4_2 N 1.000000 0.4612(6) 0.500000
C3 C 0.9731(9) 0.3107(6) 0.6138(3)
C4_2 C 1.000000 0.3012(8) 0.500000
O4 O 0.9627(11) 0.7209(5) 0.69724(19)
O6_2 O 0.9057(5) 1.000000 0.750000
N6 N 0.6921(5) 0.9843(10) 0.6911(2)
H3 H 0.938378 0.640475 0.673474
H4 H 0.896202 0.731029 0.729425
La3 La 0.04059(2) 0.04059(2) 0.125000
O2_2 O 0.2791(5) 0.0373(11) 0.05276(19)
O3_3 O 0.000000 0.0943(5) -0.000000
N2_2 N 0.0157(10) 0.3079(5) 0.0589(2)
H1_2 H 0.359525 0.061622 0.076526
H2_2 H 0.268971 0.103798 0.020575
C1_3 C 0.000000 0.2375(8) -0.000000
C2_2 C 0.0133(11) 0.4598(6) 0.0599(3)
N3_2 N 0.0295(8) 0.5335(5) 0.1159(2)
N4_3 N 0.000000 0.5388(6) -0.000000
C3_2 C 0.0269(9) 0.6893(6) 0.1138(3)
C4_3 C 0.000000 0.6988(8) -0.000000
O4_2 O 0.0373(11) 0.2791(5) 0.19724(19)
O6_3 O 0.0943(5) -0.000000 0.250000
N6_2 N 0.3079(5) 0.0157(10) 0.1911(2)
H3_2 H 0.061622 0.359525 0.173474
H4_2 H 0.103798 0.268971 0.229425
N9 N 0.0149(9) 0.7723(5) 0.0566(2)
O7 O 0.0400(8) 0.7636(4) 0.16576(16)
O3_4 O 0.000000 0.0943(5) 1.000000
C1_4 C 0.000000 0.2375(8) 1.000000
N4_4 N 0.000000 0.5388(6) 1.000000
C4_4 C 0.000000 0.6988(8) 1.000000
O6_4 O 0.0943(5) 1.000000 0.250000
La4 La 0.95941(2) 0.04059(2) 0.875000
O3_5 O 1.000000 0.0943(5) -0.000000
C1_5 C 1.000000 0.2375(8) -0.000000
N4_5 N 1.000000 0.5388(6) -0.000000
C4_5 C 1.000000 0.6988(8) -0.000000
O5_2 O 0.7636(4) 0.0400(8) 0.08424(16)
N5_2 N 0.7723(5) 0.0149(9) 0.1934(2)
O3_6 O 1.000000 0.0943(5) 1.000000
C1_6 C 1.000000 0.2375(8) 1.000000
N4_6 N 1.000000 0.5388(6) 1.000000
C4_6 C 1.000000 0.6988(8) 1.000000
N7_2 N 0.9843(10) 0.3079(5) 0.9411(2)
C5_2 C 0.9867(11) 0.4598(6) 0.9401(3)
N8_2 N 0.9705(8) 0.5335(5) 0.8841(2)
N10_2 N 0.9851(9) 0.7723(5) 0.9434(2)
C6_2 C 0.9731(9) 0.6893(6) 0.8862(3)
O8_2 O 0.9600(8) 0.7636(4) 0.83424(16)
C1_7 C 0.2375(8) -0.000000 0.250000
N4_7 N 0.5388(6) -0.000000 0.250000
C4_7 C 0.6988(8) -0.000000 0.250000
C5_3 C 0.4598(6) 0.0133(11) 0.1901(3)
N8_3 N 0.5335(5) 0.0295(8) 0.1341(2)
C6_3 C 0.6893(6) 0.0269(9) 0.1362(3)
O2_3 O 0.0373(11) 0.7209(5) 0.30276(19)
N2_3 N 0.3079(5) 0.9843(10) 0.3089(2)
H1_3 H 0.061622 0.640475 0.326526
H2_3 H 0.103798 0.731029 0.270575
C1_8 C 0.2375(8) 1.000000 0.250000
C2_3 C 0.4598(6) 0.9867(11) 0.3099(3)
N3_3 N 0.5335(5) 0.9705(8) 0.3659(2)
N4_8 N 0.5388(6) 1.000000 0.250000
C3_3 C 0.6893(6) 0.9731(9) 0.3638(3)
C4_8 C 0.6988(8) 1.000000 0.250000
O4_3 O 0.2791(5) 0.9627(11) 0.44724(19)
H3_3 H 0.359525 0.938378 0.423474
H4_3 H 0.268971 0.896202 0.479425
N9_2 N 0.7723(5) 0.9851(9) 0.3066(2)
O7_2 O 0.7636(4) 0.9600(8) 0.41576(16)
O1_2 O 0.2364(4) 0.0400(8) 0.91576(16)
N1_2 N 0.2277(5) 0.0149(9) 0.8066(2)
O2_4 O 0.9627(11) 0.2791(5) 0.80276(19)
N2_4 N 0.6921(5) 0.0157(10) 0.8089(2)
H1_4 H 0.938378 0.359525 0.826526
H2_4 H 0.896202 0.268971 0.770575
C1_9 C 0.7625(8) 0.000000 0.750000
C2_4 C 0.5402(6) 0.0133(11) 0.8099(3)
N3_4 N 0.4665(5) 0.0295(8) 0.8659(2)
N4_9 N 0.4612(6) 0.000000 0.750000
C3_4 C 0.3107(6) 0.0269(9) 0.8638(3)
C4_9 C 0.3012(8) 0.000000 0.750000
O4_4 O 0.7209(5) 0.0373(11) 0.94724(19)
H3_4 H 0.640475 0.061622 0.923474
H4_4 H 0.731029 0.103798 0.979425
C1_10 C 0.7625(8) 1.000000 0.750000
N4_10 N 0.4612(6) 1.000000 0.750000
C4_10 C 0.3012(8) 1.000000 0.750000
C5_4 C 0.5402(6) 0.9867(11) 0.6901(3)
N8_4 N 0.4665(5) 0.9705(8) 0.6341(2)
C6_4 C 0.3107(6) 0.9731(9) 0.6362(3)
loop_
_geom_bond_atom_site_label_1
_geom_bond_atom_site_label_2
_geom_bond_site_symmetry_1
_geom_bond_site_symmetry_2
C1 O3 1_555 1_555
C4 N4 1_555 1_555
La2 O3 1_555 1_555
N7 C1 1_555 1_555
C5 N4 1_555 1_555
N8 C5 1_555 1_555
N10 C4 1_555 1_555
C6 N8 1_555 1_555
O8 C6 1_555 1_555
La2 N7 1_555 1_555
N7 C5 1_555 1_555
N10 C6 1_555 1_555
O2 La1 1_555 1_555
O3_2 La1 1_555 1_555
N2 La1 1_555 1_555
H1 O2 1_555 1_555
H2 O2 1_555 1_555
C1_2 O3_2 1_555 1_555
C2 N2 1_555 1_555
N3 C2 1_555 1_555
N4_2 C2 1_555 1_555
C3 N3 1_555 1_555
C4_2 N4_2 1_555 1_555
O4 La1 1_555 1_555
O6_2 La1 1_555 1_555
N6 La1 1_555 1_555
H3 O4 1_555 1_555
H4 O4 1_555 1_555
N1 C3 1_555 1_555
O1 C3 1_555 1_555
N2 C1_2 1_555 1_555
C4_2 N1 1_555 1_555
O2_2 La3 1_555 1_555
O3_3 La3 1_555 1_555
N2_2 La3 1_555 1_555
H1_2 O2_2 1_555 1_555
H2_2 O2_2 1_555 1_555
C1_3 O3_3 1_555 1_555
C2_2 N2_2 1_555 1_555
N3_2 C2_2 1_555 1_555
N4_3 C2_2 1_555 1_555
C3_2 N3_2 1_555 1_555
C4_3 N4_3 1_555 1_555
O4_2 La3 1_555 1_555
O6_3 La3 1_555 1_555
N6_2 La3 1_555 1_555
H3_2 O4_2 1_555 1_555
H4_2 O4_2 1_555 1_555
N9 C3_2 1_555 1_555
O7 C3_2 1_555 1_555
N2_2 C1_3 1_555 1_555
C4_3 N9 1_555 1_555
C1_4 O3_4 1_555 1_555
C4_4 N4_4 1_555 1_555
C1_5 O3_5 1_555 1_555
C4_5 N4_5 1_555 1_555
C1_6 O3_6 1_555 1_555
C4_6 N4_6 1_555 1_555
La4 O3_6 1_555 1_555
N7_2 C1_6 1_555 1_555
C5_2 N4_6 1_555 1_555
N8_2 C5_2 1_555 1_555
N10_2 C4_6 1_555 1_555
C6_2 N8_2 1_555 1_555
O8_2 C6_2 1_555 1_555
La4 N7_2 1_555 1_555
N7_2 C5_2 1_555 1_555
N10_2 C6_2 1_555 1_555
C1_7 O6_3 1_555 1_555
C4_7 N4_7 1_555 1_555
N6_2 C1_7 1_555 1_555
C5_3 N4_7 1_555 1_555
N8_3 C5_3 1_555 1_555
N5_2 C4_7 1_555 1_555
C6_3 N8_3 1_555 1_555
O5_2 C6_3 1_555 1_555
N6_2 C5_3 1_555 1_555
N5_2 C6_3 1_555 1_555
O2_3 La2 1_555 1_555
O6_4 La2 1_555 1_555
N2_3 La2 1_555 1_555
H1_3 O2_3 1_555 1_555
H2_3 O2_3 1_555 1_555
C1_8 O6_4 1_555 1_555
C2_3 N2_3 1_555 1_555
N3_3 C2_3 1_555 1_555
N4_8 C2_3 1_555 1_555
C3_3 N3_3 1_555 1_555
C4_8 N4_8 1_555 1_555
O4_3 La2 1_555 1_555
H3_3 O4_3 1_555 1_555
H4_3 O4_3 1_555 1_555
N9_2 C3_3 1_555 1_555
O7_2 C3_3 1_555 1_555
N2_3 C1_8 1_555 1_555
C4_8 N9_2 1_555 1_555
O2_4 La4 1_555 1_555
O6 La4 1_555 1_555
N2_4 La4 1_555 1_555
H1_4 O2_4 1_555 1_555
H2_4 O2_4 1_555 1_555
C1_9 O6 1_555 1_555
C2_4 N2_4 1_555 1_555
N3_4 C2_4 1_555 1_555
N4_9 C2_4 1_555 1_555
C3_4 N3_4 1_555 1_555
C4_9 N4_9 1_555 1_555
O4_4 La4 1_555 1_555
H3_4 O4_4 1_555 1_555
H4_4 O4_4 1_555 1_555
N1_2 C3_4 1_555 1_555
O1_2 C3_4 1_555 1_555
N2_4 C1_9 1_555 1_555
C4_9 N1_2 1_555 1_555
C1_10 O6_2 1_555 1_555
C4_10 N4_10 1_555 1_555
N6 C1_10 1_555 1_555
C5_4 N4_10 1_555 1_555
N8_4 C5_4 1_555 1_555
N5 C4_10 1_555 1_555
C6_4 N8_4 1_555 1_555
O5 C6_4 1_555 1_555
N6 C5_4 1_555 1_555
N5 C6_4 1_555 1_555

#END
