
###############################################################################
#
# This file contains modified crystal structure data generated from the
# MOF subset of the Cambridge Structural Database (CSD) v543 
# hosted by the Cambridge Crystallographic Data Centre (CCDC).
#
# This work is licensed under the Creative Commons
# Attribution-NonCommercial-ShareAlike 4.0 International License.
# To view a copy of this license, visit
# http://creativecommons.org/licenses/by-nc-sa/4.0/
# or send a letter to
# Creative Commons, PO Box 1866, Mountain View, CA 94042, USA.
#
# CIF created using the CSD Python API on 29 September 2022
# The structure has been converted into the P1 space group
# The structure has a 3D framework
# The original CSD entry SAKRAZ is in the orthorhombic crystal system
# The original CSD entry SAKRAZ is in a Sohncke space group
# The framework has been calculated to contain at least 10.0% void space
# The void calculation uses a probe of radius 1.32A, grid spacing 0.4
#
###############################################################################

data_SAKRAZ
_chemical_formula_moiety         '(C56 H60 N4 O32 Zn8)n'
_symmetry_cell_setting           triclinic
_symmetry_space_group_name_H-M   'P 1'
_symmetry_Int_Tables_number      1
_space_group_name_Hall           'P 1'
loop_
_symmetry_equiv_pos_site_id
_symmetry_equiv_pos_as_xyz
1 x,y,z
_cell_length_a                   10.334(2)
_cell_length_b                   11.672(2)
_cell_length_c                   20.341(4)
_cell_angle_alpha                90
_cell_angle_beta                 90
_cell_angle_gamma                90
_cell_volume                     2453.5
loop_
_atom_site_label
_atom_site_type_symbol
_atom_site_fract_x
_atom_site_fract_y
_atom_site_fract_z
Zn6 Zn 0.03438(3) 0.08053(3) 0.007170(19)
O11 O 0.0313(2) 0.3803(2) 0.97586(13)
O1 O 0.8234(2) 0.4171(2) 0.07101(11)
O2 O 0.6091(2) 0.4462(2) 0.08297(11)
O3 O 0.9052(2) 0.5399(2) 0.40334(12)
O4 O 0.6944(2) 0.5838(2) 0.40903(12)
C1 C 0.7237(3) 0.4436(3) 0.10387(15)
C2 C 0.7439(3) 0.4758(3) 0.17451(16)
C3 C 0.8663(3) 0.4648(3) 0.20312(17)
H1 H 0.9359 0.4393 0.1781
C4 C 0.6405(3) 0.5173(3) 0.21160(17)
H2 H 0.5600 0.5281 0.1920
C5 C 0.8839(3) 0.4921(3) 0.26940(16)
H3 H 0.9652 0.4854 0.2886
C6 C 0.6576(3) 0.5424(3) 0.27736(17)
H4 H 0.5881 0.5680 0.3024
C7 C 0.7790(3) 0.5293(3) 0.30636(16)
C8 C 0.7948(3) 0.5541(3) 0.37917(15)
O6 O 0.5313(2) 0.1197(2) 0.02414(13)
O7 O 0.8707(2) 0.16134(17) 0.00579(12)
C9 C 0.6375(3) 0.1688(3) 0.01257(14)
C10 C 0.7600(3) 0.1049(3) 0.03165(17)
H5 H 0.7559 0.0277 0.0128
C11 C 0.7664(3) 0.0942(3) 0.10628(18)
H6 H 0.8433 0.0533 0.1184
H7 H 0.6918 0.0533 0.1218
H8 H 0.7681 0.1692 0.1256
N1 N 0.4403(3) 0.7655(2) 0.04140(17)
C12 C 0.4846(3) 0.6611(3) 0.03948(17)
H9 H 0.5433 0.6400 0.0720
C13 C 0.4802(5) 0.8470(4) 0.0935(2)
H10 H 0.5453 0.8122 0.1206
H11 H 0.4066 0.8666 0.1200
H12 H 0.5146 0.9151 0.0736
H15 H 0.2628 0.8216 0.0182
Zn3 Zn 0.65269(3) 0.67487(3) 0.488535(19)
Zn4 Zn 0.34731(3) 0.17487(3) 0.011465(19)
Zn5 Zn 0.96562(3) 0.58053(3) 0.492830(19)
Zn1 Zn 0.84731(3) 0.32513(3) 0.988535(19)
Zn2 Zn 0.53438(3) 0.41947(3) 0.992830(19)
O5 O 0.6496(2) 0.26876(19) 0.99016(12)
O8 O 0.4555(2) 0.58719(19) 0.99823(12)
C14 C 0.3409(4) 0.8036(4) 0.9947(3)
H13 H 0.3239 0.7437 0.9636
H14 H 0.3709 0.8706 0.9719
O9 O 0.5948(2) 0.4601(2) 0.90334(12)
O10 O 0.8056(2) 0.4162(2) 0.90903(12)
O12 O 0.3707(2) 0.33866(17) 0.99421(12)
O8_2 O 0.0445(2) 0.41281(19) 0.49823(12)
N1_2 N 0.0597(3) 0.2345(2) 0.54140(17)
C12_2 C 0.0154(3) 0.3389(3) 0.53948(17)
C13_2 C 0.0198(5) 0.1530(4) 0.5935(2)
H11_2 H 0.0934 0.1334 0.6200
C14_2 C 0.1591(4) 0.1964(4) 0.4947(3)
H13_2 H 0.1761 0.2563 0.4636
H14_2 H 0.1291 0.1294 0.4719
H15_2 H 0.2372 0.1784 0.5182
Zn4_2 Zn 0.15269(3) 0.82513(3) 0.511465(19)
O12_2 O 0.1293(2) 0.66134(17) 0.49421(12)
O1_2 O 0.6766(2) 0.5829(2) 0.57101(11)
O2_2 O 0.8909(2) 0.5538(2) 0.58297(11)
C1_2 C 0.7763(3) 0.5564(3) 0.60387(15)
C2_2 C 0.7561(3) 0.5242(3) 0.67451(16)
C3_2 C 0.6337(3) 0.5352(3) 0.70312(17)
H1_2 H 0.5641 0.5607 0.6781
C4_2 C 0.8595(3) 0.4827(3) 0.71160(17)
H2_2 H 0.9400 0.4719 0.6920
C5_2 C 0.6161(3) 0.5079(3) 0.76940(16)
H3_2 H 0.5348 0.5146 0.7886
C6_2 C 0.8424(3) 0.4576(3) 0.77736(17)
H4_2 H 0.9119 0.4320 0.8024
C7_2 C 0.7210(3) 0.4707(3) 0.80636(16)
C8_2 C 0.7052(3) 0.4459(3) 0.87917(15)
O5_2 O 0.8504(2) 0.73124(19) 0.49016(12)
O6_2 O 0.9687(2) 0.8803(2) 0.52414(13)
O7_2 O 0.6293(2) 0.83866(17) 0.50579(12)
C9_2 C 0.8625(3) 0.8312(3) 0.51257(14)
C10_2 C 0.7400(3) 0.8951(3) 0.53165(17)
H5_2 H 0.7441 0.9723 0.5128
C11_2 C 0.7336(3) 0.9058(3) 0.60628(18)
H6_2 H 0.6567 0.9467 0.6184
H7_2 H 0.8082 0.9467 0.6218
H8_2 H 0.7319 0.8308 0.6256
H9_2 H 0.9567 0.3600 0.5720
H10_2 H 0.9547 0.1878 0.6206
H12_2 H 0.9854 0.0849 0.5736
Zn6_2 Zn 0.46562(3) 0.91947(3) 0.507170(19)
O11_2 O 0.4687(2) 0.6197(2) 0.47586(13)
O3_2 O 0.0948(2) 0.0399(2) 0.09666(12)
O4_2 O 0.3056(2) 0.0838(2) 0.09097(12)
C4_3 C 0.3595(3) 0.0173(3) 0.28840(17)
H2_3 H 0.4400 0.0281 0.3080
C6_3 C 0.3424(3) 0.0424(3) 0.22264(17)
H4_3 H 0.4119 0.0680 0.1976
C7_3 C 0.2210(3) 0.0293(3) 0.19364(16)
C8_3 C 0.2052(3) 0.0541(3) 0.12083(15)
O8_3 O 0.5445(2) 0.08719(19) 0.50177(12)
N1_3 N 0.5597(3) 0.2655(2) 0.45860(17)
C12_3 C 0.5154(3) 0.1611(3) 0.46052(17)
H9_3 H 0.4567 0.1400 0.4280
C13_3 C 0.5198(5) 0.3470(4) 0.4065(2)
H10_3 H 0.4547 0.3122 0.3794
H11_3 H 0.5934 0.3666 0.3800
H12_3 H 0.4854 0.4151 0.4264
C14_3 C 0.6591(4) 0.3036(4) 0.5053(3)
H13_3 H 0.6761 0.2437 0.5364
H14_3 H 0.6291 0.3706 0.5281
H15_3 H 0.7372 0.3216 0.4818
O1_3 O 0.1766(2) 0.9171(2) 0.42899(11)
O2_3 O 0.3909(2) 0.9462(2) 0.41703(11)
C1_3 C 0.2763(3) 0.9436(3) 0.39613(15)
C2_3 C 0.2561(3) 0.9758(3) 0.32549(16)
C3_3 C 0.1337(3) 0.9648(3) 0.29688(17)
H1_3 H 0.0641 0.9393 0.3219
C5_3 C 0.1161(3) 0.9921(3) 0.23060(16)
H3_3 H 0.0348 0.9854 0.2114
O5_3 O 0.3504(2) 0.76876(19) 0.50984(12)
C9_3 C 0.3625(3) 0.6688(3) 0.48743(14)
C10_3 C 0.2400(3) 0.6049(3) 0.46835(17)
H5_3 H 0.2441 0.5277 0.4872
C11_3 C 0.2336(3) 0.5942(3) 0.39372(18)
H6_3 H 0.1567 0.5533 0.3816
H7_3 H 0.3082 0.5533 0.3782
H8_3 H 0.2319 0.6692 0.3744
O9_2 O 0.4052(2) 0.9601(2) 0.59666(12)
O10_2 O 0.1944(2) 0.9162(2) 0.59097(12)
O5_4 O 0.1496(2) 0.23124(19) 0.00984(12)
O1_4 O 0.3234(2) 0.0829(2) 0.92899(11)
O2_4 O 0.1091(2) 0.0538(2) 0.91703(11)
C1_4 C 0.2237(3) 0.0564(3) 0.89613(15)
C2_4 C 0.2439(3) 0.0242(3) 0.82549(16)
C3_4 C 0.3663(3) 0.0352(3) 0.79688(17)
H1_4 H 0.4359 0.0607 0.8219
C5_4 C 0.3839(3) 0.0079(3) 0.73060(16)
H3_4 H 0.4652 0.0146 0.7114
C9_4 C 0.1375(3) 0.3312(3) 0.98743(14)
C10_4 C 0.2600(3) 0.3951(3) 0.96835(17)
H5_4 H 0.2559 0.4723 0.9872
C11_4 C 0.2664(3) 0.4058(3) 0.89372(18)
H6_4 H 0.3433 0.4467 0.8816
H7_4 H 0.1918 0.4467 0.8782
H8_4 H 0.2681 0.3308 0.8744
C4_4 C 0.1405(3) 0.9827(3) 0.78840(17)
H2_4 H 0.0600 0.9719 0.8080
C6_4 C 0.1576(3) 0.9576(3) 0.72264(17)
H4_4 H 0.0881 0.9320 0.6976
C7_4 C 0.2790(3) 0.9707(3) 0.69364(16)
C8_4 C 0.2948(3) 0.9459(3) 0.62083(15)
H9_4 H 0.0433 0.8600 0.9280
H10_4 H 0.0453 0.6878 0.8794
H12_4 H 0.0146 0.5849 0.9264
O8_4 O 0.9555(2) 0.91281(19) 0.00177(12)
C14_4 C 0.8409(4) 0.6964(4) 0.0053(3)
H13_4 H 0.8239 0.7563 0.0364
H14_4 H 0.8709 0.6294 0.0281
N1_4 N 0.9403(3) 0.7345(2) 0.95860(17)
C12_4 C 0.9846(3) 0.8389(3) 0.96052(17)
C13_4 C 0.9802(5) 0.6530(4) 0.9065(2)
H11_4 H 0.9066 0.6334 0.8800
H15_4 H 0.7628 0.6784 0.9818
loop_
_geom_bond_atom_site_label_1
_geom_bond_atom_site_label_2
_geom_bond_site_symmetry_1
_geom_bond_site_symmetry_2
O1 C1 1_555 1_555
O2 C1 1_555 1_555
O3 C8 1_555 1_555
O4 C8 1_555 1_555
C1 C2 1_555 1_555
C2 C3 1_555 1_555
C3 H1 1_555 1_555
C4 C2 1_555 1_555
H2 C4 1_555 1_555
C5 C3 1_555 1_555
H3 C5 1_555 1_555
C6 C4 1_555 1_555
H4 C6 1_555 1_555
C7 C5 1_555 1_555
C8 C7 1_555 1_555
O6 C9 1_555 1_555
C10 O7 1_555 1_555
H5 C10 1_555 1_555
C11 C10 1_555 1_555
H6 C11 1_555 1_555
H7 C11 1_555 1_555
H8 C11 1_555 1_555
N1 C12 1_555 1_555
H9 C12 1_555 1_555
C13 N1 1_555 1_555
H10 C13 1_555 1_555
H11 C13 1_555 1_555
H12 C13 1_555 1_555
Zn3 O4 1_555 1_555
Zn4 O6 1_555 1_555
Zn5 O3 1_555 1_555
C6 C7 1_555 1_555
C9 C10 1_555 1_555
O5 Zn1 1_555 1_555
O8 Zn2 1_555 1_555
H13 C14 1_555 1_555
H14 C14 1_555 1_555
O9 Zn2 1_555 1_555
O10 Zn1 1_555 1_555
O12 Zn2 1_555 1_555
Zn2 O5 1_555 1_555
N1_2 C12_2 1_555 1_555
C12_2 O8_2 1_555 1_555
C13_2 N1_2 1_555 1_555
H11_2 C13_2 1_555 1_555
C14_2 N1_2 1_555 1_555
H13_2 C14_2 1_555 1_555
H14_2 C14_2 1_555 1_555
H15_2 C14_2 1_555 1_555
Zn4_2 O12_2 1_555 1_555
Zn3 O1_2 1_555 1_555
Zn5 O2_2 1_555 1_555
O1_2 C1_2 1_555 1_555
O2_2 C1_2 1_555 1_555
O9 C8_2 1_555 1_555
O10 C8_2 1_555 1_555
C1_2 C2_2 1_555 1_555
C2_2 C3_2 1_555 1_555
C3_2 H1_2 1_555 1_555
C4_2 C2_2 1_555 1_555
H2_2 C4_2 1_555 1_555
C5_2 C3_2 1_555 1_555
H3_2 C5_2 1_555 1_555
C6_2 C4_2 1_555 1_555
H4_2 C6_2 1_555 1_555
C7_2 C5_2 1_555 1_555
C8_2 C7_2 1_555 1_555
O5_2 Zn3 1_555 1_555
O6_2 C9_2 1_555 1_555
O7_2 Zn3 1_555 1_555
C9_2 O5_2 1_555 1_555
C10_2 O7_2 1_555 1_555
H5_2 C10_2 1_555 1_555
C11_2 C10_2 1_555 1_555
H6_2 C11_2 1_555 1_555
H7_2 C11_2 1_555 1_555
H8_2 C11_2 1_555 1_555
Zn6_2 O7_2 1_555 1_555
O11_2 Zn3 1_555 1_555
Zn5 O5_2 1_555 1_555
C6_2 C7_2 1_555 1_555
C9_2 C10_2 1_555 1_555
O3_2 C8_3 1_555 1_555
O4_2 C8_3 1_555 1_555
H2_3 C4_3 1_555 1_555
C6_3 C4_3 1_555 1_555
H4_3 C6_3 1_555 1_555
C8_3 C7_3 1_555 1_555
N1_3 C12_3 1_555 1_555
C12_3 O8_3 1_555 1_555
H9_3 C12_3 1_555 1_555
C13_3 N1_3 1_555 1_555
H10_3 C13_3 1_555 1_555
H11_3 C13_3 1_555 1_555
H12_3 C13_3 1_555 1_555
C14_3 N1_3 1_555 1_555
H13_3 C14_3 1_555 1_555
H14_3 C14_3 1_555 1_555
H15_3 C14_3 1_555 1_555
Zn4 O4_2 1_555 1_555
Zn6 O3_2 1_555 1_555
C6_3 C7_3 1_555 1_555
Zn4_2 O1_3 1_555 1_555
Zn6_2 O2_3 1_555 1_555
O1_3 C1_3 1_555 1_555
O2_3 C1_3 1_555 1_555
C1_3 C2_3 1_555 1_555
C2_3 C3_3 1_555 1_555
C3_3 H1_3 1_555 1_555
C5_3 C3_3 1_555 1_555
H3_3 C5_3 1_555 1_555
O5_3 Zn4_2 1_555 1_555
O11_2 C9_3 1_555 1_555
C9_3 O5_3 1_555 1_555
C10_3 O12_2 1_555 1_555
H5_3 C10_3 1_555 1_555
C11_3 C10_3 1_555 1_555
H6_3 C11_3 1_555 1_555
H7_3 C11_3 1_555 1_555
H8_3 C11_3 1_555 1_555
O9_2 Zn6_2 1_555 1_555
O10_2 Zn4_2 1_555 1_555
Zn6_2 O5_3 1_555 1_555
C9_3 C10_3 1_555 1_555
O5_4 Zn4 1_555 1_555
Zn6 O5_4 1_555 1_555
O1_4 C1_4 1_555 1_555
O2_4 C1_4 1_555 1_555
C1_4 C2_4 1_555 1_555
C2_4 C3_4 1_555 1_555
C3_4 H1_4 1_555 1_555
C5_4 C3_4 1_555 1_555
H3_4 C5_4 1_555 1_555
O11 C9_4 1_555 1_555
C10_4 O12 1_555 1_555
H5_4 C10_4 1_555 1_555
C11_4 C10_4 1_555 1_555
H6_4 C11_4 1_555 1_555
H7_4 C11_4 1_555 1_555
H8_4 C11_4 1_555 1_555
C9_4 C10_4 1_555 1_555
O9_2 C8_4 1_555 1_555
O10_2 C8_4 1_555 1_555
H2_4 C4_4 1_555 1_555
C6_4 C4_4 1_555 1_555
H4_4 C6_4 1_555 1_555
C8_4 C7_4 1_555 1_555
C6_4 C7_4 1_555 1_555
H13_4 C14_4 1_555 1_555
H14_4 C14_4 1_555 1_555
N1_4 C12_4 1_555 1_555
C13_4 N1_4 1_555 1_555
H11_4 C13_4 1_555 1_555

#END
