
###############################################################################
#
# This file contains modified crystal structure data generated from the
# MOF subset of the Cambridge Structural Database (CSD) v543 
# hosted by the Cambridge Crystallographic Data Centre (CCDC).
#
# This work is licensed under the Creative Commons
# Attribution-NonCommercial-ShareAlike 4.0 International License.
# To view a copy of this license, visit
# http://creativecommons.org/licenses/by-nc-sa/4.0/
# or send a letter to
# Creative Commons, PO Box 1866, Mountain View, CA 94042, USA.
#
# CIF created using the CSD Python API on 29 September 2022
# The structure has been converted into the P1 space group
# The structure has a 3D framework
# The original CSD entry SAKRED is in the orthorhombic crystal system
# The original CSD entry SAKRED is in a Sohncke space group
# The framework has been calculated to contain at least 10.0% void space
# The void calculation uses a probe of radius 1.32A, grid spacing 0.4
#
###############################################################################

data_SAKRED
_chemical_formula_moiety         '(C56 H60 N4 O32 Zn8)n'
_symmetry_cell_setting           triclinic
_symmetry_space_group_name_H-M   'P 1'
_symmetry_Int_Tables_number      1
_space_group_name_Hall           'P 1'
loop_
_symmetry_equiv_pos_site_id
_symmetry_equiv_pos_as_xyz
1 x,y,z
_cell_length_a                   10.337(2)
_cell_length_b                   11.649(2)
_cell_length_c                   20.464(4)
_cell_angle_alpha                90
_cell_angle_beta                 90
_cell_angle_gamma                90
_cell_volume                     2464.19
loop_
_atom_site_label
_atom_site_type_symbol
_atom_site_fract_x
_atom_site_fract_y
_atom_site_fract_z
O1 O 0.3329(2) 0.4141(2) 0.07553(12)
O2 O 0.1219(3) 0.4579(2) 0.07990(12)
O3 O 0.3818(2) 0.5353(2) 0.40725(12)
O4 O 0.1800(2) 0.6088(2) 0.40491(13)
C1 C 0.2329(3) 0.4467(3) 0.10468(16)
C2 C 0.2454(3) 0.4778(3) 0.17575(17)
C3 C 0.1384(3) 0.5187(3) 0.20975(17)
H1 H 0.0596 0.5274 0.1884
C4 C 0.3629(4) 0.4654(4) 0.20773(18)
H2 H 0.4346 0.4385 0.1850
C5 C 0.1489(3) 0.5467(3) 0.27605(17)
H3 H 0.0773 0.5743 0.2986
C6 C 0.3740(3) 0.4929(4) 0.27356(17)
H4 H 0.4531 0.4844 0.2947
C7 C 0.2666(3) 0.5332(3) 0.30809(16)
C8 C 0.2772(3) 0.5620(3) 0.37939(17)
O6 O 0.0403(2) 0.1156(2) 0.01848(13)
O7 O 0.3801(2) 0.15880(19) 0.00706(14)
C9 C 0.1460(3) 0.1670(3) 0.01210(15)
C10 C 0.2676(3) 0.1004(3) 0.02896(19)
H5 H 0.2636 0.0254 0.0073
C11 C 0.2732(3) 0.0813(4) 0.1028(2)
H6 H 0.3501 0.0392 0.1136
H7 H 0.1986 0.0385 0.1165
H8 H 0.2743 0.1541 0.1247
H9 H 0.0401 0.6435 0.0705
H13 H 0.0269 0.8171 0.1177
Zn3 Zn 0.45646(3) 0.57766(3) 0.49322(2)
Zn4 Zn 0.54354(3) 0.07766(3) 0.00678(2)
Zn5 Zn 0.14300(3) 0.67521(3) 0.49272(2)
Zn1 Zn 0.04354(3) 0.42234(3) 0.99322(2)
Zn2 Zn 0.35700(3) 0.32479(3) 0.99272(2)
O5 O 0.1586(2) 0.2708(2) 0.99465(12)
O9 O 0.1182(2) 0.4647(2) 0.90725(12)
O10 O 0.3200(2) 0.3912(2) 0.90491(13)
O11 O 0.5403(2) 0.3844(2) 0.98152(13)
N1 N 0.9322(3) 0.7663(3) 0.03800(19)
C12 C 0.9832(4) 0.6628(3) 0.03705(19)
H12 H 0.7569 0.8172 0.0097
C14 C 0.9628(6) 0.8489(4) 0.0890(3)
H14 H 0.8860 0.8663 0.1134
H15 H 0.9958 0.9179 0.0695
Zn6 Zn 0.85700(3) 0.17521(3) 0.00728(2)
O8 O 0.9608(2) 0.5892(2) 0.99478(13)
C13 C 0.8384(5) 0.8018(4) 0.9890(3)
H10 H 0.8277 0.7416 0.9574
H11 H 0.8687 0.8700 0.9675
O12 O 0.8801(2) 0.34120(19) 0.99294(14)
O1_2 O 0.1671(2) 0.5859(2) 0.57553(12)
O2_2 O 0.3781(3) 0.5421(2) 0.57990(12)
C1_2 C 0.2671(3) 0.5533(3) 0.60468(16)
C2_2 C 0.2546(3) 0.5222(3) 0.67575(17)
C3_2 C 0.3616(3) 0.4813(3) 0.70975(17)
H1_2 H 0.4404 0.4726 0.6884
C4_2 C 0.1371(4) 0.5346(4) 0.70773(18)
H2_2 H 0.0654 0.5615 0.6850
C5_2 C 0.3511(3) 0.4533(3) 0.77605(17)
H3_2 H 0.4227 0.4257 0.7986
C6_2 C 0.1260(3) 0.5071(4) 0.77356(17)
H4_2 H 0.0469 0.5156 0.7947
C7_2 C 0.2334(3) 0.4668(3) 0.80809(16)
C8_2 C 0.2228(3) 0.4380(3) 0.87939(17)
O5_2 O 0.3414(2) 0.7292(2) 0.49465(12)
O6_2 O 0.4597(2) 0.8844(2) 0.51848(13)
O7_2 O 0.1199(2) 0.84120(19) 0.50706(14)
C9_2 C 0.3540(3) 0.8330(3) 0.51210(15)
C10_2 C 0.2324(3) 0.8996(3) 0.52896(19)
H5_2 H 0.2364 0.9746 0.5073
C11_2 C 0.2268(3) 0.9187(4) 0.6028(2)
H6_2 H 0.1499 0.9608 0.6136
H7_2 H 0.3014 0.9615 0.6165
H8_2 H 0.2257 0.8459 0.6247
O8_2 O 0.5392(2) 0.4108(2) 0.49478(13)
N1_2 N 0.5678(3) 0.2337(3) 0.53800(19)
C12_2 C 0.5168(4) 0.3372(3) 0.53705(19)
H9_2 H 0.4599 0.3565 0.5705
C13_2 C 0.6616(5) 0.1982(4) 0.4890(3)
H10_2 H 0.6723 0.2584 0.4574
H11_2 H 0.6313 0.1300 0.4675
H12_2 H 0.7431 0.1828 0.5097
C14_2 C 0.5372(6) 0.1511(4) 0.5890(3)
H13_2 H 0.4731 0.1829 0.6177
H14_2 H 0.6140 0.1337 0.6134
H15_2 H 0.5042 0.0821 0.5695
Zn6_2 Zn 0.64300(3) 0.82479(3) 0.50728(2)
O12_2 O 0.6199(2) 0.65880(19) 0.49294(14)
Zn4_2 Zn 0.95646(3) 0.92234(3) 0.50678(2)
O11_2 O 0.9597(2) 0.6156(2) 0.48152(13)
O3_2 O 0.6182(2) 0.0353(2) 0.09275(12)
O4_2 O 0.8200(2) 0.1088(2) 0.09509(13)
C3_3 C 0.8616(3) 0.0187(3) 0.29025(17)
H1_3 H 0.9404 0.0274 0.3116
C5_3 C 0.8511(3) 0.0467(3) 0.22395(17)
H3_3 H 0.9227 0.0743 0.2014
C7_3 C 0.7334(3) 0.0332(3) 0.19191(16)
C8_3 C 0.7228(3) 0.0620(3) 0.12061(17)
H9_3 H 0.9599 0.1435 0.4295
H13_3 H 0.9731 0.3171 0.3823
O1_3 O 0.6671(2) 0.9141(2) 0.42447(12)
O2_3 O 0.8781(3) 0.9579(2) 0.42010(12)
C1_3 C 0.7671(3) 0.9467(3) 0.39532(16)
C2_3 C 0.7546(3) 0.9778(3) 0.32425(17)
C4_3 C 0.6371(4) 0.9654(4) 0.29227(18)
H2_3 H 0.5654 0.9385 0.3150
C6_3 C 0.6260(3) 0.9929(4) 0.22644(17)
H4_3 H 0.5469 0.9844 0.2053
O5_3 O 0.8414(2) 0.7708(2) 0.50535(12)
C9_3 C 0.8540(3) 0.6670(3) 0.48790(15)
C10_3 C 0.7324(3) 0.6004(3) 0.47104(19)
H5_3 H 0.7364 0.5254 0.4927
C11_3 C 0.7268(3) 0.5813(4) 0.3972(2)
H6_3 H 0.6499 0.5392 0.3864
H7_3 H 0.8014 0.5385 0.3835
H8_3 H 0.7257 0.6541 0.3753
O9_2 O 0.8818(2) 0.9647(2) 0.59275(12)
O10_2 O 0.6800(2) 0.8912(2) 0.59509(13)
O5_4 O 0.6586(2) 0.2292(2) 0.00535(12)
O1_4 O 0.8329(2) 0.0859(2) 0.92447(12)
O2_4 O 0.6219(3) 0.0421(2) 0.92010(12)
C1_4 C 0.7329(3) 0.0533(3) 0.89532(16)
C2_4 C 0.7454(3) 0.0222(3) 0.82425(17)
C4_4 C 0.8629(4) 0.0346(4) 0.79227(18)
H2_4 H 0.9346 0.0615 0.8150
C6_4 C 0.8740(3) 0.0071(4) 0.72644(17)
H4_4 H 0.9531 0.0156 0.7053
C9_4 C 0.6460(3) 0.3330(3) 0.98790(15)
C10_4 C 0.7676(3) 0.3996(3) 0.97104(19)
H5_4 H 0.7636 0.4746 0.9927
C11_4 C 0.7732(3) 0.4187(4) 0.8972(2)
H6_4 H 0.8501 0.4608 0.8864
H7_4 H 0.6986 0.4615 0.8835
H8_4 H 0.7743 0.3459 0.8753
C3_4 C 0.6384(3) 0.9813(3) 0.79025(17)
H1_4 H 0.5596 0.9726 0.8116
C5_4 C 0.6489(3) 0.9533(3) 0.72395(17)
H3_4 H 0.5773 0.9257 0.7014
C7_4 C 0.7666(3) 0.9668(3) 0.69191(16)
C8_4 C 0.7772(3) 0.9380(3) 0.62061(17)
N1_3 N 0.4322(3) 0.7337(3) 0.96200(19)
C12_3 C 0.4832(4) 0.8372(3) 0.96295(19)
H9_4 H 0.5401 0.8565 0.9295
H12_3 H 0.2569 0.6828 0.9903
C14_3 C 0.4628(6) 0.6511(4) 0.9110(3)
H13_4 H 0.5269 0.6829 0.8823
H14_3 H 0.3860 0.6337 0.8866
H15_3 H 0.4958 0.5821 0.9305
O8_3 O 0.0392(2) 0.0892(2) 0.50522(13)
N1_4 N 0.0678(3) 0.2663(3) 0.46200(19)
C12_4 C 0.0168(4) 0.1628(3) 0.46295(19)
C13_3 C 0.1616(5) 0.3018(4) 0.5110(3)
H10_3 H 0.1723 0.2416 0.5426
H11_3 H 0.1313 0.3700 0.5325
H12_4 H 0.2431 0.3172 0.4903
C14_4 C 0.0372(6) 0.3489(4) 0.4110(3)
H14_4 H 0.1140 0.3663 0.3866
H15_4 H 0.0042 0.4179 0.4305
O8_4 O 0.4608(2) 0.9108(2) 0.00522(13)
C13_4 C 0.3384(5) 0.6982(4) 0.0110(3)
H10_4 H 0.3277 0.7584 0.0426
H11_4 H 0.3687 0.6300 0.0325
loop_
_geom_bond_atom_site_label_1
_geom_bond_atom_site_label_2
_geom_bond_site_symmetry_1
_geom_bond_site_symmetry_2
O1 C1 1_555 1_555
O2 C1 1_555 1_555
O3 C8 1_555 1_555
O4 C8 1_555 1_555
C1 C2 1_555 1_555
C2 C3 1_555 1_555
C3 H1 1_555 1_555
C4 C2 1_555 1_555
H2 C4 1_555 1_555
C5 C3 1_555 1_555
H3 C5 1_555 1_555
C6 C4 1_555 1_555
H4 C6 1_555 1_555
C7 C5 1_555 1_555
C8 C7 1_555 1_555
O6 C9 1_555 1_555
C10 O7 1_555 1_555
H5 C10 1_555 1_555
C11 C10 1_555 1_555
H6 C11 1_555 1_555
H7 C11 1_555 1_555
H8 C11 1_555 1_555
Zn3 O3 1_555 1_555
Zn4 O7 1_555 1_555
Zn5 O4 1_555 1_555
C6 C7 1_555 1_555
C9 C10 1_555 1_555
O5 Zn1 1_555 1_555
O9 Zn1 1_555 1_555
O10 Zn2 1_555 1_555
O11 Zn2 1_555 1_555
Zn2 O5 1_555 1_555
N1 C12 1_555 1_555
C14 N1 1_555 1_555
H14 C14 1_555 1_555
H15 C14 1_555 1_555
H10 C13 1_555 1_555
H11 C13 1_555 1_555
Zn3 O2_2 1_555 1_555
Zn5 O1_2 1_555 1_555
O1_2 C1_2 1_555 1_555
O2_2 C1_2 1_555 1_555
O9 C8_2 1_555 1_555
O10 C8_2 1_555 1_555
C1_2 C2_2 1_555 1_555
C2_2 C3_2 1_555 1_555
C3_2 H1_2 1_555 1_555
C4_2 C2_2 1_555 1_555
H2_2 C4_2 1_555 1_555
C5_2 C3_2 1_555 1_555
H3_2 C5_2 1_555 1_555
C6_2 C4_2 1_555 1_555
H4_2 C6_2 1_555 1_555
C7_2 C5_2 1_555 1_555
C8_2 C7_2 1_555 1_555
O5_2 Zn3 1_555 1_555
O6_2 C9_2 1_555 1_555
O7_2 Zn5 1_555 1_555
C9_2 O5_2 1_555 1_555
C10_2 O7_2 1_555 1_555
H5_2 C10_2 1_555 1_555
C11_2 C10_2 1_555 1_555
H6_2 C11_2 1_555 1_555
H7_2 C11_2 1_555 1_555
H8_2 C11_2 1_555 1_555
O8_2 Zn3 1_555 1_555
N1_2 C12_2 1_555 1_555
C12_2 O8_2 1_555 1_555
H9_2 C12_2 1_555 1_555
C13_2 N1_2 1_555 1_555
H10_2 C13_2 1_555 1_555
H11_2 C13_2 1_555 1_555
H12_2 C13_2 1_555 1_555
C14_2 N1_2 1_555 1_555
H13_2 C14_2 1_555 1_555
H14_2 C14_2 1_555 1_555
H15_2 C14_2 1_555 1_555
Zn6_2 O6_2 1_555 1_555
O12_2 Zn3 1_555 1_555
Zn5 O5_2 1_555 1_555
C6_2 C7_2 1_555 1_555
C9_2 C10_2 1_555 1_555
Zn6_2 O12_2 1_555 1_555
O3_2 C8_3 1_555 1_555
O4_2 C8_3 1_555 1_555
C3_3 H1_3 1_555 1_555
C5_3 C3_3 1_555 1_555
H3_3 C5_3 1_555 1_555
C7_3 C5_3 1_555 1_555
C8_3 C7_3 1_555 1_555
Zn4 O3_2 1_555 1_555
Zn6 O4_2 1_555 1_555
Zn4_2 O2_3 1_555 1_555
Zn6_2 O1_3 1_555 1_555
O1_3 C1_3 1_555 1_555
O2_3 C1_3 1_555 1_555
C1_3 C2_3 1_555 1_555
C4_3 C2_3 1_555 1_555
H2_3 C4_3 1_555 1_555
C6_3 C4_3 1_555 1_555
H4_3 C6_3 1_555 1_555
O5_3 Zn4_2 1_555 1_555
O11_2 C9_3 1_555 1_555
C9_3 O5_3 1_555 1_555
C10_3 O12_2 1_555 1_555
H5_3 C10_3 1_555 1_555
C11_3 C10_3 1_555 1_555
H6_3 C11_3 1_555 1_555
H7_3 C11_3 1_555 1_555
H8_3 C11_3 1_555 1_555
O9_2 Zn4_2 1_555 1_555
O10_2 Zn6_2 1_555 1_555
Zn6_2 O5_3 1_555 1_555
C9_3 C10_3 1_555 1_555
O5_4 Zn4 1_555 1_555
Zn6 O5_4 1_555 1_555
O1_4 C1_4 1_555 1_555
O2_4 C1_4 1_555 1_555
C1_4 C2_4 1_555 1_555
C4_4 C2_4 1_555 1_555
H2_4 C4_4 1_555 1_555
C6_4 C4_4 1_555 1_555
H4_4 C6_4 1_555 1_555
O11 C9_4 1_555 1_555
C10_4 O12 1_555 1_555
H5_4 C10_4 1_555 1_555
C11_4 C10_4 1_555 1_555
H6_4 C11_4 1_555 1_555
H7_4 C11_4 1_555 1_555
H8_4 C11_4 1_555 1_555
C9_4 C10_4 1_555 1_555
O9_2 C8_4 1_555 1_555
O10_2 C8_4 1_555 1_555
C3_4 H1_4 1_555 1_555
C5_4 C3_4 1_555 1_555
H3_4 C5_4 1_555 1_555
C7_4 C5_4 1_555 1_555
C8_4 C7_4 1_555 1_555
N1_3 C12_3 1_555 1_555
H9_4 C12_3 1_555 1_555
C14_3 N1_3 1_555 1_555
H13_4 C14_3 1_555 1_555
H14_3 C14_3 1_555 1_555
H15_3 C14_3 1_555 1_555
N1_4 C12_4 1_555 1_555
C12_4 O8_3 1_555 1_555
C13_3 N1_4 1_555 1_555
H10_3 C13_3 1_555 1_555
H11_3 C13_3 1_555 1_555
H12_4 C13_3 1_555 1_555
C14_4 N1_4 1_555 1_555
H14_4 C14_4 1_555 1_555
H15_4 C14_4 1_555 1_555
H10_4 C13_4 1_555 1_555
H11_4 C13_4 1_555 1_555

#END
