
###############################################################################
#
# This file contains modified crystal structure data generated from the
# MOF subset of the Cambridge Structural Database (CSD) v543 
# hosted by the Cambridge Crystallographic Data Centre (CCDC).
#
# This work is licensed under the Creative Commons
# Attribution-NonCommercial-ShareAlike 4.0 International License.
# To view a copy of this license, visit
# http://creativecommons.org/licenses/by-nc-sa/4.0/
# or send a letter to
# Creative Commons, PO Box 1866, Mountain View, CA 94042, USA.
#
# CIF created using the CSD Python API on 29 September 2022
# The structure has been converted into the P1 space group
# The structure has a 3D framework
# The original CSD entry SALLAT is in the monoclinic crystal system
# The framework has been calculated to contain at least 10.0% void space
# The void calculation uses a probe of radius 1.32A, grid spacing 0.4
# The framework is charged, counterions have been retained in the structure
#
###############################################################################

data_SALLAT
_chemical_formula_moiety         '(C32 H16 Cd6 N24 O8 4+)n'
_symmetry_cell_setting           triclinic
_symmetry_space_group_name_H-M   'P 1'
_symmetry_Int_Tables_number      1
_space_group_name_Hall           'P 1'
loop_
_symmetry_equiv_pos_site_id
_symmetry_equiv_pos_as_xyz
1 x,y,z
_cell_length_a                   15.686(3)
_cell_length_b                   8.1650(18)
_cell_length_c                   13.119(3)
_cell_angle_alpha                90
_cell_angle_beta                 119.334(2)
_cell_angle_gamma                90
_cell_volume                     1464.79
loop_
_atom_site_label
_atom_site_type_symbol
_atom_site_fract_x
_atom_site_fract_y
_atom_site_fract_z
Cd1 Cd 0.0000 0.42541(4) 0.2500
N1 N 0.2122(2) 0.3054(4) 0.8518(2)
H1 H 0.1851 0.3056 0.8951
H2 H 0.2733 0.2825 0.8818
N2 N 0.1053(2) 0.4136(3) 0.4523(2)
N3 N 0.3836(2) 0.2507(4) 0.7473(2)
O1 O 0.07036(15) 0.3741(3) 0.69401(18)
C1 C 0.1599(2) 0.3404(4) 0.7391(3)
C2 C 0.2060(2) 0.3377(4) 0.6680(2)
C3 C 0.1503(2) 0.3802(4) 0.5494(3)
C4 C 0.3035(2) 0.2893(4) 0.7114(2)
N8 N 0.1164(2) 0.2493(4) 0.2527(2)
O3 O 0.07036(15) 0.6259(3) 0.19401(18)
Cd2 Cd 0.5000 0.07459(4) 0.7500
Cd3 Cd -0.0000 0.57459(4) 0.7500
Cd1_2 Cd 1.0000 0.42541(4) 0.2500
N5 N 0.8947(2) 0.4136(3) 0.0477(2)
N7 N 0.8836(2) 0.2493(4) 0.2473(2)
O4 O 0.92964(15) 0.6259(3) 0.30599(18)
Cd3_2 Cd 1.0000 0.57459(4) 0.7500
N4 N 0.7878(2) 0.3054(4) 0.6482(2)
H3 H 0.8149 0.3056 0.6049
H4 H 0.7267 0.2825 0.6182
N6 N 0.6164(2) 0.2507(4) 0.7527(2)
O2 O 0.92964(15) 0.3741(3) 0.80599(18)
C5 C 0.8401(2) 0.3404(4) 0.7609(3)
C6 C 0.7940(2) 0.3377(4) 0.8320(2)
C7 C 0.8497(2) 0.3802(4) 0.9506(3)
C8 C 0.6965(2) 0.2893(4) 0.7886(2)
N1_2 N 0.2122(2) 0.6946(4) 0.3518(2)
H1_2 H 0.1851 0.6944 0.3951
H2_2 H 0.2733 0.7175 0.3818
N3_2 N 0.3836(2) 0.7493(4) 0.2473(2)
C1_2 C 0.1599(2) 0.6596(4) 0.2391(3)
C2_2 C 0.2060(2) 0.6623(4) 0.1680(2)
C3_2 C 0.1503(2) 0.6198(4) 0.0494(3)
C4_2 C 0.3035(2) 0.7107(4) 0.2114(2)
Cd2_2 Cd 0.5000 0.92541(4) 0.2500
N2_2 N 0.1053(2) 0.5864(3) 0.9523(2)
N8_2 N 0.1164(2) 0.7507(4) 0.7527(2)
N4_2 N 0.7878(2) 0.6946(4) 0.1482(2)
H3_2 H 0.8149 0.6944 0.1049
H4_2 H 0.7267 0.7175 0.1182
N5_2 N 0.8947(2) 0.5864(3) 0.5477(2)
N6_2 N 0.6164(2) 0.7493(4) 0.2527(2)
C5_2 C 0.8401(2) 0.6596(4) 0.2609(3)
C6_2 C 0.7940(2) 0.6623(4) 0.3320(2)
C7_2 C 0.8497(2) 0.6198(4) 0.4506(3)
C8_2 C 0.6965(2) 0.7107(4) 0.2886(2)
N7_2 N 0.8836(2) 0.7507(4) 0.7473(2)
O3_2 O 0.57036(15) 0.1259(3) 0.19401(18)
O4_2 O 0.42964(15) 0.1259(3) 0.30599(18)
N1_3 N 0.7122(2) 0.8054(4) 0.8518(2)
H1_3 H 0.6851 0.8056 0.8951
H2_3 H 0.7733 0.7825 0.8818
N2_3 N 0.6053(2) 0.9136(3) 0.4523(2)
O1_2 O 0.57036(15) 0.8741(3) 0.69401(18)
C1_3 C 0.6599(2) 0.8404(4) 0.7391(3)
C2_3 C 0.7060(2) 0.8377(4) 0.6680(2)
C3_3 C 0.6503(2) 0.8802(4) 0.5494(3)
C4_3 C 0.8035(2) 0.7893(4) 0.7114(2)
N5_3 N 0.3947(2) 0.9136(3) 0.0477(2)
N4_3 N 0.2878(2) 0.8054(4) 0.6482(2)
H3_3 H 0.3149 0.8056 0.6049
H4_3 H 0.2267 0.7825 0.6182
O2_2 O 0.42964(15) 0.8741(3) 0.80599(18)
C5_3 C 0.3401(2) 0.8404(4) 0.7609(3)
C6_3 C 0.2940(2) 0.8377(4) 0.8320(2)
C7_3 C 0.3497(2) 0.8802(4) 0.9506(3)
C8_3 C 0.1965(2) 0.7893(4) 0.7886(2)
N1_4 N 0.7122(2) 0.1946(4) 0.3518(2)
H1_4 H 0.6851 0.1944 0.3951
H2_4 H 0.7733 0.2175 0.3818
C1_4 C 0.6599(2) 0.1596(4) 0.2391(3)
C2_4 C 0.7060(2) 0.1623(4) 0.1680(2)
C3_4 C 0.6503(2) 0.1198(4) 0.0494(3)
C4_4 C 0.8035(2) 0.2107(4) 0.2114(2)
N2_4 N 0.6053(2) 0.0864(3) 0.9523(2)
N4_4 N 0.2878(2) 0.1946(4) 0.1482(2)
H3_4 H 0.3149 0.1944 0.1049
H4_4 H 0.2267 0.2175 0.1182
N5_4 N 0.3947(2) 0.0864(3) 0.5477(2)
C5_4 C 0.3401(2) 0.1596(4) 0.2609(3)
C6_4 C 0.2940(2) 0.1623(4) 0.3320(2)
C7_4 C 0.3497(2) 0.1198(4) 0.4506(3)
C8_4 C 0.1965(2) 0.2107(4) 0.2886(2)
loop_
_geom_bond_atom_site_label_1
_geom_bond_atom_site_label_2
_geom_bond_site_symmetry_1
_geom_bond_site_symmetry_2
Cd1 N2 1_555 1_555
N1 H1 1_555 1_555
H2 N1 1_555 1_555
N2 C3 1_555 1_555
N3 C4 1_555 1_555
O1 C1 1_555 1_555
C1 N1 1_555 1_555
C2 C1 1_555 1_555
C3 C2 1_555 1_555
C4 C2 1_555 1_555
N8 Cd1 1_555 1_555
O3 Cd1 1_555 1_555
Cd2 N3 1_555 1_555
Cd3 O1 1_555 1_555
N5 Cd1_2 1_555 1_555
N7 Cd1_2 1_555 1_555
O4 Cd1_2 1_555 1_555
N4 H3 1_555 1_555
H4 N4 1_555 1_555
N6 C8 1_555 1_555
O2 C5 1_555 1_555
C5 N4 1_555 1_555
C6 C5 1_555 1_555
C8 C6 1_555 1_555
Cd2 N6 1_555 1_555
Cd3_2 O2 1_555 1_555
C6 C7 1_555 1_555
N1_2 H1_2 1_555 1_555
H2_2 N1_2 1_555 1_555
N3_2 C4_2 1_555 1_555
O3 C1_2 1_555 1_555
C1_2 N1_2 1_555 1_555
C2_2 C1_2 1_555 1_555
C3_2 C2_2 1_555 1_555
C4_2 C2_2 1_555 1_555
Cd2_2 N3_2 1_555 1_555
Cd3 N2_2 1_555 1_555
N8_2 Cd3 1_555 1_555
N4_2 H3_2 1_555 1_555
H4_2 N4_2 1_555 1_555
N5_2 Cd3_2 1_555 1_555
N6_2 C8_2 1_555 1_555
O4 C5_2 1_555 1_555
C5_2 N4_2 1_555 1_555
C6_2 C5_2 1_555 1_555
C7_2 N5_2 1_555 1_555
C8_2 C6_2 1_555 1_555
N7_2 Cd3_2 1_555 1_555
Cd2_2 N6_2 1_555 1_555
C6_2 C7_2 1_555 1_555
Cd2_2 N2_3 1_555 1_555
N1_3 H1_3 1_555 1_555
H2_3 N1_3 1_555 1_555
N2_3 C3_3 1_555 1_555
N7_2 C4_3 1_555 1_555
O1_2 C1_3 1_555 1_555
C1_3 N1_3 1_555 1_555
C2_3 C1_3 1_555 1_555
C3_3 C2_3 1_555 1_555
C4_3 C2_3 1_555 1_555
N5_3 Cd2_2 1_555 1_555
N4_3 H3_3 1_555 1_555
H4_3 N4_3 1_555 1_555
N8_2 C8_3 1_555 1_555
O2_2 C5_3 1_555 1_555
C5_3 N4_3 1_555 1_555
C6_3 C5_3 1_555 1_555
C8_3 C6_3 1_555 1_555
C6_3 C7_3 1_555 1_555
N1_4 H1_4 1_555 1_555
H2_4 N1_4 1_555 1_555
N7 C4_4 1_555 1_555
O3_2 C1_4 1_555 1_555
C1_4 N1_4 1_555 1_555
C2_4 C1_4 1_555 1_555
C3_4 C2_4 1_555 1_555
C4_4 C2_4 1_555 1_555
Cd2 N2_4 1_555 1_555
N4_4 H3_4 1_555 1_555
H4_4 N4_4 1_555 1_555
N5_4 Cd2 1_555 1_555
N8 C8_4 1_555 1_555
O4_2 C5_4 1_555 1_555
C5_4 N4_4 1_555 1_555
C6_4 C5_4 1_555 1_555
C7_4 N5_4 1_555 1_555
C8_4 C6_4 1_555 1_555
C6_4 C7_4 1_555 1_555

#END
