
###############################################################################
#
# This file contains modified crystal structure data generated from the
# MOF subset of the Cambridge Structural Database (CSD) v543 
# hosted by the Cambridge Crystallographic Data Centre (CCDC).
#
# This work is licensed under the Creative Commons
# Attribution-NonCommercial-ShareAlike 4.0 International License.
# To view a copy of this license, visit
# http://creativecommons.org/licenses/by-nc-sa/4.0/
# or send a letter to
# Creative Commons, PO Box 1866, Mountain View, CA 94042, USA.
#
# CIF created using the CSD Python API on 29 September 2022
# The structure has been converted into the P1 space group
# The structure has a 3D framework
# The original CSD entry SALRON is in the monoclinic crystal system
# The framework has been calculated to contain at least 10.0% void space
# The void calculation uses a probe of radius 1.32A, grid spacing 0.4
# The framework is charged, counterions have been retained in the structure
#
###############################################################################

data_SALRON
_chemical_formula_moiety         '(C32 H16 Mn6 N24 O8 4+)n'
_symmetry_cell_setting           triclinic
_symmetry_space_group_name_H-M   'P 1'
_symmetry_Int_Tables_number      1
_space_group_name_Hall           'P 1'
loop_
_symmetry_equiv_pos_site_id
_symmetry_equiv_pos_as_xyz
1 x,y,z
_cell_length_a                   15.379(2)
_cell_length_b                   8.1970(12)
_cell_length_c                   12.937(2)
_cell_angle_alpha                90
_cell_angle_beta                 118.856(2)
_cell_angle_gamma                90
_cell_volume                     1428.36
loop_
_atom_site_label
_atom_site_type_symbol
_atom_site_fract_x
_atom_site_fract_y
_atom_site_fract_z
Mn2 Mn 0.0000 0.92244(7) 0.2500
N1 N 0.7154(2) 0.6817(4) 0.3550(2)
N3 N 0.88531(16) 0.7504(3) 0.24393(19)
O1 O 0.57139(12) 0.6083(2) 0.19981(15)
C1 C 0.66186(18) 0.6477(3) 0.2421(2)
C2 C 0.70560(17) 0.6578(3) 0.1666(2)
C3 C 0.64759(18) 0.6203(3) 0.0466(2)
C4 C 0.80431(19) 0.7090(3) 0.2086(2)
H1 H 0.776(2) 0.718(4) 0.383(3)
H2 H 0.685(3) 0.685(4) 0.395(3)
Mn2_2 Mn 1.0000 0.92244(7) 0.2500
Mn3 Mn 0.5000 0.42244(7) 0.2500
Mn1 Mn 0.5000 0.57756(7) 0.7500
N2 N 0.60069(16) 0.5908(3) 0.94820(19)
N4 N 0.2846(2) 0.6817(4) 0.1450(2)
N5 N 0.39931(16) 0.5908(3) 0.55180(19)
N6 N 0.11469(16) 0.7504(3) 0.25607(19)
O2 O 0.42861(12) 0.6083(2) 0.30019(15)
C5 C 0.33814(18) 0.6477(3) 0.2579(2)
C6 C 0.29440(17) 0.6578(3) 0.3334(2)
C7 C 0.35241(18) 0.6203(3) 0.4534(2)
C8 C 0.19569(19) 0.7090(3) 0.2914(2)
H3 H 0.224(2) 0.718(4) 0.117(3)
H4 H 0.315(3) 0.685(4) 0.105(3)
N7 N 0.38531(16) 0.7496(3) 0.74393(19)
N8 N 0.61469(16) 0.7496(3) 0.75607(19)
O3 O 0.57139(12) 0.3917(2) 0.69981(15)
O4 O 0.42861(12) 0.3917(2) 0.80019(15)
N1_2 N 0.2154(2) 0.1817(4) 0.3550(2)
N3_2 N 0.38531(16) 0.2504(3) 0.24393(19)
O1_2 O 0.07139(12) 0.1083(2) 0.19981(15)
C1_2 C 0.16186(18) 0.1477(3) 0.2421(2)
C2_2 C 0.20560(17) 0.1578(3) 0.1666(2)
C3_2 C 0.14759(18) 0.1203(3) 0.0466(2)
C4_2 C 0.30431(19) 0.2090(3) 0.2086(2)
H1_2 H 0.276(2) 0.218(4) 0.383(3)
H2_2 H 0.185(3) 0.185(4) 0.395(3)
Mn1_2 Mn 0.0000 0.07756(7) 0.7500
N2_2 N 0.10069(16) 0.0908(3) 0.94820(19)
N8_2 N 0.11469(16) 0.2496(3) 0.75607(19)
O3_2 O 0.07139(12) 0.8917(2) 0.69981(15)
Mn1_3 Mn 1.0000 0.07756(7) 0.7500
N4_2 N 0.7846(2) 0.1817(4) 0.1450(2)
N5_2 N 0.89931(16) 0.0908(3) 0.55180(19)
N6_2 N 0.61469(16) 0.2504(3) 0.25607(19)
O2_2 O 0.92861(12) 0.1083(2) 0.30019(15)
C5_2 C 0.83814(18) 0.1477(3) 0.2579(2)
C6_2 C 0.79440(17) 0.1578(3) 0.3334(2)
C7_2 C 0.85241(18) 0.1203(3) 0.4534(2)
C8_2 C 0.69569(19) 0.2090(3) 0.2914(2)
H3_2 H 0.724(2) 0.218(4) 0.117(3)
H4_2 H 0.815(3) 0.185(4) 0.105(3)
N7_2 N 0.88531(16) 0.2496(3) 0.74393(19)
O4_2 O 0.92861(12) 0.8917(2) 0.80019(15)
N1_3 N 0.7154(2) 0.3183(4) 0.8550(2)
N2_3 N 0.60069(16) 0.4092(3) 0.44820(19)
C1_3 C 0.66186(18) 0.3523(3) 0.7421(2)
C2_3 C 0.70560(17) 0.3422(3) 0.6666(2)
C3_3 C 0.64759(18) 0.3797(3) 0.5466(2)
C4_3 C 0.80431(19) 0.2910(3) 0.7086(2)
H1_3 H 0.776(2) 0.282(4) 0.883(3)
H2_3 H 0.685(3) 0.315(4) 0.895(3)
N5_3 N 0.39931(16) 0.4092(3) 0.05180(19)
N4_3 N 0.2846(2) 0.3183(4) 0.6450(2)
C5_3 C 0.33814(18) 0.3523(3) 0.7579(2)
C6_3 C 0.29440(17) 0.3422(3) 0.8334(2)
C7_3 C 0.35241(18) 0.3797(3) 0.9534(2)
C8_3 C 0.19569(19) 0.2910(3) 0.7914(2)
H3_3 H 0.224(2) 0.282(4) 0.617(3)
H4_3 H 0.315(3) 0.315(4) 0.605(3)
N1_4 N 0.2154(2) 0.8183(4) 0.8550(2)
N2_4 N 0.10069(16) 0.9092(3) 0.44820(19)
C1_4 C 0.16186(18) 0.8523(3) 0.7421(2)
C2_4 C 0.20560(17) 0.8422(3) 0.6666(2)
C3_4 C 0.14759(18) 0.8797(3) 0.5466(2)
C4_4 C 0.30431(19) 0.7910(3) 0.7086(2)
H1_4 H 0.276(2) 0.782(4) 0.883(3)
H2_4 H 0.185(3) 0.815(4) 0.895(3)
N5_4 N 0.89931(16) 0.9092(3) 0.05180(19)
N4_4 N 0.7846(2) 0.8183(4) 0.6450(2)
C5_4 C 0.83814(18) 0.8523(3) 0.7579(2)
C6_4 C 0.79440(17) 0.8422(3) 0.8334(2)
C7_4 C 0.85241(18) 0.8797(3) 0.9534(2)
C8_4 C 0.69569(19) 0.7910(3) 0.7914(2)
H3_4 H 0.724(2) 0.782(4) 0.617(3)
H4_4 H 0.815(3) 0.815(4) 0.605(3)
loop_
_geom_bond_atom_site_label_1
_geom_bond_atom_site_label_2
_geom_bond_site_symmetry_1
_geom_bond_site_symmetry_2
N1 C1 1_555 1_555
N3 C4 1_555 1_555
O1 C1 1_555 1_555
C1 C2 1_555 1_555
C2 C3 1_555 1_555
C4 C2 1_555 1_555
H1 N1 1_555 1_555
H2 N1 1_555 1_555
Mn2_2 N3 1_555 1_555
Mn3 O1 1_555 1_555
Mn1 N2 1_555 1_555
N4 C5 1_555 1_555
N5 Mn1 1_555 1_555
N6 C8 1_555 1_555
O2 C5 1_555 1_555
C5 C6 1_555 1_555
C6 C7 1_555 1_555
C7 N5 1_555 1_555
C8 C6 1_555 1_555
H3 N4 1_555 1_555
H4 N4 1_555 1_555
N7 Mn1 1_555 1_555
N8 Mn1 1_555 1_555
O3 Mn1 1_555 1_555
O4 Mn1 1_555 1_555
Mn2 N6 1_555 1_555
Mn3 O2 1_555 1_555
N1_2 C1_2 1_555 1_555
N3_2 C4_2 1_555 1_555
O1_2 C1_2 1_555 1_555
C1_2 C2_2 1_555 1_555
C2_2 C3_2 1_555 1_555
C4_2 C2_2 1_555 1_555
H1_2 N1_2 1_555 1_555
H2_2 N1_2 1_555 1_555
Mn3 N3_2 1_555 1_555
Mn1_2 N2_2 1_555 1_555
N8_2 Mn1_2 1_555 1_555
N4_2 C5_2 1_555 1_555
N5_2 Mn1_3 1_555 1_555
N6_2 C8_2 1_555 1_555
O2_2 C5_2 1_555 1_555
C5_2 C6_2 1_555 1_555
C6_2 C7_2 1_555 1_555
C7_2 N5_2 1_555 1_555
C8_2 C6_2 1_555 1_555
H3_2 N4_2 1_555 1_555
H4_2 N4_2 1_555 1_555
N7_2 Mn1_3 1_555 1_555
Mn3 N6_2 1_555 1_555
Mn3 N2_3 1_555 1_555
N1_3 C1_3 1_555 1_555
N2_3 C3_3 1_555 1_555
N7_2 C4_3 1_555 1_555
O3 C1_3 1_555 1_555
C1_3 C2_3 1_555 1_555
C2_3 C3_3 1_555 1_555
C4_3 C2_3 1_555 1_555
H1_3 N1_3 1_555 1_555
H2_3 N1_3 1_555 1_555
N5_3 Mn3 1_555 1_555
N4_3 C5_3 1_555 1_555
N8_2 C8_3 1_555 1_555
O4 C5_3 1_555 1_555
C5_3 C6_3 1_555 1_555
C6_3 C7_3 1_555 1_555
C8_3 C6_3 1_555 1_555
H3_3 N4_3 1_555 1_555
H4_3 N4_3 1_555 1_555
Mn2 N2_4 1_555 1_555
N1_4 C1_4 1_555 1_555
N2_4 C3_4 1_555 1_555
N7 C4_4 1_555 1_555
O3_2 C1_4 1_555 1_555
C1_4 C2_4 1_555 1_555
C2_4 C3_4 1_555 1_555
C4_4 C2_4 1_555 1_555
H1_4 N1_4 1_555 1_555
H2_4 N1_4 1_555 1_555
N5_4 Mn2_2 1_555 1_555
N4_4 C5_4 1_555 1_555
N8 C8_4 1_555 1_555
O4_2 C5_4 1_555 1_555
C5_4 C6_4 1_555 1_555
C6_4 C7_4 1_555 1_555
C8_4 C6_4 1_555 1_555
H3_4 N4_4 1_555 1_555
H4_4 N4_4 1_555 1_555

#END
