
###############################################################################
#
# This file contains modified crystal structure data generated from the
# MOF subset of the Cambridge Structural Database (CSD) v543 
# hosted by the Cambridge Crystallographic Data Centre (CCDC).
#
# This work is licensed under the Creative Commons
# Attribution-NonCommercial-ShareAlike 4.0 International License.
# To view a copy of this license, visit
# http://creativecommons.org/licenses/by-nc-sa/4.0/
# or send a letter to
# Creative Commons, PO Box 1866, Mountain View, CA 94042, USA.
#
# CIF created using the CSD Python API on 29 September 2022
# The structure has been converted into the P1 space group
# The structure has a 3D framework
# The original CSD entry SANWUD is in the tetragonal crystal system
# The framework has been calculated to contain at least 10.0% void space
# The void calculation uses a probe of radius 1.32A, grid spacing 0.4
# The framework is charged, counterions have been retained in the structure
#
###############################################################################

data_SANWUD
_chemical_formula_moiety         '(C88 H112 F19 N16 O32 Zn17 5+)n'
_symmetry_cell_setting           triclinic
_symmetry_space_group_name_H-M   'P 1'
_symmetry_Int_Tables_number      1
_space_group_name_Hall           'P 1'
loop_
_symmetry_equiv_pos_site_id
_symmetry_equiv_pos_as_xyz
1 x,y,z
_cell_length_a                   18.7279(4)
_cell_length_b                   18.7279(4)
_cell_length_c                   11.8716(6)
_cell_angle_alpha                90
_cell_angle_beta                 90
_cell_angle_gamma                90
_cell_volume                     4163.78
loop_
_atom_site_label
_atom_site_type_symbol
_atom_site_fract_x
_atom_site_fract_y
_atom_site_fract_z
N1 N -0.0000 0.66568(15) 0.5000
H1 H 0.0000 0.6373 0.5612
H4 H 0.0000 0.6373 0.4388
C2 C 0.06732(17) 0.70806(15) 0.5000
H5 H 0.1078 0.6766 0.5000
H6 H 0.0687 0.7376 0.4340
H8 H 0.0687 0.7376 0.5660
N1_2 N 1.0000 0.66568(15) 0.5000
H1_2 H 1.0000 0.6373 0.5612
C1 C 0.93268(17) 0.70806(15) 0.5000
H2 H 0.8922 0.6766 0.5000
H3 H 0.9313 0.7376 0.5660
H4_2 H 1.0000 0.6373 0.4388
H7 H 0.9313 0.7376 0.4340
N1_3 N 0.33432(15) -0.0000 0.5000
H1_3 H 0.3627 -0.0000 0.5612
H4_3 H 0.3627 0.0000 0.4388
C2_2 C 0.29194(15) 0.06732(17) 0.5000
H5_2 H 0.3234 0.1078 0.5000
H6_2 H 0.2624 0.0687 0.4340
H8_2 H 0.2624 0.0687 0.5660
N1_4 N 0.33432(15) 1.0000 0.5000
H1_4 H 0.3627 1.0000 0.5612
C1_2 C 0.29194(15) 0.93268(17) 0.5000
H2_2 H 0.3234 0.8922 0.5000
H3_2 H 0.2624 0.9313 0.5660
H4_4 H 0.3627 1.0000 0.4388
H7_2 H 0.2624 0.9313 0.4340
N1_5 N 0.0000 0.33432(15) 0.5000
H1_5 H 0.0000 0.3627 0.5612
C1_3 C 0.06732(17) 0.29194(15) 0.5000
H2_3 H 0.1078 0.3234 0.5000
H3_3 H 0.0687 0.2624 0.5660
H4_5 H -0.0000 0.3627 0.4388
H7_3 H 0.0687 0.2624 0.4340
N1_6 N 1.0000 0.33432(15) 0.5000
H1_6 H 1.0000 0.3627 0.5612
H4_6 H 1.0000 0.3627 0.4388
C2_3 C 0.93268(17) 0.29194(15) 0.5000
H5_3 H 0.8922 0.3234 0.5000
H6_3 H 0.9313 0.2624 0.4340
H8_3 H 0.9313 0.2624 0.5660
N1_7 N 0.66568(15) 0.0000 0.5000
H1_7 H 0.6373 -0.0000 0.5612
C1_4 C 0.70806(15) 0.06732(17) 0.5000
H2_4 H 0.6766 0.1078 0.5000
H3_4 H 0.7376 0.0687 0.5660
H4_7 H 0.6373 -0.0000 0.4388
H7_4 H 0.7376 0.0687 0.4340
N1_8 N 0.66568(15) 1.0000 0.5000
H1_8 H 0.6373 1.0000 0.5612
H4_8 H 0.6373 1.0000 0.4388
C2_4 C 0.70806(15) 0.93268(17) 0.5000
H5_4 H 0.6766 0.8922 0.5000
H6_4 H 0.7376 0.9313 0.4340
H8_4 H 0.7376 0.9313 0.5660
N1_9 N 0.5000 0.16568(15) -0.0000
H1_9 H 0.5000 0.1373 0.0612
C1_5 C 0.43268(17) 0.20806(15) -0.0000
H2_5 H 0.3922 0.1766 -0.0000
H3_5 H 0.4313 0.2376 0.0660
C2_5 C 0.56732(17) 0.20806(15) -0.0000
H5_5 H 0.6078 0.1766 -0.0000
H8_5 H 0.5687 0.2376 0.0660
N1_10 N 0.5000 0.16568(15) 1.0000
C1_6 C 0.43268(17) 0.20806(15) 1.0000
H2_6 H 0.3922 0.1766 1.0000
H4_9 H 0.5000 0.1373 0.9388
C2_6 C 0.56732(17) 0.20806(15) 1.0000
H5_6 H 0.6078 0.1766 1.0000
H6_5 H 0.5687 0.2376 0.9340
H7_5 H 0.4313 0.2376 0.9340
N1_11 N 0.83432(15) 0.5000 -0.0000
H1_10 H 0.8627 0.5000 0.0612
C1_7 C 0.79194(15) 0.43268(17) -0.0000
H2_7 H 0.8234 0.3922 -0.0000
H3_6 H 0.7624 0.4313 0.0660
C2_7 C 0.79194(15) 0.56732(17) -0.0000
H5_7 H 0.8234 0.6078 -0.0000
H8_6 H 0.7624 0.5687 0.0660
N1_12 N 0.83432(15) 0.5000 1.0000
C1_8 C 0.79194(15) 0.43268(17) 1.0000
H2_8 H 0.8234 0.3922 1.0000
H4_10 H 0.8627 0.5000 0.9388
C2_8 C 0.79194(15) 0.56732(17) 1.0000
H5_8 H 0.8234 0.6078 1.0000
H6_6 H 0.7624 0.5687 0.9340
H7_6 H 0.7624 0.4313 0.9340
N1_13 N 0.5000 0.83432(15) -0.0000
H1_11 H 0.5000 0.8627 0.0612
C1_9 C 0.56732(17) 0.79194(15) -0.0000
H2_9 H 0.6078 0.8234 -0.0000
H3_7 H 0.5687 0.7624 0.0660
C2_9 C 0.43268(17) 0.79194(15) -0.0000
H5_9 H 0.3922 0.8234 -0.0000
H8_7 H 0.4313 0.7624 0.0660
N1_14 N 0.5000 0.83432(15) 1.0000
C1_10 C 0.56732(17) 0.79194(15) 1.0000
H2_10 H 0.6078 0.8234 1.0000
H4_11 H 0.5000 0.8627 0.9388
C2_10 C 0.43268(17) 0.79194(15) 1.0000
H5_10 H 0.3922 0.8234 1.0000
H6_7 H 0.4313 0.7624 0.9340
H7_7 H 0.5687 0.7624 0.9340
N1_15 N 0.16568(15) 0.5000 -0.0000
H1_12 H 0.1373 0.5000 0.0612
C1_11 C 0.20806(15) 0.56732(17) -0.0000
H2_11 H 0.1766 0.6078 -0.0000
H3_8 H 0.2376 0.5687 0.0660
C2_11 C 0.20806(15) 0.43268(17) -0.0000
H5_11 H 0.1766 0.3922 -0.0000
H8_8 H 0.2376 0.4313 0.0660
N1_16 N 0.16568(15) 0.5000 1.0000
C1_12 C 0.20806(15) 0.56732(17) 1.0000
H2_12 H 0.1766 0.6078 1.0000
H4_12 H 0.1373 0.5000 0.9388
C2_12 C 0.20806(15) 0.43268(17) 1.0000
H5_12 H 0.1766 0.3922 1.0000
H6_8 H 0.2376 0.4313 0.9340
H7_8 H 0.2376 0.5687 0.9340
F8 F 0.40064(9) -0.0000 -0.0000
Zn2 Zn 0.40995(2) -0.0000 0.83841(2)
F3 F 0.43187(6) -0.0000 0.66329(9)
Zn6 Zn 0.5000 0.09005(2) 0.66159(2)
O5 O 0.34734(5) 0.08575(5) 0.80876(9)
F6 F 0.5000 0.06813(6) 0.83671(9)
F8_2 F 0.40064(9) -0.0000 1.0000
F2 F -0.0000 0.59936(9) -0.0000
Zn3 Zn -0.0000 0.59005(2) 0.16159(2)
F8_3 F 0.40064(9) 1.0000 -0.0000
Zn1 Zn 0.0000 0.59005(2) 0.83841(2)
O1 O 0.08575(5) 0.65266(5) 0.80876(9)
C3 C 0.14062(7) 0.64062(7) 0.7500
C4 C 0.19740(7) 0.69740(7) 0.7500
C5 C 0.19338(9) 0.75451(9) 0.82269(16)
H9 H 0.1551 0.7582 0.8722
F1 F -0.0000 0.56813(6) 0.66329(9)
F2_2 F -0.0000 0.59936(9) 1.0000
O2 O 0.15266(5) 0.58575(5) 0.69124(9)
C6 C 0.25451(9) 0.69338(9) 0.67731(16)
H10 H 0.2582 0.6551 0.6278
O3 O 0.34734(5) 0.91425(5) 0.80876(9)
C7 C 0.35938(7) 0.85938(7) 0.7500
C8 C 0.30260(7) 0.80260(7) 0.7500
C9 C 0.24549(9) 0.80662(9) 0.82269(16)
H11 H 0.2418 0.8449 0.8722
O4 O 0.41425(5) 0.84734(5) 0.69124(9)
C10 C 0.30662(9) 0.74549(9) 0.67731(16)
H12 H 0.3449 0.7418 0.6278
Zn2_2 Zn 0.40995(2) 1.0000 0.83841(2)
F3_2 F 0.43187(6) 1.0000 0.66329(9)
Zn4 Zn 0.5000 0.90995(2) 0.66159(2)
Zn5 Zn 0.09005(2) 0.5000 0.66159(2)
F4 F 0.5000 0.93187(6) 0.83671(9)
F5 F 0.06813(6) 0.5000 0.83671(9)
F8_4 F 0.40064(9) 1.0000 1.0000
F2_3 F 1.0000 0.59936(9) -0.0000
Zn3_2 Zn 1.0000 0.59005(2) 0.16159(2)
Zn1_2 Zn 1.0000 0.59005(2) 0.83841(2)
F1_2 F 1.0000 0.56813(6) 0.66329(9)
F2_4 F 1.0000 0.59936(9) 1.0000
Zn7 Zn 0.90995(2) 0.5000 0.66159(2)
O6 O 0.91425(5) 0.65266(5) 0.80876(9)
F7 F 0.93187(6) 0.5000 0.83671(9)
Zn3_3 Zn 0.40995(2) -0.0000 0.16159(2)
F8_5 F 0.0000 0.40064(9) -0.0000
C3_2 C 0.35938(7) 0.14062(7) 0.7500
C4_2 C 0.30260(7) 0.19740(7) 0.7500
C5_2 C 0.24549(9) 0.19338(9) 0.82269(16)
H9_2 H 0.2418 0.1551 0.8722
O2_2 O 0.41425(5) 0.15266(5) 0.69124(9)
C6_2 C 0.30662(9) 0.25451(9) 0.67731(16)
H10_2 H 0.3449 0.2582 0.6278
O3_2 O 0.08575(5) 0.34734(5) 0.80876(9)
C7_2 C 0.14062(7) 0.35938(7) 0.7500
C8_2 C 0.19740(7) 0.30260(7) 0.7500
C9_2 C 0.19338(9) 0.24549(9) 0.82269(16)
H11_2 H 0.1551 0.2418 0.8722
O4_2 O 0.15266(5) 0.41425(5) 0.69124(9)
C10_2 C 0.25451(9) 0.30662(9) 0.67731(16)
H12_2 H 0.2582 0.3449 0.6278
Zn2_3 Zn 0.0000 0.40995(2) 0.83841(2)
F3_3 F 0.0000 0.43187(6) 0.66329(9)
F8_6 F 0.0000 0.40064(9) 1.0000
Zn3_4 Zn 0.40995(2) 1.0000 0.16159(2)
F8_7 F 1.0000 0.40064(9) -0.0000
Zn2_4 Zn 1.0000 0.40995(2) 0.83841(2)
F3_4 F 1.0000 0.43187(6) 0.66329(9)
O5_2 O 0.91425(5) 0.34734(5) 0.80876(9)
F8_8 F 1.0000 0.40064(9) 1.0000
Zn3_5 Zn 0.0000 0.40995(2) 0.16159(2)
Zn3_6 Zn 1.0000 0.40995(2) 0.16159(2)
F8_9 F 0.59936(9) 0.0000 -0.0000
C3_3 C 0.85938(7) 0.35938(7) 0.7500
C4_3 C 0.80260(7) 0.30260(7) 0.7500
C5_3 C 0.80662(9) 0.24549(9) 0.82269(16)
H9_3 H 0.8449 0.2418 0.8722
O2_3 O 0.84734(5) 0.41425(5) 0.69124(9)
C6_3 C 0.74549(9) 0.30662(9) 0.67731(16)
H10_3 H 0.7418 0.3449 0.6278
O3_3 O 0.65266(5) 0.08575(5) 0.80876(9)
C7_3 C 0.64062(7) 0.14062(7) 0.7500
C8_3 C 0.69740(7) 0.19740(7) 0.7500
C9_3 C 0.75451(9) 0.19338(9) 0.82269(16)
H11_3 H 0.7582 0.1551 0.8722
O4_3 O 0.58575(5) 0.15266(5) 0.69124(9)
C10_3 C 0.69338(9) 0.25451(9) 0.67731(16)
H12_3 H 0.6551 0.2582 0.6278
Zn2_5 Zn 0.59005(2) 0.0000 0.83841(2)
F3_5 F 0.56813(6) 0.0000 0.66329(9)
F8_10 F 0.59936(9) 0.0000 1.0000
F8_11 F 0.59936(9) 1.0000 -0.0000
Zn2_6 Zn 0.59005(2) 1.0000 0.83841(2)
F3_6 F 0.56813(6) 1.0000 0.66329(9)
O5_3 O 0.65266(5) 0.91425(5) 0.80876(9)
F8_12 F 0.59936(9) 1.0000 1.0000
Zn3_7 Zn 0.59005(2) 0.0000 0.16159(2)
Zn3_8 Zn 0.59005(2) 1.0000 0.16159(2)
C3_4 C 0.64062(7) 0.85938(7) 0.7500
C4_4 C 0.69740(7) 0.80260(7) 0.7500
C5_4 C 0.75451(9) 0.80662(9) 0.82269(16)
H9_4 H 0.7582 0.8449 0.8722
O2_4 O 0.58575(5) 0.84734(5) 0.69124(9)
C6_4 C 0.69338(9) 0.74549(9) 0.67731(16)
H10_4 H 0.6551 0.7418 0.6278
C7_4 C 0.85938(7) 0.64062(7) 0.7500
C8_4 C 0.80260(7) 0.69740(7) 0.7500
C9_4 C 0.80662(9) 0.75451(9) 0.82269(16)
H11_4 H 0.8449 0.7582 0.8722
O4_4 O 0.84734(5) 0.58575(5) 0.69124(9)
C10_4 C 0.74549(9) 0.69338(9) 0.67731(16)
H12_4 H 0.7418 0.6551 0.6278
O1_2 O 0.08575(5) 0.34734(5) 0.19124(9)
C3_5 C 0.14062(7) 0.35938(7) 0.2500
C4_5 C 0.19740(7) 0.30260(7) 0.2500
C5_5 C 0.19338(9) 0.24549(9) 0.17731(16)
H9_5 H 0.1551 0.2418 0.1278
F1_3 F -0.0000 0.43187(6) 0.33671(9)
O2_5 O 0.15266(5) 0.41425(5) 0.30876(9)
C6_5 C 0.25451(9) 0.30662(9) 0.32269(16)
H10_5 H 0.2582 0.3449 0.3722
O3_4 O 0.34734(5) 0.08575(5) 0.19124(9)
C7_5 C 0.35938(7) 0.14062(7) 0.2500
C8_5 C 0.30260(7) 0.19740(7) 0.2500
C9_5 C 0.24549(9) 0.19338(9) 0.17731(16)
H11_5 H 0.2418 0.1551 0.1278
O4_5 O 0.41425(5) 0.15266(5) 0.30876(9)
C10_5 C 0.30662(9) 0.25451(9) 0.32269(16)
H12_5 H 0.3449 0.2582 0.3722
F3_7 F 0.43187(6) 0.0000 0.33671(9)
Zn4_2 Zn 0.5000 0.09005(2) 0.33841(2)
Zn5_2 Zn 0.09005(2) 0.5000 0.33841(2)
F4_2 F 0.5000 0.06813(6) 0.16329(9)
F5_2 F 0.06813(6) 0.5000 0.16329(9)
F3_8 F 0.43187(6) 1.0000 0.33671(9)
Zn6_2 Zn 0.5000 0.90995(2) 0.33841(2)
O5_4 O 0.34734(5) 0.91425(5) 0.19124(9)
F6_2 F 0.5000 0.93187(6) 0.16329(9)
F1_4 F 1.0000 0.43187(6) 0.33671(9)
Zn7_2 Zn 0.90995(2) 0.5000 0.33841(2)
O6_2 O 0.91425(5) 0.34734(5) 0.19124(9)
F7_2 F 0.93187(6) 0.5000 0.16329(9)
O1_3 O 0.65266(5) 0.08575(5) 0.19124(9)
C3_6 C 0.64062(7) 0.14062(7) 0.2500
C4_6 C 0.69740(7) 0.19740(7) 0.2500
C5_6 C 0.75451(9) 0.19338(9) 0.17731(16)
H9_6 H 0.7582 0.1551 0.1278
F1_5 F 0.56813(6) -0.0000 0.33671(9)
O2_6 O 0.58575(5) 0.15266(5) 0.30876(9)
C6_6 C 0.69338(9) 0.25451(9) 0.32269(16)
H10_6 H 0.6551 0.2582 0.3722
C7_6 C 0.85938(7) 0.35938(7) 0.2500
C8_6 C 0.80260(7) 0.30260(7) 0.2500
C9_6 C 0.80662(9) 0.24549(9) 0.17731(16)
H11_6 H 0.8449 0.2418 0.1278
O4_6 O 0.84734(5) 0.41425(5) 0.30876(9)
C10_6 C 0.74549(9) 0.30662(9) 0.32269(16)
H12_6 H 0.7418 0.3449 0.3722
F1_6 F 0.56813(6) 1.0000 0.33671(9)
O6_3 O 0.65266(5) 0.91425(5) 0.19124(9)
F1_7 F 0.0000 0.56813(6) 0.33671(9)
O6_4 O 0.08575(5) 0.65266(5) 0.19124(9)
O1_4 O 0.91425(5) 0.65266(5) 0.19124(9)
C3_7 C 0.85938(7) 0.64062(7) 0.2500
C4_7 C 0.80260(7) 0.69740(7) 0.2500
C5_7 C 0.80662(9) 0.75451(9) 0.17731(16)
H9_7 H 0.8449 0.7582 0.1278
F1_8 F 1.0000 0.56813(6) 0.33671(9)
O2_7 O 0.84734(5) 0.58575(5) 0.30876(9)
C6_7 C 0.74549(9) 0.69338(9) 0.32269(16)
H10_7 H 0.7418 0.6551 0.3722
C7_7 C 0.64062(7) 0.85938(7) 0.2500
C8_7 C 0.69740(7) 0.80260(7) 0.2500
C9_7 C 0.75451(9) 0.80662(9) 0.17731(16)
H11_7 H 0.7582 0.8449 0.1278
O4_7 O 0.58575(5) 0.84734(5) 0.30876(9)
C10_7 C 0.69338(9) 0.74549(9) 0.32269(16)
H12_7 H 0.6551 0.7418 0.3722
C3_8 C 0.35938(7) 0.85938(7) 0.2500
C4_8 C 0.30260(7) 0.80260(7) 0.2500
C5_8 C 0.24549(9) 0.80662(9) 0.17731(16)
H9_8 H 0.2418 0.8449 0.1278
O2_8 O 0.41425(5) 0.84734(5) 0.30876(9)
C6_8 C 0.30662(9) 0.74549(9) 0.32269(16)
H10_8 H 0.3449 0.7418 0.3722
C7_8 C 0.14062(7) 0.64062(7) 0.2500
C8_8 C 0.19740(7) 0.69740(7) 0.2500
C9_8 C 0.19338(9) 0.75451(9) 0.17731(16)
H11_8 H 0.1551 0.7582 0.1278
O4_8 O 0.15266(5) 0.58575(5) 0.30876(9)
C10_8 C 0.25451(9) 0.69338(9) 0.32269(16)
H12_8 H 0.2582 0.6551 0.3722
F2_5 F 0.5000 0.09936(9) 0.5000
F8_13 F 0.90064(9) 0.5000 0.5000
F8_14 F 0.5000 0.90064(9) 0.5000
F8_15 F 0.09936(9) 0.5000 0.5000
loop_
_geom_bond_atom_site_label_1
_geom_bond_atom_site_label_2
_geom_bond_site_symmetry_1
_geom_bond_site_symmetry_2
N1 H1 1_555 1_555
H4 N1 1_555 1_555
C2 N1 1_555 1_555
H5 C2 1_555 1_555
H6 C2 1_555 1_555
H8 C2 1_555 1_555
N1_2 H1_2 1_555 1_555
C1 N1_2 1_555 1_555
H2 C1 1_555 1_555
H3 C1 1_555 1_555
H4_2 N1_2 1_555 1_555
H7 C1 1_555 1_555
N1_3 H1_3 1_555 1_555
H4_3 N1_3 1_555 1_555
C2_2 N1_3 1_555 1_555
H5_2 C2_2 1_555 1_555
H6_2 C2_2 1_555 1_555
H8_2 C2_2 1_555 1_555
N1_4 H1_4 1_555 1_555
C1_2 N1_4 1_555 1_555
H2_2 C1_2 1_555 1_555
H3_2 C1_2 1_555 1_555
H4_4 N1_4 1_555 1_555
H7_2 C1_2 1_555 1_555
N1_5 H1_5 1_555 1_555
C1_3 N1_5 1_555 1_555
H2_3 C1_3 1_555 1_555
H3_3 C1_3 1_555 1_555
H4_5 N1_5 1_555 1_555
H7_3 C1_3 1_555 1_555
N1_6 H1_6 1_555 1_555
H4_6 N1_6 1_555 1_555
C2_3 N1_6 1_555 1_555
H5_3 C2_3 1_555 1_555
H6_3 C2_3 1_555 1_555
H8_3 C2_3 1_555 1_555
N1_7 H1_7 1_555 1_555
C1_4 N1_7 1_555 1_555
H2_4 C1_4 1_555 1_555
H3_4 C1_4 1_555 1_555
H4_7 N1_7 1_555 1_555
H7_4 C1_4 1_555 1_555
N1_8 H1_8 1_555 1_555
H4_8 N1_8 1_555 1_555
C2_4 N1_8 1_555 1_555
H5_4 C2_4 1_555 1_555
H6_4 C2_4 1_555 1_555
H8_4 C2_4 1_555 1_555
N1_9 H1_9 1_555 1_555
C1_5 N1_9 1_555 1_555
H2_5 C1_5 1_555 1_555
H3_5 C1_5 1_555 1_555
C2_5 N1_9 1_555 1_555
H5_5 C2_5 1_555 1_555
H8_5 C2_5 1_555 1_555
C1_6 N1_10 1_555 1_555
H2_6 C1_6 1_555 1_555
H4_9 N1_10 1_555 1_555
C2_6 N1_10 1_555 1_555
H5_6 C2_6 1_555 1_555
H6_5 C2_6 1_555 1_555
H7_5 C1_6 1_555 1_555
N1_11 H1_10 1_555 1_555
C1_7 N1_11 1_555 1_555
H2_7 C1_7 1_555 1_555
H3_6 C1_7 1_555 1_555
C2_7 N1_11 1_555 1_555
H5_7 C2_7 1_555 1_555
H8_6 C2_7 1_555 1_555
C1_8 N1_12 1_555 1_555
H2_8 C1_8 1_555 1_555
H4_10 N1_12 1_555 1_555
C2_8 N1_12 1_555 1_555
H5_8 C2_8 1_555 1_555
H6_6 C2_8 1_555 1_555
H7_6 C1_8 1_555 1_555
N1_13 H1_11 1_555 1_555
C1_9 N1_13 1_555 1_555
H2_9 C1_9 1_555 1_555
H3_7 C1_9 1_555 1_555
C2_9 N1_13 1_555 1_555
H5_9 C2_9 1_555 1_555
H8_7 C2_9 1_555 1_555
C1_10 N1_14 1_555 1_555
H2_10 C1_10 1_555 1_555
H4_11 N1_14 1_555 1_555
C2_10 N1_14 1_555 1_555
H5_10 C2_10 1_555 1_555
H6_7 C2_10 1_555 1_555
H7_7 C1_10 1_555 1_555
N1_15 H1_12 1_555 1_555
C1_11 N1_15 1_555 1_555
H2_11 C1_11 1_555 1_555
H3_8 C1_11 1_555 1_555
C2_11 N1_15 1_555 1_555
H5_11 C2_11 1_555 1_555
H8_8 C2_11 1_555 1_555
C1_12 N1_16 1_555 1_555
H2_12 C1_12 1_555 1_555
H4_12 N1_16 1_555 1_555
C2_12 N1_16 1_555 1_555
H5_12 C2_12 1_555 1_555
H6_8 C2_12 1_555 1_555
H7_8 C1_12 1_555 1_555
F3 Zn2 1_555 1_555
Zn6 F3 1_555 1_555
O5 Zn2 1_555 1_555
F6 Zn2 1_555 1_555
F8_2 Zn2 1_555 1_555
Zn6 F6 1_555 1_555
Zn3 F2 1_555 1_555
Zn1 O1 1_555 1_555
O1 C3 1_555 1_555
C3 C4 1_555 1_555
C4 C5 1_555 1_555
C5 H9 1_555 1_555
F1 Zn1 1_555 1_555
F2_2 Zn1 1_555 1_555
O2 C3 1_555 1_555
C6 C4 1_555 1_555
H10 C6 1_555 1_555
O3 C7 1_555 1_555
C7 C8 1_555 1_555
C8 C9 1_555 1_555
C9 C5 1_555 1_555
H11 C9 1_555 1_555
O4 C7 1_555 1_555
C10 C6 1_555 1_555
H12 C10 1_555 1_555
Zn2_2 O3 1_555 1_555
F3_2 Zn2_2 1_555 1_555
Zn4 O4 1_555 1_555
Zn5 F1 1_555 1_555
F4 Zn2_2 1_555 1_555
F5 Zn1 1_555 1_555
F8_4 Zn2_2 1_555 1_555
O2 Zn5 1_555 1_555
C8 C10 1_555 1_555
F3_2 Zn4 1_555 1_555
Zn4 F4 1_555 1_555
Zn5 F5 1_555 1_555
Zn3_2 F2_3 1_555 1_555
F1_2 Zn1_2 1_555 1_555
F2_4 Zn1_2 1_555 1_555
Zn7 F1_2 1_555 1_555
O6 Zn1_2 1_555 1_555
F7 Zn1_2 1_555 1_555
Zn7 F7 1_555 1_555
Zn3_3 F8 1_555 1_555
O5 C3_2 1_555 1_555
C3_2 C4_2 1_555 1_555
C4_2 C5_2 1_555 1_555
C5_2 H9_2 1_555 1_555
O2_2 C3_2 1_555 1_555
C6_2 C4_2 1_555 1_555
H10_2 C6_2 1_555 1_555
O3_2 C7_2 1_555 1_555
C7_2 C8_2 1_555 1_555
C8_2 C9_2 1_555 1_555
C9_2 C5_2 1_555 1_555
H11_2 C9_2 1_555 1_555
O4_2 C7_2 1_555 1_555
C10_2 C6_2 1_555 1_555
H12_2 C10_2 1_555 1_555
Zn2_3 O3_2 1_555 1_555
F3_3 Zn2_3 1_555 1_555
Zn5 O4_2 1_555 1_555
F5 Zn2_3 1_555 1_555
F8_6 Zn2_3 1_555 1_555
O2_2 Zn6 1_555 1_555
C8_2 C10_2 1_555 1_555
F3_3 Zn5 1_555 1_555
Zn3_4 F8_3 1_555 1_555
F3_4 Zn2_4 1_555 1_555
Zn7 F3_4 1_555 1_555
O5_2 Zn2_4 1_555 1_555
F7 Zn2_4 1_555 1_555
F8_8 Zn2_4 1_555 1_555
Zn3_5 F8_5 1_555 1_555
Zn3_6 F8_7 1_555 1_555
O5_2 C3_3 1_555 1_555
C3_3 C4_3 1_555 1_555
C4_3 C5_3 1_555 1_555
C5_3 H9_3 1_555 1_555
O2_3 C3_3 1_555 1_555
C6_3 C4_3 1_555 1_555
H10_3 C6_3 1_555 1_555
O3_3 C7_3 1_555 1_555
C7_3 C8_3 1_555 1_555
C8_3 C9_3 1_555 1_555
C9_3 C5_3 1_555 1_555
H11_3 C9_3 1_555 1_555
O4_3 C7_3 1_555 1_555
C10_3 C6_3 1_555 1_555
H12_3 C10_3 1_555 1_555
Zn2_5 O3_3 1_555 1_555
F3_5 Zn2_5 1_555 1_555
Zn6 O4_3 1_555 1_555
F6 Zn2_5 1_555 1_555
F8_10 Zn2_5 1_555 1_555
O2_3 Zn7 1_555 1_555
C8_3 C10_3 1_555 1_555
F3_5 Zn6 1_555 1_555
F3_6 Zn2_6 1_555 1_555
Zn4 F3_6 1_555 1_555
O5_3 Zn2_6 1_555 1_555
F4 Zn2_6 1_555 1_555
F8_12 Zn2_6 1_555 1_555
Zn3_7 F8_9 1_555 1_555
Zn3_8 F8_11 1_555 1_555
O5_3 C3_4 1_555 1_555
C3_4 C4_4 1_555 1_555
C4_4 C5_4 1_555 1_555
C5_4 H9_4 1_555 1_555
O2_4 C3_4 1_555 1_555
C6_4 C4_4 1_555 1_555
H10_4 C6_4 1_555 1_555
O6 C7_4 1_555 1_555
C7_4 C8_4 1_555 1_555
C8_4 C9_4 1_555 1_555
C9_4 C5_4 1_555 1_555
H11_4 C9_4 1_555 1_555
O4_4 C7_4 1_555 1_555
C10_4 C6_4 1_555 1_555
H12_4 C10_4 1_555 1_555
Zn7 O4_4 1_555 1_555
O2_4 Zn4 1_555 1_555
C8_4 C10_4 1_555 1_555
Zn3_5 O1_2 1_555 1_555
O1_2 C3_5 1_555 1_555
C3_5 C4_5 1_555 1_555
C4_5 C5_5 1_555 1_555
C5_5 H9_5 1_555 1_555
F1_3 Zn3_5 1_555 1_555
O2_5 C3_5 1_555 1_555
C6_5 C4_5 1_555 1_555
H10_5 C6_5 1_555 1_555
O3_4 C7_5 1_555 1_555
C7_5 C8_5 1_555 1_555
C8_5 C9_5 1_555 1_555
C9_5 C5_5 1_555 1_555
H11_5 C9_5 1_555 1_555
O4_5 C7_5 1_555 1_555
C10_5 C6_5 1_555 1_555
H12_5 C10_5 1_555 1_555
Zn3_3 O3_4 1_555 1_555
F3_7 Zn3_3 1_555 1_555
Zn4_2 O4_5 1_555 1_555
Zn5_2 F1_3 1_555 1_555
F4_2 Zn3_3 1_555 1_555
F5_2 Zn3_5 1_555 1_555
O2_5 Zn5_2 1_555 1_555
C8_5 C10_5 1_555 1_555
F3_7 Zn4_2 1_555 1_555
Zn4_2 F4_2 1_555 1_555
Zn5_2 F5_2 1_555 1_555
F3_8 Zn3_4 1_555 1_555
Zn6_2 F3_8 1_555 1_555
O5_4 Zn3_4 1_555 1_555
F6_2 Zn3_4 1_555 1_555
Zn6_2 F6_2 1_555 1_555
F1_4 Zn3_6 1_555 1_555
Zn7_2 F1_4 1_555 1_555
O6_2 Zn3_6 1_555 1_555
F7_2 Zn3_6 1_555 1_555
Zn7_2 F7_2 1_555 1_555
Zn3_7 O1_3 1_555 1_555
O1_3 C3_6 1_555 1_555
C3_6 C4_6 1_555 1_555
C4_6 C5_6 1_555 1_555
C5_6 H9_6 1_555 1_555
F1_5 Zn3_7 1_555 1_555
O2_6 C3_6 1_555 1_555
C6_6 C4_6 1_555 1_555
H10_6 C6_6 1_555 1_555
O6_2 C7_6 1_555 1_555
C7_6 C8_6 1_555 1_555
C8_6 C9_6 1_555 1_555
C9_6 C5_6 1_555 1_555
H11_6 C9_6 1_555 1_555
O4_6 C7_6 1_555 1_555
C10_6 C6_6 1_555 1_555
H12_6 C10_6 1_555 1_555
Zn7_2 O4_6 1_555 1_555
Zn4_2 F1_5 1_555 1_555
F4_2 Zn3_7 1_555 1_555
O2_6 Zn4_2 1_555 1_555
C8_6 C10_6 1_555 1_555
F1_6 Zn3_8 1_555 1_555
Zn6_2 F1_6 1_555 1_555
O6_3 Zn3_8 1_555 1_555
F6_2 Zn3_8 1_555 1_555
F1_7 Zn3 1_555 1_555
Zn5_2 F1_7 1_555 1_555
O6_4 Zn3 1_555 1_555
F5_2 Zn3 1_555 1_555
Zn3_2 O1_4 1_555 1_555
O1_4 C3_7 1_555 1_555
C3_7 C4_7 1_555 1_555
C4_7 C5_7 1_555 1_555
C5_7 H9_7 1_555 1_555
F1_8 Zn3_2 1_555 1_555
O2_7 C3_7 1_555 1_555
C6_7 C4_7 1_555 1_555
H10_7 C6_7 1_555 1_555
O6_3 C7_7 1_555 1_555
C7_7 C8_7 1_555 1_555
C8_7 C9_7 1_555 1_555
C9_7 C5_7 1_555 1_555
H11_7 C9_7 1_555 1_555
O4_7 C7_7 1_555 1_555
C10_7 C6_7 1_555 1_555
H12_7 C10_7 1_555 1_555
Zn6_2 O4_7 1_555 1_555
Zn7_2 F1_8 1_555 1_555
F7_2 Zn3_2 1_555 1_555
O2_7 Zn7_2 1_555 1_555
C8_7 C10_7 1_555 1_555
O5_4 C3_8 1_555 1_555
C3_8 C4_8 1_555 1_555
C4_8 C5_8 1_555 1_555
C5_8 H9_8 1_555 1_555
O2_8 C3_8 1_555 1_555
C6_8 C4_8 1_555 1_555
H10_8 C6_8 1_555 1_555
O6_4 C7_8 1_555 1_555
C7_8 C8_8 1_555 1_555
C8_8 C9_8 1_555 1_555
C9_8 C5_8 1_555 1_555
H11_8 C9_8 1_555 1_555
O4_8 C7_8 1_555 1_555
C10_8 C6_8 1_555 1_555
H12_8 C10_8 1_555 1_555
Zn5_2 O4_8 1_555 1_555
O2_8 Zn6_2 1_555 1_555
C8_8 C10_8 1_555 1_555
F2_5 Zn4_2 1_555 1_555
Zn6 F2_5 1_555 1_555
F8_13 Zn7_2 1_555 1_555
Zn7 F8_13 1_555 1_555
F8_14 Zn6_2 1_555 1_555
Zn4 F8_14 1_555 1_555
F8_15 Zn5_2 1_555 1_555
Zn5 F8_15 1_555 1_555

#END
