
###############################################################################
#
# This file contains modified crystal structure data generated from the
# MOF subset of the Cambridge Structural Database (CSD) v543 
# hosted by the Cambridge Crystallographic Data Centre (CCDC).
#
# This work is licensed under the Creative Commons
# Attribution-NonCommercial-ShareAlike 4.0 International License.
# To view a copy of this license, visit
# http://creativecommons.org/licenses/by-nc-sa/4.0/
# or send a letter to
# Creative Commons, PO Box 1866, Mountain View, CA 94042, USA.
#
# CIF created using the CSD Python API on 29 September 2022
# The structure has been converted into the P1 space group
# The structure has a 3D framework
# The original CSD entry SAPYIV is in the monoclinic crystal system
# The framework has been calculated to contain at least 10.0% void space
# The void calculation uses a probe of radius 1.32A, grid spacing 0.4
#
###############################################################################

data_SAPYIV
_chemical_formula_moiety         '(C112 H80 Br8 La6 N8 O26 4-)n'
_symmetry_cell_setting           triclinic
_symmetry_space_group_name_H-M   'P 1'
_symmetry_Int_Tables_number      1
_space_group_name_Hall           'P 1'
loop_
_symmetry_equiv_pos_site_id
_symmetry_equiv_pos_as_xyz
1 x,y,z
_cell_length_a                   19.8399(9)
_cell_length_b                   20.9956(11)
_cell_length_c                   8.9951(4)
_cell_angle_alpha                90
_cell_angle_beta                 112.764(3)
_cell_angle_gamma                90
_cell_volume                     3455.05
loop_
_atom_site_label
_atom_site_type_symbol
_atom_site_fract_x
_atom_site_fract_y
_atom_site_fract_z
Br1 Br 0.3946(6) 0.9226(5) 0.4504(12)
Br1_2 Br 0.6054(6) 0.9226(5) 0.0496(12)
Br1_3 Br 0.8946(6) 0.4226(5) 0.4504(12)
Br1_4 Br 0.1054(6) 0.4226(5) 0.0496(12)
Br1_5 Br 0.6054(6) 0.0774(5) 0.5496(12)
Br1_6 Br 0.3946(6) 0.0774(5) 0.9504(12)
Br1_7 Br 0.1054(6) 0.5774(5) 0.5496(12)
Br1_8 Br 0.8946(6) 0.5774(5) 0.9504(12)
La3 La -0.000000 0.01141(3) 0.750000
La7 La 0.000000 0.98859(3) 0.250000
La3_2 La 1.000000 0.01141(3) 0.750000
O3 O 0.8705(5) 0.9521(4) 0.0633(9)
C16 C 0.4430(6) 0.6924(5) 0.0140(13)
C17 C 0.4077(8) 0.7153(7) 0.1141(15)
H11 H 0.389407 0.686363 0.167364
C18 C 0.4004(8) 0.7779(6) 0.1329(15)
H12 H 0.377827 0.791645 0.200533
C19 C 0.4252(7) 0.8214(5) 0.0556(14)
C22 C 0.4146(6) 0.8912(6) 0.0713(16)
H15 H 0.453882 0.914746 0.057624
H16 H 0.415557 0.900394 0.177717
H17 H 0.288242 0.904322 0.084920
O6 O 0.4392(5) 0.5847(4) 0.0871(10)
La5 La 0.500000 0.48859(3) 0.250000
La7_2 La 1.000000 0.98859(3) 0.250000
C1 C 0.5478(6) 0.6228(5) 0.5089(13)
C2 C 0.5570(6) 0.6924(5) 0.4860(13)
C3 C 0.5923(8) 0.7153(7) 0.3859(15)
H1 H 0.610593 0.686363 0.332636
C4 C 0.5996(8) 0.7779(6) 0.3671(15)
H2 H 0.622173 0.791645 0.299467
C5 C 0.5748(7) 0.8214(5) 0.4444(14)
C6 C 0.5374(9) 0.7994(7) 0.5404(17)
H3 H 0.517293 0.828457 0.589586
C7 C 0.5311(8) 0.7378(6) 0.5601(16)
H4 H 0.508062 0.724514 0.627291
C8 C 0.5854(6) 0.8912(6) 0.4287(16)
H5 H 0.546118 0.914746 0.442376
H6 H 0.584443 0.900394 0.322283
C9 C 0.7171(7) 0.9132(7) 0.5204(15)
H7 H 0.711758 0.904322 0.415080
C10 C 0.7840(8) 0.9272(6) 0.6302(15)
H8 H 0.824012 0.928404 0.600814
C11 C 0.7929(6) 0.9404(5) 0.7932(12)
C12 C 0.7329(7) 0.9378(8) 0.8291(15)
H9 H 0.736906 0.944211 0.934513
C13 C 0.6637(8) 0.9251(8) 0.7057(19)
H10 H 0.621762 0.926229 0.728348
C14 C 0.8657(6) 0.9551(5) 0.9185(12)
N1 N 0.6587(6) 0.9115(5) 0.5570(12)
O1 O 0.5305(5) 0.6072(4) 0.6210(10)
O2 O 0.5608(5) 0.5847(4) 0.4129(10)
O4 O 0.9169(4) 0.9708(4) 0.8754(10)
La1 La 0.500000 0.51141(3) 0.750000
C15 C 0.4522(6) 0.6228(5) 0.9911(13)
C20 C 0.4626(9) 0.7994(7) 0.9596(17)
H13 H 0.482707 0.828457 0.910414
C21 C 0.4689(8) 0.7378(6) 0.9399(16)
H14 H 0.491938 0.724514 0.872709
C23 C 0.2829(7) 0.9132(7) 0.9796(15)
C24 C 0.2160(8) 0.9272(6) 0.8698(15)
H18 H 0.175988 0.928404 0.899186
C25 C 0.2071(6) 0.9404(5) 0.7068(12)
C26 C 0.2671(7) 0.9378(8) 0.6709(15)
H19 H 0.263094 0.944211 0.565487
C27 C 0.3363(8) 0.9251(8) 0.7943(19)
H20 H 0.378238 0.926229 0.771652
C28 C 0.1343(6) 0.9551(5) 0.5815(12)
N2 N 0.3413(6) 0.9115(5) 0.9430(12)
O5 O 0.4695(5) 0.6072(4) 0.8790(10)
O7 O 0.1295(5) 0.9521(4) 0.4367(9)
O8 O 0.0831(4) 0.9708(4) 0.6246(10)
O9 O 0.4392(5) 0.4153(4) 0.5871(10)
O10 O 0.5608(5) 0.4153(4) 0.9129(10)
O11 O 0.6295(5) 0.5479(4) 0.9367(9)
O12 O 0.3705(5) 0.5479(4) 0.5633(9)
O13 O 0.4169(4) 0.4708(4) 0.8754(10)
O14 O 0.5831(4) 0.4708(4) 0.6246(10)
O3_2 O 0.3705(5) 0.4521(4) 0.0633(9)
C1_2 C 0.0478(6) 0.1228(5) 0.5089(13)
C2_2 C 0.0570(6) 0.1924(5) 0.4860(13)
C3_2 C 0.0923(8) 0.2153(7) 0.3859(15)
H1_2 H 0.110593 0.186363 0.332636
C4_2 C 0.0996(8) 0.2779(6) 0.3671(15)
H2_2 H 0.122173 0.291645 0.299467
C5_2 C 0.0748(7) 0.3214(5) 0.4444(14)
C6_2 C 0.0374(9) 0.2994(7) 0.5404(17)
H3_2 H 0.017293 0.328457 0.589586
C7_2 C 0.0311(8) 0.2378(6) 0.5601(16)
H4_2 H 0.008062 0.224514 0.627291
C8_2 C 0.0854(6) 0.3912(6) 0.4287(16)
H5_2 H 0.046118 0.414746 0.442376
H6_2 H 0.084443 0.400394 0.322283
C9_2 C 0.2171(7) 0.4132(7) 0.5204(15)
H7_2 H 0.211758 0.404322 0.415080
C10_2 C 0.2840(8) 0.4272(6) 0.6302(15)
H8_2 H 0.324012 0.428404 0.600814
C11_2 C 0.2929(6) 0.4404(5) 0.7932(12)
C12_2 C 0.2329(7) 0.4378(8) 0.8291(15)
H9_2 H 0.236906 0.444211 0.934513
C13_2 C 0.1637(8) 0.4251(8) 0.7057(19)
H10_2 H 0.121762 0.426229 0.728348
C14_2 C 0.3657(6) 0.4551(5) 0.9185(12)
N1_2 N 0.1587(6) 0.4115(5) 0.5570(12)
O1_2 O 0.0305(5) 0.1072(4) 0.6210(10)
O2_2 O 0.0608(5) 0.0847(4) 0.4129(10)
O11_2 O 0.1295(5) 0.0479(4) 0.9367(9)
O10_2 O 0.0608(5) 0.9153(4) 0.9129(10)
C16_2 C 0.9430(6) 0.1924(5) 0.0140(13)
C17_2 C 0.9077(8) 0.2153(7) 0.1141(15)
H11_2 H 0.889407 0.186363 0.167364
C18_2 C 0.9004(8) 0.2779(6) 0.1329(15)
H12_2 H 0.877827 0.291645 0.200533
C19_2 C 0.9252(7) 0.3214(5) 0.0556(14)
C22_2 C 0.9146(6) 0.3912(6) 0.0713(16)
H15_2 H 0.953882 0.414746 0.057624
H16_2 H 0.915557 0.400394 0.177717
H17_2 H 0.788242 0.404322 0.084920
O6_2 O 0.9392(5) 0.0847(4) 0.0871(10)
C15_2 C 0.9522(6) 0.1228(5) 0.9911(13)
C20_2 C 0.9626(9) 0.2994(7) 0.9596(17)
H13_2 H 0.982707 0.328457 0.910414
C21_2 C 0.9689(8) 0.2378(6) 0.9399(16)
H14_2 H 0.991938 0.224514 0.872709
C23_2 C 0.7829(7) 0.4132(7) 0.9796(15)
C24_2 C 0.7160(8) 0.4272(6) 0.8698(15)
H18_2 H 0.675988 0.428404 0.899186
C25_2 C 0.7071(6) 0.4404(5) 0.7068(12)
C26_2 C 0.7671(7) 0.4378(8) 0.6709(15)
H19_2 H 0.763094 0.444211 0.565487
C27_2 C 0.8363(8) 0.4251(8) 0.7943(19)
H20_2 H 0.878238 0.426229 0.771652
C28_2 C 0.6343(6) 0.4551(5) 0.5815(12)
N2_2 N 0.8413(6) 0.4115(5) 0.9430(12)
O5_2 O 0.9695(5) 0.1072(4) 0.8790(10)
O7_2 O 0.6295(5) 0.4521(4) 0.4367(9)
O12_2 O 0.8705(5) 0.0479(4) 0.5633(9)
O9_2 O 0.9392(5) 0.9153(4) 0.5871(10)
C1_3 C 0.4522(6) 0.3772(5) 0.4911(13)
C2_3 C 0.4430(6) 0.3076(5) 0.5140(13)
C3_3 C 0.4077(8) 0.2847(7) 0.6141(15)
H1_3 H 0.389407 0.313637 0.667364
C4_3 C 0.4004(8) 0.2221(6) 0.6329(15)
H2_3 H 0.377827 0.208355 0.700533
C5_3 C 0.4252(7) 0.1786(5) 0.5556(14)
C6_3 C 0.4626(9) 0.2006(7) 0.4596(17)
H3_3 H 0.482707 0.171543 0.410414
C7_3 C 0.4689(8) 0.2622(6) 0.4399(16)
H4_3 H 0.491938 0.275486 0.372709
C8_3 C 0.4146(6) 0.1088(6) 0.5713(16)
H5_3 H 0.453882 0.085254 0.557624
H6_3 H 0.415557 0.099606 0.677717
C9_3 C 0.2829(7) 0.0868(7) 0.4796(15)
H7_3 H 0.288242 0.095678 0.584920
C10_3 C 0.2160(8) 0.0728(6) 0.3698(15)
H8_3 H 0.175988 0.071596 0.399186
C11_3 C 0.2071(6) 0.0596(5) 0.2068(12)
C12_3 C 0.2671(7) 0.0622(8) 0.1709(15)
H9_3 H 0.263094 0.055789 0.065487
C13_3 C 0.3363(8) 0.0749(8) 0.2943(19)
H10_3 H 0.378238 0.073771 0.271652
C14_3 C 0.1343(6) 0.0449(5) 0.0815(12)
N1_3 N 0.3413(6) 0.0885(5) 0.4430(12)
O1_3 O 0.4695(5) 0.3928(4) 0.3790(10)
O4_2 O 0.0831(4) 0.0292(4) 0.1246(10)
C15_3 C 0.5478(6) 0.3772(5) 0.0089(13)
C20_3 C 0.5374(9) 0.2006(7) 0.0404(17)
H13_3 H 0.517293 0.171543 0.089586
C21_3 C 0.5311(8) 0.2622(6) 0.0601(16)
H14_3 H 0.508062 0.275486 0.127291
C23_3 C 0.7171(7) 0.0868(7) 0.0204(15)
C24_3 C 0.7840(8) 0.0728(6) 0.1302(15)
H18_3 H 0.824012 0.071596 0.100814
C25_3 C 0.7929(6) 0.0596(5) 0.2932(12)
C26_3 C 0.7329(7) 0.0622(8) 0.3291(15)
H19_3 H 0.736906 0.055789 0.434513
C27_3 C 0.6637(8) 0.0749(8) 0.2057(19)
H20_3 H 0.621762 0.073771 0.228348
C28_3 C 0.8657(6) 0.0449(5) 0.4185(12)
N2_3 N 0.6587(6) 0.0885(5) 0.0570(12)
O5_3 O 0.5305(5) 0.3928(4) 0.1210(10)
O8_2 O 0.9169(4) 0.0292(4) 0.3754(10)
O13_2 O 0.5831(4) 0.5292(4) 0.1246(10)
O14_2 O 0.4169(4) 0.5292(4) 0.3754(10)
C16_3 C 0.5570(6) 0.3076(5) 0.9860(13)
C17_3 C 0.5923(8) 0.2847(7) 0.8859(15)
H11_3 H 0.610593 0.313637 0.832636
C18_3 C 0.5996(8) 0.2221(6) 0.8671(15)
H12_3 H 0.622173 0.208355 0.799467
C19_3 C 0.5748(7) 0.1786(5) 0.9444(14)
C22_3 C 0.5854(6) 0.1088(6) 0.9287(16)
H15_3 H 0.546118 0.085254 0.942376
H16_3 H 0.584443 0.099606 0.822283
H17_3 H 0.711758 0.095678 0.915080
C15_4 C 0.0478(6) 0.8772(5) 0.0089(13)
C20_4 C 0.0374(9) 0.7006(7) 0.0404(17)
H13_4 H 0.017293 0.671543 0.089586
C21_4 C 0.0311(8) 0.7622(6) 0.0601(16)
H14_4 H 0.008062 0.775486 0.127291
C23_4 C 0.2171(7) 0.5868(7) 0.0204(15)
C24_4 C 0.2840(8) 0.5728(6) 0.1302(15)
H18_4 H 0.324012 0.571596 0.100814
C25_4 C 0.2929(6) 0.5596(5) 0.2932(12)
C26_4 C 0.2329(7) 0.5622(8) 0.3291(15)
H19_4 H 0.236906 0.555789 0.434513
C27_4 C 0.1637(8) 0.5749(8) 0.2057(19)
H20_4 H 0.121762 0.573771 0.228348
C28_4 C 0.3657(6) 0.5449(5) 0.4185(12)
N2_4 N 0.1587(6) 0.5885(5) 0.0570(12)
O5_4 O 0.0305(5) 0.8928(4) 0.1210(10)
C16_4 C 0.0570(6) 0.8076(5) 0.9860(13)
C17_4 C 0.0923(8) 0.7847(7) 0.8859(15)
H11_4 H 0.110593 0.813637 0.832636
C18_4 C 0.0996(8) 0.7221(6) 0.8671(15)
H12_4 H 0.122173 0.708355 0.799467
C19_4 C 0.0748(7) 0.6786(5) 0.9444(14)
C22_4 C 0.0854(6) 0.6088(6) 0.9287(16)
H15_4 H 0.046118 0.585254 0.942376
H16_4 H 0.084443 0.599606 0.822283
H17_4 H 0.211758 0.595678 0.915080
C1_4 C 0.9522(6) 0.8772(5) 0.4911(13)
C2_4 C 0.9430(6) 0.8076(5) 0.5140(13)
C3_4 C 0.9077(8) 0.7847(7) 0.6141(15)
H1_4 H 0.889407 0.813637 0.667364
C4_4 C 0.9004(8) 0.7221(6) 0.6329(15)
H2_4 H 0.877827 0.708355 0.700533
C5_4 C 0.9252(7) 0.6786(5) 0.5556(14)
C6_4 C 0.9626(9) 0.7006(7) 0.4596(17)
H3_4 H 0.982707 0.671543 0.410414
C7_4 C 0.9689(8) 0.7622(6) 0.4399(16)
H4_4 H 0.991938 0.775486 0.372709
C8_4 C 0.9146(6) 0.6088(6) 0.5713(16)
H5_4 H 0.953882 0.585254 0.557624
H6_4 H 0.915557 0.599606 0.677717
C9_4 C 0.7829(7) 0.5868(7) 0.4796(15)
H7_4 H 0.788242 0.595678 0.584920
C10_4 C 0.7160(8) 0.5728(6) 0.3698(15)
H8_4 H 0.675988 0.571596 0.399186
C11_4 C 0.7071(6) 0.5596(5) 0.2068(12)
C12_4 C 0.7671(7) 0.5622(8) 0.1709(15)
H9_4 H 0.763094 0.555789 0.065487
C13_4 C 0.8363(8) 0.5749(8) 0.2943(19)
H10_4 H 0.878238 0.573771 0.271652
C14_4 C 0.6343(6) 0.5449(5) 0.0815(12)
N1_4 N 0.8413(6) 0.5885(5) 0.4430(12)
O1_4 O 0.9695(5) 0.8928(4) 0.3790(10)
loop_
_geom_bond_atom_site_label_1
_geom_bond_atom_site_label_2
_geom_bond_site_symmetry_1
_geom_bond_site_symmetry_2
C16 C17 1_555 1_555
C17 H11 1_555 1_555
C18 C17 1_555 1_555
H12 C18 1_555 1_555
C19 C18 1_555 1_555
C22 C19 1_555 1_555
H15 C22 1_555 1_555
H16 C22 1_555 1_555
La5 O6 1_555 1_555
La7_2 O3 1_555 1_555
C1 C2 1_555 1_555
C2 C3 1_555 1_555
C3 H1 1_555 1_555
C4 C3 1_555 1_555
H2 C4 1_555 1_555
C5 C4 1_555 1_555
C6 C5 1_555 1_555
H3 C6 1_555 1_555
C7 C2 1_555 1_555
H4 C7 1_555 1_555
C8 C5 1_555 1_555
H5 C8 1_555 1_555
H6 C8 1_555 1_555
C9 H7 1_555 1_555
C10 C9 1_555 1_555
H8 C10 1_555 1_555
C11 C10 1_555 1_555
C12 C11 1_555 1_555
H9 C12 1_555 1_555
C13 C12 1_555 1_555
H10 C13 1_555 1_555
C14 C11 1_555 1_555
N1 C8 1_555 1_555
O1 C1 1_555 1_555
O2 C1 1_555 1_555
O4 C14 1_555 1_555
La1 O1 1_555 1_555
H13 C20 1_555 1_555
H14 C21 1_555 1_555
C24 C23 1_555 1_555
H18 C24 1_555 1_555
C25 C24 1_555 1_555
C26 C25 1_555 1_555
H19 C26 1_555 1_555
C27 C26 1_555 1_555
H20 C27 1_555 1_555
C28 C25 1_555 1_555
O5 La1 1_555 1_555
O7 C28 1_555 1_555
O8 C28 1_555 1_555
O9 La1 1_555 1_555
O10 La1 1_555 1_555
O11 La1 1_555 1_555
O12 La1 1_555 1_555
O13 La1 1_555 1_555
O14 La1 1_555 1_555
La5 O2 1_555 1_555
La7 O7 1_555 1_555
C6 C7 1_555 1_555
C9 N1 1_555 1_555
C13 N1 1_555 1_555
C15 O5 1_555 1_555
C20 C21 1_555 1_555
C23 N2 1_555 1_555
C27 N2 1_555 1_555
La5 O3_2 1_555 1_555
C1_2 C2_2 1_555 1_555
C2_2 C3_2 1_555 1_555
C3_2 H1_2 1_555 1_555
C4_2 C3_2 1_555 1_555
H2_2 C4_2 1_555 1_555
C5_2 C4_2 1_555 1_555
C6_2 C5_2 1_555 1_555
H3_2 C6_2 1_555 1_555
C7_2 C2_2 1_555 1_555
H4_2 C7_2 1_555 1_555
C8_2 C5_2 1_555 1_555
H5_2 C8_2 1_555 1_555
H6_2 C8_2 1_555 1_555
C9_2 H7_2 1_555 1_555
C10_2 C9_2 1_555 1_555
H8_2 C10_2 1_555 1_555
C11_2 C10_2 1_555 1_555
C12_2 C11_2 1_555 1_555
H9_2 C12_2 1_555 1_555
C13_2 C12_2 1_555 1_555
H10_2 C13_2 1_555 1_555
C14_2 C11_2 1_555 1_555
N1_2 C8_2 1_555 1_555
O1_2 C1_2 1_555 1_555
O2_2 C1_2 1_555 1_555
O13 C14_2 1_555 1_555
La3 O1_2 1_555 1_555
O11_2 La3 1_555 1_555
C6_2 C7_2 1_555 1_555
C9_2 N1_2 1_555 1_555
C13_2 N1_2 1_555 1_555
C16_2 C17_2 1_555 1_555
C17_2 H11_2 1_555 1_555
C18_2 C17_2 1_555 1_555
H12_2 C18_2 1_555 1_555
C19_2 C18_2 1_555 1_555
C22_2 C19_2 1_555 1_555
H15_2 C22_2 1_555 1_555
H16_2 C22_2 1_555 1_555
H13_2 C20_2 1_555 1_555
H14_2 C21_2 1_555 1_555
C24_2 C23_2 1_555 1_555
H18_2 C24_2 1_555 1_555
C25_2 C24_2 1_555 1_555
C26_2 C25_2 1_555 1_555
H19_2 C26_2 1_555 1_555
C27_2 C26_2 1_555 1_555
H20_2 C27_2 1_555 1_555
C28_2 C25_2 1_555 1_555
O5_2 La3_2 1_555 1_555
O7_2 C28_2 1_555 1_555
O14 C28_2 1_555 1_555
O12_2 La3_2 1_555 1_555
La5 O7_2 1_555 1_555
C15_2 O5_2 1_555 1_555
C20_2 C21_2 1_555 1_555
C23_2 N2_2 1_555 1_555
C27_2 N2_2 1_555 1_555
C1_3 C2_3 1_555 1_555
C2_3 C3_3 1_555 1_555
C3_3 H1_3 1_555 1_555
C4_3 C3_3 1_555 1_555
H2_3 C4_3 1_555 1_555
C5_3 C4_3 1_555 1_555
C6_3 C5_3 1_555 1_555
H3_3 C6_3 1_555 1_555
C7_3 C2_3 1_555 1_555
H4_3 C7_3 1_555 1_555
C8_3 C5_3 1_555 1_555
H5_3 C8_3 1_555 1_555
H6_3 C8_3 1_555 1_555
C9_3 H7_3 1_555 1_555
C10_3 C9_3 1_555 1_555
H8_3 C10_3 1_555 1_555
C11_3 C10_3 1_555 1_555
C12_3 C11_3 1_555 1_555
H9_3 C12_3 1_555 1_555
C13_3 C12_3 1_555 1_555
H10_3 C13_3 1_555 1_555
C14_3 C11_3 1_555 1_555
N1_3 C8_3 1_555 1_555
O1_3 C1_3 1_555 1_555
O9 C1_3 1_555 1_555
O4_2 C14_3 1_555 1_555
La5 O1_3 1_555 1_555
H13_3 C20_3 1_555 1_555
H14_3 C21_3 1_555 1_555
C24_3 C23_3 1_555 1_555
H18_3 C24_3 1_555 1_555
C25_3 C24_3 1_555 1_555
C26_3 C25_3 1_555 1_555
H19_3 C26_3 1_555 1_555
C27_3 C26_3 1_555 1_555
H20_3 C27_3 1_555 1_555
C28_3 C25_3 1_555 1_555
O5_3 La5 1_555 1_555
O12_2 C28_3 1_555 1_555
O8_2 C28_3 1_555 1_555
O13_2 La5 1_555 1_555
O14_2 La5 1_555 1_555
C6_3 C7_3 1_555 1_555
C9_3 N1_3 1_555 1_555
C13_3 N1_3 1_555 1_555
C15_3 O5_3 1_555 1_555
C20_3 C21_3 1_555 1_555
C23_3 N2_3 1_555 1_555
C27_3 N2_3 1_555 1_555
C16_3 C17_3 1_555 1_555
C17_3 H11_3 1_555 1_555
C18_3 C17_3 1_555 1_555
H12_3 C18_3 1_555 1_555
C19_3 C18_3 1_555 1_555
C22_3 C19_3 1_555 1_555
H15_3 C22_3 1_555 1_555
H16_3 C22_3 1_555 1_555
H13_4 C20_4 1_555 1_555
H14_4 C21_4 1_555 1_555
C24_4 C23_4 1_555 1_555
H18_4 C24_4 1_555 1_555
C25_4 C24_4 1_555 1_555
C26_4 C25_4 1_555 1_555
H19_4 C26_4 1_555 1_555
C27_4 C26_4 1_555 1_555
H20_4 C27_4 1_555 1_555
C28_4 C25_4 1_555 1_555
O5_4 La7 1_555 1_555
O12 C28_4 1_555 1_555
O14_2 C28_4 1_555 1_555
C15_4 O5_4 1_555 1_555
C20_4 C21_4 1_555 1_555
C23_4 N2_4 1_555 1_555
C27_4 N2_4 1_555 1_555
C16_4 C17_4 1_555 1_555
C17_4 H11_4 1_555 1_555
C18_4 C17_4 1_555 1_555
H12_4 C18_4 1_555 1_555
C19_4 C18_4 1_555 1_555
C22_4 C19_4 1_555 1_555
H15_4 C22_4 1_555 1_555
H16_4 C22_4 1_555 1_555
C1_4 C2_4 1_555 1_555
C2_4 C3_4 1_555 1_555
C3_4 H1_4 1_555 1_555
C4_4 C3_4 1_555 1_555
H2_4 C4_4 1_555 1_555
C5_4 C4_4 1_555 1_555
C6_4 C5_4 1_555 1_555
H3_4 C6_4 1_555 1_555
C7_4 C2_4 1_555 1_555
H4_4 C7_4 1_555 1_555
C8_4 C5_4 1_555 1_555
H5_4 C8_4 1_555 1_555
H6_4 C8_4 1_555 1_555
C9_4 H7_4 1_555 1_555
C10_4 C9_4 1_555 1_555
H8_4 C10_4 1_555 1_555
C11_4 C10_4 1_555 1_555
C12_4 C11_4 1_555 1_555
H9_4 C12_4 1_555 1_555
C13_4 C12_4 1_555 1_555
H10_4 C13_4 1_555 1_555
C14_4 C11_4 1_555 1_555
N1_4 C8_4 1_555 1_555
O1_4 C1_4 1_555 1_555
O9_2 C1_4 1_555 1_555
O13_2 C14_4 1_555 1_555
La7_2 O1_4 1_555 1_555
C6_4 C7_4 1_555 1_555
C9_4 N1_4 1_555 1_555
C13_4 N1_4 1_555 1_555

#END
