
###############################################################################
#
# This file contains modified crystal structure data generated from the
# MOF subset of the Cambridge Structural Database (CSD) v543 
# hosted by the Cambridge Crystallographic Data Centre (CCDC).
#
# This work is licensed under the Creative Commons
# Attribution-NonCommercial-ShareAlike 4.0 International License.
# To view a copy of this license, visit
# http://creativecommons.org/licenses/by-nc-sa/4.0/
# or send a letter to
# Creative Commons, PO Box 1866, Mountain View, CA 94042, USA.
#
# CIF created using the CSD Python API on 29 September 2022
# The structure has been converted into the P1 space group
# The structure has a 3D framework
# The original CSD entry SAPYUH is in the monoclinic crystal system
# The framework has been calculated to contain at least 10.0% void space
# The void calculation uses a probe of radius 1.32A, grid spacing 0.4
#
###############################################################################

data_SAPYUH
_chemical_formula_moiety         '(C112 H80 Br8 N8 Nd6 O26 4-)n'
_symmetry_cell_setting           triclinic
_symmetry_space_group_name_H-M   'P 1'
_symmetry_Int_Tables_number      1
_space_group_name_Hall           'P 1'
loop_
_symmetry_equiv_pos_site_id
_symmetry_equiv_pos_as_xyz
1 x,y,z
_cell_length_a                   20.1083(10)
_cell_length_b                   20.8987(12)
_cell_length_c                   9.0843(4)
_cell_angle_alpha                90
_cell_angle_beta                 113.343(3)
_cell_angle_gamma                90
_cell_volume                     3505.09
loop_
_atom_site_label
_atom_site_type_symbol
_atom_site_fract_x
_atom_site_fract_y
_atom_site_fract_z
Br1 Br 0.6089(2) 0.92740(18) 0.0571(4)
Br1_2 Br 0.3911(2) 0.92740(18) 0.4429(4)
Br1_3 Br 0.1089(2) 0.42740(18) 0.0571(4)
Br1_4 Br 0.8911(2) 0.42740(18) 0.4429(4)
Br1_5 Br 0.3911(2) 0.07260(18) 0.9429(4)
Br1_6 Br 0.6089(2) 0.07260(18) 0.5571(4)
Br1_7 Br 0.8911(2) 0.57260(18) 0.9429(4)
Br1_8 Br 0.1089(2) 0.57260(18) 0.5571(4)
Nd3 Nd -0.000000 0.01169(2) 0.750000
Nd7 Nd -0.000000 0.98831(2) 0.250000
Nd3_2 Nd 1.000000 0.01169(2) 0.750000
O3 O 0.87850(18) 0.95084(19) 0.0533(4)
C16 C 0.4449(3) 0.6892(2) 0.0132(6)
C17 C 0.4103(3) 0.7107(3) 0.1104(7)
H11 H 0.393345 0.681627 0.164840
C18 C 0.4016(3) 0.7753(3) 0.1249(7)
H12 H 0.377963 0.789370 0.188677
C19 C 0.4264(3) 0.8191(2) 0.0492(7)
C22 C 0.4134(3) 0.8892(3) 0.0620(8)
H15 H 0.450034 0.913821 0.042589
H16 H 0.417080 0.898891 0.169394
H17 H 0.292353 0.911870 0.093686
O6 O 0.4416(2) 0.58130(17) 0.0858(4)
Nd5 Nd 0.500000 0.48831(2) 0.250000
Nd7_2 Nd 1.000000 0.98831(2) 0.250000
C1 C 0.5463(3) 0.6189(2) 0.5090(6)
C2 C 0.5551(3) 0.6892(2) 0.4868(6)
C3 C 0.5897(3) 0.7107(3) 0.3896(7)
H1 H 0.606655 0.681627 0.335160
C4 C 0.5984(3) 0.7753(3) 0.3751(7)
H2 H 0.622037 0.789370 0.311323
C5 C 0.5736(3) 0.8191(2) 0.4508(7)
C6 C 0.5371(3) 0.7984(3) 0.5420(8)
H3 H 0.518235 0.827894 0.591861
C7 C 0.5284(3) 0.7336(3) 0.5594(7)
H4 H 0.503922 0.719936 0.621706
C8 C 0.5866(3) 0.8892(3) 0.4380(8)
H5 H 0.549966 0.913821 0.457411
H6 H 0.582920 0.898891 0.330606
C9 C 0.7152(3) 0.9162(3) 0.5137(7)
H7 H 0.707647 0.911870 0.406314
C10 C 0.7828(3) 0.9316(3) 0.6246(7)
H8 H 0.820624 0.937875 0.591796
C11 C 0.7951(3) 0.9378(2) 0.7846(6)
C12 C 0.7379(3) 0.9293(3) 0.8299(7)
H9 H 0.744711 0.933536 0.936791
C13 C 0.6706(3) 0.9144(4) 0.7154(8)
H10 H 0.631633 0.909051 0.745134
C14 C 0.8697(2) 0.9547(2) 0.9096(6)
N1 N 0.6605(2) 0.9074(2) 0.5583(6)
O1 O 0.5278(2) 0.60397(17) 0.6198(4)
O2 O 0.5584(2) 0.58130(17) 0.4142(4)
O4 O 0.91612(19) 0.97187(19) 0.8593(4)
Nd1 Nd 0.500000 0.51169(2) 0.750000
C15 C 0.4537(3) 0.6189(2) 0.9910(6)
C20 C 0.4629(3) 0.7984(3) 0.9580(8)
H13 H 0.481765 0.827894 0.908139
C21 C 0.4716(3) 0.7336(3) 0.9406(7)
H14 H 0.496078 0.719936 0.878294
C23 C 0.2848(3) 0.9162(3) 0.9863(7)
C24 C 0.2172(3) 0.9316(3) 0.8754(7)
H18 H 0.179376 0.937875 0.908204
C25 C 0.2049(3) 0.9378(2) 0.7154(6)
C26 C 0.2621(3) 0.9293(3) 0.6701(7)
H19 H 0.255289 0.933536 0.563209
C27 C 0.3294(3) 0.9144(4) 0.7846(8)
H20 H 0.368367 0.909051 0.754866
C28 C 0.1303(2) 0.9547(2) 0.5904(6)
N2 N 0.3395(2) 0.9074(2) 0.9417(6)
O5 O 0.4722(2) 0.60397(17) 0.8802(4)
O7 O 0.12150(18) 0.95084(19) 0.4467(4)
O8 O 0.08388(19) 0.97187(19) 0.6407(4)
O9 O 0.4416(2) 0.41870(17) 0.5858(4)
O10 O 0.5584(2) 0.41870(17) 0.9142(4)
O11 O 0.62150(18) 0.54916(19) 0.9467(4)
O12 O 0.37850(18) 0.54916(19) 0.5533(4)
O13 O 0.41612(19) 0.47187(19) 0.8593(4)
O14 O 0.58388(19) 0.47187(19) 0.6407(4)
O3_2 O 0.37850(18) 0.45084(19) 0.0533(4)
C1_2 C 0.0463(3) 0.1189(2) 0.5090(6)
C2_2 C 0.0551(3) 0.1892(2) 0.4868(6)
C3_2 C 0.0897(3) 0.2107(3) 0.3896(7)
H1_2 H 0.106655 0.181627 0.335160
C4_2 C 0.0984(3) 0.2753(3) 0.3751(7)
H2_2 H 0.122037 0.289370 0.311323
C5_2 C 0.0736(3) 0.3191(2) 0.4508(7)
C6_2 C 0.0371(3) 0.2984(3) 0.5420(8)
H3_2 H 0.018235 0.327894 0.591861
C7_2 C 0.0284(3) 0.2336(3) 0.5594(7)
H4_2 H 0.003922 0.219936 0.621706
C8_2 C 0.0866(3) 0.3892(3) 0.4380(8)
H5_2 H 0.049966 0.413821 0.457411
H6_2 H 0.082920 0.398891 0.330606
C9_2 C 0.2152(3) 0.4162(3) 0.5137(7)
H7_2 H 0.207647 0.411870 0.406314
C10_2 C 0.2828(3) 0.4316(3) 0.6246(7)
H8_2 H 0.320624 0.437875 0.591796
C11_2 C 0.2951(3) 0.4378(2) 0.7846(6)
C12_2 C 0.2379(3) 0.4293(3) 0.8299(7)
H9_2 H 0.244711 0.433536 0.936791
C13_2 C 0.1706(3) 0.4144(4) 0.7154(8)
H10_2 H 0.131633 0.409051 0.745134
C14_2 C 0.3697(2) 0.4547(2) 0.9096(6)
N1_2 N 0.1605(2) 0.4074(2) 0.5583(6)
O1_2 O 0.0278(2) 0.10397(17) 0.6198(4)
O2_2 O 0.0584(2) 0.08130(17) 0.4142(4)
O11_2 O 0.12150(18) 0.04916(19) 0.9467(4)
O10_2 O 0.0584(2) 0.91870(17) 0.9142(4)
C16_2 C 0.9449(3) 0.1892(2) 0.0132(6)
C17_2 C 0.9103(3) 0.2107(3) 0.1104(7)
H11_2 H 0.893345 0.181627 0.164840
C18_2 C 0.9016(3) 0.2753(3) 0.1249(7)
H12_2 H 0.877963 0.289370 0.188677
C19_2 C 0.9264(3) 0.3191(2) 0.0492(7)
C22_2 C 0.9134(3) 0.3892(3) 0.0620(8)
H15_2 H 0.950034 0.413821 0.042589
H16_2 H 0.917080 0.398891 0.169394
H17_2 H 0.792353 0.411870 0.093686
O6_2 O 0.9416(2) 0.08130(17) 0.0858(4)
C15_2 C 0.9537(3) 0.1189(2) 0.9910(6)
C20_2 C 0.9629(3) 0.2984(3) 0.9580(8)
H13_2 H 0.981765 0.327894 0.908139
C21_2 C 0.9716(3) 0.2336(3) 0.9406(7)
H14_2 H 0.996078 0.219936 0.878294
C23_2 C 0.7848(3) 0.4162(3) 0.9863(7)
C24_2 C 0.7172(3) 0.4316(3) 0.8754(7)
H18_2 H 0.679376 0.437875 0.908204
C25_2 C 0.7049(3) 0.4378(2) 0.7154(6)
C26_2 C 0.7621(3) 0.4293(3) 0.6701(7)
H19_2 H 0.755289 0.433536 0.563209
C27_2 C 0.8294(3) 0.4144(4) 0.7846(8)
H20_2 H 0.868367 0.409051 0.754866
C28_2 C 0.6303(2) 0.4547(2) 0.5904(6)
N2_2 N 0.8395(2) 0.4074(2) 0.9417(6)
O5_2 O 0.9722(2) 0.10397(17) 0.8802(4)
O7_2 O 0.62150(18) 0.45084(19) 0.4467(4)
O12_2 O 0.87850(18) 0.04916(19) 0.5533(4)
O9_2 O 0.9416(2) 0.91870(17) 0.5858(4)
C1_3 C 0.4537(3) 0.3811(2) 0.4910(6)
C2_3 C 0.4449(3) 0.3108(2) 0.5132(6)
C3_3 C 0.4103(3) 0.2893(3) 0.6104(7)
H1_3 H 0.393345 0.318373 0.664840
C4_3 C 0.4016(3) 0.2247(3) 0.6249(7)
H2_3 H 0.377963 0.210630 0.688677
C5_3 C 0.4264(3) 0.1809(2) 0.5492(7)
C6_3 C 0.4629(3) 0.2016(3) 0.4580(8)
H3_3 H 0.481765 0.172106 0.408139
C7_3 C 0.4716(3) 0.2664(3) 0.4406(7)
H4_3 H 0.496078 0.280064 0.378294
C8_3 C 0.4134(3) 0.1108(3) 0.5620(8)
H5_3 H 0.450034 0.086179 0.542589
H6_3 H 0.417080 0.101109 0.669394
C9_3 C 0.2848(3) 0.0838(3) 0.4863(7)
H7_3 H 0.292353 0.088130 0.593686
C10_3 C 0.2172(3) 0.0684(3) 0.3754(7)
H8_3 H 0.179376 0.062125 0.408204
C11_3 C 0.2049(3) 0.0622(2) 0.2154(6)
C12_3 C 0.2621(3) 0.0707(3) 0.1701(7)
H9_3 H 0.255289 0.066464 0.063209
C13_3 C 0.3294(3) 0.0856(4) 0.2846(8)
H10_3 H 0.368367 0.090949 0.254866
C14_3 C 0.1303(2) 0.0453(2) 0.0904(6)
N1_3 N 0.3395(2) 0.0926(2) 0.4417(6)
O1_3 O 0.4722(2) 0.39603(17) 0.3802(4)
O4_2 O 0.08388(19) 0.02813(19) 0.1407(4)
C15_3 C 0.5463(3) 0.3811(2) 0.0090(6)
C20_3 C 0.5371(3) 0.2016(3) 0.0420(8)
H13_3 H 0.518235 0.172106 0.091861
C21_3 C 0.5284(3) 0.2664(3) 0.0594(7)
H14_3 H 0.503922 0.280064 0.121706
C23_3 C 0.7152(3) 0.0838(3) 0.0137(7)
C24_3 C 0.7828(3) 0.0684(3) 0.1246(7)
H18_3 H 0.820624 0.062125 0.091796
C25_3 C 0.7951(3) 0.0622(2) 0.2846(6)
C26_3 C 0.7379(3) 0.0707(3) 0.3299(7)
H19_3 H 0.744711 0.066464 0.436791
C27_3 C 0.6706(3) 0.0856(4) 0.2154(8)
H20_3 H 0.631633 0.090949 0.245134
C28_3 C 0.8697(2) 0.0453(2) 0.4096(6)
N2_3 N 0.6605(2) 0.0926(2) 0.0583(6)
O5_3 O 0.5278(2) 0.39603(17) 0.1198(4)
O8_2 O 0.91612(19) 0.02813(19) 0.3593(4)
O13_2 O 0.58388(19) 0.52813(19) 0.1407(4)
O14_2 O 0.41612(19) 0.52813(19) 0.3593(4)
C16_3 C 0.5551(3) 0.3108(2) 0.9868(6)
C17_3 C 0.5897(3) 0.2893(3) 0.8896(7)
H11_3 H 0.606655 0.318373 0.835160
C18_3 C 0.5984(3) 0.2247(3) 0.8751(7)
H12_3 H 0.622037 0.210630 0.811323
C19_3 C 0.5736(3) 0.1809(2) 0.9508(7)
C22_3 C 0.5866(3) 0.1108(3) 0.9380(8)
H15_3 H 0.549966 0.086179 0.957411
H16_3 H 0.582920 0.101109 0.830606
H17_3 H 0.707647 0.088130 0.906314
C15_4 C 0.0463(3) 0.8811(2) 0.0090(6)
C20_4 C 0.0371(3) 0.7016(3) 0.0420(8)
H13_4 H 0.018235 0.672106 0.091861
C21_4 C 0.0284(3) 0.7664(3) 0.0594(7)
H14_4 H 0.003922 0.780064 0.121706
C23_4 C 0.2152(3) 0.5838(3) 0.0137(7)
C24_4 C 0.2828(3) 0.5684(3) 0.1246(7)
H18_4 H 0.320624 0.562125 0.091796
C25_4 C 0.2951(3) 0.5622(2) 0.2846(6)
C26_4 C 0.2379(3) 0.5707(3) 0.3299(7)
H19_4 H 0.244711 0.566464 0.436791
C27_4 C 0.1706(3) 0.5856(4) 0.2154(8)
H20_4 H 0.131633 0.590949 0.245134
C28_4 C 0.3697(2) 0.5453(2) 0.4096(6)
N2_4 N 0.1605(2) 0.5926(2) 0.0583(6)
O5_4 O 0.0278(2) 0.89603(17) 0.1198(4)
C16_4 C 0.0551(3) 0.8108(2) 0.9868(6)
C17_4 C 0.0897(3) 0.7893(3) 0.8896(7)
H11_4 H 0.106655 0.818373 0.835160
C18_4 C 0.0984(3) 0.7247(3) 0.8751(7)
H12_4 H 0.122037 0.710630 0.811323
C19_4 C 0.0736(3) 0.6809(2) 0.9508(7)
C22_4 C 0.0866(3) 0.6108(3) 0.9380(8)
H15_4 H 0.049966 0.586179 0.957411
H16_4 H 0.082920 0.601109 0.830606
H17_4 H 0.207647 0.588130 0.906314
C1_4 C 0.9537(3) 0.8811(2) 0.4910(6)
C2_4 C 0.9449(3) 0.8108(2) 0.5132(6)
C3_4 C 0.9103(3) 0.7893(3) 0.6104(7)
H1_4 H 0.893345 0.818373 0.664840
C4_4 C 0.9016(3) 0.7247(3) 0.6249(7)
H2_4 H 0.877963 0.710630 0.688677
C5_4 C 0.9264(3) 0.6809(2) 0.5492(7)
C6_4 C 0.9629(3) 0.7016(3) 0.4580(8)
H3_4 H 0.981765 0.672106 0.408139
C7_4 C 0.9716(3) 0.7664(3) 0.4406(7)
H4_4 H 0.996078 0.780064 0.378294
C8_4 C 0.9134(3) 0.6108(3) 0.5620(8)
H5_4 H 0.950034 0.586179 0.542589
H6_4 H 0.917080 0.601109 0.669394
C9_4 C 0.7848(3) 0.5838(3) 0.4863(7)
H7_4 H 0.792353 0.588130 0.593686
C10_4 C 0.7172(3) 0.5684(3) 0.3754(7)
H8_4 H 0.679376 0.562125 0.408204
C11_4 C 0.7049(3) 0.5622(2) 0.2154(6)
C12_4 C 0.7621(3) 0.5707(3) 0.1701(7)
H9_4 H 0.755289 0.566464 0.063209
C13_4 C 0.8294(3) 0.5856(4) 0.2846(8)
H10_4 H 0.868367 0.590949 0.254866
C14_4 C 0.6303(2) 0.5453(2) 0.0904(6)
N1_4 N 0.8395(2) 0.5926(2) 0.4417(6)
O1_4 O 0.9722(2) 0.89603(17) 0.3802(4)
loop_
_geom_bond_atom_site_label_1
_geom_bond_atom_site_label_2
_geom_bond_site_symmetry_1
_geom_bond_site_symmetry_2
C16 C17 1_555 1_555
C17 H11 1_555 1_555
C18 C17 1_555 1_555
H12 C18 1_555 1_555
C19 C18 1_555 1_555
C22 C19 1_555 1_555
H15 C22 1_555 1_555
H16 C22 1_555 1_555
Nd5 O6 1_555 1_555
Nd7_2 O3 1_555 1_555
C1 C2 1_555 1_555
C2 C3 1_555 1_555
C3 H1 1_555 1_555
C4 C3 1_555 1_555
H2 C4 1_555 1_555
C5 C4 1_555 1_555
C6 C5 1_555 1_555
H3 C6 1_555 1_555
C7 C2 1_555 1_555
H4 C7 1_555 1_555
C8 C5 1_555 1_555
H5 C8 1_555 1_555
H6 C8 1_555 1_555
C9 H7 1_555 1_555
C10 C9 1_555 1_555
H8 C10 1_555 1_555
C11 C10 1_555 1_555
C12 C11 1_555 1_555
H9 C12 1_555 1_555
C13 C12 1_555 1_555
H10 C13 1_555 1_555
C14 C11 1_555 1_555
N1 C8 1_555 1_555
O1 C1 1_555 1_555
O2 C1 1_555 1_555
O4 C14 1_555 1_555
Nd1 O1 1_555 1_555
H13 C20 1_555 1_555
H14 C21 1_555 1_555
C24 C23 1_555 1_555
H18 C24 1_555 1_555
C25 C24 1_555 1_555
C26 C25 1_555 1_555
H19 C26 1_555 1_555
C27 C26 1_555 1_555
H20 C27 1_555 1_555
C28 C25 1_555 1_555
O5 Nd1 1_555 1_555
O7 C28 1_555 1_555
O8 C28 1_555 1_555
O9 Nd1 1_555 1_555
O10 Nd1 1_555 1_555
O11 Nd1 1_555 1_555
O12 Nd1 1_555 1_555
O13 Nd1 1_555 1_555
O14 Nd1 1_555 1_555
Nd5 O2 1_555 1_555
Nd7 O7 1_555 1_555
C6 C7 1_555 1_555
C9 N1 1_555 1_555
C13 N1 1_555 1_555
C15 O5 1_555 1_555
C20 C21 1_555 1_555
C23 N2 1_555 1_555
C27 N2 1_555 1_555
Nd5 O3_2 1_555 1_555
C1_2 C2_2 1_555 1_555
C2_2 C3_2 1_555 1_555
C3_2 H1_2 1_555 1_555
C4_2 C3_2 1_555 1_555
H2_2 C4_2 1_555 1_555
C5_2 C4_2 1_555 1_555
C6_2 C5_2 1_555 1_555
H3_2 C6_2 1_555 1_555
C7_2 C2_2 1_555 1_555
H4_2 C7_2 1_555 1_555
C8_2 C5_2 1_555 1_555
H5_2 C8_2 1_555 1_555
H6_2 C8_2 1_555 1_555
C9_2 H7_2 1_555 1_555
C10_2 C9_2 1_555 1_555
H8_2 C10_2 1_555 1_555
C11_2 C10_2 1_555 1_555
C12_2 C11_2 1_555 1_555
H9_2 C12_2 1_555 1_555
C13_2 C12_2 1_555 1_555
H10_2 C13_2 1_555 1_555
C14_2 C11_2 1_555 1_555
N1_2 C8_2 1_555 1_555
O1_2 C1_2 1_555 1_555
O2_2 C1_2 1_555 1_555
O13 C14_2 1_555 1_555
Nd3 O1_2 1_555 1_555
O11_2 Nd3 1_555 1_555
C6_2 C7_2 1_555 1_555
C9_2 N1_2 1_555 1_555
C13_2 N1_2 1_555 1_555
C16_2 C17_2 1_555 1_555
C17_2 H11_2 1_555 1_555
C18_2 C17_2 1_555 1_555
H12_2 C18_2 1_555 1_555
C19_2 C18_2 1_555 1_555
C22_2 C19_2 1_555 1_555
H15_2 C22_2 1_555 1_555
H16_2 C22_2 1_555 1_555
H13_2 C20_2 1_555 1_555
H14_2 C21_2 1_555 1_555
C24_2 C23_2 1_555 1_555
H18_2 C24_2 1_555 1_555
C25_2 C24_2 1_555 1_555
C26_2 C25_2 1_555 1_555
H19_2 C26_2 1_555 1_555
C27_2 C26_2 1_555 1_555
H20_2 C27_2 1_555 1_555
C28_2 C25_2 1_555 1_555
O5_2 Nd3_2 1_555 1_555
O7_2 C28_2 1_555 1_555
O14 C28_2 1_555 1_555
O12_2 Nd3_2 1_555 1_555
Nd5 O7_2 1_555 1_555
C15_2 O5_2 1_555 1_555
C20_2 C21_2 1_555 1_555
C23_2 N2_2 1_555 1_555
C27_2 N2_2 1_555 1_555
C1_3 C2_3 1_555 1_555
C2_3 C3_3 1_555 1_555
C3_3 H1_3 1_555 1_555
C4_3 C3_3 1_555 1_555
H2_3 C4_3 1_555 1_555
C5_3 C4_3 1_555 1_555
C6_3 C5_3 1_555 1_555
H3_3 C6_3 1_555 1_555
C7_3 C2_3 1_555 1_555
H4_3 C7_3 1_555 1_555
C8_3 C5_3 1_555 1_555
H5_3 C8_3 1_555 1_555
H6_3 C8_3 1_555 1_555
C9_3 H7_3 1_555 1_555
C10_3 C9_3 1_555 1_555
H8_3 C10_3 1_555 1_555
C11_3 C10_3 1_555 1_555
C12_3 C11_3 1_555 1_555
H9_3 C12_3 1_555 1_555
C13_3 C12_3 1_555 1_555
H10_3 C13_3 1_555 1_555
C14_3 C11_3 1_555 1_555
N1_3 C8_3 1_555 1_555
O1_3 C1_3 1_555 1_555
O9 C1_3 1_555 1_555
O4_2 C14_3 1_555 1_555
Nd5 O1_3 1_555 1_555
H13_3 C20_3 1_555 1_555
H14_3 C21_3 1_555 1_555
C24_3 C23_3 1_555 1_555
H18_3 C24_3 1_555 1_555
C25_3 C24_3 1_555 1_555
C26_3 C25_3 1_555 1_555
H19_3 C26_3 1_555 1_555
C27_3 C26_3 1_555 1_555
H20_3 C27_3 1_555 1_555
C28_3 C25_3 1_555 1_555
O5_3 Nd5 1_555 1_555
O12_2 C28_3 1_555 1_555
O8_2 C28_3 1_555 1_555
O13_2 Nd5 1_555 1_555
O14_2 Nd5 1_555 1_555
C6_3 C7_3 1_555 1_555
C9_3 N1_3 1_555 1_555
C13_3 N1_3 1_555 1_555
C15_3 O5_3 1_555 1_555
C20_3 C21_3 1_555 1_555
C23_3 N2_3 1_555 1_555
C27_3 N2_3 1_555 1_555
C16_3 C17_3 1_555 1_555
C17_3 H11_3 1_555 1_555
C18_3 C17_3 1_555 1_555
H12_3 C18_3 1_555 1_555
C19_3 C18_3 1_555 1_555
C22_3 C19_3 1_555 1_555
H15_3 C22_3 1_555 1_555
H16_3 C22_3 1_555 1_555
H13_4 C20_4 1_555 1_555
H14_4 C21_4 1_555 1_555
C24_4 C23_4 1_555 1_555
H18_4 C24_4 1_555 1_555
C25_4 C24_4 1_555 1_555
C26_4 C25_4 1_555 1_555
H19_4 C26_4 1_555 1_555
C27_4 C26_4 1_555 1_555
H20_4 C27_4 1_555 1_555
C28_4 C25_4 1_555 1_555
O5_4 Nd7 1_555 1_555
O12 C28_4 1_555 1_555
O14_2 C28_4 1_555 1_555
C15_4 O5_4 1_555 1_555
C20_4 C21_4 1_555 1_555
C23_4 N2_4 1_555 1_555
C27_4 N2_4 1_555 1_555
C16_4 C17_4 1_555 1_555
C17_4 H11_4 1_555 1_555
C18_4 C17_4 1_555 1_555
H12_4 C18_4 1_555 1_555
C19_4 C18_4 1_555 1_555
C22_4 C19_4 1_555 1_555
H15_4 C22_4 1_555 1_555
H16_4 C22_4 1_555 1_555
C1_4 C2_4 1_555 1_555
C2_4 C3_4 1_555 1_555
C3_4 H1_4 1_555 1_555
C4_4 C3_4 1_555 1_555
H2_4 C4_4 1_555 1_555
C5_4 C4_4 1_555 1_555
C6_4 C5_4 1_555 1_555
H3_4 C6_4 1_555 1_555
C7_4 C2_4 1_555 1_555
H4_4 C7_4 1_555 1_555
C8_4 C5_4 1_555 1_555
H5_4 C8_4 1_555 1_555
H6_4 C8_4 1_555 1_555
C9_4 H7_4 1_555 1_555
C10_4 C9_4 1_555 1_555
H8_4 C10_4 1_555 1_555
C11_4 C10_4 1_555 1_555
C12_4 C11_4 1_555 1_555
H9_4 C12_4 1_555 1_555
C13_4 C12_4 1_555 1_555
H10_4 C13_4 1_555 1_555
C14_4 C11_4 1_555 1_555
N1_4 C8_4 1_555 1_555
O1_4 C1_4 1_555 1_555
O9_2 C1_4 1_555 1_555
O13_2 C14_4 1_555 1_555
Nd7_2 O1_4 1_555 1_555
C6_4 C7_4 1_555 1_555
C9_4 N1_4 1_555 1_555
C13_4 N1_4 1_555 1_555

#END
