
###############################################################################
#
# This file contains modified crystal structure data generated from the
# MOF subset of the Cambridge Structural Database (CSD) v543 
# hosted by the Cambridge Crystallographic Data Centre (CCDC).
#
# This work is licensed under the Creative Commons
# Attribution-NonCommercial-ShareAlike 4.0 International License.
# To view a copy of this license, visit
# http://creativecommons.org/licenses/by-nc-sa/4.0/
# or send a letter to
# Creative Commons, PO Box 1866, Mountain View, CA 94042, USA.
#
# CIF created using the CSD Python API on 29 September 2022
# The structure has been converted into the P1 space group
# The structure has a 3D framework
# The original CSD entry SAPZES is in the monoclinic crystal system
# The framework has been calculated to contain at least 10.0% void space
# The void calculation uses a probe of radius 1.32A, grid spacing 0.4
# The framework is charged, counterions have been retained in the structure
#
###############################################################################

data_SAPZES
_chemical_formula_moiety         '(C112 H80 Br14 Gd6 N8 O26 10-)n'
_symmetry_cell_setting           triclinic
_symmetry_space_group_name_H-M   'P 1'
_symmetry_Int_Tables_number      1
_space_group_name_Hall           'P 1'
loop_
_symmetry_equiv_pos_site_id
_symmetry_equiv_pos_as_xyz
1 x,y,z
_cell_length_a                   20.1554(5)
_cell_length_b                   20.4754(6)
_cell_length_c                   9.0336(2)
_cell_angle_alpha                90
_cell_angle_beta                 113.581(2)
_cell_angle_gamma                90
_cell_volume                     3416.76
loop_
_atom_site_label
_atom_site_type_symbol
_atom_site_fract_x
_atom_site_fract_y
_atom_site_fract_z
Br1 Br 0.6143(9) 0.9204(9) 0.080(2)
Br1_2 Br 0.3857(9) 0.9204(9) 0.420(2)
Br1_3 Br 0.1143(9) 0.4204(9) 0.080(2)
Br1_4 Br 0.8857(9) 0.4204(9) 0.420(2)
Br1_5 Br 0.3857(9) 0.0796(9) 0.920(2)
Br1_6 Br 0.6143(9) 0.0796(9) 0.580(2)
Br1_7 Br 0.8857(9) 0.5796(9) 0.920(2)
Br1_8 Br 0.1143(9) 0.5796(9) 0.580(2)
Br2 Br 0.500000 0.9506(3) 0.750000
Br2_2 Br 0.000000 0.4506(3) 0.750000
Br2_3 Br 1.000000 0.4506(3) 0.750000
Br2_4 Br 0.500000 0.0494(3) 0.250000
Br2_5 Br 0.000000 0.5494(3) 0.250000
Br2_6 Br 1.000000 0.5494(3) 0.250000
Gd3 Gd -0.000000 0.01142(2) 0.750000
Gd7 Gd 0.000000 0.98858(2) 0.250000
Gd3_2 Gd 1.000000 0.01142(2) 0.750000
O3 O 0.8832(3) 0.9509(4) 0.0532(6)
C16 C 0.4453(5) 0.6904(4) 0.0107(9)
C17 C 0.4111(6) 0.7122(5) 0.1093(13)
H11 H 0.394040 0.682927 0.164661
C18 C 0.4035(7) 0.7795(6) 0.1214(16)
H12 H 0.380343 0.794886 0.185209
C19 C 0.4278(6) 0.8222(5) 0.0460(13)
C22 C 0.4141(8) 0.8937(7) 0.0587(17)
H15 H 0.449006 0.919140 0.034150
H16 H 0.420265 0.903774 0.168325
H17 H 0.293144 0.909977 0.093976
O6 O 0.4438(4) 0.5809(3) 0.0865(7)
Gd5 Gd 0.500000 0.48858(2) 0.250000
Gd7_2 Gd 1.000000 0.98858(2) 0.250000
C1 C 0.5453(5) 0.6181(4) 0.5106(9)
C2 C 0.5547(5) 0.6904(4) 0.4893(9)
C3 C 0.5889(6) 0.7122(5) 0.3907(13)
H1 H 0.605960 0.682927 0.335339
C4 C 0.5965(7) 0.7795(6) 0.3786(16)
H2 H 0.619657 0.794886 0.314791
C5 C 0.5722(6) 0.8222(5) 0.4540(13)
C6 C 0.5378(7) 0.8021(6) 0.5446(15)
H3 H 0.519281 0.832551 0.594457
C7 C 0.5295(6) 0.7360(5) 0.5646(13)
H4 H 0.506496 0.722382 0.630276
C8 C 0.5859(8) 0.8937(7) 0.4413(17)
H5 H 0.550994 0.919140 0.465850
H6 H 0.579735 0.903774 0.331675
C9 C 0.7151(7) 0.9166(6) 0.5138(15)
H7 H 0.706856 0.909977 0.406024
C10 C 0.7840(6) 0.9311(6) 0.6235(13)
H8 H 0.821609 0.935474 0.589326
C11 C 0.7970(5) 0.9392(5) 0.7851(9)
C12 C 0.7398(6) 0.9344(5) 0.8308(13)
H9 H 0.747638 0.939890 0.938750
C13 C 0.6705(7) 0.9214(6) 0.7173(16)
H10 H 0.631267 0.919034 0.746409
C14 C 0.8721(4) 0.9556(5) 0.9078(9)
N1 N 0.6621(6) 0.9120(5) 0.5575(12)
O1 O 0.5274(4) 0.6035(3) 0.6232(6)
O2 O 0.5562(4) 0.5809(3) 0.4135(7)
O4 O 0.9176(3) 0.9723(3) 0.8541(7)
Gd1 Gd 0.500000 0.51142(2) 0.750000
C15 C 0.4547(5) 0.6181(4) 0.9894(9)
C20 C 0.4622(7) 0.8021(6) 0.9554(15)
H13 H 0.480719 0.832551 0.905543
C21 C 0.4705(6) 0.7360(5) 0.9354(13)
H14 H 0.493504 0.722382 0.869724
C23 C 0.2849(7) 0.9166(6) 0.9862(15)
C24 C 0.2160(6) 0.9311(6) 0.8765(13)
H18 H 0.178391 0.935474 0.910674
C25 C 0.2030(5) 0.9392(5) 0.7149(9)
C26 C 0.2602(6) 0.9344(5) 0.6692(13)
H19 H 0.252362 0.939890 0.561250
C27 C 0.3295(7) 0.9214(6) 0.7827(16)
H20 H 0.368733 0.919034 0.753591
C28 C 0.1279(4) 0.9556(5) 0.5922(9)
N2 N 0.3379(6) 0.9120(5) 0.9425(12)
O5 O 0.4726(4) 0.6035(3) 0.8768(6)
O7 O 0.1168(3) 0.9509(4) 0.4468(6)
O8 O 0.0824(3) 0.9723(3) 0.6459(7)
O9 O 0.4438(4) 0.4191(3) 0.5865(7)
O10 O 0.5562(4) 0.4191(3) 0.9135(7)
O11 O 0.6168(3) 0.5491(4) 0.9468(6)
O12 O 0.3832(3) 0.5491(4) 0.5532(6)
O13 O 0.4176(3) 0.4723(3) 0.8541(7)
O14 O 0.5824(3) 0.4723(3) 0.6459(7)
O3_2 O 0.3832(3) 0.4509(4) 0.0532(6)
C1_2 C 0.0453(5) 0.1181(4) 0.5106(9)
C2_2 C 0.0547(5) 0.1904(4) 0.4893(9)
C3_2 C 0.0889(6) 0.2122(5) 0.3907(13)
H1_2 H 0.105960 0.182927 0.335339
C4_2 C 0.0965(7) 0.2795(6) 0.3786(16)
H2_2 H 0.119657 0.294886 0.314791
C5_2 C 0.0722(6) 0.3222(5) 0.4540(13)
C6_2 C 0.0378(7) 0.3021(6) 0.5446(15)
H3_2 H 0.019281 0.332551 0.594457
C7_2 C 0.0295(6) 0.2360(5) 0.5646(13)
H4_2 H 0.006496 0.222382 0.630276
C8_2 C 0.0859(8) 0.3937(7) 0.4413(17)
H5_2 H 0.050994 0.419140 0.465850
H6_2 H 0.079735 0.403774 0.331675
C9_2 C 0.2151(7) 0.4166(6) 0.5138(15)
H7_2 H 0.206856 0.409977 0.406024
C10_2 C 0.2840(6) 0.4311(6) 0.6235(13)
H8_2 H 0.321609 0.435474 0.589326
C11_2 C 0.2970(5) 0.4392(5) 0.7851(9)
C12_2 C 0.2398(6) 0.4344(5) 0.8308(13)
H9_2 H 0.247638 0.439890 0.938750
C13_2 C 0.1705(7) 0.4214(6) 0.7173(16)
H10_2 H 0.131267 0.419034 0.746409
C14_2 C 0.3721(4) 0.4556(5) 0.9078(9)
N1_2 N 0.1621(6) 0.4120(5) 0.5575(12)
O1_2 O 0.0274(4) 0.1035(3) 0.6232(6)
O2_2 O 0.0562(4) 0.0809(3) 0.4135(7)
O11_2 O 0.1168(3) 0.0491(4) 0.9468(6)
O10_2 O 0.0562(4) 0.9191(3) 0.9135(7)
C16_2 C 0.9453(5) 0.1904(4) 0.0107(9)
C17_2 C 0.9111(6) 0.2122(5) 0.1093(13)
H11_2 H 0.894040 0.182927 0.164661
C18_2 C 0.9035(7) 0.2795(6) 0.1214(16)
H12_2 H 0.880343 0.294886 0.185209
C19_2 C 0.9278(6) 0.3222(5) 0.0460(13)
C22_2 C 0.9141(8) 0.3937(7) 0.0587(17)
H15_2 H 0.949006 0.419140 0.034150
H16_2 H 0.920265 0.403774 0.168325
H17_2 H 0.793144 0.409977 0.093976
O6_2 O 0.9438(4) 0.0809(3) 0.0865(7)
C15_2 C 0.9547(5) 0.1181(4) 0.9894(9)
C20_2 C 0.9622(7) 0.3021(6) 0.9554(15)
H13_2 H 0.980719 0.332551 0.905543
C21_2 C 0.9705(6) 0.2360(5) 0.9354(13)
H14_2 H 0.993504 0.222382 0.869724
C23_2 C 0.7849(7) 0.4166(6) 0.9862(15)
C24_2 C 0.7160(6) 0.4311(6) 0.8765(13)
H18_2 H 0.678391 0.435474 0.910674
C25_2 C 0.7030(5) 0.4392(5) 0.7149(9)
C26_2 C 0.7602(6) 0.4344(5) 0.6692(13)
H19_2 H 0.752362 0.439890 0.561250
C27_2 C 0.8295(7) 0.4214(6) 0.7827(16)
H20_2 H 0.868733 0.419034 0.753591
C28_2 C 0.6279(4) 0.4556(5) 0.5922(9)
N2_2 N 0.8379(6) 0.4120(5) 0.9425(12)
O5_2 O 0.9726(4) 0.1035(3) 0.8768(6)
O7_2 O 0.6168(3) 0.4509(4) 0.4468(6)
O12_2 O 0.8832(3) 0.0491(4) 0.5532(6)
O9_2 O 0.9438(4) 0.9191(3) 0.5865(7)
C1_3 C 0.4547(5) 0.3819(4) 0.4894(9)
C2_3 C 0.4453(5) 0.3096(4) 0.5107(9)
C3_3 C 0.4111(6) 0.2878(5) 0.6093(13)
H1_3 H 0.394040 0.317073 0.664661
C4_3 C 0.4035(7) 0.2205(6) 0.6214(16)
H2_3 H 0.380343 0.205114 0.685209
C5_3 C 0.4278(6) 0.1778(5) 0.5460(13)
C6_3 C 0.4622(7) 0.1979(6) 0.4554(15)
H3_3 H 0.480719 0.167449 0.405543
C7_3 C 0.4705(6) 0.2640(5) 0.4354(13)
H4_3 H 0.493504 0.277618 0.369724
C8_3 C 0.4141(8) 0.1063(7) 0.5587(17)
H5_3 H 0.449006 0.080860 0.534150
H6_3 H 0.420265 0.096226 0.668325
C9_3 C 0.2849(7) 0.0834(6) 0.4862(15)
H7_3 H 0.293144 0.090023 0.593976
C10_3 C 0.2160(6) 0.0689(6) 0.3765(13)
H8_3 H 0.178391 0.064526 0.410674
C11_3 C 0.2030(5) 0.0608(5) 0.2149(9)
C12_3 C 0.2602(6) 0.0656(5) 0.1692(13)
H9_3 H 0.252362 0.060110 0.061250
C13_3 C 0.3295(7) 0.0786(6) 0.2827(16)
H10_3 H 0.368733 0.080966 0.253591
C14_3 C 0.1279(4) 0.0444(5) 0.0922(9)
N1_3 N 0.3379(6) 0.0880(5) 0.4425(12)
O1_3 O 0.4726(4) 0.3965(3) 0.3768(6)
O4_2 O 0.0824(3) 0.0277(3) 0.1459(7)
C15_3 C 0.5453(5) 0.3819(4) 0.0106(9)
C20_3 C 0.5378(7) 0.1979(6) 0.0446(15)
H13_3 H 0.519281 0.167449 0.094457
C21_3 C 0.5295(6) 0.2640(5) 0.0646(13)
H14_3 H 0.506496 0.277618 0.130276
C23_3 C 0.7151(7) 0.0834(6) 0.0138(15)
C24_3 C 0.7840(6) 0.0689(6) 0.1235(13)
H18_3 H 0.821609 0.064526 0.089326
C25_3 C 0.7970(5) 0.0608(5) 0.2851(9)
C26_3 C 0.7398(6) 0.0656(5) 0.3308(13)
H19_3 H 0.747638 0.060110 0.438750
C27_3 C 0.6705(7) 0.0786(6) 0.2173(16)
H20_3 H 0.631267 0.080966 0.246409
C28_3 C 0.8721(4) 0.0444(5) 0.4078(9)
N2_3 N 0.6621(6) 0.0880(5) 0.0575(12)
O5_3 O 0.5274(4) 0.3965(3) 0.1232(6)
O8_2 O 0.9176(3) 0.0277(3) 0.3541(7)
O13_2 O 0.5824(3) 0.5277(3) 0.1459(7)
O14_2 O 0.4176(3) 0.5277(3) 0.3541(7)
C16_3 C 0.5547(5) 0.3096(4) 0.9893(9)
C17_3 C 0.5889(6) 0.2878(5) 0.8907(13)
H11_3 H 0.605960 0.317073 0.835339
C18_3 C 0.5965(7) 0.2205(6) 0.8786(16)
H12_3 H 0.619657 0.205114 0.814791
C19_3 C 0.5722(6) 0.1778(5) 0.9540(13)
C22_3 C 0.5859(8) 0.1063(7) 0.9413(17)
H15_3 H 0.550994 0.080860 0.965850
H16_3 H 0.579735 0.096226 0.831675
H17_3 H 0.706856 0.090023 0.906024
C15_4 C 0.0453(5) 0.8819(4) 0.0106(9)
C20_4 C 0.0378(7) 0.6979(6) 0.0446(15)
H13_4 H 0.019281 0.667449 0.094457
C21_4 C 0.0295(6) 0.7640(5) 0.0646(13)
H14_4 H 0.006496 0.777618 0.130276
C23_4 C 0.2151(7) 0.5834(6) 0.0138(15)
C24_4 C 0.2840(6) 0.5689(6) 0.1235(13)
H18_4 H 0.321609 0.564526 0.089326
C25_4 C 0.2970(5) 0.5608(5) 0.2851(9)
C26_4 C 0.2398(6) 0.5656(5) 0.3308(13)
H19_4 H 0.247638 0.560110 0.438750
C27_4 C 0.1705(7) 0.5786(6) 0.2173(16)
H20_4 H 0.131267 0.580966 0.246409
C28_4 C 0.3721(4) 0.5444(5) 0.4078(9)
N2_4 N 0.1621(6) 0.5880(5) 0.0575(12)
O5_4 O 0.0274(4) 0.8965(3) 0.1232(6)
C16_4 C 0.0547(5) 0.8096(4) 0.9893(9)
C17_4 C 0.0889(6) 0.7878(5) 0.8907(13)
H11_4 H 0.105960 0.817073 0.835339
C18_4 C 0.0965(7) 0.7205(6) 0.8786(16)
H12_4 H 0.119657 0.705114 0.814791
C19_4 C 0.0722(6) 0.6778(5) 0.9540(13)
C22_4 C 0.0859(8) 0.6063(7) 0.9413(17)
H15_4 H 0.050994 0.580860 0.965850
H16_4 H 0.079735 0.596226 0.831675
H17_4 H 0.206856 0.590023 0.906024
C1_4 C 0.9547(5) 0.8819(4) 0.4894(9)
C2_4 C 0.9453(5) 0.8096(4) 0.5107(9)
C3_4 C 0.9111(6) 0.7878(5) 0.6093(13)
H1_4 H 0.894040 0.817073 0.664661
C4_4 C 0.9035(7) 0.7205(6) 0.6214(16)
H2_4 H 0.880343 0.705114 0.685209
C5_4 C 0.9278(6) 0.6778(5) 0.5460(13)
C6_4 C 0.9622(7) 0.6979(6) 0.4554(15)
H3_4 H 0.980719 0.667449 0.405543
C7_4 C 0.9705(6) 0.7640(5) 0.4354(13)
H4_4 H 0.993504 0.777618 0.369724
C8_4 C 0.9141(8) 0.6063(7) 0.5587(17)
H5_4 H 0.949006 0.580860 0.534150
H6_4 H 0.920265 0.596226 0.668325
C9_4 C 0.7849(7) 0.5834(6) 0.4862(15)
H7_4 H 0.793144 0.590023 0.593976
C10_4 C 0.7160(6) 0.5689(6) 0.3765(13)
H8_4 H 0.678391 0.564526 0.410674
C11_4 C 0.7030(5) 0.5608(5) 0.2149(9)
C12_4 C 0.7602(6) 0.5656(5) 0.1692(13)
H9_4 H 0.752362 0.560110 0.061250
C13_4 C 0.8295(7) 0.5786(6) 0.2827(16)
H10_4 H 0.868733 0.580966 0.253591
C14_4 C 0.6279(4) 0.5444(5) 0.0922(9)
N1_4 N 0.8379(6) 0.5880(5) 0.4425(12)
O1_4 O 0.9726(4) 0.8965(3) 0.3768(6)
loop_
_geom_bond_atom_site_label_1
_geom_bond_atom_site_label_2
_geom_bond_site_symmetry_1
_geom_bond_site_symmetry_2
C16 C17 1_555 1_555
C17 H11 1_555 1_555
C18 C17 1_555 1_555
H12 C18 1_555 1_555
C19 C18 1_555 1_555
C22 C19 1_555 1_555
H15 C22 1_555 1_555
H16 C22 1_555 1_555
Gd5 O6 1_555 1_555
Gd7_2 O3 1_555 1_555
C1 C2 1_555 1_555
C2 C3 1_555 1_555
C3 H1 1_555 1_555
C4 C3 1_555 1_555
H2 C4 1_555 1_555
C5 C4 1_555 1_555
C6 C5 1_555 1_555
H3 C6 1_555 1_555
C7 C2 1_555 1_555
H4 C7 1_555 1_555
C8 C5 1_555 1_555
H5 C8 1_555 1_555
H6 C8 1_555 1_555
C9 H7 1_555 1_555
C10 C9 1_555 1_555
H8 C10 1_555 1_555
C11 C10 1_555 1_555
C12 C11 1_555 1_555
H9 C12 1_555 1_555
C13 C12 1_555 1_555
H10 C13 1_555 1_555
C14 C11 1_555 1_555
N1 C8 1_555 1_555
O1 C1 1_555 1_555
O2 C1 1_555 1_555
O4 C14 1_555 1_555
Gd1 O1 1_555 1_555
H13 C20 1_555 1_555
H14 C21 1_555 1_555
C24 C23 1_555 1_555
H18 C24 1_555 1_555
C25 C24 1_555 1_555
C26 C25 1_555 1_555
H19 C26 1_555 1_555
C27 C26 1_555 1_555
H20 C27 1_555 1_555
C28 C25 1_555 1_555
O5 Gd1 1_555 1_555
O7 C28 1_555 1_555
O8 C28 1_555 1_555
O9 Gd1 1_555 1_555
O10 Gd1 1_555 1_555
O11 Gd1 1_555 1_555
O12 Gd1 1_555 1_555
O13 Gd1 1_555 1_555
O14 Gd1 1_555 1_555
Gd5 O2 1_555 1_555
Gd7 O7 1_555 1_555
C6 C7 1_555 1_555
C9 N1 1_555 1_555
C13 N1 1_555 1_555
C15 O5 1_555 1_555
C20 C21 1_555 1_555
C23 N2 1_555 1_555
C27 N2 1_555 1_555
Gd5 O3_2 1_555 1_555
C1_2 C2_2 1_555 1_555
C2_2 C3_2 1_555 1_555
C3_2 H1_2 1_555 1_555
C4_2 C3_2 1_555 1_555
H2_2 C4_2 1_555 1_555
C5_2 C4_2 1_555 1_555
C6_2 C5_2 1_555 1_555
H3_2 C6_2 1_555 1_555
C7_2 C2_2 1_555 1_555
H4_2 C7_2 1_555 1_555
C8_2 C5_2 1_555 1_555
H5_2 C8_2 1_555 1_555
H6_2 C8_2 1_555 1_555
C9_2 H7_2 1_555 1_555
C10_2 C9_2 1_555 1_555
H8_2 C10_2 1_555 1_555
C11_2 C10_2 1_555 1_555
C12_2 C11_2 1_555 1_555
H9_2 C12_2 1_555 1_555
C13_2 C12_2 1_555 1_555
H10_2 C13_2 1_555 1_555
C14_2 C11_2 1_555 1_555
N1_2 C8_2 1_555 1_555
O1_2 C1_2 1_555 1_555
O2_2 C1_2 1_555 1_555
O13 C14_2 1_555 1_555
Gd3 O1_2 1_555 1_555
O11_2 Gd3 1_555 1_555
C6_2 C7_2 1_555 1_555
C9_2 N1_2 1_555 1_555
C13_2 N1_2 1_555 1_555
C16_2 C17_2 1_555 1_555
C17_2 H11_2 1_555 1_555
C18_2 C17_2 1_555 1_555
H12_2 C18_2 1_555 1_555
C19_2 C18_2 1_555 1_555
C22_2 C19_2 1_555 1_555
H15_2 C22_2 1_555 1_555
H16_2 C22_2 1_555 1_555
H13_2 C20_2 1_555 1_555
H14_2 C21_2 1_555 1_555
C24_2 C23_2 1_555 1_555
H18_2 C24_2 1_555 1_555
C25_2 C24_2 1_555 1_555
C26_2 C25_2 1_555 1_555
H19_2 C26_2 1_555 1_555
C27_2 C26_2 1_555 1_555
H20_2 C27_2 1_555 1_555
C28_2 C25_2 1_555 1_555
O5_2 Gd3_2 1_555 1_555
O7_2 C28_2 1_555 1_555
O14 C28_2 1_555 1_555
O12_2 Gd3_2 1_555 1_555
Gd5 O7_2 1_555 1_555
C15_2 O5_2 1_555 1_555
C20_2 C21_2 1_555 1_555
C23_2 N2_2 1_555 1_555
C27_2 N2_2 1_555 1_555
C1_3 C2_3 1_555 1_555
C2_3 C3_3 1_555 1_555
C3_3 H1_3 1_555 1_555
C4_3 C3_3 1_555 1_555
H2_3 C4_3 1_555 1_555
C5_3 C4_3 1_555 1_555
C6_3 C5_3 1_555 1_555
H3_3 C6_3 1_555 1_555
C7_3 C2_3 1_555 1_555
H4_3 C7_3 1_555 1_555
C8_3 C5_3 1_555 1_555
H5_3 C8_3 1_555 1_555
H6_3 C8_3 1_555 1_555
C9_3 H7_3 1_555 1_555
C10_3 C9_3 1_555 1_555
H8_3 C10_3 1_555 1_555
C11_3 C10_3 1_555 1_555
C12_3 C11_3 1_555 1_555
H9_3 C12_3 1_555 1_555
C13_3 C12_3 1_555 1_555
H10_3 C13_3 1_555 1_555
C14_3 C11_3 1_555 1_555
N1_3 C8_3 1_555 1_555
O1_3 C1_3 1_555 1_555
O9 C1_3 1_555 1_555
O4_2 C14_3 1_555 1_555
Gd5 O1_3 1_555 1_555
H13_3 C20_3 1_555 1_555
H14_3 C21_3 1_555 1_555
C24_3 C23_3 1_555 1_555
H18_3 C24_3 1_555 1_555
C25_3 C24_3 1_555 1_555
C26_3 C25_3 1_555 1_555
H19_3 C26_3 1_555 1_555
C27_3 C26_3 1_555 1_555
H20_3 C27_3 1_555 1_555
C28_3 C25_3 1_555 1_555
O5_3 Gd5 1_555 1_555
O12_2 C28_3 1_555 1_555
O8_2 C28_3 1_555 1_555
O13_2 Gd5 1_555 1_555
O14_2 Gd5 1_555 1_555
C6_3 C7_3 1_555 1_555
C9_3 N1_3 1_555 1_555
C13_3 N1_3 1_555 1_555
C15_3 O5_3 1_555 1_555
C20_3 C21_3 1_555 1_555
C23_3 N2_3 1_555 1_555
C27_3 N2_3 1_555 1_555
C16_3 C17_3 1_555 1_555
C17_3 H11_3 1_555 1_555
C18_3 C17_3 1_555 1_555
H12_3 C18_3 1_555 1_555
C19_3 C18_3 1_555 1_555
C22_3 C19_3 1_555 1_555
H15_3 C22_3 1_555 1_555
H16_3 C22_3 1_555 1_555
H13_4 C20_4 1_555 1_555
H14_4 C21_4 1_555 1_555
C24_4 C23_4 1_555 1_555
H18_4 C24_4 1_555 1_555
C25_4 C24_4 1_555 1_555
C26_4 C25_4 1_555 1_555
H19_4 C26_4 1_555 1_555
C27_4 C26_4 1_555 1_555
H20_4 C27_4 1_555 1_555
C28_4 C25_4 1_555 1_555
O5_4 Gd7 1_555 1_555
O12 C28_4 1_555 1_555
O14_2 C28_4 1_555 1_555
C15_4 O5_4 1_555 1_555
C20_4 C21_4 1_555 1_555
C23_4 N2_4 1_555 1_555
C27_4 N2_4 1_555 1_555
C16_4 C17_4 1_555 1_555
C17_4 H11_4 1_555 1_555
C18_4 C17_4 1_555 1_555
H12_4 C18_4 1_555 1_555
C19_4 C18_4 1_555 1_555
C22_4 C19_4 1_555 1_555
H15_4 C22_4 1_555 1_555
H16_4 C22_4 1_555 1_555
C1_4 C2_4 1_555 1_555
C2_4 C3_4 1_555 1_555
C3_4 H1_4 1_555 1_555
C4_4 C3_4 1_555 1_555
H2_4 C4_4 1_555 1_555
C5_4 C4_4 1_555 1_555
C6_4 C5_4 1_555 1_555
H3_4 C6_4 1_555 1_555
C7_4 C2_4 1_555 1_555
H4_4 C7_4 1_555 1_555
C8_4 C5_4 1_555 1_555
H5_4 C8_4 1_555 1_555
H6_4 C8_4 1_555 1_555
C9_4 H7_4 1_555 1_555
C10_4 C9_4 1_555 1_555
H8_4 C10_4 1_555 1_555
C11_4 C10_4 1_555 1_555
C12_4 C11_4 1_555 1_555
H9_4 C12_4 1_555 1_555
C13_4 C12_4 1_555 1_555
H10_4 C13_4 1_555 1_555
C14_4 C11_4 1_555 1_555
N1_4 C8_4 1_555 1_555
O1_4 C1_4 1_555 1_555
O9_2 C1_4 1_555 1_555
O13_2 C14_4 1_555 1_555
Gd7_2 O1_4 1_555 1_555
C6_4 C7_4 1_555 1_555
C9_4 N1_4 1_555 1_555
C13_4 N1_4 1_555 1_555

#END
