
###############################################################################
#
# This file contains modified crystal structure data generated from the
# MOF subset of the Cambridge Structural Database (CSD) v543 
# hosted by the Cambridge Crystallographic Data Centre (CCDC).
#
# This work is licensed under the Creative Commons
# Attribution-NonCommercial-ShareAlike 4.0 International License.
# To view a copy of this license, visit
# http://creativecommons.org/licenses/by-nc-sa/4.0/
# or send a letter to
# Creative Commons, PO Box 1866, Mountain View, CA 94042, USA.
#
# CIF created using the CSD Python API on 29 September 2022
# The structure has been converted into the P1 space group
# The structure has a 3D framework
# The original CSD entry SAQCIZ is in the orthorhombic crystal system
# The framework has been calculated to contain at least 10.0% void space
# The void calculation uses a probe of radius 1.32A, grid spacing 0.4
#
###############################################################################

data_SAQCIZ
_chemical_formula_moiety         '(C56 H32 O24 Pb2 S4)n'
_symmetry_cell_setting           triclinic
_symmetry_space_group_name_H-M   'P 1'
_symmetry_Int_Tables_number      1
_space_group_name_Hall           'P 1'
loop_
_symmetry_equiv_pos_site_id
_symmetry_equiv_pos_as_xyz
1 x,y,z
_cell_length_a                   5.8740(4)
_cell_length_b                   13.0820(7)
_cell_length_c                   19.2970(12)
_cell_angle_alpha                90
_cell_angle_beta                 90
_cell_angle_gamma                90
_cell_volume                     1482.85
loop_
_atom_site_label
_atom_site_type_symbol
_atom_site_fract_x
_atom_site_fract_y
_atom_site_fract_z
C13 C 0.1731(15) 0.0162(6) 0.8748(4)
H8 H 0.4319 0.0053 0.9448
C14 C 0.2806(14) 0.1025(6) 0.8339(5)
O11 O 0.1631(11) 0.1383(4) 0.7843(3)
O12 O 0.4738(10) 0.1311(4) 0.8524(3)
Pb5 Pb 0.26389(7) 0.2500 0.68778(2)
Pb7 Pb 0.76389(7) 0.2500 0.81222(2)
H3 H 0.2751 0.6332 0.0073
Pb4 Pb 0.23611(7) 0.7500 0.18778(2)
H6 H 0.2751 0.8668 0.0073
O2 O 0.5282(15) 0.2500 0.5630(4)
O3 O 0.6631(11) 0.1383(4) 0.7157(3)
C1 C 0.2806(14) 0.3975(6) 0.8339(5)
C2 C 0.1731(15) 0.4838(6) 0.8748(4)
C3 C 0.2896(15) 0.5231(7) 0.9315(5)
C5 C 0.1962(15) 0.6049(6) 0.9689(5)
H1 H 0.4319 0.4947 0.9448
O6 O 0.1631(11) 0.3617(4) 0.7843(3)
O7 O 0.6631(11) 0.3617(4) 0.7157(3)
O9 O 0.4738(10) 0.3689(4) 0.8524(3)
C10 C 0.1962(15) 0.8951(6) 0.9689(5)
C12 C 0.2896(15) 0.9769(7) 0.9315(5)
H7 H 0.8840 0.0048 0.8165
O10 O 0.9718(15) 0.7500 0.0630(4)
O1 O 0.9738(10) 0.1311(4) 0.6476(3)
C4 C 0.9628(15) 0.5233(6) 0.8551(5)
H2 H 0.8840 0.4952 0.8165
C6 C 0.8673(15) 0.6051(6) 0.8925(5)
C7 C 0.9865(14) 0.6438(6) 0.9488(4)
H4 H 0.7246 0.6333 0.8794
S1 S 0.8739(5) 0.7500 0.99360(15)
O4 O 0.6291(15) 0.7500 0.9843(5)
O5 O 0.9738(10) 0.3689(4) 0.6476(3)
C8 C 0.9865(14) 0.8562(6) 0.9488(4)
C9 C 0.8673(15) 0.8949(6) 0.8925(5)
C11 C 0.9628(15) 0.9767(6) 0.8551(5)
H5 H 0.7246 0.8667 0.8794
O2_2 O 0.0282(15) 0.2500 0.9370(4)
C1_2 C 0.7806(14) 0.1025(6) 0.6661(5)
C2_2 C 0.6731(15) 0.0162(6) 0.6252(4)
H1_2 H 0.9319 0.0053 0.5552
H2_2 H 0.3840 0.0048 0.6835
C3_2 C 0.7896(15) 0.9769(7) 0.5685(5)
C4_2 C 0.4628(15) 0.9767(6) 0.6449(5)
C5_2 C 0.6962(15) 0.8951(6) 0.5311(5)
C6_2 C 0.3673(15) 0.8949(6) 0.6075(5)
H3_2 H 0.7751 0.8668 0.4927
C7_2 C 0.4865(14) 0.8562(6) 0.5512(4)
H4_2 H 0.2246 0.8667 0.6206
S1_2 S 0.3739(5) 0.7500 0.50640(15)
O4_2 O 0.1291(15) 0.7500 0.5157(5)
O10_2 O 0.4718(15) 0.7500 0.4370(4)
C8_2 C 0.4865(14) 0.6438(6) 0.5512(4)
Pb4_2 Pb 0.73611(7) 0.7500 0.31222(2)
C9_2 C 0.3673(15) 0.6051(6) 0.6075(5)
C10_2 C 0.6962(15) 0.6049(6) 0.5311(5)
C11_2 C 0.4628(15) 0.5233(6) 0.6449(5)
H5_2 H 0.2246 0.6333 0.6206
C12_2 C 0.7896(15) 0.5231(7) 0.5685(5)
H6_2 H 0.7751 0.6332 0.4927
C13_2 C 0.6731(15) 0.4838(6) 0.6252(4)
H7_2 H 0.3840 0.4952 0.6835
H8_2 H 0.9319 0.4947 0.5552
C14_2 C 0.7806(14) 0.3975(6) 0.6661(5)
C4_3 C 0.0372(15) 0.0233(6) 0.1449(5)
C6_3 C 0.1327(15) 0.1051(6) 0.1075(5)
C7_3 C 0.0135(14) 0.1438(6) 0.0512(4)
H4_3 H 0.2754 0.1333 0.1206
S1_3 S 0.1261(5) 0.2500 0.00640(15)
O4_3 O 0.3709(15) 0.2500 0.0157(5)
C8_3 C 0.0135(14) 0.3562(6) 0.0512(4)
C9_3 C 0.1327(15) 0.3949(6) 0.1075(5)
C11_3 C 0.0372(15) 0.4767(6) 0.1449(5)
H5_3 H 0.2754 0.3667 0.1206
H7_3 H 0.1160 0.5048 0.1835
O1_2 O 0.0262(10) 0.6311(4) 0.3524(3)
H2_3 H 0.1160 0.9952 0.1835
O5_2 O 0.0262(10) 0.8689(4) 0.3524(3)
C3_3 C 0.7104(15) 0.0231(7) 0.0685(5)
C5_3 C 0.8038(15) 0.1049(6) 0.0311(5)
C10_3 C 0.8038(15) 0.3951(6) 0.0311(5)
C12_3 C 0.7104(15) 0.4769(7) 0.0685(5)
C13_3 C 0.8269(15) 0.5162(6) 0.1252(4)
H8_3 H 0.5681 0.5053 0.0552
C14_3 C 0.7194(14) 0.6025(6) 0.1661(5)
O11_2 O 0.8369(11) 0.6383(4) 0.2157(3)
O12_2 O 0.5262(10) 0.6311(4) 0.1476(3)
H3_3 H 0.7249 0.1332 0.9927
H6_3 H 0.7249 0.3668 0.9927
O3_2 O 0.3369(11) 0.6383(4) 0.2843(3)
C1_3 C 0.7194(14) 0.8975(6) 0.1661(5)
C2_3 C 0.8269(15) 0.9838(6) 0.1252(4)
H1_3 H 0.5681 0.9947 0.0552
O6_2 O 0.8369(11) 0.8617(4) 0.2157(3)
O7_2 O 0.3369(11) 0.8617(4) 0.2843(3)
O9_2 O 0.5262(10) 0.8689(4) 0.1476(3)
C1_4 C 0.2194(14) 0.6025(6) 0.3339(5)
C2_4 C 0.3269(15) 0.5162(6) 0.3748(4)
C3_4 C 0.2104(15) 0.4769(7) 0.4315(5)
C4_4 C 0.5372(15) 0.4767(6) 0.3551(5)
C5_4 C 0.3038(15) 0.3951(6) 0.4689(5)
H1_4 H 0.0681 0.5053 0.4448
H2_4 H 0.6160 0.5048 0.3165
C6_4 C 0.6327(15) 0.3949(6) 0.3925(5)
H3_4 H 0.2249 0.3668 0.5073
C7_4 C 0.5135(14) 0.3562(6) 0.4488(4)
H4_4 H 0.7754 0.3667 0.3794
S1_4 S 0.6261(5) 0.2500 0.49360(15)
O4_4 O 0.8709(15) 0.2500 0.4843(5)
C8_4 C 0.5135(14) 0.1438(6) 0.4488(4)
C9_4 C 0.6327(15) 0.1051(6) 0.3925(5)
C10_4 C 0.3038(15) 0.1049(6) 0.4689(5)
C11_4 C 0.5372(15) 0.0233(6) 0.3551(5)
H5_4 H 0.7754 0.1333 0.3794
C12_4 C 0.2104(15) 0.0231(7) 0.4315(5)
H6_4 H 0.2249 0.1332 0.5073
C13_4 C 0.3269(15) 0.9838(6) 0.3748(4)
H7_4 H 0.6160 0.9952 0.3165
H8_4 H 0.0681 0.9947 0.4448
C14_4 C 0.2194(14) 0.8975(6) 0.3339(5)
loop_
_geom_bond_atom_site_label_1
_geom_bond_atom_site_label_2
_geom_bond_site_symmetry_1
_geom_bond_site_symmetry_2
C14 C13 1_555 1_555
O11 C14 1_555 1_555
O12 C14 1_555 1_555
Pb5 O11 1_555 1_555
Pb7 O12 1_555 1_555
O2 Pb5 1_555 1_555
O3 Pb5 1_555 1_555
C1 C2 1_555 1_555
C2 C3 1_555 1_555
C3 C5 1_555 1_555
H1 C3 1_555 1_555
O6 Pb5 1_555 1_555
O7 Pb5 1_555 1_555
Pb7 O3 1_555 1_555
O9 C1 1_555 1_555
C12 C10 1_555 1_555
C1 O6 1_555 1_555
O7 Pb7 1_555 1_555
Pb7 O9 1_555 1_555
H2 C4 1_555 1_555
C6 C4 1_555 1_555
H4 C6 1_555 1_555
S1 C7 1_555 1_555
O4 S1 1_555 1_555
C8 S1 1_555 1_555
C9 C8 1_555 1_555
C11 C9 1_555 1_555
H5 C9 1_555 1_555
C6 C7 1_555 1_555
C1_2 C2_2 1_555 1_555
O1 C1_2 1_555 1_555
C1_2 O3 1_555 1_555
C3_2 C5_2 1_555 1_555
C5_2 H3_2 1_555 1_555
C6_2 C4_2 1_555 1_555
C7_2 C5_2 1_555 1_555
H4_2 C6_2 1_555 1_555
S1_2 C7_2 1_555 1_555
O4_2 S1_2 1_555 1_555
O10_2 S1_2 1_555 1_555
C8_2 S1_2 1_555 1_555
Pb4_2 O10_2 1_555 1_555
C9_2 C8_2 1_555 1_555
C10_2 C8_2 1_555 1_555
C11_2 C9_2 1_555 1_555
H5_2 C9_2 1_555 1_555
C12_2 C10_2 1_555 1_555
H6_2 C10_2 1_555 1_555
C13_2 C11_2 1_555 1_555
H7_2 C11_2 1_555 1_555
H8_2 C12_2 1_555 1_555
C14_2 C13_2 1_555 1_555
O7 C14_2 1_555 1_555
O5 C14_2 1_555 1_555
C6_2 C7_2 1_555 1_555
C12_2 C13_2 1_555 1_555
C6_3 C4_3 1_555 1_555
H4_3 C6_3 1_555 1_555
S1_3 C7_3 1_555 1_555
O4_3 S1_3 1_555 1_555
C8_3 S1_3 1_555 1_555
C9_3 C8_3 1_555 1_555
C11_3 C9_3 1_555 1_555
H5_3 C9_3 1_555 1_555
H7_3 C11_3 1_555 1_555
C6_3 C7_3 1_555 1_555
C3_3 C5_3 1_555 1_555
C12_3 C10_3 1_555 1_555
H8_3 C12_3 1_555 1_555
C14_3 C13_3 1_555 1_555
O11_2 C14_3 1_555 1_555
O12_2 C14_3 1_555 1_555
Pb4_2 O11_2 1_555 1_555
Pb4 O12_2 1_555 1_555
C12_3 C13_3 1_555 1_555
O3_2 Pb4_2 1_555 1_555
C1_3 C2_3 1_555 1_555
O6_2 Pb4_2 1_555 1_555
O7_2 Pb4_2 1_555 1_555
Pb4 O3_2 1_555 1_555
O9_2 C1_3 1_555 1_555
C1_3 O6_2 1_555 1_555
O7_2 Pb4 1_555 1_555
Pb4 O9_2 1_555 1_555
C1_4 C2_4 1_555 1_555
C2_4 C3_4 1_555 1_555
C3_4 C5_4 1_555 1_555
C4_4 C2_4 1_555 1_555
C5_4 H3_4 1_555 1_555
H1_4 C3_4 1_555 1_555
H2_4 C4_4 1_555 1_555
C6_4 C4_4 1_555 1_555
C7_4 C5_4 1_555 1_555
H4_4 C6_4 1_555 1_555
S1_4 C7_4 1_555 1_555
O4_4 S1_4 1_555 1_555
O1_2 C1_4 1_555 1_555
O2 S1_4 1_555 1_555
C8_4 S1_4 1_555 1_555
C9_4 C8_4 1_555 1_555
C10_4 C8_4 1_555 1_555
C11_4 C9_4 1_555 1_555
H5_4 C9_4 1_555 1_555
C12_4 C10_4 1_555 1_555
H6_4 C10_4 1_555 1_555
C1_4 O3_2 1_555 1_555
C6_4 C7_4 1_555 1_555
C14_4 C13_4 1_555 1_555
O7_2 C14_4 1_555 1_555
O5_2 C14_4 1_555 1_555

#END
