
###############################################################################
#
# This file contains modified crystal structure data generated from the
# MOF subset of the Cambridge Structural Database (CSD) v543 
# hosted by the Cambridge Crystallographic Data Centre (CCDC).
#
# This work is licensed under the Creative Commons
# Attribution-NonCommercial-ShareAlike 4.0 International License.
# To view a copy of this license, visit
# http://creativecommons.org/licenses/by-nc-sa/4.0/
# or send a letter to
# Creative Commons, PO Box 1866, Mountain View, CA 94042, USA.
#
# CIF created using the CSD Python API on 29 September 2022
# The structure has been converted into the P1 space group
# The structure has a 3D framework
# The original CSD entry SARFEA is in the triclinic crystal system
# The framework has been calculated to contain at least 10.0% void space
# The void calculation uses a probe of radius 1.32A, grid spacing 0.4
#
###############################################################################

data_SARFEA
_chemical_formula_moiety         '(C96 H56 N4 O16 Zn4)n'
_symmetry_cell_setting           triclinic
_symmetry_space_group_name_H-M   'P 1'
_symmetry_Int_Tables_number      1
_space_group_name_Hall           'P 1'
loop_
_symmetry_equiv_pos_site_id
_symmetry_equiv_pos_as_xyz
1 x,y,z
_cell_length_a                   12.9818(3)
_cell_length_b                   13.1028(3)
_cell_length_c                   17.1589(4)
_cell_angle_alpha                94.6111(17)
_cell_angle_beta                 107.518(2)
_cell_angle_gamma                94.4214(18)
_cell_volume                     2758.53
loop_
_atom_site_label
_atom_site_type_symbol
_atom_site_fract_x
_atom_site_fract_y
_atom_site_fract_z
H14 H 0.0084 0.0123 0.7768
Zn4 Zn 0.02486(3) 0.34150(3) 0.76549(2)
O4 O 0.08745(16) 0.34118(17) 0.57369(14)
O5 O 0.0276(2) 0.49464(18) 0.75526(15)
C10 C 0.0203(3) 0.7062(3) 0.7778(2)
O8 O 0.14699(17) 0.33736(19) 0.71047(14)
N2 N 0.1364(2) 0.3426(2) 0.87907(16)
H6 H 0.0395 0.6703 0.8252
C15 C 0.0187(3) 0.8106(3) 0.7863(2)
H9 H 0.0367 0.8465 0.8398
C33 C 0.9617(3) 0.0258(2) 0.6550(2)
H13 H 0.9130 0.0070 0.5279
C40 C 0.9651(2) 0.1417(2) 0.6632(2)
O9 O 0.94074(18) 0.18322(16) 0.59757(14)
O10 O 0.9937(2) 0.18728(18) 0.73553(14)
Zn3 Zn 0.93420(2) 0.33553(2) 0.58354(2)
O1 O 0.96033(18) 0.49018(17) 0.61812(14)
N1 N 0.83081(19) 0.3264(2) 0.46690(16)
O3 O 0.81093(18) 0.33091(19) 0.63678(16)
C1 C 0.9940(2) 0.5366(2) 0.68947(19)
C2 C 0.8290(3) 0.4038(3) 0.4201(2)
C3 C 0.7547(3) 0.2467(3) 0.4392(2)
C4 C 0.7988(2) 0.3384(3) 0.7056(2)
C5 C 0.9934(2) 0.6512(2) 0.69823(19)
H1 H 0.8835 0.4606 0.4394
C6 C 0.7509(3) 0.4039(3) 0.3449(2)
C7 C 0.6723(3) 0.2426(3) 0.3652(2)
H2 H 0.7568 0.1906 0.4713
O7 O 0.87144(18) 0.3432(2) 0.77313(16)
C8 C 0.6823(3) 0.3408(3) 0.7079(2)
C9 C 0.9653(2) 0.7030(2) 0.62959(19)
H3 H 0.7531 0.4593 0.3127
C11 C 0.6692(3) 0.3226(3) 0.3163(2)
H4 H 0.6182 0.1853 0.3480
C12 C 0.6604(3) 0.3481(4) 0.7838(2)
C13 C 0.6004(3) 0.3389(3) 0.6363(2)
H5 H 0.9470 0.6657 0.5766
C14 C 0.9633(2) 0.8110(2) 0.63666(19)
C16 C 0.5769(3) 0.3247(3) 0.2389(2)
C17 C 0.5560(3) 0.3510(4) 0.7851(2)
H7 H 0.7180 0.3511 0.8338
C18 C 0.4917(2) 0.3411(3) 0.6357(2)
H8 H 0.6166 0.3361 0.5858
C19 C 0.9349(3) 0.8663(2) 0.5668(2)
C20 C 0.9906(3) 0.8661(2) 0.7168(2)
C21 C 0.5945(3) 0.3100(4) 0.1629(2)
C22 C 0.4741(3) 0.3441(3) 0.2463(2)
C23 C 0.4688(3) 0.3449(3) 0.7114(2)
H10 H 0.5417 0.3571 0.8363
C24 C 0.4042(3) 0.3387(3) 0.5623(2)
C25 C 0.9332(3) 0.9710(2) 0.5753(2)
H11 H 0.9168 0.8302 0.5134
C26 C 0.9896(3) 0.9747(2) 0.7239(2)
C27 C 0.6969(3) 0.2901(4) 0.1550(3)
C28 C 0.5047(3) 0.3130(4) 0.0890(2)
C29 C 0.4560(3) 0.3675(3) 0.3237(2)
C30 C 0.3851(3) 0.3446(3) 0.1726(2)
C31 C 0.3596(3) 0.3438(3) 0.7108(2)
C32 C 0.2998(3) 0.3379(3) 0.5635(2)
H12 H 0.4187 0.3376 0.5112
H15 H 0.7560 0.2866 0.2031
C34 C 0.7121(4) 0.2759(5) 0.0794(3)
C35 C 0.5230(4) 0.2957(4) 0.0116(3)
C36 C 0.4029(3) 0.3302(3) 0.0957(2)
C37 C 0.3560(3) 0.3864(4) 0.3281(3)
H16 H 0.5149 0.3700 0.3729
C38 C 0.2821(3) 0.3623(4) 0.1808(2)
C39 C 0.2760(2) 0.3390(3) 0.6390(2)
H17 H 0.3439 0.3465 0.7615
H18 H 0.2425 0.3366 0.5134
H19 H 0.7822 0.2656 0.0757
C41 C 0.6237(4) 0.2764(5) 0.0067(3)
C42 C 0.3105(3) 0.3347(3) 0.0200(2)
C43 C 0.2668(4) 0.3829(4) 0.2554(3)
H21 H 0.3460 0.4019 0.3802
H22 H 0.2217 0.3596 0.1325
C44 C 0.1616(2) 0.3397(2) 0.64102(19)
H24 H 0.1969 0.3949 0.2587
H25 H 0.3473 0.4818 0.0010
H26 H 0.2424 0.1880 0.0109
H20 H 0.4649 0.2974 0.9625
H23 H 0.6341 0.2635 0.9544
C45 C 0.2967(3) 0.4222(3) 0.9805(3)
C46 C 0.2353(4) 0.2506(3) 0.9864(3)
C47 C 0.2089(3) 0.4234(3) 0.9108(2)
C48 C 0.1492(3) 0.2576(3) 0.9166(2)
H27 H 0.2003 0.4848 0.8846
H28 H 0.0973 0.1992 0.8946
Zn5 Zn 0.06580(2) 0.66447(2) 0.41646(2)
H20_2 H 0.5351 0.7026 0.0375
H23_2 H 0.3659 0.7365 0.0456
C45_2 C 0.7033(3) 0.5778(3) 0.0195(3)
C46_2 C 0.7647(4) 0.7494(3) 0.0136(3)
C47_2 C 0.7911(3) 0.5766(3) 0.0892(2)
C48_2 C 0.8508(3) 0.7424(3) 0.0834(2)
H27_2 H 0.7997 0.5152 0.1154
H28_2 H 0.9027 0.8008 0.1054
N3 N 0.8636(2) 0.6574(2) 0.12093(16)
Zn7 Zn 0.97514(3) 0.65850(3) 0.23451(2)
O1_2 O 0.03967(18) 0.50982(17) 0.38188(14)
N1_2 N 0.16919(19) 0.6736(2) 0.53310(16)
O2 O 0.05926(18) 0.81678(16) 0.40243(14)
O3_2 O 0.18907(18) 0.66909(19) 0.36322(16)
C1_2 C 0.0060(2) 0.4634(2) 0.31053(19)
C2_2 C 0.1710(3) 0.5962(3) 0.5799(2)
C3_2 C 0.2453(3) 0.7533(3) 0.5608(2)
C4_2 C 0.2012(2) 0.6616(3) 0.2944(2)
C5_2 C 0.0066(2) 0.3488(2) 0.30177(19)
H1_2 H 0.1165 0.5394 0.5606
C6_2 C 0.2491(3) 0.5961(3) 0.6551(2)
C7_2 C 0.3277(3) 0.7574(3) 0.6348(2)
H2_2 H 0.2432 0.8094 0.5287
O6 O 0.0063(2) 0.81272(18) 0.26447(14)
O7_2 O 0.12856(18) 0.6568(2) 0.22687(16)
C8_2 C 0.3177(3) 0.6592(3) 0.2921(2)
C9_2 C 0.0347(2) 0.2970(2) 0.37041(19)
H3_2 H 0.2469 0.5407 0.6873
C11_2 C 0.3308(3) 0.6774(3) 0.6837(2)
H4_2 H 0.3818 0.8147 0.6520
C12_2 C 0.3396(3) 0.6519(4) 0.2162(2)
C13_2 C 0.3996(3) 0.6611(3) 0.3637(2)
H5_2 H 0.0530 0.3343 0.4234
C14_2 C 0.0367(2) 0.1890(2) 0.36334(19)
C16_2 C 0.4231(3) 0.6753(3) 0.7611(2)
C17_2 C 0.4440(3) 0.6490(4) 0.2149(2)
H7_2 H 0.2820 0.6489 0.1662
C18_2 C 0.5083(2) 0.6589(3) 0.3643(2)
H8_2 H 0.3834 0.6639 0.4142
C19_2 C 0.0651(3) 0.1337(2) 0.4332(2)
C20_2 C 0.0094(3) 0.1339(2) 0.2832(2)
C21_2 C 0.4055(3) 0.6900(4) 0.8371(2)
C22_2 C 0.5259(3) 0.6559(3) 0.7537(2)
C23_2 C 0.5312(3) 0.6551(3) 0.2886(2)
H10_2 H 0.4583 0.6429 0.1637
C24_2 C 0.5958(3) 0.6613(3) 0.4377(2)
C25_2 C 0.0668(3) 0.0290(2) 0.4247(2)
H11_2 H 0.0832 0.1698 0.4866
C26_2 C 0.0104(3) 0.0253(2) 0.2761(2)
C27_2 C 0.3031(3) 0.7099(4) 0.8450(3)
C28_2 C 0.4953(3) 0.6870(4) 0.9110(2)
C29_2 C 0.5440(3) 0.6325(3) 0.6763(2)
C30_2 C 0.6149(3) 0.6554(3) 0.8274(2)
C31_2 C 0.6404(3) 0.6562(3) 0.2892(2)
C32_2 C 0.7002(3) 0.6621(3) 0.4365(2)
H12_2 H 0.5813 0.6624 0.4888
H15_2 H 0.2440 0.7134 0.7969
C34_2 C 0.2879(4) 0.7241(5) 0.9206(3)
C35_2 C 0.4770(4) 0.7043(4) 0.9884(3)
C36_2 C 0.5971(3) 0.6698(3) 0.9043(2)
C37_2 C 0.6440(3) 0.6136(4) 0.6719(3)
H16_2 H 0.4851 0.6300 0.6271
C38_2 C 0.7179(3) 0.6377(4) 0.8192(2)
C39_2 C 0.7240(2) 0.6610(3) 0.3610(2)
H17_2 H 0.6561 0.6535 0.2385
H18_2 H 0.7575 0.6634 0.4866
H19_2 H 0.2178 0.7344 0.9243
C41_2 C 0.3763(4) 0.7236(5) 0.9933(3)
C42_2 C 0.6895(3) 0.6653(3) 0.9800(2)
C43_2 C 0.7332(4) 0.6171(4) 0.7446(3)
H21_2 H 0.6540 0.5981 0.6198
H22_2 H 0.7783 0.6404 0.8675
C44_2 C 0.8384(2) 0.6603(2) 0.35898(19)
H24_2 H 0.8031 0.6051 0.7413
H25_2 H 0.6527 0.5182 0.9990
H26_2 H 0.7576 0.8120 0.9891
O11 O 0.91255(16) 0.65882(17) 0.42631(14)
O12 O 0.85301(17) 0.66264(19) 0.28953(14)
C33_2 C 0.0383(3) 0.9742(2) 0.3450(2)
H13_2 H 0.0870 0.9930 0.4721
C40_2 C 0.0349(2) 0.8583(2) 0.3368(2)
O5_2 O 0.9724(2) 0.50536(18) 0.24474(15)
C10_2 C 0.9797(3) 0.2938(3) 0.2222(2)
H6_2 H 0.9605 0.3297 0.1748
C15_2 C 0.9813(3) 0.1894(3) 0.2137(2)
H9_2 H 0.9633 0.1535 0.1602
H14_2 H 0.9916 0.9877 0.2232
loop_
_geom_bond_atom_site_label_1
_geom_bond_atom_site_label_2
_geom_bond_site_symmetry_1
_geom_bond_site_symmetry_2
O5 Zn4 1_555 1_555
O8 Zn4 1_555 1_555
N2 Zn4 1_555 1_555
H6 C10 1_555 1_555
C15 C10 1_555 1_555
H9 C15 1_555 1_555
C40 C33 1_555 1_555
O9 C40 1_555 1_555
O10 C40 1_555 1_555
Zn3 O9 1_555 1_555
Zn3 O1 1_555 1_555
O1 C1 1_555 1_555
N1 Zn3 1_555 1_555
O3 Zn3 1_555 1_555
C2 N1 1_555 1_555
C3 N1 1_555 1_555
C4 O3 1_555 1_555
C5 C1 1_555 1_555
H1 C2 1_555 1_555
C6 C2 1_555 1_555
C7 C3 1_555 1_555
H2 C3 1_555 1_555
O7 C4 1_555 1_555
C8 C4 1_555 1_555
C9 C5 1_555 1_555
H3 C6 1_555 1_555
C11 C6 1_555 1_555
H4 C7 1_555 1_555
C12 C8 1_555 1_555
C13 C8 1_555 1_555
H5 C9 1_555 1_555
C14 C9 1_555 1_555
C16 C11 1_555 1_555
C17 C12 1_555 1_555
H7 C12 1_555 1_555
C18 C13 1_555 1_555
H8 C13 1_555 1_555
C19 C14 1_555 1_555
C20 C14 1_555 1_555
C21 C16 1_555 1_555
C22 C16 1_555 1_555
C23 C17 1_555 1_555
H10 C17 1_555 1_555
C24 C18 1_555 1_555
C25 C19 1_555 1_555
H11 C19 1_555 1_555
C26 C20 1_555 1_555
C27 C21 1_555 1_555
C28 C21 1_555 1_555
C29 C22 1_555 1_555
C30 C22 1_555 1_555
C31 C23 1_555 1_555
C32 C24 1_555 1_555
H12 C24 1_555 1_555
H15 C27 1_555 1_555
C34 C27 1_555 1_555
C35 C28 1_555 1_555
C36 C28 1_555 1_555
C37 C29 1_555 1_555
H16 C29 1_555 1_555
C38 C30 1_555 1_555
C39 C31 1_555 1_555
H17 C31 1_555 1_555
H18 C32 1_555 1_555
H19 C34 1_555 1_555
C41 C34 1_555 1_555
C42 C36 1_555 1_555
C43 C37 1_555 1_555
H21 C37 1_555 1_555
H22 C38 1_555 1_555
C44 C39 1_555 1_555
H24 C43 1_555 1_555
O4 C44 1_555 1_555
O8 C44 1_555 1_555
C7 C11 1_555 1_555
C18 C23 1_555 1_555
C30 C36 1_555 1_555
C32 C39 1_555 1_555
C35 C41 1_555 1_555
C38 C43 1_555 1_555
C47 C45 1_555 1_555
C48 C46 1_555 1_555
H27 C47 1_555 1_555
H28 C48 1_555 1_555
N2 C47 1_555 1_555
C48 N2 1_555 1_555
C47_2 C45_2 1_555 1_555
C48_2 C46_2 1_555 1_555
H27_2 C47_2 1_555 1_555
H28_2 C48_2 1_555 1_555
N3 C47_2 1_555 1_555
Zn7 N3 1_555 1_555
C48_2 N3 1_555 1_555
Zn5 O1_2 1_555 1_555
O1_2 C1_2 1_555 1_555
N1_2 Zn5 1_555 1_555
O2 Zn5 1_555 1_555
O3_2 Zn5 1_555 1_555
C2_2 N1_2 1_555 1_555
C3_2 N1_2 1_555 1_555
C4_2 O3_2 1_555 1_555
C5_2 C1_2 1_555 1_555
H1_2 C2_2 1_555 1_555
C6_2 C2_2 1_555 1_555
C7_2 C3_2 1_555 1_555
H2_2 C3_2 1_555 1_555
O7_2 C4_2 1_555 1_555
C8_2 C4_2 1_555 1_555
C9_2 C5_2 1_555 1_555
H3_2 C6_2 1_555 1_555
C11_2 C6_2 1_555 1_555
H4_2 C7_2 1_555 1_555
C12_2 C8_2 1_555 1_555
C13_2 C8_2 1_555 1_555
H5_2 C9_2 1_555 1_555
C14_2 C9_2 1_555 1_555
C16_2 C11_2 1_555 1_555
C17_2 C12_2 1_555 1_555
H7_2 C12_2 1_555 1_555
C18_2 C13_2 1_555 1_555
H8_2 C13_2 1_555 1_555
C19_2 C14_2 1_555 1_555
C20_2 C14_2 1_555 1_555
C21_2 C16_2 1_555 1_555
C22_2 C16_2 1_555 1_555
C23_2 C17_2 1_555 1_555
H10_2 C17_2 1_555 1_555
C24_2 C18_2 1_555 1_555
C25_2 C19_2 1_555 1_555
H11_2 C19_2 1_555 1_555
C26_2 C20_2 1_555 1_555
C27_2 C21_2 1_555 1_555
C28_2 C21_2 1_555 1_555
C29_2 C22_2 1_555 1_555
C30_2 C22_2 1_555 1_555
C31_2 C23_2 1_555 1_555
C32_2 C24_2 1_555 1_555
H12_2 C24_2 1_555 1_555
H15_2 C27_2 1_555 1_555
C34_2 C27_2 1_555 1_555
C35_2 C28_2 1_555 1_555
C36_2 C28_2 1_555 1_555
C37_2 C29_2 1_555 1_555
H16_2 C29_2 1_555 1_555
C38_2 C30_2 1_555 1_555
C39_2 C31_2 1_555 1_555
H17_2 C31_2 1_555 1_555
H18_2 C32_2 1_555 1_555
H19_2 C34_2 1_555 1_555
C41_2 C34_2 1_555 1_555
C42_2 C36_2 1_555 1_555
C43_2 C37_2 1_555 1_555
H21_2 C37_2 1_555 1_555
H22_2 C38_2 1_555 1_555
C44_2 C39_2 1_555 1_555
H24_2 C43_2 1_555 1_555
O11 C44_2 1_555 1_555
O12 C44_2 1_555 1_555
Zn7 O12 1_555 1_555
C7_2 C11_2 1_555 1_555
C18_2 C23_2 1_555 1_555
C30_2 C36_2 1_555 1_555
C32_2 C39_2 1_555 1_555
C35_2 C41_2 1_555 1_555
C38_2 C43_2 1_555 1_555
C40_2 C33_2 1_555 1_555
O2 C40_2 1_555 1_555
O6 C40_2 1_555 1_555
O5_2 Zn7 1_555 1_555
H6_2 C10_2 1_555 1_555
C15_2 C10_2 1_555 1_555
H9_2 C15_2 1_555 1_555

#END
