
###############################################################################
#
# This file contains modified crystal structure data generated from the
# MOF subset of the Cambridge Structural Database (CSD) v543 
# hosted by the Cambridge Crystallographic Data Centre (CCDC).
#
# This work is licensed under the Creative Commons
# Attribution-NonCommercial-ShareAlike 4.0 International License.
# To view a copy of this license, visit
# http://creativecommons.org/licenses/by-nc-sa/4.0/
# or send a letter to
# Creative Commons, PO Box 1866, Mountain View, CA 94042, USA.
#
# CIF created using the CSD Python API on 29 September 2022
# The structure has been converted into the P1 space group
# The structure has a 3D framework
# The original CSD entry SARFIE is in the triclinic crystal system
# The framework has been calculated to contain at least 10.0% void space
# The void calculation uses a probe of radius 1.32A, grid spacing 0.4
#
###############################################################################

data_SARFIE
_chemical_formula_moiety         '(C96 H56 N4 O20 Zn4)n'
_symmetry_cell_setting           triclinic
_symmetry_space_group_name_H-M   'P 1'
_symmetry_Int_Tables_number      1
_space_group_name_Hall           'P 1'
loop_
_symmetry_equiv_pos_site_id
_symmetry_equiv_pos_as_xyz
1 x,y,z
_cell_length_a                   12.9618(8)
_cell_length_b                   13.1234(6)
_cell_length_c                   17.8187(9)
_cell_angle_alpha                85.977(4)
_cell_angle_beta                 69.271(5)
_cell_angle_gamma                89.193(4)
_cell_volume                     2827.63
loop_
_atom_site_label
_atom_site_type_symbol
_atom_site_fract_x
_atom_site_fract_y
_atom_site_fract_z
Zn2 Zn 0.44954(4) 0.66238(4) 0.26208(4)
O10 O 0.0034(5) 0.5873(4) 0.6190(3)
N2 N 0.3330(4) 0.6655(4) 0.3733(3)
C1 C 0.0669(7) 0.6476(8) 0.8147(6)
H1 H 0.0109 0.6449 0.8665
C2 C 0.1728(9) 0.6326(10) 0.8088(6)
H2 H 0.1903 0.6163 0.8557
C3 C 0.2545(8) 0.6412(11) 0.7347(7)
H3 H 0.3295 0.6360 0.7306
C4 C 0.2288(7) 0.6577(9) 0.6645(6)
H4 H 0.2853 0.6596 0.6129
H5 H 0.0479 0.8379 0.4979
C10 C 0.0747(6) 0.6773(6) 0.6047(4)
C11 C 0.0375(7) 0.6668(7) 0.7469(5)
C12 C 0.1222(6) 0.6706(7) 0.6718(5)
C20 C 0.1625(7) 0.6721(6) 0.5212(4)
C21 C 0.2388(7) 0.7510(7) 0.4920(5)
H13 H 0.2345 0.8087 0.5223
C22 C 0.3225(6) 0.7445(6) 0.4167(4)
H14 H 0.3739 0.7996 0.3963
C23 C 0.2542(7) 0.5919(7) 0.4000(5)
H15 H 0.2578 0.5375 0.3667
C24 C 0.1686(7) 0.5916(6) 0.4731(5)
H16 H 0.1153 0.5378 0.4902
O11 O 0.4586(3) 0.5094(3) 0.2524(2)
O13 O 0.4717(3) 0.8148(3) 0.2331(2)
O14 O 0.3329(3) 0.6650(3) 0.2066(3)
O16 O 0.6010(3) 0.6582(3) 0.2732(3)
Zn1 Zn 0.55318(4) 0.65834(4) 0.08537(4)
O1 O 0.5305(3) 0.5074(3) 0.1179(2)
O5 O 0.4034(3) 0.6622(3) 0.0726(2)
C25 C 0.5273(4) 0.2943(4) 0.1299(3)
H17 H 0.5521 0.3294 0.0780
C26 C 0.4944(4) 0.3493(4) 0.1970(3)
C27 C 0.4571(5) 0.2985(4) 0.2737(4)
H18 H 0.4328 0.3371 0.3199
C28 C 0.4552(6) 0.1932(5) 0.2832(4)
H19 H 0.4325 0.1600 0.3357
C29 C 0.4840(5) 0.0269(4) 0.2221(4)
C31 C 0.5546(5) 0.0241(4) 0.0772(4)
C32 C 0.5586(5) 0.1273(4) 0.0683(4)
H22 H 0.5841 0.1607 0.0158
C33 C 0.5249(4) 0.1863(4) 0.1367(3)
C34 C 0.4868(5) 0.1343(4) 0.2151(3)
C35 C 0.4946(4) 0.4643(4) 0.1884(4)
C37 C 0.1204(5) 0.6595(5) 0.2080(4)
H23 H 0.1333 0.6582 0.2573
C38 C 0.2078(4) 0.6637(4) 0.1372(4)
C39 C 0.1899(5) 0.6646(6) 0.0636(4)
H24 H 0.2510 0.6673 0.0144
C40 C 0.0858(5) 0.6615(7) 0.0628(4)
H25 H 0.0747 0.6608 0.0129
C46 C 0.0103(4) 0.6570(5) 0.2091(4)
C47 C 0.3236(4) 0.6644(4) 0.1386(4)
O12 O 0.5415(3) 0.8119(3) 0.0990(2)
O15 O 0.6708(3) 0.6581(3) 0.1388(3)
H20 H 0.4588 0.9920 0.2740
C30 C 0.5175(4) 0.9711(4) 0.1544(4)
H21 H 0.5772 0.9861 0.0307
C36 C 0.5097(4) 0.8555(4) 0.1630(4)
C41 C 0.8831(5) 0.6578(5) 0.1366(4)
H26 H 0.8704 0.6586 0.0872
C42 C 0.7947(4) 0.6552(4) 0.2076(4)
C43 C 0.8143(5) 0.6524(7) 0.2815(4)
H27 H 0.7538 0.6511 0.3311
C44 C 0.9189(5) 0.6516(7) 0.2813(4)
H28 H 0.9308 0.6473 0.3311
C45 C 0.9931(5) 0.6594(5) 0.1356(4)
C48 C 0.6803(5) 0.6573(4) 0.2063(4)
O9 O 0.9154(5) 0.5853(4) 0.6990(3)
N1 N 0.6648(3) 0.6635(3) 0.9725(3)
C5 C 0.9931(8) 0.8377(8) 0.5502(6)
C6 C 0.9066(9) 0.9082(8) 0.5667(6)
H6 H 0.9048 0.9580 0.5259
C7 C 0.8257(8) 0.9059(8) 0.6403(6)
H7 H 0.7674 0.9537 0.6504
C8 C 0.8276(7) 0.8339(7) 0.7009(6)
H8 H 0.7693 0.8311 0.7516
C9 C 0.9249(6) 0.6743(6) 0.7414(4)
C13 C 0.9158(7) 0.7654(6) 0.6871(5)
C14 C 0.9973(7) 0.7683(6) 0.6108(5)
C15 C 0.7392(5) 0.7395(5) 0.9483(4)
H9 H 0.7339 0.7920 0.9835
C16 C 0.8236(6) 0.7452(5) 0.8742(4)
H10 H 0.8752 0.8004 0.8585
C17 C 0.8307(6) 0.6667(5) 0.8228(4)
C18 C 0.7535(5) 0.5904(5) 0.8465(4)
H11 H 0.7545 0.5387 0.8115
C19 C 0.6742(5) 0.5896(4) 0.9218(4)
H12 H 0.6232 0.5341 0.9391
O7 O 0.3292(3) 0.3419(3) 0.8612(3)
O8 O 0.3990(3) 0.3418(3) 0.7268(3)
C41_2 C 0.1169(5) 0.3422(5) 0.8634(4)
H26_2 H 0.1296 0.3414 0.9128
C42_2 C 0.2053(4) 0.3448(4) 0.7924(4)
C43_2 C 0.1857(5) 0.3476(7) 0.7185(4)
H27_2 H 0.2462 0.3489 0.6689
C44_2 C 0.0811(5) 0.3484(7) 0.7187(4)
H28_2 H 0.0692 0.3527 0.6689
C45_2 C 0.0069(5) 0.3406(5) 0.8644(4)
C48_2 C 0.3197(5) 0.3427(4) 0.7937(4)
Zn3 Zn 0.44682(4) 0.34166(4) 0.91463(4)
Zn5 Zn 0.55046(4) 0.33762(4) 0.73792(4)
O3 O 0.4585(3) 0.1881(3) 0.9010(2)
O4 O 0.5283(3) 0.1852(3) 0.7669(2)
H20_2 H 0.5412 0.0080 0.7260
C30_2 C 0.4825(4) 0.0289(4) 0.8456(4)
H21_2 H 0.4228 0.0139 0.9693
C36_2 C 0.4903(4) 0.1445(4) 0.8370(4)
O1_2 O 0.4695(3) 0.4926(3) 0.8821(2)
O2 O 0.5414(3) 0.4906(3) 0.7476(2)
O5_2 O 0.5966(3) 0.3378(3) 0.9274(2)
O6 O 0.6671(3) 0.3350(3) 0.7934(3)
C25_2 C 0.4727(4) 0.7057(4) 0.8701(3)
H17_2 H 0.4479 0.6706 0.9220
C26_2 C 0.5056(4) 0.6507(4) 0.8030(3)
C27_2 C 0.5429(5) 0.7015(4) 0.7263(4)
H18_2 H 0.5672 0.6629 0.6801
C28_2 C 0.5448(6) 0.8068(5) 0.7168(4)
H19_2 H 0.5675 0.8400 0.6643
C29_2 C 0.5160(5) 0.9731(4) 0.7779(4)
C31_2 C 0.4454(5) 0.9759(4) 0.9228(4)
C32_2 C 0.4414(5) 0.8727(4) 0.9317(4)
H22_2 H 0.4159 0.8393 0.9842
C33_2 C 0.4751(4) 0.8137(4) 0.8633(3)
C34_2 C 0.5132(5) 0.8657(4) 0.7849(3)
C35_2 C 0.5054(4) 0.5357(4) 0.8116(4)
C37_2 C 0.8796(5) 0.3405(5) 0.7920(4)
H23_2 H 0.8667 0.3418 0.7427
C38_2 C 0.7922(4) 0.3363(4) 0.8628(4)
C39_2 C 0.8101(5) 0.3354(6) 0.9364(4)
H24_2 H 0.7490 0.3327 0.9856
C40_2 C 0.9142(5) 0.3385(7) 0.9372(4)
H25_2 H 0.9253 0.3392 0.9871
C46_2 C 0.9897(4) 0.3430(5) 0.7909(4)
C47_2 C 0.6764(4) 0.3356(4) 0.8614(4)
O10_2 O 0.9966(5) 0.4127(4) 0.3810(3)
N2_2 N 0.6670(4) 0.3345(4) 0.6267(3)
C1_2 C 0.9331(7) 0.3524(8) 0.1853(6)
H1_2 H 0.9891 0.3551 0.1335
C2_2 C 0.8272(9) 0.3674(10) 0.1912(6)
H2_2 H 0.8097 0.3837 0.1443
C3_2 C 0.7455(8) 0.3588(11) 0.2653(7)
H3_2 H 0.6705 0.3640 0.2694
C4_2 C 0.7712(7) 0.3423(9) 0.3355(6)
H4_2 H 0.7147 0.3404 0.3871
H5_2 H 0.9521 0.1621 0.5021
C10_2 C 0.9253(6) 0.3227(6) 0.3953(4)
C11_2 C 0.9625(7) 0.3332(7) 0.2531(5)
C12_2 C 0.8778(6) 0.3294(7) 0.3282(5)
C20_2 C 0.8375(7) 0.3279(6) 0.4788(4)
C21_2 C 0.7612(7) 0.2490(7) 0.5080(5)
H13_2 H 0.7655 0.1913 0.4777
C22_2 C 0.6775(6) 0.2555(6) 0.5833(4)
H14_2 H 0.6261 0.2004 0.6037
C23_2 C 0.7458(7) 0.4081(7) 0.6000(5)
H15_2 H 0.7422 0.4625 0.6333
C24_2 C 0.8314(7) 0.4084(6) 0.5269(5)
H16_2 H 0.8847 0.4622 0.5098
O9_2 O 0.0846(5) 0.4147(4) 0.3010(3)
N1_2 N 0.3352(3) 0.3365(3) 0.0275(3)
C5_2 C 0.0069(8) 0.1623(8) 0.4498(6)
C6_2 C 0.0934(9) 0.0918(8) 0.4333(6)
H6_2 H 0.0952 0.0420 0.4741
C7_2 C 0.1743(8) 0.0941(8) 0.3597(6)
H7_2 H 0.2326 0.0463 0.3496
C8_2 C 0.1724(7) 0.1661(7) 0.2991(6)
H8_2 H 0.2307 0.1689 0.2484
C9_2 C 0.0751(6) 0.3257(6) 0.2586(4)
C13_2 C 0.0842(7) 0.2346(6) 0.3129(5)
C14_2 C 0.0027(7) 0.2317(6) 0.3892(5)
C15_2 C 0.2608(5) 0.2605(5) 0.0517(4)
H9_2 H 0.2661 0.2080 0.0165
C16_2 C 0.1764(6) 0.2548(5) 0.1258(4)
H10_2 H 0.1248 0.1996 0.1415
C17_2 C 0.1693(6) 0.3333(5) 0.1772(4)
C18_2 C 0.2465(5) 0.4096(5) 0.1535(4)
H11_2 H 0.2455 0.4613 0.1885
C19_2 C 0.3258(5) 0.4104(4) 0.0782(4)
H12_2 H 0.3768 0.4659 0.0609
loop_
_geom_bond_atom_site_label_1
_geom_bond_atom_site_label_2
_geom_bond_site_symmetry_1
_geom_bond_site_symmetry_2
Zn2 N2 1_555 1_555
O10 C10 1_555 1_555
N2 C22 1_555 1_555
C1 H1 1_555 1_555
C2 C1 1_555 1_555
H2 C2 1_555 1_555
C3 C2 1_555 1_555
H3 C3 1_555 1_555
C4 C3 1_555 1_555
H4 C4 1_555 1_555
C10 C12 1_555 1_555
C11 C1 1_555 1_555
C12 C4 1_555 1_555
C20 C10 1_555 1_555
C21 C20 1_555 1_555
H13 C21 1_555 1_555
C22 C21 1_555 1_555
H14 C22 1_555 1_555
C23 N2 1_555 1_555
H15 C23 1_555 1_555
C24 C20 1_555 1_555
H16 C24 1_555 1_555
O11 Zn2 1_555 1_555
O13 Zn2 1_555 1_555
O14 Zn2 1_555 1_555
O16 Zn2 1_555 1_555
C11 C12 1_555 1_555
C23 C24 1_555 1_555
Zn1 O1 1_555 1_555
O1 C35 1_555 1_555
O11 C35 1_555 1_555
O5 Zn1 1_555 1_555
O14 C47 1_555 1_555
C25 H17 1_555 1_555
C26 C25 1_555 1_555
C27 C26 1_555 1_555
H18 C27 1_555 1_555
C28 C27 1_555 1_555
H19 C28 1_555 1_555
C32 C31 1_555 1_555
H22 C32 1_555 1_555
C33 C25 1_555 1_555
C34 C28 1_555 1_555
C35 C26 1_555 1_555
C37 H23 1_555 1_555
C38 C37 1_555 1_555
C39 C38 1_555 1_555
H24 C39 1_555 1_555
C40 C39 1_555 1_555
H25 C40 1_555 1_555
C46 C37 1_555 1_555
C47 O5 1_555 1_555
O12 Zn1 1_555 1_555
O15 Zn1 1_555 1_555
C29 C34 1_555 1_555
C32 C33 1_555 1_555
C33 C34 1_555 1_555
C38 C47 1_555 1_555
O12 C36 1_555 1_555
O13 C36 1_555 1_555
C36 C30 1_555 1_555
O15 C48 1_555 1_555
O16 C48 1_555 1_555
C41 H26 1_555 1_555
C42 C41 1_555 1_555
C43 C42 1_555 1_555
H27 C43 1_555 1_555
C44 C43 1_555 1_555
H28 C44 1_555 1_555
C48 C42 1_555 1_555
C41 C45 1_555 1_555
C6 C5 1_555 1_555
H6 C6 1_555 1_555
C7 C6 1_555 1_555
H7 C7 1_555 1_555
C8 C7 1_555 1_555
H8 C8 1_555 1_555
C9 O9 1_555 1_555
C13 C8 1_555 1_555
C14 C5 1_555 1_555
C15 N1 1_555 1_555
H9 C15 1_555 1_555
C16 C15 1_555 1_555
H10 C16 1_555 1_555
C17 C9 1_555 1_555
C18 C17 1_555 1_555
H11 C18 1_555 1_555
C19 N1 1_555 1_555
H12 C19 1_555 1_555
C9 C13 1_555 1_555
C13 C14 1_555 1_555
C16 C17 1_555 1_555
C18 C19 1_555 1_555
O7 C48_2 1_555 1_555
O8 C48_2 1_555 1_555
C41_2 H26_2 1_555 1_555
C42_2 C41_2 1_555 1_555
C43_2 C42_2 1_555 1_555
H27_2 C43_2 1_555 1_555
C44_2 C43_2 1_555 1_555
H28_2 C44_2 1_555 1_555
C48_2 C42_2 1_555 1_555
Zn3 O7 1_555 1_555
Zn5 O8 1_555 1_555
C41_2 C45_2 1_555 1_555
O3 C36_2 1_555 1_555
O4 C36_2 1_555 1_555
C36_2 C30_2 1_555 1_555
Zn3 O3 1_555 1_555
Zn5 O4 1_555 1_555
Zn3 O1_2 1_555 1_555
O1_2 C35_2 1_555 1_555
O2 C35_2 1_555 1_555
O5_2 Zn3 1_555 1_555
O6 C47_2 1_555 1_555
C25_2 H17_2 1_555 1_555
C26_2 C25_2 1_555 1_555
C27_2 C26_2 1_555 1_555
H18_2 C27_2 1_555 1_555
C28_2 C27_2 1_555 1_555
H19_2 C28_2 1_555 1_555
C32_2 C31_2 1_555 1_555
H22_2 C32_2 1_555 1_555
C33_2 C25_2 1_555 1_555
C34_2 C28_2 1_555 1_555
C35_2 C26_2 1_555 1_555
C37_2 H23_2 1_555 1_555
C38_2 C37_2 1_555 1_555
C39_2 C38_2 1_555 1_555
H24_2 C39_2 1_555 1_555
C40_2 C39_2 1_555 1_555
H25_2 C40_2 1_555 1_555
C46_2 C37_2 1_555 1_555
C47_2 O5_2 1_555 1_555
Zn5 O2 1_555 1_555
O6 Zn5 1_555 1_555
C29_2 C34_2 1_555 1_555
C32_2 C33_2 1_555 1_555
C33_2 C34_2 1_555 1_555
C38_2 C47_2 1_555 1_555
Zn5 N2_2 1_555 1_555
O10_2 C10_2 1_555 1_555
N2_2 C22_2 1_555 1_555
C1_2 H1_2 1_555 1_555
C2_2 C1_2 1_555 1_555
H2_2 C2_2 1_555 1_555
C3_2 C2_2 1_555 1_555
H3_2 C3_2 1_555 1_555
C4_2 C3_2 1_555 1_555
H4_2 C4_2 1_555 1_555
C10_2 C12_2 1_555 1_555
C11_2 C1_2 1_555 1_555
C12_2 C4_2 1_555 1_555
C20_2 C10_2 1_555 1_555
C21_2 C20_2 1_555 1_555
H13_2 C21_2 1_555 1_555
C22_2 C21_2 1_555 1_555
H14_2 C22_2 1_555 1_555
C23_2 N2_2 1_555 1_555
H15_2 C23_2 1_555 1_555
C24_2 C20_2 1_555 1_555
H16_2 C24_2 1_555 1_555
C11_2 C12_2 1_555 1_555
C23_2 C24_2 1_555 1_555
C6_2 C5_2 1_555 1_555
H6_2 C6_2 1_555 1_555
C7_2 C6_2 1_555 1_555
H7_2 C7_2 1_555 1_555
C8_2 C7_2 1_555 1_555
H8_2 C8_2 1_555 1_555
C9_2 O9_2 1_555 1_555
C13_2 C8_2 1_555 1_555
C14_2 C5_2 1_555 1_555
C15_2 N1_2 1_555 1_555
H9_2 C15_2 1_555 1_555
C16_2 C15_2 1_555 1_555
H10_2 C16_2 1_555 1_555
C17_2 C9_2 1_555 1_555
C18_2 C17_2 1_555 1_555
H11_2 C18_2 1_555 1_555
C19_2 N1_2 1_555 1_555
H12_2 C19_2 1_555 1_555
C9_2 C13_2 1_555 1_555
C13_2 C14_2 1_555 1_555
C16_2 C17_2 1_555 1_555
C18_2 C19_2 1_555 1_555

#END
