
###############################################################################
#
# This file contains modified crystal structure data generated from the
# MOF subset of the Cambridge Structural Database (CSD) v543 
# hosted by the Cambridge Crystallographic Data Centre (CCDC).
#
# This work is licensed under the Creative Commons
# Attribution-NonCommercial-ShareAlike 4.0 International License.
# To view a copy of this license, visit
# http://creativecommons.org/licenses/by-nc-sa/4.0/
# or send a letter to
# Creative Commons, PO Box 1866, Mountain View, CA 94042, USA.
#
# CIF created using the CSD Python API on 29 September 2022
# The structure has been converted into the P1 space group
# The structure has a 3D framework
# The original CSD entry SARGOJ is in the rhombohedral crystal system
# The framework has been calculated to contain at least 10.0% void space
# The void calculation uses a probe of radius 1.32A, grid spacing 0.4
#
###############################################################################

data_SARGOJ
_chemical_formula_moiety         '(C108 H90 Fe18 O54)n'
_symmetry_cell_setting           triclinic
_symmetry_space_group_name_H-M   'P 1'
_symmetry_Int_Tables_number      1
_space_group_name_Hall           'P 1'
loop_
_symmetry_equiv_pos_site_id
_symmetry_equiv_pos_as_xyz
1 x,y,z
_cell_length_a                   25.8784(9)
_cell_length_b                   25.8784(9)
_cell_length_c                   6.96686(35)
_cell_angle_alpha                90
_cell_angle_beta                 90
_cell_angle_gamma                120
_cell_volume                     4040.57
loop_
_atom_site_label
_atom_site_type_symbol
_atom_site_fract_x
_atom_site_fract_y
_atom_site_fract_z
Fe1 Fe 0.3877(4) 0.3523(4) 0.1450(12)
O1 O 0.3183(5) 0.2939(5) 0.3488(21)
O2 O 0.3044(5) 0.2275(6) 0.5952(22)
O3 O 0.3558(6) 0.2748(6) 0.0063(20)
C1 C 0.3167(6) 0.2471(6) 0.4193(16)
C2 C 0.3254(6) 0.2055(6) 0.2836(15)
C3 C 0.3431(7) 0.2248(7) 0.0954(20)
C4 C 0.3171(5) 0.1520(6) 0.3493(18)
H1 H 0.3021(10) 0.1386(10) 0.5020(33)
C5 C 0.4850(9) 0.3621(8) 0.1867(33)
C6 C 0.4549(11) 0.3329(10) 0.3340(26)
D1 D 0.5135(10) 0.4117(9) 0.2000(34)
D2 D 0.4367(10) 0.2852(11) 0.3344(34)
D3 D 0.4632(8) 0.3546(10) 0.4738(29)
D4 D 0.4911(9) 0.3435(8) 0.0626(25)
Fe3 Fe 0.3144(4) 0.3687(6) 0.4783(12)
Fe4 Fe 0.2979(6) 0.2790(4) 0.8117(12)
Fe8 Fe 0.3687(6) 0.0544(4) 0.5217(12)
O5 O 0.3089(7) 0.3484(5) 0.0155(21)
O10 O 0.3109(6) 0.0585(6) 0.3270(20)
O11 O 0.3919(6) 0.4143(8) 0.3396(20)
C8 C 0.3413(6) 0.1278(6) 0.0497(15)
C9 C 0.3236(7) 0.1085(7) 0.2379(20)
O4 O 0.3484(5) 0.0394(5) 0.9845(21)
O7 O 0.3623(5) 0.1058(6) 0.7381(22)
O8 O 0.4392(6) 0.4102(8) 0.9285(22)
C7 C 0.3500(6) 0.0862(6) 0.9140(16)
C10 C 0.3496(5) 0.1813(6) 0.9840(18)
H2 H 0.3646(10) 0.1947(10) 0.8313(33)
C12 C 0.2118(11) 0.0004(10) 0.9993(26)
D6 D 0.2300(10) 0.0481(11) 0.9989(34)
Fe2 Fe 0.2790(4) 0.9810(4) 0.1883(12)
O6 O 0.3577(7) 0.9850(5) 0.3179(21)
O9 O 0.2275(6) 0.9231(8) 0.4048(22)
C11 C 0.1817(9) 0.9712(8) 0.1466(33)
D5 D 0.1532(10) 0.9216(9) 0.1333(34)
D8 D 0.1756(9) 0.9898(8) 0.2707(25)
Fe6 Fe 0.3523(4) 0.9646(6) 0.8550(12)
O12 O 0.2748(6) 0.9190(8) 0.9937(20)
D7 D 0.2035(8) 0.9787(10) 0.8595(29)
Fe2_2 Fe 0.0190(4) 0.2979(6) 0.1883(12)
O6_2 O 0.0150(5) 0.3728(9) 0.3179(21)
O9_2 O 0.0769(8) 0.3044(10) 0.4048(22)
C11_2 C 0.0288(8) 0.2104(12) 0.1466(33)
D5_2 D 0.0784(9) 0.2315(13) 0.1333(34)
D8_2 D 0.0102(8) 0.1857(12) 0.2707(25)
Fe6_2 Fe 0.0354(6) 0.3877(7) 0.8550(12)
O12_2 O 0.0810(8) 0.3558(10) 0.9937(20)
D7_2 D 0.0213(10) 0.2247(13) 0.8595(29)
Fe1_2 Fe 0.6477(4) 0.0354(6) 0.1450(12)
O1_2 O 0.7061(5) 0.0244(7) 0.3488(21)
O2_2 O 0.7725(6) 0.0769(8) 0.5952(22)
O3_2 O 0.7252(6) 0.0810(8) 0.0063(20)
C1_2 C 0.7529(6) 0.0696(8) 0.4193(16)
C2_2 C 0.7945(6) 0.1199(8) 0.2836(15)
C3_2 C 0.7752(7) 0.1183(10) 0.0954(20)
C4_2 C 0.8480(6) 0.1651(8) 0.3493(18)
H1_2 H 0.8614(10) 0.1635(14) 0.5020(33)
C5_2 C 0.6379(8) 0.1229(12) 0.1867(33)
C6_2 C 0.6671(10) 0.1220(15) 0.3340(26)
D1_2 D 0.5883(9) 0.1018(13) 0.2000(34)
D2_2 D 0.7148(11) 0.1515(15) 0.3344(34)
D3_2 D 0.6454(10) 0.1086(13) 0.4738(29)
D4_2 D 0.6565(8) 0.1476(12) 0.0626(25)
Fe4_2 Fe 0.7210(4) 0.0190(7) 0.8117(12)
Fe8_2 Fe 0.9456(4) 0.3144(7) 0.5217(12)
O10_2 O 0.9415(6) 0.2523(8) 0.3270(20)
C8_2 C 0.8722(6) 0.2134(8) 0.0497(15)
C9_2 C 0.8915(7) 0.2150(10) 0.2379(20)
O4_2 O 0.9606(5) 0.3089(7) 0.9845(21)
O7_2 O 0.8942(6) 0.2564(8) 0.7381(22)
O8_2 O 0.5898(8) 0.0289(10) 0.9285(22)
C7_2 C 0.9138(6) 0.2637(8) 0.9140(16)
C10_2 C 0.8187(6) 0.1682(8) 0.9840(18)
H2_2 H 0.8053(10) 0.1698(14) 0.8313(33)
C12_2 C 0.9996(10) 0.2113(15) 0.9993(26)
D6_2 D 0.9519(11) 0.1818(15) 0.9989(34)
Fe3_2 Fe 0.6313(6) 0.9456(7) 0.4783(12)
O5_2 O 0.6516(5) 0.9606(9) 0.0155(21)
O11_2 O 0.5857(8) 0.9775(10) 0.3396(20)
Fe3_3 Fe 0.0544(7) 0.6856(4) 0.4783(12)
O5_3 O 0.0394(9) 0.6911(7) 0.0155(21)
O11_3 O 0.0225(10) 0.6081(6) 0.3396(20)
Fe1_3 Fe 0.9646(6) 0.6123(4) 0.1450(12)
O1_3 O 0.9756(7) 0.6817(5) 0.3488(21)
O2_3 O 0.9231(8) 0.6956(5) 0.5952(22)
O3_3 O 0.9190(8) 0.6442(6) 0.0063(20)
C1_3 C 0.9304(8) 0.6833(6) 0.4193(16)
C2_3 C 0.8801(8) 0.6746(6) 0.2836(15)
C3_3 C 0.8817(10) 0.6569(7) 0.0954(20)
C4_3 C 0.8349(8) 0.6829(5) 0.3493(18)
H1_3 H 0.8365(14) 0.6979(10) 0.5020(33)
C5_3 C 0.8771(12) 0.5150(9) 0.1867(33)
C6_3 C 0.8780(15) 0.5451(11) 0.3340(26)
D1_3 D 0.8982(13) 0.4865(10) 0.2000(34)
D2_3 D 0.8485(15) 0.5633(10) 0.3344(34)
D3_3 D 0.8914(13) 0.5368(8) 0.4738(29)
D4_3 D 0.8524(12) 0.5089(9) 0.0626(25)
Fe2_3 Fe 0.7021(6) 0.7210(4) 0.1883(12)
Fe4_3 Fe 0.9810(7) 0.7021(6) 0.8117(12)
Fe8_3 Fe 0.6856(7) 0.6313(6) 0.5217(12)
O6_3 O 0.6272(9) 0.6423(7) 0.3179(21)
O9_3 O 0.6956(10) 0.7725(6) 0.4048(22)
O10_3 O 0.7477(8) 0.6891(6) 0.3270(20)
C8_3 C 0.7866(8) 0.6587(6) 0.0497(15)
C9_3 C 0.7850(10) 0.6764(7) 0.2379(20)
C11_3 C 0.7896(12) 0.8183(9) 0.1466(33)
D5_3 D 0.7685(13) 0.8468(10) 0.1333(34)
D8_3 D 0.8143(12) 0.8244(9) 0.2707(25)
Fe6_3 Fe 0.6123(7) 0.6477(4) 0.8550(12)
O4_3 O 0.6911(7) 0.6516(5) 0.9845(21)
O7_3 O 0.7436(8) 0.6377(5) 0.7381(22)
O8_3 O 0.9711(10) 0.5608(6) 0.9285(22)
O12_3 O 0.6442(10) 0.7252(6) 0.9937(20)
C7_3 C 0.7363(8) 0.6500(6) 0.9140(16)
C10_3 C 0.8318(8) 0.6504(5) 0.9840(18)
H2_3 H 0.8302(14) 0.6354(10) 0.8313(33)
C12_3 C 0.7887(15) 0.7882(11) 0.9993(26)
D6_3 D 0.8182(15) 0.7700(10) 0.9989(34)
D7_3 D 0.7753(13) 0.7965(8) 0.8595(29)
D3_4 D 0.7965(8) 0.0213(10) 0.1405(29)
C5_4 C 0.8183(9) 0.0288(8) 0.8534(33)
D1_4 D 0.8468(10) 0.0784(9) 0.8667(34)
D4_4 D 0.8244(9) 0.0102(8) 0.7293(25)
O5_4 O 0.6423(7) 0.0150(5) 0.6821(21)
O2_4 O 0.6377(5) 0.8942(6) 0.2619(22)
C1_4 C 0.6500(6) 0.9138(6) 0.0860(16)
C4_4 C 0.6504(5) 0.8187(6) 0.0160(18)
H1_4 H 0.6354(10) 0.8053(10) 0.1687(33)
C6_4 C 0.7882(11) 0.9996(10) 0.0007(26)
D2_4 D 0.7700(10) 0.9519(11) 0.0011(34)
O9_4 O 0.5608(6) 0.5898(8) 0.0715(22)
O3_4 O 0.6891(6) 0.9415(6) 0.6730(20)
C2_4 C 0.6587(6) 0.8722(6) 0.9503(15)
C3_4 C 0.6764(7) 0.8915(7) 0.7621(20)
O4_4 O 0.6817(5) 0.7061(5) 0.6512(21)
O12_4 O 0.6081(6) 0.5857(8) 0.6604(20)
C7_4 C 0.6833(6) 0.7529(6) 0.5807(16)
C8_4 C 0.6746(6) 0.7945(6) 0.7164(15)
C9_4 C 0.6569(7) 0.7752(7) 0.9046(20)
C10_4 C 0.6829(5) 0.8480(6) 0.6507(18)
H2_4 H 0.6979(10) 0.8614(10) 0.4980(33)
C11_4 C 0.5150(9) 0.6379(8) 0.8133(33)
C12_4 C 0.5451(11) 0.6671(10) 0.6660(26)
D5_4 D 0.4865(10) 0.5883(9) 0.8000(34)
D6_4 D 0.5633(10) 0.7148(11) 0.6656(34)
D7_4 D 0.5368(8) 0.6454(10) 0.5262(29)
D8_4 D 0.5089(9) 0.6565(8) 0.9374(25)
O12_5 O 0.4143(8) 0.0225(10) 0.6604(20)
O2_5 O 0.1058(6) 0.7436(8) 0.2619(22)
C1_5 C 0.0862(6) 0.7363(8) 0.0860(16)
C4_5 C 0.1813(6) 0.8318(8) 0.0160(18)
H1_5 H 0.1947(10) 0.8302(14) 0.1687(33)
C6_5 C 0.0004(10) 0.7887(15) 0.0007(26)
D2_5 D 0.0481(11) 0.8182(15) 0.0011(34)
O9_5 O 0.4102(8) 0.9711(10) 0.0715(22)
O3_5 O 0.0585(6) 0.7477(8) 0.6730(20)
C2_5 C 0.1278(6) 0.7866(8) 0.9503(15)
C3_5 C 0.1085(7) 0.7850(10) 0.7621(20)
O4_5 O 0.2939(5) 0.9756(7) 0.6512(21)
C7_5 C 0.2471(6) 0.9304(8) 0.5807(16)
C8_5 C 0.2055(6) 0.8801(8) 0.7164(15)
C9_5 C 0.2248(7) 0.8817(10) 0.9046(20)
C10_5 C 0.1520(6) 0.8349(8) 0.6507(18)
H2_5 H 0.1386(10) 0.8365(14) 0.4980(33)
C11_5 C 0.3621(8) 0.8771(12) 0.8133(33)
C12_5 C 0.3329(10) 0.8780(15) 0.6660(26)
D5_5 D 0.4117(9) 0.8982(13) 0.8000(34)
D6_5 D 0.2852(11) 0.8485(15) 0.6656(34)
D7_5 D 0.3546(10) 0.8914(13) 0.5262(29)
D8_5 D 0.3435(8) 0.8524(12) 0.9374(25)
D3_5 D 0.9787(10) 0.7753(13) 0.1405(29)
C5_5 C 0.9712(8) 0.7896(12) 0.8534(33)
D1_5 D 0.9216(9) 0.7685(13) 0.8667(34)
D4_5 D 0.9898(8) 0.8143(12) 0.7293(25)
O5_5 O 0.9850(5) 0.6272(9) 0.6821(21)
O2_6 O 0.2564(8) 0.3623(5) 0.2619(22)
C1_6 C 0.2637(8) 0.3500(6) 0.0860(16)
C4_6 C 0.1682(8) 0.3496(5) 0.0160(18)
H1_6 H 0.1698(14) 0.3646(10) 0.1687(33)
C6_6 C 0.2113(15) 0.2118(11) 0.0007(26)
D2_6 D 0.1818(15) 0.2300(10) 0.0011(34)
D3_6 D 0.2247(13) 0.2035(8) 0.1405(29)
O9_6 O 0.0289(10) 0.4392(6) 0.0715(22)
O3_6 O 0.2523(8) 0.3109(6) 0.6730(20)
C2_6 C 0.2134(8) 0.3413(6) 0.9503(15)
C3_6 C 0.2150(10) 0.3236(7) 0.7621(20)
C5_6 C 0.2104(12) 0.1817(9) 0.8534(33)
D1_6 D 0.2315(13) 0.1532(10) 0.8667(34)
D4_6 D 0.1857(12) 0.1756(9) 0.7293(25)
O4_6 O 0.0244(7) 0.3183(5) 0.6512(21)
O5_6 O 0.3728(9) 0.3577(7) 0.6821(21)
C7_6 C 0.0696(8) 0.3167(6) 0.5807(16)
C8_6 C 0.1199(8) 0.3254(6) 0.7164(15)
C9_6 C 0.1183(10) 0.3431(7) 0.9046(20)
C10_6 C 0.1651(8) 0.3171(5) 0.6507(18)
H2_6 H 0.1635(14) 0.3021(10) 0.4980(33)
C11_6 C 0.1229(12) 0.4850(9) 0.8133(33)
C12_6 C 0.1220(15) 0.4549(11) 0.6660(26)
D5_6 D 0.1018(13) 0.5135(10) 0.8000(34)
D6_6 D 0.1515(15) 0.4367(10) 0.6656(34)
D7_6 D 0.1086(13) 0.4632(8) 0.5262(29)
D8_6 D 0.1476(12) 0.4911(9) 0.9374(25)
O12_6 O 0.9775(10) 0.3919(6) 0.6604(20)
C3_7 C 0.0098(7) 0.5581(7) 0.4287(20)
C5_7 C 0.1517(9) 0.6954(8) 0.5200(33)
C6_7 C 0.1216(11) 0.6662(10) 0.6673(26)
D1_7 D 0.1802(10) 0.7450(9) 0.5333(34)
D2_7 D 0.1034(10) 0.6185(11) 0.6677(34)
D3_7 D 0.1299(8) 0.6879(10) 0.8071(29)
D4_7 D 0.1578(9) 0.6768(8) 0.3959(25)
C7_7 C 0.0166(6) 0.4196(6) 0.2474(16)
C8_7 C 0.0079(6) 0.4612(6) 0.3831(15)
C10_7 C 0.0162(5) 0.5147(6) 0.3174(18)
H2_7 H 0.0312(10) 0.5281(10) 0.1647(33)
C1_7 C 0.9834(6) 0.5804(6) 0.7526(16)
C2_7 C 0.9921(6) 0.5388(6) 0.6169(15)
C4_7 C 0.9838(5) 0.4853(6) 0.6826(18)
H1_7 H 0.9688(10) 0.4719(10) 0.8353(33)
C9_7 C 0.9902(7) 0.4419(7) 0.5713(20)
C11_7 C 0.8483(9) 0.3046(8) 0.4800(33)
C12_7 C 0.8784(11) 0.3338(10) 0.3327(26)
D5_7 D 0.8198(10) 0.2550(9) 0.4667(34)
D6_7 D 0.8966(10) 0.3815(11) 0.3323(34)
D7_7 D 0.8701(8) 0.3121(10) 0.1929(29)
D8_7 D 0.8422(9) 0.3232(8) 0.6041(25)
C1_8 C 0.4196(6) 0.4029(8) 0.7526(16)
C2_8 C 0.4612(6) 0.4532(8) 0.6169(15)
C3_8 C 0.4419(7) 0.4516(10) 0.4287(20)
C4_8 C 0.5147(6) 0.4984(8) 0.6826(18)
H1_8 H 0.5281(10) 0.4968(14) 0.8353(33)
C5_8 C 0.3046(8) 0.4562(12) 0.5200(33)
C6_8 C 0.3338(10) 0.4553(15) 0.6673(26)
D1_8 D 0.2550(9) 0.4351(13) 0.5333(34)
D2_8 D 0.3815(11) 0.4848(15) 0.6677(34)
D3_8 D 0.3121(10) 0.4419(13) 0.8071(29)
D4_8 D 0.3232(8) 0.4809(12) 0.3959(25)
C7_8 C 0.5804(6) 0.5971(8) 0.2474(16)
C8_8 C 0.5388(6) 0.5468(8) 0.3831(15)
C9_8 C 0.5581(7) 0.5484(10) 0.5713(20)
C10_8 C 0.4853(6) 0.5016(8) 0.3174(18)
H2_8 H 0.4719(10) 0.5032(14) 0.1647(33)
C11_8 C 0.6954(8) 0.5438(12) 0.4800(33)
C12_8 C 0.6662(10) 0.5447(15) 0.3327(26)
D5_8 D 0.7450(9) 0.5649(13) 0.4667(34)
D6_8 D 0.6185(11) 0.5152(15) 0.3323(34)
D7_8 D 0.6879(10) 0.5581(13) 0.1929(29)
D8_8 D 0.6768(8) 0.5191(12) 0.6041(25)
C1_9 C 0.5971(8) 0.0166(6) 0.7526(16)
C2_9 C 0.5468(8) 0.0079(6) 0.6169(15)
C4_9 C 0.5016(8) 0.0162(5) 0.6826(18)
H1_9 H 0.5032(14) 0.0312(10) 0.8353(33)
C9_9 C 0.4516(10) 0.0098(7) 0.5713(20)
C11_9 C 0.4562(12) 0.1517(9) 0.4800(33)
C12_9 C 0.4553(15) 0.1216(11) 0.3327(26)
D5_9 D 0.4351(13) 0.1802(10) 0.4667(34)
D6_9 D 0.4848(15) 0.1034(10) 0.3323(34)
D7_9 D 0.4419(13) 0.1299(8) 0.1929(29)
D8_9 D 0.4809(12) 0.1578(9) 0.6041(25)
C3_9 C 0.5484(10) 0.9902(7) 0.4287(20)
C5_9 C 0.5438(12) 0.8483(9) 0.5200(33)
C6_9 C 0.5447(15) 0.8784(11) 0.6673(26)
D1_9 D 0.5649(13) 0.8198(10) 0.5333(34)
D2_9 D 0.5152(15) 0.8966(10) 0.6677(34)
D3_9 D 0.5581(13) 0.8701(8) 0.8071(29)
D4_9 D 0.5191(12) 0.8422(9) 0.3959(25)
C7_9 C 0.4029(8) 0.9834(6) 0.2474(16)
C8_9 C 0.4532(8) 0.9921(6) 0.3831(15)
C10_9 C 0.4984(8) 0.9838(5) 0.3174(18)
H2_9 H 0.4968(14) 0.9688(10) 0.1647(33)
loop_
_geom_bond_atom_site_label_1
_geom_bond_atom_site_label_2
_geom_bond_site_symmetry_1
_geom_bond_site_symmetry_2
Fe1 O1 1_555 1_555
O1 C1 1_555 1_555
O2 C1 1_555 1_555
O3 Fe1 1_555 1_555
C1 C2 1_555 1_555
C2 C3 1_555 1_555
C3 O3 1_555 1_555
C4 C2 1_555 1_555
H1 C4 1_555 1_555
C5 Fe1 1_555 1_555
C6 Fe1 1_555 1_555
D1 C5 1_555 1_555
D2 C6 1_555 1_555
D3 C6 1_555 1_555
D4 C5 1_555 1_555
Fe3 O1 1_555 1_555
Fe4 O2 1_555 1_555
O5 Fe1 1_555 1_555
O11 Fe1 1_555 1_555
C8 C9 1_555 1_555
C9 C4 1_555 1_555
C5 C6 1_555 1_555
Fe3 O11 1_555 1_555
Fe8 O10 1_555 1_555
O10 C9 1_555 1_555
Fe8 O7 1_555 1_555
O4 C7 1_555 1_555
O7 C7 1_555 1_555
H2 C10 1_555 1_555
D6 C12 1_555 1_555
O6 Fe2 1_555 1_555
O9 Fe2 1_555 1_555
C11 Fe2 1_555 1_555
D5 C11 1_555 1_555
D8 C11 1_555 1_555
Fe6 O12 1_555 1_555
O6_2 Fe2_2 1_555 1_555
O9_2 Fe2_2 1_555 1_555
C11_2 Fe2_2 1_555 1_555
D5_2 C11_2 1_555 1_555
D8_2 C11_2 1_555 1_555
Fe6_2 O12_2 1_555 1_555
Fe1_2 O1_2 1_555 1_555
O1_2 C1_2 1_555 1_555
O2_2 C1_2 1_555 1_555
O3_2 Fe1_2 1_555 1_555
C1_2 C2_2 1_555 1_555
C2_2 C3_2 1_555 1_555
C3_2 O3_2 1_555 1_555
C4_2 C2_2 1_555 1_555
H1_2 C4_2 1_555 1_555
C5_2 Fe1_2 1_555 1_555
C6_2 Fe1_2 1_555 1_555
D1_2 C5_2 1_555 1_555
D2_2 C6_2 1_555 1_555
D3_2 C6_2 1_555 1_555
D4_2 C5_2 1_555 1_555
Fe4_2 O2_2 1_555 1_555
C8_2 C9_2 1_555 1_555
C9_2 C4_2 1_555 1_555
C5_2 C6_2 1_555 1_555
Fe8_2 O10_2 1_555 1_555
O10_2 C9_2 1_555 1_555
Fe8_2 O7_2 1_555 1_555
O4_2 C7_2 1_555 1_555
O7_2 C7_2 1_555 1_555
H2_2 C10_2 1_555 1_555
D6_2 C12_2 1_555 1_555
Fe3_2 O11_2 1_555 1_555
Fe3_3 O11_3 1_555 1_555
Fe1_3 O1_3 1_555 1_555
O1_3 C1_3 1_555 1_555
O2_3 C1_3 1_555 1_555
O3_3 Fe1_3 1_555 1_555
C1_3 C2_3 1_555 1_555
C2_3 C3_3 1_555 1_555
C3_3 O3_3 1_555 1_555
C4_3 C2_3 1_555 1_555
H1_3 C4_3 1_555 1_555
C5_3 Fe1_3 1_555 1_555
C6_3 Fe1_3 1_555 1_555
D1_3 C5_3 1_555 1_555
D2_3 C6_3 1_555 1_555
D3_3 C6_3 1_555 1_555
D4_3 C5_3 1_555 1_555
Fe4_3 O2_3 1_555 1_555
Fe8_3 O6_3 1_555 1_555
O6_3 Fe2_3 1_555 1_555
O9_3 Fe2_3 1_555 1_555
O10_3 Fe2_3 1_555 1_555
C8_3 C9_3 1_555 1_555
C9_3 C4_3 1_555 1_555
C11_3 Fe2_3 1_555 1_555
D5_3 C11_3 1_555 1_555
D8_3 C11_3 1_555 1_555
C5_3 C6_3 1_555 1_555
Fe8_3 O10_3 1_555 1_555
O10_3 C9_3 1_555 1_555
Fe6_3 O4_3 1_555 1_555
Fe8_3 O7_3 1_555 1_555
O4_3 C7_3 1_555 1_555
O7_3 C7_3 1_555 1_555
H2_3 C10_3 1_555 1_555
D6_3 C12_3 1_555 1_555
D7_3 C12_3 1_555 1_555
Fe6_3 O12_3 1_555 1_555
C5_4 Fe4_2 1_555 1_555
D1_4 C5_4 1_555 1_555
D4_4 C5_4 1_555 1_555
O5_4 Fe4_2 1_555 1_555
O5_2 C1_4 1_555 1_555
O2_4 C1_4 1_555 1_555
H1_4 C4_4 1_555 1_555
D2_4 C6_4 1_555 1_555
Fe3_2 O2_4 1_555 1_555
C2_4 C3_4 1_555 1_555
C3_4 O3_4 1_555 1_555
Fe6_3 O4_4 1_555 1_555
Fe3_2 O3_4 1_555 1_555
Fe8_3 O4_4 1_555 1_555
O4_4 C7_4 1_555 1_555
O9_3 C7_4 1_555 1_555
O12_4 Fe6_3 1_555 1_555
C7_4 C8_4 1_555 1_555
C8_4 C9_4 1_555 1_555
C10_4 C3_4 1_555 1_555
H2_4 C10_4 1_555 1_555
C11_4 Fe6_3 1_555 1_555
C12_4 Fe6_3 1_555 1_555
D5_4 C11_4 1_555 1_555
D6_4 C12_4 1_555 1_555
D7_4 C12_4 1_555 1_555
D8_4 C11_4 1_555 1_555
Fe8_3 O12_4 1_555 1_555
O12_3 C9_4 1_555 1_555
C8_4 C10_4 1_555 1_555
C11_4 C12_4 1_555 1_555
Fe8 O12_5 1_555 1_555
O5_3 C1_5 1_555 1_555
O2_5 C1_5 1_555 1_555
H1_5 C4_5 1_555 1_555
D2_5 C6_5 1_555 1_555
Fe3_3 O2_5 1_555 1_555
C2_5 C3_5 1_555 1_555
C3_5 O3_5 1_555 1_555
Fe6 O4_5 1_555 1_555
Fe3_3 O3_5 1_555 1_555
O4_5 C7_5 1_555 1_555
O9 C7_5 1_555 1_555
C7_5 C8_5 1_555 1_555
C8_5 C9_5 1_555 1_555
C10_5 C3_5 1_555 1_555
H2_5 C10_5 1_555 1_555
C11_5 Fe6 1_555 1_555
C12_5 Fe6 1_555 1_555
D5_5 C11_5 1_555 1_555
D6_5 C12_5 1_555 1_555
D7_5 C12_5 1_555 1_555
D8_5 C11_5 1_555 1_555
O12 C9_5 1_555 1_555
C8_5 C10_5 1_555 1_555
C11_5 C12_5 1_555 1_555
C5_5 Fe4_3 1_555 1_555
D1_5 C5_5 1_555 1_555
D4_5 C5_5 1_555 1_555
O5_5 Fe4_3 1_555 1_555
O5 C1_6 1_555 1_555
O2_6 C1_6 1_555 1_555
H1_6 C4_6 1_555 1_555
D2_6 C6_6 1_555 1_555
D3_6 C6_6 1_555 1_555
Fe3 O2_6 1_555 1_555
O3_6 Fe4 1_555 1_555
C2_6 C3_6 1_555 1_555
C3_6 O3_6 1_555 1_555
C5_6 Fe4 1_555 1_555
D1_6 C5_6 1_555 1_555
D4_6 C5_6 1_555 1_555
Fe6_2 O4_6 1_555 1_555
Fe3 O3_6 1_555 1_555
O4_6 C7_6 1_555 1_555
O5_6 Fe4 1_555 1_555
O9_2 C7_6 1_555 1_555
C7_6 C8_6 1_555 1_555
C8_6 C9_6 1_555 1_555
C10_6 C3_6 1_555 1_555
H2_6 C10_6 1_555 1_555
C11_6 Fe6_2 1_555 1_555
C12_6 Fe6_2 1_555 1_555
D5_6 C11_6 1_555 1_555
D6_6 C12_6 1_555 1_555
D7_6 C12_6 1_555 1_555
D8_6 C11_6 1_555 1_555
Fe3 O5_6 1_555 1_555
O12_2 C9_6 1_555 1_555
C8_6 C10_6 1_555 1_555
C11_6 C12_6 1_555 1_555
Fe8_2 O12_6 1_555 1_555
C3_7 O11_3 1_555 1_555
C5_7 Fe3_3 1_555 1_555
C6_7 Fe3_3 1_555 1_555
D1_7 C5_7 1_555 1_555
D2_7 C6_7 1_555 1_555
D3_7 C6_7 1_555 1_555
D4_7 C5_7 1_555 1_555
O6_2 C7_7 1_555 1_555
O9_6 C7_7 1_555 1_555
C7_7 C8_7 1_555 1_555
C10_7 C3_7 1_555 1_555
H2_7 C10_7 1_555 1_555
C5_7 C6_7 1_555 1_555
C8_7 C10_7 1_555 1_555
O5_5 C1_7 1_555 1_555
O8_3 C1_7 1_555 1_555
C1_7 C2_7 1_555 1_555
C4_7 C2_7 1_555 1_555
H1_7 C4_7 1_555 1_555
C9_7 C4_7 1_555 1_555
C11_7 Fe8_2 1_555 1_555
C12_7 Fe8_2 1_555 1_555
D5_7 C11_7 1_555 1_555
D6_7 C12_7 1_555 1_555
D7_7 C12_7 1_555 1_555
D8_7 C11_7 1_555 1_555
O12_6 C9_7 1_555 1_555
C11_7 C12_7 1_555 1_555
O5_6 C1_8 1_555 1_555
O8 C1_8 1_555 1_555
C1_8 C2_8 1_555 1_555
C2_8 C3_8 1_555 1_555
C3_8 O11 1_555 1_555
C4_8 C2_8 1_555 1_555
H1_8 C4_8 1_555 1_555
C5_8 Fe3 1_555 1_555
C6_8 Fe3 1_555 1_555
D1_8 C5_8 1_555 1_555
D2_8 C6_8 1_555 1_555
D3_8 C6_8 1_555 1_555
D4_8 C5_8 1_555 1_555
O6_3 C7_8 1_555 1_555
O9_4 C7_8 1_555 1_555
C7_8 C8_8 1_555 1_555
C8_8 C9_8 1_555 1_555
C9_8 C4_8 1_555 1_555
C10_8 C3_8 1_555 1_555
H2_8 C10_8 1_555 1_555
C11_8 Fe8_3 1_555 1_555
C12_8 Fe8_3 1_555 1_555
D5_8 C11_8 1_555 1_555
D6_8 C12_8 1_555 1_555
D7_8 C12_8 1_555 1_555
D8_8 C11_8 1_555 1_555
C5_8 C6_8 1_555 1_555
O12_4 C9_8 1_555 1_555
C8_8 C10_8 1_555 1_555
C11_8 C12_8 1_555 1_555
O5_4 C1_9 1_555 1_555
O8_2 C1_9 1_555 1_555
C1_9 C2_9 1_555 1_555
C4_9 C2_9 1_555 1_555
H1_9 C4_9 1_555 1_555
C9_9 C4_9 1_555 1_555
C11_9 Fe8 1_555 1_555
C12_9 Fe8 1_555 1_555
D5_9 C11_9 1_555 1_555
D6_9 C12_9 1_555 1_555
D7_9 C12_9 1_555 1_555
D8_9 C11_9 1_555 1_555
O12_5 C9_9 1_555 1_555
C11_9 C12_9 1_555 1_555
C3_9 O11_2 1_555 1_555
C5_9 Fe3_2 1_555 1_555
C6_9 Fe3_2 1_555 1_555
D1_9 C5_9 1_555 1_555
D2_9 C6_9 1_555 1_555
D3_9 C6_9 1_555 1_555
D4_9 C5_9 1_555 1_555
O6 C7_9 1_555 1_555
O9_5 C7_9 1_555 1_555
C7_9 C8_9 1_555 1_555
C10_9 C3_9 1_555 1_555
H2_9 C10_9 1_555 1_555
C5_9 C6_9 1_555 1_555
C8_9 C10_9 1_555 1_555

#END
