
###############################################################################
#
# This file contains modified crystal structure data generated from the
# MOF subset of the Cambridge Structural Database (CSD) v543 
# hosted by the Cambridge Crystallographic Data Centre (CCDC).
#
# This work is licensed under the Creative Commons
# Attribution-NonCommercial-ShareAlike 4.0 International License.
# To view a copy of this license, visit
# http://creativecommons.org/licenses/by-nc-sa/4.0/
# or send a letter to
# Creative Commons, PO Box 1866, Mountain View, CA 94042, USA.
#
# CIF created using the CSD Python API on 29 September 2022
# The structure has been converted into the P1 space group
# The structure has a 3D framework
# The original CSD entry SARGID is in the rhombohedral crystal system
# The framework has been calculated to contain at least 10.0% void space
# The void calculation uses a probe of radius 1.32A, grid spacing 0.4
#
###############################################################################

data_SARGID
_chemical_formula_moiety         '(C108 H54 Fe18 O54)n'
_symmetry_cell_setting           triclinic
_symmetry_space_group_name_H-M   'P 1'
_symmetry_Int_Tables_number      1
_space_group_name_Hall           'P 1'
loop_
_symmetry_equiv_pos_site_id
_symmetry_equiv_pos_as_xyz
1 x,y,z
_cell_length_a                   25.9202(5)
_cell_length_b                   25.9202(5)
_cell_length_c                   6.95046(21)
_cell_angle_alpha                90
_cell_angle_beta                 90
_cell_angle_gamma                120
_cell_volume                     4044.09
loop_
_atom_site_label
_atom_site_type_symbol
_atom_site_fract_x
_atom_site_fract_y
_atom_site_fract_z
Fe1 Fe 0.38617(19) 0.35147(19) 0.1485(6)
O1 O 0.31842(30) 0.29222(31) 0.3475(11)
O2 O 0.30258(29) 0.22647(31) 0.5915(11)
O3 O 0.35286(33) 0.27109(30) 0.0094(11)
C1 C 0.31409(29) 0.24580(25) 0.4233(10)
C2 C 0.32761(30) 0.20593(28) 0.2822(10)
C3 C 0.34350(26) 0.22139(26) 0.0912(9)
C4 C 0.31563(26) 0.15232(30) 0.3605(9)
H1 H 0.3063(5) 0.1420(5) 0.5084(19)
C5 C 0.47990(18) 0.35389(28) 0.1968(10)
C6 C 0.45585(18) 0.33728(31) 0.3447(10)
D1 D 0.50299(34) 0.3659(5) 0.0656(14)
D2 D 0.43824(28) 0.3207(4) 0.4831(13)
Fe3 Fe 0.31520(19) 0.36803(27) 0.4818(6)
Fe4 Fe 0.29863(27) 0.28050(19) 0.8152(6)
Fe8 Fe 0.36803(27) 0.05284(19) 0.5182(6)
O5 O 0.30713(43) 0.34825(30) 0.0142(11)
O10 O 0.31381(33) 0.06224(30) 0.3239(11)
O11 O 0.39558(30) 0.41510(45) 0.3427(11)
C8 C 0.33906(30) 0.12740(28) 0.0511(10)
C9 C 0.32317(26) 0.11194(26) 0.2421(9)
O4 O 0.34825(30) 0.04111(31) 0.9858(11)
O7 O 0.36409(29) 0.10686(31) 0.7418(11)
O8 O 0.44020(31) 0.40944(42) 0.9248(11)
C7 C 0.35258(29) 0.08753(25) 0.9100(10)
C10 C 0.35104(26) 0.18101(30) 0.9728(9)
H2 H 0.3604(5) 0.1913(5) 0.8249(19)
D4 D 0.22843(28) 0.0126(4) 0.8502(13)
Fe2 Fe 0.28050(19) 0.98186(19) 0.1848(6)
O6 O 0.35953(43) 0.98509(30) 0.3192(11)
O9 O 0.22647(31) 0.92389(42) 0.4085(11)
C11 C 0.18677(18) 0.97944(28) 0.1365(10)
D3 D 0.16368(34) 0.9674(5) 0.2677(14)
Fe6 Fe 0.35147(19) 0.96530(27) 0.8515(6)
O12 O 0.27109(30) 0.91823(45) 0.9906(11)
C12 C 0.21082(18) 0.99605(31) 0.9886(10)
Fe2_2 Fe 0.01814(19) 0.29863(27) 0.1848(6)
O6_2 O 0.01491(30) 0.37445(52) 0.3192(11)
O9_2 O 0.07611(42) 0.30258(52) 0.4085(11)
C11_2 C 0.02056(28) 0.20732(33) 0.1365(10)
D3_2 D 0.0326(5) 0.19624(60) 0.2677(14)
Fe6_2 Fe 0.03470(27) 0.38617(33) 0.8515(6)
O12_2 O 0.08177(45) 0.35286(54) 0.9906(11)
C12_2 C 0.00395(31) 0.21476(36) 0.9886(10)
Fe1_2 Fe 0.64853(19) 0.03470(27) 0.1485(6)
O1_2 O 0.70778(31) 0.02620(43) 0.3475(11)
O2_2 O 0.77353(31) 0.07611(42) 0.5915(11)
O3_2 O 0.72891(30) 0.08177(45) 0.0094(11)
C1_2 C 0.75420(25) 0.06829(38) 0.4233(10)
C2_2 C 0.79407(28) 0.12168(41) 0.2822(10)
C3_2 C 0.77861(26) 0.12211(37) 0.0912(9)
C4_2 C 0.84768(30) 0.16331(40) 0.3605(9)
H1_2 H 0.8580(5) 0.1643(7) 0.5084(19)
C5_2 C 0.64611(28) 0.12601(33) 0.1968(10)
C6_2 C 0.66272(31) 0.11857(36) 0.3447(10)
D1_2 D 0.6341(5) 0.13709(60) 0.0656(14)
D2_2 D 0.6793(4) 0.11754(49) 0.4831(13)
Fe4_2 Fe 0.71950(19) 0.01814(33) 0.8152(6)
Fe8_2 Fe 0.94716(19) 0.31520(33) 0.5182(6)
O10_2 O 0.93776(30) 0.25156(45) 0.3239(11)
C8_2 C 0.87260(28) 0.21165(41) 0.0511(10)
C9_2 C 0.88806(26) 0.21122(37) 0.2421(9)
O4_2 O 0.95889(31) 0.30713(43) 0.9858(11)
O7_2 O 0.89314(31) 0.25722(42) 0.7418(11)
O8_2 O 0.59056(42) 0.03075(52) 0.9248(11)
C7_2 C 0.91247(25) 0.26504(38) 0.9100(10)
C10_2 C 0.81899(30) 0.17002(40) 0.9728(9)
H2_2 H 0.8087(5) 0.1690(7) 0.8249(19)
D4_2 D 0.9874(4) 0.21579(49) 0.8502(13)
Fe3_2 Fe 0.63197(27) 0.94716(33) 0.4818(6)
O5_2 O 0.65175(30) 0.95889(52) 0.0142(11)
O11_2 O 0.58490(45) 0.98047(54) 0.3427(11)
Fe3_3 Fe 0.05284(33) 0.68480(19) 0.4818(6)
O5_3 O 0.04111(52) 0.69287(43) 0.0142(11)
O11_3 O 0.01953(54) 0.60442(30) 0.3427(11)
Fe1_3 Fe 0.96530(27) 0.61383(19) 0.1485(6)
O1_3 O 0.97380(43) 0.68158(30) 0.3475(11)
O2_3 O 0.92389(42) 0.69742(29) 0.5915(11)
O3_3 O 0.91823(45) 0.64714(33) 0.0094(11)
C1_3 C 0.93171(38) 0.68591(29) 0.4233(10)
C2_3 C 0.87832(41) 0.67239(30) 0.2822(10)
C3_3 C 0.87789(37) 0.65650(26) 0.0912(9)
C4_3 C 0.83669(40) 0.68437(26) 0.3605(9)
H1_3 H 0.8357(7) 0.6937(5) 0.5084(19)
C5_3 C 0.87399(33) 0.52010(18) 0.1968(10)
C6_3 C 0.88143(36) 0.54415(18) 0.3447(10)
D1_3 D 0.86291(60) 0.49701(34) 0.0656(14)
D2_3 D 0.88246(49) 0.56176(28) 0.4831(13)
Fe2_3 Fe 0.70137(27) 0.71950(19) 0.1848(6)
Fe4_3 Fe 0.98186(33) 0.70137(27) 0.8152(6)
Fe8_3 Fe 0.68480(33) 0.63197(27) 0.5182(6)
O6_3 O 0.62555(52) 0.64047(43) 0.3192(11)
O9_3 O 0.69742(52) 0.77353(31) 0.4085(11)
O10_3 O 0.74844(45) 0.68619(33) 0.3239(11)
C8_3 C 0.78835(41) 0.66094(30) 0.0511(10)
C9_3 C 0.78878(37) 0.67683(26) 0.2421(9)
C11_3 C 0.79268(33) 0.81323(18) 0.1365(10)
D3_3 D 0.80376(60) 0.83632(34) 0.2677(14)
Fe6_3 Fe 0.61383(33) 0.64853(19) 0.8515(6)
O4_3 O 0.69287(43) 0.65175(30) 0.9858(11)
O7_3 O 0.74278(42) 0.63591(29) 0.7418(11)
O8_3 O 0.96925(52) 0.55980(31) 0.9248(11)
O12_3 O 0.64714(54) 0.72891(30) 0.9906(11)
C7_3 C 0.73496(38) 0.64742(29) 0.9100(10)
C10_3 C 0.82998(40) 0.64896(26) 0.9728(9)
H2_3 H 0.8310(7) 0.6396(5) 0.8249(19)
C12_3 C 0.78524(36) 0.78918(18) 0.9886(10)
D4_3 D 0.78421(49) 0.77157(28) 0.8502(13)
C6_4 C 0.78918(18) 0.00395(31) 0.0114(10)
C5_4 C 0.81323(18) 0.02056(28) 0.8635(10)
D1_4 D 0.83632(34) 0.0326(5) 0.7323(14)
O5_4 O 0.64047(43) 0.01491(30) 0.6808(11)
O2_4 O 0.63591(29) 0.89314(31) 0.2582(11)
C1_4 C 0.64742(29) 0.91247(25) 0.0900(10)
C4_4 C 0.64896(26) 0.81899(30) 0.0272(9)
H1_4 H 0.6396(5) 0.8087(5) 0.1751(19)
D2_4 D 0.77157(28) 0.9874(4) 0.1498(13)
O9_4 O 0.55980(31) 0.59056(42) 0.0752(11)
O3_4 O 0.68619(33) 0.93776(30) 0.6761(11)
C2_4 C 0.66094(30) 0.87260(28) 0.9489(10)
C3_4 C 0.67683(26) 0.88806(26) 0.7579(9)
O4_4 O 0.68158(30) 0.70778(31) 0.6525(11)
O12_4 O 0.60442(30) 0.58490(45) 0.6573(11)
C7_4 C 0.68591(29) 0.75420(25) 0.5767(10)
C8_4 C 0.67239(30) 0.79407(28) 0.7178(10)
C9_4 C 0.65650(26) 0.77861(26) 0.9088(9)
C10_4 C 0.68437(26) 0.84768(30) 0.6395(9)
H2_4 H 0.6937(5) 0.8580(5) 0.4916(19)
C11_4 C 0.52010(18) 0.64611(28) 0.8032(10)
C12_4 C 0.54415(18) 0.66272(31) 0.6553(10)
D3_4 D 0.49701(34) 0.6341(5) 0.9344(14)
D4_4 D 0.56176(28) 0.6793(4) 0.5169(13)
O12_5 O 0.41510(45) 0.01953(54) 0.6573(11)
O2_5 O 0.10686(31) 0.74278(42) 0.2582(11)
C1_5 C 0.08753(25) 0.73496(38) 0.0900(10)
C4_5 C 0.18101(30) 0.82998(40) 0.0272(9)
H1_5 H 0.1913(5) 0.8310(7) 0.1751(19)
D2_5 D 0.0126(4) 0.78421(49) 0.1498(13)
O9_5 O 0.40944(42) 0.96925(52) 0.0752(11)
O3_5 O 0.06224(30) 0.74844(45) 0.6761(11)
C2_5 C 0.12740(28) 0.78835(41) 0.9489(10)
C3_5 C 0.11194(26) 0.78878(37) 0.7579(9)
O4_5 O 0.29222(31) 0.97380(43) 0.6525(11)
C7_5 C 0.24580(25) 0.93171(38) 0.5767(10)
C8_5 C 0.20593(28) 0.87832(41) 0.7178(10)
C9_5 C 0.22139(26) 0.87789(37) 0.9088(9)
C10_5 C 0.15232(30) 0.83669(40) 0.6395(9)
H2_5 H 0.1420(5) 0.8357(7) 0.4916(19)
C11_5 C 0.35389(28) 0.87399(33) 0.8032(10)
C12_5 C 0.33728(31) 0.88143(36) 0.6553(10)
D3_5 D 0.3659(5) 0.86291(60) 0.9344(14)
D4_5 D 0.3207(4) 0.88246(49) 0.5169(13)
C6_5 C 0.99605(31) 0.78524(36) 0.0114(10)
C5_5 C 0.97944(28) 0.79268(33) 0.8635(10)
D1_5 D 0.9674(5) 0.80376(60) 0.7323(14)
O5_5 O 0.98509(30) 0.62555(52) 0.6808(11)
O2_6 O 0.25722(42) 0.36409(29) 0.2582(11)
C1_6 C 0.26504(38) 0.35258(29) 0.0900(10)
C4_6 C 0.17002(40) 0.35104(26) 0.0272(9)
H1_6 H 0.1690(7) 0.3604(5) 0.1751(19)
C6_6 C 0.21476(36) 0.21082(18) 0.0114(10)
D2_6 D 0.21579(49) 0.22843(28) 0.1498(13)
O9_6 O 0.03075(52) 0.44020(31) 0.0752(11)
O3_6 O 0.25156(45) 0.31381(33) 0.6761(11)
C2_6 C 0.21165(41) 0.33906(30) 0.9489(10)
C3_6 C 0.21122(37) 0.32317(26) 0.7579(9)
C5_6 C 0.20732(33) 0.18677(18) 0.8635(10)
D1_6 D 0.19624(60) 0.16368(34) 0.7323(14)
O4_6 O 0.02620(43) 0.31842(30) 0.6525(11)
O5_6 O 0.37445(52) 0.35953(43) 0.6808(11)
C7_6 C 0.06829(38) 0.31409(29) 0.5767(10)
C8_6 C 0.12168(41) 0.32761(30) 0.7178(10)
C9_6 C 0.12211(37) 0.34350(26) 0.9088(9)
C10_6 C 0.16331(40) 0.31563(26) 0.6395(9)
H2_6 H 0.1643(7) 0.3063(5) 0.4916(19)
C11_6 C 0.12601(33) 0.47990(18) 0.8032(10)
C12_6 C 0.11857(36) 0.45585(18) 0.6553(10)
D3_6 D 0.13709(60) 0.50299(34) 0.9344(14)
D4_6 D 0.11754(49) 0.43824(28) 0.5169(13)
O12_6 O 0.98047(54) 0.39558(30) 0.6573(11)
C3_7 C 0.01017(26) 0.55472(26) 0.4245(9)
C5_7 C 0.14657(18) 0.68722(28) 0.5301(10)
C6_7 C 0.12252(18) 0.67061(31) 0.6780(10)
D1_7 D 0.16966(34) 0.6992(5) 0.3989(14)
D2_7 D 0.10491(28) 0.6540(4) 0.8164(13)
C7_7 C 0.01924(29) 0.42087(25) 0.2434(10)
C8_7 C 0.00572(30) 0.46074(28) 0.3845(10)
C10_7 C 0.01770(26) 0.51435(30) 0.3062(9)
H2_7 H 0.0270(5) 0.5247(5) 0.1583(19)
C1_7 C 0.98076(29) 0.57913(25) 0.7566(10)
C2_7 C 0.99428(30) 0.53926(28) 0.6155(10)
C4_7 C 0.98230(26) 0.48565(30) 0.6938(9)
H1_7 H 0.9730(5) 0.4753(5) 0.8417(19)
C9_7 C 0.98983(26) 0.44528(26) 0.5755(9)
C11_7 C 0.85343(18) 0.31278(28) 0.4699(10)
C12_7 C 0.87748(18) 0.32939(31) 0.3220(10)
D3_7 D 0.83034(34) 0.3008(5) 0.6011(14)
D4_7 D 0.89509(28) 0.3460(4) 0.1836(13)
C1_8 C 0.42087(25) 0.40162(38) 0.7566(10)
C2_8 C 0.46074(28) 0.45501(41) 0.6155(10)
C3_8 C 0.44528(26) 0.45544(37) 0.4245(9)
C4_8 C 0.51435(30) 0.49664(40) 0.6938(9)
H1_8 H 0.5247(5) 0.4976(7) 0.8417(19)
C5_8 C 0.31278(28) 0.45934(33) 0.5301(10)
C6_8 C 0.32939(31) 0.45190(36) 0.6780(10)
D1_8 D 0.3008(5) 0.47042(60) 0.3989(14)
D2_8 D 0.3460(4) 0.45087(49) 0.8164(13)
C7_8 C 0.57913(25) 0.59838(38) 0.2434(10)
C8_8 C 0.53926(28) 0.54499(41) 0.3845(10)
C9_8 C 0.55472(26) 0.54456(37) 0.5755(9)
C10_8 C 0.48565(30) 0.50336(40) 0.3062(9)
H2_8 H 0.4753(5) 0.5024(7) 0.1583(19)
C11_8 C 0.68722(28) 0.54066(33) 0.4699(10)
C12_8 C 0.67061(31) 0.54810(36) 0.3220(10)
D3_8 D 0.6992(5) 0.52958(60) 0.6011(14)
D4_8 D 0.6540(4) 0.54913(49) 0.1836(13)
C1_9 C 0.59838(38) 0.01924(29) 0.7566(10)
C2_9 C 0.54499(41) 0.00572(30) 0.6155(10)
C4_9 C 0.50336(40) 0.01770(26) 0.6938(9)
H1_9 H 0.5024(7) 0.0270(5) 0.8417(19)
C9_9 C 0.45544(37) 0.01017(26) 0.5755(9)
C11_9 C 0.45934(33) 0.14657(18) 0.4699(10)
C12_9 C 0.45190(36) 0.12252(18) 0.3220(10)
D3_9 D 0.47042(60) 0.16966(34) 0.6011(14)
D4_9 D 0.45087(49) 0.10491(28) 0.1836(13)
C3_9 C 0.54456(37) 0.98983(26) 0.4245(9)
C5_9 C 0.54066(33) 0.85343(18) 0.5301(10)
C6_9 C 0.54810(36) 0.87748(18) 0.6780(10)
D1_9 D 0.52958(60) 0.83034(34) 0.3989(14)
D2_9 D 0.54913(49) 0.89509(28) 0.8164(13)
C7_9 C 0.40162(38) 0.98076(29) 0.2434(10)
C8_9 C 0.45501(41) 0.99428(30) 0.3845(10)
C10_9 C 0.49664(40) 0.98230(26) 0.3062(9)
H2_9 H 0.4976(7) 0.9730(5) 0.1583(19)
loop_
_geom_bond_atom_site_label_1
_geom_bond_atom_site_label_2
_geom_bond_site_symmetry_1
_geom_bond_site_symmetry_2
Fe1 O1 1_555 1_555
O1 C1 1_555 1_555
O2 C1 1_555 1_555
O3 Fe1 1_555 1_555
C1 C2 1_555 1_555
C2 C3 1_555 1_555
C3 O3 1_555 1_555
C4 C2 1_555 1_555
H1 C4 1_555 1_555
C5 Fe1 1_555 1_555
C6 Fe1 1_555 1_555
D1 C5 1_555 1_555
D2 C6 1_555 1_555
Fe3 O1 1_555 1_555
Fe4 O2 1_555 1_555
O5 Fe1 1_555 1_555
O11 Fe1 1_555 1_555
C8 C9 1_555 1_555
C9 C4 1_555 1_555
C5 C6 1_555 1_555
Fe3 O11 1_555 1_555
Fe8 O10 1_555 1_555
O10 C9 1_555 1_555
Fe8 O7 1_555 1_555
O4 C7 1_555 1_555
O7 C7 1_555 1_555
H2 C10 1_555 1_555
O6 Fe2 1_555 1_555
O9 Fe2 1_555 1_555
C11 Fe2 1_555 1_555
D3 C11 1_555 1_555
Fe6 O12 1_555 1_555
O6_2 Fe2_2 1_555 1_555
O9_2 Fe2_2 1_555 1_555
C11_2 Fe2_2 1_555 1_555
D3_2 C11_2 1_555 1_555
Fe6_2 O12_2 1_555 1_555
Fe1_2 O1_2 1_555 1_555
O1_2 C1_2 1_555 1_555
O2_2 C1_2 1_555 1_555
O3_2 Fe1_2 1_555 1_555
C1_2 C2_2 1_555 1_555
C2_2 C3_2 1_555 1_555
C3_2 O3_2 1_555 1_555
C4_2 C2_2 1_555 1_555
H1_2 C4_2 1_555 1_555
C5_2 Fe1_2 1_555 1_555
C6_2 Fe1_2 1_555 1_555
D1_2 C5_2 1_555 1_555
D2_2 C6_2 1_555 1_555
Fe4_2 O2_2 1_555 1_555
C8_2 C9_2 1_555 1_555
C9_2 C4_2 1_555 1_555
C5_2 C6_2 1_555 1_555
Fe8_2 O10_2 1_555 1_555
O10_2 C9_2 1_555 1_555
Fe8_2 O7_2 1_555 1_555
O4_2 C7_2 1_555 1_555
O7_2 C7_2 1_555 1_555
H2_2 C10_2 1_555 1_555
Fe3_2 O11_2 1_555 1_555
Fe3_3 O11_3 1_555 1_555
Fe1_3 O1_3 1_555 1_555
O1_3 C1_3 1_555 1_555
O2_3 C1_3 1_555 1_555
O3_3 Fe1_3 1_555 1_555
C1_3 C2_3 1_555 1_555
C2_3 C3_3 1_555 1_555
C3_3 O3_3 1_555 1_555
C4_3 C2_3 1_555 1_555
H1_3 C4_3 1_555 1_555
C5_3 Fe1_3 1_555 1_555
C6_3 Fe1_3 1_555 1_555
D1_3 C5_3 1_555 1_555
D2_3 C6_3 1_555 1_555
Fe4_3 O2_3 1_555 1_555
Fe8_3 O6_3 1_555 1_555
O6_3 Fe2_3 1_555 1_555
O9_3 Fe2_3 1_555 1_555
O10_3 Fe2_3 1_555 1_555
C8_3 C9_3 1_555 1_555
C9_3 C4_3 1_555 1_555
C11_3 Fe2_3 1_555 1_555
D3_3 C11_3 1_555 1_555
C5_3 C6_3 1_555 1_555
Fe8_3 O10_3 1_555 1_555
O10_3 C9_3 1_555 1_555
Fe6_3 O4_3 1_555 1_555
Fe8_3 O7_3 1_555 1_555
O4_3 C7_3 1_555 1_555
O7_3 C7_3 1_555 1_555
H2_3 C10_3 1_555 1_555
D4_3 C12_3 1_555 1_555
Fe6_3 O12_3 1_555 1_555
C5_4 Fe4_2 1_555 1_555
D1_4 C5_4 1_555 1_555
O5_4 Fe4_2 1_555 1_555
O5_2 C1_4 1_555 1_555
O2_4 C1_4 1_555 1_555
H1_4 C4_4 1_555 1_555
Fe3_2 O2_4 1_555 1_555
C2_4 C3_4 1_555 1_555
C3_4 O3_4 1_555 1_555
Fe6_3 O4_4 1_555 1_555
Fe3_2 O3_4 1_555 1_555
Fe8_3 O4_4 1_555 1_555
O4_4 C7_4 1_555 1_555
O9_3 C7_4 1_555 1_555
O12_4 Fe6_3 1_555 1_555
C7_4 C8_4 1_555 1_555
C8_4 C9_4 1_555 1_555
C10_4 C3_4 1_555 1_555
H2_4 C10_4 1_555 1_555
C11_4 Fe6_3 1_555 1_555
C12_4 Fe6_3 1_555 1_555
D3_4 C11_4 1_555 1_555
D4_4 C12_4 1_555 1_555
Fe8_3 O12_4 1_555 1_555
O12_3 C9_4 1_555 1_555
C8_4 C10_4 1_555 1_555
C11_4 C12_4 1_555 1_555
Fe8 O12_5 1_555 1_555
O5_3 C1_5 1_555 1_555
O2_5 C1_5 1_555 1_555
H1_5 C4_5 1_555 1_555
Fe3_3 O2_5 1_555 1_555
C2_5 C3_5 1_555 1_555
C3_5 O3_5 1_555 1_555
Fe6 O4_5 1_555 1_555
Fe3_3 O3_5 1_555 1_555
O4_5 C7_5 1_555 1_555
O9 C7_5 1_555 1_555
C7_5 C8_5 1_555 1_555
C8_5 C9_5 1_555 1_555
C10_5 C3_5 1_555 1_555
H2_5 C10_5 1_555 1_555
C11_5 Fe6 1_555 1_555
C12_5 Fe6 1_555 1_555
D3_5 C11_5 1_555 1_555
D4_5 C12_5 1_555 1_555
O12 C9_5 1_555 1_555
C8_5 C10_5 1_555 1_555
C11_5 C12_5 1_555 1_555
C5_5 Fe4_3 1_555 1_555
D1_5 C5_5 1_555 1_555
O5_5 Fe4_3 1_555 1_555
O5 C1_6 1_555 1_555
O2_6 C1_6 1_555 1_555
H1_6 C4_6 1_555 1_555
D2_6 C6_6 1_555 1_555
Fe3 O2_6 1_555 1_555
O3_6 Fe4 1_555 1_555
C2_6 C3_6 1_555 1_555
C3_6 O3_6 1_555 1_555
C5_6 Fe4 1_555 1_555
D1_6 C5_6 1_555 1_555
Fe6_2 O4_6 1_555 1_555
Fe3 O3_6 1_555 1_555
O4_6 C7_6 1_555 1_555
O5_6 Fe4 1_555 1_555
O9_2 C7_6 1_555 1_555
C7_6 C8_6 1_555 1_555
C8_6 C9_6 1_555 1_555
C10_6 C3_6 1_555 1_555
H2_6 C10_6 1_555 1_555
C11_6 Fe6_2 1_555 1_555
C12_6 Fe6_2 1_555 1_555
D3_6 C11_6 1_555 1_555
D4_6 C12_6 1_555 1_555
Fe3 O5_6 1_555 1_555
O12_2 C9_6 1_555 1_555
C8_6 C10_6 1_555 1_555
C11_6 C12_6 1_555 1_555
Fe8_2 O12_6 1_555 1_555
C3_7 O11_3 1_555 1_555
C5_7 Fe3_3 1_555 1_555
C6_7 Fe3_3 1_555 1_555
D1_7 C5_7 1_555 1_555
D2_7 C6_7 1_555 1_555
O6_2 C7_7 1_555 1_555
O9_6 C7_7 1_555 1_555
C7_7 C8_7 1_555 1_555
C10_7 C3_7 1_555 1_555
H2_7 C10_7 1_555 1_555
C5_7 C6_7 1_555 1_555
C8_7 C10_7 1_555 1_555
O5_5 C1_7 1_555 1_555
O8_3 C1_7 1_555 1_555
C1_7 C2_7 1_555 1_555
C4_7 C2_7 1_555 1_555
H1_7 C4_7 1_555 1_555
C9_7 C4_7 1_555 1_555
C11_7 Fe8_2 1_555 1_555
C12_7 Fe8_2 1_555 1_555
D3_7 C11_7 1_555 1_555
D4_7 C12_7 1_555 1_555
O12_6 C9_7 1_555 1_555
C11_7 C12_7 1_555 1_555
O5_6 C1_8 1_555 1_555
O8 C1_8 1_555 1_555
C1_8 C2_8 1_555 1_555
C2_8 C3_8 1_555 1_555
C3_8 O11 1_555 1_555
C4_8 C2_8 1_555 1_555
H1_8 C4_8 1_555 1_555
C5_8 Fe3 1_555 1_555
C6_8 Fe3 1_555 1_555
D1_8 C5_8 1_555 1_555
D2_8 C6_8 1_555 1_555
O6_3 C7_8 1_555 1_555
O9_4 C7_8 1_555 1_555
C7_8 C8_8 1_555 1_555
C8_8 C9_8 1_555 1_555
C9_8 C4_8 1_555 1_555
C10_8 C3_8 1_555 1_555
H2_8 C10_8 1_555 1_555
C11_8 Fe8_3 1_555 1_555
C12_8 Fe8_3 1_555 1_555
D3_8 C11_8 1_555 1_555
D4_8 C12_8 1_555 1_555
C5_8 C6_8 1_555 1_555
O12_4 C9_8 1_555 1_555
C8_8 C10_8 1_555 1_555
C11_8 C12_8 1_555 1_555
O5_4 C1_9 1_555 1_555
O8_2 C1_9 1_555 1_555
C1_9 C2_9 1_555 1_555
C4_9 C2_9 1_555 1_555
H1_9 C4_9 1_555 1_555
C9_9 C4_9 1_555 1_555
C11_9 Fe8 1_555 1_555
C12_9 Fe8 1_555 1_555
D3_9 C11_9 1_555 1_555
D4_9 C12_9 1_555 1_555
O12_5 C9_9 1_555 1_555
C11_9 C12_9 1_555 1_555
C3_9 O11_2 1_555 1_555
C5_9 Fe3_2 1_555 1_555
C6_9 Fe3_2 1_555 1_555
D1_9 C5_9 1_555 1_555
D2_9 C6_9 1_555 1_555
O6 C7_9 1_555 1_555
O9_5 C7_9 1_555 1_555
C7_9 C8_9 1_555 1_555
C10_9 C3_9 1_555 1_555
H2_9 C10_9 1_555 1_555
C5_9 C6_9 1_555 1_555
C8_9 C10_9 1_555 1_555

#END
