
###############################################################################
#
# This file contains modified crystal structure data generated from the
# MOF subset of the Cambridge Structural Database (CSD) v543 
# hosted by the Cambridge Crystallographic Data Centre (CCDC).
#
# This work is licensed under the Creative Commons
# Attribution-NonCommercial-ShareAlike 4.0 International License.
# To view a copy of this license, visit
# http://creativecommons.org/licenses/by-nc-sa/4.0/
# or send a letter to
# Creative Commons, PO Box 1866, Mountain View, CA 94042, USA.
#
# CIF created using the CSD Python API on 29 September 2022
# The structure has been converted into the P1 space group
# The structure has a 3D framework
# The original CSD entry SARGUP is in the rhombohedral crystal system
# The framework has been calculated to contain at least 10.0% void space
# The void calculation uses a probe of radius 1.32A, grid spacing 0.4
#
###############################################################################

data_SARGUP
_chemical_formula_moiety         '(C72 H18 Fe8 O54)n'
_symmetry_cell_setting           triclinic
_symmetry_space_group_name_H-M   'P 1'
_symmetry_Int_Tables_number      1
_space_group_name_Hall           'P 1'
loop_
_symmetry_equiv_pos_site_id
_symmetry_equiv_pos_as_xyz
1 x,y,z
_cell_length_a                   26.0836(5)
_cell_length_b                   26.0836(5)
_cell_length_c                   6.85512(18)
_cell_angle_alpha                90
_cell_angle_beta                 90
_cell_angle_gamma                120
_cell_volume                     4039.06
loop_
_atom_site_label
_atom_site_type_symbol
_atom_site_fract_x
_atom_site_fract_y
_atom_site_fract_z
_atom_site_U_iso_or_equiv
_atom_site_thermal_displace_type
Fe1 Fe 0.38099(20) 0.35082(21) 0.1434(6) 0.0118 Uiso
O1 O 0.32633(35) 0.2949(4) 0.3537(13) 0.0209 Uiso
O2 O 0.3022(4) 0.2293(4) 0.5909(14) 0.0330 Uiso
O3 O 0.3491(4) 0.27468(31) 0.0090(11) 0.0035 Uiso
C1 C 0.31641(32) 0.24516(29) 0.4196(10) 0.0065 Uiso
C2 C 0.32508(31) 0.20419(29) 0.2868(11) 0.0066 Uiso
C3 C 0.34135(28) 0.22290(31) 0.0856(10) 0.0060 Uiso
C4 C 0.31801(30) 0.1539(4) 0.3629(10) 0.0113 Uiso
H1 H 0.3018(5) 0.1411(6) 0.5040(23) 0.0080 Uiso
Fe3 Fe 0.31585(21) 0.36350(29) 0.4767(6) 0.0118 Uiso
Fe4 Fe 0.30316(29) 0.28568(20) 0.8101(6) 0.0118 Uiso
Fe8 Fe 0.36350(29) 0.04766(20) 0.5233(6) 0.0118 Uiso
O5 O 0.30190(53) 0.34034(35) 0.0204(13) 0.0209 Uiso
O10 O 0.3176(4) 0.05865(31) 0.3243(11) 0.0035 Uiso
O11 O 0.39199(31) 0.40775(51) 0.3423(11) 0.0035 Uiso
C6 C 0.34159(31) 0.12914(29) 0.0465(11) 0.0066 Uiso
C7 C 0.32532(28) 0.11043(31) 0.2477(10) 0.0060 Uiso
O4 O 0.34034(35) 0.0384(4) 0.9796(13) 0.0209 Uiso
O7 O 0.3645(4) 0.1040(4) 0.7424(14) 0.0330 Uiso
O8 O 0.4374(4) 0.4062(6) 0.9242(14) 0.0330 Uiso
C5 C 0.35026(32) 0.08817(29) 0.9137(10) 0.0065 Uiso
C8 C 0.34866(30) 0.1794(4) 0.9704(10) 0.0113 Uiso
H2 H 0.3649(5) 0.1922(6) 0.8293(23) 0.0080 Uiso
Fe2 Fe 0.28568(20) 0.98251(21) 0.1899(6) 0.0118 Uiso
O6 O 0.36476(53) 0.99300(35) 0.3130(13) 0.0209 Uiso
O9 O 0.2293(4) 0.9271(6) 0.4091(14) 0.0330 Uiso
Fe6 Fe 0.35082(21) 0.96983(29) 0.8566(6) 0.0118 Uiso
O12 O 0.27468(31) 0.92558(51) 0.9910(11) 0.0035 Uiso
Fe2_2 Fe 0.01749(21) 0.30316(29) 0.1899(6) 0.0118 Uiso
O6_2 O 0.00700(35) 0.37177(64) 0.3130(13) 0.0209 Uiso
O9_2 O 0.0729(6) 0.3022(7) 0.4091(14) 0.0330 Uiso
Fe6_2 Fe 0.03017(29) 0.38099(36) 0.8566(6) 0.0118 Uiso
O12_2 O 0.07442(51) 0.34910(60) 0.9910(11) 0.0035 Uiso
Fe1_2 Fe 0.64918(21) 0.03017(29) 0.1434(6) 0.0118 Uiso
O1_2 O 0.7051(4) 0.03143(53) 0.3537(13) 0.0209 Uiso
O2_2 O 0.7707(4) 0.0729(6) 0.5909(14) 0.0330 Uiso
O3_2 O 0.72532(31) 0.07442(51) 0.0090(11) 0.0035 Uiso
C1_2 C 0.75484(29) 0.07125(43) 0.4196(10) 0.0065 Uiso
C2_2 C 0.79581(29) 0.12089(42) 0.2868(11) 0.0066 Uiso
C3_2 C 0.77710(31) 0.11845(42) 0.0856(10) 0.0060 Uiso
C4_2 C 0.8461(4) 0.16411(50) 0.3629(10) 0.0113 Uiso
H1_2 H 0.8589(6) 0.1607(8) 0.5040(23) 0.0080 Uiso
Fe4_2 Fe 0.71432(20) 0.01749(35) 0.8101(6) 0.0118 Uiso
Fe8_2 Fe 0.95234(20) 0.31585(35) 0.5233(6) 0.0118 Uiso
O10_2 O 0.94135(31) 0.25891(51) 0.3243(11) 0.0035 Uiso
C6_2 C 0.87086(29) 0.21244(42) 0.0465(11) 0.0066 Uiso
C7_2 C 0.88957(31) 0.21488(42) 0.2477(10) 0.0060 Uiso
O4_2 O 0.9616(4) 0.30190(53) 0.9796(13) 0.0209 Uiso
O7_2 O 0.8960(4) 0.2604(6) 0.7424(14) 0.0330 Uiso
O8_2 O 0.5938(6) 0.0311(7) 0.9242(14) 0.0330 Uiso
C5_2 C 0.91183(29) 0.26208(43) 0.9137(10) 0.0065 Uiso
C8_2 C 0.8206(4) 0.16922(50) 0.9704(10) 0.0113 Uiso
H2_2 H 0.8078(6) 0.1726(8) 0.8293(23) 0.0080 Uiso
Fe3_2 Fe 0.63650(29) 0.95234(36) 0.4767(6) 0.0118 Uiso
O5_2 O 0.65966(35) 0.96157(64) 0.0204(13) 0.0209 Uiso
O11_2 O 0.59225(51) 0.98423(60) 0.3423(11) 0.0035 Uiso
Fe3_3 Fe 0.04766(36) 0.68415(21) 0.4767(6) 0.0118 Uiso
O5_3 O 0.03843(64) 0.69810(53) 0.0204(13) 0.0209 Uiso
O11_3 O 0.01577(60) 0.60801(31) 0.3423(11) 0.0035 Uiso
Fe1_3 Fe 0.96983(29) 0.61901(20) 0.1434(6) 0.0118 Uiso
O1_3 O 0.96857(53) 0.67367(35) 0.3537(13) 0.0209 Uiso
O2_3 O 0.9271(6) 0.6978(4) 0.5909(14) 0.0330 Uiso
O3_3 O 0.92558(51) 0.6509(4) 0.0090(11) 0.0035 Uiso
C1_3 C 0.92875(43) 0.68359(32) 0.4196(10) 0.0065 Uiso
C2_3 C 0.87911(42) 0.67492(31) 0.2868(11) 0.0066 Uiso
C3_3 C 0.88155(42) 0.65865(28) 0.0856(10) 0.0060 Uiso
C4_3 C 0.83589(50) 0.68199(30) 0.3629(10) 0.0113 Uiso
H1_3 H 0.8393(8) 0.6982(5) 0.5040(23) 0.0080 Uiso
Fe2_3 Fe 0.69684(29) 0.71432(20) 0.1899(6) 0.0118 Uiso
Fe4_3 Fe 0.98251(35) 0.69684(29) 0.8101(6) 0.0118 Uiso
Fe8_3 Fe 0.68415(35) 0.63650(29) 0.5233(6) 0.0118 Uiso
O6_3 O 0.62823(64) 0.63524(53) 0.3130(13) 0.0209 Uiso
O9_3 O 0.6978(7) 0.7707(4) 0.4091(14) 0.0330 Uiso
O10_3 O 0.74109(51) 0.6824(4) 0.3243(11) 0.0035 Uiso
C6_3 C 0.78756(42) 0.65841(31) 0.0465(11) 0.0066 Uiso
C7_3 C 0.78512(42) 0.67468(28) 0.2477(10) 0.0060 Uiso
Fe6_3 Fe 0.61901(36) 0.64918(21) 0.8566(6) 0.0118 Uiso
O4_3 O 0.69810(53) 0.65966(35) 0.9796(13) 0.0209 Uiso
O7_3 O 0.7396(6) 0.6355(4) 0.7424(14) 0.0330 Uiso
O8_3 O 0.9689(7) 0.5626(4) 0.9242(14) 0.0330 Uiso
O12_3 O 0.65090(60) 0.72532(31) 0.9910(11) 0.0035 Uiso
C5_3 C 0.73792(43) 0.64974(32) 0.9137(10) 0.0065 Uiso
C8_3 C 0.83078(50) 0.65134(30) 0.9704(10) 0.0113 Uiso
H2_3 H 0.8274(8) 0.6351(5) 0.8293(23) 0.0080 Uiso
O5_4 O 0.63524(53) 0.00700(35) 0.6870(13) 0.0209 Uiso
O2_4 O 0.6355(4) 0.8960(4) 0.2576(14) 0.0330 Uiso
C1_4 C 0.64974(32) 0.91183(29) 0.0863(10) 0.0065 Uiso
C4_4 C 0.65134(30) 0.8206(4) 0.0296(10) 0.0113 Uiso
H1_4 H 0.6351(5) 0.8078(6) 0.1707(23) 0.0080 Uiso
O9_4 O 0.5626(4) 0.5938(6) 0.0758(14) 0.0330 Uiso
O3_4 O 0.6824(4) 0.94135(31) 0.6757(11) 0.0035 Uiso
C2_4 C 0.65841(31) 0.87086(29) 0.9535(11) 0.0066 Uiso
C3_4 C 0.67468(28) 0.88957(31) 0.7523(10) 0.0060 Uiso
O4_4 O 0.67367(35) 0.7051(4) 0.6463(13) 0.0209 Uiso
O12_4 O 0.60801(31) 0.59225(51) 0.6577(11) 0.0035 Uiso
C5_4 C 0.68359(32) 0.75484(29) 0.5804(10) 0.0065 Uiso
C6_4 C 0.67492(31) 0.79581(29) 0.7132(11) 0.0066 Uiso
C7_4 C 0.65865(28) 0.77710(31) 0.9144(10) 0.0060 Uiso
C8_4 C 0.68199(30) 0.8461(4) 0.6371(10) 0.0113 Uiso
H2_4 H 0.6982(5) 0.8589(6) 0.4960(23) 0.0080 Uiso
O12_5 O 0.40775(51) 0.01577(60) 0.6577(11) 0.0035 Uiso
O2_5 O 0.1040(4) 0.7396(6) 0.2576(14) 0.0330 Uiso
C1_5 C 0.08817(29) 0.73792(43) 0.0863(10) 0.0065 Uiso
C4_5 C 0.1794(4) 0.83078(50) 0.0296(10) 0.0113 Uiso
H1_5 H 0.1922(6) 0.8274(8) 0.1707(23) 0.0080 Uiso
O9_5 O 0.4062(6) 0.9689(7) 0.0758(14) 0.0330 Uiso
O3_5 O 0.05865(31) 0.74109(51) 0.6757(11) 0.0035 Uiso
C2_5 C 0.12914(29) 0.78756(42) 0.9535(11) 0.0066 Uiso
C3_5 C 0.11043(31) 0.78512(42) 0.7523(10) 0.0060 Uiso
O4_5 O 0.2949(4) 0.96857(53) 0.6463(13) 0.0209 Uiso
C5_5 C 0.24516(29) 0.92875(43) 0.5804(10) 0.0065 Uiso
C6_5 C 0.20419(29) 0.87911(42) 0.7132(11) 0.0066 Uiso
C7_5 C 0.22290(31) 0.88155(42) 0.9144(10) 0.0060 Uiso
C8_5 C 0.1539(4) 0.83589(50) 0.6371(10) 0.0113 Uiso
H2_5 H 0.1411(6) 0.8393(8) 0.4960(23) 0.0080 Uiso
O5_5 O 0.99300(35) 0.62823(64) 0.6870(13) 0.0209 Uiso
O2_6 O 0.2604(6) 0.3645(4) 0.2576(14) 0.0330 Uiso
C1_6 C 0.26208(43) 0.35026(32) 0.0863(10) 0.0065 Uiso
C4_6 C 0.16922(50) 0.34866(30) 0.0296(10) 0.0113 Uiso
H1_6 H 0.1726(8) 0.3649(5) 0.1707(23) 0.0080 Uiso
O9_6 O 0.0311(7) 0.4374(4) 0.0758(14) 0.0330 Uiso
O3_6 O 0.25891(51) 0.3176(4) 0.6757(11) 0.0035 Uiso
C2_6 C 0.21244(42) 0.34159(31) 0.9535(11) 0.0066 Uiso
C3_6 C 0.21488(42) 0.32532(28) 0.7523(10) 0.0060 Uiso
O4_6 O 0.03143(53) 0.32633(35) 0.6463(13) 0.0209 Uiso
O5_6 O 0.37177(64) 0.36476(53) 0.6870(13) 0.0209 Uiso
C5_6 C 0.07125(43) 0.31641(32) 0.5804(10) 0.0065 Uiso
C6_6 C 0.12089(42) 0.32508(31) 0.7132(11) 0.0066 Uiso
C7_6 C 0.11845(42) 0.34135(28) 0.9144(10) 0.0060 Uiso
C8_6 C 0.16411(50) 0.31801(30) 0.6371(10) 0.0113 Uiso
H2_6 H 0.1607(8) 0.3018(5) 0.4960(23) 0.0080 Uiso
O12_6 O 0.98423(60) 0.39199(31) 0.6577(11) 0.0035 Uiso
C3_7 C 0.00802(28) 0.55623(31) 0.4189(10) 0.0060 Uiso
C5_7 C 0.01692(32) 0.42151(29) 0.2471(10) 0.0065 Uiso
C6_7 C 0.00825(31) 0.46248(29) 0.3799(11) 0.0066 Uiso
C8_7 C 0.01532(30) 0.5128(4) 0.3038(10) 0.0113 Uiso
H2_7 H 0.0315(5) 0.5256(6) 0.1627(23) 0.0080 Uiso
C1_7 C 0.98308(32) 0.57849(29) 0.7529(10) 0.0065 Uiso
C2_7 C 0.99175(31) 0.53752(29) 0.6201(11) 0.0066 Uiso
C4_7 C 0.98468(30) 0.4872(4) 0.6962(10) 0.0113 Uiso
H1_7 H 0.9685(5) 0.4744(6) 0.8373(23) 0.0080 Uiso
C7_7 C 0.99198(28) 0.44377(31) 0.5811(10) 0.0060 Uiso
C1_8 C 0.42151(29) 0.40458(43) 0.7529(10) 0.0065 Uiso
C2_8 C 0.46248(29) 0.45422(42) 0.6201(11) 0.0066 Uiso
C3_8 C 0.44377(31) 0.45178(42) 0.4189(10) 0.0060 Uiso
C4_8 C 0.5128(4) 0.49744(50) 0.6962(10) 0.0113 Uiso
H1_8 H 0.5256(6) 0.4940(8) 0.8373(23) 0.0080 Uiso
C5_8 C 0.57849(29) 0.59542(43) 0.2471(10) 0.0065 Uiso
C6_8 C 0.53752(29) 0.54578(42) 0.3799(11) 0.0066 Uiso
C7_8 C 0.55623(31) 0.54822(42) 0.5811(10) 0.0060 Uiso
C8_8 C 0.4872(4) 0.50256(50) 0.3038(10) 0.0113 Uiso
H2_8 H 0.4744(6) 0.5060(8) 0.1627(23) 0.0080 Uiso
C1_9 C 0.59542(43) 0.01692(32) 0.7529(10) 0.0065 Uiso
C2_9 C 0.54578(42) 0.00825(31) 0.6201(11) 0.0066 Uiso
C4_9 C 0.50256(50) 0.01532(30) 0.6962(10) 0.0113 Uiso
H1_9 H 0.5060(8) 0.0315(5) 0.8373(23) 0.0080 Uiso
C7_9 C 0.45178(42) 0.00802(28) 0.5811(10) 0.0060 Uiso
C3_9 C 0.54822(42) 0.99198(28) 0.4189(10) 0.0060 Uiso
C5_9 C 0.40458(43) 0.98308(32) 0.2471(10) 0.0065 Uiso
C6_9 C 0.45422(42) 0.99175(31) 0.3799(11) 0.0066 Uiso
C8_9 C 0.49744(50) 0.98468(30) 0.3038(10) 0.0113 Uiso
H2_9 H 0.4940(8) 0.9685(5) 0.1627(23) 0.0080 Uiso
loop_
_geom_bond_atom_site_label_1
_geom_bond_atom_site_label_2
_geom_bond_site_symmetry_1
_geom_bond_site_symmetry_2
Fe1 O1 1_555 1_555
O1 C1 1_555 1_555
O2 C1 1_555 1_555
O3 Fe1 1_555 1_555
C1 C2 1_555 1_555
C2 C3 1_555 1_555
C3 O3 1_555 1_555
C4 C2 1_555 1_555
H1 C4 1_555 1_555
Fe3 O1 1_555 1_555
Fe4 O2 1_555 1_555
O5 Fe1 1_555 1_555
O11 Fe1 1_555 1_555
C6 C7 1_555 1_555
C7 C4 1_555 1_555
Fe3 O11 1_555 1_555
Fe8 O10 1_555 1_555
O10 C7 1_555 1_555
Fe8 O7 1_555 1_555
O4 C5 1_555 1_555
O7 C5 1_555 1_555
H2 C8 1_555 1_555
O6 Fe2 1_555 1_555
O9 Fe2 1_555 1_555
Fe6 O12 1_555 1_555
O6_2 Fe2_2 1_555 1_555
O9_2 Fe2_2 1_555 1_555
Fe6_2 O12_2 1_555 1_555
Fe1_2 O1_2 1_555 1_555
O1_2 C1_2 1_555 1_555
O2_2 C1_2 1_555 1_555
O3_2 Fe1_2 1_555 1_555
C1_2 C2_2 1_555 1_555
C2_2 C3_2 1_555 1_555
C3_2 O3_2 1_555 1_555
C4_2 C2_2 1_555 1_555
H1_2 C4_2 1_555 1_555
Fe4_2 O2_2 1_555 1_555
C6_2 C7_2 1_555 1_555
C7_2 C4_2 1_555 1_555
Fe8_2 O10_2 1_555 1_555
O10_2 C7_2 1_555 1_555
Fe8_2 O7_2 1_555 1_555
O4_2 C5_2 1_555 1_555
O7_2 C5_2 1_555 1_555
H2_2 C8_2 1_555 1_555
Fe3_2 O11_2 1_555 1_555
Fe3_3 O11_3 1_555 1_555
Fe1_3 O1_3 1_555 1_555
O1_3 C1_3 1_555 1_555
O2_3 C1_3 1_555 1_555
O3_3 Fe1_3 1_555 1_555
C1_3 C2_3 1_555 1_555
C2_3 C3_3 1_555 1_555
C3_3 O3_3 1_555 1_555
C4_3 C2_3 1_555 1_555
H1_3 C4_3 1_555 1_555
Fe4_3 O2_3 1_555 1_555
Fe8_3 O6_3 1_555 1_555
O6_3 Fe2_3 1_555 1_555
O9_3 Fe2_3 1_555 1_555
O10_3 Fe2_3 1_555 1_555
C6_3 C7_3 1_555 1_555
C7_3 C4_3 1_555 1_555
Fe8_3 O10_3 1_555 1_555
O10_3 C7_3 1_555 1_555
Fe6_3 O4_3 1_555 1_555
Fe8_3 O7_3 1_555 1_555
O4_3 C5_3 1_555 1_555
O7_3 C5_3 1_555 1_555
H2_3 C8_3 1_555 1_555
Fe6_3 O12_3 1_555 1_555
O5_4 Fe4_2 1_555 1_555
O5_2 C1_4 1_555 1_555
O2_4 C1_4 1_555 1_555
H1_4 C4_4 1_555 1_555
Fe3_2 O2_4 1_555 1_555
C2_4 C3_4 1_555 1_555
C3_4 O3_4 1_555 1_555
Fe6_3 O4_4 1_555 1_555
Fe3_2 O3_4 1_555 1_555
Fe8_3 O4_4 1_555 1_555
O4_4 C5_4 1_555 1_555
O9_3 C5_4 1_555 1_555
O12_4 Fe6_3 1_555 1_555
C5_4 C6_4 1_555 1_555
C6_4 C7_4 1_555 1_555
C8_4 C3_4 1_555 1_555
H2_4 C8_4 1_555 1_555
Fe8_3 O12_4 1_555 1_555
O12_3 C7_4 1_555 1_555
C6_4 C8_4 1_555 1_555
Fe8 O12_5 1_555 1_555
O5_3 C1_5 1_555 1_555
O2_5 C1_5 1_555 1_555
H1_5 C4_5 1_555 1_555
Fe3_3 O2_5 1_555 1_555
C2_5 C3_5 1_555 1_555
C3_5 O3_5 1_555 1_555
Fe6 O4_5 1_555 1_555
Fe3_3 O3_5 1_555 1_555
O4_5 C5_5 1_555 1_555
O9 C5_5 1_555 1_555
C5_5 C6_5 1_555 1_555
C6_5 C7_5 1_555 1_555
C8_5 C3_5 1_555 1_555
H2_5 C8_5 1_555 1_555
O12 C7_5 1_555 1_555
C6_5 C8_5 1_555 1_555
O5_5 Fe4_3 1_555 1_555
O5 C1_6 1_555 1_555
O2_6 C1_6 1_555 1_555
H1_6 C4_6 1_555 1_555
Fe3 O2_6 1_555 1_555
O3_6 Fe4 1_555 1_555
C2_6 C3_6 1_555 1_555
C3_6 O3_6 1_555 1_555
Fe6_2 O4_6 1_555 1_555
Fe3 O3_6 1_555 1_555
O4_6 C5_6 1_555 1_555
O5_6 Fe4 1_555 1_555
O9_2 C5_6 1_555 1_555
C5_6 C6_6 1_555 1_555
C6_6 C7_6 1_555 1_555
C8_6 C3_6 1_555 1_555
H2_6 C8_6 1_555 1_555
Fe3 O5_6 1_555 1_555
O12_2 C7_6 1_555 1_555
C6_6 C8_6 1_555 1_555
Fe8_2 O12_6 1_555 1_555
C3_7 O11_3 1_555 1_555
O6_2 C5_7 1_555 1_555
O9_6 C5_7 1_555 1_555
C5_7 C6_7 1_555 1_555
C8_7 C3_7 1_555 1_555
H2_7 C8_7 1_555 1_555
C6_7 C8_7 1_555 1_555
O5_5 C1_7 1_555 1_555
O8_3 C1_7 1_555 1_555
C1_7 C2_7 1_555 1_555
C4_7 C2_7 1_555 1_555
H1_7 C4_7 1_555 1_555
C7_7 C4_7 1_555 1_555
O12_6 C7_7 1_555 1_555
O5_6 C1_8 1_555 1_555
O8 C1_8 1_555 1_555
C1_8 C2_8 1_555 1_555
C2_8 C3_8 1_555 1_555
C3_8 O11 1_555 1_555
C4_8 C2_8 1_555 1_555
H1_8 C4_8 1_555 1_555
O6_3 C5_8 1_555 1_555
O9_4 C5_8 1_555 1_555
C5_8 C6_8 1_555 1_555
C6_8 C7_8 1_555 1_555
C7_8 C4_8 1_555 1_555
C8_8 C3_8 1_555 1_555
H2_8 C8_8 1_555 1_555
O12_4 C7_8 1_555 1_555
C6_8 C8_8 1_555 1_555
O5_4 C1_9 1_555 1_555
O8_2 C1_9 1_555 1_555
C1_9 C2_9 1_555 1_555
C4_9 C2_9 1_555 1_555
H1_9 C4_9 1_555 1_555
C7_9 C4_9 1_555 1_555
O12_5 C7_9 1_555 1_555
C3_9 O11_2 1_555 1_555
O6 C5_9 1_555 1_555
O9_5 C5_9 1_555 1_555
C5_9 C6_9 1_555 1_555
C8_9 C3_9 1_555 1_555
H2_9 C8_9 1_555 1_555
C6_9 C8_9 1_555 1_555

#END
