
###############################################################################
#
# This file contains modified crystal structure data generated from the
# MOF subset of the Cambridge Structural Database (CSD) v543 
# hosted by the Cambridge Crystallographic Data Centre (CCDC).
#
# This work is licensed under the Creative Commons
# Attribution-NonCommercial-ShareAlike 4.0 International License.
# To view a copy of this license, visit
# http://creativecommons.org/licenses/by-nc-sa/4.0/
# or send a letter to
# Creative Commons, PO Box 1866, Mountain View, CA 94042, USA.
#
# CIF created using the CSD Python API on 29 September 2022
# The structure has been converted into the P1 space group
# The structure has a 3D framework
# The original CSD entry SARHAW is in the rhombohedral crystal system
# The framework has been calculated to contain at least 10.0% void space
# The void calculation uses a probe of radius 1.32A, grid spacing 0.4
#
###############################################################################

data_SARHAW
_chemical_formula_moiety         '(C72 H18 Fe8 O54)n'
_symmetry_cell_setting           triclinic
_symmetry_space_group_name_H-M   'P 1'
_symmetry_Int_Tables_number      1
_space_group_name_Hall           'P 1'
loop_
_symmetry_equiv_pos_site_id
_symmetry_equiv_pos_as_xyz
1 x,y,z
_cell_length_a                   25.8980(9)
_cell_length_b                   25.8980(9)
_cell_length_c                   6.94477(32)
_cell_angle_alpha                90
_cell_angle_beta                 90
_cell_angle_gamma                120
_cell_volume                     4033.86
loop_
_atom_site_label
_atom_site_type_symbol
_atom_site_fract_x
_atom_site_fract_y
_atom_site_fract_z
_atom_site_U_iso_or_equiv
_atom_site_thermal_displace_type
Fe1 Fe 0.3865(4) 0.3531(4) 0.1571(12) 0.0154 Uiso
O1 O 0.3174(5) 0.2935(6) 0.3556(20) 0.0034 Uiso
O2 O 0.3046(6) 0.2337(6) 0.5911(19) 0.0017 Uiso
O3 O 0.3561(6) 0.2773(6) 0.0017(20) 0.0075 Uiso
C1 C 0.3218(6) 0.2466(6) 0.4165(22) 0.0249 Uiso
C2 C 0.3257(6) 0.2042(5) 0.2821(16) 0.0016 Uiso
C3 C 0.3388(6) 0.2229(5) 0.0901(16) 0.0064 Uiso
C4 C 0.3165(5) 0.1521(6) 0.3495(17) 0.0032 Uiso
H1 H 0.2989(11) 0.1450(10) 0.510(4) 0.0360 Uiso
Fe3 Fe 0.3136(4) 0.3667(6) 0.4904(12) 0.0154 Uiso
Fe4 Fe 0.2999(6) 0.2802(4) 0.8238(12) 0.0154 Uiso
Fe8 Fe 0.3667(6) 0.0532(4) 0.5096(12) 0.0154 Uiso
O5 O 0.3094(8) 0.3493(5) 0.0223(20) 0.0034 Uiso
O10 O 0.3106(6) 0.0560(6) 0.3316(20) 0.0075 Uiso
O11 O 0.3894(6) 0.4121(8) 0.3350(20) 0.0075 Uiso
C6 C 0.3410(6) 0.1291(5) 0.0512(16) 0.0016 Uiso
C7 C 0.3279(6) 0.1104(5) 0.2432(16) 0.0064 Uiso
O4 O 0.3493(5) 0.0398(6) 0.9777(20) 0.0034 Uiso
O7 O 0.3621(6) 0.0996(6) 0.7422(19) 0.0017 Uiso
O8 O 0.4330(6) 0.4042(8) 0.9244(19) 0.0017 Uiso
C5 C 0.3449(6) 0.0867(6) 0.9168(22) 0.0249 Uiso
C8 C 0.3502(5) 0.1812(6) 0.9838(17) 0.0032 Uiso
H2 H 0.3678(11) 0.1883(10) 0.823(4) 0.0360 Uiso
Fe2 Fe 0.2802(4) 0.9802(4) 0.1762(12) 0.0154 Uiso
O6 O 0.3572(8) 0.9841(5) 0.3111(20) 0.0034 Uiso
O9 O 0.2337(6) 0.9291(8) 0.4089(19) 0.0017 Uiso
Fe6 Fe 0.3531(4) 0.9666(6) 0.8429(12) 0.0154 Uiso
O12 O 0.2773(6) 0.9212(8) 0.9983(20) 0.0075 Uiso
Fe2_2 Fe 0.0198(4) 0.2999(6) 0.1762(12) 0.0154 Uiso
O6_2 O 0.0159(5) 0.3732(9) 0.3111(20) 0.0034 Uiso
O9_2 O 0.0709(8) 0.3046(10) 0.4089(19) 0.0017 Uiso
Fe6_2 Fe 0.0334(6) 0.3865(7) 0.8429(12) 0.0154 Uiso
O12_2 O 0.0788(8) 0.3561(10) 0.9983(20) 0.0075 Uiso
Fe1_2 Fe 0.6469(4) 0.0334(6) 0.1571(12) 0.0154 Uiso
O1_2 O 0.7065(6) 0.0239(8) 0.3556(20) 0.0034 Uiso
O2_2 O 0.7663(6) 0.0709(8) 0.5911(19) 0.0017 Uiso
O3_2 O 0.7227(6) 0.0788(8) 0.0017(20) 0.0075 Uiso
C1_2 C 0.7534(6) 0.0752(8) 0.4165(22) 0.0249 Uiso
C2_2 C 0.7958(5) 0.1215(8) 0.2821(16) 0.0016 Uiso
C3_2 C 0.7771(5) 0.1159(8) 0.0901(16) 0.0064 Uiso
C4_2 C 0.8479(6) 0.1644(8) 0.3495(17) 0.0032 Uiso
H1_2 H 0.8550(10) 0.1539(15) 0.510(4) 0.0360 Uiso
Fe4_2 Fe 0.7198(4) 0.0198(7) 0.8238(12) 0.0154 Uiso
Fe8_2 Fe 0.9468(4) 0.3136(7) 0.5096(12) 0.0154 Uiso
O10_2 O 0.9440(6) 0.2545(8) 0.3316(20) 0.0075 Uiso
C6_2 C 0.8709(5) 0.2118(8) 0.0512(16) 0.0016 Uiso
C7_2 C 0.8896(5) 0.2174(8) 0.2432(16) 0.0064 Uiso
O4_2 O 0.9602(6) 0.3094(8) 0.9777(20) 0.0034 Uiso
O7_2 O 0.9004(6) 0.2624(8) 0.7422(19) 0.0017 Uiso
O8_2 O 0.5958(8) 0.0287(10) 0.9244(19) 0.0017 Uiso
C5_2 C 0.9133(6) 0.2581(8) 0.9168(22) 0.0249 Uiso
C8_2 C 0.8188(6) 0.1689(8) 0.9838(17) 0.0032 Uiso
H2_2 H 0.8117(10) 0.1794(15) 0.823(4) 0.0360 Uiso
Fe3_2 Fe 0.6333(6) 0.9468(7) 0.4904(12) 0.0154 Uiso
O5_2 O 0.6507(5) 0.9602(9) 0.0223(20) 0.0034 Uiso
O11_2 O 0.5879(8) 0.9772(10) 0.3350(20) 0.0075 Uiso
Fe3_3 Fe 0.0532(7) 0.6864(4) 0.4904(12) 0.0154 Uiso
O5_3 O 0.0398(9) 0.6906(8) 0.0223(20) 0.0034 Uiso
O11_3 O 0.0228(10) 0.6106(6) 0.3350(20) 0.0075 Uiso
Fe1_3 Fe 0.9666(6) 0.6135(4) 0.1571(12) 0.0154 Uiso
O1_3 O 0.9761(8) 0.6826(5) 0.3556(20) 0.0034 Uiso
O2_3 O 0.9291(8) 0.6954(6) 0.5911(19) 0.0017 Uiso
O3_3 O 0.9212(8) 0.6439(6) 0.0017(20) 0.0075 Uiso
C1_3 C 0.9248(8) 0.6782(6) 0.4165(22) 0.0249 Uiso
C2_3 C 0.8785(8) 0.6743(6) 0.2821(16) 0.0016 Uiso
C3_3 C 0.8841(8) 0.6612(6) 0.0901(16) 0.0064 Uiso
C4_3 C 0.8356(8) 0.6835(5) 0.3495(17) 0.0032 Uiso
H1_3 H 0.8461(15) 0.7011(11) 0.510(4) 0.0360 Uiso
Fe2_3 Fe 0.7001(6) 0.7198(4) 0.1762(12) 0.0154 Uiso
Fe4_3 Fe 0.9802(7) 0.7001(6) 0.8238(12) 0.0154 Uiso
Fe8_3 Fe 0.6864(7) 0.6333(6) 0.5096(12) 0.0154 Uiso
O6_3 O 0.6268(9) 0.6428(8) 0.3111(20) 0.0034 Uiso
O9_3 O 0.6954(10) 0.7663(6) 0.4089(19) 0.0017 Uiso
O10_3 O 0.7455(8) 0.6894(6) 0.3316(20) 0.0075 Uiso
C6_3 C 0.7882(8) 0.6590(6) 0.0512(16) 0.0016 Uiso
C7_3 C 0.7826(8) 0.6721(6) 0.2432(16) 0.0064 Uiso
Fe6_3 Fe 0.6135(7) 0.6469(4) 0.8429(12) 0.0154 Uiso
O4_3 O 0.6906(8) 0.6507(5) 0.9777(20) 0.0034 Uiso
O7_3 O 0.7376(8) 0.6379(6) 0.7422(19) 0.0017 Uiso
O8_3 O 0.9713(10) 0.5670(6) 0.9244(19) 0.0017 Uiso
O12_3 O 0.6439(10) 0.7227(6) 0.9983(20) 0.0075 Uiso
C5_3 C 0.7419(8) 0.6551(6) 0.9168(22) 0.0249 Uiso
C8_3 C 0.8311(8) 0.6498(5) 0.9838(17) 0.0032 Uiso
H2_3 H 0.8206(15) 0.6322(11) 0.823(4) 0.0360 Uiso
O5_4 O 0.6428(8) 0.0159(5) 0.6889(20) 0.0034 Uiso
O2_4 O 0.6379(6) 0.9004(6) 0.2578(19) 0.0017 Uiso
C1_4 C 0.6551(6) 0.9133(6) 0.0832(22) 0.0249 Uiso
C4_4 C 0.6498(5) 0.8188(6) 0.0162(17) 0.0032 Uiso
H1_4 H 0.6322(11) 0.8117(10) 0.177(4) 0.0360 Uiso
O9_4 O 0.5670(6) 0.5958(8) 0.0756(19) 0.0017 Uiso
O3_4 O 0.6894(6) 0.9440(6) 0.6684(20) 0.0075 Uiso
C2_4 C 0.6590(6) 0.8709(5) 0.9488(16) 0.0016 Uiso
C3_4 C 0.6721(6) 0.8896(5) 0.7568(16) 0.0064 Uiso
O4_4 O 0.6826(5) 0.7065(6) 0.6444(20) 0.0034 Uiso
O12_4 O 0.6106(6) 0.5879(8) 0.6650(20) 0.0075 Uiso
C5_4 C 0.6782(6) 0.7534(6) 0.5835(22) 0.0249 Uiso
C6_4 C 0.6743(6) 0.7958(5) 0.7179(16) 0.0016 Uiso
C7_4 C 0.6612(6) 0.7771(5) 0.9099(16) 0.0064 Uiso
C8_4 C 0.6835(5) 0.8479(6) 0.6505(17) 0.0032 Uiso
H2_4 H 0.7011(11) 0.8550(10) 0.490(4) 0.0360 Uiso
O12_5 O 0.4121(8) 0.0228(10) 0.6650(20) 0.0075 Uiso
O2_5 O 0.0996(6) 0.7376(8) 0.2578(19) 0.0017 Uiso
C1_5 C 0.0867(6) 0.7419(8) 0.0832(22) 0.0249 Uiso
C4_5 C 0.1812(6) 0.8311(8) 0.0162(17) 0.0032 Uiso
H1_5 H 0.1883(10) 0.8206(15) 0.177(4) 0.0360 Uiso
O9_5 O 0.4042(8) 0.9713(10) 0.0756(19) 0.0017 Uiso
O3_5 O 0.0560(6) 0.7455(8) 0.6684(20) 0.0075 Uiso
C2_5 C 0.1291(5) 0.7882(8) 0.9488(16) 0.0016 Uiso
C3_5 C 0.1104(5) 0.7826(8) 0.7568(16) 0.0064 Uiso
O4_5 O 0.2935(6) 0.9761(8) 0.6444(20) 0.0034 Uiso
C5_5 C 0.2466(6) 0.9248(8) 0.5835(22) 0.0249 Uiso
C6_5 C 0.2042(5) 0.8785(8) 0.7179(16) 0.0016 Uiso
C7_5 C 0.2229(5) 0.8841(8) 0.9099(16) 0.0064 Uiso
C8_5 C 0.1521(6) 0.8356(8) 0.6505(17) 0.0032 Uiso
H2_5 H 0.1450(10) 0.8461(15) 0.490(4) 0.0360 Uiso
O5_5 O 0.9841(5) 0.6268(9) 0.6889(20) 0.0034 Uiso
O2_6 O 0.2624(8) 0.3621(6) 0.2578(19) 0.0017 Uiso
C1_6 C 0.2581(8) 0.3449(6) 0.0832(22) 0.0249 Uiso
C4_6 C 0.1689(8) 0.3502(5) 0.0162(17) 0.0032 Uiso
H1_6 H 0.1794(15) 0.3678(11) 0.177(4) 0.0360 Uiso
O9_6 O 0.0287(10) 0.4330(6) 0.0756(19) 0.0017 Uiso
O3_6 O 0.2545(8) 0.3106(6) 0.6684(20) 0.0075 Uiso
C2_6 C 0.2118(8) 0.3410(6) 0.9488(16) 0.0016 Uiso
C3_6 C 0.2174(8) 0.3279(6) 0.7568(16) 0.0064 Uiso
O4_6 O 0.0239(8) 0.3174(5) 0.6444(20) 0.0034 Uiso
O5_6 O 0.3732(9) 0.3572(8) 0.6889(20) 0.0034 Uiso
C5_6 C 0.0752(8) 0.3218(6) 0.5835(22) 0.0249 Uiso
C6_6 C 0.1215(8) 0.3257(6) 0.7179(16) 0.0016 Uiso
C7_6 C 0.1159(8) 0.3388(6) 0.9099(16) 0.0064 Uiso
C8_6 C 0.1644(8) 0.3165(5) 0.6505(17) 0.0032 Uiso
H2_6 H 0.1539(15) 0.2989(11) 0.490(4) 0.0360 Uiso
O12_6 O 0.9772(10) 0.3894(6) 0.6650(20) 0.0075 Uiso
C3_7 C 0.0055(6) 0.5562(5) 0.4234(16) 0.0064 Uiso
C5_7 C 0.0115(6) 0.4201(6) 0.2502(22) 0.0249 Uiso
C6_7 C 0.0076(6) 0.4625(5) 0.3846(16) 0.0016 Uiso
C8_7 C 0.0168(5) 0.5146(6) 0.3172(17) 0.0032 Uiso
H2_7 H 0.0344(11) 0.5217(10) 0.157(4) 0.0360 Uiso
C1_7 C 0.9885(6) 0.5799(6) 0.7498(22) 0.0249 Uiso
C2_7 C 0.9924(6) 0.5375(5) 0.6154(16) 0.0016 Uiso
C4_7 C 0.9832(5) 0.4854(6) 0.6828(17) 0.0032 Uiso
H1_7 H 0.9656(11) 0.4783(10) 0.843(4) 0.0360 Uiso
C7_7 C 0.9945(6) 0.4438(5) 0.5766(16) 0.0064 Uiso
C1_8 C 0.4201(6) 0.4085(8) 0.7498(22) 0.0249 Uiso
C2_8 C 0.4625(5) 0.4548(8) 0.6154(16) 0.0016 Uiso
C3_8 C 0.4438(5) 0.4492(8) 0.4234(16) 0.0064 Uiso
C4_8 C 0.5146(6) 0.4977(8) 0.6828(17) 0.0032 Uiso
H1_8 H 0.5217(10) 0.4872(15) 0.843(4) 0.0360 Uiso
C5_8 C 0.5799(6) 0.5915(8) 0.2502(22) 0.0249 Uiso
C6_8 C 0.5375(5) 0.5452(8) 0.3846(16) 0.0016 Uiso
C7_8 C 0.5562(5) 0.5508(8) 0.5766(16) 0.0064 Uiso
C8_8 C 0.4854(6) 0.5023(8) 0.3172(17) 0.0032 Uiso
H2_8 H 0.4783(10) 0.5128(15) 0.157(4) 0.0360 Uiso
C1_9 C 0.5915(8) 0.0115(6) 0.7498(22) 0.0249 Uiso
C2_9 C 0.5452(8) 0.0076(6) 0.6154(16) 0.0016 Uiso
C4_9 C 0.5023(8) 0.0168(5) 0.6828(17) 0.0032 Uiso
H1_9 H 0.5128(15) 0.0344(11) 0.843(4) 0.0360 Uiso
C7_9 C 0.4492(8) 0.0055(6) 0.5766(16) 0.0064 Uiso
C3_9 C 0.5508(8) 0.9945(6) 0.4234(16) 0.0064 Uiso
C5_9 C 0.4085(8) 0.9885(6) 0.2502(22) 0.0249 Uiso
C6_9 C 0.4548(8) 0.9924(6) 0.3846(16) 0.0016 Uiso
C8_9 C 0.4977(8) 0.9832(5) 0.3172(17) 0.0032 Uiso
H2_9 H 0.4872(15) 0.9656(11) 0.157(4) 0.0360 Uiso
loop_
_geom_bond_atom_site_label_1
_geom_bond_atom_site_label_2
_geom_bond_site_symmetry_1
_geom_bond_site_symmetry_2
Fe1 O1 1_555 1_555
O1 C1 1_555 1_555
O2 C1 1_555 1_555
O3 Fe1 1_555 1_555
C1 C2 1_555 1_555
C2 C3 1_555 1_555
C3 O3 1_555 1_555
C4 C2 1_555 1_555
H1 C4 1_555 1_555
Fe3 O1 1_555 1_555
Fe4 O2 1_555 1_555
O5 Fe1 1_555 1_555
O11 Fe1 1_555 1_555
C6 C7 1_555 1_555
C7 C4 1_555 1_555
Fe3 O11 1_555 1_555
Fe8 O10 1_555 1_555
O10 C7 1_555 1_555
Fe8 O7 1_555 1_555
O4 C5 1_555 1_555
O7 C5 1_555 1_555
H2 C8 1_555 1_555
O6 Fe2 1_555 1_555
O9 Fe2 1_555 1_555
Fe6 O12 1_555 1_555
O6_2 Fe2_2 1_555 1_555
O9_2 Fe2_2 1_555 1_555
Fe6_2 O12_2 1_555 1_555
Fe1_2 O1_2 1_555 1_555
O1_2 C1_2 1_555 1_555
O2_2 C1_2 1_555 1_555
O3_2 Fe1_2 1_555 1_555
C1_2 C2_2 1_555 1_555
C2_2 C3_2 1_555 1_555
C3_2 O3_2 1_555 1_555
C4_2 C2_2 1_555 1_555
H1_2 C4_2 1_555 1_555
Fe4_2 O2_2 1_555 1_555
C6_2 C7_2 1_555 1_555
C7_2 C4_2 1_555 1_555
Fe8_2 O10_2 1_555 1_555
O10_2 C7_2 1_555 1_555
Fe8_2 O7_2 1_555 1_555
O4_2 C5_2 1_555 1_555
O7_2 C5_2 1_555 1_555
H2_2 C8_2 1_555 1_555
Fe3_2 O11_2 1_555 1_555
Fe3_3 O11_3 1_555 1_555
Fe1_3 O1_3 1_555 1_555
O1_3 C1_3 1_555 1_555
O2_3 C1_3 1_555 1_555
O3_3 Fe1_3 1_555 1_555
C1_3 C2_3 1_555 1_555
C2_3 C3_3 1_555 1_555
C3_3 O3_3 1_555 1_555
C4_3 C2_3 1_555 1_555
H1_3 C4_3 1_555 1_555
Fe4_3 O2_3 1_555 1_555
Fe8_3 O6_3 1_555 1_555
O6_3 Fe2_3 1_555 1_555
O9_3 Fe2_3 1_555 1_555
O10_3 Fe2_3 1_555 1_555
C6_3 C7_3 1_555 1_555
C7_3 C4_3 1_555 1_555
Fe8_3 O10_3 1_555 1_555
O10_3 C7_3 1_555 1_555
Fe6_3 O4_3 1_555 1_555
Fe8_3 O7_3 1_555 1_555
O4_3 C5_3 1_555 1_555
O7_3 C5_3 1_555 1_555
H2_3 C8_3 1_555 1_555
Fe6_3 O12_3 1_555 1_555
O5_4 Fe4_2 1_555 1_555
O5_2 C1_4 1_555 1_555
O2_4 C1_4 1_555 1_555
H1_4 C4_4 1_555 1_555
Fe3_2 O2_4 1_555 1_555
C2_4 C3_4 1_555 1_555
C3_4 O3_4 1_555 1_555
Fe6_3 O4_4 1_555 1_555
Fe3_2 O3_4 1_555 1_555
Fe8_3 O4_4 1_555 1_555
O4_4 C5_4 1_555 1_555
O9_3 C5_4 1_555 1_555
O12_4 Fe6_3 1_555 1_555
C5_4 C6_4 1_555 1_555
C6_4 C7_4 1_555 1_555
C8_4 C3_4 1_555 1_555
H2_4 C8_4 1_555 1_555
Fe8_3 O12_4 1_555 1_555
O12_3 C7_4 1_555 1_555
C6_4 C8_4 1_555 1_555
Fe8 O12_5 1_555 1_555
O5_3 C1_5 1_555 1_555
O2_5 C1_5 1_555 1_555
H1_5 C4_5 1_555 1_555
Fe3_3 O2_5 1_555 1_555
C2_5 C3_5 1_555 1_555
C3_5 O3_5 1_555 1_555
Fe6 O4_5 1_555 1_555
Fe3_3 O3_5 1_555 1_555
O4_5 C5_5 1_555 1_555
O9 C5_5 1_555 1_555
C5_5 C6_5 1_555 1_555
C6_5 C7_5 1_555 1_555
C8_5 C3_5 1_555 1_555
H2_5 C8_5 1_555 1_555
O12 C7_5 1_555 1_555
C6_5 C8_5 1_555 1_555
O5_5 Fe4_3 1_555 1_555
O5 C1_6 1_555 1_555
O2_6 C1_6 1_555 1_555
H1_6 C4_6 1_555 1_555
Fe3 O2_6 1_555 1_555
O3_6 Fe4 1_555 1_555
C2_6 C3_6 1_555 1_555
C3_6 O3_6 1_555 1_555
Fe6_2 O4_6 1_555 1_555
Fe3 O3_6 1_555 1_555
O4_6 C5_6 1_555 1_555
O5_6 Fe4 1_555 1_555
O9_2 C5_6 1_555 1_555
C5_6 C6_6 1_555 1_555
C6_6 C7_6 1_555 1_555
C8_6 C3_6 1_555 1_555
H2_6 C8_6 1_555 1_555
Fe3 O5_6 1_555 1_555
O12_2 C7_6 1_555 1_555
C6_6 C8_6 1_555 1_555
Fe8_2 O12_6 1_555 1_555
C3_7 O11_3 1_555 1_555
O6_2 C5_7 1_555 1_555
O9_6 C5_7 1_555 1_555
C5_7 C6_7 1_555 1_555
C8_7 C3_7 1_555 1_555
H2_7 C8_7 1_555 1_555
C6_7 C8_7 1_555 1_555
O5_5 C1_7 1_555 1_555
O8_3 C1_7 1_555 1_555
C1_7 C2_7 1_555 1_555
C4_7 C2_7 1_555 1_555
H1_7 C4_7 1_555 1_555
C7_7 C4_7 1_555 1_555
O12_6 C7_7 1_555 1_555
O5_6 C1_8 1_555 1_555
O8 C1_8 1_555 1_555
C1_8 C2_8 1_555 1_555
C2_8 C3_8 1_555 1_555
C3_8 O11 1_555 1_555
C4_8 C2_8 1_555 1_555
H1_8 C4_8 1_555 1_555
O6_3 C5_8 1_555 1_555
O9_4 C5_8 1_555 1_555
C5_8 C6_8 1_555 1_555
C6_8 C7_8 1_555 1_555
C7_8 C4_8 1_555 1_555
C8_8 C3_8 1_555 1_555
H2_8 C8_8 1_555 1_555
O12_4 C7_8 1_555 1_555
C6_8 C8_8 1_555 1_555
O5_4 C1_9 1_555 1_555
O8_2 C1_9 1_555 1_555
C1_9 C2_9 1_555 1_555
C4_9 C2_9 1_555 1_555
H1_9 C4_9 1_555 1_555
C7_9 C4_9 1_555 1_555
O12_5 C7_9 1_555 1_555
C3_9 O11_2 1_555 1_555
O6 C5_9 1_555 1_555
O9_5 C5_9 1_555 1_555
C5_9 C6_9 1_555 1_555
C8_9 C3_9 1_555 1_555
H2_9 C8_9 1_555 1_555
C6_9 C8_9 1_555 1_555

#END
