
###############################################################################
#
# This file contains modified crystal structure data generated from the
# MOF subset of the Cambridge Structural Database (CSD) v543 
# hosted by the Cambridge Crystallographic Data Centre (CCDC).
#
# This work is licensed under the Creative Commons
# Attribution-NonCommercial-ShareAlike 4.0 International License.
# To view a copy of this license, visit
# http://creativecommons.org/licenses/by-nc-sa/4.0/
# or send a letter to
# Creative Commons, PO Box 1866, Mountain View, CA 94042, USA.
#
# CIF created using the CSD Python API on 29 September 2022
# The structure has been converted into the P1 space group
# The structure has a 3D framework
# The original CSD entry SARSUC is in the monoclinic crystal system
# The framework has been calculated to contain at least 10.0% void space
# The void calculation uses a probe of radius 1.32A, grid spacing 0.4
#
###############################################################################

data_SARSUC
_chemical_formula_moiety         '(C60 H48 N4 Ni4 O16)n'
_symmetry_cell_setting           triclinic
_symmetry_space_group_name_H-M   'P 1'
_symmetry_Int_Tables_number      1
_space_group_name_Hall           'P 1'
loop_
_symmetry_equiv_pos_site_id
_symmetry_equiv_pos_as_xyz
1 x,y,z
_cell_length_a                   18.5574
_cell_length_b                   18.7060
_cell_length_c                   9.4156
_cell_angle_alpha                90
_cell_angle_beta                 94.4338
_cell_angle_gamma                90
_cell_volume                     3258.7
loop_
_atom_site_label
_atom_site_type_symbol
_atom_site_fract_x
_atom_site_fract_y
_atom_site_fract_z
_atom_site_U_iso_or_equiv
_atom_site_thermal_displace_type
O1 O 0.31744 0.18279 0.38489 0.0500 Uiso
O2 O 0.18171 0.18220 0.60221 0.0500 Uiso
O3 O 0.18130 0.18210 0.36455 0.0500 Uiso
O4 O 0.31944 0.18129 0.62318 0.0500 Uiso
C1 C 0.15652 0.15709 0.48013 0.0500 Uiso
C2 C 0.10235 0.09432 0.47031 0.0500 Uiso
C3 C 0.05215 0.08051 0.57470 0.0500 Uiso
H1 H 0.05278 0.11458 0.66774 0.0500 Uiso
C4 C 0.43752 0.08682 0.65765 0.0500 Uiso
H2 H 0.42230 0.11683 0.74887 0.0500 Uiso
C6 C 0.00097 0.02270 0.56003 0.0500 Uiso
H4 H 0.35219 0.29731 0.13359 0.0500 Uiso
C7 C 0.34335 0.15689 0.50557 0.0500 Uiso
C8 C 0.40239 0.10008 0.52103 0.0500 Uiso
C9 C 0.42668 0.05849 0.40719 0.0500 Uiso
H6 H 0.40162 0.06658 0.30063 0.0500 Uiso
C10 C 0.09891 0.04781 0.35166 0.0500 Uiso
H7 H 0.13557 0.05540 0.26894 0.0500 Uiso
C11 C 0.49298 0.03537 0.68117 0.0500 Uiso
H8 H 0.51743 0.02800 0.78842 0.0500 Uiso
C12 C 0.48323 0.00594 0.43088 0.0500 Uiso
C13 C 0.21042 0.18654 0.07538 0.0500 Uiso
H9 H 0.23650 0.13668 0.11840 0.0500 Uiso
H10 H 0.15335 0.18424 0.10347 0.0500 Uiso
Ni1 Ni 0.25021 0.25000 0.62109 0.0500 Uiso
Ni2 Ni 0.24989 0.25000 0.36706 0.0500 Uiso
N2 N 0.24705 0.25000 0.14549 0.0500 Uiso
C15 C 0.32133 0.25000 0.09162 0.0500 Uiso
H19 H 0.35219 0.20269 0.13359 0.0500 Uiso
C29 C 0.21042 0.31346 0.07538 0.0500 Uiso
H20 H 0.23650 0.36332 0.11840 0.0500 Uiso
H21 H 0.15335 0.31576 0.10347 0.0500 Uiso
O9 O 0.31744 0.31721 0.38489 0.0500 Uiso
O10 O 0.18171 0.31780 0.60221 0.0500 Uiso
O11 O 0.18130 0.31790 0.36455 0.0500 Uiso
O12 O 0.31944 0.31871 0.62318 0.0500 Uiso
N3 N 0.24788 0.25000 0.84497 0.0500 Uiso
H5 H 0.35243 0.20257 0.88723 0.0500 Uiso
C14 C 0.21078 0.18660 0.90455 0.0500 Uiso
H11 H 0.15359 0.18469 0.85983 0.0500 Uiso
H12 H 0.23651 0.13651 0.86968 0.0500 Uiso
C16 C 0.32177 0.25000 0.92049 0.0500 Uiso
H22 H 0.35243 0.29743 0.88723 0.0500 Uiso
C30 C 0.21078 0.31340 0.90455 0.0500 Uiso
H23 H 0.15359 0.31531 0.85983 0.0500 Uiso
H24 H 0.23651 0.36349 0.86968 0.0500 Uiso
O5 O 0.68256 0.81721 0.61511 0.0500 Uiso
O6 O 0.68056 0.81871 0.37682 0.0500 Uiso
C17 C 0.56248 0.91318 0.34235 0.0500 Uiso
H13 H 0.57770 0.88317 0.25113 0.0500 Uiso
C18 C 0.65665 0.84311 0.49443 0.0500 Uiso
C19 C 0.59761 0.89992 0.47897 0.0500 Uiso
C20 C 0.57332 0.94151 0.59281 0.0500 Uiso
H14 H 0.59838 0.93342 0.69937 0.0500 Uiso
C21 C 0.50702 0.96463 0.31883 0.0500 Uiso
H15 H 0.48257 0.97200 0.21158 0.0500 Uiso
C22 C 0.51677 0.99406 0.56912 0.0500 Uiso
C26 C 0.04857 0.99081 0.33676 0.0500 Uiso
H17 H 0.04853 0.95699 0.24335 0.0500 Uiso
Ni5 Ni 0.74979 0.75000 0.37891 0.0500 Uiso
Ni7 Ni 0.75011 0.75000 0.63294 0.0500 Uiso
C5 C 0.95143 0.00919 0.66324 0.0500 Uiso
H3 H 0.95147 0.04301 0.75665 0.0500 Uiso
O7 O 0.81829 0.81780 0.39779 0.0500 Uiso
O8 O 0.81870 0.81790 0.63545 0.0500 Uiso
C23 C 0.84348 0.84291 0.51987 0.0500 Uiso
C24 C 0.89765 0.90568 0.52969 0.0500 Uiso
C25 C 0.94785 0.91949 0.42530 0.0500 Uiso
H16 H 0.94722 0.88542 0.33226 0.0500 Uiso
C27 C 0.99903 0.97730 0.43997 0.0500 Uiso
C28 C 0.90109 0.95219 0.64834 0.0500 Uiso
H18 H 0.86443 0.94460 0.73106 0.0500 Uiso
C5_2 C 0.04857 0.50919 0.33676 0.0500 Uiso
H3_2 H 0.04853 0.54301 0.24335 0.0500 Uiso
C23_2 C 0.15652 0.34291 0.48013 0.0500 Uiso
C24_2 C 0.10235 0.40568 0.47031 0.0500 Uiso
C25_2 C 0.05215 0.41949 0.57470 0.0500 Uiso
H16_2 H 0.05278 0.38542 0.66774 0.0500 Uiso
C27_2 C 0.00097 0.47730 0.56003 0.0500 Uiso
C28_2 C 0.09891 0.45219 0.35166 0.0500 Uiso
H18_2 H 0.13557 0.44460 0.26894 0.0500 Uiso
H5_2 H 0.64757 0.70257 0.11277 0.0500 Uiso
C14_2 C 0.78922 0.68660 0.09545 0.0500 Uiso
H11_2 H 0.84641 0.68469 0.14017 0.0500 Uiso
H12_2 H 0.76349 0.63651 0.13032 0.0500 Uiso
N1 N 0.75212 0.75000 0.15503 0.0500 Uiso
C16_2 C 0.67823 0.75000 0.07951 0.0500 Uiso
H22_2 H 0.64757 0.79743 0.11277 0.0500 Uiso
C30_2 C 0.78922 0.81340 0.09545 0.0500 Uiso
H23_2 H 0.84641 0.81531 0.14017 0.0500 Uiso
H24_2 H 0.76349 0.86349 0.13032 0.0500 Uiso
O1_2 O 0.68256 0.68279 0.61511 0.0500 Uiso
O2_2 O 0.81829 0.68220 0.39779 0.0500 Uiso
O3_2 O 0.81870 0.68210 0.63545 0.0500 Uiso
O4_2 O 0.68056 0.68129 0.37682 0.0500 Uiso
C1_2 C 0.84348 0.65709 0.51987 0.0500 Uiso
C2_2 C 0.89765 0.59432 0.52969 0.0500 Uiso
C3_2 C 0.94785 0.58051 0.42530 0.0500 Uiso
H1_2 H 0.94722 0.61458 0.33226 0.0500 Uiso
C4_2 C 0.56248 0.58682 0.34235 0.0500 Uiso
H2_2 H 0.57770 0.61683 0.25113 0.0500 Uiso
C6_2 C 0.99903 0.52270 0.43997 0.0500 Uiso
H4_2 H 0.64781 0.79731 0.86641 0.0500 Uiso
C7_2 C 0.65665 0.65689 0.49443 0.0500 Uiso
C8_2 C 0.59761 0.60008 0.47897 0.0500 Uiso
C9_2 C 0.57332 0.55849 0.59281 0.0500 Uiso
H6_2 H 0.59838 0.56658 0.69937 0.0500 Uiso
C10_2 C 0.90109 0.54781 0.64834 0.0500 Uiso
H7_2 H 0.86443 0.55540 0.73106 0.0500 Uiso
C11_2 C 0.50702 0.53537 0.31883 0.0500 Uiso
H8_2 H 0.48257 0.52800 0.21158 0.0500 Uiso
C12_2 C 0.51677 0.50594 0.56912 0.0500 Uiso
C13_2 C 0.78958 0.68654 0.92462 0.0500 Uiso
H9_2 H 0.76350 0.63668 0.88160 0.0500 Uiso
H10_2 H 0.84665 0.68424 0.89653 0.0500 Uiso
N2_2 N 0.75295 0.75000 0.85451 0.0500 Uiso
C15_2 C 0.67867 0.75000 0.90838 0.0500 Uiso
C17_2 C 0.43752 0.41318 0.65765 0.0500 Uiso
H13_2 H 0.42230 0.38317 0.74887 0.0500 Uiso
C18_2 C 0.34335 0.34311 0.50557 0.0500 Uiso
C19_2 C 0.40239 0.39992 0.52103 0.0500 Uiso
C20_2 C 0.42668 0.44151 0.40719 0.0500 Uiso
H14_2 H 0.40162 0.43342 0.30063 0.0500 Uiso
C21_2 C 0.49298 0.46463 0.68117 0.0500 Uiso
H15_2 H 0.51743 0.47200 0.78842 0.0500 Uiso
C22_2 C 0.48323 0.49406 0.43088 0.0500 Uiso
C26_2 C 0.95143 0.49081 0.66324 0.0500 Uiso
H17_2 H 0.95147 0.45699 0.75665 0.0500 Uiso
H19_2 H 0.64781 0.70269 0.86641 0.0500 Uiso
C29_2 C 0.78958 0.81346 0.92462 0.0500 Uiso
H20_2 H 0.76350 0.86332 0.88160 0.0500 Uiso
H21_2 H 0.84665 0.81576 0.89653 0.0500 Uiso
loop_
_geom_bond_atom_site_label_1
_geom_bond_atom_site_label_2
_geom_bond_site_symmetry_1
_geom_bond_site_symmetry_2
O1 C7 1_555 1_555
O2 C1 1_555 1_555
O3 C1 1_555 1_555
O4 C7 1_555 1_555
C1 C2 1_555 1_555
C2 C3 1_555 1_555
C3 H1 1_555 1_555
C4 H2 1_555 1_555
C6 C3 1_555 1_555
H4 C15 1_555 1_555
C7 C8 1_555 1_555
C8 C4 1_555 1_555
C9 C8 1_555 1_555
H6 C9 1_555 1_555
C10 C2 1_555 1_555
H7 C10 1_555 1_555
C11 C4 1_555 1_555
H8 C11 1_555 1_555
C12 C9 1_555 1_555
C13 H9 1_555 1_555
H10 C13 1_555 1_555
Ni1 O2 1_555 1_555
Ni2 O1 1_555 1_555
N2 C13 1_555 1_555
C15 N2 1_555 1_555
H19 C15 1_555 1_555
C29 N2 1_555 1_555
H20 C29 1_555 1_555
H21 C29 1_555 1_555
O9 Ni2 1_555 1_555
O10 Ni1 1_555 1_555
O11 Ni2 1_555 1_555
O12 Ni1 1_555 1_555
N3 Ni1 1_555 1_555
O3 Ni2 1_555 1_555
O4 Ni1 1_555 1_555
Ni1 Ni2 1_555 1_555
Ni2 N2 1_555 1_555
H5 C16 1_555 1_555
H11 C14 1_555 1_555
H12 C14 1_555 1_555
N3 C14 1_555 1_555
C16 N3 1_555 1_555
H22 C16 1_555 1_555
C30 N3 1_555 1_555
H23 C30 1_555 1_555
H24 C30 1_555 1_555
O5 C18 1_555 1_555
O6 C18 1_555 1_555
C17 H13 1_555 1_555
C18 C19 1_555 1_555
C19 C17 1_555 1_555
C20 C19 1_555 1_555
H14 C20 1_555 1_555
H15 C21 1_555 1_555
H17 C26 1_555 1_555
Ni5 O6 1_555 1_555
Ni7 O5 1_555 1_555
C17 C21 1_555 1_555
C20 C22 1_555 1_555
Ni5 Ni7 1_555 1_555
C5 H3 1_555 1_555
O7 C23 1_555 1_555
O8 C23 1_555 1_555
C23 C24 1_555 1_555
C24 C25 1_555 1_555
C25 H16 1_555 1_555
H18 C28 1_555 1_555
Ni5 O7 1_555 1_555
Ni7 O8 1_555 1_555
C24 C28 1_555 1_555
C25 C27 1_555 1_555
C5_2 H3_2 1_555 1_555
O10 C23_2 1_555 1_555
O11 C23_2 1_555 1_555
C23_2 C24_2 1_555 1_555
C24_2 C25_2 1_555 1_555
C25_2 H16_2 1_555 1_555
C28_2 C5_2 1_555 1_555
H18_2 C28_2 1_555 1_555
C24_2 C28_2 1_555 1_555
C25_2 C27_2 1_555 1_555
H5_2 C16_2 1_555 1_555
H11_2 C14_2 1_555 1_555
H12_2 C14_2 1_555 1_555
N1 C14_2 1_555 1_555
C16_2 N1 1_555 1_555
H22_2 C16_2 1_555 1_555
C30_2 N1 1_555 1_555
H23_2 C30_2 1_555 1_555
H24_2 C30_2 1_555 1_555
Ni5 N1 1_555 1_555
O1_2 C7_2 1_555 1_555
O2_2 C1_2 1_555 1_555
O3_2 C1_2 1_555 1_555
O4_2 C7_2 1_555 1_555
C1_2 C2_2 1_555 1_555
C2_2 C3_2 1_555 1_555
C3_2 H1_2 1_555 1_555
C4_2 H2_2 1_555 1_555
C6_2 C3_2 1_555 1_555
H4_2 C15_2 1_555 1_555
C7_2 C8_2 1_555 1_555
C8_2 C4_2 1_555 1_555
C9_2 C8_2 1_555 1_555
H6_2 C9_2 1_555 1_555
C10_2 C2_2 1_555 1_555
H7_2 C10_2 1_555 1_555
C11_2 C4_2 1_555 1_555
H8_2 C11_2 1_555 1_555
C12_2 C9_2 1_555 1_555
C13_2 H9_2 1_555 1_555
H10_2 C13_2 1_555 1_555
Ni5 O2_2 1_555 1_555
Ni7 O1_2 1_555 1_555
N2_2 C13_2 1_555 1_555
C15_2 N2_2 1_555 1_555
O9 C18_2 1_555 1_555
O12 C18_2 1_555 1_555
C17_2 H13_2 1_555 1_555
C18_2 C19_2 1_555 1_555
C19_2 C17_2 1_555 1_555
C20_2 C19_2 1_555 1_555
H14_2 C20_2 1_555 1_555
C21_2 C12_2 1_555 1_555
H15_2 C21_2 1_555 1_555
C22_2 C11_2 1_555 1_555
C26_2 C10_2 1_555 1_555
H17_2 C26_2 1_555 1_555
H19_2 C15_2 1_555 1_555
C29_2 N2_2 1_555 1_555
H20_2 C29_2 1_555 1_555
H21_2 C29_2 1_555 1_555
O3_2 Ni7 1_555 1_555
O4_2 Ni5 1_555 1_555
C12_2 C22_2 1_555 1_555
Ni7 N2_2 1_555 1_555
C17_2 C21_2 1_555 1_555
C20_2 C22_2 1_555 1_555

#END
