
###############################################################################
#
# This file contains modified crystal structure data generated from the
# MOF subset of the Cambridge Structural Database (CSD) v543 
# hosted by the Cambridge Crystallographic Data Centre (CCDC).
#
# This work is licensed under the Creative Commons
# Attribution-NonCommercial-ShareAlike 4.0 International License.
# To view a copy of this license, visit
# http://creativecommons.org/licenses/by-nc-sa/4.0/
# or send a letter to
# Creative Commons, PO Box 1866, Mountain View, CA 94042, USA.
#
# CIF created using the CSD Python API on 29 September 2022
# The structure has been converted into the P1 space group
# The structure has a 3D framework
# The original CSD entry SARTAJ is in the monoclinic crystal system
# The framework has been calculated to contain at least 10.0% void space
# The void calculation uses a probe of radius 1.32A, grid spacing 0.4
#
###############################################################################

data_SARTAJ
_chemical_formula_moiety         '(C60 H48 N4 Ni4 O16)n'
_symmetry_cell_setting           triclinic
_symmetry_space_group_name_H-M   'P 1'
_symmetry_Int_Tables_number      1
_space_group_name_Hall           'P 1'
loop_
_symmetry_equiv_pos_site_id
_symmetry_equiv_pos_as_xyz
1 x,y,z
_cell_length_a                   18.4754
_cell_length_b                   18.6041
_cell_length_c                   9.4308
_cell_angle_alpha                90
_cell_angle_beta                 95.4474
_cell_angle_gamma                90
_cell_volume                     3226.9
loop_
_atom_site_label
_atom_site_type_symbol
_atom_site_fract_x
_atom_site_fract_y
_atom_site_fract_z
_atom_site_U_iso_or_equiv
_atom_site_thermal_displace_type
O1 O 0.31802 0.18194 0.38746 0.0500 Uiso
O2 O 0.18116 0.18240 0.60167 0.0500 Uiso
O3 O 0.18123 0.18286 0.36420 0.0500 Uiso
O4 O 0.31869 0.18311 0.62544 0.0500 Uiso
C1 C 0.15554 0.15821 0.47915 0.0500 Uiso
C2 C 0.09483 0.10148 0.46572 0.0500 Uiso
C3 C 0.07511 0.05885 0.58303 0.0500 Uiso
H1 H 0.10349 0.06675 0.68696 0.0500 Uiso
C4 C 0.45716 0.10234 0.64557 0.0500 Uiso
H2 H 0.45305 0.14115 0.72874 0.0500 Uiso
C6 C 0.01889 0.00578 0.56716 0.0500 Uiso
H4 H 0.35438 0.29731 0.13387 0.0500 Uiso
C7 C 0.34412 0.15818 0.50973 0.0500 Uiso
C8 C 0.40598 0.10281 0.52297 0.0500 Uiso
C9 C 0.41630 0.05017 0.41849 0.0500 Uiso
H6 H 0.37869 0.04828 0.32275 0.0500 Uiso
C10 C 0.05591 0.08844 0.33292 0.0500 Uiso
H7 H 0.06835 0.11892 0.23986 0.0500 Uiso
C11 C 0.51485 0.05272 0.66478 0.0500 Uiso
H8 H 0.55193 0.05540 0.76119 0.0500 Uiso
C13 C 0.21272 0.18654 0.07431 0.0500 Uiso
H9 H 0.23870 0.13668 0.11757 0.0500 Uiso
H10 H 0.15557 0.18424 0.10184 0.0500 Uiso
Ni1 Ni 0.24987 0.25000 0.62130 0.0500 Uiso
Ni2 Ni 0.24968 0.25000 0.36800 0.0500 Uiso
N2 N 0.24918 0.25000 0.14475 0.0500 Uiso
C15 C 0.32360 0.25000 0.09161 0.0500 Uiso
C22 C 0.52490 0.00053 0.56216 0.0500 Uiso
C26 C 0.00048 0.03623 0.31680 0.0500 Uiso
H19 H 0.35438 0.20269 0.13387 0.0500 Uiso
C29 C 0.21272 0.31346 0.07431 0.0500 Uiso
H20 H 0.23870 0.36332 0.11757 0.0500 Uiso
H21 H 0.15557 0.31576 0.10184 0.0500 Uiso
O9 O 0.31802 0.31806 0.38746 0.0500 Uiso
O10 O 0.18116 0.31760 0.60167 0.0500 Uiso
O11 O 0.18123 0.31714 0.36420 0.0500 Uiso
O12 O 0.31869 0.31689 0.62544 0.0500 Uiso
N3 N 0.25073 0.25000 0.84432 0.0500 Uiso
H5 H 0.35521 0.20257 0.88757 0.0500 Uiso
C14 C 0.21349 0.18660 0.90353 0.0500 Uiso
H11 H 0.15639 0.18469 0.85826 0.0500 Uiso
H12 H 0.23931 0.13651 0.86892 0.0500 Uiso
C16 C 0.32446 0.25000 0.92054 0.0500 Uiso
H22 H 0.35521 0.29743 0.88757 0.0500 Uiso
C30 C 0.21349 0.31340 0.90353 0.0500 Uiso
H23 H 0.15639 0.31531 0.85826 0.0500 Uiso
H24 H 0.23931 0.36349 0.86892 0.0500 Uiso
H3 H 0.02744 0.97129 0.78772 0.0500 Uiso
C12 C 0.47510 0.99947 0.43784 0.0500 Uiso
O5 O 0.68198 0.81806 0.61254 0.0500 Uiso
O6 O 0.68131 0.81689 0.37456 0.0500 Uiso
C17 C 0.54284 0.89766 0.35443 0.0500 Uiso
H13 H 0.54695 0.85885 0.27126 0.0500 Uiso
C18 C 0.65588 0.84182 0.49027 0.0500 Uiso
C19 C 0.59402 0.89719 0.47703 0.0500 Uiso
C20 C 0.58370 0.94983 0.58151 0.0500 Uiso
H14 H 0.62131 0.95172 0.67725 0.0500 Uiso
C21 C 0.48515 0.94728 0.33522 0.0500 Uiso
H15 H 0.44807 0.94460 0.23881 0.0500 Uiso
Ni5 Ni 0.75013 0.75000 0.37870 0.0500 Uiso
Ni7 Ni 0.75032 0.75000 0.63200 0.0500 Uiso
H17 H 0.97256 0.02871 0.21228 0.0500 Uiso
C5 C 0.99952 0.96377 0.68320 0.0500 Uiso
O7 O 0.81884 0.81760 0.39833 0.0500 Uiso
O8 O 0.81877 0.81714 0.63580 0.0500 Uiso
C23 C 0.84446 0.84179 0.52085 0.0500 Uiso
C24 C 0.90517 0.89852 0.53428 0.0500 Uiso
C25 C 0.92489 0.94115 0.41697 0.0500 Uiso
H16 H 0.89651 0.93325 0.31304 0.0500 Uiso
C27 C 0.98111 0.99422 0.43284 0.0500 Uiso
C28 C 0.94409 0.91156 0.66708 0.0500 Uiso
H18 H 0.93165 0.88108 0.76014 0.0500 Uiso
C5_2 C 0.00048 0.46377 0.31680 0.0500 Uiso
C23_2 C 0.15554 0.34179 0.47915 0.0500 Uiso
C24_2 C 0.09483 0.39852 0.46572 0.0500 Uiso
C25_2 C 0.07511 0.44115 0.58303 0.0500 Uiso
H16_2 H 0.10349 0.43325 0.68696 0.0500 Uiso
H17_2 H 0.02744 0.52871 0.78772 0.0500 Uiso
C27_2 C 0.01889 0.49422 0.56716 0.0500 Uiso
C28_2 C 0.05591 0.41156 0.33292 0.0500 Uiso
H18_2 H 0.06835 0.38108 0.23986 0.0500 Uiso
H5_2 H 0.64479 0.70257 0.11243 0.0500 Uiso
C14_2 C 0.78651 0.68660 0.09647 0.0500 Uiso
H11_2 H 0.84361 0.68469 0.14174 0.0500 Uiso
H12_2 H 0.76069 0.63651 0.13108 0.0500 Uiso
N1 N 0.74927 0.75000 0.15568 0.0500 Uiso
C16_2 C 0.67554 0.75000 0.07946 0.0500 Uiso
H22_2 H 0.64479 0.79743 0.11243 0.0500 Uiso
C30_2 C 0.78651 0.81340 0.09647 0.0500 Uiso
H23_2 H 0.84361 0.81531 0.14174 0.0500 Uiso
H24_2 H 0.76069 0.86349 0.13108 0.0500 Uiso
O1_2 O 0.68198 0.68194 0.61254 0.0500 Uiso
O2_2 O 0.81884 0.68240 0.39833 0.0500 Uiso
O3_2 O 0.81877 0.68286 0.63580 0.0500 Uiso
O4_2 O 0.68131 0.68311 0.37456 0.0500 Uiso
C1_2 C 0.84446 0.65821 0.52085 0.0500 Uiso
C2_2 C 0.90517 0.60148 0.53428 0.0500 Uiso
C3_2 C 0.92489 0.55885 0.41697 0.0500 Uiso
H1_2 H 0.89651 0.56675 0.31304 0.0500 Uiso
C4_2 C 0.54284 0.60234 0.35443 0.0500 Uiso
H2_2 H 0.54695 0.64115 0.27126 0.0500 Uiso
H3_2 H 0.97256 0.47129 0.21228 0.0500 Uiso
C6_2 C 0.98111 0.50578 0.43284 0.0500 Uiso
H4_2 H 0.64562 0.79731 0.86613 0.0500 Uiso
C7_2 C 0.65588 0.65818 0.49027 0.0500 Uiso
C8_2 C 0.59402 0.60281 0.47703 0.0500 Uiso
C9_2 C 0.58370 0.55017 0.58151 0.0500 Uiso
H6_2 H 0.62131 0.54828 0.67725 0.0500 Uiso
C10_2 C 0.94409 0.58844 0.66708 0.0500 Uiso
H7_2 H 0.93165 0.61892 0.76014 0.0500 Uiso
C11_2 C 0.48515 0.55272 0.33522 0.0500 Uiso
H8_2 H 0.44807 0.55540 0.23881 0.0500 Uiso
C12_2 C 0.52490 0.49947 0.56216 0.0500 Uiso
C13_2 C 0.78728 0.68654 0.92569 0.0500 Uiso
H9_2 H 0.76130 0.63668 0.88243 0.0500 Uiso
H10_2 H 0.84443 0.68424 0.89816 0.0500 Uiso
N2_2 N 0.75082 0.75000 0.85525 0.0500 Uiso
C15_2 C 0.67640 0.75000 0.90839 0.0500 Uiso
C17_2 C 0.45716 0.39766 0.64557 0.0500 Uiso
H13_2 H 0.45305 0.35885 0.72874 0.0500 Uiso
C18_2 C 0.34412 0.34182 0.50973 0.0500 Uiso
C19_2 C 0.40598 0.39719 0.52297 0.0500 Uiso
C20_2 C 0.41630 0.44983 0.41849 0.0500 Uiso
H14_2 H 0.37869 0.45172 0.32275 0.0500 Uiso
C21_2 C 0.51485 0.44728 0.66478 0.0500 Uiso
H15_2 H 0.55193 0.44460 0.76119 0.0500 Uiso
C22_2 C 0.47510 0.50053 0.43784 0.0500 Uiso
C26_2 C 0.99952 0.53623 0.68320 0.0500 Uiso
H19_2 H 0.64562 0.70269 0.86613 0.0500 Uiso
C29_2 C 0.78728 0.81346 0.92569 0.0500 Uiso
H20_2 H 0.76130 0.86332 0.88243 0.0500 Uiso
H21_2 H 0.84443 0.81576 0.89816 0.0500 Uiso
loop_
_geom_bond_atom_site_label_1
_geom_bond_atom_site_label_2
_geom_bond_site_symmetry_1
_geom_bond_site_symmetry_2
O1 C7 1_555 1_555
O2 C1 1_555 1_555
O3 C1 1_555 1_555
O4 C7 1_555 1_555
C1 C2 1_555 1_555
C2 C3 1_555 1_555
C3 H1 1_555 1_555
C4 H2 1_555 1_555
C6 C3 1_555 1_555
H4 C15 1_555 1_555
C7 C8 1_555 1_555
C8 C4 1_555 1_555
C9 C8 1_555 1_555
H6 C9 1_555 1_555
C10 C2 1_555 1_555
H7 C10 1_555 1_555
C11 C4 1_555 1_555
H8 C11 1_555 1_555
C13 H9 1_555 1_555
H10 C13 1_555 1_555
Ni1 O2 1_555 1_555
Ni2 O1 1_555 1_555
N2 C13 1_555 1_555
C15 N2 1_555 1_555
C22 C11 1_555 1_555
C26 C10 1_555 1_555
H19 C15 1_555 1_555
C29 N2 1_555 1_555
H20 C29 1_555 1_555
H21 C29 1_555 1_555
O9 Ni2 1_555 1_555
O10 Ni1 1_555 1_555
O11 Ni2 1_555 1_555
O12 Ni1 1_555 1_555
N3 Ni1 1_555 1_555
O3 Ni2 1_555 1_555
O4 Ni1 1_555 1_555
Ni1 Ni2 1_555 1_555
Ni2 N2 1_555 1_555
H5 C16 1_555 1_555
H11 C14 1_555 1_555
H12 C14 1_555 1_555
N3 C14 1_555 1_555
C16 N3 1_555 1_555
H22 C16 1_555 1_555
C30 N3 1_555 1_555
H23 C30 1_555 1_555
H24 C30 1_555 1_555
O5 C18 1_555 1_555
O6 C18 1_555 1_555
C17 H13 1_555 1_555
C18 C19 1_555 1_555
C19 C17 1_555 1_555
C20 C19 1_555 1_555
H14 C20 1_555 1_555
C21 C12 1_555 1_555
H15 C21 1_555 1_555
Ni5 O6 1_555 1_555
Ni7 O5 1_555 1_555
C17 C21 1_555 1_555
Ni5 Ni7 1_555 1_555
O7 C23 1_555 1_555
O8 C23 1_555 1_555
C23 C24 1_555 1_555
C24 C25 1_555 1_555
C25 H16 1_555 1_555
C28 C5 1_555 1_555
H18 C28 1_555 1_555
Ni5 O7 1_555 1_555
Ni7 O8 1_555 1_555
C24 C28 1_555 1_555
C25 C27 1_555 1_555
O10 C23_2 1_555 1_555
O11 C23_2 1_555 1_555
C23_2 C24_2 1_555 1_555
C24_2 C25_2 1_555 1_555
C25_2 H16_2 1_555 1_555
C28_2 C5_2 1_555 1_555
H18_2 C28_2 1_555 1_555
C24_2 C28_2 1_555 1_555
C25_2 C27_2 1_555 1_555
H5_2 C16_2 1_555 1_555
H11_2 C14_2 1_555 1_555
H12_2 C14_2 1_555 1_555
N1 C14_2 1_555 1_555
C16_2 N1 1_555 1_555
H22_2 C16_2 1_555 1_555
C30_2 N1 1_555 1_555
H23_2 C30_2 1_555 1_555
H24_2 C30_2 1_555 1_555
Ni5 N1 1_555 1_555
O1_2 C7_2 1_555 1_555
O2_2 C1_2 1_555 1_555
O3_2 C1_2 1_555 1_555
O4_2 C7_2 1_555 1_555
C1_2 C2_2 1_555 1_555
C2_2 C3_2 1_555 1_555
C3_2 H1_2 1_555 1_555
C4_2 H2_2 1_555 1_555
C6_2 C3_2 1_555 1_555
H4_2 C15_2 1_555 1_555
C7_2 C8_2 1_555 1_555
C8_2 C4_2 1_555 1_555
C9_2 C8_2 1_555 1_555
H6_2 C9_2 1_555 1_555
C10_2 C2_2 1_555 1_555
H7_2 C10_2 1_555 1_555
C11_2 C4_2 1_555 1_555
H8_2 C11_2 1_555 1_555
C12_2 C9_2 1_555 1_555
C13_2 H9_2 1_555 1_555
H10_2 C13_2 1_555 1_555
Ni5 O2_2 1_555 1_555
Ni7 O1_2 1_555 1_555
N2_2 C13_2 1_555 1_555
C15_2 N2_2 1_555 1_555
O9 C18_2 1_555 1_555
O12 C18_2 1_555 1_555
C17_2 H13_2 1_555 1_555
C18_2 C19_2 1_555 1_555
C19_2 C17_2 1_555 1_555
C20_2 C19_2 1_555 1_555
H14_2 C20_2 1_555 1_555
C21_2 C12_2 1_555 1_555
H15_2 C21_2 1_555 1_555
C22_2 C11_2 1_555 1_555
C26_2 C10_2 1_555 1_555
H19_2 C15_2 1_555 1_555
C29_2 N2_2 1_555 1_555
H20_2 C29_2 1_555 1_555
H21_2 C29_2 1_555 1_555
O3_2 Ni7 1_555 1_555
O4_2 Ni5 1_555 1_555
C12_2 C22_2 1_555 1_555
Ni7 N2_2 1_555 1_555
C17_2 C21_2 1_555 1_555
C20_2 C22_2 1_555 1_555

#END
