
###############################################################################
#
# This file contains modified crystal structure data generated from the
# MOF subset of the Cambridge Structural Database (CSD) v543 
# hosted by the Cambridge Crystallographic Data Centre (CCDC).
#
# This work is licensed under the Creative Commons
# Attribution-NonCommercial-ShareAlike 4.0 International License.
# To view a copy of this license, visit
# http://creativecommons.org/licenses/by-nc-sa/4.0/
# or send a letter to
# Creative Commons, PO Box 1866, Mountain View, CA 94042, USA.
#
# CIF created using the CSD Python API on 29 September 2022
# The structure has been converted into the P1 space group
# The structure has a 3D framework
# The original CSD entry SARTEN is in the monoclinic crystal system
# The framework has been calculated to contain at least 10.0% void space
# The void calculation uses a probe of radius 1.32A, grid spacing 0.4
#
###############################################################################

data_SARTEN
_chemical_formula_moiety         '(C60 H48 N4 Ni4 O16)n'
_symmetry_cell_setting           triclinic
_symmetry_space_group_name_H-M   'P 1'
_symmetry_Int_Tables_number      1
_space_group_name_Hall           'P 1'
loop_
_symmetry_equiv_pos_site_id
_symmetry_equiv_pos_as_xyz
1 x,y,z
_cell_length_a                   18.5143
_cell_length_b                   18.1793
_cell_length_c                   9.4094
_cell_angle_alpha                90
_cell_angle_beta                 95.6185
_cell_angle_gamma                90
_cell_volume                     3151.77
loop_
_atom_site_label
_atom_site_type_symbol
_atom_site_fract_x
_atom_site_fract_y
_atom_site_fract_z
_atom_site_U_iso_or_equiv
_atom_site_thermal_displace_type
O1 O 0.32336 0.18195 0.48226 0.0500 Uiso
O2 O 0.18941 0.17897 0.68351 0.0500 Uiso
O3 O 0.19142 0.18449 0.44666 0.0500 Uiso
O4 O 0.32799 0.18058 0.72084 0.0500 Uiso
C1 C 0.16469 0.15745 0.55857 0.0500 Uiso
C2 C 0.10026 0.09985 0.51712 0.0500 Uiso
C3 C 0.06949 0.05209 0.61572 0.0500 Uiso
H1 H 0.08919 0.05383 0.72669 0.0500 Uiso
C4 C 0.45267 0.06208 0.70920 0.0500 Uiso
H2 H 0.44465 0.07831 0.81572 0.0500 Uiso
C6 C 0.01330 0.00178 0.57202 0.0500 Uiso
H4 H 0.35844 0.29731 0.21665 0.0500 Uiso
C7 C 0.35067 0.15625 0.60207 0.0500 Uiso
C8 C 0.41121 0.09444 0.59097 0.0500 Uiso
C9 C 0.42619 0.07015 0.45485 0.0500 Uiso
H6 H 0.39602 0.09321 0.36102 0.0500 Uiso
C10 C 0.07234 0.09478 0.37388 0.0500 Uiso
H7 H 0.09347 0.12944 0.29398 0.0500 Uiso
C11 C 0.50543 0.00864 0.69456 0.0500 Uiso
C12 C 0.47997 0.01563 0.43959 0.0500 Uiso
C13 C 0.21694 0.18654 0.15402 0.0500 Uiso
H9 H 0.24272 0.13668 0.19780 0.0500 Uiso
H10 H 0.15957 0.18424 0.18025 0.0500 Uiso
Ni1 Ni 0.25865 0.25000 0.71545 0.0500 Uiso
Ni2 Ni 0.25688 0.25000 0.45368 0.0500 Uiso
N2 N 0.25306 0.25000 0.22518 0.0500 Uiso
C15 C 0.32786 0.25000 0.17376 0.0500 Uiso
C16 C 0.32968 0.25000 0.00291 0.0500 Uiso
H15 H 0.46493 0.01381 0.21044 0.0500 Uiso
C26 C 0.01699 0.04530 0.33037 0.0500 Uiso
H19 H 0.35844 0.20269 0.21665 0.0500 Uiso
C29 C 0.21694 0.31346 0.15402 0.0500 Uiso
H20 H 0.24272 0.36332 0.19780 0.0500 Uiso
H21 H 0.15957 0.31576 0.18025 0.0500 Uiso
O9 O 0.32336 0.31805 0.48226 0.0500 Uiso
O10 O 0.18941 0.32103 0.68351 0.0500 Uiso
O11 O 0.19142 0.31551 0.44666 0.0500 Uiso
O12 O 0.32799 0.31942 0.72084 0.0500 Uiso
N3 N 0.25630 0.25000 0.92514 0.0500 Uiso
H5 H 0.36064 0.20257 0.97067 0.0500 Uiso
C14 C 0.21869 0.18660 0.98345 0.0500 Uiso
H11 H 0.16179 0.18469 0.93697 0.0500 Uiso
H12 H 0.24473 0.13651 0.94946 0.0500 Uiso
H22 H 0.36064 0.29743 0.97067 0.0500 Uiso
C30 C 0.21869 0.31340 0.98345 0.0500 Uiso
H23 H 0.16179 0.31531 0.93697 0.0500 Uiso
H24 H 0.24473 0.36349 0.94946 0.0500 Uiso
H3 H 0.00219 0.95603 0.78096 0.0500 Uiso
H8 H 0.53507 0.98619 0.78956 0.0500 Uiso
O5 O 0.67664 0.81805 0.51774 0.0500 Uiso
O6 O 0.67201 0.81942 0.27916 0.0500 Uiso
C17 C 0.54733 0.93792 0.29080 0.0500 Uiso
H13 H 0.55535 0.92169 0.18428 0.0500 Uiso
C18 C 0.64933 0.84375 0.39793 0.0500 Uiso
C19 C 0.58879 0.90556 0.40903 0.0500 Uiso
C20 C 0.57381 0.92985 0.54515 0.0500 Uiso
H14 H 0.60398 0.90679 0.63898 0.0500 Uiso
C21 C 0.49457 0.99136 0.30544 0.0500 Uiso
C22 C 0.52003 0.98437 0.56041 0.0500 Uiso
Ni5 Ni 0.74135 0.75000 0.28455 0.0500 Uiso
Ni7 Ni 0.74312 0.75000 0.54632 0.0500 Uiso
H17 H 0.99781 0.04397 0.21904 0.0500 Uiso
C5 C 0.98301 0.95470 0.66963 0.0500 Uiso
O7 O 0.81059 0.82103 0.31649 0.0500 Uiso
O8 O 0.80858 0.81551 0.55334 0.0500 Uiso
C23 C 0.83531 0.84255 0.44143 0.0500 Uiso
C24 C 0.89974 0.90015 0.48288 0.0500 Uiso
C25 C 0.93051 0.94791 0.38428 0.0500 Uiso
H16 H 0.91081 0.94617 0.27331 0.0500 Uiso
C27 C 0.98670 0.99822 0.42798 0.0500 Uiso
C28 C 0.92766 0.90522 0.62612 0.0500 Uiso
H18 H 0.90653 0.87056 0.70602 0.0500 Uiso
C5_2 C 0.01699 0.45470 0.33037 0.0500 Uiso
C23_2 C 0.16469 0.34255 0.55857 0.0500 Uiso
C24_2 C 0.10026 0.40015 0.51712 0.0500 Uiso
C25_2 C 0.06949 0.44791 0.61572 0.0500 Uiso
H16_2 H 0.08919 0.44617 0.72669 0.0500 Uiso
H17_2 H 0.00219 0.54397 0.78096 0.0500 Uiso
C27_2 C 0.01330 0.49822 0.57202 0.0500 Uiso
C28_2 C 0.07234 0.40522 0.37388 0.0500 Uiso
H18_2 H 0.09347 0.37056 0.29398 0.0500 Uiso
H5_2 H 0.63936 0.70257 0.02933 0.0500 Uiso
C14_2 C 0.78131 0.68660 0.01655 0.0500 Uiso
H11_2 H 0.83821 0.68469 0.06303 0.0500 Uiso
H12_2 H 0.75527 0.63651 0.05054 0.0500 Uiso
N1 N 0.74370 0.75000 0.07486 0.0500 Uiso
H22_2 H 0.63936 0.79743 0.02933 0.0500 Uiso
C30_2 C 0.78131 0.81340 0.01655 0.0500 Uiso
H23_2 H 0.83821 0.81531 0.06303 0.0500 Uiso
H24_2 H 0.75527 0.86349 0.05054 0.0500 Uiso
O1_2 O 0.67664 0.68195 0.51774 0.0500 Uiso
O2_2 O 0.81059 0.67897 0.31649 0.0500 Uiso
O3_2 O 0.80858 0.68449 0.55334 0.0500 Uiso
O4_2 O 0.67201 0.68058 0.27916 0.0500 Uiso
C1_2 C 0.83531 0.65745 0.44143 0.0500 Uiso
C2_2 C 0.89974 0.59985 0.48288 0.0500 Uiso
C3_2 C 0.93051 0.55209 0.38428 0.0500 Uiso
H1_2 H 0.91081 0.55383 0.27331 0.0500 Uiso
C4_2 C 0.54733 0.56208 0.29080 0.0500 Uiso
H2_2 H 0.55535 0.57831 0.18428 0.0500 Uiso
H3_2 H 0.99781 0.45603 0.21904 0.0500 Uiso
C6_2 C 0.98670 0.50178 0.42798 0.0500 Uiso
H4_2 H 0.64156 0.79731 0.78335 0.0500 Uiso
C7_2 C 0.64933 0.65625 0.39793 0.0500 Uiso
C8_2 C 0.58879 0.59444 0.40903 0.0500 Uiso
C9_2 C 0.57381 0.57015 0.54515 0.0500 Uiso
H6_2 H 0.60398 0.59321 0.63898 0.0500 Uiso
C10_2 C 0.92766 0.59478 0.62612 0.0500 Uiso
H7_2 H 0.90653 0.62944 0.70602 0.0500 Uiso
C11_2 C 0.49457 0.50864 0.30544 0.0500 Uiso
H8_2 H 0.46493 0.48619 0.21044 0.0500 Uiso
C12_2 C 0.52003 0.51563 0.56041 0.0500 Uiso
C13_2 C 0.78306 0.68654 0.84598 0.0500 Uiso
H9_2 H 0.75728 0.63668 0.80220 0.0500 Uiso
H10_2 H 0.84043 0.68424 0.81975 0.0500 Uiso
N2_2 N 0.74694 0.75000 0.77482 0.0500 Uiso
C15_2 C 0.67214 0.75000 0.82624 0.0500 Uiso
C16_2 C 0.67032 0.75000 0.99709 0.0500 Uiso
C17_2 C 0.45267 0.43792 0.70920 0.0500 Uiso
H13_2 H 0.44465 0.42169 0.81572 0.0500 Uiso
C18_2 C 0.35067 0.34375 0.60207 0.0500 Uiso
C19_2 C 0.41121 0.40556 0.59097 0.0500 Uiso
C20_2 C 0.42619 0.42985 0.45485 0.0500 Uiso
H14_2 H 0.39602 0.40679 0.36102 0.0500 Uiso
C21_2 C 0.50543 0.49136 0.69456 0.0500 Uiso
H15_2 H 0.53507 0.51381 0.78956 0.0500 Uiso
C22_2 C 0.47997 0.48437 0.43959 0.0500 Uiso
C26_2 C 0.98301 0.54530 0.66963 0.0500 Uiso
H19_2 H 0.64156 0.70269 0.78335 0.0500 Uiso
C29_2 C 0.78306 0.81346 0.84598 0.0500 Uiso
H20_2 H 0.75728 0.86332 0.80220 0.0500 Uiso
H21_2 H 0.84043 0.81576 0.81975 0.0500 Uiso
loop_
_geom_bond_atom_site_label_1
_geom_bond_atom_site_label_2
_geom_bond_site_symmetry_1
_geom_bond_site_symmetry_2
O1 C7 1_555 1_555
O2 C1 1_555 1_555
O3 C1 1_555 1_555
O4 C7 1_555 1_555
C1 C2 1_555 1_555
C2 C3 1_555 1_555
C3 H1 1_555 1_555
C4 H2 1_555 1_555
C6 C3 1_555 1_555
H4 C15 1_555 1_555
C7 C8 1_555 1_555
C8 C4 1_555 1_555
C9 C8 1_555 1_555
H6 C9 1_555 1_555
C10 C2 1_555 1_555
H7 C10 1_555 1_555
C11 C4 1_555 1_555
C12 C9 1_555 1_555
C13 H9 1_555 1_555
H10 C13 1_555 1_555
Ni1 O2 1_555 1_555
Ni2 O1 1_555 1_555
N2 C13 1_555 1_555
C15 N2 1_555 1_555
C26 C10 1_555 1_555
H19 C15 1_555 1_555
C29 N2 1_555 1_555
H20 C29 1_555 1_555
H21 C29 1_555 1_555
O9 Ni2 1_555 1_555
O10 Ni1 1_555 1_555
O11 Ni2 1_555 1_555
O12 Ni1 1_555 1_555
N3 Ni1 1_555 1_555
O3 Ni2 1_555 1_555
O4 Ni1 1_555 1_555
Ni1 Ni2 1_555 1_555
Ni2 N2 1_555 1_555
C15 C16 1_555 1_555
H11 C14 1_555 1_555
H12 C14 1_555 1_555
N3 C14 1_555 1_555
C30 N3 1_555 1_555
H23 C30 1_555 1_555
H24 C30 1_555 1_555
O5 C18 1_555 1_555
O6 C18 1_555 1_555
C17 H13 1_555 1_555
C18 C19 1_555 1_555
C19 C17 1_555 1_555
C20 C19 1_555 1_555
H14 C20 1_555 1_555
Ni5 O6 1_555 1_555
Ni7 O5 1_555 1_555
C17 C21 1_555 1_555
C20 C22 1_555 1_555
Ni5 Ni7 1_555 1_555
O7 C23 1_555 1_555
O8 C23 1_555 1_555
C23 C24 1_555 1_555
C24 C25 1_555 1_555
C25 H16 1_555 1_555
C28 C5 1_555 1_555
H18 C28 1_555 1_555
Ni5 O7 1_555 1_555
Ni7 O8 1_555 1_555
C24 C28 1_555 1_555
C25 C27 1_555 1_555
O10 C23_2 1_555 1_555
O11 C23_2 1_555 1_555
C23_2 C24_2 1_555 1_555
C24_2 C25_2 1_555 1_555
C25_2 H16_2 1_555 1_555
C28_2 C5_2 1_555 1_555
H18_2 C28_2 1_555 1_555
C24_2 C28_2 1_555 1_555
C25_2 C27_2 1_555 1_555
H11_2 C14_2 1_555 1_555
H12_2 C14_2 1_555 1_555
N1 C14_2 1_555 1_555
C30_2 N1 1_555 1_555
H23_2 C30_2 1_555 1_555
H24_2 C30_2 1_555 1_555
Ni5 N1 1_555 1_555
O1_2 C7_2 1_555 1_555
O2_2 C1_2 1_555 1_555
O3_2 C1_2 1_555 1_555
O4_2 C7_2 1_555 1_555
C1_2 C2_2 1_555 1_555
C2_2 C3_2 1_555 1_555
C3_2 H1_2 1_555 1_555
C4_2 H2_2 1_555 1_555
C6_2 C3_2 1_555 1_555
H4_2 C15_2 1_555 1_555
C7_2 C8_2 1_555 1_555
C8_2 C4_2 1_555 1_555
C9_2 C8_2 1_555 1_555
H6_2 C9_2 1_555 1_555
C10_2 C2_2 1_555 1_555
H7_2 C10_2 1_555 1_555
C11_2 C4_2 1_555 1_555
H8_2 C11_2 1_555 1_555
C12_2 C9_2 1_555 1_555
C13_2 H9_2 1_555 1_555
H10_2 C13_2 1_555 1_555
Ni5 O2_2 1_555 1_555
Ni7 O1_2 1_555 1_555
N2_2 C13_2 1_555 1_555
C15_2 N2_2 1_555 1_555
O9 C18_2 1_555 1_555
O12 C18_2 1_555 1_555
C17_2 H13_2 1_555 1_555
C18_2 C19_2 1_555 1_555
C19_2 C17_2 1_555 1_555
C20_2 C19_2 1_555 1_555
H14_2 C20_2 1_555 1_555
C21_2 C12_2 1_555 1_555
H15_2 C21_2 1_555 1_555
C22_2 C11_2 1_555 1_555
C26_2 C10_2 1_555 1_555
H19_2 C15_2 1_555 1_555
C29_2 N2_2 1_555 1_555
H20_2 C29_2 1_555 1_555
H21_2 C29_2 1_555 1_555
O3_2 Ni7 1_555 1_555
O4_2 Ni5 1_555 1_555
C12_2 C22_2 1_555 1_555
Ni7 N2_2 1_555 1_555
C15_2 C16_2 1_555 1_555
C17_2 C21_2 1_555 1_555
C20_2 C22_2 1_555 1_555

#END
