
###############################################################################
#
# This file contains modified crystal structure data generated from the
# MOF subset of the Cambridge Structural Database (CSD) v543 
# hosted by the Cambridge Crystallographic Data Centre (CCDC).
#
# This work is licensed under the Creative Commons
# Attribution-NonCommercial-ShareAlike 4.0 International License.
# To view a copy of this license, visit
# http://creativecommons.org/licenses/by-nc-sa/4.0/
# or send a letter to
# Creative Commons, PO Box 1866, Mountain View, CA 94042, USA.
#
# CIF created using the CSD Python API on 29 September 2022
# The structure has been converted into the P1 space group
# The structure has a 3D framework
# The original CSD entry SASXUJ is in the triclinic crystal system
# The framework has been calculated to contain at least 10.0% void space
# The void calculation uses a probe of radius 1.32A, grid spacing 0.4
#
###############################################################################

data_SASXUJ
_chemical_formula_moiety         '(C64 H34 Ca3 N4 O15)n'
_symmetry_cell_setting           triclinic
_symmetry_space_group_name_H-M   'P 1'
_symmetry_Int_Tables_number      1
_space_group_name_Hall           'P 1'
loop_
_symmetry_equiv_pos_site_id
_symmetry_equiv_pos_as_xyz
1 x,y,z
_cell_length_a                   9.9450(4)
_cell_length_b                   11.9934(4)
_cell_length_c                   16.6979(6)
_cell_angle_alpha                103.8040(10)
_cell_angle_beta                 100.041(2)
_cell_angle_gamma                102.1880(10)
_cell_volume                     1836.77
loop_
_atom_site_label
_atom_site_type_symbol
_atom_site_fract_x
_atom_site_fract_y
_atom_site_fract_z
Ca15 Ca 0.000000 0.000000 0.000000
O19 O 0.1567(3) 0.0018(3) 0.12029(16)
O21 O 0.4719(3) 0.1661(3) 0.16004(19)
Ca15_2 Ca 0.000000 -0.000000 1.000000
O24 O 0.4244(3) 0.0630(3) 0.94138(17)
O28 O 0.2223(3) 0.0726(3) 0.97451(17)
Ca1 Ca 0.36310(8) 0.98132(7) 0.06432(4)
Ca15_3 Ca 0.000000 1.000000 0.000000
O17 O 0.3141(3) 0.9350(3) 0.19258(18)
O26 O 0.5756(3) 0.9370(3) 0.05862(17)
N1 N 0.1357(4) 0.1934(3) 0.5684(2)
C2 C 0.1756(4) 0.0407(4) 0.2690(2)
C3 C 0.1211(5) 0.1385(4) 0.2740(2)
H1 H 0.107145 0.168768 0.226427
C4 C 0.0870(5) 0.1921(4) 0.3474(3)
H2 H 0.053408 0.261182 0.350818
C5 C 0.1009(4) 0.1462(4) 0.4169(2)
C6 C 0.1539(5) 0.0467(4) 0.4109(2)
H3 H 0.163179 0.013592 0.457293
C8 C 0.0638(4) 0.2039(4) 0.4958(2)
C17 C 0.0518(4) 0.3477(3) 0.6454(2)
C18 C 0.1226(4) 0.2572(4) 0.6424(2)
C19 C 0.1787(4) 0.2229(3) 0.7191(2)
C20 C 0.1019(4) 0.2199(4) 0.7807(2)
H9 H 0.018544 0.247048 0.776163
C21 C 0.1450(4) 0.1781(4) 0.8486(2)
H10 H 0.090672 0.175917 0.889959
C22 C 0.2672(4) 0.1392(3) 0.8564(2)
C23 C 0.3483(5) 0.1458(4) 0.7966(3)
H11 H 0.434632 0.123187 0.803003
C24 C 0.3025(5) 0.1855(4) 0.7278(3)
H12 H 0.356273 0.187252 0.686173
C25 C 0.3074(4) 0.0883(3) 0.9280(2)
C26 C 0.0643(4) 0.4486(3) 0.7197(2)
C27 C 0.1899(4) 0.5008(4) 0.7816(3)
H13 H 0.267512 0.466528 0.779904
C28 C 0.2025(5) 0.6026(4) 0.8458(3)
H14 H 0.289598 0.638219 0.887012
C29 C 0.0904(5) 0.6532(4) 0.8509(2)
C32 C 0.1081(5) 0.7650(4) 0.9198(2)
O7 O 0.2300(3) 0.8132(3) 0.96700(19)
O8 O 0.0018(3) 0.8050(3) 0.92724(19)
Ca11 Ca 0.63690(8) 0.01868(7) 0.93568(4)
Ca15_4 Ca 0.000000 1.000000 1.000000
C1 C 0.2174(5) 0.9868(4) 0.1897(2)
C7 C 0.1929(5) 0.9957(4) 0.3385(3)
H4 H 0.231843 0.929504 0.335956
N4 N 0.0341(4) 0.6534(3) 0.4269(2)
C41 C 0.0371(4) 0.7290(4) 0.5004(2)
C42 C 0.1523(5) 0.7349(4) 0.5724(2)
C43 C 0.2231(5) 0.8413(4) 0.6341(3)
H22 H 0.197634 0.912522 0.631249
C44 C 0.3312(6) 0.8435(4) 0.6998(3)
H23 H 0.379689 0.916510 0.741890
C45 C 0.3686(5) 0.7405(4) 0.7045(3)
C46 C 0.3014(5) 0.6345(4) 0.6422(3)
H24 H 0.328809 0.563895 0.644434
C47 C 0.1929(5) 0.6325(4) 0.5762(2)
H25 H 0.146291 0.559945 0.533312
C48 C 0.4806(5) 0.7465(4) 0.7785(3)
C62 C 0.0357(5) 0.3999(4) 0.2106(3)
H32 H 0.114330 0.367023 0.207721
C63 C 0.0477(5) 0.4999(4) 0.2758(3)
H33 H 0.133815 0.533777 0.318128
O11 O 0.5281(3) 0.8339(3) 0.83996(19)
O12 O 0.5246(4) 0.6501(3) 0.7721(2)
H34 H 0.587860 0.659796 0.815521
Ca15_5 Ca 1.000000 0.000000 0.000000
Ca15_6 Ca 1.000000 -0.000000 1.000000
Ca15_7 Ca 1.000000 1.000000 0.000000
N2 N 0.9659(4) 0.3466(3) 0.5731(2)
C9 C 0.9629(4) 0.2710(4) 0.4996(2)
C10 C 0.8477(5) 0.2651(4) 0.4276(2)
C11 C 0.7769(5) 0.1587(4) 0.3659(3)
H5 H 0.802366 0.087478 0.368751
C12 C 0.6688(6) 0.1565(4) 0.3002(3)
H6 H 0.620311 0.083490 0.258110
C13 C 0.6314(5) 0.2595(4) 0.2955(3)
C14 C 0.6986(5) 0.3655(4) 0.3578(3)
H7 H 0.671191 0.436105 0.355566
C15 C 0.8071(5) 0.3675(4) 0.4238(2)
H8 H 0.853709 0.440055 0.466688
C16 C 0.5194(5) 0.2535(4) 0.2215(3)
C30 C 0.9643(5) 0.6001(4) 0.7894(3)
H15 H 0.885670 0.632977 0.792279
C31 C 0.9523(5) 0.5001(4) 0.7242(3)
H16 H 0.866185 0.466223 0.681872
O4 O 0.4754(4) 0.3499(3) 0.2279(2)
H17 H 0.412140 0.340204 0.184479
Ca15_8 Ca 1.000000 1.000000 1.000000
O32 O 0.9982(3) 0.1950(3) 0.07276(19)
C33 C 0.7826(5) 0.0132(4) 0.8103(2)
C39 C 0.8071(5) 0.0043(4) 0.6615(3)
H21 H 0.768157 0.070496 0.664044
O9 O 0.6859(3) 0.0650(3) 0.80742(18)
O30 O 0.7777(3) 0.9274(3) 0.02549(17)
N3 N 0.8643(4) 0.8066(3) 0.4316(2)
C34 C 0.8244(4) 0.9593(4) 0.7310(2)
C35 C 0.8789(5) 0.8615(4) 0.7260(2)
H18 H 0.892855 0.831232 0.773573
C36 C 0.9130(5) 0.8079(4) 0.6526(3)
H19 H 0.946592 0.738818 0.649182
C37 C 0.8991(4) 0.8538(4) 0.5831(2)
C38 C 0.8461(5) 0.9533(4) 0.5891(2)
H20 H 0.836821 0.986408 0.542707
C40 C 0.9362(4) 0.7961(4) 0.5042(2)
C49 C 0.9482(4) 0.6523(3) 0.3546(2)
C50 C 0.8774(4) 0.7428(4) 0.3576(2)
C51 C 0.8213(4) 0.7771(3) 0.2809(2)
C52 C 0.8981(4) 0.7801(4) 0.2193(2)
H26 H 0.981456 0.752952 0.223837
C53 C 0.8550(4) 0.8219(4) 0.1514(2)
H27 H 0.909328 0.824083 0.110041
C54 C 0.7328(4) 0.8608(3) 0.1436(2)
C55 C 0.6517(5) 0.8542(4) 0.2034(3)
H28 H 0.565368 0.876813 0.196997
C56 C 0.6975(5) 0.8145(4) 0.2722(3)
H29 H 0.643727 0.812748 0.313827
C57 C 0.6926(4) 0.9117(3) 0.0720(2)
C58 C 0.9357(4) 0.5514(3) 0.2803(2)
C59 C 0.8101(4) 0.4992(4) 0.2184(3)
H30 H 0.732488 0.533472 0.220096
C60 C 0.7975(5) 0.3974(4) 0.1542(3)
H31 H 0.710402 0.361781 0.112988
C61 C 0.9096(5) 0.3468(4) 0.1491(2)
C64 C 0.8919(5) 0.2350(4) 0.0802(2)
O10 O 0.8433(3) 0.9982(3) 0.87971(16)
O15 O 0.7700(3) 0.1868(3) 0.03300(19)
loop_
_geom_bond_atom_site_label_1
_geom_bond_atom_site_label_2
_geom_bond_site_symmetry_1
_geom_bond_site_symmetry_2
Ca15 O19 1_555 1_555
Ca15_2 O28 1_555 1_555
O17 Ca1 1_555 1_555
O26 Ca1 1_555 1_555
N1 C8 1_555 1_555
C2 C3 1_555 1_555
C3 H1 1_555 1_555
C4 C3 1_555 1_555
H2 C4 1_555 1_555
C5 C4 1_555 1_555
C6 C5 1_555 1_555
H3 C6 1_555 1_555
C8 C5 1_555 1_555
C18 N1 1_555 1_555
C19 C18 1_555 1_555
C20 C19 1_555 1_555
H9 C20 1_555 1_555
C21 C20 1_555 1_555
H10 C21 1_555 1_555
C22 C21 1_555 1_555
C23 C22 1_555 1_555
H11 C23 1_555 1_555
C24 C19 1_555 1_555
H12 C24 1_555 1_555
C25 C22 1_555 1_555
C26 C17 1_555 1_555
C27 C26 1_555 1_555
H13 C27 1_555 1_555
C28 C27 1_555 1_555
H14 C28 1_555 1_555
C29 C28 1_555 1_555
C32 C29 1_555 1_555
O24 C25 1_555 1_555
O28 C25 1_555 1_555
O7 C32 1_555 1_555
O8 C32 1_555 1_555
Ca11 O24 1_555 1_555
Ca15_4 O8 1_555 1_555
C17 C18 1_555 1_555
C23 C24 1_555 1_555
H4 C7 1_555 1_555
O17 C1 1_555 1_555
N4 C41 1_555 1_555
C42 C41 1_555 1_555
C43 C42 1_555 1_555
H22 C43 1_555 1_555
C44 C43 1_555 1_555
H23 C44 1_555 1_555
C45 C44 1_555 1_555
C46 C45 1_555 1_555
H24 C46 1_555 1_555
C47 C42 1_555 1_555
H25 C47 1_555 1_555
C48 C45 1_555 1_555
H32 C62 1_555 1_555
H33 C63 1_555 1_555
O11 C48 1_555 1_555
O12 C48 1_555 1_555
H34 O12 1_555 1_555
C46 C47 1_555 1_555
C62 C63 1_555 1_555
N2 C9 1_555 1_555
C10 C9 1_555 1_555
C11 C10 1_555 1_555
H5 C11 1_555 1_555
C12 C11 1_555 1_555
H6 C12 1_555 1_555
C13 C12 1_555 1_555
C14 C13 1_555 1_555
H7 C14 1_555 1_555
C15 C10 1_555 1_555
H8 C15 1_555 1_555
C16 C13 1_555 1_555
H15 C30 1_555 1_555
H16 C31 1_555 1_555
O21 C16 1_555 1_555
O4 C16 1_555 1_555
H17 O4 1_555 1_555
O32 Ca15_5 1_555 1_555
C14 C15 1_555 1_555
C30 C31 1_555 1_555
H21 C39 1_555 1_555
O9 C33 1_555 1_555
Ca11 O9 1_555 1_555
O30 Ca15_7 1_555 1_555
N3 C40 1_555 1_555
C34 C35 1_555 1_555
C35 H18 1_555 1_555
C36 C35 1_555 1_555
H19 C36 1_555 1_555
C37 C36 1_555 1_555
C38 C37 1_555 1_555
H20 C38 1_555 1_555
C40 C37 1_555 1_555
C50 N3 1_555 1_555
C51 C50 1_555 1_555
C52 C51 1_555 1_555
H26 C52 1_555 1_555
C53 C52 1_555 1_555
H27 C53 1_555 1_555
C54 C53 1_555 1_555
C55 C54 1_555 1_555
H28 C55 1_555 1_555
C56 C51 1_555 1_555
H29 C56 1_555 1_555
C57 C54 1_555 1_555
C58 C49 1_555 1_555
C59 C58 1_555 1_555
H30 C59 1_555 1_555
C60 C59 1_555 1_555
H31 C60 1_555 1_555
C61 C60 1_555 1_555
C64 C61 1_555 1_555
O10 Ca15_8 1_555 1_555
O26 C57 1_555 1_555
O30 C57 1_555 1_555
O15 C64 1_555 1_555
O32 C64 1_555 1_555
C49 C50 1_555 1_555
C55 C56 1_555 1_555

#END
