
###############################################################################
#
# This file contains modified crystal structure data generated from the
# MOF subset of the Cambridge Structural Database (CSD) v543 
# hosted by the Cambridge Crystallographic Data Centre (CCDC).
#
# This work is licensed under the Creative Commons
# Attribution-NonCommercial-ShareAlike 4.0 International License.
# To view a copy of this license, visit
# http://creativecommons.org/licenses/by-nc-sa/4.0/
# or send a letter to
# Creative Commons, PO Box 1866, Mountain View, CA 94042, USA.
#
# CIF created using the CSD Python API on 29 September 2022
# The structure has been converted into the P1 space group
# The structure has a 3D framework
# The original CSD entry SASXOD is in the triclinic crystal system
# The framework has been calculated to contain at least 10.0% void space
# The void calculation uses a probe of radius 1.32A, grid spacing 0.4
#
###############################################################################

data_SASXOD
_chemical_formula_moiety         '(C64 H34 Ca1 N4 O14)n'
_symmetry_cell_setting           triclinic
_symmetry_space_group_name_H-M   'P 1'
_symmetry_Int_Tables_number      1
_space_group_name_Hall           'P 1'
loop_
_symmetry_equiv_pos_site_id
_symmetry_equiv_pos_as_xyz
1 x,y,z
_cell_length_a                   9.8952(15)
_cell_length_b                   11.7893(18)
_cell_length_c                   16.671(3)
_cell_angle_alpha                103.829(5)
_cell_angle_beta                 100.898(5)
_cell_angle_gamma                101.724(5)
_cell_volume                     1790.34
loop_
_atom_site_label
_atom_site_type_symbol
_atom_site_fract_x
_atom_site_fract_y
_atom_site_fract_z
Ca11 Ca 0.13749(18) 0.02069(17) 0.93701(11)
O5 O 0.0266(10) 0.6404(8) 0.7815(6)
H17 H 0.096484 0.652638 0.820934
O6 O 0.0289(7) 0.8274(7) 0.8473(5)
Ca8 Ca 0.500000 0.000000 0.000000
H15 H 0.261796 0.061668 0.662061
C32 C 0.2757(8) 0.0074(7) 0.8080(5)
O8 O 0.1740(6) 0.0554(6) 0.8019(4)
Ca8_2 Ca 0.500000 0.000000 1.000000
Ca8_3 Ca 0.500000 1.000000 0.000000
C1 C 0.3959(14) 0.2345(11) 0.0732(7)
C2 C 0.4200(14) 0.3482(8) 0.1448(6)
C3 C 0.5526(13) 0.4034(9) 0.2051(6)
H1 H 0.631487 0.373583 0.199547
C4 C 0.5637(12) 0.5036(8) 0.2733(6)
H2 H 0.649805 0.538897 0.314174
C5 C 0.4479(10) 0.5509(7) 0.2805(5)
C6 C 0.3211(11) 0.4973(8) 0.2193(6)
H3 H 0.244321 0.530295 0.224750
C7 C 0.3014(11) 0.4006(8) 0.1525(6)
H4 H 0.214153 0.368368 0.112269
C8 C 0.4627(9) 0.6524(7) 0.3569(5)
C9 C 0.3842(9) 0.7415(7) 0.3598(5)
C10 C 0.3287(8) 0.7767(7) 0.2815(5)
C11 C 0.2041(9) 0.8139(7) 0.2730(5)
H5 H 0.152215 0.812189 0.313928
C12 C 0.1561(8) 0.8537(7) 0.2035(5)
H6 H 0.070351 0.875415 0.196947
C13 C 0.2366(7) 0.8612(7) 0.1433(5)
C14 C 0.3599(8) 0.8220(7) 0.1529(5)
H7 H 0.413066 0.824083 0.112639
C15 C 0.4055(9) 0.7800(7) 0.2206(5)
H8 H 0.488306 0.753691 0.225388
C16 C 0.1971(7) 0.9157(7) 0.0764(5)
C17 C 0.5478(9) 0.7273(7) 0.5034(5)
C18 C 0.6621(9) 0.7322(8) 0.5769(5)
C19 C 0.7059(10) 0.6287(8) 0.5785(5)
H9 H 0.662165 0.557757 0.534509
C20 C 0.8177(11) 0.6289(9) 0.6470(6)
H10 H 0.847460 0.559180 0.647822
C21 C 0.8801(9) 0.7351(9) 0.7117(6)
C22 C 0.8331(12) 0.8380(10) 0.7097(7)
H11 H 0.875904 0.908956 0.753830
C23 C 0.7232(11) 0.8377(9) 0.6431(6)
H12 H 0.691893 0.906991 0.643266
C24 C 0.9859(12) 0.7382(10) 0.7867(7)
C25 C 0.4416(9) 0.7928(7) 0.5058(5)
C26 C 0.4045(8) 0.8503(7) 0.5839(5)
C27 C 0.4117(10) 0.7992(8) 0.6532(5)
H13 H 0.440739 0.728271 0.649411
C28 C 0.3754(10) 0.8547(8) 0.7267(5)
H14 H 0.387949 0.825065 0.773796
C29 C 0.3208(8) 0.9539(7) 0.7295(5)
C30 C 0.3034(9) 0.9975(8) 0.6607(5)
C31 C 0.3466(9) 0.9480(8) 0.5884(5)
H16 H 0.336420 0.980932 0.542853
N1 N 0.5490(7) 0.6522(6) 0.4300(4)
N2 N 0.3718(7) 0.8035(6) 0.4334(4)
O1 O 0.5016(9) 0.1988(6) 0.0671(5)
O2 O 0.2703(9) 0.1950(8) 0.0247(6)
O3 O 0.2822(5) 0.9321(5) 0.0294(3)
O4 O 0.0810(5) 0.9441(5) 0.0613(4)
O7 O 0.3387(6) 0.9958(5) 0.8764(3)
Ca8_4 Ca 0.500000 1.000000 1.000000
O27 O 0.6613(6) 0.0042(5) 0.1236(3)
O20 O 0.7178(5) 0.0679(5) 0.9706(3)
O17 O 0.4984(9) 0.8012(6) 0.9329(5)
O24 O 0.9711(7) 0.1726(7) 0.1527(5)
O22 O 0.9190(5) 0.0559(5) 0.9387(4)
Ca3 Ca 0.86251(18) 0.97931(17) 0.06299(11)
O29 O 0.8260(6) 0.9446(6) 0.1981(4)
C33 C 0.6041(14) 0.7655(11) 0.9268(7)
C34 C 0.5800(14) 0.6518(8) 0.8552(6)
C35 C 0.4474(13) 0.5966(9) 0.7949(6)
H18 H 0.368513 0.626417 0.800453
C36 C 0.4363(12) 0.4964(8) 0.7267(6)
H19 H 0.350195 0.461103 0.685826
C37 C 0.5521(10) 0.4491(7) 0.7195(5)
C38 C 0.6789(11) 0.5027(8) 0.7807(6)
H20 H 0.755679 0.469705 0.775250
C39 C 0.6986(11) 0.5994(8) 0.8475(6)
H21 H 0.785847 0.631632 0.887731
C40 C 0.5373(9) 0.3476(7) 0.6431(5)
C41 C 0.6158(9) 0.2585(7) 0.6402(5)
C42 C 0.6713(8) 0.2233(7) 0.7185(5)
C43 C 0.7959(9) 0.1861(7) 0.7270(5)
H22 H 0.847785 0.187811 0.686072
C44 C 0.8439(8) 0.1463(7) 0.7965(5)
H23 H 0.929649 0.124585 0.803053
C45 C 0.7634(7) 0.1388(7) 0.8567(5)
C46 C 0.6401(8) 0.1780(7) 0.8471(5)
H24 H 0.586934 0.175917 0.887361
C47 C 0.5945(9) 0.2200(7) 0.7794(5)
H25 H 0.511694 0.246309 0.774612
C48 C 0.8029(7) 0.0843(7) 0.9236(5)
C49 C 0.4522(9) 0.2727(7) 0.4966(5)
C50 C 0.3379(9) 0.2678(8) 0.4231(5)
C51 C 0.2941(10) 0.3713(8) 0.4215(5)
H26 H 0.337835 0.442243 0.465491
C52 C 0.1823(11) 0.3711(9) 0.3530(6)
H27 H 0.152540 0.440820 0.352178
C53 C 0.1199(9) 0.2649(9) 0.2883(6)
C54 C 0.1669(12) 0.1620(10) 0.2903(7)
H28 H 0.124096 0.091044 0.246170
C55 C 0.2768(11) 0.1623(9) 0.3569(6)
H29 H 0.308107 0.093009 0.356734
C56 C 0.0141(12) 0.2618(10) 0.2133(7)
C57 C 0.5584(9) 0.2072(7) 0.4942(5)
C58 C 0.5955(8) 0.1497(7) 0.4161(5)
C59 C 0.5883(10) 0.2008(8) 0.3468(5)
H30 H 0.559261 0.271729 0.350589
C60 C 0.6246(10) 0.1453(8) 0.2733(5)
H31 H 0.612051 0.174935 0.226204
C61 C 0.6792(8) 0.0461(7) 0.2705(5)
C62 C 0.6966(9) 0.0025(8) 0.3393(5)
C63 C 0.6534(9) 0.0520(8) 0.4116(5)
H33 H 0.663580 0.019068 0.457147
N3 N 0.4510(7) 0.3478(6) 0.5700(4)
N4 N 0.6282(7) 0.1965(6) 0.5666(4)
O10 O 0.7297(9) 0.8050(8) 0.9753(6)
H32 H 0.738204 0.938332 0.337939
C64 C 0.7243(8) 0.9926(7) 0.1920(5)
O13 O 0.9734(10) 0.3596(8) 0.2185(6)
H34 H 0.903516 0.347362 0.179066
loop_
_geom_bond_atom_site_label_1
_geom_bond_atom_site_label_2
_geom_bond_site_symmetry_1
_geom_bond_site_symmetry_2
H17 O5 1_555 1_555
O8 C32 1_555 1_555
O8 Ca11 1_555 1_555
C1 C2 1_555 1_555
C2 C3 1_555 1_555
C3 H1 1_555 1_555
C4 C3 1_555 1_555
H2 C4 1_555 1_555
C5 C4 1_555 1_555
C6 C5 1_555 1_555
H3 C6 1_555 1_555
C7 C2 1_555 1_555
H4 C7 1_555 1_555
C8 C5 1_555 1_555
C9 C8 1_555 1_555
C10 C9 1_555 1_555
C11 C10 1_555 1_555
H5 C11 1_555 1_555
C12 C11 1_555 1_555
H6 C12 1_555 1_555
C13 C12 1_555 1_555
C14 C13 1_555 1_555
H7 C14 1_555 1_555
C15 C10 1_555 1_555
H8 C15 1_555 1_555
C16 C13 1_555 1_555
C17 C18 1_555 1_555
C18 C19 1_555 1_555
C19 H9 1_555 1_555
C20 C19 1_555 1_555
H10 C20 1_555 1_555
C21 C20 1_555 1_555
C22 C21 1_555 1_555
H11 C22 1_555 1_555
C23 C18 1_555 1_555
H12 C23 1_555 1_555
C24 C21 1_555 1_555
C25 C17 1_555 1_555
C26 C25 1_555 1_555
C27 C26 1_555 1_555
H13 C27 1_555 1_555
C28 C27 1_555 1_555
H14 C28 1_555 1_555
C29 C28 1_555 1_555
C30 C29 1_555 1_555
C31 C26 1_555 1_555
H16 C31 1_555 1_555
Ca8 O1 1_555 1_555
N1 C8 1_555 1_555
N2 C9 1_555 1_555
O1 C1 1_555 1_555
O2 C1 1_555 1_555
O3 C16 1_555 1_555
O4 C16 1_555 1_555
Ca8_3 O3 1_555 1_555
Ca8_4 O7 1_555 1_555
O27 Ca8 1_555 1_555
C6 C7 1_555 1_555
C14 C15 1_555 1_555
C17 N1 1_555 1_555
C22 C23 1_555 1_555
C25 N2 1_555 1_555
C30 C31 1_555 1_555
O20 Ca8_2 1_555 1_555
O17 Ca8_4 1_555 1_555
O29 Ca3 1_555 1_555
C33 C34 1_555 1_555
C34 C35 1_555 1_555
C35 H18 1_555 1_555
C36 C35 1_555 1_555
H19 C36 1_555 1_555
C37 C36 1_555 1_555
C38 C37 1_555 1_555
H20 C38 1_555 1_555
C39 C34 1_555 1_555
H21 C39 1_555 1_555
C40 C37 1_555 1_555
C41 C40 1_555 1_555
C42 C41 1_555 1_555
C43 C42 1_555 1_555
H22 C43 1_555 1_555
C44 C43 1_555 1_555
H23 C44 1_555 1_555
C45 C44 1_555 1_555
C46 C45 1_555 1_555
H24 C46 1_555 1_555
C47 C42 1_555 1_555
H25 C47 1_555 1_555
C48 C45 1_555 1_555
C49 C50 1_555 1_555
C50 C51 1_555 1_555
C51 H26 1_555 1_555
C52 C51 1_555 1_555
H27 C52 1_555 1_555
C53 C52 1_555 1_555
C54 C53 1_555 1_555
H28 C54 1_555 1_555
C55 C50 1_555 1_555
H29 C55 1_555 1_555
C56 C53 1_555 1_555
C57 C49 1_555 1_555
C58 C57 1_555 1_555
C59 C58 1_555 1_555
H30 C59 1_555 1_555
C60 C59 1_555 1_555
H31 C60 1_555 1_555
C61 C60 1_555 1_555
C62 C61 1_555 1_555
C63 C58 1_555 1_555
H33 C63 1_555 1_555
N3 C40 1_555 1_555
N4 C41 1_555 1_555
O17 C33 1_555 1_555
O10 C33 1_555 1_555
O20 C48 1_555 1_555
C38 C39 1_555 1_555
C46 C47 1_555 1_555
C48 O22 1_555 1_555
C49 N3 1_555 1_555
C54 C55 1_555 1_555
C57 N4 1_555 1_555
C62 C63 1_555 1_555
O29 C64 1_555 1_555
H34 O13 1_555 1_555

#END
