
###############################################################################
#
# This file contains modified crystal structure data generated from the
# MOF subset of the Cambridge Structural Database (CSD) v543 
# hosted by the Cambridge Crystallographic Data Centre (CCDC).
#
# This work is licensed under the Creative Commons
# Attribution-NonCommercial-ShareAlike 4.0 International License.
# To view a copy of this license, visit
# http://creativecommons.org/licenses/by-nc-sa/4.0/
# or send a letter to
# Creative Commons, PO Box 1866, Mountain View, CA 94042, USA.
#
# CIF created using the CSD Python API on 29 September 2022
# The structure has been converted into the P1 space group
# The structure has a 3D framework
# The original CSD entry SASYAQ is in the triclinic crystal system
# The framework has been calculated to contain at least 10.0% void space
# The void calculation uses a probe of radius 1.32A, grid spacing 0.4
#
###############################################################################

data_SASYAQ
_chemical_formula_moiety         '(C64 H34 Ca3 N4 O16)n'
_symmetry_cell_setting           triclinic
_symmetry_space_group_name_H-M   'P 1'
_symmetry_Int_Tables_number      1
_space_group_name_Hall           'P 1'
loop_
_symmetry_equiv_pos_site_id
_symmetry_equiv_pos_as_xyz
1 x,y,z
_cell_length_a                   9.912(2)
_cell_length_b                   12.109(3)
_cell_length_c                   16.558(4)
_cell_angle_alpha                103.792(7)
_cell_angle_beta                 99.934(7)
_cell_angle_gamma                100.425(8)
_cell_volume                     1849.19
loop_
_atom_site_label
_atom_site_type_symbol
_atom_site_fract_x
_atom_site_fract_y
_atom_site_fract_z
Ca15 Ca -0.000000 -0.000000 -0.000000
O21 O 0.4596(6) 0.1598(5) 0.1596(3)
Ca15_2 Ca -0.000000 -0.000000 1.000000
O24 O 0.4221(5) 0.0616(5) 0.9409(3)
O28 O 0.2183(5) 0.0689(5) 0.9744(3)
Ca1 Ca 0.36095(14) 0.97666(13) 0.06385(8)
Ca15_3 Ca -0.000000 1.000000 -0.000000
O17 O 0.3137(6) 0.9331(5) 0.1951(3)
O19 O 0.1541(5) 0.9965(5) 0.1200(3)
O26 O 0.5779(5) 0.9384(5) 0.0591(3)
N1 N 0.1213(7) 0.1901(5) 0.5683(3)
C2 C 0.1653(8) 0.0340(7) 0.2680(4)
C3 C 0.1094(9) 0.1307(7) 0.2713(5)
H1 H 0.096990 0.160493 0.223054
C4 C 0.0714(9) 0.1847(8) 0.3445(5)
H2 H 0.035789 0.252881 0.346945
C5 C 0.0850(8) 0.1393(7) 0.4158(4)
C6 C 0.1391(8) 0.0427(7) 0.4117(4)
H3 H 0.148809 0.011282 0.459242
C8 C 0.0490(8) 0.2005(7) 0.4955(4)
C17 C 0.0443(8) 0.3499(6) 0.6443(4)
C18 C 0.1120(8) 0.2582(6) 0.6436(4)
C19 C 0.1699(8) 0.2236(6) 0.7199(4)
C20 C 0.0972(7) 0.2269(6) 0.7853(4)
H9 H 0.015970 0.258341 0.783073
C21 C 0.1421(7) 0.1849(6) 0.8528(4)
H10 H 0.090969 0.186229 0.896438
C22 C 0.2622(7) 0.1405(6) 0.8576(4)
C23 C 0.3376(8) 0.1405(6) 0.7939(4)
H11 H 0.422274 0.113828 0.798262
C24 C 0.2901(8) 0.1791(7) 0.7247(4)
H12 H 0.339533 0.175194 0.680219
C25 C 0.3047(7) 0.0866(6) 0.9283(4)
C26 C 0.0615(8) 0.4537(6) 0.7182(4)
C27 C 0.1882(8) 0.4996(6) 0.7788(5)
H13 H 0.263646 0.461303 0.776006
C28 C 0.2041(8) 0.6012(7) 0.8432(5)
H14 H 0.291227 0.633044 0.883801
C29 C 0.0936(8) 0.6573(7) 0.8489(5)
C32 C 0.1131(8) 0.7683(6) 0.9194(4)
O7 O 0.2352(6) 0.8120(5) 0.9640(4)
O8 O 0.0072(6) 0.8091(5) 0.9287(3)
Ca11 Ca 0.63905(14) 0.02334(13) 0.93615(8)
Ca15_4 Ca -0.000000 1.000000 1.000000
C1 C 0.2130(8) 0.9818(7) 0.1901(4)
C7 C 0.1801(8) 0.9901(7) 0.3391(4)
H4 H 0.218663 0.923435 0.337438
N4 N 0.0436(7) 0.6509(5) 0.4277(3)
C41 C 0.0493(8) 0.7286(7) 0.5002(4)
C42 C 0.1662(8) 0.7356(7) 0.5723(4)
C43 C 0.2383(9) 0.8422(8) 0.6302(5)
H22 H 0.214164 0.912613 0.623796
C44 C 0.3452(10) 0.8453(8) 0.6971(5)
H23 H 0.393265 0.918124 0.737000
C45 C 0.3833(9) 0.7445(7) 0.7068(5)
C46 C 0.3155(9) 0.6386(7) 0.6466(5)
H24 H 0.342840 0.568671 0.651224
C47 C 0.2083(9) 0.6358(7) 0.5803(4)
H25 H 0.162540 0.563362 0.539292
C48 C 0.4933(8) 0.7528(7) 0.7817(5)
C62 C 0.0332(9) 0.3895(7) 0.2117(5)
H32 H 0.109919 0.352918 0.208388
C63 C 0.0468(8) 0.4900(7) 0.2772(4)
H33 H 0.132343 0.520303 0.319388
O11 O 0.5404(6) 0.8402(5) 0.8404(3)
O12 O 0.5368(7) 0.6558(5) 0.7795(4)
H34 H 0.610511 0.669983 0.817676
Ca15_5 Ca 1.000000 -0.000000 -0.000000
Ca15_6 Ca 1.000000 -0.000000 1.000000
Ca15_7 Ca 1.000000 1.000000 -0.000000
N2 N 0.9564(7) 0.3491(5) 0.5723(3)
C9 C 0.9507(8) 0.2714(7) 0.4998(4)
C10 C 0.8338(8) 0.2644(7) 0.4277(4)
C11 C 0.7617(9) 0.1578(8) 0.3698(5)
H5 H 0.785836 0.087387 0.376204
C12 C 0.6548(10) 0.1547(8) 0.3029(5)
H6 H 0.606735 0.081876 0.263000
C13 C 0.6167(9) 0.2555(7) 0.2932(5)
C14 C 0.6845(9) 0.3614(7) 0.3534(5)
H7 H 0.657160 0.431329 0.348776
C15 C 0.7917(9) 0.3642(7) 0.4197(4)
H8 H 0.837460 0.436638 0.460708
C16 C 0.5067(8) 0.2472(7) 0.2183(5)
C30 C 0.9668(9) 0.6105(7) 0.7883(5)
H15 H 0.890081 0.647082 0.791612
C31 C 0.9532(8) 0.5100(7) 0.7228(4)
H16 H 0.867657 0.479697 0.680612
O4 O 0.4632(7) 0.3442(5) 0.2205(4)
H17 H 0.389489 0.330017 0.182324
Ca15_8 Ca 1.000000 1.000000 1.000000
O32 O 0.9928(6) 0.1909(5) 0.0713(3)
C33 C 0.7870(8) 0.0182(7) 0.8099(4)
C39 C 0.8199(8) 0.0099(7) 0.6609(4)
H21 H 0.781337 0.076565 0.662562
O9 O 0.6863(6) 0.0669(5) 0.8049(3)
O10 O 0.8459(5) 0.0035(5) 0.8800(3)
O30 O 0.7817(5) 0.9311(5) 0.0256(3)
N3 N 0.8787(7) 0.8099(5) 0.4317(3)
C34 C 0.8347(8) 0.9660(7) 0.7320(4)
C35 C 0.8906(9) 0.8693(7) 0.7287(5)
H18 H 0.903010 0.839507 0.776946
C36 C 0.9286(9) 0.8153(8) 0.6555(5)
H19 H 0.964211 0.747119 0.653055
C37 C 0.9150(8) 0.8607(7) 0.5842(4)
C38 C 0.8609(8) 0.9573(7) 0.5883(4)
H20 H 0.851191 0.988718 0.540758
C40 C 0.9510(8) 0.7995(7) 0.5045(4)
C49 C 0.9557(8) 0.6501(6) 0.3557(4)
C50 C 0.8880(8) 0.7418(6) 0.3564(4)
C51 C 0.8301(8) 0.7764(6) 0.2801(4)
C52 C 0.9028(7) 0.7731(6) 0.2147(4)
H26 H 0.984030 0.741659 0.216927
C53 C 0.8579(7) 0.8151(6) 0.1472(4)
H27 H 0.909031 0.813771 0.103562
C54 C 0.7378(7) 0.8595(6) 0.1424(4)
C55 C 0.6624(8) 0.8595(6) 0.2061(4)
H28 H 0.577726 0.886172 0.201738
C56 C 0.7099(8) 0.8209(7) 0.2753(4)
H29 H 0.660467 0.824806 0.319781
C57 C 0.6953(7) 0.9134(6) 0.0717(4)
C58 C 0.9385(8) 0.5463(6) 0.2818(4)
C59 C 0.8118(8) 0.5004(6) 0.2212(5)
H30 H 0.736354 0.538697 0.223994
C60 C 0.7959(8) 0.3988(7) 0.1568(5)
H31 H 0.708773 0.366956 0.116199
C61 C 0.9064(8) 0.3427(7) 0.1511(5)
C64 C 0.8869(8) 0.2317(6) 0.0806(4)
O15 O 0.7648(6) 0.1880(5) 0.0360(4)
loop_
_geom_bond_atom_site_label_1
_geom_bond_atom_site_label_2
_geom_bond_site_symmetry_1
_geom_bond_site_symmetry_2
Ca15_2 O28 1_555 1_555
O17 Ca1 1_555 1_555
O19 Ca1 1_555 1_555
O26 Ca1 1_555 1_555
Ca15_3 O19 1_555 1_555
N1 C8 1_555 1_555
C2 C3 1_555 1_555
C3 H1 1_555 1_555
C4 C3 1_555 1_555
H2 C4 1_555 1_555
C5 C4 1_555 1_555
C6 C5 1_555 1_555
H3 C6 1_555 1_555
C8 C5 1_555 1_555
C18 N1 1_555 1_555
C19 C18 1_555 1_555
C20 C19 1_555 1_555
H9 C20 1_555 1_555
C21 C20 1_555 1_555
H10 C21 1_555 1_555
C22 C21 1_555 1_555
C23 C22 1_555 1_555
H11 C23 1_555 1_555
C24 C19 1_555 1_555
H12 C24 1_555 1_555
C25 C22 1_555 1_555
C26 C17 1_555 1_555
C27 C26 1_555 1_555
H13 C27 1_555 1_555
C28 C27 1_555 1_555
H14 C28 1_555 1_555
C29 C28 1_555 1_555
C32 C29 1_555 1_555
O24 C25 1_555 1_555
O28 C25 1_555 1_555
O7 C32 1_555 1_555
O8 C32 1_555 1_555
Ca11 O24 1_555 1_555
Ca15_4 O8 1_555 1_555
C17 C18 1_555 1_555
C23 C24 1_555 1_555
H4 C7 1_555 1_555
O17 C1 1_555 1_555
O19 C1 1_555 1_555
N4 C41 1_555 1_555
C42 C41 1_555 1_555
C43 C42 1_555 1_555
H22 C43 1_555 1_555
C44 C43 1_555 1_555
H23 C44 1_555 1_555
C45 C44 1_555 1_555
C46 C45 1_555 1_555
H24 C46 1_555 1_555
C47 C42 1_555 1_555
H25 C47 1_555 1_555
C48 C45 1_555 1_555
H32 C62 1_555 1_555
H33 C63 1_555 1_555
O11 C48 1_555 1_555
O12 C48 1_555 1_555
H34 O12 1_555 1_555
C46 C47 1_555 1_555
C62 C63 1_555 1_555
N2 C9 1_555 1_555
C10 C9 1_555 1_555
C11 C10 1_555 1_555
H5 C11 1_555 1_555
C12 C11 1_555 1_555
H6 C12 1_555 1_555
C13 C12 1_555 1_555
C14 C13 1_555 1_555
H7 C14 1_555 1_555
C15 C10 1_555 1_555
H8 C15 1_555 1_555
C16 C13 1_555 1_555
H15 C30 1_555 1_555
H16 C31 1_555 1_555
O21 C16 1_555 1_555
O4 C16 1_555 1_555
H17 O4 1_555 1_555
O32 Ca15_5 1_555 1_555
C14 C15 1_555 1_555
C30 C31 1_555 1_555
H21 C39 1_555 1_555
O9 C33 1_555 1_555
O10 Ca15_6 1_555 1_555
Ca11 O9 1_555 1_555
C33 O10 1_555 1_555
O10 Ca11 1_555 1_555
O30 Ca15_7 1_555 1_555
N3 C40 1_555 1_555
C34 C35 1_555 1_555
C35 H18 1_555 1_555
C36 C35 1_555 1_555
H19 C36 1_555 1_555
C37 C36 1_555 1_555
C38 C37 1_555 1_555
H20 C38 1_555 1_555
C40 C37 1_555 1_555
C50 N3 1_555 1_555
C51 C50 1_555 1_555
C52 C51 1_555 1_555
H26 C52 1_555 1_555
C53 C52 1_555 1_555
H27 C53 1_555 1_555
C54 C53 1_555 1_555
C55 C54 1_555 1_555
H28 C55 1_555 1_555
C56 C51 1_555 1_555
H29 C56 1_555 1_555
C57 C54 1_555 1_555
C58 C49 1_555 1_555
C59 C58 1_555 1_555
H30 C59 1_555 1_555
C60 C59 1_555 1_555
H31 C60 1_555 1_555
C61 C60 1_555 1_555
C64 C61 1_555 1_555
O26 C57 1_555 1_555
O30 C57 1_555 1_555
O15 C64 1_555 1_555
O32 C64 1_555 1_555
C49 C50 1_555 1_555
C55 C56 1_555 1_555

#END
