
###############################################################################
#
# This file contains modified crystal structure data generated from the
# MOF subset of the Cambridge Structural Database (CSD) v543 
# hosted by the Cambridge Crystallographic Data Centre (CCDC).
#
# This work is licensed under the Creative Commons
# Attribution-NonCommercial-ShareAlike 4.0 International License.
# To view a copy of this license, visit
# http://creativecommons.org/licenses/by-nc-sa/4.0/
# or send a letter to
# Creative Commons, PO Box 1866, Mountain View, CA 94042, USA.
#
# CIF created using the CSD Python API on 29 September 2022
# The structure has been converted into the P1 space group
# The structure has a 3D framework
# The original CSD entry SATNOR is in the rhombohedral crystal system
# The framework has been calculated to contain at least 10.0% void space
# The void calculation uses a probe of radius 1.32A, grid spacing 0.4
#
###############################################################################

data_SATNOR
_chemical_formula_moiety         '(C72 H18 Co5 O48)n'
_symmetry_cell_setting           triclinic
_symmetry_space_group_name_H-M   'P 1'
_symmetry_Int_Tables_number      1
_space_group_name_Hall           'P 1'
loop_
_symmetry_equiv_pos_site_id
_symmetry_equiv_pos_as_xyz
1 x,y,z
_cell_length_a                   25.885(3)
_cell_length_b                   25.885(3)
_cell_length_c                   6.8058(17)
_cell_angle_alpha                90
_cell_angle_beta                 90
_cell_angle_gamma                120
_cell_volume                     3949.17
loop_
_atom_site_label
_atom_site_type_symbol
_atom_site_fract_x
_atom_site_fract_y
_atom_site_fract_z
Co1 Co 0.02878(4) 0.64694(5) 0.35791(15)
O6 O 0.0320(3) 0.5944(4) 0.5667(7)
O8 O 0.0326(4) 0.7035(3) 0.1343(8)
O14 O 0.0811(3) 0.7257(2) 0.4947(7)
Co4 Co 0.01973(5) 0.71517(6) 0.69124(15)
O4 O 0.7709(2) 0.6986(3) 0.0999(7)
O9 O 0.6340(4) 0.6299(3) 0.1991(8)
O12 O 0.6888(2) 0.7478(3) 0.1720(7)
Co2 Co 0.71517(6) 0.69545(4) 0.30876(15)
Co5 Co 0.95149(6) 0.63789(4) 0.02458(15)
C1 C 0.9131(3) 0.6526(3) 0.4053(11)
C2 C 0.8736(4) 0.6606(4) 0.5463(11)
C3 C 0.8891(3) 0.6778(3) 0.7430(11)
C4 C 0.8182(4) 0.6498(3) 0.4749(11)
H1 H 0.8086 0.6383 0.3445
O1 O 0.8958(2) 0.6347(3) 0.2334(7)
O2 O 0.9632(3) 0.6625(2) 0.4676(8)
O3 O 0.9410(2) 0.6888(2) 0.8280(7)
C5 C 0.7536(3) 0.6807(3) 0.9280(11)
C6 C 0.7931(4) 0.6727(4) 0.7870(11)
C7 C 0.7776(3) 0.6555(3) 0.5903(11)
C8 C 0.8485(4) 0.6835(3) 0.8584(11)
H2 H 0.8581 0.6950 0.9888
O5 O 0.6347(3) 0.7389(4) 0.7666(7)
O7 O 0.7035(3) 0.6708(2) 0.8657(8)
O10 O 0.7257(2) 0.6445(2) 0.5053(7)
O11 O 0.9779(2) 0.5855(3) 0.1613(7)
O13 O 0.5855(3) 0.6077(2) 0.8387(7)
Co6 Co 0.63789(4) 0.68639(5) 0.97542(15)
Co7 Co 0.64694(5) 0.61816(6) 0.64209(15)
O4_2 O 0.3014(3) 0.0722(4) 0.0999(7)
O9_2 O 0.3701(3) 0.0042(5) 0.1991(8)
Co2_2 Co 0.30455(4) 0.01973(7) 0.30876(15)
Co5_2 Co 0.36211(4) 0.31361(7) 0.02458(15)
C1_2 C 0.3474(3) 0.2605(4) 0.4053(11)
C2_2 C 0.3394(4) 0.2130(6) 0.5463(11)
C3_2 C 0.3222(3) 0.2113(4) 0.7430(11)
C4_2 C 0.3502(3) 0.1684(5) 0.4749(11)
H1_2 H 0.3617 0.1703 0.3445
O1_2 O 0.3653(3) 0.2611(4) 0.2334(7)
O2_2 O 0.3375(2) 0.3007(4) 0.4676(8)
O3_2 O 0.3112(2) 0.2522(3) 0.8280(7)
Co1_2 Co 0.35306(5) 0.38184(6) 0.35791(15)
C5_2 C 0.3193(3) 0.0728(4) 0.9280(11)
C6_2 C 0.3273(4) 0.1203(6) 0.7870(11)
C7_2 C 0.3445(3) 0.1220(4) 0.5903(11)
C8_2 C 0.3165(3) 0.1649(5) 0.8584(11)
H2_2 H 0.3050 0.1630 0.9888
O6_2 O 0.4056(4) 0.4375(5) 0.5667(7)
O7_2 O 0.3292(2) 0.0326(4) 0.8657(8)
O8_2 O 0.2965(3) 0.3292(5) 0.1343(8)
O10_2 O 0.3555(2) 0.0811(3) 0.5053(7)
O11_2 O 0.4145(3) 0.3923(4) 0.1613(7)
O14_2 O 0.2743(2) 0.3555(4) 0.4947(7)
Co4_2 Co 0.28483(6) 0.30455(8) 0.69124(15)
Co7_2 Co 0.38184(6) 0.02878(8) 0.64209(15)
O12_2 O 0.2522(3) 0.9410(4) 0.1720(7)
O5_2 O 0.2611(4) 0.8958(5) 0.7666(7)
O13_2 O 0.3923(2) 0.9779(4) 0.8387(7)
Co6_2 Co 0.31361(5) 0.95149(6) 0.97542(15)
O12_3 O 0.0590(4) 0.3112(2) 0.1720(7)
O5_3 O 0.1042(5) 0.3653(3) 0.7666(7)
O13_3 O 0.0221(4) 0.4145(3) 0.8387(7)
Co6_3 Co 0.04851(6) 0.36211(4) 0.97542(15)
O4_3 O 0.9278(4) 0.2291(2) 0.0999(7)
O9_3 O 0.9958(5) 0.3660(4) 0.1991(8)
Co2_3 Co 0.98027(7) 0.28483(6) 0.30876(15)
Co5_3 Co 0.68639(7) 0.04851(6) 0.02458(15)
C1_3 C 0.7395(4) 0.0869(3) 0.4053(11)
C2_3 C 0.7870(6) 0.1264(4) 0.5463(11)
C3_3 C 0.7887(4) 0.1109(3) 0.7430(11)
C4_3 C 0.8316(5) 0.1818(4) 0.4749(11)
H1_3 H 0.8297 0.1914 0.3445
O1_3 O 0.7389(4) 0.1042(2) 0.2334(7)
O2_3 O 0.6993(4) 0.0368(3) 0.4676(8)
O3_3 O 0.7478(3) 0.0590(2) 0.8280(7)
C5_3 C 0.9272(4) 0.2464(3) 0.9280(11)
C6_3 C 0.8797(6) 0.2069(4) 0.7870(11)
C7_3 C 0.8780(4) 0.2224(3) 0.5903(11)
C8_3 C 0.8351(5) 0.1515(4) 0.8584(11)
H2_3 H 0.8370 0.1419 0.9888
O7_3 O 0.9674(4) 0.2965(3) 0.8657(8)
O10_3 O 0.9189(3) 0.2743(2) 0.5053(7)
O11_3 O 0.6077(4) 0.0221(2) 0.1613(7)
Co7_3 Co 0.97122(8) 0.35306(5) 0.64209(15)
Co1_3 Co 0.61816(6) 0.97122(4) 0.35791(15)
O6_3 O 0.5625(5) 0.9680(3) 0.5667(7)
O8_3 O 0.6708(5) 0.9674(4) 0.1343(8)
O14_3 O 0.6445(4) 0.9189(3) 0.4947(7)
Co4_3 Co 0.69545(8) 0.98027(5) 0.69124(15)
C3_4 C 0.5558(3) 0.0111(3) 0.0763(11)
C5_4 C 0.4202(3) 0.0141(3) 0.2614(11)
C6_4 C 0.4597(4) 0.0061(4) 0.1204(11)
C8_4 C 0.5151(4) 0.0169(3) 0.1918(11)
H2_4 H 0.5247 0.0284 0.3222
O4_4 O 0.4375(2) 0.0320(3) 0.4333(7)
O9_4 O 0.3007(4) 0.9632(3) 0.5324(8)
C1_4 C 0.5798(3) 0.9859(3) 0.7386(11)
C2_4 C 0.5403(4) 0.9939(4) 0.8796(11)
C4_4 C 0.4849(4) 0.9831(3) 0.8082(11)
H1_4 H 0.4753 0.9716 0.6778
O2_4 O 0.6299(3) 0.9958(2) 0.8009(8)
C7_4 C 0.4442(3) 0.9889(3) 0.9237(11)
O6_4 O 0.6986(3) 0.9278(4) 0.9001(7)
O9_5 O 0.0368(3) 0.3375(5) 0.5324(8)
C1_5 C 0.0141(3) 0.5938(4) 0.7386(11)
C2_5 C 0.0061(4) 0.5463(6) 0.8796(11)
C4_5 C 0.0169(3) 0.5017(5) 0.8082(11)
H1_5 H 0.0284 0.5036 0.6778
O2_5 O 0.0042(2) 0.6340(4) 0.8009(8)
C7_5 C 0.0111(3) 0.4554(4) 0.9237(11)
O6_5 O 0.0722(4) 0.7709(5) 0.9001(7)
C3_5 C 0.9889(3) 0.5446(4) 0.0763(11)
C5_5 C 0.9859(3) 0.4062(4) 0.2614(11)
C6_5 C 0.9939(4) 0.4537(6) 0.1204(11)
C8_5 C 0.9831(3) 0.4983(5) 0.1918(11)
H2_5 H 0.9716 0.4964 0.3222
O4_5 O 0.9680(3) 0.4056(4) 0.4333(7)
C3_6 C 0.4554(4) 0.4442(3) 0.0763(11)
C5_6 C 0.5938(4) 0.5798(3) 0.2614(11)
C6_6 C 0.5463(6) 0.5403(4) 0.1204(11)
C8_6 C 0.5017(5) 0.4849(4) 0.1918(11)
H2_6 H 0.5036 0.4753 0.3222
O4_6 O 0.5944(4) 0.5625(2) 0.4333(7)
O9_6 O 0.6625(5) 0.6993(4) 0.5324(8)
C1_6 C 0.4062(4) 0.4202(3) 0.7386(11)
C2_6 C 0.4537(6) 0.4597(4) 0.8796(11)
C4_6 C 0.4983(5) 0.5151(4) 0.8082(11)
H1_6 H 0.4964 0.5247 0.6778
O2_6 O 0.3660(4) 0.3701(3) 0.8009(8)
C7_6 C 0.5446(4) 0.5558(3) 0.9237(11)
O6_6 O 0.2291(5) 0.3014(3) 0.9001(7)
C1_7 C 0.2464(3) 0.3193(3) 0.0720(11)
C2_7 C 0.2069(4) 0.3273(4) 0.2130(11)
C3_7 C 0.2224(3) 0.3445(3) 0.4097(11)
C4_7 C 0.1515(4) 0.3165(3) 0.1416(11)
H1_7 H 0.1419 0.3050 0.0112
C5_7 C 0.0869(3) 0.3474(3) 0.5947(11)
C6_7 C 0.1264(4) 0.3394(4) 0.4537(11)
C7_7 C 0.1109(3) 0.3222(3) 0.2570(11)
C8_7 C 0.1818(4) 0.3502(3) 0.5251(11)
H2_7 H 0.1914 0.3617 0.6555
C1_8 C 0.6807(3) 0.9272(4) 0.0720(11)
C2_8 C 0.6727(4) 0.8797(6) 0.2130(11)
C3_8 C 0.6555(3) 0.8780(4) 0.4097(11)
C4_8 C 0.6835(3) 0.8351(5) 0.1416(11)
H1_8 H 0.6950 0.8370 0.0112
C5_8 C 0.6526(3) 0.7395(4) 0.5947(11)
C6_8 C 0.6606(4) 0.7870(6) 0.4537(11)
C7_8 C 0.6778(3) 0.7887(4) 0.2570(11)
C8_8 C 0.6498(3) 0.8316(5) 0.5251(11)
H2_8 H 0.6383 0.8297 0.6555
C1_9 C 0.0728(4) 0.7536(3) 0.0720(11)
C2_9 C 0.1203(6) 0.7931(4) 0.2130(11)
C3_9 C 0.1220(4) 0.7776(3) 0.4097(11)
C4_9 C 0.1649(5) 0.8485(4) 0.1416(11)
H1_9 H 0.1630 0.8581 0.0112
C5_9 C 0.2605(4) 0.9131(3) 0.5947(11)
C6_9 C 0.2130(6) 0.8736(4) 0.4537(11)
C7_9 C 0.2113(4) 0.8891(3) 0.2570(11)
C8_9 C 0.1684(5) 0.8182(4) 0.5251(11)
H2_9 H 0.1703 0.8086 0.6555
loop_
_geom_bond_atom_site_label_1
_geom_bond_atom_site_label_2
_geom_bond_site_symmetry_1
_geom_bond_site_symmetry_2
O6 Co1 1_555 1_555
O8 Co1 1_555 1_555
O14 Co1 1_555 1_555
O14 Co4 1_555 1_555
O9 Co2 1_555 1_555
O12 Co2 1_555 1_555
Co2 O4 1_555 1_555
C1 C2 1_555 1_555
C2 C3 1_555 1_555
C3 O3 1_555 1_555
C4 C2 1_555 1_555
H1 C4 1_555 1_555
O1 C1 1_555 1_555
O2 C1 1_555 1_555
C5 C6 1_555 1_555
C6 C7 1_555 1_555
C7 C4 1_555 1_555
C8 C3 1_555 1_555
H2 C8 1_555 1_555
O5 Co6 1_555 1_555
O7 C5 1_555 1_555
O10 C7 1_555 1_555
O13 Co6 1_555 1_555
Co5 O1 1_555 1_555
Co6 O7 1_555 1_555
Co7 O7 1_555 1_555
Co2 O10 1_555 1_555
C6 C8 1_555 1_555
O10 Co7 1_555 1_555
O11 Co5 1_555 1_555
O13 Co7 1_555 1_555
O9_2 Co2_2 1_555 1_555
Co2_2 O4_2 1_555 1_555
C1_2 C2_2 1_555 1_555
C2_2 C3_2 1_555 1_555
C3_2 O3_2 1_555 1_555
C4_2 C2_2 1_555 1_555
H1_2 C4_2 1_555 1_555
O1_2 C1_2 1_555 1_555
O2_2 C1_2 1_555 1_555
O3_2 Co4_2 1_555 1_555
Co1_2 O2_2 1_555 1_555
C5_2 C6_2 1_555 1_555
C6_2 C7_2 1_555 1_555
C7_2 C4_2 1_555 1_555
C8_2 C3_2 1_555 1_555
H2_2 C8_2 1_555 1_555
O6_2 Co1_2 1_555 1_555
O7_2 C5_2 1_555 1_555
O8_2 Co1_2 1_555 1_555
O10_2 C7_2 1_555 1_555
O11_2 Co1_2 1_555 1_555
O14_2 Co1_2 1_555 1_555
Co5_2 O1_2 1_555 1_555
Co4_2 O2_2 1_555 1_555
Co7_2 O7_2 1_555 1_555
Co2_2 O10_2 1_555 1_555
C6_2 C8_2 1_555 1_555
O8_2 Co5_2 1_555 1_555
O10_2 Co7_2 1_555 1_555
O11_2 Co5_2 1_555 1_555
O14_2 Co4_2 1_555 1_555
O5_2 Co6_2 1_555 1_555
O13_2 Co6_2 1_555 1_555
O5_3 Co6_3 1_555 1_555
O13_3 Co6_3 1_555 1_555
O9_3 Co2_3 1_555 1_555
Co2_3 O4_3 1_555 1_555
C1_3 C2_3 1_555 1_555
C2_3 C3_3 1_555 1_555
C3_3 O3_3 1_555 1_555
C4_3 C2_3 1_555 1_555
H1_3 C4_3 1_555 1_555
O1_3 C1_3 1_555 1_555
O2_3 C1_3 1_555 1_555
C5_3 C6_3 1_555 1_555
C6_3 C7_3 1_555 1_555
C7_3 C4_3 1_555 1_555
C8_3 C3_3 1_555 1_555
H2_3 C8_3 1_555 1_555
O7_3 C5_3 1_555 1_555
O10_3 C7_3 1_555 1_555
Co5_3 O1_3 1_555 1_555
Co7_3 O7_3 1_555 1_555
Co2_3 O10_3 1_555 1_555
C6_3 C8_3 1_555 1_555
O10_3 Co7_3 1_555 1_555
O11_3 Co5_3 1_555 1_555
O6_3 Co1_3 1_555 1_555
O8_3 Co1_3 1_555 1_555
O14_3 Co1_3 1_555 1_555
O14_3 Co4_3 1_555 1_555
C3_4 O11_3 1_555 1_555
C5_4 C6_4 1_555 1_555
C8_4 C3_4 1_555 1_555
H2_4 C8_4 1_555 1_555
O4_4 C5_4 1_555 1_555
O9_2 C5_4 1_555 1_555
Co7_2 O4_4 1_555 1_555
C6_4 C8_4 1_555 1_555
C1_4 C2_4 1_555 1_555
C4_4 C2_4 1_555 1_555
H1_4 C4_4 1_555 1_555
O6_3 C1_4 1_555 1_555
O2_4 C1_4 1_555 1_555
Co4_3 O2_4 1_555 1_555
C7_4 C4_4 1_555 1_555
O6_4 Co4_3 1_555 1_555
O13_2 C7_4 1_555 1_555
C1_5 C2_5 1_555 1_555
C4_5 C2_5 1_555 1_555
H1_5 C4_5 1_555 1_555
O6 C1_5 1_555 1_555
O2_5 C1_5 1_555 1_555
Co4 O2_5 1_555 1_555
C7_5 C4_5 1_555 1_555
O6_5 Co4 1_555 1_555
O13_3 C7_5 1_555 1_555
C3_5 O11 1_555 1_555
C5_5 C6_5 1_555 1_555
C8_5 C3_5 1_555 1_555
H2_5 C8_5 1_555 1_555
O4_5 C5_5 1_555 1_555
O9_3 C5_5 1_555 1_555
Co7_3 O4_5 1_555 1_555
C6_5 C8_5 1_555 1_555
C3_6 O11_2 1_555 1_555
C5_6 C6_6 1_555 1_555
C8_6 C3_6 1_555 1_555
H2_6 C8_6 1_555 1_555
O4_6 C5_6 1_555 1_555
O9 C5_6 1_555 1_555
O9_6 Co7 1_555 1_555
Co7 O4_6 1_555 1_555
C6_6 C8_6 1_555 1_555
O9_6 Co2 1_555 1_555
C1_6 C2_6 1_555 1_555
C4_6 C2_6 1_555 1_555
H1_6 C4_6 1_555 1_555
O6_2 C1_6 1_555 1_555
O2_6 C1_6 1_555 1_555
Co4_2 O2_6 1_555 1_555
C7_6 C4_6 1_555 1_555
O6_6 Co4_2 1_555 1_555
O13 C7_6 1_555 1_555
C1_7 C2_7 1_555 1_555
C2_7 C3_7 1_555 1_555
C3_7 O14_2 1_555 1_555
C4_7 C2_7 1_555 1_555
H1_7 C4_7 1_555 1_555
O8_2 C1_7 1_555 1_555
C5_7 C6_7 1_555 1_555
C6_7 C7_7 1_555 1_555
C7_7 C4_7 1_555 1_555
C8_7 C3_7 1_555 1_555
H2_7 C8_7 1_555 1_555
O5_3 C5_7 1_555 1_555
O9_5 C5_7 1_555 1_555
O12_3 C7_7 1_555 1_555
C6_7 C8_7 1_555 1_555
C1_8 C2_8 1_555 1_555
C2_8 C3_8 1_555 1_555
C3_8 O14_3 1_555 1_555
C4_8 C2_8 1_555 1_555
H1_8 C4_8 1_555 1_555
O8_3 C1_8 1_555 1_555
C5_8 C6_8 1_555 1_555
C6_8 C7_8 1_555 1_555
C7_8 C4_8 1_555 1_555
C8_8 C3_8 1_555 1_555
H2_8 C8_8 1_555 1_555
O5 C5_8 1_555 1_555
O9_6 C5_8 1_555 1_555
O12 C7_8 1_555 1_555
C6_8 C8_8 1_555 1_555
C1_9 C2_9 1_555 1_555
C2_9 C3_9 1_555 1_555
C3_9 O14 1_555 1_555
C4_9 C2_9 1_555 1_555
H1_9 C4_9 1_555 1_555
O8 C1_9 1_555 1_555
C5_9 C6_9 1_555 1_555
C6_9 C7_9 1_555 1_555
C7_9 C4_9 1_555 1_555
C8_9 C3_9 1_555 1_555
H2_9 C8_9 1_555 1_555
O5_2 C5_9 1_555 1_555
O9_4 C5_9 1_555 1_555
O12_2 C7_9 1_555 1_555
C6_9 C8_9 1_555 1_555

#END
