
###############################################################################
#
# This file contains modified crystal structure data generated from the
# MOF subset of the Cambridge Structural Database (CSD) v543 
# hosted by the Cambridge Crystallographic Data Centre (CCDC).
#
# This work is licensed under the Creative Commons
# Attribution-NonCommercial-ShareAlike 4.0 International License.
# To view a copy of this license, visit
# http://creativecommons.org/licenses/by-nc-sa/4.0/
# or send a letter to
# Creative Commons, PO Box 1866, Mountain View, CA 94042, USA.
#
# CIF created using the CSD Python API on 29 September 2022
# The structure has been converted into the P1 space group
# The structure has a 3D framework
# The original CSD entry SATNOR05 is in the rhombohedral crystal system
# The framework has been calculated to contain at least 10.0% void space
# The void calculation uses a probe of radius 1.32A, grid spacing 0.4
#
###############################################################################

data_SATNOR05
_chemical_formula_moiety         '(C72 H18 O48)n'
_symmetry_cell_setting           triclinic
_symmetry_space_group_name_H-M   'P 1'
_symmetry_Int_Tables_number      1
_space_group_name_Hall           'P 1'
loop_
_symmetry_equiv_pos_site_id
_symmetry_equiv_pos_as_xyz
1 x,y,z
_cell_length_a                   25.892(4)
_cell_length_b                   25.892(4)
_cell_length_c                   6.8482(9)
_cell_angle_alpha                90
_cell_angle_beta                 90
_cell_angle_gamma                120
_cell_volume                     3975.93
loop_
_atom_site_label
_atom_site_type_symbol
_atom_site_fract_x
_atom_site_fract_y
_atom_site_fract_z
O4 O 0.30190(13) 0.22945(12) 0.0995(3)
Co2 Co 0.36219(2) 0.04843(2) 0.02411(6)
Co7 Co 0.30448(2) 0.28490(2) 0.30922(6)
O7 O 0.36477(13) 0.10388(12) 0.2338(3)
O10 O 0.41419(20) 0.02221(12) 0.1604(3)
O2 O 0.31112(12) 0.05864(16) 0.8271(3)
O3 O 0.33779(14) 0.03686(27) 0.4678(4)
C1 C 0.34769(17) 0.08704(16) 0.4052(5)
C2 C 0.33925(17) 0.12628(16) 0.5454(5)
C3 C 0.32296(17) 0.11094(16) 0.7436(5)
C4 C 0.34948(18) 0.18138(17) 0.4736(5)
H1 H 0.3605 0.1909 0.3435
C5 C 0.31898(17) 0.24629(16) 0.9281(5)
C6 C 0.32742(17) 0.20705(16) 0.7879(5)
C7 C 0.34371(17) 0.22239(16) 0.5897(5)
C8 C 0.31719(18) 0.15195(17) 0.8597(5)
H2 H 0.3062 0.1424 0.9898
O5 O 0.35555(12) 0.27469(16) 0.5062(3)
O6 O 0.32888(14) 0.29647(27) 0.8655(4)
Co5 Co 0.31376(3) 0.36219(2) 0.97589(6)
Co8 Co 0.38176(2) 0.35291(3) 0.64256(6)
O14 O 0.29647(27) 0.96760(30) 0.1345(4)
Co3 Co 0.35291(3) 0.97114(2) 0.35744(6)
Co4 Co 0.28490(2) 0.98043(3) 0.69078(6)
O12 O 0.36574(30) 0.99554(14) 0.8011(4)
O14_2 O 0.03240(30) 0.32888(40) 0.1345(4)
Co3_2 Co 0.02886(2) 0.38176(4) 0.35744(6)
Co4_2 Co 0.01957(3) 0.30448(4) 0.69078(6)
O12_2 O 0.00446(14) 0.37019(33) 0.8011(4)
O4_2 O 0.77055(12) 0.07244(18) 0.0995(3)
Co2_2 Co 0.95157(2) 0.31376(3) 0.02411(6)
Co7_2 Co 0.71510(2) 0.01957(3) 0.30922(6)
O7_2 O 0.89612(12) 0.26089(18) 0.2338(3)
O10_2 O 0.97779(12) 0.39197(23) 0.1604(3)
O2_2 O 0.94136(16) 0.25248(20) 0.8271(3)
O3_2 O 0.96314(27) 0.30093(30) 0.4678(4)
C1_2 C 0.91296(16) 0.26065(23) 0.4052(5)
C2_2 C 0.87372(16) 0.21297(23) 0.5454(5)
C3_2 C 0.88906(16) 0.21202(23) 0.7436(5)
C4_2 C 0.81862(17) 0.16810(25) 0.4736(5)
H1_2 H 0.8091 0.1696 0.3435
C5_2 C 0.75371(16) 0.07268(23) 0.9281(5)
C6_2 C 0.79295(16) 0.12036(23) 0.7879(5)
C7_2 C 0.77761(16) 0.12131(23) 0.5897(5)
C8_2 C 0.84805(17) 0.16523(25) 0.8597(5)
H2_2 H 0.8576 0.1637 0.9898
O5_2 O 0.72531(16) 0.08085(20) 0.5062(3)
O6_2 O 0.70353(27) 0.03240(30) 0.8655(4)
Co8_2 Co 0.64709(3) 0.02886(4) 0.64256(6)
Co5_2 Co 0.63781(2) 0.95157(4) 0.97589(6)
Co5_3 Co 0.04843(4) 0.68624(3) 0.97589(6)
O4_3 O 0.92756(18) 0.69810(13) 0.0995(3)
Co2_3 Co 0.68624(3) 0.63781(2) 0.02411(6)
Co7_3 Co 0.98043(3) 0.69552(2) 0.30922(6)
O7_3 O 0.73911(18) 0.63523(13) 0.2338(3)
O10_3 O 0.60803(23) 0.58581(20) 0.1604(3)
O14_3 O 0.67112(40) 0.70353(27) 0.1345(4)
O2_3 O 0.74752(20) 0.68888(12) 0.8271(3)
O3_3 O 0.69907(30) 0.66221(14) 0.4678(4)
C1_3 C 0.73935(23) 0.65231(17) 0.4052(5)
C2_3 C 0.78703(23) 0.66075(17) 0.5454(5)
C3_3 C 0.78798(23) 0.67704(17) 0.7436(5)
C4_3 C 0.83190(25) 0.65052(18) 0.4736(5)
H1_3 H 0.8304 0.6395 0.3435
C5_3 C 0.92732(23) 0.68102(17) 0.9281(5)
C6_3 C 0.87964(23) 0.67258(17) 0.7879(5)
C7_3 C 0.87869(23) 0.65629(17) 0.5897(5)
C8_3 C 0.83477(25) 0.68281(18) 0.8597(5)
H2_3 H 0.8363 0.6938 0.9898
O5_3 O 0.91915(20) 0.64445(12) 0.5062(3)
O6_3 O 0.96760(30) 0.67112(14) 0.8655(4)
Co3_3 Co 0.61824(4) 0.64709(3) 0.35744(6)
Co4_3 Co 0.69552(4) 0.71510(2) 0.69078(6)
Co8_3 Co 0.97114(4) 0.61824(2) 0.64256(6)
O12_3 O 0.62981(33) 0.63426(30) 0.8011(4)
O7_4 O 0.03144(13) 0.43721(12) 0.5671(3)
O10_4 O 0.08085(20) 0.35555(12) 0.4938(3)
C1_4 C 0.01436(17) 0.42037(16) 0.7385(5)
C2_4 C 0.00592(17) 0.45961(16) 0.8787(5)
C4_4 C 0.01615(18) 0.51471(17) 0.8069(5)
H1_4 H 0.0272 0.5242 0.6768
C7_4 C 0.01037(17) 0.55573(16) 0.9231(5)
O5_4 O 0.02221(12) 0.60803(16) 0.8396(3)
C3_4 C 0.98963(17) 0.44427(16) 0.0769(5)
O4_4 O 0.96856(13) 0.56279(12) 0.4329(3)
C5_4 C 0.98564(17) 0.57963(16) 0.2615(5)
C6_4 C 0.99408(17) 0.54039(16) 0.1213(5)
C8_4 C 0.98385(18) 0.48529(17) 0.1931(5)
H2_4 H 0.9728 0.4758 0.3232
O6_4 O 0.99554(14) 0.62981(27) 0.1989(4)
C3_5 C 0.55573(16) 0.54535(23) 0.0769(5)
O4_5 O 0.43721(12) 0.40578(18) 0.4329(3)
C5_5 C 0.42037(16) 0.40602(23) 0.2615(5)
C6_5 C 0.45961(16) 0.45370(23) 0.1213(5)
C8_5 C 0.51471(17) 0.49857(25) 0.1931(5)
H2_5 H 0.5242 0.4971 0.3232
O6_5 O 0.37019(27) 0.36574(30) 0.1989(4)
O7_5 O 0.56279(12) 0.59422(18) 0.5671(3)
O10_5 O 0.64445(12) 0.72531(23) 0.4938(3)
C1_5 C 0.57963(16) 0.59398(23) 0.7385(5)
C2_5 C 0.54039(16) 0.54630(23) 0.8787(5)
C4_5 C 0.48529(17) 0.50143(25) 0.8069(5)
H1_5 H 0.4758 0.5029 0.6768
C7_5 C 0.44427(16) 0.45465(23) 0.9231(5)
O5_5 O 0.39197(16) 0.41419(20) 0.8396(3)
C3_6 C 0.45465(23) 0.01037(17) 0.0769(5)
O4_6 O 0.59422(18) 0.03144(13) 0.4329(3)
C5_6 C 0.59398(23) 0.01436(17) 0.2615(5)
C6_6 C 0.54630(23) 0.00592(17) 0.1213(5)
C8_6 C 0.50143(25) 0.01615(18) 0.1931(5)
H2_6 H 0.5029 0.0272 0.3232
O6_6 O 0.63426(30) 0.00446(14) 0.1989(4)
O7_6 O 0.40578(18) 0.96856(13) 0.5671(3)
O10_6 O 0.27469(23) 0.91915(20) 0.4938(3)
C1_6 C 0.40602(23) 0.98564(17) 0.7385(5)
C2_6 C 0.45370(23) 0.99408(17) 0.8787(5)
C4_6 C 0.49857(25) 0.98385(18) 0.8069(5)
H1_6 H 0.4971 0.9728 0.6768
C7_6 C 0.54535(23) 0.98963(17) 0.9231(5)
O5_6 O 0.58581(20) 0.97779(12) 0.8396(3)
C1_7 C 0.68102(17) 0.75371(16) 0.0719(5)
C2_7 C 0.67258(17) 0.79295(16) 0.2121(5)
C3_7 C 0.65629(17) 0.77761(16) 0.4103(5)
C4_7 C 0.68281(18) 0.84805(17) 0.1403(5)
H1_7 H 0.6938 0.8576 0.0102
O4_7 O 0.63523(13) 0.89612(12) 0.7662(3)
C5_7 C 0.65231(17) 0.91296(16) 0.5948(5)
C6_7 C 0.66075(17) 0.87372(16) 0.4546(5)
C7_7 C 0.67704(17) 0.88906(16) 0.2564(5)
C8_7 C 0.65052(18) 0.81862(17) 0.5264(5)
H2_7 H 0.6395 0.8091 0.6565
O5_7 O 0.68888(12) 0.94136(16) 0.1729(3)
O6_7 O 0.66221(14) 0.96314(27) 0.5322(4)
O7_7 O 0.69810(13) 0.77055(12) 0.9005(3)
C1_8 C 0.24629(16) 0.92732(23) 0.0719(5)
C2_8 C 0.20705(16) 0.87964(23) 0.2121(5)
C3_8 C 0.22239(16) 0.87869(23) 0.4103(5)
C4_8 C 0.15195(17) 0.83477(25) 0.1403(5)
H1_8 H 0.1424 0.8363 0.0102
O4_8 O 0.10388(12) 0.73911(18) 0.7662(3)
C5_8 C 0.08704(16) 0.73935(23) 0.5948(5)
C6_8 C 0.12628(16) 0.78703(23) 0.4546(5)
C7_8 C 0.11094(16) 0.78798(23) 0.2564(5)
C8_8 C 0.18138(17) 0.83190(25) 0.5264(5)
H2_8 H 0.1909 0.8304 0.6565
O5_8 O 0.05864(16) 0.74752(20) 0.1729(3)
O6_8 O 0.03686(27) 0.69907(30) 0.5322(4)
O7_8 O 0.22945(12) 0.92756(18) 0.9005(3)
C1_9 C 0.07268(23) 0.31898(17) 0.0719(5)
C2_9 C 0.12036(23) 0.32742(17) 0.2121(5)
C3_9 C 0.12131(23) 0.34371(17) 0.4103(5)
C4_9 C 0.16523(25) 0.31719(18) 0.1403(5)
H1_9 H 0.1637 0.3062 0.0102
O4_9 O 0.26089(18) 0.36477(13) 0.7662(3)
C5_9 C 0.26065(23) 0.34769(17) 0.5948(5)
C6_9 C 0.21297(23) 0.33925(17) 0.4546(5)
C7_9 C 0.21202(23) 0.32296(17) 0.2564(5)
C8_9 C 0.16810(25) 0.34948(18) 0.5264(5)
H2_9 H 0.1696 0.3605 0.6565
O5_9 O 0.25248(20) 0.31112(12) 0.1729(3)
O6_9 O 0.30093(30) 0.33779(14) 0.5322(4)
O7_9 O 0.07244(18) 0.30190(13) 0.9005(3)
loop_
_geom_bond_atom_site_label_1
_geom_bond_atom_site_label_2
_geom_bond_site_symmetry_1
_geom_bond_site_symmetry_2
Co7 O4 1_555 1_555
O7 Co2 1_555 1_555
O10 Co2 1_555 1_555
O7 C1 1_555 1_555
O2 C3 1_555 1_555
O3 C1 1_555 1_555
C1 C2 1_555 1_555
C2 C3 1_555 1_555
C3 C8 1_555 1_555
C4 C2 1_555 1_555
H1 C4 1_555 1_555
C5 C6 1_555 1_555
C6 C7 1_555 1_555
C7 C4 1_555 1_555
C8 C6 1_555 1_555
H2 C8 1_555 1_555
O5 C7 1_555 1_555
O6 C5 1_555 1_555
Co5 O6 1_555 1_555
Co7 O5 1_555 1_555
Co8 O5 1_555 1_555
O6 Co8 1_555 1_555
Co3 O14 1_555 1_555
Co4 O12 1_555 1_555
Co3_2 O14_2 1_555 1_555
Co4_2 O12_2 1_555 1_555
Co7_2 O4_2 1_555 1_555
O7_2 Co2_2 1_555 1_555
O10_2 Co2_2 1_555 1_555
O7_2 C1_2 1_555 1_555
O2_2 C3_2 1_555 1_555
O3_2 C1_2 1_555 1_555
C1_2 C2_2 1_555 1_555
C2_2 C3_2 1_555 1_555
C3_2 C8_2 1_555 1_555
C4_2 C2_2 1_555 1_555
H1_2 C4_2 1_555 1_555
C5_2 C6_2 1_555 1_555
C6_2 C7_2 1_555 1_555
C7_2 C4_2 1_555 1_555
C8_2 C6_2 1_555 1_555
H2_2 C8_2 1_555 1_555
O5_2 C7_2 1_555 1_555
O6_2 C5_2 1_555 1_555
Co7_2 O5_2 1_555 1_555
Co8_2 O5_2 1_555 1_555
O6_2 Co8_2 1_555 1_555
Co7_3 O4_3 1_555 1_555
O7_3 Co2_3 1_555 1_555
O10_3 Co2_3 1_555 1_555
O14_3 Co2_3 1_555 1_555
O7_3 C1_3 1_555 1_555
O2_3 C3_3 1_555 1_555
O3_3 C1_3 1_555 1_555
C1_3 C2_3 1_555 1_555
C2_3 C3_3 1_555 1_555
C3_3 C8_3 1_555 1_555
C4_3 C2_3 1_555 1_555
H1_3 C4_3 1_555 1_555
C5_3 C6_3 1_555 1_555
C6_3 C7_3 1_555 1_555
C7_3 C4_3 1_555 1_555
C8_3 C6_3 1_555 1_555
H2_3 C8_3 1_555 1_555
O5_3 C7_3 1_555 1_555
O6_3 C5_3 1_555 1_555
Co3_3 O3_3 1_555 1_555
Co4_3 O2_3 1_555 1_555
Co7_3 O5_3 1_555 1_555
Co8_3 O5_3 1_555 1_555
O3_3 Co4_3 1_555 1_555
O6_3 Co8_3 1_555 1_555
Co3_3 O10_3 1_555 1_555
Co3_3 O14_3 1_555 1_555
Co4_3 O12_3 1_555 1_555
O7_4 Co3_2 1_555 1_555
O10_4 Co3_2 1_555 1_555
O7_4 C1_4 1_555 1_555
O12_2 C1_4 1_555 1_555
C1_4 C2_4 1_555 1_555
C4_4 C2_4 1_555 1_555
H1_4 C4_4 1_555 1_555
C7_4 C4_4 1_555 1_555
O5_4 C7_4 1_555 1_555
Co5_3 O5_4 1_555 1_555
Co4_2 O10_4 1_555 1_555
O10_2 C3_4 1_555 1_555
C3_4 C8_4 1_555 1_555
O4_4 C5_4 1_555 1_555
C5_4 C6_4 1_555 1_555
C8_4 C6_4 1_555 1_555
H2_4 C8_4 1_555 1_555
O6_4 C5_4 1_555 1_555
Co7_3 O6_4 1_555 1_555
Co8_3 O4_4 1_555 1_555
O10_3 C3_5 1_555 1_555
C3_5 C8_5 1_555 1_555
O4_5 C5_5 1_555 1_555
C5_5 C6_5 1_555 1_555
C8_5 C6_5 1_555 1_555
H2_5 C8_5 1_555 1_555
O6_5 C5_5 1_555 1_555
Co7 O6_5 1_555 1_555
Co8 O4_5 1_555 1_555
O7_5 Co3_3 1_555 1_555
O10_5 Co3_3 1_555 1_555
O7_5 C1_5 1_555 1_555
O12_3 C1_5 1_555 1_555
C1_5 C2_5 1_555 1_555
C4_5 C2_5 1_555 1_555
H1_5 C4_5 1_555 1_555
C7_5 C4_5 1_555 1_555
O5_5 C7_5 1_555 1_555
Co8 O5_5 1_555 1_555
Co5 O5_5 1_555 1_555
Co4_3 O10_5 1_555 1_555
O10 C3_6 1_555 1_555
C3_6 C8_6 1_555 1_555
O4_6 C5_6 1_555 1_555
C5_6 C6_6 1_555 1_555
C8_6 C6_6 1_555 1_555
H2_6 C8_6 1_555 1_555
O6_6 C5_6 1_555 1_555
Co7_2 O6_6 1_555 1_555
Co8_2 O4_6 1_555 1_555
O7_6 Co3 1_555 1_555
O10_6 Co3 1_555 1_555
O7_6 C1_6 1_555 1_555
O12 C1_6 1_555 1_555
C1_6 C2_6 1_555 1_555
C4_6 C2_6 1_555 1_555
H1_6 C4_6 1_555 1_555
C7_6 C4_6 1_555 1_555
O5_6 C7_6 1_555 1_555
Co5_2 O5_6 1_555 1_555
Co4 O10_6 1_555 1_555
O10_5 C3_7 1_555 1_555
O14_3 C1_7 1_555 1_555
C1_7 C2_7 1_555 1_555
C2_7 C3_7 1_555 1_555
C3_7 C8_7 1_555 1_555
C4_7 C2_7 1_555 1_555
H1_7 C4_7 1_555 1_555
O4_7 C5_7 1_555 1_555
C5_7 C6_7 1_555 1_555
C6_7 C7_7 1_555 1_555
C7_7 C4_7 1_555 1_555
C8_7 C6_7 1_555 1_555
H2_7 C8_7 1_555 1_555
O5_7 C7_7 1_555 1_555
O6_7 C5_7 1_555 1_555
Co5_2 O4_7 1_555 1_555
O7_7 Co4_3 1_555 1_555
O10_6 C3_8 1_555 1_555
O14 C1_8 1_555 1_555
C1_8 C2_8 1_555 1_555
C2_8 C3_8 1_555 1_555
C3_8 C8_8 1_555 1_555
C4_8 C2_8 1_555 1_555
H1_8 C4_8 1_555 1_555
O4_8 C5_8 1_555 1_555
C5_8 C6_8 1_555 1_555
C6_8 C7_8 1_555 1_555
C7_8 C4_8 1_555 1_555
C8_8 C6_8 1_555 1_555
H2_8 C8_8 1_555 1_555
O5_8 C7_8 1_555 1_555
O6_8 C5_8 1_555 1_555
Co5_3 O4_8 1_555 1_555
O7_8 Co4 1_555 1_555
O10_4 C3_9 1_555 1_555
O14_2 C1_9 1_555 1_555
C1_9 C2_9 1_555 1_555
C2_9 C3_9 1_555 1_555
C3_9 C8_9 1_555 1_555
C4_9 C2_9 1_555 1_555
H1_9 C4_9 1_555 1_555
O4_9 C5_9 1_555 1_555
C5_9 C6_9 1_555 1_555
C6_9 C7_9 1_555 1_555
C7_9 C4_9 1_555 1_555
C8_9 C6_9 1_555 1_555
H2_9 C8_9 1_555 1_555
O5_9 C7_9 1_555 1_555
O6_9 C5_9 1_555 1_555
Co8 O6_9 1_555 1_555
Co5 O4_9 1_555 1_555
Co7 O5_9 1_555 1_555
O7_9 Co4_2 1_555 1_555
O6_9 Co7 1_555 1_555

#END
