
###############################################################################
#
# This file contains modified crystal structure data generated from the
# MOF subset of the Cambridge Structural Database (CSD) v543 
# hosted by the Cambridge Crystallographic Data Centre (CCDC).
#
# This work is licensed under the Creative Commons
# Attribution-NonCommercial-ShareAlike 4.0 International License.
# To view a copy of this license, visit
# http://creativecommons.org/licenses/by-nc-sa/4.0/
# or send a letter to
# Creative Commons, PO Box 1866, Mountain View, CA 94042, USA.
#
# CIF created using the CSD Python API on 29 September 2022
# The structure has been converted into the P1 space group
# The structure has a 3D framework
# The original CSD entry SATNOR04 is in the rhombohedral crystal system
# The framework has been calculated to contain at least 10.0% void space
# The void calculation uses a probe of radius 1.32A, grid spacing 0.4
# H atom positions have been added when not included in the experimental data
#
###############################################################################

data_SATNOR04
_chemical_formula_moiety         '(C72 H36 Co18 O54)n'
_symmetry_cell_setting           triclinic
_symmetry_space_group_name_H-M   'P 1'
_symmetry_Int_Tables_number      1
_space_group_name_Hall           'P 1'
loop_
_symmetry_equiv_pos_site_id
_symmetry_equiv_pos_as_xyz
1 x,y,z
_cell_length_a                   25.95258(1)
_cell_length_b                   25.95258(1)
_cell_length_c                   6.81854(38)
_cell_angle_alpha                90
_cell_angle_beta                 90
_cell_angle_gamma                120
_cell_volume                     3977.25
loop_
_atom_site_label
_atom_site_type_symbol
_atom_site_fract_x
_atom_site_fract_y
_atom_site_fract_z
_atom_site_U_iso_or_equiv
_atom_site_thermal_displace_type
C3 C 0.55625(6) 0.54530(8) 0.07242(14) 0.0190 Uiso
O3 O 0.61219(3) 0.58640(5) 0.14167(18) 0.0253 Uiso
C5 C 0.42076(6) 0.40890(7) 0.25485(15) 0.0190 Uiso
C6 C 0.45976(7) 0.45370(8) 0.12433(14) 0.0190 Uiso
C8 C 0.51579(6) 0.50102(8) 0.19953(11) 0.0190 Uiso
H2 H 0.52772(17) 0.49847(22) 0.33245(38) 0.0190 Uiso
Co2 Co 0.38337(2) 0.35500(3) 0.64277(8) 0.0253 Uiso
Co4 Co 0.68833(3) 0.63830(4) 0.02390(8) 0.0253 Uiso
Co5 Co 0.61663(2) 0.64500(3) 0.35723(8) 0.0253 Uiso
Co7 Co 0.30496(4) 0.28330(2) 0.30944(8) 0.0253 Uiso
O4 O 0.44018(6) 0.40594(6) 0.42351(14) 0.0253 Uiso
O5 O 0.37313(4) 0.36530(4) 0.19254(17) 0.0253 Uiso
O8 O 0.30137(4) 0.34116(6) 0.52587(17) 0.0253 Uiso
O9 O 0.32550(6) 0.29354(4) 0.85921(17) 0.0253 Uiso
O13 O 0.38781(3) 0.41360(5) 0.85833(18) 0.0253 Uiso
O14 O 0.35912(6) 0.27886(3) 0.52500(18) 0.0253 Uiso
C1 C 0.57924(6) 0.59110(7) 0.74515(15) 0.0190 Uiso
C2 C 0.54024(7) 0.54630(8) 0.87567(14) 0.0190 Uiso
C4 C 0.48421(6) 0.49898(8) 0.80047(11) 0.0190 Uiso
H1 H 0.47228(17) 0.50153(22) 0.66755(38) 0.0190 Uiso
O1 O 0.55982(6) 0.59406(6) 0.57649(14) 0.0253 Uiso
O2 O 0.62687(4) 0.63470(4) 0.80746(17) 0.0253 Uiso
C7 C 0.44375(6) 0.45470(8) 0.92758(14) 0.0190 Uiso
Co3 Co 0.69504(4) 0.71670(2) 0.69056(8) 0.0253 Uiso
Co6 Co 0.31167(3) 0.36170(4) 0.97610(8) 0.0253 Uiso
O6 O 0.67450(6) 0.70646(4) 0.14079(17) 0.0253 Uiso
O7 O 0.69863(4) 0.65884(6) 0.47413(17) 0.0253 Uiso
O12 O 0.64088(6) 0.72114(3) 0.47500(18) 0.0253 Uiso
H3 H 0.60037 0.56634 0.694366 . .
Co3_2 Co 0.02837(4) 0.38337(2) 0.35723(8) 0.0253 Uiso
Co4_2 Co 0.02167(3) 0.30496(4) 0.69056(8) 0.0253 Uiso
O7_2 O 0.03197(4) 0.32550(6) 0.14079(17) 0.0253 Uiso
O6_2 O 0.00783(6) 0.37313(4) 0.80746(17) 0.0253 Uiso
Co2_2 Co 0.71670(2) 0.02167(3) 0.30944(8) 0.0253 Uiso
Co5_2 Co 0.94996(2) 0.31167(3) 0.02390(8) 0.0253 Uiso
O4_2 O 0.77351(6) 0.07261(6) 0.09018(14) 0.0253 Uiso
O8_2 O 0.63470(4) 0.00783(6) 0.19254(17) 0.0253 Uiso
O13_2 O 0.72114(3) 0.08027(5) 0.52500(18) 0.0253 Uiso
C1_2 C 0.91257(6) 0.25777(7) 0.41182(15) 0.0190 Uiso
C2_2 C 0.87357(7) 0.21297(8) 0.54234(14) 0.0190 Uiso
C3_2 C 0.88958(6) 0.21197(8) 0.73909(14) 0.0190 Uiso
C4_2 C 0.81754(6) 0.16565(8) 0.46714(11) 0.0190 Uiso
H1_2 H 0.80561(17) 0.16820(22) 0.33422(38) 0.0190 Uiso
O1_2 O 0.89315(6) 0.26073(6) 0.24316(14) 0.0253 Uiso
O2_2 O 0.96020(4) 0.30137(4) 0.47413(17) 0.0253 Uiso
O3_2 O 0.94552(3) 0.25307(5) 0.80834(18) 0.0253 Uiso
C5_2 C 0.75409(6) 0.07557(7) 0.92152(15) 0.0190 Uiso
C6_2 C 0.79309(7) 0.12037(8) 0.79100(14) 0.0190 Uiso
C7_2 C 0.77708(6) 0.12137(8) 0.59425(14) 0.0190 Uiso
C8_2 C 0.84912(6) 0.16769(8) 0.86620(11) 0.0190 Uiso
H2_2 H 0.86105(17) 0.16514(22) 0.99912(38) 0.0190 Uiso
Co6_2 Co 0.64500(3) 0.02837(4) 0.64277(8) 0.0253 Uiso
O5_2 O 0.70646(4) 0.03197(4) 0.85921(17) 0.0253 Uiso
O12_2 O 0.97421(6) 0.38781(3) 0.14167(18) 0.0253 Uiso
H3_2 H 0.933703 0.233007 0.361033 . .
O9_2 O 0.65884(6) 0.96020(4) 0.52587(17) 0.0253 Uiso
O14_2 O 0.69246(6) 0.94552(3) 0.19166(18) 0.0253 Uiso
Co7_2 Co 0.63830(4) 0.94996(2) 0.97610(8) 0.0253 Uiso
Co3_3 Co 0.36170(4) 0.05004(2) 0.02390(8) 0.0253 Uiso
O6_3 O 0.34116(6) 0.03980(4) 0.47413(17) 0.0253 Uiso
O12_3 O 0.30754(6) 0.05448(3) 0.80834(18) 0.0253 Uiso
O13_3 O 0.05448(3) 0.74693(5) 0.19166(18) 0.0253 Uiso
C1_3 C 0.24591(6) 0.92443(7) 0.07848(15) 0.0190 Uiso
C2_3 C 0.20691(7) 0.87963(8) 0.20900(14) 0.0190 Uiso
C3_3 C 0.22292(6) 0.87863(8) 0.40575(14) 0.0190 Uiso
C4_3 C 0.15088(6) 0.83231(8) 0.13380(11) 0.0190 Uiso
H1_3 H 0.13895(17) 0.83486(22) 0.00088(38) 0.0190 Uiso
O2_3 O 0.29354(4) 0.96803(4) 0.14079(17) 0.0253 Uiso
O3_3 O 0.27886(3) 0.91973(5) 0.47500(18) 0.0253 Uiso
C5_3 C 0.08743(6) 0.74223(7) 0.58818(15) 0.0190 Uiso
C6_3 C 0.12643(7) 0.78703(8) 0.45766(14) 0.0190 Uiso
C7_3 C 0.11042(6) 0.78803(8) 0.26091(14) 0.0190 Uiso
C8_3 C 0.18246(6) 0.83435(8) 0.53286(11) 0.0190 Uiso
H2_3 H 0.19439(17) 0.83180(22) 0.66578(38) 0.0190 Uiso
Co2_3 Co 0.05004(2) 0.68833(3) 0.97610(8) 0.0253 Uiso
Co4_3 Co 0.35500(3) 0.97163(4) 0.35723(8) 0.0253 Uiso
Co5_3 Co 0.28330(2) 0.97833(3) 0.69056(8) 0.0253 Uiso
O4_3 O 0.10685(6) 0.73927(6) 0.75684(14) 0.0253 Uiso
O5_3 O 0.03980(4) 0.69863(4) 0.52587(17) 0.0253 Uiso
O14_3 O 0.02579(6) 0.61219(3) 0.85833(18) 0.0253 Uiso
H3_3 H 0.267037 0.899673 0.0276993 . .
O1_3 O 0.22649(6) 0.92739(6) 0.90982(14) 0.0253 Uiso
O7_3 O 0.36530(4) 0.99217(6) 0.80746(17) 0.0253 Uiso
O9_3 O 0.99217(6) 0.62687(4) 0.19254(17) 0.0253 Uiso
Co6_3 Co 0.97833(3) 0.69504(4) 0.30944(8) 0.0253 Uiso
Co7_3 Co 0.97163(4) 0.61663(2) 0.64277(8) 0.0253 Uiso
O8_3 O 0.96803(4) 0.67450(6) 0.85921(17) 0.0253 Uiso
C3_4 C 0.45470(8) 0.01095(10) 0.07242(14) 0.0190 Uiso
O3_4 O 0.41360(5) 0.02579(6) 0.14167(18) 0.0253 Uiso
C5_4 C 0.59110(7) 0.01186(9) 0.25485(15) 0.0190 Uiso
C6_4 C 0.54630(8) 0.00606(11) 0.12433(14) 0.0190 Uiso
C8_4 C 0.49898(8) 0.01477(10) 0.19953(11) 0.0190 Uiso
H2_4 H 0.50153(22) 0.02925(28) 0.33245(38) 0.0190 Uiso
O4_4 O 0.59406(6) 0.03424(8) 0.42351(14) 0.0253 Uiso
H3_4 H 0.43366 0.03403 0.694366 . .
O13_4 O 0.58640(5) 0.97421(6) 0.85833(18) 0.0253 Uiso
C1_4 C 0.40890(7) 0.98814(9) 0.74515(15) 0.0190 Uiso
C2_4 C 0.45370(8) 0.99394(11) 0.87567(14) 0.0190 Uiso
C4_4 C 0.50102(8) 0.98523(10) 0.80047(11) 0.0190 Uiso
H1_4 H 0.49847(22) 0.97075(28) 0.66755(38) 0.0190 Uiso
O1_4 O 0.40594(6) 0.96576(8) 0.57649(14) 0.0253 Uiso
C7_4 C 0.54530(8) 0.98905(10) 0.92758(14) 0.0190 Uiso
C1_5 C 0.01186(9) 0.42076(6) 0.74515(15) 0.0190 Uiso
C2_5 C 0.00606(11) 0.45976(7) 0.87567(14) 0.0190 Uiso
C4_5 C 0.01477(10) 0.51579(6) 0.80047(11) 0.0190 Uiso
H1_5 H 0.02925(28) 0.52772(17) 0.66755(38) 0.0190 Uiso
O1_5 O 0.03424(8) 0.44018(6) 0.57649(14) 0.0253 Uiso
C7_5 C 0.01095(10) 0.55625(6) 0.92758(14) 0.0190 Uiso
O12_4 O 0.08027(7) 0.35912(6) 0.47500(18) 0.0253 Uiso
C3_5 C 0.98905(10) 0.44375(6) 0.07242(14) 0.0190 Uiso
C5_5 C 0.98814(9) 0.57924(6) 0.25485(15) 0.0190 Uiso
C6_5 C 0.99394(11) 0.54024(7) 0.12433(14) 0.0190 Uiso
C8_5 C 0.98523(10) 0.48421(6) 0.19953(11) 0.0190 Uiso
H2_5 H 0.97075(28) 0.47228(17) 0.33245(38) 0.0190 Uiso
O4_5 O 0.96576(8) 0.55982(6) 0.42351(14) 0.0253 Uiso
O14_4 O 0.91973(7) 0.64088(6) 0.52500(18) 0.0253 Uiso
H3_5 H 0.96597 0.39963 0.694366 . .
O13_5 O 0.25307(5) 0.30754(6) 0.19166(18) 0.0253 Uiso
C1_6 C 0.07557(7) 0.32147(9) 0.07848(15) 0.0190 Uiso
C2_6 C 0.12037(8) 0.32727(11) 0.20900(14) 0.0190 Uiso
C3_6 C 0.12137(8) 0.34428(10) 0.40575(14) 0.0190 Uiso
C4_6 C 0.16769(8) 0.31856(10) 0.13380(11) 0.0190 Uiso
H1_6 H 0.16514(22) 0.30408(28) 0.00088(38) 0.0190 Uiso
C5_6 C 0.25777(7) 0.34519(9) 0.58818(15) 0.0190 Uiso
C6_6 C 0.21297(8) 0.33939(11) 0.45766(14) 0.0190 Uiso
C7_6 C 0.21197(8) 0.32238(10) 0.26091(14) 0.0190 Uiso
C8_6 C 0.16565(8) 0.34810(10) 0.53286(11) 0.0190 Uiso
H2_6 H 0.16820(22) 0.36258(28) 0.66578(38) 0.0190 Uiso
O4_6 O 0.26073(6) 0.36757(8) 0.75684(14) 0.0253 Uiso
H3_6 H 0.100327 0.367363 0.0276993 . .
O1_6 O 0.07261(6) 0.29909(8) 0.90982(14) 0.0253 Uiso
C1_7 C 0.67853(9) 0.75409(6) 0.07848(15) 0.0190 Uiso
C2_7 C 0.67273(11) 0.79309(7) 0.20900(14) 0.0190 Uiso
C3_7 C 0.65572(10) 0.77708(6) 0.40575(14) 0.0190 Uiso
C4_7 C 0.68144(10) 0.84912(6) 0.13380(11) 0.0190 Uiso
H1_7 H 0.69592(28) 0.86105(17) 0.00088(38) 0.0190 Uiso
C5_7 C 0.65481(9) 0.91257(6) 0.58818(15) 0.0190 Uiso
C6_7 C 0.66061(11) 0.87357(7) 0.45766(14) 0.0190 Uiso
C7_7 C 0.67762(10) 0.88958(6) 0.26091(14) 0.0190 Uiso
C8_7 C 0.65190(10) 0.81754(6) 0.53286(11) 0.0190 Uiso
H2_7 H 0.63742(28) 0.80561(17) 0.66578(38) 0.0190 Uiso
O4_7 O 0.63243(8) 0.89315(6) 0.75684(14) 0.0253 Uiso
H3_7 H 0.632637 0.732963 0.0276993 . .
O1_7 O 0.70091(8) 0.77351(6) 0.90982(14) 0.0253 Uiso
O12_5 O 0.74693(7) 0.69246(6) 0.80834(18) 0.0253 Uiso
O4_8 O 0.92739(6) 0.70091(8) 0.09018(14) 0.0253 Uiso
C1_8 C 0.74223(7) 0.65481(9) 0.41182(15) 0.0190 Uiso
C2_8 C 0.78703(8) 0.66061(11) 0.54234(14) 0.0190 Uiso
C3_8 C 0.78803(8) 0.67762(10) 0.73909(14) 0.0190 Uiso
C4_8 C 0.83435(8) 0.65190(10) 0.46714(11) 0.0190 Uiso
H1_8 H 0.83180(22) 0.63742(28) 0.33422(38) 0.0190 Uiso
O1_8 O 0.73927(6) 0.63243(8) 0.24316(14) 0.0253 Uiso
C5_8 C 0.92443(7) 0.67853(9) 0.92152(15) 0.0190 Uiso
C6_8 C 0.87963(8) 0.67273(11) 0.79100(14) 0.0190 Uiso
C7_8 C 0.87863(8) 0.65572(10) 0.59425(14) 0.0190 Uiso
C8_8 C 0.83231(8) 0.68144(10) 0.86620(11) 0.0190 Uiso
H2_8 H 0.83486(22) 0.69592(28) 0.99912(38) 0.0190 Uiso
H3_8 H 0.766993 0.700697 0.361033 . .
O4_9 O 0.29909(8) 0.22649(6) 0.09018(14) 0.0253 Uiso
C1_9 C 0.34519(9) 0.08743(6) 0.41182(15) 0.0190 Uiso
C2_9 C 0.33939(11) 0.12643(7) 0.54234(14) 0.0190 Uiso
C3_9 C 0.32238(10) 0.11042(6) 0.73909(14) 0.0190 Uiso
C4_9 C 0.34810(10) 0.18246(6) 0.46714(11) 0.0190 Uiso
H1_9 H 0.36258(28) 0.19439(17) 0.33422(38) 0.0190 Uiso
O1_9 O 0.36757(8) 0.10685(6) 0.24316(14) 0.0253 Uiso
C5_9 C 0.32147(9) 0.24591(6) 0.92152(15) 0.0190 Uiso
C6_9 C 0.32727(11) 0.20691(7) 0.79100(14) 0.0190 Uiso
C7_9 C 0.34428(10) 0.22292(6) 0.59425(14) 0.0190 Uiso
C8_9 C 0.31856(10) 0.15088(6) 0.86620(11) 0.0190 Uiso
H2_9 H 0.30408(28) 0.13895(17) 0.99912(38) 0.0190 Uiso
H3_9 H 0.299303 0.0662966 0.361033 . .
H3_10 H 0.39963 0.43366 0.305634 . .
H3_11 H 0.0662966 0.766993 0.638967 . .
H3_12 H 0.732963 0.100327 0.972301 . .
H3_13 H 0.56634 0.96597 0.305634 . .
H3_14 H 0.03403 0.60037 0.305634 . .
H3_15 H 0.899673 0.632637 0.972301 . .
H3_16 H 0.367363 0.267037 0.972301 . .
H3_17 H 0.233007 0.299303 0.638967 . .
H3_18 H 0.700697 0.933703 0.638967 . .
loop_
_geom_bond_atom_site_label_1
_geom_bond_atom_site_label_2
_geom_bond_site_symmetry_1
_geom_bond_site_symmetry_2
C3 O3 1_555 1_555
O3 Co4 1_555 1_555
C5 C6 1_555 1_555
C8 C3 1_555 1_555
H2 C8 1_555 1_555
Co2 O4 1_555 1_555
Co5 O3 1_555 1_555
Co7 O5 1_555 1_555
O4 C5 1_555 1_555
O5 C5 1_555 1_555
O8 Co2 1_555 1_555
O9 Co2 1_555 1_555
O13 Co2 1_555 1_555
O14 Co2 1_555 1_555
C6 C8 1_555 1_555
Co7 O8 1_555 1_555
Co7 O14 1_555 1_555
C1 C2 1_555 1_555
C4 C2 1_555 1_555
H1 C4 1_555 1_555
Co5 O1 1_555 1_555
O1 C1 1_555 1_555
O2 C1 1_555 1_555
C7 C4 1_555 1_555
Co3 O2 1_555 1_555
O6 Co5 1_555 1_555
O7 Co5 1_555 1_555
O13 C7 1_555 1_555
O12 Co5 1_555 1_555
Co3 O7 1_555 1_555
Co3 O12 1_555 1_555
Co6 O13 1_555 1_555
C1 H3 1_555 1_555
Co3_2 O7_2 1_555 1_555
Co2_2 O4_2 1_555 1_555
O8_2 Co2_2 1_555 1_555
O13_2 Co2_2 1_555 1_555
C1_2 C2_2 1_555 1_555
C2_2 C3_2 1_555 1_555
C3_2 O3_2 1_555 1_555
C4_2 C2_2 1_555 1_555
H1_2 C4_2 1_555 1_555
Co5_2 O1_2 1_555 1_555
O1_2 C1_2 1_555 1_555
O2_2 C1_2 1_555 1_555
C5_2 C6_2 1_555 1_555
C6_2 C7_2 1_555 1_555
C7_2 C4_2 1_555 1_555
C8_2 C3_2 1_555 1_555
H2_2 C8_2 1_555 1_555
Co6_2 O5_2 1_555 1_555
O5_2 C5_2 1_555 1_555
O13_2 C7_2 1_555 1_555
O12_2 Co5_2 1_555 1_555
C6_2 C8_2 1_555 1_555
Co6_2 O13_2 1_555 1_555
C1_2 H3_2 1_555 1_555
C1_3 C2_3 1_555 1_555
C2_3 C3_3 1_555 1_555
C3_3 O3_3 1_555 1_555
C4_3 C2_3 1_555 1_555
H1_3 C4_3 1_555 1_555
O2_3 C1_3 1_555 1_555
O3_3 Co4_3 1_555 1_555
C5_3 C6_3 1_555 1_555
C6_3 C7_3 1_555 1_555
C7_3 C4_3 1_555 1_555
C8_3 C3_3 1_555 1_555
H2_3 C8_3 1_555 1_555
Co2_3 O4_3 1_555 1_555
Co4_3 O2_3 1_555 1_555
Co5_3 O3_3 1_555 1_555
O4_3 C5_3 1_555 1_555
O5_3 C5_3 1_555 1_555
O13_3 C7_3 1_555 1_555
O14_3 Co2_3 1_555 1_555
C6_3 C8_3 1_555 1_555
C1_3 H3_3 1_555 1_555
Co5_3 O1_3 1_555 1_555
O7_3 Co5_3 1_555 1_555
Co7_3 O8_3 1_555 1_555
C3_4 O3_4 1_555 1_555
O3_4 Co3_3 1_555 1_555
C5_4 C6_4 1_555 1_555
C8_4 C3_4 1_555 1_555
H2_4 C8_4 1_555 1_555
Co6_2 O4_4 1_555 1_555
O4_4 C5_4 1_555 1_555
O8_2 C5_4 1_555 1_555
C6_4 C8_4 1_555 1_555
C1_4 C2_4 1_555 1_555
C4_4 C2_4 1_555 1_555
H1_4 C4_4 1_555 1_555
Co4_3 O1_4 1_555 1_555
O1_4 C1_4 1_555 1_555
O7_3 C1_4 1_555 1_555
C7_4 C4_4 1_555 1_555
O13_4 C7_4 1_555 1_555
Co7_2 O13_4 1_555 1_555
C1_5 C2_5 1_555 1_555
C4_5 C2_5 1_555 1_555
H1_5 C4_5 1_555 1_555
Co3_2 O1_5 1_555 1_555
O1_5 C1_5 1_555 1_555
O6_2 C1_5 1_555 1_555
C7_5 C4_5 1_555 1_555
Co4_2 O6_2 1_555 1_555
O14_3 C7_5 1_555 1_555
O12_4 Co3_2 1_555 1_555
Co4_2 O12_4 1_555 1_555
C3_5 O12_2 1_555 1_555
C5_5 C6_5 1_555 1_555
C8_5 C3_5 1_555 1_555
H2_5 C8_5 1_555 1_555
Co7_3 O4_5 1_555 1_555
Co6_3 O9_3 1_555 1_555
O4_5 C5_5 1_555 1_555
O9_3 C5_5 1_555 1_555
O14_4 Co7_3 1_555 1_555
C6_5 C8_5 1_555 1_555
Co6_3 O14_4 1_555 1_555
C1_6 C2_6 1_555 1_555
C2_6 C3_6 1_555 1_555
C3_6 O12_4 1_555 1_555
C4_6 C2_6 1_555 1_555
H1_6 C4_6 1_555 1_555
O7_2 C1_6 1_555 1_555
C5_6 C6_6 1_555 1_555
C6_6 C7_6 1_555 1_555
C7_6 C4_6 1_555 1_555
C8_6 C3_6 1_555 1_555
H2_6 C8_6 1_555 1_555
Co6 O4_6 1_555 1_555
O4_6 C5_6 1_555 1_555
O8 C5_6 1_555 1_555
O9 Co6 1_555 1_555
O13_5 C7_6 1_555 1_555
C6_6 C8_6 1_555 1_555
Co7 O13_5 1_555 1_555
C1_6 H3_6 1_555 1_555
Co4_2 O1_6 1_555 1_555
C1_7 C2_7 1_555 1_555
C2_7 C3_7 1_555 1_555
C3_7 O12 1_555 1_555
C4_7 C2_7 1_555 1_555
H1_7 C4_7 1_555 1_555
O6 C1_7 1_555 1_555
C5_7 C6_7 1_555 1_555
C6_7 C7_7 1_555 1_555
C7_7 C4_7 1_555 1_555
C8_7 C3_7 1_555 1_555
H2_7 C8_7 1_555 1_555
Co7_2 O4_7 1_555 1_555
Co4 O6 1_555 1_555
O4_7 C5_7 1_555 1_555
O9_2 C5_7 1_555 1_555
O14_2 C7_7 1_555 1_555
C6_7 C8_7 1_555 1_555
C1_7 H3_7 1_555 1_555
Co3 O1_7 1_555 1_555
O12_5 Co3 1_555 1_555
Co6_3 O4_8 1_555 1_555
C1_8 C2_8 1_555 1_555
C2_8 C3_8 1_555 1_555
C3_8 O12_5 1_555 1_555
C4_8 C2_8 1_555 1_555
H1_8 C4_8 1_555 1_555
Co4 O1_8 1_555 1_555
O1_8 C1_8 1_555 1_555
O7 C1_8 1_555 1_555
C5_8 C6_8 1_555 1_555
C6_8 C7_8 1_555 1_555
C7_8 C4_8 1_555 1_555
C8_8 C3_8 1_555 1_555
H2_8 C8_8 1_555 1_555
O8_3 C5_8 1_555 1_555
O14_4 C7_8 1_555 1_555
C6_8 C8_8 1_555 1_555
C1_8 H3_8 1_555 1_555
Co7 O4_9 1_555 1_555
C1_9 C2_9 1_555 1_555
C2_9 C3_9 1_555 1_555
C3_9 O12_3 1_555 1_555
C4_9 C2_9 1_555 1_555
H1_9 C4_9 1_555 1_555
Co3_3 O1_9 1_555 1_555
O1_9 C1_9 1_555 1_555
O6_3 C1_9 1_555 1_555
C5_9 C6_9 1_555 1_555
C6_9 C7_9 1_555 1_555
C7_9 C4_9 1_555 1_555
C8_9 C3_9 1_555 1_555
H2_9 C8_9 1_555 1_555
O9 C5_9 1_555 1_555
O14 C7_9 1_555 1_555
C6_9 C8_9 1_555 1_555
C1_9 H3_9 1_555 1_555
C5 H3_10 1_555 1_555
C5_3 H3_11 1_555 1_555
C5_2 H3_12 1_555 1_555
C5_8 H3_15 1_555 1_555
C5_9 H3_16 1_555 1_555
C5_6 H3_17 1_555 1_555
C5_7 H3_18 1_555 1_555

#END
