
###############################################################################
#
# This file contains modified crystal structure data generated from the
# MOF subset of the Cambridge Structural Database (CSD) v543 
# hosted by the Cambridge Crystallographic Data Centre (CCDC).
#
# This work is licensed under the Creative Commons
# Attribution-NonCommercial-ShareAlike 4.0 International License.
# To view a copy of this license, visit
# http://creativecommons.org/licenses/by-nc-sa/4.0/
# or send a letter to
# Creative Commons, PO Box 1866, Mountain View, CA 94042, USA.
#
# CIF created using the CSD Python API on 29 September 2022
# The structure has been converted into the P1 space group
# The structure has a 3D framework
# The original CSD entry SATNOR02 is in the rhombohedral crystal system
# The framework has been calculated to contain at least 10.0% void space
# The void calculation uses a probe of radius 1.32A, grid spacing 0.4
# The framework is charged, counterions have been retained in the structure
#
###############################################################################

data_SATNOR02
_chemical_formula_moiety         '(C72 H18 Co8 O54 20-)n'
_symmetry_cell_setting           triclinic
_symmetry_space_group_name_H-M   'P 1'
_symmetry_Int_Tables_number      1
_space_group_name_Hall           'P 1'
loop_
_symmetry_equiv_pos_site_id
_symmetry_equiv_pos_as_xyz
1 x,y,z
_cell_length_a                   25.9067(9)
_cell_length_b                   25.9067
_cell_length_c                   6.8548(5)
_cell_angle_alpha                90
_cell_angle_beta                 90
_cell_angle_gamma                120
_cell_volume                     3984.28
loop_
_atom_site_label
_atom_site_type_symbol
_atom_site_fract_x
_atom_site_fract_y
_atom_site_fract_z
_atom_site_U_iso_or_equiv
_atom_site_thermal_displace_type
Co1 Co 0.3845(13) 0.3489(13) 0.136(4) 0.0030 Uiso
O1 O 0.3283(6) 0.2968(6) 0.3674(21) 0.0181 Uiso
O2 O 0.3547(6) 0.2749(6) 0.0111(18) 0.0003 Uiso
O3 O 0.3011(10) 0.2279(6) 0.6030(16) 0.0007 Uiso
C1 C 0.3160(6) 0.2470(6) 0.4236(19) 0.0290 Uiso
C2 C 0.3477(6) 0.2257(7) 0.0891(18) 0.0280 Uiso
C3 C 0.3290(6) 0.2075(5) 0.2877(17) 0.0200 Uiso
O5 O 0.3120(6) 0.0584(6) 0.3222(18) 0.0003 Uiso
C6 C 0.3190(6) 0.1076(7) 0.2442(18) 0.0280 Uiso
C7 C 0.3377(6) 0.1258(5) 0.0456(17) 0.0200 Uiso
C8 C 0.3164(6) 0.1523(5) 0.3594(15) 0.0081 Uiso
H2 H 0.3020(9) 0.1382(7) 0.5079(30) 0.0010 Uiso
Co3 Co 0.3178(13) 0.3689(18) 0.469(4) 0.0030 Uiso
Co5 Co 0.2977(18) 0.2822(13) 0.803(4) 0.0030 Uiso
Co8 Co 0.3689(18) 0.0512(13) 0.531(4) 0.0030 Uiso
O7 O 0.3018(8) 0.3384(6) 0.0341(21) 0.0181 Uiso
O9 O 0.3918(6) 0.4131(8) 0.3444(18) 0.0003 Uiso
C4 C 0.3503(6) 0.1810(5) 0.9739(15) 0.0081 Uiso
H1 H 0.3647(9) 0.1951(7) 0.8254(30) 0.0010 Uiso
O4 O 0.3384(6) 0.0365(6) 0.9659(21) 0.0181 Uiso
C5 C 0.3507(6) 0.0863(6) 0.9097(19) 0.0290 Uiso
O6 O 0.3656(10) 0.1054(6) 0.7303(16) 0.0007 Uiso
O11 O 0.4131(8) 0.0214(6) 0.6556(18) 0.0003 Uiso
O12 O 0.4388(6) 0.4065(12) 0.9363(16) 0.0007 Uiso
Co6 Co 0.2822(13) 0.9844(13) 0.197(4) 0.0030 Uiso
O13 O 0.4065(12) 0.9678(10) 0.0637(16) 0.0007 Uiso
Co2 Co 0.3489(13) 0.9644(18) 0.864(4) 0.0030 Uiso
O8 O 0.2968(6) 0.9685(8) 0.6326(21) 0.0181 Uiso
O10 O 0.2749(6) 0.9202(8) 0.9889(18) 0.0003 Uiso
Co6_2 Co 0.0156(13) 0.2977(18) 0.197(4) 0.0030 Uiso
O13_2 O 0.0322(10) 0.4388(16) 0.0637(16) 0.0007 Uiso
Co2_2 Co 0.0356(18) 0.3845(22) 0.864(4) 0.0030 Uiso
O8_2 O 0.0315(8) 0.3283(10) 0.6326(21) 0.0181 Uiso
O10_2 O 0.0798(8) 0.3547(10) 0.9889(18) 0.0003 Uiso
Co1_2 Co 0.6511(13) 0.0356(18) 0.136(4) 0.0030 Uiso
O1_2 O 0.7032(6) 0.0315(8) 0.3674(21) 0.0181 Uiso
O2_2 O 0.7251(6) 0.0798(8) 0.0111(18) 0.0003 Uiso
O3_2 O 0.7721(6) 0.0732(12) 0.6030(16) 0.0007 Uiso
C1_2 C 0.7530(6) 0.0690(8) 0.4236(19) 0.0290 Uiso
C2_2 C 0.7743(7) 0.1220(9) 0.0891(18) 0.0280 Uiso
C3_2 C 0.7925(5) 0.1215(8) 0.2877(17) 0.0200 Uiso
O5_2 O 0.9416(6) 0.2535(8) 0.3222(18) 0.0003 Uiso
C6_2 C 0.8924(7) 0.2113(9) 0.2442(18) 0.0280 Uiso
C7_2 C 0.8742(5) 0.2118(8) 0.0456(17) 0.0200 Uiso
C8_2 C 0.8477(5) 0.1640(8) 0.3594(15) 0.0081 Uiso
H2_2 H 0.8618(7) 0.1637(11) 0.5079(30) 0.0010 Uiso
Co5_2 Co 0.7178(13) 0.0156(22) 0.803(4) 0.0030 Uiso
Co8_2 Co 0.9488(13) 0.3178(22) 0.531(4) 0.0030 Uiso
C4_2 C 0.8190(5) 0.1693(8) 0.9739(15) 0.0081 Uiso
H1_2 H 0.8049(7) 0.1696(11) 0.8254(30) 0.0010 Uiso
O4_2 O 0.9635(6) 0.3018(8) 0.9659(21) 0.0181 Uiso
C5_2 C 0.9137(6) 0.2643(8) 0.9097(19) 0.0290 Uiso
O6_2 O 0.8946(6) 0.2601(12) 0.7303(16) 0.0007 Uiso
O11_2 O 0.9786(6) 0.3918(10) 0.6556(18) 0.0003 Uiso
O12_2 O 0.5935(12) 0.0322(13) 0.9363(16) 0.0007 Uiso
Co3_2 Co 0.6311(18) 0.9488(22) 0.469(4) 0.0030 Uiso
O7_2 O 0.6616(6) 0.9635(10) 0.0341(21) 0.0181 Uiso
O9_2 O 0.5869(8) 0.9786(10) 0.3444(18) 0.0003 Uiso
Co3_3 Co 0.0512(22) 0.6822(13) 0.469(4) 0.0030 Uiso
O7_3 O 0.0365(10) 0.6982(8) 0.0341(21) 0.0181 Uiso
O9_3 O 0.0214(10) 0.6082(6) 0.3444(18) 0.0003 Uiso
Co1_3 Co 0.9644(18) 0.6155(13) 0.136(4) 0.0030 Uiso
O1_3 O 0.9685(8) 0.6717(6) 0.3674(21) 0.0181 Uiso
O2_3 O 0.9202(8) 0.6453(6) 0.0111(18) 0.0003 Uiso
O3_3 O 0.9268(12) 0.6989(10) 0.6030(16) 0.0007 Uiso
C1_3 C 0.9310(8) 0.6840(6) 0.4236(19) 0.0290 Uiso
C2_3 C 0.8780(9) 0.6523(6) 0.0891(18) 0.0280 Uiso
C3_3 C 0.8785(8) 0.6710(6) 0.2877(17) 0.0200 Uiso
O5_3 O 0.7465(8) 0.6880(6) 0.3222(18) 0.0003 Uiso
C6_3 C 0.7887(9) 0.6810(6) 0.2442(18) 0.0280 Uiso
C7_3 C 0.7882(8) 0.6623(6) 0.0456(17) 0.0200 Uiso
C8_3 C 0.8360(8) 0.6836(6) 0.3594(15) 0.0081 Uiso
H2_3 H 0.8363(11) 0.6980(9) 0.5079(30) 0.0010 Uiso
Co5_3 Co 0.9844(22) 0.7023(18) 0.803(4) 0.0030 Uiso
Co6_3 Co 0.7023(18) 0.7178(13) 0.197(4) 0.0030 Uiso
Co8_3 Co 0.6822(22) 0.6311(18) 0.531(4) 0.0030 Uiso
O13_3 O 0.5612(16) 0.5935(12) 0.0637(16) 0.0007 Uiso
C4_3 C 0.8307(8) 0.6497(6) 0.9739(15) 0.0081 Uiso
H1_3 H 0.8304(11) 0.6353(9) 0.8254(30) 0.0010 Uiso
O4_3 O 0.6982(8) 0.6616(6) 0.9659(21) 0.0181 Uiso
C5_3 C 0.7357(8) 0.6493(6) 0.9097(19) 0.0290 Uiso
O6_3 O 0.7399(12) 0.6344(10) 0.7303(16) 0.0007 Uiso
Co2_3 Co 0.6155(22) 0.6511(13) 0.864(4) 0.0030 Uiso
O8_3 O 0.6717(10) 0.7032(6) 0.6326(21) 0.0181 Uiso
O10_3 O 0.6453(10) 0.7251(6) 0.9889(18) 0.0003 Uiso
O11_3 O 0.6082(10) 0.5869(8) 0.6556(18) 0.0003 Uiso
O12_3 O 0.9678(13) 0.5612(6) 0.9363(16) 0.0007 Uiso
C2_4 C 0.0144(6) 0.5590(7) 0.4224(18) 0.0280 Uiso
C4_4 C 0.0170(6) 0.5143(5) 0.3072(15) 0.0081 Uiso
H1_4 H 0.0314(9) 0.5284(7) 0.1587(30) 0.0010 Uiso
O4_4 O 0.0050(6) 0.3699(6) 0.2993(21) 0.0181 Uiso
C5_4 C 0.0173(6) 0.4197(6) 0.2431(19) 0.0290 Uiso
C7_4 C 0.0043(6) 0.4592(5) 0.3790(17) 0.0200 Uiso
O9_4 O 0.0584(6) 0.7465(8) 0.6778(18) 0.0003 Uiso
O12_4 O 0.1054(6) 0.7399(12) 0.2697(16) 0.0007 Uiso
O13_4 O 0.0732(12) 0.3011(10) 0.3970(16) 0.0007 Uiso
O1_4 O 0.9950(6) 0.6301(6) 0.7007(21) 0.0181 Uiso
C1_4 C 0.9827(6) 0.5803(6) 0.7569(19) 0.0290 Uiso
C3_4 C 0.9957(6) 0.5408(5) 0.6210(17) 0.0200 Uiso
C6_4 C 0.9856(6) 0.4410(7) 0.5776(18) 0.0280 Uiso
C8_4 C 0.9830(6) 0.4857(5) 0.6928(15) 0.0081 Uiso
H2_4 H 0.9686(9) 0.4716(7) 0.8413(30) 0.0010 Uiso
O1_5 O 0.3699(6) 0.3648(8) 0.7007(21) 0.0181 Uiso
C1_5 C 0.4197(6) 0.4023(8) 0.7569(19) 0.0290 Uiso
C2_5 C 0.4410(7) 0.4553(9) 0.4224(18) 0.0280 Uiso
C3_5 C 0.4592(5) 0.4548(8) 0.6210(17) 0.0200 Uiso
C4_5 C 0.4857(5) 0.5026(8) 0.3072(15) 0.0081 Uiso
H1_5 H 0.4716(7) 0.5029(11) 0.1587(30) 0.0010 Uiso
O4_5 O 0.6301(6) 0.6352(8) 0.2993(21) 0.0181 Uiso
C5_5 C 0.5803(6) 0.5977(8) 0.2431(19) 0.0290 Uiso
C6_5 C 0.5590(7) 0.5447(9) 0.5776(18) 0.0280 Uiso
C7_5 C 0.5408(5) 0.5452(8) 0.3790(17) 0.0200 Uiso
C8_5 C 0.5143(5) 0.4974(8) 0.6928(15) 0.0081 Uiso
H2_5 H 0.5284(7) 0.4971(11) 0.8413(30) 0.0010 Uiso
O9_5 O 0.2535(8) 0.3120(10) 0.6778(18) 0.0003 Uiso
O12_5 O 0.2601(12) 0.3656(13) 0.2697(16) 0.0007 Uiso
O13_5 O 0.6989(10) 0.7721(16) 0.3970(16) 0.0007 Uiso
O1_6 O 0.6352(8) 0.0050(6) 0.7007(21) 0.0181 Uiso
C1_6 C 0.5977(8) 0.0173(6) 0.7569(19) 0.0290 Uiso
C3_6 C 0.5452(8) 0.0043(6) 0.6210(17) 0.0200 Uiso
C6_6 C 0.4553(9) 0.0144(6) 0.5776(18) 0.0280 Uiso
C8_6 C 0.5026(8) 0.0170(6) 0.6928(15) 0.0081 Uiso
H2_6 H 0.5029(11) 0.0314(9) 0.8413(30) 0.0010 Uiso
C2_6 C 0.5447(9) 0.9856(6) 0.4224(18) 0.0280 Uiso
C4_6 C 0.4974(8) 0.9830(6) 0.3072(15) 0.0081 Uiso
H1_6 H 0.4971(11) 0.9686(9) 0.1587(30) 0.0010 Uiso
O4_6 O 0.3648(8) 0.9950(6) 0.2993(21) 0.0181 Uiso
C5_6 C 0.4023(8) 0.9827(6) 0.2431(19) 0.0290 Uiso
C7_6 C 0.4548(8) 0.9957(6) 0.3790(17) 0.0200 Uiso
O9_6 O 0.6880(10) 0.9416(6) 0.6778(18) 0.0003 Uiso
O12_6 O 0.6344(13) 0.8946(6) 0.2697(16) 0.0007 Uiso
O13_6 O 0.2279(16) 0.9268(12) 0.3970(16) 0.0007 Uiso
C1_7 C 0.6493(6) 0.9137(6) 0.0903(19) 0.0290 Uiso
C8_7 C 0.6497(6) 0.8190(5) 0.0261(15) 0.0081 Uiso
H2_7 H 0.6353(9) 0.8049(7) 0.1746(30) 0.0010 Uiso
C2_7 C 0.6810(6) 0.8924(7) 0.7558(18) 0.0280 Uiso
C3_7 C 0.6623(6) 0.8742(5) 0.9544(17) 0.0200 Uiso
C4_7 C 0.6836(6) 0.8477(5) 0.6406(15) 0.0081 Uiso
H1_7 H 0.6980(9) 0.8618(7) 0.4921(30) 0.0010 Uiso
C5_7 C 0.6840(6) 0.7530(6) 0.5764(19) 0.0290 Uiso
C6_7 C 0.6523(6) 0.7743(7) 0.9109(18) 0.0280 Uiso
C7_7 C 0.6710(6) 0.7925(5) 0.7123(17) 0.0200 Uiso
C1_8 C 0.0863(6) 0.7357(8) 0.0903(19) 0.0290 Uiso
C8_8 C 0.1810(5) 0.8307(8) 0.0261(15) 0.0081 Uiso
H2_8 H 0.1951(7) 0.8304(11) 0.1746(30) 0.0010 Uiso
C2_8 C 0.1076(7) 0.7887(9) 0.7558(18) 0.0280 Uiso
C3_8 C 0.1258(5) 0.7882(8) 0.9544(17) 0.0200 Uiso
C4_8 C 0.1523(5) 0.8360(8) 0.6406(15) 0.0081 Uiso
H1_8 H 0.1382(7) 0.8363(11) 0.4921(30) 0.0010 Uiso
C5_8 C 0.2470(6) 0.9310(8) 0.5764(19) 0.0290 Uiso
C6_8 C 0.2257(7) 0.8780(9) 0.9109(18) 0.0280 Uiso
C7_8 C 0.2075(5) 0.8785(8) 0.7123(17) 0.0200 Uiso
C1_9 C 0.2643(8) 0.3507(6) 0.0903(19) 0.0290 Uiso
C8_9 C 0.1693(8) 0.3503(6) 0.0261(15) 0.0081 Uiso
H2_9 H 0.1696(11) 0.3647(9) 0.1746(30) 0.0010 Uiso
C2_9 C 0.2113(9) 0.3190(6) 0.7558(18) 0.0280 Uiso
C3_9 C 0.2118(8) 0.3377(6) 0.9544(17) 0.0200 Uiso
C4_9 C 0.1640(8) 0.3164(6) 0.6406(15) 0.0081 Uiso
H1_9 H 0.1637(11) 0.3020(9) 0.4921(30) 0.0010 Uiso
C5_9 C 0.0690(8) 0.3160(6) 0.5764(19) 0.0290 Uiso
C6_9 C 0.1220(9) 0.3477(6) 0.9109(18) 0.0280 Uiso
C7_9 C 0.1215(8) 0.3290(6) 0.7123(17) 0.0200 Uiso
loop_
_geom_bond_atom_site_label_1
_geom_bond_atom_site_label_2
_geom_bond_site_symmetry_1
_geom_bond_site_symmetry_2
Co1 O1 1_555 1_555
O1 C1 1_555 1_555
O2 Co1 1_555 1_555
O3 C1 1_555 1_555
C1 C3 1_555 1_555
C2 O2 1_555 1_555
C3 C2 1_555 1_555
O5 C6 1_555 1_555
C6 C7 1_555 1_555
C8 C3 1_555 1_555
H2 C8 1_555 1_555
Co3 O1 1_555 1_555
Co5 O3 1_555 1_555
Co8 O5 1_555 1_555
O7 Co1 1_555 1_555
O9 Co1 1_555 1_555
C6 C8 1_555 1_555
Co3 O9 1_555 1_555
H1 C4 1_555 1_555
O4 C5 1_555 1_555
O6 C5 1_555 1_555
Co8 O6 1_555 1_555
Co8 O11 1_555 1_555
O8 Co2 1_555 1_555
O10 Co2 1_555 1_555
O8_2 Co2_2 1_555 1_555
O10_2 Co2_2 1_555 1_555
Co1_2 O1_2 1_555 1_555
O1_2 C1_2 1_555 1_555
O2_2 Co1_2 1_555 1_555
O3_2 C1_2 1_555 1_555
C1_2 C3_2 1_555 1_555
C2_2 O2_2 1_555 1_555
C3_2 C2_2 1_555 1_555
O5_2 C6_2 1_555 1_555
C6_2 C7_2 1_555 1_555
C8_2 C3_2 1_555 1_555
H2_2 C8_2 1_555 1_555
Co5_2 O3_2 1_555 1_555
Co8_2 O5_2 1_555 1_555
C6_2 C8_2 1_555 1_555
H1_2 C4_2 1_555 1_555
O4_2 C5_2 1_555 1_555
O6_2 C5_2 1_555 1_555
Co8_2 O6_2 1_555 1_555
Co8_2 O11_2 1_555 1_555
Co3_2 O9_2 1_555 1_555
Co3_3 O9_3 1_555 1_555
Co1_3 O1_3 1_555 1_555
O1_3 C1_3 1_555 1_555
O2_3 Co1_3 1_555 1_555
O3_3 C1_3 1_555 1_555
C1_3 C3_3 1_555 1_555
C2_3 O2_3 1_555 1_555
C3_3 C2_3 1_555 1_555
O5_3 C6_3 1_555 1_555
C6_3 C7_3 1_555 1_555
C8_3 C3_3 1_555 1_555
H2_3 C8_3 1_555 1_555
Co5_3 O3_3 1_555 1_555
Co8_3 O5_3 1_555 1_555
O5_3 Co6_3 1_555 1_555
C6_3 C8_3 1_555 1_555
H1_3 C4_3 1_555 1_555
O4_3 C5_3 1_555 1_555
O6_3 C5_3 1_555 1_555
Co2_3 O4_3 1_555 1_555
Co8_3 O6_3 1_555 1_555
O8_3 Co2_3 1_555 1_555
O10_3 Co2_3 1_555 1_555
O11_3 Co2_3 1_555 1_555
Co8_3 O8_3 1_555 1_555
Co8_3 O11_3 1_555 1_555
C2_4 O9_3 1_555 1_555
C4_4 C2_4 1_555 1_555
H1_4 C4_4 1_555 1_555
O4_4 C5_4 1_555 1_555
C5_4 C7_4 1_555 1_555
C7_4 C4_4 1_555 1_555
O13_2 C5_4 1_555 1_555
Co6_2 O4_4 1_555 1_555
O9_4 Co3_3 1_555 1_555
O12_4 Co3_3 1_555 1_555
O13_4 Co6_2 1_555 1_555
O1_4 C1_4 1_555 1_555
O12_3 C1_4 1_555 1_555
C1_4 C3_4 1_555 1_555
O11_2 C6_4 1_555 1_555
C8_4 C3_4 1_555 1_555
H2_4 C8_4 1_555 1_555
Co5_3 O1_4 1_555 1_555
C6_4 C8_4 1_555 1_555
Co3 O1_5 1_555 1_555
O1_5 C1_5 1_555 1_555
O12 C1_5 1_555 1_555
C1_5 C3_5 1_555 1_555
C2_5 O9 1_555 1_555
C3_5 C2_5 1_555 1_555
C4_5 C2_5 1_555 1_555
H1_5 C4_5 1_555 1_555
O4_5 C5_5 1_555 1_555
O11_3 C6_5 1_555 1_555
C5_5 C7_5 1_555 1_555
C6_5 C7_5 1_555 1_555
C7_5 C4_5 1_555 1_555
C8_5 C3_5 1_555 1_555
H2_5 C8_5 1_555 1_555
O13_3 C5_5 1_555 1_555
Co6_3 O4_5 1_555 1_555
Co5 O1_5 1_555 1_555
Co8_3 O4_5 1_555 1_555
O9_5 Co3 1_555 1_555
O12_5 Co3 1_555 1_555
O13_5 Co6_3 1_555 1_555
C6_5 C8_5 1_555 1_555
Co5 O9_5 1_555 1_555
O1_6 C1_6 1_555 1_555
O12_2 C1_6 1_555 1_555
C1_6 C3_6 1_555 1_555
O11 C6_6 1_555 1_555
C8_6 C3_6 1_555 1_555
H2_6 C8_6 1_555 1_555
Co5_2 O1_6 1_555 1_555
C6_6 C8_6 1_555 1_555
C2_6 O9_2 1_555 1_555
C4_6 C2_6 1_555 1_555
H1_6 C4_6 1_555 1_555
O4_6 C5_6 1_555 1_555
C5_6 C7_6 1_555 1_555
C7_6 C4_6 1_555 1_555
O13 C5_6 1_555 1_555
Co6 O4_6 1_555 1_555
O9_6 Co3_2 1_555 1_555
O12_6 Co3_2 1_555 1_555
O13_6 Co6 1_555 1_555
O7_2 C1_7 1_555 1_555
O12_6 C1_7 1_555 1_555
H2_7 C8_7 1_555 1_555
C2_7 O9_6 1_555 1_555
C3_7 C2_7 1_555 1_555
C4_7 C2_7 1_555 1_555
H1_7 C4_7 1_555 1_555
O8_3 C5_7 1_555 1_555
O10_3 C6_7 1_555 1_555
C5_7 C7_7 1_555 1_555
C6_7 C7_7 1_555 1_555
C7_7 C4_7 1_555 1_555
O13_5 C5_7 1_555 1_555
O7_3 C1_8 1_555 1_555
O12_4 C1_8 1_555 1_555
H2_8 C8_8 1_555 1_555
C2_8 O9_4 1_555 1_555
C3_8 C2_8 1_555 1_555
C4_8 C2_8 1_555 1_555
H1_8 C4_8 1_555 1_555
O8 C5_8 1_555 1_555
O10 C6_8 1_555 1_555
C5_8 C7_8 1_555 1_555
C6_8 C7_8 1_555 1_555
C7_8 C4_8 1_555 1_555
O13_6 C5_8 1_555 1_555
O7 C1_9 1_555 1_555
O12_5 C1_9 1_555 1_555
H2_9 C8_9 1_555 1_555
C2_9 O9_5 1_555 1_555
C3_9 C2_9 1_555 1_555
C4_9 C2_9 1_555 1_555
H1_9 C4_9 1_555 1_555
O8_2 C5_9 1_555 1_555
O10_2 C6_9 1_555 1_555
C5_9 C7_9 1_555 1_555
C6_9 C7_9 1_555 1_555
C7_9 C4_9 1_555 1_555
O13_4 C5_9 1_555 1_555

#END
