
###############################################################################
#
# This file contains modified crystal structure data generated from the
# MOF subset of the Cambridge Structural Database (CSD) v543 
# hosted by the Cambridge Crystallographic Data Centre (CCDC).
#
# This work is licensed under the Creative Commons
# Attribution-NonCommercial-ShareAlike 4.0 International License.
# To view a copy of this license, visit
# http://creativecommons.org/licenses/by-nc-sa/4.0/
# or send a letter to
# Creative Commons, PO Box 1866, Mountain View, CA 94042, USA.
#
# CIF created using the CSD Python API on 29 September 2022
# The structure has been converted into the P1 space group
# The structure has a 3D framework
# The original CSD entry SAVGEF is in the triclinic crystal system
# The framework has been calculated to contain at least 10.0% void space
# The void calculation uses a probe of radius 1.32A, grid spacing 0.4
#
###############################################################################

data_SAVGEF
_chemical_formula_moiety         '(C116 H48 Cl8 N8 O24 Zn4)n'
_symmetry_cell_setting           triclinic
_symmetry_space_group_name_H-M   'P 1'
_symmetry_Int_Tables_number      1
_space_group_name_Hall           'P 1'
loop_
_symmetry_equiv_pos_site_id
_symmetry_equiv_pos_as_xyz
1 x,y,z
_cell_length_a                   13.0525(4)
_cell_length_b                   13.1212(5)
_cell_length_c                   26.5491(8)
_cell_angle_alpha                95.769(3)
_cell_angle_beta                 95.504(3)
_cell_angle_gamma                97.774(3)
_cell_volume                     4454.57
loop_
_atom_site_label
_atom_site_type_symbol
_atom_site_fract_x
_atom_site_fract_y
_atom_site_fract_z
O11 O 0.6416(3) 0.0784(2) 0.14799(14)
O12 O 0.6450(3) 0.0811(2) 0.23166(13)
C54 C 0.6443(3) 0.0367(3) 0.18841(18)
Zn5 Zn 0.65027(4) 0.22925(4) 0.13351(2)
Zn7 Zn 0.65170(4) 0.23605(4) 0.24433(2)
N4 N 0.6470(3) 0.2139(3) 0.05677(14)
C32 C 0.5637(4) 0.1616(5) 0.02704(19)
H10 H 0.5106 0.1233 0.0425
C33 C 0.7241(4) 0.2617(4) 0.03411(17)
H11 H 0.7842 0.2970 0.0548
Cl1 Cl 0.80387(16) 0.51754(13) 0.69335(5)
Cl2 Cl 0.59774(16) 0.54422(10) 0.73796(5)
Cl3 Cl 0.40176(12) 0.00570(11) 0.63622(5)
N1 N 0.6471(3) 0.2549(3) 0.32109(13)
N2 N 0.6222(4) 0.2732(4) 0.47796(15)
N3 N 0.6224(3) 0.2178(3) 0.89793(13)
O1 O 0.7381(4) 0.4201(4) 0.49442(15)
O2 O 0.4973(4) 0.1287(3) 0.46033(14)
O3 O 0.6325(3) 0.0458(3) 0.88363(13)
O4 O 0.6140(3) 0.3892(3) 0.91328(12)
O5 O 0.4964(2) 0.2188(3) 0.22014(11)
O6 O 0.4953(2) 0.2224(3) 0.13609(12)
O9 O 0.6607(3) 0.3880(3) 0.15134(16)
O10 O 0.6591(3) 0.3865(3) 0.23389(15)
C1 C 0.5624(4) 0.2786(4) 0.33983(18)
H1 H 0.5061 0.2896 0.3165
C2 C 0.5499(5) 0.2884(5) 0.3912(2)
H2 H 0.4877 0.3065 0.4031
C3 C 0.6306(5) 0.2709(4) 0.42372(18)
C4 C 0.7210(5) 0.2470(5) 0.4054(2)
H3 H 0.7784 0.2362 0.4281
C5 C 0.7264(4) 0.2389(5) 0.35364(19)
H4 H 0.7881 0.2216 0.3408
C6 C 0.5524(5) 0.1913(4) 0.4926(2)
C7 C 0.5504(4) 0.1875(4) 0.54773(19)
C8 C 0.6132(5) 0.2646(4) 0.58208(18)
C9 C 0.6724(5) 0.3475(5) 0.5657(2)
C10 C 0.6798(5) 0.3517(5) 0.5107(2)
C11 C 0.4861(5) 0.1089(4) 0.56486(19)
H5 H 0.4380 0.0621 0.5414
C12 C 0.4924(4) 0.0986(4) 0.61746(19)
C13 C 0.5625(4) 0.1650(4) 0.65230(18)
C14 C 0.6119(4) 0.2583(4) 0.63493(17)
C15 C 0.6543(5) 0.3451(4) 0.67112(18)
C16 C 0.7224(5) 0.4223(4) 0.6527(2)
C17 C 0.7302(6) 0.4245(5) 0.6006(2)
H6 H 0.7751 0.4786 0.5893
C18 C 0.5922(4) 0.1509(4) 0.70588(17)
C19 C 0.6140(4) 0.2414(4) 0.74053(16)
C20 C 0.6294(4) 0.3411(4) 0.72311(17)
C21 C 0.6179(5) 0.4260(4) 0.75768(19)
C22 C 0.6126(4) 0.4161(4) 0.80914(17)
H7 H 0.6058 0.4750 0.8318
C23 C 0.6171(3) 0.3234(4) 0.82733(16)
C24 C 0.6175(3) 0.2340(3) 0.79300(16)
C25 C 0.6162(4) 0.1342(4) 0.81092(17)
C26 C 0.6140(4) 0.0514(4) 0.77715(17)
C27 C 0.6042(4) 0.0578(4) 0.72503(17)
C28 C 0.6246(4) 0.1263(4) 0.86569(18)
C29 C 0.6185(4) 0.3156(4) 0.88273(17)
C30 C 0.6320(4) 0.2118(4) 0.95276(16)
C31 C 0.5527(4) 0.1615(6) 0.9749(2)
H9 H 0.4912 0.1273 0.9548
C34 C 0.7202(4) 0.2620(4) 0.98234(17)
H12 H 0.7767 0.2958 0.9673
C35 C 0.4516(3) 0.2203(3) 0.17592(17)
C36 C 0.3366(3) 0.2217(3) 0.17078(16)
C37 C 0.2818(4) 0.2315(4) 0.12373(18)
H13 H 0.3176 0.2334 0.0942
C38 C 0.1796(4) 0.2382(5) 0.11983(18)
H14 H 0.1443 0.2451 0.0876
C39 C 0.1236(3) 0.2352(4) 0.16292(16)
C40 C 0.0158(3) 0.2421(4) 0.16010(17)
C43 C 0.0175(4) 0.2290(4) 0.25011(18)
C44 C 0.1216(4) 0.2202(4) 0.25365(17)
H17 H 0.1568 0.2120 0.2857
C45 C 0.1773(3) 0.2231(3) 0.21094(16)
C46 C 0.2839(3) 0.2170(3) 0.21371(16)
H18 H 0.3208 0.2095 0.2454
C47 C 0.6597(4) 0.4302(4) 0.1959(2)
C48 C 0.6583(4) 0.5481(4) 0.2029(2)
C49 C 0.6595(4) 0.6001(4) 0.16213(19)
H19 H 0.6626 0.5639 0.1296
C50 C 0.6562(4) 0.7119(4) 0.16664(17)
C51 C 0.6570(4) 0.7672(4) 0.1257(2)
H20 H 0.6592 0.7335 0.0926
C52 C 0.6546(4) 0.8694(4) 0.1327(2)
H21 H 0.6569 0.9078 0.1043
C53 C 0.6487(4) 0.9224(3) 0.18225(19)
C55 C 0.6497(4) 0.8691(4) 0.2226(2)
H22 H 0.6489 0.9039 0.2556
C56 C 0.6520(4) 0.7583(4) 0.21609(19)
C57 C 0.6523(5) 0.7033(4) 0.2586(2)
H23 H 0.6500 0.7376 0.2917
C58 C 0.6562(5) 0.5976(4) 0.2517(2)
H24 H 0.6573 0.5591 0.2802
O13 O 0.8046(2) 0.2445(3) 0.15470(13)
O14 O 0.8073(2) 0.2465(3) 0.23919(13)
H15 H 0.9787 0.2494 0.1284
C41 C 0.9647(3) 0.2384(4) 0.20296(17)
C42 C 0.8503(4) 0.2440(3) 0.19844(17)
H16 H 0.9817 0.2287 0.2796
Cl4 Cl 0.60819(14) 0.94607(10) 0.68465(5)
H8 H 0.6193 0.9862 0.7890
O7 O 0.1954(2) 0.7555(3) 0.84530(13)
O8 O 0.1927(2) 0.7535(3) 0.76081(13)
H15_2 H 0.0213 0.7506 0.8716
C41_2 C 0.0353(3) 0.7616(4) 0.79704(17)
C42_2 C 0.1497(4) 0.7560(3) 0.80156(17)
H16_2 H 0.0183 0.7713 0.7204
Zn3 Zn 0.34973(4) 0.77075(4) 0.86649(2)
Zn6 Zn 0.34830(4) 0.76395(4) 0.75567(2)
Cl1_2 Cl 0.19613(16) 0.48246(13) 0.30665(5)
Cl2_2 Cl 0.40226(16) 0.45578(10) 0.26204(5)
Cl3_2 Cl 0.59824(12) 0.99430(11) 0.36378(5)
N1_2 N 0.3529(3) 0.7451(3) 0.67891(13)
N2_2 N 0.3778(4) 0.7268(4) 0.52204(15)
N3_2 N 0.3776(3) 0.7822(3) 0.10207(13)
O1_2 O 0.2619(4) 0.5799(4) 0.50558(15)
O2_2 O 0.5027(4) 0.8713(3) 0.53967(14)
O3_2 O 0.3675(3) 0.9542(3) 0.11637(13)
O4_2 O 0.3860(3) 0.6108(3) 0.08672(12)
O5_2 O 0.5036(2) 0.7812(3) 0.77986(11)
O6_2 O 0.5047(2) 0.7776(3) 0.86391(12)
O9_2 O 0.3393(3) 0.6120(3) 0.84866(16)
O10_2 O 0.3409(3) 0.6135(3) 0.76611(15)
C1_2 C 0.4376(4) 0.7214(4) 0.66017(18)
H1_2 H 0.4939 0.7104 0.6835
C2_2 C 0.4501(5) 0.7116(5) 0.6088(2)
H2_2 H 0.5123 0.6935 0.5969
C3_2 C 0.3694(5) 0.7291(4) 0.57628(18)
C4_2 C 0.2790(5) 0.7530(5) 0.5946(2)
H3_2 H 0.2216 0.7638 0.5719
C5_2 C 0.2736(4) 0.7611(5) 0.64636(19)
H4_2 H 0.2119 0.7784 0.6592
C6_2 C 0.4476(5) 0.8087(4) 0.5074(2)
C7_2 C 0.4496(4) 0.8125(4) 0.45227(19)
C8_2 C 0.3868(5) 0.7354(4) 0.41792(18)
C9_2 C 0.3276(5) 0.6525(5) 0.4343(2)
C10_2 C 0.3202(5) 0.6483(5) 0.4893(2)
C11_2 C 0.5139(5) 0.8911(4) 0.43514(19)
H5_2 H 0.5620 0.9379 0.4586
C12_2 C 0.5076(4) 0.9014(4) 0.38254(19)
C13_2 C 0.4375(4) 0.8350(4) 0.34770(18)
C14_2 C 0.3881(4) 0.7417(4) 0.36507(17)
C15_2 C 0.3457(5) 0.6549(4) 0.32888(18)
C16_2 C 0.2776(5) 0.5777(4) 0.3473(2)
C17_2 C 0.2698(6) 0.5755(5) 0.3994(2)
H6_2 H 0.2249 0.5214 0.4107
C18_2 C 0.4078(4) 0.8491(4) 0.29412(17)
C19_2 C 0.3860(4) 0.7586(4) 0.25947(16)
C20_2 C 0.3706(4) 0.6589(4) 0.27689(17)
C21_2 C 0.3821(5) 0.5740(4) 0.24232(19)
C22_2 C 0.3874(4) 0.5839(4) 0.19086(17)
H7_2 H 0.3942 0.5250 0.1682
C23_2 C 0.3829(3) 0.6766(4) 0.17267(16)
C24_2 C 0.3825(3) 0.7660(3) 0.20700(16)
C25_2 C 0.3838(4) 0.8658(4) 0.18908(17)
C26_2 C 0.3860(4) 0.9486(4) 0.22285(17)
C27_2 C 0.3958(4) 0.9422(4) 0.27497(17)
C28_2 C 0.3754(4) 0.8737(4) 0.13431(18)
C29_2 C 0.3815(4) 0.6844(4) 0.11727(17)
C30_2 C 0.3680(4) 0.7882(4) 0.04724(16)
C31_2 C 0.4473(4) 0.8385(6) 0.0251(2)
H9_2 H 0.5088 0.8727 0.0452
C34_2 C 0.2798(4) 0.7380(4) 0.01766(17)
H12_2 H 0.2233 0.7042 0.0327
C35_2 C 0.5484(3) 0.7797(3) 0.82408(17)
C36_2 C 0.6634(3) 0.7783(3) 0.82922(16)
C37_2 C 0.7182(4) 0.7685(4) 0.87627(18)
H13_2 H 0.6824 0.7666 0.9058
C38_2 C 0.8204(4) 0.7618(5) 0.88017(18)
H14_2 H 0.8557 0.7549 0.9124
C39_2 C 0.8764(3) 0.7648(4) 0.83708(16)
C40_2 C 0.9842(3) 0.7579(4) 0.83990(17)
C43_2 C 0.9825(4) 0.7710(4) 0.74989(18)
C44_2 C 0.8784(4) 0.7798(4) 0.74635(17)
H17_2 H 0.8432 0.7880 0.7143
C45_2 C 0.8227(3) 0.7769(3) 0.78906(16)
C46_2 C 0.7161(3) 0.7830(3) 0.78629(16)
H18_2 H 0.6792 0.7905 0.7546
C47_2 C 0.3403(4) 0.5698(4) 0.8041(2)
C48_2 C 0.3417(4) 0.4519(4) 0.7971(2)
C49_2 C 0.3405(4) 0.3999(4) 0.83787(19)
H19_2 H 0.3374 0.4361 0.8704
C50_2 C 0.3438(4) 0.2881(4) 0.83336(17)
C51_2 C 0.3430(4) 0.2328(4) 0.8743(2)
H20_2 H 0.3408 0.2665 0.9074
C52_2 C 0.3454(4) 0.1306(4) 0.8673(2)
H21_2 H 0.3431 0.0922 0.8957
C53_2 C 0.3513(4) 0.0776(3) 0.81775(19)
C55_2 C 0.3503(4) 0.1309(4) 0.7774(2)
H22_2 H 0.3511 0.0961 0.7444
C56_2 C 0.3480(4) 0.2417(4) 0.78391(19)
C57_2 C 0.3477(5) 0.2967(4) 0.7414(2)
H23_2 H 0.3500 0.2624 0.7083
C58_2 C 0.3438(5) 0.4024(4) 0.7483(2)
H24_2 H 0.3427 0.4409 0.7198
N5 N 0.3530(3) 0.7861(3) 0.94323(14)
O15 O 0.3584(3) 0.9216(2) 0.85201(14)
O16 O 0.3550(3) 0.9189(2) 0.76834(13)
C32_2 C 0.4363(4) 0.8384(5) 0.97296(19)
H10_2 H 0.4894 0.8767 0.9575
C33_2 C 0.2759(4) 0.7383(4) 0.96589(17)
H11_2 H 0.2158 0.7030 0.9452
C54_2 C 0.3557(3) 0.9633(3) 0.81159(18)
Cl4_2 Cl 0.39181(14) 0.05393(10) 0.31535(5)
H8_2 H 0.3807 0.0138 0.2110
loop_
_geom_bond_atom_site_label_1
_geom_bond_atom_site_label_2
_geom_bond_site_symmetry_1
_geom_bond_site_symmetry_2
O11 C54 1_555 1_555
O12 C54 1_555 1_555
Zn5 O11 1_555 1_555
Zn7 O12 1_555 1_555
N4 C32 1_555 1_555
H10 C32 1_555 1_555
C33 N4 1_555 1_555
H11 C33 1_555 1_555
Zn5 N4 1_555 1_555
Zn5 O6 1_555 1_555
Zn7 N1 1_555 1_555
Cl1 C16 1_555 1_555
Cl2 C21 1_555 1_555
Cl3 C12 1_555 1_555
N1 C1 1_555 1_555
N2 C3 1_555 1_555
N3 C28 1_555 1_555
O1 C10 1_555 1_555
O2 C6 1_555 1_555
O3 C28 1_555 1_555
O4 C29 1_555 1_555
O5 Zn7 1_555 1_555
O6 C35 1_555 1_555
O9 Zn5 1_555 1_555
O10 Zn7 1_555 1_555
C1 H1 1_555 1_555
C2 C1 1_555 1_555
H2 C2 1_555 1_555
C3 C2 1_555 1_555
C4 C3 1_555 1_555
H3 C4 1_555 1_555
C5 N1 1_555 1_555
H4 C5 1_555 1_555
C6 N2 1_555 1_555
C7 C6 1_555 1_555
C8 C7 1_555 1_555
C9 C8 1_555 1_555
C10 N2 1_555 1_555
C11 C7 1_555 1_555
H5 C11 1_555 1_555
C12 C11 1_555 1_555
C13 C12 1_555 1_555
C14 C8 1_555 1_555
C15 C14 1_555 1_555
C16 C15 1_555 1_555
C17 C9 1_555 1_555
H6 C17 1_555 1_555
C18 C13 1_555 1_555
C19 C18 1_555 1_555
C20 C15 1_555 1_555
C21 C20 1_555 1_555
C22 C21 1_555 1_555
H7 C22 1_555 1_555
C23 C22 1_555 1_555
C24 C19 1_555 1_555
C25 C24 1_555 1_555
C26 C25 1_555 1_555
C27 C18 1_555 1_555
C28 C25 1_555 1_555
C29 N3 1_555 1_555
C30 N3 1_555 1_555
C31 C30 1_555 1_555
H9 C31 1_555 1_555
C34 C30 1_555 1_555
H12 C34 1_555 1_555
C35 O5 1_555 1_555
C36 C35 1_555 1_555
C37 C36 1_555 1_555
H13 C37 1_555 1_555
C38 C37 1_555 1_555
H14 C38 1_555 1_555
C39 C38 1_555 1_555
C40 C39 1_555 1_555
C44 C43 1_555 1_555
H17 C44 1_555 1_555
C45 C39 1_555 1_555
C46 C36 1_555 1_555
H18 C46 1_555 1_555
C47 O9 1_555 1_555
C48 C47 1_555 1_555
C49 C48 1_555 1_555
H19 C49 1_555 1_555
C50 C49 1_555 1_555
C51 C50 1_555 1_555
H20 C51 1_555 1_555
C52 C51 1_555 1_555
H21 C52 1_555 1_555
C53 C52 1_555 1_555
C55 C53 1_555 1_555
H22 C55 1_555 1_555
C56 C50 1_555 1_555
C57 C56 1_555 1_555
H23 C57 1_555 1_555
C58 C48 1_555 1_555
H24 C58 1_555 1_555
O13 Zn5 1_555 1_555
O14 Zn7 1_555 1_555
O10 C47 1_555 1_555
C4 C5 1_555 1_555
C9 C10 1_555 1_555
C13 C14 1_555 1_555
C16 C17 1_555 1_555
C19 C20 1_555 1_555
C23 C24 1_555 1_555
C23 C29 1_555 1_555
C26 C27 1_555 1_555
C44 C45 1_555 1_555
C45 C46 1_555 1_555
C55 C56 1_555 1_555
C57 C58 1_555 1_555
O13 C42 1_555 1_555
O14 C42 1_555 1_555
C42 C41 1_555 1_555
O7 C42_2 1_555 1_555
O8 C42_2 1_555 1_555
C42_2 C41_2 1_555 1_555
Zn3 O7 1_555 1_555
Zn6 O8 1_555 1_555
Zn3 O6_2 1_555 1_555
Zn6 N1_2 1_555 1_555
Cl1_2 C16_2 1_555 1_555
Cl2_2 C21_2 1_555 1_555
Cl3_2 C12_2 1_555 1_555
N1_2 C1_2 1_555 1_555
N2_2 C3_2 1_555 1_555
N3_2 C28_2 1_555 1_555
O1_2 C10_2 1_555 1_555
O2_2 C6_2 1_555 1_555
O3_2 C28_2 1_555 1_555
O4_2 C29_2 1_555 1_555
O5_2 Zn6 1_555 1_555
O6_2 C35_2 1_555 1_555
O9_2 Zn3 1_555 1_555
O10_2 Zn6 1_555 1_555
C1_2 H1_2 1_555 1_555
C2_2 C1_2 1_555 1_555
H2_2 C2_2 1_555 1_555
C3_2 C2_2 1_555 1_555
C4_2 C3_2 1_555 1_555
H3_2 C4_2 1_555 1_555
C5_2 N1_2 1_555 1_555
H4_2 C5_2 1_555 1_555
C6_2 N2_2 1_555 1_555
C7_2 C6_2 1_555 1_555
C8_2 C7_2 1_555 1_555
C9_2 C8_2 1_555 1_555
C10_2 N2_2 1_555 1_555
C11_2 C7_2 1_555 1_555
H5_2 C11_2 1_555 1_555
C12_2 C11_2 1_555 1_555
C13_2 C12_2 1_555 1_555
C14_2 C8_2 1_555 1_555
C15_2 C14_2 1_555 1_555
C16_2 C15_2 1_555 1_555
C17_2 C9_2 1_555 1_555
H6_2 C17_2 1_555 1_555
C18_2 C13_2 1_555 1_555
C19_2 C18_2 1_555 1_555
C20_2 C15_2 1_555 1_555
C21_2 C20_2 1_555 1_555
C22_2 C21_2 1_555 1_555
H7_2 C22_2 1_555 1_555
C23_2 C22_2 1_555 1_555
C24_2 C19_2 1_555 1_555
C25_2 C24_2 1_555 1_555
C26_2 C25_2 1_555 1_555
C27_2 C18_2 1_555 1_555
C28_2 C25_2 1_555 1_555
C29_2 N3_2 1_555 1_555
C30_2 N3_2 1_555 1_555
C31_2 C30_2 1_555 1_555
H9_2 C31_2 1_555 1_555
C34_2 C30_2 1_555 1_555
H12_2 C34_2 1_555 1_555
C35_2 O5_2 1_555 1_555
C36_2 C35_2 1_555 1_555
C37_2 C36_2 1_555 1_555
H13_2 C37_2 1_555 1_555
C38_2 C37_2 1_555 1_555
H14_2 C38_2 1_555 1_555
C39_2 C38_2 1_555 1_555
C40_2 C39_2 1_555 1_555
C44_2 C43_2 1_555 1_555
H17_2 C44_2 1_555 1_555
C45_2 C39_2 1_555 1_555
C46_2 C36_2 1_555 1_555
H18_2 C46_2 1_555 1_555
C47_2 O9_2 1_555 1_555
C48_2 C47_2 1_555 1_555
C49_2 C48_2 1_555 1_555
H19_2 C49_2 1_555 1_555
C50_2 C49_2 1_555 1_555
C51_2 C50_2 1_555 1_555
H20_2 C51_2 1_555 1_555
C52_2 C51_2 1_555 1_555
H21_2 C52_2 1_555 1_555
C53_2 C52_2 1_555 1_555
C55_2 C53_2 1_555 1_555
H22_2 C55_2 1_555 1_555
C56_2 C50_2 1_555 1_555
C57_2 C56_2 1_555 1_555
H23_2 C57_2 1_555 1_555
C58_2 C48_2 1_555 1_555
H24_2 C58_2 1_555 1_555
N5 Zn3 1_555 1_555
O15 Zn3 1_555 1_555
O16 Zn6 1_555 1_555
O10_2 C47_2 1_555 1_555
C4_2 C5_2 1_555 1_555
C9_2 C10_2 1_555 1_555
C13_2 C14_2 1_555 1_555
C16_2 C17_2 1_555 1_555
C19_2 C20_2 1_555 1_555
C23_2 C24_2 1_555 1_555
C23_2 C29_2 1_555 1_555
C26_2 C27_2 1_555 1_555
C44_2 C45_2 1_555 1_555
C45_2 C46_2 1_555 1_555
C55_2 C56_2 1_555 1_555
C57_2 C58_2 1_555 1_555
N5 C32_2 1_555 1_555
H10_2 C32_2 1_555 1_555
C33_2 N5 1_555 1_555
H11_2 C33_2 1_555 1_555
O15 C54_2 1_555 1_555
O16 C54_2 1_555 1_555

#END
