
###############################################################################
#
# This file contains modified crystal structure data generated from the
# MOF subset of the Cambridge Structural Database (CSD) v543 
# hosted by the Cambridge Crystallographic Data Centre (CCDC).
#
# This work is licensed under the Creative Commons
# Attribution-NonCommercial-ShareAlike 4.0 International License.
# To view a copy of this license, visit
# http://creativecommons.org/licenses/by-nc-sa/4.0/
# or send a letter to
# Creative Commons, PO Box 1866, Mountain View, CA 94042, USA.
#
# CIF created using the CSD Python API on 29 September 2022
# The structure has been converted into the P1 space group
# The structure has a 3D framework
# The original CSD entry SAVWAO02 is in the triclinic crystal system
# The framework has been calculated to contain at least 10.0% void space
# The void calculation uses a probe of radius 1.32A, grid spacing 0.4
#
###############################################################################

data_SAVWAO02
_chemical_formula_moiety         '(C44 H32 Co4 N8 O20 V2)n'
_symmetry_cell_setting           triclinic
_symmetry_space_group_name_H-M   'P 1'
_symmetry_Int_Tables_number      1
_space_group_name_Hall           'P 1'
loop_
_symmetry_equiv_pos_site_id
_symmetry_equiv_pos_as_xyz
1 x,y,z
_cell_length_a                   9.7987(8)
_cell_length_b                   11.2701(10)
_cell_length_c                   14.2000(12)
_cell_angle_alpha                101.799(2)
_cell_angle_beta                 104.251(2)
_cell_angle_gamma                103.899(2)
_cell_volume                     1416.29
loop_
_atom_site_label
_atom_site_type_symbol
_atom_site_fract_x
_atom_site_fract_y
_atom_site_fract_z
O13 O 0.1031(3) 0.0030(3) 0.6444(2)
O16 O 0.1166(3) 0.8690(3) 0.9599(2)
V2 V 0.25732(8) 0.01868(7) 0.99667(6)
O17 O 0.3032(3) 0.0485(3) 0.8973(2)
C12 C 0.1372(5) 0.1869(4) 0.7733(3)
C13 C 0.2247(5) 0.3055(4) 0.8355(3)
H8 H 0.3195 0.3398 0.8328
C14 C 0.1693(5) 0.3731(4) 0.9021(3)
C15 C 0.0309(5) 0.3150(4) 0.9064(3)
C17 C 0.1966(5) 0.1039(4) 0.7069(3)
C18 C 0.3999(5) 0.7175(4) 0.9874(4)
H11 H 0.4410 0.7778 0.9581
C19 C 0.3215(6) 0.5940(4) 0.9262(4)
H12 H 0.3132 0.5725 0.8578
C20 C 0.2566(5) 0.5048(4) 0.9674(4)
O4 O 0.3316(3) 0.1384(3) 0.7177(2)
Co3 Co 0.46097(6) 0.05970(5) 0.82750(4)
C21 C 0.7252(5) 0.4586(4) 0.9314(4)
H13 H 0.7674 0.5159 0.9001
C22 C 0.6430(5) 0.3345(4) 0.8760(4)
H14 H 0.6306 0.3113 0.8070
N4 N 0.5818(4) 0.2479(3) 0.9144(3)
O1 O 0.5978(3) 0.0472(2) 0.7369(2)
O11 O 0.8216(3) 0.0252(3) 0.5358(2)
H15 H 0.7935 0.0927 0.5500
H16 H 0.8454 0.0212 0.4799
N5 N 0.9969(4) 0.1358(3) 0.7702(3)
Co2 Co 0.89251(6) 0.95167(5) 0.66072(4)
V1 V 0.92806(8) 0.81843(7) 0.87877(6)
C1 C 0.5599(4) 0.1656(4) 0.3218(3)
C2 C 0.5986(5) 0.2883(4) 0.3814(3)
H1 H 0.5370 0.3124 0.4169
C3 C 0.7296(5) 0.3766(4) 0.3887(3)
C4 C 0.8163(5) 0.3351(4) 0.3338(4)
H2 H 0.9053 0.3907 0.3366
C5 C 0.7693(5) 0.2100(4) 0.2746(3)
H3 H 0.8284 0.1832 0.2380
C6 C 0.4196(5) 0.0653(4) 0.3121(3)
C7 C 0.7697(5) 0.6656(4) 0.5928(3)
H4 H 0.7409 0.6833 0.6505
C8 C 0.7311(5) 0.5406(4) 0.5367(3)
H5 H 0.6761 0.4763 0.5564
C9 C 0.7735(5) 0.5104(4) 0.4512(3)
C10 C 0.8569(5) 0.6098(4) 0.4275(4)
H6 H 0.8907 0.5943 0.3718
C11 C 0.8904(5) 0.7332(4) 0.4867(4)
H7 H 0.9463 0.7991 0.4689
N1 N 0.6431(4) 0.1266(3) 0.2679(3)
N2 N 0.8468(4) 0.7623(3) 0.5676(3)
O2 O 0.3334(3) 0.0998(3) 0.3552(2)
O5 O 0.9232(3) 0.8860(3) 0.7863(2)
O6 O 0.8760(4) 0.6649(3) 0.8319(2)
O7 O 0.1899(3) 0.1405(3) 0.0511(2)
O9 O 0.4031(3) 0.0108(3) 0.0780(2)
Co5 Co 0.10749(6) 0.04833(5) 0.33928(4)
V3 V 0.07194(8) 0.18157(7) 0.12123(6)
O12 O 0.6666(3) 0.9002(3) 0.6448(2)
O15 O 0.8101(3) 0.8595(3) 0.9489(2)
H9 H 0.9943 0.3542 0.9545
C16 C 0.9467(5) 0.1974(4) 0.8382(3)
H10 H 0.8521 0.1604 0.8400
H9_2 H 0.0057 0.6458 0.0455
C16_2 C 0.0533(5) 0.8026(4) 0.1618(3)
H10_2 H 0.1479 0.8396 0.1600
N3 N 0.0031(4) 0.8642(3) 0.2298(3)
C1_2 C 0.4401(4) 0.8344(4) 0.6782(3)
C2_2 C 0.4014(5) 0.7117(4) 0.6186(3)
H1_2 H 0.4630 0.6876 0.5831
C3_2 C 0.2704(5) 0.6234(4) 0.6113(3)
C4_2 C 0.1837(5) 0.6649(4) 0.6662(4)
H2_2 H 0.0947 0.6093 0.6634
C5_2 C 0.2307(5) 0.7900(4) 0.7254(3)
H3_2 H 0.1716 0.8168 0.7620
C6_2 C 0.5804(5) 0.9347(4) 0.6879(3)
C7_2 C 0.2303(5) 0.3344(4) 0.4072(3)
H4_2 H 0.2591 0.3167 0.3495
C8_2 C 0.2689(5) 0.4594(4) 0.4633(3)
H5_2 H 0.3239 0.5237 0.4436
C9_2 C 0.2265(5) 0.4896(4) 0.5488(3)
C10_2 C 0.1431(5) 0.3902(4) 0.5725(4)
H6_2 H 0.1093 0.4057 0.6282
C11_2 C 0.1096(5) 0.2668(4) 0.5133(4)
H7_2 H 0.0537 0.2009 0.5311
N1_2 N 0.3569(4) 0.8734(3) 0.7321(3)
N2_2 N 0.1532(4) 0.2377(3) 0.4324(3)
O5_2 O 0.0768(3) 0.1140(3) 0.2137(2)
O6_2 O 0.1240(4) 0.3351(3) 0.1681(2)
O9_2 O 0.5969(3) 0.9892(3) 0.9220(2)
O11_2 O 0.1784(3) 0.9748(3) 0.4642(2)
H15_2 H 0.2065 0.9073 0.4500
H16_2 H 0.1546 0.9788 0.5201
Co1 Co 0.53903(6) 0.94030(5) 0.17250(4)
C21_2 C 0.2748(5) 0.5414(4) 0.0686(4)
H13_2 H 0.2326 0.4841 0.0999
C22_2 C 0.3570(5) 0.6655(4) 0.1240(4)
H14_2 H 0.3694 0.6887 0.1930
N4_2 N 0.4182(4) 0.7521(3) 0.0856(3)
O1_2 O 0.4022(3) 0.9528(2) 0.2631(2)
O10 O 0.6968(3) 0.9515(3) 0.1027(2)
V5 V 0.74268(8) 0.98132(7) 0.00333(6)
O14 O 0.6684(3) 0.8616(3) 0.2823(2)
C12_2 C 0.8628(5) 0.8131(4) 0.2267(3)
C13_2 C 0.7753(5) 0.6945(4) 0.1645(3)
H8_2 H 0.6805 0.6602 0.1672
C14_2 C 0.8307(5) 0.6269(4) 0.0979(3)
C15_2 C 0.9691(5) 0.6850(4) 0.0936(3)
C17_2 C 0.8034(5) 0.8961(4) 0.2931(3)
C18_2 C 0.6001(5) 0.2825(4) 0.0126(4)
H11_2 H 0.5590 0.2222 0.0419
C19_2 C 0.6785(6) 0.4060(4) 0.0738(4)
H12_2 H 0.6868 0.4275 0.1422
C20_2 C 0.7434(5) 0.4952(4) 0.0326(4)
O3 O 0.8969(3) 0.9970(3) 0.3556(2)
O8 O 0.8834(3) 0.1310(3) 0.0401(2)
loop_
_geom_bond_atom_site_label_1
_geom_bond_atom_site_label_2
_geom_bond_site_symmetry_1
_geom_bond_site_symmetry_2
O17 V2 1_555 1_555
C12 C13 1_555 1_555
C13 H8 1_555 1_555
C14 C13 1_555 1_555
C15 C14 1_555 1_555
C17 C12 1_555 1_555
C18 H11 1_555 1_555
C19 C18 1_555 1_555
H12 C19 1_555 1_555
C20 C14 1_555 1_555
O13 C17 1_555 1_555
O4 C17 1_555 1_555
Co3 O4 1_555 1_555
C19 C20 1_555 1_555
H13 C21 1_555 1_555
C22 C21 1_555 1_555
H14 C22 1_555 1_555
N4 Co3 1_555 1_555
O1 Co3 1_555 1_555
O17 Co3 1_555 1_555
C22 N4 1_555 1_555
H15 O11 1_555 1_555
H16 O11 1_555 1_555
Co2 N2 1_555 1_555
V1 O5 1_555 1_555
C1 C2 1_555 1_555
C2 H1 1_555 1_555
C3 C2 1_555 1_555
C4 C3 1_555 1_555
H2 C4 1_555 1_555
C5 C4 1_555 1_555
H3 C5 1_555 1_555
C6 C1 1_555 1_555
C7 H4 1_555 1_555
C8 C7 1_555 1_555
H5 C8 1_555 1_555
C9 C3 1_555 1_555
C10 C9 1_555 1_555
H6 C10 1_555 1_555
C11 C10 1_555 1_555
H7 C11 1_555 1_555
N1 C1 1_555 1_555
N2 C7 1_555 1_555
O2 C6 1_555 1_555
O5 Co2 1_555 1_555
O6 V1 1_555 1_555
O7 V3 1_555 1_555
Co5 O2 1_555 1_555
O12 Co2 1_555 1_555
O15 V1 1_555 1_555
C5 N1 1_555 1_555
C8 C9 1_555 1_555
C11 N2 1_555 1_555
H10 C16 1_555 1_555
C16 N5 1_555 1_555
H10_2 C16_2 1_555 1_555
C16_2 N3 1_555 1_555
Co5 N2_2 1_555 1_555
V3 O5_2 1_555 1_555
C1_2 C2_2 1_555 1_555
C2_2 H1_2 1_555 1_555
C3_2 C2_2 1_555 1_555
C4_2 C3_2 1_555 1_555
H2_2 C4_2 1_555 1_555
C5_2 C4_2 1_555 1_555
H3_2 C5_2 1_555 1_555
C6_2 C1_2 1_555 1_555
C7_2 H4_2 1_555 1_555
C8_2 C7_2 1_555 1_555
H5_2 C8_2 1_555 1_555
C9_2 C3_2 1_555 1_555
C10_2 C9_2 1_555 1_555
H6_2 C10_2 1_555 1_555
C11_2 C10_2 1_555 1_555
H7_2 C11_2 1_555 1_555
N1_2 C1_2 1_555 1_555
N2_2 C7_2 1_555 1_555
O12 C6_2 1_555 1_555
O5_2 Co5 1_555 1_555
O6_2 V3 1_555 1_555
C5_2 N1_2 1_555 1_555
C8_2 C9_2 1_555 1_555
C11_2 N2_2 1_555 1_555
H15_2 O11_2 1_555 1_555
H16_2 O11_2 1_555 1_555
H13_2 C21_2 1_555 1_555
C22_2 C21_2 1_555 1_555
H14_2 C22_2 1_555 1_555
N4_2 Co1 1_555 1_555
O1_2 Co1 1_555 1_555
O10 Co1 1_555 1_555
V5 O10 1_555 1_555
O14 Co1 1_555 1_555
C22_2 N4_2 1_555 1_555
C12_2 C13_2 1_555 1_555
C13_2 H8_2 1_555 1_555
C14_2 C13_2 1_555 1_555
C15_2 C14_2 1_555 1_555
C17_2 C12_2 1_555 1_555
C18_2 H11_2 1_555 1_555
C19_2 C18_2 1_555 1_555
H12_2 C19_2 1_555 1_555
C20_2 C14_2 1_555 1_555
O3 C17_2 1_555 1_555
O14 C17_2 1_555 1_555
C19_2 C20_2 1_555 1_555

#END
