
###############################################################################
#
# This file contains modified crystal structure data generated from the
# MOF subset of the Cambridge Structural Database (CSD) v543 
# hosted by the Cambridge Crystallographic Data Centre (CCDC).
#
# This work is licensed under the Creative Commons
# Attribution-NonCommercial-ShareAlike 4.0 International License.
# To view a copy of this license, visit
# http://creativecommons.org/licenses/by-nc-sa/4.0/
# or send a letter to
# Creative Commons, PO Box 1866, Mountain View, CA 94042, USA.
#
# CIF created using the CSD Python API on 29 September 2022
# The structure has been converted into the P1 space group
# The structure has a 3D framework
# The original CSD entry SAVWAO01 is in the triclinic crystal system
# The framework has been calculated to contain at least 10.0% void space
# The void calculation uses a probe of radius 1.32A, grid spacing 0.4
#
###############################################################################

data_SAVWAO01
_chemical_formula_moiety         '(C44 H32 Co4 N8 O20 V2)n'
_symmetry_cell_setting           triclinic
_symmetry_space_group_name_H-M   'P 1'
_symmetry_Int_Tables_number      1
_space_group_name_Hall           'P 1'
loop_
_symmetry_equiv_pos_site_id
_symmetry_equiv_pos_as_xyz
1 x,y,z
_cell_length_a                   9.7941(6)
_cell_length_b                   11.2958(7)
_cell_length_c                   14.1310(9)
_cell_angle_alpha                101.7280(10)
_cell_angle_beta                 104.4470(10)
_cell_angle_gamma                104.0540(10)
_cell_volume                     1409.48
loop_
_atom_site_label
_atom_site_type_symbol
_atom_site_fract_x
_atom_site_fract_y
_atom_site_fract_z
O13 O 0.1040(2) 0.0030(2) 0.64286(17)
O16 O 0.1175(2) 0.8649(2) 0.95869(18)
V2 V 0.25615(6) 0.01586(5) 0.99519(4)
O17 O 0.3016(2) 0.0456(2) 0.89515(17)
C12 C 0.1390(3) 0.1875(3) 0.7726(2)
C13 C 0.2256(4) 0.3061(3) 0.8339(3)
H8 H 0.3222 0.3415 0.8307
C14 C 0.1711(4) 0.3745(3) 0.9009(3)
C15 C 0.0325(3) 0.3139(3) 0.9054(3)
C17 C 0.1963(3) 0.1044(3) 0.7052(3)
C18 C 0.4021(4) 0.7186(3) 0.9851(3)
H11 H 0.4441 0.7802 0.9550
C19 C 0.3271(4) 0.5958(3) 0.9243(3)
H12 H 0.3228 0.5731 0.8549
C20 C 0.2577(3) 0.5054(3) 0.9652(3)
O4 O 0.3336(2) 0.1390(2) 0.71678(17)
Co3 Co 0.46106(4) 0.05925(4) 0.82652(3)
C21 C 0.7275(4) 0.4555(3) 0.9329(3)
H13 H 0.7730 0.5134 0.9013
C22 C 0.6464(4) 0.3322(3) 0.8770(3)
H14 H 0.6363 0.3082 0.8065
N4 N 0.5819(3) 0.2454(3) 0.9155(2)
O1 O 0.5991(2) 0.0466(2) 0.73571(17)
O11 O 0.8213(3) 0.0262(2) 0.53586(19)
H15 H 0.794(6) 0.095(3) 0.553(4)
H16 H 0.846(6) 0.023(5) 0.479(2)
N5 N 0.9985(3) 0.1342(2) 0.7699(2)
Co2 Co 0.89396(5) 0.95165(4) 0.65987(3)
V1 V 0.92694(6) 0.81736(5) 0.87849(4)
C1 C 0.5611(3) 0.1662(3) 0.3239(3)
C2 C 0.6000(4) 0.2892(3) 0.3833(3)
H1 H 0.5373 0.3142 0.4196
C3 C 0.7322(3) 0.3774(3) 0.3900(3)
C4 C 0.8185(4) 0.3344(3) 0.3343(3)
H2 H 0.9096 0.3908 0.3366
C5 C 0.7710(3) 0.2102(3) 0.2759(3)
H3 H 0.8311 0.1826 0.2383
C6 C 0.4198(3) 0.0658(3) 0.3139(3)
C7 C 0.7707(3) 0.6670(3) 0.5926(3)
H4 H 0.7407 0.6858 0.6514
C8 C 0.7323(4) 0.5421(3) 0.5378(3)
H5 H 0.6764 0.4771 0.5589
C9 C 0.7749(3) 0.5104(3) 0.4516(3)
C10 C 0.8588(4) 0.6108(3) 0.4264(3)
H6 H 0.8932 0.5946 0.3693
C11 C 0.8913(4) 0.7331(3) 0.4847(3)
H7 H 0.9473 0.8001 0.4655
N1 N 0.6437(3) 0.1260(2) 0.2696(2)
N2 N 0.8486(3) 0.7639(2) 0.5671(2)
O2 O 0.3337(2) 0.1017(2) 0.35671(18)
O5 O 0.9234(2) 0.8852(2) 0.78588(17)
O6 O 0.8667(3) 0.6636(2) 0.82929(19)
O7 O 0.1862(2) 0.1360(2) 0.04822(18)
O9 O 0.4038(2) 0.0115(2) 0.07856(18)
Co5 Co 0.10604(5) 0.04835(4) 0.34013(3)
V3 V 0.07306(6) 0.18264(5) 0.12151(4)
O12 O 0.6663(2) 0.8983(2) 0.64329(18)
O15 O 0.8138(2) 0.8640(2) 0.95178(18)
H9 H 0.9944 0.3537 0.9544
C16 C 0.9502(3) 0.1964(3) 0.8390(2)
H10 H 0.8546 0.1577 0.8424
H9_2 H 0.0056 0.6463 0.0456
C16_2 C 0.0498(3) 0.8036(3) 0.1610(2)
H10_2 H 0.1454 0.8423 0.1576
N3 N 0.0015(3) 0.8658(2) 0.2301(2)
C1_2 C 0.4389(3) 0.8338(3) 0.6761(3)
C2_2 C 0.4000(4) 0.7108(3) 0.6167(3)
H1_2 H 0.4627 0.6858 0.5804
C3_2 C 0.2678(3) 0.6226(3) 0.6100(3)
C4_2 C 0.1815(4) 0.6656(3) 0.6657(3)
H2_2 H 0.0904 0.6092 0.6634
C5_2 C 0.2290(3) 0.7898(3) 0.7241(3)
H3_2 H 0.1689 0.8174 0.7617
C6_2 C 0.5802(3) 0.9342(3) 0.6861(3)
C7_2 C 0.2293(3) 0.3330(3) 0.4074(3)
H4_2 H 0.2593 0.3142 0.3486
C8_2 C 0.2677(4) 0.4579(3) 0.4622(3)
H5_2 H 0.3236 0.5229 0.4411
C9_2 C 0.2251(3) 0.4896(3) 0.5484(3)
C10_2 C 0.1412(4) 0.3892(3) 0.5736(3)
H6_2 H 0.1068 0.4054 0.6307
C11_2 C 0.1087(4) 0.2669(3) 0.5153(3)
H7_2 H 0.0527 0.1999 0.5345
N1_2 N 0.3563(3) 0.8740(2) 0.7304(2)
N2_2 N 0.1514(3) 0.2361(2) 0.4329(2)
O5_2 O 0.0766(2) 0.1148(2) 0.21412(17)
O6_2 O 0.1333(3) 0.3364(2) 0.17071(19)
O9_2 O 0.5962(2) 0.9885(2) 0.92144(18)
O11_2 O 0.1787(3) 0.9738(2) 0.46414(19)
H15_2 H 0.206(6) 0.905(3) 0.447(4)
H16_2 H 0.154(6) 0.977(5) 0.521(2)
Co1 Co 0.53894(4) 0.94075(4) 0.17348(3)
C21_2 C 0.2725(4) 0.5445(3) 0.0671(3)
H13_2 H 0.2270 0.4866 0.0987
C22_2 C 0.3536(4) 0.6678(3) 0.1230(3)
H14_2 H 0.3637 0.6918 0.1935
N4_2 N 0.4181(3) 0.7546(3) 0.0845(2)
O1_2 O 0.4009(2) 0.9534(2) 0.26429(17)
O10 O 0.6984(2) 0.9544(2) 0.10485(17)
V5 V 0.74385(6) 0.98414(5) 0.00481(4)
O14 O 0.6664(2) 0.8610(2) 0.28322(17)
C12_2 C 0.8610(3) 0.8125(3) 0.2274(2)
C13_2 C 0.7744(4) 0.6939(3) 0.1661(3)
H8_2 H 0.6778 0.6585 0.1693
C14_2 C 0.8289(4) 0.6255(3) 0.0991(3)
C15_2 C 0.9675(3) 0.6861(3) 0.0946(3)
C17_2 C 0.8037(3) 0.8956(3) 0.2948(3)
C18_2 C 0.5979(4) 0.2814(3) 0.0149(3)
H11_2 H 0.5559 0.2198 0.0450
C19_2 C 0.6729(4) 0.4042(3) 0.0757(3)
H12_2 H 0.6772 0.4269 0.1451
C20_2 C 0.7423(3) 0.4946(3) 0.0348(3)
O3 O 0.8960(2) 0.9970(2) 0.35714(17)
O8 O 0.8825(2) 0.1351(2) 0.04131(18)
loop_
_geom_bond_atom_site_label_1
_geom_bond_atom_site_label_2
_geom_bond_site_symmetry_1
_geom_bond_site_symmetry_2
O17 V2 1_555 1_555
C12 C13 1_555 1_555
C13 H8 1_555 1_555
C14 C13 1_555 1_555
C15 C14 1_555 1_555
C17 C12 1_555 1_555
C18 H11 1_555 1_555
C19 C18 1_555 1_555
H12 C19 1_555 1_555
C20 C14 1_555 1_555
O13 C17 1_555 1_555
O4 C17 1_555 1_555
Co3 O4 1_555 1_555
C19 C20 1_555 1_555
H13 C21 1_555 1_555
C22 C21 1_555 1_555
H14 C22 1_555 1_555
N4 Co3 1_555 1_555
O1 Co3 1_555 1_555
O17 Co3 1_555 1_555
C22 N4 1_555 1_555
H15 O11 1_555 1_555
H16 O11 1_555 1_555
Co2 N2 1_555 1_555
V1 O5 1_555 1_555
C1 C2 1_555 1_555
C2 H1 1_555 1_555
C3 C2 1_555 1_555
C4 C3 1_555 1_555
H2 C4 1_555 1_555
C5 C4 1_555 1_555
H3 C5 1_555 1_555
C6 C1 1_555 1_555
C7 H4 1_555 1_555
C8 C7 1_555 1_555
H5 C8 1_555 1_555
C9 C3 1_555 1_555
C10 C9 1_555 1_555
H6 C10 1_555 1_555
C11 C10 1_555 1_555
H7 C11 1_555 1_555
N1 C1 1_555 1_555
N2 C7 1_555 1_555
O2 C6 1_555 1_555
O5 Co2 1_555 1_555
O6 V1 1_555 1_555
O7 V3 1_555 1_555
Co5 O2 1_555 1_555
O12 Co2 1_555 1_555
O15 V1 1_555 1_555
C5 N1 1_555 1_555
C8 C9 1_555 1_555
C11 N2 1_555 1_555
H10 C16 1_555 1_555
C16 N5 1_555 1_555
H10_2 C16_2 1_555 1_555
C16_2 N3 1_555 1_555
Co5 N2_2 1_555 1_555
V3 O5_2 1_555 1_555
C1_2 C2_2 1_555 1_555
C2_2 H1_2 1_555 1_555
C3_2 C2_2 1_555 1_555
C4_2 C3_2 1_555 1_555
H2_2 C4_2 1_555 1_555
C5_2 C4_2 1_555 1_555
H3_2 C5_2 1_555 1_555
C6_2 C1_2 1_555 1_555
C7_2 H4_2 1_555 1_555
C8_2 C7_2 1_555 1_555
H5_2 C8_2 1_555 1_555
C9_2 C3_2 1_555 1_555
C10_2 C9_2 1_555 1_555
H6_2 C10_2 1_555 1_555
C11_2 C10_2 1_555 1_555
H7_2 C11_2 1_555 1_555
N1_2 C1_2 1_555 1_555
N2_2 C7_2 1_555 1_555
O12 C6_2 1_555 1_555
O5_2 Co5 1_555 1_555
O6_2 V3 1_555 1_555
C5_2 N1_2 1_555 1_555
C8_2 C9_2 1_555 1_555
C11_2 N2_2 1_555 1_555
H15_2 O11_2 1_555 1_555
H16_2 O11_2 1_555 1_555
H13_2 C21_2 1_555 1_555
C22_2 C21_2 1_555 1_555
H14_2 C22_2 1_555 1_555
N4_2 Co1 1_555 1_555
O1_2 Co1 1_555 1_555
O10 Co1 1_555 1_555
V5 O10 1_555 1_555
O14 Co1 1_555 1_555
C22_2 N4_2 1_555 1_555
C12_2 C13_2 1_555 1_555
C13_2 H8_2 1_555 1_555
C14_2 C13_2 1_555 1_555
C15_2 C14_2 1_555 1_555
C17_2 C12_2 1_555 1_555
C18_2 H11_2 1_555 1_555
C19_2 C18_2 1_555 1_555
H12_2 C19_2 1_555 1_555
C20_2 C14_2 1_555 1_555
O3 C17_2 1_555 1_555
O14 C17_2 1_555 1_555
C19_2 C20_2 1_555 1_555

#END
