
###############################################################################
#
# This file contains modified crystal structure data generated from the
# MOF subset of the Cambridge Structural Database (CSD) v543 
# hosted by the Cambridge Crystallographic Data Centre (CCDC).
#
# This work is licensed under the Creative Commons
# Attribution-NonCommercial-ShareAlike 4.0 International License.
# To view a copy of this license, visit
# http://creativecommons.org/licenses/by-nc-sa/4.0/
# or send a letter to
# Creative Commons, PO Box 1866, Mountain View, CA 94042, USA.
#
# CIF created using the CSD Python API on 29 September 2022
# The structure has been converted into the P1 space group
# The structure has a 3D framework
# The original CSD entry SAVWAO is in the triclinic crystal system
# The framework has been calculated to contain at least 10.0% void space
# The void calculation uses a probe of radius 1.32A, grid spacing 0.4
#
###############################################################################

data_SAVWAO
_chemical_formula_moiety         '(C44 H32 Co4 N8 O20 V2)n'
_symmetry_cell_setting           triclinic
_symmetry_space_group_name_H-M   'P 1'
_symmetry_Int_Tables_number      1
_space_group_name_Hall           'P 1'
loop_
_symmetry_equiv_pos_site_id
_symmetry_equiv_pos_as_xyz
1 x,y,z
_cell_length_a                   9.7957(5)
_cell_length_b                   11.3068(6)
_cell_length_c                   14.1357(8)
_cell_angle_alpha                101.7550(10)
_cell_angle_beta                 104.4490(10)
_cell_angle_gamma                104.0870(10)
_cell_volume                     1411.03
loop_
_atom_site_label
_atom_site_type_symbol
_atom_site_fract_x
_atom_site_fract_y
_atom_site_fract_z
O13 O 0.10416(18) 0.00352(16) 0.64314(13)
O16 O 0.11760(19) 0.86458(17) 0.95855(14)
V2 V 0.25596(5) 0.01572(4) 0.99499(3)
O17 O 0.30154(18) 0.04547(16) 0.89486(13)
C12 C 0.1394(3) 0.1877(2) 0.77250(19)
C13 C 0.2267(3) 0.3070(2) 0.83387(19)
H8 H 0.3231 0.3426 0.8304
C14 C 0.1719(3) 0.3749(2) 0.90107(19)
C15 C 0.0333(3) 0.3148(2) 0.9061(2)
C17 C 0.1968(3) 0.1048(2) 0.70522(19)
C18 C 0.4016(3) 0.7187(3) 0.9846(2)
H11 H 0.4436 0.7803 0.9545
C19 C 0.3261(3) 0.5960(3) 0.9237(2)
H12 H 0.3207 0.5733 0.8541
C20 C 0.2583(3) 0.5060(2) 0.9652(2)
O4 O 0.33365(18) 0.13912(16) 0.71657(13)
Co3 Co 0.46096(3) 0.05893(3) 0.82656(3)
C21 C 0.7274(3) 0.4555(2) 0.9327(2)
H13 H 0.7729 0.5137 0.9013
C22 C 0.6467(3) 0.3323(2) 0.8765(2)
H14 H 0.6366 0.3081 0.8061
N4 N 0.5820(2) 0.24533(19) 0.91581(16)
O1 O 0.59925(18) 0.04643(15) 0.73547(13)
O11 O 0.8216(2) 0.02600(19) 0.53578(15)
H15 H 0.794(4) 0.093(3) 0.550(3)
H16 H 0.845(4) 0.022(4) 0.4799(19)
N5 N 0.9985(2) 0.13443(19) 0.76982(16)
Co2 Co 0.89424(4) 0.95177(3) 0.66008(3)
V1 V 0.92686(5) 0.81732(4) 0.87874(3)
C1 C 0.5611(3) 0.1665(2) 0.32408(19)
C2 C 0.6000(3) 0.2893(2) 0.3834(2)
H1 H 0.5374 0.3143 0.4198
C3 C 0.7323(3) 0.3773(2) 0.39007(19)
C4 C 0.8192(3) 0.3347(2) 0.3345(2)
H2 H 0.9102 0.3911 0.3369
C5 C 0.7713(3) 0.2100(2) 0.2762(2)
H3 H 0.8313 0.1822 0.2387
C6 C 0.4198(3) 0.0661(2) 0.31398(19)
C7 C 0.7707(3) 0.6667(2) 0.5929(2)
H4 H 0.7410 0.6856 0.6519
C8 C 0.7316(3) 0.5414(2) 0.5380(2)
H5 H 0.6752 0.4763 0.5586
C9 C 0.7753(3) 0.5106(2) 0.4520(2)
C10 C 0.8589(3) 0.6108(2) 0.4263(2)
H6 H 0.8928 0.5945 0.3690
C11 C 0.8918(3) 0.7341(2) 0.4851(2)
H7 H 0.9479 0.8013 0.4663
N1 N 0.6444(2) 0.12635(18) 0.26996(16)
N2 N 0.8486(2) 0.76365(19) 0.56741(16)
O2 O 0.33365(19) 0.10145(16) 0.35692(14)
O5 O 0.9232(2) 0.88543(16) 0.78598(13)
O6 O 0.8664(2) 0.66360(16) 0.82956(14)
O7 O 0.1855(2) 0.13580(17) 0.04799(14)
O9 O 0.40397(19) 0.01190(17) 0.07870(13)
Co5 Co 0.10576(4) 0.04823(3) 0.33992(3)
V3 V 0.07314(5) 0.18268(4) 0.12126(3)
O12 O 0.66635(19) 0.89855(16) 0.64308(14)
O15 O 0.8145(2) 0.86420(17) 0.95201(14)
H9 H 0.9959 0.3545 0.9555
C16 C 0.9497(3) 0.1965(2) 0.83875(19)
H10 H 0.8538 0.1581 0.8417
H9_2 H 0.0041 0.6455 0.0445
C16_2 C 0.0503(3) 0.8035(2) 0.16125(19)
H10_2 H 0.1462 0.8419 0.1583
N3 N 0.0015(2) 0.86557(19) 0.23018(16)
C1_2 C 0.4389(3) 0.8335(2) 0.67592(19)
C2_2 C 0.4000(3) 0.7107(2) 0.6166(2)
H1_2 H 0.4626 0.6857 0.5802
C3_2 C 0.2677(3) 0.6227(2) 0.60993(19)
C4_2 C 0.1808(3) 0.6653(2) 0.6655(2)
H2_2 H 0.0898 0.6089 0.6631
C5_2 C 0.2287(3) 0.7900(2) 0.7238(2)
H3_2 H 0.1687 0.8178 0.7613
C6_2 C 0.5802(3) 0.9339(2) 0.68602(19)
C7_2 C 0.2293(3) 0.3333(2) 0.4071(2)
H4_2 H 0.2590 0.3144 0.3481
C8_2 C 0.2684(3) 0.4586(2) 0.4620(2)
H5_2 H 0.3248 0.5237 0.4414
C9_2 C 0.2247(3) 0.4894(2) 0.5480(2)
C10_2 C 0.1411(3) 0.3892(2) 0.5737(2)
H6_2 H 0.1072 0.4055 0.6310
C11_2 C 0.1082(3) 0.2659(2) 0.5149(2)
H7_2 H 0.0521 0.1987 0.5337
N1_2 N 0.3556(2) 0.87365(18) 0.73004(16)
N2_2 N 0.1514(2) 0.23635(19) 0.43259(16)
O5_2 O 0.0768(2) 0.11457(16) 0.21402(13)
O6_2 O 0.1336(2) 0.33640(16) 0.17044(14)
O9_2 O 0.59603(19) 0.98810(17) 0.92130(13)
O11_2 O 0.1784(2) 0.97400(19) 0.46422(15)
H15_2 H 0.206(4) 0.907(3) 0.450(3)
H16_2 H 0.155(4) 0.978(4) 0.5201(19)
Co1 Co 0.53904(3) 0.94107(3) 0.17344(3)
C21_2 C 0.2726(3) 0.5445(2) 0.0673(2)
H13_2 H 0.2271 0.4863 0.0987
C22_2 C 0.3533(3) 0.6677(2) 0.1235(2)
H14_2 H 0.3634 0.6919 0.1939
N4_2 N 0.4180(2) 0.75467(19) 0.08419(16)
O1_2 O 0.40075(18) 0.95357(15) 0.26453(13)
O10 O 0.69846(18) 0.95453(16) 0.10514(13)
V5 V 0.74404(5) 0.98428(4) 0.00501(3)
O14 O 0.66635(18) 0.86088(16) 0.28343(13)
C12_2 C 0.8606(3) 0.8123(2) 0.22750(19)
C13_2 C 0.7733(3) 0.6930(2) 0.16613(19)
H8_2 H 0.6769 0.6574 0.1696
C14_2 C 0.8281(3) 0.6251(2) 0.09893(19)
C15_2 C 0.9667(3) 0.6852(2) 0.0939(2)
C17_2 C 0.8032(3) 0.8952(2) 0.29478(19)
C18_2 C 0.5984(3) 0.2813(3) 0.0154(2)
H11_2 H 0.5564 0.2197 0.0455
C19_2 C 0.6739(3) 0.4040(3) 0.0763(2)
H12_2 H 0.6793 0.4267 0.1459
C20_2 C 0.7417(3) 0.4940(2) 0.0348(2)
O3 O 0.89584(18) 0.99648(16) 0.35686(13)
O8 O 0.88240(19) 0.13542(17) 0.04145(14)
loop_
_geom_bond_atom_site_label_1
_geom_bond_atom_site_label_2
_geom_bond_site_symmetry_1
_geom_bond_site_symmetry_2
O17 V2 1_555 1_555
C12 C13 1_555 1_555
C13 H8 1_555 1_555
C14 C13 1_555 1_555
C15 C14 1_555 1_555
C17 C12 1_555 1_555
C18 H11 1_555 1_555
C19 C18 1_555 1_555
H12 C19 1_555 1_555
C20 C14 1_555 1_555
O13 C17 1_555 1_555
O4 C17 1_555 1_555
Co3 O4 1_555 1_555
C19 C20 1_555 1_555
H13 C21 1_555 1_555
C22 C21 1_555 1_555
H14 C22 1_555 1_555
N4 Co3 1_555 1_555
O1 Co3 1_555 1_555
O17 Co3 1_555 1_555
C22 N4 1_555 1_555
H15 O11 1_555 1_555
H16 O11 1_555 1_555
Co2 N2 1_555 1_555
V1 O5 1_555 1_555
C1 C2 1_555 1_555
C2 H1 1_555 1_555
C3 C2 1_555 1_555
C4 C3 1_555 1_555
H2 C4 1_555 1_555
C5 C4 1_555 1_555
H3 C5 1_555 1_555
C6 C1 1_555 1_555
C7 H4 1_555 1_555
C8 C7 1_555 1_555
H5 C8 1_555 1_555
C9 C3 1_555 1_555
C10 C9 1_555 1_555
H6 C10 1_555 1_555
C11 C10 1_555 1_555
H7 C11 1_555 1_555
N1 C1 1_555 1_555
N2 C7 1_555 1_555
O2 C6 1_555 1_555
O5 Co2 1_555 1_555
O6 V1 1_555 1_555
O7 V3 1_555 1_555
Co5 O2 1_555 1_555
O12 Co2 1_555 1_555
O15 V1 1_555 1_555
C5 N1 1_555 1_555
C8 C9 1_555 1_555
C11 N2 1_555 1_555
H10 C16 1_555 1_555
C16 N5 1_555 1_555
H10_2 C16_2 1_555 1_555
C16_2 N3 1_555 1_555
Co5 N2_2 1_555 1_555
V3 O5_2 1_555 1_555
C1_2 C2_2 1_555 1_555
C2_2 H1_2 1_555 1_555
C3_2 C2_2 1_555 1_555
C4_2 C3_2 1_555 1_555
H2_2 C4_2 1_555 1_555
C5_2 C4_2 1_555 1_555
H3_2 C5_2 1_555 1_555
C6_2 C1_2 1_555 1_555
C7_2 H4_2 1_555 1_555
C8_2 C7_2 1_555 1_555
H5_2 C8_2 1_555 1_555
C9_2 C3_2 1_555 1_555
C10_2 C9_2 1_555 1_555
H6_2 C10_2 1_555 1_555
C11_2 C10_2 1_555 1_555
H7_2 C11_2 1_555 1_555
N1_2 C1_2 1_555 1_555
N2_2 C7_2 1_555 1_555
O12 C6_2 1_555 1_555
O5_2 Co5 1_555 1_555
O6_2 V3 1_555 1_555
C5_2 N1_2 1_555 1_555
C8_2 C9_2 1_555 1_555
C11_2 N2_2 1_555 1_555
H15_2 O11_2 1_555 1_555
H16_2 O11_2 1_555 1_555
H13_2 C21_2 1_555 1_555
C22_2 C21_2 1_555 1_555
H14_2 C22_2 1_555 1_555
N4_2 Co1 1_555 1_555
O1_2 Co1 1_555 1_555
O10 Co1 1_555 1_555
V5 O10 1_555 1_555
O14 Co1 1_555 1_555
C22_2 N4_2 1_555 1_555
C12_2 C13_2 1_555 1_555
C13_2 H8_2 1_555 1_555
C14_2 C13_2 1_555 1_555
C15_2 C14_2 1_555 1_555
C17_2 C12_2 1_555 1_555
C18_2 H11_2 1_555 1_555
C19_2 C18_2 1_555 1_555
H12_2 C19_2 1_555 1_555
C20_2 C14_2 1_555 1_555
O3 C17_2 1_555 1_555
O14 C17_2 1_555 1_555
C19_2 C20_2 1_555 1_555

#END
