
###############################################################################
#
# This file contains modified crystal structure data generated from the
# MOF subset of the Cambridge Structural Database (CSD) v543 
# hosted by the Cambridge Crystallographic Data Centre (CCDC).
#
# This work is licensed under the Creative Commons
# Attribution-NonCommercial-ShareAlike 4.0 International License.
# To view a copy of this license, visit
# http://creativecommons.org/licenses/by-nc-sa/4.0/
# or send a letter to
# Creative Commons, PO Box 1866, Mountain View, CA 94042, USA.
#
# CIF created using the CSD Python API on 29 September 2022
# The structure has been converted into the P1 space group
# The structure has a 3D framework
# The original CSD entry SAWRAM is in the triclinic crystal system
# The framework has been calculated to contain at least 10.0% void space
# The void calculation uses a probe of radius 1.32A, grid spacing 0.4
#
###############################################################################

data_SAWRAM
_chemical_formula_moiety         '(C132 H96 Co8 N8 O32)n'
_symmetry_cell_setting           triclinic
_symmetry_space_group_name_H-M   'P 1'
_symmetry_Int_Tables_number      1
_space_group_name_Hall           'P 1'
loop_
_symmetry_equiv_pos_site_id
_symmetry_equiv_pos_as_xyz
1 x,y,z
_cell_length_a                   15.082(3)
_cell_length_b                   16.887(3)
_cell_length_c                   17.338(3)
_cell_angle_alpha                114.224(4)
_cell_angle_beta                 102.313(4)
_cell_angle_gamma                100.882(4)
_cell_volume                     3740.42
loop_
_atom_site_label
_atom_site_type_symbol
_atom_site_fract_x
_atom_site_fract_y
_atom_site_fract_z
Co7 Co 0.07819(5) 0.11129(4) 0.88958(4)
Co12 Co 0.03275(5) 0.15519(4) 0.73443(4)
N2 N 0.2735(4) 0.0070(4) 0.0038(3)
O4 O 0.0044(3) 0.9853(2) 0.7830(2)
H18 H 0.0264 0.8336 0.7410
C55 C 0.2093(4) 0.0522(4) 0.0062(4)
H39 H 0.1895 0.0794 0.0553
O23 O 0.1403(3) 0.2333(3) 0.0073(2)
Co3 Co 0.26845(5) 0.25022(5) 0.88213(5)
N1 N 0.1779(3) 0.0528(3) 0.9296(3)
H3 H 0.0191 0.2411 0.8863
O14 O 0.0881(3) 0.3022(3) 0.7862(3)
H4 H 0.0767 0.3292 0.8347
H5 H 0.1480 0.3175 0.7960
O15 O 0.1534(2) 0.1462(2) 0.8093(2)
H6 H 0.1701 0.0934 0.7717
H7 H 0.0155 0.0711 0.9985
C56 C 0.2248(4) 0.0043(4) 0.8760(4)
O17 O 0.0878(3) 0.1531(3) 0.6323(3)
H47 H 0.0773 0.0981 0.5941
H48 H 0.1476 0.1803 0.6546
N5 N 0.3772(3) 0.2107(3) 0.9265(3)
O22 O 0.2571(3) 0.3287(3) 0.9981(2)
O24 O 0.2887(3) 0.3335(3) 0.8299(3)
H40 H 0.2160 0.9930 0.8173
C57 C 0.2850(4) 0.9754(4) 0.9201(4)
C58 C 0.3503(4) 0.9236(4) 0.8924(4)
C59 C 0.4066(4) 0.9035(4) 0.9512(4)
C60 C 0.4674(4) 0.8519(4) 0.9273(4)
C61 C 0.4726(6) 0.8210(6) 0.8411(5)
H42 H 0.5116 0.7853 0.8231
C62 C 0.4191(6) 0.8439(6) 0.7822(5)
H43 H 0.4249 0.8257 0.7256
C63 C 0.3566(6) 0.8937(6) 0.8067(5)
H44 H 0.3196 0.9069 0.7660
C64 C 0.5231(4) 0.8316(4) 0.9926(4)
C66 C 0.5910(4) 0.7884(4) 0.9920(4)
H46 H 0.6127 0.7623 0.9439
O12 O 0.3254(4) 0.2173(3) 0.7381(3)
C28 C 0.7548(5) 0.9860(4) 0.7610(4)
C29 C 0.6780(5) 0.8947(5) 0.7061(5)
C30 C 0.5982(5) 0.8778(4) 0.6373(5)
H24 H 0.5929 0.9237 0.6218
C31 C 0.5261(5) 0.7945(4) 0.5911(4)
H25 H 0.4733 0.7846 0.5452
C32 C 0.5342(4) 0.7259(4) 0.6147(3)
C33 C 0.6150(4) 0.7435(4) 0.6846(4)
H26 H 0.6212 0.6979 0.7004
C34 C 0.6855(5) 0.8277(4) 0.7303(5)
H27 H 0.7378 0.8388 0.7772
C35 C 0.4621(4) 0.6333(4) 0.5663(3)
C36 C 0.4191(4) 0.5912(3) 0.4736(3)
H28 H 0.4310 0.6235 0.4425
C37 C 0.3585(4) 0.5014(3) 0.4272(3)
C38 C 0.3408(4) 0.4550(3) 0.4756(4)
H29 H 0.3009 0.3949 0.4450
C39 C 0.3805(4) 0.4952(4) 0.5674(3)
C40 C 0.4417(4) 0.5853(4) 0.6128(3)
H30 H 0.4690 0.6135 0.6747
C41 C 0.3179(4) 0.4546(3) 0.3279(3)
C42 C 0.3688(4) 0.4750(3) 0.2765(3)
H31 H 0.4272 0.5211 0.3048
C43 C 0.3335(4) 0.4277(4) 0.1840(4)
H32 H 0.3686 0.4418 0.1507
C44 C 0.2457(4) 0.3589(4) 0.1404(3)
C45 C 0.1929(4) 0.3401(4) 0.1911(4)
H33 H 0.1334 0.2955 0.1628
C46 C 0.2286(4) 0.3874(3) 0.2833(3)
H34 H 0.1925 0.3744 0.3164
C47 C 0.2105(4) 0.3027(4) 0.0409(3)
C48 C 0.3626(4) 0.4430(4) 0.6164(4)
C49 C 0.3614(4) 0.3526(4) 0.5822(4)
H35 H 0.3704 0.3239 0.5272
C50 C 0.3471(4) 0.3046(4) 0.6295(4)
H36 H 0.3471 0.2442 0.6061
C51 C 0.3326(4) 0.3463(4) 0.7115(4)
C52 C 0.3315(4) 0.4367(4) 0.7452(4)
H37 H 0.3193 0.4644 0.7989
C53 C 0.3483(4) 0.4852(4) 0.6992(4)
H38 H 0.3501 0.5461 0.7234
C54 C 0.3150(4) 0.2946(5) 0.7620(4)
H1 H 0.6972 0.0012 0.9531
N3 N 0.4881(4) 0.1444(4) 0.9250(4)
H2 H 0.5278 0.1173 0.9060
H41 H 0.5960 0.0748 0.9909
C65 C 0.4280(5) 0.1699(5) 0.8799(4)
H45 H 0.4222 0.1600 0.8220
H1_2 H 0.3028 0.9988 0.0469
N3_2 N 0.5119(4) 0.8556(4) 0.0750(4)
H2_2 H 0.4722 0.8827 0.0940
N4 N 0.6228(3) 0.7893(3) 0.0735(3)
H41_2 H 0.4040 0.9252 0.0091
C65_2 C 0.5720(5) 0.8301(5) 0.1201(4)
H45_2 H 0.5778 0.8400 0.1780
Co10 Co 0.73155(5) 0.74978(5) 0.11787(5)
O9 O 0.7429(3) 0.6713(3) 0.0019(2)
Co6 Co 0.92181(5) 0.88871(4) 0.11042(4)
O10 O 0.8597(3) 0.7667(3) 0.9927(2)
O11 O 0.7113(3) 0.6665(3) 0.1701(3)
O12_2 O 0.6746(4) 0.7827(3) 0.2619(3)
C28_2 C 0.2452(5) 0.0140(4) 0.2390(4)
C29_2 C 0.3220(5) 0.1053(5) 0.2939(5)
C30_2 C 0.4018(5) 0.1222(4) 0.3627(5)
H24_2 H 0.4071 0.0763 0.3782
C31_2 C 0.4739(5) 0.2055(4) 0.4089(4)
H25_2 H 0.5267 0.2154 0.4548
C32_2 C 0.4658(4) 0.2741(4) 0.3853(3)
C33_2 C 0.3850(4) 0.2565(4) 0.3154(4)
H26_2 H 0.3788 0.3021 0.2996
C34_2 C 0.3145(5) 0.1723(4) 0.2697(5)
H27_2 H 0.2622 0.1612 0.2228
C35_2 C 0.5379(4) 0.3667(4) 0.4337(3)
C36_2 C 0.5809(4) 0.4088(3) 0.5264(3)
H28_2 H 0.5690 0.3765 0.5575
C37_2 C 0.6415(4) 0.4986(3) 0.5728(3)
C38_2 C 0.6592(4) 0.5450(3) 0.5244(4)
H29_2 H 0.6991 0.6051 0.5550
C39_2 C 0.6195(4) 0.5048(4) 0.4326(3)
C40_2 C 0.5583(4) 0.4147(4) 0.3872(3)
H30_2 H 0.5310 0.3865 0.3253
C41_2 C 0.6821(4) 0.5454(3) 0.6721(3)
C42_2 C 0.6312(4) 0.5250(3) 0.7235(3)
H31_2 H 0.5728 0.4789 0.6952
C43_2 C 0.6665(4) 0.5723(4) 0.8160(4)
H32_2 H 0.6314 0.5582 0.8493
C44_2 C 0.7543(4) 0.6411(4) 0.8596(3)
C45_2 C 0.8071(4) 0.6599(4) 0.8089(4)
H33_2 H 0.8666 0.7045 0.8372
C46_2 C 0.7714(4) 0.6126(3) 0.7167(3)
H34_2 H 0.8075 0.6256 0.6836
C47_2 C 0.7895(4) 0.6973(4) 0.9591(3)
C48_2 C 0.6374(4) 0.5570(4) 0.3836(4)
C49_2 C 0.6386(4) 0.6474(4) 0.4178(4)
H35_2 H 0.6296 0.6761 0.4728
C50_2 C 0.6529(4) 0.6954(4) 0.3705(4)
H36_2 H 0.6529 0.7558 0.3939
C51_2 C 0.6674(4) 0.6537(4) 0.2885(4)
C52_2 C 0.6685(4) 0.5633(4) 0.2548(4)
H37_2 H 0.6807 0.5356 0.2011
C53_2 C 0.6517(4) 0.5148(4) 0.3008(4)
H38_2 H 0.6499 0.4539 0.2766
C54_2 C 0.6850(4) 0.7054(5) 0.2380(4)
H40_2 H 0.7840 0.0070 0.1827
C57_2 C 0.7150(4) 0.0246(4) 0.0799(4)
C58_2 C 0.6497(4) 0.0764(4) 0.1076(4)
C59_2 C 0.5934(4) 0.0965(4) 0.0488(4)
C60_2 C 0.5326(4) 0.1481(4) 0.0727(4)
C61_2 C 0.5274(6) 0.1790(6) 0.1589(5)
H42_2 H 0.4884 0.2147 0.1769
C62_2 C 0.5809(6) 0.1561(6) 0.2178(5)
H43_2 H 0.5751 0.1743 0.2744
C63_2 C 0.6434(6) 0.1063(6) 0.1933(5)
H44_2 H 0.6804 0.0931 0.2340
C64_2 C 0.4769(4) 0.1684(4) 0.0074(4)
C66_2 C 0.4090(4) 0.2116(4) 0.0080(4)
H46_2 H 0.3873 0.2377 0.0561
O19 O 0.9956(3) 0.0147(2) 0.2170(2)
Co4 Co 0.96725(5) 0.84481(4) 0.26557(4)
N1_2 N 0.8221(3) 0.9472(3) 0.0704(3)
H3_2 H 0.9809 0.7589 0.1137
O14_2 O 0.9119(3) 0.6978(3) 0.2138(3)
H4_2 H 0.9233 0.6708 0.1653
H5_2 H 0.8520 0.6825 0.2040
O15_2 O 0.8466(2) 0.8538(2) 0.1907(2)
H6_2 H 0.8299 0.9066 0.2283
H7_2 H 0.9845 0.9289 0.0015
C56_2 C 0.7752(4) 0.9957(4) 0.1240(4)
O17_2 O 0.9122(3) 0.8469(3) 0.3677(3)
H47_2 H 0.9227 0.9019 0.4059
H48_2 H 0.8524 0.8197 0.3454
N2_2 N 0.7265(4) 0.9930(4) 0.9962(3)
H18_2 H 0.9736 0.1664 0.2590
C55_2 C 0.7907(4) 0.9478(4) 0.9938(4)
H39_2 H 0.8105 0.9206 0.9447
O3 O 0.9805(3) 0.0088(2) 0.6624(2)
O5 O 0.9041(3) 0.1547(3) 0.6637(3)
O6 O 0.8231(3) 0.2317(3) 0.7434(3)
C2 C 0.8683(5) 0.3170(4) 0.0754(4)
C3 C 0.9335(6) 0.4003(4) 0.1415(4)
H9 H 0.9790 0.4323 0.1273
C4 C 0.9310(5) 0.4358(4) 0.2283(4)
H10 H 0.9758 0.4912 0.2719
C5 C 0.8631(4) 0.3906(4) 0.2516(3)
C6 C 0.7987(5) 0.3085(5) 0.1849(4)
H11 H 0.7531 0.2759 0.1985
C7 C 0.8006(6) 0.2737(5) 0.0977(4)
H12 H 0.7546 0.2194 0.0536
C8 C 0.8632(4) 0.4302(3) 0.3465(3)
C9 C 0.8854(4) 0.5254(4) 0.3972(4)
H13 H 0.8960 0.5625 0.3705
C10 C 0.8917(4) 0.5647(3) 0.4877(3)
C11 C 0.8785(4) 0.5074(4) 0.5263(3)
H14 H 0.8861 0.5332 0.5870
C12 C 0.8542(4) 0.4124(4) 0.4771(4)
C13 C 0.8450(4) 0.3745(3) 0.3863(4)
H15 H 0.8264 0.3114 0.3519
C14 C 0.9133(4) 0.6651(3) 0.5407(3)
C15 C 0.8823(4) 0.7173(3) 0.5023(3)
H16 H 0.8470 0.6886 0.4419
C16 C 0.9029(4) 0.8114(3) 0.5523(3)
H17 H 0.8806 0.8445 0.5253
C17 C 0.9567(4) 0.8557(3) 0.6423(3)
C18 C 0.9891(4) 0.8043(4) 0.6811(3)
C19 C 0.9668(4) 0.7108(4) 0.6319(3)
H19 H 0.9875 0.6776 0.6597
C20 C 0.9818(4) 0.9574(3) 0.6988(3)
C21 C 0.8465(4) 0.3556(3) 0.5240(4)
C22 C 0.8197(4) 0.3850(4) 0.6014(4)
H20 H 0.8004 0.4370 0.6199
C23 C 0.8214(4) 0.3380(4) 0.6507(4)
H21 H 0.8042 0.3593 0.7023
C24 C 0.8488(4) 0.2588(3) 0.6235(3)
C25 C 0.8718(4) 0.2271(4) 0.5449(4)
H22 H 0.8890 0.1739 0.5254
C26 C 0.8693(4) 0.2741(4) 0.4957(4)
H23 H 0.8832 0.2509 0.4425
C27 C 0.8589(4) 0.2131(3) 0.6808(4)
Co5 Co 0.85016(5) 0.16171(5) 0.81144(4)
O1 O 0.9300(7) 0.3232(5) 0.9627(5)
O2 O 0.8148(4) 0.2061(4) 0.9235(3)
O7 O 0.7601(4) 0.0386(3) 0.7278(3)
O8 O 0.8082(4) 0.0064(4) 0.8380(4)
O13 O 0.9884(2) 0.1758(2) 0.8448(2)
O16 O 0.9843(3) 0.0779(3) 0.9558(3)
H8 H 0.9400 0.0284 0.9188
C1 C 0.8719(5) 0.2800(5) 0.9817(4)
Co1 Co 0.14984(5) 0.83829(5) 0.18856(4)
O1_2 O 0.0700(7) 0.6768(5) 0.0373(5)
O2_2 O 0.1852(4) 0.7939(4) 0.0765(3)
O7_2 O 0.2399(4) 0.9614(3) 0.2722(3)
O8_2 O 0.1918(4) 0.9936(4) 0.1620(4)
O13_2 O 0.0116(2) 0.8242(2) 0.1552(2)
O16_2 O 0.0157(3) 0.9221(3) 0.0442(3)
H8_2 H 0.0600 0.9716 0.0812
C1_2 C 0.1281(5) 0.7200(5) 0.0183(4)
O18 O 0.0195(3) 0.9912(2) 0.3376(2)
O20 O 0.0959(3) 0.8453(3) 0.3363(3)
O21 O 0.1769(3) 0.7683(3) 0.2566(3)
C2_2 C 0.1317(5) 0.6830(4) 0.9246(4)
C3_2 C 0.0665(6) 0.5997(4) 0.8585(4)
H9_2 H 0.0210 0.5677 0.8727
C4_2 C 0.0690(5) 0.5642(4) 0.7717(4)
H10_2 H 0.0242 0.5088 0.7281
C5_2 C 0.1369(4) 0.6094(4) 0.7484(3)
C6_2 C 0.2013(5) 0.6915(5) 0.8151(4)
H11_2 H 0.2469 0.7241 0.8015
C7_2 C 0.1994(6) 0.7263(5) 0.9023(4)
H12_2 H 0.2454 0.7806 0.9464
C8_2 C 0.1368(4) 0.5698(3) 0.6535(3)
C9_2 C 0.1146(4) 0.4746(4) 0.6028(4)
H13_2 H 0.1040 0.4375 0.6295
C10_2 C 0.1083(4) 0.4353(3) 0.5123(3)
C11_2 C 0.1215(4) 0.4926(4) 0.4737(3)
H14_2 H 0.1139 0.4668 0.4130
C12_2 C 0.1458(4) 0.5876(4) 0.5229(4)
C13_2 C 0.1550(4) 0.6255(3) 0.6137(4)
H15_2 H 0.1736 0.6886 0.6481
C14_2 C 0.0867(4) 0.3349(3) 0.4593(3)
C15_2 C 0.1177(4) 0.2827(3) 0.4977(3)
H16_2 H 0.1530 0.3114 0.5581
C16_2 C 0.0971(4) 0.1886(3) 0.4477(3)
H17_2 H 0.1194 0.1555 0.4747
C17_2 C 0.0433(4) 0.1443(3) 0.3577(3)
C18_2 C 0.0109(4) 0.1957(4) 0.3189(3)
C19_2 C 0.0332(4) 0.2892(4) 0.3681(3)
H19_2 H 0.0125 0.3224 0.3403
C20_2 C 0.0182(4) 0.0426(3) 0.3012(3)
C21_2 C 0.1535(4) 0.6444(3) 0.4760(4)
C22_2 C 0.1803(4) 0.6150(4) 0.3986(4)
H20_2 H 0.1996 0.5630 0.3801
C23_2 C 0.1786(4) 0.6620(4) 0.3493(4)
H21_2 H 0.1958 0.6407 0.2977
C24_2 C 0.1512(4) 0.7412(3) 0.3765(3)
C25_2 C 0.1282(4) 0.7729(4) 0.4551(4)
H22_2 H 0.1110 0.8261 0.4746
C26_2 C 0.1307(4) 0.7259(4) 0.5043(4)
H23_2 H 0.1168 0.7491 0.5575
C27_2 C 0.1411(4) 0.7869(3) 0.3192(4)
loop_
_geom_bond_atom_site_label_1
_geom_bond_atom_site_label_2
_geom_bond_site_symmetry_1
_geom_bond_site_symmetry_2
C55 N2 1_555 1_555
H39 C55 1_555 1_555
Co7 N1 1_555 1_555
Co3 O15 1_555 1_555
O14 Co12 1_555 1_555
H4 O14 1_555 1_555
H5 O14 1_555 1_555
O15 Co7 1_555 1_555
H6 O15 1_555 1_555
C56 N1 1_555 1_555
O17 Co12 1_555 1_555
H47 O17 1_555 1_555
H48 O17 1_555 1_555
N5 Co3 1_555 1_555
O22 Co3 1_555 1_555
O24 Co3 1_555 1_555
Co12 O15 1_555 1_555
C58 C57 1_555 1_555
C59 C58 1_555 1_555
C60 C59 1_555 1_555
C61 C60 1_555 1_555
H42 C61 1_555 1_555
C62 C61 1_555 1_555
H43 C62 1_555 1_555
C63 C58 1_555 1_555
H44 C63 1_555 1_555
H46 C66 1_555 1_555
C60 C64 1_555 1_555
C62 C63 1_555 1_555
C64 C66 1_555 1_555
O23 C47 1_555 1_555
O24 C54 1_555 1_555
O12 C54 1_555 1_555
C29 C28 1_555 1_555
C30 C29 1_555 1_555
H24 C30 1_555 1_555
C31 C30 1_555 1_555
H25 C31 1_555 1_555
C32 C31 1_555 1_555
C33 C32 1_555 1_555
H26 C33 1_555 1_555
C34 C29 1_555 1_555
H27 C34 1_555 1_555
C35 C32 1_555 1_555
C36 C35 1_555 1_555
H28 C36 1_555 1_555
C37 C36 1_555 1_555
C38 C37 1_555 1_555
H29 C38 1_555 1_555
C39 C38 1_555 1_555
C40 C35 1_555 1_555
H30 C40 1_555 1_555
C41 C37 1_555 1_555
C42 C41 1_555 1_555
H31 C42 1_555 1_555
C43 C42 1_555 1_555
H32 C43 1_555 1_555
C44 C43 1_555 1_555
C45 C44 1_555 1_555
H33 C45 1_555 1_555
C46 C41 1_555 1_555
H34 C46 1_555 1_555
C47 C44 1_555 1_555
C48 C39 1_555 1_555
C49 C48 1_555 1_555
H35 C49 1_555 1_555
C50 C49 1_555 1_555
H36 C50 1_555 1_555
C51 C50 1_555 1_555
C52 C51 1_555 1_555
H37 C52 1_555 1_555
C53 C48 1_555 1_555
H38 C53 1_555 1_555
C54 C51 1_555 1_555
C33 C34 1_555 1_555
C39 C40 1_555 1_555
C45 C46 1_555 1_555
C52 C53 1_555 1_555
N3 H2 1_555 1_555
N5 C65 1_555 1_555
C65 N3 1_555 1_555
H45 C65 1_555 1_555
N3_2 H2_2 1_555 1_555
N4 C65_2 1_555 1_555
C65_2 N3_2 1_555 1_555
H45_2 C65_2 1_555 1_555
Co10 N4 1_555 1_555
Co10 O9 1_555 1_555
O10 C47_2 1_555 1_555
O11 C54_2 1_555 1_555
O12_2 C54_2 1_555 1_555
C29_2 C28_2 1_555 1_555
C30_2 C29_2 1_555 1_555
H24_2 C30_2 1_555 1_555
C31_2 C30_2 1_555 1_555
H25_2 C31_2 1_555 1_555
C32_2 C31_2 1_555 1_555
C33_2 C32_2 1_555 1_555
H26_2 C33_2 1_555 1_555
C34_2 C29_2 1_555 1_555
H27_2 C34_2 1_555 1_555
C35_2 C32_2 1_555 1_555
C36_2 C35_2 1_555 1_555
H28_2 C36_2 1_555 1_555
C37_2 C36_2 1_555 1_555
C38_2 C37_2 1_555 1_555
H29_2 C38_2 1_555 1_555
C39_2 C38_2 1_555 1_555
C40_2 C35_2 1_555 1_555
H30_2 C40_2 1_555 1_555
C41_2 C37_2 1_555 1_555
C42_2 C41_2 1_555 1_555
H31_2 C42_2 1_555 1_555
C43_2 C42_2 1_555 1_555
H32_2 C43_2 1_555 1_555
C44_2 C43_2 1_555 1_555
C45_2 C44_2 1_555 1_555
H33_2 C45_2 1_555 1_555
C46_2 C41_2 1_555 1_555
H34_2 C46_2 1_555 1_555
C47_2 C44_2 1_555 1_555
C48_2 C39_2 1_555 1_555
C49_2 C48_2 1_555 1_555
H35_2 C49_2 1_555 1_555
C50_2 C49_2 1_555 1_555
H36_2 C50_2 1_555 1_555
C51_2 C50_2 1_555 1_555
C52_2 C51_2 1_555 1_555
H37_2 C52_2 1_555 1_555
C53_2 C48_2 1_555 1_555
H38_2 C53_2 1_555 1_555
C54_2 C51_2 1_555 1_555
Co10 O11 1_555 1_555
C33_2 C34_2 1_555 1_555
C39_2 C40_2 1_555 1_555
C45_2 C46_2 1_555 1_555
C52_2 C53_2 1_555 1_555
C58_2 C57_2 1_555 1_555
C59_2 C58_2 1_555 1_555
C60_2 C59_2 1_555 1_555
C61_2 C60_2 1_555 1_555
H42_2 C61_2 1_555 1_555
C62_2 C61_2 1_555 1_555
H43_2 C62_2 1_555 1_555
C63_2 C58_2 1_555 1_555
H44_2 C63_2 1_555 1_555
H46_2 C66_2 1_555 1_555
C60_2 C64_2 1_555 1_555
C62_2 C63_2 1_555 1_555
C64_2 C66_2 1_555 1_555
Co6 N1_2 1_555 1_555
Co10 O15_2 1_555 1_555
O14_2 Co4 1_555 1_555
H4_2 O14_2 1_555 1_555
H5_2 O14_2 1_555 1_555
O15_2 Co6 1_555 1_555
H6_2 O15_2 1_555 1_555
C56_2 N1_2 1_555 1_555
O17_2 Co4 1_555 1_555
H47_2 O17_2 1_555 1_555
H48_2 O17_2 1_555 1_555
Co4 O15_2 1_555 1_555
C55_2 N2_2 1_555 1_555
H39_2 C55_2 1_555 1_555
O5 C27 1_555 1_555
O6 C27 1_555 1_555
C2 C3 1_555 1_555
C3 H9 1_555 1_555
C4 C3 1_555 1_555
H10 C4 1_555 1_555
C5 C4 1_555 1_555
C6 C5 1_555 1_555
H11 C6 1_555 1_555
C7 C2 1_555 1_555
H12 C7 1_555 1_555
C8 C5 1_555 1_555
C9 C8 1_555 1_555
H13 C9 1_555 1_555
C10 C9 1_555 1_555
C11 C10 1_555 1_555
H14 C11 1_555 1_555
C12 C11 1_555 1_555
C13 C8 1_555 1_555
H15 C13 1_555 1_555
C14 C10 1_555 1_555
C15 C14 1_555 1_555
H16 C15 1_555 1_555
C16 C15 1_555 1_555
H17 C16 1_555 1_555
C17 C16 1_555 1_555
C18 C17 1_555 1_555
C19 C14 1_555 1_555
H19 C19 1_555 1_555
C20 C17 1_555 1_555
C21 C12 1_555 1_555
C22 C21 1_555 1_555
H20 C22 1_555 1_555
C23 C22 1_555 1_555
H21 C23 1_555 1_555
C24 C23 1_555 1_555
C25 C24 1_555 1_555
H22 C25 1_555 1_555
C26 C21 1_555 1_555
H23 C26 1_555 1_555
C27 C24 1_555 1_555
Co5 O6 1_555 1_555
C6 C7 1_555 1_555
C12 C13 1_555 1_555
C18 C19 1_555 1_555
C25 C26 1_555 1_555
Co5 O2 1_555 1_555
O1 C1 1_555 1_555
O2 C1 1_555 1_555
O7 Co5 1_555 1_555
O13 Co5 1_555 1_555
H8 O16 1_555 1_555
Co1 O2_2 1_555 1_555
O1_2 C1_2 1_555 1_555
O2_2 C1_2 1_555 1_555
O7_2 Co1 1_555 1_555
O13_2 Co1 1_555 1_555
H8_2 O16_2 1_555 1_555
O21 Co1 1_555 1_555
O20 C27_2 1_555 1_555
O21 C27_2 1_555 1_555
C2_2 C3_2 1_555 1_555
C3_2 H9_2 1_555 1_555
C4_2 C3_2 1_555 1_555
H10_2 C4_2 1_555 1_555
C5_2 C4_2 1_555 1_555
C6_2 C5_2 1_555 1_555
H11_2 C6_2 1_555 1_555
C7_2 C2_2 1_555 1_555
H12_2 C7_2 1_555 1_555
C8_2 C5_2 1_555 1_555
C9_2 C8_2 1_555 1_555
H13_2 C9_2 1_555 1_555
C10_2 C9_2 1_555 1_555
C11_2 C10_2 1_555 1_555
H14_2 C11_2 1_555 1_555
C12_2 C11_2 1_555 1_555
C13_2 C8_2 1_555 1_555
H15_2 C13_2 1_555 1_555
C14_2 C10_2 1_555 1_555
C15_2 C14_2 1_555 1_555
H16_2 C15_2 1_555 1_555
C16_2 C15_2 1_555 1_555
H17_2 C16_2 1_555 1_555
C17_2 C16_2 1_555 1_555
C18_2 C17_2 1_555 1_555
C19_2 C14_2 1_555 1_555
H19_2 C19_2 1_555 1_555
C20_2 C17_2 1_555 1_555
C21_2 C12_2 1_555 1_555
C22_2 C21_2 1_555 1_555
H20_2 C22_2 1_555 1_555
C23_2 C22_2 1_555 1_555
H21_2 C23_2 1_555 1_555
C24_2 C23_2 1_555 1_555
C25_2 C24_2 1_555 1_555
H22_2 C25_2 1_555 1_555
C26_2 C21_2 1_555 1_555
H23_2 C26_2 1_555 1_555
C27_2 C24_2 1_555 1_555
C6_2 C7_2 1_555 1_555
C12_2 C13_2 1_555 1_555
C18_2 C19_2 1_555 1_555
C25_2 C26_2 1_555 1_555

#END
