
###############################################################################
#
# This file contains modified crystal structure data generated from the
# MOF subset of the Cambridge Structural Database (CSD) v543 
# hosted by the Cambridge Crystallographic Data Centre (CCDC).
#
# This work is licensed under the Creative Commons
# Attribution-NonCommercial-ShareAlike 4.0 International License.
# To view a copy of this license, visit
# http://creativecommons.org/licenses/by-nc-sa/4.0/
# or send a letter to
# Creative Commons, PO Box 1866, Mountain View, CA 94042, USA.
#
# CIF created using the CSD Python API on 29 September 2022
# The structure has been converted into the P1 space group
# The structure has a 3D framework
# The original CSD entry SAXKUB is in the triclinic crystal system
# The framework has been calculated to contain at least 10.0% void space
# The void calculation uses a probe of radius 1.32A, grid spacing 0.4
#
###############################################################################

data_SAXKUB
_chemical_formula_moiety         '(C90 H74 Cu4 N6 O18)n'
_symmetry_cell_setting           triclinic
_symmetry_space_group_name_H-M   'P 1'
_symmetry_Int_Tables_number      1
_space_group_name_Hall           'P 1'
loop_
_symmetry_equiv_pos_site_id
_symmetry_equiv_pos_as_xyz
1 x,y,z
_cell_length_a                   16.5521(5)
_cell_length_b                   17.8898(5)
_cell_length_c                   20.2377(6)
_cell_angle_alpha                110.392(3)
_cell_angle_beta                 101.931(3)
_cell_angle_gamma                91.093(2)
_cell_volume                     5468.57
loop_
_atom_site_label
_atom_site_type_symbol
_atom_site_fract_x
_atom_site_fract_y
_atom_site_fract_z
Cu8 Cu 0.00910(3) 0.53518(3) 0.45370(3)
O1 O 0.04088(18) 0.37468(17) 0.48790(17)
O3 O 0.12064(19) 0.4504(2) 0.00233(18)
O4 O 0.88321(16) 0.42340(18) 0.47691(16)
O6 O 0.0536(2) 0.43373(17) 0.40976(17)
O7 O 0.06633(17) 0.46957(18) 0.09878(17)
O8 O 0.89802(18) 0.48337(19) 0.39939(17)
C1 C 0.5297(2) 0.2952(2) 0.2508(2)
N1 N 0.4883(3) 0.4165(2) 0.2282(2)
H3 H 0.4424 0.4391 0.2206
H4 H 0.5160 0.4438 0.2723
C3 C 0.6139(2) 0.3354(2) 0.2946(2)
C4 C 0.5092(2) 0.2171(2) 0.2432(2)
H5 H 0.5486 0.1908 0.2644
C5 C 0.4317(2) 0.1760(2) 0.2048(3)
C7 C 0.1006(3) 0.3063(2) 0.3883(2)
N2 N 0.0911(3) 0.0128(2) 0.2295(3)
H7 H 0.0915 0.0001 0.2671
H8 H 0.0633 0.0538 0.2326
C8 C 0.3279(3) 0.0707(2) 0.2060(3)
C10 C 0.3245(2) 0.3382(2) 0.1525(2)
C11 C 0.3912(2) 0.2967(2) 0.1819(2)
C13 C 0.2869(3) 0.1266(2) 0.2481(3)
H9 H 0.3119 0.1789 0.2713
C14 C 0.4720(2) 0.3370(2) 0.2201(2)
C15 C 0.1206(2) 0.4461(2) 0.0631(2)
C16 C 0.7216(2) 0.3651(2) 0.4038(2)
H10 H 0.7399 0.3623 0.4495
C17 C 0.6419(2) 0.3321(2) 0.3634(2)
H11 H 0.6072 0.3078 0.3824
C18 C 0.0618(3) 0.3775(2) 0.4335(3)
C19 C 0.7735(2) 0.4021(2) 0.3764(2)
C20 C 0.2096(3) 0.1084(2) 0.2576(2)
C21 C 0.1701(3) 0.1767(2) 0.3037(3)
C22 C 0.3743(2) 0.2182(2) 0.1739(3)
H12 H 0.3225 0.1919 0.1470
C23 C 0.8582(2) 0.4391(2) 0.4210(2)
C24 C 0.1925(3) 0.4114(2) 0.0954(2)
C28 C 0.1633(3) 0.2462(3) 0.2885(3)
H15 H 0.1819 0.2498 0.2493
C29 C 0.4119(3) 0.0907(3) 0.1950(3)
H16 H 0.4540 0.0768 0.2286
H17 H 0.4153 0.0574 0.1465
C31 C 0.2632(3) 0.3679(4) 0.1900(3)
H19 H 0.2664 0.3644 0.2352
C32 C 0.1690(3) 0.0314(2) 0.2251(3)
C33 C 0.1399(3) 0.1725(2) 0.3626(3)
H20 H 0.1433 0.1263 0.3738
C34 C 0.7469(3) 0.4058(3) 0.3076(3)
H21 H 0.7813 0.4304 0.2887
C35 C 0.1055(3) 0.2367(3) 0.4036(3)
H22 H 0.0853 0.2334 0.4422
C36 C 0.6667(3) 0.3713(3) 0.2677(2)
H23 H 0.6487 0.3728 0.2215
C37 C 0.1294(3) 0.3101(3) 0.3308(3)
H24 H 0.1260 0.3566 0.3200
C38 C 0.2544(4) 0.3838(6) 0.0573(4)
H25 H 0.2512 0.3874 0.0121
C40 C 0.1976(3) 0.4027(3) 0.1610(3)
H27 H 0.1565 0.4204 0.1863
C41 C 0.3202(4) 0.3511(5) 0.0877(4)
H28 H 0.3633 0.3372 0.0642
H32 H 0.0034 0.3155 0.6675
H34 H 0.0016 0.3457 0.7497
Cu6 Cu 0.99090(3) 0.46482(3) 0.54630(3)
O16 O 0.10198(18) 0.51663(19) 0.60061(17)
Cu5 Cu 0.03217(3) 0.48850(3) 0.94322(3)
O2 O 0.03083(19) 0.61689(16) 0.09251(17)
C2 C 0.0726(2) 0.6401(2) 0.0551(2)
C6 C 0.2895(3) 0.9917(2) 0.1735(3)
H6 H 0.3167 0.9525 0.1449
C9 C 0.2127(3) 0.9701(2) 0.1824(3)
C12 C 0.1104(3) 0.7258(2) 0.0894(2)
C25 C 0.1108(3) 0.7709(2) 0.1608(3)
H13 H 0.0881 0.7477 0.1883
C26 C 0.1440(3) 0.8490(2) 0.1912(2)
H14 H 0.1449 0.8778 0.2395
C27 C 0.1769(3) 0.8865(2) 0.1508(2)
C30 C 0.1471(3) 0.7600(2) 0.0501(2)
H18 H 0.1506 0.7288 0.0034
C39 C 0.1788(3) 0.8396(3) 0.0783(3)
H26 H 0.2011 0.8622 0.0502
O5 O 0.08146(19) 0.59896(17) 0.99515(16)
O9 O 0.96433(18) 0.41012(17) 0.61906(17)
N3 N 0.9018(3) 0.3668(3) 0.6881(3)
C42 C 0.9033(3) 0.4104(3) 0.6472(3)
C43 C 0.8364(4) 0.3657(4) 0.7274(4)
H29 H 0.8615 0.3731 0.7767
H30 H 0.8030 0.3152 0.7048
H31 H 0.8022 0.4082 0.7262
C44 C 0.9691(4) 0.3199(5) 0.7013(5)
H33 H 0.9469 0.2674 0.6954
C45 C 0.8304(4) 0.4567(4) 0.6346(4)
H35 H 0.8381 0.4826 0.6017
H36 H 0.8261 0.4964 0.6798
H37 H 0.7805 0.4207 0.6143
Cu3 Cu 0.96783(3) 0.51150(3) 0.05678(3)
O14 O 0.9464(2) 0.56627(17) 0.59024(17)
O10 O 0.9008(2) 0.5372(2) 0.13987(18)
H1 H 0.8889 0.5041 0.1650
H2 H 0.8757 0.5843 0.1605
O13 O 0.91854(19) 0.40104(17) 0.00485(16)
O11 O 0.87936(19) 0.5496(2) 0.99767(18)
O10_2 O 0.0992(2) 0.4628(2) 0.86013(18)
H1_2 H 0.1111 0.4959 0.8350
H2_2 H 0.1243 0.4157 0.8395
O9_2 O 0.03567(18) 0.58988(17) 0.38094(17)
N3_2 N 0.0982(3) 0.6332(3) 0.3119(3)
C42_2 C 0.0967(3) 0.5896(3) 0.3528(3)
C43_2 C 0.1636(4) 0.6343(4) 0.2726(4)
H29_2 H 0.1385 0.6269 0.2233
H30_2 H 0.1970 0.6848 0.2952
H31_2 H 0.1978 0.5918 0.2738
C44_2 C 0.0309(4) 0.6801(5) 0.2987(5)
H33_2 H 0.0531 0.7326 0.3046
C45_2 C 0.1696(4) 0.5433(4) 0.3654(4)
H35_2 H 0.1619 0.5174 0.3983
H36_2 H 0.1739 0.5036 0.3202
H37_2 H 0.2195 0.5793 0.3857
O12 O 0.11679(16) 0.57660(18) 0.52309(16)
O2_2 O 0.96917(19) 0.38311(16) 0.90749(17)
C2_2 C 0.9274(2) 0.3599(2) 0.9449(2)
C6_2 C 0.7105(3) 0.0083(2) 0.8265(3)
H6_2 H 0.6833 0.0475 0.8551
C9_2 C 0.7873(3) 0.0299(2) 0.8176(3)
C12_2 C 0.8896(3) 0.2742(2) 0.9106(2)
C25_2 C 0.8892(3) 0.2291(2) 0.8392(3)
H13_2 H 0.9119 0.2523 0.8117
C26_2 C 0.8560(3) 0.1510(2) 0.8088(2)
H14_2 H 0.8551 0.1222 0.7605
C27_2 C 0.8231(3) 0.1135(2) 0.8492(2)
C30_2 C 0.8529(3) 0.2400(2) 0.9499(2)
H18_2 H 0.8494 0.2712 0.9966
C39_2 C 0.8212(3) 0.1604(3) 0.9217(3)
H26_2 H 0.7989 0.1378 0.9498
O15 O 0.93367(17) 0.53043(18) 0.90122(17)
O1_2 O 0.95912(18) 0.62532(17) 0.51210(17)
C1_2 C 0.4703(2) 0.7048(2) 0.7492(2)
N1_2 N 0.5117(3) 0.5835(2) 0.7718(2)
H3_2 H 0.5576 0.5609 0.7794
H4_2 H 0.4840 0.5562 0.7277
C3_2 C 0.3861(2) 0.6646(2) 0.7054(2)
C4_2 C 0.4908(2) 0.7829(2) 0.7568(2)
H5_2 H 0.4514 0.8092 0.7356
C5_2 C 0.5683(2) 0.8240(2) 0.7952(3)
C7_2 C 0.8994(3) 0.6937(2) 0.6117(2)
N2_2 N 0.9089(3) 0.9872(2) 0.7705(3)
H7_2 H 0.9085 0.9999 0.7329
H8_2 H 0.9367 0.9462 0.7674
C8_2 C 0.6721(3) 0.9293(2) 0.7940(3)
C10_2 C 0.6755(2) 0.6618(2) 0.8475(2)
C11_2 C 0.6088(2) 0.7033(2) 0.8181(2)
C13_2 C 0.7131(3) 0.8734(2) 0.7519(3)
H9_2 H 0.6881 0.8211 0.7287
C14_2 C 0.5280(2) 0.6630(2) 0.7799(2)
C15_2 C 0.8794(2) 0.5539(2) 0.9369(2)
C16_2 C 0.2784(2) 0.6349(2) 0.5962(2)
H10_2 H 0.2601 0.6377 0.5505
C17_2 C 0.3581(2) 0.6679(2) 0.6366(2)
H11_2 H 0.3928 0.6922 0.6176
C18_2 C 0.9382(3) 0.6225(2) 0.5665(3)
C19_2 C 0.2265(2) 0.5979(2) 0.6236(2)
C20_2 C 0.7904(3) 0.8916(2) 0.7424(2)
C21_2 C 0.8299(3) 0.8233(2) 0.6963(3)
C22_2 C 0.6257(2) 0.7818(2) 0.8261(3)
H12_2 H 0.6775 0.8081 0.8530
C23_2 C 0.1418(2) 0.5609(2) 0.5790(2)
C24_2 C 0.8075(3) 0.5886(2) 0.9046(2)
C28_2 C 0.8367(3) 0.7538(3) 0.7115(3)
H15_2 H 0.8181 0.7502 0.7507
C29_2 C 0.5881(3) 0.9093(3) 0.8050(3)
H16_2 H 0.5460 0.9232 0.7714
H17_2 H 0.5847 0.9426 0.8535
C31_2 C 0.7368(3) 0.6321(4) 0.8100(3)
H19_2 H 0.7336 0.6356 0.7648
C32_2 C 0.8310(3) 0.9686(2) 0.7749(3)
C33_2 C 0.8601(3) 0.8275(2) 0.6374(3)
H20_2 H 0.8567 0.8737 0.6262
C34_2 C 0.2531(3) 0.5942(3) 0.6924(3)
H21_2 H 0.2187 0.5696 0.7113
C35_2 C 0.8945(3) 0.7633(3) 0.5964(3)
H22_2 H 0.9147 0.7666 0.5578
C36_2 C 0.3333(3) 0.6287(3) 0.7323(2)
H23_2 H 0.3513 0.6272 0.7785
C37_2 C 0.8706(3) 0.6899(3) 0.6692(3)
H24_2 H 0.8740 0.6434 0.6800
C38_2 C 0.7456(4) 0.6162(6) 0.9427(4)
H25_2 H 0.7488 0.6126 0.9879
C40_2 C 0.8024(3) 0.5973(3) 0.8390(3)
H27_2 H 0.8435 0.5796 0.8137
C41_2 C 0.6798(4) 0.6489(5) 0.9123(4)
H28_2 H 0.6367 0.6628 0.9358
H32_2 H 0.9966 0.6845 0.3325
H34_2 H 0.9984 0.6543 0.2503
loop_
_geom_bond_atom_site_label_1
_geom_bond_atom_site_label_2
_geom_bond_site_symmetry_1
_geom_bond_site_symmetry_2
O1 C18 1_555 1_555
O3 C15 1_555 1_555
O4 C23 1_555 1_555
O6 C18 1_555 1_555
O7 C15 1_555 1_555
O8 C23 1_555 1_555
C1 C3 1_555 1_555
N1 H3 1_555 1_555
H4 N1 1_555 1_555
C3 C17 1_555 1_555
C4 C1 1_555 1_555
H5 C4 1_555 1_555
C5 C4 1_555 1_555
C7 C18 1_555 1_555
N2 H7 1_555 1_555
H8 N2 1_555 1_555
C10 C11 1_555 1_555
C11 C14 1_555 1_555
C13 C8 1_555 1_555
H9 C13 1_555 1_555
C14 C1 1_555 1_555
C15 C24 1_555 1_555
C16 H10 1_555 1_555
C17 C16 1_555 1_555
H11 C17 1_555 1_555
C19 C16 1_555 1_555
C20 C13 1_555 1_555
C21 C20 1_555 1_555
C22 C5 1_555 1_555
H12 C22 1_555 1_555
C23 C19 1_555 1_555
C24 C38 1_555 1_555
C28 C21 1_555 1_555
H15 C28 1_555 1_555
C29 C5 1_555 1_555
H16 C29 1_555 1_555
H17 C29 1_555 1_555
C31 C10 1_555 1_555
H19 C31 1_555 1_555
C32 N2 1_555 1_555
C33 C21 1_555 1_555
H20 C33 1_555 1_555
C34 C19 1_555 1_555
H21 C34 1_555 1_555
C35 C7 1_555 1_555
H22 C35 1_555 1_555
C36 C3 1_555 1_555
H23 C36 1_555 1_555
C37 C7 1_555 1_555
H24 C37 1_555 1_555
C38 H25 1_555 1_555
C40 C24 1_555 1_555
H27 C40 1_555 1_555
C41 C10 1_555 1_555
H28 C41 1_555 1_555
Cu6 O4 1_555 1_555
Cu8 O6 1_555 1_555
N1 C14 1_555 1_555
C8 C29 1_555 1_555
C11 C22 1_555 1_555
C20 C32 1_555 1_555
C28 C37 1_555 1_555
C31 C40 1_555 1_555
C33 C35 1_555 1_555
C34 C36 1_555 1_555
C38 C41 1_555 1_555
O2 C2 1_555 1_555
C2 C12 1_555 1_555
C6 H6 1_555 1_555
C9 C6 1_555 1_555
C12 C25 1_555 1_555
C25 H13 1_555 1_555
C26 C25 1_555 1_555
H14 C26 1_555 1_555
C27 C9 1_555 1_555
C30 C12 1_555 1_555
H18 C30 1_555 1_555
C39 C27 1_555 1_555
H26 C39 1_555 1_555
C26 C27 1_555 1_555
C30 C39 1_555 1_555
Cu5 O5 1_555 1_555
O9 Cu6 1_555 1_555
N3 C42 1_555 1_555
C42 O9 1_555 1_555
C43 N3 1_555 1_555
H29 C43 1_555 1_555
H30 C43 1_555 1_555
H31 C43 1_555 1_555
C44 N3 1_555 1_555
H33 C44 1_555 1_555
C45 C42 1_555 1_555
H35 C45 1_555 1_555
H36 C45 1_555 1_555
H37 C45 1_555 1_555
O14 Cu6 1_555 1_555
O10 Cu3 1_555 1_555
H1 O10 1_555 1_555
H2 O10 1_555 1_555
O13 Cu3 1_555 1_555
O10_2 Cu5 1_555 1_555
H1_2 O10_2 1_555 1_555
H2_2 O10_2 1_555 1_555
O9_2 Cu8 1_555 1_555
N3_2 C42_2 1_555 1_555
C42_2 O9_2 1_555 1_555
C43_2 N3_2 1_555 1_555
H29_2 C43_2 1_555 1_555
H30_2 C43_2 1_555 1_555
H31_2 C43_2 1_555 1_555
C44_2 N3_2 1_555 1_555
H33_2 C44_2 1_555 1_555
C45_2 C42_2 1_555 1_555
H35_2 C45_2 1_555 1_555
H36_2 C45_2 1_555 1_555
H37_2 C45_2 1_555 1_555
O12 Cu8 1_555 1_555
O2_2 C2_2 1_555 1_555
C2_2 C12_2 1_555 1_555
C6_2 H6_2 1_555 1_555
C9_2 C6_2 1_555 1_555
C12_2 C25_2 1_555 1_555
C25_2 H13_2 1_555 1_555
C26_2 C25_2 1_555 1_555
H14_2 C26_2 1_555 1_555
C27_2 C9_2 1_555 1_555
C30_2 C12_2 1_555 1_555
H18_2 C30_2 1_555 1_555
C39_2 C27_2 1_555 1_555
H26_2 C39_2 1_555 1_555
C26_2 C27_2 1_555 1_555
C30_2 C39_2 1_555 1_555
O1_2 C18_2 1_555 1_555
O11 C15_2 1_555 1_555
O12 C23_2 1_555 1_555
O14 C18_2 1_555 1_555
O15 C15_2 1_555 1_555
O16 C23_2 1_555 1_555
C1_2 C3_2 1_555 1_555
N1_2 H3_2 1_555 1_555
H4_2 N1_2 1_555 1_555
C3_2 C17_2 1_555 1_555
C4_2 C1_2 1_555 1_555
H5_2 C4_2 1_555 1_555
C5_2 C4_2 1_555 1_555
C7_2 C18_2 1_555 1_555
N2_2 H7_2 1_555 1_555
H8_2 N2_2 1_555 1_555
C10_2 C11_2 1_555 1_555
C11_2 C14_2 1_555 1_555
C13_2 C8_2 1_555 1_555
H9_2 C13_2 1_555 1_555
C14_2 C1_2 1_555 1_555
C15_2 C24_2 1_555 1_555
C16_2 H10_2 1_555 1_555
C17_2 C16_2 1_555 1_555
H11_2 C17_2 1_555 1_555
C19_2 C16_2 1_555 1_555
C20_2 C13_2 1_555 1_555
C21_2 C20_2 1_555 1_555
C22_2 C5_2 1_555 1_555
H12_2 C22_2 1_555 1_555
C23_2 C19_2 1_555 1_555
C24_2 C38_2 1_555 1_555
C28_2 C21_2 1_555 1_555
H15_2 C28_2 1_555 1_555
C29_2 C5_2 1_555 1_555
H16_2 C29_2 1_555 1_555
H17_2 C29_2 1_555 1_555
C31_2 C10_2 1_555 1_555
H19_2 C31_2 1_555 1_555
C32_2 N2_2 1_555 1_555
C33_2 C21_2 1_555 1_555
H20_2 C33_2 1_555 1_555
C34_2 C19_2 1_555 1_555
H21_2 C34_2 1_555 1_555
C35_2 C7_2 1_555 1_555
H22_2 C35_2 1_555 1_555
C36_2 C3_2 1_555 1_555
H23_2 C36_2 1_555 1_555
C37_2 C7_2 1_555 1_555
H24_2 C37_2 1_555 1_555
C38_2 H25_2 1_555 1_555
C40_2 C24_2 1_555 1_555
H27_2 C40_2 1_555 1_555
C41_2 C10_2 1_555 1_555
H28_2 C41_2 1_555 1_555
N1_2 C14_2 1_555 1_555
C8_2 C29_2 1_555 1_555
C11_2 C22_2 1_555 1_555
C20_2 C32_2 1_555 1_555
C28_2 C37_2 1_555 1_555
C31_2 C40_2 1_555 1_555
C33_2 C35_2 1_555 1_555
C34_2 C36_2 1_555 1_555
C38_2 C41_2 1_555 1_555

#END
