
###############################################################################
#
# This file contains modified crystal structure data generated from the
# MOF subset of the Cambridge Structural Database (CSD) v543 
# hosted by the Cambridge Crystallographic Data Centre (CCDC).
#
# This work is licensed under the Creative Commons
# Attribution-NonCommercial-ShareAlike 4.0 International License.
# To view a copy of this license, visit
# http://creativecommons.org/licenses/by-nc-sa/4.0/
# or send a letter to
# Creative Commons, PO Box 1866, Mountain View, CA 94042, USA.
#
# CIF created using the CSD Python API on 29 September 2022
# The structure has been converted into the P1 space group
# The structure has a 3D framework
# The original CSD entry SAXVEW is in the triclinic crystal system
# The framework has been calculated to contain at least 10.0% void space
# The void calculation uses a probe of radius 1.32A, grid spacing 0.4
#
###############################################################################

data_SAXVEW
_chemical_formula_moiety         '(C100 H56 Cd4 N12 O16 S4)n'
_symmetry_cell_setting           triclinic
_symmetry_space_group_name_H-M   'P 1'
_symmetry_Int_Tables_number      1
_space_group_name_Hall           'P 1'
loop_
_symmetry_equiv_pos_site_id
_symmetry_equiv_pos_as_xyz
1 x,y,z
_cell_length_a                   10.9662(3)
_cell_length_b                   11.9668(4)
_cell_length_c                   18.1565(6)
_cell_angle_alpha                104.1000(10)
_cell_angle_beta                 91.2710(10)
_cell_angle_gamma                97.8770(10)
_cell_volume                     2285.26
loop_
_atom_site_label
_atom_site_type_symbol
_atom_site_fract_x
_atom_site_fract_y
_atom_site_fract_z
N6 N 0.1776(2) 0.8415(2) 0.54444(13)
C47 C 0.0606(3) 0.8536(3) 0.5313(2)
H26 H 0.0451 0.9187 0.5152
C48 C 0.1960(3) 0.7482(3) 0.56874(17)
H27 H 0.2767 0.7382 0.5789
C49 C 0.1019(3) 0.6660(3) 0.57963(18)
H28 H 0.1198 0.6031 0.5974
Cd6 Cd 0.325599(17) 0.978274(16) 0.505326(10)
H3 H 0.7486 0.9999 0.8682
H4 H 0.7803 0.9885 0.7415
O11 O 0.49911(16) 0.90671(16) 0.53423(10)
O12 O 0.63476(17) 0.85931(16) 0.37439(11)
O14 O 0.81191(19) 0.89792(18) 0.44125(11)
H16 H 0.9421 0.7609 0.0496
C33 C 0.9451(2) 0.7161(2) 0.18404(15)
C34 C 0.8230(2) 0.7340(2) 0.17592(15)
H17 H 0.7846 0.7176 0.1275
C35 C 0.7580(2) 0.7759(2) 0.23895(15)
H18 H 0.6766 0.7871 0.2327
C36 C 0.8145(2) 0.8010(2) 0.31119(15)
C37 C 0.9359(3) 0.7834(2) 0.31987(16)
H19 H 0.9744 0.8008 0.3683
C38 C 0.9998(2) 0.7402(3) 0.25720(16)
C39 C 0.7502(3) 0.8534(2) 0.38003(16)
Cd8 Cd 0.491885(17) 0.711202(17) 0.398345(10)
C1 C 0.2984(2) 0.8938(2) 0.35127(14)
O1 O 0.34613(17) 0.82846(17) 0.38555(10)
N1 N 0.5913(2) 0.8212(2) 0.04961(14)
C2 C 0.3073(2) 0.8774(2) 0.26722(14)
O2 O 0.24757(18) 0.97663(17) 0.38776(10)
C3 C 0.3494(2) 0.8658(2) 0.11476(14)
C4 C 0.3894(3) 0.7853(2) 0.15008(15)
H1 H 0.4304 0.7270 0.1226
C5 C 0.3687(3) 0.7911(2) 0.22589(15)
H2 H 0.3961 0.7371 0.2490
C6 C 0.2828(3) 0.9486(3) 0.15555(15)
C7 C 0.2631(3) 0.9548(3) 0.23139(15)
C8 C 0.3788(2) 0.8636(2) 0.03516(14)
C9 C 0.4951(3) 0.8369(2) 0.00762(15)
H8 H 0.2235 0.9095 0.0006
S1 S 0.70152(8) 0.80051(8) 0.99309(5)
N2 N 0.6379(2) 0.8090(2) 0.91419(13)
O3 O 0.4879(2) 0.59264(19) 0.27996(11)
O5 O 0.55161(19) 0.73102(17) 0.52172(10)
O6 O 0.6419(2) 0.57643(19) 0.35402(11)
N5 N 0.3217(2) 0.5822(2) 0.41965(14)
C10 C 0.5035(2) 0.8316(2) 0.64458(14)
C11 C 0.4491(2) 0.9225(2) 0.68728(14)
H5 H 0.4281 0.9803 0.6653
C12 C 0.5216(3) 0.8301(2) 0.92962(15)
C13 C 0.4340(3) 0.8506(2) 0.87746(15)
C14 C 0.4597(2) 0.8435(2) 0.79693(14)
C15 C 0.3255(3) 0.8806(3) 0.90715(15)
H6 H 0.2668 0.8972 0.8752
C16 C 0.5370(3) 0.7476(2) 0.67845(15)
H7 H 0.5728 0.6861 0.6500
C17 C 0.2985(3) 0.8877(3) 0.98414(15)
C18 C 0.5174(3) 0.7545(2) 0.75427(15)
H9 H 0.5431 0.6993 0.7770
C19 C 0.4262(2) 0.9273(2) 0.76242(15)
H10 H 0.3878 0.9874 0.7903
C20 C 0.9318(3) 0.3227(2) 0.01412(16)
H11 H 0.9482 0.2953 0.0565
C21 C 0.8439(2) 0.3937(2) 0.01779(15)
C22 C 0.5927(3) 0.4883(3) 0.14844(16)
H12 H 0.5129 0.5053 0.1446
C23 C 0.6535(3) 0.4515(3) 0.08291(16)
H13 H 0.6142 0.4439 0.0357
C24 C 0.7727(2) 0.4259(2) 0.08705(16)
C25 C 0.8263(3) 0.4324(3) 0.15860(17)
H14 H 0.9046 0.4121 0.1626
C26 C 0.7643(3) 0.4689(3) 0.22402(16)
H15 H 0.8013 0.4722 0.2713
C27 C 0.6485(3) 0.5002(2) 0.21962(15)
C28 C 0.5204(2) 0.8222(2) 0.56205(14)
C40 C 0.3258(3) 0.5164(3) 0.46887(18)
H21 H 0.3963 0.5288 0.5009
C41 C 0.2313(3) 0.4310(3) 0.47518(18)
H22 H 0.2394 0.3865 0.5100
C42 C 0.1241(3) 0.4120(3) 0.42898(17)
C43 C 0.1191(3) 0.4813(3) 0.37834(18)
H23 H 0.0488 0.4726 0.3467
C44 C 0.2193(3) 0.5635(3) 0.37512(18)
H24 H 0.2149 0.6080 0.3400
C45 C 0.0190(3) 0.3228(3) 0.43587(17)
C46 C 0.0386(3) 0.2250(3) 0.4597(2)
H25 H 0.1185 0.2123 0.4696
C50 C 0.5892(3) 0.5575(2) 0.28998(16)
S2 S 0.23559(8) 0.46876(8) 0.14071(5)
N3 N 0.1320(2) 0.5489(2) 0.17094(14)
N4 N 0.2524(2) 0.4896(2) 0.05693(15)
C29 C 0.0002(3) 0.7117(3) 0.05127(16)
C30 C 0.0157(2) 0.6762(2) 0.11620(15)
C31 C 0.1047(2) 0.5993(2) 0.11493(16)
C32 C 0.1743(2) 0.5644(2) 0.04865(16)
H20 H 0.0804 0.7269 0.2639
S1_2 S 0.29848(8) 0.19949(8) 0.00691(5)
Cd2 Cd 0.508115(17) 0.288798(17) 0.601655(10)
N2_2 N 0.3621(2) 0.1910(2) 0.08581(13)
O3_2 O 0.5121(2) 0.40736(19) 0.72004(11)
O4 O 0.50089(16) 0.09329(16) 0.46577(10)
O5_2 O 0.44839(19) 0.26898(17) 0.47828(10)
O6_2 O 0.3581(2) 0.42357(19) 0.64598(11)
N5_2 N 0.6783(2) 0.4178(2) 0.58035(14)
C10_2 C 0.4965(2) 0.1684(2) 0.35542(14)
C11_2 C 0.5509(2) 0.0775(2) 0.31272(14)
H5_2 H 0.5719 0.0197 0.3347
C12_2 C 0.4784(3) 0.1699(2) 0.07038(15)
C13_2 C 0.5660(3) 0.1494(2) 0.12254(15)
C14_2 C 0.5403(2) 0.1565(2) 0.20307(14)
C15_2 C 0.6745(3) 0.1194(3) 0.09285(15)
H6_2 H 0.7332 0.1028 0.1248
C16_2 C 0.4630(3) 0.2524(2) 0.32155(15)
H7_2 H 0.4272 0.3139 0.3500
C17_2 C 0.7015(3) 0.1123(3) 0.01586(15)
C18_2 C 0.4826(3) 0.2455(2) 0.24573(15)
H9_2 H 0.4569 0.3007 0.2230
C19_2 C 0.5738(2) 0.0727(2) 0.23758(15)
H10_2 H 0.6122 0.0126 0.2097
C20_2 C 0.0682(3) 0.6773(2) 0.98588(16)
H11_2 H 0.0518 0.7047 0.9435
C21_2 C 0.1561(2) 0.6063(2) 0.98221(15)
C22_2 C 0.4073(3) 0.5117(3) 0.85156(16)
H12_2 H 0.4871 0.4947 0.8554
C23_2 C 0.3465(3) 0.5485(3) 0.91709(16)
H13_2 H 0.3858 0.5561 0.9643
C24_2 C 0.2273(2) 0.5741(2) 0.91295(16)
C25_2 C 0.1737(3) 0.5676(3) 0.84140(17)
H14_2 H 0.0954 0.5879 0.8374
C26_2 C 0.2357(3) 0.5311(3) 0.77598(16)
H15_2 H 0.1987 0.5278 0.7287
C27_2 C 0.3515(3) 0.4998(2) 0.78038(15)
C28_2 C 0.4796(2) 0.1778(2) 0.43795(14)
C40_2 C 0.6742(3) 0.4836(3) 0.53113(18)
H21_2 H 0.6037 0.4712 0.4991
C41_2 C 0.7687(3) 0.5690(3) 0.52482(18)
H22_2 H 0.7606 0.6135 0.4900
C42_2 C 0.8759(3) 0.5880(3) 0.57102(17)
C43_2 C 0.8809(3) 0.5187(3) 0.62166(18)
H23_2 H 0.9512 0.5274 0.6533
C44_2 C 0.7807(3) 0.4365(3) 0.62488(18)
H24_2 H 0.7851 0.3920 0.6600
C45_2 C 0.9810(3) 0.6772(3) 0.56413(17)
C46_2 C 0.9614(3) 0.7750(3) 0.5403(2)
H25_2 H 0.8815 0.7877 0.5304
C50_2 C 0.4108(3) 0.4425(2) 0.71002(16)
Cd4 Cd 0.674401(17) 0.021726(16) 0.494674(10)
O9 O 0.65387(17) 0.17154(17) 0.61445(10)
O13 O 0.36524(17) 0.14069(16) 0.62561(11)
C1_2 C 0.7016(2) 0.1062(2) 0.64873(14)
N1_2 N 0.4087(2) 0.1788(2) 0.95039(14)
C2_2 C 0.6927(2) 0.1226(2) 0.73278(14)
O2_2 O 0.75243(18) 0.02337(17) 0.61224(10)
C3_2 C 0.6506(2) 0.1342(2) 0.88524(14)
C4_2 C 0.6106(3) 0.2147(2) 0.84992(15)
H1_2 H 0.5696 0.2730 0.8774
C5_2 C 0.6313(3) 0.2089(2) 0.77411(15)
H2_2 H 0.6039 0.2629 0.7510
C6_2 C 0.7172(3) 0.0514(3) 0.84445(15)
C7_2 C 0.7369(3) 0.0452(3) 0.76861(15)
C8_2 C 0.6212(2) 0.1364(2) 0.96484(14)
C9_2 C 0.5049(3) 0.1631(2) 0.99238(15)
H8_2 H 0.7765 0.0905 0.9994
N7 N 0.8224(2) 0.1585(2) 0.45556(13)
O8 O 0.18809(19) 0.10208(18) 0.55875(11)
H16_2 H 0.0579 0.2391 0.9504
C33_2 C 0.0549(2) 0.2839(2) 0.81596(15)
C34_2 C 0.1770(2) 0.2660(2) 0.82408(15)
H17_2 H 0.2154 0.2824 0.8725
C35_2 C 0.2420(2) 0.2241(2) 0.76105(15)
H18_2 H 0.3234 0.2129 0.7673
C36_2 C 0.1855(2) 0.1990(2) 0.68881(15)
C37_2 C 0.0641(3) 0.2166(2) 0.68013(16)
H19_2 H 0.0256 0.1992 0.6317
C38_2 C 0.0002(2) 0.2598(3) 0.74280(16)
C39_2 C 0.2498(3) 0.1466(2) 0.61997(16)
H3_2 H 0.2514 0.0001 0.1318
H4_2 H 0.2197 0.0115 0.2585
C47_2 C 0.9394(3) 0.1464(3) 0.4687(2)
H26_2 H 0.9549 0.0813 0.4848
C48_2 C 0.8040(3) 0.2518(3) 0.43126(17)
H27_2 H 0.7233 0.2618 0.4211
C49_2 C 0.8981(3) 0.3340(3) 0.42037(18)
H28_2 H 0.8802 0.3969 0.4026
S2_2 S 0.76441(8) 0.53124(8) 0.85929(5)
N3_2 N 0.8680(2) 0.4511(2) 0.82906(14)
N4_2 N 0.7476(2) 0.5104(2) 0.94307(15)
C29_2 C 0.9998(3) 0.2883(3) 0.94873(16)
C30_2 C 0.9843(2) 0.3238(2) 0.88380(15)
C31_2 C 0.8953(2) 0.4007(2) 0.88507(16)
C32_2 C 0.8257(2) 0.4356(2) 0.95135(16)
H20_2 H 0.9196 0.2731 0.7361
loop_
_geom_bond_atom_site_label_1
_geom_bond_atom_site_label_2
_geom_bond_site_symmetry_1
_geom_bond_site_symmetry_2
N6 C47 1_555 1_555
H26 C47 1_555 1_555
C48 N6 1_555 1_555
H27 C48 1_555 1_555
H28 C49 1_555 1_555
Cd6 N6 1_555 1_555
C48 C49 1_555 1_555
O12 C39 1_555 1_555
O14 C39 1_555 1_555
C34 C33 1_555 1_555
H17 C34 1_555 1_555
C35 C34 1_555 1_555
H18 C35 1_555 1_555
C36 C35 1_555 1_555
C37 C36 1_555 1_555
H19 C37 1_555 1_555
C38 C33 1_555 1_555
C39 C36 1_555 1_555
Cd8 O12 1_555 1_555
C37 C38 1_555 1_555
Cd6 O1 1_555 1_555
C1 O1 1_555 1_555
O1 Cd8 1_555 1_555
C2 C1 1_555 1_555
O2 Cd6 1_555 1_555
C3 C4 1_555 1_555
C4 H1 1_555 1_555
C5 C2 1_555 1_555
H2 C5 1_555 1_555
C6 C3 1_555 1_555
C7 C2 1_555 1_555
C8 C3 1_555 1_555
C9 N1 1_555 1_555
O11 Cd6 1_555 1_555
C1 O2 1_555 1_555
C4 C5 1_555 1_555
C6 C7 1_555 1_555
C8 C9 1_555 1_555
S1 N2 1_555 1_555
Cd8 O3 1_555 1_555
N2 C12 1_555 1_555
O3 C50 1_555 1_555
O11 C28 1_555 1_555
O5 Cd8 1_555 1_555
O6 Cd8 1_555 1_555
N5 Cd8 1_555 1_555
C10 C11 1_555 1_555
C11 H5 1_555 1_555
C13 C12 1_555 1_555
C14 C13 1_555 1_555
C15 C13 1_555 1_555
H6 C15 1_555 1_555
C16 C10 1_555 1_555
H7 C16 1_555 1_555
C18 C14 1_555 1_555
H9 C18 1_555 1_555
C19 C11 1_555 1_555
H10 C19 1_555 1_555
C20 H11 1_555 1_555
C21 C20 1_555 1_555
C22 H12 1_555 1_555
C23 C22 1_555 1_555
H13 C23 1_555 1_555
C24 C21 1_555 1_555
C25 C24 1_555 1_555
H14 C25 1_555 1_555
C26 C25 1_555 1_555
H15 C26 1_555 1_555
C27 C22 1_555 1_555
C28 O5 1_555 1_555
C40 N5 1_555 1_555
H21 C40 1_555 1_555
C41 C40 1_555 1_555
H22 C41 1_555 1_555
C42 C41 1_555 1_555
C43 C42 1_555 1_555
H23 C43 1_555 1_555
C44 N5 1_555 1_555
H24 C44 1_555 1_555
C45 C42 1_555 1_555
C46 C45 1_555 1_555
H25 C46 1_555 1_555
C50 O6 1_555 1_555
C10 C28 1_555 1_555
C14 C19 1_555 1_555
C15 C17 1_555 1_555
C16 C18 1_555 1_555
C23 C24 1_555 1_555
C26 C27 1_555 1_555
C27 C50 1_555 1_555
C43 C44 1_555 1_555
S2 N3 1_555 1_555
N3 C31 1_555 1_555
N4 S2 1_555 1_555
C30 C29 1_555 1_555
C31 C30 1_555 1_555
C32 N4 1_555 1_555
C31 C32 1_555 1_555
S1_2 N2_2 1_555 1_555
Cd2 O3_2 1_555 1_555
N2_2 C12_2 1_555 1_555
O3_2 C50_2 1_555 1_555
O4 C28_2 1_555 1_555
O5_2 Cd2 1_555 1_555
O6_2 Cd2 1_555 1_555
N5_2 Cd2 1_555 1_555
C10_2 C11_2 1_555 1_555
C11_2 H5_2 1_555 1_555
C13_2 C12_2 1_555 1_555
C14_2 C13_2 1_555 1_555
C15_2 C13_2 1_555 1_555
H6_2 C15_2 1_555 1_555
C16_2 C10_2 1_555 1_555
H7_2 C16_2 1_555 1_555
C18_2 C14_2 1_555 1_555
H9_2 C18_2 1_555 1_555
C19_2 C11_2 1_555 1_555
H10_2 C19_2 1_555 1_555
C20_2 H11_2 1_555 1_555
C21_2 C20_2 1_555 1_555
C22_2 H12_2 1_555 1_555
C23_2 C22_2 1_555 1_555
H13_2 C23_2 1_555 1_555
C24_2 C21_2 1_555 1_555
C25_2 C24_2 1_555 1_555
H14_2 C25_2 1_555 1_555
C26_2 C25_2 1_555 1_555
H15_2 C26_2 1_555 1_555
C27_2 C22_2 1_555 1_555
C28_2 O5_2 1_555 1_555
C40_2 N5_2 1_555 1_555
H21_2 C40_2 1_555 1_555
C41_2 C40_2 1_555 1_555
H22_2 C41_2 1_555 1_555
C42_2 C41_2 1_555 1_555
C43_2 C42_2 1_555 1_555
H23_2 C43_2 1_555 1_555
C44_2 N5_2 1_555 1_555
H24_2 C44_2 1_555 1_555
C45_2 C42_2 1_555 1_555
C46_2 C45_2 1_555 1_555
H25_2 C46_2 1_555 1_555
C50_2 O6_2 1_555 1_555
Cd4 O4 1_555 1_555
O9 Cd2 1_555 1_555
O13 Cd2 1_555 1_555
C10_2 C28_2 1_555 1_555
C14_2 C19_2 1_555 1_555
C15_2 C17_2 1_555 1_555
C16_2 C18_2 1_555 1_555
C23_2 C24_2 1_555 1_555
C26_2 C27_2 1_555 1_555
C27_2 C50_2 1_555 1_555
C43_2 C44_2 1_555 1_555
Cd4 O9 1_555 1_555
C1_2 O9 1_555 1_555
C2_2 C1_2 1_555 1_555
O2_2 Cd4 1_555 1_555
C3_2 C4_2 1_555 1_555
C4_2 H1_2 1_555 1_555
C5_2 C2_2 1_555 1_555
H2_2 C5_2 1_555 1_555
C6_2 C3_2 1_555 1_555
C7_2 C2_2 1_555 1_555
C8_2 C3_2 1_555 1_555
C9_2 N1_2 1_555 1_555
N7 Cd4 1_555 1_555
C1_2 O2_2 1_555 1_555
C4_2 C5_2 1_555 1_555
C6_2 C7_2 1_555 1_555
C8_2 C9_2 1_555 1_555
O13 C39_2 1_555 1_555
O8 C39_2 1_555 1_555
C34_2 C33_2 1_555 1_555
H17_2 C34_2 1_555 1_555
C35_2 C34_2 1_555 1_555
H18_2 C35_2 1_555 1_555
C36_2 C35_2 1_555 1_555
C37_2 C36_2 1_555 1_555
H19_2 C37_2 1_555 1_555
C38_2 C33_2 1_555 1_555
C39_2 C36_2 1_555 1_555
C37_2 C38_2 1_555 1_555
N7 C47_2 1_555 1_555
H26_2 C47_2 1_555 1_555
C48_2 N7 1_555 1_555
H27_2 C48_2 1_555 1_555
H28_2 C49_2 1_555 1_555
C48_2 C49_2 1_555 1_555
S2_2 N3_2 1_555 1_555
N3_2 C31_2 1_555 1_555
N4_2 S2_2 1_555 1_555
C30_2 C29_2 1_555 1_555
C31_2 C30_2 1_555 1_555
C32_2 N4_2 1_555 1_555
C31_2 C32_2 1_555 1_555

#END
