
###############################################################################
#
# This file contains modified crystal structure data generated from the
# MOF subset of the Cambridge Structural Database (CSD) v543 
# hosted by the Cambridge Crystallographic Data Centre (CCDC).
#
# This work is licensed under the Creative Commons
# Attribution-NonCommercial-ShareAlike 4.0 International License.
# To view a copy of this license, visit
# http://creativecommons.org/licenses/by-nc-sa/4.0/
# or send a letter to
# Creative Commons, PO Box 1866, Mountain View, CA 94042, USA.
#
# CIF created using the CSD Python API on 29 September 2022
# The structure has been converted into the P1 space group
# The structure has a 3D framework
# The original CSD entry SAXVIA is in the hexagonal crystal system
# The framework has been calculated to contain at least 10.0% void space
# The void calculation uses a probe of radius 1.32A, grid spacing 0.4
# H atom positions have been added when not included in the experimental data
# Generated hydrogen atom positions removed from atoms on special positions
#
###############################################################################

data_SAXVIA
_chemical_formula_moiety         '(C24 H78 O32 Sc6)n'
_symmetry_cell_setting           triclinic
_symmetry_space_group_name_H-M   'P 1'
_symmetry_Int_Tables_number      1
_space_group_name_Hall           'P 1'
loop_
_symmetry_equiv_pos_site_id
_symmetry_equiv_pos_as_xyz
1 x,y,z
_cell_length_a                   13.098(3)
_cell_length_b                   13.098(3)
_cell_length_c                   13.958(4)
_cell_angle_alpha                90
_cell_angle_beta                 90
_cell_angle_gamma                120
_cell_volume                     2073.79
loop_
_atom_site_label
_atom_site_type_symbol
_atom_site_fract_x
_atom_site_fract_y
_atom_site_fract_z
C11 C 0.5201(5) 0.0985(3) 0.3915(3)
O15 O 0.4600(4) 0.1418(3) 0.35816(18)
C12 C 0.4729(6) 0.0225(4) 0.4780(3)
H6 H 0.399967 0.006690 0.501574
O16 O 0.6165(4) 0.1170(3) 0.35808(18)
Sc5 Sc 0.73280(8) 0.22312(8) 0.250000
Sc9 Sc 0.49032(11) 0.26720(8) 0.250000
C1 C 0.0985(3) 0.5784(4) 0.6085(3)
O1 O 0.1418(3) 0.6818(3) 0.64184(18)
Sc1 Sc 0.26720(8) 0.77688(8) 0.750000
C2 C 0.0225(4) 0.5496(4) 0.5220(3)
H1 H 0.006690 0.606723 0.498426
O2 O 0.1170(3) 0.5005(2) 0.64192(18)
O3 O 0.333333 0.666667 0.750000
O4 O 0.2039(4) 0.8993(4) 0.750000
C5 C 0.4216(4) 0.5201(5) 0.6085(3)
O7 O 0.3182(3) 0.4600(4) 0.64184(18)
Sc2 Sc 0.22312(8) 0.49032(11) 0.750000
C6 C 0.4504(4) 0.4729(6) 0.5220(3)
H3 H 0.393277 0.399967 0.498426
O8 O 0.4995(2) 0.6165(4) 0.64192(18)
O9 O 0.1007(4) 0.3046(6) 0.750000
C7 C 0.5784(4) 0.4799(5) 0.3915(3)
O10 O 0.6818(3) 0.5400(4) 0.35816(18)
C8 C 0.5496(4) 0.5271(6) 0.4780(3)
H4 H 0.606723 0.600033 0.501574
O11 O 0.5005(2) 0.3835(4) 0.35808(18)
C9 C 0.4799(5) 0.9015(3) 0.6085(3)
O12 O 0.5400(4) 0.8582(3) 0.64184(18)
Sc3 Sc 0.50968(11) 0.73280(8) 0.750000
C10 C 0.5271(6) 0.9775(4) 0.5220(3)
H5 H 0.600033 0.993310 0.498426
O13 O 0.3835(4) 0.8830(3) 0.64192(18)
O14 O 0.6954(6) 0.7961(4) 0.750000
O17 O 0.1418(3) 0.6818(3) 0.85816(18)
O18 O 0.3182(3) 0.4600(4) 0.85816(18)
O19 O 0.5400(4) 0.8582(3) 0.85816(18)
Sc7 Sc 0.77688(8) 0.50968(11) 0.250000
O20 O 0.1170(3) 0.5005(2) 0.85808(18)
O21 O 0.4995(2) 0.6165(4) 0.85808(18)
O22 O 0.3835(4) 0.8830(3) 0.85808(18)
C3 C 0.9015(3) 0.4216(4) 0.3915(3)
O5 O 0.8582(3) 0.3182(3) 0.35816(18)
C4 C 0.9775(4) 0.4504(4) 0.4780(3)
H2 H 0.993310 0.393277 0.501574
O6 O 0.8830(3) 0.4995(2) 0.35808(18)
H2_2 H 0.006690 0.606723 0.001574
C3_2 C 0.0985(3) 0.5784(4) 0.8915(3)
C4_2 C 0.0225(4) 0.5496(4) 0.9780(3)
C1_2 C 0.9015(3) 0.4216(4) 0.1085(3)
O1_2 O 0.8582(3) 0.3182(3) 0.14184(18)
C2_2 C 0.9775(4) 0.4504(4) 0.0220(3)
O2_2 O 0.8830(3) 0.4995(2) 0.14192(18)
O3_2 O 0.666667 0.333333 0.250000
O4_2 O 0.7961(4) 0.1007(4) 0.250000
C5_2 C 0.5784(4) 0.4799(5) 0.1085(3)
O7_2 O 0.6818(3) 0.5400(4) 0.14184(18)
C6_2 C 0.5496(4) 0.5271(6) 0.0220(3)
O8_2 O 0.5005(2) 0.3835(4) 0.14192(18)
O9_2 O 0.8993(4) 0.6954(6) 0.250000
H4_2 H 0.393277 0.399967 0.001574
C9_2 C 0.5201(5) 0.0985(3) 0.1085(3)
O12_2 O 0.4600(4) 0.1418(3) 0.14184(18)
C10_2 C 0.4729(6) 0.0225(4) 0.0220(3)
O13_2 O 0.6165(4) 0.1170(3) 0.14192(18)
O14_2 O 0.3046(6) 0.2039(4) 0.250000
H1_2 H 0.993310 0.393277 0.998426
H3_2 H 0.606723 0.600033 0.998426
C7_2 C 0.4216(4) 0.5201(5) 0.8915(3)
C8_2 C 0.4504(4) 0.4729(6) 0.9780(3)
H5_2 H 0.399967 0.006690 0.998426
H6_2 H 0.600033 0.993310 0.001574
C11_2 C 0.4799(5) 0.9015(3) 0.8915(3)
C12_2 C 0.5271(6) 0.9775(4) 0.9780(3)
loop_
_geom_bond_atom_site_label_1
_geom_bond_atom_site_label_2
_geom_bond_site_symmetry_1
_geom_bond_site_symmetry_2
C11 O15 1_555 1_555
O15 Sc9 1_555 1_555
H6 C12 1_555 1_555
O16 C11 1_555 1_555
Sc5 O16 1_555 1_555
C11 C12 1_555 1_555
C1 O1 1_555 1_555
O1 Sc1 1_555 1_555
Sc1 O3 1_555 1_555
C2 C1 1_555 1_555
H1 C2 1_555 1_555
O2 C1 1_555 1_555
O3 Sc2 1_555 1_555
O4 Sc1 1_555 1_555
C5 O7 1_555 1_555
O7 Sc2 1_555 1_555
Sc2 O2 1_555 1_555
C6 C5 1_555 1_555
H3 C6 1_555 1_555
O8 C5 1_555 1_555
O9 Sc2 1_555 1_555
C7 O10 1_555 1_555
O10 Sc7 1_555 1_555
C8 C6 1_555 1_555
H4 C8 1_555 1_555
O11 C7 1_555 1_555
C9 O12 1_555 1_555
O12 Sc3 1_555 1_555
Sc3 O3 1_555 1_555
C10 C9 1_555 1_555
H5 C10 1_555 1_555
O13 Sc1 1_555 1_555
O14 Sc3 1_555 1_555
O17 Sc1 1_555 1_555
O18 Sc2 1_555 1_555
O19 Sc3 1_555 1_555
Sc9 O11 1_555 1_555
O20 Sc2 1_555 1_555
O21 Sc3 1_555 1_555
O22 Sc1 1_555 1_555
O8 Sc3 1_555 1_555
C7 C8 1_555 1_555
C9 O13 1_555 1_555
C3 O5 1_555 1_555
O5 Sc5 1_555 1_555
H2 C4 1_555 1_555
O6 C3 1_555 1_555
Sc7 O6 1_555 1_555
C3 C4 1_555 1_555
C3_2 O17 1_555 1_555
O20 C3_2 1_555 1_555
C3_2 C4_2 1_555 1_555
C1_2 O1_2 1_555 1_555
O1_2 Sc5 1_555 1_555
Sc5 O3_2 1_555 1_555
C2_2 C1_2 1_555 1_555
O2_2 C1_2 1_555 1_555
O3_2 Sc7 1_555 1_555
O4_2 Sc5 1_555 1_555
C5_2 O7_2 1_555 1_555
O7_2 Sc7 1_555 1_555
Sc7 O2_2 1_555 1_555
C6_2 C5_2 1_555 1_555
O8_2 C5_2 1_555 1_555
O9_2 Sc7 1_555 1_555
C9_2 O12_2 1_555 1_555
O12_2 Sc9 1_555 1_555
Sc9 O3_2 1_555 1_555
C10_2 C9_2 1_555 1_555
O13_2 Sc5 1_555 1_555
O14_2 Sc9 1_555 1_555
O8_2 Sc9 1_555 1_555
C9_2 O13_2 1_555 1_555
C7_2 O18 1_555 1_555
O21 C7_2 1_555 1_555
C7_2 C8_2 1_555 1_555
C11_2 O19 1_555 1_555
O22 C11_2 1_555 1_555
C11_2 C12_2 1_555 1_555

#END
