
###############################################################################
#
# This file contains modified crystal structure data generated from the
# MOF subset of the Cambridge Structural Database (CSD) v543 
# hosted by the Cambridge Crystallographic Data Centre (CCDC).
#
# This work is licensed under the Creative Commons
# Attribution-NonCommercial-ShareAlike 4.0 International License.
# To view a copy of this license, visit
# http://creativecommons.org/licenses/by-nc-sa/4.0/
# or send a letter to
# Creative Commons, PO Box 1866, Mountain View, CA 94042, USA.
#
# CIF created using the CSD Python API on 29 September 2022
# The structure has been converted into the P1 space group
# The structure has a 3D framework
# The original CSD entry SAYPUH is in the orthorhombic crystal system
# The framework has been calculated to contain at least 10.0% void space
# The void calculation uses a probe of radius 1.32A, grid spacing 0.4
#
###############################################################################

data_SAYPUH
_chemical_formula_moiety         '(C72 H144 N32 O52 Zn8)n'
_symmetry_cell_setting           triclinic
_symmetry_space_group_name_H-M   'P 1'
_symmetry_Int_Tables_number      1
_space_group_name_Hall           'P 1'
loop_
_symmetry_equiv_pos_site_id
_symmetry_equiv_pos_as_xyz
1 x,y,z
_cell_length_a                   14.2758(7)
_cell_length_b                   12.6773(5)
_cell_length_c                   18.9102(6)
_cell_angle_alpha                90
_cell_angle_beta                 90
_cell_angle_gamma                90
_cell_volume                     3422.34
loop_
_atom_site_label
_atom_site_type_symbol
_atom_site_fract_x
_atom_site_fract_y
_atom_site_fract_z
Zn5 Zn 0.94069(7) 0.04035(7) 0.57645(6)
Zn1 Zn 0.63730(7) 0.51691(7) 0.67366(6)
Zn2 Zn 0.44069(7) 0.45965(7) 0.57645(6)
O1 O 0.5685(5) 0.5018(6) 0.5875(3)
O2 O 0.6639(5) 0.3946(5) 0.7343(4)
O3 O 0.8995(6) 0.0846(6) 0.6705(4)
O4 O 0.7622(5) 0.5748(6) 0.6597(4)
O5 O 0.8558(6) 0.9347(6) 0.5353(4)
O6 O 0.4292(5) 0.3466(5) 0.5078(3)
O7 O 0.4429(5) 0.3879(5) 0.2285(3)
N1 N 0.7251(6) 0.3164(6) 0.7141(4)
N2 N 0.8375(6) 0.1668(6) 0.6838(4)
N3 N 0.7845(6) 0.6697(6) 0.6272(5)
N4 N 0.8314(5) 0.8419(5) 0.5696(4)
N5 N 0.4314(6) 0.3629(6) 0.4346(4)
N6 N 0.4364(6) 0.3822(6) 0.3022(4)
C1 C 0.7153(11) 0.2282(10) 0.7665(7)
H1 H 0.652613 0.195429 0.761921
H2 H 0.721658 0.256024 0.815143
C2 C 0.7915(11) 0.1454(9) 0.7525(6)
H3 H 0.838620 0.147523 0.790856
H4 H 0.763171 0.074126 0.751786
C3 C 0.8222(10) 0.3549(12) 0.7114(12)
H5 H 0.840346 0.381607 0.758631
H6 H 0.826132 0.414371 0.677583
C4 C 0.8900(9) 0.2696(10) 0.6891(9)
H7 H 0.918054 0.287491 0.642772
H8 H 0.941022 0.263275 0.724278
C5 C 0.6983(11) 0.2721(13) 0.6452(7)
H9 H 0.702076 0.327248 0.608222
H10 H 0.633005 0.245831 0.647055
C6 C 0.7654(10) 0.1807(9) 0.6272(6)
H11 H 0.729159 0.114647 0.621834
H12 H 0.796989 0.195515 0.581614
C7 C 0.8569(8) 0.7249(8) 0.6706(8)
H13 H 0.909660 0.676209 0.679938
H14 H 0.829407 0.745513 0.716641
C8 C 0.8934(9) 0.8230(10) 0.6329(6)
H15 H 0.891407 0.884568 0.665048
H16 H 0.959015 0.812036 0.617596
C9 C 0.8249(9) 0.6489(9) 0.5566(7)
H17 H 0.780640 0.606097 0.528328
H18 H 0.883869 0.608523 0.561707
C10 C 0.8448(8) 0.7540(9) 0.5182(6)
H19 H 0.909721 0.754503 0.499888
H20 H 0.801357 0.762460 0.477759
C11 C 0.7006(7) 0.7412(8) 0.6209(7)
H21 H 0.671293 0.751085 0.667829
H22 H 0.653695 0.709305 0.588801
C12 C 0.7331(8) 0.8482(9) 0.5913(6)
H23 H 0.693799 0.867859 0.550233
H24 H 0.725732 0.903341 0.627975
C13 C 0.4743(11) 0.2672(8) 0.4026(5)
H25 H 0.433919 0.205230 0.411662
H26 H 0.536199 0.253947 0.424455
C14 C 0.4859(11) 0.2828(8) 0.3234(5)
H27 H 0.553187 0.287788 0.311372
H28 H 0.458895 0.221879 0.297729
C15 C 0.4888(7) 0.4569(7) 0.4149(5)
H29 H 0.554462 0.446095 0.430043
H30 H 0.464249 0.520289 0.439208
C16 C 0.4850(8) 0.4731(7) 0.3348(5)
H31 H 0.450968 0.539087 0.323698
H32 H 0.549312 0.478935 0.315592
C17 C 0.3338(8) 0.3783(9) 0.4076(5)
H33 H 0.308348 0.446311 0.424782
H34 H 0.292725 0.320866 0.424835
C18 C 0.3369(8) 0.3778(9) 0.3263(5)
H35 H 0.306736 0.312869 0.308057
H36 H 0.302113 0.439317 0.307560
Zn3 Zn 0.36270(7) 0.48309(7) 0.17366(6)
O8 O 0.3995(6) 0.4154(6) 0.6705(4)
O9 O 0.3558(6) 0.5653(6) 0.5353(4)
O10 O 0.5571(5) 0.6121(5) 0.7285(3)
Zn2_2 Zn 0.55931(7) 0.54035(7) 0.07645(6)
O1_2 O 0.4315(5) 0.4982(6) 0.0875(3)
O2_2 O 0.3361(5) 0.6054(5) 0.2343(4)
O3_2 O 0.1005(6) 0.9154(6) 0.1705(4)
O4_2 O 0.2378(5) 0.4252(6) 0.1597(4)
O5_2 O 0.1442(6) 0.0653(6) 0.0353(4)
O6_2 O 0.5708(5) 0.6534(5) 0.0078(3)
N1_2 N 0.2749(6) 0.6836(6) 0.2141(4)
N2_2 N 0.1625(6) 0.8332(6) 0.1838(4)
N3_2 N 0.2155(6) 0.3303(6) 0.1272(5)
N4_2 N 0.1686(5) 0.1581(5) 0.0696(4)
C1_2 C 0.2847(11) 0.7718(10) 0.2665(7)
H1_2 H 0.347387 0.804571 0.261921
H2_2 H 0.278342 0.743976 0.315143
C2_2 C 0.2085(11) 0.8546(9) 0.2525(6)
H3_2 H 0.161380 0.852477 0.290856
H4_2 H 0.236829 0.925874 0.251786
C3_2 C 0.1778(10) 0.6451(12) 0.2114(12)
H5_2 H 0.159654 0.618393 0.258631
H6_2 H 0.173868 0.585629 0.177583
C4_2 C 0.1100(9) 0.7304(10) 0.1891(9)
H7_2 H 0.081946 0.712509 0.142772
H8_2 H 0.058978 0.736725 0.224278
C5_2 C 0.3017(11) 0.7279(13) 0.1452(7)
H9_2 H 0.297924 0.672752 0.108222
H10_2 H 0.366995 0.754169 0.147055
C6_2 C 0.2346(10) 0.8193(9) 0.1272(6)
H11_2 H 0.270841 0.885353 0.121834
H12_2 H 0.203011 0.804485 0.081614
C7_2 C 0.1431(8) 0.2751(8) 0.1706(8)
H13_2 H 0.090340 0.323791 0.179938
H14_2 H 0.170593 0.254487 0.216641
C8_2 C 0.1066(9) 0.1770(10) 0.1329(6)
H15_2 H 0.108593 0.115432 0.165048
H16_2 H 0.040985 0.187964 0.117596
C9_2 C 0.1751(9) 0.3511(9) 0.0566(7)
H17_2 H 0.219360 0.393903 0.028328
H18_2 H 0.116131 0.391477 0.061707
C10_2 C 0.1552(8) 0.2460(9) 0.0182(6)
C11_2 C 0.2994(7) 0.2588(8) 0.1209(7)
H21_2 H 0.328707 0.248915 0.167829
H22_2 H 0.346305 0.290695 0.088801
C12_2 C 0.2669(8) 0.1518(9) 0.0913(6)
H23_2 H 0.306201 0.132141 0.050233
H24_2 H 0.274268 0.096659 0.127975
Zn4 Zn 0.05931(7) 0.95965(7) 0.07645(6)
O8_2 O 0.6005(6) 0.5846(6) 0.1705(4)
O9_2 O 0.6442(6) 0.4347(6) 0.0353(4)
N5_2 N 0.5686(6) 0.6371(6) 0.9346(4)
N6_2 N 0.5636(6) 0.6178(6) 0.8022(4)
H19_2 H 0.090279 0.245497 0.999888
H20_2 H 0.198643 0.237540 0.977759
C13_2 C 0.5257(11) 0.7328(8) 0.9026(5)
H25_2 H 0.566081 0.794770 0.911662
H26_2 H 0.463801 0.746053 0.924455
C14_2 C 0.5141(11) 0.7172(8) 0.8234(5)
H27_2 H 0.446813 0.712212 0.811372
H28_2 H 0.541105 0.778121 0.797729
C15_2 C 0.5112(7) 0.5431(7) 0.9149(5)
H29_2 H 0.445538 0.553905 0.930043
H30_2 H 0.535751 0.479711 0.939208
C16_2 C 0.5150(8) 0.5269(7) 0.8348(5)
H31_2 H 0.549032 0.460913 0.823698
H32_2 H 0.450688 0.521065 0.815592
C17_2 C 0.6662(8) 0.6217(9) 0.9076(5)
H33_2 H 0.691652 0.553689 0.924782
H34_2 H 0.707275 0.679134 0.924835
C18_2 C 0.6631(8) 0.6222(9) 0.8263(5)
H35_2 H 0.693264 0.687131 0.808057
H36_2 H 0.697887 0.560683 0.807560
O2_3 O 0.1639(5) 0.1054(5) 0.7343(4)
N1_3 N 0.2251(6) 0.1836(6) 0.7141(4)
N2_3 N 0.3375(6) 0.3332(6) 0.6838(4)
C1_3 C 0.2153(11) 0.2718(10) 0.7665(7)
H1_3 H 0.152613 0.304571 0.761921
H2_3 H 0.221658 0.243976 0.815143
C2_3 C 0.2915(11) 0.3546(9) 0.7525(6)
H3_3 H 0.338620 0.352477 0.790856
H4_3 H 0.263171 0.425874 0.751786
C3_3 C 0.3222(10) 0.1451(12) 0.7114(12)
H5_3 H 0.340346 0.118393 0.758631
H6_3 H 0.326132 0.085629 0.677583
C4_3 C 0.3900(9) 0.2304(10) 0.6891(9)
H7_3 H 0.418054 0.212509 0.642772
H8_3 H 0.441022 0.236725 0.724278
C5_3 C 0.1983(11) 0.2279(13) 0.6452(7)
H9_3 H 0.202076 0.172752 0.608222
H10_3 H 0.133005 0.254169 0.647055
C6_3 C 0.2654(10) 0.3193(9) 0.6272(6)
H11_3 H 0.229159 0.385353 0.621834
H12_3 H 0.296989 0.304485 0.581614
H26_3 H 0.036199 0.246053 0.424455
H27_3 H 0.053187 0.212212 0.311372
H29_3 H 0.054462 0.053905 0.430043
H32_3 H 0.049312 0.021065 0.315592
Zn1_2 Zn 0.13730(7) 0.98309(7) 0.67366(6)
O1_3 O 0.0685(5) 0.9982(6) 0.5875(3)
O4_3 O 0.2622(5) 0.9252(6) 0.6597(4)
N3_3 N 0.2845(6) 0.8303(6) 0.6272(5)
N4_3 N 0.3314(5) 0.6581(5) 0.5696(4)
C7_3 C 0.3569(8) 0.7751(8) 0.6706(8)
H13_3 H 0.409660 0.823791 0.679938
H14_3 H 0.329407 0.754487 0.716641
C8_3 C 0.3934(9) 0.6770(10) 0.6329(6)
H15_3 H 0.391407 0.615432 0.665048
H16_3 H 0.459015 0.687964 0.617596
C9_3 C 0.3249(9) 0.8511(9) 0.5566(7)
H17_3 H 0.280640 0.893903 0.528328
H18_3 H 0.383869 0.891477 0.561707
C10_3 C 0.3448(8) 0.7460(9) 0.5182(6)
H19_3 H 0.409721 0.745497 0.499888
H20_3 H 0.301357 0.737540 0.477759
C11_3 C 0.2006(7) 0.7588(8) 0.6209(7)
H21_3 H 0.171293 0.748915 0.667829
H22_3 H 0.153695 0.790695 0.588801
C12_3 C 0.2331(8) 0.6518(9) 0.5913(6)
H23_3 H 0.193799 0.632141 0.550233
H24_3 H 0.225732 0.596659 0.627975
O10_2 O 0.0571(5) 0.8879(5) 0.7285(3)
O6_3 O 0.9292(5) 0.1534(5) 0.5078(3)
O7_2 O 0.9429(5) 0.1121(5) 0.2285(3)
N5_3 N 0.9314(6) 0.1371(6) 0.4346(4)
N6_3 N 0.9364(6) 0.1178(6) 0.3022(4)
C13_3 C 0.9743(11) 0.2328(8) 0.4026(5)
H25_3 H 0.933919 0.294770 0.411662
C14_3 C 0.9859(11) 0.2172(8) 0.3234(5)
H28_3 H 0.958895 0.278121 0.297729
C15_3 C 0.9888(7) 0.0431(7) 0.4149(5)
C16_3 C 0.9850(8) 0.0269(7) 0.3348(5)
C17_3 C 0.8338(8) 0.1217(9) 0.4076(5)
H33_3 H 0.808348 0.053689 0.424782
H34_3 H 0.792725 0.179134 0.424835
C18_3 C 0.8369(8) 0.1222(9) 0.3263(5)
H35_3 H 0.806736 0.187131 0.308057
H36_3 H 0.802113 0.060683 0.307560
Zn3_2 Zn 0.86270(7) 0.01691(7) 0.17366(6)
H30_3 H 0.964249 0.979711 0.439208
H31_3 H 0.950968 0.960913 0.323698
O6_4 O 0.0708(5) 0.8466(5) 0.0078(3)
N5_4 N 0.0686(6) 0.8629(6) 0.9346(4)
N6_4 N 0.0636(6) 0.8822(6) 0.8022(4)
C13_4 C 0.0257(11) 0.7672(8) 0.9026(5)
H25_4 H 0.066081 0.705230 0.911662
C14_4 C 0.0141(11) 0.7828(8) 0.8234(5)
H28_4 H 0.041105 0.721879 0.797729
C15_4 C 0.0112(7) 0.9569(7) 0.9149(5)
C16_4 C 0.0150(8) 0.9731(7) 0.8348(5)
C17_4 C 0.1662(8) 0.8783(9) 0.9076(5)
H33_4 H 0.191652 0.946311 0.924782
H34_4 H 0.207275 0.820866 0.924835
C18_4 C 0.1631(8) 0.8778(9) 0.8263(5)
H35_4 H 0.193264 0.812869 0.808057
H36_4 H 0.197887 0.939317 0.807560
O1_4 O 0.9315(5) 0.0018(6) 0.0875(3)
O4_4 O 0.7378(5) 0.0748(6) 0.1597(4)
N3_4 N 0.7155(6) 0.1697(6) 0.1272(5)
N4_4 N 0.6686(5) 0.3419(5) 0.0696(4)
C7_4 C 0.6431(8) 0.2249(8) 0.1706(8)
H13_4 H 0.590340 0.176209 0.179938
H14_4 H 0.670593 0.245513 0.216641
C8_4 C 0.6066(9) 0.3230(10) 0.1329(6)
H15_4 H 0.608593 0.384568 0.165048
H16_4 H 0.540985 0.312036 0.117596
C9_4 C 0.6751(9) 0.1489(9) 0.0566(7)
H17_4 H 0.719360 0.106097 0.028328
H18_4 H 0.616131 0.108523 0.061707
C10_4 C 0.6552(8) 0.2540(9) 0.0182(6)
C11_4 C 0.7994(7) 0.2412(8) 0.1209(7)
H21_4 H 0.828707 0.251085 0.167829
H22_4 H 0.846305 0.209305 0.088801
C12_4 C 0.7669(8) 0.3482(9) 0.0913(6)
H23_4 H 0.806201 0.367859 0.050233
H24_4 H 0.774268 0.403341 0.127975
O2_4 O 0.8361(5) 0.8946(5) 0.2343(4)
N1_4 N 0.7749(6) 0.8164(6) 0.2141(4)
N2_4 N 0.6625(6) 0.6668(6) 0.1838(4)
C1_4 C 0.7847(11) 0.7282(10) 0.2665(7)
H1_4 H 0.847387 0.695429 0.261921
H2_4 H 0.778342 0.756024 0.315143
C2_4 C 0.7085(11) 0.6454(9) 0.2525(6)
H3_4 H 0.661380 0.647523 0.290856
H4_4 H 0.736829 0.574126 0.251786
C3_4 C 0.6778(10) 0.8549(12) 0.2114(12)
H5_4 H 0.659654 0.881607 0.258631
H6_4 H 0.673868 0.914371 0.177583
C4_4 C 0.6100(9) 0.7696(10) 0.1891(9)
H7_4 H 0.581946 0.787491 0.142772
H8_4 H 0.558978 0.763275 0.224278
C5_4 C 0.8017(11) 0.7721(13) 0.1452(7)
H9_4 H 0.797924 0.827248 0.108222
H10_4 H 0.866995 0.745831 0.147055
C6_4 C 0.7346(10) 0.6807(9) 0.1272(6)
H11_4 H 0.770841 0.614647 0.121834
H12_4 H 0.703011 0.695515 0.081614
H30_4 H 0.035751 0.020289 0.939208
H31_4 H 0.049032 0.039087 0.823698
H19_4 H 0.590279 0.254503 0.999888
H20_4 H 0.698643 0.262460 0.977759
H26_4 H 0.963801 0.753947 0.924455
H27_4 H 0.946813 0.787788 0.811372
H29_4 H 0.945538 0.946095 0.930043
H32_4 H 0.950688 0.978935 0.815592
N7 N 0.5962(9) 0.7194(12) 0.4225(6)
O11 O 0.5476(8) 0.6900(11) 0.3712(6)
O12 O 0.5731(8) 0.6958(10) 0.4834(6)
O13 O 0.6655(8) 0.7764(10) 0.4117(6)
N7_2 N 0.4038(9) 0.2806(12) 0.9225(6)
O11_2 O 0.4524(8) 0.3100(11) 0.8712(6)
O12_2 O 0.4269(8) 0.3042(10) 0.9834(6)
O13_2 O 0.3345(8) 0.2236(10) 0.9117(6)
N7_3 N 0.0962(9) 0.7806(12) 0.4225(6)
O11_3 O 0.0476(8) 0.8100(11) 0.3712(6)
O12_3 O 0.0731(8) 0.8042(10) 0.4834(6)
O13_3 O 0.1655(8) 0.7236(10) 0.4117(6)
N7_4 N 0.9038(9) 0.2194(12) 0.9225(6)
O11_4 O 0.9524(8) 0.1900(11) 0.8712(6)
O12_4 O 0.9269(8) 0.1958(10) 0.9834(6)
O13_4 O 0.8345(8) 0.2764(10) 0.9117(6)
O15 O 0.4819(14) 0.0366(16) 0.6430(15)
O16 O 0.6194(13) 0.0319(16) 0.6888(14)
N8 N 0.5507(15) 0.9847(13) 0.6632(17)
O14 O 0.5451(13) 0.8884(13) 0.6704(14)
N8_2 N 0.4493(15) 0.0153(13) 0.1632(17)
O14_2 O 0.4549(13) 0.1116(13) 0.1704(14)
O15_2 O 0.5181(14) 0.9634(16) 0.1430(15)
O16_2 O 0.3806(13) 0.9681(16) 0.1888(14)
N8_3 N 0.0507(15) 0.5153(13) 0.6632(17)
O14_3 O 0.0451(13) 0.6116(13) 0.6704(14)
O16_3 O 0.1194(13) 0.4681(16) 0.6888(14)
O15_3 O 0.9819(14) 0.4634(16) 0.6430(15)
O15_4 O 0.0181(14) 0.5366(16) 0.1430(15)
N8_4 N 0.9493(15) 0.4847(13) 0.1632(17)
O14_4 O 0.9549(13) 0.3884(13) 0.1704(14)
O16_4 O 0.8806(13) 0.5319(16) 0.1888(14)
loop_
_geom_bond_atom_site_label_1
_geom_bond_atom_site_label_2
_geom_bond_site_symmetry_1
_geom_bond_site_symmetry_2
Zn1 O1 1_555 1_555
Zn2 O1 1_555 1_555
O2 Zn1 1_555 1_555
O3 N2 1_555 1_555
O4 Zn1 1_555 1_555
O5 N4 1_555 1_555
O6 Zn2 1_555 1_555
O7 N6 1_555 1_555
N1 O2 1_555 1_555
N2 C2 1_555 1_555
N3 O4 1_555 1_555
N4 C8 1_555 1_555
N5 O6 1_555 1_555
N6 C14 1_555 1_555
C1 N1 1_555 1_555
H1 C1 1_555 1_555
H2 C1 1_555 1_555
C2 C1 1_555 1_555
H3 C2 1_555 1_555
H4 C2 1_555 1_555
C3 N1 1_555 1_555
H5 C3 1_555 1_555
H6 C3 1_555 1_555
C4 N2 1_555 1_555
H7 C4 1_555 1_555
H8 C4 1_555 1_555
C5 N1 1_555 1_555
H9 C5 1_555 1_555
H10 C5 1_555 1_555
C6 N2 1_555 1_555
H11 C6 1_555 1_555
H12 C6 1_555 1_555
C7 N3 1_555 1_555
H13 C7 1_555 1_555
H14 C7 1_555 1_555
C8 C7 1_555 1_555
H15 C8 1_555 1_555
H16 C8 1_555 1_555
C9 N3 1_555 1_555
H17 C9 1_555 1_555
H18 C9 1_555 1_555
C10 N4 1_555 1_555
H19 C10 1_555 1_555
H20 C10 1_555 1_555
C11 N3 1_555 1_555
H21 C11 1_555 1_555
H22 C11 1_555 1_555
C12 N4 1_555 1_555
H23 C12 1_555 1_555
H24 C12 1_555 1_555
C13 N5 1_555 1_555
H25 C13 1_555 1_555
H26 C13 1_555 1_555
C14 C13 1_555 1_555
H27 C14 1_555 1_555
H28 C14 1_555 1_555
C15 N5 1_555 1_555
H29 C15 1_555 1_555
H30 C15 1_555 1_555
C16 N6 1_555 1_555
H31 C16 1_555 1_555
H32 C16 1_555 1_555
C17 N5 1_555 1_555
H33 C17 1_555 1_555
H34 C17 1_555 1_555
C18 N6 1_555 1_555
H35 C18 1_555 1_555
H36 C18 1_555 1_555
Zn3 O7 1_555 1_555
Zn5 O3 1_555 1_555
O8 Zn2 1_555 1_555
O9 Zn2 1_555 1_555
O10 Zn1 1_555 1_555
C3 C4 1_555 1_555
C5 C6 1_555 1_555
C9 C10 1_555 1_555
C11 C12 1_555 1_555
C15 C16 1_555 1_555
C17 C18 1_555 1_555
Zn3 O1_2 1_555 1_555
Zn2_2 O1_2 1_555 1_555
O2_2 Zn3 1_555 1_555
O3_2 N2_2 1_555 1_555
O4_2 Zn3 1_555 1_555
O5_2 N4_2 1_555 1_555
O6_2 Zn2_2 1_555 1_555
N1_2 O2_2 1_555 1_555
N2_2 C2_2 1_555 1_555
N3_2 O4_2 1_555 1_555
N4_2 C8_2 1_555 1_555
C1_2 N1_2 1_555 1_555
H1_2 C1_2 1_555 1_555
H2_2 C1_2 1_555 1_555
C2_2 C1_2 1_555 1_555
H3_2 C2_2 1_555 1_555
H4_2 C2_2 1_555 1_555
C3_2 N1_2 1_555 1_555
H5_2 C3_2 1_555 1_555
H6_2 C3_2 1_555 1_555
C4_2 N2_2 1_555 1_555
H7_2 C4_2 1_555 1_555
H8_2 C4_2 1_555 1_555
C5_2 N1_2 1_555 1_555
H9_2 C5_2 1_555 1_555
H10_2 C5_2 1_555 1_555
C6_2 N2_2 1_555 1_555
H11_2 C6_2 1_555 1_555
H12_2 C6_2 1_555 1_555
C7_2 N3_2 1_555 1_555
H13_2 C7_2 1_555 1_555
H14_2 C7_2 1_555 1_555
C8_2 C7_2 1_555 1_555
H15_2 C8_2 1_555 1_555
H16_2 C8_2 1_555 1_555
C9_2 N3_2 1_555 1_555
H17_2 C9_2 1_555 1_555
H18_2 C9_2 1_555 1_555
C10_2 N4_2 1_555 1_555
C11_2 N3_2 1_555 1_555
H21_2 C11_2 1_555 1_555
H22_2 C11_2 1_555 1_555
C12_2 N4_2 1_555 1_555
H23_2 C12_2 1_555 1_555
H24_2 C12_2 1_555 1_555
Zn4 O3_2 1_555 1_555
O8_2 Zn2_2 1_555 1_555
O9_2 Zn2_2 1_555 1_555
C3_2 C4_2 1_555 1_555
C5_2 C6_2 1_555 1_555
C9_2 C10_2 1_555 1_555
C11_2 C12_2 1_555 1_555
O10 N6_2 1_555 1_555
N6_2 C14_2 1_555 1_555
C13_2 N5_2 1_555 1_555
H25_2 C13_2 1_555 1_555
H26_2 C13_2 1_555 1_555
C14_2 C13_2 1_555 1_555
H27_2 C14_2 1_555 1_555
H28_2 C14_2 1_555 1_555
C15_2 N5_2 1_555 1_555
H29_2 C15_2 1_555 1_555
H30_2 C15_2 1_555 1_555
C16_2 N6_2 1_555 1_555
H31_2 C16_2 1_555 1_555
H32_2 C16_2 1_555 1_555
C17_2 N5_2 1_555 1_555
H33_2 C17_2 1_555 1_555
H34_2 C17_2 1_555 1_555
C18_2 N6_2 1_555 1_555
H35_2 C18_2 1_555 1_555
H36_2 C18_2 1_555 1_555
C15_2 C16_2 1_555 1_555
C17_2 C18_2 1_555 1_555
O8 N2_3 1_555 1_555
N1_3 O2_3 1_555 1_555
N2_3 C2_3 1_555 1_555
C1_3 N1_3 1_555 1_555
H1_3 C1_3 1_555 1_555
H2_3 C1_3 1_555 1_555
C2_3 C1_3 1_555 1_555
H3_3 C2_3 1_555 1_555
H4_3 C2_3 1_555 1_555
C3_3 N1_3 1_555 1_555
H5_3 C3_3 1_555 1_555
H6_3 C3_3 1_555 1_555
C4_3 N2_3 1_555 1_555
H7_3 C4_3 1_555 1_555
H8_3 C4_3 1_555 1_555
C5_3 N1_3 1_555 1_555
H9_3 C5_3 1_555 1_555
H10_3 C5_3 1_555 1_555
C6_3 N2_3 1_555 1_555
H11_3 C6_3 1_555 1_555
H12_3 C6_3 1_555 1_555
C3_3 C4_3 1_555 1_555
C5_3 C6_3 1_555 1_555
Zn1_2 O1_3 1_555 1_555
O4_3 Zn1_2 1_555 1_555
O9 N4_3 1_555 1_555
N3_3 O4_3 1_555 1_555
N4_3 C8_3 1_555 1_555
C7_3 N3_3 1_555 1_555
H13_3 C7_3 1_555 1_555
H14_3 C7_3 1_555 1_555
C8_3 C7_3 1_555 1_555
H15_3 C8_3 1_555 1_555
H16_3 C8_3 1_555 1_555
C9_3 N3_3 1_555 1_555
H17_3 C9_3 1_555 1_555
H18_3 C9_3 1_555 1_555
C10_3 N4_3 1_555 1_555
H19_3 C10_3 1_555 1_555
H20_3 C10_3 1_555 1_555
C11_3 N3_3 1_555 1_555
H21_3 C11_3 1_555 1_555
H22_3 C11_3 1_555 1_555
C12_3 N4_3 1_555 1_555
H23_3 C12_3 1_555 1_555
H24_3 C12_3 1_555 1_555
O10_2 Zn1_2 1_555 1_555
C9_3 C10_3 1_555 1_555
C11_3 C12_3 1_555 1_555
O6_3 Zn5 1_555 1_555
O7_2 N6_3 1_555 1_555
N5_3 O6_3 1_555 1_555
N6_3 C14_3 1_555 1_555
C13_3 N5_3 1_555 1_555
H25_3 C13_3 1_555 1_555
C14_3 C13_3 1_555 1_555
H28_3 C14_3 1_555 1_555
C15_3 N5_3 1_555 1_555
C16_3 N6_3 1_555 1_555
C17_3 N5_3 1_555 1_555
H33_3 C17_3 1_555 1_555
H34_3 C17_3 1_555 1_555
C18_3 N6_3 1_555 1_555
H35_3 C18_3 1_555 1_555
H36_3 C18_3 1_555 1_555
Zn3_2 O7_2 1_555 1_555
C15_3 C16_3 1_555 1_555
C17_3 C18_3 1_555 1_555
O6_4 Zn4 1_555 1_555
O10_2 N6_4 1_555 1_555
N6_4 C14_4 1_555 1_555
C13_4 N5_4 1_555 1_555
H25_4 C13_4 1_555 1_555
C14_4 C13_4 1_555 1_555
H28_4 C14_4 1_555 1_555
C15_4 N5_4 1_555 1_555
C16_4 N6_4 1_555 1_555
C17_4 N5_4 1_555 1_555
H33_4 C17_4 1_555 1_555
H34_4 C17_4 1_555 1_555
C18_4 N6_4 1_555 1_555
H35_4 C18_4 1_555 1_555
H36_4 C18_4 1_555 1_555
C15_4 C16_4 1_555 1_555
C17_4 C18_4 1_555 1_555
Zn3_2 O1_4 1_555 1_555
O4_4 Zn3_2 1_555 1_555
O9_2 N4_4 1_555 1_555
N3_4 O4_4 1_555 1_555
N4_4 C8_4 1_555 1_555
C7_4 N3_4 1_555 1_555
H13_4 C7_4 1_555 1_555
H14_4 C7_4 1_555 1_555
C8_4 C7_4 1_555 1_555
H15_4 C8_4 1_555 1_555
H16_4 C8_4 1_555 1_555
C9_4 N3_4 1_555 1_555
H17_4 C9_4 1_555 1_555
H18_4 C9_4 1_555 1_555
C10_4 N4_4 1_555 1_555
C11_4 N3_4 1_555 1_555
H21_4 C11_4 1_555 1_555
H22_4 C11_4 1_555 1_555
C12_4 N4_4 1_555 1_555
H23_4 C12_4 1_555 1_555
H24_4 C12_4 1_555 1_555
C9_4 C10_4 1_555 1_555
C11_4 C12_4 1_555 1_555
O8_2 N2_4 1_555 1_555
N1_4 O2_4 1_555 1_555
N2_4 C2_4 1_555 1_555
C1_4 N1_4 1_555 1_555
H1_4 C1_4 1_555 1_555
H2_4 C1_4 1_555 1_555
C2_4 C1_4 1_555 1_555
H3_4 C2_4 1_555 1_555
H4_4 C2_4 1_555 1_555
C3_4 N1_4 1_555 1_555
H5_4 C3_4 1_555 1_555
H6_4 C3_4 1_555 1_555
C4_4 N2_4 1_555 1_555
H7_4 C4_4 1_555 1_555
H8_4 C4_4 1_555 1_555
C5_4 N1_4 1_555 1_555
H9_4 C5_4 1_555 1_555
H10_4 C5_4 1_555 1_555
C6_4 N2_4 1_555 1_555
H11_4 C6_4 1_555 1_555
H12_4 C6_4 1_555 1_555
C3_4 C4_4 1_555 1_555
C5_4 C6_4 1_555 1_555
N7 O11 1_555 1_555
O12 N7 1_555 1_555
O13 N7 1_555 1_555
N7_2 O11_2 1_555 1_555
O12_2 N7_2 1_555 1_555
O13_2 N7_2 1_555 1_555
N7_3 O11_3 1_555 1_555
O12_3 N7_3 1_555 1_555
O13_3 N7_3 1_555 1_555
N7_4 O11_4 1_555 1_555
O12_4 N7_4 1_555 1_555
O13_4 N7_4 1_555 1_555
N8 O14 1_555 1_555
N8_2 O14_2 1_555 1_555
N8_3 O14_3 1_555 1_555
O16_3 N8_3 1_555 1_555
N8_4 O14_4 1_555 1_555
O16_4 N8_4 1_555 1_555

#END
