
###############################################################################
#
# This file contains modified crystal structure data generated from the
# MOF subset of the Cambridge Structural Database (CSD) v543 
# hosted by the Cambridge Crystallographic Data Centre (CCDC).
#
# This work is licensed under the Creative Commons
# Attribution-NonCommercial-ShareAlike 4.0 International License.
# To view a copy of this license, visit
# http://creativecommons.org/licenses/by-nc-sa/4.0/
# or send a letter to
# Creative Commons, PO Box 1866, Mountain View, CA 94042, USA.
#
# CIF created using the CSD Python API on 29 September 2022
# The structure has been converted into the P1 space group
# The structure has a 3D framework
# The original CSD entry SAYXOI is in the triclinic crystal system
# The framework has been calculated to contain at least 10.0% void space
# The void calculation uses a probe of radius 1.32A, grid spacing 0.4
#
###############################################################################

data_SAYXOI
_chemical_formula_moiety         '(C28 H22 Br4 Co1 N4 O6)n'
_symmetry_cell_setting           triclinic
_symmetry_space_group_name_H-M   'P 1'
_symmetry_Int_Tables_number      1
_space_group_name_Hall           'P 1'
loop_
_symmetry_equiv_pos_site_id
_symmetry_equiv_pos_as_xyz
1 x,y,z
_cell_length_a                   9.496(3)
_cell_length_b                   9.626(3)
_cell_length_c                   10.958(3)
_cell_angle_alpha                81.564(5)
_cell_angle_beta                 69.191(5)
_cell_angle_gamma                68.992(5)
_cell_volume                     873.865
loop_
_atom_site_label
_atom_site_type_symbol
_atom_site_fract_x
_atom_site_fract_y
_atom_site_fract_z
H3 H 0.0966 0.0378 0.3503
H7 H 0.3644 0.0578 0.2136
C15 C 0.8874(17) 0.0519(13) 0.6889(15)
H12 H 0.9776 0.0850 0.6459
H13 H 0.8761 0.0329 0.7797
C16 C 0.7432(13) 0.1668(13) 0.6755(10)
C17 C 0.5718(14) 0.3665(14) 0.6280(11)
H15 H 0.5283 0.4611 0.5956
C18 C 0.4870(13) 0.2800(15) 0.6943(12)
H16 H 0.3777 0.3007 0.7150
C19 C 0.5509(18) 0.0363(15) 0.8132(12)
H17 H 0.4548 0.0295 0.8058
C20 C 0.5220(18) 0.0613(14) 0.9566(11)
H19 H 0.4368 0.1549 0.9842
H20 H 0.6179 0.0678 0.9647
N3 N 0.5942(11) 0.1537(11) 0.7258(9)
N4 N 0.7325(10) 0.2999(10) 0.6124(8)
Co7 Co 0.89717(16) 0.40230(14) 0.53924(13)
C25 C 0.9861(14) 0.5194(12) 0.2692(10)
C26 C 0.9867(12) 0.5146(12) 0.1293(10)
C27 C 0.9765(13) 0.6365(11) 0.0432(10)
O7 O 0.9086(11) 0.4402(10) 0.3484(8)
Br4 Br 0.92939(19) 0.83177(14) 0.09515(13)
C7 C 0.7534(12) 0.7340(12) 0.5413(10)
C8 C 0.6181(11) 0.8713(12) 0.5271(11)
C9 C 0.4510(15) 0.8986(13) 0.5899(10)
O1 O 0.8869(8) 0.7542(9) 0.5172(8)
O3 O 0.7267(9) 0.6138(9) 0.5680(9)
O4 O 0.9327(9) 0.4150(9) 0.7092(8)
Br1 Br 0.37464(16) 0.76987(14) 0.72784(14)
C24 C 0.6586(11) 0.9769(11) 0.4364(11)
H21 H 0.7661 0.9621 0.3912
C28 C 0.9910(12) 0.6213(13) 0.9171(10)
H22 H 0.9858 0.7039 0.8607
C14 C 0.0090(12) 0.3787(13) 0.0829(10)
H11 H 0.0142 0.2961 0.1393
O8 O 0.0673(9) 0.5850(9) 0.2908(8)
Co4 Co 0.10283(16) 0.59770(14) 0.46076(13)
C1 C 0.1126(17) 0.9481(13) 0.3111(15)
H1 H 0.0224 0.9150 0.3541
H2 H 0.1239 0.9671 0.2203
C2 C 0.2568(13) 0.8332(13) 0.3245(10)
C3 C 0.4282(14) 0.6335(14) 0.3720(11)
H4 H 0.4717 0.5389 0.4044
C4 C 0.5130(13) 0.7200(15) 0.3057(12)
H5 H 0.6223 0.6993 0.2850
C5 C 0.4491(18) 0.9637(15) 0.1868(12)
H6 H 0.5452 0.9705 0.1942
C6 C 0.4780(18) 0.9387(14) 0.0434(11)
H8 H 0.5632 0.8451 0.0158
H9 H 0.3821 0.9322 0.0353
C11 C 0.0139(14) 0.4806(12) 0.7308(10)
C12 C 0.0133(12) 0.4854(12) 0.8707(10)
C13 C 0.0235(13) 0.3635(11) 0.9568(10)
O2 O 0.0914(11) 0.5598(10) 0.6516(8)
N1 N 0.4058(11) 0.8463(11) 0.2742(9)
N2 N 0.2675(10) 0.7001(10) 0.3876(8)
Br2 Br 0.07061(19) 0.16823(14) 0.90485(13)
O11 O 0.2733(9) 0.3862(9) 0.4320(9)
C10 C 0.3414(11) 0.0231(11) 0.5636(11)
H10 H 0.2339 0.0379 0.6088
C21 C 0.2466(12) 0.2660(12) 0.4587(10)
C22 C 0.3819(11) 0.1287(12) 0.4729(11)
C23 C 0.5490(15) 0.1014(13) 0.4101(10)
O5 O 0.1131(8) 0.2458(9) 0.4828(8)
Br3 Br 0.62536(16) 0.23013(14) 0.27216(14)
H14 H 0.9034 0.9622 0.6497
H18 H 0.6356 0.9422 0.7864
loop_
_geom_bond_atom_site_label_1
_geom_bond_atom_site_label_2
_geom_bond_site_symmetry_1
_geom_bond_site_symmetry_2
C15 H12 1_555 1_555
H13 C15 1_555 1_555
C16 C15 1_555 1_555
C17 H15 1_555 1_555
C18 C17 1_555 1_555
H16 C18 1_555 1_555
C19 H17 1_555 1_555
H19 C20 1_555 1_555
H20 C20 1_555 1_555
N3 C16 1_555 1_555
N4 C16 1_555 1_555
Co7 N4 1_555 1_555
C17 N4 1_555 1_555
C18 N3 1_555 1_555
C19 C20 1_555 1_555
C19 N3 1_555 1_555
C25 C26 1_555 1_555
C27 C26 1_555 1_555
O7 C25 1_555 1_555
Br4 C27 1_555 1_555
Co7 O7 1_555 1_555
C7 C8 1_555 1_555
C8 C9 1_555 1_555
O1 C7 1_555 1_555
O3 C7 1_555 1_555
Br1 C9 1_555 1_555
C24 C8 1_555 1_555
H21 C24 1_555 1_555
H22 C28 1_555 1_555
Co7 O3 1_555 1_555
O4 Co7 1_555 1_555
C14 H11 1_555 1_555
Co4 O8 1_555 1_555
C1 H1 1_555 1_555
H2 C1 1_555 1_555
C2 C1 1_555 1_555
C3 H4 1_555 1_555
C4 C3 1_555 1_555
H5 C4 1_555 1_555
C5 H6 1_555 1_555
C6 C5 1_555 1_555
H8 C6 1_555 1_555
H9 C6 1_555 1_555
C11 C12 1_555 1_555
C12 C13 1_555 1_555
O2 Co4 1_555 1_555
N1 C2 1_555 1_555
N2 Co4 1_555 1_555
Br2 C13 1_555 1_555
O11 Co4 1_555 1_555
C2 N2 1_555 1_555
C3 N2 1_555 1_555
C4 N1 1_555 1_555
C5 N1 1_555 1_555
C11 O2 1_555 1_555
C10 H10 1_555 1_555
C21 C22 1_555 1_555
C22 C10 1_555 1_555
C23 C22 1_555 1_555
O5 C21 1_555 1_555
O11 C21 1_555 1_555
Br3 C23 1_555 1_555

#END
