
###############################################################################
#
# This file contains modified crystal structure data generated from the
# MOF subset of the Cambridge Structural Database (CSD) v543 
# hosted by the Cambridge Crystallographic Data Centre (CCDC).
#
# This work is licensed under the Creative Commons
# Attribution-NonCommercial-ShareAlike 4.0 International License.
# To view a copy of this license, visit
# http://creativecommons.org/licenses/by-nc-sa/4.0/
# or send a letter to
# Creative Commons, PO Box 1866, Mountain View, CA 94042, USA.
#
# CIF created using the CSD Python API on 29 September 2022
# The structure has been converted into the P1 space group
# The structure has a 3D framework
# The original CSD entry SAZQUI is in the monoclinic crystal system
# The framework has been calculated to contain at least 10.0% void space
# The void calculation uses a probe of radius 1.32A, grid spacing 0.4
# H atom positions have been added when not included in the experimental data
#
###############################################################################

data_SAZQUI
_chemical_formula_moiety         '(C16 H10 Cu10 N44 O2)n'
_symmetry_cell_setting           triclinic
_symmetry_space_group_name_H-M   'P 1'
_symmetry_Int_Tables_number      1
_space_group_name_Hall           'P 1'
loop_
_symmetry_equiv_pos_site_id
_symmetry_equiv_pos_as_xyz
1 x,y,z
_cell_length_a                   8.6924(18)
_cell_length_b                   8.5606(17)
_cell_length_c                   12.798(3)
_cell_angle_alpha                90
_cell_angle_beta                 90.075(4)
_cell_angle_gamma                90
_cell_volume                     952.326
loop_
_atom_site_label
_atom_site_type_symbol
_atom_site_fract_x
_atom_site_fract_y
_atom_site_fract_z
Cu1 Cu 0.0000 -0.0000 0.5000
N10 N 0.0831(4) 0.3687(4) 0.2064(3)
N11 N 0.0185(4) 0.2950(4) 0.2881(3)
O2 O 0.1585(3) 0.1560(3) 0.4532(2)
H3 H 0.127(3) 0.215(3) 0.408(2)
H4 H 0.209(4) 0.194(3) 0.5001(16)
Cu5 Cu 0.0000 0.5000 0.0000
Cu9 Cu 0.64002(6) 0.04042(6) 0.62177(4)
H6 H 0.298884 0.00917756 0.546763
Cu5_2 Cu 0.0000 0.5000 1.0000
N23 N 0.3337(4) 0.5996(4) 0.0259(3)
Cu1_2 Cu 0.0000 1.0000 0.5000
Cu3 Cu 0.35998(6) 0.54042(6) 0.87823(4)
N12 N 0.2084(4) 0.8330(4) 0.5661(3)
N13 N 0.3337(4) 0.9004(4) 0.5259(3)
N14 N 0.4482(4) 0.9000(4) 0.5947(2)
N15 N 0.6197(4) 0.9343(4) 0.7602(3)
N16 N 0.7060(4) 0.9145(4) 0.8465(3)
N17 N 0.6427(4) 0.8053(4) 0.9027(3)
N18 N 0.5132(4) 0.7496(4) 0.8544(3)
N19 N 0.1649(4) 0.6451(4) 0.8244(2)
N20 N 0.0260(4) 0.5975(4) 0.8601(3)
C5 C 0.5045(5) 0.8318(5) 0.7681(3)
C6 C 0.3961(5) 0.8285(5) 0.6815(3)
C7 C 0.2454(5) 0.7867(5) 0.6642(3)
C8 C 0.1318(5) 0.7122(5) 0.7323(3)
Cu7 Cu 0.35998(6) 0.95958(6) 0.37823(4)
O3 O 0.1585(3) 0.3440(3) 0.9532(2)
N26 N 0.5518(4) 0.4000(4) 0.9053(2)
N28 N 0.3803(4) 0.4343(4) 0.7398(3)
N29 N 0.0260(4) 0.9025(4) 0.3601(3)
Cu1_3 Cu 1.0000 -0.0000 0.5000
Cu2 Cu 0.64002(6) 0.45958(6) 0.12177(4)
N1 N 0.7916(4) 0.1670(4) 0.4339(3)
N2 N 0.6663(4) 0.0996(4) 0.4741(3)
N3 N 0.5518(4) 0.1000(4) 0.4053(2)
N4 N 0.3803(4) 0.0657(4) 0.2398(3)
N5 N 0.2940(4) 0.0855(4) 0.1535(3)
N6 N 0.3573(4) 0.1947(4) 0.0973(3)
N7 N 0.4868(4) 0.2504(4) 0.1456(3)
N8 N 0.8351(4) 0.3549(4) 0.1756(2)
N9 N 0.9740(4) 0.4025(4) 0.1399(3)
C1 C 0.4955(5) 0.1682(5) 0.2319(3)
C2 C 0.6039(5) 0.1715(5) 0.3185(3)
C3 C 0.7546(5) 0.2133(5) 0.3358(3)
C4 C 0.8682(5) 0.2878(5) 0.2677(3)
Cu5_3 Cu 1.0000 0.5000 0.0000
O4 O 0.8415(3) 0.6560(3) 0.0468(2)
N25 N 0.4482(4) 0.6000(4) 0.0947(2)
N27 N 0.6197(4) 0.5657(4) 0.2602(3)
N30 N 0.9740(4) 0.0975(4) 0.6399(3)
Cu5_4 Cu 1.0000 0.5000 1.0000
N24 N 0.6663(4) 0.4004(4) 0.9741(3)
Cu1_4 Cu 1.0000 1.0000 0.5000
O1 O 0.8415(3) 0.8440(3) 0.5468(2)
H1 H 0.873(3) 0.785(3) 0.592(2)
H2 H 0.791(4) 0.806(3) 0.4999(16)
N21 N 0.9169(4) 0.6313(4) 0.7936(3)
N22 N 0.9815(4) 0.7050(4) 0.7119(3)
H5 H 0.701116 0.990822 0.453237
H2_2 H 0.209(4) 0.306(3) 0.0001(16)
N1_2 N 0.2084(4) 0.6670(4) 0.0661(3)
N5_2 N 0.7060(4) 0.5855(4) 0.3465(3)
N6_2 N 0.6427(4) 0.6947(4) 0.4027(3)
N7_2 N 0.5132(4) 0.7504(4) 0.3544(3)
N8_2 N 0.1649(4) 0.8549(4) 0.3244(2)
C1_2 C 0.5045(5) 0.6682(5) 0.2681(3)
C2_2 C 0.3961(5) 0.6715(5) 0.1815(3)
C3_2 C 0.2454(5) 0.7133(5) 0.1642(3)
C4_2 C 0.1318(5) 0.7878(5) 0.2323(3)
H5_2 H 0.298884 0.490822 0.0467629
H1_2 H 0.127(3) 0.285(3) 0.908(2)
N21_2 N 0.0831(4) 0.1313(4) 0.7064(3)
N22_2 N 0.0185(4) 0.2050(4) 0.7881(3)
N10_2 N 0.9169(4) 0.8687(4) 0.2936(3)
N11_2 N 0.9815(4) 0.7950(4) 0.2119(3)
H3_2 H 0.873(3) 0.715(3) 0.092(2)
H4_2 H 0.791(4) 0.694(3) 0.9999(16)
N12_2 N 0.7916(4) 0.3330(4) 0.9339(3)
N16_2 N 0.2940(4) 0.4145(4) 0.6535(3)
N17_2 N 0.3573(4) 0.3053(4) 0.5973(3)
N18_2 N 0.4868(4) 0.2496(4) 0.6456(3)
N19_2 N 0.8351(4) 0.1451(4) 0.6756(2)
C5_2 C 0.4955(5) 0.3318(5) 0.7319(3)
C6_2 C 0.6039(5) 0.3285(5) 0.8185(3)
C7_2 C 0.7546(5) 0.2867(5) 0.8358(3)
C8_2 C 0.8682(5) 0.2122(5) 0.7677(3)
H6_2 H 0.701116 0.509178 0.953237
loop_
_geom_bond_atom_site_label_1
_geom_bond_atom_site_label_2
_geom_bond_site_symmetry_1
_geom_bond_site_symmetry_2
N11 N10 1_555 1_555
O2 Cu1 1_555 1_555
H3 O2 1_555 1_555
H4 O2 1_555 1_555
Cu3 N18 1_555 1_555
N12 Cu1_2 1_555 1_555
N13 N12 1_555 1_555
N14 N13 1_555 1_555
N15 N16 1_555 1_555
N16 N17 1_555 1_555
N17 N18 1_555 1_555
N18 C5 1_555 1_555
N19 Cu3 1_555 1_555
N20 N19 1_555 1_555
C5 N15 1_555 1_555
C6 N14 1_555 1_555
C7 N12 1_555 1_555
C8 N19 1_555 1_555
Cu5_2 N20 1_555 1_555
O3 Cu3 1_555 1_555
N26 Cu3 1_555 1_555
N28 Cu3 1_555 1_555
N29 Cu1_2 1_555 1_555
N13 Cu7 1_555 1_555
C5 C6 1_555 1_555
C6 C7 1_555 1_555
C7 C8 1_555 1_555
Cu5_2 O3 1_555 1_555
Cu2 N7 1_555 1_555
N1 Cu1_3 1_555 1_555
N2 N1 1_555 1_555
N3 N2 1_555 1_555
N4 N5 1_555 1_555
N5 N6 1_555 1_555
N6 N7 1_555 1_555
N7 C1 1_555 1_555
N8 Cu2 1_555 1_555
N9 N8 1_555 1_555
C1 N4 1_555 1_555
C2 N3 1_555 1_555
C3 N1 1_555 1_555
C4 N8 1_555 1_555
Cu5_3 N9 1_555 1_555
O4 Cu2 1_555 1_555
N25 Cu2 1_555 1_555
N27 Cu2 1_555 1_555
N30 Cu1_3 1_555 1_555
N2 Cu9 1_555 1_555
C1 C2 1_555 1_555
C2 C3 1_555 1_555
C3 C4 1_555 1_555
Cu5_3 O4 1_555 1_555
Cu1_4 O1 1_555 1_555
O1 H1 1_555 1_555
H2 O1 1_555 1_555
N22 N21 1_555 1_555
Cu7 N7_2 1_555 1_555
N1_2 Cu5 1_555 1_555
N23 N1_2 1_555 1_555
N25 N23 1_555 1_555
N27 N5_2 1_555 1_555
N5_2 N6_2 1_555 1_555
N6_2 N7_2 1_555 1_555
N7_2 C1_2 1_555 1_555
N8_2 Cu7 1_555 1_555
N29 N8_2 1_555 1_555
C1_2 N27 1_555 1_555
C2_2 N25 1_555 1_555
C3_2 N1_2 1_555 1_555
C4_2 N8_2 1_555 1_555
C1_2 C2_2 1_555 1_555
C2_2 C3_2 1_555 1_555
C3_2 C4_2 1_555 1_555
N23 H5_2 1_555 1_555
O3 H1_2 1_555 1_555
N22_2 N21_2 1_555 1_555
N11_2 N10_2 1_555 1_555
H3_2 O4 1_555 1_555
Cu9 N18_2 1_555 1_555
N12_2 Cu5_4 1_555 1_555
N24 N12_2 1_555 1_555
N26 N24 1_555 1_555
N28 N16_2 1_555 1_555
N16_2 N17_2 1_555 1_555
N17_2 N18_2 1_555 1_555
N18_2 C5_2 1_555 1_555
N19_2 Cu9 1_555 1_555
N30 N19_2 1_555 1_555
C5_2 N28 1_555 1_555
C6_2 N26 1_555 1_555
C7_2 N12_2 1_555 1_555
C8_2 N19_2 1_555 1_555
C5_2 C6_2 1_555 1_555
C6_2 C7_2 1_555 1_555
C7_2 C8_2 1_555 1_555
N24 H6_2 1_555 1_555

#END
