
###############################################################################
#
# This file contains modified crystal structure data generated from the
# MOF subset of the Cambridge Structural Database (CSD) v543 
# hosted by the Cambridge Crystallographic Data Centre (CCDC).
#
# This work is licensed under the Creative Commons
# Attribution-NonCommercial-ShareAlike 4.0 International License.
# To view a copy of this license, visit
# http://creativecommons.org/licenses/by-nc-sa/4.0/
# or send a letter to
# Creative Commons, PO Box 1866, Mountain View, CA 94042, USA.
#
# CIF created using the CSD Python API on 29 September 2022
# The structure has been converted into the P1 space group
# The structure has a 3D framework
# The original CSD entry SEBZOS is in the triclinic crystal system
# The framework has been calculated to contain at least 10.0% void space
# The void calculation uses a probe of radius 1.32A, grid spacing 0.4
#
###############################################################################

data_SEBZOS
_chemical_formula_moiety         '(C30 H24 Co2 N4 O24 Pr2)n'
_symmetry_cell_setting           triclinic
_symmetry_space_group_name_H-M   'P 1'
_symmetry_Int_Tables_number      1
_space_group_name_Hall           'P 1'
loop_
_symmetry_equiv_pos_site_id
_symmetry_equiv_pos_as_xyz
1 x,y,z
_cell_length_a                   10.045(3)
_cell_length_b                   10.766(3)
_cell_length_c                   10.969(3)
_cell_angle_alpha                80.380(4)
_cell_angle_beta                 72.849(4)
_cell_angle_gamma                74.269(4)
_cell_volume                     1086.12
loop_
_atom_site_label
_atom_site_type_symbol
_atom_site_fract_x
_atom_site_fract_y
_atom_site_fract_z
_atom_site_U_iso_or_equiv
_atom_site_thermal_displace_type
O27 O 0.0022(3) 0.1434(2) 0.0610(2) 0.0374 Uani
H21 H 0.0874 0.1174 0.0158 0.0450 Uiso
C27 C 0.0091(3) 0.1627(3) 0.5730(3) 0.0180 Uani
C28 C 0.0781(4) 0.2811(3) 0.3681(3) 0.0305 Uani
C29 C 0.0347(3) 0.1145(3) 0.7034(3) 0.0155 Uani
C30 C 0.1033(4) 0.2292(3) 0.4851(3) 0.0271 Uani
H23 H 0.147(5) 0.324(5) 0.305(5) 0.0590 Uiso
O32 O 0.1167(2) 0.0069(2) 0.71957(19) 0.0246 Uani
H24 H 0.191(4) 0.234(4) 0.505(4) 0.0330 Uiso
O25 O 0.0458(2) 0.3899(2) 0.8864(2) 0.0269 Uani
Co4 Co 0.29090(4) 0.86910(4) 0.61733(4) 0.0175 Uani
H6 H 0.3769 0.0614 0.6610 0.0460 Uiso
Pr1 Pr 0.176701(14) 0.695198(12) 0.036066(12) 0.0130 Uani
O4 O 0.2727(3) 0.8901(3) 0.0251(3) 0.0378 Uani
O7 O 0.0233(2) 0.8081(2) 0.2127(2) 0.0252 Uani
O8 O 0.3329(2) 0.6504(2) 0.1939(2) 0.0265 Uani
O9 O 0.2438(2) 0.4902(2) 0.1766(2) 0.0287 Uani
H1 H 0.2636 0.9227 0.0934 0.0450 Uiso
C3 C 0.3133(3) 0.5373(3) 0.2272(3) 0.0185 Uani
C5 C 0.3635(3) 0.4610(3) 0.3409(3) 0.0184 Uani
C10 C 0.2810(4) 0.4892(3) 0.4637(3) 0.0288 Uani
H9 H 0.201(5) 0.556(4) 0.470(4) 0.0410 Uiso
C18 C 0.4874(3) 0.3624(3) 0.3302(3) 0.0177 Uani
C21 C 0.5931(3) 0.3306(3) 0.2032(3) 0.0166 Uani
N3 N 0.5262(3) 0.2911(2) 0.4327(2) 0.0208 Uani
C22 C 0.3230(4) 0.4195(3) 0.5693(3) 0.0315 Uani
O18 O 0.7060(2) 0.24103(19) 0.20579(18) 0.0194 Uani
O19 O 0.5726(2) 0.3943(2) 0.10289(18) 0.0225 Uani
Co2 Co 0.70910(4) 0.13090(4) 0.38267(4) 0.0175 Uani
C23 C 0.4458(4) 0.3196(3) 0.5503(3) 0.0275 Uani
H14 H 0.268(4) 0.435(4) 0.656(4) 0.0330 Uiso
N4 N 0.8681(3) 0.1984(2) 0.4233(2) 0.0199 Uani
O22 O 0.6920(2) 0.0592(2) 0.57034(19) 0.0242 Uani
O23 O 0.5841(3) 0.0151(3) 0.3603(2) 0.0386 Uani
H15 H 0.482(4) 0.266(4) 0.621(4) 0.0270 Uiso
O28 O 0.8361(2) 0.4697(2) 0.0925(2) 0.0249 Uani
C24 C 0.8919(3) 0.1480(3) 0.5384(3) 0.0166 Uani
C25 C 0.9587(4) 0.2640(3) 0.3411(3) 0.0249 Uani
C26 C 0.7837(3) 0.0732(3) 0.6221(3) 0.0185 Uani
H16 H 0.4941 0.0442 0.3726 0.0460 Uiso
H19 H 0.689(7) 0.082(6) 0.022(6) 0.0700 Uiso
H20 H 0.9781 0.1144 0.1393 0.0450 Uiso
H22 H 0.943(4) 0.300(4) 0.264(4) 0.0300 Uiso
O30 O 0.7922(3) 0.0294(2) 0.7320(2) 0.0275 Uani
O31 O 0.9767(2) 0.1919(2) 0.7873(2) 0.0252 Uani
Pr5 Pr 0.823299(14) 0.304802(12) 0.963934(12) 0.0130 Uani
O1 O 0.4274(2) 0.6057(2) 0.89711(18) 0.0225 Uani
O2 O 0.2940(2) 0.75897(19) 0.79421(18) 0.0194 Uani
O6 O 0.1639(2) 0.5303(2) 0.9075(2) 0.0249 Uani
C1 C 0.4069(3) 0.6694(3) 0.7968(3) 0.0166 Uani
H2 H 0.311(7) 0.918(6) 0.978(6) 0.0700 Uiso
H3 H 0.0219 0.8856 0.8607 0.0450 Uiso
C4 C 0.5126(3) 0.6376(3) 0.6698(3) 0.0177 Uani
O10 O 0.3080(2) 0.9408(2) 0.42966(19) 0.0242 Uani
O11 O 0.4159(3) 0.9849(3) 0.6397(2) 0.0386 Uani
N1 N 0.1319(3) 0.8016(2) 0.5767(2) 0.0199 Uani
N2 N 0.4738(3) 0.7089(2) 0.5673(2) 0.0208 Uani
C6 C 0.2163(3) 0.9268(3) 0.3779(3) 0.0185 Uani
H5 H 0.5059 0.9558 0.6274 0.0460 Uiso
C7 C 0.0413(4) 0.7360(3) 0.6589(3) 0.0249 Uani
C8 C 0.1081(3) 0.8520(3) 0.4616(3) 0.0166 Uani
C9 C 0.5542(4) 0.6804(3) 0.4497(3) 0.0275 Uani
O13 O 0.2078(3) 0.9706(2) 0.2680(2) 0.0275 Uani
H7 H 0.057(4) 0.700(4) 0.736(4) 0.0300 Uiso
H8 H 0.518(4) 0.734(4) 0.379(4) 0.0270 Uiso
C13 C 0.6770(4) 0.5805(3) 0.4307(3) 0.0315 Uani
H11 H 0.732(4) 0.565(4) 0.344(4) 0.0330 Uiso
C16 C 0.0608(3) 0.4766(3) 0.9403(3) 0.0172 Uani
C17 C 0.6365(3) 0.5390(3) 0.6591(3) 0.0184 Uani
C19 C 0.7190(4) 0.5108(3) 0.5363(3) 0.0288 Uani
C20 C 0.6867(3) 0.4627(3) 0.7728(3) 0.0185 Uani
H13 H 0.799(5) 0.444(4) 0.530(4) 0.0410 Uiso
O16 O 0.6671(2) 0.3496(2) 0.8061(2) 0.0265 Uani
O17 O 0.7562(2) 0.5098(2) 0.8234(2) 0.0287 Uani
O26 O 0.7273(3) 0.1099(3) 0.9749(3) 0.0378 Uani
H18 H 0.7364 0.0773 0.9066 0.0450 Uiso
O24 O 0.8833(2) 0.9931(2) 0.28043(19) 0.0246 Uani
H17 H 0.6231 0.9386 0.3390 0.0460 Uiso
O3 O 0.9542(2) 0.6101(2) 0.1136(2) 0.0269 Uani
C2 C 0.9392(3) 0.5234(3) 0.0597(3) 0.0172 Uani
O5 O 0.9978(3) 0.8566(2) 0.9390(2) 0.0374 Uani
H4 H 0.9126 0.8826 0.9842 0.0450 Uiso
C11 C 0.9219(4) 0.7189(3) 0.6319(3) 0.0305 Uani
C12 C 0.9909(3) 0.8373(3) 0.4270(3) 0.0180 Uani
H10 H 0.853(5) 0.676(5) 0.695(5) 0.0590 Uiso
C14 C 0.8967(4) 0.7708(3) 0.5149(3) 0.0271 Uani
C15 C 0.9653(3) 0.8855(3) 0.2966(3) 0.0155 Uani
H12 H 0.809(4) 0.766(4) 0.495(4) 0.0330 Uiso
loop_
_atom_site_aniso_label
_atom_site_aniso_U_11
_atom_site_aniso_U_22
_atom_site_aniso_U_33
_atom_site_aniso_U_23
_atom_site_aniso_U_13
_atom_site_aniso_U_12
O27 0.0296 0.0445 0.0226 0.0059 -0.0046 0.0086
C27 0.0223 0.0133 0.0174 -0.0045 -0.0063 0.0005
C28 0.04 0.0298 0.0228 0.0061 -0.0049 -0.0187
C29 0.0147 0.0165 0.016 -0.0032 -0.0041 -0.004
C30 0.0316 0.0266 0.0257 -0.0003 -0.0082 -0.0119
O32 0.0294 0.02 0.0202 -0.0021 -0.0089 0.0038
O25 0.0237 0.03 0.029 -0.016 0.0007 -0.0101
Co4 0.018 0.0181 0.01433 0.00015 -0.00605 -9e-05
Pr1 0.0141 0.01204 0.01188 -0.00179 -0.00279 -0.00172
O4 0.0547 0.038 0.0259 -0.0077 -0.0003 -0.028
O7 0.0283 0.0248 0.0209 -0.0106 -0.0061 0.001
O8 0.0309 0.0175 0.0324 0.0019 -0.015 -0.0033
O9 0.0312 0.0265 0.0336 0.0081 -0.0181 -0.0115
C3 0.0148 0.017 0.0182 -0.0001 -0.0014 0.0012
C5 0.0185 0.017 0.0184 -0.0017 -0.0035 -0.0033
C10 0.0266 0.0268 0.0247 -0.0053 -0.0031 0.005
C18 0.0172 0.0187 0.0159 -0.0007 -0.0042 -0.0028
C21 0.0166 0.0176 0.0157 -0.0015 -0.0037 -0.0047
N3 0.0203 0.0239 0.0133 0.0007 -0.0037 0.0004
C22 0.0342 0.0359 0.016 -0.0068 -0.0005 0.0016
O18 0.0175 0.0205 0.015 0.0012 -0.0031 0.0011
O19 0.0195 0.0285 0.0135 0.0035 -0.0039 0.0006
Co2 0.018 0.0181 0.01433 0.00015 -0.00605 -9e-05
C23 0.0306 0.0314 0.0162 -0.0019 -0.0067 -0.0001
N4 0.0259 0.0175 0.0157 -0.0013 -0.0084 -0.0013
O22 0.0238 0.0308 0.0192 0.0037 -0.0087 -0.0085
O23 0.033 0.0496 0.04 -0.0059 -0.0079 -0.0219
O28 0.0208 0.0303 0.0252 -0.012 0.0024 -0.0121
C24 0.0215 0.0123 0.0137 -0.0033 -0.0053 0.0016
C25 0.0358 0.022 0.0159 0.0032 -0.0082 -0.0066
C26 0.0215 0.0165 0.016 -0.0046 -0.0053 0.0003
O30 0.0392 0.0308 0.017 0.0052 -0.0131 -0.0137
O31 0.0283 0.0248 0.0209 -0.0106 -0.0061 0.001
Pr5 0.0141 0.01204 0.01188 -0.00179 -0.00279 -0.00172
O1 0.0195 0.0285 0.0135 0.0035 -0.0039 0.0006
O2 0.0175 0.0205 0.015 0.0012 -0.0031 0.0011
O6 0.0208 0.0303 0.0252 -0.012 0.0024 -0.0121
C1 0.0166 0.0176 0.0157 -0.0015 -0.0037 -0.0047
C4 0.0172 0.0187 0.0159 -0.0007 -0.0042 -0.0028
O10 0.0238 0.0308 0.0192 0.0037 -0.0087 -0.0085
O11 0.033 0.0496 0.04 -0.0059 -0.0079 -0.0219
N1 0.0259 0.0175 0.0157 -0.0013 -0.0084 -0.0013
N2 0.0203 0.0239 0.0133 0.0007 -0.0037 0.0004
C6 0.0215 0.0165 0.016 -0.0046 -0.0053 0.0003
C7 0.0358 0.022 0.0159 0.0032 -0.0082 -0.0066
C8 0.0215 0.0123 0.0137 -0.0033 -0.0053 0.0016
C9 0.0306 0.0314 0.0162 -0.0019 -0.0067 -0.0001
O13 0.0392 0.0308 0.017 0.0052 -0.0131 -0.0137
C13 0.0342 0.0359 0.016 -0.0068 -0.0005 0.0016
C16 0.0176 0.0164 0.0169 -0.0016 -0.0048 -0.0026
C17 0.0185 0.017 0.0184 -0.0017 -0.0035 -0.0033
C19 0.0266 0.0268 0.0247 -0.0053 -0.0031 0.005
C20 0.0148 0.017 0.0182 -0.0001 -0.0014 0.0012
O16 0.0309 0.0175 0.0324 0.0019 -0.015 -0.0033
O17 0.0312 0.0265 0.0336 0.0081 -0.0181 -0.0115
O26 0.0547 0.038 0.0259 -0.0077 -0.0003 -0.028
O24 0.0294 0.02 0.0202 -0.0021 -0.0089 0.0038
O3 0.0237 0.03 0.029 -0.016 0.0007 -0.0101
C2 0.0176 0.0164 0.0169 -0.0016 -0.0048 -0.0026
O5 0.0296 0.0445 0.0226 0.0059 -0.0046 0.0086
C11 0.04 0.0298 0.0228 0.0061 -0.0049 -0.0187
C12 0.0223 0.0133 0.0174 -0.0045 -0.0063 0.0005
C14 0.0316 0.0266 0.0257 -0.0003 -0.0082 -0.0119
C15 0.0147 0.0165 0.016 -0.0032 -0.0041 -0.004
loop_
_geom_bond_atom_site_label_1
_geom_bond_atom_site_label_2
_geom_bond_site_symmetry_1
_geom_bond_site_symmetry_2
H21 O27 1_555 1_555
C29 C27 1_555 1_555
C30 C27 1_555 1_555
H23 C28 1_555 1_555
O32 C29 1_555 1_555
H24 C30 1_555 1_555
C28 C30 1_555 1_555
O4 Pr1 1_555 1_555
O7 Pr1 1_555 1_555
O8 Pr1 1_555 1_555
O9 Pr1 1_555 1_555
H1 O4 1_555 1_555
C3 O8 1_555 1_555
C5 C3 1_555 1_555
C10 C5 1_555 1_555
H9 C10 1_555 1_555
C18 C5 1_555 1_555
C21 C18 1_555 1_555
N3 C18 1_555 1_555
C22 C10 1_555 1_555
O18 C21 1_555 1_555
O19 C21 1_555 1_555
Co2 N3 1_555 1_555
C23 N3 1_555 1_555
H14 C22 1_555 1_555
N4 Co2 1_555 1_555
O22 Co2 1_555 1_555
O23 Co2 1_555 1_555
H15 C23 1_555 1_555
C24 N4 1_555 1_555
C25 N4 1_555 1_555
C26 O22 1_555 1_555
H16 O23 1_555 1_555
H22 C25 1_555 1_555
O30 C26 1_555 1_555
Pr5 O31 1_555 1_555
O9 C3 1_555 1_555
C22 C23 1_555 1_555
O18 Co2 1_555 1_555
C24 C26 1_555 1_555
O1 C1 1_555 1_555
C1 O2 1_555 1_555
Co4 O2 1_555 1_555
C4 C1 1_555 1_555
O10 Co4 1_555 1_555
O11 Co4 1_555 1_555
N1 Co4 1_555 1_555
N2 Co4 1_555 1_555
C6 O10 1_555 1_555
H5 O11 1_555 1_555
C7 N1 1_555 1_555
C8 N1 1_555 1_555
C9 N2 1_555 1_555
O13 C6 1_555 1_555
H7 C7 1_555 1_555
H8 C9 1_555 1_555
C13 C9 1_555 1_555
H11 C13 1_555 1_555
C16 O6 1_555 1_555
O25 C16 1_555 1_555
C17 C4 1_555 1_555
C19 C13 1_555 1_555
C20 C17 1_555 1_555
H13 C19 1_555 1_555
O16 C20 1_555 1_555
O17 C20 1_555 1_555
Pr5 O16 1_555 1_555
O26 Pr5 1_555 1_555
H18 O26 1_555 1_555
C4 N2 1_555 1_555
C6 C8 1_555 1_555
C17 C19 1_555 1_555
O17 Pr5 1_555 1_555
C2 O3 1_555 1_555
O28 C2 1_555 1_555
H4 O5 1_555 1_555
H10 C11 1_555 1_555
C14 C11 1_555 1_555
C15 C12 1_555 1_555
H12 C14 1_555 1_555
O24 C15 1_555 1_555
C12 C14 1_555 1_555

#END
