
###############################################################################
#
# This file contains modified crystal structure data generated from the
# MOF subset of the Cambridge Structural Database (CSD) v543 
# hosted by the Cambridge Crystallographic Data Centre (CCDC).
#
# This work is licensed under the Creative Commons
# Attribution-NonCommercial-ShareAlike 4.0 International License.
# To view a copy of this license, visit
# http://creativecommons.org/licenses/by-nc-sa/4.0/
# or send a letter to
# Creative Commons, PO Box 1866, Mountain View, CA 94042, USA.
#
# CIF created using the CSD Python API on 29 September 2022
# The structure has been converted into the P1 space group
# The structure has a 3D framework
# The original CSD entry SEBZIM is in the triclinic crystal system
# The framework has been calculated to contain at least 10.0% void space
# The void calculation uses a probe of radius 1.32A, grid spacing 0.4
#
###############################################################################

data_SEBZIM
_chemical_formula_moiety         '(C30 H24 Dy2 N4 Ni2 O26)n'
_symmetry_cell_setting           triclinic
_symmetry_space_group_name_H-M   'P 1'
_symmetry_Int_Tables_number      1
_space_group_name_Hall           'P 1'
loop_
_symmetry_equiv_pos_site_id
_symmetry_equiv_pos_as_xyz
1 x,y,z
_cell_length_a                   9.9906(5)
_cell_length_b                   10.5820(5)
_cell_length_c                   10.8216(5)
_cell_angle_alpha                80.6530(10)
_cell_angle_beta                 73.0260(10)
_cell_angle_gamma                74.1230(10)
_cell_volume                     1048.24
loop_
_atom_site_label
_atom_site_type_symbol
_atom_site_fract_x
_atom_site_fract_y
_atom_site_fract_z
_atom_site_U_iso_or_equiv
_atom_site_thermal_displace_type
N3 N 0.0348(3) 0.2910(3) 0.4288(2) 0.0192 Uani
C21 C 0.1004(3) 0.3302(3) 0.1973(3) 0.0157 Uani
Ni2 Ni 0.21382(4) 0.13247(4) 0.37921(4) 0.0164 Uani
O18 O 0.2134(2) 0.2388(2) 0.1998(2) 0.0179 Uani
O19 O 0.0812(2) 0.3962(2) 0.0952(2) 0.0202 Uani
O23 O 0.0835(3) 0.0211(3) 0.3581(3) 0.0343 Uani
N4 N 0.3667(3) 0.2010(2) 0.4210(2) 0.0180 Uani
O24 O 0.1974(2) 0.0518(2) 0.5644(2) 0.0222 Uani
O26 O 0.4998(3) 0.1544(3) 0.0583(2) 0.0330 Uani
O29 O 0.3369(2) 0.4673(2) 0.0935(2) 0.0216 Uani
C24 C 0.4564(4) 0.2685(3) 0.3389(3) 0.0232 Uani
C25 C 0.3905(3) 0.1496(3) 0.5375(3) 0.0157 Uani
C26 C 0.2850(3) 0.0703(3) 0.6198(3) 0.0184 Uani
H18 H 0.5863 0.1302 0.0135 0.0400 Uiso
H19 H 0.4753 0.1237 0.1370 0.0400 Uiso
H20 H 0.1948 0.0826 0.0470 0.0400 Uiso
C27 C 0.5753(4) 0.2869(4) 0.3684(4) 0.0291 Uani
H22 H 0.433(4) 0.309(3) 0.263(4) 0.0190 Uiso
C28 C 0.5069(3) 0.1659(3) 0.5744(3) 0.0177 Uani
O30 O 0.2913(3) 0.0279(2) 0.7323(2) 0.0262 Uani
H23 H 0.639(5) 0.333(5) 0.303(5) 0.0540 Uiso
C29 C 0.6010(4) 0.2342(3) 0.4868(3) 0.0254 Uani
C30 C 0.5321(3) 0.1182(3) 0.7066(3) 0.0152 Uani
H24 H 0.687(4) 0.244(3) 0.508(3) 0.0190 Uiso
O31 O 0.4719(2) 0.1973(2) 0.7911(2) 0.0226 Uani
O32 O 0.6156(2) 0.0081(2) 0.7243(2) 0.0233 Uani
Dy5 Dy 0.326028(14) 0.307948(13) 0.963624(12) 0.0132 Uani
C4 C 0.0063(3) 0.6384(3) 0.6747(3) 0.0165 Uani
H5 H 0.0068 0.9467 0.6289 0.0410 Uiso
C9 C 0.0468(4) 0.6802(4) 0.4524(3) 0.0243 Uani
C13 C 0.1725(4) 0.5813(4) 0.4325(3) 0.0290 Uani
H8 H 0.016(4) 0.727(3) 0.386(4) 0.0190 Uiso
H11 H 0.229(4) 0.565(4) 0.348(4) 0.0320 Uiso
C17 C 0.1330(3) 0.5398(3) 0.6637(3) 0.0172 Uani
C19 C 0.1863(3) 0.4614(3) 0.7780(3) 0.0178 Uani
C20 C 0.2164(4) 0.5118(3) 0.5392(3) 0.0247 Uani
O16 O 0.1710(2) 0.34600(19) 0.80884(19) 0.0132 Uani
O17 O 0.2537(3) 0.5107(2) 0.8317(2) 0.0260 Uani
H13 H 0.298(5) 0.444(4) 0.534(4) 0.0340 Uiso
O27 O 0.5427(2) 0.3924(2) 0.8814(2) 0.0235 Uani
O28 O 0.2356(3) 0.1170(3) 0.9740(2) 0.0337 Uani
H21 H 0.2445 0.0839 0.9047 0.0400 Uiso
O22 O 0.3844(2) 0.9919(2) 0.2757(2) 0.0233 Uani
H17 H 0.1200 0.9428 0.3363 0.0410 Uiso
Ni4 Ni 0.78618(4) 0.86753(4) 0.62079(4) 0.0164 Uani
H6 H 0.8800 0.0572 0.6637 0.0410 Uiso
Dy1 Dy 0.673972(14) 0.692052(13) 0.036376(12) 0.0132 Uani
O1 O 0.4573(2) 0.6076(2) 0.1186(2) 0.0235 Uani
O5 O 0.7644(3) 0.8830(3) 0.0260(2) 0.0337 Uani
O7 O 0.5281(2) 0.8027(2) 0.2089(2) 0.0226 Uani
O8 O 0.8290(2) 0.65400(19) 0.19116(19) 0.0132 Uani
O9 O 0.7463(3) 0.4893(2) 0.1683(2) 0.0260 Uani
C1 C 0.4407(3) 0.5222(3) 0.0615(3) 0.0156 Uani
H4 H 0.7555 0.9161 0.0953 0.0400 Uiso
C3 C 0.8137(3) 0.5386(3) 0.2220(3) 0.0178 Uani
C5 C 0.8670(3) 0.4602(3) 0.3363(3) 0.0172 Uani
C10 C 0.7836(4) 0.4882(3) 0.4608(3) 0.0247 Uani
H9 H 0.702(5) 0.556(4) 0.466(4) 0.0340 Uiso
C18 C 0.9937(3) 0.3616(3) 0.3253(3) 0.0165 Uani
C22 C 0.8275(4) 0.4187(4) 0.5675(3) 0.0290 Uani
C23 C 0.9532(4) 0.3198(4) 0.5476(3) 0.0243 Uani
H14 H 0.771(4) 0.435(4) 0.652(4) 0.0320 Uiso
H15 H 0.984(4) 0.273(3) 0.614(4) 0.0190 Uiso
H16 H 0.9932 0.0533 0.3711 0.0410 Uiso
O2 O 0.9188(2) 0.6038(2) 0.9048(2) 0.0202 Uani
O3 O 0.7866(2) 0.7612(2) 0.8002(2) 0.0179 Uani
O4 O 0.5002(3) 0.8456(3) 0.9417(2) 0.0330 Uani
O6 O 0.6631(2) 0.5327(2) 0.9065(2) 0.0216 Uani
C2 C 0.8996(3) 0.6698(3) 0.8027(3) 0.0157 Uani
H1 H 0.5247 0.8763 0.8630 0.0400 Uiso
H2 H 0.4137 0.8698 0.9865 0.0400 Uiso
H3 H 0.8052 0.9174 0.9530 0.0400 Uiso
O10 O 0.8026(2) 0.9482(2) 0.4356(2) 0.0222 Uani
O11 O 0.9165(3) 0.9789(3) 0.6419(3) 0.0343 Uani
N1 N 0.6333(3) 0.7990(2) 0.5790(2) 0.0180 Uani
N2 N 0.9652(3) 0.7090(3) 0.5712(2) 0.0192 Uani
C6 C 0.7150(3) 0.9297(3) 0.3802(3) 0.0184 Uani
C7 C 0.6095(3) 0.8504(3) 0.4625(3) 0.0157 Uani
C8 C 0.5436(4) 0.7315(3) 0.6611(3) 0.0232 Uani
O13 O 0.7087(3) 0.9721(2) 0.2677(2) 0.0262 Uani
C11 C 0.4931(3) 0.8341(3) 0.4256(3) 0.0177 Uani
C12 C 0.4247(4) 0.7131(4) 0.6316(4) 0.0291 Uani
H7 H 0.567(4) 0.691(3) 0.737(4) 0.0190 Uiso
C14 C 0.4679(3) 0.8818(3) 0.2934(3) 0.0152 Uani
C15 C 0.3990(4) 0.7658(3) 0.5132(3) 0.0254 Uani
H10 H 0.361(5) 0.667(5) 0.697(5) 0.0540 Uiso
H12 H 0.313(4) 0.756(3) 0.492(3) 0.0190 Uiso
C16 C 0.5593(3) 0.4778(3) 0.9385(3) 0.0156 Uani
loop_
_atom_site_aniso_label
_atom_site_aniso_U_11
_atom_site_aniso_U_22
_atom_site_aniso_U_33
_atom_site_aniso_U_23
_atom_site_aniso_U_13
_atom_site_aniso_U_12
N3 0.0206 0.022 0.013 0.0014 -0.0057 -0.0024
C21 0.0153 0.0175 0.0153 -0.0007 -0.0042 -0.0057
Ni2 0.0175 0.0173 0.0137 0.00047 -0.00653 -0.00139
O18 0.0158 0.0199 0.0141 0 -0.0043 0.0016
O19 0.0178 0.0245 0.015 0.0041 -0.0051 -0.0021
O23 0.0305 0.0385 0.0393 -0.0037 -0.009 -0.0169
N4 0.0224 0.0158 0.0154 -0.0009 -0.0059 -0.003
O24 0.0236 0.0255 0.0193 0.0046 -0.0095 -0.0083
O26 0.0256 0.0423 0.0195 0.0047 -0.0046 0.0048
O29 0.0194 0.0262 0.0201 -0.0055 0 -0.0103
C24 0.0336 0.0226 0.0132 0.0037 -0.0075 -0.0079
C25 0.0191 0.0133 0.0127 -0.002 -0.0051 0.0011
C26 0.0203 0.0155 0.0172 -0.0011 -0.0058 -0.0001
C27 0.036 0.0294 0.0227 0.0064 -0.0064 -0.0154
C28 0.0223 0.0128 0.0174 -0.0023 -0.0072 -0.0004
O30 0.0386 0.0284 0.0159 0.006 -0.0114 -0.0149
C29 0.0268 0.0264 0.0262 0.0033 -0.0096 -0.0118
C30 0.015 0.0168 0.0145 -0.0016 -0.004 -0.0049
O31 0.0234 0.0242 0.0191 -0.0093 -0.0048 -0.0004
O32 0.0265 0.0205 0.0181 -0.002 -0.0076 0.0044
Dy5 0.01417 0.01283 0.01177 -0.00115 -0.00325 -0.00205
C4 0.0166 0.0171 0.0146 0.0007 -0.0039 -0.0035
C9 0.027 0.0307 0.0131 -0.0001 -0.0073 -0.0022
C13 0.0311 0.034 0.0149 -0.0057 0.0014 -0.0025
C17 0.0177 0.0148 0.0177 0.0007 -0.0033 -0.0044
C19 0.0153 0.0159 0.0176 0.001 -0.0015 -0.0005
C20 0.0225 0.022 0.0227 -0.004 -0.0028 0.0036
O16 0.01417 0.01283 0.01177 -0.00115 -0.00325 -0.00205
O17 0.0271 0.0267 0.0272 0.008 -0.0134 -0.0104
O27 0.0213 0.0273 0.0235 -0.0116 -0.0001 -0.0091
O28 0.0497 0.0362 0.0201 -0.0058 -0.0009 -0.0252
O22 0.0265 0.0205 0.0181 -0.002 -0.0076 0.0044
Ni4 0.0175 0.0173 0.0137 0.00047 -0.00653 -0.00139
Dy1 0.01417 0.01283 0.01177 -0.00115 -0.00325 -0.00205
O1 0.0213 0.0273 0.0235 -0.0116 -0.0001 -0.0091
O5 0.0497 0.0362 0.0201 -0.0058 -0.0009 -0.0252
O7 0.0234 0.0242 0.0191 -0.0093 -0.0048 -0.0004
O8 0.01417 0.01283 0.01177 -0.00115 -0.00325 -0.00205
O9 0.0271 0.0267 0.0272 0.008 -0.0134 -0.0104
C1 0.0158 0.0151 0.0152 0.0001 -0.0049 -0.0024
C3 0.0153 0.0159 0.0176 0.001 -0.0015 -0.0005
C5 0.0177 0.0148 0.0177 0.0007 -0.0033 -0.0044
C10 0.0225 0.022 0.0227 -0.004 -0.0028 0.0036
C18 0.0166 0.0171 0.0146 0.0007 -0.0039 -0.0035
C22 0.0311 0.034 0.0149 -0.0057 0.0014 -0.0025
C23 0.027 0.0307 0.0131 -0.0001 -0.0073 -0.0022
O2 0.0178 0.0245 0.015 0.0041 -0.0051 -0.0021
O3 0.0158 0.0199 0.0141 0 -0.0043 0.0016
O4 0.0256 0.0423 0.0195 0.0047 -0.0046 0.0048
O6 0.0194 0.0262 0.0201 -0.0055 0 -0.0103
C2 0.0153 0.0175 0.0153 -0.0007 -0.0042 -0.0057
O10 0.0236 0.0255 0.0193 0.0046 -0.0095 -0.0083
O11 0.0305 0.0385 0.0393 -0.0037 -0.009 -0.0169
N1 0.0224 0.0158 0.0154 -0.0009 -0.0059 -0.003
N2 0.0206 0.022 0.013 0.0014 -0.0057 -0.0024
C6 0.0203 0.0155 0.0172 -0.0011 -0.0058 -0.0001
C7 0.0191 0.0133 0.0127 -0.002 -0.0051 0.0011
C8 0.0336 0.0226 0.0132 0.0037 -0.0075 -0.0079
O13 0.0386 0.0284 0.0159 0.006 -0.0114 -0.0149
C11 0.0223 0.0128 0.0174 -0.0023 -0.0072 -0.0004
C12 0.036 0.0294 0.0227 0.0064 -0.0064 -0.0154
C14 0.015 0.0168 0.0145 -0.0016 -0.004 -0.0049
C15 0.0268 0.0264 0.0262 0.0033 -0.0096 -0.0118
C16 0.0158 0.0151 0.0152 0.0001 -0.0049 -0.0024
loop_
_geom_bond_atom_site_label_1
_geom_bond_atom_site_label_2
_geom_bond_site_symmetry_1
_geom_bond_site_symmetry_2
Ni2 N3 1_555 1_555
O18 C21 1_555 1_555
O19 C21 1_555 1_555
O23 Ni2 1_555 1_555
N4 Ni2 1_555 1_555
O24 Ni2 1_555 1_555
C24 N4 1_555 1_555
C25 N4 1_555 1_555
C26 O24 1_555 1_555
H18 O26 1_555 1_555
H19 O26 1_555 1_555
C27 C24 1_555 1_555
H22 C24 1_555 1_555
C28 C25 1_555 1_555
O30 C26 1_555 1_555
H23 C27 1_555 1_555
C29 C27 1_555 1_555
C30 C28 1_555 1_555
H24 C29 1_555 1_555
O31 C30 1_555 1_555
O32 C30 1_555 1_555
Dy5 O31 1_555 1_555
Ni2 O18 1_555 1_555
C25 C26 1_555 1_555
C28 C29 1_555 1_555
C13 C9 1_555 1_555
H8 C9 1_555 1_555
H11 C13 1_555 1_555
C17 C4 1_555 1_555
C19 C17 1_555 1_555
C20 C13 1_555 1_555
O16 C19 1_555 1_555
O17 C19 1_555 1_555
H13 C20 1_555 1_555
Dy5 O16 1_555 1_555
O27 Dy5 1_555 1_555
O28 Dy5 1_555 1_555
H21 O28 1_555 1_555
C17 C20 1_555 1_555
O17 Dy5 1_555 1_555
Dy1 O1 1_555 1_555
O1 C1 1_555 1_555
O5 Dy1 1_555 1_555
O7 Dy1 1_555 1_555
O8 Dy1 1_555 1_555
O9 Dy1 1_555 1_555
H4 O5 1_555 1_555
C3 O8 1_555 1_555
C5 C3 1_555 1_555
C10 C5 1_555 1_555
H9 C10 1_555 1_555
O29 C1 1_555 1_555
C18 C5 1_555 1_555
C22 C10 1_555 1_555
H14 C22 1_555 1_555
H15 C23 1_555 1_555
O9 C3 1_555 1_555
C22 C23 1_555 1_555
C2 O2 1_555 1_555
Ni4 O3 1_555 1_555
H1 O4 1_555 1_555
H2 O4 1_555 1_555
O10 Ni4 1_555 1_555
O11 Ni4 1_555 1_555
N1 Ni4 1_555 1_555
N2 Ni4 1_555 1_555
C6 O10 1_555 1_555
C7 N1 1_555 1_555
C8 N1 1_555 1_555
O13 C6 1_555 1_555
C11 C7 1_555 1_555
C12 C8 1_555 1_555
H7 C8 1_555 1_555
C14 C11 1_555 1_555
C15 C11 1_555 1_555
H10 C12 1_555 1_555
H12 C15 1_555 1_555
C16 O6 1_555 1_555
O27 C16 1_555 1_555
O7 C14 1_555 1_555
O22 C14 1_555 1_555
O3 C2 1_555 1_555
C6 C7 1_555 1_555
C12 C15 1_555 1_555

#END
