
###############################################################################
#
# This file contains modified crystal structure data generated from the
# MOF subset of the Cambridge Structural Database (CSD) v543 
# hosted by the Cambridge Crystallographic Data Centre (CCDC).
#
# This work is licensed under the Creative Commons
# Attribution-NonCommercial-ShareAlike 4.0 International License.
# To view a copy of this license, visit
# http://creativecommons.org/licenses/by-nc-sa/4.0/
# or send a letter to
# Creative Commons, PO Box 1866, Mountain View, CA 94042, USA.
#
# CIF created using the CSD Python API on 29 September 2022
# The structure has been converted into the P1 space group
# The structure has a 3D framework
# The original CSD entry SEBZUY is in the triclinic crystal system
# The framework has been calculated to contain at least 10.0% void space
# The void calculation uses a probe of radius 1.32A, grid spacing 0.4
#
###############################################################################

data_SEBZUY
_chemical_formula_moiety         '(C30 H24 Co2 N4 Nd2 O24)n'
_symmetry_cell_setting           triclinic
_symmetry_space_group_name_H-M   'P 1'
_symmetry_Int_Tables_number      1
_space_group_name_Hall           'P 1'
loop_
_symmetry_equiv_pos_site_id
_symmetry_equiv_pos_as_xyz
1 x,y,z
_cell_length_a                   10.0257(7)
_cell_length_b                   10.7276(8)
_cell_length_c                   10.9531(8)
_cell_angle_alpha                80.3990(10)
_cell_angle_beta                 72.6020(10)
_cell_angle_gamma                74.3430(10)
_cell_volume                     1077.66
loop_
_atom_site_label
_atom_site_type_symbol
_atom_site_fract_x
_atom_site_fract_y
_atom_site_fract_z
_atom_site_U_iso_or_equiv
_atom_site_thermal_displace_type
C28 C 0.0089(3) 0.1629(2) 0.0732(2) 0.0168 Uani
C30 C 0.0335(3) 0.1152(2) 0.2043(2) 0.0156 Uani
H24 H 0.189(4) 0.232(3) 0.003(3) 0.0260 Uiso
O32 O 0.1156(2) 0.00684(18) 0.22079(17) 0.0238 Uani
H6 H 0.380(9) 0.037(7) 0.199(6) 0.1800 Uiso
O26 O 0.0455(2) 0.39032(19) 0.38523(19) 0.0260 Uani
O27 O 0.0021(2) 0.1446(2) 0.5598(2) 0.0359 Uani
H19 H 0.0860 0.1150 0.5131 0.0430 Uiso
C27 C 0.0800(3) 0.2799(3) 0.8674(3) 0.0300 Uani
C29 C 0.1044(3) 0.2283(3) 0.9852(3) 0.0272 Uani
H23 H 0.149(4) 0.323(4) 0.801(4) 0.0400 Uiso
Co4 Co 0.29059(4) 0.86893(3) 0.11796(3) 0.0172 Uani
C21 C 0.3213(3) 0.4207(3) 0.0681(3) 0.0305 Uani
C23 C 0.4444(3) 0.3211(3) 0.0491(3) 0.0270 Uani
H14 H 0.271(4) 0.438(3) 0.151(4) 0.0390 Uiso
H15 H 0.475(3) 0.277(3) 0.117(3) 0.0250 Uiso
O23 O 0.6911(2) 0.05982(19) 0.07026(17) 0.0235 Uani
C24 C 0.7829(3) 0.0740(2) 0.1224(2) 0.0183 Uani
C26 C 0.8914(3) 0.1486(2) 0.0387(2) 0.0165 Uani
O30 O 0.7900(2) 0.0306(2) 0.23267(18) 0.0271 Uani
O31 O 0.9757(2) 0.19328(19) 0.28736(18) 0.0244 Uani
Nd5 Nd 0.823915(13) 0.305128(11) 0.464253(11) 0.0129 Uani
Nd1 Nd 0.176085(13) 0.694872(11) 0.535747(11) 0.0129 Uani
O1 O 0.42611(19) 0.60550(18) 0.39867(17) 0.0218 Uani
O2 O 0.29260(18) 0.75887(17) 0.29512(16) 0.0190 Uani
O5 O 0.2714(3) 0.8895(2) 0.5241(2) 0.0351 Uani
O6 O 0.1636(2) 0.53112(19) 0.40639(18) 0.0242 Uani
O7 O 0.0243(2) 0.80672(19) 0.71264(18) 0.0244 Uani
O8 O 0.2440(2) 0.48971(19) 0.67431(19) 0.0273 Uani
O9 O 0.3319(2) 0.65079(18) 0.69251(19) 0.0260 Uani
C1 C 0.4066(3) 0.6688(2) 0.2978(2) 0.0160 Uani
H1 H 0.0205 0.8810 0.3606 0.0430 Uiso
H3 H 0.3412 0.9043 0.4614 0.0420 Uiso
H4 H 0.2340 0.9411 0.5827 0.0420 Uiso
C3 C 0.3131(3) 0.5375(2) 0.7253(2) 0.0188 Uani
C4 C 0.5129(3) 0.6373(2) 0.1713(2) 0.0173 Uani
O11 O 0.4148(3) 0.9865(3) 0.1397(2) 0.0386 Uani
N1 N 0.1312(2) 0.8016(2) 0.0770(2) 0.0191 Uani
N2 N 0.4742(2) 0.7081(2) 0.0683(2) 0.0207 Uani
C5 C 0.3628(3) 0.4612(2) 0.8393(2) 0.0185 Uani
H5 H 0.5050 0.9575 0.1276 0.0460 Uiso
C7 C 0.0404(3) 0.7369(3) 0.1592(3) 0.0246 Uani
C10 C 0.2802(3) 0.4900(3) 0.9622(3) 0.0273 Uani
H7 H 0.062(3) 0.699(3) 0.235(3) 0.0270 Uiso
H9 H 0.200(4) 0.552(3) 0.969(3) 0.0300 Uiso
C16 C 0.0605(3) 0.4770(2) 0.4396(2) 0.0175 Uani
C17 C 0.6372(3) 0.5388(2) 0.1607(2) 0.0185 Uani
C18 C 0.4871(3) 0.3627(2) 0.8287(2) 0.0173 Uani
C19 C 0.7198(3) 0.5100(3) 0.0378(3) 0.0273 Uani
C20 C 0.6869(3) 0.4625(2) 0.2747(2) 0.0188 Uani
C22 C 0.5934(3) 0.3312(2) 0.7022(2) 0.0160 Uani
N3 N 0.5258(2) 0.2919(2) 0.9317(2) 0.0207 Uani
H13 H 0.800(4) 0.448(3) 0.031(3) 0.0300 Uiso
O16 O 0.7560(2) 0.51029(19) 0.32569(19) 0.0273 Uani
O17 O 0.6681(2) 0.34921(18) 0.30749(19) 0.0260 Uani
O18 O 0.57389(19) 0.39450(18) 0.60133(17) 0.0218 Uani
O19 O 0.70740(18) 0.24113(17) 0.70488(16) 0.0190 Uani
Co2 Co 0.70941(4) 0.13107(3) 0.88204(3) 0.0172 Uani
O22 O 0.5852(3) 0.0135(3) 0.8603(2) 0.0386 Uani
N4 N 0.8688(2) 0.1984(2) 0.9230(2) 0.0191 Uani
O28 O 0.7286(3) 0.1105(2) 0.4759(2) 0.0351 Uani
O29 O 0.8364(2) 0.46888(19) 0.59361(18) 0.0242 Uani
H16 H 0.4950 0.0425 0.8724 0.0460 Uiso
C25 C 0.9596(3) 0.2631(3) 0.8408(3) 0.0246 Uani
H18 H 0.9795 0.1190 0.6394 0.0430 Uiso
H20 H 0.6588 0.0957 0.5386 0.0420 Uiso
H21 H 0.7660 0.0589 0.4173 0.0420 Uiso
H22 H 0.938(3) 0.301(3) 0.765(3) 0.0270 Uiso
O10 O 0.3089(2) 0.94018(19) 0.92974(17) 0.0235 Uani
C6 C 0.2171(3) 0.9260(2) 0.8776(2) 0.0183 Uani
C8 C 0.1086(3) 0.8514(2) 0.9613(2) 0.0165 Uani
C9 C 0.5556(3) 0.6789(3) 0.9509(3) 0.0270 Uani
O13 O 0.2100(2) 0.9694(2) 0.76733(18) 0.0271 Uani
H8 H 0.525(3) 0.723(3) 0.883(3) 0.0250 Uiso
C13 C 0.6787(3) 0.5793(3) 0.9319(3) 0.0305 Uani
H11 H 0.729(4) 0.562(3) 0.849(4) 0.0390 Uiso
O3 O 0.9545(2) 0.60968(19) 0.61477(19) 0.0260 Uani
O4 O 0.9979(2) 0.8554(2) 0.4402(2) 0.0359 Uani
C2 C 0.9395(3) 0.5230(2) 0.5604(2) 0.0175 Uani
H2 H 0.9140 0.8850 0.4869 0.0430 Uiso
C11 C 0.9200(3) 0.7201(3) 0.1326(3) 0.0300 Uani
H10 H 0.851(4) 0.677(4) 0.199(4) 0.0400 Uiso
C14 C 0.8956(3) 0.7717(3) 0.0148(3) 0.0272 Uani
O24 O 0.8844(2) 0.99316(18) 0.77921(17) 0.0238 Uani
H17 H 0.620(9) 0.963(7) 0.801(6) 0.1800 Uiso
C12 C 0.9911(3) 0.8371(2) 0.9268(2) 0.0168 Uani
C15 C 0.9665(3) 0.8848(2) 0.7957(2) 0.0156 Uani
H12 H 0.811(4) 0.768(3) 0.997(3) 0.0260 Uiso
loop_
_atom_site_aniso_label
_atom_site_aniso_U_11
_atom_site_aniso_U_22
_atom_site_aniso_U_33
_atom_site_aniso_U_23
_atom_site_aniso_U_13
_atom_site_aniso_U_12
C28 0.0192 0.0134 0.0167 -0.0034 -0.0058 0.0002
C30 0.0127 0.0191 0.0162 -0.0023 -0.0049 -0.004
O32 0.0256 0.022 0.0197 -0.0026 -0.0088 0.0045
O26 0.0203 0.0309 0.0291 -0.015 0.0006 -0.0105
O27 0.0259 0.0451 0.0225 0.006 -0.0055 0.0087
C27 0.0369 0.0318 0.0221 0.0052 -0.0053 -0.0168
C29 0.0277 0.0307 0.027 0.0003 -0.0095 -0.0126
Co4 0.01555 0.0203 0.01434 3e-05 -0.00636 -4e-05
C21 0.0314 0.0338 0.0173 -0.0055 -0.0004 0.0024
C23 0.0282 0.0334 0.0145 -0.0005 -0.006 0.0002
O23 0.0202 0.0327 0.0197 0.0037 -0.0094 -0.0087
C24 0.0184 0.0174 0.0169 -0.0045 -0.0052 0.0016
C26 0.0194 0.0138 0.0148 -0.0028 -0.0062 0.0015
O30 0.036 0.0329 0.017 0.0053 -0.0125 -0.0143
O31 0.0241 0.0282 0.0204 -0.0114 -0.0066 0.0009
Nd5 0.01164 0.01411 0.01241 -0.00173 -0.00325 -0.0016
Nd1 0.01164 0.01411 0.01241 -0.00173 -0.00325 -0.0016
O1 0.0172 0.0289 0.0146 0.0031 -0.0046 -0.0002
O2 0.0144 0.0215 0.0162 0.0008 -0.0034 0.0016
O5 0.0467 0.0375 0.0258 -0.0084 -0.0002 -0.0248
O6 0.0198 0.0311 0.0236 -0.0092 0.0014 -0.0131
O7 0.0241 0.0282 0.0204 -0.0114 -0.0066 0.0009
O8 0.0272 0.0277 0.0318 0.0074 -0.0168 -0.0105
O9 0.0283 0.0202 0.031 0.0032 -0.0153 -0.0032
C1 0.0116 0.0187 0.0174 -0.0017 -0.0042 -0.0029
C3 0.0132 0.0197 0.0188 -0.0003 -0.003 0.0015
C4 0.015 0.0205 0.0151 -0.0003 -0.0044 -0.0026
O11 0.0301 0.0545 0.0381 -0.0056 -0.0074 -0.0226
N1 0.0225 0.0189 0.0156 -0.0009 -0.0079 -0.0014
N2 0.0186 0.0252 0.0145 0.0001 -0.0053 0.0007
C5 0.0163 0.0194 0.0186 -0.0009 -0.0036 -0.0037
C7 0.0346 0.0235 0.0153 0.0046 -0.0087 -0.0077
C10 0.0218 0.0264 0.0246 -0.0067 -0.0017 0.0071
C16 0.0159 0.019 0.0181 -0.0015 -0.0064 -0.0032
C17 0.0163 0.0194 0.0186 -0.0009 -0.0036 -0.0037
C18 0.015 0.0205 0.0151 -0.0003 -0.0044 -0.0026
C19 0.0218 0.0264 0.0246 -0.0067 -0.0017 0.0071
C20 0.0132 0.0197 0.0188 -0.0003 -0.003 0.0015
C22 0.0116 0.0187 0.0174 -0.0017 -0.0042 -0.0029
N3 0.0186 0.0252 0.0145 0.0001 -0.0053 0.0007
O16 0.0272 0.0277 0.0318 0.0074 -0.0168 -0.0105
O17 0.0283 0.0202 0.031 0.0032 -0.0153 -0.0032
O18 0.0172 0.0289 0.0146 0.0031 -0.0046 -0.0002
O19 0.0144 0.0215 0.0162 0.0008 -0.0034 0.0016
Co2 0.01555 0.0203 0.01434 3e-05 -0.00636 -4e-05
O22 0.0301 0.0545 0.0381 -0.0056 -0.0074 -0.0226
N4 0.0225 0.0189 0.0156 -0.0009 -0.0079 -0.0014
O28 0.0467 0.0375 0.0258 -0.0084 -0.0002 -0.0248
O29 0.0198 0.0311 0.0236 -0.0092 0.0014 -0.0131
C25 0.0346 0.0235 0.0153 0.0046 -0.0087 -0.0077
O10 0.0202 0.0327 0.0197 0.0037 -0.0094 -0.0087
C6 0.0184 0.0174 0.0169 -0.0045 -0.0052 0.0016
C8 0.0194 0.0138 0.0148 -0.0028 -0.0062 0.0015
C9 0.0282 0.0334 0.0145 -0.0005 -0.006 0.0002
O13 0.036 0.0329 0.017 0.0053 -0.0125 -0.0143
C13 0.0314 0.0338 0.0173 -0.0055 -0.0004 0.0024
O3 0.0203 0.0309 0.0291 -0.015 0.0006 -0.0105
O4 0.0259 0.0451 0.0225 0.006 -0.0055 0.0087
C2 0.0159 0.019 0.0181 -0.0015 -0.0064 -0.0032
C11 0.0369 0.0318 0.0221 0.0052 -0.0053 -0.0168
C14 0.0277 0.0307 0.027 0.0003 -0.0095 -0.0126
O24 0.0256 0.022 0.0197 -0.0026 -0.0088 0.0045
C12 0.0192 0.0134 0.0167 -0.0034 -0.0058 0.0002
C15 0.0127 0.0191 0.0162 -0.0023 -0.0049 -0.004
loop_
_geom_bond_atom_site_label_1
_geom_bond_atom_site_label_2
_geom_bond_site_symmetry_1
_geom_bond_site_symmetry_2
C30 C28 1_555 1_555
O32 C30 1_555 1_555
H19 O27 1_555 1_555
C29 C27 1_555 1_555
H23 C27 1_555 1_555
C23 C21 1_555 1_555
H14 C21 1_555 1_555
H15 C23 1_555 1_555
C24 O23 1_555 1_555
O30 C24 1_555 1_555
Nd5 O31 1_555 1_555
C24 C26 1_555 1_555
Nd1 O1 1_555 1_555
O1 C1 1_555 1_555
O2 Nd1 1_555 1_555
O5 Nd1 1_555 1_555
O6 Nd1 1_555 1_555
O7 Nd1 1_555 1_555
O8 Nd1 1_555 1_555
O9 Nd1 1_555 1_555
C1 O2 1_555 1_555
Co4 O2 1_555 1_555
H3 O5 1_555 1_555
H4 O5 1_555 1_555
C3 O8 1_555 1_555
C4 C1 1_555 1_555
O11 Co4 1_555 1_555
N1 Co4 1_555 1_555
N2 Co4 1_555 1_555
C5 C3 1_555 1_555
H5 O11 1_555 1_555
C7 N1 1_555 1_555
C10 C5 1_555 1_555
H7 C7 1_555 1_555
H9 C10 1_555 1_555
C16 O6 1_555 1_555
O26 C16 1_555 1_555
C17 C4 1_555 1_555
C18 C5 1_555 1_555
C20 C17 1_555 1_555
C22 C18 1_555 1_555
N3 C18 1_555 1_555
H13 C19 1_555 1_555
O16 C20 1_555 1_555
O17 C20 1_555 1_555
O18 C22 1_555 1_555
O19 C22 1_555 1_555
Co2 N3 1_555 1_555
Nd5 O16 1_555 1_555
O22 Co2 1_555 1_555
N4 Co2 1_555 1_555
O28 Nd5 1_555 1_555
O29 Nd5 1_555 1_555
H16 O22 1_555 1_555
C25 N4 1_555 1_555
H20 O28 1_555 1_555
H21 O28 1_555 1_555
H22 C25 1_555 1_555
O9 C3 1_555 1_555
C4 N2 1_555 1_555
C17 C19 1_555 1_555
O17 Nd5 1_555 1_555
O18 Nd5 1_555 1_555
O19 Co2 1_555 1_555
O19 Nd5 1_555 1_555
C6 O10 1_555 1_555
O13 C6 1_555 1_555
H8 C9 1_555 1_555
C13 C9 1_555 1_555
H11 C13 1_555 1_555
C6 C8 1_555 1_555
C2 O3 1_555 1_555
H2 O4 1_555 1_555
H10 C11 1_555 1_555
C14 C11 1_555 1_555
O29 C2 1_555 1_555
C15 C12 1_555 1_555
O24 C15 1_555 1_555

#END
