
###############################################################################
#
# This file contains modified crystal structure data generated from the
# MOF subset of the Cambridge Structural Database (CSD) v543 
# hosted by the Cambridge Crystallographic Data Centre (CCDC).
#
# This work is licensed under the Creative Commons
# Attribution-NonCommercial-ShareAlike 4.0 International License.
# To view a copy of this license, visit
# http://creativecommons.org/licenses/by-nc-sa/4.0/
# or send a letter to
# Creative Commons, PO Box 1866, Mountain View, CA 94042, USA.
#
# CIF created using the CSD Python API on 29 September 2022
# The structure has been converted into the P1 space group
# The structure has a 3D framework
# The original CSD entry SEBZEI is in the triclinic crystal system
# The framework has been calculated to contain at least 10.0% void space
# The void calculation uses a probe of radius 1.32A, grid spacing 0.4
#
###############################################################################

data_SEBZEI
_chemical_formula_moiety         '(C30 H24 N4 Ni2 O24 Tb2)n'
_symmetry_cell_setting           triclinic
_symmetry_space_group_name_H-M   'P 1'
_symmetry_Int_Tables_number      1
_space_group_name_Hall           'P 1'
loop_
_symmetry_equiv_pos_site_id
_symmetry_equiv_pos_as_xyz
1 x,y,z
_cell_length_a                   10.058(4)
_cell_length_b                   10.673(4)
_cell_length_c                   10.861(4)
_cell_angle_alpha                80.598(6)
_cell_angle_beta                 72.960(6)
_cell_angle_gamma                73.998(6)
_cell_volume                     1067.21
loop_
_atom_site_label
_atom_site_type_symbol
_atom_site_fract_x
_atom_site_fract_y
_atom_site_fract_z
_atom_site_U_iso_or_equiv
_atom_site_thermal_displace_type
H20 H 0.0837 0.1242 0.0138 0.0430 Uiso
C27 C 0.0736(5) 0.2883(4) 0.3688(4) 0.0312 Uani
C28 C 0.0068(4) 0.1661(3) 0.5746(4) 0.0194 Uani
C29 C 0.0997(5) 0.2349(4) 0.4866(4) 0.0282 Uani
H23 H 0.138(6) 0.336(5) 0.291(6) 0.0600 Uiso
C30 C 0.0332(4) 0.1170(3) 0.7063(4) 0.0166 Uani
H24 H 0.184(5) 0.243(5) 0.516(5) 0.0370 Uiso
O31 O 0.1158(3) 0.0079(2) 0.7232(3) 0.0245 Uani
O28 O 0.0426(3) 0.3920(3) 0.8816(3) 0.0262 Uani
Ni4 Ni 0.28665(5) 0.86764(4) 0.62026(5) 0.0175 Uani
H6 H 0.3812 0.0552 0.6637 0.0410 Uiso
Tb1 Tb 0.174455(17) 0.692355(15) 0.036561(15) 0.0141 Uani
O5 O 0.2651(3) 0.8838(3) 0.0268(3) 0.0366 Uani
O7 O 0.0273(3) 0.8043(3) 0.2093(3) 0.0240 Uani
O8 O 0.2464(3) 0.4892(3) 0.1697(3) 0.0279 Uani
O9 O 0.3297(3) 0.6535(2) 0.1921(3) 0.0264 Uani
H4 H 0.2274 0.9357 0.0861 0.0440 Uiso
C3 C 0.3146(4) 0.5375(4) 0.2231(4) 0.0200 Uani
C5 C 0.3669(4) 0.4601(3) 0.3369(4) 0.0180 Uani
C10 C 0.2848(4) 0.4874(4) 0.4621(4) 0.0264 Uani
H9 H 0.202(5) 0.552(5) 0.468(5) 0.0380 Uiso
C18 C 0.4938(4) 0.3610(3) 0.3262(4) 0.0174 Uani
C21 C 0.3282(5) 0.4180(4) 0.5685(4) 0.0308 Uani
N3 N 0.5348(3) 0.2908(3) 0.4296(3) 0.0199 Uani
C22 C 0.5998(4) 0.3305(3) 0.1978(3) 0.0159 Uani
C23 C 0.4533(4) 0.3186(4) 0.5488(4) 0.0263 Uani
H14 H 0.282(5) 0.425(4) 0.648(5) 0.0210 Uiso
Ni2 Ni 0.71335(5) 0.13236(4) 0.37974(5) 0.0175 Uani
O18 O 0.7123(3) 0.2388(2) 0.2009(2) 0.0194 Uani
O19 O 0.5802(3) 0.3961(3) 0.0959(2) 0.0210 Uani
H15 H 0.485(5) 0.272(5) 0.624(5) 0.0380 Uiso
O22 O 0.5828(3) 0.0224(3) 0.3581(3) 0.0346 Uani
N4 N 0.8665(3) 0.2016(3) 0.4215(3) 0.0211 Uani
O24 O 0.6977(3) 0.0512(3) 0.5644(3) 0.0238 Uani
O26 O 0.8368(3) 0.4685(3) 0.0929(3) 0.0230 Uani
O29 O 0.9994(3) 0.1533(3) 0.0598(3) 0.0354 Uani
H17 H 0.4931 0.0548 0.3711 0.0410 Uiso
C24 C 0.9553(5) 0.2694(4) 0.3394(4) 0.0258 Uani
C25 C 0.8913(4) 0.1496(3) 0.5365(4) 0.0185 Uani
C26 C 0.7861(4) 0.0703(4) 0.6207(4) 0.0209 Uani
H18 H 0.6657 0.1011 0.0359 0.0440 Uiso
H21 H 0.9765 0.1280 0.1398 0.0430 Uiso
H22 H 0.939(5) 0.303(4) 0.262(5) 0.0350 Uiso
O30 O 0.7931(3) 0.0267(3) 0.7313(3) 0.0285 Uani
O32 O 0.9727(3) 0.1957(3) 0.7907(3) 0.0240 Uani
Tb5 Tb 0.825545(17) 0.307645(15) 0.963439(15) 0.0141 Uani
O1 O 0.4198(3) 0.6039(3) 0.9041(2) 0.0210 Uani
O2 O 0.2877(3) 0.7612(2) 0.7991(2) 0.0194 Uani
O4 O 0.0006(3) 0.8467(3) 0.9402(3) 0.0354 Uani
O6 O 0.1632(3) 0.5315(3) 0.9071(3) 0.0230 Uani
C1 C 0.4002(4) 0.6695(3) 0.8022(3) 0.0159 Uani
H1 H 0.0235 0.8720 0.8602 0.0430 Uiso
H3 H 0.3343 0.8989 0.9641 0.0440 Uiso
C4 C 0.5062(4) 0.6390(3) 0.6738(4) 0.0174 Uani
O10 O 0.3023(3) 0.9488(3) 0.4356(3) 0.0238 Uani
O11 O 0.4172(3) 0.9776(3) 0.6419(3) 0.0346 Uani
N1 N 0.1335(3) 0.7984(3) 0.5785(3) 0.0211 Uani
N2 N 0.4652(3) 0.7092(3) 0.5704(3) 0.0199 Uani
C6 C 0.2139(4) 0.9297(4) 0.3793(4) 0.0209 Uani
H5 H 0.5069 0.9452 0.6289 0.0410 Uiso
C7 C 0.0447(5) 0.7306(4) 0.6606(4) 0.0258 Uani
C8 C 0.1087(4) 0.8504(3) 0.4635(4) 0.0185 Uani
C9 C 0.5467(4) 0.6814(4) 0.4512(4) 0.0263 Uani
O13 O 0.2069(3) 0.9733(3) 0.2687(3) 0.0285 Uani
H7 H 0.061(5) 0.697(4) 0.738(5) 0.0350 Uiso
H8 H 0.515(5) 0.728(5) 0.376(5) 0.0380 Uiso
C13 C 0.6718(5) 0.5820(4) 0.4315(4) 0.0308 Uani
H11 H 0.718(5) 0.575(4) 0.352(5) 0.0210 Uiso
C16 C 0.0596(4) 0.4774(3) 0.9386(4) 0.0180 Uani
C17 C 0.6331(4) 0.5399(3) 0.6631(4) 0.0180 Uani
C19 C 0.7152(4) 0.5126(4) 0.5379(4) 0.0264 Uani
C20 C 0.6854(4) 0.4625(4) 0.7769(4) 0.0200 Uani
H13 H 0.798(5) 0.448(5) 0.532(5) 0.0380 Uiso
O16 O 0.7536(3) 0.5108(3) 0.8303(3) 0.0279 Uani
O17 O 0.6703(3) 0.3465(2) 0.8079(3) 0.0264 Uani
O25 O 0.7349(3) 0.1162(3) 0.9732(3) 0.0366 Uani
H19 H 0.7726 0.0643 0.9139 0.0440 Uiso
O23 O 0.8842(3) 0.9921(2) 0.2768(3) 0.0245 Uani
H16 H 0.6188 0.9448 0.3363 0.0410 Uiso
O3 O 0.9574(3) 0.6080(3) 0.1184(3) 0.0262 Uani
C2 C 0.9404(4) 0.5226(3) 0.0614(4) 0.0180 Uani
H2 H 0.9163 0.8758 0.9862 0.0430 Uiso
C11 C 0.9264(5) 0.7117(4) 0.6312(4) 0.0312 Uani
C12 C 0.9932(4) 0.8339(3) 0.4254(4) 0.0194 Uani
H10 H 0.862(6) 0.664(5) 0.709(6) 0.0600 Uiso
C14 C 0.9003(5) 0.7651(4) 0.5134(4) 0.0282 Uani
C15 C 0.9668(4) 0.8830(3) 0.2937(4) 0.0166 Uani
H12 H 0.816(5) 0.757(5) 0.484(5) 0.0370 Uiso
loop_
_atom_site_aniso_label
_atom_site_aniso_U_11
_atom_site_aniso_U_22
_atom_site_aniso_U_33
_atom_site_aniso_U_23
_atom_site_aniso_U_13
_atom_site_aniso_U_12
C27 0.037 0.033 0.025 0.0056 -0.0076 -0.016
C28 0.0226 0.0153 0.02 -0.003 -0.0067 -0.002
C29 0.027 0.028 0.031 0.0014 -0.0085 -0.0101
C30 0.0161 0.017 0.0171 -0.0016 -0.0027 -0.0065
O31 0.027 0.0206 0.0201 -0.0018 -0.0078 0.0051
O28 0.0236 0.029 0.0291 -0.0118 -0.0025 -0.0109
Ni4 0.0186 0.0192 0.014 -0.0004 -0.00637 -0.00166
Tb1 0.01471 0.01433 0.01221 -0.00188 -0.0029 -0.00225
O5 0.0484 0.0384 0.0257 -0.012 0.0052 -0.0253
O7 0.0253 0.0258 0.0198 -0.0111 -0.0053 0.0003
O8 0.0292 0.0314 0.0266 0.007 -0.0136 -0.012
O9 0.0335 0.018 0.0285 0.003 -0.0148 -0.0035
C3 0.011 0.0201 0.022 -0.0007 -0.0008 0.0027
C5 0.0176 0.0188 0.0175 -0.0002 -0.0042 -0.0056
C10 0.025 0.027 0.02 -0.0061 0 0.0012
C18 0.0193 0.0169 0.0156 -0.0001 -0.0059 -0.003
C21 0.033 0.039 0.014 -0.0043 -0.0001 -0.0037
N3 0.0188 0.0223 0.0163 -0.0006 -0.0047 -0.0017
C22 0.0167 0.0184 0.0136 -0.0023 -0.0041 -0.0051
C23 0.028 0.034 0.015 -0.0004 -0.0064 -0.0045
Ni2 0.0186 0.0192 0.014 -0.0004 -0.00637 -0.00166
O18 0.0165 0.0219 0.0153 -0.0006 -0.0042 0.0018
O19 0.0169 0.0273 0.0144 0.0012 -0.0034 -0.001
O22 0.0296 0.0384 0.0399 -0.007 -0.0059 -0.0163
N4 0.0248 0.02 0.0189 -0.0007 -0.0078 -0.0045
O24 0.0245 0.0292 0.0196 0.0048 -0.0103 -0.0087
O26 0.0199 0.0277 0.0215 -0.0071 0.0012 -0.0101
O29 0.0283 0.0451 0.0176 0.0015 -0.0026 0.0095
C24 0.035 0.029 0.013 0.0046 -0.0068 -0.0101
C25 0.0218 0.0158 0.0168 -0.0031 -0.0064 -0.0005
C26 0.025 0.0186 0.017 -0.0018 -0.005 -0.0023
O30 0.0424 0.0322 0.0151 0.0044 -0.0108 -0.0158
O32 0.0253 0.0258 0.0198 -0.0111 -0.0053 0.0003
Tb5 0.01471 0.01433 0.01221 -0.00188 -0.0029 -0.00225
O1 0.0169 0.0273 0.0144 0.0012 -0.0034 -0.001
O2 0.0165 0.0219 0.0153 -0.0006 -0.0042 0.0018
O4 0.0283 0.0451 0.0176 0.0015 -0.0026 0.0095
O6 0.0199 0.0277 0.0215 -0.0071 0.0012 -0.0101
C1 0.0167 0.0184 0.0136 -0.0023 -0.0041 -0.0051
C4 0.0193 0.0169 0.0156 -0.0001 -0.0059 -0.003
O10 0.0245 0.0292 0.0196 0.0048 -0.0103 -0.0087
O11 0.0296 0.0384 0.0399 -0.007 -0.0059 -0.0163
N1 0.0248 0.02 0.0189 -0.0007 -0.0078 -0.0045
N2 0.0188 0.0223 0.0163 -0.0006 -0.0047 -0.0017
C6 0.025 0.0186 0.017 -0.0018 -0.005 -0.0023
C7 0.035 0.029 0.013 0.0046 -0.0068 -0.0101
C8 0.0218 0.0158 0.0168 -0.0031 -0.0064 -0.0005
C9 0.028 0.034 0.015 -0.0004 -0.0064 -0.0045
O13 0.0424 0.0322 0.0151 0.0044 -0.0108 -0.0158
C13 0.033 0.039 0.014 -0.0043 -0.0001 -0.0037
C16 0.0183 0.0176 0.018 -0.0002 -0.0053 -0.0045
C17 0.0176 0.0188 0.0175 -0.0002 -0.0042 -0.0056
C19 0.025 0.027 0.02 -0.0061 0 0.0012
C20 0.011 0.0201 0.022 -0.0007 -0.0008 0.0027
O16 0.0292 0.0314 0.0266 0.007 -0.0136 -0.012
O17 0.0335 0.018 0.0285 0.003 -0.0148 -0.0035
O25 0.0484 0.0384 0.0257 -0.012 0.0052 -0.0253
O23 0.027 0.0206 0.0201 -0.0018 -0.0078 0.0051
O3 0.0236 0.029 0.0291 -0.0118 -0.0025 -0.0109
C2 0.0183 0.0176 0.018 -0.0002 -0.0053 -0.0045
C11 0.037 0.033 0.025 0.0056 -0.0076 -0.016
C12 0.0226 0.0153 0.02 -0.003 -0.0067 -0.002
C14 0.027 0.028 0.031 0.0014 -0.0085 -0.0101
C15 0.0161 0.017 0.0171 -0.0016 -0.0027 -0.0065
loop_
_geom_bond_atom_site_label_1
_geom_bond_atom_site_label_2
_geom_bond_site_symmetry_1
_geom_bond_site_symmetry_2
C29 C27 1_555 1_555
H23 C27 1_555 1_555
C30 C28 1_555 1_555
H24 C29 1_555 1_555
O31 C30 1_555 1_555
C28 C29 1_555 1_555
O5 Tb1 1_555 1_555
O7 Tb1 1_555 1_555
O8 Tb1 1_555 1_555
O9 Tb1 1_555 1_555
H4 O5 1_555 1_555
C3 O8 1_555 1_555
C5 C3 1_555 1_555
C10 C5 1_555 1_555
H9 C10 1_555 1_555
C18 C5 1_555 1_555
C21 C10 1_555 1_555
N3 C18 1_555 1_555
C22 C18 1_555 1_555
C23 C21 1_555 1_555
H14 C21 1_555 1_555
Ni2 N3 1_555 1_555
O18 C22 1_555 1_555
O19 C22 1_555 1_555
H15 C23 1_555 1_555
O22 Ni2 1_555 1_555
N4 Ni2 1_555 1_555
O24 Ni2 1_555 1_555
H17 O22 1_555 1_555
C24 N4 1_555 1_555
C25 N4 1_555 1_555
C26 O24 1_555 1_555
H21 O29 1_555 1_555
H22 C24 1_555 1_555
O30 C26 1_555 1_555
Tb5 O32 1_555 1_555
O9 C3 1_555 1_555
N3 C23 1_555 1_555
Ni2 O18 1_555 1_555
C25 C26 1_555 1_555
O1 C1 1_555 1_555
C1 O2 1_555 1_555
Ni4 O2 1_555 1_555
H1 O4 1_555 1_555
C4 C1 1_555 1_555
O10 Ni4 1_555 1_555
O11 Ni4 1_555 1_555
N1 Ni4 1_555 1_555
N2 Ni4 1_555 1_555
C6 O10 1_555 1_555
H5 O11 1_555 1_555
C7 N1 1_555 1_555
C8 N1 1_555 1_555
C9 N2 1_555 1_555
O13 C6 1_555 1_555
H7 C7 1_555 1_555
H8 C9 1_555 1_555
C13 C9 1_555 1_555
H11 C13 1_555 1_555
C16 O6 1_555 1_555
O28 C16 1_555 1_555
C17 C4 1_555 1_555
C19 C13 1_555 1_555
C20 C17 1_555 1_555
H13 C19 1_555 1_555
O16 C20 1_555 1_555
O17 C20 1_555 1_555
Tb5 O16 1_555 1_555
O25 Tb5 1_555 1_555
H19 O25 1_555 1_555
C4 N2 1_555 1_555
C6 C8 1_555 1_555
C17 C19 1_555 1_555
O17 Tb5 1_555 1_555
C2 O3 1_555 1_555
O26 C2 1_555 1_555
H10 C11 1_555 1_555
C14 C11 1_555 1_555
C15 C12 1_555 1_555
H12 C14 1_555 1_555
O23 C15 1_555 1_555
C12 C14 1_555 1_555

#END
