
###############################################################################
#
# This file contains modified crystal structure data generated from the
# MOF subset of the Cambridge Structural Database (CSD) v543 
# hosted by the Cambridge Crystallographic Data Centre (CCDC).
#
# This work is licensed under the Creative Commons
# Attribution-NonCommercial-ShareAlike 4.0 International License.
# To view a copy of this license, visit
# http://creativecommons.org/licenses/by-nc-sa/4.0/
# or send a letter to
# Creative Commons, PO Box 1866, Mountain View, CA 94042, USA.
#
# CIF created using the CSD Python API on 29 September 2022
# The structure has been converted into the P1 space group
# The structure has a 3D framework
# The original CSD entry SECBUB is in the triclinic crystal system
# The framework has been calculated to contain at least 10.0% void space
# The void calculation uses a probe of radius 1.32A, grid spacing 0.4
#
###############################################################################

data_SECBUB
_chemical_formula_moiety         '(C30 H24 Co2 Dy2 N4 O26)n'
_symmetry_cell_setting           triclinic
_symmetry_space_group_name_H-M   'P 1'
_symmetry_Int_Tables_number      1
_space_group_name_Hall           'P 1'
loop_
_symmetry_equiv_pos_site_id
_symmetry_equiv_pos_as_xyz
1 x,y,z
_cell_length_a                   9.9780(10)
_cell_length_b                   10.5727(11)
_cell_length_c                   10.9101(12)
_cell_angle_alpha                80.675(2)
_cell_angle_beta                 72.2020(10)
_cell_angle_gamma                74.3780(10)
_cell_volume                     1051.39
loop_
_atom_site_label
_atom_site_type_symbol
_atom_site_fract_x
_atom_site_fract_y
_atom_site_fract_z
_atom_site_U_iso_or_equiv
_atom_site_thermal_displace_type
O22 O 0.1874(3) 0.0623(3) 0.0703(3) 0.0201 Uani
C24 C 0.2773(4) 0.0764(4) 0.1245(4) 0.0142 Uani
C26 C 0.3899(4) 0.1492(4) 0.0401(4) 0.0127 Uani
O30 O 0.2815(3) 0.0347(3) 0.2362(3) 0.0232 Uani
C28 C 0.5077(4) 0.1627(4) 0.0756(4) 0.0140 Uani
C30 C 0.5299(4) 0.1170(4) 0.2082(4) 0.0119 Uani
H24 H 0.692(6) 0.232(5) 0.007(5) 0.0320 Uiso
O31 O 0.4706(3) 0.1996(3) 0.2904(3) 0.0195 Uani
O32 O 0.6101(3) 0.0070(3) 0.2272(3) 0.0194 Uani
Dy5 Dy 0.326402(16) 0.307047(14) 0.465419(14) 0.0093 Uani
C4 C 0.0134(4) 0.6362(4) 0.1761(4) 0.0136 Uani
H5 H 0.0008 0.9636 0.1295 0.0390 Uiso
C17 C 0.1391(4) 0.5374(4) 0.1667(4) 0.0143 Uani
C19 C 0.2251(5) 0.5065(4) 0.0444(4) 0.0213 Uani
C20 C 0.1888(4) 0.4615(4) 0.2815(4) 0.0148 Uani
N3 N 0.0247(4) 0.2942(3) 0.9281(3) 0.0170 Uani
C22 C 0.0971(4) 0.3308(4) 0.6982(4) 0.0123 Uani
H13 H 0.310(7) 0.441(7) 0.038(6) 0.0560 Uiso
O16 O 0.2569(3) 0.5104(3) 0.3343(3) 0.0222 Uani
O17 O 0.1718(3) 0.3466(3) 0.3138(3) 0.0216 Uani
Co2 Co 0.21087(5) 0.13100(5) 0.87967(5) 0.0136 Uani
O18 O 0.2121(3) 0.2418(3) 0.7012(2) 0.0150 Uani
O19 O 0.0802(3) 0.3946(3) 0.5955(3) 0.0170 Uani
N4 N 0.3700(4) 0.1978(3) 0.9232(3) 0.0164 Uani
O24 O 0.0900(4) 0.0082(4) 0.8586(3) 0.0327 Uani
O25 O 0.2379(4) 0.1135(3) 0.4785(3) 0.0269 Uani
O26 O 0.5429(3) 0.3922(3) 0.3819(3) 0.0193 Uani
O27 O 0.3375(3) 0.4649(3) 0.5958(3) 0.0193 Uani
O29 O 0.5018(3) 0.1518(3) 0.5553(3) 0.0261 Uani
C25 C 0.4649(5) 0.2606(4) 0.8394(4) 0.0209 Uani
H16 H 0.029(10) 0.03(2) 0.814(11) 0.3700 Uiso
H18 H 0.2481 0.0790 0.4101 0.0320 Uiso
H19 H 0.1966 0.0795 0.5517 0.0320 Uiso
H20 H 0.4780 0.1215 0.6340 0.0310 Uiso
H21 H 0.5881 0.1269 0.5088 0.0310 Uiso
H22 H 0.447(6) 0.296(6) 0.763(6) 0.0420 Uiso
C27 C 0.5850(5) 0.2764(5) 0.8674(4) 0.0256 Uani
H23 H 0.655(6) 0.318(5) 0.800(5) 0.0320 Uiso
C29 C 0.6070(5) 0.2259(4) 0.9868(4) 0.0221 Uani
Co4 Co 0.78913(5) 0.86900(5) 0.12033(5) 0.0136 Uani
O23 O 0.3899(3) 0.9930(3) 0.7728(3) 0.0194 Uani
Dy1 Dy 0.673598(16) 0.692953(14) 0.534581(14) 0.0093 Uani
O1 O 0.9198(3) 0.6054(3) 0.4045(3) 0.0170 Uani
O2 O 0.7879(3) 0.7582(3) 0.2988(2) 0.0150 Uani
O3 O 0.6625(3) 0.5351(3) 0.4042(3) 0.0193 Uani
O4 O 0.7621(4) 0.8865(3) 0.5215(3) 0.0269 Uani
O5 O 0.4982(3) 0.8482(3) 0.4447(3) 0.0261 Uani
O6 O 0.4571(3) 0.6078(3) 0.6181(3) 0.0193 Uani
O7 O 0.5294(3) 0.8004(3) 0.7096(3) 0.0195 Uani
O8 O 0.7431(3) 0.4896(3) 0.6657(3) 0.0222 Uani
O9 O 0.8282(3) 0.6534(3) 0.6862(3) 0.0216 Uani
C1 C 0.9029(4) 0.6692(4) 0.3018(4) 0.0123 Uani
C2 C 0.5600(4) 0.4782(4) 0.4378(4) 0.0124 Uani
H1 H 0.8034 0.9205 0.4483 0.0320 Uiso
H2 H 0.7519 0.9210 0.5899 0.0320 Uiso
H3 H 0.5220 0.8785 0.3660 0.0310 Uiso
H4 H 0.4119 0.8731 0.4912 0.0310 Uiso
C3 C 0.8112(4) 0.5385(4) 0.7185(4) 0.0148 Uani
O11 O 0.9100(4) 0.9918(4) 0.1414(3) 0.0327 Uani
N1 N 0.6300(4) 0.8022(3) 0.0768(3) 0.0164 Uani
N2 N 0.9753(4) 0.7058(3) 0.0719(3) 0.0170 Uani
C5 C 0.8609(4) 0.4626(4) 0.8333(4) 0.0143 Uani
H6 H 0.971(10) 0.97(2) 0.186(11) 0.3700 Uiso
C7 C 0.5351(5) 0.7394(4) 0.1606(4) 0.0209 Uani
C10 C 0.7749(5) 0.4935(4) 0.9556(4) 0.0213 Uani
H7 H 0.553(6) 0.704(6) 0.237(6) 0.0420 Uiso
C11 C 0.4150(5) 0.7236(5) 0.1326(4) 0.0256 Uani
H9 H 0.690(7) 0.559(7) 0.962(6) 0.0560 Uiso
H10 H 0.345(6) 0.682(5) 0.200(5) 0.0320 Uiso
C14 C 0.3930(5) 0.7741(4) 0.0132(4) 0.0221 Uani
C16 C 0.4400(4) 0.5218(4) 0.5622(4) 0.0124 Uani
C18 C 0.9866(4) 0.3638(4) 0.8239(4) 0.0136 Uani
H17 H 0.9992 0.0364 0.8705 0.0390 Uiso
O10 O 0.8126(3) 0.9377(3) 0.9297(3) 0.0201 Uani
C6 C 0.7227(4) 0.9236(4) 0.8755(4) 0.0142 Uani
C8 C 0.6101(4) 0.8508(4) 0.9599(4) 0.0127 Uani
O13 O 0.7185(3) 0.9653(3) 0.7638(3) 0.0232 Uani
C12 C 0.4923(4) 0.8373(4) 0.9244(4) 0.0140 Uani
C15 C 0.4701(4) 0.8830(4) 0.7918(4) 0.0119 Uani
H12 H 0.308(6) 0.768(5) 0.993(5) 0.0320 Uiso
C9 C 0.0594(5) 0.6745(4) 0.9545(4) 0.0219 Uani
H8 H 0.032(6) 0.720(5) 0.886(5) 0.0280 Uiso
C13 C 0.1845(5) 0.5743(4) 0.9362(4) 0.0248 Uani
H11 H 0.236(5) 0.562(5) 0.850(5) 0.0230 Uiso
C21 C 0.8155(5) 0.4257(4) 0.0638(4) 0.0248 Uani
C23 C 0.9406(5) 0.3255(4) 0.0455(4) 0.0219 Uani
H14 H 0.764(5) 0.438(5) 0.150(5) 0.0230 Uiso
H15 H 0.968(6) 0.280(5) 0.114(5) 0.0280 Uiso
loop_
_atom_site_aniso_label
_atom_site_aniso_U_11
_atom_site_aniso_U_22
_atom_site_aniso_U_33
_atom_site_aniso_U_23
_atom_site_aniso_U_13
_atom_site_aniso_U_12
O22 0.0222 0.0257 0.0143 0.0059 -0.0089 -0.0088
C24 0.0179 0.0113 0.0126 -0.0018 -0.0032 -0.0028
C26 0.0196 0.0085 0.0084 0.0006 -0.0048 -0.0003
O30 0.0384 0.0268 0.0104 0.0067 -0.0106 -0.0179
C28 0.022 0.009 0.0112 -0.0008 -0.0062 -0.0023
C30 0.0133 0.0135 0.0113 -0.0016 -0.0036 -0.0065
O31 0.0239 0.0184 0.0163 -0.0082 -0.0051 -0.0016
O32 0.024 0.0174 0.0139 -0.0003 -0.0069 0.001
Dy5 0.01228 0.00923 0.00658 0.00052 -0.00245 -0.0038
C4 0.0172 0.0141 0.0106 0.0026 -0.0062 -0.0049
C17 0.0193 0.0124 0.0128 0.0022 -0.006 -0.0066
C19 0.021 0.017 0.019 -0.0023 -0.0005 0.0014
C20 0.0132 0.0155 0.0107 0.0013 -0.0003 -0.0001
N3 0.0189 0.0202 0.0092 0.0028 -0.0035 -0.0028
C22 0.0144 0.014 0.0108 -0.0002 -0.0041 -0.0069
O16 0.0255 0.0227 0.0226 0.009 -0.0135 -0.011
O17 0.0294 0.015 0.0225 0.004 -0.0127 -0.0054
Co2 0.016 0.0151 0.0091 0.00199 -0.0053 -0.0023
O18 0.013 0.0184 0.0098 0.0029 -0.0024 -0.0008
O19 0.0163 0.0235 0.0078 0.0049 -0.0031 -0.003
N4 0.024 0.0149 0.0113 0.0015 -0.0078 -0.0043
O24 0.0286 0.045 0.0318 -0.0031 -0.0057 -0.0236
O25 0.0421 0.0283 0.0141 -0.0025 -0.0038 -0.0188
O26 0.0203 0.0212 0.0174 -0.0085 0.0002 -0.0086
O27 0.0207 0.0232 0.0162 -0.0043 0.0011 -0.0144
O29 0.0209 0.0347 0.0135 0.0059 -0.004 0.003
C25 0.034 0.018 0.0107 0.0057 -0.0079 -0.0082
C27 0.035 0.029 0.016 0.0056 -0.0047 -0.02
C29 0.026 0.024 0.02 0.0014 -0.0061 -0.0143
Co4 0.016 0.0151 0.0091 0.00199 -0.0053 -0.0023
O23 0.024 0.0174 0.0139 -0.0003 -0.0069 0.001
Dy1 0.01228 0.00923 0.00658 0.00052 -0.00245 -0.0038
O1 0.0163 0.0235 0.0078 0.0049 -0.0031 -0.003
O2 0.013 0.0184 0.0098 0.0029 -0.0024 -0.0008
O3 0.0207 0.0232 0.0162 -0.0043 0.0011 -0.0144
O4 0.0421 0.0283 0.0141 -0.0025 -0.0038 -0.0188
O5 0.0209 0.0347 0.0135 0.0059 -0.004 0.003
O6 0.0203 0.0212 0.0174 -0.0085 0.0002 -0.0086
O7 0.0239 0.0184 0.0163 -0.0082 -0.0051 -0.0016
O8 0.0255 0.0227 0.0226 0.009 -0.0135 -0.011
O9 0.0294 0.015 0.0225 0.004 -0.0127 -0.0054
C1 0.0144 0.014 0.0108 -0.0002 -0.0041 -0.0069
C2 0.0146 0.0122 0.012 0.0007 -0.0056 -0.0046
C3 0.0132 0.0155 0.0107 0.0013 -0.0003 -0.0001
O11 0.0286 0.045 0.0318 -0.0031 -0.0057 -0.0236
N1 0.024 0.0149 0.0113 0.0015 -0.0078 -0.0043
N2 0.0189 0.0202 0.0092 0.0028 -0.0035 -0.0028
C5 0.0193 0.0124 0.0128 0.0022 -0.006 -0.0066
C7 0.034 0.018 0.0107 0.0057 -0.0079 -0.0082
C10 0.021 0.017 0.019 -0.0023 -0.0005 0.0014
C11 0.035 0.029 0.016 0.0056 -0.0047 -0.02
C14 0.026 0.024 0.02 0.0014 -0.0061 -0.0143
C16 0.0146 0.0122 0.012 0.0007 -0.0056 -0.0046
C18 0.0172 0.0141 0.0106 0.0026 -0.0062 -0.0049
O10 0.0222 0.0257 0.0143 0.0059 -0.0089 -0.0088
C6 0.0179 0.0113 0.0126 -0.0018 -0.0032 -0.0028
C8 0.0196 0.0085 0.0084 0.0006 -0.0048 -0.0003
O13 0.0384 0.0268 0.0104 0.0067 -0.0106 -0.0179
C12 0.022 0.009 0.0112 -0.0008 -0.0062 -0.0023
C15 0.0133 0.0135 0.0113 -0.0016 -0.0036 -0.0065
C9 0.028 0.026 0.01 0.0011 -0.0072 -0.0027
C13 0.03 0.029 0.009 -0.0023 0.0008 -0.0032
C21 0.03 0.029 0.009 -0.0023 0.0008 -0.0032
C23 0.028 0.026 0.01 0.0011 -0.0072 -0.0027
loop_
_geom_bond_atom_site_label_1
_geom_bond_atom_site_label_2
_geom_bond_site_symmetry_1
_geom_bond_site_symmetry_2
C24 O22 1_555 1_555
O30 C24 1_555 1_555
C28 C26 1_555 1_555
C30 C28 1_555 1_555
O31 C30 1_555 1_555
O32 C30 1_555 1_555
Dy5 O31 1_555 1_555
C24 C26 1_555 1_555
C17 C4 1_555 1_555
C20 C17 1_555 1_555
H13 C19 1_555 1_555
O16 C20 1_555 1_555
O17 C20 1_555 1_555
Co2 N3 1_555 1_555
O18 C22 1_555 1_555
O19 C22 1_555 1_555
Dy5 O16 1_555 1_555
N4 Co2 1_555 1_555
O24 Co2 1_555 1_555
O25 Dy5 1_555 1_555
O26 Dy5 1_555 1_555
O27 Dy5 1_555 1_555
O29 Dy5 1_555 1_555
C25 N4 1_555 1_555
H16 O24 1_555 1_555
H18 O25 1_555 1_555
H19 O25 1_555 1_555
H20 O29 1_555 1_555
H21 O29 1_555 1_555
H22 C25 1_555 1_555
C27 C25 1_555 1_555
H23 C27 1_555 1_555
C29 C27 1_555 1_555
C17 C19 1_555 1_555
O17 Dy5 1_555 1_555
Co2 O18 1_555 1_555
O18 Dy5 1_555 1_555
O19 Dy5 1_555 1_555
Dy1 O1 1_555 1_555
O1 C1 1_555 1_555
O2 Dy1 1_555 1_555
O3 Dy1 1_555 1_555
O4 Dy1 1_555 1_555
O5 Dy1 1_555 1_555
O6 Dy1 1_555 1_555
O7 Dy1 1_555 1_555
O8 Dy1 1_555 1_555
O9 Dy1 1_555 1_555
C1 O2 1_555 1_555
Co4 O2 1_555 1_555
C2 O3 1_555 1_555
H1 O4 1_555 1_555
H2 O4 1_555 1_555
H3 O5 1_555 1_555
H4 O5 1_555 1_555
C3 O8 1_555 1_555
O11 Co4 1_555 1_555
N1 Co4 1_555 1_555
N2 Co4 1_555 1_555
C5 C3 1_555 1_555
H6 O11 1_555 1_555
C7 N1 1_555 1_555
C10 C5 1_555 1_555
H7 C7 1_555 1_555
C11 C7 1_555 1_555
H9 C10 1_555 1_555
H10 C11 1_555 1_555
C14 C11 1_555 1_555
C16 O6 1_555 1_555
O26 C2 1_555 1_555
O27 C16 1_555 1_555
C18 C5 1_555 1_555
O9 C3 1_555 1_555
C2 C16 1_555 1_555
C6 O10 1_555 1_555
O13 C6 1_555 1_555
C12 C8 1_555 1_555
C15 C12 1_555 1_555
O23 C15 1_555 1_555
O7 C15 1_555 1_555
C6 C8 1_555 1_555
H8 C9 1_555 1_555
C13 C9 1_555 1_555
H11 C13 1_555 1_555
C23 C21 1_555 1_555
H14 C21 1_555 1_555
H15 C23 1_555 1_555

#END
