
###############################################################################
#
# This file contains modified crystal structure data generated from the
# MOF subset of the Cambridge Structural Database (CSD) v543 
# hosted by the Cambridge Crystallographic Data Centre (CCDC).
#
# This work is licensed under the Creative Commons
# Attribution-NonCommercial-ShareAlike 4.0 International License.
# To view a copy of this license, visit
# http://creativecommons.org/licenses/by-nc-sa/4.0/
# or send a letter to
# Creative Commons, PO Box 1866, Mountain View, CA 94042, USA.
#
# CIF created using the CSD Python API on 29 September 2022
# The structure has been converted into the P1 space group
# The structure has a 3D framework
# The original CSD entry SECBEL is in the triclinic crystal system
# The framework has been calculated to contain at least 10.0% void space
# The void calculation uses a probe of radius 1.32A, grid spacing 0.4
#
###############################################################################

data_SECBEL
_chemical_formula_moiety         '(C30 H24 Co2 Eu2 N4 O24)n'
_symmetry_cell_setting           triclinic
_symmetry_space_group_name_H-M   'P 1'
_symmetry_Int_Tables_number      1
_space_group_name_Hall           'P 1'
loop_
_symmetry_equiv_pos_site_id
_symmetry_equiv_pos_as_xyz
1 x,y,z
_cell_length_a                   9.967(2)
_cell_length_b                   10.637(2)
_cell_length_c                   10.910(3)
_cell_angle_alpha                80.559(3)
_cell_angle_beta                 72.534(3)
_cell_angle_gamma                74.352(3)
_cell_volume                     1058.09
loop_
_atom_site_label
_atom_site_type_symbol
_atom_site_fract_x
_atom_site_fract_y
_atom_site_fract_z
_atom_site_U_iso_or_equiv
_atom_site_thermal_displace_type
O1 O 0.1126(2) 0.0070(2) 0.72401(19) 0.0228 Uani
O13 O 0.0023(3) 0.1488(3) 0.0572(3) 0.0326 Uani
C2 C 0.0828(4) 0.2780(3) 0.3675(3) 0.0298 Uani
C3 C 0.1059(4) 0.2269(3) 0.4859(3) 0.0264 Uani
C4 C 0.0081(3) 0.1630(3) 0.5744(3) 0.0178 Uani
C5 C 0.0314(3) 0.1161(3) 0.7064(3) 0.0153 Uani
H4 H 0.191(5) 0.233(4) 0.503(4) 0.0390 Uiso
H9 H 0.151(5) 0.326(4) 0.299(4) 0.0490 Uiso
H11 H 0.073(11) 0.131(9) 0.017(9) 0.1650 Uiso
Eu5 Eu 0.174759(13) 0.693919(12) 0.035049(12) 0.0129 Uani
O9 O 0.0441(2) 0.3916(2) 0.8833(2) 0.0242 Uani
O10 O 0.1631(2) 0.5335(2) 0.9050(2) 0.0227 Uani
C15 C 0.0602(3) 0.4777(3) 0.9385(3) 0.0169 Uani
Co4 Co 0.28996(4) 0.86892(4) 0.61920(4) 0.0172 Uani
H14 H 0.3719 0.0665 0.6616 0.0440 Uiso
Co1 Co 0.71004(4) 0.13108(4) 0.38080(4) 0.0172 Uani
O2 O 0.9729(2) 0.1965(2) 0.7893(2) 0.0233 Uani
O3 O 0.7851(2) 0.0329(2) 0.7347(2) 0.0267 Uani
O4 O 0.6889(2) 0.0612(2) 0.5704(2) 0.0239 Uani
O5 O 0.2442(2) 0.4896(2) 0.1693(2) 0.0254 Uani
O6 O 0.3299(2) 0.6523(2) 0.1891(2) 0.0251 Uani
O7 O 0.5768(2) 0.3946(2) 0.09817(19) 0.0215 Uani
O8 O 0.7095(2) 0.24166(19) 0.20275(18) 0.0183 Uani
O11 O 0.5876(3) 0.0112(3) 0.3591(2) 0.0370 Uani
H1 H 0.4968 0.0396 0.3708 0.0440 Uiso
N1 N 0.8694(3) 0.1983(2) 0.4231(2) 0.0193 Uani
N2 N 0.5254(3) 0.2931(2) 0.4293(2) 0.0205 Uani
C1 C 0.9628(4) 0.2620(3) 0.3399(3) 0.0246 Uani
C6 C 0.8906(3) 0.1490(3) 0.5392(3) 0.0158 Uani
C7 C 0.7798(3) 0.0754(3) 0.6235(3) 0.0183 Uani
C8 C 0.4423(4) 0.3237(3) 0.5473(3) 0.0263 Uani
C9 C 0.3184(4) 0.4230(3) 0.5654(3) 0.0291 Uani
C10 C 0.2768(4) 0.4920(3) 0.4592(3) 0.0268 Uani
C11 C 0.3619(3) 0.4618(3) 0.3357(3) 0.0184 Uani
C12 C 0.3117(3) 0.5382(3) 0.2215(3) 0.0187 Uani
C13 C 0.4868(3) 0.3630(3) 0.3264(3) 0.0169 Uani
C14 C 0.5958(3) 0.3309(3) 0.1995(3) 0.0158 Uani
H5 H 0.476(4) 0.278(4) 0.614(4) 0.0280 Uiso
H6 H 0.947(4) 0.294(4) 0.271(4) 0.0300 Uiso
H7 H 0.261(4) 0.440(4) 0.652(4) 0.0330 Uiso
H8 H 0.203(4) 0.556(4) 0.467(4) 0.0310 Uiso
H10 H 0.985(5) 0.106(5) 0.109(5) 0.0460 Uiso
O14 O 0.9559(2) 0.6084(2) 0.1167(2) 0.0242 Uani
O15 O 0.8369(2) 0.4665(2) 0.0950(2) 0.0227 Uani
C16 C 0.9398(3) 0.5223(3) 0.0615(3) 0.0169 Uani
O25 O 0.2655(3) 0.8888(3) 0.0214(3) 0.0319 Uani
H15 H 0.3550 0.8811 0.0125 0.0380 Uiso
H24 H 0.258(4) 0.911(4) 0.075(4) 0.0240 Uiso
Eu3 Eu 0.825241(13) 0.306081(12) 0.964951(12) 0.0129 Uani
O30 O 0.0271(2) 0.8035(2) 0.2107(2) 0.0233 Uani
O12 O 0.7345(3) 0.1112(3) 0.9786(3) 0.0319 Uani
H3 H 0.6450 0.1189 0.9875 0.0380 Uiso
H12 H 0.742(4) 0.089(4) 0.925(4) 0.0240 Uiso
O18 O 0.2149(2) 0.9671(2) 0.2653(2) 0.0267 Uani
O19 O 0.3111(2) 0.9388(2) 0.4296(2) 0.0239 Uani
O20 O 0.7558(2) 0.5104(2) 0.8307(2) 0.0254 Uani
O21 O 0.6701(2) 0.3477(2) 0.8109(2) 0.0251 Uani
O22 O 0.4232(2) 0.6054(2) 0.90183(19) 0.0215 Uani
O23 O 0.2905(2) 0.75834(19) 0.79725(18) 0.0183 Uani
O24 O 0.4124(3) 0.9888(3) 0.6409(2) 0.0370 Uani
H13 H 0.5032 0.9604 0.6292 0.0440 Uiso
N3 N 0.1306(3) 0.8017(2) 0.5769(2) 0.0193 Uani
N4 N 0.4746(3) 0.7069(2) 0.5707(2) 0.0205 Uani
C17 C 0.0372(4) 0.7380(3) 0.6601(3) 0.0246 Uani
C22 C 0.1094(3) 0.8510(3) 0.4608(3) 0.0158 Uani
C23 C 0.2202(3) 0.9246(3) 0.3765(3) 0.0183 Uani
C24 C 0.5577(4) 0.6763(3) 0.4527(3) 0.0263 Uani
C25 C 0.6816(4) 0.5770(3) 0.4346(3) 0.0291 Uani
C26 C 0.7232(4) 0.5080(3) 0.5408(3) 0.0268 Uani
C27 C 0.6381(3) 0.5382(3) 0.6643(3) 0.0184 Uani
C28 C 0.6883(3) 0.4618(3) 0.7785(3) 0.0187 Uani
C29 C 0.5132(3) 0.6370(3) 0.6736(3) 0.0169 Uani
C30 C 0.4042(3) 0.6691(3) 0.8005(3) 0.0158 Uani
H17 H 0.524(4) 0.722(4) 0.386(4) 0.0280 Uiso
H18 H 0.053(4) 0.706(4) 0.729(4) 0.0300 Uiso
H19 H 0.739(4) 0.560(4) 0.348(4) 0.0330 Uiso
H20 H 0.797(4) 0.444(4) 0.533(4) 0.0310 Uiso
H22 H 0.015(5) 0.894(5) 0.891(5) 0.0460 Uiso
H2 H 0.6281 0.9335 0.3384 0.0440 Uiso
O28 O 0.8874(2) 0.9930(2) 0.27599(19) 0.0228 Uani
O26 O 0.9977(3) 0.8512(3) 0.9428(3) 0.0326 Uani
C18 C 0.9172(4) 0.7220(3) 0.6325(3) 0.0298 Uani
C19 C 0.8941(4) 0.7731(3) 0.5141(3) 0.0264 Uani
C20 C 0.9919(3) 0.8370(3) 0.4256(3) 0.0178 Uani
C21 C 0.9686(3) 0.8839(3) 0.2936(3) 0.0153 Uani
H16 H 0.809(5) 0.767(4) 0.497(4) 0.0390 Uiso
H21 H 0.849(5) 0.674(4) 0.701(4) 0.0490 Uiso
H23 H 0.927(11) 0.869(9) 0.983(9) 0.1650 Uiso
loop_
_atom_site_aniso_label
_atom_site_aniso_U_11
_atom_site_aniso_U_22
_atom_site_aniso_U_33
_atom_site_aniso_U_23
_atom_site_aniso_U_13
_atom_site_aniso_U_12
O1 0.0251 0.0204 0.0183 -0.003 -0.0067 0.0041
O13 0.0263 0.0389 0.0209 0.0068 -0.0049 0.0043
C2 0.0363 0.0305 0.0236 0.0053 -0.006 -0.0163
C3 0.029 0.0288 0.025 0.0017 -0.0092 -0.0129
C4 0.0226 0.0134 0.0158 -0.0045 -0.0043 -0.0005
C5 0.0135 0.0181 0.0147 -0.0036 -0.0024 -0.0047
Eu5 0.01305 0.01335 0.01117 -0.00154 -0.00227 -0.00198
O9 0.0217 0.0279 0.0246 -0.0108 0.0004 -0.0108
O10 0.0194 0.0272 0.0216 -0.0086 0.002 -0.0104
C15 0.0171 0.0169 0.0165 -0.0006 -0.0057 -0.0029
Co4 0.01691 0.0192 0.01348 0.00019 -0.00528 -0.0007
Co1 0.01691 0.0192 0.01348 0.00019 -0.00528 -0.0007
O2 0.0232 0.027 0.0184 -0.0098 -0.004 -0.0011
O3 0.0368 0.0311 0.0158 0.004 -0.0103 -0.014
O4 0.0226 0.0318 0.0189 0.0027 -0.0085 -0.0089
O5 0.0276 0.0259 0.0259 0.0052 -0.0133 -0.0092
O6 0.0293 0.0186 0.0271 0.0028 -0.0117 -0.0036
O7 0.0181 0.0279 0.0145 0.0037 -0.0044 -0.002
O8 0.015 0.0208 0.0132 0 -0.0013 0.0018
O11 0.0314 0.0465 0.0388 -0.0059 -0.0061 -0.0211
N1 0.0234 0.0176 0.0156 -0.0006 -0.007 -0.0014
N2 0.0215 0.0236 0.013 0.0002 -0.0054 -0.0001
C1 0.0378 0.0242 0.0113 0.0034 -0.0076 -0.0081
C6 0.0197 0.0137 0.012 -0.003 -0.0047 0.0009
C7 0.0207 0.0159 0.0159 -0.0025 -0.0048 0.0002
C8 0.0303 0.032 0.0117 -0.0008 -0.0043 -0.0016
C9 0.0307 0.0327 0.0154 -0.0049 0.0003 0.0008
C10 0.0228 0.0246 0.0242 -0.0046 -0.0022 0.0056
C11 0.0184 0.0196 0.0157 0.0006 -0.0034 -0.0044
C12 0.0122 0.0198 0.0184 -0.0006 -0.0014 0.0019
C13 0.0166 0.0187 0.014 0 -0.0032 -0.0035
C14 0.0146 0.0184 0.0141 -0.001 -0.0032 -0.0043
O14 0.0217 0.0279 0.0246 -0.0108 0.0004 -0.0108
O15 0.0194 0.0272 0.0216 -0.0086 0.002 -0.0104
C16 0.0171 0.0169 0.0165 -0.0006 -0.0057 -0.0029
O25 0.0411 0.0366 0.0233 -0.0087 -0.0039 -0.0197
Eu3 0.01305 0.01335 0.01117 -0.00154 -0.00227 -0.00198
O30 0.0232 0.027 0.0184 -0.0098 -0.004 -0.0011
O12 0.0411 0.0366 0.0233 -0.0087 -0.0039 -0.0197
O18 0.0368 0.0311 0.0158 0.004 -0.0103 -0.014
O19 0.0226 0.0318 0.0189 0.0027 -0.0085 -0.0089
O20 0.0276 0.0259 0.0259 0.0052 -0.0133 -0.0092
O21 0.0293 0.0186 0.0271 0.0028 -0.0117 -0.0036
O22 0.0181 0.0279 0.0145 0.0037 -0.0044 -0.002
O23 0.015 0.0208 0.0132 0 -0.0013 0.0018
O24 0.0314 0.0465 0.0388 -0.0059 -0.0061 -0.0211
N3 0.0234 0.0176 0.0156 -0.0006 -0.007 -0.0014
N4 0.0215 0.0236 0.013 0.0002 -0.0054 -0.0001
C17 0.0378 0.0242 0.0113 0.0034 -0.0076 -0.0081
C22 0.0197 0.0137 0.012 -0.003 -0.0047 0.0009
C23 0.0207 0.0159 0.0159 -0.0025 -0.0048 0.0002
C24 0.0303 0.032 0.0117 -0.0008 -0.0043 -0.0016
C25 0.0307 0.0327 0.0154 -0.0049 0.0003 0.0008
C26 0.0228 0.0246 0.0242 -0.0046 -0.0022 0.0056
C27 0.0184 0.0196 0.0157 0.0006 -0.0034 -0.0044
C28 0.0122 0.0198 0.0184 -0.0006 -0.0014 0.0019
C29 0.0166 0.0187 0.014 0 -0.0032 -0.0035
C30 0.0146 0.0184 0.0141 -0.001 -0.0032 -0.0043
O28 0.0251 0.0204 0.0183 -0.003 -0.0067 0.0041
O26 0.0263 0.0389 0.0209 0.0068 -0.0049 0.0043
C18 0.0363 0.0305 0.0236 0.0053 -0.006 -0.0163
C19 0.029 0.0288 0.025 0.0017 -0.0092 -0.0129
C20 0.0226 0.0134 0.0158 -0.0045 -0.0043 -0.0005
C21 0.0135 0.0181 0.0147 -0.0036 -0.0024 -0.0047
loop_
_geom_bond_atom_site_label_1
_geom_bond_atom_site_label_2
_geom_bond_site_symmetry_1
_geom_bond_site_symmetry_2
O1 C5 1_555 1_555
C3 C2 1_555 1_555
C4 C3 1_555 1_555
C5 C4 1_555 1_555
H4 C3 1_555 1_555
H9 C2 1_555 1_555
H11 O13 1_555 1_555
O10 C15 1_555 1_555
C15 O9 1_555 1_555
Co1 O4 1_555 1_555
O3 C7 1_555 1_555
O4 C7 1_555 1_555
O5 C12 1_555 1_555
O6 C12 1_555 1_555
O7 C14 1_555 1_555
O8 Co1 1_555 1_555
O11 Co1 1_555 1_555
H1 O11 1_555 1_555
N1 Co1 1_555 1_555
N2 Co1 1_555 1_555
C1 N1 1_555 1_555
C6 N1 1_555 1_555
C7 C6 1_555 1_555
C8 N2 1_555 1_555
C9 C8 1_555 1_555
C10 C9 1_555 1_555
C11 C10 1_555 1_555
C12 C11 1_555 1_555
C13 N2 1_555 1_555
C14 O8 1_555 1_555
H5 C8 1_555 1_555
H6 C1 1_555 1_555
H7 C9 1_555 1_555
H8 C10 1_555 1_555
O14 C16 1_555 1_555
Eu5 O5 1_555 1_555
O25 Eu5 1_555 1_555
H15 O25 1_555 1_555
H24 O25 1_555 1_555
Eu3 O2 1_555 1_555
O30 Eu5 1_555 1_555
O6 Eu5 1_555 1_555
C11 C13 1_555 1_555
C13 C14 1_555 1_555
O15 C16 1_555 1_555
O12 Eu3 1_555 1_555
H3 O12 1_555 1_555
H12 O12 1_555 1_555
Co4 O19 1_555 1_555
O18 C23 1_555 1_555
O19 C23 1_555 1_555
O20 Eu3 1_555 1_555
O21 Eu3 1_555 1_555
O23 Co4 1_555 1_555
O24 Co4 1_555 1_555
H13 O24 1_555 1_555
N3 Co4 1_555 1_555
N4 Co4 1_555 1_555
C17 N3 1_555 1_555
C22 N3 1_555 1_555
C23 C22 1_555 1_555
C24 N4 1_555 1_555
C25 C24 1_555 1_555
C26 C25 1_555 1_555
C27 C26 1_555 1_555
C28 O20 1_555 1_555
C29 N4 1_555 1_555
C30 O22 1_555 1_555
H17 C24 1_555 1_555
H18 C17 1_555 1_555
H19 C25 1_555 1_555
H20 C26 1_555 1_555
O21 C28 1_555 1_555
O23 C30 1_555 1_555
C27 C28 1_555 1_555
C27 C29 1_555 1_555
C29 C30 1_555 1_555
O28 C21 1_555 1_555
C19 C18 1_555 1_555
C20 C19 1_555 1_555
C21 C20 1_555 1_555
H16 C19 1_555 1_555
H21 C18 1_555 1_555
H23 O26 1_555 1_555

#END
