
###############################################################################
#
# This file contains modified crystal structure data generated from the
# MOF subset of the Cambridge Structural Database (CSD) v543 
# hosted by the Cambridge Crystallographic Data Centre (CCDC).
#
# This work is licensed under the Creative Commons
# Attribution-NonCommercial-ShareAlike 4.0 International License.
# To view a copy of this license, visit
# http://creativecommons.org/licenses/by-nc-sa/4.0/
# or send a letter to
# Creative Commons, PO Box 1866, Mountain View, CA 94042, USA.
#
# CIF created using the CSD Python API on 29 September 2022
# The structure has been converted into the P1 space group
# The structure has a 3D framework
# The original CSD entry SECBAH is in the triclinic crystal system
# The framework has been calculated to contain at least 10.0% void space
# The void calculation uses a probe of radius 1.32A, grid spacing 0.4
#
###############################################################################

data_SECBAH
_chemical_formula_moiety         '(C30 H24 Co2 N4 O26 Sm2)n'
_symmetry_cell_setting           triclinic
_symmetry_space_group_name_H-M   'P 1'
_symmetry_Int_Tables_number      1
_space_group_name_Hall           'P 1'
loop_
_symmetry_equiv_pos_site_id
_symmetry_equiv_pos_as_xyz
1 x,y,z
_cell_length_a                   10.0161(4)
_cell_length_b                   10.6766(5)
_cell_length_c                   10.9429(5)
_cell_angle_alpha                80.4810(10)
_cell_angle_beta                 72.4880(10)
_cell_angle_gamma                74.3200(10)
_cell_volume                     1069.93
loop_
_atom_site_label
_atom_site_type_symbol
_atom_site_fract_x
_atom_site_fract_y
_atom_site_fract_z
_atom_site_U_iso_or_equiv
_atom_site_thermal_displace_type
N3 N 0.0254(3) 0.2928(2) 0.4303(2) 0.0204 Uani
C22 C 0.0950(3) 0.3310(3) 0.2003(3) 0.0167 Uani
Co2 Co 0.20995(4) 0.13108(4) 0.38117(4) 0.0177 Uani
O18 O 0.2090(2) 0.24152(19) 0.20365(18) 0.0190 Uani
O19 O 0.0762(2) 0.3946(2) 0.09883(19) 0.0214 Uani
O22 O 0.0869(3) 0.0125(3) 0.3597(2) 0.0379 Uani
N4 N 0.3691(3) 0.1984(2) 0.4230(2) 0.0192 Uani
O23 O 0.1897(2) 0.0608(2) 0.5704(2) 0.0241 Uani
O26 O 0.5018(2) 0.1473(2) 0.0581(2) 0.0339 Uani
O27 O 0.3368(2) 0.4674(2) 0.0944(2) 0.0243 Uani
C24 C 0.4618(4) 0.2627(3) 0.3404(3) 0.0259 Uani
C25 C 0.3912(3) 0.1488(3) 0.5393(3) 0.0170 Uani
C26 C 0.2809(3) 0.0750(3) 0.6232(3) 0.0187 Uani
H18 H 0.1907 0.0783 0.0495 0.0390 Uiso
H20 H 0.4779 0.1177 0.1366 0.0410 Uiso
H21 H 0.5875 0.1218 0.0122 0.0410 Uiso
H22 H 0.442(4) 0.297(4) 0.262(4) 0.0350 Uiso
C27 C 0.5814(4) 0.2786(3) 0.3681(3) 0.0288 Uani
C28 C 0.5081(3) 0.1630(3) 0.5745(3) 0.0173 Uani
O30 O 0.2869(3) 0.0320(2) 0.7340(2) 0.0276 Uani
C29 C 0.6058(4) 0.2271(3) 0.4858(3) 0.0267 Uani
H23 H 0.649(5) 0.318(4) 0.301(4) 0.0540 Uiso
C30 C 0.5323(3) 0.1158(3) 0.7055(3) 0.0152 Uani
H24 H 0.692(4) 0.231(3) 0.506(3) 0.0250 Uiso
O31 O 0.6137(2) 0.0068(2) 0.7229(2) 0.0235 Uani
O32 O 0.4740(2) 0.1954(2) 0.7884(2) 0.0242 Uani
Sm5 Sm 0.324858(15) 0.305834(13) 0.964665(13) 0.0136 Uani
C4 C 0.0130(3) 0.6373(3) 0.6731(3) 0.0168 Uani
H5 H 0.0035 0.9589 0.6283 0.0450 Uiso
C9 C 0.0569(4) 0.6769(3) 0.4523(3) 0.0263 Uani
H8 H 0.023(4) 0.721(3) 0.387(4) 0.0280 Uiso
C13 C 0.1809(4) 0.5776(3) 0.4342(3) 0.0301 Uani
H11 H 0.233(4) 0.567(4) 0.350(4) 0.0350 Uiso
C17 C 0.1377(3) 0.5385(3) 0.6630(3) 0.0187 Uani
C19 C 0.2212(4) 0.5091(3) 0.5402(3) 0.0269 Uani
C20 C 0.1875(3) 0.4624(3) 0.7774(3) 0.0193 Uani
H13 H 0.294(4) 0.453(4) 0.534(4) 0.0400 Uiso
O16 O 0.1695(2) 0.3481(2) 0.8098(2) 0.0262 Uani
O17 O 0.2555(2) 0.5107(2) 0.8296(2) 0.0264 Uani
O25 O 0.2324(3) 0.1120(2) 0.9768(2) 0.0323 Uani
O28 O 0.5446(2) 0.3912(2) 0.8837(2) 0.0249 Uani
H19 H 0.2420 0.0786 0.9085 0.0390 Uiso
O24 O 0.3863(2) 0.9932(2) 0.2771(2) 0.0235 Uani
H16 H 0.1269 0.9351 0.3388 0.0450 Uiso
Co4 Co 0.79005(4) 0.86892(4) 0.61883(4) 0.0177 Uani
H6 H 0.8731 0.0649 0.6612 0.0450 Uiso
Sm1 Sm 0.675142(15) 0.694166(13) 0.035335(13) 0.0136 Uani
O3 O 0.4554(2) 0.6088(2) 0.1163(2) 0.0249 Uani
O4 O 0.7676(3) 0.8880(2) 0.0232(2) 0.0323 Uani
O7 O 0.5260(2) 0.8046(2) 0.2116(2) 0.0242 Uani
O8 O 0.8305(2) 0.6519(2) 0.1902(2) 0.0262 Uani
O9 O 0.7445(2) 0.4893(2) 0.1704(2) 0.0264 Uani
C2 C 0.4399(3) 0.5222(3) 0.0611(3) 0.0173 Uani
H2 H 0.7580 0.9214 0.0915 0.0390 Uiso
C3 C 0.8125(3) 0.5376(3) 0.2226(3) 0.0193 Uani
C5 C 0.8623(3) 0.4615(3) 0.3370(3) 0.0187 Uani
C10 C 0.7788(4) 0.4909(3) 0.4598(3) 0.0269 Uani
H9 H 0.706(4) 0.547(4) 0.466(4) 0.0400 Uiso
C18 C 0.9870(3) 0.3627(3) 0.3269(3) 0.0168 Uani
C21 C 0.8191(4) 0.4224(3) 0.5658(3) 0.0301 Uani
C23 C 0.9431(4) 0.3231(3) 0.5477(3) 0.0263 Uani
H14 H 0.767(4) 0.433(4) 0.650(4) 0.0350 Uiso
H15 H 0.977(4) 0.279(3) 0.613(4) 0.0280 Uiso
H17 H 0.9965 0.0411 0.3717 0.0450 Uiso
O1 O 0.9238(2) 0.6054(2) 0.90117(19) 0.0214 Uani
O2 O 0.7910(2) 0.75848(19) 0.79635(18) 0.0190 Uani
O5 O 0.4982(2) 0.8527(2) 0.9419(2) 0.0339 Uani
O6 O 0.6632(2) 0.5326(2) 0.9056(2) 0.0243 Uani
C1 C 0.9050(3) 0.6690(3) 0.7997(3) 0.0167 Uani
H1 H 0.8093 0.9217 0.9505 0.0390 Uiso
H3 H 0.5221 0.8823 0.8634 0.0410 Uiso
H4 H 0.4125 0.8782 0.9878 0.0410 Uiso
O10 O 0.8103(2) 0.9392(2) 0.4296(2) 0.0241 Uani
O11 O 0.9131(3) 0.9875(3) 0.6403(2) 0.0379 Uani
N1 N 0.6309(3) 0.8016(2) 0.5770(2) 0.0192 Uani
N2 N 0.9746(3) 0.7072(2) 0.5697(2) 0.0204 Uani
C6 C 0.7191(3) 0.9250(3) 0.3768(3) 0.0187 Uani
C7 C 0.5382(4) 0.7373(3) 0.6596(3) 0.0259 Uani
C8 C 0.6088(3) 0.8512(3) 0.4607(3) 0.0170 Uani
O13 O 0.7131(3) 0.9680(2) 0.2660(2) 0.0276 Uani
H7 H 0.558(4) 0.703(4) 0.738(4) 0.0350 Uiso
C11 C 0.4186(4) 0.7214(3) 0.6319(3) 0.0288 Uani
C12 C 0.4919(3) 0.8370(3) 0.4255(3) 0.0173 Uani
H10 H 0.351(5) 0.682(4) 0.699(4) 0.0540 Uiso
C14 C 0.3942(4) 0.7729(3) 0.5142(3) 0.0267 Uani
C15 C 0.4677(3) 0.8842(3) 0.2945(3) 0.0152 Uani
H12 H 0.308(4) 0.769(3) 0.494(3) 0.0250 Uiso
C16 C 0.5601(3) 0.4778(3) 0.9389(3) 0.0173 Uani
loop_
_atom_site_aniso_label
_atom_site_aniso_U_11
_atom_site_aniso_U_22
_atom_site_aniso_U_33
_atom_site_aniso_U_23
_atom_site_aniso_U_13
_atom_site_aniso_U_12
N3 0.0223 0.0216 0.0141 0.001 -0.0056 -0.0009
C22 0.0175 0.0169 0.0166 0.0003 -0.0054 -0.0056
Co2 0.0191 0.0185 0.0143 0.00098 -0.00698 -0.00108
O18 0.0169 0.0208 0.0144 0.0015 -0.0034 0.0008
O19 0.0203 0.0263 0.0134 0.0048 -0.0049 -0.0021
O22 0.0316 0.0475 0.0401 -0.0061 -0.007 -0.0201
N4 0.0252 0.0167 0.0145 -0.0003 -0.0069 -0.0018
O23 0.024 0.0296 0.0208 0.005 -0.0106 -0.0088
O26 0.0256 0.0431 0.0219 0.0064 -0.0058 0.004
O27 0.0221 0.0285 0.0236 -0.0079 0.0003 -0.0119
C24 0.0377 0.0233 0.0165 0.0031 -0.0087 -0.0084
C25 0.0221 0.0125 0.0149 -0.0019 -0.0065 0.0003
C26 0.0238 0.0145 0.0161 -0.0031 -0.0053 -0.0007
C27 0.0372 0.03 0.0202 0.0044 -0.0062 -0.0154
C28 0.0233 0.0118 0.0165 -0.0043 -0.0069 0
O30 0.0412 0.0298 0.0162 0.005 -0.0118 -0.015
C29 0.0318 0.0291 0.0246 0.0005 -0.012 -0.0129
C30 0.016 0.0165 0.0149 -0.0021 -0.0042 -0.0061
O31 0.0273 0.0197 0.0201 -0.0022 -0.009 0.0034
O32 0.0265 0.0253 0.0199 -0.0089 -0.0067 -0.0001
Sm5 0.01544 0.01275 0.01223 -0.00083 -0.0039 -0.0027
C4 0.0192 0.017 0.0143 -0.0004 -0.0053 -0.0043
C9 0.0314 0.0297 0.0136 0.0003 -0.0067 -0.0007
C13 0.0359 0.0332 0.014 -0.0044 -0.0013 -0.0008
C17 0.0206 0.0166 0.0188 -0.0004 -0.0065 -0.0037
C19 0.0251 0.0241 0.0237 -0.0041 -0.0029 0.0041
C20 0.0161 0.0188 0.0171 0.0007 -0.0019 0.0012
O16 0.0315 0.018 0.0306 0.0035 -0.0145 -0.0046
O17 0.0298 0.0255 0.0281 0.0087 -0.0155 -0.0113
O25 0.0489 0.0324 0.0202 -0.0053 -0.0033 -0.0219
O28 0.0238 0.0268 0.0255 -0.0124 -0.0004 -0.0094
O24 0.0273 0.0197 0.0201 -0.0022 -0.009 0.0034
Co4 0.0191 0.0185 0.0143 0.00098 -0.00698 -0.00108
Sm1 0.01544 0.01275 0.01223 -0.00083 -0.0039 -0.0027
O3 0.0238 0.0268 0.0255 -0.0124 -0.0004 -0.0094
O4 0.0489 0.0324 0.0202 -0.0053 -0.0033 -0.0219
O7 0.0265 0.0253 0.0199 -0.0089 -0.0067 -0.0001
O8 0.0315 0.018 0.0306 0.0035 -0.0145 -0.0046
O9 0.0298 0.0255 0.0281 0.0087 -0.0155 -0.0113
C2 0.017 0.0166 0.0174 -0.0015 -0.0051 -0.0021
C3 0.0161 0.0188 0.0171 0.0007 -0.0019 0.0012
C5 0.0206 0.0166 0.0188 -0.0004 -0.0065 -0.0037
C10 0.0251 0.0241 0.0237 -0.0041 -0.0029 0.0041
C18 0.0192 0.017 0.0143 -0.0004 -0.0053 -0.0043
C21 0.0359 0.0332 0.014 -0.0044 -0.0013 -0.0008
C23 0.0314 0.0297 0.0136 0.0003 -0.0067 -0.0007
O1 0.0203 0.0263 0.0134 0.0048 -0.0049 -0.0021
O2 0.0169 0.0208 0.0144 0.0015 -0.0034 0.0008
O5 0.0256 0.0431 0.0219 0.0064 -0.0058 0.004
O6 0.0221 0.0285 0.0236 -0.0079 0.0003 -0.0119
C1 0.0175 0.0169 0.0166 0.0003 -0.0054 -0.0056
O10 0.024 0.0296 0.0208 0.005 -0.0106 -0.0088
O11 0.0316 0.0475 0.0401 -0.0061 -0.007 -0.0201
N1 0.0252 0.0167 0.0145 -0.0003 -0.0069 -0.0018
N2 0.0223 0.0216 0.0141 0.001 -0.0056 -0.0009
C6 0.0238 0.0145 0.0161 -0.0031 -0.0053 -0.0007
C7 0.0377 0.0233 0.0165 0.0031 -0.0087 -0.0084
C8 0.0221 0.0125 0.0149 -0.0019 -0.0065 0.0003
O13 0.0412 0.0298 0.0162 0.005 -0.0118 -0.015
C11 0.0372 0.03 0.0202 0.0044 -0.0062 -0.0154
C12 0.0233 0.0118 0.0165 -0.0043 -0.0069 0
C14 0.0318 0.0291 0.0246 0.0005 -0.012 -0.0129
C15 0.016 0.0165 0.0149 -0.0021 -0.0042 -0.0061
C16 0.017 0.0166 0.0174 -0.0015 -0.0051 -0.0021
loop_
_geom_bond_atom_site_label_1
_geom_bond_atom_site_label_2
_geom_bond_site_symmetry_1
_geom_bond_site_symmetry_2
Co2 N3 1_555 1_555
O18 C22 1_555 1_555
O19 C22 1_555 1_555
O22 Co2 1_555 1_555
N4 Co2 1_555 1_555
O23 Co2 1_555 1_555
C24 N4 1_555 1_555
C25 N4 1_555 1_555
C26 O23 1_555 1_555
H20 O26 1_555 1_555
H21 O26 1_555 1_555
H22 C24 1_555 1_555
C27 C24 1_555 1_555
C28 C25 1_555 1_555
O30 C26 1_555 1_555
C29 C27 1_555 1_555
H23 C27 1_555 1_555
C30 C28 1_555 1_555
H24 C29 1_555 1_555
O31 C30 1_555 1_555
O32 C30 1_555 1_555
Sm5 O32 1_555 1_555
Co2 O18 1_555 1_555
C25 C26 1_555 1_555
C28 C29 1_555 1_555
H8 C9 1_555 1_555
C13 C9 1_555 1_555
H11 C13 1_555 1_555
C17 C4 1_555 1_555
C19 C13 1_555 1_555
C20 C17 1_555 1_555
H13 C19 1_555 1_555
O16 C20 1_555 1_555
O17 C20 1_555 1_555
Sm5 O16 1_555 1_555
O25 Sm5 1_555 1_555
O28 Sm5 1_555 1_555
H19 O25 1_555 1_555
C17 C19 1_555 1_555
O17 Sm5 1_555 1_555
O3 Sm1 1_555 1_555
O4 Sm1 1_555 1_555
O7 Sm1 1_555 1_555
O8 Sm1 1_555 1_555
O9 Sm1 1_555 1_555
C2 O3 1_555 1_555
H2 O4 1_555 1_555
C3 O8 1_555 1_555
C5 C3 1_555 1_555
C10 C5 1_555 1_555
H9 C10 1_555 1_555
O27 C2 1_555 1_555
C18 C5 1_555 1_555
C21 C10 1_555 1_555
C23 C21 1_555 1_555
H14 C21 1_555 1_555
H15 C23 1_555 1_555
O9 C3 1_555 1_555
O1 C1 1_555 1_555
C1 O2 1_555 1_555
Co4 O2 1_555 1_555
H3 O5 1_555 1_555
H4 O5 1_555 1_555
O10 Co4 1_555 1_555
O11 Co4 1_555 1_555
N1 Co4 1_555 1_555
N2 Co4 1_555 1_555
C6 O10 1_555 1_555
C7 N1 1_555 1_555
C8 N1 1_555 1_555
O13 C6 1_555 1_555
H7 C7 1_555 1_555
C11 C7 1_555 1_555
C12 C8 1_555 1_555
H10 C11 1_555 1_555
C14 C11 1_555 1_555
C15 C12 1_555 1_555
H12 C14 1_555 1_555
C16 O6 1_555 1_555
O28 C16 1_555 1_555
O24 C15 1_555 1_555
O7 C15 1_555 1_555
C6 C8 1_555 1_555
C12 C14 1_555 1_555

#END
