
###############################################################################
#
# This file contains modified crystal structure data generated from the
# MOF subset of the Cambridge Structural Database (CSD) v543 
# hosted by the Cambridge Crystallographic Data Centre (CCDC).
#
# This work is licensed under the Creative Commons
# Attribution-NonCommercial-ShareAlike 4.0 International License.
# To view a copy of this license, visit
# http://creativecommons.org/licenses/by-nc-sa/4.0/
# or send a letter to
# Creative Commons, PO Box 1866, Mountain View, CA 94042, USA.
#
# CIF created using the CSD Python API on 29 September 2022
# The structure has been converted into the P1 space group
# The structure has a 3D framework
# The original CSD entry SECBOV is in the triclinic crystal system
# The framework has been calculated to contain at least 10.0% void space
# The void calculation uses a probe of radius 1.32A, grid spacing 0.4
#
###############################################################################

data_SECBOV
_chemical_formula_moiety         '(C30 H24 Co2 N4 O24 Tb2)n'
_symmetry_cell_setting           triclinic
_symmetry_space_group_name_H-M   'P 1'
_symmetry_Int_Tables_number      1
_space_group_name_Hall           'P 1'
loop_
_symmetry_equiv_pos_site_id
_symmetry_equiv_pos_as_xyz
1 x,y,z
_cell_length_a                   9.9876(6)
_cell_length_b                   10.6190(6)
_cell_length_c                   10.9342(6)
_cell_angle_alpha                80.6540(10)
_cell_angle_beta                 72.3250(10)
_cell_angle_gamma                74.3520(10)
_cell_volume                     1059.86
loop_
_atom_site_label
_atom_site_type_symbol
_atom_site_fract_x
_atom_site_fract_y
_atom_site_fract_z
_atom_site_U_iso_or_equiv
_atom_site_thermal_displace_type
Tb5 Tb 0.173910(14) 0.193297(12) 0.034797(12) 0.0121 Uani
O14 O 0.1629(2) 0.0345(2) 0.9045(2) 0.0221 Uani
O1 O 0.1109(2) 0.5068(2) 0.7261(2) 0.0210 Uani
O12 O 0.0017(3) 0.6515(3) 0.0561(3) 0.0291 Uani
H4 H 0.072(7) 0.620(6) 0.009(6) 0.0710 Uiso
C2 C 0.0841(4) 0.7764(3) 0.3674(3) 0.0273 Uani
H8 H 0.152(4) 0.818(4) 0.306(4) 0.0350 Uiso
C3 C 0.1067(4) 0.7259(3) 0.4861(3) 0.0249 Uani
H9 H 0.190(4) 0.734(4) 0.508(4) 0.0340 Uiso
C4 C 0.0077(3) 0.6626(3) 0.5753(3) 0.0163 Uani
C5 C 0.0302(3) 0.6169(3) 0.7079(3) 0.0141 Uani
Co4 Co 0.28943(4) 0.36893(4) 0.61991(4) 0.0160 Uani
O6 O 0.3287(3) 0.1530(2) 0.1874(2) 0.0242 Uani
O10 O 0.9566(2) 0.1079(2) 0.1177(2) 0.0220 Uani
H12 H 0.193(5) 0.058(5) 0.465(4) 0.0510 Uiso
C12 C 0.3117(3) 0.0382(3) 0.2193(3) 0.0176 Uani
C15 C 0.9401(3) 0.0217(3) 0.0619(3) 0.0155 Uani
O26 O 0.2633(3) 0.3869(2) 0.0217(2) 0.0280 Uani
H18 H 0.2244 0.4399 0.0799 0.0340 Uiso
O30 O 0.0287(2) 0.3016(2) 0.2102(2) 0.0218 Uani
O18 O 0.2176(3) 0.4658(2) 0.2642(2) 0.0261 Uani
O19 O 0.3123(2) 0.4380(2) 0.4296(2) 0.0221 Uani
O20 O 0.7560(2) 0.0107(2) 0.8336(2) 0.0244 Uani
O22 O 0.4207(2) 0.1054(2) 0.90379(19) 0.0192 Uani
O23 O 0.2889(2) 0.2584(2) 0.79800(19) 0.0175 Uani
O24 O 0.4111(3) 0.4903(3) 0.6410(2) 0.0352 Uani
H13 H 0.5019 0.4625 0.6291 0.0420 Uiso
H14 H 0.3699 0.5680 0.6615 0.0420 Uiso
H15 H 0.021(5) 0.400(5) 0.882(5) 0.0460 Uiso
H17 H 0.3336 0.4018 0.9588 0.0340 Uiso
N3 N 0.1304(3) 0.3020(2) 0.5767(2) 0.0178 Uani
N4 N 0.4755(3) 0.2064(3) 0.5713(2) 0.0193 Uani
C17 C 0.0356(4) 0.2390(3) 0.6603(3) 0.0238 Uani
H19 H 0.059(4) 0.209(4) 0.737(4) 0.0380 Uiso
C22 C 0.1097(3) 0.3504(3) 0.4603(3) 0.0153 Uani
C23 C 0.2218(3) 0.4237(3) 0.3756(3) 0.0172 Uani
C24 C 0.5588(4) 0.1750(3) 0.4539(3) 0.0243 Uani
H22 H 0.532(4) 0.221(4) 0.385(4) 0.0270 Uiso
C25 C 0.6838(4) 0.0747(3) 0.4356(3) 0.0279 Uani
H23 H 0.743(4) 0.056(4) 0.349(4) 0.0340 Uiso
C26 C 0.7245(4) 0.0076(3) 0.5428(3) 0.0243 Uani
C27 C 0.6392(3) 0.0378(3) 0.6662(3) 0.0169 Uani
C29 C 0.5133(3) 0.1367(3) 0.6753(3) 0.0154 Uani
C30 C 0.4035(3) 0.1687(3) 0.8017(3) 0.0147 Uani
O15 O 0.0434(2) 0.8921(2) 0.8823(2) 0.0220 Uani
C16 C 0.0599(3) 0.9783(3) 0.9381(3) 0.0155 Uani
Co1 Co 0.71057(4) 0.63107(4) 0.38009(4) 0.0160 Uani
O2 O 0.9713(2) 0.6984(2) 0.7898(2) 0.0218 Uani
O3 O 0.7824(3) 0.5342(2) 0.7358(2) 0.0261 Uani
O4 O 0.6877(2) 0.5620(2) 0.5704(2) 0.0221 Uani
O5 O 0.2440(2) 0.9893(2) 0.1664(2) 0.0244 Uani
O7 O 0.5793(2) 0.8946(2) 0.09621(19) 0.0192 Uani
O8 O 0.7111(2) 0.7416(2) 0.20200(19) 0.0175 Uani
O9 O 0.8371(2) 0.9655(2) 0.0955(2) 0.0221 Uani
O11 O 0.5889(3) 0.5097(3) 0.3590(2) 0.0352 Uani
H1 H 0.4981 0.5375 0.3709 0.0420 Uiso
H2 H 0.6301 0.4320 0.3385 0.0420 Uiso
H3 H 0.979(5) 0.600(5) 0.118(5) 0.0460 Uiso
H5 H 0.6664 0.5982 0.0412 0.0340 Uiso
N1 N 0.8696(3) 0.6980(2) 0.4233(2) 0.0178 Uani
N2 N 0.5245(3) 0.7936(3) 0.4287(2) 0.0193 Uani
C1 C 0.9644(4) 0.7610(3) 0.3397(3) 0.0238 Uani
H7 H 0.941(4) 0.791(4) 0.263(4) 0.0380 Uiso
C6 C 0.8903(3) 0.6496(3) 0.5397(3) 0.0153 Uani
C7 C 0.7782(3) 0.5763(3) 0.6244(3) 0.0172 Uani
C8 C 0.4412(4) 0.8250(3) 0.5461(3) 0.0243 Uani
H10 H 0.468(4) 0.779(4) 0.615(4) 0.0270 Uiso
C9 C 0.3162(4) 0.9253(3) 0.5644(3) 0.0279 Uani
H11 H 0.257(4) 0.944(4) 0.651(4) 0.0340 Uiso
C10 C 0.2755(4) 0.9924(3) 0.4572(3) 0.0243 Uani
C11 C 0.3608(3) 0.9622(3) 0.3338(3) 0.0169 Uani
C13 C 0.4867(3) 0.8633(3) 0.3247(3) 0.0154 Uani
C14 C 0.5965(3) 0.8313(3) 0.1983(3) 0.0147 Uani
Tb3 Tb 0.826090(14) 0.806703(12) 0.965203(12) 0.0121 Uani
O28 O 0.8891(2) 0.4932(2) 0.2739(2) 0.0210 Uani
O13 O 0.7367(3) 0.6131(2) 0.9783(2) 0.0280 Uani
H6 H 0.7756 0.5601 0.9201 0.0340 Uiso
O21 O 0.6713(3) 0.8470(2) 0.8126(2) 0.0242 Uani
H24 H 0.807(5) 0.942(5) 0.535(4) 0.0510 Uiso
C28 C 0.6883(3) 0.9618(3) 0.7807(3) 0.0176 Uani
O25 O 0.9983(3) 0.3485(3) 0.9439(3) 0.0291 Uani
H16 H 0.928(7) 0.380(6) 0.991(6) 0.0710 Uiso
C18 C 0.9159(4) 0.2236(3) 0.6326(3) 0.0273 Uani
H20 H 0.848(4) 0.182(4) 0.694(4) 0.0350 Uiso
C19 C 0.8933(4) 0.2741(3) 0.5139(3) 0.0249 Uani
H21 H 0.810(4) 0.266(4) 0.492(4) 0.0340 Uiso
C20 C 0.9923(3) 0.3374(3) 0.4247(3) 0.0163 Uani
C21 C 0.9698(3) 0.3831(3) 0.2921(3) 0.0141 Uani
loop_
_atom_site_aniso_label
_atom_site_aniso_U_11
_atom_site_aniso_U_22
_atom_site_aniso_U_33
_atom_site_aniso_U_23
_atom_site_aniso_U_13
_atom_site_aniso_U_12
Tb5 0.01226 0.01292 0.01147 -0.00171 -0.00417 -0.00196
O14 0.0196 0.0279 0.0211 -0.0073 -0.0007 -0.0118
O1 0.0226 0.018 0.0194 -0.0024 -0.0079 0.0031
O12 0.0212 0.0351 0.0223 0.0055 -0.006 0.0032
C2 0.036 0.0286 0.0203 0.0058 -0.0076 -0.0174
C3 0.027 0.0269 0.0253 -0.0001 -0.0103 -0.0115
C4 0.0212 0.0132 0.0153 -0.0028 -0.0077 -0.0014
C5 0.0122 0.0168 0.0152 -0.0019 -0.005 -0.0048
Co4 0.0157 0.0186 0.0135 0 -0.0072 -0.00077
O6 0.0287 0.0168 0.0278 0.0023 -0.0136 -0.0023
O10 0.0187 0.0263 0.0236 -0.0121 -0.0018 -0.0085
C12 0.0104 0.0184 0.0188 -0.0009 -0.0015 0.0017
C15 0.0146 0.017 0.0166 -0.0007 -0.0075 -0.0032
O26 0.0361 0.0293 0.0214 -0.0066 -0.0023 -0.0162
O30 0.0215 0.0251 0.0189 -0.0104 -0.0058 -0.0005
O18 0.0383 0.0315 0.0144 0.0049 -0.013 -0.0154
O19 0.0211 0.0305 0.0172 0.0027 -0.0093 -0.0085
O20 0.0266 0.0238 0.026 0.007 -0.0148 -0.0078
O22 0.0141 0.0266 0.0126 0.0025 -0.0036 0
O23 0.0133 0.0199 0.0158 -0.0004 -0.0043 0.0015
O24 0.0286 0.0468 0.036 -0.0074 -0.0071 -0.0182
N3 0.0229 0.0173 0.0139 -0.0019 -0.0084 -0.0017
N4 0.0192 0.0218 0.0142 0.0002 -0.0056 -0.0003
C17 0.0335 0.0226 0.0152 0.0017 -0.0077 -0.0071
C22 0.0187 0.0134 0.013 -0.0031 -0.0062 0.0007
C23 0.018 0.0164 0.0167 -0.003 -0.0061 -0.0009
C24 0.0271 0.0308 0.0124 -0.0006 -0.0066 -0.0021
C25 0.0298 0.0312 0.0159 -0.0056 -0.0014 0.0004
C26 0.022 0.0224 0.0232 -0.0035 -0.0045 0.0026
C27 0.0172 0.0164 0.0173 0.0001 -0.0056 -0.0041
C29 0.014 0.0176 0.0152 -0.0003 -0.0059 -0.0033
C30 0.0139 0.0176 0.0148 -0.0019 -0.0049 -0.0059
O15 0.0187 0.0263 0.0236 -0.0121 -0.0018 -0.0085
C16 0.0146 0.017 0.0166 -0.0007 -0.0075 -0.0032
Co1 0.0157 0.0186 0.0135 0 -0.0072 -0.00077
O2 0.0215 0.0251 0.0189 -0.0104 -0.0058 -0.0005
O3 0.0383 0.0315 0.0144 0.0049 -0.013 -0.0154
O4 0.0211 0.0305 0.0172 0.0027 -0.0093 -0.0085
O5 0.0266 0.0238 0.026 0.007 -0.0148 -0.0078
O7 0.0141 0.0266 0.0126 0.0025 -0.0036 0
O8 0.0133 0.0199 0.0158 -0.0004 -0.0043 0.0015
O9 0.0196 0.0279 0.0211 -0.0073 -0.0007 -0.0118
O11 0.0286 0.0468 0.036 -0.0074 -0.0071 -0.0182
N1 0.0229 0.0173 0.0139 -0.0019 -0.0084 -0.0017
N2 0.0192 0.0218 0.0142 0.0002 -0.0056 -0.0003
C1 0.0335 0.0226 0.0152 0.0017 -0.0077 -0.0071
C6 0.0187 0.0134 0.013 -0.0031 -0.0062 0.0007
C7 0.018 0.0164 0.0167 -0.003 -0.0061 -0.0009
C8 0.0271 0.0308 0.0124 -0.0006 -0.0066 -0.0021
C9 0.0298 0.0312 0.0159 -0.0056 -0.0014 0.0004
C10 0.022 0.0224 0.0232 -0.0035 -0.0045 0.0026
C11 0.0172 0.0164 0.0173 0.0001 -0.0056 -0.0041
C13 0.014 0.0176 0.0152 -0.0003 -0.0059 -0.0033
C14 0.0139 0.0176 0.0148 -0.0019 -0.0049 -0.0059
Tb3 0.01226 0.01292 0.01147 -0.00171 -0.00417 -0.00196
O28 0.0226 0.018 0.0194 -0.0024 -0.0079 0.0031
O13 0.0361 0.0293 0.0214 -0.0066 -0.0023 -0.0162
O21 0.0287 0.0168 0.0278 0.0023 -0.0136 -0.0023
C28 0.0104 0.0184 0.0188 -0.0009 -0.0015 0.0017
O25 0.0212 0.0351 0.0223 0.0055 -0.006 0.0032
C18 0.036 0.0286 0.0203 0.0058 -0.0076 -0.0174
C19 0.027 0.0269 0.0253 -0.0001 -0.0103 -0.0115
C20 0.0212 0.0132 0.0153 -0.0028 -0.0077 -0.0014
C21 0.0122 0.0168 0.0152 -0.0019 -0.005 -0.0048
loop_
_geom_bond_atom_site_label_1
_geom_bond_atom_site_label_2
_geom_bond_site_symmetry_1
_geom_bond_site_symmetry_2
O1 C5 1_555 1_555
H4 O12 1_555 1_555
H8 C2 1_555 1_555
C3 C2 1_555 1_555
H9 C3 1_555 1_555
C4 C3 1_555 1_555
C5 C4 1_555 1_555
Co4 O1 1_555 1_555
O6 C12 1_555 1_555
O10 C15 1_555 1_555
O26 Tb5 1_555 1_555
H18 O26 1_555 1_555
O30 Tb5 1_555 1_555
O6 Tb5 1_555 1_555
Co4 O19 1_555 1_555
O18 C23 1_555 1_555
O19 C23 1_555 1_555
O24 Co4 1_555 1_555
H13 O24 1_555 1_555
H14 O24 1_555 1_555
N3 Co4 1_555 1_555
N4 Co4 1_555 1_555
C17 N3 1_555 1_555
H19 C17 1_555 1_555
C22 N3 1_555 1_555
C23 C22 1_555 1_555
C24 N4 1_555 1_555
H22 C24 1_555 1_555
C25 C24 1_555 1_555
H23 C25 1_555 1_555
C26 C25 1_555 1_555
C27 C26 1_555 1_555
C29 N4 1_555 1_555
C30 O22 1_555 1_555
Co4 O23 1_555 1_555
O23 C30 1_555 1_555
C27 C29 1_555 1_555
C29 C30 1_555 1_555
O15 C16 1_555 1_555
Co1 O4 1_555 1_555
O3 C7 1_555 1_555
O4 C7 1_555 1_555
O7 C14 1_555 1_555
O11 Co1 1_555 1_555
H1 O11 1_555 1_555
H2 O11 1_555 1_555
N1 Co1 1_555 1_555
N2 Co1 1_555 1_555
C1 N1 1_555 1_555
H7 C1 1_555 1_555
C6 N1 1_555 1_555
C7 C6 1_555 1_555
C8 N2 1_555 1_555
H10 C8 1_555 1_555
C9 C8 1_555 1_555
H11 C9 1_555 1_555
C10 C9 1_555 1_555
C11 C10 1_555 1_555
C13 N2 1_555 1_555
C14 O8 1_555 1_555
Tb3 O2 1_555 1_555
O28 Co1 1_555 1_555
Co1 O8 1_555 1_555
C11 C13 1_555 1_555
C13 C14 1_555 1_555
O13 Tb3 1_555 1_555
H6 O13 1_555 1_555
O21 Tb3 1_555 1_555
O21 C28 1_555 1_555
O28 C21 1_555 1_555
H16 O25 1_555 1_555
H20 C18 1_555 1_555
C19 C18 1_555 1_555
H21 C19 1_555 1_555
C20 C19 1_555 1_555
C21 C20 1_555 1_555

#END
