
###############################################################################
#
# This file contains modified crystal structure data generated from the
# MOF subset of the Cambridge Structural Database (CSD) v543 
# hosted by the Cambridge Crystallographic Data Centre (CCDC).
#
# This work is licensed under the Creative Commons
# Attribution-NonCommercial-ShareAlike 4.0 International License.
# To view a copy of this license, visit
# http://creativecommons.org/licenses/by-nc-sa/4.0/
# or send a letter to
# Creative Commons, PO Box 1866, Mountain View, CA 94042, USA.
#
# CIF created using the CSD Python API on 29 September 2022
# The structure has been converted into the P1 space group
# The structure has a 3D framework
# The original CSD entry SECBIP is in the triclinic crystal system
# The framework has been calculated to contain at least 10.0% void space
# The void calculation uses a probe of radius 1.32A, grid spacing 0.4
#
###############################################################################

data_SECBIP
_chemical_formula_moiety         '(C30 H24 Co2 Gd2 N4 O26)n'
_symmetry_cell_setting           triclinic
_symmetry_space_group_name_H-M   'P 1'
_symmetry_Int_Tables_number      1
_space_group_name_Hall           'P 1'
loop_
_symmetry_equiv_pos_site_id
_symmetry_equiv_pos_as_xyz
1 x,y,z
_cell_length_a                   9.9892(9)
_cell_length_b                   10.6271(9)
_cell_length_c                   10.9216(9)
_cell_angle_alpha                80.5780(10)
_cell_angle_beta                 72.3510(10)
_cell_angle_gamma                74.3410(10)
_cell_volume                     1059.58
loop_
_atom_site_label
_atom_site_type_symbol
_atom_site_fract_x
_atom_site_fract_y
_atom_site_fract_z
_atom_site_U_iso_or_equiv
_atom_site_thermal_displace_type
Co1 Co 0.21044(5) 0.13108(4) 0.38039(4) 0.0177 Uani
O1 O 0.6117(3) 0.0071(2) 0.7249(2) 0.0227 Uani
O2 O 0.4724(3) 0.1971(2) 0.7896(2) 0.0238 Uani
O3 O 0.2843(3) 0.0335(2) 0.7349(2) 0.0268 Uani
O4 O 0.1883(2) 0.0613(2) 0.5705(2) 0.0234 Uani
O7 O 0.0782(2) 0.3944(2) 0.0975(2) 0.0213 Uani
O8 O 0.2105(2) 0.2418(2) 0.2022(2) 0.0183 Uani
O9 O 0.3375(2) 0.4662(2) 0.0950(2) 0.0241 Uani
O10 O 0.4559(3) 0.6083(2) 0.1171(2) 0.0237 Uani
O11 O 0.0879(3) 0.0110(3) 0.3593(3) 0.0383 Uani
H3 H 0.1648 0.0977 0.0407 0.0370 Uiso
O13 O 0.5021(3) 0.1496(2) 0.0566(2) 0.0328 Uani
H5 H 0.4798 0.1232 0.1363 0.0390 Uiso
H6 H 0.5866 0.1208 0.0091 0.0390 Uiso
C1 C 0.4642(4) 0.2611(3) 0.3395(3) 0.0243 Uani
H7 H 0.441(4) 0.296(3) 0.267(4) 0.0220 Uiso
C2 C 0.5827(4) 0.2777(4) 0.3680(4) 0.0298 Uani
H8 H 0.648(5) 0.315(4) 0.308(4) 0.0390 Uiso
C3 C 0.6065(4) 0.2262(4) 0.4860(3) 0.0259 Uani
H9 H 0.689(4) 0.225(4) 0.508(4) 0.0310 Uiso
C4 C 0.5077(3) 0.1628(3) 0.5744(3) 0.0173 Uani
C5 C 0.5310(3) 0.1165(3) 0.7068(3) 0.0153 Uani
C6 C 0.3908(3) 0.1494(3) 0.5398(3) 0.0158 Uani
C7 C 0.2795(4) 0.0757(3) 0.6237(3) 0.0186 Uani
C14 C 0.0963(3) 0.3308(3) 0.1988(3) 0.0168 Uani
C15 C 0.4401(3) 0.5219(3) 0.0614(3) 0.0184 Uani
N1 N 0.3694(3) 0.1977(3) 0.4233(2) 0.0190 Uani
N2 N 0.0253(3) 0.2932(3) 0.4292(3) 0.0200 Uani
Gd3 Gd 0.325620(16) 0.306330(14) 0.965130(14) 0.0138 Uani
Gd5 Gd 0.674380(16) 0.693670(14) 0.034870(14) 0.0138 Uani
O12 O 0.2350(3) 0.1127(2) 0.9777(2) 0.0311 Uani
H4 H 0.2736 0.0598 0.9193 0.0370 Uiso
O14 O 0.6625(2) 0.5338(2) 0.9050(2) 0.0241 Uani
O15 O 0.5441(3) 0.3917(2) 0.8829(2) 0.0237 Uani
C16 C 0.5599(3) 0.4781(3) 0.9386(3) 0.0184 Uani
O20 O 0.2563(3) 0.5106(2) 0.8317(2) 0.0259 Uani
O21 O 0.1704(3) 0.3475(2) 0.8116(2) 0.0264 Uani
H13 H 0.0028 0.9605 0.6287 0.0460 Uiso
C24 C 0.0584(4) 0.6752(4) 0.4538(3) 0.0246 Uani
H22 H 0.024(3) 0.720(3) 0.386(3) 0.0130 Uiso
C25 C 0.1824(4) 0.5765(4) 0.4352(3) 0.0287 Uani
H23 H 0.243(4) 0.558(3) 0.346(4) 0.0260 Uiso
C26 C 0.2235(4) 0.5083(3) 0.5419(3) 0.0258 Uani
H24 H 0.311(5) 0.441(4) 0.533(4) 0.0460 Uiso
C27 C 0.1391(3) 0.5385(3) 0.6649(3) 0.0182 Uani
C28 C 0.1884(3) 0.4617(3) 0.7790(3) 0.0186 Uani
C29 C 0.0135(3) 0.6370(3) 0.6746(3) 0.0168 Uani
H2 H 0.1283 0.9333 0.3387 0.0460 Uiso
Co4 Co 0.78956(5) 0.86892(4) 0.61961(4) 0.0177 Uani
O28 O 0.3883(3) 0.9929(2) 0.2751(2) 0.0227 Uani
H14 H 0.8717 0.0667 0.6613 0.0460 Uiso
O5 O 0.7437(3) 0.4894(2) 0.1683(2) 0.0259 Uani
O6 O 0.8296(3) 0.6525(2) 0.1884(2) 0.0264 Uani
H1 H 0.9972 0.0395 0.3713 0.0460 Uiso
C8 C 0.9416(4) 0.3248(4) 0.5462(3) 0.0246 Uani
H10 H 0.976(3) 0.280(3) 0.614(3) 0.0130 Uiso
C9 C 0.8176(4) 0.4235(4) 0.5648(3) 0.0287 Uani
H11 H 0.757(4) 0.442(3) 0.654(4) 0.0260 Uiso
C10 C 0.7765(4) 0.4917(3) 0.4581(3) 0.0258 Uani
H12 H 0.689(5) 0.559(4) 0.467(4) 0.0460 Uiso
C11 C 0.8609(3) 0.4615(3) 0.3351(3) 0.0182 Uani
C12 C 0.8116(3) 0.5383(3) 0.2210(3) 0.0186 Uani
C13 C 0.9865(3) 0.3630(3) 0.3254(3) 0.0168 Uani
O25 O 0.7650(3) 0.8873(2) 0.0223(2) 0.0311 Uani
H16 H 0.7264 0.9402 0.0807 0.0370 Uiso
O30 O 0.5276(3) 0.8029(2) 0.2104(2) 0.0238 Uani
O18 O 0.7157(3) 0.9665(2) 0.2651(2) 0.0268 Uani
O19 O 0.8117(2) 0.9387(2) 0.4295(2) 0.0234 Uani
O22 O 0.9218(2) 0.6056(2) 0.9025(2) 0.0213 Uani
O23 O 0.7895(2) 0.7582(2) 0.7978(2) 0.0183 Uani
O24 O 0.9121(3) 0.9890(3) 0.6407(3) 0.0383 Uani
H15 H 0.8352 0.9023 0.9593 0.0370 Uiso
O26 O 0.4979(3) 0.8504(2) 0.9434(2) 0.0328 Uani
H17 H 0.5202 0.8768 0.8637 0.0390 Uiso
H18 H 0.4134 0.8792 0.9909 0.0390 Uiso
C17 C 0.5358(4) 0.7389(3) 0.6605(3) 0.0243 Uani
H19 H 0.559(4) 0.704(3) 0.733(4) 0.0220 Uiso
C18 C 0.4173(4) 0.7223(4) 0.6320(4) 0.0298 Uani
H20 H 0.352(5) 0.685(4) 0.692(4) 0.0390 Uiso
C19 C 0.3935(4) 0.7738(4) 0.5140(3) 0.0259 Uani
H21 H 0.311(4) 0.775(4) 0.492(4) 0.0310 Uiso
C20 C 0.4923(3) 0.8372(3) 0.4256(3) 0.0173 Uani
C21 C 0.4690(3) 0.8835(3) 0.2932(3) 0.0153 Uani
C22 C 0.6092(3) 0.8506(3) 0.4602(3) 0.0158 Uani
C23 C 0.7205(4) 0.9243(3) 0.3763(3) 0.0186 Uani
C30 C 0.9037(3) 0.6692(3) 0.8012(3) 0.0168 Uani
N3 N 0.6306(3) 0.8023(3) 0.5767(2) 0.0190 Uani
N4 N 0.9747(3) 0.7068(3) 0.5708(3) 0.0200 Uani
loop_
_atom_site_aniso_label
_atom_site_aniso_U_11
_atom_site_aniso_U_22
_atom_site_aniso_U_33
_atom_site_aniso_U_23
_atom_site_aniso_U_13
_atom_site_aniso_U_12
Co1 0.0185 0.019 0.0141 -0.00011 -0.00626 -0.0006
O1 0.0261 0.0194 0.0188 -0.0019 -0.0085 0.0036
O2 0.026 0.0253 0.0195 -0.0095 -0.0059 -0.001
O3 0.0407 0.0293 0.0149 0.0035 -0.0117 -0.0143
O4 0.0238 0.0289 0.0192 0.0037 -0.0111 -0.0065
O7 0.0202 0.0253 0.0143 0.0026 -0.0058 -0.0001
O8 0.0141 0.0212 0.0147 -0.0014 -0.002 0.0018
O9 0.0236 0.0254 0.0248 -0.0089 0.0007 -0.0124
O10 0.0219 0.0277 0.0233 -0.0142 0 -0.0086
O11 0.0325 0.0462 0.0415 -0.0078 -0.0082 -0.0176
O13 0.024 0.0412 0.0213 0.0056 -0.0044 0.005
C1 0.038 0.0185 0.0153 0.0011 -0.0091 -0.0042
C2 0.04 0.03 0.0202 0.0071 -0.0058 -0.0177
C3 0.029 0.0269 0.026 0.0004 -0.0108 -0.0112
C4 0.0203 0.0124 0.018 -0.0053 -0.0068 0.0023
C5 0.014 0.0182 0.0153 -0.0036 -0.0035 -0.0059
C6 0.0192 0.0126 0.0143 -0.0023 -0.0051 -0.0002
C7 0.0231 0.0145 0.0175 -0.0038 -0.0063 -0.0012
C14 0.0173 0.02 0.015 -0.0007 -0.0059 -0.0061
C15 0.0197 0.0178 0.0185 -0.0007 -0.0092 -0.0017
N1 0.0257 0.0163 0.014 -0.001 -0.0078 -0.0008
N2 0.0206 0.022 0.0136 0.0002 -0.0046 0.0001
Gd3 0.01487 0.01334 0.01231 -0.00167 -0.00332 -0.00187
Gd5 0.01487 0.01334 0.01231 -0.00167 -0.00332 -0.00187
O12 0.04 0.0316 0.0236 -0.0073 0.0002 -0.0189
O14 0.0236 0.0254 0.0248 -0.0089 0.0007 -0.0124
O15 0.0219 0.0277 0.0233 -0.0142 0 -0.0086
C16 0.0197 0.0178 0.0185 -0.0007 -0.0092 -0.0017
O20 0.0272 0.0256 0.0288 0.0085 -0.0148 -0.0108
O21 0.0296 0.0198 0.0303 0.0019 -0.013 -0.0036
C24 0.028 0.029 0.0137 -0.0005 -0.0069 -0.0008
C25 0.032 0.031 0.0152 -0.0062 0.0004 0.0001
C26 0.024 0.0224 0.0246 -0.005 -0.0057 0.0057
C27 0.0185 0.0179 0.0178 -0.0013 -0.0044 -0.0046
C28 0.013 0.0202 0.0166 0.0013 0.0007 -0.001
C29 0.0182 0.0155 0.0154 0.0008 -0.0041 -0.0034
Co4 0.0185 0.019 0.0141 -0.00011 -0.00626 -0.0006
O28 0.0261 0.0194 0.0188 -0.0019 -0.0085 0.0036
O5 0.0272 0.0256 0.0288 0.0085 -0.0148 -0.0108
O6 0.0296 0.0198 0.0303 0.0019 -0.013 -0.0036
C8 0.028 0.029 0.0137 -0.0005 -0.0069 -0.0008
C9 0.032 0.031 0.0152 -0.0062 0.0004 0.0001
C10 0.024 0.0224 0.0246 -0.005 -0.0057 0.0057
C11 0.0185 0.0179 0.0178 -0.0013 -0.0044 -0.0046
C12 0.013 0.0202 0.0166 0.0013 0.0007 -0.001
C13 0.0182 0.0155 0.0154 0.0008 -0.0041 -0.0034
O25 0.04 0.0316 0.0236 -0.0073 0.0002 -0.0189
O30 0.026 0.0253 0.0195 -0.0095 -0.0059 -0.001
O18 0.0407 0.0293 0.0149 0.0035 -0.0117 -0.0143
O19 0.0238 0.0289 0.0192 0.0037 -0.0111 -0.0065
O22 0.0202 0.0253 0.0143 0.0026 -0.0058 -0.0001
O23 0.0141 0.0212 0.0147 -0.0014 -0.002 0.0018
O24 0.0325 0.0462 0.0415 -0.0078 -0.0082 -0.0176
O26 0.024 0.0412 0.0213 0.0056 -0.0044 0.005
C17 0.038 0.0185 0.0153 0.0011 -0.0091 -0.0042
C18 0.04 0.03 0.0202 0.0071 -0.0058 -0.0177
C19 0.029 0.0269 0.026 0.0004 -0.0108 -0.0112
C20 0.0203 0.0124 0.018 -0.0053 -0.0068 0.0023
C21 0.014 0.0182 0.0153 -0.0036 -0.0035 -0.0059
C22 0.0192 0.0126 0.0143 -0.0023 -0.0051 -0.0002
C23 0.0231 0.0145 0.0175 -0.0038 -0.0063 -0.0012
C30 0.0173 0.02 0.015 -0.0007 -0.0059 -0.0061
N3 0.0257 0.0163 0.014 -0.001 -0.0078 -0.0008
N4 0.0206 0.022 0.0136 0.0002 -0.0046 0.0001
loop_
_geom_bond_atom_site_label_1
_geom_bond_atom_site_label_2
_geom_bond_site_symmetry_1
_geom_bond_site_symmetry_2
Co1 O4 1_555 1_555
O1 C5 1_555 1_555
O2 C5 1_555 1_555
O3 C7 1_555 1_555
O4 C7 1_555 1_555
O7 C14 1_555 1_555
O8 Co1 1_555 1_555
O10 C15 1_555 1_555
O11 Co1 1_555 1_555
H5 O13 1_555 1_555
H6 O13 1_555 1_555
C1 H7 1_555 1_555
C2 C1 1_555 1_555
H8 C2 1_555 1_555
C3 C2 1_555 1_555
H9 C3 1_555 1_555
C4 C3 1_555 1_555
C5 C4 1_555 1_555
C6 C4 1_555 1_555
C7 C6 1_555 1_555
C14 O8 1_555 1_555
C15 O9 1_555 1_555
N1 Co1 1_555 1_555
N2 Co1 1_555 1_555
Gd3 O2 1_555 1_555
Gd5 O10 1_555 1_555
C1 N1 1_555 1_555
C6 N1 1_555 1_555
O12 Gd3 1_555 1_555
H4 O12 1_555 1_555
O14 C16 1_555 1_555
O15 Gd3 1_555 1_555
O20 Gd3 1_555 1_555
O21 Gd3 1_555 1_555
C24 H22 1_555 1_555
C25 C24 1_555 1_555
H23 C25 1_555 1_555
C26 C25 1_555 1_555
H24 C26 1_555 1_555
C27 C26 1_555 1_555
C28 O20 1_555 1_555
C29 C27 1_555 1_555
O15 C16 1_555 1_555
O21 C28 1_555 1_555
C27 C28 1_555 1_555
O5 C12 1_555 1_555
O6 C12 1_555 1_555
C8 H10 1_555 1_555
C9 C8 1_555 1_555
H11 C9 1_555 1_555
C10 C9 1_555 1_555
H12 C10 1_555 1_555
C11 C10 1_555 1_555
C12 C11 1_555 1_555
C13 C11 1_555 1_555
Gd5 O5 1_555 1_555
O25 Gd5 1_555 1_555
H16 O25 1_555 1_555
O30 Gd5 1_555 1_555
O6 Gd5 1_555 1_555
Co4 O19 1_555 1_555
O28 C21 1_555 1_555
O30 C21 1_555 1_555
O18 C23 1_555 1_555
O19 C23 1_555 1_555
O23 Co4 1_555 1_555
O24 Co4 1_555 1_555
H17 O26 1_555 1_555
H18 O26 1_555 1_555
C17 H19 1_555 1_555
C18 C17 1_555 1_555
H20 C18 1_555 1_555
C19 C18 1_555 1_555
H21 C19 1_555 1_555
C20 C19 1_555 1_555
C21 C20 1_555 1_555
C22 C20 1_555 1_555
C23 C22 1_555 1_555
C30 O22 1_555 1_555
N3 Co4 1_555 1_555
N4 Co4 1_555 1_555
O23 C30 1_555 1_555
C17 N3 1_555 1_555
C22 N3 1_555 1_555

#END
