
###############################################################################
#
# This file contains modified crystal structure data generated from the
# MOF subset of the Cambridge Structural Database (CSD) v543 
# hosted by the Cambridge Crystallographic Data Centre (CCDC).
#
# This work is licensed under the Creative Commons
# Attribution-NonCommercial-ShareAlike 4.0 International License.
# To view a copy of this license, visit
# http://creativecommons.org/licenses/by-nc-sa/4.0/
# or send a letter to
# Creative Commons, PO Box 1866, Mountain View, CA 94042, USA.
#
# CIF created using the CSD Python API on 29 September 2022
# The structure has been converted into the P1 space group
# The structure has a 3D framework
# The original CSD entry SECHOB is in the triclinic crystal system
# The framework has been calculated to contain at least 10.0% void space
# The void calculation uses a probe of radius 1.32A, grid spacing 0.4
#
###############################################################################

data_SECHOB
_chemical_formula_moiety         '(C30 H24 N4 Ni2 O26 Sm2)n'
_symmetry_cell_setting           triclinic
_symmetry_space_group_name_H-M   'P 1'
_symmetry_Int_Tables_number      1
_space_group_name_Hall           'P 1'
loop_
_symmetry_equiv_pos_site_id
_symmetry_equiv_pos_as_xyz
1 x,y,z
_cell_length_a                   10.0269(4)
_cell_length_b                   10.6774(4)
_cell_length_c                   10.8350(4)
_cell_angle_alpha                80.4420(10)
_cell_angle_beta                 73.2350(10)
_cell_angle_gamma                74.1480(10)
_cell_volume                     1063.66
loop_
_atom_site_label
_atom_site_type_symbol
_atom_site_fract_x
_atom_site_fract_y
_atom_site_fract_z
_atom_site_U_iso_or_equiv
_atom_site_thermal_displace_type
C18 C 0.0065(3) 0.6387(3) 0.6714(3) 0.0165 Uani
H17 H 0.0088 0.9441 0.6263 0.0400 Uiso
C22 C 0.0447(3) 0.6834(3) 0.4494(3) 0.0245 Uani
C23 C 0.1316(3) 0.5411(3) 0.6598(3) 0.0182 Uani
H20 H 0.012(4) 0.729(3) 0.380(3) 0.0300 Uiso
C26 C 0.1688(4) 0.5844(3) 0.4290(3) 0.0294 Uani
C27 C 0.1853(3) 0.4625(3) 0.7732(3) 0.0198 Uani
C28 C 0.2130(3) 0.5140(3) 0.5351(3) 0.0266 Uani
H22 H 0.217(4) 0.567(3) 0.349(3) 0.0310 Uiso
O31 O 0.1690(2) 0.3479(2) 0.8045(2) 0.0265 Uani
O32 O 0.2534(2) 0.5108(2) 0.8262(2) 0.0268 Uani
H23 H 0.294(4) 0.453(4) 0.523(3) 0.0370 Uiso
Sm5 Sm 0.324282(14) 0.306938(14) 0.962692(13) 0.0136 Uani
O27 O 0.6191(2) 0.0078(2) 0.72076(18) 0.0241 Uani
H18 H 0.8834 0.0538 0.6620 0.0400 Uiso
Ni4 Ni 0.21271(4) 0.13252(4) 0.38071(3) 0.0165 Uani
O1 O 0.2100(2) 0.23812(19) 0.20194(18) 0.0186 Uani
O2 O 0.0774(2) 0.3965(2) 0.09902(18) 0.0212 Uani
O4 O 0.4995(2) 0.1498(2) 0.0614(2) 0.0383 Uani
O6 O 0.3361(2) 0.4699(2) 0.09207(19) 0.0232 Uani
C1 C 0.0981(3) 0.3301(3) 0.1997(3) 0.0159 Uani
H1 H 0.4747 0.1197 0.1401 0.0460 Uiso
H2 H 0.5855 0.1249 0.0172 0.0460 Uiso
H4 H 0.202(5) 0.079(4) 0.016(4) 0.0360 Uiso
O10 O 0.1994(2) 0.0509(2) 0.56498(18) 0.0221 Uani
O11 O 0.0811(2) 0.0235(2) 0.3601(2) 0.0335 Uani
N1 N 0.0354(3) 0.2894(2) 0.4314(2) 0.0192 Uani
N2 N 0.3661(2) 0.2005(2) 0.4210(2) 0.0171 Uani
C4 C 0.2883(3) 0.0690(3) 0.6189(3) 0.0171 Uani
C6 C 0.3919(3) 0.1481(3) 0.5368(3) 0.0154 Uani
C7 C 0.4537(3) 0.2697(3) 0.3395(3) 0.0235 Uani
O13 O 0.2963(2) 0.0251(2) 0.73086(19) 0.0258 Uani
C10 C 0.5079(3) 0.1651(3) 0.5728(3) 0.0168 Uani
C11 C 0.5715(4) 0.2885(3) 0.3678(3) 0.0277 Uani
H8 H 0.432(3) 0.305(3) 0.260(3) 0.0200 Uiso
C14 C 0.5351(3) 0.1161(3) 0.7043(3) 0.0156 Uani
C15 C 0.5991(3) 0.2349(3) 0.4856(3) 0.0253 Uani
H10 H 0.634(4) 0.340(4) 0.305(4) 0.0430 Uiso
H12 H 0.682(4) 0.240(3) 0.508(3) 0.0320 Uiso
C16 C 0.4400(3) 0.5235(3) 0.0603(3) 0.0173 Uani
O15 O 0.4561(2) 0.6087(2) 0.1167(2) 0.0260 Uani
Sm2 Sm 0.675718(14) 0.693062(14) 0.037308(13) 0.0136 Uani
O17 O 0.8310(2) 0.6521(2) 0.1955(2) 0.0265 Uani
O18 O 0.5247(2) 0.8066(2) 0.21036(19) 0.0236 Uani
O21 O 0.7466(2) 0.4892(2) 0.1738(2) 0.0268 Uani
O22 O 0.7698(3) 0.8842(3) 0.0286(3) 0.0392 Uani
H16 H 0.7614 0.9162 0.0980 0.0470 Uiso
O25 O 0.4753(2) 0.1934(2) 0.78964(19) 0.0236 Uani
O3 O 0.5439(2) 0.3913(2) 0.8833(2) 0.0260 Uani
O5 O 0.2302(3) 0.1158(3) 0.9714(3) 0.0392 Uani
C2 C 0.5600(3) 0.4765(3) 0.9397(3) 0.0173 Uani
H3 H 0.2386 0.0838 0.9020 0.0470 Uiso
O14 O 0.6639(2) 0.5301(2) 0.90793(19) 0.0232 Uani
O16 O 0.7900(2) 0.76188(19) 0.79806(18) 0.0186 Uani
O19 O 0.9226(2) 0.6035(2) 0.90098(18) 0.0212 Uani
O20 O 0.5005(2) 0.8502(2) 0.9386(2) 0.0383 Uani
Ni2 Ni 0.78729(4) 0.86748(4) 0.61929(3) 0.0165 Uani
C17 C 0.9019(3) 0.6699(3) 0.8003(3) 0.0159 Uani
H13 H 0.4145 0.8751 0.9828 0.0460 Uiso
H14 H 0.5253 0.8803 0.8599 0.0460 Uiso
H15 H 0.798(5) 0.921(4) 0.984(4) 0.0360 Uiso
O28 O 0.8006(2) 0.9491(2) 0.43502(18) 0.0221 Uani
O29 O 0.9189(2) 0.9765(2) 0.6399(2) 0.0335 Uani
N3 N 0.6339(2) 0.7995(2) 0.5790(2) 0.0171 Uani
N4 N 0.9646(3) 0.7106(2) 0.5686(2) 0.0192 Uani
C19 C 0.7117(3) 0.9310(3) 0.3811(3) 0.0171 Uani
C20 C 0.6081(3) 0.8519(3) 0.4632(3) 0.0154 Uani
C21 C 0.5463(3) 0.7303(3) 0.6605(3) 0.0235 Uani
O30 O 0.7037(2) 0.9749(2) 0.26914(19) 0.0258 Uani
C24 C 0.4921(3) 0.8349(3) 0.4272(3) 0.0168 Uani
C25 C 0.4285(4) 0.7115(3) 0.6322(3) 0.0277 Uani
H19 H 0.568(3) 0.695(3) 0.740(3) 0.0200 Uiso
C29 C 0.4649(3) 0.8839(3) 0.2957(3) 0.0156 Uani
C30 C 0.4009(3) 0.7651(3) 0.5144(3) 0.0253 Uani
H21 H 0.366(4) 0.660(4) 0.695(4) 0.0430 Uiso
O34 O 0.3809(2) 0.9922(2) 0.27924(18) 0.0241 Uani
H24 H 0.318(4) 0.760(3) 0.492(3) 0.0320 Uiso
H6 H 0.1166 0.9462 0.3380 0.0400 Uiso
C3 C 0.9935(3) 0.3613(3) 0.3286(3) 0.0165 Uani
H5 H 0.9912 0.0559 0.3737 0.0400 Uiso
C5 C 0.9553(3) 0.3166(3) 0.5506(3) 0.0245 Uani
C8 C 0.8684(3) 0.4589(3) 0.3402(3) 0.0182 Uani
C9 C 0.8312(4) 0.4156(3) 0.5710(3) 0.0294 Uani
H7 H 0.988(4) 0.271(3) 0.620(3) 0.0300 Uiso
C12 C 0.8147(3) 0.5375(3) 0.2268(3) 0.0198 Uani
C13 C 0.7870(3) 0.4860(3) 0.4649(3) 0.0266 Uani
H9 H 0.783(4) 0.433(3) 0.651(3) 0.0310 Uiso
H11 H 0.706(4) 0.547(4) 0.477(3) 0.0370 Uiso
loop_
_atom_site_aniso_label
_atom_site_aniso_U_11
_atom_site_aniso_U_22
_atom_site_aniso_U_33
_atom_site_aniso_U_23
_atom_site_aniso_U_13
_atom_site_aniso_U_12
C18 0.016 0.0192 0.0143 -0.0009 -0.0037 -0.0046
C22 0.0273 0.0304 0.012 -0.0009 -0.0049 -0.0016
C23 0.0195 0.0182 0.0161 0.0002 -0.0039 -0.0048
C26 0.0298 0.0362 0.0151 -0.0057 0.0006 -0.0009
C27 0.0149 0.0211 0.0172 -0.0009 -0.0007 0.0016
C28 0.0225 0.0272 0.0234 -0.0064 -0.002 0.0032
O31 0.0311 0.0175 0.0315 0.0021 -0.0137 -0.0036
O32 0.0284 0.0274 0.0293 0.0071 -0.0149 -0.0121
Sm5 0.0142 0.01457 0.01159 -0.0019 -0.00329 -0.00227
O27 0.0266 0.0239 0.018 -0.0027 -0.0097 0.0049
Ni4 0.01713 0.01873 0.01329 -0.00015 -0.00664 -0.00181
O1 0.016 0.0207 0.0154 -0.0003 -0.0036 0.0006
O2 0.0177 0.0286 0.0127 0.0036 -0.0036 -0.0014
O4 0.0283 0.0498 0.0217 0.0052 -0.0055 0.0094
O6 0.0215 0.0283 0.021 -0.0077 0.0007 -0.0112
C1 0.0151 0.0193 0.0142 -0.0022 -0.0035 -0.0057
O10 0.0226 0.0275 0.0189 0.0038 -0.0097 -0.0095
O11 0.0297 0.0368 0.0395 -0.0054 -0.0103 -0.0141
N1 0.0197 0.0226 0.0133 0.0007 -0.0054 -0.0021
N2 0.0206 0.018 0.0118 -0.0003 -0.0052 -0.0028
C4 0.0202 0.0156 0.0138 -0.003 -0.0037 -0.0012
C6 0.0185 0.0134 0.0136 -0.0041 -0.0046 -0.0006
C7 0.0348 0.0224 0.0132 0.0039 -0.0093 -0.0067
O13 0.0374 0.0298 0.0149 0.0043 -0.0112 -0.0145
C10 0.0199 0.0151 0.0146 -0.0043 -0.0049 -0.0006
C11 0.0355 0.0284 0.0203 0.006 -0.0057 -0.0157
C14 0.0135 0.019 0.0153 -0.0028 -0.0036 -0.0051
C15 0.0263 0.0271 0.0257 0.0014 -0.0088 -0.0114
C16 0.0151 0.0187 0.0171 -0.0009 -0.0041 -0.003
O15 0.0218 0.031 0.0277 -0.0149 0.0002 -0.0103
Sm2 0.0142 0.01457 0.01159 -0.0019 -0.00329 -0.00227
O17 0.0311 0.0175 0.0315 0.0021 -0.0137 -0.0036
O18 0.0239 0.0262 0.0193 -0.0111 -0.0057 0.0016
O21 0.0284 0.0274 0.0293 0.0071 -0.0149 -0.0121
O22 0.0588 0.0418 0.0221 -0.0082 0.0023 -0.0305
O25 0.0239 0.0262 0.0193 -0.0111 -0.0057 0.0016
O3 0.0218 0.031 0.0277 -0.0149 0.0002 -0.0103
O5 0.0588 0.0418 0.0221 -0.0082 0.0023 -0.0305
C2 0.0151 0.0187 0.0171 -0.0009 -0.0041 -0.003
O14 0.0215 0.0283 0.021 -0.0077 0.0007 -0.0112
O16 0.016 0.0207 0.0154 -0.0003 -0.0036 0.0006
O19 0.0177 0.0286 0.0127 0.0036 -0.0036 -0.0014
O20 0.0283 0.0498 0.0217 0.0052 -0.0055 0.0094
Ni2 0.01713 0.01873 0.01329 -0.00015 -0.00664 -0.00181
C17 0.0151 0.0193 0.0142 -0.0022 -0.0035 -0.0057
O28 0.0226 0.0275 0.0189 0.0038 -0.0097 -0.0095
O29 0.0297 0.0368 0.0395 -0.0054 -0.0103 -0.0141
N3 0.0206 0.018 0.0118 -0.0003 -0.0052 -0.0028
N4 0.0197 0.0226 0.0133 0.0007 -0.0054 -0.0021
C19 0.0202 0.0156 0.0138 -0.003 -0.0037 -0.0012
C20 0.0185 0.0134 0.0136 -0.0041 -0.0046 -0.0006
C21 0.0348 0.0224 0.0132 0.0039 -0.0093 -0.0067
O30 0.0374 0.0298 0.0149 0.0043 -0.0112 -0.0145
C24 0.0199 0.0151 0.0146 -0.0043 -0.0049 -0.0006
C25 0.0355 0.0284 0.0203 0.006 -0.0057 -0.0157
C29 0.0135 0.019 0.0153 -0.0028 -0.0036 -0.0051
C30 0.0263 0.0271 0.0257 0.0014 -0.0088 -0.0114
O34 0.0266 0.0239 0.018 -0.0027 -0.0097 0.0049
C3 0.016 0.0192 0.0143 -0.0009 -0.0037 -0.0046
C5 0.0273 0.0304 0.012 -0.0009 -0.0049 -0.0016
C8 0.0195 0.0182 0.0161 0.0002 -0.0039 -0.0048
C9 0.0298 0.0362 0.0151 -0.0057 0.0006 -0.0009
C12 0.0149 0.0211 0.0172 -0.0009 -0.0007 0.0016
C13 0.0225 0.0272 0.0234 -0.0064 -0.002 0.0032
loop_
_geom_bond_atom_site_label_1
_geom_bond_atom_site_label_2
_geom_bond_site_symmetry_1
_geom_bond_site_symmetry_2
C23 C18 1_555 1_555
H20 C22 1_555 1_555
C26 C22 1_555 1_555
C27 C23 1_555 1_555
C28 C23 1_555 1_555
H22 C26 1_555 1_555
O31 C27 1_555 1_555
O32 C27 1_555 1_555
H23 C28 1_555 1_555
Sm5 O31 1_555 1_555
C26 C28 1_555 1_555
O32 Sm5 1_555 1_555
O1 Ni4 1_555 1_555
Ni4 O10 1_555 1_555
C1 O1 1_555 1_555
H1 O4 1_555 1_555
H2 O4 1_555 1_555
O10 C4 1_555 1_555
O11 Ni4 1_555 1_555
N1 Ni4 1_555 1_555
N2 Ni4 1_555 1_555
C4 C6 1_555 1_555
C6 N2 1_555 1_555
C7 N2 1_555 1_555
O13 C4 1_555 1_555
C10 C6 1_555 1_555
C11 C7 1_555 1_555
H8 C7 1_555 1_555
C14 C10 1_555 1_555
C15 C10 1_555 1_555
H10 C11 1_555 1_555
H12 C15 1_555 1_555
C16 O6 1_555 1_555
O15 C16 1_555 1_555
O17 Sm2 1_555 1_555
O18 Sm2 1_555 1_555
O21 Sm2 1_555 1_555
O22 Sm2 1_555 1_555
H16 O22 1_555 1_555
O25 C14 1_555 1_555
O27 C14 1_555 1_555
Sm5 O25 1_555 1_555
O2 C1 1_555 1_555
C11 C15 1_555 1_555
O15 Sm2 1_555 1_555
O3 Sm5 1_555 1_555
O5 Sm5 1_555 1_555
C2 O3 1_555 1_555
H3 O5 1_555 1_555
O14 C2 1_555 1_555
Ni2 O16 1_555 1_555
C17 O16 1_555 1_555
H13 O20 1_555 1_555
H14 O20 1_555 1_555
O28 Ni2 1_555 1_555
O29 Ni2 1_555 1_555
N3 Ni2 1_555 1_555
N4 Ni2 1_555 1_555
C19 O28 1_555 1_555
C20 N3 1_555 1_555
C21 N3 1_555 1_555
O30 C19 1_555 1_555
C24 C20 1_555 1_555
C25 C21 1_555 1_555
H19 C21 1_555 1_555
C29 C24 1_555 1_555
C30 C24 1_555 1_555
H21 C25 1_555 1_555
O18 C29 1_555 1_555
O34 C29 1_555 1_555
H24 C30 1_555 1_555
O19 C17 1_555 1_555
C19 C20 1_555 1_555
C25 C30 1_555 1_555
C8 C3 1_555 1_555
C9 C5 1_555 1_555
H7 C5 1_555 1_555
C12 C8 1_555 1_555
C13 C8 1_555 1_555
H9 C9 1_555 1_555
H11 C13 1_555 1_555
O17 C12 1_555 1_555
O21 C12 1_555 1_555
C9 C13 1_555 1_555

#END
