
###############################################################################
#
# This file contains modified crystal structure data generated from the
# MOF subset of the Cambridge Structural Database (CSD) v543 
# hosted by the Cambridge Crystallographic Data Centre (CCDC).
#
# This work is licensed under the Creative Commons
# Attribution-NonCommercial-ShareAlike 4.0 International License.
# To view a copy of this license, visit
# http://creativecommons.org/licenses/by-nc-sa/4.0/
# or send a letter to
# Creative Commons, PO Box 1866, Mountain View, CA 94042, USA.
#
# CIF created using the CSD Python API on 29 September 2022
# The structure has been converted into the P1 space group
# The structure has a 3D framework
# The original CSD entry SECHIV is in the triclinic crystal system
# The framework has been calculated to contain at least 10.0% void space
# The void calculation uses a probe of radius 1.32A, grid spacing 0.4
#
###############################################################################

data_SECHIV
_chemical_formula_moiety         '(C30 H24 N4 Nd2 Ni2 O26)n'
_symmetry_cell_setting           triclinic
_symmetry_space_group_name_H-M   'P 1'
_symmetry_Int_Tables_number      1
_space_group_name_Hall           'P 1'
loop_
_symmetry_equiv_pos_site_id
_symmetry_equiv_pos_as_xyz
1 x,y,z
_cell_length_a                   10.0535(8)
_cell_length_b                   10.7207(9)
_cell_length_c                   10.8463(9)
_cell_angle_alpha                80.2990(10)
_cell_angle_beta                 73.3180(10)
_cell_angle_gamma                74.1230(10)
_cell_volume                     1071.95
loop_
_atom_site_label
_atom_site_type_symbol
_atom_site_fract_x
_atom_site_fract_y
_atom_site_fract_z
_atom_site_U_iso_or_equiv
_atom_site_thermal_displace_type
O1 O 0.2535(2) 0.5103(2) 0.8223(2) 0.0288 Uani
O2 O 0.1674(3) 0.3488(2) 0.8017(2) 0.0286 Uani
C1 C 0.1846(3) 0.4628(3) 0.7700(3) 0.0193 Uani
C3 C 0.0066(3) 0.6393(3) 0.6692(3) 0.0180 Uani
C4 C 0.1309(3) 0.5412(3) 0.6569(3) 0.0192 Uani
C5 C 0.2105(4) 0.5161(4) 0.5327(3) 0.0294 Uani
H6 H 0.283(4) 0.453(4) 0.527(4) 0.0320 Uiso
C6 C 0.1672(4) 0.5876(4) 0.4267(4) 0.0330 Uani
H7 H 0.220(3) 0.570(3) 0.336(3) 0.0200 Uiso
C7 C 0.0435(4) 0.6849(4) 0.4483(3) 0.0274 Uani
H8 H 0.011(4) 0.736(4) 0.382(4) 0.0300 Uiso
Nd6 Nd 0.323150(17) 0.306297(16) 0.962335(15) 0.0148 Uani
H5 H 0.8854 0.0524 0.6609 0.0420 Uiso
Ni4 Ni 0.21218(4) 0.13225(4) 0.38171(4) 0.0177 Uani
O34 O 0.6209(2) 0.0083(2) 0.7187(2) 0.0254 Uani
Nd1 Nd 0.676850(17) 0.693703(16) 0.037665(15) 0.0148 Uani
O9 O 0.4559(2) 0.6095(2) 0.1151(2) 0.0280 Uani
O10 O 0.3357(2) 0.4716(2) 0.0909(2) 0.0244 Uani
O11 O 0.7732(3) 0.8862(3) 0.0297(2) 0.0419 Uani
H2 H 0.7649 0.9176 0.0991 0.0500 Uiso
C15 C 0.4395(3) 0.5241(3) 0.0598(3) 0.0181 Uani
O18 O 0.0750(2) 0.3964(2) 0.1017(2) 0.0225 Uani
O19 O 0.2084(2) 0.2378(2) 0.2030(2) 0.0192 Uani
O20 O 0.2008(2) 0.0500(2) 0.5650(2) 0.0234 Uani
O21 O 0.3000(3) 0.0230(2) 0.7298(2) 0.0272 Uani
O22 O 0.4771(2) 0.1912(2) 0.7885(2) 0.0252 Uani
H13 H 0.1857 0.0794 0.0427 0.0500 Uiso
O25 O 0.4987(3) 0.1471(3) 0.0636(2) 0.0435 Uani
H15 H 0.4737 0.1174 0.1423 0.0520 Uiso
H16 H 0.5845 0.1218 0.0198 0.0520 Uiso
O26 O 0.0797(3) 0.0246(3) 0.3614(3) 0.0347 Uani
N3 N 0.0360(3) 0.2889(3) 0.4331(2) 0.0198 Uani
N4 N 0.3655(3) 0.2004(2) 0.4213(2) 0.0181 Uani
C18 C 0.0967(3) 0.3301(3) 0.2018(3) 0.0164 Uani
C24 C 0.2899(3) 0.0677(3) 0.6185(3) 0.0195 Uani
C25 C 0.3928(3) 0.1477(3) 0.5366(3) 0.0169 Uani
C26 C 0.5079(3) 0.1650(3) 0.5722(3) 0.0184 Uani
C27 C 0.5369(3) 0.1156(3) 0.7030(3) 0.0174 Uani
C28 C 0.5978(4) 0.2350(4) 0.4853(4) 0.0295 Uani
H21 H 0.676(4) 0.249(4) 0.505(4) 0.0350 Uiso
C29 C 0.5693(4) 0.2899(4) 0.3677(3) 0.0303 Uani
H22 H 0.630(4) 0.339(4) 0.299(4) 0.0360 Uiso
C30 C 0.4518(4) 0.2698(3) 0.3400(3) 0.0244 Uani
H23 H 0.420(4) 0.309(4) 0.269(4) 0.0290 Uiso
H24 H 0.004(2) 0.0735(18) 0.341(3) 0.0220 Uiso
O28 O 0.7465(2) 0.4897(2) 0.1777(2) 0.0288 Uani
O30 O 0.8326(3) 0.6512(2) 0.1983(2) 0.0286 Uani
O31 O 0.5229(2) 0.8088(2) 0.2115(2) 0.0252 Uani
Ni1 Ni 0.78782(4) 0.86775(4) 0.61829(4) 0.0177 Uani
O3 O 0.9250(2) 0.6036(2) 0.8983(2) 0.0225 Uani
O4 O 0.7916(2) 0.7622(2) 0.7970(2) 0.0192 Uani
O5 O 0.7992(2) 0.9500(2) 0.4350(2) 0.0234 Uani
O6 O 0.7000(3) 0.9770(2) 0.2702(2) 0.0272 Uani
O8 O 0.3791(2) 0.9917(2) 0.2813(2) 0.0254 Uani
H1 H 0.8143 0.9206 0.9573 0.0500 Uiso
O12 O 0.5013(3) 0.8529(3) 0.9364(2) 0.0435 Uani
H3 H 0.5263 0.8826 0.8577 0.0520 Uiso
H4 H 0.4155 0.8782 0.9802 0.0520 Uiso
O13 O 0.9203(3) 0.9754(3) 0.6386(3) 0.0347 Uani
N1 N 0.9640(3) 0.7111(3) 0.5669(2) 0.0198 Uani
N2 N 0.6345(3) 0.7996(2) 0.5787(2) 0.0181 Uani
C2 C 0.9033(3) 0.6699(3) 0.7982(3) 0.0164 Uani
C8 C 0.7101(3) 0.9323(3) 0.3815(3) 0.0195 Uani
C9 C 0.6072(3) 0.8523(3) 0.4634(3) 0.0169 Uani
C10 C 0.4921(3) 0.8350(3) 0.4278(3) 0.0184 Uani
C11 C 0.4631(3) 0.8844(3) 0.2970(3) 0.0174 Uani
C12 C 0.4022(4) 0.7650(4) 0.5147(4) 0.0295 Uani
H9 H 0.324(4) 0.751(4) 0.495(4) 0.0350 Uiso
C13 C 0.4307(4) 0.7101(4) 0.6323(3) 0.0303 Uani
H10 H 0.370(4) 0.661(4) 0.701(4) 0.0360 Uiso
C14 C 0.5482(4) 0.7302(3) 0.6600(3) 0.0244 Uani
H11 H 0.580(4) 0.691(4) 0.731(4) 0.0290 Uiso
H12 H 0.996(2) 0.9265(18) 0.659(3) 0.0220 Uiso
O14 O 0.5441(2) 0.3905(2) 0.8849(2) 0.0280 Uani
O15 O 0.6643(2) 0.5284(2) 0.9091(2) 0.0244 Uani
C16 C 0.5605(3) 0.4759(3) 0.9402(3) 0.0181 Uani
O24 O 0.2268(3) 0.1138(3) 0.9703(2) 0.0419 Uani
H14 H 0.2351 0.0824 0.9009 0.0500 Uiso
H17 H 0.1146 0.9476 0.3391 0.0420 Uiso
C17 C 0.8154(3) 0.5372(3) 0.2300(3) 0.0193 Uani
C19 C 0.9934(3) 0.3607(3) 0.3308(3) 0.0180 Uani
C20 C 0.8691(3) 0.4588(3) 0.3431(3) 0.0192 Uani
C21 C 0.7895(4) 0.4839(4) 0.4673(3) 0.0294 Uani
H18 H 0.717(4) 0.547(4) 0.473(4) 0.0320 Uiso
C22 C 0.8328(4) 0.4124(4) 0.5733(4) 0.0330 Uani
H19 H 0.780(3) 0.430(3) 0.664(3) 0.0200 Uiso
C23 C 0.9565(4) 0.3151(4) 0.5517(3) 0.0274 Uani
H20 H 0.989(4) 0.264(4) 0.618(4) 0.0300 Uiso
loop_
_atom_site_aniso_label
_atom_site_aniso_U_11
_atom_site_aniso_U_22
_atom_site_aniso_U_33
_atom_site_aniso_U_23
_atom_site_aniso_U_13
_atom_site_aniso_U_12
O1 0.0295 0.0282 0.0329 0.0088 -0.0168 -0.0114
O2 0.0331 0.0212 0.0336 0.0011 -0.0168 -0.0035
C1 0.0123 0.0221 0.0183 -0.0025 -0.0009 0.0016
C3 0.0178 0.0192 0.0169 -0.0008 -0.0073 -0.0018
C4 0.0182 0.0206 0.0175 -0.0019 -0.003 -0.0042
C5 0.026 0.028 0.027 -0.0048 -0.0055 0.0051
C6 0.032 0.041 0.0183 -0.0055 0 -0.0011
C7 0.0296 0.034 0.015 -0.0001 -0.0058 -0.0029
Nd6 0.01549 0.01499 0.01318 -0.00197 -0.0036 -0.00199
Ni4 0.0185 0.0191 0.0149 -6e-05 -0.00722 -0.00152
O34 0.0296 0.0226 0.0182 -0.0036 -0.0081 0.0062
Nd1 0.01549 0.01499 0.01318 -0.00197 -0.0036 -0.00199
O9 0.0245 0.033 0.0287 -0.0168 0.0014 -0.0109
O10 0.0225 0.0297 0.0235 -0.0076 -0.0018 -0.0116
O11 0.062 0.0441 0.0239 -0.0112 0.005 -0.0315
C15 0.0173 0.0189 0.0191 -0.0026 -0.0057 -0.0042
O18 0.019 0.0266 0.0171 0.0034 -0.0048 -0.0008
O19 0.0176 0.0209 0.0143 -0.0015 -0.0021 0.0009
O20 0.0237 0.0286 0.0201 0.0048 -0.011 -0.0085
O21 0.0368 0.0316 0.0165 0.0044 -0.0102 -0.0138
O22 0.0276 0.026 0.02 -0.0111 -0.0052 0.0011
O25 0.0318 0.0566 0.0231 0.0038 -0.0044 0.0132
O26 0.0324 0.0354 0.0425 -0.0033 -0.0145 -0.0132
N3 0.0196 0.0238 0.0137 0.0014 -0.0053 -0.0024
N4 0.0222 0.0156 0.0153 -0.0013 -0.0061 -0.0015
C18 0.0158 0.0204 0.0145 -0.0004 -0.0049 -0.0066
C24 0.0222 0.0165 0.0172 -0.0016 -0.0038 -0.0017
C25 0.0192 0.0158 0.0139 -0.0037 -0.0046 0.0006
C26 0.0219 0.015 0.0166 -0.0042 -0.0049 -0.0001
C27 0.0168 0.0199 0.0178 -0.0032 -0.0049 -0.0069
C28 0.0282 0.034 0.029 -0.0026 -0.009 -0.0103
C29 0.038 0.03 0.0235 0.0079 -0.0064 -0.0169
C30 0.0323 0.0232 0.0162 0.0038 -0.0082 -0.0055
O28 0.0295 0.0282 0.0329 0.0088 -0.0168 -0.0114
O30 0.0331 0.0212 0.0336 0.0011 -0.0168 -0.0035
O31 0.0276 0.026 0.02 -0.0111 -0.0052 0.0011
Ni1 0.0185 0.0191 0.0149 -6e-05 -0.00722 -0.00152
O3 0.019 0.0266 0.0171 0.0034 -0.0048 -0.0008
O4 0.0176 0.0209 0.0143 -0.0015 -0.0021 0.0009
O5 0.0237 0.0286 0.0201 0.0048 -0.011 -0.0085
O6 0.0368 0.0316 0.0165 0.0044 -0.0102 -0.0138
O8 0.0296 0.0226 0.0182 -0.0036 -0.0081 0.0062
O12 0.0318 0.0566 0.0231 0.0038 -0.0044 0.0132
O13 0.0324 0.0354 0.0425 -0.0033 -0.0145 -0.0132
N1 0.0196 0.0238 0.0137 0.0014 -0.0053 -0.0024
N2 0.0222 0.0156 0.0153 -0.0013 -0.0061 -0.0015
C2 0.0158 0.0204 0.0145 -0.0004 -0.0049 -0.0066
C8 0.0222 0.0165 0.0172 -0.0016 -0.0038 -0.0017
C9 0.0192 0.0158 0.0139 -0.0037 -0.0046 0.0006
C10 0.0219 0.015 0.0166 -0.0042 -0.0049 -0.0001
C11 0.0168 0.0199 0.0178 -0.0032 -0.0049 -0.0069
C12 0.0282 0.034 0.029 -0.0026 -0.009 -0.0103
C13 0.038 0.03 0.0235 0.0079 -0.0064 -0.0169
C14 0.0323 0.0232 0.0162 0.0038 -0.0082 -0.0055
O14 0.0245 0.033 0.0287 -0.0168 0.0014 -0.0109
O15 0.0225 0.0297 0.0235 -0.0076 -0.0018 -0.0116
C16 0.0173 0.0189 0.0191 -0.0026 -0.0057 -0.0042
O24 0.062 0.0441 0.0239 -0.0112 0.005 -0.0315
C17 0.0123 0.0221 0.0183 -0.0025 -0.0009 0.0016
C19 0.0178 0.0192 0.0169 -0.0008 -0.0073 -0.0018
C20 0.0182 0.0206 0.0175 -0.0019 -0.003 -0.0042
C21 0.026 0.028 0.027 -0.0048 -0.0055 0.0051
C22 0.032 0.041 0.0183 -0.0055 0 -0.0011
C23 0.0296 0.034 0.015 -0.0001 -0.0058 -0.0029
loop_
_geom_bond_atom_site_label_1
_geom_bond_atom_site_label_2
_geom_bond_site_symmetry_1
_geom_bond_site_symmetry_2
O1 C1 1_555 1_555
O2 C1 1_555 1_555
C1 C4 1_555 1_555
C4 C3 1_555 1_555
C5 C4 1_555 1_555
H6 C5 1_555 1_555
C6 C5 1_555 1_555
H7 C6 1_555 1_555
H8 C7 1_555 1_555
Nd6 O1 1_555 1_555
O2 Nd6 1_555 1_555
C6 C7 1_555 1_555
O9 Nd1 1_555 1_555
O10 C15 1_555 1_555
O11 Nd1 1_555 1_555
H2 O11 1_555 1_555
C15 O9 1_555 1_555
Ni4 O19 1_555 1_555
O20 Ni4 1_555 1_555
O21 C24 1_555 1_555
O22 C27 1_555 1_555
O34 C27 1_555 1_555
H15 O25 1_555 1_555
H16 O25 1_555 1_555
O26 Ni4 1_555 1_555
N3 Ni4 1_555 1_555
N4 Ni4 1_555 1_555
C18 O18 1_555 1_555
C24 O20 1_555 1_555
C25 N4 1_555 1_555
C26 C25 1_555 1_555
C27 C26 1_555 1_555
C28 C26 1_555 1_555
H21 C28 1_555 1_555
C29 C28 1_555 1_555
H22 C29 1_555 1_555
C30 N4 1_555 1_555
H23 C30 1_555 1_555
H24 O26 1_555 1_555
Nd6 O22 1_555 1_555
O28 Nd1 1_555 1_555
O30 Nd1 1_555 1_555
O31 Nd1 1_555 1_555
O19 C18 1_555 1_555
C24 C25 1_555 1_555
C29 C30 1_555 1_555
Ni1 O4 1_555 1_555
O3 C2 1_555 1_555
O5 Ni1 1_555 1_555
O6 C8 1_555 1_555
O31 C11 1_555 1_555
O8 C11 1_555 1_555
H3 O12 1_555 1_555
H4 O12 1_555 1_555
O13 Ni1 1_555 1_555
N1 Ni1 1_555 1_555
N2 Ni1 1_555 1_555
C2 O4 1_555 1_555
C8 O5 1_555 1_555
C9 N2 1_555 1_555
C10 C9 1_555 1_555
C11 C10 1_555 1_555
C12 C10 1_555 1_555
H9 C12 1_555 1_555
C13 C12 1_555 1_555
H10 C13 1_555 1_555
C14 N2 1_555 1_555
H11 C14 1_555 1_555
H12 O13 1_555 1_555
O14 C16 1_555 1_555
O24 Nd6 1_555 1_555
H14 O24 1_555 1_555
C8 C9 1_555 1_555
C13 C14 1_555 1_555
O14 Nd6 1_555 1_555
O15 C16 1_555 1_555
O28 C17 1_555 1_555
O30 C17 1_555 1_555
C17 C20 1_555 1_555
C20 C19 1_555 1_555
C21 C20 1_555 1_555
H18 C21 1_555 1_555
C22 C21 1_555 1_555
H19 C22 1_555 1_555
H20 C23 1_555 1_555
C22 C23 1_555 1_555

#END
