
###############################################################################
#
# This file contains modified crystal structure data generated from the
# MOF subset of the Cambridge Structural Database (CSD) v543 
# hosted by the Cambridge Crystallographic Data Centre (CCDC).
#
# This work is licensed under the Creative Commons
# Attribution-NonCommercial-ShareAlike 4.0 International License.
# To view a copy of this license, visit
# http://creativecommons.org/licenses/by-nc-sa/4.0/
# or send a letter to
# Creative Commons, PO Box 1866, Mountain View, CA 94042, USA.
#
# CIF created using the CSD Python API on 29 September 2022
# The structure has been converted into the P1 space group
# The structure has a 3D framework
# The original CSD entry SECHUH is in the triclinic crystal system
# The framework has been calculated to contain at least 10.0% void space
# The void calculation uses a probe of radius 1.32A, grid spacing 0.4
#
###############################################################################

data_SECHUH
_chemical_formula_moiety         '(C30 H24 Eu2 N4 Ni2 O26)n'
_symmetry_cell_setting           triclinic
_symmetry_space_group_name_H-M   'P 1'
_symmetry_Int_Tables_number      1
_space_group_name_Hall           'P 1'
loop_
_symmetry_equiv_pos_site_id
_symmetry_equiv_pos_as_xyz
1 x,y,z
_cell_length_a                   10.0139(4)
_cell_length_b                   10.6506(4)
_cell_length_c                   10.8268(4)
_cell_angle_alpha                80.5000(10)
_cell_angle_beta                 73.1910(10)
_cell_angle_gamma                74.1340(10)
_cell_volume                     1058.63
loop_
_atom_site_label
_atom_site_type_symbol
_atom_site_fract_x
_atom_site_fract_y
_atom_site_fract_z
_atom_site_U_iso_or_equiv
_atom_site_thermal_displace_type
O5 O 0.1694(2) 0.34758(19) 0.8057(2) 0.0269 Uani
O6 O 0.2538(2) 0.5107(2) 0.8275(2) 0.0273 Uani
H1 H 0.0081 0.9446 0.6275 0.0410 Uiso
C8 C 0.0456(3) 0.6828(3) 0.4502(3) 0.0261 Uani
H10 H 0.011(3) 0.733(3) 0.382(3) 0.0220 Uiso
C9 C 0.1702(3) 0.5837(3) 0.4300(3) 0.0295 Uani
H11 H 0.224(3) 0.569(3) 0.342(3) 0.0210 Uiso
C10 C 0.2135(3) 0.5138(3) 0.5364(3) 0.0271 Uani
H12 H 0.290(4) 0.451(4) 0.526(3) 0.0330 Uiso
C11 C 0.1321(3) 0.5405(3) 0.6605(3) 0.0177 Uani
C12 C 0.1852(3) 0.4621(3) 0.7746(3) 0.0192 Uani
C13 C 0.0063(3) 0.6390(3) 0.6723(3) 0.0173 Uani
Eu6 Eu 0.324726(14) 0.307149(12) 0.962994(12) 0.0140 Uani
H2 H 0.8822 0.0545 0.6630 0.0410 Uiso
Ni4 Ni 0.21301(4) 0.13252(3) 0.38026(3) 0.0170 Uani
O28 O 0.6181(2) 0.00801(19) 0.72161(19) 0.0240 Uani
Eu1 Eu 0.675274(14) 0.692851(12) 0.037006(12) 0.0140 Uani
O13 O 0.7689(3) 0.8843(2) 0.0275(2) 0.0369 Uani
H6 H 0.7605 0.9166 0.0969 0.0440 Uiso
O14 O 0.3363(2) 0.4691(2) 0.09255(19) 0.0232 Uani
O15 O 0.4565(2) 0.6085(2) 0.1172(2) 0.0255 Uani
C16 C 0.4402(3) 0.5229(3) 0.0608(3) 0.0178 Uani
O17 O 0.4743(2) 0.1944(2) 0.78993(19) 0.0241 Uani
O18 O 0.2953(2) 0.0257(2) 0.73101(19) 0.0261 Uani
O19 O 0.1990(2) 0.0511(2) 0.56486(18) 0.0222 Uani
O22 O 0.0782(2) 0.39650(19) 0.09805(18) 0.0210 Uani
O23 O 0.21113(19) 0.23835(18) 0.20103(17) 0.0183 Uani
O24 O 0.0819(2) 0.0231(2) 0.3591(2) 0.0344 Uani
O25 O 0.4994(2) 0.1510(2) 0.0609(2) 0.0371 Uani
H15 H 0.4746 0.1208 0.1396 0.0450 Uiso
H16 H 0.5856 0.1263 0.0165 0.0450 Uiso
H17 H 0.1901 0.0813 0.0452 0.0440 Uiso
N3 N 0.3665(2) 0.2008(2) 0.4212(2) 0.0185 Uani
N4 N 0.0353(2) 0.2896(2) 0.4307(2) 0.0196 Uani
C17 C 0.4544(3) 0.2693(3) 0.3395(3) 0.0237 Uani
H19 H 0.431(4) 0.306(3) 0.263(3) 0.0320 Uiso
C18 C 0.5725(4) 0.2883(3) 0.3680(3) 0.0288 Uani
H20 H 0.637(4) 0.334(4) 0.303(4) 0.0530 Uiso
C19 C 0.5997(3) 0.2346(3) 0.4858(3) 0.0258 Uani
H21 H 0.683(4) 0.241(3) 0.507(3) 0.0270 Uiso
C20 C 0.5078(3) 0.1651(3) 0.5731(3) 0.0172 Uani
C21 C 0.5338(3) 0.1164(3) 0.7045(3) 0.0160 Uani
C22 C 0.3918(3) 0.1487(3) 0.5373(2) 0.0159 Uani
C23 C 0.2870(3) 0.0696(3) 0.6197(3) 0.0182 Uani
C30 C 0.0985(3) 0.3304(3) 0.1996(3) 0.0161 Uani
O29 O 0.5257(2) 0.8056(2) 0.21007(19) 0.0241 Uani
O32 O 0.8306(2) 0.65242(19) 0.1943(2) 0.0269 Uani
O34 O 0.7462(2) 0.4893(2) 0.1725(2) 0.0273 Uani
Ni1 Ni 0.78699(4) 0.86748(3) 0.61974(3) 0.0170 Uani
O1 O 0.3819(2) 0.99199(19) 0.27839(19) 0.0240 Uani
O3 O 0.7047(2) 0.9743(2) 0.26899(19) 0.0261 Uani
O4 O 0.8010(2) 0.9489(2) 0.43514(18) 0.0222 Uani
O7 O 0.9218(2) 0.60350(19) 0.90195(18) 0.0210 Uani
O8 O 0.78887(19) 0.76165(18) 0.79897(17) 0.0183 Uani
O9 O 0.6637(2) 0.5309(2) 0.90745(19) 0.0232 Uani
O10 O 0.5435(2) 0.3915(2) 0.8828(2) 0.0255 Uani
O11 O 0.9181(2) 0.9769(2) 0.6409(2) 0.0344 Uani
O12 O 0.5006(2) 0.8490(2) 0.9391(2) 0.0371 Uani
H3 H 0.5254 0.8792 0.8604 0.0450 Uiso
H4 H 0.4144 0.8737 0.9835 0.0450 Uiso
H5 H 0.8099 0.9187 0.9548 0.0440 Uiso
N1 N 0.6335(2) 0.7992(2) 0.5788(2) 0.0185 Uani
N2 N 0.9647(2) 0.7104(2) 0.5693(2) 0.0196 Uani
C1 C 0.5456(3) 0.7307(3) 0.6605(3) 0.0237 Uani
H7 H 0.569(4) 0.694(3) 0.737(3) 0.0320 Uiso
C2 C 0.4275(4) 0.7117(3) 0.6320(3) 0.0288 Uani
H8 H 0.363(4) 0.666(4) 0.697(4) 0.0530 Uiso
C3 C 0.4003(3) 0.7654(3) 0.5142(3) 0.0258 Uani
H9 H 0.317(4) 0.759(3) 0.493(3) 0.0270 Uiso
C4 C 0.4922(3) 0.8349(3) 0.4269(3) 0.0172 Uani
C5 C 0.4662(3) 0.8836(3) 0.2955(3) 0.0160 Uani
C6 C 0.6082(3) 0.8513(3) 0.4627(2) 0.0159 Uani
C7 C 0.7130(3) 0.9304(3) 0.3803(3) 0.0182 Uani
C14 C 0.9015(3) 0.6696(3) 0.8004(3) 0.0161 Uani
C15 C 0.5598(3) 0.4771(3) 0.9392(3) 0.0178 Uani
O26 O 0.2311(3) 0.1157(2) 0.9725(2) 0.0369 Uani
H18 H 0.2395 0.0834 0.9031 0.0440 Uiso
H14 H 0.1178 0.9455 0.3370 0.0410 Uiso
H13 H 0.9919 0.0554 0.3725 0.0410 Uiso
C24 C 0.9544(3) 0.3172(3) 0.5498(3) 0.0261 Uani
H22 H 0.989(3) 0.267(3) 0.618(3) 0.0220 Uiso
C25 C 0.8298(3) 0.4163(3) 0.5700(3) 0.0295 Uani
H23 H 0.776(3) 0.431(3) 0.658(3) 0.0210 Uiso
C26 C 0.7865(3) 0.4862(3) 0.4636(3) 0.0271 Uani
H24 H 0.710(4) 0.549(4) 0.474(3) 0.0330 Uiso
C27 C 0.8679(3) 0.4595(3) 0.3395(3) 0.0177 Uani
C28 C 0.8148(3) 0.5379(3) 0.2254(3) 0.0192 Uani
C29 C 0.9937(3) 0.3610(3) 0.3277(3) 0.0173 Uani
loop_
_atom_site_aniso_label
_atom_site_aniso_U_11
_atom_site_aniso_U_22
_atom_site_aniso_U_33
_atom_site_aniso_U_23
_atom_site_aniso_U_13
_atom_site_aniso_U_12
O5 0.0331 0.0167 0.0323 0.0035 -0.0152 -0.0042
O6 0.0286 0.0268 0.0308 0.0088 -0.016 -0.0116
C8 0.0288 0.0301 0.0165 0.0011 -0.0071 -0.0031
C9 0.0313 0.0341 0.0163 -0.0046 0.0004 -0.0022
C10 0.0246 0.0224 0.0264 -0.0044 -0.0028 0.0045
C11 0.018 0.0149 0.0192 0.001 -0.0054 -0.0033
C12 0.0143 0.0195 0.0167 -0.0011 -0.0001 0.003
C13 0.0177 0.0176 0.0164 0.0001 -0.0046 -0.0046
Eu6 0.01545 0.01264 0.01289 -0.00124 -0.00339 -0.00214
Ni4 0.01853 0.01696 0.0147 0.00057 -0.00677 -0.00155
O28 0.029 0.019 0.0195 -0.0035 -0.0091 0.0058
Eu1 0.01545 0.01264 0.01289 -0.00124 -0.00339 -0.00214
O13 0.0557 0.0366 0.023 -0.0072 -0.0002 -0.0265
O14 0.0217 0.0257 0.0233 -0.0065 -0.001 -0.0102
O15 0.0233 0.0284 0.0273 -0.0134 -0.0007 -0.0099
C16 0.0173 0.017 0.0181 -0.0008 -0.005 -0.0027
O17 0.0267 0.0246 0.0197 -0.0091 -0.0052 -0.0009
O18 0.0387 0.0294 0.015 0.0054 -0.0114 -0.0157
O19 0.0222 0.0264 0.0201 0.0048 -0.0099 -0.0084
O22 0.0194 0.0242 0.0148 0.0028 -0.0043 -0.0005
O23 0.0162 0.0196 0.0144 0 -0.0029 0.0011
O24 0.0306 0.036 0.0416 -0.0055 -0.0086 -0.0156
O25 0.0291 0.0469 0.0207 0.0055 -0.0051 0.0083
N3 0.0228 0.0164 0.0154 0.0003 -0.0065 -0.0026
N4 0.0202 0.023 0.0128 -0.0002 -0.0038 -0.0017
C17 0.0332 0.0219 0.015 0.0034 -0.0067 -0.0072
C18 0.0353 0.0279 0.0238 0.0052 -0.0054 -0.0153
C19 0.0275 0.0268 0.0271 0.0025 -0.0099 -0.013
C20 0.0197 0.0126 0.0181 -0.004 -0.0053 0
C21 0.0167 0.0165 0.0157 -0.001 -0.004 -0.0057
C22 0.0205 0.0122 0.0128 -0.0031 -0.0038 0.0005
C23 0.0235 0.0124 0.017 -0.0022 -0.0066 0.0002
C30 0.0164 0.0169 0.0152 0.0002 -0.004 -0.0053
O29 0.0267 0.0246 0.0197 -0.0091 -0.0052 -0.0009
O32 0.0331 0.0167 0.0323 0.0035 -0.0152 -0.0042
O34 0.0286 0.0268 0.0308 0.0088 -0.016 -0.0116
Ni1 0.01853 0.01696 0.0147 0.00057 -0.00677 -0.00155
O1 0.029 0.019 0.0195 -0.0035 -0.0091 0.0058
O3 0.0387 0.0294 0.015 0.0054 -0.0114 -0.0157
O4 0.0222 0.0264 0.0201 0.0048 -0.0099 -0.0084
O7 0.0194 0.0242 0.0148 0.0028 -0.0043 -0.0005
O8 0.0162 0.0196 0.0144 0 -0.0029 0.0011
O9 0.0217 0.0257 0.0233 -0.0065 -0.001 -0.0102
O10 0.0233 0.0284 0.0273 -0.0134 -0.0007 -0.0099
O11 0.0306 0.036 0.0416 -0.0055 -0.0086 -0.0156
O12 0.0291 0.0469 0.0207 0.0055 -0.0051 0.0083
N1 0.0228 0.0164 0.0154 0.0003 -0.0065 -0.0026
N2 0.0202 0.023 0.0128 -0.0002 -0.0038 -0.0017
C1 0.0332 0.0219 0.015 0.0034 -0.0067 -0.0072
C2 0.0353 0.0279 0.0238 0.0052 -0.0054 -0.0153
C3 0.0275 0.0268 0.0271 0.0025 -0.0099 -0.013
C4 0.0197 0.0126 0.0181 -0.004 -0.0053 0
C5 0.0167 0.0165 0.0157 -0.001 -0.004 -0.0057
C6 0.0205 0.0122 0.0128 -0.0031 -0.0038 0.0005
C7 0.0235 0.0124 0.017 -0.0022 -0.0066 0.0002
C14 0.0164 0.0169 0.0152 0.0002 -0.004 -0.0053
C15 0.0173 0.017 0.0181 -0.0008 -0.005 -0.0027
O26 0.0557 0.0366 0.023 -0.0072 -0.0002 -0.0265
C24 0.0288 0.0301 0.0165 0.0011 -0.0071 -0.0031
C25 0.0313 0.0341 0.0163 -0.0046 0.0004 -0.0022
C26 0.0246 0.0224 0.0264 -0.0044 -0.0028 0.0045
C27 0.018 0.0149 0.0192 0.001 -0.0054 -0.0033
C28 0.0143 0.0195 0.0167 -0.0011 -0.0001 0.003
C29 0.0177 0.0176 0.0164 0.0001 -0.0046 -0.0046
loop_
_geom_bond_atom_site_label_1
_geom_bond_atom_site_label_2
_geom_bond_site_symmetry_1
_geom_bond_site_symmetry_2
O5 C12 1_555 1_555
O6 C12 1_555 1_555
H10 C8 1_555 1_555
C9 C8 1_555 1_555
H11 C9 1_555 1_555
C10 C9 1_555 1_555
H12 C10 1_555 1_555
C11 C10 1_555 1_555
C12 C11 1_555 1_555
Eu6 O5 1_555 1_555
O6 Eu6 1_555 1_555
C11 C13 1_555 1_555
O13 Eu1 1_555 1_555
H6 O13 1_555 1_555
O14 C16 1_555 1_555
O15 Eu1 1_555 1_555
Ni4 O19 1_555 1_555
O28 C21 1_555 1_555
O17 C21 1_555 1_555
O18 C23 1_555 1_555
O19 C23 1_555 1_555
O24 Ni4 1_555 1_555
H15 O25 1_555 1_555
H16 O25 1_555 1_555
N3 Ni4 1_555 1_555
N4 Ni4 1_555 1_555
C17 N3 1_555 1_555
H19 C17 1_555 1_555
C18 C17 1_555 1_555
H20 C18 1_555 1_555
C19 C18 1_555 1_555
H21 C19 1_555 1_555
C20 C19 1_555 1_555
C21 C20 1_555 1_555
C22 N3 1_555 1_555
C23 C22 1_555 1_555
C30 O22 1_555 1_555
Eu6 O17 1_555 1_555
O29 Eu1 1_555 1_555
O32 Eu1 1_555 1_555
O34 Eu1 1_555 1_555
O15 C16 1_555 1_555
Ni4 O23 1_555 1_555
O23 C30 1_555 1_555
C20 C22 1_555 1_555
Ni1 O4 1_555 1_555
O1 C5 1_555 1_555
O29 C5 1_555 1_555
O3 C7 1_555 1_555
O4 C7 1_555 1_555
O7 C14 1_555 1_555
O10 C15 1_555 1_555
O11 Ni1 1_555 1_555
H3 O12 1_555 1_555
H4 O12 1_555 1_555
N1 Ni1 1_555 1_555
N2 Ni1 1_555 1_555
C1 N1 1_555 1_555
H7 C1 1_555 1_555
C2 C1 1_555 1_555
H8 C2 1_555 1_555
C3 C2 1_555 1_555
H9 C3 1_555 1_555
C4 C3 1_555 1_555
C5 C4 1_555 1_555
C6 N1 1_555 1_555
C7 C6 1_555 1_555
C14 O8 1_555 1_555
C15 O9 1_555 1_555
Eu6 O10 1_555 1_555
O26 Eu6 1_555 1_555
H18 O26 1_555 1_555
Ni1 O8 1_555 1_555
C4 C6 1_555 1_555
O32 C28 1_555 1_555
O34 C28 1_555 1_555
H22 C24 1_555 1_555
C25 C24 1_555 1_555
H23 C25 1_555 1_555
C26 C25 1_555 1_555
H24 C26 1_555 1_555
C27 C26 1_555 1_555
C28 C27 1_555 1_555
C27 C29 1_555 1_555

#END
