
###############################################################################
#
# This file contains modified crystal structure data generated from the
# MOF subset of the Cambridge Structural Database (CSD) v543 
# hosted by the Cambridge Crystallographic Data Centre (CCDC).
#
# This work is licensed under the Creative Commons
# Attribution-NonCommercial-ShareAlike 4.0 International License.
# To view a copy of this license, visit
# http://creativecommons.org/licenses/by-nc-sa/4.0/
# or send a letter to
# Creative Commons, PO Box 1866, Mountain View, CA 94042, USA.
#
# CIF created using the CSD Python API on 29 September 2022
# The structure has been converted into the P1 space group
# The structure has a 3D framework
# The original CSD entry SECHER is in the triclinic crystal system
# The framework has been calculated to contain at least 10.0% void space
# The void calculation uses a probe of radius 1.32A, grid spacing 0.4
#
###############################################################################

data_SECHER
_chemical_formula_moiety         '(C30 H24 N4 Ni2 O24 Pr2)n'
_symmetry_cell_setting           triclinic
_symmetry_space_group_name_H-M   'P 1'
_symmetry_Int_Tables_number      1
_space_group_name_Hall           'P 1'
loop_
_symmetry_equiv_pos_site_id
_symmetry_equiv_pos_as_xyz
1 x,y,z
_cell_length_a                   10.0568(10)
_cell_length_b                   10.7493(11)
_cell_length_c                   10.8539(11)
_cell_angle_alpha                80.209(2)
_cell_angle_beta                 73.408(2)
_cell_angle_gamma                74.129(2)
_cell_volume                     1076.23
loop_
_atom_site_label
_atom_site_type_symbol
_atom_site_fract_x
_atom_site_fract_y
_atom_site_fract_z
_atom_site_U_iso_or_equiv
_atom_site_thermal_displace_type
H2 H 0.3863 0.0510 0.6616 0.0440 Uiso
O28 O 0.1222(2) 0.0080(2) 0.7179(2) 0.0266 Uani
Pr1 Pr 0.177396(16) 0.694005(15) 0.038055(14) 0.0155 Uani
H3 H 0.2685 0.9171 0.0983 0.0440 Uiso
O13 O 0.2757(3) 0.8864(3) 0.0300(2) 0.0461 Uani
C18 C 0.0677(4) 0.2907(3) 0.3683(3) 0.0311 Uani
H18 H 0.132(4) 0.338(4) 0.301(4) 0.0430 Uiso
C19 C 0.0970(4) 0.2364(3) 0.4850(3) 0.0287 Uani
H19 H 0.178(4) 0.247(3) 0.506(3) 0.0270 Uiso
C20 C 0.0076(3) 0.1648(3) 0.5720(3) 0.0185 Uani
C21 C 0.0370(3) 0.1151(3) 0.7023(3) 0.0178 Uani
H23 H 0.0818(17) 0.123(3) 0.0151(16) 0.0220 Uiso
O29 O 0.0217(2) 0.8098(2) 0.2115(2) 0.0262 Uani
O32 O 0.2462(2) 0.4896(2) 0.1801(2) 0.0310 Uani
O34 O 0.3335(2) 0.6504(2) 0.1995(2) 0.0299 Uani
Ni1 Ni 0.28816(4) 0.86798(4) 0.61764(3) 0.0184 Uani
O3 O 0.1988(2) 0.9775(2) 0.2705(2) 0.0281 Uani
O4 O 0.2986(2) 0.9505(2) 0.4348(2) 0.0240 Uani
O5 O 0.7538(2) 0.5104(2) 0.8199(2) 0.0310 Uani
O6 O 0.6665(2) 0.3496(2) 0.8005(2) 0.0299 Uani
O7 O 0.4264(2) 0.6034(2) 0.89700(19) 0.0241 Uani
O8 O 0.2927(2) 0.7623(2) 0.79571(18) 0.0203 Uani
O11 O 0.4209(3) 0.9744(2) 0.6389(2) 0.0364 Uani
H1 H 0.5103 0.9417 0.6251 0.0440 Uiso
O12 O 0.0011(3) 0.8548(3) 0.9356(2) 0.0475 Uani
H4 H 0.0263 0.8842 0.8569 0.0570 Uiso
N1 N 0.1350(3) 0.7999(2) 0.5783(2) 0.0193 Uani
N2 N 0.4638(3) 0.7122(2) 0.5656(2) 0.0214 Uani
C1 C 0.0493(4) 0.7295(3) 0.6595(3) 0.0260 Uani
H5 H 0.071(4) 0.693(3) 0.740(3) 0.0320 Uiso
C6 C 0.1072(3) 0.8524(3) 0.4641(3) 0.0182 Uani
C7 C 0.2094(3) 0.9328(3) 0.3812(3) 0.0195 Uani
C8 C 0.5420(3) 0.6859(3) 0.4471(3) 0.0277 Uani
H8 H 0.506(3) 0.733(3) 0.378(3) 0.0230 Uiso
C9 C 0.6652(4) 0.5874(4) 0.4261(3) 0.0334 Uani
H9 H 0.716(4) 0.575(4) 0.341(4) 0.0390 Uiso
C10 C 0.7095(4) 0.5158(3) 0.5313(3) 0.0291 Uani
H10 H 0.791(4) 0.455(4) 0.522(3) 0.0340 Uiso
C11 C 0.6298(3) 0.5419(3) 0.6558(3) 0.0201 Uani
C12 C 0.6843(3) 0.4631(3) 0.7682(3) 0.0206 Uani
C13 C 0.5067(3) 0.6399(3) 0.6679(3) 0.0187 Uani
C14 C 0.4043(3) 0.6701(3) 0.7965(3) 0.0186 Uani
H12 H 0.304(4) 0.924(3) 0.9540(9) 0.0550 Uiso
O14 O 0.0448(2) 0.3901(2) 0.8862(2) 0.0296 Uani
O15 O 0.1650(2) 0.5278(2) 0.9095(2) 0.0257 Uani
C16 C 0.0606(3) 0.4755(3) 0.9408(3) 0.0187 Uani
Pr6 Pr 0.822604(16) 0.305995(15) 0.961945(14) 0.0155 Uani
Ni4 Ni 0.71184(4) 0.13202(4) 0.38236(3) 0.0184 Uani
O9 O 0.9552(2) 0.6099(2) 0.1138(2) 0.0296 Uani
O10 O 0.8350(2) 0.4722(2) 0.0905(2) 0.0257 Uani
C15 C 0.9394(3) 0.5245(3) 0.0592(3) 0.0187 Uani
O17 O 0.9783(2) 0.1902(2) 0.7885(2) 0.0262 Uani
O18 O 0.8012(2) 0.0225(2) 0.7295(2) 0.0281 Uani
O19 O 0.7014(2) 0.0495(2) 0.5652(2) 0.0240 Uani
O22 O 0.5736(2) 0.3966(2) 0.10300(19) 0.0241 Uani
O23 O 0.7073(2) 0.2377(2) 0.20429(18) 0.0203 Uani
O24 O 0.5791(3) 0.0256(2) 0.3611(2) 0.0364 Uani
H13 H 0.4897 0.0583 0.3749 0.0440 Uiso
O25 O 0.9989(3) 0.1452(3) 0.0644(2) 0.0475 Uani
H16 H 0.9737 0.1158 0.1431 0.0570 Uiso
N3 N 0.8650(3) 0.2001(2) 0.4217(2) 0.0193 Uani
N4 N 0.5362(3) 0.2878(2) 0.4344(2) 0.0214 Uani
C17 C 0.9507(4) 0.2705(3) 0.3405(3) 0.0260 Uani
H17 H 0.929(4) 0.307(3) 0.260(3) 0.0320 Uiso
C22 C 0.8928(3) 0.1476(3) 0.5359(3) 0.0182 Uani
C23 C 0.7906(3) 0.0672(3) 0.6188(3) 0.0195 Uani
C24 C 0.4580(3) 0.3141(3) 0.5529(3) 0.0277 Uani
H20 H 0.494(3) 0.267(3) 0.622(3) 0.0230 Uiso
C25 C 0.3348(4) 0.4126(4) 0.5739(3) 0.0334 Uani
H21 H 0.284(4) 0.425(4) 0.659(4) 0.0390 Uiso
C26 C 0.2905(4) 0.4842(3) 0.4687(3) 0.0291 Uani
H22 H 0.209(4) 0.545(4) 0.478(3) 0.0340 Uiso
C27 C 0.3702(3) 0.4581(3) 0.3442(3) 0.0201 Uani
C28 C 0.3157(3) 0.5369(3) 0.2318(3) 0.0206 Uani
C29 C 0.4933(3) 0.3601(3) 0.3321(3) 0.0187 Uani
C30 C 0.5957(3) 0.3299(3) 0.2035(3) 0.0186 Uani
H24 H 0.696(4) 0.076(3) 0.0460(9) 0.0550 Uiso
O1 O 0.8778(2) 0.9920(2) 0.2821(2) 0.0266 Uani
C2 C 0.9323(4) 0.7093(3) 0.6317(3) 0.0311 Uani
H6 H 0.868(4) 0.662(4) 0.699(4) 0.0430 Uiso
C3 C 0.9030(4) 0.7636(3) 0.5150(3) 0.0287 Uani
H7 H 0.822(4) 0.753(3) 0.494(3) 0.0270 Uiso
C4 C 0.9924(3) 0.8352(3) 0.4280(3) 0.0185 Uani
C5 C 0.9630(3) 0.8849(3) 0.2977(3) 0.0178 Uani
H11 H 0.9182(17) 0.877(3) 0.9849(16) 0.0220 Uiso
H15 H 0.7315 0.0829 0.9017 0.0440 Uiso
O26 O 0.7243(3) 0.1136(3) 0.9700(2) 0.0461 Uani
H14 H 0.6137 0.9490 0.3384 0.0440 Uiso
loop_
_atom_site_aniso_label
_atom_site_aniso_U_11
_atom_site_aniso_U_22
_atom_site_aniso_U_33
_atom_site_aniso_U_23
_atom_site_aniso_U_13
_atom_site_aniso_U_12
O28 0.0297 0.024 0.0217 -0.0057 -0.0097 0.0063
Pr1 0.01644 0.0156 0.01369 -0.00241 -0.00367 -0.00201
O13 0.0729 0.0484 0.0241 -0.0113 0.0023 -0.0368
C18 0.0355 0.0332 0.0254 0.0046 -0.0053 -0.0167
C19 0.0307 0.0302 0.0299 0.0004 -0.0113 -0.0129
C20 0.0235 0.0139 0.0166 -0.0037 -0.0061 0.0005
C21 0.0171 0.0185 0.0185 -0.0048 -0.0041 -0.0041
O29 0.0272 0.0283 0.0213 -0.0108 -0.0056 0.0008
O32 0.0344 0.0272 0.0361 0.0099 -0.0189 -0.0122
O34 0.034 0.0209 0.0376 0.0024 -0.0179 -0.005
Ni1 0.0196 0.0197 0.01535 -0.00052 -0.00742 -0.00122
O3 0.0389 0.0326 0.0172 0.0034 -0.0118 -0.0144
O4 0.024 0.0283 0.0214 0.004 -0.0103 -0.0083
O5 0.0344 0.0272 0.0361 0.0099 -0.0189 -0.0122
O6 0.034 0.0209 0.0376 0.0024 -0.0179 -0.005
O7 0.0197 0.0301 0.0158 0.0026 -0.0037 0.001
O8 0.0175 0.0218 0.0165 -0.0017 -0.0042 0.0032
O11 0.0326 0.0393 0.0434 -0.0077 -0.0106 -0.0155
O12 0.0342 0.0601 0.0249 0.0046 -0.0038 0.0173
N1 0.0234 0.0181 0.0154 -0.001 -0.0067 -0.002
N2 0.0209 0.0255 0.0164 -0.001 -0.0062 -0.0025
C1 0.0369 0.023 0.0168 0.0023 -0.0083 -0.0062
C6 0.0217 0.0147 0.0167 -0.0052 -0.0048 0.0001
C7 0.0234 0.0159 0.0164 -0.0022 -0.005 0.0003
C8 0.0286 0.0341 0.0156 -0.0014 -0.0058 -0.0001
C9 0.0343 0.04 0.0179 -0.0069 0.0004 -0.0008
C10 0.0257 0.0274 0.025 -0.0047 -0.0022 0.0056
C11 0.0197 0.0189 0.0205 -0.0002 -0.0056 -0.0033
C12 0.0144 0.0228 0.0203 -0.003 -0.0026 0.0014
C13 0.0183 0.0212 0.0167 -0.003 -0.0047 -0.004
C14 0.0186 0.0206 0.0164 -0.0007 -0.0047 -0.0045
O14 0.025 0.0336 0.0327 -0.0184 0.0015 -0.0113
O15 0.0229 0.0324 0.0231 -0.0106 0.0017 -0.0118
C16 0.019 0.0193 0.0177 -0.0012 -0.0066 -0.0029
Pr6 0.01644 0.0156 0.01369 -0.00241 -0.00367 -0.00201
Ni4 0.0196 0.0197 0.01535 -0.00052 -0.00742 -0.00122
O9 0.025 0.0336 0.0327 -0.0184 0.0015 -0.0113
O10 0.0229 0.0324 0.0231 -0.0106 0.0017 -0.0118
C15 0.019 0.0193 0.0177 -0.0012 -0.0066 -0.0029
O17 0.0272 0.0283 0.0213 -0.0108 -0.0056 0.0008
O18 0.0389 0.0326 0.0172 0.0034 -0.0118 -0.0144
O19 0.024 0.0283 0.0214 0.004 -0.0103 -0.0083
O22 0.0197 0.0301 0.0158 0.0026 -0.0037 0.001
O23 0.0175 0.0218 0.0165 -0.0017 -0.0042 0.0032
O24 0.0326 0.0393 0.0434 -0.0077 -0.0106 -0.0155
O25 0.0342 0.0601 0.0249 0.0046 -0.0038 0.0173
N3 0.0234 0.0181 0.0154 -0.001 -0.0067 -0.002
N4 0.0209 0.0255 0.0164 -0.001 -0.0062 -0.0025
C17 0.0369 0.023 0.0168 0.0023 -0.0083 -0.0062
C22 0.0217 0.0147 0.0167 -0.0052 -0.0048 0.0001
C23 0.0234 0.0159 0.0164 -0.0022 -0.005 0.0003
C24 0.0286 0.0341 0.0156 -0.0014 -0.0058 -0.0001
C25 0.0343 0.04 0.0179 -0.0069 0.0004 -0.0008
C26 0.0257 0.0274 0.025 -0.0047 -0.0022 0.0056
C27 0.0197 0.0189 0.0205 -0.0002 -0.0056 -0.0033
C28 0.0144 0.0228 0.0203 -0.003 -0.0026 0.0014
C29 0.0183 0.0212 0.0167 -0.003 -0.0047 -0.004
C30 0.0186 0.0206 0.0164 -0.0007 -0.0047 -0.0045
O1 0.0297 0.024 0.0217 -0.0057 -0.0097 0.0063
C2 0.0355 0.0332 0.0254 0.0046 -0.0053 -0.0167
C3 0.0307 0.0302 0.0299 0.0004 -0.0113 -0.0129
C4 0.0235 0.0139 0.0166 -0.0037 -0.0061 0.0005
C5 0.0171 0.0185 0.0185 -0.0048 -0.0041 -0.0041
O26 0.0729 0.0484 0.0241 -0.0113 0.0023 -0.0368
loop_
_geom_bond_atom_site_label_1
_geom_bond_atom_site_label_2
_geom_bond_site_symmetry_1
_geom_bond_site_symmetry_2
H3 O13 1_555 1_555
O13 Pr1 1_555 1_555
O28 C21 1_555 1_555
H18 C18 1_555 1_555
C19 C18 1_555 1_555
H19 C19 1_555 1_555
C20 C19 1_555 1_555
C21 C20 1_555 1_555
O29 Pr1 1_555 1_555
O32 Pr1 1_555 1_555
O34 Pr1 1_555 1_555
Ni1 O4 1_555 1_555
O3 C7 1_555 1_555
O4 C7 1_555 1_555
O5 C12 1_555 1_555
O6 C12 1_555 1_555
O7 C14 1_555 1_555
O8 Ni1 1_555 1_555
O11 Ni1 1_555 1_555
H1 O11 1_555 1_555
H4 O12 1_555 1_555
N1 Ni1 1_555 1_555
N2 Ni1 1_555 1_555
C1 N1 1_555 1_555
H5 C1 1_555 1_555
C6 N1 1_555 1_555
C7 C6 1_555 1_555
C8 N2 1_555 1_555
H8 C8 1_555 1_555
C9 C8 1_555 1_555
H9 C9 1_555 1_555
C10 C9 1_555 1_555
H10 C10 1_555 1_555
C11 C10 1_555 1_555
C12 C11 1_555 1_555
C13 N2 1_555 1_555
C14 O8 1_555 1_555
O14 C16 1_555 1_555
Pr6 O5 1_555 1_555
O6 Pr6 1_555 1_555
C11 C13 1_555 1_555
C13 C14 1_555 1_555
O15 C16 1_555 1_555
O10 C15 1_555 1_555
C15 O9 1_555 1_555
Ni4 O19 1_555 1_555
O18 C23 1_555 1_555
O19 C23 1_555 1_555
O32 C28 1_555 1_555
O34 C28 1_555 1_555
O23 Ni4 1_555 1_555
O24 Ni4 1_555 1_555
H13 O24 1_555 1_555
H16 O25 1_555 1_555
N3 Ni4 1_555 1_555
N4 Ni4 1_555 1_555
C17 N3 1_555 1_555
H17 C17 1_555 1_555
C22 N3 1_555 1_555
C23 C22 1_555 1_555
C24 N4 1_555 1_555
H20 C24 1_555 1_555
C25 C24 1_555 1_555
H21 C25 1_555 1_555
C26 C25 1_555 1_555
H22 C26 1_555 1_555
C27 C26 1_555 1_555
C28 C27 1_555 1_555
C29 N4 1_555 1_555
C30 O22 1_555 1_555
Pr6 O17 1_555 1_555
O23 C30 1_555 1_555
C27 C29 1_555 1_555
C29 C30 1_555 1_555
O1 C5 1_555 1_555
H6 C2 1_555 1_555
C3 C2 1_555 1_555
H7 C3 1_555 1_555
C4 C3 1_555 1_555
C5 C4 1_555 1_555
H15 O26 1_555 1_555
O26 Pr6 1_555 1_555

#END
