
###############################################################################
#
# This file contains modified crystal structure data generated from the
# MOF subset of the Cambridge Structural Database (CSD) v543 
# hosted by the Cambridge Crystallographic Data Centre (CCDC).
#
# This work is licensed under the Creative Commons
# Attribution-NonCommercial-ShareAlike 4.0 International License.
# To view a copy of this license, visit
# http://creativecommons.org/licenses/by-nc-sa/4.0/
# or send a letter to
# Creative Commons, PO Box 1866, Mountain View, CA 94042, USA.
#
# CIF created using the CSD Python API on 29 September 2022
# The structure has been converted into the P1 space group
# The structure has a 3D framework
# The original CSD entry SEKVUD is in the orthorhombic crystal system
# The framework has been calculated to contain at least 10.0% void space
# The void calculation uses a probe of radius 1.32A, grid spacing 0.4
#
###############################################################################

data_SEKVUD
_chemical_formula_moiety         '(C104 H72 F36 Ge9 N16 Zn6)n'
_symmetry_cell_setting           triclinic
_symmetry_space_group_name_H-M   'P 1'
_symmetry_Int_Tables_number      1
_space_group_name_Hall           'P 1'
loop_
_symmetry_equiv_pos_site_id
_symmetry_equiv_pos_as_xyz
1 x,y,z
_cell_length_a                   15.5555(7)
_cell_length_b                   24.6790(10)
_cell_length_c                   9.5067(4)
_cell_angle_alpha                90
_cell_angle_beta                 90
_cell_angle_gamma                90
_cell_volume                     3649.57
loop_
_atom_site_label
_atom_site_type_symbol
_atom_site_fract_x
_atom_site_fract_y
_atom_site_fract_z
Ge2 Ge -0.000000 0.500000 0.500000
Zn1 Zn 0.750000 0.500000 0.500000
Ge1 Ge 0.500000 0.500000 0.500000
F1 F 0.61565(15) 0.500000 0.500000
N1 N 0.74382(15) 0.43793(8) 0.3436(2)
F2 F 0.500000 0.56692(12) 0.4444(5)
F3 F 0.500000 0.52090(19) 0.6737(3)
C1 C 0.8051(2) 0.43171(11) 0.2464(3)
H1 H 0.848653 0.457459 0.241450
C2 C 0.7441(2) 0.29961(10) 0.0738(3)
C3 C 0.68123(19) 0.40113(11) 0.3479(3)
H2 H 0.637161 0.405734 0.412919
C4 C 0.74278(19) 0.34943(10) 0.1603(3)
C5 C 0.6786(2) 0.35644(11) 0.2604(3)
H3 H 0.634381 0.331292 0.268497
C6 C 0.8068(2) 0.38881(11) 0.1528(3)
H4 H 0.850181 0.386275 0.085724
C7 C 0.7395(3) 0.250000 0.1429(4)
H5 H 0.732995 0.249999 0.240122
N3 N 0.74382(15) 0.06207(8) 0.3436(2)
C15 C 0.8051(2) 0.06829(11) 0.2464(3)
H11 H 0.848653 0.042541 0.241450
C16 C 0.7441(2) 0.20039(10) 0.0738(3)
C17 C 0.68123(19) 0.09887(11) 0.3479(3)
H12 H 0.637161 0.094266 0.412919
C18 C 0.74278(19) 0.15057(10) 0.1603(3)
C19 C 0.6786(2) 0.14356(11) 0.2604(3)
H13 H 0.634381 0.168708 0.268497
C20 C 0.8068(2) 0.11119(11) 0.1528(3)
H14 H 0.850181 0.113725 0.085724
F4 F 0.88435(15) 0.500000 0.500000
F5 F 0.500000 0.43308(12) 0.5556(5)
F6 F 0.500000 0.47910(19) 0.3263(3)
Zn4 Zn 0.750000 -0.000000 0.500000
Ge2_2 Ge 1.000000 0.500000 0.500000
F7 F 0.38435(15) 0.500000 0.500000
N5 N 0.74382(15) 0.56207(8) 0.6564(2)
N6 N 0.75618(15) 0.56207(8) 0.3436(2)
N7 N 0.75618(15) 0.43793(8) 0.6564(2)
C8 C 0.6949(2) 0.43171(11) 0.7536(3)
H6 H 0.651347 0.457459 0.758550
C9 C 0.7559(2) 0.29961(10) 0.9262(3)
C10 C 0.81877(19) 0.40113(11) 0.6521(3)
H7 H 0.862839 0.405734 0.587081
C11 C 0.75722(19) 0.34943(10) 0.8397(3)
C12 C 0.8214(2) 0.35644(11) 0.7396(3)
H8 H 0.865619 0.331292 0.731503
C13 C 0.6932(2) 0.38881(11) 0.8472(3)
H9 H 0.649819 0.386275 0.914276
C14 C 0.7605(3) 0.250000 0.8571(4)
H10 H 0.767005 0.249999 0.759878
N4 N 0.75618(15) 0.06207(8) 0.6564(2)
C21 C 0.6949(2) 0.06829(11) 0.7536(3)
H15 H 0.651347 0.042541 0.758550
C22 C 0.7559(2) 0.20039(10) 0.9262(3)
C23 C 0.81877(19) 0.09887(11) 0.6521(3)
H16 H 0.862839 0.094266 0.587081
C24 C 0.75722(19) 0.15057(10) 0.8397(3)
C25 C 0.8214(2) 0.14356(11) 0.7396(3)
H17 H 0.865619 0.168708 0.731503
C26 C 0.6932(2) 0.11119(11) 0.8472(3)
H18 H 0.649819 0.113725 0.914276
Zn4_2 Zn 0.750000 1.000000 0.500000
Zn1_2 Zn 0.250000 0.000000 0.500000
Ge1_2 Ge 0.500000 0.000000 0.500000
F1_2 F 0.38435(15) 0.000000 0.500000
N1_2 N 0.25618(15) 0.06207(8) 0.3436(2)
C1_2 C 0.1949(2) 0.06829(11) 0.2464(3)
H1_2 H 0.151347 0.042541 0.241450
C2_2 C 0.2559(2) 0.20039(10) 0.0738(3)
C3_2 C 0.31877(19) 0.09887(11) 0.3479(3)
H2_2 H 0.362839 0.094266 0.412919
C4_2 C 0.25722(19) 0.15057(10) 0.1603(3)
C5_2 C 0.3214(2) 0.14356(11) 0.2604(3)
H3_2 H 0.365619 0.168708 0.268497
C6_2 C 0.1932(2) 0.11119(11) 0.1528(3)
H4_2 H 0.149819 0.113725 0.085724
C7_2 C 0.2605(3) 0.250000 0.1429(4)
H5_2 H 0.267005 0.250001 0.240122
N3_2 N 0.25618(15) 0.43793(8) 0.3436(2)
C15_2 C 0.1949(2) 0.43171(11) 0.2464(3)
H11_2 H 0.151347 0.457459 0.241450
C16_2 C 0.2559(2) 0.29961(10) 0.0738(3)
C17_2 C 0.31877(19) 0.40113(11) 0.3479(3)
H12_2 H 0.362839 0.405734 0.412919
C18_2 C 0.25722(19) 0.34943(10) 0.1603(3)
C19_2 C 0.3214(2) 0.35644(11) 0.2604(3)
H13_2 H 0.365619 0.331292 0.268497
C20_2 C 0.1932(2) 0.38881(11) 0.1528(3)
H14_2 H 0.149819 0.386275 0.085724
F4_2 F 0.11565(15) 0.000000 0.500000
F5_2 F 0.500000 0.06692(12) 0.5556(5)
F6_2 F 0.500000 0.02090(19) 0.3263(3)
Zn4_3 Zn 0.250000 0.500000 0.500000
Ge2_3 Ge 0.000000 0.000000 0.500000
F7_2 F 0.61565(15) 0.000000 0.500000
N7_2 N 0.24382(15) 0.06207(8) 0.6564(2)
C8_2 C 0.3051(2) 0.06829(11) 0.7536(3)
H6_2 H 0.348653 0.042541 0.758550
C9_2 C 0.2441(2) 0.20039(10) 0.9262(3)
C10_2 C 0.18123(19) 0.09887(11) 0.6521(3)
H7_2 H 0.137161 0.094266 0.587081
C11_2 C 0.24278(19) 0.15057(10) 0.8397(3)
C12_2 C 0.1786(2) 0.14356(11) 0.7396(3)
H8_2 H 0.134381 0.168708 0.731503
C13_2 C 0.3068(2) 0.11119(11) 0.8472(3)
H9_2 H 0.350181 0.113725 0.914276
C14_2 C 0.2395(3) 0.250000 0.8571(4)
H10_2 H 0.232995 0.250001 0.759878
N4_2 N 0.24382(15) 0.43793(8) 0.6564(2)
C21_2 C 0.3051(2) 0.43171(11) 0.7536(3)
H15_2 H 0.348653 0.457459 0.758550
C22_2 C 0.2441(2) 0.29961(10) 0.9262(3)
C23_2 C 0.18123(19) 0.40113(11) 0.6521(3)
H16_2 H 0.137161 0.405734 0.587081
C24_2 C 0.24278(19) 0.34943(10) 0.8397(3)
C25_2 C 0.1786(2) 0.35644(11) 0.7396(3)
H17_2 H 0.134381 0.331292 0.731503
C26_2 C 0.3068(2) 0.38881(11) 0.8472(3)
H18_2 H 0.350181 0.386275 0.914276
Zn1_3 Zn 0.250000 1.000000 0.500000
Ge1_3 Ge 0.500000 1.000000 0.500000
F1_3 F 0.38435(15) 1.000000 0.500000
F2_2 F 0.500000 0.93308(12) 0.4444(5)
F3_2 F 0.500000 0.97910(19) 0.6737(3)
F4_3 F 0.11565(15) 1.000000 0.500000
Ge2_4 Ge -0.000000 1.000000 0.500000
F7_3 F 0.61565(15) 1.000000 0.500000
N5_2 N 0.25618(15) 0.93793(8) 0.6564(2)
N6_2 N 0.24382(15) 0.93793(8) 0.3436(2)
Ge2_5 Ge 1.000000 0.000000 0.500000
Ge2_6 Ge 1.000000 1.000000 0.500000
C8_3 C 0.3051(2) 0.93171(11) 0.2464(3)
H6_3 H 0.348653 0.957459 0.241450
C9_3 C 0.2441(2) 0.79961(10) 0.0738(3)
C10_3 C 0.18123(19) 0.90113(11) 0.3479(3)
H7_3 H 0.137161 0.905734 0.412919
C11_3 C 0.24278(19) 0.84943(10) 0.1603(3)
C12_3 C 0.1786(2) 0.85644(11) 0.2604(3)
H8_3 H 0.134381 0.831292 0.268497
C13_3 C 0.3068(2) 0.88881(11) 0.1528(3)
H9_3 H 0.350181 0.886275 0.085724
C14_3 C 0.2395(3) 0.750000 0.1429(4)
H10_3 H 0.232995 0.749999 0.240122
N4_3 N 0.24382(15) 0.56207(8) 0.3436(2)
C21_3 C 0.3051(2) 0.56829(11) 0.2464(3)
H15_3 H 0.348653 0.542541 0.241450
C22_3 C 0.2441(2) 0.70039(10) 0.0738(3)
C23_3 C 0.18123(19) 0.59887(11) 0.3479(3)
H16_3 H 0.137161 0.594266 0.412919
C24_3 C 0.24278(19) 0.65057(10) 0.1603(3)
C25_3 C 0.1786(2) 0.64356(11) 0.2604(3)
H17_3 H 0.134381 0.668708 0.268497
C26_3 C 0.3068(2) 0.61119(11) 0.1528(3)
H18_3 H 0.350181 0.613725 0.085724
C1_3 C 0.1949(2) 0.93171(11) 0.7536(3)
H1_3 H 0.151347 0.957459 0.758550
C2_3 C 0.2559(2) 0.79961(10) 0.9262(3)
C3_3 C 0.31877(19) 0.90113(11) 0.6521(3)
H2_3 H 0.362839 0.905734 0.587081
C4_3 C 0.25722(19) 0.84943(10) 0.8397(3)
C5_3 C 0.3214(2) 0.85644(11) 0.7396(3)
H3_3 H 0.365619 0.831292 0.731503
C6_3 C 0.1932(2) 0.88881(11) 0.8472(3)
H4_3 H 0.149819 0.886275 0.914276
C7_3 C 0.2605(3) 0.750000 0.8571(4)
H5_3 H 0.267005 0.749999 0.759878
N3_3 N 0.25618(15) 0.56207(8) 0.6564(2)
C15_3 C 0.1949(2) 0.56829(11) 0.7536(3)
H11_3 H 0.151347 0.542541 0.758550
C16_3 C 0.2559(2) 0.70039(10) 0.9262(3)
C17_3 C 0.31877(19) 0.59887(11) 0.6521(3)
H12_3 H 0.362839 0.594266 0.587081
C18_3 C 0.25722(19) 0.65057(10) 0.8397(3)
C19_3 C 0.3214(2) 0.64356(11) 0.7396(3)
H13_3 H 0.365619 0.668708 0.731503
C20_3 C 0.1932(2) 0.61119(11) 0.8472(3)
H14_3 H 0.149819 0.613725 0.914276
C8_4 C 0.6949(2) 0.56829(11) 0.2464(3)
H6_4 H 0.651347 0.542541 0.241450
C9_4 C 0.7559(2) 0.70039(10) 0.0738(3)
C10_4 C 0.81877(19) 0.59887(11) 0.3479(3)
H7_4 H 0.862839 0.594266 0.412919
C11_4 C 0.75722(19) 0.65057(10) 0.1603(3)
C12_4 C 0.8214(2) 0.64356(11) 0.2604(3)
H8_4 H 0.865619 0.668708 0.268497
C13_4 C 0.6932(2) 0.61119(11) 0.1528(3)
H9_4 H 0.649819 0.613725 0.085724
C14_4 C 0.7605(3) 0.750000 0.1429(4)
H10_4 H 0.767005 0.750001 0.240122
N4_4 N 0.75618(15) 0.93793(8) 0.3436(2)
C21_4 C 0.6949(2) 0.93171(11) 0.2464(3)
H15_4 H 0.651347 0.957459 0.241450
C22_4 C 0.7559(2) 0.79961(10) 0.0738(3)
C23_4 C 0.81877(19) 0.90113(11) 0.3479(3)
H16_4 H 0.862839 0.905734 0.412919
C24_4 C 0.75722(19) 0.84943(10) 0.1603(3)
C25_4 C 0.8214(2) 0.85644(11) 0.2604(3)
H17_4 H 0.865619 0.831292 0.268497
C26_4 C 0.6932(2) 0.88881(11) 0.1528(3)
H18_4 H 0.649819 0.886275 0.085724
C1_4 C 0.8051(2) 0.56829(11) 0.7536(3)
H1_4 H 0.848653 0.542541 0.758550
C2_4 C 0.7441(2) 0.70039(10) 0.9262(3)
C3_4 C 0.68123(19) 0.59887(11) 0.6521(3)
H2_4 H 0.637161 0.594266 0.587081
C4_4 C 0.74278(19) 0.65057(10) 0.8397(3)
C5_4 C 0.6786(2) 0.64356(11) 0.7396(3)
H3_4 H 0.634381 0.668708 0.731503
C6_4 C 0.8068(2) 0.61119(11) 0.8472(3)
H4_4 H 0.850181 0.613725 0.914276
C7_4 C 0.7395(3) 0.750000 0.8571(4)
H5_4 H 0.732995 0.750001 0.759878
N3_4 N 0.74382(15) 0.93793(8) 0.6564(2)
C15_4 C 0.8051(2) 0.93171(11) 0.7536(3)
H11_4 H 0.848653 0.957459 0.758550
C16_4 C 0.7441(2) 0.79961(10) 0.9262(3)
C17_4 C 0.68123(19) 0.90113(11) 0.6521(3)
H12_4 H 0.637161 0.905734 0.587081
C18_4 C 0.74278(19) 0.84943(10) 0.8397(3)
C19_4 C 0.6786(2) 0.85644(11) 0.7396(3)
H13_4 H 0.634381 0.831292 0.731503
C20_4 C 0.8068(2) 0.88881(11) 0.8472(3)
H14_4 H 0.850181 0.886275 0.914276
F2_3 F 0.000000 0.06692(12) 0.4444(5)
F3_3 F 0.000000 0.02090(19) 0.6737(3)
F5_3 F 0.000000 0.93308(12) 0.5556(5)
F6_3 F 0.000000 0.97910(19) 0.3263(3)
F2_4 F 1.000000 0.06692(12) 0.4444(5)
F3_4 F 1.000000 0.02090(19) 0.6737(3)
F7_4 F 0.88435(15) -0.000000 0.500000
F5_4 F 1.000000 0.93308(12) 0.5556(5)
F6_4 F 1.000000 0.97910(19) 0.3263(3)
F7_5 F 0.88435(15) 1.000000 0.500000
F2_5 F -0.000000 0.43308(12) 0.4444(5)
F3_5 F -0.000000 0.47910(19) 0.6737(3)
F5_5 F -0.000000 0.56692(12) 0.5556(5)
F6_5 F -0.000000 0.52090(19) 0.3263(3)
F7_6 F 0.11565(15) 0.500000 0.500000
F2_6 F 1.000000 0.43308(12) 0.4444(5)
F3_6 F 1.000000 0.47910(19) 0.6737(3)
F5_6 F 1.000000 0.56692(12) 0.5556(5)
F6_6 F 1.000000 0.52090(19) 0.3263(3)
loop_
_geom_bond_atom_site_label_1
_geom_bond_atom_site_label_2
_geom_bond_site_symmetry_1
_geom_bond_site_symmetry_2
Zn1 F1 1_555 1_555
Ge1 F1 1_555 1_555
N1 Zn1 1_555 1_555
F2 Ge1 1_555 1_555
F3 Ge1 1_555 1_555
C1 N1 1_555 1_555
H1 C1 1_555 1_555
C2 C4 1_555 1_555
C3 N1 1_555 1_555
H2 C3 1_555 1_555
C4 C5 1_555 1_555
C5 C3 1_555 1_555
H3 C5 1_555 1_555
C6 C1 1_555 1_555
H4 C6 1_555 1_555
C7 C2 1_555 1_555
H5 C7 1_555 1_555
N3 C15 1_555 1_555
C15 H11 1_555 1_555
C16 C7 1_555 1_555
C17 N3 1_555 1_555
H12 C17 1_555 1_555
C18 C16 1_555 1_555
C19 C17 1_555 1_555
H13 C19 1_555 1_555
C20 C15 1_555 1_555
H14 C20 1_555 1_555
F4 Zn1 1_555 1_555
F5 Ge1 1_555 1_555
F6 Ge1 1_555 1_555
Zn4 N3 1_555 1_555
Ge2_2 F4 1_555 1_555
F7 Ge1 1_555 1_555
N5 Zn1 1_555 1_555
N6 Zn1 1_555 1_555
N7 Zn1 1_555 1_555
C4 C6 1_555 1_555
C18 C19 1_555 1_555
C18 C20 1_555 1_555
N7 C8 1_555 1_555
C8 H6 1_555 1_555
C10 N7 1_555 1_555
H7 C10 1_555 1_555
C11 C9 1_555 1_555
C12 C10 1_555 1_555
H8 C12 1_555 1_555
C13 C8 1_555 1_555
H9 C13 1_555 1_555
C14 C9 1_555 1_555
H10 C14 1_555 1_555
N4 C21 1_555 1_555
C21 H15 1_555 1_555
C22 C14 1_555 1_555
C23 N4 1_555 1_555
H16 C23 1_555 1_555
C24 C22 1_555 1_555
C25 C23 1_555 1_555
H17 C25 1_555 1_555
C26 C21 1_555 1_555
H18 C26 1_555 1_555
Zn4 N4 1_555 1_555
C11 C12 1_555 1_555
C11 C13 1_555 1_555
C24 C25 1_555 1_555
C24 C26 1_555 1_555
Zn1_2 F1_2 1_555 1_555
Ge1_2 F1_2 1_555 1_555
N1_2 Zn1_2 1_555 1_555
C1_2 N1_2 1_555 1_555
H1_2 C1_2 1_555 1_555
C2_2 C4_2 1_555 1_555
C3_2 N1_2 1_555 1_555
H2_2 C3_2 1_555 1_555
C4_2 C5_2 1_555 1_555
C5_2 C3_2 1_555 1_555
H3_2 C5_2 1_555 1_555
C6_2 C1_2 1_555 1_555
H4_2 C6_2 1_555 1_555
C7_2 C2_2 1_555 1_555
H5_2 C7_2 1_555 1_555
N3_2 C15_2 1_555 1_555
C15_2 H11_2 1_555 1_555
C16_2 C7_2 1_555 1_555
C17_2 N3_2 1_555 1_555
H12_2 C17_2 1_555 1_555
C18_2 C16_2 1_555 1_555
C19_2 C17_2 1_555 1_555
H13_2 C19_2 1_555 1_555
C20_2 C15_2 1_555 1_555
H14_2 C20_2 1_555 1_555
F4_2 Zn1_2 1_555 1_555
F5_2 Ge1_2 1_555 1_555
F6_2 Ge1_2 1_555 1_555
Zn4_3 N3_2 1_555 1_555
Ge2_3 F4_2 1_555 1_555
F7_2 Ge1_2 1_555 1_555
N7_2 Zn1_2 1_555 1_555
C4_2 C6_2 1_555 1_555
C18_2 C19_2 1_555 1_555
C18_2 C20_2 1_555 1_555
N7_2 C8_2 1_555 1_555
C8_2 H6_2 1_555 1_555
C10_2 N7_2 1_555 1_555
H7_2 C10_2 1_555 1_555
C11_2 C9_2 1_555 1_555
C12_2 C10_2 1_555 1_555
H8_2 C12_2 1_555 1_555
C13_2 C8_2 1_555 1_555
H9_2 C13_2 1_555 1_555
C14_2 C9_2 1_555 1_555
H10_2 C14_2 1_555 1_555
N4_2 C21_2 1_555 1_555
C21_2 H15_2 1_555 1_555
C22_2 C14_2 1_555 1_555
C23_2 N4_2 1_555 1_555
H16_2 C23_2 1_555 1_555
C24_2 C22_2 1_555 1_555
C25_2 C23_2 1_555 1_555
H17_2 C25_2 1_555 1_555
C26_2 C21_2 1_555 1_555
H18_2 C26_2 1_555 1_555
Zn4_3 N4_2 1_555 1_555
C11_2 C12_2 1_555 1_555
C11_2 C13_2 1_555 1_555
C24_2 C25_2 1_555 1_555
C24_2 C26_2 1_555 1_555
Zn1_3 F1_3 1_555 1_555
Ge1_3 F1_3 1_555 1_555
F2_2 Ge1_3 1_555 1_555
F3_2 Ge1_3 1_555 1_555
F4_3 Zn1_3 1_555 1_555
Ge2_4 F4_3 1_555 1_555
F7_3 Ge1_3 1_555 1_555
N5_2 Zn1_3 1_555 1_555
N6_2 Zn1_3 1_555 1_555
N6_2 C8_3 1_555 1_555
C8_3 H6_3 1_555 1_555
C10_3 N6_2 1_555 1_555
H7_3 C10_3 1_555 1_555
C11_3 C9_3 1_555 1_555
C12_3 C10_3 1_555 1_555
H8_3 C12_3 1_555 1_555
C13_3 C8_3 1_555 1_555
H9_3 C13_3 1_555 1_555
C14_3 C9_3 1_555 1_555
H10_3 C14_3 1_555 1_555
N4_3 C21_3 1_555 1_555
C21_3 H15_3 1_555 1_555
C22_3 C14_3 1_555 1_555
C23_3 N4_3 1_555 1_555
H16_3 C23_3 1_555 1_555
C24_3 C22_3 1_555 1_555
C25_3 C23_3 1_555 1_555
H17_3 C25_3 1_555 1_555
C26_3 C21_3 1_555 1_555
H18_3 C26_3 1_555 1_555
Zn4_3 N4_3 1_555 1_555
C11_3 C12_3 1_555 1_555
C11_3 C13_3 1_555 1_555
C24_3 C25_3 1_555 1_555
C24_3 C26_3 1_555 1_555
C1_3 N5_2 1_555 1_555
H1_3 C1_3 1_555 1_555
C2_3 C4_3 1_555 1_555
C3_3 N5_2 1_555 1_555
H2_3 C3_3 1_555 1_555
C4_3 C5_3 1_555 1_555
C5_3 C3_3 1_555 1_555
H3_3 C5_3 1_555 1_555
C6_3 C1_3 1_555 1_555
H4_3 C6_3 1_555 1_555
C7_3 C2_3 1_555 1_555
H5_3 C7_3 1_555 1_555
N3_3 C15_3 1_555 1_555
C15_3 H11_3 1_555 1_555
C16_3 C7_3 1_555 1_555
C17_3 N3_3 1_555 1_555
H12_3 C17_3 1_555 1_555
C18_3 C16_3 1_555 1_555
C19_3 C17_3 1_555 1_555
H13_3 C19_3 1_555 1_555
C20_3 C15_3 1_555 1_555
H14_3 C20_3 1_555 1_555
Zn4_3 N3_3 1_555 1_555
C4_3 C6_3 1_555 1_555
C18_3 C19_3 1_555 1_555
C18_3 C20_3 1_555 1_555
N6 C8_4 1_555 1_555
C8_4 H6_4 1_555 1_555
C10_4 N6 1_555 1_555
H7_4 C10_4 1_555 1_555
C11_4 C9_4 1_555 1_555
C12_4 C10_4 1_555 1_555
H8_4 C12_4 1_555 1_555
C13_4 C8_4 1_555 1_555
H9_4 C13_4 1_555 1_555
C14_4 C9_4 1_555 1_555
H10_4 C14_4 1_555 1_555
N4_4 C21_4 1_555 1_555
C21_4 H15_4 1_555 1_555
C22_4 C14_4 1_555 1_555
C23_4 N4_4 1_555 1_555
H16_4 C23_4 1_555 1_555
C24_4 C22_4 1_555 1_555
C25_4 C23_4 1_555 1_555
H17_4 C25_4 1_555 1_555
C26_4 C21_4 1_555 1_555
H18_4 C26_4 1_555 1_555
Zn4_2 N4_4 1_555 1_555
C11_4 C12_4 1_555 1_555
C11_4 C13_4 1_555 1_555
C24_4 C25_4 1_555 1_555
C24_4 C26_4 1_555 1_555
C1_4 N5 1_555 1_555
H1_4 C1_4 1_555 1_555
C2_4 C4_4 1_555 1_555
C3_4 N5 1_555 1_555
H2_4 C3_4 1_555 1_555
C4_4 C5_4 1_555 1_555
C5_4 C3_4 1_555 1_555
H3_4 C5_4 1_555 1_555
C6_4 C1_4 1_555 1_555
H4_4 C6_4 1_555 1_555
C7_4 C2_4 1_555 1_555
H5_4 C7_4 1_555 1_555
N3_4 C15_4 1_555 1_555
C15_4 H11_4 1_555 1_555
C16_4 C7_4 1_555 1_555
C17_4 N3_4 1_555 1_555
H12_4 C17_4 1_555 1_555
C18_4 C16_4 1_555 1_555
C19_4 C17_4 1_555 1_555
H13_4 C19_4 1_555 1_555
C20_4 C15_4 1_555 1_555
H14_4 C20_4 1_555 1_555
Zn4_2 N3_4 1_555 1_555
C4_4 C6_4 1_555 1_555
C18_4 C19_4 1_555 1_555
C18_4 C20_4 1_555 1_555
F2_3 Ge2_3 1_555 1_555
F3_3 Ge2_3 1_555 1_555
F5_3 Ge2_4 1_555 1_555
F6_3 Ge2_4 1_555 1_555
F2_4 Ge2_5 1_555 1_555
F3_4 Ge2_5 1_555 1_555
F7_4 Ge2_5 1_555 1_555
F5_4 Ge2_6 1_555 1_555
F6_4 Ge2_6 1_555 1_555
F7_5 Ge2_6 1_555 1_555
F2_5 Ge2 1_555 1_555
F3_5 Ge2 1_555 1_555
F5_5 Ge2 1_555 1_555
F6_5 Ge2 1_555 1_555
F7_6 Ge2 1_555 1_555
F2_6 Ge2_2 1_555 1_555
F3_6 Ge2_2 1_555 1_555
F5_6 Ge2_2 1_555 1_555
F6_6 Ge2_2 1_555 1_555
Zn4_3 F7 1_555 1_555
F7_6 Zn4_3 1_555 1_555
Zn4 F7_2 1_555 1_555
F7_4 Zn4 1_555 1_555
Zn4_2 F7_3 1_555 1_555
F7_5 Zn4_2 1_555 1_555

#END
