
###############################################################################
#
# This file contains modified crystal structure data generated from the
# MOF subset of the Cambridge Structural Database (CSD) v543 
# hosted by the Cambridge Crystallographic Data Centre (CCDC).
#
# This work is licensed under the Creative Commons
# Attribution-NonCommercial-ShareAlike 4.0 International License.
# To view a copy of this license, visit
# http://creativecommons.org/licenses/by-nc-sa/4.0/
# or send a letter to
# Creative Commons, PO Box 1866, Mountain View, CA 94042, USA.
#
# CIF created using the CSD Python API on 29 September 2022
# The structure has been converted into the P1 space group
# The structure has a 3D framework
# The original CSD entry SEMLIJ is in the orthorhombic crystal system
# The framework has been calculated to contain at least 10.0% void space
# The void calculation uses a probe of radius 1.32A, grid spacing 0.4
#
###############################################################################

data_SEMLIJ
_chemical_formula_moiety         '(C140 H96 Co8 N24 O32)n'
_symmetry_cell_setting           triclinic
_symmetry_space_group_name_H-M   'P 1'
_symmetry_Int_Tables_number      1
_space_group_name_Hall           'P 1'
loop_
_symmetry_equiv_pos_site_id
_symmetry_equiv_pos_as_xyz
1 x,y,z
_cell_length_a                   10.4124(6)
_cell_length_b                   20.9183(12)
_cell_length_c                   16.4636(9)
_cell_angle_alpha                90
_cell_angle_beta                 90
_cell_angle_gamma                90
_cell_volume                     3585.93
loop_
_atom_site_label
_atom_site_type_symbol
_atom_site_fract_x
_atom_site_fract_y
_atom_site_fract_z
Co4 Co 0.000000 0.000000 0.000000
Co4_2 Co 0.000000 0.000000 1.000000
Co2 Co 0.000000 0.500000 0.000000
Co4_3 Co 0.000000 1.000000 0.000000
Co2_2 Co 0.000000 0.500000 1.000000
Co4_4 Co 0.000000 1.000000 1.000000
Co4_5 Co 1.000000 0.000000 0.000000
O8 O 0.6803(3) 0.05333(13) 0.92760(19)
H19 H 0.464331 0.004379 0.894059
H23 H 0.475900 0.004871 0.301417
Co3 Co 0.500000 0.000000 0.500000
Co4_6 Co 1.000000 0.000000 1.000000
Co2_3 Co 1.000000 0.500000 0.000000
Co4_7 Co 1.000000 1.000000 0.000000
Co1 Co 0.500000 0.500000 0.500000
O1 O 0.5619(3) 0.58046(10) 0.56481(14)
O2 O 0.8204(3) 0.52405(13) 0.95205(18)
N1 N 0.4089(3) 0.750000 0.7675(2)
O3 O 0.6873(3) 0.63722(12) 0.48243(18)
O4 O 0.6803(3) 0.44667(13) 0.92760(19)
N2 N 0.3794(3) 0.63325(13) 0.31525(17)
N3 N 0.4498(3) 0.55663(13) 0.39626(17)
C1 C 0.4994(3) 0.69256(13) 0.65208(18)
H1 H 0.476704 0.653761 0.675626
C2 C 0.5653(3) 0.69296(12) 0.57848(17)
C3 C 0.5993(4) 0.750000 0.5415(2)
H2 H 0.644097 0.750000 0.492619
C4 C 0.4669(4) 0.750000 0.6913(2)
C5 C 0.6064(3) 0.63130(14) 0.54013(18)
C6 C 0.4511(3) 0.64271(15) 0.83198(17)
C7 C 0.3556(3) 0.69030(14) 0.79890(19)
H3 H 0.307684 0.669821 0.755577
H4 H 0.295062 0.700641 0.841709
C8 C 0.6213(3) 0.55238(15) 0.89535(19)
N4 N 0.1884(5) 0.750000 0.2001(3)
C9 C 0.4070(4) 0.61571(16) 0.3925(2)
H5 H 0.396863 0.642211 0.437391
C10 C 0.7159(4) 0.50500(15) 0.9284(2)
C11 C 0.3811(5) 0.750000 0.3181(3)
H6 H 0.446286 0.750000 0.356736
C12 C 0.3308(3) 0.69332(16) 0.2883(2)
C13 C 0.6630(3) 0.61274(18) 0.8773(2)
H7 H 0.748248 0.623826 0.886623
C14 C 0.5788(3) 0.65748(17) 0.8453(2)
H8 H 0.608741 0.698133 0.832499
C15 C 0.4935(4) 0.53656(18) 0.8820(2)
H9 H 0.464331 0.495621 0.894059
C16 C 0.4097(3) 0.58130(17) 0.8509(2)
H10 H 0.324191 0.570247 0.842374
C17 C 0.4072(5) 0.58097(19) 0.2674(2)
H11 H 0.398158 0.577898 0.211386
C18 C 0.4498(5) 0.53566(19) 0.3177(2)
H12 H 0.475900 0.495129 0.301417
C19 C 0.2361(4) 0.69558(19) 0.2298(3)
H13 H 0.203793 0.657173 0.209940
O5 O 0.5619(3) 0.91954(10) 0.56481(14)
O6 O 0.8204(3) 0.97595(13) 0.95205(18)
O7 O 0.6873(3) 0.86278(12) 0.48243(18)
C20 C 0.4994(3) 0.80744(13) 0.65208(18)
H14 H 0.476704 0.846239 0.675626
C21 C 0.5653(3) 0.80704(12) 0.57848(17)
C22 C 0.6064(3) 0.86870(14) 0.54013(18)
C23 C 0.4511(3) 0.85729(15) 0.83198(17)
C24 C 0.3556(3) 0.80970(14) 0.79890(19)
H15 H 0.307684 0.830179 0.755577
H16 H 0.295062 0.799359 0.841709
C25 C 0.6213(3) 0.94762(15) 0.89535(19)
C26 C 0.7159(4) 0.99500(15) 0.9284(2)
C27 C 0.6630(3) 0.88726(18) 0.8773(2)
H17 H 0.748248 0.876174 0.886623
C28 C 0.5788(3) 0.84252(17) 0.8453(2)
H18 H 0.608741 0.801867 0.832499
C29 C 0.4935(4) 0.96344(18) 0.8820(2)
C30 C 0.4097(3) 0.91870(17) 0.8509(2)
H20 H 0.324191 0.929753 0.842374
N5 N 0.3794(3) 0.86675(13) 0.31525(17)
N6 N 0.4498(3) 0.94337(13) 0.39626(17)
C31 C 0.4070(4) 0.88429(16) 0.3925(2)
H21 H 0.396863 0.857789 0.437391
C32 C 0.3308(3) 0.80668(16) 0.2883(2)
C33 C 0.4072(5) 0.91903(19) 0.2674(2)
H22 H 0.398158 0.922102 0.211386
C34 C 0.4498(5) 0.96434(19) 0.3177(2)
C35 C 0.2361(4) 0.80442(19) 0.2298(3)
H24 H 0.203793 0.842827 0.209940
Co2_4 Co 1.000000 0.500000 1.000000
Co3_2 Co 0.500000 1.000000 0.500000
Co4_8 Co 1.000000 1.000000 1.000000
O9 O 0.4381(3) 0.41954(10) 0.43519(14)
O10 O 0.6796(3) 0.47595(13) 0.45205(18)
O11 O 0.3204(3) 0.52405(13) 0.54795(18)
N7 N 0.5502(3) 0.44337(13) 0.60374(17)
N1_2 N 0.0911(3) 0.250000 0.2675(2)
C1_2 C 0.0006(3) 0.30744(13) 0.15208(18)
H1_2 H 0.023296 0.346239 0.175626
C4_2 C 0.0331(4) 0.250000 0.1913(2)
C6_2 C 0.0489(3) 0.35729(15) 0.33198(17)
C7_2 C 0.1444(3) 0.30970(14) 0.29890(19)
H3_2 H 0.192316 0.330179 0.255577
H4_2 H 0.204938 0.299359 0.341709
C15_2 C 0.0065(4) 0.46344(18) 0.3820(2)
H9_2 H 0.035669 0.504379 0.394059
C16_2 C 0.0903(3) 0.41870(17) 0.3509(2)
H10_2 H 0.175809 0.429753 0.342374
C20_2 C 0.0006(3) 0.19256(13) 0.15208(18)
H14_2 H 0.023296 0.153761 0.175626
C23_2 C 0.0489(3) 0.14271(15) 0.33198(17)
C24_2 C 0.1444(3) 0.19030(14) 0.29890(19)
H15_2 H 0.192316 0.169821 0.255577
H16_2 H 0.204938 0.200641 0.341709
C29_2 C 0.0065(4) 0.03656(18) 0.3820(2)
C30_2 C 0.0903(3) 0.08130(17) 0.3509(2)
H20_2 H 0.175809 0.070247 0.342374
O11_2 O 0.1796(3) 0.47595(13) 0.04795(18)
N2_2 N 0.1206(3) 0.36675(13) 0.81525(17)
N3_2 N 0.0502(3) 0.44337(13) 0.89626(17)
N4_2 N 0.3116(5) 0.250000 0.7001(3)
C9_2 C 0.0930(4) 0.38429(16) 0.8925(2)
H5_2 H 0.103137 0.357789 0.937391
C11_2 C 0.1189(5) 0.250000 0.8181(3)
H6_2 H 0.053714 0.250000 0.856736
C12_2 C 0.1692(3) 0.30668(16) 0.7883(2)
C17_2 C 0.0928(5) 0.41903(19) 0.7674(2)
H11_2 H 0.101842 0.422102 0.711386
C18_2 C 0.0502(5) 0.46434(19) 0.8177(2)
H12_2 H 0.024100 0.504871 0.801417
C19_2 C 0.2639(4) 0.30442(19) 0.7298(3)
H13_2 H 0.296207 0.342827 0.709940
N5_2 N 0.1206(3) 0.13325(13) 0.81525(17)
N6_2 N 0.0502(3) 0.05663(13) 0.89626(17)
C31_2 C 0.0930(4) 0.11571(16) 0.8925(2)
H21_2 H 0.103137 0.142211 0.937391
C32_2 C 0.1692(3) 0.19332(16) 0.7883(2)
C33_2 C 0.0928(5) 0.08097(19) 0.7674(2)
H22_2 H 0.101842 0.077898 0.711386
C34_2 C 0.0502(5) 0.03566(19) 0.8177(2)
C35_2 C 0.2639(4) 0.19558(19) 0.7298(3)
H24_2 H 0.296207 0.157173 0.709940
O9_2 O 0.0619(3) 0.58046(10) 0.93519(14)
H19_2 H 0.035669 0.995621 0.394059
H23_2 H 0.024100 0.995129 0.801417
O1_2 O 0.9381(3) 0.41954(10) 0.06481(14)
O4_2 O 0.8197(3) 0.55333(13) 0.42760(19)
C2_2 C 0.9347(3) 0.30704(12) 0.07848(17)
C3_2 C 0.9007(4) 0.250000 0.0415(2)
C5_2 C 0.8936(3) 0.36870(14) 0.04013(18)
C8_2 C 0.8787(3) 0.44762(15) 0.39535(19)
C10_2 C 0.7841(4) 0.49500(15) 0.4284(2)
C13_2 C 0.8370(3) 0.38726(18) 0.3773(2)
H7_2 H 0.751752 0.376174 0.386623
C14_2 C 0.9212(3) 0.34252(17) 0.3453(2)
H8_2 H 0.891259 0.301867 0.332499
O5_2 O 0.9381(3) 0.08046(10) 0.06481(14)
O6_2 O 0.6796(3) 0.02405(13) 0.45205(18)
C21_2 C 0.9347(3) 0.19296(12) 0.07848(17)
C22_2 C 0.8936(3) 0.13130(14) 0.04013(18)
C25_2 C 0.8787(3) 0.05238(15) 0.39535(19)
C26_2 C 0.7841(4) 0.00500(15) 0.4284(2)
C27_2 C 0.8370(3) 0.11274(18) 0.3773(2)
H17_2 H 0.751752 0.123826 0.386623
C28_2 C 0.9212(3) 0.15748(17) 0.3453(2)
H18_2 H 0.891259 0.198133 0.332499
N7_2 N 0.9498(3) 0.55663(13) 0.10374(17)
O3_2 O 0.8127(3) 0.36278(12) 0.98243(18)
H2_2 H 0.855903 0.250000 0.992619
O7_2 O 0.8127(3) 0.13722(12) 0.98243(18)
O8_2 O 0.8197(3) 0.94667(13) 0.42760(19)
O1_3 O 0.4381(3) 0.08046(10) 0.43519(14)
O2_2 O 0.1796(3) 0.02405(13) 0.04795(18)
N1_3 N 0.5911(3) 0.250000 0.2325(2)
O3_3 O 0.3127(3) 0.13722(12) 0.51757(18)
N2_3 N 0.6206(3) 0.13325(13) 0.68475(17)
N3_3 N 0.5502(3) 0.05663(13) 0.60374(17)
C1_3 C 0.5006(3) 0.19256(13) 0.34792(18)
H1_3 H 0.523296 0.153761 0.324374
C2_3 C 0.4347(3) 0.19296(12) 0.42152(17)
C3_3 C 0.4007(4) 0.250000 0.4585(2)
H2_3 H 0.355903 0.250000 0.507381
C4_3 C 0.5331(4) 0.250000 0.3087(2)
C5_3 C 0.3936(3) 0.13130(14) 0.45987(18)
C6_3 C 0.5489(3) 0.14271(15) 0.16802(17)
C7_3 C 0.6444(3) 0.19030(14) 0.20110(19)
H3_3 H 0.692316 0.169821 0.244423
H4_3 H 0.704938 0.200641 0.158291
C8_3 C 0.3787(3) 0.05238(15) 0.10465(19)
N4_3 N 0.8116(5) 0.250000 0.7999(3)
C9_3 C 0.5930(4) 0.11571(16) 0.6075(2)
H5_3 H 0.603137 0.142211 0.562609
C10_3 C 0.2841(4) 0.00500(15) 0.0716(2)
C11_3 C 0.6189(5) 0.250000 0.6819(3)
H6_3 H 0.553714 0.250000 0.643264
C12_3 C 0.6692(3) 0.19332(16) 0.7117(2)
C13_3 C 0.3370(3) 0.11274(18) 0.1227(2)
H7_3 H 0.251752 0.123826 0.113377
C14_3 C 0.4212(3) 0.15748(17) 0.1547(2)
H8_3 H 0.391259 0.198133 0.167501
C15_3 C 0.5065(4) 0.03656(18) 0.1180(2)
C16_3 C 0.5903(3) 0.08130(17) 0.1491(2)
H10_3 H 0.675809 0.070247 0.157626
C17_3 C 0.5928(5) 0.08097(19) 0.7326(2)
H11_3 H 0.601842 0.077898 0.788614
C18_3 C 0.5502(5) 0.03566(19) 0.6823(2)
C19_3 C 0.7639(4) 0.19558(19) 0.7702(3)
H13_3 H 0.796207 0.157173 0.790060
O7_3 O 0.3127(3) 0.36278(12) 0.51757(18)
O8_3 O 0.3197(3) 0.55333(13) 0.07240(19)
C20_3 C 0.5006(3) 0.30744(13) 0.34792(18)
H14_3 H 0.523296 0.346239 0.324374
C21_3 C 0.4347(3) 0.30704(12) 0.42152(17)
C22_3 C 0.3936(3) 0.36870(14) 0.45987(18)
C23_3 C 0.5489(3) 0.35729(15) 0.16802(17)
C24_3 C 0.6444(3) 0.30970(14) 0.20110(19)
H15_3 H 0.692316 0.330179 0.244423
H16_3 H 0.704938 0.299359 0.158291
C25_3 C 0.3787(3) 0.44762(15) 0.10465(19)
C26_3 C 0.2841(4) 0.49500(15) 0.0716(2)
C27_3 C 0.3370(3) 0.38726(18) 0.1227(2)
H17_3 H 0.251752 0.376174 0.113377
C28_3 C 0.4212(3) 0.34252(17) 0.1547(2)
H18_3 H 0.391259 0.301867 0.167501
C29_3 C 0.5065(4) 0.46344(18) 0.1180(2)
H19_3 H 0.535669 0.504379 0.105941
C30_3 C 0.5903(3) 0.41870(17) 0.1491(2)
H20_3 H 0.675809 0.429753 0.157626
N5_3 N 0.6206(3) 0.36675(13) 0.68475(17)
C31_3 C 0.5930(4) 0.38429(16) 0.6075(2)
H21_3 H 0.603137 0.357789 0.562609
C32_3 C 0.6692(3) 0.30668(16) 0.7117(2)
C33_3 C 0.5928(5) 0.41903(19) 0.7326(2)
H22_3 H 0.601842 0.422102 0.788614
C34_3 C 0.5502(5) 0.46434(19) 0.6823(2)
H23_3 H 0.524100 0.504871 0.698583
C35_3 C 0.7639(4) 0.30442(19) 0.7702(3)
H24_3 H 0.796207 0.342827 0.790060
O4_3 O 0.3197(3) 0.94667(13) 0.07240(19)
H9_3 H 0.535669 0.995621 0.105941
H12_3 H 0.524100 0.995129 0.698583
O10_2 O 0.3204(3) 0.97595(13) 0.54795(18)
O4_4 O 0.1803(3) 0.05333(13) 0.57240(19)
O3_4 O 0.1873(3) 0.86278(12) 0.01757(18)
H2_4 H 0.144097 0.750000 0.007381
O7_4 O 0.1873(3) 0.63722(12) 0.01757(18)
O1_4 O 0.0619(3) 0.91954(10) 0.93519(14)
C2_4 C 0.0653(3) 0.80704(12) 0.92152(17)
C3_4 C 0.0993(4) 0.750000 0.9585(2)
C5_4 C 0.1064(3) 0.86870(14) 0.95987(18)
C8_4 C 0.1213(3) 0.94762(15) 0.60465(19)
C10_4 C 0.2159(4) 0.99500(15) 0.5716(2)
C13_4 C 0.1630(3) 0.88726(18) 0.6227(2)
H7_4 H 0.248248 0.876174 0.613377
C14_4 C 0.0788(3) 0.84252(17) 0.6547(2)
H8_4 H 0.108741 0.801867 0.667501
O8_4 O 0.1803(3) 0.44667(13) 0.57240(19)
C21_4 C 0.0653(3) 0.69296(12) 0.92152(17)
C22_4 C 0.1064(3) 0.63130(14) 0.95987(18)
C25_4 C 0.1213(3) 0.55238(15) 0.60465(19)
C26_4 C 0.2159(4) 0.50500(15) 0.5716(2)
C27_4 C 0.1630(3) 0.61274(18) 0.6227(2)
H17_4 H 0.248248 0.623826 0.613377
C28_4 C 0.0788(3) 0.65748(17) 0.6547(2)
H18_4 H 0.108741 0.698133 0.667501
H12_4 H 0.975900 0.004871 0.198583
H9_4 H 0.964331 0.004379 0.605941
N2_4 N 0.8794(3) 0.86675(13) 0.18475(17)
N3_4 N 0.9498(3) 0.94337(13) 0.10374(17)
N4_4 N 0.6884(5) 0.750000 0.2999(3)
C9_4 C 0.9070(4) 0.88429(16) 0.1075(2)
H5_4 H 0.896863 0.857789 0.062609
C11_4 C 0.8811(5) 0.750000 0.1819(3)
H6_4 H 0.946286 0.750000 0.143264
C12_4 C 0.8308(3) 0.80668(16) 0.2117(2)
C17_4 C 0.9072(5) 0.91903(19) 0.2326(2)
H11_4 H 0.898158 0.922102 0.288614
C18_4 C 0.9498(5) 0.96434(19) 0.1823(2)
C19_4 C 0.7361(4) 0.80442(19) 0.2702(3)
H13_4 H 0.703793 0.842827 0.290060
N5_4 N 0.8794(3) 0.63325(13) 0.18475(17)
C31_4 C 0.9070(4) 0.61571(16) 0.1075(2)
H21_4 H 0.896863 0.642211 0.062609
C32_4 C 0.8308(3) 0.69332(16) 0.2117(2)
C33_4 C 0.9072(5) 0.58097(19) 0.2326(2)
H22_4 H 0.898158 0.577898 0.288614
C34_4 C 0.9498(5) 0.53566(19) 0.1823(2)
H23_4 H 0.975900 0.495129 0.198583
C35_4 C 0.7361(4) 0.69558(19) 0.2702(3)
H24_4 H 0.703793 0.657173 0.290060
N1_4 N 0.9089(3) 0.750000 0.7325(2)
C1_4 C 0.9994(3) 0.80744(13) 0.84792(18)
H1_4 H 0.976704 0.846239 0.824374
C4_4 C 0.9669(4) 0.750000 0.8087(2)
C6_4 C 0.9511(3) 0.85729(15) 0.66802(17)
C7_4 C 0.8556(3) 0.80970(14) 0.70110(19)
H3_4 H 0.807684 0.830179 0.744423
H4_4 H 0.795062 0.799359 0.658291
C15_4 C 0.9935(4) 0.96344(18) 0.6180(2)
C16_4 C 0.9097(3) 0.91870(17) 0.6491(2)
H10_4 H 0.824191 0.929753 0.657626
C20_4 C 0.9994(3) 0.69256(13) 0.84792(18)
H14_4 H 0.976704 0.653761 0.824374
C23_4 C 0.9511(3) 0.64271(15) 0.66802(17)
C24_4 C 0.8556(3) 0.69030(14) 0.70110(19)
H15_4 H 0.807684 0.669821 0.744423
H16_4 H 0.795062 0.700641 0.658291
C29_4 C 0.9935(4) 0.53656(18) 0.6180(2)
H19_4 H 0.964331 0.495621 0.605941
C30_4 C 0.9097(3) 0.58130(17) 0.6491(2)
H20_4 H 0.824191 0.570247 0.657626
loop_
_geom_bond_atom_site_label_1
_geom_bond_atom_site_label_2
_geom_bond_site_symmetry_1
_geom_bond_site_symmetry_2
Co1 O1 1_555 1_555
O1 C5 1_555 1_555
O2 C10 1_555 1_555
N1 C4 1_555 1_555
O3 C5 1_555 1_555
O4 C10 1_555 1_555
N2 C9 1_555 1_555
N3 Co1 1_555 1_555
C1 H1 1_555 1_555
C2 C1 1_555 1_555
C3 C2 1_555 1_555
H2 C3 1_555 1_555
C4 C1 1_555 1_555
C5 C2 1_555 1_555
C6 C7 1_555 1_555
C7 N1 1_555 1_555
H3 C7 1_555 1_555
H4 C7 1_555 1_555
C8 C10 1_555 1_555
N4 C19 1_555 1_555
C9 N3 1_555 1_555
H5 C9 1_555 1_555
C11 H6 1_555 1_555
C12 N2 1_555 1_555
C13 C8 1_555 1_555
H7 C13 1_555 1_555
C14 C6 1_555 1_555
H8 C14 1_555 1_555
C15 C8 1_555 1_555
H9 C15 1_555 1_555
C16 C6 1_555 1_555
H10 C16 1_555 1_555
C17 N2 1_555 1_555
H11 C17 1_555 1_555
C18 N3 1_555 1_555
H12 C18 1_555 1_555
C19 C12 1_555 1_555
H13 C19 1_555 1_555
O5 C22 1_555 1_555
O6 C26 1_555 1_555
O7 C22 1_555 1_555
C20 C4 1_555 1_555
H14 C20 1_555 1_555
C21 C3 1_555 1_555
C22 C21 1_555 1_555
C23 C24 1_555 1_555
C24 N1 1_555 1_555
H15 C24 1_555 1_555
H16 C24 1_555 1_555
C25 C26 1_555 1_555
C27 C25 1_555 1_555
H17 C27 1_555 1_555
C28 C23 1_555 1_555
H18 C28 1_555 1_555
C29 C25 1_555 1_555
C30 C23 1_555 1_555
H20 C30 1_555 1_555
N5 C31 1_555 1_555
N6 C31 1_555 1_555
C31 H21 1_555 1_555
C32 C11 1_555 1_555
C33 N5 1_555 1_555
H22 C33 1_555 1_555
C34 N6 1_555 1_555
C35 N4 1_555 1_555
H24 C35 1_555 1_555
Co2_4 O2 1_555 1_555
Co3_2 O5 1_555 1_555
Co4_8 O6 1_555 1_555
O9 Co1 1_555 1_555
O10 Co1 1_555 1_555
O11 Co1 1_555 1_555
N7 Co1 1_555 1_555
C11 C12 1_555 1_555
C13 C14 1_555 1_555
C15 C16 1_555 1_555
C17 C18 1_555 1_555
C20 C21 1_555 1_555
C27 C28 1_555 1_555
C29 C30 1_555 1_555
N5 C32 1_555 1_555
N6 Co3_2 1_555 1_555
C32 C35 1_555 1_555
C33 C34 1_555 1_555
N1_2 C4_2 1_555 1_555
C1_2 H1_2 1_555 1_555
C4_2 C1_2 1_555 1_555
C6_2 C7_2 1_555 1_555
C7_2 N1_2 1_555 1_555
H3_2 C7_2 1_555 1_555
H4_2 C7_2 1_555 1_555
H9_2 C15_2 1_555 1_555
C16_2 C6_2 1_555 1_555
H10_2 C16_2 1_555 1_555
C20_2 C4_2 1_555 1_555
H14_2 C20_2 1_555 1_555
C23_2 C24_2 1_555 1_555
C24_2 N1_2 1_555 1_555
H15_2 C24_2 1_555 1_555
H16_2 C24_2 1_555 1_555
C30_2 C23_2 1_555 1_555
H20_2 C30_2 1_555 1_555
O11_2 Co2 1_555 1_555
C15_2 C16_2 1_555 1_555
C29_2 C30_2 1_555 1_555
N2_2 C9_2 1_555 1_555
N3_2 Co2_2 1_555 1_555
N4_2 C19_2 1_555 1_555
C9_2 N3_2 1_555 1_555
H5_2 C9_2 1_555 1_555
C11_2 H6_2 1_555 1_555
C12_2 N2_2 1_555 1_555
C17_2 N2_2 1_555 1_555
H11_2 C17_2 1_555 1_555
C18_2 N3_2 1_555 1_555
H12_2 C18_2 1_555 1_555
C19_2 C12_2 1_555 1_555
H13_2 C19_2 1_555 1_555
N5_2 C31_2 1_555 1_555
N6_2 C31_2 1_555 1_555
C31_2 H21_2 1_555 1_555
C32_2 C11_2 1_555 1_555
C33_2 N5_2 1_555 1_555
H22_2 C33_2 1_555 1_555
C34_2 N6_2 1_555 1_555
C35_2 N4_2 1_555 1_555
H24_2 C35_2 1_555 1_555
O9_2 Co2_2 1_555 1_555
C11_2 C12_2 1_555 1_555
C17_2 C18_2 1_555 1_555
N5_2 C32_2 1_555 1_555
N6_2 Co4_2 1_555 1_555
C32_2 C35_2 1_555 1_555
C33_2 C34_2 1_555 1_555
Co2_3 O1_2 1_555 1_555
O1_2 C5_2 1_555 1_555
O10 C10_2 1_555 1_555
O4_2 C10_2 1_555 1_555
C3_2 C2_2 1_555 1_555
C5_2 C2_2 1_555 1_555
C8_2 C10_2 1_555 1_555
C13_2 C8_2 1_555 1_555
H7_2 C13_2 1_555 1_555
H8_2 C14_2 1_555 1_555
O5_2 C22_2 1_555 1_555
O6_2 C26_2 1_555 1_555
C21_2 C3_2 1_555 1_555
C22_2 C21_2 1_555 1_555
C25_2 C26_2 1_555 1_555
C27_2 C25_2 1_555 1_555
H17_2 C27_2 1_555 1_555
H18_2 C28_2 1_555 1_555
Co4_5 O5_2 1_555 1_555
Co3 O6_2 1_555 1_555
N7_2 Co2_3 1_555 1_555
C13_2 C14_2 1_555 1_555
C27_2 C28_2 1_555 1_555
Co3 O1_3 1_555 1_555
O1_3 C5_3 1_555 1_555
O2_2 C10_3 1_555 1_555
N1_3 C4_3 1_555 1_555
O3_3 C5_3 1_555 1_555
N2_3 C9_3 1_555 1_555
N3_3 Co3 1_555 1_555
C1_3 H1_3 1_555 1_555
C2_3 C1_3 1_555 1_555
C3_3 C2_3 1_555 1_555
H2_3 C3_3 1_555 1_555
C4_3 C1_3 1_555 1_555
C5_3 C2_3 1_555 1_555
C6_3 C7_3 1_555 1_555
C7_3 N1_3 1_555 1_555
H3_3 C7_3 1_555 1_555
H4_3 C7_3 1_555 1_555
C8_3 C10_3 1_555 1_555
N4_3 C19_3 1_555 1_555
C9_3 N3_3 1_555 1_555
H5_3 C9_3 1_555 1_555
C11_3 H6_3 1_555 1_555
C12_3 N2_3 1_555 1_555
C13_3 C8_3 1_555 1_555
H7_3 C13_3 1_555 1_555
C14_3 C6_3 1_555 1_555
H8_3 C14_3 1_555 1_555
C15_3 C8_3 1_555 1_555
C16_3 C6_3 1_555 1_555
H10_3 C16_3 1_555 1_555
C17_3 N2_3 1_555 1_555
H11_3 C17_3 1_555 1_555
C18_3 N3_3 1_555 1_555
C19_3 C12_3 1_555 1_555
H13_3 C19_3 1_555 1_555
O9 C22_3 1_555 1_555
O11_2 C26_3 1_555 1_555
O7_3 C22_3 1_555 1_555
O8_3 C26_3 1_555 1_555
C20_3 C4_3 1_555 1_555
H14_3 C20_3 1_555 1_555
C21_3 C3_3 1_555 1_555
C22_3 C21_3 1_555 1_555
C23_3 C24_3 1_555 1_555
C24_3 N1_3 1_555 1_555
H15_3 C24_3 1_555 1_555
H16_3 C24_3 1_555 1_555
C25_3 C26_3 1_555 1_555
C27_3 C25_3 1_555 1_555
H17_3 C27_3 1_555 1_555
C28_3 C23_3 1_555 1_555
H18_3 C28_3 1_555 1_555
C29_3 C25_3 1_555 1_555
H19_3 C29_3 1_555 1_555
C30_3 C23_3 1_555 1_555
H20_3 C30_3 1_555 1_555
N5_3 C31_3 1_555 1_555
N7 C31_3 1_555 1_555
C31_3 H21_3 1_555 1_555
C32_3 C11_3 1_555 1_555
C33_3 N5_3 1_555 1_555
H22_3 C33_3 1_555 1_555
C34_3 N7 1_555 1_555
H23_3 C34_3 1_555 1_555
C35_3 N4_3 1_555 1_555
H24_3 C35_3 1_555 1_555
Co4 O2_2 1_555 1_555
C11_3 C12_3 1_555 1_555
C13_3 C14_3 1_555 1_555
C15_3 C16_3 1_555 1_555
C17_3 C18_3 1_555 1_555
C20_3 C21_3 1_555 1_555
C27_3 C28_3 1_555 1_555
C29_3 C30_3 1_555 1_555
N5_3 C32_3 1_555 1_555
C32_3 C35_3 1_555 1_555
C33_3 C34_3 1_555 1_555
O10_2 Co3_2 1_555 1_555
Co4_4 O1_4 1_555 1_555
O1_4 C5_4 1_555 1_555
O10_2 C10_4 1_555 1_555
C3_4 C2_4 1_555 1_555
C5_4 C2_4 1_555 1_555
C8_4 C10_4 1_555 1_555
C13_4 C8_4 1_555 1_555
H7_4 C13_4 1_555 1_555
H8_4 C14_4 1_555 1_555
O9_2 C22_4 1_555 1_555
O11 C26_4 1_555 1_555
O8_4 C26_4 1_555 1_555
C21_4 C3_4 1_555 1_555
C22_4 C21_4 1_555 1_555
C25_4 C26_4 1_555 1_555
C27_4 C25_4 1_555 1_555
H17_4 C27_4 1_555 1_555
H18_4 C28_4 1_555 1_555
C13_4 C14_4 1_555 1_555
C27_4 C28_4 1_555 1_555
N2_4 C9_4 1_555 1_555
N3_4 Co4_7 1_555 1_555
N4_4 C19_4 1_555 1_555
C9_4 N3_4 1_555 1_555
H5_4 C9_4 1_555 1_555
C11_4 H6_4 1_555 1_555
C12_4 N2_4 1_555 1_555
C17_4 N2_4 1_555 1_555
H11_4 C17_4 1_555 1_555
C18_4 N3_4 1_555 1_555
C19_4 C12_4 1_555 1_555
H13_4 C19_4 1_555 1_555
N5_4 C31_4 1_555 1_555
N7_2 C31_4 1_555 1_555
C31_4 H21_4 1_555 1_555
C32_4 C11_4 1_555 1_555
C33_4 N5_4 1_555 1_555
H22_4 C33_4 1_555 1_555
C34_4 N7_2 1_555 1_555
H23_4 C34_4 1_555 1_555
C35_4 N4_4 1_555 1_555
H24_4 C35_4 1_555 1_555
C11_4 C12_4 1_555 1_555
C17_4 C18_4 1_555 1_555
N5_4 C32_4 1_555 1_555
C32_4 C35_4 1_555 1_555
C33_4 C34_4 1_555 1_555
N1_4 C4_4 1_555 1_555
C1_4 H1_4 1_555 1_555
C4_4 C1_4 1_555 1_555
C6_4 C7_4 1_555 1_555
C7_4 N1_4 1_555 1_555
H3_4 C7_4 1_555 1_555
H4_4 C7_4 1_555 1_555
C16_4 C6_4 1_555 1_555
H10_4 C16_4 1_555 1_555
C20_4 C4_4 1_555 1_555
H14_4 C20_4 1_555 1_555
C23_4 C24_4 1_555 1_555
C24_4 N1_4 1_555 1_555
H15_4 C24_4 1_555 1_555
H16_4 C24_4 1_555 1_555
H19_4 C29_4 1_555 1_555
C30_4 C23_4 1_555 1_555
H20_4 C30_4 1_555 1_555
C15_4 C16_4 1_555 1_555
C29_4 C30_4 1_555 1_555

#END
