
###############################################################################
#
# This file contains modified crystal structure data generated from the
# MOF subset of the Cambridge Structural Database (CSD) v543 
# hosted by the Cambridge Crystallographic Data Centre (CCDC).
#
# This work is licensed under the Creative Commons
# Attribution-NonCommercial-ShareAlike 4.0 International License.
# To view a copy of this license, visit
# http://creativecommons.org/licenses/by-nc-sa/4.0/
# or send a letter to
# Creative Commons, PO Box 1866, Mountain View, CA 94042, USA.
#
# CIF created using the CSD Python API on 29 September 2022
# The structure has been converted into the P1 space group
# The structure has a 3D framework
# The original CSD entry SENWAL is in the orthorhombic crystal system
# The original CSD entry SENWAL is in a Sohncke space group
# The framework has been calculated to contain at least 10.0% void space
# The void calculation uses a probe of radius 1.32A, grid spacing 0.4
#
###############################################################################

data_SENWAL
_chemical_formula_moiety         '(C60 H72 N4 O48 Zn8)n'
_symmetry_cell_setting           triclinic
_symmetry_space_group_name_H-M   'P 1'
_symmetry_Int_Tables_number      1
_space_group_name_Hall           'P 1'
loop_
_symmetry_equiv_pos_site_id
_symmetry_equiv_pos_as_xyz
1 x,y,z
_cell_length_a                   13.385(3)
_cell_length_b                   14.712(3)
_cell_length_c                   15.573(3)
_cell_angle_alpha                90
_cell_angle_beta                 90
_cell_angle_gamma                90
_cell_volume                     3066.64
loop_
_atom_site_label
_atom_site_type_symbol
_atom_site_fract_x
_atom_site_fract_y
_atom_site_fract_z
C1 C 0.0439(8) 0.1688(7) 0.1199(6)
C2 C 0.1048(8) 0.1744(7) 0.0466(6)
H1 H 0.0966 0.2240 0.0082
C3 C 0.1755(8) 0.1101(8) 0.0294(7)
C4 C 0.1917(8) 0.0387(7) 0.0870(6)
C5 C 0.1315(8) 0.0309(7) 0.1601(6)
C6 C 0.0587(9) 0.0962(8) 0.1756(7)
H3 H 0.0182 0.0911 0.2255
C10 C 0.0064(11) 0.6601(9) 0.0833(12)
H4 H 0.0280 0.6637 0.0226
H5 H 0.0652 0.6432 0.1184
H7 H 0.0244 0.7857 0.1358
O12 O 0.1011(6) 0.4629(8) 0.1208(6)
C14 C 0.1527(14) 0.4239(15) 0.1941(12)
H14 H 0.1950 0.3732 0.1733
H15 H 0.1022 0.3976 0.2333
C15 C 0.215(3) 0.486(3) 0.243(2)
H16 H 0.2647 0.5135 0.2051
H17 H 0.2496 0.4517 0.2886
H18 H 0.1736 0.5330 0.2690
O3 O 0.2233(6) 0.1842(5) 0.9023(5)
O4 O 0.3006(5) 0.0542(6) 0.9353(5)
C8 C 0.2388(8) 0.1143(8) 0.9505(7)
C12 C 0.0272(13) 0.3919(11) 0.9057(10)
H9 H 0.0797 0.3561 0.9350
H10 H 0.0574 0.4217 0.8549
Zn4 Zn 0.28752(9) 0.20270(8) 0.79077(7)
Zn6 Zn 0.45004(9) 0.05194(8) 0.90672(7)
O5 O 0.2192(6) 0.9024(5) 0.2156(5)
O6 O 0.0739(5) 0.9407(6) 0.2750(4)
H2 H 0.2433 0.9957 0.0766
C9 C 0.1437(7) 0.9534(8) 0.2208(7)
Zn3 Zn 0.21248(9) 0.79730(8) 0.29077(7)
Zn5 Zn 0.04996(9) 0.94806(8) 0.40672(7)
Zn1 Zn 0.78752(9) 0.29730(8) 0.20923(7)
Zn2 Zn 0.95004(9) 0.44806(8) 0.09328(7)
O1 O 0.9068(6) 0.2241(5) 0.1974(5)
O2 O 0.9657(6) 0.3073(5) 0.0871(5)
C7 C 0.9669(8) 0.2392(7) 0.1368(6)
N1 N 0.6823(8) 0.1924(8) 0.3264(7)
O7 O 0.6743(7) 0.2173(6) 0.2498(5)
O8 O 0.7578(8) 0.2149(8) 0.3675(6)
O9 O 0.6149(10) 0.1481(11) 0.3611(9)
O10 O 0.9288(6) 0.5893(5) 0.0920(5)
C11 C 0.9691(14) 0.7504(12) 0.1114(12)
H6 H 0.9413 0.7830 0.0619
H8 H 0.9170 0.7423 0.1549
O13 O 0.7233(6) 0.3158(5) 0.0977(5)
O14 O 0.8006(5) 0.4458(6) 0.0647(5)
O15 O 0.7808(6) 0.4024(5) 0.2844(5)
O16 O 0.9261(5) 0.4407(6) 0.2250(4)
O5_2 O 0.2808(6) 0.0976(5) 0.7156(5)
O6_2 O 0.4261(5) 0.0593(6) 0.7750(4)
H2_2 H 0.2567 0.0043 0.5766
C9_2 C 0.3563(7) 0.0466(8) 0.7208(7)
Zn1_2 Zn 0.71248(9) 0.70270(8) 0.70923(7)
Zn2_2 Zn 0.54996(9) 0.55194(8) 0.59328(7)
O1_2 O 0.5932(6) 0.7759(5) 0.6974(5)
O2_2 O 0.5343(6) 0.6927(5) 0.5871(5)
O3_2 O 0.2767(6) 0.8158(5) 0.4023(5)
O4_2 O 0.1994(5) 0.9458(6) 0.4353(5)
C1_2 C 0.4561(8) 0.8312(7) 0.6199(6)
C2_2 C 0.3952(8) 0.8256(7) 0.5466(6)
H1_2 H 0.4034 0.7760 0.5082
C3_2 C 0.3245(8) 0.8899(8) 0.5294(7)
C4_2 C 0.3083(8) 0.9613(7) 0.5870(6)
C5_2 C 0.3685(8) 0.9691(7) 0.6601(6)
C6_2 C 0.4413(9) 0.9038(8) 0.6756(7)
H3_2 H 0.4818 0.9089 0.7255
C7_2 C 0.5331(8) 0.7608(7) 0.6368(6)
C8_2 C 0.2612(8) 0.8857(8) 0.4505(7)
N1_2 N 0.8177(8) 0.8076(8) 0.8264(7)
O7_2 O 0.8257(7) 0.7827(6) 0.7498(5)
O8_2 O 0.7422(8) 0.7851(8) 0.8675(6)
O9_2 O 0.8851(10) 0.8519(11) 0.8611(9)
O10_2 O 0.5712(6) 0.4107(5) 0.5920(5)
C10_2 C 0.4936(11) 0.3399(9) 0.5833(12)
H4_2 H 0.4720 0.3363 0.5226
H5_2 H 0.4348 0.3568 0.6184
C11_2 C 0.5309(14) 0.2496(12) 0.6114(12)
H6_2 H 0.5587 0.2170 0.5619
H7_2 H 0.4756 0.2143 0.6358
H8_2 H 0.5830 0.2577 0.6549
O11 O 0.5124(7) 0.5395(6) 0.4640(5)
C12_2 C 0.4728(13) 0.6081(11) 0.4057(10)
H9_2 H 0.4203 0.6439 0.4350
H10_2 H 0.4426 0.5783 0.3549
C13 C 0.5566(19) 0.6697(13) 0.3779(12)
H11 H 0.5787 0.7065 0.4268
H12 H 0.5331 0.7098 0.3319
H13 H 0.6126 0.6330 0.3569
O12_2 O 0.3989(6) 0.5371(8) 0.6208(6)
C14_2 C 0.3473(14) 0.5761(15) 0.6941(12)
H14_2 H 0.3050 0.6268 0.6733
H15_2 H 0.3978 0.6024 0.7333
C15_2 C 0.285(3) 0.514(3) 0.743(2)
H16_2 H 0.2353 0.4865 0.7051
H17_2 H 0.2504 0.5483 0.7886
H18_2 H 0.3264 0.4670 0.7690
O13_2 O 0.7767(6) 0.6842(5) 0.5977(5)
O14_2 O 0.6994(5) 0.5542(6) 0.5647(5)
O15_2 O 0.7192(6) 0.5976(5) 0.7844(5)
O16_2 O 0.5739(5) 0.5593(6) 0.7250(4)
O1_3 O 0.0932(6) 0.7241(5) 0.3026(5)
O2_3 O 0.0343(6) 0.8073(5) 0.4129(5)
C7_3 C 0.0331(8) 0.7392(7) 0.3632(6)
N1_3 N 0.3177(8) 0.6924(8) 0.1736(7)
O7_3 O 0.3257(7) 0.7173(6) 0.2502(5)
O8_3 O 0.2422(8) 0.7149(8) 0.1325(6)
O9_3 O 0.3851(10) 0.6481(11) 0.1389(9)
O11_2 O 0.0124(7) 0.9605(6) 0.5360(5)
C13_2 C 0.0566(19) 0.8303(13) 0.6221(12)
H11_2 H 0.0787 0.7935 0.5732
H12_2 H 0.0331 0.7902 0.6681
H13_2 H 0.1126 0.8670 0.6431
C1_3 C 0.9561(8) 0.6688(7) 0.3801(6)
C2_3 C 0.8952(8) 0.6744(7) 0.4534(6)
H1_3 H 0.9034 0.7240 0.4918
C3_3 C 0.8245(8) 0.6101(8) 0.4706(7)
C4_3 C 0.8083(8) 0.5387(7) 0.4130(6)
H2_3 H 0.7567 0.4957 0.4234
C5_3 C 0.8685(8) 0.5309(7) 0.3399(6)
C6_3 C 0.9413(9) 0.5962(8) 0.3244(7)
H3_3 H 0.9818 0.5911 0.2745
C8_3 C 0.7612(8) 0.6143(8) 0.5495(7)
C9_3 C 0.8563(7) 0.4534(8) 0.2792(7)
C12_3 C 0.9728(13) 0.8919(11) 0.5943(10)
H9_3 H 0.9203 0.8561 0.5650
H10_3 H 0.9426 0.9217 0.6451
O12_3 O 0.8989(6) 0.9629(8) 0.3792(6)
C14_3 C 0.8473(14) 0.9239(15) 0.3059(12)
H14_3 H 0.8050 0.8732 0.3267
H15_3 H 0.8978 0.8976 0.2667
C15_3 C 0.785(3) 0.986(3) 0.257(2)
H17_3 H 0.7504 0.9517 0.2114
C8_4 C 0.7388(8) 0.3857(8) 0.0495(7)
O11_3 O 0.4876(7) 0.0395(6) 0.0360(5)
C12_4 C 0.5272(13) 0.1081(11) 0.0943(10)
H9_4 H 0.5797 0.1439 0.0650
H10_4 H 0.5574 0.0783 0.1451
C13_3 C 0.4434(19) 0.1697(13) 0.1221(12)
H11_3 H 0.4213 0.2065 0.0732
H12_3 H 0.4669 0.2098 0.1681
H13_3 H 0.3874 0.1330 0.1431
O1_4 O 0.4068(6) 0.2759(5) 0.8026(5)
O2_4 O 0.4657(6) 0.1927(5) 0.9129(5)
C1_4 C 0.5439(8) 0.3312(7) 0.8801(6)
C2_4 C 0.6048(8) 0.3256(7) 0.9534(6)
H1_4 H 0.5966 0.2760 0.9918
C3_4 C 0.6755(8) 0.3899(8) 0.9706(7)
C4_4 C 0.6917(8) 0.4613(7) 0.9130(6)
H2_4 H 0.7433 0.5043 0.9234
C5_4 C 0.6315(8) 0.4691(7) 0.8399(6)
C6_4 C 0.5587(9) 0.4038(8) 0.8244(7)
H3_4 H 0.5182 0.4089 0.7745
C7_4 C 0.4669(8) 0.2608(7) 0.8632(6)
C9_4 C 0.6437(7) 0.5466(8) 0.7792(7)
N1_4 N 0.1823(8) 0.3076(8) 0.6736(7)
O7_4 O 0.1743(7) 0.2827(6) 0.7502(5)
O8_4 O 0.2578(8) 0.2851(8) 0.6325(6)
O9_4 O 0.1149(10) 0.3519(11) 0.6389(9)
O12_4 O 0.6011(6) 0.0371(8) 0.8792(6)
C14_4 C 0.6527(14) 0.0761(15) 0.8059(12)
H14_4 H 0.6950 0.1268 0.8267
H15_4 H 0.6022 0.1024 0.7667
C15_4 C 0.715(3) 0.014(3) 0.757(2)
H17_4 H 0.7496 0.0483 0.7114
O11_4 O 0.9876(7) 0.4605(6) 0.9640(5)
C13_4 C 0.9434(19) 0.3303(13) 0.8779(12)
H11_4 H 0.9213 0.2935 0.9268
H12_4 H 0.9669 0.2902 0.8319
H13_4 H 0.8874 0.3670 0.8569
O10_3 O 0.0712(6) 0.0893(5) 0.4080(5)
C11_3 C 0.0309(14) 0.2504(12) 0.3886(12)
H6_3 H 0.0587 0.2830 0.4381
H8_3 H 0.0830 0.2423 0.3451
C10_3 C 0.9936(11) 0.1601(9) 0.4167(12)
H4_3 H 0.9720 0.1637 0.4774
H5_3 H 0.9348 0.1432 0.3816
H7_3 H 0.9756 0.2857 0.3642
H16_3 H 0.7353 0.0135 0.2949
H18_3 H 0.8264 0.0330 0.2310
O10_4 O 0.4288(6) 0.9107(5) 0.9080(5)
C10_4 C 0.5064(11) 0.8399(9) 0.9167(12)
H4_4 H 0.5280 0.8363 0.9774
H5_4 H 0.5652 0.8568 0.8816
C11_4 C 0.4691(14) 0.7496(12) 0.8886(12)
H6_4 H 0.4413 0.7170 0.9381
H7_4 H 0.5244 0.7143 0.8642
H8_4 H 0.4170 0.7577 0.8451
H16_4 H 0.7647 0.9865 0.7949
H18_4 H 0.6736 0.9670 0.7310
loop_
_geom_bond_atom_site_label_1
_geom_bond_atom_site_label_2
_geom_bond_site_symmetry_1
_geom_bond_site_symmetry_2
C1 C2 1_555 1_555
C2 H1 1_555 1_555
C3 C2 1_555 1_555
C4 C3 1_555 1_555
C5 C4 1_555 1_555
C6 C1 1_555 1_555
H3 C6 1_555 1_555
H4 C10 1_555 1_555
H5 C10 1_555 1_555
C14 O12 1_555 1_555
H14 C14 1_555 1_555
H15 C14 1_555 1_555
C15 C14 1_555 1_555
H16 C15 1_555 1_555
H17 C15 1_555 1_555
H18 C15 1_555 1_555
C5 C6 1_555 1_555
O3 C8 1_555 1_555
O4 C8 1_555 1_555
H9 C12 1_555 1_555
H10 C12 1_555 1_555
Zn4 O3 1_555 1_555
Zn6 O4 1_555 1_555
O5 C9 1_555 1_555
O6 C9 1_555 1_555
Zn3 O5 1_555 1_555
Zn5 O6 1_555 1_555
Zn1 O1 1_555 1_555
Zn2 O2 1_555 1_555
O1 C7 1_555 1_555
O2 C7 1_555 1_555
N1 O7 1_555 1_555
O7 Zn1 1_555 1_555
O8 N1 1_555 1_555
O9 N1 1_555 1_555
O10 Zn2 1_555 1_555
H6 C11 1_555 1_555
H8 C11 1_555 1_555
O13 Zn1 1_555 1_555
O14 Zn2 1_555 1_555
O15 Zn1 1_555 1_555
O16 Zn2 1_555 1_555
O5_2 C9_2 1_555 1_555
O6_2 C9_2 1_555 1_555
Zn4 O5_2 1_555 1_555
Zn6 O6_2 1_555 1_555
Zn1_2 O1_2 1_555 1_555
Zn2_2 O2_2 1_555 1_555
O1_2 C7_2 1_555 1_555
O2_2 C7_2 1_555 1_555
O3_2 C8_2 1_555 1_555
O4_2 C8_2 1_555 1_555
C1_2 C2_2 1_555 1_555
C2_2 H1_2 1_555 1_555
C3_2 C2_2 1_555 1_555
C4_2 C3_2 1_555 1_555
C5_2 C4_2 1_555 1_555
C6_2 C1_2 1_555 1_555
H3_2 C6_2 1_555 1_555
C7_2 C1_2 1_555 1_555
C8_2 C3_2 1_555 1_555
N1_2 O7_2 1_555 1_555
O7_2 Zn1_2 1_555 1_555
O8_2 N1_2 1_555 1_555
O9_2 N1_2 1_555 1_555
O10_2 Zn2_2 1_555 1_555
C10_2 O10_2 1_555 1_555
H4_2 C10_2 1_555 1_555
H5_2 C10_2 1_555 1_555
C11_2 C10_2 1_555 1_555
H6_2 C11_2 1_555 1_555
H7_2 C11_2 1_555 1_555
H8_2 C11_2 1_555 1_555
O11 Zn2_2 1_555 1_555
C12_2 O11 1_555 1_555
H9_2 C12_2 1_555 1_555
H10_2 C12_2 1_555 1_555
C13 C12_2 1_555 1_555
H11 C13 1_555 1_555
H12 C13 1_555 1_555
H13 C13 1_555 1_555
O12_2 Zn2_2 1_555 1_555
C14_2 O12_2 1_555 1_555
H14_2 C14_2 1_555 1_555
H15_2 C14_2 1_555 1_555
C15_2 C14_2 1_555 1_555
H16_2 C15_2 1_555 1_555
H17_2 C15_2 1_555 1_555
H18_2 C15_2 1_555 1_555
Zn3 O3_2 1_555 1_555
Zn5 O4_2 1_555 1_555
O13_2 Zn1_2 1_555 1_555
O14_2 Zn2_2 1_555 1_555
O15_2 Zn1_2 1_555 1_555
O16_2 Zn2_2 1_555 1_555
C5_2 C6_2 1_555 1_555
Zn3 O1_3 1_555 1_555
Zn5 O2_3 1_555 1_555
O1_3 C7_3 1_555 1_555
O2_3 C7_3 1_555 1_555
N1_3 O7_3 1_555 1_555
O7_3 Zn3 1_555 1_555
O8_3 N1_3 1_555 1_555
O9_3 N1_3 1_555 1_555
O11_2 Zn5 1_555 1_555
H11_2 C13_2 1_555 1_555
H12_2 C13_2 1_555 1_555
H13_2 C13_2 1_555 1_555
O13_2 C8_3 1_555 1_555
O14_2 C8_3 1_555 1_555
O15 C9_3 1_555 1_555
O16 C9_3 1_555 1_555
C1_3 C2_3 1_555 1_555
C2_3 H1_3 1_555 1_555
C3_3 C2_3 1_555 1_555
C4_3 C3_3 1_555 1_555
H2_3 C4_3 1_555 1_555
C5_3 C4_3 1_555 1_555
C6_3 C1_3 1_555 1_555
H3_3 C6_3 1_555 1_555
C8_3 C3_3 1_555 1_555
C9_3 C5_3 1_555 1_555
H9_3 C12_3 1_555 1_555
H10_3 C12_3 1_555 1_555
C14_3 O12_3 1_555 1_555
H14_3 C14_3 1_555 1_555
H15_3 C14_3 1_555 1_555
C15_3 C14_3 1_555 1_555
H17_3 C15_3 1_555 1_555
C5_3 C6_3 1_555 1_555
O13 C8_4 1_555 1_555
O14 C8_4 1_555 1_555
C12_4 O11_3 1_555 1_555
H9_4 C12_4 1_555 1_555
H10_4 C12_4 1_555 1_555
C13_3 C12_4 1_555 1_555
H11_3 C13_3 1_555 1_555
H12_3 C13_3 1_555 1_555
H13_3 C13_3 1_555 1_555
Zn4 O1_4 1_555 1_555
Zn6 O2_4 1_555 1_555
O1_4 C7_4 1_555 1_555
O2_4 C7_4 1_555 1_555
O15_2 C9_4 1_555 1_555
O16_2 C9_4 1_555 1_555
C1_4 C2_4 1_555 1_555
C2_4 H1_4 1_555 1_555
C3_4 C2_4 1_555 1_555
C4_4 C3_4 1_555 1_555
H2_4 C4_4 1_555 1_555
C5_4 C4_4 1_555 1_555
C6_4 C1_4 1_555 1_555
H3_4 C6_4 1_555 1_555
C7_4 C1_4 1_555 1_555
C9_4 C5_4 1_555 1_555
N1_4 O7_4 1_555 1_555
O7_4 Zn4 1_555 1_555
O8_4 N1_4 1_555 1_555
O9_4 N1_4 1_555 1_555
O12_4 Zn6 1_555 1_555
C14_4 O12_4 1_555 1_555
H14_4 C14_4 1_555 1_555
H15_4 C14_4 1_555 1_555
C15_4 C14_4 1_555 1_555
H17_4 C15_4 1_555 1_555
C5_4 C6_4 1_555 1_555
H11_4 C13_4 1_555 1_555
H12_4 C13_4 1_555 1_555
H13_4 C13_4 1_555 1_555
H6_3 C11_3 1_555 1_555
H8_3 C11_3 1_555 1_555
H4_3 C10_3 1_555 1_555
H5_3 C10_3 1_555 1_555
C10_4 O10_4 1_555 1_555
H4_4 C10_4 1_555 1_555
H5_4 C10_4 1_555 1_555
C11_4 C10_4 1_555 1_555
H6_4 C11_4 1_555 1_555
H7_4 C11_4 1_555 1_555
H8_4 C11_4 1_555 1_555

#END
