
###############################################################################
#
# This file contains modified crystal structure data generated from the
# MOF subset of the Cambridge Structural Database (CSD) v543 
# hosted by the Cambridge Crystallographic Data Centre (CCDC).
#
# This work is licensed under the Creative Commons
# Attribution-NonCommercial-ShareAlike 4.0 International License.
# To view a copy of this license, visit
# http://creativecommons.org/licenses/by-nc-sa/4.0/
# or send a letter to
# Creative Commons, PO Box 1866, Mountain View, CA 94042, USA.
#
# CIF created using the CSD Python API on 29 September 2022
# The structure has been converted into the P1 space group
# The structure has a 3D framework
# The original CSD entry SEPZUL is in the triclinic crystal system
# The framework has been calculated to contain at least 10.0% void space
# The void calculation uses a probe of radius 1.32A, grid spacing 0.4
#
###############################################################################

data_SEPZUL
_chemical_formula_moiety         '(C40 H32 Cr4 Cu2 N16 O14)n'
_symmetry_cell_setting           triclinic
_symmetry_space_group_name_H-M   'P 1'
_symmetry_Int_Tables_number      1
_space_group_name_Hall           'P 1'
loop_
_symmetry_equiv_pos_site_id
_symmetry_equiv_pos_as_xyz
1 x,y,z
_cell_length_a                   8.9931(11)
_cell_length_b                   13.0017(16)
_cell_length_c                   13.0138(16)
_cell_angle_alpha                85.457(3)
_cell_angle_beta                 79.543(3)
_cell_angle_gamma                83.613(3)
_cell_volume                     1484.37
loop_
_atom_site_label
_atom_site_type_symbol
_atom_site_fract_x
_atom_site_fract_y
_atom_site_fract_z
Cu4 Cu 0.24543(6) 0.20585(4) 0.23937(4)
N8 N 0.2299(4) 0.0516(3) 0.2482(3)
H14 H 0.3659 0.0252 0.1138
C20 C 0.1450(6) 0.0047(4) 0.3316(4)
H16 H 0.0935 0.0456 0.3871
Cr1 Cr 0.67027(9) 0.13078(6) 0.13214(6)
O1 O 0.5003(3) 0.1689(2) 0.1892(2)
N1 N 0.2208(4) 0.2166(3) 0.0864(3)
C1 C 0.3308(5) 0.2543(3) 0.0124(4)
H1 H 0.4119 0.2831 0.0340
Cr2 Cr 0.81442(10) 0.19006(8) 0.32426(7)
O2 O 0.6681(4) 0.0254(3) 0.0762(3)
O3 O 0.7341(4) 0.2194(3) 0.0458(3)
O4 O 0.7899(4) 0.1051(3) 0.2286(3)
O5 O 0.8034(5) 0.1229(4) 0.4335(3)
N5 N 0.2587(4) 0.3602(3) 0.2341(3)
C5 C 0.1042(6) 0.1805(4) 0.0556(4)
H4 H 0.0256 0.1556 0.1074
O6 O 0.6839(4) 0.2858(4) 0.3329(4)
N6 N 0.3001(5) 0.6801(3) 0.2260(4)
O7 O 0.9811(4) 0.2298(3) 0.2898(3)
N7 N 0.1869(5) 0.7321(3) 0.2699(3)
C11 C 0.3885(6) 0.3967(4) 0.2432(4)
H9 H 0.4738 0.3486 0.2515
C12 C 0.4039(6) 0.5024(4) 0.2410(5)
H10 H 0.4982 0.5262 0.2462
C13 C 0.2804(6) 0.5707(4) 0.2311(4)
C14 C 0.1433(6) 0.5347(4) 0.2226(4)
H11 H 0.0556 0.5813 0.2169
C15 C 0.1391(6) 0.4285(4) 0.2226(4)
H12 H 0.0474 0.4030 0.2141
C16 C 0.2078(6) 0.8408(4) 0.2596(4)
C17 C 0.2956(6) 0.8867(4) 0.1730(4)
H13 H 0.3478 0.8471 0.1167
C18 C 0.3042(5) 0.9929(4) 0.1717(4)
C19 C 0.1306(6) 0.9008(4) 0.3393(4)
H15 H 0.0686 0.8703 0.3982
N9 N 0.2721(4) 0.2014(3) 0.3925(3)
N2 N 0.1950(5) 0.2081(3) 0.7684(3)
C2 C 0.3294(6) 0.2526(4) 0.9069(4)
H2 H 0.4092 0.2783 0.8566
N3 N 0.3199(5) 0.1991(3) 0.7078(3)
C3 C 0.2100(5) 0.2129(4) 0.8759(4)
C4 C 0.0927(6) 0.1778(4) 0.9511(4)
H3 H 0.0073 0.1528 0.9314
C6 C 0.2992(6) 0.2017(4) 0.6005(4)
C7 C 0.4120(6) 0.1499(4) 0.5308(4)
H5 H 0.4999 0.1147 0.5533
C8 C 0.3936(6) 0.1506(4) 0.4280(4)
H6 H 0.4697 0.1139 0.3801
C9 C 0.1744(6) 0.2562(4) 0.5656(4)
H7 H 0.0975 0.2938 0.6120
C10 C 0.1663(5) 0.2538(4) 0.4613(4)
H8 H 0.0815 0.2910 0.4364
O8 O 0.0189(4) 0.7702(3) 0.7102(3)
N2_2 N 0.8050(5) 0.7919(3) 0.2316(3)
C2_2 C 0.6706(6) 0.7474(4) 0.0931(4)
H2_2 H 0.5908 0.7217 0.1434
N3_2 N 0.6801(5) 0.8009(3) 0.2922(3)
C3_2 C 0.7900(5) 0.7871(4) 0.1241(4)
N4 N 0.7279(4) 0.7986(3) 0.6075(3)
C4_2 C 0.9073(6) 0.8222(4) 0.0489(4)
H3_2 H 0.9927 0.8472 0.0686
C6_2 C 0.7008(6) 0.7983(4) 0.3995(4)
C7_2 C 0.5880(6) 0.8501(4) 0.4692(4)
H5_2 H 0.5001 0.8853 0.4467
C8_2 C 0.6064(6) 0.8494(4) 0.5720(4)
H6_2 H 0.5303 0.8861 0.6199
C9_2 C 0.8256(6) 0.7438(4) 0.4344(4)
H7_2 H 0.9025 0.7062 0.3880
C10_2 C 0.8337(5) 0.7462(4) 0.5387(4)
H8_2 H 0.9185 0.7090 0.5636
Cu2 Cu 0.75457(6) 0.79415(4) 0.76063(4)
Cr1_2 Cr 0.32973(9) 0.86922(6) 0.86786(6)
O1_2 O 0.4997(3) 0.8311(2) 0.8108(2)
N1_2 N 0.7792(4) 0.7834(3) 0.9136(3)
C1_2 C 0.6692(5) 0.7457(3) 0.9876(4)
H1_2 H 0.5881 0.7169 0.9660
Cr2_2 Cr 0.18558(10) 0.80994(8) 0.67574(7)
O2_2 O 0.3319(4) 0.9746(3) 0.9238(3)
O3_2 O 0.2659(4) 0.7806(3) 0.9542(3)
O4_2 O 0.2101(4) 0.8949(3) 0.7714(3)
O5_2 O 0.1966(5) 0.8771(4) 0.5665(3)
N5_2 N 0.7413(4) 0.6398(3) 0.7659(3)
C5_2 C 0.8958(6) 0.8195(4) 0.9444(4)
H4_2 H 0.9744 0.8444 0.8926
O6_2 O 0.3161(4) 0.7142(4) 0.6671(4)
N6_2 N 0.6999(5) 0.3199(3) 0.7740(4)
N7_2 N 0.8131(5) 0.2679(3) 0.7301(3)
C11_2 C 0.6115(6) 0.6033(4) 0.7568(4)
H9_2 H 0.5262 0.6514 0.7485
C12_2 C 0.5961(6) 0.4976(4) 0.7590(5)
H10_2 H 0.5018 0.4738 0.7538
C13_2 C 0.7196(6) 0.4293(4) 0.7689(4)
C14_2 C 0.8567(6) 0.4653(4) 0.7774(4)
H11_2 H 0.9444 0.4187 0.7831
C15_2 C 0.8609(6) 0.5715(4) 0.7774(4)
H12_2 H 0.9526 0.5970 0.7859
C16_2 C 0.7922(6) 0.1592(4) 0.7404(4)
C17_2 C 0.7044(6) 0.1133(4) 0.8270(4)
H13_2 H 0.6522 0.1529 0.8833
C18_2 C 0.6958(5) 0.0071(4) 0.8283(4)
C19_2 C 0.8694(6) 0.0992(4) 0.6607(4)
H15_2 H 0.9314 0.1297 0.6018
N10 N 0.7701(4) 0.9484(3) 0.7518(3)
H14_2 H 0.6341 0.9748 0.8862
C20_2 C 0.8550(6) 0.9953(4) 0.6684(4)
H16_2 H 0.9065 0.9544 0.6129
loop_
_geom_bond_atom_site_label_1
_geom_bond_atom_site_label_2
_geom_bond_site_symmetry_1
_geom_bond_site_symmetry_2
C20 N8 1_555 1_555
H16 C20 1_555 1_555
Cu4 N8 1_555 1_555
Cu4 O1 1_555 1_555
Cr1 O1 1_555 1_555
N1 Cu4 1_555 1_555
C1 N1 1_555 1_555
H1 C1 1_555 1_555
Cr2 O4 1_555 1_555
O2 Cr1 1_555 1_555
O3 Cr1 1_555 1_555
O4 Cr1 1_555 1_555
O5 Cr2 1_555 1_555
N5 Cu4 1_555 1_555
C5 N1 1_555 1_555
H4 C5 1_555 1_555
O6 Cr2 1_555 1_555
N6 N7 1_555 1_555
O7 Cr2 1_555 1_555
N7 C16 1_555 1_555
C11 N5 1_555 1_555
H9 C11 1_555 1_555
C12 C11 1_555 1_555
H10 C12 1_555 1_555
C13 N6 1_555 1_555
C14 C13 1_555 1_555
H11 C14 1_555 1_555
C15 N5 1_555 1_555
H12 C15 1_555 1_555
C16 C17 1_555 1_555
C17 H13 1_555 1_555
C18 C17 1_555 1_555
C19 C16 1_555 1_555
H15 C19 1_555 1_555
N9 Cu4 1_555 1_555
C12 C13 1_555 1_555
C14 C15 1_555 1_555
N2 N3 1_555 1_555
H2 C2 1_555 1_555
N3 C6 1_555 1_555
C3 N2 1_555 1_555
N9 C8 1_555 1_555
C4 C3 1_555 1_555
H3 C4 1_555 1_555
C6 C7 1_555 1_555
C7 H5 1_555 1_555
C8 C7 1_555 1_555
H6 C8 1_555 1_555
C9 C6 1_555 1_555
H7 C9 1_555 1_555
C10 N9 1_555 1_555
H8 C10 1_555 1_555
C2 C3 1_555 1_555
C9 C10 1_555 1_555
N2_2 N3_2 1_555 1_555
H2_2 C2_2 1_555 1_555
N3_2 C6_2 1_555 1_555
C3_2 N2_2 1_555 1_555
N4 C8_2 1_555 1_555
C4_2 C3_2 1_555 1_555
H3_2 C4_2 1_555 1_555
C6_2 C7_2 1_555 1_555
C7_2 H5_2 1_555 1_555
C8_2 C7_2 1_555 1_555
H6_2 C8_2 1_555 1_555
C9_2 C6_2 1_555 1_555
H7_2 C9_2 1_555 1_555
C10_2 N4 1_555 1_555
H8_2 C10_2 1_555 1_555
Cu2 N4 1_555 1_555
C2_2 C3_2 1_555 1_555
C9_2 C10_2 1_555 1_555
Cu2 O1_2 1_555 1_555
Cr1_2 O1_2 1_555 1_555
N1_2 Cu2 1_555 1_555
C1_2 N1_2 1_555 1_555
H1_2 C1_2 1_555 1_555
Cr2_2 O4_2 1_555 1_555
O2_2 Cr1_2 1_555 1_555
O3_2 Cr1_2 1_555 1_555
O4_2 Cr1_2 1_555 1_555
O5_2 Cr2_2 1_555 1_555
N5_2 Cu2 1_555 1_555
C5_2 N1_2 1_555 1_555
H4_2 C5_2 1_555 1_555
O6_2 Cr2_2 1_555 1_555
N6_2 N7_2 1_555 1_555
O8 Cr2_2 1_555 1_555
N7_2 C16_2 1_555 1_555
C11_2 N5_2 1_555 1_555
H9_2 C11_2 1_555 1_555
C12_2 C11_2 1_555 1_555
H10_2 C12_2 1_555 1_555
C13_2 N6_2 1_555 1_555
C14_2 C13_2 1_555 1_555
H11_2 C14_2 1_555 1_555
C15_2 N5_2 1_555 1_555
H12_2 C15_2 1_555 1_555
C16_2 C17_2 1_555 1_555
C17_2 H13_2 1_555 1_555
C18_2 C17_2 1_555 1_555
C19_2 C16_2 1_555 1_555
H15_2 C19_2 1_555 1_555
N10 Cu2 1_555 1_555
C12_2 C13_2 1_555 1_555
C14_2 C15_2 1_555 1_555
C20_2 N10 1_555 1_555
H16_2 C20_2 1_555 1_555

#END
