
###############################################################################
#
# This file contains modified crystal structure data generated from the
# MOF subset of the Cambridge Structural Database (CSD) v543 
# hosted by the Cambridge Crystallographic Data Centre (CCDC).
#
# This work is licensed under the Creative Commons
# Attribution-NonCommercial-ShareAlike 4.0 International License.
# To view a copy of this license, visit
# http://creativecommons.org/licenses/by-nc-sa/4.0/
# or send a letter to
# Creative Commons, PO Box 1866, Mountain View, CA 94042, USA.
#
# CIF created using the CSD Python API on 29 September 2022
# The structure has been converted into the P1 space group
# The structure has a 3D framework
# The original CSD entry SEPZOF is in the triclinic crystal system
# The framework has been calculated to contain at least 10.0% void space
# The void calculation uses a probe of radius 1.32A, grid spacing 0.4
#
###############################################################################

data_SEPZOF
_chemical_formula_moiety         '(C40 H32 Co2 Cr4 N16 O14)n'
_symmetry_cell_setting           triclinic
_symmetry_space_group_name_H-M   'P 1'
_symmetry_Int_Tables_number      1
_space_group_name_Hall           'P 1'
loop_
_symmetry_equiv_pos_site_id
_symmetry_equiv_pos_as_xyz
1 x,y,z
_cell_length_a                   8.794(4)
_cell_length_b                   13.276(6)
_cell_length_c                   13.314(5)
_cell_angle_alpha                93.189(8)
_cell_angle_beta                 90.359(8)
_cell_angle_gamma                100.071(11)
_cell_volume                     1527.88
loop_
_atom_site_label
_atom_site_type_symbol
_atom_site_fract_x
_atom_site_fract_y
_atom_site_fract_z
Co1 Co 0.25623(12) 0.25975(8) 0.67084(9)
O1 O 0.0248(7) 0.2222(5) 0.6726(5)
N1 N 0.2817(8) 0.1004(5) 0.6757(6)
C1 C 0.1719(10) 0.0335(7) 0.7177(9)
H1 H 0.0871 0.0586 0.7477
N5 N 0.2517(8) 0.2489(5) 0.5093(6)
C5 C 0.4009(10) 0.0661(7) 0.6359(8)
H4 H 0.4811 0.1142 0.6092
N6 N 0.2313(13) 0.2241(7) 0.1926(7)
N7 N 0.3113(14) 0.2903(10) 0.1501(9)
C11 C 0.2061(10) 0.1583(6) 0.4552(7)
H9 H 0.1771 0.0980 0.4906
C12 C 0.2000(12) 0.1503(7) 0.3541(8)
H10 H 0.1672 0.0854 0.3198
C13 C 0.2411(12) 0.2355(7) 0.3006(8)
C14 C 0.2872(10) 0.3292(7) 0.3524(7)
H11 H 0.3154 0.3898 0.3171
C15 C 0.2917(10) 0.3332(7) 0.4550(7)
H12 H 0.3240 0.3977 0.4902
C16 C 0.2927(16) 0.2794(9) 0.0448(9)
H13 H 0.0605 0.2149 0.0293
H15 H 0.5047 0.3449 0.0173
N9 N 0.2320(9) 0.4185(6) 0.6749(6)
O8 O 0.4889(7) 0.2978(5) 0.6657(5)
N10 N 0.2694(11) 0.2701(6) 0.8358(6)
C17 C 0.1506(19) 0.2409(15) 0.9935(11)
C18 C 0.1478(18) 0.2424(14) 0.8904(10)
H14 H 0.0510 0.2220 0.8565
C19 C 0.409(3) 0.3135(16) 0.9869(12)
C20 C 0.3959(19) 0.3051(13) 0.8846(9)
H16 H 0.4860 0.3265 0.8470
N2 N 0.3167(10) 0.7896(6) 0.6712(7)
C2 C 0.1756(12) 0.9298(7) 0.7196(8)
H2 H 0.0965 0.8846 0.7507
N3 N 0.1929(9) 0.7304(5) 0.6713(6)
C3 C 0.2996(10) 0.8945(7) 0.6741(7)
C4 C 0.4157(12) 0.9636(7) 0.6311(8)
H3 H 0.5016 0.9412 0.5997
C6 C 0.2096(11) 0.6255(7) 0.6735(7)
C7 C 0.0913(11) 0.5503(7) 0.6313(7)
H5 H 0.0032 0.5685 0.6001
C8 C 0.1068(11) 0.4491(7) 0.6364(8)
H6 H 0.0241 0.3978 0.6112
C9 C 0.3370(10) 0.5964(7) 0.7179(8)
H7 H 0.4177 0.6458 0.7484
C10 C 0.3418(11) 0.4925(7) 0.7160(8)
H8 H 0.4293 0.4723 0.7459
Cr1 Cr 0.85411(16) 0.16614(12) 0.62671(13)
Cr2 Cr 0.65467(16) 0.35269(11) 0.62312(12)
O2 O 0.8743(10) 0.0838(6) 0.5385(8)
O3 O 0.7562(10) 0.1092(8) 0.7118(9)
O4 O 0.7595(8) 0.2587(6) 0.5750(5)
O5 O 0.6283(9) 0.4211(6) 0.5326(7)
O6 O 0.7501(9) 0.4249(7) 0.7087(7)
Cr1_2 Cr 0.14589(16) 0.83386(12) 0.37329(13)
Cr2_2 Cr 0.34533(16) 0.64731(11) 0.37688(12)
O2_2 O 0.1257(10) 0.9162(6) 0.4615(8)
O3_2 O 0.2438(10) 0.8908(8) 0.2882(9)
O4_2 O 0.2405(8) 0.7413(6) 0.4250(5)
O5_2 O 0.3717(9) 0.5789(6) 0.4674(7)
O6_2 O 0.2499(9) 0.5751(7) 0.2913(7)
O7 O 0.5111(7) 0.7022(5) 0.3343(5)
Co2 Co 0.74377(12) 0.74025(8) 0.32916(9)
N2_2 N 0.6833(10) 0.2104(6) 0.3288(7)
C2_2 C 0.8244(12) 0.0702(7) 0.2804(8)
H2_2 H 0.9035 0.1154 0.2493
N3_2 N 0.8071(9) 0.2696(5) 0.3287(6)
C3_2 C 0.7004(10) 0.1055(7) 0.3259(7)
N4 N 0.7680(9) 0.5815(6) 0.3251(6)
C4_2 C 0.5843(12) 0.0364(7) 0.3689(8)
H3_2 H 0.4984 0.0588 0.4003
C6_2 C 0.7904(11) 0.3745(7) 0.3265(7)
C7_2 C 0.9087(11) 0.4497(7) 0.3687(7)
H5_2 H 0.9968 0.4315 0.3999
C8_2 C 0.8932(11) 0.5509(7) 0.3636(8)
H6_2 H 0.9759 0.6022 0.3888
C9_2 C 0.6630(10) 0.4036(7) 0.2821(8)
H7_2 H 0.5823 0.3542 0.2516
C10_2 C 0.6582(11) 0.5075(7) 0.2840(8)
H8_2 H 0.5707 0.5277 0.2541
N8 N 0.7306(11) 0.7299(6) 0.1642(6)
C17_2 C 0.8494(19) 0.7591(15) 0.0065(11)
C18_2 C 0.8522(18) 0.7576(14) 0.1096(10)
H14_2 H 0.9490 0.7780 0.1435
C19_2 C 0.591(3) 0.6865(16) 0.0131(12)
C20_2 C 0.6041(19) 0.6949(13) 0.1154(9)
H16_2 H 0.5140 0.6735 0.1530
O1_2 O 0.9752(7) 0.7778(5) 0.3274(5)
N1_2 N 0.7183(8) 0.8996(5) 0.3243(6)
C1_2 C 0.8281(10) 0.9665(7) 0.2823(9)
H1_2 H 0.9129 0.9414 0.2523
N5_2 N 0.7483(8) 0.7511(5) 0.4907(6)
C5_2 C 0.5991(10) 0.9339(7) 0.3641(8)
H4_2 H 0.5189 0.8858 0.3908
N6_2 N 0.7687(13) 0.7759(7) 0.8074(7)
N7_2 N 0.6887(14) 0.7097(10) 0.8499(9)
C11_2 C 0.7939(10) 0.8417(6) 0.5448(7)
H9_2 H 0.8229 0.9020 0.5094
C12_2 C 0.8000(12) 0.8497(7) 0.6459(8)
H10_2 H 0.8328 0.9146 0.6802
C13_2 C 0.7589(12) 0.7645(7) 0.6994(8)
C14_2 C 0.7128(10) 0.6708(7) 0.6476(7)
H11_2 H 0.6846 0.6102 0.6829
C15_2 C 0.7083(10) 0.6668(7) 0.5450(7)
H12_2 H 0.6760 0.6023 0.5098
C16_2 C 0.7073(16) 0.7206(9) 0.9552(9)
H13_2 H 0.9395 0.7851 0.9707
H15_2 H 0.4953 0.6551 0.9827
loop_
_geom_bond_atom_site_label_1
_geom_bond_atom_site_label_2
_geom_bond_site_symmetry_1
_geom_bond_site_symmetry_2
Co1 O1 1_555 1_555
N1 Co1 1_555 1_555
C1 N1 1_555 1_555
H1 C1 1_555 1_555
N5 Co1 1_555 1_555
C5 N1 1_555 1_555
H4 C5 1_555 1_555
N6 N7 1_555 1_555
N7 C16 1_555 1_555
C11 N5 1_555 1_555
H9 C11 1_555 1_555
C12 C11 1_555 1_555
H10 C12 1_555 1_555
C13 N6 1_555 1_555
C14 C13 1_555 1_555
H11 C14 1_555 1_555
C15 N5 1_555 1_555
H12 C15 1_555 1_555
N9 Co1 1_555 1_555
O8 Co1 1_555 1_555
N10 Co1 1_555 1_555
C12 C13 1_555 1_555
C14 C15 1_555 1_555
N10 C18 1_555 1_555
C18 C17 1_555 1_555
H14 C18 1_555 1_555
C20 N10 1_555 1_555
H16 C20 1_555 1_555
C19 C20 1_555 1_555
N2 N3 1_555 1_555
H2 C2 1_555 1_555
N3 C6 1_555 1_555
C3 N2 1_555 1_555
N9 C8 1_555 1_555
C4 C3 1_555 1_555
H3 C4 1_555 1_555
C6 C7 1_555 1_555
C7 H5 1_555 1_555
C8 C7 1_555 1_555
H6 C8 1_555 1_555
C9 C6 1_555 1_555
H7 C9 1_555 1_555
C10 N9 1_555 1_555
H8 C10 1_555 1_555
C2 C3 1_555 1_555
C9 C10 1_555 1_555
Cr2 O4 1_555 1_555
O2 Cr1 1_555 1_555
O3 Cr1 1_555 1_555
O4 Cr1 1_555 1_555
O5 Cr2 1_555 1_555
O6 Cr2 1_555 1_555
O8 Cr2 1_555 1_555
Cr2_2 O4_2 1_555 1_555
O2_2 Cr1_2 1_555 1_555
O3_2 Cr1_2 1_555 1_555
O4_2 Cr1_2 1_555 1_555
O5_2 Cr2_2 1_555 1_555
O6_2 Cr2_2 1_555 1_555
O7 Cr2_2 1_555 1_555
Co2 O7 1_555 1_555
N2_2 N3_2 1_555 1_555
H2_2 C2_2 1_555 1_555
N3_2 C6_2 1_555 1_555
C3_2 N2_2 1_555 1_555
N4 C8_2 1_555 1_555
C4_2 C3_2 1_555 1_555
H3_2 C4_2 1_555 1_555
C6_2 C7_2 1_555 1_555
C7_2 H5_2 1_555 1_555
C8_2 C7_2 1_555 1_555
H6_2 C8_2 1_555 1_555
C9_2 C6_2 1_555 1_555
H7_2 C9_2 1_555 1_555
C10_2 N4 1_555 1_555
H8_2 C10_2 1_555 1_555
Co2 N4 1_555 1_555
C2_2 C3_2 1_555 1_555
C9_2 C10_2 1_555 1_555
N8 C18_2 1_555 1_555
C18_2 C17_2 1_555 1_555
H14_2 C18_2 1_555 1_555
C20_2 N8 1_555 1_555
H16_2 C20_2 1_555 1_555
Co2 N8 1_555 1_555
C19_2 C20_2 1_555 1_555
Co2 O1_2 1_555 1_555
N1_2 Co2 1_555 1_555
C1_2 N1_2 1_555 1_555
H1_2 C1_2 1_555 1_555
N5_2 Co2 1_555 1_555
C5_2 N1_2 1_555 1_555
H4_2 C5_2 1_555 1_555
N6_2 N7_2 1_555 1_555
N7_2 C16_2 1_555 1_555
C11_2 N5_2 1_555 1_555
H9_2 C11_2 1_555 1_555
C12_2 C11_2 1_555 1_555
H10_2 C12_2 1_555 1_555
C13_2 N6_2 1_555 1_555
C14_2 C13_2 1_555 1_555
H11_2 C14_2 1_555 1_555
C15_2 N5_2 1_555 1_555
H12_2 C15_2 1_555 1_555
C12_2 C13_2 1_555 1_555
C14_2 C15_2 1_555 1_555

#END
