
###############################################################################
#
# This file contains modified crystal structure data generated from the
# MOF subset of the Cambridge Structural Database (CSD) v543 
# hosted by the Cambridge Crystallographic Data Centre (CCDC).
#
# This work is licensed under the Creative Commons
# Attribution-NonCommercial-ShareAlike 4.0 International License.
# To view a copy of this license, visit
# http://creativecommons.org/licenses/by-nc-sa/4.0/
# or send a letter to
# Creative Commons, PO Box 1866, Mountain View, CA 94042, USA.
#
# CIF created using the CSD Python API on 29 September 2022
# The structure has been converted into the P1 space group
# The structure has a 3D framework
# The original CSD entry SEQBEY is in the triclinic crystal system
# The framework has been calculated to contain at least 10.0% void space
# The void calculation uses a probe of radius 1.32A, grid spacing 0.4
#
###############################################################################

data_SEQBEY
_chemical_formula_moiety         '(C40 H32 Cr4 N14 O12 Zn2)n'
_symmetry_cell_setting           triclinic
_symmetry_space_group_name_H-M   'P 1'
_symmetry_Int_Tables_number      1
_space_group_name_Hall           'P 1'
loop_
_symmetry_equiv_pos_site_id
_symmetry_equiv_pos_as_xyz
1 x,y,z
_cell_length_a                   8.7822(18)
_cell_length_b                   13.270(3)
_cell_length_c                   13.278(3)
_cell_angle_alpha                85.51(3)
_cell_angle_beta                 80.23(3)
_cell_angle_gamma                83.94(3)
_cell_volume                     1513.57
loop_
_atom_site_label
_atom_site_type_symbol
_atom_site_fract_x
_atom_site_fract_y
_atom_site_fract_z
O7 O 0.0050(2) 0.21691(17) 0.27828(15)
Zn4 Zn 0.24882(3) 0.19494(2) 0.237825(19)
N4 N 0.2359(2) 0.03445(16) 0.24794(16)
H6 H 0.3472 0.0129 0.1074
H8 H 0.1250 0.0254 0.3904
Cr1 Cr 0.66255(5) 0.12934(3) 0.13893(3)
O1 O 0.4893(2) 0.16884(15) 0.19629(14)
N1 N 0.2608(3) 0.35702(17) 0.23254(17)
C1 C 0.3941(4) 0.3947(3) 0.2377(4)
H1 H 0.4826 0.3486 0.2447
Cr2 Cr 0.83135(5) 0.18208(5) 0.31850(3)
O2 O 0.6575(3) 0.03001(19) 0.07945(19)
N2 N 0.3036(3) 0.6714(2) 0.2205(3)
C2 C 0.4096(5) 0.4976(3) 0.2335(4)
H2 H 0.5075 0.5214 0.2351
O3 O 0.7297(3) 0.2168(2) 0.05792(18)
N3 N 0.1966(3) 0.7205(2) 0.2707(2)
C3 C 0.2837(4) 0.5637(2) 0.2270(3)
O4 O 0.7873(2) 0.09809(17) 0.23141(18)
C4 C 0.1429(4) 0.5278(3) 0.2263(3)
H3 H 0.0517 0.5730 0.2252
O5 O 0.8242(4) 0.1221(4) 0.4275(2)
N5 N 0.2239(2) 0.20742(16) 0.07808(15)
C5 C 0.1375(4) 0.4227(2) 0.2273(3)
H4 H 0.0413 0.3974 0.2241
O6 O 0.7068(3) 0.2778(3) 0.3261(3)
C6 C 0.2160(4) 0.8277(2) 0.2590(2)
C7 C 0.2892(3) 0.8757(2) 0.1695(2)
H5 H 0.3325 0.8385 0.1115
C8 C 0.2968(3) 0.9793(2) 0.1678(2)
C9 C 0.1528(4) 0.8838(2) 0.3418(2)
H7 H 0.1013 0.8524 0.4031
C10 C 0.1666(4) 0.9867(2) 0.3332(2)
C11 C 0.3321(3) 0.2473(2) 0.00709(19)
H9 H 0.4140 0.2765 0.0292
C15 C 0.1057(3) 0.1685(2) 0.04660(19)
H12 H 0.0280 0.1404 0.0964
N10 N 0.2780(2) 0.19343(17) 0.39761(15)
N6 N 0.1945(3) 0.2017(2) 0.76620(17)
N7 N 0.3222(3) 0.1945(2) 0.70782(17)
C12 C 0.3302(3) 0.2479(2) 0.9030(2)
H10 H 0.4090 0.2765 0.8546
C13 C 0.2097(3) 0.2056(2) 0.87143(19)
C14 C 0.0935(3) 0.1679(3) 0.9438(2)
H11 H 0.0071 0.1421 0.9235
C16 C 0.3030(3) 0.1957(2) 0.60260(19)
C17 C 0.4184(3) 0.1451(3) 0.5357(2)
H13 H 0.5080 0.1113 0.5589
C18 C 0.4005(3) 0.1449(2) 0.43406(19)
H14 H 0.4785 0.1087 0.3884
C19 C 0.1774(3) 0.2488(2) 0.5656(2)
H15 H 0.0987 0.2862 0.6096
C20 C 0.1700(3) 0.2457(2) 0.46277(19)
H16 H 0.0844 0.2822 0.4369
N6_2 N 0.8055(3) 0.7983(2) 0.23380(17)
N7_2 N 0.6778(3) 0.8055(2) 0.29218(17)
N8 N 0.7220(2) 0.80657(17) 0.60239(15)
C12_2 C 0.6698(3) 0.7521(2) 0.0970(2)
H10_2 H 0.5910 0.7235 0.1454
C13_2 C 0.7903(3) 0.7944(2) 0.12857(19)
C14_2 C 0.9065(3) 0.8321(3) 0.0562(2)
H11_2 H 0.9929 0.8579 0.0765
C16_2 C 0.6970(3) 0.8043(2) 0.39740(19)
C17_2 C 0.5816(3) 0.8549(3) 0.4643(2)
H13_2 H 0.4920 0.8887 0.4411
C18_2 C 0.5995(3) 0.8551(2) 0.56594(19)
H14_2 H 0.5215 0.8913 0.6116
C19_2 C 0.8226(3) 0.7512(2) 0.4344(2)
H15_2 H 0.9013 0.7138 0.3904
C20_2 C 0.8300(3) 0.7543(2) 0.53723(19)
H16_2 H 0.9156 0.7178 0.5631
Zn2 Zn 0.75118(3) 0.80506(2) 0.762175(19)
Cr1_2 Cr 0.33745(5) 0.87066(3) 0.86107(3)
O1_2 O 0.5107(2) 0.83116(15) 0.80371(14)
N1_2 N 0.7392(3) 0.64298(17) 0.76746(17)
C1_2 C 0.6059(4) 0.6053(3) 0.7623(4)
H1_2 H 0.5174 0.6514 0.7553
Cr2_2 Cr 0.16865(5) 0.81792(5) 0.68150(3)
O2_2 O 0.3425(3) 0.96999(19) 0.92055(19)
N2_2 N 0.6964(3) 0.3286(2) 0.7795(3)
C2_2 C 0.5904(5) 0.5024(3) 0.7665(4)
H2_2 H 0.4925 0.4786 0.7649
O3_2 O 0.2703(3) 0.7832(2) 0.94208(18)
N3_2 N 0.8034(3) 0.2795(2) 0.7293(2)
C3_2 C 0.7163(4) 0.4363(2) 0.7730(3)
O4_2 O 0.2127(2) 0.90191(17) 0.76859(18)
C4_2 C 0.8571(4) 0.4722(3) 0.7737(3)
H3_2 H 0.9483 0.4270 0.7748
O5_2 O 0.1758(4) 0.8779(4) 0.5725(2)
N5_2 N 0.7761(2) 0.79258(16) 0.92192(15)
C5_2 C 0.8625(4) 0.5773(2) 0.7727(3)
H4_2 H 0.9587 0.6026 0.7759
O6_2 O 0.2932(3) 0.7222(3) 0.6739(3)
C6_2 C 0.7840(4) 0.1723(2) 0.7410(2)
C7_2 C 0.7108(3) 0.1243(2) 0.8305(2)
H5_2 H 0.6675 0.1615 0.8885
C8_2 C 0.7032(3) 0.0207(2) 0.8322(2)
C9_2 C 0.8472(4) 0.1162(2) 0.6582(2)
H7_2 H 0.8987 0.1476 0.5969
C10_2 C 0.8334(4) 0.0133(2) 0.6668(2)
C11_2 C 0.6679(3) 0.7527(2) 0.99291(19)
H9_2 H 0.5860 0.7235 0.9708
C15_2 C 0.8943(3) 0.8315(2) 0.95340(19)
H12_2 H 0.9720 0.8596 0.9036
N9 N 0.7641(2) 0.96555(16) 0.75206(16)
O8 O 0.9950(2) 0.78309(17) 0.72172(15)
H6_2 H 0.6528 0.9871 0.8926
H8_2 H 0.8750 0.9746 0.6096
loop_
_geom_bond_atom_site_label_1
_geom_bond_atom_site_label_2
_geom_bond_site_symmetry_1
_geom_bond_site_symmetry_2
Zn4 O7 1_555 1_555
Zn4 N4 1_555 1_555
Zn4 O1 1_555 1_555
Cr1 O1 1_555 1_555
N1 Zn4 1_555 1_555
C1 N1 1_555 1_555
H1 C1 1_555 1_555
Cr2 O4 1_555 1_555
O2 Cr1 1_555 1_555
N2 N3 1_555 1_555
C2 C1 1_555 1_555
H2 C2 1_555 1_555
O3 Cr1 1_555 1_555
N3 C6 1_555 1_555
C3 N2 1_555 1_555
O4 Cr1 1_555 1_555
C4 C3 1_555 1_555
H3 C4 1_555 1_555
O5 Cr2 1_555 1_555
N5 Zn4 1_555 1_555
C5 N1 1_555 1_555
H4 C5 1_555 1_555
O6 Cr2 1_555 1_555
C6 C7 1_555 1_555
C7 H5 1_555 1_555
C8 C7 1_555 1_555
C9 C6 1_555 1_555
H7 C9 1_555 1_555
C11 N5 1_555 1_555
H9 C11 1_555 1_555
C15 N5 1_555 1_555
H12 C15 1_555 1_555
N10 Zn4 1_555 1_555
C2 C3 1_555 1_555
C4 C5 1_555 1_555
C9 C10 1_555 1_555
N6 N7 1_555 1_555
N7 C16 1_555 1_555
N10 C18 1_555 1_555
H10 C12 1_555 1_555
C13 N6 1_555 1_555
C14 C13 1_555 1_555
H11 C14 1_555 1_555
C16 C17 1_555 1_555
C17 H13 1_555 1_555
C18 C17 1_555 1_555
H14 C18 1_555 1_555
C19 C16 1_555 1_555
H15 C19 1_555 1_555
C20 N10 1_555 1_555
H16 C20 1_555 1_555
C12 C13 1_555 1_555
C19 C20 1_555 1_555
N6_2 N7_2 1_555 1_555
N7_2 C16_2 1_555 1_555
N8 C18_2 1_555 1_555
H10_2 C12_2 1_555 1_555
C13_2 N6_2 1_555 1_555
C14_2 C13_2 1_555 1_555
H11_2 C14_2 1_555 1_555
C16_2 C17_2 1_555 1_555
C17_2 H13_2 1_555 1_555
C18_2 C17_2 1_555 1_555
H14_2 C18_2 1_555 1_555
C19_2 C16_2 1_555 1_555
H15_2 C19_2 1_555 1_555
C20_2 N8 1_555 1_555
H16_2 C20_2 1_555 1_555
Zn2 N8 1_555 1_555
C12_2 C13_2 1_555 1_555
C19_2 C20_2 1_555 1_555
Zn2 O1_2 1_555 1_555
Cr1_2 O1_2 1_555 1_555
N1_2 Zn2 1_555 1_555
C1_2 N1_2 1_555 1_555
H1_2 C1_2 1_555 1_555
Cr2_2 O4_2 1_555 1_555
O2_2 Cr1_2 1_555 1_555
N2_2 N3_2 1_555 1_555
C2_2 C1_2 1_555 1_555
H2_2 C2_2 1_555 1_555
O3_2 Cr1_2 1_555 1_555
N3_2 C6_2 1_555 1_555
C3_2 N2_2 1_555 1_555
O4_2 Cr1_2 1_555 1_555
C4_2 C3_2 1_555 1_555
H3_2 C4_2 1_555 1_555
O5_2 Cr2_2 1_555 1_555
N5_2 Zn2 1_555 1_555
C5_2 N1_2 1_555 1_555
H4_2 C5_2 1_555 1_555
O6_2 Cr2_2 1_555 1_555
C6_2 C7_2 1_555 1_555
C7_2 H5_2 1_555 1_555
C8_2 C7_2 1_555 1_555
C9_2 C6_2 1_555 1_555
H7_2 C9_2 1_555 1_555
C11_2 N5_2 1_555 1_555
H9_2 C11_2 1_555 1_555
C15_2 N5_2 1_555 1_555
H12_2 C15_2 1_555 1_555
N9 Zn2 1_555 1_555
O8 Zn2 1_555 1_555
C2_2 C3_2 1_555 1_555
C4_2 C5_2 1_555 1_555
C9_2 C10_2 1_555 1_555

#END
