
###############################################################################
#
# This file contains modified crystal structure data generated from the
# MOF subset of the Cambridge Structural Database (CSD) v543 
# hosted by the Cambridge Crystallographic Data Centre (CCDC).
#
# This work is licensed under the Creative Commons
# Attribution-NonCommercial-ShareAlike 4.0 International License.
# To view a copy of this license, visit
# http://creativecommons.org/licenses/by-nc-sa/4.0/
# or send a letter to
# Creative Commons, PO Box 1866, Mountain View, CA 94042, USA.
#
# CIF created using the CSD Python API on 29 September 2022
# The structure has been converted into the P1 space group
# The structure has a 3D framework
# The original CSD entry SEQBAU is in the triclinic crystal system
# The framework has been calculated to contain at least 10.0% void space
# The void calculation uses a probe of radius 1.32A, grid spacing 0.4
#
###############################################################################

data_SEQBAU
_chemical_formula_moiety         '(C40 H32 Cr4 N16 Ni2 O12)n'
_symmetry_cell_setting           triclinic
_symmetry_space_group_name_H-M   'P 1'
_symmetry_Int_Tables_number      1
_space_group_name_Hall           'P 1'
loop_
_symmetry_equiv_pos_site_id
_symmetry_equiv_pos_as_xyz
1 x,y,z
_cell_length_a                   8.7338(17)
_cell_length_b                   13.153(3)
_cell_length_c                   13.155(3)
_cell_angle_alpha                86.75(3)
_cell_angle_beta                 84.55(3)
_cell_angle_gamma                80.39(3)
_cell_volume                     1481.96
loop_
_atom_site_label
_atom_site_type_symbol
_atom_site_fract_x
_atom_site_fract_y
_atom_site_fract_z
H2 H 0.0074 0.0560 0.1121
H13 H 0.0060 0.7450 0.5240
N2 N 0.8209(4) 0.2084(3) 0.1953(3)
C2 C 0.9179(5) 0.0333(3) 0.1467(4)
N3 N 0.6930(4) 0.2671(2) 0.2013(3)
C3 C 0.8032(5) 0.1019(3) 0.1972(4)
N4 N 0.7234(3) 0.5824(2) 0.2065(2)
C4 C 0.6784(5) 0.0655(3) 0.2516(3)
H3 H 0.5999 0.1110 0.2890
C6 C 0.7089(5) 0.3734(3) 0.2049(3)
C7 C 0.5939(5) 0.4455(3) 0.1645(4)
H5 H 0.5084 0.4243 0.1367
C8 C 0.6055(4) 0.5492(3) 0.1654(3)
H6 H 0.5281 0.5986 0.1362
C9 C 0.8291(5) 0.4065(3) 0.2498(3)
H7 H 0.9078 0.3587 0.2798
C10 C 0.8300(4) 0.5107(3) 0.2491(3)
H8 H 0.9107 0.5338 0.2806
Ni4 Ni 0.74884(5) 0.73864(3) 0.19768(3)
Cr1 Cr 0.33374(8) 0.81866(5) 0.18960(7)
N1 N 0.7778(4) 0.8946(2) 0.1971(2)
C1 C 0.9001(5) 0.9310(3) 0.1474(3)
H1 H 0.9781 0.8841 0.1111
Cr2 Cr 0.15863(7) 0.63983(5) 0.13336(5)
O2 O 0.1550(4) 0.5786(3) 0.0326(3)
O3 O 0.2269(4) 0.5598(3) 0.2214(3)
O4 O 0.2827(4) 0.7338(3) 0.1029(3)
O5 O 0.3231(6) 0.9300(3) 0.1337(6)
N5 N 0.7361(4) 0.7472(2) 0.0410(2)
C5 C 0.6703(5) 0.9616(3) 0.2503(3)
H4 H 0.5855 0.9364 0.2884
O6 O 0.2148(5) 0.8237(5) 0.2895(4)
O7 O 0.5114(3) 0.7774(2) 0.2182(2)
H9 H 0.6144 0.8887 0.0337
H12 H 0.8546 0.6086 0.0149
O8 O 0.9838(3) 0.69732(19) 0.1725(2)
N10 N 0.7612(4) 0.7338(2) 0.3557(2)
N6 N 0.6948(5) 0.7693(3) 0.7235(3)
N7 N 0.8057(5) 0.7231(4) 0.6724(3)
C11 C 0.6597(5) 0.8318(3) 0.9935(3)
C12 C 0.6439(6) 0.8404(3) 0.8908(3)
H10 H 0.5866 0.9007 0.8611
C13 C 0.7137(5) 0.7587(3) 0.8311(3)
C14 C 0.7933(5) 0.6702(3) 0.8776(3)
H11 H 0.8409 0.6128 0.8387
C15 C 0.8007(5) 0.6687(3) 0.9827(3)
C16 C 0.7827(6) 0.7297(4) 0.5650(4)
C17 C 0.9089(7) 0.7401(5) 0.4991(4)
C18 C 0.8940(6) 0.7434(4) 0.3949(3)
H14 H 0.9819 0.7531 0.3492
C19 C 0.6427(6) 0.7229(4) 0.5280(4)
H15 H 0.5524 0.7178 0.5731
C20 C 0.6377(5) 0.7239(4) 0.4218(3)
H16 H 0.5423 0.7173 0.3955
O1 O 0.0162(3) 0.30268(19) 0.8275(2)
Ni2 Ni 0.25116(5) 0.26136(3) 0.80232(3)
N6_2 N 0.3052(5) 0.2307(3) 0.2765(3)
N7_2 N 0.1943(5) 0.2769(4) 0.3276(3)
N8 N 0.2388(4) 0.2662(2) 0.6443(2)
C11_2 C 0.3403(5) 0.1682(3) 0.0065(3)
C12_2 C 0.3561(6) 0.1596(3) 0.1092(3)
H10_2 H 0.4134 0.0993 0.1389
C13_2 C 0.2863(5) 0.2413(3) 0.1689(3)
C14_2 C 0.2067(5) 0.3298(3) 0.1224(3)
H11_2 H 0.1591 0.3872 0.1613
C15_2 C 0.1993(5) 0.3313(3) 0.0173(3)
C16_2 C 0.2173(6) 0.2703(4) 0.4350(4)
C17_2 C 0.0911(7) 0.2599(5) 0.5009(4)
C18_2 C 0.1060(6) 0.2566(4) 0.6051(3)
H14_2 H 0.0181 0.2469 0.6508
C19_2 C 0.3573(6) 0.2771(4) 0.4720(4)
H15_2 H 0.4476 0.2822 0.4269
C20_2 C 0.3623(5) 0.2761(4) 0.5782(3)
H16_2 H 0.4577 0.2827 0.6045
Cr1_2 Cr 0.66626(8) 0.18134(5) 0.81040(7)
N1_2 N 0.2222(4) 0.1054(2) 0.8029(2)
C1_2 C 0.0999(5) 0.0690(3) 0.8526(3)
H1_2 H 0.0219 0.1159 0.8889
Cr2_2 Cr 0.84137(7) 0.36017(5) 0.86664(5)
O2_2 O 0.8450(4) 0.4214(3) 0.9674(3)
O3_2 O 0.7731(4) 0.4402(3) 0.7786(3)
O4_2 O 0.7173(4) 0.2662(3) 0.8971(3)
O5_2 O 0.6769(6) 0.0700(3) 0.8663(6)
N5_2 N 0.2639(4) 0.2528(2) 0.9590(2)
C5_2 C 0.3297(5) 0.0384(3) 0.7497(3)
H4_2 H 0.4145 0.0636 0.7116
O6_2 O 0.7852(5) 0.1763(5) 0.7105(4)
O7_2 O 0.4886(3) 0.2226(2) 0.7818(2)
H9_2 H 0.3856 0.1113 0.9663
H12_2 H 0.1454 0.3914 0.9851
N9 N 0.2766(3) 0.4176(2) 0.7935(2)
N2_2 N 0.1791(4) 0.7916(3) 0.8047(3)
C2_2 C 0.0821(5) 0.9667(3) 0.8533(4)
N3_2 N 0.3070(4) 0.7329(2) 0.7987(3)
C3_2 C 0.1968(5) 0.8981(3) 0.8028(4)
C4_2 C 0.3216(5) 0.9345(3) 0.7484(3)
H3_2 H 0.4001 0.8890 0.7110
C6_2 C 0.2911(5) 0.6266(3) 0.7951(3)
C7_2 C 0.4061(5) 0.5545(3) 0.8355(4)
H5_2 H 0.4916 0.5757 0.8633
C8_2 C 0.3945(4) 0.4508(3) 0.8346(3)
H6_2 H 0.4719 0.4014 0.8638
C9_2 C 0.1709(5) 0.5935(3) 0.7502(3)
H7_2 H 0.0922 0.6413 0.7202
C10_2 C 0.1700(4) 0.4893(3) 0.7509(3)
H8_2 H 0.0893 0.4662 0.7194
H13_2 H 0.9940 0.2550 0.4760
H2_2 H 0.9926 0.9440 0.8879
loop_
_geom_bond_atom_site_label_1
_geom_bond_atom_site_label_2
_geom_bond_site_symmetry_1
_geom_bond_site_symmetry_2
N2 N3 1_555 1_555
N3 C6 1_555 1_555
C3 N2 1_555 1_555
N4 C8 1_555 1_555
C4 C3 1_555 1_555
H3 C4 1_555 1_555
C6 C7 1_555 1_555
C7 H5 1_555 1_555
C8 C7 1_555 1_555
H6 C8 1_555 1_555
C9 C6 1_555 1_555
H7 C9 1_555 1_555
C10 N4 1_555 1_555
H8 C10 1_555 1_555
Ni4 N4 1_555 1_555
C2 C3 1_555 1_555
C9 C10 1_555 1_555
Ni4 N1 1_555 1_555
Cr1 O4 1_555 1_555
N1 C1 1_555 1_555
C1 H1 1_555 1_555
Cr2 O2 1_555 1_555
O3 Cr2 1_555 1_555
O4 Cr2 1_555 1_555
O5 Cr1 1_555 1_555
N5 Ni4 1_555 1_555
C5 N1 1_555 1_555
H4 C5 1_555 1_555
O6 Cr1 1_555 1_555
O7 Ni4 1_555 1_555
O8 Ni4 1_555 1_555
N10 Ni4 1_555 1_555
Cr1 O7 1_555 1_555
N6 N7 1_555 1_555
N7 C16 1_555 1_555
N10 C18 1_555 1_555
C12 C11 1_555 1_555
H10 C12 1_555 1_555
C13 N6 1_555 1_555
C14 C13 1_555 1_555
H11 C14 1_555 1_555
C16 C17 1_555 1_555
C18 C17 1_555 1_555
H14 C18 1_555 1_555
C19 C16 1_555 1_555
H15 C19 1_555 1_555
C20 N10 1_555 1_555
H16 C20 1_555 1_555
C12 C13 1_555 1_555
C14 C15 1_555 1_555
C19 C20 1_555 1_555
Ni2 O1 1_555 1_555
N6_2 N7_2 1_555 1_555
N7_2 C16_2 1_555 1_555
N8 C18_2 1_555 1_555
C12_2 C11_2 1_555 1_555
H10_2 C12_2 1_555 1_555
C13_2 N6_2 1_555 1_555
C14_2 C13_2 1_555 1_555
H11_2 C14_2 1_555 1_555
C16_2 C17_2 1_555 1_555
C18_2 C17_2 1_555 1_555
H14_2 C18_2 1_555 1_555
C19_2 C16_2 1_555 1_555
H15_2 C19_2 1_555 1_555
C20_2 N8 1_555 1_555
H16_2 C20_2 1_555 1_555
Ni2 N8 1_555 1_555
C12_2 C13_2 1_555 1_555
C14_2 C15_2 1_555 1_555
C19_2 C20_2 1_555 1_555
Ni2 N1_2 1_555 1_555
Cr1_2 O4_2 1_555 1_555
N1_2 C1_2 1_555 1_555
C1_2 H1_2 1_555 1_555
Cr2_2 O2_2 1_555 1_555
O3_2 Cr2_2 1_555 1_555
O4_2 Cr2_2 1_555 1_555
O5_2 Cr1_2 1_555 1_555
N5_2 Ni2 1_555 1_555
C5_2 N1_2 1_555 1_555
H4_2 C5_2 1_555 1_555
O6_2 Cr1_2 1_555 1_555
O7_2 Ni2 1_555 1_555
N9 Ni2 1_555 1_555
Cr1_2 O7_2 1_555 1_555
N2_2 N3_2 1_555 1_555
N3_2 C6_2 1_555 1_555
C3_2 N2_2 1_555 1_555
N9 C8_2 1_555 1_555
C4_2 C3_2 1_555 1_555
H3_2 C4_2 1_555 1_555
C6_2 C7_2 1_555 1_555
C7_2 H5_2 1_555 1_555
C8_2 C7_2 1_555 1_555
H6_2 C8_2 1_555 1_555
C9_2 C6_2 1_555 1_555
H7_2 C9_2 1_555 1_555
C10_2 N9 1_555 1_555
H8_2 C10_2 1_555 1_555
C2_2 C3_2 1_555 1_555
C9_2 C10_2 1_555 1_555

#END
