####################################################################### 
# 
# This file contains crystal structure data downloaded from the 
# Cambridge Structural Database (CSD) hosted by the Cambridge 
# Crystallographic Data Centre (CCDC).
# 
# Full information about CCDC data access policies and citation 
# guidelines are available at http://www.ccdc.cam.ac.uk/access/V1 
# 
# Audit and citation data items may have been added by the CCDC. 
# Please retain this information to preserve the provenance of 
# this file and to allow appropriate attribution of the data. 
# 
#######################################################################

data_XXXX
_audit_block_doi                 10.5517/cc10jvft
_database_code_depnum_ccdc_archive 'CCDC 939716'
loop_
_citation_id
_citation_doi
_citation_year
1 10.1021/cm301242d 2012
_audit_update_record             
;
2013-05-16 deposited with the CCDC.	2024-07-12 downloaded from the CCDC.
;
_audit_creation_method           
'Created with CONVERT.DLL (www.crystalimpact.com)'
_audit_creation_date             2011-03-11
_chemical_formula_sum            'Fe4 O20 C45.674 H22.837'
_chemical_formula_weight         1114.979
_cell_length_a                   20.5308(2)
_cell_length_b                   9.1709(2)
_cell_length_c                   6.8801(2)
_cell_angle_alpha                90.000
_cell_angle_beta                 113.072(1)
_cell_angle_gamma                90.000
_cell_volume                     1191.8(0)
_symmetry_int_tables_number      9
_symmetry_space_group_name_H-M   'C 1 c 1'
_symmetry_space_group_name_Hall  C_-2yc

loop_
_symmetry_equiv_pos_site_id
_symmetry_equiv_pos_as_xyz
1 x,y,z
2 x,-y,1/2+z
3 1/2+x,1/2+y,z
4 1/2+x,1/2-y,1/2+z

loop_
_atom_type_symbol
_atom_type_oxidation_number
_atom_type_radius_bond
Fe ? 1.200
O ? 0.680
C ? 0.860
H ? 1.200


loop_
_atom_site_label
_atom_site_type_symbol
_atom_site_fract_x
_atom_site_fract_y
_atom_site_fract_z
_atom_site_occupancy
_atom_site_symmetry_multiplicity
_atom_site_Wyckoff_symbol
_atom_site_attached_hydrogens
_atom_site_calc_flag
_atom_site_thermal_displace_type
_atom_site_u_iso_or_equiv
Fe Fe 0.0054(28) 0.0038(5) -0.046(26) 1.000 4 a ? d ? ?
O1 O 0.0067(30) -0.0989(5) 0.696(26) 1.000 4 a ? d ? ?
O11 O 0.0714 0.1253 -0.3759 1.000 4 a ? d ? ?
O12 O 0.0885 0.0973 -0.0419 1.000 4 a ? d ? ?
O13 O 0.4201 0.3615 -0.0733 1.000 4 a ? d ? ?
O14 O 0.4372 0.3335 0.2607 1.000 4 a ? d ? ?
C11 C 0.1858 0.1830 -0.1171 1.000 4 a ? d ? ?
C12 C 0.2118 0.2150 -0.2675 1.000 4 a ? d ? ?
C13 C 0.2803 0.2614 -0.2080 1.000 4 a ? d ? ?
C14 C 0.3228 0.2758 0.0019 1.000 4 a ? d ? ?
C15 C 0.2968 0.2438 0.1523 1.000 4 a ? d ? ?
C16 C 0.2283 0.1974 0.0928 1.000 4 a ? d ? ?
C17 C 0.1117 0.1328 -0.1813 1.000 4 a ? d ? ?
C18 C 0.3969 0.3260 0.0661 1.000 4 a ? d ? ?
H12 H 0.1814 0.2047 -0.4177 1.000 4 a ? d ? ?
H13 H 0.2990 0.2843 -0.3157 1.000 4 a ? d ? ?
H15 H 0.3272 0.2541 0.3025 1.000 4 a ? d ? ?
H16 H 0.2096 0.1745 0.2005 1.000 4 a ? d ? ?
C31 C 0.0686 0.4909 0.4346 0.427(1) 4 a ? d ? ?
C32 C -0.0033 0.4699 0.3503 0.427(1) 4 a ? d ? ?
C33 C -0.0404 0.4759 0.4776 0.427(1) 4 a ? d ? ?
C34 C -0.0058 0.5029 0.6893 0.427(1) 4 a ? d ? ?
C35 C 0.0660 0.5239 0.7737 0.427(1) 4 a ? d ? ?
C36 C 0.1032 0.5180 0.6463 0.427(1) 4 a ? d ? ?
H32 H -0.0280 0.4506 0.1988 0.427(1) 4 a ? d ? ?
C38 C -0.0465 0.5094 0.8288 0.427(1) 4 a ? d ? ?
C37 C 0.1092 0.4844 0.2952 0.427(1) 4 a ? d ? ?
H34 H -0.0918 0.4608 0.4173 0.427(1) 4 a ? d ? ?
H35 H 0.0908 0.5433 0.9251 0.427(1) 4 a ? d ? ?
H36 H 0.1546 0.5330 0.7067 0.427(1) 4 a ? d ? ?

