####################################################################### 
# 
# This file contains crystal structure data downloaded from the 
# Cambridge Structural Database (CSD) hosted by the Cambridge 
# Crystallographic Data Centre (CCDC).
# 
# Full information about CCDC data access policies and citation 
# guidelines are available at http://www.ccdc.cam.ac.uk/access/V1 
# 
# Audit and citation data items may have been added by the CCDC. 
# Please retain this information to preserve the provenance of 
# this file and to allow appropriate attribution of the data. 
# 
#######################################################################

data_XXXX
_audit_block_doi                 10.5517/cc10jvds
_database_code_depnum_ccdc_archive 'CCDC 939715'
loop_
_citation_id
_citation_doi
_citation_year
1 10.1021/cm301242d 2012
_audit_update_record             
;
2013-05-16 deposited with the CCDC.	2024-07-12 downloaded from the CCDC.
;
_audit_creation_method           
'Created with CONVERT.DLL (www.crystalimpact.com)'
_audit_creation_date             2011-03-10
_chemical_formula_sum            'Fe4 O20 C46.707 H23.354'
_chemical_formula_weight         1127.914
_cell_length_a                   20.4633(3)
_cell_length_b                   9.2876(3)
_cell_length_c                   6.8839(3)
_cell_angle_alpha                90.000
_cell_angle_beta                 112.718(1)
_cell_angle_gamma                90.000
_cell_volume                     1206.8(1)
_symmetry_int_tables_number      9
_symmetry_space_group_name_H-M   'C 1 c 1'
_symmetry_space_group_name_Hall  C_-2yc

loop_
_symmetry_equiv_pos_site_id
_symmetry_equiv_pos_as_xyz
1 x,y,z
2 x,-y,1/2+z
3 1/2+x,1/2+y,z
4 1/2+x,1/2-y,1/2+z

loop_
_atom_type_symbol
_atom_type_oxidation_number
_atom_type_radius_bond
Fe ? 1.200
O ? 0.680
C ? 0.860
H ? 1.200


loop_
_atom_site_label
_atom_site_type_symbol
_atom_site_fract_x
_atom_site_fract_y
_atom_site_fract_z
_atom_site_occupancy
_atom_site_symmetry_multiplicity
_atom_site_Wyckoff_symbol
_atom_site_attached_hydrogens
_atom_site_calc_flag
_atom_site_thermal_displace_type
_atom_site_u_iso_or_equiv
Fe Fe 0.0050(25) 0.0105(4) 0.0147(70) 1.000 4 a ? d ? ?
O1 O 0.0052(27) -0.0967(5) 0.7629(74) 1.000 4 a ? d ? ?
O11 O 0.0690 0.1271 -0.3063 1.000 4 a ? d ? ?
O12 O 0.0853 0.0984 0.0264 1.000 4 a ? d ? ?
O13 O 0.4185 0.3695 -0.0009 1.000 4 a ? d ? ?
O14 O 0.4348 0.3408 0.3318 1.000 4 a ? d ? ?
C11 C 0.1835 0.1865 -0.0470 1.000 4 a ? d ? ?
C12 C 0.2105 0.2161 -0.1964 1.000 4 a ? d ? ?
C13 C 0.2789 0.2636 -0.1367 1.000 4 a ? d ? ?
C14 C 0.3203 0.2814 0.0725 1.000 4 a ? d ? ?
C15 C 0.2933 0.2517 0.2220 1.000 4 a ? d ? ?
C16 C 0.2249 0.2043 0.1622 1.000 4 a ? d ? ?
C17 C 0.1089 0.1347 -0.1122 1.000 4 a ? d ? ?
C18 C 0.3950 0.3331 0.1378 1.000 4 a ? d ? ?
H12 H 0.1809 0.2034 -0.3461 1.000 4 a ? d ? ?
H13 H 0.2982 0.2848 -0.2436 1.000 4 a ? d ? ?
H15 H 0.3230 0.2645 0.3716 1.000 4 a ? d ? ?
H16 H 0.2057 0.1831 0.2691 1.000 4 a ? d ? ?
C31 C 0.0685 0.5233 -0.1493 0.460(2) 4 a ? d ? ?
C32 C -0.0006 0.4976 -0.1781 0.460(2) 4 a ? d ? ?
C33 C -0.0168 0.4547 -0.0116 0.460(2) 4 a ? d ? ?
C34 C 0.0360 0.4376 0.1836 0.460(2) 4 a ? d ? ?
C35 C 0.1050 0.4634 0.2124 0.460(2) 4 a ? d ? ?
C36 C 0.1213 0.5062 0.0459 0.460(2) 4 a ? d ? ?
H33 H -0.0662 0.4363 -0.0321 0.460(2) 4 a ? d ? ?
C38 C -0.0584 0.5163 -0.3918 0.460(2) 4 a ? d ? ?
C37 C 0.0863 0.5702 -0.3316 0.460(2) 4 a ? d ? ?
H34 H 0.0244 0.4070 0.3027 0.460(2) 4 a ? d ? ?
H35 H 0.1428 0.4512 0.3520 0.460(2) 4 a ? d ? ?
H36 H 0.1707 0.5247 0.0664 0.460(2) 4 a ? d ? ?

