####################################################################### 
# 
# This file contains crystal structure data downloaded from the 
# Cambridge Structural Database (CSD) hosted by the Cambridge 
# Crystallographic Data Centre (CCDC).
# 
# Full information about CCDC data access policies and citation 
# guidelines are available at http://www.ccdc.cam.ac.uk/access/V1 
# 
# Audit and citation data items may have been added by the CCDC. 
# Please retain this information to preserve the provenance of 
# this file and to allow appropriate attribution of the data. 
# 
#######################################################################

data_XXXX
_audit_block_doi                 10.5517/cc10jvcr
_database_code_depnum_ccdc_archive 'CCDC 939714'
loop_
_citation_id
_citation_doi
_citation_year
1 10.1021/cm301242d 2012
_audit_update_record             
;
2013-05-16 deposited with the CCDC.	2024-07-12 downloaded from the CCDC.
;
_audit_creation_method           
'Created with CONVERT.DLL (www.crystalimpact.com)'
_audit_creation_date             2011-03-10
_chemical_formula_sum            'Fe4 O20 C46.272 H23.136'
_chemical_formula_weight         1122.468
_cell_length_a                   20.5266(3)
_cell_length_b                   9.1925(2)
_cell_length_c                   6.8763(2)
_cell_angle_alpha                90.000
_cell_angle_beta                 113.084(1)
_cell_angle_gamma                90.000
_cell_volume                     1193.6(1)
_symmetry_int_tables_number      9
_symmetry_space_group_name_H-M   'C 1 c 1'
_symmetry_space_group_name_Hall  C_-2yc

loop_
_symmetry_equiv_pos_site_id
_symmetry_equiv_pos_as_xyz
1 x,y,z
2 x,-y,1/2+z
3 1/2+x,1/2+y,z
4 1/2+x,1/2-y,1/2+z

loop_
_atom_type_symbol
_atom_type_oxidation_number
_atom_type_radius_bond
Fe ? 1.200
O ? 0.680
C ? 0.860
H ? 1.200


loop_
_atom_site_label
_atom_site_type_symbol
_atom_site_fract_x
_atom_site_fract_y
_atom_site_fract_z
_atom_site_occupancy
_atom_site_symmetry_multiplicity
_atom_site_Wyckoff_symbol
_atom_site_attached_hydrogens
_atom_site_calc_flag
_atom_site_thermal_displace_type
_atom_site_u_iso_or_equiv
Fe Fe -0.0041(21) 0.0053(6) -0.0388(94) 1.000 4 a ? d ? ?
O1 O -0.0032(24) -0.0969(5) 0.703(10) 1.000 4 a ? d ? ?
O11 O 0.0617 0.1267 -0.3643 1.000 4 a ? d ? ?
O12 O 0.0790 0.0973 -0.0302 1.000 4 a ? d ? ?
O13 O 0.4106 0.3651 -0.0606 1.000 4 a ? d ? ?
O14 O 0.4278 0.3356 0.2735 1.000 4 a ? d ? ?
C11 C 0.1763 0.1844 -0.1050 1.000 4 a ? d ? ?
C12 C 0.2025 0.2154 -0.2554 1.000 4 a ? d ? ?
C13 C 0.2710 0.2622 -0.1958 1.000 4 a ? d ? ?
C14 C 0.3132 0.2780 0.0142 1.000 4 a ? d ? ?
C15 C 0.2870 0.2470 0.1646 1.000 4 a ? d ? ?
C16 C 0.2185 0.2002 0.1050 1.000 4 a ? d ? ?
C17 C 0.1021 0.1337 -0.1696 1.000 4 a ? d ? ?
C18 C 0.3874 0.3287 0.0788 1.000 4 a ? d ? ?
H12 H 0.1723 0.2041 -0.4056 1.000 4 a ? d ? ?
H13 H 0.2897 0.2843 -0.3034 1.000 4 a ? d ? ?
H15 H 0.3173 0.2583 0.3149 1.000 4 a ? d ? ?
H16 H 0.1998 0.1780 0.2126 1.000 4 a ? d ? ?
H34 H -1.1103 -0.5276 -0.1079 0.446(1) 4 a ? d ? ?
C37 C -0.8426 -0.5296 0.3954 0.446(1) 4 a ? d ? ?
C31 C -0.9195 -0.5290 0.2508 0.446(1) 4 a ? d ? ?
C32 C -0.9704 -0.5226 0.3332 0.446(1) 4 a ? d ? ?
C33 C -1.0406 -0.5221 0.2011 0.446(1) 4 a ? d ? ?
C34 C -1.0600 -0.5280 -0.0134 0.446(1) 4 a ? d ? ?
C35 C -1.0092 -0.5344 -0.0958 0.446(1) 4 a ? d ? ?
C36 C -0.9390 -0.5349 0.0363 0.446(1) 4 a ? d ? ?
H32 H -0.9565 -0.5184 0.4867 0.446(1) 4 a ? d ? ?
C38 C -1.0963 -0.5150 0.2914 0.446(1) 4 a ? d ? ?
H35 H -1.0231 -0.5386 -0.2493 0.446(1) 4 a ? d ? ?
H36 H -0.9026 -0.5395 -0.0227 0.446(1) 4 a ? d ? ?

