
###############################################################################
#
# This file contains modified crystal structure data generated from the
# MOF subset of the Cambridge Structural Database (CSD) v543 
# hosted by the Cambridge Crystallographic Data Centre (CCDC).
#
# This work is licensed under the Creative Commons
# Attribution-NonCommercial-ShareAlike 4.0 International License.
# To view a copy of this license, visit
# http://creativecommons.org/licenses/by-nc-sa/4.0/
# or send a letter to
# Creative Commons, PO Box 1866, Mountain View, CA 94042, USA.
#
# CIF created using the CSD Python API on 29 September 2022
# The structure has been converted into the P1 space group
# The structure has a 3D framework
# The original CSD entry SEVBUT is in the triclinic crystal system
# The framework has been calculated to contain at least 10.0% void space
# The void calculation uses a probe of radius 1.32A, grid spacing 0.4
#
###############################################################################

data_SEVBUT
_chemical_formula_moiety         '(C116 H90 Cd6 N6 O32)n'
_symmetry_cell_setting           triclinic
_symmetry_space_group_name_H-M   'P 1'
_symmetry_Int_Tables_number      1
_space_group_name_Hall           'P 1'
loop_
_symmetry_equiv_pos_site_id
_symmetry_equiv_pos_as_xyz
1 x,y,z
_cell_length_a                   13.477(2)
_cell_length_b                   13.815(2)
_cell_length_c                   18.3740(13)
_cell_angle_alpha                94.330(2)
_cell_angle_beta                 100.245(2)
_cell_angle_gamma                99.054(3)
_cell_volume                     3305.57
loop_
_atom_site_label
_atom_site_type_symbol
_atom_site_fract_x
_atom_site_fract_y
_atom_site_fract_z
Cd4 Cd 0.09280(3) 0.24346(3) 0.48699(2)
Cd7 Cd 0.02593(3) 0.17433(3) 0.29267(2)
C1 C 0.2445(4) 0.3144(4) 0.4114(3)
C2 C 0.3290(4) 0.3600(4) 0.3764(3)
C3 C 0.3421(4) 0.3220(4) 0.3069(3)
H1 H 0.2953 0.2689 0.2805
C4 C 0.4242(5) 0.3627(4) 0.2772(3)
H2 H 0.4339 0.3347 0.2319
C5 C 0.4924(5) 0.4445(4) 0.3140(3)
C6 C 0.4791(4) 0.4825(5) 0.3827(3)
H3 H 0.5258 0.5361 0.4086
C7 C 0.3975(4) 0.4423(4) 0.4137(3)
H4 H 0.3885 0.4700 0.4593
C8 C 0.5823(4) 0.4866(5) 0.2823(3)
H5 H 0.5957 0.5588 0.2902
C9 C 0.6772(5) 0.4437(4) 0.3152(3)
C10 C 0.6957(5) 0.3583(5) 0.2824(3)
H6 H 0.6514 0.3282 0.2391
C11 C 0.7789(4) 0.3140(4) 0.3113(3)
H7 H 0.7900 0.2553 0.2885
C12 C 0.8466(4) 0.3637(4) 0.3781(3)
C13 C 0.8273(4) 0.4521(4) 0.4093(3)
H8 H 0.8714 0.4859 0.4514
C14 C 0.7424(4) 0.4898(4) 0.3778(3)
H9 H 0.7295 0.5481 0.3999
C15 C 0.9348(5) 0.3212(4) 0.4154(3)
C16 C 0.0906(4) 0.0345(4) 0.4257(4)
C46 C 0.1134(4) 0.1676(4) 0.6477(3)
H28 H 0.1377 0.1168 0.6240
C47 C 0.0992(4) 0.1633(4) 0.7207(3)
H29 H 0.1170 0.1110 0.7462
C48 C 0.0591(4) 0.2362(4) 0.7558(3)
C49 C 0.0375(4) 0.3166(4) 0.7181(3)
H30 H 0.0137 0.3680 0.7414
C50 C 0.0521(4) 0.3191(4) 0.6450(3)
H31 H 0.0346 0.3712 0.6192
C51 C 0.0735(5) 0.1760(4) 0.9543(3)
H32 H 0.1153 0.1463 0.9884
C52 C 0.0946(4) 0.1819(4) 0.8829(3)
H33 H 0.1489 0.1549 0.8700
C53 C 0.0375(4) 0.2260(4) 0.8331(3)
N1 N 0.0914(3) 0.2472(3) 0.6104(2)
O1 O 0.2463(3) 0.3365(2) 0.48010(19)
O2 O 0.1734(3) 0.2537(3) 0.37343(19)
O3 O 0.5626(3) 0.4541(3) 0.2088(2)
H43 H 0.5630 0.5090 0.1798
O4 O 0.9525(2) 0.2408(2) 0.38429(18)
O5 O 0.9878(3) 0.3610(2) 0.4740(2)
O6 O 0.0384(3) 0.0524(3) 0.3653(2)
O7 O 0.1089(3) 0.0886(3) 0.4852(2)
O19 O 0.0944(3) 0.3591(3) 0.1367(2)
O20 O 0.0142(3) 0.3022(3) 0.2200(2)
O21 O 0.0744(3) 0.0941(3) 0.1055(2)
O22 O 0.1376(3) 0.1247(3) 0.2256(2)
C17 C 0.1377(4) 0.9425(4) 0.4228(3)
C18 C 0.1560(4) 0.9021(4) 0.3571(3)
H10 H 0.1361 0.9297 0.3133
C19 C 0.2038(4) 0.8209(4) 0.3555(3)
H11 H 0.2163 0.7942 0.3107
C20 C 0.2332(4) 0.7788(4) 0.4203(3)
C21 C 0.2118(4) 0.8188(4) 0.4872(3)
H12 H 0.2309 0.7910 0.5310
C22 C 0.1633(4) 0.8982(4) 0.4881(3)
H13 H 0.1471 0.9231 0.5322
C23 C 0.2854(4) 0.6910(4) 0.4186(3)
H14 H 0.2939 0.6658 0.4673
C24 C 0.2347(4) 0.6104(4) 0.3598(3)
C25 C 0.1489(4) 0.5442(4) 0.3730(3)
H15 H 0.1268 0.5536 0.4178
C26 C 0.0980(4) 0.4675(4) 0.3220(3)
H16 H 0.0425 0.4252 0.3322
C27 C 0.1295(5) 0.4532(4) 0.2550(3)
C28 C 0.2100(5) 0.5195(5) 0.2395(3)
H17 H 0.2292 0.5115 0.1936
C29 C 0.2620(5) 0.5969(4) 0.2908(3)
H18 H 0.3156 0.6403 0.2791
C30 C 0.0786(5) 0.3675(5) 0.1993(3)
O8 O 0.3794(3) 0.7260(3) 0.4026(2)
H44 H 0.4166 0.7779 0.4397
Cd10 Cd 0.97699(4) 0.21190(3) 0.09737(2)
C31 C 0.8220(4) 0.0725(5) 0.1663(3)
C32 C 0.7218(4) 0.0072(4) 0.1601(3)
H19 H 0.6774 0.0006 0.0484
C42 C 0.2097(4) 0.0149(4) 0.1562(3)
C43 C 0.2752(4) 0.0006(4) 0.2192(3)
H26 H 0.2725 0.0327 0.2649
C45 C 0.1357(4) 0.0851(4) 0.1634(3)
C54 C 0.9563(5) 0.2661(4) 0.8539(3)
H34 H 0.9167 0.2982 0.8200
C55 C 0.9345(5) 0.2587(4) 0.9238(3)
H35 H 0.8797 0.2848 0.9367
C56 C 0.7809(5) 0.3583(4) 0.0454(4)
C57 C 0.7660(5) 0.4571(5) 0.1633(4)
H37 H 0.8273 0.4341 0.1847
H38 H 0.7197 0.4532 0.1975
H39 H 0.7830 0.5242 0.1533
C58 C 0.6038(5) 0.3574(5) 0.0726(3)
H40 H 0.5697 0.4085 0.0529
H41 H 0.5790 0.3387 0.1163
H42 H 0.5902 0.3013 0.0360
N2 N 0.9942(4) 0.2121(4) 0.9753(3)
N3 N 0.7162(5) 0.3943(4) 0.0924(3)
O11 O 0.8761(3) 0.0933(3) 0.2278(2)
O12 O 0.8423(3) 0.1034(3) 0.1075(2)
O16 O 0.8485(3) 0.3094(3) 0.0700(2)
H36 H 0.7723 0.3716 0.9960
C33 C 0.6571(4) 0.9796(4) 0.0912(4)
C34 C 0.5620(5) 0.9206(5) 0.0864(4)
H20 H 0.5173 0.9048 0.0408
C35 C 0.5339(5) 0.8853(5) 0.1499(4)
C36 C 0.5991(5) 0.9131(4) 0.2166(4)
H21 H 0.5797 0.8908 0.2594
C37 C 0.6931(5) 0.9735(4) 0.2228(3)
H22 H 0.7363 0.9911 0.2690
C38 C 0.4283(5) 0.8208(5) 0.1490(4)
H23 H 0.4299 0.7829 0.1921
C39 C 0.3495(4) 0.8900(4) 0.1469(4)
C40 C 0.2823(4) 0.9048(4) 0.0833(3)
H24 H 0.2842 0.8720 0.0376
C41 C 0.2139(4) 0.9671(4) 0.0878(3)
H25 H 0.1701 0.9775 0.0450
C44 C 0.3454(4) 0.9383(4) 0.2146(3)
H27 H 0.3899 0.9289 0.2573
O13 O 0.4070(3) 0.7617(4) 0.0851(3)
H45 H 0.4318 0.7117 0.0913
Cd8 Cd 0.02301(4) 0.78810(3) 0.90263(2)
C33_2 C 0.3429(4) 0.0204(4) 0.9088(4)
C34_2 C 0.4380(5) 0.0794(5) 0.9136(4)
H20_2 H 0.4827 0.0952 0.9592
C35_2 C 0.4661(5) 0.1147(5) 0.8501(4)
C36_2 C 0.4009(5) 0.0869(4) 0.7834(4)
H21_2 H 0.4203 0.1092 0.7406
C37_2 C 0.3069(5) 0.0265(4) 0.7772(3)
H22_2 H 0.2637 0.0089 0.7310
C38_2 C 0.5717(5) 0.1792(5) 0.8510(4)
H23_2 H 0.5701 0.2171 0.8079
C39_2 C 0.6505(4) 0.1100(4) 0.8531(4)
C40_2 C 0.7177(4) 0.0952(4) 0.9167(3)
H24_2 H 0.7158 0.1280 0.9624
C41_2 C 0.7861(4) 0.0329(4) 0.9122(3)
H25_2 H 0.8299 0.0225 0.9550
C44_2 C 0.6546(4) 0.0617(4) 0.7854(3)
H27_2 H 0.6101 0.0711 0.7427
O13_2 O 0.5930(3) 0.2383(4) 0.9149(3)
H45_2 H 0.5682 0.2883 0.9087
H36_2 H 0.2277 0.6284 0.0040
N4 N 0.0058(4) 0.7879(4) 0.0247(3)
C31_2 C 0.1780(4) 0.9275(5) 0.8337(3)
C32_2 C 0.2782(4) 0.9928(4) 0.8399(3)
H19_2 H 0.3226 0.9994 0.9516
C42_2 C 0.7903(4) 0.9851(4) 0.8438(3)
C43_2 C 0.7248(4) 0.9994(4) 0.7808(3)
H26_2 H 0.7275 0.9673 0.7351
C45_2 C 0.8643(4) 0.9149(4) 0.8366(3)
C54_2 C 0.0437(5) 0.7339(4) 0.1461(3)
H34_2 H 0.0833 0.7018 0.1800
C55_2 C 0.0655(5) 0.7413(4) 0.0762(3)
H35_2 H 0.1203 0.7152 0.0633
C56_2 C 0.2191(5) 0.6417(4) 0.9546(4)
C57_2 C 0.2340(5) 0.5429(5) 0.8367(4)
H37_2 H 0.1727 0.5659 0.8153
H38_2 H 0.2803 0.5468 0.8025
H39_2 H 0.2170 0.4758 0.8467
C58_2 C 0.3962(5) 0.6426(5) 0.9274(3)
H40_2 H 0.4303 0.5915 0.9471
H41_2 H 0.4210 0.6613 0.8837
H42_2 H 0.4098 0.6987 0.9640
N3_2 N 0.2838(5) 0.6057(4) 0.9076(3)
O11_2 O 0.1239(3) 0.9067(3) 0.7722(2)
O12_2 O 0.1577(3) 0.8966(3) 0.8925(2)
O14 O 0.9256(3) 0.9059(3) 0.8945(2)
O15 O 0.8624(3) 0.8753(3) 0.7744(2)
O16_2 O 0.1515(3) 0.6906(3) 0.9300(2)
Cd5 Cd 0.97407(3) 0.82567(3) 0.70733(2)
O17 O 0.0475(2) 0.7592(2) 0.61571(18)
O18 O 0.0122(3) 0.6390(2) 0.5260(2)
C17_2 C 0.8623(4) 0.0575(4) 0.5772(3)
C18_2 C 0.8440(4) 0.0979(4) 0.6429(3)
H10_2 H 0.8639 0.0703 0.6867
C19_2 C 0.7962(4) 0.1791(4) 0.6445(3)
H11_2 H 0.7837 0.2058 0.6893
C20_2 C 0.7668(4) 0.2212(4) 0.5797(3)
C21_2 C 0.7882(4) 0.1812(4) 0.5128(3)
H12_2 H 0.7691 0.2090 0.4690
C22_2 C 0.8367(4) 0.1018(4) 0.5119(3)
H13_2 H 0.8529 0.0769 0.4678
C23_2 C 0.7146(4) 0.3090(4) 0.5814(3)
H14_2 H 0.7061 0.3342 0.5327
C24_2 C 0.7653(4) 0.3896(4) 0.6402(3)
C25_2 C 0.8511(4) 0.4558(4) 0.6270(3)
H15_2 H 0.8732 0.4464 0.5822
C26_2 C 0.9020(4) 0.5325(4) 0.6780(3)
H16_2 H 0.9575 0.5748 0.6678
C27_2 C 0.8705(5) 0.5468(4) 0.7450(3)
C28_2 C 0.7900(5) 0.4805(5) 0.7605(3)
H17_2 H 0.7708 0.4885 0.8064
C29_2 C 0.7380(5) 0.4031(4) 0.7092(3)
H18_2 H 0.6844 0.3597 0.7209
C30_2 C 0.9214(5) 0.6325(5) 0.8007(3)
O8_2 O 0.6206(3) 0.2740(3) 0.5974(2)
H44_2 H 0.5834 0.2221 0.5603
O9 O 0.9056(3) 0.6409(3) 0.8633(2)
O10 O 0.9858(3) 0.6978(3) 0.7800(2)
C1_2 C 0.7555(4) 0.6856(4) 0.5886(3)
C2_2 C 0.6710(4) 0.6400(4) 0.6236(3)
C3_2 C 0.6579(4) 0.6780(4) 0.6931(3)
H1_2 H 0.7047 0.7311 0.7195
C4_2 C 0.5758(5) 0.6373(4) 0.7228(3)
H2_2 H 0.5661 0.6653 0.7681
C5_2 C 0.5076(5) 0.5555(4) 0.6860(3)
C6_2 C 0.5209(4) 0.5175(5) 0.6173(3)
H3_2 H 0.4742 0.4639 0.5914
C7_2 C 0.6025(4) 0.5577(4) 0.5863(3)
H4_2 H 0.6115 0.5300 0.5407
C8_2 C 0.4177(4) 0.5134(5) 0.7177(3)
H5_2 H 0.4043 0.4412 0.7098
C9_2 C 0.3228(5) 0.5563(4) 0.6848(3)
C10_2 C 0.3043(5) 0.6417(5) 0.7176(3)
H6_2 H 0.3486 0.6718 0.7609
C11_2 C 0.2211(4) 0.6860(4) 0.6887(3)
H7_2 H 0.2100 0.7447 0.7115
C12_2 C 0.1534(4) 0.6363(4) 0.6219(3)
C13_2 C 0.1727(4) 0.5479(4) 0.5907(3)
H8_2 H 0.1286 0.5141 0.5486
C14_2 C 0.2576(4) 0.5102(4) 0.6222(3)
H9_2 H 0.2705 0.4519 0.6001
C15_2 C 0.0652(5) 0.6788(4) 0.5846(3)
C16_2 C 0.9094(4) 0.9655(4) 0.5743(4)
C46_2 C 0.8866(4) 0.8324(4) 0.3523(3)
H28_2 H 0.8623 0.8832 0.3760
C47_2 C 0.9008(4) 0.8367(4) 0.2793(3)
H29_2 H 0.8830 0.8890 0.2538
C48_2 C 0.9409(4) 0.7638(4) 0.2442(3)
C49_2 C 0.9625(4) 0.6834(4) 0.2819(3)
H30_2 H 0.9863 0.6320 0.2586
C50_2 C 0.9479(4) 0.6809(4) 0.3550(3)
H31_2 H 0.9654 0.6288 0.3808
C51_2 C 0.9265(5) 0.8240(4) 0.0457(3)
H32_2 H 0.8847 0.8537 0.0116
C52_2 C 0.9054(4) 0.8181(4) 0.1171(3)
H33_2 H 0.8511 0.8451 0.1300
C53_2 C 0.9625(4) 0.7740(4) 0.1669(3)
Cd1 Cd 0.90720(3) 0.75654(3) 0.51301(2)
N1_2 N 0.9086(3) 0.7528(3) 0.3896(2)
O1_2 O 0.7537(3) 0.6635(2) 0.51990(19)
O2_2 O 0.8266(3) 0.7463(3) 0.62657(19)
O3_2 O 0.4374(3) 0.5459(3) 0.7912(2)
H43_2 H 0.4370 0.4910 0.8202
O6_2 O 0.9616(3) 0.9476(3) 0.6347(2)
O7_2 O 0.8911(3) 0.9114(3) 0.5148(2)
loop_
_geom_bond_atom_site_label_1
_geom_bond_atom_site_label_2
_geom_bond_site_symmetry_1
_geom_bond_site_symmetry_2
C1 C2 1_555 1_555
C2 C3 1_555 1_555
C3 H1 1_555 1_555
C4 C3 1_555 1_555
H2 C4 1_555 1_555
C5 C4 1_555 1_555
C6 C5 1_555 1_555
H3 C6 1_555 1_555
C7 C2 1_555 1_555
H4 C7 1_555 1_555
C8 C5 1_555 1_555
H5 C8 1_555 1_555
C9 C8 1_555 1_555
C10 C9 1_555 1_555
H6 C10 1_555 1_555
C11 C10 1_555 1_555
H7 C11 1_555 1_555
C12 C11 1_555 1_555
C13 C12 1_555 1_555
H8 C13 1_555 1_555
C14 C9 1_555 1_555
H9 C14 1_555 1_555
C15 C12 1_555 1_555
C46 H28 1_555 1_555
C47 C46 1_555 1_555
H29 C47 1_555 1_555
C48 C47 1_555 1_555
C49 C48 1_555 1_555
H30 C49 1_555 1_555
C50 C49 1_555 1_555
H31 C50 1_555 1_555
C51 H32 1_555 1_555
C52 C51 1_555 1_555
H33 C52 1_555 1_555
C53 C48 1_555 1_555
Cd4 N1 1_555 1_555
Cd7 O2 1_555 1_555
N1 C46 1_555 1_555
O1 C1 1_555 1_555
O2 C1 1_555 1_555
O3 C8 1_555 1_555
H43 O3 1_555 1_555
O4 C15 1_555 1_555
O5 C15 1_555 1_555
O6 C16 1_555 1_555
O7 C16 1_555 1_555
O20 Cd7 1_555 1_555
O22 Cd7 1_555 1_555
C6 C7 1_555 1_555
C13 C14 1_555 1_555
C50 N1 1_555 1_555
C52 C53 1_555 1_555
Cd4 O1 1_555 1_555
Cd4 O2 1_555 1_555
Cd4 O7 1_555 1_555
Cd7 O6 1_555 1_555
C17 C18 1_555 1_555
C18 H10 1_555 1_555
C19 C18 1_555 1_555
H11 C19 1_555 1_555
C20 C19 1_555 1_555
C21 C20 1_555 1_555
H12 C21 1_555 1_555
C22 C17 1_555 1_555
H13 C22 1_555 1_555
C23 C20 1_555 1_555
H14 C23 1_555 1_555
C24 C23 1_555 1_555
C25 C24 1_555 1_555
H15 C25 1_555 1_555
C26 C25 1_555 1_555
H16 C26 1_555 1_555
C27 C26 1_555 1_555
C28 C27 1_555 1_555
H17 C28 1_555 1_555
C29 C24 1_555 1_555
H18 C29 1_555 1_555
C30 C27 1_555 1_555
O8 C23 1_555 1_555
H44 O8 1_555 1_555
O19 C30 1_555 1_555
O20 C30 1_555 1_555
C21 C22 1_555 1_555
C28 C29 1_555 1_555
C31 C32 1_555 1_555
C43 C42 1_555 1_555
H26 C43 1_555 1_555
C45 C42 1_555 1_555
H34 C54 1_555 1_555
C55 C54 1_555 1_555
H35 C55 1_555 1_555
C57 H37 1_555 1_555
H38 C57 1_555 1_555
H39 C57 1_555 1_555
C58 H40 1_555 1_555
H41 C58 1_555 1_555
H42 C58 1_555 1_555
Cd10 O12 1_555 1_555
N3 C56 1_555 1_555
O11 C31 1_555 1_555
O12 C31 1_555 1_555
O21 C45 1_555 1_555
O22 C45 1_555 1_555
O16 C56 1_555 1_555
C55 N2 1_555 1_555
C57 N3 1_555 1_555
C58 N3 1_555 1_555
Cd10 O16 1_555 1_555
C34 C33 1_555 1_555
H20 C34 1_555 1_555
C35 C34 1_555 1_555
C36 C35 1_555 1_555
H21 C36 1_555 1_555
H22 C37 1_555 1_555
C38 C35 1_555 1_555
H23 C38 1_555 1_555
C39 C38 1_555 1_555
C40 C39 1_555 1_555
H24 C40 1_555 1_555
C41 C40 1_555 1_555
H25 C41 1_555 1_555
C44 C39 1_555 1_555
H27 C44 1_555 1_555
O13 C38 1_555 1_555
H45 O13 1_555 1_555
C36 C37 1_555 1_555
C34_2 C33_2 1_555 1_555
H20_2 C34_2 1_555 1_555
C35_2 C34_2 1_555 1_555
C36_2 C35_2 1_555 1_555
H21_2 C36_2 1_555 1_555
H22_2 C37_2 1_555 1_555
C38_2 C35_2 1_555 1_555
H23_2 C38_2 1_555 1_555
C39_2 C38_2 1_555 1_555
C40_2 C39_2 1_555 1_555
H24_2 C40_2 1_555 1_555
C41_2 C40_2 1_555 1_555
H25_2 C41_2 1_555 1_555
C44_2 C39_2 1_555 1_555
H27_2 C44_2 1_555 1_555
O13_2 C38_2 1_555 1_555
H45_2 O13_2 1_555 1_555
C36_2 C37_2 1_555 1_555
C31_2 C32_2 1_555 1_555
C43_2 C42_2 1_555 1_555
H26_2 C43_2 1_555 1_555
C45_2 C42_2 1_555 1_555
H34_2 C54_2 1_555 1_555
C55_2 C54_2 1_555 1_555
H35_2 C55_2 1_555 1_555
C57_2 H37_2 1_555 1_555
H38_2 C57_2 1_555 1_555
H39_2 C57_2 1_555 1_555
C58_2 H40_2 1_555 1_555
H41_2 C58_2 1_555 1_555
H42_2 C58_2 1_555 1_555
Cd8 O12_2 1_555 1_555
N3_2 C56_2 1_555 1_555
O11_2 C31_2 1_555 1_555
O12_2 C31_2 1_555 1_555
O14 C45_2 1_555 1_555
O15 C45_2 1_555 1_555
O16_2 C56_2 1_555 1_555
Cd5 O15 1_555 1_555
C55_2 N4 1_555 1_555
C57_2 N3_2 1_555 1_555
C58_2 N3_2 1_555 1_555
Cd8 O16_2 1_555 1_555
C17_2 C18_2 1_555 1_555
C18_2 H10_2 1_555 1_555
C19_2 C18_2 1_555 1_555
H11_2 C19_2 1_555 1_555
C20_2 C19_2 1_555 1_555
C21_2 C20_2 1_555 1_555
H12_2 C21_2 1_555 1_555
C22_2 C17_2 1_555 1_555
H13_2 C22_2 1_555 1_555
C23_2 C20_2 1_555 1_555
H14_2 C23_2 1_555 1_555
C24_2 C23_2 1_555 1_555
C25_2 C24_2 1_555 1_555
H15_2 C25_2 1_555 1_555
C26_2 C25_2 1_555 1_555
H16_2 C26_2 1_555 1_555
C27_2 C26_2 1_555 1_555
C28_2 C27_2 1_555 1_555
H17_2 C28_2 1_555 1_555
C29_2 C24_2 1_555 1_555
H18_2 C29_2 1_555 1_555
C30_2 C27_2 1_555 1_555
O8_2 C23_2 1_555 1_555
H44_2 O8_2 1_555 1_555
O9 C30_2 1_555 1_555
O10 C30_2 1_555 1_555
Cd5 O10 1_555 1_555
C21_2 C22_2 1_555 1_555
C28_2 C29_2 1_555 1_555
C1_2 C2_2 1_555 1_555
C2_2 C3_2 1_555 1_555
C3_2 H1_2 1_555 1_555
C4_2 C3_2 1_555 1_555
H2_2 C4_2 1_555 1_555
C5_2 C4_2 1_555 1_555
C6_2 C5_2 1_555 1_555
H3_2 C6_2 1_555 1_555
C7_2 C2_2 1_555 1_555
H4_2 C7_2 1_555 1_555
C8_2 C5_2 1_555 1_555
H5_2 C8_2 1_555 1_555
C9_2 C8_2 1_555 1_555
C10_2 C9_2 1_555 1_555
H6_2 C10_2 1_555 1_555
C11_2 C10_2 1_555 1_555
H7_2 C11_2 1_555 1_555
C12_2 C11_2 1_555 1_555
C13_2 C12_2 1_555 1_555
H8_2 C13_2 1_555 1_555
C14_2 C9_2 1_555 1_555
H9_2 C14_2 1_555 1_555
C15_2 C12_2 1_555 1_555
C46_2 H28_2 1_555 1_555
C47_2 C46_2 1_555 1_555
H29_2 C47_2 1_555 1_555
C48_2 C47_2 1_555 1_555
C49_2 C48_2 1_555 1_555
H30_2 C49_2 1_555 1_555
C50_2 C49_2 1_555 1_555
H31_2 C50_2 1_555 1_555
C51_2 H32_2 1_555 1_555
C52_2 C51_2 1_555 1_555
H33_2 C52_2 1_555 1_555
C53_2 C48_2 1_555 1_555
Cd1 N1_2 1_555 1_555
Cd5 O2_2 1_555 1_555
N1_2 C46_2 1_555 1_555
O1_2 C1_2 1_555 1_555
O2_2 C1_2 1_555 1_555
O3_2 C8_2 1_555 1_555
H43_2 O3_2 1_555 1_555
O17 C15_2 1_555 1_555
O18 C15_2 1_555 1_555
O6_2 C16_2 1_555 1_555
O7_2 C16_2 1_555 1_555
C6_2 C7_2 1_555 1_555
C13_2 C14_2 1_555 1_555
C50_2 N1_2 1_555 1_555
C52_2 C53_2 1_555 1_555
Cd1 O1_2 1_555 1_555
Cd1 O2_2 1_555 1_555
Cd1 O7_2 1_555 1_555
Cd5 O6_2 1_555 1_555

#END
