
###############################################################################
#
# This file contains modified crystal structure data generated from the
# MOF subset of the Cambridge Structural Database (CSD) v543 
# hosted by the Cambridge Crystallographic Data Centre (CCDC).
#
# This work is licensed under the Creative Commons
# Attribution-NonCommercial-ShareAlike 4.0 International License.
# To view a copy of this license, visit
# http://creativecommons.org/licenses/by-nc-sa/4.0/
# or send a letter to
# Creative Commons, PO Box 1866, Mountain View, CA 94042, USA.
#
# CIF created using the CSD Python API on 29 September 2022
# The structure has been converted into the P1 space group
# The structure has a 3D framework
# The original CSD entry SEVWIC is in the orthorhombic crystal system
# The original CSD entry SEVWIC is in a Sohncke space group
# The framework has been calculated to contain at least 10.0% void space
# The void calculation uses a probe of radius 1.32A, grid spacing 0.4
# H atom positions have been added when not included in the experimental data
#
###############################################################################

data_SEVWIC
_chemical_formula_moiety         '(C120 H112 N8 O36 Zn6)n'
_symmetry_cell_setting           triclinic
_symmetry_space_group_name_H-M   'P 1'
_symmetry_Int_Tables_number      1
_space_group_name_Hall           'P 1'
loop_
_symmetry_equiv_pos_site_id
_symmetry_equiv_pos_as_xyz
1 x,y,z
_cell_length_a                   13.182(2)
_cell_length_b                   15.599(3)
_cell_length_c                   17.973(3)
_cell_angle_alpha                90
_cell_angle_beta                 90
_cell_angle_gamma                90
_cell_volume                     3695.72
loop_
_atom_site_label
_atom_site_type_symbol
_atom_site_fract_x
_atom_site_fract_y
_atom_site_fract_z
C1 C 0.0266(3) 0.0419(3) 0.0672(3)
C2 C 0.1343(3) 0.0625(3) 0.0873(3)
C3 C 0.1786(4) 0.1384(3) 0.0653(3)
H1 H 0.1427 0.1763 0.0352
C4 C 0.2746(4) 0.1581(3) 0.0873(3)
C5 C 0.3225(4) 0.2430(3) 0.0664(3)
C6 C 0.3304(4) 0.1008(3) 0.1320(3)
H2 H 0.3958 0.1146 0.1472
C7 C 0.2867(4) 0.0231(3) 0.1532(3)
C8 C 0.1893(4) 0.0054(3) 0.1317(3)
H4 H 0.4303 0.0467 0.2559
O9 O 0.2735(3) 0.2883(2) 0.0214(3)
O10 O 0.4079(4) 0.2612(3) 0.0880(3)
Zn5 Zn 0.34063(3) 0.39495(3) 0.00123(2)
H3 H 0.1591 0.9545 0.1470
C9 C 0.3433(4) 0.9616(3) 0.2012(3)
C10 C 0.4132(5) 0.9889(3) 0.2529(4)
C11 C 0.4586(6) 0.9294(4) 0.3010(4)
H5 H 0.5045 0.9483 0.3367
C12 C 0.4368(5) 0.8455(4) 0.2963(3)
H6 H 0.4675 0.8073 0.3290
C13 C 0.3690(4) 0.8150(3) 0.2432(3)
C14 C 0.3234(4) 0.8737(3) 0.1958(3)
H7 H 0.2786 0.8542 0.1596
C15 C 0.3454(4) 0.7223(3) 0.2356(2)
C16 C 0.3145(4) 0.6746(3) 0.2962(3)
H8 H 0.3116 0.7002 0.3429
C17 C 0.2876(3) 0.5884(3) 0.2886(2)
C18 C 0.2951(3) 0.5497(3) 0.2190(2)
H9 H 0.2779 0.4922 0.2134
C19 C 0.3278(3) 0.5964(3) 0.1582(2)
C20 C 0.3521(4) 0.6833(3) 0.1673(2)
H10 H 0.3730 0.7151 0.1263
C21 C 0.3373(4) 0.5551(3) 0.0835(2)
C22 C 0.2424(4) 0.5411(3) 0.3518(3)
C24 C 0.0757(9) 0.6976(6) 0.1342(5)
C25 C 0.0128(16) 0.6365(12) 0.2396(11)
O5 O 0.3714(3) 0.5993(2) 0.03166(18)
O6 O 0.3132(3) 0.4773(2) 0.07944(19)
O7 O 0.2082(4) 0.4688(2) 0.3408(2)
O8 O 0.2444(3) 0.5764(3) 0.41461(19)
Zn3 Zn 0.15937(3) 0.60505(3) 0.50123(2)
Zn6 Zn 0.14171(4) 0.40572(3) 0.42233(3)
H12 H 0.0832083 0.606664 0.221324
H13 H 0.0240054 0.665522 0.294091
H17 H 0.113242 0.759783 0.134821
H18 H 0.129327 0.648132 0.15096
H19 H 0.0482622 0.684046 0.0782724
Zn7 Zn 0.35829(4) 0.59428(3) 0.92233(3)
O2 O 0.9791(3) 0.1000(3) 0.0330(3)
O14 O 0.7556(3) 0.0764(3) 0.08539(19)
Zn1 Zn 0.84063(3) 0.10505(3) 0.99877(2)
O12 O 0.8132(3) 0.0227(2) 0.92056(19)
O15 O 0.7735(3) 0.2117(2) 0.9786(3)
Zn2 Zn 0.85829(4) 0.90572(3) 0.07767(3)
C23 C 0.9236(9) 0.7557(6) 0.1696(5)
C26 C 0.8364(13) 0.7619(11) 0.2233(9)
N1 N 0.9846(7) 0.6988(5) 0.1893(5)
O1 O 0.9912(3) 0.9732(2) 0.0881(3)
O3 O 0.7218(5) 0.8424(5) 0.0576(4)
O4 O 0.9202(5) 0.8045(3) 0.1217(3)
C28 C 0.6745(14) 0.7902(12) 0.0814(9)
C29 C 0.5958(18) 0.8083(13) 0.1390(12)
N2 N 0.6748(10) 0.7058(8) 0.0606(7)
C30 C 0.6144(16) 0.6319(12) 0.0756(9)
O13 O 0.7918(4) 0.9688(2) 0.1592(2)
H11 H 0.953466 0.588094 0.243126
H14 H 0.663469 0.578601 0.0909671
H15 H 0.562474 0.645689 0.121181
H16 H 0.571154 0.615003 0.0261012
H20 H 0.539968 0.852784 0.116554
H21 H 0.558371 0.748752 0.154705
H22 H 0.631639 0.83657 0.187768
H23 H 0.865084 0.777591 0.278465
H24 H 0.784359 0.811838 0.204973
H25 H 0.79662 0.70076 0.225343
H26 H 0.825286 0.704251 0.0133028
C27 C 0.7485(11) 0.6874(10) 0.9964(8)
O11 O 0.8714(3) 0.9007(2) 0.96834(18)
H27 H 0.745489 0.619548 0.982313
H28 H 0.726995 0.72535 0.948051
Zn2_2 Zn 0.64171(4) 0.09428(3) 0.57767(3)
H3_2 H 0.3409 0.0455 0.6470
C9_2 C 0.1567(4) 0.0384(3) 0.7012(3)
C10_2 C 0.0868(5) 0.0111(3) 0.7529(4)
C11_2 C 0.0414(6) 0.0706(4) 0.8010(4)
C12_2 C 0.0632(5) 0.1545(4) 0.7963(3)
H6_2 H 0.0325 0.1927 0.8290
C13_2 C 0.1310(4) 0.1850(3) 0.7432(3)
C14_2 C 0.1766(4) 0.1263(3) 0.6958(3)
H7_2 H 0.2214 0.1458 0.6596
C15_2 C 0.1546(4) 0.2777(3) 0.7356(2)
C16_2 C 0.1855(4) 0.3254(3) 0.7962(3)
H8_2 H 0.1884 0.2998 0.8429
C17_2 C 0.2124(3) 0.4116(3) 0.7886(2)
C18_2 C 0.2049(3) 0.4503(3) 0.7190(2)
H9_2 H 0.2221 0.5078 0.7134
C19_2 C 0.1722(3) 0.4036(3) 0.6582(2)
C20_2 C 0.1479(4) 0.3167(3) 0.6673(2)
H10_2 H 0.1270 0.2849 0.6263
C21_2 C 0.1627(4) 0.4449(3) 0.5835(2)
C22_2 C 0.2576(4) 0.4589(3) 0.8518(3)
C23_2 C 0.5764(9) 0.2443(6) 0.6696(5)
C24_2 C 0.4243(9) 0.3024(6) 0.6342(5)
C25_2 C 0.4872(16) 0.3635(12) 0.7396(11)
C26_2 C 0.6636(13) 0.2381(11) 0.7233(9)
N1_2 N 0.5154(7) 0.3012(5) 0.6893(5)
O1_2 O 0.5088(3) 0.0268(2) 0.5881(3)
O3_2 O 0.7782(5) 0.1576(5) 0.5576(4)
O4_2 O 0.5798(5) 0.1955(3) 0.6217(3)
O5_2 O 0.1286(3) 0.4007(2) 0.53166(18)
O6_2 O 0.1868(3) 0.5227(2) 0.57944(19)
O7_2 O 0.2918(4) 0.5312(2) 0.8408(2)
O8_2 O 0.2556(3) 0.4236(3) 0.91461(19)
C27_2 C 0.7515(11) 0.3126(10) 0.4964(8)
C28_2 C 0.8255(14) 0.2098(12) 0.5814(9)
C29_2 C 0.9042(18) 0.1917(13) 0.6390(12)
N2_2 N 0.8252(10) 0.2942(8) 0.5606(7)
C30_2 C 0.8856(16) 0.3681(12) 0.5756(9)
O11_2 O 0.6286(3) 0.0993(2) 0.46834(18)
O13_2 O 0.7082(4) 0.0312(2) 0.6592(2)
H11_2 H 0.546534 0.411906 0.743126
H12_2 H 0.416792 0.393336 0.721324
H13_2 H 0.475995 0.334478 0.794091
H14_2 H 0.836531 0.421399 0.590967
H15_2 H 0.937526 0.354311 0.621181
H16_2 H 0.928846 0.384997 0.526101
H17_2 H 0.386758 0.240217 0.634821
H18_2 H 0.370673 0.351868 0.65096
H19_2 H 0.451738 0.315954 0.578272
H20_2 H 0.960032 0.147216 0.616554
H21_2 H 0.941629 0.251248 0.654705
H22_2 H 0.868361 0.16343 0.687768
H23_2 H 0.634916 0.222409 0.778465
H24_2 H 0.715641 0.188162 0.704973
H25_2 H 0.70338 0.29924 0.725343
H26_2 H 0.674714 0.295749 0.513303
H27_2 H 0.754511 0.380452 0.482313
H28_2 H 0.773005 0.27465 0.448051
Zn1_2 Zn 0.65937(3) 0.89495(3) 0.49877(2)
C1_2 C 0.4734(3) 0.9581(3) 0.5672(3)
C2_2 C 0.3657(3) 0.9375(3) 0.5873(3)
C3_2 C 0.3214(4) 0.8616(3) 0.5653(3)
H1_2 H 0.3573 0.8237 0.5352
C4_2 C 0.2254(4) 0.8419(3) 0.5873(3)
C5_2 C 0.1775(4) 0.7570(3) 0.5664(3)
C6_2 C 0.1696(4) 0.8992(3) 0.6320(3)
H2_2 H 0.1042 0.8854 0.6472
C7_2 C 0.2133(4) 0.9769(3) 0.6532(3)
C8_2 C 0.3107(4) 0.9946(3) 0.6317(3)
H4_2 H 0.0697 0.9533 0.7559
O2_2 O 0.5209(3) 0.9000(3) 0.5330(3)
O9_2 O 0.2265(3) 0.7117(2) 0.5214(3)
O10_2 O 0.0921(4) 0.7388(3) 0.5880(3)
O12_2 O 0.6868(3) 0.9773(2) 0.42056(19)
O14_2 O 0.7444(3) 0.9236(3) 0.58539(19)
O15_2 O 0.7265(3) 0.7883(2) 0.4786(3)
C23_3 C 0.0764(9) 0.2557(6) 0.3304(5)
C26_3 C 0.1636(13) 0.2619(11) 0.2767(9)
N1_3 N 0.0154(7) 0.1988(5) 0.3107(5)
O1_3 O 0.0088(3) 0.4732(2) 0.4119(3)
O2_3 O 0.0209(3) 0.6000(3) 0.4670(3)
O3_3 O 0.2782(5) 0.3424(5) 0.4424(4)
O4_3 O 0.0798(5) 0.3045(3) 0.3783(3)
C27_3 C 0.2515(11) 0.1874(10) 0.5036(8)
C28_3 C 0.3255(14) 0.2902(12) 0.4186(9)
C29_3 C 0.4042(18) 0.3083(13) 0.3610(12)
N2_3 N 0.3252(10) 0.2058(8) 0.4394(7)
C30_3 C 0.3856(16) 0.1319(12) 0.4244(9)
H11_3 H 0.046534 0.0880936 0.256874
H14_3 H 0.336531 0.0786006 0.409033
H15_3 H 0.437526 0.145689 0.378819
H16_3 H 0.428846 0.115003 0.473899
H20_3 H 0.460032 0.352784 0.383446
H21_3 H 0.441629 0.248752 0.345295
H22_3 H 0.368361 0.33657 0.312232
H23_3 H 0.134916 0.277591 0.221535
H24_3 H 0.215641 0.311838 0.295027
H25_3 H 0.20338 0.20076 0.274657
H26_3 H 0.174714 0.204251 0.486697
H27_3 H 0.254511 0.119548 0.517687
H28_3 H 0.273005 0.22535 0.551949
C1_3 C 0.9734(3) 0.5419(3) 0.4328(3)
C2_3 C 0.8657(3) 0.5625(3) 0.4127(3)
C3_3 C 0.8214(4) 0.6384(3) 0.4347(3)
H1_3 H 0.8573 0.6763 0.4648
C4_3 C 0.7254(4) 0.6581(3) 0.4127(3)
C5_3 C 0.6775(4) 0.7430(3) 0.4336(3)
C6_3 C 0.6696(4) 0.6008(3) 0.3680(3)
H2_3 H 0.6042 0.6146 0.3528
C7_3 C 0.7133(4) 0.5231(3) 0.3468(3)
C8_3 C 0.8107(4) 0.5054(3) 0.3683(3)
H3_3 H 0.8409 0.4545 0.3530
C9_3 C 0.6567(4) 0.4616(3) 0.2988(3)
C10_3 C 0.5868(5) 0.4889(3) 0.2471(4)
H4_3 H 0.5697 0.5467 0.2441
C11_3 C 0.5414(6) 0.4294(4) 0.1990(4)
H5_2 H 0.4955 0.4483 0.1633
C12_3 C 0.5632(5) 0.3455(4) 0.2037(3)
H6_3 H 0.5325 0.3073 0.1710
C13_3 C 0.6310(4) 0.3150(3) 0.2568(3)
C14_3 C 0.6766(4) 0.3737(3) 0.3042(3)
H7_3 H 0.7214 0.3542 0.3404
C15_3 C 0.6546(4) 0.2223(3) 0.2644(2)
C16_3 C 0.6855(4) 0.1746(3) 0.2038(3)
H8_3 H 0.6884 0.2002 0.1571
C17_3 C 0.7124(3) 0.0884(3) 0.2114(2)
C18_3 C 0.7049(3) 0.0497(3) 0.2810(2)
C19_3 C 0.6722(3) 0.0964(3) 0.3418(2)
C20_3 C 0.6479(4) 0.1833(3) 0.3327(2)
H10_3 H 0.6270 0.2151 0.3737
C21_3 C 0.6627(4) 0.0551(3) 0.4165(2)
C22_3 C 0.7576(4) 0.0411(3) 0.1482(3)
C24_3 C 0.9243(9) 0.1976(6) 0.3658(5)
C25_3 C 0.9872(16) 0.1365(12) 0.2604(11)
O10_3 O 0.5921(4) 0.7612(3) 0.4120(3)
H12_3 H 0.916792 0.106664 0.278676
H13_3 H 0.975995 0.165522 0.205909
H17_3 H 0.886758 0.259783 0.365179
H18_3 H 0.870673 0.148132 0.34904
H19_3 H 0.951738 0.184046 0.421728
H9_3 H 0.7221 0.9922 0.2866
H9_4 H 0.7779 0.0078 0.7866
C27_4 C 0.2485(11) 0.8126(10) 0.0036(8)
H27_4 H 0.245489 0.880452 0.0176868
H28_4 H 0.226995 0.77465 0.0519489
C1_4 C 0.5266(3) 0.4581(3) 0.9328(3)
C2_4 C 0.6343(3) 0.4375(3) 0.9127(3)
C3_4 C 0.6786(4) 0.3616(3) 0.9347(3)
H1_4 H 0.6427 0.3237 0.9648
C4_4 C 0.7746(4) 0.3419(3) 0.9127(3)
C5_4 C 0.8225(4) 0.2570(3) 0.9336(3)
C6_4 C 0.8304(4) 0.3992(3) 0.8680(3)
H2_4 H 0.8958 0.3854 0.8528
C7_4 C 0.7867(4) 0.4769(3) 0.8468(3)
C8_4 C 0.6893(4) 0.4946(3) 0.8683(3)
H3_4 H 0.6591 0.5455 0.8530
C9_4 C 0.8433(4) 0.5384(3) 0.7988(3)
C10_4 C 0.9132(5) 0.5111(3) 0.7471(4)
H4_4 H 0.9303 0.4533 0.7441
C11_4 C 0.9586(6) 0.5706(4) 0.6990(4)
C12_4 C 0.9368(5) 0.6545(4) 0.7037(3)
H6_4 H 0.9675 0.6927 0.6710
C13_4 C 0.8690(4) 0.6850(3) 0.7568(3)
C14_4 C 0.8234(4) 0.6263(3) 0.8042(3)
H7_4 H 0.7786 0.6458 0.8404
C15_4 C 0.8454(4) 0.7777(3) 0.7644(2)
C16_4 C 0.8145(4) 0.8254(3) 0.7038(3)
H8_4 H 0.8116 0.7998 0.6571
C17_4 C 0.7876(3) 0.9116(3) 0.7114(2)
C18_4 C 0.7951(3) 0.9503(3) 0.7810(2)
C19_4 C 0.8278(3) 0.9036(3) 0.8418(2)
C20_4 C 0.8521(4) 0.8167(3) 0.8327(2)
H10_4 H 0.8730 0.7849 0.8737
C21_4 C 0.8373(4) 0.9449(3) 0.9165(2)
C22_4 C 0.7424(4) 0.9589(3) 0.6482(3)
C23_4 C 0.4236(9) 0.7443(6) 0.8304(5)
C24_4 C 0.5757(9) 0.8024(6) 0.8658(5)
C25_4 C 0.5128(16) 0.8635(12) 0.7604(11)
C26_4 C 0.3364(13) 0.7381(11) 0.7767(9)
N1_4 N 0.4846(7) 0.8012(5) 0.8107(5)
O1_4 O 0.4912(3) 0.5268(2) 0.9119(3)
O2_4 O 0.4791(3) 0.4000(3) 0.9670(3)
O3_4 O 0.2218(5) 0.6576(5) 0.9424(4)
O4_4 O 0.4202(5) 0.6955(3) 0.8783(3)
O10_4 O 0.9079(4) 0.2388(3) 0.9120(3)
C28_4 C 0.1745(14) 0.7098(12) 0.9186(9)
C29_4 C 0.0958(18) 0.6917(13) 0.8610(12)
N2_4 N 0.1748(10) 0.7942(8) 0.9394(7)
C30_4 C 0.1144(16) 0.8681(12) 0.9244(9)
H11_4 H 0.453466 0.911906 0.756874
H12_4 H 0.583208 0.893336 0.778676
H13_4 H 0.524005 0.834478 0.705909
H14_4 H 0.163469 0.921399 0.909033
H15_4 H 0.0624743 0.854311 0.878819
H16_4 H 0.0711535 0.884997 0.973899
H17_4 H 0.613242 0.740217 0.865179
H18_4 H 0.629327 0.851868 0.84904
H19_4 H 0.548262 0.815954 0.921728
H20_4 H 0.0399681 0.647216 0.883446
H21_4 H 0.0583712 0.751248 0.845295
H22_4 H 0.131639 0.66343 0.812232
H23_4 H 0.365084 0.722409 0.721535
H24_4 H 0.284359 0.688162 0.795027
H25_4 H 0.29662 0.79924 0.774657
H26_4 H 0.325286 0.795749 0.986697
H5_3 H 0.9955 0.0517 0.8367
H5_4 H 0.0045 0.5517 0.6633
loop_
_geom_bond_atom_site_label_1
_geom_bond_atom_site_label_2
_geom_bond_site_symmetry_1
_geom_bond_site_symmetry_2
C1 C2 1_555 1_555
C2 C3 1_555 1_555
C3 H1 1_555 1_555
C4 C3 1_555 1_555
C5 C4 1_555 1_555
C6 C4 1_555 1_555
H2 C6 1_555 1_555
C7 C6 1_555 1_555
C8 C2 1_555 1_555
O9 C5 1_555 1_555
O10 C5 1_555 1_555
Zn5 O9 1_555 1_555
C7 C8 1_555 1_555
C10 C9 1_555 1_555
C11 C10 1_555 1_555
H5 C11 1_555 1_555
C12 C11 1_555 1_555
H6 C12 1_555 1_555
C13 C12 1_555 1_555
C14 C9 1_555 1_555
H7 C14 1_555 1_555
C15 C13 1_555 1_555
C16 C15 1_555 1_555
H8 C16 1_555 1_555
C17 C16 1_555 1_555
C18 C17 1_555 1_555
H9 C18 1_555 1_555
C19 C18 1_555 1_555
C20 C15 1_555 1_555
H10 C20 1_555 1_555
C21 C19 1_555 1_555
C22 C17 1_555 1_555
O5 C21 1_555 1_555
O6 C21 1_555 1_555
O7 C22 1_555 1_555
O8 C22 1_555 1_555
Zn3 O8 1_555 1_555
Zn5 O6 1_555 1_555
Zn6 O7 1_555 1_555
C13 C14 1_555 1_555
C19 C20 1_555 1_555
C25 H12 1_555 1_555
C25 H13 1_555 1_555
C24 H17 1_555 1_555
C24 H18 1_555 1_555
C24 H19 1_555 1_555
O12 Zn1 1_555 1_555
O15 Zn1 1_555 1_555
Zn2 O1 1_555 1_555
C23 C26 1_555 1_555
N1 C23 1_555 1_555
O3 Zn2 1_555 1_555
O4 Zn2 1_555 1_555
C28 O3 1_555 1_555
C29 C28 1_555 1_555
N2 C28 1_555 1_555
C30 N2 1_555 1_555
O13 Zn2 1_555 1_555
C23 O4 1_555 1_555
C30 H14 1_555 1_555
C30 H15 1_555 1_555
C30 H16 1_555 1_555
C29 H20 1_555 1_555
C29 H21 1_555 1_555
C29 H22 1_555 1_555
C26 H23 1_555 1_555
C26 H24 1_555 1_555
C26 H25 1_555 1_555
C27 H27 1_555 1_555
C27 H28 1_555 1_555
Zn2_2 O1_2 1_555 1_555
C10_2 C9_2 1_555 1_555
C11_2 C10_2 1_555 1_555
C12_2 C11_2 1_555 1_555
H6_2 C12_2 1_555 1_555
C13_2 C12_2 1_555 1_555
C14_2 C9_2 1_555 1_555
H7_2 C14_2 1_555 1_555
C15_2 C13_2 1_555 1_555
C16_2 C15_2 1_555 1_555
H8_2 C16_2 1_555 1_555
C17_2 C16_2 1_555 1_555
C18_2 C17_2 1_555 1_555
H9_2 C18_2 1_555 1_555
C19_2 C18_2 1_555 1_555
C20_2 C15_2 1_555 1_555
H10_2 C20_2 1_555 1_555
C21_2 C19_2 1_555 1_555
C22_2 C17_2 1_555 1_555
C23_2 C26_2 1_555 1_555
C24_2 N1_2 1_555 1_555
C25_2 N1_2 1_555 1_555
N1_2 C23_2 1_555 1_555
O3_2 Zn2_2 1_555 1_555
O4_2 Zn2_2 1_555 1_555
O5_2 C21_2 1_555 1_555
O6_2 C21_2 1_555 1_555
O7_2 C22_2 1_555 1_555
O8_2 C22_2 1_555 1_555
C27_2 N2_2 1_555 1_555
C28_2 O3_2 1_555 1_555
C29_2 C28_2 1_555 1_555
N2_2 C28_2 1_555 1_555
C30_2 N2_2 1_555 1_555
Zn3 O6_2 1_555 1_555
Zn7 O7_2 1_555 1_555
Zn6 O5_2 1_555 1_555
O11_2 Zn2_2 1_555 1_555
O13_2 Zn2_2 1_555 1_555
C13_2 C14_2 1_555 1_555
C19_2 C20_2 1_555 1_555
C23_2 O4_2 1_555 1_555
C25_2 H11_2 1_555 1_555
C25_2 H12_2 1_555 1_555
C25_2 H13_2 1_555 1_555
C30_2 H14_2 1_555 1_555
C30_2 H15_2 1_555 1_555
C30_2 H16_2 1_555 1_555
C24_2 H17_2 1_555 1_555
C24_2 H18_2 1_555 1_555
C24_2 H19_2 1_555 1_555
C29_2 H20_2 1_555 1_555
C29_2 H21_2 1_555 1_555
C29_2 H22_2 1_555 1_555
C26_2 H23_2 1_555 1_555
C26_2 H24_2 1_555 1_555
C26_2 H25_2 1_555 1_555
C27_2 H26_2 1_555 1_555
C27_2 H27_2 1_555 1_555
C27_2 H28_2 1_555 1_555
Zn1_2 O2_2 1_555 1_555
C1_2 C2_2 1_555 1_555
C2_2 C3_2 1_555 1_555
C3_2 H1_2 1_555 1_555
C4_2 C3_2 1_555 1_555
C5_2 C4_2 1_555 1_555
C6_2 C4_2 1_555 1_555
H2_2 C6_2 1_555 1_555
C7_2 C6_2 1_555 1_555
C8_2 C2_2 1_555 1_555
O2_2 C1_2 1_555 1_555
O9_2 C5_2 1_555 1_555
O10_2 C5_2 1_555 1_555
Zn3 O9_2 1_555 1_555
O12_2 Zn1_2 1_555 1_555
O14_2 Zn1_2 1_555 1_555
O15_2 Zn1_2 1_555 1_555
C7_2 C8_2 1_555 1_555
Zn3 O2_3 1_555 1_555
Zn6 O1_3 1_555 1_555
C23_3 C26_3 1_555 1_555
N1_3 C23_3 1_555 1_555
O3_3 Zn6 1_555 1_555
O4_3 Zn6 1_555 1_555
C27_3 N2_3 1_555 1_555
C28_3 O3_3 1_555 1_555
C29_3 C28_3 1_555 1_555
N2_3 C28_3 1_555 1_555
C30_3 N2_3 1_555 1_555
C23_3 O4_3 1_555 1_555
C30_3 H14_3 1_555 1_555
C30_3 H15_3 1_555 1_555
C30_3 H16_3 1_555 1_555
C29_3 H20_3 1_555 1_555
C29_3 H21_3 1_555 1_555
C29_3 H22_3 1_555 1_555
C26_3 H23_3 1_555 1_555
C26_3 H24_3 1_555 1_555
C26_3 H25_3 1_555 1_555
C27_3 H26_3 1_555 1_555
C27_3 H27_3 1_555 1_555
C27_3 H28_3 1_555 1_555
C1_3 C2_3 1_555 1_555
C2_3 C3_3 1_555 1_555
C3_3 H1_3 1_555 1_555
C4_3 C3_3 1_555 1_555
C5_3 C4_3 1_555 1_555
C6_3 C4_3 1_555 1_555
H2_3 C6_3 1_555 1_555
C7_3 C6_3 1_555 1_555
C8_3 C2_3 1_555 1_555
H3_3 C8_3 1_555 1_555
C9_3 C7_3 1_555 1_555
C10_3 C9_3 1_555 1_555
H4_3 C10_3 1_555 1_555
C11_3 C10_3 1_555 1_555
H5_2 C11_3 1_555 1_555
C12_3 C11_3 1_555 1_555
H6_3 C12_3 1_555 1_555
C13_3 C12_3 1_555 1_555
C14_3 C9_3 1_555 1_555
H7_3 C14_3 1_555 1_555
C15_3 C13_3 1_555 1_555
C16_3 C15_3 1_555 1_555
H8_3 C16_3 1_555 1_555
C17_3 C16_3 1_555 1_555
C18_3 C17_3 1_555 1_555
C19_3 C18_3 1_555 1_555
C20_3 C15_3 1_555 1_555
H10_3 C20_3 1_555 1_555
C21_3 C19_3 1_555 1_555
C22_3 C17_3 1_555 1_555
O11_2 C21_3 1_555 1_555
O14 C22_3 1_555 1_555
O15_2 C5_3 1_555 1_555
O10_3 C5_3 1_555 1_555
C7_3 C8_3 1_555 1_555
C13_3 C14_3 1_555 1_555
C19_3 C20_3 1_555 1_555
C25_3 H12_3 1_555 1_555
C25_3 H13_3 1_555 1_555
C24_3 H17_3 1_555 1_555
C24_3 H18_3 1_555 1_555
C24_3 H19_3 1_555 1_555
C27_4 H27_4 1_555 1_555
C27_4 H28_4 1_555 1_555
Zn7 O1_4 1_555 1_555
C1_4 C2_4 1_555 1_555
C2_4 C3_4 1_555 1_555
C3_4 H1_4 1_555 1_555
C4_4 C3_4 1_555 1_555
C5_4 C4_4 1_555 1_555
C6_4 C4_4 1_555 1_555
H2_4 C6_4 1_555 1_555
C7_4 C6_4 1_555 1_555
C8_4 C2_4 1_555 1_555
H3_4 C8_4 1_555 1_555
C9_4 C7_4 1_555 1_555
C10_4 C9_4 1_555 1_555
H4_4 C10_4 1_555 1_555
C11_4 C10_4 1_555 1_555
C12_4 C11_4 1_555 1_555
H6_4 C12_4 1_555 1_555
C13_4 C12_4 1_555 1_555
C14_4 C9_4 1_555 1_555
H7_4 C14_4 1_555 1_555
C15_4 C13_4 1_555 1_555
C16_4 C15_4 1_555 1_555
H8_4 C16_4 1_555 1_555
C17_4 C16_4 1_555 1_555
C18_4 C17_4 1_555 1_555
C19_4 C18_4 1_555 1_555
C20_4 C15_4 1_555 1_555
H10_4 C20_4 1_555 1_555
C21_4 C19_4 1_555 1_555
C22_4 C17_4 1_555 1_555
C23_4 C26_4 1_555 1_555
C24_4 N1_4 1_555 1_555
C25_4 N1_4 1_555 1_555
N1_4 C23_4 1_555 1_555
O1_4 C1_4 1_555 1_555
O2_4 C1_4 1_555 1_555
O3_4 Zn7 1_555 1_555
O4_4 Zn7 1_555 1_555
O11 C21_4 1_555 1_555
O14_2 C22_4 1_555 1_555
O15 C5_4 1_555 1_555
O10_4 C5_4 1_555 1_555
C28_4 O3_4 1_555 1_555
C29_4 C28_4 1_555 1_555
N2_4 C28_4 1_555 1_555
C30_4 N2_4 1_555 1_555
C7_4 C8_4 1_555 1_555
C13_4 C14_4 1_555 1_555
C19_4 C20_4 1_555 1_555
C23_4 O4_4 1_555 1_555
C25_4 H11_4 1_555 1_555
C25_4 H12_4 1_555 1_555
C25_4 H13_4 1_555 1_555
C30_4 H14_4 1_555 1_555
C30_4 H15_4 1_555 1_555
C30_4 H16_4 1_555 1_555
C24_4 H17_4 1_555 1_555
C24_4 H18_4 1_555 1_555
C24_4 H19_4 1_555 1_555
C29_4 H20_4 1_555 1_555
C29_4 H21_4 1_555 1_555
C29_4 H22_4 1_555 1_555
C26_4 H23_4 1_555 1_555
C26_4 H24_4 1_555 1_555
C26_4 H25_4 1_555 1_555

#END
