
###############################################################################
#
# This file contains modified crystal structure data generated from the
# MOF subset of the Cambridge Structural Database (CSD) v543 
# hosted by the Cambridge Crystallographic Data Centre (CCDC).
#
# This work is licensed under the Creative Commons
# Attribution-NonCommercial-ShareAlike 4.0 International License.
# To view a copy of this license, visit
# http://creativecommons.org/licenses/by-nc-sa/4.0/
# or send a letter to
# Creative Commons, PO Box 1866, Mountain View, CA 94042, USA.
#
# CIF created using the CSD Python API on 29 September 2022
# The structure has been converted into the P1 space group
# The structure has a 3D framework
# The original CSD entry SEVWEY is in the monoclinic crystal system
# The framework has been calculated to contain at least 10.0% void space
# The void calculation uses a probe of radius 1.32A, grid spacing 0.4
# H atom positions have been added when not included in the experimental data
#
###############################################################################

data_SEVWEY
_chemical_formula_moiety         '(C112 H104 Cd8 N8 O38)n'
_symmetry_cell_setting           triclinic
_symmetry_space_group_name_H-M   'P 1'
_symmetry_Int_Tables_number      1
_space_group_name_Hall           'P 1'
loop_
_symmetry_equiv_pos_site_id
_symmetry_equiv_pos_as_xyz
1 x,y,z
_cell_length_a                   10.1739(17)
_cell_length_b                   17.731(3)
_cell_length_c                   27.600(4)
_cell_angle_alpha                90
_cell_angle_beta                 96.073(3)
_cell_angle_gamma                90
_cell_volume                     4950.92
loop_
_atom_site_label
_atom_site_type_symbol
_atom_site_fract_x
_atom_site_fract_y
_atom_site_fract_z
H8 H 0.0544 0.6690 0.2443
C22 C 0.0001(5) 0.5573(3) 0.18312(17)
O2 O 0.0515(4) 0.7805(2) 0.29821(12)
O5 O 0.0920(4) 0.54141(19) 0.21510(14)
Cd5 Cd 0.05885(3) 0.887835(18) 0.347081(11)
Cd6 Cd 0.22487(3) 0.44682(2) 0.235318(12)
Cd3 Cd 0.05885(3) 0.612165(18) 0.847081(11)
C24 C 0.7628(4) 0.0472(2) 0.17319(13)
N1 N 0.7384(4) 0.0990(2) 0.13137(13)
C25 C 0.7371(4) 0.0377(2) 0.09540(13)
C26 C 0.7542(4) 0.1782(2) 0.11675(13)
O11 O 0.6035(6) 0.0234(4) 0.2814(4)
H11 H 0.6258 0.0480 0.3061
H12 H 0.6337 0.0422 0.2566
O14 O 0.9080(4) 0.04141(19) 0.28490(14)
H17 H 0.858547 0.193243 0.121511
H18 H 0.715929 0.185118 0.0786478
H19 H 0.699793 0.214728 0.139294
H20 H 0.869839 0.0472 0.17319
H22 H 0.719824 0.061112 0.0588027
H23 H 0.831908 0.00862584 0.0995968
C1 C 0.5335(6) 0.8420(4) 0.0749(2)
H1 H 0.4742 0.8796 0.0816
C2 C 0.6320(6) 0.8212(3) 0.11042(19)
H2 H 0.6392 0.8452 0.1406
C3 C 0.7214(5) 0.7643(3) 0.10148(17)
C4 C 0.7093(4) 0.7303(3) 0.05510(15)
H3 H 0.7701 0.6939 0.0480
C5 C 0.6081(5) 0.7504(3) 0.02007(16)
C6 C 0.5209(6) 0.8079(4) 0.0292(2)
H4 H 0.4553 0.8233 0.0052
C14 C 0.9960(4) 0.6861(3) 0.21844(17)
C15 C 0.9540(4) 0.6373(3) 0.18061(16)
C16 C 0.8658(5) 0.6646(3) 0.14241(15)
H9 H 0.8352 0.6321 0.1173
C17 C 0.8230(5) 0.7379(3) 0.14086(16)
C18 C 0.8705(4) 0.7846(2) 0.18014(13)
H10 H 0.8440 0.8348 0.1797
C19 C 0.9522(5) 0.7598(2) 0.21811(16)
C20 C 0.9917(4) 0.8087(3) 0.26128(16)
O1 O 0.9644(3) 0.87851(19) 0.25930(12)
O6 O 0.9415(4) 0.51194(18) 0.15297(12)
Cd2 Cd 0.77513(3) 0.94682(2) 0.264682(12)
C23 C 0.5283(4) 0.8485(2) 0.24871(13)
C27 C 0.5333(4) 0.7509(2) 0.19939(13)
C28 C 0.3267(4) 0.7700(2) 0.25801(13)
N2 N 0.4580(4) 0.7784(2) 0.23975(13)
O9 O 0.7568(6) 0.9845(3) 0.18643(15)
O10 O 0.6393(4) 0.8495(3) 0.24150(19)
Cd4 Cd 0.94115(3) 0.387835(18) 0.152919(11)
O17 O 0.7847(5) 0.9028(3) 0.34045(17)
H13 H 0.479963 0.898302 0.261632
H14 H 0.637435 0.745274 0.212765
H15 H 0.494622 0.696311 0.186659
H16 H 0.522558 0.791132 0.16942
H21 H 0.658606 0.997987 0.101175
H24 H 0.259821 0.813043 0.241573
H25 H 0.286848 0.714347 0.248385
H26 H 0.337098 0.776447 0.297468
C7 C 0.5923(4) 0.7106(3) 0.97212(15)
C8 C 0.7001(4) 0.6905(3) 0.94946(15)
H5 H 0.7844 0.7029 0.9635
C9 C 0.6838(4) 0.6507(3) 0.90455(16)
C10 C 0.5594(4) 0.6352(3) 0.88344(16)
H6 H 0.5483 0.6108 0.8535
C11 C 0.4503(4) 0.6553(3) 0.90599(15)
C12 C 0.4670(4) 0.6923(3) 0.95019(15)
H7 H 0.3931 0.7052 0.9656
C13 C 0.3108(5) 0.6370(3) 0.88330(18)
C21 C 0.8036(5) 0.6318(3) 0.87878(19)
O3 O 0.2170(3) 0.6523(2) 0.90718(13)
O4 O 0.2974(4) 0.6088(2) 0.84094(13)
O7 O 0.7847(5) 0.5972(3) 0.84045(17)
O8 O 0.9150(4) 0.6486(3) 0.89835(16)
O13 O 0.0515(4) 0.7195(2) 0.79821(12)
O15 O 0.0585(4) 0.48806(18) 0.84703(12)
Cd7 Cd 0.77513(3) 0.55318(2) 0.764682(12)
O12 O 0.9644(3) 0.62149(19) 0.75930(12)
O12_2 O 0.0356(3) 0.12149(19) 0.74070(12)
O16 O 0.2153(5) 0.0972(3) 0.65955(17)
O18 O 0.0850(4) 0.1486(3) 0.60165(16)
Cd1 Cd 0.94115(3) 0.112165(18) 0.652919(11)
C1_2 C 0.4665(6) 0.3420(4) 0.4251(2)
H1_2 H 0.5258 0.3796 0.4184
C2_2 C 0.3680(6) 0.3212(3) 0.38958(19)
H2_2 H 0.3608 0.3452 0.3594
C3_2 C 0.2786(5) 0.2643(3) 0.39852(17)
C4_2 C 0.2907(4) 0.2303(3) 0.44490(15)
H3_2 H 0.2299 0.1939 0.4520
C5_2 C 0.3919(5) 0.2504(3) 0.47993(16)
C6_2 C 0.4791(6) 0.3079(4) 0.4708(2)
H4_2 H 0.5447 0.3233 0.4948
C7_2 C 0.4077(4) 0.2106(3) 0.52788(15)
C8_2 C 0.2999(4) 0.1905(3) 0.55054(15)
H5_2 H 0.2156 0.2029 0.5365
C9_2 C 0.3162(4) 0.1507(3) 0.59545(16)
C10_2 C 0.4406(4) 0.1352(3) 0.61656(16)
H6_2 H 0.4517 0.1108 0.6465
C11_2 C 0.5497(4) 0.1553(3) 0.59401(15)
C12_2 C 0.5330(4) 0.1923(3) 0.54981(15)
H7_2 H 0.6069 0.2052 0.5344
C13_2 C 0.6892(5) 0.1370(3) 0.61670(18)
C14_2 C 0.0040(4) 0.1861(3) 0.28156(17)
C15_2 C 0.0460(4) 0.1373(3) 0.31939(16)
C16_2 C 0.1342(5) 0.1646(3) 0.35759(15)
H9_2 H 0.1648 0.1321 0.3827
C17_2 C 0.1770(5) 0.2379(3) 0.35914(16)
C18_2 C 0.1295(4) 0.2846(2) 0.31986(13)
H10_2 H 0.1560 0.3348 0.3203
C19_2 C 0.0478(5) 0.2598(2) 0.28189(16)
C20_2 C 0.0083(4) 0.3087(3) 0.23872(16)
C21_2 C 0.1964(5) 0.1318(3) 0.62122(19)
O1_2 O 0.0356(3) 0.37851(19) 0.24070(12)
O3_2 O 0.7830(3) 0.1523(2) 0.59282(13)
O4_2 O 0.7026(4) 0.1088(2) 0.65906(13)
O6_2 O 0.0585(4) 0.01194(18) 0.34703(12)
C23_2 C 0.4717(4) 0.3485(2) 0.25129(13)
C24_2 C 0.2372(4) 0.5472(2) 0.32681(13)
N1_2 N 0.2616(4) 0.5990(2) 0.36863(13)
C25_2 C 0.2629(4) 0.5377(2) 0.40460(13)
C26_2 C 0.2458(4) 0.6782(2) 0.38325(13)
C27_2 C 0.4667(4) 0.2509(2) 0.30061(13)
C28_2 C 0.6733(4) 0.2700(2) 0.24199(13)
N2_2 N 0.5420(4) 0.2784(2) 0.26025(13)
O9_2 O 0.2432(6) 0.4845(3) 0.31357(15)
O10_2 O 0.3607(4) 0.3495(3) 0.25850(19)
O11_2 O 0.3965(6) 0.5234(4) 0.2186(4)
H11_2 H 0.3742 0.5480 0.1939
H12_2 H 0.3663 0.5422 0.2434
O13_2 O 0.9485(4) 0.2195(2) 0.70179(12)
O17_2 O 0.2153(5) 0.4028(3) 0.15955(17)
Cd7_2 Cd 0.22487(3) 0.05318(2) 0.735318(12)
H13_2 H 0.520037 0.398302 0.238368
H14_2 H 0.362565 0.245274 0.287235
H15_2 H 0.505378 0.196311 0.313341
H16_2 H 0.477442 0.291132 0.33058
H17_2 H 0.141453 0.693243 0.378489
H18_2 H 0.284071 0.685118 0.421352
H19_2 H 0.300207 0.714728 0.360706
H20_2 H 0.130161 0.5472 0.32681
H21_2 H 0.341394 0.497987 0.398825
H22_2 H 0.280176 0.561112 0.441197
H23_2 H 0.168092 0.508626 0.400403
H24_2 H 0.740179 0.313043 0.258427
H25_2 H 0.713152 0.214347 0.251615
H26_2 H 0.662902 0.276447 0.202532
O15_2 O 0.9415(4) 0.98806(18) 0.65297(12)
H8_2 H 0.9456 0.1690 0.2557
C22_2 C 0.9999(5) 0.0573(3) 0.31688(17)
O2_2 O 0.9485(4) 0.2805(2) 0.20179(12)
O18_2 O 0.0850(4) 0.3514(3) 0.10165(16)
C7_3 C 0.4077(4) 0.2894(3) 0.02788(15)
C8_3 C 0.2999(4) 0.3095(3) 0.05054(15)
H5_3 H 0.2156 0.2971 0.0365
C9_3 C 0.3162(4) 0.3493(3) 0.09545(16)
C10_3 C 0.4406(4) 0.3648(3) 0.11656(16)
H6_3 H 0.4517 0.3892 0.1465
C11_3 C 0.5497(4) 0.3447(3) 0.09401(15)
C12_3 C 0.5330(4) 0.3077(3) 0.04981(15)
H7_3 H 0.6069 0.2948 0.0344
C13_3 C 0.6892(5) 0.3630(3) 0.11670(18)
C21_3 C 0.1964(5) 0.3682(3) 0.12122(19)
O3_3 O 0.7830(3) 0.3477(2) 0.09282(13)
O4_3 O 0.7026(4) 0.3912(2) 0.15906(13)
C1_3 C 0.4665(6) 0.1580(4) 0.9251(2)
H1_3 H 0.5258 0.1204 0.9184
C2_3 C 0.3680(6) 0.1788(3) 0.88958(19)
H2_3 H 0.3608 0.1548 0.8594
C3_3 C 0.2786(5) 0.2357(3) 0.89852(17)
C4_3 C 0.2907(4) 0.2697(3) 0.94490(15)
H3_3 H 0.2299 0.3061 0.9520
C5_3 C 0.3919(5) 0.2496(3) 0.97993(16)
C6_3 C 0.4791(6) 0.1921(4) 0.9708(2)
H4_3 H 0.5447 0.1767 0.9948
C14_3 C 0.0040(4) 0.3139(3) 0.78156(17)
C15_3 C 0.0460(4) 0.3627(3) 0.81939(16)
C16_3 C 0.1342(5) 0.3354(3) 0.85759(15)
H9_3 H 0.1648 0.3679 0.8827
C17_3 C 0.1770(5) 0.2621(3) 0.85914(16)
C18_3 C 0.1295(4) 0.2154(2) 0.81986(13)
H10_3 H 0.1560 0.1652 0.8203
C19_3 C 0.0478(5) 0.2402(2) 0.78189(16)
C20_3 C 0.0083(4) 0.1913(3) 0.73872(16)
C23_3 C 0.4717(4) 0.1515(2) 0.75129(13)
C27_3 C 0.4667(4) 0.2491(2) 0.80061(13)
C28_3 C 0.6733(4) 0.2300(2) 0.74199(13)
N2_3 N 0.5420(4) 0.2216(2) 0.76025(13)
O9_3 O 0.2432(6) 0.0155(3) 0.81357(15)
O10_3 O 0.3607(4) 0.1505(3) 0.75850(19)
H13_3 H 0.520037 0.101698 0.738368
H14_3 H 0.362565 0.254726 0.787235
H15_3 H 0.505378 0.303689 0.813341
H16_3 H 0.477442 0.208868 0.83058
H21_3 H 0.341394 0.00201347 0.898825
H24_3 H 0.740179 0.186957 0.758427
H25_3 H 0.713152 0.285653 0.751615
H26_3 H 0.662902 0.223553 0.702532
C24_3 C 0.2372(4) 0.9528(2) 0.82681(13)
N1_3 N 0.2616(4) 0.9010(2) 0.86863(13)
C25_3 C 0.2629(4) 0.9623(2) 0.90460(13)
C26_3 C 0.2458(4) 0.8218(2) 0.88325(13)
O11_3 O 0.3965(6) 0.9766(4) 0.7186(4)
H11_3 H 0.3742 0.9520 0.6939
H12_3 H 0.3663 0.9578 0.7434
O14_2 O 0.0920(4) 0.95859(19) 0.71510(14)
H17_3 H 0.141453 0.806757 0.878489
H18_3 H 0.284071 0.814882 0.921352
H19_3 H 0.300207 0.785272 0.860706
H20_3 H 0.130161 0.9528 0.82681
H22_3 H 0.280176 0.938888 0.941197
H23_3 H 0.168092 0.991374 0.900403
H8_3 H 0.9456 0.3310 0.7557
C22_3 C 0.9999(5) 0.4427(3) 0.81688(17)
O5_2 O 0.9080(4) 0.45859(19) 0.78490(14)
H8_4 H 0.0544 0.8310 0.7443
C22_4 C 0.0001(5) 0.9427(3) 0.68312(17)
C1_4 C 0.5335(6) 0.6580(4) 0.5749(2)
H1_4 H 0.4742 0.6204 0.5816
C2_4 C 0.6320(6) 0.6788(3) 0.61042(19)
H2_4 H 0.6392 0.6548 0.6406
C3_4 C 0.7214(5) 0.7357(3) 0.60148(17)
C4_4 C 0.7093(4) 0.7697(3) 0.55510(15)
H3_4 H 0.7701 0.8061 0.5480
C5_4 C 0.6081(5) 0.7496(3) 0.52007(16)
C6_4 C 0.5209(6) 0.6921(4) 0.5292(2)
H4_4 H 0.4553 0.6767 0.5052
C7_4 C 0.5923(4) 0.7894(3) 0.47212(15)
C8_4 C 0.7001(4) 0.8095(3) 0.44946(15)
H5_4 H 0.7844 0.7971 0.4635
C9_4 C 0.6838(4) 0.8493(3) 0.40455(16)
C10_4 C 0.5594(4) 0.8648(3) 0.38344(16)
H6_4 H 0.5483 0.8892 0.3535
C11_4 C 0.4503(4) 0.8447(3) 0.40599(15)
C12_4 C 0.4670(4) 0.8077(3) 0.45019(15)
H7_4 H 0.3931 0.7948 0.4656
C13_4 C 0.3108(5) 0.8630(3) 0.38330(18)
C14_4 C 0.9960(4) 0.8139(3) 0.71844(17)
C15_4 C 0.9540(4) 0.8627(3) 0.68061(16)
C16_4 C 0.8658(5) 0.8354(3) 0.64241(15)
H9_4 H 0.8352 0.8679 0.6173
C17_4 C 0.8230(5) 0.7621(3) 0.64086(16)
C18_4 C 0.8705(4) 0.7154(2) 0.68014(13)
H10_4 H 0.8440 0.6652 0.6797
C19_4 C 0.9522(5) 0.7402(2) 0.71811(16)
C20_4 C 0.9917(4) 0.6913(3) 0.76128(16)
C21_4 C 0.8036(5) 0.8682(3) 0.37878(19)
O3_4 O 0.2170(3) 0.8477(2) 0.40718(13)
O4_4 O 0.2974(4) 0.8912(2) 0.34094(13)
O8_2 O 0.9150(4) 0.8514(3) 0.39835(16)
C23_4 C 0.5283(4) 0.6515(2) 0.74871(13)
C24_4 C 0.7628(4) 0.4528(2) 0.67319(13)
N1_4 N 0.7384(4) 0.4010(2) 0.63137(13)
C25_4 C 0.7371(4) 0.4623(2) 0.59540(13)
C26_4 C 0.7542(4) 0.3218(2) 0.61675(13)
C27_4 C 0.5333(4) 0.7491(2) 0.69939(13)
C28_4 C 0.3267(4) 0.7300(2) 0.75801(13)
N2_4 N 0.4580(4) 0.7216(2) 0.73975(13)
O9_4 O 0.7568(6) 0.5155(3) 0.68643(15)
O10_4 O 0.6393(4) 0.6505(3) 0.74150(19)
O11_4 O 0.6035(6) 0.4766(4) 0.7814(4)
H11_4 H 0.6258 0.4520 0.8061
H12_4 H 0.6337 0.4578 0.7566
H13_4 H 0.479963 0.601698 0.761632
H14_4 H 0.637435 0.754726 0.712765
H15_4 H 0.494622 0.803689 0.686659
H16_4 H 0.522558 0.708868 0.66942
H17_4 H 0.858547 0.306757 0.621511
H18_4 H 0.715929 0.314882 0.578648
H19_4 H 0.699793 0.285272 0.639294
H20_4 H 0.869839 0.4528 0.67319
H21_4 H 0.658606 0.502013 0.601175
H22_4 H 0.719824 0.438888 0.558803
H23_4 H 0.831908 0.491374 0.599597
H24_4 H 0.259821 0.686957 0.741573
H25_4 H 0.286848 0.785653 0.748385
H26_4 H 0.337098 0.723553 0.797468
loop_
_geom_bond_atom_site_label_1
_geom_bond_atom_site_label_2
_geom_bond_site_symmetry_1
_geom_bond_site_symmetry_2
O5 C22 1_555 1_555
Cd6 O5 1_555 1_555
O2 Cd5 1_555 1_555
C24 N1 1_555 1_555
N1 C25 1_555 1_555
C26 N1 1_555 1_555
H11 O11 1_555 1_555
H12 O11 1_555 1_555
C26 H17 1_555 1_555
C26 H18 1_555 1_555
C26 H19 1_555 1_555
C24 H20 1_555 1_555
C25 H22 1_555 1_555
C25 H23 1_555 1_555
C1 H1 1_555 1_555
C2 C1 1_555 1_555
H2 C2 1_555 1_555
C3 C2 1_555 1_555
C4 C3 1_555 1_555
H3 C4 1_555 1_555
C5 C4 1_555 1_555
C6 C1 1_555 1_555
H4 C6 1_555 1_555
C15 C14 1_555 1_555
C16 C15 1_555 1_555
H9 C16 1_555 1_555
C17 C3 1_555 1_555
C18 C17 1_555 1_555
H10 C18 1_555 1_555
C19 C14 1_555 1_555
C20 C19 1_555 1_555
O1 C20 1_555 1_555
Cd2 O1 1_555 1_555
C23 N2 1_555 1_555
C27 N2 1_555 1_555
C28 N2 1_555 1_555
O9 Cd2 1_555 1_555
O10 Cd2 1_555 1_555
Cd4 O6 1_555 1_555
O17 Cd2 1_555 1_555
C5 C6 1_555 1_555
C16 C17 1_555 1_555
C18 C19 1_555 1_555
C23 O10 1_555 1_555
C23 H13 1_555 1_555
C27 H14 1_555 1_555
C27 H15 1_555 1_555
C27 H16 1_555 1_555
C28 H24 1_555 1_555
C28 H25 1_555 1_555
C28 H26 1_555 1_555
Cd3 O3 1_555 1_555
C8 C7 1_555 1_555
H5 C8 1_555 1_555
C9 C8 1_555 1_555
C10 C9 1_555 1_555
H6 C10 1_555 1_555
C11 C10 1_555 1_555
C12 C7 1_555 1_555
H7 C12 1_555 1_555
C13 C11 1_555 1_555
C21 C9 1_555 1_555
O3 C13 1_555 1_555
O4 Cd3 1_555 1_555
O7 C21 1_555 1_555
O8 C21 1_555 1_555
O13 Cd3 1_555 1_555
O15 Cd3 1_555 1_555
Cd7 O7 1_555 1_555
C11 C12 1_555 1_555
C13 O4 1_555 1_555
Cd1 O3_2 1_555 1_555
C1_2 H1_2 1_555 1_555
C2_2 C1_2 1_555 1_555
H2_2 C2_2 1_555 1_555
C3_2 C2_2 1_555 1_555
C4_2 C3_2 1_555 1_555
H3_2 C4_2 1_555 1_555
C5_2 C4_2 1_555 1_555
C6_2 C1_2 1_555 1_555
H4_2 C6_2 1_555 1_555
C7_2 C5_2 1_555 1_555
C8_2 C7_2 1_555 1_555
H5_2 C8_2 1_555 1_555
C9_2 C8_2 1_555 1_555
C10_2 C9_2 1_555 1_555
H6_2 C10_2 1_555 1_555
C11_2 C10_2 1_555 1_555
C12_2 C7_2 1_555 1_555
H7_2 C12_2 1_555 1_555
C13_2 C11_2 1_555 1_555
C15_2 C14_2 1_555 1_555
C16_2 C15_2 1_555 1_555
H9_2 C16_2 1_555 1_555
C17_2 C3_2 1_555 1_555
C18_2 C17_2 1_555 1_555
H10_2 C18_2 1_555 1_555
C19_2 C14_2 1_555 1_555
C20_2 C19_2 1_555 1_555
C21_2 C9_2 1_555 1_555
O1_2 C20_2 1_555 1_555
O3_2 C13_2 1_555 1_555
O4_2 Cd1 1_555 1_555
O16 C21_2 1_555 1_555
O18 C21_2 1_555 1_555
Cd6 O1_2 1_555 1_555
C23_2 N2_2 1_555 1_555
C24_2 N1_2 1_555 1_555
N1_2 C25_2 1_555 1_555
C26_2 N1_2 1_555 1_555
C27_2 N2_2 1_555 1_555
C28_2 N2_2 1_555 1_555
O9_2 Cd6 1_555 1_555
O10_2 Cd6 1_555 1_555
O11_2 Cd6 1_555 1_555
H11_2 O11_2 1_555 1_555
H12_2 O11_2 1_555 1_555
O13_2 Cd1 1_555 1_555
O17_2 Cd6 1_555 1_555
Cd7_2 O16 1_555 1_555
C5_2 C6_2 1_555 1_555
C11_2 C12_2 1_555 1_555
C13_2 O4_2 1_555 1_555
C16_2 C17_2 1_555 1_555
C18_2 C19_2 1_555 1_555
C23_2 O10_2 1_555 1_555
C24_2 O9_2 1_555 1_555
C23_2 H13_2 1_555 1_555
C27_2 H14_2 1_555 1_555
C27_2 H15_2 1_555 1_555
C27_2 H16_2 1_555 1_555
C26_2 H17_2 1_555 1_555
C26_2 H18_2 1_555 1_555
C26_2 H19_2 1_555 1_555
C24_2 H20_2 1_555 1_555
C25_2 H21_2 1_555 1_555
C25_2 H22_2 1_555 1_555
C25_2 H23_2 1_555 1_555
C28_2 H24_2 1_555 1_555
C28_2 H25_2 1_555 1_555
C28_2 H26_2 1_555 1_555
O14 C22_2 1_555 1_555
O2_2 Cd4 1_555 1_555
Cd4 O3_3 1_555 1_555
C8_3 C7_3 1_555 1_555
H5_3 C8_3 1_555 1_555
C9_3 C8_3 1_555 1_555
C10_3 C9_3 1_555 1_555
H6_3 C10_3 1_555 1_555
C11_3 C10_3 1_555 1_555
C12_3 C7_3 1_555 1_555
H7_3 C12_3 1_555 1_555
C13_3 C11_3 1_555 1_555
C21_3 C9_3 1_555 1_555
O3_3 C13_3 1_555 1_555
O4_3 Cd4 1_555 1_555
O17_2 C21_3 1_555 1_555
O18_2 C21_3 1_555 1_555
C11_3 C12_3 1_555 1_555
C13_3 O4_3 1_555 1_555
C1_3 H1_3 1_555 1_555
C2_3 C1_3 1_555 1_555
H2_3 C2_3 1_555 1_555
C3_3 C2_3 1_555 1_555
C4_3 C3_3 1_555 1_555
H3_3 C4_3 1_555 1_555
C5_3 C4_3 1_555 1_555
C6_3 C1_3 1_555 1_555
H4_3 C6_3 1_555 1_555
C15_3 C14_3 1_555 1_555
C16_3 C15_3 1_555 1_555
H9_3 C16_3 1_555 1_555
C17_3 C3_3 1_555 1_555
C18_3 C17_3 1_555 1_555
H10_3 C18_3 1_555 1_555
C19_3 C14_3 1_555 1_555
C20_3 C19_3 1_555 1_555
O12_2 C20_3 1_555 1_555
Cd7_2 O12_2 1_555 1_555
C23_3 N2_3 1_555 1_555
C27_3 N2_3 1_555 1_555
C28_3 N2_3 1_555 1_555
O9_3 Cd7_2 1_555 1_555
O10_3 Cd7_2 1_555 1_555
C5_3 C6_3 1_555 1_555
C16_3 C17_3 1_555 1_555
C18_3 C19_3 1_555 1_555
C23_3 O10_3 1_555 1_555
C23_3 H13_3 1_555 1_555
C27_3 H14_3 1_555 1_555
C27_3 H15_3 1_555 1_555
C27_3 H16_3 1_555 1_555
C28_3 H24_3 1_555 1_555
C28_3 H25_3 1_555 1_555
C28_3 H26_3 1_555 1_555
C24_3 N1_3 1_555 1_555
N1_3 C25_3 1_555 1_555
C26_3 N1_3 1_555 1_555
H11_3 O11_3 1_555 1_555
H12_3 O11_3 1_555 1_555
C26_3 H17_3 1_555 1_555
C26_3 H18_3 1_555 1_555
C26_3 H19_3 1_555 1_555
C24_3 H20_3 1_555 1_555
C25_3 H22_3 1_555 1_555
C25_3 H23_3 1_555 1_555
O5_2 C22_3 1_555 1_555
Cd7 O5_2 1_555 1_555
O14_2 C22_4 1_555 1_555
Cd5 O3_4 1_555 1_555
C1_4 H1_4 1_555 1_555
C2_4 C1_4 1_555 1_555
H2_4 C2_4 1_555 1_555
C3_4 C2_4 1_555 1_555
C4_4 C3_4 1_555 1_555
H3_4 C4_4 1_555 1_555
C5_4 C4_4 1_555 1_555
C6_4 C1_4 1_555 1_555
H4_4 C6_4 1_555 1_555
C7_4 C5_4 1_555 1_555
C8_4 C7_4 1_555 1_555
H5_4 C8_4 1_555 1_555
C9_4 C8_4 1_555 1_555
C10_4 C9_4 1_555 1_555
H6_4 C10_4 1_555 1_555
C11_4 C10_4 1_555 1_555
C12_4 C7_4 1_555 1_555
H7_4 C12_4 1_555 1_555
C13_4 C11_4 1_555 1_555
C15_4 C14_4 1_555 1_555
C16_4 C15_4 1_555 1_555
H9_4 C16_4 1_555 1_555
C17_4 C3_4 1_555 1_555
C18_4 C17_4 1_555 1_555
H10_4 C18_4 1_555 1_555
C19_4 C14_4 1_555 1_555
C20_4 C19_4 1_555 1_555
C21_4 C9_4 1_555 1_555
O12 C20_4 1_555 1_555
O3_4 C13_4 1_555 1_555
O4_4 Cd5 1_555 1_555
O17 C21_4 1_555 1_555
O8_2 C21_4 1_555 1_555
Cd7 O12 1_555 1_555
C23_4 N2_4 1_555 1_555
C24_4 N1_4 1_555 1_555
N1_4 C25_4 1_555 1_555
C26_4 N1_4 1_555 1_555
C27_4 N2_4 1_555 1_555
C28_4 N2_4 1_555 1_555
O9_4 Cd7 1_555 1_555
O10_4 Cd7 1_555 1_555
O11_4 Cd7 1_555 1_555
H11_4 O11_4 1_555 1_555
H12_4 O11_4 1_555 1_555
C5_4 C6_4 1_555 1_555
C11_4 C12_4 1_555 1_555
C13_4 O4_4 1_555 1_555
C16_4 C17_4 1_555 1_555
C18_4 C19_4 1_555 1_555
C23_4 O10_4 1_555 1_555
C24_4 O9_4 1_555 1_555
C23_4 H13_4 1_555 1_555
C27_4 H14_4 1_555 1_555
C27_4 H15_4 1_555 1_555
C27_4 H16_4 1_555 1_555
C26_4 H17_4 1_555 1_555
C26_4 H18_4 1_555 1_555
C26_4 H19_4 1_555 1_555
C24_4 H20_4 1_555 1_555
C25_4 H21_4 1_555 1_555
C25_4 H22_4 1_555 1_555
C25_4 H23_4 1_555 1_555
C28_4 H24_4 1_555 1_555
C28_4 H25_4 1_555 1_555
C28_4 H26_4 1_555 1_555

#END
