
###############################################################################
#
# This file contains modified crystal structure data generated from the
# MOF subset of the Cambridge Structural Database (CSD) v543 
# hosted by the Cambridge Crystallographic Data Centre (CCDC).
#
# This work is licensed under the Creative Commons
# Attribution-NonCommercial-ShareAlike 4.0 International License.
# To view a copy of this license, visit
# http://creativecommons.org/licenses/by-nc-sa/4.0/
# or send a letter to
# Creative Commons, PO Box 1866, Mountain View, CA 94042, USA.
#
# CIF created using the CSD Python API on 29 September 2022
# The structure has been converted into the P1 space group
# The structure has a 3D framework
# The original CSD entry SEYDUW is in the orthorhombic crystal system
# The original CSD entry SEYDUW is in a Sohncke space group
# The framework has been calculated to contain at least 10.0% void space
# The void calculation uses a probe of radius 1.32A, grid spacing 0.4
# H atom positions have been added when not included in the experimental data
#
###############################################################################

data_SEYDUW
_chemical_formula_moiety         '(C20 H44 N4 O35 P4 Y4)n'
_symmetry_cell_setting           triclinic
_symmetry_space_group_name_H-M   'P 1'
_symmetry_Int_Tables_number      1
_space_group_name_Hall           'P 1'
loop_
_symmetry_equiv_pos_site_id
_symmetry_equiv_pos_as_xyz
1 x,y,z
_cell_length_a                   9.0223(8)
_cell_length_b                   8.9108(7)
_cell_length_c                   15.6837(13)
_cell_angle_alpha                90
_cell_angle_beta                 90
_cell_angle_gamma                90
_cell_volume                     1260.91
loop_
_atom_site_label
_atom_site_type_symbol
_atom_site_fract_x
_atom_site_fract_y
_atom_site_fract_z
Y3 Y 0.03133(4) 0.10927(5) 0.89609(2)
O8 O 0.0604(4) 0.4062(5) 0.5203(2)
O9 O 0.2340(3) 0.6512(4) 0.6107(2)
O10 O 0.0316(3) 0.7080(4) 0.47071(17)
O11 O 0.0510(3) 0.5351(4) 0.73265(17)
H9 H 0.150735 0.438757 0.48922
H10 H 0.276256 0.59384 0.659236
H11 H 0.280603 0.617065 0.55672
O5 O 0.7510(4) 0.0168(4) 0.6537(2)
H7 H 0.7308 0.0961 0.6776
O6 O 0.9490(3) 0.0351(4) 0.76735(17)
Y1 Y 0.96867(4) 0.60927(5) 0.60391(2)
P1 P 0.87249(13) 0.93201(14) 0.70601(8)
N1 N 0.7430(3) 0.6579(4) 0.7102(2)
C1 C 0.7868(5) 0.7838(5) 0.7677(3)
H1 H 0.8559 0.7476 0.8104
H2 H 0.7000 0.8225 0.7968
C2 C 0.6075(5) 0.6931(6) 0.6610(3)
H3 H 0.5593 0.7788 0.6872
H4 H 0.5401 0.6086 0.6654
C3 C 0.6313(4) 0.7267(5) 0.5695(3)
C4 C 0.7211(5) 0.5192(5) 0.7577(3)
H5 H 0.6235 0.5193 0.7837
H6 H 0.7943 0.5119 0.8028
C5 C 0.7356(5) 0.3850(6) 0.6978(3)
O1 O 0.7551(3) 0.6863(4) 0.53479(19)
O2 O 0.5316(3) 0.7920(4) 0.52929(17)
O3 O 0.6835(4) 0.2606(4) 0.7236(2)
O4 O 0.8121(3) 0.4008(4) 0.62982(19)
O7 O 0.9743(3) 0.8542(3) 0.64469(17)
Y2 Y 0.46867(4) 0.89073(5) 0.39609(2)
H8 H 0.983492 0.374747 0.478683
Y1_2 Y 0.53133(4) 0.39073(5) 0.10391(2)
P1_2 P 0.62751(13) 0.06799(14) 0.20601(8)
N1_2 N 0.7570(3) 0.3421(4) 0.2102(2)
C1_2 C 0.7132(5) 0.2162(5) 0.2677(3)
H1_2 H 0.6441 0.2524 0.3104
H2_2 H 0.8000 0.1775 0.2968
C2_2 C 0.8925(5) 0.3069(6) 0.1610(3)
H3_2 H 0.9407 0.2212 0.1872
H4_2 H 0.9599 0.3914 0.1654
C3_2 C 0.8687(4) 0.2733(5) 0.0695(3)
C4_2 C 0.7789(5) 0.4808(5) 0.2577(3)
H5_2 H 0.8765 0.4807 0.2837
H6_2 H 0.7057 0.4881 0.3028
C5_2 C 0.7644(5) 0.6150(6) 0.1978(3)
O1_2 O 0.7449(3) 0.3137(4) 0.03479(19)
O2_2 O 0.9684(3) 0.2080(4) 0.02929(17)
O3_2 O 0.8165(4) 0.7394(4) 0.2236(2)
O4_2 O 0.6879(3) 0.5992(4) 0.12982(19)
O7_2 O 0.5257(3) 0.1458(3) 0.14469(17)
O8_2 O 0.4396(4) 0.5938(5) 0.0203(2)
O9_2 O 0.2660(3) 0.3488(4) 0.1107(2)
O11_2 O 0.4490(3) 0.4649(4) 0.23265(17)
H10_2 H 0.223744 0.40616 0.159236
H11_2 H 0.219397 0.382935 0.0567201
O10_2 O 0.4684(3) 0.2920(4) 0.97071(17)
H8_2 H 0.516508 0.625253 0.978683
H9_2 H 0.349265 0.561243 0.98922
O5_2 O 0.7490(4) 0.9832(4) 0.1537(2)
H7_2 H 0.7692 0.9039 0.1776
O6_2 O 0.5510(3) 0.9649(4) 0.26735(17)
P1_3 P 0.12751(13) 0.43201(14) 0.79399(8)
N1_3 N 0.2570(3) 0.1579(4) 0.7898(2)
C1_3 C 0.2132(5) 0.2838(5) 0.7323(3)
H1_3 H 0.1441 0.2476 0.6896
H2_3 H 0.3000 0.3225 0.7032
C2_3 C 0.3925(5) 0.1931(6) 0.8390(3)
H3_3 H 0.4407 0.2788 0.8128
H4_3 H 0.4599 0.1086 0.8346
C3_3 C 0.3687(4) 0.2267(5) 0.9305(3)
C4_3 C 0.2789(5) 0.0192(5) 0.7423(3)
H5_3 H 0.3765 0.0193 0.7163
H6_3 H 0.2057 0.0119 0.6972
O1_3 O 0.2449(3) 0.1863(4) 0.96521(19)
O5_3 O 0.2490(4) 0.5168(4) 0.8463(2)
H7_3 H 0.2692 0.5961 0.8224
O7_3 O 0.0257(3) 0.3542(3) 0.85531(17)
O9_3 O 0.7660(3) 0.1512(4) 0.8893(2)
H10_3 H 0.723744 0.0938397 0.840764
H11_3 H 0.719397 0.117065 0.94328
P1_4 P 0.37249(13) 0.56799(14) 0.29399(8)
N1_4 N 0.2430(3) 0.8421(4) 0.2898(2)
C1_4 C 0.2868(5) 0.7162(5) 0.2323(3)
H1_4 H 0.3559 0.7524 0.1896
H2_4 H 0.2000 0.6775 0.2032
C2_4 C 0.1075(5) 0.8069(6) 0.3390(3)
H3_4 H 0.0593 0.7212 0.3128
H4_4 H 0.0401 0.8914 0.3346
C3_4 C 0.1313(4) 0.7733(5) 0.4305(3)
C4_4 C 0.2211(5) 0.9808(5) 0.2423(3)
H5_4 H 0.1235 0.9807 0.2163
H6_4 H 0.2943 0.9881 0.1972
O1_4 O 0.2551(3) 0.8137(4) 0.46521(19)
O5_4 O 0.2510(4) 0.4832(4) 0.3463(2)
H7_4 H 0.2308 0.4039 0.3224
O7_4 O 0.4743(3) 0.6458(3) 0.35531(17)
O9_4 O 0.7340(3) 0.8488(4) 0.3893(2)
H10_4 H 0.776256 0.90616 0.340764
H11_4 H 0.780603 0.882935 0.44328
H8_3 H 0.0165077 0.874747 0.0213167
C5_3 C 0.2644(5) 0.8850(6) 0.8022(3)
O3_3 O 0.3165(4) 0.7606(4) 0.7764(2)
O4_3 O 0.1879(3) 0.9008(4) 0.87018(19)
H9_3 H 0.849265 0.938757 0.0107802
O8_3 O 0.9396(4) 0.9062(5) 0.9797(2)
C5_4 C 0.2356(5) 0.1150(6) 0.3022(3)
O3_4 O 0.1835(4) 0.2394(4) 0.2764(2)
O4_4 O 0.3121(3) 0.0992(4) 0.37018(19)
O8_4 O 0.5604(4) 0.0938(5) 0.4797(2)
H8_4 H 0.483492 0.125253 0.521317
H9_4 H 0.650735 0.0612432 0.51078
loop_
_geom_bond_atom_site_label_1
_geom_bond_atom_site_label_2
_geom_bond_site_symmetry_1
_geom_bond_site_symmetry_2
O8 H9 1_555 1_555
O9 H10 1_555 1_555
O9 H11 1_555 1_555
H7 O5 1_555 1_555
Y1 N1 1_555 1_555
P1 C1 1_555 1_555
N1 C1 1_555 1_555
C1 H1 1_555 1_555
H2 C1 1_555 1_555
C2 N1 1_555 1_555
H3 C2 1_555 1_555
H4 C2 1_555 1_555
C3 C2 1_555 1_555
C4 N1 1_555 1_555
H5 C4 1_555 1_555
H6 C4 1_555 1_555
C5 C4 1_555 1_555
O1 Y1 1_555 1_555
O2 C3 1_555 1_555
O3 C5 1_555 1_555
O4 Y1 1_555 1_555
O7 Y1 1_555 1_555
Y2 O2 1_555 1_555
P1 O7 1_555 1_555
C3 O1 1_555 1_555
C5 O4 1_555 1_555
Y1_2 N1_2 1_555 1_555
P1_2 C1_2 1_555 1_555
N1_2 C1_2 1_555 1_555
C1_2 H1_2 1_555 1_555
H2_2 C1_2 1_555 1_555
C2_2 N1_2 1_555 1_555
H3_2 C2_2 1_555 1_555
H4_2 C2_2 1_555 1_555
C3_2 C2_2 1_555 1_555
C4_2 N1_2 1_555 1_555
H5_2 C4_2 1_555 1_555
H6_2 C4_2 1_555 1_555
C5_2 C4_2 1_555 1_555
O1_2 Y1_2 1_555 1_555
O2_2 C3_2 1_555 1_555
O3_2 C5_2 1_555 1_555
O4_2 Y1_2 1_555 1_555
O7_2 Y1_2 1_555 1_555
O8_2 Y1_2 1_555 1_555
O9_2 Y1_2 1_555 1_555
O11_2 Y1_2 1_555 1_555
P1_2 O7_2 1_555 1_555
C3_2 O1_2 1_555 1_555
C5_2 O4_2 1_555 1_555
O9_2 H10_2 1_555 1_555
O9_2 H11_2 1_555 1_555
H7_2 O5_2 1_555 1_555
Y2 O6_2 1_555 1_555
Y3 N1_3 1_555 1_555
P1_3 C1_3 1_555 1_555
N1_3 C1_3 1_555 1_555
C1_3 H1_3 1_555 1_555
H2_3 C1_3 1_555 1_555
C2_3 N1_3 1_555 1_555
H3_3 C2_3 1_555 1_555
H4_3 C2_3 1_555 1_555
C3_3 C2_3 1_555 1_555
C4_3 N1_3 1_555 1_555
H5_3 C4_3 1_555 1_555
H6_3 C4_3 1_555 1_555
O1_3 Y3 1_555 1_555
O10_2 C3_3 1_555 1_555
O5_3 P1_3 1_555 1_555
H7_3 O5_3 1_555 1_555
O11 P1_3 1_555 1_555
O7_3 Y3 1_555 1_555
P1_3 O7_3 1_555 1_555
C3_3 O1_3 1_555 1_555
O9_3 H10_3 1_555 1_555
O9_3 H11_3 1_555 1_555
Y2 N1_4 1_555 1_555
P1_4 C1_4 1_555 1_555
N1_4 C1_4 1_555 1_555
C1_4 H1_4 1_555 1_555
H2_4 C1_4 1_555 1_555
C2_4 N1_4 1_555 1_555
H3_4 C2_4 1_555 1_555
H4_4 C2_4 1_555 1_555
C3_4 C2_4 1_555 1_555
C4_4 N1_4 1_555 1_555
H5_4 C4_4 1_555 1_555
H6_4 C4_4 1_555 1_555
O1_4 Y2 1_555 1_555
O10 C3_4 1_555 1_555
O5_4 P1_4 1_555 1_555
H7_4 O5_4 1_555 1_555
O11_2 P1_4 1_555 1_555
O7_4 Y2 1_555 1_555
O9_4 Y2 1_555 1_555
P1_4 O7_4 1_555 1_555
C3_4 O1_4 1_555 1_555
O9_4 H10_4 1_555 1_555
O9_4 H11_4 1_555 1_555
O3_3 C5_3 1_555 1_555
C5_3 O4_3 1_555 1_555
O3_4 C5_4 1_555 1_555
C5_4 O4_4 1_555 1_555
O8_4 H8_4 1_555 1_555
O8_4 H9_4 1_555 1_555

#END
