
###############################################################################
#
# This file contains modified crystal structure data generated from the
# MOF subset of the Cambridge Structural Database (CSD) v543 
# hosted by the Cambridge Crystallographic Data Centre (CCDC).
#
# This work is licensed under the Creative Commons
# Attribution-NonCommercial-ShareAlike 4.0 International License.
# To view a copy of this license, visit
# http://creativecommons.org/licenses/by-nc-sa/4.0/
# or send a letter to
# Creative Commons, PO Box 1866, Mountain View, CA 94042, USA.
#
# CIF created using the CSD Python API on 29 September 2022
# The structure has been converted into the P1 space group
# The structure has a 3D framework
# The original CSD entry SEZZEF is in the orthorhombic crystal system
# The original CSD entry SEZZEF is in a Sohncke space group
# The framework has been calculated to contain at least 10.0% void space
# The void calculation uses a probe of radius 1.32A, grid spacing 0.4
# H atom positions have been added when not included in the experimental data
#
###############################################################################

data_SEZZEF
_chemical_formula_moiety         '(C100 H60 N12 O32 Zn8)n'
_symmetry_cell_setting           triclinic
_symmetry_space_group_name_H-M   'P 1'
_symmetry_Int_Tables_number      1
_space_group_name_Hall           'P 1'
loop_
_symmetry_equiv_pos_site_id
_symmetry_equiv_pos_as_xyz
1 x,y,z
_cell_length_a                   9.4101(3)
_cell_length_b                   13.8325(5)
_cell_length_c                   24.2383(10)
_cell_angle_alpha                90
_cell_angle_beta                 90
_cell_angle_gamma                90
_cell_volume                     3154.98
loop_
_atom_site_label
_atom_site_type_symbol
_atom_site_fract_x
_atom_site_fract_y
_atom_site_fract_z
O1 O 0.6806(3) 0.2015(2) 0.43976(12)
O3 O 0.8946(4) 0.1664(2) 0.40534(14)
C2 C 0.7901(5) 0.1498(3) 0.43635(17)
C4 C 0.7933(5) 0.0584(3) 0.46938(17)
C8 C 0.7042(5) 0.0454(3) 0.51301(17)
H1 H 0.6434 0.0952 0.5233
Zn3 Zn 0.60719(5) 0.29304(4) 0.38373(2)
Zn7 Zn 0.96322(5) 0.28807(4) 0.37155(2)
Zn2 Zn 0.53678(5) 0.71193(4) 0.87155(2)
O2 O 0.8978(4) 0.3945(2) 0.42258(13)
O4 O 0.6717(4) 0.4232(2) 0.40042(14)
O5 O 0.8436(4) 0.7576(3) 0.81123(13)
N1 N 0.1629(4) 0.2685(3) 0.39673(15)
O6 O 0.1688(5) 0.4112(4) 0.3225(2)
O7 O 0.6312(6) 0.6873(3) 0.80205(13)
O8 O 0.3995(5) 0.4126(3) 0.32280(19)
N2 N 0.4021(4) 0.2733(3) 0.40175(15)
C1 C 0.2849(5) 0.3811(3) 0.33846(18)
N3 N 0.7815(5) 0.7918(3) 0.55156(14)
C3 C 0.7881(5) 0.4446(3) 0.42394(17)
C5 C 0.7370(6) 0.7323(3) 0.78320(17)
C6 C 0.7641(6) 0.7825(3) 0.60899(16)
C7 C 0.7840(5) 0.7065(3) 0.51828(16)
C9 C 0.7873(5) 0.5365(3) 0.45618(17)
C10 C 0.8822(6) 0.8973(3) 0.48132(19)
H2 H 0.9415 0.8472 0.4701
C11 C 0.2834(4) 0.3059(3) 0.37853(16)
C12 C 0.2096(5) 0.2041(4) 0.4356(2)
H3 H 0.1517 0.1635 0.4563
C13 C 0.3527(5) 0.2083(5) 0.4391(2)
H4 H 0.4085 0.1724 0.4633
C14 C 0.8390(6) 0.8401(4) 0.64535(18)
H5 H 0.8949 0.8902 0.6319
C15 C 0.7022(6) 0.9593(3) 0.54252(18)
H6 H 0.6439 0.9526 0.5733
C16 C 0.7437(6) 0.7518(4) 0.72269(18)
C17 C 0.8870(6) 0.9837(3) 0.45469(19)
H7 H 0.9527 0.9935 0.4266
C18 C 0.7885(6) 0.8832(3) 0.52552(16)
C19 C 0.7086(6) 0.7002(4) 0.46908(18)
H8 H 0.6570 0.7530 0.4564
C20 C 0.8637(7) 0.6270(4) 0.53541(19)
H9 H 0.9146 0.6301 0.5683
C21 C 0.8679(6) 0.5444(4) 0.50431(19)
H10 H 0.9250 0.4930 0.5154
C22 C 0.7105(6) 0.6157(4) 0.43928(19)
H11 H 0.6584 0.6120 0.4068
C23 C 0.8317(6) 0.8240(4) 0.70166(19)
H12 H 0.8858 0.8616 0.7256
C24 C 0.6629(7) 0.6975(5) 0.6868(2)
H13 H 0.6020 0.6503 0.7004
C25 C 0.6719(7) 0.7129(5) 0.63108(19)
H14 H 0.6156 0.6763 0.6074
Zn4 Zn 0.89281(5) 0.70696(4) 0.88373(2)
O10 O 0.6022(4) 0.6055(2) 0.92258(13)
O11 O 0.6054(4) 0.8336(2) 0.90534(14)
O12 O 0.6564(4) 0.2424(3) 0.31123(13)
N4 N 0.3371(4) 0.7315(3) 0.89673(15)
H15 H 0.161277 0.40251 0.281938
O6_2 O 0.3312(5) 0.5888(4) 0.8225(2)
O8_2 O 0.1005(5) 0.5874(3) 0.82280(19)
N2_2 N 0.0979(4) 0.7267(3) 0.90175(15)
C1_2 C 0.2151(5) 0.6189(3) 0.83846(18)
C11_2 C 0.2166(4) 0.6941(3) 0.87853(16)
C12_2 C 0.2904(5) 0.7959(4) 0.9356(2)
H3_2 H 0.3483 0.8365 0.9563
C13_2 C 0.1473(5) 0.7917(5) 0.9391(2)
H4_2 H 0.0915 0.8276 0.9633
H15_2 H 0.338723 0.59749 0.781938
O7_2 O 0.8688(6) 0.3127(3) 0.30205(13)
N3_2 N 0.7185(5) 0.2082(3) 0.05156(14)
C5_2 C 0.7630(6) 0.2677(3) 0.28320(17)
C6_2 C 0.7359(6) 0.2175(3) 0.10899(16)
C7_2 C 0.7160(5) 0.2935(3) 0.01828(16)
C14_2 C 0.6610(6) 0.1599(4) 0.14535(18)
H5_2 H 0.6051 0.1098 0.1319
C15_2 C 0.7978(6) 0.0407(3) 0.04252(18)
H6_2 H 0.8561 0.0474 0.0733
C16_2 C 0.7563(6) 0.2482(4) 0.22269(18)
C18_2 C 0.7115(6) 0.1168(3) 0.02552(16)
C20_2 C 0.6363(7) 0.3730(4) 0.03541(19)
H9_2 H 0.5854 0.3699 0.0683
C21_2 C 0.6321(6) 0.4556(4) 0.00431(19)
H10_2 H 0.5750 0.5070 0.0154
C23_2 C 0.6683(6) 0.1760(4) 0.20166(19)
H12_2 H 0.6142 0.1384 0.2256
C24_2 C 0.8371(7) 0.3025(5) 0.1868(2)
H13_2 H 0.8980 0.3497 0.2004
C25_2 C 0.8281(7) 0.2871(5) 0.13108(19)
H14_2 H 0.8844 0.3237 0.1074
O4_2 O 0.8283(4) 0.5768(2) 0.90042(14)
C3_2 C 0.7119(5) 0.5554(3) 0.92394(17)
C9_2 C 0.7127(5) 0.4635(3) 0.95618(17)
C10_2 C 0.6178(6) 0.1027(3) 0.98132(19)
H2_2 H 0.5585 0.1528 0.9701
C17_2 C 0.6130(6) 0.0163(3) 0.95469(19)
H7_2 H 0.5473 0.0065 0.9266
C19_2 C 0.7914(6) 0.2998(4) 0.96908(18)
H8_2 H 0.8430 0.2470 0.9564
C22_2 C 0.7895(6) 0.3843(4) 0.93928(19)
H11_2 H 0.8416 0.3880 0.9068
O9 O 0.8194(3) 0.7985(2) 0.93976(12)
C2_2 C 0.7099(5) 0.8502(3) 0.93635(17)
C4_2 C 0.7067(5) 0.9416(3) 0.96938(17)
C8_2 C 0.7958(5) 0.9546(3) 0.01301(17)
H1_2 H 0.8566 0.9048 0.0233
Zn5 Zn 0.03678(5) 0.78807(4) 0.12845(2)
O1_2 O 0.3194(3) 0.7015(2) 0.06024(12)
O3_2 O 0.1054(4) 0.6664(2) 0.09466(14)
C2_3 C 0.2099(5) 0.6498(3) 0.06365(17)
C4_3 C 0.2067(5) 0.5584(3) 0.03062(17)
C9_3 C 0.2127(5) 0.0365(3) 0.04382(17)
C10_3 C 0.1178(6) 0.3973(3) 0.01868(19)
H2_3 H 0.0585 0.3472 0.0299
C17_3 C 0.1130(6) 0.4837(3) 0.04531(19)
H7_3 H 0.0473 0.4935 0.0734
C19_3 C 0.2914(6) 0.2002(4) 0.03092(18)
H8_3 H 0.3430 0.2530 0.0436
C22_3 C 0.2895(6) 0.1157(4) 0.06072(19)
H11_3 H 0.3416 0.1120 0.0932
Zn3_2 Zn 0.39281(5) 0.79304(4) 0.11627(2)
Zn2_2 Zn 0.46322(5) 0.21193(4) 0.62845(2)
O5_2 O 0.1564(4) 0.2576(3) 0.68877(13)
O7_3 O 0.3688(6) 0.1873(3) 0.69795(13)
N3_3 N 0.2185(5) 0.2918(3) 0.94844(14)
C5_3 C 0.2630(6) 0.2323(3) 0.71680(17)
C6_3 C 0.2359(6) 0.2825(3) 0.89101(16)
C7_3 C 0.2160(5) 0.2065(3) 0.98172(16)
C8_3 C 0.2958(5) 0.5454(3) 0.98699(17)
H1_3 H 0.3566 0.5952 0.9767
C14_3 C 0.1610(6) 0.3401(4) 0.85465(18)
H5_3 H 0.1051 0.3902 0.8681
C15_3 C 0.2978(6) 0.4593(3) 0.95748(18)
H6_3 H 0.3561 0.4526 0.9267
C16_3 C 0.2563(6) 0.2518(4) 0.77731(18)
C18_3 C 0.2115(6) 0.3832(3) 0.97448(16)
C20_3 C 0.1363(7) 0.1270(4) 0.96459(19)
H9_3 H 0.0854 0.1301 0.9317
C21_3 C 0.1321(6) 0.0444(4) 0.99569(19)
C23_3 C 0.1683(6) 0.3240(4) 0.79834(19)
H12_3 H 0.1142 0.3616 0.7744
C24_3 C 0.3371(7) 0.1975(5) 0.8132(2)
H13_3 H 0.3980 0.1503 0.7996
C25_3 C 0.3281(7) 0.2129(5) 0.86892(19)
H14_3 H 0.3844 0.1763 0.8926
Zn4_2 Zn 0.10719(5) 0.20696(4) 0.61627(2)
O10_2 O 0.3978(4) 0.1055(2) 0.57742(13)
O11_2 O 0.3946(4) 0.3336(2) 0.59466(14)
N4_2 N 0.6629(4) 0.2315(3) 0.60327(15)
O2_2 O 0.1022(4) 0.8945(2) 0.07742(13)
O4_3 O 0.3283(4) 0.9232(2) 0.09958(14)
N1_2 N 0.8371(4) 0.7685(3) 0.10327(15)
O6_3 O 0.8312(5) 0.9112(4) 0.1775(2)
O8_3 O 0.6005(5) 0.9126(3) 0.17720(19)
N2_3 N 0.5979(4) 0.7733(3) 0.09825(15)
C1_3 C 0.7151(5) 0.8811(3) 0.16154(18)
C3_3 C 0.2119(5) 0.9446(3) 0.07606(17)
C11_3 C 0.7166(4) 0.8059(3) 0.12147(16)
C12_3 C 0.7904(5) 0.7041(4) 0.0644(2)
H3_3 H 0.8483 0.6635 0.0437
C13_3 C 0.6473(5) 0.7083(5) 0.0609(2)
H4_3 H 0.5915 0.6724 0.0367
O12_2 O 0.3436(4) 0.7424(3) 0.18877(13)
H15_3 H 0.838723 0.90251 0.218062
O4_4 O 0.1717(4) 0.0768(2) 0.59958(14)
C3_4 C 0.2881(5) 0.0554(3) 0.57606(17)
H10_3 H 0.4250 0.0070 0.4846
O9_2 O 0.1806(3) 0.2985(2) 0.56024(12)
O7_4 O 0.1312(6) 0.8127(3) 0.19795(13)
N3_4 N 0.2815(5) 0.7082(3) 0.44844(14)
C2_4 C 0.2901(5) 0.3502(3) 0.56365(17)
C4_4 C 0.2933(5) 0.4416(3) 0.53062(17)
C5_4 C 0.2370(6) 0.7677(3) 0.21680(17)
C6_4 C 0.2641(6) 0.7175(3) 0.39101(16)
C7_4 C 0.2840(5) 0.7935(3) 0.48172(16)
C8_4 C 0.2042(5) 0.4546(3) 0.48699(17)
H1_4 H 0.1434 0.4048 0.4767
C9_4 C 0.2873(5) 0.9635(3) 0.54382(17)
C10_4 C 0.3822(6) 0.6027(3) 0.51868(19)
H2_4 H 0.4415 0.6528 0.5299
C14_4 C 0.3390(6) 0.6599(4) 0.35465(18)
H5_4 H 0.3949 0.6098 0.3681
C15_4 C 0.2022(6) 0.5407(3) 0.45748(18)
H6_4 H 0.1439 0.5474 0.4267
C16_4 C 0.2437(6) 0.7482(4) 0.27731(18)
C17_4 C 0.3870(6) 0.5163(3) 0.54531(19)
H7_4 H 0.4527 0.5065 0.5734
C18_4 C 0.2885(6) 0.6168(3) 0.47448(16)
C19_4 C 0.2086(6) 0.7998(4) 0.53092(18)
H8_4 H 0.1570 0.7470 0.5436
C20_4 C 0.3637(7) 0.8730(4) 0.46459(19)
H9_4 H 0.4146 0.8699 0.4317
C21_4 C 0.3679(6) 0.9556(4) 0.49569(19)
C22_4 C 0.2105(6) 0.8843(4) 0.56072(19)
H11_4 H 0.1584 0.8880 0.5932
C23_4 C 0.3317(6) 0.6760(4) 0.29834(19)
H12_4 H 0.3858 0.6384 0.2744
C24_4 C 0.1629(7) 0.8025(5) 0.3132(2)
H13_4 H 0.1020 0.8497 0.2996
C25_4 C 0.1719(7) 0.7871(5) 0.36892(19)
H14_4 H 0.1156 0.8237 0.3926
O6_4 O 0.6688(5) 0.0888(4) 0.6775(2)
O8_4 O 0.8995(5) 0.0874(3) 0.67720(19)
N2_4 N 0.9021(4) 0.2267(3) 0.59825(15)
C1_4 C 0.7849(5) 0.1189(3) 0.66154(18)
C11_4 C 0.7834(4) 0.1941(3) 0.62147(16)
C12_4 C 0.7096(5) 0.2959(4) 0.5644(2)
H3_4 H 0.6517 0.3365 0.5437
C13_4 C 0.8527(5) 0.2917(5) 0.5609(2)
H4_4 H 0.9085 0.3276 0.5367
H15_4 H 0.661277 0.0974896 0.718062
H10_4 H 0.0750 0.9930 0.9846
loop_
_geom_bond_atom_site_label_1
_geom_bond_atom_site_label_2
_geom_bond_site_symmetry_1
_geom_bond_site_symmetry_2
O1 C2 1_555 1_555
O3 C2 1_555 1_555
C2 C4 1_555 1_555
C4 C8 1_555 1_555
C8 H1 1_555 1_555
Zn3 O1 1_555 1_555
Zn7 O3 1_555 1_555
Zn3 O4 1_555 1_555
Zn2 O7 1_555 1_555
O2 C3 1_555 1_555
O4 C3 1_555 1_555
O5 C5 1_555 1_555
N1 C11 1_555 1_555
O6 C1 1_555 1_555
O7 C5 1_555 1_555
O8 C1 1_555 1_555
N2 Zn3 1_555 1_555
C1 C11 1_555 1_555
N3 C6 1_555 1_555
C3 C9 1_555 1_555
C5 C16 1_555 1_555
C6 C14 1_555 1_555
C7 N3 1_555 1_555
C9 C21 1_555 1_555
C10 H2 1_555 1_555
C11 N2 1_555 1_555
C12 N1 1_555 1_555
H3 C12 1_555 1_555
C13 N2 1_555 1_555
H4 C13 1_555 1_555
C14 H5 1_555 1_555
H6 C15 1_555 1_555
C16 C23 1_555 1_555
H7 C17 1_555 1_555
C18 N3 1_555 1_555
C19 C7 1_555 1_555
H8 C19 1_555 1_555
C20 C7 1_555 1_555
H9 C20 1_555 1_555
C21 C20 1_555 1_555
H10 C21 1_555 1_555
C22 C9 1_555 1_555
H11 C22 1_555 1_555
C23 C14 1_555 1_555
H12 C23 1_555 1_555
C24 C16 1_555 1_555
H13 C24 1_555 1_555
C25 C6 1_555 1_555
H14 C25 1_555 1_555
Zn4 O5 1_555 1_555
Zn7 O2 1_555 1_555
O10 Zn2 1_555 1_555
O11 Zn2 1_555 1_555
O12 Zn3 1_555 1_555
N4 Zn2 1_555 1_555
C10 C17 1_555 1_555
C10 C18 1_555 1_555
C12 C13 1_555 1_555
C15 C18 1_555 1_555
C19 C22 1_555 1_555
C24 C25 1_555 1_555
O6 H15 1_555 1_555
N4 C11_2 1_555 1_555
O6_2 C1_2 1_555 1_555
O8_2 C1_2 1_555 1_555
C1_2 C11_2 1_555 1_555
C11_2 N2_2 1_555 1_555
C12_2 N4 1_555 1_555
H3_2 C12_2 1_555 1_555
C13_2 N2_2 1_555 1_555
H4_2 C13_2 1_555 1_555
C12_2 C13_2 1_555 1_555
O6_2 H15_2 1_555 1_555
Zn7 O7_2 1_555 1_555
O12 C5_2 1_555 1_555
O7_2 C5_2 1_555 1_555
N3_2 C6_2 1_555 1_555
C5_2 C16_2 1_555 1_555
C6_2 C14_2 1_555 1_555
C7_2 N3_2 1_555 1_555
C14_2 H5_2 1_555 1_555
H6_2 C15_2 1_555 1_555
C16_2 C23_2 1_555 1_555
C18_2 N3_2 1_555 1_555
C20_2 C7_2 1_555 1_555
H9_2 C20_2 1_555 1_555
C21_2 C20_2 1_555 1_555
H10_2 C21_2 1_555 1_555
C23_2 C14_2 1_555 1_555
H12_2 C23_2 1_555 1_555
C24_2 C16_2 1_555 1_555
H13_2 C24_2 1_555 1_555
C25_2 C6_2 1_555 1_555
H14_2 C25_2 1_555 1_555
C15_2 C18_2 1_555 1_555
C24_2 C25_2 1_555 1_555
Zn4 O4_2 1_555 1_555
O10 C3_2 1_555 1_555
O4_2 C3_2 1_555 1_555
C3_2 C9_2 1_555 1_555
C10_2 H2_2 1_555 1_555
H7_2 C17_2 1_555 1_555
H8_2 C19_2 1_555 1_555
C22_2 C9_2 1_555 1_555
H11_2 C22_2 1_555 1_555
O9 Zn4 1_555 1_555
C10_2 C17_2 1_555 1_555
C19_2 C22_2 1_555 1_555
O9 C2_2 1_555 1_555
O11 C2_2 1_555 1_555
C2_2 C4_2 1_555 1_555
C8_2 H1_2 1_555 1_555
O1_2 C2_3 1_555 1_555
O3_2 C2_3 1_555 1_555
C2_3 C4_3 1_555 1_555
C10_3 H2_3 1_555 1_555
C17_3 C4_3 1_555 1_555
H7_3 C17_3 1_555 1_555
H8_3 C19_3 1_555 1_555
C22_3 C9_3 1_555 1_555
H11_3 C22_3 1_555 1_555
Zn3_2 O1_2 1_555 1_555
Zn5 O3_2 1_555 1_555
C10_3 C17_3 1_555 1_555
C19_3 C22_3 1_555 1_555
Zn2_2 O7_3 1_555 1_555
O5_2 C5_3 1_555 1_555
O7_3 C5_3 1_555 1_555
N3_3 C6_3 1_555 1_555
C5_3 C16_3 1_555 1_555
C6_3 C14_3 1_555 1_555
C7_3 N3_3 1_555 1_555
C8_3 H1_3 1_555 1_555
C14_3 H5_3 1_555 1_555
C15_3 C8_3 1_555 1_555
H6_3 C15_3 1_555 1_555
C16_3 C23_3 1_555 1_555
C18_3 N3_3 1_555 1_555
C20_3 C7_3 1_555 1_555
H9_3 C20_3 1_555 1_555
C21_3 C20_3 1_555 1_555
C23_3 C14_3 1_555 1_555
H12_3 C23_3 1_555 1_555
C24_3 C16_3 1_555 1_555
H13_3 C24_3 1_555 1_555
C25_3 C6_3 1_555 1_555
H14_3 C25_3 1_555 1_555
Zn4_2 O5_2 1_555 1_555
O10_2 Zn2_2 1_555 1_555
O11_2 Zn2_2 1_555 1_555
N4_2 Zn2_2 1_555 1_555
C15_3 C18_3 1_555 1_555
C24_3 C25_3 1_555 1_555
Zn3_2 O4_3 1_555 1_555
O2_2 C3_3 1_555 1_555
O4_3 C3_3 1_555 1_555
N1_2 C11_3 1_555 1_555
O6_3 C1_3 1_555 1_555
O8_3 C1_3 1_555 1_555
N2_3 Zn3_2 1_555 1_555
C1_3 C11_3 1_555 1_555
C11_3 N2_3 1_555 1_555
C12_3 N1_2 1_555 1_555
H3_3 C12_3 1_555 1_555
C13_3 N2_3 1_555 1_555
H4_3 C13_3 1_555 1_555
Zn5 O2_2 1_555 1_555
O12_2 Zn3_2 1_555 1_555
C12_3 C13_3 1_555 1_555
O6_3 H15_3 1_555 1_555
Zn4_2 O4_4 1_555 1_555
O10_2 C3_4 1_555 1_555
O4_4 C3_4 1_555 1_555
O9_2 Zn4_2 1_555 1_555
Zn5 O7_4 1_555 1_555
O9_2 C2_4 1_555 1_555
O11_2 C2_4 1_555 1_555
O12_2 C5_4 1_555 1_555
O7_4 C5_4 1_555 1_555
N3_4 C6_4 1_555 1_555
C2_4 C4_4 1_555 1_555
C4_4 C8_4 1_555 1_555
C5_4 C16_4 1_555 1_555
C6_4 C14_4 1_555 1_555
C7_4 N3_4 1_555 1_555
C8_4 H1_4 1_555 1_555
C9_4 C21_4 1_555 1_555
C10_4 H2_4 1_555 1_555
C14_4 H5_4 1_555 1_555
C15_4 C8_4 1_555 1_555
H6_4 C15_4 1_555 1_555
C16_4 C23_4 1_555 1_555
C17_4 C4_4 1_555 1_555
H7_4 C17_4 1_555 1_555
C18_4 N3_4 1_555 1_555
C19_4 C7_4 1_555 1_555
H8_4 C19_4 1_555 1_555
C20_4 C7_4 1_555 1_555
H9_4 C20_4 1_555 1_555
C21_4 C20_4 1_555 1_555
C22_4 C9_4 1_555 1_555
H11_4 C22_4 1_555 1_555
C23_4 C14_4 1_555 1_555
H12_4 C23_4 1_555 1_555
C24_4 C16_4 1_555 1_555
H13_4 C24_4 1_555 1_555
C25_4 C6_4 1_555 1_555
H14_4 C25_4 1_555 1_555
C10_4 C17_4 1_555 1_555
C10_4 C18_4 1_555 1_555
C15_4 C18_4 1_555 1_555
C19_4 C22_4 1_555 1_555
C24_4 C25_4 1_555 1_555
N4_2 C11_4 1_555 1_555
O6_4 C1_4 1_555 1_555
O8_4 C1_4 1_555 1_555
C1_4 C11_4 1_555 1_555
C11_4 N2_4 1_555 1_555
C12_4 N4_2 1_555 1_555
H3_4 C12_4 1_555 1_555
C13_4 N2_4 1_555 1_555
H4_4 C13_4 1_555 1_555
C12_4 C13_4 1_555 1_555
O6_4 H15_4 1_555 1_555

#END
