
###############################################################################
#
# This file contains modified crystal structure data generated from the
# MOF subset of the Cambridge Structural Database (CSD) v543 
# hosted by the Cambridge Crystallographic Data Centre (CCDC).
#
# This work is licensed under the Creative Commons
# Attribution-NonCommercial-ShareAlike 4.0 International License.
# To view a copy of this license, visit
# http://creativecommons.org/licenses/by-nc-sa/4.0/
# or send a letter to
# Creative Commons, PO Box 1866, Mountain View, CA 94042, USA.
#
# CIF created using the CSD Python API on 29 September 2022
# The structure has been converted into the P1 space group
# The structure has a 3D framework
# The original CSD entry SICKUN is in the orthorhombic crystal system
# The original CSD entry SICKUN is in a Sohncke space group
# The framework has been calculated to contain at least 10.0% void space
# The void calculation uses a probe of radius 1.32A, grid spacing 0.4
#
###############################################################################

data_SICKUN
_chemical_formula_moiety         '(C116 H76 Cu3 N12 O20)n'
_symmetry_cell_setting           triclinic
_symmetry_space_group_name_H-M   'P 1'
_symmetry_Int_Tables_number      1
_space_group_name_Hall           'P 1'
loop_
_symmetry_equiv_pos_site_id
_symmetry_equiv_pos_as_xyz
1 x,y,z
_cell_length_a                   6.2062(4)
_cell_length_b                   19.1198(12)
_cell_length_c                   25.5158(17)
_cell_angle_alpha                90
_cell_angle_beta                 90
_cell_angle_gamma                90
_cell_volume                     3027.74
loop_
_atom_site_label
_atom_site_type_symbol
_atom_site_fract_x
_atom_site_fract_y
_atom_site_fract_z
O5 O 0.7506(6) 0.8073(2) 0.61028(15)
H1 H 0.7753 0.8145 0.6414
C16 C 0.0264(7) 0.6340(2) 0.58075(16)
H11 H 0.0325 0.6297 0.5004
C24 C 0.2174(7) 0.6789(2) 0.58904(17)
C25 C 0.2555(8) 0.7115(3) 0.63703(19)
H16 H 0.1579 0.7047 0.6642
C26 C 0.4316(8) 0.7530(3) 0.64550(19)
H17 H 0.4533 0.7732 0.6782
C27 C 0.5769(7) 0.7648(2) 0.60566(19)
C28 C 0.5428(7) 0.7329(2) 0.55754(18)
H18 H 0.6398 0.7401 0.5303
C29 C 0.3664(7) 0.6906(2) 0.54994(16)
H19 H 0.3470 0.6692 0.5175
Cu1 Cu 0.11777(7) 0.49704(2) 0.80304(2)
O1 O 0.2439(5) 0.58550(12) 0.83105(11)
O4 O 0.0546(4) 0.92942(12) 0.73337(11)
N1 N 0.3179(5) 0.50740(18) 0.74104(12)
N2 N 0.6555(5) 0.55099(17) 0.56442(13)
N3 N 0.5100(6) 0.52674(16) 0.37270(13)
C1 C 0.1209(8) 0.62758(18) 0.80727(17)
C2 C 0.1918(7) 0.70273(18) 0.80173(18)
C3 C 0.0627(7) 0.74903(18) 0.77357(16)
C4 C 0.1281(7) 0.81722(18) 0.76558(16)
C5 C 0.3254(8) 0.8390(2) 0.7853(2)
H3 H 0.3698 0.8850 0.7806
C6 C 0.4553(9) 0.7928(2) 0.8117(3)
H4 H 0.5883 0.8076 0.8243
C7 C 0.3903(9) 0.7244(2) 0.8197(2)
H5 H 0.4801 0.6932 0.8372
C9 C 0.2588(6) 0.4949(2) 0.69121(15)
H6 H 0.1268 0.4734 0.6850
C10 C 0.3864(7) 0.5127(2) 0.64877(15)
H7 H 0.3393 0.5036 0.6149
C11 C 0.5831(6) 0.54411(19) 0.65686(15)
C12 C 0.6458(7) 0.5537(3) 0.70803(16)
H8 H 0.7801 0.5730 0.7152
C13 C 0.5131(7) 0.5352(2) 0.74831(17)
H9 H 0.5607 0.5423 0.7825
C14 C 0.7188(7) 0.5687(2) 0.61256(16)
C15 C 0.9016(7) 0.6095(2) 0.62154(16)
H10 H 0.9402 0.6203 0.6558
C17 C 0.9561(7) 0.6150(2) 0.52980(16)
C18 C 0.7722(7) 0.5742(2) 0.52412(16)
C19 C 0.4109(7) 0.5091(3) 0.41672(16)
H12 H 0.2804 0.4854 0.4144
C20 C 0.4908(8) 0.5240(2) 0.46568(17)
H13 H 0.4125 0.5115 0.4953
C21 C 0.6850(7) 0.5572(2) 0.47108(16)
C22 C 0.7889(8) 0.5755(3) 0.42509(18)
H14 H 0.9219 0.5978 0.4263
C23 C 0.6951(8) 0.5605(3) 0.37779(18)
H15 H 0.7655 0.5750 0.3475
Cu2 Cu 0.38223(7) 0.50296(2) 0.30304(2)
O2 O 0.9517(6) 0.60857(15) 0.78630(16)
O3 O 0.8296(5) 0.84430(16) 0.71045(13)
H2 H 0.9316 0.7339 0.7601
C8 C 0.9903(7) 0.86568(19) 0.73405(16)
Cu3 Cu 0.88223(7) 0.99704(2) 0.69696(2)
O6 O 0.9454(4) 0.42942(12) 0.76663(11)
N4 N 0.9900(6) 0.47326(16) 0.87270(13)
O1_2 O 0.2561(5) 0.41450(12) 0.33105(11)
O2_2 O 0.5483(6) 0.39143(15) 0.28630(16)
O3_2 O 0.6704(5) 0.15570(16) 0.21045(13)
O4_2 O 0.4454(4) 0.07058(12) 0.23337(11)
N1_2 N 0.1821(5) 0.49260(18) 0.24104(12)
C1_2 C 0.3791(8) 0.37242(18) 0.30727(17)
C2_2 C 0.3082(7) 0.29727(18) 0.30173(18)
C3_2 C 0.4373(7) 0.25097(18) 0.27357(16)
H2_2 H 0.5684 0.2661 0.2601
C4_2 C 0.3719(7) 0.18278(18) 0.26558(16)
C5_2 C 0.1746(8) 0.1610(2) 0.2853(2)
H3_2 H 0.1302 0.1150 0.2806
C6_2 C 0.0447(9) 0.2072(2) 0.3117(3)
C7_2 C 0.1097(9) 0.2756(2) 0.3197(2)
H5_2 H 0.0199 0.3068 0.3372
C8_2 C 0.5097(7) 0.13432(19) 0.23405(16)
C9_2 C 0.2412(6) 0.5051(2) 0.19121(15)
H6_2 H 0.3732 0.5266 0.1850
C10_2 C 0.1136(7) 0.4873(2) 0.14877(15)
H7_2 H 0.1607 0.4964 0.1149
Cu3_2 Cu 0.61777(7) 0.00296(2) 0.19696(2)
O6_2 O 0.5546(4) 0.57058(12) 0.26663(11)
C19_2 C 0.0891(7) 0.4909(3) 0.91672(16)
H12_2 H 0.2196 0.5146 0.9144
C20_2 C 0.0092(8) 0.4760(2) 0.96568(17)
H13_2 H 0.0875 0.4885 0.9953
C21_2 C 0.8150(7) 0.4428(2) 0.97108(16)
C22_2 C 0.7111(8) 0.4245(3) 0.92509(18)
H14_2 H 0.5781 0.4022 0.9263
C23_2 C 0.8049(8) 0.4395(3) 0.87779(18)
H15_2 H 0.7345 0.4250 0.8475
O2_3 O 0.0483(6) 0.10857(15) 0.71370(16)
O3_3 O 0.1704(5) 0.34430(16) 0.78955(13)
H2_3 H 0.0684 0.2339 0.7399
C8_3 C 0.0097(7) 0.36568(19) 0.76595(16)
N4_2 N 0.0100(6) 0.97326(16) 0.62730(13)
N3_2 N 0.4900(6) 0.02674(16) 0.12730(13)
C19_3 C 0.5891(7) 0.0091(3) 0.08328(16)
C20_3 C 0.5092(8) 0.0240(2) 0.03432(17)
H13_3 H 0.5875 0.0115 0.0047
C21_3 C 0.3150(7) 0.0572(2) 0.02892(16)
C22_3 C 0.2111(8) 0.0755(3) 0.07491(18)
H14_3 H 0.0781 0.0978 0.0737
C23_3 C 0.3049(8) 0.0605(3) 0.12221(18)
H15_3 H 0.2345 0.0750 0.1525
O1_3 O 0.7561(5) 0.08550(12) 0.66895(11)
N1_3 N 0.6821(5) 0.00740(18) 0.75896(12)
N2_2 N 0.3445(5) 0.05099(17) 0.93558(13)
C1_3 C 0.8791(8) 0.12758(18) 0.69273(17)
C2_3 C 0.8082(7) 0.20273(18) 0.69827(18)
C3_3 C 0.9373(7) 0.24903(18) 0.72643(16)
C4_3 C 0.8719(7) 0.31722(18) 0.73442(16)
C5_3 C 0.6746(8) 0.3390(2) 0.7147(2)
H3_3 H 0.6302 0.3850 0.7194
C6_3 C 0.5447(9) 0.2928(2) 0.6883(3)
H4_2 H 0.4117 0.3076 0.6757
C7_3 C 0.6097(9) 0.2244(2) 0.6803(2)
H5_3 H 0.5199 0.1932 0.6628
C10_3 C 0.6136(7) 0.0127(2) 0.85123(15)
H7_3 H 0.6607 0.0036 0.8851
C11_2 C 0.4169(6) 0.04411(19) 0.84314(15)
C12_2 C 0.3542(7) 0.0537(3) 0.79197(16)
H8_2 H 0.2199 0.0730 0.7848
C13_2 C 0.4869(7) 0.0352(2) 0.75169(17)
H9_2 H 0.4393 0.0423 0.7175
C14_2 C 0.2812(7) 0.0687(2) 0.88744(16)
C15_2 C 0.0984(7) 0.1095(2) 0.87846(16)
H10_2 H 0.0598 0.1203 0.8442
C17_2 C 0.0439(7) 0.1150(2) 0.97020(16)
C18_2 C 0.2278(7) 0.0742(2) 0.97588(16)
C9_3 C 0.7412(6) 0.9949(2) 0.80879(15)
H6_3 H 0.8732 0.9734 0.8150
N2_3 N 0.1555(5) 0.94901(17) 0.43558(13)
H4_3 H 0.0883 0.6924 0.1757
C11_3 C 0.0831(6) 0.95589(19) 0.34314(15)
C12_3 C 0.1458(7) 0.9463(3) 0.29197(16)
H8_3 H 0.2801 0.9270 0.2848
C13_3 C 0.0131(7) 0.9648(2) 0.25169(17)
H9_3 H 0.0607 0.9577 0.2175
C14_3 C 0.2188(7) 0.9313(2) 0.38744(16)
C15_3 C 0.4016(7) 0.8905(2) 0.37846(16)
H10_3 H 0.4402 0.8797 0.3442
C16_2 C 0.5264(7) 0.8660(2) 0.41925(16)
C17_3 C 0.4561(7) 0.8850(2) 0.47020(16)
H11_2 H 0.5325 0.8703 0.4996
C18_3 C 0.2722(7) 0.9258(2) 0.47588(16)
C21_4 C 0.1850(7) 0.9428(2) 0.52892(16)
C22_4 C 0.2889(8) 0.9245(3) 0.57491(18)
H14_4 H 0.4219 0.9022 0.5737
C23_4 C 0.1951(8) 0.9395(3) 0.62221(18)
H15_4 H 0.2655 0.9250 0.6525
C24_2 C 0.7174(7) 0.8211(2) 0.41096(17)
C25_2 C 0.7555(8) 0.7885(3) 0.36297(19)
H16_2 H 0.6579 0.7953 0.3358
C26_2 C 0.9316(8) 0.7470(3) 0.35450(19)
H17_2 H 0.9533 0.7268 0.3218
C29_2 C 0.8664(7) 0.8094(2) 0.45006(16)
H19_2 H 0.8470 0.8308 0.4825
C9_4 C 0.7588(6) 0.0051(2) 0.30879(15)
H6_4 H 0.6268 0.0266 0.3150
H12_3 H 0.7804 0.0146 0.5856
O1_4 O 0.7439(5) 0.91450(12) 0.16895(11)
O2_4 O 0.4517(6) 0.89143(15) 0.21370(16)
O3_4 O 0.3296(5) 0.65570(16) 0.28955(13)
N1_4 N 0.8179(5) 0.99260(18) 0.25896(12)
C1_4 C 0.6209(8) 0.87242(18) 0.19273(17)
C2_4 C 0.6918(7) 0.79727(18) 0.19827(18)
C3_4 C 0.5627(7) 0.75097(18) 0.22643(16)
H2_4 H 0.4316 0.7661 0.2399
C4_4 C 0.6281(7) 0.68278(18) 0.23442(16)
C5_4 C 0.8254(8) 0.6610(2) 0.2147(2)
H3_4 H 0.8698 0.6150 0.2194
C6_4 C 0.9553(9) 0.7072(2) 0.1883(3)
C7_4 C 0.8903(9) 0.7756(2) 0.1803(2)
H5_4 H 0.9801 0.8068 0.1628
C8_4 C 0.4903(7) 0.63432(19) 0.26595(16)
C10_4 C 0.8864(7) 0.9873(2) 0.35123(15)
H7_4 H 0.8393 0.9964 0.3851
C19_4 C 0.9109(7) 0.9909(3) 0.58328(16)
C20_4 C 0.9908(8) 0.9760(2) 0.53432(17)
H13_4 H 0.9125 0.9885 0.5047
N2_4 N 0.8445(5) 0.44901(17) 0.06442(13)
H4_4 H 0.9117 0.1924 0.3243
C11_4 C 0.9169(6) 0.45589(19) 0.15686(15)
C12_4 C 0.8542(7) 0.4463(3) 0.20803(16)
H8_4 H 0.7199 0.4270 0.2152
C13_4 C 0.9869(7) 0.4648(2) 0.24831(17)
H9_4 H 0.9393 0.4577 0.2825
C14_4 C 0.7812(7) 0.4313(2) 0.11256(16)
C15_4 C 0.5984(7) 0.3905(2) 0.12154(16)
H10_4 H 0.5598 0.3797 0.1558
C16_3 C 0.4736(7) 0.3660(2) 0.08075(16)
C17_4 C 0.5439(7) 0.3850(2) 0.02980(16)
H11_3 H 0.4675 0.3703 0.0004
C18_4 C 0.7278(7) 0.4258(2) 0.02412(16)
C24_3 C 0.2826(7) 0.3211(2) 0.08904(17)
C25_3 C 0.2445(8) 0.2885(3) 0.13703(19)
H16_3 H 0.3421 0.2953 0.1642
C26_3 C 0.0684(8) 0.2470(3) 0.14550(19)
H17_3 H 0.0467 0.2268 0.1782
C29_3 C 0.1336(7) 0.3094(2) 0.04994(16)
H19_3 H 0.1530 0.3308 0.0175
O5_2 O 0.7494(6) 0.1927(2) 0.11028(15)
H1_2 H 0.7247 0.1855 0.1414
C27_2 C 0.9231(7) 0.2352(2) 0.10566(19)
C28_2 C 0.9572(7) 0.2671(2) 0.05754(18)
H18_2 H 0.8602 0.2599 0.0303
H12_4 H 0.7196 0.9854 0.0856
O5_3 O 0.2494(6) 0.3073(2) 0.88972(15)
H1_3 H 0.2247 0.3145 0.8586
C16_4 C 0.9736(7) 0.1340(2) 0.91925(16)
H11_4 H 0.9675 0.1297 0.9996
C24_4 C 0.7826(7) 0.1789(2) 0.91096(17)
C25_4 C 0.7445(8) 0.2115(3) 0.86297(19)
H16_4 H 0.8421 0.2047 0.8358
C26_4 C 0.5684(8) 0.2530(3) 0.85450(19)
H17_4 H 0.5467 0.2732 0.8218
C27_3 C 0.4231(7) 0.2648(2) 0.89434(19)
C28_3 C 0.4572(7) 0.2329(2) 0.94246(18)
H18_3 H 0.3602 0.2401 0.9697
C29_4 C 0.6336(7) 0.1906(2) 0.95006(16)
H19_4 H 0.6530 0.1692 0.9825
O5_4 O 0.2506(6) 0.6927(2) 0.38972(15)
H1_4 H 0.2753 0.6855 0.3586
C27_4 C 0.0769(7) 0.7352(2) 0.39434(19)
C28_4 C 0.0428(7) 0.7671(2) 0.44246(18)
H18_4 H 0.1398 0.7599 0.4697
loop_
_geom_bond_atom_site_label_1
_geom_bond_atom_site_label_2
_geom_bond_site_symmetry_1
_geom_bond_site_symmetry_2
O5 H1 1_555 1_555
C24 C16 1_555 1_555
C25 C24 1_555 1_555
H16 C25 1_555 1_555
C26 C25 1_555 1_555
H17 C26 1_555 1_555
C27 O5 1_555 1_555
C28 C27 1_555 1_555
H18 C28 1_555 1_555
C29 C24 1_555 1_555
H19 C29 1_555 1_555
C26 C27 1_555 1_555
C28 C29 1_555 1_555
Cu1 O1 1_555 1_555
O1 C1 1_555 1_555
N1 Cu1 1_555 1_555
N2 C14 1_555 1_555
N3 C19 1_555 1_555
C2 C1 1_555 1_555
C3 C2 1_555 1_555
C4 C3 1_555 1_555
C5 C4 1_555 1_555
H3 C5 1_555 1_555
C6 C5 1_555 1_555
H4 C6 1_555 1_555
C7 C2 1_555 1_555
H5 C7 1_555 1_555
C9 N1 1_555 1_555
H6 C9 1_555 1_555
C10 C9 1_555 1_555
H7 C10 1_555 1_555
C11 C10 1_555 1_555
C12 C11 1_555 1_555
H8 C12 1_555 1_555
C13 N1 1_555 1_555
H9 C13 1_555 1_555
C14 C11 1_555 1_555
C15 C14 1_555 1_555
H10 C15 1_555 1_555
C18 N2 1_555 1_555
C19 H12 1_555 1_555
C20 C19 1_555 1_555
H13 C20 1_555 1_555
C21 C18 1_555 1_555
C22 C21 1_555 1_555
H14 C22 1_555 1_555
C23 N3 1_555 1_555
H15 C23 1_555 1_555
Cu2 N3 1_555 1_555
C6 C7 1_555 1_555
C12 C13 1_555 1_555
C17 C18 1_555 1_555
C20 C21 1_555 1_555
C22 C23 1_555 1_555
O3 C8 1_555 1_555
Cu2 O1_2 1_555 1_555
O1_2 C1_2 1_555 1_555
O2_2 Cu2 1_555 1_555
O3_2 C8_2 1_555 1_555
O4_2 C8_2 1_555 1_555
N1_2 Cu2 1_555 1_555
C1_2 O2_2 1_555 1_555
C2_2 C1_2 1_555 1_555
C3_2 C2_2 1_555 1_555
H2_2 C3_2 1_555 1_555
C4_2 C3_2 1_555 1_555
C5_2 C4_2 1_555 1_555
H3_2 C5_2 1_555 1_555
C6_2 C5_2 1_555 1_555
C7_2 C2_2 1_555 1_555
H5_2 C7_2 1_555 1_555
C8_2 C4_2 1_555 1_555
C9_2 N1_2 1_555 1_555
H6_2 C9_2 1_555 1_555
C10_2 C9_2 1_555 1_555
H7_2 C10_2 1_555 1_555
Cu3_2 O4_2 1_555 1_555
O6_2 Cu2 1_555 1_555
C6_2 C7_2 1_555 1_555
C19_2 H12_2 1_555 1_555
C20_2 C19_2 1_555 1_555
H13_2 C20_2 1_555 1_555
C22_2 C21_2 1_555 1_555
H14_2 C22_2 1_555 1_555
C23_2 N4 1_555 1_555
H15_2 C23_2 1_555 1_555
C22_2 C23_2 1_555 1_555
O3_3 C8_3 1_555 1_555
N3_2 C19_3 1_555 1_555
C20_3 C19_3 1_555 1_555
H13_3 C20_3 1_555 1_555
C22_3 C21_3 1_555 1_555
H14_3 C22_3 1_555 1_555
C23_3 N3_2 1_555 1_555
H15_3 C23_3 1_555 1_555
Cu3_2 N3_2 1_555 1_555
C20_3 C21_3 1_555 1_555
C22_3 C23_3 1_555 1_555
O1_3 C1_3 1_555 1_555
N2_2 C14_2 1_555 1_555
C2_3 C1_3 1_555 1_555
C3_3 C2_3 1_555 1_555
C4_3 C3_3 1_555 1_555
C5_3 C4_3 1_555 1_555
H3_3 C5_3 1_555 1_555
C6_3 C5_3 1_555 1_555
H4_2 C6_3 1_555 1_555
C7_3 C2_3 1_555 1_555
H5_3 C7_3 1_555 1_555
H7_3 C10_3 1_555 1_555
C11_2 C10_3 1_555 1_555
C12_2 C11_2 1_555 1_555
H8_2 C12_2 1_555 1_555
C13_2 N1_3 1_555 1_555
H9_2 C13_2 1_555 1_555
C14_2 C11_2 1_555 1_555
C15_2 C14_2 1_555 1_555
H10_2 C15_2 1_555 1_555
C18_2 N2_2 1_555 1_555
C6_3 C7_3 1_555 1_555
C12_2 C13_2 1_555 1_555
C17_2 C18_2 1_555 1_555
H6_3 C9_3 1_555 1_555
N2_3 C14_3 1_555 1_555
C12_3 C11_3 1_555 1_555
H8_3 C12_3 1_555 1_555
H9_3 C13_3 1_555 1_555
C14_3 C11_3 1_555 1_555
C15_3 C14_3 1_555 1_555
H10_3 C15_3 1_555 1_555
C16_2 C15_3 1_555 1_555
C17_3 C16_2 1_555 1_555
H11_2 C17_3 1_555 1_555
C18_3 N2_3 1_555 1_555
C21_4 C18_3 1_555 1_555
C22_4 C21_4 1_555 1_555
H14_4 C22_4 1_555 1_555
C23_4 N4_2 1_555 1_555
H15_4 C23_4 1_555 1_555
C24_2 C16_2 1_555 1_555
C25_2 C24_2 1_555 1_555
H16_2 C25_2 1_555 1_555
C26_2 C25_2 1_555 1_555
H17_2 C26_2 1_555 1_555
C29_2 C24_2 1_555 1_555
H19_2 C29_2 1_555 1_555
C12_3 C13_3 1_555 1_555
C17_3 C18_3 1_555 1_555
C22_4 C23_4 1_555 1_555
H6_4 C9_4 1_555 1_555
O1_4 C1_4 1_555 1_555
O3_4 C8_4 1_555 1_555
O6_2 C8_4 1_555 1_555
C1_4 O2_4 1_555 1_555
C2_4 C1_4 1_555 1_555
C3_4 C2_4 1_555 1_555
H2_4 C3_4 1_555 1_555
C4_4 C3_4 1_555 1_555
C5_4 C4_4 1_555 1_555
H3_4 C5_4 1_555 1_555
C6_4 C5_4 1_555 1_555
C7_4 C2_4 1_555 1_555
H5_4 C7_4 1_555 1_555
C8_4 C4_4 1_555 1_555
H7_4 C10_4 1_555 1_555
C20_4 C19_4 1_555 1_555
H13_4 C20_4 1_555 1_555
C6_4 C7_4 1_555 1_555
N2_4 C14_4 1_555 1_555
C12_4 C11_4 1_555 1_555
H8_4 C12_4 1_555 1_555
H9_4 C13_4 1_555 1_555
C14_4 C11_4 1_555 1_555
C15_4 C14_4 1_555 1_555
H10_4 C15_4 1_555 1_555
C16_3 C15_4 1_555 1_555
C17_4 C16_3 1_555 1_555
H11_3 C17_4 1_555 1_555
C18_4 N2_4 1_555 1_555
C24_3 C16_3 1_555 1_555
C25_3 C24_3 1_555 1_555
H16_3 C25_3 1_555 1_555
C26_3 C25_3 1_555 1_555
H17_3 C26_3 1_555 1_555
C29_3 C24_3 1_555 1_555
H19_3 C29_3 1_555 1_555
C12_4 C13_4 1_555 1_555
C17_4 C18_4 1_555 1_555
O5_2 H1_2 1_555 1_555
C27_2 O5_2 1_555 1_555
C28_2 C27_2 1_555 1_555
H18_2 C28_2 1_555 1_555
O5_3 H1_3 1_555 1_555
C24_4 C16_4 1_555 1_555
C25_4 C24_4 1_555 1_555
H16_4 C25_4 1_555 1_555
C26_4 C25_4 1_555 1_555
H17_4 C26_4 1_555 1_555
C27_3 O5_3 1_555 1_555
C28_3 C27_3 1_555 1_555
H18_3 C28_3 1_555 1_555
C29_4 C24_4 1_555 1_555
H19_4 C29_4 1_555 1_555
C26_4 C27_3 1_555 1_555
C28_3 C29_4 1_555 1_555
O5_4 H1_4 1_555 1_555
C27_4 O5_4 1_555 1_555
C28_4 C27_4 1_555 1_555
H18_4 C28_4 1_555 1_555

#END
