
###############################################################################
#
# This file contains modified crystal structure data generated from the
# MOF subset of the Cambridge Structural Database (CSD) v543 
# hosted by the Cambridge Crystallographic Data Centre (CCDC).
#
# This work is licensed under the Creative Commons
# Attribution-NonCommercial-ShareAlike 4.0 International License.
# To view a copy of this license, visit
# http://creativecommons.org/licenses/by-nc-sa/4.0/
# or send a letter to
# Creative Commons, PO Box 1866, Mountain View, CA 94042, USA.
#
# CIF created using the CSD Python API on 29 September 2022
# The structure has been converted into the P1 space group
# The structure has a 3D framework
# The original CSD entry SICRUU is in the rhombohedral crystal system
# The framework has been calculated to contain at least 10.0% void space
# The void calculation uses a probe of radius 1.32A, grid spacing 0.4
#
###############################################################################

data_SICRUU
_chemical_formula_moiety         '(C72 H18 Co18 O50)n'
_symmetry_cell_setting           triclinic
_symmetry_space_group_name_H-M   'P 1'
_symmetry_Int_Tables_number      1
_space_group_name_Hall           'P 1'
loop_
_symmetry_equiv_pos_site_id
_symmetry_equiv_pos_as_xyz
1 x,y,z
_cell_length_a                   25.8977(9)
_cell_length_b                   25.8977(9)
_cell_length_c                   6.7599(3)
_cell_angle_alpha                90
_cell_angle_beta                 90
_cell_angle_gamma                120
_cell_volume                     3926.39
loop_
_atom_site_label
_atom_site_type_symbol
_atom_site_fract_x
_atom_site_fract_y
_atom_site_fract_z
O7 O 0.2549(2) 0.3274(3) 0.0949(7)
O8 O 0.0725(4) 0.3274(3) 0.0949(7)
O13 O 0.3712(4) 0.3553(2) 0.1178(6)
Co1 Co 0.32505(4) 0.37333(6) 0.90769(10)
O2 O 0.3114(2) 0.3493(3) 0.4511(6)
O3 O 0.2831(2) 0.3884(3) 0.6894(6)
C1 C 0.2179(3) 0.3407(4) 0.1909(8)
C2 C 0.2266(3) 0.3594(4) 0.3952(8)
C3 C 0.18469(19) 0.36937(27) 0.4858(12)
H1 H 0.191893 0.383785 0.618018
C4 C 0.16705(18) 0.33409(25) 0.0945(12)
C5 C 0.2763(3) 0.3665(4) 0.5196(8)
O5 O 0.0379(4) 0.3493(3) 0.4511(6)
O6 O 0.1053(4) 0.3884(3) 0.6894(6)
C6 C 0.1228(5) 0.3407(4) 0.1909(8)
C7 C 0.1328(5) 0.3594(4) 0.3952(8)
C8 C 0.0902(5) 0.3665(4) 0.5196(8)
Co2 Co 0.04828(7) 0.37333(6) 0.90769(10)
Co5 Co 0.29334(6) 0.28505(7) 0.24102(10)
Co7 Co 0.38161(7) 0.34162(4) 0.57436(10)
O9 O 0.4058(4) 0.4118(2) 0.7616(7)
O10 O 0.0059(3) 0.4118(2) 0.7616(7)
O11 O 0.3174(3) 0.2954(4) 0.7844(6)
H2 H 0.162319 0.324637 0.957591
O14 O 0.9840(3) 0.3553(2) 0.1178(6)
Co6 Co 0.99172(4) 0.28505(7) 0.24102(10)
Co8 Co 0.96000(6) 0.34162(4) 0.57436(10)
O12 O 0.9781(2) 0.2954(4) 0.7844(6)
O13_2 O 0.6447(2) 0.0160(4) 0.1178(6)
Co5_2 Co 0.71495(7) 0.00828(9) 0.24102(10)
Co7_2 Co 0.65838(4) 0.04000(8) 0.57436(10)
O11_2 O 0.7046(4) 0.0219(5) 0.7844(6)
O7_2 O 0.6726(3) 0.9275(4) 0.0949(7)
O8_2 O 0.6726(3) 0.7451(5) 0.0949(7)
O14_2 O 0.6447(2) 0.6288(4) 0.1178(6)
Co1_2 Co 0.62667(6) 0.95172(7) 0.90769(10)
O2_2 O 0.6507(3) 0.9621(4) 0.4511(6)
O3_2 O 0.6116(3) 0.8947(4) 0.6894(6)
C1_2 C 0.6593(4) 0.8772(5) 0.1909(8)
C2_2 C 0.6406(4) 0.8672(5) 0.3952(8)
C3_2 C 0.63063(27) 0.81532(33) 0.4858(12)
H1_2 H 0.616215 0.808108 0.618018
C4_2 C 0.66591(25) 0.83296(31) 0.0945(12)
C5_2 C 0.6335(4) 0.9098(5) 0.5196(8)
O5_2 O 0.6507(3) 0.6886(5) 0.4511(6)
O6_2 O 0.6116(3) 0.7169(5) 0.6894(6)
C6_2 C 0.6593(4) 0.7821(6) 0.1909(8)
C7_2 C 0.6406(4) 0.7734(6) 0.3952(8)
C8_2 C 0.6335(4) 0.7237(6) 0.5196(8)
Co2_2 Co 0.62667(6) 0.67495(9) 0.90769(10)
Co6_2 Co 0.71495(7) 0.70666(8) 0.24102(10)
Co8_2 Co 0.65838(4) 0.61839(7) 0.57436(10)
O9_2 O 0.5882(2) 0.9941(4) 0.7616(7)
O10_2 O 0.5882(2) 0.5942(4) 0.7616(7)
O12_2 O 0.7046(4) 0.6826(4) 0.7844(6)
H2_2 H 0.675363 0.837682 0.957591
O14_3 O 0.3712(4) 0.0160(3) 0.1178(6)
Co6_3 Co 0.29334(8) 0.00828(4) 0.24102(10)
Co8_3 Co 0.38161(7) 0.04000(6) 0.57436(10)
O12_3 O 0.3174(4) 0.0219(2) 0.7844(6)
O7_3 O 0.0725(4) 0.7451(2) 0.0949(7)
O8_3 O 0.2549(5) 0.9275(4) 0.0949(7)
Co1_3 Co 0.04828(7) 0.67495(4) 0.90769(10)
O2_3 O 0.0379(4) 0.6886(2) 0.4511(6)
O3_3 O 0.1053(4) 0.7169(2) 0.6894(6)
C1_3 C 0.1228(5) 0.7821(3) 0.1909(8)
C2_3 C 0.1328(5) 0.7734(3) 0.3952(8)
C3_3 C 0.18468(33) 0.81531(19) 0.4858(12)
H1_3 H 0.191892 0.808107 0.618018
C4_3 C 0.16704(31) 0.83295(18) 0.0945(12)
C5_3 C 0.0902(5) 0.7237(3) 0.5196(8)
O5_3 O 0.3114(5) 0.9621(4) 0.4511(6)
O6_3 O 0.2831(5) 0.8947(4) 0.6894(6)
C6_3 C 0.2179(6) 0.8772(5) 0.1909(8)
C7_3 C 0.2266(6) 0.8672(5) 0.3952(8)
C8_3 C 0.2763(6) 0.9098(5) 0.5196(8)
Co2_3 Co 0.32505(9) 0.95172(7) 0.90769(10)
O9_3 O 0.0059(4) 0.5942(4) 0.7616(7)
O10_3 O 0.4058(4) 0.9941(3) 0.7616(7)
H2_3 H 0.162318 0.837681 0.957591
O13_3 O 0.9840(4) 0.6288(4) 0.1178(6)
Co5_3 Co 0.99172(9) 0.70666(6) 0.24102(10)
Co7_3 Co 0.96000(8) 0.61839(7) 0.57436(10)
O11_3 O 0.9781(5) 0.6826(3) 0.7844(6)
O3_4 O 0.9498(2) 0.7217(3) 0.0227(6)
O6_4 O 0.7720(4) 0.7217(3) 0.0227(6)
O7_4 O 0.9216(2) 0.6607(3) 0.4282(7)
O8_4 O 0.7392(4) 0.6607(3) 0.4282(7)
C1_4 C 0.8846(3) 0.6740(4) 0.5242(8)
C2_4 C 0.8933(3) 0.6927(4) 0.7285(8)
C3_4 C 0.85136(19) 0.70270(27) 0.8191(12)
H1_4 H 0.858560 0.717118 0.951351
C4_4 C 0.83372(18) 0.66742(25) 0.4278(12)
H2_4 H 0.828986 0.657970 0.290924
C5_4 C 0.9430(3) 0.6998(4) 0.8529(8)
C6_4 C 0.7895(5) 0.6740(4) 0.5242(8)
C7_4 C 0.7995(5) 0.6927(4) 0.7285(8)
C8_4 C 0.7569(5) 0.6998(4) 0.8529(8)
O3_5 O 0.2783(3) 0.2280(4) 0.0227(6)
O6_5 O 0.2783(3) 0.0502(5) 0.0227(6)
O7_5 O 0.3393(3) 0.2608(4) 0.4282(7)
O8_5 O 0.3393(3) 0.0784(5) 0.4282(7)
C1_5 C 0.3260(4) 0.2105(5) 0.5242(8)
C2_5 C 0.3073(4) 0.2005(5) 0.7285(8)
C3_5 C 0.29730(27) 0.14865(33) 0.8191(12)
H1_5 H 0.282882 0.141441 0.951351
C4_5 C 0.33258(25) 0.16629(31) 0.4278(12)
H2_5 H 0.342030 0.171015 0.290924
C5_5 C 0.3002(4) 0.2431(5) 0.8529(8)
C6_5 C 0.3260(4) 0.1154(6) 0.5242(8)
C7_5 C 0.3073(4) 0.1067(6) 0.7285(8)
C8_5 C 0.3002(4) 0.0570(6) 0.8529(8)
O3_6 O 0.7720(4) 0.0502(2) 0.0227(6)
O6_6 O 0.9498(5) 0.2280(4) 0.0227(6)
O7_6 O 0.7392(4) 0.0784(2) 0.4282(7)
O8_6 O 0.9216(5) 0.2608(4) 0.4282(7)
C1_6 C 0.7895(5) 0.1154(3) 0.5242(8)
C2_6 C 0.7995(5) 0.1067(3) 0.7285(8)
C3_6 C 0.85135(33) 0.14864(19) 0.8191(12)
H1_6 H 0.858559 0.141440 0.951351
C4_6 C 0.83371(31) 0.16628(18) 0.4278(12)
H2_6 H 0.828985 0.171014 0.290924
C5_6 C 0.7569(5) 0.0570(3) 0.8529(8)
C6_6 C 0.8846(6) 0.2105(5) 0.5242(8)
C7_6 C 0.8933(6) 0.2005(5) 0.7285(8)
C8_6 C 0.9430(6) 0.2431(5) 0.8529(8)
O3_7 O 0.6164(2) 0.0551(3) 0.3561(6)
C2_7 C 0.5599(3) 0.0261(4) 0.0619(8)
C3_7 C 0.51802(19) 0.03604(27) 0.1525(12)
H1_7 H 0.525226 0.050452 0.284685
C5_7 C 0.6096(3) 0.0332(4) 0.1863(8)
O6_7 O 0.4386(4) 0.0551(3) 0.3561(6)
C7_7 C 0.4661(5) 0.0261(4) 0.0619(8)
C8_7 C 0.4235(5) 0.0332(4) 0.1863(8)
C1_7 C 0.5512(3) 0.0074(4) 0.8576(8)
C4_7 C 0.50038(18) 0.00076(25) 0.7612(12)
C6_7 C 0.4561(5) 0.0074(4) 0.8576(8)
H2_7 H 0.495652 0.991304 0.624258
H2_8 H 0.008696 0.504349 0.624258
O3_8 O 0.9449(3) 0.5614(4) 0.3561(6)
C2_8 C 0.9739(4) 0.5339(5) 0.0619(8)
C3_8 C 0.96396(27) 0.48199(33) 0.1525(12)
H1_8 H 0.949548 0.474775 0.284685
C5_8 C 0.9668(4) 0.5765(5) 0.1863(8)
O6_8 O 0.9449(3) 0.3836(5) 0.3561(6)
C7_8 C 0.9739(4) 0.4401(6) 0.0619(8)
C8_8 C 0.9668(4) 0.3904(6) 0.1863(8)
C1_8 C 0.9926(4) 0.5439(5) 0.8576(8)
C4_8 C 0.99924(25) 0.49963(31) 0.7612(12)
C6_8 C 0.9926(4) 0.4488(6) 0.8576(8)
O3_9 O 0.4386(4) 0.3836(2) 0.3561(6)
C2_9 C 0.4661(5) 0.4401(3) 0.0619(8)
C3_9 C 0.51801(33) 0.48198(19) 0.1525(12)
H1_9 H 0.525225 0.474774 0.284685
C5_9 C 0.4235(5) 0.3904(3) 0.1863(8)
O6_9 O 0.6164(5) 0.5614(4) 0.3561(6)
C7_9 C 0.5599(6) 0.5339(5) 0.0619(8)
C8_9 C 0.6096(6) 0.5765(5) 0.1863(8)
C1_9 C 0.4561(5) 0.4488(3) 0.8576(8)
C4_9 C 0.50037(31) 0.49962(18) 0.7612(12)
H2_9 H 0.495651 0.504348 0.624258
C6_9 C 0.5512(6) 0.5439(5) 0.8576(8)
loop_
_geom_bond_atom_site_label_1
_geom_bond_atom_site_label_2
_geom_bond_site_symmetry_1
_geom_bond_site_symmetry_2
Co1 O3 1_555 1_555
O7 C1 1_555 1_555
O2 C5 1_555 1_555
O3 C5 1_555 1_555
C1 C2 1_555 1_555
C2 C3 1_555 1_555
C3 H1 1_555 1_555
C4 C1 1_555 1_555
C5 C2 1_555 1_555
O8 C6 1_555 1_555
O5 C8 1_555 1_555
O6 C8 1_555 1_555
C6 C4 1_555 1_555
C7 C3 1_555 1_555
C8 C7 1_555 1_555
Co2 O6 1_555 1_555
Co5 O7 1_555 1_555
Co7 O2 1_555 1_555
O9 Co1 1_555 1_555
O10 Co2 1_555 1_555
O11 Co1 1_555 1_555
O2 Co5 1_555 1_555
C6 C7 1_555 1_555
Co7 O9 1_555 1_555
Co7 O11 1_555 1_555
Co8 O12 1_555 1_555
Co7_2 O11_2 1_555 1_555
Co1_2 O3_2 1_555 1_555
O7_2 C1_2 1_555 1_555
O2_2 C5_2 1_555 1_555
O3_2 C5_2 1_555 1_555
C1_2 C2_2 1_555 1_555
C2_2 C3_2 1_555 1_555
C3_2 H1_2 1_555 1_555
C4_2 C1_2 1_555 1_555
C5_2 C2_2 1_555 1_555
O8_2 C6_2 1_555 1_555
O5_2 C8_2 1_555 1_555
O6_2 C8_2 1_555 1_555
C6_2 C4_2 1_555 1_555
C7_2 C3_2 1_555 1_555
C8_2 C7_2 1_555 1_555
Co2_2 O6_2 1_555 1_555
Co6_2 O8_2 1_555 1_555
Co8_2 O5_2 1_555 1_555
O9_2 Co1_2 1_555 1_555
O10_2 Co2_2 1_555 1_555
O12_2 Co2_2 1_555 1_555
O5_2 Co6_2 1_555 1_555
C6_2 C7_2 1_555 1_555
Co8_2 O10_2 1_555 1_555
Co8_2 O12_2 1_555 1_555
Co8_3 O12_3 1_555 1_555
Co1_3 O3_3 1_555 1_555
O7_3 C1_3 1_555 1_555
O2_3 C5_3 1_555 1_555
O3_3 C5_3 1_555 1_555
C1_3 C2_3 1_555 1_555
C2_3 C3_3 1_555 1_555
C3_3 H1_3 1_555 1_555
C4_3 C1_3 1_555 1_555
C5_3 C2_3 1_555 1_555
O8_3 C6_3 1_555 1_555
O5_3 C8_3 1_555 1_555
O6_3 C8_3 1_555 1_555
C6_3 C4_3 1_555 1_555
C7_3 C3_3 1_555 1_555
C8_3 C7_3 1_555 1_555
Co2_3 O6_3 1_555 1_555
O9_3 Co1_3 1_555 1_555
O10_3 Co2_3 1_555 1_555
C6_3 C7_3 1_555 1_555
Co7_3 O11_3 1_555 1_555
Co5_3 O3_4 1_555 1_555
Co6_2 O6_4 1_555 1_555
O7_4 Co5_3 1_555 1_555
O8_4 Co6_2 1_555 1_555
O13_3 Co5_3 1_555 1_555
O14_2 Co6_2 1_555 1_555
O7_4 C1_4 1_555 1_555
O11_3 C5_4 1_555 1_555
C1_4 C2_4 1_555 1_555
C2_4 C3_4 1_555 1_555
C3_4 H1_4 1_555 1_555
C4_4 C1_4 1_555 1_555
H2_4 C4_4 1_555 1_555
C5_4 C2_4 1_555 1_555
O8_4 C6_4 1_555 1_555
O12_2 C8_4 1_555 1_555
C6_4 C4_4 1_555 1_555
C7_4 C3_4 1_555 1_555
C8_4 C7_4 1_555 1_555
Co7_3 O7_4 1_555 1_555
Co8_2 O8_4 1_555 1_555
C6_4 C7_4 1_555 1_555
Co5 O3_5 1_555 1_555
Co6_3 O6_5 1_555 1_555
O7_5 Co5 1_555 1_555
O8_5 Co6_3 1_555 1_555
O13 Co5 1_555 1_555
O14_3 Co6_3 1_555 1_555
O7_5 C1_5 1_555 1_555
O11 C5_5 1_555 1_555
C1_5 C2_5 1_555 1_555
C2_5 C3_5 1_555 1_555
C3_5 H1_5 1_555 1_555
C4_5 C1_5 1_555 1_555
H2_5 C4_5 1_555 1_555
C5_5 C2_5 1_555 1_555
O8_5 C6_5 1_555 1_555
O12_3 C8_5 1_555 1_555
C6_5 C4_5 1_555 1_555
C7_5 C3_5 1_555 1_555
C8_5 C7_5 1_555 1_555
Co7 O7_5 1_555 1_555
Co8_3 O8_5 1_555 1_555
C6_5 C7_5 1_555 1_555
Co5_2 O3_6 1_555 1_555
Co6 O6_6 1_555 1_555
O7_6 Co5_2 1_555 1_555
O8_6 Co6 1_555 1_555
O13_2 Co5_2 1_555 1_555
O14 Co6 1_555 1_555
O7_6 C1_6 1_555 1_555
O11_2 C5_6 1_555 1_555
C1_6 C2_6 1_555 1_555
C2_6 C3_6 1_555 1_555
C3_6 H1_6 1_555 1_555
C4_6 C1_6 1_555 1_555
H2_6 C4_6 1_555 1_555
C5_6 C2_6 1_555 1_555
O8_6 C6_6 1_555 1_555
O12 C8_6 1_555 1_555
C6_6 C4_6 1_555 1_555
C7_6 C3_6 1_555 1_555
C8_6 C7_6 1_555 1_555
Co7_2 O7_6 1_555 1_555
Co8 O8_6 1_555 1_555
C6_6 C7_6 1_555 1_555
Co7_2 O3_7 1_555 1_555
O13_2 C5_7 1_555 1_555
O3_7 C5_7 1_555 1_555
C2_7 C3_7 1_555 1_555
C3_7 H1_7 1_555 1_555
C5_7 C2_7 1_555 1_555
O14_3 C8_7 1_555 1_555
O6_7 C8_7 1_555 1_555
C7_7 C3_7 1_555 1_555
C8_7 C7_7 1_555 1_555
Co8_3 O6_7 1_555 1_555
C4_7 C1_7 1_555 1_555
C6_7 C4_7 1_555 1_555
Co7_3 O3_8 1_555 1_555
O13_3 C5_8 1_555 1_555
O3_8 C5_8 1_555 1_555
C2_8 C3_8 1_555 1_555
C3_8 H1_8 1_555 1_555
C5_8 C2_8 1_555 1_555
O14 C8_8 1_555 1_555
O6_8 C8_8 1_555 1_555
C7_8 C3_8 1_555 1_555
C8_8 C7_8 1_555 1_555
Co8 O6_8 1_555 1_555
C4_8 C1_8 1_555 1_555
C6_8 C4_8 1_555 1_555
Co7 O3_9 1_555 1_555
O13 C5_9 1_555 1_555
O3_9 C5_9 1_555 1_555
C2_9 C3_9 1_555 1_555
C3_9 H1_9 1_555 1_555
C5_9 C2_9 1_555 1_555
O14_2 C8_9 1_555 1_555
O6_9 C8_9 1_555 1_555
C7_9 C3_9 1_555 1_555
C8_9 C7_9 1_555 1_555
Co8_2 O6_9 1_555 1_555
O9 C1_9 1_555 1_555
C4_9 C1_9 1_555 1_555
H2_9 C4_9 1_555 1_555
O10_2 C6_9 1_555 1_555
C6_9 C4_9 1_555 1_555

#END
