
###############################################################################
#
# This file contains modified crystal structure data generated from the
# MOF subset of the Cambridge Structural Database (CSD) v543 
# hosted by the Cambridge Crystallographic Data Centre (CCDC).
#
# This work is licensed under the Creative Commons
# Attribution-NonCommercial-ShareAlike 4.0 International License.
# To view a copy of this license, visit
# http://creativecommons.org/licenses/by-nc-sa/4.0/
# or send a letter to
# Creative Commons, PO Box 1866, Mountain View, CA 94042, USA.
#
# CIF created using the CSD Python API on 29 September 2022
# The structure has been converted into the P1 space group
# The structure has a 3D framework
# The original CSD entry SIGMAZ is in the monoclinic crystal system
# The framework has been calculated to contain at least 10.0% void space
# The void calculation uses a probe of radius 1.32A, grid spacing 0.4
#
###############################################################################

data_SIGMAZ
_chemical_formula_moiety         '(C72 H48 Mn2 N8 O16 S4)n'
_symmetry_cell_setting           triclinic
_symmetry_space_group_name_H-M   'P 1'
_symmetry_Int_Tables_number      1
_space_group_name_Hall           'P 1'
loop_
_symmetry_equiv_pos_site_id
_symmetry_equiv_pos_as_xyz
1 x,y,z
_cell_length_a                   9.4072(6)
_cell_length_b                   18.7105(13)
_cell_length_c                   11.1796(8)
_cell_angle_alpha                90
_cell_angle_beta                 95.525(4)
_cell_angle_gamma                90
_cell_volume                     1958.62
loop_
_atom_site_label
_atom_site_type_symbol
_atom_site_fract_x
_atom_site_fract_y
_atom_site_fract_z
N3 N 0.2673(3) 0.56584(14) 0.0461(2)
O3 O 0.9435(2) 0.58185(13) 0.9868(2)
N2 N 0.9311(3) 0.54846(16) 0.7276(3)
C4 C 0.3561(4) 0.5133(2) 0.0815(3)
H2 H 0.3560 0.4713 0.0337
H3 H 0.9558 0.7287 0.9741
C6 C 0.4535(4) 0.5775(2) 0.2566(3)
C9 C 0.7326(4) 0.5440(2) 0.5252(3)
C10 C 0.8412(4) 0.6021(2) 0.7040(4)
H4 H 0.8449 0.6417 0.7574
C11 C 0.2686(4) 0.6241(2) 0.1159(3)
H5 H 0.2036 0.6616 0.0929
C12 C 0.3591(4) 0.6325(2) 0.2189(3)
H6 H 0.3576 0.6754 0.2642
C13 C 0.9218(4) 0.4926(2) 0.6528(3)
H7 H 0.9855 0.4537 0.6697
C14 C 0.6341(4) 0.5377(2) 0.4154(3)
H8 H 0.6331 0.4935 0.3737
C15 C 0.4497(4) 0.5172(2) 0.1857(4)
H9 H 0.5110 0.4781 0.2080
C16 C 0.8250(4) 0.4883(2) 0.5526(3)
H10 H 0.8221 0.4471 0.5028
C17 C 0.7412(4) 0.6025(3) 0.6035(4)
H11 H 0.6792 0.6422 0.5883
C18 C 0.5468(4) 0.5881(2) 0.3695(3)
H12 H 0.5438 0.6326 0.4102
Mn1 Mn 0.10839(5) 0.55677(2) 0.88077(4)
O5 O 0.1616(3) 0.44791(11) 0.8504(2)
O6 O 0.1432(2) 0.67670(12) 0.8417(2)
O7 O 0.2545(3) 0.59349(12) 0.7456(2)
S1 S 0.76507(9) 0.69793(4) 0.22120(7)
O1 O 0.8384(3) 0.55209(11) 0.1496(2)
O2 O 0.6432(2) 0.82330(12) 0.3417(2)
O4 O 0.7545(3) 0.90651(12) 0.2456(2)
C1 C 0.8833(3) 0.59688(16) 0.0787(3)
C2 C 0.8616(4) 0.79674(17) 0.0927(3)
H1 H 0.8840 0.8424 0.0625
C3 C 0.7859(4) 0.78691(16) 0.1893(3)
C5 C 0.9033(4) 0.73173(17) 0.0424(3)
C7 C 0.7234(3) 0.84227(16) 0.2641(3)
C8 C 0.8592(3) 0.67334(16) 0.1036(3)
Mn3 Mn 0.89161(5) 0.44323(2) 0.11923(4)
Mn4 Mn 0.60839(5) 0.94323(2) 0.38077(4)
N1 N 0.2327(3) 0.06584(14) 0.4539(2)
C4_2 C 0.1439(4) 0.0133(2) 0.4185(3)
C6_2 C 0.0465(4) 0.0775(2) 0.2434(3)
C11_2 C 0.2314(4) 0.1241(2) 0.3841(3)
H5_2 H 0.2964 0.1616 0.4071
C12_2 C 0.1409(4) 0.1325(2) 0.2811(3)
H6_2 H 0.1424 0.1754 0.2358
C15_2 C 0.0503(4) 0.0172(2) 0.3143(4)
Mn2 Mn 0.39161(5) 0.05677(2) 0.61923(4)
S1_2 S 0.73493(9) 0.19793(4) 0.27880(7)
O1_2 O 0.6616(3) 0.05209(11) 0.3504(2)
O2_2 O 0.8568(2) 0.32330(12) 0.1583(2)
O3_2 O 0.5565(2) 0.08185(13) 0.5132(2)
O4_2 O 0.7455(3) 0.40651(12) 0.2544(2)
N2_2 N 0.5689(3) 0.04846(16) 0.7724(3)
C1_2 C 0.6167(3) 0.09688(16) 0.4213(3)
C2_2 C 0.6384(4) 0.29674(17) 0.4073(3)
H1_2 H 0.6160 0.3424 0.4375
C3_2 C 0.7141(4) 0.28691(16) 0.3107(3)
C5_2 C 0.5967(4) 0.23173(17) 0.4576(3)
H3_2 H 0.5442 0.2287 0.5259
C7_2 C 0.7766(3) 0.34227(16) 0.2359(3)
C8_2 C 0.6408(3) 0.17334(16) 0.3964(3)
C9_2 C 0.7674(4) 0.0440(2) 0.9748(3)
C10_2 C 0.6588(4) 0.1021(2) 0.7960(4)
H4_2 H 0.6551 0.1417 0.7426
C17_2 C 0.7588(4) 0.1025(3) 0.8965(4)
H11_2 H 0.8208 0.1422 0.9117
O6_2 O 0.3568(2) 0.17670(12) 0.6583(2)
O7_2 O 0.2455(3) 0.09349(12) 0.7544(2)
C13_2 C 0.5782(4) 0.9926(2) 0.8472(3)
H7_2 H 0.5145 0.9537 0.8303
C16_2 C 0.6750(4) 0.9883(2) 0.9474(3)
H10_2 H 0.6779 0.9471 0.9972
O5_2 O 0.3384(3) 0.94791(11) 0.6496(2)
S1_3 S 0.23493(9) 0.30207(4) 0.77880(7)
C1_3 C 0.1167(3) 0.40312(16) 0.9213(3)
C2_3 C 0.1384(4) 0.20326(17) 0.9073(3)
H1_3 H 0.1160 0.1576 0.9375
C3_3 C 0.2141(4) 0.21309(16) 0.8107(3)
C5_3 C 0.0967(4) 0.26827(17) 0.9576(3)
C7_3 C 0.2766(3) 0.15773(16) 0.7359(3)
C8_3 C 0.1408(3) 0.32666(16) 0.8964(3)
C13_3 C 0.4218(4) 0.0074(2) 0.1528(3)
H7_3 H 0.4855 0.0463 0.1697
C16_3 C 0.3250(4) 0.0117(2) 0.0526(3)
H10_3 H 0.3221 0.0529 0.0028
S1_4 S 0.26507(9) 0.80207(4) 0.72120(7)
O3_3 O 0.4435(2) 0.91815(13) 0.4868(2)
N2_3 N 0.4311(3) 0.95154(16) 0.2276(3)
C1_4 C 0.3833(3) 0.90312(16) 0.5787(3)
C2_4 C 0.3616(4) 0.70326(17) 0.5927(3)
H1_4 H 0.3840 0.6576 0.5625
C3_4 C 0.2859(4) 0.71309(16) 0.6893(3)
C5_4 C 0.4033(4) 0.76827(17) 0.5424(3)
H3_3 H 0.4558 0.7713 0.4741
C7_4 C 0.2234(3) 0.65773(16) 0.7641(3)
C8_4 C 0.3592(3) 0.82666(16) 0.6036(3)
C9_3 C 0.2326(4) 0.9560(2) 0.0252(3)
C10_3 C 0.3412(4) 0.8979(2) 0.2040(4)
H4_3 H 0.3449 0.8583 0.2574
C17_3 C 0.2412(4) 0.8975(3) 0.1035(4)
H11_3 H 0.1792 0.8578 0.0883
N3_2 N 0.7673(3) 0.93416(14) 0.5461(2)
C4_3 C 0.8561(4) 0.9867(2) 0.5815(3)
C6_3 C 0.9535(4) 0.9225(2) 0.7566(3)
C11_3 C 0.7686(4) 0.8759(2) 0.6159(3)
H5_3 H 0.7036 0.8384 0.5929
C12_3 C 0.8591(4) 0.8675(2) 0.7189(3)
H6_3 H 0.8576 0.8246 0.7642
C15_3 C 0.9497(4) 0.9828(2) 0.6857(4)
H2_2 H 0.1440 0.9713 0.4663
C14_2 C 0.8659(4) 0.0377(2) 0.0846(3)
C18_2 C 0.9532(4) 0.0881(2) 0.1305(3)
H12_2 H 0.9562 0.1326 0.0898
H8_2 H 0.8669 0.9935 0.1263
H9_2 H 0.9890 0.9781 0.2920
O3_4 O 0.0565(2) 0.41815(13) 0.0132(2)
N1_2 N 0.7327(3) 0.43416(14) 0.9539(2)
N2_4 N 0.0689(3) 0.45154(16) 0.2724(3)
C4_4 C 0.6439(4) 0.4867(2) 0.9185(3)
H2_3 H 0.6440 0.5287 0.9663
H3_4 H 0.0442 0.2713 0.0259
C6_4 C 0.5465(4) 0.4225(2) 0.7434(3)
C9_4 C 0.2674(4) 0.4560(2) 0.4748(3)
C10_4 C 0.1588(4) 0.3979(2) 0.2960(4)
H4_4 H 0.1551 0.3583 0.2426
C11_4 C 0.7314(4) 0.3759(2) 0.8841(3)
H5_4 H 0.7964 0.3384 0.9071
C12_4 C 0.6409(4) 0.3675(2) 0.7811(3)
H6_4 H 0.6424 0.3246 0.7358
C13_4 C 0.0782(4) 0.5074(2) 0.3472(3)
H7_4 H 0.0145 0.5463 0.3303
C14_3 C 0.3659(4) 0.4623(2) 0.5846(3)
H8_3 H 0.3669 0.5065 0.6263
C15_4 C 0.5503(4) 0.4828(2) 0.8143(4)
H9_3 H 0.4890 0.5219 0.7920
C16_4 C 0.1750(4) 0.5117(2) 0.4474(3)
H10_4 H 0.1779 0.5529 0.4972
C17_4 C 0.2588(4) 0.3975(3) 0.3965(4)
H11_4 H 0.3208 0.3578 0.4117
C18_3 C 0.4532(4) 0.4119(2) 0.6305(3)
H12_3 H 0.4562 0.3674 0.5898
H8_4 H 0.1331 0.0065 0.8737
H9_4 H 0.0110 0.0219 0.7080
C14_4 C 0.1341(4) 0.9623(2) 0.9154(3)
C18_4 C 0.0468(4) 0.9119(2) 0.8695(3)
H12_4 H 0.0438 0.8674 0.9102
H2_4 H 0.8560 0.0287 0.5337
loop_
_geom_bond_atom_site_label_1
_geom_bond_atom_site_label_2
_geom_bond_site_symmetry_1
_geom_bond_site_symmetry_2
N3 C4 1_555 1_555
C4 H2 1_555 1_555
C6 C12 1_555 1_555
C9 C14 1_555 1_555
C10 N2 1_555 1_555
H4 C10 1_555 1_555
C11 N3 1_555 1_555
H5 C11 1_555 1_555
C12 C11 1_555 1_555
H6 C12 1_555 1_555
C13 N2 1_555 1_555
H7 C13 1_555 1_555
C14 H8 1_555 1_555
C15 C4 1_555 1_555
H9 C15 1_555 1_555
C16 C9 1_555 1_555
H10 C16 1_555 1_555
C17 C9 1_555 1_555
H11 C17 1_555 1_555
C18 C6 1_555 1_555
H12 C18 1_555 1_555
C6 C15 1_555 1_555
C10 C17 1_555 1_555
C13 C16 1_555 1_555
C14 C18 1_555 1_555
O5 Mn1 1_555 1_555
O6 Mn1 1_555 1_555
O7 Mn1 1_555 1_555
S1 C3 1_555 1_555
O1 C1 1_555 1_555
O2 C7 1_555 1_555
O4 C7 1_555 1_555
C1 C8 1_555 1_555
C2 H1 1_555 1_555
C3 C2 1_555 1_555
C5 C2 1_555 1_555
C7 C3 1_555 1_555
C8 S1 1_555 1_555
Mn3 O1 1_555 1_555
Mn4 O2 1_555 1_555
O4 Mn4 1_555 1_555
C5 C8 1_555 1_555
N1 C4_2 1_555 1_555
C6_2 C12_2 1_555 1_555
C11_2 N1 1_555 1_555
H5_2 C11_2 1_555 1_555
C12_2 C11_2 1_555 1_555
H6_2 C12_2 1_555 1_555
C15_2 C4_2 1_555 1_555
Mn2 N1 1_555 1_555
C6_2 C15_2 1_555 1_555
Mn2 O3_2 1_555 1_555
S1_2 C3_2 1_555 1_555
O1_2 C1_2 1_555 1_555
O2_2 C7_2 1_555 1_555
O3_2 C1_2 1_555 1_555
O4_2 C7_2 1_555 1_555
N2_2 Mn2 1_555 1_555
C1_2 C8_2 1_555 1_555
C2_2 H1_2 1_555 1_555
C3_2 C2_2 1_555 1_555
C5_2 C2_2 1_555 1_555
H3_2 C5_2 1_555 1_555
C7_2 C3_2 1_555 1_555
C8_2 S1_2 1_555 1_555
C10_2 N2_2 1_555 1_555
H4_2 C10_2 1_555 1_555
C17_2 C9_2 1_555 1_555
H11_2 C17_2 1_555 1_555
Mn3 O2_2 1_555 1_555
O6_2 Mn2 1_555 1_555
O7_2 Mn2 1_555 1_555
O4_2 Mn3 1_555 1_555
C5_2 C8_2 1_555 1_555
C10_2 C17_2 1_555 1_555
H7_2 C13_2 1_555 1_555
H10_2 C16_2 1_555 1_555
C13_2 C16_2 1_555 1_555
S1_3 C3_3 1_555 1_555
O5 C1_3 1_555 1_555
O6_2 C7_3 1_555 1_555
O7_2 C7_3 1_555 1_555
C1_3 C8_3 1_555 1_555
C2_3 H1_3 1_555 1_555
C3_3 C2_3 1_555 1_555
C5_3 C2_3 1_555 1_555
C7_3 C3_3 1_555 1_555
C8_3 S1_3 1_555 1_555
C5_3 C8_3 1_555 1_555
H7_3 C13_3 1_555 1_555
H10_3 C16_3 1_555 1_555
C13_3 C16_3 1_555 1_555
Mn4 O3_3 1_555 1_555
S1_4 C3_4 1_555 1_555
O5_2 C1_4 1_555 1_555
O6 C7_4 1_555 1_555
O3_3 C1_4 1_555 1_555
O7 C7_4 1_555 1_555
N2_3 Mn4 1_555 1_555
C1_4 C8_4 1_555 1_555
C2_4 H1_4 1_555 1_555
C3_4 C2_4 1_555 1_555
C5_4 C2_4 1_555 1_555
H3_3 C5_4 1_555 1_555
C7_4 C3_4 1_555 1_555
C8_4 S1_4 1_555 1_555
C10_3 N2_3 1_555 1_555
H4_3 C10_3 1_555 1_555
C17_3 C9_3 1_555 1_555
H11_3 C17_3 1_555 1_555
N3_2 Mn4 1_555 1_555
C5_4 C8_4 1_555 1_555
C10_3 C17_3 1_555 1_555
N3_2 C4_3 1_555 1_555
C6_3 C12_3 1_555 1_555
C11_3 N3_2 1_555 1_555
H5_3 C11_3 1_555 1_555
C12_3 C11_3 1_555 1_555
H6_3 C12_3 1_555 1_555
C15_3 C4_3 1_555 1_555
C6_3 C15_3 1_555 1_555
H12_2 C18_2 1_555 1_555
C14_2 C18_2 1_555 1_555
N1_2 C4_4 1_555 1_555
C4_4 H2_3 1_555 1_555
C6_4 C12_4 1_555 1_555
C9_4 C14_3 1_555 1_555
C10_4 N2_4 1_555 1_555
H4_4 C10_4 1_555 1_555
C11_4 N1_2 1_555 1_555
H5_4 C11_4 1_555 1_555
C12_4 C11_4 1_555 1_555
H6_4 C12_4 1_555 1_555
C13_4 N2_4 1_555 1_555
H7_4 C13_4 1_555 1_555
C14_3 H8_3 1_555 1_555
C15_4 C4_4 1_555 1_555
H9_3 C15_4 1_555 1_555
C16_4 C9_4 1_555 1_555
H10_4 C16_4 1_555 1_555
C17_4 C9_4 1_555 1_555
H11_4 C17_4 1_555 1_555
C18_3 C6_4 1_555 1_555
H12_3 C18_3 1_555 1_555
C6_4 C15_4 1_555 1_555
C10_4 C17_4 1_555 1_555
C13_4 C16_4 1_555 1_555
C14_3 C18_3 1_555 1_555
H12_4 C18_4 1_555 1_555
C14_4 C18_4 1_555 1_555

#END
