
###############################################################################
#
# This file contains modified crystal structure data generated from the
# MOF subset of the Cambridge Structural Database (CSD) v543 
# hosted by the Cambridge Crystallographic Data Centre (CCDC).
#
# This work is licensed under the Creative Commons
# Attribution-NonCommercial-ShareAlike 4.0 International License.
# To view a copy of this license, visit
# http://creativecommons.org/licenses/by-nc-sa/4.0/
# or send a letter to
# Creative Commons, PO Box 1866, Mountain View, CA 94042, USA.
#
# CIF created using the CSD Python API on 29 September 2022
# The structure has been converted into the P1 space group
# The structure has a 3D framework
# The original CSD entry SIJMOQ is in the monoclinic crystal system
# The framework has been calculated to contain at least 10.0% void space
# The void calculation uses a probe of radius 1.32A, grid spacing 0.4
# H atom positions have been added when not included in the experimental data
# Generated hydrogen atom positions removed from atoms on special positions
#
###############################################################################

data_SIJMOQ
_chemical_formula_moiety         '(C112 H100 N8 Ni8 O34)n'
_symmetry_cell_setting           triclinic
_symmetry_space_group_name_H-M   'P 1'
_symmetry_Int_Tables_number      1
_space_group_name_Hall           'P 1'
loop_
_symmetry_equiv_pos_site_id
_symmetry_equiv_pos_as_xyz
1 x,y,z
_cell_length_a                   15.224(6)
_cell_length_b                   11.113(4)
_cell_length_c                   19.333(7)
_cell_angle_alpha                90
_cell_angle_beta                 108.501(5)
_cell_angle_gamma                90
_cell_volume                     3101.8
loop_
_atom_site_label
_atom_site_type_symbol
_atom_site_fract_x
_atom_site_fract_y
_atom_site_fract_z
C8 C 0.5893(4) 0.0312(4) 0.2728(3)
Ni3 Ni 0.7500 0.16797(8) 0.2500
O3 O 0.6551(2) 0.0300(3) 0.2438(2)
O4 O 0.5524(3) 0.1184(3) 0.2872(2)
O9 O 0.6581(2) 0.3069(3) 0.23534(19)
Ni5 Ni 0.56799(5) 0.30345(6) 0.29095(4)
Ni10 Ni 0.7500 0.44713(8) 0.2500
O20 O 0.8449(2) 0.0300(3) 0.2562(2)
O25 O 0.7810(3) 0.1596(3) 0.36327(19)
O26 O 0.7190(3) 0.1596(3) 0.13673(19)
O29 O 0.8419(2) 0.3069(3) 0.26466(19)
C1 C 0.5546(3) 0.6940(4) 0.2899(3)
C2 C 0.4795(4) 0.6959(4) 0.3174(3)
H1 H 0.4542 0.6242 0.3271
C3 C 0.4435(4) 0.8045(4) 0.3299(3)
C4 C 0.4803(3) 0.9115(5) 0.3150(3)
H2 H 0.4554 0.9844 0.3233
C5 C 0.5541(3) 0.9106(4) 0.2877(3)
C6 C 0.5916(3) 0.8020(4) 0.2749(3)
H3 H 0.6410 0.8013 0.2563
C7 C 0.5967(4) 0.5759(4) 0.2793(3)
C9 C 0.3303(5) 0.9044(6) 0.3689(4)
H4 H 0.3013 0.9438 0.3225
H5 H 0.3781 0.9574 0.3985
C10 C 0.2583(5) 0.8834(6) 0.4068(4)
C11 C 0.1663(5) 0.9048(9) 0.3716(4)
H6 H 0.1464 0.9269 0.3227
C12 C 0.1035(5) 0.8935(9) 0.4091(4)
H7 H 0.0411 0.9095 0.3857
C13 C 0.1324(4) 0.8590(7) 0.4802(3)
H8 H 0.0897 0.8540 0.5055
C14 C 0.2244(4) 0.8311(5) 0.5157(3)
C15 C 0.2868(4) 0.8436(6) 0.4782(3)
H9 H 0.3489 0.8250 0.5011
C16 C 0.2588(4) 0.7956(5) 0.5949(3)
C17 C 0.3968(4) 0.4096(6) 0.1772(4)
H10 H 0.4021 0.4690 0.2122
C18 C 0.3258(5) 0.4185(7) 0.1115(4)
H11 H 0.2846 0.4827 0.1038
C19 C 0.3156(4) 0.3340(7) 0.0577(4)
C20 C 0.3821(5) 0.2412(7) 0.0731(4)
H12 H 0.3798 0.1821 0.0385
C21 C 0.4501(4) 0.2388(6) 0.1393(4)
H13 H 0.4936 0.1772 0.1478
H17 H 0.1985 0.1584 0.0009
C24 C 0.1181(4) 0.2607(6) 0.0437(3)
C25 C 0.1484(4) 0.2137(6) 0.1140(4)
H18 H 0.2019 0.1672 0.1291
C26 C 0.0984(4) 0.2363(6) 0.1613(4)
H19 H 0.1201 0.2035 0.2079
C28 C 0.0394(4) 0.3297(6) 0.0274(4)
N1 N 0.4583(3) 0.3185(4) 0.1925(3)
N2 N 0.0229(3) 0.3009(4) 0.1446(3)
O1 O 0.5732(3) 0.4860(3) 0.3094(2)
O2 O 0.6518(3) 0.5765(3) 0.2430(2)
O5 O 0.3702(3) 0.7973(4) 0.3572(2)
O6 O 0.3250(3) 0.7206(4) 0.6128(2)
O7 O 0.2190(3) 0.8404(3) 0.63673(19)
O8 O 0.7117(3) 0.4580(4) 0.1357(2)
C30 C 0.0205(4) 0.6959(4) 0.1826(3)
H22 H 0.0458 0.6242 0.1729
C31 C 0.0565(4) 0.8045(4) 0.1701(3)
C32 C 0.0197(3) 0.9115(5) 0.1850(3)
H23 H 0.0446 0.9844 0.1767
C37 C 0.1697(5) 0.9044(6) 0.1311(4)
H25 H 0.1987 0.9438 0.1775
H26 H 0.1219 0.9574 0.1015
C38 C 0.2417(5) 0.8834(6) 0.0932(4)
C39 C 0.3337(5) 0.9048(9) 0.1284(4)
H27 H 0.3536 0.9269 0.1773
C40 C 0.3965(5) 0.8935(9) 0.0909(4)
H28 H 0.4589 0.9095 0.1143
C41 C 0.3676(4) 0.8590(7) 0.0198(3)
C43 C 0.2132(4) 0.8436(6) 0.0218(3)
C45 C 0.1032(4) 0.4096(6) 0.3228(4)
H31 H 0.0979 0.4690 0.2878
C46 C 0.1742(5) 0.4185(7) 0.3885(4)
H32 H 0.2154 0.4827 0.3962
C47 C 0.1844(4) 0.3340(7) 0.4423(4)
C48 C 0.1179(5) 0.2412(7) 0.4269(4)
H33 H 0.1202 0.1821 0.4615
C49 C 0.0499(4) 0.2388(6) 0.3607(4)
H34 H 0.0064 0.1772 0.3522
C50 C 0.2651(5) 0.3309(7) 0.5124(4)
H35 H 0.2959 0.4085 0.5199
H36 H 0.2421 0.3164 0.5530
C51 C 0.3335(5) 0.2349(8) 0.5108(4)
H37 H 0.3790 0.2279 0.5588
H38 H 0.3015 0.1584 0.4991
C52 C 0.3819(4) 0.2607(6) 0.4563(3)
C53 C 0.3516(4) 0.2137(6) 0.3860(4)
H39 H 0.2981 0.1672 0.3709
C54 C 0.4016(4) 0.2363(6) 0.3387(4)
H40 H 0.3799 0.2035 0.2921
C55 C 0.5059(5) 0.3492(6) 0.4215(4)
H41 H 0.5583 0.3978 0.4341
C56 C 0.4606(4) 0.3297(6) 0.4726(4)
H42 H 0.4840 0.3641 0.5187
N3 N 0.0417(3) 0.3185(4) 0.3075(3)
N4 N 0.4771(3) 0.3009(4) 0.3554(3)
O14 O 0.1298(3) 0.7973(4) 0.1428(2)
O17 O 0.7883(3) 0.4580(4) 0.3643(2)
Ni7 Ni 0.43201(5) 0.69655(6) 0.70905(4)
Ni14 Ni 0.2500 0.83203(8) 0.7500
O19 O 0.8482(3) 0.5765(3) 0.2570(2)
O23 O 0.6750(3) 0.2794(4) 0.3872(2)
C22 C 0.2349(5) 0.3309(7) 0.9876(4)
H14 H 0.2041 0.4085 0.9801
H15 H 0.2579 0.3164 0.9470
C23 C 0.1665(5) 0.2349(8) 0.9892(4)
H16 H 0.1210 0.2279 0.9412
H21 H 0.0160 0.3641 0.9813
H29 H 0.4103 0.8540 0.9945
C42 C 0.2756(4) 0.8311(5) 0.9843(3)
H30 H 0.1511 0.8250 0.9989
C44 C 0.2412(4) 0.7956(5) 0.9051(3)
O15 O 0.1750(3) 0.7206(4) 0.8872(2)
O16 O 0.2810(3) 0.8404(3) 0.86327(19)
Ni8 Ni 0.06799(5) 0.69655(6) 0.79095(4)
C36 C 0.9107(4) 0.0312(4) 0.2272(3)
O13 O 0.9476(3) 0.1184(3) 0.2128(2)
Ni6 Ni 0.93201(5) 0.30345(6) 0.20905(4)
C27 C 0.9941(5) 0.3492(6) 0.0785(4)
H20 H 0.9417 0.3978 0.0659
C29 C 0.9454(3) 0.6940(4) 0.2101(3)
C33 C 0.9459(3) 0.9106(4) 0.2123(3)
C34 C 0.9084(3) 0.8020(4) 0.2251(3)
H24 H 0.8590 0.8013 0.2437
C35 C 0.9033(4) 0.5759(4) 0.2207(3)
O10 O 0.9268(3) 0.4860(3) 0.1906(2)
O24 O 0.8250(3) 0.2794(4) 0.1128(2)
C27_2 C 0.0059(5) 0.6508(6) 0.9215(4)
H20_2 H 0.0583 0.6022 0.9341
C29_2 C 0.0546(3) 0.3060(4) 0.7899(3)
C33_2 C 0.0541(3) 0.0894(4) 0.7877(3)
C34_2 C 0.0916(3) 0.1980(4) 0.7749(3)
H24_2 H 0.1410 0.1987 0.7563
C35_2 C 0.0967(4) 0.4241(4) 0.7793(3)
O10_2 O 0.0732(3) 0.5140(3) 0.8094(2)
O11 O 0.1518(3) 0.4235(3) 0.7430(2)
Ni9 Ni 0.2500 0.55287(8) 0.7500
O22 O 0.0524(3) 0.8816(3) 0.7872(2)
O27 O 0.1581(2) 0.6931(3) 0.73534(19)
C36_2 C 0.0893(4) 0.9688(4) 0.7728(3)
O12 O 0.1551(2) 0.9700(3) 0.7438(2)
C22_2 C 0.7651(5) 0.6691(7) 0.0124(4)
H14_2 H 0.7959 0.5915 0.0199
H15_2 H 0.7421 0.6836 0.0530
C23_2 C 0.8335(5) 0.7651(8) 0.0108(4)
H16_2 H 0.8790 0.7721 0.0588
H21_2 H 0.9840 0.6359 0.0187
H29_2 H 0.5897 0.1460 0.0055
C42_2 C 0.7244(4) 0.1689(5) 0.0157(3)
H30_2 H 0.8489 0.1750 0.0011
C44_2 C 0.7588(4) 0.2044(5) 0.0949(3)
C1_2 C 0.4454(3) 0.3060(4) 0.7101(3)
C2_2 C 0.5205(4) 0.3041(4) 0.6826(3)
H1_2 H 0.5458 0.3758 0.6729
C3_2 C 0.5565(4) 0.1955(4) 0.6701(3)
C4_2 C 0.5197(3) 0.0885(5) 0.6850(3)
H2_2 H 0.5446 0.0156 0.6767
C5_2 C 0.4459(3) 0.0894(4) 0.7123(3)
C6_2 C 0.4084(3) 0.1980(4) 0.7251(3)
H3_2 H 0.3590 0.1987 0.7437
C7_2 C 0.4033(4) 0.4241(4) 0.7207(3)
C9_2 C 0.6697(5) 0.0956(6) 0.6311(4)
H4_2 H 0.6987 0.0562 0.6775
H5_2 H 0.6219 0.0426 0.6015
C10_2 C 0.7417(5) 0.1166(6) 0.5932(4)
C11_2 C 0.8337(5) 0.0952(9) 0.6284(4)
H6_2 H 0.8536 0.0731 0.6773
C12_2 C 0.8965(5) 0.1065(9) 0.5909(4)
H7_2 H 0.9589 0.0905 0.6143
C13_2 C 0.8676(4) 0.1410(7) 0.5198(3)
H8_2 H 0.9103 0.1460 0.4945
C14_2 C 0.7756(4) 0.1689(5) 0.4843(3)
C15_2 C 0.7132(4) 0.1564(6) 0.5218(3)
H9_2 H 0.6511 0.1750 0.4989
C16_2 C 0.7412(4) 0.2044(5) 0.4051(3)
C17_2 C 0.6032(4) 0.5904(6) 0.8228(4)
H10_2 H 0.5979 0.5310 0.7878
C18_2 C 0.6742(5) 0.5815(7) 0.8885(4)
H11_2 H 0.7154 0.5173 0.8962
C19_2 C 0.6844(4) 0.6660(7) 0.9423(4)
C20_2 C 0.6179(5) 0.7588(7) 0.9269(4)
H12_2 H 0.6202 0.8179 0.9615
C21_2 C 0.5499(4) 0.7612(6) 0.8607(4)
H13_2 H 0.5064 0.8228 0.8522
H17_2 H 0.8015 0.8416 0.9991
C24_2 C 0.8819(4) 0.7393(6) 0.9563(3)
C25_2 C 0.8516(4) 0.7863(6) 0.8860(4)
H18_2 H 0.7981 0.8328 0.8709
C26_2 C 0.9016(4) 0.7637(6) 0.8387(4)
H19_2 H 0.8799 0.7965 0.7921
C28_2 C 0.9606(4) 0.6703(6) 0.9726(4)
N1_2 N 0.5417(3) 0.6815(4) 0.8075(3)
N2_2 N 0.9771(3) 0.6991(4) 0.8554(3)
O1_2 O 0.4268(3) 0.5140(3) 0.6906(2)
O2_2 O 0.3482(3) 0.4235(3) 0.7570(2)
O5_2 O 0.6298(3) 0.2027(4) 0.6428(2)
O8_2 O 0.2883(3) 0.5420(4) 0.8643(2)
C30_2 C 0.9795(4) 0.3041(4) 0.8174(3)
H22_2 H 0.9542 0.3758 0.8271
C31_2 C 0.9435(4) 0.1955(4) 0.8299(3)
C32_2 C 0.9803(3) 0.0885(5) 0.8150(3)
H23_2 H 0.9554 0.0156 0.8233
C37_2 C 0.8303(5) 0.0956(6) 0.8689(4)
H25_2 H 0.8013 0.0562 0.8225
H26_2 H 0.8781 0.0426 0.8985
C38_2 C 0.7583(5) 0.1166(6) 0.9068(4)
C39_2 C 0.6663(5) 0.0952(9) 0.8716(4)
H27_2 H 0.6464 0.0731 0.8227
C40_2 C 0.6035(5) 0.1065(9) 0.9091(4)
H28_2 H 0.5411 0.0905 0.8857
C41_2 C 0.6324(4) 0.1410(7) 0.9802(3)
C43_2 C 0.7868(4) 0.1564(6) 0.9782(3)
C45_2 C 0.8968(4) 0.5904(6) 0.6772(4)
H31_2 H 0.9021 0.5310 0.7122
C46_2 C 0.8258(5) 0.5815(7) 0.6115(4)
H32_2 H 0.7846 0.5173 0.6038
C47_2 C 0.8156(4) 0.6660(7) 0.5577(4)
C48_2 C 0.8821(5) 0.7588(7) 0.5731(4)
H33_2 H 0.8798 0.8179 0.5385
C49_2 C 0.9501(4) 0.7612(6) 0.6393(4)
H34_2 H 0.9936 0.8228 0.6478
C50_2 C 0.7349(5) 0.6691(7) 0.4876(4)
H35_2 H 0.7041 0.5915 0.4801
H36_2 H 0.7579 0.6836 0.4470
C51_2 C 0.6665(5) 0.7651(8) 0.4892(4)
H37_2 H 0.6210 0.7721 0.4412
H38_2 H 0.6985 0.8416 0.5009
C52_2 C 0.6181(4) 0.7393(6) 0.5437(3)
C53_2 C 0.6484(4) 0.7863(6) 0.6140(4)
H39_2 H 0.7019 0.8328 0.6291
C54_2 C 0.5984(4) 0.7637(6) 0.6613(4)
H40_2 H 0.6201 0.7965 0.7079
C55_2 C 0.4941(5) 0.6508(6) 0.5785(4)
H41_2 H 0.4417 0.6022 0.5659
C56_2 C 0.5394(4) 0.6703(6) 0.5274(4)
H42_2 H 0.5160 0.6359 0.4813
N3_2 N 0.9583(3) 0.6815(4) 0.6925(3)
N4_2 N 0.5229(3) 0.6991(4) 0.6446(3)
O14_2 O 0.8702(3) 0.2027(4) 0.8572(2)
O17_2 O 0.2117(3) 0.5420(4) 0.6357(2)
O18 O 0.3419(2) 0.6931(3) 0.76466(19)
O21 O 0.4476(3) 0.8816(3) 0.7128(2)
C8_2 C 0.4107(4) 0.9688(4) 0.7272(3)
O3_2 O 0.3449(2) 0.9700(3) 0.7562(2)
loop_
_geom_bond_atom_site_label_1
_geom_bond_atom_site_label_2
_geom_bond_site_symmetry_1
_geom_bond_site_symmetry_2
Ni3 O3 1_555 1_555
O3 C8 1_555 1_555
O4 C8 1_555 1_555
O9 Ni3 1_555 1_555
Ni5 O4 1_555 1_555
Ni10 O9 1_555 1_555
O20 Ni3 1_555 1_555
O25 Ni3 1_555 1_555
O26 Ni3 1_555 1_555
O29 Ni3 1_555 1_555
O9 Ni5 1_555 1_555
Ni10 O29 1_555 1_555
C1 C2 1_555 1_555
C2 H1 1_555 1_555
C3 C2 1_555 1_555
C4 C3 1_555 1_555
H2 C4 1_555 1_555
C5 C4 1_555 1_555
C6 C1 1_555 1_555
H3 C6 1_555 1_555
C7 C1 1_555 1_555
C9 H4 1_555 1_555
H5 C9 1_555 1_555
C10 C9 1_555 1_555
C11 C10 1_555 1_555
H6 C11 1_555 1_555
C12 C11 1_555 1_555
H7 C12 1_555 1_555
C13 C12 1_555 1_555
H8 C13 1_555 1_555
C14 C13 1_555 1_555
C15 C10 1_555 1_555
H9 C15 1_555 1_555
C16 C14 1_555 1_555
C17 H10 1_555 1_555
C18 C17 1_555 1_555
H11 C18 1_555 1_555
C19 C18 1_555 1_555
C20 C19 1_555 1_555
H12 C20 1_555 1_555
C21 C20 1_555 1_555
H13 C21 1_555 1_555
C25 C24 1_555 1_555
H18 C25 1_555 1_555
C26 C25 1_555 1_555
H19 C26 1_555 1_555
C28 C24 1_555 1_555
N1 C17 1_555 1_555
N2 C26 1_555 1_555
Ni5 N1 1_555 1_555
Ni10 O2 1_555 1_555
O1 C7 1_555 1_555
O2 C7 1_555 1_555
O5 C3 1_555 1_555
O6 C16 1_555 1_555
O7 C16 1_555 1_555
O8 Ni10 1_555 1_555
C30 H22 1_555 1_555
C31 C30 1_555 1_555
C32 C31 1_555 1_555
H23 C32 1_555 1_555
C37 H25 1_555 1_555
H26 C37 1_555 1_555
C38 C37 1_555 1_555
C39 C38 1_555 1_555
H27 C39 1_555 1_555
C40 C39 1_555 1_555
H28 C40 1_555 1_555
C41 C40 1_555 1_555
C43 C38 1_555 1_555
C45 H31 1_555 1_555
C46 C45 1_555 1_555
H32 C46 1_555 1_555
C47 C46 1_555 1_555
C48 C47 1_555 1_555
H33 C48 1_555 1_555
C49 C48 1_555 1_555
H34 C49 1_555 1_555
C50 C47 1_555 1_555
H35 C50 1_555 1_555
H36 C50 1_555 1_555
C51 C50 1_555 1_555
H37 C51 1_555 1_555
H38 C51 1_555 1_555
C52 C51 1_555 1_555
C53 C52 1_555 1_555
H39 C53 1_555 1_555
C54 C53 1_555 1_555
H40 C54 1_555 1_555
C55 H41 1_555 1_555
C56 C52 1_555 1_555
H42 C56 1_555 1_555
N3 C45 1_555 1_555
N4 Ni5 1_555 1_555
O14 C31 1_555 1_555
O17 Ni10 1_555 1_555
Ni7 O6 1_555 1_555
Ni14 O7 1_555 1_555
O19 Ni10 1_555 1_555
O23 Ni5 1_555 1_555
C5 C6 1_555 1_555
C9 O5 1_555 1_555
C14 C15 1_555 1_555
C21 N1 1_555 1_555
Ni5 O1 1_555 1_555
C37 O14 1_555 1_555
C49 N3 1_555 1_555
C54 N4 1_555 1_555
C55 C56 1_555 1_555
C55 N4 1_555 1_555
H14 C22 1_555 1_555
H15 C22 1_555 1_555
C23 C22 1_555 1_555
H16 C23 1_555 1_555
C44 C42 1_555 1_555
O15 C44 1_555 1_555
O16 C44 1_555 1_555
Ni8 O15 1_555 1_555
Ni14 O16 1_555 1_555
O20 C36 1_555 1_555
O13 C36 1_555 1_555
Ni6 O13 1_555 1_555
C27 H20 1_555 1_555
C34 C29 1_555 1_555
H24 C34 1_555 1_555
C35 C29 1_555 1_555
O10 C35 1_555 1_555
O19 C35 1_555 1_555
O24 Ni6 1_555 1_555
O29 Ni6 1_555 1_555
C33 C34 1_555 1_555
Ni6 O10 1_555 1_555
C27_2 H20_2 1_555 1_555
C34_2 C29_2 1_555 1_555
H24_2 C34_2 1_555 1_555
C35_2 C29_2 1_555 1_555
O10_2 C35_2 1_555 1_555
O11 C35_2 1_555 1_555
Ni9 O11 1_555 1_555
O22 Ni8 1_555 1_555
O27 Ni8 1_555 1_555
C33_2 C34_2 1_555 1_555
Ni8 O10_2 1_555 1_555
Ni9 O27 1_555 1_555
O12 C36_2 1_555 1_555
O22 C36_2 1_555 1_555
Ni14 O12 1_555 1_555
H14_2 C22_2 1_555 1_555
H15_2 C22_2 1_555 1_555
C23_2 C22_2 1_555 1_555
H16_2 C23_2 1_555 1_555
C44_2 C42_2 1_555 1_555
O24 C44_2 1_555 1_555
O26 C44_2 1_555 1_555
C1_2 C2_2 1_555 1_555
C2_2 H1_2 1_555 1_555
C3_2 C2_2 1_555 1_555
C4_2 C3_2 1_555 1_555
H2_2 C4_2 1_555 1_555
C5_2 C4_2 1_555 1_555
C6_2 C1_2 1_555 1_555
H3_2 C6_2 1_555 1_555
C7_2 C1_2 1_555 1_555
C9_2 H4_2 1_555 1_555
H5_2 C9_2 1_555 1_555
C10_2 C9_2 1_555 1_555
C11_2 C10_2 1_555 1_555
H6_2 C11_2 1_555 1_555
C12_2 C11_2 1_555 1_555
H7_2 C12_2 1_555 1_555
C13_2 C12_2 1_555 1_555
H8_2 C13_2 1_555 1_555
C14_2 C13_2 1_555 1_555
C15_2 C10_2 1_555 1_555
H9_2 C15_2 1_555 1_555
C16_2 C14_2 1_555 1_555
C17_2 H10_2 1_555 1_555
C18_2 C17_2 1_555 1_555
H11_2 C18_2 1_555 1_555
C19_2 C18_2 1_555 1_555
C20_2 C19_2 1_555 1_555
H12_2 C20_2 1_555 1_555
C21_2 C20_2 1_555 1_555
H13_2 C21_2 1_555 1_555
C25_2 C24_2 1_555 1_555
H18_2 C25_2 1_555 1_555
C26_2 C25_2 1_555 1_555
H19_2 C26_2 1_555 1_555
C28_2 C24_2 1_555 1_555
N1_2 C17_2 1_555 1_555
N2_2 C26_2 1_555 1_555
Ni7 N1_2 1_555 1_555
Ni9 O2_2 1_555 1_555
O1_2 C7_2 1_555 1_555
O2_2 C7_2 1_555 1_555
O5_2 C3_2 1_555 1_555
O23 C16_2 1_555 1_555
O25 C16_2 1_555 1_555
O8_2 Ni9 1_555 1_555
C30_2 H22_2 1_555 1_555
C31_2 C30_2 1_555 1_555
C32_2 C31_2 1_555 1_555
H23_2 C32_2 1_555 1_555
C37_2 H25_2 1_555 1_555
H26_2 C37_2 1_555 1_555
C38_2 C37_2 1_555 1_555
C39_2 C38_2 1_555 1_555
H27_2 C39_2 1_555 1_555
C40_2 C39_2 1_555 1_555
H28_2 C40_2 1_555 1_555
C41_2 C40_2 1_555 1_555
C43_2 C38_2 1_555 1_555
C45_2 H31_2 1_555 1_555
C46_2 C45_2 1_555 1_555
H32_2 C46_2 1_555 1_555
C47_2 C46_2 1_555 1_555
C48_2 C47_2 1_555 1_555
H33_2 C48_2 1_555 1_555
C49_2 C48_2 1_555 1_555
H34_2 C49_2 1_555 1_555
C50_2 C47_2 1_555 1_555
H35_2 C50_2 1_555 1_555
H36_2 C50_2 1_555 1_555
C51_2 C50_2 1_555 1_555
H37_2 C51_2 1_555 1_555
H38_2 C51_2 1_555 1_555
C52_2 C51_2 1_555 1_555
C53_2 C52_2 1_555 1_555
H39_2 C53_2 1_555 1_555
C54_2 C53_2 1_555 1_555
H40_2 C54_2 1_555 1_555
C55_2 H41_2 1_555 1_555
C56_2 C52_2 1_555 1_555
H42_2 C56_2 1_555 1_555
N3_2 C45_2 1_555 1_555
N4_2 Ni7 1_555 1_555
O14_2 C31_2 1_555 1_555
O17_2 Ni9 1_555 1_555
O18 Ni7 1_555 1_555
Ni14 O18 1_555 1_555
O21 Ni7 1_555 1_555
C5_2 C6_2 1_555 1_555
C9_2 O5_2 1_555 1_555
C14_2 C15_2 1_555 1_555
C21_2 N1_2 1_555 1_555
Ni7 O1_2 1_555 1_555
Ni9 O18 1_555 1_555
C37_2 O14_2 1_555 1_555
C49_2 N3_2 1_555 1_555
C54_2 N4_2 1_555 1_555
C55_2 C56_2 1_555 1_555
C55_2 N4_2 1_555 1_555
Ni14 O27 1_555 1_555
Ni14 O3_2 1_555 1_555
O3_2 C8_2 1_555 1_555
O21 C8_2 1_555 1_555

#END
