
###############################################################################
#
# This file contains modified crystal structure data generated from the
# MOF subset of the Cambridge Structural Database (CSD) v543 
# hosted by the Cambridge Crystallographic Data Centre (CCDC).
#
# This work is licensed under the Creative Commons
# Attribution-NonCommercial-ShareAlike 4.0 International License.
# To view a copy of this license, visit
# http://creativecommons.org/licenses/by-nc-sa/4.0/
# or send a letter to
# Creative Commons, PO Box 1866, Mountain View, CA 94042, USA.
#
# CIF created using the CSD Python API on 29 September 2022
# The structure has been converted into the P1 space group
# The structure has a 3D framework
# The original CSD entry SIKGEA is in the trigonal crystal system
# The original CSD entry SIKGEA is in a Sohncke space group
# The framework has been calculated to contain at least 10.0% void space
# The void calculation uses a probe of radius 1.32A, grid spacing 0.4
# The framework is charged, counterions have been retained in the structure
#
###############################################################################

data_SIKGEA
_chemical_formula_moiety         '(C24 H24 Cu3 N12 3+)n'
_symmetry_cell_setting           triclinic
_symmetry_space_group_name_H-M   'P 1'
_symmetry_Int_Tables_number      1
_space_group_name_Hall           'P 1'
loop_
_symmetry_equiv_pos_site_id
_symmetry_equiv_pos_as_xyz
1 x,y,z
_cell_length_a                   10.8055(15)
_cell_length_b                   10.8055(15)
_cell_length_c                   12.637(3)
_cell_angle_alpha                90
_cell_angle_beta                 90
_cell_angle_gamma                120
_cell_volume                     1277.8
loop_
_atom_site_label
_atom_site_type_symbol
_atom_site_fract_x
_atom_site_fract_y
_atom_site_fract_z
N1 N 0.1474(6) 0.4953(6) 0.5980(3)
C1 C 0.2481(6) 0.5989(6) 0.6313(4)
H1 H 0.2613 0.6870 0.6097
C2 C 0.1327(9) 0.3586(6) 0.6340(4)
H2 H 0.0569 0.2726 0.6102
N3 N 0.3479(8) 0.4953(6) 0.7353(3)
C5 C 0.3508(8) 0.5989(6) 0.7020(4)
H5 H 0.4257 0.6870 0.7236
C6 C 0.2259(11) 0.3586(6) 0.6993(4)
H6 H 0.2157 0.2726 0.7231
Cu2 Cu 0.50113(5) 0.49886(10) 0.8333
N5 N 0.1474(6) 0.6521(8) 0.4020(3)
Cu1 Cu 0.99773(9) 0.49887(5) 0.5000
N2 N 0.8712(5) 0.3430(5) 0.4015(3)
C3 C 0.7531(7) 0.2206(7) 0.4377(4)
H3 H 0.7390 0.2025 0.5099
C4 C 0.8689(7) 0.3384(9) 0.2962(5)
H4 H 0.9469 0.4160 0.2647
N4 N 0.6570(5) 0.1288(5) 0.2652(3)
C7 C 0.7794(7) 0.2469(7) 0.2290(4)
H7 H 0.7975 0.2610 0.1568
C8 C 0.6616(9) 0.1311(7) 0.3705(5)
H8 H 0.5840 0.0531 0.4020
Cu3 Cu 0.50114(10) 0.00227(9) 0.1667
N6 N 0.8712(5) 0.5282(7) 0.5985(3)
N3_2 N 0.5047(6) 0.8526(10) 0.0687(3)
C5_2 C 0.4011(6) 0.7519(10) 0.0354(4)
H5_2 H 0.3130 0.7387 0.0570
C6_2 C 0.6414(6) 0.8673(13) 0.0327(4)
H6_2 H 0.7274 0.9431 0.0565
N1_2 N 0.5047(6) 0.6521(8) 0.9313(3)
N2_2 N 0.6570(5) 0.5282(7) 0.7348(3)
C1_2 C 0.4011(6) 0.6492(8) 0.9646(4)
H1_2 H 0.3130 0.5743 0.9430
C2_2 C 0.6414(6) 0.7741(11) 0.9673(4)
H2_2 H 0.7274 0.7843 0.9435
C3_2 C 0.7794(7) 0.5325(10) 0.7710(4)
H3_2 H 0.7975 0.5365 0.8432
C4_2 C 0.6616(9) 0.5305(11) 0.6295(5)
H4_2 H 0.5840 0.5309 0.5980
C7_2 C 0.7531(7) 0.5325(10) 0.5623(4)
H7_2 H 0.7390 0.5365 0.4901
C8_2 C 0.8689(7) 0.5305(11) 0.7038(5)
H8_2 H 0.9469 0.5309 0.7353
N6_2 N 0.4718(7) 0.3430(9) 0.9318(3)
N2_3 N 0.4718(7) 0.1288(5) 0.0682(3)
C3_3 C 0.4675(10) 0.2469(7) 0.1044(4)
H3_3 H 0.4635 0.2610 0.1766
C8_3 C 0.4695(11) 0.3384(9) 0.0371(5)
H8_3 H 0.4691 0.4160 0.0686
C4_3 C 0.4695(11) 0.1311(7) 0.9629(5)
H4_3 H 0.4691 0.0531 0.9314
C7_3 C 0.4675(10) 0.2206(7) 0.8956(4)
H7_3 H 0.4635 0.2025 0.8234
N1_3 N 0.3479(8) 0.8526(6) 0.2647(3)
C1_3 C 0.3508(8) 0.7519(6) 0.2980(4)
H1_3 H 0.4257 0.7387 0.2764
C2_3 C 0.2259(11) 0.8673(9) 0.3007(4)
H2_3 H 0.2157 0.9431 0.2769
C5_3 C 0.2481(10) 0.6492(8) 0.3687(4)
H5_3 H 0.2613 0.5743 0.3903
C6_3 C 0.1327(13) 0.7741(11) 0.3660(4)
H6_3 H 0.0569 0.7843 0.3898
loop_
_geom_bond_atom_site_label_1
_geom_bond_atom_site_label_2
_geom_bond_site_symmetry_1
_geom_bond_site_symmetry_2
N1 C1 1_555 1_555
C1 H1 1_555 1_555
C2 N1 1_555 1_555
H2 C2 1_555 1_555
N3 C5 1_555 1_555
C5 C1 1_555 1_555
H5 C5 1_555 1_555
C6 C2 1_555 1_555
H6 C6 1_555 1_555
Cu2 N3 1_555 1_555
N3 C6 1_555 1_555
N2 Cu1 1_555 1_555
C3 N2 1_555 1_555
H3 C3 1_555 1_555
C4 N2 1_555 1_555
H4 C4 1_555 1_555
N4 C7 1_555 1_555
C7 C4 1_555 1_555
H7 C7 1_555 1_555
C8 C3 1_555 1_555
H8 C8 1_555 1_555
Cu3 N4 1_555 1_555
N6 Cu1 1_555 1_555
N4 C8 1_555 1_555
N3_2 C5_2 1_555 1_555
H5_2 C5_2 1_555 1_555
H6_2 C6_2 1_555 1_555
N3_2 C6_2 1_555 1_555
Cu2 N1_2 1_555 1_555
N1_2 C1_2 1_555 1_555
N2_2 Cu2 1_555 1_555
C1_2 H1_2 1_555 1_555
C2_2 N1_2 1_555 1_555
H2_2 C2_2 1_555 1_555
C3_2 N2_2 1_555 1_555
H3_2 C3_2 1_555 1_555
C4_2 N2_2 1_555 1_555
H4_2 C4_2 1_555 1_555
N6 C7_2 1_555 1_555
C7_2 C4_2 1_555 1_555
H7_2 C7_2 1_555 1_555
C8_2 C3_2 1_555 1_555
H8_2 C8_2 1_555 1_555
N6_2 Cu2 1_555 1_555
N6 C8_2 1_555 1_555
N2_3 Cu3 1_555 1_555
C3_3 N2_3 1_555 1_555
H3_3 C3_3 1_555 1_555
C8_3 C3_3 1_555 1_555
H8_3 C8_3 1_555 1_555
H4_3 C4_3 1_555 1_555
N6_2 C7_3 1_555 1_555
C7_3 C4_3 1_555 1_555
H7_3 C7_3 1_555 1_555
N1_3 C1_3 1_555 1_555
C1_3 H1_3 1_555 1_555
C2_3 N1_3 1_555 1_555
H2_3 C2_3 1_555 1_555
N5 C5_3 1_555 1_555
C5_3 C1_3 1_555 1_555
H5_3 C5_3 1_555 1_555
C6_3 C2_3 1_555 1_555
H6_3 C6_3 1_555 1_555
N5 C6_3 1_555 1_555

#END
