
###############################################################################
#
# This file contains modified crystal structure data generated from the
# MOF subset of the Cambridge Structural Database (CSD) v543 
# hosted by the Cambridge Crystallographic Data Centre (CCDC).
#
# This work is licensed under the Creative Commons
# Attribution-NonCommercial-ShareAlike 4.0 International License.
# To view a copy of this license, visit
# http://creativecommons.org/licenses/by-nc-sa/4.0/
# or send a letter to
# Creative Commons, PO Box 1866, Mountain View, CA 94042, USA.
#
# CIF created using the CSD Python API on 29 September 2022
# The structure has been converted into the P1 space group
# The structure has a 3D framework
# The original CSD entry SISFEH is in the monoclinic crystal system
# The framework has been calculated to contain at least 10.0% void space
# The void calculation uses a probe of radius 1.32A, grid spacing 0.4
#
###############################################################################

data_SISFEH
_chemical_formula_moiety         '(C56 H48 N8 Ni6 O44 Sr5)n'
_symmetry_cell_setting           triclinic
_symmetry_space_group_name_H-M   'P 1'
_symmetry_Int_Tables_number      1
_space_group_name_Hall           'P 1'
loop_
_symmetry_equiv_pos_site_id
_symmetry_equiv_pos_as_xyz
1 x,y,z
_cell_length_a                   18.324(3)
_cell_length_b                   13.794(3)
_cell_length_c                   8.7635(17)
_cell_angle_alpha                90
_cell_angle_beta                 107.405(3)
_cell_angle_gamma                90
_cell_volume                     2113.65
loop_
_atom_site_label
_atom_site_type_symbol
_atom_site_fract_x
_atom_site_fract_y
_atom_site_fract_z
Sr3 Sr 0.0000 0.46165(2) 0.2500
Ni1 Ni 0.2500 0.2500 0.0000
O1 O 0.32981(10) 0.14249(14) 0.0693(2)
O2 O 0.36803(12) 0.02455(15) 0.2484(3)
O3 O 0.08503(13) 0.20720(19) 0.5736(3)
O4 O 0.07288(14) 0.32253(18) 0.3961(3)
O6 O 0.33059(12) 0.35134(16) 0.1274(3)
H3 H 0.3564 0.3354 0.2218
H4 H 0.3655 0.3609 0.0833
N1 N 0.22856(12) 0.20621(15) 0.2033(3)
C1 C 0.26589(14) 0.12508(18) 0.2649(3)
C2 C 0.25156(16) 0.0762(2) 0.3897(3)
H5 H 0.2778 0.0195 0.4297
C3 C 0.19678(17) 0.1135(2) 0.4547(4)
H6 H 0.1854 0.0813 0.5380
C4 C 0.15940(15) 0.19884(19) 0.3945(3)
C5 C 0.17722(16) 0.24293(18) 0.2680(3)
H7 H 0.1524 0.3003 0.2265
C6 C 0.32661(14) 0.09358(18) 0.1903(3)
C7 C 0.10108(16) 0.2459(2) 0.4599(3)
O7 O 0.67019(10) 0.14249(14) 0.4307(2)
O8 O 0.63197(12) 0.02455(15) 0.2516(3)
O10 O 0.92712(14) 0.32253(18) 0.1039(3)
N2 N 0.77144(12) 0.20621(15) 0.2967(3)
C8 C 0.73411(14) 0.12508(18) 0.2351(3)
C9 C 0.74844(16) 0.0762(2) 0.1103(3)
H10 H 0.7222 0.0195 0.0703
C10 C 0.80322(17) 0.1135(2) 0.0453(4)
C11 C 0.84060(15) 0.19884(19) 0.1055(3)
C12 C 0.82278(16) 0.24293(18) 0.2320(3)
H12 H 0.8476 0.3003 0.2735
C13 C 0.67339(14) 0.09358(18) 0.3097(3)
C14 C 0.89892(16) 0.2459(2) 0.0401(3)
Sr3_2 Sr 1.0000 0.46165(2) 0.2500
Sr5 Sr 0.5000 0.03835(2) 0.7500
Ni2 Ni 0.7500 0.2500 0.5000
O16 O 0.53146(11) 0.09877(14) 0.4672(2)
O17 O 0.46854(11) 0.09877(14) 0.0328(2)
Ni1_2 Ni 0.2500 0.2500 1.0000
O9 O 0.91497(13) 0.20720(19) 0.9264(3)
H11 H 0.8146 0.0813 0.9620
O12 O 0.16941(12) 0.14866(16) 0.8726(3)
H13 H 0.1436 0.1646 0.7782
H14 H 0.1345 0.1391 0.9167
O13 O 0.17019(10) 0.35751(14) 0.9307(2)
N3 N 0.27144(12) 0.29379(15) 0.7967(3)
Sr1 Sr 0.5000 0.96165(2) 0.2500
O5 O 0.46854(11) 0.90123(14) 0.5328(2)
H1 H 0.4232 0.8831 0.5243
H2 H 0.4961 0.8512 0.5361
O14 O 0.57288(14) 0.82253(18) 0.3961(3)
O15 O 0.42712(14) 0.82253(18) 0.1039(3)
O11 O 0.53146(11) 0.90123(14) 0.9672(2)
H8 H 0.5768 0.8831 0.9757
H9 H 0.5039 0.8512 0.9639
O6_2 O 0.66941(12) 0.35134(16) 0.3726(3)
H3_2 H 0.6436 0.3354 0.2782
H4_2 H 0.6345 0.3609 0.4167
O12_2 O 0.83059(12) 0.14866(16) 0.6274(3)
H13_2 H 0.8564 0.1646 0.7218
H14_2 H 0.8655 0.1391 0.5833
O13_2 O 0.82981(10) 0.35751(14) 0.5693(2)
N3_2 N 0.72856(12) 0.29379(15) 0.7033(3)
O7_2 O 0.17019(10) 0.64249(14) 0.4307(2)
O8_2 O 0.13197(12) 0.52455(15) 0.2516(3)
N2_2 N 0.27144(12) 0.70621(15) 0.2967(3)
C8_2 C 0.23411(14) 0.62508(18) 0.2351(3)
C9_2 C 0.24844(16) 0.5762(2) 0.1103(3)
H10_2 H 0.2222 0.5195 0.0703
C10_2 C 0.30322(17) 0.6135(2) 0.0453(4)
C11_2 C 0.34060(15) 0.69884(19) 0.1055(3)
C12_2 C 0.32278(16) 0.74293(18) 0.2320(3)
H12_2 H 0.3476 0.8003 0.2735
C13_2 C 0.17339(14) 0.59358(18) 0.3097(3)
C14_2 C 0.39892(16) 0.7459(2) 0.0401(3)
Sr5_2 Sr 0.0000 0.53835(2) 0.7500
Ni2_2 Ni 0.2500 0.7500 0.5000
O16_2 O 0.03146(11) 0.59877(14) 0.4672(2)
O9_2 O 0.41497(13) 0.70720(19) 0.9264(3)
O11_2 O 0.03146(11) 0.40123(14) 0.9672(2)
H8_2 H 0.0768 0.3831 0.9757
H9_2 H 0.0039 0.3512 0.9639
H11_2 H 0.3146 0.5813 0.9620
Ni1_3 Ni 0.7500 0.7500 0.0000
O1_2 O 0.82981(10) 0.64249(14) 0.0693(2)
O2_2 O 0.86803(12) 0.52455(15) 0.2484(3)
O3_2 O 0.58503(13) 0.70720(19) 0.5736(3)
O5_2 O 0.96854(11) 0.40123(14) 0.5328(2)
H1_2 H 0.9232 0.3831 0.5243
H2_2 H 0.9961 0.3512 0.5361
O6_3 O 0.83059(12) 0.85134(16) 0.1274(3)
H3_3 H 0.8564 0.8354 0.2218
H4_3 H 0.8655 0.8609 0.0833
N1_2 N 0.72856(12) 0.70621(15) 0.2033(3)
C1_2 C 0.76589(14) 0.62508(18) 0.2649(3)
C2_2 C 0.75156(16) 0.5762(2) 0.3897(3)
H5_2 H 0.7778 0.5195 0.4297
C3_2 C 0.69678(17) 0.6135(2) 0.4547(4)
H6_2 H 0.6854 0.5813 0.5380
C4_2 C 0.65940(15) 0.69884(19) 0.3945(3)
C5_2 C 0.67722(16) 0.74293(18) 0.2680(3)
H7_2 H 0.6524 0.8003 0.2265
C6_2 C 0.82661(14) 0.59358(18) 0.1903(3)
C7_2 C 0.60108(16) 0.7459(2) 0.4599(3)
Sr5_3 Sr 1.0000 0.53835(2) 0.7500
O17_2 O 0.96854(11) 0.59877(14) 0.0328(2)
Ni1_4 Ni 0.7500 0.7500 1.0000
O12_3 O 0.66941(12) 0.64866(16) 0.8726(3)
H13_3 H 0.6436 0.6646 0.7782
H14_3 H 0.6345 0.6391 0.9167
O13_3 O 0.67019(10) 0.85751(14) 0.9307(2)
N3_3 N 0.77144(12) 0.79379(15) 0.7967(3)
O6_4 O 0.16941(12) 0.85134(16) 0.3726(3)
H3_4 H 0.1436 0.8354 0.2782
H4_4 H 0.1345 0.8609 0.4167
O12_4 O 0.33059(12) 0.64866(16) 0.6274(3)
H13_4 H 0.3564 0.6646 0.7218
H14_4 H 0.3655 0.6391 0.5833
O13_4 O 0.32981(10) 0.85751(14) 0.5693(2)
N3_4 N 0.22856(12) 0.79379(15) 0.7033(3)
H8_3 H 0.4232 0.1169 0.0243
H9_3 H 0.4961 0.1488 0.0361
H1_3 H 0.5768 0.1169 0.4757
H2_3 H 0.5039 0.1488 0.4639
O14_2 O 0.42712(14) 0.17747(18) 0.6039(3)
O15_2 O 0.57288(14) 0.17747(18) 0.8961(3)
O9_3 O 0.08503(13) 0.79280(19) 0.0736(3)
H11_3 H 0.1854 0.9187 0.0380
O2_3 O 0.63197(12) 0.97545(15) 0.7516(3)
O3_3 O 0.91497(13) 0.79280(19) 0.4264(3)
O4_2 O 0.92712(14) 0.67747(18) 0.6039(3)
C1_3 C 0.73411(14) 0.87492(18) 0.7351(3)
C2_3 C 0.74844(16) 0.9238(2) 0.6103(3)
H5_3 H 0.7222 0.9805 0.5703
C3_3 C 0.80322(17) 0.8865(2) 0.5453(4)
H6_3 H 0.8146 0.9187 0.4620
C4_3 C 0.84060(15) 0.80116(19) 0.6055(3)
C5_3 C 0.82278(16) 0.75707(18) 0.7320(3)
H7_3 H 0.8476 0.6997 0.7735
C6_3 C 0.67339(14) 0.90642(18) 0.8097(3)
C7_3 C 0.89892(16) 0.7541(2) 0.5401(3)
O8_3 O 0.36803(12) 0.97545(15) 0.7484(3)
O10_2 O 0.07288(14) 0.67747(18) 0.8961(3)
C8_3 C 0.26589(14) 0.87492(18) 0.7649(3)
C9_3 C 0.25156(16) 0.9238(2) 0.8897(3)
H10_3 H 0.2778 0.9805 0.9297
C10_3 C 0.19678(17) 0.8865(2) 0.9547(4)
C11_3 C 0.15940(15) 0.80116(19) 0.8945(3)
C12_3 C 0.17722(16) 0.75707(18) 0.7680(3)
H12_3 H 0.1524 0.6997 0.7265
C13_3 C 0.32661(14) 0.90642(18) 0.6903(3)
C14_3 C 0.10108(16) 0.7541(2) 0.9599(3)
O2_4 O 0.13197(12) 0.47545(15) 0.7516(3)
O3_4 O 0.41497(13) 0.29280(19) 0.4264(3)
H1_4 H 0.0768 0.6169 0.4757
H2_4 H 0.0039 0.6488 0.4639
C1_4 C 0.23411(14) 0.37492(18) 0.7351(3)
C2_4 C 0.24844(16) 0.4238(2) 0.6103(3)
H5_4 H 0.2222 0.4805 0.5703
C3_4 C 0.30322(17) 0.3865(2) 0.5453(4)
H6_4 H 0.3146 0.4187 0.4620
C4_4 C 0.34060(15) 0.30116(19) 0.6055(3)
C5_4 C 0.32278(16) 0.25707(18) 0.7320(3)
H7_4 H 0.3476 0.1997 0.7735
C6_4 C 0.17339(14) 0.40642(18) 0.8097(3)
C7_4 C 0.39892(16) 0.2541(2) 0.5401(3)
O9_4 O 0.58503(13) 0.29280(19) 0.0736(3)
H8_4 H 0.9232 0.6169 0.0243
H9_4 H 0.9961 0.6488 0.0361
H11_4 H 0.6854 0.4187 0.0380
O8_4 O 0.86803(12) 0.47545(15) 0.7484(3)
C8_4 C 0.76589(14) 0.37492(18) 0.7649(3)
C9_4 C 0.75156(16) 0.4238(2) 0.8897(3)
H10_4 H 0.7778 0.4805 0.9297
C10_4 C 0.69678(17) 0.3865(2) 0.9547(4)
C11_4 C 0.65940(15) 0.30116(19) 0.8945(3)
C12_4 C 0.67722(16) 0.25707(18) 0.7680(3)
H12_4 H 0.6524 0.1997 0.7265
C13_4 C 0.82661(14) 0.40642(18) 0.6903(3)
C14_4 C 0.60108(16) 0.2541(2) 0.9599(3)
loop_
_geom_bond_atom_site_label_1
_geom_bond_atom_site_label_2
_geom_bond_site_symmetry_1
_geom_bond_site_symmetry_2
Ni1 O1 1_555 1_555
O1 C6 1_555 1_555
O2 C6 1_555 1_555
O3 C7 1_555 1_555
O4 C7 1_555 1_555
O6 Ni1 1_555 1_555
H3 O6 1_555 1_555
H4 O6 1_555 1_555
N1 Ni1 1_555 1_555
C1 N1 1_555 1_555
C2 C1 1_555 1_555
H5 C2 1_555 1_555
C3 C2 1_555 1_555
H6 C3 1_555 1_555
C4 C3 1_555 1_555
C5 N1 1_555 1_555
H7 C5 1_555 1_555
C6 C1 1_555 1_555
C7 C4 1_555 1_555
O7 C13 1_555 1_555
O10 C14 1_555 1_555
N2 C8 1_555 1_555
C8 C9 1_555 1_555
C9 H10 1_555 1_555
C10 C9 1_555 1_555
C11 C10 1_555 1_555
C12 N2 1_555 1_555
H12 C12 1_555 1_555
C13 O8 1_555 1_555
C14 C11 1_555 1_555
Sr3 O4 1_555 1_555
Sr3_2 O10 1_555 1_555
Ni2 O7 1_555 1_555
C4 C5 1_555 1_555
N2 Ni2 1_555 1_555
C8 C13 1_555 1_555
C11 C12 1_555 1_555
Sr5 O16 1_555 1_555
O12 Ni1_2 1_555 1_555
H13 O12 1_555 1_555
H14 O12 1_555 1_555
O13 Ni1_2 1_555 1_555
N3 Ni1_2 1_555 1_555
O5 Sr1 1_555 1_555
H1 O5 1_555 1_555
H2 O5 1_555 1_555
O14 Sr1 1_555 1_555
O15 Sr1 1_555 1_555
H8 O11 1_555 1_555
H9 O11 1_555 1_555
O6_2 Ni2 1_555 1_555
H3_2 O6_2 1_555 1_555
H4_2 O6_2 1_555 1_555
O12_2 Ni2 1_555 1_555
H13_2 O12_2 1_555 1_555
H14_2 O12_2 1_555 1_555
O13_2 Ni2 1_555 1_555
N3_2 Ni2 1_555 1_555
O7_2 C13_2 1_555 1_555
O8_2 Sr3 1_555 1_555
O15 C14_2 1_555 1_555
N2_2 C8_2 1_555 1_555
C8_2 C9_2 1_555 1_555
C9_2 H10_2 1_555 1_555
C10_2 C9_2 1_555 1_555
C11_2 C10_2 1_555 1_555
C12_2 N2_2 1_555 1_555
H12_2 C12_2 1_555 1_555
C13_2 O8_2 1_555 1_555
C14_2 C11_2 1_555 1_555
Ni2_2 O7_2 1_555 1_555
O16_2 Sr3 1_555 1_555
N2_2 Ni2_2 1_555 1_555
C8_2 C13_2 1_555 1_555
C11_2 C12_2 1_555 1_555
Sr5_2 O16_2 1_555 1_555
H8_2 O11_2 1_555 1_555
H9_2 O11_2 1_555 1_555
Sr5_2 O11_2 1_555 1_555
Sr3_2 O2_2 1_555 1_555
Ni1_3 O1_2 1_555 1_555
O1_2 C6_2 1_555 1_555
O2_2 C6_2 1_555 1_555
O3_2 C7_2 1_555 1_555
O14 C7_2 1_555 1_555
O5_2 Sr3_2 1_555 1_555
H1_2 O5_2 1_555 1_555
H2_2 O5_2 1_555 1_555
O6_3 Ni1_3 1_555 1_555
H3_3 O6_3 1_555 1_555
H4_3 O6_3 1_555 1_555
N1_2 Ni1_3 1_555 1_555
C1_2 N1_2 1_555 1_555
C2_2 C1_2 1_555 1_555
H5_2 C2_2 1_555 1_555
C3_2 C2_2 1_555 1_555
H6_2 C3_2 1_555 1_555
C4_2 C3_2 1_555 1_555
C5_2 N1_2 1_555 1_555
H7_2 C5_2 1_555 1_555
C6_2 C1_2 1_555 1_555
C7_2 C4_2 1_555 1_555
Sr5_3 O5_2 1_555 1_555
O17_2 Sr3_2 1_555 1_555
C4_2 C5_2 1_555 1_555
O12_3 Ni1_4 1_555 1_555
H13_3 O12_3 1_555 1_555
H14_3 O12_3 1_555 1_555
O13_3 Ni1_4 1_555 1_555
N3_3 Ni1_4 1_555 1_555
O6_4 Ni2_2 1_555 1_555
H3_4 O6_4 1_555 1_555
H4_4 O6_4 1_555 1_555
O12_4 Ni2_2 1_555 1_555
H13_4 O12_4 1_555 1_555
H14_4 O12_4 1_555 1_555
O13_4 Ni2_2 1_555 1_555
N3_4 Ni2_2 1_555 1_555
H8_3 O17 1_555 1_555
H9_3 O17 1_555 1_555
H1_3 O16 1_555 1_555
H2_3 O16 1_555 1_555
O14_2 Sr5 1_555 1_555
O15_2 Sr5 1_555 1_555
O13_3 C6_3 1_555 1_555
O2_3 C6_3 1_555 1_555
O3_3 C7_3 1_555 1_555
O4_2 C7_3 1_555 1_555
C1_3 N3_3 1_555 1_555
C2_3 C1_3 1_555 1_555
H5_3 C2_3 1_555 1_555
C3_3 C2_3 1_555 1_555
H6_3 C3_3 1_555 1_555
C4_3 C3_3 1_555 1_555
C5_3 N3_3 1_555 1_555
H7_3 C5_3 1_555 1_555
C6_3 C1_3 1_555 1_555
C7_3 C4_3 1_555 1_555
O13_4 C13_3 1_555 1_555
O10_2 C14_3 1_555 1_555
N3_4 C8_3 1_555 1_555
C8_3 C9_3 1_555 1_555
C9_3 H10_3 1_555 1_555
C10_3 C9_3 1_555 1_555
C11_3 C10_3 1_555 1_555
C12_3 N3_4 1_555 1_555
H12_3 C12_3 1_555 1_555
C13_3 O8_3 1_555 1_555
C14_3 C11_3 1_555 1_555
Sr5_3 O4_2 1_555 1_555
Sr5_2 O10_2 1_555 1_555
C4_3 C5_3 1_555 1_555
C8_3 C13_3 1_555 1_555
C11_3 C12_3 1_555 1_555
Sr5_2 O2_4 1_555 1_555
O13 C6_4 1_555 1_555
O2_4 C6_4 1_555 1_555
O3_4 C7_4 1_555 1_555
O14_2 C7_4 1_555 1_555
H1_4 O16_2 1_555 1_555
H2_4 O16_2 1_555 1_555
C1_4 N3 1_555 1_555
C2_4 C1_4 1_555 1_555
H5_4 C2_4 1_555 1_555
C3_4 C2_4 1_555 1_555
H6_4 C3_4 1_555 1_555
C4_4 C3_4 1_555 1_555
C5_4 N3 1_555 1_555
H7_4 C5_4 1_555 1_555
C6_4 C1_4 1_555 1_555
C7_4 C4_4 1_555 1_555
C4_4 C5_4 1_555 1_555
H8_4 O17_2 1_555 1_555
H9_4 O17_2 1_555 1_555
O13_2 C13_4 1_555 1_555
O8_4 Sr5_3 1_555 1_555
O15_2 C14_4 1_555 1_555
N3_2 C8_4 1_555 1_555
C8_4 C9_4 1_555 1_555
C9_4 H10_4 1_555 1_555
C10_4 C9_4 1_555 1_555
C11_4 C10_4 1_555 1_555
C12_4 N3_2 1_555 1_555
H12_4 C12_4 1_555 1_555
C13_4 O8_4 1_555 1_555
C14_4 C11_4 1_555 1_555
C8_4 C13_4 1_555 1_555
C11_4 C12_4 1_555 1_555

#END
