
###############################################################################
#
# This file contains modified crystal structure data generated from the
# MOF subset of the Cambridge Structural Database (CSD) v543 
# hosted by the Cambridge Crystallographic Data Centre (CCDC).
#
# This work is licensed under the Creative Commons
# Attribution-NonCommercial-ShareAlike 4.0 International License.
# To view a copy of this license, visit
# http://creativecommons.org/licenses/by-nc-sa/4.0/
# or send a letter to
# Creative Commons, PO Box 1866, Mountain View, CA 94042, USA.
#
# CIF created using the CSD Python API on 29 September 2022
# The structure has been converted into the P1 space group
# The structure has a 3D framework
# The original CSD entry SISZIG is in the triclinic crystal system
# The framework has been calculated to contain at least 10.0% void space
# The void calculation uses a probe of radius 1.32A, grid spacing 0.4
#
###############################################################################

data_SISZIG
_chemical_formula_moiety         '(C58 H50 Cd4 N14 O16 S2)n'
_symmetry_cell_setting           triclinic
_symmetry_space_group_name_H-M   'P 1'
_symmetry_Int_Tables_number      1
_space_group_name_Hall           'P 1'
loop_
_symmetry_equiv_pos_site_id
_symmetry_equiv_pos_as_xyz
1 x,y,z
_cell_length_a                   10.2282(14)
_cell_length_b                   13.5641(19)
_cell_length_c                   15.914(2)
_cell_angle_alpha                108.464(3)
_cell_angle_beta                 98.421(4)
_cell_angle_gamma                97.469(4)
_cell_volume                     2034.69
loop_
_atom_site_label
_atom_site_type_symbol
_atom_site_fract_x
_atom_site_fract_y
_atom_site_fract_z
H45 H 0.0368 0.3158 0.9638
Cd2 Cd 0.5000 0.5000 0.0000
C21 C 0.3493(6) 0.3104(5) 0.0493(4)
H14 H 0.3977 0.3528 0.1064
C22 C 0.2549(6) 0.2236(5) 0.0417(5)
H15 H 0.2404 0.2078 0.0928
C27 C 0.2502(13) 0.5970(9) 0.0470(12)
N6 N 0.0533(6) 0.0446(5) 0.0127(6)
O8 O 0.3444(7) 0.5689(5) 0.0789(4)
N7 N 0.132(2) 0.6197(15) 0.0734(14)
C28 C 0.043(3) 0.671(2) 0.0129(16)
H21 H 0.0943 0.7366 0.0148
C29 C 0.138(2) 0.5911(18) 0.1520(15)
H23 H 0.0588 0.6040 0.1765
H24 H 0.1423 0.5174 0.1366
H25 H 0.2164 0.6326 0.1962
H39 H 0.3329 0.0215 0.0529
C54 C 0.3160(6) 0.0103(4) 0.3013(4)
H42 H 0.2991 0.0650 0.3487
C55 C 0.3130(6) 0.0231(4) 0.2177(4)
H43 H 0.2929 0.0848 0.2095
H44 H 0.7422 0.3944 0.0079
H47 H 0.9814 0.3768 0.0484
N17 N 0.6264(5) 0.6642(4) 0.0229(4)
O21 O 0.6279(8) 0.5019(4) 0.1300(4)
Cd2_2 Cd 0.5000 0.5000 1.0000
C1 C 0.0830(5) 0.2343(4) 0.6247(3)
C2 C 0.1797(5) 0.1792(4) 0.5879(3)
H1 H 0.1541 0.1095 0.5488
C3 C 0.3143(5) 0.2292(4) 0.6101(3)
C4 C 0.3533(5) 0.3322(4) 0.6713(4)
H2 H 0.4433 0.3651 0.6870
C5 C 0.2569(5) 0.3857(4) 0.7090(4)
C6 C 0.1226(5) 0.3385(4) 0.6847(4)
H3 H 0.0585 0.3760 0.7082
C8 C 0.4212(5) 0.1740(4) 0.5701(3)
C23 C 0.1818(6) 0.1601(5) 0.9563(5)
C24 C 0.2082(6) 0.1848(5) 0.8819(5)
H16 H 0.1620 0.1432 0.8239
C25 C 0.3050(6) 0.2731(4) 0.8953(4)
H17 H 0.3230 0.2893 0.8451
C26 C 0.0758(7) 0.0683(6) 0.9442(6)
H18 H 0.0260 0.0283 0.8869
H19 H 0.2578 0.6056 0.9921
N5 N 0.3736(5) 0.3358(4) 0.9771(4)
O3 O 0.3917(4) 0.0779(3) 0.5227(3)
O4 O 0.5379(4) 0.2284(3) 0.5887(3)
O5 O 0.3721(8) 0.4981(4) 0.8700(4)
O6 O 0.4067(7) 0.5715(4) 0.7574(4)
O7 O 0.1925(6) 0.5607(5) 0.7995(6)
S1 S 0.30969(15) 0.51461(11) 0.79067(11)
H22 H 0.0186 0.6232 0.9516
H36 H 0.3176 0.0002 0.7959
H37 H 0.3107 0.0204 0.6588
C56 C 0.7498(13) 0.4030(9) 0.9530(12)
O16 O 0.6556(7) 0.4311(5) 0.9211(4)
N14 N 0.868(2) 0.3803(15) 0.9266(14)
C57 C 0.957(3) 0.329(2) 0.9871(16)
H46 H 0.9057 0.2634 0.9852
C58 C 0.862(2) 0.4089(18) 0.8480(15)
H48 H 0.9412 0.3960 0.8235
H49 H 0.8577 0.4826 0.8634
H50 H 0.7836 0.3674 0.8038
Cd5 Cd 0.66970(3) 0.10253(3) 0.54774(2)
C50 C 0.3387(6) 0.9561(4) 0.0589(4)
C51 C 0.3401(6) 0.9436(4) 0.1471(3)
C52 C 0.3689(6) 0.8519(4) 0.1629(4)
H40 H 0.3882 0.7968 0.1171
C53 C 0.3683(6) 0.8447(4) 0.2472(4)
H41 H 0.3868 0.7834 0.2570
N13 N 0.3421(4) 0.9228(3) 0.3164(3)
Cd7 Cd 0.33030(3) 0.89747(3) 0.45226(2)
C42 C 0.0639(5) 0.8149(4) 0.4009(3)
C44 C 0.3652(7) 0.7886(4) 0.6018(4)
H34 H 0.3780 0.7351 0.5519
C45 C 0.3687(7) 0.7696(5) 0.6816(4)
H35 H 0.3832 0.7047 0.6853
C46 C 0.3502(6) 0.8490(4) 0.7571(4)
C47 C 0.3293(6) 0.9449(4) 0.7469(4)
C48 C 0.3261(6) 0.9566(4) 0.6647(4)
C49 C 0.3541(7) 0.8323(5) 0.8440(4)
H38 H 0.3655 0.7672 0.8488
N10 N 0.3443(4) 0.8800(3) 0.5914(3)
N11 N 0.3416(6) 0.9075(4) 0.9128(3)
N12 N 0.3453(6) 0.8779(4) 0.9901(3)
O9 O 0.0981(4) 0.9140(3) 0.4398(3)
O10 O 0.1472(4) 0.7552(3) 0.3833(3)
O18 O 0.6083(4) 0.9221(3) 0.4773(3)
O20 O 0.4621(4) 0.7716(3) 0.4113(3)
C7 C 0.9361(5) 0.1851(4) 0.5991(3)
C9 C 0.6348(7) 0.2114(4) 0.3982(4)
H4 H 0.6220 0.2649 0.4481
C10 C 0.6313(7) 0.2304(5) 0.3184(4)
H5 H 0.6168 0.2953 0.3147
C11 C 0.6498(6) 0.1510(4) 0.2429(4)
C12 C 0.6707(6) 0.0551(4) 0.2531(4)
C13 C 0.6739(6) 0.0434(4) 0.3353(4)
C14 C 0.6459(7) 0.1677(5) 0.1560(4)
H8 H 0.6345 0.2328 0.1512
N1 N 0.6557(4) 0.1200(3) 0.4086(3)
N2 N 0.6584(6) 0.0925(4) 0.0872(3)
N3 N 0.6547(6) 0.1221(4) 0.0099(3)
O1 O 0.9019(4) 0.0860(3) 0.5602(3)
O2 O 0.8528(4) 0.2448(3) 0.6167(3)
N15 N 0.6579(4) 0.0772(3) 0.6836(3)
C15 C 0.6613(6) 0.0439(4) 0.9411(4)
C16 C 0.6599(6) 0.0564(4) 0.8529(3)
C17 C 0.6311(6) 0.1481(4) 0.8371(4)
H10 H 0.6118 0.2032 0.8829
C18 C 0.6317(6) 0.1553(4) 0.7528(4)
H11 H 0.6132 0.2166 0.7430
C32 C 0.8182(6) 0.8399(5) 0.0437(5)
C33 C 0.7918(6) 0.8152(5) 0.1181(5)
H28 H 0.8380 0.8568 0.1761
C34 C 0.6950(6) 0.7269(4) 0.1047(4)
H29 H 0.6770 0.7107 0.1549
C35 C 0.9242(7) 0.9317(6) 0.0558(6)
H30 H 0.9740 0.9717 0.1131
H6 H 0.6824 0.9998 0.2041
H7 H 0.6893 0.9796 0.3412
C30 C 0.6507(6) 0.6896(5) 0.9507(4)
H26 H 0.6023 0.6472 0.8936
C31 C 0.7451(6) 0.7764(5) 0.9583(5)
H27 H 0.7596 0.7922 0.9072
N9 N 0.9467(6) 0.9554(5) 0.9873(6)
C36 C 0.9170(5) 0.7657(4) 0.3753(3)
C37 C 0.8203(5) 0.8208(4) 0.4121(3)
H31 H 0.8459 0.8905 0.4512
C38 C 0.6857(5) 0.7708(4) 0.3899(3)
C39 C 0.6467(5) 0.6678(4) 0.3287(4)
H32 H 0.5567 0.6349 0.3130
C40 C 0.7431(5) 0.6143(4) 0.2910(4)
C41 C 0.8774(5) 0.6615(4) 0.3153(4)
H33 H 0.9415 0.6240 0.2918
C43 C 0.5788(5) 0.8260(4) 0.4299(3)
O14 O 0.5933(7) 0.4285(4) 0.2426(4)
O15 O 0.8075(6) 0.4393(5) 0.2005(6)
S2 S 0.69031(15) 0.48539(11) 0.20933(11)
H9 H 0.6671 0.9785 0.9471
C19 C 0.6840(6) 0.9897(4) 0.6987(4)
H12 H 0.7009 0.9350 0.6513
C20 C 0.6870(6) 0.9769(4) 0.7823(4)
H13 H 0.7071 0.9152 0.7905
H20 H 0.9632 0.6842 0.0362
loop_
_geom_bond_atom_site_label_1
_geom_bond_atom_site_label_2
_geom_bond_site_symmetry_1
_geom_bond_site_symmetry_2
C21 H14 1_555 1_555
C22 C21 1_555 1_555
H15 C22 1_555 1_555
O8 Cd2 1_555 1_555
N7 C27 1_555 1_555
C28 N7 1_555 1_555
H21 C28 1_555 1_555
C29 N7 1_555 1_555
H23 C29 1_555 1_555
H24 C29 1_555 1_555
H25 C29 1_555 1_555
C54 H42 1_555 1_555
H43 C55 1_555 1_555
N17 Cd2 1_555 1_555
O21 Cd2 1_555 1_555
C27 O8 1_555 1_555
C54 C55 1_555 1_555
Cd2_2 N5 1_555 1_555
C1 C2 1_555 1_555
C2 H1 1_555 1_555
C3 C2 1_555 1_555
C4 C3 1_555 1_555
H2 C4 1_555 1_555
C5 C4 1_555 1_555
C6 C1 1_555 1_555
H3 C6 1_555 1_555
C8 C3 1_555 1_555
C24 C23 1_555 1_555
H16 C24 1_555 1_555
C25 C24 1_555 1_555
H17 C25 1_555 1_555
C26 C23 1_555 1_555
H18 C26 1_555 1_555
O3 C8 1_555 1_555
O4 C8 1_555 1_555
O5 Cd2_2 1_555 1_555
O6 S1 1_555 1_555
O7 S1 1_555 1_555
S1 C5 1_555 1_555
O16 Cd2_2 1_555 1_555
N14 C56 1_555 1_555
C57 N14 1_555 1_555
H46 C57 1_555 1_555
C58 N14 1_555 1_555
H48 C58 1_555 1_555
H49 C58 1_555 1_555
H50 C58 1_555 1_555
Cd5 O3 1_555 1_555
C5 C6 1_555 1_555
C25 N5 1_555 1_555
O4 Cd5 1_555 1_555
O5 S1 1_555 1_555
C56 O16 1_555 1_555
C51 C50 1_555 1_555
C52 C51 1_555 1_555
H40 C52 1_555 1_555
C53 C52 1_555 1_555
H41 C53 1_555 1_555
N13 C53 1_555 1_555
Cd7 N13 1_555 1_555
C44 H34 1_555 1_555
C45 C44 1_555 1_555
H35 C45 1_555 1_555
C46 C45 1_555 1_555
C47 C46 1_555 1_555
C48 C47 1_555 1_555
C49 C46 1_555 1_555
H38 C49 1_555 1_555
N10 Cd7 1_555 1_555
N11 C49 1_555 1_555
O9 Cd7 1_555 1_555
O10 Cd7 1_555 1_555
O18 Cd7 1_555 1_555
O20 Cd7 1_555 1_555
C42 O9 1_555 1_555
C42 O10 1_555 1_555
C44 N10 1_555 1_555
C48 N10 1_555 1_555
N11 N12 1_555 1_555
Cd5 N1 1_555 1_555
C9 H4 1_555 1_555
C10 C9 1_555 1_555
H5 C10 1_555 1_555
C11 C10 1_555 1_555
C12 C11 1_555 1_555
C13 C12 1_555 1_555
C14 C11 1_555 1_555
H8 C14 1_555 1_555
N1 C9 1_555 1_555
N2 C14 1_555 1_555
O1 Cd5 1_555 1_555
O2 Cd5 1_555 1_555
N15 Cd5 1_555 1_555
C7 O1 1_555 1_555
C7 O2 1_555 1_555
C13 N1 1_555 1_555
N2 N3 1_555 1_555
C16 C15 1_555 1_555
C17 C16 1_555 1_555
H10 C17 1_555 1_555
C18 C17 1_555 1_555
H11 C18 1_555 1_555
N15 C18 1_555 1_555
C33 C32 1_555 1_555
H28 C33 1_555 1_555
C34 C33 1_555 1_555
H29 C34 1_555 1_555
C35 C32 1_555 1_555
H30 C35 1_555 1_555
C34 N17 1_555 1_555
C30 H26 1_555 1_555
C31 C30 1_555 1_555
H27 C31 1_555 1_555
C36 C37 1_555 1_555
C37 H31 1_555 1_555
C38 C37 1_555 1_555
C39 C38 1_555 1_555
H32 C39 1_555 1_555
C40 C39 1_555 1_555
C41 C36 1_555 1_555
H33 C41 1_555 1_555
C43 C38 1_555 1_555
O20 C43 1_555 1_555
O21 S2 1_555 1_555
O14 S2 1_555 1_555
O15 S2 1_555 1_555
S2 C40 1_555 1_555
C40 C41 1_555 1_555
C43 O18 1_555 1_555
C19 H12 1_555 1_555
H13 C20 1_555 1_555
C19 C20 1_555 1_555

#END
