
###############################################################################
#
# This file contains modified crystal structure data generated from the
# MOF subset of the Cambridge Structural Database (CSD) v543 
# hosted by the Cambridge Crystallographic Data Centre (CCDC).
#
# This work is licensed under the Creative Commons
# Attribution-NonCommercial-ShareAlike 4.0 International License.
# To view a copy of this license, visit
# http://creativecommons.org/licenses/by-nc-sa/4.0/
# or send a letter to
# Creative Commons, PO Box 1866, Mountain View, CA 94042, USA.
#
# CIF created using the CSD Python API on 29 September 2022
# The structure has been converted into the P1 space group
# The structure has a 3D framework
# The original CSD entry SISZEC is in the triclinic crystal system
# The framework has been calculated to contain at least 10.0% void space
# The void calculation uses a probe of radius 1.32A, grid spacing 0.4
#
###############################################################################

data_SISZEC
_chemical_formula_moiety         '(C52 H44 Cd9 N14 O16 S2)n'
_symmetry_cell_setting           triclinic
_symmetry_space_group_name_H-M   'P 1'
_symmetry_Int_Tables_number      1
_space_group_name_Hall           'P 1'
loop_
_symmetry_equiv_pos_site_id
_symmetry_equiv_pos_as_xyz
1 x,y,z
_cell_length_a                   10.1392(5)
_cell_length_b                   13.6080(6)
_cell_length_c                   13.6470(6)
_cell_angle_alpha                73.3300(10)
_cell_angle_beta                 82.4700(10)
_cell_angle_gamma                81.9220(10)
_cell_volume                     1777.71
loop_
_atom_site_label
_atom_site_type_symbol
_atom_site_fract_x
_atom_site_fract_y
_atom_site_fract_z
Cd10 Cd 0.000000 -0.000000 0.000000
Cd10_2 Cd 0.000000 -0.000000 1.000000
C22 C 0.0333(5) 0.3049(4) 0.0625(4)
H14 H 0.045608 0.323330 0.120977
C23 C 0.0353(5) 0.2022(3) 0.0648(4)
H15 H 0.048605 0.151915 0.126303
H23 H 0.008150 0.775134 0.163716
C28 C 0.0013(5) 0.6503(4) 0.1159(4)
H24 H 0.012486 0.601663 0.178672
H40 H 0.296822 0.018000 0.243578
Cd10_3 Cd 0.000000 1.000000 0.000000
C1 C 0.0478(4) 0.2652(3) 0.6029(3)
C2 C 0.0613(4) 0.1619(3) 0.6600(3)
C3 C 0.1872(4) 0.1143(3) 0.6869(3)
C4 C 0.2989(4) 0.1679(3) 0.6549(3)
H2 H 0.383134 0.134688 0.671073
C5 C 0.2852(4) 0.2714(3) 0.5987(3)
C6 C 0.1588(4) 0.3205(3) 0.5730(3)
H3 H 0.148833 0.389662 0.536181
C8 C 0.4072(4) 0.3277(3) 0.5680(3)
C19 C 0.0020(5) 0.2453(4) 0.8941(4)
C21 C 0.0126(5) 0.3791(3) 0.9709(4)
N5 N 0.0189(4) 0.1722(3) 0.9821(3)
N6 N 0.0046(4) 0.4892(3) 0.9583(3)
O3 O 0.3978(3) 0.4211(2) 0.5176(2)
O4 O 0.5179(3) 0.2792(2) 0.5957(3)
Cd6 Cd 0.66134(3) 0.40435(2) 0.53674(2)
Cd9 Cd 0.33866(3) 0.59565(2) 0.46326(2)
Cd10_4 Cd 0.000000 1.000000 1.000000
C45 C 0.3428(5) 0.5527(4) 0.1029(3)
C46 C 0.3571(5) 0.6472(4) 0.1180(3)
H34 H 0.363706 0.705823 0.062808
C47 C 0.3613(5) 0.6515(4) 0.2177(3)
H35 H 0.369060 0.714869 0.228416
C48 C 0.3418(5) 0.4786(4) 0.2839(4)
H36 H 0.336242 0.420945 0.340221
C49 C 0.3364(5) 0.4673(4) 0.1866(4)
H37 H 0.328558 0.403041 0.178089
N12 N 0.3387(4) 0.5374(3) 0.0036(3)
N13 N 0.3547(4) 0.5688(3) 0.2997(3)
H27 H 0.012979 0.874832 0.320111
C38 C 0.0887(4) 0.6841(3) 0.4259(3)
C40 C 0.3285(6) 0.6859(4) 0.6550(4)
H30 H 0.337512 0.744552 0.600219
C41 C 0.3247(6) 0.6951(4) 0.7539(4)
H31 H 0.328785 0.758704 0.765391
C42 C 0.3148(4) 0.6067(4) 0.8353(3)
C43 C 0.3047(5) 0.5135(4) 0.8151(3)
H32 H 0.296585 0.453412 0.868284
C44 C 0.3070(5) 0.5127(4) 0.7141(3)
H33 H 0.299328 0.450756 0.700400
C50 C 0.3381(5) 0.9484(4) 0.2533(4)
H38 H 0.418683 0.939940 0.286137
H39 H 0.277628 0.901563 0.295608
C51 C 0.5113(5) 0.8962(4) 0.1242(4)
H41 H 0.564247 0.896120 0.177609
H42 H 0.541250 0.944431 0.061393
H43 H 0.520706 0.828400 0.114425
C52 C 0.2771(4) 0.9325(3) 0.0925(4)
H44 H 0.302834 0.918890 0.029333
N10 N 0.3198(4) 0.5971(3) 0.6346(3)
N11 N 0.3162(4) 0.6200(3) 0.9357(3)
N14 N 0.3705(4) 0.9264(3) 0.1533(3)
O9 O 0.1045(3) 0.5884(2) 0.4663(3)
O10 O 0.1827(3) 0.7398(2) 0.4072(3)
O16 O 0.1555(3) 0.9557(2) 0.1156(2)
O20 O 0.6022(3) 0.5789(2) 0.4824(2)
O22 O 0.4821(3) 0.7208(2) 0.4043(3)
O5 O 0.3425(3) 0.9451(2) 0.7483(2)
O6 O 0.1076(3) 0.9320(2) 0.7372(3)
O7 O 0.1731(3) 0.9952(2) 0.8720(2)
S1 S 0.20284(10) 0.98560(8) 0.76617(8)
Cd10_5 Cd 1.000000 -0.000000 0.000000
Cd10_6 Cd 1.000000 -0.000000 1.000000
C27 C 0.9980(5) 0.7547(4) 0.1059(4)
C29 C 0.9874(5) 0.6209(3) 0.0291(4)
N8 N 0.9811(4) 0.8278(3) 0.0179(3)
N9 N 0.9954(4) 0.5108(3) 0.0417(3)
O13 O 0.6575(3) 0.0549(2) 0.2517(2)
O14 O 0.8924(3) 0.0680(2) 0.2628(3)
O15 O 0.8269(3) 0.0048(2) 0.1280(2)
S2 S 0.79716(10) 0.01440(8) 0.23383(8)
Cd10_7 Cd 1.000000 1.000000 0.000000
H1 H 0.987021 0.125168 0.679889
C7 C 0.9113(4) 0.3159(3) 0.5741(3)
C9 C 0.6715(6) 0.3141(4) 0.3450(4)
H4 H 0.662488 0.255448 0.399781
C10 C 0.6753(6) 0.3049(4) 0.2461(4)
H5 H 0.671215 0.241296 0.234609
C11 C 0.6852(4) 0.3933(4) 0.1647(3)
C12 C 0.6953(5) 0.4865(4) 0.1849(3)
H6 H 0.703415 0.546588 0.131716
C13 C 0.6930(5) 0.4873(4) 0.2859(3)
H7 H 0.700672 0.549244 0.299600
H12 H 0.991850 0.224866 0.836284
C20 C 0.9987(5) 0.3497(4) 0.8841(4)
H13 H 0.987514 0.398337 0.821328
C24 C 0.6619(5) 0.0516(4) 0.7467(4)
H16 H 0.581317 0.060060 0.713863
H17 H 0.722372 0.098437 0.704392
C25 C 0.4887(5) 0.1038(4) 0.8758(4)
H19 H 0.435753 0.103880 0.822391
H20 H 0.458750 0.055569 0.938607
H21 H 0.479294 0.171600 0.885575
C26 C 0.7229(4) 0.0675(3) 0.9075(4)
H22 H 0.697166 0.081110 0.970667
N1 N 0.6802(4) 0.4029(3) 0.3654(3)
N2 N 0.6838(4) 0.3800(3) 0.0643(3)
N7 N 0.6295(4) 0.0736(3) 0.8467(3)
O1 O 0.8955(3) 0.4116(2) 0.5337(3)
O2 O 0.8173(3) 0.2602(2) 0.5928(3)
O8 O 0.8445(3) 0.0443(2) 0.8844(2)
C30 C 0.9667(5) 0.6951(4) 0.9375(4)
H25 H 0.954392 0.676670 0.879023
C31 C 0.9647(5) 0.7978(3) 0.9352(4)
H26 H 0.951395 0.848085 0.873697
N15 N 0.6453(4) 0.4312(3) 0.7003(3)
Cd10_8 Cd 1.000000 1.000000 1.000000
C14 C 0.6572(5) 0.4473(4) 0.8971(3)
C15 C 0.6429(5) 0.3528(4) 0.8820(3)
H8 H 0.636294 0.294177 0.937192
C16 C 0.6387(5) 0.3485(4) 0.7823(3)
H9 H 0.630940 0.285131 0.771584
C17 C 0.6582(5) 0.5214(4) 0.7161(4)
H10 H 0.663758 0.579055 0.659779
C18 C 0.6636(5) 0.5327(4) 0.8134(4)
H11 H 0.671442 0.596959 0.821911
N3 N 0.6613(4) 0.4626(3) 0.9964(3)
C32 C 0.9522(4) 0.7348(3) 0.3971(3)
C33 C 0.9387(4) 0.8381(3) 0.3400(3)
C34 C 0.8128(4) 0.8857(3) 0.3131(3)
C35 C 0.7011(4) 0.8321(3) 0.3451(3)
H28 H 0.616866 0.865312 0.328927
C36 C 0.7148(4) 0.7286(3) 0.4013(3)
C37 C 0.8412(4) 0.6795(3) 0.4270(3)
H29 H 0.851167 0.610338 0.463819
C39 C 0.5928(4) 0.6723(3) 0.4320(3)
H18 H 0.703178 0.982000 0.756422
loop_
_geom_bond_atom_site_label_1
_geom_bond_atom_site_label_2
_geom_bond_site_symmetry_1
_geom_bond_site_symmetry_2
H14 C22 1_555 1_555
C23 C22 1_555 1_555
H15 C23 1_555 1_555
H24 C28 1_555 1_555
C1 C2 1_555 1_555
C3 C2 1_555 1_555
C4 C3 1_555 1_555
H2 C4 1_555 1_555
C5 C4 1_555 1_555
C6 C1 1_555 1_555
H3 C6 1_555 1_555
C8 C5 1_555 1_555
N5 C19 1_555 1_555
N6 C21 1_555 1_555
O3 C8 1_555 1_555
O4 C8 1_555 1_555
Cd10_2 N5 1_555 1_555
Cd6 O3 1_555 1_555
Cd9 O3 1_555 1_555
C5 C6 1_555 1_555
O4 Cd6 1_555 1_555
C45 C46 1_555 1_555
C46 H34 1_555 1_555
C47 C46 1_555 1_555
H35 C47 1_555 1_555
C48 H36 1_555 1_555
C49 C45 1_555 1_555
H37 C49 1_555 1_555
N12 C45 1_555 1_555
N13 C47 1_555 1_555
Cd9 N13 1_555 1_555
C48 C49 1_555 1_555
C48 N13 1_555 1_555
C40 H30 1_555 1_555
C41 C40 1_555 1_555
H31 C41 1_555 1_555
C42 C41 1_555 1_555
C43 C42 1_555 1_555
H32 C43 1_555 1_555
C44 C43 1_555 1_555
H33 C44 1_555 1_555
C50 H38 1_555 1_555
H39 C50 1_555 1_555
C51 H41 1_555 1_555
H42 C51 1_555 1_555
H43 C51 1_555 1_555
C52 H44 1_555 1_555
N10 C40 1_555 1_555
N11 C42 1_555 1_555
N14 C50 1_555 1_555
O9 C38 1_555 1_555
O10 C38 1_555 1_555
O16 Cd10_3 1_555 1_555
Cd9 N10 1_555 1_555
O20 Cd9 1_555 1_555
O22 Cd9 1_555 1_555
C44 N10 1_555 1_555
C51 N14 1_555 1_555
C52 N14 1_555 1_555
C52 O16 1_555 1_555
O9 Cd9 1_555 1_555
O10 Cd9 1_555 1_555
O5 S1 1_555 1_555
O6 S1 1_555 1_555
O7 S1 1_555 1_555
O7 Cd10_4 1_555 1_555
N8 C27 1_555 1_555
O13 S2 1_555 1_555
O14 S2 1_555 1_555
O15 Cd10_5 1_555 1_555
Cd10_7 N8 1_555 1_555
C29 N9 1_555 1_555
O15 S2 1_555 1_555
C9 H4 1_555 1_555
C10 C9 1_555 1_555
H5 C10 1_555 1_555
C11 C10 1_555 1_555
C12 C11 1_555 1_555
H6 C12 1_555 1_555
C13 C12 1_555 1_555
H7 C13 1_555 1_555
H13 C20 1_555 1_555
C24 H16 1_555 1_555
H17 C24 1_555 1_555
C25 H19 1_555 1_555
H20 C25 1_555 1_555
H21 C25 1_555 1_555
C26 H22 1_555 1_555
N1 C9 1_555 1_555
N2 C11 1_555 1_555
N7 C24 1_555 1_555
O1 C7 1_555 1_555
O2 C7 1_555 1_555
O8 C26 1_555 1_555
Cd6 N1 1_555 1_555
H25 C30 1_555 1_555
C31 C30 1_555 1_555
H26 C31 1_555 1_555
N15 Cd6 1_555 1_555
O20 Cd6 1_555 1_555
C13 N1 1_555 1_555
C25 N7 1_555 1_555
C26 N7 1_555 1_555
O1 Cd6 1_555 1_555
O2 Cd6 1_555 1_555
O8 Cd10_6 1_555 1_555
C14 C15 1_555 1_555
C15 H8 1_555 1_555
C16 C15 1_555 1_555
H9 C16 1_555 1_555
C17 H10 1_555 1_555
C18 C14 1_555 1_555
H11 C18 1_555 1_555
N3 C14 1_555 1_555
N15 C16 1_555 1_555
C17 C18 1_555 1_555
C17 N15 1_555 1_555
C32 C33 1_555 1_555
C34 C33 1_555 1_555
C35 C34 1_555 1_555
H28 C35 1_555 1_555
C36 C35 1_555 1_555
C37 C32 1_555 1_555
H29 C37 1_555 1_555
C39 C36 1_555 1_555
O20 C39 1_555 1_555
O22 C39 1_555 1_555
C36 C37 1_555 1_555

#END
