
###############################################################################
#
# This file contains modified crystal structure data generated from the
# MOF subset of the Cambridge Structural Database (CSD) v543 
# hosted by the Cambridge Crystallographic Data Centre (CCDC).
#
# This work is licensed under the Creative Commons
# Attribution-NonCommercial-ShareAlike 4.0 International License.
# To view a copy of this license, visit
# http://creativecommons.org/licenses/by-nc-sa/4.0/
# or send a letter to
# Creative Commons, PO Box 1866, Mountain View, CA 94042, USA.
#
# CIF created using the CSD Python API on 29 September 2022
# The structure has been converted into the P1 space group
# The structure has a 3D framework
# The original CSD entry SITDEH is in the monoclinic crystal system
# The framework has been calculated to contain at least 10.0% void space
# The void calculation uses a probe of radius 1.32A, grid spacing 0.4
#
###############################################################################

data_SITDEH
_chemical_formula_moiety         '(C80 H76 N4 O42 Zn6)n'
_symmetry_cell_setting           triclinic
_symmetry_space_group_name_H-M   'P 1'
_symmetry_Int_Tables_number      1
_space_group_name_Hall           'P 1'
loop_
_symmetry_equiv_pos_site_id
_symmetry_equiv_pos_as_xyz
1 x,y,z
_cell_length_a                   14.1033(8)
_cell_length_b                   13.4755(8)
_cell_length_c                   17.8473(11)
_cell_angle_alpha                90
_cell_angle_beta                 95.2700(10)
_cell_angle_gamma                90
_cell_volume                     3377.52
loop_
_atom_site_label
_atom_site_type_symbol
_atom_site_fract_x
_atom_site_fract_y
_atom_site_fract_z
O1 O 0.44176(11) 0.05539(11) 0.16745(9)
O2 O 0.39296(15) 0.08847(15) 0.27958(10)
O7 O 0.04327(10) 0.37316(10) 0.19298(8)
O11 O 0.13184(12) 0.33528(15) 0.29733(9)
C1 C 0.39189(15) 0.10375(16) 0.21147(12)
C2 C 0.32617(15) 0.18155(15) 0.17550(11)
C11 C 0.26486(14) 0.27548(16) 0.06527(11)
C12 C 0.19441(15) 0.31395(15) 0.10727(11)
H4 H 0.1481 0.3581 0.0841
C13 C 0.19103(14) 0.28854(15) 0.18259(11)
C14 C 0.25757(15) 0.22303(16) 0.21706(11)
C15 C 0.33057(15) 0.20872(16) 0.10066(11)
H5 H 0.3790 0.1815 0.0732
C16 C 0.11829(14) 0.33297(15) 0.22828(11)
H15 H 0.251(2) 0.202(2) 0.2674(16)
O12 O 0.05824(11) 0.55539(11) 0.33255(9)
O3 O 0.42178(10) 0.13405(11) 0.84277(8)
O4 O 0.36722(11) 0.22279(11) 0.74140(8)
O6 O 0.13398(11) 0.55753(11) 0.88714(8)
O8 O 0.12253(11) 0.47940(12) 0.77584(8)
C3 C 0.37219(14) 0.20262(15) 0.80993(11)
C4 C 0.15214(14) 0.48751(15) 0.84415(11)
C5 C 0.21323(14) 0.40410(15) 0.87668(11)
C6 C 0.21766(15) 0.38475(16) 0.95372(11)
H1 H 0.1869 0.4282 0.9857
C7 C 0.26710(15) 0.30187(15) 0.98429(11)
C8 C 0.31622(14) 0.24312(16) 0.93609(11)
H2 H 0.3508 0.1870 0.9558
C9 C 0.31554(14) 0.26514(15) 0.85965(11)
C10 C 0.26178(14) 0.34439(15) 0.82943(11)
H3 H 0.2582 0.3577 0.7770
Zn4 Zn 0.010890(15) 0.549523(16) 0.724358(12)
Zn5 Zn 0.489110(15) 0.049523(16) 0.775642(12)
Zn6 Zn 0.081700(16) 0.696748(16) 0.864579(12)
Zn7 Zn 0.418300(16) 0.196748(16) 0.635421(12)
Zn3 Zn 0.510890(15) 0.950477(16) 0.224358(12)
Zn1 Zn 0.989110(15) 0.450477(16) 0.275642(12)
Zn2 Zn 0.918300(16) 0.303252(16) 0.135421(12)
O5 O 0.98264(13) 0.16531(13) 0.14327(11)
O9 O 0.97675(12) 0.31315(14) 0.03088(9)
O10 O 0.79268(11) 0.23485(13) 0.09171(9)
C17 C 0.73535(16) 0.22172(18) 0.03587(13)
N1 N 0.66972(15) 0.15118(18) 0.03658(11)
C20 C 0.6669(2) 0.0890(3) 0.10370(17)
H12 H 0.6150 0.0408 0.0956
H13 H 0.6564 0.1309 0.1471
H14 H 0.7276 0.0537 0.1134
H16 H 0.967(2) 0.353(3) 0.0002(19)
H17 H 0.978(2) 0.259(3) 0.0090(19)
H18 H 0.977(2) 0.141(2) 0.103(2)
H19 H 0.962(3) 0.130(3) 0.176(2)
O13 O 0.92178(10) 0.36595(11) 0.34277(8)
O14 O 0.86722(11) 0.27721(11) 0.24140(8)
O15 O 0.86602(11) 0.44247(11) 0.11286(8)
O16 O 0.87747(11) 0.52060(12) 0.22416(8)
O6_2 O 0.36602(11) 0.05753(11) 0.61286(8)
O16_2 O 0.62253(11) 0.02060(12) 0.27584(8)
Zn2_2 Zn 0.581700(16) 0.803252(16) 0.364579(12)
O2_2 O 0.10704(15) 0.58847(15) 0.22042(10)
O3_2 O 0.07822(10) 0.63405(11) 0.65723(8)
O4_2 O 0.13278(11) 0.72279(11) 0.75860(8)
O5_2 O 0.51736(13) 0.66531(13) 0.35673(11)
O7_2 O 0.45673(10) 0.87316(10) 0.30702(8)
O8_2 O 0.37747(11) 0.97940(12) 0.72416(8)
O9_2 O 0.52325(12) 0.81315(14) 0.46912(9)
O10_2 O 0.70732(11) 0.73485(13) 0.40829(9)
O11_2 O 0.36816(12) 0.83528(15) 0.20267(9)
C1_2 C 0.10811(15) 0.60375(16) 0.28853(12)
C2_2 C 0.17383(15) 0.68155(15) 0.32450(11)
C3_2 C 0.12781(14) 0.70262(15) 0.69007(11)
C4_2 C 0.34786(14) 0.98751(15) 0.65585(11)
C5_2 C 0.28677(14) 0.90410(15) 0.62332(11)
C6_2 C 0.28234(15) 0.88475(16) 0.54628(11)
H1_2 H 0.3131 0.9282 0.5143
C7_2 C 0.23290(15) 0.80187(15) 0.51571(11)
C8_2 C 0.18378(14) 0.74312(16) 0.56391(11)
H2_2 H 0.1492 0.6870 0.5442
C9_2 C 0.18446(14) 0.76514(15) 0.64035(11)
C10_2 C 0.23822(14) 0.84439(15) 0.67057(11)
H3_2 H 0.2418 0.8577 0.7230
C11_2 C 0.23514(14) 0.77548(16) 0.43473(11)
C12_2 C 0.30559(15) 0.81395(15) 0.39273(11)
H4_2 H 0.3519 0.8581 0.4159
C13_2 C 0.30897(14) 0.78854(15) 0.31741(11)
C14_2 C 0.24243(15) 0.72303(16) 0.28294(11)
C15_2 C 0.16943(15) 0.70872(16) 0.39934(11)
H5_2 H 0.1210 0.6815 0.4268
C16_2 C 0.38171(14) 0.83297(15) 0.27172(11)
C17_2 C 0.76465(16) 0.72172(18) 0.46413(13)
C18 C 0.7617(2) 0.7853(2) 0.53327(16)
H6 H 0.8121 0.7643 0.5715
H7 H 0.6996 0.7780 0.5532
H8 H 0.7716 0.8549 0.5201
N1_2 N 0.83028(15) 0.65118(18) 0.46342(11)
C19 C 0.9047(2) 0.6320(3) 0.52410(16)
H9 H 0.9441 0.5762 0.5102
H10 H 0.8754 0.6157 0.5703
H11 H 0.9446 0.6912 0.5326
C20_2 C 0.8331(2) 0.5890(3) 0.39630(17)
H12_2 H 0.8850 0.5408 0.4044
H13_2 H 0.8436 0.6309 0.3529
H14_2 H 0.7724 0.5537 0.3866
H15_2 H 0.249(2) 0.702(2) 0.2326(16)
H16_2 H 0.533(2) 0.853(3) 0.4998(19)
H17_2 H 0.522(2) 0.759(3) 0.4910(19)
H18_2 H 0.523(2) 0.641(2) 0.397(2)
H19_2 H 0.538(3) 0.630(3) 0.324(2)
O13_2 O 0.57822(10) 0.86595(11) 0.15723(8)
O14_2 O 0.63278(11) 0.77721(11) 0.25860(8)
O15_2 O 0.63398(11) 0.94247(11) 0.38714(8)
O5_3 O 0.01736(13) 0.83469(13) 0.85673(11)
O9_3 O 0.02325(12) 0.68685(14) 0.96912(9)
O10_3 O 0.20732(11) 0.76515(13) 0.90829(9)
C17_3 C 0.26465(16) 0.77828(18) 0.96413(13)
N1_3 N 0.33028(15) 0.84882(18) 0.96342(11)
C20_3 C 0.3331(2) 0.9110(3) 0.89630(17)
H12_3 H 0.3850 0.9592 0.9044
H13_3 H 0.3436 0.8691 0.8529
H14_3 H 0.2724 0.9463 0.8866
H16_3 H 0.033(2) 0.647(3) 0.9998(19)
H17_3 H 0.022(2) 0.741(3) 0.9910(19)
H18_3 H 0.023(2) 0.859(2) 0.897(2)
H19_3 H 0.038(3) 0.870(3) 0.824(2)
C3_3 C 0.62781(14) 0.79738(15) 0.19007(11)
C4_3 C 0.84786(14) 0.51249(15) 0.15585(11)
C5_3 C 0.78677(14) 0.59590(15) 0.12332(11)
C6_3 C 0.78234(15) 0.61525(16) 0.04628(11)
H1_3 H 0.8131 0.5718 0.0143
C7_3 C 0.73290(15) 0.69813(15) 0.01571(11)
C8_3 C 0.68378(14) 0.75688(16) 0.06391(11)
H2_3 H 0.6492 0.8130 0.0442
C9_3 C 0.68446(14) 0.73486(15) 0.14035(11)
C10_3 C 0.73822(14) 0.65561(15) 0.17057(11)
H3_3 H 0.7418 0.6423 0.2230
O1_2 O 0.55824(11) 0.94461(11) 0.83255(9)
O2_3 O 0.60704(15) 0.91153(15) 0.72042(10)
O7_3 O 0.95673(10) 0.62684(10) 0.80702(8)
O11_3 O 0.86816(12) 0.66472(15) 0.70267(9)
C1_3 C 0.60811(15) 0.89625(16) 0.78853(12)
C2_3 C 0.67383(15) 0.81845(15) 0.82450(11)
C11_3 C 0.73514(14) 0.72452(16) 0.93473(11)
C12_3 C 0.80559(15) 0.68605(15) 0.89273(11)
H4_3 H 0.8519 0.6419 0.9159
C13_3 C 0.80897(14) 0.71146(15) 0.81741(11)
C14_3 C 0.74243(15) 0.77697(16) 0.78294(11)
C15_3 C 0.66943(15) 0.79128(16) 0.89934(11)
H5_3 H 0.6210 0.8185 0.9268
C16_3 C 0.88171(14) 0.66703(15) 0.77172(11)
H15_3 H 0.749(2) 0.798(2) 0.7326(16)
O12_2 O 0.94176(11) 0.44461(11) 0.66745(9)
O2_4 O 0.89296(15) 0.41153(15) 0.77958(10)
O5_4 O 0.48264(13) 0.33469(13) 0.64327(11)
O7_4 O 0.54327(10) 0.12684(10) 0.69298(8)
O9_4 O 0.47675(12) 0.18685(14) 0.53088(9)
O10_4 O 0.29268(11) 0.26515(13) 0.59171(9)
O11_4 O 0.63184(12) 0.16472(15) 0.79733(9)
C1_4 C 0.89189(15) 0.39625(16) 0.71147(12)
C2_4 C 0.82617(15) 0.31845(15) 0.67550(11)
C3_4 C 0.87219(14) 0.29738(15) 0.30993(11)
C4_4 C 0.65214(14) 0.01249(15) 0.34415(11)
C5_4 C 0.71323(14) 0.09590(15) 0.37668(11)
C6_4 C 0.71766(15) 0.11525(16) 0.45372(11)
H1_4 H 0.6869 0.0718 0.4857
C7_4 C 0.76710(15) 0.19813(15) 0.48429(11)
C8_4 C 0.81622(14) 0.25688(16) 0.43609(11)
H2_4 H 0.8508 0.3130 0.4558
C9_4 C 0.81554(14) 0.23486(15) 0.35965(11)
C10_4 C 0.76178(14) 0.15561(15) 0.32943(11)
H3_4 H 0.7582 0.1423 0.2770
C11_4 C 0.76486(14) 0.22452(16) 0.56527(11)
C12_4 C 0.69441(15) 0.18605(15) 0.60727(11)
H4_4 H 0.6481 0.1419 0.5841
C13_4 C 0.69103(14) 0.21146(15) 0.68259(11)
C14_4 C 0.75757(15) 0.27697(16) 0.71706(11)
C15_4 C 0.83057(15) 0.29128(16) 0.60066(11)
H5_4 H 0.8790 0.3185 0.5732
C16_4 C 0.61829(14) 0.16703(15) 0.72828(11)
C17_4 C 0.23535(16) 0.27828(18) 0.53587(13)
C18_2 C 0.2383(2) 0.2147(2) 0.46673(16)
H6_2 H 0.1879 0.2357 0.4285
H7_2 H 0.3004 0.2220 0.4468
H8_2 H 0.2284 0.1451 0.4799
N1_4 N 0.16972(15) 0.34882(18) 0.53658(11)
C19_2 C 0.0953(2) 0.3680(3) 0.47590(16)
H9_2 H 0.0559 0.4238 0.4898
H10_2 H 0.1246 0.3843 0.4297
H11_2 H 0.0554 0.3088 0.4674
C20_4 C 0.1669(2) 0.4110(3) 0.60370(17)
H12_4 H 0.1150 0.4592 0.5956
H13_4 H 0.1564 0.3691 0.6471
H14_4 H 0.2276 0.4463 0.6134
H15_4 H 0.751(2) 0.298(2) 0.7674(16)
H16_4 H 0.467(2) 0.147(3) 0.5002(19)
H17_4 H 0.478(2) 0.241(3) 0.5090(19)
H18_4 H 0.477(2) 0.359(2) 0.603(2)
H19_4 H 0.462(3) 0.370(3) 0.676(2)
C18_3 C 0.7383(2) 0.2853(2) 0.96673(16)
H6_3 H 0.6879 0.2643 0.9285
H7_3 H 0.8004 0.2780 0.9468
H8_3 H 0.7284 0.3549 0.9799
C19_3 C 0.5953(2) 0.1320(3) 0.97590(16)
H9_3 H 0.5559 0.0762 0.9898
H10_3 H 0.6246 0.1157 0.9297
H11_3 H 0.5554 0.1912 0.9674
C18_4 C 0.2617(2) 0.7147(2) 0.03327(16)
H6_4 H 0.3121 0.7357 0.0715
H7_4 H 0.1996 0.7220 0.0532
H8_4 H 0.2716 0.6451 0.0201
C19_4 C 0.4047(2) 0.8680(3) 0.02410(16)
H9_4 H 0.4441 0.9238 0.0102
H10_4 H 0.3754 0.8843 0.0703
H11_4 H 0.4446 0.8088 0.0326
loop_
_geom_bond_atom_site_label_1
_geom_bond_atom_site_label_2
_geom_bond_site_symmetry_1
_geom_bond_site_symmetry_2
O1 C1 1_555 1_555
O2 C1 1_555 1_555
C1 C2 1_555 1_555
C2 C14 1_555 1_555
C12 C11 1_555 1_555
H4 C12 1_555 1_555
C13 C12 1_555 1_555
C14 C13 1_555 1_555
C15 C2 1_555 1_555
H5 C15 1_555 1_555
C16 O7 1_555 1_555
H15 C14 1_555 1_555
O11 C16 1_555 1_555
C11 C15 1_555 1_555
C13 C16 1_555 1_555
O3 C3 1_555 1_555
O4 C3 1_555 1_555
O6 C4 1_555 1_555
O8 C4 1_555 1_555
C3 C9 1_555 1_555
C4 C5 1_555 1_555
C5 C6 1_555 1_555
C6 H1 1_555 1_555
C7 C6 1_555 1_555
C8 C7 1_555 1_555
H2 C8 1_555 1_555
C9 C8 1_555 1_555
C10 C5 1_555 1_555
H3 C10 1_555 1_555
Zn4 O8 1_555 1_555
Zn5 O3 1_555 1_555
Zn6 O6 1_555 1_555
Zn7 O4 1_555 1_555
C9 C10 1_555 1_555
Zn2 O5 1_555 1_555
O5 H18 1_555 1_555
O9 Zn2 1_555 1_555
O10 Zn2 1_555 1_555
C17 O10 1_555 1_555
N1 C17 1_555 1_555
C20 N1 1_555 1_555
H12 C20 1_555 1_555
H13 C20 1_555 1_555
H14 C20 1_555 1_555
H16 O9 1_555 1_555
H17 O9 1_555 1_555
H19 O5 1_555 1_555
O13 Zn1 1_555 1_555
O14 Zn2 1_555 1_555
O15 Zn2 1_555 1_555
O16 Zn1 1_555 1_555
Zn7 O6_2 1_555 1_555
Zn3 O7_2 1_555 1_555
Zn2_2 O5_2 1_555 1_555
O12 C1_2 1_555 1_555
O2_2 C1_2 1_555 1_555
O3_2 C3_2 1_555 1_555
O4_2 C3_2 1_555 1_555
O5_2 H18_2 1_555 1_555
O7_2 Zn2_2 1_555 1_555
O8_2 C4_2 1_555 1_555
O9_2 Zn2_2 1_555 1_555
O10_2 Zn2_2 1_555 1_555
O11_2 Zn3 1_555 1_555
C1_2 C2_2 1_555 1_555
C2_2 C14_2 1_555 1_555
C3_2 C9_2 1_555 1_555
C4_2 C5_2 1_555 1_555
C5_2 C6_2 1_555 1_555
C6_2 H1_2 1_555 1_555
C7_2 C6_2 1_555 1_555
C8_2 C7_2 1_555 1_555
H2_2 C8_2 1_555 1_555
C9_2 C8_2 1_555 1_555
C10_2 C5_2 1_555 1_555
H3_2 C10_2 1_555 1_555
C11_2 C7_2 1_555 1_555
C12_2 C11_2 1_555 1_555
H4_2 C12_2 1_555 1_555
C13_2 C12_2 1_555 1_555
C14_2 C13_2 1_555 1_555
C15_2 C2_2 1_555 1_555
H5_2 C15_2 1_555 1_555
C16_2 O7_2 1_555 1_555
C17_2 O10_2 1_555 1_555
C18 C17_2 1_555 1_555
H6 C18 1_555 1_555
H7 C18 1_555 1_555
H8 C18 1_555 1_555
N1_2 C17_2 1_555 1_555
C19 N1_2 1_555 1_555
H9 C19 1_555 1_555
H10 C19 1_555 1_555
H11 C19 1_555 1_555
C20_2 N1_2 1_555 1_555
H12_2 C20_2 1_555 1_555
H13_2 C20_2 1_555 1_555
H14_2 C20_2 1_555 1_555
H15_2 C14_2 1_555 1_555
H16_2 O9_2 1_555 1_555
H17_2 O9_2 1_555 1_555
H19_2 O5_2 1_555 1_555
Zn4 O3_2 1_555 1_555
Zn6 O4_2 1_555 1_555
O13_2 Zn3 1_555 1_555
O14_2 Zn2_2 1_555 1_555
O15_2 Zn2_2 1_555 1_555
O11_2 C16_2 1_555 1_555
C9_2 C10_2 1_555 1_555
C11_2 C15_2 1_555 1_555
C13_2 C16_2 1_555 1_555
Zn6 O5_3 1_555 1_555
O5_3 H18_3 1_555 1_555
O9_3 Zn6 1_555 1_555
O10_3 Zn6 1_555 1_555
C17_3 O10_3 1_555 1_555
N1_3 C17_3 1_555 1_555
C20_3 N1_3 1_555 1_555
H12_3 C20_3 1_555 1_555
H13_3 C20_3 1_555 1_555
H14_3 C20_3 1_555 1_555
H16_3 O9_3 1_555 1_555
H17_3 O9_3 1_555 1_555
H19_3 O5_3 1_555 1_555
O13_2 C3_3 1_555 1_555
O14_2 C3_3 1_555 1_555
O15 C4_3 1_555 1_555
O16 C4_3 1_555 1_555
C3_3 C9_3 1_555 1_555
C4_3 C5_3 1_555 1_555
C5_3 C6_3 1_555 1_555
C6_3 H1_3 1_555 1_555
C7_3 C6_3 1_555 1_555
C8_3 C7_3 1_555 1_555
H2_3 C8_3 1_555 1_555
C9_3 C8_3 1_555 1_555
C10_3 C5_3 1_555 1_555
H3_3 C10_3 1_555 1_555
C9_3 C10_3 1_555 1_555
O1_2 C1_3 1_555 1_555
O2_3 C1_3 1_555 1_555
C1_3 C2_3 1_555 1_555
C2_3 C14_3 1_555 1_555
C12_3 C11_3 1_555 1_555
H4_3 C12_3 1_555 1_555
C13_3 C12_3 1_555 1_555
C14_3 C13_3 1_555 1_555
C15_3 C2_3 1_555 1_555
H5_3 C15_3 1_555 1_555
C16_3 O7_3 1_555 1_555
H15_3 C14_3 1_555 1_555
O11_3 C16_3 1_555 1_555
C11_3 C15_3 1_555 1_555
C13_3 C16_3 1_555 1_555
Zn5 O7_4 1_555 1_555
Zn7 O5_4 1_555 1_555
O12_2 C1_4 1_555 1_555
O2_4 C1_4 1_555 1_555
O13 C3_4 1_555 1_555
O14 C3_4 1_555 1_555
O5_4 H18_4 1_555 1_555
O7_4 Zn7 1_555 1_555
O16_2 C4_4 1_555 1_555
O9_4 Zn7 1_555 1_555
O10_4 Zn7 1_555 1_555
O11_4 Zn5 1_555 1_555
C1_4 C2_4 1_555 1_555
C2_4 C14_4 1_555 1_555
C3_4 C9_4 1_555 1_555
C4_4 C5_4 1_555 1_555
C5_4 C6_4 1_555 1_555
C6_4 H1_4 1_555 1_555
C7_4 C6_4 1_555 1_555
C8_4 C7_4 1_555 1_555
H2_4 C8_4 1_555 1_555
C9_4 C8_4 1_555 1_555
C10_4 C5_4 1_555 1_555
H3_4 C10_4 1_555 1_555
C11_4 C7_4 1_555 1_555
C12_4 C11_4 1_555 1_555
H4_4 C12_4 1_555 1_555
C13_4 C12_4 1_555 1_555
C14_4 C13_4 1_555 1_555
C15_4 C2_4 1_555 1_555
H5_4 C15_4 1_555 1_555
C16_4 O7_4 1_555 1_555
C17_4 O10_4 1_555 1_555
C18_2 C17_4 1_555 1_555
H6_2 C18_2 1_555 1_555
H7_2 C18_2 1_555 1_555
H8_2 C18_2 1_555 1_555
N1_4 C17_4 1_555 1_555
C19_2 N1_4 1_555 1_555
H9_2 C19_2 1_555 1_555
H10_2 C19_2 1_555 1_555
H11_2 C19_2 1_555 1_555
C20_4 N1_4 1_555 1_555
H12_4 C20_4 1_555 1_555
H13_4 C20_4 1_555 1_555
H14_4 C20_4 1_555 1_555
H15_4 C14_4 1_555 1_555
H16_4 O9_4 1_555 1_555
H17_4 O9_4 1_555 1_555
H19_4 O5_4 1_555 1_555
O11_4 C16_4 1_555 1_555
C9_4 C10_4 1_555 1_555
C11_4 C15_4 1_555 1_555
C13_4 C16_4 1_555 1_555
H6_3 C18_3 1_555 1_555
H7_3 C18_3 1_555 1_555
H8_3 C18_3 1_555 1_555
H9_3 C19_3 1_555 1_555
H10_3 C19_3 1_555 1_555
H11_3 C19_3 1_555 1_555
H6_4 C18_4 1_555 1_555
H7_4 C18_4 1_555 1_555
H8_4 C18_4 1_555 1_555
H9_4 C19_4 1_555 1_555
H10_4 C19_4 1_555 1_555
H11_4 C19_4 1_555 1_555

#END
