
###############################################################################
#
# This file contains modified crystal structure data generated from the
# MOF subset of the Cambridge Structural Database (CSD) v543 
# hosted by the Cambridge Crystallographic Data Centre (CCDC).
#
# This work is licensed under the Creative Commons
# Attribution-NonCommercial-ShareAlike 4.0 International License.
# To view a copy of this license, visit
# http://creativecommons.org/licenses/by-nc-sa/4.0/
# or send a letter to
# Creative Commons, PO Box 1866, Mountain View, CA 94042, USA.
#
# CIF created using the CSD Python API on 29 September 2022
# The structure has been converted into the P1 space group
# The structure has a 3D framework
# The original CSD entry SIVGIP is in the monoclinic crystal system
# The framework has been calculated to contain at least 10.0% void space
# The void calculation uses a probe of radius 1.32A, grid spacing 0.4
#
###############################################################################

data_SIVGIP
_chemical_formula_moiety         '(C16 H24 N32 Zn4)n'
_symmetry_cell_setting           triclinic
_symmetry_space_group_name_H-M   'P 1'
_symmetry_Int_Tables_number      1
_space_group_name_Hall           'P 1'
loop_
_symmetry_equiv_pos_site_id
_symmetry_equiv_pos_as_xyz
1 x,y,z
_cell_length_a                   13.2925(11)
_cell_length_b                   13.6600(7)
_cell_length_c                   9.5631(9)
_cell_angle_alpha                90
_cell_angle_beta                 126.840(13)
_cell_angle_gamma                90
_cell_volume                     1389.68
loop_
_atom_site_label
_atom_site_type_symbol
_atom_site_fract_x
_atom_site_fract_y
_atom_site_fract_z
N1 N 0.4941(12) 0.2004(5) 0.2089(16)
N2 N 0.3125(13) 0.2682(5) 0.0207(17)
N6 N 0.4023(13) 0.1303(5) 0.1369(18)
C2 C 0.4356(12) 0.2833(6) 0.1323(16)
N8 N 0.2957(13) 0.1707(7) 0.0261(17)
C4 C 0.4983(16) 0.3816(8) 0.172(2)
H4 H 0.4359 0.4308 0.1025
H5 H 0.5572 0.3802 0.1451
H6 H 0.5418 0.3964 0.2936
Zn3 Zn 0.6664(10) 0.14355(5) 0.3701(13)
N10 N 0.1763(12) 0.4323(5) 0.0622(16)
Zn1 Zn 0.1664(10) 0.35645(5) 0.8701(13)
N3 N 0.1807(12) 0.4650(5) 0.7382(16)
N4 N 0.1763(12) 0.5677(5) 0.5622(16)
N5 N 0.2610(13) 0.5983(6) 0.7296(17)
N7 N 0.2629(13) 0.5378(5) 0.8348(15)
C1 C 0.0330(14) 0.4232(7) 0.4223(19)
H1 H 0.0143 0.3673 0.4639
H2 H 0.0652 0.4017 0.3606
C3 C 0.1277(13) 0.4845(6) 0.5718(16)
Zn2 Zn 0.1664(10) 0.64355(5) 0.3701(13)
H3 H 0.9577 0.4606 0.3451
N9 N 0.9941(12) 0.2996(5) 0.7089(16)
N1_2 N 0.4941(12) 0.7996(5) 0.7089(16)
N2_2 N 0.3125(13) 0.7318(5) 0.5207(17)
N3_2 N 0.1807(12) 0.5350(5) 0.2382(16)
N5_2 N 0.2610(13) 0.4017(6) 0.2296(17)
N6_2 N 0.4023(13) 0.8697(5) 0.6369(18)
N7_2 N 0.2629(13) 0.4622(5) 0.3348(15)
C2_2 C 0.4356(12) 0.7167(6) 0.6323(16)
C3_2 C 0.1277(13) 0.5155(6) 0.0718(16)
N8_2 N 0.2957(13) 0.8293(7) 0.5261(17)
C4_2 C 0.4983(16) 0.6184(8) 0.672(2)
H4_2 H 0.4359 0.5692 0.6025
H5_2 H 0.5572 0.6198 0.6451
H6_2 H 0.5418 0.6036 0.7936
Zn3_2 Zn 0.6664(10) 0.85645(5) 0.8701(13)
C1_2 C 0.0330(14) 0.5768(7) 0.9223(19)
H1_2 H 0.0143 0.6327 0.9639
H2_2 H 0.0652 0.5983 0.8606
H5_3 H 0.0572 0.8802 0.1451
H6_3 H 0.0418 0.8964 0.2936
N4_2 N 0.6763(12) 0.0677(5) 0.5622(16)
N5_3 N 0.7610(13) 0.0983(6) 0.7296(17)
N7_3 N 0.7629(13) 0.0378(5) 0.8348(15)
N3_3 N 0.6807(12) 0.9650(5) 0.7382(16)
C1_3 C 0.5330(14) 0.9232(7) 0.4223(19)
H1_3 H 0.5143 0.8673 0.4639
H2_3 H 0.5652 0.9017 0.3606
H3_2 H 0.4577 0.9606 0.3451
C3_3 C 0.6277(13) 0.9845(6) 0.5718(16)
H5_4 H 0.0572 0.1198 0.6451
H6_4 H 0.0418 0.1036 0.7936
N2_3 N 0.8125(13) 0.2318(5) 0.5207(17)
N3_4 N 0.6807(12) 0.0350(5) 0.2382(16)
N6_3 N 0.9023(13) 0.3697(5) 0.6369(18)
C2_3 C 0.9356(12) 0.2167(6) 0.6323(16)
C3_4 C 0.6277(13) 0.0155(6) 0.0718(16)
N8_3 N 0.7957(13) 0.3293(7) 0.5261(17)
C4_3 C 0.9983(16) 0.1184(8) 0.672(2)
H4_3 H 0.9359 0.0692 0.6025
N9_2 N 0.9941(12) 0.7004(5) 0.2089(16)
N2_4 N 0.8125(13) 0.7682(5) 0.0207(17)
N6_4 N 0.9023(13) 0.6303(5) 0.1369(18)
C2_4 C 0.9356(12) 0.7833(6) 0.1323(16)
N8_4 N 0.7957(13) 0.6707(7) 0.0261(17)
C4_4 C 0.9983(16) 0.8816(8) 0.172(2)
H4_4 H 0.9359 0.9308 0.1025
N10_2 N 0.6763(12) 0.9323(5) 0.0622(16)
N5_4 N 0.7610(13) 0.9017(6) 0.2296(17)
N7_4 N 0.7629(13) 0.9622(5) 0.3348(15)
H3_3 H 0.9577 0.5394 0.8451
C1_4 C 0.5330(14) 0.0768(7) 0.9223(19)
H1_4 H 0.5143 0.1327 0.9639
H2_4 H 0.5652 0.0983 0.8606
H3_4 H 0.4577 0.0394 0.8451
loop_
_geom_bond_atom_site_label_1
_geom_bond_atom_site_label_2
_geom_bond_site_symmetry_1
_geom_bond_site_symmetry_2
N1 N6 1_555 1_555
N2 C2 1_555 1_555
N6 N8 1_555 1_555
C2 N1 1_555 1_555
N8 N2 1_555 1_555
C4 C2 1_555 1_555
H4 C4 1_555 1_555
H5 C4 1_555 1_555
H6 C4 1_555 1_555
Zn3 N1 1_555 1_555
N3 Zn1 1_555 1_555
N4 N5 1_555 1_555
N5 N7 1_555 1_555
N7 N3 1_555 1_555
C1 H1 1_555 1_555
H2 C1 1_555 1_555
C3 N3 1_555 1_555
Zn2 N4 1_555 1_555
N4 C3 1_555 1_555
C1 C3 1_555 1_555
Zn2 N2_2 1_555 1_555
N1_2 N6_2 1_555 1_555
N2_2 C2_2 1_555 1_555
N3_2 Zn2 1_555 1_555
N10 N5_2 1_555 1_555
N5_2 N7_2 1_555 1_555
N6_2 N8_2 1_555 1_555
N7_2 N3_2 1_555 1_555
C2_2 N1_2 1_555 1_555
C3_2 N3_2 1_555 1_555
N8_2 N2_2 1_555 1_555
C4_2 C2_2 1_555 1_555
H4_2 C4_2 1_555 1_555
H5_2 C4_2 1_555 1_555
H6_2 C4_2 1_555 1_555
Zn3_2 N1_2 1_555 1_555
N10 C3_2 1_555 1_555
C1_2 H1_2 1_555 1_555
H2_2 C1_2 1_555 1_555
N4_2 N5_3 1_555 1_555
N5_3 N7_3 1_555 1_555
Zn3 N4_2 1_555 1_555
N3_3 Zn3_2 1_555 1_555
C1_3 H1_3 1_555 1_555
H2_3 C1_3 1_555 1_555
H3_2 C1_3 1_555 1_555
C3_3 N3_3 1_555 1_555
C1_3 C3_3 1_555 1_555
Zn3 N2_3 1_555 1_555
N9 N6_3 1_555 1_555
N2_3 C2_3 1_555 1_555
N3_4 Zn3 1_555 1_555
N6_3 N8_3 1_555 1_555
C2_3 N9 1_555 1_555
C3_4 N3_4 1_555 1_555
N8_3 N2_3 1_555 1_555
C4_3 C2_3 1_555 1_555
H4_3 C4_3 1_555 1_555
N9_2 N6_4 1_555 1_555
N2_4 C2_4 1_555 1_555
N6_4 N8_4 1_555 1_555
C2_4 N9_2 1_555 1_555
N8_4 N2_4 1_555 1_555
C4_4 C2_4 1_555 1_555
H4_4 C4_4 1_555 1_555
N10_2 N5_4 1_555 1_555
N5_4 N7_4 1_555 1_555
C1_4 H1_4 1_555 1_555
H2_4 C1_4 1_555 1_555
H3_4 C1_4 1_555 1_555

#END
