
###############################################################################
#
# This file contains modified crystal structure data generated from the
# MOF subset of the Cambridge Structural Database (CSD) v543 
# hosted by the Cambridge Crystallographic Data Centre (CCDC).
#
# This work is licensed under the Creative Commons
# Attribution-NonCommercial-ShareAlike 4.0 International License.
# To view a copy of this license, visit
# http://creativecommons.org/licenses/by-nc-sa/4.0/
# or send a letter to
# Creative Commons, PO Box 1866, Mountain View, CA 94042, USA.
#
# CIF created using the CSD Python API on 29 September 2022
# The structure has been converted into the P1 space group
# The structure has a 3D framework
# The original CSD entry SIVLIV is in the tetragonal crystal system
# The framework has been calculated to contain at least 10.0% void space
# The void calculation uses a probe of radius 1.32A, grid spacing 0.4
#
###############################################################################

data_SIVLIV
_chemical_formula_moiety         '(C40 H20 Cu14 N80 O20)n'
_symmetry_cell_setting           triclinic
_symmetry_space_group_name_H-M   'P 1'
_symmetry_Int_Tables_number      1
_space_group_name_Hall           'P 1'
loop_
_symmetry_equiv_pos_site_id
_symmetry_equiv_pos_as_xyz
1 x,y,z
_cell_length_a                   13.638(3)
_cell_length_b                   13.638(3)
_cell_length_c                   11.428(3)
_cell_angle_alpha                90
_cell_angle_beta                 90
_cell_angle_gamma                90
_cell_volume                     2125.55
loop_
_atom_site_label
_atom_site_type_symbol
_atom_site_fract_x
_atom_site_fract_y
_atom_site_fract_z
O4 O 0.5000 0.3717(6) 0.2599(6)
N13 N 0.5000 0.5139(6) 0.1477(6)
N14 N 0.5000 0.4698(6) 0.0407(7)
N15 N 0.5000 0.6230(6) 0.2878(7)
N16 N 0.5000 0.5264(6) 0.3391(6)
C7 C 0.5000 0.4599(8) 0.2527(8)
C8 C 0.5000 0.6124(9) 0.1763(9)
H4 H 0.5000 0.6636 0.1225
Cu4 Cu 0.5000 0.7500 0.3750
Cu7 Cu 0.5000 0.5000 0.5000
Na2 Na 0.5000 0.2500 0.1250
O3 O 0.5000 0.6283(6) 0.7401(6)
N9 N 0.5000 0.4861(6) 0.8523(6)
N10 N 0.5000 0.5302(6) 0.9593(7)
N11 N 0.5000 0.3770(6) 0.7122(7)
N12 N 0.5000 0.4736(6) 0.6609(6)
C5 C 0.5000 0.5401(8) 0.7473(8)
C6 C 0.5000 0.3876(9) 0.8237(9)
H3 H 0.5000 0.3364 0.8775
Cu6 Cu 0.5000 0.2500 0.6250
Na4 Na 0.5000 0.7500 0.8750
O6 O 0.5000 0.1283(6) 0.2599(6)
N17 N 0.6270(6) 0.7500 0.4622(7)
N18 N 0.5000 0.8770(6) 0.2878(7)
N19 N 0.3730(6) 0.7500 0.4622(7)
O5 O 0.6217(6) 0.2500 0.9901(6)
O7 O 0.3783(6) 0.2500 0.9901(6)
Na2_2 Na -0.0000 0.2500 0.3750
Cu6_2 Cu 0.0000 0.2500 0.8750
O5_2 O 0.0000 0.3717(6) 0.2401(6)
O6_2 O 0.1217(6) 0.2500 0.5099(6)
O7_2 O 0.0000 0.1283(6) 0.2401(6)
N9_2 N 0.7639(6) 0.2500 0.1023(6)
N10_2 N 0.7198(6) 0.2500 0.2093(7)
C6_2 C 0.8624(9) 0.2500 0.0737(9)
H3_2 H 0.9136 0.2500 0.1275
O4_2 O 0.8783(6) 0.2500 0.5099(6)
N13_2 N 0.7361(6) 0.2500 0.3977(6)
N14_2 N 0.7802(6) 0.2500 0.2907(7)
N15_2 N 0.6270(6) 0.2500 0.5378(7)
N16_2 N 0.7236(6) 0.2500 0.5891(6)
C7_2 C 0.7901(8) 0.2500 0.5027(8)
C8_2 C 0.6376(9) 0.2500 0.4263(9)
H4_2 H 0.5864 0.2500 0.3725
Cu7_2 Cu 0.7500 0.2500 0.7500
Na2_3 Na 1.0000 0.2500 0.3750
N11_2 N 0.8730(6) 0.2500 0.9622(7)
N12_2 N 0.7764(6) 0.2500 0.9109(6)
C5_2 C 0.7099(8) 0.2500 0.9973(8)
Cu6_3 Cu 1.0000 0.2500 0.8750
O5_3 O 1.0000 0.3717(6) 0.2401(6)
O7_3 O 1.0000 0.1283(6) 0.2401(6)
N18_2 N 0.3730(6) 0.2500 0.5378(7)
N19_2 N 0.5000 0.1230(6) 0.7122(7)
Cu7_3 Cu 0.0000 0.5000 0.0000
N9_3 N 0.0000 0.5139(6) 0.3523(6)
N10_3 N 0.0000 0.4698(6) 0.4593(7)
N11_3 N 0.0000 0.6230(6) 0.2122(7)
N12_3 N 0.0000 0.5264(6) 0.1609(6)
C5_3 C -0.0000 0.4599(8) 0.2473(8)
C6_3 C 0.0000 0.6124(9) 0.3237(9)
H3_3 H 0.0000 0.6636 0.3775
O4_3 O 0.0000 0.6283(6) 0.7599(6)
N13_3 N 0.0000 0.4861(6) 0.6477(6)
N14_3 N 0.0000 0.5302(6) 0.5407(7)
N15_3 N -0.0000 0.3770(6) 0.7878(7)
N16_3 N 0.0000 0.4736(6) 0.8391(6)
C7_3 C 0.0000 0.5401(8) 0.7527(8)
C8_3 C -0.0000 0.3876(9) 0.6763(9)
H4_3 H -0.0000 0.3364 0.6225
Cu6_4 Cu 0.0000 0.7500 0.1250
Cu7_4 Cu 0.0000 0.5000 1.0000
Na2_4 Na 0.0000 0.7500 0.6250
O6_3 O 0.0000 0.8717(6) 0.7599(6)
O7_4 O 0.1217(6) 0.7500 0.4901(6)
N18_3 N 0.0000 0.1230(6) 0.7878(7)
N19_3 N 0.1270(6) 0.2500 0.9622(7)
Cu7_5 Cu 1.0000 0.5000 0.0000
N9_4 N 1.0000 0.5139(6) 0.3523(6)
N10_4 N 1.0000 0.4698(6) 0.4593(7)
N11_4 N 1.0000 0.6230(6) 0.2122(7)
N12_4 N 1.0000 0.5264(6) 0.1609(6)
C5_4 C 1.0000 0.4599(8) 0.2473(8)
C6_4 C 1.0000 0.6124(9) 0.3237(9)
H3_4 H 1.0000 0.6636 0.3775
O4_4 O 1.0000 0.6283(6) 0.7599(6)
N13_4 N 1.0000 0.4861(6) 0.6477(6)
N14_4 N 1.0000 0.5302(6) 0.5407(7)
N15_4 N 1.0000 0.3770(6) 0.7878(7)
N16_4 N 1.0000 0.4736(6) 0.8391(6)
C7_4 C 1.0000 0.5401(8) 0.7527(8)
C8_4 C 1.0000 0.3876(9) 0.6763(9)
H4_4 H 1.0000 0.3364 0.6225
Cu6_5 Cu 1.0000 0.7500 0.1250
Cu7_6 Cu 1.0000 0.5000 1.0000
Na2_5 Na 1.0000 0.7500 0.6250
O5_4 O 0.8783(6) 0.7500 0.4901(6)
O6_4 O 1.0000 0.8717(6) 0.7599(6)
N18_4 N 1.0000 0.1230(6) 0.7878(7)
N18_5 N 0.1270(6) 0.7500 0.0378(7)
N19_4 N -0.0000 0.8770(6) 0.2122(7)
O4_5 O 0.6217(6) 0.7500 0.0099(6)
N15_5 N 0.8730(6) 0.7500 0.0378(7)
N16_5 N 0.7764(6) 0.7500 0.0891(6)
C7_5 C 0.7099(8) 0.7500 0.0027(8)
Cu7_7 Cu 0.7500 0.7500 0.2500
N9_5 N 0.7361(6) 0.7500 0.6023(6)
N10_5 N 0.7802(6) 0.7500 0.7093(7)
N12_5 N 0.7236(6) 0.7500 0.4109(6)
C5_5 C 0.7901(8) 0.7500 0.4973(8)
C6_5 C 0.6376(9) 0.7500 0.5737(9)
H3_5 H 0.5864 0.7500 0.6275
N13_5 N 0.7639(6) 0.7500 0.8977(6)
N14_5 N 0.7198(6) 0.7500 0.7907(7)
C8_5 C 0.8624(9) 0.7500 0.9263(9)
H4_5 H 0.9136 0.7500 0.8725
O6_5 O 0.3783(6) 0.7500 0.0099(6)
N19_5 N 1.0000 0.8770(6) 0.2122(7)
O7_5 O 0.5000 0.8717(6) 0.7401(6)
Cu7_8 Cu -0.0000 -0.0000 0.0000
N10_6 N -0.0000 0.0302(6) 0.4593(7)
C5_6 C 0.0000 0.0401(8) 0.2473(8)
N13_6 N -0.0000 0.0139(6) 0.6477(6)
N16_6 N -0.0000 0.0264(6) 0.8391(6)
C8_6 C -0.0000 0.1124(9) 0.6763(9)
H4_6 H -0.0000 0.1636 0.6225
Cu7_9 Cu -0.0000 -0.0000 1.0000
Cu7_10 Cu -0.0000 1.0000 0.0000
N9_6 N -0.0000 0.9861(6) 0.3523(6)
N12_6 N -0.0000 0.9736(6) 0.1609(6)
C6_6 C -0.0000 0.8876(9) 0.3237(9)
H3_6 H -0.0000 0.8364 0.3775
N14_6 N -0.0000 0.9698(6) 0.5407(7)
C7_6 C -0.0000 0.9599(8) 0.7527(8)
Cu7_11 Cu -0.0000 1.0000 1.0000
Cu7_12 Cu 1.0000 -0.0000 0.0000
N10_7 N 1.0000 0.0302(6) 0.4593(7)
C5_7 C 1.0000 0.0401(8) 0.2473(8)
N13_7 N 1.0000 0.0139(6) 0.6477(6)
N16_7 N 1.0000 0.0264(6) 0.8391(6)
C8_7 C 1.0000 0.1124(9) 0.6763(9)
H4_7 H 1.0000 0.1636 0.6225
Cu7_13 Cu 1.0000 -0.0000 1.0000
Cu7_14 Cu 1.0000 1.0000 0.0000
N9_7 N 1.0000 0.9861(6) 0.3523(6)
N12_7 N 1.0000 0.9736(6) 0.1609(6)
C6_7 C 1.0000 0.8876(9) 0.3237(9)
H3_7 H 1.0000 0.8364 0.3775
N14_7 N 1.0000 0.9698(6) 0.5407(7)
C7_7 C 1.0000 0.9599(8) 0.7527(8)
Cu7_15 Cu 1.0000 1.0000 1.0000
N16_8 N 0.2236(6) 0.7500 0.0891(6)
C7_8 C 0.2901(8) 0.7500 0.0027(8)
Cu7_16 Cu 0.2500 0.7500 0.2500
N9_8 N 0.2639(6) 0.7500 0.6023(6)
N10_8 N 0.2198(6) 0.7500 0.7093(7)
N12_8 N 0.2764(6) 0.7500 0.4109(6)
C5_8 C 0.2099(8) 0.7500 0.4973(8)
C6_8 C 0.3624(9) 0.7500 0.5737(9)
H3_8 H 0.4136 0.7500 0.6275
N13_8 N 0.2361(6) 0.7500 0.8977(6)
N14_8 N 0.2802(6) 0.7500 0.7907(7)
C8_8 C 0.1376(9) 0.7500 0.9263(9)
H4_8 H 0.0864 0.7500 0.8725
N14_9 N 0.5000 0.0302(6) 0.0407(7)
C7_9 C 0.5000 0.0401(8) 0.2527(8)
Cu7_17 Cu 0.5000 0.0000 0.5000
N9_9 N 0.5000 0.0139(6) 0.8523(6)
N12_9 N 0.5000 0.0264(6) 0.6609(6)
C6_9 C 0.5000 0.1124(9) 0.8237(9)
H3_9 H 0.5000 0.1636 0.8775
N13_9 N 0.5000 0.9861(6) 0.1477(6)
N16_9 N 0.5000 0.9736(6) 0.3391(6)
C8_9 C 0.5000 0.8876(9) 0.1763(9)
H4_9 H 0.5000 0.8364 0.1225
Cu7_18 Cu 0.5000 1.0000 0.5000
N10_9 N 0.5000 0.9698(6) 0.9593(7)
C5_9 C 0.5000 0.9599(8) 0.7473(8)
N9_10 N 0.2361(6) 0.2500 0.1023(6)
N10_10 N 0.2802(6) 0.2500 0.2093(7)
C6_10 C 0.1376(9) 0.2500 0.0737(9)
H3_10 H 0.0864 0.2500 0.1275
N13_10 N 0.2639(6) 0.2500 0.3977(6)
N14_10 N 0.2198(6) 0.2500 0.2907(7)
N16_10 N 0.2764(6) 0.2500 0.5891(6)
C7_10 C 0.2099(8) 0.2500 0.5027(8)
C8_10 C 0.3624(9) 0.2500 0.4263(9)
H4_10 H 0.4136 0.2500 0.3725
Cu7_19 Cu 0.2500 0.2500 0.7500
N12_10 N 0.2236(6) 0.2500 0.9109(6)
C5_10 C 0.2901(8) 0.2500 0.9973(8)
loop_
_geom_bond_atom_site_label_1
_geom_bond_atom_site_label_2
_geom_bond_site_symmetry_1
_geom_bond_site_symmetry_2
O4 C7 1_555 1_555
N13 N14 1_555 1_555
N15 N16 1_555 1_555
N16 C7 1_555 1_555
C7 N13 1_555 1_555
C8 N13 1_555 1_555
H4 C8 1_555 1_555
Cu4 N15 1_555 1_555
Cu7 N16 1_555 1_555
Na2 O4 1_555 1_555
N15 C8 1_555 1_555
O3 C5 1_555 1_555
N9 N10 1_555 1_555
N11 N12 1_555 1_555
N12 Cu7 1_555 1_555
C5 N9 1_555 1_555
C6 N9 1_555 1_555
H3 C6 1_555 1_555
Cu6 N11 1_555 1_555
Na4 O3 1_555 1_555
O6 Na2 1_555 1_555
N17 Cu4 1_555 1_555
N18 Cu4 1_555 1_555
N19 Cu4 1_555 1_555
N11 C6 1_555 1_555
N12 C5 1_555 1_555
O5_2 Na2_2 1_555 1_555
O6_2 Na2_2 1_555 1_555
O7_2 Na2_2 1_555 1_555
N9_2 N10_2 1_555 1_555
N10_2 N14_2 1_555 1_555
C6_2 N9_2 1_555 1_555
H3_2 C6_2 1_555 1_555
O4_2 C7_2 1_555 1_555
N13_2 N14_2 1_555 1_555
N15_2 N16_2 1_555 1_555
N16_2 C7_2 1_555 1_555
C7_2 N13_2 1_555 1_555
C8_2 N13_2 1_555 1_555
H4_2 C8_2 1_555 1_555
Cu6 N15_2 1_555 1_555
Cu7_2 N16_2 1_555 1_555
Na2_3 O4_2 1_555 1_555
N15_2 C8_2 1_555 1_555
O5 C5_2 1_555 1_555
N11_2 N12_2 1_555 1_555
N12_2 Cu7_2 1_555 1_555
Cu6_3 N11_2 1_555 1_555
O5_3 Na2_3 1_555 1_555
O7_3 Na2_3 1_555 1_555
N18_2 Cu6 1_555 1_555
N19_2 Cu6 1_555 1_555
N12_2 C5_2 1_555 1_555
O5_2 C5_3 1_555 1_555
N9_3 N10_3 1_555 1_555
N10_3 N14_3 1_555 1_555
N11_3 N12_3 1_555 1_555
N12_3 Cu7_3 1_555 1_555
C5_3 N9_3 1_555 1_555
C6_3 N9_3 1_555 1_555
H3_3 C6_3 1_555 1_555
O4_3 C7_3 1_555 1_555
N13_3 N14_3 1_555 1_555
N15_3 N16_3 1_555 1_555
N16_3 C7_3 1_555 1_555
C7_3 N13_3 1_555 1_555
C8_3 N13_3 1_555 1_555
H4_3 C8_3 1_555 1_555
Cu6_2 N15_3 1_555 1_555
Cu6_4 N11_3 1_555 1_555
Cu7_4 N16_3 1_555 1_555
Na2_4 O4_3 1_555 1_555
N11_3 C6_3 1_555 1_555
N12_3 C5_3 1_555 1_555
N15_3 C8_3 1_555 1_555
O6_3 Na2_4 1_555 1_555
O7_4 Na2_4 1_555 1_555
N18_3 Cu6_2 1_555 1_555
N19_3 Cu6_2 1_555 1_555
O5_3 C5_4 1_555 1_555
N9_4 N10_4 1_555 1_555
N10_4 N14_4 1_555 1_555
N11_4 N12_4 1_555 1_555
N12_4 Cu7_5 1_555 1_555
C5_4 N9_4 1_555 1_555
C6_4 N9_4 1_555 1_555
H3_4 C6_4 1_555 1_555
O4_4 C7_4 1_555 1_555
N13_4 N14_4 1_555 1_555
N15_4 N16_4 1_555 1_555
N16_4 C7_4 1_555 1_555
C7_4 N13_4 1_555 1_555
C8_4 N13_4 1_555 1_555
H4_4 C8_4 1_555 1_555
Cu6_3 N15_4 1_555 1_555
Cu6_5 N11_4 1_555 1_555
Cu7_6 N16_4 1_555 1_555
Na2_5 O4_4 1_555 1_555
N11_4 C6_4 1_555 1_555
N12_4 C5_4 1_555 1_555
N15_4 C8_4 1_555 1_555
O5_4 Na2_5 1_555 1_555
O6_4 Na2_5 1_555 1_555
N18_4 Cu6_3 1_555 1_555
N18_5 Cu6_4 1_555 1_555
N19_4 Cu6_4 1_555 1_555
O4_5 C7_5 1_555 1_555
N15_5 N16_5 1_555 1_555
N16_5 C7_5 1_555 1_555
Cu6_5 N15_5 1_555 1_555
Cu7_7 N16_5 1_555 1_555
O5_4 C5_5 1_555 1_555
N9_5 N10_5 1_555 1_555
N10_5 N14_5 1_555 1_555
N17 N12_5 1_555 1_555
N12_5 Cu7_7 1_555 1_555
C5_5 N9_5 1_555 1_555
C6_5 N9_5 1_555 1_555
H3_5 C6_5 1_555 1_555
N13_5 N14_5 1_555 1_555
C8_5 N13_5 1_555 1_555
H4_5 C8_5 1_555 1_555
N19_5 Cu6_5 1_555 1_555
N17 C6_5 1_555 1_555
N12_5 C5_5 1_555 1_555
O7_5 Na4 1_555 1_555
O7_2 C5_6 1_555 1_555
N18_3 N16_6 1_555 1_555
C8_6 N13_6 1_555 1_555
H4_6 C8_6 1_555 1_555
Cu7_9 N16_6 1_555 1_555
N18_3 C8_6 1_555 1_555
N19_4 N12_6 1_555 1_555
N12_6 Cu7_10 1_555 1_555
C6_6 N9_6 1_555 1_555
H3_6 C6_6 1_555 1_555
O6_3 C7_6 1_555 1_555
N19_4 C6_6 1_555 1_555
O7_3 C5_7 1_555 1_555
N18_4 N16_7 1_555 1_555
C8_7 N13_7 1_555 1_555
H4_7 C8_7 1_555 1_555
Cu7_13 N16_7 1_555 1_555
N18_4 C8_7 1_555 1_555
N19_5 N12_7 1_555 1_555
N12_7 Cu7_14 1_555 1_555
C6_7 N9_7 1_555 1_555
H3_7 C6_7 1_555 1_555
O6_4 C7_7 1_555 1_555
N19_5 C6_7 1_555 1_555
O6_5 C7_8 1_555 1_555
N18_5 N16_8 1_555 1_555
N16_8 C7_8 1_555 1_555
Cu7_16 N16_8 1_555 1_555
O7_4 C5_8 1_555 1_555
N9_8 N10_8 1_555 1_555
N10_8 N14_8 1_555 1_555
N19 N12_8 1_555 1_555
N12_8 Cu7_16 1_555 1_555
C5_8 N9_8 1_555 1_555
C6_8 N9_8 1_555 1_555
H3_8 C6_8 1_555 1_555
N13_8 N14_8 1_555 1_555
C8_8 N13_8 1_555 1_555
H4_8 C8_8 1_555 1_555
N19 C6_8 1_555 1_555
N12_8 C5_8 1_555 1_555
O6 C7_9 1_555 1_555
N19_2 N12_9 1_555 1_555
N12_9 Cu7_17 1_555 1_555
C6_9 N9_9 1_555 1_555
H3_9 C6_9 1_555 1_555
N19_2 C6_9 1_555 1_555
N18 N16_9 1_555 1_555
C8_9 N13_9 1_555 1_555
H4_9 C8_9 1_555 1_555
Cu7_18 N16_9 1_555 1_555
N18 C8_9 1_555 1_555
O7_5 C5_9 1_555 1_555
N9_10 N10_10 1_555 1_555
N10_10 N14_10 1_555 1_555
C6_10 N9_10 1_555 1_555
H3_10 C6_10 1_555 1_555
O6_2 C7_10 1_555 1_555
N13_10 N14_10 1_555 1_555
N18_2 N16_10 1_555 1_555
N16_10 C7_10 1_555 1_555
C7_10 N13_10 1_555 1_555
C8_10 N13_10 1_555 1_555
H4_10 C8_10 1_555 1_555
Cu7_19 N16_10 1_555 1_555
N18_2 C8_10 1_555 1_555
O7 C5_10 1_555 1_555
N19_3 N12_10 1_555 1_555
N12_10 Cu7_19 1_555 1_555
N12_10 C5_10 1_555 1_555

#END
