
###############################################################################
#
# This file contains modified crystal structure data generated from the
# MOF subset of the Cambridge Structural Database (CSD) v543 
# hosted by the Cambridge Crystallographic Data Centre (CCDC).
#
# This work is licensed under the Creative Commons
# Attribution-NonCommercial-ShareAlike 4.0 International License.
# To view a copy of this license, visit
# http://creativecommons.org/licenses/by-nc-sa/4.0/
# or send a letter to
# Creative Commons, PO Box 1866, Mountain View, CA 94042, USA.
#
# CIF created using the CSD Python API on 29 September 2022
# The structure has been converted into the P1 space group
# The structure has a 3D framework
# The original CSD entry SIVQAR is in the triclinic crystal system
# The framework has been calculated to contain at least 10.0% void space
# The void calculation uses a probe of radius 1.32A, grid spacing 0.4
#
###############################################################################

data_SIVQAR
_chemical_formula_moiety         '(C36 H44 Cd4 N8 O20 S2)n'
_symmetry_cell_setting           triclinic
_symmetry_space_group_name_H-M   'P 1'
_symmetry_Int_Tables_number      1
_space_group_name_Hall           'P 1'
loop_
_symmetry_equiv_pos_site_id
_symmetry_equiv_pos_as_xyz
1 x,y,z
_cell_length_a                   10.390(2)
_cell_length_b                   12.295(3)
_cell_length_c                   12.497(3)
_cell_angle_alpha                79.31(3)
_cell_angle_beta                 68.20(3)
_cell_angle_gamma                69.58(3)
_cell_volume                     1386.25
loop_
_atom_site_label
_atom_site_type_symbol
_atom_site_fract_x
_atom_site_fract_y
_atom_site_fract_z
Cd4 Cd 0.04869(6) 0.52707(5) 0.81438(5)
N2 N 0.0492(7) 0.2803(5) 0.1426(6)
C8 C 0.1834(9) 0.0474(7) 0.0896(7)
C9 C 0.0457(9) 0.1075(7) 0.0825(8)
C10 C 0.2503(10) 0.1086(8) 0.1236(9)
H6 H 0.3426 0.0718 0.1293
C12 C 0.1807(10) 0.2233(7) 0.1488(9)
H8 H 0.2280 0.2624 0.1712
Cd1 Cd 0.40038(6) 0.69632(5) 0.02158(5)
S1 S 0.7352(2) 0.51493(18) 0.00492(18)
O1 O 0.3835(7) 0.8766(5) 0.0645(7)
O2 O 0.1907(7) 0.8679(6) 0.0407(7)
O4 O 0.8266(14) 0.5043(9) 0.0690(13)
O5 O 0.6687(10) 0.4221(7) 0.0423(6)
O7 O 0.6297(7) 0.6289(6) 0.0268(6)
O8 O 0.0295(8) 0.5785(7) 0.6302(5)
O9 O 0.2470(8) 0.5415(8) 0.6381(6)
O10 O 0.1225(8) 0.3320(6) 0.7950(7)
N1 N 0.3173(7) 0.6415(6) 0.2167(5)
N4 N 0.2845(8) 0.1524(7) 0.7843(7)
C1 C 0.1595(11) 0.5689(9) 0.5841(7)
C2 C 0.2168(9) 0.5938(8) 0.4538(7)
C3 C 0.1221(10) 0.6251(9) 0.3900(7)
H1 H 0.0246 0.6293 0.4253
C4 C 0.1788(10) 0.6495(9) 0.2730(8)
H2 H 0.1155 0.6732 0.2307
C5 C 0.4074(10) 0.6106(9) 0.2796(8)
H3 H 0.5050 0.6052 0.2418
C6 C 0.3611(10) 0.5867(10) 0.3968(8)
H4 H 0.4261 0.5660 0.4374
C7 C 0.2585(9) 0.9220(7) 0.0632(8)
C16 C 0.2359(10) 0.2631(9) 0.8054(9)
H16 H 0.2918 0.2911 0.8302
C17 C 0.1979(15) 0.1034(11) 0.7505(13)
H17 H 0.0983 0.1519 0.7739
H18 H 0.2037 0.0268 0.7871
H19 H 0.2345 0.0991 0.6682
C18 C 0.4239(13) 0.0778(11) 0.7930(12)
H20 H 0.4912 0.0575 0.7173
H21 H 0.4117 0.0084 0.8398
H22 H 0.4611 0.1182 0.8277
Cd6 Cd 0.95131(6) 0.47293(5) 0.18562(5)
O11 O 0.1734(14) 0.4957(9) 0.9310(13)
O3 O 0.4960(11) 0.7465(9) 0.8270(7)
O6 O 0.8211(9) 0.5085(8) 0.8845(7)
N3 N 0.5471(12) 0.7353(9) 0.6382(7)
C13 C 0.4843(19) 0.7256(13) 0.7516(13)
H9 H 0.4105 0.6918 0.7717
C14 C 0.481(3) 0.730(3) 0.556(2)
H10 H 0.4735 0.6530 0.5617
H11 H 0.5398 0.7470 0.4794
H12 H 0.3853 0.7853 0.5734
C15 C 0.693(2) 0.741(3) 0.584(2)
H13 H 0.6904 0.8159 0.5439
H14 H 0.7475 0.6815 0.5301
H15 H 0.7373 0.7295 0.6417
Cd3 Cd 0.59962(6) 0.30368(5) 0.97842(5)
O12 O 0.3313(10) 0.5779(7) 0.9577(6)
H5 H 0.9956 0.0704 0.0611
C11 C 0.9843(9) 0.2231(7) 0.1076(8)
H7 H 0.8937 0.2633 0.1000
N5 N 0.9508(7) 0.7197(5) 0.8574(6)
O13 O 0.1789(9) 0.4915(8) 0.1155(7)
H5_2 H 0.0044 0.9296 0.9389
C11_2 C 0.0157(9) 0.7769(7) 0.8924(8)
H7_2 H 0.1063 0.7367 0.9000
O3_2 O 0.5040(11) 0.2535(9) 0.1730(7)
N3_2 N 0.4529(12) 0.2647(9) 0.3618(7)
C13_2 C 0.5157(19) 0.2744(13) 0.2484(13)
H9_2 H 0.5895 0.3082 0.2283
C14_2 C 0.519(3) 0.270(3) 0.444(2)
H10_2 H 0.5265 0.3470 0.4383
H11_2 H 0.4602 0.2530 0.5206
H12_2 H 0.6147 0.2147 0.4266
C15_2 C 0.307(2) 0.259(3) 0.416(2)
H13_2 H 0.3096 0.1841 0.4561
H14_2 H 0.2525 0.3185 0.4699
H15_2 H 0.2627 0.2705 0.3583
S1_2 S 0.2648(2) 0.48507(18) 0.99508(18)
O1_2 O 0.6165(7) 0.1234(5) 0.9355(7)
O2_2 O 0.8093(7) 0.1321(6) 0.9593(7)
O7_2 O 0.3703(7) 0.3711(6) 0.9732(6)
O8_2 O 0.9705(8) 0.4215(7) 0.3698(5)
O9_2 O 0.7530(8) 0.4585(8) 0.3619(6)
O10_2 O 0.8775(8) 0.6680(6) 0.2050(7)
N1_2 N 0.6827(7) 0.3585(6) 0.7833(5)
N4_2 N 0.7155(8) 0.8476(7) 0.2157(7)
C1_2 C 0.8405(11) 0.4311(9) 0.4159(7)
C2_2 C 0.7832(9) 0.4062(8) 0.5462(7)
C3_2 C 0.8779(10) 0.3749(9) 0.6100(7)
H1_2 H 0.9754 0.3707 0.5747
C4_2 C 0.8212(10) 0.3505(9) 0.7270(8)
H2_2 H 0.8845 0.3268 0.7693
C5_2 C 0.5926(10) 0.3894(9) 0.7204(8)
H3_2 H 0.4950 0.3948 0.7582
C6_2 C 0.6389(10) 0.4133(10) 0.6032(8)
H4_2 H 0.5739 0.4340 0.5626
C7_2 C 0.7415(9) 0.0780(7) 0.9368(8)
C16_2 C 0.7641(10) 0.7369(9) 0.1946(9)
H16_2 H 0.7082 0.7089 0.1698
C17_2 C 0.8021(15) 0.8966(11) 0.2495(13)
H17_2 H 0.9017 0.8481 0.2261
H18_2 H 0.7963 0.9732 0.2129
H19_2 H 0.7655 0.9009 0.3318
C18_2 C 0.5761(13) 0.9222(11) 0.2070(12)
H20_2 H 0.5088 0.9425 0.2827
H21_2 H 0.5883 0.9916 0.1602
H22_2 H 0.5389 0.8818 0.1723
C8_2 C 0.8166(9) 0.9526(7) 0.9104(7)
C9_2 C 0.9543(9) 0.8925(7) 0.9175(8)
C10_2 C 0.7497(10) 0.8914(8) 0.8764(9)
H6_2 H 0.6574 0.9282 0.8707
C12_2 C 0.8193(10) 0.7767(7) 0.8512(9)
H8_2 H 0.7720 0.7376 0.8288
loop_
_geom_bond_atom_site_label_1
_geom_bond_atom_site_label_2
_geom_bond_site_symmetry_1
_geom_bond_site_symmetry_2
C9 C8 1_555 1_555
C10 C8 1_555 1_555
H6 C10 1_555 1_555
C12 N2 1_555 1_555
H8 C12 1_555 1_555
C10 C12 1_555 1_555
Cd1 O1 1_555 1_555
Cd4 O8 1_555 1_555
S1 O4 1_555 1_555
O1 C7 1_555 1_555
O2 Cd1 1_555 1_555
O4 Cd6 1_555 1_555
O5 S1 1_555 1_555
O7 Cd1 1_555 1_555
O8 C1 1_555 1_555
O9 Cd4 1_555 1_555
O10 Cd4 1_555 1_555
N1 Cd1 1_555 1_555
N4 C16 1_555 1_555
C1 O9 1_555 1_555
C2 C1 1_555 1_555
C3 C2 1_555 1_555
H1 C3 1_555 1_555
C4 N1 1_555 1_555
H2 C4 1_555 1_555
C5 N1 1_555 1_555
H3 C5 1_555 1_555
C6 C2 1_555 1_555
H4 C6 1_555 1_555
C7 O2 1_555 1_555
C16 O10 1_555 1_555
H16 C16 1_555 1_555
C17 N4 1_555 1_555
H17 C17 1_555 1_555
H18 C17 1_555 1_555
H19 C17 1_555 1_555
C18 N4 1_555 1_555
H20 C18 1_555 1_555
H21 C18 1_555 1_555
H22 C18 1_555 1_555
O11 Cd4 1_555 1_555
S1 O7 1_555 1_555
C3 C4 1_555 1_555
C5 C6 1_555 1_555
N3 C13 1_555 1_555
C13 O3 1_555 1_555
H9 C13 1_555 1_555
C14 N3 1_555 1_555
H10 C14 1_555 1_555
H11 C14 1_555 1_555
H12 C14 1_555 1_555
C15 N3 1_555 1_555
H13 C15 1_555 1_555
H14 C15 1_555 1_555
H15 C15 1_555 1_555
H7 C11 1_555 1_555
H7_2 C11_2 1_555 1_555
N3_2 C13_2 1_555 1_555
C13_2 O3_2 1_555 1_555
H9_2 C13_2 1_555 1_555
C14_2 N3_2 1_555 1_555
H10_2 C14_2 1_555 1_555
H11_2 C14_2 1_555 1_555
H12_2 C14_2 1_555 1_555
C15_2 N3_2 1_555 1_555
H13_2 C15_2 1_555 1_555
H14_2 C15_2 1_555 1_555
H15_2 C15_2 1_555 1_555
Cd3 O1_2 1_555 1_555
Cd6 O8_2 1_555 1_555
S1_2 O11 1_555 1_555
O1_2 C7_2 1_555 1_555
O2_2 Cd3 1_555 1_555
O12 S1_2 1_555 1_555
O7_2 Cd3 1_555 1_555
O8_2 C1_2 1_555 1_555
O9_2 Cd6 1_555 1_555
O10_2 Cd6 1_555 1_555
N1_2 Cd3 1_555 1_555
N4_2 C16_2 1_555 1_555
C1_2 O9_2 1_555 1_555
C2_2 C1_2 1_555 1_555
C3_2 C2_2 1_555 1_555
H1_2 C3_2 1_555 1_555
C4_2 N1_2 1_555 1_555
H2_2 C4_2 1_555 1_555
C5_2 N1_2 1_555 1_555
H3_2 C5_2 1_555 1_555
C6_2 C2_2 1_555 1_555
H4_2 C6_2 1_555 1_555
C7_2 O2_2 1_555 1_555
C16_2 O10_2 1_555 1_555
H16_2 C16_2 1_555 1_555
C17_2 N4_2 1_555 1_555
H17_2 C17_2 1_555 1_555
H18_2 C17_2 1_555 1_555
H19_2 C17_2 1_555 1_555
C18_2 N4_2 1_555 1_555
H20_2 C18_2 1_555 1_555
H21_2 C18_2 1_555 1_555
H22_2 C18_2 1_555 1_555
S1_2 O7_2 1_555 1_555
C3_2 C4_2 1_555 1_555
C5_2 C6_2 1_555 1_555
C9_2 C8_2 1_555 1_555
C10_2 C8_2 1_555 1_555
H6_2 C10_2 1_555 1_555
C12_2 N5 1_555 1_555
H8_2 C12_2 1_555 1_555
C10_2 C12_2 1_555 1_555

#END
