
###############################################################################
#
# This file contains modified crystal structure data generated from the
# MOF subset of the Cambridge Structural Database (CSD) v543 
# hosted by the Cambridge Crystallographic Data Centre (CCDC).
#
# This work is licensed under the Creative Commons
# Attribution-NonCommercial-ShareAlike 4.0 International License.
# To view a copy of this license, visit
# http://creativecommons.org/licenses/by-nc-sa/4.0/
# or send a letter to
# Creative Commons, PO Box 1866, Mountain View, CA 94042, USA.
#
# CIF created using the CSD Python API on 29 September 2022
# The structure has been converted into the P1 space group
# The structure has a 3D framework
# The original CSD entry SIVVAW is in the monoclinic crystal system
# The framework has been calculated to contain at least 10.0% void space
# The void calculation uses a probe of radius 1.32A, grid spacing 0.4
#
###############################################################################

data_SIVVAW
_chemical_formula_moiety         '(C48 H32 Cd4 N8 O14)n'
_symmetry_cell_setting           triclinic
_symmetry_space_group_name_H-M   'P 1'
_symmetry_Int_Tables_number      1
_space_group_name_Hall           'P 1'
loop_
_symmetry_equiv_pos_site_id
_symmetry_equiv_pos_as_xyz
1 x,y,z
_cell_length_a                   9.860(2)
_cell_length_b                   13.113(3)
_cell_length_c                   11.650(2)
_cell_angle_alpha                90
_cell_angle_beta                 101.99(3)
_cell_angle_gamma                90
_cell_volume                     1473.42
loop_
_atom_site_label
_atom_site_type_symbol
_atom_site_fract_x
_atom_site_fract_y
_atom_site_fract_z
O3 O 0.0964(11) 0.1078(8) 0.8942(10)
H7 H 0.0211 0.3672 0.6088
C11 C 0.0117(15) 0.2541(12) 0.7226(14)
H8 H 0.1065 0.2416 0.7430
Cd3 Cd 0.25672(10) 0.99531(7) 0.99402(8)
Cd5 Cd 0.74328(10) 0.00469(7) 0.00598(8)
Cd1 Cd 0.74328(10) 0.49531(7) 0.50598(8)
O1 O 0.5837(11) 0.3795(8) 0.4126(10)
O2 O 0.3808(12) 0.4562(8) 0.3527(10)
O4 O 0.8821(11) 0.0464(8) 0.8728(9)
N1 N 0.3317(12) 0.1324(9) 0.1216(10)
N2 N 0.8254(12) 0.3577(9) 0.6213(10)
C1 C 0.4184(13) 0.2960(11) 0.2712(12)
C2 C 0.3537(18) 0.3117(12) 0.1538(14)
H1 H 0.3368 0.3775 0.1245
C3 C 0.3152(18) 0.2284(13) 0.0815(14)
H2 H 0.2766 0.2394 0.0026
C4 C 0.3934(18) 0.1163(12) 0.2323(14)
H3 H 0.4055 0.0495 0.2592
C5 C 0.4412(18) 0.1963(12) 0.3107(14)
H4 H 0.4872 0.1827 0.3873
C6 C 0.4633(13) 0.3848(10) 0.3537(11)
C7 C 0.9193(14) 0.1953(10) 0.7688(12)
C8 C 0.7790(17) 0.2155(15) 0.737(2)
H5 H 0.7142 0.1754 0.7638
C9 C 0.7390(17) 0.2984(16) 0.664(2)
H6 H 0.6448 0.3133 0.6431
C10 C 0.9603(16) 0.3317(12) 0.6454(15)
C12 C 0.9696(14) 0.1092(10) 0.8529(11)
Cd4 Cd 0.25672(10) 0.50469(7) 0.49402(8)
O5 O 0.6192(12) 0.5438(8) 0.6473(10)
O6 O 0.9036(11) 0.6078(8) 0.6058(10)
O7 O 0.8821(11) 0.4536(8) 0.3728(9)
N3 N 0.6683(12) 0.6324(9) 0.3784(10)
O5_2 O 0.3808(12) 0.0438(8) 0.8527(10)
O1_2 O 0.4163(11) 0.8795(8) 0.0874(10)
O2_2 O 0.6192(12) 0.9562(8) 0.1473(10)
C1_2 C 0.5816(13) 0.7960(11) 0.2288(12)
C2_2 C 0.6463(18) 0.8117(12) 0.3462(14)
H1_2 H 0.6632 0.8775 0.3755
C3_2 C 0.6848(18) 0.7284(13) 0.4185(14)
H2_2 H 0.7234 0.7394 0.4974
C4_2 C 0.6066(18) 0.6163(12) 0.2677(14)
H3_2 H 0.5945 0.5495 0.2408
C5_2 C 0.5588(18) 0.6963(12) 0.1893(14)
H4_2 H 0.5128 0.6827 0.1127
C6_2 C 0.5367(13) 0.8848(10) 0.1463(11)
O7_2 O 0.1179(11) 0.9536(8) 0.1272(9)
O4_2 O 0.1179(11) 0.5464(8) 0.6272(9)
N2_2 N 0.1746(12) 0.8577(9) 0.8787(10)
C7_2 C 0.0807(14) 0.6953(10) 0.7312(12)
C8_2 C 0.2210(17) 0.7155(15) 0.763(2)
H5_2 H 0.2858 0.6754 0.7362
C9_2 C 0.2610(17) 0.7984(16) 0.836(2)
H6_2 H 0.3552 0.8133 0.8569
C10_2 C 0.0397(16) 0.8317(12) 0.8546(15)
C12_2 C 0.0304(14) 0.6092(10) 0.6471(11)
H7_2 H 0.9789 0.8672 0.8912
C11_2 C 0.9883(15) 0.7541(12) 0.7774(14)
H8_2 H 0.8935 0.7416 0.7570
O1_3 O 0.4163(11) 0.6205(8) 0.5874(10)
N1_2 N 0.6683(12) 0.8676(9) 0.8784(10)
N2_3 N 0.1746(12) 0.6423(9) 0.3787(10)
C1_3 C 0.5816(13) 0.7040(11) 0.7288(12)
C2_3 C 0.6463(18) 0.6883(12) 0.8462(14)
H1_3 H 0.6632 0.6225 0.8755
C3_3 C 0.6848(18) 0.7716(13) 0.9185(14)
H2_3 H 0.7234 0.7606 0.9974
C4_3 C 0.6066(18) 0.8837(12) 0.7677(14)
H3_3 H 0.5945 0.9505 0.7408
C5_3 C 0.5588(18) 0.8037(12) 0.6893(14)
H4_3 H 0.5128 0.8173 0.6127
C6_3 C 0.5367(13) 0.6152(10) 0.6463(11)
C7_3 C 0.0807(14) 0.8047(10) 0.2312(12)
C8_3 C 0.2210(17) 0.7845(15) 0.263(2)
H5_3 H 0.2858 0.8246 0.2362
C9_3 C 0.2610(17) 0.7016(16) 0.336(2)
H6_3 H 0.3552 0.6867 0.3569
C10_3 C 0.0397(16) 0.6683(12) 0.3546(15)
C12_3 C 0.0304(14) 0.8908(10) 0.1471(11)
O6_2 O 0.0964(11) 0.3922(8) 0.3942(10)
N3_2 N 0.3317(12) 0.3676(9) 0.6216(10)
O3_2 O 0.9036(11) 0.8922(8) 0.1058(10)
H7_3 H 0.9789 0.6328 0.3912
C11_3 C 0.9883(15) 0.7459(12) 0.2774(14)
H8_3 H 0.8935 0.7584 0.2570
H7_4 H 0.0211 0.1328 0.1088
C11_4 C 0.0117(15) 0.2459(12) 0.2226(14)
H8_4 H 0.1065 0.2584 0.2430
N2_4 N 0.8254(12) 0.1423(9) 0.1213(10)
C7_4 C 0.9193(14) 0.3047(10) 0.2688(12)
C8_4 C 0.7790(17) 0.2845(15) 0.237(2)
H5_4 H 0.7142 0.3246 0.2638
C9_4 C 0.7390(17) 0.2016(16) 0.164(2)
H6_4 H 0.6448 0.1867 0.1431
C10_4 C 0.9603(16) 0.1683(12) 0.1454(15)
C12_4 C 0.9696(14) 0.3908(10) 0.3529(11)
O1_4 O 0.5837(11) 0.1205(8) 0.9126(10)
C1_4 C 0.4184(13) 0.2040(11) 0.7712(12)
C2_4 C 0.3537(18) 0.1883(12) 0.6538(14)
H1_4 H 0.3368 0.1225 0.6245
C3_4 C 0.3152(18) 0.2716(13) 0.5815(14)
H2_4 H 0.2766 0.2606 0.5026
C4_4 C 0.3934(18) 0.3837(12) 0.7323(14)
H3_4 H 0.4055 0.4505 0.7592
C5_4 C 0.4412(18) 0.3037(12) 0.8107(14)
H4_4 H 0.4872 0.3173 0.8873
C6_4 C 0.4633(13) 0.1152(10) 0.8537(11)
loop_
_geom_bond_atom_site_label_1
_geom_bond_atom_site_label_2
_geom_bond_site_symmetry_1
_geom_bond_site_symmetry_2
H8 C11 1_555 1_555
Cd1 O1 1_555 1_555
O1 C6 1_555 1_555
O2 C6 1_555 1_555
O4 C12 1_555 1_555
N1 C3 1_555 1_555
N2 Cd1 1_555 1_555
C1 C2 1_555 1_555
C2 H1 1_555 1_555
C3 C2 1_555 1_555
H2 C3 1_555 1_555
C4 N1 1_555 1_555
H3 C4 1_555 1_555
C5 C1 1_555 1_555
H4 C5 1_555 1_555
C6 C1 1_555 1_555
C7 C8 1_555 1_555
C8 H5 1_555 1_555
C9 N2 1_555 1_555
H6 C9 1_555 1_555
C10 N2 1_555 1_555
C12 C7 1_555 1_555
Cd4 O2 1_555 1_555
O5 Cd1 1_555 1_555
O6 Cd1 1_555 1_555
O7 Cd1 1_555 1_555
N3 Cd1 1_555 1_555
C4 C5 1_555 1_555
C8 C9 1_555 1_555
O1_2 C6_2 1_555 1_555
O2_2 C6_2 1_555 1_555
N3 C3_2 1_555 1_555
C1_2 C2_2 1_555 1_555
C2_2 H1_2 1_555 1_555
C3_2 C2_2 1_555 1_555
H2_2 C3_2 1_555 1_555
C4_2 N3 1_555 1_555
H3_2 C4_2 1_555 1_555
C5_2 C1_2 1_555 1_555
H4_2 C5_2 1_555 1_555
C6_2 C1_2 1_555 1_555
C4_2 C5_2 1_555 1_555
O4_2 C12_2 1_555 1_555
N2_2 Cd3 1_555 1_555
C7_2 C8_2 1_555 1_555
C8_2 H5_2 1_555 1_555
C9_2 N2_2 1_555 1_555
H6_2 C9_2 1_555 1_555
C10_2 N2_2 1_555 1_555
C12_2 C7_2 1_555 1_555
Cd4 O4_2 1_555 1_555
C8_2 C9_2 1_555 1_555
H8_2 C11_2 1_555 1_555
Cd4 O1_3 1_555 1_555
O1_3 C6_3 1_555 1_555
O5 C6_3 1_555 1_555
O7_2 C12_3 1_555 1_555
N1_2 C3_3 1_555 1_555
N2_3 Cd4 1_555 1_555
C1_3 C2_3 1_555 1_555
C2_3 H1_3 1_555 1_555
C3_3 C2_3 1_555 1_555
H2_3 C3_3 1_555 1_555
C4_3 N1_2 1_555 1_555
H3_3 C4_3 1_555 1_555
C5_3 C1_3 1_555 1_555
H4_3 C5_3 1_555 1_555
C6_3 C1_3 1_555 1_555
C7_3 C8_3 1_555 1_555
C8_3 H5_3 1_555 1_555
C9_3 N2_3 1_555 1_555
H6_3 C9_3 1_555 1_555
C10_3 N2_3 1_555 1_555
C12_3 C7_3 1_555 1_555
O6_2 Cd4 1_555 1_555
N3_2 Cd4 1_555 1_555
C4_3 C5_3 1_555 1_555
C8_3 C9_3 1_555 1_555
H8_3 C11_3 1_555 1_555
H8_4 C11_4 1_555 1_555
O7 C12_4 1_555 1_555
N2_4 Cd5 1_555 1_555
C7_4 C8_4 1_555 1_555
C8_4 H5_4 1_555 1_555
C9_4 N2_4 1_555 1_555
H6_4 C9_4 1_555 1_555
C10_4 N2_4 1_555 1_555
C12_4 C7_4 1_555 1_555
C8_4 C9_4 1_555 1_555
O1_4 C6_4 1_555 1_555
O5_2 C6_4 1_555 1_555
N3_2 C3_4 1_555 1_555
C1_4 C2_4 1_555 1_555
C2_4 H1_4 1_555 1_555
C3_4 C2_4 1_555 1_555
H2_4 C3_4 1_555 1_555
C4_4 N3_2 1_555 1_555
H3_4 C4_4 1_555 1_555
C5_4 C1_4 1_555 1_555
H4_4 C5_4 1_555 1_555
C6_4 C1_4 1_555 1_555
C4_4 C5_4 1_555 1_555

#END
