
###############################################################################
#
# This file contains modified crystal structure data generated from the
# MOF subset of the Cambridge Structural Database (CSD) v543 
# hosted by the Cambridge Crystallographic Data Centre (CCDC).
#
# This work is licensed under the Creative Commons
# Attribution-NonCommercial-ShareAlike 4.0 International License.
# To view a copy of this license, visit
# http://creativecommons.org/licenses/by-nc-sa/4.0/
# or send a letter to
# Creative Commons, PO Box 1866, Mountain View, CA 94042, USA.
#
# CIF created using the CSD Python API on 29 September 2022
# The structure has been converted into the P1 space group
# The structure has a 3D framework
# The original CSD entry SIWHOY is in the orthorhombic crystal system
# The framework has been calculated to contain at least 10.0% void space
# The void calculation uses a probe of radius 1.32A, grid spacing 0.4
#
###############################################################################

data_SIWHOY
_chemical_formula_moiety         '(C96 H96 Co16 N60)n'
_symmetry_cell_setting           triclinic
_symmetry_space_group_name_H-M   'P 1'
_symmetry_Int_Tables_number      1
_space_group_name_Hall           'P 1'
loop_
_symmetry_equiv_pos_site_id
_symmetry_equiv_pos_as_xyz
1 x,y,z
_cell_length_a                   14.7957(5)
_cell_length_b                   15.5641(5)
_cell_length_c                   18.4453(6)
_cell_angle_alpha                90
_cell_angle_beta                 90
_cell_angle_gamma                90
_cell_volume                     4247.62
loop_
_atom_site_label
_atom_site_type_symbol
_atom_site_fract_x
_atom_site_fract_y
_atom_site_fract_z
Co1 Co 0.52781(3) 0.35185(2) 0.31881(2)
Co2 Co 0.21464(3) 0.14060(2) 0.39593(2)
N1 N 0.46493(16) 0.24672(15) 0.35412(12)
N2 N 0.34461(16) 0.16577(15) 0.38123(12)
N3 N 0.61306(18) 0.38710(16) 0.39565(12)
N4 N 0.68568(17) 0.38776(15) 0.50210(13)
N5 N 0.43428(17) 0.44244(15) 0.30612(13)
N6 N 0.33606(16) 0.54576(15) 0.33637(13)
N7 N 0.58512(16) 0.32680(15) 0.22408(12)
N8 N 0.65074(16) 0.24633(14) 0.13833(12)
C1 C 0.37482(19) 0.24147(17) 0.35773(14)
H1 H 0.335897 0.287508 0.344720
C2 C 0.4955(2) 0.16804(19) 0.37823(16)
H2 H 0.557002 0.151197 0.382508
C3 C 0.4225(2) 0.11869(19) 0.39482(16)
H3 H 0.424409 0.061497 0.412739
C4 C 0.62371(19) 0.35049(17) 0.46036(14)
H4 H 0.589860 0.301802 0.475455
C5 C 0.6710(3) 0.4565(3) 0.39758(18)
H5 H 0.678425 0.497703 0.360044
C6 C 0.7158(3) 0.4564(2) 0.46192(18)
H6 H 0.760283 0.496808 0.476602
C7 C 0.40002(19) 0.49154(17) 0.35872(14)
H7 H 0.419475 0.488147 0.407713
C8 C 0.3899(2) 0.46831(19) 0.24462(16)
H8 H 0.399269 0.446003 0.197276
C9 C 0.3304(2) 0.53102(19) 0.26265(16)
H9 H 0.291309 0.560046 0.229964
C10 C 0.60807(19) 0.24790(17) 0.20233(15)
H10 H 0.595311 0.197627 0.229691
C11 C 0.6162(2) 0.38018(19) 0.17017(17)
H11 H 0.611473 0.441049 0.169778
C12 C 0.6547(2) 0.3312(2) 0.11751(17)
H12 H 0.680197 0.352149 0.073649
Co3 Co 0.71464(3) 0.35940(2) 0.60407(2)
Co4 Co 0.71464(3) 0.14060(2) 0.10407(2)
Co5 Co 0.28536(3) 0.64060(2) 0.39593(2)
N9 N 0.18568(17) 0.11224(15) 0.49790(13)
N10 N 0.16394(16) 0.04576(15) 0.33637(13)
N11 N 0.15074(16) 0.24633(14) 0.36167(12)
Co2_2 Co 0.28536(3) 0.85940(2) 0.89593(2)
N1_2 N 0.03507(16) 0.75328(15) 0.85412(12)
N2_2 N 0.15539(16) 0.83423(15) 0.88123(12)
N5_2 N 0.06572(17) 0.55756(15) 0.80612(13)
N6_2 N 0.16394(16) 0.45424(15) 0.83637(13)
C1_2 C 0.12518(19) 0.75853(17) 0.85773(14)
H1_2 H 0.164103 0.712492 0.844720
C2_2 C 0.0045(2) 0.83196(19) 0.87823(16)
C3_2 C 0.0775(2) 0.88131(19) 0.89482(16)
H3_2 H 0.075591 0.938503 0.912739
C7_2 C 0.09998(19) 0.50846(17) 0.85872(14)
H7_2 H 0.080525 0.511853 0.907713
C8_2 C 0.1101(2) 0.53169(19) 0.74462(16)
H8_2 H 0.100731 0.553997 0.697276
C9_2 C 0.1696(2) 0.46898(19) 0.76265(16)
H9_2 H 0.208691 0.439954 0.729964
Co5_2 Co 0.21464(3) 0.35940(2) 0.89593(2)
N9_2 N 0.31432(17) 0.88776(15) 0.99790(13)
N10_2 N 0.33606(16) 0.95424(15) 0.83637(13)
N11_2 N 0.34926(16) 0.75367(14) 0.86167(12)
N4_2 N 0.81432(17) 0.61224(15) 0.00210(13)
Co3_2 Co 0.78536(3) 0.64060(2) 0.10407(2)
Co1_2 Co 0.97219(3) 0.64815(2) 0.81881(2)
N3_2 N 0.88694(18) 0.61290(16) 0.89565(12)
N7_2 N 0.91488(16) 0.67320(15) 0.72408(12)
N8_2 N 0.84926(16) 0.75367(14) 0.63833(12)
H2_2 H 0.942998 0.848803 0.882508
C4_2 C 0.87629(19) 0.64951(17) 0.96036(14)
H4_2 H 0.910140 0.698198 0.975455
C5_2 C 0.8290(3) 0.5435(3) 0.89758(18)
H5_2 H 0.821575 0.502297 0.860044
C6_2 C 0.7842(3) 0.5436(2) 0.96192(18)
H6_2 H 0.739717 0.503192 0.976602
C10_2 C 0.89193(19) 0.75210(17) 0.70233(15)
H10_2 H 0.904689 0.802373 0.729691
C11_2 C 0.8838(2) 0.61982(19) 0.67017(17)
H11_2 H 0.888527 0.558951 0.669778
C12_2 C 0.8453(2) 0.6688(2) 0.61751(17)
H12_2 H 0.819803 0.647851 0.573649
Co4_2 Co 0.78536(3) 0.85940(2) 0.60407(2)
N6_3 N 0.66394(16) 0.04576(15) 0.16363(13)
C9_3 C 0.6696(2) 0.03102(19) 0.23735(16)
H9_3 H 0.708691 0.060046 0.270036
Co1_3 Co 0.47219(3) 0.85185(2) 0.18119(2)
N1_3 N 0.53507(16) 0.74672(15) 0.14588(12)
N2_3 N 0.65539(16) 0.66577(15) 0.11877(12)
N3_3 N 0.38694(18) 0.88710(16) 0.10435(12)
N5_3 N 0.56572(17) 0.94244(15) 0.19388(13)
N7_3 N 0.41488(16) 0.82680(15) 0.27592(12)
N8_3 N 0.34926(16) 0.74633(14) 0.36167(12)
C1_3 C 0.62518(19) 0.74147(17) 0.14227(14)
H1_3 H 0.664103 0.787508 0.155280
C2_3 C 0.5045(2) 0.66804(19) 0.12177(16)
H2_3 H 0.442998 0.651197 0.117492
C3_3 C 0.5775(2) 0.61869(19) 0.10518(16)
H3_3 H 0.575591 0.561497 0.087261
C4_3 C 0.37629(19) 0.85049(17) 0.03964(14)
H4_3 H 0.410140 0.801802 0.024545
C5_3 C 0.3290(3) 0.9565(3) 0.10242(18)
H5_3 H 0.321575 0.997703 0.139956
C6_3 C 0.2842(3) 0.9564(2) 0.03808(18)
H6_3 H 0.239717 0.996808 0.023398
C7_3 C 0.59998(19) 0.99154(17) 0.14128(14)
H7_3 H 0.580525 0.988147 0.092287
C8_3 C 0.6101(2) 0.96831(19) 0.25538(16)
H8_3 H 0.600731 0.946003 0.302724
C10_3 C 0.39193(19) 0.74790(17) 0.29767(15)
H10_3 H 0.404689 0.697627 0.270309
C11_3 C 0.3838(2) 0.88018(19) 0.32983(17)
H11_3 H 0.388527 0.941049 0.330222
C12_3 C 0.3453(2) 0.8312(2) 0.38249(17)
H12_3 H 0.319803 0.852149 0.426351
N10_3 N 0.83606(16) 0.54576(15) 0.16363(13)
N11_3 N 0.84926(16) 0.74633(14) 0.13833(12)
Co1_4 Co 0.02781(3) 0.14815(2) 0.68119(2)
N3_4 N 0.11306(18) 0.11290(16) 0.60435(12)
N7_4 N 0.08512(16) 0.17320(15) 0.77592(12)
N8_4 N 0.15074(16) 0.25367(14) 0.86167(12)
H2_4 H 0.057002 0.348803 0.617492
C4_4 C 0.12371(19) 0.14951(17) 0.53964(14)
H4_4 H 0.089860 0.198198 0.524545
C5_4 C 0.1710(3) 0.0435(3) 0.60242(18)
H5_4 H 0.178425 0.002297 0.639956
C6_4 C 0.2158(3) 0.0436(2) 0.53808(18)
H6_4 H 0.260283 0.003192 0.523398
C10_4 C 0.10807(19) 0.25210(17) 0.79767(15)
H10_4 H 0.095311 0.302373 0.770309
C11_4 C 0.1162(2) 0.11982(19) 0.82983(17)
H11_4 H 0.111473 0.058951 0.830222
C12_4 C 0.1547(2) 0.1688(2) 0.88249(17)
H12_4 H 0.180197 0.147851 0.926351
N1_4 N 0.96493(16) 0.25328(15) 0.64588(12)
N2_4 N 0.84461(16) 0.33423(15) 0.61877(12)
N5_4 N 0.93428(17) 0.05756(15) 0.69388(13)
C1_4 C 0.87482(19) 0.25853(17) 0.64227(14)
H1_4 H 0.835897 0.212492 0.655280
C2_4 C 0.9955(2) 0.33196(19) 0.62177(16)
C3_4 C 0.9225(2) 0.38131(19) 0.60518(16)
H3_4 H 0.924409 0.438503 0.587261
C7_4 C 0.90002(19) 0.00846(17) 0.64128(14)
H7_4 H 0.919475 0.011853 0.592287
C8_4 C 0.8899(2) 0.03169(19) 0.75538(16)
H8_4 H 0.899269 0.053997 0.802724
N10_4 N 0.66394(16) 0.45424(15) 0.66363(13)
N11_4 N 0.65074(16) 0.25367(14) 0.63833(12)
N6_4 N 0.83606(16) 0.95424(15) 0.66363(13)
C9_4 C 0.8304(2) 0.96898(19) 0.73735(16)
H9_4 H 0.791309 0.939954 0.770036
Co1_5 Co 0.47219(3) 0.64815(2) 0.68119(2)
N1_5 N 0.53507(16) 0.75328(15) 0.64588(12)
N2_5 N 0.65539(16) 0.83423(15) 0.61877(12)
N3_5 N 0.38694(18) 0.61290(16) 0.60435(12)
N4_3 N 0.31432(17) 0.61224(15) 0.49790(13)
N5_5 N 0.56572(17) 0.55756(15) 0.69388(13)
N7_5 N 0.41488(16) 0.67320(15) 0.77592(12)
C1_5 C 0.62518(19) 0.75853(17) 0.64227(14)
H1_5 H 0.664103 0.712492 0.655280
C2_5 C 0.5045(2) 0.83196(19) 0.62177(16)
H2_5 H 0.442998 0.848803 0.617492
C3_5 C 0.5775(2) 0.88131(19) 0.60518(16)
H3_5 H 0.575591 0.938503 0.587261
C4_5 C 0.37629(19) 0.64951(17) 0.53964(14)
H4_5 H 0.410140 0.698198 0.524545
C5_5 C 0.3290(3) 0.5435(3) 0.60242(18)
H5_5 H 0.321575 0.502297 0.639956
C6_5 C 0.2842(3) 0.5436(2) 0.53808(18)
H6_5 H 0.239717 0.503192 0.523398
C7_5 C 0.59998(19) 0.50846(17) 0.64128(14)
H7_5 H 0.580525 0.511853 0.592287
C8_5 C 0.6101(2) 0.53169(19) 0.75538(16)
H8_5 H 0.600731 0.553997 0.802724
C9_5 C 0.6696(2) 0.46898(19) 0.73735(16)
H9_5 H 0.708691 0.439954 0.770036
C10_5 C 0.39193(19) 0.75210(17) 0.79767(15)
H10_5 H 0.404689 0.802373 0.770309
C11_5 C 0.3838(2) 0.61982(19) 0.82983(17)
H11_5 H 0.388527 0.558951 0.830222
C12_5 C 0.3453(2) 0.6688(2) 0.88249(17)
H12_5 H 0.319803 0.647851 0.926351
N9_3 N 0.81432(17) 0.88776(15) 0.50210(13)
Co1_6 Co 0.02781(3) 0.35185(2) 0.18119(2)
N3_6 N 0.11306(18) 0.38710(16) 0.10435(12)
N7_6 N 0.08512(16) 0.32680(15) 0.27592(12)
H2_6 H 0.057002 0.151197 0.117492
C4_6 C 0.12371(19) 0.35049(17) 0.03964(14)
H4_6 H 0.089860 0.301802 0.024545
C5_6 C 0.1710(3) 0.4565(3) 0.10242(18)
H5_6 H 0.178425 0.497703 0.139956
C6_6 C 0.2158(3) 0.4564(2) 0.03808(18)
H6_6 H 0.260283 0.496808 0.023398
C10_6 C 0.10807(19) 0.24790(17) 0.29767(15)
H10_6 H 0.095311 0.197627 0.270309
C11_6 C 0.1162(2) 0.38018(19) 0.32983(17)
H11_6 H 0.111473 0.441049 0.330222
C12_6 C 0.1547(2) 0.3312(2) 0.38249(17)
H12_6 H 0.180197 0.352149 0.426351
N4_4 N 0.18568(17) 0.38776(15) 0.99790(13)
N1_6 N 0.96493(16) 0.24672(15) 0.14588(12)
N2_6 N 0.84461(16) 0.16577(15) 0.11877(12)
N5_6 N 0.93428(17) 0.44244(15) 0.19388(13)
C1_6 C 0.87482(19) 0.24147(17) 0.14227(14)
H1_6 H 0.835897 0.287508 0.155280
C2_6 C 0.9955(2) 0.16804(19) 0.12177(16)
C3_6 C 0.9225(2) 0.11869(19) 0.10518(16)
H3_6 H 0.924409 0.061497 0.087261
C7_6 C 0.90002(19) 0.49154(17) 0.14128(14)
H7_6 H 0.919475 0.488147 0.092287
C8_6 C 0.8899(2) 0.46831(19) 0.25538(16)
H8_6 H 0.899269 0.446003 0.302724
C9_6 C 0.8304(2) 0.53102(19) 0.23735(16)
H9_6 H 0.791309 0.560046 0.270036
N9_4 N 0.68568(17) 0.11224(15) 0.00210(13)
Co1_7 Co 0.52781(3) 0.14815(2) 0.81881(2)
N1_7 N 0.46493(16) 0.25328(15) 0.85412(12)
N2_7 N 0.34461(16) 0.33423(15) 0.88123(12)
N3_7 N 0.61306(18) 0.11290(16) 0.89565(12)
N5_7 N 0.43428(17) 0.05756(15) 0.80612(13)
N7_7 N 0.58512(16) 0.17320(15) 0.72408(12)
C1_7 C 0.37482(19) 0.25853(17) 0.85773(14)
H1_7 H 0.335897 0.212492 0.844720
C2_7 C 0.4955(2) 0.33196(19) 0.87823(16)
H2_7 H 0.557002 0.348803 0.882508
C3_7 C 0.4225(2) 0.38131(19) 0.89482(16)
H3_7 H 0.424409 0.438503 0.912739
C4_7 C 0.62371(19) 0.14951(17) 0.96036(14)
H4_7 H 0.589860 0.198198 0.975455
C5_7 C 0.6710(3) 0.0435(3) 0.89758(18)
H5_7 H 0.678425 0.002297 0.860044
C6_7 C 0.7158(3) 0.0436(2) 0.96192(18)
H6_7 H 0.760283 0.003192 0.976602
C7_7 C 0.40002(19) 0.00846(17) 0.85872(14)
H7_7 H 0.419475 0.011853 0.907713
C8_7 C 0.3899(2) 0.03169(19) 0.74462(16)
H8_7 H 0.399269 0.053997 0.697276
C10_7 C 0.60807(19) 0.25210(17) 0.70233(15)
H10_7 H 0.595311 0.302373 0.729691
C11_7 C 0.6162(2) 0.11982(19) 0.67017(17)
H11_7 H 0.611473 0.058951 0.669778
C12_7 C 0.6547(2) 0.1688(2) 0.61751(17)
H12_7 H 0.680197 0.147851 0.573649
C9_7 C 0.3304(2) 0.96898(19) 0.76265(16)
H9_7 H 0.291309 0.939954 0.729964
C9_8 C 0.1696(2) 0.03102(19) 0.26265(16)
H9_8 H 0.208691 0.060046 0.229964
N1_8 N 0.03507(16) 0.74672(15) 0.35412(12)
N2_8 N 0.15539(16) 0.66577(15) 0.38123(12)
N5_8 N 0.06572(17) 0.94244(15) 0.30612(13)
C1_8 C 0.12518(19) 0.74147(17) 0.35773(14)
H1_8 H 0.164103 0.787508 0.344720
C2_8 C 0.0045(2) 0.66804(19) 0.37823(16)
C3_8 C 0.0775(2) 0.61869(19) 0.39482(16)
H3_8 H 0.075591 0.561497 0.412739
C7_8 C 0.09998(19) 0.99154(17) 0.35872(14)
H7_8 H 0.080525 0.988147 0.407713
C8_8 C 0.1101(2) 0.96831(19) 0.24462(16)
H8_8 H 0.100731 0.946003 0.197276
Co1_8 Co 0.97219(3) 0.85185(2) 0.31881(2)
N3_8 N 0.88694(18) 0.88710(16) 0.39565(12)
N7_8 N 0.91488(16) 0.82680(15) 0.22408(12)
H2_8 H 0.942998 0.651197 0.382508
C4_8 C 0.87629(19) 0.85049(17) 0.46036(14)
H4_8 H 0.910140 0.801802 0.475455
C5_8 C 0.8290(3) 0.9565(3) 0.39758(18)
H5_8 H 0.821575 0.997703 0.360044
C6_8 C 0.7842(3) 0.9564(2) 0.46192(18)
H6_8 H 0.739717 0.996808 0.476602
C10_8 C 0.89193(19) 0.74790(17) 0.20233(15)
H10_8 H 0.904689 0.697627 0.229691
C11_8 C 0.8838(2) 0.88018(19) 0.17017(17)
H11_8 H 0.888527 0.941049 0.169778
C12_8 C 0.8453(2) 0.8312(2) 0.11751(17)
H12_8 H 0.819803 0.852149 0.073649
loop_
_geom_bond_atom_site_label_1
_geom_bond_atom_site_label_2
_geom_bond_site_symmetry_1
_geom_bond_site_symmetry_2
Co1 N1 1_555 1_555
Co2 N2 1_555 1_555
N1 C1 1_555 1_555
N2 C1 1_555 1_555
N3 Co1 1_555 1_555
N4 C4 1_555 1_555
N5 Co1 1_555 1_555
N6 C7 1_555 1_555
N7 Co1 1_555 1_555
N8 C10 1_555 1_555
C1 H1 1_555 1_555
C2 N1 1_555 1_555
H2 C2 1_555 1_555
C3 N2 1_555 1_555
H3 C3 1_555 1_555
C4 N3 1_555 1_555
H4 C4 1_555 1_555
C5 N3 1_555 1_555
H5 C5 1_555 1_555
C6 N4 1_555 1_555
H6 C6 1_555 1_555
C7 N5 1_555 1_555
H7 C7 1_555 1_555
C8 N5 1_555 1_555
H8 C8 1_555 1_555
C9 N6 1_555 1_555
H9 C9 1_555 1_555
C10 N7 1_555 1_555
H10 C10 1_555 1_555
C11 N7 1_555 1_555
H11 C11 1_555 1_555
C12 N8 1_555 1_555
H12 C12 1_555 1_555
Co3 N4 1_555 1_555
Co4 N8 1_555 1_555
Co5 N6 1_555 1_555
N9 Co2 1_555 1_555
N10 Co2 1_555 1_555
N11 Co2 1_555 1_555
C2 C3 1_555 1_555
C5 C6 1_555 1_555
C8 C9 1_555 1_555
C11 C12 1_555 1_555
Co2_2 N2_2 1_555 1_555
N1_2 C1_2 1_555 1_555
N2_2 C1_2 1_555 1_555
N6_2 C7_2 1_555 1_555
C1_2 H1_2 1_555 1_555
C2_2 N1_2 1_555 1_555
C3_2 N2_2 1_555 1_555
H3_2 C3_2 1_555 1_555
C7_2 N5_2 1_555 1_555
H7_2 C7_2 1_555 1_555
C8_2 N5_2 1_555 1_555
H8_2 C8_2 1_555 1_555
C9_2 N6_2 1_555 1_555
H9_2 C9_2 1_555 1_555
Co5_2 N6_2 1_555 1_555
N9_2 Co2_2 1_555 1_555
N10_2 Co2_2 1_555 1_555
N11_2 Co2_2 1_555 1_555
C2_2 C3_2 1_555 1_555
C8_2 C9_2 1_555 1_555
Co3_2 N4_2 1_555 1_555
N3_2 Co1_2 1_555 1_555
N7_2 Co1_2 1_555 1_555
N8_2 C10_2 1_555 1_555
C4_2 N3_2 1_555 1_555
H4_2 C4_2 1_555 1_555
C5_2 N3_2 1_555 1_555
H5_2 C5_2 1_555 1_555
H6_2 C6_2 1_555 1_555
C10_2 N7_2 1_555 1_555
H10_2 C10_2 1_555 1_555
C11_2 N7_2 1_555 1_555
H11_2 C11_2 1_555 1_555
C12_2 N8_2 1_555 1_555
H12_2 C12_2 1_555 1_555
Co4_2 N8_2 1_555 1_555
C5_2 C6_2 1_555 1_555
C11_2 C12_2 1_555 1_555
C9_3 N6_3 1_555 1_555
H9_3 C9_3 1_555 1_555
Co4 N6_3 1_555 1_555
Co1_3 N1_3 1_555 1_555
Co3_2 N2_3 1_555 1_555
N1_3 C1_3 1_555 1_555
N2_3 C1_3 1_555 1_555
N3_3 Co1_3 1_555 1_555
N5_3 Co1_3 1_555 1_555
N7_3 Co1_3 1_555 1_555
N8_3 C10_3 1_555 1_555
C1_3 H1_3 1_555 1_555
C2_3 N1_3 1_555 1_555
H2_3 C2_3 1_555 1_555
C3_3 N2_3 1_555 1_555
H3_3 C3_3 1_555 1_555
C4_3 N3_3 1_555 1_555
H4_3 C4_3 1_555 1_555
C5_3 N3_3 1_555 1_555
H5_3 C5_3 1_555 1_555
H6_3 C6_3 1_555 1_555
C7_3 N5_3 1_555 1_555
H7_3 C7_3 1_555 1_555
C8_3 N5_3 1_555 1_555
H8_3 C8_3 1_555 1_555
C10_3 N7_3 1_555 1_555
H10_3 C10_3 1_555 1_555
C11_3 N7_3 1_555 1_555
H11_3 C11_3 1_555 1_555
C12_3 N8_3 1_555 1_555
H12_3 C12_3 1_555 1_555
Co5 N8_3 1_555 1_555
N10_3 Co3_2 1_555 1_555
N11_3 Co3_2 1_555 1_555
C2_3 C3_3 1_555 1_555
C5_3 C6_3 1_555 1_555
C11_3 C12_3 1_555 1_555
N3_4 Co1_4 1_555 1_555
N9 C4_4 1_555 1_555
N7_4 Co1_4 1_555 1_555
N8_4 C10_4 1_555 1_555
C4_4 N3_4 1_555 1_555
H4_4 C4_4 1_555 1_555
C5_4 N3_4 1_555 1_555
H5_4 C5_4 1_555 1_555
C6_4 N9 1_555 1_555
H6_4 C6_4 1_555 1_555
C10_4 N7_4 1_555 1_555
H10_4 C10_4 1_555 1_555
C11_4 N7_4 1_555 1_555
H11_4 C11_4 1_555 1_555
C12_4 N8_4 1_555 1_555
H12_4 C12_4 1_555 1_555
Co5_2 N8_4 1_555 1_555
C5_4 C6_4 1_555 1_555
C11_4 C12_4 1_555 1_555
Co3 N2_4 1_555 1_555
N1_4 C1_4 1_555 1_555
N2_4 C1_4 1_555 1_555
C1_4 H1_4 1_555 1_555
C2_4 N1_4 1_555 1_555
C3_4 N2_4 1_555 1_555
H3_4 C3_4 1_555 1_555
C7_4 N5_4 1_555 1_555
H7_4 C7_4 1_555 1_555
C8_4 N5_4 1_555 1_555
H8_4 C8_4 1_555 1_555
N10_4 Co3 1_555 1_555
N11_4 Co3 1_555 1_555
C2_4 C3_4 1_555 1_555
C9_4 N6_4 1_555 1_555
H9_4 C9_4 1_555 1_555
Co4_2 N6_4 1_555 1_555
Co1_5 N1_5 1_555 1_555
Co4_2 N2_5 1_555 1_555
N1_5 C1_5 1_555 1_555
N2_5 C1_5 1_555 1_555
N3_5 Co1_5 1_555 1_555
N4_3 C4_5 1_555 1_555
N5_5 Co1_5 1_555 1_555
N10_4 C7_5 1_555 1_555
N7_5 Co1_5 1_555 1_555
N11_2 C10_5 1_555 1_555
C1_5 H1_5 1_555 1_555
C2_5 N1_5 1_555 1_555
H2_5 C2_5 1_555 1_555
C3_5 N2_5 1_555 1_555
H3_5 C3_5 1_555 1_555
C4_5 N3_5 1_555 1_555
H4_5 C4_5 1_555 1_555
C5_5 N3_5 1_555 1_555
H5_5 C5_5 1_555 1_555
C6_5 N4_3 1_555 1_555
H6_5 C6_5 1_555 1_555
C7_5 N5_5 1_555 1_555
H7_5 C7_5 1_555 1_555
C8_5 N5_5 1_555 1_555
H8_5 C8_5 1_555 1_555
C9_5 N10_4 1_555 1_555
H9_5 C9_5 1_555 1_555
C10_5 N7_5 1_555 1_555
H10_5 C10_5 1_555 1_555
C11_5 N7_5 1_555 1_555
H11_5 C11_5 1_555 1_555
C12_5 N11_2 1_555 1_555
H12_5 C12_5 1_555 1_555
Co5 N4_3 1_555 1_555
N9_3 Co4_2 1_555 1_555
C2_5 C3_5 1_555 1_555
C5_5 C6_5 1_555 1_555
C8_5 C9_5 1_555 1_555
C11_5 C12_5 1_555 1_555
N3_6 Co1_6 1_555 1_555
N7_6 Co1_6 1_555 1_555
N11 C10_6 1_555 1_555
C4_6 N3_6 1_555 1_555
H4_6 C4_6 1_555 1_555
C5_6 N3_6 1_555 1_555
H5_6 C5_6 1_555 1_555
H6_6 C6_6 1_555 1_555
C10_6 N7_6 1_555 1_555
H10_6 C10_6 1_555 1_555
C11_6 N7_6 1_555 1_555
H11_6 C11_6 1_555 1_555
C12_6 N11 1_555 1_555
H12_6 C12_6 1_555 1_555
C5_6 C6_6 1_555 1_555
C11_6 C12_6 1_555 1_555
Co5_2 N4_4 1_555 1_555
Co4 N2_6 1_555 1_555
N1_6 C1_6 1_555 1_555
N2_6 C1_6 1_555 1_555
N10_3 C7_6 1_555 1_555
C1_6 H1_6 1_555 1_555
C2_6 N1_6 1_555 1_555
C3_6 N2_6 1_555 1_555
H3_6 C3_6 1_555 1_555
C7_6 N5_6 1_555 1_555
H7_6 C7_6 1_555 1_555
C8_6 N5_6 1_555 1_555
H8_6 C8_6 1_555 1_555
C9_6 N10_3 1_555 1_555
H9_6 C9_6 1_555 1_555
N9_4 Co4 1_555 1_555
C2_6 C3_6 1_555 1_555
C8_6 C9_6 1_555 1_555
Co1_7 N1_7 1_555 1_555
Co5_2 N2_7 1_555 1_555
N1_7 C1_7 1_555 1_555
N2_7 C1_7 1_555 1_555
N3_7 Co1_7 1_555 1_555
N5_7 Co1_7 1_555 1_555
N7_7 Co1_7 1_555 1_555
N11_4 C10_7 1_555 1_555
C1_7 H1_7 1_555 1_555
C2_7 N1_7 1_555 1_555
H2_7 C2_7 1_555 1_555
C3_7 N2_7 1_555 1_555
H3_7 C3_7 1_555 1_555
C4_7 N3_7 1_555 1_555
H4_7 C4_7 1_555 1_555
C5_7 N3_7 1_555 1_555
H5_7 C5_7 1_555 1_555
H6_7 C6_7 1_555 1_555
C7_7 N5_7 1_555 1_555
H7_7 C7_7 1_555 1_555
C8_7 N5_7 1_555 1_555
H8_7 C8_7 1_555 1_555
C10_7 N7_7 1_555 1_555
H10_7 C10_7 1_555 1_555
C11_7 N7_7 1_555 1_555
H11_7 C11_7 1_555 1_555
C12_7 N11_4 1_555 1_555
H12_7 C12_7 1_555 1_555
C2_7 C3_7 1_555 1_555
C5_7 C6_7 1_555 1_555
C11_7 C12_7 1_555 1_555
C9_7 N10_2 1_555 1_555
H9_7 C9_7 1_555 1_555
C9_8 N10 1_555 1_555
H9_8 C9_8 1_555 1_555
Co5 N2_8 1_555 1_555
N1_8 C1_8 1_555 1_555
N2_8 C1_8 1_555 1_555
C1_8 H1_8 1_555 1_555
C2_8 N1_8 1_555 1_555
C3_8 N2_8 1_555 1_555
H3_8 C3_8 1_555 1_555
C7_8 N5_8 1_555 1_555
H7_8 C7_8 1_555 1_555
C8_8 N5_8 1_555 1_555
H8_8 C8_8 1_555 1_555
C2_8 C3_8 1_555 1_555
N3_8 Co1_8 1_555 1_555
N9_3 C4_8 1_555 1_555
N7_8 Co1_8 1_555 1_555
N11_3 C10_8 1_555 1_555
C4_8 N3_8 1_555 1_555
H4_8 C4_8 1_555 1_555
C5_8 N3_8 1_555 1_555
H5_8 C5_8 1_555 1_555
C6_8 N9_3 1_555 1_555
H6_8 C6_8 1_555 1_555
C10_8 N7_8 1_555 1_555
H10_8 C10_8 1_555 1_555
C11_8 N7_8 1_555 1_555
H11_8 C11_8 1_555 1_555
C12_8 N11_3 1_555 1_555
H12_8 C12_8 1_555 1_555
C5_8 C6_8 1_555 1_555
C11_8 C12_8 1_555 1_555

#END
