
###############################################################################
#
# This file contains modified crystal structure data generated from the
# MOF subset of the Cambridge Structural Database (CSD) v543 
# hosted by the Cambridge Crystallographic Data Centre (CCDC).
#
# This work is licensed under the Creative Commons
# Attribution-NonCommercial-ShareAlike 4.0 International License.
# To view a copy of this license, visit
# http://creativecommons.org/licenses/by-nc-sa/4.0/
# or send a letter to
# Creative Commons, PO Box 1866, Mountain View, CA 94042, USA.
#
# CIF created using the CSD Python API on 29 September 2022
# The structure has been converted into the P1 space group
# The structure has a 3D framework
# The original CSD entry SIWTEZ is in the triclinic crystal system
# The framework has been calculated to contain at least 10.0% void space
# The void calculation uses a probe of radius 1.32A, grid spacing 0.4
#
###############################################################################

data_SIWTEZ
_chemical_formula_moiety         '(C44 H33 Co8 N12 O22)n'
_symmetry_cell_setting           triclinic
_symmetry_space_group_name_H-M   'P 1'
_symmetry_Int_Tables_number      1
_space_group_name_Hall           'P 1'
loop_
_symmetry_equiv_pos_site_id
_symmetry_equiv_pos_as_xyz
1 x,y,z
_cell_length_a                   11.0788(4)
_cell_length_b                   12.6965(10)
_cell_length_c                   12.7879(6)
_cell_angle_alpha                65.776(6)
_cell_angle_beta                 86.620(3)
_cell_angle_gamma                83.387(4)
_cell_volume                     1629.34
loop_
_atom_site_label
_atom_site_type_symbol
_atom_site_fract_x
_atom_site_fract_y
_atom_site_fract_z
Co2 Co -0.0000 0.0000 -0.0000
C1 C 0.0239(4) 0.0911(4) 0.2957(3)
C4 C 0.1167(4) 0.1250(4) 0.4744(3)
H2 H 0.1485 0.1351 0.5351
C5 C 0.1918(4) 0.0817(4) 0.4078(3)
C6 C 0.1467(4) 0.0636(4) 0.3191(3)
H3 H 0.1980 0.0335 0.2757
C10 C 0.4856(4) 0.1439(5) 0.1243(4)
H6 H 0.4724 0.1923 0.0475
C11 C 0.5757(4) 0.0376(4) 0.2766(4)
N1 N 0.4568(3) 0.0469(3) 0.2984(3)
N2 N 0.3978(3) 0.1154(4) 0.1998(3)
N3 N 0.5980(3) 0.0975(3) 0.1664(3)
O1 O 0.0394(2) 0.0172(3) 0.1512(2)
O5 O 0.3149(2) 0.0583(3) 0.4396(2)
Co7 Co 0.75045(5) 0.11533(5) 0.05159(4)
Co2_2 Co -0.0000 0.0000 1.0000
O30 O 0.1723(2) 0.0636(2) 0.9155(2)
Co2_3 Co -0.0000 1.0000 -0.0000
Co3 Co 0.10216(5) 0.81873(5) 0.23137(4)
C9 C 0.3894(4) 0.9831(4) 0.4020(3)
H4 H 0.3395 0.9329 0.3871
H5 H 0.4460 0.9345 0.4620
H7 H 0.6345 0.9949 0.3311
H15 H 0.077(4) 0.796(3) 0.050(4)
O11 O 0.1063(2) 0.8482(2) 0.0627(2)
N15 N 0.1509(3) 0.6364(3) 0.3009(3)
O27 O 0.0422(3) 0.8175(3) 0.3814(2)
O29 O 0.2770(2) 0.8520(3) 0.2294(2)
Co2_4 Co -0.0000 1.0000 1.0000
Co9 Co 0.24955(5) 0.88467(5) 0.94841(4)
Co2_5 Co 1.0000 0.0000 -0.0000
C2 C 0.9478(4) 0.1363(4) 0.3607(3)
H1 H 0.8655 0.1553 0.3440
C3 C 0.9939(4) 0.1533(4) 0.4503(3)
C7 C 0.9705(3) 0.0690(4) 0.2020(3)
C8 C 0.9092(4) 0.1919(4) 0.5283(3)
O2 O 0.8611(2) 0.1044(3) 0.1801(2)
O3 O 0.8016(3) 0.2240(4) 0.5016(3)
O4 O 0.9578(3) 0.1825(3) 0.6186(2)
O12 O 0.7096(3) 0.3004(3) 0.0045(3)
Co16 Co 0.89784(5) 0.18127(5) 0.76863(4)
Co2_6 Co 1.0000 0.0000 1.0000
C12 C 0.5105(3) 0.1842(4) 0.7682(3)
C13 C 0.4007(4) 0.1538(4) 0.8252(3)
H8 H 0.3994 0.1103 0.9041
C14 C 0.2937(3) 0.1883(4) 0.7647(3)
C15 C 0.2942(4) 0.2568(4) 0.6464(3)
H9 H 0.2218 0.2824 0.6062
C16 C 0.4044(4) 0.2857(4) 0.5903(3)
C17 C 0.5117(4) 0.2492(4) 0.6502(3)
H10 H 0.5852 0.2681 0.6115
C18 C 0.6299(3) 0.1482(4) 0.8305(3)
C19 C 0.1727(3) 0.1549(4) 0.8227(3)
C20 C 0.3278(4) 0.3599(4) 0.3977(3)
H11 H 0.2848 0.2910 0.4303
H12 H 0.3661 0.3627 0.3266
C21 C 0.0822(5) 0.5606(5) 0.3782(5)
H13 H 0.0039 0.5824 0.3973
C22 C 0.2498(4) 0.5702(4) 0.3003(4)
H14 H 0.3176 0.5962 0.2543
N4 N 0.2416(3) 0.4613(3) 0.3734(3)
N5 N 0.1323(4) 0.4538(4) 0.4253(5)
O6 O 0.7230(2) 0.1480(3) 0.7706(2)
O7 O 0.6252(2) 0.1230(3) 0.9363(2)
O9 O 0.0814(2) 0.2200(3) 0.7755(2)
O10 O 0.4179(3) 0.3519(3) 0.4740(2)
H16 H 0.777(2) 0.329(4) 0.990(5)
H17 H 0.647(3) 0.347(4) 0.976(5)
O32 O 0.8937(2) 0.1518(2) 0.9373(2)
Co2_7 Co 1.0000 1.0000 -0.0000
C34 C 0.4895(3) 0.8158(4) 0.2318(3)
C35 C 0.5993(4) 0.8462(4) 0.1748(3)
H25 H 0.6006 0.8897 0.0959
C36 C 0.7063(3) 0.8117(4) 0.2353(3)
C37 C 0.7058(4) 0.7432(4) 0.3536(3)
H26 H 0.7782 0.7176 0.3938
C38 C 0.5956(4) 0.7143(4) 0.4097(3)
C39 C 0.4883(4) 0.7508(4) 0.3498(3)
H27 H 0.4148 0.7319 0.3885
C40 C 0.3701(3) 0.8518(4) 0.1695(3)
C41 C 0.8273(3) 0.8451(4) 0.1773(3)
C42 C 0.6722(4) 0.6401(4) 0.6023(3)
H28 H 0.7152 0.7090 0.5697
H29 H 0.6339 0.6373 0.6734
C43 C 0.9178(5) 0.4394(5) 0.6218(5)
H30 H 0.9961 0.4176 0.6027
C44 C 0.7502(4) 0.4298(4) 0.6997(4)
H31 H 0.6824 0.4038 0.7457
N10 N 0.7584(3) 0.5387(3) 0.6266(3)
N11 N 0.8677(4) 0.5462(4) 0.5747(5)
N12 N 0.8491(3) 0.3636(3) 0.6991(3)
O19 O 0.3748(2) 0.8770(3) 0.0637(2)
O20 O 0.8277(2) 0.9364(2) 0.0845(2)
O21 O 0.9186(2) 0.7800(3) 0.2245(2)
O22 O 0.5821(3) 0.6481(3) 0.5260(2)
H33 H 0.223(2) 0.671(4) 0.010(5)
H34 H 0.353(3) 0.653(4) 0.024(5)
Co2_8 Co 1.0000 1.0000 1.0000
C24 C 0.0522(4) 0.8637(4) 0.6393(3)
H18 H 0.1345 0.8447 0.6560
C25 C 0.0061(4) 0.8467(4) 0.5497(3)
C29 C 0.0295(3) 0.9310(4) 0.7980(3)
C30 C 0.0908(4) 0.8081(4) 0.4717(3)
O14 O 0.1389(2) 0.8956(3) 0.8199(2)
O15 O 0.1984(3) 0.7760(4) 0.4984(3)
O24 O 0.2904(3) 0.6996(3) 0.9955(3)
N14 N 0.4020(3) 0.9025(3) 0.8336(3)
O25 O 0.9606(2) 0.9828(3) 0.8488(2)
C31 C 0.6106(4) 0.0169(4) 0.5980(3)
H21 H 0.6605 0.0671 0.6129
H22 H 0.5540 0.0655 0.5380
H24 H 0.3655 0.0051 0.6689
H32 H 0.923(4) 0.204(3) 0.950(4)
C23 C 0.9761(4) 0.9089(4) 0.7043(3)
C26 C 0.8833(4) 0.8750(4) 0.5256(3)
H19 H 0.8515 0.8649 0.4649
C27 C 0.8082(4) 0.9183(4) 0.5922(3)
C28 C 0.8533(4) 0.9364(4) 0.6809(3)
H20 H 0.8020 0.9665 0.7243
C32 C 0.5144(4) 0.8561(5) 0.8757(4)
H23 H 0.5276 0.8077 0.9525
C33 C 0.4243(4) 0.9624(4) 0.7234(4)
N7 N 0.5432(3) 0.9531(3) 0.7016(3)
N8 N 0.6022(3) 0.8846(4) 0.8002(3)
O17 O 0.6851(2) 0.9417(3) 0.5604(2)
loop_
_geom_bond_atom_site_label_1
_geom_bond_atom_site_label_2
_geom_bond_site_symmetry_1
_geom_bond_site_symmetry_2
Co2 O1 1_555 1_555
H2 C4 1_555 1_555
C5 C4 1_555 1_555
C6 C1 1_555 1_555
H3 C6 1_555 1_555
C10 H6 1_555 1_555
N2 C10 1_555 1_555
N3 C10 1_555 1_555
O5 C5 1_555 1_555
Co7 N3 1_555 1_555
C5 C6 1_555 1_555
C11 N1 1_555 1_555
C11 N3 1_555 1_555
N1 N2 1_555 1_555
O30 Co2_2 1_555 1_555
C9 H4 1_555 1_555
H5 C9 1_555 1_555
H15 O11 1_555 1_555
O11 Co2_3 1_555 1_555
N15 Co3 1_555 1_555
O27 Co3 1_555 1_555
O29 Co3 1_555 1_555
Co3 O11 1_555 1_555
Co7 O2 1_555 1_555
C2 H1 1_555 1_555
C3 C2 1_555 1_555
C8 C3 1_555 1_555
O2 C7 1_555 1_555
O3 C8 1_555 1_555
O4 C8 1_555 1_555
O12 Co7 1_555 1_555
Co16 O4 1_555 1_555
C12 C13 1_555 1_555
C13 H8 1_555 1_555
C14 C13 1_555 1_555
C15 C14 1_555 1_555
H9 C15 1_555 1_555
C16 C15 1_555 1_555
C17 C12 1_555 1_555
H10 C17 1_555 1_555
C18 C12 1_555 1_555
C19 C14 1_555 1_555
C20 H11 1_555 1_555
H12 C20 1_555 1_555
C21 H13 1_555 1_555
C22 H14 1_555 1_555
N4 C20 1_555 1_555
N5 C21 1_555 1_555
N15 C21 1_555 1_555
O6 C18 1_555 1_555
O30 C19 1_555 1_555
O9 C19 1_555 1_555
O10 C16 1_555 1_555
Co16 O6 1_555 1_555
Co2_6 O32 1_555 1_555
C16 C17 1_555 1_555
C18 O7 1_555 1_555
C20 O10 1_555 1_555
C22 N4 1_555 1_555
C22 N15 1_555 1_555
N4 N5 1_555 1_555
Co16 O32 1_555 1_555
C34 C35 1_555 1_555
C35 H25 1_555 1_555
C36 C35 1_555 1_555
C37 C36 1_555 1_555
H26 C37 1_555 1_555
C38 C37 1_555 1_555
C39 C34 1_555 1_555
H27 C39 1_555 1_555
C40 C34 1_555 1_555
C41 C36 1_555 1_555
C42 H28 1_555 1_555
H29 C42 1_555 1_555
C43 H30 1_555 1_555
C44 H31 1_555 1_555
N10 C42 1_555 1_555
N11 C43 1_555 1_555
N12 C43 1_555 1_555
O29 C40 1_555 1_555
O22 C38 1_555 1_555
Co16 N12 1_555 1_555
Co2_7 O20 1_555 1_555
C38 C39 1_555 1_555
C40 O19 1_555 1_555
C41 O20 1_555 1_555
C41 O21 1_555 1_555
C42 O22 1_555 1_555
C44 N10 1_555 1_555
C44 N12 1_555 1_555
N10 N11 1_555 1_555
C24 H18 1_555 1_555
C25 C24 1_555 1_555
C30 C25 1_555 1_555
O14 Co9 1_555 1_555
O15 C30 1_555 1_555
O27 C30 1_555 1_555
O24 Co9 1_555 1_555
N14 Co9 1_555 1_555
O25 Co2_8 1_555 1_555
C29 O14 1_555 1_555
C31 H21 1_555 1_555
H22 C31 1_555 1_555
H32 O32 1_555 1_555
H19 C26 1_555 1_555
C27 C26 1_555 1_555
C28 C23 1_555 1_555
H20 C28 1_555 1_555
C32 H23 1_555 1_555
N8 C32 1_555 1_555
N14 C32 1_555 1_555
O17 C27 1_555 1_555
C27 C28 1_555 1_555
C33 N7 1_555 1_555
C33 N14 1_555 1_555
N7 N8 1_555 1_555

#END
