
###############################################################################
#
# This file contains modified crystal structure data generated from the
# MOF subset of the Cambridge Structural Database (CSD) v543 
# hosted by the Cambridge Crystallographic Data Centre (CCDC).
#
# This work is licensed under the Creative Commons
# Attribution-NonCommercial-ShareAlike 4.0 International License.
# To view a copy of this license, visit
# http://creativecommons.org/licenses/by-nc-sa/4.0/
# or send a letter to
# Creative Commons, PO Box 1866, Mountain View, CA 94042, USA.
#
# CIF created using the CSD Python API on 29 September 2022
# The structure has been converted into the P1 space group
# The structure has a 3D framework
# The original CSD entry SIXWON is in the tetragonal crystal system
# The framework has been calculated to contain at least 10.0% void space
# The void calculation uses a probe of radius 1.32A, grid spacing 0.4
#
###############################################################################

data_SIXWON
_chemical_formula_moiety         '(C92 H64 N4 O26 Zn8)n'
_symmetry_cell_setting           triclinic
_symmetry_space_group_name_H-M   'P 1'
_symmetry_Int_Tables_number      1
_space_group_name_Hall           'P 1'
loop_
_symmetry_equiv_pos_site_id
_symmetry_equiv_pos_as_xyz
1 x,y,z
_cell_length_a                   13.620(7)
_cell_length_b                   13.620(7)
_cell_length_c                   24.185(18)
_cell_angle_alpha                90
_cell_angle_beta                 90
_cell_angle_gamma                90
_cell_volume                     4486.42
loop_
_atom_site_label
_atom_site_type_symbol
_atom_site_fract_x
_atom_site_fract_y
_atom_site_fract_z
O5 O 0.0573(3) 0.3618(3) 0.78863(19)
O6 O 0.1386(3) 0.4583(3) 0.7316(2)
C14 C 0.0761(5) 0.4430(5) 0.7682(3)
C15 C 0.0134(4) 0.5292(5) 0.7849(2)
C16 C 0.0255(4) 0.6210(5) 0.7620(3)
H9 H 0.0725 0.6292 0.7345
Zn6 Zn 0.13328(5) 0.24112(5) 0.79626(3)
Zn12 Zn 0.24112(5) 0.36672(5) 0.70374(3)
Zn1 Zn 0.36672(5) 0.25888(5) 0.79626(3)
O1 O 0.4427(3) 0.1382(3) 0.78863(19)
O2 O 0.3614(3) 0.0417(3) 0.7316(2)
O4 O 0.2500 0.2500 0.7500
C1 C 0.4239(5) 0.0570(5) 0.7682(3)
H4 H 0.5638 0.0450 0.8427
Zn3 Zn 0.25888(5) 0.13328(5) 0.70374(3)
O8 O 0.1382(3) 0.0573(3) 0.71137(19)
O9 O 0.0417(3) 0.1386(3) 0.7684(2)
C24 C 0.0570(5) 0.0761(5) 0.7318(3)
O16 O 0.4583(3) 0.3614(3) 0.7684(2)
O17 O 0.2693(5) 0.1650(5) 0.6285(2)
O19 O 0.3350(5) 0.2693(5) 0.8715(2)
O20 O 0.1650(5) 0.2307(5) 0.8715(2)
O3 O 0.6650(5) 0.7307(5) 0.1285(2)
C11 C 0.6597(6) 0.7407(6) 0.0132(3)
H8 H 0.6013 0.7334 0.0327
C12 C 0.7500 0.7500 0.0414(5)
C13 C 0.7500 0.7500 0.1055(5)
O7 O 0.8350(5) 0.7693(5) 0.1285(2)
C23 C 0.8403(6) 0.7593(6) 0.0132(3)
H16 H 0.8987 0.7666 0.0327
Zn9 Zn 0.63328(5) 0.74112(5) 0.20374(3)
Zn10 Zn 0.86672(5) 0.75888(5) 0.20374(3)
N2 N 0.7500 0.7500 0.6318(4)
O10 O 0.7307(5) 0.8350(5) 0.3715(2)
C27 C 0.7989(5) 0.9709(5) 0.7218(3)
H18 H 0.7375 0.9828 0.7373
C28 C 0.8107(5) 0.8977(5) 0.6819(3)
C29 C 0.9043(5) 0.8817(5) 0.6595(3)
H19 H 0.9141 0.8306 0.6346
C30 C 0.9844(6) 0.9431(5) 0.6745(3)
C31 C 0.7250(5) 0.8361(5) 0.6636(3)
H21 H 0.6815 0.8768 0.6416
H22 H 0.6888 0.8154 0.6961
C32 C 0.7500 0.7500 0.5723(5)
C33 C 0.7427(6) 0.8403(6) 0.5441(3)
H23 H 0.7393 0.8990 0.5636
C34 C 0.7407(6) 0.8403(6) 0.4868(3)
H24 H 0.7334 0.8987 0.4673
C35 C 0.7500 0.7500 0.4586(5)
C36 C 0.7500 0.7500 0.3945(5)
O11 O 0.3618(3) 0.4427(3) 0.71137(19)
O13 O 0.7693(5) 0.6650(5) 0.3715(2)
C37 C 0.4430(5) 0.4239(5) 0.7318(3)
C38 C 0.5292(5) 0.4866(4) 0.7151(2)
C39 C 0.6210(5) 0.4745(4) 0.7380(3)
H25 H 0.6292 0.4275 0.7655
C40 C 0.7011(5) 0.5291(5) 0.7218(3)
H26 H 0.7625 0.5172 0.7373
C41 C 0.6893(5) 0.6023(5) 0.6819(3)
C42 C 0.5957(5) 0.6183(5) 0.6595(3)
H27 H 0.5859 0.6694 0.6346
C43 C 0.5156(6) 0.5569(5) 0.6745(3)
H28 H 0.4550 0.5638 0.6573
C44 C 0.7750(5) 0.6639(5) 0.6636(3)
H29 H 0.8185 0.6232 0.6416
H30 H 0.8112 0.6846 0.6961
C45 C 0.7573(6) 0.6597(6) 0.5441(3)
H31 H 0.7607 0.6010 0.5636
C46 C 0.7593(6) 0.6597(6) 0.4868(3)
H32 H 0.7666 0.6013 0.4673
Zn7 Zn 0.74112(5) 0.86672(5) 0.29626(3)
Zn8 Zn 0.75888(5) 0.63328(5) 0.29626(3)
O18 O 0.2307(5) 0.3350(5) 0.6285(2)
N1 N 0.2500 0.2500 0.3682(4)
C4 C 0.2011(5) 0.0291(5) 0.2782(3)
H2 H 0.2625 0.0172 0.2627
C5 C 0.1893(5) 0.1023(5) 0.3181(3)
C6 C 0.0957(5) 0.1183(5) 0.3405(3)
H3 H 0.0859 0.1694 0.3654
C7 C 0.0156(6) 0.0569(5) 0.3255(3)
C8 C 0.2750(5) 0.1639(5) 0.3364(3)
H5 H 0.3185 0.1232 0.3584
H6 H 0.3112 0.1846 0.3039
C9 C 0.2500 0.2500 0.4277(5)
C10 C 0.2573(6) 0.1597(6) 0.4559(3)
H7 H 0.2607 0.1010 0.4364
C11_2 C 0.2593(6) 0.1597(6) 0.5132(3)
H8_2 H 0.2666 0.1013 0.5327
C12_2 C 0.2500 0.2500 0.5414(5)
C13_2 C 0.2500 0.2500 0.6055(5)
O5_2 O 0.6382(3) 0.5573(3) 0.28863(19)
O6_2 O 0.5417(3) 0.6386(3) 0.2316(2)
C14_2 C 0.5570(5) 0.5761(5) 0.2682(3)
C15_2 C 0.4708(5) 0.5134(4) 0.2849(2)
C16_2 C 0.3790(5) 0.5255(4) 0.2620(3)
H9_2 H 0.3708 0.5725 0.2345
C17 C 0.2989(5) 0.4709(5) 0.2782(3)
H10 H 0.2375 0.4828 0.2627
C18 C 0.3107(5) 0.3977(5) 0.3181(3)
C19 C 0.4043(5) 0.3817(5) 0.3405(3)
H11 H 0.4141 0.3306 0.3654
C20 C 0.4844(6) 0.4431(5) 0.3255(3)
H12 H 0.5450 0.4362 0.3427
C21 C 0.2250(5) 0.3361(5) 0.3364(3)
H13 H 0.1815 0.3768 0.3584
H14 H 0.1888 0.3154 0.3039
C22 C 0.2427(6) 0.3403(6) 0.4559(3)
H15 H 0.2393 0.3990 0.4364
C23_2 C 0.2407(6) 0.3403(6) 0.5132(3)
H16_2 H 0.2334 0.3987 0.5327
C34_2 C 0.1597(6) 0.2407(6) 0.9868(3)
H24_2 H 0.1013 0.2334 0.9673
C35_2 C 0.2500 0.2500 0.9586(5)
C36_2 C 0.2500 0.2500 0.8945(5)
C46_2 C 0.3403(6) 0.2593(6) 0.9868(3)
H32_2 H 0.3987 0.2666 0.9673
O11_2 O 0.5573(3) 0.8618(3) 0.21137(19)
O12 O 0.6386(3) 0.9583(3) 0.2684(2)
C37_2 C 0.5761(5) 0.9430(5) 0.2318(3)
H28_2 H 0.4362 0.9550 0.1573
O21 O 0.7500 0.7500 0.2500
O1_2 O 0.8618(3) 0.9427(3) 0.28863(19)
O2_2 O 0.9583(3) 0.8614(3) 0.2316(2)
C1_2 C 0.9430(5) 0.9239(5) 0.2682(3)
O8_2 O 0.9427(3) 0.6382(3) 0.21137(19)
O9_2 O 0.8614(3) 0.5417(3) 0.2684(2)
C24_2 C 0.9239(5) 0.5570(5) 0.2318(3)
C25 C 0.9866(4) 0.4708(5) 0.2151(2)
C26 C 0.9745(4) 0.3790(5) 0.2380(3)
H17 H 0.9275 0.3708 0.2655
N1_2 N 0.7500 0.7500 0.8682(4)
C2 C 0.4866(4) 0.9708(5) 0.7849(2)
C3 C 0.4745(4) 0.8790(5) 0.7620(3)
H1 H 0.4275 0.8708 0.7345
C4_2 C 0.5291(5) 0.7989(5) 0.7782(3)
H2_2 H 0.5172 0.7375 0.7627
C5_2 C 0.6023(5) 0.8107(5) 0.8181(3)
C6_2 C 0.6183(5) 0.9043(5) 0.8405(3)
H3_2 H 0.6694 0.9141 0.8654
C7_2 C 0.5569(5) 0.9844(6) 0.8255(3)
C8_2 C 0.6639(5) 0.7250(5) 0.8364(3)
H5_2 H 0.6232 0.6815 0.8584
H6_2 H 0.6846 0.6888 0.8039
C9_2 C 0.7500 0.7500 0.9277(5)
C10_2 C 0.6597(6) 0.7427(6) 0.9559(3)
H7_2 H 0.6010 0.7393 0.9364
C17_2 C 0.9709(5) 0.7011(5) 0.7782(3)
H10_2 H 0.9828 0.7625 0.7627
C18_2 C 0.8977(5) 0.6893(5) 0.8181(3)
C19_2 C 0.8817(5) 0.5957(5) 0.8405(3)
H11_2 H 0.8306 0.5859 0.8654
C20_2 C 0.9431(5) 0.5156(6) 0.8255(3)
H12_2 H 0.9362 0.4550 0.8427
C21_2 C 0.8361(5) 0.7750(5) 0.8364(3)
H13_2 H 0.8768 0.8185 0.8584
H14_2 H 0.8154 0.8112 0.8039
C22_2 C 0.8403(6) 0.7573(6) 0.9559(3)
H15_2 H 0.8990 0.7607 0.9364
H20 H 0.0450 0.9362 0.6573
C25_2 C 0.9708(5) 0.0134(4) 0.7151(2)
C26_2 C 0.8790(5) 0.0255(4) 0.7380(3)
H17_2 H 0.8708 0.0725 0.7655
C2_2 C 0.0292(5) 0.9866(4) 0.2849(2)
C3_2 C 0.1210(5) 0.9745(4) 0.2620(3)
H1_2 H 0.1292 0.9275 0.2345
N2_2 N 0.2500 0.2500 0.1318(4)
C27_2 C 0.0291(5) 0.2989(5) 0.2218(3)
H18_2 H 0.0172 0.2375 0.2373
C28_2 C 0.1023(5) 0.3107(5) 0.1819(3)
C29_2 C 0.1183(5) 0.4043(5) 0.1595(3)
H19_2 H 0.1694 0.4141 0.1346
C30_2 C 0.0569(5) 0.4844(6) 0.1745(3)
H20_2 H 0.0638 0.5450 0.1573
C31_2 C 0.1639(5) 0.2250(5) 0.1636(3)
H21_2 H 0.1232 0.1815 0.1416
H22_2 H 0.1846 0.1888 0.1961
C32_2 C 0.2500 0.2500 0.0723(5)
C33_2 C 0.1597(6) 0.2427(6) 0.0441(3)
H23_2 H 0.1010 0.2393 0.0636
C38_2 C 0.5134(4) 0.0292(5) 0.2151(2)
C39_2 C 0.5255(4) 0.1210(5) 0.2380(3)
H25_2 H 0.5725 0.1292 0.2655
C40_2 C 0.4709(5) 0.2011(5) 0.2218(3)
H26_2 H 0.4828 0.2625 0.2373
C41_2 C 0.3977(5) 0.1893(5) 0.1819(3)
C42_2 C 0.3817(5) 0.0957(5) 0.1595(3)
H27_2 H 0.3306 0.0859 0.1346
C43_2 C 0.4431(5) 0.0156(6) 0.1745(3)
C44_2 C 0.3361(5) 0.2750(5) 0.1636(3)
H29_2 H 0.3768 0.3185 0.1416
H30_2 H 0.3154 0.3112 0.1961
C45_2 C 0.3403(6) 0.2573(6) 0.0441(3)
H31_2 H 0.3990 0.2607 0.0636
H4_2 H 0.9550 0.0638 0.3427
loop_
_geom_bond_atom_site_label_1
_geom_bond_atom_site_label_2
_geom_bond_site_symmetry_1
_geom_bond_site_symmetry_2
O5 C14 1_555 1_555
O6 C14 1_555 1_555
C14 C15 1_555 1_555
C15 C16 1_555 1_555
C16 H9 1_555 1_555
Zn6 O5 1_555 1_555
Zn12 O6 1_555 1_555
Zn1 O1 1_555 1_555
O1 C1 1_555 1_555
O2 C1 1_555 1_555
O4 Zn1 1_555 1_555
Zn6 O4 1_555 1_555
Zn3 O2 1_555 1_555
O8 Zn3 1_555 1_555
O9 Zn6 1_555 1_555
C24 O8 1_555 1_555
Zn12 O4 1_555 1_555
O16 Zn1 1_555 1_555
O17 Zn3 1_555 1_555
O19 Zn1 1_555 1_555
O20 Zn6 1_555 1_555
O4 Zn3 1_555 1_555
O9 C24 1_555 1_555
O3 C13 1_555 1_555
H8 C11 1_555 1_555
C12 C11 1_555 1_555
C13 C12 1_555 1_555
O7 C13 1_555 1_555
C23 C12 1_555 1_555
H16 C23 1_555 1_555
Zn9 O3 1_555 1_555
Zn10 O7 1_555 1_555
N2 C31 1_555 1_555
O10 C36 1_555 1_555
H18 C27 1_555 1_555
C28 C27 1_555 1_555
C29 C28 1_555 1_555
H19 C29 1_555 1_555
C31 C28 1_555 1_555
H21 C31 1_555 1_555
H22 C31 1_555 1_555
C32 N2 1_555 1_555
C33 C32 1_555 1_555
H23 C33 1_555 1_555
C34 C33 1_555 1_555
H24 C34 1_555 1_555
C35 C34 1_555 1_555
C36 C35 1_555 1_555
O11 C37 1_555 1_555
O16 C37 1_555 1_555
O13 C36 1_555 1_555
C37 C38 1_555 1_555
C38 C39 1_555 1_555
C39 H25 1_555 1_555
C40 C39 1_555 1_555
H26 C40 1_555 1_555
C41 C40 1_555 1_555
C42 C41 1_555 1_555
H27 C42 1_555 1_555
C43 C38 1_555 1_555
H28 C43 1_555 1_555
C44 N2 1_555 1_555
H29 C44 1_555 1_555
H30 C44 1_555 1_555
C45 C32 1_555 1_555
H31 C45 1_555 1_555
C46 C35 1_555 1_555
H32 C46 1_555 1_555
Zn12 O11 1_555 1_555
Zn7 O10 1_555 1_555
Zn8 O13 1_555 1_555
O18 Zn12 1_555 1_555
C29 C30 1_555 1_555
C41 C44 1_555 1_555
C42 C43 1_555 1_555
C45 C46 1_555 1_555
N1 C8 1_555 1_555
O17 C13_2 1_555 1_555
H2 C4 1_555 1_555
C5 C4 1_555 1_555
C6 C5 1_555 1_555
H3 C6 1_555 1_555
C8 C5 1_555 1_555
H5 C8 1_555 1_555
H6 C8 1_555 1_555
C9 N1 1_555 1_555
C10 C9 1_555 1_555
H7 C10 1_555 1_555
C11_2 C10 1_555 1_555
H8_2 C11_2 1_555 1_555
C12_2 C11_2 1_555 1_555
C13_2 C12_2 1_555 1_555
O5_2 C14_2 1_555 1_555
O6_2 C14_2 1_555 1_555
O18 C13_2 1_555 1_555
C14_2 C15_2 1_555 1_555
C15_2 C16_2 1_555 1_555
C16_2 H9_2 1_555 1_555
C17 C16_2 1_555 1_555
H10 C17 1_555 1_555
C18 C17 1_555 1_555
C19 C18 1_555 1_555
H11 C19 1_555 1_555
C20 C15_2 1_555 1_555
H12 C20 1_555 1_555
C21 N1 1_555 1_555
H13 C21 1_555 1_555
H14 C21 1_555 1_555
C22 C9 1_555 1_555
H15 C22 1_555 1_555
C23_2 C12_2 1_555 1_555
H16_2 C23_2 1_555 1_555
Zn8 O5_2 1_555 1_555
Zn9 O6_2 1_555 1_555
C6 C7 1_555 1_555
C18 C21 1_555 1_555
C19 C20 1_555 1_555
C22 C23_2 1_555 1_555
O20 C36_2 1_555 1_555
H24_2 C34_2 1_555 1_555
C35_2 C34_2 1_555 1_555
C36_2 C35_2 1_555 1_555
O19 C36_2 1_555 1_555
C46_2 C35_2 1_555 1_555
H32_2 C46_2 1_555 1_555
O11_2 C37_2 1_555 1_555
O12 C37_2 1_555 1_555
Zn9 O11_2 1_555 1_555
Zn7 O12 1_555 1_555
O21 Zn9 1_555 1_555
Zn7 O21 1_555 1_555
Zn7 O1_2 1_555 1_555
O1_2 C1_2 1_555 1_555
O2_2 C1_2 1_555 1_555
Zn8 O21 1_555 1_555
Zn10 O2_2 1_555 1_555
O8_2 Zn10 1_555 1_555
O9_2 Zn8 1_555 1_555
C24_2 O8_2 1_555 1_555
C25 C24_2 1_555 1_555
C26 C25 1_555 1_555
H17 C26 1_555 1_555
O21 Zn10 1_555 1_555
O9_2 C24_2 1_555 1_555
N1_2 C8_2 1_555 1_555
C2 C3 1_555 1_555
C3 H1 1_555 1_555
C4_2 C3 1_555 1_555
H2_2 C4_2 1_555 1_555
C5_2 C4_2 1_555 1_555
C6_2 C5_2 1_555 1_555
H3_2 C6_2 1_555 1_555
C7_2 C2 1_555 1_555
C8_2 C5_2 1_555 1_555
H5_2 C8_2 1_555 1_555
H6_2 C8_2 1_555 1_555
C9_2 N1_2 1_555 1_555
C10_2 C9_2 1_555 1_555
H7_2 C10_2 1_555 1_555
H10_2 C17_2 1_555 1_555
C18_2 C17_2 1_555 1_555
C19_2 C18_2 1_555 1_555
H11_2 C19_2 1_555 1_555
H12_2 C20_2 1_555 1_555
C21_2 N1_2 1_555 1_555
H13_2 C21_2 1_555 1_555
H14_2 C21_2 1_555 1_555
C22_2 C9_2 1_555 1_555
H15_2 C22_2 1_555 1_555
C6_2 C7_2 1_555 1_555
C18_2 C21_2 1_555 1_555
C19_2 C20_2 1_555 1_555
C26_2 C25_2 1_555 1_555
H17_2 C26_2 1_555 1_555
C2_2 C3_2 1_555 1_555
C3_2 H1_2 1_555 1_555
N2_2 C31_2 1_555 1_555
H18_2 C27_2 1_555 1_555
C28_2 C27_2 1_555 1_555
C29_2 C28_2 1_555 1_555
H19_2 C29_2 1_555 1_555
H20_2 C30_2 1_555 1_555
C31_2 C28_2 1_555 1_555
H21_2 C31_2 1_555 1_555
H22_2 C31_2 1_555 1_555
C32_2 N2_2 1_555 1_555
C33_2 C32_2 1_555 1_555
H23_2 C33_2 1_555 1_555
C38_2 C39_2 1_555 1_555
C39_2 H25_2 1_555 1_555
C40_2 C39_2 1_555 1_555
H26_2 C40_2 1_555 1_555
C41_2 C40_2 1_555 1_555
C42_2 C41_2 1_555 1_555
H27_2 C42_2 1_555 1_555
C43_2 C38_2 1_555 1_555
C44_2 N2_2 1_555 1_555
H29_2 C44_2 1_555 1_555
H30_2 C44_2 1_555 1_555
C45_2 C32_2 1_555 1_555
H31_2 C45_2 1_555 1_555
C29_2 C30_2 1_555 1_555
C41_2 C44_2 1_555 1_555
C42_2 C43_2 1_555 1_555

#END
