
###############################################################################
#
# This file contains modified crystal structure data generated from the
# MOF subset of the Cambridge Structural Database (CSD) v543 
# hosted by the Cambridge Crystallographic Data Centre (CCDC).
#
# This work is licensed under the Creative Commons
# Attribution-NonCommercial-ShareAlike 4.0 International License.
# To view a copy of this license, visit
# http://creativecommons.org/licenses/by-nc-sa/4.0/
# or send a letter to
# Creative Commons, PO Box 1866, Mountain View, CA 94042, USA.
#
# CIF created using the CSD Python API on 29 September 2022
# The structure has been converted into the P1 space group
# The structure has a 3D framework
# The original CSD entry SOBDOF is in the hexagonal crystal system
# The original CSD entry SOBDOF is in a Sohncke space group
# The framework has been calculated to contain at least 10.0% void space
# The void calculation uses a probe of radius 1.32A, grid spacing 0.4
# H atom positions have been added when not included in the experimental data
# Generated hydrogen atom positions removed from atoms on special positions
#
###############################################################################

data_SOBDOF
_chemical_formula_moiety         '(C42 H42 Mn6 N6 O22)n'
_symmetry_cell_setting           triclinic
_symmetry_space_group_name_H-M   'P 1'
_symmetry_Int_Tables_number      1
_space_group_name_Hall           'P 1'
loop_
_symmetry_equiv_pos_site_id
_symmetry_equiv_pos_as_xyz
1 x,y,z
_cell_length_a                   11.6431(3)
_cell_length_b                   11.6431(3)
_cell_length_c                   14.9542(10)
_cell_angle_alpha                90
_cell_angle_beta                 90
_cell_angle_gamma                120
_cell_volume                     1755.62
loop_
_atom_site_label
_atom_site_type_symbol
_atom_site_fract_x
_atom_site_fract_y
_atom_site_fract_z
O2 O 0.0166(4) 0.3881(5) 0.7189(3)
O5 O 0.0166(4) 0.6285(6) 0.4478(3)
Mn2 Mn 0.19330(11) 0.38660(10) 0.7500
Mn5 Mn 0.19330(5) 0.80670(11) 0.4166
C1 C 0.6837(5) 0.2773(6) 0.6417(3)
H1 H 0.6370 0.2066 0.6807
C2 C 0.8205(5) 0.3464(6) 0.6466(3)
C3 C 0.8895(7) 0.4448(3) 0.5833
H2 H 0.9818 0.4909 0.5833
C4 C 0.8944(5) 0.3168(6) 0.7189(3)
Mn1 Mn 0.38660(10) 0.19330(5) 0.5833
N1 N 0.6147(6) 0.3074(3) 0.5833
O1 O 0.8241(4) 0.2248(4) 0.7723(3)
O3 O 0.1678(7) 0.0839(3) 0.5833
C5 C 0.6837(5) 0.4064(8) 0.5250(3)
H3 H 0.6370 0.4304 0.4860
C6 C 0.8205(5) 0.4741(8) 0.5201(3)
C7 C 0.8944(5) 0.5776(8) 0.4478(3)
O4 O 0.8241(4) 0.5993(6) 0.3944(3)
Mn3 Mn 0.80670(5) 0.19330(11) 0.9166
Mn4 Mn 0.80670(11) 0.61340(10) 0.2500
O6 O 0.4007(6) 0.1759(4) 0.4390(3)
O7 O 0.4007(6) 0.2248(4) 0.7277(3)
O8 O 0.3881(5) 0.3715(6) 0.5522(3)
O9 O 0.3881(5) 0.0166(4) 0.6144(3)
O2_2 O 0.6285(6) 0.0166(4) 0.8856(3)
Mn3_2 Mn 0.61340(12) 0.80670(5) 0.0833
C1_2 C 0.4064(8) 0.6837(5) 0.8084(3)
H1_2 H 0.4304 0.6370 0.8474
C2_2 C 0.4741(8) 0.8205(5) 0.8133(3)
C3_2 C 0.4447(8) 0.8895(7) 0.7500
H2_2 H 0.4909 0.9818 0.7500
C4_2 C 0.5776(8) 0.8944(5) 0.8856(3)
N1_2 N 0.3073(7) 0.6147(6) 0.7500
O1_2 O 0.5993(6) 0.8241(4) 0.9390(3)
O3_2 O 0.0839(8) 0.1678(7) 0.7500
C5_2 C 0.2773(9) 0.6837(5) 0.6916(3)
H3_2 H 0.2066 0.6370 0.6526
C6_2 C 0.3464(9) 0.8205(5) 0.6867(3)
C7_2 C 0.3168(9) 0.8944(5) 0.6144(3)
O4_2 O 0.2248(7) 0.8241(4) 0.5610(3)
O6_2 O 0.2248(7) 0.4007(6) 0.6056(3)
O7_2 O 0.1759(7) 0.4007(6) 0.8944(3)
O9_2 O 0.3715(6) 0.3881(5) 0.7811(3)
H1_3 H 0.7934 0.4304 0.0140
C4_3 C 0.6832(6) 0.5776(8) 0.0522(3)
O1_3 O 0.7752(4) 0.5993(6) 0.1056(3)
O2_3 O 0.6119(5) 0.6285(6) 0.0522(3)
O7_3 O 0.7752(4) 0.1759(7) 0.0610(3)
C1_3 C 0.7227(6) 0.4064(8) 0.9750(3)
C2_3 C 0.6536(6) 0.4741(8) 0.9799(3)
C3_3 C 0.5552(3) 0.4447(8) 0.9166
H2_3 H 0.5091 0.4909 0.9166
N1_3 N 0.6926(3) 0.3073(7) 0.9166
O3_3 O 0.9161(3) 0.0839(8) 0.9166
C5_3 C 0.5936(8) 0.2773(9) 0.8583(3)
H3_3 H 0.5696 0.2066 0.8193
C6_3 C 0.5259(8) 0.3464(9) 0.8534(3)
C7_3 C 0.4224(8) 0.3168(9) 0.7811(3)
O9_3 O 0.9834(4) 0.3715(6) 0.9478(3)
H5 H 0.921999 0.0569724 0.978701
C1_4 C 0.3163(5) 0.7227(6) 0.1417(3)
H1_4 H 0.3630 0.7934 0.1807
C2_4 C 0.1795(5) 0.6536(6) 0.1466(3)
C3_4 C 0.1105(7) 0.5552(3) 0.0833
H2_4 H 0.0182 0.5091 0.0833
C4_4 C 0.1056(5) 0.6832(6) 0.2189(3)
N1_4 N 0.3853(6) 0.6926(3) 0.0833
O1_4 O 0.1759(4) 0.7752(4) 0.2723(3)
O3_4 O 0.8322(7) 0.9161(3) 0.0833
C5_4 C 0.3163(5) 0.5936(8) 0.0250(3)
C6_4 C 0.1795(5) 0.5259(8) 0.0201(3)
O7_4 O 0.5993(6) 0.7752(4) 0.2277(3)
O9_4 O 0.6119(5) 0.9834(4) 0.1144(3)
H3_4 H 0.3630 0.5696 0.9860
C7_4 C 0.1056(5) 0.4224(8) 0.9478(3)
O2_4 O 0.9834(4) 0.6119(5) 0.2189(3)
C1_5 C 0.5936(8) 0.3163(5) 0.3084(3)
H1_5 H 0.5696 0.3630 0.3474
C2_5 C 0.5259(8) 0.1795(5) 0.3133(3)
C3_5 C 0.5553(8) 0.1105(7) 0.2500
H2_5 H 0.5091 0.0182 0.2500
C4_5 C 0.4224(8) 0.1056(5) 0.3856(3)
N1_5 N 0.6927(7) 0.3853(6) 0.2500
O3_5 O 0.9161(8) 0.8322(7) 0.2500
C5_5 C 0.7227(9) 0.3163(5) 0.1916(3)
H3_5 H 0.7934 0.3630 0.1526
C6_5 C 0.6536(9) 0.1795(5) 0.1867(3)
C7_5 C 0.6832(9) 0.1056(5) 0.1144(3)
O9_5 O 0.6285(6) 0.6119(5) 0.2811(3)
O2_5 O 0.3715(6) 0.9834(4) 0.3856(3)
C1_6 C 0.2773(6) 0.5936(8) 0.4750(3)
H1_6 H 0.2066 0.5696 0.5140
C2_6 C 0.3464(6) 0.5259(8) 0.4799(3)
C3_6 C 0.4448(3) 0.5553(8) 0.4166
H2_6 H 0.4909 0.5091 0.4166
C4_6 C 0.3168(6) 0.4224(8) 0.5522(3)
N1_6 N 0.3074(3) 0.6927(7) 0.4166
O3_6 O 0.0839(3) 0.9161(8) 0.4166
C5_6 C 0.4064(8) 0.7227(9) 0.3583(3)
H3_6 H 0.4304 0.7934 0.3193
C6_6 C 0.4741(8) 0.6536(9) 0.3534(3)
C7_6 C 0.5776(8) 0.6832(9) 0.2811(3)
H5_2 H 0.0780008 0.943028 0.478701
H5_3 H 0.0569724 0.921999 0.354632
H5_4 H 0.943028 0.0780008 0.854632
H4 H 0.134973 0.993191 0.559356
H4_2 H 0.00680882 0.141782 0.892689
H4_3 H 0.865027 0.00680882 0.0593557
H4_4 H 0.993191 0.858218 0.392689
H4_5 H 0.00680882 0.865027 0.273978
H4_6 H 0.141782 0.00680882 0.440644
H4_7 H 0.993191 0.134973 0.773978
H4_8 H 0.858218 0.993191 0.940644
loop_
_geom_bond_atom_site_label_1
_geom_bond_atom_site_label_2
_geom_bond_site_symmetry_1
_geom_bond_site_symmetry_2
Mn2 O2 1_555 1_555
Mn5 O5 1_555 1_555
C1 H1 1_555 1_555
C2 C1 1_555 1_555
C3 C2 1_555 1_555
H2 C3 1_555 1_555
C4 C2 1_555 1_555
Mn1 N1 1_555 1_555
N1 C1 1_555 1_555
O1 C4 1_555 1_555
O3 Mn1 1_555 1_555
C5 N1 1_555 1_555
H3 C5 1_555 1_555
C6 C3 1_555 1_555
C7 C6 1_555 1_555
O4 C7 1_555 1_555
Mn3 O1 1_555 1_555
Mn4 O4 1_555 1_555
O6 Mn1 1_555 1_555
O7 Mn1 1_555 1_555
O8 Mn1 1_555 1_555
O9 Mn1 1_555 1_555
C5 C6 1_555 1_555
Mn3 O2_2 1_555 1_555
C1_2 H1_2 1_555 1_555
C2_2 C1_2 1_555 1_555
C3_2 C2_2 1_555 1_555
H2_2 C3_2 1_555 1_555
C4_2 C2_2 1_555 1_555
Mn2 N1_2 1_555 1_555
N1_2 C1_2 1_555 1_555
O1_2 C4_2 1_555 1_555
O3_2 Mn2 1_555 1_555
C5_2 N1_2 1_555 1_555
H3_2 C5_2 1_555 1_555
C6_2 C3_2 1_555 1_555
C7_2 C6_2 1_555 1_555
O4_2 C7_2 1_555 1_555
Mn5 O4_2 1_555 1_555
O6_2 Mn2 1_555 1_555
O7_2 Mn2 1_555 1_555
O9_2 Mn2 1_555 1_555
C5_2 C6_2 1_555 1_555
O1_3 C4_3 1_555 1_555
O2_3 C4_3 1_555 1_555
Mn3_2 O2_3 1_555 1_555
Mn4 O1_3 1_555 1_555
C2_3 C1_3 1_555 1_555
C3_3 C2_3 1_555 1_555
H2_3 C3_3 1_555 1_555
Mn3 N1_3 1_555 1_555
N1_3 C1_3 1_555 1_555
O3_3 Mn3 1_555 1_555
C5_3 N1_3 1_555 1_555
H3_3 C5_3 1_555 1_555
C6_3 C3_3 1_555 1_555
C7_3 C6_3 1_555 1_555
O7 C7_3 1_555 1_555
O9_2 C7_3 1_555 1_555
O9_3 Mn3 1_555 1_555
C5_3 C6_3 1_555 1_555
O3_3 H5 1_555 1_555
C1_4 H1_4 1_555 1_555
C2_4 C1_4 1_555 1_555
C3_4 C2_4 1_555 1_555
H2_4 C3_4 1_555 1_555
C4_4 C2_4 1_555 1_555
Mn3_2 N1_4 1_555 1_555
N1_4 C1_4 1_555 1_555
O1_4 C4_4 1_555 1_555
O3_4 Mn3_2 1_555 1_555
C5_4 N1_4 1_555 1_555
C6_4 C3_4 1_555 1_555
Mn5 O1_4 1_555 1_555
O7_4 Mn3_2 1_555 1_555
O9_4 Mn3_2 1_555 1_555
C5_4 C6_4 1_555 1_555
O7_2 C7_4 1_555 1_555
Mn4 O2_4 1_555 1_555
C1_5 H1_5 1_555 1_555
C2_5 C1_5 1_555 1_555
C3_5 C2_5 1_555 1_555
H2_5 C3_5 1_555 1_555
C4_5 C2_5 1_555 1_555
Mn4 N1_5 1_555 1_555
N1_5 C1_5 1_555 1_555
O6 C4_5 1_555 1_555
O3_5 Mn4 1_555 1_555
C5_5 N1_5 1_555 1_555
H3_5 C5_5 1_555 1_555
C6_5 C3_5 1_555 1_555
C7_5 C6_5 1_555 1_555
O7_3 C7_5 1_555 1_555
O9_5 Mn4 1_555 1_555
C5_5 C6_5 1_555 1_555
Mn5 O2_5 1_555 1_555
C1_6 H1_6 1_555 1_555
C2_6 C1_6 1_555 1_555
C3_6 C2_6 1_555 1_555
H2_6 C3_6 1_555 1_555
C4_6 C2_6 1_555 1_555
Mn5 N1_6 1_555 1_555
N1_6 C1_6 1_555 1_555
O6_2 C4_6 1_555 1_555
O8 C4_6 1_555 1_555
O3_6 Mn5 1_555 1_555
C5_6 N1_6 1_555 1_555
H3_6 C5_6 1_555 1_555
C6_6 C3_6 1_555 1_555
C7_6 C6_6 1_555 1_555
O7_4 C7_6 1_555 1_555
O9_5 C7_6 1_555 1_555
C5_6 C6_6 1_555 1_555
O3_6 H5_2 1_555 1_555
O3_6 H5_3 1_555 1_555
O3_3 H5_4 1_555 1_555

#END
