
###############################################################################
#
# This file contains modified crystal structure data generated from the
# MOF subset of the Cambridge Structural Database (CSD) v543 
# hosted by the Cambridge Crystallographic Data Centre (CCDC).
#
# This work is licensed under the Creative Commons
# Attribution-NonCommercial-ShareAlike 4.0 International License.
# To view a copy of this license, visit
# http://creativecommons.org/licenses/by-nc-sa/4.0/
# or send a letter to
# Creative Commons, PO Box 1866, Mountain View, CA 94042, USA.
#
# CIF created using the CSD Python API on 29 September 2022
# The structure has been converted into the P1 space group
# The structure has a 3D framework
# The original CSD entry SOCNOQ is in the monoclinic crystal system
# The framework has been calculated to contain at least 10.0% void space
# The void calculation uses a probe of radius 1.32A, grid spacing 0.4
#
###############################################################################

data_SOCNOQ
_chemical_formula_moiety         '(C56 H56 N48 O4 Zn8)n'
_symmetry_cell_setting           triclinic
_symmetry_space_group_name_H-M   'P 1'
_symmetry_Int_Tables_number      1
_space_group_name_Hall           'P 1'
loop_
_symmetry_equiv_pos_site_id
_symmetry_equiv_pos_as_xyz
1 x,y,z
_cell_length_a                   10.4301(3)
_cell_length_b                   12.4754(5)
_cell_length_c                   17.4787(5)
_cell_angle_alpha                90
_cell_angle_beta                 95.621(3)
_cell_angle_gamma                90
_cell_volume                     2263.39
loop_
_atom_site_label
_atom_site_type_symbol
_atom_site_fract_x
_atom_site_fract_y
_atom_site_fract_z
N2 N 0.0774(5) 0.8775(5) 0.5544(4)
N3 N 0.0635(4) 0.7956(4) 0.5037(3)
H10 H 0.0263 0.9992 0.6642
Zn4 Zn 0.20972(6) 0.74259(5) 0.45234(4)
Zn1 Zn 0.73382(6) 0.73436(6) 0.60695(4)
N1 N 0.8920(4) 0.7951(4) 0.5690(3)
N4 N 0.7556(4) 0.5890(4) 0.5595(3)
N5 N 0.8433(4) 0.4686(4) 0.4863(3)
N6 N 0.7682(4) 0.4155(4) 0.5342(3)
N7 N 0.5734(4) 0.7935(4) 0.5557(3)
N8 N 0.5801(4) 0.8508(4) 0.4894(3)
N9 N 0.3777(4) 0.8042(4) 0.4980(3)
N10 N 0.2391(4) 0.7819(4) 0.3443(3)
N11 N 0.3452(5) 0.8515(5) 0.2522(3)
N12 N 0.2512(5) 0.7837(5) 0.2203(3)
C1 C 0.0918(8) 0.6525(7) 0.2638(4)
H1 H 0.1119 0.5958 0.3019
H2 H 0.0928 0.6227 0.2120
H3 H 0.0062 0.6818 0.2698
C2 C 0.1926(6) 0.7419(5) 0.2758(3)
C3 C 0.3335(5) 0.8488(5) 0.3258(3)
C4 C 0.4188(8) 0.9138(6) 0.3845(4)
H4 H 0.4960 0.9378 0.3606
H5 H 0.3710 0.9786 0.3981
C5 C 0.4616(5) 0.8533(5) 0.4571(3)
C6 C 0.4502(5) 0.7654(5) 0.5592(3)
C7 C 0.3979(7) 0.7080(8) 0.6239(4)
H6 H 0.3441 0.6480 0.6037
H7 H 0.3457 0.7575 0.6515
H8 H 0.4692 0.6807 0.6592
C8 C 0.9502(9) 0.9535(9) 0.6537(6)
H9 H 0.8752 0.9981 0.6371
H11 H 0.9342 0.9145 0.7005
C9 C 0.9727(6) 0.8754(5) 0.5917(4)
C10 C 0.9528(5) 0.7468(4) 0.5140(3)
C11 C 0.9085(8) 0.6517(7) 0.4660(4)
C12 C 0.8338(5) 0.5700(5) 0.5030(3)
C13 C 0.7172(5) 0.4914(5) 0.5758(3)
C14 C 0.6199(7) 0.4662(7) 0.6315(5)
H12 H 0.6617 0.4256 0.6750
H13 H 0.5497 0.4236 0.6056
H14 H 0.5851 0.5332 0.6502
O1 O 0.9518(5) 0.6372(5) 0.4054(3)
Zn3 Zn 0.23382(6) 0.76564(6) 0.10695(4)
Zn5 Zn 0.79028(6) 0.25741(5) 0.54766(4)
N14 N 0.2318(4) 0.5845(4) 0.4658(3)
N15 N 0.7512(5) 0.7163(5) 0.7203(3)
Zn2 Zn 0.29028(6) 0.24259(5) 0.04766(4)
N9_2 N 0.1223(4) 0.3042(4) 0.0020(3)
N10_2 N 0.2609(4) 0.2819(4) 0.1557(3)
N11_2 N 0.1548(5) 0.3515(5) 0.2478(3)
N12_2 N 0.2488(5) 0.2837(5) 0.2797(3)
C1_2 C 0.4082(8) 0.1525(7) 0.2362(4)
H1_2 H 0.3881 0.0958 0.1981
H2_2 H 0.4072 0.1227 0.2880
H3_2 H 0.4938 0.1818 0.2302
C2_2 C 0.3074(6) 0.2419(5) 0.2242(3)
C3_2 C 0.1665(5) 0.3488(5) 0.1742(3)
C4_2 C 0.0812(8) 0.4138(6) 0.1155(4)
H4_2 H 0.0040 0.4378 0.1394
H5_2 H 0.1290 0.4786 0.1019
C5_2 C 0.0384(5) 0.3533(5) 0.0429(3)
Zn3_2 Zn 0.26618(6) 0.26564(6) 0.39305(4)
N14_2 N 0.2682(4) 0.0845(4) 0.0342(3)
C6_2 C 0.0498(5) 0.2654(5) 0.9408(3)
C7_2 C 0.1021(7) 0.2080(8) 0.8761(4)
H6_2 H 0.1559 0.1480 0.8963
H7_2 H 0.1543 0.2575 0.8485
H8_2 H 0.0308 0.1807 0.8408
N13 N 0.4365(4) 0.2956(4) 0.9963(3)
N8_2 N 0.9199(4) 0.3508(4) 0.0106(3)
C11_2 C 0.5915(8) 0.1517(7) 0.0340(4)
O1_2 O 0.5482(5) 0.1372(5) 0.0946(3)
Zn1_2 Zn 0.76618(6) 0.23436(6) 0.89305(4)
N1_2 N 0.6080(4) 0.2951(4) 0.9310(3)
N2_2 N 0.4226(5) 0.3775(5) 0.9456(4)
N4_2 N 0.7444(4) 0.0890(4) 0.9405(3)
N7_2 N 0.9266(4) 0.2935(4) 0.9443(3)
C8_2 C 0.5498(9) 0.4535(9) 0.8463(6)
H9_2 H 0.6248 0.4981 0.8629
H10_2 H 0.4737 0.4992 0.8358
H11_2 H 0.5658 0.4145 0.7995
C9_2 C 0.5273(6) 0.3754(5) 0.9083(4)
C10_2 C 0.5472(5) 0.2468(4) 0.9860(3)
C12_2 C 0.6662(5) 0.0700(5) 0.9970(3)
H14_2 H 0.9149 0.0332 0.8498
N15_2 N 0.7488(5) 0.2163(5) 0.7797(3)
N6_2 N 0.7318(4) 0.9155(4) 0.9658(3)
C13_2 C 0.7828(5) 0.9914(5) 0.9242(3)
C14_2 C 0.8801(7) 0.9662(7) 0.8685(5)
H12_2 H 0.8383 0.9256 0.8250
H13_2 H 0.9503 0.9236 0.8944
Zn5_2 Zn 0.70972(6) 0.75741(5) 0.95234(4)
N1_3 N 0.1080(4) 0.2049(4) 0.4310(3)
N4_3 N 0.2444(4) 0.4110(4) 0.4405(3)
N5_2 N 0.1567(4) 0.5314(4) 0.5137(3)
N7_3 N 0.4266(4) 0.2065(4) 0.4443(3)
N8_3 N 0.4199(4) 0.1492(4) 0.5106(3)
N9_3 N 0.6223(4) 0.1958(4) 0.5020(3)
N10_3 N 0.7609(4) 0.2181(4) 0.6557(3)
N11_3 N 0.6548(5) 0.1485(5) 0.7478(3)
C1_3 C 0.9082(8) 0.3475(7) 0.7362(4)
H1_3 H 0.8881 0.4042 0.6981
H2_3 H 0.9072 0.3773 0.7880
H3_3 H 0.9938 0.3182 0.7302
C2_3 C 0.8074(6) 0.2581(5) 0.7242(3)
C3_3 C 0.6665(5) 0.1512(5) 0.6742(3)
C4_3 C 0.5812(8) 0.0862(6) 0.6155(4)
H4_3 H 0.5040 0.0622 0.6394
H5_3 H 0.6290 0.0214 0.6019
C5_3 C 0.5384(5) 0.1467(5) 0.5429(3)
C6_3 C 0.5498(5) 0.2346(5) 0.4408(3)
C7_3 C 0.6021(7) 0.2920(8) 0.3761(4)
H6_3 H 0.6559 0.3520 0.3963
H7_3 H 0.6543 0.2425 0.3485
H8_3 H 0.5308 0.3193 0.3408
C8_3 C 0.0498(9) 0.0465(9) 0.3463(6)
H9_3 H 0.1248 0.0019 0.3629
H11_3 H 0.0658 0.0855 0.2995
C9_3 C 0.0273(6) 0.1246(5) 0.4083(4)
C10_3 C 0.0472(5) 0.2532(4) 0.4860(3)
C11_3 C 0.0915(8) 0.3483(7) 0.5340(4)
C12_3 C 0.1662(5) 0.4300(5) 0.4970(3)
C13_3 C 0.2828(5) 0.5086(5) 0.4242(3)
C14_3 C 0.3801(7) 0.5338(7) 0.3685(5)
H12_3 H 0.3383 0.5744 0.3250
H13_3 H 0.4503 0.5764 0.3944
H14_3 H 0.4149 0.4668 0.3498
O1_3 O 0.0482(5) 0.3628(5) 0.5946(3)
N13_2 N 0.9365(4) 0.2044(4) 0.4963(3)
N2_3 N 0.9226(5) 0.1225(5) 0.4456(4)
H10_3 H 0.9737 0.0008 0.3358
C13_4 C 0.2172(5) 0.0086(5) 0.0758(3)
C14_4 C 0.1199(7) 0.0338(7) 0.1315(5)
H12_4 H 0.1617 0.0744 0.1750
H13_4 H 0.0497 0.0764 0.1056
N1_4 N 0.3920(4) 0.7049(4) 0.0690(3)
N2_4 N 0.5774(5) 0.6225(5) 0.0544(4)
N3_2 N 0.5635(4) 0.7044(4) 0.0037(3)
N4_4 N 0.2556(4) 0.9110(4) 0.0595(3)
N7_4 N 0.0734(4) 0.7065(4) 0.0557(3)
C8_4 C 0.4502(9) 0.5465(9) 0.1537(6)
H9_4 H 0.3752 0.5019 0.1371
H10_4 H 0.5263 0.5008 0.1642
H11_4 H 0.4342 0.5855 0.2005
C9_4 C 0.4727(6) 0.6246(5) 0.0917(4)
C10_4 C 0.4528(5) 0.7532(4) 0.0140(3)
C12_4 C 0.3338(5) 0.9300(5) 0.0030(3)
H14_4 H 0.0851 0.9668 0.1502
N8_4 N 0.0801(4) 0.6492(4) 0.9894(3)
C11_4 C 0.4085(8) 0.8483(7) 0.9660(4)
O1_4 O 0.4518(5) 0.8628(5) 0.9054(3)
C6_4 C 0.9502(5) 0.7346(5) 0.0592(3)
C7_4 C 0.8979(7) 0.7920(8) 0.1239(4)
H6_4 H 0.8441 0.8520 0.1037
H7_4 H 0.8457 0.7425 0.1515
H8_4 H 0.9692 0.8193 0.1592
N9_4 N 0.8777(4) 0.6958(4) 0.9980(3)
N10_4 N 0.7391(4) 0.7181(4) 0.8443(3)
N11_4 N 0.8452(5) 0.6485(5) 0.7522(3)
C1_4 C 0.5918(8) 0.8475(7) 0.7638(4)
H1_4 H 0.6119 0.9042 0.8019
H2_4 H 0.5928 0.8773 0.7120
H3_4 H 0.5062 0.8182 0.7698
C2_4 C 0.6926(6) 0.7581(5) 0.7758(3)
C3_4 C 0.8335(5) 0.6512(5) 0.8258(3)
C4_4 C 0.9188(8) 0.5862(6) 0.8845(4)
H4_4 H 0.9960 0.5622 0.8606
H5_4 H 0.8710 0.5214 0.8981
C5_4 C 0.9616(5) 0.6467(5) 0.9571(3)
N5_3 N 0.6567(4) 0.9686(4) 0.0137(3)
N5_4 N 0.3433(4) 0.0314(4) 0.9863(3)
loop_
_geom_bond_atom_site_label_1
_geom_bond_atom_site_label_2
_geom_bond_site_symmetry_1
_geom_bond_site_symmetry_2
N2 N3 1_555 1_555
Zn4 N3 1_555 1_555
Zn1 N1 1_555 1_555
Zn4 N9 1_555 1_555
N1 C9 1_555 1_555
N4 Zn1 1_555 1_555
N5 N6 1_555 1_555
N6 C13 1_555 1_555
N7 Zn1 1_555 1_555
N8 N7 1_555 1_555
N9 C5 1_555 1_555
N10 Zn4 1_555 1_555
N11 N12 1_555 1_555
N12 C2 1_555 1_555
C1 H1 1_555 1_555
H2 C1 1_555 1_555
H3 C1 1_555 1_555
C2 N10 1_555 1_555
C3 N10 1_555 1_555
C4 C3 1_555 1_555
H4 C4 1_555 1_555
H5 C4 1_555 1_555
C5 N8 1_555 1_555
C6 N7 1_555 1_555
C7 C6 1_555 1_555
H6 C7 1_555 1_555
H7 C7 1_555 1_555
H8 C7 1_555 1_555
C8 H9 1_555 1_555
H11 C8 1_555 1_555
C10 N1 1_555 1_555
C11 C10 1_555 1_555
C12 N4 1_555 1_555
C13 N4 1_555 1_555
C14 C13 1_555 1_555
H12 C14 1_555 1_555
H13 C14 1_555 1_555
H14 C14 1_555 1_555
O1 C11 1_555 1_555
Zn3 N12 1_555 1_555
Zn5 N6 1_555 1_555
N14 Zn4 1_555 1_555
N15 Zn1 1_555 1_555
N5 C12 1_555 1_555
N9 C6 1_555 1_555
N11 C3 1_555 1_555
C1 C2 1_555 1_555
C4 C5 1_555 1_555
C8 C9 1_555 1_555
C11 C12 1_555 1_555
Zn2 N9_2 1_555 1_555
N9_2 C5_2 1_555 1_555
N10_2 Zn2 1_555 1_555
N11_2 N12_2 1_555 1_555
N12_2 C2_2 1_555 1_555
C1_2 H1_2 1_555 1_555
H2_2 C1_2 1_555 1_555
H3_2 C1_2 1_555 1_555
C2_2 N10_2 1_555 1_555
C3_2 N10_2 1_555 1_555
C4_2 C3_2 1_555 1_555
H4_2 C4_2 1_555 1_555
H5_2 C4_2 1_555 1_555
Zn3_2 N12_2 1_555 1_555
N14_2 Zn2 1_555 1_555
N11_2 C3_2 1_555 1_555
C1_2 C2_2 1_555 1_555
C4_2 C5_2 1_555 1_555
C7_2 C6_2 1_555 1_555
H6_2 C7_2 1_555 1_555
H7_2 C7_2 1_555 1_555
H8_2 C7_2 1_555 1_555
O1_2 C11_2 1_555 1_555
Zn1_2 N1_2 1_555 1_555
N1_2 C9_2 1_555 1_555
N2_2 N13 1_555 1_555
N13 C10_2 1_555 1_555
N4_2 Zn1_2 1_555 1_555
N7_2 Zn1_2 1_555 1_555
C8_2 H9_2 1_555 1_555
H10_2 C8_2 1_555 1_555
H11_2 C8_2 1_555 1_555
C9_2 N2_2 1_555 1_555
C10_2 N1_2 1_555 1_555
C12_2 N4_2 1_555 1_555
N15_2 Zn1_2 1_555 1_555
C8_2 C9_2 1_555 1_555
N6_2 C13_2 1_555 1_555
C14_2 C13_2 1_555 1_555
H12_2 C14_2 1_555 1_555
H13_2 C14_2 1_555 1_555
Zn5_2 N6_2 1_555 1_555
Zn3_2 N1_3 1_555 1_555
Zn5 N9_3 1_555 1_555
N1_3 C9_3 1_555 1_555
N4_3 Zn3_2 1_555 1_555
N5_2 N14 1_555 1_555
N14 C13_3 1_555 1_555
N7_3 Zn3_2 1_555 1_555
N8_3 N7_3 1_555 1_555
N9_3 C5_3 1_555 1_555
N10_3 Zn5 1_555 1_555
N11_3 N15_2 1_555 1_555
N15_2 C2_3 1_555 1_555
C1_3 H1_3 1_555 1_555
H2_3 C1_3 1_555 1_555
H3_3 C1_3 1_555 1_555
C2_3 N10_3 1_555 1_555
C3_3 N10_3 1_555 1_555
C4_3 C3_3 1_555 1_555
H4_3 C4_3 1_555 1_555
H5_3 C4_3 1_555 1_555
C5_3 N8_3 1_555 1_555
C6_3 N7_3 1_555 1_555
C7_3 C6_3 1_555 1_555
H6_3 C7_3 1_555 1_555
H7_3 C7_3 1_555 1_555
H8_3 C7_3 1_555 1_555
C8_3 H9_3 1_555 1_555
H11_3 C8_3 1_555 1_555
C10_3 N1_3 1_555 1_555
C11_3 C10_3 1_555 1_555
C12_3 N4_3 1_555 1_555
C13_3 N4_3 1_555 1_555
C14_3 C13_3 1_555 1_555
H12_3 C14_3 1_555 1_555
H13_3 C14_3 1_555 1_555
H14_3 C14_3 1_555 1_555
O1_3 C11_3 1_555 1_555
N13_2 Zn5 1_555 1_555
N5_2 C12_3 1_555 1_555
N9_3 C6_3 1_555 1_555
N11_3 C3_3 1_555 1_555
C1_3 C2_3 1_555 1_555
C4_3 C5_3 1_555 1_555
C8_3 C9_3 1_555 1_555
C11_3 C12_3 1_555 1_555
N2_3 N13_2 1_555 1_555
N14_2 C13_4 1_555 1_555
C14_4 C13_4 1_555 1_555
H12_4 C14_4 1_555 1_555
H13_4 C14_4 1_555 1_555
Zn3 N1_4 1_555 1_555
N1_4 C9_4 1_555 1_555
N2_4 N3_2 1_555 1_555
N3_2 C10_4 1_555 1_555
N4_4 Zn3 1_555 1_555
N7_4 Zn3 1_555 1_555
C8_4 H9_4 1_555 1_555
H10_4 C8_4 1_555 1_555
H11_4 C8_4 1_555 1_555
C9_4 N2_4 1_555 1_555
C10_4 N1_4 1_555 1_555
C12_4 N4_4 1_555 1_555
C8_4 C9_4 1_555 1_555
O1_4 C11_4 1_555 1_555
C7_4 C6_4 1_555 1_555
H6_4 C7_4 1_555 1_555
H7_4 C7_4 1_555 1_555
H8_4 C7_4 1_555 1_555
Zn5_2 N9_4 1_555 1_555
N9_4 C5_4 1_555 1_555
N10_4 Zn5_2 1_555 1_555
N11_4 N15 1_555 1_555
N15 C2_4 1_555 1_555
C1_4 H1_4 1_555 1_555
H2_4 C1_4 1_555 1_555
H3_4 C1_4 1_555 1_555
C2_4 N10_4 1_555 1_555
C3_4 N10_4 1_555 1_555
C4_4 C3_4 1_555 1_555
H4_4 C4_4 1_555 1_555
H5_4 C4_4 1_555 1_555
N11_4 C3_4 1_555 1_555
C1_4 C2_4 1_555 1_555
C4_4 C5_4 1_555 1_555

#END
