
###############################################################################
#
# This file contains modified crystal structure data generated from the
# MOF subset of the Cambridge Structural Database (CSD) v543 
# hosted by the Cambridge Crystallographic Data Centre (CCDC).
#
# This work is licensed under the Creative Commons
# Attribution-NonCommercial-ShareAlike 4.0 International License.
# To view a copy of this license, visit
# http://creativecommons.org/licenses/by-nc-sa/4.0/
# or send a letter to
# Creative Commons, PO Box 1866, Mountain View, CA 94042, USA.
#
# CIF created using the CSD Python API on 29 September 2022
# The structure has been converted into the P1 space group
# The structure has a 3D framework
# The original CSD entry SOCNEG is in the monoclinic crystal system
# The framework has been calculated to contain at least 10.0% void space
# The void calculation uses a probe of radius 1.32A, grid spacing 0.4
#
###############################################################################

data_SOCNEG
_chemical_formula_moiety         '(C56 H64 N48 Zn8)n'
_symmetry_cell_setting           triclinic
_symmetry_space_group_name_H-M   'P 1'
_symmetry_Int_Tables_number      1
_space_group_name_Hall           'P 1'
loop_
_symmetry_equiv_pos_site_id
_symmetry_equiv_pos_as_xyz
1 x,y,z
_cell_length_a                   10.7858(3)
_cell_length_b                   12.3368(5)
_cell_length_c                   16.8943(5)
_cell_angle_alpha                90
_cell_angle_beta                 95.331(2)
_cell_angle_gamma                90
_cell_volume                     2238.27
loop_
_atom_site_label
_atom_site_type_symbol
_atom_site_fract_x
_atom_site_fract_y
_atom_site_fract_z
N2 N 0.0700(2) 0.8738(3) 0.56566(18)
N3 N 0.0574(2) 0.7924(2) 0.50838(17)
H11 H 0.0151 0.9775 0.6885
Zn4 Zn 0.20718(3) 0.74597(3) 0.46026(2)
Zn1 Zn 0.72556(3) 0.73434(3) 0.59952(2)
N1 N 0.8818(2) 0.7979(2) 0.56477(16)
N4 N 0.7445(2) 0.5890(2) 0.54729(15)
N5 N 0.8534(2) 0.4694(2) 0.48181(15)
N6 N 0.7765(2) 0.4148(2) 0.52948(15)
N7 N 0.5648(2) 0.7972(2) 0.55501(15)
N8 N 0.5645(2) 0.8589(2) 0.48586(15)
N9 N 0.3705(2) 0.8074(2) 0.50296(15)
N10 N 0.2305(2) 0.7849(2) 0.34700(15)
N11 N 0.3248(2) 0.8608(3) 0.24870(16)
N12 N 0.2366(2) 0.7860(2) 0.21734(15)
C1 C 0.0886(3) 0.6541(3) 0.26876(19)
H1 H 0.0106 0.6799 0.2876
H2 H 0.1192 0.5914 0.3005
H3 H 0.0739 0.6329 0.2128
C2 C 0.1828(3) 0.7421(3) 0.27699(19)
C3 C 0.3181(3) 0.8565(3) 0.32562(18)
C4 C 0.3996(3) 0.9237(3) 0.38435(19)
H4 H 0.4715 0.9511 0.3579
H5 H 0.3514 0.9872 0.4001
C5 C 0.4471(3) 0.8628(3) 0.45773(18)
C6 C 0.4482(3) 0.7672(3) 0.56290(19)
C7 C 0.4055(3) 0.6999(3) 0.6276(2)
H6 H 0.4776 0.6766 0.6631
H7 H 0.3615 0.6361 0.6048
H8 H 0.3493 0.7424 0.6578
C8 C 0.9368(4) 0.9481(4) 0.6631(3)
H9 H 0.8935 0.9084 0.7025
C9 C 0.9640(3) 0.8734(3) 0.5978(2)
C10 C 0.9457(3) 0.7503(3) 0.50912(19)
C11 C 0.8936(3) 0.6622(3) 0.45436(18)
H12 H 0.8322 0.6947 0.4140
H13 H 0.9620 0.6318 0.4260
C12 C 0.8327(3) 0.5725(3) 0.49445(17)
C13 C 0.7130(3) 0.4877(3) 0.56685(19)
C14 C 0.6172(3) 0.4616(3) 0.6216(2)
H14 H 0.6381 0.4980 0.6727
H15 H 0.6148 0.3830 0.6300
H16 H 0.5356 0.4865 0.5984
Zn3 Zn 0.22556(3) 0.76566(3) 0.09952(2)
Zn5 Zn 0.79282(3) 0.25403(3) 0.53974(2)
N14 N 0.2235(2) 0.5852(2) 0.47052(15)
N15 N 0.7366(2) 0.7140(2) 0.71734(15)
Zn2 Zn 0.29282(3) 0.24597(3) 0.03974(2)
N10_2 N 0.2695(2) 0.2849(2) 0.15300(15)
N11_2 N 0.1752(2) 0.3608(3) 0.25130(16)
N12_2 N 0.2634(2) 0.2860(2) 0.28266(15)
C1_2 C 0.4114(3) 0.1541(3) 0.23124(19)
H1_2 H 0.4894 0.1799 0.2124
H2_2 H 0.3808 0.0914 0.1995
H3_2 H 0.4261 0.1329 0.2872
C2_2 C 0.3172(3) 0.2421(3) 0.22301(19)
C3_2 C 0.1819(3) 0.3565(3) 0.17438(18)
C4_2 C 0.1004(3) 0.4237(3) 0.11565(19)
H4_2 H 0.0285 0.4511 0.1421
H5_2 H 0.1486 0.4872 0.0999
C5_2 C 0.0529(3) 0.3628(3) 0.04227(18)
Zn3_2 Zn 0.27444(3) 0.26566(3) 0.40048(2)
N14_2 N 0.2765(2) 0.0852(2) 0.02948(15)
N9_2 N 0.1295(2) 0.3074(2) 0.99704(15)
C6_2 C 0.0518(3) 0.2672(3) 0.93710(19)
C7_2 C 0.0945(3) 0.1999(3) 0.8724(2)
H6_2 H 0.0224 0.1766 0.8369
H7_2 H 0.1385 0.1361 0.8952
H8_2 H 0.1507 0.2424 0.8422
N13 N 0.4426(2) 0.2924(2) 0.99162(17)
N8_2 N 0.9355(2) 0.3589(2) 0.01414(15)
C11_2 C 0.6064(3) 0.1622(3) 0.04564(18)
H12_2 H 0.6678 0.1947 0.0860
H13_2 H 0.5380 0.1318 0.0740
C12_2 C 0.6673(3) 0.0725(3) 0.00555(17)
Zn1_2 Zn 0.77444(3) 0.23434(3) 0.90048(2)
N1_2 N 0.6182(2) 0.2979(2) 0.93523(16)
N2_2 N 0.4300(2) 0.3738(3) 0.93434(18)
N4_2 N 0.7555(2) 0.0890(2) 0.95271(15)
N7_2 N 0.9352(2) 0.2972(2) 0.94499(15)
C8_2 C 0.5632(4) 0.4481(4) 0.8369(3)
H9_2 H 0.6065 0.4084 0.7975
H10 H 0.6159 0.5077 0.8587
H11_2 H 0.4849 0.4775 0.8115
C9_2 C 0.5360(3) 0.3734(3) 0.9022(2)
C10_2 C 0.5543(3) 0.2503(3) 0.99088(19)
N15_2 N 0.7634(2) 0.2140(2) 0.78266(15)
N6_2 N 0.7235(2) 0.9148(2) 0.97052(15)
C13_2 C 0.7870(3) 0.9877(3) 0.93315(19)
C14_2 C 0.8828(3) 0.9616(3) 0.8784(2)
H14_2 H 0.8619 0.9980 0.8273
H15_2 H 0.8852 0.8830 0.8700
H16_2 H 0.9644 0.9865 0.9016
Zn5_2 Zn 0.70718(3) 0.75403(3) 0.96026(2)
N1_3 N 0.1182(2) 0.2021(2) 0.43523(16)
N4_3 N 0.2555(2) 0.4110(2) 0.45271(15)
N5_2 N 0.1466(2) 0.5306(2) 0.51819(15)
N7_3 N 0.4352(2) 0.2028(2) 0.44499(15)
N8_3 N 0.4355(2) 0.1411(2) 0.51414(15)
N9_3 N 0.6295(2) 0.1926(2) 0.49704(15)
N10_3 N 0.7695(2) 0.2151(2) 0.65300(15)
N11_3 N 0.6752(2) 0.1392(3) 0.75130(16)
C1_3 C 0.9114(3) 0.3459(3) 0.73124(19)
H1_3 H 0.9894 0.3201 0.7124
H2_3 H 0.8808 0.4086 0.6995
H3_3 H 0.9261 0.3671 0.7872
C2_3 C 0.8172(3) 0.2579(3) 0.72301(19)
C3_3 C 0.6819(3) 0.1435(3) 0.67438(18)
C4_3 C 0.6004(3) 0.0763(3) 0.61565(19)
H4_3 H 0.5285 0.0489 0.6421
H5_3 H 0.6486 0.0128 0.5999
C5_3 C 0.5529(3) 0.1372(3) 0.54227(18)
C6_3 C 0.5518(3) 0.2328(3) 0.43710(19)
C7_3 C 0.5945(3) 0.3001(3) 0.3724(2)
H6_3 H 0.5224 0.3234 0.3369
H7_3 H 0.6385 0.3639 0.3952
H8_3 H 0.6507 0.2576 0.3422
C8_3 C 0.0632(4) 0.0519(4) 0.3369(3)
H9_3 H 0.1065 0.0916 0.2975
C9_3 C 0.0360(3) 0.1266(3) 0.4022(2)
C10_3 C 0.0543(3) 0.2497(3) 0.49088(19)
C11_3 C 0.1064(3) 0.3378(3) 0.54564(18)
H12_3 H 0.1678 0.3053 0.5860
H13_3 H 0.0380 0.3682 0.5740
C12_3 C 0.1673(3) 0.4275(3) 0.50555(17)
C13_3 C 0.2870(3) 0.5123(3) 0.43315(19)
C14_3 C 0.3828(3) 0.5384(3) 0.3784(2)
H14_3 H 0.3619 0.5020 0.3273
H15_3 H 0.3852 0.6170 0.3700
H16_3 H 0.4644 0.5135 0.4016
N13_2 N 0.9426(2) 0.2076(2) 0.49162(17)
N2_3 N 0.9300(2) 0.1262(3) 0.43434(18)
H11_3 H 0.9849 0.0225 0.3115
C13_4 C 0.2130(3) 0.0123(3) 0.06685(19)
C14_4 C 0.1172(3) 0.0384(3) 0.1216(2)
H14_4 H 0.1381 0.0020 0.1727
H15_4 H 0.1148 0.1170 0.1300
H16_4 H 0.0356 0.0135 0.0984
N1_4 N 0.3818(2) 0.7021(2) 0.06477(16)
N2_4 N 0.5700(2) 0.6262(3) 0.06566(18)
N3_2 N 0.5574(2) 0.7076(2) 0.00838(17)
N4_4 N 0.2445(2) 0.9110(2) 0.04729(15)
N7_4 N 0.0648(2) 0.7028(2) 0.05501(15)
C8_4 C 0.4368(4) 0.5519(4) 0.1631(3)
H9_4 H 0.3935 0.5916 0.2025
H10_2 H 0.3841 0.4923 0.1413
H11_4 H 0.5151 0.5225 0.1885
C9_4 C 0.4640(3) 0.6266(3) 0.0978(2)
C10_4 C 0.4457(3) 0.7497(3) 0.00912(19)
N8_4 N 0.0645(2) 0.6411(2) 0.98586(15)
C11_4 C 0.3936(3) 0.8378(3) 0.95436(18)
H12_4 H 0.3322 0.8053 0.9140
H13_4 H 0.4620 0.8682 0.9260
C12_4 C 0.3327(3) 0.9275(3) 0.99445(17)
N9_4 N 0.8705(2) 0.6926(2) 0.00296(15)
C6_4 C 0.9482(3) 0.7328(3) 0.06290(19)
C7_4 C 0.9055(3) 0.8001(3) 0.1276(2)
H6_4 H 0.9776 0.8234 0.1631
H7_4 H 0.8615 0.8639 0.1048
H8_4 H 0.8493 0.7576 0.1578
N10_4 N 0.7305(2) 0.7151(2) 0.84700(15)
N11_4 N 0.8248(2) 0.6392(3) 0.74870(16)
C1_4 C 0.5886(3) 0.8459(3) 0.76876(19)
H1_4 H 0.5106 0.8201 0.7876
H2_4 H 0.6192 0.9086 0.8005
H3_4 H 0.5739 0.8671 0.7128
C2_4 C 0.6828(3) 0.7579(3) 0.77699(19)
C3_4 C 0.8181(3) 0.6435(3) 0.82562(18)
C4_4 C 0.8996(3) 0.5763(3) 0.88435(19)
H4_4 H 0.9715 0.5489 0.8579
H5_4 H 0.8514 0.5128 0.9001
C5_4 C 0.9471(3) 0.6372(3) 0.95773(18)
H10_3 H 0.8841 0.0077 0.6413
N5_3 N 0.6466(2) 0.9694(2) 0.01819(15)
H10_4 H 0.1159 0.9923 0.3587
N5_4 N 0.3534(2) 0.0306(2) 0.98181(15)
loop_
_geom_bond_atom_site_label_1
_geom_bond_atom_site_label_2
_geom_bond_site_symmetry_1
_geom_bond_site_symmetry_2
N2 N3 1_555 1_555
Zn4 N3 1_555 1_555
Zn1 N1 1_555 1_555
Zn4 N9 1_555 1_555
N1 C9 1_555 1_555
N4 Zn1 1_555 1_555
N5 N6 1_555 1_555
N6 C13 1_555 1_555
N7 Zn1 1_555 1_555
N8 N7 1_555 1_555
N9 C5 1_555 1_555
N10 Zn4 1_555 1_555
N11 N12 1_555 1_555
N12 C2 1_555 1_555
C1 H1 1_555 1_555
H2 C1 1_555 1_555
H3 C1 1_555 1_555
C2 N10 1_555 1_555
C3 N10 1_555 1_555
C4 C3 1_555 1_555
H4 C4 1_555 1_555
H5 C4 1_555 1_555
C5 N8 1_555 1_555
C6 N7 1_555 1_555
C7 C6 1_555 1_555
H6 C7 1_555 1_555
H7 C7 1_555 1_555
H8 C7 1_555 1_555
C8 H9 1_555 1_555
C10 N1 1_555 1_555
C11 C10 1_555 1_555
H12 C11 1_555 1_555
H13 C11 1_555 1_555
C12 N4 1_555 1_555
C13 N4 1_555 1_555
C14 C13 1_555 1_555
H14 C14 1_555 1_555
H15 C14 1_555 1_555
H16 C14 1_555 1_555
Zn3 N12 1_555 1_555
Zn5 N6 1_555 1_555
N14 Zn4 1_555 1_555
N15 Zn1 1_555 1_555
N5 C12 1_555 1_555
N9 C6 1_555 1_555
N11 C3 1_555 1_555
C1 C2 1_555 1_555
C4 C5 1_555 1_555
C8 C9 1_555 1_555
C11 C12 1_555 1_555
N10_2 Zn2 1_555 1_555
N11_2 N12_2 1_555 1_555
N12_2 C2_2 1_555 1_555
C1_2 H1_2 1_555 1_555
H2_2 C1_2 1_555 1_555
H3_2 C1_2 1_555 1_555
C2_2 N10_2 1_555 1_555
C3_2 N10_2 1_555 1_555
C4_2 C3_2 1_555 1_555
H4_2 C4_2 1_555 1_555
H5_2 C4_2 1_555 1_555
Zn3_2 N12_2 1_555 1_555
N14_2 Zn2 1_555 1_555
N11_2 C3_2 1_555 1_555
C1_2 C2_2 1_555 1_555
C4_2 C5_2 1_555 1_555
C7_2 C6_2 1_555 1_555
H6_2 C7_2 1_555 1_555
H7_2 C7_2 1_555 1_555
H8_2 C7_2 1_555 1_555
N9_2 C6_2 1_555 1_555
H12_2 C11_2 1_555 1_555
H13_2 C11_2 1_555 1_555
C11_2 C12_2 1_555 1_555
Zn1_2 N1_2 1_555 1_555
N1_2 C9_2 1_555 1_555
N2_2 N13 1_555 1_555
N13 C10_2 1_555 1_555
N4_2 Zn1_2 1_555 1_555
N7_2 Zn1_2 1_555 1_555
C8_2 H9_2 1_555 1_555
H10 C8_2 1_555 1_555
H11_2 C8_2 1_555 1_555
C9_2 N2_2 1_555 1_555
C10_2 N1_2 1_555 1_555
N15_2 Zn1_2 1_555 1_555
C8_2 C9_2 1_555 1_555
N6_2 C13_2 1_555 1_555
C14_2 C13_2 1_555 1_555
H14_2 C14_2 1_555 1_555
H15_2 C14_2 1_555 1_555
H16_2 C14_2 1_555 1_555
Zn5_2 N6_2 1_555 1_555
Zn3_2 N1_3 1_555 1_555
Zn5 N9_3 1_555 1_555
N1_3 C9_3 1_555 1_555
N4_3 Zn3_2 1_555 1_555
N5_2 N14 1_555 1_555
N14 C13_3 1_555 1_555
N7_3 Zn3_2 1_555 1_555
N8_3 N7_3 1_555 1_555
N9_3 C5_3 1_555 1_555
N10_3 Zn5 1_555 1_555
N11_3 N15_2 1_555 1_555
N15_2 C2_3 1_555 1_555
C1_3 H1_3 1_555 1_555
H2_3 C1_3 1_555 1_555
H3_3 C1_3 1_555 1_555
C2_3 N10_3 1_555 1_555
C3_3 N10_3 1_555 1_555
C4_3 C3_3 1_555 1_555
H4_3 C4_3 1_555 1_555
H5_3 C4_3 1_555 1_555
C5_3 N8_3 1_555 1_555
C6_3 N7_3 1_555 1_555
C7_3 C6_3 1_555 1_555
H6_3 C7_3 1_555 1_555
H7_3 C7_3 1_555 1_555
H8_3 C7_3 1_555 1_555
C8_3 H9_3 1_555 1_555
C10_3 N1_3 1_555 1_555
C11_3 C10_3 1_555 1_555
H12_3 C11_3 1_555 1_555
H13_3 C11_3 1_555 1_555
C12_3 N4_3 1_555 1_555
C13_3 N4_3 1_555 1_555
C14_3 C13_3 1_555 1_555
H14_3 C14_3 1_555 1_555
H15_3 C14_3 1_555 1_555
H16_3 C14_3 1_555 1_555
N13_2 Zn5 1_555 1_555
N5_2 C12_3 1_555 1_555
N9_3 C6_3 1_555 1_555
N11_3 C3_3 1_555 1_555
C1_3 C2_3 1_555 1_555
C4_3 C5_3 1_555 1_555
C8_3 C9_3 1_555 1_555
C11_3 C12_3 1_555 1_555
N2_3 N13_2 1_555 1_555
N14_2 C13_4 1_555 1_555
C14_4 C13_4 1_555 1_555
H14_4 C14_4 1_555 1_555
H15_4 C14_4 1_555 1_555
H16_4 C14_4 1_555 1_555
Zn3 N1_4 1_555 1_555
N1_4 C9_4 1_555 1_555
N2_4 N3_2 1_555 1_555
N3_2 C10_4 1_555 1_555
N4_4 Zn3 1_555 1_555
N7_4 Zn3 1_555 1_555
C8_4 H9_4 1_555 1_555
H10_2 C8_4 1_555 1_555
H11_4 C8_4 1_555 1_555
C9_4 N2_4 1_555 1_555
C10_4 N1_4 1_555 1_555
C8_4 C9_4 1_555 1_555
H12_4 C11_4 1_555 1_555
H13_4 C11_4 1_555 1_555
C11_4 C12_4 1_555 1_555
C7_4 C6_4 1_555 1_555
H6_4 C7_4 1_555 1_555
H7_4 C7_4 1_555 1_555
H8_4 C7_4 1_555 1_555
N9_4 C6_4 1_555 1_555
N10_4 Zn5_2 1_555 1_555
N11_4 N15 1_555 1_555
N15 C2_4 1_555 1_555
C1_4 H1_4 1_555 1_555
H2_4 C1_4 1_555 1_555
H3_4 C1_4 1_555 1_555
C2_4 N10_4 1_555 1_555
C3_4 N10_4 1_555 1_555
C4_4 C3_4 1_555 1_555
H4_4 C4_4 1_555 1_555
H5_4 C4_4 1_555 1_555
N11_4 C3_4 1_555 1_555
C1_4 C2_4 1_555 1_555
C4_4 C5_4 1_555 1_555

#END
