
###############################################################################
#
# This file contains modified crystal structure data generated from the
# MOF subset of the Cambridge Structural Database (CSD) v543 
# hosted by the Cambridge Crystallographic Data Centre (CCDC).
#
# This work is licensed under the Creative Commons
# Attribution-NonCommercial-ShareAlike 4.0 International License.
# To view a copy of this license, visit
# http://creativecommons.org/licenses/by-nc-sa/4.0/
# or send a letter to
# Creative Commons, PO Box 1866, Mountain View, CA 94042, USA.
#
# CIF created using the CSD Python API on 29 September 2022
# The structure has been converted into the P1 space group
# The structure has a 3D framework
# The original CSD entry SOCNIK is in the monoclinic crystal system
# The framework has been calculated to contain at least 10.0% void space
# The void calculation uses a probe of radius 1.32A, grid spacing 0.4
#
###############################################################################

data_SOCNIK
_chemical_formula_moiety         '(C56 H64 N48 Zn8)n'
_symmetry_cell_setting           triclinic
_symmetry_space_group_name_H-M   'P 1'
_symmetry_Int_Tables_number      1
_space_group_name_Hall           'P 1'
loop_
_symmetry_equiv_pos_site_id
_symmetry_equiv_pos_as_xyz
1 x,y,z
_cell_length_a                   10.7132(4)
_cell_length_b                   12.3452(5)
_cell_length_c                   16.9670(8)
_cell_angle_alpha                90
_cell_angle_beta                 95.507(4)
_cell_angle_gamma                90
_cell_volume                     2233.64
loop_
_atom_site_label
_atom_site_type_symbol
_atom_site_fract_x
_atom_site_fract_y
_atom_site_fract_z
N2 N 0.0704(3) 0.8726(3) 0.5625(2)
N3 N 0.0566(3) 0.7917(3) 0.50590(19)
H10 H 0.0127 0.9911 0.6749
Zn4 Zn 0.20599(4) 0.74529(3) 0.45765(2)
Zn1 Zn 0.72554(4) 0.73440(3) 0.59954(2)
N1 N 0.8813(3) 0.7977(3) 0.56344(18)
N4 N 0.7444(3) 0.5887(2) 0.54894(17)
N5 N 0.8522(3) 0.4695(2) 0.48345(17)
N6 N 0.7766(3) 0.4145(2) 0.53219(18)
N7 N 0.5645(3) 0.7986(2) 0.55431(17)
N8 N 0.5648(3) 0.8593(2) 0.48564(17)
N9 N 0.3697(3) 0.8077(2) 0.50082(17)
N10 N 0.2298(3) 0.7854(2) 0.34565(17)
N11 N 0.3267(3) 0.8594(3) 0.24833(18)
N12 N 0.2370(3) 0.7849(3) 0.21651(17)
C1 C 0.0863(4) 0.6553(3) 0.2676(2)
H1 H 0.1162 0.5929 0.2975
H2 H 0.0700 0.6360 0.2128
H3 H 0.0104 0.6809 0.2871
C2 C 0.1830(3) 0.7423(3) 0.2762(2)
C3 C 0.3195(3) 0.8555(3) 0.3249(2)
C4 C 0.4004(4) 0.9222(3) 0.3830(2)
H4 H 0.3528 0.9846 0.3978
H5 H 0.4717 0.9487 0.3575
C5 C 0.4475(3) 0.8620(3) 0.4566(2)
C6 C 0.4469(3) 0.7677(3) 0.5606(2)
C7 C 0.4030(4) 0.7009(4) 0.6253(2)
H6 H 0.4735 0.6805 0.6615
H7 H 0.3623 0.6370 0.6033
H8 H 0.3450 0.7420 0.6530
C8 C 0.9396(5) 0.9478(5) 0.6607(3)
H9 H 0.8703 0.9942 0.6435
H11 H 0.9197 0.9066 0.7058
C9 C 0.9645(3) 0.8729(3) 0.5954(2)
C10 C 0.9433(3) 0.7492(3) 0.5081(2)
C11 C 0.8903(3) 0.6616(3) 0.4545(2)
H12 H 0.8284 0.6929 0.4156
H13 H 0.9570 0.6318 0.4263
C12 C 0.8307(3) 0.5721(3) 0.4959(2)
C13 C 0.7137(3) 0.4879(3) 0.5695(2)
C14 C 0.6177(4) 0.4619(3) 0.6249(3)
H14 H 0.6344 0.5032 0.6727
H15 H 0.6211 0.3860 0.6373
H16 H 0.5358 0.4798 0.6003
Zn3 Zn 0.22554(4) 0.76560(3) 0.09954(2)
Zn5 Zn 0.79401(4) 0.25471(3) 0.54235(2)
N14 N 0.2234(3) 0.5855(2) 0.46781(18)
N15 N 0.7370(3) 0.7151(3) 0.71651(17)
Zn2 Zn 0.29401(4) 0.24529(3) 0.04235(2)
N10_2 N 0.2702(3) 0.2854(2) 0.15435(17)
N11_2 N 0.1733(3) 0.3594(3) 0.25167(18)
N12_2 N 0.2630(3) 0.2849(3) 0.28349(17)
C1_2 C 0.4137(4) 0.1553(3) 0.2324(2)
H1_2 H 0.3838 0.0929 0.2025
H2_2 H 0.4300 0.1360 0.2872
H3_2 H 0.4896 0.1809 0.2129
C2_2 C 0.3170(3) 0.2423(3) 0.2238(2)
C3_2 C 0.1805(3) 0.3555(3) 0.1751(2)
C4_2 C 0.0996(4) 0.4222(3) 0.1170(2)
H4_2 H 0.1472 0.4846 0.1022
H5_2 H 0.0283 0.4487 0.1425
C5_2 C 0.0525(3) 0.3620(3) 0.0434(2)
Zn3_2 Zn 0.27446(4) 0.26560(3) 0.40046(2)
N14_2 N 0.2766(3) 0.0855(2) 0.03219(18)
N9_2 N 0.1303(3) 0.3077(2) 0.99918(17)
C6_2 C 0.0531(3) 0.2677(3) 0.9394(2)
C7_2 C 0.0970(4) 0.2009(4) 0.8747(2)
H6_2 H 0.0265 0.1805 0.8385
H7_2 H 0.1377 0.1370 0.8967
H8_2 H 0.1550 0.2420 0.8470
N13 N 0.4434(3) 0.2917(3) 0.99410(19)
N8_2 N 0.9352(3) 0.3593(2) 0.01436(17)
C11_2 C 0.6097(3) 0.1616(3) 0.0455(2)
H12_2 H 0.6716 0.1929 0.0844
H13_2 H 0.5430 0.1318 0.0737
C12_2 C 0.6693(3) 0.0721(3) 0.0041(2)
Zn1_2 Zn 0.77446(4) 0.23440(3) 0.90046(2)
N1_2 N 0.6187(3) 0.2977(3) 0.93656(18)
N2_2 N 0.4296(3) 0.3726(3) 0.9375(2)
N4_2 N 0.7556(3) 0.0887(2) 0.95106(17)
N7_2 N 0.9355(3) 0.2986(2) 0.94569(17)
C8_2 C 0.5604(5) 0.4478(5) 0.8393(3)
H9_2 H 0.6297 0.4942 0.8565
H10_2 H 0.4873 0.4911 0.8251
H11_2 H 0.5803 0.4066 0.7942
C9_2 C 0.5355(3) 0.3729(3) 0.9046(2)
C10_2 C 0.5567(3) 0.2492(3) 0.9919(2)
H14_2 H 0.8656 0.0032 0.8273
N15_2 N 0.7630(3) 0.2151(3) 0.78349(17)
N6_2 N 0.7234(3) 0.9145(2) 0.96781(18)
C13_2 C 0.7863(3) 0.9879(3) 0.9305(2)
C14_2 C 0.8823(4) 0.9619(3) 0.8751(3)
H15_2 H 0.8789 0.8860 0.8627
H16_2 H 0.9642 0.9798 0.8997
Zn5_2 Zn 0.70599(4) 0.75471(3) 0.95765(2)
N1_3 N 0.1187(3) 0.2023(3) 0.43656(18)
N4_3 N 0.2556(3) 0.4113(2) 0.45106(17)
N5_2 N 0.1478(3) 0.5305(2) 0.51655(17)
N7_3 N 0.4355(3) 0.2014(2) 0.44569(17)
N8_3 N 0.4352(3) 0.1407(2) 0.51436(17)
N9_3 N 0.6303(3) 0.1923(2) 0.49918(17)
N10_3 N 0.7702(3) 0.2146(2) 0.65435(17)
N11_3 N 0.6733(3) 0.1406(3) 0.75167(18)
C1_3 C 0.9137(4) 0.3447(3) 0.7324(2)
H1_3 H 0.8838 0.4071 0.7025
H2_3 H 0.9300 0.3640 0.7872
H3_3 H 0.9896 0.3191 0.7129
C2_3 C 0.8170(3) 0.2577(3) 0.7238(2)
C3_3 C 0.6805(3) 0.1445(3) 0.6751(2)
C4_3 C 0.5996(4) 0.0778(3) 0.6170(2)
H4_3 H 0.6472 0.0154 0.6022
H5_3 H 0.5283 0.0513 0.6425
C5_3 C 0.5525(3) 0.1380(3) 0.5434(2)
C6_3 C 0.5531(3) 0.2323(3) 0.4394(2)
C7_3 C 0.5970(4) 0.2991(4) 0.3747(2)
H6_3 H 0.5265 0.3195 0.3385
H7_3 H 0.6377 0.3630 0.3967
H8_3 H 0.6550 0.2580 0.3470
C8_3 C 0.0604(5) 0.0522(5) 0.3393(3)
H9_3 H 0.1297 0.0058 0.3565
H11_3 H 0.0803 0.0934 0.2942
C9_3 C 0.0355(3) 0.1271(3) 0.4046(2)
C10_3 C 0.0567(3) 0.2508(3) 0.4919(2)
C11_3 C 0.1097(3) 0.3384(3) 0.5455(2)
H12_3 H 0.1716 0.3071 0.5844
H13_3 H 0.0430 0.3682 0.5737
C12_3 C 0.1693(3) 0.4279(3) 0.5041(2)
C13_3 C 0.2863(3) 0.5121(3) 0.4305(2)
C14_3 C 0.3823(4) 0.5381(3) 0.3751(3)
H14_3 H 0.3656 0.4968 0.3273
H15_3 H 0.3789 0.6140 0.3627
H16_3 H 0.4642 0.5202 0.3997
N13_2 N 0.9434(3) 0.2083(3) 0.49410(19)
N2_3 N 0.9296(3) 0.1274(3) 0.4375(2)
H10_3 H 0.9873 0.0089 0.3251
C13_4 C 0.2137(3) 0.0121(3) 0.0695(2)
C14_4 C 0.1177(4) 0.0381(3) 0.1249(3)
H15_4 H 0.1211 0.1140 0.1373
H16_4 H 0.0358 0.0202 0.1003
N1_4 N 0.3813(3) 0.7023(3) 0.06344(18)
N2_4 N 0.5704(3) 0.6274(3) 0.0625(2)
N3_2 N 0.5566(3) 0.7083(3) 0.00590(19)
N4_4 N 0.2444(3) 0.9113(2) 0.04894(17)
N7_4 N 0.0645(3) 0.7014(2) 0.05431(17)
C8_4 C 0.4396(5) 0.5522(5) 0.1607(3)
H9_4 H 0.3703 0.5058 0.1435
H10_4 H 0.5127 0.5089 0.1749
H11_4 H 0.4197 0.5934 0.2058
C9_4 C 0.4645(3) 0.6271(3) 0.0954(2)
C10_4 C 0.4433(3) 0.7508(3) 0.0081(2)
H14_4 H 0.1344 0.9968 0.1727
N8_4 N 0.0648(3) 0.6407(2) 0.98564(17)
C11_4 C 0.3903(3) 0.8384(3) 0.9545(2)
H12_4 H 0.3284 0.8071 0.9156
H13_4 H 0.4570 0.8682 0.9263
C12_4 C 0.3307(3) 0.9279(3) 0.9959(2)
N9_4 N 0.8697(3) 0.6923(2) 0.00082(17)
C6_4 C 0.9469(3) 0.7323(3) 0.0606(2)
C7_4 C 0.9030(4) 0.7991(4) 0.1253(2)
H6_4 H 0.9735 0.8195 0.1615
H7_4 H 0.8623 0.8630 0.1033
H8_4 H 0.8450 0.7580 0.1530
N10_4 N 0.7298(3) 0.7146(2) 0.84565(17)
N11_4 N 0.8267(3) 0.6406(3) 0.74833(18)
C1_4 C 0.5863(4) 0.8447(3) 0.7676(2)
H1_4 H 0.6162 0.9071 0.7975
H2_4 H 0.5700 0.8640 0.7128
H3_4 H 0.5104 0.8191 0.7871
C2_4 C 0.6830(3) 0.7577(3) 0.7762(2)
C3_4 C 0.8195(3) 0.6445(3) 0.8249(2)
C4_4 C 0.9004(4) 0.5778(3) 0.8830(2)
H4_4 H 0.8528 0.5154 0.8978
H5_4 H 0.9717 0.5513 0.8575
C5_4 C 0.9475(3) 0.6380(3) 0.9566(2)
N5_3 N 0.6478(3) 0.9695(2) 0.01655(17)
N5_4 N 0.3522(3) 0.0305(2) 0.98345(17)
loop_
_geom_bond_atom_site_label_1
_geom_bond_atom_site_label_2
_geom_bond_site_symmetry_1
_geom_bond_site_symmetry_2
N2 N3 1_555 1_555
Zn4 N3 1_555 1_555
Zn1 N1 1_555 1_555
Zn4 N9 1_555 1_555
N1 C9 1_555 1_555
N4 Zn1 1_555 1_555
N5 N6 1_555 1_555
N6 C13 1_555 1_555
N7 Zn1 1_555 1_555
N8 N7 1_555 1_555
N9 C5 1_555 1_555
N10 Zn4 1_555 1_555
N11 N12 1_555 1_555
N12 C2 1_555 1_555
C1 H1 1_555 1_555
H2 C1 1_555 1_555
H3 C1 1_555 1_555
C2 N10 1_555 1_555
C3 N10 1_555 1_555
C4 C3 1_555 1_555
H4 C4 1_555 1_555
H5 C4 1_555 1_555
C5 N8 1_555 1_555
C6 N7 1_555 1_555
C7 C6 1_555 1_555
H6 C7 1_555 1_555
H7 C7 1_555 1_555
H8 C7 1_555 1_555
C8 H9 1_555 1_555
H11 C8 1_555 1_555
C10 N1 1_555 1_555
C11 C10 1_555 1_555
H12 C11 1_555 1_555
H13 C11 1_555 1_555
C12 N4 1_555 1_555
C13 N4 1_555 1_555
C14 C13 1_555 1_555
H14 C14 1_555 1_555
H15 C14 1_555 1_555
H16 C14 1_555 1_555
Zn3 N12 1_555 1_555
Zn5 N6 1_555 1_555
N14 Zn4 1_555 1_555
N15 Zn1 1_555 1_555
N5 C12 1_555 1_555
N9 C6 1_555 1_555
N11 C3 1_555 1_555
C1 C2 1_555 1_555
C4 C5 1_555 1_555
C8 C9 1_555 1_555
C11 C12 1_555 1_555
N10_2 Zn2 1_555 1_555
N11_2 N12_2 1_555 1_555
N12_2 C2_2 1_555 1_555
C1_2 H1_2 1_555 1_555
H2_2 C1_2 1_555 1_555
H3_2 C1_2 1_555 1_555
C2_2 N10_2 1_555 1_555
C3_2 N10_2 1_555 1_555
C4_2 C3_2 1_555 1_555
H4_2 C4_2 1_555 1_555
H5_2 C4_2 1_555 1_555
Zn3_2 N12_2 1_555 1_555
N14_2 Zn2 1_555 1_555
N11_2 C3_2 1_555 1_555
C1_2 C2_2 1_555 1_555
C4_2 C5_2 1_555 1_555
C7_2 C6_2 1_555 1_555
H6_2 C7_2 1_555 1_555
H7_2 C7_2 1_555 1_555
H8_2 C7_2 1_555 1_555
N9_2 C6_2 1_555 1_555
H12_2 C11_2 1_555 1_555
H13_2 C11_2 1_555 1_555
C11_2 C12_2 1_555 1_555
Zn1_2 N1_2 1_555 1_555
N1_2 C9_2 1_555 1_555
N2_2 N13 1_555 1_555
N13 C10_2 1_555 1_555
N4_2 Zn1_2 1_555 1_555
N7_2 Zn1_2 1_555 1_555
C8_2 H9_2 1_555 1_555
H10_2 C8_2 1_555 1_555
H11_2 C8_2 1_555 1_555
C9_2 N2_2 1_555 1_555
C10_2 N1_2 1_555 1_555
N15_2 Zn1_2 1_555 1_555
C8_2 C9_2 1_555 1_555
N6_2 C13_2 1_555 1_555
C14_2 C13_2 1_555 1_555
H15_2 C14_2 1_555 1_555
H16_2 C14_2 1_555 1_555
Zn5_2 N6_2 1_555 1_555
Zn3_2 N1_3 1_555 1_555
Zn5 N9_3 1_555 1_555
N1_3 C9_3 1_555 1_555
N4_3 Zn3_2 1_555 1_555
N5_2 N14 1_555 1_555
N14 C13_3 1_555 1_555
N7_3 Zn3_2 1_555 1_555
N8_3 N7_3 1_555 1_555
N9_3 C5_3 1_555 1_555
N10_3 Zn5 1_555 1_555
N11_3 N15_2 1_555 1_555
N15_2 C2_3 1_555 1_555
C1_3 H1_3 1_555 1_555
H2_3 C1_3 1_555 1_555
H3_3 C1_3 1_555 1_555
C2_3 N10_3 1_555 1_555
C3_3 N10_3 1_555 1_555
C4_3 C3_3 1_555 1_555
H4_3 C4_3 1_555 1_555
H5_3 C4_3 1_555 1_555
C5_3 N8_3 1_555 1_555
C6_3 N7_3 1_555 1_555
C7_3 C6_3 1_555 1_555
H6_3 C7_3 1_555 1_555
H7_3 C7_3 1_555 1_555
H8_3 C7_3 1_555 1_555
C8_3 H9_3 1_555 1_555
H11_3 C8_3 1_555 1_555
C10_3 N1_3 1_555 1_555
C11_3 C10_3 1_555 1_555
H12_3 C11_3 1_555 1_555
H13_3 C11_3 1_555 1_555
C12_3 N4_3 1_555 1_555
C13_3 N4_3 1_555 1_555
C14_3 C13_3 1_555 1_555
H14_3 C14_3 1_555 1_555
H15_3 C14_3 1_555 1_555
H16_3 C14_3 1_555 1_555
N13_2 Zn5 1_555 1_555
N5_2 C12_3 1_555 1_555
N9_3 C6_3 1_555 1_555
N11_3 C3_3 1_555 1_555
C1_3 C2_3 1_555 1_555
C4_3 C5_3 1_555 1_555
C8_3 C9_3 1_555 1_555
C11_3 C12_3 1_555 1_555
N2_3 N13_2 1_555 1_555
N14_2 C13_4 1_555 1_555
C14_4 C13_4 1_555 1_555
H15_4 C14_4 1_555 1_555
H16_4 C14_4 1_555 1_555
Zn3 N1_4 1_555 1_555
N1_4 C9_4 1_555 1_555
N2_4 N3_2 1_555 1_555
N3_2 C10_4 1_555 1_555
N4_4 Zn3 1_555 1_555
N7_4 Zn3 1_555 1_555
C8_4 H9_4 1_555 1_555
H10_4 C8_4 1_555 1_555
H11_4 C8_4 1_555 1_555
C9_4 N2_4 1_555 1_555
C10_4 N1_4 1_555 1_555
C8_4 C9_4 1_555 1_555
H12_4 C11_4 1_555 1_555
H13_4 C11_4 1_555 1_555
C11_4 C12_4 1_555 1_555
C7_4 C6_4 1_555 1_555
H6_4 C7_4 1_555 1_555
H7_4 C7_4 1_555 1_555
H8_4 C7_4 1_555 1_555
N9_4 C6_4 1_555 1_555
N10_4 Zn5_2 1_555 1_555
N11_4 N15 1_555 1_555
N15 C2_4 1_555 1_555
C1_4 H1_4 1_555 1_555
H2_4 C1_4 1_555 1_555
H3_4 C1_4 1_555 1_555
C2_4 N10_4 1_555 1_555
C3_4 N10_4 1_555 1_555
C4_4 C3_4 1_555 1_555
H4_4 C4_4 1_555 1_555
H5_4 C4_4 1_555 1_555
N11_4 C3_4 1_555 1_555
C1_4 C2_4 1_555 1_555
C4_4 C5_4 1_555 1_555

#END
