
###############################################################################
#
# This file contains modified crystal structure data generated from the
# MOF subset of the Cambridge Structural Database (CSD) v543 
# hosted by the Cambridge Crystallographic Data Centre (CCDC).
#
# This work is licensed under the Creative Commons
# Attribution-NonCommercial-ShareAlike 4.0 International License.
# To view a copy of this license, visit
# http://creativecommons.org/licenses/by-nc-sa/4.0/
# or send a letter to
# Creative Commons, PO Box 1866, Mountain View, CA 94042, USA.
#
# CIF created using the CSD Python API on 29 September 2022
# The structure has been converted into the P1 space group
# The structure has a 3D framework
# The original CSD entry SOCNUW is in the monoclinic crystal system
# The framework has been calculated to contain at least 10.0% void space
# The void calculation uses a probe of radius 1.32A, grid spacing 0.4
#
###############################################################################

data_SOCNUW
_chemical_formula_moiety         '(C56 H56 N50 O4 Zn8)n'
_symmetry_cell_setting           triclinic
_symmetry_space_group_name_H-M   'P 1'
_symmetry_Int_Tables_number      1
_space_group_name_Hall           'P 1'
loop_
_symmetry_equiv_pos_site_id
_symmetry_equiv_pos_as_xyz
1 x,y,z
_cell_length_a                   10.5156(13)
_cell_length_b                   12.5190(9)
_cell_length_c                   17.3806(13)
_cell_angle_alpha                90
_cell_angle_beta                 95.616(9)
_cell_angle_gamma                90
_cell_volume                     2277.08
loop_
_atom_site_label
_atom_site_type_symbol
_atom_site_fract_x
_atom_site_fract_y
_atom_site_fract_z
H10 H 0.0156 0.0007 0.6617
N2 N 0.0763(8) 0.8777(6) 0.5572(5)
N3 N 0.0638(6) 0.7950(6) 0.5062(4)
Zn4 Zn 0.20988(9) 0.74260(7) 0.45458(5)
Zn1 Zn 0.73299(9) 0.73284(8) 0.60700(5)
N1 N 0.8924(6) 0.7941(5) 0.5692(4)
N4 N 0.7558(6) 0.5877(5) 0.5583(4)
N5 N 0.8461(6) 0.4665(5) 0.4844(4)
N6 N 0.7674(7) 0.4149(5) 0.5312(4)
N7 N 0.5736(6) 0.7913(5) 0.5559(3)
N8 N 0.5782(7) 0.8500(6) 0.4895(4)
N9 N 0.3778(6) 0.8032(5) 0.5000(4)
N10 N 0.2379(7) 0.7822(5) 0.3468(4)
N11 N 0.3411(7) 0.8557(7) 0.2536(4)
N12 N 0.2494(7) 0.7854(6) 0.2207(4)
C1 C 0.0921(11) 0.6505(10) 0.2588(8)
H1 H 0.1110 0.5924 0.2942
H2 H 0.0970 0.6259 0.2069
H3 H 0.0075 0.6766 0.2640
C2 C 0.1911(9) 0.7425(6) 0.2774(4)
C3 C 0.3304(8) 0.8488(7) 0.3276(5)
C4 C 0.4124(11) 0.9168(9) 0.3867(6)
H4 H 0.4859 0.9436 0.3630
H5 H 0.3629 0.9778 0.4009
C5 C 0.4582(8) 0.8551(6) 0.4587(5)
C6 C 0.4521(8) 0.7644(6) 0.5602(5)
C7 C 0.4014(11) 0.7064(12) 0.6256(6)
H6 H 0.4703 0.6906 0.6643
H7 H 0.3619 0.6410 0.6070
H8 H 0.3394 0.7502 0.6477
C8 C 0.9460(14) 0.9509(11) 0.6548(9)
H9 H 0.8679 0.9889 0.6404
H11 H 0.9391 0.9130 0.7022
C9 C 0.9692(9) 0.8753(7) 0.5939(6)
C10 C 0.9552(7) 0.7463(6) 0.5142(5)
C11 C 0.8376(7) 0.5690(6) 0.5022(4)
C12 C 0.7151(8) 0.4899(7) 0.5730(5)
C13 C 0.6174(10) 0.4661(9) 0.6302(7)
H12 H 0.6383 0.5063 0.6767
H13 H 0.6188 0.3912 0.6420
H14 H 0.5337 0.4859 0.6077
C14 C 0.9105(9) 0.6520(7) 0.4672(5)
O1 O 0.9559(8) 0.6374(6) 0.4069(4)
Zn3 Zn 0.23299(9) 0.76716(8) 0.10700(5)
Zn5 Zn 0.79012(9) 0.25740(7) 0.54542(5)
N14 N 0.2326(7) 0.5851(5) 0.4688(4)
N15 N 0.7494(7) 0.7146(6) 0.7207(4)
Zn2 Zn 0.29012(9) 0.24260(7) 0.04542(5)
N9_2 N 0.1222(6) 0.3032(5) 0.0000(4)
N10_2 N 0.2621(7) 0.2822(5) 0.1532(4)
N11_2 N 0.1589(7) 0.3557(7) 0.2464(4)
N12_2 N 0.2506(7) 0.2854(6) 0.2793(4)
C1_2 C 0.4079(11) 0.1505(10) 0.2412(8)
H1_2 H 0.3890 0.0924 0.2058
H2_2 H 0.4030 0.1259 0.2931
H3_2 H 0.4925 0.1766 0.2360
C2_2 C 0.3089(9) 0.2425(6) 0.2226(4)
C3_2 C 0.1696(8) 0.3488(7) 0.1724(5)
C4_2 C 0.0876(11) 0.4168(9) 0.1133(6)
H4_2 H 0.0141 0.4436 0.1370
H5_2 H 0.1371 0.4778 0.0991
C5_2 C 0.0418(8) 0.3551(6) 0.0413(5)
Zn3_2 Zn 0.26701(9) 0.26716(8) 0.39300(5)
N14_2 N 0.2674(7) 0.0851(5) 0.0312(4)
N9_3 N 0.1222(6) 0.3032(5) 1.0000(4)
C6_2 C 0.0479(8) 0.2644(6) 0.9398(5)
C7_2 C 0.0986(11) 0.2064(12) 0.8744(6)
H6_2 H 0.0297 0.1906 0.8357
H7_2 H 0.1381 0.1410 0.8930
H8_2 H 0.1606 0.2502 0.8523
N13 N 0.4362(6) 0.2950(6) 0.9938(4)
N8_2 N 0.9218(7) 0.3500(6) 0.0105(4)
C14_2 C 0.5895(9) 0.1520(7) 0.0328(5)
O1_2 O 0.5441(8) 0.1374(6) 0.0931(4)
Zn1_2 Zn 0.76701(9) 0.23284(8) 0.89300(5)
N1_2 N 0.6076(6) 0.2941(5) 0.9308(4)
N2_2 N 0.4237(8) 0.3777(6) 0.9428(5)
N4_2 N 0.7442(6) 0.0877(5) 0.9417(4)
N7_2 N 0.9264(6) 0.2913(5) 0.9441(3)
C8_2 C 0.5540(14) 0.4509(11) 0.8452(9)
H9_2 H 0.6321 0.4889 0.8596
H10_2 H 0.4844 0.5007 0.8383
H11_2 H 0.5609 0.4130 0.7978
C9_2 C 0.5308(9) 0.3753(7) 0.9061(6)
C10_2 C 0.5448(7) 0.2463(6) 0.9858(5)
C11_2 C 0.6624(7) 0.0690(6) 0.9978(4)
H12_2 H 0.8617 0.0063 0.8233
N15_2 N 0.7506(7) 0.2146(6) 0.7793(4)
N6_2 N 0.7326(7) 0.9149(5) 0.9688(4)
C12_2 C 0.7849(8) 0.9899(7) 0.9270(5)
C13_2 C 0.8826(10) 0.9661(9) 0.8698(7)
H13_2 H 0.8812 0.8912 0.8580
H14_2 H 0.9663 0.9859 0.8923
Zn5_2 Zn 0.70988(9) 0.75740(7) 0.95458(5)
N1_3 N 0.1076(6) 0.2059(5) 0.4308(4)
N4_3 N 0.2442(6) 0.4123(5) 0.4417(4)
N5_2 N 0.1539(6) 0.5335(5) 0.5156(4)
N7_3 N 0.4264(6) 0.2087(5) 0.4441(3)
N8_3 N 0.4218(7) 0.1500(6) 0.5105(4)
N9_4 N 0.6222(6) 0.1968(5) 0.5000(4)
N10_3 N 0.7621(7) 0.2178(5) 0.6532(4)
N11_3 N 0.6589(7) 0.1443(7) 0.7464(4)
C1_3 C 0.9079(11) 0.3495(10) 0.7412(8)
H1_3 H 0.8890 0.4076 0.7058
H2_3 H 0.9030 0.3741 0.7931
H3_3 H 0.9925 0.3234 0.7360
C2_3 C 0.8089(9) 0.2575(6) 0.7226(4)
C3_3 C 0.6696(8) 0.1512(7) 0.6724(5)
C4_3 C 0.5876(11) 0.0832(9) 0.6133(6)
H4_3 H 0.5141 0.0564 0.6370
H5_3 H 0.6371 0.0222 0.5991
C5_3 C 0.5418(8) 0.1449(6) 0.5413(5)
C6_3 C 0.5479(8) 0.2356(6) 0.4398(5)
C7_3 C 0.5986(11) 0.2936(12) 0.3744(6)
H6_3 H 0.5297 0.3094 0.3357
H7_3 H 0.6381 0.3590 0.3930
H8_3 H 0.6606 0.2498 0.3523
C8_3 C 0.0540(14) 0.0491(11) 0.3452(9)
H9_3 H 0.1321 0.0111 0.3596
H11_3 H 0.0609 0.0870 0.2978
C9_3 C 0.0308(9) 0.1247(7) 0.4061(6)
C10_3 C 0.0448(7) 0.2537(6) 0.4858(5)
C11_3 C 0.1624(7) 0.4310(6) 0.4978(4)
C12_3 C 0.2849(8) 0.5101(7) 0.4270(5)
C13_3 C 0.3826(10) 0.5339(9) 0.3698(7)
H12_3 H 0.3617 0.4937 0.3233
H13_3 H 0.3812 0.6088 0.3580
H14_3 H 0.4663 0.5141 0.3923
C14_3 C 0.0895(9) 0.3480(7) 0.5328(5)
O1_3 O 0.0441(8) 0.3626(6) 0.5931(4)
N13_2 N 0.9362(6) 0.2050(6) 0.4938(4)
N2_3 N 0.9237(8) 0.1223(6) 0.4428(5)
C12_4 C 0.2151(8) 0.0101(7) 0.0730(5)
C13_4 C 0.1174(10) 0.0339(9) 0.1302(7)
H13_4 H 0.1188 0.1088 0.1420
H14_4 H 0.0337 0.0141 0.1077
N1_4 N 0.3924(6) 0.7059(5) 0.0692(4)
N2_4 N 0.5763(8) 0.6223(6) 0.0572(5)
N3_2 N 0.5638(6) 0.7050(6) 0.0062(4)
N4_4 N 0.2558(6) 0.9123(5) 0.0583(4)
N7_4 N 0.0736(6) 0.7087(5) 0.0559(3)
C8_4 C 0.4460(14) 0.5491(11) 0.1548(9)
H9_4 H 0.3679 0.5111 0.1404
H10_3 H 0.5156 0.4993 0.1617
H11_4 H 0.4391 0.5870 0.2022
C9_4 C 0.4692(9) 0.6247(7) 0.0939(6)
C10_4 C 0.4552(7) 0.7537(6) 0.0142(5)
C11_4 C 0.3376(7) 0.9310(6) 0.0022(4)
H12_4 H 0.1383 0.9937 0.1767
N8_4 N 0.0782(7) 0.6500(6) 0.9895(4)
C14_4 C 0.4105(9) 0.8480(7) 0.9672(5)
O1_4 O 0.4559(8) 0.8626(6) 0.9069(4)
N9_5 N 0.8778(6) 0.6968(5) 0.0000(4)
C6_4 C 0.9521(8) 0.7356(6) 0.0602(5)
C7_4 C 0.9014(11) 0.7936(12) 0.1256(6)
H6_4 H 0.9703 0.8094 0.1643
H7_4 H 0.8619 0.8590 0.1070
H8_4 H 0.8394 0.7498 0.1477
N9_6 N 0.8778(6) 0.6968(5) 1.0000(4)
N10_4 N 0.7379(7) 0.7178(5) 0.8468(4)
N11_4 N 0.8411(7) 0.6443(7) 0.7536(4)
C1_4 C 0.5921(11) 0.8495(10) 0.7588(8)
H1_4 H 0.6110 0.9076 0.7942
H2_4 H 0.5970 0.8741 0.7069
H3_4 H 0.5075 0.8234 0.7640
C2_4 C 0.6911(9) 0.7575(6) 0.7774(4)
C3_4 C 0.8304(8) 0.6512(7) 0.8276(5)
C4_4 C 0.9124(11) 0.5832(9) 0.8867(6)
H4_4 H 0.9859 0.5564 0.8630
H5_4 H 0.8629 0.5222 0.9009
C5_4 C 0.9582(8) 0.6449(6) 0.9587(5)
N5_3 N 0.6539(6) 0.9665(5) 0.0156(4)
H10_4 H 0.9844 0.9993 0.3383
N5_4 N 0.3461(6) 0.0335(5) 0.9844(4)
loop_
_geom_bond_atom_site_label_1
_geom_bond_atom_site_label_2
_geom_bond_site_symmetry_1
_geom_bond_site_symmetry_2
N2 N3 1_555 1_555
Zn4 N3 1_555 1_555
Zn1 N1 1_555 1_555
Zn4 N9 1_555 1_555
N1 C9 1_555 1_555
N4 Zn1 1_555 1_555
N5 N6 1_555 1_555
N6 C12 1_555 1_555
N7 Zn1 1_555 1_555
N8 N7 1_555 1_555
N9 C5 1_555 1_555
N10 Zn4 1_555 1_555
N11 N12 1_555 1_555
N12 C2 1_555 1_555
C1 H1 1_555 1_555
H2 C1 1_555 1_555
H3 C1 1_555 1_555
C2 N10 1_555 1_555
C3 N10 1_555 1_555
C4 C3 1_555 1_555
H4 C4 1_555 1_555
H5 C4 1_555 1_555
C5 N8 1_555 1_555
C6 N7 1_555 1_555
C7 C6 1_555 1_555
H6 C7 1_555 1_555
H7 C7 1_555 1_555
H8 C7 1_555 1_555
C8 H9 1_555 1_555
H11 C8 1_555 1_555
C10 N1 1_555 1_555
C11 N4 1_555 1_555
C12 N4 1_555 1_555
C13 C12 1_555 1_555
H12 C13 1_555 1_555
H13 C13 1_555 1_555
H14 C13 1_555 1_555
C14 C10 1_555 1_555
O1 C14 1_555 1_555
Zn3 N12 1_555 1_555
Zn5 N6 1_555 1_555
N14 Zn4 1_555 1_555
N15 Zn1 1_555 1_555
N5 C11 1_555 1_555
N9 C6 1_555 1_555
N11 C3 1_555 1_555
C1 C2 1_555 1_555
C4 C5 1_555 1_555
C8 C9 1_555 1_555
C11 C14 1_555 1_555
Zn2 N9_2 1_555 1_555
N9_2 C5_2 1_555 1_555
N10_2 Zn2 1_555 1_555
N11_2 N12_2 1_555 1_555
N12_2 C2_2 1_555 1_555
C1_2 H1_2 1_555 1_555
H2_2 C1_2 1_555 1_555
H3_2 C1_2 1_555 1_555
C2_2 N10_2 1_555 1_555
C3_2 N10_2 1_555 1_555
C4_2 C3_2 1_555 1_555
H4_2 C4_2 1_555 1_555
H5_2 C4_2 1_555 1_555
Zn3_2 N12_2 1_555 1_555
N14_2 Zn2 1_555 1_555
N11_2 C3_2 1_555 1_555
C1_2 C2_2 1_555 1_555
C4_2 C5_2 1_555 1_555
C7_2 C6_2 1_555 1_555
H6_2 C7_2 1_555 1_555
H7_2 C7_2 1_555 1_555
H8_2 C7_2 1_555 1_555
N9_3 C6_2 1_555 1_555
O1_2 C14_2 1_555 1_555
Zn1_2 N1_2 1_555 1_555
N1_2 C9_2 1_555 1_555
N2_2 N13 1_555 1_555
N13 C10_2 1_555 1_555
N4_2 Zn1_2 1_555 1_555
N7_2 Zn1_2 1_555 1_555
C8_2 H9_2 1_555 1_555
H10_2 C8_2 1_555 1_555
H11_2 C8_2 1_555 1_555
C9_2 N2_2 1_555 1_555
C10_2 N1_2 1_555 1_555
C11_2 N4_2 1_555 1_555
N15_2 Zn1_2 1_555 1_555
C8_2 C9_2 1_555 1_555
N6_2 C12_2 1_555 1_555
C13_2 C12_2 1_555 1_555
H13_2 C13_2 1_555 1_555
H14_2 C13_2 1_555 1_555
Zn5_2 N6_2 1_555 1_555
Zn3_2 N1_3 1_555 1_555
Zn5 N9_4 1_555 1_555
N1_3 C9_3 1_555 1_555
N4_3 Zn3_2 1_555 1_555
N5_2 N14 1_555 1_555
N14 C12_3 1_555 1_555
N7_3 Zn3_2 1_555 1_555
N8_3 N7_3 1_555 1_555
N9_4 C5_3 1_555 1_555
N10_3 Zn5 1_555 1_555
N11_3 N15_2 1_555 1_555
N15_2 C2_3 1_555 1_555
C1_3 H1_3 1_555 1_555
H2_3 C1_3 1_555 1_555
H3_3 C1_3 1_555 1_555
C2_3 N10_3 1_555 1_555
C3_3 N10_3 1_555 1_555
C4_3 C3_3 1_555 1_555
H4_3 C4_3 1_555 1_555
H5_3 C4_3 1_555 1_555
C5_3 N8_3 1_555 1_555
C6_3 N7_3 1_555 1_555
C7_3 C6_3 1_555 1_555
H6_3 C7_3 1_555 1_555
H7_3 C7_3 1_555 1_555
H8_3 C7_3 1_555 1_555
C8_3 H9_3 1_555 1_555
H11_3 C8_3 1_555 1_555
C10_3 N1_3 1_555 1_555
C11_3 N4_3 1_555 1_555
C12_3 N4_3 1_555 1_555
C13_3 C12_3 1_555 1_555
H12_3 C13_3 1_555 1_555
H13_3 C13_3 1_555 1_555
H14_3 C13_3 1_555 1_555
C14_3 C10_3 1_555 1_555
O1_3 C14_3 1_555 1_555
N13_2 Zn5 1_555 1_555
N5_2 C11_3 1_555 1_555
N9_4 C6_3 1_555 1_555
N11_3 C3_3 1_555 1_555
C1_3 C2_3 1_555 1_555
C4_3 C5_3 1_555 1_555
C8_3 C9_3 1_555 1_555
C11_3 C14_3 1_555 1_555
N2_3 N13_2 1_555 1_555
N14_2 C12_4 1_555 1_555
C13_4 C12_4 1_555 1_555
H13_4 C13_4 1_555 1_555
H14_4 C13_4 1_555 1_555
Zn3 N1_4 1_555 1_555
N1_4 C9_4 1_555 1_555
N2_4 N3_2 1_555 1_555
N3_2 C10_4 1_555 1_555
N4_4 Zn3 1_555 1_555
N7_4 Zn3 1_555 1_555
C8_4 H9_4 1_555 1_555
H10_3 C8_4 1_555 1_555
H11_4 C8_4 1_555 1_555
C9_4 N2_4 1_555 1_555
C10_4 N1_4 1_555 1_555
C11_4 N4_4 1_555 1_555
C8_4 C9_4 1_555 1_555
O1_4 C14_4 1_555 1_555
C7_4 C6_4 1_555 1_555
H6_4 C7_4 1_555 1_555
H7_4 C7_4 1_555 1_555
H8_4 C7_4 1_555 1_555
N9_5 C6_4 1_555 1_555
Zn5_2 N9_6 1_555 1_555
N9_6 C5_4 1_555 1_555
N10_4 Zn5_2 1_555 1_555
N11_4 N15 1_555 1_555
N15 C2_4 1_555 1_555
C1_4 H1_4 1_555 1_555
H2_4 C1_4 1_555 1_555
H3_4 C1_4 1_555 1_555
C2_4 N10_4 1_555 1_555
C3_4 N10_4 1_555 1_555
C4_4 C3_4 1_555 1_555
H4_4 C4_4 1_555 1_555
H5_4 C4_4 1_555 1_555
N11_4 C3_4 1_555 1_555
C1_4 C2_4 1_555 1_555
C4_4 C5_4 1_555 1_555

#END
