
###############################################################################
#
# This file contains modified crystal structure data generated from the
# MOF subset of the Cambridge Structural Database (CSD) v543 
# hosted by the Cambridge Crystallographic Data Centre (CCDC).
#
# This work is licensed under the Creative Commons
# Attribution-NonCommercial-ShareAlike 4.0 International License.
# To view a copy of this license, visit
# http://creativecommons.org/licenses/by-nc-sa/4.0/
# or send a letter to
# Creative Commons, PO Box 1866, Mountain View, CA 94042, USA.
#
# CIF created using the CSD Python API on 29 September 2022
# The structure has been converted into the P1 space group
# The structure has a 3D framework
# The original CSD entry SOCPAE is in the monoclinic crystal system
# The framework has been calculated to contain at least 10.0% void space
# The void calculation uses a probe of radius 1.32A, grid spacing 0.4
#
###############################################################################

data_SOCPAE
_chemical_formula_moiety         '(C56 H56 N48 O4 Zn8)n'
_symmetry_cell_setting           triclinic
_symmetry_space_group_name_H-M   'P 1'
_symmetry_Int_Tables_number      1
_space_group_name_Hall           'P 1'
loop_
_symmetry_equiv_pos_site_id
_symmetry_equiv_pos_as_xyz
1 x,y,z
_cell_length_a                   10.4388(10)
_cell_length_b                   12.4676(13)
_cell_length_c                   17.4292(18)
_cell_angle_alpha                90
_cell_angle_beta                 95.517(9)
_cell_angle_gamma                90
_cell_volume                     2257.85
loop_
_atom_site_label
_atom_site_type_symbol
_atom_site_fract_x
_atom_site_fract_y
_atom_site_fract_z
N2 N 0.0775(6) 0.8764(5) 0.5558(4)
N3 N 0.0627(5) 0.7946(5) 0.5047(3)
H10 H 0.0266 0.9961 0.6651
Zn4 Zn 0.20951(7) 0.74234(6) 0.45244(4)
Zn1 Zn 0.73261(7) 0.73456(6) 0.60656(4)
N1 N 0.8915(5) 0.7962(4) 0.5676(3)
N4 N 0.7553(4) 0.5887(4) 0.5593(3)
N5 N 0.8439(5) 0.4683(4) 0.4863(3)
N6 N 0.7677(5) 0.4154(4) 0.5335(3)
N7 N 0.5724(5) 0.7936(4) 0.5555(3)
N8 N 0.5792(5) 0.8507(5) 0.4890(3)
N9 N 0.3765(4) 0.8031(4) 0.4982(3)
N10 N 0.2379(5) 0.7823(4) 0.3445(3)
N11 N 0.3422(5) 0.8526(5) 0.2517(3)
N12 N 0.2507(5) 0.7823(5) 0.2199(3)
C1 C 0.0896(8) 0.6519(8) 0.2621(6)
H1 H 0.1088 0.5942 0.2996
H2 H 0.0916 0.6236 0.2098
H3 H 0.0040 0.6812 0.2680
C2 C 0.1915(6) 0.7419(5) 0.2762(4)
C3 C 0.3340(6) 0.8485(6) 0.3254(4)
C4 C 0.4166(9) 0.9162(7) 0.3844(5)
H4 H 0.4933 0.9422 0.3606
H5 H 0.3665 0.9797 0.3980
C5 C 0.4603(6) 0.8550(5) 0.4571(4)
C6 C 0.4488(6) 0.7667(5) 0.5591(4)
C7 C 0.3970(8) 0.7089(8) 0.6234(5)
H6 H 0.3439 0.6486 0.6029
H7 H 0.3444 0.7579 0.6511
H8 H 0.4684 0.6818 0.6587
C8 C 0.9498(10) 0.9515(9) 0.6536(7)
H9 H 0.8762 0.9973 0.6367
H11 H 0.9319 0.9122 0.7001
C9 C 0.9720(7) 0.8753(6) 0.5924(4)
C10 C 0.9525(6) 0.7472(5) 0.5143(4)
C11 C 0.9045(8) 0.6549(7) 0.4661(4)
C12 C 0.8338(5) 0.5704(5) 0.5024(3)
C13 C 0.7163(6) 0.4905(6) 0.5750(4)
C14 C 0.6188(8) 0.4672(7) 0.6320(6)
H12 H 0.6509 0.4091 0.6666
H13 H 0.5370 0.4456 0.6040
H14 H 0.6056 0.5318 0.6623
O1 O 0.9507(6) 0.6366(5) 0.4061(3)
Zn3 Zn 0.23261(7) 0.76544(6) 0.10656(4)
Zn5 Zn 0.79049(7) 0.25766(6) 0.54756(4)
N14 N 0.2323(5) 0.5846(4) 0.4665(3)
N15 N 0.7507(5) 0.7177(5) 0.7199(3)
Zn2 Zn 0.29049(7) 0.24234(6) 0.04756(4)
N9_2 N 0.1235(4) 0.3031(4) 0.0018(3)
N10_2 N 0.2621(5) 0.2823(4) 0.1555(3)
N11_2 N 0.1578(5) 0.3526(5) 0.2483(3)
N12_2 N 0.2493(5) 0.2823(5) 0.2801(3)
C1_2 C 0.4104(8) 0.1519(8) 0.2379(6)
H1_2 H 0.3912 0.0942 0.2004
H2_2 H 0.4084 0.1236 0.2902
H3_2 H 0.4960 0.1812 0.2320
C2_2 C 0.3085(6) 0.2419(5) 0.2238(4)
C3_2 C 0.1660(6) 0.3485(6) 0.1746(4)
C4_2 C 0.0834(9) 0.4162(7) 0.1156(5)
H4_2 H 0.0067 0.4422 0.1394
H5_2 H 0.1335 0.4797 0.1020
C5_2 C 0.0397(6) 0.3550(5) 0.0429(4)
Zn3_2 Zn 0.26739(7) 0.26544(6) 0.39344(4)
N14_2 N 0.2677(5) 0.0846(4) 0.0335(3)
C6_2 C 0.0512(6) 0.2667(5) 0.9409(4)
C7_2 C 0.1030(8) 0.2089(8) 0.8766(5)
H6_2 H 0.1561 0.1486 0.8971
H7_2 H 0.1556 0.2579 0.8489
H8_2 H 0.0316 0.1818 0.8413
N13 N 0.4373(5) 0.2946(5) 0.9953(3)
N8_2 N 0.9208(5) 0.3507(5) 0.0110(3)
C11_2 C 0.5955(8) 0.1549(7) 0.0339(4)
O1_2 O 0.5493(6) 0.1366(5) 0.0939(3)
Zn1_2 Zn 0.76739(7) 0.23456(6) 0.89344(4)
N1_2 N 0.6085(5) 0.2962(4) 0.9324(3)
N2_2 N 0.4225(6) 0.3764(5) 0.9442(4)
N4_2 N 0.7447(4) 0.0887(4) 0.9407(3)
N7_2 N 0.9276(5) 0.2936(4) 0.9445(3)
C8_2 C 0.5502(10) 0.4515(9) 0.8464(7)
H9_2 H 0.6238 0.4973 0.8633
H10_2 H 0.4734 0.4961 0.8349
H11_2 H 0.5681 0.4122 0.7999
C9_2 C 0.5280(7) 0.3753(6) 0.9076(4)
C10_2 C 0.5475(6) 0.2472(5) 0.9857(4)
C12_2 C 0.6662(5) 0.0704(5) 0.9976(3)
H14_2 H 0.8944 0.0318 0.8377
N15_2 N 0.7493(5) 0.2177(5) 0.7801(3)
N6_2 N 0.7323(5) 0.9154(4) 0.9665(3)
C13_2 C 0.7837(6) 0.9905(6) 0.9250(4)
C14_2 C 0.8812(8) 0.9672(7) 0.8680(6)
H12_2 H 0.8491 0.9091 0.8334
H13_2 H 0.9630 0.9456 0.8960
Zn5_2 Zn 0.70951(7) 0.75766(6) 0.95244(4)
N1_3 N 0.1085(5) 0.2038(4) 0.4324(3)
N4_3 N 0.2447(4) 0.4113(4) 0.4407(3)
N5_2 N 0.1561(5) 0.5317(4) 0.5137(3)
N7_3 N 0.4276(5) 0.2064(4) 0.4445(3)
N8_3 N 0.4208(5) 0.1493(5) 0.5110(3)
N9_3 N 0.6235(4) 0.1969(4) 0.5018(3)
N10_3 N 0.7621(5) 0.2177(4) 0.6555(3)
N11_3 N 0.6578(5) 0.1474(5) 0.7483(3)
C1_3 C 0.9104(8) 0.3481(8) 0.7379(6)
H1_3 H 0.8912 0.4058 0.7004
H2_3 H 0.9084 0.3764 0.7902
H3_3 H 0.9960 0.3188 0.7320
C2_3 C 0.8085(6) 0.2581(5) 0.7238(4)
C3_3 C 0.6660(6) 0.1515(6) 0.6746(4)
C4_3 C 0.5834(9) 0.0838(7) 0.6156(5)
H4_3 H 0.5067 0.0578 0.6394
H5_3 H 0.6335 0.0203 0.6020
C5_3 C 0.5397(6) 0.1450(5) 0.5429(4)
C6_3 C 0.5512(6) 0.2333(5) 0.4409(4)
C7_3 C 0.6030(8) 0.2911(8) 0.3766(5)
H6_3 H 0.6561 0.3514 0.3971
H7_3 H 0.6556 0.2421 0.3489
H8_3 H 0.5316 0.3182 0.3413
C8_3 C 0.0502(10) 0.0485(9) 0.3464(7)
H9_3 H 0.1238 0.0027 0.3633
H11_3 H 0.0681 0.0878 0.2999
C9_3 C 0.0280(7) 0.1247(6) 0.4076(4)
C10_3 C 0.0475(6) 0.2528(5) 0.4857(4)
C11_3 C 0.0955(8) 0.3451(7) 0.5339(4)
C12_3 C 0.1662(5) 0.4296(5) 0.4976(3)
C13_3 C 0.2837(6) 0.5095(6) 0.4250(4)
C14_3 C 0.3812(8) 0.5328(7) 0.3680(6)
H12_3 H 0.3491 0.5909 0.3334
H13_3 H 0.4630 0.5544 0.3960
H14_3 H 0.3944 0.4682 0.3377
O1_3 O 0.0493(6) 0.3634(5) 0.5939(3)
N13_2 N 0.9373(5) 0.2054(5) 0.4953(3)
N2_3 N 0.9225(6) 0.1236(5) 0.4442(4)
H10_3 H 0.9734 0.0039 0.3349
C13_4 C 0.2163(6) 0.0095(6) 0.0750(4)
C14_4 C 0.1188(8) 0.0328(7) 0.1320(6)
H12_4 H 0.1509 0.0909 0.1666
H13_4 H 0.0370 0.0544 0.1040
N1_4 N 0.3915(5) 0.7038(4) 0.0676(3)
N2_4 N 0.5775(6) 0.6236(5) 0.0558(4)
N3_2 N 0.5627(5) 0.7054(5) 0.0047(3)
N4_4 N 0.2553(4) 0.9113(4) 0.0593(3)
N7_4 N 0.0724(5) 0.7064(4) 0.0555(3)
C8_4 C 0.4498(10) 0.5485(9) 0.1536(7)
H9_4 H 0.3762 0.5027 0.1367
H10_4 H 0.5266 0.5039 0.1651
H11_4 H 0.4319 0.5878 0.2001
C9_4 C 0.4720(7) 0.6247(6) 0.0924(4)
C10_4 C 0.4525(6) 0.7528(5) 0.0143(4)
C12_4 C 0.3338(5) 0.9296(5) 0.0024(3)
H14_4 H 0.1056 0.9682 0.1623
N8_4 N 0.0792(5) 0.6493(5) 0.9890(3)
C11_4 C 0.4045(8) 0.8451(7) 0.9661(4)
O1_4 O 0.4507(6) 0.8634(5) 0.9061(3)
C6_4 C 0.9488(6) 0.7333(5) 0.0591(4)
C7_4 C 0.8970(8) 0.7911(8) 0.1234(5)
H6_4 H 0.8439 0.8514 0.1029
H7_4 H 0.8444 0.7421 0.1511
H8_4 H 0.9684 0.8182 0.1587
N9_4 N 0.8765(4) 0.6969(4) 0.9982(3)
N10_4 N 0.7379(5) 0.7177(4) 0.8445(3)
N11_4 N 0.8422(5) 0.6474(5) 0.7517(3)
C1_4 C 0.5896(8) 0.8481(8) 0.7621(6)
H1_4 H 0.6088 0.9058 0.7996
H2_4 H 0.5916 0.8764 0.7098
H3_4 H 0.5040 0.8188 0.7680
C2_4 C 0.6915(6) 0.7581(5) 0.7762(4)
C3_4 C 0.8340(6) 0.6515(6) 0.8254(4)
C4_4 C 0.9166(9) 0.5838(7) 0.8844(5)
H4_4 H 0.9933 0.5578 0.8606
H5_4 H 0.8665 0.5203 0.8980
C5_4 C 0.9603(6) 0.6450(5) 0.9571(4)
N5_3 N 0.6561(5) 0.9683(4) 0.0137(3)
N5_4 N 0.3439(5) 0.0317(4) 0.9863(3)
loop_
_geom_bond_atom_site_label_1
_geom_bond_atom_site_label_2
_geom_bond_site_symmetry_1
_geom_bond_site_symmetry_2
N2 N3 1_555 1_555
Zn4 N3 1_555 1_555
Zn1 N1 1_555 1_555
Zn4 N9 1_555 1_555
N1 C9 1_555 1_555
N4 Zn1 1_555 1_555
N5 N6 1_555 1_555
N6 C13 1_555 1_555
N7 Zn1 1_555 1_555
N8 N7 1_555 1_555
N9 C5 1_555 1_555
N10 Zn4 1_555 1_555
N11 N12 1_555 1_555
N12 C2 1_555 1_555
C1 H1 1_555 1_555
H2 C1 1_555 1_555
H3 C1 1_555 1_555
C2 N10 1_555 1_555
C3 N10 1_555 1_555
C4 C3 1_555 1_555
H4 C4 1_555 1_555
H5 C4 1_555 1_555
C5 N8 1_555 1_555
C6 N7 1_555 1_555
C7 C6 1_555 1_555
H6 C7 1_555 1_555
H7 C7 1_555 1_555
H8 C7 1_555 1_555
C8 H9 1_555 1_555
H11 C8 1_555 1_555
C10 N1 1_555 1_555
C11 C10 1_555 1_555
C12 N4 1_555 1_555
C13 N4 1_555 1_555
C14 C13 1_555 1_555
H12 C14 1_555 1_555
H13 C14 1_555 1_555
H14 C14 1_555 1_555
O1 C11 1_555 1_555
Zn3 N12 1_555 1_555
Zn5 N6 1_555 1_555
N14 Zn4 1_555 1_555
N15 Zn1 1_555 1_555
N5 C12 1_555 1_555
N9 C6 1_555 1_555
N11 C3 1_555 1_555
C1 C2 1_555 1_555
C4 C5 1_555 1_555
C8 C9 1_555 1_555
C11 C12 1_555 1_555
Zn2 N9_2 1_555 1_555
N9_2 C5_2 1_555 1_555
N10_2 Zn2 1_555 1_555
N11_2 N12_2 1_555 1_555
N12_2 C2_2 1_555 1_555
C1_2 H1_2 1_555 1_555
H2_2 C1_2 1_555 1_555
H3_2 C1_2 1_555 1_555
C2_2 N10_2 1_555 1_555
C3_2 N10_2 1_555 1_555
C4_2 C3_2 1_555 1_555
H4_2 C4_2 1_555 1_555
H5_2 C4_2 1_555 1_555
Zn3_2 N12_2 1_555 1_555
N14_2 Zn2 1_555 1_555
N11_2 C3_2 1_555 1_555
C1_2 C2_2 1_555 1_555
C4_2 C5_2 1_555 1_555
C7_2 C6_2 1_555 1_555
H6_2 C7_2 1_555 1_555
H7_2 C7_2 1_555 1_555
H8_2 C7_2 1_555 1_555
O1_2 C11_2 1_555 1_555
Zn1_2 N1_2 1_555 1_555
N1_2 C9_2 1_555 1_555
N2_2 N13 1_555 1_555
N13 C10_2 1_555 1_555
N4_2 Zn1_2 1_555 1_555
N7_2 Zn1_2 1_555 1_555
C8_2 H9_2 1_555 1_555
H10_2 C8_2 1_555 1_555
H11_2 C8_2 1_555 1_555
C9_2 N2_2 1_555 1_555
C10_2 N1_2 1_555 1_555
C12_2 N4_2 1_555 1_555
N15_2 Zn1_2 1_555 1_555
C8_2 C9_2 1_555 1_555
N6_2 C13_2 1_555 1_555
C14_2 C13_2 1_555 1_555
H12_2 C14_2 1_555 1_555
H13_2 C14_2 1_555 1_555
Zn5_2 N6_2 1_555 1_555
Zn3_2 N1_3 1_555 1_555
Zn5 N9_3 1_555 1_555
N1_3 C9_3 1_555 1_555
N4_3 Zn3_2 1_555 1_555
N5_2 N14 1_555 1_555
N14 C13_3 1_555 1_555
N7_3 Zn3_2 1_555 1_555
N8_3 N7_3 1_555 1_555
N9_3 C5_3 1_555 1_555
N10_3 Zn5 1_555 1_555
N11_3 N15_2 1_555 1_555
N15_2 C2_3 1_555 1_555
C1_3 H1_3 1_555 1_555
H2_3 C1_3 1_555 1_555
H3_3 C1_3 1_555 1_555
C2_3 N10_3 1_555 1_555
C3_3 N10_3 1_555 1_555
C4_3 C3_3 1_555 1_555
H4_3 C4_3 1_555 1_555
H5_3 C4_3 1_555 1_555
C5_3 N8_3 1_555 1_555
C6_3 N7_3 1_555 1_555
C7_3 C6_3 1_555 1_555
H6_3 C7_3 1_555 1_555
H7_3 C7_3 1_555 1_555
H8_3 C7_3 1_555 1_555
C8_3 H9_3 1_555 1_555
H11_3 C8_3 1_555 1_555
C10_3 N1_3 1_555 1_555
C11_3 C10_3 1_555 1_555
C12_3 N4_3 1_555 1_555
C13_3 N4_3 1_555 1_555
C14_3 C13_3 1_555 1_555
H12_3 C14_3 1_555 1_555
H13_3 C14_3 1_555 1_555
H14_3 C14_3 1_555 1_555
O1_3 C11_3 1_555 1_555
N13_2 Zn5 1_555 1_555
N5_2 C12_3 1_555 1_555
N9_3 C6_3 1_555 1_555
N11_3 C3_3 1_555 1_555
C1_3 C2_3 1_555 1_555
C4_3 C5_3 1_555 1_555
C8_3 C9_3 1_555 1_555
C11_3 C12_3 1_555 1_555
N2_3 N13_2 1_555 1_555
N14_2 C13_4 1_555 1_555
C14_4 C13_4 1_555 1_555
H12_4 C14_4 1_555 1_555
H13_4 C14_4 1_555 1_555
Zn3 N1_4 1_555 1_555
N1_4 C9_4 1_555 1_555
N2_4 N3_2 1_555 1_555
N3_2 C10_4 1_555 1_555
N4_4 Zn3 1_555 1_555
N7_4 Zn3 1_555 1_555
C8_4 H9_4 1_555 1_555
H10_4 C8_4 1_555 1_555
H11_4 C8_4 1_555 1_555
C9_4 N2_4 1_555 1_555
C10_4 N1_4 1_555 1_555
C12_4 N4_4 1_555 1_555
C8_4 C9_4 1_555 1_555
O1_4 C11_4 1_555 1_555
C7_4 C6_4 1_555 1_555
H6_4 C7_4 1_555 1_555
H7_4 C7_4 1_555 1_555
H8_4 C7_4 1_555 1_555
Zn5_2 N9_4 1_555 1_555
N9_4 C5_4 1_555 1_555
N10_4 Zn5_2 1_555 1_555
N11_4 N15 1_555 1_555
N15 C2_4 1_555 1_555
C1_4 H1_4 1_555 1_555
H2_4 C1_4 1_555 1_555
H3_4 C1_4 1_555 1_555
C2_4 N10_4 1_555 1_555
C3_4 N10_4 1_555 1_555
C4_4 C3_4 1_555 1_555
H4_4 C4_4 1_555 1_555
H5_4 C4_4 1_555 1_555
N11_4 C3_4 1_555 1_555
C1_4 C2_4 1_555 1_555
C4_4 C5_4 1_555 1_555

#END
