
###############################################################################
#
# This file contains modified crystal structure data generated from the
# MOF subset of the Cambridge Structural Database (CSD) v543 
# hosted by the Cambridge Crystallographic Data Centre (CCDC).
#
# This work is licensed under the Creative Commons
# Attribution-NonCommercial-ShareAlike 4.0 International License.
# To view a copy of this license, visit
# http://creativecommons.org/licenses/by-nc-sa/4.0/
# or send a letter to
# Creative Commons, PO Box 1866, Mountain View, CA 94042, USA.
#
# CIF created using the CSD Python API on 29 September 2022
# The structure has been converted into the P1 space group
# The structure has a 3D framework
# The original CSD entry SOCXEO is in the monoclinic crystal system
# The framework has been calculated to contain at least 10.0% void space
# The void calculation uses a probe of radius 1.32A, grid spacing 0.4
#
###############################################################################

data_SOCXEO
_chemical_formula_moiety         '(C72 H68 N16 O16 Zn4)n'
_symmetry_cell_setting           triclinic
_symmetry_space_group_name_H-M   'P 1'
_symmetry_Int_Tables_number      1
_space_group_name_Hall           'P 1'
loop_
_symmetry_equiv_pos_site_id
_symmetry_equiv_pos_as_xyz
1 x,y,z
_cell_length_a                   11.268(9)
_cell_length_b                   13.002(1)
_cell_length_c                   14.379(1)
_cell_angle_alpha                90
_cell_angle_beta                 101.938(2)
_cell_angle_gamma                90
_cell_volume                     2061.06
loop_
_atom_site_label
_atom_site_type_symbol
_atom_site_fract_x
_atom_site_fract_y
_atom_site_fract_z
C34 C 0.0438(3) 0.0831(3) 0.1143(3)
H32 H 0.1275 0.0634 0.1385
H33 H 0.0439 0.1462 0.0784
C1 C 0.3072(3) 0.1175(3) 0.4380(3)
C2 C 0.4203(3) 0.1380(3) 0.4965(3)
C3 C 0.5222(4) 0.1408(4) 0.4561(4)
H1 H 0.5976 0.1541 0.4947
C4 C 0.5144(4) 0.1245(4) 0.3608(4)
H2 H 0.5840 0.1261 0.3355
C5 C 0.4031(5) 0.1057(4) 0.3027(3)
H3 H 0.3967 0.0959 0.2378
C6 C 0.3012(4) 0.1015(4) 0.3419(3)
H4 H 0.2264 0.0875 0.3026
C7 C 0.1915(3) 0.1094(3) 0.4741(3)
H5 H 0.1984 0.1505 0.5312
H6 H 0.1250 0.1367 0.4266
C8 C 0.4333(4) 0.1578(5) 0.6017(3)
H7 H 0.3613 0.1928 0.6124
H8 H 0.4393 0.0926 0.6350
H9 H 0.1747 0.0032 0.6369
C12 C 0.6409(4) 0.1930(4) 0.7054(3)
H12 H 0.6519 0.1290 0.7349
C13 C 0.6689(4) 0.3477(4) 0.6638(3)
H13 H 0.7049 0.4115 0.6602
C14 C 0.5600(4) 0.3190(4) 0.6147(3)
H14 H 0.5073 0.3589 0.5708
C17 C 0.0187(3) 0.0002(3) 0.9510(2)
N2 N 0.1643(3) 0.0009(2) 0.4956(2)
N3 N 0.7195(3) 0.2663(3) 0.7211(2)
N4 N 0.5401(3) 0.2202(3) 0.6408(3)
O4 O 0.0776(4) 0.1718(3) 0.9155(3)
Zn3 Zn 0.88018(4) 0.27112(3) 0.81434(3)
Zn6 Zn 0.11982(4) 0.72888(3) 0.18566(3)
C19 C 0.6928(3) 0.6175(3) 0.0620(3)
C20 C 0.5797(3) 0.6380(3) 0.0035(3)
C21 C 0.4778(4) 0.6408(4) 0.0439(4)
H18 H 0.4024 0.6541 0.0053
C22 C 0.4856(4) 0.6245(4) 0.1392(4)
H19 H 0.4160 0.6261 0.1645
C23 C 0.5969(5) 0.6057(4) 0.1973(3)
H20 H 0.6033 0.5959 0.2622
C24 C 0.6988(4) 0.6015(4) 0.1581(3)
H21 H 0.7736 0.5875 0.1974
C25 C 0.8085(3) 0.6094(3) 0.0259(3)
H23 H 0.8750 0.6367 0.0734
C28 C 0.8779(4) 0.3384(3) 0.0165(3)
H27 H 0.8959 0.2729 0.0414
C29 C 0.8614(4) 0.4212(3) 0.0676(3)
H28 H 0.8664 0.4240 0.1329
C36 C 0.0047(4) 0.8915(3) 0.0946(3)
N6 N 0.8357(3) 0.5009(2) 0.0044(2)
O8 O 0.1111(3) 0.8725(2) 0.1376(2)
Zn1 Zn 0.11982(4) 0.77112(3) 0.68566(3)
C9 C 0.1611(3) 0.9642(3) 0.5815(3)
C10 C 0.1221(4) 0.8384(3) 0.4835(3)
H10 H 0.1041 0.7729 0.4586
C11 C 0.1386(4) 0.9212(3) 0.4324(3)
H11 H 0.1336 0.9240 0.3671
C15 C 0.0172(4) 0.8974(3) 0.8028(3)
H17 H 0.1062 0.9873 0.9622
N1 N 0.1356(3) 0.8633(2) 0.5773(2)
O1 O 0.0053(3) 0.8067(2) 0.7676(2)
O2 O 0.0756(3) 0.9649(2) 0.7734(2)
H22 H 0.8016 0.6505 0.9688
C26 C 0.5667(4) 0.6578(5) 0.8983(3)
H24 H 0.6387 0.6928 0.8876
H25 H 0.5607 0.5926 0.8650
C27 C 0.8389(3) 0.4642(3) 0.9185(3)
H26 H 0.8253 0.5032 0.8631
C30 C 0.3591(4) 0.6930(4) 0.7946(3)
H29 H 0.3481 0.6290 0.7651
C31 C 0.3311(4) 0.8477(4) 0.8362(3)
H30 H 0.2951 0.9115 0.8398
C32 C 0.4400(4) 0.8190(4) 0.8853(3)
H31 H 0.4927 0.8589 0.9292
N5 N 0.8644(3) 0.3633(2) 0.9227(2)
N7 N 0.2805(3) 0.7663(3) 0.7789(2)
N9 N 0.4599(3) 0.7202(3) 0.8592(3)
O6 O 0.9947(3) 0.3067(2) 0.7324(2)
O9 O 0.1111(3) 0.6275(2) 0.6376(2)
O10 O 0.8889(3) 0.1275(2) 0.8624(2)
Zn5 Zn 0.88018(4) 0.22888(3) 0.31434(3)
C33 C 0.9828(4) 0.1026(3) 0.1972(3)
H34 H 0.8938 0.0127 0.0378
O5 O 0.9947(3) 0.1933(2) 0.2324(2)
O7 O 0.9244(3) 0.0351(2) 0.2266(2)
C18 C 0.9953(4) 0.1085(3) 0.9054(3)
C35 C 0.9813(3) 0.9998(3) 0.0490(2)
O11 O 0.9224(4) 0.8282(3) 0.0845(3)
C16 C 0.0438(3) 0.4169(3) 0.6143(3)
H15 H 0.1275 0.4366 0.6385
H16 H 0.0439 0.3538 0.5784
C18_2 C 0.0047(4) 0.6085(3) 0.5946(3)
C33_2 C 0.0172(4) 0.6026(3) 0.3028(3)
C35_2 C 0.0187(3) 0.4998(3) 0.4510(2)
H34_2 H 0.1062 0.5127 0.4622
O5_2 O 0.0053(3) 0.6933(2) 0.2676(2)
O7_2 O 0.0756(3) 0.5351(2) 0.2734(2)
O11_2 O 0.0776(4) 0.3282(3) 0.4155(3)
C15_2 C 0.9828(4) 0.3974(3) 0.6972(3)
C17_2 C 0.9813(3) 0.5002(3) 0.5490(2)
H17_2 H 0.8938 0.4873 0.5378
O2_2 O 0.9244(3) 0.4649(2) 0.7266(2)
O4_2 O 0.9224(4) 0.6718(3) 0.5845(3)
C34_2 C 0.9562(3) 0.5831(3) 0.3857(3)
H32_2 H 0.8725 0.5634 0.3615
H33_2 H 0.9561 0.6462 0.4216
C36_2 C 0.9953(4) 0.3915(3) 0.4054(3)
O8_2 O 0.8889(3) 0.3725(2) 0.3624(2)
C9_2 C 0.8389(3) 0.0358(3) 0.4185(3)
C10_2 C 0.8779(4) 0.1616(3) 0.5165(3)
H10_2 H 0.8959 0.2271 0.5414
C11_2 C 0.8614(4) 0.0788(3) 0.5676(3)
H11_2 H 0.8664 0.0760 0.6329
N1_2 N 0.8644(3) 0.1367(2) 0.4227(2)
H22_2 H 0.1984 0.3495 0.0312
C26_2 C 0.4333(4) 0.3422(5) 0.1017(3)
H24_2 H 0.3613 0.3072 0.1124
H25_2 H 0.4393 0.4074 0.1350
C27_2 C 0.1611(3) 0.5358(3) 0.0815(3)
H26_2 H 0.1747 0.4968 0.1369
C30_2 C 0.6409(4) 0.3070(4) 0.2054(3)
H29_2 H 0.6519 0.3710 0.2349
C31_2 C 0.6689(4) 0.1523(4) 0.1638(3)
H30_2 H 0.7049 0.0885 0.1602
C32_2 C 0.5600(4) 0.1810(4) 0.1147(3)
H31_2 H 0.5073 0.1411 0.0708
N5_2 N 0.1356(3) 0.6367(2) 0.0773(2)
N7_2 N 0.7195(3) 0.2337(3) 0.2211(2)
N8 N 0.2805(3) 0.7337(3) 0.2789(2)
N9_2 N 0.5401(3) 0.2798(3) 0.1408(3)
C19_2 C 0.3072(3) 0.3825(3) 0.9380(3)
C20_2 C 0.4203(3) 0.3620(3) 0.9965(3)
C21_2 C 0.5222(4) 0.3592(4) 0.9561(4)
H18_2 H 0.5976 0.3459 0.9947
C22_2 C 0.5144(4) 0.3755(4) 0.8608(4)
H19_2 H 0.5840 0.3739 0.8355
C23_2 C 0.4031(5) 0.3943(4) 0.8027(3)
H20_2 H 0.3967 0.4041 0.7378
C24_2 C 0.3012(4) 0.3985(4) 0.8419(3)
H21_2 H 0.2264 0.4125 0.8026
C25_2 C 0.1915(3) 0.3906(3) 0.9741(3)
H23_2 H 0.1250 0.3633 0.9266
C28_2 C 0.1221(4) 0.6616(3) 0.9835(3)
H27_2 H 0.1041 0.7271 0.9586
C29_2 C 0.1386(4) 0.5788(3) 0.9324(3)
H28_2 H 0.1336 0.5760 0.8671
N6_2 N 0.1643(3) 0.4991(2) 0.9956(2)
C1_2 C 0.6928(3) 0.8825(3) 0.5620(3)
C2_2 C 0.5797(3) 0.8620(3) 0.5035(3)
C3_2 C 0.4778(4) 0.8592(4) 0.5439(4)
H1_2 H 0.4024 0.8459 0.5053
C4_2 C 0.4856(4) 0.8755(4) 0.6392(4)
H2_2 H 0.4160 0.8739 0.6645
C5_2 C 0.5969(5) 0.8943(4) 0.6973(3)
H3_2 H 0.6033 0.9041 0.7622
C6_2 C 0.6988(4) 0.8985(4) 0.6581(3)
H4_2 H 0.7736 0.9125 0.6974
C7_2 C 0.8085(3) 0.8906(3) 0.5259(3)
H5_2 H 0.8016 0.8495 0.4688
H6_2 H 0.8750 0.8633 0.5734
C8_2 C 0.5667(4) 0.8422(5) 0.3983(3)
H7_2 H 0.6387 0.8072 0.3876
H8_2 H 0.5607 0.9074 0.3650
H9_2 H 0.8253 0.9968 0.3631
C12_2 C 0.3591(4) 0.8070(4) 0.2946(3)
H12_2 H 0.3481 0.8710 0.2651
C13_2 C 0.3311(4) 0.6523(4) 0.3362(3)
H13_2 H 0.2951 0.5885 0.3398
C14_2 C 0.4400(4) 0.6810(4) 0.3853(3)
H14_2 H 0.4927 0.6411 0.4292
N2_2 N 0.8357(3) 0.9991(2) 0.5044(2)
N4_2 N 0.4599(3) 0.7798(3) 0.3592(3)
C16_2 C 0.9562(3) 0.9169(3) 0.8857(3)
H15_2 H 0.8725 0.9366 0.8615
H16_2 H 0.9561 0.8538 0.9216
loop_
_geom_bond_atom_site_label_1
_geom_bond_atom_site_label_2
_geom_bond_site_symmetry_1
_geom_bond_site_symmetry_2
C34 H32 1_555 1_555
H33 C34 1_555 1_555
C1 C2 1_555 1_555
C2 C3 1_555 1_555
C3 H1 1_555 1_555
C4 C3 1_555 1_555
H2 C4 1_555 1_555
C5 C4 1_555 1_555
H3 C5 1_555 1_555
C6 C1 1_555 1_555
H4 C6 1_555 1_555
C7 C1 1_555 1_555
H5 C7 1_555 1_555
H6 C7 1_555 1_555
C8 C2 1_555 1_555
H7 C8 1_555 1_555
H8 C8 1_555 1_555
C12 H12 1_555 1_555
C13 H13 1_555 1_555
C14 C13 1_555 1_555
H14 C14 1_555 1_555
N2 C7 1_555 1_555
N3 C12 1_555 1_555
N4 C8 1_555 1_555
Zn3 N3 1_555 1_555
C5 C6 1_555 1_555
C12 N4 1_555 1_555
C13 N3 1_555 1_555
C14 N4 1_555 1_555
Zn6 O8 1_555 1_555
C19 C20 1_555 1_555
C20 C21 1_555 1_555
C21 H18 1_555 1_555
C22 C21 1_555 1_555
H19 C22 1_555 1_555
C23 C22 1_555 1_555
H20 C23 1_555 1_555
C24 C19 1_555 1_555
H21 C24 1_555 1_555
C25 C19 1_555 1_555
H23 C25 1_555 1_555
C28 H27 1_555 1_555
C29 C28 1_555 1_555
H28 C29 1_555 1_555
N6 C25 1_555 1_555
O8 C36 1_555 1_555
C23 C24 1_555 1_555
C29 N6 1_555 1_555
Zn1 N1 1_555 1_555
C10 H10 1_555 1_555
C11 C10 1_555 1_555
H11 C11 1_555 1_555
N1 C9 1_555 1_555
O1 Zn1 1_555 1_555
O2 C15 1_555 1_555
Zn3 N5 1_555 1_555
H24 C26 1_555 1_555
H25 C26 1_555 1_555
C27 H26 1_555 1_555
C30 H29 1_555 1_555
C31 H30 1_555 1_555
C32 C31 1_555 1_555
H31 C32 1_555 1_555
N5 C27 1_555 1_555
N7 Zn1 1_555 1_555
N9 C26 1_555 1_555
O6 Zn3 1_555 1_555
O9 Zn1 1_555 1_555
O10 Zn3 1_555 1_555
C10 N1 1_555 1_555
C15 O1 1_555 1_555
C30 N7 1_555 1_555
C30 N9 1_555 1_555
C31 N7 1_555 1_555
C32 N9 1_555 1_555
Zn5 O5 1_555 1_555
O5 C33 1_555 1_555
O7 C33 1_555 1_555
O10 C18 1_555 1_555
C16 H15 1_555 1_555
H16 C16 1_555 1_555
O9 C18_2 1_555 1_555
Zn6 O5_2 1_555 1_555
H34_2 C35_2 1_555 1_555
O5_2 C33_2 1_555 1_555
O7_2 C33_2 1_555 1_555
H17_2 C17_2 1_555 1_555
O2_2 C15_2 1_555 1_555
Zn5 O8_2 1_555 1_555
C34_2 H32_2 1_555 1_555
H33_2 C34_2 1_555 1_555
O8_2 C36_2 1_555 1_555
C15_2 O6 1_555 1_555
Zn5 N1_2 1_555 1_555
C10_2 H10_2 1_555 1_555
C11_2 C10_2 1_555 1_555
H11_2 C11_2 1_555 1_555
N1_2 C9_2 1_555 1_555
Zn6 N5_2 1_555 1_555
H24_2 C26_2 1_555 1_555
H25_2 C26_2 1_555 1_555
C27_2 H26_2 1_555 1_555
C30_2 H29_2 1_555 1_555
C31_2 H30_2 1_555 1_555
C32_2 C31_2 1_555 1_555
H31_2 C32_2 1_555 1_555
N5_2 C27_2 1_555 1_555
N7_2 Zn5 1_555 1_555
N8 Zn6 1_555 1_555
N9_2 C26_2 1_555 1_555
C10_2 N1_2 1_555 1_555
C30_2 N7_2 1_555 1_555
C30_2 N9_2 1_555 1_555
C31_2 N7_2 1_555 1_555
C32_2 N9_2 1_555 1_555
C19_2 C20_2 1_555 1_555
C20_2 C21_2 1_555 1_555
C21_2 H18_2 1_555 1_555
C22_2 C21_2 1_555 1_555
H19_2 C22_2 1_555 1_555
C23_2 C22_2 1_555 1_555
H20_2 C23_2 1_555 1_555
C24_2 C19_2 1_555 1_555
H21_2 C24_2 1_555 1_555
C25_2 C19_2 1_555 1_555
H23_2 C25_2 1_555 1_555
C28_2 H27_2 1_555 1_555
C29_2 C28_2 1_555 1_555
H28_2 C29_2 1_555 1_555
N6_2 C25_2 1_555 1_555
C23_2 C24_2 1_555 1_555
C29_2 N6_2 1_555 1_555
C1_2 C2_2 1_555 1_555
C2_2 C3_2 1_555 1_555
C3_2 H1_2 1_555 1_555
C4_2 C3_2 1_555 1_555
H2_2 C4_2 1_555 1_555
C5_2 C4_2 1_555 1_555
H3_2 C5_2 1_555 1_555
C6_2 C1_2 1_555 1_555
H4_2 C6_2 1_555 1_555
C7_2 C1_2 1_555 1_555
H5_2 C7_2 1_555 1_555
H6_2 C7_2 1_555 1_555
C8_2 C2_2 1_555 1_555
H7_2 C8_2 1_555 1_555
H8_2 C8_2 1_555 1_555
C12_2 H12_2 1_555 1_555
C13_2 H13_2 1_555 1_555
C14_2 C13_2 1_555 1_555
H14_2 C14_2 1_555 1_555
N2_2 C7_2 1_555 1_555
N8 C12_2 1_555 1_555
N4_2 C8_2 1_555 1_555
C5_2 C6_2 1_555 1_555
C12_2 N4_2 1_555 1_555
C13_2 N8 1_555 1_555
C14_2 N4_2 1_555 1_555
C16_2 H15_2 1_555 1_555
H16_2 C16_2 1_555 1_555

#END
