
###############################################################################
#
# This file contains modified crystal structure data generated from the
# MOF subset of the Cambridge Structural Database (CSD) v543 
# hosted by the Cambridge Crystallographic Data Centre (CCDC).
#
# This work is licensed under the Creative Commons
# Attribution-NonCommercial-ShareAlike 4.0 International License.
# To view a copy of this license, visit
# http://creativecommons.org/licenses/by-nc-sa/4.0/
# or send a letter to
# Creative Commons, PO Box 1866, Mountain View, CA 94042, USA.
#
# CIF created using the CSD Python API on 29 September 2022
# The structure has been converted into the P1 space group
# The structure has a 3D framework
# The original CSD entry SODZIV is in the orthorhombic crystal system
# The framework has been calculated to contain at least 10.0% void space
# The void calculation uses a probe of radius 1.32A, grid spacing 0.4
#
###############################################################################

data_SODZIV
_chemical_formula_moiety         '(C120 H112 Cd8 N16 O36)n'
_symmetry_cell_setting           triclinic
_symmetry_space_group_name_H-M   'P 1'
_symmetry_Int_Tables_number      1
_space_group_name_Hall           'P 1'
loop_
_symmetry_equiv_pos_site_id
_symmetry_equiv_pos_as_xyz
1 x,y,z
_cell_length_a                   14.4979(16)
_cell_length_b                   17.5125(19)
_cell_length_c                   15.4716(17)
_cell_angle_alpha                90
_cell_angle_beta                 90
_cell_angle_gamma                90
_cell_volume                     3928.15
loop_
_atom_site_label
_atom_site_type_symbol
_atom_site_fract_x
_atom_site_fract_y
_atom_site_fract_z
Cd1 Cd 0.127860(18) 0.040716(15) 0.22703(2)
N3 N 0.1370(3) 0.1512(2) 0.1390(3)
O1 O 0.0406(2) 0.11453(19) 0.3260(2)
O7 O 0.2604(2) 0.08599(17) 0.2899(2)
O8 O 0.3443(3) 0.1576(3) 0.3746(3)
C10 C 0.2696(3) 0.1338(3) 0.3494(3)
H12 H 0.2166 0.1523 0.3761
H16 H 0.1458 0.0149 0.4297
C21 C 0.1235(3) 0.1464(3) 0.0537(3)
H21 H 0.1174 0.0981 0.0294
C23 C 0.1265(3) 0.2821(3) 0.0342(3)
C24 C 0.1414(3) 0.2871(3) 0.1227(3)
H23 H 0.1485 0.3345 0.1488
C25 C 0.1455(3) 0.2213(3) 0.1718(3)
H24 H 0.1547 0.2261 0.2310
C29 C 0.0848(4) 0.4191(3) 0.0087(4)
H27 H 0.0694 0.4249 0.0666
Cd4 Cd 0.430020(19) 0.075850(17) 0.27303(2)
N4 N 0.0940(3) 0.4755(2) 0.8690(3)
C22 C 0.1181(3) 0.2090(3) 0.9996(3)
H22 H 0.1090 0.2024 0.9406
C26 C 0.1284(4) 0.4088(3) 0.8400(3)
H25 H 0.1449 0.4054 0.7820
C27 C 0.1402(4) 0.3462(3) 0.8907(3)
H26 H 0.1634 0.3012 0.8671
C28 C 0.1178(3) 0.3494(3) 0.9776(3)
C30 C 0.0754(4) 0.4792(3) 0.9515(4)
H28 H 0.0545 0.5256 0.9733
Cd6 Cd 0.069980(19) 0.575850(17) 0.77303(2)
N1 N 0.1275(3) 0.9436(2) 0.3332(3)
N2 N 0.0972(3) 0.6665(2) 0.6652(2)
O9 O 0.0668(3) 0.4911(2) 0.6596(3)
H1 H 0.1213(17) 0.481(4) 0.645(5)
H2 H 0.031(4) 0.454(2) 0.659(5)
C11 C 0.1151(4) 0.8713(3) 0.3166(3)
H13 H 0.1090 0.8567 0.2591
C12 C 0.1104(4) 0.8149(3) 0.3792(3)
H14 H 0.1010 0.7643 0.3634
C13 C 0.1197(3) 0.8345(3) 0.4650(3)
C14 C 0.1327(4) 0.9110(3) 0.4830(3)
H15 H 0.1389 0.9272 0.5400
C15 C 0.1366(4) 0.9636(3) 0.4163(4)
C16 C 0.0814(3) 0.7399(3) 0.6808(3)
H17 H 0.0628 0.7539 0.7361
C17 C 0.0910(3) 0.7967(2) 0.6190(3)
H18 H 0.0814 0.8476 0.6337
C18 C 0.1151(3) 0.7770(3) 0.5355(3)
C19 C 0.1342(3) 0.6997(3) 0.5194(3)
H19 H 0.1532 0.6836 0.4649
C20 C 0.1241(3) 0.6488(3) 0.5855(3)
H20 H 0.1369 0.5978 0.5740
O10 O 0.1084(3) 0.9643(2) 0.1137(3)
O11 O 0.2539(3) 0.9742(3) 0.1271(3)
O14 O 0.2396(2) 0.58599(17) 0.7899(2)
O15 O 0.1557(3) 0.6576(3) 0.8746(3)
O2 O 0.9578(2) 0.0449(2) 0.2377(3)
O3 O 0.8916(3) 0.0357(2) 0.6137(3)
O4 O 0.7461(3) 0.0258(3) 0.6271(3)
O5 O 0.5503(2) 0.1405(2) 0.3321(3)
O6 O 0.6023(3) 0.0362(3) 0.2821(4)
C1 C 0.8795(3) 0.1096(3) 0.3532(3)
H3 H 0.8808 0.1648 0.3632
C2 C 0.8855(3) 0.0693(3) 0.4416(3)
H4 H 0.8875 0.0145 0.4328
H5 H 0.9422 0.0844 0.4703
C3 C 0.8039(3) 0.0891(3) 0.4989(3)
H6 H 0.8061 0.1442 0.5097
C4 C 0.7125(3) 0.0721(3) 0.4541(3)
H7 H 0.6620 0.0893 0.4903
H8 H 0.7061 0.0174 0.4462
C5 C 0.7067(3) 0.1117(3) 0.3663(3)
H9 H 0.7098 0.1668 0.3765
C6 C 0.7888(3) 0.0901(3) 0.3093(3)
H10 H 0.7869 0.0358 0.2972
H11 H 0.7847 0.1172 0.2548
C7 C 0.9642(3) 0.0885(3) 0.3014(3)
C8 C 0.8140(3) 0.0489(3) 0.5864(3)
C9 C 0.6144(3) 0.0948(3) 0.3229(3)
Cd3 Cd 0.872140(18) 0.959284(15) 0.72703(2)
O12 O 0.9497(2) 0.6405(2) 0.8321(3)
O13 O 0.8977(3) 0.5362(3) 0.7821(4)
O12_2 O 0.0503(2) 0.3595(2) 0.3321(3)
O13_2 O 0.1023(3) 0.4638(3) 0.2821(4)
H6_2 H 0.1939 0.8558 0.0097
C8_2 C 0.1860(3) 0.9511(3) 0.0864(3)
O2_2 O 0.0422(2) 0.9551(2) 0.7377(3)
O5_2 O 0.4497(2) 0.8595(2) 0.8321(3)
O6_2 O 0.3977(3) 0.9638(3) 0.7821(4)
C1_2 C 0.1205(3) 0.8904(3) 0.8532(3)
H3_2 H 0.1192 0.8352 0.8632
C2_2 C 0.1145(3) 0.9307(3) 0.9416(3)
H4_2 H 0.1125 0.9855 0.9328
H5_2 H 0.0578 0.9156 0.9703
C3_2 C 0.1961(3) 0.9109(3) 0.9989(3)
C4_2 C 0.2875(3) 0.9279(3) 0.9541(3)
H7_2 H 0.3380 0.9107 0.9903
H8_2 H 0.2939 0.9826 0.9462
C5_2 C 0.2933(3) 0.8883(3) 0.8663(3)
H9_2 H 0.2902 0.8332 0.8765
C6_2 C 0.2112(3) 0.9099(3) 0.8093(3)
H10_2 H 0.2131 0.9642 0.7972
H11_2 H 0.2153 0.8828 0.7548
C7_2 C 0.0358(3) 0.9115(3) 0.8014(3)
C9_2 C 0.3856(3) 0.9052(3) 0.8229(3)
Cd5 Cd 0.569980(19) 0.924150(17) 0.77303(2)
Cd2 Cd 0.930020(19) 0.424150(17) 0.27303(2)
N2_2 N 0.9028(3) 0.3335(2) 0.1652(2)
O9_2 O 0.9332(3) 0.5089(2) 0.1596(3)
H1_2 H 0.8787(17) 0.519(4) 0.145(5)
H2_2 H 0.969(4) 0.546(2) 0.159(5)
H15_2 H 0.8611 0.0728 0.0400
C16_2 C 0.9186(3) 0.2601(3) 0.1808(3)
H17_2 H 0.9372 0.2461 0.2361
C17_2 C 0.9090(3) 0.2033(2) 0.1190(3)
H18_2 H 0.9186 0.1524 0.1337
C18_2 C 0.8849(3) 0.2230(3) 0.0355(3)
C19_2 C 0.8658(3) 0.3003(3) 0.0194(3)
C20_2 C 0.8759(3) 0.3512(3) 0.0855(3)
H20_2 H 0.8631 0.4022 0.0740
N5 N 0.9060(3) 0.5245(2) 0.3690(3)
O14_2 O 0.7604(2) 0.41401(17) 0.2899(2)
O15_2 O 0.8443(3) 0.3424(3) 0.3746(3)
N1_2 N 0.8725(3) 0.0564(2) 0.8332(3)
C11_2 C 0.8849(4) 0.1287(3) 0.8166(3)
H13_2 H 0.8910 0.1433 0.7591
C12_2 C 0.8896(4) 0.1851(3) 0.8792(3)
H14_2 H 0.8990 0.2357 0.8634
C13_2 C 0.8803(3) 0.1655(3) 0.9650(3)
C14_2 C 0.8673(4) 0.0890(3) 0.9830(3)
C15_2 C 0.8634(4) 0.0364(3) 0.9163(4)
H19_2 H 0.8468 0.3164 0.9649
N3_2 N 0.8630(3) 0.8488(2) 0.6390(3)
O1_2 O 0.9594(2) 0.88547(19) 0.8260(2)
O7_2 O 0.7396(2) 0.91401(17) 0.7899(2)
O8_2 O 0.6557(3) 0.8424(3) 0.8746(3)
C10_2 C 0.7304(3) 0.8662(3) 0.8494(3)
H12_2 H 0.7834 0.8477 0.8761
H16_2 H 0.8542 0.9851 0.9297
C21_2 C 0.8765(3) 0.8536(3) 0.5537(3)
H21_2 H 0.8826 0.9019 0.5294
C22_2 C 0.8819(3) 0.7910(3) 0.4996(3)
H22_2 H 0.8910 0.7976 0.4406
C23_2 C 0.8735(3) 0.7179(3) 0.5342(3)
C24_2 C 0.8586(3) 0.7129(3) 0.6227(3)
H23_2 H 0.8515 0.6655 0.6488
C25_2 C 0.8545(3) 0.7787(3) 0.6718(3)
H24_2 H 0.8453 0.7739 0.7310
C26_2 C 0.8716(4) 0.5912(3) 0.3400(3)
H25_2 H 0.8551 0.5946 0.2820
C27_2 C 0.8598(4) 0.6538(3) 0.3907(3)
H26_2 H 0.8366 0.6988 0.3671
C28_2 C 0.8822(3) 0.6506(3) 0.4776(3)
C29_2 C 0.9152(4) 0.5809(3) 0.5087(4)
H27_2 H 0.9306 0.5751 0.5666
C30_2 C 0.9246(4) 0.5208(3) 0.4515(4)
H28_2 H 0.9455 0.4744 0.4733
Cd1_2 Cd 0.627860(18) 0.459284(15) 0.22703(2)
N1_3 N 0.6275(3) 0.5564(2) 0.3332(3)
N2_3 N 0.5972(3) 0.8335(2) 0.6652(2)
N3_3 N 0.6370(3) 0.3488(2) 0.1390(3)
O1_3 O 0.5406(2) 0.38547(19) 0.3260(2)
O2_3 O 0.4578(2) 0.4551(2) 0.2377(3)
O3_2 O 0.3916(3) 0.4643(2) 0.6137(3)
O4_2 O 0.2461(3) 0.4742(3) 0.6271(3)
C1_3 C 0.3795(3) 0.3904(3) 0.3532(3)
H3_3 H 0.3808 0.3352 0.3632
C2_3 C 0.3855(3) 0.4307(3) 0.4416(3)
H4_3 H 0.3875 0.4855 0.4328
H5_3 H 0.4422 0.4156 0.4703
C3_3 C 0.3039(3) 0.4109(3) 0.4989(3)
H6_3 H 0.3061 0.3558 0.5097
C4_3 C 0.2125(3) 0.4279(3) 0.4541(3)
H7_3 H 0.1620 0.4107 0.4903
H8_3 H 0.2061 0.4826 0.4462
C5_3 C 0.2067(3) 0.3883(3) 0.3663(3)
H9_3 H 0.2098 0.3332 0.3765
C6_3 C 0.2888(3) 0.4099(3) 0.3093(3)
H10_3 H 0.2869 0.4642 0.2972
H11_3 H 0.2847 0.3828 0.2548
C7_3 C 0.4642(3) 0.4115(3) 0.3014(3)
C8_3 C 0.3140(3) 0.4511(3) 0.5864(3)
C9_3 C 0.1144(3) 0.4052(3) 0.3229(3)
C10_3 C 0.7696(3) 0.3662(3) 0.3494(3)
H12_3 H 0.7166 0.3477 0.3761
C11_3 C 0.6151(4) 0.6287(3) 0.3166(3)
H13_3 H 0.6090 0.6433 0.2591
C12_3 C 0.6104(4) 0.6851(3) 0.3792(3)
H14_3 H 0.6010 0.7357 0.3634
C13_3 C 0.6197(3) 0.6655(3) 0.4650(3)
C14_3 C 0.6327(4) 0.5890(3) 0.4830(3)
H15_3 H 0.6389 0.5728 0.5400
C15_3 C 0.6366(4) 0.5364(3) 0.4163(4)
H16_3 H 0.6458 0.4851 0.4297
C16_3 C 0.5814(3) 0.7601(3) 0.6808(3)
H17_3 H 0.5628 0.7461 0.7361
C17_3 C 0.5910(3) 0.7033(2) 0.6190(3)
H18_3 H 0.5814 0.6524 0.6337
C18_3 C 0.6151(3) 0.7230(3) 0.5355(3)
C19_3 C 0.6342(3) 0.8003(3) 0.5194(3)
H19_3 H 0.6532 0.8164 0.4649
C20_3 C 0.6241(3) 0.8512(3) 0.5855(3)
H20_3 H 0.6369 0.9022 0.5740
C21_3 C 0.6235(3) 0.3536(3) 0.0537(3)
H21_3 H 0.6174 0.4019 0.0294
C23_3 C 0.6265(3) 0.2179(3) 0.0342(3)
C24_3 C 0.6414(3) 0.2129(3) 0.1227(3)
H23_3 H 0.6485 0.1655 0.1488
C25_3 C 0.6455(3) 0.2787(3) 0.1718(3)
H24_3 H 0.6547 0.2739 0.2310
C29_3 C 0.5848(4) 0.0809(3) 0.0087(4)
H27_3 H 0.5694 0.0751 0.0666
Cd3_2 Cd 0.372140(18) 0.540716(15) 0.72703(2)
O10_2 O 0.6084(3) 0.5357(2) 0.1137(3)
O11_2 O 0.7539(3) 0.5258(3) 0.1271(3)
H28_3 H 0.5545 0.9744 0.9733
H28_4 H 0.4455 0.0256 0.4733
N2_4 N 0.4028(3) 0.1665(2) 0.1652(2)
H6_4 H 0.6939 0.6442 0.0097
C8_4 C 0.6860(3) 0.5489(3) 0.0864(3)
H15_4 H 0.3611 0.4272 0.0400
C16_4 C 0.4186(3) 0.2399(3) 0.1808(3)
H17_4 H 0.4372 0.2539 0.2361
C17_4 C 0.4090(3) 0.2967(2) 0.1190(3)
H18_4 H 0.4186 0.3476 0.1337
C18_4 C 0.3849(3) 0.2770(3) 0.0355(3)
C19_4 C 0.3658(3) 0.1997(3) 0.0194(3)
C20_4 C 0.3759(3) 0.1488(3) 0.0855(3)
H20_4 H 0.3631 0.0978 0.0740
N1_4 N 0.3725(3) 0.4436(2) 0.8332(3)
N3_4 N 0.3630(3) 0.6512(2) 0.6390(3)
N4_2 N 0.4060(3) 0.9755(2) 0.3690(3)
O1_4 O 0.4594(2) 0.61453(19) 0.8260(2)
O2_4 O 0.5422(2) 0.5449(2) 0.7377(3)
C1_4 C 0.6205(3) 0.6096(3) 0.8532(3)
H3_4 H 0.6192 0.6648 0.8632
C2_4 C 0.6145(3) 0.5693(3) 0.9416(3)
H4_4 H 0.6125 0.5145 0.9328
H5_4 H 0.5578 0.5844 0.9703
C3_4 C 0.6961(3) 0.5891(3) 0.9989(3)
C4_4 C 0.7875(3) 0.5721(3) 0.9541(3)
H7_4 H 0.8380 0.5893 0.9903
H8_4 H 0.7939 0.5174 0.9462
C5_4 C 0.7933(3) 0.6117(3) 0.8663(3)
H9_4 H 0.7902 0.6668 0.8765
C6_4 C 0.7112(3) 0.5901(3) 0.8093(3)
H10_4 H 0.7131 0.5358 0.7972
H11_4 H 0.7153 0.6172 0.7548
C7_4 C 0.5358(3) 0.5885(3) 0.8014(3)
C9_4 C 0.8856(3) 0.5948(3) 0.8229(3)
C10_4 C 0.2304(3) 0.6338(3) 0.8494(3)
H12_4 H 0.2834 0.6523 0.8761
C11_4 C 0.3849(4) 0.3713(3) 0.8166(3)
H13_4 H 0.3910 0.3567 0.7591
C12_4 C 0.3896(4) 0.3149(3) 0.8792(3)
H14_4 H 0.3990 0.2643 0.8634
C13_4 C 0.3803(3) 0.3345(3) 0.9650(3)
C14_4 C 0.3673(4) 0.4110(3) 0.9830(3)
C15_4 C 0.3634(4) 0.4636(3) 0.9163(4)
H16_4 H 0.3542 0.5149 0.9297
H19_4 H 0.3468 0.1836 0.9649
C21_4 C 0.3765(3) 0.6464(3) 0.5537(3)
H21_4 H 0.3826 0.5981 0.5294
C22_3 C 0.3819(3) 0.7090(3) 0.4996(3)
H22_3 H 0.3910 0.7024 0.4406
C23_4 C 0.3735(3) 0.7821(3) 0.5342(3)
C24_4 C 0.3586(3) 0.7871(3) 0.6227(3)
H23_4 H 0.3515 0.8345 0.6488
C25_4 C 0.3545(3) 0.7213(3) 0.6718(3)
H24_4 H 0.3453 0.7261 0.7310
C26_3 C 0.3716(4) 0.9088(3) 0.3400(3)
H25_3 H 0.3551 0.9054 0.2820
C27_3 C 0.3598(4) 0.8462(3) 0.3907(3)
H26_3 H 0.3366 0.8012 0.3671
C28_3 C 0.3822(3) 0.8494(3) 0.4776(3)
C29_4 C 0.4152(4) 0.9191(3) 0.5087(4)
H27_4 H 0.4306 0.9249 0.5666
C30_3 C 0.4246(4) 0.9792(3) 0.4515(4)
O9_3 O 0.4332(3) 0.9911(2) 0.1596(3)
H1_3 H 0.3787(17) 0.981(4) 0.145(5)
H2_3 H 0.469(4) 0.954(2) 0.159(5)
O9_4 O 0.5668(3) 0.0089(2) 0.6596(3)
H1_4 H 0.6213(17) 0.019(4) 0.645(5)
H2_4 H 0.531(4) 0.046(2) 0.659(5)
N5_2 N 0.5940(3) 0.0245(2) 0.8690(3)
C22_4 C 0.6181(3) 0.2910(3) 0.9996(3)
H22_4 H 0.6090 0.2976 0.9406
C26_4 C 0.6284(4) 0.0912(3) 0.8400(3)
H25_4 H 0.6449 0.0946 0.7820
C27_4 C 0.6402(4) 0.1538(3) 0.8907(3)
H26_4 H 0.6634 0.1988 0.8671
C28_4 C 0.6178(3) 0.1506(3) 0.9776(3)
C30_4 C 0.5754(4) 0.0208(3) 0.9515(4)
loop_
_geom_bond_atom_site_label_1
_geom_bond_atom_site_label_2
_geom_bond_site_symmetry_1
_geom_bond_site_symmetry_2
N3 Cd1 1_555 1_555
O1 Cd1 1_555 1_555
O7 Cd1 1_555 1_555
O8 C10 1_555 1_555
C10 O7 1_555 1_555
H12 C10 1_555 1_555
C21 N3 1_555 1_555
H21 C21 1_555 1_555
C24 C23 1_555 1_555
H23 C24 1_555 1_555
C25 N3 1_555 1_555
H24 C25 1_555 1_555
H27 C29 1_555 1_555
Cd4 O7 1_555 1_555
O8 Cd4 1_555 1_555
C24 C25 1_555 1_555
N4 C26 1_555 1_555
H22 C22 1_555 1_555
C26 H25 1_555 1_555
C27 C26 1_555 1_555
H26 C27 1_555 1_555
C30 N4 1_555 1_555
H28 C30 1_555 1_555
Cd6 N4 1_555 1_555
C27 C28 1_555 1_555
Cd6 N2 1_555 1_555
N1 C11 1_555 1_555
N2 C16 1_555 1_555
O9 Cd6 1_555 1_555
H1 O9 1_555 1_555
H2 O9 1_555 1_555
C11 H13 1_555 1_555
C12 C11 1_555 1_555
H14 C12 1_555 1_555
C13 C12 1_555 1_555
C14 C13 1_555 1_555
H15 C14 1_555 1_555
C15 N1 1_555 1_555
C16 H17 1_555 1_555
C17 C16 1_555 1_555
H18 C17 1_555 1_555
C18 C13 1_555 1_555
C19 C18 1_555 1_555
H19 C19 1_555 1_555
C20 N2 1_555 1_555
H20 C20 1_555 1_555
O14 Cd6 1_555 1_555
O15 Cd6 1_555 1_555
C14 C15 1_555 1_555
C17 C18 1_555 1_555
C19 C20 1_555 1_555
O3 C8 1_555 1_555
O4 C8 1_555 1_555
O5 C9 1_555 1_555
O6 C9 1_555 1_555
C1 H3 1_555 1_555
C2 C1 1_555 1_555
H4 C2 1_555 1_555
H5 C2 1_555 1_555
C3 C2 1_555 1_555
H6 C3 1_555 1_555
C4 C3 1_555 1_555
H7 C4 1_555 1_555
H8 C4 1_555 1_555
C5 C4 1_555 1_555
H9 C5 1_555 1_555
C6 C1 1_555 1_555
H10 C6 1_555 1_555
H11 C6 1_555 1_555
C8 C3 1_555 1_555
C9 C5 1_555 1_555
Cd4 O5 1_555 1_555
O2 C7 1_555 1_555
O6 Cd4 1_555 1_555
C1 C7 1_555 1_555
C5 C6 1_555 1_555
O10 C8_2 1_555 1_555
O11 C8_2 1_555 1_555
O5_2 C9_2 1_555 1_555
O6_2 C9_2 1_555 1_555
C1_2 H3_2 1_555 1_555
C2_2 C1_2 1_555 1_555
H4_2 C2_2 1_555 1_555
H5_2 C2_2 1_555 1_555
C3_2 C2_2 1_555 1_555
C4_2 C3_2 1_555 1_555
H7_2 C4_2 1_555 1_555
H8_2 C4_2 1_555 1_555
C5_2 C4_2 1_555 1_555
H9_2 C5_2 1_555 1_555
C6_2 C1_2 1_555 1_555
H10_2 C6_2 1_555 1_555
H11_2 C6_2 1_555 1_555
C9_2 C5_2 1_555 1_555
Cd5 O5_2 1_555 1_555
O2_2 C7_2 1_555 1_555
O6_2 Cd5 1_555 1_555
C1_2 C7_2 1_555 1_555
C5_2 C6_2 1_555 1_555
Cd2 N2_2 1_555 1_555
N2_2 C16_2 1_555 1_555
O9_2 Cd2 1_555 1_555
H1_2 O9_2 1_555 1_555
H2_2 O9_2 1_555 1_555
C16_2 H17_2 1_555 1_555
C17_2 C16_2 1_555 1_555
H18_2 C17_2 1_555 1_555
C19_2 C18_2 1_555 1_555
C20_2 N2_2 1_555 1_555
H20_2 C20_2 1_555 1_555
N5 Cd2 1_555 1_555
O14_2 Cd2 1_555 1_555
O15_2 Cd2 1_555 1_555
C17_2 C18_2 1_555 1_555
C19_2 C20_2 1_555 1_555
N1_2 C11_2 1_555 1_555
C11_2 H13_2 1_555 1_555
C12_2 C11_2 1_555 1_555
H14_2 C12_2 1_555 1_555
C13_2 C12_2 1_555 1_555
C14_2 C13_2 1_555 1_555
C15_2 N1_2 1_555 1_555
C14_2 C15_2 1_555 1_555
N3_2 Cd3 1_555 1_555
N5 C26_2 1_555 1_555
O1_2 Cd3 1_555 1_555
O7_2 Cd3 1_555 1_555
O8_2 C10_2 1_555 1_555
C10_2 O7_2 1_555 1_555
H12_2 C10_2 1_555 1_555
C21_2 N3_2 1_555 1_555
H21_2 C21_2 1_555 1_555
C22_2 C21_2 1_555 1_555
H22_2 C22_2 1_555 1_555
C23_2 C22_2 1_555 1_555
C24_2 C23_2 1_555 1_555
H23_2 C24_2 1_555 1_555
C25_2 N3_2 1_555 1_555
H24_2 C25_2 1_555 1_555
C26_2 H25_2 1_555 1_555
C27_2 C26_2 1_555 1_555
H26_2 C27_2 1_555 1_555
C28_2 C23_2 1_555 1_555
C29_2 C28_2 1_555 1_555
H27_2 C29_2 1_555 1_555
C30_2 N5 1_555 1_555
H28_2 C30_2 1_555 1_555
Cd5 O7_2 1_555 1_555
O8_2 Cd5 1_555 1_555
C24_2 C25_2 1_555 1_555
C27_2 C28_2 1_555 1_555
C29_2 C30_2 1_555 1_555
Cd1_2 N1_3 1_555 1_555
Cd5 N2_3 1_555 1_555
N1_3 C11_3 1_555 1_555
N2_3 C16_3 1_555 1_555
N3_3 Cd1_2 1_555 1_555
O1_3 Cd1_2 1_555 1_555
O2_3 Cd1_2 1_555 1_555
O3_2 C8_3 1_555 1_555
O4_2 C8_3 1_555 1_555
O12_2 C9_3 1_555 1_555
O13_2 C9_3 1_555 1_555
O14_2 Cd1_2 1_555 1_555
O15_2 C10_3 1_555 1_555
C1_3 H3_3 1_555 1_555
C2_3 C1_3 1_555 1_555
H4_3 C2_3 1_555 1_555
H5_3 C2_3 1_555 1_555
C3_3 C2_3 1_555 1_555
H6_3 C3_3 1_555 1_555
C4_3 C3_3 1_555 1_555
H7_3 C4_3 1_555 1_555
H8_3 C4_3 1_555 1_555
C5_3 C4_3 1_555 1_555
H9_3 C5_3 1_555 1_555
C6_3 C1_3 1_555 1_555
H10_3 C6_3 1_555 1_555
H11_3 C6_3 1_555 1_555
C7_3 O1_3 1_555 1_555
C8_3 C3_3 1_555 1_555
C9_3 C5_3 1_555 1_555
C10_3 O14_2 1_555 1_555
H12_3 C10_3 1_555 1_555
C11_3 H13_3 1_555 1_555
C12_3 C11_3 1_555 1_555
H14_3 C12_3 1_555 1_555
C13_3 C12_3 1_555 1_555
C14_3 C13_3 1_555 1_555
H15_3 C14_3 1_555 1_555
C15_3 N1_3 1_555 1_555
H16_3 C15_3 1_555 1_555
C16_3 H17_3 1_555 1_555
C17_3 C16_3 1_555 1_555
H18_3 C17_3 1_555 1_555
C18_3 C13_3 1_555 1_555
C19_3 C18_3 1_555 1_555
H19_3 C19_3 1_555 1_555
C20_3 N2_3 1_555 1_555
H20_3 C20_3 1_555 1_555
C21_3 N3_3 1_555 1_555
H21_3 C21_3 1_555 1_555
C24_3 C23_3 1_555 1_555
H23_3 C24_3 1_555 1_555
C25_3 N3_3 1_555 1_555
H24_3 C25_3 1_555 1_555
H27_3 C29_3 1_555 1_555
Cd3_2 O3_2 1_555 1_555
O10_2 Cd1_2 1_555 1_555
O11_2 Cd1_2 1_555 1_555
O2_3 C7_3 1_555 1_555
O4_2 Cd3_2 1_555 1_555
C1_3 C7_3 1_555 1_555
C5_3 C6_3 1_555 1_555
C14_3 C15_3 1_555 1_555
C17_3 C18_3 1_555 1_555
C19_3 C20_3 1_555 1_555
C24_3 C25_3 1_555 1_555
Cd4 N2_4 1_555 1_555
N2_4 C16_4 1_555 1_555
O10_2 C8_4 1_555 1_555
O11_2 C8_4 1_555 1_555
C16_4 H17_4 1_555 1_555
C17_4 C16_4 1_555 1_555
H18_4 C17_4 1_555 1_555
C19_4 C18_4 1_555 1_555
C20_4 N2_4 1_555 1_555
H20_4 C20_4 1_555 1_555
C17_4 C18_4 1_555 1_555
C19_4 C20_4 1_555 1_555
Cd3_2 N1_4 1_555 1_555
N1_4 C11_4 1_555 1_555
N3_4 Cd3_2 1_555 1_555
N4_2 C26_3 1_555 1_555
O1_4 Cd3_2 1_555 1_555
O2_4 Cd3_2 1_555 1_555
O12 C9_4 1_555 1_555
O13 C9_4 1_555 1_555
O14 Cd3_2 1_555 1_555
O15 C10_4 1_555 1_555
C1_4 H3_4 1_555 1_555
C2_4 C1_4 1_555 1_555
H4_4 C2_4 1_555 1_555
H5_4 C2_4 1_555 1_555
C3_4 C2_4 1_555 1_555
C4_4 C3_4 1_555 1_555
H7_4 C4_4 1_555 1_555
H8_4 C4_4 1_555 1_555
C5_4 C4_4 1_555 1_555
H9_4 C5_4 1_555 1_555
C6_4 C1_4 1_555 1_555
H10_4 C6_4 1_555 1_555
H11_4 C6_4 1_555 1_555
C7_4 O1_4 1_555 1_555
C9_4 C5_4 1_555 1_555
C10_4 O14 1_555 1_555
H12_4 C10_4 1_555 1_555
C11_4 H13_4 1_555 1_555
C12_4 C11_4 1_555 1_555
H14_4 C12_4 1_555 1_555
C13_4 C12_4 1_555 1_555
C14_4 C13_4 1_555 1_555
C15_4 N1_4 1_555 1_555
H16_4 C15_4 1_555 1_555
C21_4 N3_4 1_555 1_555
H21_4 C21_4 1_555 1_555
C22_3 C21_4 1_555 1_555
H22_3 C22_3 1_555 1_555
C23_4 C22_3 1_555 1_555
C24_4 C23_4 1_555 1_555
H23_4 C24_4 1_555 1_555
C25_4 N3_4 1_555 1_555
H24_4 C25_4 1_555 1_555
C26_3 H25_3 1_555 1_555
C27_3 C26_3 1_555 1_555
H26_3 C27_3 1_555 1_555
C28_3 C23_4 1_555 1_555
C29_4 C28_3 1_555 1_555
H27_4 C29_4 1_555 1_555
C30_3 N4_2 1_555 1_555
O2_4 C7_4 1_555 1_555
C1_4 C7_4 1_555 1_555
C5_4 C6_4 1_555 1_555
C14_4 C15_4 1_555 1_555
C24_4 C25_4 1_555 1_555
C27_3 C28_3 1_555 1_555
C29_4 C30_3 1_555 1_555
H1_3 O9_3 1_555 1_555
H2_3 O9_3 1_555 1_555
H1_4 O9_4 1_555 1_555
H2_4 O9_4 1_555 1_555
N5_2 C26_4 1_555 1_555
H22_4 C22_4 1_555 1_555
C26_4 H25_4 1_555 1_555
C27_4 C26_4 1_555 1_555
H26_4 C27_4 1_555 1_555
C30_4 N5_2 1_555 1_555
C27_4 C28_4 1_555 1_555

#END
