
###############################################################################
#
# This file contains modified crystal structure data generated from the
# MOF subset of the Cambridge Structural Database (CSD) v543 
# hosted by the Cambridge Crystallographic Data Centre (CCDC).
#
# This work is licensed under the Creative Commons
# Attribution-NonCommercial-ShareAlike 4.0 International License.
# To view a copy of this license, visit
# http://creativecommons.org/licenses/by-nc-sa/4.0/
# or send a letter to
# Creative Commons, PO Box 1866, Mountain View, CA 94042, USA.
#
# CIF created using the CSD Python API on 29 September 2022
# The structure has been converted into the P1 space group
# The structure has a 3D framework
# The original CSD entry SOFKOQ is in the monoclinic crystal system
# The framework has been calculated to contain at least 10.0% void space
# The void calculation uses a probe of radius 1.32A, grid spacing 0.4
#
###############################################################################

data_SOFKOQ
_chemical_formula_moiety         '(C96 H64 N16 O13 S8 Zn2)n'
_symmetry_cell_setting           triclinic
_symmetry_space_group_name_H-M   'P 1'
_symmetry_Int_Tables_number      1
_space_group_name_Hall           'P 1'
loop_
_symmetry_equiv_pos_site_id
_symmetry_equiv_pos_as_xyz
1 x,y,z
_cell_length_a                   17.45790(10)
_cell_length_b                   7.38260(10)
_cell_length_c                   24.4793(2)
_cell_angle_alpha                90
_cell_angle_beta                 92.5850(10)
_cell_angle_gamma                90
_cell_volume                     3151.8
loop_
_atom_site_label
_atom_site_type_symbol
_atom_site_fract_x
_atom_site_fract_y
_atom_site_fract_z
Zn3 Zn 0.7500 0.04878(4) 0.0000
Zn1 Zn 0.2500 0.95122(4) 0.0000
O2 O 0.16402(7) 0.73042(17) 0.06613(5)
C1 C 0.13237(9) 0.7335(2) 0.02021(7)
C2 C 0.06195(8) 0.6178(2) 0.00805(6)
C4 C 0.05622(9) 0.4592(2) 0.03841(6)
H1 H 0.0959 0.4323 0.0650
H16 H 0.0439 0.1624 0.0887
O5 O 0.34455(6) 0.82639(17) 0.01964(5)
O3 O 0.84455(6) 0.17361(17) 0.01964(5)
C22 C 0.99548(9) 0.3381(2) 0.03180(6)
C24 C 0.99533(11) 0.1703(3) 0.06719(8)
H14 H 0.9527 0.1769 0.0919
H15 H 0.9892 0.0628 0.0439
C3 C 0.49548(9) 0.6619(2) 0.03180(6)
C5 C 0.49533(11) 0.8297(3) 0.06719(8)
H2 H 0.4527 0.8231 0.0919
H3 H 0.4892 0.9372 0.0439
H4 H 0.5439 0.8376 0.0887
O4 O 0.66402(7) 0.26958(17) 0.06613(5)
C20 C 0.63237(9) 0.2665(2) 0.02021(7)
C21 C 0.56195(8) 0.3822(2) 0.00805(6)
C23 C 0.55622(9) 0.5408(2) 0.03841(6)
H13 H 0.5959 0.5677 0.0650
Zn3_2 Zn 0.7500 0.04878(4) 1.0000
Zn1_2 Zn 0.2500 0.95122(4) 1.0000
O1 O 0.15545(6) 0.82639(17) 0.98036(5)
C3_2 C 0.00452(9) 0.6619(2) 0.96820(6)
C5_2 C 0.00467(11) 0.8297(3) 0.93281(8)
H2_2 H 0.0473 0.8231 0.9081
H3_2 H 0.0108 0.9372 0.9561
H4_2 H 0.9561 0.8376 0.9113
O4_2 O 0.83598(7) 0.26958(17) 0.93387(5)
C20_2 C 0.86763(9) 0.2665(2) 0.97979(7)
C21_2 C 0.93805(8) 0.3822(2) 0.99195(6)
C23_2 C 0.94378(9) 0.5408(2) 0.96159(6)
H13_2 H 0.9041 0.5677 0.9350
O2_2 O 0.33598(7) 0.73042(17) 0.93387(5)
C1_2 C 0.36763(9) 0.7335(2) 0.97979(7)
C2_2 C 0.43805(8) 0.6178(2) 0.99195(6)
C4_2 C 0.44378(9) 0.4592(2) 0.96159(6)
H1_2 H 0.4041 0.4323 0.9350
O3_2 O 0.65545(6) 0.17361(17) 0.98036(5)
C22_2 C 0.50452(9) 0.3381(2) 0.96820(6)
C24_2 C 0.50467(11) 0.1703(3) 0.93281(8)
H14_2 H 0.5473 0.1769 0.9081
H15_2 H 0.5108 0.0628 0.9561
H16_2 H 0.4561 0.1624 0.9113
S1 S 0.80422(2) 0.25122(5) 0.67736(2)
N2 N 0.71790(8) 0.02798(18) 0.73055(5)
H7 H 0.8268 0.0332 0.5908
C11 C 0.75543(9) 0.0466(2) 0.68548(6)
C12 C 0.72800(9) 0.1820(2) 0.76041(6)
S2 S 0.69578(2) 0.24878(5) 0.82264(2)
N3 N 0.74724(7) 0.86041(17) 0.93719(5)
N4 N 0.78210(8) 0.47202(18) 0.76945(5)
C13 C 0.78688(9) 0.8804(2) 0.89167(6)
H9 H 0.8166 0.9870 0.8876
C14 C 0.78600(9) 0.7520(2) 0.85060(6)
H10 H 0.8137 0.7716 0.8186
C15 C 0.74400(8) 0.5937(2) 0.85667(6)
C16 C 0.70256(9) 0.5731(2) 0.90373(6)
H11 H 0.6732 0.4668 0.9092
C17 C 0.70497(9) 0.7095(2) 0.94203(6)
H12 H 0.6754 0.6964 0.9734
C18 C 0.74457(9) 0.4534(2) 0.81452(6)
C19 C 0.77200(9) 0.3180(2) 0.73959(6)
Zn1_3 Zn 0.7500 0.45122(4) 0.5000
O1_2 O 0.65545(6) 0.32639(17) 0.48036(5)
O2_3 O 0.66402(7) 0.23042(17) 0.56613(5)
N1 N 0.75276(7) 0.63959(17) 0.56281(5)
C1_3 C 0.63237(9) 0.2335(2) 0.52021(7)
C2_3 C 0.56195(8) 0.1178(2) 0.50805(6)
C3_3 C 0.50452(9) 0.1619(2) 0.46820(6)
C5_3 C 0.50467(11) 0.3297(3) 0.43281(8)
H2_3 H 0.5473 0.3231 0.4081
H3_3 H 0.5108 0.4372 0.4561
H4_3 H 0.4561 0.3376 0.4113
C6 C 0.71312(9) 0.6196(2) 0.60833(6)
H5 H 0.6834 0.5130 0.6124
C7 C 0.71400(9) 0.7480(2) 0.64940(6)
H6 H 0.6863 0.7284 0.6814
C8 C 0.75600(8) 0.9063(2) 0.64333(6)
C9 C 0.79744(9) 0.9269(2) 0.59627(6)
C10 C 0.79503(9) 0.7905(2) 0.55797(6)
H8 H 0.8246 0.8036 0.5266
C23_3 C 0.44378(9) 0.0408(2) 0.46159(6)
H13_3 H 0.4041 0.0677 0.4350
O5_2 O 0.84455(6) 0.32639(17) 0.51964(5)
N5 N 0.74724(7) 0.63959(17) 0.43719(5)
O2_4 O 0.83598(7) 0.23042(17) 0.43387(5)
C1_4 C 0.86763(9) 0.2335(2) 0.47979(7)
C2_4 C 0.93805(8) 0.1178(2) 0.49195(6)
C3_4 C 0.99548(9) 0.1619(2) 0.53180(6)
C5_4 C 0.99533(11) 0.3297(3) 0.56719(8)
H2_4 H 0.9527 0.3231 0.5919
H3_4 H 0.9892 0.4372 0.5439
C6_2 C 0.78688(9) 0.6196(2) 0.39167(6)
H5_2 H 0.8166 0.5130 0.3876
C7_2 C 0.78600(9) 0.7480(2) 0.35060(6)
H6_2 H 0.8137 0.7284 0.3186
C8_2 C 0.74400(8) 0.9063(2) 0.35667(6)
C9_2 C 0.70256(9) 0.9269(2) 0.40373(6)
C10_2 C 0.70497(9) 0.7905(2) 0.44203(6)
H8_2 H 0.6754 0.8036 0.4734
C4_3 C 0.55622(9) 0.9592(2) 0.53841(6)
H1_3 H 0.5959 0.9323 0.5650
O3_3 O 0.34455(6) 0.67361(17) 0.51964(5)
O4_3 O 0.33598(7) 0.76958(17) 0.43387(5)
C20_3 C 0.36763(9) 0.7665(2) 0.47979(7)
C21_3 C 0.43805(8) 0.8822(2) 0.49195(6)
C22_3 C 0.49548(9) 0.8381(2) 0.53180(6)
C24_3 C 0.49533(11) 0.6703(3) 0.56719(8)
H14_3 H 0.4527 0.6769 0.5919
H15_3 H 0.4892 0.5628 0.5439
H16_3 H 0.5439 0.6624 0.5887
Zn2 Zn 0.2500 0.54878(4) 0.5000
O3_4 O 0.15545(6) 0.67361(17) 0.48036(5)
O4_4 O 0.16402(7) 0.76958(17) 0.56613(5)
C20_4 C 0.13237(9) 0.7665(2) 0.52021(7)
C21_4 C 0.06195(8) 0.8822(2) 0.50805(6)
C22_4 C 0.00452(9) 0.8381(2) 0.46820(6)
C24_4 C 0.00467(11) 0.6703(3) 0.43281(8)
H14_4 H 0.0473 0.6769 0.4081
H15_4 H 0.0108 0.5628 0.4561
N3_2 N 0.24724(7) 0.36041(17) 0.43719(5)
C13_2 C 0.28688(9) 0.3804(2) 0.39167(6)
H9_2 H 0.3166 0.4870 0.3876
C14_2 C 0.28600(9) 0.2520(2) 0.35060(6)
H10_2 H 0.3137 0.2716 0.3186
C15_2 C 0.24400(8) 0.0937(2) 0.35667(6)
C16_2 C 0.20256(9) 0.0731(2) 0.40373(6)
C17_2 C 0.20497(9) 0.2095(2) 0.44203(6)
H12_2 H 0.1754 0.1964 0.4734
N3_3 N 0.25276(7) 0.36041(17) 0.56281(5)
C13_3 C 0.21312(9) 0.3804(2) 0.60833(6)
H9_3 H 0.1834 0.4870 0.6124
C14_3 C 0.21400(9) 0.2520(2) 0.64940(6)
H10_3 H 0.1863 0.2716 0.6814
C15_3 C 0.25600(8) 0.0937(2) 0.64333(6)
C16_3 C 0.29744(9) 0.0731(2) 0.59627(6)
C17_3 C 0.29503(9) 0.2095(2) 0.55797(6)
H12_3 H 0.3246 0.1964 0.5266
H4_4 H 0.0439 0.3376 0.5887
C23_4 C 0.05622(9) 0.0408(2) 0.53841(6)
H13_4 H 0.0959 0.0677 0.5650
S1_2 S 0.69578(2) 0.25122(5) 0.32264(2)
N2_2 N 0.78210(8) 0.02798(18) 0.26945(5)
H7_2 H 0.6732 0.0332 0.4092
C11_2 C 0.74457(9) 0.0466(2) 0.31452(6)
C12_2 C 0.77200(9) 0.1820(2) 0.23959(6)
S2_2 S 0.80422(2) 0.24878(5) 0.17736(2)
N3_4 N 0.75276(7) 0.86041(17) 0.06281(5)
N4_2 N 0.71790(8) 0.47202(18) 0.23055(5)
C13_4 C 0.71312(9) 0.8804(2) 0.10833(6)
H9_4 H 0.6834 0.9870 0.1124
C14_4 C 0.71400(9) 0.7520(2) 0.14940(6)
H10_4 H 0.6863 0.7716 0.1814
C15_4 C 0.75600(8) 0.5937(2) 0.14333(6)
C16_4 C 0.79744(9) 0.5731(2) 0.09627(6)
H11_2 H 0.8268 0.4668 0.0908
C17_4 C 0.79503(9) 0.7095(2) 0.05797(6)
H12_4 H 0.8246 0.6964 0.0266
C18_2 C 0.75543(9) 0.4534(2) 0.18548(6)
C19_2 C 0.72800(9) 0.3180(2) 0.26041(6)
C4_4 C 0.94378(9) 0.9592(2) 0.46159(6)
H1_4 H 0.9041 0.9323 0.4350
H16_4 H 0.9561 0.6624 0.4113
S1_3 S 0.30422(2) 0.75122(5) 0.17736(2)
N1_2 N 0.25276(7) 0.13959(17) 0.06281(5)
N2_3 N 0.21790(8) 0.52798(18) 0.23055(5)
C6_3 C 0.21312(9) 0.1196(2) 0.10833(6)
H5_3 H 0.1834 0.0130 0.1124
C7_3 C 0.21400(9) 0.2480(2) 0.14940(6)
H6_3 H 0.1863 0.2284 0.1814
C8_3 C 0.25600(8) 0.4063(2) 0.14333(6)
C9_3 C 0.29744(9) 0.4269(2) 0.09627(6)
H7_3 H 0.3268 0.5332 0.0908
C10_3 C 0.29503(9) 0.2905(2) 0.05797(6)
H8_3 H 0.3246 0.3036 0.0266
C11_3 C 0.25543(9) 0.5466(2) 0.18548(6)
C12_3 C 0.22800(9) 0.6820(2) 0.26041(6)
S2_3 S 0.19578(2) 0.74878(5) 0.32264(2)
N4_3 N 0.28210(8) 0.97202(18) 0.26945(5)
H11_3 H 0.1732 0.9668 0.4092
C18_3 C 0.24457(9) 0.9534(2) 0.31452(6)
C19_3 C 0.27200(9) 0.8180(2) 0.23959(6)
N5_2 N 0.24724(7) 0.13959(17) 0.93719(5)
S1_4 S 0.19578(2) 0.75122(5) 0.82264(2)
N2_4 N 0.28210(8) 0.52798(18) 0.76945(5)
C6_4 C 0.28688(9) 0.1196(2) 0.89167(6)
H5_4 H 0.3166 0.0130 0.8876
C7_4 C 0.28600(9) 0.2480(2) 0.85060(6)
H6_4 H 0.3137 0.2284 0.8186
C8_4 C 0.24400(8) 0.4063(2) 0.85667(6)
C9_4 C 0.20256(9) 0.4269(2) 0.90373(6)
H7_4 H 0.1732 0.5332 0.9092
C10_4 C 0.20497(9) 0.2905(2) 0.94203(6)
H8_4 H 0.1754 0.3036 0.9734
C11_4 C 0.24457(9) 0.5466(2) 0.81452(6)
C12_4 C 0.27200(9) 0.6820(2) 0.73959(6)
S2_4 S 0.30422(2) 0.74878(5) 0.67736(2)
N4_4 N 0.21790(8) 0.97202(18) 0.73055(5)
H11_4 H 0.3268 0.9668 0.5908
C18_4 C 0.25543(9) 0.9534(2) 0.68548(6)
C19_4 C 0.22800(9) 0.8180(2) 0.76041(6)
loop_
_geom_bond_atom_site_label_1
_geom_bond_atom_site_label_2
_geom_bond_site_symmetry_1
_geom_bond_site_symmetry_2
O2 C1 1_555 1_555
C1 C2 1_555 1_555
C4 C2 1_555 1_555
H1 C4 1_555 1_555
O5 Zn1 1_555 1_555
C24 C22 1_555 1_555
H14 C24 1_555 1_555
H15 C24 1_555 1_555
Zn3 O3 1_555 1_555
C3 C5 1_555 1_555
C5 H2 1_555 1_555
H3 C5 1_555 1_555
H4 C5 1_555 1_555
O4 C20 1_555 1_555
C20 C21 1_555 1_555
C23 C3 1_555 1_555
H13 C23 1_555 1_555
C21 C23 1_555 1_555
Zn1_2 O1 1_555 1_555
C3_2 C5_2 1_555 1_555
C5_2 H2_2 1_555 1_555
H3_2 C5_2 1_555 1_555
O4_2 C20_2 1_555 1_555
C20_2 C21_2 1_555 1_555
H13_2 C23_2 1_555 1_555
C21_2 C23_2 1_555 1_555
O2_2 C1_2 1_555 1_555
C1_2 C2_2 1_555 1_555
C4_2 C2_2 1_555 1_555
H1_2 C4_2 1_555 1_555
C22_2 C4_2 1_555 1_555
C24_2 C22_2 1_555 1_555
H14_2 C24_2 1_555 1_555
H15_2 C24_2 1_555 1_555
H16_2 C24_2 1_555 1_555
Zn3_2 O3_2 1_555 1_555
S1 C11 1_555 1_555
N2 C11 1_555 1_555
C12 N2 1_555 1_555
S2 C12 1_555 1_555
N3 C13 1_555 1_555
N4 C18 1_555 1_555
C13 H9 1_555 1_555
C14 C13 1_555 1_555
H10 C14 1_555 1_555
C15 C14 1_555 1_555
C16 C15 1_555 1_555
H11 C16 1_555 1_555
C17 N3 1_555 1_555
H12 C17 1_555 1_555
C18 S2 1_555 1_555
C19 S1 1_555 1_555
C12 C19 1_555 1_555
N4 C19 1_555 1_555
C15 C18 1_555 1_555
C16 C17 1_555 1_555
Zn1_3 O1_2 1_555 1_555
O1_2 C1_3 1_555 1_555
O2_3 C1_3 1_555 1_555
N1 Zn1_3 1_555 1_555
C1_3 C2_3 1_555 1_555
C2_3 C3_3 1_555 1_555
C3_3 C5_3 1_555 1_555
C5_3 H2_3 1_555 1_555
H3_3 C5_3 1_555 1_555
H4_3 C5_3 1_555 1_555
C6 N1 1_555 1_555
H5 C6 1_555 1_555
C7 C6 1_555 1_555
H6 C7 1_555 1_555
C8 C7 1_555 1_555
C9 C8 1_555 1_555
C10 N1 1_555 1_555
H8 C10 1_555 1_555
C23_3 C3_3 1_555 1_555
H13_3 C23_3 1_555 1_555
O5_2 Zn1_3 1_555 1_555
N5 Zn1_3 1_555 1_555
C9 C10 1_555 1_555
O5_2 C1_4 1_555 1_555
O2_4 C1_4 1_555 1_555
C1_4 C2_4 1_555 1_555
C2_4 C3_4 1_555 1_555
C3_4 C5_4 1_555 1_555
C5_4 H2_4 1_555 1_555
H3_4 C5_4 1_555 1_555
C6_2 N5 1_555 1_555
H5_2 C6_2 1_555 1_555
C7_2 C6_2 1_555 1_555
H6_2 C7_2 1_555 1_555
C8_2 C7_2 1_555 1_555
C9_2 C8_2 1_555 1_555
C10_2 N5 1_555 1_555
H8_2 C10_2 1_555 1_555
C9_2 C10_2 1_555 1_555
H1_3 C4_3 1_555 1_555
O3_3 C20_3 1_555 1_555
O4_3 C20_3 1_555 1_555
C20_3 C21_3 1_555 1_555
C21_3 C22_3 1_555 1_555
C22_3 C4_3 1_555 1_555
C24_3 C22_3 1_555 1_555
H14_3 C24_3 1_555 1_555
H15_3 C24_3 1_555 1_555
H16_3 C24_3 1_555 1_555
Zn2 O3_3 1_555 1_555
O3_4 C20_4 1_555 1_555
O4_4 C20_4 1_555 1_555
C20_4 C21_4 1_555 1_555
C21_4 C22_4 1_555 1_555
C24_4 C22_4 1_555 1_555
H14_4 C24_4 1_555 1_555
H15_4 C24_4 1_555 1_555
Zn2 O3_4 1_555 1_555
N3_2 C13_2 1_555 1_555
C13_2 H9_2 1_555 1_555
C14_2 C13_2 1_555 1_555
H10_2 C14_2 1_555 1_555
C15_2 C14_2 1_555 1_555
C16_2 C15_2 1_555 1_555
C17_2 N3_2 1_555 1_555
H12_2 C17_2 1_555 1_555
Zn2 N3_2 1_555 1_555
C16_2 C17_2 1_555 1_555
N3_3 C13_3 1_555 1_555
C13_3 H9_3 1_555 1_555
C14_3 C13_3 1_555 1_555
H10_3 C14_3 1_555 1_555
C15_3 C14_3 1_555 1_555
C16_3 C15_3 1_555 1_555
C17_3 N3_3 1_555 1_555
H12_3 C17_3 1_555 1_555
Zn2 N3_3 1_555 1_555
C16_3 C17_3 1_555 1_555
H13_4 C23_4 1_555 1_555
S1_2 C11_2 1_555 1_555
N2_2 C11_2 1_555 1_555
C12_2 N2_2 1_555 1_555
S2_2 C12_2 1_555 1_555
N3_4 C13_4 1_555 1_555
N4_2 C18_2 1_555 1_555
C13_4 H9_4 1_555 1_555
C14_4 C13_4 1_555 1_555
H10_4 C14_4 1_555 1_555
C15_4 C14_4 1_555 1_555
C16_4 C15_4 1_555 1_555
H11_2 C16_4 1_555 1_555
C17_4 N3_4 1_555 1_555
H12_4 C17_4 1_555 1_555
C18_2 S2_2 1_555 1_555
C19_2 S1_2 1_555 1_555
C12_2 C19_2 1_555 1_555
N4_2 C19_2 1_555 1_555
C15_4 C18_2 1_555 1_555
C16_4 C17_4 1_555 1_555
H1_4 C4_4 1_555 1_555
S1_3 C11_3 1_555 1_555
N2_3 C11_3 1_555 1_555
C6_3 N1_2 1_555 1_555
H5_3 C6_3 1_555 1_555
C7_3 C6_3 1_555 1_555
H6_3 C7_3 1_555 1_555
C8_3 C7_3 1_555 1_555
C9_3 C8_3 1_555 1_555
H7_3 C9_3 1_555 1_555
C10_3 N1_2 1_555 1_555
H8_3 C10_3 1_555 1_555
C11_3 C8_3 1_555 1_555
C12_3 N2_3 1_555 1_555
S2_3 C12_3 1_555 1_555
N4_3 C18_3 1_555 1_555
C18_3 S2_3 1_555 1_555
C19_3 S1_3 1_555 1_555
C9_3 C10_3 1_555 1_555
C12_3 C19_3 1_555 1_555
N4_3 C19_3 1_555 1_555
S1_4 C11_4 1_555 1_555
N2_4 C11_4 1_555 1_555
C6_4 N5_2 1_555 1_555
H5_4 C6_4 1_555 1_555
C7_4 C6_4 1_555 1_555
H6_4 C7_4 1_555 1_555
C8_4 C7_4 1_555 1_555
C9_4 C8_4 1_555 1_555
H7_4 C9_4 1_555 1_555
C10_4 N5_2 1_555 1_555
H8_4 C10_4 1_555 1_555
C11_4 C8_4 1_555 1_555
C12_4 N2_4 1_555 1_555
S2_4 C12_4 1_555 1_555
N4_4 C18_4 1_555 1_555
C18_4 S2_4 1_555 1_555
C19_4 S1_4 1_555 1_555
C9_4 C10_4 1_555 1_555
C12_4 C19_4 1_555 1_555
N4_4 C19_4 1_555 1_555

#END
