
###############################################################################
#
# This file contains modified crystal structure data generated from the
# MOF subset of the Cambridge Structural Database (CSD) v543 
# hosted by the Cambridge Crystallographic Data Centre (CCDC).
#
# This work is licensed under the Creative Commons
# Attribution-NonCommercial-ShareAlike 4.0 International License.
# To view a copy of this license, visit
# http://creativecommons.org/licenses/by-nc-sa/4.0/
# or send a letter to
# Creative Commons, PO Box 1866, Mountain View, CA 94042, USA.
#
# CIF created using the CSD Python API on 29 September 2022
# The structure has been converted into the P1 space group
# The structure has a 3D framework
# The original CSD entry SOFNUZ is in the triclinic crystal system
# The framework has been calculated to contain at least 10.0% void space
# The void calculation uses a probe of radius 1.32A, grid spacing 0.4
#
###############################################################################

data_SOFNUZ
_chemical_formula_moiety         '(C38 H20 N4 O6 S2 Zn2)n'
_symmetry_cell_setting           triclinic
_symmetry_space_group_name_H-M   'P 1'
_symmetry_Int_Tables_number      1
_space_group_name_Hall           'P 1'
loop_
_symmetry_equiv_pos_site_id
_symmetry_equiv_pos_as_xyz
1 x,y,z
_cell_length_a                   8.08980(10)
_cell_length_b                   10.44570(10)
_cell_length_c                   12.9589(2)
_cell_angle_alpha                78.2910(10)
_cell_angle_beta                 76.4080(10)
_cell_angle_gamma                89.3560(10)
_cell_volume                     1041.49
loop_
_atom_site_label
_atom_site_type_symbol
_atom_site_fract_x
_atom_site_fract_y
_atom_site_fract_z
_atom_site_U_iso_or_equiv
_atom_site_thermal_displace_type
Zn7 Zn 0.15887(5) 0.08096(4) 0.45485(3) 0.0163 Uani
O2 O 0.0589(3) 0.0307(3) 0.3345(2) 0.0307 Uani
C6 C 0.0503(5) 0.0453(4) 0.1212(3) 0.0322 Uani
H3 H 0.1222 0.1033 0.1373 0.0390 Uiso
C31 C 0.0544(5) 0.0452(4) 0.0117(3) 0.0310 Uani
O5 O 0.1800(3) 0.0943(3) 0.60666(19) 0.0276 Uani
C27 C 0.0596(5) 0.0342(3) 0.6803(3) 0.0250 Uani
C28 C 0.0578(5) 0.0385(4) 0.7954(3) 0.0274 Uani
C29 C 0.1662(6) 0.1267(4) 0.8193(3) 0.0370 Uani
H15 H 0.2404 0.1829 0.7630 0.0440 Uiso
C30 C 0.1637(6) 0.1309(5) 0.9238(3) 0.0416 Uani
H16 H 0.2350 0.1910 0.9380 0.0500 Uiso
S2 S 0.74696(16) 0.53855(15) 0.02460(13) 0.0643 Uani
N3 N 0.3612(4) 0.1879(3) 0.3510(2) 0.0210 Uani
N4 N 0.9514(5) 0.3678(4) 0.1224(3) 0.0454 Uani
C20 C 0.5187(5) 0.1444(4) 0.3385(3) 0.0274 Uani
H11 H 0.5359 0.0639 0.3800 0.0330 Uiso
C21 C 0.6570(5) 0.2136(4) 0.2667(3) 0.0330 Uani
H12 H 0.7655 0.1811 0.2618 0.0390 Uiso
C22 C 0.6338(5) 0.3312(4) 0.2021(3) 0.0298 Uani
C23 C 0.4688(5) 0.3772(4) 0.2150(4) 0.0424 Uani
H13 H 0.4477 0.4568 0.1738 0.0510 Uiso
C24 C 0.3382(5) 0.3027(4) 0.2897(4) 0.0375 Uani
H14 H 0.2287 0.3338 0.2980 0.0450 Uiso
C25 C 0.7793(6) 0.4032(4) 0.1216(4) 0.0402 Uani
O3 O 0.0164(3) 0.7782(2) 0.5366(2) 0.0265 Uani
O4 O 0.2587(3) 0.9008(2) 0.4753(2) 0.0243 Uani
C7 C 0.1762(4) 0.7926(3) 0.5076(3) 0.0213 Uani
C8 C 0.2753(4) 0.6704(3) 0.5111(3) 0.0220 Uani
C9 C 0.1876(5) 0.5466(3) 0.5492(3) 0.0279 Uani
H4 H 0.0695 0.5423 0.5719 0.0330 Uiso
C10 C 0.2751(5) 0.4335(3) 0.5526(3) 0.0270 Uani
H5 H 0.2158 0.3532 0.5771 0.0320 Uiso
C11 C 0.4560(4) 0.4377(3) 0.5192(3) 0.0216 Uani
C12 C 0.4502(4) 0.6766(3) 0.4774(3) 0.0231 Uani
H6 H 0.5073 0.7578 0.4519 0.0280 Uiso
O7 O 0.9836(3) 0.2218(2) 0.4634(2) 0.0265 Uani
O8 O 0.7413(3) 0.0992(2) 0.5247(2) 0.0243 Uani
C33 C 0.8238(4) 0.2074(3) 0.4924(3) 0.0213 Uani
C34 C 0.7247(4) 0.3296(3) 0.4889(3) 0.0220 Uani
C35 C 0.8124(5) 0.4534(3) 0.4508(3) 0.0279 Uani
H18 H 0.9305 0.4577 0.4281 0.0330 Uiso
C36 C 0.7249(5) 0.5665(3) 0.4474(3) 0.0270 Uani
H19 H 0.7842 0.6468 0.4229 0.0320 Uiso
C37 C 0.5440(4) 0.5623(3) 0.4808(3) 0.0216 Uani
C38 C 0.5498(4) 0.3234(3) 0.5226(3) 0.0231 Uani
H20 H 0.4927 0.2422 0.5481 0.0280 Uiso
Zn4 Zn 0.84113(5) 0.91904(4) 0.54515(3) 0.0163 Uani
S1 S 0.25304(16) 0.46145(15) 0.97540(13) 0.0643 Uani
O1 O 0.8200(3) 0.9057(3) 0.39334(19) 0.0276 Uani
N1 N 0.6388(4) 0.8121(3) 0.6490(2) 0.0210 Uani
N2 N 0.0486(5) 0.6322(4) 0.8776(3) 0.0454 Uani
C1 C 0.9404(5) 0.9658(3) 0.3197(3) 0.0250 Uani
C2 C 0.9422(5) 0.9615(4) 0.2046(3) 0.0274 Uani
C3 C 0.8338(6) 0.8733(4) 0.1807(3) 0.0370 Uani
H1 H 0.7596 0.8171 0.2370 0.0440 Uiso
C4 C 0.8363(6) 0.8691(5) 0.0762(3) 0.0416 Uani
H2 H 0.7650 0.8090 0.0620 0.0500 Uiso
C13 C 0.4813(5) 0.8556(4) 0.6615(3) 0.0274 Uani
H7 H 0.4641 0.9361 0.6200 0.0330 Uiso
C14 C 0.3430(5) 0.7864(4) 0.7333(3) 0.0330 Uani
H8 H 0.2345 0.8189 0.7382 0.0390 Uiso
C15 C 0.3662(5) 0.6688(4) 0.7979(3) 0.0298 Uani
C16 C 0.5312(5) 0.6228(4) 0.7850(4) 0.0424 Uani
H9 H 0.5523 0.5432 0.8262 0.0510 Uiso
C17 C 0.6618(5) 0.6973(4) 0.7103(4) 0.0375 Uani
H10 H 0.7713 0.6662 0.7020 0.0450 Uiso
C18 C 0.2207(6) 0.5968(4) 0.8784(4) 0.0402 Uani
O11 O 0.9411(3) 0.9693(3) 0.6655(2) 0.0307 Uani
C5 C 0.9456(5) 0.9548(4) 0.9883(3) 0.0310 Uani
C32 C 0.9497(5) 0.9547(4) 0.8788(3) 0.0322 Uani
H17 H 0.8778 0.8967 0.8627 0.0390 Uiso
C26 C 0.0408(6) 0.4543(5) 0.0282(4) 0.0448 Uani
C19 C 0.9592(6) 0.5457(5) 0.9718(4) 0.0448 Uani
loop_
_atom_site_aniso_label
_atom_site_aniso_U_11
_atom_site_aniso_U_22
_atom_site_aniso_U_33
_atom_site_aniso_U_23
_atom_site_aniso_U_13
_atom_site_aniso_U_12
Zn7 0.0143 0.0151 0.0163 -0.00063 0.00035 0.00061
O2 0.0321 0.0394 0.0219 -0.0061 -0.0087 -0.0028
C6 0.033 0.039 0.0247 -0.0078 -0.0057 -0.0064
C31 0.0313 0.04 0.0207 -0.0064 -0.0039 -0.0044
O5 0.034 0.0291 0.0179 -0.0051 -0.0025 -0.0004
C27 0.0273 0.0247 0.0231 -0.0046 -0.0065 0.0062
C28 0.0275 0.0335 0.021 -0.006 -0.0053 0.0025
C29 0.04 0.045 0.0214 -0.0027 -0.0013 -0.0144
C30 0.045 0.052 0.026 -0.0062 -0.0053 -0.02
S2 0.035 0.0642 0.0686 0.0225 0.0062 -0.0016
N3 0.0174 0.0211 0.0206 -0.0012 0.0005 -0.0002
N4 0.0411 0.0393 0.0432 -0.0012 0.0085 0.0013
C20 0.0224 0.0258 0.0273 0.0037 -0.0006 -0.0008
C21 0.0213 0.033 0.036 0.0023 0.0021 0.0028
C22 0.0247 0.0286 0.0279 0.0022 0.0029 -0.0032
C23 0.029 0.032 0.05 0.0158 0.0017 0.0032
C24 0.0233 0.031 0.044 0.0097 0.005 0.0027
C25 0.0346 0.037 0.039 -0.0009 0.0053 -0.0075
O3 0.0173 0.0205 0.0373 -0.0025 -0.0011 0.0029
O4 0.0199 0.0161 0.0343 -0.0036 -0.0031 0.0031
C7 0.0195 0.0202 0.0223 -0.0032 -0.0026 0.0048
C8 0.0199 0.0169 0.0273 -0.004 -0.0027 0.0031
C9 0.0174 0.0216 0.041 -0.0035 -0.0022 0.0011
C10 0.0189 0.0172 0.04 -0.0025 -0.0004 0.0001
C11 0.0187 0.0178 0.027 -0.0038 -0.0036 0.0009
C12 0.0206 0.0175 0.0282 -0.0015 -0.0026 0.0009
O7 0.0173 0.0205 0.0373 -0.0025 -0.0011 0.0029
O8 0.0199 0.0161 0.0343 -0.0036 -0.0031 0.0031
C33 0.0195 0.0202 0.0223 -0.0032 -0.0026 0.0048
C34 0.0199 0.0169 0.0273 -0.004 -0.0027 0.0031
C35 0.0174 0.0216 0.041 -0.0035 -0.0022 0.0011
C36 0.0189 0.0172 0.04 -0.0025 -0.0004 0.0001
C37 0.0187 0.0178 0.027 -0.0038 -0.0036 0.0009
C38 0.0206 0.0175 0.0282 -0.0015 -0.0026 0.0009
Zn4 0.0143 0.0151 0.0163 -0.00063 0.00035 0.00061
S1 0.035 0.0642 0.0686 0.0225 0.0062 -0.0016
O1 0.034 0.0291 0.0179 -0.0051 -0.0025 -0.0004
N1 0.0174 0.0211 0.0206 -0.0012 0.0005 -0.0002
N2 0.0411 0.0393 0.0432 -0.0012 0.0085 0.0013
C1 0.0273 0.0247 0.0231 -0.0046 -0.0065 0.0062
C2 0.0275 0.0335 0.021 -0.006 -0.0053 0.0025
C3 0.04 0.045 0.0214 -0.0027 -0.0013 -0.0144
C4 0.045 0.052 0.026 -0.0062 -0.0053 -0.02
C13 0.0224 0.0258 0.0273 0.0037 -0.0006 -0.0008
C14 0.0213 0.033 0.036 0.0023 0.0021 0.0028
C15 0.0247 0.0286 0.0279 0.0022 0.0029 -0.0032
C16 0.029 0.032 0.05 0.0158 0.0017 0.0032
C17 0.0233 0.031 0.044 0.0097 0.005 0.0027
C18 0.0346 0.037 0.039 -0.0009 0.0053 -0.0075
O11 0.0321 0.0394 0.0219 -0.0061 -0.0087 -0.0028
C5 0.0313 0.04 0.0207 -0.0064 -0.0039 -0.0044
C32 0.033 0.039 0.0247 -0.0078 -0.0057 -0.0064
C26 0.035 0.046 0.045 0.002 -0.0029 0.0087
C19 0.035 0.046 0.045 0.002 -0.0029 0.0087
loop_
_geom_bond_atom_site_label_1
_geom_bond_atom_site_label_2
_geom_bond_site_symmetry_1
_geom_bond_site_symmetry_2
H3 C6 1_555 1_555
Zn7 O2 1_555 1_555
C6 C31 1_555 1_555
O5 C27 1_555 1_555
C27 C28 1_555 1_555
C28 C29 1_555 1_555
C29 H15 1_555 1_555
C30 C29 1_555 1_555
H16 C30 1_555 1_555
Zn7 O5 1_555 1_555
N3 C20 1_555 1_555
N4 C25 1_555 1_555
C20 H11 1_555 1_555
C21 C20 1_555 1_555
H12 C21 1_555 1_555
C22 C21 1_555 1_555
C23 C22 1_555 1_555
H13 C23 1_555 1_555
C24 N3 1_555 1_555
H14 C24 1_555 1_555
C25 S2 1_555 1_555
Zn7 N3 1_555 1_555
C22 C25 1_555 1_555
C23 C24 1_555 1_555
O4 C7 1_555 1_555
C7 O3 1_555 1_555
C8 C7 1_555 1_555
C9 C8 1_555 1_555
H4 C9 1_555 1_555
C10 C9 1_555 1_555
H5 C10 1_555 1_555
C11 C10 1_555 1_555
C12 C8 1_555 1_555
H6 C12 1_555 1_555
O7 C33 1_555 1_555
O8 C33 1_555 1_555
C33 C34 1_555 1_555
C34 C35 1_555 1_555
C35 H18 1_555 1_555
C36 C35 1_555 1_555
H19 C36 1_555 1_555
C37 C11 1_555 1_555
C38 C11 1_555 1_555
H20 C38 1_555 1_555
C12 C37 1_555 1_555
C34 C38 1_555 1_555
C36 C37 1_555 1_555
Zn4 O1 1_555 1_555
S1 C18 1_555 1_555
O1 C1 1_555 1_555
N1 Zn4 1_555 1_555
N2 C18 1_555 1_555
C1 C2 1_555 1_555
C2 C3 1_555 1_555
C3 H1 1_555 1_555
C4 C3 1_555 1_555
H2 C4 1_555 1_555
C13 N1 1_555 1_555
H7 C13 1_555 1_555
C14 C13 1_555 1_555
H8 C14 1_555 1_555
C15 C14 1_555 1_555
C16 C15 1_555 1_555
H9 C16 1_555 1_555
C17 N1 1_555 1_555
H10 C17 1_555 1_555
C18 C15 1_555 1_555
O11 Zn4 1_555 1_555
C16 C17 1_555 1_555
C32 C5 1_555 1_555
H17 C32 1_555 1_555

#END
