
###############################################################################
#
# This file contains modified crystal structure data generated from the
# MOF subset of the Cambridge Structural Database (CSD) v543 
# hosted by the Cambridge Crystallographic Data Centre (CCDC).
#
# This work is licensed under the Creative Commons
# Attribution-NonCommercial-ShareAlike 4.0 International License.
# To view a copy of this license, visit
# http://creativecommons.org/licenses/by-nc-sa/4.0/
# or send a letter to
# Creative Commons, PO Box 1866, Mountain View, CA 94042, USA.
#
# CIF created using the CSD Python API on 29 September 2022
# The structure has been converted into the P1 space group
# The structure has a 3D framework
# The original CSD entry SOFPAH is in the triclinic crystal system
# The framework has been calculated to contain at least 10.0% void space
# The void calculation uses a probe of radius 1.32A, grid spacing 0.4
#
###############################################################################

data_SOFPAH
_chemical_formula_moiety         '(C104 H56 Cd4 N16 O14 S8)n'
_symmetry_cell_setting           triclinic
_symmetry_space_group_name_H-M   'P 1'
_symmetry_Int_Tables_number      1
_space_group_name_Hall           'P 1'
loop_
_symmetry_equiv_pos_site_id
_symmetry_equiv_pos_as_xyz
1 x,y,z
_cell_length_a                   12.3258(5)
_cell_length_b                   16.8777(4)
_cell_length_c                   17.4625(3)
_cell_angle_alpha                107.170(2)
_cell_angle_beta                 90.345(3)
_cell_angle_gamma                110.384(3)
_cell_volume                     3229.38
loop_
_atom_site_label
_atom_site_type_symbol
_atom_site_fract_x
_atom_site_fract_y
_atom_site_fract_z
O5 O 0.2041(3) 0.0504(2) 0.6848(2)
Cd7 Cd 0.41072(2) 0.12902(2) 0.68551(2)
Cd1 Cd 0.59378(2) 0.37836(2) 0.72192(2)
S1 S 0.48375(11) 0.40237(9) 0.30082(7)
S2 S 0.70497(12) 0.34048(11) 0.13861(8)
S3 S 0.51113(13) 0.09469(11) 0.24954(8)
S4 S 0.31628(12) 0.18295(10) 0.12701(8)
O1 O 0.6892(3) 0.5316(2) 0.7458(3)
O2 O 0.8011(3) 0.4525(2) 0.7133(2)
O3 O 0.3826(3) 0.2627(2) 0.7112(2)
O4 O 0.4216(3) 0.4056(2) 0.7319(2)
N1 N 0.5695(4) 0.3551(3) 0.5834(3)
N2 N 0.4024(3) 0.1227(3) 0.5520(3)
N5 N 0.6525(4) 0.3419(3) 0.2963(3)
N6 N 0.5346(4) 0.3988(3) 0.1421(3)
N7 N 0.3479(4) 0.1611(3) 0.2793(2)
N8 N 0.4801(4) 0.1166(3) 0.0975(3)
C1 C 0.7841(4) 0.5241(3) 0.7271(3)
C2 C 0.8812(4) 0.6042(4) 0.7175(4)
C3 C 0.8575(4) 0.6774(4) 0.7160(4)
H1 H 0.7831 0.6781 0.7229
C4 C 0.9459(4) 0.7525(4) 0.7038(4)
C7 C 0.9931(5) 0.6027(4) 0.7086(4)
H5 H 0.9974 0.9501 0.6900
C11 C 0.9241(5) 0.8279(4) 0.7000(4)
H6 H 0.8493 0.8289 0.7038
C13 C 0.3499(4) 0.3278(3) 0.7202(3)
C14 C 0.2227(4) 0.3130(3) 0.7160(3)
C15 C 0.1397(4) 0.2291(3) 0.6953(3)
H7 H 0.1622 0.1801 0.6838
C16 C 0.0196(4) 0.2160(3) 0.6912(4)
C18 C 0.0731(4) 0.3765(3) 0.7298(3)
H8 H 0.0517 0.4261 0.7412
C19 C 0.1880(5) 0.3884(3) 0.7325(3)
H9 H 0.2442 0.4455 0.7451
C25 C 0.6472(4) 0.3324(4) 0.5367(3)
H13 H 0.7013 0.3156 0.5587
C26 C 0.6504(5) 0.3327(4) 0.4582(3)
H14 H 0.7048 0.3155 0.4278
C27 C 0.5716(4) 0.3591(3) 0.4245(3)
C28 C 0.4892(5) 0.3801(4) 0.4722(3)
H15 H 0.4330 0.3960 0.4516
C29 C 0.4913(4) 0.3770(4) 0.5502(3)
H16 H 0.4353 0.3909 0.5811
C30 C 0.5769(4) 0.3640(3) 0.3418(3)
C31 C 0.6359(4) 0.3553(4) 0.2244(3)
C32 C 0.5514(4) 0.3871(3) 0.2150(3)
C33 C 0.6087(4) 0.3761(3) 0.0956(3)
C34 C 0.6131(4) 0.3791(3) 0.0133(3)
H20 H 0.4817 0.4242 0.0128
C39 C 0.4808(4) 0.0989(3) 0.5069(3)
H21 H 0.5328 0.0812 0.5301
C40 C 0.4884(4) 0.0992(3) 0.4283(3)
H22 H 0.5436 0.0819 0.3990
C41 C 0.4110(4) 0.1263(3) 0.3942(3)
C42 C 0.3303(4) 0.1518(4) 0.4405(3)
H23 H 0.2784 0.1712 0.4195
C43 C 0.3284(5) 0.1477(4) 0.5185(3)
H24 H 0.2728 0.1631 0.5488
C44 C 0.4147(4) 0.1305(3) 0.3109(3)
C45 C 0.4569(5) 0.1227(4) 0.1747(3)
C46 C 0.3724(4) 0.1564(3) 0.2027(3)
C47 C 0.4121(4) 0.1466(3) 0.0657(3)
O11 O 0.6215(3) 0.2432(2) 0.6931(2)
O12 O 0.5842(3) 0.1022(2) 0.6814(2)
N9 N 0.6126(3) 0.3835(3) 0.8551(2)
N10 N 0.4268(4) 0.1543(3) 0.8245(2)
C35 C 0.6888(5) 0.3517(4) 0.9636(3)
H17 H 0.7413 0.3313 0.9824
C36 C 0.6853(5) 0.3549(4) 0.8851(3)
H18 H 0.7365 0.3362 0.8521
C37 C 0.5370(5) 0.4089(4) 0.9028(3)
H19 H 0.4847 0.4283 0.8822
C38 C 0.5352(5) 0.4069(4) 0.9814(3)
C48 C 0.4167(5) 0.1511(4) 0.9828(3)
C49 C 0.4935(6) 0.1218(5) 0.9351(3)
H25 H 0.5424 0.0994 0.9554
C50 C 0.4968(5) 0.1262(4) 0.8572(3)
H26 H 0.5508 0.1085 0.8266
C51 C 0.3529(5) 0.1839(4) 0.8699(3)
H27 H 0.3054 0.2060 0.8479
C52 C 0.3453(5) 0.1825(4) 0.9490(3)
H28 H 0.2924 0.2025 0.9789
C17 C 0.9855(4) 0.2911(3) 0.7102(3)
C20 C 0.8654(4) 0.2774(3) 0.7063(3)
H10 H 0.8426 0.3262 0.7165
C21 C 0.7812(4) 0.1925(3) 0.6874(3)
C22 C 0.8164(5) 0.1180(4) 0.6682(4)
H11 H 0.7602 0.0608 0.6551
C23 C 0.9307(5) 0.1290(4) 0.6686(4)
H12 H 0.9516 0.0792 0.6540
C24 C 0.6551(4) 0.1791(3) 0.6876(3)
O6 O 0.3215(3) 0.9754(2) 0.6650(2)
C5 C 0.0596(4) 0.7500(4) 0.6951(3)
C6 C 0.0806(5) 0.6739(4) 0.6978(4)
H2 H 0.1548 0.6720 0.6922
H3 H 0.0083 0.5529 0.7099
C8 C 0.1484(4) 0.8256(4) 0.6832(3)
H4 H 0.2227 0.8248 0.6758
C9 C 0.1250(4) 0.8989(3) 0.6827(3)
C10 C 0.0124(4) 0.9000(4) 0.6909(4)
C12 C 0.2229(4) 0.9804(3) 0.6760(3)
O7 O 0.3785(3) 0.7568(2) 0.3069(2)
O8 O 0.4158(3) 0.8978(2) 0.3186(2)
C17_2 C 0.0145(4) 0.7089(3) 0.2898(3)
C20_2 C 0.1346(4) 0.7226(3) 0.2937(3)
H10_2 H 0.1574 0.6738 0.2835
C21_2 C 0.2188(4) 0.8075(3) 0.3126(3)
C22_2 C 0.1836(5) 0.8820(4) 0.3318(4)
H11_2 H 0.2398 0.9392 0.3449
C23_2 C 0.0693(5) 0.8710(4) 0.3314(4)
H12_2 H 0.0484 0.9208 0.3460
C24_2 C 0.3449(4) 0.8209(3) 0.3124(3)
Cd3 Cd 0.40622(2) 0.62164(2) 0.27808(2)
Cd5 Cd 0.58928(2) 0.87098(2) 0.31449(2)
N3 N 0.3874(3) 0.6165(3) 0.1449(2)
N4 N 0.5732(4) 0.8457(3) 0.1755(2)
C35_2 C 0.3112(5) 0.6483(4) 0.0364(3)
H17_2 H 0.2587 0.6687 0.0176
C36_2 C 0.3147(5) 0.6451(4) 0.1149(3)
H18_2 H 0.2635 0.6638 0.1479
C37_2 C 0.4630(5) 0.5911(4) 0.0972(3)
H19_2 H 0.5153 0.5717 0.1178
C38_2 C 0.4648(5) 0.5931(4) 0.0186(3)
C48_2 C 0.5833(5) 0.8489(4) 0.0172(3)
C49_2 C 0.5065(6) 0.8782(5) 0.0649(3)
H25_2 H 0.4576 0.9006 0.0446
C50_2 C 0.5032(5) 0.8738(4) 0.1428(3)
H26_2 H 0.4492 0.8915 0.1734
C51_2 C 0.6471(5) 0.8161(4) 0.1301(3)
H27_2 H 0.6946 0.7940 0.1521
C52_2 C 0.6547(5) 0.8175(4) 0.0510(3)
H28_2 H 0.7076 0.7975 0.0211
S1_2 S 0.51625(11) 0.59763(9) 0.69918(7)
S2_2 S 0.29503(12) 0.65952(11) 0.86139(8)
S3_2 S 0.48887(13) 0.90531(11) 0.75046(8)
S4_2 S 0.68372(12) 0.81705(10) 0.87299(8)
O1_2 O 0.3108(3) 0.4684(2) 0.2542(3)
O2_2 O 0.1989(3) 0.5475(2) 0.2867(2)
O3_2 O 0.6174(3) 0.7373(2) 0.2888(2)
O4_2 O 0.5784(3) 0.5944(2) 0.2681(2)
N1_2 N 0.4305(4) 0.6449(3) 0.4166(3)
N2_2 N 0.5976(3) 0.8773(3) 0.4480(3)
N5_2 N 0.3475(4) 0.6581(3) 0.7037(3)
N6_2 N 0.4654(4) 0.6012(3) 0.8579(3)
N7_2 N 0.6521(4) 0.8389(3) 0.7207(2)
N8_2 N 0.5199(4) 0.8834(3) 0.9025(3)
C1_2 C 0.2159(4) 0.4759(3) 0.2729(3)
C2_2 C 0.1188(4) 0.3958(4) 0.2825(4)
C3_2 C 0.1425(4) 0.3226(4) 0.2840(4)
H1_2 H 0.2169 0.3219 0.2771
C4_2 C 0.0541(4) 0.2475(4) 0.2962(4)
C7_2 C 0.0069(5) 0.3973(4) 0.2914(4)
H5_2 H 0.0026 0.0499 0.3100
C11_2 C 0.0759(5) 0.1721(4) 0.3000(4)
H6_2 H 0.1507 0.1711 0.2962
C13_2 C 0.6501(4) 0.6722(3) 0.2798(3)
C14_2 C 0.7773(4) 0.6870(3) 0.2840(3)
C15_2 C 0.8603(4) 0.7709(3) 0.3047(3)
H7_2 H 0.8378 0.8199 0.3162
C16_2 C 0.9804(4) 0.7840(3) 0.3088(4)
C18_2 C 0.9269(4) 0.6235(3) 0.2702(3)
H8_2 H 0.9483 0.5739 0.2588
C19_2 C 0.8120(5) 0.6116(3) 0.2675(3)
H9_2 H 0.7558 0.5545 0.2549
C25_2 C 0.3528(4) 0.6676(4) 0.4633(3)
H13_2 H 0.2987 0.6844 0.4413
C26_2 C 0.3496(5) 0.6673(4) 0.5418(3)
H14_2 H 0.2952 0.6845 0.5722
C27_2 C 0.4284(4) 0.6409(3) 0.5755(3)
C28_2 C 0.5108(5) 0.6199(4) 0.5278(3)
H15_2 H 0.5670 0.6040 0.5484
C29_2 C 0.5087(4) 0.6230(4) 0.4498(3)
H16_2 H 0.5647 0.6091 0.4189
C30_2 C 0.4231(4) 0.6360(3) 0.6582(3)
C31_2 C 0.3641(4) 0.6447(4) 0.7756(3)
C32_2 C 0.4486(4) 0.6129(3) 0.7850(3)
C33_2 C 0.3913(4) 0.6239(3) 0.9044(3)
C34_2 C 0.3869(4) 0.6209(3) 0.9867(3)
H20_2 H 0.5183 0.5758 0.9872
C39_2 C 0.5192(4) 0.9011(3) 0.4931(3)
H21_2 H 0.4672 0.9188 0.4699
C40_2 C 0.5116(4) 0.9008(3) 0.5717(3)
H22_2 H 0.4564 0.9181 0.6010
C41_2 C 0.5890(4) 0.8737(3) 0.6058(3)
C42_2 C 0.6697(4) 0.8482(4) 0.5595(3)
H23_2 H 0.7216 0.8288 0.5805
C43_2 C 0.6716(5) 0.8523(4) 0.4815(3)
H24_2 H 0.7272 0.8369 0.4512
C44_2 C 0.5853(4) 0.8695(3) 0.6891(3)
C45_2 C 0.5431(5) 0.8773(4) 0.8253(3)
C46_2 C 0.6276(4) 0.8436(3) 0.7973(3)
C47_2 C 0.5879(4) 0.8534(3) 0.9343(3)
O9 O 0.7959(3) 0.9496(2) 0.3152(2)
O10 O 0.6785(3) 0.0246(2) 0.3350(2)
C5_2 C 0.9404(4) 0.2500(4) 0.3049(3)
C6_2 C 0.9194(5) 0.3261(4) 0.3022(4)
H2_2 H 0.8452 0.3280 0.3078
H3_2 H 0.9917 0.4471 0.2901
C8_2 C 0.8516(4) 0.1744(4) 0.3168(3)
H4_2 H 0.7773 0.1752 0.3242
C9_2 C 0.8750(4) 0.1011(3) 0.3173(3)
C10_2 C 0.9876(4) 0.1000(4) 0.3091(4)
C12_2 C 0.7771(4) 0.0196(3) 0.3240(3)
loop_
_geom_bond_atom_site_label_1
_geom_bond_atom_site_label_2
_geom_bond_site_symmetry_1
_geom_bond_site_symmetry_2
Cd7 O5 1_555 1_555
Cd1 O1 1_555 1_555
Cd7 O3 1_555 1_555
S1 C30 1_555 1_555
S2 C31 1_555 1_555
S3 C44 1_555 1_555
S4 C46 1_555 1_555
O1 C1 1_555 1_555
O2 Cd1 1_555 1_555
O3 Cd1 1_555 1_555
O4 Cd1 1_555 1_555
N1 Cd1 1_555 1_555
N2 Cd7 1_555 1_555
N5 C30 1_555 1_555
N6 C32 1_555 1_555
N7 C44 1_555 1_555
N8 C45 1_555 1_555
C1 O2 1_555 1_555
C2 C1 1_555 1_555
C3 C2 1_555 1_555
H1 C3 1_555 1_555
C4 C3 1_555 1_555
C7 C2 1_555 1_555
C11 C4 1_555 1_555
H6 C11 1_555 1_555
C13 O3 1_555 1_555
C14 C13 1_555 1_555
C15 C14 1_555 1_555
H7 C15 1_555 1_555
C16 C15 1_555 1_555
H8 C18 1_555 1_555
C19 C14 1_555 1_555
H9 C19 1_555 1_555
C25 N1 1_555 1_555
H13 C25 1_555 1_555
C26 C25 1_555 1_555
H14 C26 1_555 1_555
C27 C26 1_555 1_555
C28 C27 1_555 1_555
H15 C28 1_555 1_555
C29 N1 1_555 1_555
H16 C29 1_555 1_555
C30 C27 1_555 1_555
C31 N5 1_555 1_555
C32 S1 1_555 1_555
C33 S2 1_555 1_555
C34 C33 1_555 1_555
C39 N2 1_555 1_555
H21 C39 1_555 1_555
C40 C39 1_555 1_555
H22 C40 1_555 1_555
C41 C40 1_555 1_555
C42 C41 1_555 1_555
H23 C42 1_555 1_555
C43 N2 1_555 1_555
H24 C43 1_555 1_555
C44 C41 1_555 1_555
C45 S3 1_555 1_555
C46 N7 1_555 1_555
C47 S4 1_555 1_555
O11 Cd1 1_555 1_555
O12 Cd7 1_555 1_555
N9 Cd1 1_555 1_555
N10 Cd7 1_555 1_555
Cd7 O11 1_555 1_555
O4 C13 1_555 1_555
N6 C33 1_555 1_555
N8 C47 1_555 1_555
C18 C19 1_555 1_555
C28 C29 1_555 1_555
C31 C32 1_555 1_555
C42 C43 1_555 1_555
C45 C46 1_555 1_555
N9 C36 1_555 1_555
N10 C50 1_555 1_555
H17 C35 1_555 1_555
C36 C35 1_555 1_555
H18 C36 1_555 1_555
C37 N9 1_555 1_555
H19 C37 1_555 1_555
C49 C48 1_555 1_555
H25 C49 1_555 1_555
C50 C49 1_555 1_555
H26 C50 1_555 1_555
C51 N10 1_555 1_555
H27 C51 1_555 1_555
C52 C48 1_555 1_555
H28 C52 1_555 1_555
C37 C38 1_555 1_555
C51 C52 1_555 1_555
O11 C24 1_555 1_555
O12 C24 1_555 1_555
C20 C17 1_555 1_555
H10 C20 1_555 1_555
C21 C20 1_555 1_555
C22 C21 1_555 1_555
H11 C22 1_555 1_555
H12 C23 1_555 1_555
C24 C21 1_555 1_555
C22 C23 1_555 1_555
O6 C12 1_555 1_555
C6 C5 1_555 1_555
H2 C6 1_555 1_555
C8 C5 1_555 1_555
H4 C8 1_555 1_555
C9 C8 1_555 1_555
C10 C9 1_555 1_555
C12 C9 1_555 1_555
O7 C24_2 1_555 1_555
O8 C24_2 1_555 1_555
C20_2 C17_2 1_555 1_555
H10_2 C20_2 1_555 1_555
C21_2 C20_2 1_555 1_555
C22_2 C21_2 1_555 1_555
H11_2 C22_2 1_555 1_555
H12_2 C23_2 1_555 1_555
C24_2 C21_2 1_555 1_555
Cd3 O7 1_555 1_555
Cd5 O7 1_555 1_555
O8 Cd5 1_555 1_555
C22_2 C23_2 1_555 1_555
N3 C36_2 1_555 1_555
N4 C50_2 1_555 1_555
H17_2 C35_2 1_555 1_555
C36_2 C35_2 1_555 1_555
H18_2 C36_2 1_555 1_555
C37_2 N3 1_555 1_555
H19_2 C37_2 1_555 1_555
C49_2 C48_2 1_555 1_555
H25_2 C49_2 1_555 1_555
C50_2 C49_2 1_555 1_555
H26_2 C50_2 1_555 1_555
C51_2 N4 1_555 1_555
H27_2 C51_2 1_555 1_555
C52_2 C48_2 1_555 1_555
H28_2 C52_2 1_555 1_555
Cd3 N3 1_555 1_555
Cd5 N4 1_555 1_555
C37_2 C38_2 1_555 1_555
C51_2 C52_2 1_555 1_555
Cd3 O1_2 1_555 1_555
Cd5 O3_2 1_555 1_555
S1_2 C30_2 1_555 1_555
S2_2 C31_2 1_555 1_555
S3_2 C44_2 1_555 1_555
S4_2 C46_2 1_555 1_555
O1_2 C1_2 1_555 1_555
O2_2 Cd3 1_555 1_555
O3_2 Cd3 1_555 1_555
O4_2 Cd3 1_555 1_555
N1_2 Cd3 1_555 1_555
N2_2 Cd5 1_555 1_555
N5_2 C30_2 1_555 1_555
N6_2 C32_2 1_555 1_555
N7_2 C44_2 1_555 1_555
N8_2 C45_2 1_555 1_555
C1_2 O2_2 1_555 1_555
C2_2 C1_2 1_555 1_555
C3_2 C2_2 1_555 1_555
H1_2 C3_2 1_555 1_555
C4_2 C3_2 1_555 1_555
C7_2 C2_2 1_555 1_555
C11_2 C4_2 1_555 1_555
H6_2 C11_2 1_555 1_555
C13_2 O3_2 1_555 1_555
C14_2 C13_2 1_555 1_555
C15_2 C14_2 1_555 1_555
H7_2 C15_2 1_555 1_555
C16_2 C15_2 1_555 1_555
H8_2 C18_2 1_555 1_555
C19_2 C14_2 1_555 1_555
H9_2 C19_2 1_555 1_555
C25_2 N1_2 1_555 1_555
H13_2 C25_2 1_555 1_555
C26_2 C25_2 1_555 1_555
H14_2 C26_2 1_555 1_555
C27_2 C26_2 1_555 1_555
C28_2 C27_2 1_555 1_555
H15_2 C28_2 1_555 1_555
C29_2 N1_2 1_555 1_555
H16_2 C29_2 1_555 1_555
C30_2 C27_2 1_555 1_555
C31_2 N5_2 1_555 1_555
C32_2 S1_2 1_555 1_555
C33_2 S2_2 1_555 1_555
C34_2 C33_2 1_555 1_555
C39_2 N2_2 1_555 1_555
H21_2 C39_2 1_555 1_555
C40_2 C39_2 1_555 1_555
H22_2 C40_2 1_555 1_555
C41_2 C40_2 1_555 1_555
C42_2 C41_2 1_555 1_555
H23_2 C42_2 1_555 1_555
C43_2 N2_2 1_555 1_555
H24_2 C43_2 1_555 1_555
C44_2 C41_2 1_555 1_555
C45_2 S3_2 1_555 1_555
C46_2 N7_2 1_555 1_555
C47_2 S4_2 1_555 1_555
O9 Cd5 1_555 1_555
O4_2 C13_2 1_555 1_555
N6_2 C33_2 1_555 1_555
N8_2 C47_2 1_555 1_555
C18_2 C19_2 1_555 1_555
C28_2 C29_2 1_555 1_555
C31_2 C32_2 1_555 1_555
C42_2 C43_2 1_555 1_555
C45_2 C46_2 1_555 1_555
O10 C12_2 1_555 1_555
C6_2 C5_2 1_555 1_555
H2_2 C6_2 1_555 1_555
C8_2 C5_2 1_555 1_555
H4_2 C8_2 1_555 1_555
C9_2 C8_2 1_555 1_555
C10_2 C9_2 1_555 1_555
C12_2 C9_2 1_555 1_555

#END
