
###############################################################################
#
# This file contains modified crystal structure data generated from the
# MOF subset of the Cambridge Structural Database (CSD) v543 
# hosted by the Cambridge Crystallographic Data Centre (CCDC).
#
# This work is licensed under the Creative Commons
# Attribution-NonCommercial-ShareAlike 4.0 International License.
# To view a copy of this license, visit
# http://creativecommons.org/licenses/by-nc-sa/4.0/
# or send a letter to
# Creative Commons, PO Box 1866, Mountain View, CA 94042, USA.
#
# CIF created using the CSD Python API on 29 September 2022
# The structure has been converted into the P1 space group
# The structure has a 3D framework
# The original CSD entry SOKCOM is in the triclinic crystal system
# The framework has been calculated to contain at least 10.0% void space
# The void calculation uses a probe of radius 1.32A, grid spacing 0.4
#
###############################################################################

data_SOKCOM
_chemical_formula_moiety         '(C86 H80 N10 O18 Zn4)n'
_symmetry_cell_setting           triclinic
_symmetry_space_group_name_H-M   'P 1'
_symmetry_Int_Tables_number      1
_space_group_name_Hall           'P 1'
loop_
_symmetry_equiv_pos_site_id
_symmetry_equiv_pos_as_xyz
1 x,y,z
_cell_length_a                   9.572(2)
_cell_length_b                   14.718(4)
_cell_length_c                   19.571(5)
_cell_angle_alpha                73.658(3)
_cell_angle_beta                 77.093(3)
_cell_angle_gamma                80.260(3)
_cell_volume                     2562.22
loop_
_atom_site_label
_atom_site_type_symbol
_atom_site_fract_x
_atom_site_fract_y
_atom_site_fract_z
_atom_site_U_iso_or_equiv
_atom_site_thermal_displace_type
O15 O 0.0714(3) 0.8427(2) 0.57750(15) 0.0303 Uani
O16 O 0.0874(4) 0.8296(3) 0.69047(19) 0.0819 Uani
C69 C 0.0217(4) 0.8248(3) 0.6443(3) 0.0313 Uani
Zn8 Zn 0.27279(5) 0.87378(4) 0.54683(3) 0.0271 Uani
O9 O 0.6010(3) 0.1731(2) 0.38072(17) 0.0473 Uani
O10 O 0.4333(3) 0.1183(2) 0.47328(16) 0.0340 Uani
N5 N 0.3580(4) 0.3244(3) 0.1654(2) 0.0502 Uani
H6 H 0.3055 0.3286 0.1340 0.0600 Uiso
C11 C 0.5491(5) 0.4025(3) 0.0076(2) 0.0296 Uani
C12 C 0.4339(5) 0.5329(4) 0.0610(2) 0.0351 Uani
C13 C 0.4873(5) 0.4378(3) 0.0688(2) 0.0333 Uani
C14 C 0.4843(5) 0.3695(3) 0.1443(2) 0.0427 Uani
H12 H 0.5680 0.3220 0.1435 0.0510 Uiso
H13 H 0.4877 0.4046 0.1789 0.0510 Uiso
C15 C 0.3162(5) 0.2722(3) 0.2377(2) 0.0328 Uani
C16 C 0.4126(4) 0.2420(3) 0.2853(2) 0.0309 Uani
H14 H 0.5082 0.2547 0.2697 0.0370 Uiso
C17 C 0.3647(4) 0.1924(3) 0.3571(2) 0.0258 Uani
C18 C 0.2240(4) 0.1732(3) 0.3804(2) 0.0226 Uani
H15 H 0.1918 0.1428 0.4286 0.0270 Uiso
C19 C 0.1295(4) 0.1995(3) 0.3313(2) 0.0263 Uani
C20 C 0.1761(5) 0.2487(3) 0.2606(2) 0.0310 Uani
H16 H 0.1129 0.2661 0.2280 0.0370 Uiso
C38 C 0.4714(5) 0.1583(3) 0.4087(3) 0.0290 Uani
C42 C 0.3633(6) 0.5709(4) 0.1267(3) 0.0616 Uani
H35 H 0.4327 0.5992 0.1403 0.0920 Uiso
H36 H 0.3289 0.5194 0.1662 0.0920 Uiso
H37 H 0.2838 0.6179 0.1150 0.0920 Uiso
C43 C 0.5967(5) 0.2965(3) 0.0152(2) 0.0454 Uani
H39 H 0.5627 0.2617 0.0640 0.0680 Uiso
H40 H 0.7001 0.2859 0.0043 0.0680 Uiso
H62 H 0.4428 0.7247 0.0178 0.0680 Uiso
Zn5 Zn 0.72721(5) 0.12622(4) 0.45317(3) 0.0271 Uani
H38 H 0.5572 0.2753 0.9822 0.0680 Uiso
O17 O 0.3990(3) 0.8269(2) 0.61928(17) 0.0473 Uani
O18 O 0.5667(3) 0.8817(2) 0.52672(16) 0.0340 Uani
N7 N 0.6420(4) 0.6756(3) 0.8346(2) 0.0502 Uani
H53 H 0.6945 0.6714 0.8660 0.0600 Uiso
C58 C 0.4509(5) 0.5975(3) 0.9924(2) 0.0296 Uani
C59 C 0.5661(5) 0.4671(4) 0.9390(2) 0.0351 Uani
C60 C 0.5127(5) 0.5622(3) 0.9312(2) 0.0333 Uani
C61 C 0.5157(5) 0.6305(3) 0.8557(2) 0.0427 Uani
H54 H 0.4320 0.6780 0.8565 0.0510 Uiso
H55 H 0.5123 0.5954 0.8211 0.0510 Uiso
C62 C 0.6838(5) 0.7278(3) 0.7623(2) 0.0328 Uani
C63 C 0.5874(4) 0.7580(3) 0.7147(2) 0.0309 Uani
H56 H 0.4918 0.7453 0.7303 0.0370 Uiso
C64 C 0.6353(4) 0.8076(3) 0.6429(2) 0.0258 Uani
C65 C 0.7760(4) 0.8268(3) 0.6196(2) 0.0226 Uani
H57 H 0.8082 0.8572 0.5714 0.0270 Uiso
C66 C 0.8705(4) 0.8005(3) 0.6687(2) 0.0263 Uani
C67 C 0.8239(5) 0.7513(3) 0.7394(2) 0.0310 Uani
H58 H 0.8871 0.7339 0.7720 0.0370 Uiso
C68 C 0.5286(5) 0.8417(3) 0.5913(3) 0.0290 Uani
C70 C 0.6367(6) 0.4291(4) 0.8733(3) 0.0616 Uani
H59 H 0.5673 0.4008 0.8597 0.0920 Uiso
H60 H 0.6711 0.4806 0.8338 0.0920 Uiso
H61 H 0.7162 0.3821 0.8850 0.0920 Uiso
C71 C 0.4033(5) 0.7035(3) 0.9848(2) 0.0454 Uani
H63 H 0.4373 0.7383 0.9360 0.0680 Uiso
H64 H 0.2999 0.7141 0.9957 0.0680 Uiso
O3 O 0.9286(3) 0.1573(2) 0.42250(15) 0.0303 Uani
O4 O 0.9126(4) 0.1704(3) 0.30953(19) 0.0819 Uani
N2 N 0.7213(3) 0.0727(2) 0.56402(17) 0.0249 Uani
N3 N 0.6452(4) 0.2684(3) 0.4807(2) 0.0437 Uani
C21 C 0.8465(4) 0.0640(3) 0.5872(2) 0.0271 Uani
H17 H 0.9295 0.0791 0.5532 0.0330 Uiso
C22 C 0.8557(4) 0.0336(3) 0.6598(2) 0.0289 Uani
H18 H 0.9438 0.0286 0.6740 0.0340 Uiso
C23 C 0.7330(4) 0.0105(3) 0.7115(2) 0.0213 Uani
C24 C 0.6056(5) 0.0192(3) 0.6870(2) 0.0317 Uani
H19 H 0.5207 0.0047 0.7197 0.0380 Uiso
C25 C 0.6056(4) 0.0490(3) 0.6153(2) 0.0296 Uani
H20 H 0.5185 0.0535 0.6003 0.0350 Uiso
C31 C 0.5153(6) 0.2861(4) 0.5182(3) 0.0656 Uani
H25 H 0.4618 0.2351 0.5412 0.0790 Uiso
C32 C 0.4549(6) 0.3746(4) 0.5254(3) 0.0645 Uani
H26 H 0.3608 0.3827 0.5503 0.0780 Uiso
C33 C 0.5313(5) 0.4512(3) 0.4963(3) 0.0425 Uani
C34 C 0.6683(6) 0.4331(4) 0.4609(3) 0.0644 Uani
H27 H 0.7262 0.4824 0.4406 0.0780 Uiso
C35 C 0.7217(6) 0.3420(4) 0.4550(3) 0.0583 Uani
H28 H 0.8167 0.3316 0.4317 0.0700 Uiso
C39 C 0.9783(4) 0.1752(3) 0.3557(3) 0.0313 Uani
N8 N 0.3548(4) 0.7316(3) 0.5193(2) 0.0437 Uani
C72 C 0.4847(6) 0.7139(4) 0.4818(3) 0.0656 Uani
H65 H 0.5382 0.7649 0.4588 0.0790 Uiso
C73 C 0.5451(6) 0.6254(4) 0.4746(3) 0.0645 Uani
H66 H 0.6392 0.6173 0.4497 0.0780 Uiso
C74 C 0.4687(5) 0.5488(3) 0.5037(3) 0.0425 Uani
C75 C 0.3317(6) 0.5669(4) 0.5391(3) 0.0644 Uani
H67 H 0.2738 0.5176 0.5594 0.0780 Uiso
C76 C 0.2783(6) 0.6580(4) 0.5450(3) 0.0583 Uani
H68 H 0.1833 0.6684 0.5683 0.0700 Uiso
N10 N 0.2787(3) 0.9273(2) 0.43598(17) 0.0249 Uani
C77 C 0.1535(4) 0.9360(3) 0.4128(2) 0.0271 Uani
H73 H 0.0705 0.9209 0.4468 0.0330 Uiso
C78 C 0.1443(4) 0.9664(3) 0.3402(2) 0.0289 Uani
H74 H 0.0562 0.9714 0.3260 0.0340 Uiso
C79 C 0.2670(4) 0.9895(3) 0.2885(2) 0.0213 Uani
C80 C 0.3944(5) 0.9808(3) 0.3130(2) 0.0317 Uani
H75 H 0.4793 0.9953 0.2803 0.0380 Uiso
C81 C 0.3944(4) 0.9510(3) 0.3847(2) 0.0296 Uani
H76 H 0.4815 0.9465 0.3997 0.0350 Uiso
O6 O 0.7348(3) 0.0158(2) 0.06216(15) 0.0332 Uani
H3 H 0.7888 0.0542 0.0310 0.0500 Uiso
H4 H 0.7341 0.0208 0.1044 0.0500 Uiso
Zn2 Zn 0.73997(5) 0.88428(4) 0.04875(3) 0.0306 Uani
O1 O 0.5570(3) 0.8270(3) 0.19437(17) 0.0573 Uani
O2 O 0.5458(3) 0.8457(2) 0.08072(15) 0.0323 Uani
O8 O 0.0536(3) 0.8866(2) 0.01749(17) 0.0460 Uani
N4 N 0.0820(4) 0.6748(3) 0.3245(2) 0.0595 Uani
C1 C 0.1094(4) 0.8058(3) 0.1329(2) 0.0252 Uani
C2 C 0.2526(4) 0.8284(3) 0.1151(2) 0.0261 Uani
H7 H 0.2897 0.8604 0.0679 0.0320 Uiso
C3 C 0.3376(4) 0.8035(3) 0.1670(2) 0.0254 Uani
C4 C 0.2838(5) 0.7529(3) 0.2381(2) 0.0291 Uani
H8 H 0.3413 0.7362 0.2733 0.0350 Uiso
C5 C 0.1425(5) 0.7281(3) 0.2553(2) 0.0323 Uani
C6 C 0.0565(5) 0.7554(3) 0.2021(2) 0.0313 Uani
C7 C 0.1581(5) 0.6375(3) 0.3819(2) 0.0399 Uani
H10 H 0.1723 0.6885 0.4012 0.0480 Uiso
H11 H 0.2520 0.6066 0.3647 0.0480 Uiso
C8 C 0.0702(5) 0.5647(3) 0.4416(2) 0.0347 Uani
C10 C 0.1017(5) 0.4669(3) 0.4457(2) 0.0349 Uani
C36 C 0.0123(5) 0.8359(3) 0.0786(3) 0.0324 Uani
C37 C 0.4904(5) 0.8263(3) 0.1478(2) 0.0277 Uani
C40 C 0.2109(6) 0.4325(4) 0.3861(3) 0.0588 Uani
H29 H 0.2999 0.4071 0.4029 0.0880 Uiso
H30 H 0.2277 0.4850 0.3442 0.0880 Uiso
H31 H 0.1740 0.3838 0.3736 0.0880 Uiso
O13 O 0.1144(3) 0.1914(2) 0.89994(16) 0.0443 Uani
H41 H 0.0067 0.3355 0.6680 0.0720 Uiso
H44 H 0.0373 0.2607 0.7863 0.0380 Uiso
C52 C 0.0361(4) 0.4019(3) 0.5053(2) 0.0284 Uani
C57 C 0.0784(5) 0.2964(3) 0.5143(3) 0.0482 Uani
H50 H 0.1817 0.2834 0.5058 0.0730 Uiso
H51 H 0.0395 0.2627 0.5627 0.0730 Uiso
H52 H 0.0410 0.2758 0.4802 0.0730 Uiso
Zn10 Zn 0.26003(5) 0.11572(4) 0.95125(3) 0.0306 Uani
O22 O 0.8856(3) 0.8086(2) 0.10006(16) 0.0443 Uani
H5 H 0.9933 0.6645 0.3320 0.0720 Uiso
H9 H 0.9627 0.7393 0.2137 0.0380 Uiso
C9 C 0.9639(4) 0.5981(3) 0.4947(2) 0.0284 Uani
C41 C 0.9216(5) 0.7036(3) 0.4857(3) 0.0482 Uani
H32 H 0.8183 0.7166 0.4942 0.0730 Uiso
H33 H 0.9605 0.7373 0.4373 0.0730 Uiso
H34 H 0.9590 0.7242 0.5198 0.0730 Uiso
O11 O 0.4430(3) 0.1730(3) 0.80563(17) 0.0573 Uani
O12 O 0.4542(3) 0.1543(2) 0.91928(15) 0.0323 Uani
O14 O 0.9464(3) 0.1134(2) 0.98251(17) 0.0460 Uani
N6 N 0.9180(4) 0.3252(3) 0.6755(2) 0.0595 Uani
C44 C 0.8906(4) 0.1942(3) 0.8671(2) 0.0252 Uani
C45 C 0.7474(4) 0.1716(3) 0.8849(2) 0.0261 Uani
H42 H 0.7103 0.1396 0.9321 0.0320 Uiso
C46 C 0.6624(4) 0.1965(3) 0.8330(2) 0.0254 Uani
C47 C 0.7162(5) 0.2471(3) 0.7619(2) 0.0291 Uani
H43 H 0.6587 0.2638 0.7267 0.0350 Uiso
C48 C 0.8575(5) 0.2719(3) 0.7447(2) 0.0323 Uani
C49 C 0.9435(5) 0.2446(3) 0.7979(2) 0.0313 Uani
C50 C 0.8419(5) 0.3625(3) 0.6181(2) 0.0399 Uani
H45 H 0.8277 0.3115 0.5988 0.0480 Uiso
H46 H 0.7480 0.3934 0.6353 0.0480 Uiso
C51 C 0.9298(5) 0.4353(3) 0.5584(2) 0.0347 Uani
C53 C 0.8983(5) 0.5331(3) 0.5543(2) 0.0349 Uani
C54 C 0.9877(5) 0.1641(3) 0.9214(3) 0.0324 Uani
C55 C 0.5096(5) 0.1737(3) 0.8522(2) 0.0277 Uani
C56 C 0.7891(6) 0.5675(4) 0.6139(3) 0.0588 Uani
H47 H 0.7001 0.5929 0.5971 0.0880 Uiso
H48 H 0.7723 0.5150 0.6558 0.0880 Uiso
H49 H 0.8260 0.6162 0.6264 0.0880 Uiso
O5 O 0.7707(3) 0.98560(19) 0.43967(14) 0.0311 Uani
H1 H 0.7582 0.9917 0.3969 0.0470 Uiso
H2 H 0.7161 0.9445 0.4667 0.0470 Uiso
N1 N 0.7504(4) 0.9131(3) 0.93927(17) 0.0295 Uani
C26 C 0.7428(4) 0.9736(3) 0.7912(2) 0.0252 Uani
C27 C 0.8685(5) 0.9609(4) 0.8155(2) 0.0401 Uani
H21 H 0.9541 0.9725 0.7825 0.0480 Uiso
C28 C 0.8702(5) 0.9302(4) 0.8901(3) 0.0441 Uani
H22 H 0.9576 0.9216 0.9056 0.0530 Uiso
C29 C 0.6276(5) 0.9239(3) 0.9155(2) 0.0364 Uani
H23 H 0.5434 0.9105 0.9491 0.0440 Uiso
C30 C 0.6199(4) 0.9539(3) 0.8436(2) 0.0333 Uani
H24 H 0.5312 0.9611 0.8295 0.0400 Uiso
O19 O 0.2293(3) 0.01440(19) 0.56033(14) 0.0311 Uani
H69 H 0.2418 0.0083 0.6031 0.0470 Uiso
H70 H 0.2839 0.0555 0.5333 0.0470 Uiso
N9 N 0.2496(4) 0.0869(3) 0.06073(17) 0.0295 Uani
C82 C 0.2572(4) 0.0264(3) 0.2088(2) 0.0252 Uani
C83 C 0.1315(5) 0.0391(4) 0.1845(2) 0.0401 Uani
H77 H 0.0459 0.0275 0.2175 0.0480 Uiso
C84 C 0.1298(5) 0.0698(4) 0.1099(3) 0.0441 Uani
H78 H 0.0424 0.0784 0.0944 0.0530 Uiso
C85 C 0.3724(5) 0.0761(3) 0.0845(2) 0.0364 Uani
H79 H 0.4566 0.0895 0.0509 0.0440 Uiso
C86 C 0.3801(4) 0.0461(3) 0.1564(2) 0.0333 Uani
H80 H 0.4688 0.0389 0.1705 0.0400 Uiso
O20 O 0.2652(3) 0.9842(2) 0.93784(15) 0.0332 Uani
H71 H 0.2112 0.9458 0.9690 0.0500 Uiso
H72 H 0.2659 0.9792 0.8956 0.0500 Uiso
loop_
_atom_site_aniso_label
_atom_site_aniso_U_11
_atom_site_aniso_U_22
_atom_site_aniso_U_33
_atom_site_aniso_U_23
_atom_site_aniso_U_13
_atom_site_aniso_U_12
O15 0.0297 0.043 0.0201 -0.008 -0.0009 -0.0142
O16 0.041 0.172 0.036 -0.018 -0.0104 -0.031
C69 0.021 0.031 0.039 -0.002 -0.007 -0.005
Zn8 0.0314 0.0311 0.0176 0.0017 -0.0055 -0.0124
O9 0.0237 0.058 0.047 0.0102 -0.0103 -0.0035
O10 0.0391 0.034 0.027 0.0042 -0.01 -0.0143
N5 0.05 0.058 0.038 0.001 0 -0.027
C11 0.039 0.025 0.024 -0.004 -0.007 -0.004
C12 0.038 0.037 0.024 -0.005 0.005 -0.006
C13 0.043 0.027 0.022 0.003 0.003 -0.01
C14 0.048 0.041 0.037 -0.002 -0.009 -0.011
C15 0.041 0.031 0.017 0.003 0.002 -0.004
C16 0.023 0.029 0.036 -0.001 0 -0.01
C17 0.032 0.015 0.027 -0.002 -0.003 -0.002
C18 0.026 0.017 0.02 -0.001 0.0033 -0.006
C19 0.036 0.025 0.015 -0.003 -0.006 0.003
C20 0.037 0.027 0.025 -0.003 -0.002 -0.004
C38 0.027 0.018 0.034 0.001 0 -0.001
C42 0.092 0.037 0.038 -0.003 0.01 0.001
C43 0.07 0.022 0.033 -0.001 0.006 -0.006
Zn5 0.0314 0.0311 0.0176 0.0017 -0.0055 -0.0124
O17 0.0237 0.058 0.047 0.0102 -0.0103 -0.0035
O18 0.0391 0.034 0.027 0.0042 -0.01 -0.0143
N7 0.05 0.058 0.038 0.001 0 -0.027
C58 0.039 0.025 0.024 -0.004 -0.007 -0.004
C59 0.038 0.037 0.024 -0.005 0.005 -0.006
C60 0.043 0.027 0.022 0.003 0.003 -0.01
C61 0.048 0.041 0.037 -0.002 -0.009 -0.011
C62 0.041 0.031 0.017 0.003 0.002 -0.004
C63 0.023 0.029 0.036 -0.001 0 -0.01
C64 0.032 0.015 0.027 -0.002 -0.003 -0.002
C65 0.026 0.017 0.02 -0.001 0.0033 -0.006
C66 0.036 0.025 0.015 -0.003 -0.006 0.003
C67 0.037 0.027 0.025 -0.003 -0.002 -0.004
C68 0.027 0.018 0.034 0.001 0 -0.001
C70 0.092 0.037 0.038 -0.003 0.01 0.001
C71 0.07 0.022 0.033 -0.001 0.006 -0.006
O3 0.0297 0.043 0.0201 -0.008 -0.0009 -0.0142
O4 0.041 0.172 0.036 -0.018 -0.0104 -0.031
N2 0.027 0.029 0.02 -0.0052 -0.011 0.0006
N3 0.048 0.031 0.05 -0.008 -0.005 -0.008
C21 0.029 0.022 0.026 -0.005 0.004 -0.005
C22 0.027 0.041 0.019 -0.005 -0.008 -0.004
C23 0.028 0.022 0.013 -0.006 -0.0024 0
C24 0.029 0.044 0.021 -0.01 -0.001 -0.003
C25 0.026 0.046 0.019 -0.01 -0.007 -0.003
C31 0.052 0.051 0.086 -0.022 0.015 -0.014
C32 0.055 0.032 0.096 -0.022 0.023 -0.016
C33 0.043 0.031 0.056 -0.01 -0.017 -0.002
C34 0.051 0.038 0.092 -0.011 0 0.001
C35 0.044 0.033 0.097 -0.012 -0.01 -0.014
C39 0.021 0.031 0.039 -0.002 -0.007 -0.005
N8 0.048 0.031 0.05 -0.008 -0.005 -0.008
C72 0.052 0.051 0.086 -0.022 0.015 -0.014
C73 0.055 0.032 0.096 -0.022 0.023 -0.016
C74 0.043 0.031 0.056 -0.01 -0.017 -0.002
C75 0.051 0.038 0.092 -0.011 0 0.001
C76 0.044 0.033 0.097 -0.012 -0.01 -0.014
N10 0.027 0.029 0.02 -0.0052 -0.011 0.0006
C77 0.029 0.022 0.026 -0.005 0.004 -0.005
C78 0.027 0.041 0.019 -0.005 -0.008 -0.004
C79 0.028 0.022 0.013 -0.006 -0.0024 0
C80 0.029 0.044 0.021 -0.01 -0.001 -0.003
C81 0.026 0.046 0.019 -0.01 -0.007 -0.003
O6 0.0329 0.04 0.0271 -0.0046 -0.0066 -0.0102
Zn2 0.0313 0.0411 0.0178 0.0016 -0.0052 -0.014
O1 0.047 0.096 0.028 -0.004 -0.0115 -0.02
O2 0.025 0.047 0.0212 0.0009 -0.0037 -0.0111
O8 0.0355 0.06 0.033 0.0134 -0.009 -0.0188
N4 0.052 0.083 0.029 0.018 -0.009 -0.021
C1 0.021 0.02 0.029 -0.001 0.0031 -0.006
C2 0.032 0.023 0.018 0.003 -0.003 -0.005
C3 0.026 0.024 0.027 -0.009 0 -0.007
C4 0.038 0.026 0.021 0.002 -0.008 -0.008
C5 0.035 0.033 0.024 -0.003 0.004 -0.01
C6 0.024 0.031 0.035 -0.003 0 -0.009
C7 0.041 0.045 0.034 -0.008 -0.011 -0.004
C8 0.048 0.031 0.02 0 -0.001 -0.009
C10 0.039 0.034 0.026 -0.005 0.002 -0.004
C36 0.027 0.031 0.035 0.006 -0.011 -0.009
C37 0.031 0.033 0.02 -0.005 -0.009 -0.003
C40 0.078 0.045 0.043 -0.019 0.021 -0.008
O13 0.0274 0.048 0.044 0.012 -0.0068 -0.0077
C52 0.036 0.02 0.023 0.003 0 -0.008
C57 0.066 0.029 0.046 -0.011 -0.002 -0.004
Zn10 0.0313 0.0411 0.0178 0.0016 -0.0052 -0.014
O22 0.0274 0.048 0.044 0.012 -0.0068 -0.0077
C9 0.036 0.02 0.023 0.003 0 -0.008
C41 0.066 0.029 0.046 -0.011 -0.002 -0.004
O11 0.047 0.096 0.028 -0.004 -0.0115 -0.02
O12 0.025 0.047 0.0212 0.0009 -0.0037 -0.0111
O14 0.0355 0.06 0.033 0.0134 -0.009 -0.0188
N6 0.052 0.083 0.029 0.018 -0.009 -0.021
C44 0.021 0.02 0.029 -0.001 0.0031 -0.006
C45 0.032 0.023 0.018 0.003 -0.003 -0.005
C46 0.026 0.024 0.027 -0.009 0 -0.007
C47 0.038 0.026 0.021 0.002 -0.008 -0.008
C48 0.035 0.033 0.024 -0.003 0.004 -0.01
C49 0.024 0.031 0.035 -0.003 0 -0.009
C50 0.041 0.045 0.034 -0.008 -0.011 -0.004
C51 0.048 0.031 0.02 0 -0.001 -0.009
C53 0.039 0.034 0.026 -0.005 0.002 -0.004
C54 0.027 0.031 0.035 0.006 -0.011 -0.009
C55 0.031 0.033 0.02 -0.005 -0.009 -0.003
C56 0.078 0.045 0.043 -0.019 0.021 -0.008
O5 0.0384 0.032 0.0227 -0.0037 -0.0045 -0.0109
N1 0.027 0.043 0.015 -0.0056 -0.0004 -0.0025
C26 0.029 0.026 0.02 -0.007 -0.0058 0.002
C27 0.024 0.075 0.015 -0.004 -0.002 -0.003
C28 0.03 0.068 0.033 -0.01 -0.011 0
C29 0.026 0.057 0.023 -0.002 -0.005 -0.009
C30 0.028 0.053 0.016 0 -0.0074 -0.007
O19 0.0384 0.032 0.0227 -0.0037 -0.0045 -0.0109
N9 0.027 0.043 0.015 -0.0056 -0.0004 -0.0025
C82 0.029 0.026 0.02 -0.007 -0.0058 0.002
C83 0.024 0.075 0.015 -0.004 -0.002 -0.003
C84 0.03 0.068 0.033 -0.01 -0.011 0
C85 0.026 0.057 0.023 -0.002 -0.005 -0.009
C86 0.028 0.053 0.016 0 -0.0074 -0.007
O20 0.0329 0.04 0.0271 -0.0046 -0.0066 -0.0102
loop_
_geom_bond_atom_site_label_1
_geom_bond_atom_site_label_2
_geom_bond_site_symmetry_1
_geom_bond_site_symmetry_2
O15 C69 1_555 1_555
O16 C69 1_555 1_555
Zn8 O15 1_555 1_555
O9 C38 1_555 1_555
O10 C38 1_555 1_555
N5 H6 1_555 1_555
C11 C13 1_555 1_555
C12 C13 1_555 1_555
C13 C14 1_555 1_555
C14 N5 1_555 1_555
H12 C14 1_555 1_555
H13 C14 1_555 1_555
C15 N5 1_555 1_555
C16 C15 1_555 1_555
H14 C16 1_555 1_555
C17 C16 1_555 1_555
C18 C17 1_555 1_555
H15 C18 1_555 1_555
C19 C18 1_555 1_555
C20 C15 1_555 1_555
H16 C20 1_555 1_555
C38 C17 1_555 1_555
C42 C12 1_555 1_555
H35 C42 1_555 1_555
H36 C42 1_555 1_555
H37 C42 1_555 1_555
C43 C11 1_555 1_555
H39 C43 1_555 1_555
H40 C43 1_555 1_555
Zn5 O9 1_555 1_555
C19 C20 1_555 1_555
O17 C68 1_555 1_555
O18 C68 1_555 1_555
N7 H53 1_555 1_555
C60 C58 1_555 1_555
C61 N7 1_555 1_555
H54 C61 1_555 1_555
H55 C61 1_555 1_555
C62 N7 1_555 1_555
C63 C62 1_555 1_555
H56 C63 1_555 1_555
C64 C63 1_555 1_555
C65 C64 1_555 1_555
H57 C65 1_555 1_555
C66 C65 1_555 1_555
C67 C62 1_555 1_555
H58 C67 1_555 1_555
C68 C64 1_555 1_555
C70 C59 1_555 1_555
H59 C70 1_555 1_555
H60 C70 1_555 1_555
H61 C70 1_555 1_555
C71 C58 1_555 1_555
H63 C71 1_555 1_555
H64 C71 1_555 1_555
Zn8 O17 1_555 1_555
C59 C60 1_555 1_555
C60 C61 1_555 1_555
C66 C67 1_555 1_555
Zn5 O3 1_555 1_555
O3 C39 1_555 1_555
O4 C39 1_555 1_555
N2 Zn5 1_555 1_555
N3 Zn5 1_555 1_555
C21 N2 1_555 1_555
H17 C21 1_555 1_555
C22 C21 1_555 1_555
H18 C22 1_555 1_555
C23 C22 1_555 1_555
C24 C23 1_555 1_555
H19 C24 1_555 1_555
C25 N2 1_555 1_555
H20 C25 1_555 1_555
C31 N3 1_555 1_555
H25 C31 1_555 1_555
C32 C31 1_555 1_555
H26 C32 1_555 1_555
C33 C32 1_555 1_555
C34 C33 1_555 1_555
H27 C34 1_555 1_555
C35 N3 1_555 1_555
H28 C35 1_555 1_555
N8 C72 1_555 1_555
C72 H65 1_555 1_555
C73 C72 1_555 1_555
H66 C73 1_555 1_555
C74 C33 1_555 1_555
C75 C74 1_555 1_555
H67 C75 1_555 1_555
C76 N8 1_555 1_555
H68 C76 1_555 1_555
Zn8 N8 1_555 1_555
C24 C25 1_555 1_555
C34 C35 1_555 1_555
C73 C74 1_555 1_555
C75 C76 1_555 1_555
N10 Zn8 1_555 1_555
C77 N10 1_555 1_555
H73 C77 1_555 1_555
C78 C77 1_555 1_555
H74 C78 1_555 1_555
C79 C78 1_555 1_555
C80 C79 1_555 1_555
H75 C80 1_555 1_555
C81 N10 1_555 1_555
H76 C81 1_555 1_555
C80 C81 1_555 1_555
H3 O6 1_555 1_555
H4 O6 1_555 1_555
Zn2 O2 1_555 1_555
O1 C37 1_555 1_555
O2 C37 1_555 1_555
O8 C36 1_555 1_555
C1 C2 1_555 1_555
C2 H7 1_555 1_555
C3 C2 1_555 1_555
C4 C3 1_555 1_555
H8 C4 1_555 1_555
C5 N4 1_555 1_555
C6 C1 1_555 1_555
C7 N4 1_555 1_555
H10 C7 1_555 1_555
H11 C7 1_555 1_555
C8 C7 1_555 1_555
C10 C8 1_555 1_555
C36 C1 1_555 1_555
C37 C3 1_555 1_555
C40 C10 1_555 1_555
H29 C40 1_555 1_555
H30 C40 1_555 1_555
H31 C40 1_555 1_555
C52 C10 1_555 1_555
C57 C52 1_555 1_555
H50 C57 1_555 1_555
H51 C57 1_555 1_555
H52 C57 1_555 1_555
Zn10 O13 1_555 1_555
O22 Zn2 1_555 1_555
C4 C5 1_555 1_555
C5 C6 1_555 1_555
C41 C9 1_555 1_555
H32 C41 1_555 1_555
H33 C41 1_555 1_555
H34 C41 1_555 1_555
O11 C55 1_555 1_555
O12 C55 1_555 1_555
O14 C54 1_555 1_555
C44 C45 1_555 1_555
C45 H42 1_555 1_555
C46 C45 1_555 1_555
C47 C46 1_555 1_555
H43 C47 1_555 1_555
C48 N6 1_555 1_555
C49 C44 1_555 1_555
C50 N6 1_555 1_555
H45 C50 1_555 1_555
H46 C50 1_555 1_555
C51 C50 1_555 1_555
C53 C9 1_555 1_555
C54 C44 1_555 1_555
C55 C46 1_555 1_555
C56 C53 1_555 1_555
H47 C56 1_555 1_555
H48 C56 1_555 1_555
H49 C56 1_555 1_555
Zn10 O12 1_555 1_555
C47 C48 1_555 1_555
C48 C49 1_555 1_555
C51 C53 1_555 1_555
H1 O5 1_555 1_555
H2 O5 1_555 1_555
C27 C26 1_555 1_555
H21 C27 1_555 1_555
C28 N1 1_555 1_555
H22 C28 1_555 1_555
C29 N1 1_555 1_555
H23 C29 1_555 1_555
C30 C26 1_555 1_555
H24 C30 1_555 1_555
C27 C28 1_555 1_555
C29 C30 1_555 1_555
O19 H69 1_555 1_555
H70 O19 1_555 1_555
C83 C82 1_555 1_555
H77 C83 1_555 1_555
C84 N9 1_555 1_555
H78 C84 1_555 1_555
C85 N9 1_555 1_555
H79 C85 1_555 1_555
C86 C82 1_555 1_555
H80 C86 1_555 1_555
C83 C84 1_555 1_555
C85 C86 1_555 1_555
H71 O20 1_555 1_555
H72 O20 1_555 1_555

#END
