
###############################################################################
#
# This file contains modified crystal structure data generated from the
# MOF subset of the Cambridge Structural Database (CSD) v543 
# hosted by the Cambridge Crystallographic Data Centre (CCDC).
#
# This work is licensed under the Creative Commons
# Attribution-NonCommercial-ShareAlike 4.0 International License.
# To view a copy of this license, visit
# http://creativecommons.org/licenses/by-nc-sa/4.0/
# or send a letter to
# Creative Commons, PO Box 1866, Mountain View, CA 94042, USA.
#
# CIF created using the CSD Python API on 29 September 2022
# The structure has been converted into the P1 space group
# The structure has a 3D framework
# The original CSD entry SOKROC is in the monoclinic crystal system
# The framework has been calculated to contain at least 10.0% void space
# The void calculation uses a probe of radius 1.32A, grid spacing 0.4
#
###############################################################################

data_SOKROC
_chemical_formula_moiety         '(C52 H40 N16 O16)n'
_symmetry_cell_setting           triclinic
_symmetry_space_group_name_H-M   'P 1'
_symmetry_Int_Tables_number      1
_space_group_name_Hall           'P 1'
loop_
_symmetry_equiv_pos_site_id
_symmetry_equiv_pos_as_xyz
1 x,y,z
_cell_length_a                   12.9493(11)
_cell_length_b                   13.0923(12)
_cell_length_c                   14.0511(13)
_cell_angle_alpha                90
_cell_angle_beta                 109.842(5)
_cell_angle_gamma                90
_cell_volume                     2240.74
loop_
_atom_site_label
_atom_site_type_symbol
_atom_site_fract_x
_atom_site_fract_y
_atom_site_fract_z
H5 H 0.184452 0.020113 0.407972
N1 N 0.2632(2) 0.8464(2) 0.4017(2)
N2 N 0.2693(3) 0.7441(3) 0.3868(3)
H2 H 0.3290(18) 0.714(3) 0.399(3)
C9 C 0.1204(3) 0.9749(3) 0.3853(4)
H6 H 0.081056 0.977757 0.433769
H7 H 0.071515 0.996927 0.318605
C10 C 0.1569(3) 0.8694(3) 0.3788(3)
C11 C 0.0951(3) 0.7791(3) 0.3468(3)
C12 C 0.1697(3) 0.7009(3) 0.3535(3)
C13 C 0.1538(4) 0.5899(3) 0.3298(4)
H8 H 0.225518 0.556331 0.347800
H9 H 0.113967 0.580974 0.257285
H10 H 0.111477 0.559499 0.368608
Zn4 Zn 0.40002(3) 0.93334(3) 0.45869(3)
Zn1 Zn 0.59998(3) 0.06666(3) 0.54131(3)
N5 N 0.7368(2) 0.1536(2) 0.5983(2)
O5 O 0.5122(2) 0.1176(2) 0.6273(2)
O6 O 0.5076(2) 0.1601(2) 0.42813(19)
O1 O 0.6340(2) 0.9849(2) 0.4329(2)
C1 C 0.6413(3) 0.8544(3) 0.3205(3)
O2 O 0.4878(2) 0.8824(2) 0.3727(2)
C2 C 0.5885(3) 0.7803(3) 0.2505(3)
H1 H 0.511745 0.770318 0.234059
O3 O 0.4924(2) 0.6601(2) 0.07187(19)
N3 N 0.9820(3) 0.7588(3) 0.3168(3)
C3 C 0.6458(3) 0.7211(3) 0.2046(3)
O4 O 0.6407(2) 0.5605(2) 0.1293(2)
N4 N 0.9264(3) 0.8352(3) 0.3244(3)
C4 C 0.7589(3) 0.7356(3) 0.2283(3)
H3 H 0.799479 0.693243 0.198876
C5 C 0.8108(3) 0.8122(3) 0.2951(3)
C6 C 0.7530(3) 0.8720(3) 0.3401(3)
H4 H 0.789172 0.925489 0.384700
C7 C 0.5828(3) 0.9120(3) 0.3795(3)
C8 C 0.5881(3) 0.6407(3) 0.1294(3)
Zn5 Zn 0.59998(3) 0.43334(3) 0.04131(3)
O7 O 0.6407(2) 0.9395(2) 0.6293(2)
Zn2 Zn 0.40002(3) 0.56666(3) 0.95869(3)
O1_2 O 0.3660(2) 0.4849(2) 0.0671(2)
C1_2 C 0.3587(3) 0.3544(3) 0.1795(3)
O2_2 O 0.5122(2) 0.3824(2) 0.1273(2)
C2_2 C 0.4115(3) 0.2803(3) 0.2495(3)
H1_2 H 0.488255 0.270318 0.265941
N3_2 N 0.0180(3) 0.2588(3) 0.1832(3)
C3_2 C 0.3542(3) 0.2211(3) 0.2954(3)
O4_2 O 0.3593(2) 0.0605(2) 0.3707(2)
N4_2 N 0.0736(3) 0.3352(3) 0.1756(3)
C4_2 C 0.2411(3) 0.2356(3) 0.2717(3)
H3_2 H 0.200521 0.193243 0.301124
C5_2 C 0.1892(3) 0.3122(3) 0.2049(3)
C6_2 C 0.2470(3) 0.3720(3) 0.1599(3)
H4_2 H 0.210828 0.425489 0.115300
C7_2 C 0.4172(3) 0.4120(3) 0.1205(3)
C8_2 C 0.4119(3) 0.1407(3) 0.3706(3)
N5_2 N 0.2632(2) 0.6536(2) 0.9017(2)
O5_2 O 0.4878(2) 0.6176(2) 0.8727(2)
O7_2 O 0.3593(2) 0.4395(2) 0.8707(2)
N1_2 N 0.7368(2) 0.3464(2) 0.0983(2)
N2_2 N 0.7307(3) 0.2441(3) 0.1132(3)
H2_2 H 0.6710(18) 0.214(3) 0.101(3)
C9_2 C 0.8796(3) 0.4749(3) 0.1147(4)
H5_2 H 0.815548 0.520113 0.092028
H6_2 H 0.918944 0.477757 0.066231
H7_2 H 0.928485 0.496927 0.181395
C10_2 C 0.8431(3) 0.3694(3) 0.1212(3)
C11_2 C 0.9049(3) 0.2791(3) 0.1532(3)
C12_2 C 0.8303(3) 0.2009(3) 0.1465(3)
C13_2 C 0.8462(4) 0.0899(3) 0.1702(4)
H8_2 H 0.774482 0.056331 0.152200
H9_2 H 0.886033 0.080974 0.242715
H10_2 H 0.888523 0.059499 0.131392
O1_3 O 0.3660(2) 0.0151(2) 0.5671(2)
C1_3 C 0.3587(3) 0.1456(3) 0.6795(3)
C2_3 C 0.4115(3) 0.2197(3) 0.7495(3)
H1_3 H 0.488255 0.229682 0.765941
O3_2 O 0.5076(2) 0.3399(2) 0.92813(19)
N3_3 N 0.0180(3) 0.2412(3) 0.6832(3)
C3_3 C 0.3542(3) 0.2789(3) 0.7954(3)
N4_3 N 0.0736(3) 0.1648(3) 0.6756(3)
C4_3 C 0.2411(3) 0.2644(3) 0.7717(3)
H3_3 H 0.200521 0.306757 0.801124
C5_3 C 0.1892(3) 0.1878(3) 0.7049(3)
C6_3 C 0.2470(3) 0.1280(3) 0.6599(3)
H4_3 H 0.210828 0.074511 0.615300
C7_3 C 0.4172(3) 0.0880(3) 0.6205(3)
C8_3 C 0.4119(3) 0.3593(3) 0.8706(3)
O6_2 O 0.4924(2) 0.8399(2) 0.57187(19)
N2_3 N 0.7307(3) 0.2559(3) 0.6132(3)
H2_3 H 0.6710(18) 0.286(3) 0.601(3)
C9_3 C 0.8796(3) 0.0251(3) 0.6147(4)
H6_3 H 0.918944 0.022243 0.566231
H7_3 H 0.928485 0.003073 0.681395
C10_3 C 0.8431(3) 0.1306(3) 0.6212(3)
C11_3 C 0.9049(3) 0.2209(3) 0.6532(3)
C12_3 C 0.8303(3) 0.2991(3) 0.6465(3)
C13_3 C 0.8462(4) 0.4101(3) 0.6702(4)
H8_3 H 0.774482 0.443669 0.652200
H9_3 H 0.886033 0.419026 0.742715
H10_3 H 0.888523 0.440501 0.631392
N2_4 N 0.2693(3) 0.7559(3) 0.8868(3)
H2_4 H 0.3290(18) 0.786(3) 0.899(3)
C9_4 C 0.1204(3) 0.5251(3) 0.8853(4)
H5_3 H 0.184452 0.479887 0.907972
H6_4 H 0.081056 0.522243 0.933769
H7_4 H 0.071515 0.503073 0.818605
C10_4 C 0.1569(3) 0.6306(3) 0.8788(3)
C11_4 C 0.0951(3) 0.7209(3) 0.8468(3)
C12_4 C 0.1697(3) 0.7991(3) 0.8535(3)
C13_4 C 0.1538(4) 0.9101(3) 0.8298(4)
H8_4 H 0.225518 0.943669 0.847800
H9_4 H 0.113967 0.919026 0.757285
H10_4 H 0.111477 0.940501 0.868608
O1_4 O 0.6340(2) 0.5151(2) 0.9329(2)
C1_4 C 0.6413(3) 0.6456(3) 0.8205(3)
C2_4 C 0.5885(3) 0.7197(3) 0.7505(3)
H1_4 H 0.511745 0.729682 0.734059
N3_4 N 0.9820(3) 0.7412(3) 0.8168(3)
C3_4 C 0.6458(3) 0.7789(3) 0.7046(3)
N4_4 N 0.9264(3) 0.6648(3) 0.8244(3)
C4_4 C 0.7589(3) 0.7644(3) 0.7283(3)
H3_4 H 0.799479 0.806757 0.698876
C5_4 C 0.8108(3) 0.6878(3) 0.7951(3)
C6_4 C 0.7530(3) 0.6280(3) 0.8401(3)
H4_4 H 0.789172 0.574511 0.884700
C7_4 C 0.5828(3) 0.5880(3) 0.8795(3)
C8_4 C 0.5881(3) 0.8593(3) 0.6294(3)
H5_4 H 0.815548 0.979887 0.592028
loop_
_geom_bond_atom_site_label_1
_geom_bond_atom_site_label_2
_geom_bond_site_symmetry_1
_geom_bond_site_symmetry_2
N1 N2 1_555 1_555
N2 H2 1_555 1_555
H6 C9 1_555 1_555
H7 C9 1_555 1_555
C10 N1 1_555 1_555
C12 N2 1_555 1_555
C13 C12 1_555 1_555
H8 C13 1_555 1_555
H9 C13 1_555 1_555
H10 C13 1_555 1_555
Zn4 N1 1_555 1_555
C9 C10 1_555 1_555
C10 C11 1_555 1_555
C11 C12 1_555 1_555
N5 Zn1 1_555 1_555
O5 Zn1 1_555 1_555
O6 Zn1 1_555 1_555
O1 C7 1_555 1_555
C1 C2 1_555 1_555
O2 C7 1_555 1_555
C2 H1 1_555 1_555
O3 C8 1_555 1_555
N3 N4 1_555 1_555
C3 C2 1_555 1_555
O4 C8 1_555 1_555
N4 C5 1_555 1_555
C4 C3 1_555 1_555
H3 C4 1_555 1_555
C5 C4 1_555 1_555
C6 C1 1_555 1_555
H4 C6 1_555 1_555
C7 C1 1_555 1_555
C8 C3 1_555 1_555
Zn4 O2 1_555 1_555
Zn5 O4 1_555 1_555
C5 C6 1_555 1_555
O1_2 C7_2 1_555 1_555
C1_2 C2_2 1_555 1_555
O2_2 C7_2 1_555 1_555
C2_2 H1_2 1_555 1_555
O6 C8_2 1_555 1_555
N3_2 N4_2 1_555 1_555
C3_2 C2_2 1_555 1_555
O4_2 C8_2 1_555 1_555
N4_2 C5_2 1_555 1_555
C4_2 C3_2 1_555 1_555
H3_2 C4_2 1_555 1_555
C5_2 C4_2 1_555 1_555
C6_2 C1_2 1_555 1_555
H4_2 C6_2 1_555 1_555
C7_2 C1_2 1_555 1_555
C8_2 C3_2 1_555 1_555
Zn5 O2_2 1_555 1_555
C5_2 C6_2 1_555 1_555
N5_2 Zn2 1_555 1_555
O5_2 Zn2 1_555 1_555
O7_2 Zn2 1_555 1_555
N1_2 N2_2 1_555 1_555
N2_2 H2_2 1_555 1_555
C9_2 H5_2 1_555 1_555
H6_2 C9_2 1_555 1_555
H7_2 C9_2 1_555 1_555
C10_2 N1_2 1_555 1_555
C12_2 N2_2 1_555 1_555
C13_2 C12_2 1_555 1_555
H8_2 C13_2 1_555 1_555
H9_2 C13_2 1_555 1_555
H10_2 C13_2 1_555 1_555
Zn5 N1_2 1_555 1_555
C9_2 C10_2 1_555 1_555
C10_2 C11_2 1_555 1_555
C11_2 C12_2 1_555 1_555
O1_3 C7_3 1_555 1_555
C1_3 C2_3 1_555 1_555
O5 C7_3 1_555 1_555
C2_3 H1_3 1_555 1_555
O3_2 C8_3 1_555 1_555
N3_3 N4_3 1_555 1_555
C3_3 C2_3 1_555 1_555
O7_2 C8_3 1_555 1_555
N4_3 C5_3 1_555 1_555
C4_3 C3_3 1_555 1_555
H3_3 C4_3 1_555 1_555
C5_3 C4_3 1_555 1_555
C6_3 C1_3 1_555 1_555
H4_3 C6_3 1_555 1_555
C7_3 C1_3 1_555 1_555
C8_3 C3_3 1_555 1_555
C5_3 C6_3 1_555 1_555
O6_2 Zn4 1_555 1_555
N5 N2_3 1_555 1_555
N2_3 H2_3 1_555 1_555
H6_3 C9_3 1_555 1_555
H7_3 C9_3 1_555 1_555
C10_3 N5 1_555 1_555
C12_3 N2_3 1_555 1_555
C13_3 C12_3 1_555 1_555
H8_3 C13_3 1_555 1_555
H9_3 C13_3 1_555 1_555
H10_3 C13_3 1_555 1_555
C9_3 C10_3 1_555 1_555
C10_3 C11_3 1_555 1_555
C11_3 C12_3 1_555 1_555
N5_2 N2_4 1_555 1_555
N2_4 H2_4 1_555 1_555
C9_4 H5_3 1_555 1_555
H6_4 C9_4 1_555 1_555
H7_4 C9_4 1_555 1_555
C10_4 N5_2 1_555 1_555
C12_4 N2_4 1_555 1_555
C13_4 C12_4 1_555 1_555
H8_4 C13_4 1_555 1_555
H9_4 C13_4 1_555 1_555
H10_4 C13_4 1_555 1_555
C9_4 C10_4 1_555 1_555
C10_4 C11_4 1_555 1_555
C11_4 C12_4 1_555 1_555
O1_4 C7_4 1_555 1_555
C1_4 C2_4 1_555 1_555
O5_2 C7_4 1_555 1_555
C2_4 H1_4 1_555 1_555
O6_2 C8_4 1_555 1_555
N3_4 N4_4 1_555 1_555
C3_4 C2_4 1_555 1_555
O7 C8_4 1_555 1_555
N4_4 C5_4 1_555 1_555
C4_4 C3_4 1_555 1_555
H3_4 C4_4 1_555 1_555
C5_4 C4_4 1_555 1_555
C6_4 C1_4 1_555 1_555
H4_4 C6_4 1_555 1_555
C7_4 C1_4 1_555 1_555
C8_4 C3_4 1_555 1_555
C5_4 C6_4 1_555 1_555

#END
