
###############################################################################
#
# This file contains modified crystal structure data generated from the
# MOF subset of the Cambridge Structural Database (CSD) v543 
# hosted by the Cambridge Crystallographic Data Centre (CCDC).
#
# This work is licensed under the Creative Commons
# Attribution-NonCommercial-ShareAlike 4.0 International License.
# To view a copy of this license, visit
# http://creativecommons.org/licenses/by-nc-sa/4.0/
# or send a letter to
# Creative Commons, PO Box 1866, Mountain View, CA 94042, USA.
#
# CIF created using the CSD Python API on 29 September 2022
# The structure has been converted into the P1 space group
# The structure has a 3D framework
# The original CSD entry SOKRIW is in the monoclinic crystal system
# The framework has been calculated to contain at least 10.0% void space
# The void calculation uses a probe of radius 1.32A, grid spacing 0.4
#
###############################################################################

data_SOKRIW
_chemical_formula_moiety         '(C52 H40 Cu2 N16 O10)n'
_symmetry_cell_setting           triclinic
_symmetry_space_group_name_H-M   'P 1'
_symmetry_Int_Tables_number      1
_space_group_name_Hall           'P 1'
loop_
_symmetry_equiv_pos_site_id
_symmetry_equiv_pos_as_xyz
1 x,y,z
_cell_length_a                   12.7515(16)
_cell_length_b                   12.8834(16)
_cell_length_c                   13.5198(16)
_cell_angle_alpha                90
_cell_angle_beta                 107.355(7)
_cell_angle_gamma                90
_cell_volume                     2119.95
loop_
_atom_site_label
_atom_site_type_symbol
_atom_site_fract_x
_atom_site_fract_y
_atom_site_fract_z
Cu1 Cu 0.08779(9) 0.56271(9) 0.53259(10)
O1 O 0.1365(6) 0.4897(6) 0.4297(6)
O4 O 0.1443(6) 0.0514(6) 0.1256(6)
N1 N 0.7705(6) 0.3406(7) 0.4031(7)
N2 N 0.7789(8) 0.2459(8) 0.3692(9)
H1 H 0.842022 0.216536 0.372076
N3 N 0.4896(8) 0.2515(8) 0.3042(8)
N4 N 0.4349(7) 0.3226(7) 0.3266(8)
C1 C 0.1462(10) 0.3540(9) 0.3254(9)
C2 C 0.0930(9) 0.2792(8) 0.2511(9)
H2 H 0.015160 0.274161 0.232370
C3 C 0.1493(9) 0.2131(9) 0.2046(9)
C4 C 0.2662(9) 0.2240(9) 0.2295(9)
H3 H 0.307534 0.178301 0.200410
C5 C 0.3178(9) 0.3023(9) 0.2965(10)
C6 C 0.2602(9) 0.3647(9) 0.3434(9)
H4 H 0.298268 0.417174 0.389620
C7 C 0.0855(10) 0.4154(8) 0.3777(9)
C8 C 0.0910(10) 0.1320(9) 0.1331(10)
C9 C 0.6205(10) 0.4648(8) 0.4002(11)
H5 H 0.582175 0.460014 0.452985
H6 H 0.569468 0.489967 0.335104
H7 H 0.682253 0.513233 0.423499
C10 C 0.6634(9) 0.3579(8) 0.3829(9)
C11 C 0.6042(9) 0.2715(10) 0.3378(11)
C12 C 0.6782(10) 0.1972(11) 0.3286(14)
C13 C 0.6665(12) 0.0895(12) 0.2871(19)
H8 H 0.639284 0.091599 0.211280
H9 H 0.614328 0.051257 0.313935
H10 H 0.738068 0.054748 0.308856
Cu4 Cu 0.91221(9) 0.43729(9) 0.46741(10)
O5 O 0.0090(6) 0.6183(5) 0.6258(5)
O6 O 0.0048(5) 0.6563(5) 0.4242(5)
O7 O 0.1443(6) 0.4486(6) 0.6256(6)
N5 N 0.2295(6) 0.6594(7) 0.5969(7)
Cu5 Cu 0.08779(9) 0.93729(9) 0.03259(10)
O2 O 0.9910(6) 0.3817(5) 0.3742(5)
O3 O 0.9952(5) 0.1563(5) 0.0758(5)
Cu2 Cu 0.91221(9) 0.06271(9) 0.96741(10)
O2_2 O 0.0090(6) 0.8817(5) 0.1258(5)
H7_2 H 0.317747 0.013233 0.076501
O5_2 O 0.9910(6) 0.1183(5) 0.8742(5)
N5_2 N 0.7705(6) 0.1594(7) 0.9031(7)
O1_2 O 0.8635(6) 0.9897(6) 0.0703(6)
O4_2 O 0.8557(6) 0.5514(6) 0.3744(6)
N1_2 N 0.2295(6) 0.8406(7) 0.0969(7)
N2_2 N 0.2211(8) 0.7459(8) 0.1308(9)
H1_2 H 0.157978 0.716536 0.127924
N3_2 N 0.5104(8) 0.7515(8) 0.1958(8)
N4_2 N 0.5651(7) 0.8226(7) 0.1734(8)
C1_2 C 0.8538(10) 0.8540(9) 0.1746(9)
C2_2 C 0.9070(9) 0.7792(8) 0.2489(9)
H2_2 H 0.984840 0.774161 0.267630
C3_2 C 0.8507(9) 0.7131(9) 0.2954(9)
C4_2 C 0.7338(9) 0.7240(9) 0.2705(9)
H3_2 H 0.692466 0.678301 0.299590
C5_2 C 0.6822(9) 0.8023(9) 0.2035(10)
C6_2 C 0.7398(9) 0.8647(9) 0.1566(9)
H4_2 H 0.701732 0.917174 0.110380
C7_2 C 0.9145(10) 0.9154(8) 0.1223(9)
C8_2 C 0.9090(10) 0.6320(9) 0.3669(10)
C9_2 C 0.3795(10) 0.9648(8) 0.0998(11)
H5_2 H 0.417825 0.960014 0.047015
H6_2 H 0.430532 0.989967 0.164896
C10_2 C 0.3366(9) 0.8579(8) 0.1171(9)
C11_2 C 0.3958(9) 0.7715(10) 0.1622(11)
C12_2 C 0.3218(10) 0.6972(11) 0.1714(14)
C13_2 C 0.3335(12) 0.5895(12) 0.2129(19)
H8_2 H 0.360716 0.591599 0.288720
H9_2 H 0.385672 0.551257 0.186065
H10_2 H 0.261932 0.554748 0.191144
O7_2 O 0.8557(6) 0.9486(6) 0.8744(6)
O3_2 O 0.0048(5) 0.8437(5) 0.9242(5)
O1_3 O 0.8635(6) 0.5103(6) 0.5703(6)
N2_3 N 0.2211(8) 0.7541(8) 0.6308(9)
H1_3 H 0.157978 0.783464 0.627924
N3_3 N 0.5104(8) 0.7485(8) 0.6958(8)
N4_3 N 0.5651(7) 0.6774(7) 0.6734(8)
C1_3 C 0.8538(10) 0.6460(9) 0.6746(9)
C2_3 C 0.9070(9) 0.7208(8) 0.7489(9)
H2_3 H 0.984840 0.725839 0.767630
C3_3 C 0.8507(9) 0.7869(9) 0.7954(9)
C4_3 C 0.7338(9) 0.7760(9) 0.7705(9)
H3_3 H 0.692466 0.821699 0.799590
C5_3 C 0.6822(9) 0.6977(9) 0.7035(10)
C6_3 C 0.7398(9) 0.6353(9) 0.6566(9)
H4_3 H 0.701732 0.582826 0.610380
C7_3 C 0.9145(10) 0.5846(8) 0.6223(9)
C8_3 C 0.9090(10) 0.8680(9) 0.8669(10)
C9_3 C 0.3795(10) 0.5352(8) 0.5998(11)
H5_3 H 0.417825 0.539986 0.547015
H6_3 H 0.430532 0.510033 0.664896
H7_3 H 0.317747 0.486767 0.576501
C10_3 C 0.3366(9) 0.6421(8) 0.6171(9)
C11_3 C 0.3958(9) 0.7285(10) 0.6622(11)
C12_3 C 0.3218(10) 0.8028(11) 0.6714(14)
C13_3 C 0.3335(12) 0.9105(12) 0.7129(19)
H8_3 H 0.360716 0.908401 0.788720
H9_3 H 0.385672 0.948743 0.686065
H10_3 H 0.261932 0.945252 0.691144
O6_2 O 0.9952(5) 0.3437(5) 0.5758(5)
O1_4 O 0.1365(6) 0.0103(6) 0.9297(6)
N2_4 N 0.7789(8) 0.2541(8) 0.8692(9)
H1_4 H 0.842022 0.283464 0.872076
N3_4 N 0.4896(8) 0.2485(8) 0.8042(8)
N4_4 N 0.4349(7) 0.1774(7) 0.8266(8)
C1_4 C 0.1462(10) 0.1460(9) 0.8254(9)
C2_4 C 0.0930(9) 0.2208(8) 0.7511(9)
H2_4 H 0.015160 0.225839 0.732370
C3_4 C 0.1493(9) 0.2869(9) 0.7046(9)
C4_4 C 0.2662(9) 0.2760(9) 0.7295(9)
H3_4 H 0.307534 0.321699 0.700410
C5_4 C 0.3178(9) 0.1977(9) 0.7965(10)
C6_4 C 0.2602(9) 0.1353(9) 0.8434(9)
H4_4 H 0.298268 0.082826 0.889620
C7_4 C 0.0855(10) 0.0846(8) 0.8777(9)
C8_4 C 0.0910(10) 0.3680(9) 0.6331(10)
C9_4 C 0.6205(10) 0.0352(8) 0.9002(11)
H5_4 H 0.582175 0.039986 0.952985
H6_4 H 0.569468 0.010033 0.835104
C10_4 C 0.6634(9) 0.1421(8) 0.8829(9)
C11_4 C 0.6042(9) 0.2285(10) 0.8378(11)
C12_4 C 0.6782(10) 0.3028(11) 0.8286(14)
C13_4 C 0.6665(12) 0.4105(12) 0.7871(19)
H8_4 H 0.639284 0.408401 0.711280
H9_4 H 0.614328 0.448743 0.813935
H10_4 H 0.738068 0.445252 0.808856
H7_4 H 0.682253 0.986767 0.923499
loop_
_geom_bond_atom_site_label_1
_geom_bond_atom_site_label_2
_geom_bond_site_symmetry_1
_geom_bond_site_symmetry_2
Cu1 O1 1_555 1_555
O1 C7 1_555 1_555
O4 C8 1_555 1_555
N1 N2 1_555 1_555
N2 H1 1_555 1_555
N3 N4 1_555 1_555
N4 C5 1_555 1_555
C1 C2 1_555 1_555
C2 H2 1_555 1_555
C3 C2 1_555 1_555
C4 C3 1_555 1_555
H3 C4 1_555 1_555
C5 C4 1_555 1_555
C6 C1 1_555 1_555
H4 C6 1_555 1_555
C7 C1 1_555 1_555
C8 C3 1_555 1_555
C9 H5 1_555 1_555
H6 C9 1_555 1_555
H7 C9 1_555 1_555
C10 N1 1_555 1_555
C11 N3 1_555 1_555
C12 N2 1_555 1_555
C13 C12 1_555 1_555
H8 C13 1_555 1_555
H9 C13 1_555 1_555
H10 C13 1_555 1_555
Cu4 N1 1_555 1_555
O5 Cu1 1_555 1_555
O6 Cu1 1_555 1_555
O7 Cu1 1_555 1_555
N5 Cu1 1_555 1_555
C5 C6 1_555 1_555
C9 C10 1_555 1_555
C10 C11 1_555 1_555
C11 C12 1_555 1_555
Cu4 O2 1_555 1_555
Cu5 O2_2 1_555 1_555
O5_2 Cu2 1_555 1_555
N5_2 Cu2 1_555 1_555
O1_2 C7_2 1_555 1_555
O4_2 C8_2 1_555 1_555
N1_2 N2_2 1_555 1_555
N2_2 H1_2 1_555 1_555
N3_2 N4_2 1_555 1_555
N4_2 C5_2 1_555 1_555
C1_2 C2_2 1_555 1_555
C2_2 H2_2 1_555 1_555
C3_2 C2_2 1_555 1_555
C4_2 C3_2 1_555 1_555
H3_2 C4_2 1_555 1_555
C5_2 C4_2 1_555 1_555
C6_2 C1_2 1_555 1_555
H4_2 C6_2 1_555 1_555
C7_2 C1_2 1_555 1_555
C8_2 C3_2 1_555 1_555
C9_2 H5_2 1_555 1_555
H6_2 C9_2 1_555 1_555
C10_2 N1_2 1_555 1_555
C11_2 N3_2 1_555 1_555
C12_2 N2_2 1_555 1_555
C13_2 C12_2 1_555 1_555
H8_2 C13_2 1_555 1_555
H9_2 C13_2 1_555 1_555
H10_2 C13_2 1_555 1_555
Cu5 N1_2 1_555 1_555
Cu4 O4_2 1_555 1_555
C5_2 C6_2 1_555 1_555
C9_2 C10_2 1_555 1_555
C10_2 C11_2 1_555 1_555
C11_2 C12_2 1_555 1_555
Cu4 O1_3 1_555 1_555
O1_3 C7_3 1_555 1_555
O7_2 C8_3 1_555 1_555
N5 N2_3 1_555 1_555
N2_3 H1_3 1_555 1_555
N3_3 N4_3 1_555 1_555
N4_3 C5_3 1_555 1_555
C1_3 C2_3 1_555 1_555
C2_3 H2_3 1_555 1_555
C3_3 C2_3 1_555 1_555
C4_3 C3_3 1_555 1_555
H3_3 C4_3 1_555 1_555
C5_3 C4_3 1_555 1_555
C6_3 C1_3 1_555 1_555
H4_3 C6_3 1_555 1_555
C7_3 C1_3 1_555 1_555
C8_3 C3_3 1_555 1_555
C9_3 H5_3 1_555 1_555
H6_3 C9_3 1_555 1_555
H7_3 C9_3 1_555 1_555
C10_3 N5 1_555 1_555
C11_3 N3_3 1_555 1_555
C12_3 N2_3 1_555 1_555
C13_3 C12_3 1_555 1_555
H8_3 C13_3 1_555 1_555
H9_3 C13_3 1_555 1_555
H10_3 C13_3 1_555 1_555
O6_2 Cu4 1_555 1_555
C5_3 C6_3 1_555 1_555
C9_3 C10_3 1_555 1_555
C10_3 C11_3 1_555 1_555
C11_3 C12_3 1_555 1_555
O1_4 C7_4 1_555 1_555
O7 C8_4 1_555 1_555
N5_2 N2_4 1_555 1_555
N2_4 H1_4 1_555 1_555
N3_4 N4_4 1_555 1_555
N4_4 C5_4 1_555 1_555
C1_4 C2_4 1_555 1_555
C2_4 H2_4 1_555 1_555
C3_4 C2_4 1_555 1_555
C4_4 C3_4 1_555 1_555
H3_4 C4_4 1_555 1_555
C5_4 C4_4 1_555 1_555
C6_4 C1_4 1_555 1_555
H4_4 C6_4 1_555 1_555
C7_4 C1_4 1_555 1_555
C8_4 C3_4 1_555 1_555
C9_4 H5_4 1_555 1_555
H6_4 C9_4 1_555 1_555
C10_4 N5_2 1_555 1_555
C11_4 N3_4 1_555 1_555
C12_4 N2_4 1_555 1_555
C13_4 C12_4 1_555 1_555
H8_4 C13_4 1_555 1_555
H9_4 C13_4 1_555 1_555
H10_4 C13_4 1_555 1_555
C5_4 C6_4 1_555 1_555
C9_4 C10_4 1_555 1_555
C10_4 C11_4 1_555 1_555
C11_4 C12_4 1_555 1_555

#END
