
###############################################################################
#
# This file contains modified crystal structure data generated from the
# MOF subset of the Cambridge Structural Database (CSD) v543 
# hosted by the Cambridge Crystallographic Data Centre (CCDC).
#
# This work is licensed under the Creative Commons
# Attribution-NonCommercial-ShareAlike 4.0 International License.
# To view a copy of this license, visit
# http://creativecommons.org/licenses/by-nc-sa/4.0/
# or send a letter to
# Creative Commons, PO Box 1866, Mountain View, CA 94042, USA.
#
# CIF created using the CSD Python API on 29 September 2022
# The structure has been converted into the P1 space group
# The structure has a 3D framework
# The original CSD entry SOLKUC is in the monoclinic crystal system
# The framework has been calculated to contain at least 10.0% void space
# The void calculation uses a probe of radius 1.32A, grid spacing 0.4
#
###############################################################################

data_SOLKUC
_chemical_formula_moiety         '(C140 H108 Cu11 N28 O24)n'
_symmetry_cell_setting           triclinic
_symmetry_space_group_name_H-M   'P 1'
_symmetry_Int_Tables_number      1
_space_group_name_Hall           'P 1'
loop_
_symmetry_equiv_pos_site_id
_symmetry_equiv_pos_as_xyz
1 x,y,z
_cell_length_a                   14.0116(18)
_cell_length_b                   19.843(3)
_cell_length_c                   15.3662(19)
_cell_angle_alpha                90
_cell_angle_beta                 108.191(3)
_cell_angle_gamma                90
_cell_volume                     4058.77
loop_
_atom_site_label
_atom_site_type_symbol
_atom_site_fract_x
_atom_site_fract_y
_atom_site_fract_z
Cu4 Cu 0.000000 0.500000 0.000000
Cu2 Cu 0.57762(4) 0.27016(2) 0.78761(3)
O1 O 0.0880(2) 0.51618(14) 0.12401(17)
O2 O 0.1338(2) 0.41019(15) 0.11362(19)
O3 O 0.3846(2) 0.68487(13) 0.64680(19)
O4 O 0.5152(2) 0.65948(14) 0.76769(19)
O5 O 0.5195(2) 0.34253(12) 0.70473(18)
O6 O 0.6256(2) 0.41113(13) 0.80315(17)
C1 C 0.2207(3) 0.5295(2) 0.2997(3)
H1 H 0.189229 0.568046 0.266221
C2 C 0.1375(3) 0.4636(2) 0.1568(3)
C3 C 0.2047(3) 0.4686(2) 0.2552(3)
N3 N 0.2768(3) 0.53838(17) 0.3855(2)
C4 C 0.3217(3) 0.48441(18) 0.4334(3)
C5 C 0.3094(4) 0.4207(2) 0.3932(3)
H2 H 0.342162 0.382741 0.427280
C6 C 0.2499(4) 0.4132(2) 0.3044(3)
H3 H 0.239894 0.369854 0.276849
C7 C 0.3860(3) 0.49675(18) 0.5293(2)
C8 C 0.3904(3) 0.56116(18) 0.5675(3)
H4 H 0.351648 0.596493 0.531693
C9 C 0.4487(3) 0.57429(18) 0.6547(3)
C10 C 0.4510(3) 0.64374(19) 0.6939(3)
C11 C 0.5073(3) 0.52297(18) 0.7088(3)
H5 H 0.550211 0.532407 0.768913
C12 C 0.5016(3) 0.45811(17) 0.6730(2)
C13 C 0.5550(3) 0.40118(18) 0.7328(2)
C14 C 0.4414(3) 0.44592(17) 0.5837(2)
H6 H 0.438280 0.401650 0.559399
H7 H 0.205494 0.577973 0.057447
H10 H 0.358338 0.629532 0.029056
C20 C 0.4249(3) 0.4942(2) 0.0397(3)
H12 H 0.372813 0.489781 0.066743
N4 N 0.4897(3) 0.29043(17) 0.8637(2)
N5 N 0.3627(3) 0.32811(18) 0.9058(3)
C22 C 0.4141(3) 0.3343(2) 0.8458(3)
H14 H 0.398616 0.365951 0.796974
C23 C 0.4054(4) 0.2781(2) 0.9660(3)
C24 C 0.4845(4) 0.2554(2) 0.9411(3)
H16 H 0.529578 0.220875 0.971688
C25 C 0.2679(3) 0.3631(2) 0.8982(3)
H17 H 0.263433 0.404468 0.861179
H18 H 0.267192 0.376554 0.959995
C26 C 0.1788(4) 0.3190(2) 0.8544(3)
C27 C 0.0940(4) 0.3227(3) 0.8820(5)
H19 H 0.092562 0.352572 0.929908
C28 C 0.0109(5) 0.2829(3) 0.8400(5)
C29 C 0.0111(4) 0.2391(3) 0.7710(4)
C34 C 0.0928(4) 0.2365(3) 0.7408(4)
H26 H 0.092824 0.207389 0.691650
C35 C 0.1757(4) 0.2763(3) 0.7820(4)
H27 H 0.232053 0.274332 0.760153
N8 N 0.8939(2) 0.46958(17) 0.0495(2)
N9 N 0.7530(3) 0.42486(17) 0.0582(2)
C36 C 0.8108(3) 0.4361(2) 0.0046(3)
C37 C 0.8013(3) 0.4541(2) 0.1430(3)
H29 H 0.777695 0.455203 0.194636
C38 C 0.8873(3) 0.4803(2) 0.1376(3)
H30 H 0.936276 0.502777 0.185902
C39 C 0.6520(3) 0.3957(2) 0.0287(3)
H32 H 0.645063 0.363664 0.075780
C40 C 0.5731(3) 0.4500(2) 0.0142(3)
C42 C 0.4980(3) 0.4451(2) 0.0543(3)
H34 H 0.496555 0.407614 0.092248
Cu4_2 Cu 1.000000 0.500000 0.000000
Cu6 Cu 0.42238(4) 0.77016(2) 0.71239(3)
O13 O 0.6154(2) 0.18487(13) 0.85320(19)
O15 O 0.4848(2) 0.15948(14) 0.73231(19)
N16 N 0.6859(3) 0.25863(17) 0.7307(3)
N6 N 0.8253(3) 0.2247(2) 0.7100(3)
H20 H 0.952892 0.286069 0.859325
C30 C 0.9232(4) 0.1904(3) 0.7298(5)
H21 H 0.929296 0.170858 0.672482
H22 H 0.926534 0.152961 0.773294
C31 C 0.7619(4) 0.2160(2) 0.7579(4)
H23 H 0.770160 0.183645 0.805254
C32 C 0.7030(4) 0.2957(2) 0.6605(3)
H24 H 0.660653 0.330552 0.627171
C33 C 0.7871(4) 0.2753(3) 0.6470(4)
H25 H 0.815604 0.292141 0.602746
N6_2 N 0.1747(3) 0.7247(2) 0.7900(3)
N7 N 0.3141(3) 0.75863(17) 0.7693(3)
H20_2 H 0.047108 0.786069 0.640675
C30_2 C 0.0768(4) 0.6904(3) 0.7702(5)
H21_2 H 0.070704 0.670858 0.827518
H22_2 H 0.073466 0.652961 0.726706
C31_2 C 0.2381(4) 0.7160(2) 0.7421(4)
H23_2 H 0.229840 0.683645 0.694746
C32_2 C 0.2970(4) 0.7957(2) 0.8395(3)
H24_2 H 0.339347 0.830552 0.872829
C33_2 C 0.2129(4) 0.7753(3) 0.8530(4)
H25_2 H 0.184396 0.792141 0.897254
C8_2 C 0.6096(3) 0.06116(18) 0.9325(3)
H4_2 H 0.648352 0.096493 0.968307
C9_2 C 0.5513(3) 0.07429(18) 0.8453(3)
C10_2 C 0.5490(3) 0.14374(19) 0.8061(3)
C11_2 C 0.4927(3) 0.02297(18) 0.7912(3)
H5_2 H 0.449789 0.032407 0.731087
O5_2 O 0.4805(2) 0.84253(12) 0.79527(18)
O6_2 O 0.3744(2) 0.91113(13) 0.69685(17)
C7_2 C 0.6140(3) 0.99675(18) 0.9707(2)
C12_2 C 0.4984(3) 0.95811(17) 0.8270(2)
C13_2 C 0.4450(3) 0.90118(18) 0.7672(2)
C14_2 C 0.5586(3) 0.94592(17) 0.9163(2)
H6_2 H 0.561720 0.901650 0.940601
N4_2 N 0.5103(3) 0.79043(17) 0.6363(2)
N5_2 N 0.6373(3) 0.82811(18) 0.5942(3)
C22_2 C 0.5859(3) 0.8343(2) 0.6542(3)
H14_2 H 0.601384 0.865951 0.703026
C23_2 C 0.5946(4) 0.7781(2) 0.5340(3)
H15 H 0.615836 0.762312 0.484646
C24_2 C 0.5155(4) 0.7554(2) 0.5589(3)
H16_2 H 0.470422 0.720875 0.528312
C25_2 C 0.7321(3) 0.8631(2) 0.6018(3)
H17_2 H 0.736567 0.904468 0.638821
H18_2 H 0.732808 0.876554 0.540005
C26_2 C 0.8212(4) 0.8190(2) 0.6456(3)
C27_2 C 0.9060(4) 0.8227(3) 0.6180(5)
H19_2 H 0.907438 0.852572 0.570092
C28_2 C 0.9891(5) 0.7829(3) 0.6600(5)
C29_2 C 0.9889(4) 0.7391(3) 0.7290(4)
C34_2 C 0.9072(4) 0.7365(3) 0.7592(4)
H26_2 H 0.907176 0.707389 0.808350
C35_2 C 0.8243(4) 0.7763(3) 0.7180(4)
H27_2 H 0.767947 0.774332 0.739847
Cu4_3 Cu 0.000000 0.500000 1.000000
N1 N 0.1061(2) 0.53042(17) 0.9505(2)
N2 N 0.2470(3) 0.57514(17) 0.9418(2)
C15 C 0.1892(3) 0.5639(2) 0.9954(3)
C16 C 0.1987(3) 0.5459(2) 0.8570(3)
H8 H 0.222305 0.544797 0.805364
C17 C 0.1127(3) 0.5197(2) 0.8624(3)
H9 H 0.063724 0.497223 0.814098
C18 C 0.3480(3) 0.6043(2) 0.9713(3)
H11 H 0.354937 0.636336 0.924220
C19 C 0.4269(3) 0.5500(2) 0.9858(3)
C21 C 0.5020(3) 0.5549(2) 0.9457(3)
H13 H 0.503445 0.592386 0.907752
H28 H 0.794506 0.422027 0.942553
H31 H 0.641662 0.370468 0.970944
C41 C 0.5751(3) 0.5058(2) 0.9603(3)
H33 H 0.627187 0.510219 0.933257
N13 N 0.1747(3) 0.7753(2) 0.2900(3)
N14 N 0.3141(3) 0.74137(17) 0.2693(3)
H47 H 0.047108 0.713931 0.140675
C65 C 0.0768(4) 0.8096(3) 0.2702(5)
H48 H 0.070704 0.829142 0.327518
H49 H 0.073466 0.847039 0.226706
C66 C 0.2381(4) 0.7840(2) 0.2421(4)
H50 H 0.229840 0.816355 0.194746
C67 C 0.2970(4) 0.7043(2) 0.3395(3)
H51 H 0.339347 0.669448 0.372829
C68 C 0.2129(4) 0.7247(3) 0.3530(4)
H52 H 0.184396 0.707859 0.397254
Cu4_4 Cu 1.000000 0.500000 1.000000
Cu7 Cu 0.42238(4) 0.72984(2) 0.21239(3)
O7 O 0.9120(2) 0.48382(14) 0.87599(17)
O8 O 0.8662(2) 0.58981(15) 0.88638(19)
O9 O 0.6154(2) 0.31513(13) 0.35320(19)
O10 O 0.4848(2) 0.34052(14) 0.23231(19)
O11 O 0.4805(2) 0.65747(12) 0.29527(18)
O12 O 0.3744(2) 0.58887(13) 0.19685(17)
C43 C 0.7793(3) 0.4705(2) 0.7003(3)
H35 H 0.810771 0.431954 0.733779
C44 C 0.8625(3) 0.5364(2) 0.8432(3)
C45 C 0.7953(3) 0.5314(2) 0.7448(3)
N10 N 0.7232(3) 0.46162(17) 0.6145(2)
C46 C 0.6783(3) 0.51559(18) 0.5666(3)
C47 C 0.6906(4) 0.5793(2) 0.6068(3)
H36 H 0.657838 0.617259 0.572720
C48 C 0.7501(4) 0.5868(2) 0.6956(3)
H37 H 0.760106 0.630146 0.723151
C49 C 0.6140(3) 0.50325(18) 0.4707(2)
C50 C 0.6096(3) 0.43884(18) 0.4325(3)
H38 H 0.648352 0.403507 0.468307
C51 C 0.5513(3) 0.42571(18) 0.3453(3)
C52 C 0.5490(3) 0.35626(19) 0.3061(3)
C53 C 0.4927(3) 0.47703(18) 0.2912(3)
H39 H 0.449789 0.467593 0.231087
C54 C 0.4984(3) 0.54189(17) 0.3270(2)
C55 C 0.4450(3) 0.59882(18) 0.2672(2)
C56 C 0.5586(3) 0.55408(17) 0.4163(2)
H40 H 0.561720 0.598350 0.440601
N11 N 0.5103(3) 0.70957(17) 0.1363(2)
N12 N 0.6373(3) 0.67189(18) 0.0942(3)
C57 C 0.5859(3) 0.6657(2) 0.1542(3)
H41 H 0.601384 0.634049 0.203026
C58 C 0.5946(4) 0.7219(2) 0.0340(3)
C59 C 0.5155(4) 0.7446(2) 0.0589(3)
H43 H 0.470422 0.779125 0.028312
C60 C 0.7321(3) 0.6369(2) 0.1018(3)
H44 H 0.736567 0.595532 0.138821
H45 H 0.732808 0.623446 0.040005
C61 C 0.8212(4) 0.6810(2) 0.1456(3)
C62 C 0.9060(4) 0.6773(3) 0.1180(5)
H46 H 0.907438 0.647428 0.070092
C63 C 0.9891(5) 0.7171(3) 0.1600(5)
C64 C 0.9889(4) 0.7609(3) 0.2290(4)
C69 C 0.9072(4) 0.7635(3) 0.2592(4)
H53 H 0.907176 0.792611 0.308350
C70 C 0.8243(4) 0.7237(3) 0.2180(4)
H54 H 0.767947 0.725668 0.239847
Cu8 Cu 0.57762(4) 0.22984(2) 0.28761(3)
O14 O 0.3846(2) 0.81513(13) 0.14680(19)
O16 O 0.5152(2) 0.84052(14) 0.26769(19)
O11_2 O 0.5195(2) 0.15747(12) 0.20473(18)
O12_2 O 0.6256(2) 0.08887(13) 0.30315(17)
C49_2 C 0.3860(3) 0.00325(18) 0.0293(2)
C54_2 C 0.5016(3) 0.04189(17) 0.1730(2)
C55_2 C 0.5550(3) 0.09882(18) 0.2328(2)
C56_2 C 0.4414(3) 0.05408(17) 0.0837(2)
H40_2 H 0.438280 0.098350 0.059399
N11_2 N 0.4897(3) 0.20957(17) 0.3637(2)
N12_2 N 0.3627(3) 0.17189(18) 0.4058(3)
C57_2 C 0.4141(3) 0.1657(2) 0.3458(3)
H41_2 H 0.398616 0.134049 0.296974
C58_2 C 0.4054(4) 0.2219(2) 0.4660(3)
H42 H 0.384164 0.237688 0.515354
C59_2 C 0.4845(4) 0.2446(2) 0.4411(3)
H43_2 H 0.529578 0.279125 0.471688
C60_2 C 0.2679(3) 0.1369(2) 0.3982(3)
H44_2 H 0.263433 0.095532 0.361179
H45_2 H 0.267192 0.123446 0.459995
C61_2 C 0.1788(4) 0.1810(2) 0.3544(3)
C62_2 C 0.0940(4) 0.1773(3) 0.3820(5)
H46_2 H 0.092562 0.147428 0.429908
C63_2 C 0.0109(5) 0.2171(3) 0.3400(5)
C64_2 C 0.0111(4) 0.2609(3) 0.2710(4)
C69_2 C 0.0928(4) 0.2635(3) 0.2408(4)
H53_2 H 0.092824 0.292611 0.191650
C70_2 C 0.1757(4) 0.2237(3) 0.2820(4)
H54_2 H 0.232053 0.225668 0.260153
N17 N 0.6859(3) 0.24137(17) 0.2307(3)
C50_2 C 0.3904(3) 0.93884(18) 0.0675(3)
H38_2 H 0.351648 0.903507 0.031693
C51_2 C 0.4487(3) 0.92571(18) 0.1547(3)
C52_2 C 0.4510(3) 0.85626(19) 0.1939(3)
C53_2 C 0.5073(3) 0.97703(18) 0.2088(3)
H39_2 H 0.550211 0.967593 0.268913
N13_2 N 0.8253(3) 0.2753(2) 0.2100(3)
H47_2 H 0.952892 0.213931 0.359325
C65_2 C 0.9232(4) 0.3096(3) 0.2298(5)
H48_2 H 0.929296 0.329142 0.172482
H49_2 H 0.926534 0.347039 0.273294
C66_2 C 0.7619(4) 0.2840(2) 0.2579(4)
H50_2 H 0.770160 0.316355 0.305254
C67_2 C 0.7030(4) 0.2043(2) 0.1605(3)
H51_2 H 0.660653 0.169448 0.127171
C68_2 C 0.7871(4) 0.2247(3) 0.1470(4)
H52_2 H 0.815604 0.207859 0.102746
H15_2 H 0.384164 0.262312 0.015354
H42_2 H 0.615836 0.737688 0.984646
Cu1 Cu 0.000000 0.000000 0.500000
O8_2 O 0.1338(2) 0.08981(15) 0.61362(19)
C44_2 C 0.1375(3) 0.0364(2) 0.6568(3)
C45_2 C 0.2047(3) 0.0314(2) 0.7552(3)
C46_2 C 0.3217(3) 0.01559(18) 0.9334(3)
C47_2 C 0.3094(4) 0.0793(2) 0.8932(3)
H36_2 H 0.342162 0.117259 0.927280
C48_2 C 0.2499(4) 0.0868(2) 0.8044(3)
H37_2 H 0.239894 0.130146 0.776849
Cu1_2 Cu 1.000000 0.000000 0.500000
O1_2 O 0.9120(2) 0.01618(14) 0.37599(17)
C1_2 C 0.7793(3) 0.0295(2) 0.2003(3)
H1_2 H 0.810771 0.068046 0.233779
N1_2 N 0.8939(2) 0.03042(17) 0.5495(2)
N2_2 N 0.7530(3) 0.07514(17) 0.5582(2)
N3_2 N 0.7232(3) 0.03838(17) 0.1145(2)
C15_2 C 0.8108(3) 0.0639(2) 0.5046(3)
H7_2 H 0.794506 0.077973 0.442553
C16_2 C 0.8013(3) 0.0459(2) 0.6430(3)
H8_2 H 0.777695 0.044797 0.694636
C17_2 C 0.8873(3) 0.0197(2) 0.6376(3)
C18_2 C 0.6520(3) 0.1043(2) 0.5287(3)
H10_2 H 0.641662 0.129532 0.470944
H11_2 H 0.645063 0.136336 0.575780
C19_2 C 0.5731(3) 0.0500(2) 0.5142(3)
C21_2 C 0.4980(3) 0.0549(2) 0.5543(3)
H13_2 H 0.496555 0.092386 0.592248
H30_2 H 0.063724 0.002777 0.314098
C41_2 C 0.4249(3) 0.0058(2) 0.5397(3)
H33_2 H 0.372813 0.010219 0.566743
Cu1_3 Cu 0.000000 1.000000 0.500000
O7_2 O 0.0880(2) 0.98382(14) 0.62401(17)
C43_2 C 0.2207(3) 0.9705(2) 0.7997(3)
H35_2 H 0.189229 0.931954 0.766221
N10_2 N 0.2768(3) 0.96162(17) 0.8855(2)
N15 N 0.1061(2) 0.96958(17) 0.4505(2)
Cu1_4 Cu 1.000000 1.000000 0.500000
O2_2 O 0.8662(2) 0.91019(15) 0.38638(19)
C2_2 C 0.8625(3) 0.9636(2) 0.3432(3)
C3_2 C 0.7953(3) 0.9686(2) 0.2448(3)
C4_2 C 0.6783(3) 0.98441(18) 0.0666(3)
C5_2 C 0.6906(4) 0.9207(2) 0.1068(3)
H2_2 H 0.657838 0.882741 0.072720
C6_2 C 0.7501(4) 0.9132(2) 0.1956(3)
H3_2 H 0.760106 0.869854 0.223151
H9_2 H 0.936276 0.997223 0.685902
C20_2 C 0.5751(3) 0.9942(2) 0.4603(3)
H12_2 H 0.627187 0.989781 0.433257
N9_2 N 0.2470(3) 0.92486(17) 0.4418(2)
C36_2 C 0.1892(3) 0.9361(2) 0.4954(3)
H28_2 H 0.205494 0.922027 0.557447
C37_2 C 0.1987(3) 0.9541(2) 0.3570(3)
H29_2 H 0.222305 0.955203 0.305364
C38_2 C 0.1127(3) 0.9803(2) 0.3624(3)
C39_2 C 0.3480(3) 0.8957(2) 0.4713(3)
H31_2 H 0.358338 0.870468 0.529056
H32_2 H 0.354937 0.863664 0.424220
C40_2 C 0.4269(3) 0.9500(2) 0.4858(3)
C42_2 C 0.5020(3) 0.9451(2) 0.4457(3)
H34_2 H 0.503445 0.907614 0.407752
loop_
_geom_bond_atom_site_label_1
_geom_bond_atom_site_label_2
_geom_bond_site_symmetry_1
_geom_bond_site_symmetry_2
Cu4 O1 1_555 1_555
Cu2 O5 1_555 1_555
O1 C2 1_555 1_555
O2 Cu4 1_555 1_555
O3 C10 1_555 1_555
O4 C10 1_555 1_555
O5 C13 1_555 1_555
O6 C13 1_555 1_555
C1 H1 1_555 1_555
C2 O2 1_555 1_555
C3 C1 1_555 1_555
N3 C1 1_555 1_555
C4 N3 1_555 1_555
C5 C4 1_555 1_555
H2 C5 1_555 1_555
C6 C3 1_555 1_555
H3 C6 1_555 1_555
C7 C4 1_555 1_555
C8 C7 1_555 1_555
H4 C8 1_555 1_555
C9 C8 1_555 1_555
C10 C9 1_555 1_555
C11 C9 1_555 1_555
H5 C11 1_555 1_555
C12 C11 1_555 1_555
C13 C12 1_555 1_555
C14 C7 1_555 1_555
H6 C14 1_555 1_555
H12 C20 1_555 1_555
N4 Cu2 1_555 1_555
N5 C22 1_555 1_555
C22 N4 1_555 1_555
H14 C22 1_555 1_555
C23 N5 1_555 1_555
C24 N4 1_555 1_555
H16 C24 1_555 1_555
C25 N5 1_555 1_555
H17 C25 1_555 1_555
H18 C25 1_555 1_555
C26 C25 1_555 1_555
C27 C26 1_555 1_555
H19 C27 1_555 1_555
C28 C27 1_555 1_555
C29 C28 1_555 1_555
C34 C29 1_555 1_555
H26 C34 1_555 1_555
C35 C26 1_555 1_555
H27 C35 1_555 1_555
N8 C36 1_555 1_555
N9 C36 1_555 1_555
C37 N9 1_555 1_555
H29 C37 1_555 1_555
C38 N8 1_555 1_555
H30 C38 1_555 1_555
C39 N9 1_555 1_555
H32 C39 1_555 1_555
C40 C39 1_555 1_555
C42 C20 1_555 1_555
H34 C42 1_555 1_555
Cu4_2 N8 1_555 1_555
Cu6 O3 1_555 1_555
O13 Cu2 1_555 1_555
O15 Cu2 1_555 1_555
N16 Cu2 1_555 1_555
O4 Cu6 1_555 1_555
C2 C3 1_555 1_555
C5 C6 1_555 1_555
C12 C14 1_555 1_555
C23 C24 1_555 1_555
C34 C35 1_555 1_555
C37 C38 1_555 1_555
C40 C42 1_555 1_555
N6 C30 1_555 1_555
N16 C31 1_555 1_555
H21 C30 1_555 1_555
H22 C30 1_555 1_555
C31 N6 1_555 1_555
H23 C31 1_555 1_555
C32 N16 1_555 1_555
H24 C32 1_555 1_555
C33 N6 1_555 1_555
H25 C33 1_555 1_555
C32 C33 1_555 1_555
N6_2 C30_2 1_555 1_555
N7 C31_2 1_555 1_555
H21_2 C30_2 1_555 1_555
H22_2 C30_2 1_555 1_555
C31_2 N6_2 1_555 1_555
H23_2 C31_2 1_555 1_555
C32_2 N7 1_555 1_555
H24_2 C32_2 1_555 1_555
C33_2 N6_2 1_555 1_555
H25_2 C33_2 1_555 1_555
Cu6 N7 1_555 1_555
C32_2 C33_2 1_555 1_555
O13 C10_2 1_555 1_555
O15 C10_2 1_555 1_555
H4_2 C8_2 1_555 1_555
C9_2 C8_2 1_555 1_555
C10_2 C9_2 1_555 1_555
C11_2 C9_2 1_555 1_555
H5_2 C11_2 1_555 1_555
Cu6 O5_2 1_555 1_555
O5_2 C13_2 1_555 1_555
O6_2 C13_2 1_555 1_555
C13_2 C12_2 1_555 1_555
C14_2 C7_2 1_555 1_555
H6_2 C14_2 1_555 1_555
N4_2 Cu6 1_555 1_555
N5_2 C22_2 1_555 1_555
C22_2 N4_2 1_555 1_555
H14_2 C22_2 1_555 1_555
C23_2 N5_2 1_555 1_555
H15 C23_2 1_555 1_555
C24_2 N4_2 1_555 1_555
H16_2 C24_2 1_555 1_555
C25_2 N5_2 1_555 1_555
H17_2 C25_2 1_555 1_555
H18_2 C25_2 1_555 1_555
C26_2 C25_2 1_555 1_555
C27_2 C26_2 1_555 1_555
H19_2 C27_2 1_555 1_555
C28_2 C27_2 1_555 1_555
C29_2 C28_2 1_555 1_555
C34_2 C29_2 1_555 1_555
H26_2 C34_2 1_555 1_555
C35_2 C26_2 1_555 1_555
H27_2 C35_2 1_555 1_555
C12_2 C14_2 1_555 1_555
C23_2 C24_2 1_555 1_555
C34_2 C35_2 1_555 1_555
N1 Cu4_3 1_555 1_555
N2 C15 1_555 1_555
C15 N1 1_555 1_555
C16 N2 1_555 1_555
H8 C16 1_555 1_555
C17 N1 1_555 1_555
H9 C17 1_555 1_555
C18 N2 1_555 1_555
H11 C18 1_555 1_555
C19 C18 1_555 1_555
C21 C19 1_555 1_555
H13 C21 1_555 1_555
C41 C21 1_555 1_555
H33 C41 1_555 1_555
N13 C65 1_555 1_555
N14 C66 1_555 1_555
H48 C65 1_555 1_555
H49 C65 1_555 1_555
C66 N13 1_555 1_555
H50 C66 1_555 1_555
C67 N14 1_555 1_555
H51 C67 1_555 1_555
C68 N13 1_555 1_555
H52 C68 1_555 1_555
Cu7 N14 1_555 1_555
C16 C17 1_555 1_555
C67 C68 1_555 1_555
Cu7 O11 1_555 1_555
O7 Cu4_4 1_555 1_555
O8 Cu4_4 1_555 1_555
O9 C52 1_555 1_555
O10 C52 1_555 1_555
O11 C55 1_555 1_555
O12 C55 1_555 1_555
C43 H35 1_555 1_555
C44 O7 1_555 1_555
C45 C43 1_555 1_555
N10 C43 1_555 1_555
C46 N10 1_555 1_555
C47 C46 1_555 1_555
H36 C47 1_555 1_555
C48 C45 1_555 1_555
H37 C48 1_555 1_555
C49 C46 1_555 1_555
C50 C49 1_555 1_555
H38 C50 1_555 1_555
C51 C50 1_555 1_555
C52 C51 1_555 1_555
C53 C51 1_555 1_555
H39 C53 1_555 1_555
C54 C53 1_555 1_555
C55 C54 1_555 1_555
C56 C49 1_555 1_555
H40 C56 1_555 1_555
N11 Cu7 1_555 1_555
N12 C57 1_555 1_555
C57 N11 1_555 1_555
H41 C57 1_555 1_555
C58 N12 1_555 1_555
C59 N11 1_555 1_555
H43 C59 1_555 1_555
C60 N12 1_555 1_555
H44 C60 1_555 1_555
H45 C60 1_555 1_555
C61 C60 1_555 1_555
C62 C61 1_555 1_555
H46 C62 1_555 1_555
C63 C62 1_555 1_555
C64 C63 1_555 1_555
C69 C64 1_555 1_555
H53 C69 1_555 1_555
C70 C61 1_555 1_555
H54 C70 1_555 1_555
Cu8 O9 1_555 1_555
O14 Cu7 1_555 1_555
O16 Cu7 1_555 1_555
O8 C44 1_555 1_555
O10 Cu8 1_555 1_555
C44 C45 1_555 1_555
C47 C48 1_555 1_555
C54 C56 1_555 1_555
C58 C59 1_555 1_555
C69 C70 1_555 1_555
Cu8 O11_2 1_555 1_555
O11_2 C55_2 1_555 1_555
O12_2 C55_2 1_555 1_555
C55_2 C54_2 1_555 1_555
C56_2 C49_2 1_555 1_555
H40_2 C56_2 1_555 1_555
N11_2 Cu8 1_555 1_555
N12_2 C57_2 1_555 1_555
C57_2 N11_2 1_555 1_555
H41_2 C57_2 1_555 1_555
C58_2 N12_2 1_555 1_555
H42 C58_2 1_555 1_555
C59_2 N11_2 1_555 1_555
H43_2 C59_2 1_555 1_555
C60_2 N12_2 1_555 1_555
H44_2 C60_2 1_555 1_555
H45_2 C60_2 1_555 1_555
C61_2 C60_2 1_555 1_555
C62_2 C61_2 1_555 1_555
H46_2 C62_2 1_555 1_555
C63_2 C62_2 1_555 1_555
C64_2 C63_2 1_555 1_555
C69_2 C64_2 1_555 1_555
H53_2 C69_2 1_555 1_555
C70_2 C61_2 1_555 1_555
H54_2 C70_2 1_555 1_555
N17 Cu8 1_555 1_555
C54_2 C56_2 1_555 1_555
C58_2 C59_2 1_555 1_555
C69_2 C70_2 1_555 1_555
O14 C52_2 1_555 1_555
O16 C52_2 1_555 1_555
H38_2 C50_2 1_555 1_555
C51_2 C50_2 1_555 1_555
C52_2 C51_2 1_555 1_555
C53_2 C51_2 1_555 1_555
H39_2 C53_2 1_555 1_555
N13_2 C65_2 1_555 1_555
N17 C66_2 1_555 1_555
H48_2 C65_2 1_555 1_555
H49_2 C65_2 1_555 1_555
C66_2 N13_2 1_555 1_555
H50_2 C66_2 1_555 1_555
C67_2 N17 1_555 1_555
H51_2 C67_2 1_555 1_555
C68_2 N13_2 1_555 1_555
H52_2 C68_2 1_555 1_555
C67_2 C68_2 1_555 1_555
O8_2 Cu1 1_555 1_555
C47_2 C46_2 1_555 1_555
H36_2 C47_2 1_555 1_555
C48_2 C45_2 1_555 1_555
H37_2 C48_2 1_555 1_555
O8_2 C44_2 1_555 1_555
C44_2 C45_2 1_555 1_555
C47_2 C48_2 1_555 1_555
Cu1_2 O1_2 1_555 1_555
C1_2 H1_2 1_555 1_555
N1_2 Cu1_2 1_555 1_555
N2_2 C15_2 1_555 1_555
N3_2 C1_2 1_555 1_555
C15_2 N1_2 1_555 1_555
H7_2 C15_2 1_555 1_555
C16_2 N2_2 1_555 1_555
H8_2 C16_2 1_555 1_555
C17_2 N1_2 1_555 1_555
C18_2 N2_2 1_555 1_555
H10_2 C18_2 1_555 1_555
H11_2 C18_2 1_555 1_555
C19_2 C18_2 1_555 1_555
C21_2 C19_2 1_555 1_555
H13_2 C21_2 1_555 1_555
C41_2 C21_2 1_555 1_555
H33_2 C41_2 1_555 1_555
C16_2 C17_2 1_555 1_555
O7_2 Cu1_3 1_555 1_555
C43_2 H35_2 1_555 1_555
N10_2 C43_2 1_555 1_555
N15 Cu1_3 1_555 1_555
O2_2 Cu1_4 1_555 1_555
C2_2 O2_2 1_555 1_555
C5_2 C4_2 1_555 1_555
H2_2 C5_2 1_555 1_555
C6_2 C3_2 1_555 1_555
H3_2 C6_2 1_555 1_555
H12_2 C20_2 1_555 1_555
N15 C36_2 1_555 1_555
N9_2 C36_2 1_555 1_555
C36_2 H28_2 1_555 1_555
C37_2 N9_2 1_555 1_555
H29_2 C37_2 1_555 1_555
C38_2 N15 1_555 1_555
C39_2 N9_2 1_555 1_555
H31_2 C39_2 1_555 1_555
H32_2 C39_2 1_555 1_555
C40_2 C39_2 1_555 1_555
C42_2 C20_2 1_555 1_555
H34_2 C42_2 1_555 1_555
C2_2 C3_2 1_555 1_555
C5_2 C6_2 1_555 1_555
C37_2 C38_2 1_555 1_555
C40_2 C42_2 1_555 1_555

#END
