
###############################################################################
#
# This file contains modified crystal structure data generated from the
# MOF subset of the Cambridge Structural Database (CSD) v543 
# hosted by the Cambridge Crystallographic Data Centre (CCDC).
#
# This work is licensed under the Creative Commons
# Attribution-NonCommercial-ShareAlike 4.0 International License.
# To view a copy of this license, visit
# http://creativecommons.org/licenses/by-nc-sa/4.0/
# or send a letter to
# Creative Commons, PO Box 1866, Mountain View, CA 94042, USA.
#
# CIF created using the CSD Python API on 29 September 2022
# The structure has been converted into the P1 space group
# The structure has a 3D framework
# The original CSD entry SOLMUD is in the monoclinic crystal system
# The framework has been calculated to contain at least 10.0% void space
# The void calculation uses a probe of radius 1.32A, grid spacing 0.4
# The framework is charged, counterions have been retained in the structure
#
###############################################################################

data_SOLMUD
_chemical_formula_moiety         '(C84 H44 Cd2 O18 4-)n'
_symmetry_cell_setting           triclinic
_symmetry_space_group_name_H-M   'P 1'
_symmetry_Int_Tables_number      1
_space_group_name_Hall           'P 1'
loop_
_symmetry_equiv_pos_site_id
_symmetry_equiv_pos_as_xyz
1 x,y,z
_cell_length_a                   14.050(2)
_cell_length_b                   20.156(3)
_cell_length_c                   20.378(3)
_cell_angle_alpha                90
_cell_angle_beta                 101.717(6)
_cell_angle_gamma                90
_cell_volume                     5650.63
loop_
_atom_site_label
_atom_site_type_symbol
_atom_site_fract_x
_atom_site_fract_y
_atom_site_fract_z
H6 H 0.0506 0.2915 0.3787
H7 H 0.0006 0.2089 0.2993
O1 O 0.0427(4) 0.3945(2) 0.4460(2)
O3 O 0.0300(3) 0.1029(3) 0.1026(3)
Cd3 Cd 0.10294(3) 0.040188(19) 0.03415(2)
Cd4 Cd 0.10294(3) 0.459812(19) 0.53415(2)
O9 O 0.0890(4) 0.5396(3) 0.4510(3)
Cd1 Cd 0.89706(3) 0.540188(19) 0.46585(2)
C1 C 0.9431(5) 0.0838(4) 0.0904(3)
C2 C 0.8727(4) 0.1176(3) 0.1266(3)
C3 C 0.7754(5) 0.1014(3) 0.1101(3)
H1 H 0.7553 0.0682 0.0786
C4 C 0.7064(4) 0.1333(4) 0.1391(3)
C5 C 0.7402(5) 0.1811(4) 0.1875(4)
H2 H 0.6956 0.2022 0.2084
C6 C 0.8375(4) 0.1988(3) 0.2061(3)
C7 C 0.9043(5) 0.1654(3) 0.1752(3)
H3 H 0.9701 0.1754 0.1873
C8 C 0.8709(5) 0.2501(3) 0.2573(4)
C9 C 0.8133(5) 0.3058(4) 0.2631(4)
H4 H 0.7527 0.3095 0.2347
C10 C 0.8426(5) 0.3540(4) 0.3082(4)
H5 H 0.8031 0.3907 0.3102
C11 C 0.9332(5) 0.3488(4) 0.3524(3)
C12 C 0.9909(5) 0.2951(4) 0.3492(4)
C13 C 0.9607(5) 0.2453(4) 0.3015(4)
C14 C 0.9633(5) 0.4036(3) 0.4050(4)
C15 C 0.6033(7) 0.1148(5) 0.1223(5)
C16 C 0.5312(7) 0.1603(5) 0.1278(5)
H8 H 0.5494 0.2025 0.1441
C17 C 0.4323(8) 0.1450(5) 0.1097(5)
H9 H 0.3856 0.1764 0.1144
C18 C 0.4039(8) 0.0807(5) 0.0839(5)
C19 C 0.4731(7) 0.0436(5) 0.0715(6)
H10 H 0.4568 0.0042 0.0481
C20 C 0.5699(6) 0.0596(5) 0.0912(6)
H11 H 0.6152 0.0292 0.0819
C21 C 0.2982(6) 0.0651(5) 0.0641(4)
O2 O 0.9066(4) 0.4503(3) 0.4025(3)
O4 O 0.9110(4) 0.0396(3) 0.0490(3)
O5 O 0.2720(5) 0.0195(4) 0.0308(5)
O6 O 0.2384(5) 0.1029(5) 0.0797(5)
O7 O 0.9573(4) 0.6055(2) 0.5540(2)
O8 O 0.9700(3) 0.6029(3) 0.3974(3)
O10 O 0.9110(4) 0.4604(3) 0.5490(3)
O11 O 0.7280(5) 0.5195(4) 0.4692(5)
O12 O 0.7616(5) 0.6029(5) 0.4203(5)
Cd5 Cd 0.89706(3) 0.959812(19) 0.96585(2)
O7_2 O 0.0427(4) 0.1055(2) 0.9460(2)
C1_2 C 0.0569(5) 0.5838(4) 0.4096(3)
C2_2 C 0.1273(4) 0.6176(3) 0.3734(3)
C3_2 C 0.2246(5) 0.6014(3) 0.3899(3)
H1_2 H 0.2447 0.5682 0.4214
C4_2 C 0.2936(4) 0.6333(4) 0.3609(3)
C5_2 C 0.2598(5) 0.6811(4) 0.3125(4)
H2_2 H 0.3044 0.7022 0.2916
C6_2 C 0.1625(4) 0.6988(3) 0.2939(3)
C7_2 C 0.0957(5) 0.6654(3) 0.3248(3)
H3_2 H 0.0299 0.6754 0.3127
C8_2 C 0.1291(5) 0.7501(3) 0.2427(4)
C9_2 C 0.1867(5) 0.8058(4) 0.2369(4)
H4_2 H 0.2473 0.8095 0.2653
C10_2 C 0.1574(5) 0.8540(4) 0.1918(4)
H5_2 H 0.1969 0.8907 0.1898
C11_2 C 0.0668(5) 0.8488(4) 0.1476(3)
C12_2 C 0.0091(5) 0.7951(4) 0.1508(4)
C13_2 C 0.0393(5) 0.7453(4) 0.1985(4)
C14_2 C 0.0367(5) 0.9036(3) 0.0950(4)
C15_2 C 0.3967(7) 0.6148(5) 0.3777(5)
C16_2 C 0.4688(7) 0.6603(5) 0.3722(5)
H8_2 H 0.4506 0.7025 0.3559
C17_2 C 0.5677(8) 0.6450(5) 0.3903(5)
H9_2 H 0.6144 0.6764 0.3856
C18_2 C 0.5961(8) 0.5807(5) 0.4161(5)
C19_2 C 0.5269(7) 0.5436(5) 0.4285(6)
H10_2 H 0.5432 0.5042 0.4519
C20_2 C 0.4301(6) 0.5596(5) 0.4088(6)
H11_2 H 0.3848 0.5292 0.4181
C21_2 C 0.7018(6) 0.5651(5) 0.4359(4)
O2_2 O 0.0934(4) 0.9503(3) 0.0975(3)
O10_2 O 0.0890(4) 0.9604(3) 0.9510(3)
H6_2 H 0.9494 0.7915 0.1213
H7_2 H 0.9994 0.7089 0.2007
O1_2 O 0.9573(4) 0.8945(2) 0.0540(2)
C1_3 C 0.0569(5) 0.9162(4) 0.9096(3)
C2_3 C 0.1273(4) 0.8824(3) 0.8734(3)
C3_3 C 0.2246(5) 0.8986(3) 0.8899(3)
H1_3 H 0.2447 0.9318 0.9214
C4_3 C 0.2936(4) 0.8667(4) 0.8609(3)
C5_3 C 0.2598(5) 0.8189(4) 0.8125(4)
H2_3 H 0.3044 0.7978 0.7916
C6_3 C 0.1625(4) 0.8012(3) 0.7939(3)
C7_3 C 0.0957(5) 0.8346(3) 0.8248(3)
H3_3 H 0.0299 0.8246 0.8127
C8_3 C 0.1291(5) 0.7499(3) 0.7427(4)
C9_3 C 0.1867(5) 0.6942(4) 0.7369(4)
H4_3 H 0.2473 0.6905 0.7653
C10_3 C 0.1574(5) 0.6460(4) 0.6918(4)
H5_3 H 0.1969 0.6093 0.6898
C11_3 C 0.0668(5) 0.6512(4) 0.6476(3)
C12_3 C 0.0091(5) 0.7049(4) 0.6508(4)
C13_3 C 0.0393(5) 0.7547(4) 0.6985(4)
C14_3 C 0.0367(5) 0.5964(3) 0.5950(4)
C15_3 C 0.3967(7) 0.8852(5) 0.8777(5)
C16_3 C 0.4688(7) 0.8397(5) 0.8722(5)
H8_3 H 0.4506 0.7975 0.8559
C17_3 C 0.5677(8) 0.8550(5) 0.8903(5)
H9_3 H 0.6144 0.8236 0.8856
C18_3 C 0.5961(8) 0.9193(5) 0.9161(5)
C19_3 C 0.5269(7) 0.9564(5) 0.9285(6)
H10_3 H 0.5432 0.9958 0.9519
C20_3 C 0.4301(6) 0.9404(5) 0.9088(6)
H11_3 H 0.3848 0.9708 0.9181
C21_3 C 0.7018(6) 0.9349(5) 0.9359(4)
O2_3 O 0.0934(4) 0.5497(3) 0.5975(3)
O5_2 O 0.7280(5) 0.9805(4) 0.9692(5)
O6_2 O 0.7616(5) 0.8971(5) 0.9203(5)
O8_2 O 0.0300(3) 0.3971(3) 0.6026(3)
O11_2 O 0.2720(5) 0.4805(4) 0.5308(5)
O12_2 O 0.2384(5) 0.3971(5) 0.5797(5)
H6_3 H 0.9494 0.7085 0.6213
H7_3 H 0.9994 0.7911 0.7007
O3_2 O 0.9700(3) 0.8971(3) 0.8974(3)
H6_4 H 0.0506 0.2085 0.8787
H7_4 H 0.0006 0.2911 0.7993
C1_4 C 0.9431(5) 0.4162(4) 0.5904(3)
C2_4 C 0.8727(4) 0.3824(3) 0.6266(3)
C3_4 C 0.7754(5) 0.3986(3) 0.6101(3)
H1_4 H 0.7553 0.4318 0.5786
C4_4 C 0.7064(4) 0.3667(4) 0.6391(3)
C5_4 C 0.7402(5) 0.3189(4) 0.6875(4)
H2_4 H 0.6956 0.2978 0.7084
C6_4 C 0.8375(4) 0.3012(3) 0.7061(3)
C7_4 C 0.9043(5) 0.3346(3) 0.6752(3)
H3_4 H 0.9701 0.3246 0.6873
C8_4 C 0.8709(5) 0.2499(3) 0.7573(4)
C9_4 C 0.8133(5) 0.1942(4) 0.7631(4)
H4_4 H 0.7527 0.1905 0.7347
C10_4 C 0.8426(5) 0.1460(4) 0.8082(4)
H5_4 H 0.8031 0.1093 0.8102
C11_4 C 0.9332(5) 0.1512(4) 0.8524(3)
C12_4 C 0.9909(5) 0.2049(4) 0.8492(4)
C13_4 C 0.9607(5) 0.2547(4) 0.8015(4)
C14_4 C 0.9633(5) 0.0964(3) 0.9050(4)
C15_4 C 0.6033(7) 0.3852(5) 0.6223(5)
C16_4 C 0.5312(7) 0.3397(5) 0.6278(5)
H8_4 H 0.5494 0.2975 0.6441
C17_4 C 0.4323(8) 0.3550(5) 0.6097(5)
H9_4 H 0.3856 0.3236 0.6144
C18_4 C 0.4039(8) 0.4193(5) 0.5839(5)
C19_4 C 0.4731(7) 0.4564(5) 0.5715(6)
H10_4 H 0.4568 0.4958 0.5481
C20_4 C 0.5699(6) 0.4404(5) 0.5912(6)
H11_4 H 0.6152 0.4708 0.5819
C21_4 C 0.2982(6) 0.4349(5) 0.5641(4)
O2_4 O 0.9066(4) 0.0497(3) 0.9025(3)
loop_
_geom_bond_atom_site_label_1
_geom_bond_atom_site_label_2
_geom_bond_site_symmetry_1
_geom_bond_site_symmetry_2
Cd3 O3 1_555 1_555
Cd4 O1 1_555 1_555
Cd4 O9 1_555 1_555
Cd1 O2 1_555 1_555
C1 C2 1_555 1_555
C2 C3 1_555 1_555
C3 H1 1_555 1_555
C4 C3 1_555 1_555
C5 C4 1_555 1_555
H2 C5 1_555 1_555
C6 C5 1_555 1_555
C7 C2 1_555 1_555
H3 C7 1_555 1_555
C8 C6 1_555 1_555
C9 C8 1_555 1_555
H4 C9 1_555 1_555
C10 C9 1_555 1_555
H5 C10 1_555 1_555
C11 C10 1_555 1_555
C12 C11 1_555 1_555
C13 C8 1_555 1_555
C14 C11 1_555 1_555
C15 C4 1_555 1_555
C16 C15 1_555 1_555
H8 C16 1_555 1_555
C17 C16 1_555 1_555
H9 C17 1_555 1_555
C18 C17 1_555 1_555
C19 C18 1_555 1_555
H10 C19 1_555 1_555
C20 C15 1_555 1_555
H11 C20 1_555 1_555
C21 C18 1_555 1_555
O2 C14 1_555 1_555
O4 C1 1_555 1_555
O5 C21 1_555 1_555
O6 C21 1_555 1_555
Cd3 O5 1_555 1_555
O7 Cd1 1_555 1_555
O8 Cd1 1_555 1_555
O10 Cd1 1_555 1_555
O11 Cd1 1_555 1_555
O12 Cd1 1_555 1_555
C6 C7 1_555 1_555
C12 C13 1_555 1_555
C19 C20 1_555 1_555
O6 Cd3 1_555 1_555
C1_2 C2_2 1_555 1_555
C2_2 C3_2 1_555 1_555
C3_2 H1_2 1_555 1_555
C4_2 C3_2 1_555 1_555
C5_2 C4_2 1_555 1_555
H2_2 C5_2 1_555 1_555
C6_2 C5_2 1_555 1_555
C7_2 C2_2 1_555 1_555
H3_2 C7_2 1_555 1_555
C8_2 C6_2 1_555 1_555
C9_2 C8_2 1_555 1_555
H4_2 C9_2 1_555 1_555
C10_2 C9_2 1_555 1_555
H5_2 C10_2 1_555 1_555
C11_2 C10_2 1_555 1_555
C12_2 C11_2 1_555 1_555
C13_2 C8_2 1_555 1_555
C14_2 C11_2 1_555 1_555
C15_2 C4_2 1_555 1_555
C16_2 C15_2 1_555 1_555
H8_2 C16_2 1_555 1_555
C17_2 C16_2 1_555 1_555
H9_2 C17_2 1_555 1_555
C18_2 C17_2 1_555 1_555
C19_2 C18_2 1_555 1_555
H10_2 C19_2 1_555 1_555
C20_2 C15_2 1_555 1_555
H11_2 C20_2 1_555 1_555
C21_2 C18_2 1_555 1_555
O2_2 C14_2 1_555 1_555
O9 C1_2 1_555 1_555
O11 C21_2 1_555 1_555
O12 C21_2 1_555 1_555
C6_2 C7_2 1_555 1_555
C12_2 C13_2 1_555 1_555
C19_2 C20_2 1_555 1_555
Cd4 O2_3 1_555 1_555
C1_3 C2_3 1_555 1_555
C2_3 C3_3 1_555 1_555
C3_3 H1_3 1_555 1_555
C4_3 C3_3 1_555 1_555
C5_3 C4_3 1_555 1_555
H2_3 C5_3 1_555 1_555
C6_3 C5_3 1_555 1_555
C7_3 C2_3 1_555 1_555
H3_3 C7_3 1_555 1_555
C8_3 C6_3 1_555 1_555
C9_3 C8_3 1_555 1_555
H4_3 C9_3 1_555 1_555
C10_3 C9_3 1_555 1_555
H5_3 C10_3 1_555 1_555
C11_3 C10_3 1_555 1_555
C12_3 C11_3 1_555 1_555
C13_3 C8_3 1_555 1_555
C14_3 C11_3 1_555 1_555
C15_3 C4_3 1_555 1_555
C16_3 C15_3 1_555 1_555
H8_3 C16_3 1_555 1_555
C17_3 C16_3 1_555 1_555
H9_3 C17_3 1_555 1_555
C18_3 C17_3 1_555 1_555
C19_3 C18_3 1_555 1_555
H10_3 C19_3 1_555 1_555
C20_3 C15_3 1_555 1_555
H11_3 C20_3 1_555 1_555
C21_3 C18_3 1_555 1_555
O2_3 C14_3 1_555 1_555
O10_2 C1_3 1_555 1_555
O5_2 C21_3 1_555 1_555
O6_2 C21_3 1_555 1_555
Cd5 O5_2 1_555 1_555
O8_2 Cd4 1_555 1_555
O11_2 Cd4 1_555 1_555
O12_2 Cd4 1_555 1_555
C6_3 C7_3 1_555 1_555
C12_3 C13_3 1_555 1_555
C19_3 C20_3 1_555 1_555
O6_2 Cd5 1_555 1_555
Cd5 O3_2 1_555 1_555
C1_4 C2_4 1_555 1_555
C2_4 C3_4 1_555 1_555
C3_4 H1_4 1_555 1_555
C4_4 C3_4 1_555 1_555
C5_4 C4_4 1_555 1_555
H2_4 C5_4 1_555 1_555
C6_4 C5_4 1_555 1_555
C7_4 C2_4 1_555 1_555
H3_4 C7_4 1_555 1_555
C8_4 C6_4 1_555 1_555
C9_4 C8_4 1_555 1_555
H4_4 C9_4 1_555 1_555
C10_4 C9_4 1_555 1_555
H5_4 C10_4 1_555 1_555
C11_4 C10_4 1_555 1_555
C12_4 C11_4 1_555 1_555
C13_4 C8_4 1_555 1_555
C14_4 C11_4 1_555 1_555
C15_4 C4_4 1_555 1_555
C16_4 C15_4 1_555 1_555
H8_4 C16_4 1_555 1_555
C17_4 C16_4 1_555 1_555
H9_4 C17_4 1_555 1_555
C18_4 C17_4 1_555 1_555
C19_4 C18_4 1_555 1_555
H10_4 C19_4 1_555 1_555
C20_4 C15_4 1_555 1_555
H11_4 C20_4 1_555 1_555
C21_4 C18_4 1_555 1_555
O2_4 C14_4 1_555 1_555
O10 C1_4 1_555 1_555
O11_2 C21_4 1_555 1_555
O12_2 C21_4 1_555 1_555
C6_4 C7_4 1_555 1_555
C12_4 C13_4 1_555 1_555
C19_4 C20_4 1_555 1_555

#END
