
###############################################################################
#
# This file contains modified crystal structure data generated from the
# MOF subset of the Cambridge Structural Database (CSD) v543 
# hosted by the Cambridge Crystallographic Data Centre (CCDC).
#
# This work is licensed under the Creative Commons
# Attribution-NonCommercial-ShareAlike 4.0 International License.
# To view a copy of this license, visit
# http://creativecommons.org/licenses/by-nc-sa/4.0/
# or send a letter to
# Creative Commons, PO Box 1866, Mountain View, CA 94042, USA.
#
# CIF created using the CSD Python API on 29 September 2022
# The structure has been converted into the P1 space group
# The structure has a 3D framework
# The original CSD entry SOMPES is in the monoclinic crystal system
# The framework has been calculated to contain at least 10.0% void space
# The void calculation uses a probe of radius 1.32A, grid spacing 0.4
# H atom positions have been added when not included in the experimental data
#
###############################################################################

data_SOMPES
_chemical_formula_moiety         '(C52 H36 N4 O20 Zn4)n'
_symmetry_cell_setting           triclinic
_symmetry_space_group_name_H-M   'P 1'
_symmetry_Int_Tables_number      1
_space_group_name_Hall           'P 1'
loop_
_symmetry_equiv_pos_site_id
_symmetry_equiv_pos_as_xyz
1 x,y,z
_cell_length_a                   19.703(2)
_cell_length_b                   8.7179(14)
_cell_length_c                   11.8878(14)
_cell_angle_alpha                90
_cell_angle_beta                 121.741(3)
_cell_angle_gamma                90
_cell_volume                     1736.55
loop_
_atom_site_label
_atom_site_type_symbol
_atom_site_fract_x
_atom_site_fract_y
_atom_site_fract_z
Zn1 Zn 0.76416(4) 0.42409(6) 0.64198(5)
O1 O 0.7023(3) 0.5127(6) 0.4114(5)
O2 O 0.3867(6) 0.0844(8) 0.1906(9)
O3 O 0.6498(3) 0.3743(7) 0.5015(5)
C1 C 0.6481(4) 0.4300(6) 0.4043(6)
C2 C 0.5749(4) 0.3987(7) 0.2693(6)
C3 C 0.5109(4) 0.3160(7) 0.2550(6)
H1 H 0.5145 0.2752 0.3303
C4 C 0.4358(4) 0.3482(7) 0.0168(6)
C5 C 0.5690(4) 0.4556(8) 0.1547(6)
H2 H 0.6111 0.5114 0.1609
C6 C 0.5013(5) 0.4299(7) 0.0321(7)
C7 C 0.4417(4) 0.2912(7) 0.1339(6)
O4 O 0.3079(4) 0.2710(10) 0.0764(9)
C13 C 0.3727(5) 0.2112(9) 0.1298(7)
O5 O 0.7678(3) 0.3225(5) 0.8002(5)
H8 H 0.8143 0.3047 0.8578
Zn3 Zn 0.26416(4) 0.07591(6) 0.14198(5)
O6 O 0.8867(6) 0.4156(8) 0.6906(9)
N2 N 0.7790(3) 0.6488(6) 0.7133(5)
O7 O 0.8079(4) 0.2290(10) 0.5764(9)
H9 H 0.737275 0.224909 0.771531
Zn1_2 Zn 0.76416(4) 0.57591(6) 0.14198(5)
O3_2 O 0.6498(3) 0.6257(7) 0.0015(5)
O5_2 O 0.7678(3) 0.6775(5) 0.3002(5)
H8_2 H 0.8143 0.6953 0.3578
O6_2 O 0.8867(6) 0.5844(8) 0.1906(9)
N2_2 N 0.7790(3) 0.3512(6) 0.2133(5)
O7_2 O 0.8079(4) 0.7710(10) 0.0764(9)
H9_2 H 0.737275 0.775091 0.271531
C4_2 C 0.9358(4) 0.8482(7) 0.0168(6)
C7_2 C 0.9417(4) 0.7912(7) 0.1339(6)
C13_2 C 0.8727(5) 0.7112(9) 0.1298(7)
H3 H 0.9992 0.9681 0.9573
C8 C 0.7642(7) 0.9151(8) 0.6703(9)
H4 H 0.7353 0.9955 0.6137
C9 C 0.8294(5) 0.9440(8) 0.7958(8)
C10 C 0.8657(3) 0.8240(7) 0.8837(5)
C11 C 0.8387(3) 0.6768(6) 0.8352(6)
H6 H 0.8639 0.5940 0.8914
C12 C 0.7434(4) 0.7681(9) 0.6317(7)
H7 H 0.7027 0.7487 0.5449
O3_3 O 0.1498(3) 0.1257(7) 0.0015(5)
O5_3 O 0.2678(3) 0.1775(5) 0.3002(5)
H8_3 H 0.3143 0.1953 0.3578
H9_3 H 0.237275 0.275091 0.271531
C4_3 C 0.9358(4) 0.1518(7) 0.5168(6)
H3_2 H 0.9992 0.0319 0.4573
C7_3 C 0.9417(4) 0.2088(7) 0.6339(6)
C8_2 C 0.7642(7) 0.0849(8) 0.1703(9)
H4_2 H 0.7353 0.0045 0.1137
C9_2 C 0.8294(5) 0.0560(8) 0.2958(8)
C10_2 C 0.8657(3) 0.1760(7) 0.3837(5)
C11_2 C 0.8387(3) 0.3232(6) 0.3352(6)
H6_2 H 0.8639 0.4060 0.3914
C12_2 C 0.7434(4) 0.2319(9) 0.1317(7)
H7_2 H 0.7027 0.2513 0.0449
C13_3 C 0.8727(5) 0.2888(9) 0.6298(7)
H3_3 H 0.4992 0.4681 0.9573
C8_3 C 0.2642(7) 0.4151(8) 0.6703(9)
H4_3 H 0.2353 0.4955 0.6137
C9_3 C 0.3294(5) 0.4440(8) 0.7958(8)
H5 H 0.3485 0.5435 0.8207
C10_3 C 0.3657(3) 0.3240(7) 0.8837(5)
C11_3 C 0.3387(3) 0.1768(6) 0.8352(6)
H6_3 H 0.3639 0.0940 0.8914
N1 N 0.2790(3) 0.1488(6) 0.7133(5)
C12_3 C 0.2434(4) 0.2681(9) 0.6317(7)
H7_3 H 0.2027 0.2487 0.5449
O1_2 O 0.2023(3) 0.0127(6) 0.4114(5)
H2_2 H 0.1111 0.0114 0.1609
Zn2 Zn 0.26416(4) 0.92409(6) 0.64198(5)
O1_3 O 0.7023(3) 0.4873(6) 0.9114(5)
O2_2 O 0.3867(6) 0.9156(8) 0.6906(9)
C1_2 C 0.6481(4) 0.5700(6) 0.9043(6)
C2_2 C 0.5749(4) 0.6013(7) 0.7693(6)
C3_2 C 0.5109(4) 0.6840(7) 0.7550(6)
H1_2 H 0.5145 0.7248 0.8303
C4_4 C 0.4358(4) 0.6518(7) 0.5168(6)
C5_2 C 0.5690(4) 0.5444(8) 0.6547(6)
H2_3 H 0.6111 0.4886 0.6609
C6_2 C 0.5013(5) 0.5701(7) 0.5321(7)
H3_4 H 0.4992 0.5319 0.4573
C7_4 C 0.4417(4) 0.7088(7) 0.6339(6)
C8_4 C 0.2642(7) 0.5849(8) 0.1703(9)
H4_4 H 0.2353 0.5045 0.1137
C9_4 C 0.3294(5) 0.5560(8) 0.2958(8)
H5_2 H 0.3485 0.4565 0.3207
C10_4 C 0.3657(3) 0.6760(7) 0.3837(5)
C11_4 C 0.3387(3) 0.8232(6) 0.3352(6)
H6_4 H 0.3639 0.9060 0.3914
N1_2 N 0.2790(3) 0.8512(6) 0.2133(5)
O4_2 O 0.3079(4) 0.7290(10) 0.5764(9)
C12_4 C 0.2434(4) 0.7319(9) 0.1317(7)
H7_4 H 0.2027 0.7513 0.0449
C13_4 C 0.3727(5) 0.7888(9) 0.6298(7)
O3_4 O 0.1498(3) 0.8743(7) 0.5015(5)
C1_3 C 0.1481(4) 0.9300(6) 0.4043(6)
C2_3 C 0.0749(4) 0.8987(7) 0.2693(6)
C3_3 C 0.0109(4) 0.8160(7) 0.2550(6)
H1_3 H 0.0145 0.7752 0.3303
C5_3 C 0.0690(4) 0.9556(8) 0.1547(6)
C6_3 C 0.0013(5) 0.9299(7) 0.0321(7)
O5_4 O 0.2678(3) 0.8225(5) 0.8002(5)
H8_4 H 0.3143 0.8047 0.8578
H9_4 H 0.237275 0.724909 0.771531
H5_3 H 0.8485 0.0435 0.8207
C1_4 C 0.1481(4) 0.0700(6) 0.9043(6)
C2_4 C 0.0749(4) 0.1013(7) 0.7693(6)
C3_4 C 0.0109(4) 0.1840(7) 0.7550(6)
H1_4 H 0.0145 0.2248 0.8303
C5_4 C 0.0690(4) 0.0444(8) 0.6547(6)
C6_4 C 0.0013(5) 0.0701(7) 0.5321(7)
O1_4 O 0.2023(3) 0.9873(6) 0.9114(5)
H2_4 H 0.1111 0.9886 0.6609
H5_4 H 0.8485 0.9565 0.3207
loop_
_geom_bond_atom_site_label_1
_geom_bond_atom_site_label_2
_geom_bond_site_symmetry_1
_geom_bond_site_symmetry_2
Zn1 O1 1_555 1_555
O1 C1 1_555 1_555
O2 C13 1_555 1_555
O3 Zn1 1_555 1_555
C1 O3 1_555 1_555
C2 C1 1_555 1_555
C3 C2 1_555 1_555
H1 C3 1_555 1_555
C4 C6 1_555 1_555
C5 C2 1_555 1_555
H2 C5 1_555 1_555
C6 C5 1_555 1_555
C7 C3 1_555 1_555
O4 C13 1_555 1_555
C13 C7 1_555 1_555
O5 Zn1 1_555 1_555
H8 O5 1_555 1_555
Zn3 O2 1_555 1_555
O6 Zn1 1_555 1_555
N2 Zn1 1_555 1_555
O7 Zn1 1_555 1_555
C4 C7 1_555 1_555
O4 Zn3 1_555 1_555
O5 H9 1_555 1_555
O3_2 Zn1_2 1_555 1_555
O5_2 Zn1_2 1_555 1_555
H8_2 O5_2 1_555 1_555
O6_2 Zn1_2 1_555 1_555
N2_2 Zn1_2 1_555 1_555
O7_2 Zn1_2 1_555 1_555
O5_2 H9_2 1_555 1_555
O6_2 C13_2 1_555 1_555
O7_2 C13_2 1_555 1_555
C13_2 C7_2 1_555 1_555
C4_2 C7_2 1_555 1_555
C8 H4 1_555 1_555
C9 C8 1_555 1_555
C11 C10 1_555 1_555
H6 C11 1_555 1_555
N2 C11 1_555 1_555
C12 C8 1_555 1_555
H7 C12 1_555 1_555
C9 C10 1_555 1_555
N2 C12 1_555 1_555
O3_3 Zn3 1_555 1_555
O5_3 Zn3 1_555 1_555
H8_3 O5_3 1_555 1_555
O5_3 H9_3 1_555 1_555
O6 C13_3 1_555 1_555
C8_2 H4_2 1_555 1_555
C9_2 C8_2 1_555 1_555
C10_2 C4_3 1_555 1_555
C11_2 C10_2 1_555 1_555
H6_2 C11_2 1_555 1_555
N2_2 C11_2 1_555 1_555
O7 C13_3 1_555 1_555
C12_2 C8_2 1_555 1_555
H7_2 C12_2 1_555 1_555
C13_3 C7_3 1_555 1_555
C4_3 C7_3 1_555 1_555
C9_2 C10_2 1_555 1_555
N2_2 C12_2 1_555 1_555
C8_3 H4_3 1_555 1_555
C9_3 C8_3 1_555 1_555
H5 C9_3 1_555 1_555
C11_3 C10_3 1_555 1_555
H6_3 C11_3 1_555 1_555
N1 C11_3 1_555 1_555
C12_3 C8_3 1_555 1_555
H7_3 C12_3 1_555 1_555
C9_3 C10_3 1_555 1_555
N1 C12_3 1_555 1_555
O1_3 C1_2 1_555 1_555
O2_2 C13_4 1_555 1_555
C2_2 C1_2 1_555 1_555
C3_2 C2_2 1_555 1_555
H1_2 C3_2 1_555 1_555
C4_4 C6_2 1_555 1_555
C5_2 C2_2 1_555 1_555
H2_3 C5_2 1_555 1_555
C6_2 C5_2 1_555 1_555
H3_4 C6_2 1_555 1_555
C7_4 C3_2 1_555 1_555
C8_4 H4_4 1_555 1_555
C9_4 C8_4 1_555 1_555
H5_2 C9_4 1_555 1_555
C10_4 C4_4 1_555 1_555
C11_4 C10_4 1_555 1_555
H6_4 C11_4 1_555 1_555
N1_2 C11_4 1_555 1_555
O4_2 C13_4 1_555 1_555
C12_4 C8_4 1_555 1_555
H7_4 C12_4 1_555 1_555
C13_4 C7_4 1_555 1_555
Zn2 O2_2 1_555 1_555
C4_4 C7_4 1_555 1_555
C9_4 C10_4 1_555 1_555
N1_2 C12_4 1_555 1_555
O4_2 Zn2 1_555 1_555
O3_4 Zn2 1_555 1_555
C1_3 O3_4 1_555 1_555
C2_3 C1_3 1_555 1_555
C3_3 C2_3 1_555 1_555
H1_3 C3_3 1_555 1_555
C5_3 C2_3 1_555 1_555
C6_3 C5_3 1_555 1_555
O5_4 Zn2 1_555 1_555
H8_4 O5_4 1_555 1_555
O5_4 H9_4 1_555 1_555
C2_4 C1_4 1_555 1_555
C3_4 C2_4 1_555 1_555
H1_4 C3_4 1_555 1_555
C5_4 C2_4 1_555 1_555
C6_4 C5_4 1_555 1_555

#END
