
###############################################################################
#
# This file contains modified crystal structure data generated from the
# MOF subset of the Cambridge Structural Database (CSD) v543 
# hosted by the Cambridge Crystallographic Data Centre (CCDC).
#
# This work is licensed under the Creative Commons
# Attribution-NonCommercial-ShareAlike 4.0 International License.
# To view a copy of this license, visit
# http://creativecommons.org/licenses/by-nc-sa/4.0/
# or send a letter to
# Creative Commons, PO Box 1866, Mountain View, CA 94042, USA.
#
# CIF created using the CSD Python API on 29 September 2022
# The structure has been converted into the P1 space group
# The structure has a 3D framework
# The original CSD entry SOQGUD is in the monoclinic crystal system
# The framework has been calculated to contain at least 10.0% void space
# The void calculation uses a probe of radius 1.32A, grid spacing 0.4
#
###############################################################################

data_SOQGUD
_chemical_formula_moiety         '(C144 H96 N8 O32 Zn8)n'
_symmetry_cell_setting           triclinic
_symmetry_space_group_name_H-M   'P 1'
_symmetry_Int_Tables_number      1
_space_group_name_Hall           'P 1'
loop_
_symmetry_equiv_pos_site_id
_symmetry_equiv_pos_as_xyz
1 x,y,z
_cell_length_a                   16.556(8)
_cell_length_b                   14.296(7)
_cell_length_c                   16.325(8)
_cell_angle_alpha                90
_cell_angle_beta                 97.679(12)
_cell_angle_gamma                90
_cell_volume                     3829.23
loop_
_atom_site_label
_atom_site_type_symbol
_atom_site_fract_x
_atom_site_fract_y
_atom_site_fract_z
Zn8 Zn 0.01212(10) 0.30040(9) 0.84233(8)
O3 O 0.9208(6) 0.2036(6) 0.8161(6)
O4 O 0.9096(7) 0.2006(7) 0.6792(6)
C3 C 0.7146(9) 0.0380(11) 0.8181(8)
H1 H 0.686153 0.039397 0.863565
C4 C 0.7806(10) 0.0999(10) 0.8144(9)
H2 H 0.796567 0.139886 0.858500
C5 C 0.8224(8) 0.1019(10) 0.7449(7)
C6 C 0.8004(11) 0.0363(11) 0.6812(10)
C11 C 0.8442(13) 0.0308(11) 0.6104(9)
H6 H 0.885590 0.073779 0.605865
C12 C 0.8888(8) 0.1720(9) 0.7431(9)
Zn6 Zn 0.98788(10) 0.30040(9) 0.65767(8)
O7 O 0.0792(6) 0.2036(6) 0.6839(6)
O8 O 0.0904(7) 0.2006(7) 0.8208(6)
C27 C 0.2854(9) 0.0380(11) 0.6819(8)
H19 H 0.313847 0.039397 0.636435
C28 C 0.2194(10) 0.0999(10) 0.6856(9)
H20 H 0.203433 0.139886 0.641500
C29 C 0.1776(8) 0.1019(10) 0.7551(7)
C30 C 0.1996(11) 0.0363(11) 0.8188(10)
C35 C 0.1558(13) 0.0308(11) 0.8896(9)
H24 H 0.114410 0.073779 0.894135
C36 C 0.1112(8) 0.1720(9) 0.7569(9)
Zn1 Zn 0.48788(10) 0.80040(9) 0.65767(8)
O1 O 0.6022(6) 0.8947(6) 0.8329(5)
O2 O 0.5724(6) 0.8997(7) 0.6961(5)
N1 N 0.4908(8) 0.8066(8) 0.5364(6)
C1 C 0.6187(8) 0.9191(8) 0.7605(8)
C2 C 0.6924(9) 0.9761(9) 0.7554(7)
C7 C 0.7343(8) 0.9719(10) 0.6858(8)
C8 C 0.7196(9) 0.9035(11) 0.6237(9)
H3 H 0.681212 0.857449 0.630169
C9 C 0.7573(13) 0.8999(13) 0.5550(12)
H4 H 0.740864 0.858362 0.512159
C10 C 0.8276(15) 0.9668(15) 0.5515(13)
H5 H 0.859002 0.963167 0.508464
C13 C 0.5407(12) 0.7470(14) 0.4976(10)
H7 H 0.569693 0.701641 0.530126
C14 C 0.5506(12) 0.7499(14) 0.4146(10)
H8 H 0.580368 0.704563 0.390907
C15 C 0.5128(16) 0.8258(18) 0.3672(7)
C16 C 0.4686(11) 0.8849(13) 0.4039(10)
H9 H 0.441791 0.933364 0.373462
C17 C 0.4607(11) 0.8760(12) 0.4911(10)
H10 H 0.432733 0.922419 0.515599
C18 C 0.534160 0.837660 0.283529
H11 H 0.571251 0.787811 0.273220
H12 H 0.563365 0.896265 0.281568
C19 C 0.4593(12) 0.7470(14) 0.0024(10)
C20 C 0.4494(12) 0.7499(14) 0.0854(10)
H14 H 0.419632 0.704563 0.109093
C21 C 0.4872(16) 0.8258(18) 0.1328(7)
C22 C 0.5314(11) 0.8849(13) 0.0961(10)
H15 H 0.558209 0.933364 0.126538
C23 C 0.5393(11) 0.8760(12) 0.0089(10)
C24 C 0.465840 0.837660 0.216471
H17 H 0.428749 0.787811 0.226780
H18 H 0.436635 0.896265 0.218432
Zn4 Zn 0.51212(10) 0.80040(9) 0.84233(8)
O10 O 0.3978(6) 0.8947(6) 0.6671(5)
O12 O 0.5792(6) 0.7036(6) 0.6839(6)
O13 O 0.4096(7) 0.7006(7) 0.6792(6)
N2 N 0.5092(8) 0.8066(8) 0.9636(6)
H13 H 0.430307 0.701641 0.969874
H16 H 0.567267 0.922419 0.984401
O6 O 0.4276(6) 0.8997(7) 0.8039(5)
C25 C 0.3813(8) 0.9191(8) 0.7395(8)
C26 C 0.3076(9) 0.9761(9) 0.7446(7)
C31 C 0.2657(8) 0.9719(10) 0.8142(8)
C32 C 0.2804(9) 0.9035(11) 0.8763(9)
H21 H 0.318788 0.857449 0.869831
C33 C 0.2427(13) 0.8999(13) 0.9450(12)
H22 H 0.259136 0.858362 0.987841
C34 C 0.1724(15) 0.9668(15) 0.9485(13)
H23 H 0.140998 0.963167 0.991536
O11 O 0.4208(6) 0.7036(6) 0.8161(6)
O14 O 0.5904(7) 0.7006(7) 0.8208(6)
O1_2 O 0.1022(6) 0.3947(6) 0.8329(5)
O2_2 O 0.0724(6) 0.3997(7) 0.6961(5)
C1_2 C 0.1187(8) 0.4191(8) 0.7605(8)
C2_2 C 0.1924(9) 0.4761(9) 0.7554(7)
C3_2 C 0.2146(9) 0.5380(11) 0.8181(8)
H1_2 H 0.186153 0.539397 0.863565
C4_2 C 0.2806(10) 0.5999(10) 0.8144(9)
H2_2 H 0.296567 0.639886 0.858500
C5_2 C 0.3224(8) 0.6019(10) 0.7449(7)
C6_2 C 0.3004(11) 0.5363(11) 0.6812(10)
C7_2 C 0.2343(8) 0.4719(10) 0.6858(8)
C8_2 C 0.2196(9) 0.4035(11) 0.6237(9)
H3_2 H 0.181212 0.357449 0.630169
C9_2 C 0.2573(13) 0.3999(13) 0.5550(12)
H4_2 H 0.240864 0.358362 0.512159
C10_2 C 0.3276(15) 0.4668(15) 0.5515(13)
H5_2 H 0.359002 0.463167 0.508464
C11_2 C 0.3442(13) 0.5308(11) 0.6104(9)
H6_2 H 0.385590 0.573779 0.605865
C12_2 C 0.3888(8) 0.6720(9) 0.7431(9)
C13_2 C 0.0407(12) 0.2470(14) 0.4976(10)
H7_2 H 0.069693 0.201641 0.530126
C14_2 C 0.0506(12) 0.2499(14) 0.4146(10)
H8_2 H 0.080368 0.204563 0.390907
C15_2 C 0.0128(16) 0.3258(18) 0.3672(7)
C18_2 C 0.034160 0.337660 0.283529
H11_2 H 0.071251 0.287811 0.273220
H12_2 H 0.063365 0.396265 0.281568
C22_2 C 0.0314(11) 0.3849(13) 0.0961(10)
H15_2 H 0.058209 0.433364 0.126538
C23_2 C 0.0393(11) 0.3760(12) 0.0089(10)
N2_2 N 0.0092(8) 0.3066(8) 0.9636(6)
H16_2 H 0.067267 0.422419 0.984401
N1_2 N 0.9908(8) 0.3066(8) 0.5364(6)
C16_2 C 0.9686(11) 0.3849(13) 0.4039(10)
H9_2 H 0.941791 0.433364 0.373462
C17_2 C 0.9607(11) 0.3760(12) 0.4911(10)
H10_2 H 0.932733 0.422419 0.515599
C19_2 C 0.9593(12) 0.2470(14) 0.0024(10)
C20_2 C 0.9494(12) 0.2499(14) 0.0854(10)
H14_2 H 0.919632 0.204563 0.109093
C21_2 C 0.9872(16) 0.3258(18) 0.1328(7)
C24_2 C 0.965840 0.337660 0.216471
H17_2 H 0.928749 0.287811 0.226780
H18_2 H 0.936635 0.396265 0.218432
O10_2 O 0.8978(6) 0.3947(6) 0.6671(5)
H13_2 H 0.930307 0.201641 0.969874
O6_2 O 0.9276(6) 0.3997(7) 0.8039(5)
C25_2 C 0.8813(8) 0.4191(8) 0.7395(8)
C26_2 C 0.8076(9) 0.4761(9) 0.7446(7)
C27_2 C 0.7854(9) 0.5380(11) 0.6819(8)
H19_2 H 0.813847 0.539397 0.636435
C28_2 C 0.7194(10) 0.5999(10) 0.6856(9)
H20_2 H 0.703433 0.639886 0.641500
C29_2 C 0.6776(8) 0.6019(10) 0.7551(7)
C30_2 C 0.6996(11) 0.5363(11) 0.8188(10)
C31_2 C 0.7657(8) 0.4719(10) 0.8142(8)
C32_2 C 0.7804(9) 0.4035(11) 0.8763(9)
H21_2 H 0.818788 0.357449 0.869831
C33_2 C 0.7427(13) 0.3999(13) 0.9450(12)
H22_2 H 0.759136 0.358362 0.987841
C34_2 C 0.6724(15) 0.4668(15) 0.9485(13)
H23_2 H 0.640998 0.463167 0.991536
C35_2 C 0.6558(13) 0.5308(11) 0.8896(9)
H24_2 H 0.614410 0.573779 0.894135
C36_2 C 0.6112(8) 0.6720(9) 0.7569(9)
Zn5 Zn 0.01212(10) 0.69960(9) 0.34233(8)
N2_3 N 0.4908(8) 0.1934(8) 0.0364(6)
H13_3 H 0.569693 0.298359 0.030126
H16_3 H 0.432733 0.077581 0.015599
Zn2 Zn 0.48788(10) 0.19960(9) 0.15767(8)
O5 O 0.6022(6) 0.1053(6) 0.3329(5)
O6_3 O 0.5724(6) 0.1003(7) 0.1961(5)
C25_3 C 0.6187(8) 0.0809(8) 0.2605(8)
C26_3 C 0.6924(9) 0.0239(9) 0.2554(7)
C31_3 C 0.7343(8) 0.0281(10) 0.1858(8)
C32_3 C 0.7196(9) 0.0965(11) 0.1237(9)
H21_3 H 0.681212 0.142551 0.130169
C33_3 C 0.7573(13) 0.1001(13) 0.0550(12)
H22_3 H 0.740864 0.141638 0.012159
C34_3 C 0.8276(15) 0.0332(15) 0.0515(13)
H23_3 H 0.859002 0.036833 0.008464
Zn3 Zn 0.51212(10) 0.19960(9) 0.34233(8)
O9 O 0.3978(6) 0.1053(6) 0.1671(5)
O11_2 O 0.5792(6) 0.2964(6) 0.1839(6)
O14_2 O 0.4096(7) 0.2994(7) 0.1792(6)
O2_3 O 0.4276(6) 0.1003(7) 0.3039(5)
N1_3 N 0.5092(8) 0.1934(8) 0.4636(6)
C1_3 C 0.3813(8) 0.0809(8) 0.2395(8)
C2_3 C 0.3076(9) 0.0239(9) 0.2446(7)
C7_3 C 0.2657(8) 0.0281(10) 0.3142(8)
C8_3 C 0.2804(9) 0.0965(11) 0.3763(9)
H3_3 H 0.318788 0.142551 0.369831
C9_3 C 0.2427(13) 0.1001(13) 0.4450(12)
H4_3 H 0.259136 0.141638 0.487841
C10_3 C 0.1724(15) 0.0332(15) 0.4485(13)
H5_3 H 0.140998 0.036833 0.491536
C13_3 C 0.4593(12) 0.2530(14) 0.5024(10)
H7_3 H 0.430307 0.298359 0.469874
C14_3 C 0.4494(12) 0.2501(14) 0.5854(10)
H8_3 H 0.419632 0.295437 0.609093
C15_3 C 0.4872(16) 0.1742(18) 0.6328(7)
C16_3 C 0.5314(11) 0.1151(13) 0.5961(10)
H9_3 H 0.558209 0.066636 0.626538
C17_3 C 0.5393(11) 0.1240(12) 0.5089(10)
H10_3 H 0.567267 0.077581 0.484401
C18_3 C 0.465840 0.162340 0.716471
H11_3 H 0.428749 0.212189 0.726780
H12_3 H 0.436635 0.103735 0.718432
C19_3 C 0.5407(12) 0.2530(14) 0.9976(10)
C20_3 C 0.5506(12) 0.2501(14) 0.9146(10)
H14_3 H 0.580368 0.295437 0.890907
C21_3 C 0.5128(16) 0.1742(18) 0.8672(7)
C22_3 C 0.4686(11) 0.1151(13) 0.9039(10)
H15_3 H 0.441791 0.066636 0.873462
C23_3 C 0.4607(11) 0.1240(12) 0.9911(10)
C24_3 C 0.534160 0.162340 0.783529
H17_3 H 0.571251 0.212189 0.773220
H18_3 H 0.563365 0.103735 0.781568
O12_2 O 0.4208(6) 0.2964(6) 0.3161(6)
O13_2 O 0.5904(7) 0.2994(7) 0.3208(6)
O7_2 O 0.9208(6) 0.7964(6) 0.3161(6)
O8_2 O 0.9096(7) 0.7994(7) 0.1792(6)
C27_3 C 0.7146(9) 0.9620(11) 0.3181(8)
H19_3 H 0.686153 0.960603 0.363565
C28_3 C 0.7806(10) 0.9001(10) 0.3144(9)
H20_3 H 0.796567 0.860114 0.358500
C29_3 C 0.8224(8) 0.8981(10) 0.2449(7)
C30_3 C 0.8004(11) 0.9637(11) 0.1812(10)
C35_3 C 0.8442(13) 0.9692(11) 0.1104(9)
H24_3 H 0.885590 0.926221 0.105865
C36_3 C 0.8888(8) 0.8280(9) 0.2431(9)
Zn7 Zn 0.98788(10) 0.69960(9) 0.15767(8)
O3_2 O 0.0792(6) 0.7964(6) 0.1839(6)
O4_2 O 0.0904(7) 0.7994(7) 0.3208(6)
C3_3 C 0.2854(9) 0.9620(11) 0.1819(8)
H1_3 H 0.313847 0.960603 0.136435
C4_3 C 0.2194(10) 0.9001(10) 0.1856(9)
H2_3 H 0.203433 0.860114 0.141500
C5_3 C 0.1776(8) 0.8981(10) 0.2551(7)
C6_3 C 0.1996(11) 0.9637(11) 0.3188(10)
C11_3 C 0.1558(13) 0.9692(11) 0.3896(9)
H6_3 H 0.114410 0.926221 0.394135
C12_3 C 0.1112(8) 0.8280(9) 0.2569(9)
H13_4 H 0.069693 0.798359 0.030126
O5_2 O 0.1022(6) 0.6053(6) 0.3329(5)
O6_4 O 0.0724(6) 0.6003(7) 0.1961(5)
C25_4 C 0.1187(8) 0.5809(8) 0.2605(8)
C26_4 C 0.1924(9) 0.5239(9) 0.2554(7)
C27_4 C 0.2146(9) 0.4620(11) 0.3181(8)
H19_4 H 0.186153 0.460603 0.363565
C28_4 C 0.2806(10) 0.4001(10) 0.3144(9)
H20_4 H 0.296567 0.360114 0.358500
C29_4 C 0.3224(8) 0.3981(10) 0.2449(7)
C30_4 C 0.3004(11) 0.4637(11) 0.1812(10)
C31_4 C 0.2343(8) 0.5281(10) 0.1858(8)
C32_4 C 0.2196(9) 0.5965(11) 0.1237(9)
H21_4 H 0.181212 0.642551 0.130169
C33_4 C 0.2573(13) 0.6001(13) 0.0550(12)
H22_4 H 0.240864 0.641638 0.012159
C34_4 C 0.3276(15) 0.5332(15) 0.0515(13)
H23_4 H 0.359002 0.536833 0.008464
C35_4 C 0.3442(13) 0.4692(11) 0.1104(9)
H24_4 H 0.385590 0.426221 0.105865
C36_4 C 0.3888(8) 0.3280(9) 0.2431(9)
N1_4 N 0.0092(8) 0.6934(8) 0.4636(6)
C16_4 C 0.0314(11) 0.6151(13) 0.5961(10)
H9_4 H 0.058209 0.566636 0.626538
C17_4 C 0.0393(11) 0.6240(12) 0.5089(10)
H10_4 H 0.067267 0.577581 0.484401
C19_4 C 0.0407(12) 0.7530(14) 0.9976(10)
C20_4 C 0.0506(12) 0.7501(14) 0.9146(10)
H14_4 H 0.080368 0.795437 0.890907
C21_4 C 0.0128(16) 0.6742(18) 0.8672(7)
C24_4 C 0.034160 0.662340 0.783529
H17_4 H 0.071251 0.712189 0.773220
H18_4 H 0.063365 0.603735 0.781568
N2_4 N 0.9908(8) 0.6934(8) 0.0364(6)
H16_4 H 0.932733 0.577581 0.015599
O9_2 O 0.8978(6) 0.6053(6) 0.1671(5)
O2_4 O 0.9276(6) 0.6003(7) 0.3039(5)
C1_4 C 0.8813(8) 0.5809(8) 0.2395(8)
C2_4 C 0.8076(9) 0.5239(9) 0.2446(7)
C3_4 C 0.7854(9) 0.4620(11) 0.1819(8)
H1_4 H 0.813847 0.460603 0.136435
C4_4 C 0.7194(10) 0.4001(10) 0.1856(9)
H2_4 H 0.703433 0.360114 0.141500
C5_4 C 0.6776(8) 0.3981(10) 0.2551(7)
C6_4 C 0.6996(11) 0.4637(11) 0.3188(10)
C7_4 C 0.7657(8) 0.5281(10) 0.3142(8)
C8_4 C 0.7804(9) 0.5965(11) 0.3763(9)
H3_4 H 0.818788 0.642551 0.369831
C9_4 C 0.7427(13) 0.6001(13) 0.4450(12)
H4_4 H 0.759136 0.641638 0.487841
C10_4 C 0.6724(15) 0.5332(15) 0.4485(13)
H5_4 H 0.640998 0.536833 0.491536
C11_4 C 0.6558(13) 0.4692(11) 0.3896(9)
H6_4 H 0.614410 0.426221 0.394135
C12_4 C 0.6112(8) 0.3280(9) 0.2569(9)
C13_4 C 0.9593(12) 0.7530(14) 0.5024(10)
H7_4 H 0.930307 0.798359 0.469874
C14_4 C 0.9494(12) 0.7501(14) 0.5854(10)
H8_4 H 0.919632 0.795437 0.609093
C15_4 C 0.9872(16) 0.6742(18) 0.6328(7)
C18_4 C 0.965840 0.662340 0.716471
H11_4 H 0.928749 0.712189 0.726780
H12_4 H 0.936635 0.603735 0.718432
C22_4 C 0.9686(11) 0.6151(13) 0.9039(10)
H15_4 H 0.941791 0.566636 0.873462
C23_4 C 0.9607(11) 0.6240(12) 0.9911(10)
loop_
_geom_bond_atom_site_label_1
_geom_bond_atom_site_label_2
_geom_bond_site_symmetry_1
_geom_bond_site_symmetry_2
O3 C12 1_555 1_555
O4 C12 1_555 1_555
C3 H1 1_555 1_555
C4 C3 1_555 1_555
H2 C4 1_555 1_555
C5 C4 1_555 1_555
C6 C5 1_555 1_555
C11 C6 1_555 1_555
H6 C11 1_555 1_555
C12 C5 1_555 1_555
Zn6 O4 1_555 1_555
O7 C36 1_555 1_555
O8 C36 1_555 1_555
H19 C27 1_555 1_555
C28 C27 1_555 1_555
H20 C28 1_555 1_555
C29 C28 1_555 1_555
C30 C29 1_555 1_555
C35 C30 1_555 1_555
H24 C35 1_555 1_555
C36 C29 1_555 1_555
Zn8 O8 1_555 1_555
Zn1 O2 1_555 1_555
O1 C1 1_555 1_555
O2 C1 1_555 1_555
N1 Zn1 1_555 1_555
C1 C2 1_555 1_555
C7 C2 1_555 1_555
C8 C7 1_555 1_555
H3 C8 1_555 1_555
C9 C8 1_555 1_555
H4 C9 1_555 1_555
C10 C9 1_555 1_555
H5 C10 1_555 1_555
C13 N1 1_555 1_555
H7 C13 1_555 1_555
C14 C13 1_555 1_555
H8 C14 1_555 1_555
C15 C14 1_555 1_555
C16 C15 1_555 1_555
H9 C16 1_555 1_555
C17 N1 1_555 1_555
H10 C17 1_555 1_555
C18 C15 1_555 1_555
H11 C18 1_555 1_555
H12 C18 1_555 1_555
C20 C19 1_555 1_555
H14 C20 1_555 1_555
C21 C20 1_555 1_555
C22 C21 1_555 1_555
H15 C22 1_555 1_555
C24 C18 1_555 1_555
H17 C24 1_555 1_555
H18 C24 1_555 1_555
Zn4 O1 1_555 1_555
O10 Zn1 1_555 1_555
O12 Zn1 1_555 1_555
O13 Zn1 1_555 1_555
C16 C17 1_555 1_555
C21 C24 1_555 1_555
C22 C23 1_555 1_555
Zn4 N2 1_555 1_555
O10 C25 1_555 1_555
O6 Zn4 1_555 1_555
C25 O6 1_555 1_555
C26 C25 1_555 1_555
C31 C26 1_555 1_555
C32 C31 1_555 1_555
H21 C32 1_555 1_555
C33 C32 1_555 1_555
H22 C33 1_555 1_555
C34 C33 1_555 1_555
H23 C34 1_555 1_555
O11 Zn4 1_555 1_555
O14 Zn4 1_555 1_555
O1_2 C1_2 1_555 1_555
O2_2 C1_2 1_555 1_555
O11 C12_2 1_555 1_555
O13 C12_2 1_555 1_555
C1_2 C2_2 1_555 1_555
C2_2 C3_2 1_555 1_555
C3_2 H1_2 1_555 1_555
C4_2 C3_2 1_555 1_555
H2_2 C4_2 1_555 1_555
C5_2 C4_2 1_555 1_555
C6_2 C5_2 1_555 1_555
C7_2 C2_2 1_555 1_555
C8_2 C7_2 1_555 1_555
H3_2 C8_2 1_555 1_555
C9_2 C8_2 1_555 1_555
H4_2 C9_2 1_555 1_555
C10_2 C9_2 1_555 1_555
H5_2 C10_2 1_555 1_555
C11_2 C6_2 1_555 1_555
H6_2 C11_2 1_555 1_555
C12_2 C5_2 1_555 1_555
H7_2 C13_2 1_555 1_555
C14_2 C13_2 1_555 1_555
H8_2 C14_2 1_555 1_555
C15_2 C14_2 1_555 1_555
C18_2 C15_2 1_555 1_555
H11_2 C18_2 1_555 1_555
H12_2 C18_2 1_555 1_555
H15_2 C22_2 1_555 1_555
Zn8 O1_2 1_555 1_555
C6_2 C7_2 1_555 1_555
C10_2 C11_2 1_555 1_555
C22_2 C23_2 1_555 1_555
Zn8 N2_2 1_555 1_555
N1_2 Zn6 1_555 1_555
H9_2 C16_2 1_555 1_555
C17_2 N1_2 1_555 1_555
H10_2 C17_2 1_555 1_555
C20_2 C19_2 1_555 1_555
H14_2 C20_2 1_555 1_555
C21_2 C20_2 1_555 1_555
H17_2 C24_2 1_555 1_555
H18_2 C24_2 1_555 1_555
O10_2 Zn6 1_555 1_555
C16_2 C17_2 1_555 1_555
C21_2 C24_2 1_555 1_555
O10_2 C25_2 1_555 1_555
O12 C36_2 1_555 1_555
O14 C36_2 1_555 1_555
C25_2 O6_2 1_555 1_555
C26_2 C25_2 1_555 1_555
C27_2 C26_2 1_555 1_555
H19_2 C27_2 1_555 1_555
C28_2 C27_2 1_555 1_555
H20_2 C28_2 1_555 1_555
C29_2 C28_2 1_555 1_555
C30_2 C29_2 1_555 1_555
C31_2 C26_2 1_555 1_555
C32_2 C31_2 1_555 1_555
H21_2 C32_2 1_555 1_555
C33_2 C32_2 1_555 1_555
H22_2 C33_2 1_555 1_555
C34_2 C33_2 1_555 1_555
H23_2 C34_2 1_555 1_555
C35_2 C30_2 1_555 1_555
H24_2 C35_2 1_555 1_555
C36_2 C29_2 1_555 1_555
C30_2 C31_2 1_555 1_555
C34_2 C35_2 1_555 1_555
Zn2 N2_3 1_555 1_555
O5 C25_3 1_555 1_555
O6_3 Zn2 1_555 1_555
C25_3 O6_3 1_555 1_555
C26_3 C25_3 1_555 1_555
C31_3 C26_3 1_555 1_555
C32_3 C31_3 1_555 1_555
H21_3 C32_3 1_555 1_555
C33_3 C32_3 1_555 1_555
H22_3 C33_3 1_555 1_555
C34_3 C33_3 1_555 1_555
H23_3 C34_3 1_555 1_555
Zn3 O5 1_555 1_555
O9 Zn2 1_555 1_555
O11_2 Zn2 1_555 1_555
O14_2 Zn2 1_555 1_555
Zn3 O2_3 1_555 1_555
O9 C1_3 1_555 1_555
O2_3 C1_3 1_555 1_555
N1_3 Zn3 1_555 1_555
C1_3 C2_3 1_555 1_555
C7_3 C2_3 1_555 1_555
C8_3 C7_3 1_555 1_555
H3_3 C8_3 1_555 1_555
C9_3 C8_3 1_555 1_555
H4_3 C9_3 1_555 1_555
C10_3 C9_3 1_555 1_555
H5_3 C10_3 1_555 1_555
C13_3 N1_3 1_555 1_555
H7_3 C13_3 1_555 1_555
C14_3 C13_3 1_555 1_555
H8_3 C14_3 1_555 1_555
C15_3 C14_3 1_555 1_555
C16_3 C15_3 1_555 1_555
H9_3 C16_3 1_555 1_555
C17_3 N1_3 1_555 1_555
H10_3 C17_3 1_555 1_555
C18_3 C15_3 1_555 1_555
H11_3 C18_3 1_555 1_555
H12_3 C18_3 1_555 1_555
C20_3 C19_3 1_555 1_555
H14_3 C20_3 1_555 1_555
C21_3 C20_3 1_555 1_555
C22_3 C21_3 1_555 1_555
H15_3 C22_3 1_555 1_555
C24_3 C18_3 1_555 1_555
H17_3 C24_3 1_555 1_555
H18_3 C24_3 1_555 1_555
O12_2 Zn3 1_555 1_555
O13_2 Zn3 1_555 1_555
C16_3 C17_3 1_555 1_555
C21_3 C24_3 1_555 1_555
C22_3 C23_3 1_555 1_555
O7_2 C36_3 1_555 1_555
O8_2 C36_3 1_555 1_555
H19_3 C27_3 1_555 1_555
C28_3 C27_3 1_555 1_555
H20_3 C28_3 1_555 1_555
C29_3 C28_3 1_555 1_555
C30_3 C29_3 1_555 1_555
C35_3 C30_3 1_555 1_555
H24_3 C35_3 1_555 1_555
C36_3 C29_3 1_555 1_555
Zn7 O8_2 1_555 1_555
O3_2 C12_3 1_555 1_555
O4_2 C12_3 1_555 1_555
C3_3 H1_3 1_555 1_555
C4_3 C3_3 1_555 1_555
H2_3 C4_3 1_555 1_555
C5_3 C4_3 1_555 1_555
C6_3 C5_3 1_555 1_555
C11_3 C6_3 1_555 1_555
H6_3 C11_3 1_555 1_555
C12_3 C5_3 1_555 1_555
Zn5 O4_2 1_555 1_555
O5_2 C25_4 1_555 1_555
O12_2 C36_4 1_555 1_555
O14_2 C36_4 1_555 1_555
C25_4 O6_4 1_555 1_555
C26_4 C25_4 1_555 1_555
C27_4 C26_4 1_555 1_555
H19_4 C27_4 1_555 1_555
C28_4 C27_4 1_555 1_555
H20_4 C28_4 1_555 1_555
C29_4 C28_4 1_555 1_555
C30_4 C29_4 1_555 1_555
C31_4 C26_4 1_555 1_555
C32_4 C31_4 1_555 1_555
H21_4 C32_4 1_555 1_555
C33_4 C32_4 1_555 1_555
H22_4 C33_4 1_555 1_555
C34_4 C33_4 1_555 1_555
H23_4 C34_4 1_555 1_555
C35_4 C30_4 1_555 1_555
H24_4 C35_4 1_555 1_555
C36_4 C29_4 1_555 1_555
Zn5 O5_2 1_555 1_555
C30_4 C31_4 1_555 1_555
C34_4 C35_4 1_555 1_555
N1_4 Zn5 1_555 1_555
H9_4 C16_4 1_555 1_555
C17_4 N1_4 1_555 1_555
H10_4 C17_4 1_555 1_555
C20_4 C19_4 1_555 1_555
H14_4 C20_4 1_555 1_555
C21_4 C20_4 1_555 1_555
H17_4 C24_4 1_555 1_555
H18_4 C24_4 1_555 1_555
C16_4 C17_4 1_555 1_555
C21_4 C24_4 1_555 1_555
Zn7 N2_4 1_555 1_555
O9_2 Zn7 1_555 1_555
O9_2 C1_4 1_555 1_555
O2_4 C1_4 1_555 1_555
O11_2 C12_4 1_555 1_555
O13_2 C12_4 1_555 1_555
C1_4 C2_4 1_555 1_555
C2_4 C3_4 1_555 1_555
C3_4 H1_4 1_555 1_555
C4_4 C3_4 1_555 1_555
H2_4 C4_4 1_555 1_555
C5_4 C4_4 1_555 1_555
C6_4 C5_4 1_555 1_555
C7_4 C2_4 1_555 1_555
C8_4 C7_4 1_555 1_555
H3_4 C8_4 1_555 1_555
C9_4 C8_4 1_555 1_555
H4_4 C9_4 1_555 1_555
C10_4 C9_4 1_555 1_555
H5_4 C10_4 1_555 1_555
C11_4 C6_4 1_555 1_555
H6_4 C11_4 1_555 1_555
C12_4 C5_4 1_555 1_555
H7_4 C13_4 1_555 1_555
C14_4 C13_4 1_555 1_555
H8_4 C14_4 1_555 1_555
C15_4 C14_4 1_555 1_555
C18_4 C15_4 1_555 1_555
H11_4 C18_4 1_555 1_555
H12_4 C18_4 1_555 1_555
H15_4 C22_4 1_555 1_555
C6_4 C7_4 1_555 1_555
C10_4 C11_4 1_555 1_555
C22_4 C23_4 1_555 1_555

#END
