
###############################################################################
#
# This file contains modified crystal structure data generated from the
# MOF subset of the Cambridge Structural Database (CSD) v543 
# hosted by the Cambridge Crystallographic Data Centre (CCDC).
#
# This work is licensed under the Creative Commons
# Attribution-NonCommercial-ShareAlike 4.0 International License.
# To view a copy of this license, visit
# http://creativecommons.org/licenses/by-nc-sa/4.0/
# or send a letter to
# Creative Commons, PO Box 1866, Mountain View, CA 94042, USA.
#
# CIF created using the CSD Python API on 29 September 2022
# The structure has been converted into the P1 space group
# The structure has a 3D framework
# The original CSD entry SOSKET is in the triclinic crystal system
# The framework has been calculated to contain at least 10.0% void space
# The void calculation uses a probe of radius 1.32A, grid spacing 0.4
#
###############################################################################

data_SOSKET
_chemical_formula_moiety         '(C16 H8 Cu13 N8 S10)n'
_symmetry_cell_setting           triclinic
_symmetry_space_group_name_H-M   'P 1'
_symmetry_Int_Tables_number      1
_space_group_name_Hall           'P 1'
loop_
_symmetry_equiv_pos_site_id
_symmetry_equiv_pos_as_xyz
1 x,y,z
_cell_length_a                   6.8324(3)
_cell_length_b                   6.8324(3)
_cell_length_c                   16.4045(17)
_cell_angle_alpha                90
_cell_angle_beta                 90
_cell_angle_gamma                90
_cell_volume                     765.79
loop_
_atom_site_label
_atom_site_type_symbol
_atom_site_fract_x
_atom_site_fract_y
_atom_site_fract_z
Cu6 Cu 0.50023(15) -0.00008(15) 0.75000(6)
Cu3 Cu 0.000000 -0.000000 0.000000
S6 S 0.2353(3) -0.0000(3) 0.09701(13)
N6 N 0.2027(9) 0.0007(10) 0.2573(4)
Cu8 Cu 0.49977(15) 0.00008(15) 0.25000(6)
Cu2 Cu 0.500000 0.500000 0.500000
Cu3_2 Cu 0.000000 -0.000000 1.000000
S1 S 0.5002(3) 0.7351(3) 0.59713(13)
S4 S 0.4998(3) 0.2650(3) 0.59698(13)
N1 N 0.5014(9) 0.2969(10) 0.7566(4)
N3 N 0.2046(9) 0.0001(10) 0.7424(4)
N4 N 0.4994(10) 0.7017(10) 0.7561(4)
C2 C 0.5020(12) 0.3977(12) 0.8289(5)
H2 H 0.503633 0.330955 0.878299
C4 C 0.4995(11) 0.6059(12) 0.6871(5)
C5 C 0.5000(11) 0.6017(12) 0.8273(5)
H3 H 0.499149 0.670592 0.876158
C6 C 0.5011(11) 0.3955(12) 0.6868(5)
C7 C 0.0996(12) 0.0015(12) 0.6735(5)
H4 H 0.166012 0.003182 0.623969
Cu6_2 Cu 0.50023(15) 0.99992(15) 0.75000(6)
S9 S 0.4998(3) 0.2649(3) 0.40287(13)
S10 S 0.5002(3) 0.7350(3) 0.40302(13)
Cu3_3 Cu -0.000000 1.000000 0.000000
S6_2 S 0.2353(3) 1.0000(3) 0.09701(13)
C9 C 0.1024(12) 0.9994(12) 0.3276(5)
H5 H 0.168996 0.999175 0.377088
C11 C 0.1080(11) 0.9995(12) 0.1861(5)
Cu8_2 Cu 0.49977(15) 1.00008(15) 0.25000(6)
Cu3_4 Cu -0.000000 1.000000 1.000000
S3 S 0.2352(3) 0.9995(3) 0.90302(13)
N3_2 N 0.2046(9) 1.0001(10) 0.7424(4)
C8 C 0.1066(11) 0.9974(12) 0.8133(5)
N9 N 0.7973(9) 0.9993(10) 0.7427(4)
Cu3_5 Cu 1.000000 -0.000000 0.000000
S7 S 0.7648(3) 0.0005(3) 0.09698(13)
N7 N 0.7954(9) -0.0001(10) 0.2576(4)
C16 C 0.8934(11) 0.0026(12) 0.1867(5)
N12 N 0.5006(10) 0.2983(10) 0.2439(4)
Cu3_6 Cu 1.000000 -0.000000 1.000000
S2 S 0.7647(3) -0.0000(3) 0.90299(13)
C1 C 0.8976(12) 0.0006(12) 0.6724(5)
H1 H 0.831004 0.000825 0.622912
C3 C 0.8920(11) 0.0005(12) 0.8139(5)
Cu3_7 Cu 1.000000 1.000000 0.000000
N5 N 0.4986(9) 0.7031(10) 0.2434(4)
N7_2 N 0.7954(9) 0.9999(10) 0.2576(4)
C10 C 0.4980(12) 0.6023(12) 0.1711(5)
H6 H 0.496367 0.669045 0.121701
C12 C 0.5005(11) 0.3941(12) 0.3129(5)
C13 C 0.5000(11) 0.3983(12) 0.1727(5)
H7 H 0.500851 0.329408 0.123842
C14 C 0.4989(11) 0.6045(12) 0.3132(5)
C15 C 0.9004(12) 0.9985(12) 0.3265(5)
H8 H 0.833988 0.996818 0.376031
Cu3_8 Cu 1.000000 1.000000 1.000000
S2_2 S 0.7647(3) 1.0000(3) 0.90299(13)
loop_
_geom_bond_atom_site_label_1
_geom_bond_atom_site_label_2
_geom_bond_site_symmetry_1
_geom_bond_site_symmetry_2
S6 Cu3 1_555 1_555
Cu8 N6 1_555 1_555
Cu6 N1 1_555 1_555
Cu2 S1 1_555 1_555
S1 C4 1_555 1_555
S4 Cu2 1_555 1_555
N1 C2 1_555 1_555
N3 Cu6 1_555 1_555
N4 C4 1_555 1_555
C2 H2 1_555 1_555
C4 C6 1_555 1_555
C5 N4 1_555 1_555
H3 C5 1_555 1_555
C6 S4 1_555 1_555
C7 N3 1_555 1_555
H4 C7 1_555 1_555
Cu6_2 N4 1_555 1_555
S9 Cu2 1_555 1_555
S10 Cu2 1_555 1_555
N1 C6 1_555 1_555
C2 C5 1_555 1_555
S6_2 Cu3_3 1_555 1_555
C9 H5 1_555 1_555
C11 S6_2 1_555 1_555
S3 Cu3_4 1_555 1_555
N3_2 Cu6_2 1_555 1_555
C8 S3 1_555 1_555
N9 Cu6_2 1_555 1_555
N3_2 C8 1_555 1_555
S7 Cu3_5 1_555 1_555
N7 Cu8 1_555 1_555
C16 S7 1_555 1_555
N12 Cu8 1_555 1_555
N7 C16 1_555 1_555
Cu3_6 S2 1_555 1_555
S2 C3 1_555 1_555
C1 H1 1_555 1_555
Cu8_2 N5 1_555 1_555
S9 C12 1_555 1_555
S10 C14 1_555 1_555
N5 C10 1_555 1_555
N7_2 Cu8_2 1_555 1_555
N12 C12 1_555 1_555
C10 H6 1_555 1_555
C12 C14 1_555 1_555
C13 N12 1_555 1_555
H7 C13 1_555 1_555
C14 N5 1_555 1_555
C15 N7_2 1_555 1_555
H8 C15 1_555 1_555
C10 C13 1_555 1_555
Cu3_8 S2_2 1_555 1_555

#END
