
###############################################################################
#
# This file contains modified crystal structure data generated from the
# MOF subset of the Cambridge Structural Database (CSD) v543 
# hosted by the Cambridge Crystallographic Data Centre (CCDC).
#
# This work is licensed under the Creative Commons
# Attribution-NonCommercial-ShareAlike 4.0 International License.
# To view a copy of this license, visit
# http://creativecommons.org/licenses/by-nc-sa/4.0/
# or send a letter to
# Creative Commons, PO Box 1866, Mountain View, CA 94042, USA.
#
# CIF created using the CSD Python API on 29 September 2022
# The structure has been converted into the P1 space group
# The structure has a 3D framework
# The original CSD entry SOSKAP is in the triclinic crystal system
# The framework has been calculated to contain at least 10.0% void space
# The void calculation uses a probe of radius 1.32A, grid spacing 0.4
#
###############################################################################

data_SOSKAP
_chemical_formula_moiety         '(C18 H8 Cu10 N10 S14)n'
_symmetry_cell_setting           triclinic
_symmetry_space_group_name_H-M   'P 1'
_symmetry_Int_Tables_number      1
_space_group_name_Hall           'P 1'
loop_
_symmetry_equiv_pos_site_id
_symmetry_equiv_pos_as_xyz
1 x,y,z
_cell_length_a                   6.82639(12)
_cell_length_b                   6.82639(12)
_cell_length_c                   16.5083(5)
_cell_angle_alpha                90
_cell_angle_beta                 90
_cell_angle_gamma                90
_cell_volume                     769.28
loop_
_atom_site_label
_atom_site_type_symbol
_atom_site_fract_x
_atom_site_fract_y
_atom_site_fract_z
Cu1 Cu 0.00003(5) -0.00008(4) 0.24997(2)
N9 N 0.0001(3) 0.2969(3) 0.24473(14)
N11 N 0.2959(3) 0.0003(3) 0.25546(14)
Cu8 Cu -0.00003(5) 0.00008(4) 0.75003(2)
Cu1_2 Cu 0.00003(5) 0.99992(4) 0.24997(2)
Cu3 Cu 0.000000 0.500000 0.500000
S3 S -0.00011(11) 0.26411(9) 0.40366(4)
S4 S 0.00000(11) 0.73586(9) 0.40362(4)
N4 N 0.0001(3) 0.7033(3) 0.24422(14)
C2 C 0.0002(4) 0.3945(4) 0.31463(17)
C4 C 0.0004(4) 0.6005(4) 0.17477(17)
H1 H 0.000934 0.667499 0.125709
S9 S 0.00011(11) 0.73589(9) 0.59634(4)
S10 S 0.00000(11) 0.26414(9) 0.59638(4)
Cu8_2 Cu -0.00003(5) 1.00008(4) 0.75003(2)
Cu1_3 Cu 1.00003(5) -0.00008(4) 0.24997(2)
Cu2 Cu 0.500000 0.000000 0.000000
S1 S 0.26403(10) 0.00004(10) 0.09643(4)
S2 S 0.73586(10) 0.00001(11) 0.09631(4)
C3 C 0.6053(4) 0.0001(4) 0.18536(17)
N9_2 N 1.0001(3) 0.2969(3) 0.24473(14)
Cu2_2 Cu 0.500000 0.000000 1.000000
S5 S 0.73597(10) -0.00004(10) 0.90357(4)
S6 S 0.26414(10) -0.00001(11) 0.90369(4)
N5 N -0.0001(3) 0.7031(3) 0.75527(14)
N6 N 0.2960(3) 0.0002(3) 0.74442(14)
N8 N -0.0001(3) 0.2967(3) 0.75578(14)
C9 C 0.0007(4) 0.3951(4) 0.68499(17)
C11 C 0.3947(4) -0.0001(4) 0.81464(17)
C13 C 0.4002(4) 0.0002(4) 0.67440(17)
H6 H 0.333796 0.000230 0.625216
C14 C 0.6052(4) 0.0003(4) 0.81430(17)
C15 C 0.0002(4) 0.6003(4) 0.82571(17)
H7 H 0.000795 0.666999 0.874842
C16 C 0.5995(4) 0.0003(4) 0.67440(17)
H8 H 0.665943 0.000633 0.625209
Cu8_3 Cu 0.99997(5) 0.00008(4) 0.75003(2)
Cu1_4 Cu 1.00003(5) 0.99992(4) 0.24997(2)
Cu2_3 Cu 0.500000 1.000000 0.000000
Cu3_2 Cu 1.000000 0.500000 0.500000
S1_2 S 0.26403(10) 1.00004(10) 0.09643(4)
S2_2 S 0.73586(10) 1.00001(11) 0.09631(4)
S3_2 S 0.99989(11) 0.26411(9) 0.40366(4)
S4_2 S 1.00000(11) 0.73586(9) 0.40362(4)
N2 N 0.7040(3) 0.9998(3) 0.25558(14)
N4_2 N 1.0001(3) 0.7033(3) 0.24422(14)
C1 C 0.9993(4) 0.6049(4) 0.31501(17)
C3_2 C 0.6053(4) 1.0001(4) 0.18536(17)
C5 C 0.5998(4) 0.9998(4) 0.32560(17)
H2 H 0.666204 0.999770 0.374784
C6 C 0.3948(4) 0.9997(4) 0.18570(17)
C7 C 0.9998(4) 0.3997(4) 0.17429(17)
H3 H 0.999205 0.333001 0.125158
C8 C 0.4005(4) 0.9997(4) 0.32560(17)
H4 H 0.334057 0.999367 0.374791
S9_2 S 1.00011(11) 0.73589(9) 0.59634(4)
S10_2 S 1.00000(11) 0.26414(9) 0.59638(4)
Cu2_4 Cu 0.500000 1.000000 1.000000
S5_2 S 0.73597(10) 0.99996(10) 0.90357(4)
S6_2 S 0.26414(10) 0.99999(11) 0.90369(4)
N7 N 0.7041(3) 0.9997(3) 0.74454(14)
C11_2 C 0.3947(4) 0.9999(4) 0.81464(17)
Cu8_4 Cu 0.99997(5) 1.00008(4) 0.75003(2)
N5_2 N 0.9999(3) 0.7031(3) 0.75527(14)
N8_2 N 0.9999(3) 0.2967(3) 0.75578(14)
C10 C 0.9998(4) 0.6055(4) 0.68537(17)
C12 C 0.9996(4) 0.3995(4) 0.82523(17)
H5 H 0.999066 0.332501 0.874291
loop_
_geom_bond_atom_site_label_1
_geom_bond_atom_site_label_2
_geom_bond_site_symmetry_1
_geom_bond_site_symmetry_2
N9 Cu1 1_555 1_555
N11 Cu1 1_555 1_555
Cu3 S3 1_555 1_555
S3 C2 1_555 1_555
S4 Cu3 1_555 1_555
N9 C2 1_555 1_555
N4 Cu1_2 1_555 1_555
C4 N4 1_555 1_555
H1 C4 1_555 1_555
S9 Cu3 1_555 1_555
S10 Cu3 1_555 1_555
Cu2 S1 1_555 1_555
S2 Cu2 1_555 1_555
C3 S2 1_555 1_555
N9_2 Cu1_3 1_555 1_555
Cu8 N6 1_555 1_555
S5 Cu2_2 1_555 1_555
S6 Cu2_2 1_555 1_555
S10 C9 1_555 1_555
N6 C11 1_555 1_555
N8 Cu8 1_555 1_555
C9 N8 1_555 1_555
C11 S6 1_555 1_555
C13 N6 1_555 1_555
H6 C13 1_555 1_555
C14 S5 1_555 1_555
C15 N5 1_555 1_555
H7 C15 1_555 1_555
H8 C16 1_555 1_555
Cu8_2 N5 1_555 1_555
C11 C14 1_555 1_555
C13 C16 1_555 1_555
Cu1_4 N2 1_555 1_555
Cu2_3 S1_2 1_555 1_555
Cu3_2 S3_2 1_555 1_555
S1_2 C6 1_555 1_555
S2_2 Cu2_3 1_555 1_555
S4_2 Cu3_2 1_555 1_555
N2 C3_2 1_555 1_555
N4_2 Cu1_4 1_555 1_555
C1 S4_2 1_555 1_555
C3_2 S2_2 1_555 1_555
C5 N2 1_555 1_555
H2 C5 1_555 1_555
C6 C3_2 1_555 1_555
C7 N9_2 1_555 1_555
H3 C7 1_555 1_555
H4 C8 1_555 1_555
S9_2 Cu3_2 1_555 1_555
S10_2 Cu3_2 1_555 1_555
N4_2 C1 1_555 1_555
C5 C8 1_555 1_555
S5_2 Cu2_4 1_555 1_555
S6_2 Cu2_4 1_555 1_555
C11_2 S6_2 1_555 1_555
Cu8_4 N7 1_555 1_555
S9_2 C10 1_555 1_555
N5_2 C10 1_555 1_555
N8_2 Cu8_3 1_555 1_555
C12 N8_2 1_555 1_555
H5 C12 1_555 1_555
Cu8_4 N5_2 1_555 1_555

#END
