
###############################################################################
#
# This file contains modified crystal structure data generated from the
# MOF subset of the Cambridge Structural Database (CSD) v543 
# hosted by the Cambridge Crystallographic Data Centre (CCDC).
#
# This work is licensed under the Creative Commons
# Attribution-NonCommercial-ShareAlike 4.0 International License.
# To view a copy of this license, visit
# http://creativecommons.org/licenses/by-nc-sa/4.0/
# or send a letter to
# Creative Commons, PO Box 1866, Mountain View, CA 94042, USA.
#
# CIF created using the CSD Python API on 29 September 2022
# The structure has been converted into the P1 space group
# The structure has a 3D framework
# The original CSD entry SUDXIB is in the orthorhombic crystal system
# The framework has been calculated to contain at least 10.0% void space
# The void calculation uses a probe of radius 1.32A, grid spacing 0.4
#
###############################################################################

data_SUDXIB
_chemical_formula_moiety         '(C152 H96 N8 O38 Zn8)n'
_symmetry_cell_setting           triclinic
_symmetry_space_group_name_H-M   'P 1'
_symmetry_Int_Tables_number      1
_space_group_name_Hall           'P 1'
loop_
_symmetry_equiv_pos_site_id
_symmetry_equiv_pos_as_xyz
1 x,y,z
_cell_length_a                   16.8440(9)
_cell_length_b                   11.0512(6)
_cell_length_c                   22.4457(12)
_cell_angle_alpha                90
_cell_angle_beta                 90
_cell_angle_gamma                90
_cell_volume                     4178.19
loop_
_atom_site_label
_atom_site_type_symbol
_atom_site_fract_x
_atom_site_fract_y
_atom_site_fract_z
O12 O 0.03539(11) 0.33160(18) 0.05315(10)
Zn6 Zn 0.05856(2) 0.59416(2) 0.99122(2)
N2 N 0.87015(9) 0.26051(11) 0.01981(8)
C20 C 0.79403(9) 0.26849(11) 0.04340(9)
H13 H 0.7747 0.3426 0.0566
C21 C 0.74680(8) 0.16565(15) 0.04731(10)
H14 H 0.6959 0.1710 0.0631
C22 C 0.77570(10) 0.05483(12) 0.02761(10)
C23 C 0.85181(10) 0.04685(11) 0.00402(11)
C24 C 0.89904(8) 0.14969(14) 0.00011(10)
Zn2 Zn 0.94144(2) 0.40584(2) 0.00878(2)
O14 O 0.91460(13) 0.50465(17) 0.08146(8)
H3 H 0.6289 0.0273 0.9908
H16 H 0.9500 0.1444 0.9843
O6 O 0.87398(11) 0.52554(16) 0.96190(9)
O7 O 0.96461(11) 0.66840(18) 0.94685(10)
O8 O 0.68296(14) 0.86507(18) 0.78725(10)
O9 O 0.58540(13) 0.50465(17) 0.58146(8)
O10 O 0.49520(12) 0.64890(18) 0.56824(9)
C25 C 0.89662(15) 0.6246(2) 0.94032(11)
C26 C 0.70686(7) 0.71705(16) 0.86342(9)
H17 H 0.6539 0.6932 0.8621
C27 C 0.75949(9) 0.65913(14) 0.90166(8)
H18 H 0.7418 0.5965 0.9260
C28 C 0.83859(8) 0.69477(14) 0.90358(7)
C29 C 0.86506(7) 0.78833(15) 0.86727(8)
H19 H 0.9180 0.8122 0.8686
C30 C 0.81243(10) 0.84625(14) 0.82904(7)
H20 H 0.8301 0.9088 0.8047
C31 C 0.73333(9) 0.81062(15) 0.82711(8)
C32 C 0.65537(11) 0.79827(14) 0.74039(7)
C33 C 0.59094(10) 0.84664(12) 0.70990(8)
H21 H 0.5698 0.9207 0.7215
C34 C 0.55816(9) 0.78433(14) 0.66206(8)
H22 H 0.5150 0.8167 0.6417
C35 C 0.58981(10) 0.67364(14) 0.64472(7)
C36 C 0.65424(10) 0.62527(12) 0.67521(8)
H23 H 0.6754 0.5512 0.6636
C37 C 0.68702(9) 0.68758(15) 0.72304(8)
H24 H 0.7301 0.6552 0.7434
C38 C 0.55409(15) 0.6040(2) 0.59426(12)
Zn4 Zn 0.44144(2) 0.59416(2) 0.49122(2)
Zn8 Zn 0.55856(2) 0.40584(2) 0.50878(2)
O16 O 0.99520(12) 0.35110(18) 0.93176(9)
H3_2 H 0.1289 0.9727 0.5092
N2_2 N 0.37015(9) 0.73949(11) 0.48019(8)
C20_2 C 0.29403(9) 0.73151(11) 0.45660(9)
H13_2 H 0.2747 0.6574 0.4434
C21_2 C 0.24680(8) 0.83435(15) 0.45269(10)
H14_2 H 0.1959 0.8290 0.4369
C22_2 C 0.27570(10) 0.94517(12) 0.47239(10)
C23_2 C 0.35181(10) 0.95315(11) 0.49598(11)
C24_2 C 0.39904(8) 0.85031(14) 0.49989(10)
H16_2 H 0.4500 0.8556 0.5157
O6_2 O 0.37398(11) 0.47446(16) 0.53810(9)
O7_2 O 0.46461(11) 0.33160(18) 0.55315(10)
O8_2 O 0.18296(14) 0.13493(18) 0.71275(10)
O9_2 O 0.08540(13) 0.49535(17) 0.91854(8)
C25_2 C 0.39662(15) 0.3754(2) 0.55968(11)
C26_2 C 0.20686(7) 0.28295(16) 0.63658(9)
H17_2 H 0.1539 0.3068 0.6379
C27_2 C 0.25949(9) 0.34087(14) 0.59834(8)
H18_2 H 0.2418 0.4035 0.5740
C28_2 C 0.33859(8) 0.30523(14) 0.59642(7)
C29_2 C 0.36506(7) 0.21167(15) 0.63273(8)
H19_2 H 0.4180 0.1878 0.6314
C30_2 C 0.31243(10) 0.15375(14) 0.67096(7)
H20_2 H 0.3301 0.0912 0.6953
C31_2 C 0.23333(9) 0.18938(15) 0.67289(8)
C32_2 C 0.15537(11) 0.20173(14) 0.75961(7)
C33_2 C 0.09094(10) 0.15336(12) 0.79010(8)
H21_2 H 0.0698 0.0793 0.7785
C34_2 C 0.05816(9) 0.21567(14) 0.83794(8)
H22_2 H 0.0150 0.1833 0.8583
C35_2 C 0.08981(10) 0.32636(14) 0.85528(7)
C36_2 C 0.15424(10) 0.37473(12) 0.82479(8)
H23_2 H 0.1754 0.4488 0.8364
C37_2 C 0.18702(9) 0.31242(15) 0.77696(8)
H24_2 H 0.2301 0.3448 0.7566
C38_2 C 0.05409(15) 0.3960(2) 0.90574(12)
O12_2 O 0.53539(11) 0.66840(18) 0.44685(10)
O14_2 O 0.41460(13) 0.49535(17) 0.41854(8)
H3_3 H 0.3711 0.9727 0.0092
H16_3 H 0.0500 0.8556 0.0157
O6_3 O 0.12602(11) 0.47446(16) 0.03810(9)
O8_3 O 0.31704(14) 0.13493(18) 0.21275(10)
O10_2 O 0.50480(12) 0.35110(18) 0.43176(9)
C25_3 C 0.10338(15) 0.3754(2) 0.05968(11)
C26_3 C 0.29314(7) 0.28295(16) 0.13658(9)
H17_3 H 0.3461 0.3068 0.1379
C27_3 C 0.24051(9) 0.34087(14) 0.09834(8)
H18_3 H 0.2582 0.4035 0.0740
C28_3 C 0.16141(8) 0.30523(14) 0.09642(7)
C29_3 C 0.13494(7) 0.21167(15) 0.13273(8)
H19_3 H 0.0820 0.1878 0.1314
C30_3 C 0.18757(10) 0.15375(14) 0.17096(7)
H20_3 H 0.1699 0.0912 0.1953
C31_3 C 0.26667(9) 0.18938(15) 0.17289(8)
C32_3 C 0.34463(11) 0.20173(14) 0.25961(7)
C33_3 C 0.40906(10) 0.15336(12) 0.29010(8)
H21_3 H 0.4302 0.0793 0.2785
C34_3 C 0.44184(9) 0.21567(14) 0.33794(8)
H22_3 H 0.4850 0.1833 0.3583
C35_3 C 0.41019(10) 0.32636(14) 0.35528(7)
C36_3 C 0.34576(10) 0.37473(12) 0.32479(8)
H23_3 H 0.3246 0.4488 0.3364
C37_3 C 0.31298(9) 0.31242(15) 0.27696(8)
H24_3 H 0.2699 0.3448 0.2566
C38_3 C 0.44591(15) 0.3960(2) 0.40574(12)
O16_2 O 0.00480(12) 0.64890(18) 0.06824(9)
N2_3 N 0.12985(9) 0.73949(11) 0.98019(8)
C20_3 C 0.20597(9) 0.73151(11) 0.95660(9)
H13_3 H 0.2253 0.6574 0.9434
C21_3 C 0.25320(8) 0.83435(15) 0.95269(10)
H14_3 H 0.3041 0.8290 0.9369
C22_3 C 0.22430(10) 0.94517(12) 0.97239(10)
C23_3 C 0.14819(10) 0.95315(11) 0.99598(11)
C24_3 C 0.10096(8) 0.85031(14) 0.99989(10)
H3_4 H 0.8711 0.0273 0.4908
N2_4 N 0.62985(9) 0.26051(11) 0.51981(8)
C20_4 C 0.70597(9) 0.26849(11) 0.54340(9)
H13_4 H 0.7253 0.3426 0.5566
C21_4 C 0.75320(8) 0.16565(15) 0.54731(10)
H14_4 H 0.8041 0.1710 0.5631
C22_4 C 0.72430(10) 0.05483(12) 0.52761(10)
C23_4 C 0.64819(10) 0.04685(11) 0.50402(11)
C24_4 C 0.60096(8) 0.14969(14) 0.50011(10)
H16_4 H 0.5500 0.1444 0.4843
O6_4 O 0.62602(11) 0.52554(16) 0.46190(9)
O8_4 O 0.81704(14) 0.86507(18) 0.28725(10)
C25_4 C 0.60338(15) 0.6246(2) 0.44032(11)
C26_4 C 0.79314(7) 0.71705(16) 0.36342(9)
H17_4 H 0.8461 0.6932 0.3621
C27_4 C 0.74051(9) 0.65913(14) 0.40166(8)
H18_4 H 0.7582 0.5965 0.4260
C28_4 C 0.66141(8) 0.69477(14) 0.40358(7)
C29_4 C 0.63494(7) 0.78833(15) 0.36727(8)
H19_4 H 0.5820 0.8122 0.3686
C30_4 C 0.68757(10) 0.84625(14) 0.32904(7)
H20_4 H 0.6699 0.9088 0.3047
C31_4 C 0.76667(9) 0.81062(15) 0.32711(8)
C32_4 C 0.84463(11) 0.79827(14) 0.24039(7)
C33_4 C 0.90906(10) 0.84664(12) 0.20990(8)
H21_4 H 0.9302 0.9207 0.2215
C34_4 C 0.94184(9) 0.78433(14) 0.16206(8)
H22_4 H 0.9850 0.8167 0.1417
C35_4 C 0.91019(10) 0.67364(14) 0.14472(7)
C36_4 C 0.84576(10) 0.62527(12) 0.17521(8)
H23_4 H 0.8246 0.5512 0.1636
C37_4 C 0.81298(9) 0.68758(15) 0.22304(8)
H24_4 H 0.7699 0.6552 0.2434
C38_4 C 0.94591(15) 0.6040(2) 0.09426(12)
O5 O 0.00480(12) 0.35110(18) 0.56824(9)
Zn3 Zn 0.05856(2) 0.40584(2) 0.49122(2)
Zn1 Zn 0.55856(2) 0.59416(2) 0.00878(2)
N1 N 0.62985(9) 0.73949(11) 0.01981(8)
C1 C 0.70597(9) 0.73151(11) 0.04340(9)
H1 H 0.7253 0.6574 0.0566
C2 C 0.75320(8) 0.83435(15) 0.04731(10)
H2 H 0.8041 0.8290 0.0631
C3 C 0.72430(10) 0.94517(12) 0.02761(10)
C4 C 0.64819(10) 0.95315(11) 0.00402(11)
C5 C 0.60096(8) 0.85031(14) 0.00011(10)
O11 O 0.46461(11) 0.66840(18) 0.05315(10)
O13 O 0.58540(13) 0.49535(17) 0.08146(8)
O1 O 0.62602(11) 0.47446(16) 0.96190(9)
O2 O 0.53539(11) 0.33160(18) 0.94685(10)
O3 O 0.81704(14) 0.13493(18) 0.78725(10)
O4 O 0.91460(13) 0.49535(17) 0.58146(8)
H4 H 0.5500 0.8556 0.9843
C6 C 0.60338(15) 0.3754(2) 0.94032(11)
C7 C 0.79314(7) 0.28295(16) 0.86342(9)
H5 H 0.8461 0.3068 0.8621
C8 C 0.74051(9) 0.34087(14) 0.90166(8)
H6 H 0.7582 0.4035 0.9260
C9 C 0.66141(8) 0.30523(14) 0.90358(7)
C10 C 0.63494(7) 0.21167(15) 0.86727(8)
H7 H 0.5820 0.1878 0.8686
C11 C 0.68757(10) 0.15375(14) 0.82904(7)
H8 H 0.6699 0.0912 0.8047
C12 C 0.76667(9) 0.18938(15) 0.82711(8)
C13 C 0.84463(11) 0.20173(14) 0.74039(7)
C14 C 0.90906(10) 0.15336(12) 0.70990(8)
H9 H 0.9302 0.0793 0.7215
C15 C 0.94184(9) 0.21567(14) 0.66206(8)
H10 H 0.9850 0.1833 0.6417
C16 C 0.91019(10) 0.32636(14) 0.64472(7)
C17 C 0.84576(10) 0.37473(12) 0.67521(8)
H11 H 0.8246 0.4488 0.6636
C18 C 0.81298(9) 0.31242(15) 0.72304(8)
H12 H 0.7699 0.3448 0.7434
C19 C 0.94591(15) 0.3960(2) 0.59426(12)
H15 H 0.8711 0.9727 0.9908
Zn5 Zn 0.44144(2) 0.40584(2) 0.99122(2)
Zn7 Zn 0.94144(2) 0.59416(2) 0.50878(2)
O15 O 0.50480(12) 0.64890(18) 0.93176(9)
O1_2 O 0.12602(11) 0.52554(16) 0.53810(9)
O2_2 O 0.03539(11) 0.66840(18) 0.55315(10)
O3_2 O 0.31704(14) 0.86507(18) 0.71275(10)
O4_2 O 0.41460(13) 0.50465(17) 0.91854(8)
N1_2 N 0.12985(9) 0.26051(11) 0.48019(8)
C1_2 C 0.20597(9) 0.26849(11) 0.45660(9)
H1_2 H 0.2253 0.3426 0.4434
C2_2 C 0.25320(8) 0.16565(15) 0.45269(10)
H2_2 H 0.3041 0.1710 0.4369
C3_2 C 0.22430(10) 0.05483(12) 0.47239(10)
C4_2 C 0.14819(10) 0.04685(11) 0.49598(11)
C5_2 C 0.10096(8) 0.14969(14) 0.49989(10)
H4_2 H 0.0500 0.1444 0.5157
C6_2 C 0.10338(15) 0.6246(2) 0.55968(11)
C7_2 C 0.29314(7) 0.71705(16) 0.63658(9)
H5_2 H 0.3461 0.6932 0.6379
C8_2 C 0.24051(9) 0.65913(14) 0.59834(8)
H6_2 H 0.2582 0.5965 0.5740
C9_2 C 0.16141(8) 0.69477(14) 0.59642(7)
C10_2 C 0.13494(7) 0.78833(15) 0.63273(8)
H7_2 H 0.0820 0.8122 0.6314
C11_2 C 0.18757(10) 0.84625(14) 0.67096(7)
H8_2 H 0.1699 0.9088 0.6953
C12_2 C 0.26667(9) 0.81062(15) 0.67289(8)
C13_2 C 0.34463(11) 0.79827(14) 0.75961(7)
C14_2 C 0.40906(10) 0.84664(12) 0.79010(8)
H9_2 H 0.4302 0.9207 0.7785
C15_2 C 0.44184(9) 0.78433(14) 0.83794(8)
H10_2 H 0.4850 0.8167 0.8583
C16_2 C 0.41019(10) 0.67364(14) 0.85528(7)
C17_2 C 0.34576(10) 0.62527(12) 0.82479(8)
H11_2 H 0.3246 0.5512 0.8364
C18_2 C 0.31298(9) 0.68758(15) 0.77696(8)
H12_2 H 0.2699 0.6552 0.7566
C19_2 C 0.44591(15) 0.6040(2) 0.90574(12)
H15_2 H 0.3711 0.0273 0.5092
O13_2 O 0.08540(13) 0.50465(17) 0.41854(8)
O11_2 O 0.96461(11) 0.33160(18) 0.44685(10)
O1_3 O 0.37398(11) 0.52554(16) 0.03810(9)
O3_3 O 0.18296(14) 0.86507(18) 0.21275(10)
H4_3 H 0.4500 0.1444 0.0157
C6_3 C 0.39662(15) 0.6246(2) 0.05968(11)
C7_3 C 0.20686(7) 0.71705(16) 0.13658(9)
H5_3 H 0.1539 0.6932 0.1379
C8_3 C 0.25949(9) 0.65913(14) 0.09834(8)
H6_3 H 0.2418 0.5965 0.0740
C9_3 C 0.33859(8) 0.69477(14) 0.09642(7)
C10_3 C 0.36506(7) 0.78833(15) 0.13273(8)
H7_3 H 0.4180 0.8122 0.1314
C11_3 C 0.31243(10) 0.84625(14) 0.17096(7)
H8_3 H 0.3301 0.9088 0.1953
C12_3 C 0.23333(9) 0.81062(15) 0.17289(8)
C13_3 C 0.15537(11) 0.79827(14) 0.25961(7)
C14_3 C 0.09094(10) 0.84664(12) 0.29010(8)
H9_3 H 0.0698 0.9207 0.2785
C15_3 C 0.05816(9) 0.78433(14) 0.33794(8)
H10_3 H 0.0150 0.8167 0.3583
C16_3 C 0.08981(10) 0.67364(14) 0.35528(7)
C17_3 C 0.15424(10) 0.62527(12) 0.32479(8)
H11_3 H 0.1754 0.5512 0.3364
C18_3 C 0.18702(9) 0.68758(15) 0.27696(8)
H12_3 H 0.2301 0.6552 0.2566
C19_3 C 0.05409(15) 0.6040(2) 0.40574(12)
H15_3 H 0.1289 0.0273 0.0092
O15_2 O 0.49520(12) 0.35110(18) 0.06824(9)
N1_3 N 0.37015(9) 0.26051(11) 0.98019(8)
C1_3 C 0.29403(9) 0.26849(11) 0.95660(9)
H1_3 H 0.2747 0.3426 0.9434
C2_3 C 0.24680(8) 0.16565(15) 0.95269(10)
H2_3 H 0.1959 0.1710 0.9369
C3_3 C 0.27570(10) 0.05483(12) 0.97239(10)
C4_3 C 0.35181(10) 0.04685(11) 0.99598(11)
C5_3 C 0.39904(8) 0.14969(14) 0.99989(10)
O5_2 O 0.99520(12) 0.64890(18) 0.43176(9)
O1_4 O 0.87398(11) 0.47446(16) 0.46190(9)
O3_4 O 0.68296(14) 0.13493(18) 0.28725(10)
N1_4 N 0.87015(9) 0.73949(11) 0.51981(8)
C1_4 C 0.79403(9) 0.73151(11) 0.54340(9)
H1_4 H 0.7747 0.6574 0.5566
C2_4 C 0.74680(8) 0.83435(15) 0.54731(10)
H2_4 H 0.6959 0.8290 0.5631
C3_4 C 0.77570(10) 0.94517(12) 0.52761(10)
C4_4 C 0.85181(10) 0.95315(11) 0.50402(11)
C5_4 C 0.89904(8) 0.85031(14) 0.50011(10)
H4_4 H 0.9500 0.8556 0.4843
C6_4 C 0.89662(15) 0.3754(2) 0.44032(11)
C7_4 C 0.70686(7) 0.28295(16) 0.36342(9)
H5_4 H 0.6539 0.3068 0.3621
C8_4 C 0.75949(9) 0.34087(14) 0.40166(8)
H6_4 H 0.7418 0.4035 0.4260
C9_4 C 0.83859(8) 0.30523(14) 0.40358(7)
C10_4 C 0.86506(7) 0.21167(15) 0.36727(8)
H7_4 H 0.9180 0.1878 0.3686
C11_4 C 0.81243(10) 0.15375(14) 0.32904(7)
H8_4 H 0.8301 0.0912 0.3047
C12_4 C 0.73333(9) 0.18938(15) 0.32711(8)
C13_4 C 0.65537(11) 0.20173(14) 0.24039(7)
C14_4 C 0.59094(10) 0.15336(12) 0.20990(8)
H9_4 H 0.5698 0.0793 0.2215
C15_4 C 0.55816(9) 0.21567(14) 0.16206(8)
H10_4 H 0.5150 0.1833 0.1417
C16_4 C 0.58981(10) 0.32636(14) 0.14472(7)
C17_4 C 0.65424(10) 0.37473(12) 0.17521(8)
H11_4 H 0.6754 0.4488 0.1636
C18_4 C 0.68702(9) 0.31242(15) 0.22304(8)
H12_4 H 0.7301 0.3448 0.2434
C19_4 C 0.55409(15) 0.3960(2) 0.09426(12)
H15_4 H 0.6289 0.9727 0.4908
loop_
_geom_bond_atom_site_label_1
_geom_bond_atom_site_label_2
_geom_bond_site_symmetry_1
_geom_bond_site_symmetry_2
N2 C20 1_555 1_555
C20 H13 1_555 1_555
C21 C20 1_555 1_555
H14 C21 1_555 1_555
C23 C22 1_555 1_555
C24 N2 1_555 1_555
Zn2 N2 1_555 1_555
O14 Zn2 1_555 1_555
C21 C22 1_555 1_555
C23 C24 1_555 1_555
O7 C25 1_555 1_555
O8 C31 1_555 1_555
O9 C38 1_555 1_555
O10 C38 1_555 1_555
C25 O6 1_555 1_555
C26 H17 1_555 1_555
C27 C26 1_555 1_555
H18 C27 1_555 1_555
C28 C25 1_555 1_555
C29 C28 1_555 1_555
H19 C29 1_555 1_555
C30 C29 1_555 1_555
H20 C30 1_555 1_555
C31 C26 1_555 1_555
C32 O8 1_555 1_555
C33 C32 1_555 1_555
H21 C33 1_555 1_555
C34 C33 1_555 1_555
H22 C34 1_555 1_555
C35 C34 1_555 1_555
C36 C35 1_555 1_555
H23 C36 1_555 1_555
C37 C32 1_555 1_555
H24 C37 1_555 1_555
C38 C35 1_555 1_555
Zn4 O10 1_555 1_555
Zn8 O9 1_555 1_555
C27 C28 1_555 1_555
C30 C31 1_555 1_555
C36 C37 1_555 1_555
N2_2 C20_2 1_555 1_555
C20_2 H13_2 1_555 1_555
C21_2 C20_2 1_555 1_555
H14_2 C21_2 1_555 1_555
C23_2 C22_2 1_555 1_555
C24_2 N2_2 1_555 1_555
H16_2 C24_2 1_555 1_555
Zn4 N2_2 1_555 1_555
O6_2 Zn4 1_555 1_555
O7_2 C25_2 1_555 1_555
O8_2 C31_2 1_555 1_555
O9_2 C38_2 1_555 1_555
C25_2 O6_2 1_555 1_555
C26_2 H17_2 1_555 1_555
C27_2 C26_2 1_555 1_555
H18_2 C27_2 1_555 1_555
C28_2 C25_2 1_555 1_555
C29_2 C28_2 1_555 1_555
H19_2 C29_2 1_555 1_555
C30_2 C29_2 1_555 1_555
H20_2 C30_2 1_555 1_555
C31_2 C26_2 1_555 1_555
C32_2 O8_2 1_555 1_555
C33_2 C32_2 1_555 1_555
H21_2 C33_2 1_555 1_555
C34_2 C33_2 1_555 1_555
H22_2 C34_2 1_555 1_555
C35_2 C34_2 1_555 1_555
C36_2 C35_2 1_555 1_555
H23_2 C36_2 1_555 1_555
C37_2 C32_2 1_555 1_555
H24_2 C37_2 1_555 1_555
C38_2 C35_2 1_555 1_555
Zn8 O7_2 1_555 1_555
Zn6 O9_2 1_555 1_555
O12_2 Zn4 1_555 1_555
O14_2 Zn4 1_555 1_555
C21_2 C22_2 1_555 1_555
C23_2 C24_2 1_555 1_555
C27_2 C28_2 1_555 1_555
C30_2 C31_2 1_555 1_555
C36_2 C37_2 1_555 1_555
O12 C25_3 1_555 1_555
O8_3 C31_3 1_555 1_555
O14_2 C38_3 1_555 1_555
O10_2 C38_3 1_555 1_555
C25_3 O6_3 1_555 1_555
C26_3 H17_3 1_555 1_555
C27_3 C26_3 1_555 1_555
H18_3 C27_3 1_555 1_555
C28_3 C25_3 1_555 1_555
C29_3 C28_3 1_555 1_555
H19_3 C29_3 1_555 1_555
C30_3 C29_3 1_555 1_555
H20_3 C30_3 1_555 1_555
C31_3 C26_3 1_555 1_555
C32_3 O8_3 1_555 1_555
C33_3 C32_3 1_555 1_555
H21_3 C33_3 1_555 1_555
C34_3 C33_3 1_555 1_555
H22_3 C34_3 1_555 1_555
C35_3 C34_3 1_555 1_555
C36_3 C35_3 1_555 1_555
H23_3 C36_3 1_555 1_555
C37_3 C32_3 1_555 1_555
H24_3 C37_3 1_555 1_555
C38_3 C35_3 1_555 1_555
Zn8 O10_2 1_555 1_555
C27_3 C28_3 1_555 1_555
C30_3 C31_3 1_555 1_555
C36_3 C37_3 1_555 1_555
N2_3 C20_3 1_555 1_555
C20_3 H13_3 1_555 1_555
C21_3 C20_3 1_555 1_555
H14_3 C21_3 1_555 1_555
C23_3 C22_3 1_555 1_555
C24_3 N2_3 1_555 1_555
Zn6 N2_3 1_555 1_555
C21_3 C22_3 1_555 1_555
C23_3 C24_3 1_555 1_555
N2_4 C20_4 1_555 1_555
C20_4 H13_4 1_555 1_555
C21_4 C20_4 1_555 1_555
H14_4 C21_4 1_555 1_555
C23_4 C22_4 1_555 1_555
C24_4 N2_4 1_555 1_555
H16_4 C24_4 1_555 1_555
Zn8 N2_4 1_555 1_555
O6_4 Zn8 1_555 1_555
O12_2 C25_4 1_555 1_555
O8_4 C31_4 1_555 1_555
O14 C38_4 1_555 1_555
C25_4 O6_4 1_555 1_555
C26_4 H17_4 1_555 1_555
C27_4 C26_4 1_555 1_555
H18_4 C27_4 1_555 1_555
C28_4 C25_4 1_555 1_555
C29_4 C28_4 1_555 1_555
H19_4 C29_4 1_555 1_555
C30_4 C29_4 1_555 1_555
H20_4 C30_4 1_555 1_555
C31_4 C26_4 1_555 1_555
C32_4 O8_4 1_555 1_555
C33_4 C32_4 1_555 1_555
H21_4 C33_4 1_555 1_555
C34_4 C33_4 1_555 1_555
H22_4 C34_4 1_555 1_555
C35_4 C34_4 1_555 1_555
C36_4 C35_4 1_555 1_555
H23_4 C36_4 1_555 1_555
C37_4 C32_4 1_555 1_555
H24_4 C37_4 1_555 1_555
C38_4 C35_4 1_555 1_555
C21_4 C22_4 1_555 1_555
C23_4 C24_4 1_555 1_555
C27_4 C28_4 1_555 1_555
C30_4 C31_4 1_555 1_555
C36_4 C37_4 1_555 1_555
Zn3 O5 1_555 1_555
N1 Zn1 1_555 1_555
C1 N1 1_555 1_555
H1 C1 1_555 1_555
C2 C1 1_555 1_555
H2 C2 1_555 1_555
C3 C2 1_555 1_555
C4 C3 1_555 1_555
C5 N1 1_555 1_555
O11 Zn1 1_555 1_555
O13 Zn1 1_555 1_555
C4 C5 1_555 1_555
O1 C6 1_555 1_555
O2 C6 1_555 1_555
O3 C12 1_555 1_555
O4 C19 1_555 1_555
C6 C9 1_555 1_555
C7 H5 1_555 1_555
C8 C7 1_555 1_555
H6 C8 1_555 1_555
C9 C8 1_555 1_555
C10 C9 1_555 1_555
H7 C10 1_555 1_555
C11 C10 1_555 1_555
H8 C11 1_555 1_555
C12 C7 1_555 1_555
C13 O3 1_555 1_555
C14 C13 1_555 1_555
H9 C14 1_555 1_555
C15 C14 1_555 1_555
H10 C15 1_555 1_555
C16 C15 1_555 1_555
C17 C16 1_555 1_555
H11 C17 1_555 1_555
C18 C13 1_555 1_555
H12 C18 1_555 1_555
C19 C16 1_555 1_555
Zn5 O2 1_555 1_555
Zn7 O4 1_555 1_555
C11 C12 1_555 1_555
C17 C18 1_555 1_555
Zn3 O1_2 1_555 1_555
O1_2 C6_2 1_555 1_555
O2_2 C6_2 1_555 1_555
O3_2 C12_2 1_555 1_555
O4_2 C19_2 1_555 1_555
O15 C19_2 1_555 1_555
N1_2 Zn3 1_555 1_555
C1_2 N1_2 1_555 1_555
H1_2 C1_2 1_555 1_555
C2_2 C1_2 1_555 1_555
H2_2 C2_2 1_555 1_555
C3_2 C2_2 1_555 1_555
C4_2 C3_2 1_555 1_555
C5_2 N1_2 1_555 1_555
H4_2 C5_2 1_555 1_555
C6_2 C9_2 1_555 1_555
C7_2 H5_2 1_555 1_555
C8_2 C7_2 1_555 1_555
H6_2 C8_2 1_555 1_555
C9_2 C8_2 1_555 1_555
C10_2 C9_2 1_555 1_555
H7_2 C10_2 1_555 1_555
C11_2 C10_2 1_555 1_555
H8_2 C11_2 1_555 1_555
C12_2 C7_2 1_555 1_555
C13_2 O3_2 1_555 1_555
C14_2 C13_2 1_555 1_555
H9_2 C14_2 1_555 1_555
C15_2 C14_2 1_555 1_555
H10_2 C15_2 1_555 1_555
C16_2 C15_2 1_555 1_555
C17_2 C16_2 1_555 1_555
H11_2 C17_2 1_555 1_555
C18_2 C13_2 1_555 1_555
H12_2 C18_2 1_555 1_555
C19_2 C16_2 1_555 1_555
Zn5 O4_2 1_555 1_555
O13_2 Zn3 1_555 1_555
C4_2 C5_2 1_555 1_555
C11_2 C12_2 1_555 1_555
C17_2 C18_2 1_555 1_555
O1_3 C6_3 1_555 1_555
O11 C6_3 1_555 1_555
O3_3 C12_3 1_555 1_555
O13_2 C19_3 1_555 1_555
C6_3 C9_3 1_555 1_555
C7_3 H5_3 1_555 1_555
C8_3 C7_3 1_555 1_555
H6_3 C8_3 1_555 1_555
C9_3 C8_3 1_555 1_555
C10_3 C9_3 1_555 1_555
H7_3 C10_3 1_555 1_555
C11_3 C10_3 1_555 1_555
H8_3 C11_3 1_555 1_555
C12_3 C7_3 1_555 1_555
C13_3 O3_3 1_555 1_555
C14_3 C13_3 1_555 1_555
H9_3 C14_3 1_555 1_555
C15_3 C14_3 1_555 1_555
H10_3 C15_3 1_555 1_555
C16_3 C15_3 1_555 1_555
C17_3 C16_3 1_555 1_555
H11_3 C17_3 1_555 1_555
C18_3 C13_3 1_555 1_555
H12_3 C18_3 1_555 1_555
C19_3 C16_3 1_555 1_555
C11_3 C12_3 1_555 1_555
C17_3 C18_3 1_555 1_555
N1_3 Zn5 1_555 1_555
C1_3 N1_3 1_555 1_555
H1_3 C1_3 1_555 1_555
C2_3 C1_3 1_555 1_555
H2_3 C2_3 1_555 1_555
C3_3 C2_3 1_555 1_555
C4_3 C3_3 1_555 1_555
C5_3 N1_3 1_555 1_555
C4_3 C5_3 1_555 1_555
Zn7 O5_2 1_555 1_555
Zn7 O1_4 1_555 1_555
O1_4 C6_4 1_555 1_555
O11_2 C6_4 1_555 1_555
O3_4 C12_4 1_555 1_555
O13 C19_4 1_555 1_555
O15_2 C19_4 1_555 1_555
N1_4 Zn7 1_555 1_555
C1_4 N1_4 1_555 1_555
H1_4 C1_4 1_555 1_555
C2_4 C1_4 1_555 1_555
H2_4 C2_4 1_555 1_555
C3_4 C2_4 1_555 1_555
C4_4 C3_4 1_555 1_555
C5_4 N1_4 1_555 1_555
H4_4 C5_4 1_555 1_555
C6_4 C9_4 1_555 1_555
C7_4 H5_4 1_555 1_555
C8_4 C7_4 1_555 1_555
H6_4 C8_4 1_555 1_555
C9_4 C8_4 1_555 1_555
C10_4 C9_4 1_555 1_555
H7_4 C10_4 1_555 1_555
C11_4 C10_4 1_555 1_555
H8_4 C11_4 1_555 1_555
C12_4 C7_4 1_555 1_555
C13_4 O3_4 1_555 1_555
C14_4 C13_4 1_555 1_555
H9_4 C14_4 1_555 1_555
C15_4 C14_4 1_555 1_555
H10_4 C15_4 1_555 1_555
C16_4 C15_4 1_555 1_555
C17_4 C16_4 1_555 1_555
H11_4 C17_4 1_555 1_555
C18_4 C13_4 1_555 1_555
H12_4 C18_4 1_555 1_555
C19_4 C16_4 1_555 1_555
C4_4 C5_4 1_555 1_555
C11_4 C12_4 1_555 1_555
C17_4 C18_4 1_555 1_555

#END
