
###############################################################################
#
# This file contains modified crystal structure data generated from the
# MOF subset of the Cambridge Structural Database (CSD) v543 
# hosted by the Cambridge Crystallographic Data Centre (CCDC).
#
# This work is licensed under the Creative Commons
# Attribution-NonCommercial-ShareAlike 4.0 International License.
# To view a copy of this license, visit
# http://creativecommons.org/licenses/by-nc-sa/4.0/
# or send a letter to
# Creative Commons, PO Box 1866, Mountain View, CA 94042, USA.
#
# CIF created using the CSD Python API on 29 September 2022
# The structure has been converted into the P1 space group
# The structure has a 3D framework
# The original CSD entry SUGCOP is in the orthorhombic crystal system
# The original CSD entry SUGCOP is in a Sohncke space group
# The framework has been calculated to contain at least 10.0% void space
# The void calculation uses a probe of radius 1.32A, grid spacing 0.4
#
###############################################################################

data_SUGCOP
_chemical_formula_moiety         '(C96 H144 Ag24 F16 O16 S12)n'
_symmetry_cell_setting           triclinic
_symmetry_space_group_name_H-M   'P 1'
_symmetry_Int_Tables_number      1
_space_group_name_Hall           'P 1'
loop_
_symmetry_equiv_pos_site_id
_symmetry_equiv_pos_as_xyz
1 x,y,z
_cell_length_a                   11.3195(7)
_cell_length_b                   22.5808(11)
_cell_length_c                   23.2576(14)
_cell_angle_alpha                90
_cell_angle_beta                 90
_cell_angle_gamma                90
_cell_volume                     5944.72
loop_
_atom_site_label
_atom_site_type_symbol
_atom_site_fract_x
_atom_site_fract_y
_atom_site_fract_z
H5 H 0.586665 0.015912 0.517389
Ag1 Ag 0.3877(2) 0.79873(9) 0.54743(9)
Ag2 Ag 0.2280(3) 0.65738(10) 0.56170(10)
S1 S 0.5548(6) 0.8573(3) 0.5181(3)
S2 S 0.2185(6) 0.7632(3) 0.5958(3)
F1 F 0.103(3) 0.6158(12) 0.7750(13)
F2 F 0.088(4) 0.4599(14) 0.6413(14)
O1 O 0.197(2) 0.5874(9) 0.6295(10)
O2 O 0.0136(18) 0.6197(12) 0.6515(10)
C1 C 0.498(2) 0.9377(16) 0.5225(11)
C2 C 0.440(3) 0.9417(12) 0.5800(15)
H1 H 0.390902 0.907463 0.585868
H2 H 0.391874 0.976746 0.581576
H3 H 0.498916 0.943422 0.609550
C3 C 0.608(3) 0.9747(15) 0.5173(15)
H4 H 0.659295 0.966670 0.549140
H6 H 0.647603 0.965342 0.481988
C4 C 0.416(3) 0.944(2) 0.4727(16)
H7 H 0.446513 0.973055 0.446335
H8 H 0.339741 0.957023 0.486343
H9 H 0.407540 0.906842 0.453467
C5 C 0.2606(19) 0.7652(10) 0.6684(14)
C6 C 0.151(3) 0.7517(19) 0.7074(17)
H10 H 0.089205 0.779644 0.699156
H11 H 0.173167 0.754861 0.747058
H12 H 0.122965 0.712315 0.699728
C7 C 0.312(4) 0.8275(14) 0.6849(13)
H13 H 0.378012 0.836530 0.660388
H14 H 0.338097 0.826820 0.724240
H15 H 0.252227 0.857115 0.680290
C8 C 0.3505(19) 0.7157(13) 0.6871(14)
H16 H 0.349661 0.684208 0.659454
H17 H 0.328303 0.700529 0.724140
H18 H 0.428522 0.732289 0.689306
C9 C 0.099(2) 0.5828(17) 0.6570(17)
C10 C 0.102(3) 0.5391(18) 0.7046(17)
C11 C 0.101(8) 0.556(2) 0.758(2)
C12 C 0.100(5) 0.485(2) 0.6951(19)
F3 F 0.103(3) 0.3842(12) 0.7250(13)
F4 F 0.088(4) 0.5401(14) 0.8587(14)
O3 O 0.197(2) 0.4126(9) 0.8705(10)
O4 O 0.0136(18) 0.3803(12) 0.8485(10)
C13 C 0.099(2) 0.4172(17) 0.8430(17)
C14 C 0.102(3) 0.4609(18) 0.7954(17)
C15 C 0.101(8) 0.444(2) 0.742(2)
C16 C 0.100(5) 0.515(2) 0.8049(19)
Ag6 Ag 0.0359(3) 0.81955(11) 0.57563(11)
Ag8 Ag 0.1123(2) 0.79873(9) 0.45257(9)
Ag11 Ag 0.7280(3) 0.84262(10) 0.43830(10)
Ag12 Ag 0.7720(3) 0.84262(10) 0.56170(10)
Ag14 Ag 0.2720(3) 0.65738(10) 0.43830(10)
Ag15 Ag 0.2280(3) 0.34262(10) 0.93830(10)
Ag16 Ag 0.4641(3) 0.81955(11) 0.42437(11)
S6 S 0.0548(6) 0.6427(3) 0.4819(3)
S7 S 0.4452(6) 0.6427(3) 0.5181(3)
Ag3 Ag 0.9641(3) 0.68045(11) 0.57563(11)
Ag4 Ag 0.6123(2) 0.70127(9) 0.54743(9)
S4 S 0.7815(6) 0.7368(3) 0.5958(3)
C17 C 0.502(2) 0.5623(16) 0.5225(11)
C18 C 0.560(3) 0.5583(12) 0.5800(15)
H19 H 0.609098 0.592537 0.585868
H20 H 0.608126 0.523254 0.581576
H21 H 0.501084 0.556578 0.609550
C19 C 0.392(3) 0.5253(15) 0.5173(15)
H22 H 0.340705 0.533330 0.549140
H23 H 0.413335 0.484088 0.517389
H24 H 0.352397 0.534658 0.481988
C20 C 0.584(3) 0.556(2) 0.4727(16)
H25 H 0.553487 0.526945 0.446335
H26 H 0.660259 0.542977 0.486343
H27 H 0.592460 0.593158 0.453467
C21 C 0.7394(19) 0.7348(10) 0.6684(14)
C22 C 0.849(3) 0.7483(19) 0.7074(17)
H28 H 0.910795 0.720356 0.699156
H29 H 0.826833 0.745139 0.747058
H30 H 0.877035 0.787685 0.699728
C23 C 0.688(4) 0.6725(14) 0.6849(13)
H31 H 0.621988 0.663470 0.660388
H32 H 0.661903 0.673180 0.724240
H33 H 0.747773 0.642885 0.680290
C24 C 0.6495(19) 0.7843(13) 0.6871(14)
H34 H 0.650339 0.815792 0.659454
H35 H 0.671697 0.799471 0.724140
H36 H 0.571478 0.767711 0.689306
Ag7 Ag 0.8877(2) 0.70127(9) 0.45257(9)
Ag17 Ag 0.5359(3) 0.68045(11) 0.42437(11)
Ag18 Ag 0.9641(3) 0.31955(11) 0.92437(11)
S8 S 0.9452(6) 0.8573(3) 0.4819(3)
O5 O 0.803(2) 0.9126(9) 0.6295(10)
O6 O 0.9864(18) 0.8803(12) 0.6515(10)
S3 S 0.0548(6) 0.3573(3) 0.0181(3)
C19_2 C 0.108(3) 0.4747(15) 0.0173(15)
H22_2 H 0.159295 0.466670 0.049140
H23_2 H 0.086665 0.515912 0.017389
Ag9 Ag 0.2720(3) 0.34262(10) 0.06170(10)
H24_2 H 0.147603 0.465342 0.981988
Ag1_2 Ag 0.1123(2) 0.20127(9) 0.04743(9)
Ag3_2 Ag 0.5359(3) 0.31955(11) 0.07563(11)
S2_2 S 0.2815(6) 0.2368(3) 0.0958(3)
F1_2 F 0.397(3) 0.3842(12) 0.2750(13)
F2_2 F 0.412(4) 0.5401(14) 0.1413(14)
O1_2 O 0.303(2) 0.4126(9) 0.1295(10)
O2_2 O 0.4864(18) 0.3803(12) 0.1515(10)
C1_2 C 0.002(2) 0.0623(16) 0.0225(11)
C2_2 C 0.060(3) 0.0583(12) 0.0800(15)
H1_2 H 0.109098 0.092537 0.085868
H2_2 H 0.108126 0.023254 0.081576
H3_2 H 0.001084 0.056578 0.109550
C5_2 C 0.2394(19) 0.2348(10) 0.1684(14)
C6_2 C 0.349(3) 0.2483(19) 0.2074(17)
H10_2 H 0.410795 0.220356 0.199156
H11_2 H 0.326833 0.245139 0.247058
H12_2 H 0.377035 0.287685 0.199728
C7_2 C 0.188(4) 0.1725(14) 0.1849(13)
H13_2 H 0.121988 0.163470 0.160388
H14_2 H 0.161903 0.173180 0.224240
H15_2 H 0.247773 0.142885 0.180290
C8_2 C 0.1495(19) 0.2843(13) 0.1871(14)
H16_2 H 0.150339 0.315792 0.159454
H17_2 H 0.171697 0.299471 0.224140
H18_2 H 0.071478 0.267711 0.189306
C9_2 C 0.401(2) 0.4172(17) 0.1570(17)
C10_2 C 0.398(3) 0.4609(18) 0.2046(17)
C11_2 C 0.399(8) 0.444(2) 0.258(2)
C12_2 C 0.400(5) 0.515(2) 0.1951(19)
F3_2 F 0.397(3) 0.6158(12) 0.2250(13)
F4_2 F 0.412(4) 0.4599(14) 0.3587(14)
O3_2 O 0.303(2) 0.5874(9) 0.3705(10)
O4_2 O 0.4864(18) 0.6197(12) 0.3485(10)
C13_2 C 0.401(2) 0.5828(17) 0.3430(17)
C14_2 C 0.398(3) 0.5391(18) 0.2954(17)
C15_2 C 0.399(8) 0.556(2) 0.242(2)
C16_2 C 0.400(5) 0.485(2) 0.3049(19)
Ag4_2 Ag 0.8877(2) 0.29873(9) 0.04743(9)
Ag5 Ag 0.7280(3) 0.15738(10) 0.06170(10)
Ag6_2 Ag 0.4641(3) 0.18045(11) 0.07563(11)
S4_2 S 0.7185(6) 0.2632(3) 0.0958(3)
C17_2 C 0.998(2) 0.4377(16) 0.0225(11)
C18_2 C 0.940(3) 0.4417(12) 0.0800(15)
H19_2 H 0.890902 0.407463 0.085868
H20_2 H 0.891874 0.476746 0.081576
H21_2 H 0.998916 0.443422 0.109550
C21_2 C 0.7606(19) 0.2652(10) 0.1684(14)
C22_2 C 0.651(3) 0.2517(19) 0.2074(17)
H28_2 H 0.589205 0.279644 0.199156
H29_2 H 0.673167 0.254861 0.247058
H30_2 H 0.622965 0.212315 0.199728
C23_2 C 0.812(4) 0.3275(14) 0.1849(13)
H31_2 H 0.878012 0.336530 0.160388
H32_2 H 0.838097 0.326820 0.224240
H33_2 H 0.752227 0.357115 0.180290
C24_2 C 0.8505(19) 0.2157(13) 0.1871(14)
H34_2 H 0.849661 0.184208 0.159454
H35_2 H 0.828303 0.200529 0.224140
H36_2 H 0.928522 0.232289 0.189306
S5 S 0.9452(6) 0.1427(3) 0.0181(3)
O5_2 O 0.697(2) 0.0874(9) 0.1295(10)
O6_2 O 0.5136(18) 0.1197(12) 0.1515(10)
C4_2 C 0.084(3) 0.056(2) 0.9727(16)
H7_2 H 0.053487 0.026945 0.946335
H8_2 H 0.160259 0.042977 0.986343
H9_2 H 0.092460 0.093158 0.953467
C20_2 C 0.916(3) 0.444(2) 0.9727(16)
H25_2 H 0.946513 0.473055 0.946335
H26_2 H 0.839741 0.457023 0.986343
H27_2 H 0.907540 0.406842 0.953467
Ag7_2 Ag 0.6123(2) 0.29873(9) 0.95257(9)
Ag8_2 Ag 0.3877(2) 0.20127(9) 0.95257(9)
Ag10 Ag 0.7720(3) 0.15738(10) 0.93830(10)
Ag16_2 Ag 0.0359(3) 0.18045(11) 0.92437(11)
S6_2 S 0.4452(6) 0.3573(3) 0.9819(3)
S8_2 S 0.5548(6) 0.1427(3) 0.9819(3)
C3_2 C 0.892(3) 0.0253(15) 0.0173(15)
H4_2 H 0.840705 0.033330 0.049140
H6_2 H 0.852397 0.034658 0.981988
H24_3 H 0.647603 0.034658 0.018012
C20_3 C 0.416(3) 0.056(2) 0.0273(16)
H25_3 H 0.446513 0.026945 0.053665
H26_3 H 0.339741 0.042977 0.013657
H27_3 H 0.407540 0.093158 0.046533
S4_3 S 0.2185(6) 0.2368(3) 0.9042(3)
C17_3 C 0.498(2) 0.0623(16) 0.9775(11)
C18_3 C 0.440(3) 0.0583(12) 0.9200(15)
H19_3 H 0.390902 0.092537 0.914132
H20_3 H 0.391874 0.023254 0.918424
H21_3 H 0.498916 0.056578 0.890450
C19_3 C 0.608(3) 0.0253(15) 0.9827(15)
H22_3 H 0.659295 0.033330 0.950860
C21_3 C 0.2606(19) 0.2348(10) 0.8316(14)
C22_3 C 0.151(3) 0.2483(19) 0.7926(17)
H28_3 H 0.089205 0.220356 0.800844
H29_3 H 0.173167 0.245139 0.752942
H30_3 H 0.122965 0.287685 0.800272
C23_3 C 0.312(4) 0.1725(14) 0.8151(13)
H31_3 H 0.378012 0.163470 0.839612
H32_3 H 0.338097 0.173180 0.775760
H33_3 H 0.252227 0.142885 0.819710
C24_3 C 0.3505(19) 0.2843(13) 0.8129(14)
H34_3 H 0.349661 0.315792 0.840546
H35_3 H 0.328303 0.299471 0.775860
H36_3 H 0.428522 0.267711 0.810694
H23_3 H 0.586665 0.984088 0.982611
H6_3 H 0.352397 0.465342 0.018012
C4_3 C 0.584(3) 0.444(2) 0.0273(16)
H7_3 H 0.553487 0.473055 0.053665
H8_3 H 0.660259 0.457023 0.013657
H9_3 H 0.592460 0.406842 0.046533
S2_3 S 0.7815(6) 0.2632(3) 0.9042(3)
F1_3 F 0.897(3) 0.1158(12) 0.7250(13)
O1_3 O 0.803(2) 0.0874(9) 0.8705(10)
O2_3 O 0.9864(18) 0.1197(12) 0.8485(10)
C1_3 C 0.502(2) 0.4377(16) 0.9775(11)
C2_3 C 0.560(3) 0.4417(12) 0.9200(15)
H1_3 H 0.609098 0.407463 0.914132
H2_3 H 0.608126 0.476746 0.918424
H3_3 H 0.501084 0.443422 0.890450
C3_3 C 0.392(3) 0.4747(15) 0.9827(15)
H4_3 H 0.340705 0.466670 0.950860
H5_2 H 0.413335 0.515912 0.982611
C5_3 C 0.7394(19) 0.2652(10) 0.8316(14)
C6_3 C 0.849(3) 0.2517(19) 0.7926(17)
H10_3 H 0.910795 0.279644 0.800844
H11_3 H 0.826833 0.254861 0.752942
H12_3 H 0.877035 0.212315 0.800272
C7_3 C 0.688(4) 0.3275(14) 0.8151(13)
H13_3 H 0.621988 0.336530 0.839612
H14_3 H 0.661903 0.326820 0.775760
H15_3 H 0.747773 0.357115 0.819710
C8_3 C 0.6495(19) 0.2157(13) 0.8129(14)
H16_3 H 0.650339 0.184208 0.840546
H17_3 H 0.671697 0.200529 0.775860
H18_3 H 0.571478 0.232289 0.810694
C9_3 C 0.901(2) 0.0828(17) 0.8430(17)
C10_3 C 0.898(3) 0.0391(18) 0.7954(17)
C11_3 C 0.899(8) 0.056(2) 0.742(2)
F4_3 F 0.912(4) 0.0401(14) 0.6413(14)
C16_3 C 0.900(5) 0.015(2) 0.6951(19)
F2_3 F 0.912(4) 0.9599(14) 0.8587(14)
C12_3 C 0.900(5) 0.985(2) 0.8049(19)
F3_3 F 0.897(3) 0.8842(12) 0.7750(13)
C13_3 C 0.901(2) 0.9172(17) 0.6570(17)
C14_3 C 0.898(3) 0.9609(18) 0.7046(17)
C15_3 C 0.899(8) 0.944(2) 0.758(2)
C3_4 C 0.108(3) 0.5253(15) 0.4827(15)
H4_4 H 0.159295 0.533330 0.450860
H5_3 H 0.086665 0.484088 0.482611
H6_4 H 0.147603 0.534658 0.518012
F2_4 F 0.588(4) 0.0401(14) 0.3587(14)
C12_4 C 0.600(5) 0.015(2) 0.3049(19)
F3_4 F 0.603(3) 0.1158(12) 0.2750(13)
C13_4 C 0.599(2) 0.0828(17) 0.1570(17)
C14_4 C 0.602(3) 0.0391(18) 0.2046(17)
C15_4 C 0.601(8) 0.056(2) 0.258(2)
S2_4 S 0.7185(6) 0.7368(3) 0.4042(3)
F1_4 F 0.603(3) 0.8842(12) 0.2250(13)
O1_4 O 0.697(2) 0.9126(9) 0.3705(10)
O2_4 O 0.5136(18) 0.8803(12) 0.3485(10)
C1_4 C 0.998(2) 0.5623(16) 0.4775(11)
C2_4 C 0.940(3) 0.5583(12) 0.4200(15)
H1_4 H 0.890902 0.592537 0.414132
H2_4 H 0.891874 0.523254 0.418424
H3_4 H 0.998916 0.556578 0.390450
C4_4 C 0.916(3) 0.556(2) 0.5273(16)
H7_4 H 0.946513 0.526945 0.553665
H8_4 H 0.839741 0.542977 0.513657
H9_4 H 0.907540 0.593158 0.546533
C5_4 C 0.7606(19) 0.7348(10) 0.3316(14)
C6_4 C 0.651(3) 0.7483(19) 0.2926(17)
H10_4 H 0.589205 0.720356 0.300844
H11_4 H 0.673167 0.745139 0.252942
H12_4 H 0.622965 0.787685 0.300272
C7_4 C 0.812(4) 0.6725(14) 0.3151(13)
H13_4 H 0.878012 0.663470 0.339612
H14_4 H 0.838097 0.673180 0.275760
H15_4 H 0.752227 0.642885 0.319710
C8_4 C 0.8505(19) 0.7843(13) 0.3129(14)
H16_4 H 0.849661 0.815792 0.340546
H17_4 H 0.828303 0.799471 0.275860
H18_4 H 0.928522 0.767711 0.310694
C9_4 C 0.599(2) 0.9172(17) 0.3430(17)
C10_4 C 0.602(3) 0.9609(18) 0.2954(17)
C11_4 C 0.601(8) 0.944(2) 0.242(2)
F4_4 F 0.588(4) 0.9599(14) 0.1413(14)
C16_4 C 0.600(5) 0.985(2) 0.1951(19)
S4_4 S 0.2815(6) 0.7632(3) 0.4042(3)
C17_4 C 0.002(2) 0.9377(16) 0.4775(11)
C18_4 C 0.060(3) 0.9417(12) 0.4200(15)
H19_4 H 0.109098 0.907463 0.414132
H20_4 H 0.108126 0.976746 0.418424
H21_4 H 0.001084 0.943422 0.390450
C20_4 C 0.084(3) 0.944(2) 0.5273(16)
H25_4 H 0.053487 0.973055 0.553665
H26_4 H 0.160259 0.957023 0.513657
H27_4 H 0.092460 0.906842 0.546533
C21_4 C 0.2394(19) 0.7652(10) 0.3316(14)
C22_4 C 0.349(3) 0.7517(19) 0.2926(17)
H28_4 H 0.410795 0.779644 0.300844
H29_4 H 0.326833 0.754861 0.252942
H30_4 H 0.377035 0.712315 0.300272
C23_4 C 0.188(4) 0.8275(14) 0.3151(13)
H31_4 H 0.121988 0.836530 0.339612
H32_4 H 0.161903 0.826820 0.275760
H33_4 H 0.247773 0.857115 0.319710
C24_4 C 0.1495(19) 0.7157(13) 0.3129(14)
H34_4 H 0.150339 0.684208 0.340546
H35_4 H 0.171697 0.700529 0.275860
H36_4 H 0.071478 0.732289 0.310694
C19_4 C 0.892(3) 0.9747(15) 0.4827(15)
H22_4 H 0.840705 0.966670 0.450860
H24_4 H 0.852397 0.965342 0.518012
H5_4 H 0.913335 0.984088 0.017389
H23_4 H 0.913335 0.015912 0.482611
loop_
_geom_bond_atom_site_label_1
_geom_bond_atom_site_label_2
_geom_bond_site_symmetry_1
_geom_bond_site_symmetry_2
Ag1 S1 1_555 1_555
S1 C1 1_555 1_555
S2 Ag1 1_555 1_555
F1 C11 1_555 1_555
F2 C12 1_555 1_555
O1 Ag2 1_555 1_555
O2 C9 1_555 1_555
C1 C2 1_555 1_555
C2 H1 1_555 1_555
H2 C2 1_555 1_555
H3 C2 1_555 1_555
C3 C1 1_555 1_555
H4 C3 1_555 1_555
H6 C3 1_555 1_555
C4 C1 1_555 1_555
H7 C4 1_555 1_555
H8 C4 1_555 1_555
H9 C4 1_555 1_555
C5 S2 1_555 1_555
C6 C5 1_555 1_555
H10 C6 1_555 1_555
H11 C6 1_555 1_555
H12 C6 1_555 1_555
C7 C5 1_555 1_555
H13 C7 1_555 1_555
H14 C7 1_555 1_555
H15 C7 1_555 1_555
C8 C5 1_555 1_555
H16 C8 1_555 1_555
H17 C8 1_555 1_555
H18 C8 1_555 1_555
C9 O1 1_555 1_555
C10 C9 1_555 1_555
C11 C10 1_555 1_555
C12 C10 1_555 1_555
F3 C15 1_555 1_555
F4 C16 1_555 1_555
O3 C13 1_555 1_555
O4 C13 1_555 1_555
C13 C14 1_555 1_555
C14 C15 1_555 1_555
C15 C12 1_555 1_555
C16 C11 1_555 1_555
Ag6 S2 1_555 1_555
Ag8 Ag6 1_555 1_555
Ag11 S1 1_555 1_555
Ag12 S1 1_555 1_555
Ag14 Ag2 1_555 1_555
Ag15 O3 1_555 1_555
Ag16 Ag1 1_555 1_555
S6 Ag2 1_555 1_555
S7 Ag2 1_555 1_555
Ag2 S2 1_555 1_555
S1 Ag16 1_555 1_555
C14 C16 1_555 1_555
Ag11 Ag12 1_555 1_555
Ag11 Ag16 1_555 1_555
Ag14 S6 1_555 1_555
Ag14 S7 1_555 1_555
Ag4 S7 1_555 1_555
S7 C17 1_555 1_555
S4 Ag3 1_555 1_555
C17 C18 1_555 1_555
C18 H19 1_555 1_555
H20 C18 1_555 1_555
H21 C18 1_555 1_555
C19 C17 1_555 1_555
H22 C19 1_555 1_555
H23 C19 1_555 1_555
H24 C19 1_555 1_555
C20 C17 1_555 1_555
H25 C20 1_555 1_555
H26 C20 1_555 1_555
H27 C20 1_555 1_555
C21 S4 1_555 1_555
C22 C21 1_555 1_555
H28 C22 1_555 1_555
H29 C22 1_555 1_555
H30 C22 1_555 1_555
C23 C21 1_555 1_555
H31 C23 1_555 1_555
H32 C23 1_555 1_555
H33 C23 1_555 1_555
C24 C21 1_555 1_555
H34 C24 1_555 1_555
H35 C24 1_555 1_555
H36 C24 1_555 1_555
Ag7 Ag3 1_555 1_555
Ag17 Ag4 1_555 1_555
S8 Ag12 1_555 1_555
O5 Ag12 1_555 1_555
Ag4 S4 1_555 1_555
Ag12 S4 1_555 1_555
S7 Ag17 1_555 1_555
Ag11 S8 1_555 1_555
Ag14 Ag17 1_555 1_555
H22_2 C19_2 1_555 1_555
H23_2 C19_2 1_555 1_555
Ag9 S3 1_555 1_555
Ag9 Ag3_2 1_555 1_555
Ag3_2 O2_2 1_555 1_555
S2_2 Ag1_2 1_555 1_555
F1_2 C11_2 1_555 1_555
F2_2 C12_2 1_555 1_555
O1_2 Ag9 1_555 1_555
O2_2 C9_2 1_555 1_555
C1_2 C2_2 1_555 1_555
C2_2 H1_2 1_555 1_555
H2_2 C2_2 1_555 1_555
H3_2 C2_2 1_555 1_555
C5_2 S2_2 1_555 1_555
C6_2 C5_2 1_555 1_555
H10_2 C6_2 1_555 1_555
H11_2 C6_2 1_555 1_555
H12_2 C6_2 1_555 1_555
C7_2 C5_2 1_555 1_555
H13_2 C7_2 1_555 1_555
H14_2 C7_2 1_555 1_555
H15_2 C7_2 1_555 1_555
C8_2 C5_2 1_555 1_555
H16_2 C8_2 1_555 1_555
H17_2 C8_2 1_555 1_555
H18_2 C8_2 1_555 1_555
C9_2 O1_2 1_555 1_555
C10_2 C9_2 1_555 1_555
C11_2 C10_2 1_555 1_555
C12_2 C10_2 1_555 1_555
F3_2 C15_2 1_555 1_555
F4_2 C16_2 1_555 1_555
O3_2 C13_2 1_555 1_555
O4_2 C13_2 1_555 1_555
C13_2 C14_2 1_555 1_555
C14_2 C15_2 1_555 1_555
C15_2 C12_2 1_555 1_555
C16_2 C11_2 1_555 1_555
Ag5 Ag6_2 1_555 1_555
Ag6_2 S2_2 1_555 1_555
S4_2 Ag3_2 1_555 1_555
C17_2 C18_2 1_555 1_555
C18_2 H19_2 1_555 1_555
H20_2 C18_2 1_555 1_555
H21_2 C18_2 1_555 1_555
C21_2 S4_2 1_555 1_555
C22_2 C21_2 1_555 1_555
H28_2 C22_2 1_555 1_555
H29_2 C22_2 1_555 1_555
H30_2 C22_2 1_555 1_555
C23_2 C21_2 1_555 1_555
H31_2 C23_2 1_555 1_555
H32_2 C23_2 1_555 1_555
H33_2 C23_2 1_555 1_555
C24_2 C21_2 1_555 1_555
H34_2 C24_2 1_555 1_555
H35_2 C24_2 1_555 1_555
H36_2 C24_2 1_555 1_555
Ag14 O3_2 1_555 1_555
Ag17 O4_2 1_555 1_555
S5 Ag5 1_555 1_555
O5_2 Ag5 1_555 1_555
O6_2 Ag6_2 1_555 1_555
Ag9 S2_2 1_555 1_555
C14_2 C16_2 1_555 1_555
Ag4_2 S4_2 1_555 1_555
Ag5 S4_2 1_555 1_555
H7_2 C4_2 1_555 1_555
H8_2 C4_2 1_555 1_555
H9_2 C4_2 1_555 1_555
H25_2 C20_2 1_555 1_555
H26_2 C20_2 1_555 1_555
H27_2 C20_2 1_555 1_555
Ag7_2 S6_2 1_555 1_555
Ag8_2 S8_2 1_555 1_555
Ag10 S8_2 1_555 1_555
Ag15 S6_2 1_555 1_555
H4_2 C3_2 1_555 1_555
H25_3 C20_3 1_555 1_555
H26_3 C20_3 1_555 1_555
H27_3 C20_3 1_555 1_555
S8_2 C17_3 1_555 1_555
S4_3 Ag16_2 1_555 1_555
C17_3 C18_3 1_555 1_555
C18_3 H19_3 1_555 1_555
H20_3 C18_3 1_555 1_555
H21_3 C18_3 1_555 1_555
C19_3 C17_3 1_555 1_555
H22_3 C19_3 1_555 1_555
C21_3 S4_3 1_555 1_555
C22_3 C21_3 1_555 1_555
H28_3 C22_3 1_555 1_555
H29_3 C22_3 1_555 1_555
H30_3 C22_3 1_555 1_555
C23_3 C21_3 1_555 1_555
H31_3 C23_3 1_555 1_555
H32_3 C23_3 1_555 1_555
H33_3 C23_3 1_555 1_555
C24_3 C21_3 1_555 1_555
H34_3 C24_3 1_555 1_555
H35_3 C24_3 1_555 1_555
H36_3 C24_3 1_555 1_555
Ag8_2 S4_3 1_555 1_555
Ag15 S4_3 1_555 1_555
H7_3 C4_3 1_555 1_555
H8_3 C4_3 1_555 1_555
H9_3 C4_3 1_555 1_555
S6_2 C1_3 1_555 1_555
S2_3 Ag7_2 1_555 1_555
F1_3 C11_3 1_555 1_555
O1_3 Ag10 1_555 1_555
O2_3 C9_3 1_555 1_555
C1_3 C2_3 1_555 1_555
C2_3 H1_3 1_555 1_555
H2_3 C2_3 1_555 1_555
H3_3 C2_3 1_555 1_555
C3_3 C1_3 1_555 1_555
H4_3 C3_3 1_555 1_555
H5_2 C3_3 1_555 1_555
C5_3 S2_3 1_555 1_555
C6_3 C5_3 1_555 1_555
H10_3 C6_3 1_555 1_555
H11_3 C6_3 1_555 1_555
H12_3 C6_3 1_555 1_555
C7_3 C5_3 1_555 1_555
H13_3 C7_3 1_555 1_555
H14_3 C7_3 1_555 1_555
H15_3 C7_3 1_555 1_555
C8_3 C5_3 1_555 1_555
H16_3 C8_3 1_555 1_555
H17_3 C8_3 1_555 1_555
H18_3 C8_3 1_555 1_555
C9_3 O1_3 1_555 1_555
C10_3 C9_3 1_555 1_555
C11_3 C10_3 1_555 1_555
F4_3 C16_3 1_555 1_555
C16_3 C11_3 1_555 1_555
Ag18 S2_3 1_555 1_555
Ag10 S2_3 1_555 1_555
F2_3 C12_3 1_555 1_555
F3_3 C15_3 1_555 1_555
O5 C13_3 1_555 1_555
O6 C13_3 1_555 1_555
C13_3 C14_3 1_555 1_555
C14_3 C15_3 1_555 1_555
C15_3 C12_3 1_555 1_555
H4_4 C3_4 1_555 1_555
H5_3 C3_4 1_555 1_555
H6_4 C3_4 1_555 1_555
F2_4 C12_4 1_555 1_555
F3_4 C15_4 1_555 1_555
O5_2 C13_4 1_555 1_555
O6_2 C13_4 1_555 1_555
C13_4 C14_4 1_555 1_555
C14_4 C15_4 1_555 1_555
C15_4 C12_4 1_555 1_555
Ag16 O2_4 1_555 1_555
S2_4 Ag7 1_555 1_555
F1_4 C11_4 1_555 1_555
O1_4 Ag11 1_555 1_555
O2_4 C9_4 1_555 1_555
C1_4 C2_4 1_555 1_555
C2_4 H1_4 1_555 1_555
H2_4 C2_4 1_555 1_555
H3_4 C2_4 1_555 1_555
C4_4 C1_4 1_555 1_555
H7_4 C4_4 1_555 1_555
H8_4 C4_4 1_555 1_555
H9_4 C4_4 1_555 1_555
C5_4 S2_4 1_555 1_555
C6_4 C5_4 1_555 1_555
H10_4 C6_4 1_555 1_555
H11_4 C6_4 1_555 1_555
H12_4 C6_4 1_555 1_555
C7_4 C5_4 1_555 1_555
H13_4 C7_4 1_555 1_555
H14_4 C7_4 1_555 1_555
H15_4 C7_4 1_555 1_555
C8_4 C5_4 1_555 1_555
H16_4 C8_4 1_555 1_555
H17_4 C8_4 1_555 1_555
H18_4 C8_4 1_555 1_555
C9_4 O1_4 1_555 1_555
C10_4 C9_4 1_555 1_555
C11_4 C10_4 1_555 1_555
F4_4 C16_4 1_555 1_555
C16_4 C11_4 1_555 1_555
Ag17 S2_4 1_555 1_555
S4_4 Ag16 1_555 1_555
C17_4 C18_4 1_555 1_555
C18_4 H19_4 1_555 1_555
H20_4 C18_4 1_555 1_555
H21_4 C18_4 1_555 1_555
C20_4 C17_4 1_555 1_555
H25_4 C20_4 1_555 1_555
H26_4 C20_4 1_555 1_555
H27_4 C20_4 1_555 1_555
C21_4 S4_4 1_555 1_555
C22_4 C21_4 1_555 1_555
H28_4 C22_4 1_555 1_555
H29_4 C22_4 1_555 1_555
H30_4 C22_4 1_555 1_555
C23_4 C21_4 1_555 1_555
H31_4 C23_4 1_555 1_555
H32_4 C23_4 1_555 1_555
H33_4 C23_4 1_555 1_555
C24_4 C21_4 1_555 1_555
H34_4 C24_4 1_555 1_555
H35_4 C24_4 1_555 1_555
H36_4 C24_4 1_555 1_555
Ag11 S2_4 1_555 1_555
Ag8 S4_4 1_555 1_555
Ag14 S4_4 1_555 1_555
H22_4 C19_4 1_555 1_555
H24_4 C19_4 1_555 1_555

#END
