
###############################################################################
#
# This file contains modified crystal structure data generated from the
# MOF subset of the Cambridge Structural Database (CSD) v543 
# hosted by the Cambridge Crystallographic Data Centre (CCDC).
#
# This work is licensed under the Creative Commons
# Attribution-NonCommercial-ShareAlike 4.0 International License.
# To view a copy of this license, visit
# http://creativecommons.org/licenses/by-nc-sa/4.0/
# or send a letter to
# Creative Commons, PO Box 1866, Mountain View, CA 94042, USA.
#
# CIF created using the CSD Python API on 29 September 2022
# The structure has been converted into the P1 space group
# The structure has a 3D framework
# The original CSD entry SUJQOE is in the orthorhombic crystal system
# The framework has been calculated to contain at least 10.0% void space
# The void calculation uses a probe of radius 1.32A, grid spacing 0.4
#
###############################################################################

data_SUJQOE
_chemical_formula_moiety         '(C144 H112 N16 O30 Zn8)n'
_symmetry_cell_setting           triclinic
_symmetry_space_group_name_H-M   'P 1'
_symmetry_Int_Tables_number      1
_space_group_name_Hall           'P 1'
loop_
_symmetry_equiv_pos_site_id
_symmetry_equiv_pos_as_xyz
1 x,y,z
_cell_length_a                   13.7372(16)
_cell_length_b                   14.7731(17)
_cell_length_c                   21.075(3)
_cell_angle_alpha                90
_cell_angle_beta                 90
_cell_angle_gamma                90
_cell_volume                     4276.98
loop_
_atom_site_label
_atom_site_type_symbol
_atom_site_fract_x
_atom_site_fract_y
_atom_site_fract_z
N2 N 0.31348(19) 0.91209(17) 0.06563(11)
C13 C 0.0034(2) 0.9281(2) 0.08374(16)
C14 C 0.2540(2) 0.8790(2) 0.02067(14)
C15 C 0.1546(2) 0.8830(2) 0.02343(14)
C16 C 0.1093(2) 0.9232(2) 0.07571(14)
C17 C 0.1712(2) 0.9575(2) 0.12248(15)
H13 H 0.1449 0.9854 0.1587
C18 C 0.2706(2) 0.9506(2) 0.11565(14)
H14 H 0.3104 0.9743 0.1479
Zn4 Zn 0.47123(2) 0.90234(2) 0.061610(14)
O5 O 0.47673(16) 0.03049(14) 0.09623(10)
O1 O 0.47469(17) 0.84733(16) 0.15305(10)
O2 O 0.4749(2) 0.73814(19) 0.08308(11)
O3 O 0.52327(16) 0.53049(14) 0.40377(10)
O4 O 0.45751(16) 0.63257(15) 0.46966(10)
N1 N 0.62856(18) 0.89906(17) 0.05509(11)
C1 C 0.4767(2) 0.7641(2) 0.13906(15)
C2 C 0.4808(2) 0.6955(2) 0.19108(15)
H1 H 0.4866 0.6341 0.1799
C3 C 0.4766(2) 0.7166(2) 0.25211(14)
H2 H 0.4684 0.7779 0.2630
C4 C 0.4838(2) 0.6509(2) 0.30320(13)
H3 H 0.4921 0.5896 0.2925
C5 C 0.4793(2) 0.6730(2) 0.36395(14)
H4 H 0.4704 0.7342 0.3746
C6 C 0.4876(2) 0.6061(2) 0.41624(14)
C7 C 0.6844(2) 0.9403(2) 0.09950(14)
H5 H 0.6530 0.9693 0.1335
C8 C 0.7838(2) 0.9422(2) 0.09770(15)
H6 H 0.8190 0.9722 0.1296
C9 C 0.8324(2) 0.8993(2) 0.04830(14)
C10 C 0.7768(2) 0.8564(2) 0.00262(15)
C11 C 0.6770(2) 0.8571(2) 0.00826(14)
C12 C 0.9386(2) 0.8968(2) 0.04207(16)
H9 H 0.9636 0.8705 0.0049
H10 H 0.9794 0.9551 0.1210
Zn2 Zn 0.52877(2) 0.40234(2) 0.438390(14)
Zn3 Zn 0.47123(2) 0.59766(2) 0.561610(14)
H7 H 0.8068 0.8271 0.9682
H8 H 0.6404 0.8263 0.9774
O6 O 0.45751(16) 0.86743(15) 0.96966(10)
O1_2 O 0.52531(17) 0.34733(16) 0.34695(10)
O2_2 O 0.5251(2) 0.23814(19) 0.41692(11)
O4_2 O 0.54249(16) 0.13257(15) 0.03034(10)
N1_2 N 0.37144(18) 0.39906(17) 0.44491(11)
C1_2 C 0.5233(2) 0.2641(2) 0.36094(15)
C2_2 C 0.5192(2) 0.1955(2) 0.30892(15)
H1_2 H 0.5134 0.1341 0.3201
C3_2 C 0.5234(2) 0.2166(2) 0.24789(14)
H2_2 H 0.5316 0.2779 0.2370
C4_2 C 0.5162(2) 0.1509(2) 0.19680(13)
H3_2 H 0.5079 0.0896 0.2075
C5_2 C 0.5207(2) 0.1730(2) 0.13605(14)
H4_2 H 0.5296 0.2342 0.1254
C6_2 C 0.5124(2) 0.1061(2) 0.08376(14)
C7_2 C 0.3156(2) 0.4403(2) 0.40050(14)
H5_2 H 0.3470 0.4693 0.3665
C8_2 C 0.2162(2) 0.4422(2) 0.40230(15)
H6_2 H 0.1810 0.4722 0.3704
C9_2 C 0.1676(2) 0.3993(2) 0.45170(14)
C10_2 C 0.2232(2) 0.3564(2) 0.49738(15)
H7_2 H 0.1932 0.3271 0.5318
C11_2 C 0.3230(2) 0.3571(2) 0.49174(14)
H8_2 H 0.3596 0.3263 0.5226
C12_2 C 0.0614(2) 0.3968(2) 0.45793(16)
H9_2 H 0.0364 0.3705 0.4951
H10_2 H 0.0206 0.4551 0.3790
O6_2 O 0.54249(16) 0.36743(15) 0.53034(10)
N3 N 0.68652(19) 0.41209(17) 0.43437(11)
Zn3_2 Zn 0.52877(2) 0.09766(2) 0.938390(14)
C13_2 C 0.9966(2) 0.4281(2) 0.41626(16)
C14_2 C 0.7460(2) 0.3790(2) 0.47933(14)
H11 H 0.7175 0.3514 0.5150
C15_2 C 0.8454(2) 0.3830(2) 0.47657(14)
H12 H 0.8831 0.3588 0.5097
C16_2 C 0.8907(2) 0.4232(2) 0.42429(14)
C17_2 C 0.8288(2) 0.4575(2) 0.37752(15)
H13_2 H 0.8551 0.4854 0.3413
C18_2 C 0.7294(2) 0.4506(2) 0.38435(14)
H14_2 H 0.6896 0.4743 0.3521
H7_3 H 0.1932 0.1729 0.0318
H8_3 H 0.3596 0.1737 0.0226
O1_3 O 0.52531(17) 0.15267(16) 0.84695(10)
O2_3 O 0.5251(2) 0.26186(19) 0.91692(11)
O3_2 O 0.47673(16) 0.46951(14) 0.59623(10)
N1_3 N 0.37144(18) 0.10094(17) 0.94491(11)
C1_3 C 0.5233(2) 0.2359(2) 0.86094(15)
C2_3 C 0.5192(2) 0.3045(2) 0.80892(15)
H1_3 H 0.5134 0.3659 0.8201
C3_3 C 0.5234(2) 0.2834(2) 0.74789(14)
H2_3 H 0.5316 0.2221 0.7370
C4_3 C 0.5162(2) 0.3491(2) 0.69680(13)
H3_3 H 0.5079 0.4104 0.7075
C5_3 C 0.5207(2) 0.3270(2) 0.63605(14)
H4_3 H 0.5296 0.2658 0.6254
C6_3 C 0.5124(2) 0.3939(2) 0.58376(14)
C7_3 C 0.3156(2) 0.0597(2) 0.90050(14)
H5_3 H 0.3470 0.0307 0.8665
C8_3 C 0.2162(2) 0.0578(2) 0.90230(15)
H6_3 H 0.1810 0.0278 0.8704
C9_3 C 0.1676(2) 0.1007(2) 0.95170(14)
C10_3 C 0.2232(2) 0.1436(2) 0.99738(15)
C11_3 C 0.3230(2) 0.1429(2) 0.99174(14)
C12_3 C 0.0614(2) 0.1032(2) 0.95793(16)
H9_3 H 0.0364 0.1295 0.9951
H10_3 H 0.0206 0.0449 0.8790
N3_2 N 0.68652(19) 0.08791(17) 0.93437(11)
O5_2 O 0.52327(16) 0.96951(14) 0.90377(10)
C13_3 C 0.9966(2) 0.0719(2) 0.91626(16)
C14_3 C 0.7460(2) 0.1210(2) 0.97933(14)
C15_3 C 0.8454(2) 0.1170(2) 0.97657(14)
C16_3 C 0.8907(2) 0.0768(2) 0.92429(14)
C17_3 C 0.8288(2) 0.0425(2) 0.87752(15)
H13_3 H 0.8551 0.0146 0.8413
C18_3 C 0.7294(2) 0.0494(2) 0.88435(14)
H14_3 H 0.6896 0.0257 0.8521
N2_2 N 0.31348(19) 0.58791(17) 0.56563(11)
C13_4 C 0.0034(2) 0.5719(2) 0.58374(16)
C14_4 C 0.2540(2) 0.6210(2) 0.52067(14)
H11_2 H 0.2825 0.6486 0.4850
C15_4 C 0.1546(2) 0.6170(2) 0.52343(14)
H12_2 H 0.1169 0.6412 0.4903
C16_4 C 0.1093(2) 0.5768(2) 0.57571(14)
C17_4 C 0.1712(2) 0.5425(2) 0.62248(15)
H13_4 H 0.1449 0.5146 0.6587
C18_4 C 0.2706(2) 0.5494(2) 0.61565(14)
H14_4 H 0.3104 0.5257 0.6479
O1_4 O 0.47469(17) 0.65267(16) 0.65305(10)
O2_4 O 0.4749(2) 0.76186(19) 0.58308(11)
N1_4 N 0.62856(18) 0.60094(17) 0.55509(11)
C1_4 C 0.4767(2) 0.7359(2) 0.63906(15)
C2_4 C 0.4808(2) 0.8045(2) 0.69108(15)
H1_4 H 0.4866 0.8659 0.6799
C3_4 C 0.4766(2) 0.7834(2) 0.75211(14)
H2_4 H 0.4684 0.7221 0.7630
C4_4 C 0.4838(2) 0.8491(2) 0.80320(13)
H3_4 H 0.4921 0.9104 0.7925
C5_4 C 0.4793(2) 0.8270(2) 0.86395(14)
H4_4 H 0.4704 0.7658 0.8746
C6_4 C 0.4876(2) 0.8939(2) 0.91624(14)
C7_4 C 0.6844(2) 0.5597(2) 0.59950(14)
H5_4 H 0.6530 0.5307 0.6335
C8_4 C 0.7838(2) 0.5578(2) 0.59770(15)
H6_4 H 0.8190 0.5278 0.6296
C9_4 C 0.8324(2) 0.6007(2) 0.54830(14)
C10_4 C 0.7768(2) 0.6436(2) 0.50262(15)
H7_4 H 0.8068 0.6729 0.4682
C11_4 C 0.6770(2) 0.6429(2) 0.50826(14)
H8_4 H 0.6404 0.6737 0.4774
C12_4 C 0.9386(2) 0.6032(2) 0.54207(16)
H9_4 H 0.9636 0.6295 0.5049
H10_4 H 0.9794 0.5449 0.6210
H11_3 H 0.2825 0.8514 0.9850
H12_3 H 0.1169 0.8588 0.9903
Zn3_3 Zn 0.02877(2) 0.40234(2) 0.061610(14)
Zn1 Zn 0.02877(2) 0.09766(2) 0.561610(14)
O1_5 O 0.02531(17) 0.15267(16) 0.65305(10)
O2_5 O 0.0251(2) 0.26186(19) 0.58308(11)
O4_3 O 0.04249(16) 0.36743(15) 0.96966(10)
C1_5 C 0.0233(2) 0.2359(2) 0.63906(15)
C2_5 C 0.0192(2) 0.3045(2) 0.69108(15)
H1_5 H 0.0134 0.3659 0.6799
C3_5 C 0.0234(2) 0.2834(2) 0.75211(14)
H2_5 H 0.0316 0.2221 0.7630
C4_5 C 0.0162(2) 0.3491(2) 0.80320(13)
H3_5 H 0.0079 0.4104 0.7925
C5_5 C 0.0207(2) 0.3270(2) 0.86395(14)
H4_5 H 0.0296 0.2658 0.8746
C6_5 C 0.0124(2) 0.3939(2) 0.91624(14)
O6_3 O 0.04249(16) 0.13257(15) 0.46966(10)
N3_3 N 0.18652(19) 0.08791(17) 0.56563(11)
O5_3 O 0.02327(16) 0.96951(14) 0.59623(10)
O3_3 O 0.97673(16) 0.46951(14) 0.90377(10)
N1_5 N 0.87144(18) 0.10094(17) 0.55509(11)
C7_5 C 0.8156(2) 0.0597(2) 0.59950(14)
H5_5 H 0.8470 0.0307 0.6335
C8_5 C 0.7162(2) 0.0578(2) 0.59770(15)
H6_5 H 0.6810 0.0278 0.6296
C9_5 C 0.6676(2) 0.1007(2) 0.54830(14)
C10_5 C 0.7232(2) 0.1436(2) 0.50262(15)
H7_5 H 0.6932 0.1729 0.4682
C11_5 C 0.8230(2) 0.1429(2) 0.50826(14)
H8_5 H 0.8596 0.1737 0.4774
C12_5 C 0.5614(2) 0.1032(2) 0.54207(16)
H9_5 H 0.5364 0.1295 0.5049
C13_5 C 0.4966(2) 0.0719(2) 0.58374(16)
H10_5 H 0.5206 0.0449 0.6210
C14_5 C 0.2460(2) 0.1210(2) 0.52067(14)
H11_4 H 0.2175 0.1486 0.4850
C15_5 C 0.3454(2) 0.1170(2) 0.52343(14)
H12_4 H 0.3831 0.1412 0.4903
C16_5 C 0.3907(2) 0.0768(2) 0.57571(14)
C17_5 C 0.3288(2) 0.0425(2) 0.62248(15)
H13_5 H 0.3551 0.0146 0.6587
C18_5 C 0.2294(2) 0.0494(2) 0.61565(14)
H14_5 H 0.1896 0.0257 0.6479
Zn2_2 Zn 0.97123(2) 0.59766(2) 0.938390(14)
N1_6 N 0.12856(18) 0.60094(17) 0.94491(11)
N2_3 N 0.81348(19) 0.58791(17) 0.93437(11)
C7_6 C 0.1844(2) 0.5597(2) 0.90050(14)
H5_6 H 0.1530 0.5307 0.8665
C8_6 C 0.2838(2) 0.5578(2) 0.90230(15)
H6_6 H 0.3190 0.5278 0.8704
C9_6 C 0.3324(2) 0.6007(2) 0.95170(14)
C10_6 C 0.2768(2) 0.6436(2) 0.99738(15)
C11_6 C 0.1770(2) 0.6429(2) 0.99174(14)
C12_6 C 0.4386(2) 0.6032(2) 0.95793(16)
H9_6 H 0.4636 0.6295 0.9951
C13_6 C 0.5034(2) 0.5719(2) 0.91626(16)
H10_6 H 0.4794 0.5449 0.8790
C14_6 C 0.7540(2) 0.6210(2) 0.97933(14)
C15_6 C 0.6546(2) 0.6170(2) 0.97657(14)
C16_6 C 0.6093(2) 0.5768(2) 0.92429(14)
C17_6 C 0.6712(2) 0.5425(2) 0.87752(15)
H13_6 H 0.6449 0.5146 0.8413
C18_6 C 0.7706(2) 0.5494(2) 0.88435(14)
H14_6 H 0.8104 0.5257 0.8521
O6_4 O 0.95751(16) 0.63257(15) 0.03034(10)
O1_6 O 0.97469(17) 0.65267(16) 0.84695(10)
O2_6 O 0.9749(2) 0.76186(19) 0.91692(11)
O4_4 O 0.95751(16) 0.86743(15) 0.53034(10)
C1_6 C 0.9767(2) 0.7359(2) 0.86094(15)
C2_6 C 0.9808(2) 0.8045(2) 0.80892(15)
H1_6 H 0.9866 0.8659 0.8201
C3_6 C 0.9766(2) 0.7834(2) 0.74789(14)
H2_6 H 0.9684 0.7221 0.7370
C4_6 C 0.9838(2) 0.8491(2) 0.69680(13)
H3_6 H 0.9921 0.9104 0.7075
C5_6 C 0.9793(2) 0.8270(2) 0.63605(14)
H4_6 H 0.9704 0.7658 0.6254
C6_6 C 0.9876(2) 0.8939(2) 0.58376(14)
Zn3_4 Zn 0.97123(2) 0.90234(2) 0.438390(14)
O3_4 O 0.02327(16) 0.53049(14) 0.09623(10)
N1_7 N 0.12856(18) 0.89906(17) 0.44491(11)
N2_4 N 0.81348(19) 0.91209(17) 0.43437(11)
C7_7 C 0.1844(2) 0.9403(2) 0.40050(14)
H5_7 H 0.1530 0.9693 0.3665
C8_7 C 0.2838(2) 0.9422(2) 0.40230(15)
H6_7 H 0.3190 0.9722 0.3704
C9_7 C 0.3324(2) 0.8993(2) 0.45170(14)
C10_7 C 0.2768(2) 0.8564(2) 0.49738(15)
H7_6 H 0.3068 0.8271 0.5318
C11_7 C 0.1770(2) 0.8571(2) 0.49174(14)
H8_6 H 0.1404 0.8263 0.5226
C12_7 C 0.4386(2) 0.8968(2) 0.45793(16)
H9_7 H 0.4636 0.8705 0.4951
C13_7 C 0.5034(2) 0.9281(2) 0.41626(16)
H10_7 H 0.4794 0.9551 0.3790
C14_7 C 0.7540(2) 0.8790(2) 0.47933(14)
H11_5 H 0.7825 0.8514 0.5150
C15_7 C 0.6546(2) 0.8830(2) 0.47657(14)
H12_5 H 0.6169 0.8588 0.5097
C16_7 C 0.6093(2) 0.9232(2) 0.42429(14)
C17_7 C 0.6712(2) 0.9575(2) 0.37752(15)
H13_7 H 0.6449 0.9854 0.3413
C18_7 C 0.7706(2) 0.9506(2) 0.38435(14)
H14_7 H 0.8104 0.9743 0.3521
O5_4 O 0.97673(16) 0.03049(14) 0.40377(10)
O1_7 O 0.97469(17) 0.84733(16) 0.34695(10)
O2_7 O 0.9749(2) 0.73814(19) 0.41692(11)
C1_7 C 0.9767(2) 0.7641(2) 0.36094(15)
C2_7 C 0.9808(2) 0.6955(2) 0.30892(15)
H1_7 H 0.9866 0.6341 0.3201
C3_7 C 0.9766(2) 0.7166(2) 0.24789(14)
H2_7 H 0.9684 0.7779 0.2370
C4_7 C 0.9838(2) 0.6509(2) 0.19680(13)
H3_7 H 0.9921 0.5896 0.2075
C5_7 C 0.9793(2) 0.6730(2) 0.13605(14)
H4_7 H 0.9704 0.7342 0.1254
C6_7 C 0.9876(2) 0.6061(2) 0.08376(14)
O1_8 O 0.02531(17) 0.34733(16) 0.15305(10)
O2_8 O 0.0251(2) 0.23814(19) 0.08308(11)
C1_8 C 0.0233(2) 0.2641(2) 0.13906(15)
C2_8 C 0.0192(2) 0.1955(2) 0.19108(15)
H1_8 H 0.0134 0.1341 0.1799
C3_8 C 0.0234(2) 0.2166(2) 0.25211(14)
H2_8 H 0.0316 0.2779 0.2630
C4_8 C 0.0162(2) 0.1509(2) 0.30320(13)
H3_8 H 0.0079 0.0896 0.2925
C5_8 C 0.0207(2) 0.1730(2) 0.36395(14)
H4_8 H 0.0296 0.2342 0.3746
C6_8 C 0.0124(2) 0.1061(2) 0.41624(14)
N3_4 N 0.18652(19) 0.41209(17) 0.06563(11)
N1_8 N 0.87144(18) 0.39906(17) 0.05509(11)
C7_8 C 0.8156(2) 0.4403(2) 0.09950(14)
H5_8 H 0.8470 0.4693 0.1335
C8_8 C 0.7162(2) 0.4422(2) 0.09770(15)
H6_8 H 0.6810 0.4722 0.1296
C9_8 C 0.6676(2) 0.3993(2) 0.04830(14)
C10_8 C 0.7232(2) 0.3564(2) 0.00262(15)
C11_8 C 0.8230(2) 0.3571(2) 0.00826(14)
C12_8 C 0.5614(2) 0.3968(2) 0.04207(16)
H9_8 H 0.5364 0.3705 0.0049
C13_8 C 0.4966(2) 0.4281(2) 0.08374(16)
H10_8 H 0.5206 0.4551 0.1210
C14_8 C 0.2460(2) 0.3790(2) 0.02067(14)
C15_8 C 0.3454(2) 0.3830(2) 0.02343(14)
C16_8 C 0.3907(2) 0.4232(2) 0.07571(14)
C17_8 C 0.3288(2) 0.4575(2) 0.12248(15)
H13_8 H 0.3551 0.4854 0.1587
C18_8 C 0.2294(2) 0.4506(2) 0.11565(14)
H14_8 H 0.1896 0.4743 0.1479
H7_7 H 0.3068 0.6729 0.0318
H8_7 H 0.1404 0.6737 0.0226
H11_6 H 0.7825 0.6486 0.0150
H12_6 H 0.6169 0.6412 0.0097
H11_7 H 0.7175 0.1486 0.0150
H12_7 H 0.8831 0.1412 0.0097
H7_8 H 0.6932 0.3271 0.9682
H8_8 H 0.8596 0.3263 0.9774
H11_8 H 0.2175 0.3514 0.9850
H12_8 H 0.3831 0.3588 0.9903
loop_
_geom_bond_atom_site_label_1
_geom_bond_atom_site_label_2
_geom_bond_site_symmetry_1
_geom_bond_site_symmetry_2
N2 C14 1_555 1_555
C15 C14 1_555 1_555
C16 C13 1_555 1_555
C17 C16 1_555 1_555
H13 C17 1_555 1_555
C18 N2 1_555 1_555
H14 C18 1_555 1_555
Zn4 N2 1_555 1_555
C15 C16 1_555 1_555
C17 C18 1_555 1_555
Zn4 O1 1_555 1_555
O1 C1 1_555 1_555
O2 Zn4 1_555 1_555
O3 C6 1_555 1_555
O4 C6 1_555 1_555
N1 Zn4 1_555 1_555
C1 O2 1_555 1_555
C2 C1 1_555 1_555
H1 C2 1_555 1_555
C3 C2 1_555 1_555
H2 C3 1_555 1_555
C4 C3 1_555 1_555
H3 C4 1_555 1_555
C5 C4 1_555 1_555
H4 C5 1_555 1_555
C6 C5 1_555 1_555
C7 N1 1_555 1_555
H5 C7 1_555 1_555
C8 C7 1_555 1_555
H6 C8 1_555 1_555
C9 C8 1_555 1_555
C10 C9 1_555 1_555
C11 N1 1_555 1_555
C12 C9 1_555 1_555
H9 C12 1_555 1_555
Zn2 O3 1_555 1_555
Zn3 O4 1_555 1_555
C10 C11 1_555 1_555
Zn2 O1_2 1_555 1_555
O1_2 C1_2 1_555 1_555
O2_2 Zn2 1_555 1_555
O5 C6_2 1_555 1_555
O4_2 C6_2 1_555 1_555
N1_2 Zn2 1_555 1_555
C1_2 O2_2 1_555 1_555
C2_2 C1_2 1_555 1_555
H1_2 C2_2 1_555 1_555
C3_2 C2_2 1_555 1_555
H2_2 C3_2 1_555 1_555
C4_2 C3_2 1_555 1_555
H3_2 C4_2 1_555 1_555
C5_2 C4_2 1_555 1_555
H4_2 C5_2 1_555 1_555
C6_2 C5_2 1_555 1_555
C7_2 N1_2 1_555 1_555
H5_2 C7_2 1_555 1_555
C8_2 C7_2 1_555 1_555
H6_2 C8_2 1_555 1_555
C9_2 C8_2 1_555 1_555
C10_2 C9_2 1_555 1_555
H7_2 C10_2 1_555 1_555
C11_2 N1_2 1_555 1_555
H8_2 C11_2 1_555 1_555
C12_2 C9_2 1_555 1_555
H9_2 C12_2 1_555 1_555
O6_2 Zn2 1_555 1_555
N3 Zn2 1_555 1_555
C10_2 C11_2 1_555 1_555
N3 C14_2 1_555 1_555
C14_2 H11 1_555 1_555
C15_2 C14_2 1_555 1_555
H12 C15_2 1_555 1_555
C16_2 C13_2 1_555 1_555
C17_2 C16_2 1_555 1_555
H13_2 C17_2 1_555 1_555
C18_2 N3 1_555 1_555
H14_2 C18_2 1_555 1_555
C15_2 C16_2 1_555 1_555
C17_2 C18_2 1_555 1_555
Zn3_2 O1_3 1_555 1_555
O1_3 C1_3 1_555 1_555
O2_3 Zn3_2 1_555 1_555
O3_2 C6_3 1_555 1_555
O6_2 C6_3 1_555 1_555
N1_3 Zn3_2 1_555 1_555
C1_3 O2_3 1_555 1_555
C2_3 C1_3 1_555 1_555
H1_3 C2_3 1_555 1_555
C3_3 C2_3 1_555 1_555
H2_3 C3_3 1_555 1_555
C4_3 C3_3 1_555 1_555
H3_3 C4_3 1_555 1_555
C5_3 C4_3 1_555 1_555
H4_3 C5_3 1_555 1_555
C6_3 C5_3 1_555 1_555
C7_3 N1_3 1_555 1_555
H5_3 C7_3 1_555 1_555
C8_3 C7_3 1_555 1_555
H6_3 C8_3 1_555 1_555
C9_3 C8_3 1_555 1_555
C10_3 C9_3 1_555 1_555
C11_3 N1_3 1_555 1_555
C12_3 C9_3 1_555 1_555
H9_3 C12_3 1_555 1_555
Zn3 O3_2 1_555 1_555
N3_2 Zn3_2 1_555 1_555
C10_3 C11_3 1_555 1_555
N3_2 C14_3 1_555 1_555
C15_3 C14_3 1_555 1_555
C16_3 C13_3 1_555 1_555
C17_3 C16_3 1_555 1_555
H13_3 C17_3 1_555 1_555
C18_3 N3_2 1_555 1_555
H14_3 C18_3 1_555 1_555
C15_3 C16_3 1_555 1_555
C17_3 C18_3 1_555 1_555
N2_2 C14_4 1_555 1_555
C14_4 H11_2 1_555 1_555
C15_4 C14_4 1_555 1_555
H12_2 C15_4 1_555 1_555
C16_4 C13_4 1_555 1_555
C17_4 C16_4 1_555 1_555
H13_4 C17_4 1_555 1_555
C18_4 N2_2 1_555 1_555
H14_4 C18_4 1_555 1_555
Zn3 N2_2 1_555 1_555
C15_4 C16_4 1_555 1_555
C17_4 C18_4 1_555 1_555
Zn3 O1_4 1_555 1_555
O1_4 C1_4 1_555 1_555
O2_4 Zn3 1_555 1_555
O5_2 C6_4 1_555 1_555
O6 C6_4 1_555 1_555
N1_4 Zn3 1_555 1_555
C1_4 O2_4 1_555 1_555
C2_4 C1_4 1_555 1_555
H1_4 C2_4 1_555 1_555
C3_4 C2_4 1_555 1_555
H2_4 C3_4 1_555 1_555
C4_4 C3_4 1_555 1_555
H3_4 C4_4 1_555 1_555
C5_4 C4_4 1_555 1_555
H4_4 C5_4 1_555 1_555
C6_4 C5_4 1_555 1_555
C7_4 N1_4 1_555 1_555
H5_4 C7_4 1_555 1_555
C8_4 C7_4 1_555 1_555
H6_4 C8_4 1_555 1_555
C9_4 C8_4 1_555 1_555
C10_4 C9_4 1_555 1_555
H7_4 C10_4 1_555 1_555
C11_4 N1_4 1_555 1_555
H8_4 C11_4 1_555 1_555
C12_4 C9_4 1_555 1_555
H9_4 C12_4 1_555 1_555
C10_4 C11_4 1_555 1_555
Zn1 O1_5 1_555 1_555
O1_5 C1_5 1_555 1_555
O2_5 Zn1 1_555 1_555
O4_3 C6_5 1_555 1_555
C1_5 O2_5 1_555 1_555
C2_5 C1_5 1_555 1_555
H1_5 C2_5 1_555 1_555
C3_5 C2_5 1_555 1_555
H2_5 C3_5 1_555 1_555
C4_5 C3_5 1_555 1_555
H3_5 C4_5 1_555 1_555
C5_5 C4_5 1_555 1_555
H4_5 C5_5 1_555 1_555
C6_5 C5_5 1_555 1_555
O6_3 Zn1 1_555 1_555
N3_3 Zn1 1_555 1_555
N3_3 C14_5 1_555 1_555
C7_5 N1_5 1_555 1_555
H5_5 C7_5 1_555 1_555
C8_5 C7_5 1_555 1_555
H6_5 C8_5 1_555 1_555
C9_5 C8_5 1_555 1_555
C10_5 C9_5 1_555 1_555
H7_5 C10_5 1_555 1_555
C11_5 N1_5 1_555 1_555
H8_5 C11_5 1_555 1_555
C12_5 C9_5 1_555 1_555
H9_5 C12_5 1_555 1_555
C13_5 C12_5 1_555 1_555
H10_5 C13_5 1_555 1_555
C14_5 H11_4 1_555 1_555
C15_5 C14_5 1_555 1_555
H12_4 C15_5 1_555 1_555
C16_5 C13_5 1_555 1_555
C17_5 C16_5 1_555 1_555
H13_5 C17_5 1_555 1_555
C18_5 N3_3 1_555 1_555
H14_5 C18_5 1_555 1_555
Zn2_2 O3_3 1_555 1_555
C10_5 C11_5 1_555 1_555
C15_5 C16_5 1_555 1_555
C17_5 C18_5 1_555 1_555
N2_3 C14_6 1_555 1_555
C7_6 N1_6 1_555 1_555
H5_6 C7_6 1_555 1_555
C8_6 C7_6 1_555 1_555
H6_6 C8_6 1_555 1_555
C9_6 C8_6 1_555 1_555
C10_6 C9_6 1_555 1_555
C11_6 N1_6 1_555 1_555
C12_6 C9_6 1_555 1_555
H9_6 C12_6 1_555 1_555
C13_6 C12_6 1_555 1_555
H10_6 C13_6 1_555 1_555
C15_6 C14_6 1_555 1_555
C16_6 C13_6 1_555 1_555
C17_6 C16_6 1_555 1_555
H13_6 C17_6 1_555 1_555
C18_6 N2_3 1_555 1_555
H14_6 C18_6 1_555 1_555
Zn2_2 N2_3 1_555 1_555
C10_6 C11_6 1_555 1_555
C15_6 C16_6 1_555 1_555
C17_6 C18_6 1_555 1_555
Zn2_2 O1_6 1_555 1_555
O1_6 C1_6 1_555 1_555
O2_6 Zn2_2 1_555 1_555
O4_4 C6_6 1_555 1_555
C1_6 O2_6 1_555 1_555
C2_6 C1_6 1_555 1_555
H1_6 C2_6 1_555 1_555
C3_6 C2_6 1_555 1_555
H2_6 C3_6 1_555 1_555
C4_6 C3_6 1_555 1_555
H3_6 C4_6 1_555 1_555
C5_6 C4_6 1_555 1_555
H4_6 C5_6 1_555 1_555
C6_6 C5_6 1_555 1_555
Zn3_4 O4_4 1_555 1_555
N2_4 C14_7 1_555 1_555
C7_7 N1_7 1_555 1_555
H5_7 C7_7 1_555 1_555
C8_7 C7_7 1_555 1_555
H6_7 C8_7 1_555 1_555
C9_7 C8_7 1_555 1_555
C10_7 C9_7 1_555 1_555
H7_6 C10_7 1_555 1_555
C11_7 N1_7 1_555 1_555
H8_6 C11_7 1_555 1_555
C12_7 C9_7 1_555 1_555
H9_7 C12_7 1_555 1_555
C13_7 C12_7 1_555 1_555
H10_7 C13_7 1_555 1_555
C14_7 H11_5 1_555 1_555
C15_7 C14_7 1_555 1_555
H12_5 C15_7 1_555 1_555
C16_7 C13_7 1_555 1_555
C17_7 C16_7 1_555 1_555
H13_7 C17_7 1_555 1_555
C18_7 N2_4 1_555 1_555
H14_7 C18_7 1_555 1_555
Zn3_3 O3_4 1_555 1_555
Zn3_4 N2_4 1_555 1_555
C10_7 C11_7 1_555 1_555
C15_7 C16_7 1_555 1_555
C17_7 C18_7 1_555 1_555
Zn3_4 O1_7 1_555 1_555
O1_7 C1_7 1_555 1_555
O2_7 Zn3_4 1_555 1_555
O6_4 C6_7 1_555 1_555
C1_7 O2_7 1_555 1_555
C2_7 C1_7 1_555 1_555
H1_7 C2_7 1_555 1_555
C3_7 C2_7 1_555 1_555
H2_7 C3_7 1_555 1_555
C4_7 C3_7 1_555 1_555
H3_7 C4_7 1_555 1_555
C5_7 C4_7 1_555 1_555
H4_7 C5_7 1_555 1_555
C6_7 C5_7 1_555 1_555
Zn3_3 O1_8 1_555 1_555
O1_8 C1_8 1_555 1_555
O2_8 Zn3_3 1_555 1_555
O6_3 C6_8 1_555 1_555
C1_8 O2_8 1_555 1_555
C2_8 C1_8 1_555 1_555
H1_8 C2_8 1_555 1_555
C3_8 C2_8 1_555 1_555
H2_8 C3_8 1_555 1_555
C4_8 C3_8 1_555 1_555
H3_8 C4_8 1_555 1_555
C5_8 C4_8 1_555 1_555
H4_8 C5_8 1_555 1_555
C6_8 C5_8 1_555 1_555
N3_4 Zn3_3 1_555 1_555
N3_4 C14_8 1_555 1_555
C7_8 N1_8 1_555 1_555
H5_8 C7_8 1_555 1_555
C8_8 C7_8 1_555 1_555
H6_8 C8_8 1_555 1_555
C9_8 C8_8 1_555 1_555
C10_8 C9_8 1_555 1_555
C11_8 N1_8 1_555 1_555
C12_8 C9_8 1_555 1_555
H9_8 C12_8 1_555 1_555
C13_8 C12_8 1_555 1_555
H10_8 C13_8 1_555 1_555
C15_8 C14_8 1_555 1_555
C16_8 C13_8 1_555 1_555
C17_8 C16_8 1_555 1_555
H13_8 C17_8 1_555 1_555
C18_8 N3_4 1_555 1_555
H14_8 C18_8 1_555 1_555
C10_8 C11_8 1_555 1_555
C15_8 C16_8 1_555 1_555
C17_8 C18_8 1_555 1_555

#END
