
###############################################################################
#
# This file contains modified crystal structure data generated from the
# MOF subset of the Cambridge Structural Database (CSD) v543 
# hosted by the Cambridge Crystallographic Data Centre (CCDC).
#
# This work is licensed under the Creative Commons
# Attribution-NonCommercial-ShareAlike 4.0 International License.
# To view a copy of this license, visit
# http://creativecommons.org/licenses/by-nc-sa/4.0/
# or send a letter to
# Creative Commons, PO Box 1866, Mountain View, CA 94042, USA.
#
# CIF created using the CSD Python API on 29 September 2022
# The structure has been converted into the P1 space group
# The structure has a 3D framework
# The original CSD entry SUJREV is in the orthorhombic crystal system
# The framework has been calculated to contain at least 10.0% void space
# The void calculation uses a probe of radius 1.32A, grid spacing 0.4
#
###############################################################################

data_SUJREV
_chemical_formula_moiety         '(C144 H116 N16 O32 Zn8)n'
_symmetry_cell_setting           triclinic
_symmetry_space_group_name_H-M   'P 1'
_symmetry_Int_Tables_number      1
_space_group_name_Hall           'P 1'
loop_
_symmetry_equiv_pos_site_id
_symmetry_equiv_pos_as_xyz
1 x,y,z
_cell_length_a                   13.500(3)
_cell_length_b                   14.702(3)
_cell_length_c                   21.245(5)
_cell_angle_alpha                90
_cell_angle_beta                 90
_cell_angle_gamma                90
_cell_volume                     4216.64
loop_
_atom_site_label
_atom_site_type_symbol
_atom_site_fract_x
_atom_site_fract_y
_atom_site_fract_z
Zn5 Zn 0.50187(5) 0.10519(4) 0.06855(3)
Zn1 Zn 0.49813(5) 0.60519(4) 0.43145(3)
N1 N 0.3364(3) 0.5950(3) 0.4272(2)
O1 O 0.5011(3) 0.6480(3) 0.33636(19)
O2 O 0.4889(3) 0.7580(3) 0.4057(2)
O3 O 0.4867(3) 0.8579(3) 0.02256(18)
O4 O 0.4921(3) 0.9723(3) 0.0912(2)
C1 C 0.2902(4) 0.5474(4) 0.3838(3)
H1 H 0.3259 0.5281 0.3489
C2 C 0.1909(4) 0.5249(4) 0.3879(3)
H2 H 0.1610 0.4917 0.3559
C3 C 0.1361(4) 0.5517(4) 0.4397(2)
C4 C 0.1828(4) 0.6082(4) 0.4824(3)
H3 H 0.1476 0.6328 0.5159
C5 C 0.2819(4) 0.6279(3) 0.4750(3)
H4 H 0.3124 0.6656 0.5043
C6 C 0.0366(4) 0.5100(4) 0.4531(3)
H5 H 0.0056 0.4871 0.4146
C13 C 0.4924(4) 0.7311(4) 0.3502(3)
C14 C 0.4880(4) 0.8005(4) 0.2988(3)
H11 H 0.4830 0.8616 0.3098
C15 C 0.4909(5) 0.7787(4) 0.2387(3)
H12 H 0.4944 0.7173 0.2282
C16 C 0.4889(5) 0.8446(4) 0.1879(3)
H13 H 0.4836 0.9057 0.1985
C17 C 0.4942(5) 0.8234(4) 0.1279(3)
H14 H 0.5000 0.7623 0.1171
C18 C 0.4913(4) 0.8914(4) 0.0766(2)
Zn6 Zn 0.50187(5) 0.39481(4) 0.56855(3)
N4 N 0.3418(3) 0.3884(3) 0.5596(2)
N5 N 0.6582(3) 0.6116(3) 0.4404(2)
O7 O 0.4867(3) 0.6421(3) 0.52256(18)
O10 O 0.5079(3) 0.4723(3) 0.4088(2)
C25 C 0.2808(4) 0.4367(4) 0.5970(3)
H20 H 0.3076 0.4630 0.6330
C26 C 0.1816(4) 0.4495(4) 0.5855(3)
H21 H 0.1430 0.4826 0.6137
C27 C 0.1394(4) 0.4129(3) 0.5318(3)
C28 C 0.2002(4) 0.3576(4) 0.4952(3)
H22 H 0.1747 0.3275 0.4603
C29 C 0.2990(4) 0.3477(4) 0.5112(3)
H23 H 0.3379 0.3099 0.4862
C30 C 0.0384(4) 0.4345(4) 0.5065(3)
H24 H 0.0068 0.3788 0.4910
Zn4 Zn 0.49813(5) 0.89481(4) 0.93145(3)
C7 C 0.7192(4) 0.5633(4) 0.4030(3)
H6 H 0.6924 0.5370 0.3670
C8 C 0.8184(4) 0.5505(4) 0.4145(3)
H7 H 0.8570 0.5174 0.3863
C9 C 0.8606(4) 0.5871(3) 0.4682(3)
C10 C 0.7998(4) 0.6424(4) 0.5048(3)
H8 H 0.8253 0.6725 0.5397
C11 C 0.7010(4) 0.6523(4) 0.4888(3)
H9 H 0.6621 0.6901 0.5138
C12 C 0.9616(4) 0.5655(4) 0.4935(3)
H10 H 0.9932 0.6212 0.5090
N3 N 0.6636(3) 0.4050(3) 0.5728(2)
O5 O 0.4989(3) 0.3520(3) 0.66364(19)
O6 O 0.5111(3) 0.2420(3) 0.5943(2)
O8 O 0.5133(3) 0.3579(3) 0.47744(18)
O9 O 0.5133(3) 0.1421(3) 0.97744(18)
O11 O 0.4921(3) 0.5277(3) 0.5912(2)
O12 O 0.5079(3) 0.0277(3) 0.9088(2)
C19 C 0.7098(4) 0.4526(4) 0.6162(3)
H15 H 0.6741 0.4719 0.6511
C20 C 0.8091(4) 0.4751(4) 0.6121(3)
H16 H 0.8390 0.5083 0.6441
C21 C 0.8639(4) 0.4483(4) 0.5603(2)
C22 C 0.8172(4) 0.3918(4) 0.5176(3)
H17 H 0.8524 0.3672 0.4841
C23 C 0.7181(4) 0.3721(3) 0.5250(3)
H18 H 0.6876 0.3344 0.4957
C24 C 0.9634(4) 0.4900(4) 0.5469(3)
H19 H 0.9944 0.5129 0.5854
C31 C 0.5076(4) 0.2689(4) 0.6498(3)
C32 C 0.5120(4) 0.1995(4) 0.7012(3)
H25 H 0.5170 0.1384 0.6902
C33 C 0.5091(5) 0.2213(4) 0.7613(3)
H26 H 0.5056 0.2827 0.7718
C34 C 0.5111(5) 0.1554(4) 0.8121(3)
H27 H 0.5164 0.0943 0.8015
C35 C 0.5058(5) 0.1766(4) 0.8721(3)
H28 H 0.5000 0.2377 0.8829
C36 C 0.5087(4) 0.1086(4) 0.9234(2)
N2 N 0.3418(3) 0.1116(3) 0.0596(2)
C7_2 C 0.2808(4) 0.0633(4) 0.0970(3)
H6_2 H 0.3076 0.0370 0.1330
C8_2 C 0.1816(4) 0.0505(4) 0.0855(3)
H7_2 H 0.1430 0.0174 0.1137
C9_2 C 0.1394(4) 0.0871(3) 0.0318(3)
C11_2 C 0.2990(4) 0.1523(4) 0.0112(3)
C12_2 C 0.0384(4) 0.0655(4) 0.0065(3)
C10_2 C 0.2002(4) 0.1424(4) 0.9952(3)
H8_2 H 0.1747 0.1725 0.9603
H9_2 H 0.3379 0.1901 0.9862
H10_2 H 0.0068 0.1212 0.9910
H16_2 H 0.1610 0.0083 0.8559
H19_2 H 0.0056 0.0129 0.9146
H17_2 H 0.1476 0.8672 0.0159
H18_2 H 0.3124 0.8344 0.0043
N3_2 N 0.3364(3) 0.9050(3) 0.9272(2)
N6 N 0.6582(3) 0.8884(3) 0.9404(2)
O5_2 O 0.5011(3) 0.8520(3) 0.83636(19)
O6_2 O 0.4889(3) 0.7420(3) 0.9057(2)
C19_2 C 0.2902(4) 0.9526(4) 0.8838(3)
H15_2 H 0.3259 0.9719 0.8489
C20_2 C 0.1909(4) 0.9751(4) 0.8879(3)
C21_2 C 0.1361(4) 0.9483(4) 0.9397(2)
C22_2 C 0.1828(4) 0.8918(4) 0.9824(3)
C23_2 C 0.2819(4) 0.8721(3) 0.9750(3)
C24_2 C 0.0366(4) 0.9900(4) 0.9531(3)
C31_2 C 0.4924(4) 0.7689(4) 0.8502(3)
C32_2 C 0.4880(4) 0.6995(4) 0.7988(3)
H25_2 H 0.4830 0.6384 0.8098
C33_2 C 0.4909(5) 0.7213(4) 0.7387(3)
H26_2 H 0.4944 0.7827 0.7282
C34_2 C 0.4889(5) 0.6554(4) 0.6879(3)
H27_2 H 0.4836 0.5943 0.6985
C35_2 C 0.4942(5) 0.6766(4) 0.6279(3)
H28_2 H 0.5000 0.7377 0.6171
C36_2 C 0.4913(4) 0.6086(4) 0.5766(2)
N1_2 N 0.6636(3) 0.0950(3) 0.0728(2)
O1_2 O 0.4989(3) 0.1480(3) 0.16364(19)
O2_2 O 0.5111(3) 0.2580(3) 0.0943(2)
C1_2 C 0.7098(4) 0.0474(4) 0.1162(3)
H1_2 H 0.6741 0.0281 0.1511
C2_2 C 0.8091(4) 0.0249(4) 0.1121(3)
C3_2 C 0.8639(4) 0.0517(4) 0.0603(2)
C4_2 C 0.8172(4) 0.1082(4) 0.0176(3)
C5_2 C 0.7181(4) 0.1279(3) 0.0250(3)
C6_2 C 0.9634(4) 0.0100(4) 0.0469(3)
C13_2 C 0.5076(4) 0.2311(4) 0.1498(3)
C14_2 C 0.5120(4) 0.3005(4) 0.2012(3)
H11_2 H 0.5170 0.3616 0.1902
C15_2 C 0.5091(5) 0.2787(4) 0.2613(3)
H12_2 H 0.5056 0.2173 0.2718
C16_2 C 0.5111(5) 0.3446(4) 0.3121(3)
H13_2 H 0.5164 0.4057 0.3015
C17_2 C 0.5058(5) 0.3234(4) 0.3721(3)
H14_2 H 0.5000 0.2623 0.3829
C18_2 C 0.5087(4) 0.3914(4) 0.4234(2)
H3_2 H 0.8524 0.1328 0.9841
H4_2 H 0.6876 0.1656 0.9957
H2_2 H 0.8390 0.9917 0.1441
H5_2 H 0.9944 0.9871 0.0854
C28_2 C 0.7998(4) 0.8576(4) 0.0048(3)
H22_2 H 0.8253 0.8275 0.0397
H23_2 H 0.6621 0.8099 0.0138
H24_2 H 0.9932 0.8788 0.0090
C25_2 C 0.7192(4) 0.9367(4) 0.9030(3)
H20_2 H 0.6924 0.9630 0.8670
C26_2 C 0.8184(4) 0.9495(4) 0.9145(3)
H21_2 H 0.8570 0.9826 0.8863
C27_2 C 0.8606(4) 0.9129(3) 0.9682(3)
C29_2 C 0.7010(4) 0.8477(4) 0.9888(3)
C30_2 C 0.9616(4) 0.9345(4) 0.9935(3)
Zn8 Zn 0.00187(5) 0.10519(4) 0.43145(3)
N6_2 N 0.1582(3) 0.6116(3) 0.0596(2)
O5_3 O 0.0011(3) 0.6480(3) 0.16364(19)
O11_2 O 0.0079(3) 0.4723(3) 0.0912(2)
H28_3 H 0.0000 0.7623 0.3829
Zn3 Zn 0.00187(5) 0.39481(4) 0.93145(3)
H3_3 H 0.3524 0.3672 0.0159
H4_3 H 0.1876 0.3344 0.0043
C10_3 C 0.7002(4) 0.3576(4) 0.0048(3)
H8_3 H 0.6747 0.3275 0.0397
H9_3 H 0.8379 0.3099 0.0138
H10_3 H 0.5068 0.3788 0.0090
Zn2 Zn 0.99813(5) 0.60519(4) 0.06855(3)
Zn7 Zn 0.99813(5) 0.89481(4) 0.56855(3)
N3_3 N 0.8364(3) 0.5950(3) 0.0728(2)
O6_3 O 0.9889(3) 0.7580(3) 0.0943(2)
O7_2 O 0.0133(3) 0.3579(3) 0.02256(18)
O9_2 O 0.9867(3) 0.8579(3) 0.47744(18)
O12_2 O 0.9921(3) 0.9723(3) 0.4088(2)
C19_3 C 0.7902(4) 0.5474(4) 0.1162(3)
H15_3 H 0.8259 0.5281 0.1511
C20_3 C 0.6909(4) 0.5249(4) 0.1121(3)
H16_3 H 0.6610 0.4917 0.1441
C21_3 C 0.6361(4) 0.5517(4) 0.0603(2)
C22_3 C 0.6828(4) 0.6082(4) 0.0176(3)
C23_3 C 0.7819(4) 0.6279(3) 0.0250(3)
C24_3 C 0.5366(4) 0.5100(4) 0.0469(3)
H19_3 H 0.5056 0.4871 0.0854
C25_3 C 0.2192(4) 0.5633(4) 0.0970(3)
H20_3 H 0.1924 0.5370 0.1330
C26_3 C 0.3184(4) 0.5505(4) 0.0855(3)
H21_3 H 0.3570 0.5174 0.1137
C27_3 C 0.3606(4) 0.5871(3) 0.0318(3)
C29_3 C 0.2010(4) 0.6523(4) 0.0112(3)
C30_3 C 0.4616(4) 0.5655(4) 0.0065(3)
C31_3 C 0.9924(4) 0.7311(4) 0.1498(3)
C32_3 C 0.9880(4) 0.8005(4) 0.2012(3)
H25_3 H 0.9830 0.8616 0.1902
C33_3 C 0.9909(5) 0.7787(4) 0.2613(3)
H26_3 H 0.9944 0.7173 0.2718
C34_3 C 0.9889(5) 0.8446(4) 0.3121(3)
H27_3 H 0.9836 0.9057 0.3015
C35_3 C 0.9942(5) 0.8234(4) 0.3721(3)
H28_4 H 1.0000 0.7623 0.3829
C36_3 C 0.9913(4) 0.8914(4) 0.4234(2)
N1_3 N 0.1636(3) 0.4050(3) 0.9272(2)
N2_2 N 0.8418(3) 0.3884(3) 0.9404(2)
O2_3 O 0.0111(3) 0.2420(3) 0.9057(2)
O3_2 O 0.0133(3) 0.1421(3) 0.52256(18)
O4_2 O 0.0079(3) 0.0277(3) 0.5912(2)
C1_3 C 0.2098(4) 0.4526(4) 0.8838(3)
H1_3 H 0.1741 0.4719 0.8489
C2_3 C 0.3091(4) 0.4751(4) 0.8879(3)
H2_3 H 0.3390 0.5083 0.8559
C3_3 C 0.3639(4) 0.4483(4) 0.9397(2)
C4_3 C 0.3172(4) 0.3918(4) 0.9824(3)
C5_3 C 0.2181(4) 0.3721(3) 0.9750(3)
C6_3 C 0.4634(4) 0.4900(4) 0.9531(3)
H5_3 H 0.4944 0.5129 0.9146
C7_3 C 0.7808(4) 0.4367(4) 0.9030(3)
H6_3 H 0.8076 0.4630 0.8670
C8_3 C 0.6816(4) 0.4495(4) 0.9145(3)
H7_3 H 0.6430 0.4826 0.8863
C9_3 C 0.6394(4) 0.4129(3) 0.9682(3)
C11_3 C 0.7990(4) 0.3477(4) 0.9888(3)
C12_3 C 0.5384(4) 0.4345(4) 0.9935(3)
C13_3 C 0.0076(4) 0.2689(4) 0.8502(3)
C14_3 C 0.0120(4) 0.1995(4) 0.7988(3)
H11_3 H 0.0170 0.1384 0.8098
C15_3 C 0.0091(5) 0.2213(4) 0.7387(3)
H12_3 H 0.0056 0.2827 0.7282
C16_3 C 0.0111(5) 0.1554(4) 0.6879(3)
H13_3 H 0.0164 0.0943 0.6985
C17_3 C 0.0058(5) 0.1766(4) 0.6279(3)
H14_3 H -0.0000 0.2377 0.6171
C18_3 C 0.0087(4) 0.1086(4) 0.5766(2)
O8_2 O 0.9867(3) 0.6421(3) 0.97744(18)
H17_3 H 0.6476 0.6328 0.9841
H18_3 H 0.8124 0.6656 0.9957
C28_3 C 0.2998(4) 0.6424(4) 0.9952(3)
H22_3 H 0.3253 0.6725 0.9603
H23_3 H 0.1621 0.6901 0.9862
H24_3 H 0.4932 0.6212 0.9910
O1_3 O 0.9989(3) 0.3520(3) 0.83636(19)
H14_4 H 1.0000 0.2377 0.6171
O10_2 O 0.9921(3) 0.5277(3) 0.9088(2)
O1_4 O 0.0011(3) 0.8520(3) 0.66364(19)
H14_5 H 0.0000 0.7377 0.8829
N5_2 N 0.1582(3) 0.8884(3) 0.5596(2)
H2_4 H 0.6610 0.0083 0.6441
H5_4 H 0.5056 0.0129 0.5854
N3_4 N 0.1636(3) 0.0950(3) 0.4272(2)
N4_2 N 0.8418(3) 0.1116(3) 0.4404(2)
O6_4 O 0.0111(3) 0.2580(3) 0.4057(2)
C19_4 C 0.2098(4) 0.0474(4) 0.3838(3)
H15_4 H 0.1741 0.0281 0.3489
C20_4 C 0.3091(4) 0.0249(4) 0.3879(3)
C21_4 C 0.3639(4) 0.0517(4) 0.4397(2)
C22_4 C 0.3172(4) 0.1082(4) 0.4824(3)
H17_4 H 0.3524 0.1328 0.5159
C23_4 C 0.2181(4) 0.1279(3) 0.4750(3)
H18_4 H 0.1876 0.1656 0.5043
C24_4 C 0.4634(4) 0.0100(4) 0.4531(3)
C25_4 C 0.7808(4) 0.0633(4) 0.4030(3)
H20_4 H 0.8076 0.0370 0.3670
C26_4 C 0.6816(4) 0.0505(4) 0.4145(3)
H21_4 H 0.6430 0.0174 0.3863
C27_4 C 0.6394(4) 0.0871(3) 0.4682(3)
C28_4 C 0.7002(4) 0.1424(4) 0.5048(3)
H22_4 H 0.6747 0.1725 0.5397
C29_4 C 0.7990(4) 0.1523(4) 0.4888(3)
H23_4 H 0.8379 0.1901 0.5138
C30_4 C 0.5384(4) 0.0655(4) 0.4935(3)
H24_4 H 0.5068 0.1212 0.5090
C31_4 C 0.0076(4) 0.2311(4) 0.3502(3)
C32_4 C 0.0120(4) 0.3005(4) 0.2988(3)
H25_4 H 0.0170 0.3616 0.3098
C33_4 C 0.0091(5) 0.2787(4) 0.2387(3)
H26_4 H 0.0056 0.2173 0.2282
C34_4 C 0.0111(5) 0.3446(4) 0.1879(3)
H27_4 H 0.0164 0.4057 0.1985
C35_4 C 0.0058(5) 0.3234(4) 0.1279(3)
H28_5 H -0.0000 0.2623 0.1171
C36_4 C 0.0087(4) 0.3914(4) 0.0766(2)
N1_4 N 0.8364(3) 0.9050(3) 0.5728(2)
O2_4 O 0.9889(3) 0.7420(3) 0.5943(2)
C1_4 C 0.7902(4) 0.9526(4) 0.6162(3)
H1_4 H 0.8259 0.9719 0.6511
C2_4 C 0.6909(4) 0.9751(4) 0.6121(3)
C3_4 C 0.6361(4) 0.9483(4) 0.5603(2)
C4_4 C 0.6828(4) 0.8918(4) 0.5176(3)
H3_4 H 0.6476 0.8672 0.4841
C5_4 C 0.7819(4) 0.8721(3) 0.5250(3)
H4_4 H 0.8124 0.8344 0.4957
C6_4 C 0.5366(4) 0.9900(4) 0.5469(3)
C7_4 C 0.2192(4) 0.9367(4) 0.5970(3)
H6_4 H 0.1924 0.9630 0.6330
C8_4 C 0.3184(4) 0.9495(4) 0.5855(3)
H7_4 H 0.3570 0.9826 0.6137
C9_4 C 0.3606(4) 0.9129(3) 0.5318(3)
C10_4 C 0.2998(4) 0.8576(4) 0.4952(3)
H8_4 H 0.3253 0.8275 0.4603
C11_4 C 0.2010(4) 0.8477(4) 0.5112(3)
H9_4 H 0.1621 0.8099 0.4862
C12_4 C 0.4616(4) 0.9345(4) 0.5065(3)
H10_4 H 0.4932 0.8788 0.4910
C13_4 C 0.9924(4) 0.7689(4) 0.6498(3)
C14_4 C 0.9880(4) 0.6995(4) 0.7012(3)
H11_4 H 0.9830 0.6384 0.6902
C15_4 C 0.9909(5) 0.7213(4) 0.7613(3)
H12_4 H 0.9944 0.7827 0.7718
C16_4 C 0.9889(5) 0.6554(4) 0.8121(3)
H13_4 H 0.9836 0.5943 0.8015
C17_4 C 0.9942(5) 0.6766(4) 0.8721(3)
H14_6 H 1.0000 0.7377 0.8829
C18_4 C 0.9913(4) 0.6086(4) 0.9234(2)
H16_4 H 0.3390 0.9917 0.3559
H19_4 H 0.4944 0.9871 0.4146
O5_4 O 0.9989(3) 0.1480(3) 0.33636(19)
H28_6 H 1.0000 0.2623 0.1171
loop_
_geom_bond_atom_site_label_1
_geom_bond_atom_site_label_2
_geom_bond_site_symmetry_1
_geom_bond_site_symmetry_2
Zn1 N1 1_555 1_555
N1 C1 1_555 1_555
O1 Zn1 1_555 1_555
O2 Zn1 1_555 1_555
O3 C18 1_555 1_555
O4 C18 1_555 1_555
C1 H1 1_555 1_555
C2 C1 1_555 1_555
H2 C2 1_555 1_555
C3 C2 1_555 1_555
C4 C3 1_555 1_555
H3 C4 1_555 1_555
C5 N1 1_555 1_555
H4 C5 1_555 1_555
C6 C3 1_555 1_555
H5 C6 1_555 1_555
C13 O1 1_555 1_555
C14 C13 1_555 1_555
H11 C14 1_555 1_555
C15 C14 1_555 1_555
H12 C15 1_555 1_555
C16 C15 1_555 1_555
H13 C16 1_555 1_555
C17 C16 1_555 1_555
H14 C17 1_555 1_555
C18 C17 1_555 1_555
Zn6 N4 1_555 1_555
N4 C25 1_555 1_555
N5 Zn1 1_555 1_555
O7 Zn1 1_555 1_555
O10 Zn1 1_555 1_555
C25 H20 1_555 1_555
C26 C25 1_555 1_555
H21 C26 1_555 1_555
C27 C26 1_555 1_555
C28 C27 1_555 1_555
H22 C28 1_555 1_555
C29 N4 1_555 1_555
H23 C29 1_555 1_555
C30 C6 1_555 1_555
H24 C30 1_555 1_555
O2 C13 1_555 1_555
C4 C5 1_555 1_555
C27 C30 1_555 1_555
C28 C29 1_555 1_555
N5 C7 1_555 1_555
C7 H6 1_555 1_555
C8 C7 1_555 1_555
H7 C8 1_555 1_555
C9 C8 1_555 1_555
C10 C9 1_555 1_555
H8 C10 1_555 1_555
C11 N5 1_555 1_555
H9 C11 1_555 1_555
H10 C12 1_555 1_555
Zn6 N3 1_555 1_555
N3 C19 1_555 1_555
O5 Zn6 1_555 1_555
O6 Zn6 1_555 1_555
O8 Zn6 1_555 1_555
O9 C36 1_555 1_555
O11 Zn6 1_555 1_555
O12 C36 1_555 1_555
C19 H15 1_555 1_555
C20 C19 1_555 1_555
H16 C20 1_555 1_555
C21 C20 1_555 1_555
C22 C21 1_555 1_555
H17 C22 1_555 1_555
C23 N3 1_555 1_555
H18 C23 1_555 1_555
C24 C12 1_555 1_555
H19 C24 1_555 1_555
C31 O5 1_555 1_555
C32 C31 1_555 1_555
H25 C32 1_555 1_555
C33 C32 1_555 1_555
H26 C33 1_555 1_555
C34 C33 1_555 1_555
H27 C34 1_555 1_555
C35 C34 1_555 1_555
H28 C35 1_555 1_555
C36 C35 1_555 1_555
C9 C12 1_555 1_555
C10 C11 1_555 1_555
O6 C31 1_555 1_555
C21 C24 1_555 1_555
C22 C23 1_555 1_555
N2 C7_2 1_555 1_555
C7_2 H6_2 1_555 1_555
C8_2 C7_2 1_555 1_555
H7_2 C8_2 1_555 1_555
C9_2 C8_2 1_555 1_555
C11_2 N2 1_555 1_555
Zn5 N2 1_555 1_555
C9_2 C12_2 1_555 1_555
H8_2 C10_2 1_555 1_555
Zn4 N3_2 1_555 1_555
N3_2 C19_2 1_555 1_555
N6 Zn4 1_555 1_555
O5_2 Zn4 1_555 1_555
O6_2 Zn4 1_555 1_555
O7 C36_2 1_555 1_555
O11 C36_2 1_555 1_555
C19_2 H15_2 1_555 1_555
C20_2 C19_2 1_555 1_555
C21_2 C20_2 1_555 1_555
C22_2 C21_2 1_555 1_555
C23_2 N3_2 1_555 1_555
C31_2 O5_2 1_555 1_555
C32_2 C31_2 1_555 1_555
H25_2 C32_2 1_555 1_555
C33_2 C32_2 1_555 1_555
H26_2 C33_2 1_555 1_555
C34_2 C33_2 1_555 1_555
H27_2 C34_2 1_555 1_555
C35_2 C34_2 1_555 1_555
H28_2 C35_2 1_555 1_555
C36_2 C35_2 1_555 1_555
O6_2 C31_2 1_555 1_555
C21_2 C24_2 1_555 1_555
C22_2 C23_2 1_555 1_555
Zn5 N1_2 1_555 1_555
N1_2 C1_2 1_555 1_555
O1_2 Zn5 1_555 1_555
O2_2 Zn5 1_555 1_555
O8 C18_2 1_555 1_555
O10 C18_2 1_555 1_555
C1_2 H1_2 1_555 1_555
C2_2 C1_2 1_555 1_555
C3_2 C2_2 1_555 1_555
C4_2 C3_2 1_555 1_555
C5_2 N1_2 1_555 1_555
C6_2 C3_2 1_555 1_555
C13_2 O1_2 1_555 1_555
C14_2 C13_2 1_555 1_555
H11_2 C14_2 1_555 1_555
C15_2 C14_2 1_555 1_555
H12_2 C15_2 1_555 1_555
C16_2 C15_2 1_555 1_555
H13_2 C16_2 1_555 1_555
C17_2 C16_2 1_555 1_555
H14_2 C17_2 1_555 1_555
C18_2 C17_2 1_555 1_555
O2_2 C13_2 1_555 1_555
C4_2 C5_2 1_555 1_555
H22_2 C28_2 1_555 1_555
N6 C25_2 1_555 1_555
C25_2 H20_2 1_555 1_555
C26_2 C25_2 1_555 1_555
H21_2 C26_2 1_555 1_555
C27_2 C26_2 1_555 1_555
C29_2 N6 1_555 1_555
C27_2 C30_2 1_555 1_555
H8_3 C10_3 1_555 1_555
Zn2 N3_3 1_555 1_555
Zn7 O9_2 1_555 1_555
N3_3 C19_3 1_555 1_555
N6_2 C25_3 1_555 1_555
O6_3 Zn2 1_555 1_555
O9_2 C36_3 1_555 1_555
O12_2 C36_3 1_555 1_555
C19_3 H15_3 1_555 1_555
C20_3 C19_3 1_555 1_555
H16_3 C20_3 1_555 1_555
C21_3 C20_3 1_555 1_555
C22_3 C21_3 1_555 1_555
C23_3 N3_3 1_555 1_555
H19_3 C24_3 1_555 1_555
C25_3 H20_3 1_555 1_555
C26_3 C25_3 1_555 1_555
H21_3 C26_3 1_555 1_555
C27_3 C26_3 1_555 1_555
C29_3 N6_2 1_555 1_555
C32_3 C31_3 1_555 1_555
H25_3 C32_3 1_555 1_555
C33_3 C32_3 1_555 1_555
H26_3 C33_3 1_555 1_555
C34_3 C33_3 1_555 1_555
H27_3 C34_3 1_555 1_555
C35_3 C34_3 1_555 1_555
H28_4 C35_3 1_555 1_555
C36_3 C35_3 1_555 1_555
O6_3 C31_3 1_555 1_555
C21_3 C24_3 1_555 1_555
C22_3 C23_3 1_555 1_555
C24_3 C30_3 1_555 1_555
C27_3 C30_3 1_555 1_555
Zn3 N1_3 1_555 1_555
N1_3 C1_3 1_555 1_555
N2_2 C7_3 1_555 1_555
O2_3 Zn3 1_555 1_555
O3_2 C18_3 1_555 1_555
O4_2 C18_3 1_555 1_555
C1_3 H1_3 1_555 1_555
C2_3 C1_3 1_555 1_555
H2_3 C2_3 1_555 1_555
C3_3 C2_3 1_555 1_555
C4_3 C3_3 1_555 1_555
C5_3 N1_3 1_555 1_555
C6_3 C3_3 1_555 1_555
H5_3 C6_3 1_555 1_555
C7_3 H6_3 1_555 1_555
C8_3 C7_3 1_555 1_555
H7_3 C8_3 1_555 1_555
C9_3 C8_3 1_555 1_555
C11_3 N2_2 1_555 1_555
C12_3 C6_3 1_555 1_555
C14_3 C13_3 1_555 1_555
H11_3 C14_3 1_555 1_555
C15_3 C14_3 1_555 1_555
H12_3 C15_3 1_555 1_555
C16_3 C15_3 1_555 1_555
H13_3 C16_3 1_555 1_555
C17_3 C16_3 1_555 1_555
H14_3 C17_3 1_555 1_555
C18_3 C17_3 1_555 1_555
Zn8 O3_2 1_555 1_555
H22_3 C28_3 1_555 1_555
O2_3 C13_3 1_555 1_555
C4_3 C5_3 1_555 1_555
C9_3 C12_3 1_555 1_555
Zn8 N3_4 1_555 1_555
N3_4 C19_4 1_555 1_555
N4_2 C25_4 1_555 1_555
O6_4 Zn8 1_555 1_555
O7_2 C36_4 1_555 1_555
O11_2 C36_4 1_555 1_555
C19_4 H15_4 1_555 1_555
C20_4 C19_4 1_555 1_555
C21_4 C20_4 1_555 1_555
C22_4 C21_4 1_555 1_555
H17_4 C22_4 1_555 1_555
C23_4 N3_4 1_555 1_555
H18_4 C23_4 1_555 1_555
C25_4 H20_4 1_555 1_555
C26_4 C25_4 1_555 1_555
H21_4 C26_4 1_555 1_555
C27_4 C26_4 1_555 1_555
C28_4 C27_4 1_555 1_555
H22_4 C28_4 1_555 1_555
C29_4 N4_2 1_555 1_555
H23_4 C29_4 1_555 1_555
H24_4 C30_4 1_555 1_555
C32_4 C31_4 1_555 1_555
H25_4 C32_4 1_555 1_555
C33_4 C32_4 1_555 1_555
H26_4 C33_4 1_555 1_555
C34_4 C33_4 1_555 1_555
H27_4 C34_4 1_555 1_555
C35_4 C34_4 1_555 1_555
H28_5 C35_4 1_555 1_555
C36_4 C35_4 1_555 1_555
O6_4 C31_4 1_555 1_555
C21_4 C24_4 1_555 1_555
C22_4 C23_4 1_555 1_555
C24_4 C30_4 1_555 1_555
C27_4 C30_4 1_555 1_555
C28_4 C29_4 1_555 1_555
Zn7 N1_4 1_555 1_555
N1_4 C1_4 1_555 1_555
N5_2 C7_4 1_555 1_555
O2_4 Zn7 1_555 1_555
O8_2 C18_4 1_555 1_555
O10_2 C18_4 1_555 1_555
C1_4 H1_4 1_555 1_555
C2_4 C1_4 1_555 1_555
C3_4 C2_4 1_555 1_555
C4_4 C3_4 1_555 1_555
H3_4 C4_4 1_555 1_555
C5_4 N1_4 1_555 1_555
H4_4 C5_4 1_555 1_555
C6_4 C3_4 1_555 1_555
C7_4 H6_4 1_555 1_555
C8_4 C7_4 1_555 1_555
H7_4 C8_4 1_555 1_555
C9_4 C8_4 1_555 1_555
C10_4 C9_4 1_555 1_555
H8_4 C10_4 1_555 1_555
C11_4 N5_2 1_555 1_555
H9_4 C11_4 1_555 1_555
C12_4 C6_4 1_555 1_555
H10_4 C12_4 1_555 1_555
C14_4 C13_4 1_555 1_555
H11_4 C14_4 1_555 1_555
C15_4 C14_4 1_555 1_555
H12_4 C15_4 1_555 1_555
C16_4 C15_4 1_555 1_555
H13_4 C16_4 1_555 1_555
C17_4 C16_4 1_555 1_555
H14_6 C17_4 1_555 1_555
C18_4 C17_4 1_555 1_555
O2_4 C13_4 1_555 1_555
C4_4 C5_4 1_555 1_555
C9_4 C12_4 1_555 1_555
C10_4 C11_4 1_555 1_555

#END
