
###############################################################################
#
# This file contains modified crystal structure data generated from the
# MOF subset of the Cambridge Structural Database (CSD) v543 
# hosted by the Cambridge Crystallographic Data Centre (CCDC).
#
# This work is licensed under the Creative Commons
# Attribution-NonCommercial-ShareAlike 4.0 International License.
# To view a copy of this license, visit
# http://creativecommons.org/licenses/by-nc-sa/4.0/
# or send a letter to
# Creative Commons, PO Box 1866, Mountain View, CA 94042, USA.
#
# CIF created using the CSD Python API on 29 September 2022
# The structure has been converted into the P1 space group
# The structure has a 3D framework
# The original CSD entry SUKREX01 is in the triclinic crystal system
# The framework has been calculated to contain at least 10.0% void space
# The void calculation uses a probe of radius 1.32A, grid spacing 0.4
#
###############################################################################

data_SUKREX01
_chemical_formula_moiety         '(C30 H22 La4 O31)n'
_symmetry_cell_setting           triclinic
_symmetry_space_group_name_H-M   'P 1'
_symmetry_Int_Tables_number      1
_space_group_name_Hall           'P 1'
loop_
_symmetry_equiv_pos_site_id
_symmetry_equiv_pos_as_xyz
1 x,y,z
_cell_length_a                   9.24050(10)
_cell_length_b                   10.69520(10)
_cell_length_c                   10.83070(10)
_cell_angle_alpha                86.2390(10)
_cell_angle_beta                 84.0140(10)
_cell_angle_gamma                81.3670(10)
_cell_volume                     1051.13
loop_
_atom_site_label
_atom_site_type_symbol
_atom_site_fract_x
_atom_site_fract_y
_atom_site_fract_z
_atom_site_U_iso_or_equiv
_atom_site_thermal_displace_type
C16 C 0.2442(5) 0.3848(4) 0.1362(4) 0.0164 Uani
C17 C 0.1198(4) 0.4406(4) 0.0617(4) 0.0118 Uani
O17 O 0.2193(4) 0.3222(4) 0.2354(3) 0.0280 Uani
O18 O 0.3719(3) 0.4090(3) 0.0993(3) 0.0242 Uani
La10 La 0.47801(3) 0.32292(2) 0.31397(2) 0.0108 Uani
C3 C 0.0229(5) 0.5556(4) 0.8824(4) 0.0150 Uani
H1 H 0.0388 0.5936 0.8034 0.0180 Uiso
C4 C 0.1425(4) 0.4959(4) 0.9425(4) 0.0120 Uani
C5 C 0.2905(5) 0.4890(5) 0.8658(4) 0.0152 Uani
C8 C 0.0429(5) 0.4173(4) 0.5985(4) 0.0133 Uani
H2 H 0.0712 0.3612 0.6638 0.0160 Uiso
C9 C 0.1467(4) 0.4785(4) 0.5265(4) 0.0128 Uani
C10 C 0.3026(5) 0.4673(4) 0.5596(4) 0.0123 Uani
C13 C 0.0070(5) 0.0916(4) 0.4047(4) 0.0168 Uani
H3 H 0.0116 0.1539 0.3410 0.0200 Uiso
C14 C 0.1366(5) 0.0186(4) 0.4381(4) 0.0120 Uani
C15 C 0.2812(4) 0.0466(4) 0.3700(4) 0.0124 Uani
O3 O 0.3350(4) 0.3853(3) 0.8172(3) 0.0287 Uani
O4 O 0.3474(4) 0.5877(3) 0.8482(3) 0.0242 Uani
O7 O 0.3418(3) 0.5613(3) 0.5976(3) 0.0169 Uani
O8 O 0.3831(3) 0.3591(3) 0.5453(3) 0.0152 Uani
O12 O 0.3410(3) 0.1305(3) 0.4092(3) 0.0199 Uani
C21 C 0.2181(5) 0.6209(4) 0.3487(4) 0.0126 Uani
C22 C 0.1027(5) 0.5603(4) 0.4267(4) 0.0135 Uani
O21 O 0.3467(3) 0.5565(3) 0.3305(3) 0.0148 Uani
O22 O 0.1922(3) 0.7324(3) 0.3073(3) 0.0201 Uani
La7 La 0.52199(3) 0.67708(2) 0.68603(2) 0.0108 Uani
La11 La 0.53072(3) 0.23984(2) 0.71951(2) 0.0121 Uani
La14 La 0.46928(3) 0.76016(2) 0.28049(2) 0.0121 Uani
O11 O 0.3296(3) 0.9860(3) 0.2733(3) 0.0177 Uani
C26 C 0.2642(4) 0.8492(4) 0.5785(4) 0.0135 Uani
C27 C 0.1283(5) 0.9274(4) 0.5350(4) 0.0131 Uani
O25 O 0.3761(3) 0.8224(3) 0.5011(3) 0.0175 Uani
O26 O 0.2642(3) 0.8131(3) 0.6900(3) 0.0211 Uani
H7 H 0.4576 0.1239 0.0002 0.0150 Uiso
C18 C 0.9771(5) 0.4444(4) 0.1176(4) 0.0150 Uani
H12 H 0.9612 0.4064 0.1966 0.0180 Uiso
C19 C 0.8575(4) 0.5041(4) 0.0575(4) 0.0120 Uani
C20 C 0.7095(5) 0.5110(5) 0.1342(4) 0.0152 Uani
O19 O 0.6650(4) 0.6147(3) 0.1828(3) 0.0287 Uani
O20 O 0.6526(4) 0.4123(3) 0.1518(3) 0.0242 Uani
C1 C 0.7558(5) 0.6152(4) 0.8638(4) 0.0164 Uani
C2 C 0.8802(4) 0.5594(4) 0.9383(4) 0.0118 Uani
C6 C 0.7819(5) 0.3791(4) 0.6513(4) 0.0126 Uani
C7 C 0.8973(5) 0.4397(4) 0.5733(4) 0.0135 Uani
C11 C 0.7358(4) 0.1508(4) 0.4215(4) 0.0135 Uani
C12 C 0.8717(5) 0.0726(4) 0.4650(4) 0.0131 Uani
H4 H 0.5610 0.9213 0.8152 0.0150 Uiso
H5 H 0.3772 0.8961 0.8426 0.0150 Uiso
H6 H 0.3367 0.1543 0.9191 0.0150 Uiso
H8 H 0.2366 0.1158 0.7190 0.0150 Uiso
H9 H 0.3273 0.1268 0.5812 0.0150 Uiso
H10 H 0.6943 0.2640 0.9312 0.0150 Uiso
H11 H 0.5489 0.3520 0.9739 0.0150 Uiso
O1 O 0.7807(4) 0.6778(4) 0.7646(3) 0.0280 Uani
O2 O 0.6281(3) 0.5910(3) 0.9007(3) 0.0242 Uani
O5 O 0.6533(3) 0.4435(3) 0.6695(3) 0.0148 Uani
O6 O 0.8078(3) 0.2676(3) 0.6927(3) 0.0201 Uani
O9 O 0.6239(3) 0.1776(3) 0.4989(3) 0.0175 Uani
O10 O 0.7358(3) 0.1869(3) 0.3100(3) 0.0211 Uani
O13 O 0.6122(4) 0.3153(4) 0.9182(3) 0.0365 Uani
O14 O 0.4301(4) 0.1248(4) 0.9180(3) 0.0325 Uani
O15 O 0.3337(4) 0.1155(3) 0.6688(3) 0.0279 Uani
O16 O 0.4802(4) 0.8581(3) 0.8407(3) 0.0243 Uani
C23 C 0.9571(5) 0.5827(4) 0.4015(4) 0.0133 Uani
H13 H 0.9288 0.6388 0.3362 0.0160 Uiso
C24 C 0.8533(4) 0.5215(4) 0.4735(4) 0.0128 Uani
C25 C 0.6974(5) 0.5327(4) 0.4404(4) 0.0123 Uani
O23 O 0.6582(3) 0.4387(3) 0.4024(3) 0.0169 Uani
O24 O 0.6169(3) 0.6409(3) 0.4547(3) 0.0152 Uani
O27 O 0.6704(3) 0.0140(3) 0.7267(3) 0.0177 Uani
H15 H 0.4390 0.0787 0.1848 0.0150 Uiso
H16 H 0.6228 0.1039 0.1574 0.0150 Uiso
H17 H 0.6633 0.8457 0.0809 0.0150 Uiso
H19 H 0.7634 0.8842 0.2810 0.0150 Uiso
H20 H 0.6727 0.8732 0.4188 0.0150 Uiso
H21 H 0.3057 0.7360 0.0688 0.0150 Uiso
H22 H 0.4511 0.6480 0.0261 0.0150 Uiso
O29 O 0.3878(4) 0.6847(4) 0.0818(3) 0.0365 Uani
O30 O 0.5699(4) 0.8752(4) 0.0820(3) 0.0325 Uani
O31 O 0.6663(4) 0.8845(3) 0.3312(3) 0.0279 Uani
O32 O 0.5198(4) 0.1419(3) 0.1593(3) 0.0243 Uani
O47 O 0.6590(3) 0.8695(3) 0.5908(3) 0.0199 Uani
H18 H 0.5424 0.8761 0.9998 0.0150 Uiso
C28 C 0.9930(5) 0.9084(4) 0.5953(4) 0.0168 Uani
H14 H 0.9884 0.8461 0.6590 0.0200 Uiso
C29 C 0.8634(5) 0.9814(4) 0.5619(4) 0.0120 Uani
C30 C 0.7188(4) 0.9534(4) 0.6300(4) 0.0124 Uani
loop_
_atom_site_aniso_label
_atom_site_aniso_U_11
_atom_site_aniso_U_22
_atom_site_aniso_U_33
_atom_site_aniso_U_23
_atom_site_aniso_U_13
_atom_site_aniso_U_12
C16 0.016 0.018 0.015 0.0022 -0.0048 -0.0005
C17 0.01 0.012 0.013 0.0006 -0.0025 0
O17 0.0173 0.042 0.023 0.0166 -0.006 -0.0041
O18 0.0111 0.038 0.023 0.0079 -0.004 -0.0041
La10 0.00909 0.01237 0.01087 5e-05 -0.00156 -0.00084
C3 0.011 0.021 0.012 0.0037 -0.0015 -0.0005
C4 0.0083 0.014 0.013 -0.0024 -0.0009 0.0011
C5 0.009 0.026 0.009 0.0038 -0.0034 0.0028
C8 0.014 0.013 0.013 0.0007 -0.003 -0.0021
C9 0.0077 0.014 0.017 -0.0051 -0.0038 0.0007
C10 0.011 0.016 0.009 0.0025 -0.0002 -0.001
C13 0.019 0.015 0.015 0.0042 -0.0022 0.0005
C14 0.012 0.016 0.008 -0.0046 -0.0024 0.0005
C15 0.011 0.015 0.01 0.0035 -0.0033 0.0017
O3 0.031 0.025 0.024 -0.0005 0.0067 0.0091
O4 0.0192 0.039 0.0169 0.0036 -0.0001 -0.0154
O7 0.0178 0.019 0.015 -0.0022 -0.0033 -0.0044
O8 0.0158 0.0142 0.0142 -0.0033 -0.0019 0.0038
O12 0.0216 0.0201 0.0206 0.0005 -0.0022 -0.0117
C21 0.012 0.015 0.011 0.001 -0.0017 -0.0028
C22 0.011 0.016 0.014 -0.0046 -0.0014 -0.0022
O21 0.0105 0.0167 0.0166 0.0002 -0.0006 -0.0012
O22 0.0135 0.017 0.028 0.0064 -0.0009 -0.0006
La7 0.00909 0.01237 0.01087 5e-05 -0.00156 -0.00084
La11 0.01112 0.01226 0.01265 4e-05 0.00025 -0.00167
La14 0.01112 0.01226 0.01265 4e-05 0.00025 -0.00167
O11 0.0173 0.016 0.0185 -0.0022 0.0034 -0.0016
C26 0.0084 0.014 0.018 0.0011 -0.0012 -0.0026
C27 0.011 0.012 0.015 -0.0012 -0.0001 0.0016
O25 0.0119 0.0201 0.0189 -0.0019 0.0006 0.0021
O26 0.02 0.0255 0.014 0.0015 -0.001 0.0072
C18 0.011 0.021 0.012 0.0037 -0.0015 -0.0005
C19 0.0083 0.014 0.013 -0.0024 -0.0009 0.0011
C20 0.009 0.026 0.009 0.0038 -0.0034 0.0028
O19 0.031 0.025 0.024 -0.0005 0.0067 0.0091
O20 0.0192 0.039 0.0169 0.0036 -0.0001 -0.0154
C1 0.016 0.018 0.015 0.0022 -0.0048 -0.0005
C2 0.01 0.012 0.013 0.0006 -0.0025 0
C6 0.012 0.015 0.011 0.001 -0.0017 -0.0028
C7 0.011 0.016 0.014 -0.0046 -0.0014 -0.0022
C11 0.0084 0.014 0.018 0.0011 -0.0012 -0.0026
C12 0.011 0.012 0.015 -0.0012 -0.0001 0.0016
O1 0.0173 0.042 0.023 0.0166 -0.006 -0.0041
O2 0.0111 0.038 0.023 0.0079 -0.004 -0.0041
O5 0.0105 0.0167 0.0166 0.0002 -0.0006 -0.0012
O6 0.0135 0.017 0.028 0.0064 -0.0009 -0.0006
O9 0.0119 0.0201 0.0189 -0.0019 0.0006 0.0021
O10 0.02 0.0255 0.014 0.0015 -0.001 0.0072
O13 0.03 0.064 0.019 -0.0113 0.0023 -0.017
O14 0.046 0.03 0.02 -0.0006 0.0026 -0.0053
O15 0.031 0.034 0.023 0.0006 -0.0076 -0.016
O16 0.0242 0.0239 0.025 -0.0068 0.006 -0.007
C23 0.014 0.013 0.013 0.0007 -0.003 -0.0021
C24 0.0077 0.014 0.017 -0.0051 -0.0038 0.0007
C25 0.011 0.016 0.009 0.0025 -0.0002 -0.001
O23 0.0178 0.019 0.015 -0.0022 -0.0033 -0.0044
O24 0.0158 0.0142 0.0142 -0.0033 -0.0019 0.0038
O27 0.0173 0.016 0.0185 -0.0022 0.0034 -0.0016
O29 0.03 0.064 0.019 -0.0113 0.0023 -0.017
O30 0.046 0.03 0.02 -0.0006 0.0026 -0.0053
O31 0.031 0.034 0.023 0.0006 -0.0076 -0.016
O32 0.0242 0.0239 0.025 -0.0068 0.006 -0.007
O47 0.0216 0.0201 0.0206 0.0005 -0.0022 -0.0117
C28 0.019 0.015 0.015 0.0042 -0.0022 0.0005
C29 0.012 0.016 0.008 -0.0046 -0.0024 0.0005
C30 0.011 0.015 0.01 0.0035 -0.0033 0.0017
loop_
_geom_bond_atom_site_label_1
_geom_bond_atom_site_label_2
_geom_bond_site_symmetry_1
_geom_bond_site_symmetry_2
C16 C17 1_555 1_555
O17 C16 1_555 1_555
O18 C16 1_555 1_555
La10 O17 1_555 1_555
O18 La10 1_555 1_555
C3 H1 1_555 1_555
C4 C3 1_555 1_555
C5 C4 1_555 1_555
C8 H2 1_555 1_555
C9 C8 1_555 1_555
C10 C9 1_555 1_555
C13 H3 1_555 1_555
C14 C13 1_555 1_555
C15 C14 1_555 1_555
O3 C5 1_555 1_555
O4 C5 1_555 1_555
O7 C10 1_555 1_555
O8 C10 1_555 1_555
O12 C15 1_555 1_555
C21 C22 1_555 1_555
C22 C9 1_555 1_555
O21 C21 1_555 1_555
O22 C21 1_555 1_555
La7 O4 1_555 1_555
La10 O8 1_555 1_555
La11 O3 1_555 1_555
La14 O21 1_555 1_555
O7 La7 1_555 1_555
O8 La11 1_555 1_555
O12 La10 1_555 1_555
O21 La10 1_555 1_555
O22 La14 1_555 1_555
C26 C27 1_555 1_555
O25 C26 1_555 1_555
O26 C26 1_555 1_555
La7 O25 1_555 1_555
La14 O11 1_555 1_555
O25 La14 1_555 1_555
O26 La7 1_555 1_555
H12 C18 1_555 1_555
C20 C19 1_555 1_555
O19 C20 1_555 1_555
O20 C20 1_555 1_555
La10 O20 1_555 1_555
La14 O19 1_555 1_555
C18 C19 1_555 1_555
La7 O1 1_555 1_555
La11 O5 1_555 1_555
C1 C2 1_555 1_555
C6 C7 1_555 1_555
C11 C12 1_555 1_555
H4 O16 1_555 1_555
H5 O16 1_555 1_555
H6 O14 1_555 1_555
H8 O15 1_555 1_555
H9 O15 1_555 1_555
H10 O13 1_555 1_555
H11 O13 1_555 1_555
O1 C1 1_555 1_555
O2 La7 1_555 1_555
O5 La7 1_555 1_555
O6 La11 1_555 1_555
O9 La11 1_555 1_555
O10 C11 1_555 1_555
O13 La11 1_555 1_555
O14 La11 1_555 1_555
O15 La11 1_555 1_555
O16 La7 1_555 1_555
H13 C23 1_555 1_555
C24 C7 1_555 1_555
C25 C24 1_555 1_555
O23 C25 1_555 1_555
O24 La7 1_555 1_555
O27 La11 1_555 1_555
La10 O9 1_555 1_555
La14 O24 1_555 1_555
H15 O32 1_555 1_555
H16 O32 1_555 1_555
H17 O30 1_555 1_555
H19 O31 1_555 1_555
H20 O31 1_555 1_555
H21 O29 1_555 1_555
H22 O29 1_555 1_555
O29 La14 1_555 1_555
O30 La14 1_555 1_555
O31 La14 1_555 1_555
O32 La10 1_555 1_555
O47 La7 1_555 1_555
C1 O2 1_555 1_555
C6 O5 1_555 1_555
C6 O6 1_555 1_555
C11 O9 1_555 1_555
O10 La10 1_555 1_555
C23 C24 1_555 1_555
C25 O24 1_555 1_555
O23 La10 1_555 1_555
H14 C28 1_555 1_555
C30 C29 1_555 1_555
O47 C30 1_555 1_555
C28 C29 1_555 1_555

#END
