
###############################################################################
#
# This file contains modified crystal structure data generated from the
# MOF subset of the Cambridge Structural Database (CSD) v543 
# hosted by the Cambridge Crystallographic Data Centre (CCDC).
#
# This work is licensed under the Creative Commons
# Attribution-NonCommercial-ShareAlike 4.0 International License.
# To view a copy of this license, visit
# http://creativecommons.org/licenses/by-nc-sa/4.0/
# or send a letter to
# Creative Commons, PO Box 1866, Mountain View, CA 94042, USA.
#
# CIF created using the CSD Python API on 29 September 2022
# The structure has been converted into the P1 space group
# The structure has a 3D framework
# The original CSD entry SUMBEK is in the orthorhombic crystal system
# The framework has been calculated to contain at least 10.0% void space
# The void calculation uses a probe of radius 1.32A, grid spacing 0.4
# H atom positions have been added when not included in the experimental data
#
###############################################################################

data_SUMBEK
_chemical_formula_moiety         '(C128 H62 N16 O20 Sc3)n'
_symmetry_cell_setting           triclinic
_symmetry_space_group_name_H-M   'P 1'
_symmetry_Int_Tables_number      1
_space_group_name_Hall           'P 1'
loop_
_symmetry_equiv_pos_site_id
_symmetry_equiv_pos_as_xyz
1 x,y,z
_cell_length_a                   33.3550(28)
_cell_length_b                   7.22081(41)
_cell_length_c                   16.6732(16)
_cell_angle_alpha                90
_cell_angle_beta                 90
_cell_angle_gamma                90
_cell_volume                     4015.74
loop_
_atom_site_label
_atom_site_type_symbol
_atom_site_fract_x
_atom_site_fract_y
_atom_site_fract_z
Sc5 Sc 0.250 0.250 0
N1 N -0 0.000 0.6228(21)
C11 C 0.19884(78) 0.000 0.8896(15)
C12 C 0.16912(62) 0.000 0.8264(12)
C15 C 0.10662(51) 0.000 0.7087(12)
C16 C 0.07307(50) 0.000 0.6445(11)
C17 C 0.03394(50) 0.000 0.6720(14)
C18 C 0.02018(39) 0.000 0.7503(12)
C19 C 0.08893(69) 0.000 0.56666(87)
C20 C 0.12755(55) 0.000 0.54075(95)
N3 N 0.06439(74) 0.000 0.500
O4 O 0.20899(46) 0.1613(12) 0.9115(12)
C21 C 0.15469(53) 0.1632(19) 0.7974(12)
C22 C 0.12538(58) 0.1632(19) 0.7376(13)
N4 N 0 0.000 0.3772(21)
C37 C 0.19884(78) 0.000 0.1104(15)
C38 C 0.16912(62) 0.000 0.1736(12)
C41 C 0.10662(51) -0.000 0.2913(12)
C42 C 0.07307(50) 0.000 0.3555(11)
C43 C 0.03394(50) 0.000 0.3280(14)
C44 C 0.02018(39) 0.000 0.2497(12)
C45 C 0.08893(69) 0.000 0.43334(87)
C46 C 0.12755(55) 0.000 0.45925(95)
O9 O 0.20899(46) 0.1613(12) 0.0885(12)
C47 C 0.15469(53) 0.1632(19) 0.2026(12)
C48 C 0.12538(58) 0.1632(19) 0.2624(13)
Sc5_2 Sc 0.250 0.250 1
O11 O 0.2723(12) 0.000 0
H4 H 0.116452 0.295457 0.711788
H6 H 0.154053 3.69779e-32 0.578892
H9 H 0.0339598 3.69779e-32 0.5
H11 H 0.166019 0.293852 0.820867
H19 H 0.0390534 0 0.803596
H21 H 0.0390534 0 0.196404
H22 H 0.166019 0.293852 0.179133
H24 H 0.116452 0.295457 0.288212
H25 H 0.154053 -1.2326e-32 0.421108
O11_2 O 0.2723(12) 0.000 1
Sc3 Sc 0.250 0.750 0
N1_2 N -0 1.000 0.6228(21)
O3 O 0.20899(46) 0.8387(12) 0.9115(12)
C11_2 C 0.19884(78) 1.000 0.8896(15)
C12_2 C 0.16912(62) 1.000 0.8264(12)
C13 C 0.15469(53) 0.8368(19) 0.7974(12)
C14 C 0.12538(58) 0.8368(19) 0.7376(13)
C15_2 C 0.10662(51) 1.000 0.7087(12)
C16_2 C 0.07307(50) 1.000 0.6445(11)
C17_2 C 0.03394(50) 1.000 0.6720(14)
C18_2 C 0.02018(39) 1.000 0.7503(12)
C19_2 C 0.08893(69) 1.000 0.56666(87)
C20_2 C 0.12755(55) 1.000 0.54075(95)
N3_2 N 0.06439(74) 1.000 0.500
N4_2 N -0 1.000 0.3772(21)
O8 O 0.20899(46) 0.8387(12) 0.0885(12)
C37_2 C 0.19884(78) 1.000 0.1104(15)
C38_2 C 0.16912(62) 1.000 0.1736(12)
C39 C 0.15469(53) 0.8368(19) 0.2026(12)
C40 C 0.12538(58) 0.8368(19) 0.2624(13)
C41_2 C 0.10662(51) 1.000 0.2913(12)
C42_2 C 0.07307(50) 1.000 0.3555(11)
C43_2 C 0.03394(50) 1.000 0.3280(14)
C44_2 C 0.02018(39) 1.000 0.2497(12)
C45_2 C 0.08893(69) 1.000 0.43334(87)
C46_2 C 0.12755(55) 1.000 0.45925(95)
Sc3_2 Sc 0.250 0.750 1
O11_3 O 0.2723(12) 1.000 0
O12 O 0.2277(12) 0.500 0
O17 O 0.29101(46) 0.6613(12) 0.0885(12)
H6_2 H 0.154053 1 0.578892
H9_2 H 0.0339598 1 0.5
H15 H 0.116452 0.704543 0.711788
H17 H 0.166019 0.706148 0.820867
H19_2 H 0.0390534 1 0.803596
H21_2 H 0.0390534 1 0.196404
H23 H 0.116452 0.704543 0.288212
H25_2 H 0.154053 1 0.421108
H26 H 0.166019 0.706148 0.179133
O11_4 O 0.2723(12) 1.000 1
O12_2 O 0.2277(12) 0.500 1
O18 O 0.29101(46) 0.6613(12) 0.9115(12)
Sc1 Sc 0.750 0.250 0
O1 O 0.7277(12) 0.000 0
O10 O 0.7723(12) 0.500 0
Sc8 Sc 0.750 0.750 0
O14 O 0.79101(46) 0.1613(12) 0.0885(12)
O15 O 0.70899(46) 0.3387(12) 0.0885(12)
Sc1_2 Sc 0.750 0.250 1
O1_2 O 0.7277(12) 0.000 1
O2 O 0.79101(46) 0.1613(12) 0.9115(12)
C1 C 0.80116(78) 0.000 0.8896(15)
C2 C 0.83088(62) 0.000 0.8264(12)
C3 C 0.84531(53) 0.1632(19) 0.7974(12)
C4 C 0.87462(58) 0.1632(19) 0.7376(13)
C5 C 0.89338(51) 0.000 0.7087(12)
C6 C 0.92693(50) 0.000 0.6445(11)
C7 C 0.96606(50) 0.000 0.6720(14)
C8 C 0.97982(39) 0.000 0.7503(12)
C9 C 0.91107(69) 0.000 0.56666(87)
C10 C 0.87245(55) 0.000 0.54075(95)
N1_3 N 1 0.000 0.6228(21)
N2 N 0.93561(74) 0.000 0.500
C23 C 0.80116(78) 0.000 0.1104(15)
C24 C 0.83088(62) 0.000 0.1736(12)
C27 C 0.89338(51) -0.000 0.2913(12)
C28 C 0.92693(50) 0.000 0.3555(11)
C29 C 0.96606(50) 0.000 0.3280(14)
C30 C 0.97982(39) 0.000 0.2497(12)
C31 C 0.91107(69) 0.000 0.43334(87)
C32 C 0.87245(55) 0.000 0.45925(95)
N4_3 N 1 0.000 0.3772(21)
C35 C 0.84531(53) 0.1632(19) 0.2026(12)
C36 C 0.87462(58) 0.1632(19) 0.2624(13)
O10_2 O 0.7723(12) 0.500 1
Sc8_2 Sc 0.750 0.750 1
O16 O 0.70899(46) 0.3387(12) 0.9115(12)
H1 H 0.883548 0.295457 0.288212
H3 H 0.833981 0.293852 0.820867
H5 H 0.845947 3.69779e-32 0.578892
H7 H 0.883548 0.295457 0.711788
H8 H 0.96604 3.69779e-32 0.5
H10 H 0.845947 0 0.421108
H12 H 0.960947 0 0.196404
H14 H 0.960947 0 0.803596
H18 H 0.833981 0.293852 0.179133
O1_3 O 0.7277(12) 1.000 0
O1_4 O 0.7277(12) 1.000 1
C1_2 C 0.80116(78) 1.000 0.8896(15)
C2_2 C 0.83088(62) 1.000 0.8264(12)
C5_2 C 0.89338(51) 1.000 0.7087(12)
C6_2 C 0.92693(50) 1.000 0.6445(11)
C7_2 C 0.96606(50) 1.000 0.6720(14)
C8_2 C 0.97982(39) 1.000 0.7503(12)
C9_2 C 0.91107(69) 1.000 0.56666(87)
C10_2 C 0.87245(55) 1.000 0.54075(95)
N1_4 N 1 1.000 0.6228(21)
N2_2 N 0.93561(74) 1.000 0.500
O5 O 0.79101(46) 0.8387(12) 0.0885(12)
C23_2 C 0.80116(78) 1.000 0.1104(15)
C24_2 C 0.83088(62) 1.000 0.1736(12)
C25 C 0.84531(53) 0.8368(19) 0.2026(12)
C26 C 0.87462(58) 0.8368(19) 0.2624(13)
C27_2 C 0.89338(51) 1.000 0.2913(12)
C28_2 C 0.92693(50) 1.000 0.3555(11)
C29_2 C 0.96606(50) 1.000 0.3280(14)
C30_2 C 0.97982(39) 1.000 0.2497(12)
C31_2 C 0.91107(69) 1.000 0.43334(87)
C32_2 C 0.87245(55) 1.000 0.45925(95)
N4_4 N 1 1.000 0.3772(21)
O6 O 0.79101(46) 0.8387(12) 0.9115(12)
C33 C 0.84531(53) 0.8368(19) 0.7974(12)
C34 C 0.87462(58) 0.8368(19) 0.7376(13)
H2 H 0.883548 0.704543 0.288212
H5_2 H 0.845947 1 0.578892
H8_2 H 0.96604 1 0.5
H10_2 H 0.845947 1 0.421108
H12_2 H 0.960947 1 0.196404
H13 H 0.833981 0.706148 0.820867
H14_2 H 0.960947 1 0.803596
H16 H 0.883548 0.704543 0.711788
H20 H 0.833981 0.706148 0.179133
O16_2 O 0.29101(46) 0.3387(12) 0.0885(12)
O15_2 O 0.29101(46) 0.3387(12) 0.9115(12)
O18_2 O 0.70899(46) 0.6613(12) 0.0885(12)
O17_2 O 0.70899(46) 0.6613(12) 0.9115(12)
C1_3 C 0.69884(78) 0.500 0.8896(15)
C2_3 C 0.66912(62) 0.500 0.8264(12)
C3_2 C 0.65469(53) 0.3368(19) 0.7974(12)
C4_2 C 0.62538(58) 0.3368(19) 0.7376(13)
C5_3 C 0.60662(51) 0.500 0.7087(12)
C6_3 C 0.57307(50) 0.500 0.6445(11)
C7_3 C 0.53394(50) 0.500 0.6720(14)
C8_3 C 0.52018(39) 0.500 0.7503(12)
C9_3 C 0.58893(69) 0.500 0.56666(87)
C10_3 C 0.62755(55) 0.500 0.54075(95)
N1_5 N 0.5 0.500 0.6228(21)
N2_3 N 0.56439(74) 0.500 0.500
C11_3 C 0.30116(78) 0.500 0.8896(15)
C12_3 C 0.33088(62) 0.500 0.8264(12)
C13_2 C 0.34531(53) 0.6632(19) 0.7974(12)
C14_2 C 0.37462(58) 0.6632(19) 0.7376(13)
C15_3 C 0.39338(51) 0.500 0.7087(12)
C16_3 C 0.42693(50) 0.500 0.6445(11)
C17_3 C 0.46606(50) 0.500 0.6720(14)
C18_3 C 0.47982(39) 0.500 0.7503(12)
C19_3 C 0.41107(69) 0.500 0.56666(87)
C20_3 C 0.37245(55) 0.500 0.54075(95)
N3_3 N 0.43561(74) 0.500 0.500
C21_2 C 0.34531(53) 0.3368(19) 0.7974(12)
C22_2 C 0.37462(58) 0.3368(19) 0.7376(13)
C23_3 C 0.69884(78) 0.500 0.1104(15)
C24_3 C 0.66912(62) 0.500 0.1736(12)
C25_2 C 0.65469(53) 0.6632(19) 0.2026(12)
C26_2 C 0.62538(58) 0.6632(19) 0.2624(13)
C27_3 C 0.60662(51) 0.500 0.2913(12)
C28_3 C 0.57307(50) 0.500 0.3555(11)
C29_3 C 0.53394(50) 0.500 0.3280(14)
C30_3 C 0.52018(39) 0.500 0.2497(12)
C31_3 C 0.58893(69) 0.500 0.43334(87)
C32_3 C 0.62755(55) 0.500 0.45925(95)
N4_5 N 0.5 0.500 0.3772(21)
C33_2 C 0.65469(53) 0.6632(19) 0.7974(12)
C34_2 C 0.62538(58) 0.6632(19) 0.7376(13)
C35_2 C 0.65469(53) 0.3368(19) 0.2026(12)
C36_2 C 0.62538(58) 0.3368(19) 0.2624(13)
C37_3 C 0.30116(78) 0.500 0.1104(15)
C38_3 C 0.33088(62) 0.500 0.1736(12)
C39_2 C 0.34531(53) 0.6632(19) 0.2026(12)
C40_2 C 0.37462(58) 0.6632(19) 0.2624(13)
C41_3 C 0.39338(51) 0.500 0.2913(12)
C42_3 C 0.42693(50) 0.500 0.3555(11)
C43_3 C 0.46606(50) 0.500 0.3280(14)
C44_3 C 0.47982(39) 0.500 0.2497(12)
C45_3 C 0.41107(69) 0.500 0.43334(87)
C46_3 C 0.37245(55) 0.500 0.45925(95)
C47_2 C 0.34531(53) 0.3368(19) 0.2026(12)
C48_2 C 0.37462(58) 0.3368(19) 0.2624(13)
H1_2 H 0.616452 0.204543 0.288212
H2_2 H 0.616452 0.795457 0.288212
H3_2 H 0.666019 0.206148 0.820867
H4_2 H 0.383548 0.204543 0.711788
H5_3 H 0.654053 0.5 0.578892
H6_3 H 0.345947 0.5 0.578892
H7_2 H 0.616452 0.204543 0.711788
H8_3 H 0.53396 0.5 0.5
H9_3 H 0.46604 0.5 0.5
H10_3 H 0.654053 0.5 0.421108
H11_2 H 0.333981 0.206148 0.820867
H12_3 H 0.539053 0.5 0.196404
H13_2 H 0.666019 0.793852 0.820867
H14_3 H 0.539053 0.5 0.803596
H15_2 H 0.383548 0.795457 0.711788
H16_2 H 0.616452 0.795457 0.711788
H17_2 H 0.333981 0.793852 0.820867
H18_2 H 0.666019 0.206148 0.179133
H19_3 H 0.460947 0.5 0.803596
H20_2 H 0.666019 0.793852 0.179133
H21_3 H 0.460947 0.5 0.196404
H22_2 H 0.333981 0.206148 0.179133
H23_2 H 0.383548 0.795457 0.288212
H24_2 H 0.383548 0.204543 0.288212
H25_3 H 0.345947 0.5 0.421108
H26_2 H 0.333981 0.793852 0.179133
loop_
_geom_bond_atom_site_label_1
_geom_bond_atom_site_label_2
_geom_bond_site_symmetry_1
_geom_bond_site_symmetry_2
C11 C12 1_555 1_555
C15 C16 1_555 1_555
C16 C17 1_555 1_555
C17 N1 1_555 1_555
C19 C16 1_555 1_555
C20 C19 1_555 1_555
N3 C19 1_555 1_555
O4 C11 1_555 1_555
C21 C12 1_555 1_555
C22 C15 1_555 1_555
C37 C38 1_555 1_555
C41 C42 1_555 1_555
C42 C43 1_555 1_555
C43 N4 1_555 1_555
C44 C43 1_555 1_555
C45 N3 1_555 1_555
C46 C20 1_555 1_555
O9 C37 1_555 1_555
C47 C38 1_555 1_555
C48 C41 1_555 1_555
Sc5 O9 1_555 1_555
Sc5_2 O4 1_555 1_555
C17 C18 1_555 1_555
C21 C22 1_555 1_555
C42 C45 1_555 1_555
C45 C46 1_555 1_555
C47 C48 1_555 1_555
Sc5 O11 1_555 1_555
C22 H4 1_555 1_555
C20 H6 1_555 1_555
N3 H9 1_555 1_555
C21 H11 1_555 1_555
C18 H19 1_555 1_555
C44 H21 1_555 1_555
C47 H22 1_555 1_555
C48 H24 1_555 1_555
C46 H25 1_555 1_555
Sc5_2 O11_2 1_555 1_555
O3 C11_2 1_555 1_555
C11_2 C12_2 1_555 1_555
C12_2 C13 1_555 1_555
C13 C14 1_555 1_555
C14 C15_2 1_555 1_555
C15_2 C16_2 1_555 1_555
C16_2 C17_2 1_555 1_555
C17_2 N1_2 1_555 1_555
C19_2 C16_2 1_555 1_555
C20_2 C19_2 1_555 1_555
N3_2 C19_2 1_555 1_555
O8 C37_2 1_555 1_555
C37_2 C38_2 1_555 1_555
C38_2 C39 1_555 1_555
C39 C40 1_555 1_555
C40 C41_2 1_555 1_555
C41_2 C42_2 1_555 1_555
C42_2 C43_2 1_555 1_555
C43_2 N4_2 1_555 1_555
C44_2 C43_2 1_555 1_555
C45_2 N3_2 1_555 1_555
C46_2 C20_2 1_555 1_555
Sc3 O8 1_555 1_555
Sc3_2 O3 1_555 1_555
O11_3 Sc3 1_555 1_555
O12 Sc3 1_555 1_555
O17 Sc3 1_555 1_555
C17_2 C18_2 1_555 1_555
C42_2 C45_2 1_555 1_555
C45_2 C46_2 1_555 1_555
C20_2 H6_2 1_555 1_555
N3_2 H9_2 1_555 1_555
C14 H15 1_555 1_555
C13 H17 1_555 1_555
C18_2 H19_2 1_555 1_555
C44_2 H21_2 1_555 1_555
C40 H23 1_555 1_555
C46_2 H25_2 1_555 1_555
C39 H26 1_555 1_555
O11_4 Sc3_2 1_555 1_555
O12_2 Sc3_2 1_555 1_555
O18 Sc3_2 1_555 1_555
Sc1 O1 1_555 1_555
O10 Sc1 1_555 1_555
Sc8 O10 1_555 1_555
O14 Sc1 1_555 1_555
O15 Sc1 1_555 1_555
Sc1_2 O1_2 1_555 1_555
O2 Sc1_2 1_555 1_555
C1 O2 1_555 1_555
C2 C1 1_555 1_555
C3 C2 1_555 1_555
C4 C3 1_555 1_555
C5 C4 1_555 1_555
C6 C5 1_555 1_555
C7 C6 1_555 1_555
C8 C7 1_555 1_555
C9 C6 1_555 1_555
C10 C9 1_555 1_555
N1_3 C7 1_555 1_555
N2 C9 1_555 1_555
C23 C24 1_555 1_555
C27 C28 1_555 1_555
C28 C29 1_555 1_555
C29 C30 1_555 1_555
C31 N2 1_555 1_555
C32 C10 1_555 1_555
N4_3 C29 1_555 1_555
O14 C23 1_555 1_555
C35 C24 1_555 1_555
C36 C27 1_555 1_555
O10_2 Sc1_2 1_555 1_555
Sc8_2 O10_2 1_555 1_555
O16 Sc1_2 1_555 1_555
C28 C31 1_555 1_555
C31 C32 1_555 1_555
C35 C36 1_555 1_555
C36 H1 1_555 1_555
C3 H3 1_555 1_555
C10 H5 1_555 1_555
C4 H7 1_555 1_555
N2 H8 1_555 1_555
C32 H10 1_555 1_555
C30 H12 1_555 1_555
C8 H14 1_555 1_555
C35 H18 1_555 1_555
O1_3 Sc8 1_555 1_555
O1_4 Sc8_2 1_555 1_555
C2_2 C1_2 1_555 1_555
C6_2 C5_2 1_555 1_555
C7_2 C6_2 1_555 1_555
C8_2 C7_2 1_555 1_555
C9_2 C6_2 1_555 1_555
C10_2 C9_2 1_555 1_555
N1_4 C7_2 1_555 1_555
N2_2 C9_2 1_555 1_555
O5 C23_2 1_555 1_555
C23_2 C24_2 1_555 1_555
C24_2 C25 1_555 1_555
C25 C26 1_555 1_555
C26 C27_2 1_555 1_555
C27_2 C28_2 1_555 1_555
C28_2 C29_2 1_555 1_555
C29_2 C30_2 1_555 1_555
C31_2 N2_2 1_555 1_555
C32_2 C10_2 1_555 1_555
N4_4 C29_2 1_555 1_555
O6 C1_2 1_555 1_555
C33 C2_2 1_555 1_555
C34 C5_2 1_555 1_555
Sc8 O5 1_555 1_555
Sc8_2 O6 1_555 1_555
C28_2 C31_2 1_555 1_555
C31_2 C32_2 1_555 1_555
C33 C34 1_555 1_555
C26 H2 1_555 1_555
C10_2 H5_2 1_555 1_555
N2_2 H8_2 1_555 1_555
C32_2 H10_2 1_555 1_555
C30_2 H12_2 1_555 1_555
C33 H13 1_555 1_555
C8_2 H14_2 1_555 1_555
C34 H16 1_555 1_555
C25 H20 1_555 1_555
Sc5 O12 1_555 1_555
Sc5_2 O12_2 1_555 1_555
O16_2 Sc5 1_555 1_555
O15_2 Sc5_2 1_555 1_555
O18_2 Sc8 1_555 1_555
O17_2 Sc8_2 1_555 1_555
C1_3 O16 1_555 1_555
C2_3 C1_3 1_555 1_555
C3_2 C2_3 1_555 1_555
C4_2 C3_2 1_555 1_555
C5_3 C4_2 1_555 1_555
C6_3 C5_3 1_555 1_555
C7_3 C6_3 1_555 1_555
C8_3 C7_3 1_555 1_555
C9_3 C6_3 1_555 1_555
C10_3 C9_3 1_555 1_555
N1_5 C7_3 1_555 1_555
N2_3 C9_3 1_555 1_555
O18 C11_3 1_555 1_555
C11_3 C12_3 1_555 1_555
C12_3 C13_2 1_555 1_555
C13_2 C14_2 1_555 1_555
C14_2 C15_3 1_555 1_555
C15_3 C16_3 1_555 1_555
C16_3 C17_3 1_555 1_555
C17_3 N1_5 1_555 1_555
C18_3 C8_3 1_555 1_555
C19_3 C16_3 1_555 1_555
C20_3 C19_3 1_555 1_555
N3_3 C19_3 1_555 1_555
O15_2 C11_3 1_555 1_555
C21_2 C12_3 1_555 1_555
C22_2 C15_3 1_555 1_555
O18_2 C23_3 1_555 1_555
C23_3 C24_3 1_555 1_555
C24_3 C25_2 1_555 1_555
C25_2 C26_2 1_555 1_555
C26_2 C27_3 1_555 1_555
C27_3 C28_3 1_555 1_555
C28_3 C29_3 1_555 1_555
C29_3 C30_3 1_555 1_555
C30_3 C44_3 1_555 1_555
C31_3 N2_3 1_555 1_555
C32_3 C10_3 1_555 1_555
N4_5 C29_3 1_555 1_555
O17_2 C1_3 1_555 1_555
C33_2 C2_3 1_555 1_555
C34_2 C5_3 1_555 1_555
O15 C23_3 1_555 1_555
C35_2 C24_3 1_555 1_555
C36_2 C27_3 1_555 1_555
O17 C37_3 1_555 1_555
C37_3 C38_3 1_555 1_555
C38_3 C39_2 1_555 1_555
C39_2 C40_2 1_555 1_555
C40_2 C41_3 1_555 1_555
C41_3 C42_3 1_555 1_555
C42_3 C43_3 1_555 1_555
C43_3 N4_5 1_555 1_555
C44_3 C43_3 1_555 1_555
C45_3 N3_3 1_555 1_555
C46_3 C20_3 1_555 1_555
O16_2 C37_3 1_555 1_555
C47_2 C38_3 1_555 1_555
C48_2 C41_3 1_555 1_555
C17_3 C18_3 1_555 1_555
C21_2 C22_2 1_555 1_555
C28_3 C31_3 1_555 1_555
C31_3 C32_3 1_555 1_555
C33_2 C34_2 1_555 1_555
C35_2 C36_2 1_555 1_555
C42_3 C45_3 1_555 1_555
C45_3 C46_3 1_555 1_555
C47_2 C48_2 1_555 1_555
C36_2 H1_2 1_555 1_555
C26_2 H2_2 1_555 1_555
C3_2 H3_2 1_555 1_555
C22_2 H4_2 1_555 1_555
C10_3 H5_3 1_555 1_555
C20_3 H6_3 1_555 1_555
C4_2 H7_2 1_555 1_555
N2_3 H8_3 1_555 1_555
N3_3 H9_3 1_555 1_555
C32_3 H10_3 1_555 1_555
C21_2 H11_2 1_555 1_555
C30_3 H12_3 1_555 1_555
C33_2 H13_2 1_555 1_555
C8_3 H14_3 1_555 1_555
C14_2 H15_2 1_555 1_555
C34_2 H16_2 1_555 1_555
C13_2 H17_2 1_555 1_555
C35_2 H18_2 1_555 1_555
C18_3 H19_3 1_555 1_555
C25_2 H20_2 1_555 1_555
C44_3 H21_3 1_555 1_555
C47_2 H22_2 1_555 1_555
C40_2 H23_2 1_555 1_555
C48_2 H24_2 1_555 1_555
C46_3 H25_3 1_555 1_555
C39_2 H26_2 1_555 1_555

#END
