
###############################################################################
#
# This file contains modified crystal structure data generated from the
# MOF subset of the Cambridge Structural Database (CSD) v543 
# hosted by the Cambridge Crystallographic Data Centre (CCDC).
#
# This work is licensed under the Creative Commons
# Attribution-NonCommercial-ShareAlike 4.0 International License.
# To view a copy of this license, visit
# http://creativecommons.org/licenses/by-nc-sa/4.0/
# or send a letter to
# Creative Commons, PO Box 1866, Mountain View, CA 94042, USA.
#
# CIF created using the CSD Python API on 29 September 2022
# The structure has been converted into the P1 space group
# The structure has a 3D framework
# The original CSD entry SUNHUF is in the monoclinic crystal system
# The framework has been calculated to contain at least 10.0% void space
# The void calculation uses a probe of radius 1.32A, grid spacing 0.4
#
###############################################################################

data_SUNHUF
_chemical_formula_moiety         '(C84 H84 N4 Nd4 O36)n'
_symmetry_cell_setting           triclinic
_symmetry_space_group_name_H-M   'P 1'
_symmetry_Int_Tables_number      1
_space_group_name_Hall           'P 1'
loop_
_symmetry_equiv_pos_site_id
_symmetry_equiv_pos_as_xyz
1 x,y,z
_cell_length_a                   14.4400(3)
_cell_length_b                   12.2290(2)
_cell_length_c                   14.5152(3)
_cell_angle_alpha                90
_cell_angle_beta                 104.6570(10)
_cell_angle_gamma                90
_cell_volume                     2479.78
loop_
_atom_site_label
_atom_site_type_symbol
_atom_site_fract_x
_atom_site_fract_y
_atom_site_fract_z
O2 O 0.0744(4) 0.0861(4) 0.0462(3)
O3 O 0.3662(4) 0.3645(4) 0.4347(4)
O4 O 0.4648(4) 0.4068(4) 0.3433(4)
C1 C 0.2148(5) 0.1850(6) 0.1229(5)
C2 C 0.2825(5) 0.2577(6) 0.1082(5)
H1 H 0.2911 0.2674 0.0474
C3 C 0.3376(6) 0.3165(6) 0.1839(5)
H2 H 0.3817 0.3670 0.1730
C4 C 0.3283(5) 0.3016(6) 0.2749(5)
C5 C 0.2601(6) 0.2305(7) 0.2893(5)
H3 H 0.2527 0.2206 0.3506
C6 C 0.2018(6) 0.1730(7) 0.2143(5)
H4 H 0.1544 0.1269 0.2249
C7 C 0.1570(6) 0.1189(6) 0.0422(5)
C8 C 0.3904(5) 0.3629(6) 0.3577(5)
Nd3 Nd 0.42649(3) 0.44392(3) 0.59311(3)
Nd4 Nd 0.57351(3) 0.55608(3) 0.40689(3)
O22 O 0.0018(4) 0.1007(5) 0.2634(4)
O1 O 0.1893(4) 0.0967(5) 0.9732(4)
O8 O 0.1189(4) 0.0138(5) 0.7566(3)
C15 C 0.0872(6) 0.0359(6) 0.5553(5)
H7 H 0.1454 0.0611 0.5925
C37 C 0.0646(6) 0.0514(6) 0.4569(5)
H29 H 0.1083 0.0847 0.4285
C12 C 0.0990(7) 0.4932(8) 0.0214(7)
H6 H 0.1654 0.4880 0.0360
O13 O 0.1338(4) 0.8645(4) 0.0653(4)
O17 O 0.0352(4) 0.9068(4) 0.1567(4)
C32 C 0.0468(8) 0.4138(8) 0.0514(8)
H26 H 0.0787 0.3552 0.0863
Nd1 Nd 0.07351(3) 0.94392(3) 0.90689(3)
O5 O 0.1970(6) 0.6600(5) 0.9498(5)
O6 O 0.0594(4) 0.7487(4) 0.8890(4)
O9 O 0.2318(5) 0.8589(6) 0.9077(6)
N1 N 0.3492(12) 0.8395(12) 0.7480(10)
C9 C 0.1065(9) 0.6690(7) 0.9335(7)
C10 C 0.0530(8) 0.5822(7) 0.9687(7)
C13 C 0.0485(6) 0.9654(6) 0.7032(5)
C14 C 0.0239(5) 0.9832(6) 0.5985(5)
C17 C 0.4292(14) 0.8115(17) 0.7045(15)
H9 H 0.4838 0.8561 0.7323
H10 H 0.4096 0.8246 0.6371
H11 H 0.4457 0.7358 0.7159
C18 C 0.2549(16) 0.771(2) 0.702(2)
H12 H 0.2049 0.7922 0.7312
H13 H 0.2679 0.6947 0.7117
H14 H 0.2350 0.7862 0.6348
C19 C 0.3358(14) 0.9563(12) 0.7289(16)
H15 H 0.3942 0.9943 0.7572
H16 H 0.2857 0.9830 0.7556
H17 H 0.3186 0.9684 0.6614
C20 C 0.3908(13) 0.8314(13) 0.8539(13)
H18 H 0.4556 0.8599 0.8693
H19 H 0.3942 0.7550 0.8723
C21 C 0.3286(12) 0.8983(15) 0.9165(14)
H20 H 0.3631 0.8952 0.9831
H21 H 0.3251 0.9745 0.8973
Nd2 Nd 0.92649(3) 0.05608(3) 0.09311(3)
O20 O 0.9406(4) 0.2513(4) 0.1110(4)
O25 O 0.7682(5) 0.1411(6) 0.0923(6)
N2 N 0.6508(12) 0.1605(12) 0.2520(10)
C38 C 0.5708(14) 0.1885(17) 0.2955(15)
H30 H 0.5162 0.1439 0.2677
H31 H 0.5904 0.1754 0.3629
H32 H 0.5543 0.2642 0.2841
C39 C 0.7451(16) 0.229(2) 0.298(2)
H33 H 0.7951 0.2078 0.2688
H34 H 0.7321 0.3053 0.2883
H35 H 0.7650 0.2138 0.3652
C40 C 0.6642(14) 0.0437(12) 0.2711(16)
H36 H 0.6058 0.0057 0.2428
H37 H 0.7143 0.0170 0.2444
H38 H 0.6814 0.0316 0.3386
C41 C 0.6092(13) 0.1686(13) 0.1461(13)
H39 H 0.5444 0.1401 0.1307
H40 H 0.6058 0.2450 0.1277
C42 C 0.6714(12) 0.1017(15) 0.0835(14)
H41 H 0.6369 0.1048 0.0169
H42 H 0.6749 0.0255 0.1027
O14 O 0.8662(4) 0.1355(4) 0.9347(4)
O16 O 0.9648(4) 0.0932(4) 0.8433(4)
C34 C 0.9515(6) 0.0346(6) 0.2968(5)
C35 C 0.9761(5) 0.0168(6) 0.4015(5)
O10 O 0.8107(4) 0.9033(5) 0.0268(4)
O18 O 0.8030(6) 0.3400(5) 0.0502(5)
O24 O 0.8811(4) 0.9862(5) 0.2434(3)
C30 C 0.8935(9) 0.3310(7) 0.0665(7)
C31 C 0.9470(8) 0.4178(7) 0.0313(7)
O7 O 0.9982(4) 0.8993(5) 0.7366(4)
C11 C 0.9532(8) 0.5862(8) 0.9486(8)
H5 H 0.9213 0.6448 0.9137
C16 C 0.9354(6) 0.9486(6) 0.5431(5)
H8 H 0.8917 0.9153 0.5715
O11 O 0.9256(4) 0.9139(4) 0.9538(3)
O12 O 0.6338(4) 0.6355(4) 0.5653(4)
O15 O 0.5352(4) 0.5932(4) 0.6567(4)
C22 C 0.7852(5) 0.8150(6) 0.8771(5)
C23 C 0.7175(5) 0.7423(6) 0.8918(5)
H22 H 0.7089 0.7326 0.9526
C24 C 0.6624(6) 0.6835(6) 0.8161(5)
H23 H 0.6183 0.6330 0.8270
C25 C 0.6717(5) 0.6984(6) 0.7251(5)
C26 C 0.7399(6) 0.7695(7) 0.7107(5)
H24 H 0.7473 0.7794 0.6494
C27 C 0.7982(6) 0.8270(7) 0.7857(5)
H25 H 0.8456 0.8731 0.7751
C28 C 0.8430(6) 0.8811(6) 0.9578(5)
C29 C 0.6096(5) 0.6371(6) 0.6423(5)
C33 C 0.9010(7) 0.5068(8) 0.9786(7)
H27 H 0.8346 0.5120 0.9640
C36 C 0.9128(6) 0.9641(6) 0.4447(5)
H28 H 0.8546 0.9389 0.4075
O21 O 0.4982(4) 0.6007(5) 0.2366(4)
O23 O 0.6189(4) 0.4862(5) 0.2566(3)
C34_2 C 0.5485(6) 0.5346(6) 0.2032(5)
C35_2 C 0.5239(5) 0.5168(6) 0.0985(5)
C36_2 C 0.5872(6) 0.4641(6) 0.0553(5)
H28_2 H 0.6454 0.4389 0.0925
C37_2 C 0.4354(6) 0.5514(6) 0.0431(5)
H29_2 H 0.3917 0.5847 0.0715
O1_2 O 0.3107(4) 0.5967(5) 0.5268(4)
O2_2 O 0.4256(4) 0.5861(4) 0.4538(3)
O5_2 O 0.3030(6) 0.1600(5) 0.5502(5)
O6_2 O 0.4406(4) 0.2487(4) 0.6110(4)
O7_2 O 0.5018(4) 0.3993(5) 0.7634(4)
O8_2 O 0.3811(4) 0.5138(5) 0.7434(3)
O9_2 O 0.2682(5) 0.3589(6) 0.5923(6)
N1_2 N 0.1508(12) 0.3395(12) 0.7520(10)
C1_2 C 0.2852(5) 0.6850(6) 0.3771(5)
C2_2 C 0.2175(5) 0.7577(6) 0.3918(5)
H1_2 H 0.2089 0.7674 0.4526
C3_2 C 0.1624(6) 0.8165(6) 0.3161(5)
H2_2 H 0.1183 0.8670 0.3270
C4_2 C 0.1717(5) 0.8016(6) 0.2251(5)
C5_2 C 0.2399(6) 0.7305(7) 0.2107(5)
H3_2 H 0.2473 0.7206 0.1494
C6_2 C 0.2982(6) 0.6730(7) 0.2857(5)
H4_2 H 0.3456 0.6269 0.2751
C7_2 C 0.3430(6) 0.6189(6) 0.4578(5)
C8_2 C 0.1096(5) 0.8629(6) 0.1423(5)
C9_2 C 0.3935(9) 0.1690(7) 0.5665(7)
C10_2 C 0.4470(8) 0.0822(7) 0.5313(7)
C11_2 C 0.5468(8) 0.0862(8) 0.5514(8)
H5_2 H 0.5787 0.1448 0.5863
C13_2 C 0.4515(6) 0.4654(6) 0.7968(5)
C14_2 C 0.4761(5) 0.4832(6) 0.9015(5)
C15_2 C 0.4128(6) 0.5359(6) 0.9447(5)
H7_2 H 0.3546 0.5611 0.9075
C16_2 C 0.5646(6) 0.4486(6) 0.9569(5)
H8_2 H 0.6083 0.4153 0.9285
C17_2 C 0.0708(14) 0.3115(17) 0.7955(15)
H9_2 H 0.0162 0.3561 0.7677
H10_2 H 0.0904 0.3246 0.8629
H11_2 H 0.0543 0.2358 0.7841
C18_2 C 0.2451(16) 0.271(2) 0.798(2)
H12_2 H 0.2951 0.2922 0.7688
H13_2 H 0.2321 0.1947 0.7883
H14_2 H 0.2650 0.2862 0.8652
C19_2 C 0.1642(14) 0.4563(12) 0.7711(16)
H15_2 H 0.1058 0.4943 0.7428
H16_2 H 0.2143 0.4830 0.7444
H17_2 H 0.1814 0.4684 0.8386
C20_2 C 0.1092(13) 0.3314(13) 0.6461(13)
H18_2 H 0.0444 0.3599 0.6307
H19_2 H 0.1058 0.2550 0.6277
C21_2 C 0.1714(12) 0.3983(15) 0.5835(14)
H20_2 H 0.1369 0.3952 0.5169
H21_2 H 0.1749 0.4745 0.6027
O10_2 O 0.6893(4) 0.4033(5) 0.4732(4)
O11_2 O 0.5744(4) 0.4139(4) 0.5462(3)
O20_2 O 0.5594(4) 0.7513(4) 0.3890(4)
O25_2 O 0.7318(5) 0.6411(6) 0.4077(6)
N2_2 N 0.8492(12) 0.6605(12) 0.2480(10)
C22_2 C 0.7148(5) 0.3150(6) 0.6229(5)
C23_2 C 0.7825(5) 0.2423(6) 0.6082(5)
H22_2 H 0.7911 0.2326 0.5474
C24_2 C 0.8376(6) 0.1835(6) 0.6839(5)
H23_2 H 0.8817 0.1330 0.6730
C25_2 C 0.8283(5) 0.1984(6) 0.7749(5)
C26_2 C 0.7601(6) 0.2695(7) 0.7893(5)
H24_2 H 0.7527 0.2794 0.8506
C27_2 C 0.7018(6) 0.3270(7) 0.7143(5)
H25_2 H 0.6544 0.3731 0.7249
C28_2 C 0.6570(6) 0.3811(6) 0.5422(5)
C29_2 C 0.8904(5) 0.1371(6) 0.8577(5)
C33_2 C 0.5990(7) 0.0068(8) 0.5214(7)
H27_2 H 0.6654 0.0120 0.5360
C38_2 C 0.9292(14) 0.6885(17) 0.2045(15)
H30_2 H 0.9838 0.6439 0.2323
H31_2 H 0.9096 0.6754 0.1371
H32_2 H 0.9457 0.7642 0.2159
C39_2 C 0.7549(16) 0.729(2) 0.202(2)
H33_2 H 0.7049 0.7078 0.2312
H34_2 H 0.7679 0.8053 0.2117
H35_2 H 0.7350 0.7138 0.1348
C40_2 C 0.8358(14) 0.5437(12) 0.2289(16)
H36_2 H 0.8942 0.5057 0.2572
H37_2 H 0.7857 0.5170 0.2556
H38_2 H 0.8186 0.5316 0.1614
C41_2 C 0.8908(13) 0.6686(13) 0.3539(13)
H39_2 H 0.9556 0.6401 0.3693
H40_2 H 0.8942 0.7450 0.3723
C42_2 C 0.8286(12) 0.6017(15) 0.4165(14)
H41_2 H 0.8631 0.6048 0.4831
H42_2 H 0.8251 0.5255 0.3973
C12_2 C 0.4010(7) 0.9932(8) 0.4786(7)
H6_2 H 0.3346 0.9880 0.4640
O18_2 O 0.6970(6) 0.8400(5) 0.4498(5)
C30_2 C 0.6065(9) 0.8310(7) 0.4335(7)
C31_2 C 0.5530(8) 0.9178(7) 0.4687(7)
C32_2 C 0.4532(8) 0.9138(8) 0.4486(8)
H26_2 H 0.4213 0.8552 0.4137
loop_
_geom_bond_atom_site_label_1
_geom_bond_atom_site_label_2
_geom_bond_site_symmetry_1
_geom_bond_site_symmetry_2
O3 C8 1_555 1_555
O4 C8 1_555 1_555
C1 C2 1_555 1_555
C2 H1 1_555 1_555
C3 C2 1_555 1_555
H2 C3 1_555 1_555
C4 C3 1_555 1_555
C5 C4 1_555 1_555
H3 C5 1_555 1_555
C6 C1 1_555 1_555
H4 C6 1_555 1_555
C7 O2 1_555 1_555
C8 C4 1_555 1_555
Nd3 O3 1_555 1_555
Nd4 O4 1_555 1_555
C1 C7 1_555 1_555
C5 C6 1_555 1_555
H7 C15 1_555 1_555
C37 C15 1_555 1_555
H29 C37 1_555 1_555
H6 C12 1_555 1_555
C32 C12 1_555 1_555
H26 C32 1_555 1_555
O5 C9 1_555 1_555
O6 Nd1 1_555 1_555
O9 Nd1 1_555 1_555
N1 C17 1_555 1_555
C9 O6 1_555 1_555
C10 C9 1_555 1_555
C14 C13 1_555 1_555
C17 H9 1_555 1_555
H10 C17 1_555 1_555
H11 C17 1_555 1_555
C18 N1 1_555 1_555
H12 C18 1_555 1_555
H13 C18 1_555 1_555
H14 C18 1_555 1_555
C19 N1 1_555 1_555
H15 C19 1_555 1_555
H16 C19 1_555 1_555
H17 C19 1_555 1_555
C20 N1 1_555 1_555
H18 C20 1_555 1_555
H19 C20 1_555 1_555
C21 O9 1_555 1_555
H20 C21 1_555 1_555
H21 C21 1_555 1_555
C20 C21 1_555 1_555
O20 Nd2 1_555 1_555
O25 Nd2 1_555 1_555
N2 C38 1_555 1_555
C38 H30 1_555 1_555
H31 C38 1_555 1_555
H32 C38 1_555 1_555
C39 N2 1_555 1_555
H33 C39 1_555 1_555
H34 C39 1_555 1_555
H35 C39 1_555 1_555
C40 N2 1_555 1_555
H36 C40 1_555 1_555
H37 C40 1_555 1_555
H38 C40 1_555 1_555
C41 N2 1_555 1_555
H39 C41 1_555 1_555
H40 C41 1_555 1_555
C42 O25 1_555 1_555
H41 C42 1_555 1_555
H42 C42 1_555 1_555
C41 C42 1_555 1_555
C35 C34 1_555 1_555
O18 C30 1_555 1_555
O20 C30 1_555 1_555
C30 C31 1_555 1_555
H5 C11 1_555 1_555
H8 C16 1_555 1_555
Nd4 O12 1_555 1_555
Nd3 O15 1_555 1_555
O12 C29 1_555 1_555
O15 C29 1_555 1_555
C22 C23 1_555 1_555
C23 H22 1_555 1_555
C24 C23 1_555 1_555
H23 C24 1_555 1_555
C25 C24 1_555 1_555
C26 C25 1_555 1_555
H24 C26 1_555 1_555
C27 C22 1_555 1_555
H25 C27 1_555 1_555
C29 C25 1_555 1_555
C33 C11 1_555 1_555
H27 C33 1_555 1_555
C36 C16 1_555 1_555
H28 C36 1_555 1_555
O11 C28 1_555 1_555
C22 C28 1_555 1_555
C26 C27 1_555 1_555
Nd4 O21 1_555 1_555
O21 C34_2 1_555 1_555
O23 Nd4 1_555 1_555
C34_2 O23 1_555 1_555
C35_2 C34_2 1_555 1_555
H28_2 C36_2 1_555 1_555
H29_2 C37_2 1_555 1_555
C35_2 C36_2 1_555 1_555
C35_2 C37_2 1_555 1_555
Nd3 O1_2 1_555 1_555
O1_2 C7_2 1_555 1_555
O2_2 Nd3 1_555 1_555
O13 C8_2 1_555 1_555
O17 C8_2 1_555 1_555
O5_2 C9_2 1_555 1_555
O6_2 Nd3 1_555 1_555
O7_2 Nd3 1_555 1_555
O8_2 Nd3 1_555 1_555
O9_2 Nd3 1_555 1_555
N1_2 C17_2 1_555 1_555
C1_2 C2_2 1_555 1_555
C2_2 H1_2 1_555 1_555
C3_2 C2_2 1_555 1_555
H2_2 C3_2 1_555 1_555
C4_2 C3_2 1_555 1_555
C5_2 C4_2 1_555 1_555
H3_2 C5_2 1_555 1_555
C6_2 C1_2 1_555 1_555
H4_2 C6_2 1_555 1_555
C7_2 O2_2 1_555 1_555
C8_2 C4_2 1_555 1_555
C9_2 O6_2 1_555 1_555
C10_2 C9_2 1_555 1_555
C11_2 C10_2 1_555 1_555
H5_2 C11_2 1_555 1_555
C13_2 O7_2 1_555 1_555
C14_2 C13_2 1_555 1_555
C15_2 C14_2 1_555 1_555
H7_2 C15_2 1_555 1_555
C16_2 C14_2 1_555 1_555
H8_2 C16_2 1_555 1_555
C17_2 H9_2 1_555 1_555
H10_2 C17_2 1_555 1_555
H11_2 C17_2 1_555 1_555
C18_2 N1_2 1_555 1_555
H12_2 C18_2 1_555 1_555
H13_2 C18_2 1_555 1_555
H14_2 C18_2 1_555 1_555
C19_2 N1_2 1_555 1_555
H15_2 C19_2 1_555 1_555
H16_2 C19_2 1_555 1_555
H17_2 C19_2 1_555 1_555
C20_2 N1_2 1_555 1_555
H18_2 C20_2 1_555 1_555
H19_2 C20_2 1_555 1_555
C21_2 O9_2 1_555 1_555
H20_2 C21_2 1_555 1_555
H21_2 C21_2 1_555 1_555
Nd4 O2_2 1_555 1_555
O10_2 Nd4 1_555 1_555
O11_2 Nd3 1_555 1_555
O14 C29_2 1_555 1_555
O16 C29_2 1_555 1_555
O20_2 Nd4 1_555 1_555
O25_2 Nd4 1_555 1_555
N2_2 C38_2 1_555 1_555
C22_2 C23_2 1_555 1_555
C23_2 H22_2 1_555 1_555
C24_2 C23_2 1_555 1_555
H23_2 C24_2 1_555 1_555
C25_2 C24_2 1_555 1_555
C26_2 C25_2 1_555 1_555
H24_2 C26_2 1_555 1_555
C27_2 C22_2 1_555 1_555
H25_2 C27_2 1_555 1_555
C28_2 O10_2 1_555 1_555
C29_2 C25_2 1_555 1_555
C33_2 C11_2 1_555 1_555
H27_2 C33_2 1_555 1_555
C38_2 H30_2 1_555 1_555
H31_2 C38_2 1_555 1_555
H32_2 C38_2 1_555 1_555
C39_2 N2_2 1_555 1_555
H33_2 C39_2 1_555 1_555
H34_2 C39_2 1_555 1_555
H35_2 C39_2 1_555 1_555
C40_2 N2_2 1_555 1_555
H36_2 C40_2 1_555 1_555
H37_2 C40_2 1_555 1_555
H38_2 C40_2 1_555 1_555
C41_2 N2_2 1_555 1_555
H39_2 C41_2 1_555 1_555
H40_2 C41_2 1_555 1_555
C42_2 O25_2 1_555 1_555
H41_2 C42_2 1_555 1_555
H42_2 C42_2 1_555 1_555
O8_2 C13_2 1_555 1_555
C1_2 C7_2 1_555 1_555
C5_2 C6_2 1_555 1_555
C20_2 C21_2 1_555 1_555
Nd4 O11_2 1_555 1_555
O11_2 C28_2 1_555 1_555
C22_2 C28_2 1_555 1_555
C26_2 C27_2 1_555 1_555
C41_2 C42_2 1_555 1_555
H6_2 C12_2 1_555 1_555
O18_2 C30_2 1_555 1_555
O20_2 C30_2 1_555 1_555
C30_2 C31_2 1_555 1_555
C31_2 C32_2 1_555 1_555
C32_2 C12_2 1_555 1_555
H26_2 C32_2 1_555 1_555

#END
