
###############################################################################
#
# This file contains modified crystal structure data generated from the
# MOF subset of the Cambridge Structural Database (CSD) v543 
# hosted by the Cambridge Crystallographic Data Centre (CCDC).
#
# This work is licensed under the Creative Commons
# Attribution-NonCommercial-ShareAlike 4.0 International License.
# To view a copy of this license, visit
# http://creativecommons.org/licenses/by-nc-sa/4.0/
# or send a letter to
# Creative Commons, PO Box 1866, Mountain View, CA 94042, USA.
#
# CIF created using the CSD Python API on 29 September 2022
# The structure has been converted into the P1 space group
# The structure has a 3D framework
# The original CSD entry SUNTIH is in the tetragonal crystal system
# The original CSD entry SUNTIH is in a Sohncke space group
# The framework has been calculated to contain at least 10.0% void space
# The void calculation uses a probe of radius 1.32A, grid spacing 0.4
#
###############################################################################

data_SUNTIH
_chemical_formula_moiety         '(C52 H32 N16 Zn4)n'
_symmetry_cell_setting           triclinic
_symmetry_space_group_name_H-M   'P 1'
_symmetry_Int_Tables_number      1
_space_group_name_Hall           'P 1'
loop_
_symmetry_equiv_pos_site_id
_symmetry_equiv_pos_as_xyz
1 x,y,z
_cell_length_a                   13.281(5)
_cell_length_b                   13.281(5)
_cell_length_c                   14.452(5)
_cell_angle_alpha                90
_cell_angle_beta                 90
_cell_angle_gamma                90
_cell_volume                     2549.12
loop_
_atom_site_label
_atom_site_type_symbol
_atom_site_fract_x
_atom_site_fract_y
_atom_site_fract_z
N1 N 0.4939(6) 0.3886(4) 0.4540(3)
C2 C 0.4908(8) 0.2931(5) 0.4264(5)
H2 H 0.4833 0.2725 0.3652
C3 C 0.5000 0.2294(7) 0.5000
C6 C 0.5000 0.1172(7) 0.5000
C7 C 0.4788(10) 0.0637(6) 0.4204(6)
H3 H 0.4631 0.0981 0.3663
N3 N 0.5061(6) 0.3886(4) 0.5460(3)
C10 C 0.5092(8) 0.2931(5) 0.5736(5)
H6 H 0.5167 0.2725 0.6348
C11 C 0.5212(10) 0.0637(6) 0.5796(6)
H7 H 0.5369 0.0981 0.6337
Zn2 Zn 0.48828(5) 0.51172(5) 0.3750
Zn4 Zn 0.51172(5) 0.51172(5) 0.6250
N2 N 0.4861(6) 0.6332(4) 0.4544(3)
C1 C 0.4784(8) 0.7280(5) 0.4279(5)
H1 H 0.4609 0.7484 0.3684
C4 C 0.5000 0.7934(7) 0.5000
C5 C 0.5000 0.9045(7) 0.5000
C8 C 0.4806(10) 0.9584(6) 0.4204(6)
H4 H 0.4685 0.9239 0.3655
N4 N 0.5139(6) 0.6332(4) 0.5456(3)
C9 C 0.5216(8) 0.7280(5) 0.5721(5)
H5 H 0.5391 0.7484 0.6316
C12 C 0.5194(10) 0.9584(6) 0.5796(6)
H8 H 0.5315 0.9239 0.6345
N6 N 0.6114(4) 0.5061(6) 0.2960(3)
N7 N 0.3668(4) 0.5139(6) 0.2956(3)
C4_2 C 0.5000 0.2066(7) 0.0000
C5_2 C 0.5000 0.0955(7) 0.0000
N4_2 N 0.4861(6) 0.3668(4) 0.0456(3)
C9_2 C 0.4784(8) 0.2720(5) 0.0721(5)
H5_2 H 0.4609 0.2516 0.1316
C12_2 C 0.4806(10) 0.0416(6) 0.0796(6)
H8_2 H 0.4685 0.0761 0.1345
Zn3 Zn 0.48828(5) 0.48828(5) 0.1250
Zn1 Zn 0.51172(5) 0.48828(5) 0.8750
N2_2 N 0.5139(6) 0.3668(4) 0.9544(3)
C1_2 C 0.5216(8) 0.2720(5) 0.9279(5)
H1_2 H 0.5391 0.2516 0.8684
C4_3 C 0.5000 0.2066(7) 1.0000
C5_3 C 0.5000 0.0955(7) 1.0000
C8_2 C 0.5194(10) 0.0416(6) 0.9204(6)
H4_2 H 0.5315 0.0761 0.8655
N5 N 0.5061(6) 0.6114(4) 0.9540(3)
N6_2 N 0.3886(4) 0.4939(6) 0.7960(3)
N7_2 N 0.6332(4) 0.4861(6) 0.7956(3)
C3_2 C 0.5000 0.7706(7) 0.0000
C6_2 C 0.5000 0.8828(7) 0.0000
N3_2 N 0.4939(6) 0.6114(4) 0.0460(3)
C10_2 C 0.4908(8) 0.7069(5) 0.0736(5)
H6_2 H 0.4833 0.7275 0.1348
C11_2 C 0.4788(10) 0.9363(6) 0.0796(6)
H7_2 H 0.4631 0.9019 0.1337
C2_2 C 0.5092(8) 0.7069(5) 0.9264(5)
H2_2 H 0.5167 0.7275 0.8652
C3_3 C 0.5000 0.7706(7) 1.0000
C6_3 C 0.5000 0.8828(7) 1.0000
C7_2 C 0.5212(10) 0.9363(6) 0.9204(6)
H3_2 H 0.5369 0.9019 0.8663
N2_3 N 0.3668(4) 0.4861(6) 0.2044(3)
C1_3 C 0.2720(5) 0.4784(8) 0.1779(5)
H1_3 H 0.2516 0.4609 0.1184
C4_4 C 0.2066(7) 0.5000 0.2500
C5_4 C 0.0955(7) 0.5000 0.2500
C8_3 C 0.0416(6) 0.4806(10) 0.1704(6)
H4_3 H 0.0761 0.4685 0.1155
C9_3 C 0.2720(5) 0.5216(8) 0.3221(5)
H5_3 H 0.2516 0.5391 0.3816
C12_3 C 0.0416(6) 0.5194(10) 0.3296(6)
H8_3 H 0.0761 0.5315 0.3845
N5_2 N 0.6114(4) 0.4939(6) 0.2040(3)
C2_3 C 0.7069(5) 0.4908(8) 0.1764(5)
H2_3 H 0.7275 0.4833 0.1152
C3_4 C 0.7706(7) 0.5000 0.2500
C6_4 C 0.8828(7) 0.5000 0.2500
C7_3 C 0.9363(6) 0.4788(10) 0.1704(6)
H3_3 H 0.9019 0.4631 0.1163
C10_3 C 0.7069(5) 0.5092(8) 0.3236(5)
H6_3 H 0.7275 0.5167 0.3848
C11_3 C 0.9363(6) 0.5212(10) 0.3296(6)
H7_3 H 0.9019 0.5369 0.3837
N1_2 N 0.3886(4) 0.5061(6) 0.7040(3)
C2_4 C 0.2931(5) 0.5092(8) 0.6764(5)
H2_4 H 0.2725 0.5167 0.6152
C3_5 C 0.2294(7) 0.5000 0.7500
C6_5 C 0.1172(7) 0.5000 0.7500
C7_4 C 0.0637(6) 0.5212(10) 0.6704(6)
H3_4 H 0.0981 0.5369 0.6163
C10_4 C 0.2931(5) 0.4908(8) 0.8236(5)
H6_4 H 0.2725 0.4833 0.8848
C11_4 C 0.0637(6) 0.4788(10) 0.8296(6)
H7_4 H 0.0981 0.4631 0.8837
N2_4 N 0.6332(4) 0.5139(6) 0.7044(3)
C1_4 C 0.7280(5) 0.5216(8) 0.6779(5)
H1_4 H 0.7484 0.5391 0.6184
C4_5 C 0.7934(7) 0.5000 0.7500
C5_5 C 0.9045(7) 0.5000 0.7500
C8_4 C 0.9584(6) 0.5194(10) 0.6704(6)
H4_4 H 0.9239 0.5315 0.6155
C9_4 C 0.7280(5) 0.4784(8) 0.8221(5)
H5_4 H 0.7484 0.4609 0.8816
C12_4 C 0.9584(6) 0.4806(10) 0.8296(6)
H8_4 H 0.9239 0.4685 0.8845
loop_
_geom_bond_atom_site_label_1
_geom_bond_atom_site_label_2
_geom_bond_site_symmetry_1
_geom_bond_site_symmetry_2
N1 C2 1_555 1_555
C2 H2 1_555 1_555
C3 C2 1_555 1_555
C6 C3 1_555 1_555
C7 C6 1_555 1_555
H3 C7 1_555 1_555
N3 N1 1_555 1_555
C10 C3 1_555 1_555
H6 C10 1_555 1_555
C11 C6 1_555 1_555
H7 C11 1_555 1_555
Zn2 N1 1_555 1_555
Zn4 N3 1_555 1_555
N3 C10 1_555 1_555
Zn2 N2 1_555 1_555
N2 C1 1_555 1_555
C1 H1 1_555 1_555
C4 C1 1_555 1_555
C5 C4 1_555 1_555
C8 C5 1_555 1_555
H4 C8 1_555 1_555
N4 N2 1_555 1_555
C9 C4 1_555 1_555
H5 C9 1_555 1_555
C12 C5 1_555 1_555
H8 C12 1_555 1_555
Zn4 N4 1_555 1_555
N6 Zn2 1_555 1_555
N7 Zn2 1_555 1_555
N4 C9 1_555 1_555
C5_2 C4_2 1_555 1_555
C9_2 C4_2 1_555 1_555
H5_2 C9_2 1_555 1_555
C12_2 C5_2 1_555 1_555
H8_2 C12_2 1_555 1_555
Zn3 N4_2 1_555 1_555
N4_2 C9_2 1_555 1_555
Zn1 N2_2 1_555 1_555
N2_2 C1_2 1_555 1_555
C1_2 H1_2 1_555 1_555
C4_3 C1_2 1_555 1_555
C5_3 C4_3 1_555 1_555
C8_2 C5_3 1_555 1_555
H4_2 C8_2 1_555 1_555
N5 Zn1 1_555 1_555
N6_2 Zn1 1_555 1_555
N7_2 Zn1 1_555 1_555
C6_2 C3_2 1_555 1_555
C10_2 C3_2 1_555 1_555
H6_2 C10_2 1_555 1_555
C11_2 C6_2 1_555 1_555
H7_2 C11_2 1_555 1_555
Zn3 N3_2 1_555 1_555
N3_2 C10_2 1_555 1_555
N5 C2_2 1_555 1_555
C2_2 H2_2 1_555 1_555
C3_3 C2_2 1_555 1_555
C6_3 C3_3 1_555 1_555
C7_2 C6_3 1_555 1_555
H3_2 C7_2 1_555 1_555
Zn3 N2_3 1_555 1_555
N2_3 C1_3 1_555 1_555
C1_3 H1_3 1_555 1_555
C4_4 C1_3 1_555 1_555
C5_4 C4_4 1_555 1_555
C8_3 C5_4 1_555 1_555
H4_3 C8_3 1_555 1_555
N7 N2_3 1_555 1_555
C9_3 C4_4 1_555 1_555
H5_3 C9_3 1_555 1_555
C12_3 C5_4 1_555 1_555
H8_3 C12_3 1_555 1_555
N5_2 Zn3 1_555 1_555
N7 C9_3 1_555 1_555
N5_2 C2_3 1_555 1_555
C2_3 H2_3 1_555 1_555
C3_4 C2_3 1_555 1_555
C6_4 C3_4 1_555 1_555
C7_3 C6_4 1_555 1_555
H3_3 C7_3 1_555 1_555
N6 N5_2 1_555 1_555
C10_3 C3_4 1_555 1_555
H6_3 C10_3 1_555 1_555
C11_3 C6_4 1_555 1_555
H7_3 C11_3 1_555 1_555
N6 C10_3 1_555 1_555
N1_2 C2_4 1_555 1_555
C2_4 H2_4 1_555 1_555
C3_5 C2_4 1_555 1_555
C6_5 C3_5 1_555 1_555
C7_4 C6_5 1_555 1_555
H3_4 C7_4 1_555 1_555
N6_2 N1_2 1_555 1_555
C10_4 C3_5 1_555 1_555
H6_4 C10_4 1_555 1_555
C11_4 C6_5 1_555 1_555
H7_4 C11_4 1_555 1_555
Zn4 N1_2 1_555 1_555
N6_2 C10_4 1_555 1_555
Zn4 N2_4 1_555 1_555
N2_4 C1_4 1_555 1_555
C1_4 H1_4 1_555 1_555
C4_5 C1_4 1_555 1_555
C5_5 C4_5 1_555 1_555
C8_4 C5_5 1_555 1_555
H4_4 C8_4 1_555 1_555
N7_2 N2_4 1_555 1_555
C9_4 C4_5 1_555 1_555
H5_4 C9_4 1_555 1_555
C12_4 C5_5 1_555 1_555
H8_4 C12_4 1_555 1_555
N7_2 C9_4 1_555 1_555

#END
