
###############################################################################
#
# This file contains modified crystal structure data generated from the
# MOF subset of the Cambridge Structural Database (CSD) v543 
# hosted by the Cambridge Crystallographic Data Centre (CCDC).
#
# This work is licensed under the Creative Commons
# Attribution-NonCommercial-ShareAlike 4.0 International License.
# To view a copy of this license, visit
# http://creativecommons.org/licenses/by-nc-sa/4.0/
# or send a letter to
# Creative Commons, PO Box 1866, Mountain View, CA 94042, USA.
#
# CIF created using the CSD Python API on 29 September 2022
# The structure has been converted into the P1 space group
# The structure has a 3D framework
# The original CSD entry SUPCUE is in the monoclinic crystal system
# The original CSD entry SUPCUE is in a Sohncke space group
# The framework has been calculated to contain at least 10.0% void space
# The void calculation uses a probe of radius 1.32A, grid spacing 0.4
#
###############################################################################

data_SUPCUE
_chemical_formula_moiety         '(C68 H44 Co2 N8 O8)n'
_symmetry_cell_setting           triclinic
_symmetry_space_group_name_H-M   'P 1'
_symmetry_Int_Tables_number      1
_space_group_name_Hall           'P 1'
loop_
_symmetry_equiv_pos_site_id
_symmetry_equiv_pos_as_xyz
1 x,y,z
_cell_length_a                   10.4292(10)
_cell_length_b                   17.1816(17)
_cell_length_c                   16.9997(17)
_cell_angle_alpha                90
_cell_angle_beta                 98.0000(10)
_cell_angle_gamma                90
_cell_volume                     3016.54
loop_
_atom_site_label
_atom_site_type_symbol
_atom_site_fract_x
_atom_site_fract_y
_atom_site_fract_z
Co1 Co 0.74953(3) 0.18161(3) 0.24956(2)
O1 O 0.61642(16) 0.24997(10) 0.18227(9)
O2 O 0.67979(18) 0.29304(13) 0.06935(12)
C1 C 0.5997(2) 0.28622(15) 0.11530(15)
C2 C 0.4692(3) 0.32185(16) 0.09537(16)
C3 C 0.3638(3) 0.29799(15) 0.13216(16)
H1 H 0.3763 0.2603 0.1718
C4 C 0.2408(2) 0.32920(16) 0.11095(16)
C5 C 0.2238(3) 0.38926(17) 0.05512(18)
H2 H 0.1431 0.4127 0.0432
C6 C 0.3261(3) 0.41444(16) 0.01711(16)
C7 C 0.4471(3) 0.37948(17) 0.03624(16)
H3 H 0.5147 0.3946 0.0093
C8 C 0.1282(3) 0.29649(16) 0.14439(17)
C9 C 0.1192(2) 0.21767(14) 0.15739(14)
H4 H 0.1854 0.1846 0.1468
C10 C 0.0120(2) 0.18770(15) 0.18619(12)
H5 H 0.0075 0.1342 0.1937
C12 C 0.0273(2) 0.34309(15) 0.16305(16)
H7 H 0.0302 0.3967 0.1559
H8 H 0.2486 0.5611 0.0237
C19 C 0.0308(2) 0.02969(16) 0.39326(16)
C20 C 0.1352(3) 0.06425(17) 0.36700(16)
H12 H 0.1223 0.1035 0.3290
C21 C 0.2606(3) 0.04109(17) 0.39670(17)
C25 C 0.3725(2) 0.07573(16) 0.36346(16)
C26 C 0.3673(2) 0.08981(15) 0.28385(15)
H15 H 0.2922 0.0790 0.2494
C27 C 0.4739(2) 0.12008(14) 0.25493(14)
H16 H 0.4680 0.1297 0.2007
C28 C 0.5905(2) 0.12322(15) 0.37868(14)
H17 H 0.6671 0.1345 0.4117
C29 C 0.4882(3) 0.09382(17) 0.41246(15)
H18 H 0.4957 0.0861 0.4670
N3 N 0.58545(19) 0.13638(13) 0.30095(12)
O5 O 0.88378(17) 0.11426(10) 0.31867(10)
N5 N 0.9148(2) 0.23178(12) 0.20364(12)
N6 N 0.7272(2) 0.09229(12) 0.15988(12)
N7 N 0.7727(2) 0.26983(12) 0.34041(12)
C13 C 0.3075(3) 0.47619(16) 0.95631(16)
C14 C 0.2662(3) 0.54932(17) 0.97293(16)
C15 C 0.2507(3) 0.60556(16) 0.91431(15)
H9 H 0.2237 0.6549 0.9272
C16 C 0.3108(3) 0.52023(16) 0.82350(16)
H10 H 0.3246 0.5093 0.7718
C17 C 0.3305(3) 0.46124(17) 0.87940(17)
H11 H 0.3587 0.4124 0.8656
N2 N 0.2728(2) 0.59229(12) 0.84012(12)
Co4 Co 0.25047(3) 0.68161(3) 0.75044(2)
C22 C 0.2787(3) 0.98387(17) 0.45478(17)
H13 H 0.3621 0.9687 0.4757
C23 C 0.1727(3) 0.94907(17) 0.48179(17)
C24 C 0.0490(3) 0.97088(17) 0.44982(16)
C30 C 0.1934(3) 0.88662(17) 0.54380(16)
C31 C 0.3025(3) 0.88223(17) 0.59776(16)
H19 H 0.3681 0.9187 0.5964
C32 C 0.3169(2) 0.82430(15) 0.65453(15)
H20 H 0.3924 0.8232 0.6908
C33 C 0.1206(2) 0.77293(16) 0.60605(15)
H21 H 0.0566 0.7357 0.6087
C34 C 0.1007(2) 0.82860(16) 0.54691(16)
H22 H 0.0264 0.8274 0.5097
N4 N 0.2273(2) 0.76983(12) 0.65959(12)
O4 O 0.80267(18) 0.00672(13) 0.36679(14)
C11 C 0.9234(2) 0.30976(14) 0.19215(15)
H6 H 0.8570 0.3417 0.2044
C18 C 0.8928(2) 0.05207(16) 0.35711(15)
O3 O 0.11622(17) 0.61426(10) 0.68133(10)
O4_2 O 0.19733(18) 0.50672(13) 0.63321(14)
C11_2 C 0.0766(2) 0.80976(14) 0.80785(15)
H6_2 H 0.1430 0.8417 0.7956
C18_2 C 0.1072(2) 0.55207(16) 0.64289(15)
H14 H 0.0221 0.4462 0.5339
N1 N 0.0852(2) 0.73178(12) 0.79636(12)
C14_2 C 0.7338(3) 0.04932(17) 0.02707(16)
C15_2 C 0.7493(3) 0.10556(16) 0.08569(15)
H9_2 H 0.7763 0.1549 0.0728
C16_2 C 0.6892(3) 0.02023(16) 0.17650(16)
H10_2 H 0.6754 0.0093 0.2282
O1_2 O 0.38358(16) 0.74997(10) 0.81773(9)
O2_2 O 0.32021(18) 0.79304(13) 0.93065(12)
C1_2 C 0.4003(2) 0.78622(15) 0.88470(15)
C2_2 C 0.5308(3) 0.82185(16) 0.90463(16)
C3_2 C 0.6362(3) 0.79799(15) 0.86784(16)
H1_2 H 0.6237 0.7603 0.8282
C4_2 C 0.7592(2) 0.82920(16) 0.88905(16)
C5_2 C 0.7762(3) 0.88926(17) 0.94488(18)
H2_2 H 0.8569 0.9127 0.9568
C6_2 C 0.6739(3) 0.91444(16) 0.98289(16)
C7_2 C 0.5529(3) 0.87948(17) 0.96376(16)
H3_2 H 0.4853 0.8946 0.9907
C8_2 C 0.8718(3) 0.79649(16) 0.85561(17)
C9_2 C 0.8808(2) 0.71767(14) 0.84261(14)
H4_2 H 0.8146 0.6846 0.8532
C10_2 C 0.9880(2) 0.68770(15) 0.81381(12)
H5_2 H 0.9925 0.6342 0.8063
C12_2 C 0.9727(2) 0.84309(15) 0.83695(16)
H7_2 H 0.9698 0.8967 0.8441
C19_2 C 0.9692(2) 0.52969(16) 0.60674(16)
C20_2 C 0.8648(3) 0.56425(17) 0.63300(16)
H12_2 H 0.8777 0.6035 0.6710
C21_2 C 0.7394(3) 0.54109(17) 0.60330(17)
C22_2 C 0.7213(3) 0.48387(17) 0.54522(17)
H13_2 H 0.6379 0.4687 0.5243
C23_2 C 0.8273(3) 0.44907(17) 0.51821(17)
C24_2 C 0.9510(3) 0.47088(17) 0.55018(16)
C25_2 C 0.6275(2) 0.57573(16) 0.63654(16)
C26_2 C 0.6327(2) 0.58981(15) 0.71615(15)
H15_2 H 0.7078 0.5790 0.7506
C27_2 C 0.5261(2) 0.62008(14) 0.74507(14)
H16_2 H 0.5320 0.6297 0.7993
C28_2 C 0.4095(2) 0.62322(15) 0.62132(14)
H17_2 H 0.3329 0.6345 0.5883
C29_2 C 0.5118(3) 0.59382(17) 0.58754(15)
H18_2 H 0.5043 0.5861 0.5330
C30_2 C 0.8066(3) 0.38662(17) 0.45620(16)
C31_2 C 0.6975(3) 0.38223(17) 0.40224(16)
H19_2 H 0.6319 0.4187 0.4036
C32_2 C 0.6831(2) 0.32430(15) 0.34547(15)
H20_2 H 0.6076 0.3232 0.3092
C33_2 C 0.8794(2) 0.27293(16) 0.39395(15)
H21_2 H 0.9434 0.2357 0.3913
C34_2 C 0.8993(2) 0.32860(16) 0.45309(16)
H22_2 H 0.9736 0.3274 0.4903
N3_2 N 0.41455(19) 0.63638(13) 0.69905(12)
H14_2 H 0.9779 0.9462 0.4661
H8_2 H 0.7514 0.0611 0.9763
C13_2 C 0.6925(3) 0.97619(16) 0.04369(16)
C17_2 C 0.6695(3) 0.96124(17) 0.12060(17)
H11_2 H 0.6413 0.9124 0.1344
loop_
_geom_bond_atom_site_label_1
_geom_bond_atom_site_label_2
_geom_bond_site_symmetry_1
_geom_bond_site_symmetry_2
Co1 O1 1_555 1_555
O1 C1 1_555 1_555
O2 C1 1_555 1_555
C1 C2 1_555 1_555
C2 C3 1_555 1_555
C3 H1 1_555 1_555
C4 C3 1_555 1_555
C5 C4 1_555 1_555
H2 C5 1_555 1_555
C6 C5 1_555 1_555
C7 C2 1_555 1_555
H3 C7 1_555 1_555
C8 C4 1_555 1_555
C9 C8 1_555 1_555
H4 C9 1_555 1_555
C10 C9 1_555 1_555
H5 C10 1_555 1_555
C12 C8 1_555 1_555
H7 C12 1_555 1_555
C19 C20 1_555 1_555
C20 H12 1_555 1_555
C21 C20 1_555 1_555
C25 C21 1_555 1_555
C26 C25 1_555 1_555
H15 C26 1_555 1_555
C27 C26 1_555 1_555
H16 C27 1_555 1_555
C28 H17 1_555 1_555
C29 C25 1_555 1_555
H18 C29 1_555 1_555
N3 Co1 1_555 1_555
O5 Co1 1_555 1_555
N5 Co1 1_555 1_555
N6 Co1 1_555 1_555
N7 Co1 1_555 1_555
C6 C7 1_555 1_555
C27 N3 1_555 1_555
C28 C29 1_555 1_555
C28 N3 1_555 1_555
C14 C13 1_555 1_555
C15 C14 1_555 1_555
H9 C15 1_555 1_555
C16 H10 1_555 1_555
C17 C13 1_555 1_555
H11 C17 1_555 1_555
N2 C15 1_555 1_555
Co4 N2 1_555 1_555
C16 C17 1_555 1_555
C16 N2 1_555 1_555
H13 C22 1_555 1_555
C23 C22 1_555 1_555
C30 C23 1_555 1_555
C31 C30 1_555 1_555
H19 C31 1_555 1_555
C32 C31 1_555 1_555
H20 C32 1_555 1_555
C33 H21 1_555 1_555
C34 C30 1_555 1_555
H22 C34 1_555 1_555
N4 C32 1_555 1_555
Co4 N4 1_555 1_555
C23 C24 1_555 1_555
C33 C34 1_555 1_555
C33 N4 1_555 1_555
O5 C18 1_555 1_555
O4 C18 1_555 1_555
C11 H6 1_555 1_555
C11 N5 1_555 1_555
O3 C18_2 1_555 1_555
O4_2 C18_2 1_555 1_555
C11_2 H6_2 1_555 1_555
Co4 O3 1_555 1_555
C11_2 N1 1_555 1_555
N1 Co4 1_555 1_555
C15_2 C14_2 1_555 1_555
H9_2 C15_2 1_555 1_555
C16_2 H10_2 1_555 1_555
N6 C15_2 1_555 1_555
C16_2 N6 1_555 1_555
Co4 O1_2 1_555 1_555
O1_2 C1_2 1_555 1_555
O2_2 C1_2 1_555 1_555
C1_2 C2_2 1_555 1_555
C2_2 C3_2 1_555 1_555
C3_2 H1_2 1_555 1_555
C4_2 C3_2 1_555 1_555
C5_2 C4_2 1_555 1_555
H2_2 C5_2 1_555 1_555
C6_2 C5_2 1_555 1_555
C7_2 C2_2 1_555 1_555
H3_2 C7_2 1_555 1_555
C8_2 C4_2 1_555 1_555
C9_2 C8_2 1_555 1_555
H4_2 C9_2 1_555 1_555
C10_2 C9_2 1_555 1_555
H5_2 C10_2 1_555 1_555
C12_2 C8_2 1_555 1_555
H7_2 C12_2 1_555 1_555
C19_2 C20_2 1_555 1_555
C20_2 H12_2 1_555 1_555
C21_2 C20_2 1_555 1_555
C22_2 C21_2 1_555 1_555
H13_2 C22_2 1_555 1_555
C23_2 C22_2 1_555 1_555
C24_2 C19_2 1_555 1_555
C25_2 C21_2 1_555 1_555
C26_2 C25_2 1_555 1_555
H15_2 C26_2 1_555 1_555
C27_2 C26_2 1_555 1_555
H16_2 C27_2 1_555 1_555
C28_2 H17_2 1_555 1_555
C29_2 C25_2 1_555 1_555
H18_2 C29_2 1_555 1_555
C30_2 C23_2 1_555 1_555
C31_2 C30_2 1_555 1_555
H19_2 C31_2 1_555 1_555
C32_2 C31_2 1_555 1_555
H20_2 C32_2 1_555 1_555
C33_2 H21_2 1_555 1_555
C34_2 C30_2 1_555 1_555
H22_2 C34_2 1_555 1_555
N3_2 Co4 1_555 1_555
N7 C32_2 1_555 1_555
C6_2 C7_2 1_555 1_555
C23_2 C24_2 1_555 1_555
C27_2 N3_2 1_555 1_555
C28_2 C29_2 1_555 1_555
C28_2 N3_2 1_555 1_555
C33_2 C34_2 1_555 1_555
C33_2 N7 1_555 1_555
C17_2 C13_2 1_555 1_555
H11_2 C17_2 1_555 1_555

#END
