
###############################################################################
#
# This file contains modified crystal structure data generated from the
# MOF subset of the Cambridge Structural Database (CSD) v543 
# hosted by the Cambridge Crystallographic Data Centre (CCDC).
#
# This work is licensed under the Creative Commons
# Attribution-NonCommercial-ShareAlike 4.0 International License.
# To view a copy of this license, visit
# http://creativecommons.org/licenses/by-nc-sa/4.0/
# or send a letter to
# Creative Commons, PO Box 1866, Mountain View, CA 94042, USA.
#
# CIF created using the CSD Python API on 29 September 2022
# The structure has been converted into the P1 space group
# The structure has a 3D framework
# The original CSD entry SUPCEO is in the monoclinic crystal system
# The original CSD entry SUPCEO is in a Sohncke space group
# The framework has been calculated to contain at least 10.0% void space
# The void calculation uses a probe of radius 1.32A, grid spacing 0.4
#
###############################################################################

data_SUPCEO
_chemical_formula_moiety         '(C72 H52 Co2 N7 O8)n'
_symmetry_cell_setting           triclinic
_symmetry_space_group_name_H-M   'P 1'
_symmetry_Int_Tables_number      1
_space_group_name_Hall           'P 1'
loop_
_symmetry_equiv_pos_site_id
_symmetry_equiv_pos_as_xyz
1 x,y,z
_cell_length_a                   10.393(3)
_cell_length_b                   16.939(5)
_cell_length_c                   17.662(5)
_cell_angle_alpha                90
_cell_angle_beta                 100.500(6)
_cell_angle_gamma                90
_cell_volume                     3057.28
loop_
_atom_site_label
_atom_site_type_symbol
_atom_site_fract_x
_atom_site_fract_y
_atom_site_fract_z
C29 C 0.0641(3) 0.49973(18) 0.7980(2)
H18 H 0.1235 0.4667 0.7802
N3 N 0.0803(3) 0.57721(16) 0.79150(18)
Co3 Co 0.24682(5) 0.62824(4) 0.75013(3)
H22 H 0.9376 0.3869 0.0390
C32 C 0.7027(3) 0.3345(2) 0.0454(3)
C33 C 0.7221(4) 0.2567(2) 0.0299(2)
C34 C 0.7337(3) 0.2009(2) 0.0872(2)
H24 H 0.7457 0.1485 0.0745
C35 C 0.7113(3) 0.2938(2) 0.1763(2)
H25 H 0.7095 0.3079 0.2270
C36 C 0.6960(4) 0.3531(2) 0.1212(2)
H26 H 0.6814 0.4049 0.1349
N4 N 0.7283(3) 0.21872(17) 0.16114(19)
Co5 Co 0.75318(5) 0.12824(4) 0.24987(3)
C1 C 0.0971(3) 0.7585(2) 0.6418(2)
H2 H 0.0059 0.8643 0.5341
C19 C 0.4038(3) 0.5186(2) 0.8781(2)
C20 C 0.5373(3) 0.4833(2) 0.9026(2)
C21 C 0.6416(3) 0.5082(2) 0.8692(2)
H14 H 0.6269 0.5452 0.8296
C22 C 0.7687(4) 0.4787(2) 0.8937(2)
C23 C 0.7939(3) 0.4221(2) 0.9527(3)
C24 C 0.6852(4) 0.3957(2) 0.9837(2)
C25 C 0.5613(4) 0.4288(2) 0.9602(2)
H15 H 0.4933 0.4132 0.9846
C26 C 0.8774(3) 0.5118(2) 0.8574(2)
C27 C 0.8896(3) 0.59335(18) 0.84983(19)
H16 H 0.8303 0.6273 0.8665
C28 C 0.9910(2) 0.6231(2) 0.81738(16)
H17 H 0.9982 0.6776 0.8131
C30 C 0.9660(3) 0.46473(19) 0.8292(2)
H19 H 0.9597 0.4100 0.8312
C31 C 0.9278(4) 0.3930(3) 0.9842(3)
H20 H 0.9911 0.4303 0.9727
H21 H 0.9414 0.3430 0.9613
H23 H 0.7276 0.2415 0.9800
O1 O 0.1080(2) 0.69847(13) 0.68344(14)
O2 O 0.1881(2) 0.79945(17) 0.62908(19)
O3 O 0.3859(2) 0.56029(14) 0.81751(15)
O4 O 0.3199(2) 0.50478(17) 0.91898(16)
N5 N 0.4124(3) 0.67462(17) 0.70277(17)
N6 N 0.2231(3) 0.53959(16) 0.65823(18)
N8 N 0.2717(3) 0.71872(17) 0.83886(19)
C17 C 0.8692(3) 0.0446(2) 0.4044(2)
H12 H 0.9281 0.0863 0.4079
N2 N 0.7769(3) 0.03959(16) 0.34177(18)
C2 C 0.9584(3) 0.7842(2) 0.6108(2)
C3 C 0.8522(3) 0.7536(2) 0.6365(2)
H1 H 0.8654 0.7134 0.6729
C4 C 0.7255(3) 0.7805(2) 0.6104(2)
C5 C 0.7049(4) 0.8417(2) 0.5560(3)
C6 C 0.8089(4) 0.8702(2) 0.5254(3)
C7 C 0.9358(3) 0.8432(2) 0.5534(2)
C8 C 0.6175(3) 0.7438(2) 0.6423(2)
C9 C 0.6254(3) 0.73446(19) 0.7218(2)
H3 H 0.6992 0.7512 0.7560
C10 C 0.5215(3) 0.69981(17) 0.74863(19)
H4 H 0.5280 0.6937 0.8015
C11 C 0.4054(3) 0.6840(2) 0.62804(19)
H5 H 0.3300 0.6673 0.5952
C12 C 0.5043(3) 0.7174(2) 0.5959(2)
H6 H 0.4946 0.7220 0.5427
C13 C 0.5693(4) 0.8813(3) 0.5349(3)
H7 H 0.5113 0.8475 0.5008
H8 H 0.5778 0.9309 0.5100
H9 H 0.5343 0.8901 0.5809
C14 C 0.7951(4) 0.9295(2) 0.4615(3)
C15 C 0.7016(3) 0.9231(2) 0.3963(2)
H10 H 0.6428 0.8812 0.3910
C16 C 0.6939(3) 0.97823(19) 0.3386(2)
H11 H 0.6284 0.9729 0.2954
C18 C 0.8826(3) 0.9915(2) 0.4646(2)
H13 H 0.9498 0.9973 0.5069
C2_2 C 0.0416(3) 0.2842(2) 0.3892(2)
C3_2 C 0.1478(3) 0.2536(2) 0.3635(2)
H1_2 H 0.1346 0.2134 0.3271
C4_2 C 0.2745(3) 0.2805(2) 0.3896(2)
C5_2 C 0.2951(4) 0.3417(2) 0.4440(3)
C6_2 C 0.1911(4) 0.3702(2) 0.4746(3)
C7_2 C 0.0642(3) 0.3432(2) 0.4466(2)
C8_2 C 0.3825(3) 0.2438(2) 0.3577(2)
C9_2 C 0.3746(3) 0.23446(19) 0.2782(2)
H3_2 H 0.3008 0.2512 0.2440
C10_2 C 0.4785(3) 0.19981(17) 0.25137(19)
H4_2 H 0.4720 0.1937 0.1985
C11_2 C 0.5946(3) 0.1840(2) 0.37196(19)
H5_2 H 0.6700 0.1673 0.4048
C12_2 C 0.4957(3) 0.2174(2) 0.4041(2)
H6_2 H 0.5054 0.2220 0.4573
C13_2 C 0.4307(4) 0.3813(3) 0.4651(3)
H7_2 H 0.4887 0.3475 0.4992
H8_2 H 0.4222 0.4309 0.4900
H9_2 H 0.4657 0.3901 0.4191
C14_2 C 0.2049(4) 0.4295(2) 0.5385(3)
C15_2 C 0.2984(3) 0.4231(2) 0.6037(2)
H10_2 H 0.3572 0.3812 0.6090
C16_2 C 0.3061(3) 0.47823(19) 0.6614(2)
H11_2 H 0.3716 0.4729 0.7046
C17_2 C 0.1308(3) 0.5446(2) 0.5956(2)
H12_2 H 0.0719 0.5863 0.5921
C18_2 C 0.1174(3) 0.4915(2) 0.5354(2)
H13_2 H 0.0502 0.4973 0.4931
N1 N 0.5876(3) 0.17462(17) 0.29723(17)
C1_2 C 0.9029(3) 0.2585(2) 0.3582(2)
H2_2 H 0.9941 0.3643 0.4659
C19_2 C 0.5962(3) 0.0186(2) 0.1219(2)
C21_2 C 0.3584(3) 0.0082(2) 0.1308(2)
H14_2 H 0.3731 0.0452 0.1704
C26_2 C 0.1226(3) 0.0118(2) 0.1426(2)
C27_2 C 0.1104(3) 0.09335(18) 0.15017(19)
H16_2 H 0.1697 0.1273 0.1335
C28_2 C 0.0090(2) 0.1231(2) 0.18262(16)
H17_2 H 0.0018 0.1776 0.1869
O1_2 O 0.8920(2) 0.19847(13) 0.31656(14)
O2_2 O 0.8119(2) 0.29945(17) 0.37092(19)
O3_2 O 0.6141(2) 0.06029(14) 0.18249(15)
O4_2 O 0.6801(2) 0.00478(17) 0.08102(16)
N7 N 0.9197(3) 0.07721(16) 0.20850(18)
H22_2 H 0.0624 0.8869 0.9610
C32_2 C 0.2973(3) 0.8345(2) 0.9546(3)
C33_2 C 0.2779(4) 0.7567(2) 0.9701(2)
C34_2 C 0.2663(3) 0.7009(2) 0.9128(2)
H24_2 H 0.2543 0.6485 0.9255
C35_2 C 0.2887(3) 0.7938(2) 0.8237(2)
H25_2 H 0.2905 0.8079 0.7730
C36_2 C 0.3040(4) 0.8531(2) 0.8788(2)
H26_2 H 0.3186 0.9049 0.8651
C20_2 C 0.4627(3) 0.9833(2) 0.0974(2)
C22_2 C 0.2313(4) 0.9787(2) 0.1063(2)
C23_2 C 0.2061(3) 0.9221(2) 0.0473(3)
C24_2 C 0.3148(4) 0.8957(2) 0.0163(2)
C25_2 C 0.4387(4) 0.9288(2) 0.0398(2)
H15_2 H 0.5067 0.9132 0.0154
C30_2 C 0.0340(3) 0.96473(19) 0.1708(2)
H19_2 H 0.0403 0.9100 0.1688
C31_2 C 0.0722(4) 0.8930(3) 0.0158(3)
H20_2 H 0.0089 0.9303 0.0273
H21_2 H 0.0586 0.8430 0.0387
H23_2 H 0.2724 0.7415 0.0200
C29_2 C 0.9359(3) 0.99973(18) 0.2020(2)
H18_2 H 0.8765 0.9667 0.2198
loop_
_geom_bond_atom_site_label_1
_geom_bond_atom_site_label_2
_geom_bond_site_symmetry_1
_geom_bond_site_symmetry_2
C29 H18 1_555 1_555
Co3 N3 1_555 1_555
C29 N3 1_555 1_555
C33 C32 1_555 1_555
C34 C33 1_555 1_555
H24 C34 1_555 1_555
C35 H25 1_555 1_555
C36 C32 1_555 1_555
H26 C36 1_555 1_555
N4 C34 1_555 1_555
Co5 N4 1_555 1_555
C35 C36 1_555 1_555
C35 N4 1_555 1_555
Co3 O1 1_555 1_555
C19 C20 1_555 1_555
C20 C21 1_555 1_555
C21 H14 1_555 1_555
C22 C21 1_555 1_555
C23 C22 1_555 1_555
C24 C23 1_555 1_555
C25 C20 1_555 1_555
H15 C25 1_555 1_555
C26 C22 1_555 1_555
C27 C26 1_555 1_555
H16 C27 1_555 1_555
C28 C27 1_555 1_555
H17 C28 1_555 1_555
C30 C26 1_555 1_555
H19 C30 1_555 1_555
C31 C23 1_555 1_555
H20 C31 1_555 1_555
H21 C31 1_555 1_555
O1 C1 1_555 1_555
O2 C1 1_555 1_555
O3 Co3 1_555 1_555
O4 C19 1_555 1_555
N5 Co3 1_555 1_555
N6 Co3 1_555 1_555
N8 Co3 1_555 1_555
C19 O3 1_555 1_555
C24 C25 1_555 1_555
C17 H12 1_555 1_555
Co5 N2 1_555 1_555
C17 N2 1_555 1_555
C2 C3 1_555 1_555
C3 H1 1_555 1_555
C4 C3 1_555 1_555
C5 C4 1_555 1_555
C6 C5 1_555 1_555
C7 C2 1_555 1_555
C8 C4 1_555 1_555
C9 C8 1_555 1_555
H3 C9 1_555 1_555
C10 C9 1_555 1_555
H4 C10 1_555 1_555
C11 H5 1_555 1_555
C12 C8 1_555 1_555
H6 C12 1_555 1_555
C13 C5 1_555 1_555
H7 C13 1_555 1_555
H8 C13 1_555 1_555
H9 C13 1_555 1_555
C14 C6 1_555 1_555
C15 C14 1_555 1_555
H10 C15 1_555 1_555
C16 C15 1_555 1_555
H11 C16 1_555 1_555
C18 C14 1_555 1_555
H13 C18 1_555 1_555
N5 C10 1_555 1_555
C6 C7 1_555 1_555
C11 C12 1_555 1_555
C11 N5 1_555 1_555
C2_2 C3_2 1_555 1_555
C3_2 H1_2 1_555 1_555
C4_2 C3_2 1_555 1_555
C5_2 C4_2 1_555 1_555
C6_2 C5_2 1_555 1_555
C7_2 C2_2 1_555 1_555
C8_2 C4_2 1_555 1_555
C9_2 C8_2 1_555 1_555
H3_2 C9_2 1_555 1_555
C10_2 C9_2 1_555 1_555
H4_2 C10_2 1_555 1_555
C11_2 H5_2 1_555 1_555
C12_2 C8_2 1_555 1_555
H6_2 C12_2 1_555 1_555
C13_2 C5_2 1_555 1_555
H7_2 C13_2 1_555 1_555
H8_2 C13_2 1_555 1_555
H9_2 C13_2 1_555 1_555
C14_2 C6_2 1_555 1_555
C15_2 C14_2 1_555 1_555
H10_2 C15_2 1_555 1_555
C16_2 C15_2 1_555 1_555
H11_2 C16_2 1_555 1_555
C17_2 H12_2 1_555 1_555
C18_2 C14_2 1_555 1_555
H13_2 C18_2 1_555 1_555
N1 C10_2 1_555 1_555
N6 C16_2 1_555 1_555
Co5 N1 1_555 1_555
C6_2 C7_2 1_555 1_555
C11_2 C12_2 1_555 1_555
C11_2 N1 1_555 1_555
C17_2 C18_2 1_555 1_555
C17_2 N6 1_555 1_555
Co5 O1_2 1_555 1_555
C21_2 H14_2 1_555 1_555
C27_2 C26_2 1_555 1_555
H16_2 C27_2 1_555 1_555
C28_2 C27_2 1_555 1_555
H17_2 C28_2 1_555 1_555
O1_2 C1_2 1_555 1_555
O2_2 C1_2 1_555 1_555
O3_2 Co5 1_555 1_555
O4_2 C19_2 1_555 1_555
N7 Co5 1_555 1_555
C19_2 O3_2 1_555 1_555
C33_2 C32_2 1_555 1_555
C34_2 C33_2 1_555 1_555
H24_2 C34_2 1_555 1_555
C35_2 H25_2 1_555 1_555
C36_2 C32_2 1_555 1_555
H26_2 C36_2 1_555 1_555
N8 C34_2 1_555 1_555
C35_2 C36_2 1_555 1_555
C35_2 N8 1_555 1_555
C23_2 C22_2 1_555 1_555
C24_2 C23_2 1_555 1_555
C25_2 C20_2 1_555 1_555
H15_2 C25_2 1_555 1_555
H19_2 C30_2 1_555 1_555
C31_2 C23_2 1_555 1_555
H20_2 C31_2 1_555 1_555
H21_2 C31_2 1_555 1_555
C24_2 C25_2 1_555 1_555
C29_2 H18_2 1_555 1_555

#END
