
###############################################################################
#
# This file contains modified crystal structure data generated from the
# MOF subset of the Cambridge Structural Database (CSD) v543 
# hosted by the Cambridge Crystallographic Data Centre (CCDC).
#
# This work is licensed under the Creative Commons
# Attribution-NonCommercial-ShareAlike 4.0 International License.
# To view a copy of this license, visit
# http://creativecommons.org/licenses/by-nc-sa/4.0/
# or send a letter to
# Creative Commons, PO Box 1866, Mountain View, CA 94042, USA.
#
# CIF created using the CSD Python API on 29 September 2022
# The structure has been converted into the P1 space group
# The structure has a 3D framework
# The original CSD entry SUPCOY is in the trigonal crystal system
# The original CSD entry SUPCOY is in a Sohncke space group
# The framework has been calculated to contain at least 10.0% void space
# The void calculation uses a probe of radius 1.32A, grid spacing 0.4
#
###############################################################################

data_SUPCOY
_chemical_formula_moiety         '(C108 H90 Cl6 Co6 N18 O36 5-)n'
_symmetry_cell_setting           triclinic
_symmetry_space_group_name_H-M   'P 1'
_symmetry_Int_Tables_number      1
_space_group_name_Hall           'P 1'
loop_
_symmetry_equiv_pos_site_id
_symmetry_equiv_pos_as_xyz
1 x,y,z
_cell_length_a                   17.0264(5)
_cell_length_b                   17.0264(5)
_cell_length_c                   21.2238(14)
_cell_angle_alpha                90
_cell_angle_beta                 90
_cell_angle_gamma                120
_cell_volume                     5328.43
loop_
_atom_site_label
_atom_site_type_symbol
_atom_site_fract_x
_atom_site_fract_y
_atom_site_fract_z
Cl1 Cl 0.75041(11) 0.75041(11) -0.0000
Co1 Co 0.72089(3) 0.60447(3) 0.03061(2)
O3 O 0.79970(19) 0.66616(19) 0.11212(13)
H14 H 0.8510 0.6847 0.0947
H15 H 0.7915 0.7115 0.1124
C19 C 0.4902(3) 0.5665(3) 0.14354(19)
C20 C 0.4507(3) 0.6168(2) 0.16392(18)
H16 H 0.4652 0.6706 0.1433
C21 C 0.3893(3) 0.5883(3) 0.2150(2)
C22 C 0.3657(3) 0.5070(3) 0.2444(2)
C23 C 0.4067(3) 0.4569(3) 0.2238(2)
C24 C 0.4691(3) 0.4899(3) 0.17376(18)
H17 H 0.4968 0.4571 0.1613
C25 C 0.5528(2) 0.5997(2) 0.08868(17)
C26 C 0.2925(4) 0.4666(3) 0.2957(3)
H18 H 0.3207 0.4743 0.3362
H19 H 0.2530 0.4032 0.2877
H20 H 0.2579 0.4972 0.2954
C27 C 0.3685(3) 0.2931(3) 0.2247(2)
H21 H 0.3547 0.2886 0.1820
C28 C 0.3938(3) 0.3734(3) 0.2583(2)
C29 C 0.4040(3) 0.3712(3) 0.3227(2)
H22 H 0.4161 0.4214 0.3471
C30 C 0.3555(4) 0.6707(3) 0.2970(2)
H23 H 0.3711 0.6421 0.3278
C31 C 0.3567(3) 0.6498(3) 0.2354(2)
C32 C 0.3272(3) 0.6917(3) 0.1929(2)
H24 H 0.3221 0.6766 0.1504
C33 C 0.3055(3) 0.7552(4) 0.2133(2)
H25 H 0.2899 0.7851 0.1835
C34 C 0.3313(4) 0.7345(5) 0.3145(2)
H26 H 0.3330 0.7487 0.3569
C35 C 0.3966(3) 0.2962(4) 0.35049(19)
H27 H 0.4104 0.3042 0.3948
C36 C 0.3650(3) 0.2225(4) 0.2568(2)
H28 H 0.3524 0.1707 0.2342
N3 N 0.3059(2) 0.7758(3) 0.27322(16)
N4 N 0.3785(2) 0.2227(3) 0.31881(17)
O4 O 0.55020(18) 0.65840(18) 0.05225(13)
O5 O 0.60590(19) 0.56968(17) 0.08221(13)
Co3 Co 0.39553(3) 0.11642(4) 0.36394(2)
Co6 Co 0.27911(3) 0.88358(4) 0.30272(2)
N5 N 0.6941(2) 0.4699(4) 0.06011(16)
N7 N 0.6215(2) 0.8442(4) 0.01452(17)
C1 C 0.5665(3) 0.4902(3) 0.85646(19)
C2 C 0.6168(2) 0.4507(3) 0.83608(18)
H1 H 0.6706 0.4652 0.8567
C3 C 0.5883(3) 0.3893(3) 0.7850(2)
C4 C 0.5070(3) 0.3657(3) 0.7556(2)
C5 C 0.4569(3) 0.4067(3) 0.7762(2)
C6 C 0.4899(3) 0.4691(3) 0.82624(18)
H2 H 0.4571 0.4968 0.8387
C7 C 0.5997(2) 0.5528(2) 0.91132(17)
C8 C 0.4666(3) 0.2925(4) 0.7043(3)
H3 H 0.4743 0.3207 0.6638
H4 H 0.4032 0.2530 0.7123
H5 H 0.4972 0.2579 0.7046
C9 C 0.2931(3) 0.3685(3) 0.7753(2)
H6 H 0.2886 0.3547 0.8180
C10 C 0.3734(3) 0.3938(3) 0.7417(2)
C11 C 0.3712(3) 0.4040(3) 0.6773(2)
H7 H 0.4214 0.4161 0.6529
C12 C 0.6707(3) 0.3555(4) 0.7030(2)
H8 H 0.6421 0.3711 0.6722
C13 C 0.6498(3) 0.3567(3) 0.7646(2)
C14 C 0.6917(3) 0.3272(3) 0.8071(2)
H9 H 0.6766 0.3221 0.8496
C15 C 0.7552(4) 0.3055(3) 0.7867(2)
H10 H 0.7851 0.2899 0.8165
C16 C 0.7345(5) 0.3313(4) 0.6855(2)
H11 H 0.7487 0.3330 0.6431
C17 C 0.2962(4) 0.3966(3) 0.64951(19)
H12 H 0.3042 0.4104 0.6052
C18 C 0.2225(4) 0.3650(3) 0.7432(2)
H13 H 0.1707 0.3524 0.7658
Cl1_2 Cl 0.75041(11) 0.75041(11) 1.0000
N1 N 0.7758(3) 0.3059(2) 0.72678(16)
N2 N 0.2227(3) 0.3785(2) 0.68119(17)
O1 O 0.65840(18) 0.55020(18) 0.94775(13)
O2 O 0.56968(17) 0.60590(19) 0.91779(13)
Co2 Co 0.60447(3) 0.72089(3) 0.96939(2)
O6 O 0.66616(19) 0.79970(19) 0.88788(13)
H29 H 0.6847 0.8510 0.9053
H30 H 0.7115 0.7915 0.8876
Co4 Co 0.88358(4) 0.27911(3) 0.69728(2)
Co5 Co 0.11642(4) 0.39553(3) 0.63606(2)
N6 N 0.4699(4) 0.6941(2) 0.93989(16)
N8 N 0.8442(4) 0.6215(2) 0.98548(17)
C1_2 C 0.5098(3) 0.0763(4) 0.18979(19)
C2_2 C 0.5493(3) 0.1661(4) 0.16941(18)
H1_2 H 0.5348 0.2054 0.1900
C3_2 C 0.6107(3) 0.1990(4) 0.1183(2)
C4_2 C 0.6343(3) 0.1413(4) 0.0889(2)
C5_2 C 0.5933(3) 0.0502(4) 0.1095(2)
C6_2 C 0.5309(3) 0.0208(4) 0.15957(18)
C7_2 C 0.4472(2) 0.0469(3) 0.24465(17)
C8_2 C 0.7075(4) 0.1741(5) 0.0376(3)
H4_2 H 0.7470 0.1502 0.0456
H5_2 H 0.7421 0.2393 0.0379
C12_2 C 0.6445(4) 0.3152(5) 0.0363(2)
H8_2 H 0.6289 0.2710 0.0055
C13_2 C 0.6433(3) 0.2931(4) 0.0979(2)
C14_2 C 0.6728(3) 0.3645(4) 0.1404(2)
H9_2 H 0.6779 0.3545 0.1829
C15_2 C 0.6945(3) 0.4497(5) 0.1200(2)
H10_2 H 0.7101 0.4952 0.1498
C16_2 C 0.6687(4) 0.4032(6) 0.0188(2)
Cl1_3 Cl 0.24959(11) 0.00000(16) 0.3333
O1_2 O 0.44980(18) 0.10820(25) 0.28108(13)
O3_2 O 0.33384(19) 0.13354(27) 0.44545(13)
H14_2 H 0.3153 0.1663 0.4280
H15_2 H 0.2885 0.0800 0.4457
H17_2 H 0.5429 0.0397 0.4946
C27_2 C 0.7069(3) 0.0754(4) 0.5580(2)
H21_2 H 0.7114 0.0661 0.5153
C28_2 C 0.6266(3) 0.0204(4) 0.5916(2)
C29_2 C 0.6288(3) 0.0328(4) 0.6560(2)
C35_2 C 0.7038(4) 0.1004(5) 0.68382(19)
H27_2 H 0.6958 0.1062 0.7281
C36_2 C 0.7775(4) 0.1425(5) 0.5901(2)
H28_2 H 0.8293 0.1817 0.5675
N4_2 N 0.7773(3) 0.1558(4) 0.65214(17)
O5_2 O 0.43032(17) 0.03622(25) 0.41554(13)
N5_2 N 0.5301(4) 0.2242(4) 0.39345(16)
H2_2 H 0.5032 0.9603 0.1720
C9_2 C 0.6315(3) 0.9246(4) 0.1086(2)
H6_2 H 0.6453 0.9339 0.1513
C10_2 C 0.6062(3) 0.9796(4) 0.0750(2)
C11_2 C 0.5960(3) 0.9672(4) 0.0106(2)
C18_2 C 0.6350(3) 0.8575(5) 0.0765(2)
H13_2 H 0.6476 0.8183 0.0991
Cl1_4 Cl 0.24959(11) 1.00000(16) 0.3333
O2_2 O 0.39410(19) 0.96378(25) 0.25112(13)
C19_2 C 0.4335(3) 0.9237(4) 0.47687(19)
C20_2 C 0.3832(2) 0.8339(4) 0.49725(18)
H16_2 H 0.3294 0.7946 0.4766
C21_2 C 0.4117(3) 0.8010(4) 0.5483(2)
C22_2 C 0.4930(3) 0.8587(4) 0.5777(2)
C23_2 C 0.5431(3) 0.9498(4) 0.5571(2)
C24_2 C 0.5101(3) 0.9792(4) 0.50709(18)
C25_2 C 0.4003(2) 0.9531(3) 0.42201(17)
C26_2 C 0.5334(3) 0.8259(5) 0.6290(3)
H18_2 H 0.5257 0.8464 0.6695
H19_2 H 0.5968 0.8498 0.6210
H20_2 H 0.5028 0.7607 0.6287
H22_2 H 0.5786 0.9947 0.6804
C30_2 C 0.3293(3) 0.6848(5) 0.6303(2)
H23_2 H 0.3579 0.7290 0.6611
C31_2 C 0.3502(3) 0.7069(4) 0.5687(2)
C32_2 C 0.3083(3) 0.6355(4) 0.5262(2)
H24_2 H 0.3234 0.6455 0.4837
C33_2 C 0.2448(4) 0.5503(5) 0.5466(2)
H25_2 H 0.2149 0.5048 0.5168
C34_2 C 0.2655(5) 0.5968(6) 0.6478(2)
H26_2 H 0.2513 0.5843 0.6902
N3_2 N 0.2242(3) 0.5301(4) 0.60655(16)
O4_2 O 0.34160(18) 0.89180(25) 0.38558(13)
O6_2 O 0.20030(19) 0.86646(27) 0.22121(13)
H29_2 H 0.1490 0.8337 0.2386
H30_2 H 0.2085 0.9200 0.2209
N7_2 N 0.1558(4) 0.7773(4) 0.34786(17)
C17_2 C 0.6034(3) 0.8996(5) 0.98284(19)
H12_2 H 0.5896 0.8938 0.9385
H2_3 H 0.0397 0.5429 0.5054
C9_3 C 0.0754(4) 0.7069(3) 0.4420(2)
H6_3 H 0.0661 0.7114 0.4847
C10_3 C 0.0204(4) 0.6266(3) 0.4084(2)
C11_3 C 0.0328(4) 0.6288(3) 0.3440(2)
C17_3 C 0.1004(5) 0.7038(4) 0.31618(19)
H12_3 H 0.1062 0.6958 0.2719
C18_3 C 0.1425(5) 0.7775(4) 0.4099(2)
H13_3 H 0.1817 0.8293 0.4325
Cl1_5 Cl -0.00000(16) 0.24959(11) 0.6667
O2_3 O 0.03622(25) 0.43032(17) 0.58446(13)
C19_3 C 0.0763(4) 0.5098(3) 0.81021(19)
C20_3 C 0.1661(4) 0.5493(3) 0.83059(18)
H16_3 H 0.2054 0.5348 0.8100
C21_3 C 0.1990(4) 0.6107(3) 0.8817(2)
C22_3 C 0.1413(4) 0.6343(3) 0.9111(2)
C23_3 C 0.0502(4) 0.5933(3) 0.8905(2)
C24_3 C 0.0208(4) 0.5309(3) 0.84043(18)
C25_3 C 0.0469(3) 0.4472(2) 0.75535(17)
C26_3 C 0.1741(5) 0.7075(4) 0.9624(3)
H19_3 H 0.1502 0.7470 0.9544
H20_3 H 0.2393 0.7421 0.9621
C30_3 C 0.3152(5) 0.6445(4) 0.9637(2)
H23_3 H 0.2710 0.6289 0.9945
C31_3 C 0.2931(4) 0.6433(3) 0.9021(2)
C32_3 C 0.3645(4) 0.6728(3) 0.8596(2)
H24_3 H 0.3545 0.6779 0.8171
C33_3 C 0.4497(5) 0.6945(3) 0.8800(2)
H25_3 H 0.4952 0.7101 0.8502
C34_3 C 0.4032(6) 0.6687(4) 0.9812(2)
O4_3 O 0.10820(25) 0.44980(18) 0.71892(13)
O6_3 O 0.13354(27) 0.33384(19) 0.55455(13)
H29_3 H 0.1663 0.3153 0.5720
H30_3 H 0.0800 0.2885 0.5543
C35_3 C 0.8996(5) 0.6034(3) 0.01716(19)
H27_3 H 0.8938 0.5896 0.0615
C1_3 C 0.9237(4) 0.4335(3) 0.52313(19)
C2_3 C 0.8339(4) 0.3832(2) 0.50275(18)
H1_3 H 0.7946 0.3294 0.5234
C3_3 C 0.8010(4) 0.4117(3) 0.4517(2)
C4_3 C 0.8587(4) 0.4930(3) 0.4223(2)
C5_3 C 0.9498(4) 0.5431(3) 0.4429(2)
C6_3 C 0.9792(4) 0.5101(3) 0.49291(18)
C7_3 C 0.9531(3) 0.4003(2) 0.57799(17)
C8_3 C 0.8259(5) 0.5334(3) 0.3710(3)
H3_2 H 0.8464 0.5257 0.3305
H4_3 H 0.8498 0.5968 0.3790
H5_3 H 0.7607 0.5028 0.3713
H7_2 H 0.9947 0.5786 0.3196
C12_3 C 0.6848(5) 0.3293(3) 0.3697(2)
H8_3 H 0.7290 0.3579 0.3389
C13_3 C 0.7069(4) 0.3502(3) 0.4313(2)
C14_3 C 0.6355(4) 0.3083(3) 0.4738(2)
H9_3 H 0.6455 0.3234 0.5163
C15_3 C 0.5503(5) 0.2448(4) 0.4534(2)
H10_3 H 0.5048 0.2149 0.4832
C16_3 C 0.5968(6) 0.2655(5) 0.3522(2)
H11_2 H 0.5843 0.2513 0.3098
Cl1_6 Cl 1.00000(16) 0.24959(11) 0.6667
O1_3 O 0.89180(25) 0.34160(18) 0.61442(13)
O3_3 O 0.86646(27) 0.20030(19) 0.77879(13)
H14_3 H 0.8337 0.1490 0.7614
H15_3 H 0.9200 0.2085 0.7791
H17_3 H 0.9603 0.5032 0.8280
C27_3 C 0.9246(4) 0.6315(3) 0.8914(2)
H21_3 H 0.9339 0.6453 0.8487
C28_3 C 0.9796(4) 0.6062(3) 0.9250(2)
C29_3 C 0.9672(4) 0.5960(3) 0.9894(2)
C36_3 C 0.8575(5) 0.6350(3) 0.9235(2)
H28_3 H 0.8183 0.6476 0.9009
O5_3 O 0.96378(25) 0.39410(19) 0.74888(13)
H3_3 H 0.6793 0.1536 0.9971
H7_3 H 0.5839 0.0053 0.9862
H11_3 H 0.6670 0.4157 0.9764
H18_3 H 0.1536 0.6793 0.0029
H22_3 H 0.0053 0.5839 0.0138
H26_3 H 0.4157 0.6670 0.0236
O7 O 0.2859(7) 0.0530(9) 0.6756(7)
O9 O 0.1688(8) 0.0083(8) 0.6070(5)
N9 N 0.2390(11) 0.9996(11) 0.6231(8)
O8 O 0.2634(9) 0.9527(9) 0.5891(5)
N9_2 N 0.0004(11) 0.2394(16) 0.9564(8)
O8_2 O 0.0473(9) 0.3107(13) 0.9224(5)
O7_2 O 0.9470(9) 0.2329(11) 0.0089(7)
O9_2 O 0.9917(8) 0.1605(11) 0.9403(5)
N9_3 N 0.7606(16) 0.7610(11) 0.2898(8)
O7_3 O 0.7671(11) 0.7141(7) 0.3423(7)
O8_3 O 0.6893(13) 0.7366(9) 0.2558(5)
O9_3 O 0.8395(11) 0.8312(8) 0.2737(5)
O7_4 O 0.0530(9) 0.2859(7) 0.3244(7)
O9_4 O 0.0083(8) 0.1688(8) 0.3930(5)
N9_4 N 0.9996(11) 0.2390(11) 0.3769(8)
O8_4 O 0.9527(9) 0.2634(9) 0.4109(5)
N9_5 N 0.2394(16) 0.0004(11) 0.0436(8)
O8_5 O 0.3107(13) 0.0473(9) 0.0776(5)
O9_5 O 0.1605(11) 0.9917(8) 0.0597(5)
O7_5 O 0.2329(11) 0.9470(9) 0.9911(7)
N9_6 N 0.7610(11) 0.7606(16) 0.7102(8)
O7_6 O 0.7141(7) 0.7671(11) 0.6577(7)
O8_6 O 0.7366(9) 0.6893(13) 0.7442(5)
O9_6 O 0.8312(8) 0.8395(11) 0.7263(5)
loop_
_geom_bond_atom_site_label_1
_geom_bond_atom_site_label_2
_geom_bond_site_symmetry_1
_geom_bond_site_symmetry_2
Cl1 Co1 1_555 1_555
O3 Co1 1_555 1_555
H14 O3 1_555 1_555
H15 O3 1_555 1_555
C19 C20 1_555 1_555
C20 H16 1_555 1_555
C21 C20 1_555 1_555
C22 C21 1_555 1_555
C23 C22 1_555 1_555
C24 C19 1_555 1_555
H17 C24 1_555 1_555
C25 C19 1_555 1_555
C26 C22 1_555 1_555
H18 C26 1_555 1_555
H19 C26 1_555 1_555
H20 C26 1_555 1_555
C27 H21 1_555 1_555
C28 C23 1_555 1_555
C29 C28 1_555 1_555
H22 C29 1_555 1_555
C30 H23 1_555 1_555
C31 C21 1_555 1_555
C32 C31 1_555 1_555
H24 C32 1_555 1_555
C33 C32 1_555 1_555
H25 C33 1_555 1_555
C34 C30 1_555 1_555
H26 C34 1_555 1_555
C35 C29 1_555 1_555
H27 C35 1_555 1_555
C36 C27 1_555 1_555
H28 C36 1_555 1_555
N3 C33 1_555 1_555
N4 C35 1_555 1_555
O4 C25 1_555 1_555
O5 Co1 1_555 1_555
Co3 N4 1_555 1_555
Co6 N3 1_555 1_555
N5 Co1 1_555 1_555
C23 C24 1_555 1_555
C25 O5 1_555 1_555
C27 C28 1_555 1_555
C30 C31 1_555 1_555
C34 N3 1_555 1_555
C36 N4 1_555 1_555
C1 C2 1_555 1_555
C2 H1 1_555 1_555
C3 C2 1_555 1_555
C4 C3 1_555 1_555
C5 C4 1_555 1_555
C6 C1 1_555 1_555
H2 C6 1_555 1_555
C7 C1 1_555 1_555
C8 C4 1_555 1_555
H3 C8 1_555 1_555
H4 C8 1_555 1_555
H5 C8 1_555 1_555
C9 H6 1_555 1_555
C10 C5 1_555 1_555
C11 C10 1_555 1_555
H7 C11 1_555 1_555
C12 H8 1_555 1_555
C13 C3 1_555 1_555
C14 C13 1_555 1_555
H9 C14 1_555 1_555
C15 C14 1_555 1_555
H10 C15 1_555 1_555
C16 C12 1_555 1_555
H11 C16 1_555 1_555
C17 C11 1_555 1_555
H12 C17 1_555 1_555
C18 C9 1_555 1_555
H13 C18 1_555 1_555
N1 C15 1_555 1_555
N2 C17 1_555 1_555
O1 C7 1_555 1_555
O2 C7 1_555 1_555
Co2 Cl1_2 1_555 1_555
O6 Co2 1_555 1_555
H29 O6 1_555 1_555
H30 O6 1_555 1_555
Co4 N1 1_555 1_555
Co5 N2 1_555 1_555
N6 Co2 1_555 1_555
C5 C6 1_555 1_555
C9 C10 1_555 1_555
C12 C13 1_555 1_555
C16 N1 1_555 1_555
C18 N2 1_555 1_555
O2 Co2 1_555 1_555
C1_2 C2_2 1_555 1_555
C2_2 H1_2 1_555 1_555
C3_2 C2_2 1_555 1_555
C4_2 C3_2 1_555 1_555
C5_2 C4_2 1_555 1_555
C6_2 C1_2 1_555 1_555
C7_2 C1_2 1_555 1_555
C8_2 C4_2 1_555 1_555
H4_2 C8_2 1_555 1_555
H5_2 C8_2 1_555 1_555
C12_2 H8_2 1_555 1_555
C13_2 C3_2 1_555 1_555
C14_2 C13_2 1_555 1_555
H9_2 C14_2 1_555 1_555
C15_2 C14_2 1_555 1_555
H10_2 C15_2 1_555 1_555
C16_2 C12_2 1_555 1_555
Cl1_3 Co3 1_555 1_555
Co3 O1_2 1_555 1_555
N5 C15_2 1_555 1_555
O1_2 C7_2 1_555 1_555
O3_2 Co3 1_555 1_555
H14_2 O3_2 1_555 1_555
H15_2 O3_2 1_555 1_555
C27_2 H21_2 1_555 1_555
C29_2 C28_2 1_555 1_555
C35_2 C29_2 1_555 1_555
H27_2 C35_2 1_555 1_555
C36_2 C27_2 1_555 1_555
H28_2 C36_2 1_555 1_555
N4_2 C35_2 1_555 1_555
O5_2 Co3 1_555 1_555
Co4 N4_2 1_555 1_555
N5_2 Co3 1_555 1_555
C5_2 C6_2 1_555 1_555
C12_2 C13_2 1_555 1_555
C16_2 N5 1_555 1_555
C27_2 C28_2 1_555 1_555
C36_2 N4_2 1_555 1_555
C9_2 H6_2 1_555 1_555
C11_2 C10_2 1_555 1_555
C18_2 C9_2 1_555 1_555
H13_2 C18_2 1_555 1_555
C19_2 C20_2 1_555 1_555
C20_2 H16_2 1_555 1_555
C21_2 C20_2 1_555 1_555
C22_2 C21_2 1_555 1_555
C23_2 C22_2 1_555 1_555
C24_2 C19_2 1_555 1_555
C25_2 C19_2 1_555 1_555
C26_2 C22_2 1_555 1_555
H18_2 C26_2 1_555 1_555
H19_2 C26_2 1_555 1_555
H20_2 C26_2 1_555 1_555
C30_2 H23_2 1_555 1_555
C31_2 C21_2 1_555 1_555
C32_2 C31_2 1_555 1_555
H24_2 C32_2 1_555 1_555
C33_2 C32_2 1_555 1_555
H25_2 C33_2 1_555 1_555
C34_2 C30_2 1_555 1_555
H26_2 C34_2 1_555 1_555
Co6 Cl1_4 1_555 1_555
N3_2 C33_2 1_555 1_555
O4_2 C25_2 1_555 1_555
O6_2 Co6 1_555 1_555
H29_2 O6_2 1_555 1_555
H30_2 O6_2 1_555 1_555
Co5 N3_2 1_555 1_555
N7_2 Co6 1_555 1_555
C9_2 C10_2 1_555 1_555
C18_2 N7 1_555 1_555
O2_2 Co6 1_555 1_555
C23_2 C24_2 1_555 1_555
C30_2 C31_2 1_555 1_555
C34_2 N3_2 1_555 1_555
Co6 O4_2 1_555 1_555
H12_2 C17_2 1_555 1_555
C9_3 H6_3 1_555 1_555
C11_3 C10_3 1_555 1_555
C17_3 C11_3 1_555 1_555
H12_3 C17_3 1_555 1_555
C18_3 C9_3 1_555 1_555
H13_3 C18_3 1_555 1_555
N7_2 C17_3 1_555 1_555
C19_3 C20_3 1_555 1_555
C20_3 H16_3 1_555 1_555
C21_3 C20_3 1_555 1_555
C22_3 C21_3 1_555 1_555
C23_3 C22_3 1_555 1_555
C24_3 C19_3 1_555 1_555
C25_3 C19_3 1_555 1_555
C26_3 C22_3 1_555 1_555
H19_3 C26_3 1_555 1_555
H20_3 C26_3 1_555 1_555
C30_3 H23_3 1_555 1_555
C31_3 C21_3 1_555 1_555
C32_3 C31_3 1_555 1_555
H24_3 C32_3 1_555 1_555
C33_3 C32_3 1_555 1_555
H25_3 C33_3 1_555 1_555
C34_3 C30_3 1_555 1_555
Co5 Cl1_5 1_555 1_555
N6 C33_3 1_555 1_555
O4_3 C25_3 1_555 1_555
O6_3 Co5 1_555 1_555
H29_3 O6_3 1_555 1_555
H30_3 O6_3 1_555 1_555
C9_3 C10_3 1_555 1_555
C18_3 N7_2 1_555 1_555
O2_3 Co5 1_555 1_555
C23_3 C24_3 1_555 1_555
C30_3 C31_3 1_555 1_555
C34_3 N6 1_555 1_555
Co5 O4_3 1_555 1_555
H27_3 C35_3 1_555 1_555
C1_3 C2_3 1_555 1_555
C2_3 H1_3 1_555 1_555
C3_3 C2_3 1_555 1_555
C4_3 C3_3 1_555 1_555
C5_3 C4_3 1_555 1_555
C6_3 C1_3 1_555 1_555
C7_3 C1_3 1_555 1_555
C8_3 C4_3 1_555 1_555
H3_2 C8_3 1_555 1_555
H4_3 C8_3 1_555 1_555
H5_3 C8_3 1_555 1_555
C12_3 H8_3 1_555 1_555
C13_3 C3_3 1_555 1_555
C14_3 C13_3 1_555 1_555
H9_3 C14_3 1_555 1_555
C15_3 C14_3 1_555 1_555
H10_3 C15_3 1_555 1_555
C16_3 C12_3 1_555 1_555
H11_2 C16_3 1_555 1_555
Cl1_6 Co4 1_555 1_555
Co4 O1_3 1_555 1_555
N5_2 C15_3 1_555 1_555
O1_3 C7_3 1_555 1_555
O3_3 Co4 1_555 1_555
H14_3 O3_3 1_555 1_555
H15_3 O3_3 1_555 1_555
C27_3 H21_3 1_555 1_555
C29_3 C28_3 1_555 1_555
C36_3 C27_3 1_555 1_555
H28_3 C36_3 1_555 1_555
O5_3 Co4 1_555 1_555
C5_3 C6_3 1_555 1_555
C12_3 C13_3 1_555 1_555
C16_3 N5_2 1_555 1_555
C27_3 C28_3 1_555 1_555
C36_3 N8 1_555 1_555
O8 N9 1_555 1_555
O8_2 N9_2 1_555 1_555
N9_3 O7_3 1_555 1_555
O8_3 N9_3 1_555 1_555
O9_3 N9_3 1_555 1_555
O8_4 N9_4 1_555 1_555
O8_5 N9_5 1_555 1_555
N9_6 O7_6 1_555 1_555
O8_6 N9_6 1_555 1_555
O9_6 N9_6 1_555 1_555

#END
