
###############################################################################
#
# This file contains modified crystal structure data generated from the
# MOF subset of the Cambridge Structural Database (CSD) v543 
# hosted by the Cambridge Crystallographic Data Centre (CCDC).
#
# This work is licensed under the Creative Commons
# Attribution-NonCommercial-ShareAlike 4.0 International License.
# To view a copy of this license, visit
# http://creativecommons.org/licenses/by-nc-sa/4.0/
# or send a letter to
# Creative Commons, PO Box 1866, Mountain View, CA 94042, USA.
#
# CIF created using the CSD Python API on 29 September 2022
# The structure has been converted into the P1 space group
# The structure has a 3D framework
# The original CSD entry SUPCIS is in the trigonal crystal system
# The original CSD entry SUPCIS is in a Sohncke space group
# The framework has been calculated to contain at least 10.0% void space
# The void calculation uses a probe of radius 1.32A, grid spacing 0.4
# The framework is charged, counterions have been retained in the structure
#
###############################################################################

data_SUPCIS
_chemical_formula_moiety         '(C108 H90 Co6 N23 O47 1-)n'
_symmetry_cell_setting           triclinic
_symmetry_space_group_name_H-M   'P 1'
_symmetry_Int_Tables_number      1
_space_group_name_Hall           'P 1'
loop_
_symmetry_equiv_pos_site_id
_symmetry_equiv_pos_as_xyz
1 x,y,z
_cell_length_a                   16.807(5)
_cell_length_b                   16.807(5)
_cell_length_c                   20.301(6)
_cell_angle_alpha                90
_cell_angle_beta                 90
_cell_angle_gamma                120
_cell_volume                     4966.25
loop_
_atom_site_label
_atom_site_type_symbol
_atom_site_fract_x
_atom_site_fract_y
_atom_site_fract_z
N1 N 0.6880(13) 0.0280(12) 0.9024(8)
O1 O 0.7322(10) 0.0395(9) 0.9524(8)
O3 O 0.6972(15) 0.0939(13) 0.8714(10)
O2 O 0.6232(12) 0.9527(11) 0.8868(9)
O2_2 O 0.0473(11) 0.6705(16) 0.5535(9)
N1_2 N 0.9720(12) 0.6600(18) 0.5691(8)
O1_2 O 0.9605(9) 0.6927(13) 0.6191(8)
O3_2 O 0.9061(13) 0.6033(20) 0.5381(10)
N1_3 N 0.3400(18) 0.3120(13) 0.2357(8)
O1_3 O 0.3073(13) 0.2678(10) 0.2857(8)
O2_3 O 0.3295(16) 0.3768(12) 0.2201(9)
O3_3 O 0.3967(20) 0.3028(15) 0.2047(10)
N1_4 N 0.0280(12) 0.6880(13) 0.0976(8)
O1_4 O 0.0395(9) 0.7322(10) 0.0476(8)
O3_4 O 0.0939(13) 0.6972(15) 0.1286(10)
O2_4 O 0.9527(11) 0.6232(12) 0.1132(9)
O2_5 O 0.6705(16) 0.0473(11) 0.4465(9)
N1_5 N 0.6600(18) 0.9720(12) 0.4309(8)
O1_5 O 0.6927(13) 0.9605(9) 0.3809(8)
O3_5 O 0.6033(20) 0.9061(13) 0.4619(10)
N1_6 N 0.3120(13) 0.3400(18) 0.7643(8)
O1_6 O 0.2678(10) 0.3073(13) 0.7143(8)
O2_6 O 0.3768(12) 0.3295(16) 0.7799(9)
O3_6 O 0.3028(15) 0.3967(20) 0.7953(10)
N4 N 0.8177(5) 0.000000 0.166667
O5 O 0.6696(2) 0.1113(2) 0.11338(17)
O6 O 0.7468(4) 0.000000 0.166667
C1 C 0.6087(3) 0.0504(3) 0.0775(2)
C2 C 0.5707(4) 0.0834(3) 0.0260(2)
C3 C 0.6196(3) 0.1751(3) 0.0049(2)
H3 H 0.676349 0.214553 0.023923
H9 H 0.683273 0.362453 0.026364
O9 O 0.8762(7) 0.0392(5) 0.2124(3)
Co2 Co 0.73079(6) 0.11318(4) 0.20011(3)
N6 N 0.3584(5) 0.1442(4) 0.4863(2)
O10 O 0.6103(3) 0.0344(2) 0.25134(16)
O12 O 0.8049(4) 0.1193(2) 0.28451(18)
H16 H 0.836102 0.093491 0.275622
H17 H 0.766242 0.087011 0.314032
H19 H 0.492570 0.035553 0.328668
C32 C 0.3473(5) 0.1330(4) 0.4212(3)
H27 H 0.334730 0.172320 0.396918
C33 C 0.3542(5) 0.0642(4) 0.3895(3)
H28 H 0.343129 0.056102 0.344483
C34 C 0.3763(5) 0.0085(4) 0.4219(3)
C35 C 0.3883(6) 0.0200(5) 0.4899(3)
C36 C 0.3792(6) 0.0883(5) 0.5193(3)
H30 H 0.387891 0.096146 0.564703
Co6 Co 0.38239(4) 0.26921(6) 0.53345(3)
N7 N 0.7105(4) 0.2246(2) 0.2314(2)
N10 N 0.8558(4) 0.2142(3) 0.1530(2)
N2 N 0.7754(2) 0.4859(3) 0.8981(2)
C4 C 0.5862(3) 0.2082(3) 0.9571(3)
C5 C 0.5015(3) 0.1511(3) 0.9275(3)
C6 C 0.4538(3) 0.0588(3) 0.9449(2)
C7 C 0.4893(3) 0.0264(3) 0.9936(2)
C8 C 0.4602(4) 0.1890(4) 0.8806(3)
H5 H 0.479650 0.186501 0.836538
H6 H 0.479979 0.251658 0.891927
H7 H 0.394396 0.153254 0.883085
C9 C 0.7578(3) 0.4610(3) 0.9617(3)
H8 H 0.790400 0.505002 0.993752
C10 C 0.6949(4) 0.3750(3) 0.9817(3)
C11 C 0.6485(3) 0.3065(3) 0.9366(3)
C12 C 0.6638(4) 0.3288(3) 0.8708(3)
H10 H 0.632625 0.284526 0.838568
C13 C 0.7287(4) 0.4213(4) 0.8530(3)
H11 H 0.738578 0.437019 0.808645
H14 H 0.420211 0.018028 0.818565
Co5 Co 0.88682(4) 0.61761(4) 0.86678(3)
Co1 Co 0.61761(4) 0.88682(4) 0.13322(3)
N4_2 N 0.8177(5) 1.000000 0.166667
O4 O 0.5759(2) 0.9656(2) 0.08199(16)
O6_2 O 0.7468(4) 1.000000 0.166667
O7 O 0.6856(3) 0.8807(2) 0.04882(18)
H1 H 0.742611 0.906509 0.057711
H2 H 0.679231 0.912989 0.019301
O8 O 0.8370(5) 0.9608(5) 0.1209(3)
H4 H 0.457017 0.964447 0.004665
N5 N 0.2895(4) 0.5141(3) 0.4352(2)
O11 O 0.5583(3) 0.8887(2) 0.21995(17)
C19 C 0.5583(4) 0.9496(3) 0.2558(2)
C20 C 0.4873(5) 0.9166(3) 0.3073(2)
C21 C 0.4445(4) 0.8249(3) 0.3284(2)
H18 H 0.461796 0.785447 0.309410
C22 C 0.3780(4) 0.7918(3) 0.3762(3)
C23 C 0.3504(4) 0.8489(3) 0.4058(3)
C24 C 0.3950(4) 0.9412(3) 0.3884(2)
C25 C 0.4629(4) 0.9736(3) 0.3397(2)
C26 C 0.2712(6) 0.8110(4) 0.4527(3)
H20 H 0.293149 0.813499 0.496795
H21 H 0.228321 0.748342 0.441406
H22 H 0.241142 0.846746 0.450248
C27 C 0.2968(4) 0.5390(3) 0.3716(3)
H23 H 0.285398 0.494998 0.339581
C28 C 0.3199(5) 0.6250(3) 0.3516(3)
H24 H 0.320820 0.637547 0.306969
C29 C 0.3420(4) 0.6935(3) 0.3967(3)
C30 C 0.3350(5) 0.6712(3) 0.4625(3)
H25 H 0.348099 0.715474 0.494765
C31 C 0.3074(6) 0.5787(4) 0.4803(3)
H26 H 0.301559 0.562981 0.524688
H29 H 0.402183 0.981972 0.514768
Co4 Co 0.26921(6) 0.38239(4) 0.46655(3)
N8 N 0.4859(3) 0.7754(2) 0.1019(2)
N9 N 0.6416(5) 0.7858(3) 0.1803(2)
N3 N 0.2142(3) 0.8558(4) 0.8470(2)
C14 C 0.2143(3) 0.8670(4) 0.9121(3)
H12 H 0.162410 0.827680 0.936415
C15 C 0.2900(3) 0.9358(4) 0.9438(3)
H13 H 0.287027 0.943898 0.988850
C16 C 0.3678(3) 0.9915(4) 0.9114(3)
C17 C 0.3683(3) 0.9800(5) 0.8434(3)
C18 C 0.2909(3) 0.9117(5) 0.8140(3)
H15 H 0.291745 0.903854 0.768630
Co3 Co 0.11318(4) 0.73079(6) 0.79989(3)
C22_2 C 0.2082(3) 0.5862(5) 0.0429(3)
C23_2 C 0.1511(3) 0.5015(5) 0.0725(3)
C24_2 C 0.0588(3) 0.4538(5) 0.0551(2)
C25_2 C 0.0264(3) 0.4893(5) 0.0064(2)
C26_2 C 0.1890(4) 0.4602(7) 0.1194(3)
H20_2 H 0.186501 0.479650 0.163462
H21_2 H 0.251658 0.479979 0.108073
H22_2 H 0.153254 0.394396 0.116915
C27_2 C 0.4610(3) 0.7578(5) 0.0383(3)
H23_2 H 0.505002 0.790400 0.006248
C28_2 C 0.3750(3) 0.6949(6) 0.0183(3)
C29_2 C 0.3065(3) 0.6485(5) 0.0634(3)
C30_2 C 0.3288(3) 0.6638(6) 0.1292(3)
H25_2 H 0.284526 0.632625 0.161432
C31_2 C 0.4213(4) 0.7287(7) 0.1470(3)
H26_2 H 0.437019 0.738578 0.191355
H29_2 H 0.018028 0.420211 0.181435
N3_2 N 0.1442(4) 0.3584(5) 0.5137(2)
N4_3 N -0.000000 0.81770(50) 0.833334
O4_2 O 0.0344(2) 0.6103(3) 0.74866(16)
O6_3 O -0.000000 0.74680(40) 0.833334
O7_2 O 0.1193(2) 0.8049(4) 0.71549(18)
H1_2 H 0.093491 0.836102 0.724378
H2_2 H 0.087011 0.766242 0.685968
O8_2 O 0.0392(5) 0.8762(7) 0.7876(3)
H4_2 H 0.035553 0.492570 0.671332
C14_2 C 0.1330(4) 0.3473(5) 0.5788(3)
H12_2 H 0.172320 0.334730 0.603082
C15_2 C 0.0642(4) 0.3542(5) 0.6105(3)
H13_2 H 0.056102 0.343129 0.655517
C16_2 C 0.0085(4) 0.3763(5) 0.5781(3)
C17_2 C 0.0200(5) 0.3883(6) 0.5101(3)
C18_2 C 0.0883(5) 0.3792(6) 0.4807(3)
H15_2 H 0.096146 0.387891 0.435297
O11_2 O 0.1113(2) 0.6696(4) 0.88662(17)
C19_2 C 0.0504(3) 0.6087(5) 0.9225(2)
C20_2 C 0.0834(3) 0.5707(6) 0.9740(2)
C21_2 C 0.1751(3) 0.6196(5) 0.9951(2)
H18_2 H 0.214553 0.676349 0.976077
H24_2 H 0.362453 0.683273 0.973636
N8_2 N 0.2246(2) 0.7105(4) 0.7686(2)
C32_2 C 0.8670(4) 0.2143(6) 0.0879(3)
H27_2 H 0.827680 0.162410 0.063585
C33_2 C 0.9358(4) 0.2900(6) 0.0562(3)
H28_2 H 0.943898 0.287027 0.011150
C34_2 C 0.9915(4) 0.3678(6) 0.0886(3)
C35_2 C 0.9800(5) 0.3683(8) 0.1566(3)
C36_2 C 0.9117(5) 0.2909(8) 0.1860(3)
H30_2 H 0.903854 0.291745 0.231370
N2_2 N 0.5141(3) 0.2895(4) 0.5648(2)
N4_4 N 1.000000 0.81770(50) 0.833334
O5_2 O 0.8887(2) 0.5583(3) 0.78005(17)
O6_4 O 1.000000 0.74680(40) 0.833334
C1_2 C 0.9496(3) 0.5583(4) 0.7442(2)
C2_2 C 0.9166(3) 0.4873(5) 0.6927(2)
C3_2 C 0.8249(3) 0.4445(4) 0.6716(2)
H3_2 H 0.785447 0.461796 0.690590
C4_2 C 0.7918(3) 0.3780(4) 0.6238(3)
C5_2 C 0.8489(3) 0.3504(4) 0.5942(3)
C6_2 C 0.9412(3) 0.3950(4) 0.6116(2)
C7_2 C 0.9736(3) 0.4629(4) 0.6603(2)
C8_2 C 0.8110(4) 0.2712(6) 0.5473(3)
H5_2 H 0.813499 0.293149 0.503205
H6_2 H 0.748342 0.228321 0.558594
H7_2 H 0.846746 0.241142 0.549752
C9_2 C 0.5390(3) 0.2968(4) 0.6284(3)
H8_2 H 0.494998 0.285398 0.660419
C10_2 C 0.6250(3) 0.3199(5) 0.6484(3)
H9_2 H 0.637547 0.320820 0.693031
C11_2 C 0.6935(3) 0.3420(4) 0.6033(3)
C12_2 C 0.6712(3) 0.3350(5) 0.5375(3)
H10_2 H 0.715474 0.348099 0.505235
C13_2 C 0.5787(4) 0.3074(6) 0.5197(3)
H11_2 H 0.562981 0.301559 0.475312
H14_2 H 0.981972 0.402183 0.485232
O9_2 O 0.9608(5) 0.8370(9) 0.8791(3)
O10_2 O 0.9656(2) 0.5759(4) 0.91801(16)
O12_2 O 0.8807(2) 0.6856(4) 0.95118(18)
H16_2 H 0.906509 0.742611 0.942289
H17_2 H 0.912989 0.679231 0.980699
H19_2 H 0.964447 0.457017 0.995335
N10_2 N 0.7858(3) 0.6416(5) 0.8197(2)
N4_5 N 0.18230(50) 0.1823(5) 0.500000
O4_3 O 0.3897(3) 0.4241(2) 0.41532(16)
O5_3 O 0.4417(3) 0.3304(2) 0.44671(17)
O6_5 O 0.25320(40) 0.2532(4) 0.500000
O7_3 O 0.1951(4) 0.3144(3) 0.38215(18)
H1_3 H 0.163898 0.257389 0.391044
H2_3 H 0.233758 0.320769 0.352634
O8_3 O 0.1238(7) 0.1630(5) 0.4542(3)
C1_3 C 0.4417(4) 0.3913(3) 0.4108(2)
C2_3 C 0.5127(5) 0.4293(4) 0.3593(2)
C3_3 C 0.5555(4) 0.3804(3) 0.3382(2)
H3_3 H 0.538204 0.323651 0.357256
C4_3 C 0.6220(4) 0.4138(3) 0.2904(3)
C5_3 C 0.6496(4) 0.4985(3) 0.2608(3)
C6_3 C 0.6050(4) 0.5462(3) 0.2782(2)
C7_3 C 0.5371(4) 0.5107(3) 0.3269(2)
H4_3 H 0.507430 0.542983 0.337998
C8_3 C 0.7288(6) 0.5398(4) 0.2139(3)
H5_3 H 0.706851 0.520350 0.169871
H6_3 H 0.771679 0.520021 0.225260
H7_3 H 0.758858 0.605604 0.216418
C9_3 C 0.7032(4) 0.2422(3) 0.2950(3)
H8_3 H 0.714602 0.209600 0.327085
C10_3 C 0.6801(5) 0.3051(4) 0.3150(3)
H9_3 H 0.679180 0.316727 0.359697
C11_3 C 0.6580(4) 0.3515(3) 0.2699(3)
C12_3 C 0.6650(5) 0.3362(4) 0.2041(3)
H10_3 H 0.651901 0.367375 0.171901
C13_3 C 0.6926(6) 0.2713(4) 0.1863(3)
H11_3 H 0.698441 0.261422 0.141978
C14_3 C 0.6527(5) 0.7857(3) 0.2454(3)
H12_3 H 0.665270 0.837590 0.269748
C15_3 C 0.6458(5) 0.7100(3) 0.2771(3)
H13_3 H 0.656871 0.712973 0.322183
C16_3 C 0.6237(5) 0.6322(3) 0.2447(3)
C17_3 C 0.6117(6) 0.6317(3) 0.1767(3)
H14_3 H 0.597817 0.579789 0.151898
C18_3 C 0.6208(6) 0.7091(3) 0.1473(3)
H15_3 H 0.612109 0.708255 0.101963
O9_3 O 0.1630(9) 0.1238(7) 0.5458(3)
O10_3 O 0.4241(4) 0.3897(3) 0.58468(16)
O11_3 O 0.3304(4) 0.4417(3) 0.55329(17)
O12_3 O 0.3144(4) 0.1951(4) 0.61785(18)
H16_3 H 0.257389 0.163898 0.608956
H17_3 H 0.320769 0.233758 0.647366
C19_3 C 0.3913(5) 0.4417(4) 0.5892(2)
C20_3 C 0.4293(6) 0.5127(5) 0.6407(2)
C21_3 C 0.3804(5) 0.5555(4) 0.6618(2)
H18_3 H 0.323651 0.538204 0.642744
C22_3 C 0.4138(5) 0.6220(4) 0.7096(3)
C23_3 C 0.4985(5) 0.6496(4) 0.7392(3)
C24_3 C 0.5462(5) 0.6050(4) 0.7218(2)
C25_3 C 0.5107(5) 0.5371(4) 0.6731(2)
H19_3 H 0.542983 0.507430 0.662002
C26_3 C 0.5398(7) 0.7288(6) 0.7861(3)
H20_3 H 0.520350 0.706851 0.830129
H21_3 H 0.520021 0.771679 0.774740
H22_3 H 0.605604 0.758858 0.783582
C27_3 C 0.2422(5) 0.7032(4) 0.7050(3)
H23_3 H 0.209600 0.714602 0.672915
C28_3 C 0.3051(6) 0.6801(5) 0.6850(3)
H24_3 H 0.316727 0.679180 0.640303
C29_3 C 0.3515(5) 0.6580(4) 0.7301(3)
C30_3 C 0.3362(6) 0.6650(5) 0.7959(3)
H25_3 H 0.367375 0.651901 0.828099
C31_3 C 0.2713(7) 0.6926(6) 0.8137(3)
H26_3 H 0.261422 0.698441 0.858022
C32_3 C 0.7857(6) 0.6527(5) 0.7546(3)
H27_3 H 0.837590 0.665270 0.730252
C33_3 C 0.7100(6) 0.6458(5) 0.7229(3)
H28_3 H 0.712973 0.656871 0.677817
C34_3 C 0.6322(6) 0.6237(5) 0.7553(3)
C35_3 C 0.6317(8) 0.6117(6) 0.8233(3)
H29_3 H 0.579789 0.597817 0.848102
C36_3 C 0.7091(8) 0.6208(6) 0.8527(3)
H30_3 H 0.708255 0.612109 0.898037
loop_
_geom_bond_atom_site_label_1
_geom_bond_atom_site_label_2
_geom_bond_site_symmetry_1
_geom_bond_site_symmetry_2
N1 O1 1_555 1_555
O3 N1 1_555 1_555
N1_2 O1_2 1_555 1_555
O3_2 N1_2 1_555 1_555
N1_3 O1_3 1_555 1_555
O2_3 N1_3 1_555 1_555
O3_3 N1_3 1_555 1_555
N1_4 O1_4 1_555 1_555
O3_4 N1_4 1_555 1_555
N1_5 O1_5 1_555 1_555
O3_5 N1_5 1_555 1_555
N1_6 O1_6 1_555 1_555
O2_6 N1_6 1_555 1_555
O3_6 N1_6 1_555 1_555
N4 O6 1_555 1_555
O5 C1 1_555 1_555
C1 C2 1_555 1_555
C2 C3 1_555 1_555
C3 H3 1_555 1_555
O9 N4 1_555 1_555
Co2 O5 1_555 1_555
N6 C32 1_555 1_555
O10 Co2 1_555 1_555
O12 Co2 1_555 1_555
H16 O12 1_555 1_555
H17 O12 1_555 1_555
C32 H27 1_555 1_555
C33 C32 1_555 1_555
H28 C33 1_555 1_555
C35 C34 1_555 1_555
C36 N6 1_555 1_555
H30 C36 1_555 1_555
Co6 N6 1_555 1_555
N7 Co2 1_555 1_555
N10 Co2 1_555 1_555
O6 Co2 1_555 1_555
C33 C34 1_555 1_555
C35 C36 1_555 1_555
N2 C9 1_555 1_555
C5 C4 1_555 1_555
C6 C5 1_555 1_555
C8 C5 1_555 1_555
H5 C8 1_555 1_555
H6 C8 1_555 1_555
H7 C8 1_555 1_555
C9 H8 1_555 1_555
C10 C9 1_555 1_555
C11 C4 1_555 1_555
C12 C11 1_555 1_555
H10 C12 1_555 1_555
C13 N2 1_555 1_555
H11 C13 1_555 1_555
Co5 N2 1_555 1_555
C6 C7 1_555 1_555
C10 C11 1_555 1_555
C12 C13 1_555 1_555
Co1 O4 1_555 1_555
N4_2 O6_2 1_555 1_555
O6_2 Co1 1_555 1_555
O7 Co1 1_555 1_555
H1 O7 1_555 1_555
H2 O7 1_555 1_555
O8 N4_2 1_555 1_555
N5 C27 1_555 1_555
O11 Co1 1_555 1_555
C20 C19 1_555 1_555
C21 C20 1_555 1_555
H18 C21 1_555 1_555
C22 C21 1_555 1_555
C23 C22 1_555 1_555
C24 C23 1_555 1_555
C25 C20 1_555 1_555
C26 C23 1_555 1_555
H20 C26 1_555 1_555
H21 C26 1_555 1_555
H22 C26 1_555 1_555
C27 H23 1_555 1_555
C28 C27 1_555 1_555
H24 C28 1_555 1_555
C29 C22 1_555 1_555
C30 C29 1_555 1_555
H25 C30 1_555 1_555
C31 N5 1_555 1_555
H26 C31 1_555 1_555
Co4 N5 1_555 1_555
N8 Co1 1_555 1_555
N9 Co1 1_555 1_555
O11 C19 1_555 1_555
C24 C25 1_555 1_555
C28 C29 1_555 1_555
C30 C31 1_555 1_555
N3 C14 1_555 1_555
C14 H12 1_555 1_555
C15 C14 1_555 1_555
H13 C15 1_555 1_555
C17 C16 1_555 1_555
C18 N3 1_555 1_555
H15 C18 1_555 1_555
Co3 N3 1_555 1_555
C15 C16 1_555 1_555
C17 C18 1_555 1_555
N8 C27_2 1_555 1_555
C23_2 C22_2 1_555 1_555
C24_2 C23_2 1_555 1_555
C26_2 C23_2 1_555 1_555
H20_2 C26_2 1_555 1_555
H21_2 C26_2 1_555 1_555
H22_2 C26_2 1_555 1_555
C27_2 H23_2 1_555 1_555
C28_2 C27_2 1_555 1_555
C29_2 C22_2 1_555 1_555
C30_2 C29_2 1_555 1_555
H25_2 C30_2 1_555 1_555
C31_2 N8 1_555 1_555
H26_2 C31_2 1_555 1_555
C24_2 C25_2 1_555 1_555
C28_2 C29_2 1_555 1_555
C30_2 C31_2 1_555 1_555
Co3 O4_2 1_555 1_555
N3_2 C14_2 1_555 1_555
N4_3 O6_3 1_555 1_555
O6_3 Co3 1_555 1_555
O7_2 Co3 1_555 1_555
H1_2 O7_2 1_555 1_555
H2_2 O7_2 1_555 1_555
O8_2 N4_3 1_555 1_555
C14_2 H12_2 1_555 1_555
C15_2 C14_2 1_555 1_555
H13_2 C15_2 1_555 1_555
C17_2 C16_2 1_555 1_555
C18_2 N3_2 1_555 1_555
H15_2 C18_2 1_555 1_555
O11_2 Co3 1_555 1_555
C20_2 C19_2 1_555 1_555
C21_2 C20_2 1_555 1_555
H18_2 C21_2 1_555 1_555
Co4 N3_2 1_555 1_555
N8_2 Co3 1_555 1_555
C15_2 C16_2 1_555 1_555
C17_2 C18_2 1_555 1_555
O11_2 C19_2 1_555 1_555
N10 C32_2 1_555 1_555
C32_2 H27_2 1_555 1_555
C33_2 C32_2 1_555 1_555
H28_2 C33_2 1_555 1_555
C35_2 C34_2 1_555 1_555
C36_2 N10 1_555 1_555
H30_2 C36_2 1_555 1_555
C33_2 C34_2 1_555 1_555
C35_2 C36_2 1_555 1_555
N2_2 C9_2 1_555 1_555
N4_4 O6_4 1_555 1_555
O5_2 C1_2 1_555 1_555
C1_2 C2_2 1_555 1_555
C2_2 C3_2 1_555 1_555
C3_2 H3_2 1_555 1_555
C4_2 C3_2 1_555 1_555
C5_2 C4_2 1_555 1_555
C6_2 C5_2 1_555 1_555
C7_2 C2_2 1_555 1_555
C8_2 C5_2 1_555 1_555
H5_2 C8_2 1_555 1_555
H6_2 C8_2 1_555 1_555
H7_2 C8_2 1_555 1_555
C9_2 H8_2 1_555 1_555
C10_2 C9_2 1_555 1_555
H9_2 C10_2 1_555 1_555
C11_2 C4_2 1_555 1_555
C12_2 C11_2 1_555 1_555
H10_2 C12_2 1_555 1_555
C13_2 N2_2 1_555 1_555
H11_2 C13_2 1_555 1_555
O9_2 N4_4 1_555 1_555
Co5 O5_2 1_555 1_555
O10_2 Co5 1_555 1_555
O12_2 Co5 1_555 1_555
H16_2 O12_2 1_555 1_555
H17_2 O12_2 1_555 1_555
Co6 N2_2 1_555 1_555
N10_2 Co5 1_555 1_555
O6_4 Co5 1_555 1_555
C6_2 C7_2 1_555 1_555
C10_2 C11_2 1_555 1_555
C12_2 C13_2 1_555 1_555
Co4 O4_3 1_555 1_555
N7 C9_3 1_555 1_555
N9 C14_3 1_555 1_555
N4_5 O6_5 1_555 1_555
O4_3 C1_3 1_555 1_555
O5_3 C1_3 1_555 1_555
O6_5 Co4 1_555 1_555
O7_3 Co4 1_555 1_555
H1_3 O7_3 1_555 1_555
H2_3 O7_3 1_555 1_555
O8_3 N4_5 1_555 1_555
C1_3 C2_3 1_555 1_555
C2_3 C3_3 1_555 1_555
C3_3 H3_3 1_555 1_555
C4_3 C3_3 1_555 1_555
C5_3 C4_3 1_555 1_555
C6_3 C5_3 1_555 1_555
C7_3 C2_3 1_555 1_555
H4_3 C7_3 1_555 1_555
C8_3 C5_3 1_555 1_555
H5_3 C8_3 1_555 1_555
H6_3 C8_3 1_555 1_555
H7_3 C8_3 1_555 1_555
C9_3 H8_3 1_555 1_555
C10_3 C9_3 1_555 1_555
H9_3 C10_3 1_555 1_555
C11_3 C4_3 1_555 1_555
C12_3 C11_3 1_555 1_555
H10_3 C12_3 1_555 1_555
C13_3 N7 1_555 1_555
H11_3 C13_3 1_555 1_555
C14_3 H12_3 1_555 1_555
C15_3 C14_3 1_555 1_555
H13_3 C15_3 1_555 1_555
C16_3 C6_3 1_555 1_555
C17_3 C16_3 1_555 1_555
H14_3 C17_3 1_555 1_555
C18_3 N9 1_555 1_555
H15_3 C18_3 1_555 1_555
O9_3 N4_5 1_555 1_555
Co6 O5_3 1_555 1_555
N8_2 C27_3 1_555 1_555
N10_2 C32_3 1_555 1_555
O10_3 Co6 1_555 1_555
O11_3 Co4 1_555 1_555
O12_3 Co6 1_555 1_555
H16_3 O12_3 1_555 1_555
H17_3 O12_3 1_555 1_555
C19_3 O10_3 1_555 1_555
C20_3 C19_3 1_555 1_555
C21_3 C20_3 1_555 1_555
H18_3 C21_3 1_555 1_555
C22_3 C21_3 1_555 1_555
C23_3 C22_3 1_555 1_555
C24_3 C23_3 1_555 1_555
C25_3 C20_3 1_555 1_555
H19_3 C25_3 1_555 1_555
C26_3 C23_3 1_555 1_555
H20_3 C26_3 1_555 1_555
H21_3 C26_3 1_555 1_555
H22_3 C26_3 1_555 1_555
C27_3 H23_3 1_555 1_555
C28_3 C27_3 1_555 1_555
H24_3 C28_3 1_555 1_555
C29_3 C22_3 1_555 1_555
C30_3 C29_3 1_555 1_555
H25_3 C30_3 1_555 1_555
C31_3 N8_2 1_555 1_555
H26_3 C31_3 1_555 1_555
C32_3 H27_3 1_555 1_555
C33_3 C32_3 1_555 1_555
H28_3 C33_3 1_555 1_555
C34_3 C24_3 1_555 1_555
C35_3 C34_3 1_555 1_555
H29_3 C35_3 1_555 1_555
C36_3 N10_2 1_555 1_555
H30_3 C36_3 1_555 1_555
O6_5 Co6 1_555 1_555
C6_3 C7_3 1_555 1_555
C10_3 C11_3 1_555 1_555
C12_3 C13_3 1_555 1_555
C15_3 C16_3 1_555 1_555
C17_3 C18_3 1_555 1_555
O11_3 C19_3 1_555 1_555
C24_3 C25_3 1_555 1_555
C28_3 C29_3 1_555 1_555
C30_3 C31_3 1_555 1_555
C33_3 C34_3 1_555 1_555
C35_3 C36_3 1_555 1_555

#END
