
###############################################################################
#
# This file contains modified crystal structure data generated from the
# MOF subset of the Cambridge Structural Database (CSD) v543 
# hosted by the Cambridge Crystallographic Data Centre (CCDC).
#
# This work is licensed under the Creative Commons
# Attribution-NonCommercial-ShareAlike 4.0 International License.
# To view a copy of this license, visit
# http://creativecommons.org/licenses/by-nc-sa/4.0/
# or send a letter to
# Creative Commons, PO Box 1866, Mountain View, CA 94042, USA.
#
# CIF created using the CSD Python API on 29 September 2022
# The structure has been converted into the P1 space group
# The structure has a 3D framework
# The original CSD entry SUPGES is in the monoclinic crystal system
# The framework has been calculated to contain at least 10.0% void space
# The void calculation uses a probe of radius 1.32A, grid spacing 0.4
#
###############################################################################

data_SUPGES
_chemical_formula_moiety         '(C54 H26 N6 O12 Zn6)n'
_symmetry_cell_setting           triclinic
_symmetry_space_group_name_H-M   'P 1'
_symmetry_Int_Tables_number      1
_space_group_name_Hall           'P 1'
loop_
_symmetry_equiv_pos_site_id
_symmetry_equiv_pos_as_xyz
1 x,y,z
_cell_length_a                   8.764(4)
_cell_length_b                   15.539(7)
_cell_length_c                   11.597(6)
_cell_angle_alpha                90
_cell_angle_beta                 91.394(13)
_cell_angle_gamma                90
_cell_volume                     1578.86
loop_
_atom_site_label
_atom_site_type_symbol
_atom_site_fract_x
_atom_site_fract_y
_atom_site_fract_z
Zn14 Zn 0.12553(17) -0.000000 0.08994(17)
O4 O 0.0036(9) 0.4074(5) 0.3293(9)
O8 O 0.0036(9) 0.5926(5) 0.3293(9)
Zn8 Zn 0.12914(17) 0.500000 0.42143(18)
Zn14_2 Zn 0.12553(17) 1.000000 0.08994(17)
O20 O 0.0093(11) 0.0967(5) 0.8520(11)
O21 O 0.0093(11) 0.9033(5) 0.8520(11)
Zn11 Zn 0.87447(17) -0.000000 0.91006(17)
Zn1 Zn 0.87086(17) 0.500000 0.57857(18)
O1 O 0.7873(11) 0.0911(5) 0.0149(10)
O2 O 0.9907(11) 0.0967(5) 0.1480(11)
O3 O 0.8193(9) 0.4085(5) 0.4507(9)
N1 N 0.3422(16) 0.500000 0.3532(14)
C1 C 0.8542(17) 0.1200(8) 0.1056(14)
C2 C 0.7771(12) 0.1918(7) 0.1652(15)
C3 C 0.6237(13) 0.2077(8) 0.1407(14)
H1 H 0.571868 0.168497 0.093484
C4 C 0.5414(18) 0.2775(8) 0.1814(14)
H2 H 0.437172 0.283439 0.166584
C5 C 0.6259(12) 0.3391(7) 0.2466(11)
C6 C 0.7867(12) 0.3230(8) 0.2836(12)
C7 C 0.8562(12) 0.2511(6) 0.2382(11)
H3 H 0.958669 0.241131 0.256245
C8 C 0.8777(13) 0.3843(7) 0.3600(14)
C9 C 0.5564(14) 0.4225(7) 0.2868(13)
C10 C 0.6276(16) 0.500000 0.2574(14)
H4 H 0.719827 0.500001 0.219398
C11 C 0.4057(15) 0.4238(8) 0.3270(14)
H5 H 0.351302 0.372865 0.335306
O5 O 0.7873(11) 0.9089(5) 0.0149(10)
O6 O 0.9907(11) 0.9033(5) 0.1480(11)
O7 O 0.8193(9) 0.5915(5) 0.4507(9)
C15 C 0.8542(17) 0.8800(8) 0.1056(14)
C16 C 0.7771(12) 0.8082(7) 0.1652(15)
C17 C 0.6237(13) 0.7923(8) 0.1407(14)
H8 H 0.571868 0.831503 0.093484
C18 C 0.5414(18) 0.7225(8) 0.1814(14)
H9 H 0.437172 0.716561 0.166584
C19 C 0.6259(12) 0.6609(7) 0.2466(11)
C20 C 0.7867(12) 0.6770(8) 0.2836(12)
C21 C 0.8562(12) 0.7489(6) 0.2382(11)
H10 H 0.958669 0.758869 0.256245
C22 C 0.8777(13) 0.6157(7) 0.3600(14)
C23 C 0.5564(14) 0.5775(7) 0.2868(13)
C24 C 0.4057(15) 0.5762(8) 0.3270(14)
H11 H 0.351302 0.627135 0.335306
O24 O 0.9964(9) 0.4074(5) 0.6707(9)
O25 O 0.9964(9) 0.5926(5) 0.6707(9)
N6 N 0.6578(16) 0.500000 0.6468(14)
N2 N 0.722(2) 0.000000 0.7709(17)
C12 C 0.686(2) 0.0702(11) 0.7131(18)
H6 H 0.716473 0.122047 0.746282
C13 C 0.600(3) 0.0759(13) 0.600(2)
H7 H 0.590580 0.127490 0.560112
C14 C 0.537(4) 0.000000 0.558(3)
N3 N 0.278(2) -0.000000 0.2291(17)
C25 C 0.314(2) 0.0702(11) 0.2869(18)
H12 H 0.283527 0.122047 0.253718
C26 C 0.400(3) 0.0759(13) 0.400(2)
H13 H 0.409420 0.127490 0.439888
C27 C 0.463(4) 0.000000 0.442(3)
Zn11_2 Zn 0.87447(17) 1.000000 0.91006(17)
O9 O 0.2127(11) 0.0911(5) 0.9851(10)
O11 O 0.1807(9) 0.4085(5) 0.5493(9)
C32 C 0.1458(17) 0.1200(8) 0.8944(14)
C33 C 0.2229(12) 0.1918(7) 0.8348(15)
C34 C 0.3763(13) 0.2077(8) 0.8593(14)
H18 H 0.428132 0.168497 0.906516
C35 C 0.4586(18) 0.2775(8) 0.8186(14)
H19 H 0.562828 0.283439 0.833416
C36 C 0.3741(12) 0.3391(7) 0.7534(11)
C37 C 0.2133(12) 0.3230(8) 0.7164(12)
C38 C 0.1438(12) 0.2511(6) 0.7618(11)
H20 H 0.041331 0.241131 0.743755
C39 C 0.1223(13) 0.3843(7) 0.6400(14)
C40 C 0.4436(14) 0.4225(7) 0.7132(13)
C41 C 0.3724(16) 0.500000 0.7426(14)
H21 H 0.280173 0.500001 0.780602
C42 C 0.5943(15) 0.4238(8) 0.6730(14)
H22 H 0.648698 0.372865 0.664694
O13 O 0.2127(11) 0.9089(5) 0.9851(10)
O15 O 0.1807(9) 0.5915(5) 0.5493(9)
C43 C 0.1458(17) 0.8800(8) 0.8944(14)
C44 C 0.2229(12) 0.8082(7) 0.8348(15)
C45 C 0.3763(13) 0.7923(8) 0.8593(14)
H23 H 0.428132 0.831503 0.906516
C46 C 0.4586(18) 0.7225(8) 0.8186(14)
H24 H 0.562828 0.716561 0.833416
C47 C 0.3741(12) 0.6609(7) 0.7534(11)
C48 C 0.2133(12) 0.6770(8) 0.7164(12)
C49 C 0.1438(12) 0.7489(6) 0.7618(11)
H25 H 0.041331 0.758869 0.743755
C50 C 0.1223(13) 0.6157(7) 0.6400(14)
C51 C 0.4436(14) 0.5775(7) 0.7132(13)
C52 C 0.5943(15) 0.5762(8) 0.6730(14)
H26 H 0.648698 0.627135 0.664694
N2_2 N 0.722(2) 1.000000 0.7709(17)
C14_2 C 0.537(4) 1.000000 0.558(3)
N3_2 N 0.278(2) 1.000000 0.2291(17)
C27_2 C 0.463(4) 1.000000 0.442(3)
C28 C 0.314(2) 0.9298(11) 0.2869(18)
H14 H 0.283527 0.877953 0.253718
C29 C 0.400(3) 0.9241(13) 0.400(2)
H15 H 0.409420 0.872510 0.439888
C30 C 0.686(2) 0.9298(11) 0.7131(18)
H16 H 0.716473 0.877953 0.746282
C31 C 0.600(3) 0.9241(13) 0.600(2)
H17 H 0.590580 0.872510 0.560112
loop_
_geom_bond_atom_site_label_1
_geom_bond_atom_site_label_2
_geom_bond_site_symmetry_1
_geom_bond_site_symmetry_2
Zn8 O4 1_555 1_555
O8 Zn8 1_555 1_555
Zn1 O3 1_555 1_555
O1 C1 1_555 1_555
O2 C1 1_555 1_555
O3 C8 1_555 1_555
N1 C11 1_555 1_555
C1 C2 1_555 1_555
C2 C3 1_555 1_555
C3 H1 1_555 1_555
C4 C3 1_555 1_555
H2 C4 1_555 1_555
C5 C4 1_555 1_555
C6 C5 1_555 1_555
C7 C2 1_555 1_555
H3 C7 1_555 1_555
C8 C6 1_555 1_555
C9 C5 1_555 1_555
C10 C9 1_555 1_555
H4 C10 1_555 1_555
C11 C9 1_555 1_555
H5 C11 1_555 1_555
O5 C15 1_555 1_555
O6 C15 1_555 1_555
O7 Zn1 1_555 1_555
C15 C16 1_555 1_555
C16 C17 1_555 1_555
C17 H8 1_555 1_555
C18 C17 1_555 1_555
H9 C18 1_555 1_555
C19 C18 1_555 1_555
C20 C19 1_555 1_555
C21 C16 1_555 1_555
H10 C21 1_555 1_555
C22 O7 1_555 1_555
C23 C10 1_555 1_555
C24 N1 1_555 1_555
H11 C24 1_555 1_555
Zn8 N1 1_555 1_555
O24 Zn1 1_555 1_555
O25 Zn1 1_555 1_555
N6 Zn1 1_555 1_555
C6 C7 1_555 1_555
C19 C23 1_555 1_555
C20 C21 1_555 1_555
C20 C22 1_555 1_555
C23 C24 1_555 1_555
N2 Zn11 1_555 1_555
C12 N2 1_555 1_555
H6 C12 1_555 1_555
C13 C12 1_555 1_555
H7 C13 1_555 1_555
C14 C13 1_555 1_555
N3 C25 1_555 1_555
C25 H12 1_555 1_555
C26 C25 1_555 1_555
H13 C26 1_555 1_555
C27 C14 1_555 1_555
Zn14 N3 1_555 1_555
C26 C27 1_555 1_555
Zn8 O11 1_555 1_555
O20 C32 1_555 1_555
O11 C39 1_555 1_555
N6 C42 1_555 1_555
C32 O9 1_555 1_555
C33 C32 1_555 1_555
C34 C33 1_555 1_555
H18 C34 1_555 1_555
C35 C34 1_555 1_555
H19 C35 1_555 1_555
C36 C35 1_555 1_555
C37 C36 1_555 1_555
C38 C33 1_555 1_555
H20 C38 1_555 1_555
C39 C37 1_555 1_555
C40 C36 1_555 1_555
C41 C40 1_555 1_555
H21 C41 1_555 1_555
C42 C40 1_555 1_555
H22 C42 1_555 1_555
O13 C43 1_555 1_555
O21 C43 1_555 1_555
O15 Zn8 1_555 1_555
C43 C44 1_555 1_555
C44 C45 1_555 1_555
C45 H23 1_555 1_555
C46 C45 1_555 1_555
H24 C46 1_555 1_555
C47 C46 1_555 1_555
C48 C47 1_555 1_555
C49 C44 1_555 1_555
H25 C49 1_555 1_555
C50 O15 1_555 1_555
C51 C41 1_555 1_555
C52 N6 1_555 1_555
H26 C52 1_555 1_555
C37 C38 1_555 1_555
C47 C51 1_555 1_555
C48 C49 1_555 1_555
C48 C50 1_555 1_555
C51 C52 1_555 1_555
N2_2 Zn11_2 1_555 1_555
C27_2 C14_2 1_555 1_555
C28 N3_2 1_555 1_555
H14 C28 1_555 1_555
C29 C27_2 1_555 1_555
H15 C29 1_555 1_555
C30 N2_2 1_555 1_555
H16 C30 1_555 1_555
C31 C14_2 1_555 1_555
H17 C31 1_555 1_555
Zn14_2 N3_2 1_555 1_555
C28 C29 1_555 1_555
C30 C31 1_555 1_555

#END
