
###############################################################################
#
# This file contains modified crystal structure data generated from the
# MOF subset of the Cambridge Structural Database (CSD) v543 
# hosted by the Cambridge Crystallographic Data Centre (CCDC).
#
# This work is licensed under the Creative Commons
# Attribution-NonCommercial-ShareAlike 4.0 International License.
# To view a copy of this license, visit
# http://creativecommons.org/licenses/by-nc-sa/4.0/
# or send a letter to
# Creative Commons, PO Box 1866, Mountain View, CA 94042, USA.
#
# CIF created using the CSD Python API on 29 September 2022
# The structure has been converted into the P1 space group
# The structure has a 3D framework
# The original CSD entry SUPKUM is in the rhombohedral crystal system
# The framework has been calculated to contain at least 10.0% void space
# The void calculation uses a probe of radius 1.32A, grid spacing 0.4
#
###############################################################################

data_SUPKUM
_chemical_formula_moiety         '(C54 H18 Cl12 Co32 N68)n'
_symmetry_cell_setting           triclinic
_symmetry_space_group_name_H-M   'P 1'
_symmetry_Int_Tables_number      1
_space_group_name_Hall           'P 1'
loop_
_symmetry_equiv_pos_site_id
_symmetry_equiv_pos_as_xyz
1 x,y,z
_cell_length_a                   24.80524(58)
_cell_length_b                   24.80524(58)
_cell_length_c                   8.17405(19)
_cell_angle_alpha                90
_cell_angle_beta                 90
_cell_angle_gamma                120
_cell_volume                     4355.67
loop_
_atom_site_label
_atom_site_type_symbol
_atom_site_fract_x
_atom_site_fract_y
_atom_site_fract_z
_atom_site_U_iso_or_equiv
_atom_site_thermal_displace_type
Co1 Co 0.379690(76) 0.333333 0.333333 0.0469 Uiso
Cl1 Cl 0.33333(18) 0.24432(13) 0.166667 0.0480 Uiso
N1 N 0.25577(35) 0.31268(21) 0.20952(67) 0.0063 Uiso
N2 N 0.29604(35) 0.333333 0.333333 0.0063 Uiso
C1 C 0.20650(36) 0.31867(23) 0.25638(38) 0.0063 Uiso
C2 C 0.15248(68) 0.30496(45) 0.17471(91) 0.0063 Uiso
H1 H 0.1422 0.2845 0.05282 0.0063 Uiso
N3 N 0.05691(41) 0.31268(21) 0.20952(67) 0.0063 Uiso
N4 N 0.03729(35) 0.333333 0.333333 0.0063 Uiso
C3 C 0.11217(43) 0.31867(23) 0.25638(38) 0.0063 Uiso
N5 N 0.07756(35) 0.35399(21) 0.45715(67) 0.0063 Uiso
C4 C 0.12683(36) 0.34800(23) 0.41029(38) 0.0063 Uiso
C5 C 0.18085(68) 0.36171(45) 0.49196(91) 0.0063 Uiso
H2 H 0.1911 0.3822 0.61385 0.0063 Uiso
N6 N 0.27642(41) 0.35399(21) 0.45715(67) 0.0063 Uiso
C6 C 0.22116(43) 0.34800(23) 0.41029(38) 0.0063 Uiso
Co3 Co 0.333333 0.379690(76) 0.666667 0.0469 Uiso
Co4 Co 0.046357(76) 0.379690(76) 0.666667 0.0469 Uiso
Co5 Co 0.286977(76) 0.286976(76) 0.000000 0.0469 Uiso
Co6 Co -0.000000 0.286976(76) 0.000000 0.0469 Uiso
Cl3 Cl 0.42235(13) 0.42234(22) 0.500000 0.0480 Uiso
Cl4 Cl -0.00000(18) 0.42234(22) 0.500000 0.0480 Uiso
N7 N 0.41090(35) 0.39024(41) 0.12381(67) 0.0063 Uiso
N8 N 0.35399(21) 0.27642(41) 0.54285(67) 0.0063 Uiso
Co5_2 Co 0.286977(76) 0.286976(76) 1.000000 0.0469 Uiso
Co6_2 Co -0.000000 0.286976(76) 1.000000 0.0469 Uiso
Co2 Co 0.953643(76) 0.333333 0.333333 0.0469 Uiso
Cl2 Cl 0.91099(22) 0.24432(13) 0.166667 0.0480 Uiso
Co6_3 Co 1.000000 0.286976(76) 0.000000 0.0469 Uiso
Cl4_2 Cl 1.00000(18) 0.42234(22) 0.500000 0.0480 Uiso
N9 N 0.97935(21) 0.39024(41) 0.12381(67) 0.0063 Uiso
N10 N 0.92244(35) 0.27642(41) 0.54285(67) 0.0063 Uiso
Co6_4 Co 1.000000 0.286976(76) 1.000000 0.0469 Uiso
Cl2_2 Cl 0.08901(22) 0.33333(26) 0.833333 0.0480 Uiso
N9_2 N 0.02065(21) 0.41090(46) 0.87619(67) 0.0063 Uiso
Co5_3 Co 0.713023(76) -0.00000(11) -0.000000 0.0469 Uiso
N1_2 N 0.74423(35) 0.05691(41) 0.79048(67) 0.0063 Uiso
N2_2 N 0.70396(35) 0.03729(35) 0.666667 0.0063 Uiso
C1_2 C 0.79350(36) 0.11217(43) 0.74362(38) 0.0063 Uiso
C2_2 C 0.84752(68) 0.15248(82) 0.82529(91) 0.0063 Uiso
H1_2 H 0.8578 0.1423 0.94718 0.0063 Uiso
N3_2 N 0.94309(41) 0.25577(46) 0.79048(67) 0.0063 Uiso
N4_2 N 0.96271(35) 0.29604(35) 0.666667 0.0063 Uiso
C3_2 C 0.88783(43) 0.20650(49) 0.74362(38) 0.0063 Uiso
C4_2 C 0.87317(36) 0.22116(43) 0.58971(38) 0.0063 Uiso
C5_2 C 0.81915(68) 0.18085(82) 0.50804(91) 0.0063 Uiso
H2_2 H 0.8089 0.1910 0.38615 0.0063 Uiso
N6_2 N 0.72358(41) 0.07756(46) 0.54285(67) 0.0063 Uiso
C6_2 C 0.77884(43) 0.12683(49) 0.58971(38) 0.0063 Uiso
Co3_2 Co 0.666667 0.046357(76) 0.333333 0.0469 Uiso
Co5_4 Co 0.713023(76) -0.00000(11) 1.000000 0.0469 Uiso
Cl3_2 Cl 0.57765(13) -0.00000(26) 0.500000 0.0480 Uiso
Co5_5 Co 0.713023(76) 1.00000(11) -0.000000 0.0469 Uiso
Co1_2 Co 0.620310(76) 0.953643(76) 0.666667 0.0469 Uiso
Cl1_2 Cl 0.66667(18) 0.91099(22) 0.833333 0.0480 Uiso
Co5_6 Co 0.713023(76) 1.00000(11) 1.000000 0.0469 Uiso
Cl3_3 Cl 0.57765(13) 1.00000(26) 0.500000 0.0480 Uiso
N7_2 N 0.58910(35) 0.97935(54) 0.87619(67) 0.0063 Uiso
N8_2 N 0.64601(21) 0.92244(46) 0.45715(67) 0.0063 Uiso
Co2_2 Co 0.379690(76) 0.046357(76) 0.333333 0.0469 Uiso
Cl2_3 Cl 0.33333(26) 0.08901(22) 0.166667 0.0480 Uiso
Co6_5 Co 0.286977(76) 0.000000 0.000000 0.0469 Uiso
Cl4_3 Cl 0.42235(28) 0.00000(18) 0.500000 0.0480 Uiso
N9_3 N 0.41090(46) 0.02065(21) 0.12381(67) 0.0063 Uiso
N10_2 N 0.35399(54) 0.07756(35) 0.54285(67) 0.0063 Uiso
Co6_6 Co 0.286977(76) 0.000000 1.000000 0.0469 Uiso
N1_3 N 0.05691(41) 0.74423(35) 0.20952(67) 0.0063 Uiso
N2_3 N 0.03729(35) 0.70396(35) 0.333333 0.0063 Uiso
C1_3 C 0.11217(43) 0.79350(36) 0.25638(38) 0.0063 Uiso
C2_3 C 0.15248(82) 0.84752(68) 0.17471(91) 0.0063 Uiso
H1_3 H 0.1423 0.8578 0.05282 0.0063 Uiso
N3_3 N 0.25577(46) 0.94309(41) 0.20952(67) 0.0063 Uiso
N4_3 N 0.29604(35) 0.96271(35) 0.333333 0.0063 Uiso
C3_3 C 0.20650(49) 0.88783(43) 0.25638(38) 0.0063 Uiso
N5_2 N 0.27642(41) 0.92244(35) 0.45715(67) 0.0063 Uiso
C4_3 C 0.22116(43) 0.87317(36) 0.41029(38) 0.0063 Uiso
C5_3 C 0.18085(82) 0.81915(68) 0.49196(91) 0.0063 Uiso
H2_3 H 0.1910 0.8089 0.61385 0.0063 Uiso
N6_3 N 0.07756(46) 0.72358(41) 0.45715(67) 0.0063 Uiso
C6_3 C 0.12683(49) 0.77884(43) 0.41029(38) 0.0063 Uiso
Co3_3 Co 0.046357(76) 0.666667 0.666667 0.0469 Uiso
Co4_2 Co 0.33333(11) 0.953643(76) 0.666667 0.0469 Uiso
Co5_7 Co -0.00000(11) 0.713023(76) 0.000000 0.0469 Uiso
Co6_7 Co 0.286977(76) 1.000000 0.000000 0.0469 Uiso
Cl3_4 Cl -0.00000(26) 0.57765(13) 0.500000 0.0480 Uiso
Cl4_4 Cl 0.42235(28) 1.00000(18) 0.500000 0.0480 Uiso
Co5_8 Co -0.00000(11) 0.713023(76) 1.000000 0.0469 Uiso
Co6_8 Co 0.286977(76) 1.000000 1.000000 0.0469 Uiso
Co1_3 Co 0.953643(76) 0.620310(76) 0.333333 0.0469 Uiso
Cl1_3 Cl 0.91099(22) 0.66667(18) 0.166667 0.0480 Uiso
Co5_9 Co 1.00000(11) 0.713023(76) 0.000000 0.0469 Uiso
Cl3_5 Cl 1.00000(26) 0.57765(13) 0.500000 0.0480 Uiso
N7_3 N 0.97935(54) 0.58910(35) 0.12381(67) 0.0063 Uiso
N8_3 N 0.92244(46) 0.64601(21) 0.54285(67) 0.0063 Uiso
Co5_10 Co 1.00000(11) 0.713023(76) 1.000000 0.0469 Uiso
Cl1_4 Cl 0.75568(13) 0.08901(22) 0.166667 0.0480 Uiso
N7_4 N 0.60976(41) 0.02065(54) 0.12381(67) 0.0063 Uiso
N1_4 N 0.68732(21) 0.94309(41) 0.20952(67) 0.0063 Uiso
N2_4 N 0.666667 0.96271(35) 0.333333 0.0063 Uiso
C1_4 C 0.68133(23) 0.88783(43) 0.25638(38) 0.0063 Uiso
C2_4 C 0.69504(45) 0.84752(82) 0.17471(91) 0.0063 Uiso
H1_4 H 0.7155 0.8577 0.05282 0.0063 Uiso
N3_4 N 0.68732(21) 0.74423(46) 0.20952(67) 0.0063 Uiso
N4_4 N 0.666667 0.70396(35) 0.333333 0.0063 Uiso
C3_4 C 0.68133(23) 0.79350(49) 0.25638(38) 0.0063 Uiso
N5_3 N 0.64601(21) 0.72358(41) 0.45715(67) 0.0063 Uiso
C4_4 C 0.65200(23) 0.77884(43) 0.41029(38) 0.0063 Uiso
C5_4 C 0.63829(45) 0.81915(82) 0.49196(91) 0.0063 Uiso
H2_4 H 0.6178 0.8090 0.61385 0.0063 Uiso
C6_4 C 0.65200(23) 0.87317(49) 0.41029(38) 0.0063 Uiso
Co2_3 Co 0.666667 0.620310(76) 0.333333 0.0469 Uiso
Cl2_4 Cl 0.75568(13) 0.66667(26) 0.166667 0.0480 Uiso
Co4_3 Co 0.620310(76) 0.66667(11) 0.666667 0.0469 Uiso
Co6_9 Co 0.713024(76) 0.713023(76) 0.000000 0.0469 Uiso
Cl4_5 Cl 0.57766(22) 0.57765(28) 0.500000 0.0480 Uiso
N9_4 N 0.60976(41) 0.58910(46) 0.12381(67) 0.0063 Uiso
N10_3 N 0.72358(41) 0.64601(54) 0.54285(67) 0.0063 Uiso
Co6_10 Co 0.713024(76) 0.713023(76) 1.000000 0.0469 Uiso
Cl1_5 Cl 0.24432(13) 0.33333(18) 0.833333 0.0480 Uiso
N1_5 N 0.31268(21) 0.25577(35) 0.79048(67) 0.0063 Uiso
N2_5 N 0.333333 0.29604(35) 0.666667 0.0063 Uiso
C1_5 C 0.31867(23) 0.20650(36) 0.74362(38) 0.0063 Uiso
C2_5 C 0.30496(45) 0.15248(68) 0.82529(91) 0.0063 Uiso
H1_5 H 0.2845 0.1422 0.94718 0.0063 Uiso
N3_5 N 0.31268(21) 0.05691(41) 0.79048(67) 0.0063 Uiso
N4_5 N 0.333333 0.03729(35) 0.666667 0.0063 Uiso
C3_5 C 0.31867(23) 0.11217(43) 0.74362(38) 0.0063 Uiso
C4_5 C 0.34800(23) 0.12683(36) 0.58971(38) 0.0063 Uiso
C5_5 C 0.36171(45) 0.18085(68) 0.50804(91) 0.0063 Uiso
H2_5 H 0.3822 0.1911 0.38615 0.0063 Uiso
C6_5 C 0.34800(23) 0.22116(43) 0.58971(38) 0.0063 Uiso
N7_5 N 0.39024(41) 0.41090(35) 0.87619(67) 0.0063 Uiso
Cl2_5 Cl 0.24432(13) 0.91099(22) 0.833333 0.0480 Uiso
N9_5 N 0.39024(41) 0.97935(21) 0.87619(67) 0.0063 Uiso
Cl1_6 Cl 0.08901(22) 0.75568(13) 0.833333 0.0480 Uiso
N7_6 N 0.02065(54) 0.60976(41) 0.87619(67) 0.0063 Uiso
N1_6 N 0.94309(41) 0.68732(21) 0.79048(67) 0.0063 Uiso
N2_6 N 0.96271(35) 0.666667 0.666667 0.0063 Uiso
C1_6 C 0.88783(43) 0.68133(23) 0.74362(38) 0.0063 Uiso
C2_6 C 0.84752(82) 0.69504(45) 0.82529(91) 0.0063 Uiso
H1_6 H 0.8577 0.7155 0.94718 0.0063 Uiso
N3_6 N 0.74423(46) 0.68732(21) 0.79048(67) 0.0063 Uiso
N4_6 N 0.70396(35) 0.666667 0.666667 0.0063 Uiso
C3_6 C 0.79350(49) 0.68133(23) 0.74362(38) 0.0063 Uiso
C4_6 C 0.77884(43) 0.65200(23) 0.58971(38) 0.0063 Uiso
C5_6 C 0.81915(82) 0.63829(45) 0.50804(91) 0.0063 Uiso
H2_6 H 0.8090 0.6178 0.38615 0.0063 Uiso
C6_6 C 0.87317(49) 0.65200(23) 0.58971(38) 0.0063 Uiso
Cl2_6 Cl 0.66667(26) 0.75568(13) 0.833333 0.0480 Uiso
N9_6 N 0.58910(46) 0.60976(41) 0.87619(67) 0.0063 Uiso
N2_7 N 0.37063(35) 0.37063(35) 0.000000 0.0063 Uiso
C1_7 C 0.46017(36) 0.44550(43) 0.07695(38) 0.0063 Uiso
C2_7 C 0.51419(68) 0.48581(82) 0.15862(91) 0.0063 Uiso
H1_7 H 0.5245 0.4756 0.28051 0.0063 Uiso
N4_7 N 0.62937(35) 0.62937(35) 0.000000 0.0063 Uiso
C3_7 C 0.55450(43) 0.53983(49) 0.07695(38) 0.0063 Uiso
N2_8 N 0.37063(35) 0.37063(35) 1.000000 0.0063 Uiso
N4_8 N 0.62937(35) 0.62937(35) 1.000000 0.0063 Uiso
C4_7 C 0.53983(36) 0.55450(43) 0.92305(38) 0.0063 Uiso
C5_7 C 0.48581(68) 0.51419(82) 0.84138(91) 0.0063 Uiso
H2_7 H 0.4755 0.5244 0.71949 0.0063 Uiso
C6_7 C 0.44550(43) 0.46017(49) 0.92305(38) 0.0063 Uiso
N2_9 N -0.000000 0.62937(35) 0.000000 0.0063 Uiso
N4_9 N -0.000000 0.37063(35) 0.000000 0.0063 Uiso
N2_10 N -0.000000 0.62937(35) 1.000000 0.0063 Uiso
N4_10 N -0.000000 0.37063(35) 1.000000 0.0063 Uiso
C4_8 C 0.01466(23) 0.46017(36) 0.92305(38) 0.0063 Uiso
C5_8 C 0.02837(45) 0.51419(68) 0.84138(91) 0.0063 Uiso
H2_8 H 0.0488 0.5245 0.71949 0.0063 Uiso
C6_8 C 0.01466(23) 0.55450(43) 0.92305(38) 0.0063 Uiso
N2_11 N 1.000000 0.62937(35) 0.000000 0.0063 Uiso
C1_8 C 0.98534(23) 0.53983(36) 0.07695(38) 0.0063 Uiso
C2_8 C 0.97163(45) 0.48581(68) 0.15862(91) 0.0063 Uiso
H1_8 H 0.9512 0.4755 0.28051 0.0063 Uiso
N4_11 N 1.000000 0.37063(35) 0.000000 0.0063 Uiso
C3_8 C 0.98534(23) 0.44550(43) 0.07695(38) 0.0063 Uiso
N2_12 N 1.000000 0.62937(35) 1.000000 0.0063 Uiso
N4_12 N 1.000000 0.37063(35) 1.000000 0.0063 Uiso
N2_13 N 0.62937(35) 0.000000 0.000000 0.0063 Uiso
C1_9 C 0.55450(43) 0.01466(23) 0.07695(38) 0.0063 Uiso
C2_9 C 0.51419(82) 0.02837(45) 0.15862(91) 0.0063 Uiso
H1_9 H 0.5244 0.0488 0.28051 0.0063 Uiso
N4_13 N 0.37063(35) 0.000000 0.000000 0.0063 Uiso
C3_9 C 0.46017(49) 0.01466(23) 0.07695(38) 0.0063 Uiso
N2_14 N 0.62937(35) 0.000000 1.000000 0.0063 Uiso
N4_14 N 0.37063(35) 0.000000 1.000000 0.0063 Uiso
N2_15 N 0.62937(35) 1.000000 0.000000 0.0063 Uiso
N4_15 N 0.37063(35) 1.000000 0.000000 0.0063 Uiso
N2_16 N 0.62937(35) 1.000000 1.000000 0.0063 Uiso
N4_16 N 0.37063(35) 1.000000 1.000000 0.0063 Uiso
C4_9 C 0.44550(43) 0.98534(23) 0.92305(38) 0.0063 Uiso
C5_9 C 0.48581(82) 0.97163(45) 0.84138(91) 0.0063 Uiso
H2_9 H 0.4756 0.9512 0.71949 0.0063 Uiso
C6_9 C 0.53983(49) 0.98534(23) 0.92305(38) 0.0063 Uiso
loop_
_geom_bond_atom_site_label_1
_geom_bond_atom_site_label_2
_geom_bond_site_symmetry_1
_geom_bond_site_symmetry_2
Co1 Cl1 1_555 1_555
Cl1 Co5 1_555 1_555
N1 N2 1_555 1_555
N2 Co1 1_555 1_555
C1 N1 1_555 1_555
C2 C1 1_555 1_555
H1 C2 1_555 1_555
N3 N4 1_555 1_555
N4 N5 1_555 1_555
C3 C2 1_555 1_555
N5 C4 1_555 1_555
C4 C3 1_555 1_555
C5 C4 1_555 1_555
H2 C5 1_555 1_555
N6 N2 1_555 1_555
C6 C1 1_555 1_555
Co3 N6 1_555 1_555
Co4 N5 1_555 1_555
Co5 N1 1_555 1_555
Co6 N3 1_555 1_555
Cl3 Co1 1_555 1_555
N7 Co1 1_555 1_555
N8 Co1 1_555 1_555
N3 C3 1_555 1_555
C5 C6 1_555 1_555
N6 C6 1_555 1_555
Co3 Cl3 1_555 1_555
Co4 Cl4 1_555 1_555
Cl2 Co2 1_555 1_555
Cl4_2 Co2 1_555 1_555
N9 Co2 1_555 1_555
N10 Co2 1_555 1_555
Cl2 Co6_3 1_555 1_555
Cl2_2 Co4 1_555 1_555
N9_2 Co4 1_555 1_555
Cl2_2 Co6_2 1_555 1_555
N1_2 N2_2 1_555 1_555
C1_2 N1_2 1_555 1_555
C2_2 C1_2 1_555 1_555
H1_2 C2_2 1_555 1_555
N3_2 N4_2 1_555 1_555
N4_2 N10 1_555 1_555
C3_2 C2_2 1_555 1_555
N10 C4_2 1_555 1_555
C4_2 C3_2 1_555 1_555
C5_2 C4_2 1_555 1_555
H2_2 C5_2 1_555 1_555
N6_2 N2_2 1_555 1_555
C6_2 C1_2 1_555 1_555
Co3_2 N6_2 1_555 1_555
Co5_4 N1_2 1_555 1_555
Co6_4 N3_2 1_555 1_555
N3_2 C3_2 1_555 1_555
C5_2 C6_2 1_555 1_555
N6_2 C6_2 1_555 1_555
Co3_2 Cl3_2 1_555 1_555
Co1_2 Cl1_2 1_555 1_555
Cl1_2 Co5_6 1_555 1_555
Cl3_3 Co1_2 1_555 1_555
N7_2 Co1_2 1_555 1_555
N8_2 Co1_2 1_555 1_555
Cl2_3 Co2_2 1_555 1_555
Cl4_3 Co2_2 1_555 1_555
N9_3 Co2_2 1_555 1_555
N10_2 Co2_2 1_555 1_555
Cl2_3 Co6_5 1_555 1_555
N1_3 N2_3 1_555 1_555
C1_3 N1_3 1_555 1_555
C2_3 C1_3 1_555 1_555
H1_3 C2_3 1_555 1_555
N3_3 N4_3 1_555 1_555
N4_3 N5_2 1_555 1_555
C3_3 C2_3 1_555 1_555
N5_2 C4_3 1_555 1_555
C4_3 C3_3 1_555 1_555
C5_3 C4_3 1_555 1_555
H2_3 C5_3 1_555 1_555
N6_3 N2_3 1_555 1_555
C6_3 C1_3 1_555 1_555
Co3_3 N6_3 1_555 1_555
Co4_2 N5_2 1_555 1_555
Co5_7 N1_3 1_555 1_555
Co6_7 N3_3 1_555 1_555
N3_3 C3_3 1_555 1_555
C5_3 C6_3 1_555 1_555
N6_3 C6_3 1_555 1_555
Co3_3 Cl3_4 1_555 1_555
Co4_2 Cl4_4 1_555 1_555
Co1_3 Cl1_3 1_555 1_555
Cl1_3 Co5_9 1_555 1_555
Cl3_5 Co1_3 1_555 1_555
N7_3 Co1_3 1_555 1_555
N8_3 Co1_3 1_555 1_555
Co3_2 Cl1_4 1_555 1_555
Cl1_4 Co5_3 1_555 1_555
N7_4 Co3_2 1_555 1_555
N1_4 N2_4 1_555 1_555
C1_4 N1_4 1_555 1_555
C2_4 C1_4 1_555 1_555
H1_4 C2_4 1_555 1_555
N3_4 N4_4 1_555 1_555
N4_4 N5_3 1_555 1_555
C3_4 C2_4 1_555 1_555
N5_3 C4_4 1_555 1_555
C4_4 C3_4 1_555 1_555
C5_4 C4_4 1_555 1_555
H2_4 C5_4 1_555 1_555
N8_2 N2_4 1_555 1_555
C6_4 C1_4 1_555 1_555
Co2_3 N4_4 1_555 1_555
Cl2_4 Co2_3 1_555 1_555
Co4_3 N5_3 1_555 1_555
Co5_5 N1_4 1_555 1_555
Co6_9 N3_4 1_555 1_555
Cl4_5 Co2_3 1_555 1_555
N9_4 Co2_3 1_555 1_555
N10_3 Co2_3 1_555 1_555
N3_4 C3_4 1_555 1_555
C5_4 C6_4 1_555 1_555
N8_2 C6_4 1_555 1_555
Cl2_4 Co6_9 1_555 1_555
Co4_3 Cl4_5 1_555 1_555
Co3 Cl1_5 1_555 1_555
Cl1_5 Co5_2 1_555 1_555
N1_5 N2_5 1_555 1_555
N2_5 Co3 1_555 1_555
C1_5 N1_5 1_555 1_555
C2_5 C1_5 1_555 1_555
H1_5 C2_5 1_555 1_555
N3_5 N4_5 1_555 1_555
N4_5 N10_2 1_555 1_555
C3_5 C2_5 1_555 1_555
N10_2 C4_5 1_555 1_555
C4_5 C3_5 1_555 1_555
C5_5 C4_5 1_555 1_555
H2_5 C5_5 1_555 1_555
N8 N2_5 1_555 1_555
C6_5 C1_5 1_555 1_555
Co5_2 N1_5 1_555 1_555
Co6_6 N3_5 1_555 1_555
N7_5 Co3 1_555 1_555
N3_5 C3_5 1_555 1_555
C5_5 C6_5 1_555 1_555
N8 C6_5 1_555 1_555
Cl2_5 Co4_2 1_555 1_555
N9_5 Co4_2 1_555 1_555
Cl2_5 Co6_8 1_555 1_555
Co3_3 Cl1_6 1_555 1_555
Cl1_6 Co5_8 1_555 1_555
N7_6 Co3_3 1_555 1_555
N1_6 N2_6 1_555 1_555
C1_6 N1_6 1_555 1_555
C2_6 C1_6 1_555 1_555
H1_6 C2_6 1_555 1_555
N3_6 N4_6 1_555 1_555
N4_6 N10_3 1_555 1_555
C3_6 C2_6 1_555 1_555
N10_3 C4_6 1_555 1_555
C4_6 C3_6 1_555 1_555
C5_6 C4_6 1_555 1_555
H2_6 C5_6 1_555 1_555
N8_3 N2_6 1_555 1_555
C6_6 C1_6 1_555 1_555
Co4_3 N4_6 1_555 1_555
Cl2_6 Co4_3 1_555 1_555
Co5_10 N1_6 1_555 1_555
Co6_10 N3_6 1_555 1_555
N9_6 Co4_3 1_555 1_555
N3_6 C3_6 1_555 1_555
C5_6 C6_6 1_555 1_555
N8_3 C6_6 1_555 1_555
Cl2_6 Co6_10 1_555 1_555
N7 N2_7 1_555 1_555
N2_7 Co5 1_555 1_555
C1_7 N7 1_555 1_555
C2_7 C1_7 1_555 1_555
H1_7 C2_7 1_555 1_555
N9_4 N4_7 1_555 1_555
C3_7 C2_7 1_555 1_555
Co6_9 N4_7 1_555 1_555
N9_4 C3_7 1_555 1_555
N2_8 Co5_2 1_555 1_555
N4_8 N9_6 1_555 1_555
N9_6 C4_7 1_555 1_555
C5_7 C4_7 1_555 1_555
H2_7 C5_7 1_555 1_555
N7_5 N2_8 1_555 1_555
Co6_10 N4_8 1_555 1_555
C5_7 C6_7 1_555 1_555
N7_5 C6_7 1_555 1_555
N2_9 Co5_7 1_555 1_555
Co6 N4_9 1_555 1_555
N2_10 Co5_8 1_555 1_555
N4_10 N9_2 1_555 1_555
N9_2 C4_8 1_555 1_555
C5_8 C4_8 1_555 1_555
H2_8 C5_8 1_555 1_555
N7_6 N2_10 1_555 1_555
Co6_2 N4_10 1_555 1_555
C5_8 C6_8 1_555 1_555
N7_6 C6_8 1_555 1_555
N7_3 N2_11 1_555 1_555
N2_11 Co5_9 1_555 1_555
C1_8 N7_3 1_555 1_555
C2_8 C1_8 1_555 1_555
H1_8 C2_8 1_555 1_555
N9 N4_11 1_555 1_555
C3_8 C2_8 1_555 1_555
Co6_3 N4_11 1_555 1_555
N9 C3_8 1_555 1_555
N2_12 Co5_10 1_555 1_555
Co6_4 N4_12 1_555 1_555
N7_4 N2_13 1_555 1_555
N2_13 Co5_3 1_555 1_555
C1_9 N7_4 1_555 1_555
C2_9 C1_9 1_555 1_555
H1_9 C2_9 1_555 1_555
N9_3 N4_13 1_555 1_555
C3_9 C2_9 1_555 1_555
Co6_5 N4_13 1_555 1_555
N9_3 C3_9 1_555 1_555
N2_14 Co5_4 1_555 1_555
Co6_6 N4_14 1_555 1_555
N2_15 Co5_5 1_555 1_555
Co6_7 N4_15 1_555 1_555
N2_16 Co5_6 1_555 1_555
N4_16 N9_5 1_555 1_555
N9_5 C4_9 1_555 1_555
C5_9 C4_9 1_555 1_555
H2_9 C5_9 1_555 1_555
N7_2 N2_16 1_555 1_555
Co6_8 N4_16 1_555 1_555
C5_9 C6_9 1_555 1_555
N7_2 C6_9 1_555 1_555

#END
