
###############################################################################
#
# This file contains modified crystal structure data generated from the
# MOF subset of the Cambridge Structural Database (CSD) v543 
# hosted by the Cambridge Crystallographic Data Centre (CCDC).
#
# This work is licensed under the Creative Commons
# Attribution-NonCommercial-ShareAlike 4.0 International License.
# To view a copy of this license, visit
# http://creativecommons.org/licenses/by-nc-sa/4.0/
# or send a letter to
# Creative Commons, PO Box 1866, Mountain View, CA 94042, USA.
#
# CIF created using the CSD Python API on 29 September 2022
# The structure has been converted into the P1 space group
# The structure has a 3D framework
# The original CSD entry SUQSUV is in the monoclinic crystal system
# The framework has been calculated to contain at least 10.0% void space
# The void calculation uses a probe of radius 1.32A, grid spacing 0.4
#
###############################################################################

data_SUQSUV
_chemical_formula_moiety         '(C56 H28 N8 O29 Tb5)n'
_symmetry_cell_setting           triclinic
_symmetry_space_group_name_H-M   'P 1'
_symmetry_Int_Tables_number      1
_space_group_name_Hall           'P 1'
loop_
_symmetry_equiv_pos_site_id
_symmetry_equiv_pos_as_xyz
1 x,y,z
_cell_length_a                   7.5401(10)
_cell_length_b                   15.3400(14)
_cell_length_c                   16.8317(19)
_cell_angle_alpha                90
_cell_angle_beta                 94.438(5)
_cell_angle_gamma                90
_cell_volume                     1941
loop_
_atom_site_label
_atom_site_type_symbol
_atom_site_fract_x
_atom_site_fract_y
_atom_site_fract_z
Tb2 Tb 0.37371(5) 0.10231(2) 0.46160(2)
N1 N 0.1207(9) 0.0554(4) 0.7065(4)
N2 N 0.4277(9) 0.2140(4) 0.5707(4)
O1 O 0.4206(7) 0.0080(3) 0.5725(3)
H1 H 0.468200 0.041030 0.620824
O2 O 0.0919(7) 0.0769(3) 0.5131(3)
H2 H 0.058490 0.127077 0.546762
O6 O 0.2177(8) 0.2677(3) 0.9304(3)
O7 O 0.6846(7) 0.1405(3) 0.4934(3)
O8 O 0.8959(8) 0.2080(4) 0.5724(4)
O9 O 0.6937(8) 0.3999(3) 0.7948(3)
O10 O 0.4288(8) 0.3572(4) 0.8322(3)
C3 C 0.0941(12) 0.1823(5) 0.8236(5)
C4 C 0.2574(13) 0.1465(6) 0.8090(5)
H4 H 0.362852 0.164919 0.838830
C5 C 0.2650(13) 0.0846(6) 0.7514(6)
H5 H 0.377759 0.060652 0.742304
C7 C 0.5960(12) 0.2342(5) 0.5947(5)
C8 C 0.6407(12) 0.2858(5) 0.6623(5)
H6 H 0.761530 0.298113 0.678717
C9 C 0.5019(12) 0.3187(5) 0.7053(5)
C10 C 0.3291(12) 0.3032(6) 0.6758(5)
H7 H 0.232514 0.326620 0.701897
C11 C 0.2974(12) 0.2529(6) 0.6075(6)
H8 H 0.178145 0.245820 0.585856
C12 C 0.7394(12) 0.1925(5) 0.5507(5)
C13 C 0.5469(12) 0.3624(5) 0.7833(5)
C14 C 0.0857(12) 0.2577(4) 0.8811(5)
Tb4 Tb 0.86632(5) 0.44904(2) 0.90845(2)
Tb6 Tb 0.86632(5) 0.05096(2) 0.40845(2)
Tb9 Tb 0.37371(5) 0.39769(2) 0.96160(2)
O13 O 0.1627(7) 0.0129(3) 0.3751(3)
O15 O 0.2177(8) 0.2323(3) 0.4304(3)
O18 O 0.4288(8) 0.1428(4) 0.3322(3)
Tb1 Tb 0.13368(5) 0.94904(2) 0.59155(2)
Tb8 Tb 0.62629(5) 0.89769(2) 0.53840(2)
O11 O 0.5794(7) 0.9920(3) 0.4275(3)
O14 O 0.0465(8) 0.8079(4) 0.6282(4)
O16 O 0.3154(7) 0.8595(3) 0.5066(3)
O17 O 0.3063(8) 0.8999(3) 0.7052(3)
O4 O 0.6541(8) 0.0681(4) 0.6929(4)
O5 O 0.9535(8) 0.3079(4) 0.8718(4)
C1 C 0.9626(12) 0.0841(5) 0.7248(5)
C2 C 0.9398(12) 0.1485(5) 0.7814(5)
H3 H 0.824656 0.169037 0.791314
C6 C 0.8030(12) 0.0443(5) 0.6787(5)
O3 O 0.8373(7) 0.9871(3) 0.6249(3)
O12 O 0.9081(7) 0.9231(3) 0.4869(3)
Tb5 Tb 0.13368(5) 0.55096(2) 0.09155(2)
O12_2 O 0.0919(7) 0.4231(3) 0.0131(3)
O3_2 O 0.1627(7) 0.4871(3) 0.8751(3)
O4_2 O 0.3459(8) 0.5681(4) 0.8071(4)
C1_2 C 0.0374(12) 0.5841(5) 0.7752(5)
C2_2 C 0.0602(12) 0.6485(5) 0.7186(5)
H3_2 H 0.175344 0.669037 0.708686
C6_2 C 0.1970(12) 0.5443(5) 0.8213(5)
Tb2_2 Tb 0.62629(5) 0.60231(2) 0.03840(2)
O7_2 O 0.3154(7) 0.6405(3) 0.0066(3)
O11_2 O 0.4206(7) 0.4920(3) 0.0725(3)
O13_2 O 0.8373(7) 0.5129(3) 0.1249(3)
O15_2 O 0.7823(8) 0.7323(3) 0.0696(3)
O18_2 O 0.5712(8) 0.6428(4) 0.1678(3)
N1_2 N 0.8793(9) 0.5554(4) 0.7935(4)
N2_2 N 0.5723(9) 0.7140(4) 0.9293(4)
O1_2 O 0.5794(7) 0.5080(3) 0.9275(3)
H1_2 H 0.531800 0.541030 0.879176
O2_2 O 0.9081(7) 0.5769(3) 0.9869(3)
H2_2 H 0.941510 0.627077 0.953238
O6_2 O 0.7823(8) 0.7677(3) 0.5696(3)
O8_2 O 0.1041(8) 0.7080(4) 0.9276(4)
O10_2 O 0.5712(8) 0.8572(4) 0.6678(3)
C3_2 C 0.9059(12) 0.6823(5) 0.6764(5)
C4_2 C 0.7426(13) 0.6465(6) 0.6910(5)
H4_2 H 0.637148 0.664919 0.661170
C5_2 C 0.7350(13) 0.5846(6) 0.7486(6)
H5_2 H 0.622241 0.560652 0.757696
C7_2 C 0.4040(12) 0.7342(5) 0.9053(5)
C8_2 C 0.3593(12) 0.7858(5) 0.8377(5)
H6_2 H 0.238470 0.798113 0.821283
C9_2 C 0.4981(12) 0.8187(5) 0.7947(5)
C10_2 C 0.6709(12) 0.8032(6) 0.8242(5)
H7_2 H 0.767486 0.826620 0.798103
C11_2 C 0.7026(12) 0.7529(6) 0.8925(6)
H8_2 H 0.821855 0.745820 0.914144
C12_2 C 0.2606(12) 0.6925(5) 0.9493(5)
C13_2 C 0.4531(12) 0.8624(5) 0.7167(5)
C14_2 C 0.9143(12) 0.7577(4) 0.6189(5)
O16_2 O 0.6846(7) 0.3595(3) 0.9934(3)
O4_3 O 0.3459(8) 0.9319(4) 0.3071(4)
O5_2 O 0.0465(8) 0.6921(4) 0.1282(4)
C1_3 C 0.0374(12) 0.9159(5) 0.2752(5)
C2_3 C 0.0602(12) 0.8515(5) 0.2186(5)
H3_3 H 0.175344 0.830963 0.208686
C6_3 C 0.1970(12) 0.9557(5) 0.3213(5)
O14_2 O 0.9535(8) 0.1921(4) 0.3718(4)
O17_2 O 0.6937(8) 0.1001(3) 0.2948(3)
N1_3 N 0.8793(9) 0.9446(4) 0.2935(4)
N2_3 N 0.5723(9) 0.7860(4) 0.4293(4)
H1_3 H 0.531800 0.958970 0.379176
H2_3 H 0.941510 0.872923 0.453238
O8_3 O 0.1041(8) 0.7920(4) 0.4276(4)
O9_2 O 0.3063(8) 0.6001(3) 0.2052(3)
C3_3 C 0.9059(12) 0.8177(5) 0.1764(5)
C4_3 C 0.7426(13) 0.8535(6) 0.1910(5)
H4_3 H 0.637148 0.835081 0.161170
C5_3 C 0.7350(13) 0.9154(6) 0.2486(6)
H5_3 H 0.622241 0.939348 0.257696
C7_3 C 0.4040(12) 0.7658(5) 0.4053(5)
C8_3 C 0.3593(12) 0.7142(5) 0.3377(5)
H6_3 H 0.238470 0.701887 0.321283
C9_3 C 0.4981(12) 0.6813(5) 0.2947(5)
C10_3 C 0.6709(12) 0.6968(6) 0.3242(5)
H7_3 H 0.767486 0.673380 0.298103
C11_3 C 0.7026(12) 0.7471(6) 0.3925(6)
H8_3 H 0.821855 0.754180 0.414144
C12_3 C 0.2606(12) 0.8075(5) 0.4493(5)
C13_3 C 0.4531(12) 0.6376(5) 0.2167(5)
C14_3 C 0.9143(12) 0.7423(4) 0.1189(5)
N1_4 N 0.1207(9) 0.4446(4) 0.2065(4)
N2_4 N 0.4277(9) 0.2860(4) 0.0707(4)
H1_4 H 0.468200 0.458970 0.120824
H2_4 H 0.058490 0.372923 0.046762
O8_4 O 0.8959(8) 0.2920(4) 0.0724(4)
C3_4 C 0.0941(12) 0.3177(5) 0.3236(5)
C4_4 C 0.2574(13) 0.3535(6) 0.3090(5)
H4_4 H 0.362852 0.335081 0.338830
C5_4 C 0.2650(13) 0.4154(6) 0.2514(6)
H5_4 H 0.377759 0.439348 0.242304
C7_4 C 0.5960(12) 0.2658(5) 0.0947(5)
C8_4 C 0.6407(12) 0.2142(5) 0.1623(5)
H6_4 H 0.761530 0.201887 0.178717
C9_4 C 0.5019(12) 0.1813(5) 0.2053(5)
C10_4 C 0.3291(12) 0.1968(6) 0.1758(5)
H7_4 H 0.232514 0.173380 0.201897
C11_4 C 0.2974(12) 0.2471(6) 0.1075(6)
H8_4 H 0.178145 0.254180 0.085856
C12_4 C 0.7394(12) 0.3075(5) 0.0507(5)
C13_4 C 0.5469(12) 0.1376(5) 0.2833(5)
C14_4 C 0.0857(12) 0.2423(4) 0.3811(5)
O4_4 O 0.6541(8) 0.4319(4) 0.1929(4)
C1_4 C 0.9626(12) 0.4159(5) 0.2248(5)
C2_4 C 0.9398(12) 0.3515(5) 0.2814(5)
H3_4 H 0.824656 0.330963 0.291314
C6_4 C 0.8030(12) 0.4557(5) 0.1787(5)
loop_
_geom_bond_atom_site_label_1
_geom_bond_atom_site_label_2
_geom_bond_site_symmetry_1
_geom_bond_site_symmetry_2
Tb2 N2 1_555 1_555
N2 C7 1_555 1_555
H1 O1 1_555 1_555
H2 O2 1_555 1_555
O6 C14 1_555 1_555
O7 Tb2 1_555 1_555
O8 C12 1_555 1_555
O9 C13 1_555 1_555
O10 C13 1_555 1_555
C4 C3 1_555 1_555
H4 C4 1_555 1_555
C5 N1 1_555 1_555
H5 C5 1_555 1_555
C7 C8 1_555 1_555
C8 H6 1_555 1_555
C9 C8 1_555 1_555
C10 C9 1_555 1_555
H7 C10 1_555 1_555
C11 N2 1_555 1_555
H8 C11 1_555 1_555
C12 O7 1_555 1_555
C13 C9 1_555 1_555
C14 C3 1_555 1_555
Tb4 O9 1_555 1_555
Tb6 O7 1_555 1_555
Tb9 O6 1_555 1_555
O13 Tb2 1_555 1_555
O15 Tb2 1_555 1_555
O18 Tb2 1_555 1_555
Tb2 O1 1_555 1_555
Tb2 O2 1_555 1_555
O10 Tb9 1_555 1_555
C4 C5 1_555 1_555
C7 C12 1_555 1_555
C10 C11 1_555 1_555
O14 Tb1 1_555 1_555
O16 Tb1 1_555 1_555
O17 Tb1 1_555 1_555
Tb8 O11 1_555 1_555
Tb8 O16 1_555 1_555
O4 C6 1_555 1_555
C1 C2 1_555 1_555
C2 H3 1_555 1_555
Tb4 O5 1_555 1_555
C1 C6 1_555 1_555
Tb8 O3 1_555 1_555
Tb8 O12 1_555 1_555
Tb5 O12_2 1_555 1_555
O4_2 C6_2 1_555 1_555
C1_2 C2_2 1_555 1_555
C2_2 H3_2 1_555 1_555
C6_2 O3_2 1_555 1_555
Tb9 O3_2 1_555 1_555
C1_2 C6_2 1_555 1_555
O7_2 Tb2_2 1_555 1_555
Tb5 O7_2 1_555 1_555
O11_2 Tb2_2 1_555 1_555
O13_2 Tb2_2 1_555 1_555
O15_2 Tb2_2 1_555 1_555
O18_2 Tb2_2 1_555 1_555
Tb5 O11_2 1_555 1_555
Tb4 N1_2 1_555 1_555
N2_2 C7_2 1_555 1_555
O1_2 Tb4 1_555 1_555
H1_2 O1_2 1_555 1_555
O2_2 Tb4 1_555 1_555
H2_2 O2_2 1_555 1_555
O6_2 C14_2 1_555 1_555
O8_2 C12_2 1_555 1_555
O17 C13_2 1_555 1_555
O10_2 C13_2 1_555 1_555
C4_2 C3_2 1_555 1_555
H4_2 C4_2 1_555 1_555
C5_2 N1_2 1_555 1_555
H5_2 C5_2 1_555 1_555
C7_2 C8_2 1_555 1_555
C8_2 H6_2 1_555 1_555
C9_2 C8_2 1_555 1_555
C10_2 C9_2 1_555 1_555
H7_2 C10_2 1_555 1_555
C11_2 N2_2 1_555 1_555
H8_2 C11_2 1_555 1_555
C13_2 C9_2 1_555 1_555
C14_2 C3_2 1_555 1_555
Tb9 O1_2 1_555 1_555
Tb8 O6_2 1_555 1_555
O16_2 Tb4 1_555 1_555
O10_2 Tb8 1_555 1_555
C4_2 C5_2 1_555 1_555
C7_2 C12_2 1_555 1_555
C10_2 C11_2 1_555 1_555
Tb9 O16_2 1_555 1_555
O4_3 C6_3 1_555 1_555
C1_3 C2_3 1_555 1_555
C2_3 H3_3 1_555 1_555
Tb5 O5_2 1_555 1_555
C1_3 C6_3 1_555 1_555
O14_2 Tb6 1_555 1_555
O17_2 Tb6 1_555 1_555
Tb8 N2_3 1_555 1_555
N2_3 C7_3 1_555 1_555
H1_3 O11 1_555 1_555
H2_3 O12 1_555 1_555
O15_2 C14_3 1_555 1_555
O8_3 C12_3 1_555 1_555
O9_2 C13_3 1_555 1_555
O18_2 C13_3 1_555 1_555
C4_3 C3_3 1_555 1_555
H4_3 C4_3 1_555 1_555
C5_3 N1_3 1_555 1_555
H5_3 C5_3 1_555 1_555
C7_3 C8_3 1_555 1_555
C8_3 H6_3 1_555 1_555
C9_3 C8_3 1_555 1_555
C10_3 C9_3 1_555 1_555
H7_3 C10_3 1_555 1_555
C11_3 N2_3 1_555 1_555
H8_3 C11_3 1_555 1_555
C12_3 O16 1_555 1_555
C13_3 C9_3 1_555 1_555
C14_3 C3_3 1_555 1_555
Tb5 O9_2 1_555 1_555
C4_3 C5_3 1_555 1_555
C7_3 C12_3 1_555 1_555
C10_3 C11_3 1_555 1_555
Tb5 N1_4 1_555 1_555
N2_4 C7_4 1_555 1_555
H1_4 O11_2 1_555 1_555
H2_4 O12_2 1_555 1_555
O15 C14_4 1_555 1_555
O8_4 C12_4 1_555 1_555
O17_2 C13_4 1_555 1_555
O18 C13_4 1_555 1_555
C4_4 C3_4 1_555 1_555
H4_4 C4_4 1_555 1_555
C5_4 N1_4 1_555 1_555
H5_4 C5_4 1_555 1_555
C7_4 C8_4 1_555 1_555
C8_4 H6_4 1_555 1_555
C9_4 C8_4 1_555 1_555
C10_4 C9_4 1_555 1_555
H7_4 C10_4 1_555 1_555
C11_4 N2_4 1_555 1_555
H8_4 C11_4 1_555 1_555
C13_4 C9_4 1_555 1_555
C14_4 C3_4 1_555 1_555
C4_4 C5_4 1_555 1_555
C7_4 C12_4 1_555 1_555
C10_4 C11_4 1_555 1_555
O4_4 C6_4 1_555 1_555
C1_4 C2_4 1_555 1_555
C2_4 H3_4 1_555 1_555
C6_4 O13_2 1_555 1_555
C1_4 C6_4 1_555 1_555

#END
