
###############################################################################
#
# This file contains modified crystal structure data generated from the
# MOF subset of the Cambridge Structural Database (CSD) v543 
# hosted by the Cambridge Crystallographic Data Centre (CCDC).
#
# This work is licensed under the Creative Commons
# Attribution-NonCommercial-ShareAlike 4.0 International License.
# To view a copy of this license, visit
# http://creativecommons.org/licenses/by-nc-sa/4.0/
# or send a letter to
# Creative Commons, PO Box 1866, Mountain View, CA 94042, USA.
#
# CIF created using the CSD Python API on 29 September 2022
# The structure has been converted into the P1 space group
# The structure has a 3D framework
# The original CSD entry SUQSOP is in the monoclinic crystal system
# The framework has been calculated to contain at least 10.0% void space
# The void calculation uses a probe of radius 1.32A, grid spacing 0.4
#
###############################################################################

data_SUQSOP
_chemical_formula_moiety         '(C56 H28 Eu5 N8 O29)n'
_symmetry_cell_setting           triclinic
_symmetry_space_group_name_H-M   'P 1'
_symmetry_Int_Tables_number      1
_space_group_name_Hall           'P 1'
loop_
_symmetry_equiv_pos_site_id
_symmetry_equiv_pos_as_xyz
1 x,y,z
_cell_length_a                   7.58520(10)
_cell_length_b                   15.4780(3)
_cell_length_c                   16.9013(3)
_cell_angle_alpha                90
_cell_angle_beta                 94.5780(10)
_cell_angle_gamma                90
_cell_volume                     1977.94
loop_
_atom_site_label
_atom_site_type_symbol
_atom_site_fract_x
_atom_site_fract_y
_atom_site_fract_z
Eu2 Eu 0.37404(2) 0.10270(2) 0.46060(2)
N1 N 0.1193(4) 0.0563(2) 0.70632(17)
N2 N 0.4301(4) 0.2158(2) 0.56962(16)
O1 O 0.4213(3) 0.00917(15) 0.57214(12)
H1 H 0.468897 0.042088 0.620093
O2 O 0.0930(3) 0.07687(16) 0.51358(12)
H2 H 0.059993 0.126667 0.547087
O6 O 0.2143(3) 0.26845(17) 0.92828(14)
O7 O 0.6853(3) 0.13980(17) 0.49470(13)
O8 O 0.8948(3) 0.20651(19) 0.57356(15)
O9 O 0.6919(3) 0.40135(18) 0.79214(13)
O10 O 0.4327(3) 0.35737(19) 0.83122(14)
C3 C 0.0892(5) 0.1832(3) 0.8222(2)
C4 C 0.2527(5) 0.1496(3) 0.8078(2)
H4 H 0.356938 0.169256 0.837222
C5 C 0.2619(5) 0.0872(3) 0.7498(2)
H5 H 0.374880 0.064864 0.740152
C7 C 0.0821(4) 0.2589(2) 0.87956(19)
C8 C 0.5974(4) 0.2334(2) 0.59637(19)
C9 C 0.6420(5) 0.2854(3) 0.6614(2)
H6 H 0.762100 0.298756 0.676792
C10 C 0.5054(4) 0.3179(2) 0.70430(19)
C11 C 0.3332(5) 0.3024(3) 0.6747(2)
H7 H 0.237728 0.326015 0.700720
C12 C 0.2998(5) 0.2530(3) 0.6078(2)
H8 H 0.180620 0.244625 0.587514
C13 C 0.7403(4) 0.1917(3) 0.5510(2)
C14 C 0.5461(4) 0.3637(2) 0.78182(19)
Eu4 Eu 0.86606(2) 0.44891(2) 0.90781(2)
Eu6 Eu 0.86606(2) 0.05109(2) 0.40781(2)
Eu9 Eu 0.37404(2) 0.39730(2) 0.96060(2)
O13 O 0.1643(3) 0.01260(17) 0.37322(13)
O15 O 0.2143(3) 0.23155(17) 0.42828(14)
O18 O 0.4327(3) 0.14263(19) 0.33122(14)
Eu1 Eu 0.13394(2) 0.94891(2) 0.59219(2)
Eu8 Eu 0.62596(2) 0.89730(2) 0.53940(2)
O11 O 0.5787(3) 0.99083(15) 0.42786(12)
O14 O 0.0494(4) 0.80700(19) 0.62923(15)
O16 O 0.3147(3) 0.86020(17) 0.50530(13)
O17 O 0.3081(3) 0.90135(18) 0.70786(13)
O4 O 0.6521(3) 0.06803(19) 0.69409(14)
O5 O 0.9506(4) 0.30700(19) 0.87077(15)
C1 C 0.9611(4) 0.0856(2) 0.7252(2)
C2 C 0.9402(5) 0.1492(3) 0.7810(2)
H3 H 0.825642 0.169293 0.790851
C6 C 0.8014(4) 0.0439(3) 0.6793(2)
O3 O 0.8357(3) 0.98740(17) 0.62678(13)
O12 O 0.9070(3) 0.92313(16) 0.48642(12)
Eu5 Eu 0.13394(2) 0.55109(2) 0.09219(2)
O12_2 O 0.0930(3) 0.42313(16) 0.01358(12)
O3_2 O 0.1643(3) 0.48740(17) 0.87322(13)
O4_2 O 0.3479(3) 0.56803(19) 0.80591(14)
C1_2 C 0.0389(4) 0.5856(2) 0.7748(2)
C2_2 C 0.0598(5) 0.6492(3) 0.7190(2)
H3_2 H 0.174358 0.669293 0.709149
C6_2 C 0.1986(4) 0.5439(3) 0.8207(2)
Eu2_2 Eu 0.62596(2) 0.60270(2) 0.03940(2)
O7_2 O 0.3147(3) 0.63980(17) 0.00530(13)
O11_2 O 0.4213(3) 0.49083(15) 0.07214(12)
O13_2 O 0.8357(3) 0.51260(17) 0.12678(13)
O15_2 O 0.7857(3) 0.73155(17) 0.07172(14)
O18_2 O 0.5673(3) 0.64263(19) 0.16878(14)
N1_2 N 0.8807(4) 0.5563(2) 0.79368(17)
N2_2 N 0.5699(4) 0.7158(2) 0.93038(16)
O1_2 O 0.5787(3) 0.50917(15) 0.92786(12)
H1_2 H 0.531103 0.542088 0.879907
O2_2 O 0.9070(3) 0.57687(16) 0.98642(12)
H2_2 H 0.940007 0.626667 0.952913
O6_2 O 0.7857(3) 0.76845(17) 0.57172(14)
O8_2 O 0.1052(3) 0.70651(19) 0.92644(15)
O10_2 O 0.5673(3) 0.85737(19) 0.66878(14)
C3_2 C 0.9108(5) 0.6832(3) 0.6778(2)
C4_2 C 0.7473(5) 0.6496(3) 0.6922(2)
H4_2 H 0.643062 0.669256 0.662778
C5_2 C 0.7381(5) 0.5872(3) 0.7502(2)
H5_2 H 0.625120 0.564864 0.759848
C7_2 C 0.9179(4) 0.7589(2) 0.62044(19)
C8_2 C 0.4026(4) 0.7334(2) 0.90363(19)
C9_2 C 0.3580(5) 0.7854(3) 0.8386(2)
H6_2 H 0.237900 0.798756 0.823208
C10_2 C 0.4946(4) 0.8179(2) 0.79570(19)
C11_2 C 0.6668(5) 0.8024(3) 0.8253(2)
H7_2 H 0.762272 0.826015 0.799280
C12_2 C 0.7002(5) 0.7530(3) 0.8922(2)
H8_2 H 0.819380 0.744625 0.912486
C13_2 C 0.2597(4) 0.6917(3) 0.9490(2)
C14_2 C 0.4539(4) 0.8637(2) 0.71818(19)
O16_2 O 0.6853(3) 0.36020(17) 0.99470(13)
O4_3 O 0.3479(3) 0.93197(19) 0.30591(14)
O5_2 O 0.0494(4) 0.69300(19) 0.12923(15)
C1_3 C 0.0389(4) 0.9144(2) 0.2748(2)
C2_3 C 0.0598(5) 0.8508(3) 0.2190(2)
H3_3 H 0.174358 0.830707 0.209149
C6_3 C 0.1986(4) 0.9561(3) 0.3207(2)
O14_2 O 0.9506(4) 0.19300(19) 0.37077(15)
O17_2 O 0.6919(3) 0.09865(18) 0.29214(13)
N1_3 N 0.8807(4) 0.9437(2) 0.29368(17)
N2_3 N 0.5699(4) 0.7842(2) 0.43038(16)
H1_3 H 0.531103 0.957912 0.379907
H2_3 H 0.940007 0.873333 0.452913
O8_3 O 0.1052(3) 0.79349(19) 0.42644(15)
O9_2 O 0.3081(3) 0.59865(18) 0.20786(13)
C3_3 C 0.9108(5) 0.8168(3) 0.1778(2)
C4_3 C 0.7473(5) 0.8504(3) 0.1922(2)
H4_3 H 0.643062 0.830744 0.162778
C5_3 C 0.7381(5) 0.9128(3) 0.2502(2)
H5_3 H 0.625120 0.935136 0.259848
C7_3 C 0.9179(4) 0.7411(2) 0.12044(19)
C8_3 C 0.4026(4) 0.7666(2) 0.40363(19)
C9_3 C 0.3580(5) 0.7146(3) 0.3386(2)
H6_3 H 0.237900 0.701244 0.323208
C10_3 C 0.4946(4) 0.6821(2) 0.29570(19)
C11_3 C 0.6668(5) 0.6976(3) 0.3253(2)
H7_3 H 0.762272 0.673985 0.299280
C12_3 C 0.7002(5) 0.7470(3) 0.3922(2)
H8_3 H 0.819380 0.755375 0.412486
C13_3 C 0.2597(4) 0.8083(3) 0.4490(2)
C14_3 C 0.4539(4) 0.6363(2) 0.21818(19)
N1_4 N 0.1193(4) 0.4437(2) 0.20632(17)
N2_4 N 0.4301(4) 0.2842(2) 0.06962(16)
H1_4 H 0.468897 0.457912 0.120093
H2_4 H 0.059993 0.373333 0.047087
O8_4 O 0.8948(3) 0.29349(19) 0.07356(15)
C3_4 C 0.0892(5) 0.3168(3) 0.3222(2)
C4_4 C 0.2527(5) 0.3504(3) 0.3078(2)
H4_4 H 0.356938 0.330744 0.337222
C5_4 C 0.2619(5) 0.4128(3) 0.2498(2)
H5_4 H 0.374880 0.435136 0.240152
C7_4 C 0.0821(4) 0.2411(2) 0.37956(19)
C8_4 C 0.5974(4) 0.2666(2) 0.09637(19)
C9_4 C 0.6420(5) 0.2146(3) 0.1614(2)
H6_4 H 0.762100 0.201244 0.176792
C10_4 C 0.5054(4) 0.1821(2) 0.20430(19)
C11_4 C 0.3332(5) 0.1976(3) 0.1747(2)
H7_4 H 0.237728 0.173985 0.200720
C12_4 C 0.2998(5) 0.2470(3) 0.1078(2)
H8_4 H 0.180620 0.255375 0.087514
C13_4 C 0.7403(4) 0.3083(3) 0.0510(2)
C14_4 C 0.5461(4) 0.1363(2) 0.28182(19)
O4_4 O 0.6521(3) 0.43197(19) 0.19409(14)
C1_4 C 0.9611(4) 0.4144(2) 0.2252(2)
C2_4 C 0.9402(5) 0.3508(3) 0.2810(2)
H3_4 H 0.825642 0.330707 0.290851
C6_4 C 0.8014(4) 0.4561(3) 0.1793(2)
loop_
_geom_bond_atom_site_label_1
_geom_bond_atom_site_label_2
_geom_bond_site_symmetry_1
_geom_bond_site_symmetry_2
Eu2 N2 1_555 1_555
N2 C8 1_555 1_555
H1 O1 1_555 1_555
H2 O2 1_555 1_555
O6 C7 1_555 1_555
O7 Eu2 1_555 1_555
O8 C13 1_555 1_555
O9 C14 1_555 1_555
O10 C14 1_555 1_555
C4 C3 1_555 1_555
H4 C4 1_555 1_555
C5 N1 1_555 1_555
H5 C5 1_555 1_555
C7 C3 1_555 1_555
C8 C9 1_555 1_555
C9 H6 1_555 1_555
C10 C9 1_555 1_555
C11 C10 1_555 1_555
H7 C11 1_555 1_555
C12 N2 1_555 1_555
H8 C12 1_555 1_555
C13 O7 1_555 1_555
C14 C10 1_555 1_555
Eu4 O9 1_555 1_555
Eu6 O7 1_555 1_555
Eu9 O6 1_555 1_555
O13 Eu2 1_555 1_555
O15 Eu2 1_555 1_555
O18 Eu2 1_555 1_555
Eu2 O1 1_555 1_555
Eu2 O2 1_555 1_555
O10 Eu9 1_555 1_555
C4 C5 1_555 1_555
C8 C13 1_555 1_555
C11 C12 1_555 1_555
O14 Eu1 1_555 1_555
O16 Eu1 1_555 1_555
O17 Eu1 1_555 1_555
Eu8 O11 1_555 1_555
Eu8 O16 1_555 1_555
O4 C6 1_555 1_555
C1 C2 1_555 1_555
C2 H3 1_555 1_555
Eu4 O5 1_555 1_555
C1 C6 1_555 1_555
Eu8 O3 1_555 1_555
Eu8 O12 1_555 1_555
Eu5 O12_2 1_555 1_555
O4_2 C6_2 1_555 1_555
C1_2 C2_2 1_555 1_555
C2_2 H3_2 1_555 1_555
C6_2 O3_2 1_555 1_555
Eu9 O3_2 1_555 1_555
C1_2 C6_2 1_555 1_555
O7_2 Eu2_2 1_555 1_555
Eu5 O7_2 1_555 1_555
O11_2 Eu2_2 1_555 1_555
O13_2 Eu2_2 1_555 1_555
O15_2 Eu2_2 1_555 1_555
O18_2 Eu2_2 1_555 1_555
Eu5 O11_2 1_555 1_555
Eu4 N1_2 1_555 1_555
N2_2 C8_2 1_555 1_555
O1_2 Eu4 1_555 1_555
H1_2 O1_2 1_555 1_555
O2_2 Eu4 1_555 1_555
H2_2 O2_2 1_555 1_555
O6_2 C7_2 1_555 1_555
O8_2 C13_2 1_555 1_555
O17 C14_2 1_555 1_555
O10_2 C14_2 1_555 1_555
C4_2 C3_2 1_555 1_555
H4_2 C4_2 1_555 1_555
C5_2 N1_2 1_555 1_555
H5_2 C5_2 1_555 1_555
C7_2 C3_2 1_555 1_555
C8_2 C9_2 1_555 1_555
C9_2 H6_2 1_555 1_555
C10_2 C9_2 1_555 1_555
C11_2 C10_2 1_555 1_555
H7_2 C11_2 1_555 1_555
C12_2 N2_2 1_555 1_555
H8_2 C12_2 1_555 1_555
C14_2 C10_2 1_555 1_555
Eu9 O1_2 1_555 1_555
Eu8 O6_2 1_555 1_555
O16_2 Eu4 1_555 1_555
O10_2 Eu8 1_555 1_555
C4_2 C5_2 1_555 1_555
C8_2 C13_2 1_555 1_555
C11_2 C12_2 1_555 1_555
Eu9 O16_2 1_555 1_555
O4_3 C6_3 1_555 1_555
C1_3 C2_3 1_555 1_555
C2_3 H3_3 1_555 1_555
Eu5 O5_2 1_555 1_555
C1_3 C6_3 1_555 1_555
O14_2 Eu6 1_555 1_555
O17_2 Eu6 1_555 1_555
Eu8 N2_3 1_555 1_555
N2_3 C8_3 1_555 1_555
H1_3 O11 1_555 1_555
H2_3 O12 1_555 1_555
O15_2 C7_3 1_555 1_555
O8_3 C13_3 1_555 1_555
O9_2 C14_3 1_555 1_555
O18_2 C14_3 1_555 1_555
C4_3 C3_3 1_555 1_555
H4_3 C4_3 1_555 1_555
C5_3 N1_3 1_555 1_555
H5_3 C5_3 1_555 1_555
C7_3 C3_3 1_555 1_555
C8_3 C9_3 1_555 1_555
C9_3 H6_3 1_555 1_555
C10_3 C9_3 1_555 1_555
C11_3 C10_3 1_555 1_555
H7_3 C11_3 1_555 1_555
C12_3 N2_3 1_555 1_555
H8_3 C12_3 1_555 1_555
C13_3 O16 1_555 1_555
C14_3 C10_3 1_555 1_555
Eu5 O9_2 1_555 1_555
C4_3 C5_3 1_555 1_555
C8_3 C13_3 1_555 1_555
C11_3 C12_3 1_555 1_555
Eu5 N1_4 1_555 1_555
N2_4 C8_4 1_555 1_555
H1_4 O11_2 1_555 1_555
H2_4 O12_2 1_555 1_555
O15 C7_4 1_555 1_555
O8_4 C13_4 1_555 1_555
O17_2 C14_4 1_555 1_555
O18 C14_4 1_555 1_555
C4_4 C3_4 1_555 1_555
H4_4 C4_4 1_555 1_555
C5_4 N1_4 1_555 1_555
H5_4 C5_4 1_555 1_555
C7_4 C3_4 1_555 1_555
C8_4 C9_4 1_555 1_555
C9_4 H6_4 1_555 1_555
C10_4 C9_4 1_555 1_555
C11_4 C10_4 1_555 1_555
H7_4 C11_4 1_555 1_555
C12_4 N2_4 1_555 1_555
H8_4 C12_4 1_555 1_555
C14_4 C10_4 1_555 1_555
C4_4 C5_4 1_555 1_555
C8_4 C13_4 1_555 1_555
C11_4 C12_4 1_555 1_555
O4_4 C6_4 1_555 1_555
C1_4 C2_4 1_555 1_555
C2_4 H3_4 1_555 1_555
C6_4 O13_2 1_555 1_555
C1_4 C6_4 1_555 1_555

#END
