
###############################################################################
#
# This file contains modified crystal structure data generated from the
# MOF subset of the Cambridge Structural Database (CSD) v543 
# hosted by the Cambridge Crystallographic Data Centre (CCDC).
#
# This work is licensed under the Creative Commons
# Attribution-NonCommercial-ShareAlike 4.0 International License.
# To view a copy of this license, visit
# http://creativecommons.org/licenses/by-nc-sa/4.0/
# or send a letter to
# Creative Commons, PO Box 1866, Mountain View, CA 94042, USA.
#
# CIF created using the CSD Python API on 29 September 2022
# The structure has been converted into the P1 space group
# The structure has a 3D framework
# The original CSD entry SUQSIJ is in the monoclinic crystal system
# The framework has been calculated to contain at least 10.0% void space
# The void calculation uses a probe of radius 1.32A, grid spacing 0.4
#
###############################################################################

data_SUQSIJ
_chemical_formula_moiety         '(C56 H28 Gd5 N8 O29)n'
_symmetry_cell_setting           triclinic
_symmetry_space_group_name_H-M   'P 1'
_symmetry_Int_Tables_number      1
_space_group_name_Hall           'P 1'
loop_
_symmetry_equiv_pos_site_id
_symmetry_equiv_pos_as_xyz
1 x,y,z
_cell_length_a                   7.5603(4)
_cell_length_b                   15.3841(9)
_cell_length_c                   16.8771(10)
_cell_angle_alpha                90
_cell_angle_beta                 94.502(2)
_cell_angle_gamma                90
_cell_volume                     1956.89
loop_
_atom_site_label
_atom_site_type_symbol
_atom_site_fract_x
_atom_site_fract_y
_atom_site_fract_z
Gd2 Gd 0.37398(4) 0.10272(2) 0.46085(2)
N1 N 0.1198(7) 0.0556(4) 0.7060(4)
N2 N 0.4289(7) 0.2143(4) 0.5703(4)
O1 O 0.4212(6) 0.0087(3) 0.5714(3)
H1 H 0.468695 0.041791 0.619413
O2 O 0.0930(5) 0.0766(3) 0.5131(3)
H2 H 0.059982 0.126612 0.546731
O6 O 0.2161(6) 0.2670(3) 0.9286(3)
O7 O 0.6850(6) 0.1410(3) 0.4937(3)
O8 O 0.8952(6) 0.2083(3) 0.5726(3)
O9 O 0.6930(6) 0.4001(3) 0.7936(3)
O10 O 0.4287(6) 0.3579(4) 0.8314(3)
C3 C 0.0909(10) 0.1820(5) 0.8222(4)
C4 C 0.2563(9) 0.1475(5) 0.8083(5)
H4 H 0.360933 0.166067 0.838357
C5 C 0.2632(9) 0.0854(5) 0.7496(5)
H5 H 0.375887 0.062574 0.739359
C7 C 0.0856(8) 0.2580(4) 0.8793(4)
C8 C 0.5969(8) 0.2339(4) 0.5957(4)
C9 C 0.6424(9) 0.2857(5) 0.6619(4)
H6 H 0.762875 0.298688 0.677690
C10 C 0.5047(9) 0.3182(5) 0.7045(4)
C11 C 0.3310(10) 0.3018(5) 0.6765(5)
H7 H 0.235243 0.324125 0.703567
C12 C 0.2990(9) 0.2523(5) 0.6084(5)
H8 H 0.179623 0.244825 0.587471
C13 C 0.7412(9) 0.1929(5) 0.5507(4)
C14 C 0.5460(9) 0.3630(4) 0.7831(4)
Gd4 Gd 0.86642(4) 0.44855(2) 0.90827(2)
Gd6 Gd 0.86642(4) 0.05145(2) 0.40827(2)
Gd9 Gd 0.37398(4) 0.39728(2) 0.96085(2)
O13 O 0.1649(6) 0.0129(3) 0.3744(3)
O15 O 0.2161(6) 0.2330(3) 0.4286(3)
O18 O 0.4287(6) 0.1421(4) 0.3314(3)
Gd1 Gd 0.13358(4) 0.94855(2) 0.59173(2)
Gd8 Gd 0.62602(4) 0.89728(2) 0.53915(2)
O11 O 0.5788(6) 0.9913(3) 0.4286(3)
O14 O 0.0466(7) 0.8077(3) 0.6288(3)
O16 O 0.3150(6) 0.8590(3) 0.5063(3)
O17 O 0.3070(6) 0.9001(3) 0.7064(3)
O4 O 0.6521(6) 0.0678(4) 0.6934(3)
O5 O 0.9534(7) 0.3077(3) 0.8712(3)
C1 C 0.9596(10) 0.0845(5) 0.7252(4)
C2 C 0.9399(8) 0.1495(5) 0.7820(4)
H3 H 0.825764 0.170403 0.792470
C6 C 0.8003(9) 0.0450(5) 0.6782(4)
O3 O 0.8351(6) 0.9871(3) 0.6256(3)
O12 O 0.9070(5) 0.9234(3) 0.4869(3)
Gd5 Gd 0.13358(4) 0.55145(2) 0.09173(2)
O12_2 O 0.0930(5) 0.4234(3) 0.0131(3)
O3_2 O 0.1649(6) 0.4871(3) 0.8744(3)
O4_2 O 0.3479(6) 0.5678(4) 0.8066(3)
C1_2 C 0.0404(10) 0.5845(5) 0.7748(4)
C2_2 C 0.0601(8) 0.6495(5) 0.7180(4)
H3_2 H 0.174236 0.670403 0.707530
C6_2 C 0.1997(9) 0.5450(5) 0.8218(4)
Gd2_2 Gd 0.62602(4) 0.60272(2) 0.03915(2)
O7_2 O 0.3150(6) 0.6410(3) 0.0063(3)
O11_2 O 0.4212(6) 0.4913(3) 0.0714(3)
O13_2 O 0.8351(6) 0.5129(3) 0.1256(3)
O15_2 O 0.7839(6) 0.7330(3) 0.0714(3)
O18_2 O 0.5713(6) 0.6421(4) 0.1686(3)
N1_2 N 0.8802(7) 0.5556(4) 0.7940(4)
N2_2 N 0.5711(7) 0.7143(4) 0.9297(4)
O1_2 O 0.5788(6) 0.5087(3) 0.9286(3)
H1_2 H 0.531305 0.541791 0.880587
O2_2 O 0.9070(5) 0.5766(3) 0.9869(3)
H2_2 H 0.940018 0.626612 0.953269
O6_2 O 0.7839(6) 0.7670(3) 0.5714(3)
O8_2 O 0.1048(6) 0.7083(3) 0.9274(3)
O10_2 O 0.5713(6) 0.8579(4) 0.6686(3)
C3_2 C 0.9091(10) 0.6820(5) 0.6778(4)
C4_2 C 0.7437(9) 0.6475(5) 0.6917(5)
H4_2 H 0.639067 0.666067 0.661643
C5_2 C 0.7368(9) 0.5854(5) 0.7504(5)
H5_2 H 0.624113 0.562574 0.760641
C7_2 C 0.9144(8) 0.7580(4) 0.6207(4)
C8_2 C 0.4031(8) 0.7339(4) 0.9043(4)
C9_2 C 0.3576(9) 0.7857(5) 0.8381(4)
H6_2 H 0.237125 0.798688 0.822310
C10_2 C 0.4953(9) 0.8182(5) 0.7955(4)
C11_2 C 0.6690(10) 0.8018(5) 0.8235(5)
H7_2 H 0.764757 0.824125 0.796433
C12_2 C 0.7010(9) 0.7523(5) 0.8916(5)
H8_2 H 0.820377 0.744825 0.912529
C13_2 C 0.2588(9) 0.6929(5) 0.9493(4)
C14_2 C 0.4540(9) 0.8630(4) 0.7169(4)
O16_2 O 0.6850(6) 0.3590(3) 0.9937(3)
O4_3 O 0.3479(6) 0.9322(4) 0.3066(3)
O5_2 O 0.0466(7) 0.6923(3) 0.1288(3)
C1_3 C 0.0404(10) 0.9155(5) 0.2748(4)
C2_3 C 0.0601(8) 0.8505(5) 0.2180(4)
H3_3 H 0.174236 0.829597 0.207530
C6_3 C 0.1997(9) 0.9550(5) 0.3218(4)
O14_2 O 0.9534(7) 0.1923(3) 0.3712(3)
O17_2 O 0.6930(6) 0.0999(3) 0.2936(3)
N1_3 N 0.8802(7) 0.9444(4) 0.2940(4)
N2_3 N 0.5711(7) 0.7857(4) 0.4297(4)
H1_3 H 0.531305 0.958209 0.380587
H2_3 H 0.940018 0.873388 0.453269
O8_3 O 0.1048(6) 0.7917(3) 0.4274(3)
O9_2 O 0.3070(6) 0.5999(3) 0.2064(3)
C3_3 C 0.9091(10) 0.8180(5) 0.1778(4)
C4_3 C 0.7437(9) 0.8525(5) 0.1917(5)
H4_3 H 0.639067 0.833933 0.161643
C5_3 C 0.7368(9) 0.9146(5) 0.2504(5)
H5_3 H 0.624113 0.937426 0.260641
C7_3 C 0.9144(8) 0.7420(4) 0.1207(4)
C8_3 C 0.4031(8) 0.7661(4) 0.4043(4)
C9_3 C 0.3576(9) 0.7143(5) 0.3381(4)
H6_3 H 0.237125 0.701312 0.322310
C10_3 C 0.4953(9) 0.6818(5) 0.2955(4)
C11_3 C 0.6690(10) 0.6982(5) 0.3235(5)
H7_3 H 0.764757 0.675875 0.296433
C12_3 C 0.7010(9) 0.7477(5) 0.3916(5)
H8_3 H 0.820377 0.755175 0.412529
C13_3 C 0.2588(9) 0.8071(5) 0.4493(4)
C14_3 C 0.4540(9) 0.6370(4) 0.2169(4)
N1_4 N 0.1198(7) 0.4444(4) 0.2060(4)
N2_4 N 0.4289(7) 0.2857(4) 0.0703(4)
H1_4 H 0.468695 0.458209 0.119413
H2_4 H 0.059982 0.373388 0.046731
O8_4 O 0.8952(6) 0.2917(3) 0.0726(3)
C3_4 C 0.0909(10) 0.3180(5) 0.3222(4)
C4_4 C 0.2563(9) 0.3525(5) 0.3083(5)
H4_4 H 0.360933 0.333933 0.338357
C5_4 C 0.2632(9) 0.4146(5) 0.2496(5)
H5_4 H 0.375887 0.437426 0.239359
C7_4 C 0.0856(8) 0.2420(4) 0.3793(4)
C8_4 C 0.5969(8) 0.2661(4) 0.0957(4)
C9_4 C 0.6424(9) 0.2143(5) 0.1619(4)
H6_4 H 0.762875 0.201312 0.177690
C10_4 C 0.5047(9) 0.1818(5) 0.2045(4)
C11_4 C 0.3310(10) 0.1982(5) 0.1765(5)
H7_4 H 0.235243 0.175875 0.203567
C12_4 C 0.2990(9) 0.2477(5) 0.1084(5)
H8_4 H 0.179623 0.255175 0.087471
C13_4 C 0.7412(9) 0.3071(5) 0.0507(4)
C14_4 C 0.5460(9) 0.1370(4) 0.2831(4)
O4_4 O 0.6521(6) 0.4322(4) 0.1934(3)
C1_4 C 0.9596(10) 0.4155(5) 0.2252(4)
C2_4 C 0.9399(8) 0.3505(5) 0.2820(4)
H3_4 H 0.825764 0.329597 0.292470
C6_4 C 0.8003(9) 0.4550(5) 0.1782(4)
loop_
_geom_bond_atom_site_label_1
_geom_bond_atom_site_label_2
_geom_bond_site_symmetry_1
_geom_bond_site_symmetry_2
Gd2 N2 1_555 1_555
N2 C8 1_555 1_555
H1 O1 1_555 1_555
H2 O2 1_555 1_555
O6 C7 1_555 1_555
O7 Gd2 1_555 1_555
O8 C13 1_555 1_555
O9 C14 1_555 1_555
O10 C14 1_555 1_555
C4 C3 1_555 1_555
H4 C4 1_555 1_555
C5 N1 1_555 1_555
H5 C5 1_555 1_555
C7 C3 1_555 1_555
C8 C9 1_555 1_555
C9 H6 1_555 1_555
C10 C9 1_555 1_555
C11 C10 1_555 1_555
H7 C11 1_555 1_555
C12 N2 1_555 1_555
H8 C12 1_555 1_555
C13 O7 1_555 1_555
C14 C10 1_555 1_555
Gd4 O9 1_555 1_555
Gd6 O7 1_555 1_555
Gd9 O6 1_555 1_555
O13 Gd2 1_555 1_555
O15 Gd2 1_555 1_555
O18 Gd2 1_555 1_555
Gd2 O1 1_555 1_555
Gd2 O2 1_555 1_555
O10 Gd9 1_555 1_555
C4 C5 1_555 1_555
C8 C13 1_555 1_555
C11 C12 1_555 1_555
O14 Gd1 1_555 1_555
O16 Gd1 1_555 1_555
O17 Gd1 1_555 1_555
Gd8 O11 1_555 1_555
Gd8 O16 1_555 1_555
O4 C6 1_555 1_555
C1 C2 1_555 1_555
C2 H3 1_555 1_555
Gd4 O5 1_555 1_555
C1 C6 1_555 1_555
Gd8 O3 1_555 1_555
Gd8 O12 1_555 1_555
Gd5 O12_2 1_555 1_555
O4_2 C6_2 1_555 1_555
C1_2 C2_2 1_555 1_555
C2_2 H3_2 1_555 1_555
C6_2 O3_2 1_555 1_555
Gd9 O3_2 1_555 1_555
C1_2 C6_2 1_555 1_555
O7_2 Gd2_2 1_555 1_555
Gd5 O7_2 1_555 1_555
O11_2 Gd2_2 1_555 1_555
O13_2 Gd2_2 1_555 1_555
O15_2 Gd2_2 1_555 1_555
O18_2 Gd2_2 1_555 1_555
Gd5 O11_2 1_555 1_555
Gd4 N1_2 1_555 1_555
N2_2 C8_2 1_555 1_555
O1_2 Gd4 1_555 1_555
H1_2 O1_2 1_555 1_555
O2_2 Gd4 1_555 1_555
H2_2 O2_2 1_555 1_555
O6_2 C7_2 1_555 1_555
O8_2 C13_2 1_555 1_555
O17 C14_2 1_555 1_555
O10_2 C14_2 1_555 1_555
C4_2 C3_2 1_555 1_555
H4_2 C4_2 1_555 1_555
C5_2 N1_2 1_555 1_555
H5_2 C5_2 1_555 1_555
C7_2 C3_2 1_555 1_555
C8_2 C9_2 1_555 1_555
C9_2 H6_2 1_555 1_555
C10_2 C9_2 1_555 1_555
C11_2 C10_2 1_555 1_555
H7_2 C11_2 1_555 1_555
C12_2 N2_2 1_555 1_555
H8_2 C12_2 1_555 1_555
C14_2 C10_2 1_555 1_555
Gd9 O1_2 1_555 1_555
Gd8 O6_2 1_555 1_555
O16_2 Gd4 1_555 1_555
O10_2 Gd8 1_555 1_555
C4_2 C5_2 1_555 1_555
C8_2 C13_2 1_555 1_555
C11_2 C12_2 1_555 1_555
Gd9 O16_2 1_555 1_555
O4_3 C6_3 1_555 1_555
C1_3 C2_3 1_555 1_555
C2_3 H3_3 1_555 1_555
Gd5 O5_2 1_555 1_555
C1_3 C6_3 1_555 1_555
O14_2 Gd6 1_555 1_555
O17_2 Gd6 1_555 1_555
Gd8 N2_3 1_555 1_555
N2_3 C8_3 1_555 1_555
H1_3 O11 1_555 1_555
H2_3 O12 1_555 1_555
O15_2 C7_3 1_555 1_555
O8_3 C13_3 1_555 1_555
O9_2 C14_3 1_555 1_555
O18_2 C14_3 1_555 1_555
C4_3 C3_3 1_555 1_555
H4_3 C4_3 1_555 1_555
C5_3 N1_3 1_555 1_555
H5_3 C5_3 1_555 1_555
C7_3 C3_3 1_555 1_555
C8_3 C9_3 1_555 1_555
C9_3 H6_3 1_555 1_555
C10_3 C9_3 1_555 1_555
C11_3 C10_3 1_555 1_555
H7_3 C11_3 1_555 1_555
C12_3 N2_3 1_555 1_555
H8_3 C12_3 1_555 1_555
C13_3 O16 1_555 1_555
C14_3 C10_3 1_555 1_555
Gd5 O9_2 1_555 1_555
C4_3 C5_3 1_555 1_555
C8_3 C13_3 1_555 1_555
C11_3 C12_3 1_555 1_555
Gd5 N1_4 1_555 1_555
N2_4 C8_4 1_555 1_555
H1_4 O11_2 1_555 1_555
H2_4 O12_2 1_555 1_555
O15 C7_4 1_555 1_555
O8_4 C13_4 1_555 1_555
O17_2 C14_4 1_555 1_555
O18 C14_4 1_555 1_555
C4_4 C3_4 1_555 1_555
H4_4 C4_4 1_555 1_555
C5_4 N1_4 1_555 1_555
H5_4 C5_4 1_555 1_555
C7_4 C3_4 1_555 1_555
C8_4 C9_4 1_555 1_555
C9_4 H6_4 1_555 1_555
C10_4 C9_4 1_555 1_555
C11_4 C10_4 1_555 1_555
H7_4 C11_4 1_555 1_555
C12_4 N2_4 1_555 1_555
H8_4 C12_4 1_555 1_555
C14_4 C10_4 1_555 1_555
C4_4 C5_4 1_555 1_555
C8_4 C13_4 1_555 1_555
C11_4 C12_4 1_555 1_555
O4_4 C6_4 1_555 1_555
C1_4 C2_4 1_555 1_555
C2_4 H3_4 1_555 1_555
C6_4 O13_2 1_555 1_555
C1_4 C6_4 1_555 1_555

#END
