
###############################################################################
#
# This file contains modified crystal structure data generated from the
# MOF subset of the Cambridge Structural Database (CSD) v543 
# hosted by the Cambridge Crystallographic Data Centre (CCDC).
#
# This work is licensed under the Creative Commons
# Attribution-NonCommercial-ShareAlike 4.0 International License.
# To view a copy of this license, visit
# http://creativecommons.org/licenses/by-nc-sa/4.0/
# or send a letter to
# Creative Commons, PO Box 1866, Mountain View, CA 94042, USA.
#
# CIF created using the CSD Python API on 29 September 2022
# The structure has been converted into the P1 space group
# The structure has a 3D framework
# The original CSD entry SURWAG is in the monoclinic crystal system
# The framework has been calculated to contain at least 10.0% void space
# The void calculation uses a probe of radius 1.32A, grid spacing 0.4
# The framework is charged, counterions have been retained in the structure
# H atom positions have been added when not included in the experimental data
# Generated hydrogen atom positions removed from atoms on special positions
#
###############################################################################

data_SURWAG
_chemical_formula_moiety         '(C80 H192 Cl12 Eu16 O122 4-)n'
_symmetry_cell_setting           triclinic
_symmetry_space_group_name_H-M   'P 1'
_symmetry_Int_Tables_number      1
_space_group_name_Hall           'P 1'
loop_
_symmetry_equiv_pos_site_id
_symmetry_equiv_pos_as_xyz
1 x,y,z
_cell_length_a                   24.5526(18)
_cell_length_b                   13.7510(10)
_cell_length_c                   17.3450(13)
_cell_angle_alpha                90
_cell_angle_beta                 134.423(9)
_cell_angle_gamma                90
_cell_volume                     4182.36
loop_
_atom_site_label
_atom_site_type_symbol
_atom_site_fract_x
_atom_site_fract_y
_atom_site_fract_z
Eu1 Eu 0.45055(2) 0.22229(2) 0.20149(3)
Eu2 Eu 0.74830(2) 0.24309(2) 0.29364(3)
O1 O 0.3955(3) 0.1157(4) 0.0587(4)
O2 O 0.8248(3) 0.3675(4) 0.4426(5)
O3 O 0.3929(3) 0.1163(4) 0.2330(5)
O4 O 0.6660(3) 0.3246(4) 0.3029(5)
O5 O 0.3661(4) 0.3189(5) 0.0376(4)
O6 O 0.8303(3) 0.1575(4) 0.4655(4)
O7 O 0.6745(3) 0.1169(4) 0.2778(5)
O8 O 0.3690(3) 0.3250(4) 0.1999(5)
O9 O 0.5215(3) 0.2467(3) 0.1520(4)
O10 O 0.5562(3) 0.1155(4) 0.3077(4)
O11 O 0.5234(3) 0.2488(4) 0.3922(4)
O12 O 0.6299(3) 0.2544(4) 0.1084(4)
O13 O 0.6295(3) 0.2572(4) 0.6479(4)
O15 O 0.2490(3) 0.1162(3) 0.2139(4)
O16 O 0.5190(3) 0.3766(3) 0.2685(4)
C1 C 0.6395(4) 0.0529(5) 0.2805(6)
C4 C 0.2913(4) 0.0539(5) 0.2232(5)
C5 C 0.3542(4) 0.0535(5) 0.2306(6)
C6 C 0.5086(4) 0.2507(5) 0.4497(5)
C7 C 0.5092(4) 0.2463(5) 0.0689(5)
C8 C 0.5586(4) 0.2481(5) 0.0495(5)
C9 C 0.5583(4) 0.2514(5) 0.5666(5)
C10 C 0.5856(4) 0.0528(5) 0.2921(6)
O25 O 0.4766(3) 0.2488(4) 0.6078(4)
C19 C 0.4914(4) 0.2507(5) 0.5503(5)
O26 O 0.3705(3) 0.2572(4) 0.3521(4)
C20 C 0.4417(4) 0.2514(5) 0.4334(5)
Eu5 Eu 0.54945(2) 0.22229(2) 0.79851(3)
Eu10 Eu 0.75170(2) 0.25691(2) 0.70636(3)
Eu11 Eu 0.24830(2) 0.25691(2) 0.29364(3)
O38 O 0.8705(3) 0.2428(4) 0.3521(4)
O40 O 0.7530(3) 0.1161(3) 0.2056(4)
O42 O 0.7490(3) 0.3838(3) 0.2139(4)
H4 H 0.367988 0.387863 0.0563448
H19 H 0.6456 0.282705 0.0220992
O14 O 0.2470(3) 0.1161(3) 0.7944(4)
C2 C 0.2908(4) 0.0526(5) 0.8668(6)
C3 C 0.3565(4) 0.0530(5) 0.9858(6)
O23 O 0.4785(3) 0.2467(3) 0.8480(4)
O24 O 0.3701(3) 0.2544(4) 0.8916(4)
C17 C 0.4908(4) 0.2463(5) 0.9311(5)
C18 C 0.4414(4) 0.2481(5) 0.9505(5)
Eu4 Eu 0.25170(2) 0.24309(2) 0.70636(3)
O27 O 0.1752(3) 0.3675(4) 0.5574(5)
O28 O 0.3340(3) 0.3246(4) 0.6971(5)
O29 O 0.6339(4) 0.3189(5) 0.9624(4)
O30 O 0.1697(3) 0.1575(4) 0.5345(4)
O31 O 0.6310(3) 0.3250(4) 0.8001(5)
O32 O 0.4810(3) 0.3766(3) 0.7315(4)
O33 O 0.6045(3) 0.1157(4) 0.9413(4)
O34 O 0.6071(3) 0.1163(4) 0.7670(5)
O35 O 0.3255(3) 0.1169(4) 0.7222(5)
O36 O 0.4438(3) 0.1155(4) 0.6923(4)
O39 O 0.1295(3) 0.2428(4) 0.6479(4)
O41 O 0.2510(3) 0.3838(3) 0.7861(4)
H3 H 0.313133 0.294128 0.990063
H20 H 0.68196 0.332106 0.981606
O17 O 0.3955(3) 0.8843(4) 0.0587(4)
O19 O 0.3929(3) 0.8837(4) 0.2330(5)
C13 C 0.3542(4) 0.9465(5) 0.2306(6)
O20 O 0.2490(3) 0.8838(3) 0.2139(4)
C14 C 0.2913(4) 0.9461(5) 0.2232(5)
O21 O 0.6745(3) 0.8831(4) 0.2778(5)
O22 O 0.5562(3) 0.8845(4) 0.3077(4)
C15 C 0.6395(4) 0.9471(5) 0.2805(6)
C16 C 0.5856(4) 0.9472(5) 0.2921(6)
Eu6 Eu 0.45055(2) 0.77771(2) 0.20149(3)
Eu7 Eu 0.24830(2) 0.74309(2) 0.29364(3)
Eu9 Eu 0.74830(2) 0.75691(2) 0.29364(3)
C11 C 0.3565(4) 0.9470(5) 0.9858(6)
O18 O 0.2470(3) 0.8839(3) 0.7944(4)
C12 C 0.2908(4) 0.9474(5) 0.8668(6)
Eu8 Eu 0.25170(2) 0.75691(2) 0.70636(3)
C2_2 C 0.7092(4) 0.0526(5) 0.1332(6)
C3_2 C 0.6435(4) 0.0530(5) 0.0142(6)
H3_2 H 0.686867 0.294128 0.00993673
H20_2 H 0.31804 0.332106 0.0183939
O15_2 O 0.7510(3) 0.1162(3) 0.7861(4)
C1_2 C 0.3605(4) 0.0529(5) 0.7195(6)
C4_2 C 0.7087(4) 0.0539(5) 0.7768(5)
C5_2 C 0.6458(4) 0.0535(5) 0.7694(6)
C10_2 C 0.4144(4) 0.0528(5) 0.7079(6)
H4_2 H 0.632012 0.387863 0.943655
H19_2 H 0.3544 0.282705 0.977901
C11_2 C 0.6435(4) 0.9470(5) 0.0142(6)
O18_2 O 0.7530(3) 0.8839(3) 0.2056(4)
C12_2 C 0.7092(4) 0.9474(5) 0.1332(6)
O17_2 O 0.6045(3) 0.8843(4) 0.9413(4)
O19_2 O 0.6071(3) 0.8837(4) 0.7670(5)
C13_2 C 0.6458(4) 0.9465(5) 0.7694(6)
O20_2 O 0.7510(3) 0.8838(3) 0.7861(4)
C14_2 C 0.7087(4) 0.9461(5) 0.7768(5)
O21_2 O 0.3255(3) 0.8831(4) 0.7222(5)
O22_2 O 0.4438(3) 0.8845(4) 0.6923(4)
C15_2 C 0.3605(4) 0.9471(5) 0.7195(6)
C16_2 C 0.4144(4) 0.9472(5) 0.7079(6)
Eu6_2 Eu 0.54945(2) 0.77771(2) 0.79851(3)
Eu7_2 Eu 0.75170(2) 0.74309(2) 0.70636(3)
O2_2 O 0.3248(3) 0.8675(4) 0.4426(5)
O4_2 O 0.1660(3) 0.8246(4) 0.3029(5)
O6_2 O 0.3303(3) 0.6575(4) 0.4655(4)
O7_2 O 0.1745(3) 0.6169(4) 0.2778(5)
O9_2 O 0.0215(3) 0.7467(3) 0.1520(4)
O10_2 O 0.0562(3) 0.6155(4) 0.3077(4)
O11_2 O 0.0234(3) 0.7488(4) 0.3922(4)
O12_2 O 0.1299(3) 0.7544(4) 0.1084(4)
O13_2 O 0.1295(3) 0.7572(4) 0.6479(4)
O16_2 O 0.0190(3) 0.8766(3) 0.2685(4)
C1_3 C 0.1395(4) 0.5529(5) 0.2805(6)
C6_2 C 0.0086(4) 0.7507(5) 0.4497(5)
C7_2 C 0.0092(4) 0.7463(5) 0.0689(5)
C8_2 C 0.0586(4) 0.7481(5) 0.0495(5)
C9_2 C 0.0583(4) 0.7514(5) 0.5666(5)
C10_3 C 0.0856(4) 0.5528(5) 0.2921(6)
O21_3 O 0.1745(3) 0.3831(4) 0.2778(5)
O22_3 O 0.0562(3) 0.3845(4) 0.3077(4)
C15_3 C 0.1395(4) 0.4471(5) 0.2805(6)
C16_3 C 0.0856(4) 0.4472(5) 0.2921(6)
Eu5_2 Eu 0.04945(2) 0.72229(2) 0.79851(3)
O38_2 O 0.3705(3) 0.7428(4) 0.3521(4)
O40_2 O 0.2530(3) 0.6161(3) 0.2056(4)
H19_3 H 0.1456 0.782705 0.0220992
O29_2 O 0.1339(4) 0.8189(5) 0.9624(4)
O31_2 O 0.1310(3) 0.8250(4) 0.8001(5)
O33_2 O 0.1045(3) 0.6157(4) 0.9413(4)
O34_2 O 0.1071(3) 0.6163(4) 0.7670(5)
H20_3 H 0.18196 0.832106 0.981606
Eu1_2 Eu 0.95055(2) 0.72229(2) 0.20149(3)
O1_2 O 0.8955(3) 0.6157(4) 0.0587(4)
O3_2 O 0.8929(3) 0.6163(4) 0.2330(5)
O5_2 O 0.8661(4) 0.8189(5) 0.0376(4)
O8_2 O 0.8690(3) 0.8250(4) 0.1999(5)
O15_3 O 0.7490(3) 0.6162(3) 0.2139(4)
C4_3 C 0.7913(4) 0.5539(5) 0.2232(5)
C5_3 C 0.8542(4) 0.5535(5) 0.2306(6)
O17_3 O 0.8955(3) 0.3843(4) 0.0587(4)
O19_3 O 0.8929(3) 0.3837(4) 0.2330(5)
C13_3 C 0.8542(4) 0.4465(5) 0.2306(6)
C14_3 C 0.7913(4) 0.4461(5) 0.2232(5)
O25_2 O 0.9766(3) 0.7488(4) 0.6078(4)
C19_2 C 0.9914(4) 0.7507(5) 0.5503(5)
O26_2 O 0.8705(3) 0.7572(4) 0.3521(4)
C20_2 C 0.9417(4) 0.7514(5) 0.4334(5)
Eu6_3 Eu 0.95055(2) 0.27771(2) 0.20149(3)
H4_3 H 0.867988 0.887863 0.0563448
H9 H 0.986319 0.927633 0.212688
O14_2 O 0.7470(3) 0.6161(3) 0.7944(4)
C2_3 C 0.7908(4) 0.5526(5) 0.8668(6)
C3_3 C 0.8565(4) 0.5530(5) 0.9858(6)
C11_3 C 0.8565(4) 0.4470(5) 0.9858(6)
O18_3 O 0.7470(3) 0.3839(3) 0.7944(4)
C12_3 C 0.7908(4) 0.4474(5) 0.8668(6)
O23_2 O 0.9785(3) 0.7467(3) 0.8480(4)
O24_2 O 0.8701(3) 0.7544(4) 0.8916(4)
C17_2 C 0.9908(4) 0.7463(5) 0.9311(5)
C18_2 C 0.9414(4) 0.7481(5) 0.9505(5)
O27_2 O 0.6752(3) 0.8675(4) 0.5574(5)
O28_2 O 0.8340(3) 0.8246(4) 0.6971(5)
O30_2 O 0.6697(3) 0.6575(4) 0.5345(4)
O32_2 O 0.9810(3) 0.8766(3) 0.7315(4)
O35_2 O 0.8255(3) 0.6169(4) 0.7222(5)
O36_2 O 0.9438(3) 0.6155(4) 0.6923(4)
O39_2 O 0.6295(3) 0.7428(4) 0.6479(4)
H3_3 H 0.813133 0.794128 0.990063
C2_4 C 0.2092(4) 0.5526(5) 0.1332(6)
C3_4 C 0.1435(4) 0.5530(5) 0.0142(6)
C11_4 C 0.1435(4) 0.4470(5) 0.0142(6)
O18_4 O 0.2530(3) 0.3839(3) 0.2056(4)
C12_4 C 0.2092(4) 0.4474(5) 0.1332(6)
H3_4 H 0.186867 0.794128 0.00993673
O15_4 O 0.2510(3) 0.6162(3) 0.7861(4)
C4_4 C 0.2087(4) 0.5539(5) 0.7768(5)
C5_4 C 0.1458(4) 0.5535(5) 0.7694(6)
O17_4 O 0.1045(3) 0.3843(4) 0.9413(4)
O19_4 O 0.1071(3) 0.3837(4) 0.7670(5)
C13_4 C 0.1458(4) 0.4465(5) 0.7694(6)
C14_4 C 0.2087(4) 0.4461(5) 0.7768(5)
Eu6_4 Eu 0.04945(2) 0.27771(2) 0.79851(3)
H4_4 H 0.132012 0.887863 0.943655
H9_2 H 0.0136807 0.927633 0.787312
H20_4 H 0.81804 0.832106 0.0183939
C1_4 C 0.8605(4) 0.5529(5) 0.7195(6)
C10_4 C 0.9144(4) 0.5528(5) 0.7079(6)
O21_4 O 0.8255(3) 0.3831(4) 0.7222(5)
O22_4 O 0.9438(3) 0.3845(4) 0.6923(4)
C15_4 C 0.8605(4) 0.4471(5) 0.7195(6)
C16_4 C 0.9144(4) 0.4472(5) 0.7079(6)
H19_4 H 0.8544 0.782705 0.977901
O23_3 O 0.5215(3) 0.7533(3) 0.1520(4)
O24_3 O 0.6299(3) 0.7456(4) 0.1084(4)
C17_3 C 0.5092(4) 0.7537(5) 0.0689(5)
C18_3 C 0.5586(4) 0.7519(5) 0.0495(5)
O27_3 O 0.8248(3) 0.6325(4) 0.4426(5)
O28_3 O 0.6660(3) 0.6754(4) 0.3029(5)
O29_3 O 0.3661(4) 0.6811(5) 0.0376(4)
O30_3 O 0.8303(3) 0.8425(4) 0.4655(4)
O31_3 O 0.3690(3) 0.6750(4) 0.1999(5)
O32_3 O 0.5190(3) 0.6234(3) 0.2685(4)
O37 O 0.5234(3) 0.7512(4) 0.3922(4)
H3_5 H 0.686867 0.705872 0.00993673
H20_5 H 0.31804 0.667894 0.0183939
O2_3 O 0.1752(3) 0.6325(4) 0.5574(5)
O4_3 O 0.3340(3) 0.6754(4) 0.6971(5)
O5_3 O 0.6339(4) 0.6811(5) 0.9624(4)
O6_3 O 0.1697(3) 0.8425(4) 0.5345(4)
O8_3 O 0.6310(3) 0.6750(4) 0.8001(5)
O9_3 O 0.4785(3) 0.7533(3) 0.8480(4)
O11_3 O 0.4766(3) 0.7512(4) 0.6078(4)
O12_3 O 0.3701(3) 0.7456(4) 0.8916(4)
O16_3 O 0.4810(3) 0.6234(3) 0.7315(4)
C6_3 C 0.4914(4) 0.7493(5) 0.5503(5)
C7_3 C 0.4908(4) 0.7537(5) 0.9311(5)
C8_3 C 0.4414(4) 0.7519(5) 0.9505(5)
C9_3 C 0.4417(4) 0.7486(5) 0.4334(5)
C19_3 C 0.5086(4) 0.7493(5) 0.4497(5)
C20_3 C 0.5583(4) 0.7486(5) 0.5666(5)
H4_5 H 0.632012 0.612137 0.943655
H19_5 H 0.3544 0.717295 0.977901
H4_6 H 0.367988 0.612137 0.0563448
H19_6 H 0.6456 0.717295 0.0220992
H3_6 H 0.313133 0.705872 0.990063
H20_6 H 0.68196 0.667894 0.981606
O23_4 O 0.0215(3) 0.2533(3) 0.1520(4)
O24_4 O 0.1299(3) 0.2456(4) 0.1084(4)
C17_4 C 0.0092(4) 0.2537(5) 0.0689(5)
C18_4 C 0.0586(4) 0.2519(5) 0.0495(5)
O27_4 O 0.3248(3) 0.1325(4) 0.4426(5)
O28_4 O 0.1660(3) 0.1754(4) 0.3029(5)
O30_4 O 0.3303(3) 0.3425(4) 0.4655(4)
O32_4 O 0.0190(3) 0.1234(3) 0.2685(4)
O37_2 O 0.0234(3) 0.2512(4) 0.3922(4)
H3_7 H 0.186867 0.205872 0.00993673
O5_4 O 0.1339(4) 0.1811(5) 0.9624(4)
O8_4 O 0.1310(3) 0.1750(4) 0.8001(5)
C19_4 C 0.0086(4) 0.2493(5) 0.4497(5)
C20_4 C 0.0583(4) 0.2486(5) 0.5666(5)
H4_7 H 0.132012 0.112137 0.943655
H9_3 H 0.0136807 0.0723666 0.787312
O29_4 O 0.8661(4) 0.1811(5) 0.0376(4)
O31_4 O 0.8690(3) 0.1750(4) 0.1999(5)
H20_7 H 0.81804 0.167894 0.0183939
O2_4 O 0.6752(3) 0.1325(4) 0.5574(5)
O4_4 O 0.8340(3) 0.1754(4) 0.6971(5)
O6_4 O 0.6697(3) 0.3425(4) 0.5345(4)
O9_4 O 0.9785(3) 0.2533(3) 0.8480(4)
O11_4 O 0.9766(3) 0.2512(4) 0.6078(4)
O12_4 O 0.8701(3) 0.2456(4) 0.8916(4)
O16_4 O 0.9810(3) 0.1234(3) 0.7315(4)
C6_4 C 0.9914(4) 0.2493(5) 0.5503(5)
C7_4 C 0.9908(4) 0.2537(5) 0.9311(5)
C8_4 C 0.9414(4) 0.2519(5) 0.9505(5)
C9_4 C 0.9417(4) 0.2486(5) 0.4334(5)
H19_7 H 0.8544 0.217295 0.977901
H19_8 H 0.1456 0.217295 0.0220992
H20_8 H 0.18196 0.167894 0.981606
H4_8 H 0.867988 0.112137 0.0563448
H9_4 H 0.986319 0.0723666 0.212688
H3_8 H 0.813133 0.205872 0.990063
Cl1 Cl 0.29484(17) 0.5000 0.0424(2)
Cl1_2 Cl 0.70516(17) 0.5000 0.9576(2)
Cl1_3 Cl 0.79484(17) -0.0000 0.0424(2)
Cl1_4 Cl 0.79484(17) 1.0000 0.0424(2)
Cl1_5 Cl 0.20516(17) -0.0000 0.9576(2)
Cl1_6 Cl 0.20516(17) 1.0000 0.9576(2)
Cl2 Cl 0.71460(18) 0.5000 0.4531(2)
Cl2_2 Cl 0.28540(18) 0.5000 0.5469(2)
Cl2_3 Cl 0.21460(18) -0.0000 0.4531(2)
Cl2_4 Cl 0.21460(18) 1.0000 0.4531(2)
Cl2_5 Cl 0.78540(18) -0.0000 0.5469(2)
Cl2_6 Cl 0.78540(18) 1.0000 0.5469(2)
loop_
_geom_bond_atom_site_label_1
_geom_bond_atom_site_label_2
_geom_bond_site_symmetry_1
_geom_bond_site_symmetry_2
Eu1 O1 1_555 1_555
Eu2 O2 1_555 1_555
O3 Eu1 1_555 1_555
O4 Eu2 1_555 1_555
O5 Eu1 1_555 1_555
O6 Eu2 1_555 1_555
O7 Eu2 1_555 1_555
O8 Eu1 1_555 1_555
O9 Eu1 1_555 1_555
O10 Eu1 1_555 1_555
O11 Eu1 1_555 1_555
O12 Eu2 1_555 1_555
O13 C9 1_555 1_555
O15 C4 1_555 1_555
O16 Eu1 1_555 1_555
C1 O7 1_555 1_555
C4 C5 1_555 1_555
C5 O3 1_555 1_555
C6 O11 1_555 1_555
C7 O9 1_555 1_555
C8 O12 1_555 1_555
C9 C6 1_555 1_555
C10 O10 1_555 1_555
O25 C19 1_555 1_555
C19 C9 1_555 1_555
O26 C20 1_555 1_555
C20 C6 1_555 1_555
Eu5 O25 1_555 1_555
Eu10 O13 1_555 1_555
Eu11 O15 1_555 1_555
O38 Eu2 1_555 1_555
O40 Eu2 1_555 1_555
O42 Eu2 1_555 1_555
C1 C10 1_555 1_555
C7 C8 1_555 1_555
C19 C20 1_555 1_555
O26 Eu11 1_555 1_555
O5 H4 1_555 1_555
O14 C2 1_555 1_555
C2 C3 1_555 1_555
O23 C17 1_555 1_555
O24 C18 1_555 1_555
Eu5 O23 1_555 1_555
Eu4 O14 1_555 1_555
O27 Eu4 1_555 1_555
O28 Eu4 1_555 1_555
O29 Eu5 1_555 1_555
O30 Eu4 1_555 1_555
O31 Eu5 1_555 1_555
O32 Eu5 1_555 1_555
O33 Eu5 1_555 1_555
O34 Eu5 1_555 1_555
O35 Eu4 1_555 1_555
O36 Eu5 1_555 1_555
O39 Eu4 1_555 1_555
O41 Eu4 1_555 1_555
O24 Eu4 1_555 1_555
C17 C18 1_555 1_555
O29 H20 1_555 1_555
O19 C13 1_555 1_555
O20 C14 1_555 1_555
O21 C15 1_555 1_555
O22 C16 1_555 1_555
Eu6 O17 1_555 1_555
Eu7 O20 1_555 1_555
Eu9 O21 1_555 1_555
O19 Eu6 1_555 1_555
C13 C14 1_555 1_555
O22 Eu6 1_555 1_555
C15 C16 1_555 1_555
C11 C12 1_555 1_555
O18 C12 1_555 1_555
Eu8 O18 1_555 1_555
O40 C2_2 1_555 1_555
C2_2 C3_2 1_555 1_555
O5 H20_2 1_555 1_555
O15_2 C4_2 1_555 1_555
C1_2 O35 1_555 1_555
C4_2 C5_2 1_555 1_555
C5_2 O34 1_555 1_555
C10_2 O36 1_555 1_555
Eu10 O15_2 1_555 1_555
C1_2 C10_2 1_555 1_555
O29 H4_2 1_555 1_555
C11_2 C12_2 1_555 1_555
O18_2 C12_2 1_555 1_555
Eu9 O18_2 1_555 1_555
O19_2 C13_2 1_555 1_555
O20_2 C14_2 1_555 1_555
O21_2 C15_2 1_555 1_555
O22_2 C16_2 1_555 1_555
Eu6_2 O17_2 1_555 1_555
Eu7_2 O20_2 1_555 1_555
Eu8 O21_2 1_555 1_555
O19_2 Eu6_2 1_555 1_555
C13_2 C14_2 1_555 1_555
O22_2 Eu6_2 1_555 1_555
C15_2 C16_2 1_555 1_555
Eu7 O2_2 1_555 1_555
O4_2 Eu7 1_555 1_555
O6_2 Eu7 1_555 1_555
O7_2 Eu7 1_555 1_555
O12_2 Eu7 1_555 1_555
O13_2 C9_2 1_555 1_555
C1_3 O7_2 1_555 1_555
C6_2 O11_2 1_555 1_555
C7_2 O9_2 1_555 1_555
C8_2 O12_2 1_555 1_555
C9_2 C6_2 1_555 1_555
C10_3 O10_2 1_555 1_555
O21_3 C15_3 1_555 1_555
O22_3 C16_3 1_555 1_555
C15_3 C1_3 1_555 1_555
C16_3 C10_3 1_555 1_555
Eu11 O21_3 1_555 1_555
Eu8 O13_2 1_555 1_555
O38_2 Eu7 1_555 1_555
O40_2 Eu7 1_555 1_555
C1_3 C10_3 1_555 1_555
C7_2 C8_2 1_555 1_555
C15_3 C16_3 1_555 1_555
O29_2 Eu5_2 1_555 1_555
O31_2 Eu5_2 1_555 1_555
O33_2 Eu5_2 1_555 1_555
O34_2 Eu5_2 1_555 1_555
O29_2 H20_3 1_555 1_555
Eu1_2 O1_2 1_555 1_555
O3_2 Eu1_2 1_555 1_555
O5_2 Eu1_2 1_555 1_555
O8_2 Eu1_2 1_555 1_555
O15_3 C4_3 1_555 1_555
C4_3 C5_3 1_555 1_555
C5_3 O3_2 1_555 1_555
O19_3 C13_3 1_555 1_555
C13_3 C5_3 1_555 1_555
O42 C14_3 1_555 1_555
C14_3 C4_3 1_555 1_555
O25_2 C19_2 1_555 1_555
O26_2 C20_2 1_555 1_555
Eu6_3 O17_3 1_555 1_555
Eu9 O15_3 1_555 1_555
O19_3 Eu6_3 1_555 1_555
C13_3 C14_3 1_555 1_555
C19_2 C20_2 1_555 1_555
O26_2 Eu9 1_555 1_555
O5_2 H4_3 1_555 1_555
O14_2 C2_3 1_555 1_555
C2_3 C3_3 1_555 1_555
C3_3 C11_3 1_555 1_555
C11_3 C12_3 1_555 1_555
O18_3 C12_3 1_555 1_555
C12_3 C2_3 1_555 1_555
O23_2 C17_2 1_555 1_555
O24_2 C18_2 1_555 1_555
Eu7_2 O14_2 1_555 1_555
O27_2 Eu7_2 1_555 1_555
O28_2 Eu7_2 1_555 1_555
O30_2 Eu7_2 1_555 1_555
Eu10 O18_3 1_555 1_555
O35_2 Eu7_2 1_555 1_555
O39_2 Eu7_2 1_555 1_555
O24_2 Eu7_2 1_555 1_555
C17_2 C18_2 1_555 1_555
O40_2 C2_4 1_555 1_555
C2_4 C3_4 1_555 1_555
C3_4 C11_4 1_555 1_555
C11_4 C12_4 1_555 1_555
O18_4 C12_4 1_555 1_555
C12_4 C2_4 1_555 1_555
Eu11 O18_4 1_555 1_555
O15_4 C4_4 1_555 1_555
C4_4 C5_4 1_555 1_555
C5_4 O34_2 1_555 1_555
O19_4 C13_4 1_555 1_555
C13_4 C5_4 1_555 1_555
O41 C14_4 1_555 1_555
C14_4 C4_4 1_555 1_555
Eu6_4 O17_4 1_555 1_555
Eu8 O15_4 1_555 1_555
O19_4 Eu6_4 1_555 1_555
C13_4 C14_4 1_555 1_555
O29_2 H4_4 1_555 1_555
O5_2 H20_4 1_555 1_555
C1_4 O35_2 1_555 1_555
C10_4 O36_2 1_555 1_555
O21_4 C15_4 1_555 1_555
O22_4 C16_4 1_555 1_555
C15_4 C1_4 1_555 1_555
C16_4 C10_4 1_555 1_555
Eu10 O21_4 1_555 1_555
C1_4 C10_4 1_555 1_555
C15_4 C16_4 1_555 1_555
O23_3 C17_3 1_555 1_555
O24_3 C18_3 1_555 1_555
Eu6 O23_3 1_555 1_555
O27_3 Eu9 1_555 1_555
O28_3 Eu9 1_555 1_555
O29_3 Eu6 1_555 1_555
O30_3 Eu9 1_555 1_555
O31_3 Eu6 1_555 1_555
O32_3 Eu6 1_555 1_555
O37 Eu6 1_555 1_555
O24_3 Eu9 1_555 1_555
C17_3 C18_3 1_555 1_555
O29_3 H20_5 1_555 1_555
Eu8 O2_3 1_555 1_555
O4_3 Eu8 1_555 1_555
O5_3 Eu6_2 1_555 1_555
O6_3 Eu8 1_555 1_555
O8_3 Eu6_2 1_555 1_555
O9_3 Eu6_2 1_555 1_555
O11_3 Eu6_2 1_555 1_555
O12_3 Eu8 1_555 1_555
O38_2 C9_3 1_555 1_555
O16_3 Eu6_2 1_555 1_555
C6_3 O11_3 1_555 1_555
C7_3 O9_3 1_555 1_555
C8_3 O12_3 1_555 1_555
C9_3 C6_3 1_555 1_555
O37 C19_3 1_555 1_555
C19_3 C9_3 1_555 1_555
O39_2 C20_3 1_555 1_555
C20_3 C6_3 1_555 1_555
C7_3 C8_3 1_555 1_555
C19_3 C20_3 1_555 1_555
O5_3 H4_5 1_555 1_555
O29_3 H4_6 1_555 1_555
O5_3 H20_6 1_555 1_555
O23_4 C17_4 1_555 1_555
O24_4 C18_4 1_555 1_555
O27_4 Eu11 1_555 1_555
O28_4 Eu11 1_555 1_555
O30_4 Eu11 1_555 1_555
O24_4 Eu11 1_555 1_555
C17_4 C18_4 1_555 1_555
O5_4 Eu6_4 1_555 1_555
O8_4 Eu6_4 1_555 1_555
O37_2 C19_4 1_555 1_555
O39 C20_4 1_555 1_555
C19_4 C20_4 1_555 1_555
O5_4 H4_7 1_555 1_555
O29_4 Eu6_3 1_555 1_555
O31_4 Eu6_3 1_555 1_555
O29_4 H20_7 1_555 1_555
Eu10 O2_4 1_555 1_555
O4_4 Eu10 1_555 1_555
O6_4 Eu10 1_555 1_555
O12_4 Eu10 1_555 1_555
O38 C9_4 1_555 1_555
C6_4 O11_4 1_555 1_555
C7_4 O9_4 1_555 1_555
C8_4 O12_4 1_555 1_555
C9_4 C6_4 1_555 1_555
C7_4 C8_4 1_555 1_555
O5_4 H20_8 1_555 1_555
O29_4 H4_8 1_555 1_555

#END
