
###############################################################################
#
# This file contains modified crystal structure data generated from the
# MOF subset of the Cambridge Structural Database (CSD) v543 
# hosted by the Cambridge Crystallographic Data Centre (CCDC).
#
# This work is licensed under the Creative Commons
# Attribution-NonCommercial-ShareAlike 4.0 International License.
# To view a copy of this license, visit
# http://creativecommons.org/licenses/by-nc-sa/4.0/
# or send a letter to
# Creative Commons, PO Box 1866, Mountain View, CA 94042, USA.
#
# CIF created using the CSD Python API on 29 September 2022
# The structure has been converted into the P1 space group
# The structure has a 3D framework
# The original CSD entry SUSLAV is in the triclinic crystal system
# The framework has been calculated to contain at least 10.0% void space
# The void calculation uses a probe of radius 1.32A, grid spacing 0.4
#
###############################################################################

data_SUSLAV
_chemical_formula_moiety         '(C44 H32 Cd2 N2 O8)n'
_symmetry_cell_setting           triclinic
_symmetry_space_group_name_H-M   'P 1'
_symmetry_Int_Tables_number      1
_space_group_name_Hall           'P 1'
loop_
_symmetry_equiv_pos_site_id
_symmetry_equiv_pos_as_xyz
1 x,y,z
_cell_length_a                   9.3906(19)
_cell_length_b                   10.325(2)
_cell_length_c                   12.712(3)
_cell_angle_alpha                100.28(3)
_cell_angle_beta                 93.46(3)
_cell_angle_gamma                112.27(3)
_cell_volume                     1111.14
loop_
_atom_site_label
_atom_site_type_symbol
_atom_site_fract_x
_atom_site_fract_y
_atom_site_fract_z
_atom_site_U_iso_or_equiv
_atom_site_thermal_displace_type
O5 O 0.0009(4) 0.3509(3) 0.4816(3) 0.0440 Uani
O6 O 0.1771(4) 0.3835(3) 0.6151(2) 0.0385 Uani
C24 C 0.0330(5) 0.1467(4) 0.5194(3) 0.0263 Uani
C25 C 0.1071(5) 0.0924(4) 0.5864(3) 0.0314 Uani
H18 H 0.1805 0.1553 0.6454 0.0380 Uiso
C26 C 0.0713(5) 0.3030(4) 0.5396(3) 0.0273 Uani
Cd7 Cd 0.18000(4) 0.60488(3) 0.62055(2) 0.0270 Uani
C15 C 0.0753(5) 0.9480(4) 0.5680(3) 0.0322 Uani
H13 H 0.1266 0.9132 0.6145 0.0380 Uiso
N4 N 0.0099(5) 0.5653(4) 0.7494(3) 0.0381 Uani
H30 H 0.0051 0.7563 0.7704 0.0570 Uiso
O7 O 0.3980(4) 0.7005(3) 0.7670(2) 0.0450 Uani
O8 O 0.2912(4) 0.8436(3) 0.7250(2) 0.0401 Uani
C27 C 0.5651(6) 0.9054(5) 0.9585(3) 0.0377 Uani
H19 H 0.6090 0.8406 0.9310 0.0450 Uiso
C28 C 0.4409(5) 0.9111(4) 0.8975(3) 0.0306 Uani
C30 C 0.3736(5) 0.8120(4) 0.7890(3) 0.0327 Uani
N3 N 0.3288(4) 0.6464(4) 0.4836(3) 0.0343 Uani
C31 C 0.3650(5) 0.5421(5) 0.4292(3) 0.0360 Uani
H21 H 0.3355 0.4558 0.4532 0.0430 Uiso
C32 C 0.4412(6) 0.5526(5) 0.3420(3) 0.0380 Uani
H22 H 0.4627 0.4752 0.3069 0.0460 Uiso
C33 C 0.4873(5) 0.6787(5) 0.3048(3) 0.0374 Uani
C34 C 0.4527(6) 0.7869(5) 0.3618(4) 0.0485 Uani
H23 H 0.4832 0.8750 0.3404 0.0590 Uiso
C35 C 0.3751(6) 0.7683(5) 0.4488(4) 0.0463 Uani
H24 H 0.3533 0.8446 0.4857 0.0550 Uiso
C36 C 0.5692(6) 0.6970(6) 0.2118(4) 0.0464 Uani
H25 H 0.5916 0.7836 0.1892 0.0560 Uiso
C37 C 0.6151(6) 0.6025(5) 0.1561(3) 0.0437 Uani
H26 H 0.5895 0.5144 0.1769 0.0520 Uiso
C38 C 0.7009(6) 0.6236(6) 0.0664(4) 0.0464 Uani
H27 H 0.7280 0.7117 0.0454 0.0560 Uiso
C39 C 0.7441(6) 0.5264(6) 0.0118(4) 0.0471 Uani
H28 H 0.7144 0.4388 0.0338 0.0560 Uiso
C23 C 0.9247(5) 0.0520(4) 0.4320(3) 0.0322 Uani
H17 H 0.8734 0.0868 0.3855 0.0380 Uiso
Cd4 Cd 0.82000(4) 0.39512(3) 0.37945(2) 0.0270 Uani
N1 N 0.6712(4) 0.3536(4) 0.5164(3) 0.0343 Uani
O1 O 0.9991(4) 0.6491(3) 0.5184(3) 0.0440 Uani
O2 O 0.8229(4) 0.6165(3) 0.3849(2) 0.0385 Uani
O3 O 0.6020(4) 0.2995(3) 0.2330(2) 0.0450 Uani
O4 O 0.7088(4) 0.1564(3) 0.2750(2) 0.0401 Uani
C1 C 0.6350(5) 0.4579(5) 0.5708(3) 0.0360 Uani
H1 H 0.6645 0.5442 0.5468 0.0430 Uiso
C2 C 0.5588(6) 0.4474(5) 0.6580(3) 0.0380 Uani
H2 H 0.5373 0.5248 0.6931 0.0460 Uiso
C3 C 0.5127(5) 0.3213(5) 0.6952(3) 0.0374 Uani
C4 C 0.5473(6) 0.2131(5) 0.6382(4) 0.0485 Uani
H3 H 0.5168 0.1250 0.6596 0.0590 Uiso
C5 C 0.6249(6) 0.2317(5) 0.5512(4) 0.0463 Uani
H4 H 0.6467 0.1554 0.5143 0.0550 Uiso
C6 C 0.4308(6) 0.3030(6) 0.7882(4) 0.0464 Uani
H5 H 0.4084 0.2164 0.8108 0.0560 Uiso
C7 C 0.3849(6) 0.3975(5) 0.8439(3) 0.0437 Uani
H6 H 0.4105 0.4856 0.8231 0.0520 Uiso
C8 C 0.2991(6) 0.3764(6) 0.9336(4) 0.0464 Uani
H7 H 0.2720 0.2883 0.9546 0.0560 Uiso
C9 C 0.2559(6) 0.4736(6) 0.9882(4) 0.0471 Uani
H8 H 0.2856 0.5612 0.9662 0.0560 Uiso
C16 C 0.9670(5) 0.8533(4) 0.4806(3) 0.0263 Uani
C17 C 0.8929(5) 0.9076(4) 0.4136(3) 0.0314 Uani
H14 H 0.8195 0.8447 0.3546 0.0380 Uiso
C18 C 0.9287(5) 0.6970(4) 0.4604(3) 0.0273 Uani
C19 C 0.4349(6) 0.0946(5) 0.0415(3) 0.0377 Uani
H15 H 0.3910 0.1594 0.0690 0.0450 Uiso
C20 C 0.5591(5) 0.0889(4) 0.1025(3) 0.0306 Uani
C22 C 0.6264(5) 0.1880(4) 0.2110(3) 0.0327 Uani
N5 N 0.9901(5) 0.4347(4) 0.2506(3) 0.0381 Uani
H10 H 0.9949 0.2437 0.2296 0.0570 Uiso
C10 C 0.1668(6) 0.4600(5) 0.0795(3) 0.0399 Uani
C11 C 0.1140(7) 0.3357(5) 0.1197(4) 0.0499 Uani
H9 H 0.1369 0.2571 0.0894 0.0600 Uiso
C12 C 0.0285(6) 0.3285(5) 0.2035(4) 0.0474 Uani
C13 C 0.0398(6) 0.5541(5) 0.2119(3) 0.0435 Uani
H11 H 0.0140 0.6304 0.2432 0.0530 Uiso
C14 C 0.1274(6) 0.5700(5) 0.1283(3) 0.0460 Uani
H12 H 0.1606 0.6564 0.1044 0.0550 Uiso
C29 C 0.3755(5) 0.0050(4) 0.9402(3) 0.0348 Uani
H20 H 0.2898 0.0081 0.9001 0.0420 Uiso
C21 C 0.6245(5) 0.9950(4) 0.0598(3) 0.0348 Uani
H16 H 0.7102 0.9919 0.0999 0.0420 Uiso
C40 C 0.8332(6) 0.5400(5) 0.9205(3) 0.0399 Uani
C41 C 0.8860(7) 0.6643(5) 0.8803(4) 0.0499 Uani
H29 H 0.8631 0.7429 0.9106 0.0600 Uiso
C42 C 0.9715(6) 0.6715(5) 0.7965(4) 0.0474 Uani
C43 C 0.9602(6) 0.4459(5) 0.7881(3) 0.0435 Uani
H31 H 0.9860 0.3696 0.7568 0.0530 Uiso
C44 C 0.8726(6) 0.4300(5) 0.8717(3) 0.0460 Uani
H32 H 0.8394 0.3436 0.8956 0.0550 Uiso
loop_
_atom_site_aniso_label
_atom_site_aniso_U_11
_atom_site_aniso_U_22
_atom_site_aniso_U_33
_atom_site_aniso_U_23
_atom_site_aniso_U_13
_atom_site_aniso_U_12
O5 0.043 0.0235 0.064 0.0086 -0.0049 0.0137
O6 0.045 0.022 0.041 -0.0005 -0.0019 0.0095
C24 0.026 0.021 0.03 0.0016 0.0034 0.009
C25 0.034 0.021 0.034 0.0004 -0.005 0.0091
C26 0.028 0.023 0.032 0.005 0.0111 0.0107
Cd7 0.0321 0.01938 0.02592 -0.00053 0.00222 0.00891
C15 0.034 0.026 0.036 0.0076 -0.0025 0.012
N4 0.046 0.035 0.033 0.0032 0.0136 0.0164
O7 0.062 0.0315 0.0375 -0.0085 -0.009 0.0236
O8 0.05 0.0318 0.0322 0.0002 -0.0096 0.0146
C27 0.046 0.034 0.034 -0.0026 0 0.022
C28 0.038 0.021 0.028 0.0042 -0.0001 0.0078
C30 0.034 0.022 0.033 0.0007 0.001 0.004
N3 0.037 0.027 0.033 0.0024 0 0.0087
C31 0.039 0.031 0.042 0.0122 0.014 0.015
C32 0.04 0.036 0.043 0.012 0.013 0.018
C33 0.031 0.044 0.036 0.012 0.006 0.012
C34 0.061 0.035 0.059 0.022 0.024 0.022
C35 0.053 0.03 0.056 0.009 0.02 0.015
C36 0.049 0.053 0.048 0.024 0.016 0.025
C37 0.042 0.052 0.039 0.014 0.011 0.018
C38 0.045 0.06 0.038 0.016 0.011 0.022
C39 0.048 0.051 0.037 0.013 0.015 0.011
C23 0.034 0.026 0.036 0.0076 -0.0025 0.012
Cd4 0.0321 0.01938 0.02592 -0.00053 0.00222 0.00891
N1 0.037 0.027 0.033 0.0024 0 0.0087
O1 0.043 0.0235 0.064 0.0086 -0.0049 0.0137
O2 0.045 0.022 0.041 -0.0005 -0.0019 0.0095
O3 0.062 0.0315 0.0375 -0.0085 -0.009 0.0236
O4 0.05 0.0318 0.0322 0.0002 -0.0096 0.0146
C1 0.039 0.031 0.042 0.0122 0.014 0.015
C2 0.04 0.036 0.043 0.012 0.013 0.018
C3 0.031 0.044 0.036 0.012 0.006 0.012
C4 0.061 0.035 0.059 0.022 0.024 0.022
C5 0.053 0.03 0.056 0.009 0.02 0.015
C6 0.049 0.053 0.048 0.024 0.016 0.025
C7 0.042 0.052 0.039 0.014 0.011 0.018
C8 0.045 0.06 0.038 0.016 0.011 0.022
C9 0.048 0.051 0.037 0.013 0.015 0.011
C16 0.026 0.021 0.03 0.0016 0.0034 0.009
C17 0.034 0.021 0.034 0.0004 -0.005 0.0091
C18 0.028 0.023 0.032 0.005 0.0111 0.0107
C19 0.046 0.034 0.034 -0.0026 0 0.022
C20 0.038 0.021 0.028 0.0042 -0.0001 0.0078
C22 0.034 0.022 0.033 0.0007 0.001 0.004
N5 0.046 0.035 0.033 0.0032 0.0136 0.0164
C10 0.038 0.049 0.031 0.006 0.008 0.016
C11 0.065 0.048 0.047 0.012 0.028 0.03
C12 0.064 0.045 0.046 0.019 0.031 0.028
C13 0.059 0.035 0.036 0.002 0.012 0.02
C14 0.054 0.038 0.041 0.012 0.015 0.01
C29 0.039 0.028 0.034 0.0003 -0.006 0.014
C21 0.039 0.028 0.034 0.0003 -0.006 0.014
C40 0.038 0.049 0.031 0.006 0.008 0.016
C41 0.065 0.048 0.047 0.012 0.028 0.03
C42 0.064 0.045 0.046 0.019 0.031 0.028
C43 0.059 0.035 0.036 0.002 0.012 0.02
C44 0.054 0.038 0.041 0.012 0.015 0.01
loop_
_geom_bond_atom_site_label_1
_geom_bond_atom_site_label_2
_geom_bond_site_symmetry_1
_geom_bond_site_symmetry_2
O5 C26 1_555 1_555
O6 C26 1_555 1_555
H18 C25 1_555 1_555
C26 C24 1_555 1_555
Cd7 O5 1_555 1_555
O6 Cd7 1_555 1_555
C24 C25 1_555 1_555
C15 H13 1_555 1_555
Cd7 N4 1_555 1_555
O7 C30 1_555 1_555
O8 C30 1_555 1_555
H19 C27 1_555 1_555
C28 C27 1_555 1_555
C30 C28 1_555 1_555
Cd7 O7 1_555 1_555
N3 Cd7 1_555 1_555
C31 N3 1_555 1_555
H21 C31 1_555 1_555
C32 C31 1_555 1_555
H22 C32 1_555 1_555
C33 C32 1_555 1_555
C34 C33 1_555 1_555
H23 C34 1_555 1_555
C35 N3 1_555 1_555
H24 C35 1_555 1_555
C36 C33 1_555 1_555
H25 C36 1_555 1_555
C37 C36 1_555 1_555
H26 C37 1_555 1_555
C38 C37 1_555 1_555
H27 C38 1_555 1_555
C39 C38 1_555 1_555
H28 C39 1_555 1_555
O8 Cd7 1_555 1_555
C34 C35 1_555 1_555
H17 C23 1_555 1_555
Cd4 N1 1_555 1_555
N1 C1 1_555 1_555
O1 Cd4 1_555 1_555
O2 Cd4 1_555 1_555
O3 Cd4 1_555 1_555
O4 Cd4 1_555 1_555
C1 H1 1_555 1_555
C2 C1 1_555 1_555
H2 C2 1_555 1_555
C3 C2 1_555 1_555
C4 C3 1_555 1_555
H3 C4 1_555 1_555
C5 N1 1_555 1_555
H4 C5 1_555 1_555
C6 C3 1_555 1_555
H5 C6 1_555 1_555
C7 C6 1_555 1_555
H6 C7 1_555 1_555
C8 C7 1_555 1_555
H7 C8 1_555 1_555
C9 C8 1_555 1_555
H8 C9 1_555 1_555
C17 C16 1_555 1_555
H14 C17 1_555 1_555
C18 O1 1_555 1_555
C19 H15 1_555 1_555
C20 C19 1_555 1_555
C22 O3 1_555 1_555
N5 Cd4 1_555 1_555
O2 C18 1_555 1_555
O4 C22 1_555 1_555
C4 C5 1_555 1_555
C16 C18 1_555 1_555
C20 C22 1_555 1_555
C11 C10 1_555 1_555
H9 C11 1_555 1_555
C12 C11 1_555 1_555
H11 C13 1_555 1_555
C14 C10 1_555 1_555
H12 C14 1_555 1_555
C13 C14 1_555 1_555
H20 C29 1_555 1_555
H16 C21 1_555 1_555
C41 C40 1_555 1_555
H29 C41 1_555 1_555
C42 C41 1_555 1_555
H31 C43 1_555 1_555
C44 C40 1_555 1_555
H32 C44 1_555 1_555
C43 C44 1_555 1_555

#END
