
###############################################################################
#
# This file contains modified crystal structure data generated from the
# MOF subset of the Cambridge Structural Database (CSD) v543 
# hosted by the Cambridge Crystallographic Data Centre (CCDC).
#
# This work is licensed under the Creative Commons
# Attribution-NonCommercial-ShareAlike 4.0 International License.
# To view a copy of this license, visit
# http://creativecommons.org/licenses/by-nc-sa/4.0/
# or send a letter to
# Creative Commons, PO Box 1866, Mountain View, CA 94042, USA.
#
# CIF created using the CSD Python API on 29 September 2022
# The structure has been converted into the P1 space group
# The structure has a 3D framework
# The original CSD entry SUWCIY is in the triclinic crystal system
# The framework has been calculated to contain at least 10.0% void space
# The void calculation uses a probe of radius 1.32A, grid spacing 0.4
#
###############################################################################

data_SUWCIY
_chemical_formula_moiety         '(C80 H48 N36 O12 Zn6)n'
_symmetry_cell_setting           triclinic
_symmetry_space_group_name_H-M   'P 1'
_symmetry_Int_Tables_number      1
_space_group_name_Hall           'P 1'
loop_
_symmetry_equiv_pos_site_id
_symmetry_equiv_pos_as_xyz
1 x,y,z
_cell_length_a                   11.242(5)
_cell_length_b                   15.741(7)
_cell_length_c                   16.186(7)
_cell_angle_alpha                115.215(7)
_cell_angle_beta                 101.661(7)
_cell_angle_gamma                103.396(6)
_cell_volume                     2369.03
loop_
_atom_site_label
_atom_site_type_symbol
_atom_site_fract_x
_atom_site_fract_y
_atom_site_fract_z
Zn3 Zn 0.20155(8) 0.07820(7) 0.71652(6)
O3 O 0.0081(6) 0.0525(5) 0.6914(6)
N20 N 0.3504(6) 0.1356(5) 0.8433(4)
N22 N 0.2268(6) 0.2001(5) 0.6966(5)
O4 O 0.0717(5) 0.9743(5) 0.7668(4)
N23 N 0.2346(6) 0.9696(5) 0.6119(5)
H17 H 0.4337 0.0022 0.6616
C31 C 0.8074(7) 0.0261(6) 0.7941(6)
H19 H 0.8595 0.0939 0.8317
H20 H 0.6616 0.0356 0.8497
Zn1 Zn 0.76441(7) 0.61691(6) 0.42907(6)
Zn2 Zn 0.59383(7) 0.20698(6) 0.11570(6)
C1 C 0.2713(8) 0.4111(7) 0.2877(7)
H1 H 0.2441 0.3527 0.2280
C2 C 0.1800(9) 0.4447(7) 0.3221(7)
H2 H 0.0922 0.4096 0.2850
C3 C 0.2172(7) 0.5314(6) 0.4128(5)
C4 C 0.3452(7) 0.5774(7) 0.4643(6)
H3 H 0.3713 0.6335 0.5255
C5 C 0.4401(8) 0.5464(6) 0.4318(6)
H4 H 0.5273 0.5811 0.4707
C6 C 0.4038(6) 0.4622(5) 0.3397(5)
C7 C 0.4997(7) 0.4266(5) 0.3004(5)
C8 C 0.1192(7) 0.5700(6) 0.4454(5)
C10 C 0.0403(7) 0.6743(6) 0.5405(6)
H6 H 0.0358 0.7274 0.5936
C11 C 0.2344(7) 0.1147(6) 0.0302(5)
H7 H 0.2861 0.0794 0.0408
C12 C 0.1347(6) 0.1204(5) 0.0684(5)
H8 H 0.1189 0.0880 0.1038
C13 C 0.0588(7) 0.1740(5) 0.0543(5)
C14 C 0.0826(7) 0.2220(6) 0.0000(6)
C21 C 0.6602(7) 0.8846(6) 0.4806(5)
H13 H 0.7476 0.9256 0.5108
C22 C 0.5674(8) 0.9140(6) 0.5208(5)
H14 H 0.5944 0.9747 0.5783
C23 C 0.4350(7) 0.8539(6) 0.4765(6)
C24 C 0.3990(9) 0.7641(7) 0.3938(7)
H15 H 0.3120 0.7221 0.3642
C25 C 0.4900(8) 0.7340(7) 0.3527(7)
H16 H 0.4631 0.6728 0.2958
C26 C 0.6205(7) 0.7951(6) 0.3967(5)
C27 C 0.3399(7) 0.8884(5) 0.5188(6)
C28 C 0.3554(8) 0.9629(6) 0.6100(6)
C29 C 0.1526(9) 0.9042(7) 0.5260(7)
H18 H 0.0644 0.8941 0.5069
C30 C 0.7136(7) 0.7601(6) 0.3493(5)
C32 C 0.6877(7) 0.9911(6) 0.8040(5)
C33 C 0.6089(6) 0.8924(5) 0.7473(5)
C34 C 0.6468(7) 0.8268(5) 0.6786(5)
H21 H 0.5906 0.7604 0.6380
C35 C 0.7660(6) 0.8571(5) 0.6685(5)
C36 C 0.8483(7) 0.9583(5) 0.7274(5)
C37 C 0.9865(8) 0.9960(6) 0.7280(5)
C38 C 0.8028(7) 0.7858(5) 0.5909(5)
C39 C 0.4823(7) 0.8509(5) 0.7596(5)
N1 N 0.6301(5) 0.4773(4) 0.3363(4)
N2 N 0.6792(5) 0.4165(4) 0.2763(4)
N3 N 0.5851(5) 0.3373(5) 0.2105(4)
N4 N 0.4689(6) 0.3384(4) 0.2213(4)
N6 N 0.1490(6) 0.6539(5) 0.5337(4)
H22 H 0.2250 0.6880 0.5775
N13 N 0.7477(6) 0.6831(5) 0.3443(5)
N14 N 0.8281(7) 0.6736(5) 0.2915(5)
N15 N 0.8411(7) 0.7410(5) 0.2665(5)
N16 N 0.7732(6) 0.7999(5) 0.3034(5)
N18 N 0.2097(7) 0.8523(5) 0.4673(5)
H24 H 0.1712 0.8048 0.4079
O1 O 0.8946(5) 0.8182(4) 0.5677(4)
O2 O 0.7292(5) 0.6930(4) 0.5462(4)
O5 O 0.4876(5) 0.8900(4) 0.8489(3)
O6 O 0.3874(5) 0.7853(4) 0.6895(4)
Zn6 Zn 0.40617(7) 0.79302(6) 0.88430(6)
Zn9 Zn 0.79845(8) 0.92180(7) 0.28348(6)
N19 N 0.9405(6) 0.6072(5) 0.4599(5)
N21 N 0.7675(5) 0.1984(5) 0.1212(4)
O7 O 0.5124(5) 0.1100(4) 0.1511(3)
C14_2 C 0.0826(7) 0.2220(6) 1.0000(6)
H9 H 0.0316 0.2577 0.9896
C15 C 0.1825(7) 0.2159(6) 0.9620(5)
H10 H 0.1995 0.2484 0.9270
C16 C 0.2566(7) 0.1614(5) 0.9765(5)
C17 C 0.3633(7) 0.1551(5) 0.9345(5)
N7 N 0.4866(6) 0.1729(5) 0.9827(4)
N8 N 0.5499(6) 0.1627(5) 0.9169(4)
N9 N 0.4709(6) 0.1419(5) 0.8361(5)
C9 C 0.9890(7) 0.5410(6) 0.3994(5)
H5 H 0.9406 0.4861 0.3379
C18 C 0.9502(7) 0.1800(6) 0.0910(5)
C19 C 0.8504(7) 0.2145(6) 0.0735(5)
H11 H 0.8410 0.2443 0.0350
C20 C 0.8121(7) 0.1532(6) 0.1654(5)
H12 H 0.7730 0.1326 0.2025
N12 N 0.9219(6) 0.1403(5) 0.1500(5)
H23 H 0.9664 0.1125 0.1727
C9_2 C 0.0110(7) 0.4590(6) 0.6006(5)
H5_2 H 0.0594 0.5139 0.6621
C18_2 C 0.0498(7) 0.8200(6) 0.9090(5)
C19_2 C 0.1496(7) 0.7855(6) 0.9265(5)
H11_2 H 0.1590 0.7557 0.9650
C20_2 C 0.1879(7) 0.8468(6) 0.8346(5)
H12_2 H 0.2270 0.8674 0.7975
N5 N 0.0595(6) 0.3928(5) 0.5401(5)
N11 N 0.2325(5) 0.8016(5) 0.8788(4)
N12_2 N 0.0781(6) 0.8597(5) 0.8500(5)
H23_2 H 0.0336 0.8875 0.8273
Zn4 Zn 0.23559(7) 0.38309(6) 0.57093(6)
C14_3 C 0.9174(7) 0.7780(6) 0.0000(6)
H9_2 H 0.9684 0.7423 0.0104
C15_2 C 0.8175(7) 0.7841(6) 0.0380(5)
H10_2 H 0.8005 0.7516 0.0730
C16_2 C 0.7434(7) 0.8386(5) 0.0235(5)
C17_2 C 0.6367(7) 0.8449(5) 0.0655(5)
N7_2 N 0.5134(6) 0.8271(5) 0.0173(4)
N8_2 N 0.4501(6) 0.8373(5) 0.0831(4)
N9_2 N 0.5291(6) 0.8581(5) 0.1639(5)
N10 N 0.6496(6) 0.8644(5) 0.1567(4)
C1_2 C 0.7287(8) 0.5889(7) 0.7123(7)
H1_2 H 0.7559 0.6473 0.7720
C2_2 C 0.8200(9) 0.5553(7) 0.6779(7)
H2_2 H 0.9078 0.5904 0.7150
C3_2 C 0.7828(7) 0.4686(6) 0.5872(5)
C4_2 C 0.6548(7) 0.4226(7) 0.5357(6)
H3_2 H 0.6287 0.3665 0.4745
C5_2 C 0.5599(8) 0.4536(6) 0.5682(6)
H4_2 H 0.4727 0.4189 0.5293
C6_2 C 0.5962(6) 0.5378(5) 0.6603(5)
C7_2 C 0.5003(7) 0.5734(5) 0.6996(5)
C8_2 C 0.8808(7) 0.4300(6) 0.5546(5)
C10_2 C 0.9597(7) 0.3257(6) 0.4595(6)
H6_2 H 0.9642 0.2726 0.4064
C11_2 C 0.7656(7) 0.8853(6) 0.9698(5)
H7_2 H 0.7139 0.9206 0.9592
C12_2 C 0.8653(6) 0.8796(5) 0.9316(5)
H8_2 H 0.8811 0.9120 0.8962
C13_2 C 0.9412(7) 0.8260(5) 0.9457(5)
C14_4 C 0.9174(7) 0.7780(6) 1.0000(6)
C21_2 C 0.3398(7) 0.1154(6) 0.5194(5)
H13_2 H 0.2524 0.0744 0.4892
C22_2 C 0.4326(8) 0.0860(6) 0.4792(5)
H14_2 H 0.4056 0.0253 0.4217
C23_2 C 0.5650(7) 0.1461(6) 0.5235(6)
C24_2 C 0.6010(9) 0.2359(7) 0.6062(7)
H15_2 H 0.6880 0.2779 0.6358
C25_2 C 0.5100(8) 0.2660(7) 0.6473(7)
H16_2 H 0.5369 0.3272 0.7042
C26_2 C 0.3795(7) 0.2049(6) 0.6033(5)
C27_2 C 0.6601(7) 0.1116(5) 0.4812(6)
C28_2 C 0.6446(8) 0.0371(6) 0.3900(6)
C29_2 C 0.8474(9) 0.0958(7) 0.4740(7)
H18_2 H 0.9356 0.1059 0.4931
C30_2 C 0.2864(7) 0.2399(6) 0.6507(5)
C32_2 C 0.3123(7) 0.0089(6) 0.1960(5)
C33_2 C 0.3911(6) 0.1076(5) 0.2527(5)
C34_2 C 0.3532(7) 0.1732(5) 0.3214(5)
H21_2 H 0.4094 0.2396 0.3620
C35_2 C 0.2340(6) 0.1429(5) 0.3315(5)
C36_2 C 0.1517(7) 0.0417(5) 0.2726(5)
C37_2 C 0.0135(8) 0.0040(6) 0.2720(5)
C38_2 C 0.1972(7) 0.2142(5) 0.4091(5)
C39_2 C 0.5177(7) 0.1491(5) 0.2404(5)
N1_2 N 0.3699(5) 0.5227(4) 0.6637(4)
N2_2 N 0.3208(5) 0.5835(4) 0.7237(4)
N3_2 N 0.4149(5) 0.6627(5) 0.7895(4)
N4_2 N 0.5311(6) 0.6616(4) 0.7787(4)
N6_2 N 0.8510(6) 0.3461(5) 0.4663(4)
H22_2 H 0.7750 0.3120 0.4225
N13_2 N 0.2523(6) 0.3169(5) 0.6557(5)
N14_2 N 0.1719(7) 0.3264(5) 0.7085(5)
N15_2 N 0.1589(7) 0.2590(5) 0.7335(5)
N17 N 0.7654(6) 0.0304(5) 0.3881(5)
N18_2 N 0.7903(7) 0.1477(5) 0.5327(5)
H24_2 H 0.8288 0.1952 0.5921
O1_2 O 0.1054(5) 0.1818(4) 0.4323(4)
O2_2 O 0.2708(5) 0.3070(4) 0.4538(4)
O6_2 O 0.6126(5) 0.2147(4) 0.3105(4)
H17_2 H 0.5663 0.9978 0.3384
C31_2 C 0.1926(7) 0.9739(6) 0.2059(6)
H19_2 H 0.1405 0.9061 0.1683
H20_2 H 0.3384 0.9644 0.1503
O4_2 O 0.9283(5) 0.0257(5) 0.2332(4)
O3_2 O 0.9919(6) 0.9475(5) 0.3086(6)
loop_
_geom_bond_atom_site_label_1
_geom_bond_atom_site_label_2
_geom_bond_site_symmetry_1
_geom_bond_site_symmetry_2
Zn3 O3 1_555 1_555
N20 Zn3 1_555 1_555
N22 Zn3 1_555 1_555
C31 H19 1_555 1_555
Zn1 N1 1_555 1_555
Zn2 N3 1_555 1_555
C1 H1 1_555 1_555
C2 C1 1_555 1_555
H2 C2 1_555 1_555
C3 C2 1_555 1_555
C4 C3 1_555 1_555
H3 C4 1_555 1_555
C5 C4 1_555 1_555
H4 C5 1_555 1_555
C6 C1 1_555 1_555
C7 C6 1_555 1_555
C8 C3 1_555 1_555
C10 H6 1_555 1_555
C11 H7 1_555 1_555
C12 C11 1_555 1_555
H8 C12 1_555 1_555
C13 C12 1_555 1_555
C14 C13 1_555 1_555
C21 H13 1_555 1_555
C22 C21 1_555 1_555
H14 C22 1_555 1_555
C23 C22 1_555 1_555
C24 C23 1_555 1_555
H15 C24 1_555 1_555
C25 C24 1_555 1_555
H16 C25 1_555 1_555
C26 C21 1_555 1_555
C27 C23 1_555 1_555
C28 C27 1_555 1_555
C29 H18 1_555 1_555
C30 C26 1_555 1_555
C33 C32 1_555 1_555
C34 C33 1_555 1_555
H21 C34 1_555 1_555
C35 C34 1_555 1_555
C37 C36 1_555 1_555
C38 C35 1_555 1_555
C39 C33 1_555 1_555
N1 C7 1_555 1_555
N2 N1 1_555 1_555
N3 N2 1_555 1_555
N4 C7 1_555 1_555
N6 C8 1_555 1_555
H22 N6 1_555 1_555
N13 Zn1 1_555 1_555
N14 N13 1_555 1_555
N15 N14 1_555 1_555
N16 C30 1_555 1_555
N23 C28 1_555 1_555
N18 C27 1_555 1_555
H24 N18 1_555 1_555
O1 C38 1_555 1_555
O2 Zn1 1_555 1_555
O5 C39 1_555 1_555
O6 C39 1_555 1_555
Zn6 O5 1_555 1_555
Zn9 N16 1_555 1_555
N19 Zn1 1_555 1_555
N21 Zn2 1_555 1_555
O7 Zn2 1_555 1_555
C5 C6 1_555 1_555
C10 N6 1_555 1_555
C25 C26 1_555 1_555
C29 N23 1_555 1_555
C29 N18 1_555 1_555
C30 N13 1_555 1_555
C35 C36 1_555 1_555
C38 O2 1_555 1_555
N3 N4 1_555 1_555
N15 N16 1_555 1_555
H9 C14_2 1_555 1_555
C15 C14_2 1_555 1_555
H10 C15 1_555 1_555
C17 C16 1_555 1_555
N8 N7 1_555 1_555
N9 N8 1_555 1_555
N20 C17 1_555 1_555
C15 C16 1_555 1_555
C17 N7 1_555 1_555
N9 N20 1_555 1_555
H5 C9 1_555 1_555
C19 C18 1_555 1_555
H11 C19 1_555 1_555
C20 H12 1_555 1_555
N19 C9 1_555 1_555
N21 C19 1_555 1_555
N12 C18 1_555 1_555
H23 N12 1_555 1_555
C20 N21 1_555 1_555
C20 N12 1_555 1_555
H5_2 C9_2 1_555 1_555
C19_2 C18_2 1_555 1_555
H11_2 C19_2 1_555 1_555
C20_2 H12_2 1_555 1_555
N5 C9_2 1_555 1_555
N11 C19_2 1_555 1_555
N12_2 C18_2 1_555 1_555
H23_2 N12_2 1_555 1_555
Zn4 N5 1_555 1_555
Zn6 N11 1_555 1_555
C20_2 N11 1_555 1_555
C20_2 N12_2 1_555 1_555
H9_2 C14_3 1_555 1_555
C15_2 C14_3 1_555 1_555
H10_2 C15_2 1_555 1_555
C17_2 C16_2 1_555 1_555
N8_2 N7_2 1_555 1_555
N9_2 N8_2 1_555 1_555
N10 C17_2 1_555 1_555
Zn9 N10 1_555 1_555
C15_2 C16_2 1_555 1_555
C17_2 N7_2 1_555 1_555
N9_2 N10 1_555 1_555
Zn4 N1_2 1_555 1_555
Zn6 N3_2 1_555 1_555
C1_2 H1_2 1_555 1_555
C2_2 C1_2 1_555 1_555
H2_2 C2_2 1_555 1_555
C3_2 C2_2 1_555 1_555
C4_2 C3_2 1_555 1_555
H3_2 C4_2 1_555 1_555
C5_2 C4_2 1_555 1_555
H4_2 C5_2 1_555 1_555
C6_2 C1_2 1_555 1_555
C7_2 C6_2 1_555 1_555
C8_2 C3_2 1_555 1_555
C10_2 H6_2 1_555 1_555
C11_2 H7_2 1_555 1_555
C12_2 C11_2 1_555 1_555
H8_2 C12_2 1_555 1_555
C13_2 C12_2 1_555 1_555
C14_4 C13_2 1_555 1_555
C21_2 H13_2 1_555 1_555
C22_2 C21_2 1_555 1_555
H14_2 C22_2 1_555 1_555
C23_2 C22_2 1_555 1_555
C24_2 C23_2 1_555 1_555
H15_2 C24_2 1_555 1_555
C25_2 C24_2 1_555 1_555
H16_2 C25_2 1_555 1_555
C26_2 C21_2 1_555 1_555
C27_2 C23_2 1_555 1_555
C28_2 C27_2 1_555 1_555
C29_2 H18_2 1_555 1_555
C30_2 C26_2 1_555 1_555
C33_2 C32_2 1_555 1_555
C34_2 C33_2 1_555 1_555
H21_2 C34_2 1_555 1_555
C35_2 C34_2 1_555 1_555
C37_2 C36_2 1_555 1_555
C38_2 C35_2 1_555 1_555
C39_2 C33_2 1_555 1_555
N1_2 C7_2 1_555 1_555
N2_2 N1_2 1_555 1_555
N3_2 N2_2 1_555 1_555
N4_2 C7_2 1_555 1_555
N6_2 C8_2 1_555 1_555
H22_2 N6_2 1_555 1_555
N13_2 Zn4 1_555 1_555
N14_2 N13_2 1_555 1_555
N15_2 N14_2 1_555 1_555
N22 C30_2 1_555 1_555
N17 C28_2 1_555 1_555
N18_2 C27_2 1_555 1_555
H24_2 N18_2 1_555 1_555
O1_2 C38_2 1_555 1_555
O2_2 Zn4 1_555 1_555
O7 C39_2 1_555 1_555
O6_2 C39_2 1_555 1_555
C5_2 C6_2 1_555 1_555
C10_2 N6_2 1_555 1_555
C25_2 C26_2 1_555 1_555
C29_2 N17 1_555 1_555
C29_2 N18_2 1_555 1_555
C30_2 N13_2 1_555 1_555
C35_2 C36_2 1_555 1_555
C38_2 O2_2 1_555 1_555
N3_2 N4_2 1_555 1_555
N15_2 N22 1_555 1_555
C31_2 H19_2 1_555 1_555
Zn9 O3_2 1_555 1_555

#END
