
###############################################################################
#
# This file contains modified crystal structure data generated from the
# MOF subset of the Cambridge Structural Database (CSD) v543 
# hosted by the Cambridge Crystallographic Data Centre (CCDC).
#
# This work is licensed under the Creative Commons
# Attribution-NonCommercial-ShareAlike 4.0 International License.
# To view a copy of this license, visit
# http://creativecommons.org/licenses/by-nc-sa/4.0/
# or send a letter to
# Creative Commons, PO Box 1866, Mountain View, CA 94042, USA.
#
# CIF created using the CSD Python API on 29 September 2022
# The structure has been converted into the P1 space group
# The structure has a 3D framework
# The original CSD entry SUXTAI is in the monoclinic crystal system
# The framework has been calculated to contain at least 10.0% void space
# The void calculation uses a probe of radius 1.32A, grid spacing 0.4
#
###############################################################################

data_SUXTAI
_chemical_formula_moiety         '(C96 H48 O48 Sc9)n'
_symmetry_cell_setting           triclinic
_symmetry_space_group_name_H-M   'P 1'
_symmetry_Int_Tables_number      1
_space_group_name_Hall           'P 1'
loop_
_symmetry_equiv_pos_site_id
_symmetry_equiv_pos_as_xyz
1 x,y,z
_cell_length_a                   8.7007(13)
_cell_length_b                   34.271(3)
_cell_length_c                   11.0753(12)
_cell_angle_alpha                90
_cell_angle_beta                 111.047(9)
_cell_angle_gamma                90
_cell_volume                     3082.13
loop_
_atom_site_label
_atom_site_type_symbol
_atom_site_fract_x
_atom_site_fract_y
_atom_site_fract_z
Sc1 Sc -0.0000 0.63397(12) 0.7500
O3 O 0.1046(14) 0.5905(3) 0.6744(13)
O4 O 0.3326(14) 0.5688(4) 0.6561(12)
O5 O 0.1085(15) 0.6782(4) 0.6746(12)
O6 O 0.3401(15) 0.6575(4) 0.6633(13)
C5 C 0.1844(14) 0.5654(4) 0.6421(18)
C6 C 0.0900(13) 0.5313(4) 0.5691(17)
C8 C 0.1625(12) 0.5044(4) 0.5160(18)
C9 C 0.2210(17) 0.6806(4) 0.6328(17)
C10 C 0.2382(16) 0.7172(3) 0.5667(17)
C11 C 0.1155(15) 0.7445(4) 0.5346(18)
C12 C 0.3712(16) 0.7225(4) 0.5324(18)
H4 H 0.2724 0.5087 0.5202
H5 H 0.0216 0.7406 0.5577
H6 H 0.4554 0.7034 0.5545
C19 C 0.0756(14) 0.4726(4) 0.4522(18)
H9 H 0.1298 0.4533 0.4207
O11 O 0.3915(15) 0.8218(4) 0.3254(12)
O12 O 0.1599(15) 0.8425(4) 0.3367(13)
C21 C 0.2790(17) 0.8194(4) 0.3672(17)
C22 C 0.2618(16) 0.7828(3) 0.4333(17)
C23 C 0.3845(15) 0.7555(4) 0.4654(18)
C24 C 0.1288(16) 0.7775(4) 0.4676(18)
H11 H 0.4784 0.7594 0.4423
H12 H 0.0446 0.7966 0.4455
Sc4 Sc -0.0000 0.36603(12) 0.2500
Sc5 Sc 0.5000 0.86603(12) 0.2500
Sc7 Sc 0.5000 0.61294(12) 0.7500
Sc9 Sc 0.0000 0.88706(12) 0.2500
O13 O 0.2005(13) 0.6340(4) 0.9257(11)
Sc1_2 Sc 1.0000 0.63397(12) 0.7500
O1 O 0.7995(13) 0.6340(4) 0.5743(11)
O2 O 0.5696(14) 0.6125(4) 0.5883(10)
C1 C 0.6538(14) 0.6231(6) 0.5247(8)
C2 C 0.5752(12) 0.6222(6) 0.3825(7)
C3 C 0.6672(11) 0.6219(6) 0.3071(10)
C4 C 0.4070(12) 0.6219(6) 0.3245(9)
C7 C 0.9244(14) 0.5274(4) 0.5478(18)
H1 H 0.7837 0.6218 0.3448
H2 H 0.3414 0.6219 0.3770
H3 H 0.8702 0.5467 0.5793
C14 C 0.4248(12) 0.6222(6) 0.1175(7)
C15 C 0.3328(11) 0.6219(6) 0.1929(10)
C16 C 0.5930(12) 0.6219(6) 0.1755(9)
H7 H 0.2163 0.6218 0.1552
H8 H 0.6586 0.6219 0.1230
O9 O 0.8954(14) 0.4095(3) 0.3256(13)
O10 O 0.6674(14) 0.4312(4) 0.3439(12)
C17 C 0.8156(14) 0.4346(4) 0.3579(18)
C18 C 0.9100(13) 0.4687(4) 0.4309(17)
C20 C 0.8375(12) 0.4956(4) 0.4840(18)
H10 H 0.7276 0.4913 0.4798
Sc4_2 Sc 1.0000 0.36603(12) 0.2500
Sc8 Sc 0.5000 0.38706(12) 0.2500
Sc9_2 Sc 1.0000 0.88706(12) 0.2500
O14 O 0.4304(14) 0.6125(4) 0.9117(10)
O15 O 0.8954(14) 0.5905(3) 0.8256(13)
O17 O 0.6674(14) 0.5688(4) 0.8439(12)
O18 O 0.8915(15) 0.6782(4) 0.8254(12)
O20 O 0.6599(15) 0.6575(4) 0.8367(13)
C13 C 0.3462(14) 0.6231(6) 0.9753(8)
Sc7_2 Sc 0.0000 0.11294(12) 0.7500
Sc1_3 Sc 0.5000 0.13397(12) 0.7500
O1_2 O 0.2995(13) 0.1340(4) 0.5743(11)
O2_2 O 0.0696(14) 0.1125(4) 0.5883(10)
O3_2 O 0.6046(14) 0.0905(3) 0.6744(13)
O4_2 O 0.8326(14) 0.0688(4) 0.6561(12)
O5_2 O 0.6085(15) 0.1782(4) 0.6746(12)
O6_2 O 0.8401(15) 0.1575(4) 0.6633(13)
C1_2 C 0.1538(14) 0.1231(6) 0.5247(8)
C2_2 C 0.0752(12) 0.1222(6) 0.3825(7)
C3_2 C 0.1672(11) 0.1219(6) 0.3071(10)
C5_2 C 0.6844(14) 0.0654(4) 0.6421(18)
C6_2 C 0.5900(13) 0.0313(4) 0.5691(17)
C7_2 C 0.4244(14) 0.0274(4) 0.5478(18)
C8_2 C 0.6625(12) 0.0044(4) 0.5160(18)
C9_2 C 0.7210(17) 0.1806(4) 0.6328(17)
C10_2 C 0.7382(16) 0.2172(3) 0.5667(17)
C11_2 C 0.6155(15) 0.2445(4) 0.5346(18)
C12_2 C 0.8712(16) 0.2225(4) 0.5324(18)
H1_2 H 0.2837 0.1218 0.3448
H3_2 H 0.3702 0.0467 0.5793
H4_2 H 0.7724 0.0087 0.5202
H5_2 H 0.5216 0.2406 0.5577
H6_2 H 0.9554 0.2034 0.5545
C16_2 C 0.0930(12) 0.1219(6) 0.1755(9)
H8_2 H 0.1586 0.1219 0.1230
O11_2 O 0.8915(15) 0.3218(4) 0.3254(12)
O12_2 O 0.6599(15) 0.3425(4) 0.3367(13)
C21_2 C 0.7790(17) 0.3194(4) 0.3672(17)
C22_2 C 0.7618(16) 0.2828(3) 0.4333(17)
C23_2 C 0.8845(15) 0.2555(4) 0.4654(18)
C24_2 C 0.6288(16) 0.2775(4) 0.4676(18)
H11_2 H 0.9784 0.2594 0.4423
H12_2 H 0.5446 0.2966 0.4455
Sc7_3 Sc 1.0000 0.11294(12) 0.7500
O13_2 O 0.7005(13) 0.1340(4) 0.9257(11)
O15_2 O 0.3954(14) 0.0905(3) 0.8256(13)
O17_2 O 0.1674(14) 0.0688(4) 0.8439(12)
O18_2 O 0.3915(15) 0.1782(4) 0.8254(12)
O20_2 O 0.1599(15) 0.1575(4) 0.8367(13)
O9_2 O 0.3954(14) 0.9095(3) 0.3256(13)
O10_2 O 0.1674(14) 0.9312(4) 0.3439(12)
C17_2 C 0.3156(14) 0.9346(4) 0.3579(18)
C18_2 C 0.4100(13) 0.9687(4) 0.4309(17)
C19_2 C 0.5756(14) 0.9726(4) 0.4522(18)
C20_2 C 0.3375(12) 0.9956(4) 0.4840(18)
H9_2 H 0.6298 0.9533 0.4207
H10_2 H 0.2276 0.9913 0.4798
C4_2 C 0.9070(12) 0.1219(6) 0.3245(9)
H2_2 H 0.8414 0.1219 0.3770
C14_2 C 0.9248(12) 0.1222(6) 0.1175(7)
C15_2 C 0.8328(11) 0.1219(6) 0.1929(10)
H7_2 H 0.7163 0.1218 0.1552
O14_2 O 0.9304(14) 0.1125(4) 0.9117(10)
C13_2 C 0.8462(14) 0.1231(6) 0.9753(8)
O9_3 O 0.1046(14) 0.4095(3) 0.1744(13)
O10_3 O 0.3326(14) 0.4312(4) 0.1561(12)
C17_3 C 0.1844(14) 0.4346(4) 0.1421(18)
C18_3 C 0.0900(13) 0.4687(4) 0.0691(17)
C20_3 C 0.1625(12) 0.4956(4) 0.0160(18)
H10_3 H 0.2724 0.4913 0.0202
C7_3 C 0.0756(14) 0.5274(4) 0.9522(18)
H3_3 H 0.1298 0.5467 0.9207
C19_3 C 0.9244(14) 0.4726(4) 0.0478(18)
H9_3 H 0.8702 0.4533 0.0793
O11_3 O 0.6085(15) 0.8218(4) 0.1746(12)
O12_3 O 0.8401(15) 0.8425(4) 0.1633(13)
C21_3 C 0.7210(17) 0.8194(4) 0.1328(17)
C22_3 C 0.7382(16) 0.7828(3) 0.0667(17)
C23_3 C 0.6155(15) 0.7555(4) 0.0346(18)
C24_3 C 0.8712(16) 0.7775(4) 0.0324(18)
H11_3 H 0.5216 0.7594 0.0577
H12_3 H 0.9554 0.7966 0.0545
C5_3 C 0.8156(14) 0.5654(4) 0.8579(18)
C6_3 C 0.9100(13) 0.5313(4) 0.9309(17)
C8_3 C 0.8375(12) 0.5044(4) 0.9840(18)
C9_3 C 0.7790(17) 0.6806(4) 0.8672(17)
C10_3 C 0.7618(16) 0.7172(3) 0.9333(17)
C11_3 C 0.8845(15) 0.7445(4) 0.9654(18)
C12_3 C 0.6288(16) 0.7225(4) 0.9676(18)
H4_3 H 0.7276 0.5087 0.9798
H5_3 H 0.9784 0.7406 0.9423
H6_3 H 0.5446 0.7034 0.9455
O11_4 O 0.1085(15) 0.3218(4) 0.1746(12)
O12_4 O 0.3401(15) 0.3425(4) 0.1633(13)
C21_4 C 0.2210(17) 0.3194(4) 0.1328(17)
C22_4 C 0.2382(16) 0.2828(3) 0.0667(17)
C23_4 C 0.1155(15) 0.2555(4) 0.0346(18)
C24_4 C 0.3712(16) 0.2775(4) 0.0324(18)
H11_4 H 0.0216 0.2594 0.0577
H12_4 H 0.4554 0.2966 0.0545
C5_4 C 0.3156(14) 0.0654(4) 0.8579(18)
C6_4 C 0.4100(13) 0.0313(4) 0.9309(17)
C7_4 C 0.5756(14) 0.0274(4) 0.9522(18)
C8_4 C 0.3375(12) 0.0044(4) 0.9840(18)
C9_4 C 0.2790(17) 0.1806(4) 0.8672(17)
C10_4 C 0.2618(16) 0.2172(3) 0.9333(17)
C11_4 C 0.3845(15) 0.2445(4) 0.9654(18)
C12_4 C 0.1288(16) 0.2225(4) 0.9676(18)
H3_4 H 0.6298 0.0467 0.9207
H4_4 H 0.2276 0.0087 0.9798
H5_4 H 0.4784 0.2406 0.9423
H6_4 H 0.0446 0.2034 0.9455
O9_4 O 0.6046(14) 0.9095(3) 0.1744(13)
O10_4 O 0.8326(14) 0.9312(4) 0.1561(12)
C17_4 C 0.6844(14) 0.9346(4) 0.1421(18)
C18_4 C 0.5900(13) 0.9687(4) 0.0691(17)
C19_4 C 0.4244(14) 0.9726(4) 0.0478(18)
C20_4 C 0.6625(12) 0.9956(4) 0.0160(18)
H9_4 H 0.3702 0.9533 0.0793
H10_4 H 0.7724 0.9913 0.0202
O7 O 0.7995(13) 0.3660(4) 0.0743(11)
O8 O 0.5696(14) 0.3875(4) 0.0883(10)
C13_3 C 0.6538(14) 0.3769(6) 0.0247(8)
O1_3 O 0.2005(13) 0.3660(4) 0.4257(11)
O2_3 O 0.4304(14) 0.3875(4) 0.4117(10)
C1_3 C 0.3462(14) 0.3769(6) 0.4753(8)
C2_3 C 0.4248(12) 0.3778(6) 0.6175(7)
C3_3 C 0.3328(11) 0.3781(6) 0.6929(10)
C4_3 C 0.5930(12) 0.3781(6) 0.6755(9)
H1_3 H 0.2163 0.3782 0.6552
H2_3 H 0.6586 0.3781 0.6230
C14_3 C 0.5752(12) 0.3778(6) 0.8825(7)
C15_3 C 0.6672(11) 0.3781(6) 0.8071(10)
C16_3 C 0.4070(12) 0.3781(6) 0.8245(9)
H7_3 H 0.7837 0.3782 0.8448
H8_3 H 0.3414 0.3781 0.8770
O7_2 O 0.2995(13) 0.8660(4) 0.0743(11)
O8_2 O 0.0696(14) 0.8875(4) 0.0883(10)
C13_4 C 0.1538(14) 0.8769(6) 0.0247(8)
C4_4 C 0.0930(12) 0.8781(6) 0.6755(9)
H2_4 H 0.1586 0.8781 0.6230
C14_4 C 0.0752(12) 0.8778(6) 0.8825(7)
C15_4 C 0.1672(11) 0.8781(6) 0.8071(10)
H7_4 H 0.2837 0.8782 0.8448
O1_4 O 0.7005(13) 0.8660(4) 0.4257(11)
O2_4 O 0.9304(14) 0.8875(4) 0.4117(10)
C1_4 C 0.8462(14) 0.8769(6) 0.4753(8)
C2_4 C 0.9248(12) 0.8778(6) 0.6175(7)
C3_4 C 0.8328(11) 0.8781(6) 0.6929(10)
H1_4 H 0.7163 0.8782 0.6552
C16_4 C 0.9070(12) 0.8781(6) 0.8245(9)
H8_4 H 0.8414 0.8781 0.8770
loop_
_geom_bond_atom_site_label_1
_geom_bond_atom_site_label_2
_geom_bond_site_symmetry_1
_geom_bond_site_symmetry_2
O3 Sc1 1_555 1_555
O4 C5 1_555 1_555
O5 Sc1 1_555 1_555
O6 C9 1_555 1_555
C5 O3 1_555 1_555
C6 C5 1_555 1_555
C8 C6 1_555 1_555
C9 O5 1_555 1_555
C10 C9 1_555 1_555
C11 C10 1_555 1_555
C12 C10 1_555 1_555
H4 C8 1_555 1_555
H5 C11 1_555 1_555
H6 C12 1_555 1_555
C19 C8 1_555 1_555
H9 C19 1_555 1_555
O11 C21 1_555 1_555
O12 C21 1_555 1_555
C21 C22 1_555 1_555
C22 C23 1_555 1_555
C23 C12 1_555 1_555
C24 C11 1_555 1_555
H11 C23 1_555 1_555
H12 C24 1_555 1_555
Sc5 O11 1_555 1_555
Sc7 O4 1_555 1_555
Sc9 O12 1_555 1_555
O13 Sc1 1_555 1_555
O6 Sc7 1_555 1_555
C22 C24 1_555 1_555
Sc1_2 O1 1_555 1_555
Sc7 O2 1_555 1_555
O1 C1 1_555 1_555
O2 C1 1_555 1_555
C1 C2 1_555 1_555
C2 C3 1_555 1_555
C3 H1 1_555 1_555
C4 C2 1_555 1_555
H2 C4 1_555 1_555
H3 C7 1_555 1_555
C14 C15 1_555 1_555
C15 C4 1_555 1_555
C16 C3 1_555 1_555
H7 C15 1_555 1_555
H8 C16 1_555 1_555
O9 C17 1_555 1_555
O10 C17 1_555 1_555
C17 C18 1_555 1_555
C20 C7 1_555 1_555
H10 C20 1_555 1_555
Sc4_2 O9 1_555 1_555
Sc8 O10 1_555 1_555
O14 Sc7 1_555 1_555
O15 Sc1_2 1_555 1_555
O17 Sc7 1_555 1_555
O18 Sc1_2 1_555 1_555
O20 Sc7 1_555 1_555
C14 C16 1_555 1_555
C18 C20 1_555 1_555
O13 C13 1_555 1_555
O14 C13 1_555 1_555
Sc1_3 O1_2 1_555 1_555
Sc7_2 O2_2 1_555 1_555
O1_2 C1_2 1_555 1_555
O2_2 C1_2 1_555 1_555
O3_2 Sc1_3 1_555 1_555
O4_2 C5_2 1_555 1_555
O5_2 Sc1_3 1_555 1_555
O6_2 C9_2 1_555 1_555
C1_2 C2_2 1_555 1_555
C2_2 C3_2 1_555 1_555
C3_2 H1_2 1_555 1_555
C5_2 O3_2 1_555 1_555
C6_2 C5_2 1_555 1_555
C7_2 C6_2 1_555 1_555
C8_2 C6_2 1_555 1_555
C9_2 O5_2 1_555 1_555
C10_2 C9_2 1_555 1_555
C11_2 C10_2 1_555 1_555
C12_2 C10_2 1_555 1_555
H3_2 C7_2 1_555 1_555
H4_2 C8_2 1_555 1_555
H5_2 C11_2 1_555 1_555
H6_2 C12_2 1_555 1_555
C16_2 C3_2 1_555 1_555
H8_2 C16_2 1_555 1_555
O11_2 C21_2 1_555 1_555
O12_2 C21_2 1_555 1_555
C21_2 C22_2 1_555 1_555
C22_2 C23_2 1_555 1_555
C23_2 C12_2 1_555 1_555
C24_2 C11_2 1_555 1_555
H11_2 C23_2 1_555 1_555
H12_2 C24_2 1_555 1_555
Sc4_2 O11_2 1_555 1_555
Sc7_3 O4_2 1_555 1_555
Sc8 O12_2 1_555 1_555
O13_2 Sc1_3 1_555 1_555
O15_2 Sc1_3 1_555 1_555
O17_2 Sc7_2 1_555 1_555
O18_2 Sc1_3 1_555 1_555
O20_2 Sc7_2 1_555 1_555
O6_2 Sc7_3 1_555 1_555
C22_2 C24_2 1_555 1_555
O9_2 C17_2 1_555 1_555
O10_2 C17_2 1_555 1_555
C17_2 C18_2 1_555 1_555
C18_2 C19_2 1_555 1_555
H9_2 C19_2 1_555 1_555
H10_2 C20_2 1_555 1_555
Sc5 O9_2 1_555 1_555
Sc9 O10_2 1_555 1_555
C18_2 C20_2 1_555 1_555
H2_2 C4_2 1_555 1_555
C14_2 C15_2 1_555 1_555
C15_2 C4_2 1_555 1_555
H7_2 C15_2 1_555 1_555
O14_2 Sc7_3 1_555 1_555
O13_2 C13_2 1_555 1_555
O14_2 C13_2 1_555 1_555
O9_3 C17_3 1_555 1_555
O10_3 C17_3 1_555 1_555
C17_3 C18_3 1_555 1_555
H10_3 C20_3 1_555 1_555
Sc4 O9_3 1_555 1_555
Sc8 O10_3 1_555 1_555
C18_3 C20_3 1_555 1_555
H3_3 C7_3 1_555 1_555
H9_3 C19_3 1_555 1_555
O11_3 C21_3 1_555 1_555
O12_3 C21_3 1_555 1_555
C21_3 C22_3 1_555 1_555
C22_3 C23_3 1_555 1_555
H11_3 C23_3 1_555 1_555
H12_3 C24_3 1_555 1_555
Sc5 O11_3 1_555 1_555
Sc9_2 O12_3 1_555 1_555
C22_3 C24_3 1_555 1_555
O17 C5_3 1_555 1_555
O20 C9_3 1_555 1_555
C5_3 O15 1_555 1_555
C6_3 C5_3 1_555 1_555
C8_3 C6_3 1_555 1_555
C9_3 O18 1_555 1_555
C10_3 C9_3 1_555 1_555
C11_3 C10_3 1_555 1_555
C12_3 C10_3 1_555 1_555
H4_3 C8_3 1_555 1_555
H5_3 C11_3 1_555 1_555
H6_3 C12_3 1_555 1_555
O11_4 C21_4 1_555 1_555
O12_4 C21_4 1_555 1_555
C21_4 C22_4 1_555 1_555
C22_4 C23_4 1_555 1_555
H11_4 C23_4 1_555 1_555
H12_4 C24_4 1_555 1_555
Sc4 O11_4 1_555 1_555
Sc8 O12_4 1_555 1_555
C22_4 C24_4 1_555 1_555
O17_2 C5_4 1_555 1_555
O20_2 C9_4 1_555 1_555
C5_4 O15_2 1_555 1_555
C6_4 C5_4 1_555 1_555
C7_4 C6_4 1_555 1_555
C8_4 C6_4 1_555 1_555
C9_4 O18_2 1_555 1_555
C10_4 C9_4 1_555 1_555
C11_4 C10_4 1_555 1_555
C12_4 C10_4 1_555 1_555
H3_4 C7_4 1_555 1_555
H4_4 C8_4 1_555 1_555
H5_4 C11_4 1_555 1_555
H6_4 C12_4 1_555 1_555
O9_4 C17_4 1_555 1_555
O10_4 C17_4 1_555 1_555
C17_4 C18_4 1_555 1_555
C18_4 C19_4 1_555 1_555
H9_4 C19_4 1_555 1_555
H10_4 C20_4 1_555 1_555
Sc5 O9_4 1_555 1_555
Sc9_2 O10_4 1_555 1_555
C18_4 C20_4 1_555 1_555
O7 C13_3 1_555 1_555
O8 C13_3 1_555 1_555
Sc4_2 O7 1_555 1_555
Sc8 O8 1_555 1_555
Sc4 O1_3 1_555 1_555
Sc8 O2_3 1_555 1_555
O1_3 C1_3 1_555 1_555
O2_3 C1_3 1_555 1_555
C1_3 C2_3 1_555 1_555
C2_3 C3_3 1_555 1_555
C3_3 H1_3 1_555 1_555
C4_3 C2_3 1_555 1_555
H2_3 C4_3 1_555 1_555
C14_3 C15_3 1_555 1_555
C15_3 C4_3 1_555 1_555
C16_3 C3_3 1_555 1_555
H7_3 C15_3 1_555 1_555
H8_3 C16_3 1_555 1_555
C14_3 C16_3 1_555 1_555
O7_2 C13_4 1_555 1_555
O8_2 C13_4 1_555 1_555
Sc5 O7_2 1_555 1_555
Sc9 O8_2 1_555 1_555
H2_4 C4_4 1_555 1_555
C14_4 C15_4 1_555 1_555
C15_4 C4_4 1_555 1_555
H7_4 C15_4 1_555 1_555
Sc5 O1_4 1_555 1_555
Sc9_2 O2_4 1_555 1_555
O1_4 C1_4 1_555 1_555
O2_4 C1_4 1_555 1_555
C1_4 C2_4 1_555 1_555
C2_4 C3_4 1_555 1_555
C3_4 H1_4 1_555 1_555
C16_4 C3_4 1_555 1_555
H8_4 C16_4 1_555 1_555

#END
