
###############################################################################
#
# This file contains modified crystal structure data generated from the
# MOF subset of the Cambridge Structural Database (CSD) v543 
# hosted by the Cambridge Crystallographic Data Centre (CCDC).
#
# This work is licensed under the Creative Commons
# Attribution-NonCommercial-ShareAlike 4.0 International License.
# To view a copy of this license, visit
# http://creativecommons.org/licenses/by-nc-sa/4.0/
# or send a letter to
# Creative Commons, PO Box 1866, Mountain View, CA 94042, USA.
#
# CIF created using the CSD Python API on 29 September 2022
# The structure has been converted into the P1 space group
# The structure has a 3D framework
# The original CSD entry TABNUJ is in the monoclinic crystal system
# The framework has been calculated to contain at least 10.0% void space
# The void calculation uses a probe of radius 1.32A, grid spacing 0.4
# H atom positions have been added when not included in the experimental data
#
###############################################################################

data_TABNUJ
_chemical_formula_moiety         '(C104 H64 Cd4 N24 O16)n'
_symmetry_cell_setting           triclinic
_symmetry_space_group_name_H-M   'P 1'
_symmetry_Int_Tables_number      1
_space_group_name_Hall           'P 1'
loop_
_symmetry_equiv_pos_site_id
_symmetry_equiv_pos_as_xyz
1 x,y,z
_cell_length_a                   8.7282(7)
_cell_length_b                   22.6373(18)
_cell_length_c                   17.9196(14)
_cell_angle_alpha                90
_cell_angle_beta                 94.4390(10)
_cell_angle_gamma                90
_cell_volume                     3529.99
loop_
_atom_site_label
_atom_site_type_symbol
_atom_site_fract_x
_atom_site_fract_y
_atom_site_fract_z
Cd3 Cd 0.16821(2) 0.44320(2) 0.01495(2)
N6 N 0.0406(2) 0.37236(8) 0.93984(11)
C23 C 0.0562(4) 0.30739(12) 0.83627(17)
H11 H 0.1061 0.2969 0.7942
C24 C 0.1063(4) 0.35487(12) 0.87937(16)
H12 H 0.1911 0.3759 0.8653
Cd4 Cd 0.16821(2) 0.05680(2) 0.51495(2)
O5 O 0.07377(19) 0.96487(7) 0.44302(9)
N4 N 0.7484(3) 0.19348(10) 0.82282(13)
N5 N 0.9558(3) 0.20243(9) 0.75785(12)
O4 O 0.92623(19) 0.03513(7) 0.55698(9)
C14 C 0.8162(3) 0.02795(9) 0.59717(12)
C15 C 0.7923(3) 0.07112(10) 0.65806(13)
C16 C 0.6616(3) 0.06612(11) 0.69753(17)
H8 H 0.5916 0.0361 0.6851
C17 C 0.6331(4) 0.10450(13) 0.75461(18)
H9 H 0.5464 0.1008 0.7813
C18 C 0.7397(3) 0.14869(11) 0.77022(15)
C19 C 0.8690(3) 0.15450(10) 0.73021(14)
C20 C 0.8962(3) 0.11548(10) 0.67327(13)
H10 H 0.9824 0.1193 0.6462
C21 C 0.8794(3) 0.22395(11) 0.81199(14)
C22 C 0.9308(3) 0.27551(10) 0.85625(14)
C25 C 0.9191(3) 0.34187(11) 0.95842(14)
C26 C 0.8614(3) 0.29381(11) 0.91835(14)
H14 H 0.7758 0.2739 0.9333
N7 N 0.7312(2) 0.01179(8) 0.39995(10)
H16 H 0.672545 0.201943 0.861639
Cd1 Cd 0.83179(2) 0.94320(2) 0.48505(2)
N1 N 0.5103(2) 0.68719(9) 0.24661(12)
N2 N 0.2972(3) 0.66765(10) 0.30400(13)
N3 N 0.2688(2) 0.51179(8) 0.10005(10)
O1 O 0.6200(2) 0.87927(7) 0.48018(10)
O2 O 0.7680(2) 0.86977(7) 0.38873(10)
O3 O 0.72771(19) 0.98517(7) 0.58754(9)
C1 C 0.6544(3) 0.85470(12) 0.42156(15)
C2 C 0.5546(3) 0.80554(10) 0.39067(13)
C3 C 0.4187(3) 0.79378(12) 0.42401(15)
H1 H 0.3934 0.8169 0.4642
C4 C 0.3215(3) 0.74919(14) 0.39935(17)
H2 H 0.2305 0.7418 0.4215
C5 C 0.3650(3) 0.71586(11) 0.34013(15)
C6 C 0.4980(3) 0.72703(11) 0.30517(14)
C7 C 0.5944(3) 0.77293(11) 0.33023(14)
H3 H 0.6834 0.7814 0.3069
C8 C 0.3885(3) 0.65288(11) 0.24929(14)
C9 C 0.3512(3) 0.60313(11) 0.19825(14)
C10 C 0.2417(4) 0.56204(12) 0.21448(16)
H4 H 0.1935 0.5644 0.2589
C11 C 0.2050(4) 0.51762(12) 0.16418(15)
H5 H 0.1313 0.4901 0.1758
C12 C 0.3770(3) 0.55045(10) 0.08528(15)
H6 H 0.4245 0.5466 0.0408
C13 C 0.4217(3) 0.59601(11) 0.13304(15)
H7 H 0.4992 0.6218 0.1212
N8 N 0.9594(2) 0.87236(8) 0.56016(11)
H15 H 0.198468 0.647306 0.316058
N1_2 N 0.4897(2) 0.18719(9) 0.25339(12)
N2_2 N 0.7028(3) 0.16765(10) 0.19600(13)
O1_2 O 0.3800(2) 0.37927(7) 0.01982(10)
O2_2 O 0.2320(2) 0.36977(7) 0.11127(10)
C1_2 C 0.3456(3) 0.35470(12) 0.07844(15)
C2_2 C 0.4454(3) 0.30554(10) 0.10933(13)
C3_2 C 0.5813(3) 0.29378(12) 0.07599(15)
H1_2 H 0.6066 0.3169 0.0358
C4_2 C 0.6785(3) 0.24919(14) 0.10065(17)
H2_2 H 0.7695 0.2418 0.0785
C5_2 C 0.6350(3) 0.21586(11) 0.15987(15)
C6_2 C 0.5020(3) 0.22703(11) 0.19483(14)
C7_2 C 0.4056(3) 0.27293(11) 0.16977(14)
H3_2 H 0.3166 0.2814 0.1931
C8_2 C 0.6115(3) 0.15288(11) 0.25071(14)
C9_2 C 0.6488(3) 0.10313(11) 0.30175(14)
C10_2 C 0.7583(4) 0.06204(12) 0.28552(16)
H4_2 H 0.8065 0.0644 0.2411
C11_2 C 0.7950(4) 0.01762(12) 0.33582(15)
C12_2 C 0.6230(3) 0.05045(10) 0.41472(15)
H6_2 H 0.5755 0.0466 0.4592
C13_2 C 0.5783(3) 0.09601(11) 0.36696(15)
H7_2 H 0.5008 0.1218 0.3788
H15_2 H 0.801532 0.147306 0.183942
N4_2 N 0.2516(3) 0.69348(10) 0.67718(13)
N5_2 N 0.0442(3) 0.70243(9) 0.74215(12)
O3_2 O 0.27229(19) 0.48517(7) 0.91246(9)
O4_2 O 0.07377(19) 0.53513(7) 0.94302(9)
C14_2 C 0.1838(3) 0.52795(9) 0.90283(12)
C15_2 C 0.2077(3) 0.57112(10) 0.84194(13)
C16_2 C 0.3384(3) 0.56612(11) 0.80247(17)
H8_2 H 0.4084 0.5361 0.8149
C17_2 C 0.3669(4) 0.60450(13) 0.74539(18)
H9_2 H 0.4536 0.6008 0.7187
C18_2 C 0.2603(3) 0.64869(11) 0.72978(15)
C19_2 C 0.1310(3) 0.65450(10) 0.76979(14)
C20_2 C 0.1038(3) 0.61548(10) 0.82673(13)
H10_2 H 0.0176 0.6193 0.8538
C21_2 C 0.1206(3) 0.72395(11) 0.68801(14)
C22_2 C 0.0692(3) 0.77551(10) 0.64375(14)
C25_2 C 0.0809(3) 0.84187(11) 0.54158(14)
H13 H 0.1292 0.8535 0.4995
C26_2 C 0.1386(3) 0.79381(11) 0.58165(14)
H14_2 H 0.2242 0.7739 0.5667
H16_2 H 0.327455 0.701943 0.638361
H5_2 H 0.8687 0.9901 0.3242
O5_2 O 0.92623(19) 0.46487(7) 0.05698(9)
C23_2 C 0.9438(4) 0.80739(12) 0.66373(17)
H11_2 H 0.8939 0.7969 0.7058
C24_2 C 0.8937(4) 0.85487(12) 0.62063(16)
H12_2 H 0.8089 0.8759 0.6347
Cd4_2 Cd 0.83179(2) 0.55680(2) 0.98505(2)
N1_3 N 0.4897(2) 0.31281(9) 0.75339(12)
N2_3 N 0.7028(3) 0.33235(10) 0.69600(13)
N3_2 N 0.7312(2) 0.48821(8) 0.89995(10)
O1_3 O 0.3800(2) 0.12073(7) 0.51982(10)
O2_3 O 0.2320(2) 0.13023(7) 0.61127(10)
O3_3 O 0.27229(19) 0.01483(7) 0.41246(9)
C1_3 C 0.3456(3) 0.14530(12) 0.57844(15)
C2_3 C 0.4454(3) 0.19446(10) 0.60933(13)
C3_3 C 0.5813(3) 0.20622(12) 0.57599(15)
H1_3 H 0.6066 0.1831 0.5358
C4_3 C 0.6785(3) 0.25081(14) 0.60065(17)
H2_3 H 0.7695 0.2582 0.5785
C5_3 C 0.6350(3) 0.28414(11) 0.65987(15)
C6_3 C 0.5020(3) 0.27297(11) 0.69483(14)
C7_3 C 0.4056(3) 0.22707(11) 0.66977(14)
H3_3 H 0.3166 0.2186 0.6931
C8_3 C 0.6115(3) 0.34712(11) 0.75071(14)
C9_3 C 0.6488(3) 0.39687(11) 0.80175(14)
C10_3 C 0.7583(4) 0.43796(12) 0.78552(16)
H4_3 H 0.8065 0.4356 0.7411
C11_3 C 0.7950(4) 0.48238(12) 0.83582(15)
H5_3 H 0.8687 0.5099 0.8242
C12_3 C 0.6230(3) 0.44955(10) 0.91472(15)
H6_3 H 0.5755 0.4534 0.9592
C13_3 C 0.5783(3) 0.40399(11) 0.86696(15)
H7_3 H 0.5008 0.3782 0.8788
N8_2 N 0.0406(2) 0.12764(8) 0.43984(11)
H15_3 H 0.801532 0.352694 0.683942
N4_3 N 0.2516(3) 0.80652(10) 0.17718(13)
N5_3 N 0.0442(3) 0.79757(9) 0.24215(12)
C14_3 C 0.1838(3) 0.97205(9) 0.40283(12)
C15_3 C 0.2077(3) 0.92888(10) 0.34194(13)
C16_3 C 0.3384(3) 0.93388(11) 0.30247(17)
H8_3 H 0.4084 0.9639 0.3149
C17_3 C 0.3669(4) 0.89550(13) 0.24539(18)
H9_3 H 0.4536 0.8992 0.2187
C18_3 C 0.2603(3) 0.85131(11) 0.22978(15)
C19_3 C 0.1310(3) 0.84550(10) 0.26979(14)
C20_3 C 0.1038(3) 0.88452(10) 0.32673(13)
H10_3 H 0.0176 0.8807 0.3538
C21_3 C 0.1206(3) 0.77605(11) 0.18801(14)
C22_3 C 0.0692(3) 0.72449(10) 0.14375(14)
C25_3 C 0.0809(3) 0.65813(11) 0.04158(14)
C26_3 C 0.1386(3) 0.70619(11) 0.08165(14)
H14_3 H 0.2242 0.7261 0.0667
N7_2 N 0.2688(2) 0.98821(8) 0.60005(10)
H16_3 H 0.327455 0.798057 0.138361
N6_2 N 0.9594(2) 0.62764(8) 0.06016(11)
C23_3 C 0.9438(4) 0.69261(12) 0.16373(17)
H11_3 H 0.8939 0.7031 0.2058
C24_3 C 0.8937(4) 0.64513(12) 0.12063(16)
H12_3 H 0.8089 0.6241 0.1347
C23_4 C 0.0562(4) 0.19261(12) 0.33627(17)
H11_4 H 0.1061 0.2031 0.2942
C24_4 C 0.1063(4) 0.14513(12) 0.37937(16)
H12_4 H 0.1911 0.1241 0.3653
H5_4 H 0.1313 0.0099 0.6758
N4_4 N 0.7484(3) 0.30652(10) 0.32282(13)
N5_4 N 0.9558(3) 0.29757(9) 0.25785(12)
O3_4 O 0.72771(19) 0.51483(7) 0.08754(9)
C14_4 C 0.8162(3) 0.47205(9) 0.09717(12)
C15_4 C 0.7923(3) 0.42888(10) 0.15806(13)
C16_4 C 0.6616(3) 0.43388(11) 0.19753(17)
H8_4 H 0.5916 0.4639 0.1851
C17_4 C 0.6331(4) 0.39550(13) 0.25461(18)
H9_4 H 0.5464 0.3992 0.2813
C18_4 C 0.7397(3) 0.35131(11) 0.27022(15)
C19_4 C 0.8690(3) 0.34550(10) 0.23021(14)
C20_4 C 0.8962(3) 0.38452(10) 0.17327(13)
H10_4 H 0.9824 0.3807 0.1462
C21_4 C 0.8794(3) 0.27605(11) 0.31199(14)
C22_4 C 0.9308(3) 0.22449(10) 0.35625(14)
C25_4 C 0.9191(3) 0.15813(11) 0.45842(14)
H13_2 H 0.8708 0.1465 0.5005
C26_4 C 0.8614(3) 0.20619(11) 0.41835(14)
H14_4 H 0.7758 0.2261 0.4333
H16_4 H 0.672545 0.298057 0.361639
N1_4 N 0.5103(2) 0.81281(9) 0.74661(12)
N2_4 N 0.2972(3) 0.83235(10) 0.80400(13)
O1_4 O 0.6200(2) 0.62073(7) 0.98018(10)
O2_4 O 0.7680(2) 0.63023(7) 0.88873(10)
C1_4 C 0.6544(3) 0.64530(12) 0.92156(15)
C2_4 C 0.5546(3) 0.69446(10) 0.89067(13)
C3_4 C 0.4187(3) 0.70622(12) 0.92401(15)
H1_4 H 0.3934 0.6831 0.9642
C4_4 C 0.3215(3) 0.75081(14) 0.89935(17)
H2_4 H 0.2305 0.7582 0.9215
C5_4 C 0.3650(3) 0.78414(11) 0.84013(15)
C6_4 C 0.4980(3) 0.77297(11) 0.80517(14)
C7_4 C 0.5944(3) 0.72707(11) 0.83023(14)
H3_4 H 0.6834 0.7186 0.8069
C8_4 C 0.3885(3) 0.84712(11) 0.74929(14)
C9_4 C 0.3512(3) 0.89687(11) 0.69825(14)
C10_4 C 0.2417(4) 0.93796(12) 0.71448(16)
H4_4 H 0.1935 0.9356 0.7589
C11_4 C 0.2050(4) 0.98238(12) 0.66418(15)
C12_4 C 0.3770(3) 0.94955(10) 0.58528(15)
H6_4 H 0.4245 0.9534 0.5408
C13_4 C 0.4217(3) 0.90399(11) 0.63304(15)
H7_4 H 0.4992 0.8782 0.6212
H15_4 H 0.198468 0.852694 0.816058
H13_3 H 0.8708 0.3535 0.0005
H13_4 H 0.1292 0.6465 0.9995
loop_
_geom_bond_atom_site_label_1
_geom_bond_atom_site_label_2
_geom_bond_site_symmetry_1
_geom_bond_site_symmetry_2
N6 C24 1_555 1_555
H11 C23 1_555 1_555
C24 C23 1_555 1_555
H12 C24 1_555 1_555
N4 C18 1_555 1_555
N5 C19 1_555 1_555
C15 C14 1_555 1_555
C16 C15 1_555 1_555
H8 C16 1_555 1_555
C17 C16 1_555 1_555
H9 C17 1_555 1_555
C18 C17 1_555 1_555
C19 C18 1_555 1_555
C20 C15 1_555 1_555
H10 C20 1_555 1_555
C21 N4 1_555 1_555
C22 C21 1_555 1_555
C26 C22 1_555 1_555
H14 C26 1_555 1_555
N5 C21 1_555 1_555
O4 C14 1_555 1_555
C19 C20 1_555 1_555
C25 C26 1_555 1_555
N4 H16 1_555 1_555
Cd1 O1 1_555 1_555
N1 C6 1_555 1_555
N2 C5 1_555 1_555
N3 C11 1_555 1_555
O1 C1 1_555 1_555
O2 Cd1 1_555 1_555
O3 Cd1 1_555 1_555
C1 O2 1_555 1_555
C2 C1 1_555 1_555
C3 C2 1_555 1_555
H1 C3 1_555 1_555
C4 C3 1_555 1_555
H2 C4 1_555 1_555
C5 C4 1_555 1_555
C6 C5 1_555 1_555
C7 C2 1_555 1_555
H3 C7 1_555 1_555
C8 N1 1_555 1_555
C9 C8 1_555 1_555
C10 C9 1_555 1_555
H4 C10 1_555 1_555
C11 C10 1_555 1_555
H5 C11 1_555 1_555
C12 N3 1_555 1_555
H6 C12 1_555 1_555
C13 C9 1_555 1_555
H7 C13 1_555 1_555
Cd3 N3 1_555 1_555
N8 Cd1 1_555 1_555
N2 C8 1_555 1_555
C6 C7 1_555 1_555
C12 C13 1_555 1_555
N2 H15 1_555 1_555
Cd3 O1_2 1_555 1_555
N1_2 C6_2 1_555 1_555
N2_2 C5_2 1_555 1_555
N7 C11_2 1_555 1_555
O1_2 C1_2 1_555 1_555
O2_2 Cd3 1_555 1_555
C1_2 O2_2 1_555 1_555
C2_2 C1_2 1_555 1_555
C3_2 C2_2 1_555 1_555
H1_2 C3_2 1_555 1_555
C4_2 C3_2 1_555 1_555
H2_2 C4_2 1_555 1_555
C5_2 C4_2 1_555 1_555
C6_2 C5_2 1_555 1_555
C7_2 C2_2 1_555 1_555
H3_2 C7_2 1_555 1_555
C8_2 N1_2 1_555 1_555
C9_2 C8_2 1_555 1_555
C10_2 C9_2 1_555 1_555
H4_2 C10_2 1_555 1_555
C11_2 C10_2 1_555 1_555
C12_2 N7 1_555 1_555
H6_2 C12_2 1_555 1_555
C13_2 C9_2 1_555 1_555
H7_2 C13_2 1_555 1_555
N2_2 C8_2 1_555 1_555
C6_2 C7_2 1_555 1_555
C12_2 C13_2 1_555 1_555
N2_2 H15_2 1_555 1_555
N4_2 C18_2 1_555 1_555
N5_2 C19_2 1_555 1_555
C14_2 O3_2 1_555 1_555
C15_2 C14_2 1_555 1_555
C16_2 C15_2 1_555 1_555
H8_2 C16_2 1_555 1_555
C17_2 C16_2 1_555 1_555
H9_2 C17_2 1_555 1_555
C18_2 C17_2 1_555 1_555
C19_2 C18_2 1_555 1_555
C20_2 C15_2 1_555 1_555
H10_2 C20_2 1_555 1_555
C21_2 N4_2 1_555 1_555
C22_2 C21_2 1_555 1_555
H13 C25_2 1_555 1_555
C26_2 C22_2 1_555 1_555
H14_2 C26_2 1_555 1_555
N5_2 C21_2 1_555 1_555
O4_2 C14_2 1_555 1_555
C19_2 C20_2 1_555 1_555
C25_2 C26_2 1_555 1_555
N4_2 H16_2 1_555 1_555
N8 C24_2 1_555 1_555
H11_2 C23_2 1_555 1_555
C24_2 C23_2 1_555 1_555
H12_2 C24_2 1_555 1_555
Cd4 O1_3 1_555 1_555
N1_3 C6_3 1_555 1_555
N2_3 C5_3 1_555 1_555
N3_2 C11_3 1_555 1_555
O1_3 C1_3 1_555 1_555
O2_3 Cd4 1_555 1_555
O3_3 Cd4 1_555 1_555
C1_3 O2_3 1_555 1_555
C2_3 C1_3 1_555 1_555
C3_3 C2_3 1_555 1_555
H1_3 C3_3 1_555 1_555
C4_3 C3_3 1_555 1_555
H2_3 C4_3 1_555 1_555
C5_3 C4_3 1_555 1_555
C6_3 C5_3 1_555 1_555
C7_3 C2_3 1_555 1_555
H3_3 C7_3 1_555 1_555
C8_3 N1_3 1_555 1_555
C9_3 C8_3 1_555 1_555
C10_3 C9_3 1_555 1_555
H4_3 C10_3 1_555 1_555
C11_3 C10_3 1_555 1_555
H5_3 C11_3 1_555 1_555
C12_3 N3_2 1_555 1_555
H6_3 C12_3 1_555 1_555
C13_3 C9_3 1_555 1_555
H7_3 C13_3 1_555 1_555
Cd4_2 N3_2 1_555 1_555
N8_2 Cd4 1_555 1_555
N2_3 C8_3 1_555 1_555
C6_3 C7_3 1_555 1_555
C12_3 C13_3 1_555 1_555
N2_3 H15_3 1_555 1_555
N4_3 C18_3 1_555 1_555
N5_3 C19_3 1_555 1_555
C15_3 C14_3 1_555 1_555
C16_3 C15_3 1_555 1_555
H8_3 C16_3 1_555 1_555
C17_3 C16_3 1_555 1_555
H9_3 C17_3 1_555 1_555
C18_3 C17_3 1_555 1_555
C19_3 C18_3 1_555 1_555
C20_3 C15_3 1_555 1_555
H10_3 C20_3 1_555 1_555
C21_3 N4_3 1_555 1_555
C22_3 C21_3 1_555 1_555
C26_3 C22_3 1_555 1_555
H14_3 C26_3 1_555 1_555
N5_3 C21_3 1_555 1_555
O5 C14_3 1_555 1_555
C19_3 C20_3 1_555 1_555
C25_3 C26_3 1_555 1_555
N4_3 H16_3 1_555 1_555
N6_2 C24_3 1_555 1_555
H11_3 C23_3 1_555 1_555
C24_3 C23_3 1_555 1_555
H12_3 C24_3 1_555 1_555
N8_2 C24_4 1_555 1_555
H11_4 C23_4 1_555 1_555
C24_4 C23_4 1_555 1_555
H12_4 C24_4 1_555 1_555
N4_4 C18_4 1_555 1_555
N5_4 C19_4 1_555 1_555
C14_4 O3_4 1_555 1_555
C15_4 C14_4 1_555 1_555
C16_4 C15_4 1_555 1_555
H8_4 C16_4 1_555 1_555
C17_4 C16_4 1_555 1_555
H9_4 C17_4 1_555 1_555
C18_4 C17_4 1_555 1_555
C19_4 C18_4 1_555 1_555
C20_4 C15_4 1_555 1_555
H10_4 C20_4 1_555 1_555
C21_4 N4_4 1_555 1_555
C22_4 C21_4 1_555 1_555
H13_2 C25_4 1_555 1_555
C26_4 C22_4 1_555 1_555
H14_4 C26_4 1_555 1_555
N5_4 C21_4 1_555 1_555
O5_2 C14_4 1_555 1_555
C19_4 C20_4 1_555 1_555
C25_4 C26_4 1_555 1_555
N4_4 H16_4 1_555 1_555
Cd4_2 O1_4 1_555 1_555
N1_4 C6_4 1_555 1_555
N2_4 C5_4 1_555 1_555
N7_2 C11_4 1_555 1_555
O1_4 C1_4 1_555 1_555
O2_4 Cd4_2 1_555 1_555
C1_4 O2_4 1_555 1_555
C2_4 C1_4 1_555 1_555
C3_4 C2_4 1_555 1_555
H1_4 C3_4 1_555 1_555
C4_4 C3_4 1_555 1_555
H2_4 C4_4 1_555 1_555
C5_4 C4_4 1_555 1_555
C6_4 C5_4 1_555 1_555
C7_4 C2_4 1_555 1_555
H3_4 C7_4 1_555 1_555
C8_4 N1_4 1_555 1_555
C9_4 C8_4 1_555 1_555
C10_4 C9_4 1_555 1_555
H4_4 C10_4 1_555 1_555
C11_4 C10_4 1_555 1_555
C12_4 N7_2 1_555 1_555
H6_4 C12_4 1_555 1_555
C13_4 C9_4 1_555 1_555
H7_4 C13_4 1_555 1_555
N2_4 C8_4 1_555 1_555
C6_4 C7_4 1_555 1_555
C12_4 C13_4 1_555 1_555
N2_4 H15_4 1_555 1_555

#END
