
###############################################################################
#
# This file contains modified crystal structure data generated from the
# MOF subset of the Cambridge Structural Database (CSD) v543 
# hosted by the Cambridge Crystallographic Data Centre (CCDC).
#
# This work is licensed under the Creative Commons
# Attribution-NonCommercial-ShareAlike 4.0 International License.
# To view a copy of this license, visit
# http://creativecommons.org/licenses/by-nc-sa/4.0/
# or send a letter to
# Creative Commons, PO Box 1866, Mountain View, CA 94042, USA.
#
# CIF created using the CSD Python API on 29 September 2022
# The structure has been converted into the P1 space group
# The structure has a 3D framework
# The original CSD entry TACPAP is in the tetragonal crystal system
# The original CSD entry TACPAP is in a Sohncke space group
# The framework has been calculated to contain at least 10.0% void space
# The void calculation uses a probe of radius 1.32A, grid spacing 0.4
# H atom positions have been added when not included in the experimental data
#
###############################################################################

data_TACPAP
_chemical_formula_moiety         '(C48 H70 O62 Zn9)n'
_symmetry_cell_setting           triclinic
_symmetry_space_group_name_H-M   'P 1'
_symmetry_Int_Tables_number      1
_space_group_name_Hall           'P 1'
loop_
_symmetry_equiv_pos_site_id
_symmetry_equiv_pos_as_xyz
1 x,y,z
_cell_length_a                   19.0513(12)
_cell_length_b                   19.0513(12)
_cell_length_c                   5.8265(8)
_cell_angle_alpha                90
_cell_angle_beta                 90
_cell_angle_gamma                90
_cell_volume                     2114.74
loop_
_atom_site_label
_atom_site_type_symbol
_atom_site_fract_x
_atom_site_fract_y
_atom_site_fract_z
Zn2 Zn 0.22435(4) 0.77565(4) 0.2500
O1 O 0.3162(2) 0.7570(3) 0.0607(8)
O2 O 0.4154(3) 0.7682(4) 0.2614(10)
C1 C 0.3825(4) 0.7581(4) 0.0815(13)
H2 H 0.5070 0.6965 0.0220
O8 O 0.5914(3) 0.7864(3) 0.0089(10)
O14 O 0.2715(3) 0.3852(3) 0.0668(9)
H10 H 0.250(4) 0.390(4) 0.186(13)
O19 O 0.2430(3) 0.6838(2) 0.4393(8)
O20 O 0.2285(3) 0.8852(3) 0.1832(9)
O21 O 0.1148(3) 0.7715(3) 0.3168(9)
O22 O 0.2531(2) 0.8158(2) 0.5558(8)
Zn4 Zn 0.77239(4) 0.77239(4) 0.0000
Zn6 Zn 0.27565(4) 0.27565(4) 0.0000
H13 H 0.250(4) 0.890(4) 0.064(13)
H14 H 0.110(4) 0.750(4) 0.436(13)
H18 H 0.409786 0.631128 0.0624393
H19 H 0.0902023 0.746848 0.189994
H20 H 0.253152 0.909798 0.310006
Zn1 Zn 0.27239(4) 0.72761(4) 0.7500
O3 O 0.3779(3) 0.7332(3) 0.6756(9)
H1 H 0.376(5) 0.761(4) 0.594(15)
C2 C 0.4779(4) 0.6875(4) 0.8864(13)
O4 O 0.4399(3) 0.6254(3) 0.9246(10)
O5 O 0.5708(3) 0.6209(3) 0.7123(10)
C3 C 0.5706(4) 0.7437(4) 0.6303(13)
H3 H 0.5400 0.7836 0.5948
O6 O 0.6148(3) 0.7285(3) 0.4332(9)
H4 H 0.610(4) 0.750(4) 0.314(13)
C4 C 0.6175(4) 0.7624(4) 0.8308(13)
O7 O 0.6842(2) 0.7531(2) 0.8058(8)
C5 C 0.4250(4) 0.7496(4) 0.8598(12)
H5 H 0.4504 0.7931 0.8258
C6 C 0.5260(4) 0.6798(4) 0.6808(13)
H6 H 0.4967 0.6706 0.5458
O10 O 0.2318(4) 0.5846(3) 0.2386(10)
C7 C 0.2419(4) 0.6175(4) 0.4185(13)
O11 O 0.2668(3) 0.6221(3) 0.8244(9)
H7 H 0.239(4) 0.624(5) 0.906(15)
C8 C 0.3125(4) 0.5221(4) 0.6136(13)
H8 H 0.3035 0.4930 0.4780
O12 O 0.3746(3) 0.5601(3) 0.5754(10)
O13 O 0.3791(3) 0.4292(3) 0.7877(10)
C9 C 0.2563(4) 0.4294(4) 0.8697(13)
H9 H 0.2164 0.4600 0.9052
C10 C 0.2376(4) 0.3825(4) 0.6692(13)
O15 O 0.2469(2) 0.3158(2) 0.6942(8)
O16 O 0.2136(3) 0.4086(3) 0.4911(10)
C11 C 0.2504(4) 0.5750(4) 0.6402(12)
H11 H 0.2069 0.5496 0.6742
C12 C 0.3202(4) 0.4740(4) 0.8192(13)
H12 H 0.3294 0.5033 0.9542
O18 O 0.1842(2) 0.7469(2) 0.9442(8)
Zn3 Zn 0.72435(4) 0.72435(4) 0.5000
Zn4_2 Zn 0.77239(4) 0.77239(4) 1.0000
Zn6_2 Zn 0.27565(4) 0.27565(4) 1.0000
Zn7 Zn 0.22761(4) 0.22761(4) 0.5000
H15 H 0.368872 0.590214 0.437561
H16 H 0.422221 0.45804 0.771145
H17 H 0.54196 0.577779 0.728855
O22_2 O 0.7469(2) 0.1842(2) 0.0558(8)
Zn1_2 Zn 0.72761(4) 0.27239(4) 0.2500
Zn2_2 Zn 0.77565(4) 0.22435(4) 0.7500
O1_2 O 0.6838(2) 0.2430(3) 0.5607(8)
O2_2 O 0.5846(3) 0.2318(4) 0.7614(10)
C1_2 C 0.6175(4) 0.2419(4) 0.5815(13)
O3_2 O 0.6221(3) 0.2668(3) 0.1756(9)
H1_2 H 0.624(5) 0.239(4) 0.094(15)
C2_2 C 0.5221(4) 0.3125(4) 0.3864(13)
H2_2 H 0.4930 0.3035 0.5220
O4_2 O 0.5601(3) 0.3746(3) 0.4246(10)
O5_2 O 0.4292(3) 0.3791(3) 0.2123(10)
C3_2 C 0.4294(4) 0.2563(4) 0.1303(13)
H3_2 H 0.4600 0.2164 0.0948
C4_2 C 0.3825(4) 0.2376(4) 0.3308(13)
O7_2 O 0.3158(2) 0.2469(2) 0.3058(8)
O8_2 O 0.4086(3) 0.2136(3) 0.5089(10)
C5_2 C 0.5750(4) 0.2504(4) 0.3598(12)
H5_2 H 0.5496 0.2069 0.3258
C6_2 C 0.4740(4) 0.3202(4) 0.1808(13)
H6_2 H 0.5033 0.3294 0.0458
O11_2 O 0.7332(3) 0.3779(3) 0.3244(9)
H7_2 H 0.761(4) 0.376(5) 0.406(15)
C8_2 C 0.6875(4) 0.4779(4) 0.1136(13)
O12_2 O 0.6254(3) 0.4399(3) 0.0754(10)
O13_2 O 0.6209(3) 0.5708(3) 0.2877(10)
C9_2 C 0.7437(4) 0.5706(4) 0.3697(13)
H9_2 H 0.7836 0.5400 0.4052
O14_2 O 0.7285(3) 0.6148(3) 0.5668(9)
H10_2 H 0.750(4) 0.610(4) 0.686(13)
C10_2 C 0.7624(4) 0.6175(4) 0.1692(13)
O15_2 O 0.7531(2) 0.6842(2) 0.1942(8)
C11_2 C 0.7496(4) 0.4250(4) 0.1402(12)
H11_2 H 0.7931 0.4504 0.1742
C12_2 C 0.6798(4) 0.5260(4) 0.3192(13)
H12_2 H 0.6706 0.4967 0.4542
O18_2 O 0.8158(2) 0.2531(2) 0.4442(8)
O19_2 O 0.7570(3) 0.3162(2) 0.9393(8)
O20_2 O 0.7715(3) 0.1148(3) 0.6832(9)
O21_2 O 0.8852(3) 0.2285(3) 0.8168(9)
H13_2 H 0.750(4) 0.110(4) 0.564(13)
H14_2 H 0.890(4) 0.250(4) 0.936(13)
H16_2 H 0.577779 0.54196 0.271145
H17_2 H 0.45804 0.422221 0.228855
H18_2 H 0.590214 0.368872 0.562439
H19_2 H 0.909798 0.253152 0.689994
H20_2 H 0.746848 0.0902023 0.810006
O6_2 O 0.3852(3) 0.2715(3) 0.9332(9)
H4_2 H 0.390(4) 0.250(4) 0.814(13)
O10_2 O 0.7682(4) 0.4154(3) 0.7386(10)
C7_2 C 0.7581(4) 0.3825(4) 0.9185(13)
H8_2 H 0.6965 0.5070 0.9780
O16_2 O 0.7864(3) 0.5914(3) 0.9911(10)
H15_2 H 0.631128 0.409786 0.937561
O13_3 O 0.0708(3) 0.8791(3) 0.0377(10)
C9_3 C 0.0706(4) 0.7563(4) 0.1197(13)
H9_3 H 0.0400 0.7164 0.1552
C12_3 C 0.0260(4) 0.8202(4) 0.0692(13)
H16_3 H 0.0419604 0.922221 0.0211445
H8_3 H 0.0070 0.8035 0.7280
C10_3 C 0.1175(4) 0.7376(4) 0.9192(13)
O16_3 O 0.0914(3) 0.7136(3) 0.7411(10)
H2_3 H 0.8035 0.0070 0.2720
C4_3 C 0.7376(4) 0.1175(4) 0.0808(13)
O8_3 O 0.7136(3) 0.0914(3) 0.2589(10)
O5_3 O 0.8791(3) 0.0708(3) 0.9623(10)
C3_3 C 0.7563(4) 0.0706(4) 0.8803(13)
H3_3 H 0.7164 0.0400 0.8448
C6_3 C 0.8202(4) 0.0260(4) 0.9308(13)
H17_3 H 0.922221 0.0419604 0.978855
O1_3 O 0.7430(3) 0.8162(2) 0.3107(8)
O2_3 O 0.7318(4) 0.9154(3) 0.5114(10)
C1_3 C 0.7419(4) 0.8825(4) 0.3315(13)
C2_3 C 0.8125(4) 0.9779(4) 0.1364(13)
O4_3 O 0.8746(3) 0.9399(3) 0.1746(10)
C5_3 C 0.7504(4) 0.9250(4) 0.1098(12)
H5_3 H 0.7069 0.9504 0.0758
O11_3 O 0.8779(3) 0.7668(3) 0.0744(9)
H7_3 H 0.876(5) 0.739(4) 0.156(15)
H12_3 H 0.9967 0.8294 0.2042
O19_3 O 0.8162(2) 0.7430(3) 0.6893(8)
H18_3 H 0.868872 0.909786 0.312439
H19_3 H 0.753152 0.590202 0.439994
H20_3 H 0.590202 0.753152 0.560006
O3_3 O 0.7668(3) 0.8779(3) 0.9256(9)
H1_3 H 0.739(4) 0.876(5) 0.844(15)
H6_3 H 0.8294 0.9967 0.7958
O10_3 O 0.9154(3) 0.7318(4) 0.4886(10)
C7_3 C 0.8825(4) 0.7419(4) 0.6685(13)
C8_3 C 0.9779(4) 0.8125(4) 0.8636(13)
O12_3 O 0.9399(3) 0.8746(3) 0.8254(10)
C11_3 C 0.9250(4) 0.7504(4) 0.8902(12)
H11_3 H 0.9504 0.7069 0.9242
H15_3 H 0.909786 0.868872 0.687561
O2_4 O 0.2682(4) 0.0846(3) 0.0114(10)
O19_4 O 0.1838(2) 0.2570(3) 0.1893(8)
H20_4 H 0.409798 0.246848 0.0600063
O1_4 O 0.2570(3) 0.1838(2) 0.8107(8)
C1_4 C 0.2581(4) 0.1175(4) 0.8315(13)
O3_4 O 0.2332(3) 0.1221(3) 0.4256(9)
H1_4 H 0.261(4) 0.124(5) 0.344(15)
C2_4 C 0.1875(4) 0.0221(4) 0.6364(13)
O4_4 O 0.1254(3) 0.0601(3) 0.6746(10)
C5_4 C 0.2496(4) 0.0750(4) 0.6098(12)
H5_4 H 0.2931 0.0496 0.5758
H6_4 H 0.1706 0.0033 0.2958
C7_4 C 0.1175(4) 0.2581(4) 0.1685(13)
O11_4 O 0.1221(3) 0.2332(3) 0.5744(9)
H7_4 H 0.124(5) 0.261(4) 0.656(15)
C8_4 C 0.0221(4) 0.1875(4) 0.3636(13)
O12_4 O 0.0601(3) 0.1254(3) 0.3254(10)
C11_4 C 0.0750(4) 0.2496(4) 0.3902(12)
H11_4 H 0.0496 0.2931 0.4242
H12_4 H 0.0033 0.1706 0.7042
H15_4 H 0.0902136 0.131128 0.187561
H18_4 H 0.131128 0.0902136 0.812439
H19_4 H 0.246848 0.409798 0.939994
O10_4 O 0.0846(3) 0.2682(4) 0.9886(10)
H2_4 H 0.1965 0.9930 0.7720
O5_4 O 0.1209(3) 0.9292(3) 0.4623(10)
C3_4 C 0.2437(4) 0.9294(4) 0.3803(13)
H3_4 H 0.2836 0.9600 0.3448
C4_4 C 0.2624(4) 0.8825(4) 0.5808(13)
O8_4 O 0.2864(3) 0.9086(3) 0.7589(10)
C6_4 C 0.1798(4) 0.9740(4) 0.4308(13)
H17_4 H 0.0777794 0.95804 0.478855
H8_4 H 0.9930 0.1965 0.2280
O13_4 O 0.9292(3) 0.1209(3) 0.5377(10)
C9_4 C 0.9294(4) 0.2437(4) 0.6197(13)
H9_4 H 0.9600 0.2836 0.6552
C10_4 C 0.8825(4) 0.2624(4) 0.4192(13)
O16_4 O 0.9086(3) 0.2864(3) 0.2411(10)
C12_4 C 0.9740(4) 0.1798(4) 0.5692(13)
H16_4 H 0.95804 0.0777794 0.521145
loop_
_geom_bond_atom_site_label_1
_geom_bond_atom_site_label_2
_geom_bond_site_symmetry_1
_geom_bond_site_symmetry_2
Zn2 O1 1_555 1_555
O1 C1 1_555 1_555
O2 C1 1_555 1_555
H10 O14 1_555 1_555
O19 Zn2 1_555 1_555
O20 Zn2 1_555 1_555
O21 Zn2 1_555 1_555
O22 Zn2 1_555 1_555
Zn6 O14 1_555 1_555
H13 O20 1_555 1_555
H14 O21 1_555 1_555
O21 H19 1_555 1_555
O20 H20 1_555 1_555
O3 Zn1 1_555 1_555
H1 O3 1_555 1_555
O4 C2 1_555 1_555
O5 C6 1_555 1_555
C3 H3 1_555 1_555
O6 C3 1_555 1_555
H4 O6 1_555 1_555
C4 C3 1_555 1_555
O7 C4 1_555 1_555
C5 O3 1_555 1_555
H5 C5 1_555 1_555
C6 C2 1_555 1_555
H6 C6 1_555 1_555
O19 Zn1 1_555 1_555
O10 C7 1_555 1_555
C7 O19 1_555 1_555
O11 Zn1 1_555 1_555
H7 O11 1_555 1_555
C8 H8 1_555 1_555
O12 C8 1_555 1_555
O13 C12 1_555 1_555
C9 H9 1_555 1_555
C10 C9 1_555 1_555
O15 C10 1_555 1_555
O16 C10 1_555 1_555
C11 C7 1_555 1_555
H11 C11 1_555 1_555
C12 C8 1_555 1_555
H12 C12 1_555 1_555
O22 Zn1 1_555 1_555
O18 Zn1 1_555 1_555
Zn3 O6 1_555 1_555
Zn4_2 O7 1_555 1_555
Zn7 O15 1_555 1_555
C2 C5 1_555 1_555
C3 C6 1_555 1_555
O7 Zn3 1_555 1_555
O11 C11 1_555 1_555
C8 C11 1_555 1_555
C9 C12 1_555 1_555
O15 Zn6_2 1_555 1_555
O12 H15 1_555 1_555
O13 H16 1_555 1_555
O5 H17 1_555 1_555
Zn1_2 O1_2 1_555 1_555
Zn2_2 O1_2 1_555 1_555
O1_2 C1_2 1_555 1_555
O2_2 C1_2 1_555 1_555
C1_2 C5_2 1_555 1_555
O3_2 Zn1_2 1_555 1_555
H1_2 O3_2 1_555 1_555
C2_2 H2_2 1_555 1_555
O4_2 C2_2 1_555 1_555
O5_2 C6_2 1_555 1_555
C3_2 H3_2 1_555 1_555
C4_2 C3_2 1_555 1_555
O7_2 C4_2 1_555 1_555
O8_2 C4_2 1_555 1_555
C5_2 O3_2 1_555 1_555
H5_2 C5_2 1_555 1_555
C6_2 C2_2 1_555 1_555
H6_2 C6_2 1_555 1_555
O11_2 Zn1_2 1_555 1_555
H7_2 O11_2 1_555 1_555
O12_2 C8_2 1_555 1_555
O13_2 C12_2 1_555 1_555
C9_2 H9_2 1_555 1_555
O14_2 C9_2 1_555 1_555
H10_2 O14_2 1_555 1_555
C10_2 C9_2 1_555 1_555
O15_2 C10_2 1_555 1_555
H11_2 C11_2 1_555 1_555
C12_2 C8_2 1_555 1_555
H12_2 C12_2 1_555 1_555
O22_2 Zn1_2 1_555 1_555
O18_2 Zn1_2 1_555 1_555
O19_2 Zn2_2 1_555 1_555
O20_2 Zn2_2 1_555 1_555
O21_2 Zn2_2 1_555 1_555
Zn7 O7_2 1_555 1_555
Zn3 O14_2 1_555 1_555
Zn4 O15_2 1_555 1_555
H13_2 O20_2 1_555 1_555
H14_2 O21_2 1_555 1_555
Zn2_2 O18_2 1_555 1_555
C2_2 C5_2 1_555 1_555
C3_2 C6_2 1_555 1_555
O7_2 Zn6 1_555 1_555
O11_2 C11_2 1_555 1_555
C8_2 C11_2 1_555 1_555
C9_2 C12_2 1_555 1_555
O15_2 Zn3 1_555 1_555
O13_2 H16_2 1_555 1_555
O5_2 H17_2 1_555 1_555
O4_2 H18_2 1_555 1_555
O21_2 H19_2 1_555 1_555
O20_2 H20_2 1_555 1_555
H4_2 O6_2 1_555 1_555
O10_2 C7_2 1_555 1_555
C7_2 O19_2 1_555 1_555
Zn6_2 O6_2 1_555 1_555
O13_3 C12_3 1_555 1_555
C9_3 H9_3 1_555 1_555
O21 C9_3 1_555 1_555
C9_3 C12_3 1_555 1_555
O13_3 H16_3 1_555 1_555
O18 C10_3 1_555 1_555
O16_3 C10_3 1_555 1_555
O22_2 C4_3 1_555 1_555
O8_3 C4_3 1_555 1_555
O5_3 C6_3 1_555 1_555
C3_3 H3_3 1_555 1_555
O20_2 C3_3 1_555 1_555
C3_3 C6_3 1_555 1_555
O5_3 H17_3 1_555 1_555
Zn4 O1_3 1_555 1_555
Zn3 O1_3 1_555 1_555
O1_3 C1_3 1_555 1_555
O2_3 C1_3 1_555 1_555
C1_3 C5_3 1_555 1_555
O4_3 C2_3 1_555 1_555
H5_3 C5_3 1_555 1_555
O11_3 Zn4 1_555 1_555
H7_3 O11_3 1_555 1_555
O19_3 Zn3 1_555 1_555
C2_3 C5_3 1_555 1_555
O4_3 H18_3 1_555 1_555
O14_2 H19_3 1_555 1_555
O6 H20_3 1_555 1_555
O3_3 Zn4_2 1_555 1_555
H1_3 O3_3 1_555 1_555
O19_3 Zn4_2 1_555 1_555
O10_3 C7_3 1_555 1_555
C7_3 O19_3 1_555 1_555
O12_3 C8_3 1_555 1_555
C11_3 C7_3 1_555 1_555
H11_3 C11_3 1_555 1_555
C8_3 C11_3 1_555 1_555
O12_3 H15_3 1_555 1_555
O19_4 Zn6 1_555 1_555
Zn7 O1_4 1_555 1_555
Zn6_2 O1_4 1_555 1_555
O1_4 C1_4 1_555 1_555
C1_4 C5_4 1_555 1_555
O3_4 Zn7 1_555 1_555
H1_4 O3_4 1_555 1_555
O4_4 C2_4 1_555 1_555
C5_4 O3_4 1_555 1_555
H5_4 C5_4 1_555 1_555
O19_4 Zn7 1_555 1_555
C7_4 O19_4 1_555 1_555
O11_4 Zn7 1_555 1_555
H7_4 O11_4 1_555 1_555
O12_4 C8_4 1_555 1_555
C11_4 C7_4 1_555 1_555
H11_4 C11_4 1_555 1_555
C2_4 C5_4 1_555 1_555
O11_4 C11_4 1_555 1_555
C8_4 C11_4 1_555 1_555
O12_4 H15_4 1_555 1_555
O4_4 H18_4 1_555 1_555
O5_4 C6_4 1_555 1_555
C3_4 H3_4 1_555 1_555
O20 C3_4 1_555 1_555
C4_4 C3_4 1_555 1_555
O22 C4_4 1_555 1_555
O8_4 C4_4 1_555 1_555
C3_4 C6_4 1_555 1_555
O5_4 H17_4 1_555 1_555
O13_4 C12_4 1_555 1_555
C9_4 H9_4 1_555 1_555
O21_2 C9_4 1_555 1_555
C10_4 C9_4 1_555 1_555
O18_2 C10_4 1_555 1_555
O16_4 C10_4 1_555 1_555
C9_4 C12_4 1_555 1_555
O13_4 H16_4 1_555 1_555

#END
