
###############################################################################
#
# This file contains modified crystal structure data generated from the
# MOF subset of the Cambridge Structural Database (CSD) v543 
# hosted by the Cambridge Crystallographic Data Centre (CCDC).
#
# This work is licensed under the Creative Commons
# Attribution-NonCommercial-ShareAlike 4.0 International License.
# To view a copy of this license, visit
# http://creativecommons.org/licenses/by-nc-sa/4.0/
# or send a letter to
# Creative Commons, PO Box 1866, Mountain View, CA 94042, USA.
#
# CIF created using the CSD Python API on 29 September 2022
# The structure has been converted into the P1 space group
# The structure has a 3D framework
# The original CSD entry TADCUA is in the monoclinic crystal system
# The framework has been calculated to contain at least 10.0% void space
# The void calculation uses a probe of radius 1.32A, grid spacing 0.4
#
###############################################################################

data_TADCUA
_chemical_formula_moiety         '(C100 H72 N16 O18 Zn4)n'
_symmetry_cell_setting           triclinic
_symmetry_space_group_name_H-M   'P 1'
_symmetry_Int_Tables_number      1
_space_group_name_Hall           'P 1'
loop_
_symmetry_equiv_pos_site_id
_symmetry_equiv_pos_as_xyz
1 x,y,z
_cell_length_a                   10.7550(7)
_cell_length_b                   21.0445(14)
_cell_length_c                   11.9923(8)
_cell_angle_alpha                90
_cell_angle_beta                 99.7900(10)
_cell_angle_gamma                90
_cell_volume                     2674.73
loop_
_atom_site_label
_atom_site_type_symbol
_atom_site_fract_x
_atom_site_fract_y
_atom_site_fract_z
H11 H 0.0255 0.2713 0.8502
C18 C 0.02814(12) 0.23612(6) 0.69218(11)
C19 C 0.12553(12) 0.27941(6) 0.66076(11)
C20 C 0.14704(14) 0.33921(7) 0.71002(13)
H13 H 0.0995 0.3524 0.7659
C21 C 0.19889(13) 0.26112(6) 0.58018(12)
H14 H 0.1881 0.2199 0.5475
C22 C 0.23690(14) 0.37998(6) 0.67881(12)
H15 H 0.2511 0.4203 0.7144
C23 C 0.28701(13) 0.30216(6) 0.54733(12)
H16 H 0.3345 0.2892 0.4913
C24 C 0.30619(11) 0.36226(6) 0.59605(10)
C25 C 0.39899(11) 0.40734(6) 0.55861(10)
O4 O 0.41440(9) 0.46048(4) 0.60561(8)
O5 O 0.45582(8) 0.38826(4) 0.48107(7)
Zn3 Zn 0.42865(2) 0.55821(2) 0.59174(2)
Zn4 Zn 0.57135(2) 0.44179(2) 0.40826(2)
C7 C 0.07175(11) 0.52948(6) 0.27620(10)
C8 C 0.17001(12) 0.56941(6) 0.25890(11)
H5 H 0.1672 0.5914 0.1893
C9 C 0.08107(11) 0.49894(7) 0.38098(11)
H6 H 0.0163 0.4710 0.3954
C10 C 0.27214(12) 0.57625(6) 0.34592(11)
H7 H 0.3396 0.6029 0.3332
C11 C 0.18501(12) 0.50977(7) 0.46283(11)
H8 H 0.1889 0.4896 0.5342
N4 N 0.28149(10) 0.54751(5) 0.44702(9)
C1 C 0.67112(12) 0.58202(6) 0.76673(10)
H1 H 0.6893 0.6119 0.7124
C2 C 0.54008(12) 0.50624(6) 0.82036(10)
H2 H 0.4650 0.4817 0.8047
C3 C 0.75846(12) 0.57524(6) 0.86587(10)
H3 H 0.8340 0.5996 0.8786
C4 C 0.62044(12) 0.49629(6) 0.92108(10)
H4 H 0.6003 0.4656 0.9733
C5 C 0.73143(11) 0.53149(6) 0.94614(10)
C12 C 0.24735(11) 0.60515(6) 0.71666(10)
C13 C 0.15288(11) 0.65144(6) 0.74822(11)
C14 C 0.10057(14) 0.69857(7) 0.67332(12)
H9 H 0.1266 0.7025 0.6018
C15 C 0.11449(12) 0.64718(6) 0.85326(11)
H10 H 0.1483 0.6148 0.9048
C16 C 0.01050(15) 0.73991(8) 0.70247(13)
C17 C 0.02744(12) 0.68971(6) 0.88323(11)
H12 H 0.0052 0.6872 0.9565
N1 N 0.56291(10) 0.54920(5) 0.74271(9)
O2 O 0.31770(9) 0.62437(5) 0.64919(8)
O3 O 0.25101(9) 0.55003(4) 0.75700(9)
O7 O 0.54418(8) 0.61174(4) 0.51893(7)
H11_2 H 0.9745 0.7287 0.1498
C18_2 C 0.97186(12) 0.76388(6) 0.30782(11)
C19_2 C 0.87447(12) 0.72059(6) 0.33924(11)
C20_2 C 0.85296(14) 0.66079(7) 0.28998(13)
H13_2 H 0.9005 0.6476 0.2341
C21_2 C 0.80111(13) 0.73888(6) 0.41982(12)
H14_2 H 0.8119 0.7801 0.4525
C22_2 C 0.76310(14) 0.62002(6) 0.32119(12)
H15_2 H 0.7489 0.5797 0.2856
C23_2 C 0.71299(13) 0.69784(6) 0.45267(12)
H16_2 H 0.6655 0.7108 0.5087
C24_2 C 0.69381(11) 0.63774(6) 0.40395(10)
C25_2 C 0.60101(11) 0.59266(6) 0.44139(10)
O4_2 O 0.58560(9) 0.53952(4) 0.39439(8)
C1_2 C 0.32888(12) 0.41798(6) 0.23327(10)
H1_2 H 0.3107 0.3881 0.2876
C2_2 C 0.45992(12) 0.49376(6) 0.17964(10)
H2_2 H 0.5350 0.5183 0.1953
C3_2 C 0.24154(12) 0.42476(6) 0.13413(10)
H3_2 H 0.1660 0.4004 0.1214
C4_2 C 0.37956(12) 0.50371(6) 0.07892(10)
H4_2 H 0.3997 0.5344 0.0267
C5_2 C 0.26857(11) 0.46851(6) 0.05386(10)
C12_2 C 0.75265(11) 0.39485(6) 0.28334(10)
C13_2 C 0.84712(11) 0.34856(6) 0.25178(11)
C14_2 C 0.89943(14) 0.30143(7) 0.32668(12)
H9_2 H 0.8734 0.2975 0.3982
C15_2 C 0.88551(12) 0.35282(6) 0.14674(11)
H10_2 H 0.8517 0.3852 0.0952
C16_2 C 0.98950(15) 0.26009(8) 0.29753(13)
C17_2 C 0.97256(12) 0.31029(6) 0.11677(11)
H12_2 H 0.9948 0.3128 0.0435
N1_2 N 0.43709(10) 0.45080(5) 0.25729(9)
O2_2 O 0.68230(9) 0.37563(5) 0.35081(8)
O3_2 O 0.74899(9) 0.44997(4) 0.24300(9)
N5 N 0.71851(10) 0.45249(5) 0.55298(9)
C7_2 C 0.92825(11) 0.47052(6) 0.72380(10)
C8_2 C 0.82999(12) 0.43059(6) 0.74110(11)
H5_2 H 0.8328 0.4086 0.8107
C9_2 C 0.91893(11) 0.50106(7) 0.61902(11)
H6_2 H 0.9837 0.5290 0.6046
C10_2 C 0.72786(12) 0.42375(6) 0.65408(11)
H7_2 H 0.6604 0.3971 0.6668
C11_2 C 0.81499(12) 0.49023(7) 0.53717(11)
H8_2 H 0.8111 0.5104 0.4658
N5_2 N 0.71851(10) 0.04751(5) 0.05298(9)
C7_3 C 0.92825(11) 0.02948(6) 0.22380(10)
C8_3 C 0.82999(12) 0.06941(6) 0.24110(11)
H5_3 H 0.8328 0.0914 0.3107
C10_3 C 0.72786(12) 0.07625(6) 0.15408(11)
H7_3 H 0.6604 0.1029 0.1668
C11_3 C 0.81499(12) 0.00977(7) 0.03717(11)
C1_3 C 0.32888(12) 0.08202(6) 0.73327(10)
H1_3 H 0.3107 0.1119 0.7876
C2_3 C 0.45992(12) 0.00624(6) 0.67964(10)
C3_3 C 0.24154(12) 0.07524(6) 0.63413(10)
H3_3 H 0.1660 0.0996 0.6214
C5_3 C 0.26857(11) 0.03149(6) 0.55386(10)
C6 C 0.07590(11) 0.04228(6) 0.40627(10)
C12_3 C 0.75265(11) 0.10515(6) 0.78334(10)
C13_3 C 0.84712(11) 0.15144(6) 0.75178(11)
C14_3 C 0.89943(14) 0.19857(7) 0.82668(12)
H9_3 H 0.8734 0.2025 0.8982
C15_3 C 0.88551(12) 0.14718(6) 0.64674(11)
H10_3 H 0.8517 0.1148 0.5952
C16_3 C 0.98950(15) 0.23991(8) 0.79753(13)
C17_3 C 0.97256(12) 0.18971(6) 0.61677(11)
H12_3 H 0.9948 0.1872 0.5435
N1_3 N 0.43709(10) 0.04920(5) 0.75729(9)
N2 N 0.19488(10) 0.01977(5) 0.44943(9)
N3 N 0.03635(10) 0.01628(5) 0.30076(9)
O1 O 0.01585(9) 0.07966(5) 0.45320(8)
O2_3 O 0.68230(9) 0.12437(5) 0.85081(8)
O3_3 O 0.74899(9) 0.05003(4) 0.74300(9)
Zn1 Zn 0.57135(2) 0.05821(2) 0.90826(2)
O7_2 O 0.45582(8) 0.11174(4) 0.98107(7)
H16_3 H 0.3345 0.2108 0.9913
H2_3 H 0.5350 0.9817 0.6953
C4_3 C 0.37956(12) 0.99629(6) 0.57892(10)
H4_3 H 0.3997 0.9656 0.5267
H17 H 0.2286 0.9944 0.4044
H18 H 0.0866 0.9874 0.2794
O6 O 0.58560(9) 0.96048(4) 0.89439(8)
H11_3 H 0.9745 0.7713 0.6498
C18_3 C 0.97186(12) 0.73612(6) 0.80782(11)
C19_3 C 0.87447(12) 0.77941(6) 0.83924(11)
C20_3 C 0.85296(14) 0.83921(7) 0.78998(13)
H13_3 H 0.9005 0.8524 0.7341
C21_3 C 0.80111(13) 0.76112(6) 0.91982(12)
H14_3 H 0.8119 0.7199 0.9525
C22_3 C 0.76310(14) 0.87998(6) 0.82119(12)
H15_3 H 0.7489 0.9203 0.7856
C23_3 C 0.71299(13) 0.80216(6) 0.95267(12)
C24_3 C 0.69381(11) 0.86226(6) 0.90395(10)
C25_3 C 0.60101(11) 0.90734(6) 0.94139(10)
C9_3 C 0.91893(11) 0.99894(7) 0.11902(11)
H6_3 H 0.9837 0.9710 0.1046
H8_3 H 0.8111 0.9896 0.9658
C6_2 C 0.92410(11) 0.54228(6) 0.09373(10)
N2_2 N 0.80512(10) 0.51977(5) 0.05057(9)
H17_2 H 0.7714 0.4944 0.0956
N3_2 N 0.96365(10) 0.51628(5) 0.19924(9)
H18_2 H 0.9134 0.4874 0.2206
O1_2 O 0.98415(9) 0.57966(5) 0.04680(8)
H16_4 H 0.6655 0.7892 0.0087
O5_2 O 0.54418(8) 0.88826(4) 0.01893(7)
Zn4_2 Zn 0.42865(2) 0.94179(2) 0.09174(2)
C1_4 C 0.67112(12) 0.91798(6) 0.26673(10)
H1_4 H 0.6893 0.8881 0.2124
C2_4 C 0.54008(12) 0.99376(6) 0.32036(10)
C3_4 C 0.75846(12) 0.92476(6) 0.36587(10)
H3_4 H 0.8340 0.9004 0.3786
C5_4 C 0.73143(11) 0.96851(6) 0.44614(10)
C6_3 C 0.92410(11) 0.95772(6) 0.59373(10)
C12_4 C 0.24735(11) 0.89485(6) 0.21666(10)
C13_4 C 0.15288(11) 0.84856(6) 0.24822(11)
C14_4 C 0.10057(14) 0.80143(7) 0.17332(12)
H9_4 H 0.1266 0.7975 0.1018
C15_4 C 0.11449(12) 0.85282(6) 0.35326(11)
H10_4 H 0.1483 0.8852 0.4048
C16_4 C 0.01050(15) 0.76009(8) 0.20247(13)
C17_4 C 0.02744(12) 0.81029(6) 0.38323(11)
H12_4 H 0.0052 0.8128 0.4565
N1_4 N 0.56291(10) 0.95080(5) 0.24271(9)
N2_3 N 0.80512(10) 0.98023(5) 0.55057(9)
N3_3 N 0.96365(10) 0.98372(5) 0.69924(9)
O1_3 O 0.98415(9) 0.92034(5) 0.54680(8)
O2_4 O 0.31770(9) 0.87563(5) 0.14919(8)
O3_4 O 0.25101(9) 0.94997(4) 0.25700(9)
H8_4 H 0.1889 0.0104 0.0342
C9_4 C 0.08107(11) 0.00106(7) 0.88098(11)
H6_4 H 0.0163 0.0290 0.8954
C7_4 C 0.07175(11) 0.97052(6) 0.77620(10)
C8_4 C 0.17001(12) 0.93059(6) 0.75890(11)
H5_4 H 0.1672 0.9086 0.6893
C10_4 C 0.27214(12) 0.92375(6) 0.84592(11)
H7_4 H 0.3396 0.8971 0.8332
C11_4 C 0.18501(12) 0.99023(7) 0.96283(11)
N4_2 N 0.28149(10) 0.95249(5) 0.94702(9)
H2_4 H 0.4650 0.0183 0.3047
C4_4 C 0.62044(12) 0.00371(6) 0.42108(10)
H4_4 H 0.6003 0.0344 0.4733
H17_3 H 0.7714 0.0056 0.5956
H18_3 H 0.9134 0.0126 0.7206
O6_2 O 0.41440(9) 0.03952(4) 0.10561(8)
H11_4 H 0.0255 0.2287 0.3502
C18_4 C 0.02814(12) 0.26388(6) 0.19218(11)
C19_4 C 0.12553(12) 0.22059(6) 0.16076(11)
C20_4 C 0.14704(14) 0.16079(7) 0.21002(13)
H13_4 H 0.0995 0.1476 0.2659
C21_4 C 0.19889(13) 0.23888(6) 0.08018(12)
H14_4 H 0.1881 0.2801 0.0475
C22_4 C 0.23690(14) 0.12002(6) 0.17881(12)
H15_4 H 0.2511 0.0797 0.2144
C23_4 C 0.28701(13) 0.19784(6) 0.04733(12)
C24_4 C 0.30619(11) 0.13774(6) 0.09605(10)
C25_4 C 0.39899(11) 0.09266(6) 0.05861(10)
C6_4 C 0.07590(11) 0.45772(6) 0.90627(10)
N2_4 N 0.19488(10) 0.48023(5) 0.94943(9)
H17_4 H 0.2286 0.5056 0.9044
N3_4 N 0.03635(10) 0.48372(5) 0.80076(9)
H18_4 H 0.0866 0.5126 0.7794
O1_4 O 0.01585(9) 0.42034(5) 0.95320(8)
loop_
_geom_bond_atom_site_label_1
_geom_bond_atom_site_label_2
_geom_bond_site_symmetry_1
_geom_bond_site_symmetry_2
C19 C18 1_555 1_555
C20 C19 1_555 1_555
H13 C20 1_555 1_555
C21 C19 1_555 1_555
H14 C21 1_555 1_555
C22 C20 1_555 1_555
H15 C22 1_555 1_555
C23 C21 1_555 1_555
H16 C23 1_555 1_555
C24 C22 1_555 1_555
C25 C24 1_555 1_555
O4 C25 1_555 1_555
O5 C25 1_555 1_555
Zn3 O4 1_555 1_555
Zn4 O5 1_555 1_555
C23 C24 1_555 1_555
C7 C8 1_555 1_555
C8 H5 1_555 1_555
C9 C7 1_555 1_555
H6 C9 1_555 1_555
C10 C8 1_555 1_555
H7 C10 1_555 1_555
C11 C9 1_555 1_555
H8 C11 1_555 1_555
N4 C10 1_555 1_555
Zn3 N4 1_555 1_555
C11 N4 1_555 1_555
C1 H1 1_555 1_555
C2 H2 1_555 1_555
C3 C1 1_555 1_555
H3 C3 1_555 1_555
C4 C2 1_555 1_555
H4 C4 1_555 1_555
C5 C3 1_555 1_555
C12 C13 1_555 1_555
C13 C14 1_555 1_555
C14 H9 1_555 1_555
C15 C13 1_555 1_555
H10 C15 1_555 1_555
C16 C14 1_555 1_555
C17 C15 1_555 1_555
H12 C17 1_555 1_555
N1 C1 1_555 1_555
O2 C12 1_555 1_555
O3 C12 1_555 1_555
Zn3 N1 1_555 1_555
O7 Zn3 1_555 1_555
C2 N1 1_555 1_555
C4 C5 1_555 1_555
O2 Zn3 1_555 1_555
C19_2 C18_2 1_555 1_555
C20_2 C19_2 1_555 1_555
H13_2 C20_2 1_555 1_555
C21_2 C19_2 1_555 1_555
H14_2 C21_2 1_555 1_555
C22_2 C20_2 1_555 1_555
H15_2 C22_2 1_555 1_555
C23_2 C21_2 1_555 1_555
H16_2 C23_2 1_555 1_555
C24_2 C22_2 1_555 1_555
C25_2 C24_2 1_555 1_555
O4_2 C25_2 1_555 1_555
O7 C25_2 1_555 1_555
Zn4 O4_2 1_555 1_555
C23_2 C24_2 1_555 1_555
C1_2 H1_2 1_555 1_555
C2_2 H2_2 1_555 1_555
C3_2 C1_2 1_555 1_555
H3_2 C3_2 1_555 1_555
C4_2 C2_2 1_555 1_555
H4_2 C4_2 1_555 1_555
C5_2 C3_2 1_555 1_555
C12_2 C13_2 1_555 1_555
C13_2 C14_2 1_555 1_555
C14_2 H9_2 1_555 1_555
C15_2 C13_2 1_555 1_555
H10_2 C15_2 1_555 1_555
C16_2 C14_2 1_555 1_555
C17_2 C15_2 1_555 1_555
H12_2 C17_2 1_555 1_555
N1_2 C1_2 1_555 1_555
O2_2 C12_2 1_555 1_555
O3_2 C12_2 1_555 1_555
Zn4 N1_2 1_555 1_555
N5 Zn4 1_555 1_555
C2_2 N1_2 1_555 1_555
C4_2 C5_2 1_555 1_555
O2_2 Zn4 1_555 1_555
C7_2 C8_2 1_555 1_555
C8_2 H5_2 1_555 1_555
C9_2 C7_2 1_555 1_555
H6_2 C9_2 1_555 1_555
C10_2 C8_2 1_555 1_555
H7_2 C10_2 1_555 1_555
C11_2 C9_2 1_555 1_555
H8_2 C11_2 1_555 1_555
N5 C10_2 1_555 1_555
C11_2 N5 1_555 1_555
C7_3 C8_3 1_555 1_555
C8_3 H5_3 1_555 1_555
C10_3 C8_3 1_555 1_555
H7_3 C10_3 1_555 1_555
N5_2 C10_3 1_555 1_555
C11_3 N5_2 1_555 1_555
C1_3 H1_3 1_555 1_555
C3_3 C1_3 1_555 1_555
H3_3 C3_3 1_555 1_555
C5_3 C3_3 1_555 1_555
C6 N2 1_555 1_555
C12_3 C13_3 1_555 1_555
C13_3 C14_3 1_555 1_555
C14_3 H9_3 1_555 1_555
C15_3 C13_3 1_555 1_555
H10_3 C15_3 1_555 1_555
C16_3 C14_3 1_555 1_555
C17_3 C15_3 1_555 1_555
H12_3 C17_3 1_555 1_555
N1_3 C1_3 1_555 1_555
N2 C5_3 1_555 1_555
N3 C6 1_555 1_555
O1 C6 1_555 1_555
O2_3 C12_3 1_555 1_555
O3_3 C12_3 1_555 1_555
Zn1 N1_3 1_555 1_555
O7_2 Zn1 1_555 1_555
C2_3 N1_3 1_555 1_555
O2_3 Zn1 1_555 1_555
H4_3 C4_3 1_555 1_555
C19_3 C18_3 1_555 1_555
C20_3 C19_3 1_555 1_555
H13_3 C20_3 1_555 1_555
C21_3 C19_3 1_555 1_555
H14_3 C21_3 1_555 1_555
C22_3 C20_3 1_555 1_555
H15_3 C22_3 1_555 1_555
C23_3 C21_3 1_555 1_555
C24_3 C22_3 1_555 1_555
C25_3 C24_3 1_555 1_555
O6 C25_3 1_555 1_555
C23_3 C24_3 1_555 1_555
H6_3 C9_3 1_555 1_555
C6_2 N2_2 1_555 1_555
H17_2 N2_2 1_555 1_555
N3_2 C6_2 1_555 1_555
H18_2 N3_2 1_555 1_555
O1_2 C6_2 1_555 1_555
Zn4_2 O5_2 1_555 1_555
C1_4 H1_4 1_555 1_555
C3_4 C1_4 1_555 1_555
H3_4 C3_4 1_555 1_555
C5_4 C3_4 1_555 1_555
C6_3 N2_3 1_555 1_555
C12_4 C13_4 1_555 1_555
C13_4 C14_4 1_555 1_555
C14_4 H9_4 1_555 1_555
C15_4 C13_4 1_555 1_555
H10_4 C15_4 1_555 1_555
C16_4 C14_4 1_555 1_555
C17_4 C15_4 1_555 1_555
H12_4 C17_4 1_555 1_555
N1_4 C1_4 1_555 1_555
N2_3 C5_4 1_555 1_555
N3_3 C6_3 1_555 1_555
O1_3 C6_3 1_555 1_555
O2_4 C12_4 1_555 1_555
O3_4 C12_4 1_555 1_555
Zn4_2 N1_4 1_555 1_555
C2_4 N1_4 1_555 1_555
O2_4 Zn4_2 1_555 1_555
H6_4 C9_4 1_555 1_555
C7_4 C8_4 1_555 1_555
C8_4 H5_4 1_555 1_555
C10_4 C8_4 1_555 1_555
H7_4 C10_4 1_555 1_555
N4_2 C10_4 1_555 1_555
C11_4 N4_2 1_555 1_555
H4_4 C4_4 1_555 1_555
C19_4 C18_4 1_555 1_555
C20_4 C19_4 1_555 1_555
H13_4 C20_4 1_555 1_555
C21_4 C19_4 1_555 1_555
H14_4 C21_4 1_555 1_555
C22_4 C20_4 1_555 1_555
H15_4 C22_4 1_555 1_555
C23_4 C21_4 1_555 1_555
C24_4 C22_4 1_555 1_555
C25_4 C24_4 1_555 1_555
O6_2 C25_4 1_555 1_555
C23_4 C24_4 1_555 1_555
C6_4 N2_4 1_555 1_555
H17_4 N2_4 1_555 1_555
N3_4 C6_4 1_555 1_555
H18_4 N3_4 1_555 1_555
O1_4 C6_4 1_555 1_555

#END
