
###############################################################################
#
# This file contains modified crystal structure data generated from the
# MOF subset of the Cambridge Structural Database (CSD) v543 
# hosted by the Cambridge Crystallographic Data Centre (CCDC).
#
# This work is licensed under the Creative Commons
# Attribution-NonCommercial-ShareAlike 4.0 International License.
# To view a copy of this license, visit
# http://creativecommons.org/licenses/by-nc-sa/4.0/
# or send a letter to
# Creative Commons, PO Box 1866, Mountain View, CA 94042, USA.
#
# CIF created using the CSD Python API on 29 September 2022
# The structure has been converted into the P1 space group
# The structure has a 3D framework
# The original CSD entry TAFREZ is in the monoclinic crystal system
# The framework has been calculated to contain at least 10.0% void space
# The void calculation uses a probe of radius 1.32A, grid spacing 0.4
#
###############################################################################

data_TAFREZ
_chemical_formula_moiety         '(C144 H104 Co4 N24 O24)n'
_symmetry_cell_setting           triclinic
_symmetry_space_group_name_H-M   'P 1'
_symmetry_Int_Tables_number      1
_space_group_name_Hall           'P 1'
loop_
_symmetry_equiv_pos_site_id
_symmetry_equiv_pos_as_xyz
1 x,y,z
_cell_length_a                   15.787(2)
_cell_length_b                   12.3934(16)
_cell_length_c                   20.928(3)
_cell_angle_alpha                90
_cell_angle_beta                 102.886(2)
_cell_angle_gamma                90
_cell_volume                     3991.54
loop_
_atom_site_label
_atom_site_type_symbol
_atom_site_fract_x
_atom_site_fract_y
_atom_site_fract_z
C11 C 0.20793(18) 0.0352(2) 0.93905(14)
C12 C 0.12557(18) 0.0628(2) 0.94716(14)
H10 H 0.0909 0.0104 0.9625
C13 C 0.09379(18) 0.1671(2) 0.93289(14)
C14 C 0.1458(2) 0.2443(2) 0.9126(2)
H11 H 0.1242 0.3154 0.9029
C15 C 0.2292(2) 0.2184(3) 0.9065(2)
H12 H 0.2651 0.2720 0.8936
C16 C 0.2602(2) 0.1134(3) 0.91946(18)
H13 H 0.3170 0.0952 0.9149
C18 C 0.00404(18) 0.1949(2) 0.94088(14)
Co1 Co 0.14130(2) 0.75556(3) 0.031896(18)
O5 O 0.18748(12) 0.60293(16) 0.05997(10)
O6 O 0.03293(14) 0.72056(17) 0.08480(11)
O7 O 0.03321(15) 0.86582(19) 0.02616(13)
N4 N 0.22157(16) 0.8240(2) 0.11744(12)
O1 O 0.19393(13) 0.85606(16) 0.97465(10)
O2 O 0.31252(12) 0.89707(16) 0.94003(10)
N1 N 0.06733(16) 0.6842(2) 0.94391(12)
C1 C 0.0375(3) 0.7426(3) 0.88967(18)
H2 H 0.0567 0.8152 0.8893
C5 C 0.04078(19) 0.5810(2) 0.94211(15)
H5 H 0.0619 0.5370 0.9795
C17 C 0.24025(17) 0.9210(2) 0.95258(12)
Co2 Co 0.35870(2) 0.74444(3) 0.968104(18)
O3 O 0.96707(14) 0.27944(17) 0.91520(11)
O4 O 0.96679(15) 0.13418(19) 0.97384(13)
Co3 Co 0.85870(2) 0.24444(3) 0.968104(18)
N2 N 0.89770(18) 0.5481(2) 0.78040(13)
H1 H 0.903(3) 0.4789(17) 0.7753(19)
N3 N 0.72157(16) 0.6760(2) 0.61744(12)
C2 C 0.9809(2) 0.7045(3) 0.83442(17)
H3 H 0.9616 0.7502 0.7976
C3 C 0.9522(2) 0.5976(3) 0.83322(15)
C4 C 0.9846(2) 0.5354(2) 0.88914(15)
H4 H 0.9679 0.4620 0.8905
C6 C 0.7496(2) 0.7355(3) 0.67173(16)
H6 H 0.7283 0.8072 0.6719
C7 C 0.8072(2) 0.6998(3) 0.72724(15)
H7 H 0.8241 0.7456 0.7643
C8 C 0.8406(2) 0.5946(3) 0.72812(15)
C9 C 0.8102(2) 0.5314(3) 0.67275(16)
H8 H 0.8295 0.4590 0.6714
C10 C 0.7518(2) 0.5744(3) 0.61968(15)
H9 H 0.7319 0.5295 0.5826
Co4 Co 0.64130(2) 0.74444(3) 0.531896(18)
O3_2 O 0.03293(14) 0.27944(17) 0.58480(11)
O4_2 O 0.03321(15) 0.13418(19) 0.52616(13)
Co3_2 Co 0.14130(2) 0.24444(3) 0.531896(18)
N2_2 N 0.10230(18) 0.5481(2) 0.71960(13)
H1_2 H 0.097(3) 0.4789(17) 0.7247(19)
N3_2 N 0.27843(16) 0.6760(2) 0.88256(12)
C2_2 C 0.0191(2) 0.7045(3) 0.66558(17)
H3_2 H 0.0384 0.7502 0.7024
C3_2 C 0.0478(2) 0.5976(3) 0.66678(15)
C4_2 C 0.0154(2) 0.5354(2) 0.61086(15)
H4_2 H 0.0321 0.4620 0.6095
C6_2 C 0.2504(2) 0.7355(3) 0.82827(16)
H6_2 H 0.2717 0.8072 0.8281
C7_2 C 0.1928(2) 0.6998(3) 0.77276(15)
H7_2 H 0.1759 0.7456 0.7357
C8_2 C 0.1594(2) 0.5946(3) 0.77188(15)
C9_2 C 0.1898(2) 0.5314(3) 0.82725(16)
H8_2 H 0.1705 0.4590 0.8286
C10_2 C 0.2482(2) 0.5744(3) 0.88032(15)
H9_2 H 0.2681 0.5295 0.9174
Co1_2 Co 0.85870(2) 0.75556(3) 0.468104(18)
O1_2 O 0.80607(13) 0.85606(16) 0.52535(10)
O2_2 O 0.68748(12) 0.89707(16) 0.55997(10)
N1_2 N 0.93267(16) 0.6842(2) 0.55609(12)
C1_2 C 0.9625(3) 0.7426(3) 0.61033(18)
H2_2 H 0.9433 0.8152 0.6107
C5_2 C 0.95922(19) 0.5810(2) 0.55789(15)
H5_2 H 0.9381 0.5370 0.5205
C17_2 C 0.75975(17) 0.9210(2) 0.54742(12)
O5_2 O 0.81252(12) 0.60293(16) 0.44003(10)
O6_2 O 0.96707(14) 0.72056(17) 0.41520(11)
O7_2 O 0.96679(15) 0.86582(19) 0.47384(13)
N4_2 N 0.77843(16) 0.8240(2) 0.38256(12)
Co1_3 Co 0.64130(2) 0.25556(3) 0.031896(18)
O5_3 O 0.68748(12) 0.10293(16) 0.05997(10)
O6_3 O 0.53293(14) 0.22056(17) 0.08480(11)
O7_3 O 0.53321(15) 0.36582(19) 0.02616(13)
N4_3 N 0.72157(16) 0.3240(2) 0.11744(12)
O1_3 O 0.69393(13) 0.35606(16) 0.97465(10)
O2_3 O 0.81252(12) 0.39707(16) 0.94003(10)
O3_3 O 0.46707(14) 0.77944(17) 0.91520(11)
O4_3 O 0.46679(15) 0.63418(19) 0.97384(13)
N1_3 N 0.56733(16) 0.1842(2) 0.94391(12)
N2_3 N 0.39770(18) 0.0481(2) 0.78040(13)
N3_3 N 0.22157(16) 0.1760(2) 0.61744(12)
C1_3 C 0.5375(3) 0.2426(3) 0.88967(18)
H2_3 H 0.5567 0.3152 0.8893
C2_3 C 0.4809(2) 0.2045(3) 0.83442(17)
H3_3 H 0.4616 0.2502 0.7976
C3_3 C 0.4522(2) 0.0976(3) 0.83322(15)
C4_3 C 0.4846(2) 0.0354(2) 0.88914(15)
C5_3 C 0.54078(19) 0.0810(2) 0.94211(15)
H5_3 H 0.5619 0.0370 0.9795
C6_3 C 0.2496(2) 0.2355(3) 0.67173(16)
H6_3 H 0.2283 0.3072 0.6719
C7_3 C 0.3072(2) 0.1998(3) 0.72724(15)
H7_3 H 0.3241 0.2456 0.7643
C8_3 C 0.3406(2) 0.0946(3) 0.72812(15)
C9_3 C 0.3102(2) 0.0314(3) 0.67275(16)
C10_3 C 0.2518(2) 0.0744(3) 0.61968(15)
H9_3 H 0.2319 0.0295 0.5826
C11_2 C 0.70793(18) 0.5352(2) 0.93905(14)
C12_2 C 0.62557(18) 0.5628(2) 0.94716(14)
H10_2 H 0.5909 0.5104 0.9625
C13_2 C 0.59379(18) 0.6671(2) 0.93289(14)
C14_2 C 0.6458(2) 0.7443(2) 0.9126(2)
H11_2 H 0.6242 0.8154 0.9029
C15_2 C 0.7292(2) 0.7184(3) 0.9065(2)
H12_2 H 0.7651 0.7720 0.8936
C16_2 C 0.7602(2) 0.6134(3) 0.91946(18)
H13_2 H 0.8170 0.5952 0.9149
C17_3 C 0.74025(17) 0.4210(2) 0.95258(12)
C18_2 C 0.50404(18) 0.6949(2) 0.94088(14)
Co1_4 Co 0.35870(2) 0.25556(3) 0.468104(18)
O1_4 O 0.30607(13) 0.35606(16) 0.52535(10)
O2_4 O 0.18748(12) 0.39707(16) 0.55997(10)
O3_4 O 0.53293(14) 0.77944(17) 0.58480(11)
O4_4 O 0.53321(15) 0.63418(19) 0.52616(13)
N1_4 N 0.43267(16) 0.1842(2) 0.55609(12)
N2_4 N 0.60230(18) 0.0481(2) 0.71960(13)
N3_4 N 0.77843(16) 0.1760(2) 0.88256(12)
C1_4 C 0.4625(3) 0.2426(3) 0.61033(18)
H2_4 H 0.4433 0.3152 0.6107
C2_4 C 0.5191(2) 0.2045(3) 0.66558(17)
H3_4 H 0.5384 0.2502 0.7024
C3_4 C 0.5478(2) 0.0976(3) 0.66678(15)
C4_4 C 0.5154(2) 0.0354(2) 0.61086(15)
C5_4 C 0.45922(19) 0.0810(2) 0.55789(15)
H5_4 H 0.4381 0.0370 0.5205
C6_4 C 0.7504(2) 0.2355(3) 0.82827(16)
H6_4 H 0.7717 0.3072 0.8281
C7_4 C 0.6928(2) 0.1998(3) 0.77276(15)
H7_4 H 0.6759 0.2456 0.7357
C8_4 C 0.6594(2) 0.0946(3) 0.77188(15)
C9_4 C 0.6898(2) 0.0314(3) 0.82725(16)
C10_4 C 0.7482(2) 0.0744(3) 0.88032(15)
H9_4 H 0.7681 0.0295 0.9174
C11_3 C 0.29207(18) 0.5352(2) 0.56095(14)
C12_3 C 0.37443(18) 0.5628(2) 0.55284(14)
H10_3 H 0.4091 0.5104 0.5375
C13_3 C 0.40621(18) 0.6671(2) 0.56711(14)
C14_3 C 0.3542(2) 0.7443(2) 0.5874(2)
H11_3 H 0.3758 0.8154 0.5971
C15_3 C 0.2708(2) 0.7184(3) 0.5935(2)
H12_3 H 0.2349 0.7720 0.6064
C16_3 C 0.2398(2) 0.6134(3) 0.58054(18)
H13_3 H 0.1830 0.5952 0.5851
C17_4 C 0.25975(17) 0.4210(2) 0.54742(12)
C18_3 C 0.49596(18) 0.6949(2) 0.55912(14)
O5_4 O 0.31252(12) 0.10293(16) 0.44003(10)
O6_4 O 0.46707(14) 0.22056(17) 0.41520(11)
O7_4 O 0.46679(15) 0.36582(19) 0.47384(13)
N4_4 N 0.27843(16) 0.3240(2) 0.38256(12)
N2_5 N 0.10230(18) 0.4519(2) 0.21960(13)
H1_3 H 0.097(3) 0.5211(17) 0.2247(19)
C2_5 C 0.0191(2) 0.2955(3) 0.16558(17)
H3_5 H 0.0384 0.2498 0.2024
C3_5 C 0.0478(2) 0.4024(3) 0.16678(15)
C4_5 C 0.0154(2) 0.4646(2) 0.11086(15)
H4_3 H 0.0321 0.5380 0.1095
C6_5 C 0.2504(2) 0.2645(3) 0.32827(16)
H6_5 H 0.2717 0.1928 0.3281
C7_5 C 0.1928(2) 0.3002(3) 0.27276(15)
H7_5 H 0.1759 0.2544 0.2357
C8_5 C 0.1594(2) 0.4054(3) 0.27188(15)
C9_5 C 0.1898(2) 0.4686(3) 0.32725(16)
H8_3 H 0.1705 0.5410 0.3286
C10_5 C 0.2482(2) 0.4256(3) 0.38032(15)
H9_5 H 0.2681 0.4705 0.4174
O1_5 O 0.80607(13) 0.14394(16) 0.02535(10)
N1_5 N 0.93267(16) 0.3158(2) 0.05609(12)
C1_5 C 0.9625(3) 0.2574(3) 0.11033(18)
H2_5 H 0.9433 0.1848 0.1107
C5_5 C 0.95922(19) 0.4190(2) 0.05789(15)
H5_5 H 0.9381 0.4630 0.0205
C17_5 C 0.75975(17) 0.0790(2) 0.04742(12)
O1_6 O 0.19393(13) 0.14394(16) 0.47465(10)
N1_6 N 0.06733(16) 0.3158(2) 0.44391(12)
C1_6 C 0.0375(3) 0.2574(3) 0.38967(18)
H2_6 H 0.0567 0.1848 0.3893
C5_6 C 0.04078(19) 0.4190(2) 0.44211(15)
H5_6 H 0.0619 0.4630 0.4795
C17_6 C 0.24025(17) 0.0790(2) 0.45258(12)
N2_6 N 0.89770(18) 0.4519(2) 0.28040(13)
H1_4 H 0.903(3) 0.5211(17) 0.2753(19)
C2_6 C 0.9809(2) 0.2955(3) 0.33442(17)
H3_6 H 0.9616 0.2498 0.2976
C3_6 C 0.9522(2) 0.4024(3) 0.33322(15)
C4_6 C 0.9846(2) 0.4646(2) 0.38914(15)
H4_4 H 0.9679 0.5380 0.3905
C6_6 C 0.7496(2) 0.2645(3) 0.17173(16)
H6_6 H 0.7283 0.1928 0.1719
C7_6 C 0.8072(2) 0.3002(3) 0.22724(15)
H7_6 H 0.8241 0.2544 0.2643
C8_6 C 0.8406(2) 0.4054(3) 0.22812(15)
C9_6 C 0.8102(2) 0.4686(3) 0.17275(16)
H8_4 H 0.8295 0.5410 0.1714
C10_6 C 0.7518(2) 0.4256(3) 0.11968(15)
H9_6 H 0.7319 0.4705 0.0826
O1_7 O 0.30607(13) 0.64394(16) 0.02535(10)
N1_7 N 0.43267(16) 0.8158(2) 0.05609(12)
N2_7 N 0.60230(18) 0.9519(2) 0.21960(13)
C1_7 C 0.4625(3) 0.7574(3) 0.11033(18)
H2_7 H 0.4433 0.6848 0.1107
C2_7 C 0.5191(2) 0.7955(3) 0.16558(17)
H3_7 H 0.5384 0.7498 0.2024
C3_7 C 0.5478(2) 0.9024(3) 0.16678(15)
C4_7 C 0.5154(2) 0.9646(2) 0.11086(15)
C5_7 C 0.45922(19) 0.9190(2) 0.05789(15)
H5_7 H 0.4381 0.9630 0.0205
C6_7 C 0.7504(2) 0.7645(3) 0.32827(16)
H6_7 H 0.7717 0.6928 0.3281
C7_7 C 0.6928(2) 0.8002(3) 0.27276(15)
H7_7 H 0.6759 0.7544 0.2357
C8_7 C 0.6594(2) 0.9054(3) 0.27188(15)
C9_7 C 0.6898(2) 0.9686(3) 0.32725(16)
C10_7 C 0.7482(2) 0.9256(3) 0.38032(15)
H9_7 H 0.7681 0.9705 0.4174
C11_4 C 0.29207(18) 0.4648(2) 0.06095(14)
C12_4 C 0.37443(18) 0.4372(2) 0.05284(14)
H10_4 H 0.4091 0.4896 0.0375
C13_4 C 0.40621(18) 0.3329(2) 0.06711(14)
C14_4 C 0.3542(2) 0.2557(2) 0.0874(2)
H11_4 H 0.3758 0.1846 0.0971
C15_4 C 0.2708(2) 0.2816(3) 0.0935(2)
H12_4 H 0.2349 0.2280 0.1064
C16_4 C 0.2398(2) 0.3866(3) 0.08054(18)
H13_4 H 0.1830 0.4048 0.0851
C17_7 C 0.25975(17) 0.5790(2) 0.04742(12)
C18_4 C 0.49596(18) 0.3051(2) 0.05912(14)
O1_8 O 0.69393(13) 0.64394(16) 0.47465(10)
N1_8 N 0.56733(16) 0.8158(2) 0.44391(12)
N2_8 N 0.39770(18) 0.9519(2) 0.28040(13)
C1_8 C 0.5375(3) 0.7574(3) 0.38967(18)
H2_8 H 0.5567 0.6848 0.3893
C2_8 C 0.4809(2) 0.7955(3) 0.33442(17)
H3_8 H 0.4616 0.7498 0.2976
C3_8 C 0.4522(2) 0.9024(3) 0.33322(15)
C4_8 C 0.4846(2) 0.9646(2) 0.38914(15)
C5_8 C 0.54078(19) 0.9190(2) 0.44211(15)
H5_8 H 0.5619 0.9630 0.4795
C6_8 C 0.2496(2) 0.7645(3) 0.17173(16)
H6_8 H 0.2283 0.6928 0.1719
C7_8 C 0.3072(2) 0.8002(3) 0.22724(15)
H7_8 H 0.3241 0.7544 0.2643
C8_8 C 0.3406(2) 0.9054(3) 0.22812(15)
C9_8 C 0.3102(2) 0.9686(3) 0.17275(16)
C10_8 C 0.2518(2) 0.9256(3) 0.11968(15)
H9_8 H 0.2319 0.9705 0.0826
C11_5 C 0.70793(18) 0.4648(2) 0.43905(14)
C12_5 C 0.62557(18) 0.4372(2) 0.44716(14)
H10_5 H 0.5909 0.4896 0.4625
C13_5 C 0.59379(18) 0.3329(2) 0.43289(14)
C14_5 C 0.6458(2) 0.2557(2) 0.4126(2)
H11_5 H 0.6242 0.1846 0.4029
C15_5 C 0.7292(2) 0.2816(3) 0.4065(2)
H12_5 H 0.7651 0.2280 0.3936
C16_5 C 0.7602(2) 0.3866(3) 0.41946(18)
H13_5 H 0.8170 0.4048 0.4149
C17_8 C 0.74025(17) 0.5790(2) 0.45258(12)
C18_5 C 0.50404(18) 0.3051(2) 0.44088(14)
C11_6 C 0.79207(18) 0.0352(2) 0.56095(14)
C12_6 C 0.87443(18) 0.0628(2) 0.55284(14)
H10_6 H 0.9091 0.0104 0.5375
C13_6 C 0.90621(18) 0.1671(2) 0.56711(14)
C14_6 C 0.8542(2) 0.2443(2) 0.5874(2)
H11_6 H 0.8758 0.3154 0.5971
C15_6 C 0.7708(2) 0.2184(3) 0.5935(2)
H12_6 H 0.7349 0.2720 0.6064
C16_6 C 0.7398(2) 0.1134(3) 0.58054(18)
H13_6 H 0.6830 0.0952 0.5851
C18_6 C 0.99596(18) 0.1949(2) 0.55912(14)
H1_5 H 0.403(3) 0.9789(17) 0.7753(19)
H4_5 H 0.4679 0.9620 0.8905
H8_5 H 0.3295 0.9590 0.6714
H1_6 H 0.597(3) 0.9789(17) 0.7247(19)
H4_6 H 0.5321 0.9620 0.6095
H8_6 H 0.6705 0.9590 0.8286
C11_7 C 0.79207(18) 0.9648(2) 0.06095(14)
C12_7 C 0.87443(18) 0.9372(2) 0.05284(14)
H10_7 H 0.9091 0.9896 0.0375
C13_7 C 0.90621(18) 0.8329(2) 0.06711(14)
C14_7 C 0.8542(2) 0.7557(2) 0.0874(2)
H11_7 H 0.8758 0.6846 0.0971
C15_7 C 0.7708(2) 0.7816(3) 0.0935(2)
H12_7 H 0.7349 0.7280 0.1064
C16_7 C 0.7398(2) 0.8866(3) 0.08054(18)
H13_7 H 0.6830 0.9048 0.0851
C18_7 C 0.99596(18) 0.8051(2) 0.05912(14)
C11_8 C 0.20793(18) 0.9648(2) 0.43905(14)
C12_8 C 0.12557(18) 0.9372(2) 0.44716(14)
H10_8 H 0.0909 0.9896 0.4625
C13_8 C 0.09379(18) 0.8329(2) 0.43289(14)
C14_8 C 0.1458(2) 0.7557(2) 0.4126(2)
H11_8 H 0.1242 0.6846 0.4029
C15_8 C 0.2292(2) 0.7816(3) 0.4065(2)
H12_8 H 0.2651 0.7280 0.3936
C16_8 C 0.2602(2) 0.8866(3) 0.41946(18)
H13_8 H 0.3170 0.9048 0.4149
C18_8 C 0.00404(18) 0.8051(2) 0.44088(14)
H1_7 H 0.597(3) 0.0211(17) 0.2247(19)
H4_7 H 0.5321 0.0380 0.1095
H8_7 H 0.6705 0.0410 0.3286
H1_8 H 0.403(3) 0.0211(17) 0.2753(19)
H4_8 H 0.4679 0.0380 0.3905
H8_8 H 0.3295 0.0410 0.1714
loop_
_geom_bond_atom_site_label_1
_geom_bond_atom_site_label_2
_geom_bond_site_symmetry_1
_geom_bond_site_symmetry_2
C11 C12 1_555 1_555
C12 H10 1_555 1_555
C13 C12 1_555 1_555
C14 C13 1_555 1_555
H11 C14 1_555 1_555
C15 C14 1_555 1_555
H12 C15 1_555 1_555
C16 C11 1_555 1_555
H13 C16 1_555 1_555
C18 C13 1_555 1_555
C15 C16 1_555 1_555
O5 Co1 1_555 1_555
O6 Co1 1_555 1_555
O7 Co1 1_555 1_555
N4 Co1 1_555 1_555
O1 C17 1_555 1_555
O2 C17 1_555 1_555
C1 N1 1_555 1_555
H2 C1 1_555 1_555
C5 N1 1_555 1_555
H5 C5 1_555 1_555
Co2 O2 1_555 1_555
Co3 O3 1_555 1_555
O4 Co3 1_555 1_555
N2 H1 1_555 1_555
N3 C6 1_555 1_555
H3 C2 1_555 1_555
C3 N2 1_555 1_555
C4 C3 1_555 1_555
H4 C4 1_555 1_555
C6 H6 1_555 1_555
C7 C6 1_555 1_555
H7 C7 1_555 1_555
C8 N2 1_555 1_555
C9 C8 1_555 1_555
H8 C9 1_555 1_555
C10 N3 1_555 1_555
H9 C10 1_555 1_555
Co4 N3 1_555 1_555
C2 C3 1_555 1_555
C7 C8 1_555 1_555
C9 C10 1_555 1_555
Co3_2 O3_2 1_555 1_555
O4_2 Co3_2 1_555 1_555
N2_2 H1_2 1_555 1_555
N3_2 C6_2 1_555 1_555
H3_2 C2_2 1_555 1_555
C3_2 N2_2 1_555 1_555
C4_2 C3_2 1_555 1_555
H4_2 C4_2 1_555 1_555
C6_2 H6_2 1_555 1_555
C7_2 C6_2 1_555 1_555
H7_2 C7_2 1_555 1_555
C8_2 N2_2 1_555 1_555
C9_2 C8_2 1_555 1_555
H8_2 C9_2 1_555 1_555
C10_2 N3_2 1_555 1_555
H9_2 C10_2 1_555 1_555
Co2 N3_2 1_555 1_555
C2_2 C3_2 1_555 1_555
C7_2 C8_2 1_555 1_555
C9_2 C10_2 1_555 1_555
Co1_2 O1_2 1_555 1_555
O1_2 C17_2 1_555 1_555
O2_2 C17_2 1_555 1_555
N1_2 Co1_2 1_555 1_555
C1_2 N1_2 1_555 1_555
H2_2 C1_2 1_555 1_555
C5_2 N1_2 1_555 1_555
H5_2 C5_2 1_555 1_555
Co4 O2_2 1_555 1_555
O5_2 Co1_2 1_555 1_555
O6_2 Co1_2 1_555 1_555
O7_2 Co1_2 1_555 1_555
N4_2 Co1_2 1_555 1_555
O5_3 Co1_3 1_555 1_555
O6_3 Co1_3 1_555 1_555
O7_3 Co1_3 1_555 1_555
N4_3 Co1_3 1_555 1_555
O1_3 C17_3 1_555 1_555
O2_3 C17_3 1_555 1_555
O3_3 C18_2 1_555 1_555
O4_3 C18_2 1_555 1_555
N3_3 C6_3 1_555 1_555
C1_3 N1_3 1_555 1_555
H2_3 C1_3 1_555 1_555
C2_3 C1_3 1_555 1_555
H3_3 C2_3 1_555 1_555
C3_3 N2_3 1_555 1_555
C4_3 C3_3 1_555 1_555
C5_3 N1_3 1_555 1_555
H5_3 C5_3 1_555 1_555
C6_3 H6_3 1_555 1_555
C7_3 C6_3 1_555 1_555
H7_3 C7_3 1_555 1_555
C8_3 N2_3 1_555 1_555
C9_3 C8_3 1_555 1_555
C10_3 N3_3 1_555 1_555
H9_3 C10_3 1_555 1_555
C11_2 C12_2 1_555 1_555
C12_2 H10_2 1_555 1_555
C13_2 C12_2 1_555 1_555
C14_2 C13_2 1_555 1_555
H11_2 C14_2 1_555 1_555
C15_2 C14_2 1_555 1_555
H12_2 C15_2 1_555 1_555
C16_2 C11_2 1_555 1_555
H13_2 C16_2 1_555 1_555
C17_3 C11_2 1_555 1_555
C18_2 C13_2 1_555 1_555
Co3 O2_3 1_555 1_555
Co2 O3_3 1_555 1_555
Co3_2 N3_3 1_555 1_555
O4_3 Co2 1_555 1_555
C2_3 C3_3 1_555 1_555
C4_3 C5_3 1_555 1_555
C7_3 C8_3 1_555 1_555
C9_3 C10_3 1_555 1_555
C15_2 C16_2 1_555 1_555
Co1_4 O1_4 1_555 1_555
O1_4 C17_4 1_555 1_555
O2_4 C17_4 1_555 1_555
O3_4 C18_3 1_555 1_555
O4_4 C18_3 1_555 1_555
N1_4 Co1_4 1_555 1_555
N3_4 C6_4 1_555 1_555
C1_4 N1_4 1_555 1_555
H2_4 C1_4 1_555 1_555
C2_4 C1_4 1_555 1_555
H3_4 C2_4 1_555 1_555
C3_4 N2_4 1_555 1_555
C4_4 C3_4 1_555 1_555
C5_4 N1_4 1_555 1_555
H5_4 C5_4 1_555 1_555
C6_4 H6_4 1_555 1_555
C7_4 C6_4 1_555 1_555
H7_4 C7_4 1_555 1_555
C8_4 N2_4 1_555 1_555
C9_4 C8_4 1_555 1_555
C10_4 N3_4 1_555 1_555
H9_4 C10_4 1_555 1_555
C11_3 C12_3 1_555 1_555
C12_3 H10_3 1_555 1_555
C13_3 C12_3 1_555 1_555
C14_3 C13_3 1_555 1_555
H11_3 C14_3 1_555 1_555
C15_3 C14_3 1_555 1_555
H12_3 C15_3 1_555 1_555
C16_3 C11_3 1_555 1_555
H13_3 C16_3 1_555 1_555
C17_4 C11_3 1_555 1_555
C18_3 C13_3 1_555 1_555
Co3_2 O2_4 1_555 1_555
Co4 O3_4 1_555 1_555
Co3 N3_4 1_555 1_555
O5_4 Co1_4 1_555 1_555
O6_4 Co1_4 1_555 1_555
O7_4 Co1_4 1_555 1_555
N4_4 Co1_4 1_555 1_555
O4_4 Co4 1_555 1_555
C2_4 C3_4 1_555 1_555
C4_4 C5_4 1_555 1_555
C7_4 C8_4 1_555 1_555
C9_4 C10_4 1_555 1_555
C15_3 C16_3 1_555 1_555
N2_5 H1_3 1_555 1_555
N4_4 C6_5 1_555 1_555
H3_5 C2_5 1_555 1_555
C3_5 N2_5 1_555 1_555
C4_5 C3_5 1_555 1_555
H4_3 C4_5 1_555 1_555
C6_5 H6_5 1_555 1_555
C7_5 C6_5 1_555 1_555
H7_5 C7_5 1_555 1_555
C8_5 N2_5 1_555 1_555
C9_5 C8_5 1_555 1_555
H8_3 C9_5 1_555 1_555
C10_5 N4_4 1_555 1_555
H9_5 C10_5 1_555 1_555
C2_5 C3_5 1_555 1_555
C7_5 C8_5 1_555 1_555
C9_5 C10_5 1_555 1_555
O1_5 C17_5 1_555 1_555
O5_3 C17_5 1_555 1_555
C1_5 N1_5 1_555 1_555
H2_5 C1_5 1_555 1_555
C5_5 N1_5 1_555 1_555
H5_5 C5_5 1_555 1_555
Co3_2 O1_6 1_555 1_555
O1_6 C17_6 1_555 1_555
O5_4 C17_6 1_555 1_555
N1_6 Co3_2 1_555 1_555
C1_6 N1_6 1_555 1_555
H2_6 C1_6 1_555 1_555
C5_6 N1_6 1_555 1_555
H5_6 C5_6 1_555 1_555
N2_6 H1_4 1_555 1_555
N4_3 C6_6 1_555 1_555
H3_6 C2_6 1_555 1_555
C3_6 N2_6 1_555 1_555
C4_6 C3_6 1_555 1_555
H4_4 C4_6 1_555 1_555
C6_6 H6_6 1_555 1_555
C7_6 C6_6 1_555 1_555
H7_6 C7_6 1_555 1_555
C8_6 N2_6 1_555 1_555
C9_6 C8_6 1_555 1_555
H8_4 C9_6 1_555 1_555
C10_6 N4_3 1_555 1_555
H9_6 C10_6 1_555 1_555
C2_6 C3_6 1_555 1_555
C7_6 C8_6 1_555 1_555
C9_6 C10_6 1_555 1_555
O1_7 C17_7 1_555 1_555
O5 C17_7 1_555 1_555
O6_3 C18_4 1_555 1_555
O7_3 C18_4 1_555 1_555
N4_2 C6_7 1_555 1_555
C1_7 N1_7 1_555 1_555
H2_7 C1_7 1_555 1_555
C2_7 C1_7 1_555 1_555
H3_7 C2_7 1_555 1_555
C3_7 N2_7 1_555 1_555
C4_7 C3_7 1_555 1_555
C5_7 N1_7 1_555 1_555
H5_7 C5_7 1_555 1_555
C6_7 H6_7 1_555 1_555
C7_7 C6_7 1_555 1_555
H7_7 C7_7 1_555 1_555
C8_7 N2_7 1_555 1_555
C9_7 C8_7 1_555 1_555
C10_7 N4_2 1_555 1_555
H9_7 C10_7 1_555 1_555
C11_4 C12_4 1_555 1_555
C12_4 H10_4 1_555 1_555
C13_4 C12_4 1_555 1_555
C14_4 C13_4 1_555 1_555
H11_4 C14_4 1_555 1_555
C15_4 C14_4 1_555 1_555
H12_4 C15_4 1_555 1_555
C16_4 C11_4 1_555 1_555
H13_4 C16_4 1_555 1_555
C17_7 C11_4 1_555 1_555
C18_4 C13_4 1_555 1_555
C2_7 C3_7 1_555 1_555
C4_7 C5_7 1_555 1_555
C7_7 C8_7 1_555 1_555
C9_7 C10_7 1_555 1_555
C15_4 C16_4 1_555 1_555
Co4 O1_8 1_555 1_555
O1_8 C17_8 1_555 1_555
O5_2 C17_8 1_555 1_555
O6_4 C18_5 1_555 1_555
O7_4 C18_5 1_555 1_555
N1_8 Co4 1_555 1_555
N4 C6_8 1_555 1_555
C1_8 N1_8 1_555 1_555
H2_8 C1_8 1_555 1_555
C2_8 C1_8 1_555 1_555
H3_8 C2_8 1_555 1_555
C3_8 N2_8 1_555 1_555
C4_8 C3_8 1_555 1_555
C5_8 N1_8 1_555 1_555
H5_8 C5_8 1_555 1_555
C6_8 H6_8 1_555 1_555
C7_8 C6_8 1_555 1_555
H7_8 C7_8 1_555 1_555
C8_8 N2_8 1_555 1_555
C9_8 C8_8 1_555 1_555
C10_8 N4 1_555 1_555
H9_8 C10_8 1_555 1_555
C11_5 C12_5 1_555 1_555
C12_5 H10_5 1_555 1_555
C13_5 C12_5 1_555 1_555
C14_5 C13_5 1_555 1_555
H11_5 C14_5 1_555 1_555
C15_5 C14_5 1_555 1_555
H12_5 C15_5 1_555 1_555
C16_5 C11_5 1_555 1_555
H13_5 C16_5 1_555 1_555
C17_8 C11_5 1_555 1_555
C18_5 C13_5 1_555 1_555
C2_8 C3_8 1_555 1_555
C4_8 C5_8 1_555 1_555
C7_8 C8_8 1_555 1_555
C9_8 C10_8 1_555 1_555
C15_5 C16_5 1_555 1_555
C11_6 C12_6 1_555 1_555
C12_6 H10_6 1_555 1_555
C13_6 C12_6 1_555 1_555
C14_6 C13_6 1_555 1_555
H11_6 C14_6 1_555 1_555
C15_6 C14_6 1_555 1_555
H12_6 C15_6 1_555 1_555
C16_6 C11_6 1_555 1_555
H13_6 C16_6 1_555 1_555
C18_6 C13_6 1_555 1_555
C15_6 C16_6 1_555 1_555
C11_7 C12_7 1_555 1_555
C12_7 H10_7 1_555 1_555
C13_7 C12_7 1_555 1_555
C14_7 C13_7 1_555 1_555
H11_7 C14_7 1_555 1_555
C15_7 C14_7 1_555 1_555
H12_7 C15_7 1_555 1_555
C16_7 C11_7 1_555 1_555
H13_7 C16_7 1_555 1_555
C18_7 C13_7 1_555 1_555
C15_7 C16_7 1_555 1_555
C11_8 C12_8 1_555 1_555
C12_8 H10_8 1_555 1_555
C13_8 C12_8 1_555 1_555
C14_8 C13_8 1_555 1_555
H11_8 C14_8 1_555 1_555
C15_8 C14_8 1_555 1_555
H12_8 C15_8 1_555 1_555
C16_8 C11_8 1_555 1_555
H13_8 C16_8 1_555 1_555
C18_8 C13_8 1_555 1_555
C15_8 C16_8 1_555 1_555

#END
