
###############################################################################
#
# This file contains modified crystal structure data generated from the
# MOF subset of the Cambridge Structural Database (CSD) v543 
# hosted by the Cambridge Crystallographic Data Centre (CCDC).
#
# This work is licensed under the Creative Commons
# Attribution-NonCommercial-ShareAlike 4.0 International License.
# To view a copy of this license, visit
# http://creativecommons.org/licenses/by-nc-sa/4.0/
# or send a letter to
# Creative Commons, PO Box 1866, Mountain View, CA 94042, USA.
#
# CIF created using the CSD Python API on 29 September 2022
# The structure has been converted into the P1 space group
# The structure has a 3D framework
# The original CSD entry TAGSON is in the monoclinic crystal system
# The framework has been calculated to contain at least 10.0% void space
# The void calculation uses a probe of radius 1.32A, grid spacing 0.4
# H atom positions have been added when not included in the experimental data
#
###############################################################################

data_TAGSON
_chemical_formula_moiety         '(C104 H72 N8 Ni4 O16)n'
_symmetry_cell_setting           triclinic
_symmetry_space_group_name_H-M   'P 1'
_symmetry_Int_Tables_number      1
_space_group_name_Hall           'P 1'
loop_
_symmetry_equiv_pos_site_id
_symmetry_equiv_pos_as_xyz
1 x,y,z
_cell_length_a                   13.6290(7)
_cell_length_b                   15.7096(8)
_cell_length_c                   19.2744(10)
_cell_angle_alpha                90
_cell_angle_beta                 103.096(2)
_cell_angle_gamma                90
_cell_volume                     4019.44
loop_
_atom_site_label
_atom_site_type_symbol
_atom_site_fract_x
_atom_site_fract_y
_atom_site_fract_z
O3 O 0.2381(2) 0.1130(2) 0.72591(16)
O4 O 0.0978(2) 0.0440(2) 0.68191(16)
H3 H 0.052350 0.370296 0.945104
C11 C 0.0948(4) 0.1475(3) 0.7721(2)
C12 C 0.1501(4) 0.1878(3) 0.8315(2)
H7 H 0.220112 0.186325 0.841020
C13 C 0.1021(4) 0.2306(3) 0.8774(2)
H8 H 0.140516 0.256637 0.917845
C14 C 0.1470(3) 0.0992(3) 0.7240(2)
Ni3 Ni 0.22471(4) 0.01809(4) 0.64447(3)
Ni1 Ni 0.72471(4) 0.48191(4) 0.14447(3)
O1 O 0.7180(2) 0.3848(2) 0.06668(16)
O2 O 0.8509(2) 0.4652(2) 0.10112(16)
N1 N 0.6588(3) 0.5690(2) 0.06957(19)
C1 C 0.8055(3) 0.4055(3) 0.0627(2)
C2 C 0.8548(3) 0.3611(3) 0.0114(2)
C7 C 0.9471(4) 0.3892(3) 0.0021(3)
H4 H 0.979362 0.434408 0.029042
C20 C 0.7106(4) 0.6098(4) 0.0289(3)
H13 H 0.779168 0.598618 0.036021
C23 C 0.5127(4) 0.6427(4) 0.0068(3)
H15 H 0.444043 0.652901 0.000962
C24 C 0.5610(4) 0.5865(3) 0.0576(3)
H16 H 0.523106 0.558967 0.085396
O5 O 0.7381(2) 0.3870(2) 0.22591(16)
O6 O 0.5978(2) 0.4560(2) 0.18191(16)
N3 N 0.7874(3) 0.5689(2) 0.22010(19)
O1_2 O 0.2180(2) 0.1152(2) 0.56668(16)
O2_2 O 0.3509(2) 0.0348(2) 0.60112(16)
C1_2 C 0.3055(3) 0.0945(3) 0.5627(2)
C2_2 C 0.3548(3) 0.1389(3) 0.5114(2)
C3 C 0.3080(4) 0.2068(3) 0.4717(3)
H1 H 0.245714 0.225750 0.477559
C4 C 0.3538(4) 0.2468(3) 0.4228(3)
H2 H 0.321900 0.292412 0.396241
C5 C 0.4466(4) 0.2193(3) 0.4135(2)
C6 C 0.4914(4) 0.1502(3) 0.4523(3)
H3_2 H 0.552350 0.129704 0.445104
C7_2 C 0.4471(4) 0.1108(3) 0.5021(3)
H4_2 H 0.479362 0.065592 0.529042
C8 C 0.4973(4) 0.2647(3) 0.3638(2)
C9 C 0.4422(4) 0.3045(3) 0.3026(3)
H5 H 0.372286 0.301273 0.291654
C10 C 0.4907(4) 0.3488(3) 0.2580(2)
H6 H 0.452912 0.376369 0.218058
C11_2 C 0.5948(4) 0.3525(3) 0.2721(2)
C12_2 C 0.6501(4) 0.3122(3) 0.3315(2)
H7_2 H 0.720112 0.313675 0.341020
C13_2 C 0.6021(4) 0.2694(3) 0.3774(2)
H8_2 H 0.640516 0.243363 0.417845
C14_2 C 0.6470(3) 0.4008(3) 0.2240(2)
C15 C 0.8854(4) 0.5866(3) 0.2317(2)
H9 H 0.922422 0.561718 0.202035
C16 C 0.9349(4) 0.6392(3) 0.2850(2)
C17 C 0.8806(3) 0.6791(3) 0.3296(2)
C18 C 0.7788(4) 0.6620(3) 0.3165(3)
H11 H 0.739486 0.687621 0.344268
C19 C 0.7350(4) 0.6070(3) 0.2625(3)
H12 H 0.666409 0.595798 0.255257
H15_2 H 0.944043 0.847099 0.500962
C26 C 0.9257(4) 0.7372(3) 0.3875(2)
H18 H 0.875778 0.767089 0.41714
N2 N 0.2874(3) 0.9311(2) 0.72010(19)
C3_2 C 0.8080(4) 0.2932(3) 0.9717(3)
H1_2 H 0.745714 0.274250 0.977559
C4_2 C 0.8538(4) 0.2532(3) 0.9228(3)
H2_2 H 0.821900 0.207588 0.896241
C5_2 C 0.9466(4) 0.2807(3) 0.9135(2)
C6_2 C 0.9914(4) 0.3498(3) 0.9523(3)
C8_2 C 0.9973(4) 0.2353(3) 0.8638(2)
C9_2 C 0.9422(4) 0.1955(3) 0.8026(3)
H5_2 H 0.872286 0.198727 0.791654
C10_2 C 0.9907(4) 0.1512(3) 0.7580(2)
H6_2 H 0.952912 0.123631 0.718058
C15_2 C 0.3854(4) 0.9134(3) 0.7317(2)
H9_2 H 0.422422 0.938282 0.702035
C16_2 C 0.4349(4) 0.8608(3) 0.7850(2)
H10 H 0.503759 0.851673 0.791531
C17_2 C 0.3806(3) 0.8209(3) 0.8296(2)
C18_2 C 0.2788(4) 0.8380(3) 0.8165(3)
H11_2 H 0.239486 0.812379 0.844268
C19_2 C 0.2350(4) 0.8930(3) 0.7625(3)
H12_2 H 0.166409 0.904202 0.755257
C21 C 0.6688(4) 0.6673(4) 0.9771(3)
H14 H 0.709111 0.694629 0.950968
C22 C 0.5676(4) 0.6847(3) 0.9637(2)
C25 C 0.5229(4) 0.7440(3) 0.9064(2)
C26_2 C 0.4257(4) 0.7628(3) 0.8875(2)
H17 H 0.573089 0.774683 0.8774
H18_2 H 0.375778 0.732911 0.91714
N1_2 N 0.1588(3) 0.9310(2) 0.56957(19)
H10_2 H 0.003759 0.648327 0.291531
C20_2 C 0.2106(4) 0.8902(4) 0.5289(3)
H13_2 H 0.279168 0.901382 0.536021
C21_2 C 0.1688(4) 0.8327(4) 0.4771(3)
H14_2 H 0.209111 0.805371 0.450968
C22_2 C 0.0676(4) 0.8153(3) 0.4637(2)
C23_2 C 0.0127(4) 0.8573(4) 0.5068(3)
C24_2 C 0.0610(4) 0.9135(3) 0.5576(3)
H16_2 H 0.023106 0.941033 0.585396
C25_2 C 0.0229(4) 0.7560(3) 0.4064(2)
H17_2 H 0.0730892 0.725317 0.3774
N2_2 N 0.2126(3) 0.4311(2) 0.77990(19)
C15_3 C 0.1146(4) 0.4134(3) 0.7683(2)
H9_3 H 0.077578 0.438282 0.797965
C16_3 C 0.0651(4) 0.3608(3) 0.7150(2)
C17_3 C 0.1194(3) 0.3209(3) 0.6704(2)
C18_3 C 0.2212(4) 0.3380(3) 0.6835(3)
H11_3 H 0.260514 0.312379 0.655732
C19_3 C 0.2650(4) 0.3930(3) 0.7375(3)
H12_3 H 0.333591 0.404202 0.744743
H15_3 H 0.055957 0.152901 0.499038
C26_3 C 0.0743(4) 0.2628(3) 0.6125(2)
Ni2 Ni 0.27529(4) 0.51809(4) 0.85553(3)
H18_3 H 0.124222 0.232911 0.58286
Ni1_2 Ni 0.77529(4) 0.98191(4) 0.35553(3)
O1_3 O 0.7820(2) 0.8848(2) 0.43332(16)
O2_3 O 0.6491(2) 0.9652(2) 0.39888(16)
O3_2 O 0.2619(2) 0.6130(2) 0.77409(16)
O4_2 O 0.4022(2) 0.5440(2) 0.81809(16)
C1_3 C 0.6945(3) 0.9055(3) 0.4373(2)
C2_3 C 0.6452(3) 0.8611(3) 0.4886(2)
C3_3 C 0.6920(4) 0.7932(3) 0.5283(3)
H1_3 H 0.754286 0.774250 0.522441
C4_3 C 0.6462(4) 0.7532(3) 0.5772(3)
H2_3 H 0.678100 0.707588 0.603759
C5_3 C 0.5534(4) 0.7807(3) 0.5865(2)
C6_3 C 0.5086(4) 0.8498(3) 0.5477(3)
H3_3 H 0.447650 0.870296 0.554896
C7_3 C 0.5529(4) 0.8892(3) 0.4979(3)
H4_3 H 0.520638 0.934408 0.470958
C8_3 C 0.5027(4) 0.7353(3) 0.6362(2)
C9_3 C 0.5578(4) 0.6955(3) 0.6974(3)
H5_3 H 0.627714 0.698727 0.708346
C10_3 C 0.5093(4) 0.6512(3) 0.7420(2)
H6_3 H 0.547088 0.623631 0.781942
C11_3 C 0.4052(4) 0.6475(3) 0.7279(2)
C12_3 C 0.3499(4) 0.6878(3) 0.6685(2)
H7_3 H 0.279888 0.686325 0.658980
C13_3 C 0.3979(4) 0.7306(3) 0.6226(2)
H8_3 H 0.359484 0.756637 0.582155
C14_3 C 0.3530(3) 0.5992(3) 0.7760(2)
O5_2 O 0.7619(2) 0.8870(2) 0.27409(16)
O6_2 O 0.9022(2) 0.9560(2) 0.31809(16)
O1_4 O 0.2820(2) 0.6152(2) 0.93332(16)
O2_4 O 0.1491(2) 0.5348(2) 0.89888(16)
N1_3 N 0.3412(3) 0.4310(2) 0.93043(19)
C1_4 C 0.1945(3) 0.5945(3) 0.9373(2)
C2_4 C 0.1452(3) 0.6389(3) 0.9886(2)
C7_4 C 0.0529(4) 0.6108(3) 0.9979(3)
H4_4 H 0.020638 0.565592 0.970958
C20_3 C 0.2894(4) 0.3902(4) 0.9711(3)
H13_3 H 0.220832 0.401382 0.963979
C23_3 C 0.4873(4) 0.3573(4) 0.9932(3)
H15_4 H 0.555957 0.347099 0.999038
C24_3 C 0.4390(4) 0.4135(3) 0.9424(3)
H16_3 H 0.476894 0.441033 0.914604
H3_4 H 0.947650 0.629704 0.054896
C11_4 C 0.9052(4) 0.8525(3) 0.2279(2)
C12_4 C 0.8499(4) 0.8122(3) 0.1685(2)
H7_4 H 0.779888 0.813675 0.158980
C13_4 C 0.8979(4) 0.7694(3) 0.1226(2)
H8_4 H 0.859484 0.743363 0.082155
C14_4 C 0.8530(3) 0.9008(3) 0.2760(2)
N1_4 N 0.8412(3) 0.0690(2) 0.43043(19)
H10_3 H 0.996241 0.351673 0.708469
C20_4 C 0.7894(4) 0.1098(4) 0.4711(3)
H13_4 H 0.720832 0.098618 0.463979
C21_3 C 0.8312(4) 0.1673(4) 0.5229(3)
H14_3 H 0.790889 0.194629 0.549032
C22_3 C 0.9324(4) 0.1847(3) 0.5363(2)
C23_4 C 0.9873(4) 0.1427(4) 0.4932(3)
C24_4 C 0.9390(4) 0.0865(3) 0.4424(3)
H16_4 H 0.976894 0.058967 0.414604
C25_3 C 0.9771(4) 0.2440(3) 0.5936(2)
N3_2 N 0.7126(3) 0.0689(2) 0.27990(19)
H17_3 H 0.926911 0.274683 0.6226
C3_4 C 0.1920(4) 0.7068(3) 0.0283(3)
H1_4 H 0.254286 0.725750 0.022441
C4_4 C 0.1462(4) 0.7468(3) 0.0772(3)
H2_4 H 0.178100 0.792412 0.103759
C5_4 C 0.0534(4) 0.7193(3) 0.0865(2)
C6_4 C 0.0086(4) 0.6502(3) 0.0477(3)
C8_4 C 0.0027(4) 0.7647(3) 0.1362(2)
C9_4 C 0.0578(4) 0.8045(3) 0.1974(3)
H5_4 H 0.127714 0.801273 0.208346
C10_4 C 0.0093(4) 0.8488(3) 0.2420(2)
H6_4 H 0.047088 0.876369 0.281942
C15_4 C 0.6146(4) 0.0866(3) 0.2683(2)
H9_4 H 0.577578 0.061718 0.297965
C16_4 C 0.5651(4) 0.1392(3) 0.2150(2)
H10_4 H 0.496241 0.148327 0.208469
C17_4 C 0.6194(3) 0.1791(3) 0.1704(2)
C18_4 C 0.7212(4) 0.1620(3) 0.1835(3)
H11_4 H 0.760514 0.187621 0.155732
C19_4 C 0.7650(4) 0.1070(3) 0.2375(3)
H12_4 H 0.833591 0.095798 0.244743
C21_4 C 0.3312(4) 0.3327(4) 0.0229(3)
H14_4 H 0.290889 0.305371 0.049032
C22_4 C 0.4324(4) 0.3153(3) 0.0363(2)
C25_4 C 0.4771(4) 0.2560(3) 0.0936(2)
C26_4 C 0.5743(4) 0.2372(3) 0.1125(2)
H17_4 H 0.426911 0.225317 0.1226
H18_4 H 0.624222 0.267089 0.0828598
loop_
_geom_bond_atom_site_label_1
_geom_bond_atom_site_label_2
_geom_bond_site_symmetry_1
_geom_bond_site_symmetry_2
O3 C14 1_555 1_555
O4 C14 1_555 1_555
C12 C11 1_555 1_555
H7 C12 1_555 1_555
H8 C13 1_555 1_555
C14 C11 1_555 1_555
Ni3 O3 1_555 1_555
O4 Ni3 1_555 1_555
C12 C13 1_555 1_555
Ni1 O1 1_555 1_555
O1 C1 1_555 1_555
O2 Ni1 1_555 1_555
N1 Ni1 1_555 1_555
C1 O2 1_555 1_555
C2 C1 1_555 1_555
C7 C2 1_555 1_555
H4 C7 1_555 1_555
C20 N1 1_555 1_555
H13 C20 1_555 1_555
H15 C23 1_555 1_555
C24 N1 1_555 1_555
H16 C24 1_555 1_555
O5 Ni1 1_555 1_555
O6 Ni1 1_555 1_555
N3 Ni1 1_555 1_555
C23 C24 1_555 1_555
Ni3 O1_2 1_555 1_555
O1_2 C1_2 1_555 1_555
O2_2 Ni3 1_555 1_555
O5 C14_2 1_555 1_555
O6 C14_2 1_555 1_555
C1_2 O2_2 1_555 1_555
C2_2 C1_2 1_555 1_555
C3 C2_2 1_555 1_555
H1 C3 1_555 1_555
C4 C3 1_555 1_555
H2 C4 1_555 1_555
C5 C4 1_555 1_555
C6 C5 1_555 1_555
H3_2 C6 1_555 1_555
C7_2 C2_2 1_555 1_555
H4_2 C7_2 1_555 1_555
C8 C5 1_555 1_555
C9 C8 1_555 1_555
H5 C9 1_555 1_555
C10 C9 1_555 1_555
H6 C10 1_555 1_555
C11_2 C10 1_555 1_555
C12_2 C11_2 1_555 1_555
H7_2 C12_2 1_555 1_555
C13_2 C8 1_555 1_555
H8_2 C13_2 1_555 1_555
C14_2 C11_2 1_555 1_555
C6 C7_2 1_555 1_555
C12_2 C13_2 1_555 1_555
N3 C15 1_555 1_555
C15 H9 1_555 1_555
C16 C15 1_555 1_555
C17 C16 1_555 1_555
C18 C17 1_555 1_555
H11 C18 1_555 1_555
C19 N3 1_555 1_555
H12 C19 1_555 1_555
C26 C17 1_555 1_555
C18 C19 1_555 1_555
C26 H18 1_555 1_555
N2 C15_2 1_555 1_555
H1_2 C3_2 1_555 1_555
C4_2 C3_2 1_555 1_555
H2_2 C4_2 1_555 1_555
C5_2 C4_2 1_555 1_555
C6_2 C5_2 1_555 1_555
C8_2 C5_2 1_555 1_555
C9_2 C8_2 1_555 1_555
H5_2 C9_2 1_555 1_555
C10_2 C9_2 1_555 1_555
H6_2 C10_2 1_555 1_555
C15_2 H9_2 1_555 1_555
C16_2 C15_2 1_555 1_555
H10 C16_2 1_555 1_555
C17_2 C16_2 1_555 1_555
C18_2 C17_2 1_555 1_555
H11_2 C18_2 1_555 1_555
C19_2 N2 1_555 1_555
H12_2 C19_2 1_555 1_555
H14 C21 1_555 1_555
C22 C21 1_555 1_555
C25 C22 1_555 1_555
C26_2 C17_2 1_555 1_555
C18_2 C19_2 1_555 1_555
C25 C26_2 1_555 1_555
C25 H17 1_555 1_555
C26_2 H18_2 1_555 1_555
C20_2 N1_2 1_555 1_555
H13_2 C20_2 1_555 1_555
C21_2 C20_2 1_555 1_555
H14_2 C21_2 1_555 1_555
C22_2 C21_2 1_555 1_555
C23_2 C22_2 1_555 1_555
C24_2 N1_2 1_555 1_555
H16_2 C24_2 1_555 1_555
C25_2 C22_2 1_555 1_555
C23_2 C24_2 1_555 1_555
C25_2 H17_2 1_555 1_555
N2_2 C15_3 1_555 1_555
C15_3 H9_3 1_555 1_555
C16_3 C15_3 1_555 1_555
C17_3 C16_3 1_555 1_555
C18_3 C17_3 1_555 1_555
H11_3 C18_3 1_555 1_555
C19_3 N2_2 1_555 1_555
H12_3 C19_3 1_555 1_555
C26_3 C17_3 1_555 1_555
Ni2 N2_2 1_555 1_555
C18_3 C19_3 1_555 1_555
C26_3 H18_3 1_555 1_555
Ni1_2 O1_3 1_555 1_555
O1_3 C1_3 1_555 1_555
O2_3 Ni1_2 1_555 1_555
O3_2 C14_3 1_555 1_555
O4_2 C14_3 1_555 1_555
C1_3 O2_3 1_555 1_555
C2_3 C1_3 1_555 1_555
C3_3 C2_3 1_555 1_555
H1_3 C3_3 1_555 1_555
C4_3 C3_3 1_555 1_555
H2_3 C4_3 1_555 1_555
C5_3 C4_3 1_555 1_555
C6_3 C5_3 1_555 1_555
H3_3 C6_3 1_555 1_555
C7_3 C2_3 1_555 1_555
H4_3 C7_3 1_555 1_555
C8_3 C5_3 1_555 1_555
C9_3 C8_3 1_555 1_555
H5_3 C9_3 1_555 1_555
C10_3 C9_3 1_555 1_555
H6_3 C10_3 1_555 1_555
C11_3 C10_3 1_555 1_555
C12_3 C11_3 1_555 1_555
H7_3 C12_3 1_555 1_555
C13_3 C8_3 1_555 1_555
H8_3 C13_3 1_555 1_555
C14_3 C11_3 1_555 1_555
Ni2 O3_2 1_555 1_555
O5_2 Ni1_2 1_555 1_555
O6_2 Ni1_2 1_555 1_555
O4_2 Ni2 1_555 1_555
C6_3 C7_3 1_555 1_555
C12_3 C13_3 1_555 1_555
Ni2 O1_4 1_555 1_555
O1_4 C1_4 1_555 1_555
O2_4 Ni2 1_555 1_555
N1_3 Ni2 1_555 1_555
C1_4 O2_4 1_555 1_555
C2_4 C1_4 1_555 1_555
C7_4 C2_4 1_555 1_555
H4_4 C7_4 1_555 1_555
C20_3 N1_3 1_555 1_555
H13_3 C20_3 1_555 1_555
H15_4 C23_3 1_555 1_555
C24_3 N1_3 1_555 1_555
H16_3 C24_3 1_555 1_555
C23_3 C24_3 1_555 1_555
O5_2 C14_4 1_555 1_555
O6_2 C14_4 1_555 1_555
C12_4 C11_4 1_555 1_555
H7_4 C12_4 1_555 1_555
H8_4 C13_4 1_555 1_555
C14_4 C11_4 1_555 1_555
C12_4 C13_4 1_555 1_555
C20_4 N1_4 1_555 1_555
H13_4 C20_4 1_555 1_555
C21_3 C20_4 1_555 1_555
H14_3 C21_3 1_555 1_555
C22_3 C21_3 1_555 1_555
C23_4 C22_3 1_555 1_555
C24_4 N1_4 1_555 1_555
H16_4 C24_4 1_555 1_555
C25_3 C22_3 1_555 1_555
C23_4 C24_4 1_555 1_555
C25_3 H17_3 1_555 1_555
N3_2 C15_4 1_555 1_555
H1_4 C3_4 1_555 1_555
C4_4 C3_4 1_555 1_555
H2_4 C4_4 1_555 1_555
C5_4 C4_4 1_555 1_555
C6_4 C5_4 1_555 1_555
C8_4 C5_4 1_555 1_555
C9_4 C8_4 1_555 1_555
H5_4 C9_4 1_555 1_555
C10_4 C9_4 1_555 1_555
H6_4 C10_4 1_555 1_555
C15_4 H9_4 1_555 1_555
C16_4 C15_4 1_555 1_555
H10_4 C16_4 1_555 1_555
C17_4 C16_4 1_555 1_555
C18_4 C17_4 1_555 1_555
H11_4 C18_4 1_555 1_555
C19_4 N3_2 1_555 1_555
H12_4 C19_4 1_555 1_555
H14_4 C21_4 1_555 1_555
C22_4 C21_4 1_555 1_555
C25_4 C22_4 1_555 1_555
C26_4 C17_4 1_555 1_555
C18_4 C19_4 1_555 1_555
C25_4 C26_4 1_555 1_555
C25_4 H17_4 1_555 1_555
C26_4 H18_4 1_555 1_555

#END
