
###############################################################################
#
# This file contains modified crystal structure data generated from the
# MOF subset of the Cambridge Structural Database (CSD) v543 
# hosted by the Cambridge Crystallographic Data Centre (CCDC).
#
# This work is licensed under the Creative Commons
# Attribution-NonCommercial-ShareAlike 4.0 International License.
# To view a copy of this license, visit
# http://creativecommons.org/licenses/by-nc-sa/4.0/
# or send a letter to
# Creative Commons, PO Box 1866, Mountain View, CA 94042, USA.
#
# CIF created using the CSD Python API on 29 September 2022
# The structure has been converted into the P1 space group
# The structure has a 3D framework
# The original CSD entry TAKHEV is in the triclinic crystal system
# The framework has been calculated to contain at least 10.0% void space
# The void calculation uses a probe of radius 1.32A, grid spacing 0.4
#
###############################################################################

data_TAKHEV
_chemical_formula_moiety         '(C72 H56 Cu8 I8 N6 O14 Tb2)n'
_symmetry_cell_setting           triclinic
_symmetry_space_group_name_H-M   'P 1'
_symmetry_Int_Tables_number      1
_space_group_name_Hall           'P 1'
loop_
_symmetry_equiv_pos_site_id
_symmetry_equiv_pos_as_xyz
1 x,y,z
_cell_length_a                   9.6050(19)
_cell_length_b                   16.769(3)
_cell_length_c                   21.155(4)
_cell_angle_alpha                104.16(3)
_cell_angle_beta                 100.31(3)
_cell_angle_gamma                97.16(3)
_cell_volume                     3199.42
loop_
_atom_site_label
_atom_site_type_symbol
_atom_site_fract_x
_atom_site_fract_y
_atom_site_fract_z
I5 I 0.23840(6) 0.01080(3) 0.50004(3)
Tb6 Tb 0.72316(3) 0.48770(2) 0.00290(2)
I3 I 0.08918(6) 0.97768(4) 0.67472(3)
Cu1 Cu 0.01403(12) 0.94245(7) 0.54044(6)
O5 O 0.3592(5) 0.5835(3) 0.9234(3)
O6 O 0.5781(6) 0.5522(3) 0.9406(3)
N3 N 0.0992(8) 0.7531(5) 0.6427(4)
C25 C 0.2344(12) 0.7699(8) 0.6424(7)
H17 H 0.2631 0.8074 0.6193
C26 C 0.3393(11) 0.7342(8) 0.6752(7)
H18 H 0.4350 0.7476 0.6731
C27 C 0.3020(9) 0.6803(5) 0.7098(4)
C28 C 0.1591(10) 0.6630(6) 0.7097(5)
H19 H 0.1275 0.6255 0.7322
C29 C 0.0607(10) 0.7008(6) 0.6764(5)
C30 C 0.4122(9) 0.6437(5) 0.7473(4)
C31 C 0.3958(8) 0.6274(5) 0.8080(4)
H21 H 0.3145 0.6386 0.8243
C32 C 0.4995(7) 0.5949(4) 0.8439(4)
C33 C 0.6205(9) 0.5783(6) 0.8195(5)
H22 H 0.6911 0.5572 0.8434
C34 C 0.6362(10) 0.5935(7) 0.7584(5)
H23 H 0.7172 0.5821 0.7419
C35 C 0.5326(11) 0.6251(6) 0.7230(5)
H24 H 0.5434 0.6342 0.6823
C36 C 0.4772(8) 0.5751(4) 0.9070(4)
Tb3 Tb 0.27684(3) 0.51230(2) 0.99710(2)
O3 O 0.5516(5) 0.3779(3) 0.9282(3)
O4 O 0.3309(5) 0.4099(3) 0.9130(3)
N2 N 0.7106(8) 0.0266(5) 0.6697(4)
C13 C 0.7673(10) 0.1017(6) 0.7128(5)
H9 H 0.8669 0.1164 0.7259
C14 C 0.6849(9) 0.1583(5) 0.7384(5)
H10 H 0.7294 0.2092 0.7687
C15 C 0.5347(9) 0.1394(5) 0.7191(4)
C16 C 0.4790(10) 0.0610(6) 0.6738(5)
H11 H 0.3801 0.0456 0.6579
C17 C 0.5665(10) 0.0063(6) 0.6523(6)
C18 C 0.4390(8) 0.1966(4) 0.7433(4)
C19 C 0.4776(8) 0.2553(4) 0.8046(4)
H13 H 0.5692 0.2615 0.8307
C20 C 0.3821(8) 0.3059(4) 0.8285(4)
C21 C 0.2467(8) 0.2975(5) 0.7899(4)
H14 H 0.1825 0.3306 0.8055
C22 C 0.2058(10) 0.2385(5) 0.7264(4)
H15 H 0.1150 0.2334 0.7000
C23 C 0.2994(9) 0.1889(5) 0.7038(4)
H16 H 0.2713 0.1499 0.6622
C24 C 0.4249(8) 0.3689(4) 0.8950(4)
Cu5 Cu 0.98597(12) 0.05755(7) 0.45956(6)
I1 I 0.76160(6) 0.98920(3) 0.49996(3)
I2 I 0.99071(6) 0.77992(3) 0.47107(3)
I4 I 0.69498(6) 0.78942(4) 0.61293(3)
Cu2 Cu 0.75521(11) 0.82692(7) 0.50169(6)
Cu3 Cu 0.82035(13) 0.94494(8) 0.62243(7)
Cu4 Cu 0.96195(12) 0.81770(7) 0.59979(6)
O1 O 0.1696(5) 0.5404(4) 0.0888(3)
O8 O 0.2054(10) 0.6627(5) 0.0155(5)
N1 N 0.5774(7) 0.7608(4) 0.4326(3)
C1 C 0.4501(9) 0.7836(6) 0.4346(4)
H1 H 0.4460 0.8315 0.4670
C2 C 0.3256(9) 0.7402(6) 0.3919(4)
H2 H 0.2392 0.7580 0.3966
C3 C 0.3258(8) 0.6702(5) 0.3417(4)
C4 C 0.4593(8) 0.6476(5) 0.3385(4)
H3 H 0.4672 0.6013 0.3055
C5 C 0.5802(9) 0.6944(5) 0.3847(4)
H4 H 0.6683 0.6780 0.3817
C6 C 0.1918(8) 0.6210(5) 0.2940(4)
C7 C 0.1877(7) 0.5942(4) 0.2263(4)
H5 H 0.2696 0.6067 0.2104
C8 C 0.0611(7) 0.5484(4) 0.1814(3)
C11 C 0.0670(9) 0.6026(5) 0.3170(4)
H8 H 0.0676 0.6217 0.3622
C12 C 0.0567(7) 0.5224(4) 0.1079(3)
H12 H 0.5247 0.9534 0.6246
H20 H 0.9644 0.6889 0.6779
H25 H 0.033(6) 0.369(2) 0.009(3)
H27 H 0.230(8) 0.7043(19) 0.0595(13)
O10 O 0.4484(5) 0.6221(3) 0.0718(3)
O13 O 0.4219(6) 0.4478(3) 0.0594(3)
O7 O 0.1159(6) 0.3817(3) 0.9861(4)
H26 H 0.106(6) 0.3220(14) 0.956(3)
H28 H 0.205(8) 0.695(2) 0.9817(17)
O9 O 0.0607(5) 0.5170(3) 0.9307(3)
O2 O 0.9393(5) 0.4830(3) 0.0693(3)
C9 C 0.9385(8) 0.5290(5) 0.2058(4)
H6 H 0.8546 0.4978 0.1765
C10 C 0.9417(8) 0.5557(5) 0.2725(4)
H7 H 0.8600 0.5426 0.2884
C9_2 C 0.0615(8) 0.4710(5) 0.7942(4)
H6_2 H 0.1454 0.5022 0.8235
C10_2 C 0.0583(8) 0.4443(5) 0.7275(4)
H7_2 H 0.1400 0.4574 0.7116
O7_2 O 0.8841(6) 0.6183(3) 0.0139(4)
H26_2 H 0.894(6) 0.6780(14) 0.044(3)
H28_2 H 0.795(8) 0.305(2) 0.0183(17)
O11 O 0.6691(5) 0.5901(3) 0.0870(3)
O12 O 0.6408(5) 0.4165(3) 0.0766(3)
I2_2 I 0.00929(6) 0.22008(3) 0.52893(3)
I4_2 I 0.30502(6) 0.21058(4) 0.38707(3)
Cu2_2 Cu 0.24479(11) 0.17308(7) 0.49831(6)
Cu3_2 Cu 0.17965(13) 0.05506(8) 0.37757(7)
Cu4_2 Cu 0.03805(12) 0.18230(7) 0.40021(6)
O1_2 O 0.8304(5) 0.4596(4) 0.9112(3)
O8_2 O 0.7946(10) 0.3373(5) 0.9845(5)
N1_2 N 0.4226(7) 0.2392(4) 0.5674(3)
C1_2 C 0.5499(9) 0.2164(6) 0.5654(4)
H1_2 H 0.5540 0.1685 0.5330
C2_2 C 0.6744(9) 0.2598(6) 0.6081(4)
H2_2 H 0.7608 0.2420 0.6034
C3_2 C 0.6742(8) 0.3298(5) 0.6583(4)
C4_2 C 0.5407(8) 0.3524(5) 0.6615(4)
H3_2 H 0.5328 0.3987 0.6945
C5_2 C 0.4198(9) 0.3056(5) 0.6153(4)
H4_2 H 0.3317 0.3220 0.6183
C6_2 C 0.8082(8) 0.3790(5) 0.7060(4)
C7_2 C 0.8123(7) 0.4058(4) 0.7737(4)
H5_2 H 0.7304 0.3933 0.7896
C8_2 C 0.9389(7) 0.4516(4) 0.8186(3)
C11_2 C 0.9330(9) 0.3974(5) 0.6830(4)
H8_2 H 0.9324 0.3783 0.6378
C12_2 C 0.9433(7) 0.4776(4) 0.8921(3)
H12_2 H 0.4753 0.0466 0.3754
H20_2 H 0.0356 0.3111 0.3221
H25_2 H 0.967(6) 0.631(2) 0.991(3)
H27_2 H 0.770(8) 0.2957(19) 0.9405(13)
N2_2 N 0.2894(8) 0.9734(5) 0.3303(4)
C13_2 C 0.2327(10) 0.8983(6) 0.2872(5)
H9_2 H 0.1331 0.8836 0.2741
C14_2 C 0.3151(9) 0.8417(5) 0.2616(5)
H10_2 H 0.2706 0.7908 0.2313
C15_2 C 0.4653(9) 0.8606(5) 0.2809(4)
C16_2 C 0.5210(10) 0.9390(6) 0.3262(5)
H11_2 H 0.6199 0.9544 0.3421
C17_2 C 0.4335(10) 0.9937(6) 0.3477(6)
C18_2 C 0.5610(8) 0.8034(4) 0.2567(4)
C19_2 C 0.5224(8) 0.7447(4) 0.1954(4)
H13_2 H 0.4308 0.7385 0.1693
C20_2 C 0.6179(8) 0.6941(4) 0.1715(4)
C21_2 C 0.7533(8) 0.7025(5) 0.2101(4)
H14_2 H 0.8175 0.6694 0.1945
C22_2 C 0.7942(10) 0.7615(5) 0.2736(4)
H15_2 H 0.8850 0.7666 0.3000
C23_2 C 0.7006(9) 0.8111(5) 0.2962(4)
H16_2 H 0.7287 0.8501 0.3378
C24_2 C 0.5751(8) 0.6311(4) 0.1050(4)
I3_2 I 0.91082(6) 0.02232(4) 0.32528(3)
N3_2 N 0.9008(8) 0.2469(5) 0.3573(4)
C25_2 C 0.7656(12) 0.2301(8) 0.3576(7)
H17_2 H 0.7369 0.1926 0.3807
C26_2 C 0.6607(11) 0.2658(8) 0.3248(7)
H18_2 H 0.5650 0.2524 0.3269
C27_2 C 0.6980(9) 0.3197(5) 0.2902(4)
C28_2 C 0.8409(10) 0.3370(6) 0.2903(5)
H19_2 H 0.8725 0.3745 0.2678
C29_2 C 0.9393(10) 0.2992(6) 0.3236(5)
C30_2 C 0.5878(9) 0.3563(5) 0.2527(4)
C31_2 C 0.6042(8) 0.3726(5) 0.1920(4)
H21_2 H 0.6855 0.3614 0.1757
C32_2 C 0.5005(7) 0.4051(4) 0.1561(4)
C33_2 C 0.3795(9) 0.4217(6) 0.1805(5)
H22_2 H 0.3089 0.4428 0.1566
C34_2 C 0.3638(10) 0.4065(7) 0.2416(5)
H23_2 H 0.2828 0.4179 0.2581
C35_2 C 0.4674(11) 0.3749(6) 0.2770(5)
H24_2 H 0.4566 0.3658 0.3177
C36_2 C 0.5228(8) 0.4249(4) 0.0930(4)
loop_
_geom_bond_atom_site_label_1
_geom_bond_atom_site_label_2
_geom_bond_site_symmetry_1
_geom_bond_site_symmetry_2
I3 Cu1 1_555 1_555
O5 C36 1_555 1_555
O6 C36 1_555 1_555
C25 N3 1_555 1_555
H17 C25 1_555 1_555
C26 C25 1_555 1_555
H18 C26 1_555 1_555
C27 C26 1_555 1_555
C28 C27 1_555 1_555
H19 C28 1_555 1_555
C29 N3 1_555 1_555
C30 C27 1_555 1_555
C31 C30 1_555 1_555
H21 C31 1_555 1_555
C32 C31 1_555 1_555
C33 C32 1_555 1_555
H22 C33 1_555 1_555
C34 C33 1_555 1_555
H23 C34 1_555 1_555
C35 C30 1_555 1_555
H24 C35 1_555 1_555
C36 C32 1_555 1_555
Tb3 O5 1_555 1_555
C28 C29 1_555 1_555
C34 C35 1_555 1_555
O3 C24 1_555 1_555
O4 C24 1_555 1_555
C13 N2 1_555 1_555
H9 C13 1_555 1_555
C14 C13 1_555 1_555
H10 C14 1_555 1_555
C15 C14 1_555 1_555
C16 C15 1_555 1_555
H11 C16 1_555 1_555
C17 N2 1_555 1_555
C18 C15 1_555 1_555
C19 C18 1_555 1_555
H13 C19 1_555 1_555
C20 C19 1_555 1_555
C21 C20 1_555 1_555
H14 C21 1_555 1_555
C22 C21 1_555 1_555
H15 C22 1_555 1_555
C23 C18 1_555 1_555
H16 C23 1_555 1_555
C24 C20 1_555 1_555
Tb3 O4 1_555 1_555
C16 C17 1_555 1_555
C22 C23 1_555 1_555
I4 Cu2 1_555 1_555
Cu2 I1 1_555 1_555
Cu3 I1 1_555 1_555
Cu4 I2 1_555 1_555
O1 C12 1_555 1_555
N1 Cu2 1_555 1_555
C1 N1 1_555 1_555
H1 C1 1_555 1_555
C2 C1 1_555 1_555
H2 C2 1_555 1_555
C3 C2 1_555 1_555
C4 C3 1_555 1_555
H3 C4 1_555 1_555
C5 N1 1_555 1_555
H4 C5 1_555 1_555
C6 C3 1_555 1_555
C7 C6 1_555 1_555
H5 C7 1_555 1_555
C8 C7 1_555 1_555
C11 C6 1_555 1_555
H8 C11 1_555 1_555
C12 C8 1_555 1_555
H27 O8 1_555 1_555
I2 Cu2 1_555 1_555
I4 Cu3 1_555 1_555
I4 Cu4 1_555 1_555
C4 C5 1_555 1_555
O7 Tb3 1_555 1_555
H26 O7 1_555 1_555
O9 Tb3 1_555 1_555
H6 C9 1_555 1_555
C10 C9 1_555 1_555
H7 C10 1_555 1_555
Tb6 O2 1_555 1_555
H6_2 C9_2 1_555 1_555
C10_2 C9_2 1_555 1_555
H7_2 C10_2 1_555 1_555
O7_2 Tb6 1_555 1_555
H26_2 O7_2 1_555 1_555
O11 Tb6 1_555 1_555
O12 Tb6 1_555 1_555
I4_2 Cu2_2 1_555 1_555
Cu2_2 I5 1_555 1_555
Cu3_2 I5 1_555 1_555
Cu4_2 I2_2 1_555 1_555
O1_2 C12_2 1_555 1_555
N1_2 Cu2_2 1_555 1_555
C1_2 N1_2 1_555 1_555
H1_2 C1_2 1_555 1_555
C2_2 C1_2 1_555 1_555
H2_2 C2_2 1_555 1_555
C3_2 C2_2 1_555 1_555
C4_2 C3_2 1_555 1_555
H3_2 C4_2 1_555 1_555
C5_2 N1_2 1_555 1_555
H4_2 C5_2 1_555 1_555
C6_2 C3_2 1_555 1_555
C7_2 C6_2 1_555 1_555
H5_2 C7_2 1_555 1_555
C8_2 C7_2 1_555 1_555
C11_2 C6_2 1_555 1_555
H8_2 C11_2 1_555 1_555
C12_2 C8_2 1_555 1_555
H27_2 O8_2 1_555 1_555
I2_2 Cu2_2 1_555 1_555
I4_2 Cu3_2 1_555 1_555
I4_2 Cu4_2 1_555 1_555
C4_2 C5_2 1_555 1_555
O10 C24_2 1_555 1_555
O11 C24_2 1_555 1_555
C13_2 N2_2 1_555 1_555
H9_2 C13_2 1_555 1_555
C14_2 C13_2 1_555 1_555
H10_2 C14_2 1_555 1_555
C15_2 C14_2 1_555 1_555
C16_2 C15_2 1_555 1_555
H11_2 C16_2 1_555 1_555
C17_2 N2_2 1_555 1_555
C18_2 C15_2 1_555 1_555
C19_2 C18_2 1_555 1_555
H13_2 C19_2 1_555 1_555
C20_2 C19_2 1_555 1_555
C21_2 C20_2 1_555 1_555
H14_2 C21_2 1_555 1_555
C22_2 C21_2 1_555 1_555
H15_2 C22_2 1_555 1_555
C23_2 C18_2 1_555 1_555
H16_2 C23_2 1_555 1_555
C24_2 C20_2 1_555 1_555
C16_2 C17_2 1_555 1_555
C22_2 C23_2 1_555 1_555
I3_2 Cu5 1_555 1_555
O12 C36_2 1_555 1_555
O13 C36_2 1_555 1_555
C25_2 N3_2 1_555 1_555
H17_2 C25_2 1_555 1_555
C26_2 C25_2 1_555 1_555
H18_2 C26_2 1_555 1_555
C27_2 C26_2 1_555 1_555
C28_2 C27_2 1_555 1_555
H19_2 C28_2 1_555 1_555
C29_2 N3_2 1_555 1_555
C30_2 C27_2 1_555 1_555
C31_2 C30_2 1_555 1_555
H21_2 C31_2 1_555 1_555
C32_2 C31_2 1_555 1_555
C33_2 C32_2 1_555 1_555
H22_2 C33_2 1_555 1_555
C34_2 C33_2 1_555 1_555
H23_2 C34_2 1_555 1_555
C35_2 C30_2 1_555 1_555
H24_2 C35_2 1_555 1_555
C36_2 C32_2 1_555 1_555
C28_2 C29_2 1_555 1_555
C34_2 C35_2 1_555 1_555

#END
