
###############################################################################
#
# This file contains modified crystal structure data generated from the
# MOF subset of the Cambridge Structural Database (CSD) v543 
# hosted by the Cambridge Crystallographic Data Centre (CCDC).
#
# This work is licensed under the Creative Commons
# Attribution-NonCommercial-ShareAlike 4.0 International License.
# To view a copy of this license, visit
# http://creativecommons.org/licenses/by-nc-sa/4.0/
# or send a letter to
# Creative Commons, PO Box 1866, Mountain View, CA 94042, USA.
#
# CIF created using the CSD Python API on 29 September 2022
# The structure has been converted into the P1 space group
# The structure has a 3D framework
# The original CSD entry TAKTIL is in the tetragonal crystal system
# The original CSD entry TAKTIL is in a Sohncke space group
# The framework has been calculated to contain at least 10.0% void space
# The void calculation uses a probe of radius 1.32A, grid spacing 0.4
#
###############################################################################

data_TAKTIL
_chemical_formula_moiety         '(C84 H38 Ga9 O33)n'
_symmetry_cell_setting           triclinic
_symmetry_space_group_name_H-M   'P 1'
_symmetry_Int_Tables_number      1
_space_group_name_Hall           'P 1'
loop_
_symmetry_equiv_pos_site_id
_symmetry_equiv_pos_as_xyz
1 x,y,z
_cell_length_a                   15.0535(6)
_cell_length_b                   15.0535(6)
_cell_length_c                   11.8737(10)
_cell_angle_alpha                90
_cell_angle_beta                 90
_cell_angle_gamma                90
_cell_volume                     2690.67
loop_
_atom_site_label
_atom_site_type_symbol
_atom_site_fract_x
_atom_site_fract_y
_atom_site_fract_z
Ga1 Ga 0.19473(5) 0.19473(5) 0.0000
O2 O 0.2523(6) 0.2500 0.1250
H1 H 0.3079 0.2500 0.1250
O3 O 0.1251(4) 0.3807(4) 0.1425(4)
C1 C -0.0000 0.5000 0.0502(9)
H2 H -0.0000 0.5000 0.1302
C2 C 0.0923(6) 0.3619(5) 0.0484(7)
Ga7 Ga 0.19473(5) 0.30527(5) 0.2500
O13 O 0.2858(3) 0.0996(3) 0.0012(5)
O17 O 0.1251(4) 0.1193(4) 0.1075(4)
Ga1_2 Ga 0.19473(5) 0.19473(5) 1.0000
O1 O 0.0996(3) 0.2858(3) 0.9988(5)
C3 C 0.0411(6) 0.4303(6) 0.9897(8)
C4 C 0.0000 0.5000 0.8136(9)
C5 C 0.0380(6) 0.4301(6) 0.8709(8)
H3 H 0.0623 0.3814 0.8303
C6 C -0.0000 0.5000 0.4498(9)
H4 H -0.0000 0.5000 0.3698
C9 C -0.0000 0.5000 0.6864(9)
O8 O 0.2142(3) 0.4004(3) 0.5012(5)
O9 O 0.1193(4) 0.3749(4) 0.3575(4)
C14 C 0.1381(5) 0.4077(6) 0.4516(7)
C15 C 0.0697(6) 0.4589(6) 0.5103(8)
C16 C 0.0699(6) 0.4620(6) 0.6291(8)
H7 H 0.1186 0.4377 0.6697
Ga4 Ga 0.30527(5) 0.30527(5) 0.5000
O11 O 0.0996(3) 0.2142(3) 0.2512(5)
O12 O 0.2858(3) 0.4004(3) 0.2488(5)
O14 O 0.2500 0.2523(6) 0.8750
O15 O 0.2500 0.2477(6) 0.3750
O18 O 0.1193(4) 0.1251(4) 0.8925(4)
C1_2 C 1.0000 0.5000 0.0502(9)
H2_2 H 1.0000 0.5000 0.1302
O7 O 0.8749(4) 0.6193(4) 0.1425(4)
C11 C 0.9077(6) 0.6381(5) 0.0484(7)
Ga6 Ga 0.80527(5) 0.69473(5) 0.2500
Ga9 Ga 0.80527(5) 0.80527(5) 0.0000
C4_2 C 1.0000 0.5000 0.8136(9)
O4 O 0.7858(3) 0.5996(3) 0.5012(5)
O5 O 0.8807(4) 0.6251(4) 0.3575(4)
C6_2 C 1.0000 0.5000 0.4498(9)
H4_2 H 1.0000 0.5000 0.3698
C7 C 0.8619(5) 0.5923(6) 0.4516(7)
C8 C 0.9303(6) 0.5411(6) 0.5103(8)
C9_2 C 1.0000 0.5000 0.6864(9)
C10 C 0.9301(6) 0.5380(6) 0.6291(8)
H5 H 0.8814 0.5623 0.6697
O6 O 0.9004(3) 0.7142(3) 0.9988(5)
C12 C 0.9589(6) 0.5697(6) 0.9897(8)
C13 C 0.9620(6) 0.5699(6) 0.8709(8)
H6 H 0.9377 0.6186 0.8303
Ga8 Ga 0.69473(5) 0.69473(5) 0.5000
Ga9_2 Ga 0.80527(5) 0.80527(5) 1.0000
O1_2 O 0.4004(3) 0.2142(3) 0.4988(5)
O2_2 O 0.2477(6) 0.2500 0.6250
H1_2 H 0.1921 0.2500 0.6250
O3_2 O 0.3749(4) 0.1193(4) 0.6425(4)
C1_3 C 0.5000 0.0000 0.5502(9)
H2_3 H 0.5000 0.0000 0.6302
C2_2 C 0.4077(6) 0.1381(5) 0.5484(7)
C3_2 C 0.4589(6) 0.0697(6) 0.4897(8)
C4_3 C 0.5000 0.0000 0.3136(9)
C5_2 C 0.4620(6) 0.0699(6) 0.3709(8)
H3_2 H 0.4377 0.1186 0.3303
C9_3 C 0.5000 0.0000 0.1864(9)
C15_2 C 0.4303(6) 0.0411(6) 0.0103(8)
C16_2 C 0.4301(6) 0.0380(6) 0.1291(8)
H7_2 H 0.3814 0.0623 0.1697
Ga7_2 Ga 0.30527(5) 0.19473(5) 0.7500
O17_2 O 0.3749(4) 0.3807(4) 0.6075(4)
O18_2 O 0.3807(4) 0.3749(4) 0.3925(4)
C6_3 C 0.5000 0.0000 0.9498(9)
H4_3 H 0.5000 0.0000 0.8698
O9_2 O 0.3807(4) 0.1251(4) 0.8575(4)
C14_2 C 0.3619(5) 0.0923(6) 0.9516(7)
O11_2 O 0.4004(3) 0.2858(3) 0.7512(5)
O12_2 O 0.2142(3) 0.0996(3) 0.7488(5)
C1_4 C 0.5000 1.0000 0.5502(9)
H2_4 H 0.5000 1.0000 0.6302
C4_4 C 0.5000 1.0000 0.3136(9)
O4_2 O 0.7142(3) 0.9004(3) 0.0012(5)
C8_2 C 0.5697(6) 0.9589(6) 0.0103(8)
C9_4 C 0.5000 1.0000 0.1864(9)
C10_2 C 0.5699(6) 0.9620(6) 0.1291(8)
H5_2 H 0.6186 0.9377 0.1697
O6_2 O 0.5996(3) 0.7858(3) 0.4988(5)
O7_2 O 0.6251(4) 0.8807(4) 0.6425(4)
C11_2 C 0.5923(6) 0.8619(5) 0.5484(7)
C12_2 C 0.5411(6) 0.9303(6) 0.4897(8)
C13_2 C 0.5380(6) 0.9301(6) 0.3709(8)
H6_2 H 0.5623 0.8814 0.3303
Ga6_2 Ga 0.69473(5) 0.80527(5) 0.7500
O5_2 O 0.6193(4) 0.8749(4) 0.8575(4)
C6_4 C 0.5000 1.0000 0.9498(9)
H4_4 H 0.5000 1.0000 0.8698
C7_2 C 0.6381(5) 0.9077(6) 0.9516(7)
O1_3 O 0.7142(3) 0.5996(3) 0.2488(5)
O2_3 O 0.7500 0.7523(6) 0.3750
H1_3 H 0.7500 0.8079 0.3750
O3_3 O 0.6193(4) 0.6251(4) 0.3925(4)
C1_5 C 0.5000 0.5000 0.3002(9)
H2_5 H 0.5000 0.5000 0.3802
C2_3 C 0.6381(5) 0.5923(6) 0.2984(7)
C3_3 C 0.5697(6) 0.5411(6) 0.2397(8)
C4_5 C 0.5000 0.5000 0.0636(9)
C5_3 C 0.5699(6) 0.5380(6) 0.1209(8)
H3_3 H 0.6186 0.5623 0.0803
C11_3 C 0.3619(5) 0.4077(6) 0.2984(7)
C12_3 C 0.4303(6) 0.4589(6) 0.2397(8)
C13_3 C 0.4301(6) 0.4620(6) 0.1209(8)
H6_3 H 0.3814 0.4377 0.0803
O13_2 O 0.9004(3) 0.7858(3) 0.2512(5)
O14_2 O 0.7477(6) 0.7500 0.1250
C6_5 C 0.5000 0.5000 0.6998(9)
H4_5 H 0.5000 0.5000 0.6198
C7_3 C 0.4077(6) 0.3619(5) 0.7016(7)
C8_3 C 0.4589(6) 0.4303(6) 0.7603(8)
C9_5 C 0.5000 0.5000 0.9364(9)
C10_3 C 0.4620(6) 0.4301(6) 0.8791(8)
H5_3 H 0.4377 0.3814 0.9197
O8_2 O 0.5996(3) 0.7142(3) 0.7512(5)
O9_3 O 0.6251(4) 0.6193(4) 0.6075(4)
C14_3 C 0.5923(6) 0.6381(5) 0.7016(7)
C15_3 C 0.5411(6) 0.5697(6) 0.7603(8)
C16_3 C 0.5380(6) 0.5699(6) 0.8791(8)
H7_3 H 0.5623 0.6186 0.9197
O15_2 O 0.7523(6) 0.7500 0.6250
C1_6 C -0.0000 -0.0000 0.8002(9)
H2_6 H -0.0000 0.0000 0.8802
C4_6 C -0.0000 -0.0000 0.5636(9)
C6_6 C -0.0000 -0.0000 0.1998(9)
H4_6 H -0.0000 -0.0000 0.1198
C7_4 C 0.0923(6) 0.1381(5) 0.2016(7)
C8_4 C 0.0411(6) 0.0697(6) 0.2603(8)
C9_6 C -0.0000 -0.0000 0.4364(9)
C10_4 C 0.0380(6) 0.0699(6) 0.3791(8)
H5_4 H 0.0623 0.1186 0.4197
C11_4 C 0.1381(5) 0.0923(6) 0.7984(7)
C12_4 C 0.0697(6) 0.0411(6) 0.7397(8)
C13_4 C 0.0699(6) 0.0380(6) 0.6209(8)
H6_4 H 0.1186 0.0623 0.5803
O1_4 O 0.7858(3) 0.9004(3) 0.7488(5)
O2_4 O 0.7500 0.7477(6) 0.8750
H1_4 H 0.7500 0.6921 0.8750
O3_4 O 0.8807(4) 0.8749(4) 0.8925(4)
C1_7 C 1.0000 1.0000 0.8002(9)
H2_7 H 1.0000 1.0000 0.8802
C2_4 C 0.8619(5) 0.9077(6) 0.7984(7)
C3_4 C 0.9303(6) 0.9589(6) 0.7397(8)
C4_7 C 1.0000 1.0000 0.5636(9)
C5_4 C 0.9301(6) 0.9620(6) 0.6209(8)
H3_4 H 0.8814 0.9377 0.5803
C6_7 C 1.0000 1.0000 0.1998(9)
H4_7 H 1.0000 1.0000 0.1198
C9_7 C 1.0000 1.0000 0.4364(9)
O9_4 O 0.8749(4) 0.8807(4) 0.1075(4)
C14_4 C 0.9077(6) 0.8619(5) 0.2016(7)
C15_4 C 0.9589(6) 0.9303(6) 0.2603(8)
C16_4 C 0.9620(6) 0.9301(6) 0.3791(8)
H7_4 H 0.9377 0.8814 0.4197
H1_5 H 0.8079 0.7500 0.6250
H1_6 H 0.6921 0.7500 0.1250
H1_7 H 0.2500 0.3079 0.8750
H1_8 H 0.2500 0.1921 0.3750
C1_8 C -0.0000 1.0000 0.8002(9)
H2_8 H -0.0000 1.0000 0.8802
C4_8 C -0.0000 1.0000 0.5636(9)
C6_8 C -0.0000 1.0000 0.1998(9)
H4_8 H -0.0000 1.0000 0.1198
C9_8 C -0.0000 1.0000 0.4364(9)
C1_9 C 1.0000 -0.0000 0.8002(9)
H2_9 H 1.0000 0.0000 0.8802
C4_9 C 1.0000 -0.0000 0.5636(9)
C6_9 C 1.0000 -0.0000 0.1998(9)
H4_9 H 1.0000 -0.0000 0.1198
C9_9 C 1.0000 -0.0000 0.4364(9)
loop_
_geom_bond_atom_site_label_1
_geom_bond_atom_site_label_2
_geom_bond_site_symmetry_1
_geom_bond_site_symmetry_2
O2 Ga1 1_555 1_555
H1 O2 1_555 1_555
O3 C2 1_555 1_555
C1 H2 1_555 1_555
Ga7 O2 1_555 1_555
O13 Ga1 1_555 1_555
O17 Ga1 1_555 1_555
O3 Ga7 1_555 1_555
Ga1_2 O1 1_555 1_555
C4 C5 1_555 1_555
C5 C3 1_555 1_555
H3 C5 1_555 1_555
C6 H4 1_555 1_555
C9 C4 1_555 1_555
O8 C14 1_555 1_555
O9 C14 1_555 1_555
C14 C15 1_555 1_555
C15 C6 1_555 1_555
C16 C9 1_555 1_555
H7 C16 1_555 1_555
Ga7 O9 1_555 1_555
Ga4 O8 1_555 1_555
O11 Ga7 1_555 1_555
O12 Ga7 1_555 1_555
O14 Ga1_2 1_555 1_555
O15 Ga7 1_555 1_555
O18 Ga1_2 1_555 1_555
C15 C16 1_555 1_555
Ga4 O15 1_555 1_555
C1_2 H2_2 1_555 1_555
O7 C11 1_555 1_555
Ga6 O7 1_555 1_555
O4 C7 1_555 1_555
O5 C7 1_555 1_555
C6_2 H4_2 1_555 1_555
C7 C8 1_555 1_555
C8 C6_2 1_555 1_555
C9_2 C4_2 1_555 1_555
C10 C8 1_555 1_555
H5 C10 1_555 1_555
C13 C4_2 1_555 1_555
H6 C13 1_555 1_555
Ga6 O5 1_555 1_555
Ga8 O4 1_555 1_555
Ga9_2 O6 1_555 1_555
C9_2 C10 1_555 1_555
C12 C13 1_555 1_555
Ga4 O1_2 1_555 1_555
O1_2 C2_2 1_555 1_555
O2_2 Ga4 1_555 1_555
H1_2 O2_2 1_555 1_555
O3_2 C2_2 1_555 1_555
C1_3 H2_3 1_555 1_555
C2_2 C3_2 1_555 1_555
C3_2 C1_3 1_555 1_555
C4_3 C5_2 1_555 1_555
C5_2 C3_2 1_555 1_555
H3_2 C5_2 1_555 1_555
C9_3 C4_3 1_555 1_555
C16_2 C9_3 1_555 1_555
H7_2 C16_2 1_555 1_555
Ga7_2 O2_2 1_555 1_555
O17_2 Ga4 1_555 1_555
O18_2 Ga4 1_555 1_555
O3_2 Ga7_2 1_555 1_555
C15_2 C16_2 1_555 1_555
C6_3 H4_3 1_555 1_555
O9_2 C14_2 1_555 1_555
Ga7_2 O9_2 1_555 1_555
O11_2 Ga7_2 1_555 1_555
O12_2 Ga7_2 1_555 1_555
O14 Ga7_2 1_555 1_555
C1_4 H2_4 1_555 1_555
C9_4 C4_4 1_555 1_555
C10_2 C8_2 1_555 1_555
H5_2 C10_2 1_555 1_555
O6_2 C11_2 1_555 1_555
O7_2 C11_2 1_555 1_555
C11_2 C12_2 1_555 1_555
C12_2 C1_4 1_555 1_555
C13_2 C4_4 1_555 1_555
H6_2 C13_2 1_555 1_555
Ga6_2 O7_2 1_555 1_555
Ga9 O4_2 1_555 1_555
Ga8 O6_2 1_555 1_555
C9_4 C10_2 1_555 1_555
C12_2 C13_2 1_555 1_555
O5_2 C7_2 1_555 1_555
C6_4 H4_4 1_555 1_555
Ga6_2 O5_2 1_555 1_555
Ga6 O1_3 1_555 1_555
O1_3 C2_3 1_555 1_555
O2_3 Ga6 1_555 1_555
H1_3 O2_3 1_555 1_555
O3_3 C2_3 1_555 1_555
C1_5 H2_5 1_555 1_555
C2_3 C3_3 1_555 1_555
C3_3 C1_5 1_555 1_555
C4_5 C5_3 1_555 1_555
C5_3 C3_3 1_555 1_555
H3_3 C5_3 1_555 1_555
O12 C11_3 1_555 1_555
O18_2 C11_3 1_555 1_555
C11_3 C12_3 1_555 1_555
C12_3 C1_5 1_555 1_555
C13_3 C4_5 1_555 1_555
H6_3 C13_3 1_555 1_555
Ga8 O2_3 1_555 1_555
O13_2 Ga6 1_555 1_555
O14_2 Ga6 1_555 1_555
O3_3 Ga8 1_555 1_555
C12_3 C13_3 1_555 1_555
O11_2 C7_3 1_555 1_555
O17_2 C7_3 1_555 1_555
C6_5 H4_5 1_555 1_555
C7_3 C8_3 1_555 1_555
C8_3 C6_5 1_555 1_555
C10_3 C8_3 1_555 1_555
H5_3 C10_3 1_555 1_555
O8_2 C14_3 1_555 1_555
O9_3 C14_3 1_555 1_555
C14_3 C15_3 1_555 1_555
C15_3 C6_5 1_555 1_555
C16_3 C9_5 1_555 1_555
H7_3 C16_3 1_555 1_555
Ga8 O9_3 1_555 1_555
Ga6_2 O8_2 1_555 1_555
O15_2 Ga8 1_555 1_555
C9_5 C10_3 1_555 1_555
C15_3 C16_3 1_555 1_555
Ga6_2 O15_2 1_555 1_555
C1_6 H2_6 1_555 1_555
O11 C7_4 1_555 1_555
O17 C7_4 1_555 1_555
C6_6 H4_6 1_555 1_555
C7_4 C8_4 1_555 1_555
C8_4 C6_6 1_555 1_555
C9_6 C4_6 1_555 1_555
C10_4 C8_4 1_555 1_555
H5_4 C10_4 1_555 1_555
O12_2 C11_4 1_555 1_555
O18 C11_4 1_555 1_555
C11_4 C12_4 1_555 1_555
C12_4 C1_6 1_555 1_555
C13_4 C4_6 1_555 1_555
H6_4 C13_4 1_555 1_555
C9_6 C10_4 1_555 1_555
C12_4 C13_4 1_555 1_555
Ga6_2 O1_4 1_555 1_555
O1_4 C2_4 1_555 1_555
O2_4 Ga6_2 1_555 1_555
H1_4 O2_4 1_555 1_555
O3_4 C2_4 1_555 1_555
C1_7 H2_7 1_555 1_555
C2_4 C3_4 1_555 1_555
C3_4 C1_7 1_555 1_555
C4_7 C5_4 1_555 1_555
C5_4 C3_4 1_555 1_555
H3_4 C5_4 1_555 1_555
C6_7 H4_7 1_555 1_555
C9_7 C4_7 1_555 1_555
O13_2 C14_4 1_555 1_555
O9_4 C14_4 1_555 1_555
C14_4 C15_4 1_555 1_555
C15_4 C6_7 1_555 1_555
C16_4 C9_7 1_555 1_555
H7_4 C16_4 1_555 1_555
Ga9 O9_4 1_555 1_555
Ga9_2 O2_4 1_555 1_555
O14_2 Ga9 1_555 1_555
O3_4 Ga9_2 1_555 1_555
C15_4 C16_4 1_555 1_555
H1_5 O15_2 1_555 1_555
H1_6 O14_2 1_555 1_555
H1_7 O14 1_555 1_555
H1_8 O15 1_555 1_555
C1_8 H2_8 1_555 1_555
C6_8 H4_8 1_555 1_555
C9_8 C4_8 1_555 1_555
C1_9 H2_9 1_555 1_555
C6_9 H4_9 1_555 1_555
C9_9 C4_9 1_555 1_555

#END
