
###############################################################################
#
# This file contains modified crystal structure data generated from the
# MOF subset of the Cambridge Structural Database (CSD) v543 
# hosted by the Cambridge Crystallographic Data Centre (CCDC).
#
# This work is licensed under the Creative Commons
# Attribution-NonCommercial-ShareAlike 4.0 International License.
# To view a copy of this license, visit
# http://creativecommons.org/licenses/by-nc-sa/4.0/
# or send a letter to
# Creative Commons, PO Box 1866, Mountain View, CA 94042, USA.
#
# CIF created using the CSD Python API on 29 September 2022
# The structure has been converted into the P1 space group
# The structure has a 3D framework
# The original CSD entry TAKTEH is in the tetragonal crystal system
# The original CSD entry TAKTEH is in a Sohncke space group
# The framework has been calculated to contain at least 10.0% void space
# The void calculation uses a probe of radius 1.32A, grid spacing 0.4
#
###############################################################################

data_TAKTEH
_chemical_formula_moiety         '(C84 H38 Ga9 O33)n'
_symmetry_cell_setting           triclinic
_symmetry_space_group_name_H-M   'P 1'
_symmetry_Int_Tables_number      1
_space_group_name_Hall           'P 1'
loop_
_symmetry_equiv_pos_site_id
_symmetry_equiv_pos_as_xyz
1 x,y,z
_cell_length_a                   15.0174(7)
_cell_length_b                   15.0174(7)
_cell_length_c                   11.9111(11)
_cell_angle_alpha                90
_cell_angle_beta                 90
_cell_angle_gamma                90
_cell_volume                     2686.22
loop_
_atom_site_label
_atom_site_type_symbol
_atom_site_fract_x
_atom_site_fract_y
_atom_site_fract_z
Ga1 Ga 0.19253(2) 0.19253(2) 0.0000
O2 O 0.2521(3) 0.2500 0.1250
H1 H 0.3077 0.2500 0.1250
O3 O 0.1228(2) 0.3796(2) 0.14280(19)
C1 C -0.0000 0.5000 0.0478(4)
H2 H -0.0000 0.5000 0.1259
C2 C 0.0912(3) 0.3596(3) 0.0476(3)
Ga7 Ga 0.19253(2) 0.30747(2) 0.2500
O13 O 0.28693(17) 0.10021(17) 0.0037(2)
O17 O 0.1228(2) 0.1204(2) 0.10720(19)
Ga1_2 Ga 0.19253(2) 0.19253(2) 1.0000
O1 O 0.10021(17) 0.28693(17) 0.9963(2)
C3 C 0.0408(3) 0.4310(3) 0.9884(4)
C4 C -0.0000 0.5000 0.8131(4)
C5 C 0.0386(3) 0.4307(4) 0.8726(4)
H3 H 0.0634 0.3830 0.8338
C6 C 0.0000 0.5000 0.4522(4)
H4 H 0.0000 0.5000 0.3741
C9 C -0.0000 0.5000 0.6869(4)
O8 O 0.21307(17) 0.39979(17) 0.5037(2)
C14 C 0.1404(3) 0.4088(3) 0.4524(3)
C15 C 0.0690(3) 0.4592(3) 0.5116(4)
C16 C 0.0693(4) 0.4614(3) 0.6274(4)
H7 H 0.1170 0.4366 0.6662
O9 O 0.1204(2) 0.3772(2) 0.35720(19)
Ga4 Ga 0.30747(2) 0.30747(2) 0.5000
O11 O 0.10021(17) 0.21307(17) 0.2537(2)
O12 O 0.28693(17) 0.39979(17) 0.2463(2)
O14 O 0.2500 0.2521(3) 0.8750
O15 O 0.2500 0.2479(3) 0.3750
O18 O 0.1204(2) 0.1228(2) 0.89280(19)
C1_2 C 1.0000 0.5000 0.0478(4)
H2_2 H 1.0000 0.5000 0.1259
C11 C 0.9088(3) 0.6404(3) 0.0476(3)
O7 O 0.8772(2) 0.6204(2) 0.14280(19)
Ga6 Ga 0.80747(2) 0.69253(2) 0.2500
Ga9 Ga 0.80747(2) 0.80747(2) 0.0000
C4_2 C 1.0000 0.5000 0.8131(4)
O4 O 0.78693(17) 0.60021(17) 0.5037(2)
C6_2 C 1.0000 0.5000 0.4522(4)
H4_2 H 1.0000 0.5000 0.3741
C7 C 0.8596(3) 0.5912(3) 0.4524(3)
C8 C 0.9310(3) 0.5408(3) 0.5116(4)
C9_2 C 1.0000 0.5000 0.6869(4)
C10 C 0.9307(4) 0.5386(3) 0.6274(4)
H5 H 0.8830 0.5634 0.6662
O5 O 0.8796(2) 0.6228(2) 0.35720(19)
O6 O 0.89979(17) 0.71307(17) 0.9963(2)
C12 C 0.9592(3) 0.5690(3) 0.9884(4)
C13 C 0.9614(3) 0.5693(4) 0.8726(4)
H6 H 0.9366 0.6170 0.8338
Ga8 Ga 0.69253(2) 0.69253(2) 0.5000
Ga9_2 Ga 0.80747(2) 0.80747(2) 1.0000
O1_2 O 0.39979(17) 0.21307(17) 0.4963(2)
O2_2 O 0.2479(3) 0.2500 0.6250
H1_2 H 0.1923 0.2500 0.6250
O3_2 O 0.3772(2) 0.1204(2) 0.64280(19)
C1_3 C 0.5000 0.0000 0.5478(4)
H2_3 H 0.5000 -0.0000 0.6259
C2_2 C 0.4088(3) 0.1404(3) 0.5476(3)
C3_2 C 0.4592(3) 0.0690(3) 0.4884(4)
C4_3 C 0.5000 0.0000 0.3131(4)
C5_2 C 0.4614(3) 0.0693(4) 0.3726(4)
H3_2 H 0.4366 0.1170 0.3338
C9_3 C 0.5000 -0.0000 0.1869(4)
C15_2 C 0.4310(3) 0.0408(3) 0.0116(4)
C16_2 C 0.4307(4) 0.0386(3) 0.1274(4)
H7_2 H 0.3830 0.0634 0.1662
Ga7_2 Ga 0.30747(2) 0.19253(2) 0.7500
O17_2 O 0.3772(2) 0.3796(2) 0.60720(19)
O18_2 O 0.3796(2) 0.3772(2) 0.39280(19)
C6_3 C 0.5000 0.0000 0.9522(4)
H4_3 H 0.5000 0.0000 0.8741
C14_2 C 0.3596(3) 0.0912(3) 0.9524(3)
O9_2 O 0.3796(2) 0.1228(2) 0.85720(19)
O11_2 O 0.39979(17) 0.28693(17) 0.7537(2)
O12_2 O 0.21307(17) 0.10021(17) 0.7463(2)
C1_4 C 0.5000 1.0000 0.5478(4)
H2_4 H 0.5000 1.0000 0.6259
C4_4 C 0.5000 1.0000 0.3131(4)
O4_2 O 0.71307(17) 0.89979(17) 0.0037(2)
C8_2 C 0.5690(3) 0.9592(3) 0.0116(4)
C9_4 C 0.5000 1.0000 0.1869(4)
C10_2 C 0.5693(4) 0.9614(3) 0.1274(4)
H5_2 H 0.6170 0.9366 0.1662
O6_2 O 0.60021(17) 0.78693(17) 0.4963(2)
C11_2 C 0.5912(3) 0.8596(3) 0.5476(3)
C12_2 C 0.5408(3) 0.9310(3) 0.4884(4)
C13_2 C 0.5386(3) 0.9307(4) 0.3726(4)
H6_2 H 0.5634 0.8830 0.3338
O7_2 O 0.6228(2) 0.8796(2) 0.64280(19)
Ga6_2 Ga 0.69253(2) 0.80747(2) 0.7500
C6_4 C 0.5000 1.0000 0.9522(4)
H4_4 H 0.5000 1.0000 0.8741
C7_2 C 0.6404(3) 0.9088(3) 0.9524(3)
O5_2 O 0.6204(2) 0.8772(2) 0.85720(19)
O1_3 O 0.71307(17) 0.60021(17) 0.2463(2)
O2_3 O 0.7500 0.7521(3) 0.3750
H1_3 H 0.7500 0.8077 0.3750
O3_3 O 0.6204(2) 0.6228(2) 0.39280(19)
C1_5 C 0.5000 0.5000 0.2978(4)
H2_5 H 0.5000 0.5000 0.3759
C2_3 C 0.6404(3) 0.5912(3) 0.2976(3)
C3_3 C 0.5690(3) 0.5408(3) 0.2384(4)
C4_5 C 0.5000 0.5000 0.0631(4)
C5_3 C 0.5693(4) 0.5386(3) 0.1226(4)
H3_3 H 0.6170 0.5634 0.0838
C11_3 C 0.3596(3) 0.4088(3) 0.2976(3)
C12_3 C 0.4310(3) 0.4592(3) 0.2384(4)
C13_3 C 0.4307(4) 0.4614(3) 0.1226(4)
H6_3 H 0.3830 0.4366 0.0838
O13_2 O 0.89979(17) 0.78693(17) 0.2537(2)
O14_2 O 0.7479(3) 0.7500 0.1250
C6_5 C 0.5000 0.5000 0.7022(4)
H4_5 H 0.5000 0.5000 0.6241
C7_3 C 0.4088(3) 0.3596(3) 0.7024(3)
C8_3 C 0.4592(3) 0.4310(3) 0.7616(4)
C9_5 C 0.5000 0.5000 0.9369(4)
C10_3 C 0.4614(3) 0.4307(4) 0.8774(4)
H5_3 H 0.4366 0.3830 0.9162
O8_2 O 0.60021(17) 0.71307(17) 0.7537(2)
C14_3 C 0.5912(3) 0.6404(3) 0.7024(3)
C15_3 C 0.5408(3) 0.5690(3) 0.7616(4)
C16_3 C 0.5386(3) 0.5693(4) 0.8774(4)
H7_3 H 0.5634 0.6170 0.9162
O9_3 O 0.6228(2) 0.6204(2) 0.60720(19)
O15_2 O 0.7521(3) 0.7500 0.6250
C1_6 C 0.0000 0.0000 0.7978(4)
H2_6 H 0.0000 0.0000 0.8759
C4_6 C -0.0000 -0.0000 0.5631(4)
C6_6 C 0.0000 0.0000 0.2022(4)
H4_6 H 0.0000 -0.0000 0.1241
C7_4 C 0.0912(3) 0.1404(3) 0.2024(3)
C8_4 C 0.0408(3) 0.0690(3) 0.2616(4)
C9_6 C 0.0000 0.0000 0.4369(4)
C10_4 C 0.0386(3) 0.0693(4) 0.3774(4)
H5_4 H 0.0634 0.1170 0.4162
C11_4 C 0.1404(3) 0.0912(3) 0.7976(3)
C12_4 C 0.0690(3) 0.0408(3) 0.7384(4)
C13_4 C 0.0693(4) 0.0386(3) 0.6226(4)
H6_4 H 0.1170 0.0634 0.5838
O1_4 O 0.78693(17) 0.89979(17) 0.7463(2)
O2_4 O 0.7500 0.7479(3) 0.8750
H1_4 H 0.7500 0.6923 0.8750
O3_4 O 0.8796(2) 0.8772(2) 0.89280(19)
C1_7 C 1.0000 1.0000 0.7978(4)
H2_7 H 1.0000 1.0000 0.8759
C2_4 C 0.8596(3) 0.9088(3) 0.7976(3)
C3_4 C 0.9310(3) 0.9592(3) 0.7384(4)
C4_7 C 1.0000 1.0000 0.5631(4)
C5_4 C 0.9307(4) 0.9614(3) 0.6226(4)
H3_4 H 0.8830 0.9366 0.5838
C6_7 C 1.0000 1.0000 0.2022(4)
H4_7 H 1.0000 1.0000 0.1241
C9_7 C 1.0000 1.0000 0.4369(4)
C14_4 C 0.9088(3) 0.8596(3) 0.2024(3)
C15_4 C 0.9592(3) 0.9310(3) 0.2616(4)
C16_4 C 0.9614(3) 0.9307(4) 0.3774(4)
H7_4 H 0.9366 0.8830 0.4162
O9_4 O 0.8772(2) 0.8796(2) 0.10720(19)
H1_5 H 0.8077 0.7500 0.6250
H1_6 H 0.6923 0.7500 0.1250
H1_7 H 0.2500 0.3077 0.8750
H1_8 H 0.2500 0.1923 0.3750
C1_8 C 0.0000 1.0000 0.7978(4)
H2_8 H 0.0000 1.0000 0.8759
C4_8 C -0.0000 1.0000 0.5631(4)
C6_8 C -0.0000 1.0000 0.2022(4)
H4_8 H 0.0000 1.0000 0.1241
C9_8 C -0.0000 1.0000 0.4369(4)
C1_9 C 1.0000 0.0000 0.7978(4)
H2_9 H 1.0000 0.0000 0.8759
C4_9 C 1.0000 -0.0000 0.5631(4)
C6_9 C 1.0000 0.0000 0.2022(4)
H4_9 H 1.0000 -0.0000 0.1241
C9_9 C 1.0000 0.0000 0.4369(4)
loop_
_geom_bond_atom_site_label_1
_geom_bond_atom_site_label_2
_geom_bond_site_symmetry_1
_geom_bond_site_symmetry_2
O2 Ga1 1_555 1_555
H1 O2 1_555 1_555
O3 C2 1_555 1_555
C1 H2 1_555 1_555
Ga7 O2 1_555 1_555
O13 Ga1 1_555 1_555
O17 Ga1 1_555 1_555
O3 Ga7 1_555 1_555
Ga1_2 O1 1_555 1_555
C4 C5 1_555 1_555
C5 C3 1_555 1_555
H3 C5 1_555 1_555
C6 H4 1_555 1_555
C9 C4 1_555 1_555
O8 C14 1_555 1_555
C14 C15 1_555 1_555
C15 C6 1_555 1_555
C16 C9 1_555 1_555
H7 C16 1_555 1_555
O9 C14 1_555 1_555
Ga7 O9 1_555 1_555
Ga4 O8 1_555 1_555
O11 Ga7 1_555 1_555
O12 Ga7 1_555 1_555
O14 Ga1_2 1_555 1_555
O15 Ga7 1_555 1_555
O18 Ga1_2 1_555 1_555
C15 C16 1_555 1_555
Ga4 O15 1_555 1_555
C1_2 H2_2 1_555 1_555
O7 C11 1_555 1_555
Ga6 O7 1_555 1_555
O4 C7 1_555 1_555
C6_2 H4_2 1_555 1_555
C7 C8 1_555 1_555
C8 C6_2 1_555 1_555
C9_2 C4_2 1_555 1_555
C10 C8 1_555 1_555
H5 C10 1_555 1_555
O5 C7 1_555 1_555
C13 C4_2 1_555 1_555
H6 C13 1_555 1_555
Ga6 O5 1_555 1_555
Ga8 O4 1_555 1_555
Ga9_2 O6 1_555 1_555
C9_2 C10 1_555 1_555
C12 C13 1_555 1_555
Ga4 O1_2 1_555 1_555
O1_2 C2_2 1_555 1_555
O2_2 Ga4 1_555 1_555
H1_2 O2_2 1_555 1_555
O3_2 C2_2 1_555 1_555
C1_3 H2_3 1_555 1_555
C2_2 C3_2 1_555 1_555
C3_2 C1_3 1_555 1_555
C4_3 C5_2 1_555 1_555
C5_2 C3_2 1_555 1_555
H3_2 C5_2 1_555 1_555
C9_3 C4_3 1_555 1_555
C16_2 C9_3 1_555 1_555
H7_2 C16_2 1_555 1_555
Ga7_2 O2_2 1_555 1_555
O17_2 Ga4 1_555 1_555
O18_2 Ga4 1_555 1_555
O3_2 Ga7_2 1_555 1_555
C15_2 C16_2 1_555 1_555
C6_3 H4_3 1_555 1_555
O9_2 C14_2 1_555 1_555
Ga7_2 O9_2 1_555 1_555
O11_2 Ga7_2 1_555 1_555
O12_2 Ga7_2 1_555 1_555
O14 Ga7_2 1_555 1_555
C1_4 H2_4 1_555 1_555
C9_4 C4_4 1_555 1_555
C10_2 C8_2 1_555 1_555
H5_2 C10_2 1_555 1_555
O6_2 C11_2 1_555 1_555
C11_2 C12_2 1_555 1_555
C12_2 C1_4 1_555 1_555
C13_2 C4_4 1_555 1_555
H6_2 C13_2 1_555 1_555
O7_2 C11_2 1_555 1_555
Ga6_2 O7_2 1_555 1_555
Ga9 O4_2 1_555 1_555
Ga8 O6_2 1_555 1_555
C9_4 C10_2 1_555 1_555
C12_2 C13_2 1_555 1_555
C6_4 H4_4 1_555 1_555
O5_2 C7_2 1_555 1_555
Ga6_2 O5_2 1_555 1_555
Ga6 O1_3 1_555 1_555
O1_3 C2_3 1_555 1_555
O2_3 Ga6 1_555 1_555
H1_3 O2_3 1_555 1_555
O3_3 C2_3 1_555 1_555
C1_5 H2_5 1_555 1_555
C2_3 C3_3 1_555 1_555
C3_3 C1_5 1_555 1_555
C4_5 C5_3 1_555 1_555
C5_3 C3_3 1_555 1_555
H3_3 C5_3 1_555 1_555
O12 C11_3 1_555 1_555
C11_3 C12_3 1_555 1_555
C12_3 C1_5 1_555 1_555
C13_3 C4_5 1_555 1_555
H6_3 C13_3 1_555 1_555
O18_2 C11_3 1_555 1_555
Ga8 O2_3 1_555 1_555
O13_2 Ga6 1_555 1_555
O14_2 Ga6 1_555 1_555
O3_3 Ga8 1_555 1_555
C12_3 C13_3 1_555 1_555
O11_2 C7_3 1_555 1_555
C6_5 H4_5 1_555 1_555
C7_3 C8_3 1_555 1_555
C8_3 C6_5 1_555 1_555
C10_3 C8_3 1_555 1_555
H5_3 C10_3 1_555 1_555
O17_2 C7_3 1_555 1_555
O8_2 C14_3 1_555 1_555
C14_3 C15_3 1_555 1_555
C15_3 C6_5 1_555 1_555
C16_3 C9_5 1_555 1_555
H7_3 C16_3 1_555 1_555
O9_3 C14_3 1_555 1_555
Ga8 O9_3 1_555 1_555
Ga6_2 O8_2 1_555 1_555
O15_2 Ga8 1_555 1_555
C9_5 C10_3 1_555 1_555
C15_3 C16_3 1_555 1_555
Ga6_2 O15_2 1_555 1_555
C1_6 H2_6 1_555 1_555
O11 C7_4 1_555 1_555
C6_6 H4_6 1_555 1_555
C7_4 C8_4 1_555 1_555
C8_4 C6_6 1_555 1_555
C9_6 C4_6 1_555 1_555
C10_4 C8_4 1_555 1_555
H5_4 C10_4 1_555 1_555
O17 C7_4 1_555 1_555
O12_2 C11_4 1_555 1_555
C11_4 C12_4 1_555 1_555
C12_4 C1_6 1_555 1_555
C13_4 C4_6 1_555 1_555
H6_4 C13_4 1_555 1_555
O18 C11_4 1_555 1_555
C9_6 C10_4 1_555 1_555
C12_4 C13_4 1_555 1_555
Ga6_2 O1_4 1_555 1_555
O1_4 C2_4 1_555 1_555
O2_4 Ga6_2 1_555 1_555
H1_4 O2_4 1_555 1_555
O3_4 C2_4 1_555 1_555
C1_7 H2_7 1_555 1_555
C2_4 C3_4 1_555 1_555
C3_4 C1_7 1_555 1_555
C4_7 C5_4 1_555 1_555
C5_4 C3_4 1_555 1_555
H3_4 C5_4 1_555 1_555
C6_7 H4_7 1_555 1_555
C9_7 C4_7 1_555 1_555
O13_2 C14_4 1_555 1_555
C14_4 C15_4 1_555 1_555
C15_4 C6_7 1_555 1_555
C16_4 C9_7 1_555 1_555
H7_4 C16_4 1_555 1_555
O9_4 C14_4 1_555 1_555
Ga9 O9_4 1_555 1_555
Ga9_2 O2_4 1_555 1_555
O14_2 Ga9 1_555 1_555
O3_4 Ga9_2 1_555 1_555
C15_4 C16_4 1_555 1_555
H1_5 O15_2 1_555 1_555
H1_6 O14_2 1_555 1_555
H1_7 O14 1_555 1_555
H1_8 O15 1_555 1_555
C1_8 H2_8 1_555 1_555
C6_8 H4_8 1_555 1_555
C9_8 C4_8 1_555 1_555
C1_9 H2_9 1_555 1_555
C6_9 H4_9 1_555 1_555
C9_9 C4_9 1_555 1_555

#END
