
###############################################################################
#
# This file contains modified crystal structure data generated from the
# MOF subset of the Cambridge Structural Database (CSD) v543 
# hosted by the Cambridge Crystallographic Data Centre (CCDC).
#
# This work is licensed under the Creative Commons
# Attribution-NonCommercial-ShareAlike 4.0 International License.
# To view a copy of this license, visit
# http://creativecommons.org/licenses/by-nc-sa/4.0/
# or send a letter to
# Creative Commons, PO Box 1866, Mountain View, CA 94042, USA.
#
# CIF created using the CSD Python API on 29 September 2022
# The structure has been converted into the P1 space group
# The structure has a 3D framework
# The original CSD entry TAKZEN is in the monoclinic crystal system
# The framework has been calculated to contain at least 10.0% void space
# The void calculation uses a probe of radius 1.32A, grid spacing 0.4
#
###############################################################################

data_TAKZEN
_chemical_formula_moiety         '(C48 H44 N28 O10 Zn8)n'
_symmetry_cell_setting           triclinic
_symmetry_space_group_name_H-M   'P 1'
_symmetry_Int_Tables_number      1
_space_group_name_Hall           'P 1'
loop_
_symmetry_equiv_pos_site_id
_symmetry_equiv_pos_as_xyz
1 x,y,z
_cell_length_a                   8.018(11)
_cell_length_b                   21.04(3)
_cell_length_c                   11.069(14)
_cell_angle_alpha                90
_cell_angle_beta                 91.26(3)
_cell_angle_gamma                90
_cell_volume                     1866.87
loop_
_atom_site_label
_atom_site_type_symbol
_atom_site_fract_x
_atom_site_fract_y
_atom_site_fract_z
Zn1 Zn 0.10337(9) 0.61355(4) 0.27669(6)
N4 N 0.3159(6) 0.6539(3) 0.2122(5)
N5 N 0.5632(7) 0.6787(3) 0.1503(5)
N6 N 0.4483(7) 0.7074(3) 0.0773(5)
N7 N 0.3005(7) 0.6924(3) 0.1135(6)
O1 O 0.8460(6) 0.4513(2) 0.6049(5)
O2 O 0.7514(9) 0.5207(3) 0.7397(5)
C1 C 0.7704(9) 0.5031(3) 0.6342(7)
C2 C 0.6980(8) 0.5409(3) 0.5290(6)
C3 C 0.5918(9) 0.5922(3) 0.5517(6)
H2 H 0.5680 0.6034 0.6308
C4 C 0.7336(9) 0.5240(3) 0.4106(7)
H3 H 0.8045 0.4901 0.3955
C5 C 0.5217(9) 0.6266(3) 0.4549(6)
H4 H 0.4516 0.6608 0.4697
C6 C 0.6623(8) 0.5582(3) 0.3150(6)
H5 H 0.6852 0.5466 0.2360
C7 C 0.5569(8) 0.6097(3) 0.3362(6)
C8 C 0.4789(7) 0.6469(3) 0.2343(6)
C12 C 0.0541(9) 0.6687(4) 0.5921(6)
H9 H 0.1173 0.6332 0.5634
H11 H 0.1277 0.6983 0.6323
Zn3 Zn 0.89663(9) 0.38645(4) 0.72331(6)
Zn4 Zn 0.81521(9) 0.69168(4) 0.13554(6)
O4 O 0.1540(6) 0.5487(2) 0.3951(5)
N1 N 0.8641(6) 0.7521(2) 0.4951(4)
N2 N 0.9816(6) 0.6819(3) 0.3745(4)
N3 N 0.8799(6) 0.7226(3) 0.3042(4)
O3 O 0.9461(6) 0.6141(2) 0.1411(4)
H1 H 0.9631 0.5939 0.0782
C9 C 0.6958(10) 0.8155(4) 0.3386(7)
H6 H 0.7467 0.8562 0.3527
H7 H 0.5947 0.8126 0.3832
H8 H 0.6705 0.8107 0.2539
C10 C 0.8130(8) 0.7642(3) 0.3790(5)
C11 C 0.9685(8) 0.7008(3) 0.4876(5)
H10 H 0.9724 0.6540 0.6476
Zn5 Zn 0.81521(9) 0.80832(4) 0.63554(6)
N8 N 0.8641(6) 0.7479(2) 0.9951(4)
Zn2 Zn 0.18479(9) 0.19168(4) 0.36446(6)
N1_2 N 0.1359(6) 0.2521(2) 0.0049(4)
N2_2 N 0.0184(6) 0.1819(3) 0.1255(4)
N3_2 N 0.1201(6) 0.2226(3) 0.1958(4)
O3_2 O 0.0539(6) 0.1141(2) 0.3589(4)
H1_2 H 0.0369 0.0939 0.4218
C9_2 C 0.3042(10) 0.3155(4) 0.1614(7)
H6_2 H 0.2533 0.3562 0.1473
H7_2 H 0.4053 0.3126 0.1168
H8_2 H 0.3295 0.3107 0.2461
C10_2 C 0.1870(8) 0.2642(3) 0.1210(5)
C11_2 C 0.0315(8) 0.2008(3) 0.0124(5)
N8_2 N 0.1359(6) 0.2479(2) 0.5049(4)
N9 N 0.4368(7) 0.1787(3) 0.3497(5)
H10_2 H 0.0276 0.1540 0.8524
Zn5_2 Zn 0.18479(9) 0.30832(4) 0.86446(6)
Zn1_2 Zn 0.89663(9) 0.11355(4) 0.22331(6)
N4_2 N 0.6841(6) 0.1539(3) 0.2878(5)
N6_2 N 0.5517(7) 0.2074(3) 0.4227(5)
N7_2 N 0.6995(7) 0.1924(3) 0.3865(6)
C4_2 C 0.2664(9) 0.0240(3) 0.0894(7)
C5_2 C 0.4783(9) 0.1266(3) 0.0451(6)
H4_2 H 0.5484 0.1608 0.0303
C6_2 C 0.3377(8) 0.0582(3) 0.1850(6)
H5_2 H 0.3148 0.0466 0.2640
C7_2 C 0.4431(8) 0.1097(3) 0.1638(6)
C8_2 C 0.5211(7) 0.1469(3) 0.2657(6)
O4_2 O 0.8460(6) 0.0487(2) 0.1049(5)
O1_2 O 0.1540(6) 0.9513(2) 0.8951(5)
Zn3_2 Zn 0.10337(9) 0.88645(4) 0.77669(6)
N2_3 N 0.0184(6) 0.3181(3) 0.6255(4)
N3_3 N 0.1201(6) 0.2774(3) 0.6958(4)
O3_3 O 0.0539(6) 0.3859(2) 0.8589(4)
H1_3 H 0.0369 0.4061 0.9218
C9_3 C 0.3042(10) 0.1845(4) 0.6614(7)
H6_3 H 0.2533 0.1438 0.6473
H7_3 H 0.4053 0.1874 0.6168
H8_3 H 0.3295 0.1893 0.7461
C10_3 C 0.1870(8) 0.2358(3) 0.6210(5)
C11_3 C 0.0315(8) 0.2992(3) 0.5124(5)
H10_3 H 0.0276 0.3460 0.3524
N9_2 N 0.4368(7) 0.3213(3) 0.8497(5)
N4_3 N 0.6841(6) 0.3461(3) 0.7878(5)
N6_3 N 0.5517(7) 0.2926(3) 0.9227(5)
N7_3 N 0.6995(7) 0.3076(3) 0.8865(6)
O2_2 O 0.2486(9) 0.4793(3) 0.2603(5)
C1_2 C 0.2296(9) 0.4969(3) 0.3658(7)
C2_2 C 0.3020(8) 0.4591(3) 0.4710(6)
C3_2 C 0.4082(9) 0.4078(3) 0.4483(6)
H2_2 H 0.4320 0.3966 0.3692
C4_3 C 0.2664(9) 0.4760(3) 0.5894(7)
H3_2 H 0.1955 0.5099 0.6045
C5_3 C 0.4783(9) 0.3734(3) 0.5451(6)
H4_3 H 0.5484 0.3392 0.5303
C6_3 C 0.3377(8) 0.4418(3) 0.6850(6)
H5_3 H 0.3148 0.4534 0.7640
C7_3 C 0.4431(8) 0.3903(3) 0.6638(6)
C8_3 C 0.5211(7) 0.3531(3) 0.7657(6)
C12_2 C 0.9459(9) 0.3313(4) 0.4079(6)
H9_2 H 0.8827 0.3668 0.4366
H11_2 H 0.8723 0.3017 0.3677
N4_4 N 0.3159(6) 0.8461(3) 0.7122(5)
N5_2 N 0.5632(7) 0.8213(3) 0.6503(5)
N6_4 N 0.4483(7) 0.7926(3) 0.5773(5)
N7_4 N 0.3005(7) 0.8076(3) 0.6135(6)
C4_4 C 0.7336(9) 0.9760(3) 0.9106(7)
C5_4 C 0.5217(9) 0.8734(3) 0.9549(6)
H4_4 H 0.4516 0.8392 0.9697
C6_4 C 0.6623(8) 0.9418(3) 0.8150(6)
H5_4 H 0.6852 0.9534 0.7360
C7_4 C 0.5569(8) 0.8903(3) 0.8362(6)
C8_4 C 0.4789(7) 0.8531(3) 0.7343(6)
H10_4 H 0.9724 0.8460 0.1476
N2_4 N 0.9816(6) 0.8181(3) 0.8745(4)
N3_4 N 0.8799(6) 0.7774(3) 0.8042(4)
O3_4 O 0.9461(6) 0.8859(2) 0.6411(4)
H1_4 H 0.9631 0.9061 0.5782
C9_4 C 0.6958(10) 0.6845(4) 0.8386(7)
H6_4 H 0.7467 0.6438 0.8527
H7_4 H 0.5947 0.6874 0.8832
H8_4 H 0.6705 0.6893 0.7539
C10_4 C 0.8130(8) 0.7358(3) 0.8790(5)
C11_4 C 0.9685(8) 0.7992(3) 0.9876(5)
O2_3 O 0.2486(9) 0.0207(3) 0.7603(5)
C1_3 C 0.2296(9) 0.0031(3) 0.8658(7)
C2_3 C 0.3020(8) 0.0409(3) 0.9710(6)
C3_3 C 0.4082(9) 0.0922(3) 0.9483(6)
H2_3 H 0.4320 0.1034 0.8692
C12_3 C 0.9459(9) 0.1687(4) 0.9079(6)
H9_3 H 0.8827 0.1332 0.9366
H11_3 H 0.8723 0.1983 0.8677
H3_3 H 0.1955 0.9901 0.1045
H3_4 H 0.8045 0.0099 0.8955
O2_4 O 0.7514(9) 0.9793(3) 0.2397(5)
C1_4 C 0.7704(9) 0.9969(3) 0.1342(7)
C2_4 C 0.6980(8) 0.9591(3) 0.0290(6)
C3_4 C 0.5918(9) 0.9078(3) 0.0517(6)
H2_4 H 0.5680 0.8966 0.1308
C12_4 C 0.0541(9) 0.8313(4) 0.0921(6)
H9_4 H 0.1173 0.8668 0.0634
H11_4 H 0.1277 0.8017 0.1323
loop_
_geom_bond_atom_site_label_1
_geom_bond_atom_site_label_2
_geom_bond_site_symmetry_1
_geom_bond_site_symmetry_2
N4 Zn1 1_555 1_555
N5 N6 1_555 1_555
N6 N7 1_555 1_555
N7 N4 1_555 1_555
O1 C1 1_555 1_555
O2 C1 1_555 1_555
C1 C2 1_555 1_555
C2 C3 1_555 1_555
C3 H2 1_555 1_555
C4 C2 1_555 1_555
H3 C4 1_555 1_555
C5 C3 1_555 1_555
H4 C5 1_555 1_555
C6 C4 1_555 1_555
H5 C6 1_555 1_555
C7 C5 1_555 1_555
C8 N4 1_555 1_555
H9 C12 1_555 1_555
H11 C12 1_555 1_555
Zn3 O1 1_555 1_555
Zn4 N5 1_555 1_555
O4 Zn1 1_555 1_555
N5 C8 1_555 1_555
C6 C7 1_555 1_555
C7 C8 1_555 1_555
Zn4 N3 1_555 1_555
N1 C10 1_555 1_555
N2 N3 1_555 1_555
N3 C10 1_555 1_555
H1 O3 1_555 1_555
C9 H6 1_555 1_555
H7 C9 1_555 1_555
H8 C9 1_555 1_555
C10 C9 1_555 1_555
C11 N1 1_555 1_555
Zn5 N1 1_555 1_555
Zn4 O3 1_555 1_555
N2 C11 1_555 1_555
Zn2 N3_2 1_555 1_555
N1_2 C10_2 1_555 1_555
N2_2 N3_2 1_555 1_555
N3_2 C10_2 1_555 1_555
H1_2 O3_2 1_555 1_555
C9_2 H6_2 1_555 1_555
H7_2 C9_2 1_555 1_555
H8_2 C9_2 1_555 1_555
C10_2 C9_2 1_555 1_555
C11_2 N1_2 1_555 1_555
N8_2 Zn2 1_555 1_555
N9 Zn2 1_555 1_555
Zn2 O3_2 1_555 1_555
N2_2 C11_2 1_555 1_555
N4_2 Zn1_2 1_555 1_555
N9 N6_2 1_555 1_555
N6_2 N7_2 1_555 1_555
N7_2 N4_2 1_555 1_555
H4_2 C5_2 1_555 1_555
C6_2 C4_2 1_555 1_555
H5_2 C6_2 1_555 1_555
C7_2 C5_2 1_555 1_555
C8_2 N4_2 1_555 1_555
O4_2 Zn1_2 1_555 1_555
N9 C8_2 1_555 1_555
C6_2 C7_2 1_555 1_555
C7_2 C8_2 1_555 1_555
Zn3_2 O1_2 1_555 1_555
Zn5_2 N3_3 1_555 1_555
N8_2 C10_3 1_555 1_555
N2_3 N3_3 1_555 1_555
N3_3 C10_3 1_555 1_555
H1_3 O3_3 1_555 1_555
C9_3 H6_3 1_555 1_555
H7_3 C9_3 1_555 1_555
H8_3 C9_3 1_555 1_555
C10_3 C9_3 1_555 1_555
C11_3 N8_2 1_555 1_555
N9_2 Zn5_2 1_555 1_555
Zn5_2 O3_3 1_555 1_555
N2_3 C11_3 1_555 1_555
N4_3 Zn3 1_555 1_555
N9_2 N6_3 1_555 1_555
N6_3 N7_3 1_555 1_555
N7_3 N4_3 1_555 1_555
O4 C1_2 1_555 1_555
O2_2 C1_2 1_555 1_555
C1_2 C2_2 1_555 1_555
C2_2 C3_2 1_555 1_555
C3_2 H2_2 1_555 1_555
C4_3 C2_2 1_555 1_555
H3_2 C4_3 1_555 1_555
C5_3 C3_2 1_555 1_555
H4_3 C5_3 1_555 1_555
C6_3 C4_3 1_555 1_555
H5_3 C6_3 1_555 1_555
C7_3 C5_3 1_555 1_555
C8_3 N4_3 1_555 1_555
H9_2 C12_2 1_555 1_555
H11_2 C12_2 1_555 1_555
N9_2 C8_3 1_555 1_555
C6_3 C7_3 1_555 1_555
C7_3 C8_3 1_555 1_555
N4_4 Zn3_2 1_555 1_555
N5_2 N6_4 1_555 1_555
N6_4 N7_4 1_555 1_555
N7_4 N4_4 1_555 1_555
H4_4 C5_4 1_555 1_555
C6_4 C4_4 1_555 1_555
H5_4 C6_4 1_555 1_555
C7_4 C5_4 1_555 1_555
C8_4 N4_4 1_555 1_555
Zn5 N5_2 1_555 1_555
N5_2 C8_4 1_555 1_555
C6_4 C7_4 1_555 1_555
C7_4 C8_4 1_555 1_555
Zn5 N3_4 1_555 1_555
N8 C10_4 1_555 1_555
N2_4 N3_4 1_555 1_555
N3_4 C10_4 1_555 1_555
H1_4 O3_4 1_555 1_555
C9_4 H6_4 1_555 1_555
H7_4 C9_4 1_555 1_555
H8_4 C9_4 1_555 1_555
C10_4 C9_4 1_555 1_555
C11_4 N8 1_555 1_555
Zn5 O3_4 1_555 1_555
N2_4 C11_4 1_555 1_555
O2_3 C1_3 1_555 1_555
C1_3 C2_3 1_555 1_555
C2_3 C3_3 1_555 1_555
C3_3 H2_3 1_555 1_555
H9_3 C12_3 1_555 1_555
H11_3 C12_3 1_555 1_555
O2_4 C1_4 1_555 1_555
C1_4 C2_4 1_555 1_555
C2_4 C3_4 1_555 1_555
C3_4 H2_4 1_555 1_555
H9_4 C12_4 1_555 1_555
H11_4 C12_4 1_555 1_555

#END
