
###############################################################################
#
# This file contains modified crystal structure data generated from the
# MOF subset of the Cambridge Structural Database (CSD) v543 
# hosted by the Cambridge Crystallographic Data Centre (CCDC).
#
# This work is licensed under the Creative Commons
# Attribution-NonCommercial-ShareAlike 4.0 International License.
# To view a copy of this license, visit
# http://creativecommons.org/licenses/by-nc-sa/4.0/
# or send a letter to
# Creative Commons, PO Box 1866, Mountain View, CA 94042, USA.
#
# CIF created using the CSD Python API on 29 September 2022
# The structure has been converted into the P1 space group
# The structure has a 3D framework
# The original CSD entry TAMZUE is in the triclinic crystal system
# The framework has been calculated to contain at least 10.0% void space
# The void calculation uses a probe of radius 1.32A, grid spacing 0.4
# The framework is charged, counterions have been retained in the structure
#
###############################################################################

data_TAMZUE
_chemical_formula_moiety         '(C72 H60 Co2 Gd4 N18 O54)n'
_symmetry_cell_setting           triclinic
_symmetry_space_group_name_H-M   'P 1'
_symmetry_Int_Tables_number      1
_space_group_name_Hall           'P 1'
loop_
_symmetry_equiv_pos_site_id
_symmetry_equiv_pos_as_xyz
1 x,y,z
_cell_length_a                   11.1450(15)
_cell_length_b                   12.424(2)
_cell_length_c                   22.1800(12)
_cell_angle_alpha                102.016(2)
_cell_angle_beta                 103.475(3)
_cell_angle_gamma                95.419(2)
_cell_volume                     2888
loop_
_atom_site_label
_atom_site_type_symbol
_atom_site_fract_x
_atom_site_fract_y
_atom_site_fract_z
H29 H 0.0183 0.8006 0.0652
H30 H 0.0174 0.8619 0.0226
Gd7 Gd 0.04060(3) 0.36852(3) 0.050688(15)
O20 O 0.1443(4) 0.6596(3) 0.0281(2)
O21 O 0.0910(4) 0.7551(4) 0.9183(2)
O23 O 0.0917(4) 0.5279(3) 0.8967(2)
O18 O 0.9792(4) 0.8100(4) 0.0253(2)
O22 O 0.9046(4) 0.5843(3) 0.0367(2)
C1 C 0.3008(6) 0.1724(5) 0.6292(3)
H1 H 0.2243 0.1266 0.6117
C2 C 0.3475(7) 0.2409(6) 0.5918(3)
H2 H 0.3048 0.2351 0.5496
C3 C 0.4535(5) 0.3130(5) 0.6191(3)
C4 C 0.5222(6) 0.3106(5) 0.6830(3)
H3 H 0.5977 0.3573 0.7023
C5 C 0.4775(6) 0.2416(5) 0.7141(3)
C6 C 0.5337(6) 0.2312(5) 0.7785(3)
C7 C 0.6396(5) 0.3065(5) 0.8199(3)
H4 H 0.6736 0.3658 0.8066
C8 C 0.6937(6) 0.2898(5) 0.8827(3)
C9 C 0.6436(6) 0.2018(5) 0.8962(3)
H5 H 0.6806 0.1849 0.9345
C10 C 0.5381(6) 0.1321(5) 0.8564(3)
H6 H 0.5028 0.0737 0.8701
C11 C 0.5065(6) 0.3920(4) 0.5847(3)
C12 C 0.8068(6) 0.3696(6) 0.9262(3)
C16 C 0.1814(5) 0.0200(5) 0.8902(3)
H9 H 0.1489 0.0640 0.9200
C17 C 0.2260(5) 0.0633(5) 0.8452(3)
C18 C 0.2299(6) 0.1826(5) 0.8438(3)
C19 C 0.1837(6) 0.2608(5) 0.8847(3)
H10 H 0.1573 0.2420 0.9185
C20 C 0.1781(6) 0.3649(5) 0.8740(3)
C21 C 0.2049(6) 0.3894(4) 0.8229(3)
H11 H 0.1956 0.4579 0.8131
C22 C 0.2482(6) 0.3055(5) 0.7846(3)
H12 H 0.2677 0.3242 0.7492
C24 C 0.1207(6) 0.4391(5) 0.9162(3)
C25 C 0.0488(5) 0.0620(4) 0.6914(3)
H13 H 0.0524 0.1301 0.7193
Co1 Co 0.32239(8) 0.08629(7) 0.74301(4)
Gd1 Gd 0.30126(3) 0.44649(2) 0.451350(15)
Gd2 Gd 0.95940(3) 0.63148(3) 0.949312(15)
N1 N 0.3676(5) 0.1734(4) 0.6908(3)
N2 N 0.4854(5) 0.1475(4) 0.7979(2)
N3 N 0.2797(4) 0.0071(4) 0.8024(2)
N4 N 0.2652(5) 0.2078(4) 0.7903(2)
N5 N 0.1560(5) 0.0208(4) 0.6893(2)
O1 O 0.4299(4) 0.4098(4) 0.5379(2)
O2 O 0.6218(4) 0.4331(3) 0.60027(19)
O3 O 0.8399(4) 0.4511(4) 0.9097(2)
O4 O 0.8557(4) 0.3404(3) 0.9719(2)
O7 O 0.0954(4) 0.4157(3) 0.9633(2)
O13 O 0.2014(4) 0.3666(4) 0.3376(2)
H19 H 0.2573 0.3255 0.3184
H20 H 0.1262 0.3177 0.3331
O14 O 0.1327(4) 0.5408(4) 0.4153(2)
H21 H 0.1618 0.6012 0.3990
H22 H 0.0697 0.4894 0.3821
O15 O 0.1740(4) 0.4548(4) 0.5262(2)
H23 H 0.1186 0.3858 0.5161
H24 H 0.2268 0.4670 0.5687
O16 O 0.8806(5) 0.6285(4) 0.8372(2)
H25 H 0.9491 0.6440 0.8194
H26 H 0.8344 0.5565 0.8148
O17 O 0.7532(4) 0.6767(4) 0.9296(2)
H27 H 0.7428 0.7232 0.9679
H28 H 0.6936 0.6098 0.9171
Gd3 Gd 0.69874(3) 0.55351(2) 0.548650(15)
O19 O 0.3782(4) 0.5669(3) 0.39973(19)
O24 O 0.1952(4) 0.2732(3) 0.4386(2)
O25 O 0.3634(4) 0.6223(4) 0.5290(2)
O26 O 0.4438(4) 0.3531(4) 0.4130(2)
C13 C 0.2841(6) 0.8920(5) 0.8034(3)
H7 H 0.3205 0.8490 0.7751
C14 C 0.2383(5) 0.8460(5) 0.8430(3)
H8 H 0.2391 0.7706 0.8410
C15 C 0.1871(5) 0.9111(5) 0.8889(3)
C23 C 0.1349(6) 0.8575(5) 0.9323(4)
C28 C 0.0434(5) 0.8544(5) 0.6141(3)
H15 H 0.0412 0.7850 0.5877
C29 C 0.1533(5) 0.9174(5) 0.6515(3)
C30 C 0.2760(5) 0.8852(5) 0.6503(3)
C31 C 0.2975(6) 0.7962(6) 0.6116(3)
H16 H 0.2306 0.7478 0.5824
C32 C 0.4216(6) 0.7738(5) 0.6142(3)
C33 C 0.5166(6) 0.8478(6) 0.6612(3)
H17 H 0.5985 0.8347 0.6653
C34 C 0.4946(6) 0.9377(5) 0.7011(3)
H18 H 0.5602 0.9843 0.7322
C36 C 0.4565(6) 0.6778(6) 0.5721(4)
N6 N 0.3765(4) 0.9589(4) 0.6952(2)
O6 O 0.1288(4) 0.9240(4) 0.9836(2)
O12 O 0.5562(4) 0.6469(4) 0.5870(2)
C26 C 0.9325(6) 0.0059(5) 0.6528(3)
H14 H 0.8606 0.0388 0.6514
C27 C 0.9287(6) 0.9027(5) 0.6181(3)
C35 C 0.8069(6) 0.8296(5) 0.5830(3)
O9 O 0.7131(4) 0.8748(4) 0.5717(2)
O10 O 0.8048(4) 0.7268(3) 0.5614(2)
C27_2 C 0.0713(6) 0.0973(5) 0.3819(3)
C35_2 C 0.1931(6) 0.1704(5) 0.4170(3)
O9_2 O 0.2869(4) 0.1252(4) 0.4283(2)
C26_2 C 0.0675(6) 0.9941(5) 0.3472(3)
H14_2 H 0.1394 0.9612 0.3486
C13_2 C 0.7159(6) 0.1080(5) 0.1966(3)
H7_2 H 0.6795 0.1510 0.2249
C14_2 C 0.7617(5) 0.1540(5) 0.1570(3)
H8_2 H 0.7609 0.2294 0.1590
C15_2 C 0.8129(5) 0.0889(5) 0.1111(3)
C23_2 C 0.8651(6) 0.1425(5) 0.0677(4)
C28_2 C 0.9566(5) 0.1456(5) 0.3859(3)
H15_2 H 0.9588 0.2150 0.4123
C29_2 C 0.8467(5) 0.0826(5) 0.3485(3)
C30_2 C 0.7240(5) 0.1148(5) 0.3497(3)
C31_2 C 0.7025(6) 0.2038(6) 0.3884(3)
H16_2 H 0.7694 0.2522 0.4176
C32_2 C 0.5784(6) 0.2262(5) 0.3858(3)
C33_2 C 0.4834(6) 0.1522(6) 0.3388(3)
H17_2 H 0.4015 0.1653 0.3347
C34_2 C 0.5054(6) 0.0623(5) 0.2989(3)
H18_2 H 0.4398 0.0157 0.2678
C36_2 C 0.5435(6) 0.3222(6) 0.4279(4)
N6_2 N 0.6235(4) 0.0411(4) 0.3048(2)
O5 O 0.9090(4) 0.2449(4) 0.0817(2)
O6_2 O 0.8712(4) 0.0760(4) 0.0164(2)
O11 O 0.6366(4) 0.3777(4) 0.4710(2)
C1_2 C 0.6992(6) 0.8276(5) 0.3708(3)
H1_2 H 0.7757 0.8734 0.3883
C2_2 C 0.6525(7) 0.7591(6) 0.4082(3)
H2_2 H 0.6952 0.7649 0.4504
C3_2 C 0.5465(5) 0.6870(5) 0.3809(3)
C4_2 C 0.4778(6) 0.6894(5) 0.3170(3)
H3_2 H 0.4023 0.6427 0.2977
C5_2 C 0.5225(6) 0.7584(5) 0.2859(3)
C6_2 C 0.4663(6) 0.7688(5) 0.2215(3)
C7_2 C 0.3604(5) 0.6935(5) 0.1801(3)
H4_2 H 0.3264 0.6342 0.1934
C8_2 C 0.3063(6) 0.7102(5) 0.1173(3)
C9_2 C 0.3564(6) 0.7982(5) 0.1038(3)
H5_2 H 0.3194 0.8151 0.0655
C10_2 C 0.4619(6) 0.8679(5) 0.1436(3)
H6_2 H 0.4972 0.9263 0.1299
C11_2 C 0.4935(6) 0.6080(4) 0.4153(3)
C12_2 C 0.1932(6) 0.6304(6) 0.0738(3)
C16_2 C 0.8186(5) 0.9800(5) 0.1098(3)
H9_2 H 0.8511 0.9360 0.0800
C17_2 C 0.7740(5) 0.9367(5) 0.1548(3)
C18_2 C 0.7701(6) 0.8174(5) 0.1562(3)
C19_2 C 0.8163(6) 0.7392(5) 0.1153(3)
H10_2 H 0.8427 0.7580 0.0815
C20_2 C 0.8219(6) 0.6351(5) 0.1260(3)
C21_2 C 0.7951(6) 0.6106(4) 0.1771(3)
H11_2 H 0.8044 0.5421 0.1869
C22_2 C 0.7518(6) 0.6945(5) 0.2154(3)
H12_2 H 0.7323 0.6758 0.2508
C24_2 C 0.8793(6) 0.5609(5) 0.0838(3)
C25_2 C 0.9512(5) 0.9380(4) 0.3086(3)
H13_2 H 0.9476 0.8699 0.2807
Co1_2 Co 0.67761(8) 0.91371(7) 0.25699(4)
N1_2 N 0.6324(5) 0.8266(4) 0.3092(3)
N2_2 N 0.5146(5) 0.8525(4) 0.2021(2)
N3_2 N 0.7203(4) 0.9929(4) 0.1976(2)
N4_2 N 0.7348(5) 0.7922(4) 0.2097(2)
N5_2 N 0.8440(5) 0.9792(4) 0.3107(2)
O1_2 O 0.5701(4) 0.5902(4) 0.4621(2)
O3_2 O 0.1601(4) 0.5489(4) 0.0903(2)
O8 O 0.9083(4) 0.4721(3) 0.1033(2)
O13_2 O 0.7986(4) 0.6334(4) 0.6624(2)
H19_2 H 0.7427 0.6745 0.6816
H20_2 H 0.8738 0.6823 0.6669
O14_2 O 0.8673(4) 0.4592(4) 0.5847(2)
H21_2 H 0.8382 0.3988 0.6010
H22_2 H 0.9303 0.5106 0.6179
O15_2 O 0.8260(4) 0.5452(4) 0.4738(2)
H23_2 H 0.8814 0.6142 0.4839
H24_2 H 0.7732 0.5330 0.4313
O16_2 O 0.1194(5) 0.3715(4) 0.1628(2)
H25_2 H 0.0509 0.3560 0.1806
H26_2 H 0.1656 0.4435 0.1852
O17_2 O 0.2468(4) 0.3233(4) 0.0704(2)
H27_2 H 0.2572 0.2768 0.0321
H28_2 H 0.3064 0.3902 0.0829
O18_2 O 0.0208(4) 0.1900(4) 0.9747(2)
H29_2 H 0.9817 0.1994 0.9348
H30_2 H 0.9826 0.1381 0.9774
O27 O 0.0979(4) 0.0522(4) 0.2028(2)
N7 N 0.1382(6) 0.9641(5) 0.2006(3)
O28 O 0.0908(5) 0.8832(4) 0.1556(2)
O29 O 0.2249(4) 0.9541(4) 0.2419(2)
N7_2 N 0.8618(6) 0.0359(5) 0.7994(3)
O28_2 O 0.9092(5) 0.1168(4) 0.8444(2)
O29_2 O 0.7751(4) 0.0459(4) 0.7581(2)
O27_2 O 0.9021(4) 0.9478(4) 0.7972(2)
N8 N 0.8766(6) 0.3953(5) 0.2911(3)
O30 O 0.9614(5) 0.3764(4) 0.2651(2)
O31 O 0.7883(4) 0.4291(4) 0.2617(2)
O32 O 0.8750(5) 0.3711(4) 0.3416(2)
N8_2 N 0.1234(6) 0.6047(5) 0.7089(3)
O30_2 O 0.0386(5) 0.6236(4) 0.7349(2)
O31_2 O 0.2117(4) 0.5709(4) 0.7383(2)
O32_2 O 0.1250(5) 0.6289(4) 0.6584(2)
N9 N 0.7884(5) 0.1513(5) 0.5384(3)
O33 O 0.6835(4) 0.1029(4) 0.5224(2)
O34 O 0.8103(4) 0.2521(4) 0.5624(2)
O35 O 0.8762(4) 0.1013(4) 0.5315(2)
N9_2 N 0.2116(5) 0.8487(5) 0.4616(3)
O33_2 O 0.3165(4) 0.8971(4) 0.4776(2)
O34_2 O 0.1897(4) 0.7479(4) 0.4376(2)
O35_2 O 0.1238(4) 0.8987(4) 0.4685(2)
loop_
_geom_bond_atom_site_label_1
_geom_bond_atom_site_label_2
_geom_bond_site_symmetry_1
_geom_bond_site_symmetry_2
C1 H1 1_555 1_555
C2 C1 1_555 1_555
H2 C2 1_555 1_555
C3 C2 1_555 1_555
C4 C3 1_555 1_555
H3 C4 1_555 1_555
C5 C4 1_555 1_555
C6 C5 1_555 1_555
C7 C6 1_555 1_555
H4 C7 1_555 1_555
C8 C7 1_555 1_555
C9 C8 1_555 1_555
H5 C9 1_555 1_555
C10 C9 1_555 1_555
H6 C10 1_555 1_555
C11 C3 1_555 1_555
C12 C8 1_555 1_555
H9 C16 1_555 1_555
C17 C16 1_555 1_555
C18 C17 1_555 1_555
C19 C18 1_555 1_555
H10 C19 1_555 1_555
C20 C19 1_555 1_555
C21 C20 1_555 1_555
H11 C21 1_555 1_555
C22 C21 1_555 1_555
H12 C22 1_555 1_555
C24 C20 1_555 1_555
C25 H13 1_555 1_555
Co1 N1 1_555 1_555
Gd1 O1 1_555 1_555
Gd2 O3 1_555 1_555
N1 C1 1_555 1_555
N2 C6 1_555 1_555
N4 C18 1_555 1_555
N5 C25 1_555 1_555
O1 C11 1_555 1_555
O2 C11 1_555 1_555
O3 C12 1_555 1_555
O4 C12 1_555 1_555
O7 C24 1_555 1_555
O23 C24 1_555 1_555
O13 Gd1 1_555 1_555
H19 O13 1_555 1_555
H20 O13 1_555 1_555
O14 Gd1 1_555 1_555
H21 O14 1_555 1_555
H22 O14 1_555 1_555
O15 Gd1 1_555 1_555
H23 O15 1_555 1_555
H24 O15 1_555 1_555
O16 Gd2 1_555 1_555
H25 O16 1_555 1_555
H26 O16 1_555 1_555
O17 Gd2 1_555 1_555
H27 O17 1_555 1_555
H28 O17 1_555 1_555
Gd3 O2 1_555 1_555
O19 Gd1 1_555 1_555
O24 Gd1 1_555 1_555
O25 Gd1 1_555 1_555
O26 Gd1 1_555 1_555
C5 N1 1_555 1_555
C10 N2 1_555 1_555
C17 N3 1_555 1_555
C22 N4 1_555 1_555
Co1 N2 1_555 1_555
Co1 N3 1_555 1_555
Co1 N4 1_555 1_555
Co1 N5 1_555 1_555
C13 H7 1_555 1_555
C14 C13 1_555 1_555
H8 C14 1_555 1_555
C15 C14 1_555 1_555
C23 C15 1_555 1_555
H15 C28 1_555 1_555
C29 C28 1_555 1_555
C30 C29 1_555 1_555
C31 C30 1_555 1_555
H16 C31 1_555 1_555
C32 C31 1_555 1_555
C33 C32 1_555 1_555
H17 C33 1_555 1_555
C34 C33 1_555 1_555
H18 C34 1_555 1_555
C36 C32 1_555 1_555
N6 C30 1_555 1_555
O21 C23 1_555 1_555
O6 C23 1_555 1_555
O25 C36 1_555 1_555
O12 C36 1_555 1_555
Gd3 O12 1_555 1_555
C34 N6 1_555 1_555
H14 C26 1_555 1_555
C35 C27 1_555 1_555
O9 C35 1_555 1_555
O10 C35 1_555 1_555
Gd3 O10 1_555 1_555
C35_2 C27_2 1_555 1_555
O9_2 C35_2 1_555 1_555
O24 C35_2 1_555 1_555
H14_2 C26_2 1_555 1_555
C13_2 H7_2 1_555 1_555
C14_2 C13_2 1_555 1_555
H8_2 C14_2 1_555 1_555
C15_2 C14_2 1_555 1_555
C23_2 C15_2 1_555 1_555
H15_2 C28_2 1_555 1_555
C29_2 C28_2 1_555 1_555
C30_2 C29_2 1_555 1_555
C31_2 C30_2 1_555 1_555
H16_2 C31_2 1_555 1_555
C32_2 C31_2 1_555 1_555
C33_2 C32_2 1_555 1_555
H17_2 C33_2 1_555 1_555
C34_2 C33_2 1_555 1_555
H18_2 C34_2 1_555 1_555
C36_2 C32_2 1_555 1_555
N6_2 C30_2 1_555 1_555
O5 C23_2 1_555 1_555
O6_2 C23_2 1_555 1_555
O11 C36_2 1_555 1_555
O26 C36_2 1_555 1_555
Gd3 O11 1_555 1_555
C34_2 N6_2 1_555 1_555
C1_2 H1_2 1_555 1_555
C2_2 C1_2 1_555 1_555
H2_2 C2_2 1_555 1_555
C3_2 C2_2 1_555 1_555
C4_2 C3_2 1_555 1_555
H3_2 C4_2 1_555 1_555
C5_2 C4_2 1_555 1_555
C6_2 C5_2 1_555 1_555
C7_2 C6_2 1_555 1_555
H4_2 C7_2 1_555 1_555
C8_2 C7_2 1_555 1_555
C9_2 C8_2 1_555 1_555
H5_2 C9_2 1_555 1_555
C10_2 C9_2 1_555 1_555
H6_2 C10_2 1_555 1_555
C11_2 C3_2 1_555 1_555
C12_2 C8_2 1_555 1_555
H9_2 C16_2 1_555 1_555
C17_2 C16_2 1_555 1_555
C18_2 C17_2 1_555 1_555
C19_2 C18_2 1_555 1_555
H10_2 C19_2 1_555 1_555
C20_2 C19_2 1_555 1_555
C21_2 C20_2 1_555 1_555
H11_2 C21_2 1_555 1_555
C22_2 C21_2 1_555 1_555
H12_2 C22_2 1_555 1_555
C24_2 C20_2 1_555 1_555
C25_2 H13_2 1_555 1_555
Co1_2 N1_2 1_555 1_555
Gd3 O1_2 1_555 1_555
Gd7 O3_2 1_555 1_555
N1_2 C1_2 1_555 1_555
N2_2 C6_2 1_555 1_555
N4_2 C18_2 1_555 1_555
N5_2 C25_2 1_555 1_555
O1_2 C11_2 1_555 1_555
O19 C11_2 1_555 1_555
O3_2 C12_2 1_555 1_555
O20 C12_2 1_555 1_555
O22 C24_2 1_555 1_555
O8 C24_2 1_555 1_555
O13_2 Gd3 1_555 1_555
H19_2 O13_2 1_555 1_555
H20_2 O13_2 1_555 1_555
O14_2 Gd3 1_555 1_555
H21_2 O14_2 1_555 1_555
H22_2 O14_2 1_555 1_555
O15_2 Gd3 1_555 1_555
H23_2 O15_2 1_555 1_555
H24_2 O15_2 1_555 1_555
O16_2 Gd7 1_555 1_555
H25_2 O16_2 1_555 1_555
H26_2 O16_2 1_555 1_555
O17_2 Gd7 1_555 1_555
H27_2 O17_2 1_555 1_555
H28_2 O17_2 1_555 1_555
C5_2 N1_2 1_555 1_555
C10_2 N2_2 1_555 1_555
C17_2 N3_2 1_555 1_555
C22_2 N4_2 1_555 1_555
Co1_2 N2_2 1_555 1_555
Co1_2 N3_2 1_555 1_555
Co1_2 N4_2 1_555 1_555
Co1_2 N5_2 1_555 1_555
O28 N7 1_555 1_555
O29 N7 1_555 1_555
O28_2 N7_2 1_555 1_555
O29_2 N7_2 1_555 1_555
N8 O30 1_555 1_555
O31 N8 1_555 1_555
O32 N8 1_555 1_555
N8_2 O30_2 1_555 1_555
O31_2 N8_2 1_555 1_555
O32_2 N8_2 1_555 1_555
N9 O33 1_555 1_555
O34 N9 1_555 1_555
O35 N9 1_555 1_555
N9_2 O33_2 1_555 1_555
O34_2 N9_2 1_555 1_555
O35_2 N9_2 1_555 1_555

#END
